024_A_800
          07202400393D 1   1.00000     0.00000     0
            
 47 49  0  0  0  0            999 V2000
   47.6767   13.1813    4.1718 Br  0  0  0  0  0  0  0  0  0  0  0  0
   44.8804   13.9308    0.8245 S   0  0  0  0  0  0  0  0  0  0  0  0
   47.0940   17.3852    5.9036 O   0  0  0  0  0  0  0  0  0  0  0  0
   48.9602   18.0094    5.0008 O   0  0  0  0  0  0  0  0  0  0  0  0
   43.7496   16.5431    0.3353 O   0  0  0  0  0  0  0  0  0  0  0  0
   44.2253   17.4479    2.2213 O   0  0  0  0  0  0  0  0  0  0  0  0
   46.2853   16.0322    3.8548 O   0  0  0  0  0  0  0  0  0  0  0  0
   48.8084    8.7964    1.5937 N   0  0  0  0  0  0  0  0  0  0  0  0
   47.4784   16.7808    3.6236 C   0  0  0  0  0  0  0  0  0  0  0  0
   50.5758    5.8743    4.1689 C   0  0  0  0  0  0  0  0  0  0  0  0
   51.3182    6.2701    2.8597 C   0  0  0  0  0  0  0  0  0  0  0  0
   49.0282    5.9579    4.0422 C   0  0  0  0  0  0  0  0  0  0  0  0
   45.2957    9.4651    0.3965 C   0  0  0  0  0  0  0  0  0  0  0  0
   50.8540    7.6414    2.3091 C   0  0  0  0  0  0  0  0  0  0  0  0
   48.5872    7.3099    3.4489 C   0  0  0  0  0  0  0  0  0  0  0  0
   46.5230    8.8003    0.6750 C   0  0  0  0  0  0  0  0  0  0  0  0
   45.1568   10.8345    0.7663 C   0  0  0  0  0  0  0  0  0  0  0  0
   47.4625   10.8784    1.6790 C   0  0  0  0  0  0  0  0  0  0  0  0
   47.8755   17.4429    4.9391 C   0  0  0  0  0  0  0  0  0  0  0  0
   44.3003   16.5063    1.4374 C   0  0  0  0  0  0  0  0  0  0  0  0
   46.4427   13.7802    2.8355 C   0  0  0  0  0  0  0  0  0  0  0  0
   45.0226   15.3414    1.7702 C   0  0  0  0  0  0  0  0  0  0  0  0
   45.9499   12.9876    1.7619 C   0  0  0  0  0  0  0  0  0  0  0  0
   49.3300    7.5946    2.1171 C   0  0  0  0  0  0  0  0  0  0  0  0
   47.5994    9.5030    1.3122 C   0  0  0  0  0  0  0  0  0  0  0  0
   45.9170   15.1030    2.8466 C   0  0  0  0  0  0  0  0  0  0  0  0
   46.2243   11.5603    1.4053 C   0  0  0  0  0  0  0  0  0  0  0  0
   46.2179   16.9123    5.8097 H   0  0  0  0  0  0  0  0  0  0  0  0
   43.8243   15.7641   -0.2873 H   0  0  0  0  0  0  0  0  0  0  0  0
   49.5766    9.3720    1.3135 H   0  0  0  0  0  0  0  0  0  0  0  0
   47.3122   17.4794    2.9277 H   0  0  0  0  0  0  0  0  0  0  0  0
   48.2085   16.1708    3.3159 H   0  0  0  0  0  0  0  0  0  0  0  0
   50.8690    6.4907    4.8997 H   0  0  0  0  0  0  0  0  0  0  0  0
   50.8254    4.9352    4.4047 H   0  0  0  0  0  0  0  0  0  0  0  0
   51.1434    5.5701    2.1673 H   0  0  0  0  0  0  0  0  0  0  0  0
   52.2993    6.3151    3.0480 H   0  0  0  0  0  0  0  0  0  0  0  0
   48.6210    5.8520    4.9494 H   0  0  0  0  0  0  0  0  0  0  0  0
   48.7099    5.2211    3.4458 H   0  0  0  0  0  0  0  0  0  0  0  0
   44.5443    8.9799   -0.0506 H   0  0  0  0  0  0  0  0  0  0  0  0
   51.2997    7.8219    1.4323 H   0  0  0  0  0  0  0  0  0  0  0  0
   51.0908    8.3641    2.9584 H   0  0  0  0  0  0  0  0  0  0  0  0
   48.7944    8.0381    4.1022 H   0  0  0  0  0  0  0  0  0  0  0  0
   47.6024    7.2869    3.2767 H   0  0  0  0  0  0  0  0  0  0  0  0
   46.6356    7.8386    0.4253 H   0  0  0  0  0  0  0  0  0  0  0  0
   44.2946   11.3043    0.5769 H   0  0  0  0  0  0  0  0  0  0  0  0
   48.2186   11.3614    2.1207 H   0  0  0  0  0  0  0  0  0  0  0  0
   49.1179    6.8564    1.4767 H   0  0  0  0  0  0  0  0  0  0  0  0
  1 21  1  0  0  0  0
  2 22  1  0  0  0  0
  2 23  1  0  0  0  0
  3 19  1  0  0  0  0
  4 19  2  0  0  0  0
  5 20  1  0  0  0  0
  6 20  2  0  0  0  0
  7  9  1  0  0  0  0
  7 26  1  0  0  0  0
  8 24  1  0  0  0  0
  8 25  1  0  0  0  0
  9 19  1  0  0  0  0
 10 11  1  0  0  0  0
 10 12  1  0  0  0  0
 11 14  1  0  0  0  0
 12 15  1  0  0  0  0
 13 16  2  0  0  0  0
 13 17  1  0  0  0  0
 14 24  1  0  0  0  0
 15 24  1  0  0  0  0
 16 25  1  0  0  0  0
 17 27  2  0  0  0  0
 18 25  2  0  0  0  0
 18 27  1  0  0  0  0
 20 22  1  0  0  0  0
 21 23  2  0  0  0  0
 21 26  1  0  0  0  0
 22 26  2  0  0  0  0
 23 27  1  0  0  0  0
  3 28  1  0  0  0  0
  5 29  1  0  0  0  0
  8 30  1  0  0  0  0
  9 31  1  0  0  0  0
  9 32  1  0  0  0  0
 10 33  1  0  0  0  0
 10 34  1  0  0  0  0
 11 35  1  0  0  0  0
 11 36  1  0  0  0  0
 12 37  1  0  0  0  0
 12 38  1  0  0  0  0
 13 39  1  0  0  0  0
 14 40  1  0  0  0  0
 14 41  1  0  0  0  0
 15 42  1  0  0  0  0
 15 43  1  0  0  0  0
 16 44  1  0  0  0  0
 17 45  1  0  0  0  0
 18 46  1  0  0  0  0
 24 47  1  0  0  0  0
M  END
> <pdb_id>
2QBS

> <uniprot_id>
P18031

> <usmiles>
BrC1=C(SC(C(=O)O)=C1OCC(=O)O)c2cc(NC3CCCCC3)ccc2

$$$$
03K_A_300
          07192421083D 1   1.00000     0.00000     0
            
 34 36  0  0  0  0            999 V2000
    7.6763   23.9278    3.9648 O   0  0  0  0  0  0  0  0  0  0  0  0
    2.3772   26.8639    7.9036 O   0  0  0  0  0  0  0  0  0  0  0  0
    8.6914   24.0439    5.9764 N   0  0  0  0  0  0  0  0  0  0  0  0
    1.8609   30.6712    6.4264 N   0  0  0  0  0  0  0  0  0  0  0  0
    0.8438   31.2683    6.8488 N   0  0  0  0  0  0  0  0  0  0  0  0
    2.8866   28.5896    6.5027 N   0  0  0  0  0  0  0  0  0  0  0  0
    6.0883   25.0075    7.0181 C   0  0  0  0  0  0  0  0  0  0  0  0
    5.8331   25.9413    4.8190 C   0  0  0  0  0  0  0  0  0  0  0  0
    5.0096   25.7798    7.4587 C   0  0  0  0  0  0  0  0  0  0  0  0
    4.7566   26.7024    5.2488 C   0  0  0  0  0  0  0  0  0  0  0  0
   -1.6859   30.2603    9.4733 C   0  0  0  0  0  0  0  0  0  0  0  0
   -2.4010   29.8300    8.1807 C   0  0  0  0  0  0  0  0  0  0  0  0
    0.7112   29.1903    7.5302 C   0  0  0  0  0  0  0  0  0  0  0  0
    7.6996   24.3055    5.1391 C   0  0  0  0  0  0  0  0  0  0  0  0
    3.1096   27.3888    7.0642 C   0  0  0  0  0  0  0  0  0  0  0  0
    1.8452   29.4008    6.8247 C   0  0  0  0  0  0  0  0  0  0  0  0
    0.0871   30.3868    7.5209 C   0  0  0  0  0  0  0  0  0  0  0  0
    6.5254   25.1258    5.7004 C   0  0  0  0  0  0  0  0  0  0  0  0
    4.3284   26.6172    6.5694 C   0  0  0  0  0  0  0  0  0  0  0  0
   -1.2624   30.8543    8.1170 C   0  0  0  0  0  0  0  0  0  0  0  0
    8.6522   24.3783    6.9180 H   0  0  0  0  0  0  0  0  0  0  0  0
    9.4796   23.5119    5.6671 H   0  0  0  0  0  0  0  0  0  0  0  0
    2.5802   31.0882    5.8707 H   0  0  0  0  0  0  0  0  0  0  0  0
    3.5278   28.9059    5.8036 H   0  0  0  0  0  0  0  0  0  0  0  0
    6.5431   24.3744    7.6444 H   0  0  0  0  0  0  0  0  0  0  0  0
    6.1137   25.9813    3.8600 H   0  0  0  0  0  0  0  0  0  0  0  0
    4.7232   25.7332    8.4157 H   0  0  0  0  0  0  0  0  0  0  0  0
    4.2884   27.3124    4.6095 H   0  0  0  0  0  0  0  0  0  0  0  0
   -1.0835   29.6196    9.9494 H   0  0  0  0  0  0  0  0  0  0  0  0
   -2.1620   30.8304   10.1429 H   0  0  0  0  0  0  0  0  0  0  0  0
   -3.3431   30.1191    8.0110 H   0  0  0  0  0  0  0  0  0  0  0  0
   -2.2646   28.9083    7.8175 H   0  0  0  0  0  0  0  0  0  0  0  0
    0.4047   28.3414    7.9609 H   0  0  0  0  0  0  0  0  0  0  0  0
   -1.5237   31.8037    7.9430 H   0  0  0  0  0  0  0  0  0  0  0  0
  1 14  2  0  0  0  0
  2 15  2  0  0  0  0
  3 14  1  0  0  0  0
  4  5  1  0  0  0  0
  4 16  1  0  0  0  0
  5 17  2  0  0  0  0
  6 15  1  0  0  0  0
  6 16  1  0  0  0  0
  7  9  1  0  0  0  0
  7 18  2  0  0  0  0
  8 10  2  0  0  0  0
  8 18  1  0  0  0  0
  9 19  2  0  0  0  0
 10 19  1  0  0  0  0
 11 12  1  0  0  0  0
 11 20  1  0  0  0  0
 12 20  1  0  0  0  0
 13 16  2  0  0  0  0
 13 17  1  0  0  0  0
 14 18  1  0  0  0  0
 15 19  1  0  0  0  0
 17 20  1  0  0  0  0
  3 21  1  0  0  0  0
  3 22  1  0  0  0  0
  4 23  1  0  0  0  0
  6 24  1  0  0  0  0
  7 25  1  0  0  0  0
  8 26  1  0  0  0  0
  9 27  1  0  0  0  0
 10 28  1  0  0  0  0
 11 29  1  0  0  0  0
 11 30  1  0  0  0  0
 12 31  1  0  0  0  0
 12 32  1  0  0  0  0
 13 33  1  0  0  0  0
 20 34  1  0  0  0  0
M  END
> <pdb_id>
4EK5

> <uniprot_id>
P24941

> <usmiles>
O=C(NC=1NN=C(C1)C2CC2)c3ccc(cc3)C(=O)N

$$$$
03M_A_1
          07192423353D 1   1.00000     0.00000     0
            
 42 45  0  0  0  0            999 V2000
  -13.0738  -40.3897    1.3397 Cl  0  0  0  0  0  0  0  0  0  0  0  0
   -6.2200  -27.2797    5.4202 F   0  0  0  0  0  0  0  0  0  0  0  0
   -4.5470  -29.0109    6.7129 F   0  0  0  0  0  0  0  0  0  0  0  0
   -6.1102  -34.1669    7.7370 O   0  0  0  0  0  0  0  0  0  0  0  0
  -10.3787  -33.1508    6.2941 O   0  0  0  0  0  0  0  0  0  0  0  0
   -8.7570  -38.8317    3.8055 N   0  0  0  0  0  0  0  0  0  0  0  0
   -7.5573  -35.2681    6.3671 N   0  0  0  0  0  0  0  0  0  0  0  0
   -8.2312  -33.2091    7.3196 N   0  0  0  0  0  0  0  0  0  0  0  0
  -10.1782  -40.9981    2.1828 C   0  0  0  0  0  0  0  0  0  0  0  0
   -8.4230  -37.7256    4.5049 C   0  0  0  0  0  0  0  0  0  0  0  0
   -8.1714  -31.9478    8.1102 C   0  0  0  0  0  0  0  0  0  0  0  0
  -12.6208  -38.1316    2.6991 C   0  0  0  0  0  0  0  0  0  0  0  0
   -8.1106  -28.6664    6.0676 C   0  0  0  0  0  0  0  0  0  0  0  0
   -8.5919  -29.7958    6.7472 C   0  0  0  0  0  0  0  0  0  0  0  0
  -11.8920  -37.2419    3.4444 C   0  0  0  0  0  0  0  0  0  0  0  0
   -6.3348  -30.3841    7.3696 C   0  0  0  0  0  0  0  0  0  0  0  0
   -9.7308  -35.7005    5.0916 C   0  0  0  0  0  0  0  0  0  0  0  0
   -7.2580  -34.1914    7.1337 C   0  0  0  0  0  0  0  0  0  0  0  0
  -12.0518  -39.3357    2.3074 C   0  0  0  0  0  0  0  0  0  0  0  0
   -6.7352  -28.3741    6.0711 C   0  0  0  0  0  0  0  0  0  0  0  0
   -5.8658  -29.2572    6.7092 C   0  0  0  0  0  0  0  0  0  0  0  0
   -9.2214  -33.6802    6.5531 C   0  0  0  0  0  0  0  0  0  0  0  0
   -8.8200  -34.9437    5.9323 C   0  0  0  0  0  0  0  0  0  0  0  0
  -10.0212  -38.7979    3.3481 C   0  0  0  0  0  0  0  0  0  0  0  0
  -10.7760  -39.6923    2.6370 C   0  0  0  0  0  0  0  0  0  0  0  0
   -7.6953  -30.6945    7.3750 C   0  0  0  0  0  0  0  0  0  0  0  0
   -9.5621  -36.9799    4.4284 C   0  0  0  0  0  0  0  0  0  0  0  0
  -10.5806  -37.5965    3.7527 C   0  0  0  0  0  0  0  0  0  0  0  0
   -5.8627  -33.3850    8.3092 H   0  0  0  0  0  0  0  0  0  0  0  0
   -8.1308  -39.5946    3.6449 H   0  0  0  0  0  0  0  0  0  0  0  0
   -9.2415  -41.0727    2.5248 H   0  0  0  0  0  0  0  0  0  0  0  0
  -10.7244  -41.7564    2.5386 H   0  0  0  0  0  0  0  0  0  0  0  0
  -10.1719  -41.0320    1.1834 H   0  0  0  0  0  0  0  0  0  0  0  0
   -7.5605  -37.5088    4.9622 H   0  0  0  0  0  0  0  0  0  0  0  0
   -7.5504  -32.1018    8.8788 H   0  0  0  0  0  0  0  0  0  0  0  0
   -9.0913  -31.7641    8.4566 H   0  0  0  0  0  0  0  0  0  0  0  0
  -13.5612  -37.9138    2.4379 H   0  0  0  0  0  0  0  0  0  0  0  0
   -8.7468  -28.0684    5.5801 H   0  0  0  0  0  0  0  0  0  0  0  0
   -9.5762  -29.9676    6.7884 H   0  0  0  0  0  0  0  0  0  0  0  0
  -12.2845  -36.3756    3.7534 H   0  0  0  0  0  0  0  0  0  0  0  0
   -5.6901  -30.9808    7.8474 H   0  0  0  0  0  0  0  0  0  0  0  0
  -10.6209  -35.2687    4.9458 H   0  0  0  0  0  0  0  0  0  0  0  0
  1 19  1  0  0  0  0
  2 20  1  0  0  0  0
  3 21  1  0  0  0  0
  4 18  1  0  0  0  0
  5 22  2  0  0  0  0
  6 10  1  0  0  0  0
  6 24  1  0  0  0  0
  7 18  2  0  0  0  0
  7 23  1  0  0  0  0
  8 11  1  0  0  0  0
  8 18  1  0  0  0  0
  8 22  1  0  0  0  0
  9 25  1  0  0  0  0
 10 27  2  0  0  0  0
 11 26  1  0  0  0  0
 12 15  1  0  0  0  0
 12 19  2  0  0  0  0
 13 14  2  0  0  0  0
 13 20  1  0  0  0  0
 14 26  1  0  0  0  0
 15 28  2  0  0  0  0
 16 21  1  0  0  0  0
 16 26  2  0  0  0  0
 17 23  2  0  0  0  0
 17 27  1  0  0  0  0
 19 25  1  0  0  0  0
 20 21  2  0  0  0  0
 22 23  1  0  0  0  0
 24 25  2  0  0  0  0
 24 28  1  0  0  0  0
 27 28  1  0  0  0  0
  4 29  1  0  0  0  0
  6 30  1  0  0  0  0
  9 31  1  0  0  0  0
  9 32  1  0  0  0  0
  9 33  1  0  0  0  0
 10 34  1  0  0  0  0
 11 35  1  0  0  0  0
 11 36  1  0  0  0  0
 12 37  1  0  0  0  0
 13 38  1  0  0  0  0
 14 39  1  0  0  0  0
 15 40  1  0  0  0  0
 16 41  1  0  0  0  0
 17 42  1  0  0  0  0
M  END
> <pdb_id>
3U15

> <uniprot_id>
O15151

> <usmiles>
Clc1c(c2NC=C(c2cc1)/C=C/3\N=C(O)N(C3=O)Cc4cc(F)c(F)cc4)C

$$$$
03M_B_1
          07192423353D 1   1.00000     0.00000     0
            
 44 47  0  0  0  0            999 V2000
  -12.7780  -40.7910    1.3380 Cl  0  0  0  0  0  0  0  0  0  0  0  0
   -6.9510  -26.9730    5.5360 F   0  0  0  0  0  0  0  0  0  0  0  0
   -5.2270  -28.9890    5.5310 F   0  0  0  0  0  0  0  0  0  0  0  0
   -6.2010  -33.9990    7.7610 O   0  0  0  0  0  0  0  0  0  0  0  0
  -10.4750  -32.8410    6.3170 O   0  0  0  0  0  0  0  0  0  0  0  0
   -8.6250  -38.6080    3.8470 N   0  0  0  0  0  0  0  0  0  0  0  0
   -7.6970  -35.0700    6.3970 N   0  0  0  0  0  0  0  0  0  0  0  0
   -8.3090  -32.9980    7.3050 N   0  0  0  0  0  0  0  0  0  0  0  0
   -9.9000  -40.9300    2.3010 C   0  0  0  0  0  0  0  0  0  0  0  0
   -8.3670  -37.4310    4.4950 C   0  0  0  0  0  0  0  0  0  0  0  0
   -8.2820  -31.7740    8.0690 C   0  0  0  0  0  0  0  0  0  0  0  0
  -12.6080  -38.3550    2.7060 C   0  0  0  0  0  0  0  0  0  0  0  0
   -8.5380  -28.2200    6.7780 C   0  0  0  0  0  0  0  0  0  0  0  0
   -8.8620  -29.4320    7.3710 C   0  0  0  0  0  0  0  0  0  0  0  0
  -11.9100  -37.3400    3.4230 C   0  0  0  0  0  0  0  0  0  0  0  0
   -6.6920  -30.3690    6.7260 C   0  0  0  0  0  0  0  0  0  0  0  0
   -9.8390  -35.5010    5.0740 C   0  0  0  0  0  0  0  0  0  0  0  0
   -7.3640  -33.9910    7.1650 C   0  0  0  0  0  0  0  0  0  0  0  0
  -11.9600  -39.5240    2.2920 C   0  0  0  0  0  0  0  0  0  0  0  0
   -7.3140  -28.1100    6.1410 C   0  0  0  0  0  0  0  0  0  0  0  0
   -6.3990  -29.1640    6.1420 C   0  0  0  0  0  0  0  0  0  0  0  0
   -9.3290  -33.4500    6.5830 C   0  0  0  0  0  0  0  0  0  0  0  0
   -8.9410  -34.7200    5.9800 C   0  0  0  0  0  0  0  0  0  0  0  0
   -9.9360  -38.7100    3.4210 C   0  0  0  0  0  0  0  0  0  0  0  0
  -10.6210  -39.6910    2.6920 C   0  0  0  0  0  0  0  0  0  0  0  0
   -7.9390  -30.4980    7.3520 C   0  0  0  0  0  0  0  0  0  0  0  0
   -9.5860  -36.8170    4.4500 C   0  0  0  0  0  0  0  0  0  0  0  0
  -10.5710  -37.5550    3.7610 C   0  0  0  0  0  0  0  0  0  0  0  0
  -11.1650  -33.2972    5.7551 H   0  0  0  0  0  0  0  0  0  0  0  0
   -7.9380  -39.3191    3.6974 H   0  0  0  0  0  0  0  0  0  0  0  0
   -7.1680  -35.8945    6.1961 H   0  0  0  0  0  0  0  0  0  0  0  0
   -8.9663  -40.8990    2.6577 H   0  0  0  0  0  0  0  0  0  0  0  0
  -10.3748  -41.7251    2.6783 H   0  0  0  0  0  0  0  0  0  0  0  0
   -9.8737  -40.9997    1.3038 H   0  0  0  0  0  0  0  0  0  0  0  0
   -7.5107  -37.1057    4.8962 H   0  0  0  0  0  0  0  0  0  0  0  0
   -7.6090  -31.8945    8.7987 H   0  0  0  0  0  0  0  0  0  0  0  0
   -9.1903  -31.6542    8.4697 H   0  0  0  0  0  0  0  0  0  0  0  0
  -13.5774  -38.2295    2.4952 H   0  0  0  0  0  0  0  0  0  0  0  0
   -9.1716  -27.4470    6.8100 H   0  0  0  0  0  0  0  0  0  0  0  0
   -9.7515  -29.5497    7.8125 H   0  0  0  0  0  0  0  0  0  0  0  0
  -12.3698  -36.4898    3.6795 H   0  0  0  0  0  0  0  0  0  0  0  0
   -6.0405  -31.1274    6.7061 H   0  0  0  0  0  0  0  0  0  0  0  0
  -10.0174  -34.8872    4.3050 H   0  0  0  0  0  0  0  0  0  0  0  0
  -10.6795  -35.6287    5.6005 H   0  0  0  0  0  0  0  0  0  0  0  0
  1 19  1  0  0  0  0
  2 20  1  0  0  0  0
  3 21  1  0  0  0  0
  4 18  2  0  0  0  0
  5 22  1  0  0  0  0
  6 10  1  0  0  0  0
  6 24  1  0  0  0  0
  7 18  1  0  0  0  0
  7 23  1  0  0  0  0
  8 11  1  0  0  0  0
  8 18  1  0  0  0  0
  8 22  1  0  0  0  0
  9 25  1  0  0  0  0
 10 27  2  0  0  0  0
 11 26  1  0  0  0  0
 12 15  1  0  0  0  0
 12 19  2  0  0  0  0
 13 14  2  0  0  0  0
 13 20  1  0  0  0  0
 14 26  1  0  0  0  0
 15 28  2  0  0  0  0
 16 21  1  0  0  0  0
 16 26  2  0  0  0  0
 17 23  1  0  0  0  0
 17 27  1  0  0  0  0
 19 25  1  0  0  0  0
 20 21  2  0  0  0  0
 22 23  2  0  0  0  0
 24 25  2  0  0  0  0
 24 28  1  0  0  0  0
 27 28  1  0  0  0  0
  5 29  1  0  0  0  0
  6 30  1  0  0  0  0
  7 31  1  0  0  0  0
  9 32  1  0  0  0  0
  9 33  1  0  0  0  0
  9 34  1  0  0  0  0
 10 35  1  0  0  0  0
 11 36  1  0  0  0  0
 11 37  1  0  0  0  0
 12 38  1  0  0  0  0
 13 39  1  0  0  0  0
 14 40  1  0  0  0  0
 15 41  1  0  0  0  0
 16 42  1  0  0  0  0
 17 43  1  0  0  0  0
 17 44  1  0  0  0  0
M  END
> <pdb_id>
3U15

> <uniprot_id>
O15151

> <usmiles>
Clc1c(c2NC=C(c2cc1)CC=3NC(=O)N(C3O)Cc4cc(F)c(F)cc4)C

$$$$
03T_B_263
          07192416293D 1   1.00000     0.00000     0
            
 20 21  0  0  0  0            999 V2000
   -3.4536    2.1043   15.5814 S   0  0  0  0  0  0  0  0  0  0  0  0
   -5.9182    0.9618   16.8871 S   0  0  0  0  0  0  0  0  0  0  0  0
   -5.3930    1.1444   18.2112 O   0  0  0  0  0  0  0  0  0  0  0  0
   -7.3823    1.1234   16.7320 O   0  0  0  0  0  0  0  0  0  0  0  0
   -5.4207   -0.4449   16.2808 N   0  0  0  0  0  0  0  0  0  0  0  0
   -2.6942    5.5103   13.5332 C   0  0  0  0  0  0  0  0  0  0  0  0
   -3.9689    6.0711   13.4971 C   0  0  0  0  0  0  0  0  0  0  0  0
   -2.4434    4.3287   14.2086 C   0  0  0  0  0  0  0  0  0  0  0  0
   -5.0448    5.3851   14.0866 C   0  0  0  0  0  0  0  0  0  0  0  0
   -5.8620    3.3765   15.4187 C   0  0  0  0  0  0  0  0  0  0  0  0
   -5.2273    2.1732   15.9088 C   0  0  0  0  0  0  0  0  0  0  0  0
   -3.5293    3.6546   14.7901 C   0  0  0  0  0  0  0  0  0  0  0  0
   -4.8180    4.1924   14.7640 C   0  0  0  0  0  0  0  0  0  0  0  0
   -5.7922   -0.5609   15.3596 H   0  0  0  0  0  0  0  0  0  0  0  0
   -4.4215   -0.4560   16.2410 H   0  0  0  0  0  0  0  0  0  0  0  0
   -1.9436    5.9720   13.0606 H   0  0  0  0  0  0  0  0  0  0  0  0
   -4.1174    6.9556   13.0549 H   0  0  0  0  0  0  0  0  0  0  0  0
   -1.5146    3.9650   14.2805 H   0  0  0  0  0  0  0  0  0  0  0  0
   -5.9717    5.7542   14.0188 H   0  0  0  0  0  0  0  0  0  0  0  0
   -6.8296    3.6132   15.5067 H   0  0  0  0  0  0  0  0  0  0  0  0
  1 11  1  0  0  0  0
  1 12  1  0  0  0  0
  2  3  2  0  0  0  0
  2  4  2  0  0  0  0
  2  5  1  0  0  0  0
  2 11  1  0  0  0  0
  6  7  2  0  0  0  0
  6  8  1  0  0  0  0
  7  9  1  0  0  0  0
  8 12  2  0  0  0  0
  9 13  2  0  0  0  0
 10 11  2  0  0  0  0
 10 13  1  0  0  0  0
 12 13  1  0  0  0  0
  5 14  1  0  0  0  0
  5 15  1  0  0  0  0
  6 16  1  0  0  0  0
  7 17  1  0  0  0  0
  8 18  1  0  0  0  0
  9 19  1  0  0  0  0
 10 20  1  0  0  0  0
M  END
> <pdb_id>
3S74

> <uniprot_id>
P00918

> <usmiles>
S(=O)(=O)(N)C=1Sc2c(cccc2)C1

$$$$
03V_A_1351
          07202413533D 1   1.00000     0.00000     0
            
 19 20  0  0  0  0            999 V2000
   24.0734    5.5404   -3.8313 O   0  0  0  0  0  0  0  0  0  0  0  0
   18.4779    6.9878   -1.2198 C   0  0  0  0  0  0  0  0  0  0  0  0
   18.6115    5.6116   -1.2714 C   0  0  0  0  0  0  0  0  0  0  0  0
   19.4960    7.7936   -1.6986 C   0  0  0  0  0  0  0  0  0  0  0  0
   19.7458    5.0264   -1.8013 C   0  0  0  0  0  0  0  0  0  0  0  0
   22.8037    7.4648   -3.2443 C   0  0  0  0  0  0  0  0  0  0  0  0
   21.6550    8.0352   -2.7109 C   0  0  0  0  0  0  0  0  0  0  0  0
   21.9249    5.2578   -2.8282 C   0  0  0  0  0  0  0  0  0  0  0  0
   22.9403    6.0836   -3.3048 C   0  0  0  0  0  0  0  0  0  0  0  0
   20.6416    7.2153   -2.2332 C   0  0  0  0  0  0  0  0  0  0  0  0
   20.7722    5.8322   -2.2939 C   0  0  0  0  0  0  0  0  0  0  0  0
   24.1769    4.5468   -3.8772 H   0  0  0  0  0  0  0  0  0  0  0  0
   17.6496    7.3982   -0.8384 H   0  0  0  0  0  0  0  0  0  0  0  0
   17.8763    5.0318   -0.9200 H   0  0  0  0  0  0  0  0  0  0  0  0
   19.4079    8.7890   -1.6602 H   0  0  0  0  0  0  0  0  0  0  0  0
   19.8302    4.0304   -1.8314 H   0  0  0  0  0  0  0  0  0  0  0  0
   23.5369    8.0521   -3.5869 H   0  0  0  0  0  0  0  0  0  0  0  0
   21.5585    9.0297   -2.6713 H   0  0  0  0  0  0  0  0  0  0  0  0
   22.0216    4.2633   -2.8689 H   0  0  0  0  0  0  0  0  0  0  0  0
  1  9  1  0  0  0  0
  2  3  1  0  0  0  0
  2  4  2  0  0  0  0
  3  5  2  0  0  0  0
  4 10  1  0  0  0  0
  5 11  1  0  0  0  0
  6  7  1  0  0  0  0
  6  9  2  0  0  0  0
  7 10  2  0  0  0  0
  8  9  1  0  0  0  0
  8 11  2  0  0  0  0
 10 11  1  0  0  0  0
  1 12  1  0  0  0  0
  2 13  1  0  0  0  0
  3 14  1  0  0  0  0
  4 15  1  0  0  0  0
  5 16  1  0  0  0  0
  6 17  1  0  0  0  0
  7 18  1  0  0  0  0
  8 19  1  0  0  0  0
M  END
> <pdb_id>
4B32

> <uniprot_id>
O74036

> <usmiles>
Oc1cc2c(cc1)cccc2

$$$$
03V_A_2002
          07192423353D 1   1.00000     0.00000     0
            
 19 20  0  0  0  0            999 V2000
   17.5350   -4.1210   -8.5300 O   0  0  0  0  0  0  0  0  0  0  0  0
   19.7620  -10.0480   -8.3760 C   0  0  0  0  0  0  0  0  0  0  0  0
   20.7300   -9.2250   -8.9320 C   0  0  0  0  0  0  0  0  0  0  0  0
   18.5460   -9.5000   -7.9700 C   0  0  0  0  0  0  0  0  0  0  0  0
   20.5370   -7.8440   -9.0980 C   0  0  0  0  0  0  0  0  0  0  0  0
   16.9720   -6.2430   -7.8640 C   0  0  0  0  0  0  0  0  0  0  0  0
   17.1840   -7.6000   -7.6970 C   0  0  0  0  0  0  0  0  0  0  0  0
   19.1320   -5.8930   -8.8520 C   0  0  0  0  0  0  0  0  0  0  0  0
   17.9000   -5.4150   -8.4340 C   0  0  0  0  0  0  0  0  0  0  0  0
   18.3440   -8.1490   -8.1160 C   0  0  0  0  0  0  0  0  0  0  0  0
   19.3660   -7.2630   -8.7090 C   0  0  0  0  0  0  0  0  0  0  0  0
   18.1600   -3.4540   -8.9355 H   0  0  0  0  0  0  0  0  0  0  0  0
   19.9349  -11.0269   -8.2672 H   0  0  0  0  0  0  0  0  0  0  0  0
   21.5963   -9.6295   -9.2251 H   0  0  0  0  0  0  0  0  0  0  0  0
   17.8323  -10.0810   -7.5788 H   0  0  0  0  0  0  0  0  0  0  0  0
   21.2605   -7.2848   -9.5027 H   0  0  0  0  0  0  0  0  0  0  0  0
   16.1051   -5.8515   -7.5555 H   0  0  0  0  0  0  0  0  0  0  0  0
   16.4828   -8.1702   -7.2689 H   0  0  0  0  0  0  0  0  0  0  0  0
   19.8237   -5.2835   -9.2393 H   0  0  0  0  0  0  0  0  0  0  0  0
  1  9  1  0  0  0  0
  2  3  1  0  0  0  0
  2  4  2  0  0  0  0
  3  5  2  0  0  0  0
  4 10  1  0  0  0  0
  5 11  1  0  0  0  0
  6  7  1  0  0  0  0
  6  9  2  0  0  0  0
  7 10  2  0  0  0  0
  8  9  1  0  0  0  0
  8 11  2  0  0  0  0
 10 11  1  0  0  0  0
  1 12  1  0  0  0  0
  2 13  1  0  0  0  0
  3 14  1  0  0  0  0
  4 15  1  0  0  0  0
  5 16  1  0  0  0  0
  6 17  1  0  0  0  0
  7 18  1  0  0  0  0
  8 19  1  0  0  0  0
M  END
> <pdb_id>
3U3K

> <uniprot_id>
P50225

> <usmiles>
Oc1cc2c(cc1)cccc2

$$$$
040_A_802
          07202413413D 1   1.00000     0.00000     0
            
 25 25  0  0  0  0            999 V2000
   39.1908   81.5279   63.6803 O   0  0  0  0  0  0  0  0  0  0  0  0
   37.8305   81.2188   65.3234 O   0  0  0  0  0  0  0  0  0  0  0  0
   37.0044   82.0589   62.0426 O   0  0  0  0  0  0  0  0  0  0  0  0
   35.5585   79.9927   61.0127 O   0  0  0  0  0  0  0  0  0  0  0  0
   32.5950   79.2036   61.1061 C   0  0  0  0  0  0  0  0  0  0  0  0
   33.1275   76.1178   63.2336 C   0  0  0  0  0  0  0  0  0  0  0  0
   34.3969   76.3378   63.7947 C   0  0  0  0  0  0  0  0  0  0  0  0
   32.5568   77.0551   62.3678 C   0  0  0  0  0  0  0  0  0  0  0  0
   35.0807   77.5045   63.4759 C   0  0  0  0  0  0  0  0  0  0  0  0
   35.9251   80.3450   63.3092 C   0  0  0  0  0  0  0  0  0  0  0  0
   37.9151   81.6029   64.1587 C   0  0  0  0  0  0  0  0  0  0  0  0
   36.8693   81.4377   63.0947 C   0  0  0  0  0  0  0  0  0  0  0  0
   35.3347   79.6421   62.3303 C   0  0  0  0  0  0  0  0  0  0  0  0
   33.2341   78.2398   62.0400 C   0  0  0  0  0  0  0  0  0  0  0  0
   34.5162   78.4496   62.5931 C   0  0  0  0  0  0  0  0  0  0  0  0
   39.3907   81.8124   62.7427 H   0  0  0  0  0  0  0  0  0  0  0  0
   35.1229   79.4747   60.2766 H   0  0  0  0  0  0  0  0  0  0  0  0
   33.1983   79.9902   60.9745 H   0  0  0  0  0  0  0  0  0  0  0  0
   32.4326   78.7572   60.2261 H   0  0  0  0  0  0  0  0  0  0  0  0
   31.7243   79.5117   61.4894 H   0  0  0  0  0  0  0  0  0  0  0  0
   32.6269   75.2813   63.4563 H   0  0  0  0  0  0  0  0  0  0  0  0
   34.8018   75.6651   64.4139 H   0  0  0  0  0  0  0  0  0  0  0  0
   31.6535   76.8790   61.9766 H   0  0  0  0  0  0  0  0  0  0  0  0
   35.9812   77.6760   63.8757 H   0  0  0  0  0  0  0  0  0  0  0  0
   35.7023   80.1030   64.2536 H   0  0  0  0  0  0  0  0  0  0  0  0
  1 11  1  0  0  0  0
  2 11  2  0  0  0  0
  3 12  2  0  0  0  0
  4 13  1  0  0  0  0
  5 14  1  0  0  0  0
  6  7  2  0  0  0  0
  6  8  1  0  0  0  0
  7  9  1  0  0  0  0
  8 14  2  0  0  0  0
  9 15  2  0  0  0  0
 10 12  1  0  0  0  0
 10 13  2  0  0  0  0
 11 12  1  0  0  0  0
 13 15  1  0  0  0  0
 14 15  1  0  0  0  0
  1 16  1  0  0  0  0
  4 17  1  0  0  0  0
  5 18  1  0  0  0  0
  5 19  1  0  0  0  0
  5 20  1  0  0  0  0
  6 21  1  0  0  0  0
  7 22  1  0  0  0  0
  8 23  1  0  0  0  0
  9 24  1  0  0  0  0
 10 25  1  0  0  0  0
M  END
> <pdb_id>
3SAD

> <uniprot_id>
P0A5J4

> <usmiles>
O=C(O)C(=O)/C=C(\O)/c1c(cccc1)C

$$$$
041_A_500
          07202401373D 1   1.00000     0.00000     0
            
 32 34  0  0  0  0            999 V2000
   22.4782  -35.7756   16.2574 F   0  0  0  0  0  0  0  0  0  0  0  0
   23.0465  -26.3673   11.7316 O   0  0  0  0  0  0  0  0  0  0  0  0
   22.3839  -37.3850   14.0206 O   0  0  0  0  0  0  0  0  0  0  0  0
   22.8038  -31.0954   14.5391 O   0  0  0  0  0  0  0  0  0  0  0  0
   23.0611  -31.2514   12.3187 N   0  0  0  0  0  0  0  0  0  0  0  0
   22.3367  -29.4892   17.1819 C   0  0  0  0  0  0  0  0  0  0  0  0
   22.5580  -28.3978   16.1306 C   0  0  0  0  0  0  0  0  0  0  0  0
   22.7484  -35.5404   12.6242 C   0  0  0  0  0  0  0  0  0  0  0  0
   22.9126  -34.1685   12.4856 C   0  0  0  0  0  0  0  0  0  0  0  0
   22.8091  -33.9112   14.8655 C   0  0  0  0  0  0  0  0  0  0  0  0
   23.0658  -28.7504   11.8728 C   0  0  0  0  0  0  0  0  0  0  0  0
   22.8194  -27.4128   13.8676 C   0  0  0  0  0  0  0  0  0  0  0  0
   22.6369  -35.2664   14.9990 C   0  0  0  0  0  0  0  0  0  0  0  0
   22.9779  -27.5088   12.4936 C   0  0  0  0  0  0  0  0  0  0  0  0
   23.0363  -31.9035   13.4416 C   0  0  0  0  0  0  0  0  0  0  0  0
   22.5821  -36.0947   13.8898 C   0  0  0  0  0  0  0  0  0  0  0  0
   22.8307  -29.8036   14.0340 C   0  0  0  0  0  0  0  0  0  0  0  0
   22.9952  -29.8977   12.6653 C   0  0  0  0  0  0  0  0  0  0  0  0
   22.9726  -33.3450   13.6022 C   0  0  0  0  0  0  0  0  0  0  0  0
   22.7302  -28.5588   14.6717 C   0  0  0  0  0  0  0  0  0  0  0  0
   22.9843  -25.4699   12.1686 H   0  0  0  0  0  0  0  0  0  0  0  0
   22.2644  -37.7828   14.9303 H   0  0  0  0  0  0  0  0  0  0  0  0
   22.2558  -29.0697   18.0860 H   0  0  0  0  0  0  0  0  0  0  0  0
   21.4975  -29.9903   16.9706 H   0  0  0  0  0  0  0  0  0  0  0  0
   23.1124  -30.1203   17.1755 H   0  0  0  0  0  0  0  0  0  0  0  0
   23.3839  -27.9209   16.4314 H   0  0  0  0  0  0  0  0  0  0  0  0
   21.7691  -27.7908   16.2266 H   0  0  0  0  0  0  0  0  0  0  0  0
   22.7498  -36.1291   11.8159 H   0  0  0  0  0  0  0  0  0  0  0  0
   22.9884  -33.7693   11.5719 H   0  0  0  0  0  0  0  0  0  0  0  0
   22.8173  -33.3278   15.6776 H   0  0  0  0  0  0  0  0  0  0  0  0
   23.1770  -28.8197   10.8815 H   0  0  0  0  0  0  0  0  0  0  0  0
   22.7678  -26.5095   14.2935 H   0  0  0  0  0  0  0  0  0  0  0  0
  1 13  1  0  0  0  0
  2 14  1  0  0  0  0
  3 16  1  0  0  0  0
  4 15  1  0  0  0  0
  4 17  1  0  0  0  0
  5 15  2  0  0  0  0
  5 18  1  0  0  0  0
  6  7  1  0  0  0  0
  7 20  1  0  0  0  0
  8  9  1  0  0  0  0
  8 16  2  0  0  0  0
  9 19  2  0  0  0  0
 10 13  2  0  0  0  0
 10 19  1  0  0  0  0
 11 14  2  0  0  0  0
 11 18  1  0  0  0  0
 12 14  1  0  0  0  0
 12 20  2  0  0  0  0
 13 16  1  0  0  0  0
 15 19  1  0  0  0  0
 17 18  2  0  0  0  0
 17 20  1  0  0  0  0
  2 21  1  0  0  0  0
  3 22  1  0  0  0  0
  6 23  1  0  0  0  0
  6 24  1  0  0  0  0
  6 25  1  0  0  0  0
  7 26  1  0  0  0  0
  7 27  1  0  0  0  0
  8 28  1  0  0  0  0
  9 29  1  0  0  0  0
 10 30  1  0  0  0  0
 11 31  1  0  0  0  0
 12 32  1  0  0  0  0
M  END
> <pdb_id>
6QY7

> <uniprot_id>
P68400

> <usmiles>
Fc1c(O)ccc(c1)C=2Oc3c(N2)cc(O)cc3CC

$$$$
043_A_801
          07202413413D 1   1.00000     0.00000     0
            
 22 22  0  0  0  0            999 V2000
   30.8499   76.9678   60.9500 Br  0  0  0  0  0  0  0  0  0  0  0  0
   39.2828   81.5017   63.7543 O   0  0  0  0  0  0  0  0  0  0  0  0
   37.8498   81.1505   65.4302 O   0  0  0  0  0  0  0  0  0  0  0  0
   36.9196   82.0228   62.2915 O   0  0  0  0  0  0  0  0  0  0  0  0
   35.3539   80.2652   61.1698 O   0  0  0  0  0  0  0  0  0  0  0  0
   33.9589   76.2980   63.7665 C   0  0  0  0  0  0  0  0  0  0  0  0
   32.7898   76.1595   62.9813 C   0  0  0  0  0  0  0  0  0  0  0  0
   34.7698   77.4343   63.5812 C   0  0  0  0  0  0  0  0  0  0  0  0
   33.2573   78.2901   61.8336 C   0  0  0  0  0  0  0  0  0  0  0  0
   35.9047   80.1995   63.4534 C   0  0  0  0  0  0  0  0  0  0  0  0
   32.4523   77.1478   62.0229 C   0  0  0  0  0  0  0  0  0  0  0  0
   38.0054   81.4727   64.2914 C   0  0  0  0  0  0  0  0  0  0  0  0
   36.8800   81.3622   63.2824 C   0  0  0  0  0  0  0  0  0  0  0  0
   35.3056   79.6499   62.4178 C   0  0  0  0  0  0  0  0  0  0  0  0
   34.4183   78.4228   62.6197 C   0  0  0  0  0  0  0  0  0  0  0  0
   39.4183   81.7710   62.8008 H   0  0  0  0  0  0  0  0  0  0  0  0
   34.8971   79.8435   60.3865 H   0  0  0  0  0  0  0  0  0  0  0  0
   34.2048   75.6017   64.4407 H   0  0  0  0  0  0  0  0  0  0  0  0
   32.1995   75.3615   63.1031 H   0  0  0  0  0  0  0  0  0  0  0  0
   35.5986   77.5473   64.1292 H   0  0  0  0  0  0  0  0  0  0  0  0
   33.0105   78.9867   61.1599 H   0  0  0  0  0  0  0  0  0  0  0  0
   35.7173   79.8484   64.3708 H   0  0  0  0  0  0  0  0  0  0  0  0
  1 11  1  0  0  0  0
  2 12  1  0  0  0  0
  3 12  2  0  0  0  0
  4 13  2  0  0  0  0
  5 14  1  0  0  0  0
  6  7  2  0  0  0  0
  6  8  1  0  0  0  0
  7 11  1  0  0  0  0
  8 15  2  0  0  0  0
  9 11  2  0  0  0  0
  9 15  1  0  0  0  0
 10 13  1  0  0  0  0
 10 14  2  0  0  0  0
 12 13  1  0  0  0  0
 14 15  1  0  0  0  0
  2 16  1  0  0  0  0
  5 17  1  0  0  0  0
  6 18  1  0  0  0  0
  7 19  1  0  0  0  0
  8 20  1  0  0  0  0
  9 21  1  0  0  0  0
 10 22  1  0  0  0  0
M  END
> <pdb_id>
3SAZ

> <uniprot_id>
P0A5J4

> <usmiles>
Brc1cc(ccc1)\C(\O)=C\C(=O)C(=O)O

$$$$
04Z_A_499
          07192421083D 1   1.00000     0.00000     0
            
 43 45  0  0  0  0            999 V2000
    0.9154   28.1883    7.8451 S   0  0  0  0  0  0  0  0  0  0  0  0
    6.5918   24.0131    7.2270 S   0  0  0  0  0  0  0  0  0  0  0  0
    7.7493   24.5617    8.2033 O   0  0  0  0  0  0  0  0  0  0  0  0
    7.2211   23.4801    5.8164 O   0  0  0  0  0  0  0  0  0  0  0  0
   -1.8761   30.8347    9.0645 O   0  0  0  0  0  0  0  0  0  0  0  0
   -4.5772   26.1319   10.0763 O   0  0  0  0  0  0  0  0  0  0  0  0
    5.8271   22.8647    7.9480 N   0  0  0  0  0  0  0  0  0  0  0  0
    0.0125   31.9132    7.3295 N   0  0  0  0  0  0  0  0  0  0  0  0
    1.6288   30.3500    6.6191 N   0  0  0  0  0  0  0  0  0  0  0  0
    3.0559   28.5754    6.1144 N   0  0  0  0  0  0  0  0  0  0  0  0
   -5.0262   25.0375   10.6934 C   0  0  0  0  0  0  0  0  0  0  0  0
   -1.0196   26.6527   11.3860 C   0  0  0  0  0  0  0  0  0  0  0  0
    4.4976   25.5011    7.8356 C   0  0  0  0  0  0  0  0  0  0  0  0
    5.8201   26.0952    5.7775 C   0  0  0  0  0  0  0  0  0  0  0  0
   -2.3508   26.0644   11.2011 C   0  0  0  0  0  0  0  0  0  0  0  0
   -0.6707   27.8280   10.6450 C   0  0  0  0  0  0  0  0  0  0  0  0
    3.6401   26.5932    7.5820 C   0  0  0  0  0  0  0  0  0  0  0  0
    4.9608   27.1973    5.5189 C   0  0  0  0  0  0  0  0  0  0  0  0
   -2.9389   27.8589    9.5384 C   0  0  0  0  0  0  0  0  0  0  0  0
    1.9609   29.0641    6.7819 C   0  0  0  0  0  0  0  0  0  0  0  0
    0.0087   29.6175    8.0651 C   0  0  0  0  0  0  0  0  0  0  0  0
    5.6009   25.2391    6.9381 C   0  0  0  0  0  0  0  0  0  0  0  0
   -3.3025   26.6766   10.2754 C   0  0  0  0  0  0  0  0  0  0  0  0
   -1.1953   29.6714    8.9536 C   0  0  0  0  0  0  0  0  0  0  0  0
    0.5283   30.6694    7.3359 C   0  0  0  0  0  0  0  0  0  0  0  0
    3.8495   27.4832    6.4121 C   0  0  0  0  0  0  0  0  0  0  0  0
   -1.6149   28.4513    9.7118 C   0  0  0  0  0  0  0  0  0  0  0  0
    5.1056   22.5172    7.3491 H   0  0  0  0  0  0  0  0  0  0  0  0
    6.4642   22.1254    8.1660 H   0  0  0  0  0  0  0  0  0  0  0  0
   -0.8031   32.1190    7.8704 H   0  0  0  0  0  0  0  0  0  0  0  0
    0.4450   32.6311    6.7840 H   0  0  0  0  0  0  0  0  0  0  0  0
    3.3179   29.0830    5.2936 H   0  0  0  0  0  0  0  0  0  0  0  0
   -5.9597   24.8439   10.3914 H   0  0  0  0  0  0  0  0  0  0  0  0
   -4.4357   24.2623   10.4691 H   0  0  0  0  0  0  0  0  0  0  0  0
   -5.0199   25.1862   11.6823 H   0  0  0  0  0  0  0  0  0  0  0  0
   -0.3656   26.2396   12.0198 H   0  0  0  0  0  0  0  0  0  0  0  0
    4.3434   24.9131    8.6296 H   0  0  0  0  0  0  0  0  0  0  0  0
    6.5818   25.9048    5.1582 H   0  0  0  0  0  0  0  0  0  0  0  0
   -2.6079   25.2426   11.7096 H   0  0  0  0  0  0  0  0  0  0  0  0
    0.2359   28.2320   10.7666 H   0  0  0  0  0  0  0  0  0  0  0  0
    2.8764   26.7711    8.2026 H   0  0  0  0  0  0  0  0  0  0  0  0
    5.1209   27.7778    4.7205 H   0  0  0  0  0  0  0  0  0  0  0  0
   -3.5934   28.2750    8.9071 H   0  0  0  0  0  0  0  0  0  0  0  0
  1 20  1  0  0  0  0
  1 21  1  0  0  0  0
  2  3  2  0  0  0  0
  2  4  2  0  0  0  0
  2  7  1  0  0  0  0
  2 22  1  0  0  0  0
  5 24  2  0  0  0  0
  6 11  1  0  0  0  0
  6 23  1  0  0  0  0
  8 25  1  0  0  0  0
  9 20  2  0  0  0  0
  9 25  1  0  0  0  0
 10 20  1  0  0  0  0
 10 26  1  0  0  0  0
 12 15  2  0  0  0  0
 12 16  1  0  0  0  0
 13 17  1  0  0  0  0
 13 22  2  0  0  0  0
 14 18  2  0  0  0  0
 14 22  1  0  0  0  0
 15 23  1  0  0  0  0
 16 27  2  0  0  0  0
 17 26  2  0  0  0  0
 18 26  1  0  0  0  0
 19 23  2  0  0  0  0
 19 27  1  0  0  0  0
 21 24  1  0  0  0  0
 21 25  2  0  0  0  0
 24 27  1  0  0  0  0
  7 28  1  0  0  0  0
  7 29  1  0  0  0  0
  8 30  1  0  0  0  0
  8 31  1  0  0  0  0
 10 32  1  0  0  0  0
 11 33  1  0  0  0  0
 11 34  1  0  0  0  0
 11 35  1  0  0  0  0
 12 36  1  0  0  0  0
 13 37  1  0  0  0  0
 14 38  1  0  0  0  0
 15 39  1  0  0  0  0
 16 40  1  0  0  0  0
 17 41  1  0  0  0  0
 18 42  1  0  0  0  0
 19 43  1  0  0  0  0
M  END
> <pdb_id>
3RAL

> <uniprot_id>
P24941

> <usmiles>
S(=O)(=O)(N)c1ccc(NC=2SC(C(=O)c3cc(OC)ccc3)=C(N2)N)cc1

$$$$
052_A_809
          07192416223D 1   1.00000     0.00000     0
            
 70 75  0  0  0  0            999 V2000
   40.1840   33.4120   72.3030 O   0  0  0  0  0  0  0  0  0  0  0  0
   32.8570   37.7140   58.4980 O   0  0  0  0  0  0  0  0  0  0  0  0
   34.8520   37.7650   66.6390 O   0  0  0  0  0  0  0  0  0  0  0  0
   34.6790   32.5550   65.6200 N   0  0  0  0  0  0  0  0  0  0  0  0
   33.2290   34.3320   63.8290 N   0  0  0  0  0  0  0  0  0  0  0  0
   35.4510   35.5900   67.1950 N   0  0  0  0  0  0  0  0  0  0  0  0
   38.4820   32.4860   73.5300 N   0  0  0  0  0  0  0  0  0  0  0  0
   34.6320   33.8980   65.7760 N   0  0  0  0  0  0  0  0  0  0  0  0
   33.3330   36.4720   60.7720 N   0  0  0  0  0  0  0  0  0  0  0  0
   38.6720   35.6260   70.8310 C   0  0  0  0  0  0  0  0  0  0  0  0
   34.1170   38.0630   58.9880 C   0  0  0  0  0  0  0  0  0  0  0  0
   32.5810   36.3280   58.3750 C   0  0  0  0  0  0  0  0  0  0  0  0
   33.4770   34.7370   62.4590 C   0  0  0  0  0  0  0  0  0  0  0  0
   35.3960   32.0420   66.6880 C   0  0  0  0  0  0  0  0  0  0  0  0
   34.4600   37.2180   60.2260 C   0  0  0  0  0  0  0  0  0  0  0  0
   32.6950   35.6310   59.7390 C   0  0  0  0  0  0  0  0  0  0  0  0
   33.2040   36.1970   62.2350 C   0  0  0  0  0  0  0  0  0  0  0  0
   36.5590   38.9290   70.2690 C   0  0  0  0  0  0  0  0  0  0  0  0
   35.2080   38.6410   70.2070 C   0  0  0  0  0  0  0  0  0  0  0  0
   37.3470   38.7880   69.1180 C   0  0  0  0  0  0  0  0  0  0  0  0
   34.6460   38.2270   68.9970 C   0  0  0  0  0  0  0  0  0  0  0  0
   36.7890   38.3780   67.9190 C   0  0  0  0  0  0  0  0  0  0  0  0
   39.9940   31.0170   74.7160 C   0  0  0  0  0  0  0  0  0  0  0  0
   38.8100   31.2260   75.5940 C   0  0  0  0  0  0  0  0  0  0  0  0
   36.8180   31.9250   69.4390 C   0  0  0  0  0  0  0  0  0  0  0  0
   37.5880   31.9260   70.6180 C   0  0  0  0  0  0  0  0  0  0  0  0
   34.0810   36.1100   65.2730 C   0  0  0  0  0  0  0  0  0  0  0  0
   37.3120   34.2390   69.2080 C   0  0  0  0  0  0  0  0  0  0  0  0
   39.0210   33.0420   72.3450 C   0  0  0  0  0  0  0  0  0  0  0  0
   34.8110   36.4590   66.3770 C   0  0  0  0  0  0  0  0  0  0  0  0
   34.0050   34.7950   64.9490 C   0  0  0  0  0  0  0  0  0  0  0  0
   35.4290   38.1090   67.8650 C   0  0  0  0  0  0  0  0  0  0  0  0
   35.3490   34.2610   66.8460 C   0  0  0  0  0  0  0  0  0  0  0  0
   39.2870   32.3600   74.6980 C   0  0  0  0  0  0  0  0  0  0  0  0
   38.0660   34.2950   70.3760 C   0  0  0  0  0  0  0  0  0  0  0  0
   36.7020   33.0700   68.7100 C   0  0  0  0  0  0  0  0  0  0  0  0
   38.1930   33.1070   71.0920 C   0  0  0  0  0  0  0  0  0  0  0  0
   35.8600   33.1160   67.4310 C   0  0  0  0  0  0  0  0  0  0  0  0
   32.4776   33.6961   64.0052 H   0  0  0  0  0  0  0  0  0  0  0  0
   37.5302   32.1798   73.5471 H   0  0  0  0  0  0  0  0  0  0  0  0
   39.1787   35.4880   71.6820 H   0  0  0  0  0  0  0  0  0  0  0  0
   39.2925   35.9683   70.1254 H   0  0  0  0  0  0  0  0  0  0  0  0
   37.9405   36.2908   70.9827 H   0  0  0  0  0  0  0  0  0  0  0  0
   34.1170   39.0310   59.2388 H   0  0  0  0  0  0  0  0  0  0  0  0
   34.8031   37.9025   58.2784 H   0  0  0  0  0  0  0  0  0  0  0  0
   33.2359   35.9175   57.7404 H   0  0  0  0  0  0  0  0  0  0  0  0
   31.6535   36.2077   58.0210 H   0  0  0  0  0  0  0  0  0  0  0  0
   32.8858   34.2033   61.8543 H   0  0  0  0  0  0  0  0  0  0  0  0
   34.4344   34.5517   62.2377 H   0  0  0  0  0  0  0  0  0  0  0  0
   35.5506   31.0742   66.8866 H   0  0  0  0  0  0  0  0  0  0  0  0
   35.1743   36.5658   59.9723 H   0  0  0  0  0  0  0  0  0  0  0  0
   34.8050   37.8301   60.9376 H   0  0  0  0  0  0  0  0  0  0  0  0
   31.7759   35.3888   60.0497 H   0  0  0  0  0  0  0  0  0  0  0  0
   33.2387   34.7993   59.6262 H   0  0  0  0  0  0  0  0  0  0  0  0
   32.2788   36.4202   62.5419 H   0  0  0  0  0  0  0  0  0  0  0  0
   33.8658   36.7479   62.7435 H   0  0  0  0  0  0  0  0  0  0  0  0
   36.9705   39.2352   71.1274 H   0  0  0  0  0  0  0  0  0  0  0  0
   34.6369   38.7285   71.0232 H   0  0  0  0  0  0  0  0  0  0  0  0
   38.3261   38.9864   69.1637 H   0  0  0  0  0  0  0  0  0  0  0  0
   33.6700   38.0145   68.9499 H   0  0  0  0  0  0  0  0  0  0  0  0
   37.3584   38.2772   67.1032 H   0  0  0  0  0  0  0  0  0  0  0  0
   39.9265   30.4081   73.9256 H   0  0  0  0  0  0  0  0  0  0  0  0
   40.9057   30.9396   75.1195 H   0  0  0  0  0  0  0  0  0  0  0  0
   38.9290   31.2896   76.5849 H   0  0  0  0  0  0  0  0  0  0  0  0
   37.9498   30.7581   75.3909 H   0  0  0  0  0  0  0  0  0  0  0  0
   36.3591   31.0888   69.1387 H   0  0  0  0  0  0  0  0  0  0  0  0
   37.7075   31.0739   71.1276 H   0  0  0  0  0  0  0  0  0  0  0  0
   33.6175   36.8038   64.7217 H   0  0  0  0  0  0  0  0  0  0  0  0
   37.1951   35.0846   68.6871 H   0  0  0  0  0  0  0  0  0  0  0  0
   39.7261   33.1654   75.0961 H   0  0  0  0  0  0  0  0  0  0  0  0
  1 29  2  0  0  0  0
  2 11  1  0  0  0  0
  2 12  1  0  0  0  0
  3 30  1  0  0  0  0
  3 32  1  0  0  0  0
  4  8  1  0  0  0  0
  4 14  2  0  0  0  0
  5 13  1  0  0  0  0
  5 31  1  0  0  0  0
  6 30  2  0  0  0  0
  6 33  1  0  0  0  0
  7 29  1  0  0  0  0
  7 34  1  0  0  0  0
  8 31  1  0  0  0  0
  8 33  1  0  0  0  0
  9 15  1  0  0  0  0
  9 16  1  0  0  0  0
  9 17  1  0  0  0  0
 10 35  1  0  0  0  0
 11 15  1  0  0  0  0
 12 16  1  0  0  0  0
 13 17  1  0  0  0  0
 14 38  1  0  0  0  0
 18 19  2  0  0  0  0
 18 20  1  0  0  0  0
 19 21  1  0  0  0  0
 20 22  2  0  0  0  0
 21 32  2  0  0  0  0
 22 32  1  0  0  0  0
 23 24  1  0  0  0  0
 23 34  1  0  0  0  0
 24 34  1  0  0  0  0
 25 26  1  0  0  0  0
 25 36  2  0  0  0  0
 26 37  2  0  0  0  0
 27 30  1  0  0  0  0
 27 31  2  0  0  0  0
 28 35  2  0  0  0  0
 28 36  1  0  0  0  0
 29 37  1  0  0  0  0
 33 38  2  0  0  0  0
 35 37  1  0  0  0  0
 36 38  1  0  0  0  0
  5 39  1  0  0  0  0
  7 40  1  0  0  0  0
 10 41  1  0  0  0  0
 10 42  1  0  0  0  0
 10 43  1  0  0  0  0
 11 44  1  0  0  0  0
 11 45  1  0  0  0  0
 12 46  1  0  0  0  0
 12 47  1  0  0  0  0
 13 48  1  0  0  0  0
 13 49  1  0  0  0  0
 14 50  1  0  0  0  0
 15 51  1  0  0  0  0
 15 52  1  0  0  0  0
 16 53  1  0  0  0  0
 16 54  1  0  0  0  0
 17 55  1  0  0  0  0
 17 56  1  0  0  0  0
 18 57  1  0  0  0  0
 19 58  1  0  0  0  0
 20 59  1  0  0  0  0
 21 60  1  0  0  0  0
 22 61  1  0  0  0  0
 23 62  1  0  0  0  0
 23 63  1  0  0  0  0
 24 64  1  0  0  0  0
 24 65  1  0  0  0  0
 25 66  1  0  0  0  0
 26 67  1  0  0  0  0
 27 68  1  0  0  0  0
 28 69  1  0  0  0  0
 34 70  1  0  0  0  0
M  END
> <pdb_id>
4ZEG

> <uniprot_id>
P33981

> <usmiles>
O=C(NC1CC1)c2c(cc(cc2)C3=C4N=C(Oc5ccccc5)C=C(N4N=C3)NCCN6CCOCC6)C

$$$$
053_A_578
          07192423343D 1   1.00000     0.00000     0
            
 46 49  0  0  0  0            999 V2000
   24.5934   41.0857   49.9422 F   0  0  0  0  0  0  0  0  0  0  0  0
   26.2447   42.4118   50.3073 F   0  0  0  0  0  0  0  0  0  0  0  0
   24.2575   43.1875   50.3428 F   0  0  0  0  0  0  0  0  0  0  0  0
   23.8923   44.4562   41.7912 O   0  0  0  0  0  0  0  0  0  0  0  0
   24.1204   46.4333   42.7998 O   0  0  0  0  0  0  0  0  0  0  0  0
   21.5630   45.4266   44.0641 O   0  0  0  0  0  0  0  0  0  0  0  0
   29.4427   46.0500   43.4472 N   0  0  0  0  0  0  0  0  0  0  0  0
   21.1624   47.2732   45.3588 N   0  0  0  0  0  0  0  0  0  0  0  0
   29.4267   44.5435   41.6155 N   0  0  0  0  0  0  0  0  0  0  0  0
   25.2163   43.3606   44.2071 N   0  0  0  0  0  0  0  0  0  0  0  0
   21.5037   48.1244   46.3872 C   0  0  0  0  0  0  0  0  0  0  0  0
   28.8324   43.5019   40.9842 C   0  0  0  0  0  0  0  0  0  0  0  0
   22.6287   47.9099   47.1092 C   0  0  0  0  0  0  0  0  0  0  0  0
   25.8189   42.6999   43.0520 C   0  0  0  0  0  0  0  0  0  0  0  0
   27.6791   42.8877   41.4291 C   0  0  0  0  0  0  0  0  0  0  0  0
   23.5041   46.7963   46.7667 C   0  0  0  0  0  0  0  0  0  0  0  0
   25.9994   41.8646   46.0771 C   0  0  0  0  0  0  0  0  0  0  0  0
   25.8943   41.6963   47.4464 C   0  0  0  0  0  0  0  0  0  0  0  0
   27.6724   44.4529   43.2669 C   0  0  0  0  0  0  0  0  0  0  0  0
   24.4958   43.6833   47.6538 C   0  0  0  0  0  0  0  0  0  0  0  0
   24.1931   45.0901   42.7808 C   0  0  0  0  0  0  0  0  0  0  0  0
   21.9195   46.1834   44.9822 C   0  0  0  0  0  0  0  0  0  0  0  0
   28.8505   44.9996   42.7518 C   0  0  0  0  0  0  0  0  0  0  0  0
   27.0734   43.3813   42.5955 C   0  0  0  0  0  0  0  0  0  0  0  0
   25.3240   42.9580   45.5057 C   0  0  0  0  0  0  0  0  0  0  0  0
   24.4581   44.4943   44.0838 C   0  0  0  0  0  0  0  0  0  0  0  0
   25.1452   42.5857   48.2292 C   0  0  0  0  0  0  0  0  0  0  0  0
   23.2097   45.9536   45.7413 C   0  0  0  0  0  0  0  0  0  0  0  0
   24.5817   43.8725   46.2645 C   0  0  0  0  0  0  0  0  0  0  0  0
   24.0461   44.8297   45.3707 C   0  0  0  0  0  0  0  0  0  0  0  0
   25.0531   42.3252   49.6881 C   0  0  0  0  0  0  0  0  0  0  0  0
   23.9537   43.4581   41.7989 H   0  0  0  0  0  0  0  0  0  0  0  0
   29.0231   46.3928   44.2877 H   0  0  0  0  0  0  0  0  0  0  0  0
   30.2878   46.4618   43.1062 H   0  0  0  0  0  0  0  0  0  0  0  0
   20.3173   47.4561   44.8565 H   0  0  0  0  0  0  0  0  0  0  0  0
   20.9169   48.9053   46.6015 H   0  0  0  0  0  0  0  0  0  0  0  0
   29.2547   43.1576   40.1457 H   0  0  0  0  0  0  0  0  0  0  0  0
   22.8578   48.5125   47.8737 H   0  0  0  0  0  0  0  0  0  0  0  0
   25.1598   42.7028   42.3001 H   0  0  0  0  0  0  0  0  0  0  0  0
   26.0378   41.7561   43.2997 H   0  0  0  0  0  0  0  0  0  0  0  0
   27.2859   42.1127   40.9343 H   0  0  0  0  0  0  0  0  0  0  0  0
   24.3389   46.6489   47.2971 H   0  0  0  0  0  0  0  0  0  0  0  0
   26.5346   41.2336   45.5156 H   0  0  0  0  0  0  0  0  0  0  0  0
   26.3602   40.9277   47.8847 H   0  0  0  0  0  0  0  0  0  0  0  0
   27.2639   44.8214   44.1020 H   0  0  0  0  0  0  0  0  0  0  0  0
   23.9787   44.3230   48.2225 H   0  0  0  0  0  0  0  0  0  0  0  0
  1 31  1  0  0  0  0
  2 31  1  0  0  0  0
  3 31  1  0  0  0  0
  4 21  1  0  0  0  0
  5 21  2  0  0  0  0
  6 22  2  0  0  0  0
  7 23  1  0  0  0  0
  8 11  1  0  0  0  0
  8 22  1  0  0  0  0
  9 12  1  0  0  0  0
  9 23  2  0  0  0  0
 10 14  1  0  0  0  0
 10 25  1  0  0  0  0
 10 26  1  0  0  0  0
 11 13  2  0  0  0  0
 12 15  2  0  0  0  0
 13 16  1  0  0  0  0
 14 24  1  0  0  0  0
 15 24  1  0  0  0  0
 16 28  2  0  0  0  0
 17 18  1  0  0  0  0
 17 25  2  0  0  0  0
 18 27  2  0  0  0  0
 19 23  1  0  0  0  0
 19 24  2  0  0  0  0
 20 27  1  0  0  0  0
 20 29  2  0  0  0  0
 21 26  1  0  0  0  0
 22 28  1  0  0  0  0
 25 29  1  0  0  0  0
 26 30  2  0  0  0  0
 27 31  1  0  0  0  0
 28 30  1  0  0  0  0
 29 30  1  0  0  0  0
  4 32  1  0  0  0  0
  7 33  1  0  0  0  0
  7 34  1  0  0  0  0
  8 35  1  0  0  0  0
 11 36  1  0  0  0  0
 12 37  1  0  0  0  0
 13 38  1  0  0  0  0
 14 39  1  0  0  0  0
 14 40  1  0  0  0  0
 15 41  1  0  0  0  0
 16 42  1  0  0  0  0
 17 43  1  0  0  0  0
 18 44  1  0  0  0  0
 19 45  1  0  0  0  0
 20 46  1  0  0  0  0
M  END
> <pdb_id>
3SKA

> <uniprot_id>
O92972

> <usmiles>
FC(F)(F)c1cc2c(N(C(C(=O)O)=C2C=3C(=O)NC=CC3)Cc4cc(ncc4)N)cc1

$$$$
054_A_578
          07192423343D 1   1.00000     0.00000     0
            
 49 53  0  0  0  0            999 V2000
   22.1115   50.6335   46.4923 S   0  0  0  0  0  0  0  0  0  0  0  0
   24.5189   41.3151   49.9335 F   0  0  0  0  0  0  0  0  0  0  0  0
   26.2412   42.5919   50.1868 F   0  0  0  0  0  0  0  0  0  0  0  0
   24.2862   43.4348   50.3041 F   0  0  0  0  0  0  0  0  0  0  0  0
   24.0503   44.4039   41.5301 O   0  0  0  0  0  0  0  0  0  0  0  0
   23.9009   46.3564   42.5697 O   0  0  0  0  0  0  0  0  0  0  0  0
   21.3954   44.9674   44.2853 O   0  0  0  0  0  0  0  0  0  0  0  0
   24.9808   47.0096   46.5158 O   0  0  0  0  0  0  0  0  0  0  0  0
   29.5323   45.8636   43.1040 N   0  0  0  0  0  0  0  0  0  0  0  0
   29.3972   44.2337   41.3948 N   0  0  0  0  0  0  0  0  0  0  0  0
   21.1644   47.1439   44.9613 N   0  0  0  0  0  0  0  0  0  0  0  0
   25.1539   43.3311   44.0877 N   0  0  0  0  0  0  0  0  0  0  0  0
   23.2031   45.9947   45.3911 N   0  0  0  0  0  0  0  0  0  0  0  0
   21.0928   49.4972   45.6960 C   0  0  0  0  0  0  0  0  0  0  0  0
   23.3622   49.4671   46.6456 C   0  0  0  0  0  0  0  0  0  0  0  0
   28.7511   43.1735   40.8552 C   0  0  0  0  0  0  0  0  0  0  0  0
   25.7690   42.5937   43.0062 C   0  0  0  0  0  0  0  0  0  0  0  0
   27.5907   42.6386   41.3749 C   0  0  0  0  0  0  0  0  0  0  0  0
   25.8973   41.9011   46.0107 C   0  0  0  0  0  0  0  0  0  0  0  0
   25.7949   41.7994   47.3917 C   0  0  0  0  0  0  0  0  0  0  0  0
   27.6833   44.3191   43.0964 C   0  0  0  0  0  0  0  0  0  0  0  0
   24.4196   43.8288   47.5202 C   0  0  0  0  0  0  0  0  0  0  0  0
   24.1642   45.0354   42.5630 C   0  0  0  0  0  0  0  0  0  0  0  0
   21.8869   45.9724   44.8340 C   0  0  0  0  0  0  0  0  0  0  0  0
   23.8418   47.0540   46.0577 C   0  0  0  0  0  0  0  0  0  0  0  0
   28.8655   44.7866   42.5152 C   0  0  0  0  0  0  0  0  0  0  0  0
   21.7067   48.2779   45.5571 C   0  0  0  0  0  0  0  0  0  0  0  0
   25.2386   42.9843   45.4045 C   0  0  0  0  0  0  0  0  0  0  0  0
   24.4106   44.4698   43.8927 C   0  0  0  0  0  0  0  0  0  0  0  0
   23.9917   44.8584   45.1623 C   0  0  0  0  0  0  0  0  0  0  0  0
   27.0256   43.2322   42.5026 C   0  0  0  0  0  0  0  0  0  0  0  0
   23.0143   48.2553   46.0988 C   0  0  0  0  0  0  0  0  0  0  0  0
   24.5049   43.9455   46.1213 C   0  0  0  0  0  0  0  0  0  0  0  0
   25.0722   42.7404   48.1424 C   0  0  0  0  0  0  0  0  0  0  0  0
   25.0173   42.5333   49.6217 C   0  0  0  0  0  0  0  0  0  0  0  0
   24.2446   43.4230   41.5197 H   0  0  0  0  0  0  0  0  0  0  0  0
   29.1626   46.2896   43.9298 H   0  0  0  0  0  0  0  0  0  0  0  0
   30.3793   46.2087   42.6997 H   0  0  0  0  0  0  0  0  0  0  0  0
   20.2265   47.1771   44.6158 H   0  0  0  0  0  0  0  0  0  0  0  0
   20.1679   49.7005   45.3745 H   0  0  0  0  0  0  0  0  0  0  0  0
   24.2430   49.6489   47.0828 H   0  0  0  0  0  0  0  0  0  0  0  0
   29.1369   42.7543   40.0334 H   0  0  0  0  0  0  0  0  0  0  0  0
   25.1170   42.5337   42.2503 H   0  0  0  0  0  0  0  0  0  0  0  0
   25.9875   41.6737   43.3318 H   0  0  0  0  0  0  0  0  0  0  0  0
   27.1629   41.8404   40.9509 H   0  0  0  0  0  0  0  0  0  0  0  0
   26.4149   41.2354   45.4733 H   0  0  0  0  0  0  0  0  0  0  0  0
   26.2452   41.0401   47.8614 H   0  0  0  0  0  0  0  0  0  0  0  0
   27.3139   44.7511   43.9191 H   0  0  0  0  0  0  0  0  0  0  0  0
   23.9103   44.4985   48.0607 H   0  0  0  0  0  0  0  0  0  0  0  0
  1 14  1  0  0  0  0
  1 15  1  0  0  0  0
  2 35  1  0  0  0  0
  3 35  1  0  0  0  0
  4 35  1  0  0  0  0
  5 23  1  0  0  0  0
  6 23  2  0  0  0  0
  7 24  2  0  0  0  0
  8 25  2  0  0  0  0
  9 26  1  0  0  0  0
 10 16  1  0  0  0  0
 10 26  2  0  0  0  0
 11 24  1  0  0  0  0
 11 27  1  0  0  0  0
 12 17  1  0  0  0  0
 12 28  1  0  0  0  0
 12 29  1  0  0  0  0
 13 24  1  0  0  0  0
 13 25  1  0  0  0  0
 13 30  1  0  0  0  0
 14 27  2  0  0  0  0
 15 32  2  0  0  0  0
 16 18  2  0  0  0  0
 17 31  1  0  0  0  0
 18 31  1  0  0  0  0
 19 20  1  0  0  0  0
 19 28  2  0  0  0  0
 20 34  2  0  0  0  0
 21 26  1  0  0  0  0
 21 31  2  0  0  0  0
 22 33  2  0  0  0  0
 22 34  1  0  0  0  0
 23 29  1  0  0  0  0
 25 32  1  0  0  0  0
 27 32  1  0  0  0  0
 28 33  1  0  0  0  0
 29 30  2  0  0  0  0
 30 33  1  0  0  0  0
 34 35  1  0  0  0  0
  5 36  1  0  0  0  0
  9 37  1  0  0  0  0
  9 38  1  0  0  0  0
 11 39  1  0  0  0  0
 14 40  1  0  0  0  0
 15 41  1  0  0  0  0
 16 42  1  0  0  0  0
 17 43  1  0  0  0  0
 17 44  1  0  0  0  0
 18 45  1  0  0  0  0
 19 46  1  0  0  0  0
 20 47  1  0  0  0  0
 21 48  1  0  0  0  0
 22 49  1  0  0  0  0
M  END
> <pdb_id>
3SKE

> <uniprot_id>
O92972

> <usmiles>
S1C=C2NC(=O)N(C(=O)C2=C1)C=3c4c(N(C3C(=O)O)Cc5cc(ncc5)N)ccc(c4)C(F)(F)F

$$$$
05S_A_1
          07192420423D 1   1.00000     0.00000     0
            
 62 65  0  0  0  0            999 V2000
   65.3917   34.5972   23.4642 O   0  0  0  0  0  0  0  0  0  0  0  0
   75.9846   33.2834   25.1358 O   0  0  0  0  0  0  0  0  0  0  0  0
   65.1312   33.5296   25.4719 N   0  0  0  0  0  0  0  0  0  0  0  0
   69.4296   37.8571   24.4219 N   0  0  0  0  0  0  0  0  0  0  0  0
   67.6094   36.0242   23.0955 N   0  0  0  0  0  0  0  0  0  0  0  0
   71.5122   34.2451   25.2824 N   0  0  0  0  0  0  0  0  0  0  0  0
   67.4460   37.4353   21.1325 C   0  0  0  0  0  0  0  0  0  0  0  0
   74.6959   35.8943   26.2424 C   0  0  0  0  0  0  0  0  0  0  0  0
   73.0251   29.7666   23.4601 C   0  0  0  0  0  0  0  0  0  0  0  0
   73.4952   32.0092   22.4642 C   0  0  0  0  0  0  0  0  0  0  0  0
   70.5689   38.7217   24.8939 C   0  0  0  0  0  0  0  0  0  0  0  0
   68.7890   38.2160   23.1144 C   0  0  0  0  0  0  0  0  0  0  0  0
   71.7788   37.8768   25.2986 C   0  0  0  0  0  0  0  0  0  0  0  0
   69.3370   33.1803   25.7326 C   0  0  0  0  0  0  0  0  0  0  0  0
   71.5395   36.6497   26.2003 C   0  0  0  0  0  0  0  0  0  0  0  0
   67.9526   33.2027   25.5349 C   0  0  0  0  0  0  0  0  0  0  0  0
   69.5348   35.0118   24.1708 C   0  0  0  0  0  0  0  0  0  0  0  0
   74.5942   31.4051   24.6324 C   0  0  0  0  0  0  0  0  0  0  0  0
   72.0837   31.8643   24.5339 C   0  0  0  0  0  0  0  0  0  0  0  0
   65.8802   34.1221   24.4794 C   0  0  0  0  0  0  0  0  0  0  0  0
   74.8433   32.8235   25.1504 C   0  0  0  0  0  0  0  0  0  0  0  0
   68.3596   36.9911   22.2872 C   0  0  1  0  0  0  0  0  0  0  0  0
   68.1503   35.0951   23.9807 C   0  0  0  0  0  0  0  0  0  0  0  0
   70.1234   34.1146   25.0644 C   0  0  0  0  0  0  0  0  0  0  0  0
   72.2072   35.3694   25.7448 C   0  0  0  0  0  0  0  0  0  0  0  0
   72.4141   33.2271   25.0570 C   0  0  0  0  0  0  0  0  0  0  0  0
   73.5633   35.0246   25.8042 C   0  0  0  0  0  0  0  0  0  0  0  0
   67.3547   34.1504   24.6739 C   0  0  0  0  0  0  0  0  0  0  0  0
   73.6803   33.6909   25.3212 C   0  0  0  0  0  0  0  0  0  0  0  0
   73.3015   31.2522   23.7893 C   0  0  0  0  0  0  0  0  0  0  0  0
   65.5817   33.1563   26.2829 H   0  0  0  0  0  0  0  0  0  0  0  0
   64.1369   33.4727   25.3815 H   0  0  0  0  0  0  0  0  0  0  0  0
   68.7179   37.8887   25.1236 H   0  0  0  0  0  0  0  0  0  0  0  0
   66.6138   36.0328   23.0019 H   0  0  0  0  0  0  0  0  0  0  0  0
   67.9299   38.0975   20.5604 H   0  0  0  0  0  0  0  0  0  0  0  0
   67.1944   36.6397   20.5814 H   0  0  0  0  0  0  0  0  0  0  0  0
   66.6195   37.8576   21.5048 H   0  0  0  0  0  0  0  0  0  0  0  0
   75.5526   35.3822   26.1811 H   0  0  0  0  0  0  0  0  0  0  0  0
   74.7459   36.6995   25.6514 H   0  0  0  0  0  0  0  0  0  0  0  0
   74.5475   36.1836   27.1881 H   0  0  0  0  0  0  0  0  0  0  0  0
   72.8959   29.2554   24.3098 H   0  0  0  0  0  0  0  0  0  0  0  0
   72.1992   29.6973   22.9005 H   0  0  0  0  0  0  0  0  0  0  0  0
   73.8014   29.3866   22.9572 H   0  0  0  0  0  0  0  0  0  0  0  0
   73.6756   32.9741   22.6548 H   0  0  0  0  0  0  0  0  0  0  0  0
   74.2691   31.6174   21.9665 H   0  0  0  0  0  0  0  0  0  0  0  0
   72.6669   31.9281   21.9098 H   0  0  0  0  0  0  0  0  0  0  0  0
   70.2666   39.2563   25.6831 H   0  0  0  0  0  0  0  0  0  0  0  0
   70.8362   39.3401   24.1549 H   0  0  0  0  0  0  0  0  0  0  0  0
   69.4429   38.7481   22.5766 H   0  0  0  0  0  0  0  0  0  0  0  0
   67.9793   38.7725   23.3004 H   0  0  0  0  0  0  0  0  0  0  0  0
   72.4141   38.4801   25.7808 H   0  0  0  0  0  0  0  0  0  0  0  0
   72.2059   37.5476   24.4565 H   0  0  0  0  0  0  0  0  0  0  0  0
   69.7539   32.5061   26.3422 H   0  0  0  0  0  0  0  0  0  0  0  0
   70.5540   36.4856   26.2429 H   0  0  0  0  0  0  0  0  0  0  0  0
   71.8810   36.8674   27.1147 H   0  0  0  0  0  0  0  0  0  0  0  0
   67.3767   32.5376   26.0103 H   0  0  0  0  0  0  0  0  0  0  0  0
   70.1278   35.6209   23.6441 H   0  0  0  0  0  0  0  0  0  0  0  0
   74.5297   30.7911   25.4190 H   0  0  0  0  0  0  0  0  0  0  0  0
   75.3724   31.1380   24.0639 H   0  0  0  0  0  0  0  0  0  0  0  0
   71.3128   31.9337   23.9008 H   0  0  0  0  0  0  0  0  0  0  0  0
   71.8344   31.2705   25.2990 H   0  0  0  0  0  0  0  0  0  0  0  0
   69.1724   36.5459   21.9115 H   0  0  0  0  0  0  0  0  0  0  0  0
  1 20  2  0  0  0  0
  2 21  2  0  0  0  0
  3 20  1  0  0  0  0
  4 11  1  0  0  0  0
  4 12  1  0  0  0  0
  5 22  1  0  0  0  0
  5 23  1  0  0  0  0
  6 24  1  0  0  0  0
  6 25  1  0  0  0  0
  6 26  1  0  0  0  0
  7 22  1  0  0  0  0
  8 27  1  0  0  0  0
  9 30  1  0  0  0  0
 10 30  1  0  0  0  0
 11 13  1  0  0  0  0
 12 22  1  0  0  0  0
 13 15  1  0  0  0  0
 14 16  1  0  0  0  0
 14 24  2  0  0  0  0
 15 25  1  0  0  0  0
 16 28  2  0  0  0  0
 17 23  2  0  0  0  0
 17 24  1  0  0  0  0
 18 21  1  0  0  0  0
 18 30  1  0  0  0  0
 19 26  1  0  0  0  0
 19 30  1  0  0  0  0
 20 28  1  0  0  0  0
 21 29  1  0  0  0  0
 23 28  1  0  0  0  0
 25 27  2  0  0  0  0
 26 29  2  0  0  0  0
 27 29  1  0  0  0  0
  3 31  1  0  0  0  0
  3 32  1  0  0  0  0
  4 33  1  0  0  0  0
  5 34  1  0  0  0  0
  7 35  1  0  0  0  0
  7 36  1  0  0  0  0
  7 37  1  0  0  0  0
  8 38  1  0  0  0  0
  8 39  1  0  0  0  0
  8 40  1  0  0  0  0
  9 41  1  0  0  0  0
  9 42  1  0  0  0  0
  9 43  1  0  0  0  0
 10 44  1  0  0  0  0
 10 45  1  0  0  0  0
 10 46  1  0  0  0  0
 11 47  1  0  0  0  0
 11 48  1  0  0  0  0
 12 49  1  0  0  0  0
 12 50  1  0  0  0  0
 13 51  1  0  0  0  0
 13 52  1  0  0  0  0
 14 53  1  0  0  0  0
 15 54  1  0  0  0  0
 15 55  1  0  0  0  0
 16 56  1  0  0  0  0
 17 57  1  0  0  0  0
 18 58  1  0  0  0  0
 18 59  1  0  0  0  0
 19 60  1  0  0  0  0
 19 61  1  0  0  0  0
 22 62  1  0  0  0  0
M  END
> <pdb_id>
3QTF

> <uniprot_id>
P07900

> <usmiles>
O=C(N)c1c2N[C@H](CNCCCC=3N(c(c2)cc1)C4=C(C(=O)CC(C4)(C)C)C3C)C

$$$$
068_A_1271
          07192418003D 1   1.00000     0.00000     0
            
 43 44  0  0  0  0            999 V2000
   17.9430   29.3770    3.2250 O   0  0  0  0  0  0  0  0  0  0  0  0
   16.1180   30.0340    2.2600 O   0  0  0  0  0  0  0  0  0  0  0  0
   23.7010   29.0570   -9.0500 O   0  0  0  0  0  0  0  0  0  0  0  0
   16.2210   25.5390    1.9030 O   0  0  0  0  0  0  0  0  0  0  0  0
   21.6250   29.7410   -9.9910 C   0  0  0  0  0  0  0  0  0  0  0  0
   17.1820   27.2900    0.6090 C   0  0  0  0  0  0  0  0  0  0  0  0
   18.1030   26.3550   -0.1910 C   0  0  0  0  0  0  0  0  0  0  0  0
   19.9210   26.2990   -1.9130 C   0  0  0  0  0  0  0  0  0  0  0  0
   18.1260   27.8650   -2.2260 C   0  0  0  0  0  0  0  0  0  0  0  0
   20.4750   26.7400   -3.0950 C   0  0  0  0  0  0  0  0  0  0  0  0
   18.7140   28.2960   -3.4010 C   0  0  0  0  0  0  0  0  0  0  0  0
   22.5940   28.4840   -6.4710 C   0  0  0  0  0  0  0  0  0  0  0  0
   20.4740   28.8840   -7.4830 C   0  0  0  0  0  0  0  0  0  0  0  0
   21.9600   28.1540   -5.2800 C   0  0  0  0  0  0  0  0  0  0  0  0
   19.8420   28.5550   -6.2700 C   0  0  0  0  0  0  0  0  0  0  0  0
   16.2540   27.7590    2.9760 C   0  0  0  0  0  0  0  0  0  0  0  0
   16.8180   29.1870    2.8010 C   0  0  0  0  0  0  0  0  0  0  0  0
   22.5140   29.1990   -8.8700 C   0  0  0  0  0  0  0  0  0  0  0  0
   16.9510   26.7710    2.0360 C   0  0  1  0  0  0  0  0  0  0  0  0
   18.7080   26.8480   -1.4620 C   0  0  0  0  0  0  0  0  0  0  0  0
   21.8580   28.8460   -7.5960 C   0  0  0  0  0  0  0  0  0  0  0  0
   19.9140   27.7740   -3.8570 C   0  0  0  0  0  0  0  0  0  0  0  0
   20.5740   28.1800   -5.1450 C   0  0  0  0  0  0  0  0  0  0  0  0
   18.4483   28.6287    3.6548 H   0  0  0  0  0  0  0  0  0  0  0  0
   16.0436   25.1571    2.8100 H   0  0  0  0  0  0  0  0  0  0  0  0
   20.6791   29.7928   -9.6707 H   0  0  0  0  0  0  0  0  0  0  0  0
   21.9386   30.6536  -10.2534 H   0  0  0  0  0  0  0  0  0  0  0  0
   21.6763   29.1308  -10.7816 H   0  0  0  0  0  0  0  0  0  0  0  0
   16.3007   27.3558    0.1410 H   0  0  0  0  0  0  0  0  0  0  0  0
   17.6023   28.1961    0.6573 H   0  0  0  0  0  0  0  0  0  0  0  0
   17.5683   25.5409   -0.4177 H   0  0  0  0  0  0  0  0  0  0  0  0
   18.8580   26.1004    0.4132 H   0  0  0  0  0  0  0  0  0  0  0  0
   20.3805   25.5904   -1.3775 H   0  0  0  0  0  0  0  0  0  0  0  0
   17.2729   28.2862   -1.9182 H   0  0  0  0  0  0  0  0  0  0  0  0
   21.3129   26.3038   -3.4231 H   0  0  0  0  0  0  0  0  0  0  0  0
   18.2592   29.0063   -3.9383 H   0  0  0  0  0  0  0  0  0  0  0  0
   23.5925   28.4613   -6.5211 H   0  0  0  0  0  0  0  0  0  0  0  0
   19.9206   29.1482   -8.2729 H   0  0  0  0  0  0  0  0  0  0  0  0
   22.5173   27.8889   -4.4932 H   0  0  0  0  0  0  0  0  0  0  0  0
   18.8442   28.5911   -6.2137 H   0  0  0  0  0  0  0  0  0  0  0  0
   15.2749   27.7675    2.7729 H   0  0  0  0  0  0  0  0  0  0  0  0
   16.3958   27.4656    3.9214 H   0  0  0  0  0  0  0  0  0  0  0  0
   17.8444   26.5546    2.4297 H   0  0  0  0  0  0  0  0  0  0  0  0
  1 17  1  0  0  0  0
  2 17  2  0  0  0  0
  3 18  2  0  0  0  0
  4 19  1  0  0  0  0
  5 18  1  0  0  0  0
  6  7  1  0  0  0  0
  6 19  1  0  0  0  0
  7 20  1  0  0  0  0
  8 10  1  0  0  0  0
  8 20  2  0  0  0  0
  9 11  2  0  0  0  0
  9 20  1  0  0  0  0
 10 22  2  0  0  0  0
 11 22  1  0  0  0  0
 12 14  1  0  0  0  0
 12 21  2  0  0  0  0
 13 15  2  0  0  0  0
 13 21  1  0  0  0  0
 14 23  2  0  0  0  0
 15 23  1  0  0  0  0
 16 17  1  0  0  0  0
 16 19  1  0  0  0  0
 18 21  1  0  0  0  0
 22 23  1  0  0  0  0
  1 24  1  0  0  0  0
  4 25  1  0  0  0  0
  5 26  1  0  0  0  0
  5 27  1  0  0  0  0
  5 28  1  0  0  0  0
  6 29  1  0  0  0  0
  6 30  1  0  0  0  0
  7 31  1  0  0  0  0
  7 32  1  0  0  0  0
  8 33  1  0  0  0  0
  9 34  1  0  0  0  0
 10 35  1  0  0  0  0
 11 36  1  0  0  0  0
 12 37  1  0  0  0  0
 13 38  1  0  0  0  0
 14 39  1  0  0  0  0
 15 40  1  0  0  0  0
 16 41  1  0  0  0  0
 16 42  1  0  0  0  0
 19 43  1  0  0  0  0
M  END
> <pdb_id>
2WO9

> <uniprot_id>
P39900

> <usmiles>
O=C(O)C[C@@H](O)CCc1ccc(c2ccc(cc2)C(=O)C)cc1

$$$$
069_A_400
          07192422393D 1   1.00000     0.00000     0
            
 18 18  0  0  0  0            999 V2000
  -25.8711   23.1152   -9.4353 O   0  0  0  0  0  0  0  0  0  0  0  0
  -26.8719   21.1923   -7.6956 O   0  0  0  0  0  0  0  0  0  0  0  0
  -25.9913   16.2433   -7.1495 O   0  0  0  0  0  0  0  0  0  0  0  0
  -25.3952   21.8244   -9.3206 N   0  0  0  0  0  0  0  0  0  0  0  0
  -23.6716   17.8801   -9.4249 C   0  0  0  0  0  0  0  0  0  0  0  0
  -24.2781   16.8517   -8.6767 C   0  0  0  0  0  0  0  0  0  0  0  0
  -24.1746   19.1892   -9.3589 C   0  0  0  0  0  0  0  0  0  0  0  0
  -25.8431   18.4880   -7.7877 C   0  0  0  0  0  0  0  0  0  0  0  0
  -25.9070   20.9444   -8.4512 C   0  0  0  0  0  0  0  0  0  0  0  0
  -25.3583   17.1932   -7.8768 C   0  0  0  0  0  0  0  0  0  0  0  0
  -25.2778   19.5104   -8.5303 C   0  0  0  0  0  0  0  0  0  0  0  0
  -25.3521   23.6006  -10.1388 H   0  0  0  0  0  0  0  0  0  0  0  0
  -26.7701   16.4911   -6.5732 H   0  0  0  0  0  0  0  0  0  0  0  0
  -24.6399   21.5359   -9.9090 H   0  0  0  0  0  0  0  0  0  0  0  0
  -22.8818   17.6772  -10.0038 H   0  0  0  0  0  0  0  0  0  0  0  0
  -23.9423   15.9108   -8.7208 H   0  0  0  0  0  0  0  0  0  0  0  0
  -23.7463   19.9079   -9.9066 H   0  0  0  0  0  0  0  0  0  0  0  0
  -26.6113   18.6866   -7.1790 H   0  0  0  0  0  0  0  0  0  0  0  0
  1  4  1  0  0  0  0
  2  9  2  0  0  0  0
  3 10  1  0  0  0  0
  4  9  1  0  0  0  0
  5  6  2  0  0  0  0
  5  7  1  0  0  0  0
  6 10  1  0  0  0  0
  7 11  2  0  0  0  0
  8 10  2  0  0  0  0
  8 11  1  0  0  0  0
  9 11  1  0  0  0  0
  1 12  1  0  0  0  0
  3 13  1  0  0  0  0
  4 14  1  0  0  0  0
  5 15  1  0  0  0  0
  6 16  1  0  0  0  0
  7 17  1  0  0  0  0
  8 18  1  0  0  0  0
M  END
> <pdb_id>
2WA4

> <uniprot_id>
Q9NWT6

> <usmiles>
O=C(NO)c1cc(O)ccc1

$$$$
06H_A_1
          07192420423D 1   1.00000     0.00000     0
            
 64 67  0  0  0  0            999 V2000
   65.2833   34.4857   23.4083 O   0  0  0  0  0  0  0  0  0  0  0  0
   70.2056   38.0519   22.3019 O   0  0  0  0  0  0  0  0  0  0  0  0
   75.9130   33.4754   25.3118 O   0  0  0  0  0  0  0  0  0  0  0  0
   65.0599   33.4315   25.4153 N   0  0  0  0  0  0  0  0  0  0  0  0
   67.4288   35.9970   23.0966 N   0  0  0  0  0  0  0  0  0  0  0  0
   69.1094   38.1684   24.2979 N   0  0  0  0  0  0  0  0  0  0  0  0
   71.4331   34.3452   25.2903 N   0  0  0  0  0  0  0  0  0  0  0  0
   67.9749   37.9568   25.2132 C   0  0  0  0  0  0  0  0  0  0  0  0
   67.0264   37.9351   21.6363 C   0  0  0  0  0  0  0  0  0  0  0  0
   74.5707   36.1307   26.1471 C   0  0  0  0  0  0  0  0  0  0  0  0
   73.0771   29.8438   23.6578 C   0  0  0  0  0  0  0  0  0  0  0  0
   73.5097   32.0196   22.5537 C   0  0  0  0  0  0  0  0  0  0  0  0
   70.2823   38.8619   24.8577 C   0  0  0  0  0  0  0  0  0  0  0  0
   71.4983   37.8960   24.8923 C   0  0  0  0  0  0  0  0  0  0  0  0
   71.4279   36.8337   26.0105 C   0  0  0  0  0  0  0  0  0  0  0  0
   69.2614   33.2315   25.7315 C   0  0  0  0  0  0  0  0  0  0  0  0
   67.8821   33.2037   25.5143 C   0  0  0  0  0  0  0  0  0  0  0  0
   69.4286   35.0857   24.1827 C   0  0  0  0  0  0  0  0  0  0  0  0
   74.5884   31.5397   24.7885 C   0  0  0  0  0  0  0  0  0  0  0  0
   72.0796   31.9264   24.6669 C   0  0  0  0  0  0  0  0  0  0  0  0
   65.7939   34.0391   24.4295 C   0  0  0  0  0  0  0  0  0  0  0  0
   69.1960   37.7890   22.9504 C   0  0  0  0  0  0  0  0  0  0  0  0
   74.7923   32.9789   25.2703 C   0  0  0  0  0  0  0  0  0  0  0  0
   68.0756   37.0049   22.2383 C   0  0  1  0  0  0  0  0  0  0  0  0
   68.0384   35.1006   23.9663 C   0  0  0  0  0  0  0  0  0  0  0  0
   70.0374   34.1939   25.0775 C   0  0  0  0  0  0  0  0  0  0  0  0
   72.1075   35.5102   25.6883 C   0  0  0  0  0  0  0  0  0  0  0  0
   72.3646   33.3307   25.1128 C   0  0  0  0  0  0  0  0  0  0  0  0
   73.4686   35.1978   25.7646 C   0  0  0  0  0  0  0  0  0  0  0  0
   67.2691   34.1220   24.6450 C   0  0  0  0  0  0  0  0  0  0  0  0
   73.6152   33.8262   25.3912 C   0  0  0  0  0  0  0  0  0  0  0  0
   73.3163   31.3431   23.9238 C   0  0  0  0  0  0  0  0  0  0  0  0
   65.5153   33.0804   26.2334 H   0  0  0  0  0  0  0  0  0  0  0  0
   64.0690   33.3395   25.3162 H   0  0  0  0  0  0  0  0  0  0  0  0
   66.4310   35.9525   23.0474 H   0  0  0  0  0  0  0  0  0  0  0  0
   67.2406   37.4806   24.7294 H   0  0  0  0  0  0  0  0  0  0  0  0
   68.2734   37.4053   25.9921 H   0  0  0  0  0  0  0  0  0  0  0  0
   67.6405   38.8410   25.5395 H   0  0  0  0  0  0  0  0  0  0  0  0
   67.4764   38.6142   21.0564 H   0  0  0  0  0  0  0  0  0  0  0  0
   66.3835   37.4013   21.0870 H   0  0  0  0  0  0  0  0  0  0  0  0
   66.5317   38.3994   22.3709 H   0  0  0  0  0  0  0  0  0  0  0  0
   75.4441   35.6444   26.1187 H   0  0  0  0  0  0  0  0  0  0  0  0
   74.5955   36.8980   25.5062 H   0  0  0  0  0  0  0  0  0  0  0  0
   74.4105   36.4744   27.0724 H   0  0  0  0  0  0  0  0  0  0  0  0
   72.9465   29.3677   24.5274 H   0  0  0  0  0  0  0  0  0  0  0  0
   72.2611   29.7320   23.0906 H   0  0  0  0  0  0  0  0  0  0  0  0
   73.8685   29.4592   23.1828 H   0  0  0  0  0  0  0  0  0  0  0  0
   73.6683   32.9982   22.6846 H   0  0  0  0  0  0  0  0  0  0  0  0
   74.2969   31.6135   22.0895 H   0  0  0  0  0  0  0  0  0  0  0  0
   72.6895   31.8863   21.9974 H   0  0  0  0  0  0  0  0  0  0  0  0
   70.0748   39.1678   25.7868 H   0  0  0  0  0  0  0  0  0  0  0  0
   70.5032   39.6533   24.2877 H   0  0  0  0  0  0  0  0  0  0  0  0
   72.3270   38.4391   25.0268 H   0  0  0  0  0  0  0  0  0  0  0  0
   71.5488   37.4230   24.0127 H   0  0  0  0  0  0  0  0  0  0  0  0
   70.4640   36.6485   26.2015 H   0  0  0  0  0  0  0  0  0  0  0  0
   71.8624   37.2143   26.8269 H   0  0  0  0  0  0  0  0  0  0  0  0
   69.6895   32.5706   26.3479 H   0  0  0  0  0  0  0  0  0  0  0  0
   67.3228   32.5206   25.9840 H   0  0  0  0  0  0  0  0  0  0  0  0
   70.0022   35.7333   23.6812 H   0  0  0  0  0  0  0  0  0  0  0  0
   74.5196   30.9458   25.5901 H   0  0  0  0  0  0  0  0  0  0  0  0
   75.3839   31.2739   24.2440 H   0  0  0  0  0  0  0  0  0  0  0  0
   71.2928   31.9281   24.0497 H   0  0  0  0  0  0  0  0  0  0  0  0
   71.8756   31.3602   25.4655 H   0  0  0  0  0  0  0  0  0  0  0  0
   68.5005   36.5127   21.4786 H   0  0  0  0  0  0  0  0  0  0  0  0
  1 21  2  0  0  0  0
  2 22  2  0  0  0  0
  3 23  2  0  0  0  0
  4 21  1  0  0  0  0
  5 24  1  0  0  0  0
  5 25  1  0  0  0  0
  6  8  1  0  0  0  0
  6 13  1  0  0  0  0
  6 22  1  0  0  0  0
  7 26  1  0  0  0  0
  7 27  1  0  0  0  0
  7 28  1  0  0  0  0
  9 24  1  0  0  0  0
 10 29  1  0  0  0  0
 11 32  1  0  0  0  0
 12 32  1  0  0  0  0
 13 14  1  0  0  0  0
 14 15  1  0  0  0  0
 15 27  1  0  0  0  0
 16 17  1  0  0  0  0
 16 26  2  0  0  0  0
 17 30  2  0  0  0  0
 18 25  2  0  0  0  0
 18 26  1  0  0  0  0
 19 23  1  0  0  0  0
 19 32  1  0  0  0  0
 20 28  1  0  0  0  0
 20 32  1  0  0  0  0
 21 30  1  0  0  0  0
 22 24  1  0  0  0  0
 23 31  1  0  0  0  0
 25 30  1  0  0  0  0
 27 29  2  0  0  0  0
 28 31  2  0  0  0  0
 29 31  1  0  0  0  0
  4 33  1  0  0  0  0
  4 34  1  0  0  0  0
  5 35  1  0  0  0  0
  8 36  1  0  0  0  0
  8 37  1  0  0  0  0
  8 38  1  0  0  0  0
  9 39  1  0  0  0  0
  9 40  1  0  0  0  0
  9 41  1  0  0  0  0
 10 42  1  0  0  0  0
 10 43  1  0  0  0  0
 10 44  1  0  0  0  0
 11 45  1  0  0  0  0
 11 46  1  0  0  0  0
 11 47  1  0  0  0  0
 12 48  1  0  0  0  0
 12 49  1  0  0  0  0
 12 50  1  0  0  0  0
 13 51  1  0  0  0  0
 13 52  1  0  0  0  0
 14 53  1  0  0  0  0
 14 54  1  0  0  0  0
 15 55  1  0  0  0  0
 15 56  1  0  0  0  0
 16 57  1  0  0  0  0
 17 58  1  0  0  0  0
 18 59  1  0  0  0  0
 19 60  1  0  0  0  0
 19 61  1  0  0  0  0
 20 62  1  0  0  0  0
 20 63  1  0  0  0  0
 24 64  1  0  0  0  0
M  END
> <pdb_id>
3R91

> <uniprot_id>
P07900

> <usmiles>
O=C1N(CCCC=2N(c3cc(N[C@H]1C)c(cc3)C(=O)N)C4=C(C(=O)CC(C4)(C)C)C2C)C

$$$$
06Z_A_450
          07192421083D 1   1.00000     0.00000     0
            
 34 36  0  0  0  0            999 V2000
    1.1631   28.2101    7.8232 S   0  0  0  0  0  0  0  0  0  0  0  0
    6.3492   25.3995    4.0533 F   0  0  0  0  0  0  0  0  0  0  0  0
   -1.6064   30.8236    9.1156 O   0  0  0  0  0  0  0  0  0  0  0  0
    0.3203   31.9439    7.4444 N   0  0  0  0  0  0  0  0  0  0  0  0
    1.9332   30.4294    6.7092 N   0  0  0  0  0  0  0  0  0  0  0  0
    3.3804   28.6939    6.2033 N   0  0  0  0  0  0  0  0  0  0  0  0
   -2.5408   26.2602   11.2300 C   0  0  0  0  0  0  0  0  0  0  0  0
   -1.1379   26.5778   11.2917 C   0  0  0  0  0  0  0  0  0  0  0  0
   -3.4388   27.0694   10.4327 C   0  0  0  0  0  0  0  0  0  0  0  0
    4.3557   25.1248    7.1866 C   0  0  0  0  0  0  0  0  0  0  0  0
    5.2550   24.7521    6.1045 C   0  0  0  0  0  0  0  0  0  0  0  0
    3.7394   26.4421    7.2090 C   0  0  0  0  0  0  0  0  0  0  0  0
   -0.6392   27.7026   10.5577 C   0  0  0  0  0  0  0  0  0  0  0  0
   -2.9374   28.2044    9.6900 C   0  0  0  0  0  0  0  0  0  0  0  0
    4.9136   27.0513    5.0593 C   0  0  0  0  0  0  0  0  0  0  0  0
    2.2500   29.1736    6.8289 C   0  0  0  0  0  0  0  0  0  0  0  0
    5.5171   25.7206    5.0671 C   0  0  0  0  0  0  0  0  0  0  0  0
    0.1949   29.6352    8.1359 C   0  0  0  0  0  0  0  0  0  0  0  0
    0.7909   30.7068    7.4284 C   0  0  0  0  0  0  0  0  0  0  0  0
   -1.0039   29.7301    8.9795 C   0  0  0  0  0  0  0  0  0  0  0  0
    4.0102   27.4181    6.1401 C   0  0  0  0  0  0  0  0  0  0  0  0
   -1.5300   28.5321    9.7431 C   0  0  0  0  0  0  0  0  0  0  0  0
   -0.5078   32.1572    7.9627 H   0  0  0  0  0  0  0  0  0  0  0  0
    0.7930   32.6652    6.9382 H   0  0  0  0  0  0  0  0  0  0  0  0
    3.8640   29.3948    5.6791 H   0  0  0  0  0  0  0  0  0  0  0  0
   -2.8967   25.4772   11.7401 H   0  0  0  0  0  0  0  0  0  0  0  0
   -0.5175   26.0186   11.8416 H   0  0  0  0  0  0  0  0  0  0  0  0
   -4.4118   26.8419   10.3955 H   0  0  0  0  0  0  0  0  0  0  0  0
    4.1605   24.4718    7.9183 H   0  0  0  0  0  0  0  0  0  0  0  0
    5.6807   23.8475    6.0805 H   0  0  0  0  0  0  0  0  0  0  0  0
    3.1249   26.6878    7.9587 H   0  0  0  0  0  0  0  0  0  0  0  0
    0.3347   27.9254   10.6025 H   0  0  0  0  0  0  0  0  0  0  0  0
   -3.5618   28.7607    9.1416 H   0  0  0  0  0  0  0  0  0  0  0  0
    5.1175   27.6984    4.3247 H   0  0  0  0  0  0  0  0  0  0  0  0
  1 16  1  0  0  0  0
  1 18  1  0  0  0  0
  2 17  1  0  0  0  0
  3 20  2  0  0  0  0
  4 19  1  0  0  0  0
  5 16  2  0  0  0  0
  5 19  1  0  0  0  0
  6 16  1  0  0  0  0
  6 21  1  0  0  0  0
  7  8  2  0  0  0  0
  7  9  1  0  0  0  0
  8 13  1  0  0  0  0
  9 14  2  0  0  0  0
 10 11  2  0  0  0  0
 10 12  1  0  0  0  0
 11 17  1  0  0  0  0
 12 21  2  0  0  0  0
 13 22  2  0  0  0  0
 14 22  1  0  0  0  0
 15 17  2  0  0  0  0
 15 21  1  0  0  0  0
 18 19  2  0  0  0  0
 18 20  1  0  0  0  0
 20 22  1  0  0  0  0
  4 23  1  0  0  0  0
  4 24  1  0  0  0  0
  6 25  1  0  0  0  0
  7 26  1  0  0  0  0
  8 27  1  0  0  0  0
  9 28  1  0  0  0  0
 10 29  1  0  0  0  0
 11 30  1  0  0  0  0
 12 31  1  0  0  0  0
 13 32  1  0  0  0  0
 14 33  1  0  0  0  0
 15 34  1  0  0  0  0
M  END
> <pdb_id>
3RJC

> <uniprot_id>
P24941

> <usmiles>
S1C(=NC(N)=C1C(=O)c2ccccc2)Nc3cc(F)ccc3

$$$$
077_A_1271
          07192418003D 1   1.00000     0.00000     0
            
 38 39  0  0  0  0            999 V2000
   16.1457   29.9346    1.6778 O   0  0  0  0  0  0  0  0  0  0  0  0
   17.9207   29.9299    2.8722 O   0  0  0  0  0  0  0  0  0  0  0  0
   16.0479   25.7904    1.7674 O   0  0  0  0  0  0  0  0  0  0  0  0
   21.8025   28.2654   -7.9376 C   0  0  0  0  0  0  0  0  0  0  0  0
   20.9576   29.2172   -7.3973 C   0  0  0  0  0  0  0  0  0  0  0  0
   22.0211   27.1171   -7.1735 C   0  0  0  0  0  0  0  0  0  0  0  0
   20.3297   29.0642   -6.1334 C   0  0  0  0  0  0  0  0  0  0  0  0
   21.4004   26.9719   -5.9275 C   0  0  0  0  0  0  0  0  0  0  0  0
   17.2012   27.3469    0.4225 C   0  0  0  0  0  0  0  0  0  0  0  0
   18.2467   26.4712   -0.2797 C   0  0  0  0  0  0  0  0  0  0  0  0
   19.9896   26.3007   -2.0201 C   0  0  0  0  0  0  0  0  0  0  0  0
   18.1669   27.8661   -2.4023 C   0  0  0  0  0  0  0  0  0  0  0  0
   20.5291   26.6724   -3.2251 C   0  0  0  0  0  0  0  0  0  0  0  0
   18.7385   28.2187   -3.6119 C   0  0  0  0  0  0  0  0  0  0  0  0
   16.6341   27.9517    2.8972 C   0  0  0  0  0  0  0  0  0  0  0  0
   16.9210   29.3706    2.4439 C   0  0  0  0  0  0  0  0  0  0  0  0
   17.0252   26.8694    1.8811 C   0  0  1  0  0  0  0  0  0  0  0  0
   18.7822   26.9038   -1.5845 C   0  0  0  0  0  0  0  0  0  0  0  0
   20.5494   27.9288   -5.3774 C   0  0  0  0  0  0  0  0  0  0  0  0
   19.9347   27.6587   -4.0301 C   0  0  0  0  0  0  0  0  0  0  0  0
   15.3355   29.4537    1.3427 H   0  0  0  0  0  0  0  0  0  0  0  0
   15.8644   25.4101    2.6739 H   0  0  0  0  0  0  0  0  0  0  0  0
   22.2350   28.3928   -8.8302 H   0  0  0  0  0  0  0  0  0  0  0  0
   20.7808   30.0509   -7.9205 H   0  0  0  0  0  0  0  0  0  0  0  0
   22.6229   26.3964   -7.5176 H   0  0  0  0  0  0  0  0  0  0  0  0
   19.7252   29.7822   -5.7883 H   0  0  0  0  0  0  0  0  0  0  0  0
   21.5767   26.1380   -5.4046 H   0  0  0  0  0  0  0  0  0  0  0  0
   16.3280   27.2748   -0.0595 H   0  0  0  0  0  0  0  0  0  0  0  0
   17.5068   28.2991    0.4181 H   0  0  0  0  0  0  0  0  0  0  0  0
   17.8311   25.5720   -0.4171 H   0  0  0  0  0  0  0  0  0  0  0  0
   19.0246   26.3872    0.3430 H   0  0  0  0  0  0  0  0  0  0  0  0
   20.4428   25.6116   -1.4546 H   0  0  0  0  0  0  0  0  0  0  0  0
   17.3135   28.2973   -2.1095 H   0  0  0  0  0  0  0  0  0  0  0  0
   21.3686   26.2292   -3.5395 H   0  0  0  0  0  0  0  0  0  0  0  0
   18.2800   28.8896   -4.1947 H   0  0  0  0  0  0  0  0  0  0  0  0
   15.6534   27.8728    3.0761 H   0  0  0  0  0  0  0  0  0  0  0  0
   17.1416   27.7849    3.7425 H   0  0  0  0  0  0  0  0  0  0  0  0
   17.8914   26.4682    2.1788 H   0  0  0  0  0  0  0  0  0  0  0  0
  1 16  1  0  0  0  0
  2 16  2  0  0  0  0
  3 17  1  0  0  0  0
  4  5  2  0  0  0  0
  4  6  1  0  0  0  0
  5  7  1  0  0  0  0
  6  8  2  0  0  0  0
  7 19  2  0  0  0  0
  8 19  1  0  0  0  0
  9 10  1  0  0  0  0
  9 17  1  0  0  0  0
 10 18  1  0  0  0  0
 11 13  1  0  0  0  0
 11 18  2  0  0  0  0
 12 14  2  0  0  0  0
 12 18  1  0  0  0  0
 13 20  2  0  0  0  0
 14 20  1  0  0  0  0
 15 16  1  0  0  0  0
 15 17  1  0  0  0  0
 19 20  1  0  0  0  0
  1 21  1  0  0  0  0
  3 22  1  0  0  0  0
  4 23  1  0  0  0  0
  5 24  1  0  0  0  0
  6 25  1  0  0  0  0
  7 26  1  0  0  0  0
  8 27  1  0  0  0  0
  9 28  1  0  0  0  0
  9 29  1  0  0  0  0
 10 30  1  0  0  0  0
 10 31  1  0  0  0  0
 11 32  1  0  0  0  0
 12 33  1  0  0  0  0
 13 34  1  0  0  0  0
 14 35  1  0  0  0  0
 15 36  1  0  0  0  0
 15 37  1  0  0  0  0
 17 38  1  0  0  0  0
M  END
> <pdb_id>
2WO8

> <uniprot_id>
P39900

> <usmiles>
O=C(O)C[C@@H](O)CCc1ccc(c2ccccc2)cc1

$$$$
07N_A_1
          07202413493D 1   1.00000     0.00000     0
            
 41 43  0  0  0  0            999 V2000
  -16.2540  -14.9399  -28.1413 Cl  0  0  0  0  0  0  0  0  0  0  0  0
  -13.2698  -16.2218  -28.9129 Cl  0  0  0  0  0  0  0  0  0  0  0  0
   -8.8097  -23.0685  -32.9836 S   0  0  0  0  0  0  0  0  0  0  0  0
  -10.3360  -18.7886  -30.2908 F   0  0  0  0  0  0  0  0  0  0  0  0
   -5.7632  -25.2666  -31.8347 O   0  0  0  0  0  0  0  0  0  0  0  0
   -7.4585  -25.8285  -33.1567 O   0  0  0  0  0  0  0  0  0  0  0  0
  -14.1265  -17.9272  -33.1359 O   0  0  0  0  0  0  0  0  0  0  0  0
   -7.5144  -21.5032  -31.5473 N   0  0  0  0  0  0  0  0  0  0  0  0
  -12.5494  -17.7961  -31.5470 N   0  0  0  0  0  0  0  0  0  0  0  0
  -16.0818  -16.6587  -31.6285 N   0  0  0  0  0  0  0  0  0  0  0  0
   -9.4977  -20.4860  -32.4139 N   0  0  0  0  0  0  0  0  0  0  0  0
  -18.1998  -15.5876  -30.7406 C   0  0  0  0  0  0  0  0  0  0  0  0
  -10.7310  -20.7213  -33.1781 C   0  0  0  0  0  0  0  0  0  0  0  0
   -6.7961  -22.5999  -31.5075 C   0  0  0  0  0  0  0  0  0  0  0  0
   -9.0528  -19.0937  -32.2898 C   0  0  0  0  0  0  0  0  0  0  0  0
  -11.8700  -19.9908  -32.4570 C   0  0  0  0  0  0  0  0  0  0  0  0
   -8.6065  -21.5309  -32.2652 C   0  0  0  0  0  0  0  0  0  0  0  0
  -15.9037  -15.7588  -29.6285 C   0  0  0  0  0  0  0  0  0  0  0  0
  -14.6600  -16.3005  -29.9522 C   0  0  0  0  0  0  0  0  0  0  0  0
   -6.7927  -24.9385  -32.3938 C   0  0  0  0  0  0  0  0  0  0  0  0
   -7.3206  -23.6328  -32.2401 C   0  0  0  0  0  0  0  0  0  0  0  0
  -13.7911  -17.5608  -32.0242 C   0  0  0  0  0  0  0  0  0  0  0  0
  -10.1796  -18.3123  -31.5958 C   0  0  1  0  0  0  0  0  0  0  0  0
  -16.7512  -15.9920  -30.6594 C   0  0  0  0  0  0  0  0  0  0  0  0
  -11.5199  -18.4955  -32.3285 C   0  0  2  0  0  0  0  0  0  0  0  0
  -14.7871  -16.8629  -31.2132 C   0  0  0  0  0  0  0  0  0  0  0  0
   -5.2693  -24.6065  -31.2688 H   0  0  0  0  0  0  0  0  0  0  0  0
  -12.3217  -17.4820  -30.6253 H   0  0  0  0  0  0  0  0  0  0  0  0
  -16.4659  -16.9543  -32.5032 H   0  0  0  0  0  0  0  0  0  0  0  0
  -18.4597  -15.1085  -29.9022 H   0  0  0  0  0  0  0  0  0  0  0  0
  -18.3335  -14.9825  -31.5254 H   0  0  0  0  0  0  0  0  0  0  0  0
  -18.7681  -16.4034  -30.8481 H   0  0  0  0  0  0  0  0  0  0  0  0
  -10.9257  -21.7014  -33.2178 H   0  0  0  0  0  0  0  0  0  0  0  0
  -10.6303  -20.3636  -34.1065 H   0  0  0  0  0  0  0  0  0  0  0  0
   -5.9438  -22.6755  -30.9901 H   0  0  0  0  0  0  0  0  0  0  0  0
   -8.8775  -18.7087  -33.1960 H   0  0  0  0  0  0  0  0  0  0  0  0
   -8.2177  -19.0491  -31.7415 H   0  0  0  0  0  0  0  0  0  0  0  0
  -11.9942  -20.3838  -31.5459 H   0  0  0  0  0  0  0  0  0  0  0  0
  -12.7155  -20.0915  -32.9815 H   0  0  0  0  0  0  0  0  0  0  0  0
   -9.9442  -17.3407  -31.5698 H   0  0  0  0  0  0  0  0  0  0  0  0
  -11.4596  -18.0881  -33.2397 H   0  0  0  0  0  0  0  0  0  0  0  0
  1 18  1  0  0  0  0
  2 19  1  0  0  0  0
  3 17  1  0  0  0  0
  3 21  1  0  0  0  0
  4 23  1  0  0  0  0
  5 20  1  0  0  0  0
  6 20  2  0  0  0  0
  7 22  2  0  0  0  0
  8 14  1  0  0  0  0
  8 17  2  0  0  0  0
  9 22  1  0  0  0  0
  9 25  1  0  0  0  0
 10 24  1  0  0  0  0
 10 26  1  0  0  0  0
 11 13  1  0  0  0  0
 11 15  1  0  0  0  0
 11 17  1  0  0  0  0
 12 24  1  0  0  0  0
 13 16  1  0  0  0  0
 14 21  2  0  0  0  0
 15 23  1  0  0  0  0
 16 25  1  0  0  0  0
 18 19  1  0  0  0  0
 18 24  2  0  0  0  0
 19 26  2  0  0  0  0
 20 21  1  0  0  0  0
 22 26  1  0  0  0  0
 23 25  1  0  0  0  0
  5 27  1  0  0  0  0
  9 28  1  0  0  0  0
 10 29  1  0  0  0  0
 12 30  1  0  0  0  0
 12 31  1  0  0  0  0
 12 32  1  0  0  0  0
 13 33  1  0  0  0  0
 13 34  1  0  0  0  0
 14 35  1  0  0  0  0
 15 36  1  0  0  0  0
 15 37  1  0  0  0  0
 16 38  1  0  0  0  0
 16 39  1  0  0  0  0
 23 40  1  0  0  0  0
 25 41  1  0  0  0  0
M  END
> <pdb_id>
3TTZ

> <uniprot_id>
P0A0K8

> <usmiles>
ClC=1C(Cl)=C(NC1C(=O)N[C@H]2[C@@H](F)CN(C=3SC(C(=O)O)=CN3)CC2)C

$$$$
07Z_A_436
          07192421083D 1   1.00000     0.00000     0
            
 36 38  0  0  0  0            999 V2000
    1.1888   28.2188    8.0031 S   0  0  0  0  0  0  0  0  0  0  0  0
    7.1576   23.5303    5.5469 O   0  0  0  0  0  0  0  0  0  0  0  0
    6.1373   22.8208    7.5845 O   0  0  0  0  0  0  0  0  0  0  0  0
   -1.7299   30.8139    9.0181 O   0  0  0  0  0  0  0  0  0  0  0  0
    0.1328   31.8197    7.2621 N   0  0  0  0  0  0  0  0  0  0  0  0
   -3.2215   27.1076   10.7369 N   0  0  0  0  0  0  0  0  0  0  0  0
    1.7922   30.3753    6.6862 N   0  0  0  0  0  0  0  0  0  0  0  0
    3.3623   28.7088    6.3182 N   0  0  0  0  0  0  0  0  0  0  0  0
   -2.3349   26.3887   11.5160 C   0  0  0  0  0  0  0  0  0  0  0  0
   -2.8339   28.1594    9.9150 C   0  0  0  0  0  0  0  0  0  0  0  0
   -0.9647   26.7189   11.4989 C   0  0  0  0  0  0  0  0  0  0  0  0
   -0.5289   27.7924   10.6703 C   0  0  0  0  0  0  0  0  0  0  0  0
    4.9519   27.1683    5.3955 C   0  0  0  0  0  0  0  0  0  0  0  0
    3.8200   26.5723    7.5127 C   0  0  0  0  0  0  0  0  0  0  0  0
    5.6764   25.9598    5.4458 C   0  0  0  0  0  0  0  0  0  0  0  0
    4.5477   25.3569    7.5602 C   0  0  0  0  0  0  0  0  0  0  0  0
    2.2048   29.1288    6.9225 C   0  0  0  0  0  0  0  0  0  0  0  0
    6.2763   23.7712    6.5511 C   0  0  0  0  0  0  0  0  0  0  0  0
    0.2018   29.6149    8.1312 C   0  0  0  0  0  0  0  0  0  0  0  0
    0.6776   30.6619    7.3496 C   0  0  0  0  0  0  0  0  0  0  0  0
   -1.0147   29.6682    8.9959 C   0  0  0  0  0  0  0  0  0  0  0  0
    4.0090   27.5053    6.4228 C   0  0  0  0  0  0  0  0  0  0  0  0
    5.4896   25.0358    6.5269 C   0  0  0  0  0  0  0  0  0  0  0  0
   -1.4651   28.5326    9.8548 C   0  0  0  0  0  0  0  0  0  0  0  0
    7.2670   24.1947    4.8076 H   0  0  0  0  0  0  0  0  0  0  0  0
   -0.7063   32.0171    7.7690 H   0  0  0  0  0  0  0  0  0  0  0  0
    0.5472   32.5251    6.6870 H   0  0  0  0  0  0  0  0  0  0  0  0
    3.7968   29.3772    5.7145 H   0  0  0  0  0  0  0  0  0  0  0  0
   -2.6638   25.6381   12.0890 H   0  0  0  0  0  0  0  0  0  0  0  0
   -3.5140   28.6498    9.3700 H   0  0  0  0  0  0  0  0  0  0  0  0
   -0.3108   26.2091   12.0580 H   0  0  0  0  0  0  0  0  0  0  0  0
    0.4403   28.0379   10.6525 H   0  0  0  0  0  0  0  0  0  0  0  0
    5.0972   27.7991    4.6333 H   0  0  0  0  0  0  0  0  0  0  0  0
    3.1687   26.7874    8.2405 H   0  0  0  0  0  0  0  0  0  0  0  0
    6.3284   25.7443    4.7189 H   0  0  0  0  0  0  0  0  0  0  0  0
    4.4039   24.7201    8.3176 H   0  0  0  0  0  0  0  0  0  0  0  0
  1 17  1  0  0  0  0
  1 19  1  0  0  0  0
  2 18  1  0  0  0  0
  3 18  2  0  0  0  0
  4 21  2  0  0  0  0
  5 20  1  0  0  0  0
  6  9  2  0  0  0  0
  6 10  1  0  0  0  0
  7 17  2  0  0  0  0
  7 20  1  0  0  0  0
  8 17  1  0  0  0  0
  8 22  1  0  0  0  0
  9 11  1  0  0  0  0
 10 24  2  0  0  0  0
 11 12  2  0  0  0  0
 12 24  1  0  0  0  0
 13 15  1  0  0  0  0
 13 22  2  0  0  0  0
 14 16  2  0  0  0  0
 14 22  1  0  0  0  0
 15 23  2  0  0  0  0
 16 23  1  0  0  0  0
 18 23  1  0  0  0  0
 19 20  2  0  0  0  0
 19 21  1  0  0  0  0
 21 24  1  0  0  0  0
  2 25  1  0  0  0  0
  5 26  1  0  0  0  0
  5 27  1  0  0  0  0
  8 28  1  0  0  0  0
  9 29  1  0  0  0  0
 10 30  1  0  0  0  0
 11 31  1  0  0  0  0
 12 32  1  0  0  0  0
 13 33  1  0  0  0  0
 14 34  1  0  0  0  0
 15 35  1  0  0  0  0
 16 36  1  0  0  0  0
M  END
> <pdb_id>
3RK5

> <uniprot_id>
P24941

> <usmiles>
S1C(=NC(N)=C1C(=O)c2cnccc2)Nc3ccc(cc3)C(=O)O

$$$$
087_B_2
          07202413493D 1   1.00000     0.00000     0
            
 45 47  0  0  0  0            999 V2000
   -4.9834  -21.6723  -30.9816 Cl  0  0  0  0  0  0  0  0  0  0  0  0
  -16.3867  -14.9484  -28.1379 Cl  0  0  0  0  0  0  0  0  0  0  0  0
  -13.5206  -16.2185  -28.8360 Cl  0  0  0  0  0  0  0  0  0  0  0  0
   -8.9907  -25.3385  -34.0562 O   0  0  0  0  0  0  0  0  0  0  0  0
  -14.2502  -17.9188  -33.1805 O   0  0  0  0  0  0  0  0  0  0  0  0
   -6.7744  -25.5214  -34.2059 N   0  0  0  0  0  0  0  0  0  0  0  0
   -7.4627  -21.1642  -31.7623 N   0  0  0  0  0  0  0  0  0  0  0  0
  -12.6608  -17.7214  -31.5842 N   0  0  0  0  0  0  0  0  0  0  0  0
  -16.1832  -16.5937  -31.6817 N   0  0  0  0  0  0  0  0  0  0  0  0
   -9.6305  -20.4523  -32.2781 N   0  0  0  0  0  0  0  0  0  0  0  0
  -18.3143  -15.5135  -30.8355 C   0  0  0  0  0  0  0  0  0  0  0  0
   -9.2180  -19.0477  -32.4499 C   0  0  0  0  0  0  0  0  0  0  0  0
  -10.8762  -20.7582  -32.9948 C   0  0  0  0  0  0  0  0  0  0  0  0
  -10.2627  -18.1832  -31.7308 C   0  0  0  0  0  0  0  0  0  0  0  0
  -11.9925  -19.9291  -32.3455 C   0  0  0  0  0  0  0  0  0  0  0  0
   -6.5764  -23.2270  -32.4694 C   0  0  0  0  0  0  0  0  0  0  0  0
   -8.8111  -22.6006  -33.0671 C   0  0  0  0  0  0  0  0  0  0  0  0
   -6.4649  -22.0277  -31.7940 C   0  0  0  0  0  0  0  0  0  0  0  0
   -7.8921  -24.8394  -33.8410 C   0  0  0  0  0  0  0  0  0  0  0  0
  -13.9078  -17.5280  -32.0642 C   0  0  0  0  0  0  0  0  0  0  0  0
  -16.0603  -15.7509  -29.6565 C   0  0  0  0  0  0  0  0  0  0  0  0
  -14.8267  -16.2977  -29.9656 C   0  0  0  0  0  0  0  0  0  0  0  0
   -8.6134  -21.4008  -32.3723 C   0  0  0  0  0  0  0  0  0  0  0  0
  -16.8805  -15.9496  -30.7154 C   0  0  0  0  0  0  0  0  0  0  0  0
  -11.6417  -18.4266  -32.3665 C   0  0  0  0  0  0  0  0  0  0  0  0
  -14.9067  -16.8311  -31.2440 C   0  0  0  0  0  0  0  0  0  0  0  0
   -7.7688  -23.5363  -33.1294 C   0  0  0  0  0  0  0  0  0  0  0  0
   -5.8708  -25.1275  -34.0371 H   0  0  0  0  0  0  0  0  0  0  0  0
   -6.8556  -26.4170  -34.6431 H   0  0  0  0  0  0  0  0  0  0  0  0
  -12.4275  -17.3761  -30.6752 H   0  0  0  0  0  0  0  0  0  0  0  0
  -16.5444  -16.8556  -32.5766 H   0  0  0  0  0  0  0  0  0  0  0  0
  -18.5970  -15.0610  -29.9897 H   0  0  0  0  0  0  0  0  0  0  0  0
  -18.4060  -14.8767  -31.6010 H   0  0  0  0  0  0  0  0  0  0  0  0
  -18.8935  -16.3128  -30.9956 H   0  0  0  0  0  0  0  0  0  0  0  0
   -9.1891  -18.8144  -33.4219 H   0  0  0  0  0  0  0  0  0  0  0  0
   -8.3150  -18.9028  -32.0454 H   0  0  0  0  0  0  0  0  0  0  0  0
  -11.0849  -21.7331  -32.9174 H   0  0  0  0  0  0  0  0  0  0  0  0
  -10.7848  -20.5125  -33.9599 H   0  0  0  0  0  0  0  0  0  0  0  0
  -10.0181  -17.2178  -31.8214 H   0  0  0  0  0  0  0  0  0  0  0  0
  -10.2923  -18.4301  -30.7623 H   0  0  0  0  0  0  0  0  0  0  0  0
  -12.1116  -20.2248  -31.3976 H   0  0  0  0  0  0  0  0  0  0  0  0
  -12.8441  -20.0741  -32.8493 H   0  0  0  0  0  0  0  0  0  0  0  0
   -5.8100  -23.8691  -32.4860 H   0  0  0  0  0  0  0  0  0  0  0  0
   -9.6859  -22.7878  -33.5139 H   0  0  0  0  0  0  0  0  0  0  0  0
  -11.6448  -18.0909  -33.3085 H   0  0  0  0  0  0  0  0  0  0  0  0
  1 18  1  0  0  0  0
  2 21  1  0  0  0  0
  3 22  1  0  0  0  0
  4 19  2  0  0  0  0
  5 20  2  0  0  0  0
  6 19  1  0  0  0  0
  7 18  2  0  0  0  0
  7 23  1  0  0  0  0
  8 20  1  0  0  0  0
  8 25  1  0  0  0  0
  9 24  1  0  0  0  0
  9 26  1  0  0  0  0
 10 12  1  0  0  0  0
 10 13  1  0  0  0  0
 10 23  1  0  0  0  0
 11 24  1  0  0  0  0
 12 14  1  0  0  0  0
 13 15  1  0  0  0  0
 14 25  1  0  0  0  0
 15 25  1  0  0  0  0
 16 18  1  0  0  0  0
 16 27  2  0  0  0  0
 17 23  2  0  0  0  0
 17 27  1  0  0  0  0
 19 27  1  0  0  0  0
 20 26  1  0  0  0  0
 21 22  1  0  0  0  0
 21 24  2  0  0  0  0
 22 26  2  0  0  0  0
  6 28  1  0  0  0  0
  6 29  1  0  0  0  0
  8 30  1  0  0  0  0
  9 31  1  0  0  0  0
 11 32  1  0  0  0  0
 11 33  1  0  0  0  0
 11 34  1  0  0  0  0
 12 35  1  0  0  0  0
 12 36  1  0  0  0  0
 13 37  1  0  0  0  0
 13 38  1  0  0  0  0
 14 39  1  0  0  0  0
 14 40  1  0  0  0  0
 15 41  1  0  0  0  0
 15 42  1  0  0  0  0
 16 43  1  0  0  0  0
 17 44  1  0  0  0  0
 25 45  1  0  0  0  0
M  END
> <pdb_id>
3U2K

> <uniprot_id>
P0A0K8

> <usmiles>
Clc1nc(N2CCC(NC(=O)C=3NC(=C(Cl)C3Cl)C)CC2)cc(c1)C(=O)N

$$$$
08E_A_579
          07192423343D 1   1.00000     0.00000     0
            
 43 46  0  0  0  0            999 V2000
   24.9814   42.6458   50.2878 Cl  0  0  0  0  0  0  0  0  0  0  0  0
   24.0066   44.3240   41.9269 O   0  0  0  0  0  0  0  0  0  0  0  0
   24.2101   46.3206   42.8941 O   0  0  0  0  0  0  0  0  0  0  0  0
   21.6310   45.4208   44.1248 O   0  0  0  0  0  0  0  0  0  0  0  0
   29.4962   45.8708   43.4184 N   0  0  0  0  0  0  0  0  0  0  0  0
   21.1991   47.3061   45.3735 N   0  0  0  0  0  0  0  0  0  0  0  0
   29.2191   44.3514   41.6315 N   0  0  0  0  0  0  0  0  0  0  0  0
   25.1884   43.3053   44.4930 N   0  0  0  0  0  0  0  0  0  0  0  0
   21.5152   48.1829   46.3877 C   0  0  0  0  0  0  0  0  0  0  0  0
   28.5386   43.3154   41.0742 C   0  0  0  0  0  0  0  0  0  0  0  0
   22.6153   47.9953   47.1392 C   0  0  0  0  0  0  0  0  0  0  0  0
   25.8102   42.5058   43.4508 C   0  0  0  0  0  0  0  0  0  0  0  0
   27.4380   42.7141   41.6404 C   0  0  0  0  0  0  0  0  0  0  0  0
   25.7958   41.8149   47.8378 C   0  0  0  0  0  0  0  0  0  0  0  0
   23.4915   46.8733   46.8525 C   0  0  0  0  0  0  0  0  0  0  0  0
   25.8982   41.8942   46.4452 C   0  0  0  0  0  0  0  0  0  0  0  0
   27.6909   44.2683   43.4864 C   0  0  0  0  0  0  0  0  0  0  0  0
   24.4718   43.8615   47.9184 C   0  0  0  0  0  0  0  0  0  0  0  0
   24.2502   44.9796   42.9272 C   0  0  0  0  0  0  0  0  0  0  0  0
   25.1012   42.7861   48.5614 C   0  0  0  0  0  0  0  0  0  0  0  0
   21.9604   46.2109   45.0387 C   0  0  0  0  0  0  0  0  0  0  0  0
   28.7928   44.8198   42.8341 C   0  0  0  0  0  0  0  0  0  0  0  0
   27.0046   43.1984   42.8730 C   0  0  0  0  0  0  0  0  0  0  0  0
   25.2688   42.9786   45.8152 C   0  0  0  0  0  0  0  0  0  0  0  0
   24.4630   44.4502   44.2711 C   0  0  0  0  0  0  0  0  0  0  0  0
   23.2284   46.0036   45.8494 C   0  0  0  0  0  0  0  0  0  0  0  0
   24.5551   43.9588   46.5078 C   0  0  0  0  0  0  0  0  0  0  0  0
   24.0497   44.8675   45.5386 C   0  0  0  0  0  0  0  0  0  0  0  0
   24.0396   43.3252   41.9634 H   0  0  0  0  0  0  0  0  0  0  0  0
   29.2058   46.2362   44.3028 H   0  0  0  0  0  0  0  0  0  0  0  0
   30.2915   46.2598   42.9535 H   0  0  0  0  0  0  0  0  0  0  0  0
   20.3652   47.4764   44.8487 H   0  0  0  0  0  0  0  0  0  0  0  0
   20.9209   48.9669   46.5673 H   0  0  0  0  0  0  0  0  0  0  0  0
   28.8593   42.9667   40.1935 H   0  0  0  0  0  0  0  0  0  0  0  0
   22.8276   48.6228   47.8883 H   0  0  0  0  0  0  0  0  0  0  0  0
   25.1438   42.3443   42.7230 H   0  0  0  0  0  0  0  0  0  0  0  0
   26.0978   41.6306   43.8397 H   0  0  0  0  0  0  0  0  0  0  0  0
   26.9673   41.9585   41.1848 H   0  0  0  0  0  0  0  0  0  0  0  0
   26.2258   41.0526   48.3216 H   0  0  0  0  0  0  0  0  0  0  0  0
   24.3104   46.7398   47.4106 H   0  0  0  0  0  0  0  0  0  0  0  0
   26.3994   41.2065   45.9201 H   0  0  0  0  0  0  0  0  0  0  0  0
   27.3926   44.6240   44.3721 H   0  0  0  0  0  0  0  0  0  0  0  0
   23.9725   44.5481   48.4468 H   0  0  0  0  0  0  0  0  0  0  0  0
  1 20  1  0  0  0  0
  2 19  1  0  0  0  0
  3 19  2  0  0  0  0
  4 21  2  0  0  0  0
  5 22  1  0  0  0  0
  6  9  1  0  0  0  0
  6 21  1  0  0  0  0
  7 10  1  0  0  0  0
  7 22  2  0  0  0  0
  8 12  1  0  0  0  0
  8 24  1  0  0  0  0
  8 25  1  0  0  0  0
  9 11  2  0  0  0  0
 10 13  2  0  0  0  0
 11 15  1  0  0  0  0
 12 23  1  0  0  0  0
 13 23  1  0  0  0  0
 14 16  1  0  0  0  0
 14 20  2  0  0  0  0
 15 26  2  0  0  0  0
 16 24  2  0  0  0  0
 17 22  1  0  0  0  0
 17 23  2  0  0  0  0
 18 20  1  0  0  0  0
 18 27  2  0  0  0  0
 19 25  1  0  0  0  0
 21 26  1  0  0  0  0
 24 27  1  0  0  0  0
 25 28  2  0  0  0  0
 26 28  1  0  0  0  0
 27 28  1  0  0  0  0
  2 29  1  0  0  0  0
  5 30  1  0  0  0  0
  5 31  1  0  0  0  0
  6 32  1  0  0  0  0
  9 33  1  0  0  0  0
 10 34  1  0  0  0  0
 11 35  1  0  0  0  0
 12 36  1  0  0  0  0
 12 37  1  0  0  0  0
 13 38  1  0  0  0  0
 14 39  1  0  0  0  0
 15 40  1  0  0  0  0
 16 41  1  0  0  0  0
 17 42  1  0  0  0  0
 18 43  1  0  0  0  0
M  END
> <pdb_id>
3U4O

> <uniprot_id>
O92972

> <usmiles>
Clc1cc2c(N(C(C(=O)O)=C2C=3C(=O)NC=CC3)Cc4cc(ncc4)N)cc1

$$$$
08K_A_1
          07212401333D 1   1.00000     0.00000     0
            
 37 40  0  0  0  0            999 V2000
  -12.8932  -17.2819  -18.5773 Cl  0  0  0  0  0  0  0  0  0  0  0  0
  -16.1052  -23.5575  -22.3768 N   0  0  0  0  0  0  0  0  0  0  0  0
  -17.0353  -22.6231  -22.8664 N   0  0  0  0  0  0  0  0  0  0  0  0
  -14.7767  -23.2407  -19.2981 N   0  0  0  0  0  0  0  0  0  0  0  0
  -14.4318  -23.4400  -20.7023 N   0  0  0  0  0  0  0  0  0  0  0  0
  -15.7385  -21.6067  -21.4642 N   0  0  0  0  0  0  0  0  0  0  0  0
  -13.7237  -24.6328  -21.1071 C   0  0  0  0  0  0  0  0  0  0  0  0
  -17.5394  -20.2148  -22.6464 C   0  0  0  0  0  0  0  0  0  0  0  0
  -16.2749  -22.0599  -14.6264 C   0  0  0  0  0  0  0  0  0  0  0  0
  -16.4023  -20.9165  -15.4067 C   0  0  0  0  0  0  0  0  0  0  0  0
  -15.6780  -23.1990  -15.1791 C   0  0  0  0  0  0  0  0  0  0  0  0
  -14.1492  -18.3696  -20.6936 C   0  0  0  0  0  0  0  0  0  0  0  0
  -15.9115  -20.9109  -16.7153 C   0  0  0  0  0  0  0  0  0  0  0  0
  -15.1747  -23.1889  -16.4626 C   0  0  0  0  0  0  0  0  0  0  0  0
  -14.7916  -19.3985  -21.3442 C   0  0  0  0  0  0  0  0  0  0  0  0
  -13.9127  -19.7835  -18.7496 C   0  0  0  0  0  0  0  0  0  0  0  0
  -15.3275  -22.8533  -21.5361 C   0  0  0  0  0  0  0  0  0  0  0  0
  -16.7676  -21.4450  -22.3187 C   0  0  0  0  0  0  0  0  0  0  0  0
  -13.7233  -18.5908  -19.4028 C   0  0  0  0  0  0  0  0  0  0  0  0
  -14.8166  -22.1011  -18.6832 C   0  0  0  0  0  0  0  0  0  0  0  0
  -15.0797  -20.6327  -20.7292 C   0  0  0  0  0  0  0  0  0  0  0  0
  -15.2746  -22.0421  -17.2508 C   0  0  0  0  0  0  0  0  0  0  0  0
  -14.6003  -20.8123  -19.4153 C   0  0  0  0  0  0  0  0  0  0  0  0
  -13.5688  -24.6095  -22.0947 H   0  0  0  0  0  0  0  0  0  0  0  0
  -12.8445  -24.6757  -20.6326 H   0  0  0  0  0  0  0  0  0  0  0  0
  -14.2679  -25.4388  -20.8740 H   0  0  0  0  0  0  0  0  0  0  0  0
  -17.1741  -19.4435  -22.1252 H   0  0  0  0  0  0  0  0  0  0  0  0
  -17.4612  -20.0229  -23.6247 H   0  0  0  0  0  0  0  0  0  0  0  0
  -18.5012  -20.3516  -22.4093 H   0  0  0  0  0  0  0  0  0  0  0  0
  -16.6054  -22.0685  -13.6826 H   0  0  0  0  0  0  0  0  0  0  0  0
  -16.8437  -20.1008  -15.0330 H   0  0  0  0  0  0  0  0  0  0  0  0
  -15.6155  -24.0347  -14.6335 H   0  0  0  0  0  0  0  0  0  0  0  0
  -13.9967  -17.4898  -21.1437 H   0  0  0  0  0  0  0  0  0  0  0  0
  -16.0153  -20.0905  -17.2776 H   0  0  0  0  0  0  0  0  0  0  0  0
  -14.7354  -24.0084  -16.8308 H   0  0  0  0  0  0  0  0  0  0  0  0
  -15.0660  -19.2639  -22.2963 H   0  0  0  0  0  0  0  0  0  0  0  0
  -13.5687  -19.9171  -17.8202 H   0  0  0  0  0  0  0  0  0  0  0  0
  1 19  1  0  0  0  0
  2  3  1  0  0  0  0
  2 17  2  0  0  0  0
  3 18  2  0  0  0  0
  4  5  1  0  0  0  0
  4 20  2  0  0  0  0
  5  7  1  0  0  0  0
  5 17  1  0  0  0  0
  6 17  1  0  0  0  0
  6 18  1  0  0  0  0
  6 21  1  0  0  0  0
  8 18  1  0  0  0  0
  9 10  2  0  0  0  0
  9 11  1  0  0  0  0
 10 13  1  0  0  0  0
 11 14  2  0  0  0  0
 12 15  1  0  0  0  0
 12 19  2  0  0  0  0
 13 22  2  0  0  0  0
 14 22  1  0  0  0  0
 15 21  2  0  0  0  0
 16 19  1  0  0  0  0
 16 23  2  0  0  0  0
 20 22  1  0  0  0  0
 20 23  1  0  0  0  0
 21 23  1  0  0  0  0
  7 24  1  0  0  0  0
  7 25  1  0  0  0  0
  7 26  1  0  0  0  0
  8 27  1  0  0  0  0
  8 28  1  0  0  0  0
  8 29  1  0  0  0  0
  9 30  1  0  0  0  0
 10 31  1  0  0  0  0
 11 32  1  0  0  0  0
 12 33  1  0  0  0  0
 13 34  1  0  0  0  0
 14 35  1  0  0  0  0
 15 36  1  0  0  0  0
 16 37  1  0  0  0  0
M  END
> <pdb_id>
3U5L

> <uniprot_id>
O60885

> <usmiles>
Clc1cc2c(N3C(=NN=C3C)N(N=C2c4ccccc4)C)cc1

$$$$
08W_A_264
          07192423413D 1   1.00000     0.00000     0
            
 43 45  0  0  0  0            999 V2000
   50.2720   37.0130    6.5610 S   0  0  0  0  0  0  0  0  0  0  0  0
   42.0440   37.3620   11.5720 F   0  0  0  0  0  0  0  0  0  0  0  0
   43.5390   38.5540   12.6630 F   0  0  0  0  0  0  0  0  0  0  0  0
   42.5230   39.3810   10.8740 F   0  0  0  0  0  0  0  0  0  0  0  0
   50.2880   38.3970    7.0000 O   0  0  0  0  0  0  0  0  0  0  0  0
   51.2560   36.7010    5.5420 O   0  0  0  0  0  0  0  0  0  0  0  0
   47.4320   38.8080    5.7140 O   0  0  0  0  0  0  0  0  0  0  0  0
   42.8510   31.9680   13.9670 O   0  0  0  0  0  0  0  0  0  0  0  0
   47.8430   35.1180    8.2820 O   0  0  0  0  0  0  0  0  0  0  0  0
   48.7500   36.4480    6.1540 N   0  0  0  0  0  0  0  0  0  0  0  0
   41.0920   33.0300   13.0160 N   0  0  0  0  0  0  0  0  0  0  0  0
   44.5060   34.4820   13.6450 N   0  0  0  0  0  0  0  0  0  0  0  0
   46.0920   38.6150    7.4680 N   0  0  0  0  0  0  0  0  0  0  0  0
   47.6720   36.9510    6.9750 N   0  0  0  0  0  0  0  0  0  0  0  0
   44.4240   35.6180   11.8870 N   0  0  0  0  0  0  0  0  0  0  0  0
   50.7460   36.1130    8.0640 C   0  0  0  0  0  0  0  0  0  0  0  0
   40.1240   32.0010   13.4080 C   0  0  0  0  0  0  0  0  0  0  0  0
   45.0910   35.3980   12.9890 C   0  0  0  0  0  0  0  0  0  0  0  0
   43.3980   34.7820   11.8190 C   0  0  0  0  0  0  0  0  0  0  0  0
   45.7690   35.9440   10.0430 C   0  0  0  0  0  0  0  0  0  0  0  0
   44.6060   38.3950    9.4060 C   0  0  0  0  0  0  0  0  0  0  0  0
   47.0820   38.1490    6.6810 C   0  0  0  0  0  0  0  0  0  0  0  0
   42.4040   32.9360   13.3520 C   0  0  0  0  0  0  0  0  0  0  0  0
   47.3090   36.1880    8.0330 C   0  0  0  0  0  0  0  0  0  0  0  0
   43.3480   34.0060   12.9370 C   0  0  0  0  0  0  0  0  0  0  0  0
   45.6330   37.8920    8.6060 C   0  0  0  0  0  0  0  0  0  0  0  0
   44.7440   36.4420   10.8530 C   0  0  0  0  0  0  0  0  0  0  0  0
   46.2120   36.6690    8.9320 C   0  0  0  0  0  0  0  0  0  0  0  0
   44.1410   37.6740   10.5280 C   0  0  0  0  0  0  0  0  0  0  0  0
   43.0380   38.2480   11.4200 C   0  0  0  0  0  0  0  0  0  0  0  0
   48.7586   35.4509    6.2301 H   0  0  0  0  0  0  0  0  0  0  0  0
   40.7784   33.8197   12.4887 H   0  0  0  0  0  0  0  0  0  0  0  0
   45.6678   39.4931    7.2466 H   0  0  0  0  0  0  0  0  0  0  0  0
   50.7670   35.1318    7.8723 H   0  0  0  0  0  0  0  0  0  0  0  0
   51.6522   36.4141    8.3610 H   0  0  0  0  0  0  0  0  0  0  0  0
   50.0800   36.2972    8.7868 H   0  0  0  0  0  0  0  0  0  0  0  0
   39.2170   32.2500   13.0685 H   0  0  0  0  0  0  0  0  0  0  0  0
   40.3961   31.1214   13.0177 H   0  0  0  0  0  0  0  0  0  0  0  0
   40.0987   31.9297   14.4051 H   0  0  0  0  0  0  0  0  0  0  0  0
   45.9251   35.8731   13.2694 H   0  0  0  0  0  0  0  0  0  0  0  0
   42.7533   34.7287   11.0565 H   0  0  0  0  0  0  0  0  0  0  0  0
   46.1887   35.0626   10.2597 H   0  0  0  0  0  0  0  0  0  0  0  0
   44.1937   39.2780    9.1818 H   0  0  0  0  0  0  0  0  0  0  0  0
  1  5  2  0  0  0  0
  1  6  2  0  0  0  0
  1 10  1  0  0  0  0
  1 16  1  0  0  0  0
  2 30  1  0  0  0  0
  3 30  1  0  0  0  0
  4 30  1  0  0  0  0
  7 22  2  0  0  0  0
  8 23  2  0  0  0  0
  9 24  2  0  0  0  0
 10 14  1  0  0  0  0
 11 17  1  0  0  0  0
 11 23  1  0  0  0  0
 12 18  2  0  0  0  0
 12 25  1  0  0  0  0
 13 22  1  0  0  0  0
 13 26  1  0  0  0  0
 14 22  1  0  0  0  0
 14 24  1  0  0  0  0
 15 18  1  0  0  0  0
 15 19  1  0  0  0  0
 15 27  1  0  0  0  0
 19 25  2  0  0  0  0
 20 27  1  0  0  0  0
 20 28  2  0  0  0  0
 21 26  2  0  0  0  0
 21 29  1  0  0  0  0
 23 25  1  0  0  0  0
 24 28  1  0  0  0  0
 26 28  1  0  0  0  0
 27 29  2  0  0  0  0
 29 30  1  0  0  0  0
 10 31  1  0  0  0  0
 11 32  1  0  0  0  0
 13 33  1  0  0  0  0
 16 34  1  0  0  0  0
 16 35  1  0  0  0  0
 16 36  1  0  0  0  0
 17 37  1  0  0  0  0
 17 38  1  0  0  0  0
 17 39  1  0  0  0  0
 18 40  1  0  0  0  0
 19 41  1  0  0  0  0
 20 42  1  0  0  0  0
 21 43  1  0  0  0  0
M  END
> <pdb_id>
3UA8

> <uniprot_id>
P42262

> <usmiles>
S(=O)(=O)(NN1C(=O)Nc2c(cc(N3C=NC(C(=O)NC)=C3)c(c2)C(F)(F)F)C1=O)C

$$$$
090_A_2093
          07192418453D 1   1.00000     0.00000     0
            
 43 46  0  0  0  0            999 V2000
   43.9370   13.1730   32.7120 O   0  0  0  0  0  0  0  0  0  0  0  0
   49.9880   15.6380   32.1650 O   0  0  0  0  0  0  0  0  0  0  0  0
   47.3320   15.0180   32.7090 O   0  0  0  0  0  0  0  0  0  0  0  0
   40.2450   10.3360   31.8800 N   0  0  0  0  0  0  0  0  0  0  0  0
   47.7870   10.6690   28.5230 N   0  0  0  0  0  0  0  0  0  0  0  0
   44.1030   11.6770   31.0610 N   0  0  0  0  0  0  0  0  0  0  0  0
   46.0670   12.9780   31.3930 N   0  0  0  0  0  0  0  0  0  0  0  0
   46.0380   11.2310   29.7700 N   0  0  0  0  0  0  0  0  0  0  0  0
   51.3320   16.0090   31.8240 C   0  0  0  0  0  0  0  0  0  0  0  0
   46.5530   16.1210   32.2100 C   0  0  0  0  0  0  0  0  0  0  0  0
   39.5970   10.7580   32.9850 C   0  0  0  0  0  0  0  0  0  0  0  0
   46.7150    9.7690   28.1480 C   0  0  0  0  0  0  0  0  0  0  0  0
   41.4530   10.8220   31.5430 C   0  0  0  0  0  0  0  0  0  0  0  0
   45.4950   10.1250   28.9960 C   0  0  0  0  0  0  0  0  0  0  0  0
   40.1490   11.7060   33.8320 C   0  0  0  0  0  0  0  0  0  0  0  0
   50.0470   13.8570   30.5070 C   0  0  0  0  0  0  0  0  0  0  0  0
   41.3890   12.2250   33.5040 C   0  0  0  0  0  0  0  0  0  0  0  0
   49.3980   12.8300   29.8200 C   0  0  0  0  0  0  0  0  0  0  0  0
   43.4190   12.3190   32.0050 C   0  0  0  0  0  0  0  0  0  0  0  0
   45.3760   11.9880   30.7450 C   0  0  0  0  0  0  0  0  0  0  0  0
   47.3610   11.4980   29.4700 C   0  0  0  0  0  0  0  0  0  0  0  0
   49.3570   14.6060   31.4920 C   0  0  0  0  0  0  0  0  0  0  0  0
   48.0250   14.2850   31.7910 C   0  0  0  0  0  0  0  0  0  0  0  0
   47.3740   13.2620   31.1040 C   0  0  0  0  0  0  0  0  0  0  0  0
   42.0440   11.8030   32.3370 C   0  0  0  0  0  0  0  0  0  0  0  0
   48.0570   12.5260   30.1190 C   0  0  0  0  0  0  0  0  0  0  0  0
   43.6541   10.9332   30.5657 H   0  0  0  0  0  0  0  0  0  0  0  0
   51.6265   16.7668   32.4062 H   0  0  0  0  0  0  0  0  0  0  0  0
   51.9391   15.2266   31.9626 H   0  0  0  0  0  0  0  0  0  0  0  0
   51.3667   16.2921   30.8655 H   0  0  0  0  0  0  0  0  0  0  0  0
   46.0947   16.5774   32.9727 H   0  0  0  0  0  0  0  0  0  0  0  0
   47.1546   16.7709   31.7456 H   0  0  0  0  0  0  0  0  0  0  0  0
   45.8685   15.7809   31.5651 H   0  0  0  0  0  0  0  0  0  0  0  0
   38.6970   10.3779   33.1982 H   0  0  0  0  0  0  0  0  0  0  0  0
   46.9873    8.8228   28.3227 H   0  0  0  0  0  0  0  0  0  0  0  0
   46.5001    9.8803   27.1777 H   0  0  0  0  0  0  0  0  0  0  0  0
   41.9235   10.4819   30.7288 H   0  0  0  0  0  0  0  0  0  0  0  0
   44.7215   10.4121   28.4310 H   0  0  0  0  0  0  0  0  0  0  0  0
   45.2156    9.3642   29.5818 H   0  0  0  0  0  0  0  0  0  0  0  0
   39.6660   12.0057   34.6548 H   0  0  0  0  0  0  0  0  0  0  0  0
   51.0036   14.0652   30.3030 H   0  0  0  0  0  0  0  0  0  0  0  0
   41.8195   12.9026   34.1002 H   0  0  0  0  0  0  0  0  0  0  0  0
   49.8848   12.3115   29.1170 H   0  0  0  0  0  0  0  0  0  0  0  0
  1 19  2  0  0  0  0
  2  9  1  0  0  0  0
  2 22  1  0  0  0  0
  3 10  1  0  0  0  0
  3 23  1  0  0  0  0
  4 11  2  0  0  0  0
  4 13  1  0  0  0  0
  5 12  1  0  0  0  0
  5 21  2  0  0  0  0
  6 19  1  0  0  0  0
  6 20  1  0  0  0  0
  7 20  2  0  0  0  0
  7 24  1  0  0  0  0
  8 14  1  0  0  0  0
  8 20  1  0  0  0  0
  8 21  1  0  0  0  0
 11 15  1  0  0  0  0
 12 14  1  0  0  0  0
 13 25  2  0  0  0  0
 15 17  2  0  0  0  0
 16 18  1  0  0  0  0
 16 22  2  0  0  0  0
 17 25  1  0  0  0  0
 18 26  2  0  0  0  0
 19 25  1  0  0  0  0
 21 26  1  0  0  0  0
 22 23  1  0  0  0  0
 23 24  2  0  0  0  0
 24 26  1  0  0  0  0
  6 27  1  0  0  0  0
  9 28  1  0  0  0  0
  9 29  1  0  0  0  0
  9 30  1  0  0  0  0
 10 31  1  0  0  0  0
 10 32  1  0  0  0  0
 10 33  1  0  0  0  0
 11 34  1  0  0  0  0
 12 35  1  0  0  0  0
 12 36  1  0  0  0  0
 13 37  1  0  0  0  0
 14 38  1  0  0  0  0
 14 39  1  0  0  0  0
 15 40  1  0  0  0  0
 16 41  1  0  0  0  0
 17 42  1  0  0  0  0
 18 43  1  0  0  0  0
M  END
> <pdb_id>
2CHX

> <uniprot_id>
P48736

> <usmiles>
O=C(NC1=Nc2c(OC)c(OC)ccc2C3=NCCN13)c4cnccc4

$$$$
09O_C_211
          07202406093D 1   1.00000     0.00000     0
            
 28 29  0  0  0  0            999 V2000
   59.8041    2.4823  119.1806 N   0  0  0  0  0  0  0  0  0  0  0  0
   58.4628   -0.3806  124.2094 N   0  0  0  0  0  0  0  0  0  0  0  0
   57.9939    1.9818  121.4284 N   0  0  0  0  0  0  0  0  0  0  0  0
   58.6338    1.5950  118.9509 C   0  0  0  0  0  0  0  0  0  0  0  0
   59.4979    3.9103  119.4319 C   0  0  0  0  0  0  0  0  0  0  0  0
   58.6480    0.4813  125.2320 C   0  0  0  0  0  0  0  0  0  0  0  0
   58.2507    0.1161  122.9729 C   0  0  0  0  0  0  0  0  0  0  0  0
   57.9682    1.0773  120.2524 C   0  0  0  0  0  0  0  0  0  0  0  0
   57.7211    3.4188  121.2228 C   0  0  0  0  0  0  0  0  0  0  0  0
   58.9955    4.1918  120.8631 C   0  0  0  0  0  0  0  0  0  0  0  0
   58.6270    1.8728  125.0607 C   0  0  0  0  0  0  0  0  0  0  0  0
   58.4124    2.3856  123.7745 C   0  0  0  0  0  0  0  0  0  0  0  0
   58.2056    1.5031  122.6848 C   0  0  0  0  0  0  0  0  0  0  0  0
   60.3890    2.4327  118.3710 H   0  0  0  0  0  0  0  0  0  0  0  0
   58.9379    0.8054  118.4179 H   0  0  0  0  0  0  0  0  0  0  0  0
   57.9499    2.1055  118.4297 H   0  0  0  0  0  0  0  0  0  0  0  0
   58.7917    4.2006  118.7861 H   0  0  0  0  0  0  0  0  0  0  0  0
   60.3297    4.4437  119.2782 H   0  0  0  0  0  0  0  0  0  0  0  0
   58.8065    0.1126  126.1480 H   0  0  0  0  0  0  0  0  0  0  0  0
   58.1183   -0.5285  122.2199 H   0  0  0  0  0  0  0  0  0  0  0  0
   57.0101    0.8811  120.0437 H   0  0  0  0  0  0  0  0  0  0  0  0
   58.4327    0.2309  120.5127 H   0  0  0  0  0  0  0  0  0  0  0  0
   57.3376    3.7996  122.0642 H   0  0  0  0  0  0  0  0  0  0  0  0
   57.0599    3.5201  120.4794 H   0  0  0  0  0  0  0  0  0  0  0  0
   58.8071    5.1703  120.9464 H   0  0  0  0  0  0  0  0  0  0  0  0
   59.7151    3.9347  121.5082 H   0  0  0  0  0  0  0  0  0  0  0  0
   58.7622    2.4857  125.8392 H   0  0  0  0  0  0  0  0  0  0  0  0
   58.4052    3.3744  123.6253 H   0  0  0  0  0  0  0  0  0  0  0  0
  1  4  1  0  0  0  0
  1  5  1  0  0  0  0
  2  6  2  0  0  0  0
  2  7  1  0  0  0  0
  3  8  1  0  0  0  0
  3  9  1  0  0  0  0
  3 13  1  0  0  0  0
  4  8  1  0  0  0  0
  5 10  1  0  0  0  0
  6 11  1  0  0  0  0
  7 13  2  0  0  0  0
  9 10  1  0  0  0  0
 11 12  2  0  0  0  0
 12 13  1  0  0  0  0
  1 14  1  0  0  0  0
  4 15  1  0  0  0  0
  4 16  1  0  0  0  0
  5 17  1  0  0  0  0
  5 18  1  0  0  0  0
  6 19  1  0  0  0  0
  7 20  1  0  0  0  0
  8 21  1  0  0  0  0
  8 22  1  0  0  0  0
  9 23  1  0  0  0  0
  9 24  1  0  0  0  0
 10 25  1  0  0  0  0
 10 26  1  0  0  0  0
 11 27  1  0  0  0  0
 12 28  1  0  0  0  0
M  END
> <pdb_id>
3U8J

> <uniprot_id>
P58154

> <usmiles>
n1cc(N2CCNCCC2)ccc1

$$$$
09P_A_211
          07202406093D 1   1.00000     0.00000     0
            
 35 36  0  0  0  0            999 V2000
   58.9861    2.6935  126.0385 O   0  0  0  0  0  0  0  0  0  0  0  0
   59.6406    2.6426  119.1388 N   0  0  0  0  0  0  0  0  0  0  0  0
   58.5626   -0.3125  124.0087 N   0  0  0  0  0  0  0  0  0  0  0  0
   57.8267    2.0553  121.3204 N   0  0  0  0  0  0  0  0  0  0  0  0
   58.1883    4.8578  126.6626 C   0  0  0  0  0  0  0  0  0  0  0  0
   59.2683    4.0870  125.9082 C   0  0  0  0  0  0  0  0  0  0  0  0
   58.4632    1.7970  118.8466 C   0  0  0  0  0  0  0  0  0  0  0  0
   59.4122    4.0773  119.4518 C   0  0  0  0  0  0  0  0  0  0  0  0
   58.7761    0.5398  125.0185 C   0  0  0  0  0  0  0  0  0  0  0  0
   58.2477    0.2036  122.8068 C   0  0  0  0  0  0  0  0  0  0  0  0
   57.8131    1.1958  120.1128 C   0  0  0  0  0  0  0  0  0  0  0  0
   57.4884    3.4656  121.0626 C   0  0  0  0  0  0  0  0  0  0  0  0
   58.7713    4.2819  120.8393 C   0  0  0  0  0  0  0  0  0  0  0  0
   58.3698    2.4612  123.6327 C   0  0  0  0  0  0  0  0  0  0  0  0
   58.6996    1.9375  124.9091 C   0  0  0  0  0  0  0  0  0  0  0  0
   58.1330    1.5858  122.5485 C   0  0  0  0  0  0  0  0  0  0  0  0
   60.2391    2.6049  118.3386 H   0  0  0  0  0  0  0  0  0  0  0  0
   58.3642    5.8392  126.5860 H   0  0  0  0  0  0  0  0  0  0  0  0
   57.2930    4.6480  126.2696 H   0  0  0  0  0  0  0  0  0  0  0  0
   58.2001    4.5912  127.6263 H   0  0  0  0  0  0  0  0  0  0  0  0
   59.2590    4.3465  124.9425 H   0  0  0  0  0  0  0  0  0  0  0  0
   60.1661    4.2898  126.2992 H   0  0  0  0  0  0  0  0  0  0  0  0
   58.7509    1.0471  118.2509 H   0  0  0  0  0  0  0  0  0  0  0  0
   57.7810    2.3551  118.3741 H   0  0  0  0  0  0  0  0  0  0  0  0
   58.8055    4.4648  118.7576 H   0  0  0  0  0  0  0  0  0  0  0  0
   60.2908    4.5545  119.4304 H   0  0  0  0  0  0  0  0  0  0  0  0
   59.0058    0.1546  125.9123 H   0  0  0  0  0  0  0  0  0  0  0  0
   58.0852   -0.4308  122.0510 H   0  0  0  0  0  0  0  0  0  0  0  0
   56.8594    0.9863  119.8971 H   0  0  0  0  0  0  0  0  0  0  0  0
   58.2985    0.3499  120.3337 H   0  0  0  0  0  0  0  0  0  0  0  0
   56.9927    3.8361  121.8481 H   0  0  0  0  0  0  0  0  0  0  0  0
   56.9125    3.5242  120.2472 H   0  0  0  0  0  0  0  0  0  0  0  0
   58.5491    5.2513  120.9430 H   0  0  0  0  0  0  0  0  0  0  0  0
   59.4381    4.0164  121.5357 H   0  0  0  0  0  0  0  0  0  0  0  0
   58.3048    3.4503  123.5000 H   0  0  0  0  0  0  0  0  0  0  0  0
  1  6  1  0  0  0  0
  1 15  1  0  0  0  0
  2  7  1  0  0  0  0
  2  8  1  0  0  0  0
  3  9  2  0  0  0  0
  3 10  1  0  0  0  0
  4 11  1  0  0  0  0
  4 12  1  0  0  0  0
  4 16  1  0  0  0  0
  5  6  1  0  0  0  0
  7 11  1  0  0  0  0
  8 13  1  0  0  0  0
  9 15  1  0  0  0  0
 10 16  2  0  0  0  0
 12 13  1  0  0  0  0
 14 15  2  0  0  0  0
 14 16  1  0  0  0  0
  2 17  1  0  0  0  0
  5 18  1  0  0  0  0
  5 19  1  0  0  0  0
  5 20  1  0  0  0  0
  6 21  1  0  0  0  0
  6 22  1  0  0  0  0
  7 23  1  0  0  0  0
  7 24  1  0  0  0  0
  8 25  1  0  0  0  0
  8 26  1  0  0  0  0
  9 27  1  0  0  0  0
 10 28  1  0  0  0  0
 11 29  1  0  0  0  0
 11 30  1  0  0  0  0
 12 31  1  0  0  0  0
 12 32  1  0  0  0  0
 13 33  1  0  0  0  0
 13 34  1  0  0  0  0
 14 35  1  0  0  0  0
M  END
> <pdb_id>
3U8K

> <uniprot_id>
P58154

> <usmiles>
O(c1cncc(N2CCNCCC2)c1)CC

$$$$
09Q_E_211
          07202406093D 1   1.00000     0.00000     0
            
 38 40  0  0  0  0            999 V2000
   59.6896    2.4789  119.0488 N   0  0  0  0  0  0  0  0  0  0  0  0
   58.3409    0.1129  124.5192 N   0  0  0  0  0  0  0  0  0  0  0  0
   57.9280    2.1504  121.5006 N   0  0  0  0  0  0  0  0  0  0  0  0
   58.4067    1.7395  119.0472 C   0  0  0  0  0  0  0  0  0  0  0  0
   59.6176    3.9349  119.3412 C   0  0  0  0  0  0  0  0  0  0  0  0
   58.1752    0.4889  123.2445 C   0  0  0  0  0  0  0  0  0  0  0  0
   58.4928    1.0703  125.4588 C   0  0  0  0  0  0  0  0  0  0  0  0
   58.0276    1.1472  120.4254 C   0  0  0  0  0  0  0  0  0  0  0  0
   57.7030    3.5157  120.9888 C   0  0  0  0  0  0  0  0  0  0  0  0
   59.0482    4.2132  120.7522 C   0  0  0  0  0  0  0  0  0  0  0  0
   58.8876    5.4358  128.2591 C   0  0  0  0  0  0  0  0  0  0  0  0
   59.7092    5.4920  127.1163 C   0  0  0  0  0  0  0  0  0  0  0  0
   57.9393    4.4059  128.3952 C   0  0  0  0  0  0  0  0  0  0  0  0
   59.5840    4.5138  126.1057 C   0  0  0  0  0  0  0  0  0  0  0  0
   57.8258    3.4288  127.3914 C   0  0  0  0  0  0  0  0  0  0  0  0
   58.2818    2.8265  123.8231 C   0  0  0  0  0  0  0  0  0  0  0  0
   58.1198    1.8402  122.8123 C   0  0  0  0  0  0  0  0  0  0  0  0
   58.4958    2.4512  125.1696 C   0  0  0  0  0  0  0  0  0  0  0  0
   58.6430    3.4620  126.2316 C   0  0  0  0  0  0  0  0  0  0  0  0
   60.1033    2.3710  118.1448 H   0  0  0  0  0  0  0  0  0  0  0  0
   58.4757    0.9894  118.3895 H   0  0  0  0  0  0  0  0  0  0  0  0
   57.6815    2.3665  118.7628 H   0  0  0  0  0  0  0  0  0  0  0  0
   59.0274    4.3720  118.6626 H   0  0  0  0  0  0  0  0  0  0  0  0
   60.5376    4.3223  119.2818 H   0  0  0  0  0  0  0  0  0  0  0  0
   58.0847   -0.2278  122.5530 H   0  0  0  0  0  0  0  0  0  0  0  0
   58.6094    0.7856  126.4103 H   0  0  0  0  0  0  0  0  0  0  0  0
   57.1425    0.6899  120.3387 H   0  0  0  0  0  0  0  0  0  0  0  0
   58.7246    0.4781  120.6830 H   0  0  0  0  0  0  0  0  0  0  0  0
   57.1723    4.0369  121.6572 H   0  0  0  0  0  0  0  0  0  0  0  0
   57.1983    3.4676  120.1269 H   0  0  0  0  0  0  0  0  0  0  0  0
   58.9215    5.1995  120.8584 H   0  0  0  0  0  0  0  0  0  0  0  0
   59.7035    3.8862  121.4330 H   0  0  0  0  0  0  0  0  0  0  0  0
   58.9785    6.1288  128.9743 H   0  0  0  0  0  0  0  0  0  0  0  0
   60.3820    6.2256  127.0206 H   0  0  0  0  0  0  0  0  0  0  0  0
   57.3492    4.3691  129.2017 H   0  0  0  0  0  0  0  0  0  0  0  0
   60.1650    4.5638  125.2934 H   0  0  0  0  0  0  0  0  0  0  0  0
   57.1550    2.6947  127.4966 H   0  0  0  0  0  0  0  0  0  0  0  0
   58.2442    3.7957  123.5794 H   0  0  0  0  0  0  0  0  0  0  0  0
  1  4  1  0  0  0  0
  1  5  1  0  0  0  0
  2  6  2  0  0  0  0
  2  7  1  0  0  0  0
  3  8  1  0  0  0  0
  3  9  1  0  0  0  0
  3 17  1  0  0  0  0
  4  8  1  0  0  0  0
  5 10  1  0  0  0  0
  6 17  1  0  0  0  0
  7 18  2  0  0  0  0
  9 10  1  0  0  0  0
 11 12  2  0  0  0  0
 11 13  1  0  0  0  0
 12 14  1  0  0  0  0
 13 15  2  0  0  0  0
 14 19  2  0  0  0  0
 15 19  1  0  0  0  0
 16 17  2  0  0  0  0
 16 18  1  0  0  0  0
 18 19  1  0  0  0  0
  1 20  1  0  0  0  0
  4 21  1  0  0  0  0
  4 22  1  0  0  0  0
  5 23  1  0  0  0  0
  5 24  1  0  0  0  0
  6 25  1  0  0  0  0
  7 26  1  0  0  0  0
  8 27  1  0  0  0  0
  8 28  1  0  0  0  0
  9 29  1  0  0  0  0
  9 30  1  0  0  0  0
 10 31  1  0  0  0  0
 10 32  1  0  0  0  0
 11 33  1  0  0  0  0
 12 34  1  0  0  0  0
 13 35  1  0  0  0  0
 14 36  1  0  0  0  0
 15 37  1  0  0  0  0
 16 38  1  0  0  0  0
M  END
> <pdb_id>
3U8L

> <uniprot_id>
P58154

> <usmiles>
n1cc(N2CCNCCC2)cc(c3ccccc3)c1

$$$$
09S_F_211
          07202406093D 1   1.00000     0.00000     0
            
 35 36  0  0  0  0            999 V2000
   59.1460   -0.3249  126.2398 Br  0  0  0  0  0  0  0  0  0  0  0  0
   59.3027    2.6000  125.7673 O   0  0  0  0  0  0  0  0  0  0  0  0
   59.6656    2.3568  119.1512 N   0  0  0  0  0  0  0  0  0  0  0  0
   58.3518   -0.3299  123.7281 N   0  0  0  0  0  0  0  0  0  0  0  0
   57.7027    2.1604  121.1493 N   0  0  0  0  0  0  0  0  0  0  0  0
   58.3087    4.8171  126.1691 C   0  0  0  0  0  0  0  0  0  0  0  0
   59.4569    3.9931  125.5998 C   0  0  0  0  0  0  0  0  0  0  0  0
   58.4341    1.6454  118.7604 C   0  0  0  0  0  0  0  0  0  0  0  0
   59.5094    3.8296  119.2830 C   0  0  0  0  0  0  0  0  0  0  0  0
   58.0186    0.2582  122.5724 C   0  0  0  0  0  0  0  0  0  0  0  0
   57.6552    1.2177  120.0152 C   0  0  0  0  0  0  0  0  0  0  0  0
   57.5426    3.6085  120.9329 C   0  0  0  0  0  0  0  0  0  0  0  0
   58.9071    4.2529  120.6282 C   0  0  0  0  0  0  0  0  0  0  0  0
   58.4799    2.4735  123.4302 C   0  0  0  0  0  0  0  0  0  0  0  0
   58.7600    0.4681  124.7528 C   0  0  0  0  0  0  0  0  0  0  0  0
   58.8469    1.8841  124.6709 C   0  0  0  0  0  0  0  0  0  0  0  0
   58.0539    1.6563  122.3537 C   0  0  0  0  0  0  0  0  0  0  0  0
   60.3637    2.1773  118.4581 H   0  0  0  0  0  0  0  0  0  0  0  0
   58.4869    5.7888  126.0141 H   0  0  0  0  0  0  0  0  0  0  0  0
   57.4558    4.5582  125.7157 H   0  0  0  0  0  0  0  0  0  0  0  0
   58.2298    4.6451  127.1510 H   0  0  0  0  0  0  0  0  0  0  0  0
   59.5274    4.1862  124.6212 H   0  0  0  0  0  0  0  0  0  0  0  0
   60.3013    4.2731  126.0565 H   0  0  0  0  0  0  0  0  0  0  0  0
   58.6748    0.8343  118.2273 H   0  0  0  0  0  0  0  0  0  0  0  0
   57.8630    2.2511  118.2063 H   0  0  0  0  0  0  0  0  0  0  0  0
   58.9105    4.1529  118.5503 H   0  0  0  0  0  0  0  0  0  0  0  0
   60.4097    4.2547  119.1896 H   0  0  0  0  0  0  0  0  0  0  0  0
   57.7264   -0.3271  121.8160 H   0  0  0  0  0  0  0  0  0  0  0  0
   56.6970    1.0969  119.7559 H   0  0  0  0  0  0  0  0  0  0  0  0
   58.0291    0.3439  120.3261 H   0  0  0  0  0  0  0  0  0  0  0  0
   57.1566    4.0251  121.7560 H   0  0  0  0  0  0  0  0  0  0  0  0
   56.9252    3.7612  120.1611 H   0  0  0  0  0  0  0  0  0  0  0  0
   58.7916    5.2462  120.6226 H   0  0  0  0  0  0  0  0  0  0  0  0
   59.5454    3.9957  121.3537 H   0  0  0  0  0  0  0  0  0  0  0  0
   58.5225    3.4662  123.3170 H   0  0  0  0  0  0  0  0  0  0  0  0
  1 15  1  0  0  0  0
  2  7  1  0  0  0  0
  2 16  1  0  0  0  0
  3  8  1  0  0  0  0
  3  9  1  0  0  0  0
  4 10  2  0  0  0  0
  4 15  1  0  0  0  0
  5 11  1  0  0  0  0
  5 12  1  0  0  0  0
  5 17  1  0  0  0  0
  6  7  1  0  0  0  0
  8 11  1  0  0  0  0
  9 13  1  0  0  0  0
 10 17  1  0  0  0  0
 12 13  1  0  0  0  0
 14 16  1  0  0  0  0
 14 17  2  0  0  0  0
 15 16  2  0  0  0  0
  3 18  1  0  0  0  0
  6 19  1  0  0  0  0
  6 20  1  0  0  0  0
  6 21  1  0  0  0  0
  7 22  1  0  0  0  0
  7 23  1  0  0  0  0
  8 24  1  0  0  0  0
  8 25  1  0  0  0  0
  9 26  1  0  0  0  0
  9 27  1  0  0  0  0
 10 28  1  0  0  0  0
 11 29  1  0  0  0  0
 11 30  1  0  0  0  0
 12 31  1  0  0  0  0
 12 32  1  0  0  0  0
 13 33  1  0  0  0  0
 13 34  1  0  0  0  0
 14 35  1  0  0  0  0
M  END
> <pdb_id>
3U8N

> <uniprot_id>
P58154

> <usmiles>
Brc1ncc(N2CCNCCC2)cc1OCC

$$$$
09Z_A_483
          07192421083D 1   1.00000     0.00000     0
            
 32 33  0  0  0  0            999 V2000
    1.0282   28.0482    7.8404 S   0  0  0  0  0  0  0  0  0  0  0  0
   -1.6858   30.7794    9.0824 O   0  0  0  0  0  0  0  0  0  0  0  0
    0.1218   31.7028    7.3129 N   0  0  0  0  0  0  0  0  0  0  0  0
   -3.3278   27.0679   10.8037 N   0  0  0  0  0  0  0  0  0  0  0  0
    1.6913   30.1953    6.5734 N   0  0  0  0  0  0  0  0  0  0  0  0
    3.1116   28.3367    6.0914 N   0  0  0  0  0  0  0  0  0  0  0  0
    4.5838   26.5336    5.3247 C   0  0  0  0  0  0  0  0  0  0  0  0
    4.5104   27.1571    7.7810 C   0  0  0  0  0  0  0  0  0  0  0  0
   -2.4103   26.3068   11.5429 C   0  0  0  0  0  0  0  0  0  0  0  0
   -2.9441   28.1497    9.9552 C   0  0  0  0  0  0  0  0  0  0  0  0
   -1.0195   26.6029   11.4696 C   0  0  0  0  0  0  0  0  0  0  0  0
   -0.5839   27.6885   10.6249 C   0  0  0  0  0  0  0  0  0  0  0  0
    2.0263   28.8899    6.7580 C   0  0  0  0  0  0  0  0  0  0  0  0
    0.1369   29.4783    8.0685 C   0  0  0  0  0  0  0  0  0  0  0  0
    0.6234   30.5121    7.3139 C   0  0  0  0  0  0  0  0  0  0  0  0
    3.6718   27.0287    6.4827 C   0  0  0  0  0  0  0  0  0  0  0  0
   -1.0495   29.5892    9.0006 C   0  0  0  0  0  0  0  0  0  0  0  0
   -1.5360   28.4739    9.8507 C   0  0  0  0  0  0  0  0  0  0  0  0
   -0.6774   31.9092    7.8774 H   0  0  0  0  0  0  0  0  0  0  0  0
    0.5328   32.4180    6.7476 H   0  0  0  0  0  0  0  0  0  0  0  0
    3.5231   28.8361    5.3290 H   0  0  0  0  0  0  0  0  0  0  0  0
    4.9768   25.6462    5.5660 H   0  0  0  0  0  0  0  0  0  0  0  0
    4.0418   26.4421    4.4893 H   0  0  0  0  0  0  0  0  0  0  0  0
    5.3194   27.1940    5.1742 H   0  0  0  0  0  0  0  0  0  0  0  0
    4.8804   26.2618    8.0288 H   0  0  0  0  0  0  0  0  0  0  0  0
    5.2626   27.7984    7.6298 H   0  0  0  0  0  0  0  0  0  0  0  0
    3.9288   27.4940    8.5215 H   0  0  0  0  0  0  0  0  0  0  0  0
   -2.7326   25.5569   12.1207 H   0  0  0  0  0  0  0  0  0  0  0  0
   -3.6295   28.6702    9.4460 H   0  0  0  0  0  0  0  0  0  0  0  0
   -0.3567   26.0683   11.9940 H   0  0  0  0  0  0  0  0  0  0  0  0
    0.3906   27.9061   10.5698 H   0  0  0  0  0  0  0  0  0  0  0  0
    2.9286   26.3753    6.6269 H   0  0  0  0  0  0  0  0  0  0  0  0
  1 13  1  0  0  0  0
  1 14  1  0  0  0  0
  2 17  2  0  0  0  0
  3 15  1  0  0  0  0
  4  9  2  0  0  0  0
  4 10  1  0  0  0  0
  5 13  2  0  0  0  0
  5 15  1  0  0  0  0
  6 13  1  0  0  0  0
  6 16  1  0  0  0  0
  7 16  1  0  0  0  0
  8 16  1  0  0  0  0
  9 11  1  0  0  0  0
 10 18  2  0  0  0  0
 11 12  2  0  0  0  0
 12 18  1  0  0  0  0
 14 15  2  0  0  0  0
 14 17  1  0  0  0  0
 17 18  1  0  0  0  0
  3 19  1  0  0  0  0
  3 20  1  0  0  0  0
  6 21  1  0  0  0  0
  7 22  1  0  0  0  0
  7 23  1  0  0  0  0
  7 24  1  0  0  0  0
  8 25  1  0  0  0  0
  8 26  1  0  0  0  0
  8 27  1  0  0  0  0
  9 28  1  0  0  0  0
 10 29  1  0  0  0  0
 11 30  1  0  0  0  0
 12 31  1  0  0  0  0
 16 32  1  0  0  0  0
M  END
> <pdb_id>
3RK9

> <uniprot_id>
P24941

> <usmiles>
S1C(=NC(N)=C1C(=O)c2cnccc2)NC(C)C

$$$$
0BC_A_1201
          07192420223D 1   1.00000     0.00000     0
            
 49 52  0  0  0  0            999 V2000
   15.0481    8.4523   14.5624 S   0  0  0  0  0  0  0  0  0  0  0  0
   10.6112   11.6347   10.8638 O   0  0  0  0  0  0  0  0  0  0  0  0
    5.5145   14.1560    8.7602 O   0  0  0  0  0  0  0  0  0  0  0  0
   11.7080   15.3758    8.7441 O   0  0  0  0  0  0  0  0  0  0  0  0
   15.3151    9.1352    5.5195 N   0  0  0  0  0  0  0  0  0  0  0  0
   16.2445    8.4931    6.2291 N   0  0  0  0  0  0  0  0  0  0  0  0
   14.4861    9.6888    6.3170 N   0  0  0  0  0  0  0  0  0  0  0  0
   15.9909    8.6399    7.4628 N   0  0  0  0  0  0  0  0  0  0  0  0
   15.8479    8.3857   12.2642 N   0  0  0  0  0  0  0  0  0  0  0  0
   11.3252   12.7657    9.0100 N   0  0  0  0  0  0  0  0  0  0  0  0
   13.2042   17.2895    8.7275 C   0  0  0  0  0  0  0  0  0  0  0  0
    6.3025   11.9347    9.2079 C   0  0  0  0  0  0  0  0  0  0  0  0
   16.2119    7.9380   13.4768 C   0  0  0  0  0  0  0  0  0  0  0  0
   14.0952    9.2628   13.4223 C   0  0  0  0  0  0  0  0  0  0  0  0
   11.7782   16.7860    8.4920 C   0  0  0  0  0  0  0  0  0  0  0  0
    9.3214   15.7932    8.7242 C   0  0  0  0  0  0  0  0  0  0  0  0
    8.0255   15.2881    8.7666 C   0  0  0  0  0  0  0  0  0  0  0  0
    8.9080   13.0530    9.0130 C   0  0  0  0  0  0  0  0  0  0  0  0
   13.1977   10.6331    8.7040 C   0  0  0  0  0  0  0  0  0  0  0  0
   13.1239   10.4602   11.0926 C   0  0  0  0  0  0  0  0  0  0  0  0
   14.8087    9.2588    9.8776 C   0  0  0  0  0  0  0  0  0  0  0  0
   11.4630   11.8350    9.9820 C   0  0  0  0  0  0  0  0  0  0  0  0
    6.4954   13.4325    8.9578 C   0  0  0  0  0  0  0  0  0  0  0  0
   14.8993    9.3989    7.5472 C   0  0  0  0  0  0  0  0  0  0  0  0
   10.4137   14.9263    8.8006 C   0  0  0  0  0  0  0  0  0  0  0  0
   14.7071    9.1072   12.2361 C   0  0  0  0  0  0  0  0  0  0  0  0
   10.2182   13.5525    8.9585 C   0  0  0  0  0  0  0  0  0  0  0  0
   12.6114   11.0031    9.9151 C   0  0  0  0  0  0  0  0  0  0  0  0
    7.8074   13.9166    8.9245 C   0  0  0  0  0  0  0  0  0  0  0  0
   14.3045    9.7655    8.6866 C   0  0  0  0  0  0  0  0  0  0  0  0
   14.2193    9.6054   11.0896 C   0  0  0  0  0  0  0  0  0  0  0  0
   13.6851   10.2324    6.0663 H   0  0  0  0  0  0  0  0  0  0  0  0
   12.0439   12.8757    8.3235 H   0  0  0  0  0  0  0  0  0  0  0  0
   13.2442   18.2727    8.5496 H   0  0  0  0  0  0  0  0  0  0  0  0
   13.4684   17.1112    9.6753 H   0  0  0  0  0  0  0  0  0  0  0  0
   13.8318   16.8135    8.1113 H   0  0  0  0  0  0  0  0  0  0  0  0
    7.1935   11.5026    9.3476 H   0  0  0  0  0  0  0  0  0  0  0  0
    5.7368   11.8028   10.0218 H   0  0  0  0  0  0  0  0  0  0  0  0
    5.8514   11.5201    8.4176 H   0  0  0  0  0  0  0  0  0  0  0  0
   17.0261    7.3983   13.6906 H   0  0  0  0  0  0  0  0  0  0  0  0
   13.2450    9.7593   13.5970 H   0  0  0  0  0  0  0  0  0  0  0  0
   11.1522   17.2641    9.1081 H   0  0  0  0  0  0  0  0  0  0  0  0
   11.5156   16.9664    7.5441 H   0  0  0  0  0  0  0  0  0  0  0  0
    9.4708   16.7783    8.6390 H   0  0  0  0  0  0  0  0  0  0  0  0
    7.2464   15.9095    8.6837 H   0  0  0  0  0  0  0  0  0  0  0  0
    8.7577   12.0697    9.1163 H   0  0  0  0  0  0  0  0  0  0  0  0
   12.8291   10.9867    7.8443 H   0  0  0  0  0  0  0  0  0  0  0  0
   12.6911   10.6924   11.9637 H   0  0  0  0  0  0  0  0  0  0  0  0
   15.5969    8.6436    9.8640 H   0  0  0  0  0  0  0  0  0  0  0  0
  1 13  1  0  0  0  0
  1 14  1  0  0  0  0
  2 22  2  0  0  0  0
  3 23  2  0  0  0  0
  4 15  1  0  0  0  0
  4 25  1  0  0  0  0
  5  6  2  0  0  0  0
  5  7  1  0  0  0  0
  6  8  1  0  0  0  0
  7 24  1  0  0  0  0
  8 24  2  0  0  0  0
  9 13  2  0  0  0  0
  9 26  1  0  0  0  0
 10 22  1  0  0  0  0
 10 27  1  0  0  0  0
 11 15  1  0  0  0  0
 12 23  1  0  0  0  0
 14 26  2  0  0  0  0
 16 17  1  0  0  0  0
 16 25  2  0  0  0  0
 17 29  2  0  0  0  0
 18 27  2  0  0  0  0
 18 29  1  0  0  0  0
 19 28  2  0  0  0  0
 19 30  1  0  0  0  0
 20 28  1  0  0  0  0
 20 31  2  0  0  0  0
 21 30  2  0  0  0  0
 21 31  1  0  0  0  0
 22 28  1  0  0  0  0
 23 29  1  0  0  0  0
 24 30  1  0  0  0  0
 25 27  1  0  0  0  0
 26 31  1  0  0  0  0
  7 32  1  0  0  0  0
 10 33  1  0  0  0  0
 11 34  1  0  0  0  0
 11 35  1  0  0  0  0
 11 36  1  0  0  0  0
 12 37  1  0  0  0  0
 12 38  1  0  0  0  0
 12 39  1  0  0  0  0
 13 40  1  0  0  0  0
 14 41  1  0  0  0  0
 15 42  1  0  0  0  0
 15 43  1  0  0  0  0
 16 44  1  0  0  0  0
 17 45  1  0  0  0  0
 18 46  1  0  0  0  0
 19 47  1  0  0  0  0
 20 48  1  0  0  0  0
 21 49  1  0  0  0  0
M  END
> <pdb_id>
5MPK

> <uniprot_id>
Q92793

> <usmiles>
S1C=NC(c2cc(cc(c2)C3=NN=NN3)C(=O)Nc4c(OCC)ccc(c4)C(=O)C)=C1

$$$$
0BQ_A_703
          07202413473D 1   1.00000     0.00000     0
            
 22 24  0  0  0  0            999 V2000
   97.3778  108.3159   -9.7411 O   0  0  0  0  0  0  0  0  0  0  0  0
   96.3963  107.3860  -11.6014 N   0  0  0  0  0  0  0  0  0  0  0  0
   95.9547  107.8358  -12.8622 N   0  0  0  0  0  0  0  0  0  0  0  0
   96.8211  109.5118  -11.6582 N   0  0  0  0  0  0  0  0  0  0  0  0
   96.1675  111.3149  -14.0152 N   0  0  0  0  0  0  0  0  0  0  0  0
   95.2308  109.5576  -15.0384 N   0  0  0  0  0  0  0  0  0  0  0  0
   95.0417  113.1394  -17.0578 C   0  0  0  0  0  0  0  0  0  0  0  0
   94.4919  112.0514  -17.7282 C   0  0  0  0  0  0  0  0  0  0  0  0
   95.6341  113.0133  -15.8305 C   0  0  0  0  0  0  0  0  0  0  0  0
   94.4936  110.7848  -17.1380 C   0  0  0  0  0  0  0  0  0  0  0  0
   96.9174  108.4110  -10.8745 C   0  0  0  0  0  0  0  0  0  0  0  0
   96.2215  109.1317  -12.8605 C   0  0  0  0  0  0  0  0  0  0  0  0
   95.9083  110.0180  -13.9393 C   0  0  0  0  0  0  0  0  0  0  0  0
   95.6561  111.7301  -15.2144 C   0  0  0  0  0  0  0  0  0  0  0  0
   95.0781  110.6506  -15.8715 C   0  0  0  0  0  0  0  0  0  0  0  0
   96.3347  106.4398  -11.2837 H   0  0  0  0  0  0  0  0  0  0  0  0
   97.1257  110.4336  -11.4181 H   0  0  0  0  0  0  0  0  0  0  0  0
   96.6401  111.8756  -13.3353 H   0  0  0  0  0  0  0  0  0  0  0  0
   95.0029  114.0421  -17.4863 H   0  0  0  0  0  0  0  0  0  0  0  0
   94.0934  112.1763  -18.6368 H   0  0  0  0  0  0  0  0  0  0  0  0
   96.0426  113.8051  -15.3765 H   0  0  0  0  0  0  0  0  0  0  0  0
   94.0901  109.9981  -17.6053 H   0  0  0  0  0  0  0  0  0  0  0  0
  1 11  2  0  0  0  0
  2  3  1  0  0  0  0
  2 11  1  0  0  0  0
  3 12  2  0  0  0  0
  4 11  1  0  0  0  0
  4 12  1  0  0  0  0
  5 13  1  0  0  0  0
  5 14  1  0  0  0  0
  6 13  2  0  0  0  0
  6 15  1  0  0  0  0
  7  8  2  0  0  0  0
  7  9  1  0  0  0  0
  8 10  1  0  0  0  0
  9 14  2  0  0  0  0
 10 15  2  0  0  0  0
 12 13  1  0  0  0  0
 14 15  1  0  0  0  0
  2 16  1  0  0  0  0
  4 17  1  0  0  0  0
  5 18  1  0  0  0  0
  7 19  1  0  0  0  0
  8 20  1  0  0  0  0
  9 21  1  0  0  0  0
 10 22  1  0  0  0  0
M  END
> <pdb_id>
7N5O

> <uniprot_id>
Q06187

> <usmiles>
O=C1NN=C(N1)C2=Nc3c(N2)cccc3

$$$$
0C0_A_1
          07212402253D 1   1.00000     0.00000     0
            
 47 50  0  0  0  0            999 V2000
  106.5222  -14.5491    9.6597 O   0  0  0  0  0  0  0  0  0  0  0  0
  105.6338  -12.7054    8.8909 O   0  0  0  0  0  0  0  0  0  0  0  0
  108.4556  -16.0267    1.4532 N   0  0  0  0  0  0  0  0  0  0  0  0
  109.2107  -16.7384    3.5533 N   0  0  0  0  0  0  0  0  0  0  0  0
  107.1094  -15.5538    3.3313 N   0  0  0  0  0  0  0  0  0  0  0  0
  111.3166  -17.9348    3.8090 N   0  0  0  0  0  0  0  0  0  0  0  0
  109.5455  -16.5441    0.8634 C   0  0  0  0  0  0  0  0  0  0  0  0
  111.5372  -22.8830    3.4499 C   0  0  0  0  0  0  0  0  0  0  0  0
  110.9101  -17.1092    7.4089 C   0  0  0  0  0  0  0  0  0  0  0  0
  112.6558  -22.0986    3.6875 C   0  0  0  0  0  0  0  0  0  0  0  0
  110.3065  -22.5234    3.9745 C   0  0  0  0  0  0  0  0  0  0  0  0
  110.9098  -18.3658    7.9915 C   0  0  0  0  0  0  0  0  0  0  0  0
  110.5162  -17.1853    1.6263 C   0  0  0  0  0  0  0  0  0  0  0  0
  111.0430  -16.9660    6.0354 C   0  0  0  0  0  0  0  0  0  0  0  0
  106.0256  -14.0996    4.9361 C   0  0  0  0  0  0  0  0  0  0  0  0
  107.5575  -15.7635    5.7489 C   0  0  0  0  0  0  0  0  0  0  0  0
  112.5458  -20.9487    4.4538 C   0  0  0  0  0  0  0  0  0  0  0  0
  110.1976  -21.3745    4.7417 C   0  0  0  0  0  0  0  0  0  0  0  0
  111.0442  -19.4869    7.1885 C   0  0  0  0  0  0  0  0  0  0  0  0
  105.7887  -13.6722    6.2332 C   0  0  0  0  0  0  0  0  0  0  0  0
  107.3247  -15.3352    7.0499 C   0  0  0  0  0  0  0  0  0  0  0  0
  108.3059  -16.1249    2.7778 C   0  0  0  0  0  0  0  0  0  0  0  0
  106.1853  -13.8228    8.6868 C   0  0  0  0  0  0  0  0  0  0  0  0
  110.3213  -17.2737    3.0039 C   0  0  0  0  0  0  0  0  0  0  0  0
  106.9125  -15.1397    4.6895 C   0  0  0  0  0  0  0  0  0  0  0  0
  111.1734  -18.0880    5.2304 C   0  0  0  0  0  0  0  0  0  0  0  0
  106.4408  -14.2891    7.2916 C   0  0  0  0  0  0  0  0  0  0  0  0
  111.3142  -20.5851    4.9794 C   0  0  0  0  0  0  0  0  0  0  0  0
  111.1771  -19.3526    5.8128 C   0  0  0  0  0  0  0  0  0  0  0  0
  106.9589  -15.4337    9.4956 H   0  0  0  0  0  0  0  0  0  0  0  0
  106.3374  -15.4332    2.7072 H   0  0  0  0  0  0  0  0  0  0  0  0
  112.1344  -18.2991    3.3636 H   0  0  0  0  0  0  0  0  0  0  0  0
  109.6598  -16.4682   -0.1272 H   0  0  0  0  0  0  0  0  0  0  0  0
  111.6194  -23.7123    2.8972 H   0  0  0  0  0  0  0  0  0  0  0  0
  110.8136  -16.2969    7.9841 H   0  0  0  0  0  0  0  0  0  0  0  0
  113.5418  -22.3625    3.3061 H   0  0  0  0  0  0  0  0  0  0  0  0
  109.5011  -23.0899    3.8004 H   0  0  0  0  0  0  0  0  0  0  0  0
  110.8135  -18.4630    8.9821 H   0  0  0  0  0  0  0  0  0  0  0  0
  111.3324  -17.5727    1.1977 H   0  0  0  0  0  0  0  0  0  0  0  0
  111.0449  -16.0537    5.6257 H   0  0  0  0  0  0  0  0  0  0  0  0
  105.5551  -13.6564    4.1732 H   0  0  0  0  0  0  0  0  0  0  0  0
  108.1886  -16.5197    5.5758 H   0  0  0  0  0  0  0  0  0  0  0  0
  113.3518  -20.3828    4.6272 H   0  0  0  0  0  0  0  0  0  0  0  0
  109.3117  -21.1134    5.1252 H   0  0  0  0  0  0  0  0  0  0  0  0
  111.0455  -20.3975    7.6018 H   0  0  0  0  0  0  0  0  0  0  0  0
  105.1503  -12.9222    6.4057 H   0  0  0  0  0  0  0  0  0  0  0  0
  107.7932  -15.7796    7.8134 H   0  0  0  0  0  0  0  0  0  0  0  0
  1 23  1  0  0  0  0
  2 23  2  0  0  0  0
  3  7  1  0  0  0  0
  3 22  2  0  0  0  0
  4 22  1  0  0  0  0
  4 24  2  0  0  0  0
  5 22  1  0  0  0  0
  5 25  1  0  0  0  0
  6 24  1  0  0  0  0
  6 26  1  0  0  0  0
  7 13  2  0  0  0  0
  8 10  2  0  0  0  0
  8 11  1  0  0  0  0
  9 12  2  0  0  0  0
  9 14  1  0  0  0  0
 10 17  1  0  0  0  0
 11 18  2  0  0  0  0
 12 19  1  0  0  0  0
 13 24  1  0  0  0  0
 14 26  2  0  0  0  0
 15 20  1  0  0  0  0
 15 25  2  0  0  0  0
 16 21  2  0  0  0  0
 16 25  1  0  0  0  0
 17 28  2  0  0  0  0
 18 28  1  0  0  0  0
 19 29  2  0  0  0  0
 20 27  2  0  0  0  0
 21 27  1  0  0  0  0
 23 27  1  0  0  0  0
 26 29  1  0  0  0  0
 28 29  1  0  0  0  0
  1 30  1  0  0  0  0
  5 31  1  0  0  0  0
  6 32  1  0  0  0  0
  7 33  1  0  0  0  0
  8 34  1  0  0  0  0
  9 35  1  0  0  0  0
 10 36  1  0  0  0  0
 11 37  1  0  0  0  0
 12 38  1  0  0  0  0
 13 39  1  0  0  0  0
 14 40  1  0  0  0  0
 15 41  1  0  0  0  0
 16 42  1  0  0  0  0
 17 43  1  0  0  0  0
 18 44  1  0  0  0  0
 19 45  1  0  0  0  0
 20 46  1  0  0  0  0
 21 47  1  0  0  0  0
M  END
> <pdb_id>
3UO4

> <uniprot_id>
O14965

> <usmiles>
O=C(O)c1ccc(Nc2nc(Nc3c(c4ccccc4)cccc3)ccn2)cc1

$$$$
0C1_A_578
          07192423343D 1   1.00000     0.00000     0
            
 54 58  0  0  0  0            999 V2000
   24.4224   45.2959   40.4553 S   0  0  0  0  0  0  0  0  0  0  0  0
   29.2371   46.1584   44.5035 F   0  0  0  0  0  0  0  0  0  0  0  0
   27.4873   42.4657   40.9434 F   0  0  0  0  0  0  0  0  0  0  0  0
   24.6425   44.1392   39.6172 O   0  0  0  0  0  0  0  0  0  0  0  0
   23.5515   46.3635   40.0121 O   0  0  0  0  0  0  0  0  0  0  0  0
   24.3377   46.6134   43.2929 O   0  0  0  0  0  0  0  0  0  0  0  0
   21.4661   45.4570   44.2650 O   0  0  0  0  0  0  0  0  0  0  0  0
   23.8564   44.3029   48.8300 O   0  0  0  0  0  0  0  0  0  0  0  0
   23.8216   44.8214   41.9786 N   0  0  0  0  0  0  0  0  0  0  0  0
   21.1195   47.2877   45.6267 N   0  0  0  0  0  0  0  0  0  0  0  0
   25.1700   43.3652   44.3892 N   0  0  0  0  0  0  0  0  0  0  0  0
   25.9451   46.1144   40.8262 C   0  0  0  0  0  0  0  0  0  0  0  0
   23.8462   43.4185   49.9698 C   0  0  0  0  0  0  0  0  0  0  0  0
   21.4696   48.0839   46.6824 C   0  0  0  0  0  0  0  0  0  0  0  0
   25.8973   42.7445   43.2838 C   0  0  0  0  0  0  0  0  0  0  0  0
   22.5822   47.8361   47.3902 C   0  0  0  0  0  0  0  0  0  0  0  0
   29.5194   45.0044   42.4835 C   0  0  0  0  0  0  0  0  0  0  0  0
   25.0336   42.4707   49.8698 C   0  0  0  0  0  0  0  0  0  0  0  0
   29.0612   44.0552   41.5734 C   0  0  0  0  0  0  0  0  0  0  0  0
   25.9542   41.8079   46.2187 C   0  0  0  0  0  0  0  0  0  0  0  0
   25.9100   41.6006   47.6024 C   0  0  0  0  0  0  0  0  0  0  0  0
   23.4241   46.7249   47.0153 C   0  0  0  0  0  0  0  0  0  0  0  0
   27.6355   44.5150   43.9303 C   0  0  0  0  0  0  0  0  0  0  0  0
   28.8030   45.2308   43.6464 C   0  0  0  0  0  0  0  0  0  0  0  0
   24.2745   45.3872   43.1872 C   0  0  0  0  0  0  0  0  0  0  0  0
   21.8434   46.1750   45.2087 C   0  0  0  0  0  0  0  0  0  0  0  0
   27.8977   43.3444   41.8433 C   0  0  0  0  0  0  0  0  0  0  0  0
   24.5028   43.5470   47.8562 C   0  0  0  0  0  0  0  0  0  0  0  0
   25.2610   42.9164   45.6828 C   0  0  0  0  0  0  0  0  0  0  0  0
   24.4034   44.5070   44.3243 C   0  0  0  0  0  0  0  0  0  0  0  0
   27.1589   43.5401   43.0212 C   0  0  0  0  0  0  0  0  0  0  0  0
   25.1974   42.4735   48.3941 C   0  0  0  0  0  0  0  0  0  0  0  0
   23.1245   45.8919   45.9907 C   0  0  0  0  0  0  0  0  0  0  0  0
   24.5096   43.8028   46.4806 C   0  0  0  0  0  0  0  0  0  0  0  0
   23.9493   44.7720   45.6168 C   0  0  0  0  0  0  0  0  0  0  0  0
   23.1181   44.1117   42.0160 H   0  0  0  0  0  0  0  0  0  0  0  0
   20.2883   47.5204   45.1219 H   0  0  0  0  0  0  0  0  0  0  0  0
   25.7639   46.9089   41.4058 H   0  0  0  0  0  0  0  0  0  0  0  0
   26.5543   45.4834   41.3065 H   0  0  0  0  0  0  0  0  0  0  0  0
   26.3783   46.4139   39.9761 H   0  0  0  0  0  0  0  0  0  0  0  0
   22.9962   42.8918   49.9784 H   0  0  0  0  0  0  0  0  0  0  0  0
   23.9147   43.9546   50.8112 H   0  0  0  0  0  0  0  0  0  0  0  0
   20.8894   48.8600   46.9296 H   0  0  0  0  0  0  0  0  0  0  0  0
   25.3247   42.7423   42.4640 H   0  0  0  0  0  0  0  0  0  0  0  0
   26.1372   41.8043   43.5253 H   0  0  0  0  0  0  0  0  0  0  0  0
   22.8256   48.4146   48.1687 H   0  0  0  0  0  0  0  0  0  0  0  0
   30.3577   45.5174   42.2989 H   0  0  0  0  0  0  0  0  0  0  0  0
   24.8191   41.5600   50.2229 H   0  0  0  0  0  0  0  0  0  0  0  0
   25.8412   42.8283   50.3388 H   0  0  0  0  0  0  0  0  0  0  0  0
   29.5678   43.8856   40.7281 H   0  0  0  0  0  0  0  0  0  0  0  0
   26.4640   41.1864   45.6238 H   0  0  0  0  0  0  0  0  0  0  0  0
   26.3914   40.8258   48.0121 H   0  0  0  0  0  0  0  0  0  0  0  0
   24.2636   46.5636   47.5341 H   0  0  0  0  0  0  0  0  0  0  0  0
   27.1357   44.6925   44.7782 H   0  0  0  0  0  0  0  0  0  0  0  0
  1  4  2  0  0  0  0
  1  5  2  0  0  0  0
  1  9  1  0  0  0  0
  1 12  1  0  0  0  0
  2 24  1  0  0  0  0
  3 27  1  0  0  0  0
  6 25  2  0  0  0  0
  7 26  2  0  0  0  0
  8 13  1  0  0  0  0
  8 28  1  0  0  0  0
  9 25  1  0  0  0  0
 10 14  1  0  0  0  0
 10 26  1  0  0  0  0
 11 15  1  0  0  0  0
 11 29  1  0  0  0  0
 11 30  1  0  0  0  0
 13 18  1  0  0  0  0
 14 16  2  0  0  0  0
 15 31  1  0  0  0  0
 16 22  1  0  0  0  0
 17 19  1  0  0  0  0
 17 24  2  0  0  0  0
 18 32  1  0  0  0  0
 19 27  2  0  0  0  0
 20 21  1  0  0  0  0
 20 29  2  0  0  0  0
 21 32  2  0  0  0  0
 22 33  2  0  0  0  0
 23 24  1  0  0  0  0
 23 31  2  0  0  0  0
 25 30  1  0  0  0  0
 26 33  1  0  0  0  0
 27 31  1  0  0  0  0
 28 32  1  0  0  0  0
 28 34  2  0  0  0  0
 29 34  1  0  0  0  0
 30 35  2  0  0  0  0
 33 35  1  0  0  0  0
 34 35  1  0  0  0  0
  9 36  1  0  0  0  0
 10 37  1  0  0  0  0
 12 38  1  0  0  0  0
 12 39  1  0  0  0  0
 12 40  1  0  0  0  0
 13 41  1  0  0  0  0
 13 42  1  0  0  0  0
 14 43  1  0  0  0  0
 15 44  1  0  0  0  0
 15 45  1  0  0  0  0
 16 46  1  0  0  0  0
 17 47  1  0  0  0  0
 18 48  1  0  0  0  0
 18 49  1  0  0  0  0
 19 50  1  0  0  0  0
 20 51  1  0  0  0  0
 21 52  1  0  0  0  0
 22 53  1  0  0  0  0
 23 54  1  0  0  0  0
M  END
> <pdb_id>
3UPH

> <uniprot_id>
O92972

> <usmiles>
S(=O)(=O)(NC(=O)C=1N(c2c(c3OCCc3cc2)C1C=4C(=O)NC=CC4)Cc5c(F)ccc(F)c5)C

$$$$
0C2_A_587
          07192423343D 1   1.00000     0.00000     0
            
 57 61  0  0  0  0            999 V2000
   24.4543   45.4475   40.2867 S   0  0  0  0  0  0  0  0  0  0  0  0
   29.4280   46.0313   44.3640 F   0  0  0  0  0  0  0  0  0  0  0  0
   27.5624   42.3947   40.7822 F   0  0  0  0  0  0  0  0  0  0  0  0
   24.0732   44.4305   39.3378 O   0  0  0  0  0  0  0  0  0  0  0  0
   23.8331   46.7533   40.3628 O   0  0  0  0  0  0  0  0  0  0  0  0
   24.1018   46.6415   43.0771 O   0  0  0  0  0  0  0  0  0  0  0  0
   21.5077   45.4560   44.2485 O   0  0  0  0  0  0  0  0  0  0  0  0
   23.9351   44.1465   48.6124 O   0  0  0  0  0  0  0  0  0  0  0  0
   24.5331   44.7680   41.8159 N   0  0  0  0  0  0  0  0  0  0  0  0
   21.1598   47.2645   45.6234 N   0  0  0  0  0  0  0  0  0  0  0  0
   25.2184   43.4236   44.1585 N   0  0  0  0  0  0  0  0  0  0  0  0
   26.1940   45.7418   40.0896 C   0  0  0  0  0  0  0  0  0  0  0  0
   24.2671   40.9262   49.9810 C   0  0  0  0  0  0  0  0  0  0  0  0
   24.1925   43.4314   49.8292 C   0  0  0  0  0  0  0  0  0  0  0  0
   21.5448   48.0692   46.6588 C   0  0  0  0  0  0  0  0  0  0  0  0
   25.9063   42.8918   42.9871 C   0  0  0  0  0  0  0  0  0  0  0  0
   22.6886   47.8355   47.3184 C   0  0  0  0  0  0  0  0  0  0  0  0
   29.7468   44.8152   42.3656 C   0  0  0  0  0  0  0  0  0  0  0  0
   29.2595   43.8778   41.4541 C   0  0  0  0  0  0  0  0  0  0  0  0
   25.9629   41.7189   45.8692 C   0  0  0  0  0  0  0  0  0  0  0  0
   23.5367   46.7333   46.9213 C   0  0  0  0  0  0  0  0  0  0  0  0
   25.8921   41.4134   47.2335 C   0  0  0  0  0  0  0  0  0  0  0  0
   27.7469   44.5322   43.7081 C   0  0  0  0  0  0  0  0  0  0  0  0
   28.9816   45.1349   43.4826 C   0  0  0  0  0  0  0  0  0  0  0  0
   24.2288   45.4281   43.0190 C   0  0  0  0  0  0  0  0  0  0  0  0
   21.8958   46.1720   45.1786 C   0  0  0  0  0  0  0  0  0  0  0  0
   28.0189   43.2701   41.6786 C   0  0  0  0  0  0  0  0  0  0  0  0
   24.5590   43.4060   47.6246 C   0  0  0  0  0  0  0  0  0  0  0  0
   25.2972   42.8798   45.4131 C   0  0  0  0  0  0  0  0  0  0  0  0
   24.4625   44.5821   44.1706 C   0  0  0  0  0  0  0  0  0  0  0  0
   25.0203   42.1688   49.5558 C   0  0  2  0  0  0  0  0  0  0  0  0
   27.2387   43.5807   42.8026 C   0  0  0  0  0  0  0  0  0  0  0  0
   25.2036   42.2680   48.0897 C   0  0  0  0  0  0  0  0  0  0  0  0
   23.2119   45.9027   45.9058 C   0  0  0  0  0  0  0  0  0  0  0  0
   24.5767   43.7423   46.2673 C   0  0  0  0  0  0  0  0  0  0  0  0
   24.0319   44.7894   45.4798 C   0  0  0  0  0  0  0  0  0  0  0  0
   24.8208   43.8124   41.8780 H   0  0  0  0  0  0  0  0  0  0  0  0
   20.2992   47.4734   45.1591 H   0  0  0  0  0  0  0  0  0  0  0  0
   26.4886   46.4450   40.7367 H   0  0  0  0  0  0  0  0  0  0  0  0
   26.6972   44.8956   40.2649 H   0  0  0  0  0  0  0  0  0  0  0  0
   26.3762   46.0506   39.1560 H   0  0  0  0  0  0  0  0  0  0  0  0
   24.8251   40.1178   49.7936 H   0  0  0  0  0  0  0  0  0  0  0  0
   24.0693   40.9750   50.9600 H   0  0  0  0  0  0  0  0  0  0  0  0
   23.4096   40.8651   49.4703 H   0  0  0  0  0  0  0  0  0  0  0  0
   23.3219   43.1687   50.2453 H   0  0  0  0  0  0  0  0  0  0  0  0
   24.6967   44.0241   50.4573 H   0  0  0  0  0  0  0  0  0  0  0  0
   20.9675   48.8404   46.9272 H   0  0  0  0  0  0  0  0  0  0  0  0
   25.3415   43.0435   42.1759 H   0  0  0  0  0  0  0  0  0  0  0  0
   26.0565   41.9108   43.1100 H   0  0  0  0  0  0  0  0  0  0  0  0
   22.9548   48.4221   48.0833 H   0  0  0  0  0  0  0  0  0  0  0  0
   30.6345   45.2514   42.2178 H   0  0  0  0  0  0  0  0  0  0  0  0
   29.7948   43.6410   40.6433 H   0  0  0  0  0  0  0  0  0  0  0  0
   26.4692   41.1335   45.2360 H   0  0  0  0  0  0  0  0  0  0  0  0
   24.3928   46.5805   47.4150 H   0  0  0  0  0  0  0  0  0  0  0  0
   26.3320   40.5889   47.5896 H   0  0  0  0  0  0  0  0  0  0  0  0
   27.2166   44.7770   44.5198 H   0  0  0  0  0  0  0  0  0  0  0  0
   25.9027   42.2206   50.0233 H   0  0  0  0  0  0  0  0  0  0  0  0
  1  4  2  0  0  0  0
  1  5  2  0  0  0  0
  1  9  1  0  0  0  0
  1 12  1  0  0  0  0
  2 24  1  0  0  0  0
  3 27  1  0  0  0  0
  6 25  2  0  0  0  0
  7 26  2  0  0  0  0
  8 14  1  0  0  0  0
  8 28  1  0  0  0  0
  9 25  1  0  0  0  0
 10 15  1  0  0  0  0
 10 26  1  0  0  0  0
 11 16  1  0  0  0  0
 11 29  1  0  0  0  0
 11 30  1  0  0  0  0
 13 31  1  0  0  0  0
 14 31  1  0  0  0  0
 15 17  2  0  0  0  0
 16 32  1  0  0  0  0
 17 21  1  0  0  0  0
 18 19  1  0  0  0  0
 18 24  2  0  0  0  0
 19 27  2  0  0  0  0
 20 22  1  0  0  0  0
 20 29  2  0  0  0  0
 21 34  2  0  0  0  0
 22 33  2  0  0  0  0
 23 24  1  0  0  0  0
 23 32  2  0  0  0  0
 25 30  1  0  0  0  0
 26 34  1  0  0  0  0
 27 32  1  0  0  0  0
 28 33  1  0  0  0  0
 28 35  2  0  0  0  0
 29 35  1  0  0  0  0
 30 36  2  0  0  0  0
 31 33  1  0  0  0  0
 34 36  1  0  0  0  0
 35 36  1  0  0  0  0
  9 37  1  0  0  0  0
 10 38  1  0  0  0  0
 12 39  1  0  0  0  0
 12 40  1  0  0  0  0
 12 41  1  0  0  0  0
 13 42  1  0  0  0  0
 13 43  1  0  0  0  0
 13 44  1  0  0  0  0
 14 45  1  0  0  0  0
 14 46  1  0  0  0  0
 15 47  1  0  0  0  0
 16 48  1  0  0  0  0
 16 49  1  0  0  0  0
 17 50  1  0  0  0  0
 18 51  1  0  0  0  0
 19 52  1  0  0  0  0
 20 53  1  0  0  0  0
 21 54  1  0  0  0  0
 22 55  1  0  0  0  0
 23 56  1  0  0  0  0
 31 57  1  0  0  0  0
M  END
> <pdb_id>
3UPI

> <uniprot_id>
O92972

> <usmiles>
S(=O)(=O)(NC(=O)C=1N(c2c(c3OC[C@H](c3cc2)C)C1C=4C(=O)NC=CC4)Cc5c(F)ccc(F)c5)C

$$$$
0C3_A_1
          07212402253D 1   1.00000     0.00000     0
            
 40 42  0  0  0  0            999 V2000
  110.9941  -20.5637    2.8207 F   0  0  0  0  0  0  0  0  0  0  0  0
  109.7073  -21.7451    4.1092 F   0  0  0  0  0  0  0  0  0  0  0  0
  111.8758  -21.9251    4.2622 F   0  0  0  0  0  0  0  0  0  0  0  0
  106.1509  -13.2714    9.0743 O   0  0  0  0  0  0  0  0  0  0  0  0
  106.5623  -15.3471    9.6819 O   0  0  0  0  0  0  0  0  0  0  0  0
  108.5207  -16.2132    1.3534 N   0  0  0  0  0  0  0  0  0  0  0  0
  109.3073  -17.0284    3.4043 N   0  0  0  0  0  0  0  0  0  0  0  0
  107.2100  -15.8269    3.3001 N   0  0  0  0  0  0  0  0  0  0  0  0
  111.3904  -18.2143    3.5352 N   0  0  0  0  0  0  0  0  0  0  0  0
  109.5954  -16.6981    0.6892 C   0  0  0  0  0  0  0  0  0  0  0  0
  110.8758  -18.0960    7.1952 C   0  0  0  0  0  0  0  0  0  0  0  0
  110.6221  -19.4341    7.4662 C   0  0  0  0  0  0  0  0  0  0  0  0
  110.5807  -17.3718    1.4135 C   0  0  0  0  0  0  0  0  0  0  0  0
  111.1224  -17.7086    5.8856 C   0  0  0  0  0  0  0  0  0  0  0  0
  107.6836  -16.2092    5.6975 C   0  0  0  0  0  0  0  0  0  0  0  0
  106.1740  -14.4704    5.0270 C   0  0  0  0  0  0  0  0  0  0  0  0
  110.6180  -20.3854    6.4436 C   0  0  0  0  0  0  0  0  0  0  0  0
  107.4958  -15.8859    7.0398 C   0  0  0  0  0  0  0  0  0  0  0  0
  105.9683  -14.1416    6.3576 C   0  0  0  0  0  0  0  0  0  0  0  0
  106.4284  -14.4774    8.7852 C   0  0  0  0  0  0  0  0  0  0  0  0
  108.3861  -16.3724    2.6831 C   0  0  0  0  0  0  0  0  0  0  0  0
  110.4000  -17.5224    2.7858 C   0  0  0  0  0  0  0  0  0  0  0  0
  107.0421  -15.4998    4.6917 C   0  0  0  0  0  0  0  0  0  0  0  0
  111.1173  -18.6568    4.8611 C   0  0  0  0  0  0  0  0  0  0  0  0
  106.6297  -14.8526    7.3583 C   0  0  0  0  0  0  0  0  0  0  0  0
  110.8677  -20.0106    5.1263 C   0  0  0  0  0  0  0  0  0  0  0  0
  110.8586  -21.0756    4.0521 C   0  0  0  0  0  0  0  0  0  0  0  0
  106.0483  -12.5936    8.3462 H   0  0  0  0  0  0  0  0  0  0  0  0
  106.4271  -15.6568    2.7016 H   0  0  0  0  0  0  0  0  0  0  0  0
  112.2864  -18.3917    3.1280 H   0  0  0  0  0  0  0  0  0  0  0  0
  109.6820  -16.5765   -0.2996 H   0  0  0  0  0  0  0  0  0  0  0  0
  110.8808  -17.4212    7.9332 H   0  0  0  0  0  0  0  0  0  0  0  0
  110.4398  -19.7206    8.4067 H   0  0  0  0  0  0  0  0  0  0  0  0
  111.3937  -17.7360    0.9593 H   0  0  0  0  0  0  0  0  0  0  0  0
  111.3042  -16.7480    5.6753 H   0  0  0  0  0  0  0  0  0  0  0  0
  108.2910  -16.9655    5.4546 H   0  0  0  0  0  0  0  0  0  0  0  0
  105.6966  -13.9653    4.3080 H   0  0  0  0  0  0  0  0  0  0  0  0
  110.4340  -21.3443    6.6595 H   0  0  0  0  0  0  0  0  0  0  0  0
  107.9762  -16.3891    7.7581 H   0  0  0  0  0  0  0  0  0  0  0  0
  105.3469  -13.3963    6.5994 H   0  0  0  0  0  0  0  0  0  0  0  0
  1 27  1  0  0  0  0
  2 27  1  0  0  0  0
  3 27  1  0  0  0  0
  4 20  1  0  0  0  0
  5 20  2  0  0  0  0
  6 10  1  0  0  0  0
  6 21  2  0  0  0  0
  7 21  1  0  0  0  0
  7 22  2  0  0  0  0
  8 21  1  0  0  0  0
  8 23  1  0  0  0  0
  9 22  1  0  0  0  0
  9 24  1  0  0  0  0
 10 13  2  0  0  0  0
 11 12  2  0  0  0  0
 11 14  1  0  0  0  0
 12 17  1  0  0  0  0
 13 22  1  0  0  0  0
 14 24  2  0  0  0  0
 15 18  1  0  0  0  0
 15 23  2  0  0  0  0
 16 19  2  0  0  0  0
 16 23  1  0  0  0  0
 17 26  2  0  0  0  0
 18 25  2  0  0  0  0
 19 25  1  0  0  0  0
 20 25  1  0  0  0  0
 24 26  1  0  0  0  0
 26 27  1  0  0  0  0
  4 28  1  0  0  0  0
  8 29  1  0  0  0  0
  9 30  1  0  0  0  0
 10 31  1  0  0  0  0
 11 32  1  0  0  0  0
 12 33  1  0  0  0  0
 13 34  1  0  0  0  0
 14 35  1  0  0  0  0
 15 36  1  0  0  0  0
 16 37  1  0  0  0  0
 17 38  1  0  0  0  0
 18 39  1  0  0  0  0
 19 40  1  0  0  0  0
M  END
> <pdb_id>
3UOD

> <uniprot_id>
O14965

> <usmiles>
FC(F)(F)c1c(Nc2nc(ncc2)Nc3ccc(cc3)C(=O)O)cccc1

$$$$
0C7_A_2
          07212402253D 1   1.00000     0.00000     0
            
 39 42  0  0  0  0            999 V2000
  110.7250  -21.0191    3.9001 Cl  0  0  0  0  0  0  0  0  0  0  0  0
  106.3431  -13.1817   10.3188 N   0  0  0  0  0  0  0  0  0  0  0  0
  105.5728  -14.2882   10.4458 N   0  0  0  0  0  0  0  0  0  0  0  0
  106.8677  -13.1659    9.0613 N   0  0  0  0  0  0  0  0  0  0  0  0
  105.6123  -14.9684    9.2599 N   0  0  0  0  0  0  0  0  0  0  0  0
  108.5903  -16.2981    1.1160 N   0  0  0  0  0  0  0  0  0  0  0  0
  109.4207  -16.9040    3.2054 N   0  0  0  0  0  0  0  0  0  0  0  0
  107.4453  -15.5751    3.0165 N   0  0  0  0  0  0  0  0  0  0  0  0
  111.3787  -18.2525    3.4024 N   0  0  0  0  0  0  0  0  0  0  0  0
  109.5664  -16.9326    0.4567 C   0  0  0  0  0  0  0  0  0  0  0  0
  110.4423  -19.1294    7.3983 C   0  0  0  0  0  0  0  0  0  0  0  0
  110.7602  -17.8252    7.0394 C   0  0  0  0  0  0  0  0  0  0  0  0
  110.5273  -17.6091    1.2107 C   0  0  0  0  0  0  0  0  0  0  0  0
  110.4336  -20.1304    6.4394 C   0  0  0  0  0  0  0  0  0  0  0  0
  111.0638  -17.5110    5.7268 C   0  0  0  0  0  0  0  0  0  0  0  0
  106.2731  -14.3546    4.7029 C   0  0  0  0  0  0  0  0  0  0  0  0
  107.9643  -15.9348    5.4008 C   0  0  0  0  0  0  0  0  0  0  0  0
  106.0069  -14.0186    6.0155 C   0  0  0  0  0  0  0  0  0  0  0  0
  107.6962  -15.6035    6.7231 C   0  0  0  0  0  0  0  0  0  0  0  0
  108.5333  -16.2740    2.4455 C   0  0  0  0  0  0  0  0  0  0  0  0
  110.4200  -17.5769    2.6011 C   0  0  0  0  0  0  0  0  0  0  0  0
  106.4122  -14.2731    8.4198 C   0  0  0  0  0  0  0  0  0  0  0  0
  110.7395  -19.8137    5.1323 C   0  0  0  0  0  0  0  0  0  0  0  0
  107.2524  -15.3016    4.3997 C   0  0  0  0  0  0  0  0  0  0  0  0
  111.0557  -18.5130    4.7757 C   0  0  0  0  0  0  0  0  0  0  0  0
  106.7238  -14.6511    7.0173 C   0  0  0  0  0  0  0  0  0  0  0  0
  106.5001  -12.4934   11.0271 H   0  0  0  0  0  0  0  0  0  0  0  0
  106.7434  -15.2405    2.3877 H   0  0  0  0  0  0  0  0  0  0  0  0
  112.2566  -18.5392    3.0189 H   0  0  0  0  0  0  0  0  0  0  0  0
  109.6064  -16.9227   -0.5424 H   0  0  0  0  0  0  0  0  0  0  0  0
  110.2198  -19.3460    8.3488 H   0  0  0  0  0  0  0  0  0  0  0  0
  110.7696  -17.1077    7.7359 H   0  0  0  0  0  0  0  0  0  0  0  0
  111.2734  -18.1041    0.7653 H   0  0  0  0  0  0  0  0  0  0  0  0
  110.2082  -21.0713    6.6925 H   0  0  0  0  0  0  0  0  0  0  0  0
  111.2862  -16.5705    5.4697 H   0  0  0  0  0  0  0  0  0  0  0  0
  105.7606  -13.9164    3.9645 H   0  0  0  0  0  0  0  0  0  0  0  0
  108.6592  -16.6184    5.1776 H   0  0  0  0  0  0  0  0  0  0  0  0
  105.3124  -13.3343    6.2375 H   0  0  0  0  0  0  0  0  0  0  0  0
  108.2009  -16.0486    7.4629 H   0  0  0  0  0  0  0  0  0  0  0  0
  1 23  1  0  0  0  0
  2  3  1  0  0  0  0
  2  4  1  0  0  0  0
  3  5  2  0  0  0  0
  4 22  2  0  0  0  0
  5 22  1  0  0  0  0
  6 10  2  0  0  0  0
  6 20  1  0  0  0  0
  7 20  2  0  0  0  0
  7 21  1  0  0  0  0
  8 20  1  0  0  0  0
  8 24  1  0  0  0  0
  9 21  1  0  0  0  0
  9 25  1  0  0  0  0
 10 13  1  0  0  0  0
 11 12  2  0  0  0  0
 11 14  1  0  0  0  0
 12 15  1  0  0  0  0
 13 21  2  0  0  0  0
 14 23  2  0  0  0  0
 15 25  2  0  0  0  0
 16 18  1  0  0  0  0
 16 24  2  0  0  0  0
 17 19  2  0  0  0  0
 17 24  1  0  0  0  0
 18 26  2  0  0  0  0
 19 26  1  0  0  0  0
 22 26  1  0  0  0  0
 23 25  1  0  0  0  0
  2 27  1  0  0  0  0
  8 28  1  0  0  0  0
  9 29  1  0  0  0  0
 10 30  1  0  0  0  0
 11 31  1  0  0  0  0
 12 32  1  0  0  0  0
 13 33  1  0  0  0  0
 14 34  1  0  0  0  0
 15 35  1  0  0  0  0
 16 36  1  0  0  0  0
 17 37  1  0  0  0  0
 18 38  1  0  0  0  0
 19 39  1  0  0  0  0
M  END
> <pdb_id>
3UOL

> <uniprot_id>
O14965

> <usmiles>
Clc1c(Nc2nc(ncc2)Nc3ccc(cc3)C=4N=NNN4)cccc1

$$$$
0CG_A_318
          07202416533D 1   1.00000     0.00000     0
            
 18 17  0  0  0  0            999 V2000
    4.5466    0.8489  -16.9342 P   0  0  0  0  0  0  0  0  0  0  0  0
    4.3474   -2.0962  -16.6625 P   0  0  0  0  0  0  0  0  0  0  0  0
    4.8489    0.9982  -18.3889 O   0  0  0  0  0  0  0  0  0  0  0  0
    5.7950    0.7948  -16.1065 O   0  0  0  0  0  0  0  0  0  0  0  0
    3.4924    1.8278  -16.4327 O   0  0  0  0  0  0  0  0  0  0  0  0
    3.2678   -2.9631  -17.2008 O   0  0  0  0  0  0  0  0  0  0  0  0
    5.7066   -2.2977  -17.1538 O   0  0  0  0  0  0  0  0  0  0  0  0
    3.8308   -0.6010  -16.8228 O   0  0  0  0  0  0  0  0  0  0  0  0
    4.4774   -2.3261  -15.0996 O   0  0  0  0  0  0  0  0  0  0  0  0
    0.9852   -1.5095  -14.7235 C   0  0  0  0  0  0  0  0  0  0  0  0
    3.5603   -1.9898  -14.0209 C   0  0  0  0  0  0  0  0  0  0  0  0
    2.1802   -1.7354  -14.3942 C   0  0  0  0  0  0  0  0  0  0  0  0
    3.9934    1.0303  -18.9056 H   0  0  0  0  0  0  0  0  0  0  0  0
    5.5513    0.6948  -15.1418 H   0  0  0  0  0  0  0  0  0  0  0  0
    2.3972   -2.7134  -16.7770 H   0  0  0  0  0  0  0  0  0  0  0  0
    0.0367   -1.3302  -14.9848 H   0  0  0  0  0  0  0  0  0  0  0  0
    3.9093   -1.1674  -13.5716 H   0  0  0  0  0  0  0  0  0  0  0  0
    3.5633   -2.7508  -13.3721 H   0  0  0  0  0  0  0  0  0  0  0  0
  1  3  1  0  0  0  0
  1  4  1  0  0  0  0
  1  5  2  0  0  0  0
  1  8  1  0  0  0  0
  2  6  1  0  0  0  0
  2  7  2  0  0  0  0
  2  8  1  0  0  0  0
  2  9  1  0  0  0  0
  9 11  1  0  0  0  0
 10 12  3  0  0  0  0
 11 12  1  0  0  0  0
  3 13  1  0  0  0  0
  4 14  1  0  0  0  0
  6 15  1  0  0  0  0
 10 16  1  0  0  0  0
 11 17  1  0  0  0  0
 11 18  1  0  0  0  0
M  END
> <pdb_id>
3URK

> <uniprot_id>
P62623

> <usmiles>
P(=O)(OP(=O)(O)O)(OCC#C)O

$$$$
0CK_A_295
          07202405003D 1   1.00000     0.00000     0
            
 45 48  0  0  0  0            999 V2000
  -19.4672    4.1803   42.7059 F   0  0  0  0  0  0  0  0  0  0  0  0
  -26.1865   -2.8844   40.9829 N   0  0  0  0  0  0  0  0  0  0  0  0
  -25.7947   -0.5450   40.8858 N   0  0  0  0  0  0  0  0  0  0  0  0
  -19.4434   -1.2905   38.9195 N   0  0  0  0  0  0  0  0  0  0  0  0
  -24.0636   -2.1601   40.2868 N   0  0  0  0  0  0  0  0  0  0  0  0
  -21.3885   -2.5721   38.7463 N   0  0  0  0  0  0  0  0  0  0  0  0
  -20.0563   -2.4088   38.4564 C   0  0  0  0  0  0  0  0  0  0  0  0
  -24.9391    0.5153   40.6077 C   0  0  0  0  0  0  0  0  0  0  0  0
  -23.0014   -6.5918   37.8145 C   0  0  0  0  0  0  0  0  0  0  0  0
  -23.2073   -5.9717   39.2152 C   0  0  0  0  0  0  0  0  0  0  0  0
  -22.9548   -5.5185   36.7255 C   0  0  0  0  0  0  0  0  0  0  0  0
  -23.6115    0.2642   40.1574 C   0  0  0  0  0  0  0  0  0  0  0  0
  -20.4019    1.9503   42.5715 C   0  0  0  0  0  0  0  0  0  0  0  0
  -19.1773    2.9859   40.5744 C   0  0  0  0  0  0  0  0  0  0  0  0
  -22.2230   -4.8352   39.5094 C   0  0  0  0  0  0  0  0  0  0  0  0
  -21.9338   -4.4376   37.0481 C   0  0  0  0  0  0  0  0  0  0  0  0
  -20.6391    0.7619   41.7532 C   0  0  0  0  0  0  0  0  0  0  0  0
  -19.4280    1.7806   39.7691 C   0  0  0  0  0  0  0  0  0  0  0  0
  -25.3400   -1.8554   40.7184 C   0  0  0  0  0  0  0  0  0  0  0  0
  -19.6706    3.0506   41.9576 C   0  0  0  0  0  0  0  0  0  0  0  0
  -23.1384   -1.1061   39.9845 C   0  0  0  0  0  0  0  0  0  0  0  0
  -20.4435   -0.6264   39.5912 C   0  0  0  0  0  0  0  0  0  0  0  0
  -22.1436   -3.7751   38.4089 C   0  0  0  0  0  0  0  0  0  0  0  0
  -21.7249   -1.4324   39.4760 C   0  0  0  0  0  0  0  0  0  0  0  0
  -20.1650    0.6558   40.3562 C   0  0  0  0  0  0  0  0  0  0  0  0
  -25.8771   -3.8284   40.8684 H   0  0  0  0  0  0  0  0  0  0  0  0
  -27.1190   -2.6979   41.2922 H   0  0  0  0  0  0  0  0  0  0  0  0
  -19.5554   -3.0901   37.9226 H   0  0  0  0  0  0  0  0  0  0  0  0
  -25.2567    1.4563   40.7241 H   0  0  0  0  0  0  0  0  0  0  0  0
  -23.7578   -7.2170   37.6219 H   0  0  0  0  0  0  0  0  0  0  0  0
  -22.1397   -7.0990   37.8075 H   0  0  0  0  0  0  0  0  0  0  0  0
  -23.0846   -6.6872   39.9029 H   0  0  0  0  0  0  0  0  0  0  0  0
  -24.1383   -5.6111   39.2717 H   0  0  0  0  0  0  0  0  0  0  0  0
  -23.8585   -5.0979   36.6455 H   0  0  0  0  0  0  0  0  0  0  0  0
  -22.7090   -5.9483   35.8566 H   0  0  0  0  0  0  0  0  0  0  0  0
  -23.0003    1.0304   39.9587 H   0  0  0  0  0  0  0  0  0  0  0  0
  -20.7286    2.0055   43.5150 H   0  0  0  0  0  0  0  0  0  0  0  0
  -18.6744    3.7566   40.1832 H   0  0  0  0  0  0  0  0  0  0  0  0
  -21.3128   -5.2316   39.6295 H   0  0  0  0  0  0  0  0  0  0  0  0
  -22.5058   -4.3867   40.3573 H   0  0  0  0  0  0  0  0  0  0  0  0
  -21.9889   -3.7315   36.3421 H   0  0  0  0  0  0  0  0  0  0  0  0
  -21.0232   -4.8508   37.0360 H   0  0  0  0  0  0  0  0  0  0  0  0
  -21.1396   -0.0063   42.1522 H   0  0  0  0  0  0  0  0  0  0  0  0
  -19.0978    1.7282   38.8267 H   0  0  0  0  0  0  0  0  0  0  0  0
  -23.0843   -3.4404   38.3523 H   0  0  0  0  0  0  0  0  0  0  0  0
  1 20  1  0  0  0  0
  2 19  1  0  0  0  0
  3  8  1  0  0  0  0
  3 19  2  0  0  0  0
  4  7  2  0  0  0  0
  4 22  1  0  0  0  0
  5 19  1  0  0  0  0
  5 21  2  0  0  0  0
  6  7  1  0  0  0  0
  6 23  1  0  0  0  0
  6 24  1  0  0  0  0
  8 12  2  0  0  0  0
  9 10  1  0  0  0  0
  9 11  1  0  0  0  0
 10 15  1  0  0  0  0
 11 16  1  0  0  0  0
 12 21  1  0  0  0  0
 13 17  2  0  0  0  0
 13 20  1  0  0  0  0
 14 18  1  0  0  0  0
 14 20  2  0  0  0  0
 15 23  1  0  0  0  0
 16 23  1  0  0  0  0
 17 25  1  0  0  0  0
 18 25  2  0  0  0  0
 21 24  1  0  0  0  0
 22 24  2  0  0  0  0
 22 25  1  0  0  0  0
  2 26  1  0  0  0  0
  2 27  1  0  0  0  0
  7 28  1  0  0  0  0
  8 29  1  0  0  0  0
  9 30  1  0  0  0  0
  9 31  1  0  0  0  0
 10 32  1  0  0  0  0
 10 33  1  0  0  0  0
 11 34  1  0  0  0  0
 11 35  1  0  0  0  0
 12 36  1  0  0  0  0
 13 37  1  0  0  0  0
 14 38  1  0  0  0  0
 15 39  1  0  0  0  0
 15 40  1  0  0  0  0
 16 41  1  0  0  0  0
 16 42  1  0  0  0  0
 17 43  1  0  0  0  0
 18 44  1  0  0  0  0
 23 45  1  0  0  0  0
M  END
> <pdb_id>
3UYT

> <uniprot_id>
P48730

> <usmiles>
Fc1ccc(cc1)C=2N=CN(C2c3nc(ncc3)N)C4CCCCC4

$$$$
0CV_B_1
          07192416573D 1   1.00000     0.00000     0
            
 44 47  0  0  0  0            999 V2000
   17.5411   -2.8719   24.5596 O   0  0  0  0  0  0  0  0  0  0  0  0
   18.4320   -2.7977   16.3627 N   0  0  0  0  0  0  0  0  0  0  0  0
   19.5189   -3.8294   19.4985 N   0  0  0  0  0  0  0  0  0  0  0  0
   19.3487   -3.4869   17.1393 N   0  0  0  0  0  0  0  0  0  0  0  0
   14.1952    0.5821   20.3545 N   0  0  0  0  0  0  0  0  0  0  0  0
   16.2064   -1.1941   19.7761 N   0  0  0  0  0  0  0  0  0  0  0  0
   16.2479   -2.3669   24.8135 C   0  0  0  0  0  0  0  0  0  0  0  0
   16.5511   -1.3259   16.4828 C   0  0  0  0  0  0  0  0  0  0  0  0
   20.9405   -4.9859   21.8184 C   0  0  0  0  0  0  0  0  0  0  0  0
   19.1257   -3.8751   23.1706 C   0  0  0  0  0  0  0  0  0  0  0  0
   17.4245   -2.4975   22.1648 C   0  0  0  0  0  0  0  0  0  0  0  0
   15.5653    1.1523   20.0977 C   0  0  0  0  0  0  0  0  0  0  0  0
   13.9038   -0.5858   19.5029 C   0  0  0  0  0  0  0  0  0  0  0  0
   16.5588    0.1018   20.4071 C   0  0  0  0  0  0  0  0  0  0  0  0
   14.8856   -1.6658   19.8379 C   0  0  0  0  0  0  0  0  0  0  0  0
   18.9561   -3.3440   18.4088 C   0  0  0  0  0  0  0  0  0  0  0  0
   18.0177   -3.0146   23.2972 C   0  0  0  0  0  0  0  0  0  0  0  0
   17.6173   -2.1409   17.1453 C   0  0  0  0  0  0  0  0  0  0  0  0
   19.0531   -3.5810   20.7366 C   0  0  0  0  0  0  0  0  0  0  0  0
   17.2511   -2.1222   19.6979 C   0  0  0  0  0  0  0  0  0  0  0  0
   19.6937   -4.1410   21.8991 C   0  0  0  0  0  0  0  0  0  0  0  0
   17.9060   -2.7081   20.8569 C   0  0  0  0  0  0  0  0  0  0  0  0
   17.8154   -2.4172   18.4749 C   0  0  0  0  0  0  0  0  0  0  0  0
   20.1151   -3.9922   16.7274 H   0  0  0  0  0  0  0  0  0  0  0  0
   14.1390    0.2867   21.3470 H   0  0  0  0  0  0  0  0  0  0  0  0
   16.0486   -2.4883   25.8770 H   0  0  0  0  0  0  0  0  0  0  0  0
   15.4869   -2.9166   24.2568 H   0  0  0  0  0  0  0  0  0  0  0  0
   16.2362   -1.3017   24.5776 H   0  0  0  0  0  0  0  0  0  0  0  0
   16.2832   -0.4462   17.0656 H   0  0  0  0  0  0  0  0  0  0  0  0
   16.8818   -0.9853   15.4919 H   0  0  0  0  0  0  0  0  0  0  0  0
   15.6623   -1.9491   16.3445 H   0  0  0  0  0  0  0  0  0  0  0  0
   21.1675   -5.4660   22.7713 H   0  0  0  0  0  0  0  0  0  0  0  0
   20.8474   -5.7497   21.0484 H   0  0  0  0  0  0  0  0  0  0  0  0
   21.7885   -4.3312   21.5818 H   0  0  0  0  0  0  0  0  0  0  0  0
   19.5769   -4.2749   24.0662 H   0  0  0  0  0  0  0  0  0  0  0  0
   16.5585   -1.8944   22.2893 H   0  0  0  0  0  0  0  0  0  0  0  0
   15.6768    1.9778   20.7964 H   0  0  0  0  0  0  0  0  0  0  0  0
   15.6089    1.5027   19.0670 H   0  0  0  0  0  0  0  0  0  0  0  0
   13.9937   -0.2549   18.4667 H   0  0  0  0  0  0  0  0  0  0  0  0
   12.8821   -0.9158   19.7181 H   0  0  0  0  0  0  0  0  0  0  0  0
   16.6113    0.0838   21.4958 H   0  0  0  0  0  0  0  0  0  0  0  0
   17.5187    0.4187   20.0800 H   0  0  0  0  0  0  0  0  0  0  0  0
   14.6554   -2.1410   20.7979 H   0  0  0  0  0  0  0  0  0  0  0  0
   14.7895   -2.4395   19.0771 H   0  0  0  0  0  0  0  0  0  0  0  0
  1  7  1  0  0  0  0
  1 17  1  0  0  0  0
  2  4  1  0  0  0  0
  2 18  2  0  0  0  0
  3 16  2  0  0  0  0
  3 19  1  0  0  0  0
  4 16  1  0  0  0  0
  4 24  1  0  0  0  0
  5 12  1  0  0  0  0
  5 13  1  0  0  0  0
  5 25  1  0  0  0  0
  6 14  1  0  0  0  0
  6 15  1  0  0  0  0
  6 20  1  0  0  0  0
  7 26  1  0  0  0  0
  7 27  1  0  0  0  0
  7 28  1  0  0  0  0
  8 18  1  0  0  0  0
  8 29  1  0  0  0  0
  8 30  1  0  0  0  0
  8 31  1  0  0  0  0
  9 21  1  0  0  0  0
  9 32  1  0  0  0  0
  9 33  1  0  0  0  0
  9 34  1  0  0  0  0
 10 17  2  0  0  0  0
 10 21  1  0  0  0  0
 10 35  1  0  0  0  0
 11 17  1  0  0  0  0
 11 22  2  0  0  0  0
 11 36  1  0  0  0  0
 12 14  1  0  0  0  0
 12 37  1  0  0  0  0
 12 38  1  0  0  0  0
 13 15  1  0  0  0  0
 13 39  1  0  0  0  0
 13 40  1  0  0  0  0
 14 41  1  0  0  0  0
 14 42  1  0  0  0  0
 15 43  1  0  0  0  0
 15 44  1  0  0  0  0
 16 23  1  0  0  0  0
 18 23  1  0  0  0  0
 19 21  2  0  0  0  0
 19 22  1  0  0  0  0
 20 22  1  0  0  0  0
 20 23  2  0  0  0  0
M  END
> <pdb_id>
3UUO

> <uniprot_id>
Q9Y233

> <usmiles>
O(c1cc2c(nc3NN=C(c3c2N4CCNCC4)C)c(c1)C)C

$$$$
0DF_B_801
          07192423483D 1   1.00000     0.00000     0
            
 28 30  0  0  0  0            999 V2000
    8.5409    1.4609   31.7568 O   0  0  0  0  0  0  0  0  0  0  0  0
   12.0199   -1.0921   33.5090 N   0  0  0  0  0  0  0  0  0  0  0  0
   10.5478    0.5923   32.5011 N   0  0  0  0  0  0  0  0  0  0  0  0
    8.6146   -0.5569   32.8345 N   0  0  0  0  0  0  0  0  0  0  0  0
    7.1569   -0.8479   32.8407 C   0  0  0  0  0  0  0  0  0  0  0  0
   12.0510   -2.2876   34.1235 C   0  0  0  0  0  0  0  0  0  0  0  0
   11.3553   -6.8566   36.1764 C   0  0  0  0  0  0  0  0  0  0  0  0
   10.3459   -6.6532   35.2392 C   0  0  0  0  0  0  0  0  0  0  0  0
   12.2244   -5.8322   36.5589 C   0  0  0  0  0  0  0  0  0  0  0  0
   10.1904   -5.3918   34.6483 C   0  0  0  0  0  0  0  0  0  0  0  0
   12.0720   -4.5659   35.9796 C   0  0  0  0  0  0  0  0  0  0  0  0
    9.6622   -2.5498   34.0040 C   0  0  0  0  0  0  0  0  0  0  0  0
    9.2116    0.5400   32.3417 C   0  0  0  0  0  0  0  0  0  0  0  0
   10.8278   -0.5698   33.1352 C   0  0  0  0  0  0  0  0  0  0  0  0
    9.6325   -1.2850   33.3579 C   0  0  0  0  0  0  0  0  0  0  0  0
   10.9021   -3.0252   34.3900 C   0  0  0  0  0  0  0  0  0  0  0  0
   11.0442   -4.3525   35.0639 C   0  0  0  0  0  0  0  0  0  0  0  0
   11.1796    1.3144   32.2194 H   0  0  0  0  0  0  0  0  0  0  0  0
    6.9962   -1.7363   33.2708 H   0  0  0  0  0  0  0  0  0  0  0  0
    6.6773   -0.1370   33.3551 H   0  0  0  0  0  0  0  0  0  0  0  0
    6.8166   -0.8662   31.9006 H   0  0  0  0  0  0  0  0  0  0  0  0
   12.9362   -2.6617   34.4002 H   0  0  0  0  0  0  0  0  0  0  0  0
   11.4611   -7.7621   36.5874 H   0  0  0  0  0  0  0  0  0  0  0  0
    9.7345   -7.4038   34.9887 H   0  0  0  0  0  0  0  0  0  0  0  0
   12.9426   -5.9997   37.2343 H   0  0  0  0  0  0  0  0  0  0  0  0
    9.4918   -5.2343   33.9504 H   0  0  0  0  0  0  0  0  0  0  0  0
   12.6953   -3.8221   36.2211 H   0  0  0  0  0  0  0  0  0  0  0  0
    8.8259   -3.0718   34.1718 H   0  0  0  0  0  0  0  0  0  0  0  0
  1 13  2  0  0  0  0
  2  6  1  0  0  0  0
  2 14  2  0  0  0  0
  3 13  1  0  0  0  0
  3 14  1  0  0  0  0
  4  5  1  0  0  0  0
  4 13  1  0  0  0  0
  4 15  1  0  0  0  0
  6 16  2  0  0  0  0
  7  8  2  0  0  0  0
  7  9  1  0  0  0  0
  8 10  1  0  0  0  0
  9 11  2  0  0  0  0
 10 17  2  0  0  0  0
 11 17  1  0  0  0  0
 12 15  2  0  0  0  0
 12 16  1  0  0  0  0
 14 15  1  0  0  0  0
 16 17  1  0  0  0  0
  3 18  1  0  0  0  0
  5 19  1  0  0  0  0
  5 20  1  0  0  0  0
  5 21  1  0  0  0  0
  6 22  1  0  0  0  0
  7 23  1  0  0  0  0
  8 24  1  0  0  0  0
  9 25  1  0  0  0  0
 10 26  1  0  0  0  0
 11 27  1  0  0  0  0
 12 28  1  0  0  0  0
M  END
> <pdb_id>
3UWK

> <uniprot_id>
Q9HZN8

> <usmiles>
O=C1N(c2c(ncc(c3ccccc3)c2)N1)C

$$$$
0DI_A_378
          07202402263D 1   1.00000     0.00000     0
            
 48 50  0  0  0  0            999 V2000
    7.2110   17.2190  -19.4190 Cl  0  0  0  0  0  0  0  0  0  0  0  0
   14.3950   10.5630  -23.7870 F   0  0  0  0  0  0  0  0  0  0  0  0
   13.3450   12.9500  -28.6500 F   0  0  0  0  0  0  0  0  0  0  0  0
    6.7760   15.7730  -24.1880 O   0  0  0  0  0  0  0  0  0  0  0  0
   12.9590   15.2490  -26.5970 O   0  0  0  0  0  0  0  0  0  0  0  0
    4.9310   13.7720  -23.8810 N   0  0  0  0  0  0  0  0  0  0  0  0
    8.6060   14.5030  -24.5790 N   0  0  0  0  0  0  0  0  0  0  0  0
   10.9380   14.2270  -26.2280 N   0  0  0  0  0  0  0  0  0  0  0  0
    9.2970   13.1780  -24.6410 C   0  0  0  0  0  0  0  0  0  0  0  0
    9.4820   15.6600  -24.9240 C   0  0  0  0  0  0  0  0  0  0  0  0
   10.0800   13.0350  -25.9630 C   0  0  0  0  0  0  0  0  0  0  0  0
   10.1730   15.4920  -26.2970 C   0  0  0  0  0  0  0  0  0  0  0  0
    4.7060   14.0400  -19.3400 C   0  0  0  0  0  0  0  0  0  0  0  0
    5.3370   15.2550  -19.0020 C   0  0  0  0  0  0  0  0  0  0  0  0
   14.5960   10.5650  -26.1670 C   0  0  0  0  0  0  0  0  0  0  0  0
   14.3640   11.1780  -27.4120 C   0  0  0  0  0  0  0  0  0  0  0  0
    5.1450   13.2810  -20.4550 C   0  0  0  0  0  0  0  0  0  0  0  0
    6.9330   14.9270  -20.8290 C   0  0  0  0  0  0  0  0  0  0  0  0
   13.3590   12.3550  -25.0150 C   0  0  0  0  0  0  0  0  0  0  0  0
    6.7920   12.9300  -22.3850 C   0  0  0  0  0  0  0  0  0  0  0  0
    6.4290   15.7180  -19.7710 C   0  0  0  0  0  0  0  0  0  0  0  0
   14.1160   11.1570  -24.9750 C   0  0  0  0  0  0  0  0  0  0  0  0
   13.5980   12.3670  -27.4580 C   0  0  0  0  0  0  0  0  0  0  0  0
    7.3000   14.6490  -24.2020 C   0  0  0  0  0  0  0  0  0  0  0  0
   12.3020   14.2300  -26.3640 C   0  0  0  0  0  0  0  0  0  0  0  0
    6.3740   13.4740  -23.7800 C   0  0  2  0  0  0  0  0  0  0  0  0
    6.2650   13.7250  -21.2040 C   0  0  0  0  0  0  0  0  0  0  0  0
   13.0870   12.9520  -26.2770 C   0  0  0  0  0  0  0  0  0  0  0  0
    4.7251   14.1166  -24.7969 H   0  0  0  0  0  0  0  0  0  0  0  0
    4.4058   12.9378  -23.7129 H   0  0  0  0  0  0  0  0  0  0  0  0
    8.6153   12.4488  -24.5823 H   0  0  0  0  0  0  0  0  0  0  0  0
    9.9327   13.1026  -23.8727 H   0  0  0  0  0  0  0  0  0  0  0  0
   10.1861   15.7501  -24.2197 H   0  0  0  0  0  0  0  0  0  0  0  0
    8.9238   16.4895  -24.9454 H   0  0  0  0  0  0  0  0  0  0  0  0
   10.6611   12.2229  -25.9093 H   0  0  0  0  0  0  0  0  0  0  0  0
    9.4295   12.9302  -26.7152 H   0  0  0  0  0  0  0  0  0  0  0  0
    9.4889   15.4432  -27.0248 H   0  0  0  0  0  0  0  0  0  0  0  0
   10.7896   16.2600  -26.4701 H   0  0  0  0  0  0  0  0  0  0  0  0
    3.9406   13.7099  -18.7875 H   0  0  0  0  0  0  0  0  0  0  0  0
    5.0128   15.7877  -18.2203 H   0  0  0  0  0  0  0  0  0  0  0  0
   15.1039    9.7046  -26.1243 H   0  0  0  0  0  0  0  0  0  0  0  0
   14.7345   10.7798  -28.2511 H   0  0  0  0  0  0  0  0  0  0  0  0
    4.6688   12.4397  -20.7110 H   0  0  0  0  0  0  0  0  0  0  0  0
    7.7594   15.2113  -21.3150 H   0  0  0  0  0  0  0  0  0  0  0  0
   13.0223   12.7728  -24.1711 H   0  0  0  0  0  0  0  0  0  0  0  0
    7.7909   12.9299  -22.3383 H   0  0  0  0  0  0  0  0  0  0  0  0
    6.4544   11.9922  -22.3035 H   0  0  0  0  0  0  0  0  0  0  0  0
    6.5505   12.7348  -24.4300 H   0  0  0  0  0  0  0  0  0  0  0  0
  1 21  1  0  0  0  0
  2 22  1  0  0  0  0
  3 23  1  0  0  0  0
  4 24  2  0  0  0  0
  5 25  2  0  0  0  0
  6 26  1  0  0  0  0
  7  9  1  0  0  0  0
  7 10  1  0  0  0  0
  7 24  1  0  0  0  0
  8 11  1  0  0  0  0
  8 12  1  0  0  0  0
  8 25  1  0  0  0  0
  9 11  1  0  0  0  0
 10 12  1  0  0  0  0
 13 14  2  0  0  0  0
 13 17  1  0  0  0  0
 14 21  1  0  0  0  0
 15 16  2  0  0  0  0
 15 22  1  0  0  0  0
 16 23  1  0  0  0  0
 17 27  2  0  0  0  0
 18 21  2  0  0  0  0
 18 27  1  0  0  0  0
 19 22  2  0  0  0  0
 19 28  1  0  0  0  0
 20 26  1  0  0  0  0
 20 27  1  0  0  0  0
 23 28  2  0  0  0  0
 24 26  1  0  0  0  0
 25 28  1  0  0  0  0
  6 29  1  0  0  0  0
  6 30  1  0  0  0  0
  9 31  1  0  0  0  0
  9 32  1  0  0  0  0
 10 33  1  0  0  0  0
 10 34  1  0  0  0  0
 11 35  1  0  0  0  0
 11 36  1  0  0  0  0
 12 37  1  0  0  0  0
 12 38  1  0  0  0  0
 13 39  1  0  0  0  0
 14 40  1  0  0  0  0
 15 41  1  0  0  0  0
 16 42  1  0  0  0  0
 17 43  1  0  0  0  0
 18 44  1  0  0  0  0
 19 45  1  0  0  0  0
 20 46  1  0  0  0  0
 20 47  1  0  0  0  0
 26 48  1  0  0  0  0
M  END
> <pdb_id>
3SFF

> <uniprot_id>
Q9BY41

> <usmiles>
Clc1cc(ccc1)C[C@@H](N)C(=O)N2CCN(C(=O)c3c(F)ccc(F)c3)CC2

$$$$
0DJ_A_800
          07192423483D 1   1.00000     0.00000     0
            
 32 34  0  0  0  0            999 V2000
    8.6340    1.4300   31.7770 O   0  0  0  0  0  0  0  0  0  0  0  0
   13.5720   -5.0990   38.3330 O   0  0  0  0  0  0  0  0  0  0  0  0
   13.5260   -7.2330   37.9890 N   0  0  0  0  0  0  0  0  0  0  0  0
   12.0020   -1.1730   33.3660 N   0  0  0  0  0  0  0  0  0  0  0  0
   10.5670    0.4820   32.4260 N   0  0  0  0  0  0  0  0  0  0  0  0
    8.6860   -0.5320   32.8940 N   0  0  0  0  0  0  0  0  0  0  0  0
    7.2820   -0.8510   32.9690 C   0  0  0  0  0  0  0  0  0  0  0  0
   12.0670   -2.3290   33.9800 C   0  0  0  0  0  0  0  0  0  0  0  0
   10.4100   -6.6720   35.1940 C   0  0  0  0  0  0  0  0  0  0  0  0
   11.3490   -6.8370   36.1880 C   0  0  0  0  0  0  0  0  0  0  0  0
   10.2910   -5.4360   34.5870 C   0  0  0  0  0  0  0  0  0  0  0  0
    9.6940   -2.5070   33.9740 C   0  0  0  0  0  0  0  0  0  0  0  0
   12.0380   -4.5670   35.9630 C   0  0  0  0  0  0  0  0  0  0  0  0
    9.2600    0.5000   32.3380 C   0  0  0  0  0  0  0  0  0  0  0  0
   13.1620   -6.0130   37.6950 C   0  0  0  0  0  0  0  0  0  0  0  0
   10.8420   -0.6340   33.0460 C   0  0  0  0  0  0  0  0  0  0  0  0
    9.6560   -1.2920   33.3250 C   0  0  0  0  0  0  0  0  0  0  0  0
   10.9470   -3.0460   34.3070 C   0  0  0  0  0  0  0  0  0  0  0  0
   12.1600   -5.7970   36.5740 C   0  0  0  0  0  0  0  0  0  0  0  0
   11.0900   -4.3680   34.9840 C   0  0  0  0  0  0  0  0  0  0  0  0
   13.1799   -8.0015   37.4508 H   0  0  0  0  0  0  0  0  0  0  0  0
   14.1507   -7.3982   38.7522 H   0  0  0  0  0  0  0  0  0  0  0  0
   11.2112    1.1702   32.0924 H   0  0  0  0  0  0  0  0  0  0  0  0
    7.1618   -1.7129   33.4617 H   0  0  0  0  0  0  0  0  0  0  0  0
    6.7996   -0.1206   33.4525 H   0  0  0  0  0  0  0  0  0  0  0  0
    6.9107   -0.9408   32.0448 H   0  0  0  0  0  0  0  0  0  0  0  0
   12.9647   -2.7000   34.2177 H   0  0  0  0  0  0  0  0  0  0  0  0
    9.8243   -7.4335   34.9162 H   0  0  0  0  0  0  0  0  0  0  0  0
   11.4419   -7.7265   36.6353 H   0  0  0  0  0  0  0  0  0  0  0  0
    9.6230   -5.3077   33.8540 H   0  0  0  0  0  0  0  0  0  0  0  0
    8.8502   -2.9927   34.2021 H   0  0  0  0  0  0  0  0  0  0  0  0
   12.6408   -3.8158   36.2320 H   0  0  0  0  0  0  0  0  0  0  0  0
  1 14  2  0  0  0  0
  2 15  2  0  0  0  0
  3 15  1  0  0  0  0
  4  8  1  0  0  0  0
  4 16  2  0  0  0  0
  5 14  1  0  0  0  0
  5 16  1  0  0  0  0
  6  7  1  0  0  0  0
  6 14  1  0  0  0  0
  6 17  1  0  0  0  0
  8 18  2  0  0  0  0
  9 10  1  0  0  0  0
  9 11  2  0  0  0  0
 10 19  2  0  0  0  0
 11 20  1  0  0  0  0
 12 17  2  0  0  0  0
 12 18  1  0  0  0  0
 13 19  1  0  0  0  0
 13 20  2  0  0  0  0
 15 19  1  0  0  0  0
 16 17  1  0  0  0  0
 18 20  1  0  0  0  0
  3 21  1  0  0  0  0
  3 22  1  0  0  0  0
  5 23  1  0  0  0  0
  7 24  1  0  0  0  0
  7 25  1  0  0  0  0
  7 26  1  0  0  0  0
  8 27  1  0  0  0  0
  9 28  1  0  0  0  0
 10 29  1  0  0  0  0
 11 30  1  0  0  0  0
 12 31  1  0  0  0  0
 13 32  1  0  0  0  0
M  END
> <pdb_id>
3UWO

> <uniprot_id>
Q9HZN8

> <usmiles>
O=C1N(c2c(ncc(c3cc(ccc3)C(=O)N)c2)N1)C

$$$$
0DN_A_800
          07192423483D 1   1.00000     0.00000     0
            
 30 31  0  0  0  0            999 V2000
    8.6404   -5.3839   34.8840 F   0  0  0  0  0  0  0  0  0  0  0  0
   12.6853   -0.9909   33.2351 O   0  0  0  0  0  0  0  0  0  0  0  0
    8.8553    1.1826   32.1172 O   0  0  0  0  0  0  0  0  0  0  0  0
   12.7157   -5.3245   36.0767 O   0  0  0  0  0  0  0  0  0  0  0  0
   10.9981   -4.2494   33.6041 O   0  0  0  0  0  0  0  0  0  0  0  0
   10.8007    0.1544   32.6746 N   0  0  0  0  0  0  0  0  0  0  0  0
   10.6817   -1.9771   33.7790 N   0  0  0  0  0  0  0  0  0  0  0  0
    7.1379   -0.9316   33.1670 C   0  0  0  0  0  0  0  0  0  0  0  0
    9.6202   -6.1043   34.2533 C   0  0  0  0  0  0  0  0  0  0  0  0
    9.3274   -1.9775   33.7365 C   0  0  0  0  0  0  0  0  0  0  0  0
   11.2202   -3.4596   35.8288 C   0  0  0  0  0  0  0  0  0  0  0  0
   11.4317   -0.9118   33.2120 C   0  0  0  0  0  0  0  0  0  0  0  0
    9.4459    0.2036   32.6195 C   0  0  0  0  0  0  0  0  0  0  0  0
   11.4111   -3.1166   34.3371 C   0  0  1  0  0  0  0  0  0  0  0  0
   11.3355   -4.9787   35.8478 C   0  0  1  0  0  0  0  0  0  0  0  0
   10.9722   -5.4088   34.4234 C   0  0  2  0  0  0  0  0  0  0  0  0
    8.6445   -0.9118   33.1929 C   0  0  0  0  0  0  0  0  0  0  0  0
   12.8118   -6.3197   36.0926 H   0  0  0  0  0  0  0  0  0  0  0  0
   11.3381    0.9164   32.3132 H   0  0  0  0  0  0  0  0  0  0  0  0
    6.8007   -0.0910   32.7430 H   0  0  0  0  0  0  0  0  0  0  0  0
    6.8239   -1.7205   32.6388 H   0  0  0  0  0  0  0  0  0  0  0  0
    6.7893   -0.9963   34.1020 H   0  0  0  0  0  0  0  0  0  0  0  0
    9.4043   -6.1752   33.2795 H   0  0  0  0  0  0  0  0  0  0  0  0
    9.6664   -7.0203   34.6520 H   0  0  0  0  0  0  0  0  0  0  0  0
    8.8198   -2.7574   34.1026 H   0  0  0  0  0  0  0  0  0  0  0  0
   10.3223   -3.1630   36.1538 H   0  0  0  0  0  0  0  0  0  0  0  0
   11.9334   -3.0379   36.3887 H   0  0  0  0  0  0  0  0  0  0  0  0
   12.3870   -2.9752   34.1710 H   0  0  0  0  0  0  0  0  0  0  0  0
   10.7295   -5.3907   36.5283 H   0  0  0  0  0  0  0  0  0  0  0  0
   11.6832   -6.0325   34.0984 H   0  0  0  0  0  0  0  0  0  0  0  0
  1  9  1  0  0  0  0
  2 12  2  0  0  0  0
  3 13  2  0  0  0  0
  4 15  1  0  0  0  0
  5 14  1  0  0  0  0
  5 16  1  0  0  0  0
  6 12  1  0  0  0  0
  6 13  1  0  0  0  0
  7 10  1  0  0  0  0
  7 12  1  0  0  0  0
  7 14  1  0  0  0  0
  8 17  1  0  0  0  0
  9 16  1  0  0  0  0
 10 17  2  0  0  0  0
 11 14  1  0  0  0  0
 11 15  1  0  0  0  0
 13 17  1  0  0  0  0
 15 16  1  0  0  0  0
  4 18  1  0  0  0  0
  6 19  1  0  0  0  0
  8 20  1  0  0  0  0
  8 21  1  0  0  0  0
  8 22  1  0  0  0  0
  9 23  1  0  0  0  0
  9 24  1  0  0  0  0
 10 25  1  0  0  0  0
 11 26  1  0  0  0  0
 11 27  1  0  0  0  0
 14 28  1  0  0  0  0
 15 29  1  0  0  0  0
 16 30  1  0  0  0  0
M  END
> <pdb_id>
3UXM

> <uniprot_id>
Q9HZN8

> <usmiles>
FC[C@H]1O[C@@H](N2C(=O)NC(=O)C(=C2)C)C[C@@H]1O

$$$$
0F1_A_402
          07192423263D 1   1.00000     0.00000     0
            
 18 19  0  0  0  0            999 V2000
   -9.4670  -32.8480   21.3610 Cl  0  0  0  0  0  0  0  0  0  0  0  0
  -10.4320  -30.1040   14.7930 Cl  0  0  0  0  0  0  0  0  0  0  0  0
   -7.6360  -33.1590   16.1990 S   0  0  0  0  0  0  0  0  0  0  0  0
   -6.9040  -32.7620   13.2130 O   0  0  0  0  0  0  0  0  0  0  0  0
   -8.5940  -31.4530   12.7310 O   0  0  0  0  0  0  0  0  0  0  0  0
  -10.3520  -31.4200   19.2320 C   0  0  0  0  0  0  0  0  0  0  0  0
  -10.4040  -31.0090   17.9160 C   0  0  0  0  0  0  0  0  0  0  0  0
   -8.5410  -33.0050   18.7590 C   0  0  0  0  0  0  0  0  0  0  0  0
   -9.4400  -32.3910   19.6370 C   0  0  0  0  0  0  0  0  0  0  0  0
   -8.5710  -32.6230   17.4340 C   0  0  0  0  0  0  0  0  0  0  0  0
   -9.3720  -31.3420   15.5910 C   0  0  0  0  0  0  0  0  0  0  0  0
   -7.9210  -32.1240   13.5510 C   0  0  0  0  0  0  0  0  0  0  0  0
   -8.2960  -32.1890   14.9880 C   0  0  0  0  0  0  0  0  0  0  0  0
   -9.5310  -31.6000   17.0340 C   0  0  0  0  0  0  0  0  0  0  0  0
   -6.3928  -33.2857   13.8945 H   0  0  0  0  0  0  0  0  0  0  0  0
  -10.9755  -31.0165   19.9016 H   0  0  0  0  0  0  0  0  0  0  0  0
  -11.0514  -30.3086   17.6156 H   0  0  0  0  0  0  0  0  0  0  0  0
   -7.8971  -33.6988   19.0815 H   0  0  0  0  0  0  0  0  0  0  0  0
  1  9  1  0  0  0  0
  2 11  1  0  0  0  0
  3 10  1  0  0  0  0
  3 13  1  0  0  0  0
  4 12  1  0  0  0  0
  5 12  2  0  0  0  0
  6  7  1  0  0  0  0
  6  9  2  0  0  0  0
  7 14  2  0  0  0  0
  8  9  1  0  0  0  0
  8 10  2  0  0  0  0
 10 14  1  0  0  0  0
 11 13  2  0  0  0  0
 11 14  1  0  0  0  0
 12 13  1  0  0  0  0
  4 15  1  0  0  0  0
  6 16  1  0  0  0  0
  7 17  1  0  0  0  0
  8 18  1  0  0  0  0
M  END
> <pdb_id>
4E00

> <uniprot_id>
Q00972

> <usmiles>
Clc1cc2SC(=C(Cl)c2cc1)C(=O)O

$$$$
0F3_A_800
          07192416293D 1   1.00000     0.00000     0
            
 24 24  0  0  0  0            999 V2000
   -2.6180    6.2127   13.2184 S   0  0  0  0  0  0  0  0  0  0  0  0
   -5.8939    0.9865   16.8194 S   0  0  0  0  0  0  0  0  0  0  0  0
   -1.6911    6.2995   14.3149 O   0  0  0  0  0  0  0  0  0  0  0  0
   -2.7823    7.3687   12.3945 O   0  0  0  0  0  0  0  0  0  0  0  0
   -7.3375    0.9672   16.7299 O   0  0  0  0  0  0  0  0  0  0  0  0
   -5.3681    1.0713   18.1561 O   0  0  0  0  0  0  0  0  0  0  0  0
   -2.2179    4.9835   12.2881 N   0  0  0  0  0  0  0  0  0  0  0  0
   -5.2816   -0.2890   16.0958 N   0  0  0  0  0  0  0  0  0  0  0  0
   -4.0831    5.9173   13.8518 N   0  0  0  0  0  0  0  0  0  0  0  0
   -3.9388    2.5922   15.6646 C   0  0  0  0  0  0  0  0  0  0  0  0
   -6.2672    3.3919   15.5167 C   0  0  0  0  0  0  0  0  0  0  0  0
   -3.5176    3.7501   14.9653 C   0  0  0  0  0  0  0  0  0  0  0  0
   -5.8280    4.5329   14.8243 C   0  0  0  0  0  0  0  0  0  0  0  0
   -5.3236    2.4266   15.9368 C   0  0  0  0  0  0  0  0  0  0  0  0
   -4.4672    4.7265   14.5441 C   0  0  0  0  0  0  0  0  0  0  0  0
   -2.8605    4.9203   11.5245 H   0  0  0  0  0  0  0  0  0  0  0  0
   -1.2925    5.1205   11.9345 H   0  0  0  0  0  0  0  0  0  0  0  0
   -4.2842   -0.2644   16.1643 H   0  0  0  0  0  0  0  0  0  0  0  0
   -5.6255   -1.1188   16.5353 H   0  0  0  0  0  0  0  0  0  0  0  0
   -4.7772    6.6298   13.7488 H   0  0  0  0  0  0  0  0  0  0  0  0
   -3.2750    1.9053   15.9607 H   0  0  0  0  0  0  0  0  0  0  0  0
   -7.2398    3.2637   15.7108 H   0  0  0  0  0  0  0  0  0  0  0  0
   -2.5469    3.8836   14.7656 H   0  0  0  0  0  0  0  0  0  0  0  0
   -6.4947    5.2165   14.5272 H   0  0  0  0  0  0  0  0  0  0  0  0
  1  3  2  0  0  0  0
  1  4  2  0  0  0  0
  1  7  1  0  0  0  0
  1  9  1  0  0  0  0
  2  5  2  0  0  0  0
  2  6  2  0  0  0  0
  2  8  1  0  0  0  0
  2 14  1  0  0  0  0
  9 15  1  0  0  0  0
 10 12  1  0  0  0  0
 10 14  2  0  0  0  0
 11 13  2  0  0  0  0
 11 14  1  0  0  0  0
 12 15  2  0  0  0  0
 13 15  1  0  0  0  0
  7 16  1  0  0  0  0
  7 17  1  0  0  0  0
  8 18  1  0  0  0  0
  8 19  1  0  0  0  0
  9 20  1  0  0  0  0
 10 21  1  0  0  0  0
 11 22  1  0  0  0  0
 12 23  1  0  0  0  0
 13 24  1  0  0  0  0
M  END
> <pdb_id>
3V5G

> <uniprot_id>
P00918

> <usmiles>
S(=O)(=O)(Nc1ccc(S(=O)(=O)N)cc1)N

$$$$
0F5_A_555
          07192419233D 1   1.00000     0.00000     0
            
 49 52  0  0  0  0            999 V2000
  -17.6766   35.1955    0.2644 S   0  0  0  0  0  0  0  0  0  0  0  0
  -16.0736   33.1063    0.0225 O   0  0  0  0  0  0  0  0  0  0  0  0
  -16.0661   35.8374    3.5697 O   0  0  0  0  0  0  0  0  0  0  0  0
  -14.2681   33.7048   -2.8039 N   0  0  0  0  0  0  0  0  0  0  0  0
  -20.9551   39.4437   -4.2044 N   0  0  0  0  0  0  0  0  0  0  0  0
  -15.8454   34.3169    1.9486 N   0  0  0  0  0  0  0  0  0  0  0  0
  -18.5921   36.8344   -4.6358 N   0  0  0  0  0  0  0  0  0  0  0  0
  -19.4044   37.7700   -2.7187 N   0  0  0  0  0  0  0  0  0  0  0  0
  -20.1445   38.5274   -4.9146 C   0  0  0  0  0  0  0  0  0  0  0  0
  -20.9945   39.4847   -2.8376 C   0  0  0  0  0  0  0  0  0  0  0  0
  -20.9669   39.5146    1.5653 C   0  0  0  0  0  0  0  0  0  0  0  0
  -16.6681   33.7320   -3.6726 C   0  0  0  0  0  0  0  0  0  0  0  0
  -15.5352   35.6824   -2.9142 C   0  0  0  0  0  0  0  0  0  0  0  0
  -17.7248   34.5361   -4.4869 C   0  0  0  0  0  0  0  0  0  0  0  0
  -16.3462   36.5469   -3.8967 C   0  0  0  0  0  0  0  0  0  0  0  0
  -20.0266   38.7583    2.2793 C   0  0  0  0  0  0  0  0  0  0  0  0
  -21.0434   39.4613    0.1495 C   0  0  0  0  0  0  0  0  0  0  0  0
  -18.1021   37.2039    2.2395 C   0  0  0  0  0  0  0  0  0  0  0  0
  -19.2087   37.9040    0.1297 C   0  0  0  0  0  0  0  0  0  0  0  0
  -16.4118   34.0221    0.7580 C   0  0  0  0  0  0  0  0  0  0  0  0
  -16.4628   35.4135    2.4639 C   0  0  0  0  0  0  0  0  0  0  0  0
  -17.4993   36.0291    1.7437 C   0  0  0  0  0  0  0  0  0  0  0  0
  -19.3830   37.7061   -4.0763 C   0  0  0  0  0  0  0  0  0  0  0  0
  -15.2702   34.4400   -3.6028 C   0  0  0  0  0  0  0  0  0  0  0  0
  -17.7594   35.9365   -3.8401 C   0  0  0  0  0  0  0  0  0  0  0  0
  -20.1941   38.6485   -2.0463 C   0  0  0  0  0  0  0  0  0  0  0  0
  -19.1283   37.9559    1.5145 C   0  0  0  0  0  0  0  0  0  0  0  0
  -20.1944   38.6577   -0.6063 C   0  0  0  0  0  0  0  0  0  0  0  0
  -13.4058   34.2113   -2.8029 H   0  0  0  0  0  0  0  0  0  0  0  0
  -14.5977   33.6060   -1.8650 H   0  0  0  0  0  0  0  0  0  0  0  0
  -15.0968   33.8127    2.3792 H   0  0  0  0  0  0  0  0  0  0  0  0
  -18.5544   36.7791   -5.6336 H   0  0  0  0  0  0  0  0  0  0  0  0
  -20.1186   38.4723   -5.9127 H   0  0  0  0  0  0  0  0  0  0  0  0
  -21.6128   40.1304   -2.3894 H   0  0  0  0  0  0  0  0  0  0  0  0
  -21.5990   40.1059    2.0661 H   0  0  0  0  0  0  0  0  0  0  0  0
  -16.5497   32.8369   -4.1026 H   0  0  0  0  0  0  0  0  0  0  0  0
  -17.0099   33.6114   -2.7406 H   0  0  0  0  0  0  0  0  0  0  0  0
  -16.0639   35.5128   -2.0825 H   0  0  0  0  0  0  0  0  0  0  0  0
  -14.6773   36.1381   -2.6768 H   0  0  0  0  0  0  0  0  0  0  0  0
  -18.6221   34.0991   -4.4239 H   0  0  0  0  0  0  0  0  0  0  0  0
  -17.4521   34.6005   -5.4468 H   0  0  0  0  0  0  0  0  0  0  0  0
  -15.9684   36.4863   -4.8206 H   0  0  0  0  0  0  0  0  0  0  0  0
  -16.3588   37.5030   -3.6039 H   0  0  0  0  0  0  0  0  0  0  0  0
  -19.9874   38.7803    3.2783 H   0  0  0  0  0  0  0  0  0  0  0  0
  -21.7285   40.0183   -0.3199 H   0  0  0  0  0  0  0  0  0  0  0  0
  -17.8129   37.5418    3.1351 H   0  0  0  0  0  0  0  0  0  0  0  0
  -18.5646   37.3271   -0.3726 H   0  0  0  0  0  0  0  0  0  0  0  0
  -14.9218   34.6177   -4.5232 H   0  0  0  0  0  0  0  0  0  0  0  0
  -18.0888   35.8861   -2.8972 H   0  0  0  0  0  0  0  0  0  0  0  0
  1 20  1  0  0  0  0
  1 22  1  0  0  0  0
  2 20  2  0  0  0  0
  3 21  2  0  0  0  0
  4 24  1  0  0  0  0
  5  9  1  0  0  0  0
  5 10  2  0  0  0  0
  6 20  1  0  0  0  0
  6 21  1  0  0  0  0
  7 23  1  0  0  0  0
  7 25  1  0  0  0  0
  8 23  1  0  0  0  0
  8 26  2  0  0  0  0
  9 23  2  0  0  0  0
 10 26  1  0  0  0  0
 11 16  1  0  0  0  0
 11 17  2  0  0  0  0
 12 14  1  0  0  0  0
 12 24  1  0  0  0  0
 13 15  1  0  0  0  0
 13 24  1  0  0  0  0
 14 25  1  0  0  0  0
 15 25  1  0  0  0  0
 16 27  2  0  0  0  0
 17 28  1  0  0  0  0
 18 22  2  0  0  0  0
 18 27  1  0  0  0  0
 19 27  1  0  0  0  0
 19 28  2  0  0  0  0
 21 22  1  0  0  0  0
 26 28  1  0  0  0  0
  4 29  1  0  0  0  0
  4 30  1  0  0  0  0
  6 31  1  0  0  0  0
  7 32  1  0  0  0  0
  9 33  1  0  0  0  0
 10 34  1  0  0  0  0
 11 35  1  0  0  0  0
 12 36  1  0  0  0  0
 12 37  1  0  0  0  0
 13 38  1  0  0  0  0
 13 39  1  0  0  0  0
 14 40  1  0  0  0  0
 14 41  1  0  0  0  0
 15 42  1  0  0  0  0
 15 43  1  0  0  0  0
 16 44  1  0  0  0  0
 17 45  1  0  0  0  0
 18 46  1  0  0  0  0
 19 47  1  0  0  0  0
 24 48  1  0  0  0  0
 25 49  1  0  0  0  0
M  END
> <pdb_id>
3VBQ

> <uniprot_id>
P11309

> <usmiles>
S1/C(/C(=O)NC1=O)=C\c2cc(c3nc(NC4CCC(N)CC4)cnc3)ccc2

$$$$
0F9_A_1
          07192419233D 1   1.00000     0.00000     0
            
 20 21  0  0  0  0            999 V2000
  -21.9402   39.8373   -0.2507 Cl  0  0  0  0  0  0  0  0  0  0  0  0
  -17.8405   36.3264    2.1615 O   0  0  0  0  0  0  0  0  0  0  0  0
  -16.9430   34.6727   -1.2771 N   0  0  0  0  0  0  0  0  0  0  0  0
  -17.4330   35.3824   -0.1024 N   0  0  0  0  0  0  0  0  0  0  0  0
  -17.7164   35.0697   -2.3106 C   0  0  0  0  0  0  0  0  0  0  0  0
  -20.5131   38.9237    1.8793 C   0  0  0  0  0  0  0  0  0  0  0  0
  -19.5293   38.0802    2.3994 C   0  0  0  0  0  0  0  0  0  0  0  0
  -18.6079   36.0012   -1.8660 C   0  0  0  0  0  0  0  0  0  0  0  0
  -20.0709   37.8875   -0.2509 C   0  0  0  0  0  0  0  0  0  0  0  0
  -20.7680   38.7927    0.5330 C   0  0  0  0  0  0  0  0  0  0  0  0
  -18.8105   37.1882    1.6255 C   0  0  0  0  0  0  0  0  0  0  0  0
  -18.4176   36.1866   -0.5297 C   0  0  0  0  0  0  0  0  0  0  0  0
  -19.0873   37.0609    0.2762 C   0  0  0  0  0  0  0  0  0  0  0  0
  -17.3449   35.6973    1.5627 H   0  0  0  0  0  0  0  0  0  0  0  0
  -17.1009   35.2884    0.8361 H   0  0  0  0  0  0  0  0  0  0  0  0
  -17.6468   34.7347   -3.2502 H   0  0  0  0  0  0  0  0  0  0  0  0
  -21.0027   39.5829    2.4502 H   0  0  0  0  0  0  0  0  0  0  0  0
  -19.3354   38.1234    3.3795 H   0  0  0  0  0  0  0  0  0  0  0  0
  -19.2888   36.4706   -2.4281 H   0  0  0  0  0  0  0  0  0  0  0  0
  -20.2826   37.8276   -1.2264 H   0  0  0  0  0  0  0  0  0  0  0  0
  1 10  1  0  0  0  0
  2 11  1  0  0  0  0
  3  4  1  0  0  0  0
  3  5  2  0  0  0  0
  4 12  1  0  0  0  0
  5  8  1  0  0  0  0
  6  7  1  0  0  0  0
  6 10  2  0  0  0  0
  7 11  2  0  0  0  0
  8 12  2  0  0  0  0
  9 10  1  0  0  0  0
  9 13  2  0  0  0  0
 11 13  1  0  0  0  0
 12 13  1  0  0  0  0
  2 14  1  0  0  0  0
  4 15  1  0  0  0  0
  5 16  1  0  0  0  0
  6 17  1  0  0  0  0
  7 18  1  0  0  0  0
  8 19  1  0  0  0  0
  9 20  1  0  0  0  0
M  END
> <pdb_id>
3VBT

> <uniprot_id>
P11309

> <usmiles>
Clc1cc(c(O)cc1)C=2NN=CC2

$$$$
0FK_A_1
          07192419233D 1   1.00000     0.00000     0
            
 22 23  0  0  0  0            999 V2000
  -16.1996   34.5143    1.8761 O   0  0  0  0  0  0  0  0  0  0  0  0
  -18.7880   36.1602   -1.8116 O   0  0  0  0  0  0  0  0  0  0  0  0
  -15.7106   35.7258    3.9105 N   0  0  0  0  0  0  0  0  0  0  0  0
  -17.9899   36.1585    0.9590 N   0  0  0  0  0  0  0  0  0  0  0  0
  -21.0294   38.7335   -0.4680 C   0  0  0  0  0  0  0  0  0  0  0  0
  -20.3866   37.8698   -1.4101 C   0  0  0  0  0  0  0  0  0  0  0  0
  -20.6578   38.7713    0.8819 C   0  0  0  0  0  0  0  0  0  0  0  0
  -18.2508   37.1006    3.1381 C   0  0  0  0  0  0  0  0  0  0  0  0
  -19.3063   37.9430    2.6753 C   0  0  0  0  0  0  0  0  0  0  0  0
  -16.5322   35.3552    2.7188 C   0  0  0  0  0  0  0  0  0  0  0  0
  -19.4019   37.0180   -0.9115 C   0  0  0  0  0  0  0  0  0  0  0  0
  -17.6064   36.1667    2.2748 C   0  0  0  0  0  0  0  0  0  0  0  0
  -19.6609   37.8783    1.3244 C   0  0  0  0  0  0  0  0  0  0  0  0
  -18.9935   37.0073    0.4603 C   0  0  0  0  0  0  0  0  0  0  0  0
  -18.0762   35.5319   -1.4977 H   0  0  0  0  0  0  0  0  0  0  0  0
  -16.0437   36.4167    4.5522 H   0  0  0  0  0  0  0  0  0  0  0  0
  -14.8277   35.2830    4.0664 H   0  0  0  0  0  0  0  0  0  0  0  0
  -21.7679   39.3294   -0.7835 H   0  0  0  0  0  0  0  0  0  0  0  0
  -20.6317   37.8768   -2.3796 H   0  0  0  0  0  0  0  0  0  0  0  0
  -21.0883   39.4148    1.5149 H   0  0  0  0  0  0  0  0  0  0  0  0
  -17.9561   37.1671    4.0914 H   0  0  0  0  0  0  0  0  0  0  0  0
  -19.7796   38.5632    3.3009 H   0  0  0  0  0  0  0  0  0  0  0  0
  1 10  2  0  0  0  0
  2 11  1  0  0  0  0
  3 10  1  0  0  0  0
  4 12  2  0  0  0  0
  4 14  1  0  0  0  0
  5  6  2  0  0  0  0
  5  7  1  0  0  0  0
  6 11  1  0  0  0  0
  7 13  2  0  0  0  0
  8  9  2  0  0  0  0
  8 12  1  0  0  0  0
  9 13  1  0  0  0  0
 10 12  1  0  0  0  0
 11 14  2  0  0  0  0
 13 14  1  0  0  0  0
  2 15  1  0  0  0  0
  3 16  1  0  0  0  0
  3 17  1  0  0  0  0
  5 18  1  0  0  0  0
  6 19  1  0  0  0  0
  7 20  1  0  0  0  0
  8 21  1  0  0  0  0
  9 22  1  0  0  0  0
M  END
> <pdb_id>
3VBV

> <uniprot_id>
P11309

> <usmiles>
O=C(N)c1nc2c(O)cccc2cc1

$$$$
0FO_A_1
          07192419233D 1   1.00000     0.00000     0
            
 18 19  0  0  0  0            999 V2000
  -21.8861   39.8124   -0.6122 Br  0  0  0  0  0  0  0  0  0  0  0  0
  -16.6570   35.0757    2.7853 O   0  0  0  0  0  0  0  0  0  0  0  0
  -18.4023   35.7591   -1.4039 O   0  0  0  0  0  0  0  0  0  0  0  0
  -18.1976   36.6642    2.4939 O   0  0  0  0  0  0  0  0  0  0  0  0
  -20.6942   39.1107    1.7058 C   0  0  0  0  0  0  0  0  0  0  0  0
  -19.8271   38.3294    2.4286 C   0  0  0  0  0  0  0  0  0  0  0  0
  -17.4807   35.2860    0.6505 C   0  0  0  0  0  0  0  0  0  0  0  0
  -20.0504   37.8401   -0.3384 C   0  0  0  0  0  0  0  0  0  0  0  0
  -20.8116   38.7939    0.3542 C   0  0  0  0  0  0  0  0  0  0  0  0
  -17.4200   35.6652    1.9992 C   0  0  0  0  0  0  0  0  0  0  0  0
  -18.3277   36.0616   -0.1333 C   0  0  0  0  0  0  0  0  0  0  0  0
  -19.1088   37.3591    1.7559 C   0  0  0  0  0  0  0  0  0  0  0  0
  -19.1448   37.0992    0.3914 C   0  0  0  0  0  0  0  0  0  0  0  0
  -18.9975   36.2873   -2.0095 H   0  0  0  0  0  0  0  0  0  0  0  0
  -21.2089   39.8597    2.1230 H   0  0  0  0  0  0  0  0  0  0  0  0
  -19.7184   38.4587    3.4142 H   0  0  0  0  0  0  0  0  0  0  0  0
  -16.9564   34.5185    0.2816 H   0  0  0  0  0  0  0  0  0  0  0  0
  -20.1604   37.7029   -1.3228 H   0  0  0  0  0  0  0  0  0  0  0  0
  1  9  1  0  0  0  0
  2 10  2  0  0  0  0
  3 11  1  0  0  0  0
  4 10  1  0  0  0  0
  4 12  1  0  0  0  0
  5  6  1  0  0  0  0
  5  9  2  0  0  0  0
  6 12  2  0  0  0  0
  7 10  1  0  0  0  0
  7 11  2  0  0  0  0
  8  9  1  0  0  0  0
  8 13  2  0  0  0  0
 11 13  1  0  0  0  0
 12 13  1  0  0  0  0
  3 14  1  0  0  0  0
  5 15  1  0  0  0  0
  6 16  1  0  0  0  0
  7 17  1  0  0  0  0
  8 18  1  0  0  0  0
M  END
> <pdb_id>
3VBX

> <uniprot_id>
P11309

> <usmiles>
Brc1cc2c(OC(=O)C=C2O)cc1

$$$$
0FR_A_1
          07192419233D 1   1.00000     0.00000     0
            
 25 27  0  0  0  0            999 V2000
  -17.6587   36.3424    2.4612 O   0  0  0  0  0  0  0  0  0  0  0  0
  -16.1401   34.2142    1.5836 O   0  0  0  0  0  0  0  0  0  0  0  0
  -19.5947   37.2588   -1.5000 N   0  0  0  0  0  0  0  0  0  0  0  0
  -15.4092   33.4647    0.6503 C   0  0  0  0  0  0  0  0  0  0  0  0
  -15.7097   33.9173   -0.5751 C   0  0  0  0  0  0  0  0  0  0  0  0
  -21.2687   39.7482    0.7087 C   0  0  0  0  0  0  0  0  0  0  0  0
  -20.6168   39.3705    1.9139 C   0  0  0  0  0  0  0  0  0  0  0  0
  -18.6701   36.3856   -0.9696 C   0  0  0  0  0  0  0  0  0  0  0  0
  -16.5910   34.9044   -0.5251 C   0  0  0  0  0  0  0  0  0  0  0  0
  -20.9824   39.0403   -0.4786 C   0  0  0  0  0  0  0  0  0  0  0  0
  -19.7048   38.3150    1.8049 C   0  0  0  0  0  0  0  0  0  0  0  0
  -16.8539   35.1347    0.7522 C   0  0  0  0  0  0  0  0  0  0  0  0
  -17.7129   36.0578    1.2422 C   0  0  0  0  0  0  0  0  0  0  0  0
  -20.0860   38.0354   -0.4876 C   0  0  0  0  0  0  0  0  0  0  0  0
  -18.5679   36.6726    0.3606 C   0  0  0  0  0  0  0  0  0  0  0  0
  -19.4243   37.6995    0.6628 C   0  0  0  0  0  0  0  0  0  0  0  0
  -19.8612   37.3149   -2.4622 H   0  0  0  0  0  0  0  0  0  0  0  0
  -14.7744   32.7217    0.8622 H   0  0  0  0  0  0  0  0  0  0  0  0
  -15.3176   33.5552   -1.4207 H   0  0  0  0  0  0  0  0  0  0  0  0
  -21.9216   40.5056    0.7019 H   0  0  0  0  0  0  0  0  0  0  0  0
  -20.7982   39.8295    2.7837 H   0  0  0  0  0  0  0  0  0  0  0  0
  -18.1690   35.6762   -1.4653 H   0  0  0  0  0  0  0  0  0  0  0  0
  -16.9852   35.3868   -1.3073 H   0  0  0  0  0  0  0  0  0  0  0  0
  -21.4524   39.2887   -1.3256 H   0  0  0  0  0  0  0  0  0  0  0  0
  -19.2381   38.0071    2.6340 H   0  0  0  0  0  0  0  0  0  0  0  0
  1 13  2  0  0  0  0
  2  4  1  0  0  0  0
  2 12  1  0  0  0  0
  3  8  1  0  0  0  0
  3 14  1  0  0  0  0
  4  5  2  0  0  0  0
  5  9  1  0  0  0  0
  6  7  2  0  0  0  0
  6 10  1  0  0  0  0
  7 11  1  0  0  0  0
  8 15  2  0  0  0  0
  9 12  2  0  0  0  0
 10 14  2  0  0  0  0
 11 16  2  0  0  0  0
 12 13  1  0  0  0  0
 13 15  1  0  0  0  0
 14 16  1  0  0  0  0
 15 16  1  0  0  0  0
  3 17  1  0  0  0  0
  4 18  1  0  0  0  0
  5 19  1  0  0  0  0
  6 20  1  0  0  0  0
  7 21  1  0  0  0  0
  8 22  1  0  0  0  0
  9 23  1  0  0  0  0
 10 24  1  0  0  0  0
 11 25  1  0  0  0  0
M  END
> <pdb_id>
3VBY

> <uniprot_id>
P11309

> <usmiles>
O=C(C=1OC=CC1)C=2c3c(NC2)cccc3

$$$$
0GA_C_501
          07202401573D 1   1.00000     0.00000     0
            
 27 27  0  0  0  0            999 V2000
   42.4366  -55.0103   30.2511 O   0  0  0  0  0  0  0  0  0  0  0  0
   42.6908  -53.7580   32.0132 O   0  0  0  0  0  0  0  0  0  0  0  0
   43.0069  -53.1305   23.7637 O   0  0  0  0  0  0  0  0  0  0  0  0
   45.0909  -53.7956   23.4697 O   0  0  0  0  0  0  0  0  0  0  0  0
   41.8670  -52.8876   25.8720 O   0  0  0  0  0  0  0  0  0  0  0  0
   42.0932  -52.7573   28.6185 O   0  0  0  0  0  0  0  0  0  0  0  0
   41.8007  -50.1926   29.8726 C   0  0  0  0  0  0  0  0  0  0  0  0
   45.6580  -53.5361   27.7490 C   0  0  0  0  0  0  0  0  0  0  0  0
   42.0510  -51.4358   30.6698 C   0  0  0  0  0  0  0  0  0  0  0  0
   44.5270  -53.2647   28.5261 C   0  0  0  0  0  0  0  0  0  0  0  0
   45.5271  -53.6088   26.3528 C   0  0  0  0  0  0  0  0  0  0  0  0
   42.4125  -53.8761   30.8137 C   0  0  0  0  0  0  0  0  0  0  0  0
   44.1256  -53.4844   24.2149 C   0  0  0  0  0  0  0  0  0  0  0  0
   42.1538  -52.6385   30.0595 C   0  0  0  0  0  0  0  0  0  0  0  0
   43.2573  -53.0467   27.9116 C   0  0  0  0  0  0  0  0  0  0  0  0
   43.0647  -53.1438   26.4785 C   0  0  0  0  0  0  0  0  0  0  0  0
   44.2926  -53.4485   25.6874 C   0  0  0  0  0  0  0  0  0  0  0  0
   42.2094  -55.0920   29.2806 H   0  0  0  0  0  0  0  0  0  0  0  0
   42.2670  -52.8916   24.3926 H   0  0  0  0  0  0  0  0  0  0  0  0
   41.7822  -52.9679   24.8788 H   0  0  0  0  0  0  0  0  0  0  0  0
   41.7552  -49.4056   30.4879 H   0  0  0  0  0  0  0  0  0  0  0  0
   42.5449  -50.0611   29.2176 H   0  0  0  0  0  0  0  0  0  0  0  0
   40.9349  -50.2811   29.3801 H   0  0  0  0  0  0  0  0  0  0  0  0
   46.5483  -53.6765   28.1822 H   0  0  0  0  0  0  0  0  0  0  0  0
   42.1431  -51.3760   31.6637 H   0  0  0  0  0  0  0  0  0  0  0  0
   44.6088  -53.2231   29.5219 H   0  0  0  0  0  0  0  0  0  0  0  0
   46.3456  -53.7819   25.8050 H   0  0  0  0  0  0  0  0  0  0  0  0
  1 12  1  0  0  0  0
  2 12  2  0  0  0  0
  3 13  1  0  0  0  0
  4 13  2  0  0  0  0
  5 16  1  0  0  0  0
  6 14  1  0  0  0  0
  6 15  1  0  0  0  0
  7  9  1  0  0  0  0
  8 10  2  0  0  0  0
  8 11  1  0  0  0  0
  9 14  2  0  0  0  0
 10 15  1  0  0  0  0
 11 17  2  0  0  0  0
 12 14  1  0  0  0  0
 13 17  1  0  0  0  0
 15 16  2  0  0  0  0
 16 17  1  0  0  0  0
  1 18  1  0  0  0  0
  3 19  1  0  0  0  0
  5 20  1  0  0  0  0
  7 21  1  0  0  0  0
  7 22  1  0  0  0  0
  7 23  1  0  0  0  0
  8 24  1  0  0  0  0
  9 25  1  0  0  0  0
 10 26  1  0  0  0  0
 11 27  1  0  0  0  0
M  END
> <pdb_id>
3VEH

> <uniprot_id>
Q7D785

> <usmiles>
O=C(O)c1c(O)c(O/C(/C(=O)O)=C\C)ccc1

$$$$
0GW_A_705
          07202413473D 1   1.00000     0.00000     0
            
 31 33  0  0  0  0            999 V2000
   97.3298  108.4028   -9.7721 O   0  0  0  0  0  0  0  0  0  0  0  0
   96.7246  113.6339  -14.6105 O   0  0  0  0  0  0  0  0  0  0  0  0
   96.3956  107.4700  -11.6770 N   0  0  0  0  0  0  0  0  0  0  0  0
   96.0190  107.9750  -12.9187 N   0  0  0  0  0  0  0  0  0  0  0  0
   96.8779  109.6133  -11.6511 N   0  0  0  0  0  0  0  0  0  0  0  0
   96.4904  111.4530  -13.8224 N   0  0  0  0  0  0  0  0  0  0  0  0
   98.3098  115.1966  -13.7393 C   0  0  0  0  0  0  0  0  0  0  0  0
   97.4124  113.9998  -13.3977 C   0  0  0  0  0  0  0  0  0  0  0  0
   94.1701  111.2953  -18.2646 C   0  0  0  0  0  0  0  0  0  0  0  0
   94.6041  112.6219  -18.0799 C   0  0  0  0  0  0  0  0  0  0  0  0
   94.4231  110.3421  -17.2991 C   0  0  0  0  0  0  0  0  0  0  0  0
   95.3037  113.0091  -16.9609 C   0  0  0  0  0  0  0  0  0  0  0  0
   95.3548  109.7586  -15.1017 C   0  0  0  0  0  0  0  0  0  0  0  0
   96.9069  108.4877  -10.9226 C   0  0  0  0  0  0  0  0  0  0  0  0
   96.2555  112.3670  -14.7573 C   0  0  0  0  0  0  0  0  0  0  0  0
   96.3167  109.2531  -12.8781 C   0  0  0  0  0  0  0  0  0  0  0  0
   96.0504  110.1849  -13.9779 C   0  0  0  0  0  0  0  0  0  0  0  0
   95.1092  110.7003  -16.1304 C   0  0  0  0  0  0  0  0  0  0  0  0
   95.5556  112.0321  -15.9537 C   0  0  0  0  0  0  0  0  0  0  0  0
   96.3064  106.5178  -11.3851 H   0  0  0  0  0  0  0  0  0  0  0  0
   97.1925  110.5210  -11.3736 H   0  0  0  0  0  0  0  0  0  0  0  0
   98.8079  115.4840  -12.9212 H   0  0  0  0  0  0  0  0  0  0  0  0
   98.9613  114.9324  -14.4506 H   0  0  0  0  0  0  0  0  0  0  0  0
   97.7452  115.9533  -14.0689 H   0  0  0  0  0  0  0  0  0  0  0  0
   97.9682  113.2345  -13.0731 H   0  0  0  0  0  0  0  0  0  0  0  0
   96.7521  114.2554  -12.6915 H   0  0  0  0  0  0  0  0  0  0  0  0
   93.6774  111.0431  -19.0974 H   0  0  0  0  0  0  0  0  0  0  0  0
   94.3976  113.3025  -18.7829 H   0  0  0  0  0  0  0  0  0  0  0  0
   94.1180  109.3992  -17.4328 H   0  0  0  0  0  0  0  0  0  0  0  0
   95.6268  113.9498  -16.8567 H   0  0  0  0  0  0  0  0  0  0  0  0
   95.0366  108.8140  -15.1822 H   0  0  0  0  0  0  0  0  0  0  0  0
  1 14  2  0  0  0  0
  2  8  1  0  0  0  0
  2 15  1  0  0  0  0
  3  4  1  0  0  0  0
  3 14  1  0  0  0  0
  4 16  2  0  0  0  0
  5 14  1  0  0  0  0
  5 16  1  0  0  0  0
  6 15  1  0  0  0  0
  6 17  2  0  0  0  0
  7  8  1  0  0  0  0
  9 10  1  0  0  0  0
  9 11  2  0  0  0  0
 10 12  2  0  0  0  0
 11 18  1  0  0  0  0
 12 19  1  0  0  0  0
 13 17  1  0  0  0  0
 13 18  2  0  0  0  0
 15 19  2  0  0  0  0
 16 17  1  0  0  0  0
 18 19  1  0  0  0  0
  3 20  1  0  0  0  0
  5 21  1  0  0  0  0
  7 22  1  0  0  0  0
  7 23  1  0  0  0  0
  7 24  1  0  0  0  0
  8 25  1  0  0  0  0
  8 26  1  0  0  0  0
  9 27  1  0  0  0  0
 10 28  1  0  0  0  0
 11 29  1  0  0  0  0
 12 30  1  0  0  0  0
 13 31  1  0  0  0  0
M  END
> <pdb_id>
7N5X

> <uniprot_id>
Q06187

> <usmiles>
O=C1NN=C(N1)c2nc(OCC)c3c(c2)cccc3

$$$$
0GX_D_301
          07192422123D 1   1.00000     0.00000     0
            
 58 61  0  0  0  0            999 V2000
   33.2055   45.7485   -2.4524 Br  0  0  0  0  0  0  0  0  0  0  0  0
   32.7847   43.9647   -6.4092 S   0  0  0  0  0  0  0  0  0  0  0  0
   28.4445   37.2601   -4.5013 F   0  0  0  0  0  0  0  0  0  0  0  0
   29.5807   44.0792   -7.3476 O   0  0  0  0  0  0  0  0  0  0  0  0
   34.9294   45.0063   -5.0360 O   0  0  0  0  0  0  0  0  0  0  0  0
   29.5453   37.2624  -10.7457 N   0  0  0  0  0  0  0  0  0  0  0  0
   29.2172   42.5154   -5.8219 N   0  0  0  0  0  0  0  0  0  0  0  0
   35.2813   47.9806   -6.2859 C   0  0  0  0  0  0  0  0  0  0  0  0
   30.1958   44.7337   -3.4483 C   0  0  0  0  0  0  0  0  0  0  0  0
   35.4977   45.4577   -6.2892 C   0  0  0  0  0  0  0  0  0  0  0  0
   30.5488   36.8505   -9.7540 C   0  0  0  0  0  0  0  0  0  0  0  0
   34.8214   46.6758   -6.9323 C   0  0  0  0  0  0  0  0  0  0  0  0
   29.2969   35.9151   -6.2666 C   0  0  0  0  0  0  0  0  0  0  0  0
   27.0994   41.9391   -5.0782 C   0  0  0  0  0  0  0  0  0  0  0  0
   28.1221   41.7111   -3.9408 C   0  0  0  0  0  0  0  0  0  0  0  0
   29.8163   35.8208   -7.5589 C   0  0  0  0  0  0  0  0  0  0  0  0
   28.1487   40.6411   -6.9707 C   0  0  0  0  0  0  0  0  0  0  0  0
   29.8473   40.2803   -5.0933 C   0  0  0  0  0  0  0  0  0  0  0  0
   29.6159   38.2182   -7.8193 C   0  0  0  0  0  0  0  0  0  0  0  0
   33.6055   44.6910   -5.1071 C   0  0  0  0  0  0  0  0  0  0  0  0
   32.6898   44.9464   -4.0918 C   0  0  0  0  0  0  0  0  0  0  0  0
   31.2645   43.9490   -5.6661 C   0  0  0  0  0  0  0  0  0  0  0  0
   28.9406   37.1620   -5.7508 C   0  0  0  0  0  0  0  0  0  0  0  0
   29.9626   43.5013   -6.3295 C   0  0  0  0  0  0  0  0  0  0  0  0
   27.9407   42.0404   -6.3623 C   0  0  2  0  0  0  0  0  0  0  0  0
   29.4968   41.7111   -4.6314 C   0  0  1  0  0  0  0  0  0  0  0  0
   29.9694   36.9689   -8.3391 C   0  0  0  0  0  0  0  0  0  0  0  0
   28.6929   39.6629   -5.9086 C   0  0  2  0  0  0  0  0  0  0  0  0
   31.3767   44.5549   -4.4081 C   0  0  0  0  0  0  0  0  0  0  0  0
   29.1028   38.3149   -6.5192 C   0  0  0  0  0  0  0  0  0  0  0  0
   29.9319   37.1819  -11.6644 H   0  0  0  0  0  0  0  0  0  0  0  0
   28.7405   36.6737  -10.6699 H   0  0  0  0  0  0  0  0  0  0  0  0
   34.8223   48.7514   -6.7278 H   0  0  0  0  0  0  0  0  0  0  0  0
   35.0518   47.9694   -5.3127 H   0  0  0  0  0  0  0  0  0  0  0  0
   36.2709   48.0754   -6.3940 H   0  0  0  0  0  0  0  0  0  0  0  0
   29.3618   44.3874   -3.8779 H   0  0  0  0  0  0  0  0  0  0  0  0
   30.3719   44.2260   -2.6049 H   0  0  0  0  0  0  0  0  0  0  0  0
   30.0831   45.7043   -3.2358 H   0  0  0  0  0  0  0  0  0  0  0  0
   35.4461   44.6998   -6.9396 H   0  0  0  0  0  0  0  0  0  0  0  0
   36.4561   45.6908   -6.1245 H   0  0  0  0  0  0  0  0  0  0  0  0
   31.3531   37.4395   -9.8326 H   0  0  0  0  0  0  0  0  0  0  0  0
   30.8129   35.9012   -9.9250 H   0  0  0  0  0  0  0  0  0  0  0  0
   35.0500   46.6977   -7.9056 H   0  0  0  0  0  0  0  0  0  0  0  0
   33.8309   46.5916   -6.8244 H   0  0  0  0  0  0  0  0  0  0  0  0
   29.1806   35.0913   -5.7118 H   0  0  0  0  0  0  0  0  0  0  0  0
   26.5884   42.7851   -4.9260 H   0  0  0  0  0  0  0  0  0  0  0  0
   26.4622   41.1706   -5.1362 H   0  0  0  0  0  0  0  0  0  0  0  0
   27.9558   40.8342   -3.4898 H   0  0  0  0  0  0  0  0  0  0  0  0
   28.0678   42.4480   -3.2670 H   0  0  0  0  0  0  0  0  0  0  0  0
   30.0792   34.9290   -7.9270 H   0  0  0  0  0  0  0  0  0  0  0  0
   28.8023   40.7044   -7.7249 H   0  0  0  0  0  0  0  0  0  0  0  0
   27.2744   40.2992   -7.3152 H   0  0  0  0  0  0  0  0  0  0  0  0
   30.0210   39.7108   -4.2898 H   0  0  0  0  0  0  0  0  0  0  0  0
   30.6687   40.3127   -5.6627 H   0  0  0  0  0  0  0  0  0  0  0  0
   29.7293   39.0417   -8.3752 H   0  0  0  0  0  0  0  0  0  0  0  0
   27.5478   42.6827   -7.0204 H   0  0  0  0  0  0  0  0  0  0  0  0
   30.2114   42.1129   -4.0588 H   0  0  0  0  0  0  0  0  0  0  0  0
   27.9467   39.4802   -5.2684 H   0  0  0  0  0  0  0  0  0  0  0  0
  1 21  1  0  0  0  0
  2 20  1  0  0  0  0
  2 22  1  0  0  0  0
  3 23  1  0  0  0  0
  4 24  2  0  0  0  0
  5 10  1  0  0  0  0
  5 20  1  0  0  0  0
  6 11  1  0  0  0  0
  7 24  1  0  0  0  0
  7 25  1  0  0  0  0
  7 26  1  0  0  0  0
  8 12  1  0  0  0  0
  9 29  1  0  0  0  0
 10 12  1  0  0  0  0
 11 27  1  0  0  0  0
 13 16  2  0  0  0  0
 13 23  1  0  0  0  0
 14 15  1  0  0  0  0
 14 25  1  0  0  0  0
 15 26  1  0  0  0  0
 16 27  1  0  0  0  0
 17 25  1  0  0  0  0
 17 28  1  0  0  0  0
 18 26  1  0  0  0  0
 18 28  1  0  0  0  0
 19 27  2  0  0  0  0
 19 30  1  0  0  0  0
 20 21  2  0  0  0  0
 21 29  1  0  0  0  0
 22 24  1  0  0  0  0
 22 29  2  0  0  0  0
 23 30  2  0  0  0  0
 28 30  1  0  0  0  0
  6 31  1  0  0  0  0
  6 32  1  0  0  0  0
  8 33  1  0  0  0  0
  8 34  1  0  0  0  0
  8 35  1  0  0  0  0
  9 36  1  0  0  0  0
  9 37  1  0  0  0  0
  9 38  1  0  0  0  0
 10 39  1  0  0  0  0
 10 40  1  0  0  0  0
 11 41  1  0  0  0  0
 11 42  1  0  0  0  0
 12 43  1  0  0  0  0
 12 44  1  0  0  0  0
 13 45  1  0  0  0  0
 14 46  1  0  0  0  0
 14 47  1  0  0  0  0
 15 48  1  0  0  0  0
 15 49  1  0  0  0  0
 16 50  1  0  0  0  0
 17 51  1  0  0  0  0
 17 52  1  0  0  0  0
 18 53  1  0  0  0  0
 18 54  1  0  0  0  0
 19 55  1  0  0  0  0
 25 56  1  0  0  0  0
 26 57  1  0  0  0  0
 28 58  1  0  0  0  0
M  END
> <pdb_id>
3V7T

> <uniprot_id>
Q6NZY1

> <usmiles>
BrC1=C(SC(C(=O)N2[C@H]3C[C@@H](c4c(F)ccc(c4)CN)C[C@@H]2CC3)=C1C)OCCC

$$$$
0HD_A_501
          07202412083D 1   1.00000     0.00000     0
            
 37 39  0  0  0  0            999 V2000
  -69.9675  -25.1603   86.5022 O   0  0  0  0  0  0  0  0  0  0  0  0
  -72.3708  -30.9404   84.8039 N   0  0  0  0  0  0  0  0  0  0  0  0
  -71.3433  -31.0125   83.9741 N   0  0  0  0  0  0  0  0  0  0  0  0
  -67.8516  -24.3314   86.4014 N   0  0  0  0  0  0  0  0  0  0  0  0
  -68.3930  -26.4738   85.3824 N   0  0  0  0  0  0  0  0  0  0  0  0
  -68.2525  -23.1646   87.1224 C   0  0  0  0  0  0  0  0  0  0  0  0
  -72.2712  -29.8583   85.5717 C   0  0  0  0  0  0  0  0  0  0  0  0
  -66.4558  -20.3893   83.1639 C   0  0  0  0  0  0  0  0  0  0  0  0
  -67.7712  -20.4499   83.6031 C   0  0  0  0  0  0  0  0  0  0  0  0
  -65.4352  -20.8503   83.9833 C   0  0  0  0  0  0  0  0  0  0  0  0
  -67.3588  -21.9792   87.0281 C   0  0  0  0  0  0  0  0  0  0  0  0
  -68.0712  -20.9678   84.8551 C   0  0  0  0  0  0  0  0  0  0  0  0
  -65.7306  -21.3674   85.2396 C   0  0  0  0  0  0  0  0  0  0  0  0
  -68.6301  -28.4282   83.9624 C   0  0  0  0  0  0  0  0  0  0  0  0
  -69.2902  -29.5789   83.5255 C   0  0  0  0  0  0  0  0  0  0  0  0
  -70.3710  -28.0029   85.6383 C   0  0  0  0  0  0  0  0  0  0  0  0
  -68.8193  -25.3318   86.1252 C   0  0  0  0  0  0  0  0  0  0  0  0
  -69.1645  -27.6257   85.0020 C   0  0  0  0  0  0  0  0  0  0  0  0
  -70.5013  -29.9537   84.1549 C   0  0  0  0  0  0  0  0  0  0  0  0
  -67.0476  -21.4273   85.6756 C   0  0  0  0  0  0  0  0  0  0  0  0
  -71.0392  -29.1669   85.1939 C   0  0  0  0  0  0  0  0  0  0  0  0
  -71.2026  -31.7430   83.3058 H   0  0  0  0  0  0  0  0  0  0  0  0
  -66.9055  -24.4410   86.0966 H   0  0  0  0  0  0  0  0  0  0  0  0
  -67.4368  -26.4724   85.0897 H   0  0  0  0  0  0  0  0  0  0  0  0
  -68.3227  -23.4147   88.0881 H   0  0  0  0  0  0  0  0  0  0  0  0
  -69.1527  -22.8928   86.7821 H   0  0  0  0  0  0  0  0  0  0  0  0
  -72.9193  -29.5708   86.2769 H   0  0  0  0  0  0  0  0  0  0  0  0
  -66.2446  -20.0151   82.2609 H   0  0  0  0  0  0  0  0  0  0  0  0
  -68.5075  -20.1182   83.0134 H   0  0  0  0  0  0  0  0  0  0  0  0
  -64.4864  -20.8107   83.6699 H   0  0  0  0  0  0  0  0  0  0  0  0
  -66.4886  -22.2312   87.4515 H   0  0  0  0  0  0  0  0  0  0  0  0
  -67.7859  -21.2448   87.5555 H   0  0  0  0  0  0  0  0  0  0  0  0
  -69.0207  -21.0102   85.1661 H   0  0  0  0  0  0  0  0  0  0  0  0
  -64.9937  -21.6966   85.8300 H   0  0  0  0  0  0  0  0  0  0  0  0
  -67.7653  -28.1657   83.5344 H   0  0  0  0  0  0  0  0  0  0  0  0
  -68.9133  -30.1290   82.7803 H   0  0  0  0  0  0  0  0  0  0  0  0
  -70.7438  -27.4564   86.3882 H   0  0  0  0  0  0  0  0  0  0  0  0
  1 17  2  0  0  0  0
  2  3  1  0  0  0  0
  2  7  2  0  0  0  0
  3 19  1  0  0  0  0
  4  6  1  0  0  0  0
  4 17  1  0  0  0  0
  5 17  1  0  0  0  0
  5 18  1  0  0  0  0
  6 11  1  0  0  0  0
  7 21  1  0  0  0  0
  8  9  2  0  0  0  0
  8 10  1  0  0  0  0
  9 12  1  0  0  0  0
 10 13  2  0  0  0  0
 11 20  1  0  0  0  0
 12 20  2  0  0  0  0
 13 20  1  0  0  0  0
 14 15  1  0  0  0  0
 14 18  2  0  0  0  0
 15 19  2  0  0  0  0
 16 18  1  0  0  0  0
 16 21  2  0  0  0  0
 19 21  1  0  0  0  0
  3 22  1  0  0  0  0
  4 23  1  0  0  0  0
  5 24  1  0  0  0  0
  6 25  1  0  0  0  0
  6 26  1  0  0  0  0
  7 27  1  0  0  0  0
  8 28  1  0  0  0  0
  9 29  1  0  0  0  0
 10 30  1  0  0  0  0
 11 31  1  0  0  0  0
 11 32  1  0  0  0  0
 12 33  1  0  0  0  0
 13 34  1  0  0  0  0
 14 35  1  0  0  0  0
 15 36  1  0  0  0  0
 16 37  1  0  0  0  0
M  END
> <pdb_id>
3V8S

> <uniprot_id>
Q13464

> <usmiles>
O=C(Nc1cc2c(NN=C2)cc1)NCCc3ccccc3

$$$$
0J3_A_1401
          07202415303D 1   1.00000     0.00000     0
            
 54 57  0  0  0  0            999 V2000
    0.3482  -16.1687   18.6902 F   0  0  0  0  0  0  0  0  0  0  0  0
    1.8888  -17.1421   17.5495 F   0  0  0  0  0  0  0  0  0  0  0  0
    1.6729  -14.9959   17.4282 F   0  0  0  0  0  0  0  0  0  0  0  0
   -3.6749  -14.5800   21.7774 O   0  5  0  0  0  0  0  0  0  0  0  0
   -1.8280  -13.6124   20.8843 O   0  0  0  0  0  0  0  0  0  0  0  0
   -0.8812  -18.8211   13.8961 N   0  0  0  0  0  0  0  0  0  0  0  0
   -2.9513  -14.5026   14.9411 N   0  0  0  0  0  0  0  0  0  0  0  0
   -3.0588  -14.0650   20.7595 N   0  3  0  0  0  0  0  0  0  0  0  0
   -5.8390  -19.2649    9.9680 N   0  0  0  0  0  0  0  0  0  0  0  0
   -3.7339  -18.4962   11.5476 N   0  0  0  0  0  0  0  0  0  0  0  0
   -6.4704  -18.8296    8.7741 C   0  0  0  0  0  0  0  0  0  0  0  0
   -1.7450  -19.0725   12.9350 C   0  0  0  0  0  0  0  0  0  0  0  0
   -3.0551  -13.3524   15.8157 C   0  0  0  0  0  0  0  0  0  0  0  0
   -6.0897  -18.6087   11.2810 C   0  0  0  0  0  0  0  0  0  0  0  0
   -4.5595  -20.0113    9.9297 C   0  0  0  0  0  0  0  0  0  0  0  0
   -4.9085  -17.8263   11.7708 C   0  0  0  0  0  0  0  0  0  0  0  0
   -3.7167  -19.8112   11.1429 C   0  0  0  0  0  0  0  0  0  0  0  0
   -5.8642  -14.2134   18.2739 C   0  0  0  0  0  0  0  0  0  0  0  0
   -5.1431  -14.2612   19.5007 C   0  0  0  0  0  0  0  0  0  0  0  0
   -5.1762  -13.9131   17.0887 C   0  0  0  0  0  0  0  0  0  0  0  0
   -3.0720  -13.7208   18.3414 C   0  0  0  0  0  0  0  0  0  0  0  0
    0.0279  -17.4849   15.6380 C   0  0  0  0  0  0  0  0  0  0  0  0
   -1.0052  -15.3235   16.1665 C   0  0  0  0  0  0  0  0  0  0  0  0
   -2.8753  -16.9602   13.3500 C   0  0  0  0  0  0  0  0  0  0  0  0
   -0.9358  -17.6833   14.6215 C   0  0  0  0  0  0  0  0  0  0  0  0
   -1.9437  -15.5141   15.1837 C   0  0  0  0  0  0  0  0  0  0  0  0
   -3.7551  -14.0143   19.5155 C   0  0  0  0  0  0  0  0  0  0  0  0
   -2.7873  -18.1367   12.6261 C   0  0  0  0  0  0  0  0  0  0  0  0
   -3.7942  -13.6630   17.1184 C   0  0  0  0  0  0  0  0  0  0  0  0
    0.0063  -16.3269   16.4089 C   0  0  0  0  0  0  0  0  0  0  0  0
   -1.9210  -16.7177   14.3777 C   0  0  0  0  0  0  0  0  0  0  0  0
    1.0367  -16.1400   17.5242 C   0  0  0  0  0  0  0  0  0  0  0  0
   -3.5775  -14.5985   14.1674 H   0  0  0  0  0  0  0  0  0  0  0  0
   -6.1679  -19.3996    8.0101 H   0  0  0  0  0  0  0  0  0  0  0  0
   -7.4624  -18.9060    8.8747 H   0  0  0  0  0  0  0  0  0  0  0  0
   -6.2258  -17.8764    8.5961 H   0  0  0  0  0  0  0  0  0  0  0  0
   -1.6738  -19.9240   12.4154 H   0  0  0  0  0  0  0  0  0  0  0  0
   -3.5479  -12.6280   15.3336 H   0  0  0  0  0  0  0  0  0  0  0  0
   -2.1329  -13.0366   16.0390 H   0  0  0  0  0  0  0  0  0  0  0  0
   -6.3079  -19.3144   11.9551 H   0  0  0  0  0  0  0  0  0  0  0  0
   -6.8675  -17.9875   11.1851 H   0  0  0  0  0  0  0  0  0  0  0  0
   -4.0404  -19.7084    9.1304 H   0  0  0  0  0  0  0  0  0  0  0  0
   -4.7645  -20.9863    9.8441 H   0  0  0  0  0  0  0  0  0  0  0  0
   -4.8784  -16.9493   11.2913 H   0  0  0  0  0  0  0  0  0  0  0  0
   -5.0096  -17.6662   12.7527 H   0  0  0  0  0  0  0  0  0  0  0  0
   -4.0680  -20.3850   11.8827 H   0  0  0  0  0  0  0  0  0  0  0  0
   -2.7754  -20.0761   10.9338 H   0  0  0  0  0  0  0  0  0  0  0  0
   -6.8481  -14.3916   18.2573 H   0  0  0  0  0  0  0  0  0  0  0  0
   -5.6220  -14.4703   20.3533 H   0  0  0  0  0  0  0  0  0  0  0  0
   -5.6710  -13.8769   16.2204 H   0  0  0  0  0  0  0  0  0  0  0  0
   -2.0864  -13.5527   18.3567 H   0  0  0  0  0  0  0  0  0  0  0  0
    0.7275  -18.1800   15.8032 H   0  0  0  0  0  0  0  0  0  0  0  0
   -1.0212  -14.4884   16.7163 H   0  0  0  0  0  0  0  0  0  0  0  0
   -3.5950  -16.2940   13.1548 H   0  0  0  0  0  0  0  0  0  0  0  0
  1 32  1  0  0  0  0
  2 32  1  0  0  0  0
  3 32  1  0  0  0  0
  4  8  1  0  0  0  0
  5  8  2  0  0  0  0
  6 12  2  0  0  0  0
  6 25  1  0  0  0  0
  7 13  1  0  0  0  0
  7 26  1  0  0  0  0
  8 27  1  0  0  0  0
  9 11  1  0  0  0  0
  9 14  1  0  0  0  0
  9 15  1  0  0  0  0
 10 16  1  0  0  0  0
 10 17  1  0  0  0  0
 10 28  1  0  0  0  0
 12 28  1  0  0  0  0
 13 29  1  0  0  0  0
 14 16  1  0  0  0  0
 15 17  1  0  0  0  0
 18 19  1  0  0  0  0
 18 20  2  0  0  0  0
 19 27  2  0  0  0  0
 20 29  1  0  0  0  0
 21 27  1  0  0  0  0
 21 29  2  0  0  0  0
 22 25  1  0  0  0  0
 22 30  2  0  0  0  0
 23 26  2  0  0  0  0
 23 30  1  0  0  0  0
 24 28  2  0  0  0  0
 24 31  1  0  0  0  0
 25 31  2  0  0  0  0
 26 31  1  0  0  0  0
 30 32  1  0  0  0  0
  7 33  1  0  0  0  0
 11 34  1  0  0  0  0
 11 35  1  0  0  0  0
 11 36  1  0  0  0  0
 12 37  1  0  0  0  0
 13 38  1  0  0  0  0
 13 39  1  0  0  0  0
 14 40  1  0  0  0  0
 14 41  1  0  0  0  0
 15 42  1  0  0  0  0
 15 43  1  0  0  0  0
 16 44  1  0  0  0  0
 16 45  1  0  0  0  0
 17 46  1  0  0  0  0
 17 47  1  0  0  0  0
 18 48  1  0  0  0  0
 19 49  1  0  0  0  0
 20 50  1  0  0  0  0
 21 51  1  0  0  0  0
 22 52  1  0  0  0  0
 23 53  1  0  0  0  0
 24 54  1  0  0  0  0
M  CHG  2   4  -1   8   1
M  END
> <pdb_id>
4GG5

> <uniprot_id>
P08581

> <usmiles>
FC(F)(F)c1cc2ncc(N3CCN(CC3)C)cc2c(NCc4cc([N+]([O-])=O)ccc4)c1

$$$$
0J6_A_301
          07192423183D 1   1.00000     0.00000     0
            
 34 37  0  0  0  0            999 V2000
   -9.2114   55.7345   13.7532 O   0  0  0  0  0  0  0  0  0  0  0  0
   -1.4607   53.7513   11.5460 N   0  0  0  0  0  0  0  0  0  0  0  0
   -1.1372   53.3610   12.8032 N   0  0  0  0  0  0  0  0  0  0  0  0
  -12.8578   59.9884   10.7885 N   0  0  0  0  0  0  0  0  0  0  0  0
   -2.8272   53.9279   11.4836 N   0  0  0  0  0  0  0  0  0  0  0  0
   -2.2802   53.3174   13.5210 N   0  0  0  0  0  0  0  0  0  0  0  0
  -12.0288   59.5642    9.7474 N   0  0  0  0  0  0  0  0  0  0  0  0
   -7.8181   55.3011   12.0412 N   0  0  0  0  0  0  0  0  0  0  0  0
  -12.5345   59.3262   11.9198 C   0  0  0  0  0  0  0  0  0  0  0  0
   -6.4652   52.8702   14.4946 C   0  0  0  0  0  0  0  0  0  0  0  0
   -7.3999   53.6307   13.7956 C   0  0  0  0  0  0  0  0  0  0  0  0
   -5.1130   52.8587   14.1581 C   0  0  0  0  0  0  0  0  0  0  0  0
  -10.1530   57.8993    9.5763 C   0  0  0  0  0  0  0  0  0  0  0  0
   -9.4059   57.0029   10.3289 C   0  0  0  0  0  0  0  0  0  0  0  0
   -5.6135   54.4500   12.3774 C   0  0  0  0  0  0  0  0  0  0  0  0
  -10.7269   57.5533   12.3112 C   0  0  0  0  0  0  0  0  0  0  0  0
   -8.8974   55.8985   12.5635 C   0  0  0  0  0  0  0  0  0  0  0  0
   -3.3020   53.6440   12.7087 C   0  0  0  0  0  0  0  0  0  0  0  0
   -6.9523   54.4626   12.7548 C   0  0  0  0  0  0  0  0  0  0  0  0
  -11.1593   58.6237   10.2049 C   0  0  0  0  0  0  0  0  0  0  0  0
  -11.4439   58.4627   11.5524 C   0  0  0  0  0  0  0  0  0  0  0  0
   -9.7094   56.8129   11.6965 C   0  0  0  0  0  0  0  0  0  0  0  0
   -4.7198   53.6446   13.0887 C   0  0  0  0  0  0  0  0  0  0  0  0
   -3.3592   54.2109   10.6855 H   0  0  0  0  0  0  0  0  0  0  0  0
  -12.0687   59.9013    8.8068 H   0  0  0  0  0  0  0  0  0  0  0  0
   -7.6167   55.4650   11.0755 H   0  0  0  0  0  0  0  0  0  0  0  0
  -12.9613   59.4164   12.8196 H   0  0  0  0  0  0  0  0  0  0  0  0
   -6.7755   52.3131   15.2648 H   0  0  0  0  0  0  0  0  0  0  0  0
   -8.3710   53.5856   14.0299 H   0  0  0  0  0  0  0  0  0  0  0  0
   -4.4542   52.3055   14.6679 H   0  0  0  0  0  0  0  0  0  0  0  0
   -9.9706   58.0215    8.6007 H   0  0  0  0  0  0  0  0  0  0  0  0
   -8.6566   56.4940    9.9053 H   0  0  0  0  0  0  0  0  0  0  0  0
   -5.2960   55.0076   11.6104 H   0  0  0  0  0  0  0  0  0  0  0  0
  -10.9320   57.4273   13.2818 H   0  0  0  0  0  0  0  0  0  0  0  0
  1 17  2  0  0  0  0
  2  3  2  0  0  0  0
  2  5  1  0  0  0  0
  3  6  1  0  0  0  0
  4  7  1  0  0  0  0
  4  9  2  0  0  0  0
  5 18  1  0  0  0  0
  6 18  2  0  0  0  0
  7 20  1  0  0  0  0
  8 17  1  0  0  0  0
  8 19  1  0  0  0  0
  9 21  1  0  0  0  0
 10 11  1  0  0  0  0
 10 12  2  0  0  0  0
 11 19  2  0  0  0  0
 12 23  1  0  0  0  0
 13 14  1  0  0  0  0
 13 20  2  0  0  0  0
 14 22  2  0  0  0  0
 15 19  1  0  0  0  0
 15 23  2  0  0  0  0
 16 21  2  0  0  0  0
 16 22  1  0  0  0  0
 17 22  1  0  0  0  0
 18 23  1  0  0  0  0
 20 21  1  0  0  0  0
  5 24  1  0  0  0  0
  7 25  1  0  0  0  0
  8 26  1  0  0  0  0
  9 27  1  0  0  0  0
 10 28  1  0  0  0  0
 11 29  1  0  0  0  0
 12 30  1  0  0  0  0
 13 31  1  0  0  0  0
 14 32  1  0  0  0  0
 15 33  1  0  0  0  0
 16 34  1  0  0  0  0
M  END
> <pdb_id>
4DE1

> <uniprot_id>
Q9L5C8

> <usmiles>
O=C(Nc1cc(ccc1)C2=NN=NN2)c3cc4c(NN=C4)cc3

$$$$
0J8_A_1401
          07202415303D 1   1.00000     0.00000     0
            
 57 61  0  0  0  0            999 V2000
    1.6070  -16.9680   17.5010 F   0  0  0  0  0  0  0  0  0  0  0  0
    1.6530  -14.9320   16.6790 F   0  0  0  0  0  0  0  0  0  0  0  0
    0.4310  -15.4340   18.3820 F   0  0  0  0  0  0  0  0  0  0  0  0
   -3.2250  -14.2780   21.7150 O   0  5  0  0  0  0  0  0  0  0  0  0
   -1.4380  -13.2260   20.7610 O   0  0  0  0  0  0  0  0  0  0  0  0
   -5.8070  -18.5030   10.3730 N   0  0  0  0  0  0  0  0  0  0  0  0
   -8.3440  -22.2710    8.5280 N   0  0  0  0  0  0  0  0  0  0  0  0
   -3.2080  -14.4530   15.1020 N   0  0  0  0  0  0  0  0  0  0  0  0
   -1.0510  -18.7590   13.9370 N   0  0  0  0  0  0  0  0  0  0  0  0
   -1.1740  -15.2470   16.1050 N   0  0  0  0  0  0  0  0  0  0  0  0
   -0.1550  -17.3070   15.5320 N   0  0  0  0  0  0  0  0  0  0  0  0
   -2.6680  -13.7020   20.6950 N   0  3  0  0  0  0  0  0  0  0  0  0
   -5.5180  -19.8360   10.6480 N   0  0  0  0  0  0  0  0  0  0  0  0
   -8.3850  -22.3020    9.9930 C   0  0  0  0  0  0  0  0  0  0  0  0
   -7.4650  -21.2990    7.8570 C   0  0  0  0  0  0  0  0  0  0  0  0
   -4.9580  -17.7270   11.1050 C   0  0  0  0  0  0  0  0  0  0  0  0
   -2.9850  -13.1760   15.7540 C   0  0  0  0  0  0  0  0  0  0  0  0
   -2.0040  -19.0810   13.0340 C   0  0  0  0  0  0  0  0  0  0  0  0
   -4.5130  -19.9020   11.5430 C   0  0  0  0  0  0  0  0  0  0  0  0
   -5.6600  -13.6150   18.4650 C   0  0  0  0  0  0  0  0  0  0  0  0
   -7.6130  -21.1320   10.6350 C   0  0  0  0  0  0  0  0  0  0  0  0
   -6.1630  -20.9220    8.5480 C   0  0  0  0  0  0  0  0  0  0  0  0
   -4.8650  -13.7030   19.6110 C   0  0  0  0  0  0  0  0  0  0  0  0
   -5.0570  -13.4400   17.2100 C   0  0  0  0  0  0  0  0  0  0  0  0
   -2.8400  -13.4220   18.2530 C   0  0  0  0  0  0  0  0  0  0  0  0
   -3.1800  -16.9870   13.5200 C   0  0  0  0  0  0  0  0  0  0  0  0
   -2.1830  -15.4700   15.2310 C   0  0  0  0  0  0  0  0  0  0  0  0
   -1.1340  -17.5870   14.6260 C   0  0  0  0  0  0  0  0  0  0  0  0
   -0.2070  -16.1660   16.2400 C   0  0  0  0  0  0  0  0  0  0  0  0
   -3.4490  -13.6060   19.5000 C   0  0  0  0  0  0  0  0  0  0  0  0
   -6.2200  -21.0080   10.0590 C   0  0  0  0  0  0  0  0  0  0  0  0
   -3.6420  -13.3290   17.1130 C   0  0  0  0  0  0  0  0  0  0  0  0
   -4.1340  -18.5970   11.8290 C   0  0  0  0  0  0  0  0  0  0  0  0
   -3.0670  -18.2130   12.8070 C   0  0  0  0  0  0  0  0  0  0  0  0
   -2.1830  -16.6670   14.4580 C   0  0  0  0  0  0  0  0  0  0  0  0
    0.9130  -15.8720   17.2330 C   0  0  0  0  0  0  0  0  0  0  0  0
   -9.2755  -22.0894    8.2129 H   0  0  0  0  0  0  0  0  0  0  0  0
   -4.0430  -14.6262   14.5798 H   0  0  0  0  0  0  0  0  0  0  0  0
   -7.9814  -23.1617   10.3062 H   0  0  0  0  0  0  0  0  0  0  0  0
   -9.3396  -22.2552   10.2873 H   0  0  0  0  0  0  0  0  0  0  0  0
   -7.9910  -20.4576    7.7331 H   0  0  0  0  0  0  0  0  0  0  0  0
   -7.2285  -21.6790    6.9627 H   0  0  0  0  0  0  0  0  0  0  0  0
   -4.9293  -16.7275   11.1216 H   0  0  0  0  0  0  0  0  0  0  0  0
   -3.4114  -12.4345   15.2359 H   0  0  0  0  0  0  0  0  0  0  0  0
   -2.0065  -12.9944   15.8520 H   0  0  0  0  0  0  0  0  0  0  0  0
   -1.9449  -19.9425   12.5296 H   0  0  0  0  0  0  0  0  0  0  0  0
   -4.1149  -20.7343   11.9288 H   0  0  0  0  0  0  0  0  0  0  0  0
   -6.6554  -13.6765   18.5391 H   0  0  0  0  0  0  0  0  0  0  0  0
   -7.5449  -21.2888   11.6203 H   0  0  0  0  0  0  0  0  0  0  0  0
   -8.1117  -20.2817   10.4665 H   0  0  0  0  0  0  0  0  0  0  0  0
   -5.9334  -19.9822    8.2950 H   0  0  0  0  0  0  0  0  0  0  0  0
   -5.4454  -21.5389    8.2248 H   0  0  0  0  0  0  0  0  0  0  0  0
   -5.2897  -13.8338   20.5068 H   0  0  0  0  0  0  0  0  0  0  0  0
   -5.6208  -13.3934   16.3854 H   0  0  0  0  0  0  0  0  0  0  0  0
   -1.8448  -13.3580   18.1793 H   0  0  0  0  0  0  0  0  0  0  0  0
   -3.9490  -16.3687   13.3580 H   0  0  0  0  0  0  0  0  0  0  0  0
   -5.7122  -21.8258   10.3298 H   0  0  0  0  0  0  0  0  0  0  0  0
  1 36  1  0  0  0  0
  2 36  1  0  0  0  0
  3 36  1  0  0  0  0
  4 12  1  0  0  0  0
  5 12  2  0  0  0  0
  6 13  1  0  0  0  0
  6 16  2  0  0  0  0
  7 14  1  0  0  0  0
  7 15  1  0  0  0  0
  8 17  1  0  0  0  0
  8 27  1  0  0  0  0
  9 18  1  0  0  0  0
  9 28  2  0  0  0  0
 10 27  2  0  0  0  0
 10 29  1  0  0  0  0
 11 28  1  0  0  0  0
 11 29  2  0  0  0  0
 12 30  1  0  0  0  0
 13 19  1  0  0  0  0
 13 31  1  0  0  0  0
 14 21  1  0  0  0  0
 15 22  1  0  0  0  0
 16 33  1  0  0  0  0
 17 32  1  0  0  0  0
 18 34  2  0  0  0  0
 19 33  2  0  0  0  0
 20 23  1  0  0  0  0
 20 24  2  0  0  0  0
 21 31  1  0  0  0  0
 22 31  1  0  0  0  0
 23 30  2  0  0  0  0
 24 32  1  0  0  0  0
 25 30  1  0  0  0  0
 25 32  2  0  0  0  0
 26 34  1  0  0  0  0
 26 35  2  0  0  0  0
 27 35  1  0  0  0  0
 28 35  1  0  0  0  0
 29 36  1  0  0  0  0
 33 34  1  0  0  0  0
  7 37  1  0  0  0  0
  8 38  1  0  0  0  0
 14 39  1  0  0  0  0
 14 40  1  0  0  0  0
 15 41  1  0  0  0  0
 15 42  1  0  0  0  0
 16 43  1  0  0  0  0
 17 44  1  0  0  0  0
 17 45  1  0  0  0  0
 18 46  1  0  0  0  0
 19 47  1  0  0  0  0
 20 48  1  0  0  0  0
 21 49  1  0  0  0  0
 21 50  1  0  0  0  0
 22 51  1  0  0  0  0
 22 52  1  0  0  0  0
 23 53  1  0  0  0  0
 24 54  1  0  0  0  0
 25 55  1  0  0  0  0
 26 56  1  0  0  0  0
 31 57  1  0  0  0  0
M  CHG  2   4  -1  12   1
M  END
> <pdb_id>
4GG7

> <uniprot_id>
P08581

> <usmiles>
FC(F)(F)c1nc2ncc(cc2c(n1)NCc3cc([N+]([O-])=O)ccc3)C=4C=NN(C4)C5CCNCC5

$$$$
0JA_A_2001
          07192423583D 1   1.00000     0.00000     0
            
 57 62  0  0  0  0            999 V2000
   30.1650  -28.6030  -18.3180 Cl  0  0  0  0  0  0  0  0  0  0  0  0
   21.6080  -27.1490  -11.1940 S   0  0  0  0  0  0  0  0  0  0  0  0
   31.0880  -30.6230  -12.4610 F   0  0  0  0  0  0  0  0  0  0  0  0
   19.2530  -26.2090  -10.2410 O   0  0  0  0  0  0  0  0  0  0  0  0
   28.4320  -29.7900  -16.2820 O   0  0  0  0  0  0  0  0  0  0  0  0
   25.6930  -29.6300  -12.4240 O   0  0  0  0  0  0  0  0  0  0  0  0
   33.3740  -28.2030  -20.3270 N   0  0  0  0  0  0  0  0  0  0  0  0
   20.8000  -24.5850  -10.8450 N   0  0  0  0  0  0  0  0  0  0  0  0
   23.8380  -28.4750  -11.8590 N   0  0  0  0  0  0  0  0  0  0  0  0
   23.0500  -25.0050  -11.4760 N   0  0  0  0  0  0  0  0  0  0  0  0
   29.7810  -30.8370  -14.7430 N   0  0  0  0  0  0  0  0  0  0  0  0
   31.2010  -32.9490  -18.1070 C   0  0  0  0  0  0  0  0  0  0  0  0
   32.5800  -29.0410  -20.4090 C   0  0  0  0  0  0  0  0  0  0  0  0
   30.5090  -32.3740  -17.0630 C   0  0  0  0  0  0  0  0  0  0  0  0
   29.1420  -30.0000  -11.2610 C   0  0  0  0  0  0  0  0  0  0  0  0
   31.5450  -32.1990  -19.2080 C   0  0  0  0  0  0  0  0  0  0  0  0
   25.8380  -27.2260  -12.3550 C   0  0  0  0  0  0  0  0  0  0  0  0
   27.7880  -29.7370  -11.2490 C   0  0  0  0  0  0  0  0  0  0  0  0
   25.2100  -26.0180  -12.1210 C   0  0  0  0  0  0  0  0  0  0  0  0
   17.1860  -24.1460  -10.2660 C   0  0  0  0  0  0  0  0  0  0  0  0
   17.7490  -24.0250   -8.8860 C   0  0  0  0  0  0  0  0  0  0  0  0
   27.6930  -30.2040  -13.6030 C   0  0  0  0  0  0  0  0  0  0  0  0
   31.5710  -30.7850  -21.8250 C   0  0  0  0  0  0  0  0  0  0  0  0
   30.4960  -29.8070  -21.4710 C   0  0  0  0  0  0  0  0  0  0  0  0
   21.8430  -25.4370  -11.1710 C   0  0  0  0  0  0  0  0  0  0  0  0
   30.5510  -30.2850  -18.2330 C   0  0  0  0  0  0  0  0  0  0  0  0
   23.2640  -27.2950  -11.6430 C   0  0  0  0  0  0  0  0  0  0  0  0
   29.7600  -30.3580  -12.4370 C   0  0  0  0  0  0  0  0  0  0  0  0
   19.5900  -25.0440  -10.3930 C   0  0  0  0  0  0  0  0  0  0  0  0
   29.4170  -30.4630  -16.0070 C   0  0  0  0  0  0  0  0  0  0  0  0
   25.1260  -28.3910  -12.2010 C   0  0  0  0  0  0  0  0  0  0  0  0
   27.0730  -29.8370  -12.4220 C   0  0  0  0  0  0  0  0  0  0  0  0
   23.8780  -26.0640  -11.7530 C   0  0  0  0  0  0  0  0  0  0  0  0
   29.0510  -30.4510  -13.6060 C   0  0  0  0  0  0  0  0  0  0  0  0
   18.6640  -23.9440  -10.0780 C   0  0  0  0  0  0  0  0  0  0  0  0
   30.1950  -31.0370  -17.1270 C   0  0  0  0  0  0  0  0  0  0  0  0
   31.2310  -30.8580  -19.2950 C   0  0  0  0  0  0  0  0  0  0  0  0
   31.6170  -30.0800  -20.4950 C   0  0  0  0  0  0  0  0  0  0  0  0
   20.9349  -23.5990  -10.9431 H   0  0  0  0  0  0  0  0  0  0  0  0
   30.5952  -31.4051  -14.6236 H   0  0  0  0  0  0  0  0  0  0  0  0
   31.4542  -33.9155  -18.0641 H   0  0  0  0  0  0  0  0  0  0  0  0
   30.2393  -32.9212  -16.2706 H   0  0  0  0  0  0  0  0  0  0  0  0
   29.6734  -29.9306  -10.4167 H   0  0  0  0  0  0  0  0  0  0  0  0
   32.0341  -32.6359  -19.9629 H   0  0  0  0  0  0  0  0  0  0  0  0
   26.7983  -27.2522  -12.6328 H   0  0  0  0  0  0  0  0  0  0  0  0
   27.3308  -29.4768  -10.3986 H   0  0  0  0  0  0  0  0  0  0  0  0
   25.6968  -25.1494  -12.2136 H   0  0  0  0  0  0  0  0  0  0  0  0
   16.6252  -23.4089  -10.6430 H   0  0  0  0  0  0  0  0  0  0  0  0
   16.8394  -25.0268  -10.5885 H   0  0  0  0  0  0  0  0  0  0  0  0
   17.7789  -24.8249   -8.2867 H   0  0  0  0  0  0  0  0  0  0  0  0
   17.5647  -23.2070   -8.3411 H   0  0  0  0  0  0  0  0  0  0  0  0
   27.1625  -30.2895  -14.4463 H   0  0  0  0  0  0  0  0  0  0  0  0
   32.2389  -30.5574  -22.5336 H   0  0  0  0  0  0  0  0  0  0  0  0
   31.3629  -31.7623  -21.8646 H   0  0  0  0  0  0  0  0  0  0  0  0
   29.5710  -30.1312  -21.2730 H   0  0  0  0  0  0  0  0  0  0  0  0
   30.4469  -28.9262  -21.9420 H   0  0  0  0  0  0  0  0  0  0  0  0
   19.0003  -23.0278  -10.2960 H   0  0  0  0  0  0  0  0  0  0  0  0
  1 26  1  0  0  0  0
  2 25  1  0  0  0  0
  2 27  1  0  0  0  0
  3 28  1  0  0  0  0
  4 29  2  0  0  0  0
  5 30  2  0  0  0  0
  6 31  1  0  0  0  0
  6 32  1  0  0  0  0
  7 13  3  0  0  0  0
  8 25  1  0  0  0  0
  8 29  1  0  0  0  0
  9 27  2  0  0  0  0
  9 31  1  0  0  0  0
 10 25  2  0  0  0  0
 10 33  1  0  0  0  0
 11 30  1  0  0  0  0
 11 34  1  0  0  0  0
 12 14  2  0  0  0  0
 12 16  1  0  0  0  0
 13 38  1  0  0  0  0
 14 36  1  0  0  0  0
 15 18  1  0  0  0  0
 15 28  2  0  0  0  0
 16 37  2  0  0  0  0
 17 19  1  0  0  0  0
 17 31  2  0  0  0  0
 18 32  2  0  0  0  0
 19 33  2  0  0  0  0
 20 21  1  0  0  0  0
 20 35  1  0  0  0  0
 21 35  1  0  0  0  0
 22 32  1  0  0  0  0
 22 34  2  0  0  0  0
 23 24  1  0  0  0  0
 23 38  1  0  0  0  0
 24 38  1  0  0  0  0
 26 36  2  0  0  0  0
 26 37  1  0  0  0  0
 27 33  1  0  0  0  0
 28 34  1  0  0  0  0
 29 35  1  0  0  0  0
 30 36  1  0  0  0  0
 37 38  1  0  0  0  0
  8 39  1  0  0  0  0
 11 40  1  0  0  0  0
 12 41  1  0  0  0  0
 14 42  1  0  0  0  0
 15 43  1  0  0  0  0
 16 44  1  0  0  0  0
 17 45  1  0  0  0  0
 18 46  1  0  0  0  0
 19 47  1  0  0  0  0
 20 48  1  0  0  0  0
 20 49  1  0  0  0  0
 21 50  1  0  0  0  0
 21 51  1  0  0  0  0
 22 52  1  0  0  0  0
 23 53  1  0  0  0  0
 23 54  1  0  0  0  0
 24 55  1  0  0  0  0
 24 56  1  0  0  0  0
 35 57  1  0  0  0  0
M  END
> <pdb_id>
3VNT

> <uniprot_id>
P35968

> <usmiles>
Clc1c(cccc1C2(C#N)CC2)C(=O)Nc3c(F)ccc(Oc4nc5SC(=Nc5cc4)NC(=O)C6CC6)c3

$$$$
0JB_A_300
          07192423183D 1   1.00000     0.00000     0
            
 34 37  0  0  0  0            999 V2000
   -9.2426   55.7526   13.6874 O   0  0  0  0  0  0  0  0  0  0  0  0
   -1.0886   53.3048   12.8528 N   0  0  0  0  0  0  0  0  0  0  0  0
   -1.3925   53.7002   11.5924 N   0  0  0  0  0  0  0  0  0  0  0  0
   -2.2317   53.2547   13.5764 N   0  0  0  0  0  0  0  0  0  0  0  0
   -2.7794   53.8364   11.5483 N   0  0  0  0  0  0  0  0  0  0  0  0
   -9.5108   57.3399    8.0724 N   0  0  0  0  0  0  0  0  0  0  0  0
   -8.3614   56.0020    9.4184 N   0  0  0  0  0  0  0  0  0  0  0  0
   -7.7649   55.2101   12.0653 N   0  0  0  0  0  0  0  0  0  0  0  0
   -8.5035   56.4421    8.1588 C   0  0  0  0  0  0  0  0  0  0  0  0
   -6.3985   52.9174   14.6399 C   0  0  0  0  0  0  0  0  0  0  0  0
  -11.2748   58.3516   11.1849 C   0  0  0  0  0  0  0  0  0  0  0  0
   -7.3373   53.6528   13.9212 C   0  0  0  0  0  0  0  0  0  0  0  0
  -10.9919   58.3974    9.8200 C   0  0  0  0  0  0  0  0  0  0  0  0
   -5.0554   52.8697   14.3112 C   0  0  0  0  0  0  0  0  0  0  0  0
  -10.5768   57.5174   12.0233 C   0  0  0  0  0  0  0  0  0  0  0  0
   -5.5458   54.3498   12.4368 C   0  0  0  0  0  0  0  0  0  0  0  0
   -8.8515   55.8271   12.5188 C   0  0  0  0  0  0  0  0  0  0  0  0
   -3.2432   53.5747   12.7826 C   0  0  0  0  0  0  0  0  0  0  0  0
   -6.8876   54.4065   12.8225 C   0  0  0  0  0  0  0  0  0  0  0  0
   -9.9886   57.5601    9.3273 C   0  0  0  0  0  0  0  0  0  0  0  0
   -9.2614   56.7060   10.1915 C   0  0  0  0  0  0  0  0  0  0  0  0
   -4.6487   53.6053   13.1967 C   0  0  0  0  0  0  0  0  0  0  0  0
   -9.5884   56.6830   11.5467 C   0  0  0  0  0  0  0  0  0  0  0  0
   -2.3009   53.0167   14.5452 H   0  0  0  0  0  0  0  0  0  0  0  0
   -9.8462   57.7673    7.2329 H   0  0  0  0  0  0  0  0  0  0  0  0
   -7.5492   55.3269   11.0959 H   0  0  0  0  0  0  0  0  0  0  0  0
   -7.9400   56.1460    7.3876 H   0  0  0  0  0  0  0  0  0  0  0  0
   -6.7111   52.3970   15.4345 H   0  0  0  0  0  0  0  0  0  0  0  0
  -11.9963   58.9346   11.5585 H   0  0  0  0  0  0  0  0  0  0  0  0
   -8.3035   53.6451   14.1789 H   0  0  0  0  0  0  0  0  0  0  0  0
  -11.4932   59.0124    9.2114 H   0  0  0  0  0  0  0  0  0  0  0  0
   -4.4050   52.3322   14.8480 H   0  0  0  0  0  0  0  0  0  0  0  0
  -10.7902   57.5151   13.0003 H   0  0  0  0  0  0  0  0  0  0  0  0
   -5.2332   54.8393   11.6227 H   0  0  0  0  0  0  0  0  0  0  0  0
  1 17  2  0  0  0  0
  2  3  2  0  0  0  0
  2  4  1  0  0  0  0
  3  5  1  0  0  0  0
  4 18  1  0  0  0  0
  5 18  2  0  0  0  0
  6  9  1  0  0  0  0
  6 20  1  0  0  0  0
  7  9  2  0  0  0  0
  7 21  1  0  0  0  0
  8 17  1  0  0  0  0
  8 19  1  0  0  0  0
 10 12  1  0  0  0  0
 10 14  2  0  0  0  0
 11 13  2  0  0  0  0
 11 15  1  0  0  0  0
 12 19  2  0  0  0  0
 13 20  1  0  0  0  0
 14 22  1  0  0  0  0
 15 23  2  0  0  0  0
 16 19  1  0  0  0  0
 16 22  2  0  0  0  0
 17 23  1  0  0  0  0
 18 22  1  0  0  0  0
 20 21  2  0  0  0  0
 21 23  1  0  0  0  0
  4 24  1  0  0  0  0
  6 25  1  0  0  0  0
  8 26  1  0  0  0  0
  9 27  1  0  0  0  0
 10 28  1  0  0  0  0
 11 29  1  0  0  0  0
 12 30  1  0  0  0  0
 13 31  1  0  0  0  0
 14 32  1  0  0  0  0
 15 33  1  0  0  0  0
 16 34  1  0  0  0  0
M  END
> <pdb_id>
4DE0

> <uniprot_id>
Q9L5C8

> <usmiles>
O=C(Nc1cc(ccc1)C2=NN=NN2)c3c4N=CNc4ccc3

$$$$
0JE_A_701
          07192419173D 1   1.00000     0.00000     0
            
 47 49  0  0  0  0            999 V2000
   -3.6135   -1.1622   13.7231 F   0  0  0  0  0  0  0  0  0  0  0  0
    4.7332    3.0645   14.2399 O   0  0  0  0  0  0  0  0  0  0  0  0
   -3.4563   -3.0891   15.6196 O   0  0  0  0  0  0  0  0  0  0  0  0
    5.3122   -0.6439   16.0854 N   0  0  0  0  0  0  0  0  0  0  0  0
    4.2237   -1.2220   16.2157 N   0  0  0  0  0  0  0  0  0  0  0  0
    3.3786    1.2733   13.9569 N   0  0  0  0  0  0  0  0  0  0  0  0
    1.1204   -0.3475   14.4400 N   0  0  0  0  0  0  0  0  0  0  0  0
    1.2938   -1.8821   15.9627 N   0  0  0  0  0  0  0  0  0  0  0  0
    2.9476    3.2561   12.9053 N   0  0  0  0  0  0  0  0  0  0  0  0
   -4.6219   -4.9093   16.6151 C   0  0  0  0  0  0  0  0  0  0  0  0
    0.5128    3.1007   13.0898 C   0  0  0  0  0  0  0  0  0  0  0  0
    2.7853    5.5702   13.7050 C   0  0  0  0  0  0  0  0  0  0  0  0
   -3.2731   -4.4421   16.0639 C   0  0  0  0  0  0  0  0  0  0  0  0
    5.2238    0.3762   15.2205 C   0  0  0  0  0  0  0  0  0  0  0  0
    1.7427    2.6739   12.2868 C   0  0  0  0  0  0  0  0  0  0  0  0
    3.2561    4.6579   12.5694 C   0  0  0  0  0  0  0  0  0  0  0  0
   -1.3100   -0.6383   13.9688 C   0  0  0  0  0  0  0  0  0  0  0  0
   -1.0902   -2.6445   15.9039 C   0  0  0  0  0  0  0  0  0  0  0  0
    3.7307    2.5529   13.7376 C   0  0  0  0  0  0  0  0  0  0  0  0
   -2.4270   -1.3973   14.3193 C   0  0  0  0  0  0  0  0  0  0  0  0
    1.9622   -0.9460   15.2825 C   0  0  0  0  0  0  0  0  0  0  0  0
   -2.3236   -2.4030   15.2823 C   0  0  0  0  0  0  0  0  0  0  0  0
    3.9666    0.3959   14.7872 C   0  0  0  0  0  0  0  0  0  0  0  0
   -0.0815   -0.8919   14.5804 C   0  0  0  0  0  0  0  0  0  0  0  0
    0.0277   -1.8825   15.5514 C   0  0  0  0  0  0  0  0  0  0  0  0
    3.3136   -0.6362   15.4407 C   0  0  0  0  0  0  0  0  0  0  0  0
    6.1500   -0.9052   16.5648 H   0  0  0  0  0  0  0  0  0  0  0  0
    2.5893    0.9367   13.4434 H   0  0  0  0  0  0  0  0  0  0  0  0
    1.3558    0.3899   13.8068 H   0  0  0  0  0  0  0  0  0  0  0  0
   -4.5415   -5.8522   16.9381 H   0  0  0  0  0  0  0  0  0  0  0  0
   -4.8941   -4.3187   17.3748 H   0  0  0  0  0  0  0  0  0  0  0  0
   -5.3116   -4.8621   15.8925 H   0  0  0  0  0  0  0  0  0  0  0  0
   -0.3085    2.7088   12.6752 H   0  0  0  0  0  0  0  0  0  0  0  0
    0.5994    2.7740   14.0310 H   0  0  0  0  0  0  0  0  0  0  0  0
    0.4435    4.0983   13.0883 H   0  0  0  0  0  0  0  0  0  0  0  0
    2.9946    6.5212   13.4771 H   0  0  0  0  0  0  0  0  0  0  0  0
    1.7984    5.4665   13.8286 H   0  0  0  0  0  0  0  0  0  0  0  0
    3.2554    5.3190   14.5511 H   0  0  0  0  0  0  0  0  0  0  0  0
   -2.5766   -4.4783   16.7805 H   0  0  0  0  0  0  0  0  0  0  0  0
   -2.9941   -5.0217   15.2983 H   0  0  0  0  0  0  0  0  0  0  0  0
    5.9586    0.9997   14.9535 H   0  0  0  0  0  0  0  0  0  0  0  0
    1.8141    1.6764   12.2882 H   0  0  0  0  0  0  0  0  0  0  0  0
    1.6581    3.0007   11.3455 H   0  0  0  0  0  0  0  0  0  0  0  0
    2.7860    4.9092   11.7233 H   0  0  0  0  0  0  0  0  0  0  0  0
    4.2430    4.7617   12.4459 H   0  0  0  0  0  0  0  0  0  0  0  0
   -1.3894    0.0844   13.2822 H   0  0  0  0  0  0  0  0  0  0  0  0
   -1.0104   -3.3601   16.5978 H   0  0  0  0  0  0  0  0  0  0  0  0
  1 20  1  0  0  0  0
  2 19  2  0  0  0  0
  3 13  1  0  0  0  0
  3 22  1  0  0  0  0
  4  5  1  0  0  0  0
  4 14  1  0  0  0  0
  5 26  2  0  0  0  0
  6 19  1  0  0  0  0
  6 23  1  0  0  0  0
  7 21  1  0  0  0  0
  7 24  1  0  0  0  0
  8 21  2  0  0  0  0
  8 25  1  0  0  0  0
  9 15  1  0  0  0  0
  9 16  1  0  0  0  0
  9 19  1  0  0  0  0
 10 13  1  0  0  0  0
 11 15  1  0  0  0  0
 12 16  1  0  0  0  0
 14 23  2  0  0  0  0
 17 20  1  0  0  0  0
 17 24  2  0  0  0  0
 18 22  1  0  0  0  0
 18 25  2  0  0  0  0
 20 22  2  0  0  0  0
 21 26  1  0  0  0  0
 23 26  1  0  0  0  0
 24 25  1  0  0  0  0
  4 27  1  0  0  0  0
  6 28  1  0  0  0  0
  7 29  1  0  0  0  0
 10 30  1  0  0  0  0
 10 31  1  0  0  0  0
 10 32  1  0  0  0  0
 11 33  1  0  0  0  0
 11 34  1  0  0  0  0
 11 35  1  0  0  0  0
 12 36  1  0  0  0  0
 12 37  1  0  0  0  0
 12 38  1  0  0  0  0
 13 39  1  0  0  0  0
 13 40  1  0  0  0  0
 14 41  1  0  0  0  0
 15 42  1  0  0  0  0
 15 43  1  0  0  0  0
 16 44  1  0  0  0  0
 16 45  1  0  0  0  0
 17 46  1  0  0  0  0
 18 47  1  0  0  0  0
M  END
> <pdb_id>
3VF8

> <uniprot_id>
P43405

> <usmiles>
Fc1c(OCC)cc2N=C(Nc2c1)C3=NNC=C3NC(=O)N(CC)CC

$$$$
0JK_A_1401
          07202415303D 1   1.00000     0.00000     0
            
 44 48  0  0  0  0            999 V2000
   -3.3119  -13.3218   16.8522 O   0  0  0  0  0  0  0  0  0  0  0  0
   -0.2139  -13.8396   19.5924 N   0  0  0  0  0  0  0  0  0  0  0  0
   -0.9702  -13.9795   20.5664 N   0  0  0  0  0  0  0  0  0  0  0  0
   -0.4553  -18.3093   14.1608 N   0  0  0  0  0  0  0  0  0  0  0  0
   -0.8544  -13.7343   18.5357 N   0  0  0  0  0  0  0  0  0  0  0  0
   -4.5674  -14.1261   18.6164 N   0  0  0  0  0  0  0  0  0  0  0  0
   -1.1646  -18.3879   13.0329 C   0  0  0  0  0  0  0  0  0  0  0  0
   -4.5625  -14.6330   20.0305 C   0  0  0  0  0  0  0  0  0  0  0  0
   -1.8811  -17.2908   12.5725 C   0  0  0  0  0  0  0  0  0  0  0  0
   -8.1946  -13.8345   16.4536 C   0  0  0  0  0  0  0  0  0  0  0  0
   -7.0840  -14.4712   15.8931 C   0  0  0  0  0  0  0  0  0  0  0  0
   -8.0963  -13.2918   17.7350 C   0  0  0  0  0  0  0  0  0  0  0  0
   -0.2507  -13.5464   17.2085 C   0  0  0  0  0  0  0  0  0  0  0  0
   -3.4838  -14.0945   20.7338 C   0  0  0  0  0  0  0  0  0  0  0  0
   -5.8910  -14.5755   16.6073 C   0  0  0  0  0  0  0  0  0  0  0  0
   -6.8972  -13.3965   18.4447 C   0  0  0  0  0  0  0  0  0  0  0  0
    0.3520  -17.1558   16.0600 C   0  0  0  0  0  0  0  0  0  0  0  0
   -1.8488  -16.1033   13.2962 C   0  0  0  0  0  0  0  0  0  0  0  0
    0.4016  -15.9772   16.8083 C   0  0  0  0  0  0  0  0  0  0  0  0
   -1.0612  -14.8854   15.2212 C   0  0  0  0  0  0  0  0  0  0  0  0
   -3.3357  -13.7414   18.0115 C   0  0  0  0  0  0  0  0  0  0  0  0
   -2.2313  -13.9722   20.1386 C   0  0  0  0  0  0  0  0  0  0  0  0
   -0.3996  -17.1864   14.8856 C   0  0  0  0  0  0  0  0  0  0  0  0
   -5.7855  -14.0351   17.8864 C   0  0  0  0  0  0  0  0  0  0  0  0
   -0.3085  -14.8455   16.3945 C   0  0  0  0  0  0  0  0  0  0  0  0
   -1.1034  -16.0533   14.4712 C   0  0  0  0  0  0  0  0  0  0  0  0
   -2.1605  -13.8060   18.7696 C   0  0  0  0  0  0  0  0  0  0  0  0
   -2.4434  -13.0539   16.4351 H   0  0  0  0  0  0  0  0  0  0  0  0
   -1.1804  -19.2434   12.5154 H   0  0  0  0  0  0  0  0  0  0  0  0
   -4.4870  -15.6302   20.0233 H   0  0  0  0  0  0  0  0  0  0  0  0
   -5.4154  -14.3666   20.4795 H   0  0  0  0  0  0  0  0  0  0  0  0
   -2.4148  -17.3539   11.7292 H   0  0  0  0  0  0  0  0  0  0  0  0
   -9.0510  -13.7685   15.9414 H   0  0  0  0  0  0  0  0  0  0  0  0
   -7.1454  -14.8554   14.9719 H   0  0  0  0  0  0  0  0  0  0  0  0
   -8.8823  -12.8289   18.1448 H   0  0  0  0  0  0  0  0  0  0  0  0
    0.7043  -13.2708   17.3188 H   0  0  0  0  0  0  0  0  0  0  0  0
   -0.7498  -12.8308   16.7198 H   0  0  0  0  0  0  0  0  0  0  0  0
   -3.6126  -13.7922   21.6783 H   0  0  0  0  0  0  0  0  0  0  0  0
   -5.1062  -15.0412   16.1983 H   0  0  0  0  0  0  0  0  0  0  0  0
   -6.8332  -13.0095   19.3645 H   0  0  0  0  0  0  0  0  0  0  0  0
    0.8499  -17.9684   16.3629 H   0  0  0  0  0  0  0  0  0  0  0  0
   -2.3521  -15.2998   12.9783 H   0  0  0  0  0  0  0  0  0  0  0  0
    0.9481  -15.9425   17.6450 H   0  0  0  0  0  0  0  0  0  0  0  0
   -1.5679  -14.0771   14.9214 H   0  0  0  0  0  0  0  0  0  0  0  0
  1 21  1  0  0  0  0
  2  3  2  0  0  0  0
  2  5  1  0  0  0  0
  3 22  1  0  0  0  0
  4  7  2  0  0  0  0
  4 23  1  0  0  0  0
  5 13  1  0  0  0  0
  5 27  1  0  0  0  0
  6  8  1  0  0  0  0
  6 21  1  0  0  0  0
  6 24  1  0  0  0  0
  7  9  1  0  0  0  0
  8 14  1  0  0  0  0
  9 18  2  0  0  0  0
 10 11  2  0  0  0  0
 10 12  1  0  0  0  0
 11 15  1  0  0  0  0
 12 16  2  0  0  0  0
 13 25  1  0  0  0  0
 14 22  2  0  0  0  0
 15 24  2  0  0  0  0
 16 24  1  0  0  0  0
 17 19  1  0  0  0  0
 17 23  2  0  0  0  0
 18 26  1  0  0  0  0
 19 25  2  0  0  0  0
 20 25  1  0  0  0  0
 20 26  2  0  0  0  0
 21 27  2  0  0  0  0
 22 27  1  0  0  0  0
 23 26  1  0  0  0  0
  1 28  1  0  0  0  0
  7 29  1  0  0  0  0
  8 30  1  0  0  0  0
  8 31  1  0  0  0  0
  9 32  1  0  0  0  0
 10 33  1  0  0  0  0
 11 34  1  0  0  0  0
 12 35  1  0  0  0  0
 13 36  1  0  0  0  0
 13 37  1  0  0  0  0
 14 38  1  0  0  0  0
 15 39  1  0  0  0  0
 16 40  1  0  0  0  0
 17 41  1  0  0  0  0
 18 42  1  0  0  0  0
 19 43  1  0  0  0  0
 20 44  1  0  0  0  0
M  END
> <pdb_id>
4DEH

> <uniprot_id>
P08581

> <usmiles>
OC=1N(c2ccccc2)CC=C3N=NN(C13)Cc4cc5c(nccc5)cc4

$$$$
0K5_B_501
          07202415283D 1   1.00000     0.00000     0
            
 57 60  0  0  0  0            999 V2000
   14.0537   -3.1068  -53.0712 P   0  0  0  0  0  0  0  0  0  0  0  0
   12.8656   -2.2813  -53.4672 O   0  0  0  0  0  0  0  0  0  0  0  0
   14.7607   -3.7829  -54.2168 O   0  0  0  0  0  0  0  0  0  0  0  0
   14.9926   -2.3836  -52.1222 O   0  0  0  0  0  0  0  0  0  0  0  0
   16.2679  -12.8062  -51.7640 O   0  5  0  0  0  0  0  0  0  0  0  0
   13.9885  -11.4992  -51.1822 O   0  0  0  0  0  0  0  0  0  0  0  0
   11.1252   -8.8070  -50.4150 O   0  0  0  0  0  0  0  0  0  0  0  0
   13.3867   -4.3599  -52.2708 O   0  0  0  0  0  0  0  0  0  0  0  0
   20.4023   -8.7360  -54.1323 O   0  0  0  0  0  0  0  0  0  0  0  0
   10.7774   -5.6231  -48.7749 N   0  0  0  0  0  0  0  0  0  0  0  0
   13.5555   -8.8578  -51.5779 N   0  0  0  0  0  0  0  0  0  0  0  0
   16.1251  -11.4323  -52.0296 N   0  3  0  0  0  0  0  0  0  0  0  0
    9.5121   -7.6491  -48.4619 C   0  0  0  0  0  0  0  0  0  0  0  0
   13.6987   -4.6261  -50.9072 C   0  0  0  0  0  0  0  0  0  0  0  0
   11.7690   -4.9640  -49.3926 C   0  0  0  0  0  0  0  0  0  0  0  0
   13.2931   -7.4382  -51.7649 C   0  0  0  0  0  0  0  0  0  0  0  0
   22.9883   -7.1167  -51.3369 C   0  0  0  0  0  0  0  0  0  0  0  0
   22.0185   -7.9988  -50.9116 C   0  0  0  0  0  0  0  0  0  0  0  0
   23.0886   -6.7844  -52.6724 C   0  0  0  0  0  0  0  0  0  0  0  0
   21.1537   -8.5533  -51.8293 C   0  0  0  0  0  0  0  0  0  0  0  0
   22.2120   -7.3223  -53.5917 C   0  0  0  0  0  0  0  0  0  0  0  0
   19.4523  -10.7804  -53.4114 C   0  0  0  0  0  0  0  0  0  0  0  0
   18.3906  -11.4597  -52.8600 C   0  0  0  0  0  0  0  0  0  0  0  0
   18.1615   -8.7314  -53.3345 C   0  0  0  0  0  0  0  0  0  0  0  0
   15.8356   -8.7669  -52.4663 C   0  0  0  0  0  0  0  0  0  0  0  0
   14.9136  -10.8685  -51.6801 C   0  0  0  0  0  0  0  0  0  0  0  0
   11.3927   -7.5001  -50.0960 C   0  0  0  0  0  0  0  0  0  0  0  0
   21.2376   -8.1993  -53.1643 C   0  0  0  0  0  0  0  0  0  0  0  0
   19.3266   -9.4194  -53.6199 C   0  0  0  0  0  0  0  0  0  0  0  0
   10.6081   -6.8947  -49.1363 C   0  0  0  0  0  0  0  0  0  0  0  0
   14.7775   -9.4124  -51.9440 C   0  0  0  0  0  0  0  0  0  0  0  0
   17.2182  -10.7779  -52.5921 C   0  0  0  0  0  0  0  0  0  0  0  0
   12.6163   -5.4920  -50.3397 C   0  0  0  0  0  0  0  0  0  0  0  0
   17.0973   -9.4230  -52.7894 C   0  0  0  0  0  0  0  0  0  0  0  0
   12.4344   -6.8158  -50.7034 C   0  0  0  0  0  0  0  0  0  0  0  0
   12.4581   -1.8708  -52.6514 H   0  0  0  0  0  0  0  0  0  0  0  0
   15.5356   -4.3089  -53.8664 H   0  0  0  0  0  0  0  0  0  0  0  0
   13.1340  -11.0343  -50.9504 H   0  0  0  0  0  0  0  0  0  0  0  0
   11.6750   -9.2755  -51.1064 H   0  0  0  0  0  0  0  0  0  0  0  0
   12.8478   -9.4421  -51.1808 H   0  0  0  0  0  0  0  0  0  0  0  0
    9.4851   -8.5844  -48.8147 H   0  0  0  0  0  0  0  0  0  0  0  0
    9.6791   -7.6694  -47.4761 H   0  0  0  0  0  0  0  0  0  0  0  0
    8.6376   -7.1992  -48.6427 H   0  0  0  0  0  0  0  0  0  0  0  0
   13.7475   -3.7673  -50.3973 H   0  0  0  0  0  0  0  0  0  0  0  0
   14.5774   -5.0997  -50.8473 H   0  0  0  0  0  0  0  0  0  0  0  0
   11.9044   -4.0052  -49.1430 H   0  0  0  0  0  0  0  0  0  0  0  0
   12.8352   -7.3192  -52.6459 H   0  0  0  0  0  0  0  0  0  0  0  0
   14.1702   -6.9580  -51.7776 H   0  0  0  0  0  0  0  0  0  0  0  0
   23.6218   -6.7158  -50.6750 H   0  0  0  0  0  0  0  0  0  0  0  0
   21.9431   -8.2348  -49.9427 H   0  0  0  0  0  0  0  0  0  0  0  0
   23.8003   -6.1506  -52.9753 H   0  0  0  0  0  0  0  0  0  0  0  0
   20.4640   -9.2128  -51.5302 H   0  0  0  0  0  0  0  0  0  0  0  0
   22.2825   -7.0785  -54.5590 H   0  0  0  0  0  0  0  0  0  0  0  0
   20.2952  -11.2597  -53.6557 H   0  0  0  0  0  0  0  0  0  0  0  0
   18.4660  -12.4356  -52.6553 H   0  0  0  0  0  0  0  0  0  0  0  0
   18.0907   -7.7511  -53.5194 H   0  0  0  0  0  0  0  0  0  0  0  0
   15.7528   -7.7860  -52.6423 H   0  0  0  0  0  0  0  0  0  0  0  0
  1  2  1  0  0  0  0
  1  3  1  0  0  0  0
  1  4  2  0  0  0  0
  1  8  1  0  0  0  0
  5 12  1  0  0  0  0
  6 26  1  0  0  0  0
  7 27  1  0  0  0  0
  8 14  1  0  0  0  0
  9 28  1  0  0  0  0
  9 29  1  0  0  0  0
 10 15  1  0  0  0  0
 10 30  2  0  0  0  0
 11 16  1  0  0  0  0
 11 31  1  0  0  0  0
 12 26  2  0  0  0  0
 12 32  1  0  0  0  0
 13 30  1  0  0  0  0
 14 33  1  0  0  0  0
 15 33  2  0  0  0  0
 16 35  1  0  0  0  0
 17 18  2  0  0  0  0
 17 19  1  0  0  0  0
 18 20  1  0  0  0  0
 19 21  2  0  0  0  0
 20 28  2  0  0  0  0
 21 28  1  0  0  0  0
 22 23  1  0  0  0  0
 22 29  2  0  0  0  0
 23 32  2  0  0  0  0
 24 29  1  0  0  0  0
 24 34  2  0  0  0  0
 25 31  2  0  0  0  0
 25 34  1  0  0  0  0
 26 31  1  0  0  0  0
 27 30  1  0  0  0  0
 27 35  2  0  0  0  0
 32 34  1  0  0  0  0
 33 35  1  0  0  0  0
  2 36  1  0  0  0  0
  3 37  1  0  0  0  0
  6 38  1  0  0  0  0
  7 39  1  0  0  0  0
 11 40  1  0  0  0  0
 13 41  1  0  0  0  0
 13 42  1  0  0  0  0
 13 43  1  0  0  0  0
 14 44  1  0  0  0  0
 14 45  1  0  0  0  0
 15 46  1  0  0  0  0
 16 47  1  0  0  0  0
 16 48  1  0  0  0  0
 17 49  1  0  0  0  0
 18 50  1  0  0  0  0
 19 51  1  0  0  0  0
 20 52  1  0  0  0  0
 21 53  1  0  0  0  0
 22 54  1  0  0  0  0
 23 55  1  0  0  0  0
 24 56  1  0  0  0  0
 25 57  1  0  0  0  0
M  CHG  2   5  -1  12   1
M  END
> <pdb_id>
4GE7

> <uniprot_id>
Q8N5Z0

> <usmiles>
P(=O)(OCc1c(c(O)c(nc1)C)CNc2c(O)[n+]([O-])c3c(cc(Oc4ccccc4)cc3)c2)(O)O

$$$$
0KE_A_501
          07202415283D 1   1.00000     0.00000     0
            
 50 52  0  0  0  0            999 V2000
   14.2564   -3.1772  -53.0352 P   0  0  0  0  0  0  0  0  0  0  0  0
   12.9401   -2.4932  -53.2903 O   0  0  0  0  0  0  0  0  0  0  0  0
   15.1797   -2.3595  -52.1558 O   0  0  0  0  0  0  0  0  0  0  0  0
   14.9603   -3.7566  -54.2198 O   0  0  0  0  0  0  0  0  0  0  0  0
   16.2306  -12.8796  -52.3297 O   0  5  0  0  0  0  0  0  0  0  0  0
   14.0830  -11.5010  -51.4336 O   0  0  0  0  0  0  0  0  0  0  0  0
   11.4645   -8.8461  -50.3374 O   0  0  0  0  0  0  0  0  0  0  0  0
   13.8350   -4.5291  -52.2291 O   0  0  0  0  0  0  0  0  0  0  0  0
   20.4562  -11.6841  -54.3960 O   0  0  0  0  0  0  0  0  0  0  0  0
   10.7640   -5.5851  -48.9198 N   0  0  0  0  0  0  0  0  0  0  0  0
   13.8388   -8.7706  -51.5282 N   0  0  0  0  0  0  0  0  0  0  0  0
   16.1649  -11.4659  -52.4038 N   0  3  0  0  0  0  0  0  0  0  0  0
   21.5467  -10.8793  -54.8284 C   0  0  0  0  0  0  0  0  0  0  0  0
    9.6239   -7.6920  -48.6148 C   0  0  0  0  0  0  0  0  0  0  0  0
   13.8078   -4.5007  -50.8076 C   0  0  0  0  0  0  0  0  0  0  0  0
   11.7650   -4.8891  -49.4665 C   0  0  0  0  0  0  0  0  0  0  0  0
   13.7119   -7.3272  -51.5432 C   0  0  0  0  0  0  0  0  0  0  0  0
   19.4185   -9.4886  -54.0084 C   0  0  0  0  0  0  0  0  0  0  0  0
   18.3267   -8.7767  -53.5473 C   0  0  0  0  0  0  0  0  0  0  0  0
   18.3391  -11.5361  -53.4118 C   0  0  0  0  0  0  0  0  0  0  0  0
   16.0466   -8.7341  -52.5485 C   0  0  0  0  0  0  0  0  0  0  0  0
   15.0188  -10.8669  -51.9191 C   0  0  0  0  0  0  0  0  0  0  0  0
   11.6364   -7.4983  -50.0647 C   0  0  0  0  0  0  0  0  0  0  0  0
   19.4170  -10.8719  -53.9482 C   0  0  0  0  0  0  0  0  0  0  0  0
   10.7271   -6.8916  -49.2214 C   0  0  0  0  0  0  0  0  0  0  0  0
   14.9867   -9.3711  -52.0130 C   0  0  0  0  0  0  0  0  0  0  0  0
   17.2610  -10.8123  -52.9544 C   0  0  0  0  0  0  0  0  0  0  0  0
   12.7351   -5.4117  -50.2964 C   0  0  0  0  0  0  0  0  0  0  0  0
   17.2280   -9.4411  -53.0323 C   0  0  0  0  0  0  0  0  0  0  0  0
   12.6742   -6.7594  -50.6169 C   0  0  0  0  0  0  0  0  0  0  0  0
   12.3708   -3.0728  -53.8733 H   0  0  0  0  0  0  0  0  0  0  0  0
   16.0361   -2.8571  -52.0182 H   0  0  0  0  0  0  0  0  0  0  0  0
   13.2742  -11.0193  -51.0963 H   0  0  0  0  0  0  0  0  0  0  0  0
   12.1037   -9.3190  -50.9439 H   0  0  0  0  0  0  0  0  0  0  0  0
   13.0955   -9.3334  -51.1667 H   0  0  0  0  0  0  0  0  0  0  0  0
   22.2891  -11.4679  -55.1485 H   0  0  0  0  0  0  0  0  0  0  0  0
   21.2471  -10.2851  -55.5748 H   0  0  0  0  0  0  0  0  0  0  0  0
   21.8706  -10.3192  -54.0659 H   0  0  0  0  0  0  0  0  0  0  0  0
    9.7010   -8.6441  -48.9108 H   0  0  0  0  0  0  0  0  0  0  0  0
    9.6883   -7.6466  -47.6179 H   0  0  0  0  0  0  0  0  0  0  0  0
    8.7427   -7.3218  -48.9091 H   0  0  0  0  0  0  0  0  0  0  0  0
   13.6244   -3.5675  -50.4987 H   0  0  0  0  0  0  0  0  0  0  0  0
   14.6935   -4.8010  -50.4536 H   0  0  0  0  0  0  0  0  0  0  0  0
   11.8149   -3.9124  -49.2577 H   0  0  0  0  0  0  0  0  0  0  0  0
   13.4790   -7.0481  -52.4748 H   0  0  0  0  0  0  0  0  0  0  0  0
   14.5972   -6.9374  -51.2899 H   0  0  0  0  0  0  0  0  0  0  0  0
   20.2085   -9.0049  -54.3851 H   0  0  0  0  0  0  0  0  0  0  0  0
   18.3313   -7.7775  -53.5861 H   0  0  0  0  0  0  0  0  0  0  0  0
   18.3383  -12.5345  -53.3546 H   0  0  0  0  0  0  0  0  0  0  0  0
   16.0226   -7.7368  -52.6171 H   0  0  0  0  0  0  0  0  0  0  0  0
  1  2  1  0  0  0  0
  1  3  1  0  0  0  0
  1  4  2  0  0  0  0
  1  8  1  0  0  0  0
  5 12  1  0  0  0  0
  6 22  1  0  0  0  0
  7 23  1  0  0  0  0
  8 15  1  0  0  0  0
  9 13  1  0  0  0  0
  9 24  1  0  0  0  0
 10 16  1  0  0  0  0
 10 25  2  0  0  0  0
 11 17  1  0  0  0  0
 11 26  1  0  0  0  0
 12 22  2  0  0  0  0
 12 27  1  0  0  0  0
 14 25  1  0  0  0  0
 15 28  1  0  0  0  0
 16 28  2  0  0  0  0
 17 30  1  0  0  0  0
 18 19  1  0  0  0  0
 18 24  2  0  0  0  0
 19 29  2  0  0  0  0
 20 24  1  0  0  0  0
 20 27  2  0  0  0  0
 21 26  2  0  0  0  0
 21 29  1  0  0  0  0
 22 26  1  0  0  0  0
 23 25  1  0  0  0  0
 23 30  2  0  0  0  0
 27 29  1  0  0  0  0
 28 30  1  0  0  0  0
  2 31  1  0  0  0  0
  3 32  1  0  0  0  0
  6 33  1  0  0  0  0
  7 34  1  0  0  0  0
 11 35  1  0  0  0  0
 13 36  1  0  0  0  0
 13 37  1  0  0  0  0
 13 38  1  0  0  0  0
 14 39  1  0  0  0  0
 14 40  1  0  0  0  0
 14 41  1  0  0  0  0
 15 42  1  0  0  0  0
 15 43  1  0  0  0  0
 16 44  1  0  0  0  0
 17 45  1  0  0  0  0
 17 46  1  0  0  0  0
 18 47  1  0  0  0  0
 19 48  1  0  0  0  0
 20 49  1  0  0  0  0
 21 50  1  0  0  0  0
M  CHG  2   5  -1  12   1
M  END
> <pdb_id>
4GE4

> <uniprot_id>
Q8N5Z0

> <usmiles>
P(=O)(OCc1c(c(O)c(nc1)C)CNc2c(O)[n+]([O-])c3c(c2)ccc(OC)c3)(O)O

$$$$
0KG_A_306
          07192423203D 1   1.00000     0.00000     0
            
 41 42  0  0  0  0            999 V2000
   22.0313   13.5904  -10.4150 P   0  0  0  0  0  0  0  0  0  0  0  0
   20.9626   14.6532   -9.8969 O   0  0  0  0  0  0  0  0  0  0  0  0
   22.0745   12.3543   -9.4536 O   0  0  0  0  0  0  0  0  0  0  0  0
   21.7461   13.1771  -11.8202 O   0  0  0  0  0  0  0  0  0  0  0  0
   26.0752    9.1592  -10.8033 O   0  0  0  0  0  0  0  0  0  0  0  0
   24.6787   12.4015  -10.9949 O   0  0  0  0  0  0  0  0  0  0  0  0
   24.0206    9.9728  -10.3306 N   0  0  0  0  0  0  0  0  0  0  0  0
   25.8659   11.5554  -10.8055 C   0  0  0  0  0  0  0  0  0  0  0  0
   20.9535    7.0827   -9.6341 C   0  0  0  0  0  0  0  0  0  0  0  0
   25.0005   16.4328  -10.1138 C   0  0  0  0  0  0  0  0  0  0  0  0
   21.7756    6.9960  -10.9295 C   0  0  0  0  0  0  0  0  0  0  0  0
   21.8103    7.4418   -8.4378 C   0  0  0  0  0  0  0  0  0  0  0  0
   26.1622   15.7121  -10.3973 C   0  0  0  0  0  0  0  0  0  0  0  0
   23.7110   15.8402  -10.0974 C   0  0  0  0  0  0  0  0  0  0  0  0
   26.0628   14.3371  -10.6973 C   0  0  0  0  0  0  0  0  0  0  0  0
   22.4273    8.3841  -11.2152 C   0  0  0  0  0  0  0  0  0  0  0  0
   22.6797    8.6889   -8.7402 C   0  0  0  0  0  0  0  0  0  0  0  0
   25.2958   10.1107  -10.6617 C   0  0  0  0  0  0  0  0  0  0  0  0
   23.6644   14.4724  -10.3483 C   0  0  0  0  0  0  0  0  0  0  0  0
   24.7913   13.7577  -10.7159 C   0  0  0  0  0  0  0  0  0  0  0  0
   23.3967    8.6608  -10.0857 C   0  0  0  0  0  0  0  0  0  0  0  0
   20.9439   15.4369  -10.5178 H   0  0  0  0  0  0  0  0  0  0  0  0
   22.7478   11.6950   -9.7884 H   0  0  0  0  0  0  0  0  0  0  0  0
   23.4573   10.7944  -10.2432 H   0  0  0  0  0  0  0  0  0  0  0  0
   26.3630   11.8232   -9.9801 H   0  0  0  0  0  0  0  0  0  0  0  0
   26.4747   11.6181  -11.5963 H   0  0  0  0  0  0  0  0  0  0  0  0
   20.5212    6.1966   -9.4667 H   0  0  0  0  0  0  0  0  0  0  0  0
   20.2476    7.7820   -9.7466 H   0  0  0  0  0  0  0  0  0  0  0  0
   25.0806   17.4093   -9.9136 H   0  0  0  0  0  0  0  0  0  0  0  0
   21.1768    6.7444  -11.6898 H   0  0  0  0  0  0  0  0  0  0  0  0
   22.4912    6.3051  -10.8261 H   0  0  0  0  0  0  0  0  0  0  0  0
   22.4080    6.6705   -8.2188 H   0  0  0  0  0  0  0  0  0  0  0  0
   21.2177    7.6366   -7.6562 H   0  0  0  0  0  0  0  0  0  0  0  0
   27.0538   16.1649  -10.3878 H   0  0  0  0  0  0  0  0  0  0  0  0
   22.8850   16.3740   -9.9163 H   0  0  0  0  0  0  0  0  0  0  0  0
   26.8789   13.7927  -10.8912 H   0  0  0  0  0  0  0  0  0  0  0  0
   21.7236    9.0940  -11.2450 H   0  0  0  0  0  0  0  0  0  0  0  0
   22.9149    8.3612  -12.0880 H   0  0  0  0  0  0  0  0  0  0  0  0
   23.3706    8.7677   -8.0216 H   0  0  0  0  0  0  0  0  0  0  0  0
   22.0860    9.4934   -8.7214 H   0  0  0  0  0  0  0  0  0  0  0  0
   24.1032    7.9532  -10.0721 H   0  0  0  0  0  0  0  0  0  0  0  0
  1  2  1  0  0  0  0
  1  3  1  0  0  0  0
  1  4  2  0  0  0  0
  1 19  1  0  0  0  0
  5 18  2  0  0  0  0
  6  8  1  0  0  0  0
  6 20  1  0  0  0  0
  7 18  1  0  0  0  0
  7 21  1  0  0  0  0
  8 18  1  0  0  0  0
  9 11  1  0  0  0  0
  9 12  1  0  0  0  0
 10 13  2  0  0  0  0
 10 14  1  0  0  0  0
 11 16  1  0  0  0  0
 12 17  1  0  0  0  0
 13 15  1  0  0  0  0
 14 19  2  0  0  0  0
 15 20  2  0  0  0  0
 16 21  1  0  0  0  0
 17 21  1  0  0  0  0
 19 20  1  0  0  0  0
  2 22  1  0  0  0  0
  3 23  1  0  0  0  0
  7 24  1  0  0  0  0
  8 25  1  0  0  0  0
  8 26  1  0  0  0  0
  9 27  1  0  0  0  0
  9 28  1  0  0  0  0
 10 29  1  0  0  0  0
 11 30  1  0  0  0  0
 11 31  1  0  0  0  0
 12 32  1  0  0  0  0
 12 33  1  0  0  0  0
 13 34  1  0  0  0  0
 14 35  1  0  0  0  0
 15 36  1  0  0  0  0
 16 37  1  0  0  0  0
 16 38  1  0  0  0  0
 17 39  1  0  0  0  0
 17 40  1  0  0  0  0
 21 41  1  0  0  0  0
M  END
> <pdb_id>
4DHT

> <uniprot_id>
P31947

> <usmiles>
P(=O)(O)(O)c1c(OCC(=O)NC2CCCCC2)cccc1

$$$$
0KH_A_309
          07192423203D 1   1.00000     0.00000     0
            
 35 36  0  0  0  0            999 V2000
   21.1680    6.0710  -11.7530 Cl  0  0  0  0  0  0  0  0  0  0  0  0
   22.9000    8.5920  -12.3470 Cl  0  0  0  0  0  0  0  0  0  0  0  0
   21.9180   13.7190  -10.2900 P   0  0  0  0  0  0  0  0  0  0  0  0
   21.9600   12.5370   -9.2220 O   0  0  0  0  0  0  0  0  0  0  0  0
   20.9180   14.7950   -9.6930 O   0  0  0  0  0  0  0  0  0  0  0  0
   21.6100   13.2570  -11.6790 O   0  0  0  0  0  0  0  0  0  0  0  0
   25.4900    9.1100  -10.4680 O   0  0  0  0  0  0  0  0  0  0  0  0
   24.4530   12.4980  -10.8680 O   0  0  0  0  0  0  0  0  0  0  0  0
   23.5100   10.1990  -10.0480 N   0  0  0  0  0  0  0  0  0  0  0  0
   25.5000   11.5080  -10.6580 C   0  0  0  0  0  0  0  0  0  0  0  0
   24.9860   16.5260  -10.0390 C   0  0  0  0  0  0  0  0  0  0  0  0
   26.1440   15.7690  -10.3270 C   0  0  0  0  0  0  0  0  0  0  0  0
   21.5180    7.6940   -8.1500 C   0  0  0  0  0  0  0  0  0  0  0  0
   21.1380    6.8620   -9.1870 C   0  0  0  0  0  0  0  0  0  0  0  0
   23.6870   15.9430  -10.0340 C   0  0  0  0  0  0  0  0  0  0  0  0
   25.9800   14.3820  -10.5980 C   0  0  0  0  0  0  0  0  0  0  0  0
   22.3170    8.8160   -8.4300 C   0  0  0  0  0  0  0  0  0  0  0  0
   21.5820    7.1360  -10.4830 C   0  0  0  0  0  0  0  0  0  0  0  0
   22.3620    8.2710  -10.7590 C   0  0  0  0  0  0  0  0  0  0  0  0
   23.5670   14.5470  -10.2700 C   0  0  0  0  0  0  0  0  0  0  0  0
   24.8220   10.1430  -10.3810 C   0  0  0  0  0  0  0  0  0  0  0  0
   24.6960   13.8090  -10.5840 C   0  0  0  0  0  0  0  0  0  0  0  0
   22.7680    9.0930   -9.7310 C   0  0  0  0  0  0  0  0  0  0  0  0
   22.5790   11.8200   -9.5425 H   0  0  0  0  0  0  0  0  0  0  0  0
   20.8471   15.5693  -10.3219 H   0  0  0  0  0  0  0  0  0  0  0  0
   23.0613   11.0925  -10.0330 H   0  0  0  0  0  0  0  0  0  0  0  0
   26.0638   11.7716   -9.8753 H   0  0  0  0  0  0  0  0  0  0  0  0
   26.0733   11.4423  -11.4747 H   0  0  0  0  0  0  0  0  0  0  0  0
   25.0817   17.4998   -9.8326 H   0  0  0  0  0  0  0  0  0  0  0  0
   27.0490   16.1942  -10.3399 H   0  0  0  0  0  0  0  0  0  0  0  0
   21.2281    7.4999   -7.2128 H   0  0  0  0  0  0  0  0  0  0  0  0
   20.5510    6.0718   -9.0110 H   0  0  0  0  0  0  0  0  0  0  0  0
   22.8762   16.5042   -9.8679 H   0  0  0  0  0  0  0  0  0  0  0  0
   26.7784   13.8142  -10.7986 H   0  0  0  0  0  0  0  0  0  0  0  0
   22.5706    9.4323   -7.6844 H   0  0  0  0  0  0  0  0  0  0  0  0
  1 18  1  0  0  0  0
  2 19  1  0  0  0  0
  3  4  1  0  0  0  0
  3  5  1  0  0  0  0
  3  6  2  0  0  0  0
  3 20  1  0  0  0  0
  7 21  2  0  0  0  0
  8 10  1  0  0  0  0
  8 22  1  0  0  0  0
  9 21  1  0  0  0  0
  9 23  1  0  0  0  0
 10 21  1  0  0  0  0
 11 12  2  0  0  0  0
 11 15  1  0  0  0  0
 12 16  1  0  0  0  0
 13 14  2  0  0  0  0
 13 17  1  0  0  0  0
 14 18  1  0  0  0  0
 15 20  2  0  0  0  0
 16 22  2  0  0  0  0
 17 23  2  0  0  0  0
 18 19  2  0  0  0  0
 19 23  1  0  0  0  0
 20 22  1  0  0  0  0
  4 24  1  0  0  0  0
  5 25  1  0  0  0  0
  9 26  1  0  0  0  0
 10 27  1  0  0  0  0
 10 28  1  0  0  0  0
 11 29  1  0  0  0  0
 12 30  1  0  0  0  0
 13 31  1  0  0  0  0
 14 32  1  0  0  0  0
 15 33  1  0  0  0  0
 16 34  1  0  0  0  0
 17 35  1  0  0  0  0
M  END
> <pdb_id>
4DHU

> <uniprot_id>
P31947

> <usmiles>
Clc1c(Cl)cccc1NC(=O)COc2c(P(=O)(O)O)cccc2

$$$$
0KR_A_501
          07202405583D 1   1.00000     0.00000     0
            
 46 49  0  0  0  0            999 V2000
   68.1943   47.0658    9.9977 O   0  0  0  0  0  0  0  0  0  0  0  0
   65.7349   48.2323    6.2263 N   0  0  0  0  0  0  0  0  0  0  0  0
   73.9398   45.8363    5.5828 N   0  0  0  0  0  0  0  0  0  0  0  0
   67.4342   49.4200    7.4016 N   0  0  0  0  0  0  0  0  0  0  0  0
   66.8573   47.3247    8.1378 N   0  0  0  0  0  0  0  0  0  0  0  0
   66.2122   46.0070    8.1615 C   0  0  0  0  0  0  0  0  0  0  0  0
   70.3326   45.3174    0.5250 C   0  0  0  0  0  0  0  0  0  0  0  0
   73.2851   45.6057    4.4413 C   0  0  0  0  0  0  0  0  0  0  0  0
   73.4082   46.7170    6.4397 C   0  0  0  0  0  0  0  0  0  0  0  0
   70.9226   45.6918    1.8123 C   0  0  0  0  0  0  0  0  0  0  0  0
   71.9366   49.9375    9.0206 C   0  0  0  0  0  0  0  0  0  0  0  0
   71.4217   45.9707    2.8546 C   0  0  0  0  0  0  0  0  0  0  0  0
   72.4699   49.1451    8.0203 C   0  0  0  0  0  0  0  0  0  0  0  0
   70.5692   49.9642    9.2294 C   0  0  0  0  0  0  0  0  0  0  0  0
   66.2783   50.5217    9.9845 C   0  0  0  0  0  0  0  0  0  0  0  0
   67.3225   51.5238    9.5870 C   0  0  0  0  0  0  0  0  0  0  0  0
   71.5532   47.1566    5.0075 C   0  0  0  0  0  0  0  0  0  0  0  0
   70.2610   48.3907    7.4305 C   0  0  0  0  0  0  0  0  0  0  0  0
   66.6258   48.3758    7.2115 C   0  0  0  0  0  0  0  0  0  0  0  0
   67.7823   47.7370    9.0690 C   0  0  0  0  0  0  0  0  0  0  0  0
   72.0875   46.2412    4.1012 C   0  0  0  0  0  0  0  0  0  0  0  0
   72.2195   47.4048    6.2118 C   0  0  0  0  0  0  0  0  0  0  0  0
   71.6437   48.3486    7.2191 C   0  0  0  0  0  0  0  0  0  0  0  0
   67.7171   50.1008    9.8480 C   0  0  0  0  0  0  0  0  0  0  0  0
   69.7184   49.1974    8.4333 C   0  0  0  0  0  0  0  0  0  0  0  0
   68.2085   49.1888    8.6850 C   0  0  2  0  0  0  0  0  0  0  0  0
   65.1752   47.4052    6.1748 H   0  0  0  0  0  0  0  0  0  0  0  0
   65.6278   48.9519    5.5403 H   0  0  0  0  0  0  0  0  0  0  0  0
   66.5722   45.4733    8.9268 H   0  0  0  0  0  0  0  0  0  0  0  0
   65.2247   46.1213    8.2702 H   0  0  0  0  0  0  0  0  0  0  0  0
   66.4000   45.5285    7.3038 H   0  0  0  0  0  0  0  0  0  0  0  0
   69.6043   45.9619    0.2921 H   0  0  0  0  0  0  0  0  0  0  0  0
   71.0374   45.3404   -0.1840 H   0  0  0  0  0  0  0  0  0  0  0  0
   69.9532   44.3943    0.5881 H   0  0  0  0  0  0  0  0  0  0  0  0
   73.6714   44.9450    3.7977 H   0  0  0  0  0  0  0  0  0  0  0  0
   73.8948   46.8914    7.2958 H   0  0  0  0  0  0  0  0  0  0  0  0
   72.5402   50.4919    9.5937 H   0  0  0  0  0  0  0  0  0  0  0  0
   73.4581   49.1411    7.8677 H   0  0  0  0  0  0  0  0  0  0  0  0
   70.1884   50.5367    9.9555 H   0  0  0  0  0  0  0  0  0  0  0  0
   65.6010   50.2130    9.3166 H   0  0  0  0  0  0  0  0  0  0  0  0
   65.8553   50.5719   10.8893 H   0  0  0  0  0  0  0  0  0  0  0  0
   67.5940   52.2427   10.2269 H   0  0  0  0  0  0  0  0  0  0  0  0
   67.3398   51.8838    8.6542 H   0  0  0  0  0  0  0  0  0  0  0  0
   70.6990   47.6325    4.7977 H   0  0  0  0  0  0  0  0  0  0  0  0
   69.6555   47.8379    6.8579 H   0  0  0  0  0  0  0  0  0  0  0  0
   68.1901   49.9548   10.7168 H   0  0  0  0  0  0  0  0  0  0  0  0
  1 20  2  0  0  0  0
  2 19  1  0  0  0  0
  3  8  2  0  0  0  0
  3  9  1  0  0  0  0
  4 19  2  0  0  0  0
  4 26  1  0  0  0  0
  5  6  1  0  0  0  0
  5 19  1  0  0  0  0
  5 20  1  0  0  0  0
  7 10  1  0  0  0  0
  8 21  1  0  0  0  0
  9 22  2  0  0  0  0
 10 12  3  0  0  0  0
 11 13  1  0  0  0  0
 11 14  2  0  0  0  0
 12 21  1  0  0  0  0
 13 23  2  0  0  0  0
 14 25  1  0  0  0  0
 15 16  1  0  0  0  0
 15 24  1  0  0  0  0
 16 24  1  0  0  0  0
 17 21  2  0  0  0  0
 17 22  1  0  0  0  0
 18 23  1  0  0  0  0
 18 25  2  0  0  0  0
 20 26  1  0  0  0  0
 22 23  1  0  0  0  0
 24 26  1  0  0  0  0
 25 26  1  0  0  0  0
  2 27  1  0  0  0  0
  2 28  1  0  0  0  0
  6 29  1  0  0  0  0
  6 30  1  0  0  0  0
  6 31  1  0  0  0  0
  7 32  1  0  0  0  0
  7 33  1  0  0  0  0
  7 34  1  0  0  0  0
  8 35  1  0  0  0  0
  9 36  1  0  0  0  0
 11 37  1  0  0  0  0
 13 38  1  0  0  0  0
 14 39  1  0  0  0  0
 15 40  1  0  0  0  0
 15 41  1  0  0  0  0
 16 42  1  0  0  0  0
 16 43  1  0  0  0  0
 17 44  1  0  0  0  0
 18 45  1  0  0  0  0
 24 46  1  0  0  0  0
M  END
> <pdb_id>
4DJY

> <uniprot_id>
P56817

> <usmiles>
O=C1N(C(=N[C@@]1(c2cc(c3cncc(C#CC)c3)ccc2)C4CC4)N)C

$$$$
0L0_A_4000
          07202415283D 1   1.00000     0.00000     0
            
 63 66  0  0  0  0            999 V2000
   13.9960   -3.1970  -53.1070 P   0  0  0  0  0  0  0  0  0  0  0  0
   14.6960   -3.7810  -54.3610 O   0  0  0  0  0  0  0  0  0  0  0  0
   12.9140   -2.1400  -53.4810 O   0  0  0  0  0  0  0  0  0  0  0  0
   15.0830   -2.5160  -52.2310 O   0  0  0  0  0  0  0  0  0  0  0  0
   15.9990  -12.8730  -51.7500 O   0  5  0  0  0  0  0  0  0  0  0  0
   13.8200  -11.5430  -51.2560 O   0  0  0  0  0  0  0  0  0  0  0  0
   10.7620   -8.8650  -50.7290 O   0  0  0  0  0  0  0  0  0  0  0  0
   13.3110   -4.4160  -52.3280 O   0  0  0  0  0  0  0  0  0  0  0  0
   20.3830  -11.3380  -53.6520 O   0  0  0  0  0  0  0  0  0  0  0  0
   10.6600   -5.7450  -48.8570 N   0  0  0  0  0  0  0  0  0  0  0  0
   13.2380   -8.8750  -51.7440 N   0  0  0  0  0  0  0  0  0  0  0  0
   15.8610  -11.5000  -52.0570 N   0  3  0  0  0  0  0  0  0  0  0  0
   20.4200  -12.6840  -54.1590 C   0  0  0  0  0  0  0  0  0  0  0  0
    9.1680   -7.6290  -48.5840 C   0  0  0  0  0  0  0  0  0  0  0  0
   13.5840   -4.7560  -50.9640 C   0  0  0  0  0  0  0  0  0  0  0  0
   11.6510   -5.0460  -49.3990 C   0  0  0  0  0  0  0  0  0  0  0  0
   12.9730   -7.4560  -52.0080 C   0  0  0  0  0  0  0  0  0  0  0  0
   22.9970   -7.1430  -51.2530 C   0  0  0  0  0  0  0  0  0  0  0  0
   23.2040   -6.8960  -52.6060 C   0  0  0  0  0  0  0  0  0  0  0  0
   21.8380   -7.8320  -50.8370 C   0  0  0  0  0  0  0  0  0  0  0  0
   22.3250   -7.3730  -53.5640 C   0  0  0  0  0  0  0  0  0  0  0  0
   20.9220   -8.2750  -51.7910 C   0  0  0  0  0  0  0  0  0  0  0  0
   18.1260  -11.4320  -52.8870 C   0  0  0  0  0  0  0  0  0  0  0  0
   15.5070   -8.7150  -52.6150 C   0  0  0  0  0  0  0  0  0  0  0  0
   20.2120   -8.5250  -54.2220 C   0  0  0  0  0  0  0  0  0  0  0  0
   17.8650   -8.6920  -53.4470 C   0  0  0  0  0  0  0  0  0  0  0  0
   14.6950  -10.8850  -51.7630 C   0  0  0  0  0  0  0  0  0  0  0  0
   11.0580   -7.5800  -50.3120 C   0  0  0  0  0  0  0  0  0  0  0  0
   19.1820  -10.7180  -53.4560 C   0  0  0  0  0  0  0  0  0  0  0  0
   10.3320   -6.9540  -49.2670 C   0  0  0  0  0  0  0  0  0  0  0  0
   14.4850   -9.4550  -52.0490 C   0  0  0  0  0  0  0  0  0  0  0  0
   16.9290  -10.7900  -52.6000 C   0  0  0  0  0  0  0  0  0  0  0  0
   21.1750   -8.0530  -53.1550 C   0  0  0  0  0  0  0  0  0  0  0  0
   12.4270   -5.5740  -50.4260 C   0  0  0  0  0  0  0  0  0  0  0  0
   19.0500   -9.3350  -53.6890 C   0  0  0  0  0  0  0  0  0  0  0  0
   16.7870   -9.3950  -52.8940 C   0  0  0  0  0  0  0  0  0  0  0  0
   12.1350   -6.8590  -50.9020 C   0  0  0  0  0  0  0  0  0  0  0  0
   15.3806   -4.4528  -54.0781 H   0  0  0  0  0  0  0  0  0  0  0  0
   12.4881   -1.7894  -52.6469 H   0  0  0  0  0  0  0  0  0  0  0  0
   12.9445  -11.1182  -51.0258 H   0  0  0  0  0  0  0  0  0  0  0  0
   11.2887   -9.2846  -51.4683 H   0  0  0  0  0  0  0  0  0  0  0  0
   12.5196   -9.4411  -51.3398 H   0  0  0  0  0  0  0  0  0  0  0  0
   21.3707  -12.9830  -54.2418 H   0  0  0  0  0  0  0  0  0  0  0  0
   19.9333  -13.2905  -53.5303 H   0  0  0  0  0  0  0  0  0  0  0  0
   19.9817  -12.7140  -55.0573 H   0  0  0  0  0  0  0  0  0  0  0  0
    9.0247   -8.5335  -48.9857 H   0  0  0  0  0  0  0  0  0  0  0  0
    9.3641   -7.7249  -47.6081 H   0  0  0  0  0  0  0  0  0  0  0  0
    8.3438   -7.0759  -48.7056 H   0  0  0  0  0  0  0  0  0  0  0  0
   13.6861   -3.9211  -50.4231 H   0  0  0  0  0  0  0  0  0  0  0  0
   14.4270   -5.2914  -50.9129 H   0  0  0  0  0  0  0  0  0  0  0  0
   11.8427   -4.1239  -49.0629 H   0  0  0  0  0  0  0  0  0  0  0  0
   12.4833   -7.3686  -52.8755 H   0  0  0  0  0  0  0  0  0  0  0  0
   13.8418   -6.9641  -52.0646 H   0  0  0  0  0  0  0  0  0  0  0  0
   23.6667   -6.8336  -50.5779 H   0  0  0  0  0  0  0  0  0  0  0  0
   24.0014   -6.3647  -52.8920 H   0  0  0  0  0  0  0  0  0  0  0  0
   21.6745   -8.0015  -49.8651 H   0  0  0  0  0  0  0  0  0  0  0  0
   22.5111   -7.2325  -54.5364 H   0  0  0  0  0  0  0  0  0  0  0  0
   20.0888   -8.7486  -51.5054 H   0  0  0  0  0  0  0  0  0  0  0  0
   18.2317  -12.4059  -52.6861 H   0  0  0  0  0  0  0  0  0  0  0  0
   15.3823   -7.7462  -52.8293 H   0  0  0  0  0  0  0  0  0  0  0  0
   20.7173   -9.0912  -54.8732 H   0  0  0  0  0  0  0  0  0  0  0  0
   19.8459   -7.7221  -54.6924 H   0  0  0  0  0  0  0  0  0  0  0  0
   17.7695   -7.7208  -53.6651 H   0  0  0  0  0  0  0  0  0  0  0  0
  1  2  1  0  0  0  0
  1  3  1  0  0  0  0
  1  4  2  0  0  0  0
  1  8  1  0  0  0  0
  5 12  1  0  0  0  0
  6 27  1  0  0  0  0
  7 28  1  0  0  0  0
  8 15  1  0  0  0  0
  9 13  1  0  0  0  0
  9 29  1  0  0  0  0
 10 16  2  0  0  0  0
 10 30  1  0  0  0  0
 11 17  1  0  0  0  0
 11 31  1  0  0  0  0
 12 27  2  0  0  0  0
 12 32  1  0  0  0  0
 14 30  1  0  0  0  0
 15 34  1  0  0  0  0
 16 34  1  0  0  0  0
 17 37  1  0  0  0  0
 18 19  2  0  0  0  0
 18 20  1  0  0  0  0
 19 21  1  0  0  0  0
 20 22  2  0  0  0  0
 21 33  2  0  0  0  0
 22 33  1  0  0  0  0
 23 29  1  0  0  0  0
 23 32  2  0  0  0  0
 24 31  2  0  0  0  0
 24 36  1  0  0  0  0
 25 33  1  0  0  0  0
 25 35  1  0  0  0  0
 26 35  1  0  0  0  0
 26 36  2  0  0  0  0
 27 31  1  0  0  0  0
 28 30  2  0  0  0  0
 28 37  1  0  0  0  0
 29 35  2  0  0  0  0
 32 36  1  0  0  0  0
 34 37  2  0  0  0  0
  2 38  1  0  0  0  0
  3 39  1  0  0  0  0
  6 40  1  0  0  0  0
  7 41  1  0  0  0  0
 11 42  1  0  0  0  0
 13 43  1  0  0  0  0
 13 44  1  0  0  0  0
 13 45  1  0  0  0  0
 14 46  1  0  0  0  0
 14 47  1  0  0  0  0
 14 48  1  0  0  0  0
 15 49  1  0  0  0  0
 15 50  1  0  0  0  0
 16 51  1  0  0  0  0
 17 52  1  0  0  0  0
 17 53  1  0  0  0  0
 18 54  1  0  0  0  0
 19 55  1  0  0  0  0
 20 56  1  0  0  0  0
 21 57  1  0  0  0  0
 22 58  1  0  0  0  0
 23 59  1  0  0  0  0
 24 60  1  0  0  0  0
 25 61  1  0  0  0  0
 25 62  1  0  0  0  0
 26 63  1  0  0  0  0
M  CHG  2   5  -1  12   1
M  END
> <pdb_id>
4GE9

> <uniprot_id>
Q8N5Z0

> <usmiles>
P(=O)(OCc1c(c(O)c(nc1)C)CNc2c(O)[n+]([O-])c3c(c2)cc(c(OC)c3)Cc4ccccc4)(O)O

$$$$
0L1_A_401
          07192420423D 1   1.00000     0.00000     0
            
 20 19  0  0  0  0            999 V2000
    7.3912  191.2039   84.6996 O   0  0  0  0  0  0  0  0  0  0  0  0
    6.0083  192.6232   83.6778 O   0  0  0  0  0  0  0  0  0  0  0  0
   13.1668  195.6823   85.3449 O   0  0  0  0  0  0  0  0  0  0  0  0
   12.4004  196.1086   87.3825 O   0  0  0  0  0  0  0  0  0  0  0  0
    9.1691  193.2871   85.4456 C   0  0  0  0  0  0  0  0  0  0  0  0
   10.0184  194.5501   85.6888 C   0  0  0  0  0  0  0  0  0  0  0  0
    7.7833  193.6092   84.8512 C   0  0  0  0  0  0  0  0  0  0  0  0
   11.4419  194.1838   86.2541 C   0  0  0  0  0  0  0  0  0  0  0  0
    7.0288  192.3787   84.3659 C   0  0  0  0  0  0  0  0  0  0  0  0
   12.4026  195.3991   86.3291 C   0  0  0  0  0  0  0  0  0  0  0  0
    8.2157  191.0724   85.2500 H   0  0  0  0  0  0  0  0  0  0  0  0
   13.1555  195.1127   84.5230 H   0  0  0  0  0  0  0  0  0  0  0  0
    9.0416  192.8143   86.3175 H   0  0  0  0  0  0  0  0  0  0  0  0
    9.6588  192.6894   84.8108 H   0  0  0  0  0  0  0  0  0  0  0  0
    9.5477  195.1371   86.3475 H   0  0  0  0  0  0  0  0  0  0  0  0
   10.1278  195.0403   84.8241 H   0  0  0  0  0  0  0  0  0  0  0  0
    7.9075  194.2299   84.0771 H   0  0  0  0  0  0  0  0  0  0  0  0
    7.2341  194.0598   85.5551 H   0  0  0  0  0  0  0  0  0  0  0  0
   11.8512  193.4917   85.6596 H   0  0  0  0  0  0  0  0  0  0  0  0
   11.3313  193.8093   87.1747 H   0  0  0  0  0  0  0  0  0  0  0  0
  1  9  1  0  0  0  0
  2  9  2  0  0  0  0
  3 10  1  0  0  0  0
  4 10  2  0  0  0  0
  5  6  1  0  0  0  0
  5  7  1  0  0  0  0
  6  8  1  0  0  0  0
  7  9  1  0  0  0  0
  8 10  1  0  0  0  0
  1 11  1  0  0  0  0
  3 12  1  0  0  0  0
  5 13  1  0  0  0  0
  5 14  1  0  0  0  0
  6 15  1  0  0  0  0
  6 16  1  0  0  0  0
  7 17  1  0  0  0  0
  7 18  1  0  0  0  0
  8 19  1  0  0  0  0
  8 20  1  0  0  0  0
M  END
> <pdb_id>
5OKU

> <uniprot_id>
Q6N193

> <usmiles>
O=C(O)CCCCC(=O)O

$$$$
0LJ_A_513
          07192423233D 1   1.00000     0.00000     0
            
 44 46  0  0  0  0            999 V2000
   -6.4762  -15.5260   19.7442 Cl  0  0  0  0  0  0  0  0  0  0  0  0
   -7.4532  -15.2539   17.0236 F   0  0  0  0  0  0  0  0  0  0  0  0
   -4.7286  -15.3802   13.1585 O   0  0  0  0  0  0  0  0  0  0  0  0
   -1.3948  -16.2409   12.6505 O   0  0  0  0  0  0  0  0  0  0  0  0
   -4.0884  -18.5145    7.7538 N   0  0  0  0  0  0  0  0  0  0  0  0
   -2.6909  -20.1336    8.5119 N   0  0  0  0  0  0  0  0  0  0  0  0
   -2.1651  -17.8781    8.9694 N   0  0  0  0  0  0  0  0  0  0  0  0
   -3.2054  -16.0128   14.8184 N   0  0  0  0  0  0  0  0  0  0  0  0
   -2.9045  -15.6225   10.9981 N   0  0  0  0  0  0  0  0  0  0  0  0
   -1.1595  -12.1122    7.9047 C   0  0  0  0  0  0  0  0  0  0  0  0
   -1.2189  -12.0095    9.3012 C   0  0  0  0  0  0  0  0  0  0  0  0
   -4.1812  -15.9386   18.3961 C   0  0  0  0  0  0  0  0  0  0  0  0
   -1.3546  -13.3514    7.2821 C   0  0  0  0  0  0  0  0  0  0  0  0
   -3.4411  -16.0498   17.2382 C   0  0  0  0  0  0  0  0  0  0  0  0
   -1.4695  -13.1438   10.0742 C   0  0  0  0  0  0  0  0  0  0  0  0
   -5.4088  -15.6235   15.9289 C   0  0  0  0  0  0  0  0  0  0  0  0
   -1.8532  -15.9197    7.6961 C   0  0  0  0  0  0  0  0  0  0  0  0
   -5.5426  -15.6693   18.3166 C   0  0  0  0  0  0  0  0  0  0  0  0
   -3.0037  -18.8710    8.3972 C   0  0  0  0  0  0  0  0  0  0  0  0
   -6.1509  -15.5114   17.0857 C   0  0  0  0  0  0  0  0  0  0  0  0
   -3.6003  -15.7280   13.4623 C   0  0  0  0  0  0  0  0  0  0  0  0
   -2.5492  -15.8844   12.3606 C   0  0  0  0  0  0  0  0  0  0  0  0
   -4.0446  -15.9028   15.9995 C   0  0  0  0  0  0  0  0  0  0  0  0
   -2.5069  -16.4989    8.8473 C   0  0  2  0  0  0  0  0  0  0  0  0
   -1.6088  -14.4969    8.0600 C   0  0  0  0  0  0  0  0  0  0  0  0
   -1.9498  -15.7546    9.9967 C   0  0  1  0  0  0  0  0  0  0  0  0
   -1.6627  -14.3930    9.4426 C   0  0  0  0  0  0  0  0  0  0  0  0
   -4.3238  -17.5463    7.6686 H   0  0  0  0  0  0  0  0  0  0  0  0
   -4.6806  -19.2106    7.3480 H   0  0  0  0  0  0  0  0  0  0  0  0
   -1.8622  -20.4007    9.0038 H   0  0  0  0  0  0  0  0  0  0  0  0
   -1.3347  -18.1459    9.4580 H   0  0  0  0  0  0  0  0  0  0  0  0
   -2.2629  -16.3154   14.9604 H   0  0  0  0  0  0  0  0  0  0  0  0
   -3.8373  -15.3454   10.7678 H   0  0  0  0  0  0  0  0  0  0  0  0
   -0.9775  -11.2991    7.3518 H   0  0  0  0  0  0  0  0  0  0  0  0
   -1.0817  -11.1233    9.7436 H   0  0  0  0  0  0  0  0  0  0  0  0
   -3.7416  -16.0510   19.2872 H   0  0  0  0  0  0  0  0  0  0  0  0
   -1.3134  -13.4225    6.2855 H   0  0  0  0  0  0  0  0  0  0  0  0
   -2.4605  -16.2382   17.2927 H   0  0  0  0  0  0  0  0  0  0  0  0
   -1.5121  -13.0730   11.0707 H   0  0  0  0  0  0  0  0  0  0  0  0
   -5.8492  -15.5045   15.0390 H   0  0  0  0  0  0  0  0  0  0  0  0
   -2.4433  -15.9793    6.8910 H   0  0  0  0  0  0  0  0  0  0  0  0
   -0.9890  -16.3877    7.5114 H   0  0  0  0  0  0  0  0  0  0  0  0
   -3.4983  -16.3804    8.7919 H   0  0  0  0  0  0  0  0  0  0  0  0
   -1.1181  -16.1891   10.3424 H   0  0  0  0  0  0  0  0  0  0  0  0
  1 18  1  0  0  0  0
  2 20  1  0  0  0  0
  3 21  2  0  0  0  0
  4 22  2  0  0  0  0
  5 19  1  0  0  0  0
  6 19  2  0  0  0  0
  7 19  1  0  0  0  0
  7 24  1  0  0  0  0
  8 21  1  0  0  0  0
  8 23  1  0  0  0  0
  9 22  1  0  0  0  0
  9 26  1  0  0  0  0
 10 11  2  0  0  0  0
 10 13  1  0  0  0  0
 11 15  1  0  0  0  0
 12 14  1  0  0  0  0
 12 18  2  0  0  0  0
 13 25  2  0  0  0  0
 14 23  2  0  0  0  0
 15 27  2  0  0  0  0
 16 20  2  0  0  0  0
 16 23  1  0  0  0  0
 17 24  1  0  0  0  0
 17 25  1  0  0  0  0
 18 20  1  0  0  0  0
 21 22  1  0  0  0  0
 24 26  1  0  0  0  0
 25 27  1  0  0  0  0
 26 27  1  0  0  0  0
  5 28  1  0  0  0  0
  5 29  1  0  0  0  0
  6 30  1  0  0  0  0
  7 31  1  0  0  0  0
  8 32  1  0  0  0  0
  9 33  1  0  0  0  0
 10 34  1  0  0  0  0
 11 35  1  0  0  0  0
 12 36  1  0  0  0  0
 13 37  1  0  0  0  0
 14 38  1  0  0  0  0
 15 39  1  0  0  0  0
 16 40  1  0  0  0  0
 17 41  1  0  0  0  0
 17 42  1  0  0  0  0
 24 43  1  0  0  0  0
 26 44  1  0  0  0  0
M  END
> <pdb_id>
4DKR

> <uniprot_id>
nan

> <usmiles>
Clc1c(F)cc(NC(=O)C(=O)N[C@@H]2c3c(cccc3)C[C@H]2NC(=N)N)cc1

$$$$
0LK_A_613
          07192423233D 1   1.00000     0.00000     0
            
 44 46  0  0  0  0            999 V2000
   -6.2800  -14.9340   20.2090 Cl  0  0  0  0  0  0  0  0  0  0  0  0
   -7.4520  -15.2540   17.5610 F   0  0  0  0  0  0  0  0  0  0  0  0
   -5.0640  -15.5020   13.5190 O   0  0  0  0  0  0  0  0  0  0  0  0
   -1.7190  -16.4870   12.9070 O   0  0  0  0  0  0  0  0  0  0  0  0
    0.1800  -17.0470   10.9990 N   0  0  0  0  0  0  0  0  0  0  0  0
    1.7930  -16.4120    9.3670 N   0  0  0  0  0  0  0  0  0  0  0  0
   -0.0380  -15.0850    9.7750 N   0  0  0  0  0  0  0  0  0  0  0  0
   -3.3810  -15.9950   15.0670 N   0  0  0  0  0  0  0  0  0  0  0  0
   -3.3590  -15.9780   11.4590 N   0  0  0  0  0  0  0  0  0  0  0  0
   -4.4260  -13.7940    6.9490 C   0  0  0  0  0  0  0  0  0  0  0  0
   -4.7840  -15.0910    7.1930 C   0  0  0  0  0  0  0  0  0  0  0  0
   -4.0600  -15.3740   18.6870 C   0  0  0  0  0  0  0  0  0  0  0  0
   -3.4830  -13.1850    7.7370 C   0  0  0  0  0  0  0  0  0  0  0  0
   -3.3560  -15.6370   17.4170 C   0  0  0  0  0  0  0  0  0  0  0  0
   -4.1900  -15.8270    8.2640 C   0  0  0  0  0  0  0  0  0  0  0  0
   -5.4860  -15.6230   16.2930 C   0  0  0  0  0  0  0  0  0  0  0  0
   -1.8660  -13.4420    9.7450 C   0  0  0  0  0  0  0  0  0  0  0  0
   -5.4280  -15.2510   18.7170 C   0  0  0  0  0  0  0  0  0  0  0  0
    0.5970  -16.1340   10.0420 C   0  0  0  0  0  0  0  0  0  0  0  0
   -6.1430  -15.3690   17.5400 C   0  0  0  0  0  0  0  0  0  0  0  0
   -3.8260  -15.8600   13.8350 C   0  0  0  0  0  0  0  0  0  0  0  0
   -2.8950  -16.1300   12.6930 C   0  0  0  0  0  0  0  0  0  0  0  0
   -4.0550  -15.7730   16.2360 C   0  0  0  0  0  0  0  0  0  0  0  0
   -1.3640  -14.6510   10.4150 C   0  0  1  0  0  0  0  0  0  0  0  0
   -2.9020  -13.9170    8.7840 C   0  0  0  0  0  0  0  0  0  0  0  0
   -2.5120  -15.7850   10.1840 C   0  0  2  0  0  0  0  0  0  0  0  0
   -3.2570  -15.2320    9.0490 C   0  0  0  0  0  0  0  0  0  0  0  0
   -0.6678  -16.8887   11.5052 H   0  0  0  0  0  0  0  0  0  0  0  0
    0.7271  -17.8636   11.1829 H   0  0  0  0  0  0  0  0  0  0  0  0
    2.1315  -15.7810    8.6689 H   0  0  0  0  0  0  0  0  0  0  0  0
    0.3547  -14.4780    9.0840 H   0  0  0  0  0  0  0  0  0  0  0  0
   -2.4323  -16.2974   15.1592 H   0  0  0  0  0  0  0  0  0  0  0  0
   -4.3524  -15.9897   11.3446 H   0  0  0  0  0  0  0  0  0  0  0  0
   -4.8512  -13.2902    6.1970 H   0  0  0  0  0  0  0  0  0  0  0  0
   -5.4708  -15.5303    6.6140 H   0  0  0  0  0  0  0  0  0  0  0  0
   -3.5362  -15.2844   19.5341 H   0  0  0  0  0  0  0  0  0  0  0  0
   -3.2143  -12.2366    7.5686 H   0  0  0  0  0  0  0  0  0  0  0  0
   -2.3593  -15.7176   17.4127 H   0  0  0  0  0  0  0  0  0  0  0  0
   -4.4603  -16.7747    8.4339 H   0  0  0  0  0  0  0  0  0  0  0  0
   -6.0258  -15.6968   15.4545 H   0  0  0  0  0  0  0  0  0  0  0  0
   -1.1248  -12.9792    9.2587 H   0  0  0  0  0  0  0  0  0  0  0  0
   -2.2695  -12.8155   10.4118 H   0  0  0  0  0  0  0  0  0  0  0  0
   -1.2378  -14.4791   11.3920 H   0  0  0  0  0  0  0  0  0  0  0  0
   -2.0871  -16.6517    9.9228 H   0  0  0  0  0  0  0  0  0  0  0  0
  1 18  1  0  0  0  0
  2 20  1  0  0  0  0
  3 21  2  0  0  0  0
  4 22  2  0  0  0  0
  5 19  1  0  0  0  0
  6 19  2  0  0  0  0
  7 19  1  0  0  0  0
  7 24  1  0  0  0  0
  8 21  1  0  0  0  0
  8 23  1  0  0  0  0
  9 22  1  0  0  0  0
  9 26  1  0  0  0  0
 10 11  2  0  0  0  0
 10 13  1  0  0  0  0
 11 15  1  0  0  0  0
 12 14  1  0  0  0  0
 12 18  2  0  0  0  0
 13 25  2  0  0  0  0
 14 23  2  0  0  0  0
 15 27  2  0  0  0  0
 16 20  2  0  0  0  0
 16 23  1  0  0  0  0
 17 24  1  0  0  0  0
 17 25  1  0  0  0  0
 18 20  1  0  0  0  0
 21 22  1  0  0  0  0
 24 26  1  0  0  0  0
 25 27  1  0  0  0  0
 26 27  1  0  0  0  0
  5 28  1  0  0  0  0
  5 29  1  0  0  0  0
  6 30  1  0  0  0  0
  7 31  1  0  0  0  0
  8 32  1  0  0  0  0
  9 33  1  0  0  0  0
 10 34  1  0  0  0  0
 11 35  1  0  0  0  0
 12 36  1  0  0  0  0
 13 37  1  0  0  0  0
 14 38  1  0  0  0  0
 15 39  1  0  0  0  0
 16 40  1  0  0  0  0
 17 41  1  0  0  0  0
 17 42  1  0  0  0  0
 24 43  1  0  0  0  0
 26 44  1  0  0  0  0
M  END
> <pdb_id>
4DKQ

> <uniprot_id>
nan

> <usmiles>
Clc1c(F)cc(NC(=O)C(=O)N[C@H]2c3c(cccc3)C[C@@H]2NC(=N)N)cc1

$$$$
0MN_A_301
          07192423263D 1   1.00000     0.00000     0
            
 46 49  0  0  0  0            999 V2000
   27.4470   -6.7230   -2.6260 S   0  0  0  0  0  0  0  0  0  0  0  0
   27.9440  -12.9510   -7.6830 O   0  0  0  0  0  0  0  0  0  0  0  0
   31.4340  -18.2940  -10.4530 O   0  0  0  0  0  0  0  0  0  0  0  0
   29.0170  -15.3610   -7.5890 O   0  0  0  0  0  0  0  0  0  0  0  0
   27.3250   -6.3790   -5.1720 N   0  0  0  0  0  0  0  0  0  0  0  0
   27.8460  -12.8050   -5.3720 N   0  0  0  0  0  0  0  0  0  0  0  0
   32.3690  -19.3590  -10.7620 C   0  0  0  0  0  0  0  0  0  0  0  0
   28.8200  -14.7220   -6.2870 C   0  0  0  0  0  0  0  0  0  0  0  0
   27.3520   -2.7450   -3.0500 C   0  0  0  0  0  0  0  0  0  0  0  0
   27.2650   -2.6420   -4.4470 C   0  0  0  0  0  0  0  0  0  0  0  0
   31.2750  -18.2280   -6.7730 C   0  0  0  0  0  0  0  0  0  0  0  0
   27.4260   -4.0070   -2.3990 C   0  0  0  0  0  0  0  0  0  0  0  0
   31.6780  -18.6870   -8.0500 C   0  0  0  0  0  0  0  0  0  0  0  0
   30.4440  -17.0920   -6.6060 C   0  0  0  0  0  0  0  0  0  0  0  0
   27.2460   -3.8280   -5.2170 C   0  0  0  0  0  0  0  0  0  0  0  0
   27.4780  -10.5690   -6.1790 C   0  0  0  0  0  0  0  0  0  0  0  0
   27.8050  -11.0140   -3.8050 C   0  0  0  0  0  0  0  0  0  0  0  0
   27.4040   -9.2400   -5.8180 C   0  0  0  0  0  0  0  0  0  0  0  0
   27.6790   -9.6620   -3.4610 C   0  0  0  0  0  0  0  0  0  0  0  0
   30.2920  -16.8450   -8.9610 C   0  0  0  0  0  0  0  0  0  0  0  0
   27.4290   -7.3940   -4.2630 C   0  0  0  0  0  0  0  0  0  0  0  0
   28.1890  -13.3970   -6.5000 C   0  0  0  0  0  0  0  0  0  0  0  0
   27.4240   -5.1710   -3.1880 C   0  0  0  0  0  0  0  0  0  0  0  0
   31.1610  -17.9460   -9.1360 C   0  0  0  0  0  0  0  0  0  0  0  0
   29.8830  -16.4480   -7.7060 C   0  0  0  0  0  0  0  0  0  0  0  0
   27.7170  -11.4780   -5.1520 C   0  0  0  0  0  0  0  0  0  0  0  0
   27.3430   -5.1000   -4.6100 C   0  0  0  0  0  0  0  0  0  0  0  0
   27.4950   -8.7700   -4.4900 C   0  0  0  0  0  0  0  0  0  0  0  0
   27.6610  -13.4048   -4.5935 H   0  0  0  0  0  0  0  0  0  0  0  0
   32.4369  -19.4656  -11.7540 H   0  0  0  0  0  0  0  0  0  0  0  0
   33.2685  -19.1316  -10.3889 H   0  0  0  0  0  0  0  0  0  0  0  0
   32.0463  -20.2141  -10.3562 H   0  0  0  0  0  0  0  0  0  0  0  0
   29.7029  -14.6053   -5.8321 H   0  0  0  0  0  0  0  0  0  0  0  0
   28.2251  -15.2909   -5.7192 H   0  0  0  0  0  0  0  0  0  0  0  0
   27.3622   -1.9105   -2.4990 H   0  0  0  0  0  0  0  0  0  0  0  0
   27.2173   -1.7466   -4.8897 H   0  0  0  0  0  0  0  0  0  0  0  0
   31.5871  -18.7218   -5.9614 H   0  0  0  0  0  0  0  0  0  0  0  0
   27.4783   -4.0655   -1.4021 H   0  0  0  0  0  0  0  0  0  0  0  0
   32.2817  -19.4745   -8.1738 H   0  0  0  0  0  0  0  0  0  0  0  0
   30.2580  -16.7482   -5.6856 H   0  0  0  0  0  0  0  0  0  0  0  0
   27.1622   -3.7650   -6.2115 H   0  0  0  0  0  0  0  0  0  0  0  0
   27.3660  -10.8640   -7.1279 H   0  0  0  0  0  0  0  0  0  0  0  0
   27.9630  -11.6813   -3.0772 H   0  0  0  0  0  0  0  0  0  0  0  0
   27.2776   -8.5649   -6.5448 H   0  0  0  0  0  0  0  0  0  0  0  0
   27.7211   -9.3593   -2.5088 H   0  0  0  0  0  0  0  0  0  0  0  0
   29.9676  -16.3442   -9.7635 H   0  0  0  0  0  0  0  0  0  0  0  0
  1 21  1  0  0  0  0
  1 23  1  0  0  0  0
  2 22  2  0  0  0  0
  3  7  1  0  0  0  0
  3 24  1  0  0  0  0
  4  8  1  0  0  0  0
  4 25  1  0  0  0  0
  5 21  2  0  0  0  0
  5 27  1  0  0  0  0
  6 22  1  0  0  0  0
  6 26  1  0  0  0  0
  8 22  1  0  0  0  0
  9 10  2  0  0  0  0
  9 12  1  0  0  0  0
 10 15  1  0  0  0  0
 11 13  2  0  0  0  0
 11 14  1  0  0  0  0
 12 23  2  0  0  0  0
 13 24  1  0  0  0  0
 14 25  2  0  0  0  0
 15 27  2  0  0  0  0
 16 18  1  0  0  0  0
 16 26  2  0  0  0  0
 17 19  2  0  0  0  0
 17 26  1  0  0  0  0
 18 28  2  0  0  0  0
 19 28  1  0  0  0  0
 20 24  2  0  0  0  0
 20 25  1  0  0  0  0
 21 28  1  0  0  0  0
 23 27  1  0  0  0  0
  6 29  1  0  0  0  0
  7 30  1  0  0  0  0
  7 31  1  0  0  0  0
  7 32  1  0  0  0  0
  8 33  1  0  0  0  0
  8 34  1  0  0  0  0
  9 35  1  0  0  0  0
 10 36  1  0  0  0  0
 11 37  1  0  0  0  0
 12 38  1  0  0  0  0
 13 39  1  0  0  0  0
 14 40  1  0  0  0  0
 15 41  1  0  0  0  0
 16 42  1  0  0  0  0
 17 43  1  0  0  0  0
 18 44  1  0  0  0  0
 19 45  1  0  0  0  0
 20 46  1  0  0  0  0
M  END
> <pdb_id>
4DW6

> <uniprot_id>
P96222

> <usmiles>
S1c2c(N=C1c3ccc(NC(=O)COc4cc(OC)ccc4)cc3)cccc2

$$$$
0NH_E_1201
          07202414163D 1   1.00000     0.00000     0
            
 42 45  0  0  0  0            999 V2000
   54.7262   -8.8000   26.8179 S   0  0  0  0  0  0  0  0  0  0  0  0
   53.8144   -7.7126   26.8898 O   0  0  0  0  0  0  0  0  0  0  0  0
   56.0534   -8.5557   26.3330 O   0  0  0  0  0  0  0  0  0  0  0  0
   53.0136  -11.6576   33.9644 N   0  0  0  0  0  0  0  0  0  0  0  0
   49.4079  -11.1865   29.9025 N   0  0  0  0  0  0  0  0  0  0  0  0
   49.7878  -11.9528   32.2277 N   0  0  0  0  0  0  0  0  0  0  0  0
   55.0046   -9.2217   28.3985 N   0  0  0  0  0  0  0  0  0  0  0  0
   53.7163  -10.7509   32.0907 N   0  0  0  0  0  0  0  0  0  0  0  0
   54.0239  -10.2498   26.0047 C   0  0  0  0  0  0  0  0  0  0  0  0
   56.0351   -9.9655   31.7677 C   0  0  0  0  0  0  0  0  0  0  0  0
   54.0423  -11.1302   33.3668 C   0  0  0  0  0  0  0  0  0  0  0  0
   50.2118  -10.5904   28.9817 C   0  0  0  0  0  0  0  0  0  0  0  0
   50.6322  -12.0688   33.2212 C   0  0  0  0  0  0  0  0  0  0  0  0
   54.8359   -8.2101   29.4657 C   0  0  0  0  0  0  0  0  0  0  0  0
   55.4983  -10.5721   28.7273 C   0  0  0  0  0  0  0  0  0  0  0  0
   51.4451  -10.4248   29.4842 C   0  0  0  0  0  0  0  0  0  0  0  0
   54.0910   -8.7845   30.6739 C   0  0  0  0  0  0  0  0  0  0  0  0
   54.7584  -11.1366   29.9449 C   0  0  0  0  0  0  0  0  0  0  0  0
   50.1214  -11.4099   31.0573 C   0  0  0  0  0  0  0  0  0  0  0  0
   51.9565  -11.6491   33.1074 C   0  0  0  0  0  0  0  0  0  0  0  0
   52.3823  -11.0704   31.8935 C   0  0  0  0  0  0  0  0  0  0  0  0
   51.4341  -10.9515   30.8484 C   0  0  0  0  0  0  0  0  0  0  0  0
   54.6461  -10.1476   31.1212 C   0  0  0  0  0  0  0  0  0  0  0  0
   48.4470  -11.4253   29.7620 H   0  0  0  0  0  0  0  0  0  0  0  0
   54.7050  -10.9816   25.9815 H   0  0  0  0  0  0  0  0  0  0  0  0
   53.2193  -10.5593   26.5115 H   0  0  0  0  0  0  0  0  0  0  0  0
   53.7582  -10.0120   25.0704 H   0  0  0  0  0  0  0  0  0  0  0  0
   56.6606   -9.5556   31.1038 H   0  0  0  0  0  0  0  0  0  0  0  0
   55.9558   -9.3669   32.5648 H   0  0  0  0  0  0  0  0  0  0  0  0
   56.3890  -10.8560   32.0535 H   0  0  0  0  0  0  0  0  0  0  0  0
   54.9454  -11.0173   33.7812 H   0  0  0  0  0  0  0  0  0  0  0  0
   49.9257  -10.3156   28.0637 H   0  0  0  0  0  0  0  0  0  0  0  0
   50.3195  -12.4682   34.0830 H   0  0  0  0  0  0  0  0  0  0  0  0
   54.3162   -7.4374   29.1012 H   0  0  0  0  0  0  0  0  0  0  0  0
   55.7383   -7.8956   29.7603 H   0  0  0  0  0  0  0  0  0  0  0  0
   56.4762  -10.5237   28.9306 H   0  0  0  0  0  0  0  0  0  0  0  0
   55.3501  -11.1757   27.9440 H   0  0  0  0  0  0  0  0  0  0  0  0
   52.2270  -10.0167   29.0129 H   0  0  0  0  0  0  0  0  0  0  0  0
   53.1270   -8.8954   30.4321 H   0  0  0  0  0  0  0  0  0  0  0  0
   54.1718   -8.1409   31.4350 H   0  0  0  0  0  0  0  0  0  0  0  0
   55.2480  -11.9488   30.2621 H   0  0  0  0  0  0  0  0  0  0  0  0
   53.8348  -11.3939   29.6606 H   0  0  0  0  0  0  0  0  0  0  0  0
  1  2  2  0  0  0  0
  1  3  2  0  0  0  0
  1  7  1  0  0  0  0
  1  9  1  0  0  0  0
  4 11  2  0  0  0  0
  4 20  1  0  0  0  0
  5 12  1  0  0  0  0
  5 19  1  0  0  0  0
  6 13  2  0  0  0  0
  6 19  1  0  0  0  0
  7 14  1  0  0  0  0
  7 15  1  0  0  0  0
  8 11  1  0  0  0  0
  8 21  1  0  0  0  0
  8 23  1  0  0  0  0
 10 23  1  0  0  0  0
 12 16  2  0  0  0  0
 13 20  1  0  0  0  0
 14 17  1  0  0  0  0
 15 18  1  0  0  0  0
 16 22  1  0  0  0  0
 17 23  1  0  0  0  0
 18 23  1  0  0  0  0
 19 22  2  0  0  0  0
 20 21  2  0  0  0  0
 21 22  1  0  0  0  0
  5 24  1  0  0  0  0
  9 25  1  0  0  0  0
  9 26  1  0  0  0  0
  9 27  1  0  0  0  0
 10 28  1  0  0  0  0
 10 29  1  0  0  0  0
 10 30  1  0  0  0  0
 11 31  1  0  0  0  0
 12 32  1  0  0  0  0
 13 33  1  0  0  0  0
 14 34  1  0  0  0  0
 14 35  1  0  0  0  0
 15 36  1  0  0  0  0
 15 37  1  0  0  0  0
 16 38  1  0  0  0  0
 17 39  1  0  0  0  0
 17 40  1  0  0  0  0
 18 41  1  0  0  0  0
 18 42  1  0  0  0  0
M  END
> <pdb_id>
4E4M

> <uniprot_id>
O60674

> <usmiles>
S(=O)(=O)(N1CCC(N2c3c(N=C2)cnc4NC=Cc43)(CC1)C)C

$$$$
0NJ_A_601
          07192423323D 1   1.00000     0.00000     0
            
 28 30  0  0  0  0            999 V2000
   13.2990   38.3550   10.0920 S   0  0  0  0  0  0  0  0  0  0  0  0
   13.2550   35.5320    9.9970 F   0  0  0  0  0  0  0  0  0  0  0  0
   14.2310   43.6200   10.5140 O   0  0  0  0  0  0  0  0  0  0  0  0
   13.1460   38.9390    7.6850 N   0  0  0  0  0  0  0  0  0  0  0  0
   14.8160   43.5540   11.7600 C   0  0  0  0  0  0  0  0  0  0  0  0
   12.4510   33.9520    6.8290 C   0  0  0  0  0  0  0  0  0  0  0  0
   12.2960   35.0840    6.0440 C   0  0  0  0  0  0  0  0  0  0  0  0
   12.7610   34.1000    8.1730 C   0  0  0  0  0  0  0  0  0  0  0  0
   12.4550   36.3520    6.5800 C   0  0  0  0  0  0  0  0  0  0  0  0
   13.8180   42.5620    8.3970 C   0  0  0  0  0  0  0  0  0  0  0  0
   13.5370   41.4060    7.6680 C   0  0  0  0  0  0  0  0  0  0  0  0
   13.8260   41.2190   10.4410 C   0  0  0  0  0  0  0  0  0  0  0  0
   13.0070   37.8590    8.4730 C   0  0  0  0  0  0  0  0  0  0  0  0
   13.5330   40.0440    9.7190 C   0  0  0  0  0  0  0  0  0  0  0  0
   12.9370   35.3730    8.7130 C   0  0  0  0  0  0  0  0  0  0  0  0
   13.9640   42.4720    9.7940 C   0  0  0  0  0  0  0  0  0  0  0  0
   13.4010   40.1560    8.3320 C   0  0  0  0  0  0  0  0  0  0  0  0
   12.7670   36.4990    7.9150 C   0  0  0  0  0  0  0  0  0  0  0  0
   14.9304   44.4784   12.1239 H   0  0  0  0  0  0  0  0  0  0  0  0
   14.2322   43.0236   12.3747 H   0  0  0  0  0  0  0  0  0  0  0  0
   15.7100   43.1121   11.6855 H   0  0  0  0  0  0  0  0  0  0  0  0
   12.3408   33.0409    6.4317 H   0  0  0  0  0  0  0  0  0  0  0  0
   12.0659   34.9840    5.0760 H   0  0  0  0  0  0  0  0  0  0  0  0
   12.8583   33.2927    8.7550 H   0  0  0  0  0  0  0  0  0  0  0  0
   12.3437   37.1588    5.9997 H   0  0  0  0  0  0  0  0  0  0  0  0
   13.9144   43.4427    7.9332 H   0  0  0  0  0  0  0  0  0  0  0  0
   13.4309   41.4567    6.6749 H   0  0  0  0  0  0  0  0  0  0  0  0
   13.9391   41.1669   11.4332 H   0  0  0  0  0  0  0  0  0  0  0  0
  1 13  1  0  0  0  0
  1 14  1  0  0  0  0
  2 15  1  0  0  0  0
  3  5  1  0  0  0  0
  3 16  1  0  0  0  0
  4 13  2  0  0  0  0
  4 17  1  0  0  0  0
  6  7  2  0  0  0  0
  6  8  1  0  0  0  0
  7  9  1  0  0  0  0
  8 15  2  0  0  0  0
  9 18  2  0  0  0  0
 10 11  1  0  0  0  0
 10 16  2  0  0  0  0
 11 17  2  0  0  0  0
 12 14  2  0  0  0  0
 12 16  1  0  0  0  0
 13 18  1  0  0  0  0
 14 17  1  0  0  0  0
 15 18  1  0  0  0  0
  5 19  1  0  0  0  0
  5 20  1  0  0  0  0
  5 21  1  0  0  0  0
  6 22  1  0  0  0  0
  7 23  1  0  0  0  0
  8 24  1  0  0  0  0
  9 25  1  0  0  0  0
 10 26  1  0  0  0  0
 11 27  1  0  0  0  0
 12 28  1  0  0  0  0
M  END
> <pdb_id>
4E5D

> <uniprot_id>
P08659

> <usmiles>
S1c2c(N=C1c3c(F)cccc3)ccc(OC)c2

$$$$
0NL_B_1201
          07212403553D 1   1.00000     0.00000     0
            
 48 51  0  0  0  0            999 V2000
   39.9639   22.3383  239.0298 O   0  0  0  0  0  0  0  0  0  0  0  0
   37.9596   21.3825  238.6042 O   0  0  0  0  0  0  0  0  0  0  0  0
   38.0108   21.5702  248.2724 N   0  0  0  0  0  0  0  0  0  0  0  0
   42.4768   23.3864  245.7615 N   0  0  0  0  0  0  0  0  0  0  0  0
   40.1507   22.7954  248.6078 N   0  0  0  0  0  0  0  0  0  0  0  0
   39.1850   20.7607  240.4154 N   0  0  0  0  0  0  0  0  0  0  0  0
   40.9716   22.3009  244.5873 N   0  0  0  0  0  0  0  0  0  0  0  0
   37.5659   23.3848  237.3372 C   0  0  0  0  0  0  0  0  0  0  0  0
   36.5601   21.1941  236.6936 C   0  0  0  0  0  0  0  0  0  0  0  0
   39.0391   21.5593  236.3787 C   0  0  0  0  0  0  0  0  0  0  0  0
   42.1873   22.9258  244.5585 C   0  0  0  0  0  0  0  0  0  0  0  0
   37.3709   20.9956  247.1942 C   0  0  0  0  0  0  0  0  0  0  0  0
   41.2357   23.2471  248.0109 C   0  0  0  0  0  0  0  0  0  0  0  0
   38.1252   21.1379  246.0895 C   0  0  0  0  0  0  0  0  0  0  0  0
   40.2714   19.5526  242.1805 C   0  0  0  0  0  0  0  0  0  0  0  0
   40.7338   20.1108  243.5509 C   0  0  0  0  0  0  0  0  0  0  0  0
   40.5484   22.0632  242.0786 C   0  0  0  0  0  0  0  0  0  0  0  0
   39.0928   21.5230  239.3142 C   0  0  0  0  0  0  0  0  0  0  0  0
   39.1945   22.1262  247.9082 C   0  0  0  0  0  0  0  0  0  0  0  0
   40.3811   20.7671  241.2502 C   0  0  2  0  0  0  0  0  0  0  0  0
   41.4652   23.0542  246.6304 C   0  0  0  0  0  0  0  0  0  0  0  0
   40.2418   21.6007  243.5109 C   0  0  2  0  0  0  0  0  0  0  0  0
   40.4975   22.3574  245.8819 C   0  0  0  0  0  0  0  0  0  0  0  0
   39.3308   21.8818  246.5238 C   0  0  0  0  0  0  0  0  0  0  0  0
   37.8105   21.8786  237.2562 C   0  0  0  0  0  0  0  0  0  0  0  0
   37.6486   21.5764  249.2045 H   0  0  0  0  0  0  0  0  0  0  0  0
   38.4156   20.1746  240.6694 H   0  0  0  0  0  0  0  0  0  0  0  0
   37.4587   23.7552  236.4145 H   0  0  0  0  0  0  0  0  0  0  0  0
   36.7349   23.5597  237.8652 H   0  0  0  0  0  0  0  0  0  0  0  0
   38.3441   23.8253  237.7848 H   0  0  0  0  0  0  0  0  0  0  0  0
   36.4056   21.5016  235.7547 H   0  0  0  0  0  0  0  0  0  0  0  0
   36.6904   20.2026  236.7025 H   0  0  0  0  0  0  0  0  0  0  0  0
   35.7684   21.4313  237.2566 H   0  0  0  0  0  0  0  0  0  0  0  0
   38.8933   21.9196  235.4573 H   0  0  0  0  0  0  0  0  0  0  0  0
   39.8525   21.9828  236.7774 H   0  0  0  0  0  0  0  0  0  0  0  0
   39.1675   20.5686  236.3328 H   0  0  0  0  0  0  0  0  0  0  0  0
   42.7683   23.0196  243.7501 H   0  0  0  0  0  0  0  0  0  0  0  0
   36.4805   20.5417  247.2284 H   0  0  0  0  0  0  0  0  0  0  0  0
   41.9166   23.7412  248.5515 H   0  0  0  0  0  0  0  0  0  0  0  0
   37.9161   20.8102  245.1682 H   0  0  0  0  0  0  0  0  0  0  0  0
   39.3289   19.2216  242.2279 H   0  0  0  0  0  0  0  0  0  0  0  0
   40.8697   18.8119  241.8749 H   0  0  0  0  0  0  0  0  0  0  0  0
   41.7286   20.0633  243.6410 H   0  0  0  0  0  0  0  0  0  0  0  0
   40.3067   19.6115  244.3048 H   0  0  0  0  0  0  0  0  0  0  0  0
   39.9015   22.7654  241.7815 H   0  0  0  0  0  0  0  0  0  0  0  0
   41.4809   22.4173  242.0072 H   0  0  0  0  0  0  0  0  0  0  0  0
   41.1836   20.6530  240.6645 H   0  0  0  0  0  0  0  0  0  0  0  0
   39.2572   21.6415  243.6812 H   0  0  0  0  0  0  0  0  0  0  0  0
  1 18  2  0  0  0  0
  2 18  1  0  0  0  0
  2 25  1  0  0  0  0
  3 12  1  0  0  0  0
  3 19  1  0  0  0  0
  4 11  2  0  0  0  0
  4 21  1  0  0  0  0
  5 13  2  0  0  0  0
  5 19  1  0  0  0  0
  6 18  1  0  0  0  0
  6 20  1  0  0  0  0
  7 11  1  0  0  0  0
  7 22  1  0  0  0  0
  7 23  1  0  0  0  0
  8 25  1  0  0  0  0
  9 25  1  0  0  0  0
 10 25  1  0  0  0  0
 12 14  2  0  0  0  0
 13 21  1  0  0  0  0
 14 24  1  0  0  0  0
 15 16  1  0  0  0  0
 15 20  1  0  0  0  0
 16 22  1  0  0  0  0
 17 20  1  0  0  0  0
 17 22  1  0  0  0  0
 19 24  2  0  0  0  0
 21 23  2  0  0  0  0
 23 24  1  0  0  0  0
  3 26  1  0  0  0  0
  6 27  1  0  0  0  0
  8 28  1  0  0  0  0
  8 29  1  0  0  0  0
  8 30  1  0  0  0  0
  9 31  1  0  0  0  0
  9 32  1  0  0  0  0
  9 33  1  0  0  0  0
 10 34  1  0  0  0  0
 10 35  1  0  0  0  0
 10 36  1  0  0  0  0
 11 37  1  0  0  0  0
 12 38  1  0  0  0  0
 13 39  1  0  0  0  0
 14 40  1  0  0  0  0
 15 41  1  0  0  0  0
 15 42  1  0  0  0  0
 16 43  1  0  0  0  0
 16 44  1  0  0  0  0
 17 45  1  0  0  0  0
 17 46  1  0  0  0  0
 20 47  1  0  0  0  0
 22 48  1  0  0  0  0
M  END
> <pdb_id>
4E4N

> <uniprot_id>
P23458

> <usmiles>
O=C(OC(C)(C)C)N[C@H]1C[C@H](N2c3c(N=C2)cnc4NC=Cc43)CC1

$$$$
0NT_B_1202
          07212403553D 1   1.00000     0.00000     0
            
 56 60  0  0  0  0            999 V2000
   39.7409   21.3805  238.8776 O   0  0  0  0  0  0  0  0  0  0  0  0
   42.6685   23.1187  246.0297 N   0  0  0  0  0  0  0  0  0  0  0  0
   40.1197   22.6704  248.6449 N   0  0  0  0  0  0  0  0  0  0  0  0
   37.9672   21.5086  248.2126 N   0  0  0  0  0  0  0  0  0  0  0  0
   40.3951   20.5538  240.8654 N   0  0  0  0  0  0  0  0  0  0  0  0
   41.2534   22.0494  244.7532 N   0  0  0  0  0  0  0  0  0  0  0  0
   41.4631   20.0372  237.2817 N   0  0  0  0  0  0  0  0  0  0  0  0
   40.8634   18.6163  235.2885 C   0  0  0  0  0  0  0  0  0  0  0  0
   39.6258   18.3211  237.3748 C   0  0  0  0  0  0  0  0  0  0  0  0
   42.4942   22.6270  244.8401 C   0  0  0  0  0  0  0  0  0  0  0  0
   37.4060   20.9235  247.1040 C   0  0  0  0  0  0  0  0  0  0  0  0
   41.2491   23.1253  248.1279 C   0  0  0  0  0  0  0  0  0  0  0  0
   39.2640   21.1934  241.5856 C   0  0  0  0  0  0  0  0  0  0  0  0
   41.3111   19.7464  241.6989 C   0  0  0  0  0  0  0  0  0  0  0  0
   42.7433   20.4983  236.6559 C   0  0  0  0  0  0  0  0  0  0  0  0
   43.3149   21.5495  237.6179 C   0  0  0  0  0  0  0  0  0  0  0  0
   38.2530   21.0250  246.0636 C   0  0  0  0  0  0  0  0  0  0  0  0
   39.8298   22.1156  242.6837 C   0  0  0  0  0  0  0  0  0  0  0  0
   41.8828   20.5780  242.8626 C   0  0  0  0  0  0  0  0  0  0  0  0
   43.0348   20.8764  238.9701 C   0  0  0  0  0  0  0  0  0  0  0  0
   39.2015   22.0214  247.9129 C   0  0  0  0  0  0  0  0  0  0  0  0
   40.5498   20.7073  239.5164 C   0  0  0  0  0  0  0  0  0  0  0  0
   41.0068   18.6939  236.8135 C   0  0  0  0  0  0  0  0  0  0  0  0
   41.5785   22.8561  246.7960 C   0  0  0  0  0  0  0  0  0  0  0  0
   40.7320   21.2906  243.6115 C   0  0  0  0  0  0  0  0  0  0  0  0
   40.6529   22.1594  245.9823 C   0  0  0  0  0  0  0  0  0  0  0  0
   39.4335   21.7437  246.5482 C   0  0  0  0  0  0  0  0  0  0  0  0
   41.7194   20.0819  238.7636 C   0  0  1  0  0  0  0  0  0  0  0  0
   37.5433   21.5673  249.0830 H   0  0  0  0  0  0  0  0  0  0  0  0
   41.9134   19.0809  239.1297 H   0  0  0  0  0  0  0  0  0  0  0  0
   40.5570   17.7005  235.0287 H   0  0  0  0  0  0  0  0  0  0  0  0
   40.1927   19.2917  234.9820 H   0  0  0  0  0  0  0  0  0  0  0  0
   41.7471   18.8061  234.8605 H   0  0  0  0  0  0  0  0  0  0  0  0
   39.3613   17.4179  237.0367 H   0  0  0  0  0  0  0  0  0  0  0  0
   39.6654   18.3045  238.3739 H   0  0  0  0  0  0  0  0  0  0  0  0
   38.9519   18.9982  237.0791 H   0  0  0  0  0  0  0  0  0  0  0  0
   43.1643   22.6641  244.0987 H   0  0  0  0  0  0  0  0  0  0  0  0
   36.5059   20.4887  247.0747 H   0  0  0  0  0  0  0  0  0  0  0  0
   41.8719   23.6656  248.6937 H   0  0  0  0  0  0  0  0  0  0  0  0
   38.6896   20.4887  242.0020 H   0  0  0  0  0  0  0  0  0  0  0  0
   38.7184   21.7317  240.9433 H   0  0  0  0  0  0  0  0  0  0  0  0
   42.0657   19.4183  241.1307 H   0  0  0  0  0  0  0  0  0  0  0  0
   40.8101   18.9651  242.0714 H   0  0  0  0  0  0  0  0  0  0  0  0
   42.5675   20.9042  235.7590 H   0  0  0  0  0  0  0  0  0  0  0  0
   43.3792   19.7329  236.5565 H   0  0  0  0  0  0  0  0  0  0  0  0
   42.8368   22.4239  237.5352 H   0  0  0  0  0  0  0  0  0  0  0  0
   44.2941   21.6898  237.4715 H   0  0  0  0  0  0  0  0  0  0  0  0
   38.1050   20.6769  245.1379 H   0  0  0  0  0  0  0  0  0  0  0  0
   39.0773   22.5099  243.2112 H   0  0  0  0  0  0  0  0  0  0  0  0
   40.3629   22.8498  242.2633 H   0  0  0  0  0  0  0  0  0  0  0  0
   42.5176   21.2613  242.5019 H   0  0  0  0  0  0  0  0  0  0  0  0
   42.3673   19.9742  243.4956 H   0  0  0  0  0  0  0  0  0  0  0  0
   42.9204   21.5639  239.6871 H   0  0  0  0  0  0  0  0  0  0  0  0
   43.7823   20.2593  239.2161 H   0  0  0  0  0  0  0  0  0  0  0  0
   41.6707   18.0072  237.1097 H   0  0  0  0  0  0  0  0  0  0  0  0
   40.1560   20.5682  243.9939 H   0  0  0  0  0  0  0  0  0  0  0  0
  1 22  2  0  0  0  0
  2 10  2  0  0  0  0
  2 24  1  0  0  0  0
  3 12  2  0  0  0  0
  3 21  1  0  0  0  0
  4 11  1  0  0  0  0
  4 21  1  0  0  0  0
  4 29  1  0  0  0  0
  5 13  1  0  0  0  0
  5 14  1  0  0  0  0
  5 22  1  0  0  0  0
  6 10  1  0  0  0  0
  6 25  1  0  0  0  0
  6 26  1  0  0  0  0
  7 15  1  0  0  0  0
  7 23  1  0  0  0  0
  7 28  1  0  0  0  0
  8 23  1  0  0  0  0
  9 23  1  0  0  0  0
 11 17  2  0  0  0  0
 12 24  1  0  0  0  0
 13 18  1  0  0  0  0
 14 19  1  0  0  0  0
 15 16  1  0  0  0  0
 16 20  1  0  0  0  0
 17 27  1  0  0  0  0
 18 25  1  0  0  0  0
 19 25  1  0  0  0  0
 20 28  1  0  0  0  0
 21 27  2  0  0  0  0
 22 28  1  0  0  0  0
 24 26  2  0  0  0  0
 26 27  1  0  0  0  0
 28 30  1  0  0  0  0
  8 31  1  0  0  0  0
  8 32  1  0  0  0  0
  8 33  1  0  0  0  0
  9 34  1  0  0  0  0
  9 35  1  0  0  0  0
  9 36  1  0  0  0  0
 10 37  1  0  0  0  0
 11 38  1  0  0  0  0
 12 39  1  0  0  0  0
 13 40  1  0  0  0  0
 13 41  1  0  0  0  0
 14 42  1  0  0  0  0
 14 43  1  0  0  0  0
 15 44  1  0  0  0  0
 15 45  1  0  0  0  0
 16 46  1  0  0  0  0
 16 47  1  0  0  0  0
 17 48  1  0  0  0  0
 18 49  1  0  0  0  0
 18 50  1  0  0  0  0
 19 51  1  0  0  0  0
 19 52  1  0  0  0  0
 20 53  1  0  0  0  0
 20 54  1  0  0  0  0
 23 55  1  0  0  0  0
 25 56  1  0  0  0  0
M  END
> <pdb_id>
4E5W

> <uniprot_id>
P23458

> <usmiles>
O=C(N1CCC(N2c3c(N=C2)cnc4NC=Cc43)CC1)[C@H]5N(C(C)C)CCC5

$$$$
0NU_A_1201
          07202414483D 1   1.00000     0.00000     0
            
 39 42  0  0  0  0            999 V2000
    8.7646   25.4881    7.7108 O   0  0  0  0  0  0  0  0  0  0  0  0
    7.3552   22.3768    7.2862 N   0  0  0  0  0  0  0  0  0  0  0  0
   12.7468   30.0686   10.4148 N   0  0  0  0  0  0  0  0  0  0  0  0
   12.9387   29.1547   14.0257 N   0  0  0  0  0  0  0  0  0  0  0  0
   12.4993   26.9236   14.8548 N   0  0  0  0  0  0  0  0  0  0  0  0
   11.0121   25.4251    7.6983 N   0  0  0  0  0  0  0  0  0  0  0  0
   12.2190   27.8980   10.1498 N   0  0  0  0  0  0  0  0  0  0  0  0
    8.4151   22.8137    7.2180 C   0  0  0  0  0  0  0  0  0  0  0  0
   12.4513   29.1206    9.5562 C   0  0  0  0  0  0  0  0  0  0  0  0
   12.1094   25.7341   14.3028 C   0  0  0  0  0  0  0  0  0  0  0  0
   12.9762   29.9219   12.9301 C   0  0  0  0  0  0  0  0  0  0  0  0
   11.9762   25.8699   12.9562 C   0  0  0  0  0  0  0  0  0  0  0  0
   12.2437   24.6849    7.4468 C   0  0  0  0  0  0  0  0  0  0  0  0
   11.2460   26.7656    8.2408 C   0  0  0  0  0  0  0  0  0  0  0  0
   12.9797   24.4364    8.7511 C   0  0  0  0  0  0  0  0  0  0  0  0
    9.7321   23.3774    6.9384 C   0  0  0  0  0  0  0  0  0  0  0  0
   13.2329   25.7587    9.4746 C   0  0  0  0  0  0  0  0  0  0  0  0
    9.8010   24.8759    7.4747 C   0  0  0  0  0  0  0  0  0  0  0  0
   12.6027   27.8621   13.8693 C   0  0  0  0  0  0  0  0  0  0  0  0
   12.7019   29.4384   11.6568 C   0  0  0  0  0  0  0  0  0  0  0  0
   12.3550   28.0681   11.5198 C   0  0  0  0  0  0  0  0  0  0  0  0
   12.2769   27.2355   12.6315 C   0  0  0  0  0  0  0  0  0  0  0  0
   11.9573   26.5924    9.5574 C   0  0  1  0  0  0  0  0  0  0  0  0
   12.6858   27.0941   15.8371 H   0  0  0  0  0  0  0  0  0  0  0  0
   12.3933   29.2788    8.4798 H   0  0  0  0  0  0  0  0  0  0  0  0
   11.9501   24.8506   14.9199 H   0  0  0  0  0  0  0  0  0  0  0  0
   13.2376   30.9662   13.0933 H   0  0  0  0  0  0  0  0  0  0  0  0
   11.6935   25.0937   12.2459 H   0  0  0  0  0  0  0  0  0  0  0  0
   12.8669   25.2613    6.7657 H   0  0  0  0  0  0  0  0  0  0  0  0
   12.0568   23.7483    6.9241 H   0  0  0  0  0  0  0  0  0  0  0  0
   10.3028   27.3034    8.3299 H   0  0  0  0  0  0  0  0  0  0  0  0
   11.8395   27.3780    7.5624 H   0  0  0  0  0  0  0  0  0  0  0  0
   12.3988   23.7677    9.3851 H   0  0  0  0  0  0  0  0  0  0  0  0
   13.9158   23.9088    8.5765 H   0  0  0  0  0  0  0  0  0  0  0  0
    9.9516   23.2964    5.8748 H   0  0  0  0  0  0  0  0  0  0  0  0
   10.4885   22.7723    7.4365 H   0  0  0  0  0  0  0  0  0  0  0  0
   14.0293   26.3084    8.9740 H   0  0  0  0  0  0  0  0  0  0  0  0
   13.6230   25.5654   10.4723 H   0  0  0  0  0  0  0  0  0  0  0  0
   11.2842   26.0781   10.2417 H   0  0  0  0  0  0  0  0  0  0  0  0
  1 18  2  0  0  0  0
  2  8  3  0  0  0  0
  3  9  2  0  0  0  0
  3 20  1  0  0  0  0
  4 11  2  0  0  0  0
  4 19  1  0  0  0  0
  5 10  1  0  0  0  0
  5 19  1  0  0  0  0
  5 24  1  0  0  0  0
  6 13  1  0  0  0  0
  6 14  1  0  0  0  0
  6 18  1  0  0  0  0
  7  9  1  0  0  0  0
  7 21  1  0  0  0  0
  7 23  1  0  0  0  0
  8 16  1  0  0  0  0
  9 25  1  0  0  0  0
 10 12  2  0  0  0  0
 10 26  1  0  0  0  0
 11 20  1  0  0  0  0
 11 27  1  0  0  0  0
 12 22  1  0  0  0  0
 12 28  1  0  0  0  0
 13 15  1  0  0  0  0
 13 29  1  0  0  0  0
 13 30  1  0  0  0  0
 14 23  1  0  0  0  0
 14 31  1  0  0  0  0
 14 32  1  0  0  0  0
 15 17  1  0  0  0  0
 15 33  1  0  0  0  0
 15 34  1  0  0  0  0
 16 18  1  0  0  0  0
 16 35  1  0  0  0  0
 16 36  1  0  0  0  0
 17 23  1  0  0  0  0
 17 37  1  0  0  0  0
 17 38  1  0  0  0  0
 19 22  2  0  0  0  0
 20 21  2  0  0  0  0
 21 22  1  0  0  0  0
 23 39  1  0  0  0  0
M  END
> <pdb_id>
4E6D

> <uniprot_id>
O60674

> <usmiles>
O=C(N1C[C@H](N2c3c(N=C2)cnc4NC=Cc43)CCC1)CC#N

$$$$
0NV_A_1201
          07202414483D 1   1.00000     0.00000     0
            
 46 50  0  0  0  0            999 V2000
   13.1470   30.2120   10.0700 N   0  0  0  0  0  0  0  0  0  0  0  0
   12.5130   27.3680   14.6680 N   0  0  0  0  0  0  0  0  0  0  0  0
   13.0220   29.5710   13.6950 N   0  0  0  0  0  0  0  0  0  0  0  0
   11.6810   25.0660    7.1090 N   0  0  0  0  0  0  0  0  0  0  0  0
   12.6860   28.0830    9.8840 N   0  0  0  0  0  0  0  0  0  0  0  0
   12.9380   29.2600    9.2230 C   0  0  0  0  0  0  0  0  0  0  0  0
   12.2480   26.1380   14.0990 C   0  0  0  0  0  0  0  0  0  0  0  0
   13.1970   30.2810   12.6140 C   0  0  0  0  0  0  0  0  0  0  0  0
   10.7450   25.3240    8.2330 C   0  0  0  0  0  0  0  0  0  0  0  0
   13.0760   25.2240    7.5300 C   0  0  0  0  0  0  0  0  0  0  0  0
   11.5170   23.6890    6.5490 C   0  0  0  0  0  0  0  0  0  0  0  0
    7.4240   22.7170    5.7130 C   0  0  0  0  0  0  0  0  0  0  0  0
    8.0400   22.0880    6.7820 C   0  0  0  0  0  0  0  0  0  0  0  0
    8.0990   23.6470    4.9290 C   0  0  0  0  0  0  0  0  0  0  0  0
   12.2270   26.2030   12.7610 C   0  0  0  0  0  0  0  0  0  0  0  0
   10.9290   26.7340    8.8250 C   0  0  0  0  0  0  0  0  0  0  0  0
   13.3710   26.6530    8.0640 C   0  0  0  0  0  0  0  0  0  0  0  0
    9.3630   22.4140    7.0230 C   0  0  0  0  0  0  0  0  0  0  0  0
    9.4200   23.9690    5.1810 C   0  0  0  0  0  0  0  0  0  0  0  0
   12.7100   28.2780   13.6700 C   0  0  0  0  0  0  0  0  0  0  0  0
   13.0560   29.7260   11.3410 C   0  0  0  0  0  0  0  0  0  0  0  0
   12.3990   26.8140    9.2430 C   0  0  0  0  0  0  0  0  0  0  0  0
   10.0590   23.3470    6.2450 C   0  0  0  0  0  0  0  0  0  0  0  0
   12.7260   28.3370   11.2430 C   0  0  0  0  0  0  0  0  0  0  0  0
   12.5490   27.6070   12.4400 C   0  0  0  0  0  0  0  0  0  0  0  0
   12.5538   27.5601   15.6485 H   0  0  0  0  0  0  0  0  0  0  0  0
   12.9569   29.3648    8.2287 H   0  0  0  0  0  0  0  0  0  0  0  0
   12.0908   25.3004   14.6222 H   0  0  0  0  0  0  0  0  0  0  0  0
   13.4383   31.2476   12.6999 H   0  0  0  0  0  0  0  0  0  0  0  0
   10.9093   24.6482    8.9515 H   0  0  0  0  0  0  0  0  0  0  0  0
    9.8067   25.2340    7.8990 H   0  0  0  0  0  0  0  0  0  0  0  0
   13.6709   25.0440    6.7466 H   0  0  0  0  0  0  0  0  0  0  0  0
   13.2702   24.5631    8.2549 H   0  0  0  0  0  0  0  0  0  0  0  0
   11.8688   23.0293    7.2132 H   0  0  0  0  0  0  0  0  0  0  0  0
   12.0446   23.6229    5.7021 H   0  0  0  0  0  0  0  0  0  0  0  0
    6.4720   22.4976    5.4997 H   0  0  0  0  0  0  0  0  0  0  0  0
    7.5513   21.4287    7.3533 H   0  0  0  0  0  0  0  0  0  0  0  0
    7.6210   24.0900    4.1706 H   0  0  0  0  0  0  0  0  0  0  0  0
   12.0348   25.4609   12.1189 H   0  0  0  0  0  0  0  0  0  0  0  0
   10.3329   26.8605    9.6179 H   0  0  0  0  0  0  0  0  0  0  0  0
   10.7226   27.4309    8.1382 H   0  0  0  0  0  0  0  0  0  0  0  0
   13.1929   27.3400    7.3595 H   0  0  0  0  0  0  0  0  0  0  0  0
   14.3194   26.7292    8.3717 H   0  0  0  0  0  0  0  0  0  0  0  0
    9.8392   21.9670    7.7802 H   0  0  0  0  0  0  0  0  0  0  0  0
    9.9031   24.6335    4.6109 H   0  0  0  0  0  0  0  0  0  0  0  0
   12.5788   26.0823    9.9005 H   0  0  0  0  0  0  0  0  0  0  0  0
  1  6  2  0  0  0  0
  1 21  1  0  0  0  0
  2  7  1  0  0  0  0
  2 20  1  0  0  0  0
  3  8  2  0  0  0  0
  3 20  1  0  0  0  0
  4  9  1  0  0  0  0
  4 10  1  0  0  0  0
  4 11  1  0  0  0  0
  5  6  1  0  0  0  0
  5 22  1  0  0  0  0
  5 24  1  0  0  0  0
  7 15  2  0  0  0  0
  8 21  1  0  0  0  0
  9 16  1  0  0  0  0
 10 17  1  0  0  0  0
 11 23  1  0  0  0  0
 12 13  2  0  0  0  0
 12 14  1  0  0  0  0
 13 18  1  0  0  0  0
 14 19  2  0  0  0  0
 15 25  1  0  0  0  0
 16 22  1  0  0  0  0
 17 22  1  0  0  0  0
 18 23  2  0  0  0  0
 19 23  1  0  0  0  0
 20 25  2  0  0  0  0
 21 24  2  0  0  0  0
 24 25  1  0  0  0  0
  2 26  1  0  0  0  0
  6 27  1  0  0  0  0
  7 28  1  0  0  0  0
  8 29  1  0  0  0  0
  9 30  1  0  0  0  0
  9 31  1  0  0  0  0
 10 32  1  0  0  0  0
 10 33  1  0  0  0  0
 11 34  1  0  0  0  0
 11 35  1  0  0  0  0
 12 36  1  0  0  0  0
 13 37  1  0  0  0  0
 14 38  1  0  0  0  0
 15 39  1  0  0  0  0
 16 40  1  0  0  0  0
 16 41  1  0  0  0  0
 17 42  1  0  0  0  0
 17 43  1  0  0  0  0
 18 44  1  0  0  0  0
 19 45  1  0  0  0  0
 22 46  1  0  0  0  0
M  END
> <pdb_id>
4E6Q

> <uniprot_id>
O60674

> <usmiles>
n1c2NC=Cc2c3N(C=Nc3c1)C4CCN(Cc5ccccc5)CC4

$$$$
0NX_A_305
          07192423583D 1   1.00000     0.00000     0
            
 22 23  0  0  0  0            999 V2000
   37.3600   28.3160    7.5820 O   0  0  0  0  0  0  0  0  0  0  0  0
   34.1060   29.4110   10.3850 O   0  0  0  0  0  0  0  0  0  0  0  0
   34.2180   28.8740    9.0900 N   0  0  0  0  0  0  0  0  0  0  0  0
   35.9860   28.5590    7.4160 C   0  0  0  0  0  0  0  0  0  0  0  0
   35.7550   31.8340   14.5630 C   0  0  0  0  0  0  0  0  0  0  0  0
   36.8580   31.2490   13.9670 C   0  0  0  0  0  0  0  0  0  0  0  0
   34.5080   31.7700   13.9680 C   0  0  0  0  0  0  0  0  0  0  0  0
   36.7490   30.6000   12.7430 C   0  0  0  0  0  0  0  0  0  0  0  0
   34.3860   31.1160   12.7500 C   0  0  0  0  0  0  0  0  0  0  0  0
   36.1940   29.6400    9.8070 C   0  0  0  0  0  0  0  0  0  0  0  0
   35.2980   29.8880   10.8290 C   0  0  0  0  0  0  0  0  0  0  0  0
   35.4850   29.0440    8.7520 C   0  0  0  0  0  0  0  0  0  0  0  0
   35.4990   30.5420   12.1410 C   0  0  0  0  0  0  0  0  0  0  0  0
   37.7473   27.9895    6.7198 H   0  0  0  0  0  0  0  0  0  0  0  0
   35.5138   27.7178    7.1525 H   0  0  0  0  0  0  0  0  0  0  0  0
   35.8389   29.2573    6.7155 H   0  0  0  0  0  0  0  0  0  0  0  0
   35.8608   32.3098   15.4362 H   0  0  0  0  0  0  0  0  0  0  0  0
   37.7466   31.2938   14.4236 H   0  0  0  0  0  0  0  0  0  0  0  0
   33.7112   32.1861   14.4062 H   0  0  0  0  0  0  0  0  0  0  0  0
   37.5486   30.1862   12.3078 H   0  0  0  0  0  0  0  0  0  0  0  0
   33.4918   31.0565   12.3062 H   0  0  0  0  0  0  0  0  0  0  0  0
   37.1721   29.8478    9.8170 H   0  0  0  0  0  0  0  0  0  0  0  0
  1  4  1  0  0  0  0
  2  3  1  0  0  0  0
  2 11  1  0  0  0  0
  3 12  2  0  0  0  0
  4 12  1  0  0  0  0
  5  6  2  0  0  0  0
  5  7  1  0  0  0  0
  6  8  1  0  0  0  0
  7  9  2  0  0  0  0
  8 13  2  0  0  0  0
  9 13  1  0  0  0  0
 10 11  2  0  0  0  0
 10 12  1  0  0  0  0
 11 13  1  0  0  0  0
  1 14  1  0  0  0  0
  4 15  1  0  0  0  0
  4 16  1  0  0  0  0
  5 17  1  0  0  0  0
  6 18  1  0  0  0  0
  7 19  1  0  0  0  0
  8 20  1  0  0  0  0
  9 21  1  0  0  0  0
 10 22  1  0  0  0  0
M  END
> <pdb_id>
3VQ4

> <uniprot_id>
Q72498

> <usmiles>
O1N=C(C=C1c2ccccc2)CO

$$$$
0O5_D_202
          07202414463D 1   1.00000     0.00000     0
            
 53 56  0  0  0  0            999 V2000
   -4.3626   -5.8866   70.5670 O   0  0  0  0  0  0  0  0  0  0  0  0
   -8.5360   -8.4628   75.7707 O   0  0  0  0  0  0  0  0  0  0  0  0
   -4.7743   -8.0722   70.5664 N   0  0  0  0  0  0  0  0  0  0  0  0
   -4.0440   -5.7669   63.5134 N   0  0  0  0  0  0  0  0  0  0  0  0
   -7.1327   -7.9228   73.3436 N   0  0  0  0  0  0  0  0  0  0  0  0
   -4.4108   -4.3911   61.4924 C   0  0  0  0  0  0  0  0  0  0  0  0
   -9.2551   -7.9101   74.6667 C   0  0  0  0  0  0  0  0  0  0  0  0
   -7.2112   -7.9365   75.8247 C   0  0  0  0  0  0  0  0  0  0  0  0
   -5.0361   -8.2680   71.9979 C   0  0  0  0  0  0  0  0  0  0  0  0
   -8.5667   -8.2857   73.3551 C   0  0  0  0  0  0  0  0  0  0  0  0
   -6.4519   -8.3737   74.5758 C   0  0  0  0  0  0  0  0  0  0  0  0
   -6.5333   -8.5394   72.1432 C   0  0  0  0  0  0  0  0  0  0  0  0
   -2.2773  -10.1832   61.9839 C   0  0  0  0  0  0  0  0  0  0  0  0
   -2.3479  -10.2598   63.3776 C   0  0  0  0  0  0  0  0  0  0  0  0
   -2.6705   -9.0285   61.3162 C   0  0  0  0  0  0  0  0  0  0  0  0
   -3.4620   -5.9017   67.8629 C   0  0  0  0  0  0  0  0  0  0  0  0
   -4.8334   -7.8697   67.6447 C   0  0  0  0  0  0  0  0  0  0  0  0
   -3.2607   -5.8764   66.4757 C   0  0  0  0  0  0  0  0  0  0  0  0
   -4.6332   -7.8450   66.2695 C   0  0  0  0  0  0  0  0  0  0  0  0
   -2.8054   -9.1903   64.1401 C   0  0  0  0  0  0  0  0  0  0  0  0
   -3.5191   -6.7485   61.3958 C   0  0  0  0  0  0  0  0  0  0  0  0
   -4.4632   -6.9275   69.9489 C   0  0  0  0  0  0  0  0  0  0  0  0
   -3.9712   -5.6733   62.1609 C   0  0  0  0  0  0  0  0  0  0  0  0
   -3.6777   -6.8780   64.1980 C   0  0  0  0  0  0  0  0  0  0  0  0
   -4.2417   -6.9011   68.4539 C   0  0  0  0  0  0  0  0  0  0  0  0
   -3.8308   -6.8620   65.6816 C   0  0  0  0  0  0  0  0  0  0  0  0
   -3.1354   -7.9296   62.0320 C   0  0  0  0  0  0  0  0  0  0  0  0
   -3.2097   -8.0016   63.5132 C   0  0  0  0  0  0  0  0  0  0  0  0
   -4.8354   -8.8860   69.9885 H   0  0  0  0  0  0  0  0  0  0  0  0
   -4.2985   -4.4758   60.5023 H   0  0  0  0  0  0  0  0  0  0  0  0
   -5.3722   -4.2169   61.7051 H   0  0  0  0  0  0  0  0  0  0  0  0
   -3.8525   -3.6321   61.8274 H   0  0  0  0  0  0  0  0  0  0  0  0
   -9.2814   -6.9142   74.7537 H   0  0  0  0  0  0  0  0  0  0  0  0
  -10.1883   -8.2694   74.6659 H   0  0  0  0  0  0  0  0  0  0  0  0
   -6.7455   -8.2833   76.6388 H   0  0  0  0  0  0  0  0  0  0  0  0
   -7.2484   -6.9379   75.8620 H   0  0  0  0  0  0  0  0  0  0  0  0
   -4.7846   -7.4460   72.5089 H   0  0  0  0  0  0  0  0  0  0  0  0
   -4.5107   -9.0470   72.3401 H   0  0  0  0  0  0  0  0  0  0  0  0
   -8.6486   -9.2733   73.2213 H   0  0  0  0  0  0  0  0  0  0  0  0
   -9.0242   -7.8087   72.6047 H   0  0  0  0  0  0  0  0  0  0  0  0
   -5.5320   -7.9824   74.6009 H   0  0  0  0  0  0  0  0  0  0  0  0
   -6.3894   -9.3717   74.5661 H   0  0  0  0  0  0  0  0  0  0  0  0
   -6.9998   -8.1781   71.3358 H   0  0  0  0  0  0  0  0  0  0  0  0
   -6.6718   -9.5285   72.1934 H   0  0  0  0  0  0  0  0  0  0  0  0
   -1.9408  -10.9667   61.4616 H   0  0  0  0  0  0  0  0  0  0  0  0
   -2.0633  -11.1015   63.8364 H   0  0  0  0  0  0  0  0  0  0  0  0
   -2.6189   -8.9877   60.3184 H   0  0  0  0  0  0  0  0  0  0  0  0
   -3.0434   -5.1973   68.4361 H   0  0  0  0  0  0  0  0  0  0  0  0
   -5.4023   -8.5830   68.0540 H   0  0  0  0  0  0  0  0  0  0  0  0
   -2.7095   -5.1526   66.0606 H   0  0  0  0  0  0  0  0  0  0  0  0
   -5.0678   -8.5378   65.6941 H   0  0  0  0  0  0  0  0  0  0  0  0
   -2.8463   -9.2684   65.1362 H   0  0  0  0  0  0  0  0  0  0  0  0
   -3.4704   -6.6735   60.3999 H   0  0  0  0  0  0  0  0  0  0  0  0
  1 22  2  0  0  0  0
  2  7  1  0  0  0  0
  2  8  1  0  0  0  0
  3  9  1  0  0  0  0
  3 22  1  0  0  0  0
  4 23  2  0  0  0  0
  4 24  1  0  0  0  0
  5 10  1  0  0  0  0
  5 11  1  0  0  0  0
  5 12  1  0  0  0  0
  6 23  1  0  0  0  0
  7 10  1  0  0  0  0
  8 11  1  0  0  0  0
  9 12  1  0  0  0  0
 13 14  1  0  0  0  0
 13 15  2  0  0  0  0
 14 20  2  0  0  0  0
 15 27  1  0  0  0  0
 16 18  1  0  0  0  0
 16 25  2  0  0  0  0
 17 19  2  0  0  0  0
 17 25  1  0  0  0  0
 18 26  2  0  0  0  0
 19 26  1  0  0  0  0
 20 28  1  0  0  0  0
 21 23  1  0  0  0  0
 21 27  2  0  0  0  0
 22 25  1  0  0  0  0
 24 26  1  0  0  0  0
 24 28  2  0  0  0  0
 27 28  1  0  0  0  0
  3 29  1  0  0  0  0
  6 30  1  0  0  0  0
  6 31  1  0  0  0  0
  6 32  1  0  0  0  0
  7 33  1  0  0  0  0
  7 34  1  0  0  0  0
  8 35  1  0  0  0  0
  8 36  1  0  0  0  0
  9 37  1  0  0  0  0
  9 38  1  0  0  0  0
 10 39  1  0  0  0  0
 10 40  1  0  0  0  0
 11 41  1  0  0  0  0
 11 42  1  0  0  0  0
 12 43  1  0  0  0  0
 12 44  1  0  0  0  0
 13 45  1  0  0  0  0
 14 46  1  0  0  0  0
 15 47  1  0  0  0  0
 16 48  1  0  0  0  0
 17 49  1  0  0  0  0
 18 50  1  0  0  0  0
 19 51  1  0  0  0  0
 20 52  1  0  0  0  0
 21 53  1  0  0  0  0
M  END
> <pdb_id>
4EDZ

> <uniprot_id>
O60760

> <usmiles>
O=C(NCCN1CCOCC1)c2ccc(c3nc(cc4c3cccc4)C)cc2

$$$$
0Q1_A_201
          07212401333D 1   1.00000     0.00000     0
            
 42 45  0  0  0  0            999 V2000
  -12.4963  -22.0935  -17.3116 O   0  0  0  0  0  0  0  0  0  0  0  0
  -16.1496  -23.5230  -23.0401 O   0  0  0  0  0  0  0  0  0  0  0  0
  -17.1000  -22.4897  -23.2227 N   0  0  0  0  0  0  0  0  0  0  0  0
  -14.1093  -23.9587  -21.7078 C   0  0  0  0  0  0  0  0  0  0  0  0
  -17.6178  -20.2030  -22.4522 C   0  0  0  0  0  0  0  0  0  0  0  0
  -16.6277  -21.9921  -14.6218 C   0  0  0  0  0  0  0  0  0  0  0  0
  -16.5651  -20.7645  -15.2505 C   0  0  0  0  0  0  0  0  0  0  0  0
  -15.6195  -22.9171  -14.8371 C   0  0  0  0  0  0  0  0  0  0  0  0
  -14.0499  -18.8132  -20.1347 C   0  0  0  0  0  0  0  0  0  0  0  0
  -14.6998  -19.6560  -21.0243 C   0  0  0  0  0  0  0  0  0  0  0  0
  -15.5008  -20.4977  -16.1147 C   0  0  0  0  0  0  0  0  0  0  0  0
  -14.5517  -22.6306  -15.6897 C   0  0  0  0  0  0  0  0  0  0  0  0
  -12.9520  -18.6204  -17.7793 C   0  0  0  0  0  0  0  0  0  0  0  0
  -14.5284  -21.5337  -19.5461 C   0  0  0  0  0  0  0  0  0  0  0  0
  -12.5938  -19.6932  -16.8504 C   0  0  0  0  0  0  0  0  0  0  0  0
  -15.2416  -23.0562  -22.1374 C   0  0  0  0  0  0  0  0  0  0  0  0
  -16.7383  -21.4704  -22.4431 C   0  0  0  0  0  0  0  0  0  0  0  0
  -13.6497  -19.3455  -18.9265 C   0  0  0  0  0  0  0  0  0  0  0  0
  -14.8976  -21.0109  -20.7586 C   0  0  0  0  0  0  0  0  0  0  0  0
  -14.5072  -21.4183  -16.3368 C   0  0  0  0  0  0  0  0  0  0  0  0
  -15.5747  -21.7811  -21.7267 C   0  0  0  0  0  0  0  0  0  0  0  0
  -13.8915  -20.6823  -18.6260 C   0  0  0  0  0  0  0  0  0  0  0  0
  -13.3657  -20.9861  -17.2609 C   0  0  2  0  0  0  0  0  0  0  0  0
  -13.0107  -22.9092  -17.5760 H   0  0  0  0  0  0  0  0  0  0  0  0
  -13.5321  -23.4781  -21.0477 H   0  0  0  0  0  0  0  0  0  0  0  0
  -14.4831  -24.7842  -21.2850 H   0  0  0  0  0  0  0  0  0  0  0  0
  -13.5631  -24.2113  -22.5065 H   0  0  0  0  0  0  0  0  0  0  0  0
  -17.2319  -19.5250  -21.8266 H   0  0  0  0  0  0  0  0  0  0  0  0
  -17.6473  -19.8243  -23.3772 H   0  0  0  0  0  0  0  0  0  0  0  0
  -18.5444  -20.4382  -22.1586 H   0  0  0  0  0  0  0  0  0  0  0  0
  -17.3933  -22.2111  -14.0169 H   0  0  0  0  0  0  0  0  0  0  0  0
  -17.2720  -20.0759  -15.0894 H   0  0  0  0  0  0  0  0  0  0  0  0
  -15.6570  -23.8032  -14.3751 H   0  0  0  0  0  0  0  0  0  0  0  0
  -13.8777  -17.8545  -20.3609 H   0  0  0  0  0  0  0  0  0  0  0  0
  -15.0384  -19.2789  -21.8864 H   0  0  0  0  0  0  0  0  0  0  0  0
  -15.4618  -19.6150  -16.5828 H   0  0  0  0  0  0  0  0  0  0  0  0
  -13.8243  -23.3024  -15.8288 H   0  0  0  0  0  0  0  0  0  0  0  0
  -12.1352  -18.1437  -18.1042 H   0  0  0  0  0  0  0  0  0  0  0  0
  -13.5697  -17.9651  -17.3447 H   0  0  0  0  0  0  0  0  0  0  0  0
  -14.7068  -22.4919  -19.3228 H   0  0  0  0  0  0  0  0  0  0  0  0
  -12.8471  -19.4310  -15.9192 H   0  0  0  0  0  0  0  0  0  0  0  0
  -11.6089  -19.8610  -16.8932 H   0  0  0  0  0  0  0  0  0  0  0  0
  1 23  1  0  0  0  0
  2  3  1  0  0  0  0
  2 16  1  0  0  0  0
  3 17  2  0  0  0  0
  4 16  1  0  0  0  0
  5 17  1  0  0  0  0
  6  7  2  0  0  0  0
  6  8  1  0  0  0  0
  7 11  1  0  0  0  0
  8 12  2  0  0  0  0
  9 10  2  0  0  0  0
  9 18  1  0  0  0  0
 10 19  1  0  0  0  0
 11 20  2  0  0  0  0
 12 20  1  0  0  0  0
 13 15  1  0  0  0  0
 13 18  1  0  0  0  0
 14 19  2  0  0  0  0
 14 22  1  0  0  0  0
 15 23  1  0  0  0  0
 16 21  2  0  0  0  0
 17 21  1  0  0  0  0
 18 22  2  0  0  0  0
 19 21  1  0  0  0  0
 20 23  1  0  0  0  0
 22 23  1  0  0  0  0
  1 24  1  0  0  0  0
  4 25  1  0  0  0  0
  4 26  1  0  0  0  0
  4 27  1  0  0  0  0
  5 28  1  0  0  0  0
  5 29  1  0  0  0  0
  5 30  1  0  0  0  0
  6 31  1  0  0  0  0
  7 32  1  0  0  0  0
  8 33  1  0  0  0  0
  9 34  1  0  0  0  0
 10 35  1  0  0  0  0
 11 36  1  0  0  0  0
 12 37  1  0  0  0  0
 13 38  1  0  0  0  0
 13 39  1  0  0  0  0
 14 40  1  0  0  0  0
 15 41  1  0  0  0  0
 15 42  1  0  0  0  0
M  END
> <pdb_id>
4GPJ

> <uniprot_id>
O60885

> <usmiles>
O1N=C(C(c2cc3c(cc2)CC[C@@]3(O)c4ccccc4)=C1C)C

$$$$
0Q2_B_1201
          07212403553D 1   1.00000     0.00000     0
            
 38 41  0  0  0  0            999 V2000
   42.0492   19.8983  241.3695 O   0  0  0  0  0  0  0  0  0  0  0  0
   38.1128   21.6708  247.8574 N   0  0  0  0  0  0  0  0  0  0  0  0
   40.1969   22.8129  248.5584 N   0  0  0  0  0  0  0  0  0  0  0  0
   42.9934   23.4070  246.2077 N   0  0  0  0  0  0  0  0  0  0  0  0
   41.7101   22.4295  244.7058 N   0  0  0  0  0  0  0  0  0  0  0  0
   44.0303   23.1987  243.9395 C   0  0  0  0  0  0  0  0  0  0  0  0
   37.6647   21.1425  246.6679 C   0  0  0  0  0  0  0  0  0  0  0  0
   41.3944   23.2425  248.1754 C   0  0  0  0  0  0  0  0  0  0  0  0
   39.7703   21.9529  241.3734 C   0  0  0  0  0  0  0  0  0  0  0  0
   38.6060   21.3171  245.7317 C   0  0  0  0  0  0  0  0  0  0  0  0
   39.6510   20.4108  241.3711 C   0  0  0  0  0  0  0  0  0  0  0  0
   40.0937   22.5370  242.7625 C   0  0  0  0  0  0  0  0  0  0  0  0
   41.0533   20.3043  243.4987 C   0  0  0  0  0  0  0  0  0  0  0  0
   42.9292   23.0050  244.9640 C   0  0  0  0  0  0  0  0  0  0  0  0
   39.3723   22.2070  247.7072 C   0  0  0  0  0  0  0  0  0  0  0  0
   40.8278   19.7266  242.1027 C   0  0  2  0  0  0  0  0  0  0  0  0
   41.8442   23.0811  246.8566 C   0  0  0  0  0  0  0  0  0  0  0  0
   41.3096   21.8436  243.3945 C   0  0  2  0  0  0  0  0  0  0  0  0
   41.0039   22.4491  245.9080 C   0  0  0  0  0  0  0  0  0  0  0  0
   39.7413   22.0072  246.3564 C   0  0  0  0  0  0  0  0  0  0  0  0
   42.7973   19.4494  241.8583 H   0  0  0  0  0  0  0  0  0  0  0  0
   37.5950   21.6659  248.7129 H   0  0  0  0  0  0  0  0  0  0  0  0
   43.7447   22.8067  243.0650 H   0  0  0  0  0  0  0  0  0  0  0  0
   44.2101   24.1756  243.8241 H   0  0  0  0  0  0  0  0  0  0  0  0
   44.8622   22.7415  244.2539 H   0  0  0  0  0  0  0  0  0  0  0  0
   36.7794   20.6999  246.5259 H   0  0  0  0  0  0  0  0  0  0  0  0
   41.9888   23.6912  248.8427 H   0  0  0  0  0  0  0  0  0  0  0  0
   38.9024   22.3389  241.0609 H   0  0  0  0  0  0  0  0  0  0  0  0
   40.4990   22.2158  240.7410 H   0  0  0  0  0  0  0  0  0  0  0  0
   38.5463   21.0285  244.7761 H   0  0  0  0  0  0  0  0  0  0  0  0
   39.6331   20.0917  240.4236 H   0  0  0  0  0  0  0  0  0  0  0  0
   38.7979   20.1543  241.8254 H   0  0  0  0  0  0  0  0  0  0  0  0
   39.3015   22.4125  243.3600 H   0  0  0  0  0  0  0  0  0  0  0  0
   40.2892   23.5131  242.6673 H   0  0  0  0  0  0  0  0  0  0  0  0
   41.8465   19.8625  243.9176 H   0  0  0  0  0  0  0  0  0  0  0  0
   40.2437   20.1392  244.0620 H   0  0  0  0  0  0  0  0  0  0  0  0
   40.6338   18.7490  242.1843 H   0  0  0  0  0  0  0  0  0  0  0  0
   42.0788   21.9715  242.7684 H   0  0  0  0  0  0  0  0  0  0  0  0
  1 16  1  0  0  0  0
  2  7  1  0  0  0  0
  2 15  1  0  0  0  0
  3  8  2  0  0  0  0
  3 15  1  0  0  0  0
  4 14  2  0  0  0  0
  4 17  1  0  0  0  0
  5 14  1  0  0  0  0
  5 18  1  0  0  0  0
  5 19  1  0  0  0  0
  6 14  1  0  0  0  0
  7 10  2  0  0  0  0
  8 17  1  0  0  0  0
  9 11  1  0  0  0  0
  9 12  1  0  0  0  0
 10 20  1  0  0  0  0
 11 16  1  0  0  0  0
 12 18  1  0  0  0  0
 13 16  1  0  0  0  0
 13 18  1  0  0  0  0
 15 20  2  0  0  0  0
 17 19  2  0  0  0  0
 19 20  1  0  0  0  0
  1 21  1  0  0  0  0
  2 22  1  0  0  0  0
  6 23  1  0  0  0  0
  6 24  1  0  0  0  0
  6 25  1  0  0  0  0
  7 26  1  0  0  0  0
  8 27  1  0  0  0  0
  9 28  1  0  0  0  0
  9 29  1  0  0  0  0
 10 30  1  0  0  0  0
 11 31  1  0  0  0  0
 11 32  1  0  0  0  0
 12 33  1  0  0  0  0
 12 34  1  0  0  0  0
 13 35  1  0  0  0  0
 13 36  1  0  0  0  0
 16 37  1  0  0  0  0
 18 38  1  0  0  0  0
M  END
> <pdb_id>
4EI4

> <uniprot_id>
P23458

> <usmiles>
O[C@H]1C[C@H](N2c3c(N=C2C)cnc4NC=Cc43)CCC1

$$$$
0Q6_A_701
          07202408053D 1   1.00000     0.00000     0
            
 30 31  0  0  0  0            999 V2000
   57.9680   19.0370    3.9220 Br  0  0  0  0  0  0  0  0  0  0  0  0
   49.4650   18.9660   10.4240 O   0  0  0  0  0  0  0  0  0  0  0  0
   55.3760   20.1890    8.5680 O   0  0  0  0  0  0  0  0  0  0  0  0
   50.6130   18.6300   12.3730 N   0  0  0  0  0  0  0  0  0  0  0  0
   56.5930   19.5090    9.0290 C   0  0  0  0  0  0  0  0  0  0  0  0
   59.9680   19.8250    7.5190 C   0  0  0  0  0  0  0  0  0  0  0  0
   59.7310   19.6130    6.1790 C   0  0  0  0  0  0  0  0  0  0  0  0
   58.9070   19.8020    8.4340 C   0  0  0  0  0  0  0  0  0  0  0  0
   53.0260   20.4730    8.7590 C   0  0  0  0  0  0  0  0  0  0  0  0
   54.1660   19.1180   10.3700 C   0  0  0  0  0  0  0  0  0  0  0  0
   51.8040   20.1660    9.3890 C   0  0  0  0  0  0  0  0  0  0  0  0
   52.9690   18.8180   10.9930 C   0  0  0  0  0  0  0  0  0  0  0  0
   57.3630   19.3250    6.7050 C   0  0  0  0  0  0  0  0  0  0  0  0
   58.4090   19.3640    5.7830 C   0  0  0  0  0  0  0  0  0  0  0  0
   50.5390   19.0070   11.1000 C   0  0  0  0  0  0  0  0  0  0  0  0
   54.2170   19.9180    9.2460 C   0  0  0  0  0  0  0  0  0  0  0  0
   57.5930   19.5440    8.0510 C   0  0  0  0  0  0  0  0  0  0  0  0
   51.7500   19.3390   10.5000 C   0  0  0  0  0  0  0  0  0  0  0  0
   51.4848   18.6824   12.8601 H   0  0  0  0  0  0  0  0  0  0  0  0
   49.7969   18.2941   12.8432 H   0  0  0  0  0  0  0  0  0  0  0  0
   56.3747   18.5559    9.2385 H   0  0  0  0  0  0  0  0  0  0  0  0
   56.9279   19.9634    9.8544 H   0  0  0  0  0  0  0  0  0  0  0  0
   60.8996   19.9958    7.8398 H   0  0  0  0  0  0  0  0  0  0  0  0
   60.4755   19.6358    5.5118 H   0  0  0  0  0  0  0  0  0  0  0  0
   59.1007   19.9776    9.3992 H   0  0  0  0  0  0  0  0  0  0  0  0
   53.0435   21.0843    7.9678 H   0  0  0  0  0  0  0  0  0  0  0  0
   55.0162   18.7463   10.7428 H   0  0  0  0  0  0  0  0  0  0  0  0
   50.9564   20.5535    9.0265 H   0  0  0  0  0  0  0  0  0  0  0  0
   52.9649   18.2271   11.7997 H   0  0  0  0  0  0  0  0  0  0  0  0
   56.4335   19.1360    6.3882 H   0  0  0  0  0  0  0  0  0  0  0  0
  1 14  1  0  0  0  0
  2 15  2  0  0  0  0
  3  5  1  0  0  0  0
  3 16  1  0  0  0  0
  4 15  1  0  0  0  0
  5 17  1  0  0  0  0
  6  7  2  0  0  0  0
  6  8  1  0  0  0  0
  7 14  1  0  0  0  0
  8 17  2  0  0  0  0
  9 11  1  0  0  0  0
  9 16  2  0  0  0  0
 10 12  2  0  0  0  0
 10 16  1  0  0  0  0
 11 18  2  0  0  0  0
 12 18  1  0  0  0  0
 13 14  2  0  0  0  0
 13 17  1  0  0  0  0
 15 18  1  0  0  0  0
  4 19  1  0  0  0  0
  4 20  1  0  0  0  0
  5 21  1  0  0  0  0
  5 22  1  0  0  0  0
  6 23  1  0  0  0  0
  7 24  1  0  0  0  0
  8 25  1  0  0  0  0
  9 26  1  0  0  0  0
 10 27  1  0  0  0  0
 11 28  1  0  0  0  0
 12 29  1  0  0  0  0
 13 30  1  0  0  0  0
M  END
> <pdb_id>
7OSP

> <uniprot_id>
Q460N3

> <usmiles>
Brc1cc(ccc1)COc2ccc(cc2)C(=O)N

$$$$
0R9_A_301
          07202407473D 1   1.00000     0.00000     0
            
 47 50  0  0  0  0            999 V2000
   16.5019   24.6828    9.5690 F   0  0  0  0  0  0  0  0  0  0  0  0
   17.1591   26.6080   10.3925 F   0  0  0  0  0  0  0  0  0  0  0  0
   15.0553   26.0558   10.4862 F   0  0  0  0  0  0  0  0  0  0  0  0
   10.7763   31.0626   11.1493 O   0  0  0  0  0  0  0  0  0  0  0  0
    9.9876   29.0352   11.7023 O   0  0  0  0  0  0  0  0  0  0  0  0
   19.2573   30.5409    3.2769 O   0  0  0  0  0  0  0  0  0  0  0  0
   15.5306   27.8851    8.3293 N   0  0  0  0  0  0  0  0  0  0  0  0
   11.7090   27.1809    8.5674 N   0  0  0  0  0  0  0  0  0  0  0  0
   18.1526   32.3832    2.5061 N   0  0  0  0  0  0  0  0  0  0  0  0
   14.0642   31.8645    5.6496 N   0  0  0  0  0  0  0  0  0  0  0  0
   16.0805   31.8549    4.3506 N   0  0  0  0  0  0  0  0  0  0  0  0
   15.4140   28.1153    7.0110 N   0  0  0  0  0  0  0  0  0  0  0  0
   19.4235   34.2915    1.6858 C   0  0  0  0  0  0  0  0  0  0  0  0
   19.2726   32.7930    1.6926 C   0  0  0  0  0  0  0  0  0  0  0  0
   11.1481   27.8668    9.5647 C   0  0  0  0  0  0  0  0  0  0  0  0
   12.5371   27.8897    7.7925 C   0  0  0  0  0  0  0  0  0  0  0  0
   13.3937   31.1111    6.5267 C   0  0  0  0  0  0  0  0  0  0  0  0
   15.7302   27.0374    6.2333 C   0  0  0  0  0  0  0  0  0  0  0  0
   16.0714   26.0354    7.1106 C   0  0  0  0  0  0  0  0  0  0  0  0
   16.9228   29.9130    4.9535 C   0  0  0  0  0  0  0  0  0  0  0  0
   12.2418   29.8872    9.0083 C   0  0  0  0  0  0  0  0  0  0  0  0
   10.6667   29.8184   10.9793 C   0  0  0  0  0  0  0  0  0  0  0  0
   18.2699   31.2656    3.2922 C   0  0  0  0  0  0  0  0  0  0  0  0
   15.2013   31.3038    5.2449 C   0  0  0  0  0  0  0  0  0  0  0  0
   17.1475   31.0157    4.1539 C   0  0  0  0  0  0  0  0  0  0  0  0
   15.9312   26.6144    8.3939 C   0  0  0  0  0  0  0  0  0  0  0  0
   14.9488   29.3493    6.5606 C   0  0  0  0  0  0  0  0  0  0  0  0
   11.3697   29.1992    9.8324 C   0  0  0  0  0  0  0  0  0  0  0  0
   12.8524   29.2235    7.9568 C   0  0  0  0  0  0  0  0  0  0  0  0
   13.7540   29.8807    7.0236 C   0  0  0  0  0  0  0  0  0  0  0  0
   15.6963   30.0820    5.6482 C   0  0  0  0  0  0  0  0  0  0  0  0
   16.1651   25.9935    9.7021 C   0  0  0  0  0  0  0  0  0  0  0  0
   11.3378   31.6051   10.5245 H   0  0  0  0  0  0  0  0  0  0  0  0
   17.3014   32.9080    2.4964 H   0  0  0  0  0  0  0  0  0  0  0  0
   15.9615   32.7422    3.9050 H   0  0  0  0  0  0  0  0  0  0  0  0
   20.2051   34.5452    1.1158 H   0  0  0  0  0  0  0  0  0  0  0  0
   18.5928   34.7085    1.3170 H   0  0  0  0  0  0  0  0  0  0  0  0
   19.5730   34.6157    2.6199 H   0  0  0  0  0  0  0  0  0  0  0  0
   19.1281   32.4757    0.7553 H   0  0  0  0  0  0  0  0  0  0  0  0
   20.1082   32.3829    2.0581 H   0  0  0  0  0  0  0  0  0  0  0  0
   10.5173   27.3748   10.1648 H   0  0  0  0  0  0  0  0  0  0  0  0
   12.9660   27.4110    7.0264 H   0  0  0  0  0  0  0  0  0  0  0  0
   12.5288   31.4861    6.8605 H   0  0  0  0  0  0  0  0  0  0  0  0
   15.7162   26.9876    5.2346 H   0  0  0  0  0  0  0  0  0  0  0  0
   16.3562   25.1025    6.8901 H   0  0  0  0  0  0  0  0  0  0  0  0
   17.5280   29.1207    5.0311 H   0  0  0  0  0  0  0  0  0  0  0  0
   12.4300   30.8559    9.1703 H   0  0  0  0  0  0  0  0  0  0  0  0
  1 32  1  0  0  0  0
  2 32  1  0  0  0  0
  3 32  1  0  0  0  0
  4 22  1  0  0  0  0
  5 22  2  0  0  0  0
  6 23  2  0  0  0  0
  7 12  1  0  0  0  0
  7 26  2  0  0  0  0
  8 15  1  0  0  0  0
  8 16  2  0  0  0  0
  9 14  1  0  0  0  0
  9 23  1  0  0  0  0
 10 17  1  0  0  0  0
 10 24  2  0  0  0  0
 11 24  1  0  0  0  0
 11 25  1  0  0  0  0
 12 18  1  0  0  0  0
 12 27  1  0  0  0  0
 13 14  1  0  0  0  0
 15 28  2  0  0  0  0
 16 29  1  0  0  0  0
 17 30  2  0  0  0  0
 18 19  2  0  0  0  0
 19 26  1  0  0  0  0
 20 25  2  0  0  0  0
 20 31  1  0  0  0  0
 21 28  1  0  0  0  0
 21 29  2  0  0  0  0
 22 28  1  0  0  0  0
 23 25  1  0  0  0  0
 24 31  1  0  0  0  0
 26 32  1  0  0  0  0
 27 30  1  0  0  0  0
 27 31  2  0  0  0  0
 29 30  1  0  0  0  0
  4 33  1  0  0  0  0
  9 34  1  0  0  0  0
 11 35  1  0  0  0  0
 13 36  1  0  0  0  0
 13 37  1  0  0  0  0
 13 38  1  0  0  0  0
 14 39  1  0  0  0  0
 14 40  1  0  0  0  0
 15 41  1  0  0  0  0
 16 42  1  0  0  0  0
 17 43  1  0  0  0  0
 18 44  1  0  0  0  0
 19 45  1  0  0  0  0
 20 46  1  0  0  0  0
 21 47  1  0  0  0  0
M  END
> <pdb_id>
4EMV

> <uniprot_id>
G6TGY9

> <usmiles>
FC(F)(F)C1=NN(c2c(c3cncc(c3)C(=O)O)cnc4NC(C(=O)NCC)=Cc42)C=C1

$$$$
0RO_A_601
          07202405373D 1   1.00000     0.00000     0
            
 50 53  0  0  0  0            999 V2000
   14.6613    6.7290   12.9784 S   0  0  0  0  0  0  0  0  0  0  0  0
   10.9010   15.3641   13.4199 S   0  0  0  0  0  0  0  0  0  0  0  0
   12.1668    6.8346   12.1046 N   0  0  0  0  0  0  0  0  0  0  0  0
   10.0549   15.3266   10.9964 N   0  0  0  0  0  0  0  0  0  0  0  0
   11.2483    8.9331   11.3184 N   0  0  0  0  0  0  0  0  0  0  0  0
   11.5569   13.5978   11.5884 N   0  0  0  0  0  0  0  0  0  0  0  0
   12.3424   10.8916   11.3569 N   0  0  0  0  0  0  0  0  0  0  0  0
   17.9850    8.6726   11.0786 C   0  0  0  0  0  0  0  0  0  0  0  0
    9.0489   17.1570   14.0333 C   0  0  0  0  0  0  0  0  0  0  0  0
   11.0622   18.0169   12.8045 C   0  0  0  0  0  0  0  0  0  0  0  0
   11.1058    7.5558   11.5925 C   0  0  0  0  0  0  0  0  0  0  0  0
    9.3860   16.5389   11.6220 C   0  0  0  0  0  0  0  0  0  0  0  0
   11.4003   12.9106   10.2433 C   0  0  0  0  0  0  0  0  0  0  0  0
   12.3722   13.0052   12.6424 C   0  0  0  0  0  0  0  0  0  0  0  0
   11.1890   11.4072   10.5212 C   0  0  0  0  0  0  0  0  0  0  0  0
   13.2319   11.8585   12.0565 C   0  0  0  0  0  0  0  0  0  0  0  0
   17.9220    7.7101   12.2587 C   0  0  0  0  0  0  0  0  0  0  0  0
   17.0320    8.2359   13.4202 C   0  0  0  0  0  0  0  0  0  0  0  0
   14.7748    9.2116   12.4832 C   0  0  0  0  0  0  0  0  0  0  0  0
   10.8455   14.6816   11.8768 C   0  0  0  0  0  0  0  0  0  0  0  0
   13.3374    7.4438   12.3511 C   0  0  0  0  0  0  0  0  0  0  0  0
   12.4118    9.5487   11.6328 C   0  0  0  0  0  0  0  0  0  0  0  0
   15.5524    8.2015   12.9502 C   0  0  0  0  0  0  0  0  0  0  0  0
   13.4968    8.8287   12.1530 C   0  0  0  0  0  0  0  0  0  0  0  0
   10.0854   16.8650   12.9462 C   0  0  0  0  0  0  0  0  0  0  0  0
   18.5680    8.2860   10.3640 H   0  0  0  0  0  0  0  0  0  0  0  0
   17.0641    8.8163   10.7162 H   0  0  0  0  0  0  0  0  0  0  0  0
   18.3642    9.5469   11.3815 H   0  0  0  0  0  0  0  0  0  0  0  0
    8.5595   17.9998   13.8095 H   0  0  0  0  0  0  0  0  0  0  0  0
    8.3994   16.3986   14.0868 H   0  0  0  0  0  0  0  0  0  0  0  0
    9.5105   17.2634   14.9140 H   0  0  0  0  0  0  0  0  0  0  0  0
   10.5666   18.8433   12.5372 H   0  0  0  0  0  0  0  0  0  0  0  0
   11.5231   18.1725   13.6782 H   0  0  0  0  0  0  0  0  0  0  0  0
   11.7409   17.7943   12.1046 H   0  0  0  0  0  0  0  0  0  0  0  0
   10.2333    7.1003   11.4151 H   0  0  0  0  0  0  0  0  0  0  0  0
    8.4212   16.3390   11.7925 H   0  0  0  0  0  0  0  0  0  0  0  0
    9.4602   17.3201   11.0022 H   0  0  0  0  0  0  0  0  0  0  0  0
   12.2237   13.0448    9.6920 H   0  0  0  0  0  0  0  0  0  0  0  0
   10.6096   13.2837    9.7578 H   0  0  0  0  0  0  0  0  0  0  0  0
   11.7764   12.6412   13.3583 H   0  0  0  0  0  0  0  0  0  0  0  0
   12.9718   13.7045   13.0314 H   0  0  0  0  0  0  0  0  0  0  0  0
   10.3308   11.2756   11.0172 H   0  0  0  0  0  0  0  0  0  0  0  0
   11.1534   10.9082    9.6553 H   0  0  0  0  0  0  0  0  0  0  0  0
   13.8940   12.2341   11.4080 H   0  0  0  0  0  0  0  0  0  0  0  0
   13.7173   11.3923   12.7961 H   0  0  0  0  0  0  0  0  0  0  0  0
   18.8492    7.5692   12.6056 H   0  0  0  0  0  0  0  0  0  0  0  0
   17.5492    6.8385   11.9403 H   0  0  0  0  0  0  0  0  0  0  0  0
   17.2930    9.1738   13.6489 H   0  0  0  0  0  0  0  0  0  0  0  0
   17.1455    7.6527   14.2245 H   0  0  0  0  0  0  0  0  0  0  0  0
   15.1030   10.1514   12.3878 H   0  0  0  0  0  0  0  0  0  0  0  0
  1 21  1  0  0  0  0
  1 23  1  0  0  0  0
  2 20  1  0  0  0  0
  2 25  1  0  0  0  0
  3 11  2  0  0  0  0
  3 21  1  0  0  0  0
  4 12  1  0  0  0  0
  4 20  2  0  0  0  0
  5 11  1  0  0  0  0
  5 22  2  0  0  0  0
  6 13  1  0  0  0  0
  6 14  1  0  0  0  0
  6 20  1  0  0  0  0
  7 15  1  0  0  0  0
  7 16  1  0  0  0  0
  7 22  1  0  0  0  0
  8 17  1  0  0  0  0
  9 25  1  0  0  0  0
 10 25  1  0  0  0  0
 12 25  1  0  0  0  0
 13 15  1  0  0  0  0
 14 16  1  0  0  0  0
 17 18  1  0  0  0  0
 18 23  1  0  0  0  0
 19 23  2  0  0  0  0
 19 24  1  0  0  0  0
 21 24  2  0  0  0  0
 22 24  1  0  0  0  0
  8 26  1  0  0  0  0
  8 27  1  0  0  0  0
  8 28  1  0  0  0  0
  9 29  1  0  0  0  0
  9 30  1  0  0  0  0
  9 31  1  0  0  0  0
 10 32  1  0  0  0  0
 10 33  1  0  0  0  0
 10 34  1  0  0  0  0
 11 35  1  0  0  0  0
 12 36  1  0  0  0  0
 12 37  1  0  0  0  0
 13 38  1  0  0  0  0
 13 39  1  0  0  0  0
 14 40  1  0  0  0  0
 14 41  1  0  0  0  0
 15 42  1  0  0  0  0
 15 43  1  0  0  0  0
 16 44  1  0  0  0  0
 16 45  1  0  0  0  0
 17 46  1  0  0  0  0
 17 47  1  0  0  0  0
 18 48  1  0  0  0  0
 18 49  1  0  0  0  0
 19 50  1  0  0  0  0
M  END
> <pdb_id>
4GQ3

> <uniprot_id>
O00255

> <usmiles>
S1c2ncnc(N3CCN(C=4SC(CN4)(C)C)CC3)c2C=C1CCC

$$$$
0RT_A_601
          07202405373D 1   1.00000     0.00000     0
            
 47 50  0  0  0  0            999 V2000
   14.7533    6.7530   13.0112 S   0  0  0  0  0  0  0  0  0  0  0  0
   10.9183   15.3077   13.4572 S   0  0  0  0  0  0  0  0  0  0  0  0
   17.7303    6.4136   11.9573 F   0  0  0  0  0  0  0  0  0  0  0  0
   17.7772    8.2193   10.9222 F   0  0  0  0  0  0  0  0  0  0  0  0
   19.2833    7.8284   12.3872 F   0  0  0  0  0  0  0  0  0  0  0  0
   12.2341    6.8395   12.1977 N   0  0  0  0  0  0  0  0  0  0  0  0
   11.2734    8.8117   11.3052 N   0  0  0  0  0  0  0  0  0  0  0  0
   10.0799   15.3698   11.0738 N   0  0  0  0  0  0  0  0  0  0  0  0
   11.5412   13.5640   11.5984 N   0  0  0  0  0  0  0  0  0  0  0  0
   12.3747   10.8341   11.2743 N   0  0  0  0  0  0  0  0  0  0  0  0
    9.0306   17.0904   13.9778 C   0  0  0  0  0  0  0  0  0  0  0  0
   11.1564   17.8550   12.7970 C   0  0  0  0  0  0  0  0  0  0  0  0
   11.2485    7.4738   11.6534 C   0  0  0  0  0  0  0  0  0  0  0  0
   12.3568   12.8552   12.5768 C   0  0  0  0  0  0  0  0  0  0  0  0
   11.2724   12.8163   10.2504 C   0  0  0  0  0  0  0  0  0  0  0  0
   13.2358   11.8173   11.9213 C   0  0  0  0  0  0  0  0  0  0  0  0
   11.1636   11.3433   10.6003 C   0  0  0  0  0  0  0  0  0  0  0  0
    9.4029   16.4927   11.6863 C   0  0  0  0  0  0  0  0  0  0  0  0
   14.8466    9.1759   12.3084 C   0  0  0  0  0  0  0  0  0  0  0  0
   17.0818    8.2961   13.1512 C   0  0  0  0  0  0  0  0  0  0  0  0
   10.8239   14.6620   11.9060 C   0  0  0  0  0  0  0  0  0  0  0  0
   13.3988    7.4493   12.3887 C   0  0  0  0  0  0  0  0  0  0  0  0
   15.6836    8.2324   12.8582 C   0  0  0  0  0  0  0  0  0  0  0  0
   12.3859    9.4680   11.5768 C   0  0  0  0  0  0  0  0  0  0  0  0
   13.5446    8.8455   12.0524 C   0  0  0  0  0  0  0  0  0  0  0  0
   18.1438    7.7518   12.2110 C   0  0  0  0  0  0  0  0  0  0  0  0
   10.1214   16.8176   12.9740 C   0  0  0  0  0  0  0  0  0  0  0  0
    8.5586   17.9378   13.7350 H   0  0  0  0  0  0  0  0  0  0  0  0
    8.3780   16.3327   13.9749 H   0  0  0  0  0  0  0  0  0  0  0  0
    9.4316   17.1815   14.8893 H   0  0  0  0  0  0  0  0  0  0  0  0
   10.7238   18.7143   12.5241 H   0  0  0  0  0  0  0  0  0  0  0  0
   11.6463   17.9874   13.6587 H   0  0  0  0  0  0  0  0  0  0  0  0
   11.8002   17.5661   12.0885 H   0  0  0  0  0  0  0  0  0  0  0  0
   10.4093    6.9614   11.4714 H   0  0  0  0  0  0  0  0  0  0  0  0
   11.7545   12.4019   13.2339 H   0  0  0  0  0  0  0  0  0  0  0  0
   12.9359   13.5151   13.0555 H   0  0  0  0  0  0  0  0  0  0  0  0
   12.0284   12.9668    9.6134 H   0  0  0  0  0  0  0  0  0  0  0  0
   10.4202   13.1390    9.8385 H   0  0  0  0  0  0  0  0  0  0  0  0
   13.8236   12.2531   11.2397 H   0  0  0  0  0  0  0  0  0  0  0  0
   13.8026   11.3685   12.6121 H   0  0  0  0  0  0  0  0  0  0  0  0
   10.3798   11.2145   11.2077 H   0  0  0  0  0  0  0  0  0  0  0  0
   11.0218   10.8228    9.7582 H   0  0  0  0  0  0  0  0  0  0  0  0
    8.4514   16.2526   11.8788 H   0  0  0  0  0  0  0  0  0  0  0  0
    9.4299   17.2821   11.0730 H   0  0  0  0  0  0  0  0  0  0  0  0
   15.1864   10.0926   12.0985 H   0  0  0  0  0  0  0  0  0  0  0  0
   17.2053    7.8125   14.0177 H   0  0  0  0  0  0  0  0  0  0  0  0
   17.2942    9.2652   13.2770 H   0  0  0  0  0  0  0  0  0  0  0  0
  1 22  1  0  0  0  0
  1 23  1  0  0  0  0
  2 21  1  0  0  0  0
  2 27  1  0  0  0  0
  3 26  1  0  0  0  0
  4 26  1  0  0  0  0
  5 26  1  0  0  0  0
  6 13  2  0  0  0  0
  6 22  1  0  0  0  0
  7 13  1  0  0  0  0
  7 24  2  0  0  0  0
  8 18  1  0  0  0  0
  8 21  2  0  0  0  0
  9 14  1  0  0  0  0
  9 15  1  0  0  0  0
  9 21  1  0  0  0  0
 10 16  1  0  0  0  0
 10 17  1  0  0  0  0
 10 24  1  0  0  0  0
 11 27  1  0  0  0  0
 12 27  1  0  0  0  0
 14 16  1  0  0  0  0
 15 17  1  0  0  0  0
 18 27  1  0  0  0  0
 19 23  2  0  0  0  0
 19 25  1  0  0  0  0
 20 23  1  0  0  0  0
 20 26  1  0  0  0  0
 22 25  2  0  0  0  0
 24 25  1  0  0  0  0
 11 28  1  0  0  0  0
 11 29  1  0  0  0  0
 11 30  1  0  0  0  0
 12 31  1  0  0  0  0
 12 32  1  0  0  0  0
 12 33  1  0  0  0  0
 13 34  1  0  0  0  0
 14 35  1  0  0  0  0
 14 36  1  0  0  0  0
 15 37  1  0  0  0  0
 15 38  1  0  0  0  0
 16 39  1  0  0  0  0
 16 40  1  0  0  0  0
 17 41  1  0  0  0  0
 17 42  1  0  0  0  0
 18 43  1  0  0  0  0
 18 44  1  0  0  0  0
 19 45  1  0  0  0  0
 20 46  1  0  0  0  0
 20 47  1  0  0  0  0
M  END
> <pdb_id>
4GQ4

> <uniprot_id>
O00255

> <usmiles>
S1c2ncnc(N3CCN(C=4SC(CN4)(C)C)CC3)c2C=C1CC(F)(F)F

$$$$
0S2_A_600
          07202412553D 1   1.00000     0.00000     0
            
 58 59  0  0  0  0            999 V2000
   43.6412   14.3399   57.8878 S   0  0  0  0  0  0  0  0  0  0  0  0
   45.4957   15.8096   56.3178 O   0  0  0  0  0  0  0  0  0  0  0  0
   44.6845   15.2856   54.2842 O   0  0  0  0  0  0  0  0  0  0  0  0
   42.1739   12.8489   52.2770 O   0  0  0  0  0  0  0  0  0  0  0  0
   43.1795   12.6116   54.3613 N   0  0  0  0  0  0  0  0  0  0  0  0
   45.5420   11.8089   54.5784 C   0  0  0  0  0  0  0  0  0  0  0  0
   43.6665   10.1793   54.2129 C   0  0  0  0  0  0  0  0  0  0  0  0
   37.4313   16.3183   54.3155 C   0  0  0  0  0  0  0  0  0  0  0  0
   39.6754   11.0400   61.3472 C   0  0  0  0  0  0  0  0  0  0  0  0
   41.9667   11.0771   62.4078 C   0  0  0  0  0  0  0  0  0  0  0  0
   40.5445   13.1527   62.3496 C   0  0  0  0  0  0  0  0  0  0  0  0
   42.0241   12.5805   59.2331 C   0  0  0  0  0  0  0  0  0  0  0  0
   38.7779   14.2504   54.7556 C   0  0  0  0  0  0  0  0  0  0  0  0
   39.8492   16.2110   53.5473 C   0  0  0  0  0  0  0  0  0  0  0  0
   39.9319   13.3655   54.2880 C   0  0  0  0  0  0  0  0  0  0  0  0
   40.9572   15.2886   53.0204 C   0  0  0  0  0  0  0  0  0  0  0  0
   42.4445   12.3799   56.7807 C   0  0  0  0  0  0  0  0  0  0  0  0
   41.5383   12.2558   60.2838 C   0  0  0  0  0  0  0  0  0  0  0  0
   44.7022   15.0823   55.4887 C   0  0  0  0  0  0  0  0  0  0  0  0
   42.2349   13.1614   53.4708 C   0  0  0  0  0  0  0  0  0  0  0  0
   42.6128   12.9955   58.0051 C   0  0  0  0  0  0  0  0  0  0  0  0
   44.1778   11.5959   53.9182 C   0  0  0  0  0  0  0  0  0  0  0  0
   43.8685   14.1340   56.2055 C   0  0  0  0  0  0  0  0  0  0  0  0
   43.1594   13.0329   55.7172 C   0  0  0  0  0  0  0  0  0  0  0  0
   38.5500   15.4160   53.7854 C   0  0  0  0  0  0  0  0  0  0  0  0
   41.2230   14.1644   54.0233 C   0  0  0  0  0  0  0  0  0  0  0  0
   40.9447   11.8743   61.5833 C   0  0  0  0  0  0  0  0  0  0  0  0
   45.4937   15.6254   57.3007 H   0  0  0  0  0  0  0  0  0  0  0  0
   46.1809   11.1102   54.2564 H   0  0  0  0  0  0  0  0  0  0  0  0
   45.8905   12.7150   54.3388 H   0  0  0  0  0  0  0  0  0  0  0  0
   45.4461   11.7405   55.5715 H   0  0  0  0  0  0  0  0  0  0  0  0
   44.3455    9.5102   53.9108 H   0  0  0  0  0  0  0  0  0  0  0  0
   43.5132   10.0780   55.1959 H   0  0  0  0  0  0  0  0  0  0  0  0
   42.8075   10.0265   53.7241 H   0  0  0  0  0  0  0  0  0  0  0  0
   37.2857   17.0769   53.6804 H   0  0  0  0  0  0  0  0  0  0  0  0
   36.5876   15.7883   54.4006 H   0  0  0  0  0  0  0  0  0  0  0  0
   37.6902   16.6788   55.2116 H   0  0  0  0  0  0  0  0  0  0  0  0
   39.0215   11.5726   60.8099 H   0  0  0  0  0  0  0  0  0  0  0  0
   39.9129   10.2050   60.8508 H   0  0  0  0  0  0  0  0  0  0  0  0
   39.2660   10.7995   62.2273 H   0  0  0  0  0  0  0  0  0  0  0  0
   42.7851   11.6333   62.5522 H   0  0  0  0  0  0  0  0  0  0  0  0
   41.5667   10.8368   63.2923 H   0  0  0  0  0  0  0  0  0  0  0  0
   42.2135   10.2423   61.9158 H   0  0  0  0  0  0  0  0  0  0  0  0
   41.3575   13.7112   62.5139 H   0  0  0  0  0  0  0  0  0  0  0  0
   39.8860   13.6741   61.8070 H   0  0  0  0  0  0  0  0  0  0  0  0
   40.1305   12.9010   63.2244 H   0  0  0  0  0  0  0  0  0  0  0  0
   38.9925   14.6161   55.6612 H   0  0  0  0  0  0  0  0  0  0  0  0
   37.9443   13.7004   54.8072 H   0  0  0  0  0  0  0  0  0  0  0  0
   39.6752   16.9321   52.8766 H   0  0  0  0  0  0  0  0  0  0  0  0
   40.1459   16.6221   54.4093 H   0  0  0  0  0  0  0  0  0  0  0  0
   39.6606   12.9060   53.4423 H   0  0  0  0  0  0  0  0  0  0  0  0
   40.1175   12.6820   54.9940 H   0  0  0  0  0  0  0  0  0  0  0  0
   41.7945   15.8190   52.8879 H   0  0  0  0  0  0  0  0  0  0  0  0
   40.6716   14.8931   52.1475 H   0  0  0  0  0  0  0  0  0  0  0  0
   41.8828   11.5634   56.6470 H   0  0  0  0  0  0  0  0  0  0  0  0
   44.2938   11.6850   52.9290 H   0  0  0  0  0  0  0  0  0  0  0  0
   38.2535   15.0366   52.9090 H   0  0  0  0  0  0  0  0  0  0  0  0
   41.5633   14.5501   54.8808 H   0  0  0  0  0  0  0  0  0  0  0  0
  1 21  1  0  0  0  0
  1 23  1  0  0  0  0
  2 19  1  0  0  0  0
  3 19  2  0  0  0  0
  4 20  2  0  0  0  0
  5 20  1  0  0  0  0
  5 22  1  0  0  0  0
  5 24  1  0  0  0  0
  6 22  1  0  0  0  0
  7 22  1  0  0  0  0
  8 25  1  0  0  0  0
  9 27  1  0  0  0  0
 10 27  1  0  0  0  0
 11 27  1  0  0  0  0
 12 18  3  0  0  0  0
 12 21  1  0  0  0  0
 13 15  1  0  0  0  0
 13 25  1  0  0  0  0
 14 16  1  0  0  0  0
 14 25  1  0  0  0  0
 15 26  1  0  0  0  0
 16 26  1  0  0  0  0
 17 21  2  0  0  0  0
 17 24  1  0  0  0  0
 18 27  1  0  0  0  0
 19 23  1  0  0  0  0
 20 26  1  0  0  0  0
 23 24  2  0  0  0  0
  2 28  1  0  0  0  0
  6 29  1  0  0  0  0
  6 30  1  0  0  0  0
  6 31  1  0  0  0  0
  7 32  1  0  0  0  0
  7 33  1  0  0  0  0
  7 34  1  0  0  0  0
  8 35  1  0  0  0  0
  8 36  1  0  0  0  0
  8 37  1  0  0  0  0
  9 38  1  0  0  0  0
  9 39  1  0  0  0  0
  9 40  1  0  0  0  0
 10 41  1  0  0  0  0
 10 42  1  0  0  0  0
 10 43  1  0  0  0  0
 11 44  1  0  0  0  0
 11 45  1  0  0  0  0
 11 46  1  0  0  0  0
 13 47  1  0  0  0  0
 13 48  1  0  0  0  0
 14 49  1  0  0  0  0
 14 50  1  0  0  0  0
 15 51  1  0  0  0  0
 15 52  1  0  0  0  0
 16 53  1  0  0  0  0
 16 54  1  0  0  0  0
 17 55  1  0  0  0  0
 22 56  1  0  0  0  0
 25 57  1  0  0  0  0
 26 58  1  0  0  0  0
M  END
> <pdb_id>
4EO6

> <uniprot_id>
P26663

> <usmiles>
S1C(C(=O)O)=C(N(C(=O)C2CCC(CC2)C)C(C)C)C=C1C#CC(C)(C)C

$$$$
0S3_B_600
          07202412553D 1   1.00000     0.00000     0
            
 57 58  0  0  0  0            999 V2000
   43.6123   14.3031   57.9277 S   0  0  0  0  0  0  0  0  0  0  0  0
   45.5259   15.8619   56.2990 O   0  0  0  0  0  0  0  0  0  0  0  0
   44.5501   15.2944   54.3523 O   0  0  0  0  0  0  0  0  0  0  0  0
   42.2620   13.0574   52.2108 O   0  0  0  0  0  0  0  0  0  0  0  0
   44.1365   11.8623   53.7820 N   0  0  0  0  0  0  0  0  0  0  0  0
   43.1711   12.7493   54.3186 N   0  0  0  0  0  0  0  0  0  0  0  0
   45.5355   12.2017   53.9912 C   0  0  0  0  0  0  0  0  0  0  0  0
   43.8176   10.4454   53.9180 C   0  0  0  0  0  0  0  0  0  0  0  0
   37.2516   16.2207   54.1630 C   0  0  0  0  0  0  0  0  0  0  0  0
   40.6423   13.1344   62.3597 C   0  0  0  0  0  0  0  0  0  0  0  0
   39.5867   11.1084   61.3293 C   0  0  0  0  0  0  0  0  0  0  0  0
   41.8934   10.9645   62.3400 C   0  0  0  0  0  0  0  0  0  0  0  0
   39.7234   16.2722   53.5721 C   0  0  0  0  0  0  0  0  0  0  0  0
   38.6919   14.2417   54.6001 C   0  0  0  0  0  0  0  0  0  0  0  0
   40.8797   15.4200   53.0258 C   0  0  0  0  0  0  0  0  0  0  0  0
   39.9246   13.4290   54.2163 C   0  0  0  0  0  0  0  0  0  0  0  0
   41.9602   12.5406   59.1894 C   0  0  0  0  0  0  0  0  0  0  0  0
   42.3860   12.4107   56.7244 C   0  0  0  0  0  0  0  0  0  0  0  0
   41.4845   12.2132   60.2432 C   0  0  0  0  0  0  0  0  0  0  0  0
   44.7312   15.1643   55.6847 C   0  0  0  0  0  0  0  0  0  0  0  0
   42.2543   13.3116   53.4157 C   0  0  0  0  0  0  0  0  0  0  0  0
   42.5570   12.9749   57.9703 C   0  0  0  0  0  0  0  0  0  0  0  0
   43.8463   14.1610   56.2457 C   0  0  0  0  0  0  0  0  0  0  0  0
   43.1383   13.0870   55.6939 C   0  0  0  0  0  0  0  0  0  0  0  0
   38.4489   15.4131   53.6461 C   0  0  0  0  0  0  0  0  0  0  0  0
   41.1951   14.2709   53.9995 C   0  0  0  0  0  0  0  0  0  0  0  0
   40.9109   11.8505   61.5577 C   0  0  0  0  0  0  0  0  0  0  0  0
   45.6380   15.7422   57.2854 H   0  0  0  0  0  0  0  0  0  0  0  0
   46.1145   11.5043   53.5689 H   0  0  0  0  0  0  0  0  0  0  0  0
   45.7285   13.0910   53.5764 H   0  0  0  0  0  0  0  0  0  0  0  0
   45.7254   12.2433   54.9722 H   0  0  0  0  0  0  0  0  0  0  0  0
   44.5506    9.8985   53.5136 H   0  0  0  0  0  0  0  0  0  0  0  0
   43.7260   10.2159   54.8869 H   0  0  0  0  0  0  0  0  0  0  0  0
   42.9575   10.2506   53.4465 H   0  0  0  0  0  0  0  0  0  0  0  0
   36.4432   15.6330   54.1981 H   0  0  0  0  0  0  0  0  0  0  0  0
   37.4529   16.5656   55.0798 H   0  0  0  0  0  0  0  0  0  0  0  0
   37.0780   16.9899   53.5481 H   0  0  0  0  0  0  0  0  0  0  0  0
   41.5036   13.6199   62.5099 H   0  0  0  0  0  0  0  0  0  0  0  0
   40.0137   13.7210   61.8492 H   0  0  0  0  0  0  0  0  0  0  0  0
   40.2351   12.8974   63.2418 H   0  0  0  0  0  0  0  0  0  0  0  0
   39.7585   10.2727   60.8078 H   0  0  0  0  0  0  0  0  0  0  0  0
   39.1801   10.8727   62.2121 H   0  0  0  0  0  0  0  0  0  0  0  0
   38.9587   11.6963   60.8195 H   0  0  0  0  0  0  0  0  0  0  0  0
   42.0719   10.1275   61.8227 H   0  0  0  0  0  0  0  0  0  0  0  0
   42.7510   11.4598   62.4787 H   0  0  0  0  0  0  0  0  0  0  0  0
   41.4966   10.7298   63.2274 H   0  0  0  0  0  0  0  0  0  0  0  0
   39.5664   17.0510   52.9647 H   0  0  0  0  0  0  0  0  0  0  0  0
   39.9560   16.6041   54.4863 H   0  0  0  0  0  0  0  0  0  0  0  0
   38.8186   14.6009   55.5247 H   0  0  0  0  0  0  0  0  0  0  0  0
   37.8925   13.6413   54.5823 H   0  0  0  0  0  0  0  0  0  0  0  0
   41.6913   15.9941   52.9175 H   0  0  0  0  0  0  0  0  0  0  0  0
   40.6197   15.0396   52.1383 H   0  0  0  0  0  0  0  0  0  0  0  0
   39.7250   12.9387   53.3679 H   0  0  0  0  0  0  0  0  0  0  0  0
   40.1058   12.7707   54.9470 H   0  0  0  0  0  0  0  0  0  0  0  0
   41.8026   11.6169   56.5523 H   0  0  0  0  0  0  0  0  0  0  0  0
   38.2379   15.0578   52.7355 H   0  0  0  0  0  0  0  0  0  0  0  0
   41.5132   14.6405   54.8726 H   0  0  0  0  0  0  0  0  0  0  0  0
  1 22  1  0  0  0  0
  1 23  1  0  0  0  0
  2 20  1  0  0  0  0
  3 20  2  0  0  0  0
  4 21  2  0  0  0  0
  5  6  1  0  0  0  0
  5  7  1  0  0  0  0
  5  8  1  0  0  0  0
  6 21  1  0  0  0  0
  6 24  1  0  0  0  0
  9 25  1  0  0  0  0
 10 27  1  0  0  0  0
 11 27  1  0  0  0  0
 12 27  1  0  0  0  0
 13 15  1  0  0  0  0
 13 25  1  0  0  0  0
 14 16  1  0  0  0  0
 14 25  1  0  0  0  0
 15 26  1  0  0  0  0
 16 26  1  0  0  0  0
 17 19  3  0  0  0  0
 17 22  1  0  0  0  0
 18 22  2  0  0  0  0
 18 24  1  0  0  0  0
 19 27  1  0  0  0  0
 20 23  1  0  0  0  0
 21 26  1  0  0  0  0
 23 24  2  0  0  0  0
  2 28  1  0  0  0  0
  7 29  1  0  0  0  0
  7 30  1  0  0  0  0
  7 31  1  0  0  0  0
  8 32  1  0  0  0  0
  8 33  1  0  0  0  0
  8 34  1  0  0  0  0
  9 35  1  0  0  0  0
  9 36  1  0  0  0  0
  9 37  1  0  0  0  0
 10 38  1  0  0  0  0
 10 39  1  0  0  0  0
 10 40  1  0  0  0  0
 11 41  1  0  0  0  0
 11 42  1  0  0  0  0
 11 43  1  0  0  0  0
 12 44  1  0  0  0  0
 12 45  1  0  0  0  0
 12 46  1  0  0  0  0
 13 47  1  0  0  0  0
 13 48  1  0  0  0  0
 14 49  1  0  0  0  0
 14 50  1  0  0  0  0
 15 51  1  0  0  0  0
 15 52  1  0  0  0  0
 16 53  1  0  0  0  0
 16 54  1  0  0  0  0
 18 55  1  0  0  0  0
 25 56  1  0  0  0  0
 26 57  1  0  0  0  0
M  END
> <pdb_id>
4EO8

> <uniprot_id>
P26663

> <usmiles>
S1C(C(=O)O)=C(N(N(C)C)C(=O)C2CCC(CC2)C)C=C1C#CC(C)(C)C

$$$$
0S5_P_302
          07202403373D 1   1.00000     0.00000     0
            
 59 61  0  0  0  0            999 V2000
   30.6571   -4.0826    4.9114 O   0  0  0  0  0  0  0  0  0  0  0  0
   30.7914   -1.6001    5.2790 O   0  0  0  0  0  0  0  0  0  0  0  0
   24.2671   -7.5259    5.9168 O   0  0  0  0  0  0  0  0  0  0  0  0
   21.6809   -6.8933    5.3613 O   0  0  0  0  0  0  0  0  0  0  0  0
   25.4985   -4.7638    4.3359 O   0  0  0  0  0  0  0  0  0  0  0  0
   23.3621   -7.2159    3.8232 N   0  0  0  0  0  0  0  0  0  0  0  0
   29.5050   -3.3092    4.6830 N   0  0  0  0  0  0  0  0  0  0  0  0
   26.6263   -6.6607    4.8242 N   0  0  0  0  0  0  0  0  0  0  0  0
   29.6845   -2.0062    4.9660 C   0  0  0  0  0  0  0  0  0  0  0  0
   27.8594   -7.2981    5.1944 C   0  0  0  0  0  0  0  0  0  0  0  0
   19.4067   -6.8827    1.0162 C   0  0  0  0  0  0  0  0  0  0  0  0
   27.6570   -8.7084    4.6869 C   0  0  0  0  0  0  0  0  0  0  0  0
   19.2007   -6.0928    2.1328 C   0  0  0  0  0  0  0  0  0  0  0  0
   20.4751   -7.7579    0.9312 C   0  0  0  0  0  0  0  0  0  0  0  0
   26.1176   -5.3825    9.5805 C   0  0  0  0  0  0  0  0  0  0  0  0
   25.6370   -3.9790    9.9170 C   0  0  0  0  0  0  0  0  0  0  0  0
   28.2951   -3.9497    4.3271 C   0  0  0  0  0  0  0  0  0  0  0  0
   27.1093   -5.2450    8.4139 C   0  0  0  0  0  0  0  0  0  0  0  0
   26.1834   -3.0716    8.8336 C   0  0  0  0  0  0  0  0  0  0  0  0
   26.3158   -8.8283    4.0045 C   0  0  0  0  0  0  0  0  0  0  0  0
   20.0777   -6.1933    3.1926 C   0  0  0  0  0  0  0  0  0  0  0  0
   21.3780   -7.8541    1.9670 C   0  0  0  0  0  0  0  0  0  0  0  0
   27.2364   -3.4356    6.5043 C   0  0  0  0  0  0  0  0  0  0  0  0
   24.3930   -7.4117    4.7041 C   0  0  0  0  0  0  0  0  0  0  0  0
   22.0599   -7.0900    4.2192 C   0  0  0  0  0  0  0  0  0  0  0  0
   26.4637   -5.2897    4.8604 C   0  0  0  0  0  0  0  0  0  0  0  0
   26.5920   -4.0505    7.7149 C   0  0  0  0  0  0  0  0  0  0  0  0
   25.7310   -7.4273    4.0081 C   0  0  1  0  0  0  0  0  0  0  0  0
   21.1456   -7.0557    3.0801 C   0  0  0  0  0  0  0  0  0  0  0  0
   27.5983   -4.5783    5.5118 C   0  0  1  0  0  0  0  0  0  0  0  0
   30.4673   -5.0381    4.6855 H   0  0  0  0  0  0  0  0  0  0  0  0
   23.5717   -7.1626    2.8469 H   0  0  0  0  0  0  0  0  0  0  0  0
   28.9125   -1.3722    4.9200 H   0  0  0  0  0  0  0  0  0  0  0  0
   27.9907   -7.2851    6.1857 H   0  0  0  0  0  0  0  0  0  0  0  0
   28.6410   -6.8614    4.7489 H   0  0  0  0  0  0  0  0  0  0  0  0
   18.7668   -6.8196    0.2503 H   0  0  0  0  0  0  0  0  0  0  0  0
   27.6941   -9.3452    5.4570 H   0  0  0  0  0  0  0  0  0  0  0  0
   28.3810   -8.9319    4.0343 H   0  0  0  0  0  0  0  0  0  0  0  0
   18.4282   -5.4589    2.1711 H   0  0  0  0  0  0  0  0  0  0  0  0
   20.5922   -8.3230    0.1145 H   0  0  0  0  0  0  0  0  0  0  0  0
   25.3442   -5.9553    9.3090 H   0  0  0  0  0  0  0  0  0  0  0  0
   26.5723   -5.7898   10.3725 H   0  0  0  0  0  0  0  0  0  0  0  0
   25.9853   -3.6989   10.8116 H   0  0  0  0  0  0  0  0  0  0  0  0
   24.6376   -3.9475    9.9237 H   0  0  0  0  0  0  0  0  0  0  0  0
   28.4964   -4.6649    3.6578 H   0  0  0  0  0  0  0  0  0  0  0  0
   27.6830   -3.2730    3.9180 H   0  0  0  0  0  0  0  0  0  0  0  0
   27.0886   -6.0506    7.8218 H   0  0  0  0  0  0  0  0  0  0  0  0
   28.0417   -5.0980    8.7442 H   0  0  0  0  0  0  0  0  0  0  0  0
   26.9743   -2.5566    9.1641 H   0  0  0  0  0  0  0  0  0  0  0  0
   25.4817   -2.4353    8.5129 H   0  0  0  0  0  0  0  0  0  0  0  0
   25.7223   -9.4559    4.5085 H   0  0  0  0  0  0  0  0  0  0  0  0
   26.4290   -9.1572    3.0670 H   0  0  0  0  0  0  0  0  0  0  0  0
   19.9414   -5.6529    4.0229 H   0  0  0  0  0  0  0  0  0  0  0  0
   22.1643   -8.4700    1.9200 H   0  0  0  0  0  0  0  0  0  0  0  0
   28.0659   -2.9465    6.7742 H   0  0  0  0  0  0  0  0  0  0  0  0
   26.6003   -2.7984    6.0693 H   0  0  0  0  0  0  0  0  0  0  0  0
   25.7106   -4.3644    7.3618 H   0  0  0  0  0  0  0  0  0  0  0  0
   25.6675   -7.0539    3.0826 H   0  0  0  0  0  0  0  0  0  0  0  0
   28.2056   -5.2373    5.9557 H   0  0  0  0  0  0  0  0  0  0  0  0
  1  7  1  0  0  0  0
  2  9  2  0  0  0  0
  3 24  2  0  0  0  0
  4 25  2  0  0  0  0
  5 26  2  0  0  0  0
  6 24  1  0  0  0  0
  6 25  1  0  0  0  0
  7  9  1  0  0  0  0
  7 17  1  0  0  0  0
  8 10  1  0  0  0  0
  8 26  1  0  0  0  0
  8 28  1  0  0  0  0
 10 12  1  0  0  0  0
 11 13  2  0  0  0  0
 11 14  1  0  0  0  0
 12 20  1  0  0  0  0
 13 21  1  0  0  0  0
 14 22  2  0  0  0  0
 15 16  1  0  0  0  0
 15 18  1  0  0  0  0
 16 19  1  0  0  0  0
 17 30  1  0  0  0  0
 18 27  1  0  0  0  0
 19 27  1  0  0  0  0
 20 28  1  0  0  0  0
 21 29  2  0  0  0  0
 22 29  1  0  0  0  0
 23 27  1  0  0  0  0
 23 30  1  0  0  0  0
 24 28  1  0  0  0  0
 25 29  1  0  0  0  0
 26 30  1  0  0  0  0
  1 31  1  0  0  0  0
  6 32  1  0  0  0  0
  9 33  1  0  0  0  0
 10 34  1  0  0  0  0
 10 35  1  0  0  0  0
 11 36  1  0  0  0  0
 12 37  1  0  0  0  0
 12 38  1  0  0  0  0
 13 39  1  0  0  0  0
 14 40  1  0  0  0  0
 15 41  1  0  0  0  0
 15 42  1  0  0  0  0
 16 43  1  0  0  0  0
 16 44  1  0  0  0  0
 17 45  1  0  0  0  0
 17 46  1  0  0  0  0
 18 47  1  0  0  0  0
 18 48  1  0  0  0  0
 19 49  1  0  0  0  0
 19 50  1  0  0  0  0
 20 51  1  0  0  0  0
 20 52  1  0  0  0  0
 21 53  1  0  0  0  0
 22 54  1  0  0  0  0
 23 55  1  0  0  0  0
 23 56  1  0  0  0  0
 27 57  1  0  0  0  0
 28 58  1  0  0  0  0
 30 59  1  0  0  0  0
M  END
> <pdb_id>
4EOX

> <uniprot_id>
Q8DP79

> <usmiles>
O=C(NC(=O)[C@H]1N(C(=O)[C@@H](CN(O)C=O)CC2CCCC2)CCC1)c3ccccc3

$$$$
0S6_A_203
          07212401333D 1   1.00000     0.00000     0
            
 47 50  0  0  0  0            999 V2000
  -16.9847  -21.7547  -13.0426 Cl  0  0  0  0  0  0  0  0  0  0  0  0
  -14.5207  -19.0288  -21.1183 S   0  0  0  0  0  0  0  0  0  0  0  0
  -11.9553  -24.7142  -19.3189 O   0  0  0  0  0  0  0  0  0  0  0  0
  -12.6268  -26.7497  -20.0156 O   0  0  0  0  0  0  0  0  0  0  0  0
  -16.8103  -22.6056  -22.8528 N   0  0  0  0  0  0  0  0  0  0  0  0
  -15.9315  -23.5343  -22.3026 N   0  0  0  0  0  0  0  0  0  0  0  0
  -14.6844  -23.3103  -19.1350 N   0  0  0  0  0  0  0  0  0  0  0  0
  -15.5480  -21.5660  -21.3295 N   0  0  0  0  0  0  0  0  0  0  0  0
  -11.5787  -27.3682  -19.2482 C   0  0  0  0  0  0  0  0  0  0  0  0
  -13.1984  -17.2202  -19.4280 C   0  0  0  0  0  0  0  0  0  0  0  0
  -17.3150  -20.1111  -22.5644 C   0  0  0  0  0  0  0  0  0  0  0  0
  -13.0042  -19.6571  -17.4415 C   0  0  0  0  0  0  0  0  0  0  0  0
  -16.5128  -20.7958  -15.5429 C   0  0  0  0  0  0  0  0  0  0  0  0
  -15.5548  -22.9559  -14.9689 C   0  0  0  0  0  0  0  0  0  0  0  0
  -15.9236  -20.8889  -16.7925 C   0  0  0  0  0  0  0  0  0  0  0  0
  -14.9783  -23.0450  -16.2599 C   0  0  0  0  0  0  0  0  0  0  0  0
  -13.8710  -24.8474  -20.8316 C   0  0  0  0  0  0  0  0  0  0  0  0
  -12.7679  -25.3700  -19.9446 C   0  0  0  0  0  0  0  0  0  0  0  0
  -16.2886  -21.8423  -14.6541 C   0  0  0  0  0  0  0  0  0  0  0  0
  -14.8624  -20.5863  -20.4964 C   0  0  0  0  0  0  0  0  0  0  0  0
  -13.7219  -18.6323  -19.6148 C   0  0  0  0  0  0  0  0  0  0  0  0
  -16.6027  -21.3972  -22.2739 C   0  0  0  0  0  0  0  0  0  0  0  0
  -15.1626  -22.8932  -21.4194 C   0  0  0  0  0  0  0  0  0  0  0  0
  -14.1112  -23.4195  -20.4886 C   0  0  1  0  0  0  0  0  0  0  0  0
  -14.6340  -22.1403  -18.5556 C   0  0  0  0  0  0  0  0  0  0  0  0
  -15.1848  -22.0113  -17.1626 C   0  0  0  0  0  0  0  0  0  0  0  0
  -13.7175  -19.7463  -18.7336 C   0  0  0  0  0  0  0  0  0  0  0  0
  -14.4085  -20.8686  -19.2821 C   0  0  0  0  0  0  0  0  0  0  0  0
  -11.5966  -28.3571  -19.3958 H   0  0  0  0  0  0  0  0  0  0  0  0
  -10.6937  -27.0038  -19.5383 H   0  0  0  0  0  0  0  0  0  0  0  0
  -11.7172  -27.1735  -18.2772 H   0  0  0  0  0  0  0  0  0  0  0  0
  -12.7693  -17.1401  -18.5282 H   0  0  0  0  0  0  0  0  0  0  0  0
  -12.5240  -17.0180  -20.1381 H   0  0  0  0  0  0  0  0  0  0  0  0
  -13.9569  -16.5719  -19.4944 H   0  0  0  0  0  0  0  0  0  0  0  0
  -16.9470  -19.3871  -21.9809 H   0  0  0  0  0  0  0  0  0  0  0  0
  -17.1814  -19.8656  -23.5246 H   0  0  0  0  0  0  0  0  0  0  0  0
  -18.2918  -20.2224  -22.3816 H   0  0  0  0  0  0  0  0  0  0  0  0
  -13.1000  -20.5213  -16.9475 H   0  0  0  0  0  0  0  0  0  0  0  0
  -12.0352  -19.4739  -17.6077 H   0  0  0  0  0  0  0  0  0  0  0  0
  -13.3947  -18.9159  -16.8956 H   0  0  0  0  0  0  0  0  0  0  0  0
  -17.0760  -20.0092  -15.2899 H   0  0  0  0  0  0  0  0  0  0  0  0
  -15.4289  -23.6900  -14.3016 H   0  0  0  0  0  0  0  0  0  0  0  0
  -16.0302  -20.1361  -17.4420 H   0  0  0  0  0  0  0  0  0  0  0  0
  -14.4306  -23.8411  -16.5171 H   0  0  0  0  0  0  0  0  0  0  0  0
  -14.7059  -25.3765  -20.6800 H   0  0  0  0  0  0  0  0  0  0  0  0
  -13.5980  -24.9232  -21.7907 H   0  0  0  0  0  0  0  0  0  0  0  0
  -13.2681  -22.8871  -20.5638 H   0  0  0  0  0  0  0  0  0  0  0  0
  1 19  1  0  0  0  0
  2 20  1  0  0  0  0
  2 21  1  0  0  0  0
  3 18  2  0  0  0  0
  4  9  1  0  0  0  0
  4 18  1  0  0  0  0
  5  6  1  0  0  0  0
  5 22  2  0  0  0  0
  6 23  2  0  0  0  0
  7 24  1  0  0  0  0
  7 25  2  0  0  0  0
  8 20  1  0  0  0  0
  8 22  1  0  0  0  0
  8 23  1  0  0  0  0
 10 21  1  0  0  0  0
 11 22  1  0  0  0  0
 12 27  1  0  0  0  0
 13 15  2  0  0  0  0
 13 19  1  0  0  0  0
 14 16  1  0  0  0  0
 14 19  2  0  0  0  0
 15 26  1  0  0  0  0
 16 26  2  0  0  0  0
 17 18  1  0  0  0  0
 17 24  1  0  0  0  0
 20 28  2  0  0  0  0
 21 27  2  0  0  0  0
 23 24  1  0  0  0  0
 25 26  1  0  0  0  0
 25 28  1  0  0  0  0
 27 28  1  0  0  0  0
  9 29  1  0  0  0  0
  9 30  1  0  0  0  0
  9 31  1  0  0  0  0
 10 32  1  0  0  0  0
 10 33  1  0  0  0  0
 10 34  1  0  0  0  0
 11 35  1  0  0  0  0
 11 36  1  0  0  0  0
 11 37  1  0  0  0  0
 12 38  1  0  0  0  0
 12 39  1  0  0  0  0
 12 40  1  0  0  0  0
 13 41  1  0  0  0  0
 14 42  1  0  0  0  0
 15 43  1  0  0  0  0
 16 44  1  0  0  0  0
 17 45  1  0  0  0  0
 17 46  1  0  0  0  0
 24 47  1  0  0  0  0
M  END
> <pdb_id>
4F3I

> <uniprot_id>
O60885

> <usmiles>
Clc1ccc(cc1)C2=N[C@H](C3=NN=C(N3C=4SC(=C(C42)C)C)C)CC(=O)OC

$$$$
0S6_B_501
          07202411433D 1   1.00000     0.00000     0
            
 47 50  0  0  0  0            999 V2000
   13.8330   10.6570   25.6526 Cl  0  0  0  0  0  0  0  0  0  0  0  0
   11.5256   11.4214   17.2381 S   0  0  0  0  0  0  0  0  0  0  0  0
   13.7188   16.8252   19.9208 O   0  0  0  0  0  0  0  0  0  0  0  0
   15.7937   17.7484   19.6275 O   0  0  0  0  0  0  0  0  0  0  0  0
   15.9242   12.0983   16.3204 N   0  0  0  0  0  0  0  0  0  0  0  0
   15.9600   13.3034   16.9660 N   0  0  0  0  0  0  0  0  0  0  0  0
   14.3144   13.9346   19.9235 N   0  0  0  0  0  0  0  0  0  0  0  0
   14.0796   12.2778   17.5226 N   0  0  0  0  0  0  0  0  0  0  0  0
   15.6767   18.4128   20.8841 C   0  0  0  0  0  0  0  0  0  0  0  0
    9.0340   11.2489   18.3818 C   0  0  0  0  0  0  0  0  0  0  0  0
   14.3940   10.1586   16.2011 C   0  0  0  0  0  0  0  0  0  0  0  0
   10.3415   12.6738   20.8321 C   0  0  0  0  0  0  0  0  0  0  0  0
   13.8480   12.7893   23.9825 C   0  0  0  0  0  0  0  0  0  0  0  0
   13.4080   10.6319   23.0413 C   0  0  0  0  0  0  0  0  0  0  0  0
   13.7431   13.3617   22.7306 C   0  0  0  0  0  0  0  0  0  0  0  0
   13.2959   11.2091   21.8023 C   0  0  0  0  0  0  0  0  0  0  0  0
   15.4352   15.6276   18.6906 C   0  0  0  0  0  0  0  0  0  0  0  0
   14.8575   16.7696   19.4797 C   0  0  0  0  0  0  0  0  0  0  0  0
   13.6868   11.4257   24.1257 C   0  0  0  0  0  0  0  0  0  0  0  0
   12.8219   12.1214   18.1025 C   0  0  0  0  0  0  0  0  0  0  0  0
   10.4334   11.6844   18.5297 C   0  0  0  0  0  0  0  0  0  0  0  0
   14.8061   11.4971   16.6594 C   0  0  0  0  0  0  0  0  0  0  0  0
   14.8578   13.4016   17.6782 C   0  0  0  0  0  0  0  0  0  0  0  0
   13.3665   13.1325   20.2766 C   0  0  0  0  0  0  0  0  0  0  0  0
   13.4598   12.5727   21.6328 C   0  0  0  0  0  0  0  0  0  0  0  0
   11.0534   12.2948   19.5993 C   0  0  0  0  0  0  0  0  0  0  0  0
   12.4299   12.5582   19.3516 C   0  0  0  0  0  0  0  0  0  0  0  0
   14.4324   14.5007   18.5776 C   0  0  1  0  0  0  0  0  0  0  0  0
   16.5752   19.0106   21.0591 H   0  0  0  0  0  0  0  0  0  0  0  0
   15.5696   17.6844   21.6938 H   0  0  0  0  0  0  0  0  0  0  0  0
   14.8045   19.0721   20.8659 H   0  0  0  0  0  0  0  0  0  0  0  0
    8.8019   10.4818   19.1210 H   0  0  0  0  0  0  0  0  0  0  0  0
    8.3576   12.0943   18.5326 H   0  0  0  0  0  0  0  0  0  0  0  0
    8.8611   10.8311   17.3874 H   0  0  0  0  0  0  0  0  0  0  0  0
   14.1835    9.5163   17.0601 H   0  0  0  0  0  0  0  0  0  0  0  0
   13.5042   10.2027   15.5720 H   0  0  0  0  0  0  0  0  0  0  0  0
   15.1971    9.6985   15.6200 H   0  0  0  0  0  0  0  0  0  0  0  0
    9.2590   12.6583   20.6853 H   0  0  0  0  0  0  0  0  0  0  0  0
   10.5940   11.9965   21.6476 H   0  0  0  0  0  0  0  0  0  0  0  0
   10.6265   13.6866   21.1270 H   0  0  0  0  0  0  0  0  0  0  0  0
   14.0771   13.4033   24.8461 H   0  0  0  0  0  0  0  0  0  0  0  0
   13.2762    9.5649   23.1618 H   0  0  0  0  0  0  0  0  0  0  0  0
   13.8832   14.4292   22.6112 H   0  0  0  0  0  0  0  0  0  0  0  0
   13.0813   10.5675   20.9576 H   0  0  0  0  0  0  0  0  0  0  0  0
   15.7296   15.9946   17.7028 H   0  0  0  0  0  0  0  0  0  0  0  0
   16.3172   15.2737   19.2216 H   0  0  0  0  0  0  0  0  0  0  0  0
   13.4713   14.9009   18.2430 H   0  0  0  0  0  0  0  0  0  0  0  0
  1 19  1  0  0  0  0
  2 20  1  0  0  0  0
  2 21  1  0  0  0  0
  3 18  2  0  0  0  0
  4  9  1  0  0  0  0
  4 18  1  0  0  0  0
  5  6  1  0  0  0  0
  5 22  2  0  0  0  0
  6 23  2  0  0  0  0
  7 24  2  0  0  0  0
  7 28  1  0  0  0  0
  8 20  1  0  0  0  0
  8 22  1  0  0  0  0
  8 23  1  0  0  0  0
  9 29  1  0  0  0  0
  9 30  1  0  0  0  0
  9 31  1  0  0  0  0
 10 21  1  0  0  0  0
 10 32  1  0  0  0  0
 10 33  1  0  0  0  0
 10 34  1  0  0  0  0
 11 22  1  0  0  0  0
 11 35  1  0  0  0  0
 11 36  1  0  0  0  0
 11 37  1  0  0  0  0
 12 26  1  0  0  0  0
 12 38  1  0  0  0  0
 12 39  1  0  0  0  0
 12 40  1  0  0  0  0
 13 15  2  0  0  0  0
 13 19  1  0  0  0  0
 13 41  1  0  0  0  0
 14 16  1  0  0  0  0
 14 19  2  0  0  0  0
 14 42  1  0  0  0  0
 15 25  1  0  0  0  0
 15 43  1  0  0  0  0
 16 25  2  0  0  0  0
 16 44  1  0  0  0  0
 17 18  1  0  0  0  0
 17 28  1  0  0  0  0
 17 45  1  0  0  0  0
 17 46  1  0  0  0  0
 20 27  2  0  0  0  0
 21 26  2  0  0  0  0
 23 28  1  0  0  0  0
 24 25  1  0  0  0  0
 24 27  1  0  0  0  0
 26 27  1  0  0  0  0
 28 47  1  0  0  0  0
M  END
> <pdb_id>
5UEU

> <uniprot_id>
O60885

> <usmiles>
Clc1ccc(cc1)C2=N[C@H](C3=NN=C(N3C=4SC(=C(C42)C)C)C)CC(=O)OC

$$$$
0SL_A_402
          07202415063D 1   1.00000     0.00000     0
            
 39 41  0  0  0  0            999 V2000
   -3.6390    4.3160   15.8300 S   0  0  0  0  0  0  0  0  0  0  0  0
   -4.9290    3.8020   16.3440 O   0  0  0  0  0  0  0  0  0  0  0  0
   -2.4940    4.3390   16.8000 O   0  0  0  0  0  0  0  0  0  0  0  0
   -0.2450    1.7140   11.4060 O   0  0  0  0  0  0  0  0  0  0  0  0
    0.5580    2.5430   13.3560 O   0  0  0  0  0  0  0  0  0  0  0  0
   -3.4000    3.6510   14.2770 N   0  0  0  0  0  0  0  0  0  0  0  0
   -4.4330    2.6500   13.9330 C   0  0  0  0  0  0  0  0  0  0  0  0
   -4.2490    2.0270   12.5270 C   0  0  0  0  0  0  0  0  0  0  0  0
   -4.2870   10.7410   14.1720 C   0  0  0  0  0  0  0  0  0  0  0  0
   -2.9320   10.4410   14.3750 C   0  0  0  0  0  0  0  0  0  0  0  0
   -1.9610    3.3510   14.0480 C   0  0  0  0  0  0  0  0  0  0  0  0
   -2.8420    2.1290   12.0000 C   0  0  0  0  0  0  0  0  0  0  0  0
   -5.2220    9.7230   14.3430 C   0  0  0  0  0  0  0  0  0  0  0  0
   -2.4750    9.1550   14.7280 C   0  0  0  0  0  0  0  0  0  0  0  0
   -5.3000    6.1800   15.2190 C   0  0  0  0  0  0  0  0  0  0  0  0
   -5.7090    7.4530   14.8560 C   0  0  0  0  0  0  0  0  0  0  0  0
   -2.9650    6.8480   15.2530 C   0  0  0  0  0  0  0  0  0  0  0  0
   -3.9500    5.9000   15.4370 C   0  0  0  0  0  0  0  0  0  0  0  0
   -0.3740    2.1780   12.5640 C   0  0  0  0  0  0  0  0  0  0  0  0
   -1.8030    2.1700   13.1280 C   0  0  1  0  0  0  0  0  0  0  0  0
   -4.7600    8.4430   14.7070 C   0  0  0  0  0  0  0  0  0  0  0  0
   -3.3930    8.1460   14.9070 C   0  0  0  0  0  0  0  0  0  0  0  0
   -1.0542    1.4610   10.8757 H   0  0  0  0  0  0  0  0  0  0  0  0
   -5.3280    3.0948   13.9670 H   0  0  0  0  0  0  0  0  0  0  0  0
   -4.3998    1.9157   14.6110 H   0  0  0  0  0  0  0  0  0  0  0  0
   -4.8596    2.4981   11.8904 H   0  0  0  0  0  0  0  0  0  0  0  0
   -4.4990    1.0599   12.5749 H   0  0  0  0  0  0  0  0  0  0  0  0
   -4.5745   11.6626   13.9111 H   0  0  0  0  0  0  0  0  0  0  0  0
   -2.2594   11.1727   14.2643 H   0  0  0  0  0  0  0  0  0  0  0  0
   -1.5252    3.1451   14.9242 H   0  0  0  0  0  0  0  0  0  0  0  0
   -1.5209    4.1490   13.6362 H   0  0  0  0  0  0  0  0  0  0  0  0
   -2.7612    2.9648   11.4570 H   0  0  0  0  0  0  0  0  0  0  0  0
   -2.6569    1.3356   11.4201 H   0  0  0  0  0  0  0  0  0  0  0  0
   -6.1979    9.8966   14.2106 H   0  0  0  0  0  0  0  0  0  0  0  0
   -1.4978    8.9787   14.8466 H   0  0  0  0  0  0  0  0  0  0  0  0
   -5.9793    5.4540   15.3260 H   0  0  0  0  0  0  0  0  0  0  0  0
   -6.6774    7.6511   14.7043 H   0  0  0  0  0  0  0  0  0  0  0  0
   -1.9959    6.6257   15.3597 H   0  0  0  0  0  0  0  0  0  0  0  0
   -1.9117    1.3396   13.6745 H   0  0  0  0  0  0  0  0  0  0  0  0
  1  2  2  0  0  0  0
  1  3  2  0  0  0  0
  1  6  1  0  0  0  0
  1 18  1  0  0  0  0
  4 19  1  0  0  0  0
  5 19  2  0  0  0  0
  6  7  1  0  0  0  0
  6 11  1  0  0  0  0
  7  8  1  0  0  0  0
  8 12  1  0  0  0  0
  9 10  2  0  0  0  0
  9 13  1  0  0  0  0
 10 14  1  0  0  0  0
 11 20  1  0  0  0  0
 12 20  1  0  0  0  0
 13 21  2  0  0  0  0
 14 22  2  0  0  0  0
 15 16  2  0  0  0  0
 15 18  1  0  0  0  0
 16 21  1  0  0  0  0
 17 18  2  0  0  0  0
 17 22  1  0  0  0  0
 19 20  1  0  0  0  0
 21 22  1  0  0  0  0
  4 23  1  0  0  0  0
  7 24  1  0  0  0  0
  7 25  1  0  0  0  0
  8 26  1  0  0  0  0
  8 27  1  0  0  0  0
  9 28  1  0  0  0  0
 10 29  1  0  0  0  0
 11 30  1  0  0  0  0
 11 31  1  0  0  0  0
 12 32  1  0  0  0  0
 12 33  1  0  0  0  0
 13 34  1  0  0  0  0
 14 35  1  0  0  0  0
 15 36  1  0  0  0  0
 16 37  1  0  0  0  0
 17 38  1  0  0  0  0
 20 39  1  0  0  0  0
M  END
> <pdb_id>
4FA3

> <uniprot_id>
P42330

> <usmiles>
S(=O)(=O)(N1C[C@H](C(=O)O)CCC1)c2cc3c(cc2)cccc3

$$$$
0SX_A_601
          07202415053D 1   1.00000     0.00000     0
            
 32 35  0  0  0  0            999 V2000
   25.4130   19.3720   60.1230 Cl  0  0  0  0  0  0  0  0  0  0  0  0
   17.7340   15.9310   59.5330 O   0  0  0  0  0  0  0  0  0  0  0  0
   20.4880   16.2650   60.0680 O   0  0  0  0  0  0  0  0  0  0  0  0
   16.3610   19.7920   57.3970 N   0  0  0  0  0  0  0  0  0  0  0  0
   17.6930   18.0700   58.7790 N   0  0  0  0  0  0  0  0  0  0  0  0
   19.7030   19.3240   58.8060 N   0  0  0  0  0  0  0  0  0  0  0  0
   15.2690   20.5870   58.0040 C   0  0  0  0  0  0  0  0  0  0  0  0
   15.8710   21.0670   59.3380 C   0  0  0  0  0  0  0  0  0  0  0  0
   24.0310   17.0460   60.6250 C   0  0  0  0  0  0  0  0  0  0  0  0
   22.8550   16.2800   60.6290 C   0  0  0  0  0  0  0  0  0  0  0  0
   17.3090   21.3980   58.9660 C   0  0  0  0  0  0  0  0  0  0  0  0
   22.7180   18.8490   59.6950 C   0  0  0  0  0  0  0  0  0  0  0  0
   23.9500   18.3570   60.1520 C   0  0  0  0  0  0  0  0  0  0  0  0
   18.3640   16.9830   59.3190 C   0  0  0  0  0  0  0  0  0  0  0  0
   18.3800   19.2590   58.5190 C   0  0  0  0  0  0  0  0  0  0  0  0
   21.7110   16.7970   60.1680 C   0  0  0  0  0  0  0  0  0  0  0  0
   19.6770   17.1060   59.5870 C   0  0  0  0  0  0  0  0  0  0  0  0
   17.6580   20.3160   57.9470 C   0  0  1  0  0  0  0  0  0  0  0  0
   20.3520   18.2540   59.3390 C   0  0  0  0  0  0  0  0  0  0  0  0
   21.6250   18.0610   59.7120 C   0  0  0  0  0  0  0  0  0  0  0  0
   16.3456   19.8937   56.4023 H   0  0  0  0  0  0  0  0  0  0  0  0
   16.7162   18.0029   58.5754 H   0  0  0  0  0  0  0  0  0  0  0  0
   14.4595   20.0211   58.1604 H   0  0  0  0  0  0  0  0  0  0  0  0
   15.0259   21.3630   57.4220 H   0  0  0  0  0  0  0  0  0  0  0  0
   15.8357   20.3447   60.0287 H   0  0  0  0  0  0  0  0  0  0  0  0
   15.3923   21.8766   59.6776 H   0  0  0  0  0  0  0  0  0  0  0  0
   24.8970   16.6658   60.9497 H   0  0  0  0  0  0  0  0  0  0  0  0
   22.8726   15.3431   60.9782 H   0  0  0  0  0  0  0  0  0  0  0  0
   17.9080   21.3458   59.7650 H   0  0  0  0  0  0  0  0  0  0  0  0
   17.3744   22.3092   58.5593 H   0  0  0  0  0  0  0  0  0  0  0  0
   22.6509   19.7873   59.3557 H   0  0  0  0  0  0  0  0  0  0  0  0
   18.1934   20.7198   57.2052 H   0  0  0  0  0  0  0  0  0  0  0  0
  1 13  1  0  0  0  0
  2 14  2  0  0  0  0
  3 16  1  0  0  0  0
  3 17  1  0  0  0  0
  4  7  1  0  0  0  0
  4 18  1  0  0  0  0
  5 14  1  0  0  0  0
  5 15  1  0  0  0  0
  6 15  2  0  0  0  0
  6 19  1  0  0  0  0
  7  8  1  0  0  0  0
  8 11  1  0  0  0  0
  9 10  1  0  0  0  0
  9 13  2  0  0  0  0
 10 16  2  0  0  0  0
 11 18  1  0  0  0  0
 12 13  1  0  0  0  0
 12 20  2  0  0  0  0
 14 17  1  0  0  0  0
 15 18  1  0  0  0  0
 16 20  1  0  0  0  0
 17 19  2  0  0  0  0
 19 20  1  0  0  0  0
  4 21  1  0  0  0  0
  5 22  1  0  0  0  0
  7 23  1  0  0  0  0
  7 24  1  0  0  0  0
  8 25  1  0  0  0  0
  8 26  1  0  0  0  0
  9 27  1  0  0  0  0
 10 28  1  0  0  0  0
 11 29  1  0  0  0  0
 11 30  1  0  0  0  0
 12 31  1  0  0  0  0
 18 32  1  0  0  0  0
M  END
> <pdb_id>
4F9C

> <uniprot_id>
O00311

> <usmiles>
Clc1cc2c(OC=3C(=O)NC(=NC23)[C@H]4NCCC4)cc1

$$$$
0SX_A_601
          07202415053D 1   1.00000     0.00000     0
            
 30 33  0  0  0  0            999 V2000
   25.4069   19.3434   60.0599 Cl  0  0  0  0  0  0  0  0  0  0  0  0
   17.6559   15.7369   59.6209 O   0  0  0  0  0  0  0  0  0  0  0  0
   20.5269   16.1874   60.1110 O   0  0  0  0  0  0  0  0  0  0  0  0
   16.2607   19.6337   57.4174 N   0  0  0  0  0  0  0  0  0  0  0  0
   17.6120   17.9228   58.7972 N   0  0  0  0  0  0  0  0  0  0  0  0
   19.5296   19.2591   58.7461 N   0  0  0  0  0  0  0  0  0  0  0  0
   15.1330   20.4665   58.0919 C   0  0  0  0  0  0  0  0  0  0  0  0
   15.8328   20.9548   59.3877 C   0  0  0  0  0  0  0  0  0  0  0  0
   24.0711   17.0674   60.5754 C   0  0  0  0  0  0  0  0  0  0  0  0
   22.9363   16.2425   60.6460 C   0  0  0  0  0  0  0  0  0  0  0  0
   17.0339   21.2998   58.9774 C   0  0  0  0  0  0  0  0  0  0  0  0
   22.7752   18.9089   59.6196 C   0  0  0  0  0  0  0  0  0  0  0  0
   23.9569   18.3406   60.0998 C   0  0  0  0  0  0  0  0  0  0  0  0
   18.2701   16.8910   59.3387 C   0  0  0  0  0  0  0  0  0  0  0  0
   18.2309   19.0510   58.5056 C   0  0  0  0  0  0  0  0  0  0  0  0
   21.7270   16.7814   60.1675 C   0  0  0  0  0  0  0  0  0  0  0  0
   19.6372   17.0394   59.5967 C   0  0  0  0  0  0  0  0  0  0  0  0
   17.3903   20.1613   57.8763 C   0  0  1  0  0  0  0  0  0  0  0  0
   20.2292   18.2435   59.2870 C   0  0  0  0  0  0  0  0  0  0  0  0
   21.6483   18.0719   59.6861 C   0  0  0  0  0  0  0  0  0  0  0  0
   16.2122   19.7156   56.4220 H   0  0  0  0  0  0  0  0  0  0  0  0
   16.6334   17.8372   58.6101 H   0  0  0  0  0  0  0  0  0  0  0  0
   14.3359   19.8995   58.2999 H   0  0  0  0  0  0  0  0  0  0  0  0
   14.8540   21.2354   57.5166 H   0  0  0  0  0  0  0  0  0  0  0  0
   15.4595   20.9972   60.3144 H   0  0  0  0  0  0  0  0  0  0  0  0
   24.9610   16.7218   60.8733 H   0  0  0  0  0  0  0  0  0  0  0  0
   22.9853   15.3158   61.0186 H   0  0  0  0  0  0  0  0  0  0  0  0
   17.5922   22.0753   59.2722 H   0  0  0  0  0  0  0  0  0  0  0  0
   22.7341   19.8397   59.2564 H   0  0  0  0  0  0  0  0  0  0  0  0
   17.8967   20.5754   57.1200 H   0  0  0  0  0  0  0  0  0  0  0  0
  1 13  1  0  0  0  0
  2 14  2  0  0  0  0
  3 16  1  0  0  0  0
  3 17  1  0  0  0  0
  4  7  1  0  0  0  0
  4 18  1  0  0  0  0
  5 14  1  0  0  0  0
  5 15  1  0  0  0  0
  6 15  2  0  0  0  0
  6 19  1  0  0  0  0
  7  8  1  0  0  0  0
  8 11  2  0  0  0  0
  9 10  1  0  0  0  0
  9 13  2  0  0  0  0
 10 16  2  0  0  0  0
 11 18  1  0  0  0  0
 12 13  1  0  0  0  0
 12 20  2  0  0  0  0
 14 17  1  0  0  0  0
 15 18  1  0  0  0  0
 16 20  1  0  0  0  0
 17 19  2  0  0  0  0
 19 20  1  0  0  0  0
  4 21  1  0  0  0  0
  5 22  1  0  0  0  0
  7 23  1  0  0  0  0
  7 24  1  0  0  0  0
  8 25  1  0  0  0  0
  9 26  1  0  0  0  0
 10 27  1  0  0  0  0
 11 28  1  0  0  0  0
 12 29  1  0  0  0  0
 18 30  1  0  0  0  0
M  END
> <pdb_id>
6YA6

> <uniprot_id>
O00311

> <usmiles>
Clc1cc2c(OC=3C(=O)NC(=NC23)[C@H]4NCC=C4)cc1

$$$$
0SY_C_601
          07202415053D 1   1.00000     0.00000     0
            
 25 27  0  0  0  0            999 V2000
   17.5300   16.5098   59.2904 O   0  0  0  0  0  0  0  0  0  0  0  0
   25.3335   17.9592   60.4357 N   0  0  0  0  0  0  0  0  0  0  0  0
   16.8773   18.5099   58.5346 N   0  0  0  0  0  0  0  0  0  0  0  0
   20.8089   19.5490   59.0016 N   0  0  0  0  0  0  0  0  0  0  0  0
   24.4758   16.8465   60.5123 C   0  0  0  0  0  0  0  0  0  0  0  0
   24.8085   19.2336   60.0725 C   0  0  0  0  0  0  0  0  0  0  0  0
   17.1457   19.8930   58.1236 C   0  0  0  0  0  0  0  0  0  0  0  0
   18.5960   20.3019   58.2706 C   0  0  0  0  0  0  0  0  0  0  0  0
   23.1184   16.9899   60.2208 C   0  0  0  0  0  0  0  0  0  0  0  0
   23.4457   19.3454   59.7909 C   0  0  0  0  0  0  0  0  0  0  0  0
   20.2906   17.4723   59.5868 C   0  0  0  0  0  0  0  0  0  0  0  0
   17.8734   17.6586   59.0229 C   0  0  0  0  0  0  0  0  0  0  0  0
   19.5053   19.3303   58.7821 C   0  0  0  0  0  0  0  0  0  0  0  0
   21.2791   18.4120   59.5447 C   0  0  0  0  0  0  0  0  0  0  0  0
   22.5862   18.2393   59.8593 C   0  0  0  0  0  0  0  0  0  0  0  0
   19.1570   18.0671   59.1421 C   0  0  0  0  0  0  0  0  0  0  0  0
   26.3080   17.8563   60.6353 H   0  0  0  0  0  0  0  0  0  0  0  0
   21.3242   20.3827   58.8032 H   0  0  0  0  0  0  0  0  0  0  0  0
   24.8388   15.9527   60.7757 H   0  0  0  0  0  0  0  0  0  0  0  0
   25.4060   20.0337   60.0204 H   0  0  0  0  0  0  0  0  0  0  0  0
   16.4368   20.5081   57.7785 H   0  0  0  0  0  0  0  0  0  0  0  0
   18.9046   21.2190   58.0185 H   0  0  0  0  0  0  0  0  0  0  0  0
   22.5164   16.1928   60.2698 H   0  0  0  0  0  0  0  0  0  0  0  0
   23.0728   20.2370   59.5338 H   0  0  0  0  0  0  0  0  0  0  0  0
   20.3849   16.5236   59.8888 H   0  0  0  0  0  0  0  0  0  0  0  0
  1 12  2  0  0  0  0
  2  5  1  0  0  0  0
  2  6  1  0  0  0  0
  3  7  2  0  0  0  0
  3 12  1  0  0  0  0
  4 13  1  0  0  0  0
  4 14  1  0  0  0  0
  5  9  2  0  0  0  0
  6 10  2  0  0  0  0
  7  8  1  0  0  0  0
  8 13  2  0  0  0  0
  9 15  1  0  0  0  0
 10 15  1  0  0  0  0
 11 14  1  0  0  0  0
 11 16  2  0  0  0  0
 12 16  1  0  0  0  0
 13 16  1  0  0  0  0
 14 15  2  0  0  0  0
  2 17  1  0  0  0  0
  4 18  1  0  0  0  0
  5 19  1  0  0  0  0
  6 20  1  0  0  0  0
  7 21  1  0  0  0  0
  8 22  1  0  0  0  0
  9 23  1  0  0  0  0
 10 24  1  0  0  0  0
 11 25  1  0  0  0  0
M  END
> <pdb_id>
4F9B

> <uniprot_id>
O00311

> <usmiles>
O=C1N=CC=C2NC(=C3C=CNC=C3)C=C12

$$$$
0TM_A_301
          07192420423D 1   1.00000     0.00000     0
            
 47 49  0  0  0  0            999 V2000
   69.6094   31.5984   24.9599 Cl  0  0  0  0  0  0  0  0  0  0  0  0
   66.4935   35.7110   21.2676 S   0  0  0  0  0  0  0  0  0  0  0  0
   67.3753   38.1893   22.6531 O   0  0  0  0  0  0  0  0  0  0  0  0
   73.4412   34.6533   26.6617 O   0  0  0  0  0  0  0  0  0  0  0  0
   72.0383   36.8420   26.3649 O   0  0  0  0  0  0  0  0  0  0  0  0
   68.3775   32.5400   28.3414 N   0  0  0  0  0  0  0  0  0  0  0  0
   64.7799   33.2851   25.2711 N   0  0  0  0  0  0  0  0  0  0  0  0
   65.7209   34.4837   23.4157 N   0  0  0  0  0  0  0  0  0  0  0  0
   68.0421   34.9317   23.4163 N   0  0  0  0  0  0  0  0  0  0  0  0
   69.4748   38.4494   21.8061 N   0  0  0  0  0  0  0  0  0  0  0  0
   74.3550   33.5499   26.3231 C   0  0  0  0  0  0  0  0  0  0  0  0
   71.2258   38.0772   26.4482 C   0  0  0  0  0  0  0  0  0  0  0  0
   70.5065   38.0322   20.8317 C   0  0  0  0  0  0  0  0  0  0  0  0
   69.7712   39.5574   22.7191 C   0  0  0  0  0  0  0  0  0  0  0  0
   67.9963   36.6818   20.9037 C   0  0  0  0  0  0  0  0  0  0  0  0
   67.6461   32.7944   27.4815 C   0  0  0  0  0  0  0  0  0  0  0  0
   65.3992   32.8373   26.3724 C   0  0  0  0  0  0  0  0  0  0  0  0
   71.5514   33.2415   25.8633 C   0  0  0  0  0  0  0  0  0  0  0  0
   70.0984   35.6076   25.4802 C   0  0  0  0  0  0  0  0  0  0  0  0
   66.8476   34.9780   22.7837 C   0  0  0  0  0  0  0  0  0  0  0  0
   70.2546   33.1565   25.3096 C   0  0  0  0  0  0  0  0  0  0  0  0
   68.2596   37.8461   21.8727 C   0  0  0  0  0  0  0  0  0  0  0  0
   72.1378   34.4972   26.1623 C   0  0  0  0  0  0  0  0  0  0  0  0
   71.4233   35.6542   26.0422 C   0  0  0  0  0  0  0  0  0  0  0  0
   65.7848   33.8405   24.5548 C   0  0  0  0  0  0  0  0  0  0  0  0
   68.1858   34.3162   24.6265 C   0  0  0  0  0  0  0  0  0  0  0  0
   66.7163   33.1355   26.4003 C   0  0  0  0  0  0  0  0  0  0  0  0
   69.5052   34.3511   25.1778 C   0  0  0  0  0  0  0  0  0  0  0  0
   67.0265   33.7417   25.2357 C   0  0  0  0  0  0  0  0  0  0  0  0
   63.8099   33.2237   25.0358 H   0  0  0  0  0  0  0  0  0  0  0  0
   75.2578   33.7335   26.7119 H   0  0  0  0  0  0  0  0  0  0  0  0
   73.9981   32.6945   26.6984 H   0  0  0  0  0  0  0  0  0  0  0  0
   74.4297   33.4722   25.3289 H   0  0  0  0  0  0  0  0  0  0  0  0
   71.8149   38.8480   26.6905 H   0  0  0  0  0  0  0  0  0  0  0  0
   70.7944   38.2527   25.5632 H   0  0  0  0  0  0  0  0  0  0  0  0
   70.5193   37.9649   27.1469 H   0  0  0  0  0  0  0  0  0  0  0  0
   70.1593   37.2712   20.2838 H   0  0  0  0  0  0  0  0  0  0  0  0
   70.7286   38.8009   20.2318 H   0  0  0  0  0  0  0  0  0  0  0  0
   71.3293   37.7427   21.3209 H   0  0  0  0  0  0  0  0  0  0  0  0
   68.9829   39.7204   23.3124 H   0  0  0  0  0  0  0  0  0  0  0  0
   70.5668   39.3246   23.2784 H   0  0  0  0  0  0  0  0  0  0  0  0
   69.9662   40.3828   22.1893 H   0  0  0  0  0  0  0  0  0  0  0  0
   67.9082   37.0580   19.9813 H   0  0  0  0  0  0  0  0  0  0  0  0
   68.7820   36.0642   20.9381 H   0  0  0  0  0  0  0  0  0  0  0  0
   64.9333   32.3334   27.0998 H   0  0  0  0  0  0  0  0  0  0  0  0
   72.0638   32.4028   26.0474 H   0  0  0  0  0  0  0  0  0  0  0  0
   69.5978   36.4550   25.3034 H   0  0  0  0  0  0  0  0  0  0  0  0
  1 21  1  0  0  0  0
  2 15  1  0  0  0  0
  2 20  1  0  0  0  0
  3 22  2  0  0  0  0
  4 11  1  0  0  0  0
  4 23  1  0  0  0  0
  5 12  1  0  0  0  0
  5 24  1  0  0  0  0
  6 16  3  0  0  0  0
  7 17  1  0  0  0  0
  7 25  1  0  0  0  0
  8 20  1  0  0  0  0
  8 25  2  0  0  0  0
  9 20  2  0  0  0  0
  9 26  1  0  0  0  0
 10 13  1  0  0  0  0
 10 14  1  0  0  0  0
 10 22  1  0  0  0  0
 15 22  1  0  0  0  0
 16 27  1  0  0  0  0
 17 27  2  0  0  0  0
 18 21  2  0  0  0  0
 18 23  1  0  0  0  0
 19 24  1  0  0  0  0
 19 28  2  0  0  0  0
 21 28  1  0  0  0  0
 23 24  2  0  0  0  0
 25 29  1  0  0  0  0
 26 28  1  0  0  0  0
 26 29  2  0  0  0  0
 27 29  1  0  0  0  0
  7 30  1  0  0  0  0
 11 31  1  0  0  0  0
 11 32  1  0  0  0  0
 11 33  1  0  0  0  0
 12 34  1  0  0  0  0
 12 35  1  0  0  0  0
 12 36  1  0  0  0  0
 13 37  1  0  0  0  0
 13 38  1  0  0  0  0
 13 39  1  0  0  0  0
 14 40  1  0  0  0  0
 14 41  1  0  0  0  0
 14 42  1  0  0  0  0
 15 43  1  0  0  0  0
 15 44  1  0  0  0  0
 17 45  1  0  0  0  0
 18 46  1  0  0  0  0
 19 47  1  0  0  0  0
M  END
> <pdb_id>
4FCR

> <uniprot_id>
P07900

> <usmiles>
Clc1c(c2nc(SCC(=O)N(C)C)nc3NC=C(C#N)c32)cc(OC)c(OC)c1

$$$$
0TU_A_1489
          07212401303D 1   1.00000     0.00000     0
            
 18 19  0  0  0  0            999 V2000
   33.4909  -14.1004   29.9900 Cl  0  0  0  0  0  0  0  0  0  0  0  0
   39.8716  -15.8338   25.5742 O   0  0  0  0  0  0  0  0  0  0  0  0
   38.1163  -14.5572   26.3700 N   0  0  0  0  0  0  0  0  0  0  0  0
   35.1959  -13.1789   28.0966 C   0  0  0  0  0  0  0  0  0  0  0  0
   38.5611  -16.8169   27.2344 C   0  0  0  0  0  0  0  0  0  0  0  0
   36.2778  -13.2635   27.2407 C   0  0  0  0  0  0  0  0  0  0  0  0
   37.5067  -16.6815   28.0468 C   0  0  0  0  0  0  0  0  0  0  0  0
   35.6240  -15.3822   28.9294 C   0  0  0  0  0  0  0  0  0  0  0  0
   34.8666  -14.2290   28.9327 C   0  0  0  0  0  0  0  0  0  0  0  0
   38.9084  -15.6964   26.3198 C   0  0  0  0  0  0  0  0  0  0  0  0
   37.0168  -14.4299   27.2281 C   0  0  0  0  0  0  0  0  0  0  0  0
   36.7015  -15.4757   28.0686 C   0  0  0  0  0  0  0  0  0  0  0  0
   38.3411  -13.7927   25.7658 H   0  0  0  0  0  0  0  0  0  0  0  0
   34.6433  -12.3456   28.1112 H   0  0  0  0  0  0  0  0  0  0  0  0
   39.1055  -17.6557   27.2418 H   0  0  0  0  0  0  0  0  0  0  0  0
   36.5197  -12.4979   26.6446 H   0  0  0  0  0  0  0  0  0  0  0  0
   37.2664  -17.4355   28.6581 H   0  0  0  0  0  0  0  0  0  0  0  0
   35.3967  -16.1398   29.5413 H   0  0  0  0  0  0  0  0  0  0  0  0
  1  9  1  0  0  0  0
  2 10  2  0  0  0  0
  3 10  1  0  0  0  0
  3 11  1  0  0  0  0
  4  6  1  0  0  0  0
  4  9  2  0  0  0  0
  5  7  2  0  0  0  0
  5 10  1  0  0  0  0
  6 11  2  0  0  0  0
  7 12  1  0  0  0  0
  8  9  1  0  0  0  0
  8 12  2  0  0  0  0
 11 12  1  0  0  0  0
  3 13  1  0  0  0  0
  4 14  1  0  0  0  0
  5 15  1  0  0  0  0
  6 16  1  0  0  0  0
  7 17  1  0  0  0  0
  8 18  1  0  0  0  0
M  END
> <pdb_id>
4CR5

> <uniprot_id>
P03951

> <usmiles>
Clc1cc2c(NC(=O)C=C2)cc1

$$$$
0V5_B_602
          07192416223D 1   1.00000     0.00000     0
            
 17 16  0  0  0  0            999 V2000
   73.9087  110.6058  -92.7615 P   0  0  0  0  0  0  0  0  0  0  0  0
   74.9492  109.5398  -93.0346 O   0  0  0  0  0  0  0  0  0  0  0  0
   73.6612  110.6884  -91.2754 O   0  0  0  0  0  0  0  0  0  0  0  0
   72.6853  110.5931  -93.6505 O   0  0  0  0  0  0  0  0  0  0  0  0
   78.2727  112.3405  -92.8160 O   0  0  0  0  0  0  0  0  0  0  0  0
   77.1223  111.2250  -94.2447 O   0  0  0  0  0  0  0  0  0  0  0  0
   74.5569  112.0433  -93.1943 O   0  0  0  0  0  0  0  0  0  0  0  0
   75.7706  113.8904  -92.0735 C   0  0  0  0  0  0  0  0  0  0  0  0
   77.1615  111.9933  -93.2263 C   0  0  0  0  0  0  0  0  0  0  0  0
   75.8560  112.3845  -92.4879 C   0  0  2  0  0  0  0  0  0  0  0  0
   75.1164  109.4817  -94.0188 H   0  0  0  0  0  0  0  0  0  0  0  0
   72.9745  111.3914  -91.0904 H   0  0  0  0  0  0  0  0  0  0  0  0
   78.3464  112.9421  -92.0205 H   0  0  0  0  0  0  0  0  0  0  0  0
   76.6123  114.1548  -91.6027 H   0  0  0  0  0  0  0  0  0  0  0  0
   75.6543  114.4549  -92.8907 H   0  0  0  0  0  0  0  0  0  0  0  0
   74.9906  114.0242  -91.4622 H   0  0  0  0  0  0  0  0  0  0  0  0
   75.8530  111.8621  -91.6352 H   0  0  0  0  0  0  0  0  0  0  0  0
  1  2  1  0  0  0  0
  1  3  1  0  0  0  0
  1  4  2  0  0  0  0
  1  7  1  0  0  0  0
  5  9  1  0  0  0  0
  6  9  2  0  0  0  0
  7 10  1  0  0  0  0
  8 10  1  0  0  0  0
  9 10  1  0  0  0  0
  2 11  1  0  0  0  0
  3 12  1  0  0  0  0
  5 13  1  0  0  0  0
  8 14  1  0  0  0  0
  8 15  1  0  0  0  0
  8 16  1  0  0  0  0
 10 17  1  0  0  0  0
M  END
> <pdb_id>
3UJS

> <uniprot_id>
P09104

> <usmiles>
P(=O)(O[C@@H](C(=O)O)C)(O)O

$$$$
0V5_D_1351
          07202409223D 1   1.00000     0.00000     0
            
 17 16  0  0  0  0            999 V2000
   31.6918  -33.8520  -39.6647 P   0  0  0  0  0  0  0  0  0  0  0  0
   31.4854  -35.4319  -39.7206 O   0  0  0  0  0  0  0  0  0  0  0  0
   31.5366  -33.5671  -38.1044 O   0  0  0  0  0  0  0  0  0  0  0  0
   30.7312  -33.1021  -40.5547 O   0  0  0  0  0  0  0  0  0  0  0  0
   35.6620  -33.0128  -41.0396 O   0  0  0  0  0  0  0  0  0  0  0  0
   36.2128  -31.6309  -39.3934 O   0  0  0  0  0  0  0  0  0  0  0  0
   33.2539  -33.5556  -40.0377 O   0  0  0  0  0  0  0  0  0  0  0  0
   33.2276  -31.2107  -39.5106 C   0  0  0  0  0  0  0  0  0  0  0  0
   35.4122  -32.3875  -39.9792 C   0  0  0  0  0  0  0  0  0  0  0  0
   33.9861  -32.5267  -39.3586 C   0  0  2  0  0  0  0  0  0  0  0  0
   31.5607  -35.7446  -40.6675 H   0  0  0  0  0  0  0  0  0  0  0  0
   31.6474  -32.5884  -37.9317 H   0  0  0  0  0  0  0  0  0  0  0  0
   34.9650  -33.6017  -41.4488 H   0  0  0  0  0  0  0  0  0  0  0  0
   33.7267  -30.4822  -39.0414 H   0  0  0  0  0  0  0  0  0  0  0  0
   33.1427  -30.9850  -40.4811 H   0  0  0  0  0  0  0  0  0  0  0  0
   32.3165  -31.3028  -39.1088 H   0  0  0  0  0  0  0  0  0  0  0  0
   34.0647  -32.7571  -38.3887 H   0  0  0  0  0  0  0  0  0  0  0  0
  1  2  1  0  0  0  0
  1  3  1  0  0  0  0
  1  4  2  0  0  0  0
  1  7  1  0  0  0  0
  5  9  1  0  0  0  0
  6  9  2  0  0  0  0
  7 10  1  0  0  0  0
  8 10  1  0  0  0  0
  9 10  1  0  0  0  0
  2 11  1  0  0  0  0
  3 12  1  0  0  0  0
  5 13  1  0  0  0  0
  8 14  1  0  0  0  0
  8 15  1  0  0  0  0
  8 16  1  0  0  0  0
 10 17  1  0  0  0  0
M  END
> <pdb_id>
4UMB

> <uniprot_id>
Q9K169

> <usmiles>
P(=O)(O[C@@H](C(=O)O)C)(O)O

$$$$
0WC_B_702
          07202415253D 1   1.00000     0.00000     0
            
 43 46  0  0  0  0            999 V2000
   29.7180   51.6370   10.2130 Cl  0  0  0  0  0  0  0  0  0  0  0  0
   25.3310   60.0150    3.6310 S   0  0  0  0  0  0  0  0  0  0  0  0
   26.8170   57.9840    1.0230 O   0  0  0  0  0  0  0  0  0  0  0  0
   27.9420   57.0710    9.1410 N   0  0  0  0  0  0  0  0  0  0  0  0
   24.8070   57.6350    3.2770 N   0  0  0  0  0  0  0  0  0  0  0  0
   28.4230   55.3340   10.6200 N   0  0  0  0  0  0  0  0  0  0  0  0
   28.7230   55.0340    8.3390 N   0  0  0  0  0  0  0  0  0  0  0  0
   29.4860   53.0600    7.3600 N   0  0  0  0  0  0  0  0  0  0  0  0
   28.1270   59.1860    2.6620 C   0  0  0  0  0  0  0  0  0  0  0  0
   23.7650   59.4040    4.1670 C   0  0  0  0  0  0  0  0  0  0  0  0
   23.7250   58.1080    3.8660 C   0  0  0  0  0  0  0  0  0  0  0  0
   30.2690   51.8150    7.3730 C   0  0  0  0  0  0  0  0  0  0  0  0
   28.8360   54.0950   10.8690 C   0  0  0  0  0  0  0  0  0  0  0  0
   30.2320   51.2770    5.9360 C   0  0  0  0  0  0  0  0  0  0  0  0
   29.0600   53.7150    3.1950 C   0  0  0  0  0  0  0  0  0  0  0  0
   29.5850   52.5650    3.7470 C   0  0  0  0  0  0  0  0  0  0  0  0
   28.0880   55.9130    3.4740 C   0  0  0  0  0  0  0  0  0  0  0  0
   28.7370   54.6100    5.4490 C   0  0  0  0  0  0  0  0  0  0  0  0
   27.6340   56.8730    2.9750 C   0  0  0  0  0  0  0  0  0  0  0  0
   28.3780   55.7860    9.3760 C   0  0  0  0  0  0  0  0  0  0  0  0
   29.2150   53.2670    9.8190 C   0  0  0  0  0  0  0  0  0  0  0  0
   25.7710   58.4580    3.0790 C   0  0  0  0  0  0  0  0  0  0  0  0
   29.1480   53.7850    8.5010 C   0  0  0  0  0  0  0  0  0  0  0  0
   29.2710   53.4420    6.0100 C   0  0  0  0  0  0  0  0  0  0  0  0
   28.6310   54.7340    4.0510 C   0  0  0  0  0  0  0  0  0  0  0  0
   29.6870   52.4330    5.1270 C   0  0  0  0  0  0  0  0  0  0  0  0
   27.0770   58.1080    2.4200 C   0  0  2  0  0  0  0  0  0  0  0  0
   26.1276   57.2752    0.8739 H   0  0  0  0  0  0  0  0  0  0  0  0
   27.9039   57.4229    8.2057 H   0  0  0  0  0  0  0  0  0  0  0  0
   27.6635   57.6522    9.9056 H   0  0  0  0  0  0  0  0  0  0  0  0
   28.3027   59.2659    3.6432 H   0  0  0  0  0  0  0  0  0  0  0  0
   28.9736   58.9385    2.1908 H   0  0  0  0  0  0  0  0  0  0  0  0
   27.7936   60.0609    2.3108 H   0  0  0  0  0  0  0  0  0  0  0  0
   23.0428   59.9324    4.6133 H   0  0  0  0  0  0  0  0  0  0  0  0
   22.9322   57.5342    4.0714 H   0  0  0  0  0  0  0  0  0  0  0  0
   29.8601   51.1539    8.0022 H   0  0  0  0  0  0  0  0  0  0  0  0
   31.2117   52.0003    7.6505 H   0  0  0  0  0  0  0  0  0  0  0  0
   28.8739   53.7594   11.8102 H   0  0  0  0  0  0  0  0  0  0  0  0
   29.6298   50.4814    5.8696 H   0  0  0  0  0  0  0  0  0  0  0  0
   31.1494   51.0274    5.6261 H   0  0  0  0  0  0  0  0  0  0  0  0
   28.9877   53.8178    2.2029 H   0  0  0  0  0  0  0  0  0  0  0  0
   29.8936   51.8230    3.1518 H   0  0  0  0  0  0  0  0  0  0  0  0
   28.4314   55.3551    6.0418 H   0  0  0  0  0  0  0  0  0  0  0  0
  1 21  1  0  0  0  0
  2 10  1  0  0  0  0
  2 22  1  0  0  0  0
  3 27  1  0  0  0  0
  4 20  1  0  0  0  0
  5 11  1  0  0  0  0
  5 22  2  0  0  0  0
  6 13  1  0  0  0  0
  6 20  2  0  0  0  0
  7 20  1  0  0  0  0
  7 23  2  0  0  0  0
  8 12  1  0  0  0  0
  8 23  1  0  0  0  0
  8 24  1  0  0  0  0
  9 27  1  0  0  0  0
 10 11  2  0  0  0  0
 12 14  1  0  0  0  0
 13 21  2  0  0  0  0
 14 26  1  0  0  0  0
 15 16  1  0  0  0  0
 15 25  2  0  0  0  0
 16 26  2  0  0  0  0
 17 19  3  0  0  0  0
 17 25  1  0  0  0  0
 18 24  2  0  0  0  0
 18 25  1  0  0  0  0
 19 27  1  0  0  0  0
 21 23  1  0  0  0  0
 22 27  1  0  0  0  0
 24 26  1  0  0  0  0
  3 28  1  0  0  0  0
  4 29  1  0  0  0  0
  4 30  1  0  0  0  0
  9 31  1  0  0  0  0
  9 32  1  0  0  0  0
  9 33  1  0  0  0  0
 10 34  1  0  0  0  0
 11 35  1  0  0  0  0
 12 36  1  0  0  0  0
 12 37  1  0  0  0  0
 13 38  1  0  0  0  0
 14 39  1  0  0  0  0
 14 40  1  0  0  0  0
 15 41  1  0  0  0  0
 16 42  1  0  0  0  0
 18 43  1  0  0  0  0
M  END
> <pdb_id>
4G3E

> <uniprot_id>
Q9WUL6

> <usmiles>
Clc1c(nc(nc1)N)N2c3c(ccc(C#C[C@@](O)(C=4SC=CN4)C)c3)CC2

$$$$
0WE_A_302
          07202415153D 1   1.00000     0.00000     0
            
 51 54  0  0  0  0            999 V2000
  109.2490   68.6820   44.5990 O   0  0  0  0  0  0  0  0  0  0  0  0
  112.2380   64.8150   35.4650 O   0  0  0  0  0  0  0  0  0  0  0  0
  110.4240   68.8590   35.4850 O   0  0  0  0  0  0  0  0  0  0  0  0
  111.9010   66.4710   41.5940 N   0  0  0  0  0  0  0  0  0  0  0  0
  110.5910   67.7480   43.0920 N   0  0  0  0  0  0  0  0  0  0  0  0
  110.6520   65.9860   34.3900 N   0  0  0  0  0  0  0  0  0  0  0  0
  111.2400   65.6720   33.0850 C   0  0  0  0  0  0  0  0  0  0  0  0
  109.9830   68.9260   31.7330 C   0  0  0  0  0  0  0  0  0  0  0  0
  112.1370   65.9860   40.3640 C   0  0  0  0  0  0  0  0  0  0  0  0
  109.4120   66.8140   34.3380 C   0  0  0  0  0  0  0  0  0  0  0  0
  111.9510   72.2480   35.3970 C   0  0  0  0  0  0  0  0  0  0  0  0
  111.8840   72.4560   34.0060 C   0  0  0  0  0  0  0  0  0  0  0  0
  108.2460   68.2660   42.4560 C   0  0  0  0  0  0  0  0  0  0  0  0
  110.7310   66.0540   36.8440 C   0  0  0  0  0  0  0  0  0  0  0  0
  111.4940   71.0700   36.0000 C   0  0  0  0  0  0  0  0  0  0  0  0
  111.6690   65.6640   37.9540 C   0  0  0  0  0  0  0  0  0  0  0  0
  108.6900   68.4930   41.0070 C   0  0  0  0  0  0  0  0  0  0  0  0
  111.3430   71.5260   33.1110 C   0  0  0  0  0  0  0  0  0  0  0  0
  110.1770   67.0850   39.4630 C   0  0  0  0  0  0  0  0  0  0  0  0
  109.4060   68.2560   43.4570 C   0  0  0  0  0  0  0  0  0  0  0  0
  111.2650   65.5680   35.4960 C   0  0  0  0  0  0  0  0  0  0  0  0
  110.8210   67.2630   41.8390 C   0  0  0  0  0  0  0  0  0  0  0  0
  109.9780   68.2020   34.3610 C   0  0  0  0  0  0  0  0  0  0  0  0
  110.9520   70.1220   35.1320 C   0  0  0  0  0  0  0  0  0  0  0  0
  111.3040   66.2730   39.2900 C   0  0  0  0  0  0  0  0  0  0  0  0
  109.8960   67.5950   40.7290 C   0  0  0  0  0  0  0  0  0  0  0  0
  110.2450   69.0900   33.2030 C   0  0  0  0  0  0  0  0  0  0  0  0
  110.8850   70.3380   33.6850 C   0  0  0  0  0  0  0  0  0  0  0  0
  111.3327   67.7238   43.7623 H   0  0  0  0  0  0  0  0  0  0  0  0
  112.0620   65.1175   33.2145 H   0  0  0  0  0  0  0  0  0  0  0  0
  110.5779   65.1631   32.5348 H   0  0  0  0  0  0  0  0  0  0  0  0
  111.4813   66.5211   32.6151 H   0  0  0  0  0  0  0  0  0  0  0  0
  110.2999   69.7394   31.2452 H   0  0  0  0  0  0  0  0  0  0  0  0
  110.4728   68.1225   31.3947 H   0  0  0  0  0  0  0  0  0  0  0  0
  109.0019   68.8070   31.5805 H   0  0  0  0  0  0  0  0  0  0  0  0
  112.9351   65.4016   40.2171 H   0  0  0  0  0  0  0  0  0  0  0  0
  108.8265   66.6451   35.1309 H   0  0  0  0  0  0  0  0  0  0  0  0
  108.8945   66.6444   33.4993 H   0  0  0  0  0  0  0  0  0  0  0  0
  112.3385   72.9667   35.9743 H   0  0  0  0  0  0  0  0  0  0  0  0
  112.2421   73.3141   33.6380 H   0  0  0  0  0  0  0  0  0  0  0  0
  107.7753   67.3853   42.5084 H   0  0  0  0  0  0  0  0  0  0  0  0
  107.6139   68.9975   42.7115 H   0  0  0  0  0  0  0  0  0  0  0  0
  110.6420   67.0498   36.8230 H   0  0  0  0  0  0  0  0  0  0  0  0
  109.8349   65.6426   37.0106 H   0  0  0  0  0  0  0  0  0  0  0  0
  111.5522   70.9184   36.9867 H   0  0  0  0  0  0  0  0  0  0  0  0
  112.5912   65.9641   37.7100 H   0  0  0  0  0  0  0  0  0  0  0  0
  111.6557   64.6683   38.0452 H   0  0  0  0  0  0  0  0  0  0  0  0
  108.9448   69.4513   40.8775 H   0  0  0  0  0  0  0  0  0  0  0  0
  107.9435   68.2594   40.3839 H   0  0  0  0  0  0  0  0  0  0  0  0
  111.2881   71.7002   32.1278 H   0  0  0  0  0  0  0  0  0  0  0  0
  109.5813   67.2964   38.6881 H   0  0  0  0  0  0  0  0  0  0  0  0
  1 20  2  0  0  0  0
  2 21  2  0  0  0  0
  3 23  1  0  0  0  0
  3 24  1  0  0  0  0
  4  9  1  0  0  0  0
  4 22  2  0  0  0  0
  5 20  1  0  0  0  0
  5 22  1  0  0  0  0
  6  7  1  0  0  0  0
  6 10  1  0  0  0  0
  6 21  1  0  0  0  0
  8 27  1  0  0  0  0
  9 25  2  0  0  0  0
 10 23  1  0  0  0  0
 11 12  2  0  0  0  0
 11 15  1  0  0  0  0
 12 18  1  0  0  0  0
 13 17  1  0  0  0  0
 13 20  1  0  0  0  0
 14 16  1  0  0  0  0
 14 21  1  0  0  0  0
 15 24  2  0  0  0  0
 16 25  1  0  0  0  0
 17 26  1  0  0  0  0
 18 28  2  0  0  0  0
 19 25  1  0  0  0  0
 19 26  2  0  0  0  0
 22 26  1  0  0  0  0
 23 27  2  0  0  0  0
 24 28  1  0  0  0  0
 27 28  1  0  0  0  0
  5 29  1  0  0  0  0
  7 30  1  0  0  0  0
  7 31  1  0  0  0  0
  7 32  1  0  0  0  0
  8 33  1  0  0  0  0
  8 34  1  0  0  0  0
  8 35  1  0  0  0  0
  9 36  1  0  0  0  0
 10 37  1  0  0  0  0
 10 38  1  0  0  0  0
 11 39  1  0  0  0  0
 12 40  1  0  0  0  0
 13 41  1  0  0  0  0
 13 42  1  0  0  0  0
 14 43  1  0  0  0  0
 14 44  1  0  0  0  0
 15 45  1  0  0  0  0
 16 46  1  0  0  0  0
 16 47  1  0  0  0  0
 17 48  1  0  0  0  0
 17 49  1  0  0  0  0
 18 50  1  0  0  0  0
 19 51  1  0  0  0  0
M  END
> <pdb_id>
4FS3

> <uniprot_id>
Q6GI75

> <usmiles>
O=C(N(CC=1Oc2c(cccc2)C1C)C)CCc3cnc4NC(=O)CCc4c3

$$$$
0WF_A_903
          07202417403D 1   1.00000     0.00000     0
            
 53 57  0  0  0  0            999 V2000
   95.7905   20.8522    6.5427 O   0  0  0  0  0  0  0  0  0  0  0  0
   95.7141   16.7945   13.2151 O   0  0  0  0  0  0  0  0  0  0  0  0
   95.0657   24.2764    9.2946 N   0  0  0  0  0  0  0  0  0  0  0  0
   96.4733   21.2074   10.6283 N   0  0  0  0  0  0  0  0  0  0  0  0
   96.5287   20.0073    8.5276 N   0  0  0  0  0  0  0  0  0  0  0  0
   95.5591   23.5118   10.3313 N   0  0  0  0  0  0  0  0  0  0  0  0
   97.4977   19.0999   12.0310 N   0  0  0  0  0  0  0  0  0  0  0  0
   98.9363   18.9579   10.0787 C   0  0  0  0  0  0  0  0  0  0  0  0
   95.1083   23.5043    8.1799 C   0  0  0  0  0  0  0  0  0  0  0  0
   91.9134   16.2842   14.7370 C   0  0  0  0  0  0  0  0  0  0  0  0
   92.5846   15.2579   14.0771 C   0  0  0  0  0  0  0  0  0  0  0  0
   92.5241   17.5169   14.9076 C   0  0  0  0  0  0  0  0  0  0  0  0
   93.8654   15.4574   13.5890 C   0  0  0  0  0  0  0  0  0  0  0  0
   93.8090   17.7478   14.4216 C   0  0  0  0  0  0  0  0  0  0  0  0
   96.1324   19.1697   12.6752 C   0  0  0  0  0  0  0  0  0  0  0  0
   97.8197   17.8104   12.7574 C   0  0  0  0  0  0  0  0  0  0  0  0
   96.1648   26.0144   13.0023 C   0  0  0  0  0  0  0  0  0  0  0  0
   94.6931   25.6486   13.2032 C   0  0  0  0  0  0  0  0  0  0  0  0
   96.5632   25.3587   11.6835 C   0  0  0  0  0  0  0  0  0  0  0  0
   94.4374   24.3695   12.4004 C   0  0  0  0  0  0  0  0  0  0  0  0
   95.9514   21.0561    7.7382 C   0  0  0  0  0  0  0  0  0  0  0  0
   96.7746   20.1418    9.8949 C   0  0  0  0  0  0  0  0  0  0  0  0
   94.4666   16.7105   13.7681 C   0  0  0  0  0  0  0  0  0  0  0  0
   95.9182   22.2523    9.8822 C   0  0  0  0  0  0  0  0  0  0  0  0
   95.6461   22.2263    8.4978 C   0  0  0  0  0  0  0  0  0  0  0  0
   96.4787   17.9212   13.5382 C   0  0  0  0  0  0  0  0  0  0  0  0
   95.7659   24.0433   11.6915 C   0  0  0  0  0  0  0  0  0  0  0  0
   97.4777   18.9546   10.5519 C   0  0  2  0  0  0  0  0  0  0  0  0
   96.7803   19.1398    8.0544 H   0  0  0  0  0  0  0  0  0  0  0  0
   99.5122   18.1346   10.5271 H   0  0  0  0  0  0  0  0  0  0  0  0
   99.4588   19.8875   10.3518 H   0  0  0  0  0  0  0  0  0  0  0  0
   99.0287   18.8451    8.9897 H   0  0  0  0  0  0  0  0  0  0  0  0
   94.7688   23.8600    7.2088 H   0  0  0  0  0  0  0  0  0  0  0  0
   90.9026   16.1146   15.1177 H   0  0  0  0  0  0  0  0  0  0  0  0
   92.1003   14.2850   13.9442 H   0  0  0  0  0  0  0  0  0  0  0  0
   91.9932   18.3219   15.4266 H   0  0  0  0  0  0  0  0  0  0  0  0
   94.3987   14.6569   13.0688 H   0  0  0  0  0  0  0  0  0  0  0  0
   94.2603   18.7316   14.5601 H   0  0  0  0  0  0  0  0  0  0  0  0
   96.0070   20.1205   13.2271 H   0  0  0  0  0  0  0  0  0  0  0  0
   95.2444   19.0571   12.0259 H   0  0  0  0  0  0  0  0  0  0  0  0
   98.7340   17.9190   13.3694 H   0  0  0  0  0  0  0  0  0  0  0  0
   97.9534   16.8863   12.1611 H   0  0  0  0  0  0  0  0  0  0  0  0
   96.7912   25.6430   13.8393 H   0  0  0  0  0  0  0  0  0  0  0  0
   96.3323   27.1084   12.9945 H   0  0  0  0  0  0  0  0  0  0  0  0
   94.4414   25.5257   14.2749 H   0  0  0  0  0  0  0  0  0  0  0  0
   94.0316   26.4688   12.8587 H   0  0  0  0  0  0  0  0  0  0  0  0
   97.6531   25.1895   11.5994 H   0  0  0  0  0  0  0  0  0  0  0  0
   96.3087   26.0101   10.8232 H   0  0  0  0  0  0  0  0  0  0  0  0
   94.1145   23.5292   13.0458 H   0  0  0  0  0  0  0  0  0  0  0  0
   93.5984   24.5031   11.6903 H   0  0  0  0  0  0  0  0  0  0  0  0
   96.5684   18.0830   14.6344 H   0  0  0  0  0  0  0  0  0  0  0  0
   96.3290   23.2566   12.2657 H   0  0  0  0  0  0  0  0  0  0  0  0
   96.9614   18.0090   10.2103 H   0  0  0  0  0  0  0  0  0  0  0  0
  1 21  2  0  0  0  0
  2 23  1  0  0  0  0
  2 26  1  0  0  0  0
  3  6  1  0  0  0  0
  3  9  2  0  0  0  0
  4 22  2  0  0  0  0
  4 24  1  0  0  0  0
  5 21  1  0  0  0  0
  5 22  1  0  0  0  0
  5 29  1  0  0  0  0
  6 24  1  0  0  0  0
  6 27  1  0  0  0  0
  7 15  1  0  0  0  0
  7 16  1  0  0  0  0
  7 28  1  0  0  0  0
  8 28  1  0  0  0  0
  8 30  1  0  0  0  0
  8 31  1  0  0  0  0
  8 32  1  0  0  0  0
  9 25  1  0  0  0  0
  9 33  1  0  0  0  0
 10 11  2  0  0  0  0
 10 12  1  0  0  0  0
 10 34  1  0  0  0  0
 11 13  1  0  0  0  0
 11 35  1  0  0  0  0
 12 14  2  0  0  0  0
 12 36  1  0  0  0  0
 13 23  2  0  0  0  0
 13 37  1  0  0  0  0
 14 23  1  0  0  0  0
 14 38  1  0  0  0  0
 15 26  1  0  0  0  0
 15 39  1  0  0  0  0
 15 40  1  0  0  0  0
 16 26  1  0  0  0  0
 16 41  1  0  0  0  0
 16 42  1  0  0  0  0
 17 18  1  0  0  0  0
 17 19  1  0  0  0  0
 17 43  1  0  0  0  0
 17 44  1  0  0  0  0
 18 20  1  0  0  0  0
 18 45  1  0  0  0  0
 18 46  1  0  0  0  0
 19 27  1  0  0  0  0
 19 47  1  0  0  0  0
 19 48  1  0  0  0  0
 20 27  1  0  0  0  0
 20 49  1  0  0  0  0
 20 50  1  0  0  0  0
 21 25  1  0  0  0  0
 22 28  1  0  0  0  0
 24 25  2  0  0  0  0
 26 51  1  0  0  0  0
 27 52  1  0  0  0  0
 28 53  1  0  0  0  0
M  END
> <pdb_id>
4G2J

> <uniprot_id>
O76083

> <usmiles>
O=C1NC(=NC=2N(N=CC12)C3CCCC3)[C@H](N4CC(Oc5ccccc5)C4)C

$$$$
0WT_A_301
          07202407153D 1   1.00000     0.00000     0
            
 44 48  0  0  0  0            999 V2000
   10.3580   -2.1114   11.4122 Cl  0  0  0  0  0  0  0  0  0  0  0  0
   11.6576   -7.1404   16.1931 O   0  0  0  0  0  0  0  0  0  0  0  0
    6.5157   -1.5975   16.7166 N   0  0  0  0  0  0  0  0  0  0  0  0
    9.4319   -9.5096   17.7412 N   0  0  0  0  0  0  0  0  0  0  0  0
    8.8693   -7.3627   18.5020 N   0  0  0  0  0  0  0  0  0  0  0  0
   12.5380   -5.7895   14.5344 N   0  0  0  0  0  0  0  0  0  0  0  0
   10.2410   -5.6029   15.1155 N   0  0  0  0  0  0  0  0  0  0  0  0
   13.3821   -4.3303   12.7468 N   0  0  0  0  0  0  0  0  0  0  0  0
    8.6595   -4.1332   14.2199 N   0  0  0  0  0  0  0  0  0  0  0  0
   14.6606   -3.4334   10.1610 C   0  0  0  0  0  0  0  0  0  0  0  0
    8.6743   -8.6890   18.4853 C   0  0  0  0  0  0  0  0  0  0  0  0
   10.4251   -9.0200   16.9763 C   0  0  0  0  0  0  0  0  0  0  0  0
    9.8442   -6.8162   17.7537 C   0  0  0  0  0  0  0  0  0  0  0  0
    7.6100   -4.7764   15.0012 C   0  0  0  0  0  0  0  0  0  0  0  0
    8.2961   -2.8595   13.6144 C   0  0  0  0  0  0  0  0  0  0  0  0
   13.6187   -2.5939   10.8639 C   0  0  0  0  0  0  0  0  0  0  0  0
   11.4685   -6.1581   15.2669 C   0  0  0  0  0  0  0  0  0  0  0  0
   11.4762   -3.2588   12.2935 C   0  0  0  0  0  0  0  0  0  0  0  0
   10.6403   -7.6478   16.9611 C   0  0  0  0  0  0  0  0  0  0  0  0
   12.4465   -4.8348   13.5831 C   0  0  0  0  0  0  0  0  0  0  0  0
    9.9701   -4.6371   14.2209 C   0  0  0  0  0  0  0  0  0  0  0  0
    7.4523   -2.4408   15.9866 C   0  0  1  0  0  0  0  0  0  0  0  0
   12.8898   -3.3790   11.9252 C   0  0  0  0  0  0  0  0  0  0  0  0
    6.6977   -3.5985   15.3433 C   0  0  1  0  0  0  0  0  0  0  0  0
    7.1303   -2.4103   14.4947 C   0  0  2  0  0  0  0  0  0  0  0  0
   11.1231   -4.1884   13.3742 C   0  0  0  0  0  0  0  0  0  0  0  0
    7.0103   -0.8378   17.1387 H   0  0  0  0  0  0  0  0  0  0  0  0
    5.8288   -1.2380   16.0849 H   0  0  0  0  0  0  0  0  0  0  0  0
   14.3361   -4.6298   12.7380 H   0  0  0  0  0  0  0  0  0  0  0  0
   15.1213   -2.8804    9.4667 H   0  0  0  0  0  0  0  0  0  0  0  0
   15.3317   -3.7586   10.8273 H   0  0  0  0  0  0  0  0  0  0  0  0
   14.2183   -4.2165    9.7239 H   0  0  0  0  0  0  0  0  0  0  0  0
    7.9422   -9.0785   19.0441 H   0  0  0  0  0  0  0  0  0  0  0  0
   10.9968   -9.6319   16.4297 H   0  0  0  0  0  0  0  0  0  0  0  0
    9.9973   -5.8280   17.7642 H   0  0  0  0  0  0  0  0  0  0  0  0
    7.9808   -5.2002   15.8276 H   0  0  0  0  0  0  0  0  0  0  0  0
    7.1263   -5.4653   14.4616 H   0  0  0  0  0  0  0  0  0  0  0  0
    8.0090   -2.9779   12.6639 H   0  0  0  0  0  0  0  0  0  0  0  0
    9.0540   -2.2085   13.6551 H   0  0  0  0  0  0  0  0  0  0  0  0
   12.9560   -2.2688   10.1893 H   0  0  0  0  0  0  0  0  0  0  0  0
   14.0694   -1.8109   11.2927 H   0  0  0  0  0  0  0  0  0  0  0  0
    8.3930   -2.5566   16.3054 H   0  0  0  0  0  0  0  0  0  0  0  0
    5.7307   -3.7494   15.5485 H   0  0  0  0  0  0  0  0  0  0  0  0
    6.4488   -1.7704   14.1397 H   0  0  0  0  0  0  0  0  0  0  0  0
  1 18  1  0  0  0  0
  2 17  1  0  0  0  0
  2 19  1  0  0  0  0
  3 22  1  0  0  0  0
  4 11  2  0  0  0  0
  4 12  1  0  0  0  0
  5 11  1  0  0  0  0
  5 13  2  0  0  0  0
  6 17  2  0  0  0  0
  6 20  1  0  0  0  0
  7 17  1  0  0  0  0
  7 21  2  0  0  0  0
  8 20  1  0  0  0  0
  8 23  1  0  0  0  0
  9 14  1  0  0  0  0
  9 15  1  0  0  0  0
  9 21  1  0  0  0  0
 10 16  1  0  0  0  0
 12 19  2  0  0  0  0
 13 19  1  0  0  0  0
 14 24  1  0  0  0  0
 15 25  1  0  0  0  0
 16 23  1  0  0  0  0
 18 23  2  0  0  0  0
 18 26  1  0  0  0  0
 20 26  2  0  0  0  0
 21 26  1  0  0  0  0
 22 24  1  0  0  0  0
 22 25  1  0  0  0  0
 24 25  1  0  0  0  0
  3 27  1  0  0  0  0
  3 28  1  0  0  0  0
  8 29  1  0  0  0  0
 10 30  1  0  0  0  0
 10 31  1  0  0  0  0
 10 32  1  0  0  0  0
 11 33  1  0  0  0  0
 12 34  1  0  0  0  0
 13 35  1  0  0  0  0
 14 36  1  0  0  0  0
 14 37  1  0  0  0  0
 15 38  1  0  0  0  0
 15 39  1  0  0  0  0
 16 40  1  0  0  0  0
 16 41  1  0  0  0  0
 22 42  1  0  0  0  0
 24 43  1  0  0  0  0
 25 44  1  0  0  0  0
M  END
> <pdb_id>
4GEE

> <uniprot_id>
Q839Z1

> <usmiles>
ClC=1c2c(nc(Oc3cncnc3)nc2NC1CC)N4C[C@H]5[C@H]([C@@H]5N)C4

$$$$
0X2_A_1201
          07202414163D 1   1.00000     0.00000     0
            
 26 27  0  0  0  0            999 V2000
   54.9038   -7.1619   30.7839 Cl  0  0  0  0  0  0  0  0  0  0  0  0
   54.5211  -11.0901   27.0815 Cl  0  0  0  0  0  0  0  0  0  0  0  0
   49.5832  -11.9111   31.9970 O   0  0  0  0  0  0  0  0  0  0  0  0
   53.7942  -10.1738   30.7250 O   0  0  0  0  0  0  0  0  0  0  0  0
   48.7834  -11.3366   29.9781 N   0  0  0  0  0  0  0  0  0  0  0  0
   52.4774   -9.6278   28.9808 N   0  0  0  0  0  0  0  0  0  0  0  0
   48.9526  -10.7479   28.7907 C   0  0  0  0  0  0  0  0  0  0  0  0
   56.9914   -7.8891   27.4407 C   0  0  0  0  0  0  0  0  0  0  0  0
   56.5404   -7.3015   28.6212 C   0  0  0  0  0  0  0  0  0  0  0  0
   56.3640   -9.0448   26.9803 C   0  0  0  0  0  0  0  0  0  0  0  0
   50.1890  -10.1747   28.4667 C   0  0  0  0  0  0  0  0  0  0  0  0
   51.0357  -10.8054   30.6211 C   0  0  0  0  0  0  0  0  0  0  0  0
   49.7859  -11.3660   30.8941 C   0  0  0  0  0  0  0  0  0  0  0  0
   55.4714   -7.8882   29.2937 C   0  0  0  0  0  0  0  0  0  0  0  0
   55.2970   -9.6045   27.6908 C   0  0  0  0  0  0  0  0  0  0  0  0
   53.6621   -9.6674   29.6105 C   0  0  0  0  0  0  0  0  0  0  0  0
   51.2447  -10.1852   29.3893 C   0  0  0  0  0  0  0  0  0  0  0  0
   54.8324   -9.0358   28.8664 C   0  0  0  0  0  0  0  0  0  0  0  0
   47.9050  -11.7622   30.1957 H   0  0  0  0  0  0  0  0  0  0  0  0
   52.4655   -9.1398   28.1080 H   0  0  0  0  0  0  0  0  0  0  0  0
   48.1984  -10.7165   28.1348 H   0  0  0  0  0  0  0  0  0  0  0  0
   57.7533   -7.4878   26.9323 H   0  0  0  0  0  0  0  0  0  0  0  0
   56.9757   -6.4750   28.9782 H   0  0  0  0  0  0  0  0  0  0  0  0
   56.6789   -9.4774   26.1355 H   0  0  0  0  0  0  0  0  0  0  0  0
   50.3199   -9.7541   27.5689 H   0  0  0  0  0  0  0  0  0  0  0  0
   51.7699  -10.8481   31.2987 H   0  0  0  0  0  0  0  0  0  0  0  0
  1 14  1  0  0  0  0
  2 15  1  0  0  0  0
  3 13  2  0  0  0  0
  4 16  2  0  0  0  0
  5  7  1  0  0  0  0
  5 13  1  0  0  0  0
  6 16  1  0  0  0  0
  6 17  1  0  0  0  0
  7 11  2  0  0  0  0
  8  9  2  0  0  0  0
  8 10  1  0  0  0  0
  9 14  1  0  0  0  0
 10 15  2  0  0  0  0
 11 17  1  0  0  0  0
 12 13  1  0  0  0  0
 12 17  2  0  0  0  0
 14 18  2  0  0  0  0
 15 18  1  0  0  0  0
 16 18  1  0  0  0  0
  5 19  1  0  0  0  0
  6 20  1  0  0  0  0
  7 21  1  0  0  0  0
  8 22  1  0  0  0  0
  9 23  1  0  0  0  0
 10 24  1  0  0  0  0
 11 25  1  0  0  0  0
 12 26  1  0  0  0  0
M  END
> <pdb_id>
4GFM

> <uniprot_id>
O60674

> <usmiles>
Clc1c(c(Cl)ccc1)C(=O)NC2=CC(=O)NC=C2

$$$$
0X3_A_401
          07202411443D 1   1.00000     0.00000     0
            
 27 29  0  0  0  0            999 V2000
   19.3459    1.4770   -9.7829 Cl  0  0  0  0  0  0  0  0  0  0  0  0
   19.5197   -3.2807  -11.3192 F   0  0  0  0  0  0  0  0  0  0  0  0
   25.6405   -0.5745  -12.7263 O   0  5  0  0  0  0  0  0  0  0  0  0
   27.5978   -0.1382  -12.0161 O   0  0  0  0  0  0  0  0  0  0  0  0
   28.3769    0.6598   -8.1191 O   0  0  0  0  0  0  0  0  0  0  0  0
   27.3401    0.5179   -7.2974 N   0  0  0  0  0  0  0  0  0  0  0  0
   28.0974    0.4262   -9.3967 N   0  0  0  0  0  0  0  0  0  0  0  0
   23.6577   -0.9049  -11.1635 N   0  0  0  0  0  0  0  0  0  0  0  0
   26.4234   -0.3203  -11.8112 N   0  3  0  0  0  0  0  0  0  0  0  0
   24.9343   -0.1126   -7.8216 C   0  0  0  0  0  0  0  0  0  0  0  0
   24.1317   -0.4568   -8.8517 C   0  0  0  0  0  0  0  0  0  0  0  0
   19.4652   -1.0611  -10.5770 C   0  0  0  0  0  0  0  0  0  0  0  0
   21.5476    0.1457  -10.5130 C   0  0  0  0  0  0  0  0  0  0  0  0
   21.5569   -2.1195  -11.2193 C   0  0  0  0  0  0  0  0  0  0  0  0
   20.2080    0.0568  -10.3136 C   0  0  0  0  0  0  0  0  0  0  0  0
   20.1814   -2.1464  -11.0474 C   0  0  0  0  0  0  0  0  0  0  0  0
   22.2449   -0.9677  -10.9463 C   0  0  0  0  0  0  0  0  0  0  0  0
   26.3073    0.1615   -8.0735 C   0  0  0  0  0  0  0  0  0  0  0  0
   24.5824   -0.5315  -10.2329 C   0  0  0  0  0  0  0  0  0  0  0  0
   26.7866    0.0930   -9.4406 C   0  0  0  0  0  0  0  0  0  0  0  0
   25.8947   -0.2562  -10.4959 C   0  0  0  0  0  0  0  0  0  0  0  0
   23.9821   -1.3465  -12.0175 H   0  0  0  0  0  0  0  0  0  0  0  0
   24.5812   -0.0650   -6.7876 H   0  0  0  0  0  0  0  0  0  0  0  0
   23.0850   -0.6831   -8.6599 H   0  0  0  0  0  0  0  0  0  0  0  0
   18.3812   -1.0869  -10.4410 H   0  0  0  0  0  0  0  0  0  0  0  0
   22.0307    1.0928  -10.2748 H   0  0  0  0  0  0  0  0  0  0  0  0
   22.0621   -3.0141  -11.5875 H   0  0  0  0  0  0  0  0  0  0  0  0
  1 15  1  0  0  0  0
  2 16  1  0  0  0  0
  3  9  1  0  0  0  0
  4  9  2  0  0  0  0
  5  6  1  0  0  0  0
  5  7  1  0  0  0  0
  6 18  2  0  0  0  0
  7 20  2  0  0  0  0
  8 17  1  0  0  0  0
  8 19  1  0  0  0  0
  8 22  1  0  0  0  0
  9 21  1  0  0  0  0
 10 11  2  0  0  0  0
 10 18  1  0  0  0  0
 10 23  1  0  0  0  0
 11 19  1  0  0  0  0
 11 24  1  0  0  0  0
 12 15  2  0  0  0  0
 12 16  1  0  0  0  0
 12 25  1  0  0  0  0
 13 15  1  0  0  0  0
 13 17  2  0  0  0  0
 13 26  1  0  0  0  0
 14 16  2  0  0  0  0
 14 17  1  0  0  0  0
 14 27  1  0  0  0  0
 18 20  1  0  0  0  0
 19 21  2  0  0  0  0
 20 21  1  0  0  0  0
M  CHG  2   3  -1   9   1
M  END
> <pdb_id>
4GHI

> <uniprot_id>
Q99814

> <usmiles>
Clc1cc(F)cc(NC2=C([N+]([O-])=O)C3=NON=C3C=C2)c1

$$$$
0X5_A_1201
          07202413383D 1   1.00000     0.00000     0
            
 36 38  0  0  0  0            999 V2000
   -6.8793   19.3231  -29.0142 Cl  0  0  0  0  0  0  0  0  0  0  0  0
   -2.2228   21.3161  -31.0621 Cl  0  0  0  0  0  0  0  0  0  0  0  0
   -5.1685   26.6134  -31.3516 O   0  0  0  0  0  0  0  0  0  0  0  0
   -5.8549   19.9957  -31.8806 O   0  0  0  0  0  0  0  0  0  0  0  0
   -7.9107   24.4684  -33.4979 N   0  0  0  0  0  0  0  0  0  0  0  0
   -7.1572   26.4303  -32.3927 N   0  0  0  0  0  0  0  0  0  0  0  0
   -5.5159   22.0959  -31.0965 N   0  0  0  0  0  0  0  0  0  0  0  0
   -7.9498   23.1553  -33.7201 C   0  0  0  0  0  0  0  0  0  0  0  0
   -3.0588   18.9296  -27.9569 C   0  0  0  0  0  0  0  0  0  0  0  0
   -4.4360   18.7920  -28.0024 C   0  0  0  0  0  0  0  0  0  0  0  0
   -2.3942   19.6926  -28.9157 C   0  0  0  0  0  0  0  0  0  0  0  0
   -7.1392   22.2906  -32.9863 C   0  0  0  0  0  0  0  0  0  0  0  0
   -5.6239   29.3742  -30.4809 C   0  0  0  0  0  0  0  0  0  0  0  0
   -5.0439   29.5296  -31.8839 C   0  0  0  0  0  0  0  0  0  0  0  0
   -6.3298   24.2094  -31.7738 C   0  0  0  0  0  0  0  0  0  0  0  0
   -5.1549   19.4277  -29.0060 C   0  0  0  0  0  0  0  0  0  0  0  0
   -3.0989   20.3282  -29.9333 C   0  0  0  0  0  0  0  0  0  0  0  0
   -6.1641   27.1564  -31.7944 C   0  0  0  0  0  0  0  0  0  0  0  0
   -5.3284   20.7655  -31.0708 C   0  0  0  0  0  0  0  0  0  0  0  0
   -7.1341   25.0294  -32.5701 C   0  0  0  0  0  0  0  0  0  0  0  0
   -6.3068   22.8313  -31.9833 C   0  0  0  0  0  0  0  0  0  0  0  0
   -6.2950   28.6688  -31.6676 C   0  0  0  0  0  0  0  0  0  0  0  0
   -4.4981   20.1863  -29.9938 C   0  0  0  0  0  0  0  0  0  0  0  0
   -7.9572   26.9273  -32.7287 H   0  0  0  0  0  0  0  0  0  0  0  0
   -5.0318   22.6225  -30.3977 H   0  0  0  0  0  0  0  0  0  0  0  0
   -8.5646   22.7876  -34.4178 H   0  0  0  0  0  0  0  0  0  0  0  0
   -2.5380   18.4791  -27.2318 H   0  0  0  0  0  0  0  0  0  0  0  0
   -4.9095   18.2386  -27.3172 H   0  0  0  0  0  0  0  0  0  0  0  0
   -1.3994   19.7841  -28.8718 H   0  0  0  0  0  0  0  0  0  0  0  0
   -7.1475   21.3071  -33.1669 H   0  0  0  0  0  0  0  0  0  0  0  0
   -6.0767   30.1485  -30.0389 H   0  0  0  0  0  0  0  0  0  0  0  0
   -5.1330   28.8384  -29.7939 H   0  0  0  0  0  0  0  0  0  0  0  0
   -4.1731   29.0958  -32.1153 H   0  0  0  0  0  0  0  0  0  0  0  0
   -5.1167   30.4058  -32.3603 H   0  0  0  0  0  0  0  0  0  0  0  0
   -5.7687   24.6128  -31.0510 H   0  0  0  0  0  0  0  0  0  0  0  0
   -7.1589   29.0628  -31.9814 H   0  0  0  0  0  0  0  0  0  0  0  0
  1 16  1  0  0  0  0
  2 17  1  0  0  0  0
  3 18  2  0  0  0  0
  4 19  2  0  0  0  0
  5  8  1  0  0  0  0
  5 20  2  0  0  0  0
  6 18  1  0  0  0  0
  6 20  1  0  0  0  0
  7 19  1  0  0  0  0
  7 21  1  0  0  0  0
  8 12  2  0  0  0  0
  9 10  2  0  0  0  0
  9 11  1  0  0  0  0
 10 16  1  0  0  0  0
 11 17  2  0  0  0  0
 12 21  1  0  0  0  0
 13 14  1  0  0  0  0
 13 22  1  0  0  0  0
 14 22  1  0  0  0  0
 15 20  1  0  0  0  0
 15 21  2  0  0  0  0
 16 23  2  0  0  0  0
 17 23  1  0  0  0  0
 18 22  1  0  0  0  0
 19 23  1  0  0  0  0
  6 24  1  0  0  0  0
  7 25  1  0  0  0  0
  8 26  1  0  0  0  0
  9 27  1  0  0  0  0
 10 28  1  0  0  0  0
 11 29  1  0  0  0  0
 12 30  1  0  0  0  0
 13 31  1  0  0  0  0
 13 32  1  0  0  0  0
 14 33  1  0  0  0  0
 14 34  1  0  0  0  0
 15 35  1  0  0  0  0
 22 36  1  0  0  0  0
M  END
> <pdb_id>
4GIH

> <uniprot_id>
P29597

> <usmiles>
Clc1c(c(Cl)ccc1)C(=O)Nc2cc(ncc2)NC(=O)C3CC3

$$$$
0XH_A_1201
          07202413383D 1   1.00000     0.00000     0
            
 36 38  0  0  0  0            999 V2000
   -6.9056   19.3140  -29.1579 Cl  0  0  0  0  0  0  0  0  0  0  0  0
   -2.2123   21.4108  -30.9824 Cl  0  0  0  0  0  0  0  0  0  0  0  0
   -4.3729   29.3681  -32.5997 F   0  0  0  0  0  0  0  0  0  0  0  0
   -5.5986   20.1586  -32.0329 O   0  0  0  0  0  0  0  0  0  0  0  0
   -5.0935   26.8674  -31.3066 O   0  0  0  0  0  0  0  0  0  0  0  0
   -7.8675   24.6695  -33.4323 N   0  0  0  0  0  0  0  0  0  0  0  0
   -7.1473   26.5547  -32.2145 N   0  0  0  0  0  0  0  0  0  0  0  0
   -5.5560   22.1849  -31.0408 N   0  0  0  0  0  0  0  0  0  0  0  0
   -7.9070   23.3648  -33.6883 C   0  0  0  0  0  0  0  0  0  0  0  0
   -3.1161   19.0787  -27.8662 C   0  0  0  0  0  0  0  0  0  0  0  0
   -4.4906   18.9212  -27.9860 C   0  0  0  0  0  0  0  0  0  0  0  0
   -2.4212   19.8387  -28.8006 C   0  0  0  0  0  0  0  0  0  0  0  0
   -7.1352   22.4686  -32.9567 C   0  0  0  0  0  0  0  0  0  0  0  0
   -6.3412   24.3267  -31.6693 C   0  0  0  0  0  0  0  0  0  0  0  0
   -5.6566   29.6016  -30.4644 C   0  0  0  0  0  0  0  0  0  0  0  0
   -5.1830   19.5141  -29.0335 C   0  0  0  0  0  0  0  0  0  0  0  0
   -3.0959   20.4401  -29.8568 C   0  0  0  0  0  0  0  0  0  0  0  0
   -5.2471   20.8755  -31.1112 C   0  0  0  0  0  0  0  0  0  0  0  0
   -6.1733   27.3170  -31.6514 C   0  0  0  0  0  0  0  0  0  0  0  0
   -7.0968   25.1806  -32.4740 C   0  0  0  0  0  0  0  0  0  0  0  0
   -6.3103   22.9596  -31.9264 C   0  0  0  0  0  0  0  0  0  0  0  0
   -4.4868   20.2751  -29.9913 C   0  0  0  0  0  0  0  0  0  0  0  0
   -5.5293   29.8284  -31.9710 C   0  0  2  0  0  0  0  0  0  0  0  0
   -6.4978   28.7748  -31.4428 C   0  0  2  0  0  0  0  0  0  0  0  0
   -5.9495   30.7497  -32.3696 H   0  0  0  0  0  0  0  0  0  0  0  0
   -7.5580   28.9983  -31.4923 H   0  0  0  0  0  0  0  0  0  0  0  0
   -7.9909   27.0265  -32.4710 H   0  0  0  0  0  0  0  0  0  0  0  0
   -5.1954   22.6701  -30.2441 H   0  0  0  0  0  0  0  0  0  0  0  0
   -8.5003   23.0234  -34.4173 H   0  0  0  0  0  0  0  0  0  0  0  0
   -2.6267   18.6462  -27.1089 H   0  0  0  0  0  0  0  0  0  0  0  0
   -4.9869   18.3752  -27.3109 H   0  0  0  0  0  0  0  0  0  0  0  0
   -1.4317   19.9532  -28.7124 H   0  0  0  0  0  0  0  0  0  0  0  0
   -7.1655   21.4898  -33.1594 H   0  0  0  0  0  0  0  0  0  0  0  0
   -5.8185   24.6999  -30.9028 H   0  0  0  0  0  0  0  0  0  0  0  0
   -6.0934   30.2932  -29.8892 H   0  0  0  0  0  0  0  0  0  0  0  0
   -4.9096   29.1704  -29.9583 H   0  0  0  0  0  0  0  0  0  0  0  0
  1 16  1  0  0  0  0
  2 17  1  0  0  0  0
  3 23  1  0  0  0  0
  4 18  2  0  0  0  0
  5 19  2  0  0  0  0
  6  9  2  0  0  0  0
  6 20  1  0  0  0  0
  7 19  1  0  0  0  0
  7 20  1  0  0  0  0
  8 18  1  0  0  0  0
  8 21  1  0  0  0  0
  9 13  1  0  0  0  0
 10 11  2  0  0  0  0
 10 12  1  0  0  0  0
 11 16  1  0  0  0  0
 12 17  2  0  0  0  0
 13 21  2  0  0  0  0
 14 20  2  0  0  0  0
 14 21  1  0  0  0  0
 15 23  1  0  0  0  0
 15 24  1  0  0  0  0
 16 22  2  0  0  0  0
 17 22  1  0  0  0  0
 18 22  1  0  0  0  0
 19 24  1  0  0  0  0
 23 24  1  0  0  0  0
 23 25  1  0  0  0  0
 24 26  1  0  0  0  0
  7 27  1  0  0  0  0
  8 28  1  0  0  0  0
  9 29  1  0  0  0  0
 10 30  1  0  0  0  0
 11 31  1  0  0  0  0
 12 32  1  0  0  0  0
 13 33  1  0  0  0  0
 14 34  1  0  0  0  0
 15 35  1  0  0  0  0
 15 36  1  0  0  0  0
M  END
> <pdb_id>
4GJ2

> <uniprot_id>
P29597

> <usmiles>
Clc1c(c(Cl)ccc1)C(=O)Nc2cc(ncc2)NC(=O)[C@@H]3[C@H](F)C3

$$$$
10J_A_501
          07202405583D 1   1.00000     0.00000     0
            
 54 58  0  0  0  0            999 V2000
   70.2130   49.9640    9.9848 S   0  0  0  0  0  0  0  0  0  0  0  0
   66.8310   46.4843   10.5787 O   0  0  0  0  0  0  0  0  0  0  0  0
   65.8575   53.1084   11.3310 O   0  0  0  0  0  0  0  0  0  0  0  0
   70.8149   45.5861    2.8788 N   0  0  0  0  0  0  0  0  0  0  0  0
   65.6706   48.3013    6.3426 N   0  0  0  0  0  0  0  0  0  0  0  0
   66.6749   49.5840    7.9966 N   0  0  0  0  0  0  0  0  0  0  0  0
   66.3960   47.2329    8.3569 N   0  0  0  0  0  0  0  0  0  0  0  0
   66.0603   50.9119   10.6840 N   0  0  0  0  0  0  0  0  0  0  0  0
   66.1844   45.8466    7.8225 C   0  0  0  0  0  0  0  0  0  0  0  0
   71.4590   49.3638    8.9990 C   0  0  0  0  0  0  0  0  0  0  0  0
   71.3293   46.1804    3.7113 C   0  0  0  0  0  0  0  0  0  0  0  0
   65.6474   49.5129   10.6757 C   0  0  0  0  0  0  0  0  0  0  0  0
   67.1975   51.1459    9.7800 C   0  0  0  0  0  0  0  0  0  0  0  0
   61.5405   51.2953   13.0261 C   0  0  0  0  0  0  0  0  0  0  0  0
   61.6726   51.0541   11.6238 C   0  0  0  0  0  0  0  0  0  0  0  0
   62.6695   51.7230   13.8251 C   0  0  0  0  0  0  0  0  0  0  0  0
   73.9958   47.8477    5.7454 C   0  0  0  0  0  0  0  0  0  0  0  0
   73.3656   47.0839    4.7296 C   0  0  0  0  0  0  0  0  0  0  0  0
   62.9192   51.2798   10.9917 C   0  0  0  0  0  0  0  0  0  0  0  0
   63.9124   51.9298   13.2201 C   0  0  0  0  0  0  0  0  0  0  0  0
   73.2120   48.3988    6.7761 C   0  0  0  0  0  0  0  0  0  0  0  0
   69.5431   48.9134    7.7887 C   0  0  0  0  0  0  0  0  0  0  0  0
   71.1650   47.4880    5.7522 C   0  0  0  0  0  0  0  0  0  0  0  0
   66.2587   48.3433    7.5006 C   0  0  0  0  0  0  0  0  0  0  0  0
   66.7078   47.3875    9.7458 C   0  0  0  0  0  0  0  0  0  0  0  0
   65.3642   51.9763   11.2330 C   0  0  0  0  0  0  0  0  0  0  0  0
   68.9679   49.5014    8.8985 C   0  0  0  0  0  0  0  0  0  0  0  0
   71.9631   46.9136    4.7387 C   0  0  0  0  0  0  0  0  0  0  0  0
   70.9559   48.8030    7.8348 C   0  0  0  0  0  0  0  0  0  0  0  0
   64.0287   51.7174   11.7877 C   0  0  0  0  0  0  0  0  0  0  0  0
   71.7867   48.2221    6.8003 C   0  0  0  0  0  0  0  0  0  0  0  0
   66.9234   48.8170   10.2689 C   0  0  1  0  0  0  0  0  0  0  0  0
   67.5070   49.7502    9.1771 C   0  0  2  0  0  0  0  0  0  0  0  0
   65.3648   47.4257    5.9685 H   0  0  0  0  0  0  0  0  0  0  0  0
   65.5237   49.1445    5.8255 H   0  0  0  0  0  0  0  0  0  0  0  0
   66.3197   45.1819    8.5573 H   0  0  0  0  0  0  0  0  0  0  0  0
   65.2535   45.7652    7.4665 H   0  0  0  0  0  0  0  0  0  0  0  0
   66.8390   45.6691    7.0877 H   0  0  0  0  0  0  0  0  0  0  0  0
   72.4312   49.4091    9.2287 H   0  0  0  0  0  0  0  0  0  0  0  0
   64.9174   49.3526   10.0112 H   0  0  0  0  0  0  0  0  0  0  0  0
   65.3443   49.2173   11.5816 H   0  0  0  0  0  0  0  0  0  0  0  0
   67.9859   51.4950   10.2865 H   0  0  0  0  0  0  0  0  0  0  0  0
   66.9496   51.7948    9.0605 H   0  0  0  0  0  0  0  0  0  0  0  0
   60.6509   51.1661   13.4641 H   0  0  0  0  0  0  0  0  0  0  0  0
   60.8903   50.7284   11.0929 H   0  0  0  0  0  0  0  0  0  0  0  0
   62.5603   51.8703   14.8081 H   0  0  0  0  0  0  0  0  0  0  0  0
   74.9851   47.9927    5.7292 H   0  0  0  0  0  0  0  0  0  0  0  0
   73.9148   46.6654    4.0062 H   0  0  0  0  0  0  0  0  0  0  0  0
   63.0241   51.1366   10.0076 H   0  0  0  0  0  0  0  0  0  0  0  0
   64.7032   52.2172   13.7606 H   0  0  0  0  0  0  0  0  0  0  0  0
   73.6549   48.9223    7.5040 H   0  0  0  0  0  0  0  0  0  0  0  0
   69.0037   48.5899    7.0113 H   0  0  0  0  0  0  0  0  0  0  0  0
   70.1711   47.3796    5.7334 H   0  0  0  0  0  0  0  0  0  0  0  0
   67.5482   48.7917   11.0492 H   0  0  0  0  0  0  0  0  0  0  0  0
  1 10  1  0  0  0  0
  1 27  1  0  0  0  0
  2 25  2  0  0  0  0
  3 26  2  0  0  0  0
  4 11  3  0  0  0  0
  5 24  1  0  0  0  0
  6 24  2  0  0  0  0
  6 33  1  0  0  0  0
  7  9  1  0  0  0  0
  7 24  1  0  0  0  0
  7 25  1  0  0  0  0
  8 12  1  0  0  0  0
  8 13  1  0  0  0  0
  8 26  1  0  0  0  0
 10 29  2  0  0  0  0
 11 28  1  0  0  0  0
 12 32  1  0  0  0  0
 13 33  1  0  0  0  0
 14 15  2  0  0  0  0
 14 16  1  0  0  0  0
 15 19  1  0  0  0  0
 16 20  2  0  0  0  0
 17 18  1  0  0  0  0
 17 21  2  0  0  0  0
 18 28  2  0  0  0  0
 19 30  2  0  0  0  0
 20 30  1  0  0  0  0
 21 31  1  0  0  0  0
 22 27  2  0  0  0  0
 22 29  1  0  0  0  0
 23 28  1  0  0  0  0
 23 31  2  0  0  0  0
 25 32  1  0  0  0  0
 26 30  1  0  0  0  0
 27 33  1  0  0  0  0
 29 31  1  0  0  0  0
 32 33  1  0  0  0  0
  5 34  1  0  0  0  0
  5 35  1  0  0  0  0
  9 36  1  0  0  0  0
  9 37  1  0  0  0  0
  9 38  1  0  0  0  0
 10 39  1  0  0  0  0
 12 40  1  0  0  0  0
 12 41  1  0  0  0  0
 13 42  1  0  0  0  0
 13 43  1  0  0  0  0
 14 44  1  0  0  0  0
 15 45  1  0  0  0  0
 16 46  1  0  0  0  0
 17 47  1  0  0  0  0
 18 48  1  0  0  0  0
 19 49  1  0  0  0  0
 20 50  1  0  0  0  0
 21 51  1  0  0  0  0
 22 52  1  0  0  0  0
 23 53  1  0  0  0  0
 32 54  1  0  0  0  0
M  END
> <pdb_id>
4H1E

> <uniprot_id>
P56817

> <usmiles>
S1C(=CC(c2cc(C#N)ccc2)=C1)[C@@]34N=C(N(C(=O)[C@@H]3CN(C(=O)c5ccccc5)C4)C)N

$$$$
10K_A_301
          07192421083D 1   1.00000     0.00000     0
            
 40 43  0  0  0  0            999 V2000
    4.2612   21.4505    3.1126 S   0  0  0  0  0  0  0  0  0  0  0  0
    2.4515   26.8057    8.0643 O   0  0  0  0  0  0  0  0  0  0  0  0
    1.8881   30.6671    6.4816 N   0  0  0  0  0  0  0  0  0  0  0  0
    0.7169   31.1739    6.9017 N   0  0  0  0  0  0  0  0  0  0  0  0
    3.0643   28.6333    6.8298 N   0  0  0  0  0  0  0  0  0  0  0  0
    4.8282   20.9727    1.5821 C   0  0  0  0  0  0  0  0  0  0  0  0
    5.5466   21.9456    0.9599 C   0  0  0  0  0  0  0  0  0  0  0  0
    5.6402   23.1471    1.7604 C   0  0  0  0  0  0  0  0  0  0  0  0
    4.4682   24.5651    6.3616 C   0  0  0  0  0  0  0  0  0  0  0  0
    5.0281   26.3373    4.7792 C   0  0  0  0  0  0  0  0  0  0  0  0
    4.5421   23.6310    5.3219 C   0  0  0  0  0  0  0  0  0  0  0  0
    5.0946   25.4101    3.7261 C   0  0  0  0  0  0  0  0  0  0  0  0
   -1.7978   30.1673    9.5270 C   0  0  0  0  0  0  0  0  0  0  0  0
   -2.4437   29.6110    8.2882 C   0  0  0  0  0  0  0  0  0  0  0  0
    4.7296   26.8905    7.1963 C   0  0  0  0  0  0  0  0  0  0  0  0
    0.7089   29.0799    7.6587 C   0  0  0  0  0  0  0  0  0  0  0  0
    3.3008   27.4114    7.4243 C   0  0  0  0  0  0  0  0  0  0  0  0
    4.9847   23.0268    2.9486 C   0  0  0  0  0  0  0  0  0  0  0  0
    1.9164   29.3842    6.9322 C   0  0  0  0  0  0  0  0  0  0  0  0
    4.7322   25.9266    6.0800 C   0  0  0  0  0  0  0  0  0  0  0  0
   -0.0397   30.2559    7.6161 C   0  0  0  0  0  0  0  0  0  0  0  0
    4.8619   24.0254    3.9971 C   0  0  0  0  0  0  0  0  0  0  0  0
   -1.3397   30.6484    8.1610 C   0  0  0  0  0  0  0  0  0  0  0  0
    2.5925   31.1357    5.9484 H   0  0  0  0  0  0  0  0  0  0  0  0
    3.8007   29.0108    6.2684 H   0  0  0  0  0  0  0  0  0  0  0  0
    4.6522   20.0731    1.1824 H   0  0  0  0  0  0  0  0  0  0  0  0
    5.9612   21.8426    0.0558 H   0  0  0  0  0  0  0  0  0  0  0  0
    6.1296   23.9710    1.4745 H   0  0  0  0  0  0  0  0  0  0  0  0
    4.2325   24.2750    7.2891 H   0  0  0  0  0  0  0  0  0  0  0  0
    5.1952   27.3057    4.5942 H   0  0  0  0  0  0  0  0  0  0  0  0
    4.3660   22.6661    5.5168 H   0  0  0  0  0  0  0  0  0  0  0  0
    5.3024   25.7151    2.7967 H   0  0  0  0  0  0  0  0  0  0  0  0
   -1.1976   29.5890   10.0796 H   0  0  0  0  0  0  0  0  0  0  0  0
   -2.3126   30.7813   10.1255 H   0  0  0  0  0  0  0  0  0  0  0  0
   -3.3870   29.8559    8.0641 H   0  0  0  0  0  0  0  0  0  0  0  0
   -2.2721   28.6636    8.0181 H   0  0  0  0  0  0  0  0  0  0  0  0
    5.0557   26.4390    8.0268 H   0  0  0  0  0  0  0  0  0  0  0  0
    5.3321   27.6574    6.9753 H   0  0  0  0  0  0  0  0  0  0  0  0
    0.4623   28.2155    8.0970 H   0  0  0  0  0  0  0  0  0  0  0  0
   -1.6462   31.5663    7.9091 H   0  0  0  0  0  0  0  0  0  0  0  0
  1  6  1  0  0  0  0
  1 18  1  0  0  0  0
  2 17  2  0  0  0  0
  3  4  1  0  0  0  0
  3 19  1  0  0  0  0
  4 21  2  0  0  0  0
  5 17  1  0  0  0  0
  5 19  1  0  0  0  0
  6  7  2  0  0  0  0
  7  8  1  0  0  0  0
  8 18  2  0  0  0  0
  9 11  1  0  0  0  0
  9 20  2  0  0  0  0
 10 12  2  0  0  0  0
 10 20  1  0  0  0  0
 11 22  2  0  0  0  0
 12 22  1  0  0  0  0
 13 14  1  0  0  0  0
 13 23  1  0  0  0  0
 14 23  1  0  0  0  0
 15 17  1  0  0  0  0
 15 20  1  0  0  0  0
 16 19  2  0  0  0  0
 16 21  1  0  0  0  0
 18 22  1  0  0  0  0
 21 23  1  0  0  0  0
  3 24  1  0  0  0  0
  5 25  1  0  0  0  0
  6 26  1  0  0  0  0
  7 27  1  0  0  0  0
  8 28  1  0  0  0  0
  9 29  1  0  0  0  0
 10 30  1  0  0  0  0
 11 31  1  0  0  0  0
 12 32  1  0  0  0  0
 13 33  1  0  0  0  0
 13 34  1  0  0  0  0
 14 35  1  0  0  0  0
 14 36  1  0  0  0  0
 15 37  1  0  0  0  0
 15 38  1  0  0  0  0
 16 39  1  0  0  0  0
 23 40  1  0  0  0  0
M  END
> <pdb_id>
4EK6

> <uniprot_id>
P24941

> <usmiles>
S1C(c2ccc(cc2)CC(=O)NC=3NN=C(C3)C4CC4)=CC=C1

$$$$
10O_B_503
          07202405583D 1   1.00000     0.00000     0
            
 55 59  0  0  0  0            999 V2000
   71.3654   49.8224    9.4029 S   0  0  0  0  0  0  0  0  0  0  0  0
   67.6715   46.7367   10.5121 O   0  0  0  0  0  0  0  0  0  0  0  0
   67.0882   55.9297    9.9448 O   0  0  0  0  0  0  0  0  0  0  0  0
   70.7433   45.5792    2.1106 N   0  0  0  0  0  0  0  0  0  0  0  0
   66.0502   48.5214    6.5152 N   0  0  0  0  0  0  0  0  0  0  0  0
   67.1794   53.5688   10.1906 N   0  0  0  0  0  0  0  0  0  0  0  0
   67.6304   49.7290    7.7484 N   0  0  0  0  0  0  0  0  0  0  0  0
   67.3840   51.2657   10.3320 N   0  0  0  0  0  0  0  0  0  0  0  0
   66.9767   47.5420    8.4511 N   0  0  0  0  0  0  0  0  0  0  0  0
   68.1897   55.7759    9.0566 C   0  0  0  0  0  0  0  0  0  0  0  0
   66.4415   46.2082    8.0564 C   0  0  0  0  0  0  0  0  0  0  0  0
   72.4322   48.9211    8.4133 C   0  0  0  0  0  0  0  0  0  0  0  0
   71.3984   45.8290    3.0305 C   0  0  0  0  0  0  0  0  0  0  0  0
   67.0513   49.9216   10.7960 C   0  0  0  0  0  0  0  0  0  0  0  0
   65.0186   53.6427   11.9627 C   0  0  0  0  0  0  0  0  0  0  0  0
   74.2208   45.9985    5.4778 C   0  0  0  0  0  0  0  0  0  0  0  0
   68.5018   51.3142    9.3810 C   0  0  0  0  0  0  0  0  0  0  0  0
   65.5175   54.8410   11.3907 C   0  0  0  0  0  0  0  0  0  0  0  0
   65.6216   52.4028   11.6336 C   0  0  0  0  0  0  0  0  0  0  0  0
   73.4882   45.6449    4.3235 C   0  0  0  0  0  0  0  0  0  0  0  0
   73.6569   46.8513    6.4661 C   0  0  0  0  0  0  0  0  0  0  0  0
   70.3513   48.5331    7.4377 C   0  0  0  0  0  0  0  0  0  0  0  0
   71.6258   47.0064    5.1617 C   0  0  0  0  0  0  0  0  0  0  0  0
   67.5625   47.6611    9.7152 C   0  0  0  0  0  0  0  0  0  0  0  0
   66.8743   48.5985    7.5536 C   0  0  0  0  0  0  0  0  0  0  0  0
   66.6103   54.7535   10.5004 C   0  0  0  0  0  0  0  0  0  0  0  0
   69.9693   49.4041    8.5308 C   0  0  0  0  0  0  0  0  0  0  0  0
   66.7233   52.4109   10.7241 C   0  0  0  0  0  0  0  0  0  0  0  0
   72.1821   46.1587    4.1780 C   0  0  0  0  0  0  0  0  0  0  0  0
   71.7380   48.2661    7.3736 C   0  0  0  0  0  0  0  0  0  0  0  0
   72.3481   47.3737    6.3227 C   0  0  0  0  0  0  0  0  0  0  0  0
   68.1007   49.0560   10.0945 C   0  0  1  0  0  0  0  0  0  0  0  0
   68.5748   49.8729    8.8772 C   0  0  2  0  0  0  0  0  0  0  0  0
   65.5000   47.6985    6.3735 H   0  0  0  0  0  0  0  0  0  0  0  0
   65.9799   49.2863    5.8748 H   0  0  0  0  0  0  0  0  0  0  0  0
   68.4640   56.6720    8.7075 H   0  0  0  0  0  0  0  0  0  0  0  0
   68.9564   55.3596    9.5454 H   0  0  0  0  0  0  0  0  0  0  0  0
   67.9226   55.1881    8.2930 H   0  0  0  0  0  0  0  0  0  0  0  0
   66.0537   46.2636    7.1364 H   0  0  0  0  0  0  0  0  0  0  0  0
   67.1817   45.5359    8.0663 H   0  0  0  0  0  0  0  0  0  0  0  0
   65.7300   45.9302    8.7019 H   0  0  0  0  0  0  0  0  0  0  0  0
   73.4208   48.8657    8.5537 H   0  0  0  0  0  0  0  0  0  0  0  0
   66.1261   49.6627   10.5186 H   0  0  0  0  0  0  0  0  0  0  0  0
   67.1328   49.8526   11.7903 H   0  0  0  0  0  0  0  0  0  0  0  0
   64.2447   53.6725   12.5954 H   0  0  0  0  0  0  0  0  0  0  0  0
   75.1479   45.6447    5.6017 H   0  0  0  0  0  0  0  0  0  0  0  0
   69.3515   51.5809    9.8360 H   0  0  0  0  0  0  0  0  0  0  0  0
   68.3113   51.9490    8.6322 H   0  0  0  0  0  0  0  0  0  0  0  0
   65.1061   55.7251   11.6122 H   0  0  0  0  0  0  0  0  0  0  0  0
   65.2856   51.5470   12.0268 H   0  0  0  0  0  0  0  0  0  0  0  0
   73.8845   45.0461    3.6276 H   0  0  0  0  0  0  0  0  0  0  0  0
   74.1936   47.0864    7.2765 H   0  0  0  0  0  0  0  0  0  0  0  0
   69.6930   48.1547    6.7870 H   0  0  0  0  0  0  0  0  0  0  0  0
   70.6976   47.3561    5.0347 H   0  0  0  0  0  0  0  0  0  0  0  0
   68.8760   48.9365   10.7147 H   0  0  0  0  0  0  0  0  0  0  0  0
  1 12  1  0  0  0  0
  1 27  1  0  0  0  0
  2 24  2  0  0  0  0
  3 10  1  0  0  0  0
  3 26  1  0  0  0  0
  4 13  3  0  0  0  0
  5 25  1  0  0  0  0
  6 26  2  0  0  0  0
  6 28  1  0  0  0  0
  7 25  2  0  0  0  0
  7 33  1  0  0  0  0
  8 14  1  0  0  0  0
  8 17  1  0  0  0  0
  8 28  1  0  0  0  0
  9 11  1  0  0  0  0
  9 24  1  0  0  0  0
  9 25  1  0  0  0  0
 12 30  2  0  0  0  0
 13 29  1  0  0  0  0
 14 32  1  0  0  0  0
 15 18  2  0  0  0  0
 15 19  1  0  0  0  0
 16 20  1  0  0  0  0
 16 21  2  0  0  0  0
 17 33  1  0  0  0  0
 18 26  1  0  0  0  0
 19 28  2  0  0  0  0
 20 29  2  0  0  0  0
 21 31  1  0  0  0  0
 22 27  2  0  0  0  0
 22 30  1  0  0  0  0
 23 29  1  0  0  0  0
 23 31  2  0  0  0  0
 24 32  1  0  0  0  0
 27 33  1  0  0  0  0
 30 31  1  0  0  0  0
 32 33  1  0  0  0  0
  5 34  1  0  0  0  0
  5 35  1  0  0  0  0
 10 36  1  0  0  0  0
 10 37  1  0  0  0  0
 10 38  1  0  0  0  0
 11 39  1  0  0  0  0
 11 40  1  0  0  0  0
 11 41  1  0  0  0  0
 12 42  1  0  0  0  0
 14 43  1  0  0  0  0
 14 44  1  0  0  0  0
 15 45  1  0  0  0  0
 16 46  1  0  0  0  0
 17 47  1  0  0  0  0
 17 48  1  0  0  0  0
 18 49  1  0  0  0  0
 19 50  1  0  0  0  0
 20 51  1  0  0  0  0
 21 52  1  0  0  0  0
 22 53  1  0  0  0  0
 23 54  1  0  0  0  0
 32 55  1  0  0  0  0
M  END
> <pdb_id>
4H3F

> <uniprot_id>
P56817

> <usmiles>
S1C(=CC(c2cc(C#N)ccc2)=C1)[C@@]34N=C(N(C(=O)[C@@H]3CN(c5nc(OC)ccc5)C4)C)N

$$$$
10Q_B_503
          07202405583D 1   1.00000     0.00000     0
            
 52 56  0  0  0  0            999 V2000
   70.8019   49.9614    9.2582 S   0  0  0  0  0  0  0  0  0  0  0  0
   67.5372   46.0771   10.2076 O   0  0  0  0  0  0  0  0  0  0  0  0
   70.4540   45.3506    2.1848 N   0  0  0  0  0  0  0  0  0  0  0  0
   68.5088   54.0751   10.4823 N   0  0  0  0  0  0  0  0  0  0  0  0
   65.6379   48.1263    6.4356 N   0  0  0  0  0  0  0  0  0  0  0  0
   64.7296   51.1416   11.5454 N   0  0  0  0  0  0  0  0  0  0  0  0
   67.0451   49.3580    7.8474 N   0  0  0  0  0  0  0  0  0  0  0  0
   66.6325   47.0554    8.3143 N   0  0  0  0  0  0  0  0  0  0  0  0
   66.7644   50.6094   10.5671 N   0  0  0  0  0  0  0  0  0  0  0  0
   66.1381   45.7327    7.8240 C   0  0  0  0  0  0  0  0  0  0  0  0
   71.9456   49.1983    8.2360 C   0  0  0  0  0  0  0  0  0  0  0  0
   71.1089   45.7352    3.0588 C   0  0  0  0  0  0  0  0  0  0  0  0
   67.4973   53.6333   10.8240 C   0  0  0  0  0  0  0  0  0  0  0  0
   63.8091   51.9969   12.0673 C   0  0  0  0  0  0  0  0  0  0  0  0
   66.6317   49.1905   10.9453 C   0  0  0  0  0  0  0  0  0  0  0  0
   67.8035   50.8329    9.5642 C   0  0  0  0  0  0  0  0  0  0  0  0
   64.0476   53.3696   12.2184 C   0  0  0  0  0  0  0  0  0  0  0  0
   74.0127   46.4282    5.3335 C   0  0  0  0  0  0  0  0  0  0  0  0
   73.2728   45.9231    4.2364 C   0  0  0  0  0  0  0  0  0  0  0  0
   65.2869   53.8798   11.7929 C   0  0  0  0  0  0  0  0  0  0  0  0
   73.3756   47.2209    6.3233 C   0  0  0  0  0  0  0  0  0  0  0  0
   69.8969   48.3865    7.4525 C   0  0  0  0  0  0  0  0  0  0  0  0
   71.2645   47.0181    5.1437 C   0  0  0  0  0  0  0  0  0  0  0  0
   66.4257   48.1843    7.5195 C   0  0  0  0  0  0  0  0  0  0  0  0
   67.2842   47.0857    9.5507 C   0  0  0  0  0  0  0  0  0  0  0  0
   69.4485   49.2484    8.5253 C   0  0  0  0  0  0  0  0  0  0  0  0
   65.9450   51.6056   11.1022 C   0  0  0  0  0  0  0  0  0  0  0  0
   71.8920   46.2266    4.1537 C   0  0  0  0  0  0  0  0  0  0  0  0
   66.2519   53.0175   11.2302 C   0  0  0  0  0  0  0  0  0  0  0  0
   71.3045   48.3639    7.2937 C   0  0  0  0  0  0  0  0  0  0  0  0
   71.9904   47.5309    6.2441 C   0  0  0  0  0  0  0  0  0  0  0  0
   67.7077   48.4905   10.0844 C   0  0  1  0  0  0  0  0  0  0  0  0
   68.0123   49.4809    8.9502 C   0  0  2  0  0  0  0  0  0  0  0  0
   65.1835   47.2692    6.1931 H   0  0  0  0  0  0  0  0  0  0  0  0
   65.5051   48.9401    5.8699 H   0  0  0  0  0  0  0  0  0  0  0  0
   66.3576   45.0250    8.4955 H   0  0  0  0  0  0  0  0  0  0  0  0
   65.1473   45.7741    7.6950 H   0  0  0  0  0  0  0  0  0  0  0  0
   66.5787   45.5141    6.9533 H   0  0  0  0  0  0  0  0  0  0  0  0
   72.9354   49.3265    8.2981 H   0  0  0  0  0  0  0  0  0  0  0  0
   62.9245   51.6304   12.3554 H   0  0  0  0  0  0  0  0  0  0  0  0
   65.7186   48.8457   10.7275 H   0  0  0  0  0  0  0  0  0  0  0  0
   66.8131   49.0612   11.9201 H   0  0  0  0  0  0  0  0  0  0  0  0
   68.6451   51.1629    9.9918 H   0  0  0  0  0  0  0  0  0  0  0  0
   67.4982   51.4921    8.8769 H   0  0  0  0  0  0  0  0  0  0  0  0
   63.3550   53.9701   12.6181 H   0  0  0  0  0  0  0  0  0  0  0  0
   74.9888   46.2253    5.4109 H   0  0  0  0  0  0  0  0  0  0  0  0
   73.7158   45.3642    3.5354 H   0  0  0  0  0  0  0  0  0  0  0  0
   65.4848   54.8553   11.8892 H   0  0  0  0  0  0  0  0  0  0  0  0
   73.9121   47.5687    7.0922 H   0  0  0  0  0  0  0  0  0  0  0  0
   69.2725   47.8573    6.8780 H   0  0  0  0  0  0  0  0  0  0  0  0
   70.2882   47.2191    5.0642 H   0  0  0  0  0  0  0  0  0  0  0  0
   68.5331   48.3818   10.6383 H   0  0  0  0  0  0  0  0  0  0  0  0
  1 11  1  0  0  0  0
  1 26  1  0  0  0  0
  2 25  2  0  0  0  0
  3 12  3  0  0  0  0
  4 13  3  0  0  0  0
  5 24  1  0  0  0  0
  6 14  1  0  0  0  0
  6 27  2  0  0  0  0
  7 24  2  0  0  0  0
  7 33  1  0  0  0  0
  8 10  1  0  0  0  0
  8 24  1  0  0  0  0
  8 25  1  0  0  0  0
  9 15  1  0  0  0  0
  9 16  1  0  0  0  0
  9 27  1  0  0  0  0
 11 30  2  0  0  0  0
 12 28  1  0  0  0  0
 13 29  1  0  0  0  0
 14 17  2  0  0  0  0
 15 32  1  0  0  0  0
 16 33  1  0  0  0  0
 17 20  1  0  0  0  0
 18 19  1  0  0  0  0
 18 21  2  0  0  0  0
 19 28  2  0  0  0  0
 20 29  2  0  0  0  0
 21 31  1  0  0  0  0
 22 26  2  0  0  0  0
 22 30  1  0  0  0  0
 23 28  1  0  0  0  0
 23 31  2  0  0  0  0
 25 32  1  0  0  0  0
 26 33  1  0  0  0  0
 27 29  1  0  0  0  0
 30 31  1  0  0  0  0
 32 33  1  0  0  0  0
  5 34  1  0  0  0  0
  5 35  1  0  0  0  0
 10 36  1  0  0  0  0
 10 37  1  0  0  0  0
 10 38  1  0  0  0  0
 11 39  1  0  0  0  0
 14 40  1  0  0  0  0
 15 41  1  0  0  0  0
 15 42  1  0  0  0  0
 16 43  1  0  0  0  0
 16 44  1  0  0  0  0
 17 45  1  0  0  0  0
 18 46  1  0  0  0  0
 19 47  1  0  0  0  0
 20 48  1  0  0  0  0
 21 49  1  0  0  0  0
 22 50  1  0  0  0  0
 23 51  1  0  0  0  0
 32 52  1  0  0  0  0
M  END
> <pdb_id>
4H3G

> <uniprot_id>
P56817

> <usmiles>
S1C(=CC(c2cc(C#N)ccc2)=C1)[C@@]34N=C(N(C(=O)[C@@H]3CN(c5ncccc5C#N)C4)C)N

$$$$
10U_A_501
          07192419343D 1   1.00000     0.00000     0
            
 56 58  0  0  0  0            999 V2000
   44.4760   24.6843   50.4439 O   0  0  0  0  0  0  0  0  0  0  0  0
   42.6206   24.3460   53.0700 O   0  0  0  0  0  0  0  0  0  0  0  0
   47.6940   18.4421   54.0084 N   0  0  0  0  0  0  0  0  0  0  0  0
   46.2832   16.9333   52.9606 N   0  0  0  0  0  0  0  0  0  0  0  0
   43.8120   22.8440   49.6117 N   0  0  0  0  0  0  0  0  0  0  0  0
   41.2394   25.9465   54.7924 N   0  0  0  0  0  0  0  0  0  0  0  0
   41.9261   25.5381   51.2811 N   0  0  0  0  0  0  0  0  0  0  0  0
   41.6092   26.4526   53.5019 C   0  0  0  0  0  0  0  0  0  0  0  0
   45.0759   22.2779   49.3510 C   0  0  0  0  0  0  0  0  0  0  0  0
   41.5038   26.8222   50.6728 C   0  0  0  0  0  0  0  0  0  0  0  0
   41.5671   26.6507   49.1593 C   0  0  0  0  0  0  0  0  0  0  0  0
   38.0737   24.4177   56.0075 C   0  0  0  0  0  0  0  0  0  0  0  0
   37.6667   24.7149   54.5551 C   0  0  0  0  0  0  0  0  0  0  0  0
   39.5874   24.6924   56.0293 C   0  0  0  0  0  0  0  0  0  0  0  0
   38.7158   25.7059   53.9603 C   0  0  0  0  0  0  0  0  0  0  0  0
   41.5999   25.1452   49.0525 C   0  0  0  0  0  0  0  0  0  0  0  0
   45.8100   21.5328   51.6161 C   0  0  0  0  0  0  0  0  0  0  0  0
   45.6309   19.9404   49.8684 C   0  0  0  0  0  0  0  0  0  0  0  0
   46.2214   20.5277   52.4868 C   0  0  0  0  0  0  0  0  0  0  0  0
   46.0451   18.9346   50.7520 C   0  0  0  0  0  0  0  0  0  0  0  0
   46.7988   18.1532   53.0640 C   0  0  0  0  0  0  0  0  0  0  0  0
   43.5173   24.0003   50.1226 C   0  0  0  0  0  0  0  0  0  0  0  0
   42.0955   25.3607   52.6030 C   0  0  0  0  0  0  0  0  0  0  0  0
   39.8125   25.8922   55.0804 C   0  0  0  0  0  0  0  0  0  0  0  0
   42.1218   24.4736   50.3149 C   0  0  1  0  0  0  0  0  0  0  0  0
   45.5161   21.2634   50.3255 C   0  0  0  0  0  0  0  0  0  0  0  0
   46.3515   19.2108   52.0896 C   0  0  0  0  0  0  0  0  0  0  0  0
   48.0726   19.3654   54.0728 H   0  0  0  0  0  0  0  0  0  0  0  0
   47.9870   17.7355   54.6525 H   0  0  0  0  0  0  0  0  0  0  0  0
   45.6126   16.7328   52.2464 H   0  0  0  0  0  0  0  0  0  0  0  0
   43.0288   22.2721   49.3677 H   0  0  0  0  0  0  0  0  0  0  0  0
   41.6674   26.5300   55.4826 H   0  0  0  0  0  0  0  0  0  0  0  0
   42.3371   27.1290   53.6146 H   0  0  0  0  0  0  0  0  0  0  0  0
   40.8121   26.8875   53.0829 H   0  0  0  0  0  0  0  0  0  0  0  0
   45.7510   23.0156   49.3446 H   0  0  0  0  0  0  0  0  0  0  0  0
   45.0433   21.8480   48.4487 H   0  0  0  0  0  0  0  0  0  0  0  0
   42.1199   27.5557   50.9600 H   0  0  0  0  0  0  0  0  0  0  0  0
   40.5696   27.0426   50.9533 H   0  0  0  0  0  0  0  0  0  0  0  0
   42.3918   27.0658   48.7751 H   0  0  0  0  0  0  0  0  0  0  0  0
   40.7604   27.0349   48.7104 H   0  0  0  0  0  0  0  0  0  0  0  0
   37.8812   23.4652   56.2434 H   0  0  0  0  0  0  0  0  0  0  0  0
   37.5930   25.0221   56.6428 H   0  0  0  0  0  0  0  0  0  0  0  0
   36.7570   25.1296   54.5346 H   0  0  0  0  0  0  0  0  0  0  0  0
   37.6590   23.8679   54.0236 H   0  0  0  0  0  0  0  0  0  0  0  0
   40.0911   23.8921   55.7041 H   0  0  0  0  0  0  0  0  0  0  0  0
   39.8864   24.9205   56.9559 H   0  0  0  0  0  0  0  0  0  0  0  0
   38.2847   26.5822   53.7455 H   0  0  0  0  0  0  0  0  0  0  0  0
   39.1253   25.3239   53.1318 H   0  0  0  0  0  0  0  0  0  0  0  0
   42.1928   24.8922   48.2880 H   0  0  0  0  0  0  0  0  0  0  0  0
   40.6716   24.8174   48.8770 H   0  0  0  0  0  0  0  0  0  0  0  0
   45.7307   22.4713   51.9522 H   0  0  0  0  0  0  0  0  0  0  0  0
   45.4182   19.7173   48.9171 H   0  0  0  0  0  0  0  0  0  0  0  0
   46.4305   20.7676   53.4348 H   0  0  0  0  0  0  0  0  0  0  0  0
   46.1238   17.9952   50.4183 H   0  0  0  0  0  0  0  0  0  0  0  0
   39.5801   26.7213   55.5890 H   0  0  0  0  0  0  0  0  0  0  0  0
   41.5349   23.6982   50.5482 H   0  0  0  0  0  0  0  0  0  0  0  0
  1 22  2  0  0  0  0
  2 23  2  0  0  0  0
  3 21  1  0  0  0  0
  4 21  2  0  0  0  0
  5  9  1  0  0  0  0
  5 22  1  0  0  0  0
  6  8  1  0  0  0  0
  6 24  1  0  0  0  0
  7 10  1  0  0  0  0
  7 23  1  0  0  0  0
  7 25  1  0  0  0  0
  8 23  1  0  0  0  0
  9 26  1  0  0  0  0
 10 11  1  0  0  0  0
 11 16  1  0  0  0  0
 12 13  1  0  0  0  0
 12 14  1  0  0  0  0
 13 15  1  0  0  0  0
 14 24  1  0  0  0  0
 15 24  1  0  0  0  0
 16 25  1  0  0  0  0
 17 19  1  0  0  0  0
 17 26  2  0  0  0  0
 18 20  2  0  0  0  0
 18 26  1  0  0  0  0
 19 27  2  0  0  0  0
 20 27  1  0  0  0  0
 21 27  1  0  0  0  0
 22 25  1  0  0  0  0
  3 28  1  0  0  0  0
  3 29  1  0  0  0  0
  4 30  1  0  0  0  0
  5 31  1  0  0  0  0
  6 32  1  0  0  0  0
  8 33  1  0  0  0  0
  8 34  1  0  0  0  0
  9 35  1  0  0  0  0
  9 36  1  0  0  0  0
 10 37  1  0  0  0  0
 10 38  1  0  0  0  0
 11 39  1  0  0  0  0
 11 40  1  0  0  0  0
 12 41  1  0  0  0  0
 12 42  1  0  0  0  0
 13 43  1  0  0  0  0
 13 44  1  0  0  0  0
 14 45  1  0  0  0  0
 14 46  1  0  0  0  0
 15 47  1  0  0  0  0
 15 48  1  0  0  0  0
 16 49  1  0  0  0  0
 16 50  1  0  0  0  0
 17 51  1  0  0  0  0
 18 52  1  0  0  0  0
 19 53  1  0  0  0  0
 20 54  1  0  0  0  0
 24 55  1  0  0  0  0
 25 56  1  0  0  0  0
M  END
> <pdb_id>
2ZFT

> <uniprot_id>
P00760

> <usmiles>
O=C(N1[C@H](C(=O)NCc2ccc(cc2)C(=N)N)CCC1)CNC3CCCC3

$$$$
10W_B_503
          07202405583D 1   1.00000     0.00000     0
            
 52 56  0  0  0  0            999 V2000
   69.7606   48.9101    7.3209 S   0  0  0  0  0  0  0  0  0  0  0  0
   74.7951   45.8850    4.2099 F   0  0  0  0  0  0  0  0  0  0  0  0
   67.3820   46.8712   10.6237 O   0  0  0  0  0  0  0  0  0  0  0  0
   71.4705   45.6339    2.6599 N   0  0  0  0  0  0  0  0  0  0  0  0
   65.9029   48.5342    6.5579 N   0  0  0  0  0  0  0  0  0  0  0  0
   67.0606   49.9551    7.9849 N   0  0  0  0  0  0  0  0  0  0  0  0
   66.6876   51.3423   10.6322 N   0  0  0  0  0  0  0  0  0  0  0  0
   66.7330   47.6562    8.5601 N   0  0  0  0  0  0  0  0  0  0  0  0
   66.3967   46.2649    8.1659 C   0  0  0  0  0  0  0  0  0  0  0  0
   71.9969   46.1182    3.5703 C   0  0  0  0  0  0  0  0  0  0  0  0
   66.4415   49.9354   10.9522 C   0  0  0  0  0  0  0  0  0  0  0  0
   64.4012   54.4847   12.3334 C   0  0  0  0  0  0  0  0  0  0  0  0
   65.4981   54.7840   11.4990 C   0  0  0  0  0  0  0  0  0  0  0  0
   64.0626   53.1441   12.6009 C   0  0  0  0  0  0  0  0  0  0  0  0
   67.7728   51.5733    9.6704 C   0  0  0  0  0  0  0  0  0  0  0  0
   71.7539   49.5971    8.7497 C   0  0  0  0  0  0  0  0  0  0  0  0
   70.6206   50.1325    9.3793 C   0  0  0  0  0  0  0  0  0  0  0  0
   66.2673   53.7407   10.9264 C   0  0  0  0  0  0  0  0  0  0  0  0
   64.8233   52.1003   12.0394 C   0  0  0  0  0  0  0  0  0  0  0  0
   74.5610   47.2209    6.1249 C   0  0  0  0  0  0  0  0  0  0  0  0
   73.7313   47.9874    6.9798 C   0  0  0  0  0  0  0  0  0  0  0  0
   71.8176   47.5003    5.5708 C   0  0  0  0  0  0  0  0  0  0  0  0
   71.4461   48.8764    7.5612 C   0  0  0  0  0  0  0  0  0  0  0  0
   66.5523   48.7097    7.6854 C   0  0  0  0  0  0  0  0  0  0  0  0
   69.3822   49.8215    8.6949 C   0  0  0  0  0  0  0  0  0  0  0  0
   73.9939   46.5968    4.9910 C   0  0  0  0  0  0  0  0  0  0  0  0
   67.2340   47.8061    9.8448 C   0  0  0  0  0  0  0  0  0  0  0  0
   65.9394   52.3756   11.1893 C   0  0  0  0  0  0  0  0  0  0  0  0
   72.6193   46.7327    4.7082 C   0  0  0  0  0  0  0  0  0  0  0  0
   72.3593   48.1420    6.6887 C   0  0  0  0  0  0  0  0  0  0  0  0
   67.6008   49.2485   10.2723 C   0  0  1  0  0  0  0  0  0  0  0  0
   67.9986   50.1914    9.0814 C   0  0  2  0  0  0  0  0  0  0  0  0
   65.5299   47.6347    6.3304 H   0  0  0  0  0  0  0  0  0  0  0  0
   65.7813   49.3001    5.9265 H   0  0  0  0  0  0  0  0  0  0  0  0
   66.5943   45.6460    8.9261 H   0  0  0  0  0  0  0  0  0  0  0  0
   65.4254   46.2094    7.9347 H   0  0  0  0  0  0  0  0  0  0  0  0
   66.9440   46.0021    7.3713 H   0  0  0  0  0  0  0  0  0  0  0  0
   65.5669   49.6259   10.5791 H   0  0  0  0  0  0  0  0  0  0  0  0
   66.4562   49.7799   11.9400 H   0  0  0  0  0  0  0  0  0  0  0  0
   63.8631   55.2254   12.7356 H   0  0  0  0  0  0  0  0  0  0  0  0
   65.7342   55.7373   11.3105 H   0  0  0  0  0  0  0  0  0  0  0  0
   63.2821   52.9334   13.1895 H   0  0  0  0  0  0  0  0  0  0  0  0
   68.5958   51.9084   10.1291 H   0  0  0  0  0  0  0  0  0  0  0  0
   67.4960   52.2252    8.9644 H   0  0  0  0  0  0  0  0  0  0  0  0
   72.6837   49.7101    9.1001 H   0  0  0  0  0  0  0  0  0  0  0  0
   70.6633   50.6755   10.2180 H   0  0  0  0  0  0  0  0  0  0  0  0
   67.0434   53.9611   10.3356 H   0  0  0  0  0  0  0  0  0  0  0  0
   64.5788   51.1513   12.2385 H   0  0  0  0  0  0  0  0  0  0  0  0
   75.5365   47.1226    6.3216 H   0  0  0  0  0  0  0  0  0  0  0  0
   74.1196   48.4208    7.7931 H   0  0  0  0  0  0  0  0  0  0  0  0
   70.8398   47.5893    5.3811 H   0  0  0  0  0  0  0  0  0  0  0  0
   68.3665   49.2056   10.9141 H   0  0  0  0  0  0  0  0  0  0  0  0
  1 23  1  0  0  0  0
  1 25  1  0  0  0  0
  2 26  1  0  0  0  0
  3 27  2  0  0  0  0
  4 10  3  0  0  0  0
  5 24  1  0  0  0  0
  6 24  2  0  0  0  0
  6 32  1  0  0  0  0
  7 11  1  0  0  0  0
  7 15  1  0  0  0  0
  7 28  1  0  0  0  0
  8  9  1  0  0  0  0
  8 24  1  0  0  0  0
  8 27  1  0  0  0  0
 10 29  1  0  0  0  0
 11 31  1  0  0  0  0
 12 13  2  0  0  0  0
 12 14  1  0  0  0  0
 13 18  1  0  0  0  0
 14 19  2  0  0  0  0
 15 32  1  0  0  0  0
 16 17  1  0  0  0  0
 16 23  2  0  0  0  0
 17 25  2  0  0  0  0
 18 28  2  0  0  0  0
 19 28  1  0  0  0  0
 20 21  1  0  0  0  0
 20 26  2  0  0  0  0
 21 30  2  0  0  0  0
 22 29  2  0  0  0  0
 22 30  1  0  0  0  0
 23 30  1  0  0  0  0
 25 32  1  0  0  0  0
 26 29  1  0  0  0  0
 27 31  1  0  0  0  0
 31 32  1  0  0  0  0
  5 33  1  0  0  0  0
  5 34  1  0  0  0  0
  9 35  1  0  0  0  0
  9 36  1  0  0  0  0
  9 37  1  0  0  0  0
 11 38  1  0  0  0  0
 11 39  1  0  0  0  0
 12 40  1  0  0  0  0
 13 41  1  0  0  0  0
 14 42  1  0  0  0  0
 15 43  1  0  0  0  0
 15 44  1  0  0  0  0
 16 45  1  0  0  0  0
 17 46  1  0  0  0  0
 18 47  1  0  0  0  0
 19 48  1  0  0  0  0
 20 49  1  0  0  0  0
 21 50  1  0  0  0  0
 22 51  1  0  0  0  0
 31 52  1  0  0  0  0
M  END
> <pdb_id>
4H3J

> <uniprot_id>
P56817

> <usmiles>
S1C(c2cc(C#N)c(F)cc2)=CC=C1[C@@]34N=C(N(C(=O)[C@@H]3CN(c5ccccc5)C4)C)N

$$$$
11G_A_401
          07202415543D 1   1.00000     0.00000     0
            
 39 41  0  0  0  0            999 V2000
   13.7894    4.4428   10.3494 O   0  0  0  0  0  0  0  0  0  0  0  0
    7.8726    4.6211    9.8263 N   0  0  0  0  0  0  0  0  0  0  0  0
    8.8273    6.7054   10.3791 N   0  0  0  0  0  0  0  0  0  0  0  0
   11.5066    4.1352   10.0896 N   0  0  0  0  0  0  0  0  0  0  0  0
   11.2049    6.9725   10.6578 N   0  0  0  0  0  0  0  0  0  0  0  0
   11.6873    2.7043    9.7926 C   0  0  0  0  0  0  0  0  0  0  0  0
   12.4405    6.6667    7.9974 C   0  0  0  0  0  0  0  0  0  0  0  0
    7.7641    5.9335   10.1031 C   0  0  0  0  0  0  0  0  0  0  0  0
    9.0581    3.9966    9.8132 C   0  0  0  0  0  0  0  0  0  0  0  0
   13.1998    6.9634    9.3043 C   0  0  0  0  0  0  0  0  0  0  0  0
   11.1166   10.7637   10.5685 C   0  0  0  0  0  0  0  0  0  0  0  0
   12.0115   10.4860   11.7845 C   0  0  0  0  0  0  0  0  0  0  0  0
   10.8537    9.4217    9.8798 C   0  0  0  0  0  0  0  0  0  0  0  0
   12.0927    8.9675   11.9237 C   0  0  0  0  0  0  0  0  0  0  0  0
   12.6406    4.9395   10.3645 C   0  0  0  0  0  0  0  0  0  0  0  0
   10.0728    6.1742   10.3871 C   0  0  0  0  0  0  0  0  0  0  0  0
   11.0071    8.4100   10.9985 C   0  0  0  0  0  0  0  0  0  0  0  0
   10.2189    4.7262   10.0771 C   0  0  0  0  0  0  0  0  0  0  0  0
   12.5553    6.3954   10.5958 C   0  0  2  0  0  0  0  0  0  0  0  0
   10.7960    2.2839    9.6229 H   0  0  0  0  0  0  0  0  0  0  0  0
   12.2638    2.6024    8.9819 H   0  0  0  0  0  0  0  0  0  0  0  0
   12.1249    2.2549   10.5714 H   0  0  0  0  0  0  0  0  0  0  0  0
   12.9324    7.0719    7.2267 H   0  0  0  0  0  0  0  0  0  0  0  0
   12.3745    5.6773    7.8675 H   0  0  0  0  0  0  0  0  0  0  0  0
   11.5218    7.0581    8.0493 H   0  0  0  0  0  0  0  0  0  0  0  0
    6.8552    6.3505   10.1032 H   0  0  0  0  0  0  0  0  0  0  0  0
    9.1110    3.0176    9.6163 H   0  0  0  0  0  0  0  0  0  0  0  0
   13.2651    7.9563    9.4038 H   0  0  0  0  0  0  0  0  0  0  0  0
   14.1178    6.5756    9.2220 H   0  0  0  0  0  0  0  0  0  0  0  0
   11.5797   11.3868    9.9381 H   0  0  0  0  0  0  0  0  0  0  0  0
   10.2528   11.1709   10.8653 H   0  0  0  0  0  0  0  0  0  0  0  0
   11.6104   10.8876   12.6078 H   0  0  0  0  0  0  0  0  0  0  0  0
   12.9235   10.8688   11.6371 H   0  0  0  0  0  0  0  0  0  0  0  0
   11.5217    9.2559    9.1544 H   0  0  0  0  0  0  0  0  0  0  0  0
    9.9307    9.3923    9.4960 H   0  0  0  0  0  0  0  0  0  0  0  0
   11.9191    8.6940   12.8698 H   0  0  0  0  0  0  0  0  0  0  0  0
   12.9941    8.6388   11.6417 H   0  0  0  0  0  0  0  0  0  0  0  0
   10.1559    8.4512   11.5217 H   0  0  0  0  0  0  0  0  0  0  0  0
   13.0882    6.6568   11.4007 H   0  0  0  0  0  0  0  0  0  0  0  0
  1 15  2  0  0  0  0
  2  8  2  0  0  0  0
  2  9  1  0  0  0  0
  3  8  1  0  0  0  0
  3 16  2  0  0  0  0
  4  6  1  0  0  0  0
  4 15  1  0  0  0  0
  4 18  1  0  0  0  0
  5 16  1  0  0  0  0
  5 17  1  0  0  0  0
  5 19  1  0  0  0  0
  7 10  1  0  0  0  0
  9 18  2  0  0  0  0
 10 19  1  0  0  0  0
 11 12  1  0  0  0  0
 11 13  1  0  0  0  0
 12 14  1  0  0  0  0
 13 17  1  0  0  0  0
 14 17  1  0  0  0  0
 15 19  1  0  0  0  0
 16 18  1  0  0  0  0
  6 20  1  0  0  0  0
  6 21  1  0  0  0  0
  6 22  1  0  0  0  0
  7 23  1  0  0  0  0
  7 24  1  0  0  0  0
  7 25  1  0  0  0  0
  8 26  1  0  0  0  0
  9 27  1  0  0  0  0
 10 28  1  0  0  0  0
 10 29  1  0  0  0  0
 11 30  1  0  0  0  0
 11 31  1  0  0  0  0
 12 32  1  0  0  0  0
 12 33  1  0  0  0  0
 13 34  1  0  0  0  0
 13 35  1  0  0  0  0
 14 36  1  0  0  0  0
 14 37  1  0  0  0  0
 17 38  1  0  0  0  0
 19 39  1  0  0  0  0
M  END
> <pdb_id>
4I6B

> <uniprot_id>
Q9NYY3

> <usmiles>
O=C1N(c2c(ncnc2)N([C@@H]1CC)C3CCCC3)C

$$$$
122_A_246
          07192419343D 1   1.00000     0.00000     0
            
 32 34  0  0  0  0            999 V2000
   45.0666   24.3354   46.8313 O   0  0  0  0  0  0  0  0  0  0  0  0
   47.1996   18.6379   53.6256 N   0  0  0  0  0  0  0  0  0  0  0  0
   45.9933   17.0545   52.5111 N   0  3  0  0  0  0  0  0  0  0  0  0
   45.1601   22.1077   48.8814 N   0  0  0  0  0  0  0  0  0  0  0  0
   45.9096   22.7496   50.8629 N   0  0  0  0  0  0  0  0  0  0  0  0
   45.2465   27.3007   48.8221 C   0  0  0  0  0  0  0  0  0  0  0  0
   45.4615   26.8553   50.1169 C   0  0  0  0  0  0  0  0  0  0  0  0
   45.1072   26.4187   47.7544 C   0  0  0  0  0  0  0  0  0  0  0  0
   45.2343   19.7722   49.3386 C   0  0  0  0  0  0  0  0  0  0  0  0
   45.5432   25.5041   50.3732 C   0  0  0  0  0  0  0  0  0  0  0  0
   45.5833   18.8621   50.3508 C   0  0  0  0  0  0  0  0  0  0  0  0
   46.2132   20.6090   51.8907 C   0  0  0  0  0  0  0  0  0  0  0  0
   46.4300   18.2877   52.6161 C   0  0  0  0  0  0  0  0  0  0  0  0
   45.1916   25.0538   48.0005 C   0  0  0  0  0  0  0  0  0  0  0  0
   45.4878   23.1098   49.6895 C   0  0  0  0  0  0  0  0  0  0  0  0
   45.4015   21.0841   49.6799 C   0  0  0  0  0  0  0  0  0  0  0  0
   45.8744   21.4624   50.8833 C   0  0  0  0  0  0  0  0  0  0  0  0
   46.0718   19.2356   51.6449 C   0  0  0  0  0  0  0  0  0  0  0  0
   45.4095   24.5200   49.3381 C   0  0  0  0  0  0  0  0  0  0  0  0
   47.5465   19.5901   53.6774 H   0  0  0  0  0  0  0  0  0  0  0  0
   47.4908   18.0326   54.3617 H   0  0  0  0  0  0  0  0  0  0  0  0
   45.3855   16.8153   51.7532 H   0  0  0  0  0  0  0  0  0  0  0  0
   46.2112   16.3145   53.1368 H   0  0  0  0  0  0  0  0  0  0  0  0
   46.1837   23.4077   51.5429 H   0  0  0  0  0  0  0  0  0  0  0  0
   45.1808   28.3454   48.6237 H   0  0  0  0  0  0  0  0  0  0  0  0
   45.5724   27.5561   50.9195 H   0  0  0  0  0  0  0  0  0  0  0  0
   44.9294   26.7431   46.7213 H   0  0  0  0  0  0  0  0  0  0  0  0
   44.8640   19.4652   48.3658 H   0  0  0  0  0  0  0  0  0  0  0  0
   45.7022   25.1767   51.3868 H   0  0  0  0  0  0  0  0  0  0  0  0
   45.4592   17.8256   50.1452 H   0  0  0  0  0  0  0  0  0  0  0  0
   46.5694   21.0399   52.8077 H   0  0  0  0  0  0  0  0  0  0  0  0
   45.1076   23.3364   46.8514 H   0  0  0  0  0  0  0  0  0  0  0  0
  1 14  1  0  0  0  0
  2 13  1  0  0  0  0
  2 20  1  0  0  0  0
  2 21  1  0  0  0  0
  3 13  2  0  0  0  0
  3 22  1  0  0  0  0
  3 23  1  0  0  0  0
  4 15  2  0  0  0  0
  4 16  1  0  0  0  0
  5 15  1  0  0  0  0
  5 17  1  0  0  0  0
  5 24  1  0  0  0  0
  6  7  2  0  0  0  0
  6  8  1  0  0  0  0
  6 25  1  0  0  0  0
  7 10  1  0  0  0  0
  7 26  1  0  0  0  0
  8 14  2  0  0  0  0
  8 27  1  0  0  0  0
  9 11  1  0  0  0  0
  9 16  2  0  0  0  0
  9 28  1  0  0  0  0
 10 19  2  0  0  0  0
 10 29  1  0  0  0  0
 11 18  2  0  0  0  0
 11 30  1  0  0  0  0
 12 17  2  0  0  0  0
 12 18  1  0  0  0  0
 12 31  1  0  0  0  0
 13 18  1  0  0  0  0
 14 19  1  0  0  0  0
 15 19  1  0  0  0  0
 16 17  1  0  0  0  0
  1 32  1  0  0  0  0
M  CHG  1   3   1
M  END
> <pdb_id>
1GI4

> <uniprot_id>
P00760

> <usmiles>
Oc1c(cccc1)C2=Nc3c(N2)cc(cc3)C(=[NH2+])N

$$$$
123_B_246
          07202413303D 1   1.00000     0.00000     0
            
 36 38  0  0  0  0            999 V2000
  -25.1680  -13.9673   -5.7640 O   0  0  0  0  0  0  0  0  0  0  0  0
  -23.1296  -12.6887   -0.7443 O   0  0  0  0  0  0  0  0  0  0  0  0
  -30.6617  -19.1887   -1.8454 N   0  0  0  0  0  0  0  0  0  0  0  0
  -31.4419  -19.6003   -3.9237 N   0  3  0  0  0  0  0  0  0  0  0  0
  -26.9902  -15.8222   -2.5756 N   0  0  0  0  0  0  0  0  0  0  0  0
  -26.5986  -15.7114   -4.7335 N   0  0  0  0  0  0  0  0  0  0  0  0
  -23.3089  -13.5581    0.3657 C   0  0  0  0  0  0  0  0  0  0  0  0
  -23.6821  -12.7458   -4.3703 C   0  0  0  0  0  0  0  0  0  0  0  0
  -23.1815  -12.4254   -3.1193 C   0  0  0  0  0  0  0  0  0  0  0  0
  -28.2841  -17.2709   -5.5151 C   0  0  0  0  0  0  0  0  0  0  0  0
  -29.2930  -18.0929   -5.0167 C   0  0  0  0  0  0  0  0  0  0  0  0
  -24.7089  -13.9891   -2.1165 C   0  0  0  0  0  0  0  0  0  0  0  0
  -28.7820  -17.4076   -2.7583 C   0  0  0  0  0  0  0  0  0  0  0  0
  -30.5783  -19.0093   -3.1351 C   0  0  0  0  0  0  0  0  0  0  0  0
  -24.6956  -13.6849   -4.4987 C   0  0  0  0  0  0  0  0  0  0  0  0
  -23.6823  -13.0399   -1.9737 C   0  0  0  0  0  0  0  0  0  0  0  0
  -26.2583  -15.2770   -3.5475 C   0  0  0  0  0  0  0  0  0  0  0  0
  -27.7877  -16.5999   -3.2651 C   0  0  0  0  0  0  0  0  0  0  0  0
  -27.5657  -16.5399   -4.5959 C   0  0  0  0  0  0  0  0  0  0  0  0
  -29.5717  -18.1860   -3.6321 C   0  0  0  0  0  0  0  0  0  0  0  0
  -25.2371  -14.3358   -3.3772 C   0  0  0  0  0  0  0  0  0  0  0  0
  -30.0045  -18.7723   -1.2062 H   0  0  0  0  0  0  0  0  0  0  0  0
  -31.3516  -19.7925   -1.4378 H   0  0  0  0  0  0  0  0  0  0  0  0
  -31.4223  -19.4583   -4.9231 H   0  0  0  0  0  0  0  0  0  0  0  0
  -32.1457  -20.2071   -3.5476 H   0  0  0  0  0  0  0  0  0  0  0  0
  -26.1657  -15.4210   -5.5664 H   0  0  0  0  0  0  0  0  0  0  0  0
  -22.4324  -13.5158    0.9920 H   0  0  0  0  0  0  0  0  0  0  0  0
  -24.1858  -13.2477    0.9101 H   0  0  0  0  0  0  0  0  0  0  0  0
  -23.4539  -14.5691    0.0319 H   0  0  0  0  0  0  0  0  0  0  0  0
  -23.2801  -12.2643   -5.2492 H   0  0  0  0  0  0  0  0  0  0  0  0
  -22.3956  -11.6920   -3.0350 H   0  0  0  0  0  0  0  0  0  0  0  0
  -28.0756  -17.2025   -6.5733 H   0  0  0  0  0  0  0  0  0  0  0  0
  -29.8743  -18.6717   -5.7207 H   0  0  0  0  0  0  0  0  0  0  0  0
  -25.1069  -14.4715   -1.2367 H   0  0  0  0  0  0  0  0  0  0  0  0
  -28.9451  -17.4365   -1.6978 H   0  0  0  0  0  0  0  0  0  0  0  0
  -25.8978  -14.6397   -5.8867 H   0  0  0  0  0  0  0  0  0  0  0  0
  1 15  1  0  0  0  0
  2  7  1  0  0  0  0
  2 16  1  0  0  0  0
  3 14  1  0  0  0  0
  3 22  1  0  0  0  0
  3 23  1  0  0  0  0
  4 14  2  0  0  0  0
  4 24  1  0  0  0  0
  4 25  1  0  0  0  0
  5 17  2  0  0  0  0
  5 18  1  0  0  0  0
  6 17  1  0  0  0  0
  6 19  1  0  0  0  0
  6 26  1  0  0  0  0
  7 27  1  0  0  0  0
  7 28  1  0  0  0  0
  7 29  1  0  0  0  0
  8  9  1  0  0  0  0
  8 15  2  0  0  0  0
  8 30  1  0  0  0  0
  9 16  2  0  0  0  0
  9 31  1  0  0  0  0
 10 11  1  0  0  0  0
 10 19  2  0  0  0  0
 10 32  1  0  0  0  0
 11 20  2  0  0  0  0
 11 33  1  0  0  0  0
 12 16  1  0  0  0  0
 12 21  2  0  0  0  0
 12 34  1  0  0  0  0
 13 18  2  0  0  0  0
 13 20  1  0  0  0  0
 13 35  1  0  0  0  0
 14 20  1  0  0  0  0
 15 21  1  0  0  0  0
 17 21  1  0  0  0  0
 18 19  1  0  0  0  0
  1 36  1  0  0  0  0
M  CHG  1   4   1
M  END
> <pdb_id>
1GI9

> <uniprot_id>
P00749

> <usmiles>
O(c1cc(c(O)cc1)C2=Nc3c(N2)ccc(c3)C(=[NH2+])N)C

$$$$
124_A_246
          07192419343D 1   1.00000     0.00000     0
            
 33 35  0  0  0  0            999 V2000
   44.4594   23.1968   46.8675 O   0  0  0  0  0  0  0  0  0  0  0  0
   47.4183   18.6992   53.7505 N   0  0  0  0  0  0  0  0  0  0  0  0
   46.1759   17.0298   52.7442 N   0  3  0  0  0  0  0  0  0  0  0  0
   45.5826   21.7354   48.7085 N   0  0  0  0  0  0  0  0  0  0  0  0
   45.9990   26.5353   47.2368 C   0  0  0  0  0  0  0  0  0  0  0  0
   46.7648   26.3630   48.3837 C   0  0  0  0  0  0  0  0  0  0  0  0
   45.2280   25.4741   46.7271 C   0  0  0  0  0  0  0  0  0  0  0  0
   46.7579   25.1393   49.0267 C   0  0  0  0  0  0  0  0  0  0  0  0
   45.4579   19.4470   49.4810 C   0  0  0  0  0  0  0  0  0  0  0  0
   45.7524   18.6222   50.5517 C   0  0  0  0  0  0  0  0  0  0  0  0
   46.4881   22.6258   50.4668 C   0  0  0  0  0  0  0  0  0  0  0  0
   46.6320   20.5013   51.8003 C   0  0  0  0  0  0  0  0  0  0  0  0
   46.6503   18.2675   52.7694 C   0  0  0  0  0  0  0  0  0  0  0  0
   45.2236   24.2405   47.3767 C   0  0  0  0  0  0  0  0  0  0  0  0
   45.7578   20.7772   49.5857 C   0  0  0  0  0  0  0  0  0  0  0  0
   46.0177   22.8681   49.1978 C   0  0  0  0  0  0  0  0  0  0  0  0
   46.3439   19.1374   51.7223 C   0  0  0  0  0  0  0  0  0  0  0  0
   46.3206   21.2833   50.7038 C   0  0  0  0  0  0  0  0  0  0  0  0
   45.9996   24.0823   48.5277 C   0  0  0  0  0  0  0  0  0  0  0  0
   47.7694   19.6473   53.7089 H   0  0  0  0  0  0  0  0  0  0  0  0
   47.6836   18.1733   54.5531 H   0  0  0  0  0  0  0  0  0  0  0  0
   45.5730   16.7377   51.9870 H   0  0  0  0  0  0  0  0  0  0  0  0
   46.3766   16.3405   53.4392 H   0  0  0  0  0  0  0  0  0  0  0  0
   45.1635   21.6707   47.8193 H   0  0  0  0  0  0  0  0  0  0  0  0
   46.0243   27.4824   46.7165 H   0  0  0  0  0  0  0  0  0  0  0  0
   47.3704   27.1767   48.7605 H   0  0  0  0  0  0  0  0  0  0  0  0
   44.6515   25.6220   45.8199 H   0  0  0  0  0  0  0  0  0  0  0  0
   47.3524   25.0253   49.9207 H   0  0  0  0  0  0  0  0  0  0  0  0
   45.0140   19.0696   48.5787 H   0  0  0  0  0  0  0  0  0  0  0  0
   45.5387   17.5706   50.4484 H   0  0  0  0  0  0  0  0  0  0  0  0
   46.8772   23.3726   51.1419 H   0  0  0  0  0  0  0  0  0  0  0  0
   47.0755   20.9352   52.6714 H   0  0  0  0  0  0  0  0  0  0  0  0
   44.4529   22.3101   47.3298 H   0  0  0  0  0  0  0  0  0  0  0  0
  1 14  1  0  0  0  0
  2 13  1  0  0  0  0
  2 20  1  0  0  0  0
  2 21  1  0  0  0  0
  3 13  2  0  0  0  0
  3 22  1  0  0  0  0
  3 23  1  0  0  0  0
  4 15  1  0  0  0  0
  4 16  1  0  0  0  0
  4 24  1  0  0  0  0
  5  6  2  0  0  0  0
  5  7  1  0  0  0  0
  5 25  1  0  0  0  0
  6  8  1  0  0  0  0
  6 26  1  0  0  0  0
  7 14  2  0  0  0  0
  7 27  1  0  0  0  0
  8 19  2  0  0  0  0
  8 28  1  0  0  0  0
  9 10  1  0  0  0  0
  9 15  2  0  0  0  0
  9 29  1  0  0  0  0
 10 17  2  0  0  0  0
 10 30  1  0  0  0  0
 11 16  2  0  0  0  0
 11 18  1  0  0  0  0
 11 31  1  0  0  0  0
 12 17  1  0  0  0  0
 12 18  2  0  0  0  0
 12 32  1  0  0  0  0
 13 17  1  0  0  0  0
 14 19  1  0  0  0  0
 15 18  1  0  0  0  0
 16 19  1  0  0  0  0
  1 33  1  0  0  0  0
M  CHG  1   3   1
M  END
> <pdb_id>
1GI6

> <uniprot_id>
P00760

> <usmiles>
Oc1c(cccc1)C=2Nc3c(cc(cc3)C(=[NH2+])N)C2

$$$$
12Q_A_1501
          07212401323D 1   1.00000     0.00000     0
            
 21 22  0  0  0  0            999 V2000
  -19.2005   12.9916   25.5526 O   0  0  0  0  0  0  0  0  0  0  0  0
  -20.8939   13.3794   27.0145 N   0  0  0  0  0  0  0  0  0  0  0  0
  -19.9220   14.0474   27.9002 C   0  0  0  0  0  0  0  0  0  0  0  0
  -24.1811   13.7444   28.8117 C   0  0  0  0  0  0  0  0  0  0  0  0
  -25.0083   13.0857   27.8827 C   0  0  0  0  0  0  0  0  0  0  0  0
  -22.8253   13.8538   28.5317 C   0  0  0  0  0  0  0  0  0  0  0  0
  -24.4925   12.5260   26.6981 C   0  0  0  0  0  0  0  0  0  0  0  0
  -21.2714   12.1708   24.9031 C   0  0  0  0  0  0  0  0  0  0  0  0
  -22.5604   11.9875   25.2555 C   0  0  0  0  0  0  0  0  0  0  0  0
  -20.3932   12.8286   25.8288 C   0  0  0  0  0  0  0  0  0  0  0  0
  -22.2623   13.2816   27.3592 C   0  0  0  0  0  0  0  0  0  0  0  0
  -23.1044   12.5950   26.4360 C   0  0  0  0  0  0  0  0  0  0  0  0
  -20.3943   14.3982   28.7089 H   0  0  0  0  0  0  0  0  0  0  0  0
  -19.2217   13.3915   28.1815 H   0  0  0  0  0  0  0  0  0  0  0  0
  -19.4913   14.8056   27.4108 H   0  0  0  0  0  0  0  0  0  0  0  0
  -24.5612   14.1252   29.6546 H   0  0  0  0  0  0  0  0  0  0  0  0
  -25.9881   13.0134   28.0689 H   0  0  0  0  0  0  0  0  0  0  0  0
  -22.2323   14.3459   29.1691 H   0  0  0  0  0  0  0  0  0  0  0  0
  -25.1052   12.0815   26.0447 H   0  0  0  0  0  0  0  0  0  0  0  0
  -20.9347   11.8553   24.0159 H   0  0  0  0  0  0  0  0  0  0  0  0
  -23.1487   11.4167   24.6826 H   0  0  0  0  0  0  0  0  0  0  0  0
  1 10  2  0  0  0  0
  2  3  1  0  0  0  0
  2 10  1  0  0  0  0
  2 11  1  0  0  0  0
  4  5  2  0  0  0  0
  4  6  1  0  0  0  0
  5  7  1  0  0  0  0
  6 11  2  0  0  0  0
  7 12  2  0  0  0  0
  8  9  2  0  0  0  0
  8 10  1  0  0  0  0
  9 12  1  0  0  0  0
 11 12  1  0  0  0  0
  3 13  1  0  0  0  0
  3 14  1  0  0  0  0
  3 15  1  0  0  0  0
  4 16  1  0  0  0  0
  5 17  1  0  0  0  0
  6 18  1  0  0  0  0
  7 19  1  0  0  0  0
  8 20  1  0  0  0  0
  9 21  1  0  0  0  0
M  END
> <pdb_id>
5S8L

> <uniprot_id>
Q8WWQ0

> <usmiles>
O=C1N(c2c(cccc2)C=C1)C

$$$$
12Q_A_802
          07202409213D 1   1.00000     0.00000     0
            
 21 22  0  0  0  0            999 V2000
    6.7698  -13.0317    1.4501 O   0  0  0  0  0  0  0  0  0  0  0  0
    7.7912  -12.6067    3.4216 N   0  0  0  0  0  0  0  0  0  0  0  0
    8.9731  -13.3762    3.0538 C   0  0  0  0  0  0  0  0  0  0  0  0
    8.7107  -11.5395    6.8096 C   0  0  0  0  0  0  0  0  0  0  0  0
    7.5931  -10.8050    7.1588 C   0  0  0  0  0  0  0  0  0  0  0  0
    8.7869  -12.1500    5.5579 C   0  0  0  0  0  0  0  0  0  0  0  0
    6.5236  -10.6652    6.2891 C   0  0  0  0  0  0  0  0  0  0  0  0
    5.6295  -11.7584    2.9252 C   0  0  0  0  0  0  0  0  0  0  0  0
    5.5357  -11.1447    4.1567 C   0  0  0  0  0  0  0  0  0  0  0  0
    6.7676  -12.4931    2.5792 C   0  0  0  0  0  0  0  0  0  0  0  0
    7.7339  -12.0240    4.6653 C   0  0  0  0  0  0  0  0  0  0  0  0
    6.5955  -11.2813    5.0354 C   0  0  0  0  0  0  0  0  0  0  0  0
    9.6338  -13.3513    3.8041 H   0  0  0  0  0  0  0  0  0  0  0  0
    8.7106  -14.3239    2.8722 H   0  0  0  0  0  0  0  0  0  0  0  0
    9.3857  -12.9814    2.2329 H   0  0  0  0  0  0  0  0  0  0  0  0
    9.4673  -11.6336    7.4567 H   0  0  0  0  0  0  0  0  0  0  0  0
    7.5558  -10.3659    8.0564 H   0  0  0  0  0  0  0  0  0  0  0  0
    9.5985  -12.6768    5.3052 H   0  0  0  0  0  0  0  0  0  0  0  0
    5.7174  -10.1352    6.5521 H   0  0  0  0  0  0  0  0  0  0  0  0
    4.8758  -11.6770    2.2730 H   0  0  0  0  0  0  0  0  0  0  0  0
    4.7247  -10.6161    4.4074 H   0  0  0  0  0  0  0  0  0  0  0  0
  1 10  2  0  0  0  0
  2  3  1  0  0  0  0
  2 10  1  0  0  0  0
  2 11  1  0  0  0  0
  4  5  2  0  0  0  0
  4  6  1  0  0  0  0
  5  7  1  0  0  0  0
  6 11  2  0  0  0  0
  7 12  2  0  0  0  0
  8  9  2  0  0  0  0
  8 10  1  0  0  0  0
  9 12  1  0  0  0  0
 11 12  1  0  0  0  0
  3 13  1  0  0  0  0
  3 14  1  0  0  0  0
  3 15  1  0  0  0  0
  4 16  1  0  0  0  0
  5 17  1  0  0  0  0
  6 18  1  0  0  0  0
  7 19  1  0  0  0  0
  8 20  1  0  0  0  0
  9 21  1  0  0  0  0
M  END
> <pdb_id>
5T4U

> <uniprot_id>
P55201

> <usmiles>
O=C1N(c2c(cccc2)C=C1)C

$$$$
12Q_B_901
          07192419583D 1   1.00000     0.00000     0
            
 21 22  0  0  0  0            999 V2000
  -20.9330   -5.1986   10.0365 O   0  0  0  0  0  0  0  0  0  0  0  0
  -19.1063   -5.5432   11.2734 N   0  0  0  0  0  0  0  0  0  0  0  0
  -18.4670   -6.3062   10.1519 C   0  0  0  0  0  0  0  0  0  0  0  0
  -16.5422   -5.6581   13.9209 C   0  0  0  0  0  0  0  0  0  0  0  0
  -17.1856   -4.9419   14.9324 C   0  0  0  0  0  0  0  0  0  0  0  0
  -17.1744   -5.8703   12.7004 C   0  0  0  0  0  0  0  0  0  0  0  0
  -18.4665   -4.4300   14.7362 C   0  0  0  0  0  0  0  0  0  0  0  0
  -20.9992   -4.3272   12.1033 C   0  0  0  0  0  0  0  0  0  0  0  0
  -20.3758   -4.1145   13.3192 C   0  0  0  0  0  0  0  0  0  0  0  0
  -20.3482   -5.0423   11.1005 C   0  0  0  0  0  0  0  0  0  0  0  0
  -18.4647   -5.3572   12.4632 C   0  0  0  0  0  0  0  0  0  0  0  0
  -19.1007   -4.6361   13.5047 C   0  0  0  0  0  0  0  0  0  0  0  0
  -17.5562   -6.6096   10.4318 H   0  0  0  0  0  0  0  0  0  0  0  0
  -19.0291   -7.1022    9.9273 H   0  0  0  0  0  0  0  0  0  0  0  0
  -18.3894   -5.7157    9.3486 H   0  0  0  0  0  0  0  0  0  0  0  0
  -15.6228   -6.0200   14.0748 H   0  0  0  0  0  0  0  0  0  0  0  0
  -16.7223   -4.7949   15.8064 H   0  0  0  0  0  0  0  0  0  0  0  0
  -16.7090   -6.3915   11.9851 H   0  0  0  0  0  0  0  0  0  0  0  0
  -18.9267   -3.9225   15.4648 H   0  0  0  0  0  0  0  0  0  0  0  0
  -21.9185   -3.9673   11.9436 H   0  0  0  0  0  0  0  0  0  0  0  0
  -20.8302   -3.5991   14.0458 H   0  0  0  0  0  0  0  0  0  0  0  0
  1 10  2  0  0  0  0
  2  3  1  0  0  0  0
  2 10  1  0  0  0  0
  2 11  1  0  0  0  0
  4  5  2  0  0  0  0
  4  6  1  0  0  0  0
  5  7  1  0  0  0  0
  6 11  2  0  0  0  0
  7 12  2  0  0  0  0
  8  9  2  0  0  0  0
  8 10  1  0  0  0  0
  9 12  1  0  0  0  0
 11 12  1  0  0  0  0
  3 13  1  0  0  0  0
  3 14  1  0  0  0  0
  3 15  1  0  0  0  0
  4 16  1  0  0  0  0
  5 17  1  0  0  0  0
  6 18  1  0  0  0  0
  7 19  1  0  0  0  0
  8 20  1  0  0  0  0
  9 21  1  0  0  0  0
M  END
> <pdb_id>
5FE1

> <uniprot_id>
Q92831

> <usmiles>
O=C1N(c2c(cccc2)C=C1)C

$$$$
12R_A_601
          07192423343D 1   1.00000     0.00000     0
            
 27 29  0  0  0  0            999 V2000
   21.5225   45.7569   44.2998 N   0  0  0  0  0  0  0  0  0  0  0  0
   21.0760   46.9566   44.7808 N   0  0  0  0  0  0  0  0  0  0  0  0
   25.6164   45.0971   45.9101 N   0  0  0  0  0  0  0  0  0  0  0  0
   25.3457   46.2885   46.6158 N   0  0  0  0  0  0  0  0  0  0  0  0
   21.9686   48.7166   46.2777 N   0  0  0  0  0  0  0  0  0  0  0  0
   24.1642   48.2492   47.1477 N   0  0  0  0  0  0  0  0  0  0  0  0
   23.0629   48.9926   46.9896 C   0  0  0  0  0  0  0  0  0  0  0  0
   24.9172   41.4177   47.7887 C   0  0  0  0  0  0  0  0  0  0  0  0
   25.6313   41.4743   46.6072 C   0  0  0  0  0  0  0  0  0  0  0  0
   24.4859   42.5871   48.3904 C   0  0  0  0  0  0  0  0  0  0  0  0
   22.7121   45.5709   44.8360 C   0  0  0  0  0  0  0  0  0  0  0  0
   25.8974   42.6965   46.0056 C   0  0  0  0  0  0  0  0  0  0  0  0
   24.7441   43.8165   47.7981 C   0  0  0  0  0  0  0  0  0  0  0  0
   25.4371   43.8743   46.5905 C   0  0  0  0  0  0  0  0  0  0  0  0
   22.0057   47.5344   45.6297 C   0  0  0  0  0  0  0  0  0  0  0  0
   24.1967   47.0693   46.4972 C   0  0  0  0  0  0  0  0  0  0  0  0
   23.0920   46.6389   45.6839 C   0  0  0  0  0  0  0  0  0  0  0  0
   20.1926   47.3641   44.5496 H   0  0  0  0  0  0  0  0  0  0  0  0
   25.9251   45.1188   44.9592 H   0  0  0  0  0  0  0  0  0  0  0  0
   24.9254   48.5540   47.7202 H   0  0  0  0  0  0  0  0  0  0  0  0
   23.0596   49.8707   47.4679 H   0  0  0  0  0  0  0  0  0  0  0  0
   24.7123   40.5334   48.2083 H   0  0  0  0  0  0  0  0  0  0  0  0
   25.9584   40.6298   46.1832 H   0  0  0  0  0  0  0  0  0  0  0  0
   23.9861   42.5466   49.2556 H   0  0  0  0  0  0  0  0  0  0  0  0
   23.2813   44.7671   44.6635 H   0  0  0  0  0  0  0  0  0  0  0  0
   26.4190   42.7316   45.1531 H   0  0  0  0  0  0  0  0  0  0  0  0
   24.4331   44.6591   48.2376 H   0  0  0  0  0  0  0  0  0  0  0  0
  1  2  1  0  0  0  0
  1 11  2  0  0  0  0
  2 15  1  0  0  0  0
  3  4  1  0  0  0  0
  3 14  1  0  0  0  0
  4 16  2  0  0  0  0
  5  7  2  0  0  0  0
  5 15  1  0  0  0  0
  6  7  1  0  0  0  0
  6 16  1  0  0  0  0
  8  9  2  0  0  0  0
  8 10  1  0  0  0  0
  9 12  1  0  0  0  0
 10 13  2  0  0  0  0
 11 17  1  0  0  0  0
 12 14  2  0  0  0  0
 13 14  1  0  0  0  0
 15 17  2  0  0  0  0
 16 17  1  0  0  0  0
  2 18  1  0  0  0  0
  3 19  1  0  0  0  0
  6 20  1  0  0  0  0
  7 21  1  0  0  0  0
  8 22  1  0  0  0  0
  9 23  1  0  0  0  0
 10 24  1  0  0  0  0
 11 25  1  0  0  0  0
 12 26  1  0  0  0  0
 13 27  1  0  0  0  0
M  END
> <pdb_id>
4IH5

> <uniprot_id>
P26663

> <usmiles>
N(Nc1ccccc1)=C2NC=NC=3NN=CC23

$$$$
12U_A_501
          07192419343D 1   1.00000     0.00000     0
            
 62 64  0  0  0  0            999 V2000
   44.5330   24.7478   50.3684 O   0  0  0  0  0  0  0  0  0  0  0  0
   42.2945   24.4209   52.7642 O   0  0  0  0  0  0  0  0  0  0  0  0
   46.2499   16.8789   52.7831 N   0  0  0  0  0  0  0  0  0  0  0  0
   47.5257   18.3668   54.0001 N   0  0  0  0  0  0  0  0  0  0  0  0
   43.7688   22.9237   49.5497 N   0  0  0  0  0  0  0  0  0  0  0  0
   41.0601   26.0117   54.5078 N   0  0  0  0  0  0  0  0  0  0  0  0
   41.9221   25.5782   50.9906 N   0  0  0  0  0  0  0  0  0  0  0  0
   41.5752   26.6058   53.2442 C   0  0  0  0  0  0  0  0  0  0  0  0
   45.0270   22.3534   49.1856 C   0  0  0  0  0  0  0  0  0  0  0  0
   41.5170   26.8397   50.3357 C   0  0  0  0  0  0  0  0  0  0  0  0
   41.6903   26.5669   48.8482 C   0  0  0  0  0  0  0  0  0  0  0  0
   37.5013   25.9016   56.9792 C   0  0  0  0  0  0  0  0  0  0  0  0
   37.6573   24.4754   56.7246 C   0  0  0  0  0  0  0  0  0  0  0  0
   38.6025   26.7289   56.3875 C   0  0  0  0  0  0  0  0  0  0  0  0
   38.2794   24.2772   55.4190 C   0  0  0  0  0  0  0  0  0  0  0  0
   38.7200   26.6802   54.8816 C   0  0  0  0  0  0  0  0  0  0  0  0
   39.7114   24.3532   55.1344 C   0  0  0  0  0  0  0  0  0  0  0  0
   41.7238   25.0699   48.7928 C   0  0  0  0  0  0  0  0  0  0  0  0
   45.7931   21.5756   51.5442 C   0  0  0  0  0  0  0  0  0  0  0  0
   45.5716   19.9894   49.8387 C   0  0  0  0  0  0  0  0  0  0  0  0
   46.1850   20.4987   52.3671 C   0  0  0  0  0  0  0  0  0  0  0  0
   45.9641   18.9197   50.6707 C   0  0  0  0  0  0  0  0  0  0  0  0
   46.7221   18.0973   52.9821 C   0  0  0  0  0  0  0  0  0  0  0  0
   43.5373   24.1006   50.0465 C   0  0  0  0  0  0  0  0  0  0  0  0
   41.9576   25.5078   52.2860 C   0  0  0  0  0  0  0  0  0  0  0  0
   39.6475   25.5725   54.5044 C   0  0  0  0  0  0  0  0  0  0  0  0
   42.1804   24.6290   50.1879 C   0  0  1  0  0  0  0  0  0  0  0  0
   45.4705   21.3364   50.2296 C   0  0  0  0  0  0  0  0  0  0  0  0
   46.2892   19.1545   51.9832 C   0  0  0  0  0  0  0  0  0  0  0  0
   45.6446   16.6976   52.0080 H   0  0  0  0  0  0  0  0  0  0  0  0
   46.4980   16.1383   53.4076 H   0  0  0  0  0  0  0  0  0  0  0  0
   47.8714   19.2958   54.1319 H   0  0  0  0  0  0  0  0  0  0  0  0
   42.9669   22.3444   49.4039 H   0  0  0  0  0  0  0  0  0  0  0  0
   41.1634   26.6963   55.2294 H   0  0  0  0  0  0  0  0  0  0  0  0
   42.3782   27.1673   53.4439 H   0  0  0  0  0  0  0  0  0  0  0  0
   40.8647   27.1753   52.8308 H   0  0  0  0  0  0  0  0  0  0  0  0
   45.7117   23.0794   49.1210 H   0  0  0  0  0  0  0  0  0  0  0  0
   44.9387   21.8988   48.2993 H   0  0  0  0  0  0  0  0  0  0  0  0
   42.1044   27.5945   50.6278 H   0  0  0  0  0  0  0  0  0  0  0  0
   40.5642   27.0578   50.5467 H   0  0  0  0  0  0  0  0  0  0  0  0
   42.5438   26.9601   48.5060 H   0  0  0  0  0  0  0  0  0  0  0  0
   40.9214   26.9306   48.3224 H   0  0  0  0  0  0  0  0  0  0  0  0
   37.4890   26.0488   57.9683 H   0  0  0  0  0  0  0  0  0  0  0  0
   36.6318   26.2017   56.5867 H   0  0  0  0  0  0  0  0  0  0  0  0
   36.7596   24.0350   56.7360 H   0  0  0  0  0  0  0  0  0  0  0  0
   38.2356   24.0719   57.4336 H   0  0  0  0  0  0  0  0  0  0  0  0
   39.4680   26.4104   56.7740 H   0  0  0  0  0  0  0  0  0  0  0  0
   38.4489   27.6806   56.6534 H   0  0  0  0  0  0  0  0  0  0  0  0
   37.8555   24.9563   54.8197 H   0  0  0  0  0  0  0  0  0  0  0  0
   38.0023   23.3602   55.1320 H   0  0  0  0  0  0  0  0  0  0  0  0
   39.0811   27.5497   54.5448 H   0  0  0  0  0  0  0  0  0  0  0  0
   37.8193   26.5153   54.4798 H   0  0  0  0  0  0  0  0  0  0  0  0
   40.0284   23.6200   54.5327 H   0  0  0  0  0  0  0  0  0  0  0  0
   40.2726   24.3713   55.9619 H   0  0  0  0  0  0  0  0  0  0  0  0
   42.3711   24.7587   48.0970 H   0  0  0  0  0  0  0  0  0  0  0  0
   40.8150   24.7057   48.5894 H   0  0  0  0  0  0  0  0  0  0  0  0
   45.7505   22.5038   51.9136 H   0  0  0  0  0  0  0  0  0  0  0  0
   45.3460   19.7709   48.8893 H   0  0  0  0  0  0  0  0  0  0  0  0
   46.4105   20.7155   53.3170 H   0  0  0  0  0  0  0  0  0  0  0  0
   46.0054   17.9902   50.3040 H   0  0  0  0  0  0  0  0  0  0  0  0
   39.4374   25.3656   53.5488 H   0  0  0  0  0  0  0  0  0  0  0  0
   41.5977   23.8606   50.4527 H   0  0  0  0  0  0  0  0  0  0  0  0
  1 24  2  0  0  0  0
  2 25  2  0  0  0  0
  3 23  1  0  0  0  0
  4 23  2  0  0  0  0
  5  9  1  0  0  0  0
  5 24  1  0  0  0  0
  6  8  1  0  0  0  0
  6 26  1  0  0  0  0
  7 10  1  0  0  0  0
  7 25  1  0  0  0  0
  7 27  1  0  0  0  0
  8 25  1  0  0  0  0
  9 28  1  0  0  0  0
 10 11  1  0  0  0  0
 11 18  1  0  0  0  0
 12 13  1  0  0  0  0
 12 14  1  0  0  0  0
 13 15  1  0  0  0  0
 14 16  1  0  0  0  0
 15 17  1  0  0  0  0
 16 26  1  0  0  0  0
 17 26  1  0  0  0  0
 18 27  1  0  0  0  0
 19 21  1  0  0  0  0
 19 28  2  0  0  0  0
 20 22  2  0  0  0  0
 20 28  1  0  0  0  0
 21 29  2  0  0  0  0
 22 29  1  0  0  0  0
 23 29  1  0  0  0  0
 24 27  1  0  0  0  0
  3 30  1  0  0  0  0
  3 31  1  0  0  0  0
  4 32  1  0  0  0  0
  5 33  1  0  0  0  0
  6 34  1  0  0  0  0
  8 35  1  0  0  0  0
  8 36  1  0  0  0  0
  9 37  1  0  0  0  0
  9 38  1  0  0  0  0
 10 39  1  0  0  0  0
 10 40  1  0  0  0  0
 11 41  1  0  0  0  0
 11 42  1  0  0  0  0
 12 43  1  0  0  0  0
 12 44  1  0  0  0  0
 13 45  1  0  0  0  0
 13 46  1  0  0  0  0
 14 47  1  0  0  0  0
 14 48  1  0  0  0  0
 15 49  1  0  0  0  0
 15 50  1  0  0  0  0
 16 51  1  0  0  0  0
 16 52  1  0  0  0  0
 17 53  1  0  0  0  0
 17 54  1  0  0  0  0
 18 55  1  0  0  0  0
 18 56  1  0  0  0  0
 19 57  1  0  0  0  0
 20 58  1  0  0  0  0
 21 59  1  0  0  0  0
 22 60  1  0  0  0  0
 26 61  1  0  0  0  0
 27 62  1  0  0  0  0
M  END
> <pdb_id>
2ZFS

> <uniprot_id>
P00760

> <usmiles>
O=C(N1[C@H](C(=O)NCc2ccc(cc2)C(=N)N)CCC1)CNC3CCCCCC3

$$$$
130_B_251
          07202413303D 1   1.00000     0.00000     0
            
 42 45  0  0  0  0            999 V2000
  -25.2923  -13.9383   -5.5822 O   0  0  0  0  0  0  0  0  0  0  0  0
  -30.8638  -19.7282   -2.0636 N   0  0  0  0  0  0  0  0  0  0  0  0
  -31.6863  -19.7723   -4.1747 N   0  3  0  0  0  0  0  0  0  0  0  0
  -27.3027  -16.0470   -2.5509 N   0  0  0  0  0  0  0  0  0  0  0  0
  -26.8903  -15.8144   -4.7207 N   0  0  0  0  0  0  0  0  0  0  0  0
  -21.8095  -10.6645   -6.9209 C   0  0  0  0  0  0  0  0  0  0  0  0
  -21.8777  -12.0455   -7.0031 C   0  0  0  0  0  0  0  0  0  0  0  0
  -22.4426  -10.0050   -5.8775 C   0  0  0  0  0  0  0  0  0  0  0  0
  -24.0793  -13.4091   -1.6462 C   0  0  0  0  0  0  0  0  0  0  0  0
  -28.5187  -17.3711   -5.5673 C   0  0  0  0  0  0  0  0  0  0  0  0
  -22.5754  -12.7580   -6.0405 C   0  0  0  0  0  0  0  0  0  0  0  0
  -23.1412  -10.7277   -4.9150 C   0  0  0  0  0  0  0  0  0  0  0  0
  -25.0998  -14.3052   -1.9305 C   0  0  0  0  0  0  0  0  0  0  0  0
  -23.4830  -12.7061   -2.6656 C   0  0  0  0  0  0  0  0  0  0  0  0
  -29.5143  -18.2506   -5.1049 C   0  0  0  0  0  0  0  0  0  0  0  0
  -29.0452  -17.6744   -2.7982 C   0  0  0  0  0  0  0  0  0  0  0  0
  -30.8074  -19.3291   -3.3110 C   0  0  0  0  0  0  0  0  0  0  0  0
  -24.9101  -13.7830   -4.2654 C   0  0  0  0  0  0  0  0  0  0  0  0
  -26.5945  -15.4525   -3.5102 C   0  0  0  0  0  0  0  0  0  0  0  0
  -28.0770  -16.8213   -3.2986 C   0  0  0  0  0  0  0  0  0  0  0  0
  -27.8364  -16.6872   -4.6088 C   0  0  0  0  0  0  0  0  0  0  0  0
  -29.8075  -18.4304   -3.7277 C   0  0  0  0  0  0  0  0  0  0  0  0
  -23.2167  -12.1276   -4.9774 C   0  0  0  0  0  0  0  0  0  0  0  0
  -25.5511  -14.5276   -3.2381 C   0  0  0  0  0  0  0  0  0  0  0  0
  -23.8742  -12.8667   -3.9970 C   0  0  0  0  0  0  0  0  0  0  0  0
  -31.5391  -20.3668   -1.6915 H   0  0  0  0  0  0  0  0  0  0  0  0
  -30.1863  -19.4047   -1.3922 H   0  0  0  0  0  0  0  0  0  0  0  0
  -31.6105  -19.5094   -5.1457 H   0  0  0  0  0  0  0  0  0  0  0  0
  -32.3807  -20.4489   -3.9503 H   0  0  0  0  0  0  0  0  0  0  0  0
  -26.4461  -15.4557   -5.5209 H   0  0  0  0  0  0  0  0  0  0  0  0
  -21.2650  -10.1050   -7.6673 H   0  0  0  0  0  0  0  0  0  0  0  0
  -21.3883  -12.5626   -7.8137 H   0  0  0  0  0  0  0  0  0  0  0  0
  -22.3949   -8.9270   -5.8143 H   0  0  0  0  0  0  0  0  0  0  0  0
  -23.7516  -13.2605   -0.6284 H   0  0  0  0  0  0  0  0  0  0  0  0
  -28.3026  -17.2410   -6.6159 H   0  0  0  0  0  0  0  0  0  0  0  0
  -22.6195  -13.8336   -6.1222 H   0  0  0  0  0  0  0  0  0  0  0  0
  -23.6295  -10.1964   -4.1102 H   0  0  0  0  0  0  0  0  0  0  0  0
  -25.5526  -14.8470   -1.1118 H   0  0  0  0  0  0  0  0  0  0  0  0
  -22.6921  -12.0151   -2.4252 H   0  0  0  0  0  0  0  0  0  0  0  0
  -30.0740  -18.8105   -5.8392 H   0  0  0  0  0  0  0  0  0  0  0  0
  -29.2127  -17.7570   -1.7343 H   0  0  0  0  0  0  0  0  0  0  0  0
  -24.8374  -13.4115   -6.3003 H   0  0  0  0  0  0  0  0  0  0  0  0
  1 18  1  0  0  0  0
  2 17  1  0  0  0  0
  2 26  1  0  0  0  0
  2 27  1  0  0  0  0
  3 17  2  0  0  0  0
  3 28  1  0  0  0  0
  3 29  1  0  0  0  0
  4 19  2  0  0  0  0
  4 20  1  0  0  0  0
  5 19  1  0  0  0  0
  5 21  1  0  0  0  0
  5 30  1  0  0  0  0
  6  7  2  0  0  0  0
  6  8  1  0  0  0  0
  6 31  1  0  0  0  0
  7 11  1  0  0  0  0
  7 32  1  0  0  0  0
  8 12  2  0  0  0  0
  8 33  1  0  0  0  0
  9 13  2  0  0  0  0
  9 14  1  0  0  0  0
  9 34  1  0  0  0  0
 10 15  1  0  0  0  0
 10 21  2  0  0  0  0
 10 35  1  0  0  0  0
 11 23  2  0  0  0  0
 11 36  1  0  0  0  0
 12 23  1  0  0  0  0
 12 37  1  0  0  0  0
 13 24  1  0  0  0  0
 13 38  1  0  0  0  0
 14 25  2  0  0  0  0
 14 39  1  0  0  0  0
 15 22  2  0  0  0  0
 15 40  1  0  0  0  0
 16 20  2  0  0  0  0
 16 22  1  0  0  0  0
 16 41  1  0  0  0  0
 17 22  1  0  0  0  0
 18 24  2  0  0  0  0
 18 25  1  0  0  0  0
 19 24  1  0  0  0  0
 20 21  1  0  0  0  0
 23 25  1  0  0  0  0
  1 42  1  0  0  0  0
M  CHG  1   3   1
M  END
> <pdb_id>
1GJC

> <uniprot_id>
P00749

> <usmiles>
Oc1c(c2ccccc2)cccc1C3=Nc4c(N3)ccc(c4)C(=[NH2+])N

$$$$
133_B_251
          07202413303D 1   1.00000     0.00000     0
            
 45 47  0  0  0  0            999 V2000
  -29.8895  -18.7803   -5.8851 F   0  0  0  0  0  0  0  0  0  0  0  0
  -25.1256  -13.7986   -5.6501 O   0  0  0  0  0  0  0  0  0  0  0  0
  -23.2153  -11.9717   -5.1550 O   0  0  0  0  0  0  0  0  0  0  0  0
  -30.4654  -19.2546   -1.7703 N   0  0  0  0  0  0  0  0  0  0  0  0
  -31.4015  -19.5757   -3.7970 N   0  3  0  0  0  0  0  0  0  0  0  0
  -27.0082  -15.7851   -2.5506 N   0  0  0  0  0  0  0  0  0  0  0  0
  -26.6299  -15.5970   -4.7508 N   0  0  0  0  0  0  0  0  0  0  0  0
  -20.8431  -11.7728   -7.2684 C   0  0  0  0  0  0  0  0  0  0  0  0
  -22.3963   -9.8770   -6.6543 C   0  0  0  0  0  0  0  0  0  0  0  0
  -23.9571  -13.1292   -1.7133 C   0  0  0  0  0  0  0  0  0  0  0  0
  -23.3930  -12.4155   -2.7588 C   0  0  0  0  0  0  0  0  0  0  0  0
  -24.9497  -14.0360   -1.9768 C   0  0  0  0  0  0  0  0  0  0  0  0
  -28.2601  -17.1734   -5.5261 C   0  0  0  0  0  0  0  0  0  0  0  0
  -28.7097  -17.3921   -2.7105 C   0  0  0  0  0  0  0  0  0  0  0  0
  -21.8400  -11.6244   -4.9601 C   0  0  0  0  0  0  0  0  0  0  0  0
  -29.2212  -18.0510   -4.9915 C   0  0  0  0  0  0  0  0  0  0  0  0
  -30.4749  -19.0264   -3.0542 C   0  0  0  0  0  0  0  0  0  0  0  0
  -24.7596  -13.5753   -4.3359 C   0  0  0  0  0  0  0  0  0  0  0  0
  -23.7658  -12.6581   -4.0852 C   0  0  0  0  0  0  0  0  0  0  0  0
  -26.3364  -15.2277   -3.5410 C   0  0  0  0  0  0  0  0  0  0  0  0
  -27.7892  -16.5530   -3.2647 C   0  0  0  0  0  0  0  0  0  0  0  0
  -27.5562  -16.4716   -4.6023 C   0  0  0  0  0  0  0  0  0  0  0  0
  -29.4998  -18.1683   -3.5875 C   0  0  0  0  0  0  0  0  0  0  0  0
  -25.3417  -14.3067   -3.2881 C   0  0  0  0  0  0  0  0  0  0  0  0
  -21.3214  -10.8300   -6.1578 C   0  0  0  0  0  0  0  0  0  0  0  0
  -31.1386  -19.8583   -1.3347 H   0  0  0  0  0  0  0  0  0  0  0  0
  -29.7757  -18.8582   -1.1577 H   0  0  0  0  0  0  0  0  0  0  0  0
  -31.4738  -19.4162   -4.7914 H   0  0  0  0  0  0  0  0  0  0  0  0
  -32.0729  -20.1986   -3.3898 H   0  0  0  0  0  0  0  0  0  0  0  0
  -26.1931  -15.2521   -5.5587 H   0  0  0  0  0  0  0  0  0  0  0  0
  -20.2250  -11.2208   -7.9572 H   0  0  0  0  0  0  0  0  0  0  0  0
  -20.2598  -12.5778   -6.8520 H   0  0  0  0  0  0  0  0  0  0  0  0
  -21.6856  -12.1836   -7.8041 H   0  0  0  0  0  0  0  0  0  0  0  0
  -23.2337  -10.4353   -7.0442 H   0  0  0  0  0  0  0  0  0  0  0  0
  -22.7468   -9.2601   -5.8384 H   0  0  0  0  0  0  0  0  0  0  0  0
  -21.9950   -9.2397   -7.4287 H   0  0  0  0  0  0  0  0  0  0  0  0
  -23.6576  -12.9361   -0.6903 H   0  0  0  0  0  0  0  0  0  0  0  0
  -22.6271  -11.6934   -2.5262 H   0  0  0  0  0  0  0  0  0  0  0  0
  -25.3828  -14.5828   -1.1520 H   0  0  0  0  0  0  0  0  0  0  0  0
  -28.0686  -17.0833   -6.5822 H   0  0  0  0  0  0  0  0  0  0  0  0
  -28.8373  -17.4229   -1.6447 H   0  0  0  0  0  0  0  0  0  0  0  0
  -21.7544  -10.9688   -4.1097 H   0  0  0  0  0  0  0  0  0  0  0  0
  -21.2553  -12.5169   -4.7909 H   0  0  0  0  0  0  0  0  0  0  0  0
  -20.4782  -10.2381   -5.8309 H   0  0  0  0  0  0  0  0  0  0  0  0
  -25.8450  -14.4596   -5.8633 H   0  0  0  0  0  0  0  0  0  0  0  0
  1 16  1  0  0  0  0
  2 18  1  0  0  0  0
  3 15  1  0  0  0  0
  3 19  1  0  0  0  0
  4 17  1  0  0  0  0
  4 26  1  0  0  0  0
  4 27  1  0  0  0  0
  5 17  2  0  0  0  0
  5 28  1  0  0  0  0
  5 29  1  0  0  0  0
  6 20  2  0  0  0  0
  6 21  1  0  0  0  0
  7 20  1  0  0  0  0
  7 22  1  0  0  0  0
  7 30  1  0  0  0  0
  8 25  1  0  0  0  0
  8 31  1  0  0  0  0
  8 32  1  0  0  0  0
  8 33  1  0  0  0  0
  9 25  1  0  0  0  0
  9 34  1  0  0  0  0
  9 35  1  0  0  0  0
  9 36  1  0  0  0  0
 10 11  2  0  0  0  0
 10 12  1  0  0  0  0
 10 37  1  0  0  0  0
 11 19  1  0  0  0  0
 11 38  1  0  0  0  0
 12 24  2  0  0  0  0
 12 39  1  0  0  0  0
 13 16  1  0  0  0  0
 13 22  2  0  0  0  0
 13 40  1  0  0  0  0
 14 21  2  0  0  0  0
 14 23  1  0  0  0  0
 14 41  1  0  0  0  0
 15 25  1  0  0  0  0
 15 42  1  0  0  0  0
 15 43  1  0  0  0  0
 16 23  2  0  0  0  0
 17 23  1  0  0  0  0
 18 19  2  0  0  0  0
 18 24  1  0  0  0  0
 20 24  1  0  0  0  0
 21 22  1  0  0  0  0
 25 44  1  0  0  0  0
  2 45  1  0  0  0  0
M  CHG  1   5   1
M  END
> <pdb_id>
1GJ8

> <uniprot_id>
P00749

> <usmiles>
Fc1c(cc2N=C(Nc2c1)c3c(O)c(OCC(C)C)ccc3)C(=[NH2+])N

$$$$
13C_D_1215
          07192418153D 1   1.00000     0.00000     0
            
 45 46  0  0  0  0            999 V2000
  -17.1805    3.8473   -1.0194 Cl  0  0  0  0  0  0  0  0  0  0  0  0
  -15.3011    3.3467   -3.7664 O   0  0  0  0  0  0  0  0  0  0  0  0
  -19.9441    1.7229   -5.9469 O   0  0  0  0  0  0  0  0  0  0  0  0
  -19.0166    6.1058   -1.4001 O   0  0  0  0  0  0  0  0  0  0  0  0
  -20.6179    4.6584   -5.8087 O   0  0  0  0  0  0  0  0  0  0  0  0
  -17.8938    2.4144   -6.7587 N   0  0  0  0  0  0  0  0  0  0  0  0
  -18.0092    1.5317   -7.9295 C   0  0  0  0  0  0  0  0  0  0  0  0
  -16.6983    1.6069   -8.7289 C   0  0  0  0  0  0  0  0  0  0  0  0
  -15.5329    1.0457   -7.8855 C   0  0  0  0  0  0  0  0  0  0  0  0
  -14.6559    1.9546   -7.1358 C   0  0  0  0  0  0  0  0  0  0  0  0
  -13.2648    1.4824   -6.6679 C   0  0  0  0  0  0  0  0  0  0  0  0
  -13.1789    1.5713   -5.1346 C   0  0  0  0  0  0  0  0  0  0  0  0
  -14.1840    0.5708   -4.5321 C   0  0  0  0  0  0  0  0  0  0  0  0
  -14.7015    1.1179   -3.1872 C   0  0  0  0  0  0  0  0  0  0  0  0
  -17.2113    1.9644   -3.4277 C   0  0  0  0  0  0  0  0  0  0  0  0
  -19.8452    5.4241   -3.6043 C   0  0  0  0  0  0  0  0  0  0  0  0
  -15.6972    2.2477   -3.4780 C   0  0  0  0  0  0  0  0  0  0  0  0
  -18.9916    2.4395   -5.7933 C   0  0  0  0  0  0  0  0  0  0  0  0
  -19.0173    5.2013   -2.4971 C   0  0  0  0  0  0  0  0  0  0  0  0
  -19.8037    4.5129   -4.6558 C   0  0  0  0  0  0  0  0  0  0  0  0
  -18.1768    4.0907   -2.4448 C   0  0  0  0  0  0  0  0  0  0  0  0
  -18.1452    3.1837   -3.4986 C   0  0  0  0  0  0  0  0  0  0  0  0
  -18.9632    3.4050   -4.6035 C   0  0  0  0  0  0  0  0  0  0  0  0
  -18.4218    5.9378   -0.6140 H   0  0  0  0  0  0  0  0  0  0  0  0
  -20.5642    3.9859   -6.5469 H   0  0  0  0  0  0  0  0  0  0  0  0
  -17.0830    2.9844   -6.6260 H   0  0  0  0  0  0  0  0  0  0  0  0
  -18.7717    1.8306   -8.5032 H   0  0  0  0  0  0  0  0  0  0  0  0
  -18.1671    0.5912   -7.6285 H   0  0  0  0  0  0  0  0  0  0  0  0
  -16.5080    2.5601   -8.9641 H   0  0  0  0  0  0  0  0  0  0  0  0
  -16.7899    1.0688   -9.5668 H   0  0  0  0  0  0  0  0  0  0  0  0
  -14.9465    0.5319   -8.5117 H   0  0  0  0  0  0  0  0  0  0  0  0
  -15.9366    0.4202   -7.2179 H   0  0  0  0  0  0  0  0  0  0  0  0
  -15.1581    2.2269   -6.3151 H   0  0  0  0  0  0  0  0  0  0  0  0
  -14.5074    2.7550   -7.7167 H   0  0  0  0  0  0  0  0  0  0  0  0
  -12.5612    2.0648   -7.0751 H   0  0  0  0  0  0  0  0  0  0  0  0
  -13.1208    0.5353   -6.9550 H   0  0  0  0  0  0  0  0  0  0  0  0
  -13.4058    2.4986   -4.8369 H   0  0  0  0  0  0  0  0  0  0  0  0
  -12.2530    1.3420   -4.8344 H   0  0  0  0  0  0  0  0  0  0  0  0
  -13.7319   -0.3086   -4.3835 H   0  0  0  0  0  0  0  0  0  0  0  0
  -14.9518    0.4488   -5.1610 H   0  0  0  0  0  0  0  0  0  0  0  0
  -13.9364    1.4716   -2.6491 H   0  0  0  0  0  0  0  0  0  0  0  0
  -15.1576    0.3879   -2.6782 H   0  0  0  0  0  0  0  0  0  0  0  0
  -17.4017    1.4864   -2.5702 H   0  0  0  0  0  0  0  0  0  0  0  0
  -17.4336    1.3674   -4.1986 H   0  0  0  0  0  0  0  0  0  0  0  0
  -20.4515    6.2186   -3.6388 H   0  0  0  0  0  0  0  0  0  0  0  0
  1 21  1  0  0  0  0
  2 17  2  0  0  0  0
  3 18  2  0  0  0  0
  4 19  1  0  0  0  0
  5 20  1  0  0  0  0
  6  7  1  0  0  0  0
  6 18  1  0  0  0  0
  7  8  1  0  0  0  0
  8  9  1  0  0  0  0
  9 10  1  0  0  0  0
 10 11  1  0  0  0  0
 11 12  1  0  0  0  0
 12 13  1  0  0  0  0
 13 14  1  0  0  0  0
 14 17  1  0  0  0  0
 15 17  1  0  0  0  0
 15 22  1  0  0  0  0
 16 19  2  0  0  0  0
 16 20  1  0  0  0  0
 18 23  1  0  0  0  0
 19 21  1  0  0  0  0
 20 23  2  0  0  0  0
 21 22  2  0  0  0  0
 22 23  1  0  0  0  0
  4 24  1  0  0  0  0
  5 25  1  0  0  0  0
  6 26  1  0  0  0  0
  7 27  1  0  0  0  0
  7 28  1  0  0  0  0
  8 29  1  0  0  0  0
  8 30  1  0  0  0  0
  9 31  1  0  0  0  0
  9 32  1  0  0  0  0
 10 33  1  0  0  0  0
 10 34  1  0  0  0  0
 11 35  1  0  0  0  0
 11 36  1  0  0  0  0
 12 37  1  0  0  0  0
 12 38  1  0  0  0  0
 13 39  1  0  0  0  0
 13 40  1  0  0  0  0
 14 41  1  0  0  0  0
 14 42  1  0  0  0  0
 15 43  1  0  0  0  0
 15 44  1  0  0  0  0
 16 45  1  0  0  0  0
M  END
> <pdb_id>
2XX2

> <uniprot_id>
P02829

> <usmiles>
Clc1c(O)cc(O)c2c1CC(=O)CCCCCCCCNC2=O

$$$$
13F_A_201
          07212401333D 1   1.00000     0.00000     0
            
 37 39  0  0  0  0            999 V2000
  -12.5498  -21.2868  -17.5046 S   0  0  0  0  0  0  0  0  0  0  0  0
  -11.3270  -21.8641  -17.4710 O   0  0  0  0  0  0  0  0  0  0  0  0
  -12.6477  -19.7859  -17.2657 O   0  0  0  0  0  0  0  0  0  0  0  0
  -16.9411  -23.4152  -23.0531 O   0  0  0  0  0  0  0  0  0  0  0  0
  -13.1860  -22.0658  -16.1751 N   0  0  0  0  0  0  0  0  0  0  0  0
  -15.4648  -23.4618  -21.7187 N   0  0  0  0  0  0  0  0  0  0  0  0
  -16.3452  -21.5149  -22.3063 N   0  0  0  0  0  0  0  0  0  0  0  0
  -17.3881  -20.7569  -22.9343 C   0  0  0  0  0  0  0  0  0  0  0  0
  -15.3972  -20.7679  -21.5898 C   0  0  0  0  0  0  0  0  0  0  0  0
  -16.9327  -21.3359  -14.6746 C   0  0  0  0  0  0  0  0  0  0  0  0
  -16.3924  -22.5354  -14.6726 C   0  0  0  0  0  0  0  0  0  0  0  0
  -16.1576  -20.2677  -15.0015 C   0  0  0  0  0  0  0  0  0  0  0  0
  -15.1157  -22.7379  -15.0478 C   0  0  0  0  0  0  0  0  0  0  0  0
  -14.8633  -20.4945  -15.3689 C   0  0  0  0  0  0  0  0  0  0  0  0
  -13.3072  -23.1986  -19.0033 C   0  0  0  0  0  0  0  0  0  0  0  0
  -13.9674  -23.7605  -20.0392 C   0  0  0  0  0  0  0  0  0  0  0  0
  -14.0266  -21.0838  -19.6951 C   0  0  0  0  0  0  0  0  0  0  0  0
  -16.3025  -22.8153  -22.4728 C   0  0  0  0  0  0  0  0  0  0  0  0
  -13.3296  -21.8689  -18.7943 C   0  0  0  0  0  0  0  0  0  0  0  0
  -14.3871  -21.7575  -15.4370 C   0  0  0  0  0  0  0  0  0  0  0  0
  -14.6819  -22.9135  -20.8572 C   0  0  0  0  0  0  0  0  0  0  0  0
  -14.6602  -21.6237  -20.6796 C   0  0  0  0  0  0  0  0  0  0  0  0
  -12.6650  -22.8527  -15.8444 H   0  0  0  0  0  0  0  0  0  0  0  0
  -15.4258  -24.4565  -21.8146 H   0  0  0  0  0  0  0  0  0  0  0  0
  -18.0073  -21.3771  -23.4158 H   0  0  0  0  0  0  0  0  0  0  0  0
  -17.8977  -20.2509  -22.2383 H   0  0  0  0  0  0  0  0  0  0  0  0
  -16.9865  -20.1141  -23.5865 H   0  0  0  0  0  0  0  0  0  0  0  0
  -15.8660  -20.0565  -21.0661 H   0  0  0  0  0  0  0  0  0  0  0  0
  -14.7590  -20.3432  -22.2319 H   0  0  0  0  0  0  0  0  0  0  0  0
  -17.8968  -21.2119  -14.4398 H   0  0  0  0  0  0  0  0  0  0  0  0
  -16.9449  -23.3176  -14.3847 H   0  0  0  0  0  0  0  0  0  0  0  0
  -16.5270  -19.3389  -14.9734 H   0  0  0  0  0  0  0  0  0  0  0  0
  -14.7321  -23.6611  -15.0227 H   0  0  0  0  0  0  0  0  0  0  0  0
  -14.2651  -19.7238  -15.5883 H   0  0  0  0  0  0  0  0  0  0  0  0
  -12.7904  -23.7833  -18.3780 H   0  0  0  0  0  0  0  0  0  0  0  0
  -13.9387  -24.7463  -20.2045 H   0  0  0  0  0  0  0  0  0  0  0  0
  -14.0391  -20.0903  -19.5819 H   0  0  0  0  0  0  0  0  0  0  0  0
  1  2  2  0  0  0  0
  1  3  2  0  0  0  0
  1  5  1  0  0  0  0
  1 19  1  0  0  0  0
  4 18  2  0  0  0  0
  5 20  1  0  0  0  0
  6 18  1  0  0  0  0
  6 21  1  0  0  0  0
  7  8  1  0  0  0  0
  7  9  1  0  0  0  0
  7 18  1  0  0  0  0
  9 22  1  0  0  0  0
 10 11  2  0  0  0  0
 10 12  1  0  0  0  0
 11 13  1  0  0  0  0
 12 14  2  0  0  0  0
 13 20  2  0  0  0  0
 14 20  1  0  0  0  0
 15 16  1  0  0  0  0
 15 19  2  0  0  0  0
 16 21  2  0  0  0  0
 17 19  1  0  0  0  0
 17 22  2  0  0  0  0
 21 22  1  0  0  0  0
  5 23  1  0  0  0  0
  6 24  1  0  0  0  0
  8 25  1  0  0  0  0
  8 26  1  0  0  0  0
  8 27  1  0  0  0  0
  9 28  1  0  0  0  0
  9 29  1  0  0  0  0
 10 30  1  0  0  0  0
 11 31  1  0  0  0  0
 12 32  1  0  0  0  0
 13 33  1  0  0  0  0
 14 34  1  0  0  0  0
 15 35  1  0  0  0  0
 16 36  1  0  0  0  0
 17 37  1  0  0  0  0
M  END
> <pdb_id>
4HBY

> <uniprot_id>
O60885

> <usmiles>
S(=O)(=O)(Nc1ccccc1)c2cc3c(NC(=O)N(C3)C)cc2

$$$$
13I_A_1215
          07192418153D 1   1.00000     0.00000     0
            
 52 53  0  0  0  0            999 V2000
  -17.1330    3.9160   -0.9510 Cl  0  0  0  0  0  0  0  0  0  0  0  0
  -13.4100    2.9070   -1.7970 O   0  0  0  0  0  0  0  0  0  0  0  0
  -19.9260    1.7710   -5.9160 O   0  0  0  0  0  0  0  0  0  0  0  0
  -19.0420    6.2340   -1.3250 O   0  0  0  0  0  0  0  0  0  0  0  0
  -15.4790    3.8610   -3.9760 O   0  0  0  0  0  0  0  0  0  0  0  0
  -20.6540    4.7410   -5.7530 O   0  0  0  0  0  0  0  0  0  0  0  0
  -12.8610    0.8350   -2.0140 O   0  0  0  0  0  0  0  0  0  0  0  0
  -17.8310    2.4350   -6.6650 N   0  0  0  0  0  0  0  0  0  0  0  0
  -10.9580    1.3700   -0.4830 C   0  0  0  0  0  0  0  0  0  0  0  0
  -12.3450    0.8460   -0.6790 C   0  0  0  0  0  0  0  0  0  0  0  0
  -17.8690    1.6280   -7.8870 C   0  0  0  0  0  0  0  0  0  0  0  0
  -16.5480    1.5590   -8.6220 C   0  0  0  0  0  0  0  0  0  0  0  0
  -15.3470    1.1440   -7.8180 C   0  0  0  0  0  0  0  0  0  0  0  0
  -14.3570    2.0690   -7.4380 C   0  0  0  0  0  0  0  0  0  0  0  0
  -13.2240    1.6740   -6.4840 C   0  0  0  0  0  0  0  0  0  0  0  0
  -13.4270    0.4550   -5.6310 C   0  0  0  0  0  0  0  0  0  0  0  0
  -14.3810    0.5620   -4.4450 C   0  0  0  0  0  0  0  0  0  0  0  0
  -19.9290    5.5670   -3.5110 C   0  0  0  0  0  0  0  0  0  0  0  0
  -16.9860    2.1230   -3.4560 C   0  0  0  0  0  0  0  0  0  0  0  0
  -13.6250    1.8190   -2.3470 C   0  0  0  0  0  0  0  0  0  0  0  0
  -18.9320    2.4760   -5.7590 C   0  0  0  0  0  0  0  0  0  0  0  0
  -18.1010    4.1900   -2.3580 C   0  0  0  0  0  0  0  0  0  0  0  0
  -19.0490    5.3540   -2.3820 C   0  0  0  0  0  0  0  0  0  0  0  0
  -15.6050    2.6820   -3.6890 C   0  0  0  0  0  0  0  0  0  0  0  0
  -19.8690    4.6060   -4.6370 C   0  0  0  0  0  0  0  0  0  0  0  0
  -14.3050    1.8470   -3.6850 C   0  0  2  0  0  0  0  0  0  0  0  0
  -18.0410    3.2140   -3.4850 C   0  0  0  0  0  0  0  0  0  0  0  0
  -18.8970    3.4220   -4.6050 C   0  0  0  0  0  0  0  0  0  0  0  0
  -18.4305    6.0787   -0.5491 H   0  0  0  0  0  0  0  0  0  0  0  0
  -20.5877    4.0735   -6.4947 H   0  0  0  0  0  0  0  0  0  0  0  0
  -17.0119    2.9711   -6.4607 H   0  0  0  0  0  0  0  0  0  0  0  0
  -10.7183    1.3242    0.4868 H   0  0  0  0  0  0  0  0  0  0  0  0
  -10.3147    0.8164   -1.0119 H   0  0  0  0  0  0  0  0  0  0  0  0
  -10.9136    2.3198   -0.7928 H   0  0  0  0  0  0  0  0  0  0  0  0
  -12.3603   -0.0959   -0.3435 H   0  0  0  0  0  0  0  0  0  0  0  0
  -12.9592    1.4074   -0.1244 H   0  0  0  0  0  0  0  0  0  0  0  0
  -18.5510    2.0224   -8.5029 H   0  0  0  0  0  0  0  0  0  0  0  0
  -18.1406    0.6976   -7.6408 H   0  0  0  0  0  0  0  0  0  0  0  0
  -16.3623    2.4673   -8.9968 H   0  0  0  0  0  0  0  0  0  0  0  0
  -16.6520    0.9044   -9.3707 H   0  0  0  0  0  0  0  0  0  0  0  0
  -15.2494    0.1865   -7.5465 H   0  0  0  0  0  0  0  0  0  0  0  0
  -14.3933    3.0016   -7.7971 H   0  0  0  0  0  0  0  0  0  0  0  0
  -13.0675    2.4469   -5.8690 H   0  0  0  0  0  0  0  0  0  0  0  0
  -12.4065    1.5184   -7.0385 H   0  0  0  0  0  0  0  0  0  0  0  0
  -12.5322    0.1921   -5.2702 H   0  0  0  0  0  0  0  0  0  0  0  0
  -13.7726   -0.2704   -6.2263 H   0  0  0  0  0  0  0  0  0  0  0  0
  -14.1744   -0.1847   -3.8127 H   0  0  0  0  0  0  0  0  0  0  0  0
  -15.3147    0.4596   -4.7881 H   0  0  0  0  0  0  0  0  0  0  0  0
  -20.5606    6.3420   -3.5306 H   0  0  0  0  0  0  0  0  0  0  0  0
  -17.0080    1.6736   -2.5630 H   0  0  0  0  0  0  0  0  0  0  0  0
  -17.1906    1.4543   -4.1708 H   0  0  0  0  0  0  0  0  0  0  0  0
  -13.6830    2.3989   -4.2405 H   0  0  0  0  0  0  0  0  0  0  0  0
  1 22  1  0  0  0  0
  2 20  2  0  0  0  0
  3 21  2  0  0  0  0
  4 23  1  0  0  0  0
  5 24  2  0  0  0  0
  6 25  1  0  0  0  0
  7 10  1  0  0  0  0
  7 20  1  0  0  0  0
  8 11  1  0  0  0  0
  8 21  1  0  0  0  0
  9 10  1  0  0  0  0
 11 12  1  0  0  0  0
 12 13  1  0  0  0  0
 13 14  2  0  0  0  0
 14 15  1  0  0  0  0
 15 16  1  0  0  0  0
 16 17  1  0  0  0  0
 17 26  1  0  0  0  0
 18 23  2  0  0  0  0
 18 25  1  0  0  0  0
 19 24  1  0  0  0  0
 19 27  1  0  0  0  0
 20 26  1  0  0  0  0
 21 28  1  0  0  0  0
 22 23  1  0  0  0  0
 22 27  2  0  0  0  0
 24 26  1  0  0  0  0
 25 28  2  0  0  0  0
 27 28  1  0  0  0  0
  4 29  1  0  0  0  0
  6 30  1  0  0  0  0
  8 31  1  0  0  0  0
  9 32  1  0  0  0  0
  9 33  1  0  0  0  0
  9 34  1  0  0  0  0
 10 35  1  0  0  0  0
 10 36  1  0  0  0  0
 11 37  1  0  0  0  0
 11 38  1  0  0  0  0
 12 39  1  0  0  0  0
 12 40  1  0  0  0  0
 13 41  1  0  0  0  0
 14 42  1  0  0  0  0
 15 43  1  0  0  0  0
 15 44  1  0  0  0  0
 16 45  1  0  0  0  0
 16 46  1  0  0  0  0
 17 47  1  0  0  0  0
 17 48  1  0  0  0  0
 18 49  1  0  0  0  0
 19 50  1  0  0  0  0
 19 51  1  0  0  0  0
 26 52  1  0  0  0  0
M  END
> <pdb_id>
2XX4

> <uniprot_id>
P02829

> <usmiles>
Clc1c(O)cc(O)c2c1CC(=O)[C@@H](C(=O)OCC)CCC/C=C/CCNC2=O

$$$$
13P_A_401
          07202401053D 1   1.00000     0.00000     0
            
 17 16  0  0  0  0            999 V2000
   38.1794   80.2643   45.7870 P   0  0  0  0  0  0  0  0  0  0  0  0
   36.6642   80.1879   45.8218 O   0  0  0  0  0  0  0  0  0  0  0  0
   38.8770   79.3561   44.7757 O   0  0  0  0  0  0  0  0  0  0  0  0
   38.7936   80.2201   47.1773 O   0  0  0  0  0  0  0  0  0  0  0  0
   39.0811   85.0857   41.7462 O   0  0  0  0  0  0  0  0  0  0  0  0
   39.9103   83.5647   43.7662 O   0  0  0  0  0  0  0  0  0  0  0  0
   38.5004   81.7531   45.2439 O   0  0  0  0  0  0  0  0  0  0  0  0
   38.3096   83.9019   42.0424 C   0  0  0  0  0  0  0  0  0  0  0  0
   38.0089   82.1382   43.9369 C   0  0  0  0  0  0  0  0  0  0  0  0
   38.8325   83.2260   43.2916 C   0  0  0  0  0  0  0  0  0  0  0  0
   36.3145   80.8190   46.5142 H   0  0  0  0  0  0  0  0  0  0  0  0
   39.8666   79.4864   44.8378 H   0  0  0  0  0  0  0  0  0  0  0  0
   38.7225   85.5189   40.9193 H   0  0  0  0  0  0  0  0  0  0  0  0
   38.3740   83.2663   41.2731 H   0  0  0  0  0  0  0  0  0  0  0  0
   37.3536   84.1590   42.1832 H   0  0  0  0  0  0  0  0  0  0  0  0
   37.0691   82.4658   44.0341 H   0  0  0  0  0  0  0  0  0  0  0  0
   38.0218   81.3342   43.3424 H   0  0  0  0  0  0  0  0  0  0  0  0
  1  2  1  0  0  0  0
  1  3  1  0  0  0  0
  1  4  2  0  0  0  0
  1  7  1  0  0  0  0
  5  8  1  0  0  0  0
  6 10  2  0  0  0  0
  7  9  1  0  0  0  0
  8 10  1  0  0  0  0
  9 10  1  0  0  0  0
  2 11  1  0  0  0  0
  3 12  1  0  0  0  0
  5 13  1  0  0  0  0
  8 14  1  0  0  0  0
  8 15  1  0  0  0  0
  9 16  1  0  0  0  0
  9 17  1  0  0  0  0
M  END
> <pdb_id>
3BXE

> <uniprot_id>
O32253

> <usmiles>
P(=O)(OCC(=O)CO)(O)O

$$$$
145_B_201
          07202413403D 1   1.00000     0.00000     0
            
 36 37  0  0  0  0            999 V2000
   -7.2838   45.1654  132.1034 O   0  5  0  0  0  0  0  0  0  0  0  0
   -7.5690   44.0812  133.7364 O   0  0  0  0  0  0  0  0  0  0  0  0
   -6.0821   43.1629  126.8722 O   0  0  0  0  0  0  0  0  0  0  0  0
   -9.5675   47.4344  129.1706 O   0  0  0  0  0  0  0  0  0  0  0  0
   -6.4142   46.0993  126.7949 O   0  0  0  0  0  0  0  0  0  0  0  0
   -8.1948   48.0909  126.7958 O   0  0  0  0  0  0  0  0  0  0  0  0
   -8.9252   45.0013  130.1758 O   0  0  0  0  0  0  0  0  0  0  0  0
   -8.1985   44.2646  128.1639 O   0  0  0  0  0  0  0  0  0  0  0  0
   -7.8750   44.3036  132.6158 N   0  3  0  0  0  0  0  0  0  0  0  0
  -10.5803   41.8066  130.7885 C   0  0  0  0  0  0  0  0  0  0  0  0
  -10.0727   41.4847  131.9708 C   0  0  0  0  0  0  0  0  0  0  0  0
  -10.2009   42.9622  130.1901 C   0  0  0  0  0  0  0  0  0  0  0  0
   -9.1917   42.3084  132.5505 C   0  0  0  0  0  0  0  0  0  0  0  0
   -7.2626   43.3284  126.2088 C   0  0  0  0  0  0  0  0  0  0  0  0
   -9.3237   43.8239  130.7661 C   0  0  0  0  0  0  0  0  0  0  0  0
   -8.8140   43.5008  131.9684 C   0  0  0  0  0  0  0  0  0  0  0  0
   -9.0420   45.1559  128.8264 C   0  0  2  0  0  0  0  0  0  0  0  0
   -8.1604   44.3985  126.8010 C   0  0  2  0  0  0  0  0  0  0  0  0
   -8.6747   46.5906  128.5464 C   0  0  1  0  0  0  0  0  0  0  0  0
   -7.7135   45.7841  126.3944 C   0  0  1  0  0  0  0  0  0  0  0  0
   -8.6355   46.7966  127.0611 C   0  0  2  0  0  0  0  0  0  0  0  0
   -6.2062   42.6733  127.5661 H   0  0  0  0  0  0  0  0  0  0  0  0
  -10.2778   47.5682  128.6740 H   0  0  0  0  0  0  0  0  0  0  0  0
   -6.1355   45.5853  127.4298 H   0  0  0  0  0  0  0  0  0  0  0  0
   -8.5876   48.3972  126.0822 H   0  0  0  0  0  0  0  0  0  0  0  0
  -11.2159   41.2255  130.3535 H   0  0  0  0  0  0  0  0  0  0  0  0
  -10.3268   40.6600  132.4050 H   0  0  0  0  0  0  0  0  0  0  0  0
  -10.5844   43.1956  129.3338 H   0  0  0  0  0  0  0  0  0  0  0  0
   -8.8232   42.0700  133.4098 H   0  0  0  0  0  0  0  0  0  0  0  0
   -7.0913   43.5348  125.2833 H   0  0  0  0  0  0  0  0  0  0  0  0
   -7.7325   42.4923  126.2452 H   0  0  0  0  0  0  0  0  0  0  0  0
   -9.9632   45.0006  128.5657 H   0  0  0  0  0  0  0  0  0  0  0  0
   -9.0527   44.2609  126.4584 H   0  0  0  0  0  0  0  0  0  0  0  0
   -7.7962   46.7593  128.9003 H   0  0  0  0  0  0  0  0  0  0  0  0
   -7.7909   45.8719  125.4383 H   0  0  0  0  0  0  0  0  0  0  0  0
   -9.5236   46.6880  126.7058 H   0  0  0  0  0  0  0  0  0  0  0  0
  1  9  1  0  0  0  0
  2  9  2  0  0  0  0
  3 14  1  0  0  0  0
  3 22  1  0  0  0  0
  4 19  1  0  0  0  0
  4 23  1  0  0  0  0
  5 20  1  0  0  0  0
  5 24  1  0  0  0  0
  6 21  1  0  0  0  0
  6 25  1  0  0  0  0
  7 15  1  0  0  0  0
  7 17  1  0  0  0  0
  8 17  1  0  0  0  0
  8 18  1  0  0  0  0
  9 16  1  0  0  0  0
 10 11  2  0  0  0  0
 10 12  1  0  0  0  0
 10 26  1  0  0  0  0
 11 13  1  0  0  0  0
 11 27  1  0  0  0  0
 12 15  2  0  0  0  0
 12 28  1  0  0  0  0
 13 16  2  0  0  0  0
 13 29  1  0  0  0  0
 14 18  1  0  0  0  0
 14 30  1  0  0  0  0
 14 31  1  0  0  0  0
 15 16  1  0  0  0  0
 17 19  1  0  0  0  0
 17 32  1  0  0  0  0
 18 20  1  0  0  0  0
 18 33  1  0  0  0  0
 19 21  1  0  0  0  0
 19 34  1  0  0  0  0
 20 21  1  0  0  0  0
 20 35  1  0  0  0  0
 21 36  1  0  0  0  0
M  CHG  2   1  -1   9   1
M  END
> <pdb_id>
6ARM

> <uniprot_id>
Q1RBS0

> <usmiles>
[O-][N+](=O)c1c(O[C@@H]2O[C@@H]([C@H](O)[C@H](O)[C@H]2O)CO)cccc1

$$$$
147_B_1002
          07192422123D 1   1.00000     0.00000     0
            
 36 37  0  0  0  0            999 V2000
   18.2888   19.4723   69.7724 O   0  5  0  0  0  0  0  0  0  0  0  0
   16.7899   21.1782   69.5058 O   0  0  0  0  0  0  0  0  0  0  0  0
   15.5379   15.3122   63.4586 O   0  0  0  0  0  0  0  0  0  0  0  0
   12.3864   13.7132   68.6898 O   0  0  0  0  0  0  0  0  0  0  0  0
   12.1969   13.2755   64.4865 O   0  0  0  0  0  0  0  0  0  0  0  0
   11.8735   11.7946   66.7325 O   0  0  0  0  0  0  0  0  0  0  0  0
   13.0825   16.2325   67.6510 O   0  0  0  0  0  0  0  0  0  0  0  0
   13.9703   15.2616   65.8279 O   0  0  0  0  0  0  0  0  0  0  0  0
   17.0778   19.9097   69.4154 N   0  3  0  0  0  0  0  0  0  0  0  0
   14.6232   14.3358   63.7031 C   0  0  0  0  0  0  0  0  0  0  0  0
   13.7737   18.4615   68.3797 C   0  0  0  0  0  0  0  0  0  0  0  0
   15.4118   16.7572   68.2015 C   0  0  0  0  0  0  0  0  0  0  0  0
   14.7870   19.3866   68.8263 C   0  0  0  0  0  0  0  0  0  0  0  0
   16.4112   17.6679   68.6423 C   0  0  0  0  0  0  0  0  0  0  0  0
   13.6479   15.0546   67.1550 C   0  0  2  0  0  0  0  0  0  0  0  0
   14.1195   17.1689   68.0776 C   0  0  0  0  0  0  0  0  0  0  0  0
   14.3756   14.0268   65.1469 C   0  0  2  0  0  0  0  0  0  0  0  0
   12.6250   13.9590   67.3169 C   0  0  1  0  0  0  0  0  0  0  0  0
   13.3661   12.9366   65.2911 C   0  0  1  0  0  0  0  0  0  0  0  0
   13.0074   12.7232   66.6381 C   0  0  2  0  0  0  0  0  0  0  0  0
   16.0679   18.9749   68.9483 C   0  0  0  0  0  0  0  0  0  0  0  0
   15.6307   15.4424   62.4715 H   0  0  0  0  0  0  0  0  0  0  0  0
   11.7071   12.9855   68.7851 H   0  0  0  0  0  0  0  0  0  0  0  0
   11.5114   12.5527   64.5737 H   0  0  0  0  0  0  0  0  0  0  0  0
   12.1065   10.9364   66.2750 H   0  0  0  0  0  0  0  0  0  0  0  0
   14.9417   13.4980   63.2596 H   0  0  0  0  0  0  0  0  0  0  0  0
   13.7548   14.6191   63.2960 H   0  0  0  0  0  0  0  0  0  0  0  0
   12.8238   18.7613   68.2909 H   0  0  0  0  0  0  0  0  0  0  0  0
   15.6584   15.8132   67.9821 H   0  0  0  0  0  0  0  0  0  0  0  0
   14.5415   20.3309   69.0451 H   0  0  0  0  0  0  0  0  0  0  0  0
   17.3601   17.3655   68.7314 H   0  0  0  0  0  0  0  0  0  0  0  0
   14.4726   14.8289   67.6737 H   0  0  0  0  0  0  0  0  0  0  0  0
   15.2346   13.7136   65.5518 H   0  0  0  0  0  0  0  0  0  0  0  0
   11.7688   14.2782   66.9105 H   0  0  0  0  0  0  0  0  0  0  0  0
   13.7616   12.0911   64.9322 H   0  0  0  0  0  0  0  0  0  0  0  0
   13.7887   12.3236   67.1176 H   0  0  0  0  0  0  0  0  0  0  0  0
  1  9  1  0  0  0  0
  2  9  2  0  0  0  0
  3 10  1  0  0  0  0
  4 18  1  0  0  0  0
  5 19  1  0  0  0  0
  6 20  1  0  0  0  0
  7 15  1  0  0  0  0
  7 16  1  0  0  0  0
  8 15  1  0  0  0  0
  8 17  1  0  0  0  0
  9 21  1  0  0  0  0
 10 17  1  0  0  0  0
 11 13  1  0  0  0  0
 11 16  2  0  0  0  0
 12 14  2  0  0  0  0
 12 16  1  0  0  0  0
 13 21  2  0  0  0  0
 14 21  1  0  0  0  0
 15 18  1  0  0  0  0
 17 19  1  0  0  0  0
 18 20  1  0  0  0  0
 19 20  1  0  0  0  0
  3 22  1  0  0  0  0
  4 23  1  0  0  0  0
  5 24  1  0  0  0  0
  6 25  1  0  0  0  0
 10 26  1  0  0  0  0
 10 27  1  0  0  0  0
 11 28  1  0  0  0  0
 12 29  1  0  0  0  0
 13 30  1  0  0  0  0
 14 31  1  0  0  0  0
 15 32  1  0  0  0  0
 17 33  1  0  0  0  0
 18 34  1  0  0  0  0
 19 35  1  0  0  0  0
 20 36  1  0  0  0  0
M  CHG  2   1  -1   9   1
M  END
> <pdb_id>
3ZYF

> <uniprot_id>
Q05097

> <usmiles>
[O-][N+](=O)c1ccc(O[C@@H]2O[C@@H]([C@H](O)[C@H](O)[C@H]2O)CO)cc1

$$$$
149_D_2001
          07192419033D 1   1.00000     0.00000     0
            
 22 22  0  0  0  0            999 V2000
  -15.6138   23.7820  -28.0125 O   0  0  0  0  0  0  0  0  0  0  0  0
  -11.2772   21.2762  -25.0514 O   0  0  0  0  0  0  0  0  0  0  0  0
  -12.1316   22.4464  -22.7318 O   0  0  0  0  0  0  0  0  0  0  0  0
  -13.8383   24.8231  -23.2091 O   0  0  0  0  0  0  0  0  0  0  0  0
  -13.1223   24.8817  -26.0602 O   0  0  0  0  0  0  0  0  0  0  0  0
  -13.1196   21.8817  -26.2148 O   0  0  0  0  0  0  0  0  0  0  0  0
  -14.4198   23.0156  -27.8095 C   0  0  0  0  0  0  0  0  0  0  0  0
  -12.2148   22.0373  -25.0868 C   0  0  0  0  0  0  0  0  0  0  0  0
  -12.3787   23.0708  -24.0015 C   0  0  1  0  0  0  0  0  0  0  0  0
  -13.7763   23.6642  -24.0488 C   0  0  2  0  0  0  0  0  0  0  0  0
  -14.1278   24.0280  -25.4923 C   0  0  2  0  0  0  0  0  0  0  0  0
  -14.2530   22.7454  -26.3190 C   0  0  2  0  0  0  0  0  0  0  0  0
  -15.7312   23.9639  -28.9888 H   0  0  0  0  0  0  0  0  0  0  0  0
  -12.2371   23.1218  -22.0020 H   0  0  0  0  0  0  0  0  0  0  0  0
  -14.7596   25.2105  -23.2431 H   0  0  0  0  0  0  0  0  0  0  0  0
  -13.3701   25.1076  -27.0023 H   0  0  0  0  0  0  0  0  0  0  0  0
  -13.6306   23.5280  -28.1480 H   0  0  0  0  0  0  0  0  0  0  0  0
  -14.4901   22.1480  -28.3019 H   0  0  0  0  0  0  0  0  0  0  0  0
  -11.7094   23.8005  -24.1420 H   0  0  0  0  0  0  0  0  0  0  0  0
  -14.4302   22.9850  -23.7155 H   0  0  0  0  0  0  0  0  0  0  0  0
  -15.0050   24.5079  -25.5022 H   0  0  0  0  0  0  0  0  0  0  0  0
  -15.0578   22.2451  -25.9998 H   0  0  0  0  0  0  0  0  0  0  0  0
  1  7  1  0  0  0  0
  2  8  2  0  0  0  0
  3  9  1  0  0  0  0
  4 10  1  0  0  0  0
  5 11  1  0  0  0  0
  6  8  1  0  0  0  0
  6 12  1  0  0  0  0
  7 12  1  0  0  0  0
  8  9  1  0  0  0  0
  9 10  1  0  0  0  0
 10 11  1  0  0  0  0
 11 12  1  0  0  0  0
  1 13  1  0  0  0  0
  3 14  1  0  0  0  0
  4 15  1  0  0  0  0
  5 16  1  0  0  0  0
  7 17  1  0  0  0  0
  7 18  1  0  0  0  0
  9 19  1  0  0  0  0
 10 20  1  0  0  0  0
 11 21  1  0  0  0  0
 12 22  1  0  0  0  0
M  END
> <pdb_id>
3T09

> <uniprot_id>
P00722

> <usmiles>
O=C1O[C@@H]([C@H](O)[C@H](O)[C@H]1O)CO

$$$$
14I_A_332
          07202401373D 1   1.00000     0.00000     0
            
 30 33  0  0  0  0            999 V2000
   22.2094  -27.8772   17.6118 O   0  0  0  0  0  0  0  0  0  0  0  0
   22.1852  -26.0924   16.3471 O   0  0  0  0  0  0  0  0  0  0  0  0
   22.9180  -36.4172   15.3681 O   0  0  0  0  0  0  0  0  0  0  0  0
   22.7163  -34.9202   16.9952 O   0  0  0  0  0  0  0  0  0  0  0  0
   22.4556  -27.5100   14.0526 O   0  0  0  0  0  0  0  0  0  0  0  0
   23.0010  -34.5897   13.4292 O   0  0  0  0  0  0  0  0  0  0  0  0
   22.6895  -28.4267   11.7115 C   0  0  0  0  0  0  0  0  0  0  0  0
   23.0671  -33.2684   11.2922 C   0  0  0  0  0  0  0  0  0  0  0  0
   22.8340  -29.6014   10.9721 C   0  0  0  0  0  0  0  0  0  0  0  0
   23.0158  -31.9916   10.7657 C   0  0  0  0  0  0  0  0  0  0  0  0
   22.5099  -29.5425   15.2119 C   0  0  0  0  0  0  0  0  0  0  0  0
   22.7513  -32.8195   14.9304 C   0  0  0  0  0  0  0  0  0  0  0  0
   22.2617  -27.3248   16.5009 C   0  0  0  0  0  0  0  0  0  0  0  0
   22.8233  -35.2428   15.7891 C   0  0  0  0  0  0  0  0  0  0  0  0
   22.4040  -28.1422   15.2724 C   0  0  0  0  0  0  0  0  0  0  0  0
   22.8555  -34.2034   14.7388 C   0  0  0  0  0  0  0  0  0  0  0  0
   22.5918  -28.5342   13.0915 C   0  0  0  0  0  0  0  0  0  0  0  0
   22.9639  -33.4129   12.6657 C   0  0  0  0  0  0  0  0  0  0  0  0
   22.8731  -30.8620   11.5846 C   0  0  0  0  0  0  0  0  0  0  0  0
   22.6312  -29.8187   13.8022 C   0  0  0  0  0  0  0  0  0  0  0  0
   22.8199  -32.2830   13.5936 C   0  0  0  0  0  0  0  0  0  0  0  0
   22.7648  -30.9942   13.0729 C   0  0  0  0  0  0  0  0  0  0  0  0
   22.2760  -28.8727   17.6788 H   0  0  0  0  0  0  0  0  0  0  0  0
   23.0002  -36.5915   14.3869 H   0  0  0  0  0  0  0  0  0  0  0  0
   22.6572  -27.5347   11.2606 H   0  0  0  0  0  0  0  0  0  0  0  0
   23.1756  -34.0654   10.6981 H   0  0  0  0  0  0  0  0  0  0  0  0
   22.9120  -29.5424    9.9769 H   0  0  0  0  0  0  0  0  0  0  0  0
   23.0821  -31.8701    9.7753 H   0  0  0  0  0  0  0  0  0  0  0  0
   22.5027  -30.1949   15.9698 H   0  0  0  0  0  0  0  0  0  0  0  0
   22.6525  -32.3210   15.7916 H   0  0  0  0  0  0  0  0  0  0  0  0
  1 13  1  0  0  0  0
  2 13  2  0  0  0  0
  3 14  1  0  0  0  0
  4 14  2  0  0  0  0
  5 15  1  0  0  0  0
  5 17  1  0  0  0  0
  6 16  1  0  0  0  0
  6 18  1  0  0  0  0
  7  9  2  0  0  0  0
  7 17  1  0  0  0  0
  8 10  1  0  0  0  0
  8 18  2  0  0  0  0
  9 19  1  0  0  0  0
 10 19  2  0  0  0  0
 11 15  2  0  0  0  0
 11 20  1  0  0  0  0
 12 16  2  0  0  0  0
 12 21  1  0  0  0  0
 13 15  1  0  0  0  0
 14 16  1  0  0  0  0
 17 20  2  0  0  0  0
 18 21  1  0  0  0  0
 19 22  1  0  0  0  0
 20 22  1  0  0  0  0
 21 22  2  0  0  0  0
  1 23  1  0  0  0  0
  3 24  1  0  0  0  0
  7 25  1  0  0  0  0
  8 26  1  0  0  0  0
  9 27  1  0  0  0  0
 10 28  1  0  0  0  0
 11 29  1  0  0  0  0
 12 30  1  0  0  0  0
M  END
> <pdb_id>
3MB7

> <uniprot_id>
P68400

> <usmiles>
O=C(O)C=1Oc2c(c3c4c(OC(C(=O)O)=C4)ccc3cc2)C1

$$$$
14X_A_201
          07212401333D 1   1.00000     0.00000     0
            
 37 39  0  0  0  0            999 V2000
  -13.1373  -21.0621  -16.7297 S   0  0  0  0  0  0  0  0  0  0  0  0
  -12.2481  -22.0779  -16.2247 O   0  0  0  0  0  0  0  0  0  0  0  0
  -12.9906  -19.7128  -16.9165 O   0  0  0  0  0  0  0  0  0  0  0  0
  -17.0639  -23.3870  -23.1844 O   0  0  0  0  0  0  0  0  0  0  0  0
  -15.4904  -23.4331  -21.6274 N   0  0  0  0  0  0  0  0  0  0  0  0
  -14.5049  -21.1379  -15.8608 N   0  0  0  0  0  0  0  0  0  0  0  0
  -16.3583  -21.3833  -22.3141 N   0  0  0  0  0  0  0  0  0  0  0  0
  -17.4044  -20.5806  -23.0538 C   0  0  0  0  0  0  0  0  0  0  0  0
  -15.5902  -20.1034  -15.9927 C   0  0  0  0  0  0  0  0  0  0  0  0
  -15.0038  -22.2604  -15.0078 C   0  0  0  0  0  0  0  0  0  0  0  0
  -15.3026  -20.6537  -21.5132 C   0  0  0  0  0  0  0  0  0  0  0  0
  -16.5785  -20.5224  -14.9451 C   0  0  0  0  0  0  0  0  0  0  0  0
  -16.4793  -22.0474  -14.9720 C   0  0  0  0  0  0  0  0  0  0  0  0
  -13.6435  -23.1133  -18.4604 C   0  0  0  0  0  0  0  0  0  0  0  0
  -14.1406  -23.6874  -19.6086 C   0  0  0  0  0  0  0  0  0  0  0  0
  -14.2670  -20.8829  -19.1822 C   0  0  0  0  0  0  0  0  0  0  0  0
  -16.3209  -22.7108  -22.5008 C   0  0  0  0  0  0  0  0  0  0  0  0
  -13.7055  -21.7250  -18.2174 C   0  0  0  0  0  0  0  0  0  0  0  0
  -14.7664  -22.8380  -20.5198 C   0  0  0  0  0  0  0  0  0  0  0  0
  -14.7799  -21.4556  -20.3391 C   0  0  0  0  0  0  0  0  0  0  0  0
  -15.3924  -24.4167  -21.7784 H   0  0  0  0  0  0  0  0  0  0  0  0
  -18.0252  -21.2022  -23.5315 H   0  0  0  0  0  0  0  0  0  0  0  0
  -17.9229  -20.0276  -22.4016 H   0  0  0  0  0  0  0  0  0  0  0  0
  -16.9569  -19.9812  -23.7174 H   0  0  0  0  0  0  0  0  0  0  0  0
  -16.0004  -20.1260  -16.9044 H   0  0  0  0  0  0  0  0  0  0  0  0
  -15.2375  -19.1859  -15.8085 H   0  0  0  0  0  0  0  0  0  0  0  0
  -14.6137  -22.2103  -14.0884 H   0  0  0  0  0  0  0  0  0  0  0  0
  -14.7809  -23.1453  -15.4167 H   0  0  0  0  0  0  0  0  0  0  0  0
  -15.6988  -19.8038  -21.1658 H   0  0  0  0  0  0  0  0  0  0  0  0
  -14.5357  -20.4410  -22.1187 H   0  0  0  0  0  0  0  0  0  0  0  0
  -17.5018  -20.2178  -15.1792 H   0  0  0  0  0  0  0  0  0  0  0  0
  -16.3260  -20.1613  -14.0474 H   0  0  0  0  0  0  0  0  0  0  0  0
  -16.8853  -22.4526  -14.1529 H   0  0  0  0  0  0  0  0  0  0  0  0
  -16.9210  -22.4261  -15.7853 H   0  0  0  0  0  0  0  0  0  0  0  0
  -13.2221  -23.7033  -17.7717 H   0  0  0  0  0  0  0  0  0  0  0  0
  -14.0567  -24.6688  -19.7812 H   0  0  0  0  0  0  0  0  0  0  0  0
  -14.2985  -19.8931  -19.0427 H   0  0  0  0  0  0  0  0  0  0  0  0
  1  2  2  0  0  0  0
  1  3  2  0  0  0  0
  1  6  1  0  0  0  0
  1 18  1  0  0  0  0
  4 17  2  0  0  0  0
  5 17  1  0  0  0  0
  5 19  1  0  0  0  0
  6  9  1  0  0  0  0
  6 10  1  0  0  0  0
  7  8  1  0  0  0  0
  7 11  1  0  0  0  0
  7 17  1  0  0  0  0
  9 12  1  0  0  0  0
 10 13  1  0  0  0  0
 11 20  1  0  0  0  0
 12 13  1  0  0  0  0
 14 15  1  0  0  0  0
 14 18  2  0  0  0  0
 15 19  2  0  0  0  0
 16 18  1  0  0  0  0
 16 20  2  0  0  0  0
 19 20  1  0  0  0  0
  5 21  1  0  0  0  0
  8 22  1  0  0  0  0
  8 23  1  0  0  0  0
  8 24  1  0  0  0  0
  9 25  1  0  0  0  0
  9 26  1  0  0  0  0
 10 27  1  0  0  0  0
 10 28  1  0  0  0  0
 11 29  1  0  0  0  0
 11 30  1  0  0  0  0
 12 31  1  0  0  0  0
 12 32  1  0  0  0  0
 13 33  1  0  0  0  0
 13 34  1  0  0  0  0
 14 35  1  0  0  0  0
 15 36  1  0  0  0  0
 16 37  1  0  0  0  0
M  END
> <pdb_id>
4HBX

> <uniprot_id>
O60885

> <usmiles>
S(=O)(=O)(N1CCCC1)c2cc3c(NC(=O)N(C3)C)cc2

$$$$
14Z_A_202
          07212401333D 1   1.00000     0.00000     0
            
 33 34  0  0  0  0            999 V2000
  -13.2333  -21.0340  -16.9006 S   0  0  0  0  0  0  0  0  0  0  0  0
  -11.9177  -21.7405  -16.7539 O   0  0  0  0  0  0  0  0  0  0  0  0
  -13.3060  -19.6536  -17.3033 O   0  0  0  0  0  0  0  0  0  0  0  0
  -16.9808  -23.5440  -23.4385 O   0  0  0  0  0  0  0  0  0  0  0  0
  -14.3536  -21.5807  -15.9334 N   0  0  0  0  0  0  0  0  0  0  0  0
  -15.3487  -23.6414  -21.8726 N   0  0  0  0  0  0  0  0  0  0  0  0
  -16.4107  -21.5415  -22.4988 N   0  0  0  0  0  0  0  0  0  0  0  0
  -17.3424  -20.7115  -23.3590 C   0  0  0  0  0  0  0  0  0  0  0  0
  -16.6680  -21.6809  -15.1343 C   0  0  0  0  0  0  0  0  0  0  0  0
  -15.7071  -21.0439  -16.1449 C   0  0  0  0  0  0  0  0  0  0  0  0
  -15.5037  -20.7226  -21.6319 C   0  0  0  0  0  0  0  0  0  0  0  0
  -13.7774  -23.1975  -18.5818 C   0  0  0  0  0  0  0  0  0  0  0  0
  -14.2806  -23.7966  -19.7287 C   0  0  0  0  0  0  0  0  0  0  0  0
  -14.3819  -21.0091  -19.4133 C   0  0  0  0  0  0  0  0  0  0  0  0
  -16.2498  -22.9230  -22.6708 C   0  0  0  0  0  0  0  0  0  0  0  0
  -13.8189  -21.8213  -18.3943 C   0  0  0  0  0  0  0  0  0  0  0  0
  -14.7569  -23.0073  -20.7692 C   0  0  0  0  0  0  0  0  0  0  0  0
  -14.8510  -21.6375  -20.5756 C   0  0  0  0  0  0  0  0  0  0  0  0
  -14.0813  -21.3632  -14.9961 H   0  0  0  0  0  0  0  0  0  0  0  0
  -15.1304  -24.5935  -22.0867 H   0  0  0  0  0  0  0  0  0  0  0  0
  -17.9165  -21.3176  -23.9094 H   0  0  0  0  0  0  0  0  0  0  0  0
  -17.9217  -20.1453  -22.7726 H   0  0  0  0  0  0  0  0  0  0  0  0
  -16.8037  -20.1237  -23.9627 H   0  0  0  0  0  0  0  0  0  0  0  0
  -17.5890  -21.3179  -15.2755 H   0  0  0  0  0  0  0  0  0  0  0  0
  -16.6772  -22.6726  -15.2625 H   0  0  0  0  0  0  0  0  0  0  0  0
  -16.3645  -21.4677  -14.2056 H   0  0  0  0  0  0  0  0  0  0  0  0
  -16.0097  -21.2570  -17.0738 H   0  0  0  0  0  0  0  0  0  0  0  0
  -15.6969  -20.0522  -16.0169 H   0  0  0  0  0  0  0  0  0  0  0  0
  -16.0333  -20.0082  -21.1745 H   0  0  0  0  0  0  0  0  0  0  0  0
  -14.7928  -20.3015  -22.1952 H   0  0  0  0  0  0  0  0  0  0  0  0
  -13.3736  -23.7727  -17.8705 H   0  0  0  0  0  0  0  0  0  0  0  0
  -14.3004  -24.7934  -19.8060 H   0  0  0  0  0  0  0  0  0  0  0  0
  -14.4422  -20.0168  -19.3052 H   0  0  0  0  0  0  0  0  0  0  0  0
  1  2  2  0  0  0  0
  1  3  2  0  0  0  0
  1  5  1  0  0  0  0
  1 16  1  0  0  0  0
  4 15  2  0  0  0  0
  5 10  1  0  0  0  0
  6 15  1  0  0  0  0
  6 17  1  0  0  0  0
  7  8  1  0  0  0  0
  7 11  1  0  0  0  0
  7 15  1  0  0  0  0
  9 10  1  0  0  0  0
 11 18  1  0  0  0  0
 12 13  1  0  0  0  0
 12 16  2  0  0  0  0
 13 17  2  0  0  0  0
 14 16  1  0  0  0  0
 14 18  2  0  0  0  0
 17 18  1  0  0  0  0
  5 19  1  0  0  0  0
  6 20  1  0  0  0  0
  8 21  1  0  0  0  0
  8 22  1  0  0  0  0
  8 23  1  0  0  0  0
  9 24  1  0  0  0  0
  9 25  1  0  0  0  0
  9 26  1  0  0  0  0
 10 27  1  0  0  0  0
 10 28  1  0  0  0  0
 11 29  1  0  0  0  0
 11 30  1  0  0  0  0
 12 31  1  0  0  0  0
 13 32  1  0  0  0  0
 14 33  1  0  0  0  0
M  END
> <pdb_id>
4HBW

> <uniprot_id>
O60885

> <usmiles>
S(=O)(=O)(NCC)c1cc2c(NC(=O)N(C2)C)cc1

$$$$
156_A_450
          07192417143D 1   1.00000     0.00000     0
            
 53 55  0  0  0  0            999 V2000
   34.3647   19.2506   87.8016 O   0  0  0  0  0  0  0  0  0  0  0  0
   34.1769   17.7056   89.3677 O   0  0  0  0  0  0  0  0  0  0  0  0
   39.4484   11.8969   84.3637 O   0  0  0  0  0  0  0  0  0  0  0  0
   44.4234   16.8960   82.1701 C   0  0  0  0  0  0  0  0  0  0  0  0
   45.7889   14.9673   82.9157 C   0  0  0  0  0  0  0  0  0  0  0  0
   42.0085   13.6204   79.7480 C   0  0  0  0  0  0  0  0  0  0  0  0
   42.9354   11.5758   80.8107 C   0  0  0  0  0  0  0  0  0  0  0  0
   38.8443   13.8327   85.5023 C   0  0  0  0  0  0  0  0  0  0  0  0
   38.6251   15.1302   85.4603 C   0  0  0  0  0  0  0  0  0  0  0  0
   37.6092   17.3117   86.0038 C   0  0  0  0  0  0  0  0  0  0  0  0
   36.9428   15.3866   87.2121 C   0  0  0  0  0  0  0  0  0  0  0  0
   36.6554   17.9911   86.7088 C   0  0  0  0  0  0  0  0  0  0  0  0
   36.0402   16.0989   88.0140 C   0  0  0  0  0  0  0  0  0  0  0  0
   41.7132   14.6830   84.6023 C   0  0  0  0  0  0  0  0  0  0  0  0
   42.8168   15.1893   83.9825 C   0  0  0  0  0  0  0  0  0  0  0  0
   41.4336   13.1779   82.7895 C   0  0  0  0  0  0  0  0  0  0  0  0
   44.6387   14.9960   80.6574 C   0  0  0  0  0  0  0  0  0  0  0  0
   44.4299   13.5173   80.4384 C   0  0  0  0  0  0  0  0  0  0  0  0
   34.7055   18.0971   88.3663 C   0  0  0  0  0  0  0  0  0  0  0  0
   39.7837   13.0723   84.6424 C   0  0  0  0  0  0  0  0  0  0  0  0
   37.7377   15.9435   86.2311 C   0  0  0  0  0  0  0  0  0  0  0  0
   35.7453   17.4724   87.5841 C   0  0  0  0  0  0  0  0  0  0  0  0
   40.9835   13.6544   84.0164 C   0  0  0  0  0  0  0  0  0  0  0  0
   43.2850   14.7308   82.7586 C   0  0  0  0  0  0  0  0  0  0  0  0
   42.5702   13.6851   82.1357 C   0  0  0  0  0  0  0  0  0  0  0  0
   44.5290   15.3678   82.1505 C   0  0  0  0  0  0  0  0  0  0  0  0
   42.9797   13.0877   80.7810 C   0  0  0  0  0  0  0  0  0  0  0  0
   34.8229   19.5527   86.9657 H   0  0  0  0  0  0  0  0  0  0  0  0
   43.6033   17.1799   81.6733 H   0  0  0  0  0  0  0  0  0  0  0  0
   44.3667   17.2141   83.1165 H   0  0  0  0  0  0  0  0  0  0  0  0
   45.2314   17.2916   81.7334 H   0  0  0  0  0  0  0  0  0  0  0  0
   45.8769   13.9712   82.9149 H   0  0  0  0  0  0  0  0  0  0  0  0
   46.5896   15.3730   82.4751 H   0  0  0  0  0  0  0  0  0  0  0  0
   45.7249   15.2955   83.8582 H   0  0  0  0  0  0  0  0  0  0  0  0
   42.0472   14.6196   79.7382 H   0  0  0  0  0  0  0  0  0  0  0  0
   42.2557   13.2684   78.8453 H   0  0  0  0  0  0  0  0  0  0  0  0
   41.0814   13.3250   79.9786 H   0  0  0  0  0  0  0  0  0  0  0  0
   43.5803   11.2368   81.4957 H   0  0  0  0  0  0  0  0  0  0  0  0
   42.0113   11.2739   81.0446 H   0  0  0  0  0  0  0  0  0  0  0  0
   43.1856   11.2173   79.9113 H   0  0  0  0  0  0  0  0  0  0  0  0
   38.3275   13.3091   86.1796 H   0  0  0  0  0  0  0  0  0  0  0  0
   39.1658   15.6259   84.7807 H   0  0  0  0  0  0  0  0  0  0  0  0
   38.1966   17.7823   85.3454 H   0  0  0  0  0  0  0  0  0  0  0  0
   37.0161   14.4007   87.3623 H   0  0  0  0  0  0  0  0  0  0  0  0
   36.6203   18.9804   86.5672 H   0  0  0  0  0  0  0  0  0  0  0  0
   35.6226   15.6968   88.8288 H   0  0  0  0  0  0  0  0  0  0  0  0
   41.4260   15.0543   85.4853 H   0  0  0  0  0  0  0  0  0  0  0  0
   43.3154   15.9298   84.4332 H   0  0  0  0  0  0  0  0  0  0  0  0
   40.9235   12.4380   82.3509 H   0  0  0  0  0  0  0  0  0  0  0  0
   43.9446   15.5015   80.1448 H   0  0  0  0  0  0  0  0  0  0  0  0
   45.5477   15.2483   80.3257 H   0  0  0  0  0  0  0  0  0  0  0  0
   45.0647   13.0103   81.0215 H   0  0  0  0  0  0  0  0  0  0  0  0
   44.6139   13.3023   79.4793 H   0  0  0  0  0  0  0  0  0  0  0  0
  1 19  1  0  0  0  0
  2 19  2  0  0  0  0
  3 20  2  0  0  0  0
  4 26  1  0  0  0  0
  5 26  1  0  0  0  0
  6 27  1  0  0  0  0
  7 27  1  0  0  0  0
  8  9  2  0  0  0  0
  8 20  1  0  0  0  0
  9 21  1  0  0  0  0
 10 12  1  0  0  0  0
 10 21  2  0  0  0  0
 11 13  2  0  0  0  0
 11 21  1  0  0  0  0
 12 22  2  0  0  0  0
 13 22  1  0  0  0  0
 14 15  1  0  0  0  0
 14 23  2  0  0  0  0
 15 24  2  0  0  0  0
 16 23  1  0  0  0  0
 16 25  2  0  0  0  0
 17 18  1  0  0  0  0
 17 26  1  0  0  0  0
 18 27  1  0  0  0  0
 19 22  1  0  0  0  0
 20 23  1  0  0  0  0
 24 25  1  0  0  0  0
 24 26  1  0  0  0  0
 25 27  1  0  0  0  0
  1 28  1  0  0  0  0
  4 29  1  0  0  0  0
  4 30  1  0  0  0  0
  4 31  1  0  0  0  0
  5 32  1  0  0  0  0
  5 33  1  0  0  0  0
  5 34  1  0  0  0  0
  6 35  1  0  0  0  0
  6 36  1  0  0  0  0
  6 37  1  0  0  0  0
  7 38  1  0  0  0  0
  7 39  1  0  0  0  0
  7 40  1  0  0  0  0
  8 41  1  0  0  0  0
  9 42  1  0  0  0  0
 10 43  1  0  0  0  0
 11 44  1  0  0  0  0
 12 45  1  0  0  0  0
 13 46  1  0  0  0  0
 14 47  1  0  0  0  0
 15 48  1  0  0  0  0
 16 49  1  0  0  0  0
 17 50  1  0  0  0  0
 17 51  1  0  0  0  0
 18 52  1  0  0  0  0
 18 53  1  0  0  0  0
M  END
> <pdb_id>
1FCZ

> <uniprot_id>
P13631

> <usmiles>
O=C(O)c1ccc(cc1)/C=C/C(=O)c2cc3c(cc2)C(CCC3(C)C)(C)C

$$$$
15A_B_1867
          07192417363D 1   1.00000     0.00000     0
            
 32 32  0  0  0  0            999 V2000
  -17.4661   61.3760   48.1533 O   0  0  0  0  0  0  0  0  0  0  0  0
  -20.0092   57.3826   46.1950 O   0  0  0  0  0  0  0  0  0  0  0  0
  -18.7628   55.5670   47.8304 O   0  0  0  0  0  0  0  0  0  0  0  0
  -17.7603   59.3415   45.0583 O   0  0  0  0  0  0  0  0  0  0  0  0
  -21.3429   58.7883   51.0980 N   0  0  0  0  0  0  0  0  0  0  0  0
  -18.7492   57.3367   49.9566 N   0  0  0  0  0  0  0  0  0  0  0  0
  -17.4457   58.8149   48.6543 N   0  0  0  0  0  0  0  0  0  0  0  0
  -19.9572   59.3319   50.9279 C   0  0  0  0  0  0  0  0  0  0  0  0
  -16.5210   60.6663   47.5072 C   0  0  0  0  0  0  0  0  0  0  0  0
  -18.9431   58.1831   51.0972 C   0  0  0  0  0  0  0  0  0  0  0  0
  -18.6626   57.4400   46.3087 C   0  0  2  0  0  0  0  0  0  0  0  0
  -18.1290   56.7171   47.5910 C   0  0  1  0  0  0  0  0  0  0  0  0
  -18.1182   58.9281   46.2757 C   0  0  1  0  0  0  0  0  0  0  0  0
  -18.1215   57.6558   48.8207 C   0  0  0  0  0  0  0  0  0  0  0  0
  -17.0139   59.2342   47.3507 C   0  0  2  0  0  0  0  0  0  0  0  0
  -17.1565   62.3204   48.2639 H   0  0  0  0  0  0  0  0  0  0  0  0
  -20.2940   57.8577   45.3624 H   0  0  0  0  0  0  0  0  0  0  0  0
  -18.3878   55.1452   48.6559 H   0  0  0  0  0  0  0  0  0  0  0  0
  -17.4283   60.2833   45.1102 H   0  0  0  0  0  0  0  0  0  0  0  0
  -22.0068   59.5282   50.9895 H   0  0  0  0  0  0  0  0  0  0  0  0
  -21.5120   58.0848   50.4078 H   0  0  0  0  0  0  0  0  0  0  0  0
  -19.1226   56.4110   50.0172 H   0  0  0  0  0  0  0  0  0  0  0  0
  -19.7858   60.0349   51.6181 H   0  0  0  0  0  0  0  0  0  0  0  0
  -19.8631   59.7305   50.0156 H   0  0  0  0  0  0  0  0  0  0  0  0
  -15.6723   60.6750   48.0361 H   0  0  0  0  0  0  0  0  0  0  0  0
  -16.3560   61.0666   46.6058 H   0  0  0  0  0  0  0  0  0  0  0  0
  -18.0590   58.5884   51.3301 H   0  0  0  0  0  0  0  0  0  0  0  0
  -19.2561   57.6088   51.8536 H   0  0  0  0  0  0  0  0  0  0  0  0
  -18.2770   56.9650   45.5176 H   0  0  0  0  0  0  0  0  0  0  0  0
  -17.1744   56.4822   47.4077 H   0  0  0  0  0  0  0  0  0  0  0  0
  -18.8985   59.4998   46.5294 H   0  0  0  0  0  0  0  0  0  0  0  0
  -16.2174   58.6771   47.1155 H   0  0  0  0  0  0  0  0  0  0  0  0
  1  9  1  0  0  0  0
  2 11  1  0  0  0  0
  3 12  1  0  0  0  0
  4 13  1  0  0  0  0
  5  8  1  0  0  0  0
  6 10  1  0  0  0  0
  6 14  1  0  0  0  0
  7 14  2  0  0  0  0
  7 15  1  0  0  0  0
  8 10  1  0  0  0  0
  9 15  1  0  0  0  0
 11 12  1  0  0  0  0
 11 13  1  0  0  0  0
 12 14  1  0  0  0  0
 13 15  1  0  0  0  0
  1 16  1  0  0  0  0
  2 17  1  0  0  0  0
  3 18  1  0  0  0  0
  4 19  1  0  0  0  0
  5 20  1  0  0  0  0
  5 21  1  0  0  0  0
  6 22  1  0  0  0  0
  8 23  1  0  0  0  0
  8 24  1  0  0  0  0
  9 25  1  0  0  0  0
  9 26  1  0  0  0  0
 10 27  1  0  0  0  0
 10 28  1  0  0  0  0
 11 29  1  0  0  0  0
 12 30  1  0  0  0  0
 13 31  1  0  0  0  0
 15 32  1  0  0  0  0
M  END
> <pdb_id>
2VQT

> <uniprot_id>
Q8AAK6

> <usmiles>
O[C@@H]1C(=N[C@@H]([C@@H](O)[C@@H]1O)CO)NCCN

$$$$
15E_A_203
          07212401333D 1   1.00000     0.00000     0
            
 22 23  0  0  0  0            999 V2000
  -12.7117  -19.6916  -16.7589 Br  0  0  0  0  0  0  0  0  0  0  0  0
  -16.7620  -23.2929  -22.9335 O   0  0  0  0  0  0  0  0  0  0  0  0
  -14.9633  -22.9479  -21.4543 N   0  0  0  0  0  0  0  0  0  0  0  0
  -16.3873  -21.1781  -22.1040 N   0  0  0  0  0  0  0  0  0  0  0  0
  -17.4440  -20.5579  -22.9150 C   0  0  0  0  0  0  0  0  0  0  0  0
  -15.4196  -20.2241  -21.4016 C   0  0  0  0  0  0  0  0  0  0  0  0
  -13.2141  -22.0802  -18.2979 C   0  0  0  0  0  0  0  0  0  0  0  0
  -13.6912  -22.8062  -19.3579 C   0  0  0  0  0  0  0  0  0  0  0  0
  -14.1587  -20.0897  -19.2492 C   0  0  0  0  0  0  0  0  0  0  0  0
  -16.0993  -22.4991  -22.2069 C   0  0  0  0  0  0  0  0  0  0  0  0
  -13.4610  -20.7225  -18.2165 C   0  0  0  0  0  0  0  0  0  0  0  0
  -14.4502  -22.1932  -20.3766 C   0  0  0  0  0  0  0  0  0  0  0  0
  -14.7009  -20.8224  -20.3163 C   0  0  0  0  0  0  0  0  0  0  0  0
  -14.5256  -23.8134  -21.6980 H   0  0  0  0  0  0  0  0  0  0  0  0
  -18.0127  -21.2717  -23.3237 H   0  0  0  0  0  0  0  0  0  0  0  0
  -18.0099  -19.9727  -22.3341 H   0  0  0  0  0  0  0  0  0  0  0  0
  -17.0287  -20.0071  -23.6390 H   0  0  0  0  0  0  0  0  0  0  0  0
  -15.9434  -19.4509  -21.0442 H   0  0  0  0  0  0  0  0  0  0  0  0
  -14.7572  -19.8954  -22.0747 H   0  0  0  0  0  0  0  0  0  0  0  0
  -12.6854  -22.5343  -17.5808 H   0  0  0  0  0  0  0  0  0  0  0  0
  -13.4981  -23.7860  -19.4099 H   0  0  0  0  0  0  0  0  0  0  0  0
  -14.2736  -19.0966  -19.2273 H   0  0  0  0  0  0  0  0  0  0  0  0
  1 11  1  0  0  0  0
  2 10  2  0  0  0  0
  3 10  1  0  0  0  0
  3 12  1  0  0  0  0
  4  5  1  0  0  0  0
  4  6  1  0  0  0  0
  4 10  1  0  0  0  0
  6 13  1  0  0  0  0
  7  8  1  0  0  0  0
  7 11  2  0  0  0  0
  8 12  2  0  0  0  0
  9 11  1  0  0  0  0
  9 13  2  0  0  0  0
 12 13  1  0  0  0  0
  3 14  1  0  0  0  0
  5 15  1  0  0  0  0
  5 16  1  0  0  0  0
  5 17  1  0  0  0  0
  6 18  1  0  0  0  0
  6 19  1  0  0  0  0
  7 20  1  0  0  0  0
  8 21  1  0  0  0  0
  9 22  1  0  0  0  0
M  END
> <pdb_id>
4HBV

> <uniprot_id>
O60885

> <usmiles>
Brc1cc2c(NC(=O)N(C2)C)cc1

$$$$
15E_B_1201
          07192420223D 1   1.00000     0.00000     0
            
 20 21  0  0  0  0            999 V2000
   13.5099   15.2908    8.7149 Br  0  0  0  0  0  0  0  0  0  0  0  0
    5.5200   14.2649    8.4844 O   0  0  0  0  0  0  0  0  0  0  0  0
    7.4521   15.4235    8.4800 N   0  0  0  0  0  0  0  0  0  0  0  0
    7.2887   13.1002    9.1867 N   0  0  0  0  0  0  0  0  0  0  0  0
    6.4409   11.9193    9.4200 C   0  0  0  0  0  0  0  0  0  0  0  0
    8.7362   12.9938    9.4853 C   0  0  0  0  0  0  0  0  0  0  0  0
   10.9540   16.4846    8.1715 C   0  0  0  0  0  0  0  0  0  0  0  0
    9.5561   16.5092    8.1364 C   0  0  0  0  0  0  0  0  0  0  0  0
   10.8642   14.2157    9.0677 C   0  0  0  0  0  0  0  0  0  0  0  0
    6.7105   14.2592    8.7285 C   0  0  0  0  0  0  0  0  0  0  0  0
   11.6020   15.3372    8.6464 C   0  0  0  0  0  0  0  0  0  0  0  0
    8.8245   15.4058    8.5875 C   0  0  0  0  0  0  0  0  0  0  0  0
    9.4654   14.2425    9.0322 C   0  0  0  0  0  0  0  0  0  0  0  0
    5.4951   12.1347    9.1770 H   0  0  0  0  0  0  0  0  0  0  0  0
    6.7652   11.1596    8.8564 H   0  0  0  0  0  0  0  0  0  0  0  0
    6.4867   11.6616   10.3851 H   0  0  0  0  0  0  0  0  0  0  0  0
    9.1712   12.2077    9.9245 H   0  0  0  0  0  0  0  0  0  0  0  0
   11.4831   17.2746    7.8621 H   0  0  0  0  0  0  0  0  0  0  0  0
    9.0793   17.3164    7.7884 H   0  0  0  0  0  0  0  0  0  0  0  0
   11.3399   13.3984    9.3929 H   0  0  0  0  0  0  0  0  0  0  0  0
  1 11  1  0  0  0  0
  2 10  2  0  0  0  0
  3 10  1  0  0  0  0
  3 12  2  0  0  0  0
  4  5  1  0  0  0  0
  4  6  1  0  0  0  0
  4 10  1  0  0  0  0
  6 13  2  0  0  0  0
  7  8  2  0  0  0  0
  7 11  1  0  0  0  0
  8 12  1  0  0  0  0
  9 11  2  0  0  0  0
  9 13  1  0  0  0  0
 12 13  1  0  0  0  0
  5 14  1  0  0  0  0
  5 15  1  0  0  0  0
  5 16  1  0  0  0  0
  6 17  1  0  0  0  0
  7 18  1  0  0  0  0
  8 19  1  0  0  0  0
  9 20  1  0  0  0  0
M  END
> <pdb_id>
4NYV

> <uniprot_id>
Q92793

> <usmiles>
BrC1=CC=2C(=NC(=O)N(C2)C)C=C1

$$$$
15E_C_1201
          07192420223D 1   1.00000     0.00000     0
            
 22 23  0  0  0  0            999 V2000
   13.4914   15.1543    8.6018 Br  0  0  0  0  0  0  0  0  0  0  0  0
    5.5663   14.3369    8.4643 O   0  0  0  0  0  0  0  0  0  0  0  0
    7.5137   15.4071    8.4936 N   0  0  0  0  0  0  0  0  0  0  0  0
    7.3299   13.1336    9.2842 N   0  0  0  0  0  0  0  0  0  0  0  0
    6.5220   11.9101    9.5712 C   0  0  0  0  0  0  0  0  0  0  0  0
    8.7651   13.0389    9.6262 C   0  0  0  0  0  0  0  0  0  0  0  0
   10.9709   16.3223    8.0138 C   0  0  0  0  0  0  0  0  0  0  0  0
    9.5999   16.3874    8.0092 C   0  0  0  0  0  0  0  0  0  0  0  0
   10.8731   14.1649    9.0818 C   0  0  0  0  0  0  0  0  0  0  0  0
    6.7510   14.2831    8.7719 C   0  0  0  0  0  0  0  0  0  0  0  0
   11.5936   15.2209    8.5575 C   0  0  0  0  0  0  0  0  0  0  0  0
    8.8723   15.3447    8.5675 C   0  0  0  0  0  0  0  0  0  0  0  0
    9.4915   14.2343    9.0807 C   0  0  0  0  0  0  0  0  0  0  0  0
    7.0660   16.2642    8.2386 H   0  0  0  0  0  0  0  0  0  0  0  0
    5.5705   12.0696    9.3081 H   0  0  0  0  0  0  0  0  0  0  0  0
    6.8874   11.1393    9.0492 H   0  0  0  0  0  0  0  0  0  0  0  0
    6.5673   11.7023   10.5483 H   0  0  0  0  0  0  0  0  0  0  0  0
    9.1482   12.2058    9.2273 H   0  0  0  0  0  0  0  0  0  0  0  0
    8.8694   13.0110   10.6204 H   0  0  0  0  0  0  0  0  0  0  0  0
   11.5127   17.0679    7.6259 H   0  0  0  0  0  0  0  0  0  0  0  0
    9.1313   17.1751    7.6092 H   0  0  0  0  0  0  0  0  0  0  0  0
   11.3421   13.3646    9.4555 H   0  0  0  0  0  0  0  0  0  0  0  0
  1 11  1  0  0  0  0
  2 10  2  0  0  0  0
  3 10  1  0  0  0  0
  3 12  1  0  0  0  0
  4  5  1  0  0  0  0
  4  6  1  0  0  0  0
  4 10  1  0  0  0  0
  6 13  1  0  0  0  0
  7  8  1  0  0  0  0
  7 11  2  0  0  0  0
  8 12  2  0  0  0  0
  9 11  1  0  0  0  0
  9 13  2  0  0  0  0
 12 13  1  0  0  0  0
  3 14  1  0  0  0  0
  5 15  1  0  0  0  0
  5 16  1  0  0  0  0
  5 17  1  0  0  0  0
  6 18  1  0  0  0  0
  6 19  1  0  0  0  0
  7 20  1  0  0  0  0
  8 21  1  0  0  0  0
  9 22  1  0  0  0  0
M  END
> <pdb_id>
4NYV

> <uniprot_id>
Q92793

> <usmiles>
Brc1cc2c(NC(=O)N(C2)C)cc1

$$$$
15I_A_1351
          07192421293D 1   1.00000     0.00000     0
            
 40 43  0  0  0  0            999 V2000
   11.2700    7.1990    2.7371 N   0  0  0  0  0  0  0  0  0  0  0  0
    3.1979   10.2200    4.3161 N   0  0  0  0  0  0  0  0  0  0  0  0
    3.1279   10.2343    1.8846 N   0  0  0  0  0  0  0  0  0  0  0  0
    5.3993   10.4181    5.2684 N   0  0  0  0  0  0  0  0  0  0  0  0
    5.3204   10.3178    1.4358 N   0  0  0  0  0  0  0  0  0  0  0  0
    7.3034   10.5303    3.9955 N   0  0  0  0  0  0  0  0  0  0  0  0
    4.0684   10.3198    5.3238 C   0  0  0  0  0  0  0  0  0  0  0  0
    4.0969   10.3011    0.9435 C   0  0  0  0  0  0  0  0  0  0  0  0
   12.4917    8.0186    2.7622 C   0  0  0  0  0  0  0  0  0  0  0  0
    8.1302   10.5572    2.7853 C   0  0  0  0  0  0  0  0  0  0  0  0
    8.1252   10.4065    5.2062 C   0  0  0  0  0  0  0  0  0  0  0  0
   10.2933    7.4816    3.8436 C   0  0  0  0  0  0  0  0  0  0  0  0
   12.1020    9.5382    2.7972 C   0  0  0  0  0  0  0  0  0  0  0  0
    8.9021    9.2484    2.6841 C   0  0  0  0  0  0  0  0  0  0  0  0
    9.0246    9.1792    5.1913 C   0  0  0  0  0  0  0  0  0  0  0  0
   11.0865    9.8862    3.8899 C   0  0  0  0  0  0  0  0  0  0  0  0
    3.7639   10.2321    3.0936 C   0  0  0  0  0  0  0  0  0  0  0  0
    5.8918   10.3958    4.0083 C   0  0  0  0  0  0  0  0  0  0  0  0
    5.1203   10.2987    2.8090 C   0  0  0  0  0  0  0  0  0  0  0  0
    9.8311    8.9867    3.8900 C   0  0  0  0  0  0  0  0  0  0  0  0
   11.5397    6.2380    2.7992 H   0  0  0  0  0  0  0  0  0  0  0  0
    6.1871   10.3391    0.9375 H   0  0  0  0  0  0  0  0  0  0  0  0
    3.6712   10.3210    6.2415 H   0  0  0  0  0  0  0  0  0  0  0  0
    3.9032   10.3348   -0.0370 H   0  0  0  0  0  0  0  0  0  0  0  0
   13.0347    7.8325    1.9433 H   0  0  0  0  0  0  0  0  0  0  0  0
   13.0276    7.7931    3.5758 H   0  0  0  0  0  0  0  0  0  0  0  0
    8.7722   11.3223    2.8346 H   0  0  0  0  0  0  0  0  0  0  0  0
    7.5449   10.6645    1.9815 H   0  0  0  0  0  0  0  0  0  0  0  0
    7.5183   10.3471    5.9987 H   0  0  0  0  0  0  0  0  0  0  0  0
    8.6994   11.2213    5.2863 H   0  0  0  0  0  0  0  0  0  0  0  0
   10.7262    7.2545    4.7160 H   0  0  0  0  0  0  0  0  0  0  0  0
    9.4870    6.9050    3.7115 H   0  0  0  0  0  0  0  0  0  0  0  0
   11.7095    9.7843    1.9110 H   0  0  0  0  0  0  0  0  0  0  0  0
   12.9317   10.0737    2.9545 H   0  0  0  0  0  0  0  0  0  0  0  0
    9.4597    9.2730    1.8543 H   0  0  0  0  0  0  0  0  0  0  0  0
    8.2449    8.4973    2.6219 H   0  0  0  0  0  0  0  0  0  0  0  0
    8.4510    8.3710    5.3247 H   0  0  0  0  0  0  0  0  0  0  0  0
    9.6714    9.2577    5.9499 H   0  0  0  0  0  0  0  0  0  0  0  0
   10.7946   10.8335    3.7579 H   0  0  0  0  0  0  0  0  0  0  0  0
   11.5373    9.7970    4.7781 H   0  0  0  0  0  0  0  0  0  0  0  0
  1  9  1  0  0  0  0
  1 12  1  0  0  0  0
  2  7  2  0  0  0  0
  2 17  1  0  0  0  0
  3  8  2  0  0  0  0
  3 17  1  0  0  0  0
  4  7  1  0  0  0  0
  4 18  2  0  0  0  0
  5  8  1  0  0  0  0
  5 19  1  0  0  0  0
  6 10  1  0  0  0  0
  6 11  1  0  0  0  0
  6 18  1  0  0  0  0
  9 13  1  0  0  0  0
 10 14  1  0  0  0  0
 11 15  1  0  0  0  0
 12 20  1  0  0  0  0
 13 16  1  0  0  0  0
 14 20  1  0  0  0  0
 15 20  1  0  0  0  0
 16 20  1  0  0  0  0
 17 19  2  0  0  0  0
 18 19  1  0  0  0  0
  1 21  1  0  0  0  0
  5 22  1  0  0  0  0
  7 23  1  0  0  0  0
  8 24  1  0  0  0  0
  9 25  1  0  0  0  0
  9 26  1  0  0  0  0
 10 27  1  0  0  0  0
 10 28  1  0  0  0  0
 11 29  1  0  0  0  0
 11 30  1  0  0  0  0
 12 31  1  0  0  0  0
 12 32  1  0  0  0  0
 13 33  1  0  0  0  0
 13 34  1  0  0  0  0
 14 35  1  0  0  0  0
 14 36  1  0  0  0  0
 15 37  1  0  0  0  0
 15 38  1  0  0  0  0
 16 39  1  0  0  0  0
 16 40  1  0  0  0  0
M  END
> <pdb_id>
3ZO2

> <uniprot_id>
P00517

> <usmiles>
n1c2N=CNc2c(nc1)N3CCC4(CNCCC4)CC3

$$$$
15J_B_809
          07192416573D 1   1.00000     0.00000     0
            
 56 60  0  0  0  0            999 V2000
   20.5220   -3.4650   12.7865 O   0  0  0  0  0  0  0  0  0  0  0  0
   19.0292   -1.9641   19.0848 O   0  0  0  0  0  0  0  0  0  0  0  0
   15.6872   -1.0102   18.0342 N   0  0  0  0  0  0  0  0  0  0  0  0
   21.4085   -4.9711   23.0605 N   0  0  0  0  0  0  0  0  0  0  0  0
   23.7269   -4.4311   22.8690 N   0  0  0  0  0  0  0  0  0  0  0  0
   23.0562   -5.5406   24.6345 N   0  0  0  0  0  0  0  0  0  0  0  0
   17.5041   -1.7778   16.7036 N   0  0  0  0  0  0  0  0  0  0  0  0
   20.0274   -2.1805   13.1876 C   0  0  0  0  0  0  0  0  0  0  0  0
   15.0989   -0.6793   19.1797 C   0  0  0  0  0  0  0  0  0  0  0  0
   18.2004   -3.0912   16.5044 C   0  0  0  0  0  0  0  0  0  0  0  0
   17.2152   -0.8985   15.5311 C   0  0  0  0  0  0  0  0  0  0  0  0
   15.7998   -0.7622   20.3831 C   0  0  0  0  0  0  0  0  0  0  0  0
   27.0565   -4.6973   24.4713 C   0  0  0  0  0  0  0  0  0  0  0  0
   26.6307   -5.4062   25.5950 C   0  0  0  0  0  0  0  0  0  0  0  0
   17.1239   -1.1972   20.3642 C   0  0  0  0  0  0  0  0  0  0  0  0
   20.8569   -2.3227   20.5684 C   0  0  0  0  0  0  0  0  0  0  0  0
   18.9948   -3.8532   20.5883 C   0  0  0  0  0  0  0  0  0  0  0  0
   19.3266   -2.9934   15.4629 C   0  0  0  0  0  0  0  0  0  0  0  0
   18.3465   -0.9011   14.4925 C   0  0  0  0  0  0  0  0  0  0  0  0
   26.1391   -4.3200   23.4870 C   0  0  0  0  0  0  0  0  0  0  0  0
   25.2839   -5.7406   25.7388 C   0  0  0  0  0  0  0  0  0  0  0  0
   21.4826   -3.0641   21.5721 C   0  0  0  0  0  0  0  0  0  0  0  0
   19.6211   -4.5893   21.5973 C   0  0  0  0  0  0  0  0  0  0  0  0
   22.6804   -4.9716   23.4882 C   0  0  0  0  0  0  0  0  0  0  0  0
   19.6064   -2.7057   20.0794 C   0  0  0  0  0  0  0  0  0  0  0  0
   17.7222   -1.5501   19.1514 C   0  0  0  0  0  0  0  0  0  0  0  0
   16.9705   -1.4380   17.9718 C   0  0  0  0  0  0  0  0  0  0  0  0
   20.8691   -4.2113   22.0905 C   0  0  0  0  0  0  0  0  0  0  0  0
   24.7942   -4.6525   23.6318 C   0  0  0  0  0  0  0  0  0  0  0  0
   24.3686   -5.3631   24.7545 C   0  0  0  0  0  0  0  0  0  0  0  0
   18.8583   -2.3122   14.1683 C   0  0  0  0  0  0  0  0  0  0  0  0
   21.2824   -3.3450   12.1482 H   0  0  0  0  0  0  0  0  0  0  0  0
   20.7893   -5.6105   23.5162 H   0  0  0  0  0  0  0  0  0  0  0  0
   23.7136   -3.9484   21.9933 H   0  0  0  0  0  0  0  0  0  0  0  0
   19.7176   -1.6836   12.3769 H   0  0  0  0  0  0  0  0  0  0  0  0
   20.7661   -1.6708   13.6287 H   0  0  0  0  0  0  0  0  0  0  0  0
   14.1482   -0.3691   19.1787 H   0  0  0  0  0  0  0  0  0  0  0  0
   17.5320   -3.7674   16.1945 H   0  0  0  0  0  0  0  0  0  0  0  0
   18.5918   -3.3848   17.3765 H   0  0  0  0  0  0  0  0  0  0  0  0
   17.0838    0.0373   15.8581 H   0  0  0  0  0  0  0  0  0  0  0  0
   16.3764   -1.2186   15.0907 H   0  0  0  0  0  0  0  0  0  0  0  0
   15.3592   -0.5134   21.2456 H   0  0  0  0  0  0  0  0  0  0  0  0
   28.0222   -4.4582   24.3698 H   0  0  0  0  0  0  0  0  0  0  0  0
   27.2905   -5.6744   26.2969 H   0  0  0  0  0  0  0  0  0  0  0  0
   17.6443   -1.2567   21.2160 H   0  0  0  0  0  0  0  0  0  0  0  0
   21.3078   -1.5112   20.1966 H   0  0  0  0  0  0  0  0  0  0  0  0
   18.1088   -4.1480   20.2306 H   0  0  0  0  0  0  0  0  0  0  0  0
   19.6454   -3.9158   15.2450 H   0  0  0  0  0  0  0  0  0  0  0  0
   20.0803   -2.4634   15.8517 H   0  0  0  0  0  0  0  0  0  0  0  0
   19.1080   -0.3598   14.8491 H   0  0  0  0  0  0  0  0  0  0  0  0
   18.0067   -0.4837   13.6497 H   0  0  0  0  0  0  0  0  0  0  0  0
   26.4470   -3.8132   22.6817 H   0  0  0  0  0  0  0  0  0  0  0  0
   24.9756   -6.2484   26.5433 H   0  0  0  0  0  0  0  0  0  0  0  0
   22.3732   -2.7745   21.9228 H   0  0  0  0  0  0  0  0  0  0  0  0
   19.1678   -5.3986   21.9708 H   0  0  0  0  0  0  0  0  0  0  0  0
   18.1257   -2.8493   13.7501 H   0  0  0  0  0  0  0  0  0  0  0  0
  1  8  1  0  0  0  0
  2 25  1  0  0  0  0
  2 26  1  0  0  0  0
  3  9  2  0  0  0  0
  3 27  1  0  0  0  0
  4 24  1  0  0  0  0
  4 28  1  0  0  0  0
  5 24  1  0  0  0  0
  5 29  1  0  0  0  0
  6 24  2  0  0  0  0
  6 30  1  0  0  0  0
  7 10  1  0  0  0  0
  7 11  1  0  0  0  0
  7 27  1  0  0  0  0
  8 31  1  0  0  0  0
  9 12  1  0  0  0  0
 10 18  1  0  0  0  0
 11 19  1  0  0  0  0
 12 15  2  0  0  0  0
 13 14  2  0  0  0  0
 13 20  1  0  0  0  0
 14 21  1  0  0  0  0
 15 26  1  0  0  0  0
 16 22  1  0  0  0  0
 16 25  2  0  0  0  0
 17 23  2  0  0  0  0
 17 25  1  0  0  0  0
 18 31  1  0  0  0  0
 19 31  1  0  0  0  0
 20 29  2  0  0  0  0
 21 30  2  0  0  0  0
 22 28  2  0  0  0  0
 23 28  1  0  0  0  0
 26 27  2  0  0  0  0
 29 30  1  0  0  0  0
  1 32  1  0  0  0  0
  4 33  1  0  0  0  0
  5 34  1  0  0  0  0
  8 35  1  0  0  0  0
  8 36  1  0  0  0  0
  9 37  1  0  0  0  0
 10 38  1  0  0  0  0
 10 39  1  0  0  0  0
 11 40  1  0  0  0  0
 11 41  1  0  0  0  0
 12 42  1  0  0  0  0
 13 43  1  0  0  0  0
 14 44  1  0  0  0  0
 15 45  1  0  0  0  0
 16 46  1  0  0  0  0
 17 47  1  0  0  0  0
 18 48  1  0  0  0  0
 18 49  1  0  0  0  0
 19 50  1  0  0  0  0
 19 51  1  0  0  0  0
 20 52  1  0  0  0  0
 21 53  1  0  0  0  0
 22 54  1  0  0  0  0
 23 55  1  0  0  0  0
 31 56  1  0  0  0  0
M  END
> <pdb_id>
4HEU

> <uniprot_id>
Q9Y233

> <usmiles>
O(c1c(nccc1)N2CCC(CO)CC2)c3ccc(NC4=Nc5c(N4)cccc5)cc3

$$$$
15O_A_503
          07192418593D 1   1.00000     0.00000     0
            
 18 19  0  0  0  0            999 V2000
   14.8119   50.1056   78.0417 Cl  0  0  0  0  0  0  0  0  0  0  0  0
   13.0965   53.3660   81.9545 C   0  0  0  0  0  0  0  0  0  0  0  0
   13.3438   53.5090   80.5866 C   0  0  0  0  0  0  0  0  0  0  0  0
   14.4268   48.6741   81.7488 C   0  0  0  0  0  0  0  0  0  0  0  0
   14.6830   48.8011   80.3808 C   0  0  0  0  0  0  0  0  0  0  0  0
   13.2987   52.1400   82.5816 C   0  0  0  0  0  0  0  0  0  0  0  0
   13.9693   49.7721   82.4727 C   0  0  0  0  0  0  0  0  0  0  0  0
   13.7973   52.4190   79.8437 C   0  0  0  0  0  0  0  0  0  0  0  0
   14.4799   50.0201   79.7388 C   0  0  0  0  0  0  0  0  0  0  0  0
   13.7651   51.0251   81.8217 C   0  0  0  0  0  0  0  0  0  0  0  0
   14.0114   51.1540   80.4787 C   0  0  0  0  0  0  0  0  0  0  0  0
   12.7726   54.1488   82.4858 H   0  0  0  0  0  0  0  0  0  0  0  0
   13.1958   54.3918   80.1408 H   0  0  0  0  0  0  0  0  0  0  0  0
   14.5715   47.7969   82.2066 H   0  0  0  0  0  0  0  0  0  0  0  0
   15.0136   48.0134   79.8609 H   0  0  0  0  0  0  0  0  0  0  0  0
   13.1181   52.0405   83.5601 H   0  0  0  0  0  0  0  0  0  0  0  0
   13.7835   49.6821   83.4511 H   0  0  0  0  0  0  0  0  0  0  0  0
   13.9732   52.5215   78.8647 H   0  0  0  0  0  0  0  0  0  0  0  0
  1  9  1  0  0  0  0
  2  3  2  0  0  0  0
  2  6  1  0  0  0  0
  3  8  1  0  0  0  0
  4  5  1  0  0  0  0
  4  7  2  0  0  0  0
  5  9  2  0  0  0  0
  6 10  2  0  0  0  0
  7 10  1  0  0  0  0
  8 11  2  0  0  0  0
  9 11  1  0  0  0  0
 10 11  1  0  0  0  0
  2 12  1  0  0  0  0
  3 13  1  0  0  0  0
  4 14  1  0  0  0  0
  5 15  1  0  0  0  0
  6 16  1  0  0  0  0
  7 17  1  0  0  0  0
  8 18  1  0  0  0  0
M  END
> <pdb_id>
4HJL

> <uniprot_id>
P0A111

> <usmiles>
Clc1c2c(ccc1)cccc2

$$$$
15T_B_1201
          07212403553D 1   1.00000     0.00000     0
            
 48 51  0  0  0  0            999 V2000
   44.5406   22.3460  243.6915 O   0  0  0  0  0  0  0  0  0  0  0  0
   37.7765   22.7349  238.3486 N   0  0  0  0  0  0  0  0  0  0  0  0
   38.0093   21.6026  247.8632 N   0  0  0  0  0  0  0  0  0  0  0  0
   40.0361   22.8161  248.5550 N   0  0  0  0  0  0  0  0  0  0  0  0
   42.7842   23.5916  246.2339 N   0  0  0  0  0  0  0  0  0  0  0  0
   41.5945   22.5878  244.7049 N   0  0  0  0  0  0  0  0  0  0  0  0
   44.7937   24.6450  244.5163 C   0  0  0  0  0  0  0  0  0  0  0  0
   37.8252   21.6900  238.7770 C   0  0  0  0  0  0  0  0  0  0  0  0
   37.5838   21.0648  246.6810 C   0  0  0  0  0  0  0  0  0  0  0  0
   41.1991   23.2996  248.1667 C   0  0  0  0  0  0  0  0  0  0  0  0
   37.9084   20.3880  239.4370 C   0  0  0  0  0  0  0  0  0  0  0  0
   38.5082   21.2862  245.7265 C   0  0  0  0  0  0  0  0  0  0  0  0
   41.0918   20.5218  243.3839 C   0  0  0  0  0  0  0  0  0  0  0  0
   40.0222   22.7555  242.7790 C   0  0  0  0  0  0  0  0  0  0  0  0
   39.3340   20.1661  239.9437 C   0  0  0  0  0  0  0  0  0  0  0  0
   40.7648   20.0596  241.9552 C   0  0  0  0  0  0  0  0  0  0  0  0
   39.7435   22.2693  241.3423 C   0  0  0  0  0  0  0  0  0  0  0  0
   43.8348   23.5577  243.9829 C   0  0  2  0  0  0  0  0  0  0  0  0
   39.2359   22.1790  247.6933 C   0  0  0  0  0  0  0  0  0  0  0  0
   42.7521   23.2553  244.9841 C   0  0  0  0  0  0  0  0  0  0  0  0
   41.6551   23.1813  246.8502 C   0  0  0  0  0  0  0  0  0  0  0  0
   41.2699   22.0654  243.3545 C   0  0  0  0  0  0  0  0  0  0  0  0
   40.8618   22.5222  245.8868 C   0  0  0  0  0  0  0  0  0  0  0  0
   39.5300   20.7434  241.3634 C   0  0  0  0  0  0  0  0  0  0  0  0
   39.6186   22.0067  246.3356 C   0  0  0  0  0  0  0  0  0  0  0  0
   43.8983   21.6603  243.3488 H   0  0  0  0  0  0  0  0  0  0  0  0
   37.4993   21.5779  248.7231 H   0  0  0  0  0  0  0  0  0  0  0  0
   44.2770   25.4786  244.7114 H   0  0  0  0  0  0  0  0  0  0  0  0
   45.2322   24.3207  245.3545 H   0  0  0  0  0  0  0  0  0  0  0  0
   45.4928   24.8396  243.8282 H   0  0  0  0  0  0  0  0  0  0  0  0
   36.7191   20.5812  246.5454 H   0  0  0  0  0  0  0  0  0  0  0  0
   41.7754   23.7672  248.8369 H   0  0  0  0  0  0  0  0  0  0  0  0
   37.6699   19.6678  238.7856 H   0  0  0  0  0  0  0  0  0  0  0  0
   37.2725   20.3637  240.2084 H   0  0  0  0  0  0  0  0  0  0  0  0
   38.4437   21.0056  244.7688 H   0  0  0  0  0  0  0  0  0  0  0  0
   41.9365   20.0877  243.6970 H   0  0  0  0  0  0  0  0  0  0  0  0
   40.3432   20.2774  244.0003 H   0  0  0  0  0  0  0  0  0  0  0  0
   39.2338   22.5426  243.3561 H   0  0  0  0  0  0  0  0  0  0  0  0
   40.1698   23.7445  242.7679 H   0  0  0  0  0  0  0  0  0  0  0  0
   39.9737   20.6150  239.3197 H   0  0  0  0  0  0  0  0  0  0  0  0
   39.5219   19.1841  239.9640 H   0  0  0  0  0  0  0  0  0  0  0  0
   40.6041   19.0727  241.9701 H   0  0  0  0  0  0  0  0  0  0  0  0
   41.5499   20.2607  241.3694 H   0  0  0  0  0  0  0  0  0  0  0  0
   40.5227   22.4910  240.7560 H   0  0  0  0  0  0  0  0  0  0  0  0
   38.9225   22.7182  240.9894 H   0  0  0  0  0  0  0  0  0  0  0  0
   43.4092   23.8908  243.1416 H   0  0  0  0  0  0  0  0  0  0  0  0
   42.0405   22.2735  242.7520 H   0  0  0  0  0  0  0  0  0  0  0  0
   38.7302   20.5274  241.9234 H   0  0  0  0  0  0  0  0  0  0  0  0
  1 18  1  0  0  0  0
  2  8  3  0  0  0  0
  3  9  1  0  0  0  0
  3 19  1  0  0  0  0
  4 10  2  0  0  0  0
  4 19  1  0  0  0  0
  5 20  2  0  0  0  0
  5 21  1  0  0  0  0
  6 20  1  0  0  0  0
  6 22  1  0  0  0  0
  6 23  1  0  0  0  0
  7 18  1  0  0  0  0
  8 11  1  0  0  0  0
  9 12  2  0  0  0  0
 10 21  1  0  0  0  0
 11 15  1  0  0  0  0
 12 25  1  0  0  0  0
 13 16  1  0  0  0  0
 13 22  1  0  0  0  0
 14 17  1  0  0  0  0
 14 22  1  0  0  0  0
 15 24  1  0  0  0  0
 16 24  1  0  0  0  0
 17 24  1  0  0  0  0
 18 20  1  0  0  0  0
 19 25  2  0  0  0  0
 21 23  2  0  0  0  0
 23 25  1  0  0  0  0
  1 26  1  0  0  0  0
  3 27  1  0  0  0  0
  7 28  1  0  0  0  0
  7 29  1  0  0  0  0
  7 30  1  0  0  0  0
  9 31  1  0  0  0  0
 10 32  1  0  0  0  0
 11 33  1  0  0  0  0
 11 34  1  0  0  0  0
 12 35  1  0  0  0  0
 13 36  1  0  0  0  0
 13 37  1  0  0  0  0
 14 38  1  0  0  0  0
 14 39  1  0  0  0  0
 15 40  1  0  0  0  0
 15 41  1  0  0  0  0
 16 42  1  0  0  0  0
 16 43  1  0  0  0  0
 17 44  1  0  0  0  0
 17 45  1  0  0  0  0
 18 46  1  0  0  0  0
 22 47  1  0  0  0  0
 24 48  1  0  0  0  0
M  END
> <pdb_id>
4IVD

> <uniprot_id>
P23458

> <usmiles>
O[C@@H](C1=Nc2c(N1C3CCC(CCC#N)CC3)c4c(nc2)NC=C4)C

$$$$
16W_B_301
          07202405003D 1   1.00000     0.00000     0
            
 43 46  0  0  0  0            999 V2000
  -17.0009    3.2419   39.8864 Cl  0  0  0  0  0  0  0  0  0  0  0  0
  -21.3665   -6.5646   37.6311 O   0  0  0  0  0  0  0  0  0  0  0  0
  -21.0740    0.4496   41.0513 O   0  0  0  0  0  0  0  0  0  0  0  0
  -24.2135    0.9363   40.8692 N   0  0  0  0  0  0  0  0  0  0  0  0
  -21.8022   -2.2157   39.2220 N   0  0  0  0  0  0  0  0  0  0  0  0
  -25.7017   -0.8182   41.1398 N   0  0  0  0  0  0  0  0  0  0  0  0
  -25.1863   -3.0484   40.4083 N   0  0  0  0  0  0  0  0  0  0  0  0
  -22.8211   -3.0840   39.4135 N   0  0  0  0  0  0  0  0  0  0  0  0
  -22.4161   -5.9610   36.8653 C   0  0  0  0  0  0  0  0  0  0  0  0
  -21.6707   -6.7931   39.0169 C   0  0  0  0  0  0  0  0  0  0  0  0
  -26.0788   -2.1488   40.9873 C   0  0  0  0  0  0  0  0  0  0  0  0
  -21.2814    0.1431   39.6510 C   0  0  0  0  0  0  0  0  0  0  0  0
  -19.0108    2.7126   43.2985 C   0  0  0  0  0  0  0  0  0  0  0  0
  -22.8610   -4.5766   37.4225 C   0  0  0  0  0  0  0  0  0  0  0  0
  -21.6820   -5.3670   39.5719 C   0  0  0  0  0  0  0  0  0  0  0  0
  -18.0540    3.1630   42.3421 C   0  0  0  0  0  0  0  0  0  0  0  0
  -20.0060    1.7949   42.7981 C   0  0  0  0  0  0  0  0  0  0  0  0
  -19.0805    1.8038   40.4687 C   0  0  0  0  0  0  0  0  0  0  0  0
  -18.1097    2.7072   40.9716 C   0  0  0  0  0  0  0  0  0  0  0  0
  -20.0512    1.3412   41.4093 C   0  0  0  0  0  0  0  0  0  0  0  0
  -24.4569   -0.3587   40.7351 C   0  0  0  0  0  0  0  0  0  0  0  0
  -23.9288   -2.5555   40.0046 C   0  0  0  0  0  0  0  0  0  0  0  0
  -22.1353   -1.0387   39.6509 C   0  0  0  0  0  0  0  0  0  0  0  0
  -22.7742   -4.4914   38.9496 C   0  0  0  0  0  0  0  0  0  0  0  0
  -23.4832   -1.1846   40.1513 C   0  0  0  0  0  0  0  0  0  0  0  0
  -23.3291    1.3103   40.5901 H   0  0  0  0  0  0  0  0  0  0  0  0
  -24.9141    1.5399   41.2496 H   0  0  0  0  0  0  0  0  0  0  0  0
  -23.2060   -6.5743   36.8692 H   0  0  0  0  0  0  0  0  0  0  0  0
  -22.0945   -5.8376   35.9265 H   0  0  0  0  0  0  0  0  0  0  0  0
  -20.9667   -7.3500   39.4576 H   0  0  0  0  0  0  0  0  0  0  0  0
  -22.5616   -7.2339   39.1266 H   0  0  0  0  0  0  0  0  0  0  0  0
  -26.9810   -2.4562   41.2901 H   0  0  0  0  0  0  0  0  0  0  0  0
  -20.4102   -0.0517   39.2002 H   0  0  0  0  0  0  0  0  0  0  0  0
  -21.7338    0.9047   39.1869 H   0  0  0  0  0  0  0  0  0  0  0  0
  -18.9936    3.0126   44.2523 H   0  0  0  0  0  0  0  0  0  0  0  0
  -23.8081   -4.4115   37.1473 H   0  0  0  0  0  0  0  0  0  0  0  0
  -22.2719   -3.8705   37.0296 H   0  0  0  0  0  0  0  0  0  0  0  0
  -20.7934   -4.9465   39.3884 H   0  0  0  0  0  0  0  0  0  0  0  0
  -21.8327   -5.4105   40.5595 H   0  0  0  0  0  0  0  0  0  0  0  0
  -17.3367    3.8009   42.6226 H   0  0  0  0  0  0  0  0  0  0  0  0
  -20.6987    1.4524   43.4328 H   0  0  0  0  0  0  0  0  0  0  0  0
  -19.0851    1.5083   39.5134 H   0  0  0  0  0  0  0  0  0  0  0  0
  -23.6317   -4.8914   39.2729 H   0  0  0  0  0  0  0  0  0  0  0  0
  1 19  1  0  0  0  0
  2  9  1  0  0  0  0
  2 10  1  0  0  0  0
  3 12  1  0  0  0  0
  3 20  1  0  0  0  0
  4 21  1  0  0  0  0
  5  8  1  0  0  0  0
  5 23  2  0  0  0  0
  6 11  1  0  0  0  0
  6 21  2  0  0  0  0
  7 11  2  0  0  0  0
  7 22  1  0  0  0  0
  8 22  1  0  0  0  0
  8 24  1  0  0  0  0
  9 14  1  0  0  0  0
 10 15  1  0  0  0  0
 12 23  1  0  0  0  0
 13 16  2  0  0  0  0
 13 17  1  0  0  0  0
 14 24  1  0  0  0  0
 15 24  1  0  0  0  0
 16 19  1  0  0  0  0
 17 20  2  0  0  0  0
 18 19  2  0  0  0  0
 18 20  1  0  0  0  0
 21 25  1  0  0  0  0
 22 25  2  0  0  0  0
 23 25  1  0  0  0  0
  4 26  1  0  0  0  0
  4 27  1  0  0  0  0
  9 28  1  0  0  0  0
  9 29  1  0  0  0  0
 10 30  1  0  0  0  0
 10 31  1  0  0  0  0
 11 32  1  0  0  0  0
 12 33  1  0  0  0  0
 12 34  1  0  0  0  0
 13 35  1  0  0  0  0
 14 36  1  0  0  0  0
 14 37  1  0  0  0  0
 15 38  1  0  0  0  0
 15 39  1  0  0  0  0
 16 40  1  0  0  0  0
 17 41  1  0  0  0  0
 18 42  1  0  0  0  0
 24 43  1  0  0  0  0
M  END
> <pdb_id>
4HNF

> <uniprot_id>
P48730

> <usmiles>
Clc1cc(OCC2=NN(c3ncnc(N)c32)C4CCOCC4)ccc1

$$$$
16Z_A_501
          07192418093D 1   1.00000     0.00000     0
            
 36 37  0  0  0  0            999 V2000
  -24.0768    3.7589   29.1975 O   0  0  0  0  0  0  0  0  0  0  0  0
  -24.4632    0.8768   29.3835 O   0  0  0  0  0  0  0  0  0  0  0  0
  -30.4185   -1.4281   26.6316 O   0  0  0  0  0  0  0  0  0  0  0  0
  -26.3848    3.3510   27.7085 N   0  0  0  0  0  0  0  0  0  0  0  0
  -30.4803   -1.9651   25.2531 C   0  0  0  0  0  0  0  0  0  0  0  0
  -27.5794    3.6918   26.9290 C   0  0  0  0  0  0  0  0  0  0  0  0
  -24.7862    4.9746   26.6304 C   0  0  0  0  0  0  0  0  0  0  0  0
  -29.5129    0.0836   28.2041 C   0  0  0  0  0  0  0  0  0  0  0  0
  -28.2125   -0.4709   26.2322 C   0  0  0  0  0  0  0  0  0  0  0  0
  -28.5130    0.9385   28.6439 C   0  0  0  0  0  0  0  0  0  0  0  0
  -27.2108    0.3867   26.6859 C   0  0  0  0  0  0  0  0  0  0  0  0
  -24.2101    2.9562   27.9475 C   0  0  1  0  0  0  0  0  0  0  0  0
  -24.8877    1.5733   28.1988 C   0  0  2  0  0  0  0  0  0  0  0  0
  -29.3788   -0.6160   26.9987 C   0  0  0  0  0  0  0  0  0  0  0  0
  -25.1601    3.5433   26.9547 C   0  0  1  0  0  0  0  0  0  0  0  0
  -26.3407    2.0119   28.3757 C   0  0  2  0  0  0  0  0  0  0  0  0
  -27.3393    1.0974   27.8965 C   0  0  0  0  0  0  0  0  0  0  0  0
  -23.6389    4.6330   28.9872 H   0  0  0  0  0  0  0  0  0  0  0  0
  -24.9531    0.0078   29.4528 H   0  0  0  0  0  0  0  0  0  0  0  0
  -31.2963   -2.5345   25.1535 H   0  0  0  0  0  0  0  0  0  0  0  0
  -30.5210   -1.2074   24.6018 H   0  0  0  0  0  0  0  0  0  0  0  0
  -29.6654   -2.5160   25.0732 H   0  0  0  0  0  0  0  0  0  0  0  0
  -28.3955    3.5439   27.4878 H   0  0  0  0  0  0  0  0  0  0  0  0
  -27.5343    4.6517   26.6523 H   0  0  0  0  0  0  0  0  0  0  0  0
  -27.6231    3.1120   26.1153 H   0  0  0  0  0  0  0  0  0  0  0  0
  -23.9310    4.9866   26.1123 H   0  0  0  0  0  0  0  0  0  0  0  0
  -25.5122    5.3934   26.0849 H   0  0  0  0  0  0  0  0  0  0  0  0
  -24.6686    5.4891   27.4798 H   0  0  0  0  0  0  0  0  0  0  0  0
  -30.3394   -0.0345   28.7546 H   0  0  0  0  0  0  0  0  0  0  0  0
  -28.1015   -0.9740   25.3751 H   0  0  0  0  0  0  0  0  0  0  0  0
  -28.6307    1.4438   29.4988 H   0  0  0  0  0  0  0  0  0  0  0  0
  -26.3812    0.5002   26.1392 H   0  0  0  0  0  0  0  0  0  0  0  0
  -23.3123    2.8262   27.5267 H   0  0  0  0  0  0  0  0  0  0  0  0
  -24.7944    0.9861   27.3947 H   0  0  0  0  0  0  0  0  0  0  0  0
  -25.1756    2.9913   26.1210 H   0  0  0  0  0  0  0  0  0  0  0  0
  -26.4998    2.1527   29.3529 H   0  0  0  0  0  0  0  0  0  0  0  0
  1 12  1  0  0  0  0
  2 13  1  0  0  0  0
  3  5  1  0  0  0  0
  3 14  1  0  0  0  0
  4  6  1  0  0  0  0
  4 15  1  0  0  0  0
  4 16  1  0  0  0  0
  7 15  1  0  0  0  0
  8 10  2  0  0  0  0
  8 14  1  0  0  0  0
  9 11  1  0  0  0  0
  9 14  2  0  0  0  0
 10 17  1  0  0  0  0
 11 17  2  0  0  0  0
 12 13  1  0  0  0  0
 12 15  1  0  0  0  0
 13 16  1  0  0  0  0
 16 17  1  0  0  0  0
  1 18  1  0  0  0  0
  2 19  1  0  0  0  0
  5 20  1  0  0  0  0
  5 21  1  0  0  0  0
  5 22  1  0  0  0  0
  6 23  1  0  0  0  0
  6 24  1  0  0  0  0
  6 25  1  0  0  0  0
  7 26  1  0  0  0  0
  7 27  1  0  0  0  0
  7 28  1  0  0  0  0
  8 29  1  0  0  0  0
  9 30  1  0  0  0  0
 10 31  1  0  0  0  0
 11 32  1  0  0  0  0
 12 33  1  0  0  0  0
 13 34  1  0  0  0  0
 15 35  1  0  0  0  0
 16 36  1  0  0  0  0
M  END
> <pdb_id>
4JFS

> <uniprot_id>
Q8A3I4

> <usmiles>
O(c1ccc(cc1)[C@@H]2N([C@H]([C@@H](O)[C@H]2O)C)C)C

$$$$
17B_B_1869
          07192417363D 1   1.00000     0.00000     0
            
 38 38  0  0  0  0            999 V2000
  -17.5649   61.3675   48.1373 O   0  0  0  0  0  0  0  0  0  0  0  0
  -19.9965   57.1285   46.1633 O   0  0  0  0  0  0  0  0  0  0  0  0
  -18.9578   55.4227   48.0684 O   0  0  0  0  0  0  0  0  0  0  0  0
  -17.8704   59.2173   45.1422 O   0  0  0  0  0  0  0  0  0  0  0  0
  -22.4168   61.3859   52.1983 N   0  0  0  0  0  0  0  0  0  0  0  0
  -18.8996   57.2421   50.0350 N   0  0  0  0  0  0  0  0  0  0  0  0
  -17.5417   58.6913   48.7904 N   0  0  0  0  0  0  0  0  0  0  0  0
  -21.0021   61.4117   51.8678 C   0  0  0  0  0  0  0  0  0  0  0  0
  -16.5324   60.5230   47.5480 C   0  0  0  0  0  0  0  0  0  0  0  0
  -19.0274   58.1916   51.1568 C   0  0  0  0  0  0  0  0  0  0  0  0
  -20.3601   60.0469   52.1478 C   0  0  0  0  0  0  0  0  0  0  0  0
  -20.0582   59.2797   50.8585 C   0  0  0  0  0  0  0  0  0  0  0  0
  -18.5953   57.2777   46.3955 C   0  0  2  0  0  0  0  0  0  0  0  0
  -18.2105   56.5657   47.7124 C   0  0  1  0  0  0  0  0  0  0  0  0
  -18.2355   58.7783   46.4344 C   0  0  1  0  0  0  0  0  0  0  0  0
  -18.2410   57.5668   48.9316 C   0  0  0  0  0  0  0  0  0  0  0  0
  -17.0953   59.0986   47.4697 C   0  0  2  0  0  0  0  0  0  0  0  0
  -17.2295   62.3072   48.2032 H   0  0  0  0  0  0  0  0  0  0  0  0
  -20.2442   57.5895   45.3112 H   0  0  0  0  0  0  0  0  0  0  0  0
  -18.6147   55.0561   48.9332 H   0  0  0  0  0  0  0  0  0  0  0  0
  -17.6385   60.1895   45.1736 H   0  0  0  0  0  0  0  0  0  0  0  0
  -22.8194   62.2817   52.0102 H   0  0  0  0  0  0  0  0  0  0  0  0
  -22.8759   60.6912   51.6446 H   0  0  0  0  0  0  0  0  0  0  0  0
  -19.3177   56.3367   50.1084 H   0  0  0  0  0  0  0  0  0  0  0  0
  -20.5474   62.1091   52.4217 H   0  0  0  0  0  0  0  0  0  0  0  0
  -20.8946   61.6333   50.8986 H   0  0  0  0  0  0  0  0  0  0  0  0
  -15.7125   60.5357   48.1204 H   0  0  0  0  0  0  0  0  0  0  0  0
  -16.3041   60.8513   46.6314 H   0  0  0  0  0  0  0  0  0  0  0  0
  -18.1396   58.6218   51.3206 H   0  0  0  0  0  0  0  0  0  0  0  0
  -19.3113   57.6912   51.9747 H   0  0  0  0  0  0  0  0  0  0  0  0
  -20.9866   59.5042   52.7072 H   0  0  0  0  0  0  0  0  0  0  0  0
  -19.5052   60.1887   52.6469 H   0  0  0  0  0  0  0  0  0  0  0  0
  -20.8979   58.8605   50.5133 H   0  0  0  0  0  0  0  0  0  0  0  0
  -19.6929   59.9084   50.1719 H   0  0  0  0  0  0  0  0  0  0  0  0
  -18.0980   56.8483   45.6417 H   0  0  0  0  0  0  0  0  0  0  0  0
  -17.2615   56.2673   47.6102 H   0  0  0  0  0  0  0  0  0  0  0  0
  -19.0530   59.2834   46.7113 H   0  0  0  0  0  0  0  0  0  0  0  0
  -16.3263   58.5036   47.2358 H   0  0  0  0  0  0  0  0  0  0  0  0
  1  9  1  0  0  0  0
  2 13  1  0  0  0  0
  3 14  1  0  0  0  0
  4 15  1  0  0  0  0
  5  8  1  0  0  0  0
  6 10  1  0  0  0  0
  6 16  1  0  0  0  0
  7 16  2  0  0  0  0
  7 17  1  0  0  0  0
  8 11  1  0  0  0  0
  9 17  1  0  0  0  0
 10 12  1  0  0  0  0
 11 12  1  0  0  0  0
 13 14  1  0  0  0  0
 13 15  1  0  0  0  0
 14 16  1  0  0  0  0
 15 17  1  0  0  0  0
  1 18  1  0  0  0  0
  2 19  1  0  0  0  0
  3 20  1  0  0  0  0
  4 21  1  0  0  0  0
  5 22  1  0  0  0  0
  5 23  1  0  0  0  0
  6 24  1  0  0  0  0
  8 25  1  0  0  0  0
  8 26  1  0  0  0  0
  9 27  1  0  0  0  0
  9 28  1  0  0  0  0
 10 29  1  0  0  0  0
 10 30  1  0  0  0  0
 11 31  1  0  0  0  0
 11 32  1  0  0  0  0
 12 33  1  0  0  0  0
 12 34  1  0  0  0  0
 13 35  1  0  0  0  0
 14 36  1  0  0  0  0
 15 37  1  0  0  0  0
 17 38  1  0  0  0  0
M  END
> <pdb_id>
2VR4

> <uniprot_id>
Q8AAK6

> <usmiles>
O[C@@H]1C(=N[C@@H]([C@@H](O)[C@@H]1O)CO)NCCCCN

$$$$
17C_A_404
          07202415313D 1   1.00000     0.00000     0
            
 30 31  0  0  0  0            999 V2000
    4.2834  -32.1939   34.1902 O   0  0  0  0  0  0  0  0  0  0  0  0
    5.5285  -33.9552   33.7735 O   0  0  0  0  0  0  0  0  0  0  0  0
    4.5531  -28.0055   31.4568 O   0  0  0  0  0  0  0  0  0  0  0  0
    4.5433  -29.5835   33.0028 O   0  0  0  0  0  0  0  0  0  0  0  0
    2.6747  -31.4584   32.3732 N   0  0  0  0  0  0  0  0  0  0  0  0
    1.6655  -34.5652   30.6900 C   0  0  0  0  0  0  0  0  0  0  0  0
   -0.1812  -29.4493   31.2181 C   0  0  0  0  0  0  0  0  0  0  0  0
    2.5677  -35.4680   31.2377 C   0  0  0  0  0  0  0  0  0  0  0  0
    0.4113  -28.1930   31.0987 C   0  0  0  0  0  0  0  0  0  0  0  0
    1.6887  -33.2187   31.0559 C   0  0  0  0  0  0  0  0  0  0  0  0
    0.5732  -30.5385   31.6429 C   0  0  0  0  0  0  0  0  0  0  0  0
    3.4980  -35.0221   32.1722 C   0  0  0  0  0  0  0  0  0  0  0  0
    1.7592  -28.0500   31.3983 C   0  0  0  0  0  0  0  0  0  0  0  0
    4.5350  -33.2357   33.5617 C   0  0  0  0  0  0  0  0  0  0  0  0
    3.9793  -28.8955   32.1291 C   0  0  0  0  0  0  0  0  0  0  0  0
    2.6179  -32.7559   31.9856 C   0  0  0  0  0  0  0  0  0  0  0  0
    1.9306  -30.4106   31.9443 C   0  0  0  0  0  0  0  0  0  0  0  0
    3.5229  -33.6793   32.5292 C   0  0  0  0  0  0  0  0  0  0  0  0
    2.5071  -29.1397   31.8310 C   0  0  0  0  0  0  0  0  0  0  0  0
    3.4664  -31.6615   33.9690 H   0  0  0  0  0  0  0  0  0  0  0  0
    4.0411  -27.4894   30.7702 H   0  0  0  0  0  0  0  0  0  0  0  0
    3.3590  -31.2455   33.0707 H   0  0  0  0  0  0  0  0  0  0  0  0
    0.9905  -34.8842   30.0248 H   0  0  0  0  0  0  0  0  0  0  0  0
   -1.1495  -29.5678   30.9981 H   0  0  0  0  0  0  0  0  0  0  0  0
    2.5491  -36.4294   30.9632 H   0  0  0  0  0  0  0  0  0  0  0  0
   -0.1277  -27.4050   30.8012 H   0  0  0  0  0  0  0  0  0  0  0  0
    1.0344  -32.5818   30.6482 H   0  0  0  0  0  0  0  0  0  0  0  0
    0.1338  -31.4322   31.7344 H   0  0  0  0  0  0  0  0  0  0  0  0
    4.1445  -35.6642   32.5842 H   0  0  0  0  0  0  0  0  0  0  0  0
    2.1962  -27.1557   31.3020 H   0  0  0  0  0  0  0  0  0  0  0  0
  1 14  1  0  0  0  0
  2 14  2  0  0  0  0
  3 15  1  0  0  0  0
  4 15  2  0  0  0  0
  5 16  1  0  0  0  0
  5 17  1  0  0  0  0
  6  8  2  0  0  0  0
  6 10  1  0  0  0  0
  7  9  2  0  0  0  0
  7 11  1  0  0  0  0
  8 12  1  0  0  0  0
  9 13  1  0  0  0  0
 10 16  2  0  0  0  0
 11 17  2  0  0  0  0
 12 18  2  0  0  0  0
 13 19  2  0  0  0  0
 14 18  1  0  0  0  0
 15 19  1  0  0  0  0
 16 18  1  0  0  0  0
 17 19  1  0  0  0  0
  1 20  1  0  0  0  0
  3 21  1  0  0  0  0
  5 22  1  0  0  0  0
  6 23  1  0  0  0  0
  7 24  1  0  0  0  0
  8 25  1  0  0  0  0
  9 26  1  0  0  0  0
 10 27  1  0  0  0  0
 11 28  1  0  0  0  0
 12 29  1  0  0  0  0
 13 30  1  0  0  0  0
M  END
> <pdb_id>
3QQS

> <uniprot_id>
P66992

> <usmiles>
O=C(O)c1c(Nc2c(cccc2)C(=O)O)cccc1

$$$$
17D_A_602
          07202415313D 1   1.00000     0.00000     0
            
 28 29  0  0  0  0            999 V2000
    3.9231  -25.9627   33.0929 O   0  0  0  0  0  0  0  0  0  0  0  0
    4.6315  -27.0143   31.3135 O   0  0  0  0  0  0  0  0  0  0  0  0
    0.3706  -25.0244   36.8417 C   0  0  0  0  0  0  0  0  0  0  0  0
    1.7032  -25.0073   36.3894 C   0  0  0  0  0  0  0  0  0  0  0  0
   -0.5275  -26.0368   36.4555 C   0  0  0  0  0  0  0  0  0  0  0  0
   -0.3699  -27.8776   31.1834 C   0  0  0  0  0  0  0  0  0  0  0  0
    0.4457  -27.2412   30.2491 C   0  0  0  0  0  0  0  0  0  0  0  0
    2.1539  -26.0444   35.5644 C   0  0  0  0  0  0  0  0  0  0  0  0
   -0.0828  -27.0710   35.6335 C   0  0  0  0  0  0  0  0  0  0  0  0
    0.1239  -28.1593   32.4575 C   0  0  0  0  0  0  0  0  0  0  0  0
    1.7450  -26.8914   30.5990 C   0  0  0  0  0  0  0  0  0  0  0  0
    1.7814  -28.1866   34.2708 C   0  0  0  0  0  0  0  0  0  0  0  0
    3.7243  -26.7105   32.1149 C   0  0  0  0  0  0  0  0  0  0  0  0
    1.2548  -27.0638   35.1843 C   0  0  0  0  0  0  0  0  0  0  0  0
    1.4352  -27.8122   32.8215 C   0  0  0  0  0  0  0  0  0  0  0  0
    2.2609  -27.1770   31.8663 C   0  0  0  0  0  0  0  0  0  0  0  0
    3.1713  -25.7413   33.7140 H   0  0  0  0  0  0  0  0  0  0  0  0
    0.0539  -24.2989   37.4528 H   0  0  0  0  0  0  0  0  0  0  0  0
    2.3191  -24.2650   36.6535 H   0  0  0  0  0  0  0  0  0  0  0  0
   -1.4770  -26.0144   36.7683 H   0  0  0  0  0  0  0  0  0  0  0  0
   -1.3063  -28.1316   30.9411 H   0  0  0  0  0  0  0  0  0  0  0  0
    0.0986  -27.0376   29.3336 H   0  0  0  0  0  0  0  0  0  0  0  0
    3.1023  -26.0629   35.2479 H   0  0  0  0  0  0  0  0  0  0  0  0
   -0.7034  -27.8080   35.3657 H   0  0  0  0  0  0  0  0  0  0  0  0
   -0.4661  -28.6162   33.1231 H   0  0  0  0  0  0  0  0  0  0  0  0
    2.3232  -26.4252   29.9293 H   0  0  0  0  0  0  0  0  0  0  0  0
    1.3457  -29.0539   34.5117 H   0  0  0  0  0  0  0  0  0  0  0  0
    2.7725  -28.2718   34.3729 H   0  0  0  0  0  0  0  0  0  0  0  0
  1 13  1  0  0  0  0
  2 13  2  0  0  0  0
  3  4  2  0  0  0  0
  3  5  1  0  0  0  0
  4  8  1  0  0  0  0
  5  9  2  0  0  0  0
  6  7  2  0  0  0  0
  6 10  1  0  0  0  0
  7 11  1  0  0  0  0
  8 14  2  0  0  0  0
  9 14  1  0  0  0  0
 10 15  2  0  0  0  0
 11 16  2  0  0  0  0
 12 14  1  0  0  0  0
 12 15  1  0  0  0  0
 13 16  1  0  0  0  0
 15 16  1  0  0  0  0
  1 17  1  0  0  0  0
  3 18  1  0  0  0  0
  4 19  1  0  0  0  0
  5 20  1  0  0  0  0
  6 21  1  0  0  0  0
  7 22  1  0  0  0  0
  8 23  1  0  0  0  0
  9 24  1  0  0  0  0
 10 25  1  0  0  0  0
 11 26  1  0  0  0  0
 12 27  1  0  0  0  0
 12 28  1  0  0  0  0
M  END
> <pdb_id>
3QS8

> <uniprot_id>
P66992

> <usmiles>
O=C(O)c1c(cccc1)Cc2ccccc2

$$$$
17P_A_2000
          07202414163D 1   1.00000     0.00000     0
            
 63 67  0  0  0  0            999 V2000
   48.7654  -11.8969   32.2931 O   0  0  0  0  0  0  0  0  0  0  0  0
   48.5935  -11.6817   29.7209 N   0  0  0  0  0  0  0  0  0  0  0  0
   54.0041  -13.3482   40.0439 N   0  0  0  0  0  0  0  0  0  0  0  0
   52.6093   -9.8695   29.7125 N   0  0  0  0  0  0  0  0  0  0  0  0
   54.7916   -9.2462   30.8377 N   0  0  0  0  0  0  0  0  0  0  0  0
   51.4907  -12.0495   33.2885 N   0  0  0  0  0  0  0  0  0  0  0  0
   54.3192  -11.9496   40.1653 N   0  0  0  0  0  0  0  0  0  0  0  0
   54.7285  -11.3735   41.5008 C   0  0  0  0  0  0  0  0  0  0  0  0
   53.9962  -13.6089   38.5807 C   0  0  0  0  0  0  0  0  0  0  0  0
   51.1945  -10.2513   29.7634 C   0  0  0  0  0  0  0  0  0  0  0  0
   54.5742  -11.3217   38.8441 C   0  0  0  0  0  0  0  0  0  0  0  0
   57.3374   -7.7148   27.8192 C   0  0  0  0  0  0  0  0  0  0  0  0
   56.7404   -6.6826   28.7886 C   0  0  0  0  0  0  0  0  0  0  0  0
   56.2588   -8.6949   27.3777 C   0  0  0  0  0  0  0  0  0  0  0  0
   56.1468   -7.3545   30.0214 C   0  0  0  0  0  0  0  0  0  0  0  0
   55.7237   -9.4508   28.5918 C   0  0  0  0  0  0  0  0  0  0  0  0
   54.8220  -10.7642   35.7554 C   0  0  0  0  0  0  0  0  0  0  0  0
   54.8666  -10.5456   34.2523 C   0  0  0  0  0  0  0  0  0  0  0  0
   52.7915  -12.3449   35.6438 C   0  0  0  0  0  0  0  0  0  0  0  0
   49.3363  -11.6904   31.0056 C   0  0  0  0  0  0  0  0  0  0  0  0
   53.3980   -9.7174   30.9572 C   0  0  2  0  0  0  0  0  0  0  0  0
   55.1787   -8.4840   29.6385 C   0  0  0  0  0  0  0  0  0  0  0  0
   52.5480  -11.7170   34.2727 C   0  0  1  0  0  0  0  0  0  0  0  0
   51.6641  -11.2805   32.0398 C   0  0  1  0  0  0  0  0  0  0  0  0
   54.3312  -12.3719   37.7733 C   0  0  0  0  0  0  0  0  0  0  0  0
   54.1270  -12.0122   36.3023 C   0  0  2  0  0  0  0  0  0  0  0  0
   50.6308  -10.9339   30.9895 C   0  0  1  0  0  0  0  0  0  0  0  0
   53.6062  -10.9301   33.4842 C   0  0  0  0  0  0  0  0  0  0  0  0
   52.9301  -10.4606   32.1916 C   0  0  0  0  0  0  0  0  0  0  0  0
   49.0820  -11.5278   28.8620 H   0  0  0  0  0  0  0  0  0  0  0  0
   47.6046  -11.8298   29.7141 H   0  0  0  0  0  0  0  0  0  0  0  0
   52.6506   -8.9896   29.2391 H   0  0  0  0  0  0  0  0  0  0  0  0
   55.3800  -10.0538   30.8760 H   0  0  0  0  0  0  0  0  0  0  0  0
   50.5977  -11.8336   33.6834 H   0  0  0  0  0  0  0  0  0  0  0  0
   54.9087  -10.3950   41.4005 H   0  0  0  0  0  0  0  0  0  0  0  0
   53.9917  -11.5106   42.1629 H   0  0  0  0  0  0  0  0  0  0  0  0
   55.5559  -11.8336   41.8228 H   0  0  0  0  0  0  0  0  0  0  0  0
   53.7927  -14.5000   38.1752 H   0  0  0  0  0  0  0  0  0  0  0  0
   51.0358  -10.8684   28.9927 H   0  0  0  0  0  0  0  0  0  0  0  0
   50.6659   -9.4125   29.6332 H   0  0  0  0  0  0  0  0  0  0  0  0
   54.8559  -10.3752   38.6869 H   0  0  0  0  0  0  0  0  0  0  0  0
   58.0720   -8.2147   28.2780 H   0  0  0  0  0  0  0  0  0  0  0  0
   57.7051   -7.2432   27.0177 H   0  0  0  0  0  0  0  0  0  0  0  0
   56.0205   -6.1726   28.3178 H   0  0  0  0  0  0  0  0  0  0  0  0
   57.4612   -6.0524   29.0770 H   0  0  0  0  0  0  0  0  0  0  0  0
   56.6476   -9.3457   26.7256 H   0  0  0  0  0  0  0  0  0  0  0  0
   55.5114   -8.1931   26.9424 H   0  0  0  0  0  0  0  0  0  0  0  0
   55.6518   -6.6705   30.5572 H   0  0  0  0  0  0  0  0  0  0  0  0
   56.8891   -7.7361   30.5722 H   0  0  0  0  0  0  0  0  0  0  0  0
   56.4645   -9.9873   28.9960 H   0  0  0  0  0  0  0  0  0  0  0  0
   54.9899  -10.0636   28.2986 H   0  0  0  0  0  0  0  0  0  0  0  0
   54.3584   -9.9725   36.1532 H   0  0  0  0  0  0  0  0  0  0  0  0
   55.7688  -10.7918   36.0759 H   0  0  0  0  0  0  0  0  0  0  0  0
   55.6247  -11.0857   33.8867 H   0  0  0  0  0  0  0  0  0  0  0  0
   55.0402   -9.5744   34.0892 H   0  0  0  0  0  0  0  0  0  0  0  0
   52.7406  -13.3381   35.5392 H   0  0  0  0  0  0  0  0  0  0  0  0
   52.0631  -12.0364   36.2557 H   0  0  0  0  0  0  0  0  0  0  0  0
   53.0116   -8.8324   31.2168 H   0  0  0  0  0  0  0  0  0  0  0  0
   54.3521   -8.0635   29.2644 H   0  0  0  0  0  0  0  0  0  0  0  0
   52.0838  -10.9061   34.6291 H   0  0  0  0  0  0  0  0  0  0  0  0
   52.0876  -12.0240   31.5222 H   0  0  0  0  0  0  0  0  0  0  0  0
   54.6980  -12.7164   35.8803 H   0  0  0  0  0  0  0  0  0  0  0  0
   50.2869  -10.1070   31.4343 H   0  0  0  0  0  0  0  0  0  0  0  0
  1 20  2  0  0  0  0
  2 20  1  0  0  0  0
  3  7  1  0  0  0  0
  3  9  2  0  0  0  0
  4 10  1  0  0  0  0
  4 21  1  0  0  0  0
  5 21  1  0  0  0  0
  5 22  1  0  0  0  0
  6 23  1  0  0  0  0
  6 24  1  0  0  0  0
  7  8  1  0  0  0  0
  7 11  1  0  0  0  0
  9 25  1  0  0  0  0
 10 27  1  0  0  0  0
 11 25  2  0  0  0  0
 12 13  1  0  0  0  0
 12 14  1  0  0  0  0
 13 15  1  0  0  0  0
 14 16  1  0  0  0  0
 15 22  1  0  0  0  0
 16 22  1  0  0  0  0
 17 18  1  0  0  0  0
 17 26  1  0  0  0  0
 18 28  1  0  0  0  0
 19 23  1  0  0  0  0
 19 26  1  0  0  0  0
 20 27  1  0  0  0  0
 21 29  1  0  0  0  0
 23 28  1  0  0  0  0
 24 27  1  0  0  0  0
 24 29  1  0  0  0  0
 25 26  1  0  0  0  0
 28 29  2  0  0  0  0
  2 30  1  0  0  0  0
  2 31  1  0  0  0  0
  4 32  1  0  0  0  0
  5 33  1  0  0  0  0
  6 34  1  0  0  0  0
  8 35  1  0  0  0  0
  8 36  1  0  0  0  0
  8 37  1  0  0  0  0
  9 38  1  0  0  0  0
 10 39  1  0  0  0  0
 10 40  1  0  0  0  0
 11 41  1  0  0  0  0
 12 42  1  0  0  0  0
 12 43  1  0  0  0  0
 13 44  1  0  0  0  0
 13 45  1  0  0  0  0
 14 46  1  0  0  0  0
 14 47  1  0  0  0  0
 15 48  1  0  0  0  0
 15 49  1  0  0  0  0
 16 50  1  0  0  0  0
 16 51  1  0  0  0  0
 17 52  1  0  0  0  0
 17 53  1  0  0  0  0
 18 54  1  0  0  0  0
 18 55  1  0  0  0  0
 19 56  1  0  0  0  0
 19 57  1  0  0  0  0
 21 58  1  0  0  0  0
 22 59  1  0  0  0  0
 23 60  1  0  0  0  0
 24 61  1  0  0  0  0
 26 62  1  0  0  0  0
 27 63  1  0  0  0  0
M  END
> <pdb_id>
3RVG

> <uniprot_id>
O60674

> <usmiles>
O=C(N)[C@H]1[C@@H]2N[C@@H]3C(=C2[C@@H](NC4CCCCC4)NC1)CC[C@@H](C=5C=NN(C5)C)C3

$$$$
18P_C_386
          07202405583D 1   1.00000     0.00000     0
            
 44 46  0  0  0  0            999 V2000
   71.3316   44.4134   -0.1742 Cl  0  0  0  0  0  0  0  0  0  0  0  0
   73.3097   47.0384    5.6221 O   0  0  0  0  0  0  0  0  0  0  0  0
   67.9564   48.2745   10.9182 O   0  0  0  0  0  0  0  0  0  0  0  0
   65.4915   48.1587    6.1391 N   0  0  0  0  0  0  0  0  0  0  0  0
   72.8943   45.4305    3.3811 N   0  0  0  0  0  0  0  0  0  0  0  0
   71.1134   47.7161    5.5279 N   0  0  0  0  0  0  0  0  0  0  0  0
   66.9306   49.2377    7.5727 N   0  0  0  0  0  0  0  0  0  0  0  0
   66.9649   47.0346    9.3354 N   0  0  0  0  0  0  0  0  0  0  0  0
   66.9184   45.8392   10.1915 C   0  0  0  0  0  0  0  0  0  0  0  0
   67.5208   50.7365    9.3927 C   0  0  0  0  0  0  0  0  0  0  0  0
   72.6750   44.8371    2.1749 C   0  0  0  0  0  0  0  0  0  0  0  0
   66.3042   46.8927    8.0464 C   0  0  0  0  0  0  0  0  0  0  0  0
   71.6446   49.6555    8.7105 C   0  0  0  0  0  0  0  0  0  0  0  0
   70.6793   46.1790    1.7439 C   0  0  0  0  0  0  0  0  0  0  0  0
   71.9686   48.9712    7.5251 C   0  0  0  0  0  0  0  0  0  0  0  0
   70.3074   49.7739    9.1274 C   0  0  0  0  0  0  0  0  0  0  0  0
   70.8932   46.7856    2.9861 C   0  0  0  0  0  0  0  0  0  0  0  0
   69.6019   48.5578    7.1476 C   0  0  0  0  0  0  0  0  0  0  0  0
   72.2054   47.0819    5.0767 C   0  0  0  0  0  0  0  0  0  0  0  0
   71.5841   45.1795    1.3402 C   0  0  0  0  0  0  0  0  0  0  0  0
   66.1734   48.1709    7.2850 C   0  0  0  0  0  0  0  0  0  0  0  0
   67.5665   48.1719    9.7477 C   0  0  0  0  0  0  0  0  0  0  0  0
   70.9311   48.4322    6.7298 C   0  0  0  0  0  0  0  0  0  0  0  0
   72.0015   46.3994    3.7606 C   0  0  0  0  0  0  0  0  0  0  0  0
   69.2662   49.2239    8.3440 C   0  0  0  0  0  0  0  0  0  0  0  0
   67.7896   49.3456    8.7551 C   0  0  1  0  0  0  0  0  0  0  0  0
   64.9204   47.3717    5.9055 H   0  0  0  0  0  0  0  0  0  0  0  0
   65.5513   48.9364    5.5134 H   0  0  0  0  0  0  0  0  0  0  0  0
   70.3149   47.6758    4.9271 H   0  0  0  0  0  0  0  0  0  0  0  0
   67.3938   46.0261   11.0512 H   0  0  0  0  0  0  0  0  0  0  0  0
   65.9656   45.6026   10.3821 H   0  0  0  0  0  0  0  0  0  0  0  0
   67.3640   45.0763    9.7233 H   0  0  0  0  0  0  0  0  0  0  0  0
   68.0921   50.8464   10.2061 H   0  0  0  0  0  0  0  0  0  0  0  0
   67.7403   51.4542    8.7318 H   0  0  0  0  0  0  0  0  0  0  0  0
   66.5571   50.8044    9.6507 H   0  0  0  0  0  0  0  0  0  0  0  0
   73.3112   44.1300    1.8661 H   0  0  0  0  0  0  0  0  0  0  0  0
   65.3875   46.5245    8.2021 H   0  0  0  0  0  0  0  0  0  0  0  0
   66.8321   46.2493    7.4919 H   0  0  0  0  0  0  0  0  0  0  0  0
   72.3729   50.0618    9.2623 H   0  0  0  0  0  0  0  0  0  0  0  0
   69.9104   46.4463    1.1630 H   0  0  0  0  0  0  0  0  0  0  0  0
   72.9236   48.8670    7.2474 H   0  0  0  0  0  0  0  0  0  0  0  0
   70.0917   50.2486    9.9806 H   0  0  0  0  0  0  0  0  0  0  0  0
   70.2640   47.4873    3.3202 H   0  0  0  0  0  0  0  0  0  0  0  0
   68.8736   48.1664    6.5851 H   0  0  0  0  0  0  0  0  0  0  0  0
  1 20  1  0  0  0  0
  2 19  2  0  0  0  0
  3 22  2  0  0  0  0
  4 21  1  0  0  0  0
  5 11  1  0  0  0  0
  5 24  2  0  0  0  0
  6 19  1  0  0  0  0
  6 23  1  0  0  0  0
  7 21  2  0  0  0  0
  7 26  1  0  0  0  0
  8  9  1  0  0  0  0
  8 12  1  0  0  0  0
  8 22  1  0  0  0  0
 10 26  1  0  0  0  0
 11 20  2  0  0  0  0
 12 21  1  0  0  0  0
 13 15  1  0  0  0  0
 13 16  2  0  0  0  0
 14 17  2  0  0  0  0
 14 20  1  0  0  0  0
 15 23  2  0  0  0  0
 16 25  1  0  0  0  0
 17 24  1  0  0  0  0
 18 23  1  0  0  0  0
 18 25  2  0  0  0  0
 19 24  1  0  0  0  0
 22 26  1  0  0  0  0
 25 26  1  0  0  0  0
  4 27  1  0  0  0  0
  4 28  1  0  0  0  0
  6 29  1  0  0  0  0
  9 30  1  0  0  0  0
  9 31  1  0  0  0  0
  9 32  1  0  0  0  0
 10 33  1  0  0  0  0
 10 34  1  0  0  0  0
 10 35  1  0  0  0  0
 11 36  1  0  0  0  0
 12 37  1  0  0  0  0
 12 38  1  0  0  0  0
 13 39  1  0  0  0  0
 14 40  1  0  0  0  0
 15 41  1  0  0  0  0
 16 42  1  0  0  0  0
 17 43  1  0  0  0  0
 18 44  1  0  0  0  0
M  END
> <pdb_id>
3U6A

> <uniprot_id>
P56817

> <usmiles>
Clc1cnc(cc1)C(=O)Nc2cc(ccc2)[C@]3(N=C(N)CN(C3=O)C)C

$$$$
18V_B_301
          07202407393D 1   1.00000     0.00000     0
            
 54 56  0  0  0  0            999 V2000
  -28.8485  -10.6850  -22.7325 S   0  0  0  0  0  0  0  0  0  0  0  0
  -32.4040  -13.4781  -20.6728 S   0  0  0  0  0  0  0  0  0  0  0  0
  -36.6788   -8.0731  -25.9678 F   0  0  0  0  0  0  0  0  0  0  0  0
  -38.3238  -11.0139  -22.5621 O   0  0  0  0  0  0  0  0  0  0  0  0
  -36.4850   -9.9657  -24.0050 O   0  0  0  0  0  0  0  0  0  0  0  0
  -24.1510   -9.4129  -21.7018 N   0  0  0  0  0  0  0  0  0  0  0  0
  -25.1508  -14.0152  -22.0327 N   0  0  0  0  0  0  0  0  0  0  0  0
  -26.3040  -10.1293  -22.1498 N   0  0  0  0  0  0  0  0  0  0  0  0
  -26.8037  -12.4097  -22.3300 N   0  0  0  0  0  0  0  0  0  0  0  0
  -32.0735  -12.1113  -22.6376 N   0  0  0  0  0  0  0  0  0  0  0  0
  -39.3572  -11.4986  -21.6711 C   0  0  0  0  0  0  0  0  0  0  0  0
  -29.7582  -16.0176  -22.2984 C   0  0  0  0  0  0  0  0  0  0  0  0
  -29.6128  -12.2998  -23.1197 C   0  0  0  0  0  0  0  0  0  0  0  0
  -36.6064   -7.6904  -24.6708 C   0  0  0  0  0  0  0  0  0  0  0  0
  -35.7654   -8.7327  -23.9441 C   0  0  0  0  0  0  0  0  0  0  0  0
  -29.7943  -15.6393  -20.8079 C   0  0  0  0  0  0  0  0  0  0  0  0
  -29.6563  -14.1214  -20.6165 C   0  0  0  0  0  0  0  0  0  0  0  0
  -36.6838  -12.3843  -21.3401 C   0  0  0  0  0  0  0  0  0  0  0  0
  -35.3401  -12.7326  -21.1808 C   0  0  0  0  0  0  0  0  0  0  0  0
  -24.5891  -11.7266  -21.8475 C   0  0  0  0  0  0  0  0  0  0  0  0
  -34.7026  -11.2071  -22.9373 C   0  0  0  0  0  0  0  0  0  0  0  0
  -27.1868  -11.1218  -22.3753 C   0  0  0  0  0  0  0  0  0  0  0  0
  -33.0473  -12.4886  -21.8205 C   0  0  0  0  0  0  0  0  0  0  0  0
  -30.8744  -13.3985  -21.2267 C   0  0  0  0  0  0  0  0  0  0  0  0
  -25.0163  -10.4028  -21.8876 C   0  0  0  0  0  0  0  0  0  0  0  0
  -25.5220  -12.7323  -22.0801 C   0  0  0  0  0  0  0  0  0  0  0  0
  -37.0415  -11.4415  -22.3081 C   0  0  0  0  0  0  0  0  0  0  0  0
  -36.0502  -10.8637  -23.0926 C   0  0  0  0  0  0  0  0  0  0  0  0
  -30.8659  -12.6103  -22.3037 C   0  0  0  0  0  0  0  0  0  0  0  0
  -34.3388  -12.1368  -21.9616 C   0  0  0  0  0  0  0  0  0  0  0  0
  -23.1918   -9.6173  -21.5065 H   0  0  0  0  0  0  0  0  0  0  0  0
  -24.4586   -8.4629  -21.7573 H   0  0  0  0  0  0  0  0  0  0  0  0
  -24.1976  -14.2534  -21.8469 H   0  0  0  0  0  0  0  0  0  0  0  0
  -25.8264  -14.7370  -22.1831 H   0  0  0  0  0  0  0  0  0  0  0  0
  -40.2412  -11.1245  -21.9512 H   0  0  0  0  0  0  0  0  0  0  0  0
  -39.3902  -12.4973  -21.7110 H   0  0  0  0  0  0  0  0  0  0  0  0
  -39.1537  -11.2089  -20.7359 H   0  0  0  0  0  0  0  0  0  0  0  0
  -29.8499  -17.0089  -22.3930 H   0  0  0  0  0  0  0  0  0  0  0  0
  -30.5124  -15.5661  -22.7752 H   0  0  0  0  0  0  0  0  0  0  0  0
  -28.8890  -15.7238  -22.6959 H   0  0  0  0  0  0  0  0  0  0  0  0
  -28.9381  -13.0165  -22.9434 H   0  0  0  0  0  0  0  0  0  0  0  0
  -29.8599  -12.3056  -24.0886 H   0  0  0  0  0  0  0  0  0  0  0  0
  -37.5230   -7.6508  -24.2729 H   0  0  0  0  0  0  0  0  0  0  0  0
  -36.1739   -6.7914  -24.6017 H   0  0  0  0  0  0  0  0  0  0  0  0
  -34.8771   -8.8309  -24.3927 H   0  0  0  0  0  0  0  0  0  0  0  0
  -35.6295   -8.4610  -22.9913 H   0  0  0  0  0  0  0  0  0  0  0  0
  -29.0405  -16.0973  -20.3368 H   0  0  0  0  0  0  0  0  0  0  0  0
  -30.6639  -15.9397  -20.4161 H   0  0  0  0  0  0  0  0  0  0  0  0
  -28.8227  -13.8052  -21.0695 H   0  0  0  0  0  0  0  0  0  0  0  0
  -29.6038  -13.9145  -19.6396 H   0  0  0  0  0  0  0  0  0  0  0  0
  -37.3848  -12.8066  -20.7656 H   0  0  0  0  0  0  0  0  0  0  0  0
  -35.0880  -13.4186  -20.4983 H   0  0  0  0  0  0  0  0  0  0  0  0
  -23.6334  -11.9499  -21.6557 H   0  0  0  0  0  0  0  0  0  0  0  0
  -34.0057  -10.7899  -23.5207 H   0  0  0  0  0  0  0  0  0  0  0  0
  1 13  1  0  0  0  0
  1 22  1  0  0  0  0
  2 23  1  0  0  0  0
  2 24  1  0  0  0  0
  3 14  1  0  0  0  0
  4 11  1  0  0  0  0
  4 27  1  0  0  0  0
  5 15  1  0  0  0  0
  5 28  1  0  0  0  0
  6 25  1  0  0  0  0
  7 26  1  0  0  0  0
  8 22  1  0  0  0  0
  8 25  2  0  0  0  0
  9 22  2  0  0  0  0
  9 26  1  0  0  0  0
 10 23  2  0  0  0  0
 10 29  1  0  0  0  0
 12 16  1  0  0  0  0
 13 29  1  0  0  0  0
 14 15  1  0  0  0  0
 16 17  1  0  0  0  0
 17 24  1  0  0  0  0
 18 19  1  0  0  0  0
 18 27  2  0  0  0  0
 19 30  2  0  0  0  0
 20 25  1  0  0  0  0
 20 26  2  0  0  0  0
 21 28  2  0  0  0  0
 21 30  1  0  0  0  0
 23 30  1  0  0  0  0
 24 29  2  0  0  0  0
 27 28  1  0  0  0  0
  6 31  1  0  0  0  0
  6 32  1  0  0  0  0
  7 33  1  0  0  0  0
  7 34  1  0  0  0  0
 11 35  1  0  0  0  0
 11 36  1  0  0  0  0
 11 37  1  0  0  0  0
 12 38  1  0  0  0  0
 12 39  1  0  0  0  0
 12 40  1  0  0  0  0
 13 41  1  0  0  0  0
 13 42  1  0  0  0  0
 14 43  1  0  0  0  0
 14 44  1  0  0  0  0
 15 45  1  0  0  0  0
 15 46  1  0  0  0  0
 16 47  1  0  0  0  0
 16 48  1  0  0  0  0
 17 49  1  0  0  0  0
 17 50  1  0  0  0  0
 18 51  1  0  0  0  0
 19 52  1  0  0  0  0
 20 53  1  0  0  0  0
 21 54  1  0  0  0  0
M  END
> <pdb_id>
4JLN

> <uniprot_id>
P27707

> <usmiles>
S(c1nc(N)cc(n1)N)CC=2N=C(SC2CCC)c3cc(OCCF)c(OC)cc3

$$$$
19F_B_1001
          07202411583D 1   1.00000     0.00000     0
            
 67 70  0  0  0  0            999 V2000
   14.8290    1.9621   14.4461 O   0  0  0  0  0  0  0  0  0  0  0  0
   12.2192    0.5932   21.8893 O   0  0  0  0  0  0  0  0  0  0  0  0
   10.0801    8.6289   17.4524 O   0  0  0  0  0  0  0  0  0  0  0  0
   10.4987    7.0156   19.4219 O   0  0  0  0  0  0  0  0  0  0  0  0
   12.4864    2.4672   17.8342 N   0  0  0  0  0  0  0  0  0  0  0  0
   15.7006    1.1971   18.7037 N   0  0  0  0  0  0  0  0  0  0  0  0
   12.9141    2.5714   15.4888 N   0  0  0  0  0  0  0  0  0  0  0  0
   13.8157    2.0094   17.9160 N   0  0  0  0  0  0  0  0  0  0  0  0
   10.0817    9.5843   16.3939 C   0  0  0  0  0  0  0  0  0  0  0  0
   10.6941    6.1766   20.5635 C   0  0  0  0  0  0  0  0  0  0  0  0
   17.1355    0.8867   16.7012 C   0  0  0  0  0  0  0  0  0  0  0  0
   12.6441   -0.5251   19.7958 C   0  0  0  0  0  0  0  0  0  0  0  0
   18.4426    7.0536   23.1576 C   0  0  0  0  0  0  0  0  0  0  0  0
   18.0455    7.0260   21.8345 C   0  0  0  0  0  0  0  0  0  0  0  0
   17.6963    6.3884   24.1038 C   0  0  0  0  0  0  0  0  0  0  0  0
    9.9341    6.7875   15.8436 C   0  0  0  0  0  0  0  0  0  0  0  0
   16.8981    6.3485   21.4627 C   0  0  0  0  0  0  0  0  0  0  0  0
   16.5408    5.7160   23.7317 C   0  0  0  0  0  0  0  0  0  0  0  0
   10.0995    5.4316   15.6197 C   0  0  0  0  0  0  0  0  0  0  0  0
   10.5800    5.0755   17.9359 C   0  0  0  0  0  0  0  0  0  0  0  0
   15.0361    3.6901   21.3474 C   0  0  0  0  0  0  0  0  0  0  0  0
   14.8229    5.0481   21.9957 C   0  0  0  0  0  0  0  0  0  0  0  0
   13.7416    3.0464   20.8870 C   0  0  0  0  0  0  0  0  0  0  0  0
   10.6904    3.1034   16.3774 C   0  0  0  0  0  0  0  0  0  0  0  0
   14.2223    2.1308   15.4929 C   0  0  0  0  0  0  0  0  0  0  0  0
   12.0998    2.7131   16.6464 C   0  0  0  0  0  0  0  0  0  0  0  0
   14.4909    1.5979   19.0450 C   0  0  0  0  0  0  0  0  0  0  0  0
   10.1108    7.2995   17.1253 C   0  0  0  0  0  0  0  0  0  0  0  0
   10.4130    6.4263   18.1884 C   0  0  0  0  0  0  0  0  0  0  0  0
   15.8562    1.3197   17.3378 C   0  0  0  0  0  0  0  0  0  0  0  0
   14.6840    1.8376   16.8163 C   0  0  0  0  0  0  0  0  0  0  0  0
   16.1196    5.7034   22.4036 C   0  0  0  0  0  0  0  0  0  0  0  0
   10.4425    4.5674   16.6492 C   0  0  0  0  0  0  0  0  0  0  0  0
   12.5945    0.7981   20.5285 C   0  0  2  0  0  0  0  0  0  0  0  0
   13.9032    1.5949   20.4182 C   0  0  2  0  0  0  0  0  0  0  0  0
   12.9028    0.0221   22.3280 H   0  0  0  0  0  0  0  0  0  0  0  0
   12.5062    2.8171   14.5922 H   0  0  0  0  0  0  0  0  0  0  0  0
    9.9598   10.5150   16.9442 H   0  0  0  0  0  0  0  0  0  0  0  0
   11.0216    9.6093   15.8428 H   0  0  0  0  0  0  0  0  0  0  0  0
    9.2417    9.4876   15.7082 H   0  0  0  0  0  0  0  0  0  0  0  0
   10.7043    6.7437   21.4922 H   0  0  0  0  0  0  0  0  0  0  0  0
    9.9676    5.3695   20.6441 H   0  0  0  0  0  0  0  0  0  0  0  0
   11.6880    5.7593   20.4050 H   0  0  0  0  0  0  0  0  0  0  0  0
   17.4738   -0.0524   17.1346 H   0  0  0  0  0  0  0  0  0  0  0  0
   17.0041    0.7270   15.6320 H   0  0  0  0  0  0  0  0  0  0  0  0
   17.9292    1.6198   16.8360 H   0  0  0  0  0  0  0  0  0  0  0  0
   13.5898   -1.0459   19.9334 H   0  0  0  0  0  0  0  0  0  0  0  0
   11.8682   -1.2031   20.1469 H   0  0  0  0  0  0  0  0  0  0  0  0
   12.4888   -0.4017   18.7262 H   0  0  0  0  0  0  0  0  0  0  0  0
   19.3237    7.6252   23.4435 H   0  0  0  0  0  0  0  0  0  0  0  0
   18.6214    7.5450   21.0720 H   0  0  0  0  0  0  0  0  0  0  0  0
   18.0174    6.3877   25.1447 H   0  0  0  0  0  0  0  0  0  0  0  0
    9.6440    7.3924   14.9863 H   0  0  0  0  0  0  0  0  0  0  0  0
   16.6172    6.2938   20.4123 H   0  0  0  0  0  0  0  0  0  0  0  0
   15.9501    5.2033   24.4895 H   0  0  0  0  0  0  0  0  0  0  0  0
    9.9437    5.0471   14.6139 H   0  0  0  0  0  0  0  0  0  0  0  0
   10.8280    4.3597   18.7181 H   0  0  0  0  0  0  0  0  0  0  0  0
   15.7092    3.8056   20.4993 H   0  0  0  0  0  0  0  0  0  0  0  0
   15.5593    3.0374   22.0434 H   0  0  0  0  0  0  0  0  0  0  0  0
   14.2806    5.7010   21.3135 H   0  0  0  0  0  0  0  0  0  0  0  0
   14.1674    4.9545   22.8599 H   0  0  0  0  0  0  0  0  0  0  0  0
   13.2970    3.6614   20.1067 H   0  0  0  0  0  0  0  0  0  0  0  0
   13.0238    3.0891   21.7050 H   0  0  0  0  0  0  0  0  0  0  0  0
   10.4040    2.8426   15.3606 H   0  0  0  0  0  0  0  0  0  0  0  0
   10.0447    2.4985   17.0111 H   0  0  0  0  0  0  0  0  0  0  0  0
   11.7601    1.4006   20.1730 H   0  0  0  0  0  0  0  0  0  0  0  0
   14.5994    1.1132   21.1025 H   0  0  0  0  0  0  0  0  0  0  0  0
  1 25  2  0  0  0  0
  2 34  1  0  0  0  0
  2 36  1  0  0  0  0
  3  9  1  0  0  0  0
  3 28  1  0  0  0  0
  4 10  1  0  0  0  0
  4 29  1  0  0  0  0
  5  8  1  0  0  0  0
  5 26  2  0  0  0  0
  6 27  2  0  0  0  0
  6 30  1  0  0  0  0
  7 25  1  0  0  0  0
  7 26  1  0  0  0  0
  7 37  1  0  0  0  0
  8 27  1  0  0  0  0
  8 31  1  0  0  0  0
  9 38  1  0  0  0  0
  9 39  1  0  0  0  0
  9 40  1  0  0  0  0
 10 41  1  0  0  0  0
 10 42  1  0  0  0  0
 10 43  1  0  0  0  0
 11 30  1  0  0  0  0
 11 44  1  0  0  0  0
 11 45  1  0  0  0  0
 11 46  1  0  0  0  0
 12 34  1  0  0  0  0
 12 47  1  0  0  0  0
 12 48  1  0  0  0  0
 12 49  1  0  0  0  0
 13 14  2  0  0  0  0
 13 15  1  0  0  0  0
 13 50  1  0  0  0  0
 14 17  1  0  0  0  0
 14 51  1  0  0  0  0
 15 18  2  0  0  0  0
 15 52  1  0  0  0  0
 16 19  2  0  0  0  0
 16 28  1  0  0  0  0
 16 53  1  0  0  0  0
 17 32  2  0  0  0  0
 17 54  1  0  0  0  0
 18 32  1  0  0  0  0
 18 55  1  0  0  0  0
 19 33  1  0  0  0  0
 19 56  1  0  0  0  0
 20 29  1  0  0  0  0
 20 33  2  0  0  0  0
 20 57  1  0  0  0  0
 21 22  1  0  0  0  0
 21 23  1  0  0  0  0
 21 58  1  0  0  0  0
 21 59  1  0  0  0  0
 22 32  1  0  0  0  0
 22 60  1  0  0  0  0
 22 61  1  0  0  0  0
 23 35  1  0  0  0  0
 23 62  1  0  0  0  0
 23 63  1  0  0  0  0
 24 26  1  0  0  0  0
 24 33  1  0  0  0  0
 24 64  1  0  0  0  0
 24 65  1  0  0  0  0
 25 31  1  0  0  0  0
 27 35  1  0  0  0  0
 28 29  2  0  0  0  0
 30 31  2  0  0  0  0
 34 35  1  0  0  0  0
 34 66  1  0  0  0  0
 35 67  1  0  0  0  0
M  END
> <pdb_id>
5U7D

> <uniprot_id>
O00408

> <usmiles>
O=C1NC(=NN2C(=NC(=C21)C)[C@H]([C@H](O)C)CCCc3ccccc3)Cc4cc(OC)c(OC)cc4

$$$$
19F_B_1003
          07202411583D 1   1.00000     0.00000     0
            
 67 70  0  0  0  0            999 V2000
   15.0224    2.0831   14.5426 O   0  0  0  0  0  0  0  0  0  0  0  0
   12.3255    0.7302   21.8495 O   0  0  0  0  0  0  0  0  0  0  0  0
   10.1337    8.7211   17.2725 O   0  0  0  0  0  0  0  0  0  0  0  0
   10.6481    7.1673   19.2634 O   0  0  0  0  0  0  0  0  0  0  0  0
   12.6634    2.4427   17.6832 N   0  0  0  0  0  0  0  0  0  0  0  0
   12.9952    2.6767   15.3693 N   0  0  0  0  0  0  0  0  0  0  0  0
   15.7419    1.1992   18.5842 N   0  0  0  0  0  0  0  0  0  0  0  0
   13.8770    1.9985   17.7770 N   0  0  0  0  0  0  0  0  0  0  0  0
    9.8614    9.5368   16.1329 C   0  0  0  0  0  0  0  0  0  0  0  0
   10.9318    6.2164   20.2981 C   0  0  0  0  0  0  0  0  0  0  0  0
   12.7848   -0.6889   19.9206 C   0  0  0  0  0  0  0  0  0  0  0  0
   17.1687    1.0136   16.5258 C   0  0  0  0  0  0  0  0  0  0  0  0
   18.3673    7.0373   23.1884 C   0  0  0  0  0  0  0  0  0  0  0  0
   17.6537    6.2058   24.0518 C   0  0  0  0  0  0  0  0  0  0  0  0
   17.9105    7.1901   21.8850 C   0  0  0  0  0  0  0  0  0  0  0  0
   15.1663    3.6681   21.2250 C   0  0  0  0  0  0  0  0  0  0  0  0
   10.1944    6.8816   15.6735 C   0  0  0  0  0  0  0  0  0  0  0  0
   16.5115    5.5495   23.6084 C   0  0  0  0  0  0  0  0  0  0  0  0
   16.7579    6.5337   21.4450 C   0  0  0  0  0  0  0  0  0  0  0  0
   14.8777    5.0146   21.9241 C   0  0  0  0  0  0  0  0  0  0  0  0
   13.8208    2.9499   20.9784 C   0  0  0  0  0  0  0  0  0  0  0  0
   10.3772    5.5087   15.4802 C   0  0  0  0  0  0  0  0  0  0  0  0
   10.8424    3.2881   16.3454 C   0  0  0  0  0  0  0  0  0  0  0  0
   10.7529    5.1904   17.8432 C   0  0  0  0  0  0  0  0  0  0  0  0
   14.3022    2.1893   15.5326 C   0  0  0  0  0  0  0  0  0  0  0  0
   12.1686    2.8188   16.4870 C   0  0  0  0  0  0  0  0  0  0  0  0
   12.6637    0.7489   20.4534 C   0  0  2  0  0  0  0  0  0  0  0  0
   14.5245    1.6055   18.8834 C   0  0  0  0  0  0  0  0  0  0  0  0
   10.2931    7.3994   16.9617 C   0  0  0  0  0  0  0  0  0  0  0  0
   10.5655    6.5592   18.0387 C   0  0  0  0  0  0  0  0  0  0  0  0
   15.8610    1.3552   17.2694 C   0  0  0  0  0  0  0  0  0  0  0  0
   14.7258    1.8515   16.7622 C   0  0  0  0  0  0  0  0  0  0  0  0
   16.0479    5.7012   22.3044 C   0  0  0  0  0  0  0  0  0  0  0  0
   10.6733    4.6650   16.5603 C   0  0  0  0  0  0  0  0  0  0  0  0
   13.9752    1.5517   20.3175 C   0  0  1  0  0  0  0  0  0  0  0  0
   15.9561    1.7381   14.6383 H   0  0  0  0  0  0  0  0  0  0  0  0
   12.2491    1.6686   22.1865 H   0  0  0  0  0  0  0  0  0  0  0  0
    9.7552   10.4883   16.4217 H   0  0  0  0  0  0  0  0  0  0  0  0
   10.6199    9.4679   15.4848 H   0  0  0  0  0  0  0  0  0  0  0  0
    9.0186    9.2256   15.6939 H   0  0  0  0  0  0  0  0  0  0  0  0
   10.9861    6.6878   21.1783 H   0  0  0  0  0  0  0  0  0  0  0  0
   10.2033    5.5321   20.3308 H   0  0  0  0  0  0  0  0  0  0  0  0
   11.8038    5.7659   20.1068 H   0  0  0  0  0  0  0  0  0  0  0  0
   13.0202   -0.6656   18.9490 H   0  0  0  0  0  0  0  0  0  0  0  0
   13.5000   -1.1723   20.4254 H   0  0  0  0  0  0  0  0  0  0  0  0
   11.9129   -1.1635   20.0411 H   0  0  0  0  0  0  0  0  0  0  0  0
   17.0554    1.1993   15.5498 H   0  0  0  0  0  0  0  0  0  0  0  0
   17.9139    1.5740   16.8874 H   0  0  0  0  0  0  0  0  0  0  0  0
   17.3845    0.0462   16.6583 H   0  0  0  0  0  0  0  0  0  0  0  0
   19.1895    7.5131   23.5007 H   0  0  0  0  0  0  0  0  0  0  0  0
   17.9653    6.0813   24.9938 H   0  0  0  0  0  0  0  0  0  0  0  0
   18.4141    7.7785   21.2525 H   0  0  0  0  0  0  0  0  0  0  0  0
   15.7493    3.1026   21.8085 H   0  0  0  0  0  0  0  0  0  0  0  0
   15.6267    3.8321   20.3526 H   0  0  0  0  0  0  0  0  0  0  0  0
    9.9961    7.4817   14.8986 H   0  0  0  0  0  0  0  0  0  0  0  0
   16.0122    4.9558   24.2394 H   0  0  0  0  0  0  0  0  0  0  0  0
   16.4411    6.6634   20.5054 H   0  0  0  0  0  0  0  0  0  0  0  0
   14.3319    4.8376   22.7431 H   0  0  0  0  0  0  0  0  0  0  0  0
   14.3582    5.5944   21.2963 H   0  0  0  0  0  0  0  0  0  0  0  0
   13.2615    3.5229   20.3795 H   0  0  0  0  0  0  0  0  0  0  0  0
   13.3578    2.8349   21.8573 H   0  0  0  0  0  0  0  0  0  0  0  0
   10.2958    5.1241   14.5607 H   0  0  0  0  0  0  0  0  0  0  0  0
   10.2686    2.7990   17.0023 H   0  0  0  0  0  0  0  0  0  0  0  0
   10.5372    3.0796   15.4162 H   0  0  0  0  0  0  0  0  0  0  0  0
   10.9432    4.5920   18.6215 H   0  0  0  0  0  0  0  0  0  0  0  0
   11.9401    1.2216   19.9505 H   0  0  0  0  0  0  0  0  0  0  0  0
   14.6585    1.0619   20.8589 H   0  0  0  0  0  0  0  0  0  0  0  0
  1 25  1  0  0  0  0
  2 27  1  0  0  0  0
  3  9  1  0  0  0  0
  3 29  1  0  0  0  0
  4 10  1  0  0  0  0
  4 30  1  0  0  0  0
  5  8  1  0  0  0  0
  5 26  2  0  0  0  0
  6 25  2  0  0  0  0
  6 26  1  0  0  0  0
  7 28  2  0  0  0  0
  7 31  1  0  0  0  0
  8 28  1  0  0  0  0
  8 32  1  0  0  0  0
 11 27  1  0  0  0  0
 12 31  1  0  0  0  0
 13 14  2  0  0  0  0
 13 15  1  0  0  0  0
 14 18  1  0  0  0  0
 15 19  2  0  0  0  0
 16 20  1  0  0  0  0
 16 21  1  0  0  0  0
 17 22  2  0  0  0  0
 17 29  1  0  0  0  0
 18 33  2  0  0  0  0
 19 33  1  0  0  0  0
 20 33  1  0  0  0  0
 21 35  1  0  0  0  0
 22 34  1  0  0  0  0
 23 26  1  0  0  0  0
 23 34  1  0  0  0  0
 24 30  1  0  0  0  0
 24 34  2  0  0  0  0
 25 32  1  0  0  0  0
 27 35  1  0  0  0  0
 28 35  1  0  0  0  0
 29 30  2  0  0  0  0
 31 32  2  0  0  0  0
  1 36  1  0  0  0  0
  2 37  1  0  0  0  0
  9 38  1  0  0  0  0
  9 39  1  0  0  0  0
  9 40  1  0  0  0  0
 10 41  1  0  0  0  0
 10 42  1  0  0  0  0
 10 43  1  0  0  0  0
 11 44  1  0  0  0  0
 11 45  1  0  0  0  0
 11 46  1  0  0  0  0
 12 47  1  0  0  0  0
 12 48  1  0  0  0  0
 12 49  1  0  0  0  0
 13 50  1  0  0  0  0
 14 51  1  0  0  0  0
 15 52  1  0  0  0  0
 16 53  1  0  0  0  0
 16 54  1  0  0  0  0
 17 55  1  0  0  0  0
 18 56  1  0  0  0  0
 19 57  1  0  0  0  0
 20 58  1  0  0  0  0
 20 59  1  0  0  0  0
 21 60  1  0  0  0  0
 21 61  1  0  0  0  0
 22 62  1  0  0  0  0
 23 63  1  0  0  0  0
 23 64  1  0  0  0  0
 24 65  1  0  0  0  0
 27 66  1  0  0  0  0
 35 67  1  0  0  0  0
M  END
> <pdb_id>
4HTX

> <uniprot_id>
O00408

> <usmiles>
O(c1c(OC)ccc(c1)CC2=NN3C(=NC(=C3C(O)=N2)C)[C@H]([C@H](O)C)CCCc4ccccc4)C

$$$$
19H_A_402
          07202413553D 1   1.00000     0.00000     0
            
 45 47  0  0  0  0            999 V2000
    8.7386    2.3817  103.1821 Cl  0  0  0  0  0  0  0  0  0  0  0  0
   13.0401    4.2074   95.5128 Cl  0  0  0  0  0  0  0  0  0  0  0  0
    2.3439    1.6159   97.3617 O   0  0  0  0  0  0  0  0  0  0  0  0
    1.4591    1.5967   99.3461 O   0  0  0  0  0  0  0  0  0  0  0  0
    7.1871    4.0814   96.3986 O   0  0  0  0  0  0  0  0  0  0  0  0
    4.2897    1.5684  100.4254 N   0  0  0  0  0  0  0  0  0  0  0  0
   11.4939    1.6169   96.1589 C   0  0  0  0  0  0  0  0  0  0  0  0
   11.2829    6.6856   95.3836 C   0  0  0  0  0  0  0  0  0  0  0  0
    6.5528    2.7855   96.2900 C   0  0  0  0  0  0  0  0  0  0  0  0
    5.0388    3.0545   96.2836 C   0  0  0  0  0  0  0  0  0  0  0  0
    7.9391    3.5337  100.8449 C   0  0  0  0  0  0  0  0  0  0  0  0
    4.6131    3.8540   97.5054 C   0  0  0  0  0  0  0  0  0  0  0  0
    7.0630    3.7332   99.7828 C   0  0  0  0  0  0  0  0  0  0  0  0
    6.4083    1.9181  101.7897 C   0  0  0  0  0  0  0  0  0  0  0  0
    9.3149    2.8970   96.2795 C   0  0  0  0  0  0  0  0  0  0  0  0
    9.2209    5.2998   95.9059 C   0  0  0  0  0  0  0  0  0  0  0  0
    2.4674    1.7430   98.6144 C   0  0  0  0  0  0  0  0  0  0  0  0
    7.6191    2.6223  101.8497 C   0  0  0  0  0  0  0  0  0  0  0  0
   11.3207    4.1492   95.7810 C   0  0  0  0  0  0  0  0  0  0  0  0
    8.5918    4.0886   96.1902 C   0  0  0  0  0  0  0  0  0  0  0  0
    5.5193    2.1249  100.7234 C   0  0  0  0  0  0  0  0  0  0  0  0
    3.8151    2.0901   99.2717 C   0  0  0  0  0  0  0  0  0  0  0  0
   10.6841    2.9356   96.0704 C   0  0  0  0  0  0  0  0  0  0  0  0
   10.5924    5.3319   95.6986 C   0  0  0  0  0  0  0  0  0  0  0  0
    5.8388    3.0306   99.7213 C   0  0  0  0  0  0  0  0  0  0  0  0
    4.7546    3.0242   98.8002 C   0  0  0  0  0  0  0  0  0  0  0  0
    3.1395    1.7299   96.7667 H   0  0  0  0  0  0  0  0  0  0  0  0
    3.8206    0.8818  100.9808 H   0  0  0  0  0  0  0  0  0  0  0  0
   12.4602    1.8069   95.9855 H   0  0  0  0  0  0  0  0  0  0  0  0
   11.3902    1.2228   97.0720 H   0  0  0  0  0  0  0  0  0  0  0  0
   11.1536    0.9704   95.4761 H   0  0  0  0  0  0  0  0  0  0  0  0
   12.2645    6.5387   95.2621 H   0  0  0  0  0  0  0  0  0  0  0  0
   10.8969    7.0694   94.5448 H   0  0  0  0  0  0  0  0  0  0  0  0
   11.1322    7.3209   96.1411 H   0  0  0  0  0  0  0  0  0  0  0  0
    6.8004    2.2109   97.0702 H   0  0  0  0  0  0  0  0  0  0  0  0
    6.8290    2.3332   95.4420 H   0  0  0  0  0  0  0  0  0  0  0  0
    4.5529    2.1804   96.2810 H   0  0  0  0  0  0  0  0  0  0  0  0
    4.8032    3.5693   95.4593 H   0  0  0  0  0  0  0  0  0  0  0  0
    8.7980    4.0440  100.8874 H   0  0  0  0  0  0  0  0  0  0  0  0
    3.6576    4.1284   97.3977 H   0  0  0  0  0  0  0  0  0  0  0  0
    5.1879    4.6691   97.5771 H   0  0  0  0  0  0  0  0  0  0  0  0
    7.3015    4.3788   99.0574 H   0  0  0  0  0  0  0  0  0  0  0  0
    6.1767    1.2649  102.5106 H   0  0  0  0  0  0  0  0  0  0  0  0
    8.8544    2.0346   96.4898 H   0  0  0  0  0  0  0  0  0  0  0  0
    8.6854    6.1426   95.8515 H   0  0  0  0  0  0  0  0  0  0  0  0
  1 18  1  0  0  0  0
  2 19  1  0  0  0  0
  3 17  1  0  0  0  0
  4 17  2  0  0  0  0
  5  9  1  0  0  0  0
  5 20  1  0  0  0  0
  6 21  1  0  0  0  0
  6 22  1  0  0  0  0
  7 23  1  0  0  0  0
  8 24  1  0  0  0  0
  9 10  1  0  0  0  0
 10 12  1  0  0  0  0
 11 13  1  0  0  0  0
 11 18  2  0  0  0  0
 12 26  1  0  0  0  0
 13 25  2  0  0  0  0
 14 18  1  0  0  0  0
 14 21  2  0  0  0  0
 15 20  1  0  0  0  0
 15 23  2  0  0  0  0
 16 20  2  0  0  0  0
 16 24  1  0  0  0  0
 17 22  1  0  0  0  0
 19 23  1  0  0  0  0
 19 24  2  0  0  0  0
 21 25  1  0  0  0  0
 22 26  2  0  0  0  0
 25 26  1  0  0  0  0
  3 27  1  0  0  0  0
  6 28  1  0  0  0  0
  7 29  1  0  0  0  0
  7 30  1  0  0  0  0
  7 31  1  0  0  0  0
  8 32  1  0  0  0  0
  8 33  1  0  0  0  0
  8 34  1  0  0  0  0
  9 35  1  0  0  0  0
  9 36  1  0  0  0  0
 10 37  1  0  0  0  0
 10 38  1  0  0  0  0
 11 39  1  0  0  0  0
 12 40  1  0  0  0  0
 12 41  1  0  0  0  0
 13 42  1  0  0  0  0
 14 43  1  0  0  0  0
 15 44  1  0  0  0  0
 16 45  1  0  0  0  0
M  END
> <pdb_id>
4WMU

> <uniprot_id>
P0AEX9

> <usmiles>
Clc1c(cc(OCCCC=2c3c(NC2C(=O)O)cc(Cl)cc3)cc1C)C

$$$$
19N_A_1102
          07212402543D 1   1.00000     0.00000     0
            
 31 30  0  0  0  0            999 V2000
  164.7314  228.9633   11.0982 P   0  0  0  0  0  0  0  0  0  0  0  0
  163.7785  227.8287   10.7509 O   0  0  0  0  0  0  0  0  0  0  0  0
  164.6490  229.8835    9.8467 O   0  0  0  0  0  0  0  0  0  0  0  0
  166.2016  228.6573   11.4377 O   0  0  0  0  0  0  0  0  0  0  0  0
  162.4940  230.0247   12.0092 N   0  0  0  0  0  0  0  0  0  0  0  0
  162.6791  227.2612   19.7532 N   0  0  0  0  0  0  0  0  0  0  0  0
  164.2238  225.8428   18.8578 N   0  0  0  0  0  0  0  0  0  0  0  0
  164.0619  228.0408   18.1458 N   0  0  0  0  0  0  0  0  0  0  0  0
  164.0485  228.1148   16.6917 C   0  0  0  0  0  0  0  0  0  0  0  0
  163.3238  229.3528   16.1968 C   0  0  0  0  0  0  0  0  0  0  0  0
  163.8812  229.9130   14.8866 C   0  0  0  0  0  0  0  0  0  0  0  0
  163.9274  228.9087   13.7067 C   0  0  0  0  0  0  0  0  0  0  0  0
  163.8833  229.8003   12.4697 C   0  0  1  0  0  0  0  0  0  0  0  0
  163.6302  227.0433   18.9182 C   0  0  0  0  0  0  0  0  0  0  0  0
  163.7569  227.1696   11.5027 H   0  0  0  0  0  0  0  0  0  0  0  0
  165.2486  230.6736    9.9738 H   0  0  0  0  0  0  0  0  0  0  0  0
  161.9748  230.4861   12.7285 H   0  0  0  0  0  0  0  0  0  0  0  0
  162.5032  230.5941   11.1872 H   0  0  0  0  0  0  0  0  0  0  0  0
  162.2426  228.1602   19.7904 H   0  0  0  0  0  0  0  0  0  0  0  0
  162.3749  226.5320   20.3661 H   0  0  0  0  0  0  0  0  0  0  0  0
  164.9636  225.6831   18.2042 H   0  0  0  0  0  0  0  0  0  0  0  0
  164.4407  228.8338   18.6229 H   0  0  0  0  0  0  0  0  0  0  0  0
  163.5878  227.3041   16.3306 H   0  0  0  0  0  0  0  0  0  0  0  0
  164.9917  228.1377   16.3601 H   0  0  0  0  0  0  0  0  0  0  0  0
  163.3956  230.0617   16.8985 H   0  0  0  0  0  0  0  0  0  0  0  0
  162.3616  229.1196   16.0559 H   0  0  0  0  0  0  0  0  0  0  0  0
  164.8133  230.2319   15.0581 H   0  0  0  0  0  0  0  0  0  0  0  0
  163.3094  230.6862   14.6125 H   0  0  0  0  0  0  0  0  0  0  0  0
  163.1393  228.2937   13.7311 H   0  0  0  0  0  0  0  0  0  0  0  0
  164.7705  228.3713   13.7289 H   0  0  0  0  0  0  0  0  0  0  0  0
  164.3259  230.6760   12.6627 H   0  0  0  0  0  0  0  0  0  0  0  0
  1  2  1  0  0  0  0
  1  3  1  0  0  0  0
  1  4  2  0  0  0  0
  1 13  1  0  0  0  0
  5 13  1  0  0  0  0
  6 14  1  0  0  0  0
  7 14  2  0  0  0  0
  8  9  1  0  0  0  0
  8 14  1  0  0  0  0
  9 10  1  0  0  0  0
 10 11  1  0  0  0  0
 11 12  1  0  0  0  0
 12 13  1  0  0  0  0
  2 15  1  0  0  0  0
  3 16  1  0  0  0  0
  5 17  1  0  0  0  0
  5 18  1  0  0  0  0
  6 19  1  0  0  0  0
  6 20  1  0  0  0  0
  7 21  1  0  0  0  0
  8 22  1  0  0  0  0
  9 23  1  0  0  0  0
  9 24  1  0  0  0  0
 10 25  1  0  0  0  0
 10 26  1  0  0  0  0
 11 27  1  0  0  0  0
 11 28  1  0  0  0  0
 12 29  1  0  0  0  0
 12 30  1  0  0  0  0
 13 31  1  0  0  0  0
M  END
> <pdb_id>
4K5L

> <uniprot_id>
O96935

> <usmiles>
P(=O)(O)(O)[C@@H](N)CCCCNC(=N)N

$$$$
19R_A_1201
          07192419483D 1   1.00000     0.00000     0
            
 41 43  0  0  0  0            999 V2000
   15.5697   22.0990   30.2992 O   0  0  0  0  0  0  0  0  0  0  0  0
   16.2460   25.4182   26.7384 O   0  0  0  0  0  0  0  0  0  0  0  0
   21.2169   21.3416   28.8663 N   0  0  0  0  0  0  0  0  0  0  0  0
   19.3983   20.3991   30.2718 N   0  0  0  0  0  0  0  0  0  0  0  0
   16.2792   23.3291   28.5468 N   0  0  0  0  0  0  0  0  0  0  0  0
   19.2999   23.1137   28.0263 N   0  0  0  0  0  0  0  0  0  0  0  0
   14.2316   23.1986   27.2450 C   0  0  0  0  0  0  0  0  0  0  0  0
   13.9661   26.0599   27.2253 C   0  0  0  0  0  0  0  0  0  0  0  0
   15.8089   26.3243   28.9036 C   0  0  0  0  0  0  0  0  0  0  0  0
   21.4934   22.2881   27.9828 C   0  0  0  0  0  0  0  0  0  0  0  0
   18.0974   20.7228   30.4390 C   0  0  0  0  0  0  0  0  0  0  0  0
   19.8544   24.7495   25.5653 C   0  0  0  0  0  0  0  0  0  0  0  0
   20.3610   25.6485   26.7018 C   0  0  0  0  0  0  0  0  0  0  0  0
   16.4630   22.4255   29.5338 C   0  0  0  0  0  0  0  0  0  0  0  0
   19.9824   21.2460   29.3577 C   0  0  0  0  0  0  0  0  0  0  0  0
   15.0038   24.0177   28.2911 C   0  0  2  0  0  0  0  0  0  0  0  0
   20.5281   23.1863   27.5463 C   0  0  0  0  0  0  0  0  0  0  0  0
   18.9966   22.1657   28.9243 C   0  0  0  0  0  0  0  0  0  0  0  0
   20.9236   24.2361   26.5368 C   0  0  0  0  0  0  0  0  0  0  0  0
   17.7814   21.7947   29.6523 C   0  0  0  0  0  0  0  0  0  0  0  0
   15.2639   25.4453   27.7712 C   0  0  0  0  0  0  0  0  0  0  0  0
   17.0914   25.0183   27.0927 H   0  0  0  0  0  0  0  0  0  0  0  0
   19.8683   19.6530   30.7434 H   0  0  0  0  0  0  0  0  0  0  0  0
   17.0560   23.5429   27.9545 H   0  0  0  0  0  0  0  0  0  0  0  0
   13.3577   23.6445   27.0512 H   0  0  0  0  0  0  0  0  0  0  0  0
   14.7696   23.1399   26.4041 H   0  0  0  0  0  0  0  0  0  0  0  0
   14.0648   22.2783   27.5989 H   0  0  0  0  0  0  0  0  0  0  0  0
   13.2763   26.0794   27.9491 H   0  0  0  0  0  0  0  0  0  0  0  0
   14.1453   26.9920   26.9104 H   0  0  0  0  0  0  0  0  0  0  0  0
   13.6318   25.5084   26.4610 H   0  0  0  0  0  0  0  0  0  0  0  0
   15.1405   26.3636   29.6463 H   0  0  0  0  0  0  0  0  0  0  0  0
   16.6644   25.9352   29.2454 H   0  0  0  0  0  0  0  0  0  0  0  0
   15.9773   27.2473   28.5576 H   0  0  0  0  0  0  0  0  0  0  0  0
   22.4226   22.3583   27.6199 H   0  0  0  0  0  0  0  0  0  0  0  0
   17.4608   20.2490   31.0474 H   0  0  0  0  0  0  0  0  0  0  0  0
   20.0972   24.9562   24.6175 H   0  0  0  0  0  0  0  0  0  0  0  0
   18.9275   24.3758   25.5980 H   0  0  0  0  0  0  0  0  0  0  0  0
   19.7635   25.8614   27.4749 H   0  0  0  0  0  0  0  0  0  0  0  0
   20.9333   26.4419   26.4944 H   0  0  0  0  0  0  0  0  0  0  0  0
   14.4733   24.0624   29.1377 H   0  0  0  0  0  0  0  0  0  0  0  0
   21.8535   24.1714   26.1749 H   0  0  0  0  0  0  0  0  0  0  0  0
  1 14  2  0  0  0  0
  2 21  1  0  0  0  0
  3 10  1  0  0  0  0
  3 15  2  0  0  0  0
  4 11  1  0  0  0  0
  4 15  1  0  0  0  0
  5 14  1  0  0  0  0
  5 16  1  0  0  0  0
  6 17  1  0  0  0  0
  6 18  2  0  0  0  0
  7 16  1  0  0  0  0
  8 21  1  0  0  0  0
  9 21  1  0  0  0  0
 10 17  2  0  0  0  0
 11 20  2  0  0  0  0
 12 13  1  0  0  0  0
 12 19  1  0  0  0  0
 13 19  1  0  0  0  0
 14 20  1  0  0  0  0
 15 18  1  0  0  0  0
 16 21  1  0  0  0  0
 17 19  1  0  0  0  0
 18 20  1  0  0  0  0
  2 22  1  0  0  0  0
  4 23  1  0  0  0  0
  5 24  1  0  0  0  0
  7 25  1  0  0  0  0
  7 26  1  0  0  0  0
  7 27  1  0  0  0  0
  8 28  1  0  0  0  0
  8 29  1  0  0  0  0
  8 30  1  0  0  0  0
  9 31  1  0  0  0  0
  9 32  1  0  0  0  0
  9 33  1  0  0  0  0
 10 34  1  0  0  0  0
 11 35  1  0  0  0  0
 12 36  1  0  0  0  0
 12 37  1  0  0  0  0
 13 38  1  0  0  0  0
 13 39  1  0  0  0  0
 16 40  1  0  0  0  0
 19 41  1  0  0  0  0
M  END
> <pdb_id>
4HVH

> <uniprot_id>
P52333

> <usmiles>
O=C(N[C@@H](C(O)(C)C)C)C=1c2nc(cnc2NC1)C3CC3

$$$$
19T_A_701
          07202412153D 1   1.00000     0.00000     0
            
 44 46  0  0  0  0            999 V2000
   49.0676   48.9321   69.4008 Cl  0  0  0  0  0  0  0  0  0  0  0  0
   47.6601   47.5539   67.0143 S   0  0  0  0  0  0  0  0  0  0  0  0
   52.1165   43.3041   65.0029 O   0  0  0  0  0  0  0  0  0  0  0  0
   53.2681   45.1434   64.9438 O   0  0  0  0  0  0  0  0  0  0  0  0
   46.1106   46.4459   64.7830 N   0  0  0  0  0  0  0  0  0  0  0  0
   46.3853   45.4938   62.7164 N   0  0  0  0  0  0  0  0  0  0  0  0
   43.9653   46.9076   65.7144 N   0  0  0  0  0  0  0  0  0  0  0  0
   43.6325   46.3658   61.2500 C   0  0  0  0  0  0  0  0  0  0  0  0
   41.8652   46.3724   64.5118 C   0  0  0  0  0  0  0  0  0  0  0  0
   43.5733   45.3108   62.3488 C   0  0  0  0  0  0  0  0  0  0  0  0
   46.3052   48.6701   68.8436 C   0  0  0  0  0  0  0  0  0  0  0  0
   45.3691   48.1481   67.9181 C   0  0  0  0  0  0  0  0  0  0  0  0
   48.5485   46.2993   63.5237 C   0  0  0  0  0  0  0  0  0  0  0  0
   48.3745   44.2888   62.1804 C   0  0  0  0  0  0  0  0  0  0  0  0
   49.9564   46.0618   63.6211 C   0  0  0  0  0  0  0  0  0  0  0  0
   49.7241   44.0699   62.2938 C   0  0  0  0  0  0  0  0  0  0  0  0
   52.0436   44.6898   63.0371 C   0  0  0  0  0  0  0  0  0  0  0  0
   47.5949   48.4095   68.4644 C   0  0  0  0  0  0  0  0  0  0  0  0
   52.4835   44.3544   64.4356 C   0  0  0  0  0  0  0  0  0  0  0  0
   45.9974   47.5017   66.8743 C   0  0  0  0  0  0  0  0  0  0  0  0
   45.3303   46.8984   65.7885 C   0  0  0  0  0  0  0  0  0  0  0  0
   45.6027   45.9519   63.7130 C   0  0  0  0  0  0  0  0  0  0  0  0
   47.7581   45.3710   62.7965 C   0  0  0  0  0  0  0  0  0  0  0  0
   43.3857   46.3892   64.6318 C   0  0  0  0  0  0  0  0  0  0  0  0
   50.5252   44.9311   63.0058 C   0  0  0  0  0  0  0  0  0  0  0  0
   44.1962   45.8791   63.5989 C   0  0  0  0  0  0  0  0  0  0  0  0
   51.4727   42.6888   64.5479 H   0  0  0  0  0  0  0  0  0  0  0  0
   45.9421   45.2247   61.8613 H   0  0  0  0  0  0  0  0  0  0  0  0
   43.2218   46.0005   60.4146 H   0  0  0  0  0  0  0  0  0  0  0  0
   43.1285   47.1790   61.5411 H   0  0  0  0  0  0  0  0  0  0  0  0
   44.5860   46.6101   61.0734 H   0  0  0  0  0  0  0  0  0  0  0  0
   41.6040   45.9509   63.6434 H   0  0  0  0  0  0  0  0  0  0  0  0
   41.4770   45.8457   65.2680 H   0  0  0  0  0  0  0  0  0  0  0  0
   41.5178   47.3095   64.5453 H   0  0  0  0  0  0  0  0  0  0  0  0
   44.0781   44.4968   62.0614 H   0  0  0  0  0  0  0  0  0  0  0  0
   42.6207   45.0657   62.5290 H   0  0  0  0  0  0  0  0  0  0  0  0
   46.0548   49.1686   69.6735 H   0  0  0  0  0  0  0  0  0  0  0  0
   44.3773   48.2370   68.0099 H   0  0  0  0  0  0  0  0  0  0  0  0
   48.1322   47.0987   63.9569 H   0  0  0  0  0  0  0  0  0  0  0  0
   47.8209   43.6541   61.6413 H   0  0  0  0  0  0  0  0  0  0  0  0
   50.5367   46.7001   64.1269 H   0  0  0  0  0  0  0  0  0  0  0  0
   50.1318   43.2711   61.8514 H   0  0  0  0  0  0  0  0  0  0  0  0
   52.2707   43.9302   62.4276 H   0  0  0  0  0  0  0  0  0  0  0  0
   52.5164   45.5159   62.7306 H   0  0  0  0  0  0  0  0  0  0  0  0
  1 18  1  0  0  0  0
  2 18  1  0  0  0  0
  2 20  1  0  0  0  0
  3 19  1  0  0  0  0
  4 19  2  0  0  0  0
  5 21  2  0  0  0  0
  5 22  1  0  0  0  0
  6 22  1  0  0  0  0
  6 23  1  0  0  0  0
  7 21  1  0  0  0  0
  7 24  2  0  0  0  0
  8 10  1  0  0  0  0
  9 24  1  0  0  0  0
 10 26  1  0  0  0  0
 11 12  1  0  0  0  0
 11 18  2  0  0  0  0
 12 20  2  0  0  0  0
 13 15  1  0  0  0  0
 13 23  2  0  0  0  0
 14 16  2  0  0  0  0
 14 23  1  0  0  0  0
 15 25  2  0  0  0  0
 16 25  1  0  0  0  0
 17 19  1  0  0  0  0
 17 25  1  0  0  0  0
 20 21  1  0  0  0  0
 22 26  2  0  0  0  0
 24 26  1  0  0  0  0
  3 27  1  0  0  0  0
  6 28  1  0  0  0  0
  8 29  1  0  0  0  0
  8 30  1  0  0  0  0
  8 31  1  0  0  0  0
  9 32  1  0  0  0  0
  9 33  1  0  0  0  0
  9 34  1  0  0  0  0
 10 35  1  0  0  0  0
 10 36  1  0  0  0  0
 11 37  1  0  0  0  0
 12 38  1  0  0  0  0
 13 39  1  0  0  0  0
 14 40  1  0  0  0  0
 15 41  1  0  0  0  0
 16 42  1  0  0  0  0
 17 43  1  0  0  0  0
 17 44  1  0  0  0  0
M  END
> <pdb_id>
4MYQ

> <uniprot_id>
Q07343

> <usmiles>
ClC=1SC(c2nc(Nc3ccc(cc3)CC(=O)O)c(c(n2)C)CC)=CC1

$$$$
19U_H_801
          07202416143D 1   1.00000     0.00000     0
            
 44 45  0  0  0  0            999 V2000
   16.3718   -8.3449   10.8406 Cl  0  0  0  0  0  0  0  0  0  0  0  0
   12.8496  -12.9919   15.3602 O   0  0  0  0  0  0  0  0  0  0  0  0
   12.1881  -13.5119   12.5483 O   0  0  0  0  0  0  0  0  0  0  0  0
   12.0344  -16.2043   12.1259 N   0  0  0  0  0  0  0  0  0  0  0  0
   12.8749  -10.8457   14.6849 N   0  0  0  0  0  0  0  0  0  0  0  0
   10.4612  -13.4979   14.0147 N   0  0  0  0  0  0  0  0  0  0  0  0
    8.7448  -14.5530   11.1808 C   0  0  0  0  0  0  0  0  0  0  0  0
   14.2676  -10.7464   15.1152 C   0  0  0  0  0  0  0  0  0  0  0  0
    9.1613  -14.0494   14.4132 C   0  0  0  0  0  0  0  0  0  0  0  0
   10.1756  -15.0861   10.9733 C   0  0  0  0  0  0  0  0  0  0  0  0
    8.5860  -12.8610   15.2305 C   0  0  0  0  0  0  0  0  0  0  0  0
   17.0266  -11.8598   12.7272 C   0  0  0  0  0  0  0  0  0  0  0  0
   17.1029  -10.7892   11.8296 C   0  0  0  0  0  0  0  0  0  0  0  0
    9.8764  -12.2156   15.8120 C   0  0  0  0  0  0  0  0  0  0  0  0
   16.1068  -11.8243   13.7771 C   0  0  0  0  0  0  0  0  0  0  0  0
   15.3396   -9.6588   13.0416 C   0  0  0  0  0  0  0  0  0  0  0  0
   12.2444  -12.0297   14.9052 C   0  0  0  0  0  0  0  0  0  0  0  0
   16.2573   -9.6812   11.9828 C   0  0  0  0  0  0  0  0  0  0  0  0
   11.1845  -14.0517   13.0039 C   0  0  0  0  0  0  0  0  0  0  0  0
   10.8235  -15.3816   12.3548 C   0  0  2  0  0  0  0  0  0  0  0  0
   10.7895  -12.1851   14.5568 C   0  0  1  0  0  0  0  0  0  0  0  0
   15.2544  -10.7264   13.9453 C   0  0  0  0  0  0  0  0  0  0  0  0
   12.4698  -16.4079   13.0028 H   0  0  0  0  0  0  0  0  0  0  0  0
   11.7764  -17.0591   11.6755 H   0  0  0  0  0  0  0  0  0  0  0  0
   12.4068  -10.0776   14.2481 H   0  0  0  0  0  0  0  0  0  0  0  0
    8.3278  -14.3629   10.2920 H   0  0  0  0  0  0  0  0  0  0  0  0
    8.2006  -15.2385   11.6645 H   0  0  0  0  0  0  0  0  0  0  0  0
    8.7775  -13.7118   11.7205 H   0  0  0  0  0  0  0  0  0  0  0  0
   14.4784  -11.5323   15.6966 H   0  0  0  0  0  0  0  0  0  0  0  0
   14.3794   -9.9032   15.6410 H   0  0  0  0  0  0  0  0  0  0  0  0
    9.2653  -14.8687   14.9770 H   0  0  0  0  0  0  0  0  0  0  0  0
    8.5914  -14.2612   13.6193 H   0  0  0  0  0  0  0  0  0  0  0  0
   10.7199  -14.4006   10.4896 H   0  0  0  0  0  0  0  0  0  0  0  0
   10.1430  -15.9273   10.4336 H   0  0  0  0  0  0  0  0  0  0  0  0
    7.9793  -13.1803   15.9585 H   0  0  0  0  0  0  0  0  0  0  0  0
    8.0924  -12.2204   14.6422 H   0  0  0  0  0  0  0  0  0  0  0  0
   17.6302  -12.6494   12.6170 H   0  0  0  0  0  0  0  0  0  0  0  0
   17.7615  -10.8143   11.0775 H   0  0  0  0  0  0  0  0  0  0  0  0
   10.2714  -12.7772   16.5391 H   0  0  0  0  0  0  0  0  0  0  0  0
    9.7008  -11.2948   16.1601 H   0  0  0  0  0  0  0  0  0  0  0  0
   16.0563  -12.5918   14.4162 H   0  0  0  0  0  0  0  0  0  0  0  0
   14.7365   -8.8691   13.1539 H   0  0  0  0  0  0  0  0  0  0  0  0
   10.1781  -15.8793   12.9342 H   0  0  0  0  0  0  0  0  0  0  0  0
   10.4995  -11.4630   13.9288 H   0  0  0  0  0  0  0  0  0  0  0  0
  1 18  1  0  0  0  0
  2 17  2  0  0  0  0
  3 19  2  0  0  0  0
  4 20  1  0  0  0  0
  5  8  1  0  0  0  0
  5 17  1  0  0  0  0
  6  9  1  0  0  0  0
  6 19  1  0  0  0  0
  6 21  1  0  0  0  0
  7 10  1  0  0  0  0
  8 22  1  0  0  0  0
  9 11  1  0  0  0  0
 10 20  1  0  0  0  0
 11 14  1  0  0  0  0
 12 13  2  0  0  0  0
 12 15  1  0  0  0  0
 13 18  1  0  0  0  0
 14 21  1  0  0  0  0
 15 22  2  0  0  0  0
 16 18  2  0  0  0  0
 16 22  1  0  0  0  0
 17 21  1  0  0  0  0
 19 20  1  0  0  0  0
  4 23  1  0  0  0  0
  4 24  1  0  0  0  0
  5 25  1  0  0  0  0
  7 26  1  0  0  0  0
  7 27  1  0  0  0  0
  7 28  1  0  0  0  0
  8 29  1  0  0  0  0
  8 30  1  0  0  0  0
  9 31  1  0  0  0  0
  9 32  1  0  0  0  0
 10 33  1  0  0  0  0
 10 34  1  0  0  0  0
 11 35  1  0  0  0  0
 11 36  1  0  0  0  0
 12 37  1  0  0  0  0
 13 38  1  0  0  0  0
 14 39  1  0  0  0  0
 14 40  1  0  0  0  0
 15 41  1  0  0  0  0
 16 42  1  0  0  0  0
 20 43  1  0  0  0  0
 21 44  1  0  0  0  0
M  END
> <pdb_id>
2ZFP

> <uniprot_id>
P00734

> <usmiles>
Clc1cc(ccc1)CNC(=O)[C@H]2N(C(=O)[C@H](N)CC)CCC2

$$$$
19X_A_1401
          07202407233D 1   1.00000     0.00000     0
            
 50 54  0  0  0  0            999 V2000
   15.2073   21.3994   -1.2695 Cl  0  0  0  0  0  0  0  0  0  0  0  0
   14.9976   28.4842    0.3055 S   0  0  0  0  0  0  0  0  0  0  0  0
   18.5118   32.9006    0.4427 O   0  0  0  0  0  0  0  0  0  0  0  0
   18.2822   22.7381    2.6874 N   0  0  0  0  0  0  0  0  0  0  0  0
   19.9966   31.8893    2.0013 N   0  0  0  0  0  0  0  0  0  0  0  0
   13.7810   26.2422   -0.1162 N   0  0  0  0  0  0  0  0  0  0  0  0
   16.1540   26.1237    0.0473 N   0  0  0  0  0  0  0  0  0  0  0  0
   12.5609   24.2136   -0.7411 N   0  0  0  0  0  0  0  0  0  0  0  0
   17.4275   24.1949   -0.0250 N   0  0  0  0  0  0  0  0  0  0  0  0
   10.9304   22.0938   -2.3919 C   0  0  0  0  0  0  0  0  0  0  0  0
   18.6042   24.9949    0.2547 C   0  0  0  0  0  0  0  0  0  0  0  0
   20.0368   30.5698    2.6860 C   0  0  0  0  0  0  0  0  0  0  0  0
   17.5646   22.7550    0.2801 C   0  0  0  0  0  0  0  0  0  0  0  0
   11.9310   21.7582   -1.3041 C   0  0  0  0  0  0  0  0  0  0  0  0
   19.4953   23.9927    0.9785 C   0  0  0  0  0  0  0  0  0  0  0  0
   17.1629   28.2180    1.9171 C   0  0  0  0  0  0  0  0  0  0  0  0
   18.3702   28.6246    2.5192 C   0  0  0  0  0  0  0  0  0  0  0  0
   16.9062   30.2930    0.6511 C   0  0  0  0  0  0  0  0  0  0  0  0
   14.9953   26.7939    0.0826 C   0  0  0  0  0  0  0  0  0  0  0  0
   14.3038   22.8862   -0.8387 C   0  0  0  0  0  0  0  0  0  0  0  0
   16.4627   29.0038    0.9905 C   0  0  0  0  0  0  0  0  0  0  0  0
   18.8858   31.9261    1.2078 C   0  0  0  0  0  0  0  0  0  0  0  0
   18.7294   22.7013    1.2689 C   0  0  1  0  0  0  0  0  0  0  0  0
   13.6528   24.9548   -0.4353 C   0  0  0  0  0  0  0  0  0  0  0  0
   16.2119   24.8070   -0.2118 C   0  0  0  0  0  0  0  0  0  0  0  0
   12.8492   22.9364   -1.0007 C   0  0  0  0  0  0  0  0  0  0  0  0
   18.8283   29.8939    2.2115 C   0  0  0  0  0  0  0  0  0  0  0  0
   18.0605   30.7118    1.2691 C   0  0  0  0  0  0  0  0  0  0  0  0
   14.8997   24.1579   -0.4733 C   0  0  0  0  0  0  0  0  0  0  0  0
   19.0798   22.7007    3.2894 H   0  0  0  0  0  0  0  0  0  0  0  0
   17.7769   23.5844    2.8557 H   0  0  0  0  0  0  0  0  0  0  0  0
   20.6677   32.6235    2.1043 H   0  0  0  0  0  0  0  0  0  0  0  0
   11.6331   24.5855   -0.7694 H   0  0  0  0  0  0  0  0  0  0  0  0
   10.3466   21.3004   -2.5641 H   0  0  0  0  0  0  0  0  0  0  0  0
   10.3660   22.8656   -2.0991 H   0  0  0  0  0  0  0  0  0  0  0  0
   11.4183   22.3368   -3.2302 H   0  0  0  0  0  0  0  0  0  0  0  0
   18.3835   25.7754    0.8397 H   0  0  0  0  0  0  0  0  0  0  0  0
   19.0321   25.3207   -0.5883 H   0  0  0  0  0  0  0  0  0  0  0  0
   20.0151   30.6830    3.6793 H   0  0  0  0  0  0  0  0  0  0  0  0
   20.8562   30.0586    2.4266 H   0  0  0  0  0  0  0  0  0  0  0  0
   17.7751   22.2340   -0.5471 H   0  0  0  0  0  0  0  0  0  0  0  0
   16.7280   22.3976    0.6953 H   0  0  0  0  0  0  0  0  0  0  0  0
   12.4869   20.9826   -1.6030 H   0  0  0  0  0  0  0  0  0  0  0  0
   11.4346   21.5114   -0.4718 H   0  0  0  0  0  0  0  0  0  0  0  0
   19.8052   24.3919    1.8414 H   0  0  0  0  0  0  0  0  0  0  0  0
   20.2872   23.7830    0.4049 H   0  0  0  0  0  0  0  0  0  0  0  0
   16.7866   27.3247    2.1629 H   0  0  0  0  0  0  0  0  0  0  0  0
   18.8731   28.0236    3.1404 H   0  0  0  0  0  0  0  0  0  0  0  0
   16.4128   30.8702    0.0004 H   0  0  0  0  0  0  0  0  0  0  0  0
   19.3042   21.9011    1.0980 H   0  0  0  0  0  0  0  0  0  0  0  0
  1 20  1  0  0  0  0
  2 19  1  0  0  0  0
  2 21  1  0  0  0  0
  3 22  2  0  0  0  0
  4 23  1  0  0  0  0
  5 12  1  0  0  0  0
  5 22  1  0  0  0  0
  6 19  2  0  0  0  0
  6 24  1  0  0  0  0
  7 19  1  0  0  0  0
  7 25  2  0  0  0  0
  8 24  1  0  0  0  0
  8 26  1  0  0  0  0
  9 11  1  0  0  0  0
  9 13  1  0  0  0  0
  9 25  1  0  0  0  0
 10 14  1  0  0  0  0
 11 15  1  0  0  0  0
 12 27  1  0  0  0  0
 13 23  1  0  0  0  0
 14 26  1  0  0  0  0
 15 23  1  0  0  0  0
 16 17  1  0  0  0  0
 16 21  2  0  0  0  0
 17 27  2  0  0  0  0
 18 21  1  0  0  0  0
 18 28  2  0  0  0  0
 20 26  2  0  0  0  0
 20 29  1  0  0  0  0
 22 28  1  0  0  0  0
 24 29  2  0  0  0  0
 25 29  1  0  0  0  0
 27 28  1  0  0  0  0
  4 30  1  0  0  0  0
  4 31  1  0  0  0  0
  5 32  1  0  0  0  0
  8 33  1  0  0  0  0
 10 34  1  0  0  0  0
 10 35  1  0  0  0  0
 10 36  1  0  0  0  0
 11 37  1  0  0  0  0
 11 38  1  0  0  0  0
 12 39  1  0  0  0  0
 12 40  1  0  0  0  0
 13 41  1  0  0  0  0
 13 42  1  0  0  0  0
 14 43  1  0  0  0  0
 14 44  1  0  0  0  0
 15 45  1  0  0  0  0
 15 46  1  0  0  0  0
 16 47  1  0  0  0  0
 17 48  1  0  0  0  0
 18 49  1  0  0  0  0
 23 50  1  0  0  0  0
M  END
> <pdb_id>
4HY1

> <uniprot_id>
Q2A1P5

> <usmiles>
ClC=1c2c(nc(Sc3cc4c(cc3)CNC4=O)nc2NC1CC)N5C[C@H](N)CC5

$$$$
1A0_A_301
          07202407153D 1   1.00000     0.00000     0
            
 48 52  0  0  0  0            999 V2000
   10.1407   -2.1311   11.6933 Cl  0  0  0  0  0  0  0  0  0  0  0  0
   11.6876   -7.8910   15.9816 S   0  0  0  0  0  0  0  0  0  0  0  0
    8.1247   -1.9404   16.1966 N   0  0  0  0  0  0  0  0  0  0  0  0
    7.4200   -8.7306   19.8613 N   0  0  0  0  0  0  0  0  0  0  0  0
    8.5372  -10.9413   18.5906 N   0  0  0  0  0  0  0  0  0  0  0  0
    8.8514   -7.2970   18.6624 N   0  0  0  0  0  0  0  0  0  0  0  0
   12.4453   -6.0632   14.3373 N   0  0  0  0  0  0  0  0  0  0  0  0
   10.1843   -5.9447   15.0428 N   0  0  0  0  0  0  0  0  0  0  0  0
   13.2289   -4.4308   12.6820 N   0  0  0  0  0  0  0  0  0  0  0  0
    8.6133   -4.3483   14.3921 N   0  0  0  0  0  0  0  0  0  0  0  0
   14.3829   -3.3154   10.1627 C   0  0  0  0  0  0  0  0  0  0  0  0
    6.9901   -9.9658   20.1317 C   0  0  0  0  0  0  0  0  0  0  0  0
    7.5536  -11.0738   19.4983 C   0  0  0  0  0  0  0  0  0  0  0  0
    9.8335   -7.1345   17.7629 C   0  0  0  0  0  0  0  0  0  0  0  0
    7.6015   -5.0211   15.2021 C   0  0  0  0  0  0  0  0  0  0  0  0
    8.2973   -2.9838   13.9868 C   0  0  0  0  0  0  0  0  0  0  0  0
   13.3947   -2.5084   10.9857 C   0  0  0  0  0  0  0  0  0  0  0  0
    6.7420   -3.8399   15.6565 C   0  0  0  0  0  0  0  0  0  0  0  0
   10.0300   -9.5215   17.3363 C   0  0  0  0  0  0  0  0  0  0  0  0
   11.4086   -6.5102   15.0602 C   0  0  0  0  0  0  0  0  0  0  0  0
   11.3137   -3.3134   12.4319 C   0  0  0  0  0  0  0  0  0  0  0  0
   10.4294   -8.2038   17.0904 C   0  0  0  0  0  0  0  0  0  0  0  0
    8.4094   -8.5411   18.9488 C   0  0  0  0  0  0  0  0  0  0  0  0
   12.3226   -5.0152   13.4957 C   0  0  0  0  0  0  0  0  0  0  0  0
    7.3631   -2.5548   15.1211 C   0  0  1  0  0  0  0  0  0  0  0  0
    9.8889   -4.8942   14.2552 C   0  0  0  0  0  0  0  0  0  0  0  0
    9.0076   -9.7165   18.2700 C   0  0  0  0  0  0  0  0  0  0  0  0
   12.7068   -3.4000   11.9839 C   0  0  0  0  0  0  0  0  0  0  0  0
   11.0015   -4.3499   13.4182 C   0  0  0  0  0  0  0  0  0  0  0  0
    7.5032   -1.6652   16.9301 H   0  0  0  0  0  0  0  0  0  0  0  0
    8.7894   -2.5976   16.5519 H   0  0  0  0  0  0  0  0  0  0  0  0
   14.1805   -4.7285   12.6054 H   0  0  0  0  0  0  0  0  0  0  0  0
   14.8351   -2.7156    9.5026 H   0  0  0  0  0  0  0  0  0  0  0  0
   15.0677   -3.7212   10.7680 H   0  0  0  0  0  0  0  0  0  0  0  0
   13.8968   -4.0409    9.6755 H   0  0  0  0  0  0  0  0  0  0  0  0
    6.2549  -10.0982   20.7966 H   0  0  0  0  0  0  0  0  0  0  0  0
    7.2183  -11.9883   19.7246 H   0  0  0  0  0  0  0  0  0  0  0  0
   10.1526   -6.2076   17.5653 H   0  0  0  0  0  0  0  0  0  0  0  0
    8.0126   -5.4951   15.9808 H   0  0  0  0  0  0  0  0  0  0  0  0
    7.0710   -5.6714   14.6583 H   0  0  0  0  0  0  0  0  0  0  0  0
    7.8344   -2.9612   13.1007 H   0  0  0  0  0  0  0  0  0  0  0  0
    9.1169   -2.4121   13.9494 H   0  0  0  0  0  0  0  0  0  0  0  0
   12.7118   -2.1024   10.3784 H   0  0  0  0  0  0  0  0  0  0  0  0
   13.8827   -1.7828   11.4709 H   0  0  0  0  0  0  0  0  0  0  0  0
    6.7121   -3.8093   16.6556 H   0  0  0  0  0  0  0  0  0  0  0  0
    5.8138   -3.9406   15.2982 H   0  0  0  0  0  0  0  0  0  0  0  0
   10.4579  -10.2921   16.8640 H   0  0  0  0  0  0  0  0  0  0  0  0
    6.6570   -1.9318   14.7843 H   0  0  0  0  0  0  0  0  0  0  0  0
  1 21  1  0  0  0  0
  2 20  1  0  0  0  0
  2 22  1  0  0  0  0
  3 25  1  0  0  0  0
  4 12  2  0  0  0  0
  4 23  1  0  0  0  0
  5 13  2  0  0  0  0
  5 27  1  0  0  0  0
  6 14  1  0  0  0  0
  6 23  2  0  0  0  0
  7 20  2  0  0  0  0
  7 24  1  0  0  0  0
  8 20  1  0  0  0  0
  8 26  2  0  0  0  0
  9 24  1  0  0  0  0
  9 28  1  0  0  0  0
 10 15  1  0  0  0  0
 10 16  1  0  0  0  0
 10 26  1  0  0  0  0
 11 17  1  0  0  0  0
 12 13  1  0  0  0  0
 14 22  2  0  0  0  0
 15 18  1  0  0  0  0
 16 25  1  0  0  0  0
 17 28  1  0  0  0  0
 18 25  1  0  0  0  0
 19 22  1  0  0  0  0
 19 27  2  0  0  0  0
 21 28  2  0  0  0  0
 21 29  1  0  0  0  0
 23 27  1  0  0  0  0
 24 29  2  0  0  0  0
 26 29  1  0  0  0  0
  3 30  1  0  0  0  0
  3 31  1  0  0  0  0
  9 32  1  0  0  0  0
 11 33  1  0  0  0  0
 11 34  1  0  0  0  0
 11 35  1  0  0  0  0
 12 36  1  0  0  0  0
 13 37  1  0  0  0  0
 14 38  1  0  0  0  0
 15 39  1  0  0  0  0
 15 40  1  0  0  0  0
 16 41  1  0  0  0  0
 16 42  1  0  0  0  0
 17 43  1  0  0  0  0
 17 44  1  0  0  0  0
 18 45  1  0  0  0  0
 18 46  1  0  0  0  0
 19 47  1  0  0  0  0
 25 48  1  0  0  0  0
M  END
> <pdb_id>
4HXW

> <uniprot_id>
Q839Z1

> <usmiles>
ClC=1c2c(nc(Sc3cnc4nccnc4c3)nc2NC1CC)N5C[C@H](N)CC5

$$$$
1A4_A_201
          07212401333D 1   1.00000     0.00000     0
            
 31 33  0  0  0  0            999 V2000
  -15.4746  -21.3514  -16.1315 S   0  0  0  0  0  0  0  0  0  0  0  0
  -17.3575  -21.1245  -23.3646 S   0  0  0  0  0  0  0  0  0  0  0  0
  -12.7915  -22.5711  -16.4518 S   0  0  0  0  0  0  0  0  0  0  0  0
  -12.1864  -21.3965  -15.8623 O   0  0  0  0  0  0  0  0  0  0  0  0
  -12.1175  -23.7755  -15.9335 O   0  0  0  0  0  0  0  0  0  0  0  0
  -17.2211  -23.8219  -23.4923 O   0  0  0  0  0  0  0  0  0  0  0  0
  -12.6083  -22.4878  -18.0758 N   0  0  0  0  0  0  0  0  0  0  0  0
  -15.8555  -22.5347  -21.9313 N   0  0  0  0  0  0  0  0  0  0  0  0
  -16.8531  -21.9240  -15.5270 C   0  0  0  0  0  0  0  0  0  0  0  0
  -16.5117  -20.2742  -22.3866 C   0  0  0  0  0  0  0  0  0  0  0  0
  -16.6468  -23.2785  -15.1006 C   0  0  0  0  0  0  0  0  0  0  0  0
  -13.6139  -19.0797  -19.2057 C   0  0  0  0  0  0  0  0  0  0  0  0
  -15.2055  -23.7115  -15.3613 C   0  0  0  0  0  0  0  0  0  0  0  0
  -12.9871  -20.0991  -18.4960 C   0  0  0  0  0  0  0  0  0  0  0  0
  -14.4937  -19.3743  -20.2344 C   0  0  0  0  0  0  0  0  0  0  0  0
  -14.1243  -21.7152  -19.8265 C   0  0  0  0  0  0  0  0  0  0  0  0
  -14.4948  -22.6125  -15.9707 C   0  0  0  0  0  0  0  0  0  0  0  0
  -16.8529  -22.6362  -22.9669 C   0  0  0  0  0  0  0  0  0  0  0  0
  -13.2378  -21.4285  -18.8042 C   0  0  0  0  0  0  0  0  0  0  0  0
  -15.6844  -21.0867  -21.6106 C   0  0  0  0  0  0  0  0  0  0  0  0
  -14.7383  -20.6991  -20.5421 C   0  0  0  0  0  0  0  0  0  0  0  0
  -12.0601  -23.1724  -18.5562 H   0  0  0  0  0  0  0  0  0  0  0  0
  -15.3669  -23.2959  -21.5050 H   0  0  0  0  0  0  0  0  0  0  0  0
  -17.7130  -21.4180  -15.4597 H   0  0  0  0  0  0  0  0  0  0  0  0
  -16.5526  -19.2773  -22.3198 H   0  0  0  0  0  0  0  0  0  0  0  0
  -17.3497  -23.8589  -14.6894 H   0  0  0  0  0  0  0  0  0  0  0  0
  -13.4277  -18.1257  -18.9710 H   0  0  0  0  0  0  0  0  0  0  0  0
  -14.8183  -24.6079  -15.1457 H   0  0  0  0  0  0  0  0  0  0  0  0
  -12.3513  -19.8720  -17.7583 H   0  0  0  0  0  0  0  0  0  0  0  0
  -14.9436  -18.6416  -20.7450 H   0  0  0  0  0  0  0  0  0  0  0  0
  -14.3250  -22.6684  -20.0524 H   0  0  0  0  0  0  0  0  0  0  0  0
  1  9  1  0  0  0  0
  1 17  1  0  0  0  0
  2 10  1  0  0  0  0
  2 18  1  0  0  0  0
  3  4  2  0  0  0  0
  3  5  2  0  0  0  0
  3  7  1  0  0  0  0
  3 17  1  0  0  0  0
  6 18  2  0  0  0  0
  7 19  1  0  0  0  0
  8 18  1  0  0  0  0
  8 20  1  0  0  0  0
  9 11  2  0  0  0  0
 10 20  2  0  0  0  0
 11 13  1  0  0  0  0
 12 14  2  0  0  0  0
 12 15  1  0  0  0  0
 13 17  2  0  0  0  0
 14 19  1  0  0  0  0
 15 21  2  0  0  0  0
 16 19  2  0  0  0  0
 16 21  1  0  0  0  0
 20 21  1  0  0  0  0
  7 22  1  0  0  0  0
  8 23  1  0  0  0  0
  9 24  1  0  0  0  0
 10 25  1  0  0  0  0
 11 26  1  0  0  0  0
 12 27  1  0  0  0  0
 13 28  1  0  0  0  0
 14 29  1  0  0  0  0
 15 30  1  0  0  0  0
 16 31  1  0  0  0  0
M  END
> <pdb_id>
4HXR

> <uniprot_id>
O60885

> <usmiles>
S(=O)(=O)(Nc1cc(ccc1)C=2NC(SC2)=O)C=3SC=CC3

$$$$
1B2_A_702
          07192417133D 1   1.00000     0.00000     0
            
 44 46  0  0  0  0            999 V2000
   43.3830   67.5838  118.7443 S   0  0  0  0  0  0  0  0  0  0  0  0
   42.7888   68.8711  118.6840 O   0  0  0  0  0  0  0  0  0  0  0  0
   43.8004   67.2461  117.4239 O   0  0  0  0  0  0  0  0  0  0  0  0
   43.7848   64.7048  119.2883 O   0  0  0  0  0  0  0  0  0  0  0  0
   41.0911   63.1330  122.1683 O   0  0  0  0  0  0  0  0  0  0  0  0
   41.4289   63.0758  119.5166 N   0  0  0  0  0  0  0  0  0  0  0  0
   42.3842   66.5081  119.3554 N   0  0  0  0  0  0  0  0  0  0  0  0
   52.8367   69.7902  118.7427 N   0  0  0  0  0  0  0  0  0  0  0  0
   52.3451   68.9700  117.6853 N   0  0  0  0  0  0  0  0  0  0  0  0
   41.6516   65.4849  122.4273 C   0  0  0  0  0  0  0  0  0  0  0  0
   51.9182   70.0001  119.7172 C   0  0  0  0  0  0  0  0  0  0  0  0
   45.8461   68.0935  121.8146 C   0  0  0  0  0  0  0  0  0  0  0  0
   44.7110   67.8605  121.0335 C   0  0  0  0  0  0  0  0  0  0  0  0
   47.0995   68.1674  121.1695 C   0  0  0  0  0  0  0  0  0  0  0  0
   50.0873   67.8419  117.2801 C   0  0  0  0  0  0  0  0  0  0  0  0
   48.8381   67.7088  117.9010 C   0  0  0  0  0  0  0  0  0  0  0  0
   46.0183   67.9317  119.0156 C   0  0  0  0  0  0  0  0  0  0  0  0
   49.5080   69.0741  119.7965 C   0  0  0  0  0  0  0  0  0  0  0  0
   44.7690   67.7815  119.6376 C   0  0  0  0  0  0  0  0  0  0  0  0
   42.6822   65.2133  119.5224 C   0  0  0  0  0  0  0  0  0  0  0  0
   41.8737   64.2068  121.6305 C   0  0  2  0  0  0  0  0  0  0  0  0
   41.5597   64.3957  120.1401 C   0  0  2  0  0  0  0  0  0  0  0  0
   51.0636   68.6268  117.9250 C   0  0  0  0  0  0  0  0  0  0  0  0
   50.7834   69.2412  119.2162 C   0  0  0  0  0  0  0  0  0  0  0  0
   47.1947   68.1232  119.7817 C   0  0  0  0  0  0  0  0  0  0  0  0
   48.5373   68.2892  119.1393 C   0  0  0  0  0  0  0  0  0  0  0  0
   41.2503   62.3037  121.6326 H   0  0  0  0  0  0  0  0  0  0  0  0
   40.6815   62.5741  119.9521 H   0  0  0  0  0  0  0  0  0  0  0  0
   41.2335   63.1854  118.5421 H   0  0  0  0  0  0  0  0  0  0  0  0
   41.4749   66.8185  119.6328 H   0  0  0  0  0  0  0  0  0  0  0  0
   52.8733   68.6904  116.8836 H   0  0  0  0  0  0  0  0  0  0  0  0
   42.2050   66.2210  122.0375 H   0  0  0  0  0  0  0  0  0  0  0  0
   40.6850   65.7382  122.3885 H   0  0  0  0  0  0  0  0  0  0  0  0
   41.9191   65.3350  123.3791 H   0  0  0  0  0  0  0  0  0  0  0  0
   51.9995   70.5352  120.5581 H   0  0  0  0  0  0  0  0  0  0  0  0
   45.7723   68.2050  122.8056 H   0  0  0  0  0  0  0  0  0  0  0  0
   43.8273   67.7464  121.4874 H   0  0  0  0  0  0  0  0  0  0  0  0
   47.9314   68.2529  121.7178 H   0  0  0  0  0  0  0  0  0  0  0  0
   50.2796   67.3940  116.4070 H   0  0  0  0  0  0  0  0  0  0  0  0
   48.1296   67.1754  117.4390 H   0  0  0  0  0  0  0  0  0  0  0  0
   46.0789   67.9032  118.0179 H   0  0  0  0  0  0  0  0  0  0  0  0
   49.2932   69.5103  120.6703 H   0  0  0  0  0  0  0  0  0  0  0  0
   42.8383   63.9562  121.7127 H   0  0  0  0  0  0  0  0  0  0  0  0
   40.6975   64.8931  120.0446 H   0  0  0  0  0  0  0  0  0  0  0  0
  1  2  2  0  0  0  0
  1  3  2  0  0  0  0
  1  7  1  0  0  0  0
  1 19  1  0  0  0  0
  4 20  2  0  0  0  0
  5 21  1  0  0  0  0
  6 22  1  0  0  0  0
  7 20  1  0  0  0  0
  8  9  1  0  0  0  0
  8 11  2  0  0  0  0
  9 23  1  0  0  0  0
 10 21  1  0  0  0  0
 11 24  1  0  0  0  0
 12 13  2  0  0  0  0
 12 14  1  0  0  0  0
 13 19  1  0  0  0  0
 14 25  2  0  0  0  0
 15 16  1  0  0  0  0
 15 23  2  0  0  0  0
 16 26  2  0  0  0  0
 17 19  2  0  0  0  0
 17 25  1  0  0  0  0
 18 24  2  0  0  0  0
 18 26  1  0  0  0  0
 20 22  1  0  0  0  0
 21 22  1  0  0  0  0
 23 24  1  0  0  0  0
 25 26  1  0  0  0  0
  5 27  1  0  0  0  0
  6 28  1  0  0  0  0
  6 29  1  0  0  0  0
  7 30  1  0  0  0  0
  9 31  1  0  0  0  0
 10 32  1  0  0  0  0
 10 33  1  0  0  0  0
 10 34  1  0  0  0  0
 11 35  1  0  0  0  0
 12 36  1  0  0  0  0
 13 37  1  0  0  0  0
 14 38  1  0  0  0  0
 15 39  1  0  0  0  0
 16 40  1  0  0  0  0
 17 41  1  0  0  0  0
 18 42  1  0  0  0  0
 21 43  1  0  0  0  0
 22 44  1  0  0  0  0
M  END
> <pdb_id>
4HWR

> <uniprot_id>
P0A8M3

> <usmiles>
S(=O)(=O)(NC(=O)[C@@H](N)[C@H](O)C)c1cc(c2cc3c(NN=C3)cc2)ccc1

$$$$
1B3_A_702
          07192417133D 1   1.00000     0.00000     0
            
 47 49  0  0  0  0            999 V2000
   54.3600   69.6875  121.2179 Cl  0  0  0  0  0  0  0  0  0  0  0  0
   43.3719   67.7071  118.9344 S   0  0  0  0  0  0  0  0  0  0  0  0
   42.7239   69.0036  118.9071 O   0  0  0  0  0  0  0  0  0  0  0  0
   43.7578   67.3185  117.6328 O   0  0  0  0  0  0  0  0  0  0  0  0
   43.5964   64.9036  119.1609 O   0  0  0  0  0  0  0  0  0  0  0  0
   40.9586   63.0561  121.9896 O   0  0  0  0  0  0  0  0  0  0  0  0
   52.6030   68.7554  116.6421 N   0  0  0  0  0  0  0  0  0  0  0  0
   41.3402   63.2735  119.4307 N   0  0  0  0  0  0  0  0  0  0  0  0
   42.3044   66.7055  119.5307 N   0  0  0  0  0  0  0  0  0  0  0  0
   53.2995   69.1923  118.8015 N   0  0  0  0  0  0  0  0  0  0  0  0
   51.8201   69.2042  120.7062 N   0  0  0  0  0  0  0  0  0  0  0  0
   41.4883   65.4050  122.5184 C   0  0  0  0  0  0  0  0  0  0  0  0
   45.6588   67.7121  122.1466 C   0  0  0  0  0  0  0  0  0  0  0  0
   44.5506   67.6103  121.2839 C   0  0  0  0  0  0  0  0  0  0  0  0
   46.9141   67.9899  121.5735 C   0  0  0  0  0  0  0  0  0  0  0  0
   48.5972   68.3637  118.2484 C   0  0  0  0  0  0  0  0  0  0  0  0
   49.8697   68.4770  117.6859 C   0  0  0  0  0  0  0  0  0  0  0  0
   45.9286   68.1241  119.3692 C   0  0  0  0  0  0  0  0  0  0  0  0
   49.4606   68.8001  120.5010 C   0  0  0  0  0  0  0  0  0  0  0  0
   53.0320   69.3376  120.1208 C   0  0  0  0  0  0  0  0  0  0  0  0
   44.6799   67.8127  119.9033 C   0  0  0  0  0  0  0  0  0  0  0  0
   42.5456   65.3893  119.5798 C   0  0  0  0  0  0  0  0  0  0  0  0
   41.7650   64.1843  121.6084 C   0  0  2  0  0  0  0  0  0  0  0  0
   52.3363   68.9069  117.9535 C   0  0  0  0  0  0  0  0  0  0  0  0
   41.4516   64.5439  120.1542 C   0  0  2  0  0  0  0  0  0  0  0  0
   50.7474   68.9443  119.9493 C   0  0  0  0  0  0  0  0  0  0  0  0
   47.0271   68.2657  120.1959 C   0  0  0  0  0  0  0  0  0  0  0  0
   48.4000   68.5123  119.6353 C   0  0  0  0  0  0  0  0  0  0  0  0
   50.9555   68.7745  118.5100 C   0  0  0  0  0  0  0  0  0  0  0  0
   41.1584   62.2844  121.3858 H   0  0  0  0  0  0  0  0  0  0  0  0
   51.8647   68.5383  116.0035 H   0  0  0  0  0  0  0  0  0  0  0  0
   53.5394   68.8599  116.3069 H   0  0  0  0  0  0  0  0  0  0  0  0
   40.6050   62.7258  119.8302 H   0  0  0  0  0  0  0  0  0  0  0  0
   41.1359   63.4545  118.4687 H   0  0  0  0  0  0  0  0  0  0  0  0
   41.4357   67.0602  119.8765 H   0  0  0  0  0  0  0  0  0  0  0  0
   42.0616   66.1721  122.2305 H   0  0  0  0  0  0  0  0  0  0  0  0
   40.5250   65.6632  122.4461 H   0  0  0  0  0  0  0  0  0  0  0  0
   41.6997   65.1685  123.4668 H   0  0  0  0  0  0  0  0  0  0  0  0
   45.5573   67.5910  123.1341 H   0  0  0  0  0  0  0  0  0  0  0  0
   43.6527   67.3889  121.6643 H   0  0  0  0  0  0  0  0  0  0  0  0
   47.7323   67.9916  122.1483 H   0  0  0  0  0  0  0  0  0  0  0  0
   47.8131   68.1740  117.6574 H   0  0  0  0  0  0  0  0  0  0  0  0
   50.0017   68.3463  116.7033 H   0  0  0  0  0  0  0  0  0  0  0  0
   46.0306   68.2458  118.3819 H   0  0  0  0  0  0  0  0  0  0  0  0
   49.3087   68.9006  121.4843 H   0  0  0  0  0  0  0  0  0  0  0  0
   42.7305   63.9348  121.6820 H   0  0  0  0  0  0  0  0  0  0  0  0
   40.5830   65.0371  120.1074 H   0  0  0  0  0  0  0  0  0  0  0  0
  1 20  1  0  0  0  0
  2  3  2  0  0  0  0
  2  4  2  0  0  0  0
  2  9  1  0  0  0  0
  2 21  1  0  0  0  0
  5 22  2  0  0  0  0
  6 23  1  0  0  0  0
  7 24  1  0  0  0  0
  8 25  1  0  0  0  0
  9 22  1  0  0  0  0
 10 20  1  0  0  0  0
 10 24  2  0  0  0  0
 11 20  2  0  0  0  0
 11 26  1  0  0  0  0
 12 23  1  0  0  0  0
 13 14  2  0  0  0  0
 13 15  1  0  0  0  0
 14 21  1  0  0  0  0
 15 27  2  0  0  0  0
 16 17  1  0  0  0  0
 16 28  2  0  0  0  0
 17 29  2  0  0  0  0
 18 21  2  0  0  0  0
 18 27  1  0  0  0  0
 19 26  2  0  0  0  0
 19 28  1  0  0  0  0
 22 25  1  0  0  0  0
 23 25  1  0  0  0  0
 24 29  1  0  0  0  0
 26 29  1  0  0  0  0
 27 28  1  0  0  0  0
  6 30  1  0  0  0  0
  7 31  1  0  0  0  0
  7 32  1  0  0  0  0
  8 33  1  0  0  0  0
  8 34  1  0  0  0  0
  9 35  1  0  0  0  0
 12 36  1  0  0  0  0
 12 37  1  0  0  0  0
 12 38  1  0  0  0  0
 13 39  1  0  0  0  0
 14 40  1  0  0  0  0
 15 41  1  0  0  0  0
 16 42  1  0  0  0  0
 17 43  1  0  0  0  0
 18 44  1  0  0  0  0
 19 45  1  0  0  0  0
 23 46  1  0  0  0  0
 25 47  1  0  0  0  0
M  END
> <pdb_id>
4HWS

> <uniprot_id>
P0A8M3

> <usmiles>
Clc1nc(N)c2c(n1)cc(c3cc(S(=O)(=O)NC(=O)[C@@H](N)[C@H](O)C)ccc3)cc2

$$$$
1C8_A_401
          07202415543D 1   1.00000     0.00000     0
            
 52 56  0  0  0  0            999 V2000
    8.5830    8.9010   13.9330 S   0  0  0  0  0  0  0  0  0  0  0  0
   13.7190    4.1170   10.1560 O   0  0  0  0  0  0  0  0  0  0  0  0
    7.3370    9.8640   12.0330 N   0  0  0  0  0  0  0  0  0  0  0  0
    7.8890    4.8060    9.9920 N   0  0  0  0  0  0  0  0  0  0  0  0
    5.2380    8.2350   10.6630 N   0  0  0  0  0  0  0  0  0  0  0  0
    9.0650    6.7850   10.3830 N   0  0  0  0  0  0  0  0  0  0  0  0
   11.4290    4.0220   10.0570 N   0  0  0  0  0  0  0  0  0  0  0  0
    6.7890    6.7850   10.2650 N   0  0  0  0  0  0  0  0  0  0  0  0
   11.4000    6.8470   10.5220 N   0  0  0  0  0  0  0  0  0  0  0  0
   11.4480    2.5900    9.7820 C   0  0  0  0  0  0  0  0  0  0  0  0
   12.8110    6.8680    7.9960 C   0  0  0  0  0  0  0  0  0  0  0  0
    8.0650   10.2810   13.0560 C   0  0  0  0  0  0  0  0  0  0  0  0
    7.8530    7.7130   12.9620 C   0  0  0  0  0  0  0  0  0  0  0  0
    4.8280    7.4100    9.7070 C   0  0  0  0  0  0  0  0  0  0  0  0
    9.0010    4.0900    9.9040 C   0  0  0  0  0  0  0  0  0  0  0  0
    5.8230    6.4940    9.4430 C   0  0  0  0  0  0  0  0  0  0  0  0
   11.9910   10.5470   10.4440 C   0  0  0  0  0  0  0  0  0  0  0  0
   12.6490   10.0870   11.7400 C   0  0  0  0  0  0  0  0  0  0  0  0
   13.4640    6.8790    9.3500 C   0  0  0  0  0  0  0  0  0  0  0  0
   11.3430    9.3510    9.7660 C   0  0  0  0  0  0  0  0  0  0  0  0
   12.3450    8.6210   11.9150 C   0  0  0  0  0  0  0  0  0  0  0  0
    7.9150    6.1180   10.2400 C   0  0  0  0  0  0  0  0  0  0  0  0
   12.6470    4.7280   10.2210 C   0  0  0  0  0  0  0  0  0  0  0  0
    6.4710    7.8390   10.9530 C   0  0  0  0  0  0  0  0  0  0  0  0
   10.2220    6.1480   10.3360 C   0  0  0  0  0  0  0  0  0  0  0  0
    7.2610    8.5140   12.0130 C   0  0  0  0  0  0  0  0  0  0  0  0
   11.3590    8.2610   10.8260 C   0  0  0  0  0  0  0  0  0  0  0  0
   10.2200    4.7080   10.0900 C   0  0  0  0  0  0  0  0  0  0  0  0
   12.6810    6.1780   10.4590 C   0  0  2  0  0  0  0  0  0  0  0  0
   10.5099    2.2547    9.6958 H   0  0  0  0  0  0  0  0  0  0  0  0
   11.9421    2.4209    8.9292 H   0  0  0  0  0  0  0  0  0  0  0  0
   11.9050    2.1125   10.5324 H   0  0  0  0  0  0  0  0  0  0  0  0
   13.3946    7.3474    7.3406 H   0  0  0  0  0  0  0  0  0  0  0  0
   12.6801    5.9229    7.6967 H   0  0  0  0  0  0  0  0  0  0  0  0
   11.9239    7.3264    8.0500 H   0  0  0  0  0  0  0  0  0  0  0  0
    8.2760   11.2328   13.2786 H   0  0  0  0  0  0  0  0  0  0  0  0
    7.8535    6.7172   13.0540 H   0  0  0  0  0  0  0  0  0  0  0  0
    3.9387    7.4474    9.2511 H   0  0  0  0  0  0  0  0  0  0  0  0
    8.9566    3.1111    9.7047 H   0  0  0  0  0  0  0  0  0  0  0  0
    5.8063    5.7606    8.7634 H   0  0  0  0  0  0  0  0  0  0  0  0
   12.6823   10.9415    9.8387 H   0  0  0  0  0  0  0  0  0  0  0  0
   11.2944   11.2350   10.6475 H   0  0  0  0  0  0  0  0  0  0  0  0
   12.2803   10.6055   12.5115 H   0  0  0  0  0  0  0  0  0  0  0  0
   13.6380   10.2256   11.6874 H   0  0  0  0  0  0  0  0  0  0  0  0
   13.5969    7.8324    9.6210 H   0  0  0  0  0  0  0  0  0  0  0  0
   14.3531    6.4288    9.2677 H   0  0  0  0  0  0  0  0  0  0  0  0
   11.8692    9.0714    8.9629 H   0  0  0  0  0  0  0  0  0  0  0  0
   10.4052    9.5646    9.4922 H   0  0  0  0  0  0  0  0  0  0  0  0
   11.9426    8.4556   12.8154 H   0  0  0  0  0  0  0  0  0  0  0  0
   13.1805    8.0799   11.8188 H   0  0  0  0  0  0  0  0  0  0  0  0
   10.4732    8.3703   11.2770 H   0  0  0  0  0  0  0  0  0  0  0  0
   13.1572    6.3388   11.3235 H   0  0  0  0  0  0  0  0  0  0  0  0
  1 12  1  0  0  0  0
  1 13  1  0  0  0  0
  2 23  2  0  0  0  0
  3 12  2  0  0  0  0
  3 26  1  0  0  0  0
  4 15  1  0  0  0  0
  4 22  2  0  0  0  0
  5 14  1  0  0  0  0
  5 24  2  0  0  0  0
  6 22  1  0  0  0  0
  6 25  2  0  0  0  0
  7 10  1  0  0  0  0
  7 23  1  0  0  0  0
  7 28  1  0  0  0  0
  8 16  1  0  0  0  0
  8 22  1  0  0  0  0
  8 24  1  0  0  0  0
  9 25  1  0  0  0  0
  9 27  1  0  0  0  0
  9 29  1  0  0  0  0
 11 19  1  0  0  0  0
 13 26  2  0  0  0  0
 14 16  2  0  0  0  0
 15 28  2  0  0  0  0
 17 18  1  0  0  0  0
 17 20  1  0  0  0  0
 18 21  1  0  0  0  0
 19 29  1  0  0  0  0
 20 27  1  0  0  0  0
 21 27  1  0  0  0  0
 23 29  1  0  0  0  0
 24 26  1  0  0  0  0
 25 28  1  0  0  0  0
 10 30  1  0  0  0  0
 10 31  1  0  0  0  0
 10 32  1  0  0  0  0
 11 33  1  0  0  0  0
 11 34  1  0  0  0  0
 11 35  1  0  0  0  0
 12 36  1  0  0  0  0
 13 37  1  0  0  0  0
 14 38  1  0  0  0  0
 15 39  1  0  0  0  0
 16 40  1  0  0  0  0
 17 41  1  0  0  0  0
 17 42  1  0  0  0  0
 18 43  1  0  0  0  0
 18 44  1  0  0  0  0
 19 45  1  0  0  0  0
 19 46  1  0  0  0  0
 20 47  1  0  0  0  0
 20 48  1  0  0  0  0
 21 49  1  0  0  0  0
 21 50  1  0  0  0  0
 27 51  1  0  0  0  0
 29 52  1  0  0  0  0
M  END
> <pdb_id>
4I6H

> <uniprot_id>
Q9NYY3

> <usmiles>
S1C=NC(C2=NC=CN2c3nc4N([C@@H](C(=O)N(c4cn3)C)CC)C5CCCC5)=C1

$$$$
1CK_A_301
          07192421083D 1   1.00000     0.00000     0
            
 26 27  0  0  0  0            999 V2000
    7.9259   24.1732    5.0514 Br  0  0  0  0  0  0  0  0  0  0  0  0
    2.3707   26.9447    7.8689 O   0  0  0  0  0  0  0  0  0  0  0  0
    1.8135   30.7402    6.4033 N   0  0  0  0  0  0  0  0  0  0  0  0
    0.7332   31.3242    6.9123 N   0  0  0  0  0  0  0  0  0  0  0  0
    2.8224   28.6454    6.4489 N   0  0  0  0  0  0  0  0  0  0  0  0
   -1.3201   30.8323    8.2889 C   0  0  0  0  0  0  0  0  0  0  0  0
    6.0619   25.1028    6.9575 C   0  0  0  0  0  0  0  0  0  0  0  0
    5.7137   26.0047    4.7220 C   0  0  0  0  0  0  0  0  0  0  0  0
    4.9570   25.8394    7.4063 C   0  0  0  0  0  0  0  0  0  0  0  0
    4.6124   26.7304    5.1959 C   0  0  0  0  0  0  0  0  0  0  0  0
    0.6784   29.2839    7.5696 C   0  0  0  0  0  0  0  0  0  0  0  0
    3.0857   27.4292    6.9948 C   0  0  0  0  0  0  0  0  0  0  0  0
    6.4364   25.1764    5.6084 C   0  0  0  0  0  0  0  0  0  0  0  0
    1.7947   29.4770    6.8118 C   0  0  0  0  0  0  0  0  0  0  0  0
    0.0056   30.4687    7.6018 C   0  0  0  0  0  0  0  0  0  0  0  0
    4.2169   26.6867    6.5355 C   0  0  0  0  0  0  0  0  0  0  0  0
    2.5067   31.1696    5.8244 H   0  0  0  0  0  0  0  0  0  0  0  0
    3.4302   28.9608    5.7201 H   0  0  0  0  0  0  0  0  0  0  0  0
   -1.6893   30.0250    8.7494 H   0  0  0  0  0  0  0  0  0  0  0  0
   -1.1600   31.5553    8.9610 H   0  0  0  0  0  0  0  0  0  0  0  0
   -1.9738   31.1532    7.6035 H   0  0  0  0  0  0  0  0  0  0  0  0
    6.5784   24.5299    7.5939 H   0  0  0  0  0  0  0  0  0  0  0  0
    5.9860   26.0730    3.7623 H   0  0  0  0  0  0  0  0  0  0  0  0
    4.6814   25.7673    8.3649 H   0  0  0  0  0  0  0  0  0  0  0  0
    4.0936   27.2970    4.5558 H   0  0  0  0  0  0  0  0  0  0  0  0
    0.4045   28.4329    8.0177 H   0  0  0  0  0  0  0  0  0  0  0  0
  1 13  1  0  0  0  0
  2 12  2  0  0  0  0
  3  4  1  0  0  0  0
  3 14  1  0  0  0  0
  4 15  2  0  0  0  0
  5 12  1  0  0  0  0
  5 14  1  0  0  0  0
  6 15  1  0  0  0  0
  7  9  1  0  0  0  0
  7 13  2  0  0  0  0
  8 10  2  0  0  0  0
  8 13  1  0  0  0  0
  9 16  2  0  0  0  0
 10 16  1  0  0  0  0
 11 14  2  0  0  0  0
 11 15  1  0  0  0  0
 12 16  1  0  0  0  0
  3 17  1  0  0  0  0
  5 18  1  0  0  0  0
  6 19  1  0  0  0  0
  6 20  1  0  0  0  0
  6 21  1  0  0  0  0
  7 22  1  0  0  0  0
  8 23  1  0  0  0  0
  9 24  1  0  0  0  0
 10 25  1  0  0  0  0
 11 26  1  0  0  0  0
M  END
> <pdb_id>
4EK4

> <uniprot_id>
P24941

> <usmiles>
Brc1ccc(cc1)C(=O)NC=2NN=C(C2)C

$$$$
1CS_B_1695
          07202410013D 1   1.00000     0.00000     0
            
 35 36  0  0  0  0            999 V2000
  183.2265   86.4946  231.2545 Cl  0  0  0  0  0  0  0  0  0  0  0  0
  181.6249   89.4472  232.2873 S   0  0  0  0  0  0  0  0  0  0  0  0
  181.1982   90.7077  232.8333 O   0  0  0  0  0  0  0  0  0  0  0  0
  181.6845   89.2709  230.8468 O   0  0  0  0  0  0  0  0  0  0  0  0
  181.0716   87.5426  234.4771 O   0  0  0  0  0  0  0  0  0  0  0  0
  179.9845   84.1633  237.3841 O   0  0  0  0  0  0  0  0  0  0  0  0
  180.6822   88.0842  232.2911 N   0  0  0  0  0  0  0  0  0  0  0  0
  179.7431   86.2661  233.0344 N   0  0  0  0  0  0  0  0  0  0  0  0
  179.8394   85.2083  235.1812 N   0  0  0  0  0  0  0  0  0  0  0  0
  178.6906   83.1071  235.5883 N   0  0  0  0  0  0  0  0  0  0  0  0
  178.5608   84.1921  233.3564 N   0  0  0  0  0  0  0  0  0  0  0  0
  179.6359   83.1026  238.2404 C   0  0  0  0  0  0  0  0  0  0  0  0
  177.4057   82.0540  233.8004 C   0  0  0  0  0  0  0  0  0  0  0  0
  186.0093   88.3758  233.4891 C   0  0  0  0  0  0  0  0  0  0  0  0
  185.3248   89.6157  233.9062 C   0  0  0  0  0  0  0  0  0  0  0  0
  185.3250   87.4430  232.6711 C   0  0  0  0  0  0  0  0  0  0  0  0
  183.9377   89.8570  233.4684 C   0  0  0  0  0  0  0  0  0  0  0  0
  180.5266   87.3026  233.3826 C   0  0  0  0  0  0  0  0  0  0  0  0
  183.9669   87.6761  232.2374 C   0  0  0  0  0  0  0  0  0  0  0  0
  179.5080   84.1785  236.0265 C   0  0  0  0  0  0  0  0  0  0  0  0
  183.2583   88.8952  232.6384 C   0  0  0  0  0  0  0  0  0  0  0  0
  179.3940   85.2534  233.8507 C   0  0  0  0  0  0  0  0  0  0  0  0
  178.2232   83.1384  234.2397 C   0  0  0  0  0  0  0  0  0  0  0  0
  180.2076   87.8289  231.4487 H   0  0  0  0  0  0  0  0  0  0  0  0
  179.3932   86.2460  232.0979 H   0  0  0  0  0  0  0  0  0  0  0  0
  180.0488   83.2503  239.1391 H   0  0  0  0  0  0  0  0  0  0  0  0
  178.6410   83.0623  238.3331 H   0  0  0  0  0  0  0  0  0  0  0  0
  179.9701   82.2414  237.8574 H   0  0  0  0  0  0  0  0  0  0  0  0
  177.1478   82.1967  232.8449 H   0  0  0  0  0  0  0  0  0  0  0  0
  177.9150   81.1975  233.8839 H   0  0  0  0  0  0  0  0  0  0  0  0
  176.5815   82.0080  234.3648 H   0  0  0  0  0  0  0  0  0  0  0  0
  186.9484   88.1957  233.7817 H   0  0  0  0  0  0  0  0  0  0  0  0
  185.7971   90.2850  234.4798 H   0  0  0  0  0  0  0  0  0  0  0  0
  185.7921   86.6054  232.3880 H   0  0  0  0  0  0  0  0  0  0  0  0
  183.4660   90.6929  233.7490 H   0  0  0  0  0  0  0  0  0  0  0  0
  1 19  1  0  0  0  0
  2  3  2  0  0  0  0
  2  4  2  0  0  0  0
  2  7  1  0  0  0  0
  2 21  1  0  0  0  0
  5 18  2  0  0  0  0
  6 12  1  0  0  0  0
  6 20  1  0  0  0  0
  7 18  1  0  0  0  0
  8 18  1  0  0  0  0
  8 22  1  0  0  0  0
  9 20  1  0  0  0  0
  9 22  2  0  0  0  0
 10 20  2  0  0  0  0
 10 23  1  0  0  0  0
 11 22  1  0  0  0  0
 11 23  2  0  0  0  0
 13 23  1  0  0  0  0
 14 15  2  0  0  0  0
 14 16  1  0  0  0  0
 15 17  1  0  0  0  0
 16 19  2  0  0  0  0
 17 21  2  0  0  0  0
 19 21  1  0  0  0  0
  7 24  1  0  0  0  0
  8 25  1  0  0  0  0
 12 26  1  0  0  0  0
 12 27  1  0  0  0  0
 12 28  1  0  0  0  0
 13 29  1  0  0  0  0
 13 30  1  0  0  0  0
 13 31  1  0  0  0  0
 14 32  1  0  0  0  0
 15 33  1  0  0  0  0
 16 34  1  0  0  0  0
 17 35  1  0  0  0  0
M  END
> <pdb_id>
1T9B

> <uniprot_id>
P07342

> <usmiles>
Clc1c(S(=O)(=O)NC(=O)Nc2nc(OC)nc(n2)C)cccc1

$$$$
1CY_A_201
          07202411363D 1   1.00000     0.00000     0
            
 31 32  0  0  0  0            999 V2000
   -4.8477    3.1900   10.4466 Cl  0  0  0  0  0  0  0  0  0  0  0  0
   -5.3132   -5.3010   15.9685 N   0  0  0  0  0  0  0  0  0  0  0  0
   -6.9216   -2.4227   12.4109 N   0  0  0  0  0  0  0  0  0  0  0  0
   -6.1199   -3.8446   14.2049 N   0  0  0  0  0  0  0  0  0  0  0  0
   -4.3176   -3.0351   15.7021 N   0  0  0  0  0  0  0  0  0  0  0  0
   -5.1585   -1.5775   13.8918 N   0  0  0  0  0  0  0  0  0  0  0  0
   -2.8613   -1.3610   14.7907 C   0  0  0  0  0  0  0  0  0  0  0  0
   -4.9535   -0.8684   16.1370 C   0  0  0  0  0  0  0  0  0  0  0  0
   -5.8253    1.8157   12.5725 C   0  0  0  0  0  0  0  0  0  0  0  0
   -4.1844    0.6833   11.1933 C   0  0  0  0  0  0  0  0  0  0  0  0
   -5.9208    0.7180   13.4047 C   0  0  0  0  0  0  0  0  0  0  0  0
   -4.2868   -0.4222   12.0096 C   0  0  0  0  0  0  0  0  0  0  0  0
   -5.2484   -4.0497   15.3032 C   0  0  0  0  0  0  0  0  0  0  0  0
   -6.0605   -2.6121   13.5124 C   0  0  0  0  0  0  0  0  0  0  0  0
   -4.9689    1.7755   11.4912 C   0  0  0  0  0  0  0  0  0  0  0  0
   -5.1387   -0.3750   13.1101 C   0  0  0  0  0  0  0  0  0  0  0  0
   -4.3036   -1.7468   15.0590 C   0  0  0  0  0  0  0  0  0  0  0  0
   -4.7144   -5.4843   16.7481 H   0  0  0  0  0  0  0  0  0  0  0  0
   -5.9577   -5.9996   15.6579 H   0  0  0  0  0  0  0  0  0  0  0  0
   -6.9014   -1.5617   11.9028 H   0  0  0  0  0  0  0  0  0  0  0  0
   -7.5521   -3.1494   12.1384 H   0  0  0  0  0  0  0  0  0  0  0  0
   -2.8331   -0.4670   14.3435 H   0  0  0  0  0  0  0  0  0  0  0  0
   -2.3616   -1.3169   15.6558 H   0  0  0  0  0  0  0  0  0  0  0  0
   -2.4385   -2.0448   14.1960 H   0  0  0  0  0  0  0  0  0  0  0  0
   -5.0063    0.0754   15.8108 H   0  0  0  0  0  0  0  0  0  0  0  0
   -5.8746   -1.2059   16.3313 H   0  0  0  0  0  0  0  0  0  0  0  0
   -4.4031   -0.9025   16.9712 H   0  0  0  0  0  0  0  0  0  0  0  0
   -6.3723    2.6334   12.7520 H   0  0  0  0  0  0  0  0  0  0  0  0
   -3.5615    0.6922   10.4110 H   0  0  0  0  0  0  0  0  0  0  0  0
   -6.5362    0.7175   14.1930 H   0  0  0  0  0  0  0  0  0  0  0  0
   -3.7565   -1.2473   11.8143 H   0  0  0  0  0  0  0  0  0  0  0  0
  1 15  1  0  0  0  0
  2 13  1  0  0  0  0
  3 14  1  0  0  0  0
  4 13  1  0  0  0  0
  4 14  2  0  0  0  0
  5 13  2  0  0  0  0
  5 17  1  0  0  0  0
  6 14  1  0  0  0  0
  6 16  1  0  0  0  0
  6 17  1  0  0  0  0
  7 17  1  0  0  0  0
  8 17  1  0  0  0  0
  9 11  2  0  0  0  0
  9 15  1  0  0  0  0
 10 12  1  0  0  0  0
 10 15  2  0  0  0  0
 11 16  1  0  0  0  0
 12 16  2  0  0  0  0
  2 18  1  0  0  0  0
  2 19  1  0  0  0  0
  3 20  1  0  0  0  0
  3 21  1  0  0  0  0
  7 22  1  0  0  0  0
  7 23  1  0  0  0  0
  7 24  1  0  0  0  0
  8 25  1  0  0  0  0
  8 26  1  0  0  0  0
  8 27  1  0  0  0  0
  9 28  1  0  0  0  0
 10 29  1  0  0  0  0
 11 30  1  0  0  0  0
 12 31  1  0  0  0  0
M  END
> <pdb_id>
6NNH

> <uniprot_id>
P9WNX1

> <usmiles>
Clc1ccc(N2C(=NC(=NC2(C)C)N)N)cc1

$$$$
1D1_A_401
          07202415543D 1   1.00000     0.00000     0
            
 47 50  0  0  0  0            999 V2000
   13.6199    4.3394   10.4996 O   0  0  0  0  0  0  0  0  0  0  0  0
    7.7618    4.8606    9.8156 N   0  0  0  0  0  0  0  0  0  0  0  0
    6.3944    8.1554   10.4865 N   0  0  0  0  0  0  0  0  0  0  0  0
    8.8228    6.9055   10.3637 N   0  0  0  0  0  0  0  0  0  0  0  0
   11.3439    4.1903   10.1704 N   0  0  0  0  0  0  0  0  0  0  0  0
   11.1937    7.0400   10.7008 N   0  0  0  0  0  0  0  0  0  0  0  0
   11.4418    2.7500    9.8990 C   0  0  0  0  0  0  0  0  0  0  0  0
   12.5846    6.7088    8.1521 C   0  0  0  0  0  0  0  0  0  0  0  0
    5.1305    8.6178   10.3300 C   0  0  0  0  0  0  0  0  0  0  0  0
    8.9115    4.1784    9.8385 C   0  0  0  0  0  0  0  0  0  0  0  0
   13.2854    6.9331    9.4894 C   0  0  0  0  0  0  0  0  0  0  0  0
    4.3546    7.6253    9.7593 C   0  0  0  0  0  0  0  0  0  0  0  0
   11.2442   10.8146   10.4451 C   0  0  0  0  0  0  0  0  0  0  0  0
   12.0524   10.5627   11.7193 C   0  0  0  0  0  0  0  0  0  0  0  0
    5.1599    6.5268    9.5477 C   0  0  0  0  0  0  0  0  0  0  0  0
   10.9220    9.4513    9.8291 C   0  0  0  0  0  0  0  0  0  0  0  0
   12.1073    9.0549   11.9258 C   0  0  0  0  0  0  0  0  0  0  0  0
    7.7087    6.1931   10.0763 C   0  0  0  0  0  0  0  0  0  0  0  0
   12.5167    4.9218   10.4741 C   0  0  0  0  0  0  0  0  0  0  0  0
   10.0267    6.3014   10.4072 C   0  0  0  0  0  0  0  0  0  0  0  0
    6.4005    6.8977   10.0241 C   0  0  0  0  0  0  0  0  0  0  0  0
   11.0272    8.4858   10.9997 C   0  0  0  0  0  0  0  0  0  0  0  0
   10.0969    4.8441   10.1252 C   0  0  0  0  0  0  0  0  0  0  0  0
   12.5146    6.3877   10.7066 C   0  0  2  0  0  0  0  0  0  0  0  0
    7.1705    8.6548   10.8716 H   0  0  0  0  0  0  0  0  0  0  0  0
   10.5316    2.3851    9.7034 H   0  0  0  0  0  0  0  0  0  0  0  0
   12.0380    2.5991    9.1105 H   0  0  0  0  0  0  0  0  0  0  0  0
   11.8225    2.2853   10.6985 H   0  0  0  0  0  0  0  0  0  0  0  0
   13.1437    7.0883    7.4150 H   0  0  0  0  0  0  0  0  0  0  0  0
   12.4572    5.7282    8.0029 H   0  0  0  0  0  0  0  0  0  0  0  0
   11.6937    7.1629    8.1623 H   0  0  0  0  0  0  0  0  0  0  0  0
    4.8102    9.5299   10.5859 H   0  0  0  0  0  0  0  0  0  0  0  0
    8.9181    3.1963    9.6508 H   0  0  0  0  0  0  0  0  0  0  0  0
   13.4138    7.9169    9.6149 H   0  0  0  0  0  0  0  0  0  0  0  0
   14.1773    6.4822    9.4555 H   0  0  0  0  0  0  0  0  0  0  0  0
    3.3815    7.6927    9.5391 H   0  0  0  0  0  0  0  0  0  0  0  0
   11.7810   11.3615    9.8026 H   0  0  0  0  0  0  0  0  0  0  0  0
   10.3974   11.2977   10.6676 H   0  0  0  0  0  0  0  0  0  0  0  0
   11.6061   10.9996   12.5002 H   0  0  0  0  0  0  0  0  0  0  0  0
   12.9774   10.9285   11.6164 H   0  0  0  0  0  0  0  0  0  0  0  0
    4.9014    5.6518    9.1383 H   0  0  0  0  0  0  0  0  0  0  0  0
   11.5827    9.2183    9.1156 H   0  0  0  0  0  0  0  0  0  0  0  0
    9.9991    9.4442    9.4441 H   0  0  0  0  0  0  0  0  0  0  0  0
   11.9105    8.8236   12.8786 H   0  0  0  0  0  0  0  0  0  0  0  0
   13.0076    8.6988   11.6755 H   0  0  0  0  0  0  0  0  0  0  0  0
   10.1653    8.5658   11.5006 H   0  0  0  0  0  0  0  0  0  0  0  0
   13.0038    6.6046   11.5513 H   0  0  0  0  0  0  0  0  0  0  0  0
  1 19  2  0  0  0  0
  2 10  1  0  0  0  0
  2 18  2  0  0  0  0
  3  9  1  0  0  0  0
  3 21  1  0  0  0  0
  4 18  1  0  0  0  0
  4 20  2  0  0  0  0
  5  7  1  0  0  0  0
  5 19  1  0  0  0  0
  5 23  1  0  0  0  0
  6 20  1  0  0  0  0
  6 22  1  0  0  0  0
  6 24  1  0  0  0  0
  8 11  1  0  0  0  0
  9 12  2  0  0  0  0
 10 23  2  0  0  0  0
 11 24  1  0  0  0  0
 12 15  1  0  0  0  0
 13 14  1  0  0  0  0
 13 16  1  0  0  0  0
 14 17  1  0  0  0  0
 15 21  2  0  0  0  0
 16 22  1  0  0  0  0
 17 22  1  0  0  0  0
 18 21  1  0  0  0  0
 19 24  1  0  0  0  0
 20 23  1  0  0  0  0
  3 25  1  0  0  0  0
  7 26  1  0  0  0  0
  7 27  1  0  0  0  0
  7 28  1  0  0  0  0
  8 29  1  0  0  0  0
  8 30  1  0  0  0  0
  8 31  1  0  0  0  0
  9 32  1  0  0  0  0
 10 33  1  0  0  0  0
 11 34  1  0  0  0  0
 11 35  1  0  0  0  0
 12 36  1  0  0  0  0
 13 37  1  0  0  0  0
 13 38  1  0  0  0  0
 14 39  1  0  0  0  0
 14 40  1  0  0  0  0
 15 41  1  0  0  0  0
 16 42  1  0  0  0  0
 16 43  1  0  0  0  0
 17 44  1  0  0  0  0
 17 45  1  0  0  0  0
 22 46  1  0  0  0  0
 24 47  1  0  0  0  0
M  END
> <pdb_id>
4I5P

> <uniprot_id>
Q9NYY3

> <usmiles>
O=C1N(c2c(nc(nc2)C=3NC=CC3)N([C@@H]1CC)C4CCCC4)C

$$$$
1DR_A_313
          07192419233D 1   1.00000     0.00000     0
            
 28 31  0  0  0  0            999 V2000
  -15.8157   33.6589    1.6856 O   0  0  0  0  0  0  0  0  0  0  0  0
  -17.5282   35.0564   -2.2506 N   0  0  0  0  0  0  0  0  0  0  0  0
  -19.6584   37.4153   -2.1376 N   0  0  0  0  0  0  0  0  0  0  0  0
  -15.7838   33.4069    0.4812 C   0  0  0  0  0  0  0  0  0  0  0  0
  -16.6388   34.1421   -1.8029 C   0  0  0  0  0  0  0  0  0  0  0  0
  -22.0364   40.0914   -1.2647 C   0  0  0  0  0  0  0  0  0  0  0  0
  -21.8475   40.0102    0.1282 C   0  0  0  0  0  0  0  0  0  0  0  0
  -21.3450   39.2409   -2.1239 C   0  0  0  0  0  0  0  0  0  0  0  0
  -20.9727   39.0924    0.6970 C   0  0  0  0  0  0  0  0  0  0  0  0
  -17.8769   35.7416    1.2057 C   0  0  0  0  0  0  0  0  0  0  0  0
  -18.8183   36.7773    1.2678 C   0  0  0  0  0  0  0  0  0  0  0  0
  -20.4697   38.3181   -1.5641 C   0  0  0  0  0  0  0  0  0  0  0  0
  -18.0707   35.7215   -1.2171 C   0  0  0  0  0  0  0  0  0  0  0  0
  -18.9969   36.7415   -1.1573 C   0  0  0  0  0  0  0  0  0  0  0  0
  -16.6246   34.2516   -0.4700 C   0  0  0  0  0  0  0  0  0  0  0  0
  -20.3036   38.2432   -0.1669 C   0  0  0  0  0  0  0  0  0  0  0  0
  -17.5121   35.2332   -0.0436 C   0  0  0  0  0  0  0  0  0  0  0  0
  -19.3722   37.2478    0.0902 C   0  0  0  0  0  0  0  0  0  0  0  0
  -17.7503   35.2149   -3.2126 H   0  0  0  0  0  0  0  0  0  0  0  0
  -19.5571   37.2633   -3.1208 H   0  0  0  0  0  0  0  0  0  0  0  0
  -15.2162   32.6610    0.1325 H   0  0  0  0  0  0  0  0  0  0  0  0
  -16.0989   33.5095   -2.3581 H   0  0  0  0  0  0  0  0  0  0  0  0
  -22.6725   40.7655   -1.6403 H   0  0  0  0  0  0  0  0  0  0  0  0
  -22.3571   40.6303    0.7248 H   0  0  0  0  0  0  0  0  0  0  0  0
  -21.4746   39.2927   -3.1141 H   0  0  0  0  0  0  0  0  0  0  0  0
  -20.8329   39.0475    1.6861 H   0  0  0  0  0  0  0  0  0  0  0  0
  -17.4725   35.3720    2.0423 H   0  0  0  0  0  0  0  0  0  0  0  0
  -19.0853   37.1699    2.1479 H   0  0  0  0  0  0  0  0  0  0  0  0
  1  4  2  0  0  0  0
  2  5  1  0  0  0  0
  2 13  1  0  0  0  0
  3 12  1  0  0  0  0
  3 14  1  0  0  0  0
  4 15  1  0  0  0  0
  5 15  2  0  0  0  0
  6  7  2  0  0  0  0
  6  8  1  0  0  0  0
  7  9  1  0  0  0  0
  8 12  2  0  0  0  0
  9 16  2  0  0  0  0
 10 11  1  0  0  0  0
 10 17  2  0  0  0  0
 11 18  2  0  0  0  0
 12 16  1  0  0  0  0
 13 14  2  0  0  0  0
 13 17  1  0  0  0  0
 14 18  1  0  0  0  0
 15 17  1  0  0  0  0
 16 18  1  0  0  0  0
  2 19  1  0  0  0  0
  3 20  1  0  0  0  0
  4 21  1  0  0  0  0
  5 22  1  0  0  0  0
  6 23  1  0  0  0  0
  7 24  1  0  0  0  0
  8 25  1  0  0  0  0
  9 26  1  0  0  0  0
 10 27  1  0  0  0  0
 11 28  1  0  0  0  0
M  END
> <pdb_id>
3JPV

> <uniprot_id>
P11309

> <usmiles>
O=CC=1c2c(NC1)c3Nc4c(c3cc2)cccc4

$$$$
1DT_A_1202
          07192419483D 1   1.00000     0.00000     0
            
 42 45  0  0  0  0            999 V2000
   15.6101   22.3987   30.3781 O   0  0  0  0  0  0  0  0  0  0  0  0
   20.9952   24.0580   26.6189 O   0  0  0  0  0  0  0  0  0  0  0  0
   21.1316   21.1859   28.7365 N   0  0  0  0  0  0  0  0  0  0  0  0
   19.3472   20.3822   30.2244 N   0  0  0  0  0  0  0  0  0  0  0  0
   16.5707   23.7376   28.8768 N   0  0  0  0  0  0  0  0  0  0  0  0
   19.3288   23.1961   28.0579 N   0  0  0  0  0  0  0  0  0  0  0  0
   16.0611   26.0975   28.4374 C   0  0  0  0  0  0  0  0  0  0  0  0
   21.4532   22.1257   27.8605 C   0  0  0  0  0  0  0  0  0  0  0  0
   18.0855   20.7667   30.5321 C   0  0  0  0  0  0  0  0  0  0  0  0
   18.4415   27.0116   24.9542 C   0  0  0  0  0  0  0  0  0  0  0  0
   17.9948   25.6986   25.0828 C   0  0  0  0  0  0  0  0  0  0  0  0
   19.7315   27.3275   25.3909 C   0  0  0  0  0  0  0  0  0  0  0  0
   18.8264   24.6944   25.6548 C   0  0  0  0  0  0  0  0  0  0  0  0
   20.5699   26.3471   25.9478 C   0  0  0  0  0  0  0  0  0  0  0  0
   15.1839   23.7236   26.2056 C   0  0  0  0  0  0  0  0  0  0  0  0
   14.3205   22.7981   27.0514 C   0  0  0  0  0  0  0  0  0  0  0  0
   16.5784   22.6653   29.7057 C   0  0  0  0  0  0  0  0  0  0  0  0
   20.5210   23.1142   27.4876 C   0  0  0  0  0  0  0  0  0  0  0  0
   19.9132   21.2081   29.2961 C   0  0  0  0  0  0  0  0  0  0  0  0
   20.0922   25.0099   26.1384 C   0  0  0  0  0  0  0  0  0  0  0  0
   15.4462   24.6653   28.6366 C   0  0  1  0  0  0  0  0  0  0  0  0
   18.9783   22.2258   28.9731 C   0  0  0  0  0  0  0  0  0  0  0  0
   14.5285   24.2601   27.4689 C   0  0  0  0  0  0  0  0  0  0  0  0
   17.7997   21.9076   29.7595 C   0  0  0  0  0  0  0  0  0  0  0  0
   19.8074   19.5910   30.6274 H   0  0  0  0  0  0  0  0  0  0  0  0
   17.4158   23.9201   28.3744 H   0  0  0  0  0  0  0  0  0  0  0  0
   15.3266   26.7555   28.2717 H   0  0  0  0  0  0  0  0  0  0  0  0
   16.5654   26.3611   29.2597 H   0  0  0  0  0  0  0  0  0  0  0  0
   16.6826   26.0874   27.6541 H   0  0  0  0  0  0  0  0  0  0  0  0
   22.3690   22.1339   27.4588 H   0  0  0  0  0  0  0  0  0  0  0  0
   17.4721   20.3232   31.1857 H   0  0  0  0  0  0  0  0  0  0  0  0
   17.8511   27.7145   24.5574 H   0  0  0  0  0  0  0  0  0  0  0  0
   17.0765   25.4577   24.7687 H   0  0  0  0  0  0  0  0  0  0  0  0
   20.0631   28.2670   25.3055 H   0  0  0  0  0  0  0  0  0  0  0  0
   18.4970   23.7518   25.7096 H   0  0  0  0  0  0  0  0  0  0  0  0
   21.5048   26.5838   26.2123 H   0  0  0  0  0  0  0  0  0  0  0  0
   14.8604   24.0262   25.3091 H   0  0  0  0  0  0  0  0  0  0  0  0
   16.1747   23.5917   26.1754 H   0  0  0  0  0  0  0  0  0  0  0  0
   14.7438   22.0615   27.5789 H   0  0  0  0  0  0  0  0  0  0  0  0
   13.4295   22.4960   26.7126 H   0  0  0  0  0  0  0  0  0  0  0  0
   14.8889   24.6875   29.4666 H   0  0  0  0  0  0  0  0  0  0  0  0
   13.7434   24.8607   27.3178 H   0  0  0  0  0  0  0  0  0  0  0  0
  1 17  2  0  0  0  0
  2 18  1  0  0  0  0
  2 20  1  0  0  0  0
  3  8  1  0  0  0  0
  3 19  2  0  0  0  0
  4  9  1  0  0  0  0
  4 19  1  0  0  0  0
  5 17  1  0  0  0  0
  5 21  1  0  0  0  0
  6 18  1  0  0  0  0
  6 22  2  0  0  0  0
  7 21  1  0  0  0  0
  8 18  2  0  0  0  0
  9 24  2  0  0  0  0
 10 11  2  0  0  0  0
 10 12  1  0  0  0  0
 11 13  1  0  0  0  0
 12 14  2  0  0  0  0
 13 20  2  0  0  0  0
 14 20  1  0  0  0  0
 15 16  1  0  0  0  0
 15 23  1  0  0  0  0
 16 23  1  0  0  0  0
 17 24  1  0  0  0  0
 19 22  1  0  0  0  0
 21 23  1  0  0  0  0
 22 24  1  0  0  0  0
  4 25  1  0  0  0  0
  5 26  1  0  0  0  0
  7 27  1  0  0  0  0
  7 28  1  0  0  0  0
  7 29  1  0  0  0  0
  8 30  1  0  0  0  0
  9 31  1  0  0  0  0
 10 32  1  0  0  0  0
 11 33  1  0  0  0  0
 12 34  1  0  0  0  0
 13 35  1  0  0  0  0
 14 36  1  0  0  0  0
 15 37  1  0  0  0  0
 15 38  1  0  0  0  0
 16 39  1  0  0  0  0
 16 40  1  0  0  0  0
 21 41  1  0  0  0  0
 23 42  1  0  0  0  0
M  END
> <pdb_id>
4I6Q

> <uniprot_id>
P52333

> <usmiles>
O=C(N[C@H](C1CC1)C)C=2c3nc(Oc4ccccc4)cnc3NC2

$$$$
1E0_A_701
          07202407573D 1   1.00000     0.00000     0
            
 45 47  0  0  0  0            999 V2000
   -1.2384    6.8293   14.9373 O   0  0  0  0  0  0  0  0  0  0  0  0
   -5.8618    4.8949   16.2269 O   0  0  0  0  0  0  0  0  0  0  0  0
   -7.7596   11.8862   15.3257 O   0  0  0  0  0  0  0  0  0  0  0  0
   -1.2405    5.1267   16.4676 N   0  0  0  0  0  0  0  0  0  0  0  0
   -7.6700    5.5807   15.0380 N   0  0  0  0  0  0  0  0  0  0  0  0
   -5.9631    7.4419   13.6725 N   0  0  0  0  0  0  0  0  0  0  0  0
   -3.2751    5.8590   15.5122 N   0  0  0  0  0  0  0  0  0  0  0  0
   -4.8801    8.1009   13.2183 N   0  0  0  0  0  0  0  0  0  0  0  0
   -7.6405   12.6128   18.1119 C   0  0  0  0  0  0  0  0  0  0  0  0
   -3.6778    7.6656   13.7908 C   0  0  0  0  0  0  0  0  0  0  0  0
   -4.4673   10.1218   10.1400 C   0  0  0  0  0  0  0  0  0  0  0  0
   -7.1616   12.6968   13.2290 C   0  0  0  0  0  0  0  0  0  0  0  0
   -4.3693    9.0674   11.0721 C   0  0  0  0  0  0  0  0  0  0  0  0
   -5.1830   11.2473   10.4441 C   0  0  0  0  0  0  0  0  0  0  0  0
   -6.5424   12.5650   12.0243 C   0  0  0  0  0  0  0  0  0  0  0  0
   -6.3856   10.4830   13.9023 C   0  0  0  0  0  0  0  0  0  0  0  0
   -7.7709   10.8664   16.3105 C   0  0  0  0  0  0  0  0  0  0  0  0
   -8.4698   11.4817   17.5265 C   0  0  0  0  0  0  0  0  0  0  0  0
   -1.8791    5.9955   15.5891 C   0  0  0  0  0  0  0  0  0  0  0  0
   -6.3293    5.6178   15.3389 C   0  0  0  0  0  0  0  0  0  0  0  0
   -7.0864   11.6273   14.1733 C   0  0  0  0  0  0  0  0  0  0  0  0
   -4.0512    6.6552   14.6834 C   0  0  0  0  0  0  0  0  0  0  0  0
   -5.4803    6.5433   14.5862 C   0  0  0  0  0  0  0  0  0  0  0  0
   -4.9944    9.1892   12.2879 C   0  0  0  0  0  0  0  0  0  0  0  0
   -5.8212   11.3824   11.6997 C   0  0  0  0  0  0  0  0  0  0  0  0
   -5.7414   10.3480   12.6467 C   0  0  0  0  0  0  0  0  0  0  0  0
   -0.2543    5.2327   16.6138 H   0  0  0  0  0  0  0  0  0  0  0  0
   -1.7173    4.4383   17.0141 H   0  0  0  0  0  0  0  0  0  0  0  0
   -8.0763    6.1467   14.3165 H   0  0  0  0  0  0  0  0  0  0  0  0
   -8.2813    4.9566   15.5339 H   0  0  0  0  0  0  0  0  0  0  0  0
   -3.7799    5.1765   16.0806 H   0  0  0  0  0  0  0  0  0  0  0  0
   -7.4405   13.4084   17.3793 H   0  0  0  0  0  0  0  0  0  0  0  0
   -6.6648   12.2668   18.4814 H   0  0  0  0  0  0  0  0  0  0  0  0
   -8.1513   13.0930   18.9583 H   0  0  0  0  0  0  0  0  0  0  0  0
   -2.7090    8.0897   13.5389 H   0  0  0  0  0  0  0  0  0  0  0  0
   -3.9694   10.0174    9.1720 H   0  0  0  0  0  0  0  0  0  0  0  0
   -7.7116   13.6042   13.4952 H   0  0  0  0  0  0  0  0  0  0  0  0
   -3.8173    8.1610   10.8049 H   0  0  0  0  0  0  0  0  0  0  0  0
   -5.2831   12.0505    9.7083 H   0  0  0  0  0  0  0  0  0  0  0  0
   -6.5885   13.3757   11.2905 H   0  0  0  0  0  0  0  0  0  0  0  0
   -6.3025    9.6867   14.6430 H   0  0  0  0  0  0  0  0  0  0  0  0
   -8.3199    9.9706   15.9399 H   0  0  0  0  0  0  0  0  0  0  0  0
   -6.7443   10.5339   16.5769 H   0  0  0  0  0  0  0  0  0  0  0  0
   -9.4805   11.8443   17.2459 H   0  0  0  0  0  0  0  0  0  0  0  0
   -8.6457   10.6886   18.2821 H   0  0  0  0  0  0  0  0  0  0  0  0
  1 19  2  0  0  0  0
  2 20  2  0  0  0  0
  3 17  1  0  0  0  0
  3 21  1  0  0  0  0
  4 19  1  0  0  0  0
  4 27  1  0  0  0  0
  4 28  1  0  0  0  0
  5 20  1  0  0  0  0
  5 29  1  0  0  0  0
  5 30  1  0  0  0  0
  6  8  1  0  0  0  0
  6 23  2  0  0  0  0
  7 19  1  0  0  0  0
  7 22  1  0  0  0  0
  7 31  1  0  0  0  0
  8 10  1  0  0  0  0
  8 24  1  0  0  0  0
  9 18  1  0  0  0  0
  9 32  1  0  0  0  0
  9 33  1  0  0  0  0
  9 34  1  0  0  0  0
 10 22  2  0  0  0  0
 10 35  1  0  0  0  0
 11 13  2  0  0  0  0
 11 14  1  0  0  0  0
 11 36  1  0  0  0  0
 12 15  2  0  0  0  0
 12 21  1  0  0  0  0
 12 37  1  0  0  0  0
 13 24  1  0  0  0  0
 13 38  1  0  0  0  0
 14 25  2  0  0  0  0
 14 39  1  0  0  0  0
 15 25  1  0  0  0  0
 15 40  1  0  0  0  0
 16 21  2  0  0  0  0
 16 26  1  0  0  0  0
 16 41  1  0  0  0  0
 17 18  1  0  0  0  0
 17 42  1  0  0  0  0
 17 43  1  0  0  0  0
 18 44  1  0  0  0  0
 18 45  1  0  0  0  0
 20 23  1  0  0  0  0
 22 23  1  0  0  0  0
 24 26  2  0  0  0  0
 25 26  1  0  0  0  0
M  END
> <pdb_id>
4M13

> <uniprot_id>
Q08881

> <usmiles>
O=C(NC=1C(=NN(c2c3c(ccc(OCCC)c3)ccc2)C1)C(=O)N)N

$$$$
1EA_A_503
          07212403373D 1   1.00000     0.00000     0
            
 51 54  0  0  0  0            999 V2000
   35.6850  -18.9910  -22.3950 F   0  0  0  0  0  0  0  0  0  0  0  0
   34.0027  -14.8792  -26.9365 O   0  0  0  0  0  0  0  0  0  0  0  0
   33.7788  -16.8828  -26.1679 O   0  0  0  0  0  0  0  0  0  0  0  0
   32.0844   -7.8055  -23.0800 O   0  0  0  0  0  0  0  0  0  0  0  0
   34.0588  -13.8356  -22.1070 N   0  0  0  0  0  0  0  0  0  0  0  0
   34.7186   -9.1034  -26.0578 C   0  0  0  0  0  0  0  0  0  0  0  0
   34.9133   -7.6415  -24.2030 C   0  0  0  0  0  0  0  0  0  0  0  0
   31.5647  -12.2953  -21.1849 C   0  0  0  0  0  0  0  0  0  0  0  0
   31.8367   -5.2050  -20.0101 C   0  0  0  0  0  0  0  0  0  0  0  0
   32.5157   -6.3798  -19.8420 C   0  0  0  0  0  0  0  0  0  0  0  0
   31.2225   -4.9543  -21.1866 C   0  0  0  0  0  0  0  0  0  0  0  0
   35.3504  -17.0816  -21.1333 C   0  0  0  0  0  0  0  0  0  0  0  0
   32.6180   -7.2620  -20.8575 C   0  0  0  0  0  0  0  0  0  0  0  0
   31.3143   -5.8226  -22.2010 C   0  0  0  0  0  0  0  0  0  0  0  0
   34.9298  -15.7914  -21.0524 C   0  0  0  0  0  0  0  0  0  0  0  0
   34.9144  -17.1620  -23.4749 C   0  0  0  0  0  0  0  0  0  0  0  0
   31.8562  -10.0263  -22.1615 C   0  0  0  0  0  0  0  0  0  0  0  0
   33.5959  -13.8134  -24.4369 C   0  0  0  0  0  0  0  0  0  0  0  0
   33.7944  -10.8991  -23.9683 C   0  0  0  0  0  0  0  0  0  0  0  0
   33.9099  -15.6807  -26.0222 C   0  0  0  0  0  0  0  0  0  0  0  0
   35.3297  -17.7699  -22.3319 C   0  0  0  0  0  0  0  0  0  0  0  0
   32.0063   -6.9864  -22.0460 C   0  0  0  0  0  0  0  0  0  0  0  0
   32.4469   -9.1032  -23.0315 C   0  0  0  0  0  0  0  0  0  0  0  0
   34.4835  -15.1005  -22.1837 C   0  0  0  0  0  0  0  0  0  0  0  0
   33.6626  -13.2133  -23.1890 C   0  0  0  0  0  0  0  0  0  0  0  0
   34.2552   -8.7420  -24.9057 C   0  0  0  0  0  0  0  0  0  0  0  0
   32.2154  -11.3497  -22.1482 C   0  0  0  0  0  0  0  0  0  0  0  0
   33.9952  -15.1028  -24.6326 C   0  0  0  0  0  0  0  0  0  0  0  0
   33.4273   -9.5838  -23.9847 C   0  0  0  0  0  0  0  0  0  0  0  0
   33.2222  -11.8223  -23.0975 C   0  0  0  0  0  0  0  0  0  0  0  0
   34.4695  -15.8568  -23.4588 C   0  0  0  0  0  0  0  0  0  0  0  0
   35.3834   -8.4491  -26.5817 H   0  0  0  0  0  0  0  0  0  0  0  0
   34.2984   -9.9390  -26.5675 H   0  0  0  0  0  0  0  0  0  0  0  0
   35.1973   -6.9002  -24.8939 H   0  0  0  0  0  0  0  0  0  0  0  0
   35.7762   -8.0051  -23.7327 H   0  0  0  0  0  0  0  0  0  0  0  0
   34.2703   -7.2226  -23.4894 H   0  0  0  0  0  0  0  0  0  0  0  0
   30.8717  -12.8859  -21.7025 H   0  0  0  0  0  0  0  0  0  0  0  0
   32.2917  -12.9083  -20.7571 H   0  0  0  0  0  0  0  0  0  0  0  0
   31.0814  -11.7509  -20.4357 H   0  0  0  0  0  0  0  0  0  0  0  0
   31.7407   -4.5132  -19.1976 H   0  0  0  0  0  0  0  0  0  0  0  0
   32.9998   -6.5863  -18.9083 H   0  0  0  0  0  0  0  0  0  0  0  0
   30.6732   -4.0403  -21.3090 H   0  0  0  0  0  0  0  0  0  0  0  0
   35.6772  -17.5793  -20.2541 H   0  0  0  0  0  0  0  0  0  0  0  0
   33.1699   -8.1673  -20.7371 H   0  0  0  0  0  0  0  0  0  0  0  0
   30.8407   -5.6118  -23.1367 H   0  0  0  0  0  0  0  0  0  0  0  0
   34.9512  -15.2801  -20.1178 H   0  0  0  0  0  0  0  0  0  0  0  0
   34.9120  -17.7439  -24.3661 H   0  0  0  0  0  0  0  0  0  0  0  0
   31.1030   -9.7002  -21.4757 H   0  0  0  0  0  0  0  0  0  0  0  0
   33.2530  -13.2435  -25.2685 H   0  0  0  0  0  0  0  0  0  0  0  0
   34.5584  -11.2371  -24.6353 H   0  0  0  0  0  0  0  0  0  0  0  0
   34.1085  -13.9047  -26.7384 H   0  0  0  0  0  0  0  0  0  0  0  0
  1 21  1  0  0  0  0
  2 20  1  0  0  0  0
  3 20  2  0  0  0  0
  4 22  1  0  0  0  0
  4 23  1  0  0  0  0
  5 24  1  0  0  0  0
  5 25  2  0  0  0  0
  6 26  2  0  0  0  0
  6 32  1  0  0  0  0
  6 33  1  0  0  0  0
  7 26  1  0  0  0  0
  7 34  1  0  0  0  0
  7 35  1  0  0  0  0
  7 36  1  0  0  0  0
  8 27  1  0  0  0  0
  8 37  1  0  0  0  0
  8 38  1  0  0  0  0
  8 39  1  0  0  0  0
  9 10  2  0  0  0  0
  9 11  1  0  0  0  0
  9 40  1  0  0  0  0
 10 13  1  0  0  0  0
 10 41  1  0  0  0  0
 11 14  2  0  0  0  0
 11 42  1  0  0  0  0
 12 15  1  0  0  0  0
 12 21  2  0  0  0  0
 12 43  1  0  0  0  0
 13 22  2  0  0  0  0
 13 44  1  0  0  0  0
 14 22  1  0  0  0  0
 14 45  1  0  0  0  0
 15 24  2  0  0  0  0
 15 46  1  0  0  0  0
 16 21  1  0  0  0  0
 16 31  2  0  0  0  0
 16 47  1  0  0  0  0
 17 23  2  0  0  0  0
 17 27  1  0  0  0  0
 17 48  1  0  0  0  0
 18 25  1  0  0  0  0
 18 28  2  0  0  0  0
 18 49  1  0  0  0  0
 19 29  2  0  0  0  0
 19 30  1  0  0  0  0
 19 50  1  0  0  0  0
 20 28  1  0  0  0  0
 23 29  1  0  0  0  0
 24 31  1  0  0  0  0
 25 30  1  0  0  0  0
 26 29  1  0  0  0  0
 27 30  2  0  0  0  0
 28 31  1  0  0  0  0
  2 51  1  0  0  0  0
M  END
> <pdb_id>
4IGH

> <uniprot_id>
Q02127

> <usmiles>
Fc1cc2c(nc(c3c(cc(Oc4ccccc4)c(c3)C(=C)C)C)cc2C(=O)O)cc1

$$$$
1EB_A_603
          07202407493D 1   1.00000     0.00000     0
            
 25 26  0  0  0  0            999 V2000
    8.4866   -9.1779   35.3476 O   0  5  0  0  0  0  0  0  0  0  0  0
   10.1900   -8.3685   34.4051 O   0  0  0  0  0  0  0  0  0  0  0  0
    9.9957   -7.4695   41.8497 O   0  0  0  0  0  0  0  0  0  0  0  0
   11.7841   -7.2504   40.4675 N   0  0  0  0  0  0  0  0  0  0  0  0
    9.5769   -8.6413   35.4192 N   0  3  0  0  0  0  0  0  0  0  0  0
    9.9478   -8.2427   39.1341 C   0  0  0  0  0  0  0  0  0  0  0  0
   11.9016   -7.3700   38.0636 C   0  0  0  0  0  0  0  0  0  0  0  0
    9.4263   -8.5645   37.8955 C   0  0  0  0  0  0  0  0  0  0  0  0
   11.3866   -7.6989   36.8233 C   0  0  0  0  0  0  0  0  0  0  0  0
   11.4837   -5.2576   43.4174 C   0  0  0  0  0  0  0  0  0  0  0  0
   11.2126   -6.5230   44.2217 C   0  0  0  0  0  0  0  0  0  0  0  0
   11.1591   -7.1431   41.6753 C   0  0  0  0  0  0  0  0  0  0  0  0
   11.2080   -7.6540   39.2397 C   0  0  0  0  0  0  0  0  0  0  0  0
   10.1436   -8.2950   36.7401 C   0  0  0  0  0  0  0  0  0  0  0  0
   11.9308   -6.6174   42.8639 C   0  0  0  0  0  0  0  0  0  0  0  0
   12.7566   -7.0181   40.4475 H   0  0  0  0  0  0  0  0  0  0  0  0
    9.4179   -8.4331   39.9605 H   0  0  0  0  0  0  0  0  0  0  0  0
   12.7920   -6.9180   38.1185 H   0  0  0  0  0  0  0  0  0  0  0  0
    8.5257   -8.9945   37.8321 H   0  0  0  0  0  0  0  0  0  0  0  0
   11.9099   -7.5067   35.9931 H   0  0  0  0  0  0  0  0  0  0  0  0
   12.1660   -4.6001   43.7367 H   0  0  0  0  0  0  0  0  0  0  0  0
   10.7255   -4.7684   42.9863 H   0  0  0  0  0  0  0  0  0  0  0  0
   10.2772   -6.8637   44.3168 H   0  0  0  0  0  0  0  0  0  0  0  0
   11.7178   -6.6954   45.0672 H   0  0  0  0  0  0  0  0  0  0  0  0
   12.9115   -6.8121   42.8859 H   0  0  0  0  0  0  0  0  0  0  0  0
  1  5  1  0  0  0  0
  2  5  2  0  0  0  0
  3 12  2  0  0  0  0
  4 12  1  0  0  0  0
  4 13  1  0  0  0  0
  5 14  1  0  0  0  0
  6  8  1  0  0  0  0
  6 13  2  0  0  0  0
  7  9  2  0  0  0  0
  7 13  1  0  0  0  0
  8 14  2  0  0  0  0
  9 14  1  0  0  0  0
 10 11  1  0  0  0  0
 10 15  1  0  0  0  0
 11 15  1  0  0  0  0
 12 15  1  0  0  0  0
  4 16  1  0  0  0  0
  6 17  1  0  0  0  0
  7 18  1  0  0  0  0
  8 19  1  0  0  0  0
  9 20  1  0  0  0  0
 10 21  1  0  0  0  0
 10 22  1  0  0  0  0
 11 23  1  0  0  0  0
 11 24  1  0  0  0  0
 15 25  1  0  0  0  0
M  CHG  2   1  -1   5   1
M  END
> <pdb_id>
4LVD

> <uniprot_id>
P43490

> <usmiles>
[O-][N+](=O)c1ccc(NC(=O)C2CC2)cc1

$$$$
1EC_A_405
          07212403283D 1   1.00000     0.00000     0
            
 38 37  0  0  0  0            999 V2000
   32.2104   85.2099   74.7277 O   0  0  0  0  0  0  0  0  0  0  0  0
   35.3548   89.2304   72.2192 O   0  0  0  0  0  0  0  0  0  0  0  0
   33.3567   89.5371   71.3605 O   0  0  0  0  0  0  0  0  0  0  0  0
   38.5251   85.9750   66.4502 O   0  0  0  0  0  0  0  0  0  0  0  0
   36.4055   85.9903   65.4981 O   0  0  0  0  0  0  0  0  0  0  0  0
   38.0929   87.8747   65.1241 O   0  0  0  0  0  0  0  0  0  0  0  0
   32.8070   87.0432   70.9258 N   0  0  0  0  0  0  0  0  0  0  0  0
   33.0549   86.2966   75.1435 C   0  0  0  0  0  0  0  0  0  0  0  0
   33.2238   87.2390   73.9520 C   0  0  0  0  0  0  0  0  0  0  0  0
   35.4032   87.3540   69.3567 C   0  0  0  0  0  0  0  0  0  0  0  0
   36.4811   86.6502   68.5233 C   0  0  0  0  0  0  0  0  0  0  0  0
   34.1677   86.6167   72.9310 C   0  0  0  0  0  0  0  0  0  0  0  0
   35.2282   86.6927   70.7170 C   0  0  0  0  0  0  0  0  0  0  0  0
   37.0926   87.6270   67.5161 C   0  0  0  0  0  0  0  0  0  0  0  0
   34.2912   88.7840   71.7246 C   0  0  0  0  0  0  0  0  0  0  0  0
   34.1117   87.2944   71.5596 C   0  0  1  0  0  0  0  0  0  0  0  0
   37.3941   86.9616   66.1035 B   0  5  0  0  0  0  0  0  0  0  0  0
   32.0828   84.5761   75.4906 H   0  0  0  0  0  0  0  0  0  0  0  0
   36.0793   88.6003   72.4987 H   0  0  0  0  0  0  0  0  0  0  0  0
   39.2828   86.4719   66.8733 H   0  0  0  0  0  0  0  0  0  0  0  0
   35.5855   86.4852   65.2105 H   0  0  0  0  0  0  0  0  0  0  0  0
   37.4555   88.5793   64.8122 H   0  0  0  0  0  0  0  0  0  0  0  0
   32.7796   87.4893   70.0312 H   0  0  0  0  0  0  0  0  0  0  0  0
   32.6761   86.0584   70.8113 H   0  0  0  0  0  0  0  0  0  0  0  0
   33.9467   85.9448   75.4281 H   0  0  0  0  0  0  0  0  0  0  0  0
   32.6304   86.7849   75.9060 H   0  0  0  0  0  0  0  0  0  0  0  0
   33.6032   88.1087   74.2679 H   0  0  0  0  0  0  0  0  0  0  0  0
   32.3332   87.3989   73.5264 H   0  0  0  0  0  0  0  0  0  0  0  0
   34.5345   87.3160   68.8629 H   0  0  0  0  0  0  0  0  0  0  0  0
   35.6686   88.3087   69.4914 H   0  0  0  0  0  0  0  0  0  0  0  0
   36.0695   85.8830   68.0312 H   0  0  0  0  0  0  0  0  0  0  0  0
   37.1987   86.3101   69.1309 H   0  0  0  0  0  0  0  0  0  0  0  0
   33.9232   85.6536   72.8190 H   0  0  0  0  0  0  0  0  0  0  0  0
   35.1022   86.6849   73.2804 H   0  0  0  0  0  0  0  0  0  0  0  0
   36.0864   86.7816   71.2225 H   0  0  0  0  0  0  0  0  0  0  0  0
   35.0256   85.7242   70.5719 H   0  0  0  0  0  0  0  0  0  0  0  0
   37.9505   87.9765   67.8926 H   0  0  0  0  0  0  0  0  0  0  0  0
   36.4546   88.3852   67.3808 H   0  0  0  0  0  0  0  0  0  0  0  0
  1  8  1  0  0  0  0
  2 15  1  0  0  0  0
  3 15  2  0  0  0  0
  4 17  1  0  0  0  0
  5 17  1  0  0  0  0
  6 17  1  0  0  0  0
  7 16  1  0  0  0  0
  8  9  1  0  0  0  0
  9 12  1  0  0  0  0
 10 11  1  0  0  0  0
 10 13  1  0  0  0  0
 11 14  1  0  0  0  0
 12 16  1  0  0  0  0
 13 16  1  0  0  0  0
 14 17  1  0  0  0  0
 15 16  1  0  0  0  0
  1 18  1  0  0  0  0
  2 19  1  0  0  0  0
  4 20  1  0  0  0  0
  5 21  1  0  0  0  0
  6 22  1  0  0  0  0
  7 23  1  0  0  0  0
  7 24  1  0  0  0  0
  8 25  1  0  0  0  0
  8 26  1  0  0  0  0
  9 27  1  0  0  0  0
  9 28  1  0  0  0  0
 10 29  1  0  0  0  0
 10 30  1  0  0  0  0
 11 31  1  0  0  0  0
 11 32  1  0  0  0  0
 12 33  1  0  0  0  0
 12 34  1  0  0  0  0
 13 35  1  0  0  0  0
 13 36  1  0  0  0  0
 14 37  1  0  0  0  0
 14 38  1  0  0  0  0
M  CHG  1  17  -1
M  END
> <pdb_id>
4IE2

> <uniprot_id>
P78540

> <usmiles>
O=C(O)[C@](N)(CCCO)CCCC[B-](O)(O)O

$$$$
1EN_E_302
          07202412553D 1   1.00000     0.00000     0
            
 42 46  0  0  0  0            999 V2000
   58.3844   22.1704   37.9537 Cl  0  0  0  0  0  0  0  0  0  0  0  0
   47.8872   26.9441   41.4820 F   0  0  0  0  0  0  0  0  0  0  0  0
   50.2575   25.6609   41.9080 O   0  0  0  0  0  0  0  0  0  0  0  0
   51.2934   22.8899   42.2820 N   0  0  0  0  0  0  0  0  0  0  0  0
   51.8959   21.6362   41.9609 N   0  0  0  0  0  0  0  0  0  0  0  0
   51.8648   22.8680   40.1636 N   0  0  0  0  0  0  0  0  0  0  0  0
   51.9932   23.3672   38.8844 C   0  0  0  0  0  0  0  0  0  0  0  0
   51.5647   24.5989   38.5781 C   0  0  0  0  0  0  0  0  0  0  0  0
   50.1844   29.7724   41.2635 C   0  0  0  0  0  0  0  0  0  0  0  0
   51.4099   29.1146   41.4839 C   0  0  0  0  0  0  0  0  0  0  0  0
   48.9799   29.0446   41.2561 C   0  0  0  0  0  0  0  0  0  0  0  0
   55.9182   21.0039   37.6596 C   0  0  0  0  0  0  0  0  0  0  0  0
   56.3858   22.0530   39.8119 C   0  0  0  0  0  0  0  0  0  0  0  0
   50.9386   25.4271   39.6373 C   0  0  0  0  0  0  0  0  0  0  0  0
   51.4582   27.7309   41.7152 C   0  0  0  0  0  0  0  0  0  0  0  0
   54.6385   20.6265   38.1137 C   0  0  0  0  0  0  0  0  0  0  0  0
   55.1081   21.6761   40.2590 C   0  0  0  0  0  0  0  0  0  0  0  0
   52.6050   19.1758   40.3735 C   0  0  0  0  0  0  0  0  0  0  0  0
   51.9877   19.6768   39.1179 C   0  0  0  0  0  0  0  0  0  0  0  0
   56.7930   21.7155   38.5096 C   0  0  0  0  0  0  0  0  0  0  0  0
   49.0240   27.6584   41.4777 C   0  0  0  0  0  0  0  0  0  0  0  0
   50.2508   27.0101   41.7160 C   0  0  0  0  0  0  0  0  0  0  0  0
   50.8089   24.9371   40.8928 C   0  0  0  0  0  0  0  0  0  0  0  0
   51.2986   23.5948   41.1777 C   0  0  0  0  0  0  0  0  0  0  0  0
   52.2164   21.6700   40.6877 C   0  0  0  0  0  0  0  0  0  0  0  0
   54.2355   20.9563   39.4192 C   0  0  0  0  0  0  0  0  0  0  0  0
   52.8683   20.5677   39.9284 C   0  0  0  0  0  0  0  0  0  0  0  0
   52.4124   22.8011   38.1747 H   0  0  0  0  0  0  0  0  0  0  0  0
   51.6656   24.9548   37.6490 H   0  0  0  0  0  0  0  0  0  0  0  0
   50.1699   30.7607   41.1116 H   0  0  0  0  0  0  0  0  0  0  0  0
   52.2596   29.6418   41.4755 H   0  0  0  0  0  0  0  0  0  0  0  0
   48.1075   29.5065   41.0957 H   0  0  0  0  0  0  0  0  0  0  0  0
   56.2078   20.7668   36.7323 H   0  0  0  0  0  0  0  0  0  0  0  0
   57.0016   22.5581   40.4166 H   0  0  0  0  0  0  0  0  0  0  0  0
   50.6120   26.3479   39.4240 H   0  0  0  0  0  0  0  0  0  0  0  0
   52.3304   27.2688   41.8756 H   0  0  0  0  0  0  0  0  0  0  0  0
   54.0192   20.1257   37.5090 H   0  0  0  0  0  0  0  0  0  0  0  0
   54.8150   21.9215   41.1830 H   0  0  0  0  0  0  0  0  0  0  0  0
   53.3340   18.4924   40.3334 H   0  0  0  0  0  0  0  0  0  0  0  0
   52.0350   19.0082   41.1779 H   0  0  0  0  0  0  0  0  0  0  0  0
   51.0033   19.8482   39.0779 H   0  0  0  0  0  0  0  0  0  0  0  0
   52.3023   19.3324   38.2334 H   0  0  0  0  0  0  0  0  0  0  0  0
  1 20  1  0  0  0  0
  2 21  1  0  0  0  0
  3 22  1  0  0  0  0
  3 23  1  0  0  0  0
  4  5  1  0  0  0  0
  4 24  2  0  0  0  0
  5 25  2  0  0  0  0
  6  7  1  0  0  0  0
  6 24  1  0  0  0  0
  6 25  1  0  0  0  0
  7  8  2  0  0  0  0
  8 14  1  0  0  0  0
  9 10  2  0  0  0  0
  9 11  1  0  0  0  0
 10 15  1  0  0  0  0
 11 21  2  0  0  0  0
 12 16  2  0  0  0  0
 12 20  1  0  0  0  0
 13 17  1  0  0  0  0
 13 20  2  0  0  0  0
 14 23  2  0  0  0  0
 15 22  2  0  0  0  0
 16 26  1  0  0  0  0
 17 26  2  0  0  0  0
 18 19  1  0  0  0  0
 18 27  1  0  0  0  0
 19 27  1  0  0  0  0
 21 22  1  0  0  0  0
 23 24  1  0  0  0  0
 25 27  1  0  0  0  0
 26 27  1  0  0  0  0
  7 28  1  0  0  0  0
  8 29  1  0  0  0  0
  9 30  1  0  0  0  0
 10 31  1  0  0  0  0
 11 32  1  0  0  0  0
 12 33  1  0  0  0  0
 13 34  1  0  0  0  0
 14 35  1  0  0  0  0
 15 36  1  0  0  0  0
 16 37  1  0  0  0  0
 17 38  1  0  0  0  0
 18 39  1  0  0  0  0
 18 40  1  0  0  0  0
 19 41  1  0  0  0  0
 19 42  1  0  0  0  0
M  END
> <pdb_id>
4IJV

> <uniprot_id>
P28845

> <usmiles>
Clc1ccc(cc1)C2(C3=NN=C4N3C=CC=C4Oc5c(F)cccc5)CC2

$$$$
1EO_B_302
          07202412553D 1   1.00000     0.00000     0
            
 43 47  0  0  0  0            999 V2000
   52.3285   18.8471   38.7932 F   0  0  0  0  0  0  0  0  0  0  0  0
   50.2476   28.4158   42.3171 O   0  0  0  0  0  0  0  0  0  0  0  0
   53.5118   19.5744   41.0977 O   0  0  0  0  0  0  0  0  0  0  0  0
   51.9563   21.8569   42.1152 N   0  0  0  0  0  0  0  0  0  0  0  0
   51.4518   23.1961   42.2565 N   0  0  0  0  0  0  0  0  0  0  0  0
   52.9867   23.1583   40.6883 N   0  0  0  0  0  0  0  0  0  0  0  0
   53.8848   23.4572   39.6762 C   0  0  0  0  0  0  0  0  0  0  0  0
   54.6733   22.5099   39.1238 C   0  0  0  0  0  0  0  0  0  0  0  0
   54.8143   16.1899   39.1183 C   0  0  0  0  0  0  0  0  0  0  0  0
   55.4259   16.5681   40.3256 C   0  0  0  0  0  0  0  0  0  0  0  0
   53.7689   16.9461   38.5866 C   0  0  0  0  0  0  0  0  0  0  0  0
   54.5764   21.1082   39.6092 C   0  0  0  0  0  0  0  0  0  0  0  0
   55.0048   17.7210   41.0132 C   0  0  0  0  0  0  0  0  0  0  0  0
   52.6603   27.6083   42.0645 C   0  0  0  0  0  0  0  0  0  0  0  0
   51.0881   27.3981   40.1248 C   0  0  0  0  0  0  0  0  0  0  0  0
   53.1719   26.2012   41.7387 C   0  0  0  0  0  0  0  0  0  0  0  0
   51.5668   25.9534   39.8403 C   0  0  0  0  0  0  0  0  0  0  0  0
   50.9114   26.1219   42.1402 C   0  0  0  0  0  0  0  0  0  0  0  0
   53.3351   18.0859   39.2753 C   0  0  0  0  0  0  0  0  0  0  0  0
   53.9535   18.4636   40.4657 C   0  0  0  0  0  0  0  0  0  0  0  0
   53.6886   20.8174   40.5829 C   0  0  0  0  0  0  0  0  0  0  0  0
   52.8604   21.8849   41.1609 C   0  0  0  0  0  0  0  0  0  0  0  0
   52.1037   23.9437   41.3864 C   0  0  0  0  0  0  0  0  0  0  0  0
   51.1810   27.5566   41.6550 C   0  0  0  0  0  0  0  0  0  0  0  0
   51.9399   25.4304   41.2225 C   0  0  0  0  0  0  0  0  0  0  0  0
   49.3328   28.2659   41.9422 H   0  0  0  0  0  0  0  0  0  0  0  0
   53.9507   24.3989   39.3462 H   0  0  0  0  0  0  0  0  0  0  0  0
   55.3157   22.7491   38.3957 H   0  0  0  0  0  0  0  0  0  0  0  0
   55.1307   15.3727   38.6365 H   0  0  0  0  0  0  0  0  0  0  0  0
   56.1681   16.0120   40.6999 H   0  0  0  0  0  0  0  0  0  0  0  0
   53.3357   16.6779   37.7262 H   0  0  0  0  0  0  0  0  0  0  0  0
   55.1586   20.3937   39.2212 H   0  0  0  0  0  0  0  0  0  0  0  0
   55.4435   18.0010   41.8671 H   0  0  0  0  0  0  0  0  0  0  0  0
   53.1535   28.2992   41.5358 H   0  0  0  0  0  0  0  0  0  0  0  0
   52.7543   27.8056   43.0404 H   0  0  0  0  0  0  0  0  0  0  0  0
   50.1455   27.5231   39.8154 H   0  0  0  0  0  0  0  0  0  0  0  0
   51.6801   28.0610   39.6664 H   0  0  0  0  0  0  0  0  0  0  0  0
   53.5404   25.7638   42.5589 H   0  0  0  0  0  0  0  0  0  0  0  0
   53.8809   26.2405   41.0346 H   0  0  0  0  0  0  0  0  0  0  0  0
   52.3595   25.9520   39.2306 H   0  0  0  0  0  0  0  0  0  0  0  0
   50.8341   25.4062   39.4358 H   0  0  0  0  0  0  0  0  0  0  0  0
   49.9738   25.8248   41.9592 H   0  0  0  0  0  0  0  0  0  0  0  0
   51.1185   25.9991   43.1108 H   0  0  0  0  0  0  0  0  0  0  0  0
  1 19  1  0  0  0  0
  2 24  1  0  0  0  0
  3 20  1  0  0  0  0
  3 21  1  0  0  0  0
  4  5  1  0  0  0  0
  4 22  2  0  0  0  0
  5 23  2  0  0  0  0
  6  7  1  0  0  0  0
  6 22  1  0  0  0  0
  6 23  1  0  0  0  0
  7  8  2  0  0  0  0
  8 12  1  0  0  0  0
  9 10  2  0  0  0  0
  9 11  1  0  0  0  0
 10 13  1  0  0  0  0
 11 19  2  0  0  0  0
 12 21  2  0  0  0  0
 13 20  2  0  0  0  0
 14 16  1  0  0  0  0
 14 24  1  0  0  0  0
 15 17  1  0  0  0  0
 15 24  1  0  0  0  0
 16 25  1  0  0  0  0
 17 25  1  0  0  0  0
 18 24  1  0  0  0  0
 18 25  1  0  0  0  0
 19 20  1  0  0  0  0
 21 22  1  0  0  0  0
 23 25  1  0  0  0  0
  2 26  1  0  0  0  0
  7 27  1  0  0  0  0
  8 28  1  0  0  0  0
  9 29  1  0  0  0  0
 10 30  1  0  0  0  0
 11 31  1  0  0  0  0
 12 32  1  0  0  0  0
 13 33  1  0  0  0  0
 14 34  1  0  0  0  0
 14 35  1  0  0  0  0
 15 36  1  0  0  0  0
 15 37  1  0  0  0  0
 16 38  1  0  0  0  0
 16 39  1  0  0  0  0
 17 40  1  0  0  0  0
 17 41  1  0  0  0  0
 18 42  1  0  0  0  0
 18 43  1  0  0  0  0
M  END
> <pdb_id>
4IJU

> <uniprot_id>
P28845

> <usmiles>
Fc1c(OC=2C3=NN=C(N3C=CC2)C45CC(O)(CC4)CC5)cccc1

$$$$
1EZ_A_303
          07192416293D 1   1.00000     0.00000     0
            
 48 51  0  0  0  0            999 V2000
   -5.8106    1.0630   16.7203 S   0  0  0  0  0  0  0  0  0  0  0  0
   -7.2448    1.2251   16.6609 O   0  0  0  0  0  0  0  0  0  0  0  0
   -5.3781    1.2252   18.1060 O   0  0  0  0  0  0  0  0  0  0  0  0
   -4.5569    6.6829   12.7929 O   0  0  0  0  0  0  0  0  0  0  0  0
   -5.3475   -0.4209   16.1589 N   0  0  0  0  0  0  0  0  0  0  0  0
   -2.9167    5.1463   13.4711 N   0  0  0  0  0  0  0  0  0  0  0  0
   -3.6715    2.2003   15.5245 C   0  0  0  0  0  0  0  0  0  0  0  0
   -5.7719    3.4015   15.2430 C   0  0  0  0  0  0  0  0  0  0  0  0
   -3.0007    3.1563   14.7707 C   0  0  0  0  0  0  0  0  0  0  0  0
   -5.0871    4.3674   14.4761 C   0  0  0  0  0  0  0  0  0  0  0  0
   -1.9911   10.4610   14.2856 C   0  0  0  0  0  0  0  0  0  0  0  0
   -0.8377   11.0898   12.1899 C   0  0  0  0  0  0  0  0  0  0  0  0
    0.2749    9.6189   13.8755 C   0  0  0  0  0  0  0  0  0  0  0  0
   -2.3372    7.0664   11.9843 C   0  0  0  0  0  0  0  0  0  0  0  0
   -2.7487    9.5589   12.4213 C   0  0  0  0  0  0  0  0  0  0  0  0
   -1.5722    8.2372   13.9680 C   0  0  0  0  0  0  0  0  0  0  0  0
   -0.3577    8.6546   11.9892 C   0  0  0  0  0  0  0  0  0  0  0  0
   -3.3913    6.3043   12.7718 C   0  0  0  0  0  0  0  0  0  0  0  0
   -5.0420    2.3314   15.7545 C   0  0  0  0  0  0  0  0  0  0  0  0
   -3.7066    4.2365   14.2591 C   0  0  0  0  0  0  0  0  0  0  0  0
   -2.1214   10.8528   12.8621 C   0  0  3  0  0  0  0  0  0  0  0  0
   -1.0137    9.3401   14.4842 C   0  0  3  0  0  0  0  0  0  0  0  0
    0.1535   10.0157   12.4529 C   0  0  3  0  0  0  0  0  0  0  0  0
   -1.7242    8.3604   12.5790 C   0  0  3  0  0  0  0  0  0  0  0  0
   -4.3523   -0.5020   16.2129 H   0  0  0  0  0  0  0  0  0  0  0  0
   -5.7709   -1.1352   16.7162 H   0  0  0  0  0  0  0  0  0  0  0  0
   -1.9382    4.9507   13.4049 H   0  0  0  0  0  0  0  0  0  0  0  0
   -3.1729    1.4198   15.9014 H   0  0  0  0  0  0  0  0  0  0  0  0
   -6.7537    3.4830   15.4145 H   0  0  0  0  0  0  0  0  0  0  0  0
   -2.0197    3.0669   14.5988 H   0  0  0  0  0  0  0  0  0  0  0  0
   -5.5841    5.1435   14.0880 H   0  0  0  0  0  0  0  0  0  0  0  0
   -2.8866   10.1693   14.6215 H   0  0  0  0  0  0  0  0  0  0  0  0
   -1.6807   11.2541   14.8097 H   0  0  0  0  0  0  0  0  0  0  0  0
   -0.4622   11.9581   12.5142 H   0  0  0  0  0  0  0  0  0  0  0  0
   -0.9977   11.1432   11.2042 H   0  0  0  0  0  0  0  0  0  0  0  0
    0.8415    8.7969   13.9324 H   0  0  0  0  0  0  0  0  0  0  0  0
    0.7142   10.3622   14.3799 H   0  0  0  0  0  0  0  0  0  0  0  0
   -2.7527    7.3171   11.1099 H   0  0  0  0  0  0  0  0  0  0  0  0
   -1.5800    6.4332   11.8241 H   0  0  0  0  0  0  0  0  0  0  0  0
   -3.0201    9.6352   11.4619 H   0  0  0  0  0  0  0  0  0  0  0  0
   -3.5561    9.3771   12.9826 H   0  0  0  0  0  0  0  0  0  0  0  0
   -2.4703    8.0983   14.3852 H   0  0  0  0  0  0  0  0  0  0  0  0
   -0.9876    7.4503   14.1655 H   0  0  0  0  0  0  0  0  0  0  0  0
    0.2848    7.9464   12.2820 H   0  0  0  0  0  0  0  0  0  0  0  0
   -0.4242    8.6524   10.9914 H   0  0  0  0  0  0  0  0  0  0  0  0
   -2.7467   11.6247   12.7470 H   0  0  0  0  0  0  0  0  0  0  0  0
   -0.8806    9.2018   15.4656 H   0  0  0  0  0  0  0  0  0  0  0  0
    1.0445   10.2305   12.0529 H   0  0  0  0  0  0  0  0  0  0  0  0
  1  2  2  0  0  0  0
  1  3  2  0  0  0  0
  1  5  1  0  0  0  0
  1 19  1  0  0  0  0
  4 18  2  0  0  0  0
  6 18  1  0  0  0  0
  6 20  1  0  0  0  0
  7  9  1  0  0  0  0
  7 19  2  0  0  0  0
  8 10  2  0  0  0  0
  8 19  1  0  0  0  0
  9 20  2  0  0  0  0
 10 20  1  0  0  0  0
 11 21  1  0  0  0  0
 11 22  1  0  0  0  0
 12 21  1  0  0  0  0
 12 23  1  0  0  0  0
 13 22  1  0  0  0  0
 13 23  1  0  0  0  0
 14 18  1  0  0  0  0
 14 24  1  0  0  0  0
 15 21  1  0  0  0  0
 15 24  1  0  0  0  0
 16 22  1  0  0  0  0
 16 24  1  0  0  0  0
 17 23  1  0  0  0  0
 17 24  1  0  0  0  0
  5 25  1  0  0  0  0
  5 26  1  0  0  0  0
  6 27  1  0  0  0  0
  7 28  1  0  0  0  0
  8 29  1  0  0  0  0
  9 30  1  0  0  0  0
 10 31  1  0  0  0  0
 11 32  1  0  0  0  0
 11 33  1  0  0  0  0
 12 34  1  0  0  0  0
 12 35  1  0  0  0  0
 13 36  1  0  0  0  0
 13 37  1  0  0  0  0
 14 38  1  0  0  0  0
 14 39  1  0  0  0  0
 15 40  1  0  0  0  0
 15 41  1  0  0  0  0
 16 42  1  0  0  0  0
 16 43  1  0  0  0  0
 17 44  1  0  0  0  0
 17 45  1  0  0  0  0
 21 46  1  0  0  0  0
 22 47  1  0  0  0  0
 23 48  1  0  0  0  0
M  END
> <pdb_id>
4ILX

> <uniprot_id>
P00918

> <usmiles>
S(=O)(=O)(N)c1ccc(NC(=O)CC23CC4CC(C2)CC(C3)C4)cc1

$$$$
1F1_A_502
          07202414513D 1   1.00000     0.00000     0
            
 19 20  0  0  0  0            999 V2000
    0.2253   13.9979  -22.4851 O   0  0  0  0  0  0  0  0  0  0  0  0
   -0.9714   13.2775  -24.1327 O   0  0  0  0  0  0  0  0  0  0  0  0
   -5.7518   14.8248  -22.5894 N   0  0  0  0  0  0  0  0  0  0  0  0
   -6.5564   15.6297  -21.7512 C   0  0  0  0  0  0  0  0  0  0  0  0
   -5.5637   16.3087  -20.8341 C   0  0  0  0  0  0  0  0  0  0  0  0
   -3.0811   16.1422  -20.7416 C   0  0  0  0  0  0  0  0  0  0  0  0
   -1.9296   15.5530  -21.2767 C   0  0  0  0  0  0  0  0  0  0  0  0
   -3.4273   14.2641  -22.8605 C   0  0  0  0  0  0  0  0  0  0  0  0
   -0.9165   13.8978  -23.0148 C   0  0  0  0  0  0  0  0  0  0  0  0
   -4.4473   14.9380  -22.3134 C   0  0  0  0  0  0  0  0  0  0  0  0
   -4.2576   15.8083  -21.3281 C   0  0  0  0  0  0  0  0  0  0  0  0
   -2.1159   14.5586  -22.3570 C   0  0  0  0  0  0  0  0  0  0  0  0
    0.3311   14.4720  -21.6110 H   0  0  0  0  0  0  0  0  0  0  0  0
   -6.1173   14.2353  -23.3097 H   0  0  0  0  0  0  0  0  0  0  0  0
   -7.5515   15.7276  -21.7620 H   0  0  0  0  0  0  0  0  0  0  0  0
   -5.7437   16.9401  -20.0798 H   0  0  0  0  0  0  0  0  0  0  0  0
   -3.0386   16.7752  -19.9686 H   0  0  0  0  0  0  0  0  0  0  0  0
   -1.0184   15.7941  -20.9427 H   0  0  0  0  0  0  0  0  0  0  0  0
   -3.5722   13.5892  -23.5840 H   0  0  0  0  0  0  0  0  0  0  0  0
  1  9  1  0  0  0  0
  2  9  2  0  0  0  0
  3  4  1  0  0  0  0
  3 10  1  0  0  0  0
  4  5  2  0  0  0  0
  5 11  1  0  0  0  0
  6  7  1  0  0  0  0
  6 11  2  0  0  0  0
  7 12  2  0  0  0  0
  8 10  2  0  0  0  0
  8 12  1  0  0  0  0
  9 12  1  0  0  0  0
 10 11  1  0  0  0  0
  1 13  1  0  0  0  0
  3 14  1  0  0  0  0
  4 15  1  0  0  0  0
  5 16  1  0  0  0  0
  6 17  1  0  0  0  0
  7 18  1  0  0  0  0
  8 19  1  0  0  0  0
M  END
> <pdb_id>
4EGO

> <uniprot_id>
Q2IU02

> <usmiles>
O=C(O)c1cc2NC=Cc2cc1

$$$$
1F1_B_201
          07202414523D 1   1.00000     0.00000     0
            
 19 20  0  0  0  0            999 V2000
    9.2698   22.7465   25.3272 O   0  0  0  0  0  0  0  0  0  0  0  0
    9.0703   20.6359   24.7036 O   0  0  0  0  0  0  0  0  0  0  0  0
   13.6801   19.7440   22.4240 N   0  0  0  0  0  0  0  0  0  0  0  0
   14.7399   20.3314   21.8268 C   0  0  0  0  0  0  0  0  0  0  0  0
   14.5917   21.7085   21.9252 C   0  0  0  0  0  0  0  0  0  0  0  0
   12.7595   23.1212   22.9539 C   0  0  0  0  0  0  0  0  0  0  0  0
   11.5532   23.0049   23.6259 C   0  0  0  0  0  0  0  0  0  0  0  0
   11.6465   20.5755   23.5747 C   0  0  0  0  0  0  0  0  0  0  0  0
    9.7173   21.6809   24.6763 C   0  0  0  0  0  0  0  0  0  0  0  0
   12.8519   20.6957   22.8936 C   0  0  0  0  0  0  0  0  0  0  0  0
   13.4004   21.9429   22.5944 C   0  0  0  0  0  0  0  0  0  0  0  0
   11.0097   21.7568   23.9381 C   0  0  0  0  0  0  0  0  0  0  0  0
    9.7916   23.5993   25.3087 H   0  0  0  0  0  0  0  0  0  0  0  0
   13.5339   18.7580   22.5045 H   0  0  0  0  0  0  0  0  0  0  0  0
   15.5021   19.8551   21.3882 H   0  0  0  0  0  0  0  0  0  0  0  0
   15.2248   22.4006   21.5786 H   0  0  0  0  0  0  0  0  0  0  0  0
   13.1517   24.0152   22.7372 H   0  0  0  0  0  0  0  0  0  0  0  0
   11.0608   23.8332   23.8932 H   0  0  0  0  0  0  0  0  0  0  0  0
   11.2555   19.6814   23.7931 H   0  0  0  0  0  0  0  0  0  0  0  0
  1  9  1  0  0  0  0
  2  9  2  0  0  0  0
  3  4  1  0  0  0  0
  3 10  1  0  0  0  0
  4  5  2  0  0  0  0
  5 11  1  0  0  0  0
  6  7  1  0  0  0  0
  6 11  2  0  0  0  0
  7 12  2  0  0  0  0
  8 10  2  0  0  0  0
  8 12  1  0  0  0  0
  9 12  1  0  0  0  0
 10 11  1  0  0  0  0
  1 13  1  0  0  0  0
  3 14  1  0  0  0  0
  4 15  1  0  0  0  0
  5 16  1  0  0  0  0
  6 17  1  0  0  0  0
  7 18  1  0  0  0  0
  8 19  1  0  0  0  0
M  END
> <pdb_id>
3KFR

> <uniprot_id>
Q903N5

> <usmiles>
O=C(O)c1cc2NC=Cc2cc1

$$$$
1F1_B_502
          07202414513D 1   1.00000     0.00000     0
            
 21 22  0  0  0  0            999 V2000
   -1.0467   13.2454  -24.0961 O   0  0  0  0  0  0  0  0  0  0  0  0
    0.1703   13.9726  -22.4555 O   0  0  0  0  0  0  0  0  0  0  0  0
   -5.7077   14.8911  -22.6113 N   0  0  0  0  0  0  0  0  0  0  0  0
   -6.5532   15.6923  -21.7366 C   0  0  0  0  0  0  0  0  0  0  0  0
   -5.6216   16.4170  -20.8013 C   0  0  0  0  0  0  0  0  0  0  0  0
   -3.0197   16.1575  -20.6959 C   0  0  0  0  0  0  0  0  0  0  0  0
   -1.9219   15.5454  -21.3241 C   0  0  0  0  0  0  0  0  0  0  0  0
   -3.4482   14.3559  -22.8713 C   0  0  0  0  0  0  0  0  0  0  0  0
   -0.9584   13.9237  -23.0215 C   0  0  0  0  0  0  0  0  0  0  0  0
   -4.4606   14.9885  -22.2736 C   0  0  0  0  0  0  0  0  0  0  0  0
   -4.2806   15.8591  -21.2156 C   0  0  0  0  0  0  0  0  0  0  0  0
   -2.1633   14.6039  -22.3921 C   0  0  0  0  0  0  0  0  0  0  0  0
   -1.9217   13.1805  -24.5760 H   0  0  0  0  0  0  0  0  0  0  0  0
   -6.0456   14.3382  -23.3729 H   0  0  0  0  0  0  0  0  0  0  0  0
   -7.1743   15.1031  -21.2198 H   0  0  0  0  0  0  0  0  0  0  0  0
   -7.0847   16.3477  -22.2733 H   0  0  0  0  0  0  0  0  0  0  0  0
   -5.8258   16.2043  -19.8457 H   0  0  0  0  0  0  0  0  0  0  0  0
   -5.6634   17.4066  -20.9389 H   0  0  0  0  0  0  0  0  0  0  0  0
   -2.9038   16.7745  -19.9175 H   0  0  0  0  0  0  0  0  0  0  0  0
   -0.9883   15.7583  -21.0361 H   0  0  0  0  0  0  0  0  0  0  0  0
   -3.6058   13.7282  -23.6337 H   0  0  0  0  0  0  0  0  0  0  0  0
  1  9  1  0  0  0  0
  2  9  2  0  0  0  0
  3  4  1  0  0  0  0
  3 10  1  0  0  0  0
  4  5  1  0  0  0  0
  5 11  1  0  0  0  0
  6  7  1  0  0  0  0
  6 11  2  0  0  0  0
  7 12  2  0  0  0  0
  8 10  2  0  0  0  0
  8 12  1  0  0  0  0
  9 12  1  0  0  0  0
 10 11  1  0  0  0  0
  1 13  1  0  0  0  0
  3 14  1  0  0  0  0
  4 15  1  0  0  0  0
  4 16  1  0  0  0  0
  5 17  1  0  0  0  0
  5 18  1  0  0  0  0
  6 19  1  0  0  0  0
  7 20  1  0  0  0  0
  8 21  1  0  0  0  0
M  END
> <pdb_id>
4EGO

> <uniprot_id>
Q2IU02

> <usmiles>
O=C(O)c1cc2NCCc2cc1

$$$$
1GO_A_301
          07192416293D 1   1.00000     0.00000     0
            
 26 27  0  0  0  0            999 V2000
   -5.9638    6.7053    9.7533 S   0  0  0  0  0  0  0  0  0  0  0  0
   -5.8472    3.4811   15.0055 S   0  0  0  0  0  0  0  0  0  0  0  0
   -5.8119    0.9402   16.7753 S   0  0  0  0  0  0  0  0  0  0  0  0
   -5.4217    1.0718   18.1659 O   0  0  0  0  0  0  0  0  0  0  0  0
   -7.2391    1.1457   16.6533 O   0  0  0  0  0  0  0  0  0  0  0  0
   -6.3413    5.6830   13.3544 O   0  0  0  0  0  0  0  0  0  0  0  0
   -5.3312   -0.4888   16.1555 N   0  0  0  0  0  0  0  0  0  0  0  0
   -3.7312    2.3492   15.7372 N   0  0  0  0  0  0  0  0  0  0  0  0
   -3.3472    3.3995   14.9870 N   0  0  0  0  0  0  0  0  0  0  0  0
   -4.0928    5.2875   13.6873 N   0  0  0  0  0  0  0  0  0  0  0  0
   -7.4404    7.4135    9.2402 C   0  0  0  0  0  0  0  0  0  0  0  0
   -7.9116    8.1822   10.2952 C   0  0  0  0  0  0  0  0  0  0  0  0
   -7.1327    8.1932   11.4469 C   0  0  0  0  0  0  0  0  0  0  0  0
   -4.9106    7.1761   12.3008 C   0  0  0  0  0  0  0  0  0  0  0  0
   -5.0571    2.2173   15.8651 C   0  0  0  0  0  0  0  0  0  0  0  0
   -4.3358    4.1466   14.4989 C   0  0  0  0  0  0  0  0  0  0  0  0
   -5.9801    7.4091   11.3090 C   0  0  0  0  0  0  0  0  0  0  0  0
   -5.1815    6.0024   13.1436 C   0  0  0  0  0  0  0  0  0  0  0  0
   -5.6143   -0.5491   15.1983 H   0  0  0  0  0  0  0  0  0  0  0  0
   -4.3354   -0.5594   16.2137 H   0  0  0  0  0  0  0  0  0  0  0  0
   -3.1553    5.5824   13.5024 H   0  0  0  0  0  0  0  0  0  0  0  0
   -7.8786    7.2946    8.3493 H   0  0  0  0  0  0  0  0  0  0  0  0
   -8.7647    8.6999   10.2306 H   0  0  0  0  0  0  0  0  0  0  0  0
   -7.3676    8.7009   12.2758 H   0  0  0  0  0  0  0  0  0  0  0  0
   -4.8335    7.9826   12.8869 H   0  0  0  0  0  0  0  0  0  0  0  0
   -4.0477    7.0324   11.8162 H   0  0  0  0  0  0  0  0  0  0  0  0
  1 11  1  0  0  0  0
  1 17  1  0  0  0  0
  2 15  1  0  0  0  0
  2 16  1  0  0  0  0
  3  4  2  0  0  0  0
  3  5  2  0  0  0  0
  3  7  1  0  0  0  0
  3 15  1  0  0  0  0
  6 18  2  0  0  0  0
  8  9  1  0  0  0  0
  8 15  2  0  0  0  0
  9 16  2  0  0  0  0
 10 16  1  0  0  0  0
 10 18  1  0  0  0  0
 11 12  2  0  0  0  0
 12 13  1  0  0  0  0
 13 17  2  0  0  0  0
 14 17  1  0  0  0  0
 14 18  1  0  0  0  0
  7 19  1  0  0  0  0
  7 20  1  0  0  0  0
 10 21  1  0  0  0  0
 11 22  1  0  0  0  0
 12 23  1  0  0  0  0
 13 24  1  0  0  0  0
 14 25  1  0  0  0  0
 14 26  1  0  0  0  0
M  END
> <pdb_id>
4IWZ

> <uniprot_id>
P00918

> <usmiles>
S(=O)(=O)(N)C=1SC(=NN1)NC(=O)CC=2SC=CC2

$$$$
1H2_A_205
          07212401333D 1   1.00000     0.00000     0
            
 39 41  0  0  0  0            999 V2000
  -14.0218  -17.5447  -20.3395 O   0  0  0  0  0  0  0  0  0  0  0  0
  -12.8057  -22.5375  -17.5724 O   0  0  0  0  0  0  0  0  0  0  0  0
  -16.1559  -23.5789  -23.1232 O   0  0  0  0  0  0  0  0  0  0  0  0
  -17.2687  -22.6171  -23.1954 N   0  0  0  0  0  0  0  0  0  0  0  0
  -13.8885  -23.5774  -22.0392 C   0  0  0  0  0  0  0  0  0  0  0  0
  -17.7864  -20.2697  -22.2244 C   0  0  0  0  0  0  0  0  0  0  0  0
  -16.9082  -21.9596  -14.5981 C   0  0  0  0  0  0  0  0  0  0  0  0
  -16.7113  -20.7391  -15.2037 C   0  0  0  0  0  0  0  0  0  0  0  0
  -16.0613  -23.0593  -14.9045 C   0  0  0  0  0  0  0  0  0  0  0  0
  -15.6406  -20.5264  -16.0961 C   0  0  0  0  0  0  0  0  0  0  0  0
  -14.9836  -22.8681  -15.8352 C   0  0  0  0  0  0  0  0  0  0  0  0
  -13.7491  -19.3668  -18.8807 C   0  0  0  0  0  0  0  0  0  0  0  0
  -14.8336  -19.6289  -21.0826 C   0  0  0  0  0  0  0  0  0  0  0  0
  -14.5984  -21.5232  -19.6189 C   0  0  0  0  0  0  0  0  0  0  0  0
  -14.1971  -18.8342  -20.1078 C   0  0  0  0  0  0  0  0  0  0  0  0
  -15.2238  -22.9598  -22.2624 C   0  0  0  0  0  0  0  0  0  0  0  0
  -13.5248  -21.3270  -17.3002 C   0  0  2  0  0  0  0  0  0  0  0  0
  -16.9702  -21.5244  -22.4091 C   0  0  0  0  0  0  0  0  0  0  0  0
  -14.7575  -21.5919  -16.4175 C   0  0  0  0  0  0  0  0  0  0  0  0
  -13.9468  -20.7129  -18.6497 C   0  0  0  0  0  0  0  0  0  0  0  0
  -15.0372  -20.9521  -20.8135 C   0  0  0  0  0  0  0  0  0  0  0  0
  -15.6982  -21.7788  -21.8127 C   0  0  0  0  0  0  0  0  0  0  0  0
  -14.3313  -17.1451  -21.2024 H   0  0  0  0  0  0  0  0  0  0  0  0
  -12.0129  -22.3324  -18.1463 H   0  0  0  0  0  0  0  0  0  0  0  0
  -13.3607  -23.0106  -21.4066 H   0  0  0  0  0  0  0  0  0  0  0  0
  -14.0048  -24.4913  -21.6503 H   0  0  0  0  0  0  0  0  0  0  0  0
  -13.4028  -23.6452  -22.9106 H   0  0  0  0  0  0  0  0  0  0  0  0
  -17.3140  -19.6547  -21.5931 H   0  0  0  0  0  0  0  0  0  0  0  0
  -17.9036  -19.8153  -23.1075 H   0  0  0  0  0  0  0  0  0  0  0  0
  -18.6828  -20.5073  -21.8502 H   0  0  0  0  0  0  0  0  0  0  0  0
  -17.6515  -22.0732  -13.9389 H   0  0  0  0  0  0  0  0  0  0  0  0
  -17.3408  -19.9876  -15.0064 H   0  0  0  0  0  0  0  0  0  0  0  0
  -16.2131  -23.9515  -14.4792 H   0  0  0  0  0  0  0  0  0  0  0  0
  -15.5026  -19.6237  -16.5036 H   0  0  0  0  0  0  0  0  0  0  0  0
  -14.3900  -23.6366  -16.0742 H   0  0  0  0  0  0  0  0  0  0  0  0
  -13.3022  -18.7870  -18.1994 H   0  0  0  0  0  0  0  0  0  0  0  0
  -15.1294  -19.2326  -21.9517 H   0  0  0  0  0  0  0  0  0  0  0  0
  -14.7414  -22.4976  -19.4453 H   0  0  0  0  0  0  0  0  0  0  0  0
  -12.9181  -20.6877  -16.8278 H   0  0  0  0  0  0  0  0  0  0  0  0
  1 15  1  0  0  0  0
  2 17  1  0  0  0  0
  3  4  1  0  0  0  0
  3 16  1  0  0  0  0
  4 18  2  0  0  0  0
  5 16  1  0  0  0  0
  6 18  1  0  0  0  0
  7  8  2  0  0  0  0
  7  9  1  0  0  0  0
  8 10  1  0  0  0  0
  9 11  2  0  0  0  0
 10 19  2  0  0  0  0
 11 19  1  0  0  0  0
 12 15  2  0  0  0  0
 12 20  1  0  0  0  0
 13 15  1  0  0  0  0
 13 21  2  0  0  0  0
 14 20  2  0  0  0  0
 14 21  1  0  0  0  0
 16 22  2  0  0  0  0
 17 19  1  0  0  0  0
 17 20  1  0  0  0  0
 18 22  1  0  0  0  0
 21 22  1  0  0  0  0
  1 23  1  0  0  0  0
  2 24  1  0  0  0  0
  5 25  1  0  0  0  0
  5 26  1  0  0  0  0
  5 27  1  0  0  0  0
  6 28  1  0  0  0  0
  6 29  1  0  0  0  0
  6 30  1  0  0  0  0
  7 31  1  0  0  0  0
  8 32  1  0  0  0  0
  9 33  1  0  0  0  0
 10 34  1  0  0  0  0
 11 35  1  0  0  0  0
 12 36  1  0  0  0  0
 13 37  1  0  0  0  0
 14 38  1  0  0  0  0
 17 39  1  0  0  0  0
M  END
> <pdb_id>
4J0R

> <uniprot_id>
O60885

> <usmiles>
O1N=C(C(c2cc(O)cc(c2)[C@H](O)c3ccccc3)=C1C)C

$$$$
1H3_A_205
          07212401333D 1   1.00000     0.00000     0
            
 39 41  0  0  0  0            999 V2000
  -14.0339  -17.6624  -20.2994 O   0  0  0  0  0  0  0  0  0  0  0  0
  -12.4155  -20.8929  -16.9164 O   0  0  0  0  0  0  0  0  0  0  0  0
  -16.2070  -23.6029  -23.2073 O   0  0  0  0  0  0  0  0  0  0  0  0
  -17.2625  -22.6708  -23.3178 N   0  0  0  0  0  0  0  0  0  0  0  0
  -13.9948  -23.8407  -22.2854 C   0  0  0  0  0  0  0  0  0  0  0  0
  -17.8694  -20.3569  -22.5338 C   0  0  0  0  0  0  0  0  0  0  0  0
  -16.8102  -21.9370  -14.7631 C   0  0  0  0  0  0  0  0  0  0  0  0
  -16.5591  -20.7538  -15.3778 C   0  0  0  0  0  0  0  0  0  0  0  0
  -16.0059  -23.0080  -14.9927 C   0  0  0  0  0  0  0  0  0  0  0  0
  -15.4778  -20.6546  -16.2284 C   0  0  0  0  0  0  0  0  0  0  0  0
  -14.9260  -22.9206  -15.8674 C   0  0  0  0  0  0  0  0  0  0  0  0
  -13.7970  -19.5638  -18.9104 C   0  0  0  0  0  0  0  0  0  0  0  0
  -14.8726  -19.6612  -21.1385 C   0  0  0  0  0  0  0  0  0  0  0  0
  -14.6790  -21.6564  -19.7470 C   0  0  0  0  0  0  0  0  0  0  0  0
  -14.2340  -18.9603  -20.1446 C   0  0  0  0  0  0  0  0  0  0  0  0
  -15.2835  -23.0758  -22.4155 C   0  0  0  0  0  0  0  0  0  0  0  0
  -13.5265  -21.5939  -17.4524 C   0  0  1  0  0  0  0  0  0  0  0  0
  -17.0114  -21.5865  -22.5926 C   0  0  0  0  0  0  0  0  0  0  0  0
  -14.6645  -21.7192  -16.4855 C   0  0  0  0  0  0  0  0  0  0  0  0
  -14.0044  -20.8975  -18.7329 C   0  0  0  0  0  0  0  0  0  0  0  0
  -15.1171  -21.0308  -20.9306 C   0  0  0  0  0  0  0  0  0  0  0  0
  -15.7452  -21.8230  -21.9426 C   0  0  0  0  0  0  0  0  0  0  0  0
  -14.3237  -17.2089  -21.1422 H   0  0  0  0  0  0  0  0  0  0  0  0
  -11.6910  -20.8411  -17.6037 H   0  0  0  0  0  0  0  0  0  0  0  0
  -13.3781  -23.3523  -21.6681 H   0  0  0  0  0  0  0  0  0  0  0  0
  -14.1833  -24.7510  -21.9168 H   0  0  0  0  0  0  0  0  0  0  0  0
  -13.5664  -23.9274  -23.1848 H   0  0  0  0  0  0  0  0  0  0  0  0
  -17.4547  -19.6905  -21.9141 H   0  0  0  0  0  0  0  0  0  0  0  0
  -17.9455  -19.9595  -23.4482 H   0  0  0  0  0  0  0  0  0  0  0  0
  -18.7797  -20.6013  -22.1997 H   0  0  0  0  0  0  0  0  0  0  0  0
  -17.5881  -22.0211  -14.1403 H   0  0  0  0  0  0  0  0  0  0  0  0
  -17.1505  -19.9637  -15.2162 H   0  0  0  0  0  0  0  0  0  0  0  0
  -16.1925  -23.8725  -14.5260 H   0  0  0  0  0  0  0  0  0  0  0  0
  -15.2846  -19.7778  -16.6689 H   0  0  0  0  0  0  0  0  0  0  0  0
  -14.3495  -23.7184  -16.0437 H   0  0  0  0  0  0  0  0  0  0  0  0
  -13.3524  -19.0159  -18.2017 H   0  0  0  0  0  0  0  0  0  0  0  0
  -15.1554  -19.2108  -21.9854 H   0  0  0  0  0  0  0  0  0  0  0  0
  -14.8390  -22.6343  -19.6126 H   0  0  0  0  0  0  0  0  0  0  0  0
  -13.2235  -22.5154  -17.6954 H   0  0  0  0  0  0  0  0  0  0  0  0
  1 15  1  0  0  0  0
  2 17  1  0  0  0  0
  3  4  1  0  0  0  0
  3 16  1  0  0  0  0
  4 18  2  0  0  0  0
  5 16  1  0  0  0  0
  6 18  1  0  0  0  0
  7  8  2  0  0  0  0
  7  9  1  0  0  0  0
  8 10  1  0  0  0  0
  9 11  2  0  0  0  0
 10 19  2  0  0  0  0
 11 19  1  0  0  0  0
 12 15  2  0  0  0  0
 12 20  1  0  0  0  0
 13 15  1  0  0  0  0
 13 21  2  0  0  0  0
 14 20  2  0  0  0  0
 14 21  1  0  0  0  0
 16 22  2  0  0  0  0
 17 19  1  0  0  0  0
 17 20  1  0  0  0  0
 18 22  1  0  0  0  0
 21 22  1  0  0  0  0
  1 23  1  0  0  0  0
  2 24  1  0  0  0  0
  5 25  1  0  0  0  0
  5 26  1  0  0  0  0
  5 27  1  0  0  0  0
  6 28  1  0  0  0  0
  6 29  1  0  0  0  0
  6 30  1  0  0  0  0
  7 31  1  0  0  0  0
  8 32  1  0  0  0  0
  9 33  1  0  0  0  0
 10 34  1  0  0  0  0
 11 35  1  0  0  0  0
 12 36  1  0  0  0  0
 13 37  1  0  0  0  0
 14 38  1  0  0  0  0
 17 39  1  0  0  0  0
M  END
> <pdb_id>
4J0S

> <uniprot_id>
O60885

> <usmiles>
O1N=C(C(c2cc(O)cc(c2)[C@@H](O)c3ccccc3)=C1C)C

$$$$
1H5_A_504
          07202405583D 1   1.00000     0.00000     0
            
 42 44  0  0  0  0            999 V2000
   66.7463   51.3012    9.5318 F   0  0  0  0  0  0  0  0  0  0  0  0
   70.1177   50.0722   10.6438 F   0  0  0  0  0  0  0  0  0  0  0  0
   66.3213   48.7962   10.3741 F   0  0  0  0  0  0  0  0  0  0  0  0
   73.4854   47.2689    6.1072 O   0  0  0  0  0  0  0  0  0  0  0  0
   66.5484   47.1581    8.2140 O   0  0  0  0  0  0  0  0  0  0  0  0
   71.6737   44.0924   -0.4791 N   0  0  0  0  0  0  0  0  0  0  0  0
   65.5821   48.2822    6.5121 N   0  0  0  0  0  0  0  0  0  0  0  0
   71.2856   46.8152    3.4203 N   0  0  0  0  0  0  0  0  0  0  0  0
   71.3611   47.8788    5.8427 N   0  0  0  0  0  0  0  0  0  0  0  0
   67.1188   49.4202    7.7744 N   0  0  0  0  0  0  0  0  0  0  0  0
   68.0762   50.9619    9.3128 C   0  0  0  0  0  0  0  0  0  0  0  0
   67.3952   47.0663    9.3739 C   0  0  0  0  0  0  0  0  0  0  0  0
   71.8065   44.6270    0.5273 C   0  0  0  0  0  0  0  0  0  0  0  0
   71.0642   46.2303    2.2491 C   0  0  0  0  0  0  0  0  0  0  0  0
   71.7948   49.3109    9.1629 C   0  0  0  0  0  0  0  0  0  0  0  0
   72.1531   48.7574    7.9724 C   0  0  0  0  0  0  0  0  0  0  0  0
   73.2019   44.9929    2.5668 C   0  0  0  0  0  0  0  0  0  0  0  0
   73.3924   45.6598    3.7641 C   0  0  0  0  0  0  0  0  0  0  0  0
   69.8231   48.7320    7.3179 C   0  0  0  0  0  0  0  0  0  0  0  0
   66.4621   48.3167    7.5490 C   0  0  0  0  0  0  0  0  0  0  0  0
   70.4687   49.5858    9.4265 C   0  0  0  0  0  0  0  0  0  0  0  0
   67.5939   48.4730    9.9457 C   0  0  1  0  0  0  0  0  0  0  0  0
   72.4874   47.2752    5.4349 C   0  0  0  0  0  0  0  0  0  0  0  0
   71.1384   48.4968    7.0435 C   0  0  0  0  0  0  0  0  0  0  0  0
   72.0112   45.2865    1.7933 C   0  0  0  0  0  0  0  0  0  0  0  0
   72.3997   46.5935    4.1379 C   0  0  0  0  0  0  0  0  0  0  0  0
   69.4825   49.2690    8.5206 C   0  0  0  0  0  0  0  0  0  0  0  0
   68.0602   49.5179    8.8666 C   0  0  1  0  0  0  0  0  0  0  0  0
   65.4411   49.0962    5.9487 H   0  0  0  0  0  0  0  0  0  0  0  0
   65.0763   47.4428    6.3134 H   0  0  0  0  0  0  0  0  0  0  0  0
   70.5980   47.8772    5.1964 H   0  0  0  0  0  0  0  0  0  0  0  0
   68.6049   51.0608   10.1558 H   0  0  0  0  0  0  0  0  0  0  0  0
   68.4718   51.5426    8.6012 H   0  0  0  0  0  0  0  0  0  0  0  0
   68.2804   46.6795    9.1152 H   0  0  0  0  0  0  0  0  0  0  0  0
   66.9637   46.4812   10.0607 H   0  0  0  0  0  0  0  0  0  0  0  0
   70.2532   46.4507    1.7072 H   0  0  0  0  0  0  0  0  0  0  0  0
   72.4935   49.5186    9.8475 H   0  0  0  0  0  0  0  0  0  0  0  0
   73.1085   48.5442    7.7680 H   0  0  0  0  0  0  0  0  0  0  0  0
   73.8703   44.3236    2.2424 H   0  0  0  0  0  0  0  0  0  0  0  0
   74.1940   45.4894    4.3372 H   0  0  0  0  0  0  0  0  0  0  0  0
   69.1181   48.5126    6.6435 H   0  0  0  0  0  0  0  0  0  0  0  0
   68.2310   48.4537   10.7162 H   0  0  0  0  0  0  0  0  0  0  0  0
  1 11  1  0  0  0  0
  2 21  1  0  0  0  0
  3 22  1  0  0  0  0
  4 23  2  0  0  0  0
  5 12  1  0  0  0  0
  5 20  1  0  0  0  0
  6 13  3  0  0  0  0
  7 20  1  0  0  0  0
  8 14  1  0  0  0  0
  8 26  2  0  0  0  0
  9 23  1  0  0  0  0
  9 24  1  0  0  0  0
 10 20  2  0  0  0  0
 10 28  1  0  0  0  0
 11 28  1  0  0  0  0
 12 22  1  0  0  0  0
 13 25  1  0  0  0  0
 14 25  2  0  0  0  0
 15 16  1  0  0  0  0
 15 21  2  0  0  0  0
 16 24  2  0  0  0  0
 17 18  2  0  0  0  0
 17 25  1  0  0  0  0
 18 26  1  0  0  0  0
 19 24  1  0  0  0  0
 19 27  2  0  0  0  0
 21 27  1  0  0  0  0
 22 28  1  0  0  0  0
 23 26  1  0  0  0  0
 27 28  1  0  0  0  0
  7 29  1  0  0  0  0
  7 30  1  0  0  0  0
  9 31  1  0  0  0  0
 11 32  1  0  0  0  0
 11 33  1  0  0  0  0
 12 34  1  0  0  0  0
 12 35  1  0  0  0  0
 14 36  1  0  0  0  0
 15 37  1  0  0  0  0
 16 38  1  0  0  0  0
 17 39  1  0  0  0  0
 18 40  1  0  0  0  0
 19 41  1  0  0  0  0
 22 42  1  0  0  0  0
M  END
> <pdb_id>
4J0Z

> <uniprot_id>
P56817

> <usmiles>
Fc1c(cc(NC(=O)c2ncc(C#N)cc2)cc1)[C@]3(N=C(OC[C@@H]3F)N)CF

$$$$
1H6_A_504
          07202405583D 1   1.00000     0.00000     0
            
 42 44  0  0  0  0            999 V2000
   69.9863   50.4440   10.7091 F   0  0  0  0  0  0  0  0  0  0  0  0
   68.4333   48.1274   10.7728 F   0  0  0  0  0  0  0  0  0  0  0  0
   73.3073   47.4046    6.0329 O   0  0  0  0  0  0  0  0  0  0  0  0
   66.0417   47.3097    8.3665 O   0  0  0  0  0  0  0  0  0  0  0  0
   71.6165   44.0448   -0.4172 N   0  0  0  0  0  0  0  0  0  0  0  0
   65.5252   48.2617    6.3020 N   0  0  0  0  0  0  0  0  0  0  0  0
   71.1503   46.8835    3.3519 N   0  0  0  0  0  0  0  0  0  0  0  0
   71.1235   47.9491    5.8268 N   0  0  0  0  0  0  0  0  0  0  0  0
   66.9167   49.4010    7.8065 N   0  0  0  0  0  0  0  0  0  0  0  0
   67.4357   50.9047    9.6135 C   0  0  0  0  0  0  0  0  0  0  0  0
   67.1226   47.0681    9.2747 C   0  0  0  0  0  0  0  0  0  0  0  0
   71.7427   44.5862    0.5586 C   0  0  0  0  0  0  0  0  0  0  0  0
   70.9684   46.2206    2.2216 C   0  0  0  0  0  0  0  0  0  0  0  0
   71.6490   49.6650    9.1171 C   0  0  0  0  0  0  0  0  0  0  0  0
   71.9696   49.0413    7.8753 C   0  0  0  0  0  0  0  0  0  0  0  0
   73.1480   45.6804    3.8269 C   0  0  0  0  0  0  0  0  0  0  0  0
   73.0430   44.9889    2.6299 C   0  0  0  0  0  0  0  0  0  0  0  0
   69.5795   48.7914    7.4398 C   0  0  0  0  0  0  0  0  0  0  0  0
   66.1923   48.3269    7.5317 C   0  0  0  0  0  0  0  0  0  0  0  0
   72.2526   47.3261    5.4251 C   0  0  0  0  0  0  0  0  0  0  0  0
   70.2944   49.8447    9.5018 C   0  0  0  0  0  0  0  0  0  0  0  0
   67.3951   48.3586   10.0363 C   0  0  2  0  0  0  0  0  0  0  0  0
   70.9072   48.6136    7.0456 C   0  0  0  0  0  0  0  0  0  0  0  0
   72.1928   46.6338    4.1467 C   0  0  0  0  0  0  0  0  0  0  0  0
   71.9000   45.2632    1.8054 C   0  0  0  0  0  0  0  0  0  0  0  0
   69.2449   49.4454    8.6121 C   0  0  0  0  0  0  0  0  0  0  0  0
   67.7462   49.5501    9.0066 C   0  0  1  0  0  0  0  0  0  0  0  0
   65.6139   49.0101    5.6448 H   0  0  0  0  0  0  0  0  0  0  0  0
   64.9601   47.4667    6.0813 H   0  0  0  0  0  0  0  0  0  0  0  0
   70.3564   47.9360    5.1854 H   0  0  0  0  0  0  0  0  0  0  0  0
   67.9882   51.0357   10.4367 H   0  0  0  0  0  0  0  0  0  0  0  0
   67.6485   51.6233    8.9514 H   0  0  0  0  0  0  0  0  0  0  0  0
   66.4657   50.9484    9.8527 H   0  0  0  0  0  0  0  0  0  0  0  0
   67.9391   46.7956    8.7657 H   0  0  0  0  0  0  0  0  0  0  0  0
   66.8716   46.3425    9.9155 H   0  0  0  0  0  0  0  0  0  0  0  0
   70.1606   46.4047    1.6616 H   0  0  0  0  0  0  0  0  0  0  0  0
   72.3827   49.9775    9.7204 H   0  0  0  0  0  0  0  0  0  0  0  0
   72.9214   48.9098    7.5982 H   0  0  0  0  0  0  0  0  0  0  0  0
   73.9048   45.4937    4.4533 H   0  0  0  0  0  0  0  0  0  0  0  0
   73.7367   44.3246    2.3514 H   0  0  0  0  0  0  0  0  0  0  0  0
   68.8488   48.4355    6.8573 H   0  0  0  0  0  0  0  0  0  0  0  0
   66.6092   48.6046   10.6037 H   0  0  0  0  0  0  0  0  0  0  0  0
  1 21  1  0  0  0  0
  2 22  1  0  0  0  0
  3 20  2  0  0  0  0
  4 11  1  0  0  0  0
  4 19  1  0  0  0  0
  5 12  3  0  0  0  0
  6 19  1  0  0  0  0
  7 13  1  0  0  0  0
  7 24  2  0  0  0  0
  8 20  1  0  0  0  0
  8 23  1  0  0  0  0
  9 19  2  0  0  0  0
  9 27  1  0  0  0  0
 10 27  1  0  0  0  0
 11 22  1  0  0  0  0
 12 25  1  0  0  0  0
 13 25  2  0  0  0  0
 14 15  1  0  0  0  0
 14 21  2  0  0  0  0
 15 23  2  0  0  0  0
 16 17  2  0  0  0  0
 16 24  1  0  0  0  0
 17 25  1  0  0  0  0
 18 23  1  0  0  0  0
 18 26  2  0  0  0  0
 20 24  1  0  0  0  0
 21 26  1  0  0  0  0
 22 27  1  0  0  0  0
 26 27  1  0  0  0  0
  6 28  1  0  0  0  0
  6 29  1  0  0  0  0
  8 30  1  0  0  0  0
 10 31  1  0  0  0  0
 10 32  1  0  0  0  0
 10 33  1  0  0  0  0
 11 34  1  0  0  0  0
 11 35  1  0  0  0  0
 13 36  1  0  0  0  0
 14 37  1  0  0  0  0
 15 38  1  0  0  0  0
 16 39  1  0  0  0  0
 17 40  1  0  0  0  0
 18 41  1  0  0  0  0
 22 42  1  0  0  0  0
M  END
> <pdb_id>
4J0Y

> <uniprot_id>
P56817

> <usmiles>
Fc1c(cc(NC(=O)c2ncc(C#N)cc2)cc1)[C@]3(N=C(OC[C@H]3F)N)C

$$$$
1H7_A_504
          07202405583D 1   1.00000     0.00000     0
            
 42 44  0  0  0  0            999 V2000
   69.9942   50.1165   10.7750 F   0  0  0  0  0  0  0  0  0  0  0  0
   66.0730   49.0210   10.3718 F   0  0  0  0  0  0  0  0  0  0  0  0
   73.4493   47.2059    6.0411 O   0  0  0  0  0  0  0  0  0  0  0  0
   66.4808   47.2708    8.2400 O   0  0  0  0  0  0  0  0  0  0  0  0
   71.5380   44.0942   -0.4044 N   0  0  0  0  0  0  0  0  0  0  0  0
   65.5306   48.2446    6.3479 N   0  0  0  0  0  0  0  0  0  0  0  0
   71.2789   46.8674    3.3692 N   0  0  0  0  0  0  0  0  0  0  0  0
   71.2705   47.8879    5.8738 N   0  0  0  0  0  0  0  0  0  0  0  0
   66.9334   49.4757    7.7358 N   0  0  0  0  0  0  0  0  0  0  0  0
   67.6010   51.1249    9.2624 C   0  0  0  0  0  0  0  0  0  0  0  0
   67.2672   47.2095    9.4652 C   0  0  0  0  0  0  0  0  0  0  0  0
   71.7071   44.6073    0.5669 C   0  0  0  0  0  0  0  0  0  0  0  0
   71.0064   46.2558    2.2286 C   0  0  0  0  0  0  0  0  0  0  0  0
   71.6763   49.3165    9.2820 C   0  0  0  0  0  0  0  0  0  0  0  0
   72.0225   48.7932    8.0326 C   0  0  0  0  0  0  0  0  0  0  0  0
   73.2750   45.6069    3.7781 C   0  0  0  0  0  0  0  0  0  0  0  0
   73.0974   44.9244    2.5801 C   0  0  0  0  0  0  0  0  0  0  0  0
   69.6812   48.8131    7.3844 C   0  0  0  0  0  0  0  0  0  0  0  0
   66.3434   48.3469    7.4791 C   0  0  0  0  0  0  0  0  0  0  0  0
   72.4117   47.2671    5.4212 C   0  0  0  0  0  0  0  0  0  0  0  0
   70.3301   49.6185    9.5461 C   0  0  0  0  0  0  0  0  0  0  0  0
   67.3671   48.6562    9.9838 C   0  0  1  0  0  0  0  0  0  0  0  0
   71.0165   48.5389    7.1107 C   0  0  0  0  0  0  0  0  0  0  0  0
   72.3285   46.5692    4.1247 C   0  0  0  0  0  0  0  0  0  0  0  0
   71.9030   45.2665    1.8106 C   0  0  0  0  0  0  0  0  0  0  0  0
   69.3115   49.3508    8.5962 C   0  0  0  0  0  0  0  0  0  0  0  0
   67.8316   49.6425    8.9023 C   0  0  1  0  0  0  0  0  0  0  0  0
   65.4035   49.0362    5.7503 H   0  0  0  0  0  0  0  0  0  0  0  0
   65.0757   47.3796    6.1356 H   0  0  0  0  0  0  0  0  0  0  0  0
   70.5020   47.8796    5.2341 H   0  0  0  0  0  0  0  0  0  0  0  0
   68.1636   51.3674   10.0527 H   0  0  0  0  0  0  0  0  0  0  0  0
   67.8536   51.7001    8.4843 H   0  0  0  0  0  0  0  0  0  0  0  0
   66.6363   51.2681    9.4834 H   0  0  0  0  0  0  0  0  0  0  0  0
   68.1789   46.8459    9.2742 H   0  0  0  0  0  0  0  0  0  0  0  0
   66.8118   46.6296   10.1408 H   0  0  0  0  0  0  0  0  0  0  0  0
   70.1970   46.4896    1.6900 H   0  0  0  0  0  0  0  0  0  0  0  0
   72.3771   49.4735    9.9778 H   0  0  0  0  0  0  0  0  0  0  0  0
   72.9785   48.6054    7.8070 H   0  0  0  0  0  0  0  0  0  0  0  0
   74.0563   45.4136    4.3716 H   0  0  0  0  0  0  0  0  0  0  0  0
   73.7509   44.2374    2.2623 H   0  0  0  0  0  0  0  0  0  0  0  0
   68.9835   48.6180    6.6950 H   0  0  0  0  0  0  0  0  0  0  0  0
   67.9837   48.6957   10.7701 H   0  0  0  0  0  0  0  0  0  0  0  0
  1 21  1  0  0  0  0
  2 22  1  0  0  0  0
  3 20  2  0  0  0  0
  4 11  1  0  0  0  0
  4 19  1  0  0  0  0
  5 12  3  0  0  0  0
  6 19  1  0  0  0  0
  7 13  1  0  0  0  0
  7 24  2  0  0  0  0
  8 20  1  0  0  0  0
  8 23  1  0  0  0  0
  9 19  2  0  0  0  0
  9 27  1  0  0  0  0
 10 27  1  0  0  0  0
 11 22  1  0  0  0  0
 12 25  1  0  0  0  0
 13 25  2  0  0  0  0
 14 15  1  0  0  0  0
 14 21  2  0  0  0  0
 15 23  2  0  0  0  0
 16 17  2  0  0  0  0
 16 24  1  0  0  0  0
 17 25  1  0  0  0  0
 18 23  1  0  0  0  0
 18 26  2  0  0  0  0
 20 24  1  0  0  0  0
 21 26  1  0  0  0  0
 22 27  1  0  0  0  0
 26 27  1  0  0  0  0
  6 28  1  0  0  0  0
  6 29  1  0  0  0  0
  8 30  1  0  0  0  0
 10 31  1  0  0  0  0
 10 32  1  0  0  0  0
 10 33  1  0  0  0  0
 11 34  1  0  0  0  0
 11 35  1  0  0  0  0
 13 36  1  0  0  0  0
 14 37  1  0  0  0  0
 15 38  1  0  0  0  0
 16 39  1  0  0  0  0
 17 40  1  0  0  0  0
 18 41  1  0  0  0  0
 22 42  1  0  0  0  0
M  END
> <pdb_id>
4J0V

> <uniprot_id>
P56817

> <usmiles>
Fc1c(cc(NC(=O)c2ncc(C#N)cc2)cc1)[C@]3(N=C(OC[C@@H]3F)N)C

$$$$
1H8_A_504
          07202405583D 1   1.00000     0.00000     0
            
 42 44  0  0  0  0            999 V2000
   70.0412   50.2440   10.8549 F   0  0  0  0  0  0  0  0  0  0  0  0
   73.4410   47.3040    6.0573 O   0  0  0  0  0  0  0  0  0  0  0  0
   66.3837   47.3909    8.4613 O   0  0  0  0  0  0  0  0  0  0  0  0
   71.6502   44.0447   -0.3902 N   0  0  0  0  0  0  0  0  0  0  0  0
   65.7247   48.2468    6.3937 N   0  0  0  0  0  0  0  0  0  0  0  0
   71.2541   46.8463    3.4075 N   0  0  0  0  0  0  0  0  0  0  0  0
   71.2637   47.9384    5.9645 N   0  0  0  0  0  0  0  0  0  0  0  0
   67.0415   49.5262    7.7641 N   0  0  0  0  0  0  0  0  0  0  0  0
   67.5835   51.1523    9.4390 C   0  0  0  0  0  0  0  0  0  0  0  0
   67.3103   47.3608    9.5812 C   0  0  0  0  0  0  0  0  0  0  0  0
   71.7815   44.5899    0.6056 C   0  0  0  0  0  0  0  0  0  0  0  0
   71.0411   46.2553    2.2361 C   0  0  0  0  0  0  0  0  0  0  0  0
   71.7124   49.3710    9.3727 C   0  0  0  0  0  0  0  0  0  0  0  0
   72.0859   48.8590    8.1327 C   0  0  0  0  0  0  0  0  0  0  0  0
   73.2406   45.6394    3.8806 C   0  0  0  0  0  0  0  0  0  0  0  0
   73.1042   44.9627    2.6825 C   0  0  0  0  0  0  0  0  0  0  0  0
   69.7171   48.8749    7.5247 C   0  0  0  0  0  0  0  0  0  0  0  0
   67.2453   48.7827   10.0995 C   0  0  0  0  0  0  0  0  0  0  0  0
   66.3944   48.4102    7.5674 C   0  0  0  0  0  0  0  0  0  0  0  0
   72.3809   47.3232    5.4753 C   0  0  0  0  0  0  0  0  0  0  0  0
   70.3530   49.6987    9.6495 C   0  0  0  0  0  0  0  0  0  0  0  0
   71.0655   48.6012    7.1985 C   0  0  0  0  0  0  0  0  0  0  0  0
   72.2902   46.6194    4.1847 C   0  0  0  0  0  0  0  0  0  0  0  0
   71.9698   45.2699    1.8666 C   0  0  0  0  0  0  0  0  0  0  0  0
   69.3165   49.4290    8.7182 C   0  0  0  0  0  0  0  0  0  0  0  0
   67.8151   49.7218    8.9951 C   0  0  1  0  0  0  0  0  0  0  0  0
   65.7160   48.9824    5.7164 H   0  0  0  0  0  0  0  0  0  0  0  0
   65.2413   47.3911    6.2088 H   0  0  0  0  0  0  0  0  0  0  0  0
   70.4673   47.9171    5.3602 H   0  0  0  0  0  0  0  0  0  0  0  0
   68.0960   51.3276   10.2795 H   0  0  0  0  0  0  0  0  0  0  0  0
   67.8933   51.7778    8.7230 H   0  0  0  0  0  0  0  0  0  0  0  0
   66.6082   51.2952    9.6074 H   0  0  0  0  0  0  0  0  0  0  0  0
   68.2348   47.1283    9.2790 H   0  0  0  0  0  0  0  0  0  0  0  0
   67.0135   46.7082   10.2783 H   0  0  0  0  0  0  0  0  0  0  0  0
   70.2658   46.4982    1.6530 H   0  0  0  0  0  0  0  0  0  0  0  0
   72.4071   49.5108   10.0783 H   0  0  0  0  0  0  0  0  0  0  0  0
   73.0453   48.6807    7.9138 H   0  0  0  0  0  0  0  0  0  0  0  0
   73.9924   45.4353    4.5076 H   0  0  0  0  0  0  0  0  0  0  0  0
   73.7767   44.2806    2.3956 H   0  0  0  0  0  0  0  0  0  0  0  0
   69.0144   48.6529    6.8488 H   0  0  0  0  0  0  0  0  0  0  0  0
   67.7928   48.8662   10.9321 H   0  0  0  0  0  0  0  0  0  0  0  0
   66.2966   49.0288   10.2984 H   0  0  0  0  0  0  0  0  0  0  0  0
  1 21  1  0  0  0  0
  2 20  2  0  0  0  0
  3 10  1  0  0  0  0
  3 19  1  0  0  0  0
  4 11  3  0  0  0  0
  5 19  1  0  0  0  0
  6 12  1  0  0  0  0
  6 23  2  0  0  0  0
  7 20  1  0  0  0  0
  7 22  1  0  0  0  0
  8 19  2  0  0  0  0
  8 26  1  0  0  0  0
  9 26  1  0  0  0  0
 10 18  1  0  0  0  0
 11 24  1  0  0  0  0
 12 24  2  0  0  0  0
 13 14  1  0  0  0  0
 13 21  2  0  0  0  0
 14 22  2  0  0  0  0
 15 16  2  0  0  0  0
 15 23  1  0  0  0  0
 16 24  1  0  0  0  0
 17 22  1  0  0  0  0
 17 25  2  0  0  0  0
 18 26  1  0  0  0  0
 20 23  1  0  0  0  0
 21 25  1  0  0  0  0
 25 26  1  0  0  0  0
  5 27  1  0  0  0  0
  5 28  1  0  0  0  0
  7 29  1  0  0  0  0
  9 30  1  0  0  0  0
  9 31  1  0  0  0  0
  9 32  1  0  0  0  0
 10 33  1  0  0  0  0
 10 34  1  0  0  0  0
 12 35  1  0  0  0  0
 13 36  1  0  0  0  0
 14 37  1  0  0  0  0
 15 38  1  0  0  0  0
 16 39  1  0  0  0  0
 17 40  1  0  0  0  0
 18 41  1  0  0  0  0
 18 42  1  0  0  0  0
M  END
> <pdb_id>
4J0P

> <uniprot_id>
P56817

> <usmiles>
Fc1c(cc(NC(=O)c2ncc(C#N)cc2)cc1)[C@]3(N=C(OCC3)N)C

$$$$
1HG_A_504
          07202405583D 1   1.00000     0.00000     0
            
 45 47  0  0  0  0            999 V2000
   70.0007   50.1994   10.6868 F   0  0  0  0  0  0  0  0  0  0  0  0
   66.0978   49.2809   10.3632 F   0  0  0  0  0  0  0  0  0  0  0  0
   65.2277   47.0009   10.6918 F   0  0  0  0  0  0  0  0  0  0  0  0
   66.5528   45.2870    9.9444 F   0  0  0  0  0  0  0  0  0  0  0  0
   67.1525   46.6662   11.5804 F   0  0  0  0  0  0  0  0  0  0  0  0
   73.4315   47.3923    6.1533 O   0  0  0  0  0  0  0  0  0  0  0  0
   66.3299   47.5886    8.2380 O   0  0  0  0  0  0  0  0  0  0  0  0
   71.6785   44.1031   -0.4164 N   0  0  0  0  0  0  0  0  0  0  0  0
   65.5193   48.4503    6.3915 N   0  0  0  0  0  0  0  0  0  0  0  0
   71.2714   46.8735    3.4132 N   0  0  0  0  0  0  0  0  0  0  0  0
   71.2560   47.8972    5.9338 N   0  0  0  0  0  0  0  0  0  0  0  0
   67.0359   49.7305    7.6539 N   0  0  0  0  0  0  0  0  0  0  0  0
   67.7393   51.2447    9.4275 C   0  0  0  0  0  0  0  0  0  0  0  0
   71.8289   44.6385    0.5928 C   0  0  0  0  0  0  0  0  0  0  0  0
   71.0867   46.2806    2.2541 C   0  0  0  0  0  0  0  0  0  0  0  0
   71.6529   49.2543    9.3189 C   0  0  0  0  0  0  0  0  0  0  0  0
   72.0047   48.6601    8.1161 C   0  0  0  0  0  0  0  0  0  0  0  0
   73.3294   45.7130    3.8972 C   0  0  0  0  0  0  0  0  0  0  0  0
   73.1374   45.0271    2.6898 C   0  0  0  0  0  0  0  0  0  0  0  0
   69.6382   48.8540    7.3863 C   0  0  0  0  0  0  0  0  0  0  0  0
   66.3309   48.6436    7.4623 C   0  0  0  0  0  0  0  0  0  0  0  0
   72.4091   47.3702    5.4924 C   0  0  0  0  0  0  0  0  0  0  0  0
   70.3167   49.6643    9.5074 C   0  0  0  0  0  0  0  0  0  0  0  0
   67.3679   48.8852    9.9458 C   0  0  1  0  0  0  0  0  0  0  0  0
   67.2248   47.4858    9.3569 C   0  0  1  0  0  0  0  0  0  0  0  0
   70.9887   48.5091    7.1514 C   0  0  0  0  0  0  0  0  0  0  0  0
   72.3385   46.6709    4.2051 C   0  0  0  0  0  0  0  0  0  0  0  0
   72.0073   45.3159    1.8563 C   0  0  0  0  0  0  0  0  0  0  0  0
   69.3000   49.4423    8.5698 C   0  0  0  0  0  0  0  0  0  0  0  0
   66.5121   46.5954   10.3984 C   0  0  0  0  0  0  0  0  0  0  0  0
   67.8770   49.8342    8.8515 C   0  0  1  0  0  0  0  0  0  0  0  0
   65.4158   49.1709    5.7059 H   0  0  0  0  0  0  0  0  0  0  0  0
   65.0249   47.5872    6.2882 H   0  0  0  0  0  0  0  0  0  0  0  0
   70.4848   47.8416    5.2996 H   0  0  0  0  0  0  0  0  0  0  0  0
   68.3086   51.3279   10.2453 H   0  0  0  0  0  0  0  0  0  0  0  0
   68.0355   51.9135    8.7456 H   0  0  0  0  0  0  0  0  0  0  0  0
   66.7836   51.4148    9.6679 H   0  0  0  0  0  0  0  0  0  0  0  0
   70.3065   46.5165    1.6747 H   0  0  0  0  0  0  0  0  0  0  0  0
   72.3337   49.3894   10.0388 H   0  0  0  0  0  0  0  0  0  0  0  0
   72.9398   48.3520    7.9408 H   0  0  0  0  0  0  0  0  0  0  0  0
   74.1105   45.5371    4.4963 H   0  0  0  0  0  0  0  0  0  0  0  0
   73.7953   44.3291    2.4071 H   0  0  0  0  0  0  0  0  0  0  0  0
   68.9402   48.6692    6.6944 H   0  0  0  0  0  0  0  0  0  0  0  0
   68.0011   48.8743   10.7196 H   0  0  0  0  0  0  0  0  0  0  0  0
   68.1098   47.1052    9.0888 H   0  0  0  0  0  0  0  0  0  0  0  0
  1 23  1  0  0  0  0
  2 24  1  0  0  0  0
  3 30  1  0  0  0  0
  4 30  1  0  0  0  0
  5 30  1  0  0  0  0
  6 22  2  0  0  0  0
  7 21  1  0  0  0  0
  7 25  1  0  0  0  0
  8 14  3  0  0  0  0
  9 21  1  0  0  0  0
 10 15  1  0  0  0  0
 10 27  2  0  0  0  0
 11 22  1  0  0  0  0
 11 26  1  0  0  0  0
 12 21  2  0  0  0  0
 12 31  1  0  0  0  0
 13 31  1  0  0  0  0
 14 28  1  0  0  0  0
 15 28  2  0  0  0  0
 16 17  1  0  0  0  0
 16 23  2  0  0  0  0
 17 26  2  0  0  0  0
 18 19  2  0  0  0  0
 18 27  1  0  0  0  0
 19 28  1  0  0  0  0
 20 26  1  0  0  0  0
 20 29  2  0  0  0  0
 22 27  1  0  0  0  0
 23 29  1  0  0  0  0
 24 25  1  0  0  0  0
 24 31  1  0  0  0  0
 25 30  1  0  0  0  0
 29 31  1  0  0  0  0
  9 32  1  0  0  0  0
  9 33  1  0  0  0  0
 11 34  1  0  0  0  0
 13 35  1  0  0  0  0
 13 36  1  0  0  0  0
 13 37  1  0  0  0  0
 15 38  1  0  0  0  0
 16 39  1  0  0  0  0
 17 40  1  0  0  0  0
 18 41  1  0  0  0  0
 19 42  1  0  0  0  0
 20 43  1  0  0  0  0
 24 44  1  0  0  0  0
 25 45  1  0  0  0  0
M  END
> <pdb_id>
4J1K

> <uniprot_id>
P56817

> <usmiles>
Fc1c(cc(NC(=O)c2ncc(C#N)cc2)cc1)[C@]3(N=C(O[C@H](C(F)(F)F)[C@@H]3F)N)C

$$$$
1HH_A_504
          07202405583D 1   1.00000     0.00000     0
            
 45 47  0  0  0  0            999 V2000
   69.7328   50.1854   10.8300 F   0  0  0  0  0  0  0  0  0  0  0  0
   65.8423   49.7806   10.3545 F   0  0  0  0  0  0  0  0  0  0  0  0
   67.6279   46.8081   11.5651 F   0  0  0  0  0  0  0  0  0  0  0  0
   66.9550   45.3858    9.9932 F   0  0  0  0  0  0  0  0  0  0  0  0
   68.6723   46.5851    9.5701 F   0  0  0  0  0  0  0  0  0  0  0  0
   73.2694   47.4891    6.2557 O   0  0  0  0  0  0  0  0  0  0  0  0
   66.3151   47.5021    8.3159 O   0  0  0  0  0  0  0  0  0  0  0  0
   71.7071   44.2065   -0.3921 N   0  0  0  0  0  0  0  0  0  0  0  0
   65.5816   48.3703    6.3142 N   0  0  0  0  0  0  0  0  0  0  0  0
   71.2639   46.9605    3.4246 N   0  0  0  0  0  0  0  0  0  0  0  0
   71.0805   47.9012    6.0048 N   0  0  0  0  0  0  0  0  0  0  0  0
   66.8890   49.6858    7.6867 N   0  0  0  0  0  0  0  0  0  0  0  0
   67.6154   51.3788    9.3164 C   0  0  0  0  0  0  0  0  0  0  0  0
   71.8292   44.7184    0.6142 C   0  0  0  0  0  0  0  0  0  0  0  0
   71.0974   46.3715    2.2678 C   0  0  0  0  0  0  0  0  0  0  0  0
   71.4306   49.2351    9.4590 C   0  0  0  0  0  0  0  0  0  0  0  0
   71.8050   48.6618    8.2444 C   0  0  0  0  0  0  0  0  0  0  0  0
   73.2007   45.7190    3.9666 C   0  0  0  0  0  0  0  0  0  0  0  0
   73.0806   45.0402    2.7417 C   0  0  0  0  0  0  0  0  0  0  0  0
   69.4644   48.9137    7.4498 C   0  0  0  0  0  0  0  0  0  0  0  0
   66.2661   48.5606    7.4841 C   0  0  0  0  0  0  0  0  0  0  0  0
   72.2725   47.4253    5.5602 C   0  0  0  0  0  0  0  0  0  0  0  0
   70.0832   49.6294    9.6490 C   0  0  0  0  0  0  0  0  0  0  0  0
   67.0164   49.1066   10.0625 C   0  0  1  0  0  0  0  0  0  0  0  0
   66.4933   47.6892    9.7294 C   0  0  2  0  0  0  0  0  0  0  0  0
   70.8037   48.5221    7.2284 C   0  0  0  0  0  0  0  0  0  0  0  0
   72.2550   46.7222    4.2482 C   0  0  0  0  0  0  0  0  0  0  0  0
   71.9931   45.3691    1.8856 C   0  0  0  0  0  0  0  0  0  0  0  0
   69.0914   49.4655    8.6533 C   0  0  0  0  0  0  0  0  0  0  0  0
   67.4595   46.6240   10.2258 C   0  0  0  0  0  0  0  0  0  0  0  0
   67.6661   49.8962    8.9036 C   0  0  1  0  0  0  0  0  0  0  0  0
   65.5068   49.1157    5.6518 H   0  0  0  0  0  0  0  0  0  0  0  0
   65.1563   47.4859    6.1219 H   0  0  0  0  0  0  0  0  0  0  0  0
   70.3057   47.7949    5.3816 H   0  0  0  0  0  0  0  0  0  0  0  0
   68.1508   51.5110   10.1506 H   0  0  0  0  0  0  0  0  0  0  0  0
   67.9962   51.9421    8.5831 H   0  0  0  0  0  0  0  0  0  0  0  0
   66.6664   51.6460    9.4836 H   0  0  0  0  0  0  0  0  0  0  0  0
   70.3420   46.6342    1.6675 H   0  0  0  0  0  0  0  0  0  0  0  0
   72.1042   49.3662   10.1864 H   0  0  0  0  0  0  0  0  0  0  0  0
   72.7443   48.3571    8.0868 H   0  0  0  0  0  0  0  0  0  0  0  0
   73.9305   45.4974    4.6134 H   0  0  0  0  0  0  0  0  0  0  0  0
   73.7451   44.3412    2.4777 H   0  0  0  0  0  0  0  0  0  0  0  0
   68.7840   48.7890    6.7276 H   0  0  0  0  0  0  0  0  0  0  0  0
   67.6204   49.0841   10.8592 H   0  0  0  0  0  0  0  0  0  0  0  0
   65.6119   47.5584   10.1832 H   0  0  0  0  0  0  0  0  0  0  0  0
  1 23  1  0  0  0  0
  2 24  1  0  0  0  0
  3 30  1  0  0  0  0
  4 30  1  0  0  0  0
  5 30  1  0  0  0  0
  6 22  2  0  0  0  0
  7 21  1  0  0  0  0
  7 25  1  0  0  0  0
  8 14  3  0  0  0  0
  9 21  1  0  0  0  0
 10 15  1  0  0  0  0
 10 27  2  0  0  0  0
 11 22  1  0  0  0  0
 11 26  1  0  0  0  0
 12 21  2  0  0  0  0
 12 31  1  0  0  0  0
 13 31  1  0  0  0  0
 14 28  1  0  0  0  0
 15 28  2  0  0  0  0
 16 17  1  0  0  0  0
 16 23  2  0  0  0  0
 17 26  2  0  0  0  0
 18 19  2  0  0  0  0
 18 27  1  0  0  0  0
 19 28  1  0  0  0  0
 20 26  1  0  0  0  0
 20 29  2  0  0  0  0
 22 27  1  0  0  0  0
 23 29  1  0  0  0  0
 24 25  1  0  0  0  0
 24 31  1  0  0  0  0
 25 30  1  0  0  0  0
 29 31  1  0  0  0  0
  9 32  1  0  0  0  0
  9 33  1  0  0  0  0
 11 34  1  0  0  0  0
 13 35  1  0  0  0  0
 13 36  1  0  0  0  0
 13 37  1  0  0  0  0
 15 38  1  0  0  0  0
 16 39  1  0  0  0  0
 17 40  1  0  0  0  0
 18 41  1  0  0  0  0
 19 42  1  0  0  0  0
 20 43  1  0  0  0  0
 24 44  1  0  0  0  0
 25 45  1  0  0  0  0
M  END
> <pdb_id>
4J1I

> <uniprot_id>
P56817

> <usmiles>
Fc1c(cc(NC(=O)c2ncc(C#N)cc2)cc1)[C@]3(N=C(O[C@@H](C(F)(F)F)[C@@H]3F)N)C

$$$$
1HM_A_504
          07202405583D 1   1.00000     0.00000     0
            
 45 47  0  0  0  0            999 V2000
   66.5546   51.5808    9.5652 F   0  0  0  0  0  0  0  0  0  0  0  0
   70.1629   50.0998   10.7572 F   0  0  0  0  0  0  0  0  0  0  0  0
   65.3221   46.9897   10.8548 F   0  0  0  0  0  0  0  0  0  0  0  0
   66.4126   45.3188    9.9236 F   0  0  0  0  0  0  0  0  0  0  0  0
   67.4223   46.4405   11.5950 F   0  0  0  0  0  0  0  0  0  0  0  0
   73.5134   47.2261    6.0536 O   0  0  0  0  0  0  0  0  0  0  0  0
   66.3676   47.4694    8.2822 O   0  0  0  0  0  0  0  0  0  0  0  0
   71.5742   44.0803   -0.5143 N   0  0  0  0  0  0  0  0  0  0  0  0
   65.6020   48.4162    6.3609 N   0  0  0  0  0  0  0  0  0  0  0  0
   71.2743   46.8372    3.3636 N   0  0  0  0  0  0  0  0  0  0  0  0
   71.3410   47.8943    5.8637 N   0  0  0  0  0  0  0  0  0  0  0  0
   67.1582   49.5802    7.7781 N   0  0  0  0  0  0  0  0  0  0  0  0
   67.9144   51.2667    9.1835 C   0  0  0  0  0  0  0  0  0  0  0  0
   71.7280   44.6116    0.4902 C   0  0  0  0  0  0  0  0  0  0  0  0
   71.0082   46.1648    2.2290 C   0  0  0  0  0  0  0  0  0  0  0  0
   71.8651   49.3368    9.2990 C   0  0  0  0  0  0  0  0  0  0  0  0
   72.1991   48.7886    8.0355 C   0  0  0  0  0  0  0  0  0  0  0  0
   73.1107   44.9618    2.5284 C   0  0  0  0  0  0  0  0  0  0  0  0
   73.3567   45.6466    3.7283 C   0  0  0  0  0  0  0  0  0  0  0  0
   69.7671   48.8351    7.3413 C   0  0  0  0  0  0  0  0  0  0  0  0
   67.3397   48.8293   10.0617 C   0  0  0  0  0  0  0  0  0  0  0  0
   66.3882   48.5427    7.5088 C   0  0  0  0  0  0  0  0  0  0  0  0
   70.5178   49.6258    9.5445 C   0  0  0  0  0  0  0  0  0  0  0  0
   72.4697   47.2643    5.4127 C   0  0  0  0  0  0  0  0  0  0  0  0
   67.2254   47.4298    9.4690 C   0  0  1  0  0  0  0  0  0  0  0  0
   71.1247   48.5656    7.0736 C   0  0  0  0  0  0  0  0  0  0  0  0
   71.9319   45.2667    1.7511 C   0  0  0  0  0  0  0  0  0  0  0  0
   72.3481   46.5591    4.1404 C   0  0  0  0  0  0  0  0  0  0  0  0
   69.4422   49.3473    8.6038 C   0  0  0  0  0  0  0  0  0  0  0  0
   66.5410   46.5029   10.5423 C   0  0  0  0  0  0  0  0  0  0  0  0
   68.0109   49.7264    8.9488 C   0  0  1  0  0  0  0  0  0  0  0  0
   65.5468   49.1708    5.7070 H   0  0  0  0  0  0  0  0  0  0  0  0
   65.0945   47.5711    6.1931 H   0  0  0  0  0  0  0  0  0  0  0  0
   70.5595   47.8720    5.2402 H   0  0  0  0  0  0  0  0  0  0  0  0
   68.5422   51.5381    9.9130 H   0  0  0  0  0  0  0  0  0  0  0  0
   68.1508   51.7529    8.3422 H   0  0  0  0  0  0  0  0  0  0  0  0
   70.1493   46.3166    1.7399 H   0  0  0  0  0  0  0  0  0  0  0  0
   72.5666   49.5107    9.9902 H   0  0  0  0  0  0  0  0  0  0  0  0
   73.1461   48.5606    7.8092 H   0  0  0  0  0  0  0  0  0  0  0  0
   73.7515   44.2626    2.2114 H   0  0  0  0  0  0  0  0  0  0  0  0
   74.1905   45.5014    4.2609 H   0  0  0  0  0  0  0  0  0  0  0  0
   69.0607   48.6665    6.6539 H   0  0  0  0  0  0  0  0  0  0  0  0
   67.9095   48.8122   10.8833 H   0  0  0  0  0  0  0  0  0  0  0  0
   66.4332   49.1833   10.2920 H   0  0  0  0  0  0  0  0  0  0  0  0
   68.1308   47.0776    9.2320 H   0  0  0  0  0  0  0  0  0  0  0  0
  1 13  1  0  0  0  0
  2 23  1  0  0  0  0
  3 30  1  0  0  0  0
  4 30  1  0  0  0  0
  5 30  1  0  0  0  0
  6 24  2  0  0  0  0
  7 22  1  0  0  0  0
  7 25  1  0  0  0  0
  8 14  3  0  0  0  0
  9 22  1  0  0  0  0
 10 15  1  0  0  0  0
 10 28  2  0  0  0  0
 11 24  1  0  0  0  0
 11 26  1  0  0  0  0
 12 22  2  0  0  0  0
 12 31  1  0  0  0  0
 13 31  1  0  0  0  0
 14 27  1  0  0  0  0
 15 27  2  0  0  0  0
 16 17  1  0  0  0  0
 16 23  2  0  0  0  0
 17 26  2  0  0  0  0
 18 19  2  0  0  0  0
 18 27  1  0  0  0  0
 19 28  1  0  0  0  0
 20 26  1  0  0  0  0
 20 29  2  0  0  0  0
 21 25  1  0  0  0  0
 21 31  1  0  0  0  0
 23 29  1  0  0  0  0
 24 28  1  0  0  0  0
 25 30  1  0  0  0  0
 29 31  1  0  0  0  0
  9 32  1  0  0  0  0
  9 33  1  0  0  0  0
 11 34  1  0  0  0  0
 13 35  1  0  0  0  0
 13 36  1  0  0  0  0
 15 37  1  0  0  0  0
 16 38  1  0  0  0  0
 17 39  1  0  0  0  0
 18 40  1  0  0  0  0
 19 41  1  0  0  0  0
 20 42  1  0  0  0  0
 21 43  1  0  0  0  0
 21 44  1  0  0  0  0
 25 45  1  0  0  0  0
M  END
> <pdb_id>
4J1E

> <uniprot_id>
P56817

> <usmiles>
Fc1c(cc(NC(=O)c2ncc(C#N)cc2)cc1)[C@]3(N=C(O[C@H](C(F)(F)F)C3)N)CF

$$$$
1HN_B_501
          07202416113D 1   1.00000     0.00000     0
            
 22 23  0  0  0  0            999 V2000
  133.0840   24.4750   92.7090 O   0  0  0  0  0  0  0  0  0  0  0  0
  133.9010   22.5550   93.3760 O   0  0  0  0  0  0  0  0  0  0  0  0
  132.2280   24.4050   90.1360 O   0  0  0  0  0  0  0  0  0  0  0  0
  134.0800   22.2780   85.9720 C   0  0  0  0  0  0  0  0  0  0  0  0
  133.0570   23.2040   86.2160 C   0  0  0  0  0  0  0  0  0  0  0  0
  134.8270   21.7490   87.0320 C   0  0  0  0  0  0  0  0  0  0  0  0
  132.7950   23.5860   87.5330 C   0  0  0  0  0  0  0  0  0  0  0  0
  135.2830   21.6240   89.4450 C   0  0  0  0  0  0  0  0  0  0  0  0
  134.9850   22.0270   90.7450 C   0  0  0  0  0  0  0  0  0  0  0  0
  133.6480   23.3720   92.4440 C   0  0  0  0  0  0  0  0  0  0  0  0
  134.5510   22.1460   88.3650 C   0  0  0  0  0  0  0  0  0  0  0  0
  133.2530   23.4650   89.9260 C   0  0  0  0  0  0  0  0  0  0  0  0
  133.9780   22.9560   90.9980 C   0  0  0  0  0  0  0  0  0  0  0  0
  133.5480   23.0550   88.6110 C   0  0  0  0  0  0  0  0  0  0  0  0
  132.8827   25.1229   91.9743 H   0  0  0  0  0  0  0  0  0  0  0  0
  131.7126   24.7649   89.3583 H   0  0  0  0  0  0  0  0  0  0  0  0
  134.2781   21.9928   85.0342 H   0  0  0  0  0  0  0  0  0  0  0  0
  132.5241   23.5845   85.4602 H   0  0  0  0  0  0  0  0  0  0  0  0
  135.5564   21.0900   86.8484 H   0  0  0  0  0  0  0  0  0  0  0  0
  132.0653   24.2440   87.7190 H   0  0  0  0  0  0  0  0  0  0  0  0
  136.0165   20.9644   89.2808 H   0  0  0  0  0  0  0  0  0  0  0  0
  135.5027   21.6429   91.5095 H   0  0  0  0  0  0  0  0  0  0  0  0
  1 10  1  0  0  0  0
  2 10  2  0  0  0  0
  3 12  1  0  0  0  0
  4  5  1  0  0  0  0
  4  6  2  0  0  0  0
  5  7  2  0  0  0  0
  6 11  1  0  0  0  0
  7 14  1  0  0  0  0
  8  9  1  0  0  0  0
  8 11  2  0  0  0  0
  9 13  2  0  0  0  0
 10 13  1  0  0  0  0
 11 14  1  0  0  0  0
 12 13  1  0  0  0  0
 12 14  2  0  0  0  0
  1 15  1  0  0  0  0
  3 16  1  0  0  0  0
  4 17  1  0  0  0  0
  5 18  1  0  0  0  0
  6 19  1  0  0  0  0
  7 20  1  0  0  0  0
  8 21  1  0  0  0  0
  9 22  1  0  0  0  0
M  END
> <pdb_id>
6ZGR

> <uniprot_id>
A0LNN5

> <usmiles>
O=C(O)c1c(O)c2c(cc1)cccc2

$$$$
1HO_A_504
          07202405583D 1   1.00000     0.00000     0
            
 42 44  0  0  0  0            999 V2000
   66.4028   51.1055    9.5413 F   0  0  0  0  0  0  0  0  0  0  0  0
   70.1262   50.3645   10.4258 F   0  0  0  0  0  0  0  0  0  0  0  0
   68.4208   48.1551   10.8652 F   0  0  0  0  0  0  0  0  0  0  0  0
   66.3782   48.5272   10.5300 F   0  0  0  0  0  0  0  0  0  0  0  0
   73.5249   47.3232    5.9491 O   0  0  0  0  0  0  0  0  0  0  0  0
   66.3867   47.1489    8.1879 O   0  0  0  0  0  0  0  0  0  0  0  0
   71.5839   43.9295   -0.4411 N   0  0  0  0  0  0  0  0  0  0  0  0
   65.6048   48.1991    6.3338 N   0  0  0  0  0  0  0  0  0  0  0  0
   71.2417   46.7574    3.3045 N   0  0  0  0  0  0  0  0  0  0  0  0
   71.2932   47.7821    5.7157 N   0  0  0  0  0  0  0  0  0  0  0  0
   67.0153   49.3729    7.7245 N   0  0  0  0  0  0  0  0  0  0  0  0
   67.7903   50.8806    9.3392 C   0  0  0  0  0  0  0  0  0  0  0  0
   67.4139   46.9631    9.1736 C   0  0  0  0  0  0  0  0  0  0  0  0
   71.7256   44.4780    0.5189 C   0  0  0  0  0  0  0  0  0  0  0  0
   70.9612   46.0892    2.1853 C   0  0  0  0  0  0  0  0  0  0  0  0
   71.7685   49.6087    8.8757 C   0  0  0  0  0  0  0  0  0  0  0  0
   72.0869   48.9714    7.6818 C   0  0  0  0  0  0  0  0  0  0  0  0
   73.1030   44.8732    2.4985 C   0  0  0  0  0  0  0  0  0  0  0  0
   73.2925   45.5898    3.6646 C   0  0  0  0  0  0  0  0  0  0  0  0
   69.7080   48.6439    7.2664 C   0  0  0  0  0  0  0  0  0  0  0  0
   66.3818   48.2558    7.4381 C   0  0  0  0  0  0  0  0  0  0  0  0
   70.4371   49.7478    9.2542 C   0  0  0  0  0  0  0  0  0  0  0  0
   72.4719   47.2472    5.2975 C   0  0  0  0  0  0  0  0  0  0  0  0
   71.0612   48.4769    6.8950 C   0  0  0  0  0  0  0  0  0  0  0  0
   71.9160   45.1649    1.7348 C   0  0  0  0  0  0  0  0  0  0  0  0
   72.3557   46.5350    4.0299 C   0  0  0  0  0  0  0  0  0  0  0  0
   69.3762   49.2504    8.4298 C   0  0  0  0  0  0  0  0  0  0  0  0
   67.5381   48.3110    9.8524 C   0  0  0  0  0  0  0  0  0  0  0  0
   67.9199   49.4489    8.8511 C   0  0  2  0  0  0  0  0  0  0  0  0
   65.5481   48.9876    5.7213 H   0  0  0  0  0  0  0  0  0  0  0  0
   65.0866   47.3687    6.1292 H   0  0  0  0  0  0  0  0  0  0  0  0
   70.5085   47.6619    5.1075 H   0  0  0  0  0  0  0  0  0  0  0  0
   68.2897   51.0011   10.1971 H   0  0  0  0  0  0  0  0  0  0  0  0
   68.1480   51.5145    8.6534 H   0  0  0  0  0  0  0  0  0  0  0  0
   68.2773   46.7052    8.7398 H   0  0  0  0  0  0  0  0  0  0  0  0
   67.1484   46.2590    9.8322 H   0  0  0  0  0  0  0  0  0  0  0  0
   70.1069   46.2404    1.6881 H   0  0  0  0  0  0  0  0  0  0  0  0
   72.4956   49.9666    9.4616 H   0  0  0  0  0  0  0  0  0  0  0  0
   73.0402   48.8720    7.3965 H   0  0  0  0  0  0  0  0  0  0  0  0
   73.7606   44.1825    2.1976 H   0  0  0  0  0  0  0  0  0  0  0  0
   74.0969   45.4258    4.2356 H   0  0  0  0  0  0  0  0  0  0  0  0
   68.9856   48.3092    6.6612 H   0  0  0  0  0  0  0  0  0  0  0  0
  1 12  1  0  0  0  0
  2 22  1  0  0  0  0
  3 28  1  0  0  0  0
  4 28  1  0  0  0  0
  5 23  2  0  0  0  0
  6 13  1  0  0  0  0
  6 21  1  0  0  0  0
  7 14  3  0  0  0  0
  8 21  1  0  0  0  0
  9 15  1  0  0  0  0
  9 26  2  0  0  0  0
 10 23  1  0  0  0  0
 10 24  1  0  0  0  0
 11 21  2  0  0  0  0
 11 29  1  0  0  0  0
 12 29  1  0  0  0  0
 13 28  1  0  0  0  0
 14 25  1  0  0  0  0
 15 25  2  0  0  0  0
 16 17  1  0  0  0  0
 16 22  2  0  0  0  0
 17 24  2  0  0  0  0
 18 19  2  0  0  0  0
 18 25  1  0  0  0  0
 19 26  1  0  0  0  0
 20 24  1  0  0  0  0
 20 27  2  0  0  0  0
 22 27  1  0  0  0  0
 23 26  1  0  0  0  0
 27 29  1  0  0  0  0
 28 29  1  0  0  0  0
  8 30  1  0  0  0  0
  8 31  1  0  0  0  0
 10 32  1  0  0  0  0
 12 33  1  0  0  0  0
 12 34  1  0  0  0  0
 13 35  1  0  0  0  0
 13 36  1  0  0  0  0
 15 37  1  0  0  0  0
 16 38  1  0  0  0  0
 17 39  1  0  0  0  0
 18 40  1  0  0  0  0
 19 41  1  0  0  0  0
 20 42  1  0  0  0  0
M  END
> <pdb_id>
4J1C

> <uniprot_id>
P56817

> <usmiles>
Fc1c(cc(NC(=O)c2ncc(C#N)cc2)cc1)[C@]3(N=C(OCC3(F)F)N)CF

$$$$
1HQ_A_504
          07202405583D 1   1.00000     0.00000     0
            
 42 44  0  0  0  0            999 V2000
   68.0791   51.9350    8.6433 F   0  0  0  0  0  0  0  0  0  0  0  0
   66.3245   51.1429    9.7550 F   0  0  0  0  0  0  0  0  0  0  0  0
   70.0344   50.1771   10.8288 F   0  0  0  0  0  0  0  0  0  0  0  0
   73.4610   47.2755    6.1195 O   0  0  0  0  0  0  0  0  0  0  0  0
   66.3720   47.3458    8.2866 O   0  0  0  0  0  0  0  0  0  0  0  0
   71.5896   44.1550   -0.3938 N   0  0  0  0  0  0  0  0  0  0  0  0
   65.5738   48.3604    6.3533 N   0  0  0  0  0  0  0  0  0  0  0  0
   71.2898   46.8858    3.4423 N   0  0  0  0  0  0  0  0  0  0  0  0
   71.3029   47.9406    5.9120 N   0  0  0  0  0  0  0  0  0  0  0  0
   67.0376   49.5001    7.7914 N   0  0  0  0  0  0  0  0  0  0  0  0
   67.2722   47.1603    9.4456 C   0  0  0  0  0  0  0  0  0  0  0  0
   71.7484   44.6629    0.5878 C   0  0  0  0  0  0  0  0  0  0  0  0
   71.0561   46.2767    2.2912 C   0  0  0  0  0  0  0  0  0  0  0  0
   71.8025   49.3653    9.3262 C   0  0  0  0  0  0  0  0  0  0  0  0
   72.1672   48.8574    8.0574 C   0  0  0  0  0  0  0  0  0  0  0  0
   73.1535   44.9989    2.5724 C   0  0  0  0  0  0  0  0  0  0  0  0
   73.2853   45.6831    3.7731 C   0  0  0  0  0  0  0  0  0  0  0  0
   67.3606   48.5552   10.0525 C   0  0  0  0  0  0  0  0  0  0  0  0
   69.7492   48.8008    7.4468 C   0  0  0  0  0  0  0  0  0  0  0  0
   67.6645   50.9677    9.5475 C   0  0  0  0  0  0  0  0  0  0  0  0
   66.3568   48.4354    7.5300 C   0  0  0  0  0  0  0  0  0  0  0  0
   70.4492   49.6460    9.6064 C   0  0  0  0  0  0  0  0  0  0  0  0
   72.4273   47.3158    5.4611 C   0  0  0  0  0  0  0  0  0  0  0  0
   71.1083   48.5864    7.1283 C   0  0  0  0  0  0  0  0  0  0  0  0
   71.9712   45.3090    1.8429 C   0  0  0  0  0  0  0  0  0  0  0  0
   72.3320   46.6100    4.1785 C   0  0  0  0  0  0  0  0  0  0  0  0
   69.3987   49.3626    8.6568 C   0  0  0  0  0  0  0  0  0  0  0  0
   67.9049   49.5828    9.0095 C   0  0  2  0  0  0  0  0  0  0  0  0
   65.5189   49.1470    5.7383 H   0  0  0  0  0  0  0  0  0  0  0  0
   65.0755   47.5209    6.1370 H   0  0  0  0  0  0  0  0  0  0  0  0
   70.5197   47.9339    5.2903 H   0  0  0  0  0  0  0  0  0  0  0  0
   68.1729   46.8407    9.1512 H   0  0  0  0  0  0  0  0  0  0  0  0
   66.8848   46.5099   10.0989 H   0  0  0  0  0  0  0  0  0  0  0  0
   70.2447   46.5004    1.7512 H   0  0  0  0  0  0  0  0  0  0  0  0
   72.5023   49.5249   10.0224 H   0  0  0  0  0  0  0  0  0  0  0  0
   73.1242   48.6939    7.8178 H   0  0  0  0  0  0  0  0  0  0  0  0
   73.8335   44.3421    2.2467 H   0  0  0  0  0  0  0  0  0  0  0  0
   74.0786   45.5063    4.3557 H   0  0  0  0  0  0  0  0  0  0  0  0
   67.9759   48.5312   10.8404 H   0  0  0  0  0  0  0  0  0  0  0  0
   66.4497   48.8414   10.3496 H   0  0  0  0  0  0  0  0  0  0  0  0
   69.0380   48.5443    6.7922 H   0  0  0  0  0  0  0  0  0  0  0  0
   68.1558   51.0825   10.4109 H   0  0  0  0  0  0  0  0  0  0  0  0
  1 20  1  0  0  0  0
  2 20  1  0  0  0  0
  3 22  1  0  0  0  0
  4 23  2  0  0  0  0
  5 11  1  0  0  0  0
  5 21  1  0  0  0  0
  6 12  3  0  0  0  0
  7 21  1  0  0  0  0
  8 13  1  0  0  0  0
  8 26  2  0  0  0  0
  9 23  1  0  0  0  0
  9 24  1  0  0  0  0
 10 21  2  0  0  0  0
 10 28  1  0  0  0  0
 11 18  1  0  0  0  0
 12 25  1  0  0  0  0
 13 25  2  0  0  0  0
 14 15  1  0  0  0  0
 14 22  2  0  0  0  0
 15 24  2  0  0  0  0
 16 17  2  0  0  0  0
 16 25  1  0  0  0  0
 17 26  1  0  0  0  0
 18 28  1  0  0  0  0
 19 24  1  0  0  0  0
 19 27  2  0  0  0  0
 20 28  1  0  0  0  0
 22 27  1  0  0  0  0
 23 26  1  0  0  0  0
 27 28  1  0  0  0  0
  7 29  1  0  0  0  0
  7 30  1  0  0  0  0
  9 31  1  0  0  0  0
 11 32  1  0  0  0  0
 11 33  1  0  0  0  0
 13 34  1  0  0  0  0
 14 35  1  0  0  0  0
 15 36  1  0  0  0  0
 16 37  1  0  0  0  0
 17 38  1  0  0  0  0
 18 39  1  0  0  0  0
 18 40  1  0  0  0  0
 19 41  1  0  0  0  0
 20 42  1  0  0  0  0
M  END
> <pdb_id>
4J17

> <uniprot_id>
P56817

> <usmiles>
Fc1c(cc(NC(=O)c2ncc(C#N)cc2)cc1)[C@]3(N=C(OCC3)N)C(F)F

$$$$
1HX_B_301
          07202403313D 1   1.00000     0.00000     0
            
 34 35  0  0  0  0            999 V2000
  -14.6197    8.9656  -33.2553 Cl  0  0  0  0  0  0  0  0  0  0  0  0
  -17.6294   12.3634  -31.0229 F   0  0  0  0  0  0  0  0  0  0  0  0
  -15.6543   12.4244  -34.6546 O   0  0  0  0  0  0  0  0  0  0  0  0
  -17.3827   17.4677  -37.6839 N   0  0  0  0  0  0  0  0  0  0  0  0
  -15.6325   13.0540  -32.5187 N   0  0  0  0  0  0  0  0  0  0  0  0
  -16.5467   15.0268  -35.5055 N   0  0  0  0  0  0  0  0  0  0  0  0
  -17.1381   14.1264  -36.5331 C   0  0  0  0  0  0  0  0  0  0  0  0
  -14.5812   11.8968  -30.6752 C   0  0  0  0  0  0  0  0  0  0  0  0
  -17.0213   16.9745  -36.6898 C   0  0  0  0  0  0  0  0  0  0  0  0
  -18.4591    8.9430  -31.9784 C   0  0  0  0  0  0  0  0  0  0  0  0
  -17.2325    8.5662  -32.5166 C   0  0  0  0  0  0  0  0  0  0  0  0
  -18.5933   10.2359  -31.4631 C   0  0  0  0  0  0  0  0  0  0  0  0
  -15.8998   16.9988  -34.5715 C   0  0  0  0  0  0  0  0  0  0  0  0
  -15.5324   15.9449  -33.7357 C   0  0  0  0  0  0  0  0  0  0  0  0
  -16.1809    9.4663  -32.5464 C   0  0  0  0  0  0  0  0  0  0  0  0
  -15.7370   13.3296  -33.8247 C   0  0  0  0  0  0  0  0  0  0  0  0
  -17.5276   11.1230  -31.5113 C   0  0  0  0  0  0  0  0  0  0  0  0
  -15.1841   11.7317  -32.0736 C   0  0  1  0  0  0  0  0  0  0  0  0
  -16.5053   16.3648  -35.6134 C   0  0  0  0  0  0  0  0  0  0  0  0
  -15.9427   14.7311  -34.3384 C   0  0  0  0  0  0  0  0  0  0  0  0
  -16.3087   10.7546  -32.0480 C   0  0  0  0  0  0  0  0  0  0  0  0
  -15.8617   13.7545  -31.8429 H   0  0  0  0  0  0  0  0  0  0  0  0
  -17.0528   13.1764  -36.2327 H   0  0  0  0  0  0  0  0  0  0  0  0
  -18.1045   14.3514  -36.6570 H   0  0  0  0  0  0  0  0  0  0  0  0
  -16.6540   14.2467  -37.3999 H   0  0  0  0  0  0  0  0  0  0  0  0
  -14.2644   11.0089  -30.3418 H   0  0  0  0  0  0  0  0  0  0  0  0
  -13.8096   12.5315  -30.7178 H   0  0  0  0  0  0  0  0  0  0  0  0
  -15.2760   12.2580  -30.0532 H   0  0  0  0  0  0  0  0  0  0  0  0
  -19.2275    8.3033  -31.9604 H   0  0  0  0  0  0  0  0  0  0  0  0
  -17.1103    7.6437  -32.8827 H   0  0  0  0  0  0  0  0  0  0  0  0
  -19.4615   10.5225  -31.0580 H   0  0  0  0  0  0  0  0  0  0  0  0
  -15.7544   17.9791  -34.4385 H   0  0  0  0  0  0  0  0  0  0  0  0
  -15.0591   16.0317  -32.8591 H   0  0  0  0  0  0  0  0  0  0  0  0
  -14.4766   11.3994  -32.6973 H   0  0  0  0  0  0  0  0  0  0  0  0
  1 15  1  0  0  0  0
  2 17  1  0  0  0  0
  3 16  2  0  0  0  0
  4  9  3  0  0  0  0
  5 16  1  0  0  0  0
  5 18  1  0  0  0  0
  6  7  1  0  0  0  0
  6 19  1  0  0  0  0
  6 20  1  0  0  0  0
  8 18  1  0  0  0  0
  9 19  1  0  0  0  0
 10 11  2  0  0  0  0
 10 12  1  0  0  0  0
 11 15  1  0  0  0  0
 12 17  2  0  0  0  0
 13 14  1  0  0  0  0
 13 19  2  0  0  0  0
 14 20  2  0  0  0  0
 15 21  2  0  0  0  0
 16 20  1  0  0  0  0
 17 21  1  0  0  0  0
 18 21  1  0  0  0  0
  5 22  1  0  0  0  0
  7 23  1  0  0  0  0
  7 24  1  0  0  0  0
  7 25  1  0  0  0  0
  8 26  1  0  0  0  0
  8 27  1  0  0  0  0
  8 28  1  0  0  0  0
 10 29  1  0  0  0  0
 11 30  1  0  0  0  0
 12 31  1  0  0  0  0
 13 32  1  0  0  0  0
 14 33  1  0  0  0  0
 18 34  1  0  0  0  0
M  END
> <pdb_id>
4ITJ

> <uniprot_id>
Q13546

> <usmiles>
Clc1c(c(F)ccc1)[C@@H](NC(=O)C=2N(C(C#N)=CC2)C)C

$$$$
1IR_B_801
          07192416573D 1   1.00000     0.00000     0
            
 42 46  0  0  0  0            999 V2000
   22.6892   -5.7425   24.1321 S   0  0  0  0  0  0  0  0  0  0  0  0
   18.5053   -2.9199   21.5620 O   0  0  0  0  0  0  0  0  0  0  0  0
   18.5838   -2.8742   16.6627 N   0  0  0  0  0  0  0  0  0  0  0  0
   21.4129   -5.1640   21.6844 N   0  0  0  0  0  0  0  0  0  0  0  0
   23.7689   -4.6214   22.2141 N   0  0  0  0  0  0  0  0  0  0  0  0
   17.0553   -2.1588   19.7679 N   0  0  0  0  0  0  0  0  0  0  0  0
   18.9530   -3.1047   19.1278 N   0  0  0  0  0  0  0  0  0  0  0  0
   17.4903   -2.5306   22.4361 C   0  0  0  0  0  0  0  0  0  0  0  0
   17.7574   -2.4376   15.7258 C   0  0  0  0  0  0  0  0  0  0  0  0
   16.5215   -1.8185   16.0656 C   0  0  0  0  0  0  0  0  0  0  0  0
   26.5593   -4.9725   25.3118 C   0  0  0  0  0  0  0  0  0  0  0  0
   26.9629   -4.3519   24.0895 C   0  0  0  0  0  0  0  0  0  0  0  0
   25.2735   -5.4454   25.4534 C   0  0  0  0  0  0  0  0  0  0  0  0
   16.1859   -1.6723   17.4099 C   0  0  0  0  0  0  0  0  0  0  0  0
   26.0858   -4.2189   23.0566 C   0  0  0  0  0  0  0  0  0  0  0  0
   21.0833   -3.3195   20.2640 C   0  0  0  0  0  0  0  0  0  0  0  0
   20.1979   -5.1079   19.6636 C   0  0  0  0  0  0  0  0  0  0  0  0
   22.5629   -5.1265   22.5108 C   0  0  0  0  0  0  0  0  0  0  0  0
   18.1839   -2.7336   20.2077 C   0  0  0  0  0  0  0  0  0  0  0  0
   24.3661   -5.2971   24.3737 C   0  0  0  0  0  0  0  0  0  0  0  0
   18.2786   -2.7434   17.9960 C   0  0  0  0  0  0  0  0  0  0  0  0
   21.4493   -4.7553   20.4202 C   0  0  0  0  0  0  0  0  0  0  0  0
   24.7435   -4.7080   23.2137 C   0  0  0  0  0  0  0  0  0  0  0  0
   17.0869   -2.1473   18.3842 C   0  0  0  0  0  0  0  0  0  0  0  0
   20.1823   -3.7176   19.1295 C   0  0  0  0  0  0  0  0  0  0  0  0
   20.5523   -5.5065   22.0616 H   0  0  0  0  0  0  0  0  0  0  0  0
   17.7833   -2.6892   23.3790 H   0  0  0  0  0  0  0  0  0  0  0  0
   17.2939   -1.5586   22.3071 H   0  0  0  0  0  0  0  0  0  0  0  0
   16.6660   -3.0649   22.2489 H   0  0  0  0  0  0  0  0  0  0  0  0
   18.0053   -2.5444   14.7629 H   0  0  0  0  0  0  0  0  0  0  0  0
   15.9033   -1.4933   15.3500 H   0  0  0  0  0  0  0  0  0  0  0  0
   27.2109   -5.0634   26.0649 H   0  0  0  0  0  0  0  0  0  0  0  0
   27.8983   -4.0122   23.9918 H   0  0  0  0  0  0  0  0  0  0  0  0
   24.9846   -5.8860   26.3034 H   0  0  0  0  0  0  0  0  0  0  0  0
   15.3249   -1.2399   17.6776 H   0  0  0  0  0  0  0  0  0  0  0  0
   26.3714   -3.7871   22.2011 H   0  0  0  0  0  0  0  0  0  0  0  0
   21.8428   -2.7249   20.0005 H   0  0  0  0  0  0  0  0  0  0  0  0
   20.6087   -2.9252   21.0509 H   0  0  0  0  0  0  0  0  0  0  0  0
   19.4153   -5.3384   20.2418 H   0  0  0  0  0  0  0  0  0  0  0  0
   20.3196   -5.8171   18.9692 H   0  0  0  0  0  0  0  0  0  0  0  0
   22.2905   -5.0081   19.9422 H   0  0  0  0  0  0  0  0  0  0  0  0
   20.6393   -3.6490   18.2427 H   0  0  0  0  0  0  0  0  0  0  0  0
  1 18  1  0  0  0  0
  1 20  1  0  0  0  0
  2  8  1  0  0  0  0
  2 19  1  0  0  0  0
  3  9  2  0  0  0  0
  3 21  1  0  0  0  0
  4 18  1  0  0  0  0
  4 22  1  0  0  0  0
  5 18  2  0  0  0  0
  5 23  1  0  0  0  0
  6 19  2  0  0  0  0
  6 24  1  0  0  0  0
  7 19  1  0  0  0  0
  7 21  1  0  0  0  0
  7 25  1  0  0  0  0
  9 10  1  0  0  0  0
 10 14  2  0  0  0  0
 11 12  2  0  0  0  0
 11 13  1  0  0  0  0
 12 15  1  0  0  0  0
 13 20  2  0  0  0  0
 14 24  1  0  0  0  0
 15 23  2  0  0  0  0
 16 22  1  0  0  0  0
 16 25  1  0  0  0  0
 17 22  1  0  0  0  0
 17 25  1  0  0  0  0
 20 23  1  0  0  0  0
 21 24  2  0  0  0  0
  4 26  1  0  0  0  0
  8 27  1  0  0  0  0
  8 28  1  0  0  0  0
  8 29  1  0  0  0  0
  9 30  1  0  0  0  0
 10 31  1  0  0  0  0
 11 32  1  0  0  0  0
 12 33  1  0  0  0  0
 13 34  1  0  0  0  0
 14 35  1  0  0  0  0
 15 36  1  0  0  0  0
 16 37  1  0  0  0  0
 16 38  1  0  0  0  0
 17 39  1  0  0  0  0
 17 40  1  0  0  0  0
 22 41  1  0  0  0  0
 25 42  1  0  0  0  0
M  END
> <pdb_id>
4P0N

> <uniprot_id>
Q9Y233

> <usmiles>
S1c2c(N=C1NC3CC(N4c5ncccc5N=C4OC)C3)cccc2

$$$$
1J5_A_1201
          07202414163D 1   1.00000     0.00000     0
            
 42 45  0  0  0  0            999 V2000
   56.5855  -11.5866   32.5049 O   0  0  0  0  0  0  0  0  0  0  0  0
   56.0914   -6.5319   26.2087 N   0  0  0  0  0  0  0  0  0  0  0  0
   49.2033  -11.2799   29.8234 N   0  0  0  0  0  0  0  0  0  0  0  0
   50.0540  -12.1636   31.9394 N   0  0  0  0  0  0  0  0  0  0  0  0
   53.4734  -11.5432   33.1306 N   0  0  0  0  0  0  0  0  0  0  0  0
   53.7517  -10.3928   31.2921 N   0  0  0  0  0  0  0  0  0  0  0  0
   55.8355  -10.3378   34.4201 C   0  0  0  0  0  0  0  0  0  0  0  0
   55.4718   -7.1920   26.8991 C   0  0  0  0  0  0  0  0  0  0  0  0
   49.7427  -10.5050   28.8202 C   0  0  0  0  0  0  0  0  0  0  0  0
   51.0788  -12.2319   32.7584 C   0  0  0  0  0  0  0  0  0  0  0  0
   51.0153  -10.1817   29.1226 C   0  0  0  0  0  0  0  0  0  0  0  0
   54.4659  -10.2935   28.9161 C   0  0  0  0  0  0  0  0  0  0  0  0
   53.8792   -8.1512   30.2088 C   0  0  0  0  0  0  0  0  0  0  0  0
   55.2878   -9.4558   27.9154 C   0  0  0  0  0  0  0  0  0  0  0  0
   54.7021   -7.3244   29.2036 C   0  0  0  0  0  0  0  0  0  0  0  0
   55.7399  -10.5219   32.9028 C   0  0  2  0  0  0  0  0  0  0  0  0
   50.1363  -11.4786   30.7981 C   0  0  0  0  0  0  0  0  0  0  0  0
   54.3234  -10.8249   32.4589 C   0  0  0  0  0  0  0  0  0  0  0  0
   52.2956  -11.6096   32.4675 C   0  0  0  0  0  0  0  0  0  0  0  0
   54.4543   -9.5726   30.2792 C   0  0  0  0  0  0  0  0  0  0  0  0
   52.4491  -10.8690   31.2761 C   0  0  0  0  0  0  0  0  0  0  0  0
   54.7035   -8.0303   27.8382 C   0  0  0  0  0  0  0  0  0  0  0  0
   51.3248  -10.8124   30.4173 C   0  0  0  0  0  0  0  0  0  0  0  0
   56.5244  -11.7083   31.5142 H   0  0  0  0  0  0  0  0  0  0  0  0
   48.2709  -11.6412   29.8351 H   0  0  0  0  0  0  0  0  0  0  0  0
   55.2392   -9.5865   34.7030 H   0  0  0  0  0  0  0  0  0  0  0  0
   55.5497  -11.1802   34.8768 H   0  0  0  0  0  0  0  0  0  0  0  0
   56.7801  -10.1263   34.6714 H   0  0  0  0  0  0  0  0  0  0  0  0
   49.2610  -10.2240   27.9902 H   0  0  0  0  0  0  0  0  0  0  0  0
   50.9856  -12.7429   33.6129 H   0  0  0  0  0  0  0  0  0  0  0  0
   51.6329   -9.6199   28.5721 H   0  0  0  0  0  0  0  0  0  0  0  0
   54.8813  -11.1975   29.0179 H   0  0  0  0  0  0  0  0  0  0  0  0
   53.5291  -10.3930   28.5808 H   0  0  0  0  0  0  0  0  0  0  0  0
   52.9258   -8.1901   29.9095 H   0  0  0  0  0  0  0  0  0  0  0  0
   53.9278   -7.7251   31.1122 H   0  0  0  0  0  0  0  0  0  0  0  0
   55.2479   -9.8820   27.0117 H   0  0  0  0  0  0  0  0  0  0  0  0
   56.2390   -9.4103   28.2208 H   0  0  0  0  0  0  0  0  0  0  0  0
   55.6417   -7.2368   29.5344 H   0  0  0  0  0  0  0  0  0  0  0  0
   54.2961   -6.4155   29.1084 H   0  0  0  0  0  0  0  0  0  0  0  0
   56.0460   -9.6816   32.4554 H   0  0  0  0  0  0  0  0  0  0  0  0
   55.4056   -9.4903   30.5762 H   0  0  0  0  0  0  0  0  0  0  0  0
   53.7605   -8.0910   27.5111 H   0  0  0  0  0  0  0  0  0  0  0  0
  1 16  1  0  0  0  0
  2  8  3  0  0  0  0
  3  9  1  0  0  0  0
  3 17  1  0  0  0  0
  4 10  2  0  0  0  0
  4 17  1  0  0  0  0
  5 18  2  0  0  0  0
  5 19  1  0  0  0  0
  6 18  1  0  0  0  0
  6 20  1  0  0  0  0
  6 21  1  0  0  0  0
  7 16  1  0  0  0  0
  8 22  1  0  0  0  0
  9 11  2  0  0  0  0
 10 19  1  0  0  0  0
 11 23  1  0  0  0  0
 12 14  1  0  0  0  0
 12 20  1  0  0  0  0
 13 15  1  0  0  0  0
 13 20  1  0  0  0  0
 14 22  1  0  0  0  0
 15 22  1  0  0  0  0
 16 18  1  0  0  0  0
 17 23  2  0  0  0  0
 19 21  2  0  0  0  0
 21 23  1  0  0  0  0
  1 24  1  0  0  0  0
  3 25  1  0  0  0  0
  7 26  1  0  0  0  0
  7 27  1  0  0  0  0
  7 28  1  0  0  0  0
  9 29  1  0  0  0  0
 10 30  1  0  0  0  0
 11 31  1  0  0  0  0
 12 32  1  0  0  0  0
 12 33  1  0  0  0  0
 13 34  1  0  0  0  0
 13 35  1  0  0  0  0
 14 36  1  0  0  0  0
 14 37  1  0  0  0  0
 15 38  1  0  0  0  0
 15 39  1  0  0  0  0
 16 40  1  0  0  0  0
 20 41  1  0  0  0  0
 22 42  1  0  0  0  0
M  END
> <pdb_id>
4IVA

> <uniprot_id>
O60674

> <usmiles>
O[C@@H](C1=Nc2c(N1C3CCC(C#N)CC3)c4c(nc2)NC=C4)C

$$$$
1J5_B_1201
          07212403553D 1   1.00000     0.00000     0
            
 42 45  0  0  0  0            999 V2000
   44.6128   22.2663  243.8452 O   0  0  0  0  0  0  0  0  0  0  0  0
   39.0900   19.6423  239.0924 N   0  0  0  0  0  0  0  0  0  0  0  0
   38.0206   21.5565  247.7893 N   0  0  0  0  0  0  0  0  0  0  0  0
   40.0070   22.7840  248.5517 N   0  0  0  0  0  0  0  0  0  0  0  0
   42.8019   23.5715  246.3059 N   0  0  0  0  0  0  0  0  0  0  0  0
   41.6489   22.5415  244.7437 N   0  0  0  0  0  0  0  0  0  0  0  0
   44.8979   24.5612  244.5552 C   0  0  0  0  0  0  0  0  0  0  0  0
   39.2296   20.0746  240.1470 C   0  0  0  0  0  0  0  0  0  0  0  0
   37.6254   21.0123  246.6048 C   0  0  0  0  0  0  0  0  0  0  0  0
   41.1812   23.2742  248.2009 C   0  0  0  0  0  0  0  0  0  0  0  0
   38.5636   21.2283  245.6896 C   0  0  0  0  0  0  0  0  0  0  0  0
   41.1527   20.4480  243.4595 C   0  0  0  0  0  0  0  0  0  0  0  0
   40.0606   22.6333  242.8091 C   0  0  0  0  0  0  0  0  0  0  0  0
   40.8223   19.9289  242.0400 C   0  0  0  0  0  0  0  0  0  0  0  0
   39.8656   22.1407  241.3563 C   0  0  0  0  0  0  0  0  0  0  0  0
   43.8958   23.4859  244.0690 C   0  0  2  0  0  0  0  0  0  0  0  0
   39.2442   22.1474  247.6648 C   0  0  0  0  0  0  0  0  0  0  0  0
   42.7986   23.2233  245.0473 C   0  0  0  0  0  0  0  0  0  0  0  0
   41.6696   23.1586  246.8944 C   0  0  0  0  0  0  0  0  0  0  0  0
   41.3314   21.9967  243.3945 C   0  0  0  0  0  0  0  0  0  0  0  0
   40.9034   22.4955  245.9089 C   0  0  0  0  0  0  0  0  0  0  0  0
   39.5779   20.6264  241.4741 C   0  0  0  0  0  0  0  0  0  0  0  0
   39.6572   21.9735  246.3315 C   0  0  0  0  0  0  0  0  0  0  0  0
   43.9789   21.5600  243.5302 H   0  0  0  0  0  0  0  0  0  0  0  0
   37.4870   21.5269  248.6345 H   0  0  0  0  0  0  0  0  0  0  0  0
   44.4126   25.4206  244.7163 H   0  0  0  0  0  0  0  0  0  0  0  0
   45.3274   24.2565  245.4053 H   0  0  0  0  0  0  0  0  0  0  0  0
   45.6010   24.7012  243.8580 H   0  0  0  0  0  0  0  0  0  0  0  0
   36.7650   20.5271  246.4489 H   0  0  0  0  0  0  0  0  0  0  0  0
   41.7375   23.7415  248.8880 H   0  0  0  0  0  0  0  0  0  0  0  0
   38.5321   20.9360  244.7338 H   0  0  0  0  0  0  0  0  0  0  0  0
   41.9983   20.0248  243.7846 H   0  0  0  0  0  0  0  0  0  0  0  0
   40.4050   20.2212  244.0836 H   0  0  0  0  0  0  0  0  0  0  0  0
   39.2696   22.3684  243.3607 H   0  0  0  0  0  0  0  0  0  0  0  0
   40.1525   23.6290  242.8149 H   0  0  0  0  0  0  0  0  0  0  0  0
   40.6539   18.9441  242.0832 H   0  0  0  0  0  0  0  0  0  0  0  0
   41.5999   20.1080  241.4373 H   0  0  0  0  0  0  0  0  0  0  0  0
   40.6938   22.2991  240.8186 H   0  0  0  0  0  0  0  0  0  0  0  0
   39.0946   22.6114  240.9273 H   0  0  0  0  0  0  0  0  0  0  0  0
   43.4928   23.7870  243.2047 H   0  0  0  0  0  0  0  0  0  0  0  0
   42.0965   22.2006  242.7838 H   0  0  0  0  0  0  0  0  0  0  0  0
   38.8103   20.4860  242.0994 H   0  0  0  0  0  0  0  0  0  0  0  0
  1 16  1  0  0  0  0
  2  8  3  0  0  0  0
  3  9  1  0  0  0  0
  3 17  1  0  0  0  0
  4 10  2  0  0  0  0
  4 17  1  0  0  0  0
  5 18  2  0  0  0  0
  5 19  1  0  0  0  0
  6 18  1  0  0  0  0
  6 20  1  0  0  0  0
  6 21  1  0  0  0  0
  7 16  1  0  0  0  0
  8 22  1  0  0  0  0
  9 11  2  0  0  0  0
 10 19  1  0  0  0  0
 11 23  1  0  0  0  0
 12 14  1  0  0  0  0
 12 20  1  0  0  0  0
 13 15  1  0  0  0  0
 13 20  1  0  0  0  0
 14 22  1  0  0  0  0
 15 22  1  0  0  0  0
 16 18  1  0  0  0  0
 17 23  2  0  0  0  0
 19 21  2  0  0  0  0
 21 23  1  0  0  0  0
  1 24  1  0  0  0  0
  3 25  1  0  0  0  0
  7 26  1  0  0  0  0
  7 27  1  0  0  0  0
  7 28  1  0  0  0  0
  9 29  1  0  0  0  0
 10 30  1  0  0  0  0
 11 31  1  0  0  0  0
 12 32  1  0  0  0  0
 12 33  1  0  0  0  0
 13 34  1  0  0  0  0
 13 35  1  0  0  0  0
 14 36  1  0  0  0  0
 14 37  1  0  0  0  0
 15 38  1  0  0  0  0
 15 39  1  0  0  0  0
 16 40  1  0  0  0  0
 20 41  1  0  0  0  0
 22 42  1  0  0  0  0
M  END
> <pdb_id>
4IVB

> <uniprot_id>
P23458

> <usmiles>
O[C@@H](C1=Nc2c(N1C3CCC(C#N)CC3)c4c(nc2)NC=C4)C

$$$$
1J6_B_1201
          07212403553D 1   1.00000     0.00000     0
            
 45 48  0  0  0  0            999 V2000
   44.3852   22.2702  243.7582 O   0  0  0  0  0  0  0  0  0  0  0  0
   37.3278   21.4683  238.7667 N   0  0  0  0  0  0  0  0  0  0  0  0
   38.0205   21.5059  247.8220 N   0  0  0  0  0  0  0  0  0  0  0  0
   40.0295   22.6822  248.6324 N   0  0  0  0  0  0  0  0  0  0  0  0
   42.7824   23.5028  246.3282 N   0  0  0  0  0  0  0  0  0  0  0  0
   41.5347   22.6085  244.7554 N   0  0  0  0  0  0  0  0  0  0  0  0
   44.8448   24.4751  244.5975 C   0  0  0  0  0  0  0  0  0  0  0  0
   38.1746   20.8891  239.2844 C   0  0  0  0  0  0  0  0  0  0  0  0
   37.6044   21.0346  246.6183 C   0  0  0  0  0  0  0  0  0  0  0  0
   41.2140   23.1651  248.2874 C   0  0  0  0  0  0  0  0  0  0  0  0
   39.2492   20.1645  240.0106 C   0  0  0  0  0  0  0  0  0  0  0  0
   38.5148   21.2963  245.6876 C   0  0  0  0  0  0  0  0  0  0  0  0
   40.9278   20.6121  243.4662 C   0  0  0  0  0  0  0  0  0  0  0  0
   39.9162   22.8464  242.8337 C   0  0  0  0  0  0  0  0  0  0  0  0
   40.7112   20.1271  242.0486 C   0  0  0  0  0  0  0  0  0  0  0  0
   39.6646   22.3249  241.3866 C   0  0  0  0  0  0  0  0  0  0  0  0
   43.7768   23.5278  244.0397 C   0  0  2  0  0  0  0  0  0  0  0  0
   39.2320   22.0886  247.7223 C   0  0  0  0  0  0  0  0  0  0  0  0
   42.7055   23.2346  245.0486 C   0  0  0  0  0  0  0  0  0  0  0  0
   41.6596   23.0971  246.9516 C   0  0  0  0  0  0  0  0  0  0  0  0
   41.1519   22.1401  243.4133 C   0  0  0  0  0  0  0  0  0  0  0  0
   40.8430   22.5018  245.9516 C   0  0  0  0  0  0  0  0  0  0  0  0
   39.4833   20.7861  241.4106 C   0  0  0  0  0  0  0  0  0  0  0  0
   39.6047   21.9796  246.3633 C   0  0  0  0  0  0  0  0  0  0  0  0
   43.6983   21.6419  243.3930 H   0  0  0  0  0  0  0  0  0  0  0  0
   37.4970   21.4306  248.6707 H   0  0  0  0  0  0  0  0  0  0  0  0
   44.4305   25.3626  244.7996 H   0  0  0  0  0  0  0  0  0  0  0  0
   45.2287   24.0880  245.4358 H   0  0  0  0  0  0  0  0  0  0  0  0
   45.5720   24.5930  243.9213 H   0  0  0  0  0  0  0  0  0  0  0  0
   36.7392   20.5600  246.4565 H   0  0  0  0  0  0  0  0  0  0  0  0
   41.7989   23.5827  248.9827 H   0  0  0  0  0  0  0  0  0  0  0  0
   40.0963   20.2188  239.4820 H   0  0  0  0  0  0  0  0  0  0  0  0
   38.9840   19.2062  240.1176 H   0  0  0  0  0  0  0  0  0  0  0  0
   38.4611   21.0685  244.7154 H   0  0  0  0  0  0  0  0  0  0  0  0
   41.7302   20.1639  243.8602 H   0  0  0  0  0  0  0  0  0  0  0  0
   40.1234   20.4053  244.0231 H   0  0  0  0  0  0  0  0  0  0  0  0
   39.1190   22.6492  243.4043 H   0  0  0  0  0  0  0  0  0  0  0  0
   40.0742   23.8336  242.8115 H   0  0  0  0  0  0  0  0  0  0  0  0
   40.5785   19.1361  242.0609 H   0  0  0  0  0  0  0  0  0  0  0  0
   41.5192   20.3484  241.5025 H   0  0  0  0  0  0  0  0  0  0  0  0
   40.4464   22.5586  240.8084 H   0  0  0  0  0  0  0  0  0  0  0  0
   38.8384   22.7514  241.0184 H   0  0  0  0  0  0  0  0  0  0  0  0
   43.3740   23.9112  243.2085 H   0  0  0  0  0  0  0  0  0  0  0  0
   41.9205   22.3150  242.7980 H   0  0  0  0  0  0  0  0  0  0  0  0
   38.6882   20.5765  241.9797 H   0  0  0  0  0  0  0  0  0  0  0  0
  1 17  1  0  0  0  0
  2  8  3  0  0  0  0
  3  9  1  0  0  0  0
  3 18  1  0  0  0  0
  4 10  2  0  0  0  0
  4 18  1  0  0  0  0
  5 19  2  0  0  0  0
  5 20  1  0  0  0  0
  6 19  1  0  0  0  0
  6 21  1  0  0  0  0
  6 22  1  0  0  0  0
  7 17  1  0  0  0  0
  8 11  1  0  0  0  0
  9 12  2  0  0  0  0
 10 20  1  0  0  0  0
 11 23  1  0  0  0  0
 12 24  1  0  0  0  0
 13 15  1  0  0  0  0
 13 21  1  0  0  0  0
 14 16  1  0  0  0  0
 14 21  1  0  0  0  0
 15 23  1  0  0  0  0
 16 23  1  0  0  0  0
 17 19  1  0  0  0  0
 18 24  2  0  0  0  0
 20 22  2  0  0  0  0
 22 24  1  0  0  0  0
  1 25  1  0  0  0  0
  3 26  1  0  0  0  0
  7 27  1  0  0  0  0
  7 28  1  0  0  0  0
  7 29  1  0  0  0  0
  9 30  1  0  0  0  0
 10 31  1  0  0  0  0
 11 32  1  0  0  0  0
 11 33  1  0  0  0  0
 12 34  1  0  0  0  0
 13 35  1  0  0  0  0
 13 36  1  0  0  0  0
 14 37  1  0  0  0  0
 14 38  1  0  0  0  0
 15 39  1  0  0  0  0
 15 40  1  0  0  0  0
 16 41  1  0  0  0  0
 16 42  1  0  0  0  0
 17 43  1  0  0  0  0
 21 44  1  0  0  0  0
 23 45  1  0  0  0  0
M  END
> <pdb_id>
4IVC

> <uniprot_id>
P23458

> <usmiles>
O[C@@H](C1=Nc2c(N1C3CCC(CC#N)CC3)c4c(nc2)NC=C4)C

$$$$
1JR_A_202
          07202405023D 1   1.00000     0.00000     0
            
 33 36  0  0  0  0            999 V2000
  -15.5298   78.9101    7.5489 O   0  0  0  0  0  0  0  0  0  0  0  0
  -17.0004   79.3513    4.7370 N   0  0  0  0  0  0  0  0  0  0  0  0
  -17.3487   80.0882    3.6555 N   0  0  0  0  0  0  0  0  0  0  0  0
  -11.7401   82.2166    4.0621 N   0  0  0  0  0  0  0  0  0  0  0  0
  -14.7337   81.0156    6.8855 N   0  0  0  0  0  0  0  0  0  0  0  0
  -11.6236   83.5525    3.9132 C   0  0  0  0  0  0  0  0  0  0  0  0
  -12.8498   81.7742    4.6997 C   0  0  0  0  0  0  0  0  0  0  0  0
  -12.5644   84.4606    4.3672 C   0  0  0  0  0  0  0  0  0  0  0  0
  -17.2289   84.3062    0.8377 C   0  0  0  0  0  0  0  0  0  0  0  0
  -17.6572   83.0029    0.5892 C   0  0  0  0  0  0  0  0  0  0  0  0
  -16.6337   84.6207    2.0608 C   0  0  0  0  0  0  0  0  0  0  0  0
  -13.6970   83.9746    5.0142 C   0  0  0  0  0  0  0  0  0  0  0  0
  -17.4836   82.0162    1.5660 C   0  0  0  0  0  0  0  0  0  0  0  0
  -16.4648   83.6371    3.0401 C   0  0  0  0  0  0  0  0  0  0  0  0
  -15.4987   79.8535    6.7802 C   0  0  0  0  0  0  0  0  0  0  0  0
  -16.1856   80.0361    5.5550 C   0  0  0  0  0  0  0  0  0  0  0  0
  -16.7165   81.2775    3.8071 C   0  0  0  0  0  0  0  0  0  0  0  0
  -15.0804   82.0618    5.8979 C   0  0  1  0  0  0  0  0  0  0  0  0
  -13.8701   82.5943    5.1822 C   0  0  0  0  0  0  0  0  0  0  0  0
  -16.8839   82.3201    2.7977 C   0  0  0  0  0  0  0  0  0  0  0  0
  -15.9680   81.2716    5.0045 C   0  0  0  0  0  0  0  0  0  0  0  0
  -17.3108   78.4156    4.9049 H   0  0  0  0  0  0  0  0  0  0  0  0
  -14.0133   81.1316    7.5694 H   0  0  0  0  0  0  0  0  0  0  0  0
  -10.8118   83.9064    3.4487 H   0  0  0  0  0  0  0  0  0  0  0  0
  -12.9449   80.7879    4.8345 H   0  0  0  0  0  0  0  0  0  0  0  0
  -12.4335   85.4430    4.2335 H   0  0  0  0  0  0  0  0  0  0  0  0
  -17.3477   85.0141    0.1415 H   0  0  0  0  0  0  0  0  0  0  0  0
  -18.0870   82.7741   -0.2843 H   0  0  0  0  0  0  0  0  0  0  0  0
  -16.3261   85.5556    2.2377 H   0  0  0  0  0  0  0  0  0  0  0  0
  -14.3873   84.6106    5.3591 H   0  0  0  0  0  0  0  0  0  0  0  0
  -17.7909   81.0822    1.3839 H   0  0  0  0  0  0  0  0  0  0  0  0
  -16.0440   83.8729    3.9161 H   0  0  0  0  0  0  0  0  0  0  0  0
  -15.5885   82.8047    6.3337 H   0  0  0  0  0  0  0  0  0  0  0  0
  1 15  2  0  0  0  0
  2  3  1  0  0  0  0
  2 16  1  0  0  0  0
  3 17  2  0  0  0  0
  4  6  2  0  0  0  0
  4  7  1  0  0  0  0
  5 15  1  0  0  0  0
  5 18  1  0  0  0  0
  6  8  1  0  0  0  0
  7 19  2  0  0  0  0
  8 12  2  0  0  0  0
  9 10  2  0  0  0  0
  9 11  1  0  0  0  0
 10 13  1  0  0  0  0
 11 14  2  0  0  0  0
 12 19  1  0  0  0  0
 13 20  2  0  0  0  0
 14 20  1  0  0  0  0
 15 16  1  0  0  0  0
 16 21  2  0  0  0  0
 17 20  1  0  0  0  0
 17 21  1  0  0  0  0
 18 19  1  0  0  0  0
 18 21  1  0  0  0  0
  2 22  1  0  0  0  0
  5 23  1  0  0  0  0
  6 24  1  0  0  0  0
  7 25  1  0  0  0  0
  8 26  1  0  0  0  0
  9 27  1  0  0  0  0
 10 28  1  0  0  0  0
 11 29  1  0  0  0  0
 12 30  1  0  0  0  0
 13 31  1  0  0  0  0
 14 32  1  0  0  0  0
 18 33  1  0  0  0  0
M  END
> <pdb_id>
4J93

> <uniprot_id>
Q79791

> <usmiles>
O=C1N[C@@H](c2cnccc2)C=3C(=NNC13)c4ccccc4

$$$$
1JX_A_501
          07202403123D 1   1.00000     0.00000     0
            
 21 22  0  0  0  0            999 V2000
   38.5757   11.2318   36.5892 O   0  0  0  0  0  0  0  0  0  0  0  0
   41.4972    7.7195   37.3598 N   0  0  0  0  0  0  0  0  0  0  0  0
   40.0887    9.5924   36.9648 N   0  0  0  0  0  0  0  0  0  0  0  0
   39.9333    8.9137   34.3110 N   0  0  0  0  0  0  0  0  0  0  0  0
   38.6522   10.9956   33.9297 C   0  0  0  0  0  0  0  0  0  0  0  0
   42.1797    6.5888   36.8959 C   0  0  0  0  0  0  0  0  0  0  0  0
   42.1129    6.2291   35.5553 C   0  0  0  0  0  0  0  0  0  0  0  0
   41.3626    7.0001   34.6792 C   0  0  0  0  0  0  0  0  0  0  0  0
   39.1530   10.2422   36.1432 C   0  0  0  0  0  0  0  0  0  0  0  0
   40.7741    8.4602   36.5098 C   0  0  0  0  0  0  0  0  0  0  0  0
   38.8655    9.7897   34.8487 C   0  0  2  0  0  0  0  0  0  0  0  0
   40.6947    8.1175   35.1664 C   0  0  0  0  0  0  0  0  0  0  0  0
   40.2670    9.9424   37.8844 H   0  0  0  0  0  0  0  0  0  0  0  0
   40.1093    8.8933   33.3269 H   0  0  0  0  0  0  0  0  0  0  0  0
   37.9300   11.5768   34.3046 H   0  0  0  0  0  0  0  0  0  0  0  0
   39.5015   11.5194   33.8646 H   0  0  0  0  0  0  0  0  0  0  0  0
   38.3859   10.6781   33.0196 H   0  0  0  0  0  0  0  0  0  0  0  0
   42.7183    6.0369   37.5327 H   0  0  0  0  0  0  0  0  0  0  0  0
   42.6013    5.4215   35.2249 H   0  0  0  0  0  0  0  0  0  0  0  0
   41.3033    6.7555   33.7113 H   0  0  0  0  0  0  0  0  0  0  0  0
   38.0149    9.2648   34.8809 H   0  0  0  0  0  0  0  0  0  0  0  0
  1  9  2  0  0  0  0
  2  6  1  0  0  0  0
  2 10  2  0  0  0  0
  3  9  1  0  0  0  0
  3 10  1  0  0  0  0
  4 11  1  0  0  0  0
  4 12  1  0  0  0  0
  5 11  1  0  0  0  0
  6  7  2  0  0  0  0
  7  8  1  0  0  0  0
  8 12  2  0  0  0  0
  9 11  1  0  0  0  0
 10 12  1  0  0  0  0
  3 13  1  0  0  0  0
  4 14  1  0  0  0  0
  5 15  1  0  0  0  0
  5 16  1  0  0  0  0
  5 17  1  0  0  0  0
  6 18  1  0  0  0  0
  7 19  1  0  0  0  0
  8 20  1  0  0  0  0
 11 21  1  0  0  0  0
M  END
> <pdb_id>
4J71

> <uniprot_id>
P49841

> <usmiles>
O=C1Nc2ncccc2N[C@@H]1C

$$$$
1K3_A_1201
          07202414163D 1   1.00000     0.00000     0
            
 57 61  0  0  0  0            999 V2000
   56.2539   -6.8212   29.4759 O   0  0  0  0  0  0  0  0  0  0  0  0
   52.0594  -10.9113   31.5102 N   0  0  0  0  0  0  0  0  0  0  0  0
   50.1448  -12.1064   31.6858 N   0  0  0  0  0  0  0  0  0  0  0  0
   51.7213  -12.2648   33.4536 N   0  0  0  0  0  0  0  0  0  0  0  0
   51.2124  -10.7395   30.4254 N   0  0  0  0  0  0  0  0  0  0  0  0
   58.1544  -10.2709   38.2698 N   0  0  0  0  0  0  0  0  0  0  0  0
   56.1802  -11.1739   36.6039 N   0  0  0  0  0  0  0  0  0  0  0  0
   57.0836   -6.5869   28.3395 C   0  0  0  0  0  0  0  0  0  0  0  0
   58.9362   -9.5105   39.2391 C   0  0  0  0  0  0  0  0  0  0  0  0
   57.6861   -9.3669   37.2347 C   0  0  0  0  0  0  0  0  0  0  0  0
   56.9878  -10.8521   38.9173 C   0  0  0  0  0  0  0  0  0  0  0  0
   57.2219  -10.2705   36.1064 C   0  0  0  0  0  0  0  0  0  0  0  0
   56.3638  -11.8182   37.9121 C   0  0  0  0  0  0  0  0  0  0  0  0
   49.4014  -10.5475   28.3992 C   0  0  0  0  0  0  0  0  0  0  0  0
   49.1400  -11.3608   29.4975 C   0  0  0  0  0  0  0  0  0  0  0  0
   54.6673   -8.1796   28.1871 C   0  0  0  0  0  0  0  0  0  0  0  0
   54.3716   -7.7813   30.5482 C   0  0  0  0  0  0  0  0  0  0  0  0
   53.8217  -11.1021   33.7777 C   0  0  0  0  0  0  0  0  0  0  0  0
   52.9519  -12.5601   35.4461 C   0  0  0  0  0  0  0  0  0  0  0  0
   54.9264  -10.8494   34.5719 C   0  0  0  0  0  0  0  0  0  0  0  0
   54.0604  -12.3147   36.2501 C   0  0  0  0  0  0  0  0  0  0  0  0
   50.5872   -9.8338   28.3396 C   0  0  0  0  0  0  0  0  0  0  0  0
   53.4985   -8.9451   28.1623 C   0  0  0  0  0  0  0  0  0  0  0  0
   53.2081   -8.5377   30.5218 C   0  0  0  0  0  0  0  0  0  0  0  0
   51.3371  -11.7709   32.2327 C   0  0  0  0  0  0  0  0  0  0  0  0
   50.0761  -11.4292   30.5162 C   0  0  0  0  0  0  0  0  0  0  0  0
   55.1079   -7.5861   29.3828 C   0  0  0  0  0  0  0  0  0  0  0  0
   52.8204  -11.9581   34.2027 C   0  0  0  0  0  0  0  0  0  0  0  0
   55.0735  -11.4453   35.8266 C   0  0  0  0  0  0  0  0  0  0  0  0
   51.5033   -9.9374   29.3820 C   0  0  0  0  0  0  0  0  0  0  0  0
   52.7695   -9.1494   29.3408 C   0  0  0  0  0  0  0  0  0  0  0  0
   51.1084  -12.9473   33.8517 H   0  0  0  0  0  0  0  0  0  0  0  0
   57.8596   -6.0150   28.6055 H   0  0  0  0  0  0  0  0  0  0  0  0
   57.4188   -7.4601   27.9858 H   0  0  0  0  0  0  0  0  0  0  0  0
   56.5540   -6.1213   27.6304 H   0  0  0  0  0  0  0  0  0  0  0  0
   59.2643  -10.1240   39.9575 H   0  0  0  0  0  0  0  0  0  0  0  0
   59.7173   -9.0879   38.7794 H   0  0  0  0  0  0  0  0  0  0  0  0
   58.3630   -8.7986   39.6448 H   0  0  0  0  0  0  0  0  0  0  0  0
   58.4277   -8.7714   36.9260 H   0  0  0  0  0  0  0  0  0  0  0  0
   56.9284   -8.8082   37.5722 H   0  0  0  0  0  0  0  0  0  0  0  0
   56.3339  -10.1347   39.1575 H   0  0  0  0  0  0  0  0  0  0  0  0
   57.2617  -11.3439   39.7438 H   0  0  0  0  0  0  0  0  0  0  0  0
   56.8529   -9.7129   35.3627 H   0  0  0  0  0  0  0  0  0  0  0  0
   57.9954  -10.8068   35.7687 H   0  0  0  0  0  0  0  0  0  0  0  0
   56.9640  -12.6108   37.8046 H   0  0  0  0  0  0  0  0  0  0  0  0
   55.4741  -12.1182   38.2563 H   0  0  0  0  0  0  0  0  0  0  0  0
   48.7360  -10.4784   27.6560 H   0  0  0  0  0  0  0  0  0  0  0  0
   48.2911  -11.8867   29.5504 H   0  0  0  0  0  0  0  0  0  0  0  0
   55.1949   -8.0529   27.3471 H   0  0  0  0  0  0  0  0  0  0  0  0
   54.6822   -7.3750   31.4075 H   0  0  0  0  0  0  0  0  0  0  0  0
   53.7458  -10.6601   32.8839 H   0  0  0  0  0  0  0  0  0  0  0  0
   52.2377  -13.1808   35.7697 H   0  0  0  0  0  0  0  0  0  0  0  0
   55.6350  -10.2265   34.2403 H   0  0  0  0  0  0  0  0  0  0  0  0
   54.1346  -12.7641   37.1404 H   0  0  0  0  0  0  0  0  0  0  0  0
   50.7835   -9.2483   27.5531 H   0  0  0  0  0  0  0  0  0  0  0  0
   53.1824   -9.3471   27.3030 H   0  0  0  0  0  0  0  0  0  0  0  0
   52.6742   -8.6477   31.3601 H   0  0  0  0  0  0  0  0  0  0  0  0
  1  8  1  0  0  0  0
  1 27  1  0  0  0  0
  2  5  1  0  0  0  0
  2 25  2  0  0  0  0
  3 25  1  0  0  0  0
  3 26  2  0  0  0  0
  4 25  1  0  0  0  0
  4 28  1  0  0  0  0
  5 26  1  0  0  0  0
  5 30  1  0  0  0  0
  6  9  1  0  0  0  0
  6 10  1  0  0  0  0
  6 11  1  0  0  0  0
  7 12  1  0  0  0  0
  7 13  1  0  0  0  0
  7 29  1  0  0  0  0
 10 12  1  0  0  0  0
 11 13  1  0  0  0  0
 14 15  2  0  0  0  0
 14 22  1  0  0  0  0
 15 26  1  0  0  0  0
 16 23  2  0  0  0  0
 16 27  1  0  0  0  0
 17 24  1  0  0  0  0
 17 27  2  0  0  0  0
 18 20  1  0  0  0  0
 18 28  2  0  0  0  0
 19 21  2  0  0  0  0
 19 28  1  0  0  0  0
 20 29  2  0  0  0  0
 21 29  1  0  0  0  0
 22 30  2  0  0  0  0
 23 31  1  0  0  0  0
 24 31  2  0  0  0  0
 30 31  1  0  0  0  0
  4 32  1  0  0  0  0
  8 33  1  0  0  0  0
  8 34  1  0  0  0  0
  8 35  1  0  0  0  0
  9 36  1  0  0  0  0
  9 37  1  0  0  0  0
  9 38  1  0  0  0  0
 10 39  1  0  0  0  0
 10 40  1  0  0  0  0
 11 41  1  0  0  0  0
 11 42  1  0  0  0  0
 12 43  1  0  0  0  0
 12 44  1  0  0  0  0
 13 45  1  0  0  0  0
 13 46  1  0  0  0  0
 14 47  1  0  0  0  0
 15 48  1  0  0  0  0
 16 49  1  0  0  0  0
 17 50  1  0  0  0  0
 18 51  1  0  0  0  0
 19 52  1  0  0  0  0
 20 53  1  0  0  0  0
 21 54  1  0  0  0  0
 22 55  1  0  0  0  0
 23 56  1  0  0  0  0
 24 57  1  0  0  0  0
M  END
> <pdb_id>
4JIA

> <uniprot_id>
O60674

> <usmiles>
O(c1ccc(cc1)C=2N3N=C(N=C3C=CC2)Nc4ccc(N5CCN(CC5)C)cc4)C

$$$$
1LH_A_1721
          07192422303D 1   1.00000     0.00000     0
            
 57 58  0  0  0  0            999 V2000
    5.1890   17.5050  -39.4980 Cl  0  0  0  0  0  0  0  0  0  0  0  0
    3.1470   13.2370  -41.3120 F   0  0  0  0  0  0  0  0  0  0  0  0
   -0.5270   14.0170  -38.1870 O   0  0  0  0  0  0  0  0  0  0  0  0
    5.3080   14.5580  -40.3940 O   0  0  0  0  0  0  0  0  0  0  0  0
   -3.7090   15.8510  -36.1020 N   0  3  0  0  0  0  0  0  0  0  0  0
   -2.6690   13.5670  -37.6630 N   0  0  0  0  0  0  0  0  0  0  0  0
    0.3180   13.0290  -40.7840 N   0  3  0  0  0  0  0  0  0  0  0  0
    0.6250   15.0930  -43.9980 C   0  0  0  0  0  0  0  0  0  0  0  0
   -1.0120   11.0810  -40.0140 C   0  0  0  0  0  0  0  0  0  0  0  0
    7.2550   13.5800  -36.8780 C   0  0  0  0  0  0  0  0  0  0  0  0
    5.9630   14.0450  -36.7850 C   0  0  0  0  0  0  0  0  0  0  0  0
    7.8580   13.4530  -38.1100 C   0  0  0  0  0  0  0  0  0  0  0  0
    2.6330   17.1410  -40.2090 C   0  0  0  0  0  0  0  0  0  0  0  0
    5.2640   14.3870  -37.9300 C   0  0  0  0  0  0  0  0  0  0  0  0
    7.1670   13.7920  -39.2580 C   0  0  0  0  0  0  0  0  0  0  0  0
    1.5490   16.4250  -40.6860 C   0  0  0  0  0  0  0  0  0  0  0  0
   -3.6190   14.4660  -35.5810 C   0  0  0  0  0  0  0  0  0  0  0  0
   -2.4760   13.7190  -36.2320 C   0  0  0  0  0  0  0  0  0  0  0  0
    0.6720   13.9110  -43.0580 C   0  0  0  0  0  0  0  0  0  0  0  0
   -2.0150   13.4090  -39.9670 C   0  0  0  0  0  0  0  0  0  0  0  0
    3.8810   16.5450  -40.1040 C   0  0  0  0  0  0  0  0  0  0  0  0
   -1.6630   13.6930  -38.5260 C   0  0  0  0  0  0  0  0  0  0  0  0
    2.9870   14.5200  -40.9480 C   0  0  0  0  0  0  0  0  0  0  0  0
    5.8700   14.2600  -39.1690 C   0  0  0  0  0  0  0  0  0  0  0  0
    4.0830   15.2180  -40.4730 C   0  0  0  0  0  0  0  0  0  0  0  0
    1.7030   15.0960  -41.0670 C   0  0  0  0  0  0  0  0  0  0  0  0
   -1.0690   12.4440  -40.6880 C   0  0  1  0  0  0  0  0  0  0  0  0
    0.5230   14.2910  -41.5940 C   0  0  2  0  0  0  0  0  0  0  0  0
   -2.8910   16.2640  -36.0480 H   0  0  0  0  0  0  0  0  0  0  0  0
   -3.9790   15.8440  -36.9790 H   0  0  0  0  0  0  0  0  0  0  0  0
   -4.3140   16.3350  -35.6130 H   0  0  0  0  0  0  0  0  0  0  0  0
   -3.4710   13.3870  -37.9590 H   0  0  0  0  0  0  0  0  0  0  0  0
    0.8660   12.3820  -41.1370 H   0  0  0  0  0  0  0  0  0  0  0  0
    0.6050   13.1980  -39.9320 H   0  0  0  0  0  0  0  0  0  0  0  0
    0.4610   14.7800  -44.9090 H   0  0  0  0  0  0  0  0  0  0  0  0
   -0.0940   15.6970  -43.7280 H   0  0  0  0  0  0  0  0  0  0  0  0
    1.4780   15.5690  -43.9670 H   0  0  0  0  0  0  0  0  0  0  0  0
   -0.4750   11.1410  -39.2030 H   0  0  0  0  0  0  0  0  0  0  0  0
   -1.9170   10.7920  -39.7850 H   0  0  0  0  0  0  0  0  0  0  0  0
   -0.6110   10.4350  -40.6210 H   0  0  0  0  0  0  0  0  0  0  0  0
    7.7300   13.3470  -36.0950 H   0  0  0  0  0  0  0  0  0  0  0  0
    5.5520   14.1310  -35.9380 H   0  0  0  0  0  0  0  0  0  0  0  0
    8.7450   13.1330  -38.1710 H   0  0  0  0  0  0  0  0  0  0  0  0
    2.5230   18.0410  -39.9520 H   0  0  0  0  0  0  0  0  0  0  0  0
    4.3780   14.7070  -37.8660 H   0  0  0  0  0  0  0  0  0  0  0  0
    7.5800   13.7050  -40.1000 H   0  0  0  0  0  0  0  0  0  0  0  0
    0.7060   16.8380  -40.7530 H   0  0  0  0  0  0  0  0  0  0  0  0
   -4.4620   14.0110  -35.7670 H   0  0  0  0  0  0  0  0  0  0  0  0
   -3.4920   14.4990  -34.6120 H   0  0  0  0  0  0  0  0  0  0  0  0
   -2.3960   12.8330  -35.8240 H   0  0  0  0  0  0  0  0  0  0  0  0
   -1.6470   14.2000  -36.0720 H   0  0  0  0  0  0  0  0  0  0  0  0
   -0.0460   13.2900  -43.2960 H   0  0  0  0  0  0  0  0  0  0  0  0
    1.5240   13.4470  -43.1780 H   0  0  0  0  0  0  0  0  0  0  0  0
   -2.0270   14.2560  -40.4540 H   0  0  0  0  0  0  0  0  0  0  0  0
   -2.9190   13.0370  -39.9970 H   0  0  0  0  0  0  0  0  0  0  0  0
   -1.3950   12.3160  -41.6100 H   0  0  0  0  0  0  0  0  0  0  0  0
   -0.2860   14.8420  -41.5040 H   0  0  0  0  0  0  0  0  0  0  0  0
  1 21  1  0  0  0  0
  2 23  1  0  0  0  0
  3 22  2  0  0  0  0
  4 24  1  0  0  0  0
  4 25  1  0  0  0  0
  5 17  1  0  0  0  0
  5 29  1  0  0  0  0
  5 30  1  0  0  0  0
  5 31  1  0  0  0  0
  6 18  1  0  0  0  0
  6 22  1  0  0  0  0
  6 32  1  0  0  0  0
  7 27  1  0  0  0  0
  7 28  1  0  0  0  0
  7 33  1  0  0  0  0
  7 34  1  0  0  0  0
  8 19  1  0  0  0  0
  8 35  1  0  0  0  0
  8 36  1  0  0  0  0
  8 37  1  0  0  0  0
  9 27  1  0  0  0  0
  9 38  1  0  0  0  0
  9 39  1  0  0  0  0
  9 40  1  0  0  0  0
 10 11  2  0  0  0  0
 10 12  1  0  0  0  0
 10 41  1  0  0  0  0
 11 14  1  0  0  0  0
 11 42  1  0  0  0  0
 12 15  2  0  0  0  0
 12 43  1  0  0  0  0
 13 16  2  0  0  0  0
 13 21  1  0  0  0  0
 13 44  1  0  0  0  0
 14 24  2  0  0  0  0
 14 45  1  0  0  0  0
 15 24  1  0  0  0  0
 15 46  1  0  0  0  0
 16 26  1  0  0  0  0
 16 47  1  0  0  0  0
 17 18  1  0  0  0  0
 17 48  1  0  0  0  0
 17 49  1  0  0  0  0
 18 50  1  0  0  0  0
 18 51  1  0  0  0  0
 19 28  1  0  0  0  0
 19 52  1  0  0  0  0
 19 53  1  0  0  0  0
 20 22  1  0  0  0  0
 20 27  1  0  0  0  0
 20 54  1  0  0  0  0
 20 55  1  0  0  0  0
 21 25  2  0  0  0  0
 23 25  1  0  0  0  0
 23 26  2  0  0  0  0
 26 28  1  0  0  0  0
 27 56  1  0  0  0  0
 28 57  1  0  0  0  0
M  CHG  2   5   1   7   1
M  END
> <pdb_id>
4B74

> <uniprot_id>
P26663

> <usmiles>
Clc1c(Oc2ccccc2)c(F)c(cc1)[C@H]([NH2+][C@H](CC(=O)NCC[NH3+])C)CC

$$$$
1LJ_A_601
          07202407493D 1   1.00000     0.00000     0
            
 45 47  0  0  0  0            999 V2000
    7.5803   -1.9335   47.3643 S   0  0  0  0  0  0  0  0  0  0  0  0
    6.1820   -2.1834   47.3666 O   0  0  0  0  0  0  0  0  0  0  0  0
    8.1517   -0.7130   46.9160 O   0  0  0  0  0  0  0  0  0  0  0  0
    8.3825   -7.0783   43.0902 O   0  0  0  0  0  0  0  0  0  0  0  0
   11.5330   -7.3864   36.4051 N   0  0  0  0  0  0  0  0  0  0  0  0
   10.3839   -7.8226   42.4992 N   0  0  0  0  0  0  0  0  0  0  0  0
    9.9561   -8.3171   37.8751 N   0  0  0  0  0  0  0  0  0  0  0  0
   10.1906   -6.1098   44.0413 N   0  0  0  0  0  0  0  0  0  0  0  0
    9.8124   -8.7955   41.5676 C   0  0  0  0  0  0  0  0  0  0  0  0
    9.5273   -8.6585   39.0761 C   0  0  0  0  0  0  0  0  0  0  0  0
    8.9557   -2.5599   51.6298 C   0  0  0  0  0  0  0  0  0  0  0  0
    7.6137   -2.6636   51.3124 C   0  0  0  0  0  0  0  0  0  0  0  0
    9.8800   -2.2637   50.6460 C   0  0  0  0  0  0  0  0  0  0  0  0
    7.1965   -2.4710   50.0091 C   0  0  0  0  0  0  0  0  0  0  0  0
    9.4618   -2.0722   49.3425 C   0  0  0  0  0  0  0  0  0  0  0  0
    9.5548   -2.9517   45.7914 C   0  0  0  0  0  0  0  0  0  0  0  0
    7.7043   -4.4118   46.2083 C   0  0  0  0  0  0  0  0  0  0  0  0
   11.9560   -7.4421   38.7738 C   0  0  0  0  0  0  0  0  0  0  0  0
   10.1526   -3.9289   45.0216 C   0  0  0  0  0  0  0  0  0  0  0  0
    8.3006   -5.3950   45.4403 C   0  0  0  0  0  0  0  0  0  0  0  0
   11.5343   -7.7900   40.0443 C   0  0  0  0  0  0  0  0  0  0  0  0
    9.5930   -6.9975   43.2124 C   0  0  0  0  0  0  0  0  0  0  0  0
    8.1200   -2.1758   49.0241 C   0  0  0  0  0  0  0  0  0  0  0  0
    8.3301   -3.1926   46.3851 C   0  0  0  0  0  0  0  0  0  0  0  0
   11.1275   -7.7257   37.6907 C   0  0  0  0  0  0  0  0  0  0  0  0
    9.5316   -5.1582   44.8368 C   0  0  0  0  0  0  0  0  0  0  0  0
   10.2974   -8.4116   40.1938 C   0  0  0  0  0  0  0  0  0  0  0  0
   12.4161   -6.9399   36.2608 H   0  0  0  0  0  0  0  0  0  0  0  0
   10.9416   -7.5887   35.6245 H   0  0  0  0  0  0  0  0  0  0  0  0
   11.3765   -7.7695   42.6082 H   0  0  0  0  0  0  0  0  0  0  0  0
   11.1890   -6.1336   44.0918 H   0  0  0  0  0  0  0  0  0  0  0  0
    8.8136   -8.7616   41.6030 H   0  0  0  0  0  0  0  0  0  0  0  0
   10.1231   -9.7177   41.7981 H   0  0  0  0  0  0  0  0  0  0  0  0
    8.6357   -9.1002   39.1766 H   0  0  0  0  0  0  0  0  0  0  0  0
    9.2578   -2.6995   52.5728 H   0  0  0  0  0  0  0  0  0  0  0  0
    6.9458   -2.8776   52.0252 H   0  0  0  0  0  0  0  0  0  0  0  0
   10.8500   -2.1881   50.8768 H   0  0  0  0  0  0  0  0  0  0  0  0
    6.2262   -2.5453   49.7787 H   0  0  0  0  0  0  0  0  0  0  0  0
   10.1296   -1.8586   48.6295 H   0  0  0  0  0  0  0  0  0  0  0  0
   10.0077   -2.0693   45.9195 H   0  0  0  0  0  0  0  0  0  0  0  0
    6.8175   -4.5837   46.6372 H   0  0  0  0  0  0  0  0  0  0  0  0
   12.8397   -6.9951   38.6353 H   0  0  0  0  0  0  0  0  0  0  0  0
   11.0389   -3.7511   44.5940 H   0  0  0  0  0  0  0  0  0  0  0  0
    7.8463   -6.2775   45.3184 H   0  0  0  0  0  0  0  0  0  0  0  0
   12.1074   -7.5985   40.8411 H   0  0  0  0  0  0  0  0  0  0  0  0
  1  2  2  0  0  0  0
  1  3  2  0  0  0  0
  1 23  1  0  0  0  0
  1 24  1  0  0  0  0
  4 22  2  0  0  0  0
  5 25  1  0  0  0  0
  6  9  1  0  0  0  0
  6 22  1  0  0  0  0
  7 10  1  0  0  0  0
  7 25  2  0  0  0  0
  8 22  1  0  0  0  0
  8 26  1  0  0  0  0
  9 27  1  0  0  0  0
 10 27  2  0  0  0  0
 11 12  2  0  0  0  0
 11 13  1  0  0  0  0
 12 14  1  0  0  0  0
 13 15  2  0  0  0  0
 14 23  2  0  0  0  0
 15 23  1  0  0  0  0
 16 19  1  0  0  0  0
 16 24  2  0  0  0  0
 17 20  2  0  0  0  0
 17 24  1  0  0  0  0
 18 21  2  0  0  0  0
 18 25  1  0  0  0  0
 19 26  2  0  0  0  0
 20 26  1  0  0  0  0
 21 27  1  0  0  0  0
  5 28  1  0  0  0  0
  5 29  1  0  0  0  0
  6 30  1  0  0  0  0
  8 31  1  0  0  0  0
  9 32  1  0  0  0  0
  9 33  1  0  0  0  0
 10 34  1  0  0  0  0
 11 35  1  0  0  0  0
 12 36  1  0  0  0  0
 13 37  1  0  0  0  0
 14 38  1  0  0  0  0
 15 39  1  0  0  0  0
 16 40  1  0  0  0  0
 17 41  1  0  0  0  0
 18 42  1  0  0  0  0
 19 43  1  0  0  0  0
 20 44  1  0  0  0  0
 21 45  1  0  0  0  0
M  END
> <pdb_id>
4JNM

> <uniprot_id>
P43490

> <usmiles>
S(=O)(=O)(c1ccc(NC(=O)NCc2cnc(N)cc2)cc1)c3ccccc3

$$$$
1LM_A_302
          07202407043D 1   1.00000     0.00000     0
            
 19 20  0  0  0  0            999 V2000
   30.8174   89.6669   43.8398 N   0  0  0  0  0  0  0  0  0  0  0  0
   33.2447   89.6860   47.2726 N   0  0  0  0  0  0  0  0  0  0  0  0
   33.6324   89.0217   46.1517 C   0  0  0  0  0  0  0  0  0  0  0  0
   30.4767   91.7490   48.4987 C   0  0  0  0  0  0  0  0  0  0  0  0
   29.6487   91.7239   47.3679 C   0  0  0  0  0  0  0  0  0  0  0  0
   32.8666   89.0296   44.9943 C   0  0  0  0  0  0  0  0  0  0  0  0
   31.6911   91.1108   48.4856 C   0  0  0  0  0  0  0  0  0  0  0  0
   30.0121   91.0494   46.2183 C   0  0  0  0  0  0  0  0  0  0  0  0
   31.6332   89.6716   45.0087 C   0  0  0  0  0  0  0  0  0  0  0  0
   32.0634   90.4046   47.2937 C   0  0  0  0  0  0  0  0  0  0  0  0
   31.2646   90.3838   46.1836 C   0  0  0  0  0  0  0  0  0  0  0  0
   29.9300   90.1279   43.8476 H   0  0  0  0  0  0  0  0  0  0  0  0
   31.1325   89.2027   43.0120 H   0  0  0  0  0  0  0  0  0  0  0  0
   34.4933   88.5131   46.1614 H   0  0  0  0  0  0  0  0  0  0  0  0
   30.1802   92.2354   49.3206 H   0  0  0  0  0  0  0  0  0  0  0  0
   28.7731   92.2063   47.3940 H   0  0  0  0  0  0  0  0  0  0  0  0
   33.1964   88.5810   44.1637 H   0  0  0  0  0  0  0  0  0  0  0  0
   32.2969   91.1369   49.2808 H   0  0  0  0  0  0  0  0  0  0  0  0
   29.4035   91.0307   45.4251 H   0  0  0  0  0  0  0  0  0  0  0  0
  1  9  1  0  0  0  0
  2  3  2  0  0  0  0
  2 10  1  0  0  0  0
  3  6  1  0  0  0  0
  4  5  2  0  0  0  0
  4  7  1  0  0  0  0
  5  8  1  0  0  0  0
  6  9  2  0  0  0  0
  7 10  2  0  0  0  0
  8 11  2  0  0  0  0
  9 11  1  0  0  0  0
 10 11  1  0  0  0  0
  1 12  1  0  0  0  0
  1 13  1  0  0  0  0
  3 14  1  0  0  0  0
  4 15  1  0  0  0  0
  5 16  1  0  0  0  0
  6 17  1  0  0  0  0
  7 18  1  0  0  0  0
  8 19  1  0  0  0  0
M  END
> <pdb_id>
4JQJ

> <uniprot_id>
B3LRE1

> <usmiles>
n1c2c(c(N)cc1)cccc2

$$$$
1LQ_A_301
          07202407043D 1   1.00000     0.00000     0
            
 18 19  0  0  0  0            999 V2000
   31.0762   89.5175   43.8714 N   0  0  0  0  0  0  0  0  0  0  0  0
   32.9219   88.8801   45.2045 N   0  0  0  0  0  0  0  0  0  0  0  0
   33.2094   89.5563   47.4277 N   0  0  0  0  0  0  0  0  0  0  0  0
   33.6269   88.8766   46.3531 C   0  0  0  0  0  0  0  0  0  0  0  0
   30.4199   91.7143   48.5219 C   0  0  0  0  0  0  0  0  0  0  0  0
   29.6518   91.7429   47.3609 C   0  0  0  0  0  0  0  0  0  0  0  0
   31.6045   90.9926   48.5515 C   0  0  0  0  0  0  0  0  0  0  0  0
   30.0662   91.0480   46.2305 C   0  0  0  0  0  0  0  0  0  0  0  0
   31.7682   89.5652   45.1158 C   0  0  0  0  0  0  0  0  0  0  0  0
   32.0297   90.2774   47.3971 C   0  0  0  0  0  0  0  0  0  0  0  0
   31.2884   90.3006   46.2518 C   0  0  0  0  0  0  0  0  0  0  0  0
   30.2142   90.0118   43.7594 H   0  0  0  0  0  0  0  0  0  0  0  0
   31.4525   88.9897   43.1100 H   0  0  0  0  0  0  0  0  0  0  0  0
   34.4791   88.3557   46.4034 H   0  0  0  0  0  0  0  0  0  0  0  0
   30.1179   92.2136   49.3340 H   0  0  0  0  0  0  0  0  0  0  0  0
   28.7992   92.2650   47.3402 H   0  0  0  0  0  0  0  0  0  0  0  0
   32.1591   90.9751   49.3834 H   0  0  0  0  0  0  0  0  0  0  0  0
   29.5096   91.0699   45.4000 H   0  0  0  0  0  0  0  0  0  0  0  0
  1  9  1  0  0  0  0
  2  4  1  0  0  0  0
  2  9  2  0  0  0  0
  3  4  2  0  0  0  0
  3 10  1  0  0  0  0
  5  6  2  0  0  0  0
  5  7  1  0  0  0  0
  6  8  1  0  0  0  0
  7 10  2  0  0  0  0
  8 11  2  0  0  0  0
  9 11  1  0  0  0  0
 10 11  1  0  0  0  0
  1 12  1  0  0  0  0
  1 13  1  0  0  0  0
  4 14  1  0  0  0  0
  5 15  1  0  0  0  0
  6 16  1  0  0  0  0
  7 17  1  0  0  0  0
  8 18  1  0  0  0  0
M  END
> <pdb_id>
4NVD

> <uniprot_id>
B3LRE1

> <usmiles>
n1c(N)c2c(nc1)cccc2

$$$$
1LQ_A_401
          07192421293D 1   1.00000     0.00000     0
            
 18 19  0  0  0  0            999 V2000
    3.2165   10.4325    2.0156 N   0  0  0  0  0  0  0  0  0  0  0  0
    3.2435   10.4505    4.3281 N   0  0  0  0  0  0  0  0  0  0  0  0
    5.2672   10.5985    5.5962 N   0  0  0  0  0  0  0  0  0  0  0  0
    3.9546   10.5163    5.4562 C   0  0  0  0  0  0  0  0  0  0  0  0
    8.1443   10.5460    3.3541 C   0  0  0  0  0  0  0  0  0  0  0  0
    7.5391   10.4963    2.1062 C   0  0  0  0  0  0  0  0  0  0  0  0
    7.3939   10.6051    4.4964 C   0  0  0  0  0  0  0  0  0  0  0  0
    6.1798   10.4956    1.9954 C   0  0  0  0  0  0  0  0  0  0  0  0
    3.9147   10.4692    3.1620 C   0  0  0  0  0  0  0  0  0  0  0  0
    5.9806   10.6008    4.4234 C   0  0  0  0  0  0  0  0  0  0  0  0
    5.3590   10.5406    3.1493 C   0  0  0  0  0  0  0  0  0  0  0  0
    3.6955   10.4455    1.1379 H   0  0  0  0  0  0  0  0  0  0  0  0
    2.2176   10.3921    2.0397 H   0  0  0  0  0  0  0  0  0  0  0  0
    3.4264   10.5014    6.3052 H   0  0  0  0  0  0  0  0  0  0  0  0
    9.1422   10.5386    3.4191 H   0  0  0  0  0  0  0  0  0  0  0  0
    8.1041   10.4606    1.2818 H   0  0  0  0  0  0  0  0  0  0  0  0
    7.8462   10.6515    5.3871 H   0  0  0  0  0  0  0  0  0  0  0  0
    5.7577   10.4629    1.0894 H   0  0  0  0  0  0  0  0  0  0  0  0
  1  9  1  0  0  0  0
  2  4  1  0  0  0  0
  2  9  2  0  0  0  0
  3  4  2  0  0  0  0
  3 10  1  0  0  0  0
  5  6  2  0  0  0  0
  5  7  1  0  0  0  0
  6  8  1  0  0  0  0
  7 10  2  0  0  0  0
  8 11  2  0  0  0  0
  9 11  1  0  0  0  0
 10 11  1  0  0  0  0
  1 12  1  0  0  0  0
  1 13  1  0  0  0  0
  4 14  1  0  0  0  0
  5 15  1  0  0  0  0
  6 16  1  0  0  0  0
  7 17  1  0  0  0  0
  8 18  1  0  0  0  0
M  END
> <pdb_id>
6Y0B

> <uniprot_id>
P25321

> <usmiles>
n1c(N)c2c(nc1)cccc2

$$$$
1LQ_C_1382
          07192416553D 1   1.00000     0.00000     0
            
 18 19  0  0  0  0            999 V2000
  203.9710   -4.5742   64.5178 N   0  0  0  0  0  0  0  0  0  0  0  0
  202.7490   -4.1519   62.5938 N   0  0  0  0  0  0  0  0  0  0  0  0
  202.1762   -5.8996   61.0490 N   0  0  0  0  0  0  0  0  0  0  0  0
  202.1864   -4.6421   61.4872 C   0  0  0  0  0  0  0  0  0  0  0  0
  203.4541   -9.1286   62.1803 C   0  0  0  0  0  0  0  0  0  0  0  0
  204.1054   -8.7918   63.3560 C   0  0  0  0  0  0  0  0  0  0  0  0
  202.8238   -8.1727   61.4292 C   0  0  0  0  0  0  0  0  0  0  0  0
  204.1324   -7.4952   63.7896 C   0  0  0  0  0  0  0  0  0  0  0  0
  203.4093   -5.0582   63.3913 C   0  0  0  0  0  0  0  0  0  0  0  0
  202.8255   -6.8159   61.8415 C   0  0  0  0  0  0  0  0  0  0  0  0
  203.4879   -6.4635   63.0523 C   0  0  0  0  0  0  0  0  0  0  0  0
  204.4634   -5.1882   65.1347 H   0  0  0  0  0  0  0  0  0  0  0  0
  203.8951   -3.6013   64.7363 H   0  0  0  0  0  0  0  0  0  0  0  0
  201.7098   -3.9778   60.9115 H   0  0  0  0  0  0  0  0  0  0  0  0
  203.4442  -10.0813   61.8766 H   0  0  0  0  0  0  0  0  0  0  0  0
  204.5597   -9.5032   63.8922 H   0  0  0  0  0  0  0  0  0  0  0  0
  202.3586   -8.4335   60.5833 H   0  0  0  0  0  0  0  0  0  0  0  0
  204.6123   -7.2690   64.6373 H   0  0  0  0  0  0  0  0  0  0  0  0
  1  9  1  0  0  0  0
  2  4  1  0  0  0  0
  2  9  2  0  0  0  0
  3  4  2  0  0  0  0
  3 10  1  0  0  0  0
  5  6  2  0  0  0  0
  5  7  1  0  0  0  0
  6  8  1  0  0  0  0
  7 10  2  0  0  0  0
  8 11  2  0  0  0  0
  9 11  1  0  0  0  0
 10 11  1  0  0  0  0
  1 12  1  0  0  0  0
  1 13  1  0  0  0  0
  4 14  1  0  0  0  0
  5 15  1  0  0  0  0
  6 16  1  0  0  0  0
  7 17  1  0  0  0  0
  8 18  1  0  0  0  0
M  END
> <pdb_id>
5AQP

> <uniprot_id>
P11142

> <usmiles>
n1c(N)c2c(nc1)cccc2

$$$$
1LS_A_601
          07202407493D 1   1.00000     0.00000     0
            
 48 50  0  0  0  0            999 V2000
    8.1775   -7.3469   43.0012 S   0  0  0  0  0  0  0  0  0  0  0  0
    7.3415   -2.3091   47.2444 S   0  0  0  0  0  0  0  0  0  0  0  0
    7.2715   -1.0861   46.5209 O   0  0  0  0  0  0  0  0  0  0  0  0
    6.1897   -2.9945   47.6916 O   0  0  0  0  0  0  0  0  0  0  0  0
   10.1737   -8.2878   37.3656 N   0  0  0  0  0  0  0  0  0  0  0  0
   10.6659   -7.5865   42.0564 N   0  0  0  0  0  0  0  0  0  0  0  0
   10.3868   -6.0280   43.7416 N   0  0  0  0  0  0  0  0  0  0  0  0
    8.3942   -2.0758   48.4955 N   0  0  0  0  0  0  0  0  0  0  0  0
   11.3012   -7.6405   37.0999 C   0  0  0  0  0  0  0  0  0  0  0  0
    9.8056   -8.5765   38.6044 C   0  0  0  0  0  0  0  0  0  0  0  0
   10.1372   -8.5713   41.1087 C   0  0  0  0  0  0  0  0  0  0  0  0
    8.2151   -2.8618   49.7277 C   0  0  0  0  0  0  0  0  0  0  0  0
    9.5108   -1.1234   48.3036 C   0  0  0  0  0  0  0  0  0  0  0  0
   12.1352   -7.2387   38.1311 C   0  0  0  0  0  0  0  0  0  0  0  0
    8.6972   -2.1029   50.9620 C   0  0  0  0  0  0  0  0  0  0  0  0
   10.0240   -0.5094   49.6209 C   0  0  0  0  0  0  0  0  0  0  0  0
   10.1089   -1.5878   50.7006 C   0  0  0  0  0  0  0  0  0  0  0  0
    8.2342   -4.8050   46.5165 C   0  0  0  0  0  0  0  0  0  0  0  0
    8.9454   -2.9900   45.1421 C   0  0  0  0  0  0  0  0  0  0  0  0
   11.7720   -7.5278   39.4472 C   0  0  0  0  0  0  0  0  0  0  0  0
    8.9388   -5.7013   45.7198 C   0  0  0  0  0  0  0  0  0  0  0  0
    9.6454   -3.8751   44.3485 C   0  0  0  0  0  0  0  0  0  0  0  0
    9.8473   -6.9550   42.9290 C   0  0  0  0  0  0  0  0  0  0  0  0
    8.2314   -3.4548   46.2287 C   0  0  0  0  0  0  0  0  0  0  0  0
    9.6481   -5.2384   44.6269 C   0  0  0  0  0  0  0  0  0  0  0  0
   10.5829   -8.2177   39.6909 C   0  0  0  0  0  0  0  0  0  0  0  0
   11.6440   -7.3786   42.0581 H   0  0  0  0  0  0  0  0  0  0  0  0
   11.3776   -5.8960   43.7100 H   0  0  0  0  0  0  0  0  0  0  0  0
   11.5501   -7.4419   36.1519 H   0  0  0  0  0  0  0  0  0  0  0  0
    8.9465   -9.0649   38.7579 H   0  0  0  0  0  0  0  0  0  0  0  0
    9.1381   -8.5707   41.1522 H   0  0  0  0  0  0  0  0  0  0  0  0
   10.4807   -9.4795   41.3477 H   0  0  0  0  0  0  0  0  0  0  0  0
    8.7353   -3.7121   49.6474 H   0  0  0  0  0  0  0  0  0  0  0  0
    7.2441   -3.0742   49.8375 H   0  0  0  0  0  0  0  0  0  0  0  0
    9.1972   -0.3827   47.7095 H   0  0  0  0  0  0  0  0  0  0  0  0
   10.2675   -1.6065   47.8630 H   0  0  0  0  0  0  0  0  0  0  0  0
   12.9846   -6.7488   37.9350 H   0  0  0  0  0  0  0  0  0  0  0  0
    8.7037   -2.7156   51.7523 H   0  0  0  0  0  0  0  0  0  0  0  0
    8.0861   -1.3322   51.1428 H   0  0  0  0  0  0  0  0  0  0  0  0
    9.3953    0.2089   49.9188 H   0  0  0  0  0  0  0  0  0  0  0  0
   10.9318   -0.1173   49.4722 H   0  0  0  0  0  0  0  0  0  0  0  0
   10.6913   -2.3376   50.3866 H   0  0  0  0  0  0  0  0  0  0  0  0
   10.4894   -1.1991   51.5397 H   0  0  0  0  0  0  0  0  0  0  0  0
    7.7235   -5.1427   47.3071 H   0  0  0  0  0  0  0  0  0  0  0  0
    8.9550   -2.0127   44.9306 H   0  0  0  0  0  0  0  0  0  0  0  0
   12.3569   -7.2440   40.2071 H   0  0  0  0  0  0  0  0  0  0  0  0
    8.9325   -6.6774   45.9368 H   0  0  0  0  0  0  0  0  0  0  0  0
   10.1583   -3.5320   43.5616 H   0  0  0  0  0  0  0  0  0  0  0  0
  1 23  2  0  0  0  0
  2  3  2  0  0  0  0
  2  4  2  0  0  0  0
  2  8  1  0  0  0  0
  2 24  1  0  0  0  0
  5  9  2  0  0  0  0
  5 10  1  0  0  0  0
  6 11  1  0  0  0  0
  6 23  1  0  0  0  0
  7 23  1  0  0  0  0
  7 25  1  0  0  0  0
  8 12  1  0  0  0  0
  8 13  1  0  0  0  0
  9 14  1  0  0  0  0
 10 26  2  0  0  0  0
 11 26  1  0  0  0  0
 12 15  1  0  0  0  0
 13 16  1  0  0  0  0
 14 20  2  0  0  0  0
 15 17  1  0  0  0  0
 16 17  1  0  0  0  0
 18 21  2  0  0  0  0
 18 24  1  0  0  0  0
 19 22  1  0  0  0  0
 19 24  2  0  0  0  0
 20 26  1  0  0  0  0
 21 25  1  0  0  0  0
 22 25  2  0  0  0  0
  6 27  1  0  0  0  0
  7 28  1  0  0  0  0
  9 29  1  0  0  0  0
 10 30  1  0  0  0  0
 11 31  1  0  0  0  0
 11 32  1  0  0  0  0
 12 33  1  0  0  0  0
 12 34  1  0  0  0  0
 13 35  1  0  0  0  0
 13 36  1  0  0  0  0
 14 37  1  0  0  0  0
 15 38  1  0  0  0  0
 15 39  1  0  0  0  0
 16 40  1  0  0  0  0
 16 41  1  0  0  0  0
 17 42  1  0  0  0  0
 17 43  1  0  0  0  0
 18 44  1  0  0  0  0
 19 45  1  0  0  0  0
 20 46  1  0  0  0  0
 21 47  1  0  0  0  0
 22 48  1  0  0  0  0
M  END
> <pdb_id>
4JR5

> <uniprot_id>
P43490

> <usmiles>
S(=O)(=O)(N1CCCCC1)c2ccc(NC(=S)NCc3cnccc3)cc2

$$$$
1LW_A_302
          07202407043D 1   1.00000     0.00000     0
            
 26 28  0  0  0  0            999 V2000
   29.4100   91.3960   47.0870 S   0  0  0  0  0  0  0  0  0  0  0  0
   33.7940   89.1010   47.0250 N   0  0  0  0  0  0  0  0  0  0  0  0
   30.2930   89.9180   44.9360 N   0  0  0  0  0  0  0  0  0  0  0  0
   30.5090   91.4790   48.4000 C   0  0  0  0  0  0  0  0  0  0  0  0
   31.7640   87.3550   42.6530 C   0  0  0  0  0  0  0  0  0  0  0  0
   33.2330   87.4260   43.0060 C   0  0  0  0  0  0  0  0  0  0  0  0
   31.6540   90.7990   48.1840 C   0  0  0  0  0  0  0  0  0  0  0  0
   31.0070   88.6420   42.9700 C   0  0  0  0  0  0  0  0  0  0  0  0
   33.5150   88.0390   44.3710 C   0  0  0  0  0  0  0  0  0  0  0  0
   30.4960   90.4360   46.1870 C   0  0  0  0  0  0  0  0  0  0  0  0
   32.6820   89.3830   46.3110 C   0  0  0  0  0  0  0  0  0  0  0  0
   31.3010   89.1550   44.3480 C   0  0  0  0  0  0  0  0  0  0  0  0
   31.6720   90.1750   46.8900 C   0  0  0  0  0  0  0  0  0  0  0  0
   32.4730   88.8640   45.0110 C   0  0  0  0  0  0  0  0  0  0  0  0
   34.5172   88.5394   46.6231 H   0  0  0  0  0  0  0  0  0  0  0  0
   33.8937   89.4539   47.9553 H   0  0  0  0  0  0  0  0  0  0  0  0
   30.3199   91.9821   49.2433 H   0  0  0  0  0  0  0  0  0  0  0  0
   31.3487   86.6064   43.1698 H   0  0  0  0  0  0  0  0  0  0  0  0
   31.6809   87.1703   41.6737 H   0  0  0  0  0  0  0  0  0  0  0  0
   33.6965   87.9773   42.3123 H   0  0  0  0  0  0  0  0  0  0  0  0
   33.6037   86.4973   42.9961 H   0  0  0  0  0  0  0  0  0  0  0  0
   32.4012   90.7367   48.8457 H   0  0  0  0  0  0  0  0  0  0  0  0
   30.0258   88.4636   42.8966 H   0  0  0  0  0  0  0  0  0  0  0  0
   31.2694   89.3409   42.3046 H   0  0  0  0  0  0  0  0  0  0  0  0
   34.3260   88.6155   44.2719 H   0  0  0  0  0  0  0  0  0  0  0  0
   33.7167   87.2845   44.9955 H   0  0  0  0  0  0  0  0  0  0  0  0
  1  4  1  0  0  0  0
  1 10  1  0  0  0  0
  2 11  1  0  0  0  0
  3 10  2  0  0  0  0
  3 12  1  0  0  0  0
  4  7  2  0  0  0  0
  5  6  1  0  0  0  0
  5  8  1  0  0  0  0
  6  9  1  0  0  0  0
  7 13  1  0  0  0  0
  8 12  1  0  0  0  0
  9 14  1  0  0  0  0
 10 13  1  0  0  0  0
 11 13  2  0  0  0  0
 11 14  1  0  0  0  0
 12 14  2  0  0  0  0
  2 15  1  0  0  0  0
  2 16  1  0  0  0  0
  4 17  1  0  0  0  0
  5 18  1  0  0  0  0
  5 19  1  0  0  0  0
  6 20  1  0  0  0  0
  6 21  1  0  0  0  0
  7 22  1  0  0  0  0
  8 23  1  0  0  0  0
  8 24  1  0  0  0  0
  9 25  1  0  0  0  0
  9 26  1  0  0  0  0
M  END
> <pdb_id>
4JMB

> <uniprot_id>
B3LRE1

> <usmiles>
S1c2nc3c(c(N)c2C=C1)CCCC3

$$$$
1M5_A_503
          07202405583D 1   1.00000     0.00000     0
            
 46 49  0  0  0  0            999 V2000
   70.8348   46.0438    2.7568 Cl  0  0  0  0  0  0  0  0  0  0  0  0
   68.1397   46.8249    9.9284 O   0  0  0  0  0  0  0  0  0  0  0  0
   69.7520   50.8390   10.3351 O   0  0  0  0  0  0  0  0  0  0  0  0
   65.6140   48.2842    6.3220 N   0  0  0  0  0  0  0  0  0  0  0  0
   67.1249   49.3959    7.7850 N   0  0  0  0  0  0  0  0  0  0  0  0
   66.7271   47.2307    8.1345 N   0  0  0  0  0  0  0  0  0  0  0  0
   66.1781   45.8873    7.9496 C   0  0  0  0  0  0  0  0  0  0  0  0
   68.0789   51.7118   11.8055 C   0  0  0  0  0  0  0  0  0  0  0  0
   68.0091   52.1987    9.3233 C   0  0  0  0  0  0  0  0  0  0  0  0
   73.7827   46.1288    5.5102 C   0  0  0  0  0  0  0  0  0  0  0  0
   73.0420   45.8304    4.3401 C   0  0  0  0  0  0  0  0  0  0  0  0
   73.2332   46.9908    6.4920 C   0  0  0  0  0  0  0  0  0  0  0  0
   71.6619   50.1027    9.0679 C   0  0  0  0  0  0  0  0  0  0  0  0
   72.2207   49.2891    8.0512 C   0  0  0  0  0  0  0  0  0  0  0  0
   71.2052   47.2653    5.1393 C   0  0  0  0  0  0  0  0  0  0  0  0
   70.0094   48.3382    7.5916 C   0  0  0  0  0  0  0  0  0  0  0  0
   67.5468   49.8420   10.1939 C   0  0  0  0  0  0  0  0  0  0  0  0
   71.7536   46.3988    4.1630 C   0  0  0  0  0  0  0  0  0  0  0  0
   66.4783   48.3498    7.3943 C   0  0  0  0  0  0  0  0  0  0  0  0
   67.6037   47.5702    9.1018 C   0  0  0  0  0  0  0  0  0  0  0  0
   70.2775   50.0341    9.3482 C   0  0  0  0  0  0  0  0  0  0  0  0
   71.9472   47.5688    6.3066 C   0  0  0  0  0  0  0  0  0  0  0  0
   71.3974   48.4042    7.3073 C   0  0  0  0  0  0  0  0  0  0  0  0
   69.4496   49.1535    8.6058 C   0  0  0  0  0  0  0  0  0  0  0  0
   68.3543   51.1408   10.4006 C   0  0  0  0  0  0  0  0  0  0  0  0
   67.9573   49.0554    8.9276 C   0  0  1  0  0  0  0  0  0  0  0  0
   65.1588   47.4223    6.0987 H   0  0  0  0  0  0  0  0  0  0  0  0
   65.4424   49.0986    5.7676 H   0  0  0  0  0  0  0  0  0  0  0  0
   66.5480   45.2768    8.6500 H   0  0  0  0  0  0  0  0  0  0  0  0
   65.1818   45.9206    8.0289 H   0  0  0  0  0  0  0  0  0  0  0  0
   66.4292   45.5464    7.0437 H   0  0  0  0  0  0  0  0  0  0  0  0
   67.1080   51.9358   11.8898 H   0  0  0  0  0  0  0  0  0  0  0  0
   68.3253   51.0316   12.4959 H   0  0  0  0  0  0  0  0  0  0  0  0
   68.6248   52.5384   11.9422 H   0  0  0  0  0  0  0  0  0  0  0  0
   67.0330   52.4119    9.3663 H   0  0  0  0  0  0  0  0  0  0  0  0
   68.5395   53.0298    9.4902 H   0  0  0  0  0  0  0  0  0  0  0  0
   68.2318   51.8373    8.4178 H   0  0  0  0  0  0  0  0  0  0  0  0
   74.6910   45.7322    5.6431 H   0  0  0  0  0  0  0  0  0  0  0  0
   73.4243   45.2232    3.6436 H   0  0  0  0  0  0  0  0  0  0  0  0
   73.7537   47.1941    7.3213 H   0  0  0  0  0  0  0  0  0  0  0  0
   72.2468   50.7257    9.5874 H   0  0  0  0  0  0  0  0  0  0  0  0
   73.2003   49.3387    7.8567 H   0  0  0  0  0  0  0  0  0  0  0  0
   70.2970   47.6616    5.0050 H   0  0  0  0  0  0  0  0  0  0  0  0
   69.4239   47.7141    7.0743 H   0  0  0  0  0  0  0  0  0  0  0  0
   66.5784   50.0799   10.1187 H   0  0  0  0  0  0  0  0  0  0  0  0
   67.6846   49.2534   10.9906 H   0  0  0  0  0  0  0  0  0  0  0  0
  1 18  1  0  0  0  0
  2 20  2  0  0  0  0
  3 21  1  0  0  0  0
  3 25  1  0  0  0  0
  4 19  1  0  0  0  0
  5 19  2  0  0  0  0
  5 26  1  0  0  0  0
  6  7  1  0  0  0  0
  6 19  1  0  0  0  0
  6 20  1  0  0  0  0
  8 25  1  0  0  0  0
  9 25  1  0  0  0  0
 10 11  2  0  0  0  0
 10 12  1  0  0  0  0
 11 18  1  0  0  0  0
 12 22  2  0  0  0  0
 13 14  1  0  0  0  0
 13 21  2  0  0  0  0
 14 23  2  0  0  0  0
 15 18  2  0  0  0  0
 15 22  1  0  0  0  0
 16 23  1  0  0  0  0
 16 24  2  0  0  0  0
 17 25  1  0  0  0  0
 17 26  1  0  0  0  0
 20 26  1  0  0  0  0
 21 24  1  0  0  0  0
 22 23  1  0  0  0  0
 24 26  1  0  0  0  0
  4 27  1  0  0  0  0
  4 28  1  0  0  0  0
  7 29  1  0  0  0  0
  7 30  1  0  0  0  0
  7 31  1  0  0  0  0
  8 32  1  0  0  0  0
  8 33  1  0  0  0  0
  8 34  1  0  0  0  0
  9 35  1  0  0  0  0
  9 36  1  0  0  0  0
  9 37  1  0  0  0  0
 10 38  1  0  0  0  0
 11 39  1  0  0  0  0
 12 40  1  0  0  0  0
 13 41  1  0  0  0  0
 14 42  1  0  0  0  0
 15 43  1  0  0  0  0
 16 44  1  0  0  0  0
 17 45  1  0  0  0  0
 17 46  1  0  0  0  0
M  END
> <pdb_id>
4JP9

> <uniprot_id>
P56817

> <usmiles>
Clc1cc(c2cc3c(OC(C[C@@]34N=C(N(C4=O)C)N)(C)C)cc2)ccc1

$$$$
1M6_A_502
          07202405583D 1   1.00000     0.00000     0
            
 47 50  0  0  0  0            999 V2000
   68.0016   46.8623   10.1061 O   0  0  0  0  0  0  0  0  0  0  0  0
   69.6748   50.8822   10.4526 O   0  0  0  0  0  0  0  0  0  0  0  0
   70.6454   45.6594    2.3526 N   0  0  0  0  0  0  0  0  0  0  0  0
   65.7112   48.1977    6.2931 N   0  0  0  0  0  0  0  0  0  0  0  0
   67.1377   49.3677    7.8138 N   0  0  0  0  0  0  0  0  0  0  0  0
   66.7418   47.2115    8.1941 N   0  0  0  0  0  0  0  0  0  0  0  0
   66.2277   45.8557    7.9917 C   0  0  0  0  0  0  0  0  0  0  0  0
   67.9724   51.7746   11.8595 C   0  0  0  0  0  0  0  0  0  0  0  0
   67.9464   52.2582    9.3871 C   0  0  0  0  0  0  0  0  0  0  0  0
   71.2196   45.9050    3.3253 C   0  0  0  0  0  0  0  0  0  0  0  0
   73.8581   45.9506    6.0154 C   0  0  0  0  0  0  0  0  0  0  0  0
   71.6366   50.0856    9.3232 C   0  0  0  0  0  0  0  0  0  0  0  0
   73.1781   45.6453    4.8100 C   0  0  0  0  0  0  0  0  0  0  0  0
   73.2739   46.8462    6.9440 C   0  0  0  0  0  0  0  0  0  0  0  0
   72.2349   49.2334    8.3672 C   0  0  0  0  0  0  0  0  0  0  0  0
   71.3358   47.1397    5.4715 C   0  0  0  0  0  0  0  0  0  0  0  0
   70.0369   48.2862    7.8347 C   0  0  0  0  0  0  0  0  0  0  0  0
   67.4457   49.9128   10.2156 C   0  0  0  0  0  0  0  0  0  0  0  0
   66.5451   48.3014    7.3966 C   0  0  0  0  0  0  0  0  0  0  0  0
   67.5329   47.5868    9.2218 C   0  0  0  0  0  0  0  0  0  0  0  0
   70.2362   50.0379    9.5308 C   0  0  0  0  0  0  0  0  0  0  0  0
   71.9189   46.2418    4.5451 C   0  0  0  0  0  0  0  0  0  0  0  0
   72.0173   47.4533    6.6726 C   0  0  0  0  0  0  0  0  0  0  0  0
   71.4385   48.3295    7.6186 C   0  0  0  0  0  0  0  0  0  0  0  0
   69.4303   49.1417    8.7810 C   0  0  0  0  0  0  0  0  0  0  0  0
   68.2796   51.1946   10.4612 C   0  0  0  0  0  0  0  0  0  0  0  0
   67.9145   49.0644    9.0153 C   0  0  1  0  0  0  0  0  0  0  0  0
   65.3012   47.3166    6.0574 H   0  0  0  0  0  0  0  0  0  0  0  0
   65.5201   49.0040    5.7333 H   0  0  0  0  0  0  0  0  0  0  0  0
   66.5355   45.2674    8.7394 H   0  0  0  0  0  0  0  0  0  0  0  0
   65.2281   45.8774    7.9744 H   0  0  0  0  0  0  0  0  0  0  0  0
   66.5684   45.4963    7.1229 H   0  0  0  0  0  0  0  0  0  0  0  0
   67.0024   52.0105   11.9168 H   0  0  0  0  0  0  0  0  0  0  0  0
   68.1917   51.0937   12.5583 H   0  0  0  0  0  0  0  0  0  0  0  0
   68.5244   52.5950   12.0087 H   0  0  0  0  0  0  0  0  0  0  0  0
   66.9674   52.4609    9.4111 H   0  0  0  0  0  0  0  0  0  0  0  0
   68.4643   53.0932    9.5730 H   0  0  0  0  0  0  0  0  0  0  0  0
   68.1922   51.9077    8.4834 H   0  0  0  0  0  0  0  0  0  0  0  0
   74.7469   45.5353    6.2095 H   0  0  0  0  0  0  0  0  0  0  0  0
   72.2004   50.7204    9.8515 H   0  0  0  0  0  0  0  0  0  0  0  0
   73.5837   45.0129    4.1501 H   0  0  0  0  0  0  0  0  0  0  0  0
   73.7498   47.0535    7.7987 H   0  0  0  0  0  0  0  0  0  0  0  0
   73.2231   49.2680    8.2181 H   0  0  0  0  0  0  0  0  0  0  0  0
   70.4452   47.5512    5.2783 H   0  0  0  0  0  0  0  0  0  0  0  0
   69.4740   47.6451    7.3130 H   0  0  0  0  0  0  0  0  0  0  0  0
   66.4966   50.1837   10.0548 H   0  0  0  0  0  0  0  0  0  0  0  0
   67.4957   49.3454   11.0376 H   0  0  0  0  0  0  0  0  0  0  0  0
  1 20  2  0  0  0  0
  2 21  1  0  0  0  0
  2 26  1  0  0  0  0
  3 10  3  0  0  0  0
  4 19  1  0  0  0  0
  5 19  2  0  0  0  0
  5 27  1  0  0  0  0
  6  7  1  0  0  0  0
  6 19  1  0  0  0  0
  6 20  1  0  0  0  0
  8 26  1  0  0  0  0
  9 26  1  0  0  0  0
 10 22  1  0  0  0  0
 11 13  1  0  0  0  0
 11 14  2  0  0  0  0
 12 15  1  0  0  0  0
 12 21  2  0  0  0  0
 13 22  2  0  0  0  0
 14 23  1  0  0  0  0
 15 24  2  0  0  0  0
 16 22  1  0  0  0  0
 16 23  2  0  0  0  0
 17 24  1  0  0  0  0
 17 25  2  0  0  0  0
 18 26  1  0  0  0  0
 18 27  1  0  0  0  0
 20 27  1  0  0  0  0
 21 25  1  0  0  0  0
 23 24  1  0  0  0  0
 25 27  1  0  0  0  0
  4 28  1  0  0  0  0
  4 29  1  0  0  0  0
  7 30  1  0  0  0  0
  7 31  1  0  0  0  0
  7 32  1  0  0  0  0
  8 33  1  0  0  0  0
  8 34  1  0  0  0  0
  8 35  1  0  0  0  0
  9 36  1  0  0  0  0
  9 37  1  0  0  0  0
  9 38  1  0  0  0  0
 11 39  1  0  0  0  0
 12 40  1  0  0  0  0
 13 41  1  0  0  0  0
 14 42  1  0  0  0  0
 15 43  1  0  0  0  0
 16 44  1  0  0  0  0
 17 45  1  0  0  0  0
 18 46  1  0  0  0  0
 18 47  1  0  0  0  0
M  END
> <pdb_id>
4JPC

> <uniprot_id>
P56817

> <usmiles>
O=C1N(C(=N[C@]12c3c(OC(C2)(C)C)ccc(c4cc(C#N)ccc4)c3)N)C

$$$$
1MD_B_801
          07212402213D 1   1.00000     0.00000     0
            
 47 49  0  0  0  0            999 V2000
   34.1107   47.4257   35.6041 Cl  0  0  0  0  0  0  0  0  0  0  0  0
   35.8072   52.0241   37.2206 Cl  0  0  0  0  0  0  0  0  0  0  0  0
   40.6945   50.2837   42.9047 O   0  0  0  0  0  0  0  0  0  0  0  0
   37.0027   50.0108   40.0116 O   0  0  0  0  0  0  0  0  0  0  0  0
   38.1319   51.8127   34.5341 N   0  0  0  0  0  0  0  0  0  0  0  0
   40.5298   52.8783   38.5047 N   0  0  0  0  0  0  0  0  0  0  0  0
   39.2365   48.7626   43.8842 N   0  0  0  0  0  0  0  0  0  0  0  0
   38.6116   51.1616   41.1037 N   0  0  0  0  0  0  0  0  0  0  0  0
   40.3314   47.9719   44.5210 C   0  0  0  0  0  0  0  0  0  0  0  0
   37.8191   48.4983   44.2652 C   0  0  0  0  0  0  0  0  0  0  0  0
   41.1839   53.3984   36.1960 C   0  0  0  0  0  0  0  0  0  0  0  0
   39.4699   51.5213   35.0977 C   0  0  0  0  0  0  0  0  0  0  0  0
   38.3454   50.4510   42.3670 C   0  0  0  0  0  0  0  0  0  0  0  0
   39.5911   52.2215   40.8454 C   0  0  0  0  0  0  0  0  0  0  0  0
   36.7099   47.7585   36.1935 C   0  0  0  0  0  0  0  0  0  0  0  0
   37.8332   48.5701   36.6612 C   0  0  0  0  0  0  0  0  0  0  0  0
   35.1035   49.6608   36.4376 C   0  0  0  0  0  0  0  0  0  0  0  0
   39.5443   49.8277   43.0664 C   0  0  0  0  0  0  0  0  0  0  0  0
   35.4100   48.3363   36.0943 C   0  0  0  0  0  0  0  0  0  0  0  0
   38.0161   50.7163   39.9947 C   0  0  0  0  0  0  0  0  0  0  0  0
   36.2266   50.4133   36.9029 C   0  0  0  0  0  0  0  0  0  0  0  0
   40.3923   52.6128   37.1606 C   0  0  0  0  0  0  0  0  0  0  0  0
   39.6951   52.1601   39.3037 C   0  0  0  0  0  0  0  0  0  0  0  0
   39.5012   51.6303   36.6170 C   0  0  0  0  0  0  0  0  0  0  0  0
   37.5805   49.9348   37.0232 C   0  0  0  0  0  0  0  0  0  0  0  0
   38.7908   51.2092   38.8517 C   0  0  0  0  0  0  0  0  0  0  0  0
   38.6752   50.8718   37.4943 C   0  0  0  0  0  0  0  0  0  0  0  0
   38.1640   51.7281   33.5382 H   0  0  0  0  0  0  0  0  0  0  0  0
   37.4664   51.1635   34.9024 H   0  0  0  0  0  0  0  0  0  0  0  0
   41.2136   48.2714   44.1576 H   0  0  0  0  0  0  0  0  0  0  0  0
   40.3130   48.1140   45.5107 H   0  0  0  0  0  0  0  0  0  0  0  0
   40.2009   47.0008   44.3211 H   0  0  0  0  0  0  0  0  0  0  0  0
   37.2164   49.1085   43.7510 H   0  0  0  0  0  0  0  0  0  0  0  0
   37.5892   47.5480   44.0553 H   0  0  0  0  0  0  0  0  0  0  0  0
   37.7013   48.6612   45.2448 H   0  0  0  0  0  0  0  0  0  0  0  0
   40.9767   53.0920   35.2669 H   0  0  0  0  0  0  0  0  0  0  0  0
   40.9536   54.3673   36.2866 H   0  0  0  0  0  0  0  0  0  0  0  0
   42.1581   53.2687   36.3803 H   0  0  0  0  0  0  0  0  0  0  0  0
   40.1268   52.1716   34.7162 H   0  0  0  0  0  0  0  0  0  0  0  0
   39.7316   50.5918   34.8377 H   0  0  0  0  0  0  0  0  0  0  0  0
   37.6942   49.7179   42.1708 H   0  0  0  0  0  0  0  0  0  0  0  0
   37.9310   51.1043   43.0006 H   0  0  0  0  0  0  0  0  0  0  0  0
   40.4694   52.0235   41.2806 H   0  0  0  0  0  0  0  0  0  0  0  0
   39.2586   53.1121   41.1556 H   0  0  0  0  0  0  0  0  0  0  0  0
   36.8532   46.8009   35.9439 H   0  0  0  0  0  0  0  0  0  0  0  0
   38.7532   48.1837   36.7268 H   0  0  0  0  0  0  0  0  0  0  0  0
   34.1829   50.0443   36.3636 H   0  0  0  0  0  0  0  0  0  0  0  0
  1 19  1  0  0  0  0
  2 21  1  0  0  0  0
  3 18  2  0  0  0  0
  4 20  2  0  0  0  0
  5 12  1  0  0  0  0
  6 22  1  0  0  0  0
  6 23  2  0  0  0  0
  7  9  1  0  0  0  0
  7 10  1  0  0  0  0
  7 18  1  0  0  0  0
  8 13  1  0  0  0  0
  8 14  1  0  0  0  0
  8 20  1  0  0  0  0
 11 22  1  0  0  0  0
 12 24  1  0  0  0  0
 13 18  1  0  0  0  0
 14 23  1  0  0  0  0
 15 16  2  0  0  0  0
 15 19  1  0  0  0  0
 16 25  1  0  0  0  0
 17 19  2  0  0  0  0
 17 21  1  0  0  0  0
 20 26  1  0  0  0  0
 21 25  2  0  0  0  0
 22 24  2  0  0  0  0
 23 26  1  0  0  0  0
 24 27  1  0  0  0  0
 25 27  1  0  0  0  0
 26 27  2  0  0  0  0
  5 28  1  0  0  0  0
  5 29  1  0  0  0  0
  9 30  1  0  0  0  0
  9 31  1  0  0  0  0
  9 32  1  0  0  0  0
 10 33  1  0  0  0  0
 10 34  1  0  0  0  0
 10 35  1  0  0  0  0
 11 36  1  0  0  0  0
 11 37  1  0  0  0  0
 11 38  1  0  0  0  0
 12 39  1  0  0  0  0
 12 40  1  0  0  0  0
 13 41  1  0  0  0  0
 13 42  1  0  0  0  0
 14 43  1  0  0  0  0
 14 44  1  0  0  0  0
 15 45  1  0  0  0  0
 16 46  1  0  0  0  0
 17 47  1  0  0  0  0
M  END
> <pdb_id>
4JH0

> <uniprot_id>
P27487

> <usmiles>
Clc1c(c2c3c(nc(c2CN)C)CN(C3=O)CC(=O)N(C)C)ccc(Cl)c1

$$$$
1N4_A_301
          07192418213D 1   1.00000     0.00000     0
            
 27 27  0  0  0  0            999 V2000
   17.8161   26.4704   38.2468 O   0  0  0  0  0  0  0  0  0  0  0  0
   14.6935   26.7667   36.8542 O   0  0  0  0  0  0  0  0  0  0  0  0
   14.1482   26.0775   38.8455 O   0  0  0  0  0  0  0  0  0  0  0  0
   15.9411   24.1533   38.9212 N   0  0  0  0  0  0  0  0  0  0  0  0
   18.7337   25.7473   36.2305 N   0  0  0  0  0  0  0  0  0  0  0  0
   17.8001   25.7608   37.1630 N   0  0  0  0  0  0  0  0  0  0  0  0
   15.6231   22.3176   32.6733 C   0  0  0  0  0  0  0  0  0  0  0  0
   18.4275   24.9119   35.2448 C   0  0  0  0  0  0  0  0  0  0  0  0
   16.2681   23.4719   33.3573 C   0  0  0  0  0  0  0  0  0  0  0  0
   16.3719   23.3390   34.8322 C   0  0  0  0  0  0  0  0  0  0  0  0
   14.7794   25.9000   37.7761 C   0  0  0  0  0  0  0  0  0  0  0  0
   15.5967   24.6591   37.6172 C   0  0  1  0  0  0  0  0  0  0  0  0
   16.8316   24.9295   36.8302 C   0  0  0  0  0  0  0  0  0  0  0  0
   17.1725   24.3383   35.5857 C   0  0  0  0  0  0  0  0  0  0  0  0
   16.9871   26.2895   38.7760 H   0  0  0  0  0  0  0  0  0  0  0  0
   15.1920   26.6361   35.9972 H   0  0  0  0  0  0  0  0  0  0  0  0
   16.4885   23.3222   38.8224 H   0  0  0  0  0  0  0  0  0  0  0  0
   16.4686   24.8428   39.4175 H   0  0  0  0  0  0  0  0  0  0  0  0
   15.5938   22.4878   31.6883 H   0  0  0  0  0  0  0  0  0  0  0  0
   16.1503   21.4870   32.8524 H   0  0  0  0  0  0  0  0  0  0  0  0
   14.6921   22.2027   33.0196 H   0  0  0  0  0  0  0  0  0  0  0  0
   18.9709   24.7239   34.4266 H   0  0  0  0  0  0  0  0  0  0  0  0
   15.7333   24.2923   33.1552 H   0  0  0  0  0  0  0  0  0  0  0  0
   17.1915   23.5766   32.9881 H   0  0  0  0  0  0  0  0  0  0  0  0
   16.7708   22.4412   35.0191 H   0  0  0  0  0  0  0  0  0  0  0  0
   15.4413   23.3726   35.1966 H   0  0  0  0  0  0  0  0  0  0  0  0
   15.0513   23.9718   37.1374 H   0  0  0  0  0  0  0  0  0  0  0  0
  1  6  1  0  0  0  0
  2 11  1  0  0  0  0
  3 11  2  0  0  0  0
  4 12  1  0  0  0  0
  5  6  1  0  0  0  0
  5  8  2  0  0  0  0
  6 13  1  0  0  0  0
  7  9  1  0  0  0  0
  8 14  1  0  0  0  0
  9 10  1  0  0  0  0
 10 14  1  0  0  0  0
 11 12  1  0  0  0  0
 12 13  1  0  0  0  0
 13 14  2  0  0  0  0
  1 15  1  0  0  0  0
  2 16  1  0  0  0  0
  4 17  1  0  0  0  0
  4 18  1  0  0  0  0
  7 19  1  0  0  0  0
  7 20  1  0  0  0  0
  7 21  1  0  0  0  0
  8 22  1  0  0  0  0
  9 23  1  0  0  0  0
  9 24  1  0  0  0  0
 10 25  1  0  0  0  0
 10 26  1  0  0  0  0
 12 27  1  0  0  0  0
M  END
> <pdb_id>
4JWX

> <uniprot_id>
nan

> <usmiles>
O=C(O)[C@H](N)C=1N(O)N=CC1CCC

$$$$
1N4_A_301
          07202407113D 1   1.00000     0.00000     0
            
 27 27  0  0  0  0            999 V2000
   10.1550   37.3130   11.9270 O   0  0  0  0  0  0  0  0  0  0  0  0
    6.9760   36.1170   10.8980 O   0  0  0  0  0  0  0  0  0  0  0  0
    8.1840   36.1280    9.0700 O   0  0  0  0  0  0  0  0  0  0  0  0
    9.1400   38.5580    9.4800 N   0  0  0  0  0  0  0  0  0  0  0  0
    9.1400   38.5390   13.6240 N   0  0  0  0  0  0  0  0  0  0  0  0
    9.2150   38.0770   12.3920 N   0  0  0  0  0  0  0  0  0  0  0  0
    3.5870   40.0650   12.5980 C   0  0  0  0  0  0  0  0  0  0  0  0
    8.0620   39.2930   13.7890 C   0  0  0  0  0  0  0  0  0  0  0  0
    4.9320   39.4990   12.9100 C   0  0  0  0  0  0  0  0  0  0  0  0
    6.1290   40.0430   12.2060 C   0  0  0  0  0  0  0  0  0  0  0  0
    7.7040   36.7390   10.0640 C   0  0  0  0  0  0  0  0  0  0  0  0
    7.9650   38.2010   10.2310 C   0  0  1  0  0  0  0  0  0  0  0  0
    8.1930   38.5180   11.6750 C   0  0  0  0  0  0  0  0  0  0  0  0
    7.3930   39.3280   12.5290 C   0  0  0  0  0  0  0  0  0  0  0  0
    9.9728   37.1081   10.9653 H   0  0  0  0  0  0  0  0  0  0  0  0
    6.5947   36.5997   11.6864 H   0  0  0  0  0  0  0  0  0  0  0  0
    9.3201   39.5357    9.5877 H   0  0  0  0  0  0  0  0  0  0  0  0
    9.9230   38.0356    9.8178 H   0  0  0  0  0  0  0  0  0  0  0  0
    2.8936   39.5988   13.1474 H   0  0  0  0  0  0  0  0  0  0  0  0
    3.5791   41.0421   12.8105 H   0  0  0  0  0  0  0  0  0  0  0  0
    3.3870   39.9334   11.6271 H   0  0  0  0  0  0  0  0  0  0  0  0
    7.7741   39.7481   14.6316 H   0  0  0  0  0  0  0  0  0  0  0  0
    4.8922   38.5208   12.7063 H   0  0  0  0  0  0  0  0  0  0  0  0
    5.0843   39.6296   13.8897 H   0  0  0  0  0  0  0  0  0  0  0  0
    6.2359   41.0036   12.4625 H   0  0  0  0  0  0  0  0  0  0  0  0
    5.9723   39.9765   11.2206 H   0  0  0  0  0  0  0  0  0  0  0  0
    7.1809   38.7218    9.8936 H   0  0  0  0  0  0  0  0  0  0  0  0
  1  6  1  0  0  0  0
  2 11  1  0  0  0  0
  3 11  2  0  0  0  0
  4 12  1  0  0  0  0
  5  6  1  0  0  0  0
  5  8  2  0  0  0  0
  6 13  1  0  0  0  0
  7  9  1  0  0  0  0
  8 14  1  0  0  0  0
  9 10  1  0  0  0  0
 10 14  1  0  0  0  0
 11 12  1  0  0  0  0
 12 13  1  0  0  0  0
 13 14  2  0  0  0  0
  1 15  1  0  0  0  0
  2 16  1  0  0  0  0
  4 17  1  0  0  0  0
  4 18  1  0  0  0  0
  7 19  1  0  0  0  0
  7 20  1  0  0  0  0
  7 21  1  0  0  0  0
  8 22  1  0  0  0  0
  9 23  1  0  0  0  0
  9 24  1  0  0  0  0
 10 25  1  0  0  0  0
 10 26  1  0  0  0  0
 12 27  1  0  0  0  0
M  END
> <pdb_id>
4JWY

> <uniprot_id>
Q62645

> <usmiles>
O=C(O)[C@H](N)C=1N(O)N=CC1CCC

$$$$
1NM_A_301
          07202407393D 1   1.00000     0.00000     0
            
 45 47  0  0  0  0            999 V2000
  -28.8543  -11.1132  -21.4926 S   0  0  0  0  0  0  0  0  0  0  0  0
  -33.1097  -13.0887  -19.8483 S   0  0  0  0  0  0  0  0  0  0  0  0
  -35.5093   -9.0303  -27.6853 F   0  0  0  0  0  0  0  0  0  0  0  0
  -38.2452  -10.4930  -22.7733 O   0  0  0  0  0  0  0  0  0  0  0  0
  -36.1746   -9.4511  -23.9610 O   0  0  0  0  0  0  0  0  0  0  0  0
  -25.0544  -14.2684  -21.9631 N   0  0  0  0  0  0  0  0  0  0  0  0
  -24.1196   -9.6203  -21.7430 N   0  0  0  0  0  0  0  0  0  0  0  0
  -26.7433  -12.7626  -21.7663 N   0  0  0  0  0  0  0  0  0  0  0  0
  -26.2841  -10.4481  -21.6473 N   0  0  0  0  0  0  0  0  0  0  0  0
  -32.1427  -12.1047  -21.8633 N   0  0  0  0  0  0  0  0  0  0  0  0
  -39.2963  -11.1349  -22.0228 C   0  0  0  0  0  0  0  0  0  0  0  0
  -29.6929  -12.7262  -21.7598 C   0  0  0  0  0  0  0  0  0  0  0  0
  -31.4635  -13.3408  -20.0684 C   0  0  0  0  0  0  0  0  0  0  0  0
  -35.9633   -8.5912  -26.2277 C   0  0  0  0  0  0  0  0  0  0  0  0
  -35.3139   -9.4522  -25.1298 C   0  0  0  0  0  0  0  0  0  0  0  0
  -36.8984  -11.8862  -21.3695 C   0  0  0  0  0  0  0  0  0  0  0  0
  -35.6114  -12.2834  -21.0165 C   0  0  0  0  0  0  0  0  0  0  0  0
  -24.5105  -11.9589  -21.8849 C   0  0  0  0  0  0  0  0  0  0  0  0
  -34.6065  -10.7696  -22.6334 C   0  0  0  0  0  0  0  0  0  0  0  0
  -27.1648  -11.4801  -21.6592 C   0  0  0  0  0  0  0  0  0  0  0  0
  -33.3083  -12.2058  -21.2234 C   0  0  0  0  0  0  0  0  0  0  0  0
  -25.4435  -13.0129  -21.8755 C   0  0  0  0  0  0  0  0  0  0  0  0
  -24.9768  -10.6519  -21.7677 C   0  0  0  0  0  0  0  0  0  0  0  0
  -37.0294  -10.9306  -22.3693 C   0  0  0  0  0  0  0  0  0  0  0  0
  -35.9070  -10.3835  -23.0023 C   0  0  0  0  0  0  0  0  0  0  0  0
  -31.1352  -12.7272  -21.2157 C   0  0  0  0  0  0  0  0  0  0  0  0
  -34.4783  -11.7321  -21.6300 C   0  0  0  0  0  0  0  0  0  0  0  0
  -24.0818  -14.4858  -22.0463 H   0  0  0  0  0  0  0  0  0  0  0  0
  -25.7315  -15.0040  -21.9465 H   0  0  0  0  0  0  0  0  0  0  0  0
  -23.1373   -9.7840  -21.8343 H   0  0  0  0  0  0  0  0  0  0  0  0
  -24.4629   -8.6875  -21.6333 H   0  0  0  0  0  0  0  0  0  0  0  0
  -40.1838  -10.7977  -22.3368 H   0  0  0  0  0  0  0  0  0  0  0  0
  -39.2479  -12.1242  -22.1605 H   0  0  0  0  0  0  0  0  0  0  0  0
  -39.1860  -10.9279  -21.0507 H   0  0  0  0  0  0  0  0  0  0  0  0
  -29.1720  -13.4415  -21.2939 H   0  0  0  0  0  0  0  0  0  0  0  0
  -29.7183  -12.9177  -22.7410 H   0  0  0  0  0  0  0  0  0  0  0  0
  -30.8494  -13.8480  -19.4638 H   0  0  0  0  0  0  0  0  0  0  0  0
  -36.9571   -8.6796  -26.1601 H   0  0  0  0  0  0  0  0  0  0  0  0
  -35.7030   -7.6364  -26.0837 H   0  0  0  0  0  0  0  0  0  0  0  0
  -35.1992  -10.3886  -25.4614 H   0  0  0  0  0  0  0  0  0  0  0  0
  -34.4208   -9.0720  -24.8893 H   0  0  0  0  0  0  0  0  0  0  0  0
  -37.7014  -12.2757  -20.9185 H   0  0  0  0  0  0  0  0  0  0  0  0
  -35.4927  -12.9789  -20.3079 H   0  0  0  0  0  0  0  0  0  0  0  0
  -23.5320  -12.1449  -21.9739 H   0  0  0  0  0  0  0  0  0  0  0  0
  -33.8026  -10.3696  -23.0735 H   0  0  0  0  0  0  0  0  0  0  0  0
  1 12  1  0  0  0  0
  1 20  1  0  0  0  0
  2 13  1  0  0  0  0
  2 21  1  0  0  0  0
  3 14  1  0  0  0  0
  4 11  1  0  0  0  0
  4 24  1  0  0  0  0
  5 15  1  0  0  0  0
  5 25  1  0  0  0  0
  6 22  1  0  0  0  0
  7 23  1  0  0  0  0
  8 20  1  0  0  0  0
  8 22  2  0  0  0  0
  9 20  2  0  0  0  0
  9 23  1  0  0  0  0
 10 21  2  0  0  0  0
 10 26  1  0  0  0  0
 12 26  1  0  0  0  0
 13 26  2  0  0  0  0
 14 15  1  0  0  0  0
 16 17  1  0  0  0  0
 16 24  2  0  0  0  0
 17 27  2  0  0  0  0
 18 22  1  0  0  0  0
 18 23  2  0  0  0  0
 19 25  2  0  0  0  0
 19 27  1  0  0  0  0
 21 27  1  0  0  0  0
 24 25  1  0  0  0  0
  6 28  1  0  0  0  0
  6 29  1  0  0  0  0
  7 30  1  0  0  0  0
  7 31  1  0  0  0  0
 11 32  1  0  0  0  0
 11 33  1  0  0  0  0
 11 34  1  0  0  0  0
 12 35  1  0  0  0  0
 12 36  1  0  0  0  0
 13 37  1  0  0  0  0
 14 38  1  0  0  0  0
 14 39  1  0  0  0  0
 15 40  1  0  0  0  0
 15 41  1  0  0  0  0
 16 42  1  0  0  0  0
 17 43  1  0  0  0  0
 18 44  1  0  0  0  0
 19 45  1  0  0  0  0
M  END
> <pdb_id>
4JLJ

> <uniprot_id>
P27707

> <usmiles>
S(c1nc(N)cc(n1)N)CC=2N=C(SC2)c3cc(OCCF)c(OC)cc3

$$$$
1NN_A_301
          07202407393D 1   1.00000     0.00000     0
            
 51 53  0  0  0  0            999 V2000
  -28.8529  -10.6880  -22.4641 S   0  0  0  0  0  0  0  0  0  0  0  0
  -32.9214  -13.0052  -20.3569 S   0  0  0  0  0  0  0  0  0  0  0  0
  -34.9398   -7.5718  -26.5921 F   0  0  0  0  0  0  0  0  0  0  0  0
  -38.3867  -10.4532  -22.6552 O   0  0  0  0  0  0  0  0  0  0  0  0
  -36.4102   -9.3301  -23.9940 O   0  0  0  0  0  0  0  0  0  0  0  0
  -24.1727   -9.3553  -21.4651 N   0  0  0  0  0  0  0  0  0  0  0  0
  -25.0612  -13.9395  -21.9124 N   0  0  0  0  0  0  0  0  0  0  0  0
  -26.2744  -10.1398  -21.9078 N   0  0  0  0  0  0  0  0  0  0  0  0
  -26.7480  -12.3811  -22.1528 N   0  0  0  0  0  0  0  0  0  0  0  0
  -32.1465  -11.8651  -22.3868 N   0  0  0  0  0  0  0  0  0  0  0  0
  -39.3891  -11.2119  -21.9175 C   0  0  0  0  0  0  0  0  0  0  0  0
  -29.5253  -14.9912  -20.6012 C   0  0  0  0  0  0  0  0  0  0  0  0
  -29.6931  -12.3493  -22.5653 C   0  0  0  0  0  0  0  0  0  0  0  0
  -35.8963   -8.4379  -26.1248 C   0  0  0  0  0  0  0  0  0  0  0  0
  -35.3230   -9.1095  -24.8919 C   0  0  0  0  0  0  0  0  0  0  0  0
  -30.3949  -14.0000  -19.8120 C   0  0  0  0  0  0  0  0  0  0  0  0
  -36.8430  -11.8336  -21.4195 C   0  0  0  0  0  0  0  0  0  0  0  0
  -35.5201  -12.2024  -21.2086 C   0  0  0  0  0  0  0  0  0  0  0  0
  -24.5138  -11.6843  -21.6748 C   0  0  0  0  0  0  0  0  0  0  0  0
  -34.7088  -10.6223  -22.8797 C   0  0  0  0  0  0  0  0  0  0  0  0
  -27.1669  -11.1217  -22.1460 C   0  0  0  0  0  0  0  0  0  0  0  0
  -33.2498  -12.0496  -21.6345 C   0  0  0  0  0  0  0  0  0  0  0  0
  -31.3318  -13.1848  -20.7275 C   0  0  0  0  0  0  0  0  0  0  0  0
  -24.9823  -10.3828  -21.6827 C   0  0  0  0  0  0  0  0  0  0  0  0
  -25.4578  -12.6825  -21.8973 C   0  0  0  0  0  0  0  0  0  0  0  0
  -37.1094  -10.8596  -22.3776 C   0  0  0  0  0  0  0  0  0  0  0  0
  -36.0538  -10.2728  -23.0947 C   0  0  0  0  0  0  0  0  0  0  0  0
  -31.0644  -12.4765  -21.8630 C   0  0  0  0  0  0  0  0  0  0  0  0
  -34.4719  -11.6005  -21.9043 C   0  0  0  0  0  0  0  0  0  0  0  0
  -23.2001   -9.5126  -21.2940 H   0  0  0  0  0  0  0  0  0  0  0  0
  -24.5347   -8.4232  -21.4723 H   0  0  0  0  0  0  0  0  0  0  0  0
  -24.1054  -14.1646  -21.7233 H   0  0  0  0  0  0  0  0  0  0  0  0
  -25.7162  -14.6681  -22.1130 H   0  0  0  0  0  0  0  0  0  0  0  0
  -40.3013  -10.8776  -22.1547 H   0  0  0  0  0  0  0  0  0  0  0  0
  -39.3165  -12.1802  -22.1562 H   0  0  0  0  0  0  0  0  0  0  0  0
  -39.2374  -11.0982  -20.9357 H   0  0  0  0  0  0  0  0  0  0  0  0
  -28.9368  -15.4951  -19.9690 H   0  0  0  0  0  0  0  0  0  0  0  0
  -30.1139  -15.6333  -21.0923 H   0  0  0  0  0  0  0  0  0  0  0  0
  -28.9593  -14.4901  -21.2559 H   0  0  0  0  0  0  0  0  0  0  0  0
  -29.0794  -13.0249  -22.1567 H   0  0  0  0  0  0  0  0  0  0  0  0
  -29.8270  -12.5629  -23.5330 H   0  0  0  0  0  0  0  0  0  0  0  0
  -36.1088   -9.1231  -26.8215 H   0  0  0  0  0  0  0  0  0  0  0  0
  -36.7276   -7.9356  -25.8869 H   0  0  0  0  0  0  0  0  0  0  0  0
  -34.9005   -9.9810  -25.1406 H   0  0  0  0  0  0  0  0  0  0  0  0
  -34.6394   -8.5175  -24.4648 H   0  0  0  0  0  0  0  0  0  0  0  0
  -29.7961  -13.3680  -19.3200 H   0  0  0  0  0  0  0  0  0  0  0  0
  -30.9507  -14.5112  -19.1564 H   0  0  0  0  0  0  0  0  0  0  0  0
  -37.5836  -12.2564  -20.8971 H   0  0  0  0  0  0  0  0  0  0  0  0
  -35.3144  -12.9178  -20.5409 H   0  0  0  0  0  0  0  0  0  0  0  0
  -23.5493  -11.8964  -21.5178 H   0  0  0  0  0  0  0  0  0  0  0  0
  -33.9637  -10.1970  -23.3935 H   0  0  0  0  0  0  0  0  0  0  0  0
  1 13  1  0  0  0  0
  1 21  1  0  0  0  0
  2 22  1  0  0  0  0
  2 23  1  0  0  0  0
  3 14  1  0  0  0  0
  4 11  1  0  0  0  0
  4 26  1  0  0  0  0
  5 15  1  0  0  0  0
  5 27  1  0  0  0  0
  6 24  1  0  0  0  0
  7 25  1  0  0  0  0
  8 21  1  0  0  0  0
  8 24  2  0  0  0  0
  9 21  2  0  0  0  0
  9 25  1  0  0  0  0
 10 22  2  0  0  0  0
 10 28  1  0  0  0  0
 12 16  1  0  0  0  0
 13 28  1  0  0  0  0
 14 15  1  0  0  0  0
 16 23  1  0  0  0  0
 17 18  1  0  0  0  0
 17 26  2  0  0  0  0
 18 29  2  0  0  0  0
 19 24  1  0  0  0  0
 19 25  2  0  0  0  0
 20 27  2  0  0  0  0
 20 29  1  0  0  0  0
 22 29  1  0  0  0  0
 23 28  2  0  0  0  0
 26 27  1  0  0  0  0
  6 30  1  0  0  0  0
  6 31  1  0  0  0  0
  7 32  1  0  0  0  0
  7 33  1  0  0  0  0
 11 34  1  0  0  0  0
 11 35  1  0  0  0  0
 11 36  1  0  0  0  0
 12 37  1  0  0  0  0
 12 38  1  0  0  0  0
 12 39  1  0  0  0  0
 13 40  1  0  0  0  0
 13 41  1  0  0  0  0
 14 42  1  0  0  0  0
 14 43  1  0  0  0  0
 15 44  1  0  0  0  0
 15 45  1  0  0  0  0
 16 46  1  0  0  0  0
 16 47  1  0  0  0  0
 17 48  1  0  0  0  0
 18 49  1  0  0  0  0
 19 50  1  0  0  0  0
 20 51  1  0  0  0  0
M  END
> <pdb_id>
4JLM

> <uniprot_id>
P27707

> <usmiles>
S(c1nc(N)cc(n1)N)CC=2N=C(SC2CC)c3cc(OCCF)c(OC)cc3

$$$$
1NO_B_402
          07202407393D 1   1.00000     0.00000     0
            
 48 50  0  0  0  0            999 V2000
  -28.9262  -10.9217  -22.0741 S   0  0  0  0  0  0  0  0  0  0  0  0
  -32.7228  -13.3819  -20.4669 S   0  0  0  0  0  0  0  0  0  0  0  0
  -37.2878   -8.4482  -25.8224 F   0  0  0  0  0  0  0  0  0  0  0  0
  -38.7294  -11.0829  -22.1690 O   0  0  0  0  0  0  0  0  0  0  0  0
  -37.0174   -9.7942  -23.5864 O   0  0  0  0  0  0  0  0  0  0  0  0
  -24.0935   -9.7491  -21.5733 N   0  0  0  0  0  0  0  0  0  0  0  0
  -25.2233  -14.3396  -22.1151 N   0  0  0  0  0  0  0  0  0  0  0  0
  -26.3138  -10.4554  -21.8188 N   0  0  0  0  0  0  0  0  0  0  0  0
  -26.8880  -12.7116  -22.0823 N   0  0  0  0  0  0  0  0  0  0  0  0
  -32.2997  -12.0333  -22.4867 N   0  0  0  0  0  0  0  0  0  0  0  0
  -39.6543  -11.9055  -21.4072 C   0  0  0  0  0  0  0  0  0  0  0  0
  -29.9756  -14.1007  -20.3483 C   0  0  0  0  0  0  0  0  0  0  0  0
  -29.8131  -12.2973  -22.9324 C   0  0  0  0  0  0  0  0  0  0  0  0
  -36.8853   -7.7371  -24.7175 C   0  0  0  0  0  0  0  0  0  0  0  0
  -36.0896   -8.6880  -23.8158 C   0  0  0  0  0  0  0  0  0  0  0  0
  -36.9683  -12.4229  -21.1373 C   0  0  0  0  0  0  0  0  0  0  0  0
  -35.6034  -12.7039  -21.0393 C   0  0  0  0  0  0  0  0  0  0  0  0
  -24.6143  -12.0787  -21.8580 C   0  0  0  0  0  0  0  0  0  0  0  0
  -35.1069  -11.0031  -22.6921 C   0  0  0  0  0  0  0  0  0  0  0  0
  -27.2490  -11.4219  -21.9893 C   0  0  0  0  0  0  0  0  0  0  0  0
  -33.3162  -12.3420  -21.6753 C   0  0  0  0  0  0  0  0  0  0  0  0
  -31.1566  -13.3564  -20.9991 C   0  0  0  0  0  0  0  0  0  0  0  0
  -25.0056  -10.7465  -21.7416 C   0  0  0  0  0  0  0  0  0  0  0  0
  -25.5887  -13.0616  -22.0344 C   0  0  0  0  0  0  0  0  0  0  0  0
  -37.4089  -11.4203  -22.0092 C   0  0  0  0  0  0  0  0  0  0  0  0
  -36.4832  -10.7290  -22.7693 C   0  0  0  0  0  0  0  0  0  0  0  0
  -31.1035  -12.5668  -22.1524 C   0  0  0  0  0  0  0  0  0  0  0  0
  -34.6638  -11.9977  -21.8027 C   0  0  0  0  0  0  0  0  0  0  0  0
  -23.1192   -9.9669  -21.5158 H   0  0  0  0  0  0  0  0  0  0  0  0
  -24.3981   -8.7989  -21.5071 H   0  0  0  0  0  0  0  0  0  0  0  0
  -24.2548  -14.5861  -22.0783 H   0  0  0  0  0  0  0  0  0  0  0  0
  -25.9173  -15.0529  -22.2126 H   0  0  0  0  0  0  0  0  0  0  0  0
  -40.5907  -11.5983  -21.5766 H   0  0  0  0  0  0  0  0  0  0  0  0
  -39.5606  -12.8604  -21.6888 H   0  0  0  0  0  0  0  0  0  0  0  0
  -39.4478  -11.8236  -20.4322 H   0  0  0  0  0  0  0  0  0  0  0  0
  -29.1400  -13.9173  -20.8661 H   0  0  0  0  0  0  0  0  0  0  0  0
  -29.8604  -13.7843  -19.4067 H   0  0  0  0  0  0  0  0  0  0  0  0
  -30.1596  -15.0836  -20.3496 H   0  0  0  0  0  0  0  0  0  0  0  0
  -29.2421  -13.1183  -22.9428 H   0  0  0  0  0  0  0  0  0  0  0  0
  -30.0305  -12.0307  -23.8714 H   0  0  0  0  0  0  0  0  0  0  0  0
  -37.6841   -7.3904  -24.2259 H   0  0  0  0  0  0  0  0  0  0  0  0
  -36.3077   -6.9704  -24.9977 H   0  0  0  0  0  0  0  0  0  0  0  0
  -35.2601   -9.0061  -24.2750 H   0  0  0  0  0  0  0  0  0  0  0  0
  -35.8440   -8.2427  -22.9548 H   0  0  0  0  0  0  0  0  0  0  0  0
  -37.6275  -12.9356  -20.5872 H   0  0  0  0  0  0  0  0  0  0  0  0
  -35.2919  -13.4200  -20.4147 H   0  0  0  0  0  0  0  0  0  0  0  0
  -23.6466  -12.3274  -21.8156 H   0  0  0  0  0  0  0  0  0  0  0  0
  -34.4548  -10.5000  -23.2593 H   0  0  0  0  0  0  0  0  0  0  0  0
  1 13  1  0  0  0  0
  1 20  1  0  0  0  0
  2 21  1  0  0  0  0
  2 22  1  0  0  0  0
  3 14  1  0  0  0  0
  4 11  1  0  0  0  0
  4 25  1  0  0  0  0
  5 15  1  0  0  0  0
  5 26  1  0  0  0  0
  6 23  1  0  0  0  0
  7 24  1  0  0  0  0
  8 20  1  0  0  0  0
  8 23  2  0  0  0  0
  9 20  2  0  0  0  0
  9 24  1  0  0  0  0
 10 21  2  0  0  0  0
 10 27  1  0  0  0  0
 12 22  1  0  0  0  0
 13 27  1  0  0  0  0
 14 15  1  0  0  0  0
 16 17  1  0  0  0  0
 16 25  2  0  0  0  0
 17 28  2  0  0  0  0
 18 23  1  0  0  0  0
 18 24  2  0  0  0  0
 19 26  2  0  0  0  0
 19 28  1  0  0  0  0
 21 28  1  0  0  0  0
 22 27  2  0  0  0  0
 25 26  1  0  0  0  0
  6 29  1  0  0  0  0
  6 30  1  0  0  0  0
  7 31  1  0  0  0  0
  7 32  1  0  0  0  0
 11 33  1  0  0  0  0
 11 34  1  0  0  0  0
 11 35  1  0  0  0  0
 12 36  1  0  0  0  0
 12 37  1  0  0  0  0
 12 38  1  0  0  0  0
 13 39  1  0  0  0  0
 13 40  1  0  0  0  0
 14 41  1  0  0  0  0
 14 42  1  0  0  0  0
 15 43  1  0  0  0  0
 15 44  1  0  0  0  0
 16 45  1  0  0  0  0
 17 46  1  0  0  0  0
 18 47  1  0  0  0  0
 19 48  1  0  0  0  0
M  END
> <pdb_id>
4JLK

> <uniprot_id>
P27707

> <usmiles>
S(c1nc(N)cc(n1)N)CC=2N=C(SC2C)c3cc(OCCF)c(OC)cc3

$$$$
1NP_A_1351
          07202413533D 1   1.00000     0.00000     0
            
 19 20  0  0  0  0            999 V2000
   19.6745    9.2755   -2.0620 O   0  0  0  0  0  0  0  0  0  0  0  0
   22.8820    5.8720   -3.6277 C   0  0  0  0  0  0  0  0  0  0  0  0
   22.8357    7.2581   -3.6884 C   0  0  0  0  0  0  0  0  0  0  0  0
   18.6818    5.8566   -1.2965 C   0  0  0  0  0  0  0  0  0  0  0  0
   18.6405    7.2427   -1.3601 C   0  0  0  0  0  0  0  0  0  0  0  0
   21.8566    5.1532   -3.0179 C   0  0  0  0  0  0  0  0  0  0  0  0
   19.7383    5.1464   -1.8412 C   0  0  0  0  0  0  0  0  0  0  0  0
   21.7644    7.9446   -3.1362 C   0  0  0  0  0  0  0  0  0  0  0  0
   19.6831    7.9230   -1.9768 C   0  0  0  0  0  0  0  0  0  0  0  0
   20.7812    5.8398   -2.4608 C   0  0  0  0  0  0  0  0  0  0  0  0
   20.7439    7.2247   -2.5203 C   0  0  0  0  0  0  0  0  0  0  0  0
   20.4311    9.7532   -2.5085 H   0  0  0  0  0  0  0  0  0  0  0  0
   23.6593    5.3847   -4.0257 H   0  0  0  0  0  0  0  0  0  0  0  0
   23.5766    7.7630   -4.1314 H   0  0  0  0  0  0  0  0  0  0  0  0
   17.9359    5.3626   -0.8497 H   0  0  0  0  0  0  0  0  0  0  0  0
   17.8703    7.7450   -0.9671 H   0  0  0  0  0  0  0  0  0  0  0  0
   21.8925    4.1546   -2.9807 H   0  0  0  0  0  0  0  0  0  0  0  0
   19.7547    4.1478   -1.7917 H   0  0  0  0  0  0  0  0  0  0  0  0
   21.7255    8.9429   -3.1797 H   0  0  0  0  0  0  0  0  0  0  0  0
  1  9  1  0  0  0  0
  2  3  2  0  0  0  0
  2  6  1  0  0  0  0
  3  8  1  0  0  0  0
  4  5  1  0  0  0  0
  4  7  2  0  0  0  0
  5  9  2  0  0  0  0
  6 10  2  0  0  0  0
  7 10  1  0  0  0  0
  8 11  2  0  0  0  0
  9 11  1  0  0  0  0
 10 11  1  0  0  0  0
  1 12  1  0  0  0  0
  2 13  1  0  0  0  0
  3 14  1  0  0  0  0
  4 15  1  0  0  0  0
  5 16  1  0  0  0  0
  6 17  1  0  0  0  0
  7 18  1  0  0  0  0
  8 19  1  0  0  0  0
M  END
> <pdb_id>
4B33

> <uniprot_id>
O74036

> <usmiles>
Oc1c2c(ccc1)cccc2

$$$$
1NP_A_604
          07212404193D 1   1.00000     0.00000     0
            
 19 20  0  0  0  0            999 V2000
   -7.4876   10.5631  -58.1873 O   0  0  0  0  0  0  0  0  0  0  0  0
  -10.9654   10.7032  -54.5471 C   0  0  0  0  0  0  0  0  0  0  0  0
  -10.7580   11.4910  -55.7128 C   0  0  0  0  0  0  0  0  0  0  0  0
   -6.9610    8.0026  -55.6295 C   0  0  0  0  0  0  0  0  0  0  0  0
   -6.7424    8.7700  -56.8108 C   0  0  0  0  0  0  0  0  0  0  0  0
  -10.1055    9.6900  -54.2551 C   0  0  0  0  0  0  0  0  0  0  0  0
   -8.0210    8.2820  -54.8166 C   0  0  0  0  0  0  0  0  0  0  0  0
   -9.6981   11.1769  -56.5022 C   0  0  0  0  0  0  0  0  0  0  0  0
   -7.6235    9.7904  -57.0891 C   0  0  0  0  0  0  0  0  0  0  0  0
   -8.9683    9.3377  -55.0721 C   0  0  0  0  0  0  0  0  0  0  0  0
   -8.7599   10.1234  -56.2378 C   0  0  0  0  0  0  0  0  0  0  0  0
   -8.1419   11.2980  -58.3657 H   0  0  0  0  0  0  0  0  0  0  0  0
  -11.7404   10.8933  -53.9443 H   0  0  0  0  0  0  0  0  0  0  0  0
  -11.3696   12.2479  -55.9429 H   0  0  0  0  0  0  0  0  0  0  0  0
   -6.3362    7.2576  -55.3959 H   0  0  0  0  0  0  0  0  0  0  0  0
   -5.9729    8.5732  -57.4184 H   0  0  0  0  0  0  0  0  0  0  0  0
  -10.2710    9.1575  -53.4250 H   0  0  0  0  0  0  0  0  0  0  0  0
   -8.1475    7.7227  -53.9973 H   0  0  0  0  0  0  0  0  0  0  0  0
   -9.5612   11.7208  -57.3301 H   0  0  0  0  0  0  0  0  0  0  0  0
  1  9  1  0  0  0  0
  2  3  2  0  0  0  0
  2  6  1  0  0  0  0
  3  8  1  0  0  0  0
  4  5  1  0  0  0  0
  4  7  2  0  0  0  0
  5  9  2  0  0  0  0
  6 10  2  0  0  0  0
  7 10  1  0  0  0  0
  8 11  2  0  0  0  0
  9 11  1  0  0  0  0
 10 11  1  0  0  0  0
  1 12  1  0  0  0  0
  2 13  1  0  0  0  0
  3 14  1  0  0  0  0
  4 15  1  0  0  0  0
  5 16  1  0  0  0  0
  6 17  1  0  0  0  0
  7 18  1  0  0  0  0
  8 19  1  0  0  0  0
M  END
> <pdb_id>
7NNY

> <uniprot_id>
P9WIT9

> <usmiles>
Oc1c2c(ccc1)cccc2

$$$$
1NP_X_501
          07202400423D 1   1.00000     0.00000     0
            
 19 20  0  0  0  0            999 V2000
   47.9610   -5.5570   12.6030 O   0  0  0  0  0  0  0  0  0  0  0  0
   47.2670  -10.3990   13.3890 C   0  0  0  0  0  0  0  0  0  0  0  0
   46.7470   -9.2580   14.0090 C   0  0  0  0  0  0  0  0  0  0  0  0
   49.8430   -7.6180   10.4160 C   0  0  0  0  0  0  0  0  0  0  0  0
   49.3380   -6.4740   11.0300 C   0  0  0  0  0  0  0  0  0  0  0  0
   48.1800  -10.2670   12.3410 C   0  0  0  0  0  0  0  0  0  0  0  0
   49.4610   -8.8810   10.8600 C   0  0  0  0  0  0  0  0  0  0  0  0
   47.1320   -7.9880   13.5760 C   0  0  0  0  0  0  0  0  0  0  0  0
   48.4360   -6.5880   12.0820 C   0  0  0  0  0  0  0  0  0  0  0  0
   48.5530   -8.9990   11.9060 C   0  0  0  0  0  0  0  0  0  0  0  0
   48.0410   -7.8560   12.5230 C   0  0  0  0  0  0  0  0  0  0  0  0
   47.3119   -5.6328   13.3599 H   0  0  0  0  0  0  0  0  0  0  0  0
   46.9852  -11.3080   13.6960 H   0  0  0  0  0  0  0  0  0  0  0  0
   46.0981   -9.3523   14.7640 H   0  0  0  0  0  0  0  0  0  0  0  0
   50.4831   -7.5316    9.6526 H   0  0  0  0  0  0  0  0  0  0  0  0
   49.6246   -5.5697   10.7137 H   0  0  0  0  0  0  0  0  0  0  0  0
   48.5644  -11.0806   11.9047 H   0  0  0  0  0  0  0  0  0  0  0  0
   49.8383   -9.7002   10.4281 H   0  0  0  0  0  0  0  0  0  0  0  0
   46.7576   -7.1734   14.0190 H   0  0  0  0  0  0  0  0  0  0  0  0
  1  9  1  0  0  0  0
  2  3  2  0  0  0  0
  2  6  1  0  0  0  0
  3  8  1  0  0  0  0
  4  5  1  0  0  0  0
  4  7  2  0  0  0  0
  5  9  2  0  0  0  0
  6 10  2  0  0  0  0
  7 10  1  0  0  0  0
  8 11  2  0  0  0  0
  9 11  1  0  0  0  0
 10 11  1  0  0  0  0
  1 12  1  0  0  0  0
  2 13  1  0  0  0  0
  3 14  1  0  0  0  0
  4 15  1  0  0  0  0
  5 16  1  0  0  0  0
  6 17  1  0  0  0  0
  7 18  1  0  0  0  0
  8 19  1  0  0  0  0
M  END
> <pdb_id>
2ZVQ

> <uniprot_id>
Q9R2C2

> <usmiles>
Oc1c2c(ccc1)cccc2

$$$$
1NQ_A_402
          07202407083D 1   1.00000     0.00000     0
            
 59 62  0  0  0  0            999 V2000
   23.2900   49.8570   -4.2580 S   0  0  0  0  0  0  0  0  0  0  0  0
   22.1380   41.3090    1.4050 S   0  0  0  0  0  0  0  0  0  0  0  0
   20.5150   38.6050    1.4890 O   0  0  0  0  0  0  0  0  0  0  0  0
   21.8720   52.5560   -5.0720 O   0  0  0  0  0  0  0  0  0  0  0  0
   24.7330   47.4040   -2.8910 O   0  0  0  0  0  0  0  0  0  0  0  0
   20.8800   38.2920    3.6980 N   0  0  0  0  0  0  0  0  0  0  0  0
   21.9500   52.1010   -7.2860 N   0  0  0  0  0  0  0  0  0  0  0  0
   24.6380   46.1250   -4.7530 N   0  0  0  0  0  0  0  0  0  0  0  0
   24.7080   43.9750    2.8840 N   0  0  0  0  0  0  0  0  0  0  0  0
   24.2340   42.2710    4.3740 N   0  0  0  0  0  0  0  0  0  0  0  0
   23.7260   44.0560    0.7200 N   0  0  0  0  0  0  0  0  0  0  0  0
   21.1630   54.2790   -6.4830 C   0  0  0  0  0  0  0  0  0  0  0  0
   24.8640   43.3910    4.0590 C   0  0  0  0  0  0  0  0  0  0  0  0
   21.3500   53.3760   -7.7050 C   0  0  0  0  0  0  0  0  0  0  0  0
   25.2300   44.9340   -4.1270 C   0  0  0  0  0  0  0  0  0  0  0  0
   22.4780   43.8490   -0.0470 C   0  0  0  0  0  0  0  0  0  0  0  0
   24.7990   44.9150    0.1690 C   0  0  0  0  0  0  0  0  0  0  0  0
   23.0320   49.5080   -6.6850 C   0  0  0  0  0  0  0  0  0  0  0  0
   23.5990   48.3780   -6.2060 C   0  0  0  0  0  0  0  0  0  0  0  0
   24.1200   44.0600   -3.5400 C   0  0  0  0  0  0  0  0  0  0  0  0
   22.8210   43.4690   -1.4890 C   0  0  0  0  0  0  0  0  0  0  0  0
   25.0840   44.5090   -1.2790 C   0  0  0  0  0  0  0  0  0  0  0  0
   22.6840   40.5300    3.6770 C   0  0  0  0  0  0  0  0  0  0  0  0
   21.0380   38.9440    2.5490 C   0  0  0  0  0  0  0  0  0  0  0  0
   22.1560   51.8070   -6.0050 C   0  0  0  0  0  0  0  0  0  0  0  0
   24.4430   47.2530   -4.0770 C   0  0  0  0  0  0  0  0  0  0  0  0
   22.7890   50.4370   -5.7510 C   0  0  0  0  0  0  0  0  0  0  0  0
   23.8160   48.3910   -4.8850 C   0  0  0  0  0  0  0  0  0  0  0  0
   21.9360   40.1800    2.6250 C   0  0  0  0  0  0  0  0  0  0  0  0
   23.2190   42.2670    2.2650 C   0  0  0  0  0  0  0  0  0  0  0  0
   23.8940   43.4400    1.9650 C   0  0  0  0  0  0  0  0  0  0  0  0
   23.3990   41.6660    3.5150 C   0  0  0  0  0  0  0  0  0  0  0  0
   23.7960   44.4750   -2.1040 C   0  0  0  0  0  0  0  0  0  0  0  0
   21.3341   38.6209    4.5260 H   0  0  0  0  0  0  0  0  0  0  0  0
   20.3072   37.4731    3.7335 H   0  0  0  0  0  0  0  0  0  0  0  0
   22.2111   51.4349   -7.9847 H   0  0  0  0  0  0  0  0  0  0  0  0
   24.3739   46.0855   -5.7167 H   0  0  0  0  0  0  0  0  0  0  0  0
   20.7549   55.1461   -6.7686 H   0  0  0  0  0  0  0  0  0  0  0  0
   20.5607   53.8280   -5.8243 H   0  0  0  0  0  0  0  0  0  0  0  0
   22.0513   54.4527   -6.0579 H   0  0  0  0  0  0  0  0  0  0  0  0
   25.4766   43.8081    4.7303 H   0  0  0  0  0  0  0  0  0  0  0  0
   20.4616   53.2024   -8.1301 H   0  0  0  0  0  0  0  0  0  0  0  0
   21.9522   53.8271   -8.3636 H   0  0  0  0  0  0  0  0  0  0  0  0
   25.8530   45.2160   -3.3974 H   0  0  0  0  0  0  0  0  0  0  0  0
   25.7359   44.4130   -4.8144 H   0  0  0  0  0  0  0  0  0  0  0  0
   21.9411   44.6926   -0.0436 H   0  0  0  0  0  0  0  0  0  0  0  0
   21.9465   43.1139    0.3738 H   0  0  0  0  0  0  0  0  0  0  0  0
   25.6288   44.8040    0.7159 H   0  0  0  0  0  0  0  0  0  0  0  0
   24.5075   45.8712    0.1959 H   0  0  0  0  0  0  0  0  0  0  0  0
   22.8132   49.6389   -7.6519 H   0  0  0  0  0  0  0  0  0  0  0  0
   23.8358   47.6000   -6.7879 H   0  0  0  0  0  0  0  0  0  0  0  0
   24.4184   43.1056   -3.5450 H   0  0  0  0  0  0  0  0  0  0  0  0
   23.2978   44.1552   -4.1012 H   0  0  0  0  0  0  0  0  0  0  0  0
   21.9812   43.4537   -2.0317 H   0  0  0  0  0  0  0  0  0  0  0  0
   23.2397   42.5609   -1.4971 H   0  0  0  0  0  0  0  0  0  0  0  0
   25.5016   43.6004   -1.2875 H   0  0  0  0  0  0  0  0  0  0  0  0
   25.7151   45.1697   -1.6855 H   0  0  0  0  0  0  0  0  0  0  0  0
   22.7123   39.9922    4.5196 H   0  0  0  0  0  0  0  0  0  0  0  0
   23.3786   45.3837   -2.1066 H   0  0  0  0  0  0  0  0  0  0  0  0
  1 27  1  0  0  0  0
  1 28  1  0  0  0  0
  2 29  1  0  0  0  0
  2 30  1  0  0  0  0
  3 24  2  0  0  0  0
  4 25  2  0  0  0  0
  5 26  2  0  0  0  0
  6 24  1  0  0  0  0
  7 14  1  0  0  0  0
  7 25  1  0  0  0  0
  8 15  1  0  0  0  0
  8 26  1  0  0  0  0
  9 13  2  0  0  0  0
  9 31  1  0  0  0  0
 10 13  1  0  0  0  0
 10 32  2  0  0  0  0
 11 16  1  0  0  0  0
 11 17  1  0  0  0  0
 11 31  1  0  0  0  0
 12 14  1  0  0  0  0
 15 20  1  0  0  0  0
 16 21  1  0  0  0  0
 17 22  1  0  0  0  0
 18 19  1  0  0  0  0
 18 27  2  0  0  0  0
 19 28  2  0  0  0  0
 20 33  1  0  0  0  0
 21 33  1  0  0  0  0
 22 33  1  0  0  0  0
 23 29  2  0  0  0  0
 23 32  1  0  0  0  0
 24 29  1  0  0  0  0
 25 27  1  0  0  0  0
 26 28  1  0  0  0  0
 30 31  2  0  0  0  0
 30 32  1  0  0  0  0
  6 34  1  0  0  0  0
  6 35  1  0  0  0  0
  7 36  1  0  0  0  0
  8 37  1  0  0  0  0
 12 38  1  0  0  0  0
 12 39  1  0  0  0  0
 12 40  1  0  0  0  0
 13 41  1  0  0  0  0
 14 42  1  0  0  0  0
 14 43  1  0  0  0  0
 15 44  1  0  0  0  0
 15 45  1  0  0  0  0
 16 46  1  0  0  0  0
 16 47  1  0  0  0  0
 17 48  1  0  0  0  0
 17 49  1  0  0  0  0
 18 50  1  0  0  0  0
 19 51  1  0  0  0  0
 20 52  1  0  0  0  0
 20 53  1  0  0  0  0
 21 54  1  0  0  0  0
 21 55  1  0  0  0  0
 22 56  1  0  0  0  0
 22 57  1  0  0  0  0
 23 58  1  0  0  0  0
 33 59  1  0  0  0  0
M  END
> <pdb_id>
4JSR

> <uniprot_id>
Q9NTG7

> <usmiles>
S1c2c(ncnc2C=C1C(=O)N)N3CCC(CC3)CCNC(=O)C=4SC(C(=O)NCC)=CC4

$$$$
1NS_A_402
          07202407083D 1   1.00000     0.00000     0
            
 46 48  0  0  0  0            999 V2000
   22.0272   41.2215    1.5170 S   0  0  0  0  0  0  0  0  0  0  0  0
   24.5858   47.1015   -4.4204 S   0  0  0  0  0  0  0  0  0  0  0  0
   23.3704   47.4632   -4.9568 O   0  0  0  0  0  0  0  0  0  0  0  0
   25.5063   47.8745   -5.3682 O   0  0  0  0  0  0  0  0  0  0  0  0
   20.5055   38.6314    1.4056 O   0  0  0  0  0  0  0  0  0  0  0  0
   20.6006   38.1093    3.6772 N   0  0  0  0  0  0  0  0  0  0  0  0
   25.0077   45.4972   -4.6453 N   0  0  0  0  0  0  0  0  0  0  0  0
   24.6226   43.9590    2.9101 N   0  0  0  0  0  0  0  0  0  0  0  0
   24.3023   42.1998    4.4224 N   0  0  0  0  0  0  0  0  0  0  0  0
   23.4719   44.0679    0.7519 N   0  0  0  0  0  0  0  0  0  0  0  0
   24.8336   47.6495   -2.7824 C   0  0  0  0  0  0  0  0  0  0  0  0
   24.8997   43.3511    4.1035 C   0  0  0  0  0  0  0  0  0  0  0  0
   24.0073   44.5629   -4.4099 C   0  0  0  0  0  0  0  0  0  0  0  0
   22.3467   43.9748   -0.1782 C   0  0  0  0  0  0  0  0  0  0  0  0
   24.6214   44.8360    0.3289 C   0  0  0  0  0  0  0  0  0  0  0  0
   24.3692   43.5889   -3.2858 C   0  0  0  0  0  0  0  0  0  0  0  0
   22.8033   43.3799   -1.4677 C   0  0  0  0  0  0  0  0  0  0  0  0
   25.0845   44.3179   -1.0053 C   0  0  0  0  0  0  0  0  0  0  0  0
   22.6534   40.2799    3.8228 C   0  0  0  0  0  0  0  0  0  0  0  0
   20.9636   38.8916    2.5214 C   0  0  0  0  0  0  0  0  0  0  0  0
   21.8314   40.0087    2.6841 C   0  0  0  0  0  0  0  0  0  0  0  0
   23.1138   42.1855    2.3399 C   0  0  0  0  0  0  0  0  0  0  0  0
   23.7633   43.3889    2.0112 C   0  0  0  0  0  0  0  0  0  0  0  0
   23.4134   41.5727    3.5844 C   0  0  0  0  0  0  0  0  0  0  0  0
   23.9433   44.1681   -1.9524 C   0  0  0  0  0  0  0  0  0  0  0  0
   20.9820   38.3351    4.5736 H   0  0  0  0  0  0  0  0  0  0  0  0
   19.9675   37.3411    3.5822 H   0  0  0  0  0  0  0  0  0  0  0  0
   25.7682   45.2922   -4.0292 H   0  0  0  0  0  0  0  0  0  0  0  0
   25.7328   47.3504   -2.4632 H   0  0  0  0  0  0  0  0  0  0  0  0
   24.7850   48.6480   -2.7541 H   0  0  0  0  0  0  0  0  0  0  0  0
   24.1249   47.2644   -2.1913 H   0  0  0  0  0  0  0  0  0  0  0  0
   25.5501   43.7690    4.7378 H   0  0  0  0  0  0  0  0  0  0  0  0
   23.8516   44.0412   -5.2488 H   0  0  0  0  0  0  0  0  0  0  0  0
   23.1692   45.0467   -4.1579 H   0  0  0  0  0  0  0  0  0  0  0  0
   21.9788   44.8893   -0.3466 H   0  0  0  0  0  0  0  0  0  0  0  0
   21.6341   43.3970    0.2198 H   0  0  0  0  0  0  0  0  0  0  0  0
   25.3560   44.7396    1.0005 H   0  0  0  0  0  0  0  0  0  0  0  0
   24.3697   45.8003    0.2462 H   0  0  0  0  0  0  0  0  0  0  0  0
   25.3578   43.4379   -3.2822 H   0  0  0  0  0  0  0  0  0  0  0  0
   23.8996   42.7189   -3.4357 H   0  0  0  0  0  0  0  0  0  0  0  0
   22.0609   43.4099   -2.1370 H   0  0  0  0  0  0  0  0  0  0  0  0
   23.0837   42.4310   -1.3231 H   0  0  0  0  0  0  0  0  0  0  0  0
   25.5197   43.4269   -0.8757 H   0  0  0  0  0  0  0  0  0  0  0  0
   25.7470   44.9594   -1.3920 H   0  0  0  0  0  0  0  0  0  0  0  0
   22.7172   39.7107    4.6425 H   0  0  0  0  0  0  0  0  0  0  0  0
   23.5990   45.0889   -2.1357 H   0  0  0  0  0  0  0  0  0  0  0  0
  1 21  1  0  0  0  0
  1 22  1  0  0  0  0
  2  3  2  0  0  0  0
  2  4  2  0  0  0  0
  2  7  1  0  0  0  0
  2 11  1  0  0  0  0
  5 20  2  0  0  0  0
  6 20  1  0  0  0  0
  7 13  1  0  0  0  0
  8 12  2  0  0  0  0
  8 23  1  0  0  0  0
  9 12  1  0  0  0  0
  9 24  2  0  0  0  0
 10 14  1  0  0  0  0
 10 15  1  0  0  0  0
 10 23  1  0  0  0  0
 13 16  1  0  0  0  0
 14 17  1  0  0  0  0
 15 18  1  0  0  0  0
 16 25  1  0  0  0  0
 17 25  1  0  0  0  0
 18 25  1  0  0  0  0
 19 21  2  0  0  0  0
 19 24  1  0  0  0  0
 20 21  1  0  0  0  0
 22 23  2  0  0  0  0
 22 24  1  0  0  0  0
  6 26  1  0  0  0  0
  6 27  1  0  0  0  0
  7 28  1  0  0  0  0
 11 29  1  0  0  0  0
 11 30  1  0  0  0  0
 11 31  1  0  0  0  0
 12 32  1  0  0  0  0
 13 33  1  0  0  0  0
 13 34  1  0  0  0  0
 14 35  1  0  0  0  0
 14 36  1  0  0  0  0
 15 37  1  0  0  0  0
 15 38  1  0  0  0  0
 16 39  1  0  0  0  0
 16 40  1  0  0  0  0
 17 41  1  0  0  0  0
 17 42  1  0  0  0  0
 18 43  1  0  0  0  0
 18 44  1  0  0  0  0
 19 45  1  0  0  0  0
 25 46  1  0  0  0  0
M  END
> <pdb_id>
4JT9

> <uniprot_id>
Q9NTG7

> <usmiles>
S(=O)(=O)(NCCC1CCN(c2ncnc3c2SC(C(=O)N)=C3)CC1)C

$$$$
1O7_A_701
          07202408053D 1   1.00000     0.00000     0
            
 28 30  0  0  0  0            999 V2000
   51.6325   17.2655   14.7236 S   0  0  0  0  0  0  0  0  0  0  0  0
   49.5202   19.1207   10.5960 O   0  0  0  0  0  0  0  0  0  0  0  0
   55.5910   20.1794    9.0301 O   0  0  0  0  0  0  0  0  0  0  0  0
   50.5108   18.3078   12.4476 N   0  0  0  0  0  0  0  0  0  0  0  0
   57.8771   19.7595    8.4453 C   0  0  0  0  0  0  0  0  0  0  0  0
   53.3545   17.3484   14.7707 C   0  0  0  0  0  0  0  0  0  0  0  0
   56.7453   19.3819    9.3602 C   0  0  0  0  0  0  0  0  0  0  0  0
   53.9081   17.8885   13.6401 C   0  0  0  0  0  0  0  0  0  0  0  0
   53.2345   20.1719    8.9053 C   0  0  0  0  0  0  0  0  0  0  0  0
   52.0071   19.8776    9.4106 C   0  0  0  0  0  0  0  0  0  0  0  0
   54.3198   19.2418   10.8629 C   0  0  0  0  0  0  0  0  0  0  0  0
   51.6301   18.0111   13.1567 C   0  0  0  0  0  0  0  0  0  0  0  0
   50.5679   18.9090   11.2085 C   0  0  0  0  0  0  0  0  0  0  0  0
   54.4059   19.8560    9.6329 C   0  0  0  0  0  0  0  0  0  0  0  0
   52.9087   18.3010   12.6791 C   0  0  0  0  0  0  0  0  0  0  0  0
   51.8801   19.2490   10.6695 C   0  0  0  0  0  0  0  0  0  0  0  0
   53.0586   18.9200   11.4040 C   0  0  0  0  0  0  0  0  0  0  0  0
   49.6173   18.0833   12.8364 H   0  0  0  0  0  0  0  0  0  0  0  0
   58.6828   19.2104    8.6676 H   0  0  0  0  0  0  0  0  0  0  0  0
   57.6097   19.5901    7.4967 H   0  0  0  0  0  0  0  0  0  0  0  0
   58.0917   20.7291    8.5631 H   0  0  0  0  0  0  0  0  0  0  0  0
   53.8970   17.0325   15.5491 H   0  0  0  0  0  0  0  0  0  0  0  0
   56.5282   18.4128    9.2430 H   0  0  0  0  0  0  0  0  0  0  0  0
   57.0102   19.5517   10.3094 H   0  0  0  0  0  0  0  0  0  0  0  0
   54.8927   17.9865   13.4952 H   0  0  0  0  0  0  0  0  0  0  0  0
   53.3099   20.6151    8.0120 H   0  0  0  0  0  0  0  0  0  0  0  0
   51.1871   20.1082    8.8867 H   0  0  0  0  0  0  0  0  0  0  0  0
   55.1525   19.0242   11.3722 H   0  0  0  0  0  0  0  0  0  0  0  0
  1  6  1  0  0  0  0
  1 12  1  0  0  0  0
  2 13  2  0  0  0  0
  3  7  1  0  0  0  0
  3 14  1  0  0  0  0
  4 12  1  0  0  0  0
  4 13  1  0  0  0  0
  5  7  1  0  0  0  0
  6  8  2  0  0  0  0
  8 15  1  0  0  0  0
  9 10  1  0  0  0  0
  9 14  2  0  0  0  0
 10 16  2  0  0  0  0
 11 14  1  0  0  0  0
 11 17  2  0  0  0  0
 12 15  2  0  0  0  0
 13 16  1  0  0  0  0
 15 17  1  0  0  0  0
 16 17  1  0  0  0  0
  4 18  1  0  0  0  0
  5 19  1  0  0  0  0
  5 20  1  0  0  0  0
  5 21  1  0  0  0  0
  6 22  1  0  0  0  0
  7 23  1  0  0  0  0
  7 24  1  0  0  0  0
  8 25  1  0  0  0  0
  9 26  1  0  0  0  0
 10 27  1  0  0  0  0
 11 28  1  0  0  0  0
M  END
> <pdb_id>
7OUX

> <uniprot_id>
Q460N3

> <usmiles>
S1C=2NC(=O)c3c(cc(OCC)cc3)C2C=C1

$$$$
1O8_A_500
          07202409333D 1   1.00000     0.00000     0
            
 44 45  0  0  0  0            999 V2000
  -18.6140  -10.1648  -29.4140 O   0  0  0  0  0  0  0  0  0  0  0  0
  -20.4259   -9.2287  -30.2473 O   0  0  0  0  0  0  0  0  0  0  0  0
  -19.9949   -6.4673  -30.4516 C   0  0  0  0  0  0  0  0  0  0  0  0
  -17.8902   -0.9736  -26.9747 C   0  0  0  0  0  0  0  0  0  0  0  0
  -18.1372    0.0655  -34.1828 C   0  0  0  0  0  0  0  0  0  0  0  0
  -17.5016   -1.0310  -33.6056 C   0  0  0  0  0  0  0  0  0  0  0  0
  -18.8249   -4.3887  -28.5837 C   0  0  0  0  0  0  0  0  0  0  0  0
  -19.8595    1.5068  -29.7850 C   0  0  0  0  0  0  0  0  0  0  0  0
  -19.1978   -5.6477  -28.1220 C   0  0  0  0  0  0  0  0  0  0  0  0
  -18.5666   -3.3166  -27.6223 C   0  0  0  0  0  0  0  0  0  0  0  0
  -18.9544    0.8929  -33.4205 C   0  0  0  0  0  0  0  0  0  0  0  0
  -20.0985    1.5782  -31.2967 C   0  0  0  0  0  0  0  0  0  0  0  0
  -19.7588    0.0726  -29.2564 C   0  0  0  0  0  0  0  0  0  0  0  0
  -17.6997   -1.2850  -32.2548 C   0  0  0  0  0  0  0  0  0  0  0  0
  -19.2106   -8.0578  -28.6257 C   0  0  0  0  0  0  0  0  0  0  0  0
  -18.0054   -1.7344  -29.4561 C   0  0  0  0  0  0  0  0  0  0  0  0
  -19.4359   -9.2256  -29.4833 C   0  0  0  0  0  0  0  0  0  0  0  0
  -19.4521   -6.7557  -29.0503 C   0  0  0  0  0  0  0  0  0  0  0  0
  -18.1769   -2.0436  -28.0284 C   0  0  0  0  0  0  0  0  0  0  0  0
  -19.1627    0.6417  -32.0679 C   0  0  0  0  0  0  0  0  0  0  0  0
  -18.7339   -0.7232  -30.0670 C   0  0  0  0  0  0  0  0  0  0  0  0
  -18.5227   -0.4563  -31.4987 C   0  0  0  0  0  0  0  0  0  0  0  0
  -17.8402  -10.1064  -28.7832 H   0  0  0  0  0  0  0  0  0  0  0  0
  -20.1093   -7.3276  -30.9484 H   0  0  0  0  0  0  0  0  0  0  0  0
  -20.8785   -6.0048  -30.3781 H   0  0  0  0  0  0  0  0  0  0  0  0
  -19.3517   -5.8810  -30.9441 H   0  0  0  0  0  0  0  0  0  0  0  0
  -17.6244   -0.1225  -27.4277 H   0  0  0  0  0  0  0  0  0  0  0  0
  -18.7117   -0.8169  -26.4265 H   0  0  0  0  0  0  0  0  0  0  0  0
  -17.1468   -1.2813  -26.3808 H   0  0  0  0  0  0  0  0  0  0  0  0
  -18.0047    0.2596  -35.1548 H   0  0  0  0  0  0  0  0  0  0  0  0
  -16.9130   -1.6249  -34.1541 H   0  0  0  0  0  0  0  0  0  0  0  0
  -18.7342   -4.2182  -29.5649 H   0  0  0  0  0  0  0  0  0  0  0  0
  -20.6186    1.9637  -29.3214 H   0  0  0  0  0  0  0  0  0  0  0  0
  -19.0056    1.9833  -29.5755 H   0  0  0  0  0  0  0  0  0  0  0  0
  -19.2945   -5.8003  -27.1385 H   0  0  0  0  0  0  0  0  0  0  0  0
  -18.6729   -3.5038  -26.6457 H   0  0  0  0  0  0  0  0  0  0  0  0
  -19.3985    1.6791  -33.8502 H   0  0  0  0  0  0  0  0  0  0  0  0
  -19.9424    2.5167  -31.6047 H   0  0  0  0  0  0  0  0  0  0  0  0
  -21.0451    1.3180  -31.4870 H   0  0  0  0  0  0  0  0  0  0  0  0
  -20.6527   -0.3695  -29.3304 H   0  0  0  0  0  0  0  0  0  0  0  0
  -19.4759    0.0939  -28.2974 H   0  0  0  0  0  0  0  0  0  0  0  0
  -17.2491   -2.0667  -31.8238 H   0  0  0  0  0  0  0  0  0  0  0  0
  -18.8692   -8.2036  -27.6972 H   0  0  0  0  0  0  0  0  0  0  0  0
  -17.3512   -2.2629  -29.9971 H   0  0  0  0  0  0  0  0  0  0  0  0
  1 17  1  0  0  0  0
  2 17  2  0  0  0  0
  3 18  1  0  0  0  0
  4 19  1  0  0  0  0
  5  6  2  0  0  0  0
  5 11  1  0  0  0  0
  6 14  1  0  0  0  0
  7  9  2  0  0  0  0
  7 10  1  0  0  0  0
  8 12  1  0  0  0  0
  8 13  1  0  0  0  0
  9 18  1  0  0  0  0
 10 19  2  0  0  0  0
 11 20  2  0  0  0  0
 12 20  1  0  0  0  0
 13 21  1  0  0  0  0
 14 22  2  0  0  0  0
 15 17  1  0  0  0  0
 15 18  2  0  0  0  0
 16 19  1  0  0  0  0
 16 21  2  0  0  0  0
 20 22  1  0  0  0  0
 21 22  1  0  0  0  0
  1 23  1  0  0  0  0
  3 24  1  0  0  0  0
  3 25  1  0  0  0  0
  3 26  1  0  0  0  0
  4 27  1  0  0  0  0
  4 28  1  0  0  0  0
  4 29  1  0  0  0  0
  5 30  1  0  0  0  0
  6 31  1  0  0  0  0
  7 32  1  0  0  0  0
  8 33  1  0  0  0  0
  8 34  1  0  0  0  0
  9 35  1  0  0  0  0
 10 36  1  0  0  0  0
 11 37  1  0  0  0  0
 12 38  1  0  0  0  0
 12 39  1  0  0  0  0
 13 40  1  0  0  0  0
 13 41  1  0  0  0  0
 14 42  1  0  0  0  0
 15 43  1  0  0  0  0
 16 44  1  0  0  0  0
M  END
> <pdb_id>
4K4J

> <uniprot_id>
P19793

> <usmiles>
O=C(O)/C=C(/C=C/C=C(\C=C/1\c2c(cccc2)CCC1)/C)\C

$$$$
1OA_A_401
          07192419233D 1   1.00000     0.00000     0
            
 44 47  0  0  0  0            999 V2000
  -21.6384   41.2904   -5.0774 F   0  0  0  0  0  0  0  0  0  0  0  0
  -20.6642   38.6590    0.7304 O   0  0  0  0  0  0  0  0  0  0  0  0
  -15.9065   33.8966    2.0701 O   0  0  0  0  0  0  0  0  0  0  0  0
  -17.9941   35.9772    2.5374 N   0  0  0  0  0  0  0  0  0  0  0  0
  -15.7122   35.6144   -5.2904 N   0  0  0  0  0  0  0  0  0  0  0  0
  -19.6427   37.9389   -1.1841 N   0  0  0  0  0  0  0  0  0  0  0  0
  -17.8263   35.8229   -0.9739 N   0  0  0  0  0  0  0  0  0  0  0  0
  -17.4944   35.4697    1.3337 N   0  0  0  0  0  0  0  0  0  0  0  0
  -16.9459   34.8330   -5.1027 C   0  0  0  0  0  0  0  0  0  0  0  0
  -14.6609   35.1613   -4.3630 C   0  0  0  0  0  0  0  0  0  0  0  0
  -18.8889   36.9055    2.2894 C   0  0  0  0  0  0  0  0  0  0  0  0
  -20.1084   39.6013   -4.4050 C   0  0  0  0  0  0  0  0  0  0  0  0
  -21.7260   40.4922   -2.8461 C   0  0  0  0  0  0  0  0  0  0  0  0
  -17.5162   35.1140   -3.7091 C   0  0  0  0  0  0  0  0  0  0  0  0
  -15.1600   35.2683   -2.9134 C   0  0  0  0  0  0  0  0  0  0  0  0
  -19.6279   38.7685   -3.4128 C   0  0  0  0  0  0  0  0  0  0  0  0
  -21.2485   39.6645   -1.8519 C   0  0  0  0  0  0  0  0  0  0  0  0
  -16.2416   34.2368   -0.2346 C   0  0  0  0  0  0  0  0  0  0  0  0
  -19.8758   37.9296    0.1496 C   0  0  0  0  0  0  0  0  0  0  0  0
  -16.5492   34.5223    1.0643 C   0  0  0  0  0  0  0  0  0  0  0  0
  -21.1589   40.4650   -4.1171 C   0  0  0  0  0  0  0  0  0  0  0  0
  -18.1240   36.1106    0.3000 C   0  0  0  0  0  0  0  0  0  0  0  0
  -20.2151   38.7778   -2.1439 C   0  0  0  0  0  0  0  0  0  0  0  0
  -16.9171   34.9029   -1.2639 C   0  0  0  0  0  0  0  0  0  0  0  0
  -16.5200   34.5742   -2.6835 C   0  0  0  0  0  0  0  0  0  0  0  0
  -19.0335   37.0085    0.8918 C   0  0  0  0  0  0  0  0  0  0  0  0
  -15.9065   36.5803   -5.1193 H   0  0  0  0  0  0  0  0  0  0  0  0
  -18.9838   37.2668   -1.5217 H   0  0  0  0  0  0  0  0  0  0  0  0
  -18.2945   36.3068   -1.7132 H   0  0  0  0  0  0  0  0  0  0  0  0
  -16.7402   33.8582   -5.1892 H   0  0  0  0  0  0  0  0  0  0  0  0
  -17.6161   35.0952   -5.7970 H   0  0  0  0  0  0  0  0  0  0  0  0
  -13.8489   35.7337   -4.4772 H   0  0  0  0  0  0  0  0  0  0  0  0
  -14.4288   34.2097   -4.5644 H   0  0  0  0  0  0  0  0  0  0  0  0
  -19.3812   37.4448    2.9726 H   0  0  0  0  0  0  0  0  0  0  0  0
  -19.7051   39.5829   -5.3198 H   0  0  0  0  0  0  0  0  0  0  0  0
  -22.4839   41.1153   -2.6530 H   0  0  0  0  0  0  0  0  0  0  0  0
  -18.3979   34.6542   -3.6027 H   0  0  0  0  0  0  0  0  0  0  0  0
  -17.6363   36.0986   -3.5822 H   0  0  0  0  0  0  0  0  0  0  0  0
  -15.2542   36.2362   -2.6806 H   0  0  0  0  0  0  0  0  0  0  0  0
  -14.4821   34.8453   -2.3121 H   0  0  0  0  0  0  0  0  0  0  0  0
  -18.8588   38.1582   -3.6025 H   0  0  0  0  0  0  0  0  0  0  0  0
  -21.6396   39.7005   -0.9322 H   0  0  0  0  0  0  0  0  0  0  0  0
  -15.5396   33.5576   -0.4490 H   0  0  0  0  0  0  0  0  0  0  0  0
  -16.4214   33.5848   -2.7905 H   0  0  0  0  0  0  0  0  0  0  0  0
  1 21  1  0  0  0  0
  2 19  2  0  0  0  0
  3 20  2  0  0  0  0
  4  8  1  0  0  0  0
  4 11  2  0  0  0  0
  5  9  1  0  0  0  0
  5 10  1  0  0  0  0
  6 19  1  0  0  0  0
  6 23  1  0  0  0  0
  7 22  1  0  0  0  0
  7 24  1  0  0  0  0
  8 20  1  0  0  0  0
  8 22  1  0  0  0  0
  9 14  1  0  0  0  0
 10 15  1  0  0  0  0
 11 26  1  0  0  0  0
 12 16  1  0  0  0  0
 12 21  2  0  0  0  0
 13 17  2  0  0  0  0
 13 21  1  0  0  0  0
 14 25  1  0  0  0  0
 15 25  1  0  0  0  0
 16 23  2  0  0  0  0
 17 23  1  0  0  0  0
 18 20  1  0  0  0  0
 18 24  2  0  0  0  0
 19 26  1  0  0  0  0
 22 26  2  0  0  0  0
 24 25  1  0  0  0  0
  5 27  1  0  0  0  0
  6 28  1  0  0  0  0
  7 29  1  0  0  0  0
  9 30  1  0  0  0  0
  9 31  1  0  0  0  0
 10 32  1  0  0  0  0
 10 33  1  0  0  0  0
 11 34  1  0  0  0  0
 12 35  1  0  0  0  0
 13 36  1  0  0  0  0
 14 37  1  0  0  0  0
 14 38  1  0  0  0  0
 15 39  1  0  0  0  0
 15 40  1  0  0  0  0
 16 41  1  0  0  0  0
 17 42  1  0  0  0  0
 18 43  1  0  0  0  0
 25 44  1  0  0  0  0
M  END
> <pdb_id>
4K0Y

> <uniprot_id>
P11309

> <usmiles>
Fc1ccc(NC(=O)C2=C3N(N=C2)C(=O)C=C(N3)C4CCNCC4)cc1

$$$$
1OB_A_402
          07192419233D 1   1.00000     0.00000     0
            
 43 46  0  0  0  0            999 V2000
  -22.0693   40.9287    0.5330 F   0  0  0  0  0  0  0  0  0  0  0  0
  -17.7074   36.5852    2.5956 O   0  0  0  0  0  0  0  0  0  0  0  0
  -15.1842   31.4644   -1.0282 O   0  0  0  0  0  0  0  0  0  0  0  0
  -19.8532   40.8231   -4.5298 N   0  0  0  0  0  0  0  0  0  0  0  0
  -15.6649   33.2610    1.2248 N   0  0  0  0  0  0  0  0  0  0  0  0
  -18.5695   36.6684    0.4800 N   0  0  0  0  0  0  0  0  0  0  0  0
  -17.6289   34.6902   -1.3185 N   0  0  0  0  0  0  0  0  0  0  0  0
  -16.1784   33.3207   -0.0750 N   0  0  0  0  0  0  0  0  0  0  0  0
  -19.5862   39.7293   -4.3904 C   0  0  0  0  0  0  0  0  0  0  0  0
  -16.1528   34.2519    1.9218 C   0  0  0  0  0  0  0  0  0  0  0  0
  -20.8808   39.2679   -0.6605 C   0  0  0  0  0  0  0  0  0  0  0  0
  -20.6734   39.4511    1.7289 C   0  0  0  0  0  0  0  0  0  0  0  0
  -20.0013   38.2033   -0.6488 C   0  0  0  0  0  0  0  0  0  0  0  0
  -19.7969   38.3804    1.7405 C   0  0  0  0  0  0  0  0  0  0  0  0
  -17.9036   37.9922   -4.0119 C   0  0  0  0  0  0  0  0  0  0  0  0
  -20.2292   37.3687   -4.2350 C   0  0  0  0  0  0  0  0  0  0  0  0
  -17.5692   36.6580   -3.8476 C   0  0  0  0  0  0  0  0  0  0  0  0
  -19.8726   36.0403   -4.0621 C   0  0  0  0  0  0  0  0  0  0  0  0
  -16.6329   32.8145   -2.3341 C   0  0  0  0  0  0  0  0  0  0  0  0
  -18.1679   34.2345   -3.6897 C   0  0  0  0  0  0  0  0  0  0  0  0
  -21.2152   39.8862    0.5327 C   0  0  0  0  0  0  0  0  0  0  0  0
  -17.7718   36.1674    1.4533 C   0  0  0  0  0  0  0  0  0  0  0  0
  -15.9891   32.5322   -1.1603 C   0  0  0  0  0  0  0  0  0  0  0  0
  -19.4494   37.7561    0.5479 C   0  0  0  0  0  0  0  0  0  0  0  0
  -17.4595   33.9334   -2.3916 C   0  0  0  0  0  0  0  0  0  0  0  0
  -17.0036   34.3957   -0.1746 C   0  0  0  0  0  0  0  0  0  0  0  0
  -19.2393   38.3567   -4.2133 C   0  0  0  0  0  0  0  0  0  0  0  0
  -18.5490   35.6828   -3.8623 C   0  0  0  0  0  0  0  0  0  0  0  0
  -16.9896   35.0035    1.0864 C   0  0  0  0  0  0  0  0  0  0  0  0
  -18.5242   36.2004   -0.4027 H   0  0  0  0  0  0  0  0  0  0  0  0
  -18.2294   35.4886   -1.3642 H   0  0  0  0  0  0  0  0  0  0  0  0
  -15.9621   34.4414    2.8850 H   0  0  0  0  0  0  0  0  0  0  0  0
  -21.2725   39.5894   -1.5226 H   0  0  0  0  0  0  0  0  0  0  0  0
  -20.9149   39.9097    2.5841 H   0  0  0  0  0  0  0  0  0  0  0  0
  -19.7592   37.7502   -1.5068 H   0  0  0  0  0  0  0  0  0  0  0  0
  -19.4140   38.0561    2.6055 H   0  0  0  0  0  0  0  0  0  0  0  0
  -17.1915   38.6938   -3.9866 H   0  0  0  0  0  0  0  0  0  0  0  0
  -21.1874   37.6188   -4.3744 H   0  0  0  0  0  0  0  0  0  0  0  0
  -16.6123   36.3984   -3.7175 H   0  0  0  0  0  0  0  0  0  0  0  0
  -20.5785   35.3323   -4.0817 H   0  0  0  0  0  0  0  0  0  0  0  0
  -16.5121   32.2284   -3.1353 H   0  0  0  0  0  0  0  0  0  0  0  0
  -19.0018   33.6838   -3.7273 H   0  0  0  0  0  0  0  0  0  0  0  0
  -17.5640   33.9767   -4.4439 H   0  0  0  0  0  0  0  0  0  0  0  0
  1 21  1  0  0  0  0
  2 22  2  0  0  0  0
  3 23  2  0  0  0  0
  4  9  3  0  0  0  0
  5  8  1  0  0  0  0
  5 10  2  0  0  0  0
  6 22  1  0  0  0  0
  6 24  1  0  0  0  0
  7 25  1  0  0  0  0
  7 26  1  0  0  0  0
  8 23  1  0  0  0  0
  8 26  1  0  0  0  0
  9 27  1  0  0  0  0
 10 29  1  0  0  0  0
 11 13  1  0  0  0  0
 11 21  2  0  0  0  0
 12 14  2  0  0  0  0
 12 21  1  0  0  0  0
 13 24  2  0  0  0  0
 14 24  1  0  0  0  0
 15 17  1  0  0  0  0
 15 27  2  0  0  0  0
 16 18  2  0  0  0  0
 16 27  1  0  0  0  0
 17 28  2  0  0  0  0
 18 28  1  0  0  0  0
 19 23  1  0  0  0  0
 19 25  2  0  0  0  0
 20 25  1  0  0  0  0
 20 28  1  0  0  0  0
 22 29  1  0  0  0  0
 26 29  2  0  0  0  0
  6 30  1  0  0  0  0
  7 31  1  0  0  0  0
 10 32  1  0  0  0  0
 11 33  1  0  0  0  0
 12 34  1  0  0  0  0
 13 35  1  0  0  0  0
 14 36  1  0  0  0  0
 15 37  1  0  0  0  0
 16 38  1  0  0  0  0
 17 39  1  0  0  0  0
 18 40  1  0  0  0  0
 19 41  1  0  0  0  0
 20 42  1  0  0  0  0
 20 43  1  0  0  0  0
M  END
> <pdb_id>
4K18

> <uniprot_id>
P11309

> <usmiles>
Fc1ccc(NC(=O)C2=C3N(N=C2)C(=O)C=C(N3)Cc4ccc(C#N)cc4)cc1

$$$$
1OI_A_701
          07202408053D 1   1.00000     0.00000     0
            
 25 27  0  0  0  0            999 V2000
   51.7784   17.6077   14.6267 S   0  0  0  0  0  0  0  0  0  0  0  0
   49.4606   19.0800   10.4603 O   0  0  0  0  0  0  0  0  0  0  0  0
   55.3077   20.4340    8.5750 O   0  0  0  0  0  0  0  0  0  0  0  0
   50.5243   18.4135   12.3251 N   0  0  0  0  0  0  0  0  0  0  0  0
   56.5501   19.8066    8.8936 C   0  0  0  0  0  0  0  0  0  0  0  0
   53.4693   17.9368   14.6567 C   0  0  0  0  0  0  0  0  0  0  0  0
   53.9722   18.3086   13.4356 C   0  0  0  0  0  0  0  0  0  0  0  0
   52.9877   20.2193    8.5712 C   0  0  0  0  0  0  0  0  0  0  0  0
   51.8063   19.8906    9.1538 C   0  0  0  0  0  0  0  0  0  0  0  0
   54.2115   19.5100   10.5428 C   0  0  0  0  0  0  0  0  0  0  0  0
   51.6819   18.2465   13.0126 C   0  0  0  0  0  0  0  0  0  0  0  0
   50.5191   18.9331   11.0524 C   0  0  0  0  0  0  0  0  0  0  0  0
   54.1973   20.0275    9.2642 C   0  0  0  0  0  0  0  0  0  0  0  0
   52.9223   18.6002   12.4784 C   0  0  0  0  0  0  0  0  0  0  0  0
   51.7795   19.3325   10.4553 C   0  0  0  0  0  0  0  0  0  0  0  0
   52.9971   19.1359   11.1604 C   0  0  0  0  0  0  0  0  0  0  0  0
   49.6582   18.1536   12.7523 H   0  0  0  0  0  0  0  0  0  0  0  0
   57.2745   20.1925    8.3224 H   0  0  0  0  0  0  0  0  0  0  0  0
   56.7657   19.9643    9.8572 H   0  0  0  0  0  0  0  0  0  0  0  0
   56.4801   18.8235    8.7242 H   0  0  0  0  0  0  0  0  0  0  0  0
   54.0287   17.8641   15.4824 H   0  0  0  0  0  0  0  0  0  0  0  0
   54.9487   18.3712   13.2295 H   0  0  0  0  0  0  0  0  0  0  0  0
   52.9983   20.5991    7.6462 H   0  0  0  0  0  0  0  0  0  0  0  0
   50.9497   20.0435    8.6610 H   0  0  0  0  0  0  0  0  0  0  0  0
   55.0776   19.4000   11.0304 H   0  0  0  0  0  0  0  0  0  0  0  0
  1  6  1  0  0  0  0
  1 11  1  0  0  0  0
  2 12  2  0  0  0  0
  3  5  1  0  0  0  0
  3 13  1  0  0  0  0
  4 11  1  0  0  0  0
  4 12  1  0  0  0  0
  6  7  2  0  0  0  0
  7 14  1  0  0  0  0
  8  9  1  0  0  0  0
  8 13  2  0  0  0  0
  9 15  2  0  0  0  0
 10 13  1  0  0  0  0
 10 16  2  0  0  0  0
 11 14  2  0  0  0  0
 12 15  1  0  0  0  0
 14 16  1  0  0  0  0
 15 16  1  0  0  0  0
  4 17  1  0  0  0  0
  5 18  1  0  0  0  0
  5 19  1  0  0  0  0
  5 20  1  0  0  0  0
  6 21  1  0  0  0  0
  7 22  1  0  0  0  0
  8 23  1  0  0  0  0
  9 24  1  0  0  0  0
 10 25  1  0  0  0  0
M  END
> <pdb_id>
7OUW

> <uniprot_id>
Q460N3

> <usmiles>
S1C=2NC(=O)c3c(cc(OC)cc3)C2C=C1

$$$$
1OQ_B_810
          07202407143D 1   1.00000     0.00000     0
            
 28 29  0  0  0  0            999 V2000
   35.5700   44.6020   59.1040 F   0  0  0  0  0  0  0  0  0  0  0  0
   34.6880   53.8740   55.4660 F   0  0  0  0  0  0  0  0  0  0  0  0
   36.0870   52.8720   56.6950 F   0  0  0  0  0  0  0  0  0  0  0  0
   34.0190   52.7190   57.1310 F   0  0  0  0  0  0  0  0  0  0  0  0
   39.1570   49.7070   55.8780 N   0  0  0  0  0  0  0  0  0  0  0  0
   35.7760   50.6110   55.6130 N   0  0  0  0  0  0  0  0  0  0  0  0
   38.1800   49.1550   55.6310 C   0  0  0  0  0  0  0  0  0  0  0  0
   34.0110   50.2470   53.5700 C   0  0  0  0  0  0  0  0  0  0  0  0
   34.9750   49.2860   53.8720 C   0  0  0  0  0  0  0  0  0  0  0  0
   35.3540   46.8440   58.3100 C   0  0  0  0  0  0  0  0  0  0  0  0
   36.7750   45.2230   57.1470 C   0  0  0  0  0  0  0  0  0  0  0  0
   33.9390   51.4540   54.2920 C   0  0  0  0  0  0  0  0  0  0  0  0
   35.6990   47.8240   57.3720 C   0  0  0  0  0  0  0  0  0  0  0  0
   37.1040   46.1970   56.2200 C   0  0  0  0  0  0  0  0  0  0  0  0
   35.8770   45.5500   58.1910 C   0  0  0  0  0  0  0  0  0  0  0  0
   35.8660   49.4770   54.9310 C   0  0  0  0  0  0  0  0  0  0  0  0
   34.8560   51.5690   55.3220 C   0  0  0  0  0  0  0  0  0  0  0  0
   36.5460   47.4830   56.3170 C   0  0  0  0  0  0  0  0  0  0  0  0
   36.9280   48.4750   55.2700 C   0  0  2  0  0  0  0  0  0  0  0  0
   34.8890   52.7930   56.1660 C   0  0  0  0  0  0  0  0  0  0  0  0
   33.3609   50.0766   52.8295 H   0  0  0  0  0  0  0  0  0  0  0  0
   35.0292   48.4509   53.3246 H   0  0  0  0  0  0  0  0  0  0  0  0
   34.7355   47.0672   59.0634 H   0  0  0  0  0  0  0  0  0  0  0  0
   37.1649   44.3046   57.0802 H   0  0  0  0  0  0  0  0  0  0  0  0
   33.2769   52.1719   54.0771 H   0  0  0  0  0  0  0  0  0  0  0  0
   35.3436   48.7549   57.4568 H   0  0  0  0  0  0  0  0  0  0  0  0
   37.7409   45.9847   55.4788 H   0  0  0  0  0  0  0  0  0  0  0  0
   37.1120   47.9564   54.4350 H   0  0  0  0  0  0  0  0  0  0  0  0
  1 15  1  0  0  0  0
  2 20  1  0  0  0  0
  3 20  1  0  0  0  0
  4 20  1  0  0  0  0
  5  7  3  0  0  0  0
  6 16  2  0  0  0  0
  6 17  1  0  0  0  0
  7 19  1  0  0  0  0
  8  9  2  0  0  0  0
  8 12  1  0  0  0  0
  9 16  1  0  0  0  0
 10 13  2  0  0  0  0
 10 15  1  0  0  0  0
 11 14  1  0  0  0  0
 11 15  2  0  0  0  0
 12 17  2  0  0  0  0
 13 18  1  0  0  0  0
 14 18  2  0  0  0  0
 16 19  1  0  0  0  0
 17 20  1  0  0  0  0
 18 19  1  0  0  0  0
  8 21  1  0  0  0  0
  9 22  1  0  0  0  0
 10 23  1  0  0  0  0
 11 24  1  0  0  0  0
 12 25  1  0  0  0  0
 13 26  1  0  0  0  0
 14 27  1  0  0  0  0
 19 28  1  0  0  0  0
M  END
> <pdb_id>
4K2G

> <uniprot_id>
Q9I194

> <usmiles>
Fc1ccc(cc1)[C@H](C#N)c2nc(ccc2)C(F)(F)F

$$$$
1OT_A_1004
          07212402553D 1   1.00000     0.00000     0
            
 29 30  0  0  0  0            999 V2000
  176.1598   37.6035  -42.1181 P   0  0  0  0  0  0  0  0  0  0  0  0
  175.4865   38.5386  -43.0513 O   0  0  0  0  0  0  0  0  0  0  0  0
  176.3762   38.2810  -40.6713 O   0  0  0  0  0  0  0  0  0  0  0  0
  175.2549   36.2787  -41.9488 O   0  0  0  0  0  0  0  0  0  0  0  0
  178.5150   38.4495  -43.0191 N   0  0  0  0  0  0  0  0  0  0  0  0
  181.1768   33.4403  -38.8356 N   0  0  0  0  0  0  0  0  0  0  0  0
  181.2051   33.7583  -40.1887 N   0  0  0  0  0  0  0  0  0  0  0  0
  182.2119   32.5810  -38.7150 C   0  0  0  0  0  0  0  0  0  0  0  0
  182.1645   33.1735  -40.8974 C   0  0  0  0  0  0  0  0  0  0  0  0
  182.8242   32.4186  -39.9539 C   0  0  0  0  0  0  0  0  0  0  0  0
  180.4595   34.8412  -42.1247 C   0  0  0  0  0  0  0  0  0  0  0  0
  179.3076   35.2523  -40.0901 C   0  0  0  0  0  0  0  0  0  0  0  0
  179.6167   35.6883  -42.8036 C   0  0  0  0  0  0  0  0  0  0  0  0
  178.4343   36.1138  -40.7567 C   0  0  0  0  0  0  0  0  0  0  0  0
  177.7476   37.2260  -42.9081 C   0  0  1  0  0  0  0  0  0  0  0  0
  180.3432   34.5940  -40.7633 C   0  0  0  0  0  0  0  0  0  0  0  0
  178.5969   36.3172  -42.1211 C   0  0  0  0  0  0  0  0  0  0  0  0
  175.3651   38.0941  -43.9388 H   0  0  0  0  0  0  0  0  0  0  0  0
  176.8310   37.6304  -40.0631 H   0  0  0  0  0  0  0  0  0  0  0  0
  179.3939   38.2534  -43.4540 H   0  0  0  0  0  0  0  0  0  0  0  0
  178.0094   39.1111  -43.5729 H   0  0  0  0  0  0  0  0  0  0  0  0
  182.4941   32.1315  -37.8675 H   0  0  0  0  0  0  0  0  0  0  0  0
  182.3593   33.2602  -41.8744 H   0  0  0  0  0  0  0  0  0  0  0  0
  183.6215   31.8418  -40.1318 H   0  0  0  0  0  0  0  0  0  0  0  0
  181.1883   34.3829  -42.6334 H   0  0  0  0  0  0  0  0  0  0  0  0
  179.1904   35.1020  -39.1084 H   0  0  0  0  0  0  0  0  0  0  0  0
  179.7417   35.8470  -43.7830 H   0  0  0  0  0  0  0  0  0  0  0  0
  177.7017   36.5779  -40.2588 H   0  0  0  0  0  0  0  0  0  0  0  0
  177.5906   36.8407  -43.8175 H   0  0  0  0  0  0  0  0  0  0  0  0
  1  2  1  0  0  0  0
  1  3  1  0  0  0  0
  1  4  2  0  0  0  0
  1 15  1  0  0  0  0
  5 15  1  0  0  0  0
  6  7  1  0  0  0  0
  6  8  2  0  0  0  0
  7  9  1  0  0  0  0
  7 16  1  0  0  0  0
  8 10  1  0  0  0  0
  9 10  2  0  0  0  0
 11 13  1  0  0  0  0
 11 16  2  0  0  0  0
 12 14  2  0  0  0  0
 12 16  1  0  0  0  0
 13 17  2  0  0  0  0
 14 17  1  0  0  0  0
 15 17  1  0  0  0  0
  2 18  1  0  0  0  0
  3 19  1  0  0  0  0
  5 20  1  0  0  0  0
  5 21  1  0  0  0  0
  8 22  1  0  0  0  0
  9 23  1  0  0  0  0
 10 24  1  0  0  0  0
 11 25  1  0  0  0  0
 12 26  1  0  0  0  0
 13 27  1  0  0  0  0
 14 28  1  0  0  0  0
 15 29  1  0  0  0  0
M  END
> <pdb_id>
4K3N

> <uniprot_id>
Q8IL11

> <usmiles>
P(=O)(O)(O)[C@@H](N)c1ccc(N2N=CC=C2)cc1

$$$$
1OU_A_1106
          07212402543D 1   1.00000     0.00000     0
            
 29 29  0  0  0  0            999 V2000
  164.5527  228.8792   11.5118 P   0  0  0  0  0  0  0  0  0  0  0  0
  165.1418  229.5634   10.3444 O   0  0  0  0  0  0  0  0  0  0  0  0
  163.6056  227.7371   10.8255 O   0  0  0  0  0  0  0  0  0  0  0  0
  165.7025  228.3001   12.5213 O   0  0  0  0  0  0  0  0  0  0  0  0
  162.2943  230.0388   11.7930 N   0  0  0  0  0  0  0  0  0  0  0  0
  164.3837  226.6381   17.7255 N   0  0  0  0  0  0  0  0  0  0  0  0
  163.4910  227.2141   19.7737 N   0  0  0  0  0  0  0  0  0  0  0  0
  163.6434  228.7827   18.0155 N   0  0  0  0  0  0  0  0  0  0  0  0
  162.7131  228.6127   15.7817 C   0  0  0  0  0  0  0  0  0  0  0  0
  164.5893  230.0378   16.1247 C   0  0  0  0  0  0  0  0  0  0  0  0
  162.7586  228.9258   14.4138 C   0  0  0  0  0  0  0  0  0  0  0  0
  164.6319  230.3639   14.7578 C   0  0  0  0  0  0  0  0  0  0  0  0
  163.6234  230.1247   12.4181 C   0  0  1  0  0  0  0  0  0  0  0  0
  163.8570  227.5346   18.4892 C   0  0  0  0  0  0  0  0  0  0  0  0
  163.6678  229.1319   16.6603 C   0  0  0  0  0  0  0  0  0  0  0  0
  163.6889  229.8027   13.8822 C   0  0  0  0  0  0  0  0  0  0  0  0
  163.1514  227.2066   11.5412 H   0  0  0  0  0  0  0  0  0  0  0  0
  165.2660  227.8449   13.2974 H   0  0  0  0  0  0  0  0  0  0  0  0
  161.6797  230.6993   12.2244 H   0  0  0  0  0  0  0  0  0  0  0  0
  162.3710  230.2430   10.8171 H   0  0  0  0  0  0  0  0  0  0  0  0
  164.6501  226.8717   16.7904 H   0  0  0  0  0  0  0  0  0  0  0  0
  164.5256  225.7096   18.0687 H   0  0  0  0  0  0  0  0  0  0  0  0
  163.0827  227.9092   20.3655 H   0  0  0  0  0  0  0  0  0  0  0  0
  163.4549  229.5065   18.6793 H   0  0  0  0  0  0  0  0  0  0  0  0
  161.9920  228.0136   16.1299 H   0  0  0  0  0  0  0  0  0  0  0  0
  165.2463  230.4722   16.7408 H   0  0  0  0  0  0  0  0  0  0  0  0
  162.0940  228.4994   13.8002 H   0  0  0  0  0  0  0  0  0  0  0  0
  165.3292  230.9915   14.4115 H   0  0  0  0  0  0  0  0  0  0  0  0
  164.0177  231.0286   12.2523 H   0  0  0  0  0  0  0  0  0  0  0  0
  1  2  2  0  0  0  0
  1  3  1  0  0  0  0
  1  4  1  0  0  0  0
  1 13  1  0  0  0  0
  5 13  1  0  0  0  0
  6 14  1  0  0  0  0
  7 14  2  0  0  0  0
  8 14  1  0  0  0  0
  8 15  1  0  0  0  0
  9 11  2  0  0  0  0
  9 15  1  0  0  0  0
 10 12  1  0  0  0  0
 10 15  2  0  0  0  0
 11 16  1  0  0  0  0
 12 16  2  0  0  0  0
 13 16  1  0  0  0  0
  3 17  1  0  0  0  0
  4 18  1  0  0  0  0
  5 19  1  0  0  0  0
  5 20  1  0  0  0  0
  6 21  1  0  0  0  0
  6 22  1  0  0  0  0
  7 23  1  0  0  0  0
  8 24  1  0  0  0  0
  9 25  1  0  0  0  0
 10 26  1  0  0  0  0
 11 27  1  0  0  0  0
 12 28  1  0  0  0  0
 13 29  1  0  0  0  0
M  END
> <pdb_id>
4K5N

> <uniprot_id>
O96935

> <usmiles>
P(=O)(O)(O)[C@@H](N)c1ccc(NC(=N)N)cc1

$$$$
1P8_A_703
          07202404073D 1   1.00000     0.00000     0
            
 17 18  0  0  0  0            999 V2000
  -16.5042  -48.4834  -57.5340 Br  0  0  0  0  0  0  0  0  0  0  0  0
  -16.9029  -46.8361  -50.1138 O   0  0  0  0  0  0  0  0  0  0  0  0
  -17.0071  -47.8029  -52.2009 N   0  0  0  0  0  0  0  0  0  0  0  0
  -15.8784  -46.2640  -55.9069 C   0  0  0  0  0  0  0  0  0  0  0  0
  -15.7667  -45.5633  -54.7187 C   0  0  0  0  0  0  0  0  0  0  0  0
  -16.7823  -48.1551  -54.7140 C   0  0  0  0  0  0  0  0  0  0  0  0
  -16.1658  -45.6654  -52.1130 C   0  0  0  0  0  0  0  0  0  0  0  0
  -16.3760  -47.5504  -55.8912 C   0  0  0  0  0  0  0  0  0  0  0  0
  -16.7274  -46.8168  -51.3196 C   0  0  0  0  0  0  0  0  0  0  0  0
  -16.6761  -47.4465  -53.5119 C   0  0  0  0  0  0  0  0  0  0  0  0
  -16.1588  -46.1560  -53.5407 C   0  0  0  0  0  0  0  0  0  0  0  0
  -17.4042  -48.6843  -51.9452 H   0  0  0  0  0  0  0  0  0  0  0  0
  -15.6008  -45.8413  -56.7695 H   0  0  0  0  0  0  0  0  0  0  0  0
  -15.4032  -44.6317  -54.7165 H   0  0  0  0  0  0  0  0  0  0  0  0
  -17.1470  -49.0862  -54.7225 H   0  0  0  0  0  0  0  0  0  0  0  0
  -15.2382  -45.4468  -51.8100 H   0  0  0  0  0  0  0  0  0  0  0  0
  -16.7461  -44.8562  -52.0203 H   0  0  0  0  0  0  0  0  0  0  0  0
  1  8  1  0  0  0  0
  2  9  2  0  0  0  0
  3  9  1  0  0  0  0
  3 10  1  0  0  0  0
  4  5  1  0  0  0  0
  4  8  2  0  0  0  0
  5 11  2  0  0  0  0
  6  8  1  0  0  0  0
  6 10  2  0  0  0  0
  7  9  1  0  0  0  0
  7 11  1  0  0  0  0
 10 11  1  0  0  0  0
  3 12  1  0  0  0  0
  4 13  1  0  0  0  0
  5 14  1  0  0  0  0
  6 15  1  0  0  0  0
  7 16  1  0  0  0  0
  7 17  1  0  0  0  0
M  END
> <pdb_id>
4K60

> <uniprot_id>
P23946

> <usmiles>
Brc1cc2NC(=O)Cc2cc1

$$$$
1PP_A_401
          07202400263D 1   1.00000     0.00000     0
            
 47 49  0  0  0  0            999 V2000
   -6.2366   -0.1135   17.8707 Cl  0  0  0  0  0  0  0  0  0  0  0  0
   -5.1143    1.5363   15.4249 Cl  0  0  0  0  0  0  0  0  0  0  0  0
   -0.2946    1.7919   15.7022 O   0  0  0  0  0  0  0  0  0  0  0  0
    1.8416    4.2596   12.2158 N   0  0  0  0  0  0  0  0  0  0  0  0
   -0.9560    3.2226   14.1151 N   0  0  0  0  0  0  0  0  0  0  0  0
   -2.4046    2.5197   15.7224 N   0  0  0  0  0  0  0  0  0  0  0  0
    0.6148    4.4302   12.8844 N   0  0  0  0  0  0  0  0  0  0  0  0
    2.8784    1.5305   10.6169 C   0  0  0  0  0  0  0  0  0  0  0  0
    4.0245    1.4561   12.8910 C   0  0  0  0  0  0  0  0  0  0  0  0
    4.3109    3.4309   11.3985 C   0  0  0  0  0  0  0  0  0  0  0  0
   -1.0621    8.4264   13.0538 C   0  0  0  0  0  0  0  0  0  0  0  0
   -0.5509    7.8922   11.8563 C   0  0  0  0  0  0  0  0  0  0  0  0
   -0.9909    7.5925   14.1912 C   0  0  0  0  0  0  0  0  0  0  0  0
   -2.4276    0.8410   19.0233 C   0  0  0  0  0  0  0  0  0  0  0  0
   -3.7223    0.2854   19.0609 C   0  0  0  0  0  0  0  0  0  0  0  0
   -1.9608    1.5779   17.9243 C   0  0  0  0  0  0  0  0  0  0  0  0
   -0.0069    6.5649   11.8346 C   0  0  0  0  0  0  0  0  0  0  0  0
   -0.4930    6.2574   14.0928 C   0  0  0  0  0  0  0  0  0  0  0  0
    1.1393    2.2604   13.1674 C   0  0  0  0  0  0  0  0  0  0  0  0
   -1.1754    2.4777   15.2014 C   0  0  0  0  0  0  0  0  0  0  0  0
   -4.5541    0.4925   17.9593 C   0  0  0  0  0  0  0  0  0  0  0  0
    0.2201    3.2739   13.4656 C   0  0  0  0  0  0  0  0  0  0  0  0
   -4.0494    1.2944   16.8167 C   0  0  0  0  0  0  0  0  0  0  0  0
   -2.7845    1.8136   16.8168 C   0  0  0  0  0  0  0  0  0  0  0  0
    0.0540    5.6923   12.9399 C   0  0  0  0  0  0  0  0  0  0  0  0
    2.1032    2.9608   12.4266 C   0  0  0  0  0  0  0  0  0  0  0  0
    3.3466    2.3280   11.8344 C   0  0  0  0  0  0  0  0  0  0  0  0
   -1.7116    3.7753   13.7636 H   0  0  0  0  0  0  0  0  0  0  0  0
   -3.0840    3.1053   15.2803 H   0  0  0  0  0  0  0  0  0  0  0  0
    2.4443    2.1479    9.9609 H   0  0  0  0  0  0  0  0  0  0  0  0
    3.6645    1.0864   10.1870 H   0  0  0  0  0  0  0  0  0  0  0  0
    2.2202    0.8356   10.9066 H   0  0  0  0  0  0  0  0  0  0  0  0
    4.3092    2.0266   13.6613 H   0  0  0  0  0  0  0  0  0  0  0  0
    3.3817    0.7602   13.2113 H   0  0  0  0  0  0  0  0  0  0  0  0
    4.8260    1.0110   12.4917 H   0  0  0  0  0  0  0  0  0  0  0  0
    4.6117    3.9469   12.2005 H   0  0  0  0  0  0  0  0  0  0  0  0
    5.1046    3.0211   10.9488 H   0  0  0  0  0  0  0  0  0  0  0  0
    3.8474    4.0462   10.7608 H   0  0  0  0  0  0  0  0  0  0  0  0
   -1.4540    9.3454   13.0969 H   0  0  0  0  0  0  0  0  0  0  0  0
   -0.5670    8.4388   11.0191 H   0  0  0  0  0  0  0  0  0  0  0  0
   -1.2934    7.9416   15.0782 H   0  0  0  0  0  0  0  0  0  0  0  0
   -1.8209    0.7053   19.8066 H   0  0  0  0  0  0  0  0  0  0  0  0
   -4.0352   -0.2404   19.8519 H   0  0  0  0  0  0  0  0  0  0  0  0
   -1.0284    1.9392   17.9321 H   0  0  0  0  0  0  0  0  0  0  0  0
    0.3586    6.2320   10.9653 H   0  0  0  0  0  0  0  0  0  0  0  0
   -0.5398    5.6847   14.9112 H   0  0  0  0  0  0  0  0  0  0  0  0
    1.1151    1.2924   13.4169 H   0  0  0  0  0  0  0  0  0  0  0  0
  1 21  1  0  0  0  0
  2 23  1  0  0  0  0
  3 20  2  0  0  0  0
  4  7  1  0  0  0  0
  4 26  2  0  0  0  0
  5 20  1  0  0  0  0
  5 22  1  0  0  0  0
  6 20  1  0  0  0  0
  6 24  1  0  0  0  0
  7 22  1  0  0  0  0
  7 25  1  0  0  0  0
  8 27  1  0  0  0  0
  9 27  1  0  0  0  0
 10 27  1  0  0  0  0
 11 12  2  0  0  0  0
 11 13  1  0  0  0  0
 12 17  1  0  0  0  0
 13 18  2  0  0  0  0
 14 15  2  0  0  0  0
 14 16  1  0  0  0  0
 15 21  1  0  0  0  0
 16 24  2  0  0  0  0
 17 25  2  0  0  0  0
 18 25  1  0  0  0  0
 19 22  2  0  0  0  0
 19 26  1  0  0  0  0
 21 23  2  0  0  0  0
 23 24  1  0  0  0  0
 26 27  1  0  0  0  0
  5 28  1  0  0  0  0
  6 29  1  0  0  0  0
  8 30  1  0  0  0  0
  8 31  1  0  0  0  0
  8 32  1  0  0  0  0
  9 33  1  0  0  0  0
  9 34  1  0  0  0  0
  9 35  1  0  0  0  0
 10 36  1  0  0  0  0
 10 37  1  0  0  0  0
 10 38  1  0  0  0  0
 11 39  1  0  0  0  0
 12 40  1  0  0  0  0
 13 41  1  0  0  0  0
 14 42  1  0  0  0  0
 15 43  1  0  0  0  0
 16 44  1  0  0  0  0
 17 45  1  0  0  0  0
 18 46  1  0  0  0  0
 19 47  1  0  0  0  0
M  END
> <pdb_id>
2BAJ

> <uniprot_id>
Q16539

> <usmiles>
Clc1c(Cl)cccc1NC(=O)NC=2N(N=C(C2)C(C)(C)C)c3ccccc3

$$$$
1Q4_B_1201
          07212403553D 1   1.00000     0.00000     0
            
 34 36  0  0  0  0            999 V2000
   40.0750   22.9039  248.9429 O   0  0  0  0  0  0  0  0  0  0  0  0
   41.2642   22.3794  244.1793 N   0  0  0  0  0  0  0  0  0  0  0  0
   38.3345   21.7292  248.1265 N   0  0  0  0  0  0  0  0  0  0  0  0
   41.3281   22.9456  246.4165 N   0  0  0  0  0  0  0  0  0  0  0  0
   39.5057   21.1607  243.2065 N   0  0  0  0  0  0  0  0  0  0  0  0
   41.8551   22.9448  245.2211 C   0  0  0  0  0  0  0  0  0  0  0  0
   37.6961   21.1245  247.0758 C   0  0  0  0  0  0  0  0  0  0  0  0
   40.2221   20.0117  239.2219 C   0  0  0  0  0  0  0  0  0  0  0  0
   41.4266   19.9658  240.1742 C   0  0  0  0  0  0  0  0  0  0  0  0
   39.5713   21.3825  239.4109 C   0  0  0  0  0  0  0  0  0  0  0  0
   40.9545   20.0213  241.6350 C   0  0  0  0  0  0  0  0  0  0  0  0
   39.0110   21.4338  240.8415 C   0  0  0  0  0  0  0  0  0  0  0  0
   38.1929   21.0979  245.8299 C   0  0  0  0  0  0  0  0  0  0  0  0
   39.5288   22.3553  247.9853 C   0  0  0  0  0  0  0  0  0  0  0  0
   40.0967   21.7603  244.3015 C   0  0  0  0  0  0  0  0  0  0  0  0
   40.1248   21.2805  241.8862 C   0  0  0  0  0  0  0  0  0  0  0  0
   40.1573   22.3626  246.6520 C   0  0  0  0  0  0  0  0  0  0  0  0
   39.4840   21.7300  245.5817 C   0  0  0  0  0  0  0  0  0  0  0  0
   37.9047   21.7079  249.0291 H   0  0  0  0  0  0  0  0  0  0  0  0
   38.6557   20.6454  243.3159 H   0  0  0  0  0  0  0  0  0  0  0  0
   42.7409   23.3891  245.0872 H   0  0  0  0  0  0  0  0  0  0  0  0
   36.8162   20.6809  247.2461 H   0  0  0  0  0  0  0  0  0  0  0  0
   39.5729   19.2864  239.4509 H   0  0  0  0  0  0  0  0  0  0  0  0
   40.5256   19.9009  238.2755 H   0  0  0  0  0  0  0  0  0  0  0  0
   42.0224   20.7476  239.9903 H   0  0  0  0  0  0  0  0  0  0  0  0
   41.9340   19.1174  240.0236 H   0  0  0  0  0  0  0  0  0  0  0  0
   38.8309   21.5031  238.7496 H   0  0  0  0  0  0  0  0  0  0  0  0
   40.2520   22.1041  239.2846 H   0  0  0  0  0  0  0  0  0  0  0  0
   41.7523   20.0280  242.2380 H   0  0  0  0  0  0  0  0  0  0  0  0
   40.3957   19.2154  241.8305 H   0  0  0  0  0  0  0  0  0  0  0  0
   38.3507   20.6920  240.9590 H   0  0  0  0  0  0  0  0  0  0  0  0
   38.5537   22.3122  240.9803 H   0  0  0  0  0  0  0  0  0  0  0  0
   37.6895   20.6549  245.0880 H   0  0  0  0  0  0  0  0  0  0  0  0
   40.7189   22.0846  241.8649 H   0  0  0  0  0  0  0  0  0  0  0  0
  1 14  2  0  0  0  0
  2  6  2  0  0  0  0
  2 15  1  0  0  0  0
  3  7  1  0  0  0  0
  3 14  1  0  0  0  0
  4  6  1  0  0  0  0
  4 17  2  0  0  0  0
  5 15  1  0  0  0  0
  5 16  1  0  0  0  0
  7 13  2  0  0  0  0
  8  9  1  0  0  0  0
  8 10  1  0  0  0  0
  9 11  1  0  0  0  0
 10 12  1  0  0  0  0
 11 16  1  0  0  0  0
 12 16  1  0  0  0  0
 13 18  1  0  0  0  0
 14 17  1  0  0  0  0
 15 18  2  0  0  0  0
 17 18  1  0  0  0  0
  3 19  1  0  0  0  0
  5 20  1  0  0  0  0
  6 21  1  0  0  0  0
  7 22  1  0  0  0  0
  8 23  1  0  0  0  0
  8 24  1  0  0  0  0
  9 25  1  0  0  0  0
  9 26  1  0  0  0  0
 10 27  1  0  0  0  0
 10 28  1  0  0  0  0
 11 29  1  0  0  0  0
 11 30  1  0  0  0  0
 12 31  1  0  0  0  0
 12 32  1  0  0  0  0
 13 33  1  0  0  0  0
 16 34  1  0  0  0  0
M  END
> <pdb_id>
4K77

> <uniprot_id>
P23458

> <usmiles>
O=C1NC=Cc2c(ncnc21)NC3CCCCC3

$$$$
1QG_C_401
          07202405003D 1   1.00000     0.00000     0
            
 44 47  0  0  0  0            999 V2000
  -19.3439    3.2196   42.7274 F   0  0  0  0  0  0  0  0  0  0  0  0
  -27.8920   -4.8772   40.7169 O   0  0  0  0  0  0  0  0  0  0  0  0
  -19.8468   -1.6852   38.8301 N   0  0  0  0  0  0  0  0  0  0  0  0
  -25.7965   -0.7774   41.1537 N   0  0  0  0  0  0  0  0  0  0  0  0
  -25.7521   -4.0654   42.3381 N   0  0  0  0  0  0  0  0  0  0  0  0
  -20.4369   -2.7783   38.2718 N   0  0  0  0  0  0  0  0  0  0  0  0
  -19.6598   -3.6987   37.4327 C   0  0  0  0  0  0  0  0  0  0  0  0
  -24.9161    0.1652   40.7570 C   0  0  0  0  0  0  0  0  0  0  0  0
  -21.7792   -2.8927   38.6161 C   0  0  0  0  0  0  0  0  0  0  0  0
  -23.6736   -0.1300   40.1914 C   0  0  0  0  0  0  0  0  0  0  0  0
  -20.5070    1.1880   42.5208 C   0  0  0  0  0  0  0  0  0  0  0  0
  -19.3692    2.1960   40.6079 C   0  0  0  0  0  0  0  0  0  0  0  0
  -20.8924    0.1250   41.7191 C   0  0  0  0  0  0  0  0  0  0  0  0
  -19.7618    1.1206   39.8245 C   0  0  0  0  0  0  0  0  0  0  0  0
  -24.2230   -2.4661   40.4049 C   0  0  0  0  0  0  0  0  0  0  0  0
  -27.3065   -5.8025   41.5965 C   0  0  0  0  0  0  0  0  0  0  0  0
  -26.9841   -3.9122   40.2501 C   0  0  0  0  0  0  0  0  0  0  0  0
  -26.7142   -5.0825   42.8218 C   0  0  0  0  0  0  0  0  0  0  0  0
  -19.7342    2.2109   41.9588 C   0  0  0  0  0  0  0  0  0  0  0  0
  -25.4382   -2.0753   40.9680 C   0  0  0  0  0  0  0  0  0  0  0  0
  -20.8251   -1.0818   39.5720 C   0  0  0  0  0  0  0  0  0  0  0  0
  -20.5073    0.0824   40.3793 C   0  0  0  0  0  0  0  0  0  0  0  0
  -23.3252   -1.4681   40.0232 C   0  0  0  0  0  0  0  0  0  0  0  0
  -22.0517   -1.8065   39.4518 C   0  0  0  0  0  0  0  0  0  0  0  0
  -26.4400   -3.0989   41.4451 C   0  0  2  0  0  0  0  0  0  0  0  0
  -25.3137   -3.5749   43.1297 H   0  0  0  0  0  0  0  0  0  0  0  0
  -20.2216   -4.6325   37.2617 H   0  0  0  0  0  0  0  0  0  0  0  0
  -18.6970   -3.9568   37.9083 H   0  0  0  0  0  0  0  0  0  0  0  0
  -19.4346   -3.2467   36.4492 H   0  0  0  0  0  0  0  0  0  0  0  0
  -25.2437    1.2005   40.9130 H   0  0  0  0  0  0  0  0  0  0  0  0
  -22.4339   -3.6861   38.2696 H   0  0  0  0  0  0  0  0  0  0  0  0
  -22.9975    0.6688   39.8814 H   0  0  0  0  0  0  0  0  0  0  0  0
  -20.7923    1.2257   43.5746 H   0  0  0  0  0  0  0  0  0  0  0  0
  -18.7856    3.0122   40.1768 H   0  0  0  0  0  0  0  0  0  0  0  0
  -21.4968   -0.6863   42.1385 H   0  0  0  0  0  0  0  0  0  0  0  0
  -19.4801    1.0838   38.7680 H   0  0  0  0  0  0  0  0  0  0  0  0
  -23.9699   -3.5248   40.3018 H   0  0  0  0  0  0  0  0  0  0  0  0
  -28.1420   -6.4762   41.8794 H   0  0  0  0  0  0  0  0  0  0  0  0
  -26.5410   -6.4295   41.0860 H   0  0  0  0  0  0  0  0  0  0  0  0
  -26.1693   -4.3679   39.6451 H   0  0  0  0  0  0  0  0  0  0  0  0
  -27.5764   -3.2744   39.5665 H   0  0  0  0  0  0  0  0  0  0  0  0
  -26.1794   -5.8086   43.4739 H   0  0  0  0  0  0  0  0  0  0  0  0
  -27.5382   -4.6748   43.4581 H   0  0  0  0  0  0  0  0  0  0  0  0
  -27.3131   -2.5839   41.9427 H   0  0  0  0  0  0  0  0  0  0  0  0
  1 19  1  0  0  0  0
  2 16  1  0  0  0  0
  2 17  1  0  0  0  0
  3  6  1  0  0  0  0
  3 21  2  0  0  0  0
  4  8  2  0  0  0  0
  4 20  1  0  0  0  0
  5 18  1  0  0  0  0
  5 25  1  0  0  0  0
  5 26  1  0  0  0  0
  6  7  1  0  0  0  0
  6  9  1  0  0  0  0
  7 27  1  0  0  0  0
  7 28  1  0  0  0  0
  7 29  1  0  0  0  0
  8 10  1  0  0  0  0
  8 30  1  0  0  0  0
  9 24  2  0  0  0  0
  9 31  1  0  0  0  0
 10 23  2  0  0  0  0
 10 32  1  0  0  0  0
 11 13  2  0  0  0  0
 11 19  1  0  0  0  0
 11 33  1  0  0  0  0
 12 14  1  0  0  0  0
 12 19  2  0  0  0  0
 12 34  1  0  0  0  0
 13 22  1  0  0  0  0
 13 35  1  0  0  0  0
 14 22  2  0  0  0  0
 14 36  1  0  0  0  0
 15 20  2  0  0  0  0
 15 23  1  0  0  0  0
 15 37  1  0  0  0  0
 16 18  1  0  0  0  0
 16 38  1  0  0  0  0
 16 39  1  0  0  0  0
 17 25  1  0  0  0  0
 17 40  1  0  0  0  0
 17 41  1  0  0  0  0
 18 42  1  0  0  0  0
 18 43  1  0  0  0  0
 20 25  1  0  0  0  0
 21 22  1  0  0  0  0
 21 24  1  0  0  0  0
 23 24  1  0  0  0  0
 25 44  1  0  0  0  0
M  END
> <pdb_id>
4KBK

> <uniprot_id>
P48730

> <usmiles>
Fc1ccc(cc1)C2=NN(C=C2c3cc(ncc3)[C@@H]4NCCOC4)C

$$$$
1QJ_A_401
          07202405003D 1   1.00000     0.00000     0
            
 32 34  0  0  0  0            999 V2000
  -19.4880    3.3834   42.8856 F   0  0  0  0  0  0  0  0  0  0  0  0
  -26.9166   -3.7154   40.2305 O   0  0  0  0  0  0  0  0  0  0  0  0
  -19.9871   -1.5007   38.9103 N   0  0  0  0  0  0  0  0  0  0  0  0
  -25.9637   -0.6797   41.2714 N   0  0  0  0  0  0  0  0  0  0  0  0
  -20.6166   -2.5614   38.3354 N   0  0  0  0  0  0  0  0  0  0  0  0
  -25.0799    0.2930   40.9527 C   0  0  0  0  0  0  0  0  0  0  0  0
  -21.9432   -2.6700   38.7214 C   0  0  0  0  0  0  0  0  0  0  0  0
  -23.8139    0.0465   40.4159 C   0  0  0  0  0  0  0  0  0  0  0  0
  -20.6437    1.3528   42.6494 C   0  0  0  0  0  0  0  0  0  0  0  0
  -19.4616    2.3626   40.7655 C   0  0  0  0  0  0  0  0  0  0  0  0
  -21.0206    0.2974   41.8329 C   0  0  0  0  0  0  0  0  0  0  0  0
  -19.8357    1.2894   39.9673 C   0  0  0  0  0  0  0  0  0  0  0  0
  -24.3110   -2.3039   40.5495 C   0  0  0  0  0  0  0  0  0  0  0  0
  -26.5406   -3.0589   41.4031 C   0  0  0  0  0  0  0  0  0  0  0  0
  -19.8591    2.3756   42.1058 C   0  0  0  0  0  0  0  0  0  0  0  0
  -25.5577   -1.9571   41.0688 C   0  0  0  0  0  0  0  0  0  0  0  0
  -20.6076    0.2596   40.5025 C   0  0  0  0  0  0  0  0  0  0  0  0
  -23.4363   -1.2768   40.1999 C   0  0  0  0  0  0  0  0  0  0  0  0
  -20.9340   -0.8923   39.6876 C   0  0  0  0  0  0  0  0  0  0  0  0
  -22.1753   -1.5963   39.5863 C   0  0  0  0  0  0  0  0  0  0  0  0
  -27.4368   -3.0992   39.7039 H   0  0  0  0  0  0  0  0  0  0  0  0
  -20.0986   -3.1703   37.7113 H   0  0  0  0  0  0  0  0  0  0  0  0
  -25.4318    1.3166   41.1318 H   0  0  0  0  0  0  0  0  0  0  0  0
  -22.6189   -3.4458   38.3712 H   0  0  0  0  0  0  0  0  0  0  0  0
  -23.1453    0.8685   40.1535 H   0  0  0  0  0  0  0  0  0  0  0  0
  -20.9451    1.3832   43.6987 H   0  0  0  0  0  0  0  0  0  0  0  0
  -18.8636    3.1773   40.3507 H   0  0  0  0  0  0  0  0  0  0  0  0
  -21.6318   -0.5165   42.2369 H   0  0  0  0  0  0  0  0  0  0  0  0
  -19.5255    1.2517   38.9186 H   0  0  0  0  0  0  0  0  0  0  0  0
  -24.0421   -3.3551   40.4165 H   0  0  0  0  0  0  0  0  0  0  0  0
  -27.4104   -2.6867   41.9911 H   0  0  0  0  0  0  0  0  0  0  0  0
  -26.0592   -3.8440   42.0269 H   0  0  0  0  0  0  0  0  0  0  0  0
  1 15  1  0  0  0  0
  2 14  1  0  0  0  0
  2 21  1  0  0  0  0
  3  5  1  0  0  0  0
  3 19  2  0  0  0  0
  4  6  2  0  0  0  0
  4 16  1  0  0  0  0
  5  7  1  0  0  0  0
  5 22  1  0  0  0  0
  6  8  1  0  0  0  0
  6 23  1  0  0  0  0
  7 20  2  0  0  0  0
  7 24  1  0  0  0  0
  8 18  2  0  0  0  0
  8 25  1  0  0  0  0
  9 11  2  0  0  0  0
  9 15  1  0  0  0  0
  9 26  1  0  0  0  0
 10 12  1  0  0  0  0
 10 15  2  0  0  0  0
 10 27  1  0  0  0  0
 11 17  1  0  0  0  0
 11 28  1  0  0  0  0
 12 17  2  0  0  0  0
 12 29  1  0  0  0  0
 13 16  2  0  0  0  0
 13 18  1  0  0  0  0
 13 30  1  0  0  0  0
 14 16  1  0  0  0  0
 14 31  1  0  0  0  0
 14 32  1  0  0  0  0
 17 19  1  0  0  0  0
 18 20  1  0  0  0  0
 19 20  1  0  0  0  0
M  END
> <pdb_id>
4KBC

> <uniprot_id>
P48730

> <usmiles>
Fc1ccc(cc1)C2=NNC=C2c3cc(ncc3)CO

$$$$
1QM_A_401
          07202405003D 1   1.00000     0.00000     0
            
 41 44  0  0  0  0            999 V2000
  -19.5666    3.1444   42.7877 F   0  0  0  0  0  0  0  0  0  0  0  0
  -24.0066   -3.8574   39.9928 O   0  0  0  0  0  0  0  0  0  0  0  0
  -19.9331   -1.5465   38.6304 N   0  0  0  0  0  0  0  0  0  0  0  0
  -25.8297   -0.9342   41.2081 N   0  0  0  0  0  0  0  0  0  0  0  0
  -27.0237   -4.0944   40.4173 N   0  0  0  0  0  0  0  0  0  0  0  0
  -20.4875   -2.6261   38.0108 N   0  0  0  0  0  0  0  0  0  0  0  0
  -19.7111   -3.4551   37.0831 C   0  0  0  0  0  0  0  0  0  0  0  0
  -24.9760    0.0306   40.8030 C   0  0  0  0  0  0  0  0  0  0  0  0
  -21.8118   -2.8298   38.3822 C   0  0  0  0  0  0  0  0  0  0  0  0
  -19.5352    2.2118   40.6256 C   0  0  0  0  0  0  0  0  0  0  0  0
  -20.6816    1.1027   42.4739 C   0  0  0  0  0  0  0  0  0  0  0  0
  -23.7566   -0.2242   40.1737 C   0  0  0  0  0  0  0  0  0  0  0  0
  -19.8886    1.1605   39.7905 C   0  0  0  0  0  0  0  0  0  0  0  0
  -21.0452    0.0743   41.6188 C   0  0  0  0  0  0  0  0  0  0  0  0
  -24.9035   -4.4377   39.0665 C   0  0  0  0  0  0  0  0  0  0  0  0
  -26.1133   -5.0567   39.7912 C   0  0  0  0  0  0  0  0  0  0  0  0
  -26.4120   -3.2864   41.4766 C   0  0  0  0  0  0  0  0  0  0  0  0
  -19.9225    2.1627   41.9676 C   0  0  0  0  0  0  0  0  0  0  0  0
  -24.3067   -2.5490   40.2585 C   0  0  0  0  0  0  0  0  0  0  0  0
  -25.4795   -2.2153   40.9516 C   0  0  0  0  0  0  0  0  0  0  0  0
  -20.9241   -1.0384   39.4242 C   0  0  0  0  0  0  0  0  0  0  0  0
  -20.6354    0.0926   40.2861 C   0  0  0  0  0  0  0  0  0  0  0  0
  -22.1240   -1.8095   39.2824 C   0  0  0  0  0  0  0  0  0  0  0  0
  -23.3960   -1.5451   39.9017 C   0  0  0  0  0  0  0  0  0  0  0  0
  -27.4824   -3.4969   39.7184 H   0  0  0  0  0  0  0  0  0  0  0  0
  -18.7746   -2.9562   36.7766 H   0  0  0  0  0  0  0  0  0  0  0  0
  -20.2970   -3.6723   36.1728 H   0  0  0  0  0  0  0  0  0  0  0  0
  -19.4434   -4.4185   37.5536 H   0  0  0  0  0  0  0  0  0  0  0  0
  -25.3107    1.0521   41.0262 H   0  0  0  0  0  0  0  0  0  0  0  0
  -22.4242   -3.6411   38.0007 H   0  0  0  0  0  0  0  0  0  0  0  0
  -18.9601    3.0558   40.2387 H   0  0  0  0  0  0  0  0  0  0  0  0
  -20.9729    1.0853   43.5264 H   0  0  0  0  0  0  0  0  0  0  0  0
  -23.0989    0.6006   39.8892 H   0  0  0  0  0  0  0  0  0  0  0  0
  -19.5752    1.1723   38.7410 H   0  0  0  0  0  0  0  0  0  0  0  0
  -21.6514   -0.7567   41.9948 H   0  0  0  0  0  0  0  0  0  0  0  0
  -25.2201   -3.7387   38.2633 H   0  0  0  0  0  0  0  0  0  0  0  0
  -24.2928   -5.2288   38.5795 H   0  0  0  0  0  0  0  0  0  0  0  0
  -26.6975   -5.6723   39.0675 H   0  0  0  0  0  0  0  0  0  0  0  0
  -25.7626   -5.7780   40.5654 H   0  0  0  0  0  0  0  0  0  0  0  0
  -27.2410   -2.8460   42.0792 H   0  0  0  0  0  0  0  0  0  0  0  0
  -25.8475   -3.9303   42.1920 H   0  0  0  0  0  0  0  0  0  0  0  0
  1 18  1  0  0  0  0
  2 15  1  0  0  0  0
  2 19  1  0  0  0  0
  3  6  1  0  0  0  0
  3 21  2  0  0  0  0
  4  8  2  0  0  0  0
  4 20  1  0  0  0  0
  5 16  1  0  0  0  0
  5 17  1  0  0  0  0
  5 25  1  0  0  0  0
  6  7  1  0  0  0  0
  6  9  1  0  0  0  0
  7 26  1  0  0  0  0
  7 27  1  0  0  0  0
  7 28  1  0  0  0  0
  8 12  1  0  0  0  0
  8 29  1  0  0  0  0
  9 23  2  0  0  0  0
  9 30  1  0  0  0  0
 10 13  2  0  0  0  0
 10 18  1  0  0  0  0
 10 31  1  0  0  0  0
 11 14  1  0  0  0  0
 11 18  2  0  0  0  0
 11 32  1  0  0  0  0
 12 24  2  0  0  0  0
 12 33  1  0  0  0  0
 13 22  1  0  0  0  0
 13 34  1  0  0  0  0
 14 22  2  0  0  0  0
 14 35  1  0  0  0  0
 15 16  1  0  0  0  0
 15 36  1  0  0  0  0
 15 37  1  0  0  0  0
 16 38  1  0  0  0  0
 16 39  1  0  0  0  0
 17 20  1  0  0  0  0
 17 40  1  0  0  0  0
 17 41  1  0  0  0  0
 19 20  2  0  0  0  0
 19 24  1  0  0  0  0
 21 22  1  0  0  0  0
 21 23  1  0  0  0  0
 23 24  1  0  0  0  0
M  END
> <pdb_id>
4KBA

> <uniprot_id>
P48730

> <usmiles>
Fc1ccc(cc1)C2=NN(C=C2c3c4OCCNCc4ncc3)C

$$$$
1QN_A_401
          07202405003D 1   1.00000     0.00000     0
            
 39 41  0  0  0  0            999 V2000
  -19.4282    3.3872   42.7208 F   0  0  0  0  0  0  0  0  0  0  0  0
  -19.8911   -1.4827   38.7581 N   0  0  0  0  0  0  0  0  0  0  0  0
  -25.8700   -1.0602   41.2432 N   0  0  0  0  0  0  0  0  0  0  0  0
  -27.0436   -3.9213   40.4033 N   0  0  0  0  0  0  0  0  0  0  0  0
  -20.4470   -2.6134   38.2433 N   0  0  0  0  0  0  0  0  0  0  0  0
  -26.2860   -4.7491   39.4559 C   0  0  0  0  0  0  0  0  0  0  0  0
  -19.6781   -3.4924   37.3546 C   0  0  0  0  0  0  0  0  0  0  0  0
  -25.0970   -0.0374   40.8125 C   0  0  0  0  0  0  0  0  0  0  0  0
  -21.7551   -2.8031   38.6727 C   0  0  0  0  0  0  0  0  0  0  0  0
  -23.8352   -0.2006   40.2394 C   0  0  0  0  0  0  0  0  0  0  0  0
  -19.2673    2.2721   40.6544 C   0  0  0  0  0  0  0  0  0  0  0  0
  -20.7160    1.4434   42.4360 C   0  0  0  0  0  0  0  0  0  0  0  0
  -19.6572    1.2028   39.8587 C   0  0  0  0  0  0  0  0  0  0  0  0
  -21.0776    0.3738   41.6320 C   0  0  0  0  0  0  0  0  0  0  0  0
  -24.0896   -2.5685   40.5811 C   0  0  0  0  0  0  0  0  0  0  0  0
  -26.2518   -3.4469   41.5556 C   0  0  0  0  0  0  0  0  0  0  0  0
  -19.7994    2.3791   41.9424 C   0  0  0  0  0  0  0  0  0  0  0  0
  -25.3623   -2.3102   41.1012 C   0  0  0  0  0  0  0  0  0  0  0  0
  -20.8598   -0.9264   39.5519 C   0  0  0  0  0  0  0  0  0  0  0  0
  -20.5465    0.2472   40.3489 C   0  0  0  0  0  0  0  0  0  0  0  0
  -23.3265   -1.4922   40.1275 C   0  0  0  0  0  0  0  0  0  0  0  0
  -22.0467   -1.7226   39.5099 C   0  0  0  0  0  0  0  0  0  0  0  0
  -27.8823   -4.4152   40.7289 H   0  0  0  0  0  0  0  0  0  0  0  0
  -25.5224   -4.1426   38.9403 H   0  0  0  0  0  0  0  0  0  0  0  0
  -26.9581   -5.1431   38.6739 H   0  0  0  0  0  0  0  0  0  0  0  0
  -25.7572   -5.6233   39.8861 H   0  0  0  0  0  0  0  0  0  0  0  0
  -19.3747   -2.9703   36.4304 H   0  0  0  0  0  0  0  0  0  0  0  0
  -18.7574   -3.8462   37.8511 H   0  0  0  0  0  0  0  0  0  0  0  0
  -20.2817   -4.3715   37.0745 H   0  0  0  0  0  0  0  0  0  0  0  0
  -25.5426    0.9588   40.9376 H   0  0  0  0  0  0  0  0  0  0  0  0
  -22.3830   -3.6375   38.3712 H   0  0  0  0  0  0  0  0  0  0  0  0
  -23.2623    0.6554   39.8794 H   0  0  0  0  0  0  0  0  0  0  0  0
  -18.5627    3.0147   40.2747 H   0  0  0  0  0  0  0  0  0  0  0  0
  -21.1283    1.5505   43.4418 H   0  0  0  0  0  0  0  0  0  0  0  0
  -19.2489    1.1118   38.8460 H   0  0  0  0  0  0  0  0  0  0  0  0
  -21.7762   -0.3776   42.0137 H   0  0  0  0  0  0  0  0  0  0  0  0
  -23.7006   -3.5879   40.5369 H   0  0  0  0  0  0  0  0  0  0  0  0
  -25.6235   -4.2322   42.0486 H   0  0  0  0  0  0  0  0  0  0  0  0
  -26.9520   -3.1042   42.3525 H   0  0  0  0  0  0  0  0  0  0  0  0
  1 17  1  0  0  0  0
  2  5  1  0  0  0  0
  2 19  2  0  0  0  0
  3  8  2  0  0  0  0
  3 18  1  0  0  0  0
  4  6  1  0  0  0  0
  4 16  1  0  0  0  0
  4 23  1  0  0  0  0
  5  7  1  0  0  0  0
  5  9  1  0  0  0  0
  6 24  1  0  0  0  0
  6 25  1  0  0  0  0
  6 26  1  0  0  0  0
  7 27  1  0  0  0  0
  7 28  1  0  0  0  0
  7 29  1  0  0  0  0
  8 10  1  0  0  0  0
  8 30  1  0  0  0  0
  9 22  2  0  0  0  0
  9 31  1  0  0  0  0
 10 21  2  0  0  0  0
 10 32  1  0  0  0  0
 11 13  1  0  0  0  0
 11 17  2  0  0  0  0
 11 33  1  0  0  0  0
 12 14  2  0  0  0  0
 12 17  1  0  0  0  0
 12 34  1  0  0  0  0
 13 20  2  0  0  0  0
 13 35  1  0  0  0  0
 14 20  1  0  0  0  0
 14 36  1  0  0  0  0
 15 18  2  0  0  0  0
 15 21  1  0  0  0  0
 15 37  1  0  0  0  0
 16 18  1  0  0  0  0
 16 38  1  0  0  0  0
 16 39  1  0  0  0  0
 19 20  1  0  0  0  0
 19 22  1  0  0  0  0
 21 22  1  0  0  0  0
M  END
> <pdb_id>
4KB8

> <uniprot_id>
P48730

> <usmiles>
Fc1ccc(cc1)C2=NN(C=C2c3cc(ncc3)CNC)C

$$$$
1QR_A_601
          07202407493D 1   1.00000     0.00000     0
            
 50 53  0  0  0  0            999 V2000
    7.7575   -2.6600   46.4350 S   0  0  0  0  0  0  0  0  0  0  0  0
    6.6591   -3.4056   46.9208 O   0  0  0  0  0  0  0  0  0  0  0  0
    7.6345   -1.4781   45.6618 O   0  0  0  0  0  0  0  0  0  0  0  0
    9.9600   -8.0709   42.9594 O   0  0  0  0  0  0  0  0  0  0  0  0
    9.9481   -8.4342   36.3256 N   0  0  0  0  0  0  0  0  0  0  0  0
   11.7446   -6.7451   42.6500 N   0  0  0  0  0  0  0  0  0  0  0  0
   11.7076   -7.3522   39.8754 N   0  0  0  0  0  0  0  0  0  0  0  0
    8.6414   -2.2264   47.7832 N   0  0  0  0  0  0  0  0  0  0  0  0
   11.1475   -7.8607   36.2450 C   0  0  0  0  0  0  0  0  0  0  0  0
    9.3699   -8.6467   37.5043 C   0  0  0  0  0  0  0  0  0  0  0  0
   11.8739   -6.4626   44.0762 C   0  0  0  0  0  0  0  0  0  0  0  0
    9.5321   -1.0517   47.6887 C   0  0  0  0  0  0  0  0  0  0  0  0
    8.5907   -3.0805   48.9899 C   0  0  0  0  0  0  0  0  0  0  0  0
    9.9475   -0.4466   49.0333 C   0  0  0  0  0  0  0  0  0  0  0  0
    8.9354   -2.3169   50.2813 C   0  0  0  0  0  0  0  0  0  0  0  0
   10.2313   -1.5429   50.0535 C   0  0  0  0  0  0  0  0  0  0  0  0
   11.8580   -7.4622   37.3411 C   0  0  0  0  0  0  0  0  0  0  0  0
    8.9308   -5.1087   46.0445 C   0  0  0  0  0  0  0  0  0  0  0  0
    9.9065   -3.3087   44.8401 C   0  0  0  0  0  0  0  0  0  0  0  0
    9.8697   -5.9809   45.5117 C   0  0  0  0  0  0  0  0  0  0  0  0
   10.8495   -4.1760   44.3082 C   0  0  0  0  0  0  0  0  0  0  0  0
    9.6819   -8.3070   40.0626 C   0  0  0  0  0  0  0  0  0  0  0  0
   10.7846   -7.5676   42.2011 C   0  0  0  0  0  0  0  0  0  0  0  0
    8.9315   -3.7676   45.7101 C   0  0  0  0  0  0  0  0  0  0  0  0
   10.7164   -7.7607   40.7549 C   0  0  0  0  0  0  0  0  0  0  0  0
   11.2905   -7.6427   38.6109 C   0  0  0  0  0  0  0  0  0  0  0  0
   10.8316   -5.5265   44.6230 C   0  0  0  0  0  0  0  0  0  0  0  0
   10.0182   -8.2531   38.6861 C   0  0  0  0  0  0  0  0  0  0  0  0
   12.3773   -6.3217   42.0017 H   0  0  0  0  0  0  0  0  0  0  0  0
   12.5746   -6.9209   40.1248 H   0  0  0  0  0  0  0  0  0  0  0  0
   11.5464   -7.7151   35.3397 H   0  0  0  0  0  0  0  0  0  0  0  0
    8.4731   -9.0870   37.5489 H   0  0  0  0  0  0  0  0  0  0  0  0
   12.7734   -6.0549   44.2335 H   0  0  0  0  0  0  0  0  0  0  0  0
   11.8085   -7.3278   44.5733 H   0  0  0  0  0  0  0  0  0  0  0  0
    9.0589   -0.3448   47.1630 H   0  0  0  0  0  0  0  0  0  0  0  0
   10.3613   -1.3290   47.2035 H   0  0  0  0  0  0  0  0  0  0  0  0
    9.2442   -3.8292   48.8781 H   0  0  0  0  0  0  0  0  0  0  0  0
    7.6674   -3.4544   49.0773 H   0  0  0  0  0  0  0  0  0  0  0  0
    9.2087    0.1351   49.3736 H   0  0  0  0  0  0  0  0  0  0  0  0
   10.7726    0.1036   48.9046 H   0  0  0  0  0  0  0  0  0  0  0  0
    9.0566   -2.9641   51.0340 H   0  0  0  0  0  0  0  0  0  0  0  0
    8.1969   -1.6806   50.5044 H   0  0  0  0  0  0  0  0  0  0  0  0
   10.5398   -1.1358   50.9132 H   0  0  0  0  0  0  0  0  0  0  0  0
   10.9377   -2.1582   49.7037 H   0  0  0  0  0  0  0  0  0  0  0  0
   12.7636   -7.0504   37.2405 H   0  0  0  0  0  0  0  0  0  0  0  0
    8.2423   -5.4564   46.6810 H   0  0  0  0  0  0  0  0  0  0  0  0
    9.9310   -2.3402   44.5923 H   0  0  0  0  0  0  0  0  0  0  0  0
    9.8522   -6.9465   45.7713 H   0  0  0  0  0  0  0  0  0  0  0  0
   11.5513   -3.8228   43.6896 H   0  0  0  0  0  0  0  0  0  0  0  0
    8.8392   -8.6785   40.4522 H   0  0  0  0  0  0  0  0  0  0  0  0
  1  2  2  0  0  0  0
  1  3  2  0  0  0  0
  1  8  1  0  0  0  0
  1 24  1  0  0  0  0
  4 23  2  0  0  0  0
  5  9  2  0  0  0  0
  5 10  1  0  0  0  0
  6 11  1  0  0  0  0
  6 23  1  0  0  0  0
  7 25  1  0  0  0  0
  7 26  1  0  0  0  0
  8 12  1  0  0  0  0
  8 13  1  0  0  0  0
  9 17  1  0  0  0  0
 10 28  2  0  0  0  0
 11 27  1  0  0  0  0
 12 14  1  0  0  0  0
 13 15  1  0  0  0  0
 14 16  1  0  0  0  0
 15 16  1  0  0  0  0
 17 26  2  0  0  0  0
 18 20  2  0  0  0  0
 18 24  1  0  0  0  0
 19 21  1  0  0  0  0
 19 24  2  0  0  0  0
 20 27  1  0  0  0  0
 21 27  2  0  0  0  0
 22 25  2  0  0  0  0
 22 28  1  0  0  0  0
 23 25  1  0  0  0  0
 26 28  1  0  0  0  0
  6 29  1  0  0  0  0
  7 30  1  0  0  0  0
  9 31  1  0  0  0  0
 10 32  1  0  0  0  0
 11 33  1  0  0  0  0
 11 34  1  0  0  0  0
 12 35  1  0  0  0  0
 12 36  1  0  0  0  0
 13 37  1  0  0  0  0
 13 38  1  0  0  0  0
 14 39  1  0  0  0  0
 14 40  1  0  0  0  0
 15 41  1  0  0  0  0
 15 42  1  0  0  0  0
 16 43  1  0  0  0  0
 16 44  1  0  0  0  0
 17 45  1  0  0  0  0
 18 46  1  0  0  0  0
 19 47  1  0  0  0  0
 20 48  1  0  0  0  0
 21 49  1  0  0  0  0
 22 50  1  0  0  0  0
M  END
> <pdb_id>
4KFN

> <uniprot_id>
P43490

> <usmiles>
S(=O)(=O)(N1CCCCC1)c2ccc(cc2)CNC(=O)C=3Nc4c(cncc4)C3

$$$$
1QS_B_601
          07202407493D 1   1.00000     0.00000     0
            
 45 48  0  0  0  0            999 V2000
    8.2686   -2.7897   46.1913 S   0  0  0  0  0  0  0  0  0  0  0  0
   12.6511   -0.3640   47.0932 F   0  0  0  0  0  0  0  0  0  0  0  0
   10.3171   -2.1027   50.8225 F   0  0  0  0  0  0  0  0  0  0  0  0
    7.9897   -1.7229   45.2931 O   0  0  0  0  0  0  0  0  0  0  0  0
    7.2675   -3.4641   46.9456 O   0  0  0  0  0  0  0  0  0  0  0  0
   10.0471   -8.1720   42.7571 O   0  0  0  0  0  0  0  0  0  0  0  0
   11.8990   -6.9953   42.3354 N   0  0  0  0  0  0  0  0  0  0  0  0
   10.2558   -8.3027   36.4888 N   0  0  0  0  0  0  0  0  0  0  0  0
   11.2979   -7.5661   38.2684 N   0  0  0  0  0  0  0  0  0  0  0  0
   11.3249   -7.6085   36.0822 C   0  0  0  0  0  0  0  0  0  0  0  0
   12.0521   -6.8030   43.7646 C   0  0  0  0  0  0  0  0  0  0  0  0
   11.9916   -7.1491   37.1567 C   0  0  0  0  0  0  0  0  0  0  0  0
   11.5054   -7.3948   39.5983 C   0  0  0  0  0  0  0  0  0  0  0  0
    9.9735   -3.6753   44.2528 C   0  0  0  0  0  0  0  0  0  0  0  0
    9.5716   -5.1721   46.0756 C   0  0  0  0  0  0  0  0  0  0  0  0
    9.3160   -8.8506   38.7328 C   0  0  0  0  0  0  0  0  0  0  0  0
   10.8448   -4.5887   43.6928 C   0  0  0  0  0  0  0  0  0  0  0  0
   10.4449   -6.0835   45.5136 C   0  0  0  0  0  0  0  0  0  0  0  0
    9.5145   -8.6773   40.0558 C   0  0  0  0  0  0  0  0  0  0  0  0
   10.5882   -1.4991   46.7811 C   0  0  0  0  0  0  0  0  0  0  0  0
    9.4008   -2.3884   48.6633 C   0  0  0  0  0  0  0  0  0  0  0  0
   11.4887   -1.2224   48.9743 C   0  0  0  0  0  0  0  0  0  0  0  0
    9.3224   -3.9684   45.4353 C   0  0  0  0  0  0  0  0  0  0  0  0
    9.4898   -2.1662   47.3049 C   0  0  0  0  0  0  0  0  0  0  0  0
   11.5857   -1.0192   47.6118 C   0  0  0  0  0  0  0  0  0  0  0  0
   10.4022   -1.9045   49.4940 C   0  0  0  0  0  0  0  0  0  0  0  0
   10.8425   -7.7293   41.9389 C   0  0  0  0  0  0  0  0  0  0  0  0
   10.2260   -8.2880   37.8110 C   0  0  0  0  0  0  0  0  0  0  0  0
   11.0921   -5.7914   44.3361 C   0  0  0  0  0  0  0  0  0  0  0  0
   10.6333   -7.9355   40.5019 C   0  0  0  0  0  0  0  0  0  0  0  0
   12.5440   -6.6035   41.6792 H   0  0  0  0  0  0  0  0  0  0  0  0
   11.5872   -7.4553   35.1295 H   0  0  0  0  0  0  0  0  0  0  0  0
   12.9853   -6.4921   43.9449 H   0  0  0  0  0  0  0  0  0  0  0  0
   11.8987   -7.6794   44.2211 H   0  0  0  0  0  0  0  0  0  0  0  0
   12.8320   -6.6072   37.1485 H   0  0  0  0  0  0  0  0  0  0  0  0
   12.2965   -6.8730   39.9177 H   0  0  0  0  0  0  0  0  0  0  0  0
    9.8133   -2.7980   43.8004 H   0  0  0  0  0  0  0  0  0  0  0  0
    9.1201   -5.3806   46.9431 H   0  0  0  0  0  0  0  0  0  0  0  0
    8.5290   -9.3743   38.4067 H   0  0  0  0  0  0  0  0  0  0  0  0
   11.2965   -4.3829   42.8247 H   0  0  0  0  0  0  0  0  0  0  0  0
   10.6072   -6.9606   45.9657 H   0  0  0  0  0  0  0  0  0  0  0  0
    8.8752   -9.0705   40.7166 H   0  0  0  0  0  0  0  0  0  0  0  0
   10.6598   -1.3637   45.7929 H   0  0  0  0  0  0  0  0  0  0  0  0
    8.6252   -2.8915   49.0447 H   0  0  0  0  0  0  0  0  0  0  0  0
   12.2020   -0.8773   49.5843 H   0  0  0  0  0  0  0  0  0  0  0  0
  1  4  2  0  0  0  0
  1  5  2  0  0  0  0
  1 23  1  0  0  0  0
  1 24  1  0  0  0  0
  2 25  1  0  0  0  0
  3 26  1  0  0  0  0
  6 27  2  0  0  0  0
  7 11  1  0  0  0  0
  7 27  1  0  0  0  0
  8 10  1  0  0  0  0
  8 28  2  0  0  0  0
  9 12  1  0  0  0  0
  9 13  1  0  0  0  0
  9 28  1  0  0  0  0
 10 12  2  0  0  0  0
 11 29  1  0  0  0  0
 13 30  2  0  0  0  0
 14 17  2  0  0  0  0
 14 23  1  0  0  0  0
 15 18  1  0  0  0  0
 15 23  2  0  0  0  0
 16 19  2  0  0  0  0
 16 28  1  0  0  0  0
 17 29  1  0  0  0  0
 18 29  2  0  0  0  0
 19 30  1  0  0  0  0
 20 24  2  0  0  0  0
 20 25  1  0  0  0  0
 21 24  1  0  0  0  0
 21 26  2  0  0  0  0
 22 25  2  0  0  0  0
 22 26  1  0  0  0  0
 27 30  1  0  0  0  0
  7 31  1  0  0  0  0
 10 32  1  0  0  0  0
 11 33  1  0  0  0  0
 11 34  1  0  0  0  0
 12 35  1  0  0  0  0
 13 36  1  0  0  0  0
 14 37  1  0  0  0  0
 15 38  1  0  0  0  0
 16 39  1  0  0  0  0
 17 40  1  0  0  0  0
 18 41  1  0  0  0  0
 19 42  1  0  0  0  0
 20 43  1  0  0  0  0
 21 44  1  0  0  0  0
 22 45  1  0  0  0  0
M  END
> <pdb_id>
4KFO

> <uniprot_id>
P43490

> <usmiles>
S(=O)(=O)(c1cc(F)cc(F)c1)c2ccc(cc2)CNC(=O)C3=CN4C(=NC=C4)C=C3

$$$$
1R5_A_305
          07202403273D 1   1.00000     0.00000     0
            
 29 31  0  0  0  0            999 V2000
   10.9929   19.4965  -19.8208 F   0  0  0  0  0  0  0  0  0  0  0  0
    8.8877   19.6283   -8.9514 O   0  0  0  0  0  0  0  0  0  0  0  0
    9.7466   22.1364   -8.2449 O   0  0  0  0  0  0  0  0  0  0  0  0
    9.5103   20.0317  -11.1744 N   0  0  0  0  0  0  0  0  0  0  0  0
   11.0801   18.9359  -17.5205 C   0  0  0  0  0  0  0  0  0  0  0  0
   10.6118   21.1807  -18.2361 C   0  0  0  0  0  0  0  0  0  0  0  0
   10.9887   19.3372  -16.1892 C   0  0  0  0  0  0  0  0  0  0  0  0
   10.5145   21.5844  -16.9219 C   0  0  0  0  0  0  0  0  0  0  0  0
   10.9824   22.9431  -12.9080 C   0  0  0  0  0  0  0  0  0  0  0  0
   11.0509   22.4455  -14.2018 C   0  0  0  0  0  0  0  0  0  0  0  0
   10.3893   22.6283  -10.5303 C   0  0  0  0  0  0  0  0  0  0  0  0
   10.0814   20.3332  -13.4788 C   0  0  0  0  0  0  0  0  0  0  0  0
   10.8921   19.8624  -18.5336 C   0  0  0  0  0  0  0  0  0  0  0  0
    9.4088   20.4573   -9.9398 C   0  0  0  0  0  0  0  0  0  0  0  0
    9.8449   21.7412   -9.5753 C   0  0  0  0  0  0  0  0  0  0  0  0
   10.0096   20.8436  -12.1534 C   0  0  0  0  0  0  0  0  0  0  0  0
   10.6934   20.6619  -15.9049 C   0  0  0  0  0  0  0  0  0  0  0  0
   10.4491   22.1162  -11.8747 C   0  0  0  0  0  0  0  0  0  0  0  0
   10.5937   21.1506  -14.4840 C   0  0  0  0  0  0  0  0  0  0  0  0
    9.3620   21.5120   -7.5649 H   0  0  0  0  0  0  0  0  0  0  0  0
    9.2191   19.1027  -11.4029 H   0  0  0  0  0  0  0  0  0  0  0  0
   11.2808   17.9821  -17.7441 H   0  0  0  0  0  0  0  0  0  0  0  0
   10.4795   21.8426  -18.9739 H   0  0  0  0  0  0  0  0  0  0  0  0
   11.1339   18.6797  -15.4498 H   0  0  0  0  0  0  0  0  0  0  0  0
   10.3154   22.5398  -16.7037 H   0  0  0  0  0  0  0  0  0  0  0  0
   11.3023   23.8681  -12.7029 H   0  0  0  0  0  0  0  0  0  0  0  0
   11.4274   23.0122  -14.9347 H   0  0  0  0  0  0  0  0  0  0  0  0
   10.7096   23.5447  -10.2902 H   0  0  0  0  0  0  0  0  0  0  0  0
    9.7701   19.4056  -13.6853 H   0  0  0  0  0  0  0  0  0  0  0  0
  1 13  1  0  0  0  0
  2 14  2  0  0  0  0
  3 15  1  0  0  0  0
  4 14  1  0  0  0  0
  4 16  1  0  0  0  0
  5  7  1  0  0  0  0
  5 13  2  0  0  0  0
  6  8  2  0  0  0  0
  6 13  1  0  0  0  0
  7 17  2  0  0  0  0
  8 17  1  0  0  0  0
  9 10  1  0  0  0  0
  9 18  2  0  0  0  0
 10 19  2  0  0  0  0
 11 15  2  0  0  0  0
 11 18  1  0  0  0  0
 12 16  2  0  0  0  0
 12 19  1  0  0  0  0
 14 15  1  0  0  0  0
 16 18  1  0  0  0  0
 17 19  1  0  0  0  0
  3 20  1  0  0  0  0
  4 21  1  0  0  0  0
  5 22  1  0  0  0  0
  6 23  1  0  0  0  0
  7 24  1  0  0  0  0
  8 25  1  0  0  0  0
  9 26  1  0  0  0  0
 10 27  1  0  0  0  0
 11 28  1  0  0  0  0
 12 29  1  0  0  0  0
M  END
> <pdb_id>
4KIL

> <uniprot_id>
F0TRT1

> <usmiles>
Fc1ccc(c2cc3NC(=O)C(O)=Cc3cc2)cc1

$$$$
1RC_A_901
          07192420423D 1   1.00000     0.00000     0
            
 42 44  0  0  0  0            999 V2000
   69.5079   32.2929   26.1480 Cl  0  0  0  0  0  0  0  0  0  0  0  0
   68.7343   36.7177   25.5651 O   0  0  0  0  0  0  0  0  0  0  0  0
   66.2447   34.0203   21.6177 O   0  0  0  0  0  0  0  0  0  0  0  0
   66.9034   32.0090   27.6312 O   0  0  0  0  0  0  0  0  0  0  0  0
   64.2466   34.2189   24.2532 O   0  0  0  0  0  0  0  0  0  0  0  0
   69.5234   36.5887   23.3947 N   0  0  0  0  0  0  0  0  0  0  0  0
   66.7679   36.0976   22.6171 N   0  0  0  0  0  0  0  0  0  0  0  0
   71.3023   34.8916   23.7778 C   0  0  0  0  0  0  0  0  0  0  0  0
   70.9318   36.3562   23.7125 C   0  0  0  0  0  0  0  0  0  0  0  0
   66.6156   36.8678   21.3634 C   0  0  0  0  0  0  0  0  0  0  0  0
   66.9910   40.7080   21.6044 C   0  0  0  0  0  0  0  0  0  0  0  0
   67.2705   40.7992   23.0011 C   0  0  0  0  0  0  0  0  0  0  0  0
   66.7661   39.4457   20.9848 C   0  0  0  0  0  0  0  0  0  0  0  0
   67.3292   39.6265   23.7970 C   0  0  0  0  0  0  0  0  0  0  0  0
   65.5476   33.1052   25.9540 C   0  0  0  0  0  0  0  0  0  0  0  0
   67.8924   33.4926   24.3765 C   0  0  0  0  0  0  0  0  0  0  0  0
   68.5315   36.7554   24.3560 C   0  0  0  0  0  0  0  0  0  0  0  0
   66.5406   34.6843   22.6112 C   0  0  0  0  0  0  0  0  0  0  0  0
   67.9737   32.8365   25.6218 C   0  0  0  0  0  0  0  0  0  0  0  0
   66.8085   32.6440   26.4144 C   0  0  0  0  0  0  0  0  0  0  0  0
   65.4615   33.7644   24.7060 C   0  0  0  0  0  0  0  0  0  0  0  0
   67.1055   36.9966   23.7871 C   0  0  1  0  0  0  0  0  0  0  0  0
   66.8212   38.2903   21.7785 C   0  0  0  0  0  0  0  0  0  0  0  0
   66.6373   33.9637   23.9168 C   0  0  0  0  0  0  0  0  0  0  0  0
   67.0996   38.3731   23.1708 C   0  0  0  0  0  0  0  0  0  0  0  0
   67.7909   31.6833   27.9574 H   0  0  0  0  0  0  0  0  0  0  0  0
   64.1845   34.6852   23.3708 H   0  0  0  0  0  0  0  0  0  0  0  0
   69.2581   36.6303   22.4314 H   0  0  0  0  0  0  0  0  0  0  0  0
   72.2737   34.8030   23.9979 H   0  0  0  0  0  0  0  0  0  0  0  0
   70.7577   34.4413   24.4854 H   0  0  0  0  0  0  0  0  0  0  0  0
   71.1204   34.4620   22.8933 H   0  0  0  0  0  0  0  0  0  0  0  0
   71.1287   36.7723   24.6002 H   0  0  0  0  0  0  0  0  0  0  0  0
   71.4913   36.7930   23.0081 H   0  0  0  0  0  0  0  0  0  0  0  0
   65.7021   36.7396   20.9773 H   0  0  0  0  0  0  0  0  0  0  0  0
   67.3031   36.5915   20.6918 H   0  0  0  0  0  0  0  0  0  0  0  0
   66.9526   41.5417   21.0535 H   0  0  0  0  0  0  0  0  0  0  0  0
   67.4256   41.6937   23.4204 H   0  0  0  0  0  0  0  0  0  0  0  0
   66.5730   39.3843   20.0055 H   0  0  0  0  0  0  0  0  0  0  0  0
   67.5276   39.6812   24.7756 H   0  0  0  0  0  0  0  0  0  0  0  0
   64.7267   32.9651   26.5078 H   0  0  0  0  0  0  0  0  0  0  0  0
   68.7140   33.6246   23.8219 H   0  0  0  0  0  0  0  0  0  0  0  0
   66.4151   36.9229   24.5068 H   0  0  0  0  0  0  0  0  0  0  0  0
  1 19  1  0  0  0  0
  2 17  2  0  0  0  0
  3 18  2  0  0  0  0
  4 20  1  0  0  0  0
  5 21  1  0  0  0  0
  6  9  1  0  0  0  0
  6 17  1  0  0  0  0
  7 10  1  0  0  0  0
  7 18  1  0  0  0  0
  7 22  1  0  0  0  0
  8  9  1  0  0  0  0
 10 23  1  0  0  0  0
 11 12  2  0  0  0  0
 11 13  1  0  0  0  0
 12 14  1  0  0  0  0
 13 23  2  0  0  0  0
 14 25  2  0  0  0  0
 15 20  2  0  0  0  0
 15 21  1  0  0  0  0
 16 19  2  0  0  0  0
 16 24  1  0  0  0  0
 17 22  1  0  0  0  0
 18 24  1  0  0  0  0
 19 20  1  0  0  0  0
 21 24  2  0  0  0  0
 22 25  1  0  0  0  0
 23 25  1  0  0  0  0
  4 26  1  0  0  0  0
  5 27  1  0  0  0  0
  6 28  1  0  0  0  0
  8 29  1  0  0  0  0
  8 30  1  0  0  0  0
  8 31  1  0  0  0  0
  9 32  1  0  0  0  0
  9 33  1  0  0  0  0
 10 34  1  0  0  0  0
 10 35  1  0  0  0  0
 11 36  1  0  0  0  0
 12 37  1  0  0  0  0
 13 38  1  0  0  0  0
 14 39  1  0  0  0  0
 15 40  1  0  0  0  0
 16 41  1  0  0  0  0
 22 42  1  0  0  0  0
M  END
> <pdb_id>
3K98

> <uniprot_id>
P07900

> <usmiles>
Clc1c(O)cc(O)c(c1)C(=O)N2[C@H](c3c(cccc3)C2)C(=O)NCC

$$$$
1S1_A_501
          07202412153D 1   1.00000     0.00000     0
            
 38 39  0  0  0  0            999 V2000
   48.7630   48.2009   62.9829 N   0  0  0  0  0  0  0  0  0  0  0  0
   44.6912   47.1551   66.9760 N   0  0  0  0  0  0  0  0  0  0  0  0
   42.0788   45.5472   62.9233 N   0  0  0  0  0  0  0  0  0  0  0  0
   46.6056   48.1584   67.4324 N   0  0  0  0  0  0  0  0  0  0  0  0
   44.3219   45.7769   62.1740 N   0  0  0  0  0  0  0  0  0  0  0  0
   43.7376   46.3030   64.4223 N   0  0  0  0  0  0  0  0  0  0  0  0
   45.9837   46.4751   63.6984 N   0  0  0  0  0  0  0  0  0  0  0  0
   46.6160   45.9251   61.5019 N   0  0  0  0  0  0  0  0  0  0  0  0
   45.4299   47.0933   65.9675 N   0  0  0  0  0  0  0  0  0  0  0  0
   41.0425   45.5737   63.9536 C   0  0  0  0  0  0  0  0  0  0  0  0
   50.2791   45.9830   60.3676 C   0  0  0  0  0  0  0  0  0  0  0  0
   48.2180   43.4540   62.0330 C   0  0  0  0  0  0  0  0  0  0  0  0
   45.3975   47.7852   67.8907 C   0  0  0  0  0  0  0  0  0  0  0  0
   46.6020   47.7183   66.1725 C   0  0  0  0  0  0  0  0  0  0  0  0
   48.4578   47.2304   62.4328 C   0  0  0  0  0  0  0  0  0  0  0  0
   48.7515   45.9628   60.3696 C   0  0  0  0  0  0  0  0  0  0  0  0
   48.5158   44.8187   62.6681 C   0  0  0  0  0  0  0  0  0  0  0  0
   43.3919   45.8531   63.1770 C   0  0  0  0  0  0  0  0  0  0  0  0
   45.6230   46.0452   62.4552 C   0  0  0  0  0  0  0  0  0  0  0  0
   45.0415   46.5746   64.6827 C   0  0  0  0  0  0  0  0  0  0  0  0
   48.0729   45.9928   61.7504 C   0  0  0  0  0  0  0  0  0  0  0  0
   41.8189   45.2948   61.9912 H   0  0  0  0  0  0  0  0  0  0  0  0
   46.3229   45.7789   60.5570 H   0  0  0  0  0  0  0  0  0  0  0  0
   40.1642   45.3181   63.5496 H   0  0  0  0  0  0  0  0  0  0  0  0
   41.2769   44.9263   64.6788 H   0  0  0  0  0  0  0  0  0  0  0  0
   40.9774   46.4948   64.3374 H   0  0  0  0  0  0  0  0  0  0  0  0
   50.6115   45.9608   59.4248 H   0  0  0  0  0  0  0  0  0  0  0  0
   50.6021   46.8167   60.8154 H   0  0  0  0  0  0  0  0  0  0  0  0
   50.6236   45.1845   60.8614 H   0  0  0  0  0  0  0  0  0  0  0  0
   48.5160   42.7266   62.6511 H   0  0  0  0  0  0  0  0  0  0  0  0
   47.2352   43.3701   61.8689 H   0  0  0  0  0  0  0  0  0  0  0  0
   48.7088   43.3760   61.1653 H   0  0  0  0  0  0  0  0  0  0  0  0
   45.0732   47.9655   68.8193 H   0  0  0  0  0  0  0  0  0  0  0  0
   47.3366   47.8326   65.5037 H   0  0  0  0  0  0  0  0  0  0  0  0
   48.4568   45.1289   59.9030 H   0  0  0  0  0  0  0  0  0  0  0  0
   48.4352   46.7611   59.8570 H   0  0  0  0  0  0  0  0  0  0  0  0
   49.4993   44.8908   62.8337 H   0  0  0  0  0  0  0  0  0  0  0  0
   48.0257   44.8849   63.5373 H   0  0  0  0  0  0  0  0  0  0  0  0
  1 15  3  0  0  0  0
  2  9  1  0  0  0  0
  2 13  2  0  0  0  0
  3 10  1  0  0  0  0
  3 18  1  0  0  0  0
  4 13  1  0  0  0  0
  4 14  2  0  0  0  0
  5 18  2  0  0  0  0
  5 19  1  0  0  0  0
  6 18  1  0  0  0  0
  6 20  2  0  0  0  0
  7 19  2  0  0  0  0
  7 20  1  0  0  0  0
  8 19  1  0  0  0  0
  8 21  1  0  0  0  0
  9 14  1  0  0  0  0
  9 20  1  0  0  0  0
 11 16  1  0  0  0  0
 12 17  1  0  0  0  0
 15 21  1  0  0  0  0
 16 21  1  0  0  0  0
 17 21  1  0  0  0  0
  3 22  1  0  0  0  0
  8 23  1  0  0  0  0
 10 24  1  0  0  0  0
 10 25  1  0  0  0  0
 10 26  1  0  0  0  0
 11 27  1  0  0  0  0
 11 28  1  0  0  0  0
 11 29  1  0  0  0  0
 12 30  1  0  0  0  0
 12 31  1  0  0  0  0
 12 32  1  0  0  0  0
 13 33  1  0  0  0  0
 14 34  1  0  0  0  0
 16 35  1  0  0  0  0
 16 36  1  0  0  0  0
 17 37  1  0  0  0  0
 17 38  1  0  0  0  0
M  END
> <pdb_id>
4KP6

> <uniprot_id>
Q07343

> <usmiles>
N#CC(Nc1nc(nc(n1)NC)N2N=CN=C2)(CC)CC

$$$$
1S5_C_301
          07202412533D 1   1.00000     0.00000     0
            
 49 50  0  0  0  0            999 V2000
   27.8317   49.2470  -10.2810 O   0  0  0  0  0  0  0  0  0  0  0  0
   25.4317   49.3171  -11.6339 O   0  0  0  0  0  0  0  0  0  0  0  0
   23.8722   54.6908  -12.3359 N   0  0  0  0  0  0  0  0  0  0  0  0
   27.6158   47.8034  -14.1486 N   0  0  0  0  0  0  0  0  0  0  0  0
   27.5034   47.3948  -15.5502 C   0  0  0  0  0  0  0  0  0  0  0  0
   34.0529   51.1327  -16.6513 C   0  0  0  0  0  0  0  0  0  0  0  0
   22.9258   50.0387  -10.7406 C   0  0  0  0  0  0  0  0  0  0  0  0
   26.5151   48.3735  -13.5706 C   0  0  0  0  0  0  0  0  0  0  0  0
   33.3562   50.0317  -15.8526 C   0  0  0  0  0  0  0  0  0  0  0  0
   32.5656   49.0220  -16.6817 C   0  0  0  0  0  0  0  0  0  0  0  0
   31.9177   47.8891  -15.9015 C   0  0  0  0  0  0  0  0  0  0  0  0
   30.8194   48.3570  -14.9615 C   0  0  0  0  0  0  0  0  0  0  0  0
   26.0400   51.6101  -12.3129 C   0  0  0  0  0  0  0  0  0  0  0  0
   25.6215   52.9382  -12.4875 C   0  0  0  0  0  0  0  0  0  0  0  0
   30.0678   47.2816  -14.1810 C   0  0  0  0  0  0  0  0  0  0  0  0
   28.9074   48.2777  -12.1752 C   0  0  0  0  0  0  0  0  0  0  0  0
   23.4577   52.3895  -11.5542 C   0  0  0  0  0  0  0  0  0  0  0  0
   27.7792   48.7903  -11.5829 C   0  0  0  0  0  0  0  0  0  0  0  0
   26.5909   48.8509  -12.2648 C   0  0  0  0  0  0  0  0  0  0  0  0
   25.1485   50.6732  -11.7577 C   0  0  0  0  0  0  0  0  0  0  0  0
   24.3325   53.3302  -12.1098 C   0  0  0  0  0  0  0  0  0  0  0  0
   28.8158   47.8196  -13.4933 C   0  0  0  0  0  0  0  0  0  0  0  0
   23.8653   51.0672  -11.3751 C   0  0  0  0  0  0  0  0  0  0  0  0
   22.9486   54.9583  -12.0613 H   0  0  0  0  0  0  0  0  0  0  0  0
   24.4793   55.3590  -12.7660 H   0  0  0  0  0  0  0  0  0  0  0  0
   28.3693   46.9954  -15.8514 H   0  0  0  0  0  0  0  0  0  0  0  0
   26.7738   46.7172  -15.6424 H   0  0  0  0  0  0  0  0  0  0  0  0
   27.2904   48.1928  -16.1139 H   0  0  0  0  0  0  0  0  0  0  0  0
   34.5413   51.7406  -16.0252 H   0  0  0  0  0  0  0  0  0  0  0  0
   34.7024   50.7208  -17.2904 H   0  0  0  0  0  0  0  0  0  0  0  0
   33.3709   51.6572  -17.1609 H   0  0  0  0  0  0  0  0  0  0  0  0
   23.3852   49.1518  -10.6938 H   0  0  0  0  0  0  0  0  0  0  0  0
   22.6802   50.3361   -9.8180 H   0  0  0  0  0  0  0  0  0  0  0  0
   22.0980   49.9564  -11.2956 H   0  0  0  0  0  0  0  0  0  0  0  0
   25.6598   48.4471  -14.0835 H   0  0  0  0  0  0  0  0  0  0  0  0
   32.7239   50.4679  -15.2124 H   0  0  0  0  0  0  0  0  0  0  0  0
   34.0554   49.5314  -15.3418 H   0  0  0  0  0  0  0  0  0  0  0  0
   33.1901   48.6170  -17.3494 H   0  0  0  0  0  0  0  0  0  0  0  0
   31.8414   49.5182  -17.1607 H   0  0  0  0  0  0  0  0  0  0  0  0
   32.6239   47.4313  -15.3614 H   0  0  0  0  0  0  0  0  0  0  0  0
   31.5232   47.2406  -16.5525 H   0  0  0  0  0  0  0  0  0  0  0  0
   30.1479   48.8574  -15.5081 H   0  0  0  0  0  0  0  0  0  0  0  0
   31.2359   48.9765  -14.2962 H   0  0  0  0  0  0  0  0  0  0  0  0
   26.9626   51.3321  -12.5803 H   0  0  0  0  0  0  0  0  0  0  0  0
   26.2484   53.6087  -12.8843 H   0  0  0  0  0  0  0  0  0  0  0  0
   30.6789   46.9059  -13.4844 H   0  0  0  0  0  0  0  0  0  0  0  0
   29.7982   46.5562  -14.8143 H   0  0  0  0  0  0  0  0  0  0  0  0
   29.7729   48.2332  -11.6762 H   0  0  0  0  0  0  0  0  0  0  0  0
   22.5356   52.6666  -11.2842 H   0  0  0  0  0  0  0  0  0  0  0  0
  1 18  2  0  0  0  0
  2 19  1  0  0  0  0
  2 20  1  0  0  0  0
  3 21  1  0  0  0  0
  4  5  1  0  0  0  0
  4  8  1  0  0  0  0
  4 22  1  0  0  0  0
  6  9  1  0  0  0  0
  7 23  1  0  0  0  0
  8 19  2  0  0  0  0
  9 10  1  0  0  0  0
 10 11  1  0  0  0  0
 11 12  1  0  0  0  0
 12 15  1  0  0  0  0
 13 14  1  0  0  0  0
 13 20  2  0  0  0  0
 14 21  2  0  0  0  0
 15 22  1  0  0  0  0
 16 18  1  0  0  0  0
 16 22  2  0  0  0  0
 17 21  1  0  0  0  0
 17 23  2  0  0  0  0
 18 19  1  0  0  0  0
 20 23  1  0  0  0  0
  3 24  1  0  0  0  0
  3 25  1  0  0  0  0
  5 26  1  0  0  0  0
  5 27  1  0  0  0  0
  5 28  1  0  0  0  0
  6 29  1  0  0  0  0
  6 30  1  0  0  0  0
  6 31  1  0  0  0  0
  7 32  1  0  0  0  0
  7 33  1  0  0  0  0
  7 34  1  0  0  0  0
  8 35  1  0  0  0  0
  9 36  1  0  0  0  0
  9 37  1  0  0  0  0
 10 38  1  0  0  0  0
 10 39  1  0  0  0  0
 11 40  1  0  0  0  0
 11 41  1  0  0  0  0
 12 42  1  0  0  0  0
 12 43  1  0  0  0  0
 13 44  1  0  0  0  0
 14 45  1  0  0  0  0
 15 46  1  0  0  0  0
 15 47  1  0  0  0  0
 16 48  1  0  0  0  0
 17 49  1  0  0  0  0
M  END
> <pdb_id>
4OXK

> <uniprot_id>
P0A5Y6

> <usmiles>
O=C1C(Oc2c(cc(N)cc2)C)=CN(C(=C1)CCCCCC)C

$$$$
1SA_A_265
          07192416293D 1   1.00000     0.00000     0
            
 14 14  0  0  0  0            999 V2000
   -6.1208    3.5015   15.1309 S   0  0  0  0  0  0  0  0  0  0  0  0
   -5.8326    0.9353   16.7443 S   0  0  0  0  0  0  0  0  0  0  0  0
   -7.2597    1.0539   16.6190 O   0  0  0  0  0  0  0  0  0  0  0  0
   -5.3983    1.1515   18.1006 O   0  0  0  0  0  0  0  0  0  0  0  0
   -5.3526   -0.4686   16.2456 N   0  0  0  0  0  0  0  0  0  0  0  0
   -4.6175    5.3614   13.8860 N   0  0  0  0  0  0  0  0  0  0  0  0
   -3.8311    2.3812   15.5550 N   0  0  0  0  0  0  0  0  0  0  0  0
   -3.5802    3.4818   14.7756 N   0  0  0  0  0  0  0  0  0  0  0  0
   -5.1378    2.1951   15.7117 C   0  0  0  0  0  0  0  0  0  0  0  0
   -4.6512    4.2377   14.6216 C   0  0  0  0  0  0  0  0  0  0  0  0
   -4.3592   -0.5340   16.3396 H   0  0  0  0  0  0  0  0  0  0  0  0
   -5.7870   -1.1834   16.7935 H   0  0  0  0  0  0  0  0  0  0  0  0
   -3.7393    5.7539   13.6127 H   0  0  0  0  0  0  0  0  0  0  0  0
   -5.4706    5.8052   13.6117 H   0  0  0  0  0  0  0  0  0  0  0  0
  1  9  1  0  0  0  0
  1 10  1  0  0  0  0
  2  3  2  0  0  0  0
  2  4  2  0  0  0  0
  2  5  1  0  0  0  0
  2  9  1  0  0  0  0
  6 10  1  0  0  0  0
  7  8  1  0  0  0  0
  7  9  2  0  0  0  0
  8 10  2  0  0  0  0
  5 11  1  0  0  0  0
  5 12  1  0  0  0  0
  6 13  1  0  0  0  0
  6 14  1  0  0  0  0
M  END
> <pdb_id>
2HNC

> <uniprot_id>
P00918

> <usmiles>
S(=O)(=O)(N)C=1SC(=NN1)N

$$$$
1SM_A_695
          07202410013D 1   1.00000     0.00000     0
            
 41 42  0  0  0  0            999 V2000
  181.7688   89.3728  232.3937 S   0  0  0  0  0  0  0  0  0  0  0  0
  180.9667   90.3383  233.5548 O   0  0  0  0  0  0  0  0  0  0  0  0
  181.7125   89.7780  230.7399 O   0  0  0  0  0  0  0  0  0  0  0  0
  181.1387   87.4675  234.5236 O   0  0  0  0  0  0  0  0  0  0  0  0
  183.7096   86.7936  230.7826 O   0  0  0  0  0  0  0  0  0  0  0  0
  183.5265   85.5560  232.7841 O   0  0  0  0  0  0  0  0  0  0  0  0
  180.9042   87.8917  232.3300 N   0  0  0  0  0  0  0  0  0  0  0  0
  179.9913   86.0162  233.2616 N   0  0  0  0  0  0  0  0  0  0  0  0
  178.7475   83.9436  233.3608 N   0  0  0  0  0  0  0  0  0  0  0  0
  179.8947   84.9725  235.3213 N   0  0  0  0  0  0  0  0  0  0  0  0
  183.0565   84.3929  232.0810 C   0  0  0  0  0  0  0  0  0  0  0  0
  177.4952   81.8082  233.6010 C   0  0  0  0  0  0  0  0  0  0  0  0
  179.8245   83.8806  237.5751 C   0  0  0  0  0  0  0  0  0  0  0  0
  185.1329   90.3093  234.1439 C   0  0  0  0  0  0  0  0  0  0  0  0
  186.0305   89.2284  234.0093 C   0  0  0  0  0  0  0  0  0  0  0  0
  183.8342   90.2210  233.5897 C   0  0  0  0  0  0  0  0  0  0  0  0
  185.6164   88.0654  233.3195 C   0  0  0  0  0  0  0  0  0  0  0  0
  178.6352   82.7813  235.6425 C   0  0  0  0  0  0  0  0  0  0  0  0
  180.6883   87.1277  233.4068 C   0  0  0  0  0  0  0  0  0  0  0  0
  183.8359   86.7411  232.0193 C   0  0  0  0  0  0  0  0  0  0  0  0
  179.5395   84.9852  233.9395 C   0  0  0  0  0  0  0  0  0  0  0  0
  183.4230   89.0470  232.8959 C   0  0  0  0  0  0  0  0  0  0  0  0
  178.3063   82.8655  234.2048 C   0  0  0  0  0  0  0  0  0  0  0  0
  179.4555   83.8944  236.1573 C   0  0  0  0  0  0  0  0  0  0  0  0
  184.3211   87.9301  232.7454 C   0  0  0  0  0  0  0  0  0  0  0  0
  180.5456   87.5859  231.4481 H   0  0  0  0  0  0  0  0  0  0  0  0
  179.7100   85.9286  232.3060 H   0  0  0  0  0  0  0  0  0  0  0  0
  182.8843   83.6555  232.7342 H   0  0  0  0  0  0  0  0  0  0  0  0
  182.2095   84.6149  231.5981 H   0  0  0  0  0  0  0  0  0  0  0  0
  183.7489   84.0993  231.4219 H   0  0  0  0  0  0  0  0  0  0  0  0
  177.2608   81.1294  234.2969 H   0  0  0  0  0  0  0  0  0  0  0  0
  176.6571   82.2042  233.2259 H   0  0  0  0  0  0  0  0  0  0  0  0
  178.0134   81.3684  232.8675 H   0  0  0  0  0  0  0  0  0  0  0  0
  179.4410   83.0666  238.0114 H   0  0  0  0  0  0  0  0  0  0  0  0
  180.8208   83.8663  237.6601 H   0  0  0  0  0  0  0  0  0  0  0  0
  179.4636   84.6994  238.0215 H   0  0  0  0  0  0  0  0  0  0  0  0
  185.4146   91.1364  234.6302 H   0  0  0  0  0  0  0  0  0  0  0  0
  186.9502   89.2844  234.3979 H   0  0  0  0  0  0  0  0  0  0  0  0
  183.2003   90.9884  233.6858 H   0  0  0  0  0  0  0  0  0  0  0  0
  186.2610   87.3060  233.2314 H   0  0  0  0  0  0  0  0  0  0  0  0
  178.3257   82.0277  236.2223 H   0  0  0  0  0  0  0  0  0  0  0  0
  1  2  2  0  0  0  0
  1  3  2  0  0  0  0
  1  7  1  0  0  0  0
  1 22  1  0  0  0  0
  4 19  2  0  0  0  0
  5 20  2  0  0  0  0
  6 11  1  0  0  0  0
  6 20  1  0  0  0  0
  7 19  1  0  0  0  0
  8 19  1  0  0  0  0
  8 21  1  0  0  0  0
  9 21  2  0  0  0  0
  9 23  1  0  0  0  0
 10 21  1  0  0  0  0
 10 24  2  0  0  0  0
 12 23  1  0  0  0  0
 13 24  1  0  0  0  0
 14 15  2  0  0  0  0
 14 16  1  0  0  0  0
 15 17  1  0  0  0  0
 16 22  2  0  0  0  0
 17 25  2  0  0  0  0
 18 23  2  0  0  0  0
 18 24  1  0  0  0  0
 20 25  1  0  0  0  0
 22 25  1  0  0  0  0
  7 26  1  0  0  0  0
  8 27  1  0  0  0  0
 11 28  1  0  0  0  0
 11 29  1  0  0  0  0
 11 30  1  0  0  0  0
 12 31  1  0  0  0  0
 12 32  1  0  0  0  0
 12 33  1  0  0  0  0
 13 34  1  0  0  0  0
 13 35  1  0  0  0  0
 13 36  1  0  0  0  0
 14 37  1  0  0  0  0
 15 38  1  0  0  0  0
 16 39  1  0  0  0  0
 17 40  1  0  0  0  0
 18 41  1  0  0  0  0
M  END
> <pdb_id>
1T9C

> <uniprot_id>
P07342

> <usmiles>
S(=O)(=O)(NC(=O)Nc1nc(cc(n1)C)C)c2c(cccc2)C(=O)OC

$$$$
1SM_A_704
          07212402443D 1   1.00000     0.00000     0
            
 41 42  0  0  0  0            999 V2000
   52.2706   59.0493   79.6468 S   0  0  0  0  0  0  0  0  0  0  0  0
   51.0308   58.4739   79.2088 O   0  0  0  0  0  0  0  0  0  0  0  0
   52.2002   58.7854   81.0547 O   0  0  0  0  0  0  0  0  0  0  0  0
   55.2176   59.3120   80.1379 O   0  0  0  0  0  0  0  0  0  0  0  0
   52.8131   59.8036   76.3895 O   0  0  0  0  0  0  0  0  0  0  0  0
   54.8798   60.6035   76.8919 O   0  0  0  0  0  0  0  0  0  0  0  0
   53.5372   58.2504   78.9563 N   0  0  0  0  0  0  0  0  0  0  0  0
   55.8672   57.7092   78.5985 N   0  0  0  0  0  0  0  0  0  0  0  0
   57.9266   58.7063   79.3829 N   0  0  0  0  0  0  0  0  0  0  0  0
   57.9122   56.6998   78.2085 N   0  0  0  0  0  0  0  0  0  0  0  0
   55.3367   59.9271   75.7389 C   0  0  0  0  0  0  0  0  0  0  0  0
   60.0376   59.7625   80.2143 C   0  0  0  0  0  0  0  0  0  0  0  0
   59.9247   55.3952   77.6384 C   0  0  0  0  0  0  0  0  0  0  0  0
   51.6849   63.0050   80.1135 C   0  0  0  0  0  0  0  0  0  0  0  0
   52.2385   63.5660   78.9703 C   0  0  0  0  0  0  0  0  0  0  0  0
   51.7105   61.6291   80.2890 C   0  0  0  0  0  0  0  0  0  0  0  0
   52.8167   62.7481   78.0086 C   0  0  0  0  0  0  0  0  0  0  0  0
   59.9911   57.5829   78.9338 C   0  0  0  0  0  0  0  0  0  0  0  0
   54.9076   58.4914   79.3016 C   0  0  0  0  0  0  0  0  0  0  0  0
   53.4898   60.5327   77.0905 C   0  0  0  0  0  0  0  0  0  0  0  0
   57.2908   57.7323   78.7500 C   0  0  0  0  0  0  0  0  0  0  0  0
   52.2897   60.8043   79.3303 C   0  0  0  0  0  0  0  0  0  0  0  0
   59.2756   58.6640   79.4943 C   0  0  0  0  0  0  0  0  0  0  0  0
   59.2485   56.5905   78.2728 C   0  0  0  0  0  0  0  0  0  0  0  0
   52.8433   61.3673   78.1761 C   0  0  0  0  0  0  0  0  0  0  0  0
   53.3388   57.5612   78.2595 H   0  0  0  0  0  0  0  0  0  0  0  0
   55.5050   57.0697   77.9204 H   0  0  0  0  0  0  0  0  0  0  0  0
   56.3296   60.0231   75.6676 H   0  0  0  0  0  0  0  0  0  0  0  0
   55.0995   58.9579   75.8051 H   0  0  0  0  0  0  0  0  0  0  0  0
   54.9046   60.3215   74.9279 H   0  0  0  0  0  0  0  0  0  0  0  0
   61.0163   59.5581   80.1933 H   0  0  0  0  0  0  0  0  0  0  0  0
   59.8700   60.6374   79.7598 H   0  0  0  0  0  0  0  0  0  0  0  0
   59.7284   59.8155   81.1638 H   0  0  0  0  0  0  0  0  0  0  0  0
   60.9135   55.4616   77.7723 H   0  0  0  0  0  0  0  0  0  0  0  0
   59.5864   54.5560   78.0641 H   0  0  0  0  0  0  0  0  0  0  0  0
   59.7213   55.3778   76.6595 H   0  0  0  0  0  0  0  0  0  0  0  0
   51.2688   63.5913   80.8086 H   0  0  0  0  0  0  0  0  0  0  0  0
   52.2209   64.5573   78.8399 H   0  0  0  0  0  0  0  0  0  0  0  0
   51.3090   61.2268   81.1118 H   0  0  0  0  0  0  0  0  0  0  0  0
   53.2177   63.1554   77.1880 H   0  0  0  0  0  0  0  0  0  0  0  0
   60.9870   57.5262   79.0048 H   0  0  0  0  0  0  0  0  0  0  0  0
  1  2  2  0  0  0  0
  1  3  2  0  0  0  0
  1  7  1  0  0  0  0
  1 22  1  0  0  0  0
  4 19  2  0  0  0  0
  5 20  2  0  0  0  0
  6 11  1  0  0  0  0
  6 20  1  0  0  0  0
  7 19  1  0  0  0  0
  8 19  1  0  0  0  0
  8 21  1  0  0  0  0
  9 21  2  0  0  0  0
  9 23  1  0  0  0  0
 10 21  1  0  0  0  0
 10 24  2  0  0  0  0
 12 23  1  0  0  0  0
 13 24  1  0  0  0  0
 14 15  2  0  0  0  0
 14 16  1  0  0  0  0
 15 17  1  0  0  0  0
 16 22  2  0  0  0  0
 17 25  2  0  0  0  0
 18 23  2  0  0  0  0
 18 24  1  0  0  0  0
 20 25  1  0  0  0  0
 22 25  1  0  0  0  0
  7 26  1  0  0  0  0
  8 27  1  0  0  0  0
 11 28  1  0  0  0  0
 11 29  1  0  0  0  0
 11 30  1  0  0  0  0
 12 31  1  0  0  0  0
 12 32  1  0  0  0  0
 12 33  1  0  0  0  0
 13 34  1  0  0  0  0
 13 35  1  0  0  0  0
 13 36  1  0  0  0  0
 14 37  1  0  0  0  0
 15 38  1  0  0  0  0
 16 39  1  0  0  0  0
 17 40  1  0  0  0  0
 18 41  1  0  0  0  0
M  END
> <pdb_id>
6DEP

> <uniprot_id>
nan

> <usmiles>
S(=O)(=O)(NC(=O)Nc1nc(cc(n1)C)C)c2c(cccc2)C(=O)OC

$$$$
1UD_A_401
          07202407253D 1   1.00000     0.00000     0
            
 53 56  0  0  0  0            999 V2000
  103.5460   16.7510   24.0340 O   0  0  0  0  0  0  0  0  0  0  0  0
   94.5320   12.8450   18.0550 O   0  0  0  0  0  0  0  0  0  0  0  0
   95.9310   14.9850   15.9310 O   0  0  0  0  0  0  0  0  0  0  0  0
   96.3450   12.2370   19.7510 O   0  0  0  0  0  0  0  0  0  0  0  0
   97.1360   15.1000   17.8920 O   0  0  0  0  0  0  0  0  0  0  0  0
   99.2800   15.3430   24.9350 N   0  0  0  0  0  0  0  0  0  0  0  0
  102.9390   17.3490   16.4630 N   0  0  0  0  0  0  0  0  0  0  0  0
  101.4080   16.0640   24.4260 N   0  0  0  0  0  0  0  0  0  0  0  0
  103.3890   17.2030   18.7820 N   0  0  0  0  0  0  0  0  0  0  0  0
   99.8460   15.6990   22.7240 N   0  0  0  0  0  0  0  0  0  0  0  0
  101.3480   16.6860   18.1170 N   0  0  0  0  0  0  0  0  0  0  0  0
   95.4890   16.3110   15.6650 C   0  0  0  0  0  0  0  0  0  0  0  0
   96.4160   10.8150   19.7570 C   0  0  0  0  0  0  0  0  0  0  0  0
  101.9480   17.4770   15.4140 C   0  0  0  0  0  0  0  0  0  0  0  0
   98.8050   14.3840   19.4480 C   0  0  0  0  0  0  0  0  0  0  0  0
   99.0460   15.8100   19.9190 C   0  0  0  0  0  0  0  0  0  0  0  0
  103.0940   16.8390   21.2570 C   0  0  0  0  0  0  0  0  0  0  0  0
   95.8960   14.6790   17.3210 C   0  0  2  0  0  0  0  0  0  0  0  0
  102.4340   16.4370   23.6020 C   0  0  0  0  0  0  0  0  0  0  0  0
  100.1660   15.7060   23.9840 C   0  0  0  0  0  0  0  0  0  0  0  0
  102.5350   17.0780   17.7170 C   0  0  0  0  0  0  0  0  0  0  0  0
   95.8230   13.1710   17.5410 C   0  0  1  0  0  0  0  0  0  0  0  0
   97.3440   14.2540   19.0240 C   0  0  2  0  0  0  0  0  0  0  0  0
   96.8910   12.8670   18.5940 C   0  0  1  0  0  0  0  0  0  0  0  0
  102.7060   16.8710   19.9220 C   0  0  0  0  0  0  0  0  0  0  0  0
  101.4350   16.5410   19.4810 C   0  0  0  0  0  0  0  0  0  0  0  0
  100.8030   16.0960   21.7690 C   0  0  0  0  0  0  0  0  0  0  0  0
  102.1060   16.4500   22.1660 C   0  0  0  0  0  0  0  0  0  0  0  0
  100.4420   16.1280   20.3980 C   0  0  0  0  0  0  0  0  0  0  0  0
   94.4719   11.8579   18.2035 H   0  0  0  0  0  0  0  0  0  0  0  0
   98.3533   15.0698   24.6769 H   0  0  0  0  0  0  0  0  0  0  0  0
   99.5501   15.3472   25.8978 H   0  0  0  0  0  0  0  0  0  0  0  0
  103.9112   17.4607   16.2573 H   0  0  0  0  0  0  0  0  0  0  0  0
  101.5773   16.0527   25.4115 H   0  0  0  0  0  0  0  0  0  0  0  0
  104.3464   17.4877   18.7348 H   0  0  0  0  0  0  0  0  0  0  0  0
   95.5290   16.4846   14.6810 H   0  0  0  0  0  0  0  0  0  0  0  0
   94.5476   16.4190   15.9845 H   0  0  0  0  0  0  0  0  0  0  0  0
   96.0797   16.9614   16.1425 H   0  0  0  0  0  0  0  0  0  0  0  0
   96.0116   10.4646   20.6018 H   0  0  0  0  0  0  0  0  0  0  0  0
   95.9137   10.4529   18.9718 H   0  0  0  0  0  0  0  0  0  0  0  0
   97.3726   10.5288   19.7016 H   0  0  0  0  0  0  0  0  0  0  0  0
  102.4043   17.6775   14.5470 H   0  0  0  0  0  0  0  0  0  0  0  0
  101.4372   16.6212   15.3318 H   0  0  0  0  0  0  0  0  0  0  0  0
  101.3184   18.2206   15.6391 H   0  0  0  0  0  0  0  0  0  0  0  0
   98.9981   13.7455   20.1930 H   0  0  0  0  0  0  0  0  0  0  0  0
   99.4010   14.1800   18.6714 H   0  0  0  0  0  0  0  0  0  0  0  0
   98.4158   15.9925   20.6737 H   0  0  0  0  0  0  0  0  0  0  0  0
   98.8386   16.4223   19.1560 H   0  0  0  0  0  0  0  0  0  0  0  0
  104.0202   17.0788   21.5479 H   0  0  0  0  0  0  0  0  0  0  0  0
   95.1274   15.1391   17.7654 H   0  0  0  0  0  0  0  0  0  0  0  0
   96.0060   12.6758   16.6917 H   0  0  0  0  0  0  0  0  0  0  0  0
   96.7606   14.5670   19.7734 H   0  0  0  0  0  0  0  0  0  0  0  0
   97.6463   12.3368   18.2088 H   0  0  0  0  0  0  0  0  0  0  0  0
  1 19  2  0  0  0  0
  2 22  1  0  0  0  0
  3 12  1  0  0  0  0
  3 18  1  0  0  0  0
  4 13  1  0  0  0  0
  4 24  1  0  0  0  0
  5 18  1  0  0  0  0
  5 23  1  0  0  0  0
  6 20  1  0  0  0  0
  7 14  1  0  0  0  0
  7 21  1  0  0  0  0
  8 19  1  0  0  0  0
  8 20  1  0  0  0  0
  9 21  1  0  0  0  0
  9 25  1  0  0  0  0
 10 20  2  0  0  0  0
 10 27  1  0  0  0  0
 11 21  2  0  0  0  0
 11 26  1  0  0  0  0
 15 16  1  0  0  0  0
 15 23  1  0  0  0  0
 16 29  1  0  0  0  0
 17 25  2  0  0  0  0
 17 28  1  0  0  0  0
 18 22  1  0  0  0  0
 19 28  1  0  0  0  0
 22 24  1  0  0  0  0
 23 24  1  0  0  0  0
 25 26  1  0  0  0  0
 26 29  2  0  0  0  0
 27 28  2  0  0  0  0
 27 29  1  0  0  0  0
  2 30  1  0  0  0  0
  6 31  1  0  0  0  0
  6 32  1  0  0  0  0
  7 33  1  0  0  0  0
  8 34  1  0  0  0  0
  9 35  1  0  0  0  0
 12 36  1  0  0  0  0
 12 37  1  0  0  0  0
 12 38  1  0  0  0  0
 13 39  1  0  0  0  0
 13 40  1  0  0  0  0
 13 41  1  0  0  0  0
 14 42  1  0  0  0  0
 14 43  1  0  0  0  0
 14 44  1  0  0  0  0
 15 45  1  0  0  0  0
 15 46  1  0  0  0  0
 16 47  1  0  0  0  0
 16 48  1  0  0  0  0
 17 49  1  0  0  0  0
 18 50  1  0  0  0  0
 22 51  1  0  0  0  0
 23 52  1  0  0  0  0
 24 53  1  0  0  0  0
M  END
> <pdb_id>
4KWO

> <uniprot_id>
P28720

> <usmiles>
O=C1NC(=Nc2c1cc3NC(=Nc3c2CC[C@H]4O[C@@H](OC)[C@H](O)[C@@H]4OC)NC)N

$$$$
1UP_A_305
          07202413303D 1   1.00000     0.00000     0
            
 35 36  0  0  0  0            999 V2000
  -28.8214  -16.6230    2.7095 O   0  0  0  0  0  0  0  0  0  0  0  0
  -26.0301  -15.7908   -1.1138 O   0  0  0  0  0  0  0  0  0  0  0  0
  -27.7461  -17.7699   -0.5138 O   0  0  0  0  0  0  0  0  0  0  0  0
  -26.8904  -16.0726    1.5995 N   0  0  0  0  0  0  0  0  0  0  0  0
  -32.0678  -20.8080   -4.3373 N   0  0  0  0  0  0  0  0  0  0  0  0
  -32.0224  -20.5638   -2.0224 N   0  0  0  0  0  0  0  0  0  0  0  0
  -25.4916  -14.4640   -1.1056 C   0  0  0  0  0  0  0  0  0  0  0  0
  -28.7510  -17.2771    0.3804 C   0  0  0  0  0  0  0  0  0  0  0  0
  -27.0478  -15.4736   -3.3975 C   0  0  0  0  0  0  0  0  0  0  0  0
  -27.9962  -15.8686   -4.3037 C   0  0  0  0  0  0  0  0  0  0  0  0
  -30.7455  -18.3328   -4.7568 C   0  0  0  0  0  0  0  0  0  0  0  0
  -29.8629  -17.3171   -5.0124 C   0  0  0  0  0  0  0  0  0  0  0  0
  -29.7799  -18.6993   -2.5118 C   0  0  0  0  0  0  0  0  0  0  0  0
  -28.1549  -16.6485    1.6547 C   0  0  0  0  0  0  0  0  0  0  0  0
  -31.6627  -20.2202   -3.2934 C   0  0  0  0  0  0  0  0  0  0  0  0
  -26.9438  -16.1382   -2.0973 C   0  0  0  0  0  0  0  0  0  0  0  0
  -27.8082  -17.1993   -1.7725 C   0  0  0  0  0  0  0  0  0  0  0  0
  -30.7121  -19.0450   -3.4863 C   0  0  0  0  0  0  0  0  0  0  0  0
  -28.8885  -16.9427   -4.0202 C   0  0  0  0  0  0  0  0  0  0  0  0
  -28.8274  -17.6407   -2.7562 C   0  0  0  0  0  0  0  0  0  0  0  0
  -26.3656  -16.0992    0.7487 H   0  0  0  0  0  0  0  0  0  0  0  0
  -26.5058  -15.6319    2.4106 H   0  0  0  0  0  0  0  0  0  0  0  0
  -31.7597  -20.4983   -5.2369 H   0  0  0  0  0  0  0  0  0  0  0  0
  -32.6962  -21.5823   -4.2633 H   0  0  0  0  0  0  0  0  0  0  0  0
  -31.6601  -20.0507   -1.2442 H   0  0  0  0  0  0  0  0  0  0  0  0
  -24.8524  -14.3684   -0.3425 H   0  0  0  0  0  0  0  0  0  0  0  0
  -25.0114  -14.2938   -1.9661 H   0  0  0  0  0  0  0  0  0  0  0  0
  -26.2350  -13.8032   -1.0024 H   0  0  0  0  0  0  0  0  0  0  0  0
  -29.3440  -18.0373    0.6458 H   0  0  0  0  0  0  0  0  0  0  0  0
  -29.2912  -16.5835   -0.0961 H   0  0  0  0  0  0  0  0  0  0  0  0
  -26.4230  -14.7268   -3.6255 H   0  0  0  0  0  0  0  0  0  0  0  0
  -28.0636  -15.3938   -5.1812 H   0  0  0  0  0  0  0  0  0  0  0  0
  -31.4199  -18.5882   -5.4495 H   0  0  0  0  0  0  0  0  0  0  0  0
  -29.8951  -16.8354   -5.8881 H   0  0  0  0  0  0  0  0  0  0  0  0
  -29.7694  -19.1861   -1.6383 H   0  0  0  0  0  0  0  0  0  0  0  0
  1 14  2  0  0  0  0
  2  7  1  0  0  0  0
  2 16  1  0  0  0  0
  3  8  1  0  0  0  0
  3 17  1  0  0  0  0
  4 14  1  0  0  0  0
  5 15  1  0  0  0  0
  6 15  2  0  0  0  0
  8 14  1  0  0  0  0
  9 10  2  0  0  0  0
  9 16  1  0  0  0  0
 10 19  1  0  0  0  0
 11 12  1  0  0  0  0
 11 18  2  0  0  0  0
 12 19  2  0  0  0  0
 13 18  1  0  0  0  0
 13 20  2  0  0  0  0
 15 18  1  0  0  0  0
 16 17  2  0  0  0  0
 17 20  1  0  0  0  0
 19 20  1  0  0  0  0
  4 21  1  0  0  0  0
  4 22  1  0  0  0  0
  5 23  1  0  0  0  0
  5 24  1  0  0  0  0
  6 25  1  0  0  0  0
  7 26  1  0  0  0  0
  7 27  1  0  0  0  0
  7 28  1  0  0  0  0
  8 29  1  0  0  0  0
  8 30  1  0  0  0  0
  9 31  1  0  0  0  0
 10 32  1  0  0  0  0
 11 33  1  0  0  0  0
 12 34  1  0  0  0  0
 13 35  1  0  0  0  0
M  END
> <pdb_id>
4FU7

> <uniprot_id>
P00749

> <usmiles>
O=C(N)COc1c(OC)ccc2c1cc(cc2)C(=N)N

$$$$
1UX_B_301
          07202407393D 1   1.00000     0.00000     0
            
 61 63  0  0  0  0            999 V2000
  -28.9880  -10.8100  -22.8480 S   0  0  0  0  0  0  0  0  0  0  0  0
  -32.3380  -13.3660  -20.5550 S   0  0  0  0  0  0  0  0  0  0  0  0
  -37.3450   -7.3620  -24.8890 O   0  0  0  0  0  0  0  0  0  0  0  0
  -38.4550  -11.3420  -22.3980 O   0  0  0  0  0  0  0  0  0  0  0  0
  -36.8170  -10.1060  -23.8550 O   0  0  0  0  0  0  0  0  0  0  0  0
  -25.1480  -14.0930  -22.4760 N   0  0  0  0  0  0  0  0  0  0  0  0
  -24.1740   -9.4920  -21.7430 N   0  0  0  0  0  0  0  0  0  0  0  0
  -26.7900  -12.4960  -22.6140 N   0  0  0  0  0  0  0  0  0  0  0  0
  -26.3190  -10.2390  -22.2240 N   0  0  0  0  0  0  0  0  0  0  0  0
  -32.1610  -12.1910  -22.7010 N   0  0  0  0  0  0  0  0  0  0  0  0
  -39.3390  -11.2810  -21.2640 C   0  0  0  0  0  0  0  0  0  0  0  0
  -29.2350  -16.2490  -21.7840 C   0  0  0  0  0  0  0  0  0  0  0  0
  -35.7460   -7.8470  -26.7170 C   0  0  0  0  0  0  0  0  0  0  0  0
  -37.7550   -9.1810  -26.4250 C   0  0  0  0  0  0  0  0  0  0  0  0
  -29.7250  -12.4420  -23.2720 C   0  0  0  0  0  0  0  0  0  0  0  0
  -35.9030   -9.3100  -24.6520 C   0  0  0  0  0  0  0  0  0  0  0  0
  -29.6950  -15.4920  -20.5240 C   0  0  0  0  0  0  0  0  0  0  0  0
  -29.5700  -13.9700  -20.6780 C   0  0  0  0  0  0  0  0  0  0  0  0
  -36.6980  -12.6040  -21.2500 C   0  0  0  0  0  0  0  0  0  0  0  0
  -35.3270  -12.8440  -21.1400 C   0  0  0  0  0  0  0  0  0  0  0  0
  -24.5500  -11.8210  -22.0800 C   0  0  0  0  0  0  0  0  0  0  0  0
  -34.8520  -11.2340  -22.8770 C   0  0  0  0  0  0  0  0  0  0  0  0
  -27.2090  -11.2190  -22.5290 C   0  0  0  0  0  0  0  0  0  0  0  0
  -33.0870  -12.4730  -21.8000 C   0  0  0  0  0  0  0  0  0  0  0  0
  -30.8770  -13.3480  -21.2450 C   0  0  0  0  0  0  0  0  0  0  0  0
  -25.4980  -12.8110  -22.3960 C   0  0  0  0  0  0  0  0  0  0  0  0
  -25.0090  -10.5000  -22.0160 C   0  0  0  0  0  0  0  0  0  0  0  0
  -37.1400  -11.6670  -22.1840 C   0  0  0  0  0  0  0  0  0  0  0  0
  -36.2350  -10.9960  -22.9930 C   0  0  0  0  0  0  0  0  0  0  0  0
  -30.9550  -12.6800  -22.3930 C   0  0  0  0  0  0  0  0  0  0  0  0
  -34.3910  -12.1560  -21.9240 C   0  0  0  0  0  0  0  0  0  0  0  0
  -36.6980   -8.4100  -25.6530 C   0  0  0  0  0  0  0  0  0  0  0  0
  -37.9539   -7.7720  -24.2099 H   0  0  0  0  0  0  0  0  0  0  0  0
  -24.1977  -14.3625  -22.3201 H   0  0  0  0  0  0  0  0  0  0  0  0
  -25.8354  -14.7864  -22.6920 H   0  0  0  0  0  0  0  0  0  0  0  0
  -23.2032   -9.6750  -21.5876 H   0  0  0  0  0  0  0  0  0  0  0  0
  -24.5203   -8.5551  -21.6942 H   0  0  0  0  0  0  0  0  0  0  0  0
  -40.2583  -11.0344  -21.5708 H   0  0  0  0  0  0  0  0  0  0  0  0
  -39.3660  -12.1736  -20.8140 H   0  0  0  0  0  0  0  0  0  0  0  0
  -39.0070  -10.5926  -20.6192 H   0  0  0  0  0  0  0  0  0  0  0  0
  -29.3345  -17.2331  -21.6366 H   0  0  0  0  0  0  0  0  0  0  0  0
  -29.7958  -15.9703  -22.5636 H   0  0  0  0  0  0  0  0  0  0  0  0
  -28.2760  -16.0351  -21.9699 H   0  0  0  0  0  0  0  0  0  0  0  0
  -35.3229   -8.6016  -27.2186 H   0  0  0  0  0  0  0  0  0  0  0  0
  -36.2598   -7.2708  -27.3527 H   0  0  0  0  0  0  0  0  0  0  0  0
  -35.0350   -7.3017  -26.2731 H   0  0  0  0  0  0  0  0  0  0  0  0
  -37.3171   -9.9068  -26.9555 H   0  0  0  0  0  0  0  0  0  0  0  0
  -38.4081   -9.5843  -25.7840 H   0  0  0  0  0  0  0  0  0  0  0  0
  -38.2356   -8.5595  -27.0437 H   0  0  0  0  0  0  0  0  0  0  0  0
  -29.0532  -13.1649  -23.1105 H   0  0  0  0  0  0  0  0  0  0  0  0
  -29.9954  -12.4473  -24.2347 H   0  0  0  0  0  0  0  0  0  0  0  0
  -35.2971   -9.9182  -25.1649 H   0  0  0  0  0  0  0  0  0  0  0  0
  -35.3582   -8.7291  -24.0473 H   0  0  0  0  0  0  0  0  0  0  0  0
  -29.1323  -15.7839  -19.7506 H   0  0  0  0  0  0  0  0  0  0  0  0
  -30.6521  -15.7191  -20.3443 H   0  0  0  0  0  0  0  0  0  0  0  0
  -28.8156  -13.7670  -21.3023 H   0  0  0  0  0  0  0  0  0  0  0  0
  -29.3796  -13.5670  -19.7828 H   0  0  0  0  0  0  0  0  0  0  0  0
  -37.3498  -13.0938  -20.6710 H   0  0  0  0  0  0  0  0  0  0  0  0
  -35.0040  -13.5257  -20.4836 H   0  0  0  0  0  0  0  0  0  0  0  0
  -23.5918  -12.0504  -21.9089 H   0  0  0  0  0  0  0  0  0  0  0  0
  -34.2050  -10.7513  -23.4673 H   0  0  0  0  0  0  0  0  0  0  0  0
  1 15  1  0  0  0  0
  1 23  1  0  0  0  0
  2 24  1  0  0  0  0
  2 25  1  0  0  0  0
  3 32  1  0  0  0  0
  4 11  1  0  0  0  0
  4 28  1  0  0  0  0
  5 16  1  0  0  0  0
  5 29  1  0  0  0  0
  6 26  1  0  0  0  0
  7 27  1  0  0  0  0
  8 23  1  0  0  0  0
  8 26  2  0  0  0  0
  9 23  2  0  0  0  0
  9 27  1  0  0  0  0
 10 24  2  0  0  0  0
 10 30  1  0  0  0  0
 12 17  1  0  0  0  0
 13 32  1  0  0  0  0
 14 32  1  0  0  0  0
 15 30  1  0  0  0  0
 16 32  1  0  0  0  0
 17 18  1  0  0  0  0
 18 25  1  0  0  0  0
 19 20  1  0  0  0  0
 19 28  2  0  0  0  0
 20 31  2  0  0  0  0
 21 26  1  0  0  0  0
 21 27  2  0  0  0  0
 22 29  2  0  0  0  0
 22 31  1  0  0  0  0
 24 31  1  0  0  0  0
 25 30  2  0  0  0  0
 28 29  1  0  0  0  0
  3 33  1  0  0  0  0
  6 34  1  0  0  0  0
  6 35  1  0  0  0  0
  7 36  1  0  0  0  0
  7 37  1  0  0  0  0
 11 38  1  0  0  0  0
 11 39  1  0  0  0  0
 11 40  1  0  0  0  0
 12 41  1  0  0  0  0
 12 42  1  0  0  0  0
 12 43  1  0  0  0  0
 13 44  1  0  0  0  0
 13 45  1  0  0  0  0
 13 46  1  0  0  0  0
 14 47  1  0  0  0  0
 14 48  1  0  0  0  0
 14 49  1  0  0  0  0
 15 50  1  0  0  0  0
 15 51  1  0  0  0  0
 16 52  1  0  0  0  0
 16 53  1  0  0  0  0
 17 54  1  0  0  0  0
 17 55  1  0  0  0  0
 18 56  1  0  0  0  0
 18 57  1  0  0  0  0
 19 58  1  0  0  0  0
 20 59  1  0  0  0  0
 21 60  1  0  0  0  0
 22 61  1  0  0  0  0
M  END
> <pdb_id>
4L5B

> <uniprot_id>
P27707

> <usmiles>
S(c1nc(N)cc(n1)N)CC=2N=C(SC2CCC)c3cc(OCC(O)(C)C)c(OC)cc3

$$$$
1V9_A_601
          07202407403D 1   1.00000     0.00000     0
            
 46 48  0  0  0  0            999 V2000
   20.1470   -2.2500   13.9990 O   0  0  0  0  0  0  0  0  0  0  0  0
   14.8460   -5.5160   11.1700 O   0  0  0  0  0  0  0  0  0  0  0  0
   16.9150   -5.2060   12.1570 N   0  0  0  0  0  0  0  0  0  0  0  0
   22.0560   -3.1830   13.1660 N   0  0  0  0  0  0  0  0  0  0  0  0
   18.5300   -6.9310   12.1520 N   0  0  0  0  0  0  0  0  0  0  0  0
   23.0590   -3.8970   15.9860 C   0  0  0  0  0  0  0  0  0  0  0  0
   25.3290    0.4160   12.0180 C   0  0  0  0  0  0  0  0  0  0  0  0
   25.2160   -0.8850   11.5130 C   0  0  0  0  0  0  0  0  0  0  0  0
   24.6490    0.7250   13.1950 C   0  0  0  0  0  0  0  0  0  0  0  0
   17.2730   -9.9090   10.5240 C   0  0  0  0  0  0  0  0  0  0  0  0
   16.0010   -9.4740   10.1490 C   0  0  0  0  0  0  0  0  0  0  0  0
   23.9200   -3.2750   14.8780 C   0  0  0  0  0  0  0  0  0  0  0  0
   18.1190   -9.0160   11.2150 C   0  0  0  0  0  0  0  0  0  0  0  0
   24.4440   -1.8340   12.1930 C   0  0  0  0  0  0  0  0  0  0  0  0
   23.8700   -0.1950   13.8640 C   0  0  0  0  0  0  0  0  0  0  0  0
   19.8540   -3.8980   12.2940 C   0  0  0  0  0  0  0  0  0  0  0  0
   19.0970   -4.8820   13.2050 C   0  0  0  0  0  0  0  0  0  0  0  0
   15.5850   -8.1520   10.4370 C   0  0  0  0  0  0  0  0  0  0  0  0
   20.7100   -3.0340   13.2300 C   0  0  0  0  0  0  0  0  0  0  0  0
   18.1780   -5.6900   12.5020 C   0  0  0  0  0  0  0  0  0  0  0  0
   15.9820   -5.9860   11.4540 C   0  0  0  0  0  0  0  0  0  0  0  0
   22.9680   -2.4100   14.0820 C   0  0  1  0  0  0  0  0  0  0  0  0
   17.6920   -7.7280   11.4730 C   0  0  0  0  0  0  0  0  0  0  0  0
   23.7560   -1.4930   13.3760 C   0  0  0  0  0  0  0  0  0  0  0  0
   16.4070   -7.2950   11.1170 C   0  0  0  0  0  0  0  0  0  0  0  0
   16.6663   -4.2735   12.4189 H   0  0  0  0  0  0  0  0  0  0  0  0
   22.4497   -3.8164   12.4998 H   0  0  0  0  0  0  0  0  0  0  0  0
   23.6278   -4.4879   16.5580 H   0  0  0  0  0  0  0  0  0  0  0  0
   22.6628   -3.1706   16.5476 H   0  0  0  0  0  0  0  0  0  0  0  0
   22.3254   -4.4377   15.5742 H   0  0  0  0  0  0  0  0  0  0  0  0
   25.8818    1.1039   11.5477 H   0  0  0  0  0  0  0  0  0  0  0  0
   25.6865   -1.1360   10.6671 H   0  0  0  0  0  0  0  0  0  0  0  0
   24.7293    1.6492   13.5683 H   0  0  0  0  0  0  0  0  0  0  0  0
   17.5790  -10.8360   10.3071 H   0  0  0  0  0  0  0  0  0  0  0  0
   15.3808  -10.0989    9.6748 H   0  0  0  0  0  0  0  0  0  0  0  0
   24.3157   -3.9875   14.2985 H   0  0  0  0  0  0  0  0  0  0  0  0
   24.6530   -2.7205   15.2719 H   0  0  0  0  0  0  0  0  0  0  0  0
   19.0244   -9.3145   11.5169 H   0  0  0  0  0  0  0  0  0  0  0  0
   24.3794   -2.7657   11.8355 H   0  0  0  0  0  0  0  0  0  0  0  0
   23.3876    0.0702   14.6988 H   0  0  0  0  0  0  0  0  0  0  0  0
   19.2088   -3.3270   11.7863 H   0  0  0  0  0  0  0  0  0  0  0  0
   20.4358   -4.3961   11.6511 H   0  0  0  0  0  0  0  0  0  0  0  0
   18.5976   -4.3577   13.8947 H   0  0  0  0  0  0  0  0  0  0  0  0
   19.7635   -5.4759   13.6557 H   0  0  0  0  0  0  0  0  0  0  0  0
   14.6818   -7.8414   10.1407 H   0  0  0  0  0  0  0  0  0  0  0  0
   22.3997   -1.8990   14.7270 H   0  0  0  0  0  0  0  0  0  0  0  0
  1 19  2  0  0  0  0
  2 21  2  0  0  0  0
  3 20  1  0  0  0  0
  3 21  1  0  0  0  0
  4 19  1  0  0  0  0
  4 22  1  0  0  0  0
  5 20  2  0  0  0  0
  5 23  1  0  0  0  0
  6 12  1  0  0  0  0
  7  8  2  0  0  0  0
  7  9  1  0  0  0  0
  8 14  1  0  0  0  0
  9 15  2  0  0  0  0
 10 11  2  0  0  0  0
 10 13  1  0  0  0  0
 11 18  1  0  0  0  0
 12 22  1  0  0  0  0
 13 23  2  0  0  0  0
 14 24  2  0  0  0  0
 15 24  1  0  0  0  0
 16 17  1  0  0  0  0
 16 19  1  0  0  0  0
 17 20  1  0  0  0  0
 18 25  2  0  0  0  0
 21 25  1  0  0  0  0
 22 24  1  0  0  0  0
 23 25  1  0  0  0  0
  3 26  1  0  0  0  0
  4 27  1  0  0  0  0
  6 28  1  0  0  0  0
  6 29  1  0  0  0  0
  6 30  1  0  0  0  0
  7 31  1  0  0  0  0
  8 32  1  0  0  0  0
  9 33  1  0  0  0  0
 10 34  1  0  0  0  0
 11 35  1  0  0  0  0
 12 36  1  0  0  0  0
 12 37  1  0  0  0  0
 13 38  1  0  0  0  0
 14 39  1  0  0  0  0
 15 40  1  0  0  0  0
 16 41  1  0  0  0  0
 16 42  1  0  0  0  0
 17 43  1  0  0  0  0
 17 44  1  0  0  0  0
 18 45  1  0  0  0  0
 22 46  1  0  0  0  0
M  END
> <pdb_id>
4L70

> <uniprot_id>
Q9Y6F1

> <usmiles>
O=C1NC(=Nc2c1cccc2)CCC(=O)N[C@H](c3ccccc3)CC

$$$$
1VJ_A_502
          07202417423D 1   1.00000     0.00000     0
            
 34 35  0  0  0  0            999 V2000
   16.1383   26.6695    0.7254 O   0  0  0  0  0  0  0  0  0  0  0  0
   11.8133   25.4729   -0.4819 O   0  0  0  0  0  0  0  0  0  0  0  0
    7.9167   26.5124   -2.3668 O   0  0  0  0  0  0  0  0  0  0  0  0
   15.6830   27.2725    2.8593 O   0  0  0  0  0  0  0  0  0  0  0  0
   15.2172   29.0962   -0.2167 O   0  0  0  0  0  0  0  0  0  0  0  0
    9.6690   23.6752   -1.6241 N   0  0  0  0  0  0  0  0  0  0  0  0
    8.0049   25.1671   -2.2821 N   0  0  0  0  0  0  0  0  0  0  0  0
    9.0914   27.1357   -1.9677 N   0  0  0  0  0  0  0  0  0  0  0  0
   16.0153   25.9627    4.8689 C   0  0  0  0  0  0  0  0  0  0  0  0
   12.4541   29.6914   -2.5285 C   0  0  0  0  0  0  0  0  0  0  0  0
   13.6319   29.8573   -1.8197 C   0  0  0  0  0  0  0  0  0  0  0  0
   11.6772   28.5697   -2.3280 C   0  0  0  0  0  0  0  0  0  0  0  0
   13.2567   27.7787   -0.7099 C   0  0  0  0  0  0  0  0  0  0  0  0
   16.0546   25.9508    3.3459 C   0  0  0  0  0  0  0  0  0  0  0  0
   15.2007   28.8385    1.1907 C   0  0  0  0  0  0  0  0  0  0  0  0
   15.7293   27.4738    1.5284 C   0  0  0  0  0  0  0  0  0  0  0  0
   14.0241   28.8987   -0.9132 C   0  0  0  0  0  0  0  0  0  0  0  0
   11.2875   26.3627   -1.1429 C   0  0  0  0  0  0  0  0  0  0  0  0
    9.2055   24.9283   -1.8400 C   0  0  0  0  0  0  0  0  0  0  0  0
    9.8957   26.1634   -1.6398 C   0  0  0  0  0  0  0  0  0  0  0  0
   12.0710   27.6004   -1.4155 C   0  0  0  0  0  0  0  0  0  0  0  0
   10.5084   23.5573   -1.3784 H   0  0  0  0  0  0  0  0  0  0  0  0
    9.1384   22.9810   -1.7718 H   0  0  0  0  0  0  0  0  0  0  0  0
   16.8661   26.2957    5.2157 H   0  0  0  0  0  0  0  0  0  0  0  0
   15.8638   25.0558    5.1992 H   0  0  0  0  0  0  0  0  0  0  0  0
   15.2915   26.5441    5.1724 H   0  0  0  0  0  0  0  0  0  0  0  0
   12.1827   30.3454   -3.1483 H   0  0  0  0  0  0  0  0  0  0  0  0
   14.1658   30.6241   -1.9550 H   0  0  0  0  0  0  0  0  0  0  0  0
   10.8795   28.4599   -2.8106 H   0  0  0  0  0  0  0  0  0  0  0  0
   13.5333   27.1277   -0.0872 H   0  0  0  0  0  0  0  0  0  0  0  0
   16.9557   25.7244    3.0364 H   0  0  0  0  0  0  0  0  0  0  0  0
   15.4300   25.2803    2.9989 H   0  0  0  0  0  0  0  0  0  0  0  0
   15.7450   29.5141    1.6473 H   0  0  0  0  0  0  0  0  0  0  0  0
   14.2833   28.9175    1.5225 H   0  0  0  0  0  0  0  0  0  0  0  0
  1 16  2  0  0  0  0
  2 18  2  0  0  0  0
  3  7  1  0  0  0  0
  3  8  1  0  0  0  0
  4 14  1  0  0  0  0
  4 16  1  0  0  0  0
  5 15  1  0  0  0  0
  5 17  1  0  0  0  0
  6 19  1  0  0  0  0
  6 22  1  0  0  0  0
  6 23  1  0  0  0  0
  7 19  2  0  0  0  0
  8 20  2  0  0  0  0
  9 14  1  0  0  0  0
  9 24  1  0  0  0  0
  9 25  1  0  0  0  0
  9 26  1  0  0  0  0
 10 11  2  0  0  0  0
 10 12  1  0  0  0  0
 10 27  1  0  0  0  0
 11 17  1  0  0  0  0
 11 28  1  0  0  0  0
 12 21  2  0  0  0  0
 12 29  1  0  0  0  0
 13 17  2  0  0  0  0
 13 21  1  0  0  0  0
 13 30  1  0  0  0  0
 14 31  1  0  0  0  0
 14 32  1  0  0  0  0
 15 16  1  0  0  0  0
 15 33  1  0  0  0  0
 15 34  1  0  0  0  0
 18 20  1  0  0  0  0
 18 21  1  0  0  0  0
 19 20  1  0  0  0  0
M  END
> <pdb_id>
4OYB

> <uniprot_id>
Q96PN6

> <usmiles>
O=C(OCC)COc1cc(ccc1)C(=O)C2=NON=C2N

$$$$
1VK_A_501
          07202417423D 1   1.00000     0.00000     0
            
 21 22  0  0  0  0            999 V2000
   11.8482   25.3759   -0.6917 O   0  0  0  0  0  0  0  0  0  0  0  0
    7.8878   26.4857   -2.3345 O   0  0  0  0  0  0  0  0  0  0  0  0
    9.7443   23.6543   -1.7050 N   0  0  0  0  0  0  0  0  0  0  0  0
    8.0040   25.1134   -2.2729 N   0  0  0  0  0  0  0  0  0  0  0  0
    9.0658   27.1128   -1.9786 N   0  0  0  0  0  0  0  0  0  0  0  0
   13.6240   29.8584   -1.8212 C   0  0  0  0  0  0  0  0  0  0  0  0
   14.0691   28.8419   -1.0041 C   0  0  0  0  0  0  0  0  0  0  0  0
   12.4158   29.7417   -2.4736 C   0  0  0  0  0  0  0  0  0  0  0  0
   13.3069   27.7070   -0.8382 C   0  0  0  0  0  0  0  0  0  0  0  0
   11.6442   28.6049   -2.3116 C   0  0  0  0  0  0  0  0  0  0  0  0
   11.3057   26.3168   -1.2659 C   0  0  0  0  0  0  0  0  0  0  0  0
    9.2278   24.8952   -1.8882 C   0  0  0  0  0  0  0  0  0  0  0  0
    9.8950   26.1447   -1.7035 C   0  0  0  0  0  0  0  0  0  0  0  0
   12.0833   27.5747   -1.4913 C   0  0  0  0  0  0  0  0  0  0  0  0
   10.5861   23.5622   -1.4568 H   0  0  0  0  0  0  0  0  0  0  0  0
    9.2307   22.9452   -1.8375 H   0  0  0  0  0  0  0  0  0  0  0  0
   14.1485   30.6354   -1.9341 H   0  0  0  0  0  0  0  0  0  0  0  0
   14.8987   28.9241   -0.5580 H   0  0  0  0  0  0  0  0  0  0  0  0
   12.1141   30.4385   -3.0316 H   0  0  0  0  0  0  0  0  0  0  0  0
   13.6152   27.0128   -0.2773 H   0  0  0  0  0  0  0  0  0  0  0  0
   10.8218   28.5303   -2.7578 H   0  0  0  0  0  0  0  0  0  0  0  0
  1 11  2  0  0  0  0
  2  4  1  0  0  0  0
  2  5  1  0  0  0  0
  3 12  1  0  0  0  0
  3 15  1  0  0  0  0
  3 16  1  0  0  0  0
  4 12  2  0  0  0  0
  5 13  2  0  0  0  0
  6  7  2  0  0  0  0
  6  8  1  0  0  0  0
  6 17  1  0  0  0  0
  7  9  1  0  0  0  0
  7 18  1  0  0  0  0
  8 10  2  0  0  0  0
  8 19  1  0  0  0  0
  9 14  2  0  0  0  0
  9 20  1  0  0  0  0
 10 14  1  0  0  0  0
 10 21  1  0  0  0  0
 11 13  1  0  0  0  0
 11 14  1  0  0  0  0
 12 13  1  0  0  0  0
M  END
> <pdb_id>
4OYI

> <uniprot_id>
Q96PN6

> <usmiles>
O=C(c1ccccc1)C2=NON=C2N

$$$$
1VM_X_202
          07202402293D 1   1.00000     0.00000     0
            
 45 49  0  0  0  0            999 V2000
   -3.0547   34.7206   -9.1866 S   0  0  0  0  0  0  0  0  0  0  0  0
   -6.9430   26.5436   -4.4824 N   0  0  0  0  0  0  0  0  0  0  0  0
   -2.8802   28.4024   -3.0338 N   0  0  0  0  0  0  0  0  0  0  0  0
   -3.2684   32.4177   -8.0749 N   0  0  0  0  0  0  0  0  0  0  0  0
   -4.9266   27.5110   -3.7746 N   0  0  0  0  0  0  0  0  0  0  0  0
   -6.4603   28.7567   -5.0990 N   0  0  0  0  0  0  0  0  0  0  0  0
   -5.6211   35.2395   -7.5038 N   0  0  0  0  0  0  0  0  0  0  0  0
   -5.5590   33.3679   -6.2833 N   0  0  0  0  0  0  0  0  0  0  0  0
   -9.5263   37.1829   -5.0004 C   0  0  0  0  0  0  0  0  0  0  0  0
   -9.4239   34.6554   -3.3007 C   0  0  0  0  0  0  0  0  0  0  0  0
   -1.9060   33.5171   -9.6592 C   0  0  0  0  0  0  0  0  0  0  0  0
   -2.2073   32.3541   -8.9449 C   0  0  0  0  0  0  0  0  0  0  0  0
   -3.9983   32.0842   -5.0228 C   0  0  0  0  0  0  0  0  0  0  0  0
   -3.5686   30.9296   -4.3585 C   0  0  0  0  0  0  0  0  0  0  0  0
   -6.0417   31.0587   -5.7296 C   0  0  0  0  0  0  0  0  0  0  0  0
   -7.5808   36.2957   -6.3041 C   0  0  0  0  0  0  0  0  0  0  0  0
   -7.4734   33.8922   -4.6935 C   0  0  0  0  0  0  0  0  0  0  0  0
   -6.0976   27.6131   -4.4567 C   0  0  0  0  0  0  0  0  0  0  0  0
   -3.8431   33.6334   -8.1053 C   0  0  0  0  0  0  0  0  0  0  0  0
   -4.0432   28.5345   -3.6989 C   0  0  0  0  0  0  0  0  0  0  0  0
   -5.0024   34.0579   -7.2774 C   0  0  0  0  0  0  0  0  0  0  0  0
   -6.6142   35.3252   -6.5728 C   0  0  0  0  0  0  0  0  0  0  0  0
   -5.6810   29.8701   -5.0873 C   0  0  0  0  0  0  0  0  0  0  0  0
   -5.2063   32.1962   -5.7259 C   0  0  0  0  0  0  0  0  0  0  0  0
   -6.5595   34.0834   -5.7395 C   0  0  0  0  0  0  0  0  0  0  0  0
   -8.4937   36.1114   -5.2611 C   0  0  0  0  0  0  0  0  0  0  0  0
   -8.4400   34.8677   -4.4308 C   0  0  0  0  0  0  0  0  0  0  0  0
   -4.3910   29.8131   -4.3752 C   0  0  0  0  0  0  0  0  0  0  0  0
   -7.8086   26.6023   -4.9797 H   0  0  0  0  0  0  0  0  0  0  0  0
   -6.6974   25.7005   -4.0040 H   0  0  0  0  0  0  0  0  0  0  0  0
   -2.2401   29.1694   -2.9886 H   0  0  0  0  0  0  0  0  0  0  0  0
   -2.6563   27.5372   -2.5850 H   0  0  0  0  0  0  0  0  0  0  0  0
  -10.1024   36.9102   -4.2299 H   0  0  0  0  0  0  0  0  0  0  0  0
   -9.0660   38.0439   -4.7842 H   0  0  0  0  0  0  0  0  0  0  0  0
  -10.0941   37.3038   -5.8147 H   0  0  0  0  0  0  0  0  0  0  0  0
  -10.0429   35.4389   -3.2461 H   0  0  0  0  0  0  0  0  0  0  0  0
   -9.9528   33.8240   -3.4710 H   0  0  0  0  0  0  0  0  0  0  0  0
   -8.9262   34.5631   -2.4383 H   0  0  0  0  0  0  0  0  0  0  0  0
   -1.1645   33.6319  -10.3202 H   0  0  0  0  0  0  0  0  0  0  0  0
   -1.6755   31.5153   -9.0616 H   0  0  0  0  0  0  0  0  0  0  0  0
   -3.4014   32.8860   -4.9941 H   0  0  0  0  0  0  0  0  0  0  0  0
   -2.6892   30.9103   -3.8829 H   0  0  0  0  0  0  0  0  0  0  0  0
   -6.9193   31.1042   -6.2067 H   0  0  0  0  0  0  0  0  0  0  0  0
   -7.6205   37.1261   -6.8598 H   0  0  0  0  0  0  0  0  0  0  0  0
   -7.4340   33.0617   -4.1378 H   0  0  0  0  0  0  0  0  0  0  0  0
  1 11  1  0  0  0  0
  1 19  1  0  0  0  0
  2 18  1  0  0  0  0
  3 20  1  0  0  0  0
  4 12  1  0  0  0  0
  4 19  2  0  0  0  0
  5 18  2  0  0  0  0
  5 20  1  0  0  0  0
  6 18  1  0  0  0  0
  6 23  2  0  0  0  0
  7 21  2  0  0  0  0
  7 22  1  0  0  0  0
  8 21  1  0  0  0  0
  8 24  1  0  0  0  0
  8 25  1  0  0  0  0
  9 26  1  0  0  0  0
 10 27  1  0  0  0  0
 11 12  2  0  0  0  0
 13 14  2  0  0  0  0
 13 24  1  0  0  0  0
 14 28  1  0  0  0  0
 15 23  1  0  0  0  0
 15 24  2  0  0  0  0
 16 22  2  0  0  0  0
 16 26  1  0  0  0  0
 17 25  2  0  0  0  0
 17 27  1  0  0  0  0
 19 21  1  0  0  0  0
 20 28  2  0  0  0  0
 22 25  1  0  0  0  0
 23 28  1  0  0  0  0
 26 27  2  0  0  0  0
  2 29  1  0  0  0  0
  2 30  1  0  0  0  0
  3 31  1  0  0  0  0
  3 32  1  0  0  0  0
  9 33  1  0  0  0  0
  9 34  1  0  0  0  0
  9 35  1  0  0  0  0
 10 36  1  0  0  0  0
 10 37  1  0  0  0  0
 10 38  1  0  0  0  0
 11 39  1  0  0  0  0
 12 40  1  0  0  0  0
 13 41  1  0  0  0  0
 14 42  1  0  0  0  0
 15 43  1  0  0  0  0
 16 44  1  0  0  0  0
 17 45  1  0  0  0  0
M  END
> <pdb_id>
4LAE

> <uniprot_id>
P0A017

> <usmiles>
S1C(=NC=C1)C2=Nc3c(N2c4cc5nc(nc(N)c5cc4)N)cc(c(c3)C)C

$$$$
1VN_X_202
          07202402293D 1   1.00000     0.00000     0
            
 45 49  0  0  0  0            999 V2000
   -2.8831   33.4501   -5.1371 Cl  0  0  0  0  0  0  0  0  0  0  0  0
   -3.0987   34.6478   -9.3414 S   0  0  0  0  0  0  0  0  0  0  0  0
   -6.9597   26.5569   -4.4489 N   0  0  0  0  0  0  0  0  0  0  0  0
   -2.8678   28.4251   -3.0678 N   0  0  0  0  0  0  0  0  0  0  0  0
   -3.3873   32.3322   -8.2609 N   0  0  0  0  0  0  0  0  0  0  0  0
   -4.9288   27.5199   -3.7641 N   0  0  0  0  0  0  0  0  0  0  0  0
   -6.4704   28.7289   -5.1224 N   0  0  0  0  0  0  0  0  0  0  0  0
   -5.7665   35.1383   -7.7589 N   0  0  0  0  0  0  0  0  0  0  0  0
   -5.6465   33.2943   -6.4788 N   0  0  0  0  0  0  0  0  0  0  0  0
   -9.7040   37.0603   -5.2410 C   0  0  0  0  0  0  0  0  0  0  0  0
   -9.5204   34.6227   -3.4935 C   0  0  0  0  0  0  0  0  0  0  0  0
   -1.9458   33.4293   -9.7808 C   0  0  0  0  0  0  0  0  0  0  0  0
   -2.2893   32.2650   -9.0855 C   0  0  0  0  0  0  0  0  0  0  0  0
   -3.5553   30.9067   -4.4399 C   0  0  0  0  0  0  0  0  0  0  0  0
   -6.0733   30.9894   -5.8270 C   0  0  0  0  0  0  0  0  0  0  0  0
   -7.7442   36.1913   -6.5701 C   0  0  0  0  0  0  0  0  0  0  0  0
   -7.5615   33.8423   -4.8872 C   0  0  0  0  0  0  0  0  0  0  0  0
   -6.1020   27.6116   -4.4421 C   0  0  0  0  0  0  0  0  0  0  0  0
   -3.9539   33.5471   -8.3148 C   0  0  0  0  0  0  0  0  0  0  0  0
   -3.9777   32.0376   -5.1355 C   0  0  0  0  0  0  0  0  0  0  0  0
   -4.0372   28.5360   -3.7199 C   0  0  0  0  0  0  0  0  0  0  0  0
   -5.1249   33.9690   -7.5080 C   0  0  0  0  0  0  0  0  0  0  0  0
   -6.7570   35.2286   -6.8240 C   0  0  0  0  0  0  0  0  0  0  0  0
   -5.6818   29.8333   -5.1403 C   0  0  0  0  0  0  0  0  0  0  0  0
   -5.2646   32.1396   -5.8821 C   0  0  0  0  0  0  0  0  0  0  0  0
   -6.6562   34.0158   -5.9493 C   0  0  0  0  0  0  0  0  0  0  0  0
   -8.6435   36.0187   -5.5090 C   0  0  0  0  0  0  0  0  0  0  0  0
   -8.5477   34.8099   -4.6383 C   0  0  0  0  0  0  0  0  0  0  0  0
   -4.3899   29.7921   -4.4321 C   0  0  0  0  0  0  0  0  0  0  0  0
   -7.8248   26.6192   -4.9465 H   0  0  0  0  0  0  0  0  0  0  0  0
   -6.7254   25.7188   -3.9562 H   0  0  0  0  0  0  0  0  0  0  0  0
   -2.2287   29.1941   -3.0529 H   0  0  0  0  0  0  0  0  0  0  0  0
   -2.6365   27.5735   -2.5973 H   0  0  0  0  0  0  0  0  0  0  0  0
  -10.2544   36.7808   -4.4542 H   0  0  0  0  0  0  0  0  0  0  0  0
   -9.2671   37.9386   -5.0469 H   0  0  0  0  0  0  0  0  0  0  0  0
  -10.2927   37.1511   -6.0442 H   0  0  0  0  0  0  0  0  0  0  0  0
  -10.1495   35.3993   -3.4602 H   0  0  0  0  0  0  0  0  0  0  0  0
  -10.0392   33.7791   -3.6315 H   0  0  0  0  0  0  0  0  0  0  0  0
   -9.0149   34.5661   -2.6325 H   0  0  0  0  0  0  0  0  0  0  0  0
   -1.1788   33.5385  -10.4131 H   0  0  0  0  0  0  0  0  0  0  0  0
   -1.7603   31.4221   -9.1837 H   0  0  0  0  0  0  0  0  0  0  0  0
   -2.6781   30.8957   -3.9600 H   0  0  0  0  0  0  0  0  0  0  0  0
   -6.9575   30.9978   -6.2940 H   0  0  0  0  0  0  0  0  0  0  0  0
   -7.8069   37.0046   -7.1486 H   0  0  0  0  0  0  0  0  0  0  0  0
   -7.5028   33.0287   -4.3087 H   0  0  0  0  0  0  0  0  0  0  0  0
  1 20  1  0  0  0  0
  2 12  1  0  0  0  0
  2 19  1  0  0  0  0
  3 18  1  0  0  0  0
  4 21  1  0  0  0  0
  5 13  1  0  0  0  0
  5 19  2  0  0  0  0
  6 18  2  0  0  0  0
  6 21  1  0  0  0  0
  7 18  1  0  0  0  0
  7 24  2  0  0  0  0
  8 22  2  0  0  0  0
  8 23  1  0  0  0  0
  9 22  1  0  0  0  0
  9 25  1  0  0  0  0
  9 26  1  0  0  0  0
 10 27  1  0  0  0  0
 11 28  1  0  0  0  0
 12 13  2  0  0  0  0
 14 20  2  0  0  0  0
 14 29  1  0  0  0  0
 15 24  1  0  0  0  0
 15 25  2  0  0  0  0
 16 23  2  0  0  0  0
 16 27  1  0  0  0  0
 17 26  2  0  0  0  0
 17 28  1  0  0  0  0
 19 22  1  0  0  0  0
 20 25  1  0  0  0  0
 21 29  2  0  0  0  0
 23 26  1  0  0  0  0
 24 29  1  0  0  0  0
 27 28  2  0  0  0  0
  3 30  1  0  0  0  0
  3 31  1  0  0  0  0
  4 32  1  0  0  0  0
  4 33  1  0  0  0  0
 10 34  1  0  0  0  0
 10 35  1  0  0  0  0
 10 36  1  0  0  0  0
 11 37  1  0  0  0  0
 11 38  1  0  0  0  0
 11 39  1  0  0  0  0
 12 40  1  0  0  0  0
 13 41  1  0  0  0  0
 14 42  1  0  0  0  0
 15 43  1  0  0  0  0
 16 44  1  0  0  0  0
 17 45  1  0  0  0  0
M  END
> <pdb_id>
4LAG

> <uniprot_id>
P0A017

> <usmiles>
Clc1c(N2c3c(N=C2C=4SC=CN4)cc(c(c3)C)C)cc5nc(nc(N)c5c1)N

$$$$
1VQ_A_302
          07192416293D 1   1.00000     0.00000     0
            
 26 26  0  0  0  0            999 V2000
   -5.7502    1.0280   16.7194 S   0  0  0  0  0  0  0  0  0  0  0  0
   -5.0172    1.3912   17.8913 O   0  0  0  0  0  0  0  0  0  0  0  0
   -7.1780    1.1300   16.7247 O   0  0  0  0  0  0  0  0  0  0  0  0
   -7.4185    5.0902   13.2366 O   0  5  0  0  0  0  0  0  0  0  0  0
   -6.6577    3.0957   12.9120 O   0  0  0  0  0  0  0  0  0  0  0  0
   -5.2414    1.9952   15.5915 O   0  0  0  0  0  0  0  0  0  0  0  0
   -5.3383   -0.4627   16.3259 N   0  0  0  0  0  0  0  0  0  0  0  0
   -3.5274    6.0570   14.1260 N   0  0  0  0  0  0  0  0  0  0  0  0
   -6.5092    4.2594   13.2762 N   0  3  0  0  0  0  0  0  0  0  0  0
   -4.0948    3.9393   13.7807 N   0  0  0  0  0  0  0  0  0  0  0  0
   -1.6967    4.4252   14.3253 C   0  0  0  0  0  0  0  0  0  0  0  0
   -3.9470    1.7627   14.9612 C   0  0  0  0  0  0  0  0  0  0  0  0
   -3.9598    2.4820   13.6553 C   0  0  0  0  0  0  0  0  0  0  0  0
   -4.8545    6.0148   13.8783 C   0  0  0  0  0  0  0  0  0  0  0  0
   -3.0899    4.8142   14.0587 C   0  0  0  0  0  0  0  0  0  0  0  0
   -5.2292    4.7166   13.6541 C   0  0  0  0  0  0  0  0  0  0  0  0
   -5.8389   -0.7416   15.5064 H   0  0  0  0  0  0  0  0  0  0  0  0
   -4.3555   -0.5003   16.1451 H   0  0  0  0  0  0  0  0  0  0  0  0
   -1.5996    3.4362   14.2142 H   0  0  0  0  0  0  0  0  0  0  0  0
   -1.0909    4.8939   13.6824 H   0  0  0  0  0  0  0  0  0  0  0  0
   -1.4523    4.6812   15.2606 H   0  0  0  0  0  0  0  0  0  0  0  0
   -3.8090    0.7836   14.8121 H   0  0  0  0  0  0  0  0  0  0  0  0
   -3.2142    2.1181   15.5414 H   0  0  0  0  0  0  0  0  0  0  0  0
   -3.1031    2.2849   13.1787 H   0  0  0  0  0  0  0  0  0  0  0  0
   -4.7284    2.1399   13.1147 H   0  0  0  0  0  0  0  0  0  0  0  0
   -5.4662    6.8057   13.8613 H   0  0  0  0  0  0  0  0  0  0  0  0
  1  2  2  0  0  0  0
  1  3  2  0  0  0  0
  1  6  1  0  0  0  0
  1  7  1  0  0  0  0
  4  9  1  0  0  0  0
  5  9  2  0  0  0  0
  6 12  1  0  0  0  0
  8 14  1  0  0  0  0
  8 15  2  0  0  0  0
  9 16  1  0  0  0  0
 10 13  1  0  0  0  0
 10 15  1  0  0  0  0
 10 16  1  0  0  0  0
 11 15  1  0  0  0  0
 12 13  1  0  0  0  0
 14 16  2  0  0  0  0
  7 17  1  0  0  0  0
  7 18  1  0  0  0  0
 11 19  1  0  0  0  0
 11 20  1  0  0  0  0
 11 21  1  0  0  0  0
 12 22  1  0  0  0  0
 12 23  1  0  0  0  0
 13 24  1  0  0  0  0
 13 25  1  0  0  0  0
 14 26  1  0  0  0  0
M  CHG  2   4  -1   9   1
M  END
> <pdb_id>
5O07

> <uniprot_id>
P00918

> <usmiles>
S(=O)(=O)(OCCN1C([N+]([O-])=O)=CN=C1C)N

$$$$
1WD_A_706
          07212403223D 1   1.00000     0.00000     0
            
 15 15  0  0  0  0            999 V2000
    2.7146   -4.8633    8.5132 S   0  0  0  0  0  0  0  0  0  0  0  0
    1.1312   -1.0472   10.5600 O   0  0  0  0  0  0  0  0  0  0  0  0
    2.9412   -2.5505   10.4344 O   0  0  0  0  0  0  0  0  0  0  0  0
   -0.4924   -3.0132    9.9899 N   0  0  0  0  0  0  0  0  0  0  0  0
   -1.5014   -3.8251    9.7469 C   0  0  0  0  0  0  0  0  0  0  0  0
   -1.1947   -5.0485    9.1717 C   0  0  0  0  0  0  0  0  0  0  0  0
    0.1177   -5.3447    8.8330 C   0  0  0  0  0  0  0  0  0  0  0  0
    1.7061   -2.1559   10.1950 C   0  0  0  0  0  0  0  0  0  0  0  0
    1.1158   -4.4371    9.0955 C   0  0  0  0  0  0  0  0  0  0  0  0
    0.7800   -3.2415    9.7198 C   0  0  0  0  0  0  0  0  0  0  0  0
    3.4853   -4.2460    8.6713 H   0  0  0  0  0  0  0  0  0  0  0  0
    0.1792   -0.8716   10.3094 H   0  0  0  0  0  0  0  0  0  0  0  0
   -2.4432   -3.5710    9.9670 H   0  0  0  0  0  0  0  0  0  0  0  0
   -1.9187   -5.7168    9.0009 H   0  0  0  0  0  0  0  0  0  0  0  0
    0.3373   -6.2181    8.3982 H   0  0  0  0  0  0  0  0  0  0  0  0
  1  9  1  0  0  0  0
  2  8  1  0  0  0  0
  3  8  2  0  0  0  0
  4  5  1  0  0  0  0
  4 10  2  0  0  0  0
  5  6  2  0  0  0  0
  6  7  1  0  0  0  0
  7  9  2  0  0  0  0
  8 10  1  0  0  0  0
  9 10  1  0  0  0  0
  1 11  1  0  0  0  0
  2 12  1  0  0  0  0
  5 13  1  0  0  0  0
  6 14  1  0  0  0  0
  7 15  1  0  0  0  0
M  END
> <pdb_id>
4YW9

> <uniprot_id>
P07379

> <usmiles>
Sc1c(nccc1)C(=O)O

$$$$
1WJ_A_401
          07202407253D 1   1.00000     0.00000     0
            
 53 56  0  0  0  0            999 V2000
  103.4372   16.8542   23.9882 O   0  0  0  0  0  0  0  0  0  0  0  0
   97.2101   13.1162   17.9219 O   0  0  0  0  0  0  0  0  0  0  0  0
   95.9519   16.7611   16.1989 O   0  0  0  0  0  0  0  0  0  0  0  0
   94.5089   14.0583   18.1354 O   0  0  0  0  0  0  0  0  0  0  0  0
   96.0875   16.4770   18.4983 O   0  0  0  0  0  0  0  0  0  0  0  0
   99.2206   15.3084   24.7082 N   0  0  0  0  0  0  0  0  0  0  0  0
  103.2011   17.0996   16.3700 N   0  0  0  0  0  0  0  0  0  0  0  0
  101.3445   16.1226   24.3086 N   0  0  0  0  0  0  0  0  0  0  0  0
  103.5742   17.0300   18.7201 N   0  0  0  0  0  0  0  0  0  0  0  0
   99.9569   15.4583   22.5302 N   0  0  0  0  0  0  0  0  0  0  0  0
  101.6366   16.2574   17.9824 N   0  0  0  0  0  0  0  0  0  0  0  0
   95.9357   18.1900   16.2264 C   0  0  0  0  0  0  0  0  0  0  0  0
   94.0832   12.7312   17.8404 C   0  0  0  0  0  0  0  0  0  0  0  0
  102.2062   17.2320   15.3039 C   0  0  0  0  0  0  0  0  0  0  0  0
   98.3183   16.0405   19.1440 C   0  0  0  0  0  0  0  0  0  0  0  0
   99.3322   15.0922   19.6173 C   0  0  0  0  0  0  0  0  0  0  0  0
  103.1666   16.7180   21.2028 C   0  0  0  0  0  0  0  0  0  0  0  0
   95.3431   16.1403   17.3162 C   0  0  2  0  0  0  0  0  0  0  0  0
  102.4164   16.4648   23.5296 C   0  0  0  0  0  0  0  0  0  0  0  0
  100.1809   15.6335   23.8303 C   0  0  0  0  0  0  0  0  0  0  0  0
  102.7799   16.7734   17.6371 C   0  0  0  0  0  0  0  0  0  0  0  0
   96.9047   14.4540   17.6349 C   0  0  2  0  0  0  0  0  0  0  0  0
   96.9906   15.3969   18.8142 C   0  0  2  0  0  0  0  0  0  0  0  0
   95.4364   14.6287   17.2123 C   0  0  1  0  0  0  0  0  0  0  0  0
  102.8729   16.6435   19.8502 C   0  0  0  0  0  0  0  0  0  0  0  0
  101.6653   16.1550   19.3573 C   0  0  0  0  0  0  0  0  0  0  0  0
  100.9192   15.8186   21.5991 C   0  0  0  0  0  0  0  0  0  0  0  0
  102.1508   16.3347   22.0596 C   0  0  0  0  0  0  0  0  0  0  0  0
  100.6289   15.6791   20.2001 C   0  0  0  0  0  0  0  0  0  0  0  0
   97.1277   12.5693   17.0888 H   0  0  0  0  0  0  0  0  0  0  0  0
   98.3482   14.9437   24.3826 H   0  0  0  0  0  0  0  0  0  0  0  0
   99.3769   15.4306   25.6883 H   0  0  0  0  0  0  0  0  0  0  0  0
  104.1720   17.2444   16.1792 H   0  0  0  0  0  0  0  0  0  0  0  0
  101.4289   16.2429   25.2977 H   0  0  0  0  0  0  0  0  0  0  0  0
  104.4930   17.4243   18.6999 H   0  0  0  0  0  0  0  0  0  0  0  0
   96.3832   18.5443   15.4053 H   0  0  0  0  0  0  0  0  0  0  0  0
   94.9894   18.5121   16.2557 H   0  0  0  0  0  0  0  0  0  0  0  0
   96.4231   18.5133   17.0376 H   0  0  0  0  0  0  0  0  0  0  0  0
   93.4393   12.4241   18.5412 H   0  0  0  0  0  0  0  0  0  0  0  0
   93.6354   12.7158   16.9464 H   0  0  0  0  0  0  0  0  0  0  0  0
   94.8763   12.1222   17.8265 H   0  0  0  0  0  0  0  0  0  0  0  0
  102.6647   17.4708   14.4478 H   0  0  0  0  0  0  0  0  0  0  0  0
  101.7207   16.3650   15.1914 H   0  0  0  0  0  0  0  0  0  0  0  0
  101.5537   17.9507   15.5442 H   0  0  0  0  0  0  0  0  0  0  0  0
   98.6653   16.4884   18.3200 H   0  0  0  0  0  0  0  0  0  0  0  0
   98.1687   16.7249   19.8576 H   0  0  0  0  0  0  0  0  0  0  0  0
   99.5861   14.5125   18.8430 H   0  0  0  0  0  0  0  0  0  0  0  0
   98.9097   14.5312   20.3292 H   0  0  0  0  0  0  0  0  0  0  0  0
  104.0560   17.0290   21.5377 H   0  0  0  0  0  0  0  0  0  0  0  0
   94.3900   16.4298   17.4049 H   0  0  0  0  0  0  0  0  0  0  0  0
   97.5023   14.7817   16.9031 H   0  0  0  0  0  0  0  0  0  0  0  0
   96.6527   14.9241   19.6279 H   0  0  0  0  0  0  0  0  0  0  0  0
   95.2769   14.3089   16.2784 H   0  0  0  0  0  0  0  0  0  0  0  0
  1 19  2  0  0  0  0
  2 22  1  0  0  0  0
  3 12  1  0  0  0  0
  3 18  1  0  0  0  0
  4 13  1  0  0  0  0
  4 24  1  0  0  0  0
  5 18  1  0  0  0  0
  5 23  1  0  0  0  0
  6 20  1  0  0  0  0
  7 14  1  0  0  0  0
  7 21  1  0  0  0  0
  8 19  1  0  0  0  0
  8 20  1  0  0  0  0
  9 21  1  0  0  0  0
  9 25  1  0  0  0  0
 10 20  2  0  0  0  0
 10 27  1  0  0  0  0
 11 21  2  0  0  0  0
 11 26  1  0  0  0  0
 15 16  1  0  0  0  0
 15 23  1  0  0  0  0
 16 29  1  0  0  0  0
 17 25  2  0  0  0  0
 17 28  1  0  0  0  0
 18 24  1  0  0  0  0
 19 28  1  0  0  0  0
 22 23  1  0  0  0  0
 22 24  1  0  0  0  0
 25 26  1  0  0  0  0
 26 29  2  0  0  0  0
 27 28  2  0  0  0  0
 27 29  1  0  0  0  0
  2 30  1  0  0  0  0
  6 31  1  0  0  0  0
  6 32  1  0  0  0  0
  7 33  1  0  0  0  0
  8 34  1  0  0  0  0
  9 35  1  0  0  0  0
 12 36  1  0  0  0  0
 12 37  1  0  0  0  0
 12 38  1  0  0  0  0
 13 39  1  0  0  0  0
 13 40  1  0  0  0  0
 13 41  1  0  0  0  0
 14 42  1  0  0  0  0
 14 43  1  0  0  0  0
 14 44  1  0  0  0  0
 15 45  1  0  0  0  0
 15 46  1  0  0  0  0
 16 47  1  0  0  0  0
 16 48  1  0  0  0  0
 17 49  1  0  0  0  0
 18 50  1  0  0  0  0
 22 51  1  0  0  0  0
 23 52  1  0  0  0  0
 24 53  1  0  0  0  0
M  END
> <pdb_id>
4LBU

> <uniprot_id>
P28720

> <usmiles>
O=C1NC(=Nc2c1cc3NC(=Nc3c2CC[C@H]4O[C@@H](OC)[C@H](OC)[C@@H]4O)NC)N

$$$$
1WK_A_401
          07202407253D 1   1.00000     0.00000     0
            
 50 53  0  0  0  0            999 V2000
  103.4679   16.8799   23.9566 O   0  0  0  0  0  0  0  0  0  0  0  0
   94.6832   14.3488   17.5233 O   0  0  0  0  0  0  0  0  0  0  0  0
   97.1532   13.3541   17.7533 O   0  0  0  0  0  0  0  0  0  0  0  0
   96.4977   17.2986   16.2523 O   0  0  0  0  0  0  0  0  0  0  0  0
   96.1447   16.7098   18.4655 O   0  0  0  0  0  0  0  0  0  0  0  0
   99.2359   15.2768   24.7080 N   0  0  0  0  0  0  0  0  0  0  0  0
  103.2827   16.9780   16.3597 N   0  0  0  0  0  0  0  0  0  0  0  0
  101.3643   16.0963   24.2862 N   0  0  0  0  0  0  0  0  0  0  0  0
   99.9413   15.5150   22.5329 N   0  0  0  0  0  0  0  0  0  0  0  0
  103.6365   17.0400   18.7012 N   0  0  0  0  0  0  0  0  0  0  0  0
  101.6887   16.2752   17.9742 N   0  0  0  0  0  0  0  0  0  0  0  0
   96.4405   18.7159   16.4540 C   0  0  0  0  0  0  0  0  0  0  0  0
  102.3173   17.1658   15.2963 C   0  0  0  0  0  0  0  0  0  0  0  0
   98.3540   16.2460   19.0950 C   0  0  0  0  0  0  0  0  0  0  0  0
   99.3114   15.2444   19.6758 C   0  0  0  0  0  0  0  0  0  0  0  0
  103.1550   16.7902   21.1273 C   0  0  0  0  0  0  0  0  0  0  0  0
   95.6237   16.5858   17.1406 C   0  0  2  0  0  0  0  0  0  0  0  0
  102.4061   16.4874   23.4843 C   0  0  0  0  0  0  0  0  0  0  0  0
  100.1750   15.6186   23.8005 C   0  0  0  0  0  0  0  0  0  0  0  0
  102.9218   16.7714   17.6330 C   0  0  0  0  0  0  0  0  0  0  0  0
   95.7032   15.0788   16.8708 C   0  0  1  0  0  0  0  0  0  0  0  0
   97.0769   14.7615   17.4457 C   0  0  1  0  0  0  0  0  0  0  0  0
   97.0253   15.5933   18.7321 C   0  0  2  0  0  0  0  0  0  0  0  0
  102.8620   16.6889   19.7689 C   0  0  0  0  0  0  0  0  0  0  0  0
  101.6309   16.2071   19.3423 C   0  0  0  0  0  0  0  0  0  0  0  0
  100.9175   15.9012   21.5971 C   0  0  0  0  0  0  0  0  0  0  0  0
  102.1627   16.3968   22.0299 C   0  0  0  0  0  0  0  0  0  0  0  0
  100.6134   15.8046   20.2059 C   0  0  0  0  0  0  0  0  0  0  0  0
   94.7829   13.3762   17.3133 H   0  0  0  0  0  0  0  0  0  0  0  0
   98.0549   13.1439   18.1310 H   0  0  0  0  0  0  0  0  0  0  0  0
   98.3515   14.9231   24.4035 H   0  0  0  0  0  0  0  0  0  0  0  0
   99.4247   15.3772   25.6849 H   0  0  0  0  0  0  0  0  0  0  0  0
  104.2566   17.0036   16.1344 H   0  0  0  0  0  0  0  0  0  0  0  0
  101.4786   16.1632   25.2774 H   0  0  0  0  0  0  0  0  0  0  0  0
  104.5597   17.4234   18.7272 H   0  0  0  0  0  0  0  0  0  0  0  0
   97.0631   19.1688   15.8158 H   0  0  0  0  0  0  0  0  0  0  0  0
   95.5074   19.0380   16.2945 H   0  0  0  0  0  0  0  0  0  0  0  0
   96.7113   18.9302   17.3925 H   0  0  0  0  0  0  0  0  0  0  0  0
  102.7979   17.3034   14.4302 H   0  0  0  0  0  0  0  0  0  0  0  0
  101.7340   16.3563   15.2288 H   0  0  0  0  0  0  0  0  0  0  0  0
  101.7534   17.9672   15.4956 H   0  0  0  0  0  0  0  0  0  0  0  0
   98.7579   16.6433   18.2710 H   0  0  0  0  0  0  0  0  0  0  0  0
   98.1898   16.9680   19.7672 H   0  0  0  0  0  0  0  0  0  0  0  0
   99.5319   14.5810   18.9608 H   0  0  0  0  0  0  0  0  0  0  0  0
   98.8481   14.7797   20.4304 H   0  0  0  0  0  0  0  0  0  0  0  0
  104.0402   17.1310   21.4440 H   0  0  0  0  0  0  0  0  0  0  0  0
   94.6838   16.9219   17.0812 H   0  0  0  0  0  0  0  0  0  0  0  0
   95.6864   14.8990   15.8873 H   0  0  0  0  0  0  0  0  0  0  0  0
   97.8154   15.0541   16.8383 H   0  0  0  0  0  0  0  0  0  0  0  0
   96.6807   15.0452   19.4942 H   0  0  0  0  0  0  0  0  0  0  0  0
  1 18  2  0  0  0  0
  2 21  1  0  0  0  0
  3 22  1  0  0  0  0
  4 12  1  0  0  0  0
  4 17  1  0  0  0  0
  5 17  1  0  0  0  0
  5 23  1  0  0  0  0
  6 19  1  0  0  0  0
  7 13  1  0  0  0  0
  7 20  1  0  0  0  0
  8 18  1  0  0  0  0
  8 19  1  0  0  0  0
  9 19  2  0  0  0  0
  9 26  1  0  0  0  0
 10 20  1  0  0  0  0
 10 24  1  0  0  0  0
 11 20  2  0  0  0  0
 11 25  1  0  0  0  0
 14 15  1  0  0  0  0
 14 23  1  0  0  0  0
 15 28  1  0  0  0  0
 16 24  2  0  0  0  0
 16 27  1  0  0  0  0
 17 21  1  0  0  0  0
 18 27  1  0  0  0  0
 21 22  1  0  0  0  0
 22 23  1  0  0  0  0
 24 25  1  0  0  0  0
 25 28  2  0  0  0  0
 26 27  2  0  0  0  0
 26 28  1  0  0  0  0
  2 29  1  0  0  0  0
  3 30  1  0  0  0  0
  6 31  1  0  0  0  0
  6 32  1  0  0  0  0
  7 33  1  0  0  0  0
  8 34  1  0  0  0  0
 10 35  1  0  0  0  0
 12 36  1  0  0  0  0
 12 37  1  0  0  0  0
 12 38  1  0  0  0  0
 13 39  1  0  0  0  0
 13 40  1  0  0  0  0
 13 41  1  0  0  0  0
 14 42  1  0  0  0  0
 14 43  1  0  0  0  0
 15 44  1  0  0  0  0
 15 45  1  0  0  0  0
 16 46  1  0  0  0  0
 17 47  1  0  0  0  0
 21 48  1  0  0  0  0
 22 49  1  0  0  0  0
 23 50  1  0  0  0  0
M  END
> <pdb_id>
4LEQ

> <uniprot_id>
P28720

> <usmiles>
O=C1NC(=Nc2c1cc3NC(=Nc3c2CC[C@H]4O[C@@H](OC)[C@H](O)[C@@H]4O)NC)N

$$$$
1WN_A_304
          07202407423D 1   1.00000     0.00000     0
            
 58 60  0  0  0  0            999 V2000
   22.1620   -7.7970   -7.3250 O   0  0  0  0  0  0  0  0  0  0  0  0
   22.2780  -10.4700   -8.0540 O   0  0  0  0  0  0  0  0  0  0  0  0
   26.2100  -10.5570   -6.3430 O   0  0  0  0  0  0  0  0  0  0  0  0
   29.1660  -12.0200  -12.9740 O   0  0  0  0  0  0  0  0  0  0  0  0
   23.9900   -9.6410  -10.8580 O   0  0  0  0  0  0  0  0  0  0  0  0
   28.3170  -25.1140   -1.1600 N   0  0  0  0  0  0  0  0  0  0  0  0
   23.2300   -8.4560   -7.5320 N   0  0  0  0  0  0  0  0  0  0  0  0
   24.8490  -11.5610   -7.9220 N   0  0  0  0  0  0  0  0  0  0  0  0
   23.3710  -11.6960  -10.3300 C   0  0  0  0  0  0  0  0  0  0  0  0
   27.0720  -18.7730   -2.8810 C   0  0  0  0  0  0  0  0  0  0  0  0
   26.8740  -17.4500   -3.4720 C   0  0  0  0  0  0  0  0  0  0  0  0
   27.0740  -12.7240  -12.0730 C   0  0  0  0  0  0  0  0  0  0  0  0
   27.8650  -10.4150  -11.6710 C   0  0  0  0  0  0  0  0  0  0  0  0
   27.2380  -19.8360   -2.4620 C   0  0  0  0  0  0  0  0  0  0  0  0
   26.7040  -16.3970   -3.9960 C   0  0  0  0  0  0  0  0  0  0  0  0
   27.5970  -23.4670   -2.7450 C   0  0  0  0  0  0  0  0  0  0  0  0
   28.2190  -22.7800   -0.4650 C   0  0  0  0  0  0  0  0  0  0  0  0
   27.2290  -22.1510   -2.9540 C   0  0  0  0  0  0  0  0  0  0  0  0
   28.0210  -21.4490   -0.7620 C   0  0  0  0  0  0  0  0  0  0  0  0
   25.5050  -15.1400   -5.6420 C   0  0  0  0  0  0  0  0  0  0  0  0
   27.3370  -14.0500   -4.5200 C   0  0  0  0  0  0  0  0  0  0  0  0
   25.2020  -13.9270   -6.2780 C   0  0  0  0  0  0  0  0  0  0  0  0
   27.0420  -12.8430   -5.1620 C   0  0  0  0  0  0  0  0  0  0  0  0
   25.9510  -12.4020  -11.3000 C   0  0  0  0  0  0  0  0  0  0  0  0
   26.6540  -10.0680  -11.0380 C   0  0  0  0  0  0  0  0  0  0  0  0
   23.2540   -9.7910   -8.0650 C   0  0  0  0  0  0  0  0  0  0  0  0
   25.6310  -11.5230   -6.7160 C   0  0  0  0  0  0  0  0  0  0  0  0
   28.0290  -11.7080  -12.2690 C   0  0  0  0  0  0  0  0  0  0  0  0
   28.0580  -23.7510   -1.4580 C   0  0  0  0  0  0  0  0  0  0  0  0
   24.5440  -10.3530   -8.6810 C   0  0  2  0  0  0  0  0  0  0  0  0
   27.4500  -21.1700   -1.9820 C   0  0  0  0  0  0  0  0  0  0  0  0
   26.4840  -15.1330   -4.6660 C   0  0  0  0  0  0  0  0  0  0  0  0
   25.9950  -12.8280   -6.0770 C   0  0  0  0  0  0  0  0  0  0  0  0
   25.7010  -11.0930  -10.7740 C   0  0  0  0  0  0  0  0  0  0  0  0
   24.4230  -10.6880  -10.1390 C   0  0  2  0  0  0  0  0  0  0  0  0
   22.3920   -6.8978   -6.9529 H   0  0  0  0  0  0  0  0  0  0  0  0
   29.8643  -11.3217  -13.1311 H   0  0  0  0  0  0  0  0  0  0  0  0
   24.6502   -8.8931  -10.7886 H   0  0  0  0  0  0  0  0  0  0  0  0
   28.6488  -25.3732   -0.2530 H   0  0  0  0  0  0  0  0  0  0  0  0
   28.1677  -25.8153   -1.8570 H   0  0  0  0  0  0  0  0  0  0  0  0
   24.1028   -8.0207   -7.3114 H   0  0  0  0  0  0  0  0  0  0  0  0
   24.5043  -12.4406   -8.2499 H   0  0  0  0  0  0  0  0  0  0  0  0
   23.6082  -12.5253   -9.8241 H   0  0  0  0  0  0  0  0  0  0  0  0
   22.5005  -11.3374   -9.9928 H   0  0  0  0  0  0  0  0  0  0  0  0
   23.2883  -11.9113  -11.3030 H   0  0  0  0  0  0  0  0  0  0  0  0
   27.1922  -13.6350  -12.4681 H   0  0  0  0  0  0  0  0  0  0  0  0
   28.6152   -9.7545  -11.7032 H   0  0  0  0  0  0  0  0  0  0  0  0
   27.5376  -24.1626   -3.4610 H   0  0  0  0  0  0  0  0  0  0  0  0
   28.4781  -23.0517    0.4618 H   0  0  0  0  0  0  0  0  0  0  0  0
   26.7957  -21.8951   -3.8182 H   0  0  0  0  0  0  0  0  0  0  0  0
   28.2790  -20.7236   -0.1238 H   0  0  0  0  0  0  0  0  0  0  0  0
   25.0275  -15.9838   -5.8871 H   0  0  0  0  0  0  0  0  0  0  0  0
   28.1600  -14.1315   -3.9579 H   0  0  0  0  0  0  0  0  0  0  0  0
   24.4055  -13.8643   -6.8794 H   0  0  0  0  0  0  0  0  0  0  0  0
   27.5685  -12.0151   -4.9687 H   0  0  0  0  0  0  0  0  0  0  0  0
   25.2881  -13.1248  -11.1048 H   0  0  0  0  0  0  0  0  0  0  0  0
   26.4677   -9.1202  -10.7793 H   0  0  0  0  0  0  0  0  0  0  0  0
   25.2832   -9.6911   -8.5562 H   0  0  0  0  0  0  0  0  0  0  0  0
  1  7  1  0  0  0  0
  2 26  2  0  0  0  0
  3 27  2  0  0  0  0
  4 28  1  0  0  0  0
  5 35  1  0  0  0  0
  6 29  1  0  0  0  0
  7 26  1  0  0  0  0
  8 27  1  0  0  0  0
  8 30  1  0  0  0  0
  9 35  1  0  0  0  0
 10 11  1  0  0  0  0
 10 14  3  0  0  0  0
 11 15  3  0  0  0  0
 12 24  1  0  0  0  0
 12 28  2  0  0  0  0
 13 25  2  0  0  0  0
 13 28  1  0  0  0  0
 14 31  1  0  0  0  0
 15 32  1  0  0  0  0
 16 18  1  0  0  0  0
 16 29  2  0  0  0  0
 17 19  2  0  0  0  0
 17 29  1  0  0  0  0
 18 31  2  0  0  0  0
 19 31  1  0  0  0  0
 20 22  1  0  0  0  0
 20 32  2  0  0  0  0
 21 23  2  0  0  0  0
 21 32  1  0  0  0  0
 22 33  2  0  0  0  0
 23 33  1  0  0  0  0
 24 34  2  0  0  0  0
 25 34  1  0  0  0  0
 26 30  1  0  0  0  0
 27 33  1  0  0  0  0
 30 35  1  0  0  0  0
 34 35  1  0  0  0  0
  1 36  1  0  0  0  0
  4 37  1  0  0  0  0
  5 38  1  0  0  0  0
  6 39  1  0  0  0  0
  6 40  1  0  0  0  0
  7 41  1  0  0  0  0
  8 42  1  0  0  0  0
  9 43  1  0  0  0  0
  9 44  1  0  0  0  0
  9 45  1  0  0  0  0
 12 46  1  0  0  0  0
 13 47  1  0  0  0  0
 16 48  1  0  0  0  0
 17 49  1  0  0  0  0
 18 50  1  0  0  0  0
 19 51  1  0  0  0  0
 20 52  1  0  0  0  0
 21 53  1  0  0  0  0
 22 54  1  0  0  0  0
 23 55  1  0  0  0  0
 24 56  1  0  0  0  0
 25 57  1  0  0  0  0
 30 58  1  0  0  0  0
M  END
> <pdb_id>
4LCH

> <uniprot_id>
P47205

> <usmiles>
O=C(N[C@H](C(=O)NO)[C@@](O)(c1ccc(O)cc1)C)c2ccc(C#CC#Cc3ccc(N)cc3)cc2

$$$$
1WQ_A_1100
          07202406393D 1   1.00000     0.00000     0
            
 47 50  0  0  0  0            999 V2000
   22.3009   -4.0509  -11.5786 Cl  0  0  0  0  0  0  0  0  0  0  0  0
    9.0382   -1.5162   -4.2707 O   0  0  0  0  0  0  0  0  0  0  0  0
    9.0009   -3.6619   -7.1086 O   0  0  0  0  0  0  0  0  0  0  0  0
   10.5847   -2.9962   -4.9693 N   0  0  0  0  0  0  0  0  0  0  0  0
   15.1288   -5.6148   -6.8702 N   0  0  0  0  0  0  0  0  0  0  0  0
    7.4082   -1.8684   -6.5497 C   0  0  0  0  0  0  0  0  0  0  0  0
   14.9942   -5.1850   -8.2716 C   0  0  0  0  0  0  0  0  0  0  0  0
   16.2920   -6.5046   -6.6544 C   0  0  0  0  0  0  0  0  0  0  0  0
   13.9447   -6.3376   -6.4359 C   0  0  0  0  0  0  0  0  0  0  0  0
   19.6030   -4.3108  -11.3150 C   0  0  0  0  0  0  0  0  0  0  0  0
   20.9756   -4.6499   -9.3402 C   0  0  0  0  0  0  0  0  0  0  0  0
   10.5946   -5.2984   -7.8320 C   0  0  0  0  0  0  0  0  0  0  0  0
   16.1733   -4.3166   -8.6196 C   0  0  0  0  0  0  0  0  0  0  0  0
   17.4748   -6.1169   -7.4997 C   0  0  0  0  0  0  0  0  0  0  0  0
   11.8217   -5.9476   -7.6465 C   0  0  0  0  0  0  0  0  0  0  0  0
   18.4644   -4.5570  -10.5608 C   0  0  0  0  0  0  0  0  0  0  0  0
   19.8510   -4.8991   -8.5852 C   0  0  0  0  0  0  0  0  0  0  0  0
   12.2666   -4.6047   -5.6743 C   0  0  0  0  0  0  0  0  0  0  0  0
    9.4799   -2.2387   -5.1843 C   0  0  0  0  0  0  0  0  0  0  0  0
   20.8487   -4.3587  -10.6887 C   0  0  0  0  0  0  0  0  0  0  0  0
    8.8732   -2.2932   -6.5797 C   0  0  1  0  0  0  0  0  0  0  0  0
   10.2010   -4.3064   -6.9388 C   0  0  0  0  0  0  0  0  0  0  0  0
   11.0655   -3.9288   -5.8882 C   0  0  0  0  0  0  0  0  0  0  0  0
   12.6491   -5.5941   -6.5864 C   0  0  0  0  0  0  0  0  0  0  0  0
   17.4089   -5.1304   -8.3799 C   0  0  0  0  0  0  0  0  0  0  0  0
   18.5905   -4.8359   -9.1869 C   0  0  0  0  0  0  0  0  0  0  0  0
   11.0795   -2.8799   -4.1081 H   0  0  0  0  0  0  0  0  0  0  0  0
    7.3381   -0.9384   -6.1888 H   0  0  0  0  0  0  0  0  0  0  0  0
    7.0343   -1.8952   -7.4768 H   0  0  0  0  0  0  0  0  0  0  0  0
    6.8919   -2.4931   -5.9639 H   0  0  0  0  0  0  0  0  0  0  0  0
   14.1473   -4.6654   -8.3854 H   0  0  0  0  0  0  0  0  0  0  0  0
   14.9767   -5.9860   -8.8700 H   0  0  0  0  0  0  0  0  0  0  0  0
   16.0268   -7.4412   -6.8833 H   0  0  0  0  0  0  0  0  0  0  0  0
   16.5569   -6.4591   -5.6912 H   0  0  0  0  0  0  0  0  0  0  0  0
   14.0594   -6.5662   -5.4691 H   0  0  0  0  0  0  0  0  0  0  0  0
   13.8822   -7.1792   -6.9723 H   0  0  0  0  0  0  0  0  0  0  0  0
   19.5318   -4.1028  -12.2905 H   0  0  0  0  0  0  0  0  0  0  0  0
   21.8809   -4.6790   -8.9164 H   0  0  0  0  0  0  0  0  0  0  0  0
   10.0053   -5.5461   -8.6011 H   0  0  0  0  0  0  0  0  0  0  0  0
   16.1818   -3.5019   -8.0398 H   0  0  0  0  0  0  0  0  0  0  0  0
   16.1249   -4.0419   -9.5799 H   0  0  0  0  0  0  0  0  0  0  0  0
   18.3337   -6.6179   -7.3937 H   0  0  0  0  0  0  0  0  0  0  0  0
   12.1041   -6.6686   -8.2793 H   0  0  0  0  0  0  0  0  0  0  0  0
   17.5614   -4.5364  -10.9900 H   0  0  0  0  0  0  0  0  0  0  0  0
   19.9354   -5.1235   -7.6143 H   0  0  0  0  0  0  0  0  0  0  0  0
   12.8419   -4.3867   -4.8859 H   0  0  0  0  0  0  0  0  0  0  0  0
    9.3781   -1.6686   -7.1756 H   0  0  0  0  0  0  0  0  0  0  0  0
  1 20  1  0  0  0  0
  2 19  2  0  0  0  0
  3 21  1  0  0  0  0
  3 22  1  0  0  0  0
  4 19  1  0  0  0  0
  4 23  1  0  0  0  0
  5  7  1  0  0  0  0
  5  8  1  0  0  0  0
  5  9  1  0  0  0  0
  6 21  1  0  0  0  0
  7 13  1  0  0  0  0
  8 14  1  0  0  0  0
  9 24  1  0  0  0  0
 10 16  2  0  0  0  0
 10 20  1  0  0  0  0
 11 17  1  0  0  0  0
 11 20  2  0  0  0  0
 12 15  1  0  0  0  0
 12 22  2  0  0  0  0
 13 25  1  0  0  0  0
 14 25  2  0  0  0  0
 15 24  2  0  0  0  0
 16 26  1  0  0  0  0
 17 26  2  0  0  0  0
 18 23  2  0  0  0  0
 18 24  1  0  0  0  0
 19 21  1  0  0  0  0
 22 23  1  0  0  0  0
 25 26  1  0  0  0  0
  4 27  1  0  0  0  0
  6 28  1  0  0  0  0
  6 29  1  0  0  0  0
  6 30  1  0  0  0  0
  7 31  1  0  0  0  0
  7 32  1  0  0  0  0
  8 33  1  0  0  0  0
  8 34  1  0  0  0  0
  9 35  1  0  0  0  0
  9 36  1  0  0  0  0
 10 37  1  0  0  0  0
 11 38  1  0  0  0  0
 12 39  1  0  0  0  0
 13 40  1  0  0  0  0
 13 41  1  0  0  0  0
 14 42  1  0  0  0  0
 15 43  1  0  0  0  0
 16 44  1  0  0  0  0
 17 45  1  0  0  0  0
 18 46  1  0  0  0  0
 21 47  1  0  0  0  0
M  END
> <pdb_id>
4L6S

> <uniprot_id>
P09874

> <usmiles>
Clc1ccc(cc1)C2=CCN(Cc3cc4NC(=O)[C@@H](Oc4cc3)C)CC2

$$$$
1XA_A_203
          07212401333D 1   1.00000     0.00000     0
            
 23 24  0  0  0  0            999 V2000
  -15.8664  -23.8933  -22.7140 O   0  0  0  0  0  0  0  0  0  0  0  0
  -14.4987  -24.5641  -20.8902 N   0  0  0  0  0  0  0  0  0  0  0  0
  -16.4911  -22.6818  -23.0969 N   0  0  0  0  0  0  0  0  0  0  0  0
  -16.7098  -20.3166  -22.2587 C   0  0  0  0  0  0  0  0  0  0  0  0
  -13.9665  -20.4036  -17.7419 C   0  0  0  0  0  0  0  0  0  0  0  0
  -14.3874  -21.7289  -17.6897 C   0  0  0  0  0  0  0  0  0  0  0  0
  -14.0201  -19.7125  -18.9496 C   0  0  0  0  0  0  0  0  0  0  0  0
  -14.8576  -22.3605  -18.8391 C   0  0  0  0  0  0  0  0  0  0  0  0
  -14.4873  -20.3449  -20.1002 C   0  0  0  0  0  0  0  0  0  0  0  0
  -15.2050  -23.6490  -21.5503 C   0  0  0  0  0  0  0  0  0  0  0  0
  -16.2056  -21.7585  -22.1841 C   0  0  0  0  0  0  0  0  0  0  0  0
  -14.9057  -21.6751  -20.0572 C   0  0  0  0  0  0  0  0  0  0  0  0
  -15.3931  -22.3171  -21.1991 C   0  0  0  0  0  0  0  0  0  0  0  0
  -14.0353  -24.3195  -20.0385 H   0  0  0  0  0  0  0  0  0  0  0  0
  -14.4315  -25.4962  -21.2461 H   0  0  0  0  0  0  0  0  0  0  0  0
  -16.3722  -19.8042  -21.4692 H   0  0  0  0  0  0  0  0  0  0  0  0
  -16.3772  -19.8903  -23.0999 H   0  0  0  0  0  0  0  0  0  0  0  0
  -17.7098  -20.3126  -22.2558 H   0  0  0  0  0  0  0  0  0  0  0  0
  -13.6277  -19.9504  -16.9174 H   0  0  0  0  0  0  0  0  0  0  0  0
  -14.3523  -22.2294  -16.8247 H   0  0  0  0  0  0  0  0  0  0  0  0
  -13.7222  -18.7588  -18.9913 H   0  0  0  0  0  0  0  0  0  0  0  0
  -15.1631  -23.3116  -18.7927 H   0  0  0  0  0  0  0  0  0  0  0  0
  -14.5230  -19.8413  -20.9634 H   0  0  0  0  0  0  0  0  0  0  0  0
  1  3  1  0  0  0  0
  1 10  1  0  0  0  0
  2 10  1  0  0  0  0
  3 11  2  0  0  0  0
  4 11  1  0  0  0  0
  5  6  2  0  0  0  0
  5  7  1  0  0  0  0
  6  8  1  0  0  0  0
  7  9  2  0  0  0  0
  8 12  2  0  0  0  0
  9 12  1  0  0  0  0
 10 13  2  0  0  0  0
 11 13  1  0  0  0  0
 12 13  1  0  0  0  0
  2 14  1  0  0  0  0
  2 15  1  0  0  0  0
  4 16  1  0  0  0  0
  4 17  1  0  0  0  0
  4 18  1  0  0  0  0
  5 19  1  0  0  0  0
  6 20  1  0  0  0  0
  7 21  1  0  0  0  0
  8 22  1  0  0  0  0
  9 23  1  0  0  0  0
M  END
> <pdb_id>
4LR6

> <uniprot_id>
O60885

> <usmiles>
O1N=C(C(c2ccccc2)=C1N)C

$$$$
1XB_A_201
          07212401333D 1   1.00000     0.00000     0
            
 45 48  0  0  0  0            999 V2000
  -16.8966  -21.9551  -13.1132 Cl  0  0  0  0  0  0  0  0  0  0  0  0
  -14.3820  -19.0505  -20.9542 S   0  0  0  0  0  0  0  0  0  0  0  0
  -11.5164  -24.6297  -19.3634 O   0  0  0  0  0  0  0  0  0  0  0  0
  -15.5964  -23.6050  -22.1573 O   0  0  0  0  0  0  0  0  0  0  0  0
  -12.3506  -26.7216  -19.7977 N   0  0  0  0  0  0  0  0  0  0  0  0
  -16.5569  -22.7764  -22.7484 N   0  0  0  0  0  0  0  0  0  0  0  0
  -14.2658  -23.4051  -19.0831 N   0  0  0  0  0  0  0  0  0  0  0  0
  -12.9781  -17.3790  -19.2822 C   0  0  0  0  0  0  0  0  0  0  0  0
  -17.2797  -20.4413  -22.6191 C   0  0  0  0  0  0  0  0  0  0  0  0
  -12.9247  -19.7820  -17.2913 C   0  0  0  0  0  0  0  0  0  0  0  0
  -16.4252  -21.0361  -15.5888 C   0  0  0  0  0  0  0  0  0  0  0  0
  -15.3712  -23.1200  -15.0294 C   0  0  0  0  0  0  0  0  0  0  0  0
  -15.8476  -21.1233  -16.8404 C   0  0  0  0  0  0  0  0  0  0  0  0
  -14.7876  -23.2007  -16.2805 C   0  0  0  0  0  0  0  0  0  0  0  0
  -13.4336  -24.8639  -20.8036 C   0  0  0  0  0  0  0  0  0  0  0  0
  -16.1767  -22.0490  -14.6859 C   0  0  0  0  0  0  0  0  0  0  0  0
  -12.3347  -25.3559  -19.9125 C   0  0  0  0  0  0  0  0  0  0  0  0
  -13.5671  -18.7195  -19.4773 C   0  0  0  0  0  0  0  0  0  0  0  0
  -14.7385  -20.6457  -20.4476 C   0  0  0  0  0  0  0  0  0  0  0  0
  -14.8664  -22.8678  -21.2700 C   0  0  0  0  0  0  0  0  0  0  0  0
  -16.4113  -21.5582  -22.2070 C   0  0  0  0  0  0  0  0  0  0  0  0
  -13.7633  -23.4321  -20.4571 C   0  0  1  0  0  0  0  0  0  0  0  0
  -14.4512  -22.2320  -18.5401 C   0  0  0  0  0  0  0  0  0  0  0  0
  -15.0289  -22.1865  -17.1831 C   0  0  0  0  0  0  0  0  0  0  0  0
  -13.5774  -19.8039  -18.6161 C   0  0  0  0  0  0  0  0  0  0  0  0
  -15.3548  -21.5869  -21.2624 C   0  0  0  0  0  0  0  0  0  0  0  0
  -14.2494  -20.9354  -19.1839 C   0  0  0  0  0  0  0  0  0  0  0  0
  -13.0491  -27.2554  -20.2743 H   0  0  0  0  0  0  0  0  0  0  0  0
  -11.6636  -27.1843  -19.2372 H   0  0  0  0  0  0  0  0  0  0  0  0
  -12.5408  -17.3345  -18.3840 H   0  0  0  0  0  0  0  0  0  0  0  0
  -12.2965  -17.2076  -19.9936 H   0  0  0  0  0  0  0  0  0  0  0  0
  -13.6982  -16.6872  -19.3369 H   0  0  0  0  0  0  0  0  0  0  0  0
  -17.0261  -19.6174  -22.1124 H   0  0  0  0  0  0  0  0  0  0  0  0
  -17.1689  -20.2771  -23.5993 H   0  0  0  0  0  0  0  0  0  0  0  0
  -18.2333  -20.6715  -22.4254 H   0  0  0  0  0  0  0  0  0  0  0  0
  -13.0551  -20.6652  -16.8409 H   0  0  0  0  0  0  0  0  0  0  0  0
  -11.9468  -19.6066  -17.4044 H   0  0  0  0  0  0  0  0  0  0  0  0
  -13.3305  -19.0593  -16.7317 H   0  0  0  0  0  0  0  0  0  0  0  0
  -17.0072  -20.2605  -15.3442 H   0  0  0  0  0  0  0  0  0  0  0  0
  -15.2083  -23.8472  -14.3626 H   0  0  0  0  0  0  0  0  0  0  0  0
  -16.0240  -20.4043  -17.5126 H   0  0  0  0  0  0  0  0  0  0  0  0
  -14.2049  -23.9758  -16.5248 H   0  0  0  0  0  0  0  0  0  0  0  0
  -14.2460  -25.4328  -20.6756 H   0  0  0  0  0  0  0  0  0  0  0  0
  -13.1372  -24.9157  -21.7573 H   0  0  0  0  0  0  0  0  0  0  0  0
  -12.9470  -22.8603  -20.5378 H   0  0  0  0  0  0  0  0  0  0  0  0
  1 16  1  0  0  0  0
  2 18  1  0  0  0  0
  2 19  1  0  0  0  0
  3 17  2  0  0  0  0
  4  6  1  0  0  0  0
  4 20  1  0  0  0  0
  5 17  1  0  0  0  0
  6 21  2  0  0  0  0
  7 22  1  0  0  0  0
  7 23  2  0  0  0  0
  8 18  1  0  0  0  0
  9 21  1  0  0  0  0
 10 25  1  0  0  0  0
 11 13  1  0  0  0  0
 11 16  2  0  0  0  0
 12 14  2  0  0  0  0
 12 16  1  0  0  0  0
 13 24  2  0  0  0  0
 14 24  1  0  0  0  0
 15 17  1  0  0  0  0
 15 22  1  0  0  0  0
 18 25  2  0  0  0  0
 19 26  1  0  0  0  0
 19 27  2  0  0  0  0
 20 22  1  0  0  0  0
 20 26  2  0  0  0  0
 21 26  1  0  0  0  0
 23 24  1  0  0  0  0
 23 27  1  0  0  0  0
 25 27  1  0  0  0  0
  5 28  1  0  0  0  0
  5 29  1  0  0  0  0
  8 30  1  0  0  0  0
  8 31  1  0  0  0  0
  8 32  1  0  0  0  0
  9 33  1  0  0  0  0
  9 34  1  0  0  0  0
  9 35  1  0  0  0  0
 10 36  1  0  0  0  0
 10 37  1  0  0  0  0
 10 38  1  0  0  0  0
 11 39  1  0  0  0  0
 12 40  1  0  0  0  0
 13 41  1  0  0  0  0
 14 42  1  0  0  0  0
 15 43  1  0  0  0  0
 15 44  1  0  0  0  0
 22 45  1  0  0  0  0
M  END
> <pdb_id>
4LRG

> <uniprot_id>
O60885

> <usmiles>
Clc1ccc(cc1)C2=N[C@H](C=3ON=C(C3C=4SC(=C(C42)C)C)C)CC(=O)N

$$$$
1XM_A_900
          07192416573D 1   1.00000     0.00000     0
            
 16 17  0  0  0  0            999 V2000
   17.1191   -2.3390   15.9271 S   0  0  0  0  0  0  0  0  0  0  0  0
   19.9457   -4.2193   19.7536 N   0  0  0  0  0  0  0  0  0  0  0  0
   17.1438   -1.8803   22.0354 N   0  0  0  0  0  0  0  0  0  0  0  0
   16.4852   -1.4479   20.9600 N   0  0  0  0  0  0  0  0  0  0  0  0
   18.5810   -3.2892   18.0501 N   0  0  0  0  0  0  0  0  0  0  0  0
   16.7511   -1.8336   18.5377 N   0  0  0  0  0  0  0  0  0  0  0  0
   18.1623   -2.6911   21.6645 C   0  0  0  0  0  0  0  0  0  0  0  0
   17.5285   -2.5119   17.6485 C   0  0  0  0  0  0  0  0  0  0  0  0
   18.9152   -3.4467   19.3638 C   0  0  0  0  0  0  0  0  0  0  0  0
   17.0531   -1.9654   19.8532 C   0  0  0  0  0  0  0  0  0  0  0  0
   18.1251   -2.7611   20.2793 C   0  0  0  0  0  0  0  0  0  0  0  0
   20.1618   -4.3115   20.7256 H   0  0  0  0  0  0  0  0  0  0  0  0
   20.4955   -4.7012   19.0713 H   0  0  0  0  0  0  0  0  0  0  0  0
   15.6944   -0.8359   20.9728 H   0  0  0  0  0  0  0  0  0  0  0  0
   19.1253   -3.7591   17.3551 H   0  0  0  0  0  0  0  0  0  0  0  0
   18.8133   -3.1493   22.2696 H   0  0  0  0  0  0  0  0  0  0  0  0
  1  8  2  0  0  0  0
  2  9  1  0  0  0  0
  3  4  1  0  0  0  0
  3  7  2  0  0  0  0
  4 10  1  0  0  0  0
  5  8  1  0  0  0  0
  5  9  1  0  0  0  0
  6  8  1  0  0  0  0
  6 10  2  0  0  0  0
  7 11  1  0  0  0  0
  9 11  2  0  0  0  0
 10 11  1  0  0  0  0
  2 12  1  0  0  0  0
  2 13  1  0  0  0  0
  4 14  1  0  0  0  0
  5 15  1  0  0  0  0
  7 16  1  0  0  0  0
M  END
> <pdb_id>
4LKQ

> <uniprot_id>
Q9Y233

> <usmiles>
S=C1N=C2NN=CC2=C(N1)N

$$$$
1XN_A_900
          07192416573D 1   1.00000     0.00000     0
            
 20 21  0  0  0  0            999 V2000
   19.2698   -3.5708   21.1211 N   0  0  0  0  0  0  0  0  0  0  0  0
   18.6756   -3.5786   16.5294 N   0  0  0  0  0  0  0  0  0  0  0  0
   19.2231   -3.7681   18.8022 N   0  0  0  0  0  0  0  0  0  0  0  0
   15.8314   -1.0005   19.9377 C   0  0  0  0  0  0  0  0  0  0  0  0
   15.6499   -0.9962   18.5522 C   0  0  0  0  0  0  0  0  0  0  0  0
   16.8478   -1.7310   20.5489 C   0  0  0  0  0  0  0  0  0  0  0  0
   16.4780   -1.7340   17.7007 C   0  0  0  0  0  0  0  0  0  0  0  0
   18.7640   -3.2884   19.9793 C   0  0  0  0  0  0  0  0  0  0  0  0
   18.4853   -3.2935   17.7720 C   0  0  0  0  0  0  0  0  0  0  0  0
   17.6765   -2.4659   19.7047 C   0  0  0  0  0  0  0  0  0  0  0  0
   17.4996   -2.4684   18.3100 C   0  0  0  0  0  0  0  0  0  0  0  0
   18.8772   -3.1781   21.9528 H   0  0  0  0  0  0  0  0  0  0  0  0
   20.0574   -4.1840   21.1812 H   0  0  0  0  0  0  0  0  0  0  0  0
   18.0818   -3.1827   15.8289 H   0  0  0  0  0  0  0  0  0  0  0  0
   19.4171   -4.1956   16.2659 H   0  0  0  0  0  0  0  0  0  0  0  0
   20.0013   -4.3887   18.7059 H   0  0  0  0  0  0  0  0  0  0  0  0
   15.2119   -0.4618   20.5087 H   0  0  0  0  0  0  0  0  0  0  0  0
   14.9088   -0.4516   18.1596 H   0  0  0  0  0  0  0  0  0  0  0  0
   16.9755   -1.7280   21.5407 H   0  0  0  0  0  0  0  0  0  0  0  0
   16.3466   -1.7361   16.7093 H   0  0  0  0  0  0  0  0  0  0  0  0
  1  8  1  0  0  0  0
  2  9  1  0  0  0  0
  3  8  1  0  0  0  0
  3  9  1  0  0  0  0
  4  5  1  0  0  0  0
  4  6  2  0  0  0  0
  5  7  2  0  0  0  0
  6 10  1  0  0  0  0
  7 11  1  0  0  0  0
  8 10  2  0  0  0  0
  9 11  2  0  0  0  0
 10 11  1  0  0  0  0
  1 12  1  0  0  0  0
  1 13  1  0  0  0  0
  2 14  1  0  0  0  0
  2 15  1  0  0  0  0
  3 16  1  0  0  0  0
  4 17  1  0  0  0  0
  5 18  1  0  0  0  0
  6 19  1  0  0  0  0
  7 20  1  0  0  0  0
M  END
> <pdb_id>
4LLJ

> <uniprot_id>
Q9Y233

> <usmiles>
N1C(N)=C2C(=C1N)C=CC=C2

$$$$
1YL_B_605
          07202414243D 1   1.00000     0.00000     0
            
 37 40  0  0  0  0            999 V2000
  -13.8255  -43.1488   23.7032 O   0  0  0  0  0  0  0  0  0  0  0  0
  -16.0413  -41.9261   22.8041 O   0  0  0  0  0  0  0  0  0  0  0  0
  -15.2178  -43.2331   28.3204 O   0  0  0  0  0  0  0  0  0  0  0  0
  -12.1371  -42.7962   26.9417 C   0  0  0  0  0  0  0  0  0  0  0  0
  -21.6193  -39.8272   26.3515 C   0  0  0  0  0  0  0  0  0  0  0  0
  -14.0911  -44.2119   28.1509 C   0  0  0  0  0  0  0  0  0  0  0  0
  -19.7912  -40.1401   22.8028 C   0  0  0  0  0  0  0  0  0  0  0  0
  -20.7921  -39.8261   23.8194 C   0  0  0  0  0  0  0  0  0  0  0  0
  -18.5374  -40.8010   23.1840 C   0  0  0  0  0  0  0  0  0  0  0  0
  -17.8904  -41.8018   27.4465 C   0  0  0  0  0  0  0  0  0  0  0  0
  -19.1135  -41.1418   27.0173 C   0  0  0  0  0  0  0  0  0  0  0  0
  -14.7499  -42.8227   24.5150 C   0  0  0  0  0  0  0  0  0  0  0  0
  -15.9670  -42.1678   24.0449 C   0  0  0  0  0  0  0  0  0  0  0  0
  -15.5989  -42.8179   26.9313 C   0  0  0  0  0  0  0  0  0  0  0  0
  -13.3629  -43.8480   26.7781 C   0  0  1  0  0  0  0  0  0  0  0  0
  -20.5416  -40.1614   25.2182 C   0  0  0  0  0  0  0  0  0  0  0  0
  -16.8797  -42.1205   26.4437 C   0  0  0  0  0  0  0  0  0  0  0  0
  -19.2996  -40.8173   25.5999 C   0  0  0  0  0  0  0  0  0  0  0  0
  -18.2934  -41.1544   24.5912 C   0  0  0  0  0  0  0  0  0  0  0  0
  -14.6002  -43.1526   26.0222 C   0  0  0  0  0  0  0  0  0  0  0  0
  -17.0573  -41.8155   25.0095 C   0  0  0  0  0  0  0  0  0  0  0  0
  -12.9979  -43.5967   24.0416 H   0  0  0  0  0  0  0  0  0  0  0  0
  -16.8536  -41.4790   22.4296 H   0  0  0  0  0  0  0  0  0  0  0  0
  -11.7306  -42.6161   26.0460 H   0  0  0  0  0  0  0  0  0  0  0  0
  -12.4811  -41.9412   27.3297 H   0  0  0  0  0  0  0  0  0  0  0  0
  -11.4445  -43.1835   27.5503 H   0  0  0  0  0  0  0  0  0  0  0  0
  -21.2731  -40.1287   27.2400 H   0  0  0  0  0  0  0  0  0  0  0  0
  -21.7835  -38.8411   26.3749 H   0  0  0  0  0  0  0  0  0  0  0  0
  -22.4751  -40.3029   26.1484 H   0  0  0  0  0  0  0  0  0  0  0  0
  -14.4489  -45.1449   28.1135 H   0  0  0  0  0  0  0  0  0  0  0  0
  -13.4484  -44.1317   28.9128 H   0  0  0  0  0  0  0  0  0  0  0  0
  -19.9605  -39.9044   21.8459 H   0  0  0  0  0  0  0  0  0  0  0  0
  -21.6487  -39.3817   23.5573 H   0  0  0  0  0  0  0  0  0  0  0  0
  -17.8502  -41.0108   22.4885 H   0  0  0  0  0  0  0  0  0  0  0  0
  -17.7453  -42.0324   28.4087 H   0  0  0  0  0  0  0  0  0  0  0  0
  -19.8221  -40.9112   27.6842 H   0  0  0  0  0  0  0  0  0  0  0  0
  -13.0665  -44.6739   26.2983 H   0  0  0  0  0  0  0  0  0  0  0  0
  1 12  1  0  0  0  0
  2 13  1  0  0  0  0
  3  6  1  0  0  0  0
  3 14  1  0  0  0  0
  4 15  1  0  0  0  0
  5 16  1  0  0  0  0
  6 15  1  0  0  0  0
  7  8  2  0  0  0  0
  7  9  1  0  0  0  0
  8 16  1  0  0  0  0
  9 19  2  0  0  0  0
 10 11  2  0  0  0  0
 10 17  1  0  0  0  0
 11 18  1  0  0  0  0
 12 13  2  0  0  0  0
 12 20  1  0  0  0  0
 13 21  1  0  0  0  0
 14 17  1  0  0  0  0
 14 20  2  0  0  0  0
 15 20  1  0  0  0  0
 16 18  2  0  0  0  0
 17 21  2  0  0  0  0
 18 19  1  0  0  0  0
 19 21  1  0  0  0  0
  1 22  1  0  0  0  0
  2 23  1  0  0  0  0
  4 24  1  0  0  0  0
  4 25  1  0  0  0  0
  4 26  1  0  0  0  0
  5 27  1  0  0  0  0
  5 28  1  0  0  0  0
  5 29  1  0  0  0  0
  6 30  1  0  0  0  0
  6 31  1  0  0  0  0
  7 32  1  0  0  0  0
  8 33  1  0  0  0  0
  9 34  1  0  0  0  0
 10 35  1  0  0  0  0
 11 36  1  0  0  0  0
 15 37  1  0  0  0  0
M  END
> <pdb_id>
4M0E

> <uniprot_id>
P22303

> <usmiles>
O1c2c3c(c(O)c(O)c2[C@H](C1)C)c4c(c(ccc4)C)cc3

$$$$
1YP_A_301
          07202407473D 1   1.00000     0.00000     0
            
 47 50  0  0  0  0            999 V2000
   16.7330   26.8850    5.6560 S   0  0  0  0  0  0  0  0  0  0  0  0
   16.4440   24.1360    9.1800 F   0  0  0  0  0  0  0  0  0  0  0  0
   16.2360   26.0140   10.3050 F   0  0  0  0  0  0  0  0  0  0  0  0
   14.4910   25.0940    9.3810 F   0  0  0  0  0  0  0  0  0  0  0  0
    8.3720   29.2820   12.5180 O   0  0  0  0  0  0  0  0  0  0  0  0
   18.3630   30.6740    3.7560 O   0  0  0  0  0  0  0  0  0  0  0  0
    9.8370   28.8250   10.8210 O   0  0  0  0  0  0  0  0  0  0  0  0
   10.0690   30.7420   11.8670 N   0  0  0  0  0  0  0  0  0  0  0  0
   11.0390   30.7380   10.9290 N   0  0  0  0  0  0  0  0  0  0  0  0
   11.8070   27.0620    7.8650 N   0  0  0  0  0  0  0  0  0  0  0  0
   17.9480   32.5250    2.4600 N   0  0  0  0  0  0  0  0  0  0  0  0
   14.5270   31.6860    5.3010 N   0  0  0  0  0  0  0  0  0  0  0  0
   15.4730   27.3370    7.8410 N   0  0  0  0  0  0  0  0  0  0  0  0
   16.4210   31.9120    3.9980 N   0  0  0  0  0  0  0  0  0  0  0  0
   19.6010   34.0510    1.5870 C   0  0  0  0  0  0  0  0  0  0  0  0
   16.7600   25.6760    6.8710 C   0  0  0  0  0  0  0  0  0  0  0  0
   19.2610   32.6090    1.8730 C   0  0  0  0  0  0  0  0  0  0  0  0
   11.2460   27.7040    8.8890 C   0  0  0  0  0  0  0  0  0  0  0  0
   12.7150   27.7780    7.1950 C   0  0  0  0  0  0  0  0  0  0  0  0
   13.7880   30.9600    6.1390 C   0  0  0  0  0  0  0  0  0  0  0  0
   16.0860   29.8860    5.3250 C   0  0  0  0  0  0  0  0  0  0  0  0
   12.5200   29.6980    8.5450 C   0  0  0  0  0  0  0  0  0  0  0  0
    9.3230   29.5900   11.8150 C   0  0  0  0  0  0  0  0  0  0  0  0
   15.7550   27.8670    6.6700 C   0  0  0  0  0  0  0  0  0  0  0  0
   17.6430   31.6090    3.4390 C   0  0  0  0  0  0  0  0  0  0  0  0
   10.8500   29.5990   10.3640 C   0  0  0  0  0  0  0  0  0  0  0  0
   15.6670   31.1290    4.8940 C   0  0  0  0  0  0  0  0  0  0  0  0
   16.0380   26.0940    7.9640 C   0  0  0  0  0  0  0  0  0  0  0  0
   11.5660   28.9910    9.2460 C   0  0  0  0  0  0  0  0  0  0  0  0
   13.1270   29.0650    7.4790 C   0  0  0  0  0  0  0  0  0  0  0  0
   15.3040   29.1650    6.2090 C   0  0  0  0  0  0  0  0  0  0  0  0
   14.1030   29.7140    6.6280 C   0  0  0  0  0  0  0  0  0  0  0  0
   15.8150   25.3410    9.2040 C   0  0  0  0  0  0  0  0  0  0  0  0
    8.0549   29.9065   13.2318 H   0  0  0  0  0  0  0  0  0  0  0  0
   17.2359   33.1527    2.1455 H   0  0  0  0  0  0  0  0  0  0  0  0
   16.0223   32.7912    3.7371 H   0  0  0  0  0  0  0  0  0  0  0  0
   20.5128   34.1041    1.1799 H   0  0  0  0  0  0  0  0  0  0  0  0
   18.9295   34.4321    0.9515 H   0  0  0  0  0  0  0  0  0  0  0  0
   19.5860   34.5725    2.4401 H   0  0  0  0  0  0  0  0  0  0  0  0
   17.2310   24.7971    6.7960 H   0  0  0  0  0  0  0  0  0  0  0  0
   19.2770   32.0884    1.0193 H   0  0  0  0  0  0  0  0  0  0  0  0
   19.9336   32.2289    2.5079 H   0  0  0  0  0  0  0  0  0  0  0  0
   10.5542   27.2224    9.4270 H   0  0  0  0  0  0  0  0  0  0  0  0
   13.1405   27.3355    6.4056 H   0  0  0  0  0  0  0  0  0  0  0  0
   12.9222   31.3591    6.4409 H   0  0  0  0  0  0  0  0  0  0  0  0
   16.9525   29.5081    4.9989 H   0  0  0  0  0  0  0  0  0  0  0  0
   12.7630   30.6341    8.7993 H   0  0  0  0  0  0  0  0  0  0  0  0
  1 16  1  0  0  0  0
  1 24  1  0  0  0  0
  2 33  1  0  0  0  0
  3 33  1  0  0  0  0
  4 33  1  0  0  0  0
  5 23  1  0  0  0  0
  6 25  2  0  0  0  0
  7 23  1  0  0  0  0
  7 26  1  0  0  0  0
  8  9  1  0  0  0  0
  8 23  2  0  0  0  0
  9 26  2  0  0  0  0
 10 18  1  0  0  0  0
 10 19  2  0  0  0  0
 11 17  1  0  0  0  0
 11 25  1  0  0  0  0
 12 20  1  0  0  0  0
 12 27  2  0  0  0  0
 13 24  2  0  0  0  0
 13 28  1  0  0  0  0
 14 25  1  0  0  0  0
 14 27  1  0  0  0  0
 15 17  1  0  0  0  0
 16 28  2  0  0  0  0
 18 29  2  0  0  0  0
 19 30  1  0  0  0  0
 20 32  2  0  0  0  0
 21 27  1  0  0  0  0
 21 31  2  0  0  0  0
 22 29  1  0  0  0  0
 22 30  2  0  0  0  0
 24 31  1  0  0  0  0
 26 29  1  0  0  0  0
 28 33  1  0  0  0  0
 30 32  1  0  0  0  0
 31 32  1  0  0  0  0
  5 34  1  0  0  0  0
 11 35  1  0  0  0  0
 14 36  1  0  0  0  0
 15 37  1  0  0  0  0
 15 38  1  0  0  0  0
 15 39  1  0  0  0  0
 16 40  1  0  0  0  0
 17 41  1  0  0  0  0
 17 42  1  0  0  0  0
 18 43  1  0  0  0  0
 19 44  1  0  0  0  0
 20 45  1  0  0  0  0
 21 46  1  0  0  0  0
 22 47  1  0  0  0  0
M  END
> <pdb_id>
4LPB

> <uniprot_id>
Q8DQB5

> <usmiles>
S1C(=NC(=C1)C(F)(F)F)c2c(c3cncc(c3)C=4OC(O)=NN4)cnc(NC(=O)NCC)c2

$$$$
1YZ_A_701
          07202407573D 1   1.00000     0.00000     0
            
 42 44  0  0  0  0            999 V2000
   -1.3166    6.8269   14.9776 O   0  0  0  0  0  0  0  0  0  0  0  0
   -5.9706    4.9176   16.1705 O   0  0  0  0  0  0  0  0  0  0  0  0
   -7.8092   11.9076   15.5036 O   0  0  0  0  0  0  0  0  0  0  0  0
   -1.3478    5.2599   16.6387 N   0  0  0  0  0  0  0  0  0  0  0  0
   -7.7381    5.6555   14.9562 N   0  0  0  0  0  0  0  0  0  0  0  0
   -5.9975    7.5383   13.6902 N   0  0  0  0  0  0  0  0  0  0  0  0
   -3.3604    5.8919   15.5571 N   0  0  0  0  0  0  0  0  0  0  0  0
   -4.9015    8.2085   13.2828 N   0  0  0  0  0  0  0  0  0  0  0  0
   -8.5002   11.4226   17.6828 C   0  0  0  0  0  0  0  0  0  0  0  0
   -3.7133    7.7420   13.8620 C   0  0  0  0  0  0  0  0  0  0  0  0
   -4.4071   10.3756   10.3168 C   0  0  0  0  0  0  0  0  0  0  0  0
   -7.2050   12.7991   13.4399 C   0  0  0  0  0  0  0  0  0  0  0  0
   -4.3164    9.2843   11.2088 C   0  0  0  0  0  0  0  0  0  0  0  0
   -5.1668   11.4664   10.6349 C   0  0  0  0  0  0  0  0  0  0  0  0
   -6.5679   12.7110   12.2396 C   0  0  0  0  0  0  0  0  0  0  0  0
   -6.4573   10.5460   14.0205 C   0  0  0  0  0  0  0  0  0  0  0  0
   -7.8322   10.8443   16.4416 C   0  0  0  0  0  0  0  0  0  0  0  0
   -1.9707    6.0460   15.6777 C   0  0  0  0  0  0  0  0  0  0  0  0
   -6.4068    5.6695   15.2913 C   0  0  0  0  0  0  0  0  0  0  0  0
   -7.1465   11.6891   14.3348 C   0  0  0  0  0  0  0  0  0  0  0  0
   -4.1100    6.7049   14.7141 C   0  0  0  0  0  0  0  0  0  0  0  0
   -5.5361    6.6052   14.5798 C   0  0  0  0  0  0  0  0  0  0  0  0
   -4.9999    9.3339   12.3970 C   0  0  0  0  0  0  0  0  0  0  0  0
   -5.8441   11.5398   11.8782 C   0  0  0  0  0  0  0  0  0  0  0  0
   -5.7842   10.4637   12.7782 C   0  0  0  0  0  0  0  0  0  0  0  0
   -0.3548    5.3442   16.7601 H   0  0  0  0  0  0  0  0  0  0  0  0
   -1.8362    4.6397   17.2534 H   0  0  0  0  0  0  0  0  0  0  0  0
   -8.1201    6.2392   14.2364 H   0  0  0  0  0  0  0  0  0  0  0  0
   -8.3696    5.0263   15.4209 H   0  0  0  0  0  0  0  0  0  0  0  0
   -3.8785    5.2042   16.1045 H   0  0  0  0  0  0  0  0  0  0  0  0
   -9.5186   11.7749   17.4711 H   0  0  0  0  0  0  0  0  0  0  0  0
   -7.9453   12.2783   18.0950 H   0  0  0  0  0  0  0  0  0  0  0  0
   -8.5720   10.6653   18.4760 H   0  0  0  0  0  0  0  0  0  0  0  0
   -2.7378    8.1668   13.6386 H   0  0  0  0  0  0  0  0  0  0  0  0
   -3.8707   10.3236    9.3646 H   0  0  0  0  0  0  0  0  0  0  0  0
   -7.7457   13.7027   13.7363 H   0  0  0  0  0  0  0  0  0  0  0  0
   -3.7225    8.4081   10.9295 H   0  0  0  0  0  0  0  0  0  0  0  0
   -5.2643   12.2971    9.9300 H   0  0  0  0  0  0  0  0  0  0  0  0
   -6.5923   13.5509   11.5387 H   0  0  0  0  0  0  0  0  0  0  0  0
   -6.4039    9.7138   14.7244 H   0  0  0  0  0  0  0  0  0  0  0  0
   -8.4033    9.9766   16.0384 H   0  0  0  0  0  0  0  0  0  0  0  0
   -6.8089   10.4807   16.6823 H   0  0  0  0  0  0  0  0  0  0  0  0
  1 18  2  0  0  0  0
  2 19  2  0  0  0  0
  3 17  1  0  0  0  0
  3 20  1  0  0  0  0
  4 18  1  0  0  0  0
  4 26  1  0  0  0  0
  4 27  1  0  0  0  0
  5 19  1  0  0  0  0
  5 28  1  0  0  0  0
  5 29  1  0  0  0  0
  6  8  1  0  0  0  0
  6 22  2  0  0  0  0
  7 18  1  0  0  0  0
  7 21  1  0  0  0  0
  7 30  1  0  0  0  0
  8 10  1  0  0  0  0
  8 23  1  0  0  0  0
  9 17  1  0  0  0  0
  9 31  1  0  0  0  0
  9 32  1  0  0  0  0
  9 33  1  0  0  0  0
 10 21  2  0  0  0  0
 10 34  1  0  0  0  0
 11 13  2  0  0  0  0
 11 14  1  0  0  0  0
 11 35  1  0  0  0  0
 12 15  2  0  0  0  0
 12 20  1  0  0  0  0
 12 36  1  0  0  0  0
 13 23  1  0  0  0  0
 13 37  1  0  0  0  0
 14 24  2  0  0  0  0
 14 38  1  0  0  0  0
 15 24  1  0  0  0  0
 15 39  1  0  0  0  0
 16 20  2  0  0  0  0
 16 25  1  0  0  0  0
 16 40  1  0  0  0  0
 17 41  1  0  0  0  0
 17 42  1  0  0  0  0
 19 22  1  0  0  0  0
 21 22  1  0  0  0  0
 23 25  2  0  0  0  0
 24 25  1  0  0  0  0
M  END
> <pdb_id>
4M12

> <uniprot_id>
Q08881

> <usmiles>
O=C(NC=1C(=NN(c2c3c(ccc(OCC)c3)ccc2)C1)C(=O)N)N

$$$$
1ZC_A_501
          07202417423D 1   1.00000     0.00000     0
            
 25 26  0  0  0  0            999 V2000
   11.9051   25.4125   -0.6547 O   0  0  0  0  0  0  0  0  0  0  0  0
    7.8934   26.2724   -2.2352 O   0  0  0  0  0  0  0  0  0  0  0  0
   15.2159   29.2300   -0.4617 O   0  0  0  0  0  0  0  0  0  0  0  0
    9.9304   23.6259   -1.5205 N   0  0  0  0  0  0  0  0  0  0  0  0
    8.0905   24.9367   -2.0959 N   0  0  0  0  0  0  0  0  0  0  0  0
    9.0460   26.9909   -1.9651 N   0  0  0  0  0  0  0  0  0  0  0  0
   15.6704   28.3710    0.5831 C   0  0  0  0  0  0  0  0  0  0  0  0
   12.3479   29.7325   -2.5895 C   0  0  0  0  0  0  0  0  0  0  0  0
   13.5447   29.9189   -1.9258 C   0  0  0  0  0  0  0  0  0  0  0  0
   11.6158   28.5748   -2.3955 C   0  0  0  0  0  0  0  0  0  0  0  0
   13.2917   27.7742   -0.8824 C   0  0  0  0  0  0  0  0  0  0  0  0
   14.0201   28.9388   -1.0643 C   0  0  0  0  0  0  0  0  0  0  0  0
   11.3423   26.3152   -1.2677 C   0  0  0  0  0  0  0  0  0  0  0  0
    9.3350   24.8115   -1.7460 C   0  0  0  0  0  0  0  0  0  0  0  0
    9.9398   26.0875   -1.6758 C   0  0  0  0  0  0  0  0  0  0  0  0
   12.0828   27.5809   -1.5439 C   0  0  0  0  0  0  0  0  0  0  0  0
   10.6890   23.4950   -1.5033 H   0  0  0  0  0  0  0  0  0  0  0  0
    9.4376   22.9600   -1.4318 H   0  0  0  0  0  0  0  0  0  0  0  0
   14.9960   28.3336    1.2917 H   0  0  0  0  0  0  0  0  0  0  0  0
   16.5076   28.7167    0.9478 H   0  0  0  0  0  0  0  0  0  0  0  0
   15.8182   27.4744    0.2260 H   0  0  0  0  0  0  0  0  0  0  0  0
   12.0274   30.3966   -3.1745 H   0  0  0  0  0  0  0  0  0  0  0  0
   14.0441   30.7110   -2.0617 H   0  0  0  0  0  0  0  0  0  0  0  0
   10.8041   28.4562   -2.8518 H   0  0  0  0  0  0  0  0  0  0  0  0
   13.6065   27.1183   -0.2904 H   0  0  0  0  0  0  0  0  0  0  0  0
  1 13  2  0  0  0  0
  2  5  1  0  0  0  0
  2  6  1  0  0  0  0
  3  7  1  0  0  0  0
  3 12  1  0  0  0  0
  4 14  1  0  0  0  0
  4 17  1  0  0  0  0
  4 18  1  0  0  0  0
  5 14  2  0  0  0  0
  6 15  2  0  0  0  0
  7 19  1  0  0  0  0
  7 20  1  0  0  0  0
  7 21  1  0  0  0  0
  8  9  2  0  0  0  0
  8 10  1  0  0  0  0
  8 22  1  0  0  0  0
  9 12  1  0  0  0  0
  9 23  1  0  0  0  0
 10 16  2  0  0  0  0
 10 24  1  0  0  0  0
 11 12  2  0  0  0  0
 11 16  1  0  0  0  0
 11 25  1  0  0  0  0
 13 15  1  0  0  0  0
 13 16  1  0  0  0  0
 14 15  1  0  0  0  0
M  END
> <pdb_id>
4OYM

> <uniprot_id>
Q96PN6

> <usmiles>
O=C(c1cc(OC)ccc1)C2=NON=C2N

$$$$
1ZQ_A_306
          07202403273D 1   1.00000     0.00000     0
            
 33 35  0  0  0  0            999 V2000
   11.3099   18.1534  -17.0437 F   0  0  0  0  0  0  0  0  0  0  0  0
   13.3802   25.4905  -15.2989 F   0  0  0  0  0  0  0  0  0  0  0  0
    9.0494   19.6038   -8.9901 O   0  0  0  0  0  0  0  0  0  0  0  0
    9.7472   22.0239   -8.2706 O   0  0  0  0  0  0  0  0  0  0  0  0
    9.8528   19.9196  -11.1638 N   0  0  0  0  0  0  0  0  0  0  0  0
   11.4810   18.1273  -14.6778 C   0  0  0  0  0  0  0  0  0  0  0  0
   10.5068   20.0015  -15.8142 C   0  0  0  0  0  0  0  0  0  0  0  0
   13.4194   23.5166  -14.0201 C   0  0  0  0  0  0  0  0  0  0  0  0
   11.4686   24.9281  -14.0183 C   0  0  0  0  0  0  0  0  0  0  0  0
   11.2418   18.7878  -13.4676 C   0  0  0  0  0  0  0  0  0  0  0  0
   10.2679   20.6662  -14.6233 C   0  0  0  0  0  0  0  0  0  0  0  0
   12.7859   22.6364  -13.1446 C   0  0  0  0  0  0  0  0  0  0  0  0
   10.8237   24.0632  -13.1346 C   0  0  0  0  0  0  0  0  0  0  0  0
   10.6010   22.4888  -10.5031 C   0  0  0  0  0  0  0  0  0  0  0  0
   11.1090   18.7503  -15.8569 C   0  0  0  0  0  0  0  0  0  0  0  0
   12.7628   24.6580  -14.4562 C   0  0  0  0  0  0  0  0  0  0  0  0
    9.6192   20.3770   -9.9552 C   0  0  0  0  0  0  0  0  0  0  0  0
    9.9878   21.6542   -9.5771 C   0  0  0  0  0  0  0  0  0  0  0  0
   10.6406   20.0479  -13.4294 C   0  0  0  0  0  0  0  0  0  0  0  0
   11.4861   22.9143  -12.7301 C   0  0  0  0  0  0  0  0  0  0  0  0
   10.4240   20.6863  -12.0986 C   0  0  0  0  0  0  0  0  0  0  0  0
   10.8185   21.9902  -11.7772 C   0  0  0  0  0  0  0  0  0  0  0  0
    9.3021   21.3843   -7.6439 H   0  0  0  0  0  0  0  0  0  0  0  0
    9.5985   18.9792  -11.3895 H   0  0  0  0  0  0  0  0  0  0  0  0
   11.9114   17.2247  -14.6907 H   0  0  0  0  0  0  0  0  0  0  0  0
   10.2367   20.4370  -16.6729 H   0  0  0  0  0  0  0  0  0  0  0  0
   14.3491   23.3249  -14.3346 H   0  0  0  0  0  0  0  0  0  0  0  0
   10.9976   25.7495  -14.3402 H   0  0  0  0  0  0  0  0  0  0  0  0
   11.5075   18.3474  -12.6101 H   0  0  0  0  0  0  0  0  0  0  0  0
    9.8379   21.5691  -14.6190 H   0  0  0  0  0  0  0  0  0  0  0  0
   13.2580   21.8172  -12.8189 H   0  0  0  0  0  0  0  0  0  0  0  0
    9.9037   24.2671  -12.8001 H   0  0  0  0  0  0  0  0  0  0  0  0
   10.8761   23.4185  -10.2581 H   0  0  0  0  0  0  0  0  0  0  0  0
  1 15  1  0  0  0  0
  2 16  1  0  0  0  0
  3 17  2  0  0  0  0
  4 18  1  0  0  0  0
  5 17  1  0  0  0  0
  5 21  1  0  0  0  0
  6 10  2  0  0  0  0
  6 15  1  0  0  0  0
  7 11  1  0  0  0  0
  7 15  2  0  0  0  0
  8 12  2  0  0  0  0
  8 16  1  0  0  0  0
  9 13  1  0  0  0  0
  9 16  2  0  0  0  0
 10 19  1  0  0  0  0
 11 19  2  0  0  0  0
 12 20  1  0  0  0  0
 13 20  2  0  0  0  0
 14 18  2  0  0  0  0
 14 22  1  0  0  0  0
 17 18  1  0  0  0  0
 19 21  1  0  0  0  0
 20 22  1  0  0  0  0
 21 22  2  0  0  0  0
  4 23  1  0  0  0  0
  5 24  1  0  0  0  0
  6 25  1  0  0  0  0
  7 26  1  0  0  0  0
  8 27  1  0  0  0  0
  9 28  1  0  0  0  0
 10 29  1  0  0  0  0
 11 30  1  0  0  0  0
 12 31  1  0  0  0  0
 13 32  1  0  0  0  0
 14 33  1  0  0  0  0
M  END
> <pdb_id>
4LN7

> <uniprot_id>
F0TRT1

> <usmiles>
Fc1ccc(cc1)C=2NC(=O)C(O)=CC2c3ccc(F)cc3

$$$$
20A_A_505
          07202412153D 1   1.00000     0.00000     0
            
 53 56  0  0  0  0            999 V2000
   48.7370   47.4590   65.9110 O   0  0  0  0  0  0  0  0  0  0  0  0
   50.3730   45.4890   60.4310 O   0  0  0  0  0  0  0  0  0  0  0  0
   43.8430   46.1940   61.8630 N   0  0  0  0  0  0  0  0  0  0  0  0
   47.4610   47.3780   67.7610 N   0  0  0  0  0  0  0  0  0  0  0  0
   44.1410   46.9620   65.3410 N   0  0  0  0  0  0  0  0  0  0  0  0
   47.9450   46.4820   63.6620 N   0  0  0  0  0  0  0  0  0  0  0  0
   43.2520   46.4720   63.0700 N   0  0  0  0  0  0  0  0  0  0  0  0
   41.2190   45.1820   63.7030 C   0  0  0  0  0  0  0  0  0  0  0  0
   50.0370   44.3830   61.2430 C   0  0  0  0  0  0  0  0  0  0  0  0
   49.3040   46.3370   60.0250 C   0  0  0  0  0  0  0  0  0  0  0  0
   41.7780   46.5480   63.2910 C   0  0  0  0  0  0  0  0  0  0  0  0
   45.1960   46.1880   62.0650 C   0  0  0  0  0  0  0  0  0  0  0  0
   48.5190   47.8010   68.6620 C   0  0  0  0  0  0  0  0  0  0  0  0
   45.2640   47.1010   66.0630 C   0  0  0  0  0  0  0  0  0  0  0  0
   48.5330   52.0680   68.4860 C   0  0  0  0  0  0  0  0  0  0  0  0
   49.5300   51.4200   67.8750 C   0  0  0  0  0  0  0  0  0  0  0  0
   47.5450   51.4630   69.1490 C   0  0  0  0  0  0  0  0  0  0  0  0
   49.5740   44.9320   62.6020 C   0  0  0  0  0  0  0  0  0  0  0  0
   48.6770   46.9270   61.3080 C   0  0  0  0  0  0  0  0  0  0  0  0
   49.5440   50.0260   67.9310 C   0  0  0  0  0  0  0  0  0  0  0  0
   47.5400   50.0630   69.2020 C   0  0  0  0  0  0  0  0  0  0  0  0
   47.6420   47.2230   66.4350 C   0  0  0  0  0  0  0  0  0  0  0  0
   44.2400   46.6600   64.0360 C   0  0  0  0  0  0  0  0  0  0  0  0
   48.3760   45.8860   62.3850 C   0  0  0  0  0  0  0  0  0  0  0  0
   46.7060   46.6190   64.1660 C   0  0  0  0  0  0  0  0  0  0  0  0
   48.5640   49.3180   68.6080 C   0  0  0  0  0  0  0  0  0  0  0  0
   46.5230   46.9490   65.5170 C   0  0  0  0  0  0  0  0  0  0  0  0
   45.5280   46.5060   63.4440 C   0  0  0  0  0  0  0  0  0  0  0  0
   46.5555   47.1931   68.1430 H   0  0  0  0  0  0  0  0  0  0  0  0
   48.6817   46.8364   64.2379 H   0  0  0  0  0  0  0  0  0  0  0  0
   40.2319   45.2551   63.8458 H   0  0  0  0  0  0  0  0  0  0  0  0
   41.4029   44.5150   62.9810 H   0  0  0  0  0  0  0  0  0  0  0  0
   41.6574   44.8845   64.5511 H   0  0  0  0  0  0  0  0  0  0  0  0
   50.8362   43.7948   61.3666 H   0  0  0  0  0  0  0  0  0  0  0  0
   49.2996   43.8584   60.8175 H   0  0  0  0  0  0  0  0  0  0  0  0
   48.6204   45.8092   59.5209 H   0  0  0  0  0  0  0  0  0  0  0  0
   49.6519   47.0728   59.4440 H   0  0  0  0  0  0  0  0  0  0  0  0
   41.3342   46.8422   62.4445 H   0  0  0  0  0  0  0  0  0  0  0  0
   41.5887   47.2116   64.0147 H   0  0  0  0  0  0  0  0  0  0  0  0
   45.8710   45.9900   61.3542 H   0  0  0  0  0  0  0  0  0  0  0  0
   49.3951   47.4202   68.3664 H   0  0  0  0  0  0  0  0  0  0  0  0
   48.3201   47.4958   69.5933 H   0  0  0  0  0  0  0  0  0  0  0  0
   45.1857   47.3234   67.0348 H   0  0  0  0  0  0  0  0  0  0  0  0
   48.5270   53.0671   68.4438 H   0  0  0  0  0  0  0  0  0  0  0  0
   50.2469   51.9213   67.3905 H   0  0  0  0  0  0  0  0  0  0  0  0
   46.8266   51.9955   69.5965 H   0  0  0  0  0  0  0  0  0  0  0  0
   50.3249   45.4313   63.0342 H   0  0  0  0  0  0  0  0  0  0  0  0
   49.2951   44.1738   63.1913 H   0  0  0  0  0  0  0  0  0  0  0  0
   47.8208   47.3804   61.0603 H   0  0  0  0  0  0  0  0  0  0  0  0
   49.3122   47.5991   61.6885 H   0  0  0  0  0  0  0  0  0  0  0  0
   50.2784   49.5262   67.4719 H   0  0  0  0  0  0  0  0  0  0  0  0
   46.7942   49.5899   69.6709 H   0  0  0  0  0  0  0  0  0  0  0  0
   47.6155   45.3296   62.0501 H   0  0  0  0  0  0  0  0  0  0  0  0
  1 22  2  0  0  0  0
  2  9  1  0  0  0  0
  2 10  1  0  0  0  0
  3  7  1  0  0  0  0
  3 12  2  0  0  0  0
  4 13  1  0  0  0  0
  4 22  1  0  0  0  0
  5 14  1  0  0  0  0
  5 23  2  0  0  0  0
  6 24  1  0  0  0  0
  6 25  1  0  0  0  0
  7 11  1  0  0  0  0
  7 23  1  0  0  0  0
  8 11  1  0  0  0  0
  9 18  1  0  0  0  0
 10 19  1  0  0  0  0
 12 28  1  0  0  0  0
 13 26  1  0  0  0  0
 14 27  2  0  0  0  0
 15 16  2  0  0  0  0
 15 17  1  0  0  0  0
 16 20  1  0  0  0  0
 17 21  2  0  0  0  0
 18 24  1  0  0  0  0
 19 24  1  0  0  0  0
 20 26  2  0  0  0  0
 21 26  1  0  0  0  0
 22 27  1  0  0  0  0
 23 28  1  0  0  0  0
 25 27  1  0  0  0  0
 25 28  2  0  0  0  0
  4 29  1  0  0  0  0
  6 30  1  0  0  0  0
  8 31  1  0  0  0  0
  8 32  1  0  0  0  0
  8 33  1  0  0  0  0
  9 34  1  0  0  0  0
  9 35  1  0  0  0  0
 10 36  1  0  0  0  0
 10 37  1  0  0  0  0
 11 38  1  0  0  0  0
 11 39  1  0  0  0  0
 12 40  1  0  0  0  0
 13 41  1  0  0  0  0
 13 42  1  0  0  0  0
 14 43  1  0  0  0  0
 15 44  1  0  0  0  0
 16 45  1  0  0  0  0
 17 46  1  0  0  0  0
 18 47  1  0  0  0  0
 18 48  1  0  0  0  0
 19 49  1  0  0  0  0
 19 50  1  0  0  0  0
 20 51  1  0  0  0  0
 21 52  1  0  0  0  0
 24 53  1  0  0  0  0
M  END
> <pdb_id>
3D3P

> <uniprot_id>
Q07343

> <usmiles>
O=C(NCc1ccccc1)c2c(NC3CCOCC3)c4c(nc2)N(N=C4)CC

$$$$
20F_A_305
          07202403273D 1   1.00000     0.00000     0
            
 38 41  0  0  0  0            999 V2000
   11.4042   17.9737  -17.0916 F   0  0  0  0  0  0  0  0  0  0  0  0
    9.6429   22.1506   -8.3873 O   0  0  0  0  0  0  0  0  0  0  0  0
    8.9457   19.4971   -8.8769 O   0  0  0  0  0  0  0  0  0  0  0  0
   14.7014   27.4504  -16.1651 N   0  0  0  0  0  0  0  0  0  0  0  0
   13.5925   27.5785  -16.8288 N   0  0  0  0  0  0  0  0  0  0  0  0
   14.5958   26.5161  -15.1868 N   0  0  0  0  0  0  0  0  0  0  0  0
   12.6917   26.7028  -16.2894 N   0  0  0  0  0  0  0  0  0  0  0  0
   10.4384   22.3843  -10.5061 N   0  0  0  0  0  0  0  0  0  0  0  0
   11.5110   17.9958  -14.7394 C   0  0  0  0  0  0  0  0  0  0  0  0
   10.5701   19.8538  -15.9355 C   0  0  0  0  0  0  0  0  0  0  0  0
   13.3540   23.8772  -13.8651 C   0  0  0  0  0  0  0  0  0  0  0  0
   11.3143   25.0309  -14.0520 C   0  0  0  0  0  0  0  0  0  0  0  0
   12.7313   22.9158  -13.0531 C   0  0  0  0  0  0  0  0  0  0  0  0
   10.6988   24.0636  -13.2419 C   0  0  0  0  0  0  0  0  0  0  0  0
   11.2548   18.6648  -13.5453 C   0  0  0  0  0  0  0  0  0  0  0  0
   10.3243   20.4933  -14.7151 C   0  0  0  0  0  0  0  0  0  0  0  0
    9.8048   19.8141  -11.0963 C   0  0  0  0  0  0  0  0  0  0  0  0
   11.1672   18.5926  -15.9520 C   0  0  0  0  0  0  0  0  0  0  0  0
    9.8422   21.6123   -9.4887 C   0  0  0  0  0  0  0  0  0  0  0  0
    9.5189   20.2621   -9.8392 C   0  0  0  0  0  0  0  0  0  0  0  0
   13.3244   25.9944  -15.2388 C   0  0  0  0  0  0  0  0  0  0  0  0
   12.6659   24.9724  -14.4024 C   0  0  0  0  0  0  0  0  0  0  0  0
   11.3732   22.9531  -12.7056 C   0  0  0  0  0  0  0  0  0  0  0  0
   10.6532   19.9376  -13.4569 C   0  0  0  0  0  0  0  0  0  0  0  0
   10.7308   21.9180  -11.8119 C   0  0  0  0  0  0  0  0  0  0  0  0
   10.4057   20.5991  -12.1227 C   0  0  0  0  0  0  0  0  0  0  0  0
    8.7613   19.8848   -7.9737 H   0  0  0  0  0  0  0  0  0  0  0  0
   15.5314   27.9759  -16.3522 H   0  0  0  0  0  0  0  0  0  0  0  0
   10.6726   23.3322  -10.2902 H   0  0  0  0  0  0  0  0  0  0  0  0
   11.9393   17.0922  -14.7274 H   0  0  0  0  0  0  0  0  0  0  0  0
   10.3182   20.2999  -16.7943 H   0  0  0  0  0  0  0  0  0  0  0  0
   14.3279   23.7760  -14.0679 H   0  0  0  0  0  0  0  0  0  0  0  0
   10.7632   25.7929  -14.3922 H   0  0  0  0  0  0  0  0  0  0  0  0
   13.2874   22.1621  -12.7029 H   0  0  0  0  0  0  0  0  0  0  0  0
    9.7263   24.1705  -13.0350 H   0  0  0  0  0  0  0  0  0  0  0  0
   11.5149   18.2121  -12.6924 H   0  0  0  0  0  0  0  0  0  0  0  0
    9.8915   21.3946  -14.7339 H   0  0  0  0  0  0  0  0  0  0  0  0
    9.5757   18.8652  -11.3131 H   0  0  0  0  0  0  0  0  0  0  0  0
  1 18  1  0  0  0  0
  2 19  2  0  0  0  0
  3 20  1  0  0  0  0
  4  5  1  0  0  0  0
  4  6  1  0  0  0  0
  5  7  2  0  0  0  0
  6 21  2  0  0  0  0
  7 21  1  0  0  0  0
  8 19  1  0  0  0  0
  8 25  1  0  0  0  0
  9 15  2  0  0  0  0
  9 18  1  0  0  0  0
 10 16  1  0  0  0  0
 10 18  2  0  0  0  0
 11 13  1  0  0  0  0
 11 22  2  0  0  0  0
 12 14  2  0  0  0  0
 12 22  1  0  0  0  0
 13 23  2  0  0  0  0
 14 23  1  0  0  0  0
 15 24  1  0  0  0  0
 16 24  2  0  0  0  0
 17 20  2  0  0  0  0
 17 26  1  0  0  0  0
 19 20  1  0  0  0  0
 21 22  1  0  0  0  0
 23 25  1  0  0  0  0
 24 26  1  0  0  0  0
 25 26  2  0  0  0  0
  3 27  1  0  0  0  0
  4 28  1  0  0  0  0
  8 29  1  0  0  0  0
  9 30  1  0  0  0  0
 10 31  1  0  0  0  0
 11 32  1  0  0  0  0
 12 33  1  0  0  0  0
 13 34  1  0  0  0  0
 14 35  1  0  0  0  0
 15 36  1  0  0  0  0
 16 37  1  0  0  0  0
 17 38  1  0  0  0  0
M  END
> <pdb_id>
4M5U

> <uniprot_id>
F0TRT1

> <usmiles>
Fc1ccc(cc1)C2=C(NC(=O)C(O)=C2)c3ccc(cc3)C=4N=NNN4

$$$$
20N_B_601
          07202407493D 1   1.00000     0.00000     0
            
 30 31  0  0  0  0            999 V2000
    6.3193   -2.9448   47.4630 O   0  0  0  0  0  0  0  0  0  0  0  0
    8.4417   -7.7136   42.9987 O   0  0  0  0  0  0  0  0  0  0  0  0
    8.3934   -2.3560   46.7728 N   0  0  0  0  0  0  0  0  0  0  0  0
   10.2463   -6.4113   43.3838 N   0  0  0  0  0  0  0  0  0  0  0  0
    7.1026   -0.8809   48.2450 C   0  0  0  0  0  0  0  0  0  0  0  0
    9.9230   -3.2631   45.2139 C   0  0  0  0  0  0  0  0  0  0  0  0
    8.0762   -4.6458   45.8688 C   0  0  0  0  0  0  0  0  0  0  0  0
   10.3785   -4.2616   44.3797 C   0  0  0  0  0  0  0  0  0  0  0  0
    8.5406   -5.6573   45.0456 C   0  0  0  0  0  0  0  0  0  0  0  0
    9.9306   -9.6656   41.4254 C   0  0  0  0  0  0  0  0  0  0  0  0
    9.7137   -8.5442   40.4018 C   0  0  0  0  0  0  0  0  0  0  0  0
    7.2411   -2.1586   47.4556 C   0  0  0  0  0  0  0  0  0  0  0  0
    9.5997   -7.4302   42.7592 C   0  0  0  0  0  0  0  0  0  0  0  0
    8.7718   -3.4446   45.9645 C   0  0  0  0  0  0  0  0  0  0  0  0
    9.7098   -5.4788   44.2980 C   0  0  0  0  0  0  0  0  0  0  0  0
   10.3822   -8.2416   41.7531 C   0  0  0  0  0  0  0  0  0  0  0  0
    9.0713   -1.6255   46.8542 H   0  0  0  0  0  0  0  0  0  0  0  0
   11.2180   -6.3099   43.1705 H   0  0  0  0  0  0  0  0  0  0  0  0
    7.9349   -0.3356   48.1454 H   0  0  0  0  0  0  0  0  0  0  0  0
    6.3202   -0.3607   47.9026 H   0  0  0  0  0  0  0  0  0  0  0  0
    6.9608   -1.0994   49.2105 H   0  0  0  0  0  0  0  0  0  0  0  0
   10.4267   -2.4016   45.2780 H   0  0  0  0  0  0  0  0  0  0  0  0
    7.2374   -4.7789   46.3968 H   0  0  0  0  0  0  0  0  0  0  0  0
   11.1982   -4.1095   43.8274 H   0  0  0  0  0  0  0  0  0  0  0  0
    8.0381   -6.5198   44.9849 H   0  0  0  0  0  0  0  0  0  0  0  0
   10.6109  -10.3772   41.2498 H   0  0  0  0  0  0  0  0  0  0  0  0
    9.1477  -10.0636   41.9035 H   0  0  0  0  0  0  0  0  0  0  0  0
    8.7902   -8.2096   40.2139 H   0  0  0  0  0  0  0  0  0  0  0  0
   10.2535   -8.5232   39.5603 H   0  0  0  0  0  0  0  0  0  0  0  0
   11.3682   -8.0770   41.7280 H   0  0  0  0  0  0  0  0  0  0  0  0
  1 12  2  0  0  0  0
  2 13  2  0  0  0  0
  3 12  1  0  0  0  0
  3 14  1  0  0  0  0
  4 13  1  0  0  0  0
  4 15  1  0  0  0  0
  5 12  1  0  0  0  0
  6  8  1  0  0  0  0
  6 14  2  0  0  0  0
  7  9  2  0  0  0  0
  7 14  1  0  0  0  0
  8 15  2  0  0  0  0
  9 15  1  0  0  0  0
 10 11  1  0  0  0  0
 10 16  1  0  0  0  0
 11 16  1  0  0  0  0
 13 16  1  0  0  0  0
  3 17  1  0  0  0  0
  4 18  1  0  0  0  0
  5 19  1  0  0  0  0
  5 20  1  0  0  0  0
  5 21  1  0  0  0  0
  6 22  1  0  0  0  0
  7 23  1  0  0  0  0
  8 24  1  0  0  0  0
  9 25  1  0  0  0  0
 10 26  1  0  0  0  0
 10 27  1  0  0  0  0
 11 28  1  0  0  0  0
 11 29  1  0  0  0  0
 16 30  1  0  0  0  0
M  END
> <pdb_id>
4LVB

> <uniprot_id>
P43490

> <usmiles>
O=C(Nc1ccc(NC(=O)C)cc1)C2CC2

$$$$
20O_A_601
          07202407493D 1   1.00000     0.00000     0
            
 45 48  0  0  0  0            999 V2000
    7.7426   -1.9808   47.1826 S   0  0  0  0  0  0  0  0  0  0  0  0
    6.5533   -2.5017   47.7585 O   0  0  0  0  0  0  0  0  0  0  0  0
    7.7438   -0.7824   46.4257 O   0  0  0  0  0  0  0  0  0  0  0  0
    8.3216   -7.4649   43.2739 O   0  0  0  0  0  0  0  0  0  0  0  0
   10.2051   -8.1538   37.0625 N   0  0  0  0  0  0  0  0  0  0  0  0
   10.1046   -6.1427   43.6314 N   0  0  0  0  0  0  0  0  0  0  0  0
   11.4287   -7.6552   36.9844 C   0  0  0  0  0  0  0  0  0  0  0  0
   10.6818   -1.3872   50.5521 C   0  0  0  0  0  0  0  0  0  0  0  0
   12.1156   -7.3011   38.1392 C   0  0  0  0  0  0  0  0  0  0  0  0
   10.7881   -0.6165   49.4065 C   0  0  0  0  0  0  0  0  0  0  0  0
    9.6813   -2.3349   50.6714 C   0  0  0  0  0  0  0  0  0  0  0  0
    9.6014   -8.3464   38.2276 C   0  0  0  0  0  0  0  0  0  0  0  0
    9.8847   -0.7993   48.3749 C   0  0  0  0  0  0  0  0  0  0  0  0
    8.7799   -2.5177   49.6403 C   0  0  0  0  0  0  0  0  0  0  0  0
    9.4799   -2.9591   45.3259 C   0  0  0  0  0  0  0  0  0  0  0  0
    7.8943   -4.5338   46.1705 C   0  0  0  0  0  0  0  0  0  0  0  0
   11.5119   -7.4879   39.3804 C   0  0  0  0  0  0  0  0  0  0  0  0
   10.0161   -3.9401   44.5121 C   0  0  0  0  0  0  0  0  0  0  0  0
    8.4272   -5.5217   45.3528 C   0  0  0  0  0  0  0  0  0  0  0  0
    9.7810   -9.4299   41.6520 C   0  0  0  0  0  0  0  0  0  0  0  0
    8.8830   -1.7480   48.4990 C   0  0  0  0  0  0  0  0  0  0  0  0
    8.4145   -3.2508   46.1550 C   0  0  0  0  0  0  0  0  0  0  0  0
    9.4856   -7.1934   43.0449 C   0  0  0  0  0  0  0  0  0  0  0  0
    9.5051   -5.2323   44.5185 C   0  0  0  0  0  0  0  0  0  0  0  0
   10.2290   -8.0299   39.4225 C   0  0  0  0  0  0  0  0  0  0  0  0
   10.2583   -8.0259   42.0488 C   0  0  2  0  0  0  0  0  0  0  0  0
    9.5020   -8.2378   40.7353 C   0  0  2  0  0  0  0  0  0  0  0  0
   11.0708   -6.0021   43.4153 H   0  0  0  0  0  0  0  0  0  0  0  0
   11.8604   -7.5328   36.0908 H   0  0  0  0  0  0  0  0  0  0  0  0
   11.3337   -1.2575   51.2992 H   0  0  0  0  0  0  0  0  0  0  0  0
   13.0362   -6.9151   38.0795 H   0  0  0  0  0  0  0  0  0  0  0  0
   11.5130    0.0675   49.3255 H   0  0  0  0  0  0  0  0  0  0  0  0
    9.6105   -2.8867   51.5024 H   0  0  0  0  0  0  0  0  0  0  0  0
    8.6768   -8.7269   38.2445 H   0  0  0  0  0  0  0  0  0  0  0  0
    9.9546   -0.2488   47.5429 H   0  0  0  0  0  0  0  0  0  0  0  0
    8.0568   -3.2038   49.7203 H   0  0  0  0  0  0  0  0  0  0  0  0
    9.8644   -2.0361   45.3141 H   0  0  0  0  0  0  0  0  0  0  0  0
    7.1284   -4.7510   46.7756 H   0  0  0  0  0  0  0  0  0  0  0  0
   11.9888   -7.2384   40.2232 H   0  0  0  0  0  0  0  0  0  0  0  0
   10.7827   -3.7163   43.9102 H   0  0  0  0  0  0  0  0  0  0  0  0
    8.0368   -6.4423   45.3626 H   0  0  0  0  0  0  0  0  0  0  0  0
    9.0308   -9.8630   42.1516 H   0  0  0  0  0  0  0  0  0  0  0  0
   10.4455  -10.1257   41.3794 H   0  0  0  0  0  0  0  0  0  0  0  0
   11.2399   -7.8480   41.9792 H   0  0  0  0  0  0  0  0  0  0  0  0
    8.5545   -7.9181   40.7430 H   0  0  0  0  0  0  0  0  0  0  0  0
  1  2  2  0  0  0  0
  1  3  2  0  0  0  0
  1 21  1  0  0  0  0
  1 22  1  0  0  0  0
  4 23  2  0  0  0  0
  5  7  2  0  0  0  0
  5 12  1  0  0  0  0
  6 23  1  0  0  0  0
  6 24  1  0  0  0  0
  7  9  1  0  0  0  0
  8 10  2  0  0  0  0
  8 11  1  0  0  0  0
  9 17  2  0  0  0  0
 10 13  1  0  0  0  0
 11 14  2  0  0  0  0
 12 25  2  0  0  0  0
 13 21  2  0  0  0  0
 14 21  1  0  0  0  0
 15 18  1  0  0  0  0
 15 22  2  0  0  0  0
 16 19  2  0  0  0  0
 16 22  1  0  0  0  0
 17 25  1  0  0  0  0
 18 24  2  0  0  0  0
 19 24  1  0  0  0  0
 20 26  1  0  0  0  0
 20 27  1  0  0  0  0
 23 26  1  0  0  0  0
 25 27  1  0  0  0  0
 26 27  1  0  0  0  0
  6 28  1  0  0  0  0
  7 29  1  0  0  0  0
  8 30  1  0  0  0  0
  9 31  1  0  0  0  0
 10 32  1  0  0  0  0
 11 33  1  0  0  0  0
 12 34  1  0  0  0  0
 13 35  1  0  0  0  0
 14 36  1  0  0  0  0
 15 37  1  0  0  0  0
 16 38  1  0  0  0  0
 17 39  1  0  0  0  0
 18 40  1  0  0  0  0
 19 41  1  0  0  0  0
 20 42  1  0  0  0  0
 20 43  1  0  0  0  0
 26 44  1  0  0  0  0
 27 45  1  0  0  0  0
M  END
> <pdb_id>
4LVG

> <uniprot_id>
P43490

> <usmiles>
S(=O)(=O)(c1ccc(NC(=O)[C@@H]2[C@@H](c3cnccc3)C2)cc1)c4ccccc4

$$$$
20R_A_601
          07202407493D 1   1.00000     0.00000     0
            
 44 47  0  0  0  0            999 V2000
    8.5034   -2.9649   46.1033 S   0  0  0  0  0  0  0  0  0  0  0  0
    8.2720   -1.8564   45.2068 O   0  0  0  0  0  0  0  0  0  0  0  0
    7.3652   -3.5351   46.7435 O   0  0  0  0  0  0  0  0  0  0  0  0
   10.1849   -8.2578   42.3844 O   0  0  0  0  0  0  0  0  0  0  0  0
   10.8929   -7.9270   35.5741 N   0  0  0  0  0  0  0  0  0  0  0  0
    9.9128   -8.7257   36.1568 N   0  0  0  0  0  0  0  0  0  0  0  0
   11.9649   -7.0395   41.8397 N   0  0  0  0  0  0  0  0  0  0  0  0
    9.3203   -9.1020   38.4896 N   0  0  0  0  0  0  0  0  0  0  0  0
   11.3935   -1.1623   49.1286 C   0  0  0  0  0  0  0  0  0  0  0  0
   11.5301   -0.9115   47.7650 C   0  0  0  0  0  0  0  0  0  0  0  0
   10.3586   -1.9476   49.6133 C   0  0  0  0  0  0  0  0  0  0  0  0
   11.6723   -7.3937   36.4694 C   0  0  0  0  0  0  0  0  0  0  0  0
   12.1314   -6.8758   43.3048 C   0  0  0  0  0  0  0  0  0  0  0  0
    9.5999   -8.8300   39.7475 C   0  0  0  0  0  0  0  0  0  0  0  0
   10.6465   -1.4832   46.8626 C   0  0  0  0  0  0  0  0  0  0  0  0
    9.4627   -2.5187   48.6937 C   0  0  0  0  0  0  0  0  0  0  0  0
    9.7684   -5.3807   45.8121 C   0  0  0  0  0  0  0  0  0  0  0  0
   10.0918   -3.8153   44.0811 C   0  0  0  0  0  0  0  0  0  0  0  0
   10.5909   -6.2741   45.1717 C   0  0  0  0  0  0  0  0  0  0  0  0
   10.9317   -4.7003   43.4509 C   0  0  0  0  0  0  0  0  0  0  0  0
   11.4863   -7.4871   39.0874 C   0  0  0  0  0  0  0  0  0  0  0  0
    9.6113   -2.2942   47.3235 C   0  0  0  0  0  0  0  0  0  0  0  0
    9.5033   -4.1499   45.2719 C   0  0  0  0  0  0  0  0  0  0  0  0
   10.9408   -7.8026   41.5116 C   0  0  0  0  0  0  0  0  0  0  0  0
   10.0274   -8.5975   37.5059 C   0  0  0  0  0  0  0  0  0  0  0  0
   11.1680   -5.9321   43.9782 C   0  0  0  0  0  0  0  0  0  0  0  0
   10.6737   -8.0332   40.0822 C   0  0  0  0  0  0  0  0  0  0  0  0
   11.1462   -7.7690   37.7620 C   0  0  0  0  0  0  0  0  0  0  0  0
    9.2457   -9.2909   35.6716 H   0  0  0  0  0  0  0  0  0  0  0  0
   12.5698   -6.6131   41.1671 H   0  0  0  0  0  0  0  0  0  0  0  0
   12.0533   -0.7691   49.7689 H   0  0  0  0  0  0  0  0  0  0  0  0
   12.2658   -0.3190   47.4370 H   0  0  0  0  0  0  0  0  0  0  0  0
   10.2522   -2.1039   50.5953 H   0  0  0  0  0  0  0  0  0  0  0  0
   12.4809   -6.8315   36.2961 H   0  0  0  0  0  0  0  0  0  0  0  0
   13.0577   -6.5377   43.4715 H   0  0  0  0  0  0  0  0  0  0  0  0
   12.0240   -7.7757   43.7273 H   0  0  0  0  0  0  0  0  0  0  0  0
    9.0234   -9.2078   40.4720 H   0  0  0  0  0  0  0  0  0  0  0  0
   10.7518   -1.3138   45.8827 H   0  0  0  0  0  0  0  0  0  0  0  0
    8.7119   -3.0911   49.0234 H   0  0  0  0  0  0  0  0  0  0  0  0
    9.3559   -5.6325   46.6876 H   0  0  0  0  0  0  0  0  0  0  0  0
    9.9091   -2.9227   43.6689 H   0  0  0  0  0  0  0  0  0  0  0  0
   10.7680   -7.1716   45.5757 H   0  0  0  0  0  0  0  0  0  0  0  0
   11.3750   -4.4362   42.5943 H   0  0  0  0  0  0  0  0  0  0  0  0
   12.2774   -6.9189   39.3136 H   0  0  0  0  0  0  0  0  0  0  0  0
  1  2  2  0  0  0  0
  1  3  2  0  0  0  0
  1 22  1  0  0  0  0
  1 23  1  0  0  0  0
  4 24  2  0  0  0  0
  5  6  1  0  0  0  0
  5 12  2  0  0  0  0
  6 25  1  0  0  0  0
  7 13  1  0  0  0  0
  7 24  1  0  0  0  0
  8 14  1  0  0  0  0
  8 25  2  0  0  0  0
  9 10  2  0  0  0  0
  9 11  1  0  0  0  0
 10 15  1  0  0  0  0
 11 16  2  0  0  0  0
 12 28  1  0  0  0  0
 13 26  1  0  0  0  0
 14 27  2  0  0  0  0
 15 22  2  0  0  0  0
 16 22  1  0  0  0  0
 17 19  2  0  0  0  0
 17 23  1  0  0  0  0
 18 20  1  0  0  0  0
 18 23  2  0  0  0  0
 19 26  1  0  0  0  0
 20 26  2  0  0  0  0
 21 27  1  0  0  0  0
 21 28  2  0  0  0  0
 24 27  1  0  0  0  0
 25 28  1  0  0  0  0
  6 29  1  0  0  0  0
  7 30  1  0  0  0  0
  9 31  1  0  0  0  0
 10 32  1  0  0  0  0
 11 33  1  0  0  0  0
 12 34  1  0  0  0  0
 13 35  1  0  0  0  0
 13 36  1  0  0  0  0
 14 37  1  0  0  0  0
 15 38  1  0  0  0  0
 16 39  1  0  0  0  0
 17 40  1  0  0  0  0
 18 41  1  0  0  0  0
 19 42  1  0  0  0  0
 20 43  1  0  0  0  0
 21 44  1  0  0  0  0
M  END
> <pdb_id>
4M6P

> <uniprot_id>
P43490

> <usmiles>
S(=O)(=O)(c1ccc(cc1)CNC(=O)c2cnc3NN=Cc3c2)c4ccccc4

$$$$
210_A_405
          07212404223D 1   1.00000     0.00000     0
            
 24 23  0  0  0  0            999 V2000
    8.2822   -4.9021   20.6712 P   0  0  0  0  0  0  0  0  0  0  0  0
   10.3839   -2.7925   19.9128 P   0  0  0  0  0  0  0  0  0  0  0  0
    8.7251   -4.8757   22.0970 O   0  0  0  0  0  0  0  0  0  0  0  0
    6.8228   -5.2189   20.5563 O   0  0  0  0  0  0  0  0  0  0  0  0
    9.1083   -5.8755   19.8808 O   0  0  0  0  0  0  0  0  0  0  0  0
   11.0503   -3.7729   19.0011 O   0  0  0  0  0  0  0  0  0  0  0  0
   10.4914   -1.3952   19.3942 O   0  0  0  0  0  0  0  0  0  0  0  0
   10.8929   -2.9047   21.3137 O   0  0  0  0  0  0  0  0  0  0  0  0
    8.0840   -3.2567   18.6532 O   0  0  0  0  0  0  0  0  0  0  0  0
    5.5892   -2.6346   19.6285 N   0  0  0  0  0  0  0  0  0  0  0  0
    6.3156   -2.0780   20.7762 C   0  0  0  0  0  0  0  0  0  0  0  0
    7.8389   -2.0996   20.7636 C   0  0  0  0  0  0  0  0  0  0  0  0
    8.5879   -3.2174   20.0000 C   0  0  0  0  0  0  0  0  0  0  0  0
    9.7011   -4.6620   22.1390 H   0  0  0  0  0  0  0  0  0  0  0  0
    6.5588   -5.2289   19.5919 H   0  0  0  0  0  0  0  0  0  0  0  0
   10.9588   -4.6944   19.3785 H   0  0  0  0  0  0  0  0  0  0  0  0
   10.0364   -0.7688   20.0271 H   0  0  0  0  0  0  0  0  0  0  0  0
    8.2178   -2.3649   18.2210 H   0  0  0  0  0  0  0  0  0  0  0  0
    4.6050   -2.5486   19.7834 H   0  0  0  0  0  0  0  0  0  0  0  0
    5.8412   -2.1345   18.8001 H   0  0  0  0  0  0  0  0  0  0  0  0
    6.0215   -2.5875   21.5849 H   0  0  0  0  0  0  0  0  0  0  0  0
    6.0363   -1.1219   20.8647 H   0  0  0  0  0  0  0  0  0  0  0  0
    8.1352   -2.1523   21.7172 H   0  0  0  0  0  0  0  0  0  0  0  0
    8.1371   -1.2303   20.3694 H   0  0  0  0  0  0  0  0  0  0  0  0
  1  3  1  0  0  0  0
  1  4  1  0  0  0  0
  1  5  2  0  0  0  0
  1 13  1  0  0  0  0
  2  6  1  0  0  0  0
  2  7  1  0  0  0  0
  2  8  2  0  0  0  0
  2 13  1  0  0  0  0
  9 13  1  0  0  0  0
 10 11  1  0  0  0  0
 11 12  1  0  0  0  0
 12 13  1  0  0  0  0
  3 14  1  0  0  0  0
  4 15  1  0  0  0  0
  6 16  1  0  0  0  0
  7 17  1  0  0  0  0
  9 18  1  0  0  0  0
 10 19  1  0  0  0  0
 10 20  1  0  0  0  0
 11 21  1  0  0  0  0
 11 22  1  0  0  0  0
 12 23  1  0  0  0  0
 12 24  1  0  0  0  0
M  END
> <pdb_id>
8SU1

> <uniprot_id>
Q9K499

> <usmiles>
P(=O)(O)(O)C(P(=O)(O)O)(O)CCN

$$$$
21A_A_304
          07202403273D 1   1.00000     0.00000     0
            
 38 41  0  0  0  0            999 V2000
   11.2710   18.0887  -17.0941 F   0  0  0  0  0  0  0  0  0  0  0  0
    8.8403   19.6323   -8.9256 O   0  0  0  0  0  0  0  0  0  0  0  0
    9.4849   22.2158   -8.2625 O   0  0  0  0  0  0  0  0  0  0  0  0
   13.4747   27.3239  -16.7921 N   0  0  0  0  0  0  0  0  0  0  0  0
   14.6107   27.1955  -16.0853 N   0  0  0  0  0  0  0  0  0  0  0  0
   12.5615   26.4763  -16.2800 N   0  0  0  0  0  0  0  0  0  0  0  0
   14.4047   26.2693  -15.1324 N   0  0  0  0  0  0  0  0  0  0  0  0
    9.6532   19.7302  -11.0972 N   0  0  0  0  0  0  0  0  0  0  0  0
   10.2817   19.8369  -15.8568 C   0  0  0  0  0  0  0  0  0  0  0  0
   11.5551   18.1300  -14.7448 C   0  0  0  0  0  0  0  0  0  0  0  0
   10.0383   20.4478  -14.6355 C   0  0  0  0  0  0  0  0  0  0  0  0
   11.3106   18.7438  -13.5264 C   0  0  0  0  0  0  0  0  0  0  0  0
   13.2795   23.7980  -13.7604 C   0  0  0  0  0  0  0  0  0  0  0  0
   11.1398   24.8217  -14.1399 C   0  0  0  0  0  0  0  0  0  0  0  0
   12.6843   22.8565  -12.9333 C   0  0  0  0  0  0  0  0  0  0  0  0
   10.5456   23.8763  -13.3208 C   0  0  0  0  0  0  0  0  0  0  0  0
   10.3593   22.4073  -10.5282 C   0  0  0  0  0  0  0  0  0  0  0  0
   11.0386   18.6760  -15.9130 C   0  0  0  0  0  0  0  0  0  0  0  0
    9.3725   20.2999   -9.7846 C   0  0  0  0  0  0  0  0  0  0  0  0
    9.7384   21.6353   -9.5188 C   0  0  0  0  0  0  0  0  0  0  0  0
   13.1422   25.8181  -15.2561 C   0  0  0  0  0  0  0  0  0  0  0  0
   12.5023   24.7746  -14.3682 C   0  0  0  0  0  0  0  0  0  0  0  0
   10.5597   19.9058  -13.4693 C   0  0  0  0  0  0  0  0  0  0  0  0
   11.3158   22.8887  -12.7300 C   0  0  0  0  0  0  0  0  0  0  0  0
   10.2972   20.5496  -12.1205 C   0  0  0  0  0  0  0  0  0  0  0  0
   10.6465   21.8944  -11.8014 C   0  0  0  0  0  0  0  0  0  0  0  0
    9.0463   21.6779   -7.5425 H   0  0  0  0  0  0  0  0  0  0  0  0
   13.3320   27.9421  -17.5650 H   0  0  0  0  0  0  0  0  0  0  0  0
    9.4058   18.7819  -11.2960 H   0  0  0  0  0  0  0  0  0  0  0  0
    9.9114   20.2335  -16.6968 H   0  0  0  0  0  0  0  0  0  0  0  0
   12.1030   17.2943  -14.7828 H   0  0  0  0  0  0  0  0  0  0  0  0
    9.4860   21.2804  -14.5953 H   0  0  0  0  0  0  0  0  0  0  0  0
   11.6778   18.3461  -12.6856 H   0  0  0  0  0  0  0  0  0  0  0  0
   14.2666   23.7732  -13.9185 H   0  0  0  0  0  0  0  0  0  0  0  0
   10.5847   25.5367  -14.5650 H   0  0  0  0  0  0  0  0  0  0  0  0
   13.2420   22.1573  -12.4858 H   0  0  0  0  0  0  0  0  0  0  0  0
    9.5597   23.9068  -13.1559 H   0  0  0  0  0  0  0  0  0  0  0  0
   10.6029   23.3558  -10.3260 H   0  0  0  0  0  0  0  0  0  0  0  0
  1 18  1  0  0  0  0
  2 19  2  0  0  0  0
  3 20  1  0  0  0  0
  4  5  1  0  0  0  0
  4  6  1  0  0  0  0
  5  7  2  0  0  0  0
  6 21  2  0  0  0  0
  7 21  1  0  0  0  0
  8 19  1  0  0  0  0
  8 25  1  0  0  0  0
  9 11  2  0  0  0  0
  9 18  1  0  0  0  0
 10 12  1  0  0  0  0
 10 18  2  0  0  0  0
 11 23  1  0  0  0  0
 12 23  2  0  0  0  0
 13 15  1  0  0  0  0
 13 22  2  0  0  0  0
 14 16  2  0  0  0  0
 14 22  1  0  0  0  0
 15 24  2  0  0  0  0
 16 24  1  0  0  0  0
 17 20  2  0  0  0  0
 17 26  1  0  0  0  0
 19 20  1  0  0  0  0
 21 22  1  0  0  0  0
 23 25  1  0  0  0  0
 24 26  1  0  0  0  0
 25 26  2  0  0  0  0
  3 27  1  0  0  0  0
  4 28  1  0  0  0  0
  8 29  1  0  0  0  0
  9 30  1  0  0  0  0
 10 31  1  0  0  0  0
 11 32  1  0  0  0  0
 12 33  1  0  0  0  0
 13 34  1  0  0  0  0
 14 35  1  0  0  0  0
 15 36  1  0  0  0  0
 16 37  1  0  0  0  0
 17 38  1  0  0  0  0
M  END
> <pdb_id>
4M4Q

> <uniprot_id>
F0TRT1

> <usmiles>
Fc1ccc(cc1)C=2NC(=O)C(O)=CC2c3ccc(cc3)C=4N=NNN4

$$$$
21X_A_301
          07192415533D 1   1.00000     0.00000     0
            
 36 38  0  0  0  0            999 V2000
   44.6654    1.4132    7.9264 S   0  0  0  0  0  0  0  0  0  0  0  0
   42.4319    4.5184   10.0255 O   0  0  0  0  0  0  0  0  0  0  0  0
   44.7431    6.1668    6.5114 O   0  0  0  0  0  0  0  0  0  0  0  0
   46.6111   11.6592   11.6092 N   0  0  0  0  0  0  0  0  0  0  0  0
   46.0249    2.3185    5.8275 N   0  0  0  0  0  0  0  0  0  0  0  0
   45.9775    4.6416    5.3443 N   0  0  0  0  0  0  0  0  0  0  0  0
   43.1488    6.0839    8.5553 N   0  0  0  0  0  0  0  0  0  0  0  0
   43.7575    2.5583    8.8079 C   0  0  0  0  0  0  0  0  0  0  0  0
   46.3962    3.3362    5.1144 C   0  0  0  0  0  0  0  0  0  0  0  0
   46.5501   10.2548   11.9936 C   0  0  0  0  0  0  0  0  0  0  0  0
   42.5167    7.1470    9.3015 C   0  0  0  0  0  0  0  0  0  0  0  0
   44.6040    8.7118   12.0089 C   0  0  0  0  0  0  0  0  0  0  0  0
   45.4246    9.4647    9.8962 C   0  0  0  0  0  0  0  0  0  0  0  0
   43.6390    7.9627   11.3630 C   0  0  0  0  0  0  0  0  0  0  0  0
   44.4493    8.7243    9.2479 C   0  0  0  0  0  0  0  0  0  0  0  0
   45.1920    2.6425    6.8417 C   0  0  0  0  0  0  0  0  0  0  0  0
   43.0947    4.8450    9.0403 C   0  0  0  0  0  0  0  0  0  0  0  0
   45.1055    5.0105    6.3477 C   0  0  0  0  0  0  0  0  0  0  0  0
   45.4963    9.4692   11.2764 C   0  0  0  0  0  0  0  0  0  0  0  0
   43.5551    7.9739    9.9816 C   0  0  0  0  0  0  0  0  0  0  0  0
   43.8509    3.8436    8.3274 C   0  0  0  0  0  0  0  0  0  0  0  0
   44.7006    3.8934    7.1782 C   0  0  0  0  0  0  0  0  0  0  0  0
   47.3344   12.1155   12.1275 H   0  0  0  0  0  0  0  0  0  0  0  0
   46.8071   11.7288   10.6311 H   0  0  0  0  0  0  0  0  0  0  0  0
   46.3309    5.3591    4.7441 H   0  0  0  0  0  0  0  0  0  0  0  0
   43.6172    6.2743    7.6926 H   0  0  0  0  0  0  0  0  0  0  0  0
   43.2051    2.3156    9.6053 H   0  0  0  0  0  0  0  0  0  0  0  0
   47.0222    3.1717    4.3521 H   0  0  0  0  0  0  0  0  0  0  0  0
   46.3647   10.2058   12.9750 H   0  0  0  0  0  0  0  0  0  0  0  0
   47.4383    9.8378   11.8008 H   0  0  0  0  0  0  0  0  0  0  0  0
   41.9047    6.7529    9.9872 H   0  0  0  0  0  0  0  0  0  0  0  0
   41.9901    7.7235    8.6767 H   0  0  0  0  0  0  0  0  0  0  0  0
   44.6562    8.7053   13.0076 H   0  0  0  0  0  0  0  0  0  0  0  0
   46.0802    9.9989    9.3625 H   0  0  0  0  0  0  0  0  0  0  0  0
   42.9984    7.4100   11.8961 H   0  0  0  0  0  0  0  0  0  0  0  0
   44.3940    8.7341    8.2495 H   0  0  0  0  0  0  0  0  0  0  0  0
  1  8  1  0  0  0  0
  1 16  1  0  0  0  0
  2 17  2  0  0  0  0
  3 18  2  0  0  0  0
  4 10  1  0  0  0  0
  5  9  2  0  0  0  0
  5 16  1  0  0  0  0
  6  9  1  0  0  0  0
  6 18  1  0  0  0  0
  7 11  1  0  0  0  0
  7 17  1  0  0  0  0
  8 21  2  0  0  0  0
 10 19  1  0  0  0  0
 11 20  1  0  0  0  0
 12 14  2  0  0  0  0
 12 19  1  0  0  0  0
 13 15  1  0  0  0  0
 13 19  2  0  0  0  0
 14 20  1  0  0  0  0
 15 20  2  0  0  0  0
 16 22  2  0  0  0  0
 17 21  1  0  0  0  0
 18 22  1  0  0  0  0
 21 22  1  0  0  0  0
  4 23  1  0  0  0  0
  4 24  1  0  0  0  0
  6 25  1  0  0  0  0
  7 26  1  0  0  0  0
  8 27  1  0  0  0  0
  9 28  1  0  0  0  0
 10 29  1  0  0  0  0
 10 30  1  0  0  0  0
 11 31  1  0  0  0  0
 11 32  1  0  0  0  0
 12 33  1  0  0  0  0
 13 34  1  0  0  0  0
 14 35  1  0  0  0  0
 15 36  1  0  0  0  0
M  END
> <pdb_id>
4MCC

> <uniprot_id>
P43912

> <usmiles>
S1C=2N=CNC(=O)C2C(C(=O)NCc3ccc(cc3)CN)=C1

$$$$
227_A_999
          07192416573D 1   1.00000     0.00000     0
            
 63 67  0  0  0  0            999 V2000
   17.4824   -6.8939   24.9469 S   0  0  0  0  0  0  0  0  0  0  0  0
   18.3105   -6.5277   23.8545 O   0  0  0  0  0  0  0  0  0  0  0  0
   16.8097   -8.0720   24.6535 O   0  0  0  0  0  0  0  0  0  0  0  0
   19.5295   -4.0040   18.0320 O   0  0  0  0  0  0  0  0  0  0  0  0
   20.4045   -4.5222   20.5629 O   0  0  0  0  0  0  0  0  0  0  0  0
   15.5370   -1.3798   22.1899 N   0  0  0  0  0  0  0  0  0  0  0  0
   15.8435   -1.6086   19.8661 N   0  0  0  0  0  0  0  0  0  0  0  0
   18.5049   -6.9883   26.3359 N   0  0  0  0  0  0  0  0  0  0  0  0
   19.6670   -6.4601   28.8260 N   0  0  0  0  0  0  0  0  0  0  0  0
   16.9355   -2.3314   23.8530 N   0  0  0  0  0  0  0  0  0  0  0  0
   19.0047   -4.0699   16.7043 C   0  0  0  0  0  0  0  0  0  0  0  0
   21.0048   -4.7615   21.8631 C   0  0  0  0  0  0  0  0  0  0  0  0
   20.7130   -6.8527   29.7905 C   0  0  0  0  0  0  0  0  0  0  0  0
   15.2697   -1.0118   20.9202 C   0  0  0  0  0  0  0  0  0  0  0  0
   17.7182   -7.2758   27.5522 C   0  0  0  0  0  0  0  0  0  0  0  0
   19.3183   -5.7796   26.4840 C   0  0  0  0  0  0  0  0  0  0  0  0
   18.7448   -7.5854   28.6440 C   0  0  0  0  0  0  0  0  0  0  0  0
   20.3320   -5.9958   27.5961 C   0  0  0  0  0  0  0  0  0  0  0  0
   16.2780   -1.5718   24.9230 C   0  0  0  0  0  0  0  0  0  0  0  0
   17.1996   -3.7088   24.3558 C   0  0  0  0  0  0  0  0  0  0  0  0
   13.9402   -5.5783   26.4724 C   0  0  0  0  0  0  0  0  0  0  0  0
   15.0347   -6.3497   26.0705 C   0  0  0  0  0  0  0  0  0  0  0  0
   14.8860   -2.1446   25.2721 C   0  0  0  0  0  0  0  0  0  0  0  0
   13.9147   -4.2267   26.2003 C   0  0  0  0  0  0  0  0  0  0  0  0
   17.6246   -2.7759   18.9134 C   0  0  0  0  0  0  0  0  0  0  0  0
   18.5791   -3.3322   21.4940 C   0  0  0  0  0  0  0  0  0  0  0  0
   16.0953   -5.7442   25.3758 C   0  0  0  0  0  0  0  0  0  0  0  0
   16.6403   -2.1046   22.4630 C   0  0  0  0  0  0  0  0  0  0  0  0
   18.8050   -3.5159   19.0838 C   0  0  0  0  0  0  0  0  0  0  0  0
   19.2765   -3.7780   20.3941 C   0  0  0  0  0  0  0  0  0  0  0  0
   16.9459   -2.3224   20.0347 C   0  0  0  0  0  0  0  0  0  0  0  0
   14.9655   -3.6247   25.5308 C   0  0  0  0  0  0  0  0  0  0  0  0
   16.0680   -4.3821   25.1077 C   0  0  0  0  0  0  0  0  0  0  0  0
   17.3902   -2.6013   21.3552 C   0  0  0  0  0  0  0  0  0  0  0  0
   19.6943   -4.4565   16.0920 H   0  0  0  0  0  0  0  0  0  0  0  0
   18.1896   -4.6492   16.6965 H   0  0  0  0  0  0  0  0  0  0  0  0
   18.7628   -3.1500   16.3955 H   0  0  0  0  0  0  0  0  0  0  0  0
   21.8205   -5.3296   21.7542 H   0  0  0  0  0  0  0  0  0  0  0  0
   21.2597   -3.8883   22.2784 H   0  0  0  0  0  0  0  0  0  0  0  0
   20.3475   -5.2315   22.4523 H   0  0  0  0  0  0  0  0  0  0  0  0
   21.3479   -6.0913   29.9219 H   0  0  0  0  0  0  0  0  0  0  0  0
   20.2888   -7.0876   30.6651 H   0  0  0  0  0  0  0  0  0  0  0  0
   21.2111   -7.6450   29.4381 H   0  0  0  0  0  0  0  0  0  0  0  0
   14.6209   -0.2680   20.7597 H   0  0  0  0  0  0  0  0  0  0  0  0
   17.1198   -8.0629   27.4027 H   0  0  0  0  0  0  0  0  0  0  0  0
   17.1668   -6.4815   27.8070 H   0  0  0  0  0  0  0  0  0  0  0  0
   18.7288   -5.0053   26.7140 H   0  0  0  0  0  0  0  0  0  0  0  0
   19.7970   -5.5909   25.6265 H   0  0  0  0  0  0  0  0  0  0  0  0
   18.2658   -7.7593   29.5045 H   0  0  0  0  0  0  0  0  0  0  0  0
   19.2663   -8.3977   28.3828 H   0  0  0  0  0  0  0  0  0  0  0  0
   20.9979   -6.6824   27.3041 H   0  0  0  0  0  0  0  0  0  0  0  0
   20.8026   -5.1335   27.7832 H   0  0  0  0  0  0  0  0  0  0  0  0
   16.1708   -0.6230   24.6258 H   0  0  0  0  0  0  0  0  0  0  0  0
   16.8533   -1.6021   25.7403 H   0  0  0  0  0  0  0  0  0  0  0  0
   17.9873   -3.6623   24.9701 H   0  0  0  0  0  0  0  0  0  0  0  0
   17.4246   -4.2820   23.5680 H   0  0  0  0  0  0  0  0  0  0  0  0
   13.1768   -6.0061   26.9564 H   0  0  0  0  0  0  0  0  0  0  0  0
   15.0627   -7.3279   26.2766 H   0  0  0  0  0  0  0  0  0  0  0  0
   14.2624   -1.9786   24.5083 H   0  0  0  0  0  0  0  0  0  0  0  0
   14.5394   -1.6871   26.0910 H   0  0  0  0  0  0  0  0  0  0  0  0
   13.1307   -3.6772   26.4892 H   0  0  0  0  0  0  0  0  0  0  0  0
   17.2778   -2.5785   17.9965 H   0  0  0  0  0  0  0  0  0  0  0  0
   18.9270   -3.5334   22.4098 H   0  0  0  0  0  0  0  0  0  0  0  0
  1  2  2  0  0  0  0
  1  3  2  0  0  0  0
  1  8  1  0  0  0  0
  1 27  1  0  0  0  0
  4 11  1  0  0  0  0
  4 29  1  0  0  0  0
  5 12  1  0  0  0  0
  5 30  1  0  0  0  0
  6 14  2  0  0  0  0
  6 28  1  0  0  0  0
  7 14  1  0  0  0  0
  7 31  2  0  0  0  0
  8 15  1  0  0  0  0
  8 16  1  0  0  0  0
  9 13  1  0  0  0  0
  9 17  1  0  0  0  0
  9 18  1  0  0  0  0
 10 19  1  0  0  0  0
 10 20  1  0  0  0  0
 10 28  1  0  0  0  0
 15 17  1  0  0  0  0
 16 18  1  0  0  0  0
 19 23  1  0  0  0  0
 20 33  1  0  0  0  0
 21 22  2  0  0  0  0
 21 24  1  0  0  0  0
 22 27  1  0  0  0  0
 23 32  1  0  0  0  0
 24 32  2  0  0  0  0
 25 29  2  0  0  0  0
 25 31  1  0  0  0  0
 26 30  2  0  0  0  0
 26 34  1  0  0  0  0
 27 33  2  0  0  0  0
 28 34  2  0  0  0  0
 29 30  1  0  0  0  0
 31 34  1  0  0  0  0
 32 33  1  0  0  0  0
 11 35  1  0  0  0  0
 11 36  1  0  0  0  0
 11 37  1  0  0  0  0
 12 38  1  0  0  0  0
 12 39  1  0  0  0  0
 12 40  1  0  0  0  0
 13 41  1  0  0  0  0
 13 42  1  0  0  0  0
 13 43  1  0  0  0  0
 14 44  1  0  0  0  0
 15 45  1  0  0  0  0
 15 46  1  0  0  0  0
 16 47  1  0  0  0  0
 16 48  1  0  0  0  0
 17 49  1  0  0  0  0
 17 50  1  0  0  0  0
 18 51  1  0  0  0  0
 18 52  1  0  0  0  0
 19 53  1  0  0  0  0
 19 54  1  0  0  0  0
 20 55  1  0  0  0  0
 20 56  1  0  0  0  0
 21 57  1  0  0  0  0
 22 58  1  0  0  0  0
 23 59  1  0  0  0  0
 23 60  1  0  0  0  0
 24 61  1  0  0  0  0
 25 62  1  0  0  0  0
 26 63  1  0  0  0  0
M  END
> <pdb_id>
2O8H

> <uniprot_id>
Q9QYJ6

> <usmiles>
S(=O)(=O)(N1CCN(CC1)C)c2c3c(ccc2)CCN(c4ncnc5c4cc(OC)c(OC)c5)C3

$$$$
22L_A_301
          07192415533D 1   1.00000     0.00000     0
            
 24 26  0  0  0  0            999 V2000
   44.4794    1.3599    7.8659 S   0  0  0  0  0  0  0  0  0  0  0  0
   44.8803    6.2308    7.1100 O   0  0  0  0  0  0  0  0  0  0  0  0
   46.0853    2.4383    6.0553 N   0  0  0  0  0  0  0  0  0  0  0  0
   46.1264    4.7888    5.8466 N   0  0  0  0  0  0  0  0  0  0  0  0
   43.5223    2.4111    8.8352 C   0  0  0  0  0  0  0  0  0  0  0  0
   46.5375    3.5191    5.4967 C   0  0  0  0  0  0  0  0  0  0  0  0
   41.7004    6.6859   10.9378 C   0  0  0  0  0  0  0  0  0  0  0  0
   42.1758    5.5053   11.4858 C   0  0  0  0  0  0  0  0  0  0  0  0
   41.8597    6.8709    9.5745 C   0  0  0  0  0  0  0  0  0  0  0  0
   42.8023    4.5554   10.6915 C   0  0  0  0  0  0  0  0  0  0  0  0
   42.4950    5.9199    8.7933 C   0  0  0  0  0  0  0  0  0  0  0  0
   45.1691    2.6828    7.0229 C   0  0  0  0  0  0  0  0  0  0  0  0
   45.1969    5.0781    6.8324 C   0  0  0  0  0  0  0  0  0  0  0  0
   42.9785    4.7451    9.3253 C   0  0  0  0  0  0  0  0  0  0  0  0
   43.7017    3.7466    8.5350 C   0  0  0  0  0  0  0  0  0  0  0  0
   44.6683    3.8868    7.4734 C   0  0  0  0  0  0  0  0  0  0  0  0
   46.5297    5.5583    5.3514 H   0  0  0  0  0  0  0  0  0  0  0  0
   42.8978    2.0867    9.5457 H   0  0  0  0  0  0  0  0  0  0  0  0
   47.2214    3.4265    4.7731 H   0  0  0  0  0  0  0  0  0  0  0  0
   41.2581    7.3795   11.5064 H   0  0  0  0  0  0  0  0  0  0  0  0
   42.0662    5.3358   12.4652 H   0  0  0  0  0  0  0  0  0  0  0  0
   41.5103    7.7048    9.1472 H   0  0  0  0  0  0  0  0  0  0  0  0
   43.1358    3.7120   11.1128 H   0  0  0  0  0  0  0  0  0  0  0  0
   42.6059    6.0912    7.8144 H   0  0  0  0  0  0  0  0  0  0  0  0
  1  5  1  0  0  0  0
  1 12  1  0  0  0  0
  2 13  2  0  0  0  0
  3  6  2  0  0  0  0
  3 12  1  0  0  0  0
  4  6  1  0  0  0  0
  4 13  1  0  0  0  0
  5 15  2  0  0  0  0
  7  8  2  0  0  0  0
  7  9  1  0  0  0  0
  8 10  1  0  0  0  0
  9 11  2  0  0  0  0
 10 14  2  0  0  0  0
 11 14  1  0  0  0  0
 12 16  2  0  0  0  0
 13 16  1  0  0  0  0
 14 15  1  0  0  0  0
 15 16  1  0  0  0  0
  4 17  1  0  0  0  0
  5 18  1  0  0  0  0
  6 19  1  0  0  0  0
  7 20  1  0  0  0  0
  8 21  1  0  0  0  0
  9 22  1  0  0  0  0
 10 23  1  0  0  0  0
 11 24  1  0  0  0  0
M  END
> <pdb_id>
4MCD

> <uniprot_id>
P43912

> <usmiles>
S1C=2N=CNC(=O)C2C(c3ccccc3)=C1

$$$$
22T_A_1383
          07202400143D 1   1.00000     0.00000     0
            
 31 33  0  0  0  0            999 V2000
  -19.0190   25.2900   -3.2610 Cl  0  0  0  0  0  0  0  0  0  0  0  0
  -22.9180   28.8770   -2.6270 O   0  0  0  0  0  0  0  0  0  0  0  0
  -16.8080   27.1270   -3.1150 O   0  0  0  0  0  0  0  0  0  0  0  0
  -14.0970   27.1730   -4.9730 N   0  0  0  0  0  0  0  0  0  0  0  0
  -21.9360   30.9280   -2.7640 N   0  0  0  0  0  0  0  0  0  0  0  0
  -13.9880   26.1850   -3.8560 C   0  0  0  0  0  0  0  0  0  0  0  0
  -20.8210   31.7060   -2.7600 C   0  0  0  0  0  0  0  0  0  0  0  0
  -15.1170   28.1720   -4.5800 C   0  0  0  0  0  0  0  0  0  0  0  0
  -14.5230   26.8800   -2.5820 C   0  0  0  0  0  0  0  0  0  0  0  0
  -19.5480   31.2000   -2.7690 C   0  0  0  0  0  0  0  0  0  0  0  0
  -20.4100   27.5660   -2.9160 C   0  0  0  0  0  0  0  0  0  0  0  0
  -18.1330   29.1770   -2.9160 C   0  0  0  0  0  0  0  0  0  0  0  0
  -21.8970   29.5390   -2.7600 C   0  0  0  0  0  0  0  0  0  0  0  0
  -19.1530   27.0080   -3.0440 C   0  0  0  0  0  0  0  0  0  0  0  0
  -15.5420   27.8730   -3.1080 C   0  0  2  0  0  0  0  0  0  0  0  0
  -18.0050   27.8000   -3.0320 C   0  0  0  0  0  0  0  0  0  0  0  0
  -19.3930   29.7700   -2.8130 C   0  0  0  0  0  0  0  0  0  0  0  0
  -20.5510   28.9490   -2.8100 C   0  0  0  0  0  0  0  0  0  0  0  0
  -14.3780   26.7096   -5.8134 H   0  0  0  0  0  0  0  0  0  0  0  0
  -22.8290   31.3780   -2.7701 H   0  0  0  0  0  0  0  0  0  0  0  0
  -13.0331   25.9179   -3.7260 H   0  0  0  0  0  0  0  0  0  0  0  0
  -14.5361   25.3740   -4.0604 H   0  0  0  0  0  0  0  0  0  0  0  0
  -20.9362   32.6993   -2.7500 H   0  0  0  0  0  0  0  0  0  0  0  0
  -15.9112   28.1017   -5.1836 H   0  0  0  0  0  0  0  0  0  0  0  0
  -14.7318   29.0928   -4.6418 H   0  0  0  0  0  0  0  0  0  0  0  0
  -13.7856   27.3502   -2.0970 H   0  0  0  0  0  0  0  0  0  0  0  0
  -14.9550   26.2174   -1.9701 H   0  0  0  0  0  0  0  0  0  0  0  0
  -18.7520   31.8049   -2.7457 H   0  0  0  0  0  0  0  0  0  0  0  0
  -21.2188   26.9781   -2.8994 H   0  0  0  0  0  0  0  0  0  0  0  0
  -17.3140   29.7508   -2.9061 H   0  0  0  0  0  0  0  0  0  0  0  0
  -15.5907   28.7011   -2.5496 H   0  0  0  0  0  0  0  0  0  0  0  0
  1 14  1  0  0  0  0
  2 13  2  0  0  0  0
  3 15  1  0  0  0  0
  3 16  1  0  0  0  0
  4  6  1  0  0  0  0
  4  8  1  0  0  0  0
  5  7  1  0  0  0  0
  5 13  1  0  0  0  0
  6  9  1  0  0  0  0
  7 10  2  0  0  0  0
  8 15  1  0  0  0  0
  9 15  1  0  0  0  0
 10 17  1  0  0  0  0
 11 14  1  0  0  0  0
 11 18  2  0  0  0  0
 12 16  1  0  0  0  0
 12 17  2  0  0  0  0
 13 18  1  0  0  0  0
 14 16  2  0  0  0  0
 17 18  1  0  0  0  0
  4 19  1  0  0  0  0
  5 20  1  0  0  0  0
  6 21  1  0  0  0  0
  6 22  1  0  0  0  0
  7 23  1  0  0  0  0
  8 24  1  0  0  0  0
  8 25  1  0  0  0  0
  9 26  1  0  0  0  0
  9 27  1  0  0  0  0
 10 28  1  0  0  0  0
 11 29  1  0  0  0  0
 12 30  1  0  0  0  0
 15 31  1  0  0  0  0
M  END
> <pdb_id>
3ZM4

> <uniprot_id>
Q02750

> <usmiles>
Clc1c(O[C@@H]2CNCC2)cc3c(c1)C(=O)NC=C3

$$$$
237_A_1001
          07192422073D 1   1.00000     0.00000     0
            
 62 65  0  0  0  0            999 V2000
   42.2617   28.6198   12.0422 Cl  0  0  0  0  0  0  0  0  0  0  0  0
   34.6113   34.6329   21.9913 S   0  0  0  0  0  0  0  0  0  0  0  0
   34.4068   33.1812   16.6334 F   0  0  0  0  0  0  0  0  0  0  0  0
   34.6433   33.3482   22.6278 O   0  0  0  0  0  0  0  0  0  0  0  0
   33.7773   34.8140   20.8264 O   0  0  0  0  0  0  0  0  0  0  0  0
   36.7416   28.1577   15.7330 O   0  0  0  0  0  0  0  0  0  0  0  0
   34.2472   28.9045   18.4955 O   0  0  0  0  0  0  0  0  0  0  0  0
   32.7761   30.6512   14.8070 O   0  0  0  0  0  0  0  0  0  0  0  0
   36.5532   27.9482   13.4862 N   0  0  0  0  0  0  0  0  0  0  0  0
   34.9825   30.4774   17.0332 N   0  0  0  0  0  0  0  0  0  0  0  0
   34.7134   28.5225   14.8667 N   0  0  0  0  0  0  0  0  0  0  0  0
   33.9201   35.7349   23.2073 C   0  0  0  0  0  0  0  0  0  0  0  0
   31.6659   31.4256   15.2272 C   0  0  0  0  0  0  0  0  0  0  0  0
   33.7624   28.7835   13.7724 C   0  0  0  0  0  0  0  0  0  0  0  0
   38.2683   36.4113   22.1831 C   0  0  0  0  0  0  0  0  0  0  0  0
   38.9757   35.8440   21.1206 C   0  0  0  0  0  0  0  0  0  0  0  0
   40.2757   27.7918   13.6288 C   0  0  0  0  0  0  0  0  0  0  0  0
   39.6163   28.8961   11.5283 C   0  0  0  0  0  0  0  0  0  0  0  0
   36.9449   36.0157   22.4176 C   0  0  0  0  0  0  0  0  0  0  0  0
   38.9381   27.6406   13.9629 C   0  0  0  0  0  0  0  0  0  0  0  0
   38.2721   28.7139   11.9031 C   0  0  0  0  0  0  0  0  0  0  0  0
   36.2928   31.1209   18.9949 C   0  0  0  0  0  0  0  0  0  0  0  0
   38.3329   34.8906   20.3138 C   0  0  0  0  0  0  0  0  0  0  0  0
   36.7753   32.1218   19.8535 C   0  0  0  0  0  0  0  0  0  0  0  0
   32.5456   28.4266   15.7833 C   0  0  0  0  0  0  0  0  0  0  0  0
   35.6801   33.8037   18.5059 C   0  0  0  0  0  0  0  0  0  0  0  0
   40.5915   28.4235   12.4272 C   0  0  0  0  0  0  0  0  0  0  0  0
   36.0472   28.2082   14.7315 C   0  0  0  0  0  0  0  0  0  0  0  0
   36.2919   35.0590   21.5959 C   0  0  0  0  0  0  0  0  0  0  0  0
   34.4321   29.2868   17.3572 C   0  0  0  0  0  0  0  0  0  0  0  0
   35.1787   32.7991   17.6636 C   0  0  0  0  0  0  0  0  0  0  0  0
   32.5362   29.2796   14.5134 C   0  0  1  0  0  0  0  0  0  0  0  0
   37.8925   28.0939   13.1292 C   0  0  0  0  0  0  0  0  0  0  0  0
   35.4758   31.4381   17.8827 C   0  0  0  0  0  0  0  0  0  0  0  0
   34.0509   28.3311   16.1713 C   0  0  2  0  0  0  0  0  0  0  0  0
   36.4862   33.4836   19.6254 C   0  0  0  0  0  0  0  0  0  0  0  0
   37.0009   34.4711   20.5089 C   0  0  0  0  0  0  0  0  0  0  0  0
   35.9168   27.6313   12.7830 H   0  0  0  0  0  0  0  0  0  0  0  0
   35.0375   30.6846   16.0565 H   0  0  0  0  0  0  0  0  0  0  0  0
   33.8674   36.6587   22.8283 H   0  0  0  0  0  0  0  0  0  0  0  0
   33.0028   35.4238   23.4560 H   0  0  0  0  0  0  0  0  0  0  0  0
   34.5018   35.7409   24.0207 H   0  0  0  0  0  0  0  0  0  0  0  0
   31.9615   32.3649   15.4015 H   0  0  0  0  0  0  0  0  0  0  0  0
   30.9678   31.4233   14.5112 H   0  0  0  0  0  0  0  0  0  0  0  0
   31.2850   31.0351   16.0653 H   0  0  0  0  0  0  0  0  0  0  0  0
   33.5620   27.9478   13.2610 H   0  0  0  0  0  0  0  0  0  0  0  0
   34.1135   29.4807   13.1473 H   0  0  0  0  0  0  0  0  0  0  0  0
   38.7026   37.0938   22.7710 H   0  0  0  0  0  0  0  0  0  0  0  0
   39.9217   36.1115   20.9378 H   0  0  0  0  0  0  0  0  0  0  0  0
   40.9961   27.4557   14.2354 H   0  0  0  0  0  0  0  0  0  0  0  0
   39.8661   29.3389   10.6671 H   0  0  0  0  0  0  0  0  0  0  0  0
   36.4461   36.4183   23.1851 H   0  0  0  0  0  0  0  0  0  0  0  0
   38.7054   27.1937   14.8267 H   0  0  0  0  0  0  0  0  0  0  0  0
   37.5540   29.0322   11.2842 H   0  0  0  0  0  0  0  0  0  0  0  0
   36.5307   30.1659   19.1723 H   0  0  0  0  0  0  0  0  0  0  0  0
   38.8489   34.4867   19.5584 H   0  0  0  0  0  0  0  0  0  0  0  0
   37.3345   31.8645   20.6416 H   0  0  0  0  0  0  0  0  0  0  0  0
   32.1679   27.5184   15.6030 H   0  0  0  0  0  0  0  0  0  0  0  0
   32.0197   28.8680   16.5104 H   0  0  0  0  0  0  0  0  0  0  0  0
   35.4645   34.7608   18.3125 H   0  0  0  0  0  0  0  0  0  0  0  0
   31.6992   29.1509   13.9815 H   0  0  0  0  0  0  0  0  0  0  0  0
   34.2293   27.3929   16.4678 H   0  0  0  0  0  0  0  0  0  0  0  0
  1 27  1  0  0  0  0
  2  4  2  0  0  0  0
  2  5  2  0  0  0  0
  2 12  1  0  0  0  0
  2 29  1  0  0  0  0
  3 31  1  0  0  0  0
  6 28  2  0  0  0  0
  7 30  2  0  0  0  0
  8 13  1  0  0  0  0
  8 32  1  0  0  0  0
  9 28  1  0  0  0  0
  9 33  1  0  0  0  0
 10 30  1  0  0  0  0
 10 34  1  0  0  0  0
 11 14  1  0  0  0  0
 11 28  1  0  0  0  0
 11 35  1  0  0  0  0
 14 32  1  0  0  0  0
 15 16  2  0  0  0  0
 15 19  1  0  0  0  0
 16 23  1  0  0  0  0
 17 20  2  0  0  0  0
 17 27  1  0  0  0  0
 18 21  1  0  0  0  0
 18 27  2  0  0  0  0
 19 29  2  0  0  0  0
 20 33  1  0  0  0  0
 21 33  2  0  0  0  0
 22 24  2  0  0  0  0
 22 34  1  0  0  0  0
 23 37  2  0  0  0  0
 24 36  1  0  0  0  0
 25 32  1  0  0  0  0
 25 35  1  0  0  0  0
 26 31  1  0  0  0  0
 26 36  2  0  0  0  0
 29 37  1  0  0  0  0
 30 35  1  0  0  0  0
 31 34  2  0  0  0  0
 36 37  1  0  0  0  0
  9 38  1  0  0  0  0
 10 39  1  0  0  0  0
 12 40  1  0  0  0  0
 12 41  1  0  0  0  0
 12 42  1  0  0  0  0
 13 43  1  0  0  0  0
 13 44  1  0  0  0  0
 13 45  1  0  0  0  0
 14 46  1  0  0  0  0
 14 47  1  0  0  0  0
 15 48  1  0  0  0  0
 16 49  1  0  0  0  0
 17 50  1  0  0  0  0
 18 51  1  0  0  0  0
 19 52  1  0  0  0  0
 20 53  1  0  0  0  0
 21 54  1  0  0  0  0
 22 55  1  0  0  0  0
 23 56  1  0  0  0  0
 24 57  1  0  0  0  0
 25 58  1  0  0  0  0
 25 59  1  0  0  0  0
 26 60  1  0  0  0  0
 32 61  1  0  0  0  0
 35 62  1  0  0  0  0
M  END
> <pdb_id>
2PR3

> <uniprot_id>
P00742

> <usmiles>
Clc1ccc(NC(=O)N2[C@@H](C(=O)Nc3c(F)cc(c4c(S(=O)(=O)C)cccc4)cc3)C[C@@H](OC)C2)cc1

$$$$
23U_H_1601
          07202416143D 1   1.00000     0.00000     0
            
 61 64  0  0  0  0            999 V2000
   16.2478   -8.2899   10.9653 Cl  0  0  0  0  0  0  0  0  0  0  0  0
   12.7173  -13.2395   15.3130 O   0  0  0  0  0  0  0  0  0  0  0  0
   12.1498  -13.4339   12.2638 O   0  0  0  0  0  0  0  0  0  0  0  0
   12.2579  -16.3247   12.0928 N   0  0  0  0  0  0  0  0  0  0  0  0
   12.8276  -11.0836   14.5842 N   0  0  0  0  0  0  0  0  0  0  0  0
   10.4711  -13.6272   13.7546 N   0  0  0  0  0  0  0  0  0  0  0  0
   14.1882  -10.8908   15.0899 C   0  0  0  0  0  0  0  0  0  0  0  0
    9.4242  -14.4461   14.3935 C   0  0  0  0  0  0  0  0  0  0  0  0
    6.5116  -13.7068   10.3956 C   0  0  0  0  0  0  0  0  0  0  0  0
   10.6827  -18.8417    8.1808 C   0  0  0  0  0  0  0  0  0  0  0  0
    8.6773  -13.3252   15.1599 C   0  0  0  0  0  0  0  0  0  0  0  0
    7.5430  -13.1118    9.6574 C   0  0  0  0  0  0  0  0  0  0  0  0
    6.7805  -14.8077   11.2064 C   0  0  0  0  0  0  0  0  0  0  0  0
   11.2085  -17.6661    7.6543 C   0  0  0  0  0  0  0  0  0  0  0  0
   10.1261  -18.8604    9.4646 C   0  0  0  0  0  0  0  0  0  0  0  0
   17.0101  -11.8420   12.6503 C   0  0  0  0  0  0  0  0  0  0  0  0
   17.0543  -10.7309   11.8141 C   0  0  0  0  0  0  0  0  0  0  0  0
   16.0908  -11.8863   13.6980 C   0  0  0  0  0  0  0  0  0  0  0  0
    9.8520  -12.4569   15.6748 C   0  0  0  0  0  0  0  0  0  0  0  0
    8.8432  -13.6127    9.7272 C   0  0  0  0  0  0  0  0  0  0  0  0
    8.0857  -15.3065   11.2752 C   0  0  0  0  0  0  0  0  0  0  0  0
   11.1868  -16.4894    8.4078 C   0  0  0  0  0  0  0  0  0  0  0  0
   10.1053  -17.6856   10.2150 C   0  0  0  0  0  0  0  0  0  0  0  0
   15.2510   -9.7175   13.0824 C   0  0  0  0  0  0  0  0  0  0  0  0
   16.1722   -9.6742   12.0347 C   0  0  0  0  0  0  0  0  0  0  0  0
   12.1924  -12.2548   14.8015 C   0  0  0  0  0  0  0  0  0  0  0  0
   11.2207  -14.0925   12.7295 C   0  0  0  0  0  0  0  0  0  0  0  0
   11.0447  -15.4706   12.0687 C   0  0  1  0  0  0  0  0  0  0  0  0
   15.2037  -10.8357   13.9305 C   0  0  0  0  0  0  0  0  0  0  0  0
   10.7379  -12.3492   14.4006 C   0  0  1  0  0  0  0  0  0  0  0  0
    9.1251  -14.7105   10.5341 C   0  0  0  0  0  0  0  0  0  0  0  0
   10.6341  -16.5001    9.6887 C   0  0  0  0  0  0  0  0  0  0  0  0
   10.5623  -15.2487   10.6018 C   0  0  0  0  0  0  0  0  0  0  0  0
   12.0602  -17.1973   11.6461 H   0  0  0  0  0  0  0  0  0  0  0  0
   13.0005  -15.8627   11.6079 H   0  0  0  0  0  0  0  0  0  0  0  0
   12.3708  -10.3507   14.0800 H   0  0  0  0  0  0  0  0  0  0  0  0
   14.4233  -11.6513   15.6952 H   0  0  0  0  0  0  0  0  0  0  0  0
   14.2287  -10.0327   15.6017 H   0  0  0  0  0  0  0  0  0  0  0  0
    9.8090  -15.1315   15.0118 H   0  0  0  0  0  0  0  0  0  0  0  0
    8.8371  -14.8963   13.7207 H   0  0  0  0  0  0  0  0  0  0  0  0
    5.5823  -13.3415   10.3405 H   0  0  0  0  0  0  0  0  0  0  0  0
   10.7027  -19.6807    7.6370 H   0  0  0  0  0  0  0  0  0  0  0  0
    8.1403  -13.6972   15.9170 H   0  0  0  0  0  0  0  0  0  0  0  0
    8.0789  -12.8042   14.5512 H   0  0  0  0  0  0  0  0  0  0  0  0
    7.3457  -12.3223    9.0763 H   0  0  0  0  0  0  0  0  0  0  0  0
    6.0475  -15.2370   11.7341 H   0  0  0  0  0  0  0  0  0  0  0  0
   11.6027  -17.6632    6.7353 H   0  0  0  0  0  0  0  0  0  0  0  0
    9.7475  -19.7068    9.8394 H   0  0  0  0  0  0  0  0  0  0  0  0
   17.6361  -12.6072   12.5002 H   0  0  0  0  0  0  0  0  0  0  0  0
   17.7124  -10.6907   11.0623 H   0  0  0  0  0  0  0  0  0  0  0  0
   16.0673  -12.6881   14.2951 H   0  0  0  0  0  0  0  0  0  0  0  0
   10.3399  -12.9081   16.4221 H   0  0  0  0  0  0  0  0  0  0  0  0
    9.5365  -11.5576   15.9777 H   0  0  0  0  0  0  0  0  0  0  0  0
    9.5734  -13.1821    9.1967 H   0  0  0  0  0  0  0  0  0  0  0  0
    8.2833  -16.0953   11.8572 H   0  0  0  0  0  0  0  0  0  0  0  0
   11.5653  -15.6440    8.0308 H   0  0  0  0  0  0  0  0  0  0  0  0
    9.7108  -17.6894   11.1339 H   0  0  0  0  0  0  0  0  0  0  0  0
   14.6245   -8.9520   13.2292 H   0  0  0  0  0  0  0  0  0  0  0  0
   10.3200  -15.9547   12.5591 H   0  0  0  0  0  0  0  0  0  0  0  0
   10.4632  -11.5797   13.8241 H   0  0  0  0  0  0  0  0  0  0  0  0
   11.1570  -14.5539   10.1975 H   0  0  0  0  0  0  0  0  0  0  0  0
  1 25  1  0  0  0  0
  2 26  2  0  0  0  0
  3 27  2  0  0  0  0
  4 28  1  0  0  0  0
  5  7  1  0  0  0  0
  5 26  1  0  0  0  0
  6  8  1  0  0  0  0
  6 27  1  0  0  0  0
  6 30  1  0  0  0  0
  7 29  1  0  0  0  0
  8 11  1  0  0  0  0
  9 12  2  0  0  0  0
  9 13  1  0  0  0  0
 10 14  2  0  0  0  0
 10 15  1  0  0  0  0
 11 19  1  0  0  0  0
 12 20  1  0  0  0  0
 13 21  2  0  0  0  0
 14 22  1  0  0  0  0
 15 23  2  0  0  0  0
 16 17  2  0  0  0  0
 16 18  1  0  0  0  0
 17 25  1  0  0  0  0
 18 29  2  0  0  0  0
 19 30  1  0  0  0  0
 20 31  2  0  0  0  0
 21 31  1  0  0  0  0
 22 32  2  0  0  0  0
 23 32  1  0  0  0  0
 24 25  2  0  0  0  0
 24 29  1  0  0  0  0
 26 30  1  0  0  0  0
 27 28  1  0  0  0  0
 28 33  1  0  0  0  0
 31 33  1  0  0  0  0
 32 33  1  0  0  0  0
  4 34  1  0  0  0  0
  4 35  1  0  0  0  0
  5 36  1  0  0  0  0
  7 37  1  0  0  0  0
  7 38  1  0  0  0  0
  8 39  1  0  0  0  0
  8 40  1  0  0  0  0
  9 41  1  0  0  0  0
 10 42  1  0  0  0  0
 11 43  1  0  0  0  0
 11 44  1  0  0  0  0
 12 45  1  0  0  0  0
 13 46  1  0  0  0  0
 14 47  1  0  0  0  0
 15 48  1  0  0  0  0
 16 49  1  0  0  0  0
 17 50  1  0  0  0  0
 18 51  1  0  0  0  0
 19 52  1  0  0  0  0
 19 53  1  0  0  0  0
 20 54  1  0  0  0  0
 21 55  1  0  0  0  0
 22 56  1  0  0  0  0
 23 57  1  0  0  0  0
 24 58  1  0  0  0  0
 28 59  1  0  0  0  0
 30 60  1  0  0  0  0
 33 61  1  0  0  0  0
M  END
> <pdb_id>
3DHK

> <uniprot_id>
P00734

> <usmiles>
Clc1cc(ccc1)CNC(=O)[C@H]2N(C(=O)[C@H](N)C(c3ccccc3)c4ccccc4)CCC2

$$$$
24F_B_400
          07202412413D 1   1.00000     0.00000     0
            
 64 66  0  0  0  0            999 V2000
   20.0950    0.7890   61.4900 S   0  0  0  0  0  0  0  0  0  0  0  0
   17.6350    2.1030   62.6650 S   0  0  0  0  0  0  0  0  0  0  0  0
   17.0410    0.7810   62.4860 O   0  0  0  0  0  0  0  0  0  0  0  0
   17.2890    2.8000   63.8960 O   0  0  0  0  0  0  0  0  0  0  0  0
   12.7500    8.6960   61.9080 O   0  0  0  0  0  0  0  0  0  0  0  0
   19.5920    5.2830   60.6520 O   0  0  0  0  0  0  0  0  0  0  0  0
   18.7510    3.7160   59.3370 O   0  0  0  0  0  0  0  0  0  0  0  0
   26.5420   -0.6720   59.6120 O   0  0  0  0  0  0  0  0  0  0  0  0
   14.3980    9.8100   60.7670 O   0  0  0  0  0  0  0  0  0  0  0  0
   17.0450    2.9990   61.4190 N   0  0  0  0  0  0  0  0  0  0  0  0
   14.3710    7.5200   60.7990 N   0  0  0  0  0  0  0  0  0  0  0  0
   28.0300   -2.1600   58.4520 C   0  0  0  0  0  0  0  0  0  0  0  0
   13.7950   11.9610   59.7670 C   0  0  0  0  0  0  0  0  0  0  0  0
   14.5240   11.7570   62.1790 C   0  0  0  0  0  0  0  0  0  0  0  0
   26.5850   -1.9080   58.8780 C   0  0  0  0  0  0  0  0  0  0  0  0
   15.4000    7.4810   59.7330 C   0  0  0  0  0  0  0  0  0  0  0  0
   13.9200    6.1980   61.2940 C   0  0  0  0  0  0  0  0  0  0  0  0
   20.2760    2.8760   63.0510 C   0  0  0  0  0  0  0  0  0  0  0  0
   21.6460    2.5510   62.6770 C   0  0  0  0  0  0  0  0  0  0  0  0
   16.6220    6.6660   60.2040 C   0  0  0  0  0  0  0  0  0  0  0  0
   15.1120    5.3290   61.7610 C   0  0  0  0  0  0  0  0  0  0  0  0
   25.3850    0.5950   61.3520 C   0  0  0  0  0  0  0  0  0  0  0  0
   24.0990   -0.4030   59.4910 C   0  0  0  0  0  0  0  0  0  0  0  0
   24.1790    1.1170   61.8980 C   0  0  0  0  0  0  0  0  0  0  0  0
   22.8940    0.1190   60.0400 C   0  0  0  0  0  0  0  0  0  0  0  0
   19.3780    1.9940   62.4670 C   0  0  0  0  0  0  0  0  0  0  0  0
   13.7570    8.6170   61.2100 C   0  0  0  0  0  0  0  0  0  0  0  0
   18.7080    4.4750   60.3390 C   0  0  0  0  0  0  0  0  0  0  0  0
   21.6620    1.4380   61.8310 C   0  0  0  0  0  0  0  0  0  0  0  0
   13.7740   11.0810   61.0320 C   0  0  0  0  0  0  0  0  0  0  0  0
   25.3690   -0.1740   60.1400 C   0  0  0  0  0  0  0  0  0  0  0  0
   17.4420    4.4180   61.2450 C   0  0  1  0  0  0  0  0  0  0  0  0
   22.9160    0.8890   61.2540 C   0  0  0  0  0  0  0  0  0  0  0  0
   16.2440    5.2380   60.7030 C   0  0  0  0  0  0  0  0  0  0  0  0
   19.4829    5.8528   61.4665 H   0  0  0  0  0  0  0  0  0  0  0  0
   16.0491    2.9911   61.5093 H   0  0  0  0  0  0  0  0  0  0  0  0
   28.0817   -3.0168   57.9390 H   0  0  0  0  0  0  0  0  0  0  0  0
   28.3435   -1.4062   57.8745 H   0  0  0  0  0  0  0  0  0  0  0  0
   28.6108   -2.2219   59.2637 H   0  0  0  0  0  0  0  0  0  0  0  0
   13.3593   12.8392   59.9646 H   0  0  0  0  0  0  0  0  0  0  0  0
   14.7416   12.1148   59.4836 H   0  0  0  0  0  0  0  0  0  0  0  0
   13.2977   11.5001   59.0320 H   0  0  0  0  0  0  0  0  0  0  0  0
   14.1032   12.6424   62.3765 H   0  0  0  0  0  0  0  0  0  0  0  0
   14.4799   11.1780   62.9931 H   0  0  0  0  0  0  0  0  0  0  0  0
   15.4797   11.8930   61.9180 H   0  0  0  0  0  0  0  0  0  0  0  0
   26.0003   -1.8421   58.0694 H   0  0  0  0  0  0  0  0  0  0  0  0
   26.2676   -2.6577   59.4586 H   0  0  0  0  0  0  0  0  0  0  0  0
   15.6881    8.4140   59.5173 H   0  0  0  0  0  0  0  0  0  0  0  0
   15.0131    7.0542   58.9156 H   0  0  0  0  0  0  0  0  0  0  0  0
   13.4401    5.7218   60.5572 H   0  0  0  0  0  0  0  0  0  0  0  0
   13.2967    6.3349   62.0639 H   0  0  0  0  0  0  0  0  0  0  0  0
   20.0171    3.6343   63.6493 H   0  0  0  0  0  0  0  0  0  0  0  0
   22.4568    3.0511   62.9811 H   0  0  0  0  0  0  0  0  0  0  0  0
   17.0646    7.1589   60.9531 H   0  0  0  0  0  0  0  0  0  0  0  0
   17.2606    6.5781   59.4395 H   0  0  0  0  0  0  0  0  0  0  0  0
   14.7784    4.4057   61.9517 H   0  0  0  0  0  0  0  0  0  0  0  0
   15.4884    5.7268   62.5977 H   0  0  0  0  0  0  0  0  0  0  0  0
   26.2533    0.7658   61.8178 H   0  0  0  0  0  0  0  0  0  0  0  0
   24.0660   -0.9352   58.6450 H   0  0  0  0  0  0  0  0  0  0  0  0
   24.2116    1.6507   62.7430 H   0  0  0  0  0  0  0  0  0  0  0  0
   22.0241   -0.0514   59.5771 H   0  0  0  0  0  0  0  0  0  0  0  0
   12.8250   10.9278   61.3076 H   0  0  0  0  0  0  0  0  0  0  0  0
   17.6868    4.7836   62.1430 H   0  0  0  0  0  0  0  0  0  0  0  0
   15.8755    4.7391   59.9186 H   0  0  0  0  0  0  0  0  0  0  0  0
  1 26  1  0  0  0  0
  1 29  1  0  0  0  0
  2  3  2  0  0  0  0
  2  4  2  0  0  0  0
  2 10  1  0  0  0  0
  2 26  1  0  0  0  0
  5 27  2  0  0  0  0
  6 28  1  0  0  0  0
  7 28  2  0  0  0  0
  8 15  1  0  0  0  0
  8 31  1  0  0  0  0
  9 27  1  0  0  0  0
  9 30  1  0  0  0  0
 10 32  1  0  0  0  0
 11 16  1  0  0  0  0
 11 17  1  0  0  0  0
 11 27  1  0  0  0  0
 12 15  1  0  0  0  0
 13 30  1  0  0  0  0
 14 30  1  0  0  0  0
 16 20  1  0  0  0  0
 17 21  1  0  0  0  0
 18 19  1  0  0  0  0
 18 26  2  0  0  0  0
 19 29  2  0  0  0  0
 20 34  1  0  0  0  0
 21 34  1  0  0  0  0
 22 24  1  0  0  0  0
 22 31  2  0  0  0  0
 23 25  2  0  0  0  0
 23 31  1  0  0  0  0
 24 33  2  0  0  0  0
 25 33  1  0  0  0  0
 28 32  1  0  0  0  0
 29 33  1  0  0  0  0
 32 34  1  0  0  0  0
  6 35  1  0  0  0  0
 10 36  1  0  0  0  0
 12 37  1  0  0  0  0
 12 38  1  0  0  0  0
 12 39  1  0  0  0  0
 13 40  1  0  0  0  0
 13 41  1  0  0  0  0
 13 42  1  0  0  0  0
 14 43  1  0  0  0  0
 14 44  1  0  0  0  0
 14 45  1  0  0  0  0
 15 46  1  0  0  0  0
 15 47  1  0  0  0  0
 16 48  1  0  0  0  0
 16 49  1  0  0  0  0
 17 50  1  0  0  0  0
 17 51  1  0  0  0  0
 18 52  1  0  0  0  0
 19 53  1  0  0  0  0
 20 54  1  0  0  0  0
 20 55  1  0  0  0  0
 21 56  1  0  0  0  0
 21 57  1  0  0  0  0
 22 58  1  0  0  0  0
 23 59  1  0  0  0  0
 24 60  1  0  0  0  0
 25 61  1  0  0  0  0
 30 62  1  0  0  0  0
 32 63  1  0  0  0  0
 34 64  1  0  0  0  0
M  END
> <pdb_id>
3ELM

> <uniprot_id>
P45452

> <usmiles>
S(=O)(=O)(N[C@@H](C(=O)O)C1CCN(C(=O)OC(C)C)CC1)C=2SC(c3ccc(OCC)cc3)=CC2

$$$$
24P_A_611
          07202400553D 1   1.00000     0.00000     0
            
 41 43  0  0  0  0            999 V2000
   30.3481    0.8754   -0.6390 O   0  0  0  0  0  0  0  0  0  0  0  0
   33.0044    1.5666   -1.4826 N   0  0  0  0  0  0  0  0  0  0  0  0
   30.5462    1.7175   -1.8151 C   0  0  0  0  0  0  0  0  0  0  0  0
   34.1039    2.4708   -1.0788 C   0  0  0  0  0  0  0  0  0  0  0  0
   33.4588    3.6217   -0.3059 C   0  0  0  0  0  0  0  0  0  0  0  0
   23.6988    2.1994    4.5554 C   0  0  0  0  0  0  0  0  0  0  0  0
   23.9349    2.7552    3.2956 C   0  0  0  0  0  0  0  0  0  0  0  0
   23.9119    0.8353    4.7483 C   0  0  0  0  0  0  0  0  0  0  0  0
   27.9447    0.8021   -1.0475 C   0  0  0  0  0  0  0  0  0  0  0  0
   28.8899    0.1001    1.0641 C   0  0  0  0  0  0  0  0  0  0  0  0
   31.9508    3.3363   -0.3781 C   0  0  0  0  0  0  0  0  0  0  0  0
   24.3941    1.9550    2.2416 C   0  0  0  0  0  0  0  0  0  0  0  0
   24.3702    0.0362    3.7034 C   0  0  0  0  0  0  0  0  0  0  0  0
   26.6661    0.5147   -0.5427 C   0  0  0  0  0  0  0  0  0  0  0  0
   27.6213   -0.1913    1.5649 C   0  0  0  0  0  0  0  0  0  0  0  0
   25.1027   -0.3114    1.2940 C   0  0  0  0  0  0  0  0  0  0  0  0
   29.0641    0.6015   -0.2302 C   0  0  0  0  0  0  0  0  0  0  0  0
   31.8704    2.4875   -1.6515 C   0  0  1  0  0  0  0  0  0  0  0  0
   24.6203    0.5860    2.4356 C   0  0  0  0  0  0  0  0  0  0  0  0
   26.5049    0.0274    0.7564 C   0  0  0  0  0  0  0  0  0  0  0  0
   32.8155    0.8893   -0.7716 H   0  0  0  0  0  0  0  0  0  0  0  0
   29.7883    2.3646   -1.8976 H   0  0  0  0  0  0  0  0  0  0  0  0
   30.5877    1.1465   -2.6350 H   0  0  0  0  0  0  0  0  0  0  0  0
   34.5780    2.8204   -1.8869 H   0  0  0  0  0  0  0  0  0  0  0  0
   34.7542    1.9845   -0.4952 H   0  0  0  0  0  0  0  0  0  0  0  0
   33.6733    4.4994   -0.7344 H   0  0  0  0  0  0  0  0  0  0  0  0
   33.7720    3.6291    0.6438 H   0  0  0  0  0  0  0  0  0  0  0  0
   23.3806    2.7734    5.3099 H   0  0  0  0  0  0  0  0  0  0  0  0
   23.7749    3.7308    3.1452 H   0  0  0  0  0  0  0  0  0  0  0  0
   23.7344    0.4273    5.6439 H   0  0  0  0  0  0  0  0  0  0  0  0
   28.0546    1.1462   -1.9800 H   0  0  0  0  0  0  0  0  0  0  0  0
   29.6915   -0.0524    1.6421 H   0  0  0  0  0  0  0  0  0  0  0  0
   31.4217    4.1803   -0.4660 H   0  0  0  0  0  0  0  0  0  0  0  0
   31.6353    2.8270    0.4225 H   0  0  0  0  0  0  0  0  0  0  0  0
   24.5618    2.3638    1.3445 H   0  0  0  0  0  0  0  0  0  0  0  0
   24.5229   -0.9399    3.8578 H   0  0  0  0  0  0  0  0  0  0  0  0
   25.8624    0.6604   -1.1196 H   0  0  0  0  0  0  0  0  0  0  0  0
   27.5131   -0.5523    2.4911 H   0  0  0  0  0  0  0  0  0  0  0  0
   24.4520   -0.2314    0.5389 H   0  0  0  0  0  0  0  0  0  0  0  0
   25.1156   -1.2553    1.6243 H   0  0  0  0  0  0  0  0  0  0  0  0
   32.0238    3.0668   -2.4521 H   0  0  0  0  0  0  0  0  0  0  0  0
  1  3  1  0  0  0  0
  1 17  1  0  0  0  0
  2  4  1  0  0  0  0
  2 18  1  0  0  0  0
  3 18  1  0  0  0  0
  4  5  1  0  0  0  0
  5 11  1  0  0  0  0
  6  7  2  0  0  0  0
  6  8  1  0  0  0  0
  7 12  1  0  0  0  0
  8 13  2  0  0  0  0
  9 14  2  0  0  0  0
  9 17  1  0  0  0  0
 10 15  1  0  0  0  0
 10 17  2  0  0  0  0
 11 18  1  0  0  0  0
 12 19  2  0  0  0  0
 13 19  1  0  0  0  0
 14 20  1  0  0  0  0
 15 20  2  0  0  0  0
 16 19  1  0  0  0  0
 16 20  1  0  0  0  0
  2 21  1  0  0  0  0
  3 22  1  0  0  0  0
  3 23  1  0  0  0  0
  4 24  1  0  0  0  0
  4 25  1  0  0  0  0
  5 26  1  0  0  0  0
  5 27  1  0  0  0  0
  6 28  1  0  0  0  0
  7 29  1  0  0  0  0
  8 30  1  0  0  0  0
  9 31  1  0  0  0  0
 10 32  1  0  0  0  0
 11 33  1  0  0  0  0
 11 34  1  0  0  0  0
 12 35  1  0  0  0  0
 13 36  1  0  0  0  0
 14 37  1  0  0  0  0
 15 38  1  0  0  0  0
 16 39  1  0  0  0  0
 16 40  1  0  0  0  0
 18 41  1  0  0  0  0
M  END
> <pdb_id>
3FH5

> <uniprot_id>
P09960

> <usmiles>
O(c1ccc(cc1)Cc2ccccc2)C[C@@H]3NCCC3

$$$$
24U_H_801
          07202416143D 1   1.00000     0.00000     0
            
 47 48  0  0  0  0            999 V2000
   11.8776  -13.4343   15.4081 O   0  0  0  0  0  0  0  0  0  0  0  0
   11.9419  -13.4405   12.3736 O   0  0  0  0  0  0  0  0  0  0  0  0
   18.3610  -12.3235   11.1420 N   0  0  0  0  0  0  0  0  0  0  0  0
   18.0105  -10.0849   10.7896 N   0  0  0  0  0  0  0  0  0  0  0  0
   12.2537  -11.2478   14.9042 N   0  0  0  0  0  0  0  0  0  0  0  0
    9.9827  -13.6058   13.5518 N   0  0  0  0  0  0  0  0  0  0  0  0
    9.6678  -14.6565   10.1473 C   0  0  0  0  0  0  0  0  0  0  0  0
   13.5583  -11.3761   15.5874 C   0  0  0  0  0  0  0  0  0  0  0  0
    8.9492  -14.4823   14.1254 C   0  0  0  0  0  0  0  0  0  0  0  0
   10.8942  -15.4697   10.6479 C   0  0  0  0  0  0  0  0  0  0  0  0
    8.0168  -13.3837   14.6894 C   0  0  0  0  0  0  0  0  0  0  0  0
   10.9052  -15.5106   12.2075 C   0  0  0  0  0  0  0  0  0  0  0  0
    9.0365  -12.4061   15.3311 C   0  0  0  0  0  0  0  0  0  0  0  0
   15.1319  -12.5112   13.9533 C   0  0  0  0  0  0  0  0  0  0  0  0
   15.1468  -10.0923   14.0640 C   0  0  0  0  0  0  0  0  0  0  0  0
   16.1125  -12.4580   12.9743 C   0  0  0  0  0  0  0  0  0  0  0  0
   16.1314  -10.0451   13.0810 C   0  0  0  0  0  0  0  0  0  0  0  0
   17.7478  -11.2077   11.4024 C   0  0  0  0  0  0  0  0  0  0  0  0
   11.5065  -12.3771   14.9111 C   0  0  0  0  0  0  0  0  0  0  0  0
   10.9591  -14.0836   12.7397 C   0  0  0  0  0  0  0  0  0  0  0  0
   10.1488  -12.3279   14.2421 C   0  0  1  0  0  0  0  0  0  0  0  0
   14.6436  -11.3158   14.5043 C   0  0  0  0  0  0  0  0  0  0  0  0
   16.6097  -11.2305   12.5411 C   0  0  0  0  0  0  0  0  0  0  0  0
   18.1198  -13.1551   11.6423 H   0  0  0  0  0  0  0  0  0  0  0  0
   19.0740  -12.3505   10.4414 H   0  0  0  0  0  0  0  0  0  0  0  0
   17.5076   -9.2546   11.0298 H   0  0  0  0  0  0  0  0  0  0  0  0
   11.9487  -10.3985   14.4732 H   0  0  0  0  0  0  0  0  0  0  0  0
    9.6678  -14.6348    9.1475 H   0  0  0  0  0  0  0  0  0  0  0  0
    8.8264  -15.0889   10.4713 H   0  0  0  0  0  0  0  0  0  0  0  0
    9.7203  -13.7226   10.5009 H   0  0  0  0  0  0  0  0  0  0  0  0
   13.6066  -12.2489   16.0731 H   0  0  0  0  0  0  0  0  0  0  0  0
   13.6803  -10.6258   16.2372 H   0  0  0  0  0  0  0  0  0  0  0  0
    9.3126  -15.0753   14.8439 H   0  0  0  0  0  0  0  0  0  0  0  0
    8.4978  -15.0405   13.4291 H   0  0  0  0  0  0  0  0  0  0  0  0
   11.7345  -15.0365   10.3218 H   0  0  0  0  0  0  0  0  0  0  0  0
   10.8406  -16.4028   10.2923 H   0  0  0  0  0  0  0  0  0  0  0  0
    7.3877  -13.7546   15.3725 H   0  0  0  0  0  0  0  0  0  0  0  0
    7.4944  -12.9397   13.9614 H   0  0  0  0  0  0  0  0  0  0  0  0
   11.7070  -16.0172   12.5241 H   0  0  0  0  0  0  0  0  0  0  0  0
   10.0751  -15.9604   12.5371 H   0  0  0  0  0  0  0  0  0  0  0  0
    9.3957  -12.7697   16.1906 H   0  0  0  0  0  0  0  0  0  0  0  0
    8.6255  -11.5093   15.4944 H   0  0  0  0  0  0  0  0  0  0  0  0
   14.7760  -13.3925   14.2638 H   0  0  0  0  0  0  0  0  0  0  0  0
   14.7977   -9.2419   14.4576 H   0  0  0  0  0  0  0  0  0  0  0  0
   16.4648  -13.3054   12.5770 H   0  0  0  0  0  0  0  0  0  0  0  0
   16.4902   -9.1660   12.7672 H   0  0  0  0  0  0  0  0  0  0  0  0
   10.0432  -11.5409   13.6342 H   0  0  0  0  0  0  0  0  0  0  0  0
  1 19  2  0  0  0  0
  2 20  2  0  0  0  0
  3 18  1  0  0  0  0
  4 18  2  0  0  0  0
  5  8  1  0  0  0  0
  5 19  1  0  0  0  0
  6  9  1  0  0  0  0
  6 20  1  0  0  0  0
  6 21  1  0  0  0  0
  7 10  1  0  0  0  0
  8 22  1  0  0  0  0
  9 11  1  0  0  0  0
 10 12  1  0  0  0  0
 11 13  1  0  0  0  0
 12 20  1  0  0  0  0
 13 21  1  0  0  0  0
 14 16  1  0  0  0  0
 14 22  2  0  0  0  0
 15 17  2  0  0  0  0
 15 22  1  0  0  0  0
 16 23  2  0  0  0  0
 17 23  1  0  0  0  0
 18 23  1  0  0  0  0
 19 21  1  0  0  0  0
  3 24  1  0  0  0  0
  3 25  1  0  0  0  0
  4 26  1  0  0  0  0
  5 27  1  0  0  0  0
  7 28  1  0  0  0  0
  7 29  1  0  0  0  0
  7 30  1  0  0  0  0
  8 31  1  0  0  0  0
  8 32  1  0  0  0  0
  9 33  1  0  0  0  0
  9 34  1  0  0  0  0
 10 35  1  0  0  0  0
 10 36  1  0  0  0  0
 11 37  1  0  0  0  0
 11 38  1  0  0  0  0
 12 39  1  0  0  0  0
 12 40  1  0  0  0  0
 13 41  1  0  0  0  0
 13 42  1  0  0  0  0
 14 43  1  0  0  0  0
 15 44  1  0  0  0  0
 16 45  1  0  0  0  0
 17 46  1  0  0  0  0
 21 47  1  0  0  0  0
M  END
> <pdb_id>
2ZI2

> <uniprot_id>
P00734

> <usmiles>
O=C(N1[C@H](C(=O)NCc2ccc(cc2)C(=N)N)CCC1)CCC

$$$$
254_A_450
          07192417143D 1   1.00000     0.00000     0
            
 57 60  0  0  0  0            999 V2000
   38.8160   12.0060   85.0150 O   0  0  0  0  0  0  0  0  0  0  0  0
   33.9460   17.8990   89.4960 O   0  0  0  0  0  0  0  0  0  0  0  0
   34.3440   19.3010   87.8490 O   0  0  0  0  0  0  0  0  0  0  0  0
   39.9290   12.5750   84.4770 N   0  0  0  0  0  0  0  0  0  0  0  0
   44.7610   17.2230   81.7530 C   0  0  0  0  0  0  0  0  0  0  0  0
   46.0920   15.3970   82.8230 C   0  0  0  0  0  0  0  0  0  0  0  0
   42.2530   13.7000   79.6710 C   0  0  0  0  0  0  0  0  0  0  0  0
   43.2180   11.8570   81.0480 C   0  0  0  0  0  0  0  0  0  0  0  0
   35.5970   15.9690   88.4400 C   0  0  0  0  0  0  0  0  0  0  0  0
   38.9400   16.1130   84.7060 C   0  0  0  0  0  0  0  0  0  0  0  0
   36.5130   15.0790   87.8920 C   0  0  0  0  0  0  0  0  0  0  0  0
   38.0800   17.0570   85.1760 C   0  0  0  0  0  0  0  0  0  0  0  0
   42.0870   15.4270   84.4090 C   0  0  0  0  0  0  0  0  0  0  0  0
   43.1920   15.8040   83.7470 C   0  0  0  0  0  0  0  0  0  0  0  0
   44.9870   15.1890   80.4830 C   0  0  0  0  0  0  0  0  0  0  0  0
   44.6680   13.7450   80.3470 C   0  0  0  0  0  0  0  0  0  0  0  0
   36.3270   17.6400   86.8010 C   0  0  0  0  0  0  0  0  0  0  0  0
   38.2610   14.4850   86.2710 C   0  0  0  0  0  0  0  0  0  0  0  0
   41.6950   13.7340   82.7510 C   0  0  0  0  0  0  0  0  0  0  0  0
   34.5290   18.2070   88.4740 C   0  0  0  0  0  0  0  0  0  0  0  0
   40.0980   13.8980   84.5460 C   0  0  0  0  0  0  0  0  0  0  0  0
   35.5050   17.2840   87.8740 C   0  0  0  0  0  0  0  0  0  0  0  0
   39.0980   14.7970   85.2080 C   0  0  0  0  0  0  0  0  0  0  0  0
   41.3030   14.3980   83.9430 C   0  0  0  0  0  0  0  0  0  0  0  0
   37.2450   16.7270   86.2600 C   0  0  0  0  0  0  0  0  0  0  0  0
   37.3450   15.4230   86.8080 C   0  0  0  0  0  0  0  0  0  0  0  0
   43.6020   15.1700   82.5710 C   0  0  0  0  0  0  0  0  0  0  0  0
   42.8340   14.1030   82.0500 C   0  0  0  0  0  0  0  0  0  0  0  0
   44.8750   15.6980   81.9340 C   0  0  0  0  0  0  0  0  0  0  0  0
   43.2380   13.3710   80.7710 C   0  0  0  0  0  0  0  0  0  0  0  0
   38.6867   11.0157   84.9649 H   0  0  0  0  0  0  0  0  0  0  0  0
   34.1391   17.0225   89.9370 H   0  0  0  0  0  0  0  0  0  0  0  0
   43.9718   17.4321   81.1756 H   0  0  0  0  0  0  0  0  0  0  0  0
   44.6447   17.6569   82.6464 H   0  0  0  0  0  0  0  0  0  0  0  0
   45.5925   17.5703   81.3195 H   0  0  0  0  0  0  0  0  0  0  0  0
   46.1770   14.4085   82.9482 H   0  0  0  0  0  0  0  0  0  0  0  0
   46.9194   15.7500   82.3861 H   0  0  0  0  0  0  0  0  0  0  0  0
   45.9715   15.8366   83.7131 H   0  0  0  0  0  0  0  0  0  0  0  0
   42.2682   14.6840   79.4933 H   0  0  0  0  0  0  0  0  0  0  0  0
   42.5060   13.2070   78.8386 H   0  0  0  0  0  0  0  0  0  0  0  0
   41.3337   13.4265   79.9540 H   0  0  0  0  0  0  0  0  0  0  0  0
   43.8699   11.6426   81.7754 H   0  0  0  0  0  0  0  0  0  0  0  0
   42.2994   11.5822   81.3320 H   0  0  0  0  0  0  0  0  0  0  0  0
   43.4717   11.3626   80.2166 H   0  0  0  0  0  0  0  0  0  0  0  0
   35.0171   15.6997   89.2089 H   0  0  0  0  0  0  0  0  0  0  0  0
   39.5164   16.3730   83.9313 H   0  0  0  0  0  0  0  0  0  0  0  0
   36.5843   14.1607   88.2813 H   0  0  0  0  0  0  0  0  0  0  0  0
   38.0420   17.9657   84.7602 H   0  0  0  0  0  0  0  0  0  0  0  0
   41.8307   15.9004   85.2517 H   0  0  0  0  0  0  0  0  0  0  0  0
   43.7381   16.5610   84.1059 H   0  0  0  0  0  0  0  0  0  0  0  0
   44.3522   15.7104   79.9127 H   0  0  0  0  0  0  0  0  0  0  0  0
   45.9227   15.3398   80.1640 H   0  0  0  0  0  0  0  0  0  0  0  0
   45.3085   13.2278   80.9147 H   0  0  0  0  0  0  0  0  0  0  0  0
   44.7883   13.4865   79.3885 H   0  0  0  0  0  0  0  0  0  0  0  0
   36.2598   18.5592   86.4130 H   0  0  0  0  0  0  0  0  0  0  0  0
   38.3061   13.5692   86.6702 H   0  0  0  0  0  0  0  0  0  0  0  0
   41.1351   12.9800   82.4074 H   0  0  0  0  0  0  0  0  0  0  0  0
  1  4  1  0  0  0  0
  2 20  1  0  0  0  0
  3 20  2  0  0  0  0
  4 21  2  0  0  0  0
  5 29  1  0  0  0  0
  6 29  1  0  0  0  0
  7 30  1  0  0  0  0
  8 30  1  0  0  0  0
  9 11  2  0  0  0  0
  9 22  1  0  0  0  0
 10 12  1  0  0  0  0
 10 23  2  0  0  0  0
 11 26  1  0  0  0  0
 12 25  2  0  0  0  0
 13 14  1  0  0  0  0
 13 24  2  0  0  0  0
 14 27  2  0  0  0  0
 15 16  1  0  0  0  0
 15 29  1  0  0  0  0
 16 30  1  0  0  0  0
 17 22  2  0  0  0  0
 17 25  1  0  0  0  0
 18 23  1  0  0  0  0
 18 26  2  0  0  0  0
 19 24  1  0  0  0  0
 19 28  2  0  0  0  0
 20 22  1  0  0  0  0
 21 23  1  0  0  0  0
 21 24  1  0  0  0  0
 25 26  1  0  0  0  0
 27 28  1  0  0  0  0
 27 29  1  0  0  0  0
 28 30  1  0  0  0  0
  1 31  1  0  0  0  0
  2 32  1  0  0  0  0
  5 33  1  0  0  0  0
  5 34  1  0  0  0  0
  5 35  1  0  0  0  0
  6 36  1  0  0  0  0
  6 37  1  0  0  0  0
  6 38  1  0  0  0  0
  7 39  1  0  0  0  0
  7 40  1  0  0  0  0
  7 41  1  0  0  0  0
  8 42  1  0  0  0  0
  8 43  1  0  0  0  0
  8 44  1  0  0  0  0
  9 45  1  0  0  0  0
 10 46  1  0  0  0  0
 11 47  1  0  0  0  0
 12 48  1  0  0  0  0
 13 49  1  0  0  0  0
 14 50  1  0  0  0  0
 15 51  1  0  0  0  0
 15 52  1  0  0  0  0
 16 53  1  0  0  0  0
 16 54  1  0  0  0  0
 17 55  1  0  0  0  0
 18 56  1  0  0  0  0
 19 57  1  0  0  0  0
M  END
> <pdb_id>
1FD0

> <uniprot_id>
P13631

> <usmiles>
O=C(O)c1cc2c(cc(cc2)C(=NO)c3cc4c(cc3)C(CCC4(C)C)(C)C)cc1

$$$$
25Q_A_1001
          07202415313D 1   1.00000     0.00000     0
            
 40 43  0  0  0  0            999 V2000
   19.4156  -12.6298   26.5950 O   0  0  0  0  0  0  0  0  0  0  0  0
   23.6324   -6.9763   23.7343 O   0  0  0  0  0  0  0  0  0  0  0  0
   19.0109  -14.2998   25.1399 N   0  0  0  0  0  0  0  0  0  0  0  0
   19.9854   -9.9582   25.5950 N   0  0  0  0  0  0  0  0  0  0  0  0
   20.4538  -11.2105   20.9184 N   0  0  0  0  0  0  0  0  0  0  0  0
   19.7138  -13.6467   22.3124 N   0  0  0  0  0  0  0  0  0  0  0  0
   20.2637  -10.2378   23.2125 N   0  0  0  0  0  0  0  0  0  0  0  0
   24.2626   -7.8560   24.6575 C   0  0  0  0  0  0  0  0  0  0  0  0
   20.3622  -13.6442   18.2031 C   0  0  0  0  0  0  0  0  0  0  0  0
   20.0081  -14.8161   18.8728 C   0  0  0  0  0  0  0  0  0  0  0  0
   20.3950   -6.7362   22.0627 C   0  0  0  0  0  0  0  0  0  0  0  0
   21.6392   -6.3587   22.5430 C   0  0  0  0  0  0  0  0  0  0  0  0
   20.5124  -12.4380   18.8839 C   0  0  0  0  0  0  0  0  0  0  0  0
   19.7882  -14.8240   20.2486 C   0  0  0  0  0  0  0  0  0  0  0  0
   19.9092   -8.0278   22.2642 C   0  0  0  0  0  0  0  0  0  0  0  0
   21.8852   -8.5714   23.4300 C   0  0  0  0  0  0  0  0  0  0  0  0
   19.3586  -13.0539   25.4508 C   0  0  0  0  0  0  0  0  0  0  0  0
   22.3893   -7.2898   23.2401 C   0  0  0  0  0  0  0  0  0  0  0  0
   20.0240  -10.6895   24.4526 C   0  0  0  0  0  0  0  0  0  0  0  0
   20.2467  -11.1932   22.2550 C   0  0  0  0  0  0  0  0  0  0  0  0
   20.3080  -12.3888   20.2585 C   0  0  0  0  0  0  0  0  0  0  0  0
   19.9248  -13.6460   20.9758 C   0  0  0  0  0  0  0  0  0  0  0  0
   19.8688  -12.4633   22.9401 C   0  0  0  0  0  0  0  0  0  0  0  0
   20.6348   -8.9821   22.9728 C   0  0  0  0  0  0  0  0  0  0  0  0
   19.7195  -12.1147   24.3722 C   0  0  0  0  0  0  0  0  0  0  0  0
   18.9831  -14.5870   24.1824 H   0  0  0  0  0  0  0  0  0  0  0  0
   18.7773  -14.9491   25.8636 H   0  0  0  0  0  0  0  0  0  0  0  0
   19.7959  -10.4057   26.4690 H   0  0  0  0  0  0  0  0  0  0  0  0
   20.1464   -8.9717   25.5628 H   0  0  0  0  0  0  0  0  0  0  0  0
   25.1541   -7.4843   24.9167 H   0  0  0  0  0  0  0  0  0  0  0  0
   23.6907   -7.9495   25.4724 H   0  0  0  0  0  0  0  0  0  0  0  0
   24.3862   -8.7527   24.2323 H   0  0  0  0  0  0  0  0  0  0  0  0
   20.5111  -13.6707   17.2146 H   0  0  0  0  0  0  0  0  0  0  0  0
   19.9104  -15.6663   18.3555 H   0  0  0  0  0  0  0  0  0  0  0  0
   19.8373   -6.0725   21.5642 H   0  0  0  0  0  0  0  0  0  0  0  0
   21.9873   -5.4339   22.3893 H   0  0  0  0  0  0  0  0  0  0  0  0
   20.7666  -11.6094   18.3851 H   0  0  0  0  0  0  0  0  0  0  0  0
   19.5333  -15.6730   20.7115 H   0  0  0  0  0  0  0  0  0  0  0  0
   19.0157   -8.2753   21.8897 H   0  0  0  0  0  0  0  0  0  0  0  0
   22.4504   -9.2342   23.9213 H   0  0  0  0  0  0  0  0  0  0  0  0
  1 17  2  0  0  0  0
  2  8  1  0  0  0  0
  2 18  1  0  0  0  0
  3 17  1  0  0  0  0
  4 19  1  0  0  0  0
  5 20  2  0  0  0  0
  5 21  1  0  0  0  0
  6 22  1  0  0  0  0
  6 23  2  0  0  0  0
  7 19  1  0  0  0  0
  7 20  1  0  0  0  0
  7 24  1  0  0  0  0
  9 10  2  0  0  0  0
  9 13  1  0  0  0  0
 10 14  1  0  0  0  0
 11 12  2  0  0  0  0
 11 15  1  0  0  0  0
 12 18  1  0  0  0  0
 13 21  2  0  0  0  0
 14 22  2  0  0  0  0
 15 24  2  0  0  0  0
 16 18  2  0  0  0  0
 16 24  1  0  0  0  0
 17 25  1  0  0  0  0
 19 25  2  0  0  0  0
 20 23  1  0  0  0  0
 21 22  1  0  0  0  0
 23 25  1  0  0  0  0
  3 26  1  0  0  0  0
  3 27  1  0  0  0  0
  4 28  1  0  0  0  0
  4 29  1  0  0  0  0
  8 30  1  0  0  0  0
  8 31  1  0  0  0  0
  8 32  1  0  0  0  0
  9 33  1  0  0  0  0
 10 34  1  0  0  0  0
 11 35  1  0  0  0  0
 12 36  1  0  0  0  0
 13 37  1  0  0  0  0
 14 38  1  0  0  0  0
 15 39  1  0  0  0  0
 16 40  1  0  0  0  0
M  END
> <pdb_id>
4P4C

> <uniprot_id>
Q6P4R6

> <usmiles>
O=C(N)C=1c2nc3c(nc2N(c4cc(OC)ccc4)C1N)cccc3

$$$$
25U_A_201
          07202413363D 1   1.00000     0.00000     0
            
 43 45  0  0  0  0            999 V2000
   18.5679    7.5166    5.2316 N   0  0  0  0  0  0  0  0  0  0  0  0
   19.0945    7.8105    0.6259 N   0  0  0  0  0  0  0  0  0  0  0  0
   10.4371    4.0481   -2.6031 N   0  0  0  0  0  0  0  0  0  0  0  0
    9.6024    6.3223   -2.5779 N   0  0  0  0  0  0  0  0  0  0  0  0
   18.8251    7.6679    2.9524 N   0  0  0  0  0  0  0  0  0  0  0  0
   17.2848    6.0577    3.8467 N   0  0  0  0  0  0  0  0  0  0  0  0
   15.2308    3.9965    3.2341 C   0  0  0  0  0  0  0  0  0  0  0  0
    9.3647    4.9442   -2.5618 C   0  0  0  0  0  0  0  0  0  0  0  0
   11.7433    4.5317   -2.6571 C   0  0  0  0  0  0  0  0  0  0  0  0
   10.9144    6.8012   -2.6318 C   0  0  0  0  0  0  0  0  0  0  0  0
   14.8696    8.0100   -3.3898 C   0  0  0  0  0  0  0  0  0  0  0  0
   17.0084    5.4405   -0.9021 C   0  0  0  0  0  0  0  0  0  0  0  0
   16.0733    4.6612    2.1645 C   0  0  0  0  0  0  0  0  0  0  0  0
   15.9090    7.1420   -3.0811 C   0  0  0  0  0  0  0  0  0  0  0  0
   16.6547    4.9997   -2.2920 C   0  0  0  0  0  0  0  0  0  0  0  0
   13.5520    7.5978   -3.2400 C   0  0  0  0  0  0  0  0  0  0  0  0
   17.2897    5.8169    0.1810 C   0  0  0  0  0  0  0  0  0  0  0  0
   14.3122    5.4403   -2.5146 C   0  0  0  0  0  0  0  0  0  0  0  0
   18.2364    7.0928    4.0128 C   0  0  0  0  0  0  0  0  0  0  0  0
   18.5325    7.2686    1.7049 C   0  0  0  0  0  0  0  0  0  0  0  0
   16.9741    5.6550    2.5334 C   0  0  0  0  0  0  0  0  0  0  0  0
   15.6269    5.8583   -2.6330 C   0  0  0  0  0  0  0  0  0  0  0  0
   11.9713    5.9001   -2.6653 C   0  0  0  0  0  0  0  0  0  0  0  0
   13.2788    6.3385   -2.7195 C   0  0  0  0  0  0  0  0  0  0  0  0
   17.6242    6.2485    1.4779 C   0  0  0  0  0  0  0  0  0  0  0  0
   18.1431    7.1038    6.0372 H   0  0  0  0  0  0  0  0  0  0  0  0
   19.2416    8.2476    5.3407 H   0  0  0  0  0  0  0  0  0  0  0  0
   18.8467    7.4818   -0.2854 H   0  0  0  0  0  0  0  0  0  0  0  0
   19.7643    8.5462    0.7271 H   0  0  0  0  0  0  0  0  0  0  0  0
   19.4891    8.4021    3.0935 H   0  0  0  0  0  0  0  0  0  0  0  0
   14.6385    3.3097    2.8129 H   0  0  0  0  0  0  0  0  0  0  0  0
   15.8289    3.5557    3.9034 H   0  0  0  0  0  0  0  0  0  0  0  0
   14.6690    4.6855    3.6920 H   0  0  0  0  0  0  0  0  0  0  0  0
    8.4269    4.5995   -2.5207 H   0  0  0  0  0  0  0  0  0  0  0  0
   12.5133    3.8945   -2.6898 H   0  0  0  0  0  0  0  0  0  0  0  0
   11.0910    7.7854   -2.6462 H   0  0  0  0  0  0  0  0  0  0  0  0
   15.0701    8.9323   -3.7202 H   0  0  0  0  0  0  0  0  0  0  0  0
   15.9830    4.3893    1.2064 H   0  0  0  0  0  0  0  0  0  0  0  0
   16.8581    7.4407   -3.1812 H   0  0  0  0  0  0  0  0  0  0  0  0
   16.3472    4.0482   -2.3009 H   0  0  0  0  0  0  0  0  0  0  0  0
   17.4323    5.1044   -2.9120 H   0  0  0  0  0  0  0  0  0  0  0  0
   12.8028    8.2047   -3.5055 H   0  0  0  0  0  0  0  0  0  0  0  0
   14.1091    4.4894   -2.2811 H   0  0  0  0  0  0  0  0  0  0  0  0
  1 19  1  0  0  0  0
  2 20  1  0  0  0  0
  3  8  2  0  0  0  0
  3  9  1  0  0  0  0
  4  8  1  0  0  0  0
  4 10  2  0  0  0  0
  5 19  1  0  0  0  0
  5 20  1  0  0  0  0
  6 19  2  0  0  0  0
  6 21  1  0  0  0  0
  7 13  1  0  0  0  0
  9 23  2  0  0  0  0
 10 23  1  0  0  0  0
 11 14  2  0  0  0  0
 11 16  1  0  0  0  0
 12 15  1  0  0  0  0
 12 17  3  0  0  0  0
 13 21  2  0  0  0  0
 14 22  1  0  0  0  0
 15 22  1  0  0  0  0
 16 24  2  0  0  0  0
 17 25  1  0  0  0  0
 18 22  2  0  0  0  0
 18 24  1  0  0  0  0
 20 25  2  0  0  0  0
 21 25  1  0  0  0  0
 23 24  1  0  0  0  0
  1 26  1  0  0  0  0
  1 27  1  0  0  0  0
  2 28  1  0  0  0  0
  2 29  1  0  0  0  0
  5 30  1  0  0  0  0
  7 31  1  0  0  0  0
  7 32  1  0  0  0  0
  7 33  1  0  0  0  0
  8 34  1  0  0  0  0
  9 35  1  0  0  0  0
 10 36  1  0  0  0  0
 11 37  1  0  0  0  0
 13 38  1  0  0  0  0
 14 39  1  0  0  0  0
 15 40  1  0  0  0  0
 15 41  1  0  0  0  0
 16 42  1  0  0  0  0
 18 43  1  0  0  0  0
M  END
> <pdb_id>
4KBN

> <uniprot_id>
P00374

> <usmiles>
n1cncc(c2cc(ccc2)CC#CC=3\C(\N=C(NC3N)N)=C\C)c1

$$$$
26G_B_206
          07202408023D 1   1.00000     0.00000     0
            
 35 36  0  0  0  0            999 V2000
   27.0670    6.0750   15.1850 O   0  0  0  0  0  0  0  0  0  0  0  0
   19.9890    5.8450   18.7520 N   0  0  0  0  0  0  0  0  0  0  0  0
   20.8270    1.8980   19.7130 N   0  0  0  0  0  0  0  0  0  0  0  0
   19.7650    3.9230   20.1540 N   0  0  0  0  0  0  0  0  0  0  0  0
   19.3580    2.0300   21.6730 C   0  0  0  0  0  0  0  0  0  0  0  0
   26.7400    7.4500   15.1530 C   0  0  0  0  0  0  0  0  0  0  0  0
   21.4280    2.4030   18.6070 C   0  0  0  0  0  0  0  0  0  0  0  0
   24.3490    6.6680   18.8490 C   0  0  0  0  0  0  0  0  0  0  0  0
   25.2350    7.6640   15.2820 C   0  0  0  0  0  0  0  0  0  0  0  0
   24.9680    7.3020   17.7770 C   0  0  0  0  0  0  0  0  0  0  0  0
   23.3570    5.7020   18.6100 C   0  0  0  0  0  0  0  0  0  0  0  0
   23.5790    6.0240   16.2500 C   0  0  0  0  0  0  0  0  0  0  0  0
   21.8530    4.3580   16.9930 C   0  0  0  0  0  0  0  0  0  0  0  0
   20.0040    2.6470   20.4420 C   0  0  0  0  0  0  0  0  0  0  0  0
   20.3290    4.5170   19.0690 C   0  0  0  0  0  0  0  0  0  0  0  0
   24.5830    6.9710   16.4770 C   0  0  0  0  0  0  0  0  0  0  0  0
   22.9580    5.3830   17.3100 C   0  0  0  0  0  0  0  0  0  0  0  0
   21.1890    3.7540   18.2350 C   0  0  0  0  0  0  0  0  0  0  0  0
   28.0573    5.9658   15.0987 H   0  0  0  0  0  0  0  0  0  0  0  0
   20.3991    6.2897   17.9557 H   0  0  0  0  0  0  0  0  0  0  0  0
   19.3372    6.3442   19.3230 H   0  0  0  0  0  0  0  0  0  0  0  0
   18.7703    2.7071   22.1158 H   0  0  0  0  0  0  0  0  0  0  0  0
   18.8093    1.2395   21.4007 H   0  0  0  0  0  0  0  0  0  0  0  0
   20.0697    1.7377   22.3118 H   0  0  0  0  0  0  0  0  0  0  0  0
   27.0514    7.8390   14.2860 H   0  0  0  0  0  0  0  0  0  0  0  0
   27.2010    7.9124   15.9104 H   0  0  0  0  0  0  0  0  0  0  0  0
   22.0349    1.8291   18.0572 H   0  0  0  0  0  0  0  0  0  0  0  0
   24.6090    6.8988   19.7866 H   0  0  0  0  0  0  0  0  0  0  0  0
   24.8006    7.3203   14.4494 H   0  0  0  0  0  0  0  0  0  0  0  0
   25.0675    8.6464   15.3642 H   0  0  0  0  0  0  0  0  0  0  0  0
   25.6798    7.9862   17.9357 H   0  0  0  0  0  0  0  0  0  0  0  0
   22.9293    5.2349   19.3839 H   0  0  0  0  0  0  0  0  0  0  0  0
   23.3064    5.8072   15.3126 H   0  0  0  0  0  0  0  0  0  0  0  0
   22.2569    3.6149   16.4595 H   0  0  0  0  0  0  0  0  0  0  0  0
   21.1479    4.8135   16.4495 H   0  0  0  0  0  0  0  0  0  0  0  0
  1  6  1  0  0  0  0
  2 15  1  0  0  0  0
  3  7  1  0  0  0  0
  3 14  2  0  0  0  0
  4 14  1  0  0  0  0
  4 15  2  0  0  0  0
  5 14  1  0  0  0  0
  6  9  1  0  0  0  0
  7 18  2  0  0  0  0
  8 10  2  0  0  0  0
  8 11  1  0  0  0  0
  9 16  1  0  0  0  0
 10 16  1  0  0  0  0
 11 17  2  0  0  0  0
 12 16  2  0  0  0  0
 12 17  1  0  0  0  0
 13 17  1  0  0  0  0
 13 18  1  0  0  0  0
 15 18  1  0  0  0  0
  1 19  1  0  0  0  0
  2 20  1  0  0  0  0
  2 21  1  0  0  0  0
  5 22  1  0  0  0  0
  5 23  1  0  0  0  0
  5 24  1  0  0  0  0
  6 25  1  0  0  0  0
  6 26  1  0  0  0  0
  7 27  1  0  0  0  0
  8 28  1  0  0  0  0
  9 29  1  0  0  0  0
  9 30  1  0  0  0  0
 10 31  1  0  0  0  0
 11 32  1  0  0  0  0
 12 33  1  0  0  0  0
 13 34  1  0  0  0  0
 13 35  1  0  0  0  0
M  END
> <pdb_id>
4MES

> <uniprot_id>
D8KFM5

> <usmiles>
OCCc1cc(ccc1)Cc2c(nc(nc2)C)N

$$$$
26U_H_701
          07202416143D 1   1.00000     0.00000     0
            
 53 54  0  0  0  0            999 V2000
   11.8154  -13.5805   15.4245 O   0  0  0  0  0  0  0  0  0  0  0  0
   11.2562  -13.6777   12.4717 O   0  0  0  0  0  0  0  0  0  0  0  0
   18.3176  -12.3481   11.1452 N   0  0  0  0  0  0  0  0  0  0  0  0
   17.9148  -10.1226   10.8207 N   0  0  0  0  0  0  0  0  0  0  0  0
   12.2583  -11.4239   14.9820 N   0  0  0  0  0  0  0  0  0  0  0  0
    9.6394  -13.6202   13.8991 N   0  0  0  0  0  0  0  0  0  0  0  0
    6.5328  -14.4142   10.8280 C   0  0  0  0  0  0  0  0  0  0  0  0
    7.8527  -13.2190    8.9989 C   0  0  0  0  0  0  0  0  0  0  0  0
   13.5798  -11.5773   15.5934 C   0  0  0  0  0  0  0  0  0  0  0  0
    8.3814  -14.1947   14.3534 C   0  0  0  0  0  0  0  0  0  0  0  0
    8.0985  -13.2242   15.5025 C   0  0  0  0  0  0  0  0  0  0  0  0
    9.1158  -12.0741   15.4727 C   0  0  0  0  0  0  0  0  0  0  0  0
    9.4997  -15.2341   12.0601 C   0  0  0  0  0  0  0  0  0  0  0  0
    9.1003  -14.8497   10.6081 C   0  0  0  0  0  0  0  0  0  0  0  0
   15.1278  -12.6078   13.8566 C   0  0  0  0  0  0  0  0  0  0  0  0
   15.1915  -10.2221   14.1264 C   0  0  0  0  0  0  0  0  0  0  0  0
   16.0990  -12.5403   12.8672 C   0  0  0  0  0  0  0  0  0  0  0  0
   16.1697  -10.1576   13.1299 C   0  0  0  0  0  0  0  0  0  0  0  0
   17.7013  -11.2482   11.4035 C   0  0  0  0  0  0  0  0  0  0  0  0
   11.5406  -12.4815   14.9771 C   0  0  0  0  0  0  0  0  0  0  0  0
   10.1781  -14.1232   12.8367 C   0  0  0  0  0  0  0  0  0  0  0  0
   10.1499  -12.3555   14.3513 C   0  0  1  0  0  0  0  0  0  0  0  0
    7.9236  -13.8560   10.4187 C   0  0  0  0  0  0  0  0  0  0  0  0
   14.6614  -11.4682   14.4965 C   0  0  0  0  0  0  0  0  0  0  0  0
   16.6341  -11.3022   12.4910 C   0  0  0  0  0  0  0  0  0  0  0  0
   18.0872  -13.1806   11.6490 H   0  0  0  0  0  0  0  0  0  0  0  0
   19.0270  -12.3702   10.4407 H   0  0  0  0  0  0  0  0  0  0  0  0
   17.3878   -9.3149   11.0850 H   0  0  0  0  0  0  0  0  0  0  0  0
   11.9411  -10.5571   14.5973 H   0  0  0  0  0  0  0  0  0  0  0  0
    6.5917  -14.8199   11.7401 H   0  0  0  0  0  0  0  0  0  0  0  0
    5.8645  -13.6704   10.8366 H   0  0  0  0  0  0  0  0  0  0  0  0
    6.2469  -15.1116   10.1708 H   0  0  0  0  0  0  0  0  0  0  0  0
    8.7531  -12.8640    8.7475 H   0  0  0  0  0  0  0  0  0  0  0  0
    7.5709  -13.9127    8.3360 H   0  0  0  0  0  0  0  0  0  0  0  0
    7.1885  -12.4715    9.0018 H   0  0  0  0  0  0  0  0  0  0  0  0
   13.6417  -12.4715   16.0366 H   0  0  0  0  0  0  0  0  0  0  0  0
   13.7194  -10.8577   16.2736 H   0  0  0  0  0  0  0  0  0  0  0  0
    8.4894  -15.1364   14.6721 H   0  0  0  0  0  0  0  0  0  0  0  0
    7.6739  -14.1608   13.6475 H   0  0  0  0  0  0  0  0  0  0  0  0
    8.1719  -13.7102   16.3734 H   0  0  0  0  0  0  0  0  0  0  0  0
    7.1750  -12.8535   15.4045 H   0  0  0  0  0  0  0  0  0  0  0  0
    9.5832  -12.0151   16.3548 H   0  0  0  0  0  0  0  0  0  0  0  0
    8.6440  -11.2121   15.2872 H   0  0  0  0  0  0  0  0  0  0  0  0
   10.1255  -16.0129   12.0167 H   0  0  0  0  0  0  0  0  0  0  0  0
    8.6710  -15.4994   12.5528 H   0  0  0  0  0  0  0  0  0  0  0  0
    8.8561  -15.6948   10.1326 H   0  0  0  0  0  0  0  0  0  0  0  0
    9.9053  -14.4442   10.1751 H   0  0  0  0  0  0  0  0  0  0  0  0
   14.7552  -13.4992   14.1145 H   0  0  0  0  0  0  0  0  0  0  0  0
   14.8715   -9.3863   14.5726 H   0  0  0  0  0  0  0  0  0  0  0  0
   16.4172  -13.3775   12.4222 H   0  0  0  0  0  0  0  0  0  0  0  0
   16.5444   -9.2675   12.8704 H   0  0  0  0  0  0  0  0  0  0  0  0
   10.1229  -11.6608   13.6325 H   0  0  0  0  0  0  0  0  0  0  0  0
    8.1059  -13.0987   11.0457 H   0  0  0  0  0  0  0  0  0  0  0  0
  1 20  2  0  0  0  0
  2 21  2  0  0  0  0
  3 19  1  0  0  0  0
  4 19  2  0  0  0  0
  5  9  1  0  0  0  0
  5 20  1  0  0  0  0
  6 10  1  0  0  0  0
  6 21  1  0  0  0  0
  6 22  1  0  0  0  0
  7 23  1  0  0  0  0
  8 23  1  0  0  0  0
  9 24  1  0  0  0  0
 10 11  1  0  0  0  0
 11 12  1  0  0  0  0
 12 22  1  0  0  0  0
 13 14  1  0  0  0  0
 13 21  1  0  0  0  0
 14 23  1  0  0  0  0
 15 17  1  0  0  0  0
 15 24  2  0  0  0  0
 16 18  2  0  0  0  0
 16 24  1  0  0  0  0
 17 25  2  0  0  0  0
 18 25  1  0  0  0  0
 19 25  1  0  0  0  0
 20 22  1  0  0  0  0
  3 26  1  0  0  0  0
  3 27  1  0  0  0  0
  4 28  1  0  0  0  0
  5 29  1  0  0  0  0
  7 30  1  0  0  0  0
  7 31  1  0  0  0  0
  7 32  1  0  0  0  0
  8 33  1  0  0  0  0
  8 34  1  0  0  0  0
  8 35  1  0  0  0  0
  9 36  1  0  0  0  0
  9 37  1  0  0  0  0
 10 38  1  0  0  0  0
 10 39  1  0  0  0  0
 11 40  1  0  0  0  0
 11 41  1  0  0  0  0
 12 42  1  0  0  0  0
 12 43  1  0  0  0  0
 13 44  1  0  0  0  0
 13 45  1  0  0  0  0
 14 46  1  0  0  0  0
 14 47  1  0  0  0  0
 15 48  1  0  0  0  0
 16 49  1  0  0  0  0
 17 50  1  0  0  0  0
 18 51  1  0  0  0  0
 22 52  1  0  0  0  0
 23 53  1  0  0  0  0
M  END
> <pdb_id>
2ZIQ

> <uniprot_id>
P00734

> <usmiles>
O=C(N1[C@H](C(=O)NCc2ccc(cc2)C(=N)N)CCC1)CCC(C)C

$$$$
26Z_A_495
          07192421083D 1   1.00000     0.00000     0
            
 41 43  0  0  0  0            999 V2000
    0.9011   28.2698    7.7309 S   0  0  0  0  0  0  0  0  0  0  0  0
    6.5350   24.0225    7.2630 S   0  0  0  0  0  0  0  0  0  0  0  0
    7.5750   24.5255    8.1321 O   0  0  0  0  0  0  0  0  0  0  0  0
    7.1225   23.5257    6.0223 O   0  0  0  0  0  0  0  0  0  0  0  0
   -1.8017   30.8636    8.8836 O   0  0  0  0  0  0  0  0  0  0  0  0
    5.6785   22.8042    8.0597 N   0  0  0  0  0  0  0  0  0  0  0  0
   -0.5290   26.0171   11.8364 N   0  0  0  0  0  0  0  0  0  0  0  0
    0.1492   31.9517    7.4238 N   0  0  0  0  0  0  0  0  0  0  0  0
    1.7425   30.4347    6.6445 N   0  0  0  0  0  0  0  0  0  0  0  0
    3.0424   28.6415    6.1184 N   0  0  0  0  0  0  0  0  0  0  0  0
   -3.5663   27.3309   10.3593 C   0  0  0  0  0  0  0  0  0  0  0  0
   -2.6976   26.5048   11.1227 C   0  0  0  0  0  0  0  0  0  0  0  0
    4.4140   25.6848    7.8391 C   0  0  0  0  0  0  0  0  0  0  0  0
    5.6700   26.1747    5.7796 C   0  0  0  0  0  0  0  0  0  0  0  0
   -3.0550   28.4248    9.6105 C   0  0  0  0  0  0  0  0  0  0  0  0
    3.5680   26.7883    7.5864 C   0  0  0  0  0  0  0  0  0  0  0  0
    4.8362   27.2673    5.5266 C   0  0  0  0  0  0  0  0  0  0  0  0
   -0.7815   27.8767   10.3919 C   0  0  0  0  0  0  0  0  0  0  0  0
    2.0075   29.1545    6.7490 C   0  0  0  0  0  0  0  0  0  0  0  0
    5.4635   25.3834    6.9351 C   0  0  0  0  0  0  0  0  0  0  0  0
   -0.0196   29.7056    8.0560 C   0  0  0  0  0  0  0  0  0  0  0  0
   -1.3080   26.7717   11.1448 C   0  0  0  0  0  0  0  0  0  0  0  0
    0.5940   30.7600    7.3818 C   0  0  0  0  0  0  0  0  0  0  0  0
   -1.1785   29.7995    8.8544 C   0  0  0  0  0  0  0  0  0  0  0  0
    3.7688   27.6006    6.4217 C   0  0  0  0  0  0  0  0  0  0  0  0
   -1.6594   28.7148    9.6120 C   0  0  0  0  0  0  0  0  0  0  0  0
    4.9587   22.4555    7.4594 H   0  0  0  0  0  0  0  0  0  0  0  0
    6.3023   22.0602    8.2992 H   0  0  0  0  0  0  0  0  0  0  0  0
    0.4541   26.1989   11.8573 H   0  0  0  0  0  0  0  0  0  0  0  0
   -0.9065   25.2488   12.3532 H   0  0  0  0  0  0  0  0  0  0  0  0
   -0.6713   32.1607    7.9559 H   0  0  0  0  0  0  0  0  0  0  0  0
    0.6202   32.6791    6.9247 H   0  0  0  0  0  0  0  0  0  0  0  0
    3.3122   29.1203    5.2830 H   0  0  0  0  0  0  0  0  0  0  0  0
   -4.5479   27.1403   10.3491 H   0  0  0  0  0  0  0  0  0  0  0  0
   -3.0679   25.7358   11.6437 H   0  0  0  0  0  0  0  0  0  0  0  0
    4.2729   25.1192    8.6516 H   0  0  0  0  0  0  0  0  0  0  0  0
    6.4109   25.9523    5.1458 H   0  0  0  0  0  0  0  0  0  0  0  0
   -3.6795   28.9961    9.0779 H   0  0  0  0  0  0  0  0  0  0  0  0
    2.8267   27.0036    8.2221 H   0  0  0  0  0  0  0  0  0  0  0  0
    4.9867   27.8240    4.7096 H   0  0  0  0  0  0  0  0  0  0  0  0
    0.2003   28.0661   10.4086 H   0  0  0  0  0  0  0  0  0  0  0  0
  1 19  1  0  0  0  0
  1 21  1  0  0  0  0
  2  3  2  0  0  0  0
  2  4  2  0  0  0  0
  2  6  1  0  0  0  0
  2 20  1  0  0  0  0
  5 24  2  0  0  0  0
  7 22  1  0  0  0  0
  8 23  1  0  0  0  0
  9 19  2  0  0  0  0
  9 23  1  0  0  0  0
 10 19  1  0  0  0  0
 10 25  1  0  0  0  0
 11 12  1  0  0  0  0
 11 15  2  0  0  0  0
 12 22  2  0  0  0  0
 13 16  1  0  0  0  0
 13 20  2  0  0  0  0
 14 17  2  0  0  0  0
 14 20  1  0  0  0  0
 15 26  1  0  0  0  0
 16 25  2  0  0  0  0
 17 25  1  0  0  0  0
 18 22  1  0  0  0  0
 18 26  2  0  0  0  0
 21 23  2  0  0  0  0
 21 24  1  0  0  0  0
 24 26  1  0  0  0  0
  6 27  1  0  0  0  0
  6 28  1  0  0  0  0
  7 29  1  0  0  0  0
  7 30  1  0  0  0  0
  8 31  1  0  0  0  0
  8 32  1  0  0  0  0
 10 33  1  0  0  0  0
 11 34  1  0  0  0  0
 12 35  1  0  0  0  0
 13 36  1  0  0  0  0
 14 37  1  0  0  0  0
 15 38  1  0  0  0  0
 16 39  1  0  0  0  0
 17 40  1  0  0  0  0
 18 41  1  0  0  0  0
M  END
> <pdb_id>
3RPV

> <uniprot_id>
P24941

> <usmiles>
S(=O)(=O)(N)c1ccc(NC=2SC(C(=O)c3cc(N)ccc3)=C(N2)N)cc1

$$$$
270_A_246
          07192419343D 1   1.00000     0.00000     0
            
 17 18  0  0  0  0            999 V2000
   46.8373   17.4167   53.4600 N   0  0  0  0  0  0  0  0  0  0  0  0
   45.9917   18.2763   51.5130 N   0  0  0  0  0  0  0  0  0  0  0  0
   46.9531   19.6585   52.9007 N   0  0  0  0  0  0  0  0  0  0  0  0
   45.6394   21.1781   49.4032 C   0  0  0  0  0  0  0  0  0  0  0  0
   46.2618   22.0772   50.2979 C   0  0  0  0  0  0  0  0  0  0  0  0
   45.4908   19.8245   49.7367 C   0  0  0  0  0  0  0  0  0  0  0  0
   46.7659   21.6491   51.5555 C   0  0  0  0  0  0  0  0  0  0  0  0
   46.5745   18.4183   52.6787 C   0  0  0  0  0  0  0  0  0  0  0  0
   45.9895   19.4511   50.9641 C   0  0  0  0  0  0  0  0  0  0  0  0
   46.5983   20.3146   51.8347 C   0  0  0  0  0  0  0  0  0  0  0  0
   47.2836   17.5736   54.3410 H   0  0  0  0  0  0  0  0  0  0  0  0
   46.5937   16.4878   53.1812 H   0  0  0  0  0  0  0  0  0  0  0  0
   45.6229   17.4316   51.1250 H   0  0  0  0  0  0  0  0  0  0  0  0
   45.3012   21.5107   48.5229 H   0  0  0  0  0  0  0  0  0  0  0  0
   46.3498   23.0392   50.0395 H   0  0  0  0  0  0  0  0  0  0  0  0
   45.0501   19.1711   49.1213 H   0  0  0  0  0  0  0  0  0  0  0  0
   47.2122   22.2764   52.1938 H   0  0  0  0  0  0  0  0  0  0  0  0
  1  8  1  0  0  0  0
  2  8  1  0  0  0  0
  2  9  1  0  0  0  0
  3  8  2  0  0  0  0
  3 10  1  0  0  0  0
  4  5  2  0  0  0  0
  4  6  1  0  0  0  0
  5  7  1  0  0  0  0
  6  9  2  0  0  0  0
  7 10  2  0  0  0  0
  9 10  1  0  0  0  0
  1 11  1  0  0  0  0
  1 12  1  0  0  0  0
  2 13  1  0  0  0  0
  4 14  1  0  0  0  0
  5 15  1  0  0  0  0
  6 16  1  0  0  0  0
  7 17  1  0  0  0  0
M  END
> <pdb_id>
2FX6

> <uniprot_id>
P00760

> <usmiles>
N=1c2c(NC1N)cccc2

$$$$
270_D_1003
          07192422123D 1   1.00000     0.00000     0
            
 17 18  0  0  0  0            999 V2000
   30.3662   38.0539  -11.6295 N   0  0  0  0  0  0  0  0  0  0  0  0
   30.0582   38.7497   -9.3701 N   0  0  0  0  0  0  0  0  0  0  0  0
   29.9146   36.5798   -9.7992 N   0  0  0  0  0  0  0  0  0  0  0  0
   29.3766   37.7591   -5.8176 C   0  0  0  0  0  0  0  0  0  0  0  0
   29.2815   36.3433   -6.0877 C   0  0  0  0  0  0  0  0  0  0  0  0
   29.6435   38.6794   -6.8859 C   0  0  0  0  0  0  0  0  0  0  0  0
   29.4507   35.8411   -7.4249 C   0  0  0  0  0  0  0  0  0  0  0  0
   30.1240   37.8033  -10.3265 C   0  0  0  0  0  0  0  0  0  0  0  0
   29.8078   38.1549   -8.2116 C   0  0  0  0  0  0  0  0  0  0  0  0
   29.7164   36.7670   -8.4785 C   0  0  0  0  0  0  0  0  0  0  0  0
   30.4009   37.3000  -12.2856 H   0  0  0  0  0  0  0  0  0  0  0  0
   30.5110   38.9936  -11.9394 H   0  0  0  0  0  0  0  0  0  0  0  0
   30.1777   39.7327   -9.5097 H   0  0  0  0  0  0  0  0  0  0  0  0
   29.2563   38.0985   -4.8847 H   0  0  0  0  0  0  0  0  0  0  0  0
   29.0964   35.7070   -5.3388 H   0  0  0  0  0  0  0  0  0  0  0  0
   29.7133   39.6615   -6.7110 H   0  0  0  0  0  0  0  0  0  0  0  0
   29.3834   34.8613   -7.6131 H   0  0  0  0  0  0  0  0  0  0  0  0
  1  8  1  0  0  0  0
  2  8  1  0  0  0  0
  2  9  1  0  0  0  0
  3  8  2  0  0  0  0
  3 10  1  0  0  0  0
  4  5  2  0  0  0  0
  4  6  1  0  0  0  0
  5  7  1  0  0  0  0
  6  9  2  0  0  0  0
  7 10  2  0  0  0  0
  9 10  1  0  0  0  0
  1 11  1  0  0  0  0
  1 12  1  0  0  0  0
  2 13  1  0  0  0  0
  4 14  1  0  0  0  0
  5 15  1  0  0  0  0
  6 16  1  0  0  0  0
  7 17  1  0  0  0  0
M  END
> <pdb_id>
2FPZ

> <uniprot_id>
P20231

> <usmiles>
N=1c2c(NC1N)cccc2

$$$$
27N_A_501
          07202411083D 1   1.00000     0.00000     0
            
 30 31  0  0  0  0            999 V2000
    1.9950  -17.9620    7.9770 Cl  0  0  0  0  0  0  0  0  0  0  0  0
    2.1700  -15.1750    8.7420 Cl  0  0  0  0  0  0  0  0  0  0  0  0
    0.5470  -15.9510    6.6210 Cl  0  0  0  0  0  0  0  0  0  0  0  0
    2.7790  -17.8140    1.2760 O   0  0  0  0  0  0  0  0  0  0  0  0
    8.2970  -15.4910    8.3880 O   0  0  0  0  0  0  0  0  0  0  0  0
    3.0980  -18.2200    3.5940 C   0  0  0  0  0  0  0  0  0  0  0  0
    2.7270  -15.9770    2.7950 C   0  0  0  0  0  0  0  0  0  0  0  0
    6.2560  -16.8110    8.2910 C   0  0  0  0  0  0  0  0  0  0  0  0
    6.4780  -14.7000    7.1590 C   0  0  0  0  0  0  0  0  0  0  0  0
    3.1950  -17.7720    4.9050 C   0  0  0  0  0  0  0  0  0  0  0  0
    2.8220  -15.5290    4.1070 C   0  0  0  0  0  0  0  0  0  0  0  0
    4.9480  -16.9140    7.7920 C   0  0  0  0  0  0  0  0  0  0  0  0
    5.2010  -14.8020    6.6750 C   0  0  0  0  0  0  0  0  0  0  0  0
    2.8680  -17.3340    2.5480 C   0  0  0  0  0  0  0  0  0  0  0  0
    7.0140  -15.6810    7.9640 C   0  0  0  0  0  0  0  0  0  0  0  0
    3.0550  -16.4190    5.1520 C   0  0  0  0  0  0  0  0  0  0  0  0
    4.4300  -15.9020    6.9750 C   0  0  0  0  0  0  0  0  0  0  0  0
    3.1350  -15.8490    6.4210 C   0  0  0  0  0  0  0  0  0  0  0  0
    2.0520  -16.2480    7.4290 C   0  0  0  0  0  0  0  0  0  0  0  0
    2.6138  -17.1864    0.5152 H   0  0  0  0  0  0  0  0  0  0  0  0
    8.7934  -14.6639    8.1244 H   0  0  0  0  0  0  0  0  0  0  0  0
    3.1952  -19.1960    3.3994 H   0  0  0  0  0  0  0  0  0  0  0  0
    2.5608  -15.3354    2.0462 H   0  0  0  0  0  0  0  0  0  0  0  0
    6.6389  -17.5315    8.8692 H   0  0  0  0  0  0  0  0  0  0  0  0
    7.0305  -13.9002    6.9242 H   0  0  0  0  0  0  0  0  0  0  0  0
    3.3624  -18.4137    5.6535 H   0  0  0  0  0  0  0  0  0  0  0  0
    2.7216  -14.5536    4.3033 H   0  0  0  0  0  0  0  0  0  0  0  0
    4.3867  -17.7096    8.0199 H   0  0  0  0  0  0  0  0  0  0  0  0
    4.8269  -14.0738    6.1008 H   0  0  0  0  0  0  0  0  0  0  0  0
    2.9757  -14.8746    6.2627 H   0  0  0  0  0  0  0  0  0  0  0  0
  1 19  1  0  0  0  0
  2 19  1  0  0  0  0
  3 19  1  0  0  0  0
  4 14  1  0  0  0  0
  5 15  1  0  0  0  0
  6 10  1  0  0  0  0
  6 14  2  0  0  0  0
  7 11  2  0  0  0  0
  7 14  1  0  0  0  0
  8 12  1  0  0  0  0
  8 15  2  0  0  0  0
  9 13  2  0  0  0  0
  9 15  1  0  0  0  0
 10 16  2  0  0  0  0
 11 16  1  0  0  0  0
 12 17  2  0  0  0  0
 13 17  1  0  0  0  0
 16 18  1  0  0  0  0
 17 18  1  0  0  0  0
 18 19  1  0  0  0  0
  4 20  1  0  0  0  0
  5 21  1  0  0  0  0
  6 22  1  0  0  0  0
  7 23  1  0  0  0  0
  8 24  1  0  0  0  0
  9 25  1  0  0  0  0
 10 26  1  0  0  0  0
 11 27  1  0  0  0  0
 12 28  1  0  0  0  0
 13 29  1  0  0  0  0
 18 30  1  0  0  0  0
M  END
> <pdb_id>
6I62

> <uniprot_id>
P62508

> <usmiles>
ClC(Cl)(Cl)C(c1ccc(O)cc1)c2ccc(O)cc2

$$$$
27P_A_611
          07202400553D 1   1.00000     0.00000     0
            
 44 46  0  0  0  0            999 V2000
   29.3908    0.4947   -0.6502 O   0  0  0  0  0  0  0  0  0  0  0  0
   31.8186    1.7233   -1.3098 N   0  0  0  0  0  0  0  0  0  0  0  0
   29.3738    1.3335   -1.8028 C   0  0  0  0  0  0  0  0  0  0  0  0
   30.8108    1.3150   -2.3106 C   0  0  0  0  0  0  0  0  0  0  0  0
   33.0929    1.8789   -2.0123 C   0  0  0  0  0  0  0  0  0  0  0  0
   31.5958    3.0614   -0.7230 C   0  0  0  0  0  0  0  0  0  0  0  0
   33.9800    2.6382   -1.0337 C   0  0  0  0  0  0  0  0  0  0  0  0
   32.9963    3.5826   -0.3336 C   0  0  0  0  0  0  0  0  0  0  0  0
   23.3528    2.8486    5.0236 C   0  0  0  0  0  0  0  0  0  0  0  0
   23.4630    1.5322    5.4532 C   0  0  0  0  0  0  0  0  0  0  0  0
   23.6473    3.1418    3.6946 C   0  0  0  0  0  0  0  0  0  0  0  0
   28.2500   -0.3498    1.2529 C   0  0  0  0  0  0  0  0  0  0  0  0
   27.0061    0.7913   -0.4479 C   0  0  0  0  0  0  0  0  0  0  0  0
   23.8425    0.5428    4.5528 C   0  0  0  0  0  0  0  0  0  0  0  0
   24.0390    2.1515    2.8011 C   0  0  0  0  0  0  0  0  0  0  0  0
   27.0802   -0.5386    1.9773 C   0  0  0  0  0  0  0  0  0  0  0  0
   25.8353    0.5926    0.2785 C   0  0  0  0  0  0  0  0  0  0  0  0
   24.5763   -0.3072    2.2924 C   0  0  0  0  0  0  0  0  0  0  0  0
   28.2254    0.3197    0.0351 C   0  0  0  0  0  0  0  0  0  0  0  0
   24.1603    0.8282    3.2375 C   0  0  0  0  0  0  0  0  0  0  0  0
   25.8729   -0.0669    1.4941 C   0  0  0  0  0  0  0  0  0  0  0  0
   29.0971    2.2631   -1.5592 H   0  0  0  0  0  0  0  0  0  0  0  0
   28.7499    0.9705   -2.4948 H   0  0  0  0  0  0  0  0  0  0  0  0
   31.0251    0.3848   -2.6084 H   0  0  0  0  0  0  0  0  0  0  0  0
   30.8747    1.9377   -3.0904 H   0  0  0  0  0  0  0  0  0  0  0  0
   32.9696    2.4015   -2.8559 H   0  0  0  0  0  0  0  0  0  0  0  0
   33.4885    0.9862   -2.2281 H   0  0  0  0  0  0  0  0  0  0  0  0
   31.0109    2.9951    0.0854 H   0  0  0  0  0  0  0  0  0  0  0  0
   31.1707    3.6700   -1.3930 H   0  0  0  0  0  0  0  0  0  0  0  0
   34.6893    3.1521   -1.5163 H   0  0  0  0  0  0  0  0  0  0  0  0
   34.4073    2.0151   -0.3786 H   0  0  0  0  0  0  0  0  0  0  0  0
   33.1210    3.5480    0.6580 H   0  0  0  0  0  0  0  0  0  0  0  0
   33.1230    4.5218   -0.6529 H   0  0  0  0  0  0  0  0  0  0  0  0
   23.0682    3.5700    5.6550 H   0  0  0  0  0  0  0  0  0  0  0  0
   23.2703    1.2971    6.4058 H   0  0  0  0  0  0  0  0  0  0  0  0
   23.5755    4.0868    3.3754 H   0  0  0  0  0  0  0  0  0  0  0  0
   29.1166   -0.6982    1.6102 H   0  0  0  0  0  0  0  0  0  0  0  0
   26.9720    1.2757   -1.3221 H   0  0  0  0  0  0  0  0  0  0  0  0
   23.8871   -0.4057    4.8666 H   0  0  0  0  0  0  0  0  0  0  0  0
   24.2335    2.3847    1.8483 H   0  0  0  0  0  0  0  0  0  0  0  0
   27.1108   -1.0186    2.8540 H   0  0  0  0  0  0  0  0  0  0  0  0
   24.9639    0.9277   -0.0796 H   0  0  0  0  0  0  0  0  0  0  0  0
   23.8339   -0.4503    1.6378 H   0  0  0  0  0  0  0  0  0  0  0  0
   24.7012   -1.1340    2.8408 H   0  0  0  0  0  0  0  0  0  0  0  0
  1  3  1  0  0  0  0
  1 19  1  0  0  0  0
  2  4  1  0  0  0  0
  2  5  1  0  0  0  0
  2  6  1  0  0  0  0
  3  4  1  0  0  0  0
  5  7  1  0  0  0  0
  6  8  1  0  0  0  0
  7  8  1  0  0  0  0
  9 10  2  0  0  0  0
  9 11  1  0  0  0  0
 10 14  1  0  0  0  0
 11 15  2  0  0  0  0
 12 16  2  0  0  0  0
 12 19  1  0  0  0  0
 13 17  1  0  0  0  0
 13 19  2  0  0  0  0
 14 20  2  0  0  0  0
 15 20  1  0  0  0  0
 16 21  1  0  0  0  0
 17 21  2  0  0  0  0
 18 20  1  0  0  0  0
 18 21  1  0  0  0  0
  3 22  1  0  0  0  0
  3 23  1  0  0  0  0
  4 24  1  0  0  0  0
  4 25  1  0  0  0  0
  5 26  1  0  0  0  0
  5 27  1  0  0  0  0
  6 28  1  0  0  0  0
  6 29  1  0  0  0  0
  7 30  1  0  0  0  0
  7 31  1  0  0  0  0
  8 32  1  0  0  0  0
  8 33  1  0  0  0  0
  9 34  1  0  0  0  0
 10 35  1  0  0  0  0
 11 36  1  0  0  0  0
 12 37  1  0  0  0  0
 13 38  1  0  0  0  0
 14 39  1  0  0  0  0
 15 40  1  0  0  0  0
 16 41  1  0  0  0  0
 17 42  1  0  0  0  0
 18 43  1  0  0  0  0
 18 44  1  0  0  0  0
M  END
> <pdb_id>
3FH8

> <uniprot_id>
P09960

> <usmiles>
O(c1ccc(cc1)Cc2ccccc2)CCN3CCCC3

$$$$
27Z_A_470
          07192421083D 1   1.00000     0.00000     0
            
 31 32  0  0  0  0            999 V2000
    0.9439   28.1376    7.7490 S   0  0  0  0  0  0  0  0  0  0  0  0
    6.6074   23.9521    7.1676 S   0  0  0  0  0  0  0  0  0  0  0  0
    7.7334   24.4390    8.1933 O   0  0  0  0  0  0  0  0  0  0  0  0
    7.2888   23.4938    5.7581 O   0  0  0  0  0  0  0  0  0  0  0  0
   -1.8756   30.6114    9.0098 O   0  0  0  0  0  0  0  0  0  0  0  0
    5.8214   22.7780    7.8219 N   0  0  0  0  0  0  0  0  0  0  0  0
   -1.5864   28.4180    9.4234 N   0  0  0  0  0  0  0  0  0  0  0  0
    0.0433   31.8753    7.3851 N   0  0  0  0  0  0  0  0  0  0  0  0
    1.6803   30.3499    6.6667 N   0  0  0  0  0  0  0  0  0  0  0  0
    3.1288   28.5909    6.1288 N   0  0  0  0  0  0  0  0  0  0  0  0
    4.5239   25.4503    7.8165 C   0  0  0  0  0  0  0  0  0  0  0  0
    5.8843   26.0938    5.7669 C   0  0  0  0  0  0  0  0  0  0  0  0
    3.6759   26.5632    7.5841 C   0  0  0  0  0  0  0  0  0  0  0  0
    5.0356   27.2206    5.5263 C   0  0  0  0  0  0  0  0  0  0  0  0
    2.0137   29.0647    6.7764 C   0  0  0  0  0  0  0  0  0  0  0  0
    5.6418   25.2013    6.9088 C   0  0  0  0  0  0  0  0  0  0  0  0
    0.0073   29.5468    8.0170 C   0  0  0  0  0  0  0  0  0  0  0  0
   -1.2277   29.5689    8.8530 C   0  0  0  0  0  0  0  0  0  0  0  0
    0.5532   30.6317    7.3594 C   0  0  0  0  0  0  0  0  0  0  0  0
    3.9061   27.4954    6.4203 C   0  0  0  0  0  0  0  0  0  0  0  0
    5.1117   22.4605    7.1930 H   0  0  0  0  0  0  0  0  0  0  0  0
    6.4501   22.0265    8.0219 H   0  0  0  0  0  0  0  0  0  0  0  0
   -1.0391   27.5944    9.2749 H   0  0  0  0  0  0  0  0  0  0  0  0
   -2.4028   28.3787    9.9996 H   0  0  0  0  0  0  0  0  0  0  0  0
   -0.7910   32.0630    7.9033 H   0  0  0  0  0  0  0  0  0  0  0  0
    0.4985   32.6127    6.8859 H   0  0  0  0  0  0  0  0  0  0  0  0
    3.4165   29.1194    5.3301 H   0  0  0  0  0  0  0  0  0  0  0  0
    4.3587   24.8426    8.5933 H   0  0  0  0  0  0  0  0  0  0  0  0
    6.6509   25.9118    5.1511 H   0  0  0  0  0  0  0  0  0  0  0  0
    2.9100   26.7334    8.2040 H   0  0  0  0  0  0  0  0  0  0  0  0
    5.2130   27.8217    4.7472 H   0  0  0  0  0  0  0  0  0  0  0  0
  1 15  1  0  0  0  0
  1 17  1  0  0  0  0
  2  3  2  0  0  0  0
  2  4  2  0  0  0  0
  2  6  1  0  0  0  0
  2 16  1  0  0  0  0
  5 18  2  0  0  0  0
  7 18  1  0  0  0  0
  8 19  1  0  0  0  0
  9 15  2  0  0  0  0
  9 19  1  0  0  0  0
 10 15  1  0  0  0  0
 10 20  1  0  0  0  0
 11 13  1  0  0  0  0
 11 16  2  0  0  0  0
 12 14  2  0  0  0  0
 12 16  1  0  0  0  0
 13 20  2  0  0  0  0
 14 20  1  0  0  0  0
 17 18  1  0  0  0  0
 17 19  2  0  0  0  0
  6 21  1  0  0  0  0
  6 22  1  0  0  0  0
  7 23  1  0  0  0  0
  7 24  1  0  0  0  0
  8 25  1  0  0  0  0
  8 26  1  0  0  0  0
 10 27  1  0  0  0  0
 11 28  1  0  0  0  0
 12 29  1  0  0  0  0
 13 30  1  0  0  0  0
 14 31  1  0  0  0  0
M  END
> <pdb_id>
3RPY

> <uniprot_id>
P24941

> <usmiles>
S(=O)(=O)(N)c1ccc(NC=2SC(C(=O)N)=C(N2)N)cc1

$$$$
281_A_401
          07202408473D 1   1.00000     0.00000     0
            
 58 60  0  0  0  0            999 V2000
   37.1970   -1.0250    9.9890 S   0  0  0  0  0  0  0  0  0  0  0  0
   33.8470    1.1770   12.5480 S   0  0  0  0  0  0  0  0  0  0  0  0
   33.0080    4.9770   11.8120 P   0  0  0  0  0  0  0  0  0  0  0  0
   33.0380    1.3950   13.7090 O   0  0  0  0  0  0  0  0  0  0  0  0
   33.0690    0.4400   11.5090 O   0  0  0  0  0  0  0  0  0  0  0  0
   32.9090    6.2580   12.5460 O   0  0  0  0  0  0  0  0  0  0  0  0
   31.7780    4.1760   11.6140 O   0  0  0  0  0  0  0  0  0  0  0  0
   30.5630    5.0550    8.4360 O   0  0  0  0  0  0  0  0  0  0  0  0
   32.1730    3.5360    8.6650 O   0  0  0  0  0  0  0  0  0  0  0  0
   31.9970    9.1470    4.4700 N   0  0  0  0  0  0  0  0  0  0  0  0
   37.9750   -1.5090   11.3210 N   0  0  0  0  0  0  0  0  0  0  0  0
   35.9360   -0.2240   10.6480 N   0  0  0  0  0  0  0  0  0  0  0  0
   34.3680    2.6370   11.8830 N   0  0  0  0  0  0  0  0  0  0  0  0
   36.5390    4.5740   12.0940 C   0  0  0  0  0  0  0  0  0  0  0  0
   36.0480    3.7090   14.3870 C   0  0  0  0  0  0  0  0  0  0  0  0
   33.7640    5.3250   10.1760 C   0  0  0  0  0  0  0  0  0  0  0  0
   33.0240    9.3970    5.4940 C   0  0  0  0  0  0  0  0  0  0  0  0
   36.6950   -0.6970   14.7510 C   0  0  0  0  0  0  0  0  0  0  0  0
   34.9000    6.0660    5.9440 C   0  0  0  0  0  0  0  0  0  0  0  0
   35.5490    0.0310   14.3660 C   0  0  0  0  0  0  0  0  0  0  0  0
   37.5440   -1.2350   13.7610 C   0  0  0  0  0  0  0  0  0  0  0  0
   34.4600    7.2960    5.3990 C   0  0  0  0  0  0  0  0  0  0  0  0
   34.3660    5.6040    7.1700 C   0  0  0  0  0  0  0  0  0  0  0  0
   32.9480    7.6060    7.3190 C   0  0  0  0  0  0  0  0  0  0  0  0
   31.7270    4.7090    8.7190 C   0  0  0  0  0  0  0  0  0  0  0  0
   35.2450    0.2260   12.9940 C   0  0  0  0  0  0  0  0  0  0  0  0
   34.1670    3.8000   12.6880 C   0  0  1  0  0  0  0  0  0  0  0  0
   37.2710   -1.0600   12.3800 C   0  0  0  0  0  0  0  0  0  0  0  0
   35.4720    4.4780   13.1930 C   0  0  0  0  0  0  0  0  0  0  0  0
   33.4860    8.0680    6.0840 C   0  0  0  0  0  0  0  0  0  0  0  0
   36.0790   -0.3050   11.9830 C   0  0  0  0  0  0  0  0  0  0  0  0
   33.3820    6.3710    7.8630 C   0  0  0  0  0  0  0  0  0  0  0  0
   32.7010    5.8290    9.1440 C   0  0  2  0  0  0  0  0  0  0  0  0
   33.8130    6.6821   12.5998 H   0  0  0  0  0  0  0  0  0  0  0  0
   30.2954    6.0158    8.5085 H   0  0  0  0  0  0  0  0  0  0  0  0
   31.6936   10.0176    4.0827 H   0  0  0  0  0  0  0  0  0  0  0  0
   32.3814    8.5755    3.7450 H   0  0  0  0  0  0  0  0  0  0  0  0
   33.8782    2.7728   11.0218 H   0  0  0  0  0  0  0  0  0  0  0  0
   36.1681    5.0751   11.3122 H   0  0  0  0  0  0  0  0  0  0  0  0
   37.3405    5.0554   12.4487 H   0  0  0  0  0  0  0  0  0  0  0  0
   36.8036    3.6540   11.8051 H   0  0  0  0  0  0  0  0  0  0  0  0
   35.3564    3.6436   15.1063 H   0  0  0  0  0  0  0  0  0  0  0  0
   36.3133    2.7901   14.0951 H   0  0  0  0  0  0  0  0  0  0  0  0
   36.8501    4.1916   14.7387 H   0  0  0  0  0  0  0  0  0  0  0  0
   34.1825    4.4864    9.8272 H   0  0  0  0  0  0  0  0  0  0  0  0
   34.4671    6.0274   10.2865 H   0  0  0  0  0  0  0  0  0  0  0  0
   32.6398    9.9683    6.2192 H   0  0  0  0  0  0  0  0  0  0  0  0
   33.8030    9.8659    5.0777 H   0  0  0  0  0  0  0  0  0  0  0  0
   36.9040   -0.8307   15.7197 H   0  0  0  0  0  0  0  0  0  0  0  0
   35.5883    5.5235    5.4624 H   0  0  0  0  0  0  0  0  0  0  0  0
   34.9459    0.4128   15.0664 H   0  0  0  0  0  0  0  0  0  0  0  0
   38.3549   -1.7503   14.0385 H   0  0  0  0  0  0  0  0  0  0  0  0
   34.8356    7.6210    4.5311 H   0  0  0  0  0  0  0  0  0  0  0  0
   34.6798    4.7352    7.5531 H   0  0  0  0  0  0  0  0  0  0  0  0
   32.2642    8.1527    7.8023 H   0  0  0  0  0  0  0  0  0  0  0  0
   33.6815    3.4904   13.5056 H   0  0  0  0  0  0  0  0  0  0  0  0
   35.2479    5.4046   13.4949 H   0  0  0  0  0  0  0  0  0  0  0  0
   32.1743    6.5685    9.5632 H   0  0  0  0  0  0  0  0  0  0  0  0
  1 11  1  0  0  0  0
  1 12  1  0  0  0  0
  2  4  2  0  0  0  0
  2  5  2  0  0  0  0
  2 13  1  0  0  0  0
  2 26  1  0  0  0  0
  3  6  1  0  0  0  0
  3  7  2  0  0  0  0
  3 16  1  0  0  0  0
  3 27  1  0  0  0  0
  8 25  1  0  0  0  0
  9 25  2  0  0  0  0
 10 17  1  0  0  0  0
 11 28  2  0  0  0  0
 12 31  2  0  0  0  0
 13 27  1  0  0  0  0
 14 29  1  0  0  0  0
 15 29  1  0  0  0  0
 16 33  1  0  0  0  0
 17 30  1  0  0  0  0
 18 20  1  0  0  0  0
 18 21  2  0  0  0  0
 19 22  2  0  0  0  0
 19 23  1  0  0  0  0
 20 26  2  0  0  0  0
 21 28  1  0  0  0  0
 22 30  1  0  0  0  0
 23 32  2  0  0  0  0
 24 30  2  0  0  0  0
 24 32  1  0  0  0  0
 25 33  1  0  0  0  0
 26 31  1  0  0  0  0
 27 29  1  0  0  0  0
 28 31  1  0  0  0  0
 32 33  1  0  0  0  0
  6 34  1  0  0  0  0
  8 35  1  0  0  0  0
 10 36  1  0  0  0  0
 10 37  1  0  0  0  0
 13 38  1  0  0  0  0
 14 39  1  0  0  0  0
 14 40  1  0  0  0  0
 14 41  1  0  0  0  0
 15 42  1  0  0  0  0
 15 43  1  0  0  0  0
 15 44  1  0  0  0  0
 16 45  1  0  0  0  0
 16 46  1  0  0  0  0
 17 47  1  0  0  0  0
 17 48  1  0  0  0  0
 18 49  1  0  0  0  0
 19 50  1  0  0  0  0
 20 51  1  0  0  0  0
 21 52  1  0  0  0  0
 22 53  1  0  0  0  0
 23 54  1  0  0  0  0
 24 55  1  0  0  0  0
 27 56  1  0  0  0  0
 29 57  1  0  0  0  0
 33 58  1  0  0  0  0
M  END
> <pdb_id>
2PJ9

> <uniprot_id>
P09955

> <usmiles>
S(=O)(=O)(N[C@H](P(=O)(O)C[C@@H](c1cc(ccc1)CN)C(=O)O)C(C)C)C=2C3=NSN=C3C=CC2

$$$$
28A_A_306
          07202403273D 1   1.00000     0.00000     0
            
 27 28  0  0  0  0            999 V2000
    8.9378   19.5270   -9.0137 O   0  0  0  0  0  0  0  0  0  0  0  0
    9.7919   22.0269   -8.3899 O   0  0  0  0  0  0  0  0  0  0  0  0
   10.5026   20.5341  -16.9570 O   0  0  0  0  0  0  0  0  0  0  0  0
    9.7610   19.7267  -11.1496 N   0  0  0  0  0  0  0  0  0  0  0  0
   10.4976   19.8625  -18.1801 C   0  0  0  0  0  0  0  0  0  0  0  0
   10.8503   17.6767  -14.6925 C   0  0  0  0  0  0  0  0  0  0  0  0
   10.6508   22.3181  -10.6489 C   0  0  0  0  0  0  0  0  0  0  0  0
   10.7819   18.4236  -15.8686 C   0  0  0  0  0  0  0  0  0  0  0  0
   10.8241   21.7189  -11.9274 C   0  0  0  0  0  0  0  0  0  0  0  0
   10.7334   18.3412  -13.4717 C   0  0  0  0  0  0  0  0  0  0  0  0
   10.4614   20.4595  -14.6084 C   0  0  0  0  0  0  0  0  0  0  0  0
    9.5671   20.2639   -9.9585 C   0  0  0  0  0  0  0  0  0  0  0  0
    9.9963   21.5477   -9.6726 C   0  0  0  0  0  0  0  0  0  0  0  0
   10.5803   19.7937  -15.8131 C   0  0  0  0  0  0  0  0  0  0  0  0
   10.3695   20.4189  -12.1305 C   0  0  0  0  0  0  0  0  0  0  0  0
   10.5198   19.7159  -13.4255 C   0  0  0  0  0  0  0  0  0  0  0  0
    9.3233   21.4594   -7.7129 H   0  0  0  0  0  0  0  0  0  0  0  0
    9.4512   18.7922  -11.3250 H   0  0  0  0  0  0  0  0  0  0  0  0
   10.4373   20.5270  -18.9249 H   0  0  0  0  0  0  0  0  0  0  0  0
   11.3409   19.3331  -18.2731 H   0  0  0  0  0  0  0  0  0  0  0  0
    9.7111   19.2462  -18.2187 H   0  0  0  0  0  0  0  0  0  0  0  0
   10.9806   16.6857  -14.7239 H   0  0  0  0  0  0  0  0  0  0  0  0
   10.9787   23.2425  -10.4542 H   0  0  0  0  0  0  0  0  0  0  0  0
   10.8785   17.9693  -16.7542 H   0  0  0  0  0  0  0  0  0  0  0  0
   11.2658   22.2239  -12.6689 H   0  0  0  0  0  0  0  0  0  0  0  0
   10.8038   17.8236  -12.6190 H   0  0  0  0  0  0  0  0  0  0  0  0
   10.3363   21.4514  -14.5829 H   0  0  0  0  0  0  0  0  0  0  0  0
  1 12  2  0  0  0  0
  2 13  1  0  0  0  0
  3  5  1  0  0  0  0
  3 14  1  0  0  0  0
  4 12  1  0  0  0  0
  4 15  1  0  0  0  0
  6  8  2  0  0  0  0
  6 10  1  0  0  0  0
  7  9  1  0  0  0  0
  7 13  2  0  0  0  0
  8 14  1  0  0  0  0
  9 15  2  0  0  0  0
 10 16  2  0  0  0  0
 11 14  2  0  0  0  0
 11 16  1  0  0  0  0
 12 13  1  0  0  0  0
 15 16  1  0  0  0  0
  2 17  1  0  0  0  0
  4 18  1  0  0  0  0
  5 19  1  0  0  0  0
  5 20  1  0  0  0  0
  5 21  1  0  0  0  0
  6 22  1  0  0  0  0
  7 23  1  0  0  0  0
  8 24  1  0  0  0  0
  9 25  1  0  0  0  0
 10 26  1  0  0  0  0
 11 27  1  0  0  0  0
M  END
> <pdb_id>
4MK5

> <uniprot_id>
M9V5A4

> <usmiles>
O=C1NC(c2cc(OC)ccc2)=CC=C1O

$$$$
28F_A_302
          07202407473D 1   1.00000     0.00000     0
            
 48 51  0  0  0  0            999 V2000
   16.6944   29.4795    5.0091 S   0  0  0  0  0  0  0  0  0  0  0  0
   18.4734   30.7307    3.4644 O   0  0  0  0  0  0  0  0  0  0  0  0
   15.7527   23.4307    9.1868 O   0  0  0  0  0  0  0  0  0  0  0  0
   14.1684   27.2690    8.7231 O   0  0  0  0  0  0  0  0  0  0  0  0
   10.3876   28.1083   10.0056 N   0  0  0  0  0  0  0  0  0  0  0  0
   10.8742   30.3771   10.5871 N   0  0  0  0  0  0  0  0  0  0  0  0
   18.0631   32.5815    2.1408 N   0  0  0  0  0  0  0  0  0  0  0  0
   16.4161   31.7759    3.5173 N   0  0  0  0  0  0  0  0  0  0  0  0
   14.7971   31.3046    5.1616 N   0  0  0  0  0  0  0  0  0  0  0  0
   15.3661   28.2751    7.0149 N   0  0  0  0  0  0  0  0  0  0  0  0
   19.7602   34.2160    1.5901 C   0  0  0  0  0  0  0  0  0  0  0  0
   10.1801   29.2366   10.6995 C   0  0  0  0  0  0  0  0  0  0  0  0
   16.3934   23.8993   10.3856 C   0  0  0  0  0  0  0  0  0  0  0  0
   19.4037   32.7393    1.6392 C   0  0  0  0  0  0  0  0  0  0  0  0
   14.4181   23.9536    9.1832 C   0  0  0  0  0  0  0  0  0  0  0  0
   15.1719   26.2786    8.8785 C   0  0  0  0  0  0  0  0  0  0  0  0
   11.3927   28.1408    9.1097 C   0  0  0  0  0  0  0  0  0  0  0  0
   11.8605   30.3370    9.6698 C   0  0  0  0  0  0  0  0  0  0  0  0
   15.4943   24.9604   10.9978 C   0  0  0  0  0  0  0  0  0  0  0  0
   13.4276   30.3455    7.0017 C   0  0  0  0  0  0  0  0  0  0  0  0
   15.9049   30.9775    4.5279 C   0  0  0  0  0  0  0  0  0  0  0  0
   17.7204   31.6297    3.0779 C   0  0  0  0  0  0  0  0  0  0  0  0
   15.4105   29.3213    6.1878 C   0  0  0  0  0  0  0  0  0  0  0  0
   14.3049   28.3085    7.8471 C   0  0  0  0  0  0  0  0  0  0  0  0
   14.4975   30.3623    6.1118 C   0  0  0  0  0  0  0  0  0  0  0  0
   14.5616   25.2794    9.8578 C   0  0  2  0  0  0  0  0  0  0  0  0
   12.1887   29.2488    8.8853 C   0  0  0  0  0  0  0  0  0  0  0  0
   13.3011   29.2997    7.9007 C   0  0  0  0  0  0  0  0  0  0  0  0
   17.3487   33.1892    1.7940 H   0  0  0  0  0  0  0  0  0  0  0  0
   15.8318   32.4705    3.0976 H   0  0  0  0  0  0  0  0  0  0  0  0
   20.6914   34.3227    1.2415 H   0  0  0  0  0  0  0  0  0  0  0  0
   19.1216   34.6932    0.9864 H   0  0  0  0  0  0  0  0  0  0  0  0
   19.7022   34.6037    2.5100 H   0  0  0  0  0  0  0  0  0  0  0  0
    9.4345   29.2259   11.3658 H   0  0  0  0  0  0  0  0  0  0  0  0
   17.2854   24.2936   10.1645 H   0  0  0  0  0  0  0  0  0  0  0  0
   16.5136   23.1418   11.0273 H   0  0  0  0  0  0  0  0  0  0  0  0
   19.4624   32.3522    0.7191 H   0  0  0  0  0  0  0  0  0  0  0  0
   20.0430   32.2627    2.2427 H   0  0  0  0  0  0  0  0  0  0  0  0
   13.7991   23.3574    9.6945 H   0  0  0  0  0  0  0  0  0  0  0  0
   14.0794   24.0628    8.2486 H   0  0  0  0  0  0  0  0  0  0  0  0
   16.0088   26.6772    9.2536 H   0  0  0  0  0  0  0  0  0  0  0  0
   15.3751   25.8390    8.0036 H   0  0  0  0  0  0  0  0  0  0  0  0
   11.5738   27.3151    8.5754 H   0  0  0  0  0  0  0  0  0  0  0  0
   12.4025   31.1682    9.5462 H   0  0  0  0  0  0  0  0  0  0  0  0
   16.0190   25.7656   11.2739 H   0  0  0  0  0  0  0  0  0  0  0  0
   14.9945   24.6018   11.7863 H   0  0  0  0  0  0  0  0  0  0  0  0
   12.7540   31.0845    6.9921 H   0  0  0  0  0  0  0  0  0  0  0  0
   13.6794   25.6051   10.1979 H   0  0  0  0  0  0  0  0  0  0  0  0
  1 21  1  0  0  0  0
  1 23  1  0  0  0  0
  2 22  2  0  0  0  0
  3 13  1  0  0  0  0
  3 15  1  0  0  0  0
  4 16  1  0  0  0  0
  4 24  1  0  0  0  0
  5 12  2  0  0  0  0
  5 17  1  0  0  0  0
  6 12  1  0  0  0  0
  6 18  2  0  0  0  0
  7 14  1  0  0  0  0
  7 22  1  0  0  0  0
  8 21  1  0  0  0  0
  8 22  1  0  0  0  0
  9 21  2  0  0  0  0
  9 25  1  0  0  0  0
 10 23  2  0  0  0  0
 10 24  1  0  0  0  0
 11 14  1  0  0  0  0
 13 19  1  0  0  0  0
 15 26  1  0  0  0  0
 16 26  1  0  0  0  0
 17 27  2  0  0  0  0
 18 27  1  0  0  0  0
 19 26  1  0  0  0  0
 20 25  2  0  0  0  0
 20 28  1  0  0  0  0
 23 25  1  0  0  0  0
 24 28  2  0  0  0  0
 27 28  1  0  0  0  0
  7 29  1  0  0  0  0
  8 30  1  0  0  0  0
 11 31  1  0  0  0  0
 11 32  1  0  0  0  0
 11 33  1  0  0  0  0
 12 34  1  0  0  0  0
 13 35  1  0  0  0  0
 13 36  1  0  0  0  0
 14 37  1  0  0  0  0
 14 38  1  0  0  0  0
 15 39  1  0  0  0  0
 15 40  1  0  0  0  0
 16 41  1  0  0  0  0
 16 42  1  0  0  0  0
 17 43  1  0  0  0  0
 18 44  1  0  0  0  0
 19 45  1  0  0  0  0
 19 46  1  0  0  0  0
 20 47  1  0  0  0  0
 26 48  1  0  0  0  0
M  END
> <pdb_id>
4MB9

> <uniprot_id>
G6TGY9

> <usmiles>
S1c2nc(OC[C@H]3COCC3)c(c4cncnc4)cc2N=C1NC(=O)NCC

$$$$
28M_A_602
          07192423343D 1   1.00000     0.00000     0
            
 66 69  0  0  0  0            999 V2000
   28.3518   44.2053   35.4547 S   0  0  0  0  0  0  0  0  0  0  0  0
   29.2868   43.4716   34.6617 O   0  0  0  0  0  0  0  0  0  0  0  0
   27.0476   43.6576   35.6624 O   0  0  0  0  0  0  0  0  0  0  0  0
   21.6740   45.5064   44.1659 O   0  0  0  0  0  0  0  0  0  0  0  0
   26.3755   41.5153   45.7195 O   0  0  0  0  0  0  0  0  0  0  0  0
   29.0216   44.4198   36.9035 N   0  0  0  0  0  0  0  0  0  0  0  0
   21.1273   47.3425   45.3912 N   0  0  0  0  0  0  0  0  0  0  0  0
   24.6391   45.4912   43.5495 N   0  0  0  0  0  0  0  0  0  0  0  0
   26.9978   43.9517   41.2258 N   0  0  0  0  0  0  0  0  0  0  0  0
   28.1707   45.7993   34.7543 C   0  0  0  0  0  0  0  0  0  0  0  0
   25.8271   40.4754   44.9179 C   0  0  0  0  0  0  0  0  0  0  0  0
   24.5422   42.9982   49.5074 C   0  0  0  0  0  0  0  0  0  0  0  0
   24.5161   40.8801   48.2377 C   0  0  0  0  0  0  0  0  0  0  0  0
   26.6544   42.0531   48.7082 C   0  0  0  0  0  0  0  0  0  0  0  0
   21.3618   48.2635   46.3653 C   0  0  0  0  0  0  0  0  0  0  0  0
   28.2629   45.0880   37.9952 C   0  0  0  0  0  0  0  0  0  0  0  0
   25.3255   45.1891   42.4575 C   0  0  0  0  0  0  0  0  0  0  0  0
   28.0698   42.9533   41.0846 C   0  0  0  0  0  0  0  0  0  0  0  0
   26.8680   44.8157   40.0446 C   0  0  0  0  0  0  0  0  0  0  0  0
   22.4662   48.1814   47.1452 C   0  0  0  0  0  0  0  0  0  0  0  0
   28.7952   43.3844   39.8206 C   0  0  0  0  0  0  0  0  0  0  0  0
   23.3595   47.1064   46.9436 C   0  0  0  0  0  0  0  0  0  0  0  0
   26.3678   43.2721   43.4734 C   0  0  0  0  0  0  0  0  0  0  0  0
   24.2279   44.1669   46.9288 C   0  0  0  0  0  0  0  0  0  0  0  0
   21.9510   46.2595   45.1044 C   0  0  0  0  0  0  0  0  0  0  0  0
   25.7014   42.7184   45.8126 C   0  0  0  0  0  0  0  0  0  0  0  0
   24.7790   44.6839   44.6432 C   0  0  0  0  0  0  0  0  0  0  0  0
   26.2146   44.1009   42.3766 C   0  0  0  0  0  0  0  0  0  0  0  0
   27.7008   44.0673   38.9912 C   0  0  2  0  0  0  0  0  0  0  0  0
   23.1285   46.1592   45.9711 C   0  0  0  0  0  0  0  0  0  0  0  0
   25.6280   43.5394   44.6453 C   0  0  0  0  0  0  0  0  0  0  0  0
   24.0458   44.9948   45.8397 C   0  0  0  0  0  0  0  0  0  0  0  0
   25.0458   43.0358   46.9808 C   0  0  0  0  0  0  0  0  0  0  0  0
   25.1892   42.2572   48.3192 C   0  0  0  0  0  0  0  0  0  0  0  0
   29.8506   44.9600   36.7587 H   0  0  0  0  0  0  0  0  0  0  0  0
   20.3001   47.4529   44.8402 H   0  0  0  0  0  0  0  0  0  0  0  0
   27.5187   46.3295   35.2963 H   0  0  0  0  0  0  0  0  0  0  0  0
   29.0561   46.2640   34.7498 H   0  0  0  0  0  0  0  0  0  0  0  0
   27.8337   45.7150   33.8165 H   0  0  0  0  0  0  0  0  0  0  0  0
   26.4269   39.6760   44.9529 H   0  0  0  0  0  0  0  0  0  0  0  0
   24.9224   40.2287   45.2653 H   0  0  0  0  0  0  0  0  0  0  0  0
   25.7465   40.7906   43.9723 H   0  0  0  0  0  0  0  0  0  0  0  0
   24.9531   43.9054   49.5981 H   0  0  0  0  0  0  0  0  0  0  0  0
   23.5597   43.0918   49.3468 H   0  0  0  0  0  0  0  0  0  0  0  0
   24.6946   42.4778   50.3476 H   0  0  0  0  0  0  0  0  0  0  0  0
   24.9071   40.3625   47.4767 H   0  0  0  0  0  0  0  0  0  0  0  0
   24.6687   40.3834   49.0921 H   0  0  0  0  0  0  0  0  0  0  0  0
   23.5338   40.9974   48.0912 H   0  0  0  0  0  0  0  0  0  0  0  0
   27.1312   41.5735   47.9715 H   0  0  0  0  0  0  0  0  0  0  0  0
   27.0857   42.9423   48.8610 H   0  0  0  0  0  0  0  0  0  0  0  0
   26.7042   41.5100   49.5464 H   0  0  0  0  0  0  0  0  0  0  0  0
   20.7112   49.0096   46.5069 H   0  0  0  0  0  0  0  0  0  0  0  0
   27.5053   45.6045   37.5961 H   0  0  0  0  0  0  0  0  0  0  0  0
   28.8738   45.7137   38.4803 H   0  0  0  0  0  0  0  0  0  0  0  0
   25.2056   45.7643   41.6482 H   0  0  0  0  0  0  0  0  0  0  0  0
   27.6902   42.0338   40.9825 H   0  0  0  0  0  0  0  0  0  0  0  0
   28.6838   42.9747   41.8736 H   0  0  0  0  0  0  0  0  0  0  0  0
   27.2417   45.7264   40.2203 H   0  0  0  0  0  0  0  0  0  0  0  0
   25.9129   44.8965   39.7594 H   0  0  0  0  0  0  0  0  0  0  0  0
   22.6454   48.8682   47.8496 H   0  0  0  0  0  0  0  0  0  0  0  0
   29.1690   42.5934   39.3361 H   0  0  0  0  0  0  0  0  0  0  0  0
   29.5335   44.0244   40.0334 H   0  0  0  0  0  0  0  0  0  0  0  0
   24.1748   47.0316   47.5176 H   0  0  0  0  0  0  0  0  0  0  0  0
   26.9945   42.4937   43.4366 H   0  0  0  0  0  0  0  0  0  0  0  0
   23.7256   44.3994   47.7616 H   0  0  0  0  0  0  0  0  0  0  0  0
   27.1410   43.3865   38.5189 H   0  0  0  0  0  0  0  0  0  0  0  0
  1  2  2  0  0  0  0
  1  3  2  0  0  0  0
  1  6  1  0  0  0  0
  1 10  1  0  0  0  0
  4 25  2  0  0  0  0
  5 11  1  0  0  0  0
  5 26  1  0  0  0  0
  6 16  1  0  0  0  0
  7 15  1  0  0  0  0
  7 25  1  0  0  0  0
  8 17  2  0  0  0  0
  8 27  1  0  0  0  0
  9 18  1  0  0  0  0
  9 19  1  0  0  0  0
  9 28  1  0  0  0  0
 12 34  1  0  0  0  0
 13 34  1  0  0  0  0
 14 34  1  0  0  0  0
 15 20  2  0  0  0  0
 16 29  1  0  0  0  0
 17 28  1  0  0  0  0
 18 21  1  0  0  0  0
 19 29  1  0  0  0  0
 20 22  1  0  0  0  0
 21 29  1  0  0  0  0
 22 30  2  0  0  0  0
 23 28  2  0  0  0  0
 23 31  1  0  0  0  0
 24 32  1  0  0  0  0
 24 33  2  0  0  0  0
 25 30  1  0  0  0  0
 26 31  2  0  0  0  0
 26 33  1  0  0  0  0
 27 31  1  0  0  0  0
 27 32  2  0  0  0  0
 30 32  1  0  0  0  0
 33 34  1  0  0  0  0
  6 35  1  0  0  0  0
  7 36  1  0  0  0  0
 10 37  1  0  0  0  0
 10 38  1  0  0  0  0
 10 39  1  0  0  0  0
 11 40  1  0  0  0  0
 11 41  1  0  0  0  0
 11 42  1  0  0  0  0
 12 43  1  0  0  0  0
 12 44  1  0  0  0  0
 12 45  1  0  0  0  0
 13 46  1  0  0  0  0
 13 47  1  0  0  0  0
 13 48  1  0  0  0  0
 14 49  1  0  0  0  0
 14 50  1  0  0  0  0
 14 51  1  0  0  0  0
 15 52  1  0  0  0  0
 16 53  1  0  0  0  0
 16 54  1  0  0  0  0
 17 55  1  0  0  0  0
 18 56  1  0  0  0  0
 18 57  1  0  0  0  0
 19 58  1  0  0  0  0
 19 59  1  0  0  0  0
 20 60  1  0  0  0  0
 21 61  1  0  0  0  0
 21 62  1  0  0  0  0
 22 63  1  0  0  0  0
 23 64  1  0  0  0  0
 24 65  1  0  0  0  0
 29 66  1  0  0  0  0
M  END
> <pdb_id>
4MIB

> <uniprot_id>
P26663

> <usmiles>
S(=O)(=O)(NC[C@@H]1CN(c2cnc3c(c(OC)c(cc3C=4C(=O)NC=CC4)C(C)(C)C)c2)CC1)C

$$$$
28P_A_7001
          07202400553D 1   1.00000     0.00000     0
            
 49 50  0  0  0  0            999 V2000
   36.3583    3.4512    3.2156 O   0  0  0  0  0  0  0  0  0  0  0  0
   34.2539    3.6248    3.5520 O   0  0  0  0  0  0  0  0  0  0  0  0
   29.5028    0.6027   -0.3625 O   0  0  0  0  0  0  0  0  0  0  0  0
   33.2106    2.3228   -0.3083 N   0  0  0  0  0  0  0  0  0  0  0  0
   34.0440    2.7627   -1.4367 C   0  0  0  0  0  0  0  0  0  0  0  0
   29.7461    1.3843   -1.5056 C   0  0  0  0  0  0  0  0  0  0  0  0
   31.7680    2.4465   -0.5243 C   0  0  0  0  0  0  0  0  0  0  0  0
   33.5028    3.0447    0.9471 C   0  0  0  0  0  0  0  0  0  0  0  0
   31.2481    1.5637   -1.6649 C   0  0  0  0  0  0  0  0  0  0  0  0
   23.4203    2.7432    5.0050 C   0  0  0  0  0  0  0  0  0  0  0  0
   23.5381    3.1284    3.6769 C   0  0  0  0  0  0  0  0  0  0  0  0
   23.6099    1.4070    5.3352 C   0  0  0  0  0  0  0  0  0  0  0  0
   34.9620    2.8624    1.3734 C   0  0  0  0  0  0  0  0  0  0  0  0
   27.1438    0.9360   -0.5421 C   0  0  0  0  0  0  0  0  0  0  0  0
   28.1257   -0.2443    1.3561 C   0  0  0  0  0  0  0  0  0  0  0  0
   23.8874    2.1923    2.6692 C   0  0  0  0  0  0  0  0  0  0  0  0
   23.9251    0.4960    4.3393 C   0  0  0  0  0  0  0  0  0  0  0  0
   25.9267    0.7527    0.0691 C   0  0  0  0  0  0  0  0  0  0  0  0
   26.8749   -0.4407    1.9241 C   0  0  0  0  0  0  0  0  0  0  0  0
   24.3910   -0.1081    1.8777 C   0  0  0  0  0  0  0  0  0  0  0  0
   35.1943    3.3556    2.7819 C   0  0  0  0  0  0  0  0  0  0  0  0
   28.2644    0.4561    0.1465 C   0  0  0  0  0  0  0  0  0  0  0  0
   24.0638    0.8422    3.0164 C   0  0  0  0  0  0  0  0  0  0  0  0
   25.7869    0.0913    1.2826 C   0  0  0  0  0  0  0  0  0  0  0  0
   37.1329    3.2411    2.6190 H   0  0  0  0  0  0  0  0  0  0  0  0
   35.0093    2.6440   -1.2042 H   0  0  0  0  0  0  0  0  0  0  0  0
   33.8261    2.2159   -2.2451 H   0  0  0  0  0  0  0  0  0  0  0  0
   33.8634    3.7275   -1.6282 H   0  0  0  0  0  0  0  0  0  0  0  0
   29.3099    2.2780   -1.4009 H   0  0  0  0  0  0  0  0  0  0  0  0
   29.3749    0.9247   -2.3125 H   0  0  0  0  0  0  0  0  0  0  0  0
   31.5601    3.4004   -0.7410 H   0  0  0  0  0  0  0  0  0  0  0  0
   31.2972    2.1860    0.3187 H   0  0  0  0  0  0  0  0  0  0  0  0
   32.9070    2.6939    1.6697 H   0  0  0  0  0  0  0  0  0  0  0  0
   33.3234    4.0190    0.8109 H   0  0  0  0  0  0  0  0  0  0  0  0
   31.4424    2.0012   -2.5429 H   0  0  0  0  0  0  0  0  0  0  0  0
   31.6981    0.6714   -1.6302 H   0  0  0  0  0  0  0  0  0  0  0  0
   23.2028    3.4159    5.7122 H   0  0  0  0  0  0  0  0  0  0  0  0
   23.3739    4.0823    3.4256 H   0  0  0  0  0  0  0  0  0  0  0  0
   23.5195    1.1049    6.2841 H   0  0  0  0  0  0  0  0  0  0  0  0
   35.5495    3.3763    0.7483 H   0  0  0  0  0  0  0  0  0  0  0  0
   35.1950    1.8910    1.3269 H   0  0  0  0  0  0  0  0  0  0  0  0
   27.2247    1.3877   -1.4306 H   0  0  0  0  0  0  0  0  0  0  0  0
   28.9381   -0.6058    1.8135 H   0  0  0  0  0  0  0  0  0  0  0  0
   24.0068    2.4903    1.7222 H   0  0  0  0  0  0  0  0  0  0  0  0
   24.0582   -0.4612    4.5961 H   0  0  0  0  0  0  0  0  0  0  0  0
   25.1072    1.1105   -0.3786 H   0  0  0  0  0  0  0  0  0  0  0  0
   26.7706   -0.9548    2.7755 H   0  0  0  0  0  0  0  0  0  0  0  0
   23.7172    0.0275    1.1513 H   0  0  0  0  0  0  0  0  0  0  0  0
   24.3265   -1.0450    2.2214 H   0  0  0  0  0  0  0  0  0  0  0  0
  1 21  1  0  0  0  0
  2 21  2  0  0  0  0
  3  6  1  0  0  0  0
  3 22  1  0  0  0  0
  4  5  1  0  0  0  0
  4  7  1  0  0  0  0
  4  8  1  0  0  0  0
  6  9  1  0  0  0  0
  7  9  1  0  0  0  0
  8 13  1  0  0  0  0
 10 11  2  0  0  0  0
 10 12  1  0  0  0  0
 11 16  1  0  0  0  0
 12 17  2  0  0  0  0
 13 21  1  0  0  0  0
 14 18  2  0  0  0  0
 14 22  1  0  0  0  0
 15 19  1  0  0  0  0
 15 22  2  0  0  0  0
 16 23  2  0  0  0  0
 17 23  1  0  0  0  0
 18 24  1  0  0  0  0
 19 24  2  0  0  0  0
 20 23  1  0  0  0  0
 20 24  1  0  0  0  0
  1 25  1  0  0  0  0
  5 26  1  0  0  0  0
  5 27  1  0  0  0  0
  5 28  1  0  0  0  0
  6 29  1  0  0  0  0
  6 30  1  0  0  0  0
  7 31  1  0  0  0  0
  7 32  1  0  0  0  0
  8 33  1  0  0  0  0
  8 34  1  0  0  0  0
  9 35  1  0  0  0  0
  9 36  1  0  0  0  0
 10 37  1  0  0  0  0
 11 38  1  0  0  0  0
 12 39  1  0  0  0  0
 13 40  1  0  0  0  0
 13 41  1  0  0  0  0
 14 42  1  0  0  0  0
 15 43  1  0  0  0  0
 16 44  1  0  0  0  0
 17 45  1  0  0  0  0
 18 46  1  0  0  0  0
 19 47  1  0  0  0  0
 20 48  1  0  0  0  0
 20 49  1  0  0  0  0
M  END
> <pdb_id>
3U9W

> <uniprot_id>
P09960

> <usmiles>
O=C(O)CCN(CCCOc1ccc(cc1)Cc2ccccc2)C

$$$$
28Q_A_602
          07192423343D 1   1.00000     0.00000     0
            
 62 64  0  0  0  0            999 V2000
   28.0786   43.7360   35.8664 S   0  0  0  0  0  0  0  0  0  0  0  0
   29.0163   43.2565   34.8986 O   0  0  0  0  0  0  0  0  0  0  0  0
   26.7854   43.1250   35.9300 O   0  0  0  0  0  0  0  0  0  0  0  0
   21.7567   45.6711   44.2075 O   0  0  0  0  0  0  0  0  0  0  0  0
   26.3475   41.6113   45.5926 O   0  0  0  0  0  0  0  0  0  0  0  0
   28.7826   43.5397   37.3169 N   0  0  0  0  0  0  0  0  0  0  0  0
   21.2111   47.5349   45.4301 N   0  0  0  0  0  0  0  0  0  0  0  0
   27.8802   45.4572   35.6298 C   0  0  0  0  0  0  0  0  0  0  0  0
   27.7526   41.7866   45.4088 C   0  0  0  0  0  0  0  0  0  0  0  0
   24.5179   42.8366   49.5237 C   0  0  0  0  0  0  0  0  0  0  0  0
   24.4673   40.8371   48.0721 C   0  0  0  0  0  0  0  0  0  0  0  0
   26.6373   41.9152   48.6952 C   0  0  0  0  0  0  0  0  0  0  0  0
   21.3988   48.3933   46.4697 C   0  0  0  0  0  0  0  0  0  0  0  0
   22.4143   48.2053   47.3467 C   0  0  0  0  0  0  0  0  0  0  0  0
   28.9059   43.2715   39.7285 C   0  0  0  0  0  0  0  0  0  0  0  0
   26.8958   44.1594   38.7709 C   0  0  0  0  0  0  0  0  0  0  0  0
   23.2660   47.0812   47.1740 C   0  0  0  0  0  0  0  0  0  0  0  0
   28.3698   43.4431   40.9923 C   0  0  0  0  0  0  0  0  0  0  0  0
   26.3710   44.3277   40.0403 C   0  0  0  0  0  0  0  0  0  0  0  0
   26.5818   44.3043   42.5470 C   0  0  0  0  0  0  0  0  0  0  0  0
   25.7531   43.1473   43.2013 C   0  0  0  0  0  0  0  0  0  0  0  0
   24.4429   44.6236   44.7508 C   0  0  0  0  0  0  0  0  0  0  0  0
   24.2616   44.2177   47.1149 C   0  0  0  0  0  0  0  0  0  0  0  0
   21.9980   46.3936   45.1786 C   0  0  0  0  0  0  0  0  0  0  0  0
   28.1769   43.6448   38.6045 C   0  0  0  0  0  0  0  0  0  0  0  0
   25.5884   42.7592   45.7399 C   0  0  0  0  0  0  0  0  0  0  0  0
   27.1033   43.9894   41.1678 C   0  0  0  0  0  0  0  0  0  0  0  0
   25.2711   43.5139   44.5992 C   0  0  0  0  0  0  0  0  0  0  0  0
   23.9356   44.9802   45.9987 C   0  0  0  0  0  0  0  0  0  0  0  0
   23.0756   46.1848   46.1440 C   0  0  0  0  0  0  0  0  0  0  0  0
   25.0728   43.0845   47.0302 C   0  0  0  0  0  0  0  0  0  0  0  0
   25.1814   42.1878   48.2950 C   0  0  0  0  0  0  0  0  0  0  0  0
   29.7577   43.3185   37.3062 H   0  0  0  0  0  0  0  0  0  0  0  0
   20.4600   47.7284   44.7989 H   0  0  0  0  0  0  0  0  0  0  0  0
   27.2268   45.8124   36.2984 H   0  0  0  0  0  0  0  0  0  0  0  0
   28.7616   45.9139   35.7500 H   0  0  0  0  0  0  0  0  0  0  0  0
   27.5386   45.6295   34.7059 H   0  0  0  0  0  0  0  0  0  0  0  0
   28.1906   40.8926   45.3148 H   0  0  0  0  0  0  0  0  0  0  0  0
   27.9160   42.3263   44.5829 H   0  0  0  0  0  0  0  0  0  0  0  0
   28.1353   42.2637   46.1999 H   0  0  0  0  0  0  0  0  0  0  0  0
   24.9496   43.7195   49.7084 H   0  0  0  0  0  0  0  0  0  0  0  0
   23.5438   42.9732   49.3434 H   0  0  0  0  0  0  0  0  0  0  0  0
   24.6293   42.2386   50.3174 H   0  0  0  0  0  0  0  0  0  0  0  0
   24.8662   40.3758   47.2796 H   0  0  0  0  0  0  0  0  0  0  0  0
   24.5793   40.2630   48.8832 H   0  0  0  0  0  0  0  0  0  0  0  0
   23.4938   40.9976   47.9092 H   0  0  0  0  0  0  0  0  0  0  0  0
   27.1198   41.4907   47.9290 H   0  0  0  0  0  0  0  0  0  0  0  0
   27.0844   42.7772   48.9342 H   0  0  0  0  0  0  0  0  0  0  0  0
   26.6568   41.2999   49.4833 H   0  0  0  0  0  0  0  0  0  0  0  0
   20.7808   49.1707   46.5874 H   0  0  0  0  0  0  0  0  0  0  0  0
   22.5616   48.8453   48.1008 H   0  0  0  0  0  0  0  0  0  0  0  0
   29.8193   42.8784   39.6230 H   0  0  0  0  0  0  0  0  0  0  0  0
   26.3515   44.4088   37.9699 H   0  0  0  0  0  0  0  0  0  0  0  0
   24.0207   46.9370   47.8141 H   0  0  0  0  0  0  0  0  0  0  0  0
   28.9023   43.1695   41.7933 H   0  0  0  0  0  0  0  0  0  0  0  0
   25.4487   44.6993   40.1460 H   0  0  0  0  0  0  0  0  0  0  0  0
   27.3625   44.5043   43.1390 H   0  0  0  0  0  0  0  0  0  0  0  0
   25.9960   45.1123   42.4835 H   0  0  0  0  0  0  0  0  0  0  0  0
   26.3284   42.3315   43.2614 H   0  0  0  0  0  0  0  0  0  0  0  0
   24.9586   42.9532   42.6259 H   0  0  0  0  0  0  0  0  0  0  0  0
   24.2083   45.1743   43.9498 H   0  0  0  0  0  0  0  0  0  0  0  0
   23.9032   44.4900   48.0078 H   0  0  0  0  0  0  0  0  0  0  0  0
  1  2  2  0  0  0  0
  1  3  2  0  0  0  0
  1  6  1  0  0  0  0
  1  8  1  0  0  0  0
  4 24  2  0  0  0  0
  5  9  1  0  0  0  0
  5 26  1  0  0  0  0
  6 25  1  0  0  0  0
  7 13  1  0  0  0  0
  7 24  1  0  0  0  0
 10 32  1  0  0  0  0
 11 32  1  0  0  0  0
 12 32  1  0  0  0  0
 13 14  2  0  0  0  0
 14 17  1  0  0  0  0
 15 18  1  0  0  0  0
 15 25  2  0  0  0  0
 16 19  2  0  0  0  0
 16 25  1  0  0  0  0
 17 30  2  0  0  0  0
 18 27  2  0  0  0  0
 19 27  1  0  0  0  0
 20 21  1  0  0  0  0
 20 27  1  0  0  0  0
 21 28  1  0  0  0  0
 22 28  2  0  0  0  0
 22 29  1  0  0  0  0
 23 29  2  0  0  0  0
 23 31  1  0  0  0  0
 24 30  1  0  0  0  0
 26 28  1  0  0  0  0
 26 31  2  0  0  0  0
 29 30  1  0  0  0  0
 31 32  1  0  0  0  0
  6 33  1  0  0  0  0
  7 34  1  0  0  0  0
  8 35  1  0  0  0  0
  8 36  1  0  0  0  0
  8 37  1  0  0  0  0
  9 38  1  0  0  0  0
  9 39  1  0  0  0  0
  9 40  1  0  0  0  0
 10 41  1  0  0  0  0
 10 42  1  0  0  0  0
 10 43  1  0  0  0  0
 11 44  1  0  0  0  0
 11 45  1  0  0  0  0
 11 46  1  0  0  0  0
 12 47  1  0  0  0  0
 12 48  1  0  0  0  0
 12 49  1  0  0  0  0
 13 50  1  0  0  0  0
 14 51  1  0  0  0  0
 15 52  1  0  0  0  0
 16 53  1  0  0  0  0
 17 54  1  0  0  0  0
 18 55  1  0  0  0  0
 19 56  1  0  0  0  0
 20 57  1  0  0  0  0
 20 58  1  0  0  0  0
 21 59  1  0  0  0  0
 21 60  1  0  0  0  0
 22 61  1  0  0  0  0
 23 62  1  0  0  0  0
M  END
> <pdb_id>
4MK8

> <uniprot_id>
P26663

> <usmiles>
S(=O)(=O)(Nc1ccc(cc1)CCc2c(OC)c(cc(c2)C=3C(=O)NC=CC3)C(C)(C)C)C

$$$$
28R_A_601
          07192423343D 1   1.00000     0.00000     0
            
 58 61  0  0  0  0            999 V2000
   28.0752   43.8299   36.3853 S   0  0  0  0  0  0  0  0  0  0  0  0
   28.9101   43.3807   35.3139 O   0  0  0  0  0  0  0  0  0  0  0  0
   26.7945   43.2141   36.5663 O   0  0  0  0  0  0  0  0  0  0  0  0
   21.7744   45.8828   43.8305 O   0  0  0  0  0  0  0  0  0  0  0  0
   26.4477   41.8189   45.1198 O   0  0  0  0  0  0  0  0  0  0  0  0
   27.5116   43.4308   43.1048 O   0  0  0  0  0  0  0  0  0  0  0  0
   28.9239   43.6040   37.7537 N   0  0  0  0  0  0  0  0  0  0  0  0
   21.1590   47.6089   45.1886 N   0  0  0  0  0  0  0  0  0  0  0  0
   25.8051   43.8794   41.7111 N   0  0  0  0  0  0  0  0  0  0  0  0
   27.8575   45.5567   36.2132 C   0  0  0  0  0  0  0  0  0  0  0  0
   25.9912   40.7503   44.2827 C   0  0  0  0  0  0  0  0  0  0  0  0
   24.7514   42.9699   49.1066 C   0  0  0  0  0  0  0  0  0  0  0  0
   24.7454   40.9133   47.7387 C   0  0  0  0  0  0  0  0  0  0  0  0
   26.8757   42.1978   48.1160 C   0  0  0  0  0  0  0  0  0  0  0  0
   21.3395   48.4277   46.2591 C   0  0  0  0  0  0  0  0  0  0  0  0
   22.3949   48.2527   47.0920 C   0  0  0  0  0  0  0  0  0  0  0  0
   29.3181   43.2808   41.4085 C   0  0  0  0  0  0  0  0  0  0  0  0
   29.5708   43.3651   40.0495 C   0  0  0  0  0  0  0  0  0  0  0  0
   23.2782   47.1691   46.8568 C   0  0  0  0  0  0  0  0  0  0  0  0
   27.2248   43.8137   39.5801 C   0  0  0  0  0  0  0  0  0  0  0  0
   24.5395   44.8624   44.3618 C   0  0  0  0  0  0  0  0  0  0  0  0
   24.2445   44.2921   46.6844 C   0  0  0  0  0  0  0  0  0  0  0  0
   21.9911   46.5338   44.8558 C   0  0  0  0  0  0  0  0  0  0  0  0
   26.1764   43.6962   42.9422 C   0  0  0  0  0  0  0  0  0  0  0  0
   28.0168   43.4622   41.8213 C   0  0  0  0  0  0  0  0  0  0  0  0
   28.5397   43.6158   39.1369 C   0  0  0  0  0  0  0  0  0  0  0  0
   25.6290   42.9231   45.2850 C   0  0  0  0  0  0  0  0  0  0  0  0
   26.9782   43.7327   40.9601 C   0  0  0  0  0  0  0  0  0  0  0  0
   23.9645   45.1238   45.6039 C   0  0  0  0  0  0  0  0  0  0  0  0
   23.0954   46.3147   45.7924 C   0  0  0  0  0  0  0  0  0  0  0  0
   25.4011   43.7763   44.1902 C   0  0  0  0  0  0  0  0  0  0  0  0
   25.0740   43.1746   46.5685 C   0  0  0  0  0  0  0  0  0  0  0  0
   25.3599   42.3254   47.8404 C   0  0  0  0  0  0  0  0  0  0  0  0
   29.8958   43.4228   37.6037 H   0  0  0  0  0  0  0  0  0  0  0  0
   20.3740   47.7880   44.5955 H   0  0  0  0  0  0  0  0  0  0  0  0
   27.2756   45.8946   36.9529 H   0  0  0  0  0  0  0  0  0  0  0  0
   28.7475   46.0107   36.2552 H   0  0  0  0  0  0  0  0  0  0  0  0
   27.4249   45.7520   35.3330 H   0  0  0  0  0  0  0  0  0  0  0  0
   26.6818   40.0275   44.2585 H   0  0  0  0  0  0  0  0  0  0  0  0
   25.1363   40.3823   44.6484 H   0  0  0  0  0  0  0  0  0  0  0  0
   25.8367   41.0949   43.3567 H   0  0  0  0  0  0  0  0  0  0  0  0
   25.1188   43.8930   49.2202 H   0  0  0  0  0  0  0  0  0  0  0  0
   23.7570   43.0162   49.0121 H   0  0  0  0  0  0  0  0  0  0  0  0
   24.9848   42.4174   49.9068 H   0  0  0  0  0  0  0  0  0  0  0  0
   25.1082   40.4493   46.9305 H   0  0  0  0  0  0  0  0  0  0  0  0
   24.9789   40.3884   48.5572 H   0  0  0  0  0  0  0  0  0  0  0  0
   23.7511   40.9871   47.6624 H   0  0  0  0  0  0  0  0  0  0  0  0
   27.3248   41.7837   47.3243 H   0  0  0  0  0  0  0  0  0  0  0  0
   27.2620   43.1052   48.2814 H   0  0  0  0  0  0  0  0  0  0  0  0
   27.0209   41.6220   48.9206 H   0  0  0  0  0  0  0  0  0  0  0  0
   20.6878   49.1657   46.4337 H   0  0  0  0  0  0  0  0  0  0  0  0
   22.5475   48.8767   47.8584 H   0  0  0  0  0  0  0  0  0  0  0  0
   30.0507   43.0957   42.0635 H   0  0  0  0  0  0  0  0  0  0  0  0
   30.5054   43.2448   39.7147 H   0  0  0  0  0  0  0  0  0  0  0  0
   24.0495   47.0223   47.4761 H   0  0  0  0  0  0  0  0  0  0  0  0
   26.4860   44.0063   38.9342 H   0  0  0  0  0  0  0  0  0  0  0  0
   24.3333   45.4582   43.5856 H   0  0  0  0  0  0  0  0  0  0  0  0
   23.8381   44.5019   47.5736 H   0  0  0  0  0  0  0  0  0  0  0  0
  1  2  2  0  0  0  0
  1  3  2  0  0  0  0
  1  7  1  0  0  0  0
  1 10  1  0  0  0  0
  4 23  2  0  0  0  0
  5 11  1  0  0  0  0
  5 27  1  0  0  0  0
  6 24  1  0  0  0  0
  6 25  1  0  0  0  0
  7 26  1  0  0  0  0
  8 15  1  0  0  0  0
  8 23  1  0  0  0  0
  9 24  2  0  0  0  0
  9 28  1  0  0  0  0
 12 33  1  0  0  0  0
 13 33  1  0  0  0  0
 14 33  1  0  0  0  0
 15 16  2  0  0  0  0
 16 19  1  0  0  0  0
 17 18  1  0  0  0  0
 17 25  2  0  0  0  0
 18 26  2  0  0  0  0
 19 30  2  0  0  0  0
 20 26  1  0  0  0  0
 20 28  2  0  0  0  0
 21 29  2  0  0  0  0
 21 31  1  0  0  0  0
 22 29  1  0  0  0  0
 22 32  2  0  0  0  0
 23 30  1  0  0  0  0
 24 31  1  0  0  0  0
 25 28  1  0  0  0  0
 27 31  2  0  0  0  0
 27 32  1  0  0  0  0
 29 30  1  0  0  0  0
 32 33  1  0  0  0  0
  7 34  1  0  0  0  0
  8 35  1  0  0  0  0
 10 36  1  0  0  0  0
 10 37  1  0  0  0  0
 10 38  1  0  0  0  0
 11 39  1  0  0  0  0
 11 40  1  0  0  0  0
 11 41  1  0  0  0  0
 12 42  1  0  0  0  0
 12 43  1  0  0  0  0
 12 44  1  0  0  0  0
 13 45  1  0  0  0  0
 13 46  1  0  0  0  0
 13 47  1  0  0  0  0
 14 48  1  0  0  0  0
 14 49  1  0  0  0  0
 14 50  1  0  0  0  0
 15 51  1  0  0  0  0
 16 52  1  0  0  0  0
 17 53  1  0  0  0  0
 18 54  1  0  0  0  0
 19 55  1  0  0  0  0
 20 56  1  0  0  0  0
 21 57  1  0  0  0  0
 22 58  1  0  0  0  0
M  END
> <pdb_id>
4MK9

> <uniprot_id>
P26663

> <usmiles>
S(=O)(=O)(Nc1cc2N=C(Oc2cc1)c3c(OC)c(cc(c3)C=4C(=O)NC=CC4)C(C)(C)C)C

$$$$
28S_B_1
          07202407143D 1   1.00000     0.00000     0
            
 25 26  0  0  0  0            999 V2000
   34.0672   46.4147   61.8630 Br  0  0  0  0  0  0  0  0  0  0  0  0
   37.0792   47.9712   56.2924 N   0  0  0  0  0  0  0  0  0  0  0  0
   37.1405   45.6656   56.6968 N   0  0  0  0  0  0  0  0  0  0  0  0
   35.9747   49.4549   57.7429 N   0  0  0  0  0  0  0  0  0  0  0  0
   34.7427   52.5304   56.2745 C   0  0  0  0  0  0  0  0  0  0  0  0
   37.4445   46.7273   55.9337 C   0  0  0  0  0  0  0  0  0  0  0  0
   36.1154   50.5551   56.7942 C   0  0  0  0  0  0  0  0  0  0  0  0
   35.2889   51.7580   57.1934 C   0  0  0  0  0  0  0  0  0  0  0  0
   35.3774   44.8766   59.8160 C   0  0  0  0  0  0  0  0  0  0  0  0
   36.0927   44.7079   58.6211 C   0  0  0  0  0  0  0  0  0  0  0  0
   35.3007   47.2623   59.4214 C   0  0  0  0  0  0  0  0  0  0  0  0
   34.9815   46.1579   60.2166 C   0  0  0  0  0  0  0  0  0  0  0  0
   36.3550   48.1929   57.4192 C   0  0  0  0  0  0  0  0  0  0  0  0
   36.4190   45.8203   57.8378 C   0  0  0  0  0  0  0  0  0  0  0  0
   36.0240   47.1006   58.2345 C   0  0  0  0  0  0  0  0  0  0  0  0
   35.5907   49.6343   58.6486 H   0  0  0  0  0  0  0  0  0  0  0  0
   34.1979   53.3234   56.5474 H   0  0  0  0  0  0  0  0  0  0  0  0
   34.8732   52.3232   55.3050 H   0  0  0  0  0  0  0  0  0  0  0  0
   37.9520   46.5909   55.0829 H   0  0  0  0  0  0  0  0  0  0  0  0
   35.8169   50.2436   55.8921 H   0  0  0  0  0  0  0  0  0  0  0  0
   37.0776   50.8242   56.7525 H   0  0  0  0  0  0  0  0  0  0  0  0
   35.1557   51.9690   58.1618 H   0  0  0  0  0  0  0  0  0  0  0  0
   35.1509   44.0829   60.3805 H   0  0  0  0  0  0  0  0  0  0  0  0
   36.3694   43.7924   58.3290 H   0  0  0  0  0  0  0  0  0  0  0  0
   35.0094   48.1765   59.7034 H   0  0  0  0  0  0  0  0  0  0  0  0
  1 12  1  0  0  0  0
  2  6  2  0  0  0  0
  2 13  1  0  0  0  0
  3  6  1  0  0  0  0
  3 14  2  0  0  0  0
  4  7  1  0  0  0  0
  4 13  1  0  0  0  0
  5  8  2  0  0  0  0
  7  8  1  0  0  0  0
  9 10  2  0  0  0  0
  9 12  1  0  0  0  0
 10 14  1  0  0  0  0
 11 12  2  0  0  0  0
 11 15  1  0  0  0  0
 13 15  2  0  0  0  0
 14 15  1  0  0  0  0
  4 16  1  0  0  0  0
  5 17  1  0  0  0  0
  5 18  1  0  0  0  0
  6 19  1  0  0  0  0
  7 20  1  0  0  0  0
  7 21  1  0  0  0  0
  8 22  1  0  0  0  0
  9 23  1  0  0  0  0
 10 24  1  0  0  0  0
 11 25  1  0  0  0  0
M  END
> <pdb_id>
3SRB

> <uniprot_id>
Q9I194

> <usmiles>
Brc1cc2c(ncnc2cc1)NCC=C

$$$$
29U_H_1601
          07202416143D 1   1.00000     0.00000     0
            
 49 50  0  0  0  0            999 V2000
   11.9322  -13.4525   15.6797 O   0  0  0  0  0  0  0  0  0  0  0  0
   12.0836  -13.5750   12.5523 O   0  0  0  0  0  0  0  0  0  0  0  0
   18.3389  -12.2871   11.2076 N   0  0  0  0  0  0  0  0  0  0  0  0
   17.8938  -10.0693   10.7779 N   0  0  0  0  0  0  0  0  0  0  0  0
   12.4583  -16.2821   12.2098 N   0  0  0  0  0  0  0  0  0  0  0  0
   12.1911  -11.2937   15.0099 N   0  0  0  0  0  0  0  0  0  0  0  0
   10.1440  -13.8856   13.6829 N   0  0  0  0  0  0  0  0  0  0  0  0
    9.5672  -14.9629    9.9741 C   0  0  0  0  0  0  0  0  0  0  0  0
   13.4861  -11.2137   15.6768 C   0  0  0  0  0  0  0  0  0  0  0  0
    9.0315  -14.7292   14.1306 C   0  0  0  0  0  0  0  0  0  0  0  0
    8.0904  -13.6093   14.6417 C   0  0  0  0  0  0  0  0  0  0  0  0
   10.9084  -15.3994   10.5950 C   0  0  0  0  0  0  0  0  0  0  0  0
    9.0713  -12.6521   15.3641 C   0  0  0  0  0  0  0  0  0  0  0  0
   14.9717  -12.3868   13.9674 C   0  0  0  0  0  0  0  0  0  0  0  0
   15.1537  -10.0021   14.1877 C   0  0  0  0  0  0  0  0  0  0  0  0
   15.9471  -12.3902   12.9768 C   0  0  0  0  0  0  0  0  0  0  0  0
   16.1320   -9.9974   13.1951 C   0  0  0  0  0  0  0  0  0  0  0  0
   17.6644  -11.1720   11.4435 C   0  0  0  0  0  0  0  0  0  0  0  0
   11.5449  -12.4817   15.0644 C   0  0  0  0  0  0  0  0  0  0  0  0
   11.1173  -14.2946   12.8297 C   0  0  0  0  0  0  0  0  0  0  0  0
   11.1286  -15.6407   12.1233 C   0  0  2  0  0  0  0  0  0  0  0  0
   10.2324  -12.5848   14.3243 C   0  0  1  0  0  0  0  0  0  0  0  0
   14.5680  -11.2028   14.5788 C   0  0  0  0  0  0  0  0  0  0  0  0
   16.5387  -11.1903   12.5796 C   0  0  0  0  0  0  0  0  0  0  0  0
   18.1389  -13.1133   11.7345 H   0  0  0  0  0  0  0  0  0  0  0  0
   19.0480  -12.3030   10.5028 H   0  0  0  0  0  0  0  0  0  0  0  0
   17.3666   -9.2441   10.9805 H   0  0  0  0  0  0  0  0  0  0  0  0
   12.6756  -16.4711   13.1675 H   0  0  0  0  0  0  0  0  0  0  0  0
   12.4491  -17.1392   11.6948 H   0  0  0  0  0  0  0  0  0  0  0  0
   11.7986  -10.5066   14.5341 H   0  0  0  0  0  0  0  0  0  0  0  0
    9.6719  -14.8734    8.9837 H   0  0  0  0  0  0  0  0  0  0  0  0
    8.8680  -15.6490   10.1748 H   0  0  0  0  0  0  0  0  0  0  0  0
    9.2916  -14.0829   10.3610 H   0  0  0  0  0  0  0  0  0  0  0  0
   13.6129  -12.0057   16.2741 H   0  0  0  0  0  0  0  0  0  0  0  0
   13.5405  -10.3752   16.2190 H   0  0  0  0  0  0  0  0  0  0  0  0
    9.3034  -15.3561   14.8607 H   0  0  0  0  0  0  0  0  0  0  0  0
    8.6259  -15.2491   13.3788 H   0  0  0  0  0  0  0  0  0  0  0  0
    7.4072  -13.9724   15.2753 H   0  0  0  0  0  0  0  0  0  0  0  0
    7.6298  -13.1496   13.8824 H   0  0  0  0  0  0  0  0  0  0  0  0
   11.5692  -14.6957   10.3340 H   0  0  0  0  0  0  0  0  0  0  0  0
   11.1457  -16.2618   10.1478 H   0  0  0  0  0  0  0  0  0  0  0  0
    9.3800  -13.0310   16.2365 H   0  0  0  0  0  0  0  0  0  0  0  0
    8.6620  -11.7527   15.5174 H   0  0  0  0  0  0  0  0  0  0  0  0
   14.5523  -13.2508   14.2461 H   0  0  0  0  0  0  0  0  0  0  0  0
   14.8728   -9.1443   14.6181 H   0  0  0  0  0  0  0  0  0  0  0  0
   16.2243  -13.2508   12.5496 H   0  0  0  0  0  0  0  0  0  0  0  0
   16.5496   -9.1321   12.9180 H   0  0  0  0  0  0  0  0  0  0  0  0
   10.4200  -16.2415   12.4934 H   0  0  0  0  0  0  0  0  0  0  0  0
   10.1095  -11.8363   13.6728 H   0  0  0  0  0  0  0  0  0  0  0  0
  1 19  2  0  0  0  0
  2 20  2  0  0  0  0
  3 18  1  0  0  0  0
  4 18  2  0  0  0  0
  5 21  1  0  0  0  0
  6  9  1  0  0  0  0
  6 19  1  0  0  0  0
  7 10  1  0  0  0  0
  7 20  1  0  0  0  0
  7 22  1  0  0  0  0
  8 12  1  0  0  0  0
  9 23  1  0  0  0  0
 10 11  1  0  0  0  0
 11 13  1  0  0  0  0
 12 21  1  0  0  0  0
 13 22  1  0  0  0  0
 14 16  1  0  0  0  0
 14 23  2  0  0  0  0
 15 17  2  0  0  0  0
 15 23  1  0  0  0  0
 16 24  2  0  0  0  0
 17 24  1  0  0  0  0
 18 24  1  0  0  0  0
 19 22  1  0  0  0  0
 20 21  1  0  0  0  0
  3 25  1  0  0  0  0
  3 26  1  0  0  0  0
  4 27  1  0  0  0  0
  5 28  1  0  0  0  0
  5 29  1  0  0  0  0
  6 30  1  0  0  0  0
  8 31  1  0  0  0  0
  8 32  1  0  0  0  0
  8 33  1  0  0  0  0
  9 34  1  0  0  0  0
  9 35  1  0  0  0  0
 10 36  1  0  0  0  0
 10 37  1  0  0  0  0
 11 38  1  0  0  0  0
 11 39  1  0  0  0  0
 12 40  1  0  0  0  0
 12 41  1  0  0  0  0
 13 42  1  0  0  0  0
 13 43  1  0  0  0  0
 14 44  1  0  0  0  0
 15 45  1  0  0  0  0
 16 46  1  0  0  0  0
 17 47  1  0  0  0  0
 21 48  1  0  0  0  0
 22 49  1  0  0  0  0
M  END
> <pdb_id>
2ZGX

> <uniprot_id>
P00734

> <usmiles>
O=C(N1[C@H](C(=O)NCc2ccc(cc2)C(=N)N)CCC1)[C@H](N)CC

$$$$
2AQ_A_1366
          07202407523D 1   1.00000     0.00000     0
            
 19 20  0  0  0  0            999 V2000
    1.8404   17.6408   27.8109 N   0  0  0  0  0  0  0  0  0  0  0  0
    3.1688   17.0319   25.9203 N   0  0  0  0  0  0  0  0  0  0  0  0
    5.0201   16.5104   22.7744 C   0  0  0  0  0  0  0  0  0  0  0  0
    4.5720   17.6026   22.0247 C   0  0  0  0  0  0  0  0  0  0  0  0
    4.5561   16.3171   24.0713 C   0  0  0  0  0  0  0  0  0  0  0  0
    1.8203   18.9863   25.7709 C   0  0  0  0  0  0  0  0  0  0  0  0
    3.6598   18.5026   22.5738 C   0  0  0  0  0  0  0  0  0  0  0  0
    2.2503   19.2275   24.4676 C   0  0  0  0  0  0  0  0  0  0  0  0
    2.2876   17.8769   26.4828 C   0  0  0  0  0  0  0  0  0  0  0  0
    3.6188   17.2392   24.6313 C   0  0  0  0  0  0  0  0  0  0  0  0
    3.1816   18.3065   23.9027 C   0  0  0  0  0  0  0  0  0  0  0  0
    1.1849   18.2649   28.2362 H   0  0  0  0  0  0  0  0  0  0  0  0
    2.1812   16.8505   28.3202 H   0  0  0  0  0  0  0  0  0  0  0  0
    5.6752   15.8674   22.3775 H   0  0  0  0  0  0  0  0  0  0  0  0
    4.9068   17.7384   21.0922 H   0  0  0  0  0  0  0  0  0  0  0  0
    4.8766   15.5372   24.6090 H   0  0  0  0  0  0  0  0  0  0  0  0
    1.1707   19.6129   26.2016 H   0  0  0  0  0  0  0  0  0  0  0  0
    3.3416   19.2839   22.0369 H   0  0  0  0  0  0  0  0  0  0  0  0
    1.9191   20.0155   23.9487 H   0  0  0  0  0  0  0  0  0  0  0  0
  1  9  1  0  0  0  0
  2  9  2  0  0  0  0
  2 10  1  0  0  0  0
  3  4  2  0  0  0  0
  3  5  1  0  0  0  0
  4  7  1  0  0  0  0
  5 10  2  0  0  0  0
  6  8  2  0  0  0  0
  6  9  1  0  0  0  0
  7 11  2  0  0  0  0
  8 11  1  0  0  0  0
 10 11  1  0  0  0  0
  1 12  1  0  0  0  0
  1 13  1  0  0  0  0
  3 14  1  0  0  0  0
  4 15  1  0  0  0  0
  5 16  1  0  0  0  0
  6 17  1  0  0  0  0
  7 18  1  0  0  0  0
  8 19  1  0  0  0  0
M  END
> <pdb_id>
5G65

> <uniprot_id>
O34453

> <usmiles>
n1c(N)ccc2c1cccc2

$$$$
2B2_A_301
          07192423263D 1   1.00000     0.00000     0
            
 34 35  0  0  0  0            999 V2000
   26.7017   -6.7229   -2.6824 S   0  0  0  0  0  0  0  0  0  0  0  0
   32.0815  -17.2875   -7.7120 F   0  0  0  0  0  0  0  0  0  0  0  0
   30.1572  -17.3058   -8.4369 F   0  0  0  0  0  0  0  0  0  0  0  0
   30.6209  -18.5411   -6.7234 F   0  0  0  0  0  0  0  0  0  0  0  0
   28.1679  -14.0633   -7.5921 O   0  0  0  0  0  0  0  0  0  0  0  0
   28.4738  -14.9292   -5.5489 N   0  0  0  0  0  0  0  0  0  0  0  0
   26.8423   -7.7142   -4.9723 N   0  0  0  0  0  0  0  0  0  0  0  0
   26.1861   -5.2539   -5.0517 C   0  0  0  0  0  0  0  0  0  0  0  0
   27.1772   -8.3504   -2.8141 C   0  0  0  0  0  0  0  0  0  0  0  0
   28.9158  -16.2466   -6.0950 C   0  0  0  0  0  0  0  0  0  0  0  0
   28.1065  -12.3295   -4.3821 C   0  0  0  0  0  0  0  0  0  0  0  0
   27.5793  -11.4799   -6.6074 C   0  0  0  0  0  0  0  0  0  0  0  0
   27.8588  -11.0512   -3.8413 C   0  0  0  0  0  0  0  0  0  0  0  0
   27.3094  -10.2068   -6.0479 C   0  0  0  0  0  0  0  0  0  0  0  0
   30.4159  -16.2148   -6.4430 C   0  0  0  0  0  0  0  0  0  0  0  0
   26.5826   -6.5382   -4.3790 C   0  0  0  0  0  0  0  0  0  0  0  0
   28.2587  -13.8957   -6.3597 C   0  0  0  0  0  0  0  0  0  0  0  0
   27.1682   -8.7364   -4.1385 C   0  0  0  0  0  0  0  0  0  0  0  0
   27.9802  -12.5357   -5.7720 C   0  0  0  0  0  0  0  0  0  0  0  0
   27.4557  -10.0015   -4.6648 C   0  0  0  0  0  0  0  0  0  0  0  0
   30.8363  -17.3682   -7.3268 C   0  0  0  0  0  0  0  0  0  0  0  0
   28.3380  -14.8222   -4.5639 H   0  0  0  0  0  0  0  0  0  0  0  0
   26.1850   -5.3835   -6.0433 H   0  0  0  0  0  0  0  0  0  0  0  0
   25.2708   -4.9880   -4.7493 H   0  0  0  0  0  0  0  0  0  0  0  0
   26.8387   -4.5358   -4.8101 H   0  0  0  0  0  0  0  0  0  0  0  0
   27.4263   -8.9400   -2.0458 H   0  0  0  0  0  0  0  0  0  0  0  0
   28.3912  -16.4524   -6.9211 H   0  0  0  0  0  0  0  0  0  0  0  0
   28.7524  -16.9573   -5.4107 H   0  0  0  0  0  0  0  0  0  0  0  0
   28.3702  -13.0859   -3.7836 H   0  0  0  0  0  0  0  0  0  0  0  0
   27.4848  -11.6263   -7.5921 H   0  0  0  0  0  0  0  0  0  0  0  0
   27.9731  -10.8967   -2.8600 H   0  0  0  0  0  0  0  0  0  0  0  0
   27.0148   -9.4542   -6.6367 H   0  0  0  0  0  0  0  0  0  0  0  0
   30.9421  -16.2547   -5.5935 H   0  0  0  0  0  0  0  0  0  0  0  0
   30.6156  -15.3582   -6.9188 H   0  0  0  0  0  0  0  0  0  0  0  0
  1  9  1  0  0  0  0
  1 16  1  0  0  0  0
  2 21  1  0  0  0  0
  3 21  1  0  0  0  0
  4 21  1  0  0  0  0
  5 17  2  0  0  0  0
  6 10  1  0  0  0  0
  6 17  1  0  0  0  0
  7 16  2  0  0  0  0
  7 18  1  0  0  0  0
  8 16  1  0  0  0  0
  9 18  2  0  0  0  0
 10 15  1  0  0  0  0
 11 13  1  0  0  0  0
 11 19  2  0  0  0  0
 12 14  2  0  0  0  0
 12 19  1  0  0  0  0
 13 20  2  0  0  0  0
 14 20  1  0  0  0  0
 15 21  1  0  0  0  0
 17 19  1  0  0  0  0
 18 20  1  0  0  0  0
  6 22  1  0  0  0  0
  8 23  1  0  0  0  0
  8 24  1  0  0  0  0
  8 25  1  0  0  0  0
  9 26  1  0  0  0  0
 10 27  1  0  0  0  0
 10 28  1  0  0  0  0
 11 29  1  0  0  0  0
 12 30  1  0  0  0  0
 13 31  1  0  0  0  0
 14 32  1  0  0  0  0
 15 33  1  0  0  0  0
 15 34  1  0  0  0  0
M  END
> <pdb_id>
4M3B

> <uniprot_id>
P96222

> <usmiles>
S1C(=NC(c2ccc(cc2)C(=O)NCCC(F)(F)F)=C1)C

$$$$
2BG_A_502
          07202405363D 1   1.00000     0.00000     0
            
 19 20  0  0  0  0            999 V2000
  -13.9828    5.7129   29.7511 S   0  0  0  0  0  0  0  0  0  0  0  0
  -10.4626    3.9013   30.5716 N   0  0  0  0  0  0  0  0  0  0  0  0
  -12.6759    5.1131   31.7380 N   0  0  0  0  0  0  0  0  0  0  0  0
  -11.5038    4.3594   29.6388 C   0  0  0  0  0  0  0  0  0  0  0  0
  -16.0912    7.0388   32.9109 C   0  0  0  0  0  0  0  0  0  0  0  0
  -15.2194    6.6238   33.9070 C   0  0  0  0  0  0  0  0  0  0  0  0
  -15.7570    6.7799   31.5864 C   0  0  0  0  0  0  0  0  0  0  0  0
  -14.0524    5.9696   33.5234 C   0  0  0  0  0  0  0  0  0  0  0  0
  -12.6366    5.0172   30.4080 C   0  0  0  0  0  0  0  0  0  0  0  0
  -14.6261    6.1488   31.2739 C   0  0  0  0  0  0  0  0  0  0  0  0
  -13.7665    5.7383   32.2346 C   0  0  0  0  0  0  0  0  0  0  0  0
   -9.7212    3.4698   30.0577 H   0  0  0  0  0  0  0  0  0  0  0  0
  -10.1039    4.6835   31.0810 H   0  0  0  0  0  0  0  0  0  0  0  0
  -11.8603    3.5760   29.1295 H   0  0  0  0  0  0  0  0  0  0  0  0
  -11.1092    5.0203   29.0004 H   0  0  0  0  0  0  0  0  0  0  0  0
  -16.9410    7.5134   33.1403 H   0  0  0  0  0  0  0  0  0  0  0  0
  -15.4234    6.7897   34.8718 H   0  0  0  0  0  0  0  0  0  0  0  0
  -16.3752    7.0721   30.8567 H   0  0  0  0  0  0  0  0  0  0  0  0
  -13.4110    5.6644   34.2272 H   0  0  0  0  0  0  0  0  0  0  0  0
  1  9  1  0  0  0  0
  1 10  1  0  0  0  0
  2  4  1  0  0  0  0
  3  9  2  0  0  0  0
  3 11  1  0  0  0  0
  4  9  1  0  0  0  0
  5  6  2  0  0  0  0
  5  7  1  0  0  0  0
  6  8  1  0  0  0  0
  7 10  2  0  0  0  0
  8 11  2  0  0  0  0
 10 11  1  0  0  0  0
  2 12  1  0  0  0  0
  2 13  1  0  0  0  0
  4 14  1  0  0  0  0
  4 15  1  0  0  0  0
  5 16  1  0  0  0  0
  6 17  1  0  0  0  0
  7 18  1  0  0  0  0
  8 19  1  0  0  0  0
M  END
> <pdb_id>
4CXR

> <uniprot_id>
P0A4X6

> <usmiles>
S1c2c(N=C1CN)cccc2

$$$$
2BZ_A_299
          07192421083D 1   1.00000     0.00000     0
            
 37 40  0  0  0  0            999 V2000
    0.6197   27.6590   11.5476 Cl  0  0  0  0  0  0  0  0  0  0  0  0
    3.7304   22.8251    8.9572 O   0  5  0  0  0  0  0  0  0  0  0  0
    5.4992   23.0428    7.6789 O   0  0  0  0  0  0  0  0  0  0  0  0
    1.5462   30.7871    6.3018 N   0  0  0  0  0  0  0  0  0  0  0  0
    0.4433   31.3035    6.8667 N   0  0  0  0  0  0  0  0  0  0  0  0
    2.5802   28.6722    6.4340 N   0  0  0  0  0  0  0  0  0  0  0  0
    0.1226   28.1458    8.3620 N   0  0  0  0  0  0  0  0  0  0  0  0
    4.4313   23.4692    8.1579 N   0  3  0  0  0  0  0  0  0  0  0  0
   -1.4597   30.8000    8.4044 C   0  0  0  0  0  0  0  0  0  0  0  0
   -1.3567   24.1809   11.0026 C   0  0  0  0  0  0  0  0  0  0  0  0
   -1.2523   23.9514    9.6036 C   0  0  0  0  0  0  0  0  0  0  0  0
   -0.7693   25.3356   11.5892 C   0  0  0  0  0  0  0  0  0  0  0  0
    4.1961   26.8755    6.4381 C   0  0  0  0  0  0  0  0  0  0  0  0
    4.7045   25.6042    6.8269 C   0  0  0  0  0  0  0  0  0  0  0  0
   -0.5564   24.8741    8.7753 C   0  0  0  0  0  0  0  0  0  0  0  0
    2.7109   25.3036    8.2298 C   0  0  0  0  0  0  0  0  0  0  0  0
    1.5958   29.5342    6.7714 C   0  0  0  0  0  0  0  0  0  0  0  0
   -0.0674   26.2725   10.7767 C   0  0  0  0  0  0  0  0  0  0  0  0
   -0.2228   30.4341    7.6815 C   0  0  0  0  0  0  0  0  0  0  0  0
    2.9322   27.3968    6.9289 C   0  0  0  0  0  0  0  0  0  0  0  0
    3.9503   24.8125    7.7312 C   0  0  0  0  0  0  0  0  0  0  0  0
    0.5139   29.2733    7.6332 C   0  0  0  0  0  0  0  0  0  0  0  0
    0.7989   27.0253    8.4622 C   0  0  0  0  0  0  0  0  0  0  0  0
    0.0462   26.0456    9.3638 C   0  0  0  0  0  0  0  0  0  0  0  0
    2.1636   26.5967    7.8521 C   0  0  0  0  0  0  0  0  0  0  0  0
    2.1837   31.2349    5.6748 H   0  0  0  0  0  0  0  0  0  0  0  0
    3.1702   28.9983    5.6954 H   0  0  0  0  0  0  0  0  0  0  0  0
   -1.7770   30.0172    8.9396 H   0  0  0  0  0  0  0  0  0  0  0  0
   -1.2732   31.5686    9.0163 H   0  0  0  0  0  0  0  0  0  0  0  0
   -2.1655   31.0618    7.7460 H   0  0  0  0  0  0  0  0  0  0  0  0
   -1.8465   23.5261   11.5781 H   0  0  0  0  0  0  0  0  0  0  0  0
   -1.6702   23.1373    9.2002 H   0  0  0  0  0  0  0  0  0  0  0  0
   -0.8490   25.4903   12.5739 H   0  0  0  0  0  0  0  0  0  0  0  0
    4.7302   27.4320    5.8017 H   0  0  0  0  0  0  0  0  0  0  0  0
    5.5782   25.2746    6.4689 H   0  0  0  0  0  0  0  0  0  0  0  0
   -0.4850   24.7121    7.7911 H   0  0  0  0  0  0  0  0  0  0  0  0
    2.1935   24.7340    8.8683 H   0  0  0  0  0  0  0  0  0  0  0  0
  1 18  1  0  0  0  0
  2  8  1  0  0  0  0
  3  8  2  0  0  0  0
  4  5  1  0  0  0  0
  4 17  1  0  0  0  0
  5 19  2  0  0  0  0
  6 17  1  0  0  0  0
  6 20  1  0  0  0  0
  7 22  1  0  0  0  0
  7 23  2  0  0  0  0
  8 21  1  0  0  0  0
  9 19  1  0  0  0  0
 10 11  2  0  0  0  0
 10 12  1  0  0  0  0
 11 15  1  0  0  0  0
 12 18  2  0  0  0  0
 13 14  1  0  0  0  0
 13 20  2  0  0  0  0
 14 21  2  0  0  0  0
 15 24  2  0  0  0  0
 16 21  1  0  0  0  0
 16 25  2  0  0  0  0
 17 22  2  0  0  0  0
 18 24  1  0  0  0  0
 19 22  1  0  0  0  0
 20 25  1  0  0  0  0
 23 24  1  0  0  0  0
 23 25  1  0  0  0  0
  4 26  1  0  0  0  0
  6 27  1  0  0  0  0
  9 28  1  0  0  0  0
  9 29  1  0  0  0  0
  9 30  1  0  0  0  0
 10 31  1  0  0  0  0
 11 32  1  0  0  0  0
 12 33  1  0  0  0  0
 13 34  1  0  0  0  0
 14 35  1  0  0  0  0
 15 36  1  0  0  0  0
 16 37  1  0  0  0  0
M  CHG  2   2  -1   8   1
M  END
> <pdb_id>
3LE6

> <uniprot_id>
P24941

> <usmiles>
Clc1c(cccc1)C2=NC3=C(NN=C3C)Nc4c2cc([N+]([O-])=O)cc4

$$$$
2CG_A_1001
          07192418483D 1   1.00000     0.00000     0
            
 23 23  0  0  0  0            999 V2000
   20.8860   -2.4130   49.1460 O   0  0  0  0  0  0  0  0  0  0  0  0
   19.7920   -4.1480   48.3720 O   0  0  0  0  0  0  0  0  0  0  0  0
   22.9640   -7.2300   53.0210 O   0  0  0  0  0  0  0  0  0  0  0  0
   24.3320   -6.1070   51.7680 O   0  0  0  0  0  0  0  0  0  0  0  0
   21.5360   -1.9060   51.3780 O   0  0  0  0  0  0  0  0  0  0  0  0
   22.2930   -2.3730   53.3610 O   0  0  0  0  0  0  0  0  0  0  0  0
   19.5540   -5.3550   50.7490 N   0  0  0  0  0  0  0  0  0  0  0  0
   20.3920   -3.5490   49.2930 C   0  0  0  0  0  0  0  0  0  0  0  0
   23.2330   -6.2120   52.3500 C   0  0  0  0  0  0  0  0  0  0  0  0
   22.1740   -2.6580   52.1470 C   0  0  0  0  0  0  0  0  0  0  0  0
   20.5400   -4.2290   50.6640 C   0  0  2  0  0  0  0  0  0  0  0  0
   22.2260   -5.1070   52.2460 C   0  0  1  0  0  0  0  0  0  0  0  0
   22.8580   -3.9000   51.6160 C   0  0  1  0  0  0  0  0  0  0  0  0
   21.9490   -4.7940   50.8030 C   0  0  0  0  0  0  0  0  0  0  0  0
   21.3574   -1.9702   49.9087 H   0  0  0  0  0  0  0  0  0  0  0  0
   22.0807   -7.3048   53.4837 H   0  0  0  0  0  0  0  0  0  0  0  0
   21.4457   -2.1408   50.4102 H   0  0  0  0  0  0  0  0  0  0  0  0
   19.6396   -5.8067   51.6371 H   0  0  0  0  0  0  0  0  0  0  0  0
   18.6269   -4.9947   50.6463 H   0  0  0  0  0  0  0  0  0  0  0  0
   20.3650   -3.5673   51.3930 H   0  0  0  0  0  0  0  0  0  0  0  0
   21.5092   -5.0048   52.9358 H   0  0  0  0  0  0  0  0  0  0  0  0
   23.8411   -3.8892   51.4335 H   0  0  0  0  0  0  0  0  0  0  0  0
   22.3298   -5.3735   50.0825 H   0  0  0  0  0  0  0  0  0  0  0  0
  1  8  1  0  0  0  0
  2  8  2  0  0  0  0
  3  9  1  0  0  0  0
  4  9  2  0  0  0  0
  5 10  1  0  0  0  0
  6 10  2  0  0  0  0
  7 11  1  0  0  0  0
  8 11  1  0  0  0  0
  9 12  1  0  0  0  0
 10 13  1  0  0  0  0
 11 14  1  0  0  0  0
 12 13  1  0  0  0  0
 12 14  1  0  0  0  0
 13 14  1  0  0  0  0
  1 15  1  0  0  0  0
  3 16  1  0  0  0  0
  5 17  1  0  0  0  0
  7 18  1  0  0  0  0
  7 19  1  0  0  0  0
 11 20  1  0  0  0  0
 12 21  1  0  0  0  0
 13 22  1  0  0  0  0
 14 23  1  0  0  0  0
M  END
> <pdb_id>
2E4V

> <uniprot_id>
P31422

> <usmiles>
O=C(O)[C@H]1[C@H](C(=O)O)C1[C@H](N)C(=O)O

$$$$
2CL_A_317
          07202404503D 1   1.00000     0.00000     0
            
 18 18  0  0  0  0            999 V2000
   66.5316   -6.7371   40.4680 Cl  0  0  0  0  0  0  0  0  0  0  0  0
   62.4419  -10.2351   41.5202 Cl  0  0  0  0  0  0  0  0  0  0  0  0
   62.8280   -6.3440   40.6438 O   0  0  0  0  0  0  0  0  0  0  0  0
   62.7458   -6.0068   42.8258 O   0  0  0  0  0  0  0  0  0  0  0  0
   65.2383  -10.1525   38.6303 C   0  0  0  0  0  0  0  0  0  0  0  0
   65.9499   -8.9926   38.9565 C   0  0  0  0  0  0  0  0  0  0  0  0
   64.1585  -10.5355   39.4296 C   0  0  0  0  0  0  0  0  0  0  0  0
   64.1779   -7.7362   42.0793 C   0  0  0  0  0  0  0  0  0  0  0  0
   63.1869   -6.6164   41.8256 C   0  0  0  0  0  0  0  0  0  0  0  0
   65.6048   -8.2160   40.0704 C   0  0  0  0  0  0  0  0  0  0  0  0
   63.8252   -9.7399   40.5333 C   0  0  0  0  0  0  0  0  0  0  0  0
   64.5277   -8.5788   40.8624 C   0  0  0  0  0  0  0  0  0  0  0  0
   63.2076   -6.8584   39.8749 H   0  0  0  0  0  0  0  0  0  0  0  0
   65.4993  -10.7001   37.8353 H   0  0  0  0  0  0  0  0  0  0  0  0
   66.7199   -8.7124   38.3832 H   0  0  0  0  0  0  0  0  0  0  0  0
   63.6344  -11.3604   39.2182 H   0  0  0  0  0  0  0  0  0  0  0  0
   63.7893   -8.3418   42.7738 H   0  0  0  0  0  0  0  0  0  0  0  0
   65.0225   -7.3291   42.4270 H   0  0  0  0  0  0  0  0  0  0  0  0
  1 10  1  0  0  0  0
  2 11  1  0  0  0  0
  3  9  1  0  0  0  0
  4  9  2  0  0  0  0
  5  6  2  0  0  0  0
  5  7  1  0  0  0  0
  6 10  1  0  0  0  0
  7 11  2  0  0  0  0
  8  9  1  0  0  0  0
  8 12  1  0  0  0  0
 10 12  2  0  0  0  0
 11 12  1  0  0  0  0
  3 13  1  0  0  0  0
  5 14  1  0  0  0  0
  6 15  1  0  0  0  0
  7 16  1  0  0  0  0
  8 17  1  0  0  0  0
  8 18  1  0  0  0  0
M  END
> <pdb_id>
2IS7

> <uniprot_id>
P15121

> <usmiles>
Clc1c(c(Cl)ccc1)CC(=O)O

$$$$
2CZ_B_401
          07202411483D 1   1.00000     0.00000     0
            
 30 30  0  0  0  0            999 V2000
   10.4399   -1.9141   51.9296 O   0  0  0  0  0  0  0  0  0  0  0  0
    9.3774   -7.9937   51.5366 O   0  0  0  0  0  0  0  0  0  0  0  0
    9.2701   -6.5080   48.4400 O   0  0  0  0  0  0  0  0  0  0  0  0
    9.6227   -4.0480   49.1657 O   0  0  0  0  0  0  0  0  0  0  0  0
    7.4398   -5.8472   52.3976 N   0  0  0  0  0  0  0  0  0  0  0  0
    8.4669   -3.0950   51.6255 N   0  0  0  0  0  0  0  0  0  0  0  0
    8.4734   -0.5595   51.9864 C   0  0  0  0  0  0  0  0  0  0  0  0
    7.3143   -6.9222   51.3923 C   0  0  0  0  0  0  0  0  0  0  0  0
    8.7476   -5.2757   52.5685 C   0  0  0  0  0  0  0  0  0  0  0  0
    9.2249   -1.8756   51.8495 C   0  0  0  0  0  0  0  0  0  0  0  0
    8.5033   -7.3796   50.5808 C   0  0  1  0  0  0  0  0  0  0  0  0
    9.1437   -4.3558   51.4641 C   0  0  1  0  0  0  0  0  0  0  0  0
    9.2721   -6.2799   49.8348 C   0  0  2  0  0  0  0  0  0  0  0  0
    8.8431   -4.8507   50.0565 C   0  0  2  0  0  0  0  0  0  0  0  0
    9.7283   -8.7567   51.1809 H   0  0  0  0  0  0  0  0  0  0  0  0
   10.0080   -6.9732   48.2115 H   0  0  0  0  0  0  0  0  0  0  0  0
   10.1902   -3.5593   49.6295 H   0  0  0  0  0  0  0  0  0  0  0  0
    6.8332   -5.1780   52.2100 H   0  0  0  0  0  0  0  0  0  0  0  0
    7.5530   -3.0566   51.5565 H   0  0  0  0  0  0  0  0  0  0  0  0
    7.7868   -0.6454   52.6820 H   0  0  0  0  0  0  0  0  0  0  0  0
    9.1004    0.1486   52.2317 H   0  0  0  0  0  0  0  0  0  0  0  0
    8.0456   -0.3362   51.1310 H   0  0  0  0  0  0  0  0  0  0  0  0
    6.9678   -7.7151   51.8632 H   0  0  0  0  0  0  0  0  0  0  0  0
    6.6203   -6.6362   50.7516 H   0  0  0  0  0  0  0  0  0  0  0  0
    8.7645   -4.7698   53.4250 H   0  0  0  0  0  0  0  0  0  0  0  0
    9.3958   -5.9946   52.6198 H   0  0  0  0  0  0  0  0  0  0  0  0
    8.2104   -8.0529   49.9393 H   0  0  0  0  0  0  0  0  0  0  0  0
   10.1187   -4.1945   51.5316 H   0  0  0  0  0  0  0  0  0  0  0  0
   10.2047   -6.3419   50.1317 H   0  0  0  0  0  0  0  0  0  0  0  0
    7.8988   -4.7497   49.8606 H   0  0  0  0  0  0  0  0  0  0  0  0
  1 10  2  0  0  0  0
  2 11  1  0  0  0  0
  2 15  1  0  0  0  0
  3 13  1  0  0  0  0
  3 16  1  0  0  0  0
  4 14  1  0  0  0  0
  4 17  1  0  0  0  0
  5  8  1  0  0  0  0
  5  9  1  0  0  0  0
  5 18  1  0  0  0  0
  6 10  1  0  0  0  0
  6 12  1  0  0  0  0
  6 19  1  0  0  0  0
  7 10  1  0  0  0  0
  7 20  1  0  0  0  0
  7 21  1  0  0  0  0
  7 22  1  0  0  0  0
  8 11  1  0  0  0  0
  8 23  1  0  0  0  0
  8 24  1  0  0  0  0
  9 12  1  0  0  0  0
  9 25  1  0  0  0  0
  9 26  1  0  0  0  0
 11 13  1  0  0  0  0
 11 27  1  0  0  0  0
 12 14  1  0  0  0  0
 12 28  1  0  0  0  0
 13 14  1  0  0  0  0
 13 29  1  0  0  0  0
 14 30  1  0  0  0  0
M  END
> <pdb_id>
4MSS

> <uniprot_id>
B4EA43

> <usmiles>
O=C(N[C@@H]1[C@@H](O)[C@H](O)[C@@H](O)CNC1)C

$$$$
2D1_A_301
          07192423263D 1   1.00000     0.00000     0
            
 41 42  0  0  0  0            999 V2000
   26.9639   -6.6165   -2.6182 S   0  0  0  0  0  0  0  0  0  0  0  0
   28.0842  -14.0042   -6.4009 S   0  0  0  0  0  0  0  0  0  0  0  0
   27.9798  -13.9217   -7.8320 O   0  0  0  0  0  0  0  0  0  0  0  0
   26.8826  -14.6755   -6.0579 O   0  0  0  0  0  0  0  0  0  0  0  0
   29.5167  -14.6049   -5.9545 N   0  0  0  0  0  0  0  0  0  0  0  0
   26.9661   -7.5751   -4.9441 N   0  0  0  0  0  0  0  0  0  0  0  0
   26.4423   -5.0339   -4.9219 C   0  0  0  0  0  0  0  0  0  0  0  0
   31.9325  -18.1699   -7.0398 C   0  0  0  0  0  0  0  0  0  0  0  0
   30.4298  -17.0181   -8.4433 C   0  0  0  0  0  0  0  0  0  0  0  0
   27.3507   -8.2450   -2.7371 C   0  0  0  0  0  0  0  0  0  0  0  0
   29.7822  -15.7625   -5.1439 C   0  0  0  0  0  0  0  0  0  0  0  0
   28.0579  -12.2261   -4.4015 C   0  0  0  0  0  0  0  0  0  0  0  0
   27.5808  -11.3504   -6.5744 C   0  0  0  0  0  0  0  0  0  0  0  0
   30.0060  -17.0074   -6.0256 C   0  0  0  0  0  0  0  0  0  0  0  0
   27.8625  -10.9504   -3.7837 C   0  0  0  0  0  0  0  0  0  0  0  0
   27.4056  -10.0794   -5.9845 C   0  0  0  0  0  0  0  0  0  0  0  0
   26.8016   -6.3821   -4.3153 C   0  0  0  0  0  0  0  0  0  0  0  0
   27.9168  -12.4622   -5.7714 C   0  0  0  0  0  0  0  0  0  0  0  0
   27.2960   -8.5980   -4.1100 C   0  0  0  0  0  0  0  0  0  0  0  0
   31.0746  -16.9274   -7.0931 C   0  0  0  0  0  0  0  0  0  0  0  0
   27.5261   -9.8786   -4.6307 C   0  0  0  0  0  0  0  0  0  0  0  0
   29.9672  -13.8522   -5.4744 H   0  0  0  0  0  0  0  0  0  0  0  0
   26.3997   -5.1171   -5.9175 H   0  0  0  0  0  0  0  0  0  0  0  0
   25.5527   -4.7382   -4.5737 H   0  0  0  0  0  0  0  0  0  0  0  0
   27.1383   -4.3604   -4.6731 H   0  0  0  0  0  0  0  0  0  0  0  0
   32.4137  -18.2053   -6.1639 H   0  0  0  0  0  0  0  0  0  0  0  0
   31.3530  -18.9793   -7.1347 H   0  0  0  0  0  0  0  0  0  0  0  0
   32.5985  -18.1473   -7.7854 H   0  0  0  0  0  0  0  0  0  0  0  0
   29.8310  -16.2290   -8.5804 H   0  0  0  0  0  0  0  0  0  0  0  0
   31.1369  -17.0269   -9.1504 H   0  0  0  0  0  0  0  0  0  0  0  0
   29.8914  -17.8589   -8.4997 H   0  0  0  0  0  0  0  0  0  0  0  0
   27.5782   -8.8554   -1.9784 H   0  0  0  0  0  0  0  0  0  0  0  0
   29.0028  -15.9250   -4.5388 H   0  0  0  0  0  0  0  0  0  0  0  0
   30.6017  -15.5977   -4.5950 H   0  0  0  0  0  0  0  0  0  0  0  0
   28.3110  -12.9966   -3.8165 H   0  0  0  0  0  0  0  0  0  0  0  0
   27.4668  -11.4631   -7.5614 H   0  0  0  0  0  0  0  0  0  0  0  0
   29.1403  -17.2091   -6.4836 H   0  0  0  0  0  0  0  0  0  0  0  0
   30.2462  -17.7647   -5.4183 H   0  0  0  0  0  0  0  0  0  0  0  0
   27.9605  -10.8265   -2.7963 H   0  0  0  0  0  0  0  0  0  0  0  0
   27.1867   -9.2999   -6.5714 H   0  0  0  0  0  0  0  0  0  0  0  0
   31.6238  -16.0966   -7.0025 H   0  0  0  0  0  0  0  0  0  0  0  0
  1 10  1  0  0  0  0
  1 17  1  0  0  0  0
  2  3  2  0  0  0  0
  2  4  2  0  0  0  0
  2  5  1  0  0  0  0
  2 18  1  0  0  0  0
  5 11  1  0  0  0  0
  6 17  2  0  0  0  0
  6 19  1  0  0  0  0
  7 17  1  0  0  0  0
  8 20  1  0  0  0  0
  9 20  1  0  0  0  0
 10 19  2  0  0  0  0
 11 14  1  0  0  0  0
 12 15  1  0  0  0  0
 12 18  2  0  0  0  0
 13 16  2  0  0  0  0
 13 18  1  0  0  0  0
 14 20  1  0  0  0  0
 15 21  2  0  0  0  0
 16 21  1  0  0  0  0
 19 21  1  0  0  0  0
  5 22  1  0  0  0  0
  7 23  1  0  0  0  0
  7 24  1  0  0  0  0
  7 25  1  0  0  0  0
  8 26  1  0  0  0  0
  8 27  1  0  0  0  0
  8 28  1  0  0  0  0
  9 29  1  0  0  0  0
  9 30  1  0  0  0  0
  9 31  1  0  0  0  0
 10 32  1  0  0  0  0
 11 33  1  0  0  0  0
 11 34  1  0  0  0  0
 12 35  1  0  0  0  0
 13 36  1  0  0  0  0
 14 37  1  0  0  0  0
 14 38  1  0  0  0  0
 15 39  1  0  0  0  0
 16 40  1  0  0  0  0
 20 41  1  0  0  0  0
M  END
> <pdb_id>
4M3F

> <uniprot_id>
P96222

> <usmiles>
S(=O)(=O)(NCCC(C)C)c1ccc(cc1)C=2N=C(SC2)C

$$$$
2D7_A_1226
          07192420423D 1   1.00000     0.00000     0
            
 40 42  0  0  0  0            999 V2000
   69.4274   32.3231   26.2302 Cl  0  0  0  0  0  0  0  0  0  0  0  0
   70.1787   36.3383   22.0813 O   0  0  0  0  0  0  0  0  0  0  0  0
   73.5936   36.0370   28.8885 O   0  0  0  0  0  0  0  0  0  0  0  0
   66.8335   32.1111   27.4289 O   0  0  0  0  0  0  0  0  0  0  0  0
   64.3883   34.4557   24.1723 O   0  0  0  0  0  0  0  0  0  0  0  0
   66.1594   35.9762   20.8454 N   0  0  0  0  0  0  0  0  0  0  0  0
   65.8222   35.1717   21.8284 N   0  0  0  0  0  0  0  0  0  0  0  0
   69.3266   36.3159   24.1642 N   0  0  0  0  0  0  0  0  0  0  0  0
   75.1001   35.6169   27.0980 C   0  0  0  0  0  0  0  0  0  0  0  0
   67.3626   36.5371   21.0151 C   0  0  0  0  0  0  0  0  0  0  0  0
   71.6904   35.9491   24.5113 C   0  0  0  0  0  0  0  0  0  0  0  0
   70.2213   36.4013   26.3393 C   0  0  0  0  0  0  0  0  0  0  0  0
   72.7635   35.8384   25.3877 C   0  0  0  0  0  0  0  0  0  0  0  0
   71.2890   36.2907   27.2265 C   0  0  0  0  0  0  0  0  0  0  0  0
   65.5926   33.2809   25.7928 C   0  0  0  0  0  0  0  0  0  0  0  0
   67.9540   33.7519   24.4423 C   0  0  0  0  0  0  0  0  0  0  0  0
   69.1912   36.2820   22.8352 C   0  0  0  0  0  0  0  0  0  0  0  0
   73.7456   35.9130   27.6900 C   0  0  0  0  0  0  0  0  0  0  0  0
   67.9420   33.0346   25.6089 C   0  0  0  0  0  0  0  0  0  0  0  0
   66.7743   32.7937   26.2940 C   0  0  0  0  0  0  0  0  0  0  0  0
   65.5780   34.0258   24.6049 C   0  0  0  0  0  0  0  0  0  0  0  0
   70.4098   36.3047   24.9675 C   0  0  0  0  0  0  0  0  0  0  0  0
   66.8322   35.1280   22.6736 C   0  0  0  0  0  0  0  0  0  0  0  0
   72.5801   36.0091   26.7602 C   0  0  0  0  0  0  0  0  0  0  0  0
   67.8317   36.0669   22.2238 C   0  0  0  0  0  0  0  0  0  0  0  0
   66.7839   34.2939   23.9242 C   0  0  0  0  0  0  0  0  0  0  0  0
   67.7129   31.7717   27.7629 H   0  0  0  0  0  0  0  0  0  0  0  0
   64.3261   34.9909   23.3299 H   0  0  0  0  0  0  0  0  0  0  0  0
   64.9555   34.6811   21.9186 H   0  0  0  0  0  0  0  0  0  0  0  0
   68.4580   36.3576   24.6578 H   0  0  0  0  0  0  0  0  0  0  0  0
   75.0220   35.5514   26.1033 H   0  0  0  0  0  0  0  0  0  0  0  0
   75.7353   36.3520   27.3349 H   0  0  0  0  0  0  0  0  0  0  0  0
   75.4414   34.7508   27.4633 H   0  0  0  0  0  0  0  0  0  0  0  0
   67.8264   37.1679   20.3929 H   0  0  0  0  0  0  0  0  0  0  0  0
   71.8325   35.7723   23.5374 H   0  0  0  0  0  0  0  0  0  0  0  0
   69.3002   36.5533   26.6978 H   0  0  0  0  0  0  0  0  0  0  0  0
   73.6753   35.6346   25.0312 H   0  0  0  0  0  0  0  0  0  0  0  0
   71.1327   36.4136   28.2065 H   0  0  0  0  0  0  0  0  0  0  0  0
   64.7365   33.1033   26.2781 H   0  0  0  0  0  0  0  0  0  0  0  0
   68.8173   33.8877   23.9563 H   0  0  0  0  0  0  0  0  0  0  0  0
  1 19  1  0  0  0  0
  2 17  2  0  0  0  0
  3 18  2  0  0  0  0
  4 20  1  0  0  0  0
  5 21  1  0  0  0  0
  6  7  1  0  0  0  0
  6 10  2  0  0  0  0
  7 23  1  0  0  0  0
  8 17  1  0  0  0  0
  8 22  1  0  0  0  0
  9 18  1  0  0  0  0
 10 25  1  0  0  0  0
 11 13  1  0  0  0  0
 11 22  2  0  0  0  0
 12 14  2  0  0  0  0
 12 22  1  0  0  0  0
 13 24  2  0  0  0  0
 14 24  1  0  0  0  0
 15 20  2  0  0  0  0
 15 21  1  0  0  0  0
 16 19  2  0  0  0  0
 16 26  1  0  0  0  0
 17 25  1  0  0  0  0
 18 24  1  0  0  0  0
 19 20  1  0  0  0  0
 21 26  2  0  0  0  0
 23 25  2  0  0  0  0
 23 26  1  0  0  0  0
  4 27  1  0  0  0  0
  5 28  1  0  0  0  0
  7 29  1  0  0  0  0
  8 30  1  0  0  0  0
  9 31  1  0  0  0  0
  9 32  1  0  0  0  0
  9 33  1  0  0  0  0
 10 34  1  0  0  0  0
 11 35  1  0  0  0  0
 12 36  1  0  0  0  0
 13 37  1  0  0  0  0
 14 38  1  0  0  0  0
 15 39  1  0  0  0  0
 16 40  1  0  0  0  0
M  END
> <pdb_id>
2BYH

> <uniprot_id>
P07900

> <usmiles>
Clc1c(O)cc(O)c(c1)C=2NN=CC2C(=O)Nc3ccc(cc3)C(=O)C

$$$$
2DD_A_1226
          07192420423D 1   1.00000     0.00000     0
            
 43 45  0  0  0  0            999 V2000
   69.5174   32.7415   26.3530 Cl  0  0  0  0  0  0  0  0  0  0  0  0
   74.1671   35.8908   27.5810 S   0  0  0  0  0  0  0  0  0  0  0  0
   74.1473   35.6850   28.9947 O   0  0  0  0  0  0  0  0  0  0  0  0
   75.1606   36.8991   27.2802 O   0  0  0  0  0  0  0  0  0  0  0  0
   69.0188   37.9458   23.1239 O   0  0  0  0  0  0  0  0  0  0  0  0
   66.8646   32.1220   27.5081 O   0  0  0  0  0  0  0  0  0  0  0  0
   64.2741   34.3006   24.2041 O   0  0  0  0  0  0  0  0  0  0  0  0
   74.5553   34.5651   26.8067 N   0  0  0  0  0  0  0  0  0  0  0  0
   66.0707   35.8959   20.8384 N   0  0  0  0  0  0  0  0  0  0  0  0
   65.8788   34.9400   21.7165 N   0  0  0  0  0  0  0  0  0  0  0  0
   68.0158   37.0916   24.9165 N   0  0  0  0  0  0  0  0  0  0  0  0
   66.8916   36.8282   21.3566 C   0  0  0  0  0  0  0  0  0  0  0  0
   68.7187   37.8993   25.7587 C   0  0  0  0  0  0  0  0  0  0  0  0
   71.9416   35.8248   25.9689 C   0  0  0  0  0  0  0  0  0  0  0  0
   71.9738   37.5135   27.6853 C   0  0  0  0  0  0  0  0  0  0  0  0
   70.6900   36.2853   25.5345 C   0  0  0  0  0  0  0  0  0  0  0  0
   70.7323   37.9660   27.2547 C   0  0  0  0  0  0  0  0  0  0  0  0
   65.5376   33.1888   25.8638 C   0  0  0  0  0  0  0  0  0  0  0  0
   67.8728   33.9716   24.5575 C   0  0  0  0  0  0  0  0  0  0  0  0
   67.9445   33.2181   25.7194 C   0  0  0  0  0  0  0  0  0  0  0  0
   72.5909   36.4537   27.0349 C   0  0  0  0  0  0  0  0  0  0  0  0
   68.1450   37.1990   23.5867 C   0  0  0  0  0  0  0  0  0  0  0  0
   66.7799   32.8021   26.3620 C   0  0  0  0  0  0  0  0  0  0  0  0
   65.4660   33.9203   24.6759 C   0  0  0  0  0  0  0  0  0  0  0  0
   70.0682   37.3397   26.2014 C   0  0  0  0  0  0  0  0  0  0  0  0
   66.5821   35.2122   22.8336 C   0  0  0  0  0  0  0  0  0  0  0  0
   67.2415   36.4286   22.6333 C   0  0  0  0  0  0  0  0  0  0  0  0
   66.6375   34.3630   24.0640 C   0  0  0  0  0  0  0  0  0  0  0  0
   67.7588   31.8468   27.8613 H   0  0  0  0  0  0  0  0  0  0  0  0
   64.2168   34.8244   23.3542 H   0  0  0  0  0  0  0  0  0  0  0  0
   74.5599   34.7431   25.8226 H   0  0  0  0  0  0  0  0  0  0  0  0
   75.4643   34.2645   27.0953 H   0  0  0  0  0  0  0  0  0  0  0  0
   65.6682   35.9271   19.9235 H   0  0  0  0  0  0  0  0  0  0  0  0
   67.3933   36.4075   25.2966 H   0  0  0  0  0  0  0  0  0  0  0  0
   67.1953   37.6636   20.8984 H   0  0  0  0  0  0  0  0  0  0  0  0
   68.1635   38.0561   26.5755 H   0  0  0  0  0  0  0  0  0  0  0  0
   68.8800   38.7696   25.2932 H   0  0  0  0  0  0  0  0  0  0  0  0
   72.3706   35.0441   25.5145 H   0  0  0  0  0  0  0  0  0  0  0  0
   72.4229   37.9516   28.4640 H   0  0  0  0  0  0  0  0  0  0  0  0
   70.2445   35.8580   24.7477 H   0  0  0  0  0  0  0  0  0  0  0  0
   70.3098   38.7517   27.7066 H   0  0  0  0  0  0  0  0  0  0  0  0
   64.7013   32.9440   26.3543 H   0  0  0  0  0  0  0  0  0  0  0  0
   68.7100   34.2321   24.0766 H   0  0  0  0  0  0  0  0  0  0  0  0
  1 20  1  0  0  0  0
  2  3  2  0  0  0  0
  2  4  2  0  0  0  0
  2  8  1  0  0  0  0
  2 21  1  0  0  0  0
  5 22  2  0  0  0  0
  6 23  1  0  0  0  0
  7 24  1  0  0  0  0
  9 10  1  0  0  0  0
  9 12  1  0  0  0  0
 10 26  2  0  0  0  0
 11 13  1  0  0  0  0
 11 22  1  0  0  0  0
 12 27  2  0  0  0  0
 13 25  1  0  0  0  0
 14 16  1  0  0  0  0
 14 21  2  0  0  0  0
 15 17  2  0  0  0  0
 15 21  1  0  0  0  0
 16 25  2  0  0  0  0
 17 25  1  0  0  0  0
 18 23  2  0  0  0  0
 18 24  1  0  0  0  0
 19 20  2  0  0  0  0
 19 28  1  0  0  0  0
 20 23  1  0  0  0  0
 22 27  1  0  0  0  0
 24 28  2  0  0  0  0
 26 27  1  0  0  0  0
 26 28  1  0  0  0  0
  6 29  1  0  0  0  0
  7 30  1  0  0  0  0
  8 31  1  0  0  0  0
  8 32  1  0  0  0  0
  9 33  1  0  0  0  0
 11 34  1  0  0  0  0
 12 35  1  0  0  0  0
 13 36  1  0  0  0  0
 13 37  1  0  0  0  0
 14 38  1  0  0  0  0
 15 39  1  0  0  0  0
 16 40  1  0  0  0  0
 17 41  1  0  0  0  0
 18 42  1  0  0  0  0
 19 43  1  0  0  0  0
M  END
> <pdb_id>
2BYI

> <uniprot_id>
P07900

> <usmiles>
Clc1c(O)cc(O)c(c1)C2=NNC=C2C(=O)NCc3ccc(S(=O)(=O)N)cc3

$$$$
2E5_B_402
          07202416533D 1   1.00000     0.00000     0
            
 25 25  0  0  0  0            999 V2000
    4.3620    0.6540  -17.0970 P   0  0  0  0  0  0  0  0  0  0  0  0
    4.2680   -2.1340  -16.7160 P   0  0  0  0  0  0  0  0  0  0  0  0
    4.7840    0.9100  -18.6010 O   0  0  0  0  0  0  0  0  0  0  0  0
    3.3380    1.6610  -16.7690 O   0  0  0  0  0  0  0  0  0  0  0  0
    5.6440    0.7820  -16.2090 O   0  0  0  0  0  0  0  0  0  0  0  0
    5.7780   -2.2680  -17.0850 O   0  0  0  0  0  0  0  0  0  0  0  0
    3.3790   -3.1220  -17.3350 O   0  0  0  0  0  0  0  0  0  0  0  0
    3.5880   -0.7220  -16.9600 O   0  0  0  0  0  0  0  0  0  0  0  0
    4.1280   -2.3970  -15.1420 O   0  0  0  0  0  0  0  0  0  0  0  0
    0.8970    0.9710  -13.3350 N   0  0  0  0  0  0  0  0  0  0  0  0
    2.8540   -2.6590  -14.5560 C   0  0  0  0  0  0  0  0  0  0  0  0
    0.1870    0.0340  -13.9940 C   0  0  0  0  0  0  0  0  0  0  0  0
    2.2040    0.7780  -13.0640 C   0  0  0  0  0  0  0  0  0  0  0  0
    0.7990   -1.1500  -14.4110 C   0  0  0  0  0  0  0  0  0  0  0  0
    2.8520   -0.3930  -13.4480 C   0  0  0  0  0  0  0  0  0  0  0  0
    2.1500   -1.3730  -14.1420 C   0  0  0  0  0  0  0  0  0  0  0  0
    5.4817    0.2457  -18.8691 H   0  0  0  0  0  0  0  0  0  0  0  0
    3.0398    1.5371  -15.8226 H   0  0  0  0  0  0  0  0  0  0  0  0
    6.3000   -1.5548  -16.6172 H   0  0  0  0  0  0  0  0  0  0  0  0
    2.9810   -3.2338  -13.7476 H   0  0  0  0  0  0  0  0  0  0  0  0
    2.2840   -3.1409  -15.2215 H   0  0  0  0  0  0  0  0  0  0  0  0
   -0.7825    0.1873  -14.1853 H   0  0  0  0  0  0  0  0  0  0  0  0
    2.7159    1.4873  -12.5795 H   0  0  0  0  0  0  0  0  0  0  0  0
    0.2679   -1.8395  -14.9034 H   0  0  0  0  0  0  0  0  0  0  0  0
    3.8175   -0.5289  -13.2259 H   0  0  0  0  0  0  0  0  0  0  0  0
  1  3  1  0  0  0  0
  1  4  1  0  0  0  0
  1  5  2  0  0  0  0
  1  8  1  0  0  0  0
  2  6  1  0  0  0  0
  2  7  2  0  0  0  0
  2  8  1  0  0  0  0
  2  9  1  0  0  0  0
  9 11  1  0  0  0  0
 10 12  2  0  0  0  0
 10 13  1  0  0  0  0
 11 16  1  0  0  0  0
 12 14  1  0  0  0  0
 13 15  2  0  0  0  0
 14 16  2  0  0  0  0
 15 16  1  0  0  0  0
  3 17  1  0  0  0  0
  4 18  1  0  0  0  0
  6 19  1  0  0  0  0
 11 20  1  0  0  0  0
 11 21  1  0  0  0  0
 12 22  1  0  0  0  0
 13 23  1  0  0  0  0
 14 24  1  0  0  0  0
 15 25  1  0  0  0  0
M  END
> <pdb_id>
4MUY

> <uniprot_id>
C9QSC3

> <usmiles>
P(=O)(OP(=O)(O)O)(OCc1ccncc1)O

$$$$
2E9_B_808
          07192416263D 1   1.00000     0.00000     0
            
 47 48  0  0  0  0            999 V2000
  -41.4973   17.9053    6.7293 Cl  0  0  0  0  0  0  0  0  0  0  0  0
  -44.6085   17.6474   15.9759 S   0  0  0  0  0  0  0  0  0  0  0  0
  -44.9257   13.9470   13.5420 O   0  0  0  0  0  0  0  0  0  0  0  0
  -40.6295   12.1753    7.4557 O   0  0  0  0  0  0  0  0  0  0  0  0
  -43.4340   12.0321    7.8567 N   0  0  0  0  0  0  0  0  0  0  0  0
  -43.2582   13.1439   12.2621 N   0  0  0  0  0  0  0  0  0  0  0  0
  -42.9211   14.9904   13.6344 N   0  0  0  0  0  0  0  0  0  0  0  0
  -36.6103   15.6671    7.4672 C   0  0  0  0  0  0  0  0  0  0  0  0
  -42.9131   17.8691   15.8253 C   0  0  0  0  0  0  0  0  0  0  0  0
  -44.6172   16.2795   14.9804 C   0  0  0  0  0  0  0  0  0  0  0  0
  -43.7135   12.6597    9.1536 C   0  0  0  0  0  0  0  0  0  0  0  0
  -44.1217   12.1848   11.5862 C   0  0  0  0  0  0  0  0  0  0  0  0
  -43.2428   12.9964    6.7730 C   0  0  0  0  0  0  0  0  0  0  0  0
  -37.2716   14.6703    6.9893 C   0  0  0  0  0  0  0  0  0  0  0  0
  -43.5557   11.6786   10.2930 C   0  0  0  0  0  0  0  0  0  0  0  0
  -42.3738   16.9252   15.0205 C   0  0  0  0  0  0  0  0  0  0  0  0
  -38.3340   13.8791    7.7192 C   0  0  0  0  0  0  0  0  0  0  0  0
  -42.3051   15.3394    6.8442 C   0  0  0  0  0  0  0  0  0  0  0  0
  -39.9683   15.7486    7.2665 C   0  0  0  0  0  0  0  0  0  0  0  0
  -43.7661   14.0149   13.1473 C   0  0  0  0  0  0  0  0  0  0  0  0
  -41.2388   16.2004    6.9718 C   0  0  0  0  0  0  0  0  0  0  0  0
  -43.3393   15.9973   14.5211 C   0  0  0  0  0  0  0  0  0  0  0  0
  -40.8253   13.5089    7.2997 C   0  0  0  0  0  0  0  0  0  0  0  0
  -42.1107   13.9749    6.9961 C   0  0  0  0  0  0  0  0  0  0  0  0
  -39.7387   14.3865    7.4343 C   0  0  0  0  0  0  0  0  0  0  0  0
  -39.7180   11.8259    7.6727 H   0  0  0  0  0  0  0  0  0  0  0  0
  -44.2027   11.4377    7.6201 H   0  0  0  0  0  0  0  0  0  0  0  0
  -42.2780   13.1531   12.0645 H   0  0  0  0  0  0  0  0  0  0  0  0
  -41.9647   14.9806   13.3424 H   0  0  0  0  0  0  0  0  0  0  0  0
  -35.9245   16.1282    6.9041 H   0  0  0  0  0  0  0  0  0  0  0  0
  -36.7828   15.9799    8.4012 H   0  0  0  0  0  0  0  0  0  0  0  0
  -42.3942   18.5977   16.2722 H   0  0  0  0  0  0  0  0  0  0  0  0
  -45.4328   15.7470   14.7540 H   0  0  0  0  0  0  0  0  0  0  0  0
  -44.6517   13.0057    9.1511 H   0  0  0  0  0  0  0  0  0  0  0  0
  -43.0782   13.4199    9.2898 H   0  0  0  0  0  0  0  0  0  0  0  0
  -44.9984   12.6269   11.3966 H   0  0  0  0  0  0  0  0  0  0  0  0
  -44.2665   11.4050   12.1953 H   0  0  0  0  0  0  0  0  0  0  0  0
  -44.0895   13.5176    6.6658 H   0  0  0  0  0  0  0  0  0  0  0  0
  -43.0554   12.4884    5.9323 H   0  0  0  0  0  0  0  0  0  0  0  0
  -37.0637   14.3946    6.0508 H   0  0  0  0  0  0  0  0  0  0  0  0
  -42.5813   11.4946   10.4222 H   0  0  0  0  0  0  0  0  0  0  0  0
  -44.0258   10.8300   10.0501 H   0  0  0  0  0  0  0  0  0  0  0  0
  -41.3999   16.8811   14.7979 H   0  0  0  0  0  0  0  0  0  0  0  0
  -38.1631   13.9440    8.7023 H   0  0  0  0  0  0  0  0  0  0  0  0
  -38.2745   12.9227    7.4330 H   0  0  0  0  0  0  0  0  0  0  0  0
  -43.2171   15.6968    6.6427 H   0  0  0  0  0  0  0  0  0  0  0  0
  -39.2143   16.3988    7.3593 H   0  0  0  0  0  0  0  0  0  0  0  0
  1 21  1  0  0  0  0
  2  9  1  0  0  0  0
  2 10  1  0  0  0  0
  3 20  2  0  0  0  0
  4 23  1  0  0  0  0
  5 11  1  0  0  0  0
  5 13  1  0  0  0  0
  6 12  1  0  0  0  0
  6 20  1  0  0  0  0
  7 20  1  0  0  0  0
  7 22  1  0  0  0  0
  8 14  2  0  0  0  0
  9 16  2  0  0  0  0
 10 22  2  0  0  0  0
 11 15  1  0  0  0  0
 12 15  1  0  0  0  0
 13 24  1  0  0  0  0
 14 17  1  0  0  0  0
 16 22  1  0  0  0  0
 17 25  1  0  0  0  0
 18 21  2  0  0  0  0
 18 24  1  0  0  0  0
 19 21  1  0  0  0  0
 19 25  2  0  0  0  0
 23 24  2  0  0  0  0
 23 25  1  0  0  0  0
  4 26  1  0  0  0  0
  5 27  1  0  0  0  0
  6 28  1  0  0  0  0
  7 29  1  0  0  0  0
  8 30  1  0  0  0  0
  8 31  1  0  0  0  0
  9 32  1  0  0  0  0
 10 33  1  0  0  0  0
 11 34  1  0  0  0  0
 11 35  1  0  0  0  0
 12 36  1  0  0  0  0
 12 37  1  0  0  0  0
 13 38  1  0  0  0  0
 13 39  1  0  0  0  0
 14 40  1  0  0  0  0
 15 41  1  0  0  0  0
 15 42  1  0  0  0  0
 16 43  1  0  0  0  0
 17 44  1  0  0  0  0
 17 45  1  0  0  0  0
 18 46  1  0  0  0  0
 19 47  1  0  0  0  0
M  END
> <pdb_id>
4MW2

> <uniprot_id>
Q38C91

> <usmiles>
Clc1cc(c(O)c(c1)CC=C)CNCCCNC(=O)NC2=CSC=C2

$$$$
2EB_B_810
          07192416263D 1   1.00000     0.00000     0
            
 40 41  0  0  0  0            999 V2000
  -36.5751   15.3795    7.1160 I   0  0  0  0  0  0  0  0  0  0  0  0
  -41.9254   17.4239    7.1357 Cl  0  0  0  0  0  0  0  0  0  0  0  0
  -44.8841   17.6528   16.0205 S   0  0  0  0  0  0  0  0  0  0  0  0
  -45.2001   14.0207   13.1333 O   0  0  0  0  0  0  0  0  0  0  0  0
  -38.4511   12.7096    7.2389 O   0  0  0  0  0  0  0  0  0  0  0  0
  -41.5347   11.6535    8.4610 N   0  0  0  0  0  0  0  0  0  0  0  0
  -43.3056   13.1192   12.2989 N   0  0  0  0  0  0  0  0  0  0  0  0
  -43.1841   14.8968   13.7640 N   0  0  0  0  0  0  0  0  0  0  0  0
  -43.1903   17.7848   15.9643 C   0  0  0  0  0  0  0  0  0  0  0  0
  -44.9018   16.2907   15.0072 C   0  0  0  0  0  0  0  0  0  0  0  0
  -42.8134   12.0563    9.0584 C   0  0  0  0  0  0  0  0  0  0  0  0
  -43.9818   12.2420   11.3515 C   0  0  0  0  0  0  0  0  0  0  0  0
  -43.0105   11.4864   10.4617 C   0  0  0  0  0  0  0  0  0  0  0  0
  -41.2792   12.2719    7.1538 C   0  0  0  0  0  0  0  0  0  0  0  0
  -42.6617   16.8245   15.1918 C   0  0  0  0  0  0  0  0  0  0  0  0
  -39.5167   16.2154    7.2180 C   0  0  0  0  0  0  0  0  0  0  0  0
  -41.4597   14.7822    7.1792 C   0  0  0  0  0  0  0  0  0  0  0  0
  -38.6868   15.0995    7.2033 C   0  0  0  0  0  0  0  0  0  0  0  0
  -40.8879   16.0336    7.1940 C   0  0  0  0  0  0  0  0  0  0  0  0
  -43.9740   14.0061   13.0592 C   0  0  0  0  0  0  0  0  0  0  0  0
  -43.6309   15.9412   14.6226 C   0  0  0  0  0  0  0  0  0  0  0  0
  -39.2531   13.8061    7.2046 C   0  0  0  0  0  0  0  0  0  0  0  0
  -40.6600   13.6507    7.1875 C   0  0  0  0  0  0  0  0  0  0  0  0
  -38.8547   11.7947    7.2398 H   0  0  0  0  0  0  0  0  0  0  0  0
  -41.5378   10.6601    8.3462 H   0  0  0  0  0  0  0  0  0  0  0  0
  -42.3113   13.0601   12.3871 H   0  0  0  0  0  0  0  0  0  0  0  0
  -42.1947   14.7965   13.6594 H   0  0  0  0  0  0  0  0  0  0  0  0
  -42.6595   18.4842   16.4429 H   0  0  0  0  0  0  0  0  0  0  0  0
  -45.7302   15.8059   14.7268 H   0  0  0  0  0  0  0  0  0  0  0  0
  -43.5568   11.7319    8.4735 H   0  0  0  0  0  0  0  0  0  0  0  0
  -42.8422   13.0545    9.1111 H   0  0  0  0  0  0  0  0  0  0  0  0
  -44.5814   12.7957   10.7737 H   0  0  0  0  0  0  0  0  0  0  0  0
  -44.5298   11.5798   11.8626 H   0  0  0  0  0  0  0  0  0  0  0  0
  -42.1203   11.4777   10.9172 H   0  0  0  0  0  0  0  0  0  0  0  0
  -43.3460   10.5490   10.3678 H   0  0  0  0  0  0  0  0  0  0  0  0
  -42.1521   12.3394    6.6706 H   0  0  0  0  0  0  0  0  0  0  0  0
  -40.6624   11.6710    6.6454 H   0  0  0  0  0  0  0  0  0  0  0  0
  -41.6792   16.7345   15.0287 H   0  0  0  0  0  0  0  0  0  0  0  0
  -39.1278   17.1363    7.2455 H   0  0  0  0  0  0  0  0  0  0  0  0
  -42.4552   14.6891    7.1624 H   0  0  0  0  0  0  0  0  0  0  0  0
  1 18  1  0  0  0  0
  2 19  1  0  0  0  0
  3  9  1  0  0  0  0
  3 10  1  0  0  0  0
  4 20  2  0  0  0  0
  5 22  1  0  0  0  0
  6 11  1  0  0  0  0
  6 14  1  0  0  0  0
  7 12  1  0  0  0  0
  7 20  1  0  0  0  0
  8 20  1  0  0  0  0
  8 21  1  0  0  0  0
  9 15  2  0  0  0  0
 10 21  2  0  0  0  0
 11 13  1  0  0  0  0
 12 13  1  0  0  0  0
 14 23  1  0  0  0  0
 15 21  1  0  0  0  0
 16 18  1  0  0  0  0
 16 19  2  0  0  0  0
 17 19  1  0  0  0  0
 17 23  2  0  0  0  0
 18 22  2  0  0  0  0
 22 23  1  0  0  0  0
  5 24  1  0  0  0  0
  6 25  1  0  0  0  0
  7 26  1  0  0  0  0
  8 27  1  0  0  0  0
  9 28  1  0  0  0  0
 10 29  1  0  0  0  0
 11 30  1  0  0  0  0
 11 31  1  0  0  0  0
 12 32  1  0  0  0  0
 12 33  1  0  0  0  0
 13 34  1  0  0  0  0
 13 35  1  0  0  0  0
 14 36  1  0  0  0  0
 14 37  1  0  0  0  0
 15 38  1  0  0  0  0
 16 39  1  0  0  0  0
 17 40  1  0  0  0  0
M  END
> <pdb_id>
4MW4

> <uniprot_id>
Q38C91

> <usmiles>
Ic1c(O)c(cc(Cl)c1)CNCCCNC(=O)NC2=CSC=C2

$$$$
2EK_B_807
          07192416263D 1   1.00000     0.00000     0
            
 36 37  0  0  0  0            999 V2000
  -36.8712   15.3385    7.2413 Cl  0  0  0  0  0  0  0  0  0  0  0  0
  -42.5526   15.6010    7.1483 Cl  0  0  0  0  0  0  0  0  0  0  0  0
  -44.9149   17.6119   16.0009 S   0  0  0  0  0  0  0  0  0  0  0  0
  -39.7197   16.2265    7.2609 S   0  0  0  0  0  0  0  0  0  0  0  0
  -45.1686   14.0661   13.2130 O   0  0  0  0  0  0  0  0  0  0  0  0
  -41.7621   11.9942    8.3700 N   0  0  0  0  0  0  0  0  0  0  0  0
  -43.3569   13.2116   12.1928 N   0  0  0  0  0  0  0  0  0  0  0  0
  -43.1196   14.9386   13.7205 N   0  0  0  0  0  0  0  0  0  0  0  0
  -43.2281   17.8038   16.0381 C   0  0  0  0  0  0  0  0  0  0  0  0
  -44.8311   16.2763   14.9555 C   0  0  0  0  0  0  0  0  0  0  0  0
  -42.8219   12.5862    9.1825 C   0  0  0  0  0  0  0  0  0  0  0  0
  -44.1286   12.3393   11.3155 C   0  0  0  0  0  0  0  0  0  0  0  0
  -41.4332   12.5976    7.1084 C   0  0  0  0  0  0  0  0  0  0  0  0
  -43.2640   11.6599   10.2864 C   0  0  0  0  0  0  0  0  0  0  0  0
  -42.6034   16.8735   15.2565 C   0  0  0  0  0  0  0  0  0  0  0  0
  -39.0974   13.7300    7.1882 C   0  0  0  0  0  0  0  0  0  0  0  0
  -38.5492   14.9604    7.2371 C   0  0  0  0  0  0  0  0  0  0  0  0
  -40.9514   15.0333    7.1875 C   0  0  0  0  0  0  0  0  0  0  0  0
  -43.9577   14.0744   13.0273 C   0  0  0  0  0  0  0  0  0  0  0  0
  -43.5141   15.9737   14.6175 C   0  0  0  0  0  0  0  0  0  0  0  0
  -40.5100   13.7672    7.1574 C   0  0  0  0  0  0  0  0  0  0  0  0
  -42.0300   11.0493    8.1821 H   0  0  0  0  0  0  0  0  0  0  0  0
  -42.3582   13.1661   12.1724 H   0  0  0  0  0  0  0  0  0  0  0  0
  -42.1371   14.8223   13.5750 H   0  0  0  0  0  0  0  0  0  0  0  0
  -42.7525   18.5081   16.5650 H   0  0  0  0  0  0  0  0  0  0  0  0
  -45.6275   15.7703   14.6241 H   0  0  0  0  0  0  0  0  0  0  0  0
  -43.6059   12.7875    8.5953 H   0  0  0  0  0  0  0  0  0  0  0  0
  -42.4828   13.4349    9.5884 H   0  0  0  0  0  0  0  0  0  0  0  0
  -44.8204   12.8866   10.8444 H   0  0  0  0  0  0  0  0  0  0  0  0
  -44.5784   11.6399   11.8710 H   0  0  0  0  0  0  0  0  0  0  0  0
  -42.2863   12.9001    6.6835 H   0  0  0  0  0  0  0  0  0  0  0  0
  -41.0067   11.8963    6.5371 H   0  0  0  0  0  0  0  0  0  0  0  0
  -42.4513   11.2974   10.7426 H   0  0  0  0  0  0  0  0  0  0  0  0
  -43.7828   10.9069    9.8816 H   0  0  0  0  0  0  0  0  0  0  0  0
  -41.6110   16.8263   15.1427 H   0  0  0  0  0  0  0  0  0  0  0  0
  -38.5637   12.8844    7.1751 H   0  0  0  0  0  0  0  0  0  0  0  0
  1 17  1  0  0  0  0
  2 18  1  0  0  0  0
  3  9  1  0  0  0  0
  3 10  1  0  0  0  0
  4 17  1  0  0  0  0
  4 18  1  0  0  0  0
  5 19  2  0  0  0  0
  6 11  1  0  0  0  0
  6 13  1  0  0  0  0
  7 12  1  0  0  0  0
  7 19  1  0  0  0  0
  8 19  1  0  0  0  0
  8 20  1  0  0  0  0
  9 15  2  0  0  0  0
 10 20  2  0  0  0  0
 11 14  1  0  0  0  0
 12 14  1  0  0  0  0
 13 21  1  0  0  0  0
 15 20  1  0  0  0  0
 16 17  2  0  0  0  0
 16 21  1  0  0  0  0
 18 21  2  0  0  0  0
  6 22  1  0  0  0  0
  7 23  1  0  0  0  0
  8 24  1  0  0  0  0
  9 25  1  0  0  0  0
 10 26  1  0  0  0  0
 11 27  1  0  0  0  0
 11 28  1  0  0  0  0
 12 29  1  0  0  0  0
 12 30  1  0  0  0  0
 13 31  1  0  0  0  0
 13 32  1  0  0  0  0
 14 33  1  0  0  0  0
 14 34  1  0  0  0  0
 15 35  1  0  0  0  0
 16 36  1  0  0  0  0
M  END
> <pdb_id>
4MWB

> <uniprot_id>
Q38C91

> <usmiles>
ClC=1SC(Cl)=CC1CNCCCNC(=O)NC2=CSC=C2

$$$$
2FA_A_306
          07202403103D 1   1.00000     0.00000     0
            
 32 34  0  0  0  0            999 V2000
   88.6350   63.9180   17.9340 F   0  0  0  0  0  0  0  0  0  0  0  0
   94.2360   66.0700   17.2030 O   0  0  0  0  0  0  0  0  0  0  0  0
   92.1550   64.6120   22.5710 O   0  0  0  0  0  0  0  0  0  0  0  0
   94.7430   64.0680   21.5550 O   0  0  0  0  0  0  0  0  0  0  0  0
   93.8630   66.5550   20.1320 O   0  0  0  0  0  0  0  0  0  0  0  0
   88.0380   68.3590   17.3070 N   0  0  0  0  0  0  0  0  0  0  0  0
   90.4310   68.8420   19.0970 N   0  0  0  0  0  0  0  0  0  0  0  0
   88.3570   66.1080   17.6400 N   0  0  0  0  0  0  0  0  0  0  0  0
   90.1420   65.2480   19.0220 N   0  0  0  0  0  0  0  0  0  0  0  0
   91.5490   67.0970   20.0070 N   0  0  0  0  0  0  0  0  0  0  0  0
   93.7440   65.0540   18.1070 C   0  0  0  0  0  0  0  0  0  0  0  0
   91.4100   68.4290   19.8510 C   0  0  0  0  0  0  0  0  0  0  0  0
   89.0660   65.1200   18.2150 C   0  0  0  0  0  0  0  0  0  0  0  0
   92.4580   64.9150   21.1710 C   0  0  2  0  0  0  0  0  0  0  0  0
   93.7320   64.2300   20.5720 C   0  0  1  0  0  0  0  0  0  0  0  0
   92.6220   66.4420   20.8330 C   0  0  1  0  0  0  0  0  0  0  0  0
   88.7270   67.3890   17.8670 C   0  0  0  0  0  0  0  0  0  0  0  0
   94.2310   65.2630   19.5480 C   0  0  2  0  0  0  0  0  0  0  0  0
   90.4880   66.5670   19.2300 C   0  0  0  0  0  0  0  0  0  0  0  0
   89.8350   67.6590   18.6930 C   0  0  0  0  0  0  0  0  0  0  0  0
   93.8926   65.8905   16.2811 H   0  0  0  0  0  0  0  0  0  0  0  0
   91.3265   65.0999   22.8459 H   0  0  0  0  0  0  0  0  0  0  0  0
   95.5414   63.6291   21.1428 H   0  0  0  0  0  0  0  0  0  0  0  0
   88.2976   69.3119   17.4640 H   0  0  0  0  0  0  0  0  0  0  0  0
   87.2545   68.1438   16.7241 H   0  0  0  0  0  0  0  0  0  0  0  0
   94.0603   64.1606   17.7880 H   0  0  0  0  0  0  0  0  0  0  0  0
   92.7443   65.0756   18.1001 H   0  0  0  0  0  0  0  0  0  0  0  0
   92.0324   69.0732   20.2955 H   0  0  0  0  0  0  0  0  0  0  0  0
   91.6803   64.5872   20.6346 H   0  0  0  0  0  0  0  0  0  0  0  0
   93.5067   63.3602   20.1331 H   0  0  0  0  0  0  0  0  0  0  0  0
   92.7033   66.9447   21.6936 H   0  0  0  0  0  0  0  0  0  0  0  0
   95.2297   65.2139   19.5361 H   0  0  0  0  0  0  0  0  0  0  0  0
  1 13  1  0  0  0  0
  2 11  1  0  0  0  0
  3 14  1  0  0  0  0
  4 15  1  0  0  0  0
  5 16  1  0  0  0  0
  5 18  1  0  0  0  0
  6 17  1  0  0  0  0
  7 12  2  0  0  0  0
  7 20  1  0  0  0  0
  8 13  1  0  0  0  0
  8 17  2  0  0  0  0
  9 13  2  0  0  0  0
  9 19  1  0  0  0  0
 10 12  1  0  0  0  0
 10 16  1  0  0  0  0
 10 19  1  0  0  0  0
 11 18  1  0  0  0  0
 14 15  1  0  0  0  0
 14 16  1  0  0  0  0
 15 18  1  0  0  0  0
 17 20  1  0  0  0  0
 19 20  2  0  0  0  0
  2 21  1  0  0  0  0
  3 22  1  0  0  0  0
  4 23  1  0  0  0  0
  6 24  1  0  0  0  0
  6 25  1  0  0  0  0
 11 26  1  0  0  0  0
 11 27  1  0  0  0  0
 12 28  1  0  0  0  0
 14 29  1  0  0  0  0
 15 30  1  0  0  0  0
 16 31  1  0  0  0  0
 18 32  1  0  0  0  0
M  END
> <pdb_id>
1PK9

> <uniprot_id>
P0ABP9

> <usmiles>
Fc1nc2N(C=Nc2c(n1)N)[C@@H]3O[C@@H]([C@@H](O)[C@H]3O)CO

$$$$
2FA_A_401
          07202408473D 1   1.00000     0.00000     0
            
 32 34  0  0  0  0            999 V2000
   12.2475   52.6494   25.2961 F   0  0  0  0  0  0  0  0  0  0  0  0
   14.7071   59.9714   21.8057 O   0  0  0  0  0  0  0  0  0  0  0  0
   10.0546   58.7930   25.2145 O   0  0  0  0  0  0  0  0  0  0  0  0
   10.4623   60.6840   23.4346 O   0  0  0  0  0  0  0  0  0  0  0  0
   13.2863   58.6596   23.7946 O   0  0  0  0  0  0  0  0  0  0  0  0
   15.1264   54.3343   28.6580 N   0  0  0  0  0  0  0  0  0  0  0  0
   14.4507   57.1694   27.4333 N   0  0  0  0  0  0  0  0  0  0  0  0
   13.6210   53.5495   26.9051 N   0  0  0  0  0  0  0  0  0  0  0  0
   12.5603   54.9471   25.4054 N   0  0  0  0  0  0  0  0  0  0  0  0
   13.0644   57.3894   25.7215 N   0  0  0  0  0  0  0  0  0  0  0  0
   13.7116   60.6684   22.5638 C   0  0  0  0  0  0  0  0  0  0  0  0
   13.9090   58.0422   26.6300 C   0  0  0  0  0  0  0  0  0  0  0  0
   12.8263   53.7476   25.8889 C   0  0  0  0  0  0  0  0  0  0  0  0
   11.4090   59.1995   25.1184 C   0  0  2  0  0  0  0  0  0  0  0  0
   11.6735   60.3394   24.0994 C   0  0  1  0  0  0  0  0  0  0  0  0
   12.3273   58.0565   24.6453 C   0  0  1  0  0  0  0  0  0  0  0  0
   14.2357   54.5836   27.5098 C   0  0  0  0  0  0  0  0  0  0  0  0
   12.6509   59.7285   23.0924 C   0  0  2  0  0  0  0  0  0  0  0  0
   13.1451   56.0302   25.9821 C   0  0  0  0  0  0  0  0  0  0  0  0
   13.9878   55.8610   27.0404 C   0  0  0  0  0  0  0  0  0  0  0  0
   15.3894   60.6225   21.4733 H   0  0  0  0  0  0  0  0  0  0  0  0
    9.9738   58.0594   25.8892 H   0  0  0  0  0  0  0  0  0  0  0  0
   10.6390   61.4187   22.7796 H   0  0  0  0  0  0  0  0  0  0  0  0
   15.5851   55.0991   29.1103 H   0  0  0  0  0  0  0  0  0  0  0  0
   15.2718   53.4003   28.9845 H   0  0  0  0  0  0  0  0  0  0  0  0
   13.2762   61.3509   21.9767 H   0  0  0  0  0  0  0  0  0  0  0  0
   14.1532   61.1256   23.3357 H   0  0  0  0  0  0  0  0  0  0  0  0
   14.0716   59.0285   26.6578 H   0  0  0  0  0  0  0  0  0  0  0  0
   11.7157   59.5016   26.0210 H   0  0  0  0  0  0  0  0  0  0  0  0
   12.0747   61.1370   24.5499 H   0  0  0  0  0  0  0  0  0  0  0  0
   11.7943   57.3839   24.1320 H   0  0  0  0  0  0  0  0  0  0  0  0
   12.1347   59.3525   22.3229 H   0  0  0  0  0  0  0  0  0  0  0  0
  1 13  1  0  0  0  0
  2 11  1  0  0  0  0
  3 14  1  0  0  0  0
  4 15  1  0  0  0  0
  5 16  1  0  0  0  0
  5 18  1  0  0  0  0
  6 17  1  0  0  0  0
  7 12  2  0  0  0  0
  7 20  1  0  0  0  0
  8 13  1  0  0  0  0
  8 17  2  0  0  0  0
  9 13  2  0  0  0  0
  9 19  1  0  0  0  0
 10 12  1  0  0  0  0
 10 16  1  0  0  0  0
 10 19  1  0  0  0  0
 11 18  1  0  0  0  0
 14 15  1  0  0  0  0
 14 16  1  0  0  0  0
 15 18  1  0  0  0  0
 17 20  1  0  0  0  0
 19 20  2  0  0  0  0
  2 21  1  0  0  0  0
  3 22  1  0  0  0  0
  4 23  1  0  0  0  0
  6 24  1  0  0  0  0
  6 25  1  0  0  0  0
 11 26  1  0  0  0  0
 11 27  1  0  0  0  0
 12 28  1  0  0  0  0
 14 29  1  0  0  0  0
 15 30  1  0  0  0  0
 16 31  1  0  0  0  0
 18 32  1  0  0  0  0
M  END
> <pdb_id>
4UBE

> <uniprot_id>
P83736

> <usmiles>
Fc1nc2N(C=Nc2c(n1)N)[C@@H]3O[C@@H]([C@@H](O)[C@H]3O)CO

$$$$
2FA_A_501
          07202408473D 1   1.00000     0.00000     0
            
 32 34  0  0  0  0            999 V2000
   12.2740   52.6720   25.3280 F   0  0  0  0  0  0  0  0  0  0  0  0
   14.6790   60.0210   21.8800 O   0  0  0  0  0  0  0  0  0  0  0  0
    9.9460   58.7900   25.2100 O   0  0  0  0  0  0  0  0  0  0  0  0
   10.4960   60.6540   23.3650 O   0  0  0  0  0  0  0  0  0  0  0  0
   13.2260   58.6290   23.7810 O   0  0  0  0  0  0  0  0  0  0  0  0
   15.0990   54.2730   28.6320 N   0  0  0  0  0  0  0  0  0  0  0  0
   14.4340   57.1160   27.4700 N   0  0  0  0  0  0  0  0  0  0  0  0
   13.6500   53.5270   26.9570 N   0  0  0  0  0  0  0  0  0  0  0  0
   12.5280   54.9530   25.4050 N   0  0  0  0  0  0  0  0  0  0  0  0
   13.0200   57.3580   25.7410 N   0  0  0  0  0  0  0  0  0  0  0  0
   13.3850   60.5850   22.2540 C   0  0  0  0  0  0  0  0  0  0  0  0
   13.8380   57.9930   26.6210 C   0  0  0  0  0  0  0  0  0  0  0  0
   12.8150   53.7420   25.9050 C   0  0  0  0  0  0  0  0  0  0  0  0
   11.3280   59.1410   25.1620 C   0  0  2  0  0  0  0  0  0  0  0  0
   11.5930   60.3410   24.2390 C   0  0  1  0  0  0  0  0  0  0  0  0
   12.2350   58.0110   24.6610 C   0  0  1  0  0  0  0  0  0  0  0  0
   14.2870   54.5220   27.5780 C   0  0  0  0  0  0  0  0  0  0  0  0
   12.9640   60.0180   23.6050 C   0  0  1  0  0  0  0  0  0  0  0  0
   13.1010   56.0520   25.9740 C   0  0  0  0  0  0  0  0  0  0  0  0
   14.0190   55.8880   27.1110 C   0  0  0  0  0  0  0  0  0  0  0  0
   14.9599   60.3899   20.9940 H   0  0  0  0  0  0  0  0  0  0  0  0
    9.8218   58.0075   25.8201 H   0  0  0  0  0  0  0  0  0  0  0  0
   10.7368   61.4406   22.7964 H   0  0  0  0  0  0  0  0  0  0  0  0
   15.5707   55.0271   29.0889 H   0  0  0  0  0  0  0  0  0  0  0  0
   15.2272   53.3349   28.9538 H   0  0  0  0  0  0  0  0  0  0  0  0
   12.7030   60.3450   21.5631 H   0  0  0  0  0  0  0  0  0  0  0  0
   13.4594   61.5802   22.3173 H   0  0  0  0  0  0  0  0  0  0  0  0
   13.9830   58.9822   26.6410 H   0  0  0  0  0  0  0  0  0  0  0  0
   11.6193   59.3881   26.0862 H   0  0  0  0  0  0  0  0  0  0  0  0
   11.7279   61.1363   24.8301 H   0  0  0  0  0  0  0  0  0  0  0  0
   11.6998   57.3312   24.1596 H   0  0  0  0  0  0  0  0  0  0  0  0
   13.6084   60.4479   24.2374 H   0  0  0  0  0  0  0  0  0  0  0  0
  1 13  1  0  0  0  0
  2 11  1  0  0  0  0
  3 14  1  0  0  0  0
  4 15  1  0  0  0  0
  5 16  1  0  0  0  0
  5 18  1  0  0  0  0
  6 17  1  0  0  0  0
  7 12  2  0  0  0  0
  7 20  1  0  0  0  0
  8 13  1  0  0  0  0
  8 17  2  0  0  0  0
  9 13  2  0  0  0  0
  9 19  1  0  0  0  0
 10 12  1  0  0  0  0
 10 16  1  0  0  0  0
 10 19  1  0  0  0  0
 11 18  1  0  0  0  0
 14 15  1  0  0  0  0
 14 16  1  0  0  0  0
 15 18  1  0  0  0  0
 17 20  1  0  0  0  0
 19 20  2  0  0  0  0
  2 21  1  0  0  0  0
  3 22  1  0  0  0  0
  4 23  1  0  0  0  0
  6 24  1  0  0  0  0
  6 25  1  0  0  0  0
 11 26  1  0  0  0  0
 11 27  1  0  0  0  0
 12 28  1  0  0  0  0
 14 29  1  0  0  0  0
 15 30  1  0  0  0  0
 16 31  1  0  0  0  0
 18 32  1  0  0  0  0
M  END
> <pdb_id>
2PKK

> <uniprot_id>
P83734

> <usmiles>
Fc1nc2N(C=Nc2c(n1)N)[C@@H]3O[C@H]([C@@H](O)[C@H]3O)CO

$$$$
2FA_B_401
          07192423183D 1   1.00000     0.00000     0
            
 32 34  0  0  0  0            999 V2000
    9.0980  -12.8640    6.5080 F   0  0  0  0  0  0  0  0  0  0  0  0
   13.7090  -18.1010   11.2570 O   0  0  0  0  0  0  0  0  0  0  0  0
   15.0890  -15.2820    6.1440 O   0  0  0  0  0  0  0  0  0  0  0  0
   14.9140  -17.8530    6.7980 O   0  0  0  0  0  0  0  0  0  0  0  0
   13.4940  -16.0090    9.2340 O   0  0  0  0  0  0  0  0  0  0  0  0
   11.5300   -9.4140    8.8080 N   0  0  0  0  0  0  0  0  0  0  0  0
   13.6380  -11.7740    9.1520 N   0  0  0  0  0  0  0  0  0  0  0  0
   10.3320  -11.2420    7.6330 N   0  0  0  0  0  0  0  0  0  0  0  0
   11.1710  -13.4470    7.3840 N   0  0  0  0  0  0  0  0  0  0  0  0
   13.3990  -13.8380    8.4030 N   0  0  0  0  0  0  0  0  0  0  0  0
   14.7440  -17.7370   10.3490 C   0  0  0  0  0  0  0  0  0  0  0  0
   14.2170  -13.0260    9.0620 C   0  0  0  0  0  0  0  0  0  0  0  0
   10.2050  -12.5130    7.1810 C   0  0  0  0  0  0  0  0  0  0  0  0
   15.0060  -15.5430    7.5290 C   0  0  2  0  0  0  0  0  0  0  0  0
   15.2100  -17.0180    7.9170 C   0  0  1  0  0  0  0  0  0  0  0  0
   13.6110  -15.2450    8.0660 C   0  0  1  0  0  0  0  0  0  0  0  0
   11.4000  -10.8590    8.2970 C   0  0  0  0  0  0  0  0  0  0  0  0
   14.1810  -17.2630    9.0320 C   0  0  2  0  0  0  0  0  0  0  0  0
   12.2700  -13.1210    8.0430 C   0  0  0  0  0  0  0  0  0  0  0  0
   12.4390  -11.8170    8.5300 C   0  0  0  0  0  0  0  0  0  0  0  0
   14.1140  -18.4098   12.1176 H   0  0  0  0  0  0  0  0  0  0  0  0
   14.9457  -14.3061    5.9795 H   0  0  0  0  0  0  0  0  0  0  0  0
   15.0472  -18.8109    7.0524 H   0  0  0  0  0  0  0  0  0  0  0  0
   12.3469   -9.1335    9.3120 H   0  0  0  0  0  0  0  0  0  0  0  0
   10.7977   -8.7551    8.6362 H   0  0  0  0  0  0  0  0  0  0  0  0
   15.3278  -18.5323   10.1857 H   0  0  0  0  0  0  0  0  0  0  0  0
   15.2878  -17.0018   10.7536 H   0  0  0  0  0  0  0  0  0  0  0  0
   15.1099  -13.2797    9.4340 H   0  0  0  0  0  0  0  0  0  0  0  0
   15.6744  -14.9781    8.0128 H   0  0  0  0  0  0  0  0  0  0  0  0
   16.1407  -17.1767    8.2467 H   0  0  0  0  0  0  0  0  0  0  0  0
   12.9244  -15.5391    7.4011 H   0  0  0  0  0  0  0  0  0  0  0  0
   13.5185  -17.9388    8.7089 H   0  0  0  0  0  0  0  0  0  0  0  0
  1 13  1  0  0  0  0
  2 11  1  0  0  0  0
  3 14  1  0  0  0  0
  4 15  1  0  0  0  0
  5 16  1  0  0  0  0
  5 18  1  0  0  0  0
  6 17  1  0  0  0  0
  7 12  2  0  0  0  0
  7 20  1  0  0  0  0
  8 13  1  0  0  0  0
  8 17  2  0  0  0  0
  9 13  2  0  0  0  0
  9 19  1  0  0  0  0
 10 12  1  0  0  0  0
 10 16  1  0  0  0  0
 10 19  1  0  0  0  0
 11 18  1  0  0  0  0
 14 15  1  0  0  0  0
 14 16  1  0  0  0  0
 15 18  1  0  0  0  0
 17 20  1  0  0  0  0
 19 20  2  0  0  0  0
  2 21  1  0  0  0  0
  3 22  1  0  0  0  0
  4 23  1  0  0  0  0
  6 24  1  0  0  0  0
  6 25  1  0  0  0  0
 11 26  1  0  0  0  0
 11 27  1  0  0  0  0
 12 28  1  0  0  0  0
 14 29  1  0  0  0  0
 15 30  1  0  0  0  0
 16 31  1  0  0  0  0
 18 32  1  0  0  0  0
M  END
> <pdb_id>
4DC3

> <uniprot_id>
G4V7G8

> <usmiles>
Fc1nc2N(C=Nc2c(n1)N)[C@@H]3O[C@@H]([C@@H](O)[C@H]3O)CO

$$$$
2FD_A_446
          07202403103D 1   1.00000     0.00000     0
            
 31 33  0  0  0  0            999 V2000
   88.6410   63.8599   18.0989 F   0  0  0  0  0  0  0  0  0  0  0  0
   93.9196   65.9574   17.1727 O   0  0  0  0  0  0  0  0  0  0  0  0
   94.5066   64.3039   21.5708 O   0  0  0  0  0  0  0  0  0  0  0  0
   93.6586   66.7714   20.0258 O   0  0  0  0  0  0  0  0  0  0  0  0
   87.8566   68.1438   16.9847 N   0  0  0  0  0  0  0  0  0  0  0  0
   90.2013   68.9137   18.7766 N   0  0  0  0  0  0  0  0  0  0  0  0
   88.2772   65.9842   17.5693 N   0  0  0  0  0  0  0  0  0  0  0  0
   90.0494   65.3719   19.0593 N   0  0  0  0  0  0  0  0  0  0  0  0
   91.3557   67.3205   19.8798 N   0  0  0  0  0  0  0  0  0  0  0  0
   93.4242   65.0504   18.1577 C   0  0  0  0  0  0  0  0  0  0  0  0
   91.1652   68.6048   19.5818 C   0  0  0  0  0  0  0  0  0  0  0  0
   92.2858   65.3225   21.2448 C   0  0  0  0  0  0  0  0  0  0  0  0
   89.0029   65.1029   18.2517 C   0  0  0  0  0  0  0  0  0  0  0  0
   93.4499   64.4833   20.6628 C   0  0  1  0  0  0  0  0  0  0  0  0
   92.4420   66.7999   20.8007 C   0  0  1  0  0  0  0  0  0  0  0  0
   88.5833   67.2855   17.6651 C   0  0  0  0  0  0  0  0  0  0  0  0
   93.9637   65.4068   19.5599 C   0  0  2  0  0  0  0  0  0  0  0  0
   90.3446   66.6962   19.1441 C   0  0  0  0  0  0  0  0  0  0  0  0
   89.6649   67.6864   18.4873 C   0  0  0  0  0  0  0  0  0  0  0  0
   93.5566   65.7060   16.2755 H   0  0  0  0  0  0  0  0  0  0  0  0
   95.2256   63.7573   21.1417 H   0  0  0  0  0  0  0  0  0  0  0  0
   88.0598   69.1216   17.0352 H   0  0  0  0  0  0  0  0  0  0  0  0
   87.1005   67.8189   16.4165 H   0  0  0  0  0  0  0  0  0  0  0  0
   93.7130   64.1224   17.9224 H   0  0  0  0  0  0  0  0  0  0  0  0
   92.4252   65.0954   18.1707 H   0  0  0  0  0  0  0  0  0  0  0  0
   91.7535   69.3133   19.9715 H   0  0  0  0  0  0  0  0  0  0  0  0
   92.3042   65.2708   22.2433 H   0  0  0  0  0  0  0  0  0  0  0  0
   91.4152   64.9635   20.9084 H   0  0  0  0  0  0  0  0  0  0  0  0
   93.1280   63.6113   20.2940 H   0  0  0  0  0  0  0  0  0  0  0  0
   92.5452   67.3974   21.5959 H   0  0  0  0  0  0  0  0  0  0  0  0
   94.9591   65.3149   19.5309 H   0  0  0  0  0  0  0  0  0  0  0  0
  1 13  1  0  0  0  0
  2 10  1  0  0  0  0
  3 14  1  0  0  0  0
  4 15  1  0  0  0  0
  4 17  1  0  0  0  0
  5 16  1  0  0  0  0
  6 11  2  0  0  0  0
  6 19  1  0  0  0  0
  7 13  1  0  0  0  0
  7 16  2  0  0  0  0
  8 13  2  0  0  0  0
  8 18  1  0  0  0  0
  9 11  1  0  0  0  0
  9 15  1  0  0  0  0
  9 18  1  0  0  0  0
 10 17  1  0  0  0  0
 12 14  1  0  0  0  0
 12 15  1  0  0  0  0
 14 17  1  0  0  0  0
 16 19  1  0  0  0  0
 18 19  2  0  0  0  0
  2 20  1  0  0  0  0
  3 21  1  0  0  0  0
  5 22  1  0  0  0  0
  5 23  1  0  0  0  0
 10 24  1  0  0  0  0
 10 25  1  0  0  0  0
 11 26  1  0  0  0  0
 12 27  1  0  0  0  0
 12 28  1  0  0  0  0
 14 29  1  0  0  0  0
 15 30  1  0  0  0  0
 17 31  1  0  0  0  0
M  END
> <pdb_id>
1PKE

> <uniprot_id>
P0ABP9

> <usmiles>
Fc1nc2N(C=Nc2c(n1)N)[C@@H]3O[C@@H]([C@@H](O)C3)CO

$$$$
2G1_A_301
          07192423263D 1   1.00000     0.00000     0
            
 35 36  0  0  0  0            999 V2000
   26.7508   -6.6250   -2.6099 S   0  0  0  0  0  0  0  0  0  0  0  0
   28.1292  -14.0759   -6.3983 S   0  0  0  0  0  0  0  0  0  0  0  0
   31.6114  -16.7998   -6.4890 F   0  0  0  0  0  0  0  0  0  0  0  0
   30.3302  -16.4138   -8.2339 F   0  0  0  0  0  0  0  0  0  0  0  0
   30.8176  -18.5038   -7.6152 F   0  0  0  0  0  0  0  0  0  0  0  0
   26.9460  -14.8302   -6.1295 O   0  0  0  0  0  0  0  0  0  0  0  0
   28.0751  -13.9222   -7.8298 O   0  0  0  0  0  0  0  0  0  0  0  0
   29.5688  -14.6899   -5.7875 N   0  0  0  0  0  0  0  0  0  0  0  0
   26.9492   -7.5433   -4.8564 N   0  0  0  0  0  0  0  0  0  0  0  0
   26.3351   -5.0304   -4.9154 C   0  0  0  0  0  0  0  0  0  0  0  0
   27.1915   -8.2978   -2.7012 C   0  0  0  0  0  0  0  0  0  0  0  0
   29.5389  -16.0229   -5.2876 C   0  0  0  0  0  0  0  0  0  0  0  0
   27.3727  -11.4245   -6.4659 C   0  0  0  0  0  0  0  0  0  0  0  0
   28.2203  -12.2231   -4.3471 C   0  0  0  0  0  0  0  0  0  0  0  0
   27.2182  -10.1478   -5.9211 C   0  0  0  0  0  0  0  0  0  0  0  0
   28.0236  -10.9214   -3.7694 C   0  0  0  0  0  0  0  0  0  0  0  0
   29.4201  -17.1655   -6.3074 C   0  0  0  0  0  0  0  0  0  0  0  0
   26.6689   -6.3459   -4.2777 C   0  0  0  0  0  0  0  0  0  0  0  0
   27.9042  -12.4630   -5.6844 C   0  0  0  0  0  0  0  0  0  0  0  0
   27.2767   -8.5825   -4.0623 C   0  0  0  0  0  0  0  0  0  0  0  0
   27.5451   -9.8728   -4.5789 C   0  0  0  0  0  0  0  0  0  0  0  0
   30.5775  -17.2477   -7.2185 C   0  0  0  0  0  0  0  0  0  0  0  0
   29.8587  -14.0929   -5.0394 H   0  0  0  0  0  0  0  0  0  0  0  0
   26.3524   -5.1284   -5.9104 H   0  0  0  0  0  0  0  0  0  0  0  0
   25.4231   -4.7410   -4.6247 H   0  0  0  0  0  0  0  0  0  0  0  0
   27.0072   -4.3446   -4.6362 H   0  0  0  0  0  0  0  0  0  0  0  0
   27.3508   -8.9254   -1.9391 H   0  0  0  0  0  0  0  0  0  0  0  0
   28.7565  -16.0923   -4.6688 H   0  0  0  0  0  0  0  0  0  0  0  0
   30.3843  -16.1681   -4.7736 H   0  0  0  0  0  0  0  0  0  0  0  0
   27.1046  -11.5992   -7.4133 H   0  0  0  0  0  0  0  0  0  0  0  0
   28.5873  -12.9639   -3.7846 H   0  0  0  0  0  0  0  0  0  0  0  0
   26.8668   -9.4106   -6.4982 H   0  0  0  0  0  0  0  0  0  0  0  0
   28.2245  -10.7622   -2.8029 H   0  0  0  0  0  0  0  0  0  0  0  0
   28.5947  -17.0210   -6.8531 H   0  0  0  0  0  0  0  0  0  0  0  0
   29.3439  -18.0298   -5.8102 H   0  0  0  0  0  0  0  0  0  0  0  0
  1 11  1  0  0  0  0
  1 18  1  0  0  0  0
  2  6  2  0  0  0  0
  2  7  2  0  0  0  0
  2  8  1  0  0  0  0
  2 19  1  0  0  0  0
  3 22  1  0  0  0  0
  4 22  1  0  0  0  0
  5 22  1  0  0  0  0
  8 12  1  0  0  0  0
  9 18  2  0  0  0  0
  9 20  1  0  0  0  0
 10 18  1  0  0  0  0
 11 20  2  0  0  0  0
 12 17  1  0  0  0  0
 13 15  1  0  0  0  0
 13 19  2  0  0  0  0
 14 16  2  0  0  0  0
 14 19  1  0  0  0  0
 15 21  2  0  0  0  0
 16 21  1  0  0  0  0
 17 22  1  0  0  0  0
 20 21  1  0  0  0  0
  8 23  1  0  0  0  0
 10 24  1  0  0  0  0
 10 25  1  0  0  0  0
 10 26  1  0  0  0  0
 11 27  1  0  0  0  0
 12 28  1  0  0  0  0
 12 29  1  0  0  0  0
 13 30  1  0  0  0  0
 14 31  1  0  0  0  0
 15 32  1  0  0  0  0
 16 33  1  0  0  0  0
 17 34  1  0  0  0  0
 17 35  1  0  0  0  0
M  END
> <pdb_id>
4M3G

> <uniprot_id>
P96222

> <usmiles>
S(=O)(=O)(NCCC(F)(F)F)c1ccc(cc1)C=2N=C(SC2)C

$$$$
2GD_A_201
          07192416543D 1   1.00000     0.00000     0
            
 27 28  0  0  0  0            999 V2000
   10.6288   22.3443    5.1944 Cl  0  0  0  0  0  0  0  0  0  0  0  0
   13.5764   22.4984    5.6853 Cl  0  0  0  0  0  0  0  0  0  0  0  0
   17.4768   19.7382    5.8186 N   0  0  0  0  0  0  0  0  0  0  0  0
   18.6875   22.6939    2.3586 N   0  0  0  0  0  0  0  0  0  0  0  0
   18.0279   21.2994    4.1379 N   0  0  0  0  0  0  0  0  0  0  0  0
   15.7567   20.7816    4.5106 N   0  0  0  0  0  0  0  0  0  0  0  0
   18.3923   23.5199    1.2023 C   0  0  0  0  0  0  0  0  0  0  0  0
   12.0390   21.2384    1.7300 C   0  0  0  0  0  0  0  0  0  0  0  0
   11.1741   21.5780    2.7127 C   0  0  0  0  0  0  0  0  0  0  0  0
   13.4334   21.2802    1.9554 C   0  0  0  0  0  0  0  0  0  0  0  0
   16.2862   22.2029    2.7336 C   0  0  0  0  0  0  0  0  0  0  0  0
   17.0881   20.6278    4.8045 C   0  0  0  0  0  0  0  0  0  0  0  0
   17.6724   22.0650    3.1271 C   0  0  0  0  0  0  0  0  0  0  0  0
   11.6636   21.9436    3.9125 C   0  0  0  0  0  0  0  0  0  0  0  0
   13.0329   21.9818    4.1699 C   0  0  0  0  0  0  0  0  0  0  0  0
   15.3511   21.6243    3.4904 C   0  0  0  0  0  0  0  0  0  0  0  0
   13.8938   21.6450    3.1922 C   0  0  0  0  0  0  0  0  0  0  0  0
   16.7843   19.2271    6.3278 H   0  0  0  0  0  0  0  0  0  0  0  0
   18.4461   19.6156    6.0318 H   0  0  0  0  0  0  0  0  0  0  0  0
   19.6425   22.5627    2.6244 H   0  0  0  0  0  0  0  0  0  0  0  0
   19.2462   23.8626    0.8107 H   0  0  0  0  0  0  0  0  0  0  0  0
   17.9071   22.9749    0.5184 H   0  0  0  0  0  0  0  0  0  0  0  0
   17.8201   24.2912    1.4809 H   0  0  0  0  0  0  0  0  0  0  0  0
   11.6891   20.9554    0.8369 H   0  0  0  0  0  0  0  0  0  0  0  0
   10.1875   21.5579    2.5509 H   0  0  0  0  0  0  0  0  0  0  0  0
   14.0736   21.0472    1.2234 H   0  0  0  0  0  0  0  0  0  0  0  0
   16.0352   22.7191    1.9148 H   0  0  0  0  0  0  0  0  0  0  0  0
  1 14  1  0  0  0  0
  2 15  1  0  0  0  0
  3 12  1  0  0  0  0
  4  7  1  0  0  0  0
  4 13  1  0  0  0  0
  5 12  2  0  0  0  0
  5 13  1  0  0  0  0
  6 12  1  0  0  0  0
  6 16  2  0  0  0  0
  8  9  2  0  0  0  0
  8 10  1  0  0  0  0
  9 14  1  0  0  0  0
 10 17  2  0  0  0  0
 11 13  2  0  0  0  0
 11 16  1  0  0  0  0
 14 15  2  0  0  0  0
 15 17  1  0  0  0  0
 16 17  1  0  0  0  0
  3 18  1  0  0  0  0
  3 19  1  0  0  0  0
  4 20  1  0  0  0  0
  7 21  1  0  0  0  0
  7 22  1  0  0  0  0
  7 23  1  0  0  0  0
  8 24  1  0  0  0  0
  9 25  1  0  0  0  0
 10 26  1  0  0  0  0
 11 27  1  0  0  0  0
M  END
> <pdb_id>
4N1T

> <uniprot_id>
P36639

> <usmiles>
Clc1c(Cl)cccc1c2nc(nc(NC)c2)N

$$$$
2GE_B_201
          07192416543D 1   1.00000     0.00000     0
            
 31 33  0  0  0  0            999 V2000
   10.5526   22.1736    1.5577 Cl  0  0  0  0  0  0  0  0  0  0  0  0
   13.5233   21.5142    1.5429 Cl  0  0  0  0  0  0  0  0  0  0  0  0
   17.3247   19.6165    6.0892 N   0  0  0  0  0  0  0  0  0  0  0  0
   17.8409   21.1265    4.4180 N   0  0  0  0  0  0  0  0  0  0  0  0
   15.5542   20.7158    5.0740 N   0  0  0  0  0  0  0  0  0  0  0  0
   18.3559   22.5598    2.6257 N   0  0  0  0  0  0  0  0  0  0  0  0
   11.5829   22.3920    5.4331 C   0  0  0  0  0  0  0  0  0  0  0  0
   10.8277   22.4030    4.2942 C   0  0  0  0  0  0  0  0  0  0  0  0
   12.9709   22.1245    5.3621 C   0  0  0  0  0  0  0  0  0  0  0  0
   18.7831   23.4905    0.4869 C   0  0  0  0  0  0  0  0  0  0  0  0
   17.3707   23.1135    0.4330 C   0  0  0  0  0  0  0  0  0  0  0  0
   15.9867   22.2200    3.3333 C   0  0  0  0  0  0  0  0  0  0  0  0
   16.8584   20.5206    5.1229 C   0  0  0  0  0  0  0  0  0  0  0  0
   11.4352   22.1451    3.0745 C   0  0  0  0  0  0  0  0  0  0  0  0
   17.3827   21.9560    3.4422 C   0  0  0  0  0  0  0  0  0  0  0  0
   12.7922   21.8744    3.0272 C   0  0  0  0  0  0  0  0  0  0  0  0
   17.9522   23.6184    1.7251 C   0  0  0  0  0  0  0  0  0  0  0  0
   15.0499   21.5657    4.1547 C   0  0  0  0  0  0  0  0  0  0  0  0
   13.5782   21.8226    4.1452 C   0  0  0  0  0  0  0  0  0  0  0  0
   16.6745   19.1178    6.6624 H   0  0  0  0  0  0  0  0  0  0  0  0
   18.3073   19.4708    6.2047 H   0  0  0  0  0  0  0  0  0  0  0  0
   19.3099   22.2627    2.6666 H   0  0  0  0  0  0  0  0  0  0  0  0
   11.1542   22.5733    6.3181 H   0  0  0  0  0  0  0  0  0  0  0  0
    9.8474   22.5948    4.3398 H   0  0  0  0  0  0  0  0  0  0  0  0
   13.5225   22.1526    6.1957 H   0  0  0  0  0  0  0  0  0  0  0  0
   19.0969   24.3124    0.0115 H   0  0  0  0  0  0  0  0  0  0  0  0
   19.4887   22.7840    0.4323 H   0  0  0  0  0  0  0  0  0  0  0  0
   17.1146   22.1510    0.3439 H   0  0  0  0  0  0  0  0  0  0  0  0
   16.7227   23.6794   -0.0769 H   0  0  0  0  0  0  0  0  0  0  0  0
   15.6657   22.8846    2.6586 H   0  0  0  0  0  0  0  0  0  0  0  0
   17.7010   24.5194    2.0787 H   0  0  0  0  0  0  0  0  0  0  0  0
  1 14  1  0  0  0  0
  2 16  1  0  0  0  0
  3 13  1  0  0  0  0
  4 13  2  0  0  0  0
  4 15  1  0  0  0  0
  5 13  1  0  0  0  0
  5 18  2  0  0  0  0
  6 15  1  0  0  0  0
  6 17  1  0  0  0  0
  7  8  2  0  0  0  0
  7  9  1  0  0  0  0
  8 14  1  0  0  0  0
  9 19  2  0  0  0  0
 10 11  1  0  0  0  0
 10 17  1  0  0  0  0
 11 17  1  0  0  0  0
 12 15  2  0  0  0  0
 12 18  1  0  0  0  0
 14 16  2  0  0  0  0
 16 19  1  0  0  0  0
 18 19  1  0  0  0  0
  3 20  1  0  0  0  0
  3 21  1  0  0  0  0
  6 22  1  0  0  0  0
  7 23  1  0  0  0  0
  8 24  1  0  0  0  0
  9 25  1  0  0  0  0
 10 26  1  0  0  0  0
 10 27  1  0  0  0  0
 11 28  1  0  0  0  0
 11 29  1  0  0  0  0
 12 30  1  0  0  0  0
 17 31  1  0  0  0  0
M  END
> <pdb_id>
4N1U

> <uniprot_id>
P36639

> <usmiles>
Clc1c(Cl)cccc1c2nc(nc(NC3CC3)c2)N

$$$$
2GG_A_1228
          07192420423D 1   1.00000     0.00000     0
            
 44 46  0  0  0  0            999 V2000
   69.4931   32.4519   26.6776 Cl  0  0  0  0  0  0  0  0  0  0  0  0
   67.9828   38.8193   21.4491 O   0  0  0  0  0  0  0  0  0  0  0  0
   66.7892   31.9553   27.8021 O   0  0  0  0  0  0  0  0  0  0  0  0
   64.2964   34.3217   24.5544 O   0  0  0  0  0  0  0  0  0  0  0  0
   65.9314   34.8100   22.1283 O   0  0  0  0  0  0  0  0  0  0  0  0
   71.1621   38.7263   26.4292 O   0  0  0  0  0  0  0  0  0  0  0  0
   66.1452   35.7806   21.1610 N   0  0  0  0  0  0  0  0  0  0  0  0
   67.5914   37.6352   19.5575 N   0  0  0  0  0  0  0  0  0  0  0  0
   70.7596   39.3661   27.6800 C   0  0  0  0  0  0  0  0  0  0  0  0
   69.5675   38.5246   18.3679 C   0  0  0  0  0  0  0  0  0  0  0  0
   68.0653   38.7065   18.6507 C   0  0  0  0  0  0  0  0  0  0  0  0
   68.8242   38.1172   25.9740 C   0  0  0  0  0  0  0  0  0  0  0  0
   70.6273   37.5520   24.4391 C   0  0  0  0  0  0  0  0  0  0  0  0
   67.9189   37.4867   25.0848 C   0  0  0  0  0  0  0  0  0  0  0  0
   69.7154   36.9329   23.5765 C   0  0  0  0  0  0  0  0  0  0  0  0
   65.5336   33.1279   26.1926 C   0  0  0  0  0  0  0  0  0  0  0  0
   67.9136   33.8104   24.8923 C   0  0  0  0  0  0  0  0  0  0  0  0
   67.5560   37.8115   20.8911 C   0  0  0  0  0  0  0  0  0  0  0  0
   67.9646   33.0233   26.0438 C   0  0  0  0  0  0  0  0  0  0  0  0
   66.7626   32.6747   26.6760 C   0  0  0  0  0  0  0  0  0  0  0  0
   65.5017   33.8872   25.0145 C   0  0  0  0  0  0  0  0  0  0  0  0
   70.1984   38.1371   25.6518 C   0  0  0  0  0  0  0  0  0  0  0  0
   66.6957   35.0642   23.2208 C   0  0  0  0  0  0  0  0  0  0  0  0
   67.0415   36.6262   21.6763 C   0  0  0  0  0  0  0  0  0  0  0  0
   68.3474   36.8945   23.8642 C   0  0  0  0  0  0  0  0  0  0  0  0
   66.6936   34.2654   24.3822 C   0  0  0  0  0  0  0  0  0  0  0  0
   67.4279   36.2396   22.9769 C   0  0  0  0  0  0  0  0  0  0  0  0
   67.6607   31.6227   28.1626 H   0  0  0  0  0  0  0  0  0  0  0  0
   64.2474   34.8648   23.7163 H   0  0  0  0  0  0  0  0  0  0  0  0
   67.2917   36.7631   19.1707 H   0  0  0  0  0  0  0  0  0  0  0  0
   71.5650   39.7481   28.1332 H   0  0  0  0  0  0  0  0  0  0  0  0
   70.1079   40.0991   27.4848 H   0  0  0  0  0  0  0  0  0  0  0  0
   70.3304   38.6890   28.2777 H   0  0  0  0  0  0  0  0  0  0  0  0
   69.8816   39.2501   17.7556 H   0  0  0  0  0  0  0  0  0  0  0  0
   70.0764   38.5702   19.2275 H   0  0  0  0  0  0  0  0  0  0  0  0
   69.7202   37.6353   17.9369 H   0  0  0  0  0  0  0  0  0  0  0  0
   67.9140   39.5965   19.0808 H   0  0  0  0  0  0  0  0  0  0  0  0
   67.5578   38.6615   17.7902 H   0  0  0  0  0  0  0  0  0  0  0  0
   68.4945   38.5417   26.8172 H   0  0  0  0  0  0  0  0  0  0  0  0
   71.5963   37.5807   24.1938 H   0  0  0  0  0  0  0  0  0  0  0  0
   66.9481   37.4571   25.3226 H   0  0  0  0  0  0  0  0  0  0  0  0
   70.0498   36.5082   22.7351 H   0  0  0  0  0  0  0  0  0  0  0  0
   64.6872   32.9138   26.6803 H   0  0  0  0  0  0  0  0  0  0  0  0
   68.7634   34.0530   24.4244 H   0  0  0  0  0  0  0  0  0  0  0  0
  1 19  1  0  0  0  0
  2 18  2  0  0  0  0
  3 20  1  0  0  0  0
  4 21  1  0  0  0  0
  5  7  1  0  0  0  0
  5 23  1  0  0  0  0
  6  9  1  0  0  0  0
  6 22  1  0  0  0  0
  7 24  2  0  0  0  0
  8 11  1  0  0  0  0
  8 18  1  0  0  0  0
 10 11  1  0  0  0  0
 12 14  2  0  0  0  0
 12 22  1  0  0  0  0
 13 15  1  0  0  0  0
 13 22  2  0  0  0  0
 14 25  1  0  0  0  0
 15 25  2  0  0  0  0
 16 20  2  0  0  0  0
 16 21  1  0  0  0  0
 17 19  2  0  0  0  0
 17 26  1  0  0  0  0
 18 24  1  0  0  0  0
 19 20  1  0  0  0  0
 21 26  2  0  0  0  0
 23 26  1  0  0  0  0
 23 27  2  0  0  0  0
 24 27  1  0  0  0  0
 25 27  1  0  0  0  0
  3 28  1  0  0  0  0
  4 29  1  0  0  0  0
  8 30  1  0  0  0  0
  9 31  1  0  0  0  0
  9 32  1  0  0  0  0
  9 33  1  0  0  0  0
 10 34  1  0  0  0  0
 10 35  1  0  0  0  0
 10 36  1  0  0  0  0
 11 37  1  0  0  0  0
 11 38  1  0  0  0  0
 12 39  1  0  0  0  0
 13 40  1  0  0  0  0
 14 41  1  0  0  0  0
 15 42  1  0  0  0  0
 16 43  1  0  0  0  0
 17 44  1  0  0  0  0
M  END
> <pdb_id>
2UWD

> <uniprot_id>
P07900

> <usmiles>
Clc1c(O)cc(O)c(c1)C=2ON=C(C(=O)NCC)C2c3ccc(OC)cc3

$$$$
2H8_A_502
          07202402463D 1   1.00000     0.00000     0
            
 44 44  0  0  0  0            999 V2000
   20.5394  -24.6341  -54.4045 O   0  0  0  0  0  0  0  0  0  0  0  0
   19.0295  -23.0808  -54.9361 O   0  0  0  0  0  0  0  0  0  0  0  0
   24.6444  -18.3612  -52.8394 O   0  0  0  0  0  0  0  0  0  0  0  0
   24.3716  -22.1876  -52.4751 O   0  0  0  0  0  0  0  0  0  0  0  0
   20.7652  -18.8374  -53.0244 N   0  0  0  0  0  0  0  0  0  0  0  0
   23.2780  -19.6966  -51.6285 N   0  0  0  0  0  0  0  0  0  0  0  0
   24.7959  -25.0481  -51.4866 C   0  0  0  0  0  0  0  0  0  0  0  0
   27.0853  -21.0422  -51.7175 C   0  0  0  0  0  0  0  0  0  0  0  0
   24.6448  -18.0381  -50.4853 C   0  0  0  0  0  0  0  0  0  0  0  0
   24.4452  -23.8484  -50.6036 C   0  0  0  0  0  0  0  0  0  0  0  0
   26.5470  -22.4523  -51.3630 C   0  0  0  0  0  0  0  0  0  0  0  0
   22.3666  -22.7751  -53.6411 C   0  0  0  0  0  0  0  0  0  0  0  0
   20.4522  -21.1407  -53.6058 C   0  0  0  0  0  0  0  0  0  0  0  0
   20.1597  -23.4164  -54.4472 C   0  0  0  0  0  0  0  0  0  0  0  0
   24.1905  -18.7121  -51.7825 C   0  0  0  0  0  0  0  0  0  0  0  0
   24.9871  -22.4835  -51.2044 C   0  0  0  0  0  0  0  0  0  0  0  0
   22.9659  -21.9515  -52.4806 C   0  0  2  0  0  0  0  0  0  0  0  0
   21.1598  -20.2340  -52.7780 C   0  0  1  0  0  0  0  0  0  0  0  0
   22.7124  -20.4590  -52.7310 C   0  0  1  0  0  0  0  0  0  0  0  0
   20.9959  -22.4141  -53.9292 C   0  0  0  0  0  0  0  0  0  0  0  0
   21.4308  -24.8666  -54.0154 H   0  0  0  0  0  0  0  0  0  0  0  0
   21.2861  -18.2325  -52.4221 H   0  0  0  0  0  0  0  0  0  0  0  0
   20.9533  -18.6011  -53.9778 H   0  0  0  0  0  0  0  0  0  0  0  0
   22.9731  -19.9142  -50.7013 H   0  0  0  0  0  0  0  0  0  0  0  0
   24.4364  -25.8838  -51.0715 H   0  0  0  0  0  0  0  0  0  0  0  0
   24.3908  -24.9249  -52.3926 H   0  0  0  0  0  0  0  0  0  0  0  0
   25.7896  -25.1194  -51.5727 H   0  0  0  0  0  0  0  0  0  0  0  0
   28.0806  -21.0782  -51.8067 H   0  0  0  0  0  0  0  0  0  0  0  0
   26.6838  -20.7398  -52.5820 H   0  0  0  0  0  0  0  0  0  0  0  0
   26.8386  -20.3993  -50.9924 H   0  0  0  0  0  0  0  0  0  0  0  0
   24.1683  -18.4523  -49.7098 H   0  0  0  0  0  0  0  0  0  0  0  0
   25.6311  -18.1598  -50.3741 H   0  0  0  0  0  0  0  0  0  0  0  0
   24.4318  -17.0618  -50.5246 H   0  0  0  0  0  0  0  0  0  0  0  0
   24.8492  -23.9851  -49.6992 H   0  0  0  0  0  0  0  0  0  0  0  0
   23.4504  -23.7906  -50.5190 H   0  0  0  0  0  0  0  0  0  0  0  0
   26.9619  -22.7457  -50.5018 H   0  0  0  0  0  0  0  0  0  0  0  0
   26.8071  -23.0862  -52.0914 H   0  0  0  0  0  0  0  0  0  0  0  0
   22.3979  -23.7440  -53.3958 H   0  0  0  0  0  0  0  0  0  0  0  0
   22.9176  -22.6209  -54.4612 H   0  0  0  0  0  0  0  0  0  0  0  0
   19.5570  -20.8811  -53.9679 H   0  0  0  0  0  0  0  0  0  0  0  0
   24.7340  -21.7534  -50.5697 H   0  0  0  0  0  0  0  0  0  0  0  0
   22.5623  -22.2320  -51.6097 H   0  0  0  0  0  0  0  0  0  0  0  0
   20.8429  -20.4312  -51.8502 H   0  0  0  0  0  0  0  0  0  0  0  0
   23.1289  -20.1777  -53.5955 H   0  0  0  0  0  0  0  0  0  0  0  0
  1 14  1  0  0  0  0
  2 14  2  0  0  0  0
  3 15  2  0  0  0  0
  4 16  1  0  0  0  0
  4 17  1  0  0  0  0
  5 18  1  0  0  0  0
  6 15  1  0  0  0  0
  6 19  1  0  0  0  0
  7 10  1  0  0  0  0
  8 11  1  0  0  0  0
  9 15  1  0  0  0  0
 10 16  1  0  0  0  0
 11 16  1  0  0  0  0
 12 17  1  0  0  0  0
 12 20  1  0  0  0  0
 13 18  1  0  0  0  0
 13 20  2  0  0  0  0
 14 20  1  0  0  0  0
 17 19  1  0  0  0  0
 18 19  1  0  0  0  0
  1 21  1  0  0  0  0
  5 22  1  0  0  0  0
  5 23  1  0  0  0  0
  6 24  1  0  0  0  0
  7 25  1  0  0  0  0
  7 26  1  0  0  0  0
  7 27  1  0  0  0  0
  8 28  1  0  0  0  0
  8 29  1  0  0  0  0
  8 30  1  0  0  0  0
  9 31  1  0  0  0  0
  9 32  1  0  0  0  0
  9 33  1  0  0  0  0
 10 34  1  0  0  0  0
 10 35  1  0  0  0  0
 11 36  1  0  0  0  0
 11 37  1  0  0  0  0
 12 38  1  0  0  0  0
 12 39  1  0  0  0  0
 13 40  1  0  0  0  0
 16 41  1  0  0  0  0
 17 42  1  0  0  0  0
 18 43  1  0  0  0  0
 19 44  1  0  0  0  0
M  END
> <pdb_id>
4KS1

> <uniprot_id>
Q0A480

> <usmiles>
O=C(O)C1=C[C@H](N)[C@@H](NC(=O)C)[C@H](OC(CC)CC)C1

$$$$
2HC_B_1815
          07192421073D 1   1.00000     0.00000     0
            
 22 22  0  0  0  0            999 V2000
   63.7248   33.0001   19.1654 O   0  0  0  0  0  0  0  0  0  0  0  0
   64.2889   30.8371   19.1449 O   0  0  0  0  0  0  0  0  0  0  0  0
   65.0803   28.0769   23.0190 O   0  0  0  0  0  0  0  0  0  0  0  0
   64.3753   30.2363   26.1789 C   0  0  0  0  0  0  0  0  0  0  0  0
   64.0385   31.4133   25.5459 C   0  0  0  0  0  0  0  0  0  0  0  0
   64.7456   29.0464   25.4011 C   0  0  0  0  0  0  0  0  0  0  0  0
   64.0024   31.8925   21.2358 C   0  0  0  0  0  0  0  0  0  0  0  0
   64.0386   31.5157   24.2070 C   0  0  0  0  0  0  0  0  0  0  0  0
   64.3624   30.5732   21.8538 C   0  0  0  0  0  0  0  0  0  0  0  0
   64.0048   31.9202   19.6647 C   0  0  0  0  0  0  0  0  0  0  0  0
   64.7335   29.1893   23.9010 C   0  0  0  0  0  0  0  0  0  0  0  0
   64.3830   30.4162   23.3710 C   0  0  0  0  0  0  0  0  0  0  0  0
   63.5186   33.7836   19.7517 H   0  0  0  0  0  0  0  0  0  0  0  0
   65.0635   28.2014   22.0269 H   0  0  0  0  0  0  0  0  0  0  0  0
   64.3675   30.1919   27.1778 H   0  0  0  0  0  0  0  0  0  0  0  0
   63.7882   32.2096   26.0966 H   0  0  0  0  0  0  0  0  0  0  0  0
   64.9931   28.1851   25.8447 H   0  0  0  0  0  0  0  0  0  0  0  0
   64.6593   32.5742   21.5579 H   0  0  0  0  0  0  0  0  0  0  0  0
   63.0852   32.1399   21.5479 H   0  0  0  0  0  0  0  0  0  0  0  0
   63.7901   32.3879   23.7858 H   0  0  0  0  0  0  0  0  0  0  0  0
   65.2797   30.3438   21.5283 H   0  0  0  0  0  0  0  0  0  0  0  0
   63.7074   29.9034   21.5041 H   0  0  0  0  0  0  0  0  0  0  0  0
  1 10  1  0  0  0  0
  2 10  2  0  0  0  0
  3 11  1  0  0  0  0
  4  5  2  0  0  0  0
  4  6  1  0  0  0  0
  5  8  1  0  0  0  0
  6 11  2  0  0  0  0
  7  9  1  0  0  0  0
  7 10  1  0  0  0  0
  8 12  2  0  0  0  0
  9 12  1  0  0  0  0
 11 12  1  0  0  0  0
  1 13  1  0  0  0  0
  3 14  1  0  0  0  0
  4 15  1  0  0  0  0
  5 16  1  0  0  0  0
  6 17  1  0  0  0  0
  7 18  1  0  0  0  0
  7 19  1  0  0  0  0
  8 20  1  0  0  0  0
  9 21  1  0  0  0  0
  9 22  1  0  0  0  0
M  END
> <pdb_id>
1V5Z

> <uniprot_id>
P46072

> <usmiles>
O=C(O)CCc1c(O)cccc1

$$$$
2HJ_A_601
          07202407493D 1   1.00000     0.00000     0
            
 55 57  0  0  0  0            999 V2000
    8.4831   -2.3009   46.4597 S   0  0  0  0  0  0  0  0  0  0  0  0
    7.9645   -1.1708   45.7626 O   0  0  0  0  0  0  0  0  0  0  0  0
    7.6250   -3.1784   47.2057 O   0  0  0  0  0  0  0  0  0  0  0  0
    9.5768   -8.7674   41.2189 O   0  0  0  0  0  0  0  0  0  0  0  0
    9.3327   -3.2357   45.3707 N   0  0  0  0  0  0  0  0  0  0  0  0
   10.0066   -8.7332   37.1009 N   0  0  0  0  0  0  0  0  0  0  0  0
   11.1159   -7.3932   40.2964 N   0  0  0  0  0  0  0  0  0  0  0  0
   12.2512    1.3156   50.6959 C   0  0  0  0  0  0  0  0  0  0  0  0
   12.8629   -0.9850   51.4855 C   0  0  0  0  0  0  0  0  0  0  0  0
   14.0246   -0.0052   49.5432 C   0  0  0  0  0  0  0  0  0  0  0  0
   10.9519   -8.3027   36.2761 C   0  0  0  0  0  0  0  0  0  0  0  0
   10.1532   -4.3716   45.8501 C   0  0  0  0  0  0  0  0  0  0  0  0
   10.0571   -8.4616   38.3930 C   0  0  0  0  0  0  0  0  0  0  0  0
   12.0228   -7.5677   36.7470 C   0  0  0  0  0  0  0  0  0  0  0  0
   12.1138   -7.2667   38.1054 C   0  0  0  0  0  0  0  0  0  0  0  0
   10.6760   -0.8015   47.1228 C   0  0  0  0  0  0  0  0  0  0  0  0
    9.6888   -2.0373   48.9197 C   0  0  0  0  0  0  0  0  0  0  0  0
    9.1760   -6.0137   44.3016 C   0  0  0  0  0  0  0  0  0  0  0  0
   11.4861   -5.4117   43.9668 C   0  0  0  0  0  0  0  0  0  0  0  0
    9.2470   -6.8522   43.2155 C   0  0  0  0  0  0  0  0  0  0  0  0
   11.5713   -6.2524   42.8687 C   0  0  0  0  0  0  0  0  0  0  0  0
   11.6383   -0.2981   47.9811 C   0  0  0  0  0  0  0  0  0  0  0  0
   10.6451   -1.5268   49.7869 C   0  0  0  0  0  0  0  0  0  0  0  0
   10.3650   -7.8502   41.3199 C   0  0  0  0  0  0  0  0  0  0  0  0
    9.6976   -1.6690   47.5819 C   0  0  0  0  0  0  0  0  0  0  0  0
   11.1324   -7.7703   38.9524 C   0  0  0  0  0  0  0  0  0  0  0  0
   10.2935   -5.3024   44.6737 C   0  0  0  0  0  0  0  0  0  0  0  0
   10.4461   -7.0117   42.5226 C   0  0  0  0  0  0  0  0  0  0  0  0
   11.6249   -0.6593   49.3219 C   0  0  0  0  0  0  0  0  0  0  0  0
   12.6787   -0.0919   50.2567 C   0  0  0  0  0  0  0  0  0  0  0  0
    9.9506   -2.6196   44.8822 H   0  0  0  0  0  0  0  0  0  0  0  0
   11.7627   -6.6701   40.5388 H   0  0  0  0  0  0  0  0  0  0  0  0
   12.1323    1.8948   49.8894 H   0  0  0  0  0  0  0  0  0  0  0  0
   11.3875    1.2605   51.1969 H   0  0  0  0  0  0  0  0  0  0  0  0
   12.9553    1.7084   51.2875 H   0  0  0  0  0  0  0  0  0  0  0  0
   13.1412   -1.9001   51.1937 H   0  0  0  0  0  0  0  0  0  0  0  0
   13.5678   -0.5953   52.0781 H   0  0  0  0  0  0  0  0  0  0  0  0
   12.0001   -1.0432   51.9876 H   0  0  0  0  0  0  0  0  0  0  0  0
   14.3083   -0.9196   49.2546 H   0  0  0  0  0  0  0  0  0  0  0  0
   13.9392    0.5860   48.7412 H   0  0  0  0  0  0  0  0  0  0  0  0
   14.7082    0.3749   50.1663 H   0  0  0  0  0  0  0  0  0  0  0  0
   10.8886   -8.5129   35.3005 H   0  0  0  0  0  0  0  0  0  0  0  0
    9.6958   -4.8357   46.6086 H   0  0  0  0  0  0  0  0  0  0  0  0
   11.0517   -4.0504   46.1490 H   0  0  0  0  0  0  0  0  0  0  0  0
    9.3070   -8.7585   38.9840 H   0  0  0  0  0  0  0  0  0  0  0  0
   12.7309   -7.2524   36.1152 H   0  0  0  0  0  0  0  0  0  0  0  0
   12.8620   -6.7057   38.4599 H   0  0  0  0  0  0  0  0  0  0  0  0
   10.6870   -0.5358   46.1588 H   0  0  0  0  0  0  0  0  0  0  0  0
    8.9934   -2.6707   49.2592 H   0  0  0  0  0  0  0  0  0  0  0  0
    8.3229   -5.9216   44.8152 H   0  0  0  0  0  0  0  0  0  0  0  0
   12.2848   -4.8818   44.2519 H   0  0  0  0  0  0  0  0  0  0  0  0
    8.4327   -7.3516   42.9199 H   0  0  0  0  0  0  0  0  0  0  0  0
   12.4154   -6.3156   42.3362 H   0  0  0  0  0  0  0  0  0  0  0  0
   12.3412    0.3241   47.6366 H   0  0  0  0  0  0  0  0  0  0  0  0
   10.6283   -1.7853   50.7528 H   0  0  0  0  0  0  0  0  0  0  0  0
  1  2  2  0  0  0  0
  1  3  2  0  0  0  0
  1  5  1  0  0  0  0
  1 25  1  0  0  0  0
  4 24  2  0  0  0  0
  5 12  1  0  0  0  0
  6 11  2  0  0  0  0
  6 13  1  0  0  0  0
  7 24  1  0  0  0  0
  7 26  1  0  0  0  0
  8 30  1  0  0  0  0
  9 30  1  0  0  0  0
 10 30  1  0  0  0  0
 11 14  1  0  0  0  0
 12 27  1  0  0  0  0
 13 26  2  0  0  0  0
 14 15  2  0  0  0  0
 15 26  1  0  0  0  0
 16 22  2  0  0  0  0
 16 25  1  0  0  0  0
 17 23  1  0  0  0  0
 17 25  2  0  0  0  0
 18 20  1  0  0  0  0
 18 27  2  0  0  0  0
 19 21  2  0  0  0  0
 19 27  1  0  0  0  0
 20 28  2  0  0  0  0
 21 28  1  0  0  0  0
 22 29  1  0  0  0  0
 23 29  2  0  0  0  0
 24 28  1  0  0  0  0
 29 30  1  0  0  0  0
  5 31  1  0  0  0  0
  7 32  1  0  0  0  0
  8 33  1  0  0  0  0
  8 34  1  0  0  0  0
  8 35  1  0  0  0  0
  9 36  1  0  0  0  0
  9 37  1  0  0  0  0
  9 38  1  0  0  0  0
 10 39  1  0  0  0  0
 10 40  1  0  0  0  0
 10 41  1  0  0  0  0
 11 42  1  0  0  0  0
 12 43  1  0  0  0  0
 12 44  1  0  0  0  0
 13 45  1  0  0  0  0
 14 46  1  0  0  0  0
 15 47  1  0  0  0  0
 16 48  1  0  0  0  0
 17 49  1  0  0  0  0
 18 50  1  0  0  0  0
 19 51  1  0  0  0  0
 20 52  1  0  0  0  0
 21 53  1  0  0  0  0
 22 54  1  0  0  0  0
 23 55  1  0  0  0  0
M  END
> <pdb_id>
4N9D

> <uniprot_id>
P43490

> <usmiles>
S(=O)(=O)(NCc1ccc(cc1)C(=O)Nc2cnccc2)c3ccc(cc3)C(C)(C)C

$$$$
2HN_A_1145
          07192422283D 1   1.00000     0.00000     0
            
 36 37  0  0  0  0            999 V2000
   29.0870   50.9610    5.9400 F   0  0  0  0  0  0  0  0  0  0  0  0
   29.3070   49.1930    3.7370 F   0  0  0  0  0  0  0  0  0  0  0  0
   29.3220   50.1970    8.3030 F   0  0  0  0  0  0  0  0  0  0  0  0
   29.7750   46.6210    4.2740 F   0  0  0  0  0  0  0  0  0  0  0  0
   29.8460   47.6520    8.9780 F   0  0  0  0  0  0  0  0  0  0  0  0
   29.3860   42.9380    4.8760 O   0  0  0  0  0  0  0  0  0  0  0  0
   31.2750   42.8340    6.0500 O   0  0  0  0  0  0  0  0  0  0  0  0
   29.7460   42.6720   10.8720 O   0  0  0  0  0  0  0  0  0  0  0  0
   28.0440   44.9340   10.9620 O   0  0  0  0  0  0  0  0  0  0  0  0
   27.3450   46.0200    8.4590 O   0  0  0  0  0  0  0  0  0  0  0  0
   27.8840   42.6350    7.0220 O   0  0  0  0  0  0  0  0  0  0  0  0
   30.1230   45.5930    6.9310 C   0  0  0  0  0  0  0  0  0  0  0  0
   29.9090   42.7860    8.4550 C   0  0  0  0  0  0  0  0  0  0  0  0
   29.3190   49.6660    6.0740 C   0  0  0  0  0  0  0  0  0  0  0  0
   29.4280   48.7870    5.0150 C   0  0  0  0  0  0  0  0  0  0  0  0
   29.4620   49.2700    7.3570 C   0  0  0  0  0  0  0  0  0  0  0  0
   29.6810   47.4700    5.3030 C   0  0  0  0  0  0  0  0  0  0  0  0
   29.7210   47.9650    7.6630 C   0  0  0  0  0  0  0  0  0  0  0  0
   30.0220   42.9490    5.9320 C   0  0  0  0  0  0  0  0  0  0  0  0
   29.0460   43.0850    9.6910 C   0  0  2  0  0  0  0  0  0  0  0  0
   28.8220   44.6090    9.8050 C   0  0  1  0  0  0  0  0  0  0  0  0
   28.2330   45.1690    8.4850 C   0  0  0  0  0  0  0  0  0  0  0  0
   29.8280   47.0380    6.6220 C   0  0  0  0  0  0  0  0  0  0  0  0
   28.8620   44.7570    7.1580 C   0  0  2  0  0  0  0  0  0  0  0  0
   29.1690   43.2630    7.1710 C   0  0  1  0  0  0  0  0  0  0  0  0
   28.3910   43.0369    4.8905 H   0  0  0  0  0  0  0  0  0  0  0  0
   29.1852   42.8661   11.6769 H   0  0  0  0  0  0  0  0  0  0  0  0
   27.9154   45.9245   11.0097 H   0  0  0  0  0  0  0  0  0  0  0  0
   27.4447   42.9685    6.1879 H   0  0  0  0  0  0  0  0  0  0  0  0
   30.6844   45.5527    7.7576 H   0  0  0  0  0  0  0  0  0  0  0  0
   30.6307   45.2009    6.1638 H   0  0  0  0  0  0  0  0  0  0  0  0
   30.0760   41.8018    8.3963 H   0  0  0  0  0  0  0  0  0  0  0  0
   30.7816   43.2680    8.5343 H   0  0  0  0  0  0  0  0  0  0  0  0
   28.1686   42.6098    9.6242 H   0  0  0  0  0  0  0  0  0  0  0  0
   29.7208   45.0298    9.9276 H   0  0  0  0  0  0  0  0  0  0  0  0
   28.2129   44.9462    6.4212 H   0  0  0  0  0  0  0  0  0  0  0  0
  1 14  1  0  0  0  0
  2 15  1  0  0  0  0
  3 16  1  0  0  0  0
  4 17  1  0  0  0  0
  5 18  1  0  0  0  0
  6 19  1  0  0  0  0
  7 19  2  0  0  0  0
  8 20  1  0  0  0  0
  9 21  1  0  0  0  0
 10 22  2  0  0  0  0
 11 25  1  0  0  0  0
 12 23  1  0  0  0  0
 12 24  1  0  0  0  0
 13 20  1  0  0  0  0
 13 25  1  0  0  0  0
 14 15  2  0  0  0  0
 14 16  1  0  0  0  0
 15 17  1  0  0  0  0
 16 18  2  0  0  0  0
 17 23  2  0  0  0  0
 18 23  1  0  0  0  0
 19 25  1  0  0  0  0
 20 21  1  0  0  0  0
 21 22  1  0  0  0  0
 22 24  1  0  0  0  0
 24 25  1  0  0  0  0
  6 26  1  0  0  0  0
  8 27  1  0  0  0  0
  9 28  1  0  0  0  0
 11 29  1  0  0  0  0
 12 30  1  0  0  0  0
 12 31  1  0  0  0  0
 13 32  1  0  0  0  0
 13 33  1  0  0  0  0
 20 34  1  0  0  0  0
 21 35  1  0  0  0  0
 24 36  1  0  0  0  0
M  END
> <pdb_id>
4B6P

> <uniprot_id>
P0A4Z6

> <usmiles>
Fc1c(F)c(F)c(c(F)c1F)C[C@@H]2C(=O)[C@@H](O)[C@H](O)C[C@]2(O)C(=O)O

$$$$
2HN_C_200
          07192422293D 1   1.00000     0.00000     0
            
 36 37  0  0  0  0            999 V2000
    1.6970   30.5630  -25.0830 F   0  0  0  0  0  0  0  0  0  0  0  0
    1.5810   32.1790  -27.1950 F   0  0  0  0  0  0  0  0  0  0  0  0
    1.4930   31.5150  -22.6610 F   0  0  0  0  0  0  0  0  0  0  0  0
    1.2880   34.8540  -26.8650 F   0  0  0  0  0  0  0  0  0  0  0  0
    1.1670   34.1010  -22.1260 F   0  0  0  0  0  0  0  0  0  0  0  0
    1.7590   38.9240  -26.3710 O   0  0  0  0  0  0  0  0  0  0  0  0
   -0.0640   39.1180  -25.1660 O   0  0  0  0  0  0  0  0  0  0  0  0
    1.3860   39.0380  -20.4970 O   0  0  0  0  0  0  0  0  0  0  0  0
    3.0510   36.5650  -20.4470 O   0  0  0  0  0  0  0  0  0  0  0  0
    3.8320   35.6760  -22.7590 O   0  0  0  0  0  0  0  0  0  0  0  0
    3.2530   39.1500  -24.2160 O   0  0  0  0  0  0  0  0  0  0  0  0
    0.9990   36.1280  -24.2770 C   0  0  0  0  0  0  0  0  0  0  0  0
    1.2900   38.9130  -22.8440 C   0  0  0  0  0  0  0  0  0  0  0  0
    1.5370   31.8720  -24.9100 C   0  0  0  0  0  0  0  0  0  0  0  0
    1.4810   32.7140  -25.9740 C   0  0  0  0  0  0  0  0  0  0  0  0
    1.4370   32.3760  -23.6470 C   0  0  0  0  0  0  0  0  0  0  0  0
    1.3170   34.0720  -25.7690 C   0  0  0  0  0  0  0  0  0  0  0  0
    1.2570   33.7150  -23.4130 C   0  0  0  0  0  0  0  0  0  0  0  0
    1.1550   38.8560  -25.3120 C   0  0  0  0  0  0  0  0  0  0  0  0
    2.1200   38.5550  -21.6170 C   0  0  2  0  0  0  0  0  0  0  0  0
    2.2660   37.0200  -21.5370 C   0  0  1  0  0  0  0  0  0  0  0  0
    2.8910   36.4710  -22.8210 C   0  0  0  0  0  0  0  0  0  0  0  0
    1.2050   34.6200  -24.4850 C   0  0  0  0  0  0  0  0  0  0  0  0
    2.2980   36.9130  -24.1480 C   0  0  2  0  0  0  0  0  0  0  0  0
    2.0090   38.4640  -24.1240 C   0  0  1  0  0  0  0  0  0  0  0  0
    2.7326   38.6985  -26.4067 H   0  0  0  0  0  0  0  0  0  0  0  0
    1.8858   38.8301  -19.6562 H   0  0  0  0  0  0  0  0  0  0  0  0
    3.0980   35.5662  -20.4640 H   0  0  0  0  0  0  0  0  0  0  0  0
    3.7303   38.8647  -25.0471 H   0  0  0  0  0  0  0  0  0  0  0  0
    0.4656   36.2612  -23.4417 H   0  0  0  0  0  0  0  0  0  0  0  0
    0.4895   36.4875  -25.0587 H   0  0  0  0  0  0  0  0  0  0  0  0
    1.1536   39.9033  -22.8724 H   0  0  0  0  0  0  0  0  0  0  0  0
    0.4025   38.4558  -22.7866 H   0  0  0  0  0  0  0  0  0  0  0  0
    3.0188   38.9911  -21.6620 H   0  0  0  0  0  0  0  0  0  0  0  0
    1.3513   36.6265  -21.4452 H   0  0  0  0  0  0  0  0  0  0  0  0
    2.9179   36.6860  -24.8991 H   0  0  0  0  0  0  0  0  0  0  0  0
  1 14  1  0  0  0  0
  2 15  1  0  0  0  0
  3 16  1  0  0  0  0
  4 17  1  0  0  0  0
  5 18  1  0  0  0  0
  6 19  1  0  0  0  0
  7 19  2  0  0  0  0
  8 20  1  0  0  0  0
  9 21  1  0  0  0  0
 10 22  2  0  0  0  0
 11 25  1  0  0  0  0
 12 23  1  0  0  0  0
 12 24  1  0  0  0  0
 13 20  1  0  0  0  0
 13 25  1  0  0  0  0
 14 15  2  0  0  0  0
 14 16  1  0  0  0  0
 15 17  1  0  0  0  0
 16 18  2  0  0  0  0
 17 23  2  0  0  0  0
 18 23  1  0  0  0  0
 19 25  1  0  0  0  0
 20 21  1  0  0  0  0
 21 22  1  0  0  0  0
 22 24  1  0  0  0  0
 24 25  1  0  0  0  0
  6 26  1  0  0  0  0
  8 27  1  0  0  0  0
  9 28  1  0  0  0  0
 11 29  1  0  0  0  0
 12 30  1  0  0  0  0
 12 31  1  0  0  0  0
 13 32  1  0  0  0  0
 13 33  1  0  0  0  0
 20 34  1  0  0  0  0
 21 35  1  0  0  0  0
 24 36  1  0  0  0  0
M  END
> <pdb_id>
4B6S

> <uniprot_id>
Q48255

> <usmiles>
Fc1c(F)c(F)c(c(F)c1F)C[C@@H]2C(=O)[C@@H](O)[C@H](O)C[C@]2(O)C(=O)O

$$$$
2HW_A_401
          07192419233D 1   1.00000     0.00000     0
            
 42 44  0  0  0  0            999 V2000
  -18.5145   36.6178    2.0769 O   0  0  0  0  0  0  0  0  0  0  0  0
  -20.1734   38.7056    2.8620 N   0  0  0  0  0  0  0  0  0  0  0  0
  -15.6155   37.3691   -5.5117 N   0  0  0  0  0  0  0  0  0  0  0  0
  -15.9589   33.5346    0.7968 N   0  0  0  0  0  0  0  0  0  0  0  0
  -21.2686   39.7775    1.1450 N   0  0  0  0  0  0  0  0  0  0  0  0
  -19.9439   38.2100   -0.7446 N   0  0  0  0  0  0  0  0  0  0  0  0
  -18.2266   36.3080   -0.1759 N   0  0  0  0  0  0  0  0  0  0  0  0
  -17.1793   35.5782   -2.6684 N   0  0  0  0  0  0  0  0  0  0  0  0
  -15.4451   33.2486   -0.3986 C   0  0  0  0  0  0  0  0  0  0  0  0
  -21.4548   39.9503   -0.1704 C   0  0  0  0  0  0  0  0  0  0  0  0
  -20.7930   39.1841   -1.1042 C   0  0  0  0  0  0  0  0  0  0  0  0
  -16.8742   34.5052    0.8520 C   0  0  0  0  0  0  0  0  0  0  0  0
  -15.8049   33.8871   -1.5661 C   0  0  0  0  0  0  0  0  0  0  0  0
  -18.4689   35.1727   -3.2403 C   0  0  0  0  0  0  0  0  0  0  0  0
  -16.1598   35.9383   -3.6554 C   0  0  0  0  0  0  0  0  0  0  0  0
  -19.0031   36.2293   -4.1768 C   0  0  0  0  0  0  0  0  0  0  0  0
  -17.9570   36.6068   -5.2232 C   0  0  0  0  0  0  0  0  0  0  0  0
  -18.7738   36.9054    0.9111 C   0  0  0  0  0  0  0  0  0  0  0  0
  -20.3988   38.8201    1.5453 C   0  0  0  0  0  0  0  0  0  0  0  0
  -17.3198   35.2225   -0.2577 C   0  0  0  0  0  0  0  0  0  0  0  0
  -19.7332   38.0107    0.5735 C   0  0  0  0  0  0  0  0  0  0  0  0
  -16.7644   34.8955   -1.5025 C   0  0  0  0  0  0  0  0  0  0  0  0
  -16.6733   37.0556   -4.5444 C   0  0  2  0  0  0  0  0  0  0  0  0
  -19.5332   38.0316    3.2683 H   0  0  0  0  0  0  0  0  0  0  0  0
  -20.6626   39.3047    3.5193 H   0  0  0  0  0  0  0  0  0  0  0  0
  -15.7913   37.0717   -6.4659 H   0  0  0  0  0  0  0  0  0  0  0  0
  -15.3438   38.3462   -5.4884 H   0  0  0  0  0  0  0  0  0  0  0  0
  -18.4813   36.7213   -1.0660 H   0  0  0  0  0  0  0  0  0  0  0  0
  -14.6804   32.4751   -0.3886 H   0  0  0  0  0  0  0  0  0  0  0  0
  -22.1561   40.7419   -0.4292 H   0  0  0  0  0  0  0  0  0  0  0  0
  -20.9028   39.3302   -2.1774 H   0  0  0  0  0  0  0  0  0  0  0  0
  -17.2458   34.6430    1.8661 H   0  0  0  0  0  0  0  0  0  0  0  0
  -15.3221   33.6004   -2.4991 H   0  0  0  0  0  0  0  0  0  0  0  0
  -18.3779   34.2154   -3.7499 H   0  0  0  0  0  0  0  0  0  0  0  0
  -19.1728   35.0042   -2.4265 H   0  0  0  0  0  0  0  0  0  0  0  0
  -15.8861   35.0733   -4.2565 H   0  0  0  0  0  0  0  0  0  0  0  0
  -15.2551   36.2169   -3.1188 H   0  0  0  0  0  0  0  0  0  0  0  0
  -19.9231   35.9062   -4.6622 H   0  0  0  0  0  0  0  0  0  0  0  0
  -19.3000   37.1106   -3.6106 H   0  0  0  0  0  0  0  0  0  0  0  0
  -17.7806   35.7654   -5.8911 H   0  0  0  0  0  0  0  0  0  0  0  0
  -18.3631   37.3817   -5.8714 H   0  0  0  0  0  0  0  0  0  0  0  0
  -16.8415   37.9636   -3.9657 H   0  0  0  0  0  0  0  0  0  0  0  0
  1 18  2  0  0  0  0
  2 19  1  0  0  0  0
  2 24  1  0  0  0  0
  2 25  1  0  0  0  0
  3 23  1  0  0  0  0
  3 26  1  0  0  0  0
  3 27  1  0  0  0  0
  4  9  2  0  0  0  0
  4 12  1  0  0  0  0
  5 10  1  0  0  0  0
  5 19  2  0  0  0  0
  6 11  1  0  0  0  0
  6 21  2  0  0  0  0
  7 18  1  0  0  0  0
  7 20  1  0  0  0  0
  7 28  1  0  0  0  0
  8 14  1  0  0  0  0
  8 15  1  0  0  0  0
  8 22  1  0  0  0  0
  9 13  1  0  0  0  0
  9 29  1  0  0  0  0
 10 11  2  0  0  0  0
 10 30  1  0  0  0  0
 11 31  1  0  0  0  0
 12 20  2  0  0  0  0
 12 32  1  0  0  0  0
 13 22  2  0  0  0  0
 13 33  1  0  0  0  0
 14 16  1  0  0  0  0
 14 34  1  0  0  0  0
 14 35  1  0  0  0  0
 15 23  1  0  0  0  0
 15 36  1  0  0  0  0
 15 37  1  0  0  0  0
 16 17  1  0  0  0  0
 16 38  1  0  0  0  0
 16 39  1  0  0  0  0
 17 23  1  0  0  0  0
 17 40  1  0  0  0  0
 17 41  1  0  0  0  0
 18 21  1  0  0  0  0
 19 21  1  0  0  0  0
 20 22  1  0  0  0  0
 23 42  1  0  0  0  0
M  END
> <pdb_id>
4N6Z

> <uniprot_id>
P11309

> <usmiles>
O=C(Nc1c(N2C[C@@H](N)CCC2)ccnc1)c3nccnc3N

$$$$
2HX_A_401
          07192419233D 1   1.00000     0.00000     0
            
 55 58  0  0  0  0            999 V2000
  -21.4666   41.0124    0.8578 F   0  0  0  0  0  0  0  0  0  0  0  0
  -18.2603   39.8487   -2.1663 F   0  0  0  0  0  0  0  0  0  0  0  0
  -22.8638   39.5161   -0.9609 F   0  0  0  0  0  0  0  0  0  0  0  0
  -17.8221   36.1493    2.4293 O   0  0  0  0  0  0  0  0  0  0  0  0
  -18.2088   38.3027   -5.4010 O   0  0  0  0  0  0  0  0  0  0  0  0
  -15.5094   37.5402   -5.4400 N   0  0  0  0  0  0  0  0  0  0  0  0
  -15.4315   33.2610    0.6911 N   0  0  0  0  0  0  0  0  0  0  0  0
  -17.8096   36.0553    0.1111 N   0  0  0  0  0  0  0  0  0  0  0  0
  -19.3982   38.1382    0.0440 N   0  0  0  0  0  0  0  0  0  0  0  0
  -16.8143   35.6457   -2.4631 N   0  0  0  0  0  0  0  0  0  0  0  0
  -20.2401   36.4869   -3.9557 C   0  0  0  0  0  0  0  0  0  0  0  0
  -14.9573   33.1126   -0.5550 C   0  0  0  0  0  0  0  0  0  0  0  0
  -16.3444   34.2344    0.9079 C   0  0  0  0  0  0  0  0  0  0  0  0
  -15.8899   35.9144   -3.5690 C   0  0  0  0  0  0  0  0  0  0  0  0
  -18.2582   35.5289   -2.7839 C   0  0  0  0  0  0  0  0  0  0  0  0
  -21.3138   40.5683   -4.1722 C   0  0  0  0  0  0  0  0  0  0  0  0
  -15.4070   33.8841   -1.6205 C   0  0  0  0  0  0  0  0  0  0  0  0
  -20.0570   40.3189   -3.6550 C   0  0  0  0  0  0  0  0  0  0  0  0
  -22.2962   40.2384   -3.1898 C   0  0  0  0  0  0  0  0  0  0  0  0
  -20.3601   39.4686    2.3415 C   0  0  0  0  0  0  0  0  0  0  0  0
  -19.5468   38.3379    2.5141 C   0  0  0  0  0  0  0  0  0  0  0  0
  -18.1861   36.5485    1.3402 C   0  0  0  0  0  0  0  0  0  0  0  0
  -20.6729   39.9270    1.0310 C   0  0  0  0  0  0  0  0  0  0  0  0
  -19.5475   39.9873   -2.4145 C   0  0  0  0  0  0  0  0  0  0  0  0
  -21.9130   39.8202   -1.8786 C   0  0  0  0  0  0  0  0  0  0  0  0
  -17.8509   37.0539   -4.7587 C   0  0  1  0  0  0  0  0  0  0  0  0
  -16.3491   37.1993   -4.2788 C   0  0  2  0  0  0  0  0  0  0  0  0
  -19.0974   37.7223    1.3100 C   0  0  0  0  0  0  0  0  0  0  0  0
  -16.8621   35.0465   -0.1065 C   0  0  0  0  0  0  0  0  0  0  0  0
  -20.1902   39.2492   -0.0886 C   0  0  0  0  0  0  0  0  0  0  0  0
  -16.3585   34.8861   -1.3938 C   0  0  0  0  0  0  0  0  0  0  0  0
  -18.7847   36.7488   -3.5470 C   0  0  1  0  0  0  0  0  0  0  0  0
  -20.5390   39.6692   -1.4561 C   0  0  0  0  0  0  0  0  0  0  0  0
  -19.1550   38.2538   -5.7209 H   0  0  0  0  0  0  0  0  0  0  0  0
  -15.8502   38.3799   -5.8627 H   0  0  0  0  0  0  0  0  0  0  0  0
  -14.5654   37.6773   -5.1399 H   0  0  0  0  0  0  0  0  0  0  0  0
  -18.2500   36.4508   -0.6949 H   0  0  0  0  0  0  0  0  0  0  0  0
  -20.5936   37.2779   -4.4550 H   0  0  0  0  0  0  0  0  0  0  0  0
  -20.2813   35.6774   -4.5414 H   0  0  0  0  0  0  0  0  0  0  0  0
  -20.7939   36.3346   -3.1371 H   0  0  0  0  0  0  0  0  0  0  0  0
  -14.2545   32.4215   -0.7237 H   0  0  0  0  0  0  0  0  0  0  0  0
  -16.6666   34.3816    1.8430 H   0  0  0  0  0  0  0  0  0  0  0  0
  -15.9014   35.1495   -4.2131 H   0  0  0  0  0  0  0  0  0  0  0  0
  -14.9633   36.0369   -3.2134 H   0  0  0  0  0  0  0  0  0  0  0  0
  -18.7710   35.4377   -1.9303 H   0  0  0  0  0  0  0  0  0  0  0  0
  -18.3979   34.7134   -3.3455 H   0  0  0  0  0  0  0  0  0  0  0  0
  -21.5047   40.9228   -5.0876 H   0  0  0  0  0  0  0  0  0  0  0  0
  -15.0534   33.7247   -2.5423 H   0  0  0  0  0  0  0  0  0  0  0  0
  -19.3408   40.3978   -4.3485 H   0  0  0  0  0  0  0  0  0  0  0  0
  -23.2666   40.3010   -3.4230 H   0  0  0  0  0  0  0  0  0  0  0  0
  -20.7199   39.9522    3.1394 H   0  0  0  0  0  0  0  0  0  0  0  0
  -19.3002   37.9889    3.4182 H   0  0  0  0  0  0  0  0  0  0  0  0
  -17.9159   36.3091   -5.4228 H   0  0  0  0  0  0  0  0  0  0  0  0
  -16.3005   37.9538   -3.6243 H   0  0  0  0  0  0  0  0  0  0  0  0
  -18.7679   37.5364   -2.9310 H   0  0  0  0  0  0  0  0  0  0  0  0
  1 23  1  0  0  0  0
  2 24  1  0  0  0  0
  3 25  1  0  0  0  0
  4 22  2  0  0  0  0
  5 26  1  0  0  0  0
  6 27  1  0  0  0  0
  7 12  2  0  0  0  0
  7 13  1  0  0  0  0
  8 22  1  0  0  0  0
  8 29  1  0  0  0  0
  9 28  2  0  0  0  0
  9 30  1  0  0  0  0
 10 14  1  0  0  0  0
 10 15  1  0  0  0  0
 10 31  1  0  0  0  0
 11 32  1  0  0  0  0
 12 17  1  0  0  0  0
 13 29  2  0  0  0  0
 14 27  1  0  0  0  0
 15 32  1  0  0  0  0
 16 18  2  0  0  0  0
 16 19  1  0  0  0  0
 17 31  2  0  0  0  0
 18 24  1  0  0  0  0
 19 25  2  0  0  0  0
 20 21  2  0  0  0  0
 20 23  1  0  0  0  0
 21 28  1  0  0  0  0
 22 28  1  0  0  0  0
 23 30  2  0  0  0  0
 24 33  2  0  0  0  0
 25 33  1  0  0  0  0
 26 27  1  0  0  0  0
 26 32  1  0  0  0  0
 29 31  1  0  0  0  0
 30 33  1  0  0  0  0
  5 34  1  0  0  0  0
  6 35  1  0  0  0  0
  6 36  1  0  0  0  0
  8 37  1  0  0  0  0
 11 38  1  0  0  0  0
 11 39  1  0  0  0  0
 11 40  1  0  0  0  0
 12 41  1  0  0  0  0
 13 42  1  0  0  0  0
 14 43  1  0  0  0  0
 14 44  1  0  0  0  0
 15 45  1  0  0  0  0
 15 46  1  0  0  0  0
 16 47  1  0  0  0  0
 17 48  1  0  0  0  0
 18 49  1  0  0  0  0
 19 50  1  0  0  0  0
 20 51  1  0  0  0  0
 21 52  1  0  0  0  0
 26 53  1  0  0  0  0
 27 54  1  0  0  0  0
 32 55  1  0  0  0  0
M  END
> <pdb_id>
4N70

> <uniprot_id>
P11309

> <usmiles>
Fc1c(nc(cc1)C(=O)Nc2c(N3C[C@@H](N)[C@H](O)[C@H](C3)C)ccnc2)c4c(F)cccc4F

$$$$
2J4_A_1717
          07202405173D 1   1.00000     0.00000     0
            
 26 27  0  0  0  0            999 V2000
   27.3512    1.3112  292.9583 S   0  0  0  0  0  0  0  0  0  0  0  0
   26.1551    3.0306  287.9286 O   0  0  0  0  0  0  0  0  0  0  0  0
   27.9535    5.1886  289.9433 O   0  0  0  0  0  0  0  0  0  0  0  0
   30.3161    4.1449  290.9934 O   0  0  0  0  0  0  0  0  0  0  0  0
   26.8864    1.7187  290.2620 O   0  0  0  0  0  0  0  0  0  0  0  0
   29.4123    0.8570  294.8773 N   0  0  0  0  0  0  0  0  0  0  0  0
   29.7693    1.4497  292.4790 N   0  0  0  0  0  0  0  0  0  0  0  0
   25.6634    3.5205  289.1713 C   0  0  0  0  0  0  0  0  0  0  0  0
   28.9670    1.1851  293.5369 C   0  0  0  0  0  0  0  0  0  0  0  0
   27.7892    1.1878  291.2100 C   0  0  1  0  0  0  0  0  0  0  0  0
   28.1172    3.7908  289.9595 C   0  0  1  0  0  0  0  0  0  0  0  0
   29.0701    3.4407  291.1184 C   0  0  1  0  0  0  0  0  0  0  0  0
   26.7268    3.1232  290.2399 C   0  0  2  0  0  0  0  0  0  0  0  0
   29.1931    1.9056  291.1932 C   0  0  1  0  0  0  0  0  0  0  0  0
   25.5082    3.2586  287.2010 H   0  0  0  0  0  0  0  0  0  0  0  0
   27.3375    5.4435  289.1979 H   0  0  0  0  0  0  0  0  0  0  0  0
   30.9150    3.9006  291.7560 H   0  0  0  0  0  0  0  0  0  0  0  0
   30.3899    0.8164  295.0835 H   0  0  0  0  0  0  0  0  0  0  0  0
   28.7417    0.6712  295.5954 H   0  0  0  0  0  0  0  0  0  0  0  0
   24.7814    3.1009  289.3859 H   0  0  0  0  0  0  0  0  0  0  0  0
   25.5600    4.5145  289.1366 H   0  0  0  0  0  0  0  0  0  0  0  0
   27.9326    0.2220  290.9941 H   0  0  0  0  0  0  0  0  0  0  0  0
   28.4910    3.4710  289.0889 H   0  0  0  0  0  0  0  0  0  0  0  0
   28.6365    3.7478  291.9656 H   0  0  0  0  0  0  0  0  0  0  0  0
   26.4043    3.4222  291.1380 H   0  0  0  0  0  0  0  0  0  0  0  0
   29.7436    1.5670  290.4301 H   0  0  0  0  0  0  0  0  0  0  0  0
  1  9  1  0  0  0  0
  1 10  1  0  0  0  0
  2  8  1  0  0  0  0
  3 11  1  0  0  0  0
  4 12  1  0  0  0  0
  5 10  1  0  0  0  0
  5 13  1  0  0  0  0
  6  9  1  0  0  0  0
  7  9  2  0  0  0  0
  7 14  1  0  0  0  0
  8 13  1  0  0  0  0
 10 14  1  0  0  0  0
 11 12  1  0  0  0  0
 11 13  1  0  0  0  0
 12 14  1  0  0  0  0
  2 15  1  0  0  0  0
  3 16  1  0  0  0  0
  4 17  1  0  0  0  0
  6 18  1  0  0  0  0
  6 19  1  0  0  0  0
  8 20  1  0  0  0  0
  8 21  1  0  0  0  0
 10 22  1  0  0  0  0
 11 23  1  0  0  0  0
 12 24  1  0  0  0  0
 13 25  1  0  0  0  0
 14 26  1  0  0  0  0
M  END
> <pdb_id>
5FKY

> <uniprot_id>
Q89ZI2

> <usmiles>
S1C(=N[C@H]2[C@@H]1O[C@@H]([C@@H](O)[C@@H]2O)CO)N

$$$$
2J5_A_401
          07202416583D 1   1.00000     0.00000     0
            
 30 31  0  0  0  0            999 V2000
   27.4538   29.6495   -9.6625 O   0  0  0  0  0  0  0  0  0  0  0  0
   28.8847   27.8968   -8.4489 N   0  0  0  0  0  0  0  0  0  0  0  0
   28.6115   29.1652   -6.4998 N   0  0  0  0  0  0  0  0  0  0  0  0
   28.6714   26.8328   -4.7976 C   0  0  0  0  0  0  0  0  0  0  0  0
   29.1630   26.7120   -9.0038 C   0  0  0  0  0  0  0  0  0  0  0  0
   28.5387   30.4559   -7.1732 C   0  0  0  0  0  0  0  0  0  0  0  0
   29.3022   25.5620   -8.3046 C   0  0  0  0  0  0  0  0  0  0  0  0
   24.7390   31.8310   -8.6395 C   0  0  0  0  0  0  0  0  0  0  0  0
   25.1582   32.1924   -7.3819 C   0  0  0  0  0  0  0  0  0  0  0  0
   25.5016   30.9724   -9.4035 C   0  0  0  0  0  0  0  0  0  0  0  0
   29.1369   25.6068   -6.9348 C   0  0  0  0  0  0  0  0  0  0  0  0
   26.3532   31.7104   -6.8831 C   0  0  0  0  0  0  0  0  0  0  0  0
   28.7524   27.9722   -7.1208 C   0  0  0  0  0  0  0  0  0  0  0  0
   26.7166   30.4905   -8.9126 C   0  0  0  0  0  0  0  0  0  0  0  0
   28.8554   26.7969   -6.2883 C   0  0  0  0  0  0  0  0  0  0  0  0
   27.1712   30.8761   -7.6472 C   0  0  0  0  0  0  0  0  0  0  0  0
   28.3246   29.3020   -9.3146 H   0  0  0  0  0  0  0  0  0  0  0  0
   28.5527   29.1617   -5.5016 H   0  0  0  0  0  0  0  0  0  0  0  0
   28.4760   27.7699   -4.5084 H   0  0  0  0  0  0  0  0  0  0  0  0
   27.9087   26.2390   -4.5415 H   0  0  0  0  0  0  0  0  0  0  0  0
   29.5071   26.5135   -4.3508 H   0  0  0  0  0  0  0  0  0  0  0  0
   29.2750   26.6737   -9.9968 H   0  0  0  0  0  0  0  0  0  0  0  0
   29.1414   30.4198   -7.9703 H   0  0  0  0  0  0  0  0  0  0  0  0
   28.8695   31.1525   -6.5365 H   0  0  0  0  0  0  0  0  0  0  0  0
   29.5190   24.7026   -8.7677 H   0  0  0  0  0  0  0  0  0  0  0  0
   23.8793   32.1912   -9.0017 H   0  0  0  0  0  0  0  0  0  0  0  0
   24.5969   32.8057   -6.8262 H   0  0  0  0  0  0  0  0  0  0  0  0
   25.1839   30.6947  -10.3101 H   0  0  0  0  0  0  0  0  0  0  0  0
   29.2220   24.7653   -6.4012 H   0  0  0  0  0  0  0  0  0  0  0  0
   26.6373   31.9638   -5.9584 H   0  0  0  0  0  0  0  0  0  0  0  0
  1 14  1  0  0  0  0
  2  5  2  0  0  0  0
  2 13  1  0  0  0  0
  3  6  1  0  0  0  0
  3 13  1  0  0  0  0
  4 15  1  0  0  0  0
  5  7  1  0  0  0  0
  6 16  1  0  0  0  0
  7 11  2  0  0  0  0
  8  9  2  0  0  0  0
  8 10  1  0  0  0  0
  9 12  1  0  0  0  0
 10 14  2  0  0  0  0
 11 15  1  0  0  0  0
 12 16  2  0  0  0  0
 13 15  2  0  0  0  0
 14 16  1  0  0  0  0
  1 17  1  0  0  0  0
  3 18  1  0  0  0  0
  4 19  1  0  0  0  0
  4 20  1  0  0  0  0
  4 21  1  0  0  0  0
  5 22  1  0  0  0  0
  6 23  1  0  0  0  0
  6 24  1  0  0  0  0
  7 25  1  0  0  0  0
  8 26  1  0  0  0  0
  9 27  1  0  0  0  0
 10 28  1  0  0  0  0
 11 29  1  0  0  0  0
 12 30  1  0  0  0  0
M  END
> <pdb_id>
4NBK

> <uniprot_id>
P55212

> <usmiles>
Oc1c(cccc1)CNc2ncccc2C

$$$$
2J6_A_401
          07202416583D 1   1.00000     0.00000     0
            
 35 37  0  0  0  0            999 V2000
   34.5300   20.0910   -5.4050 F   0  0  0  0  0  0  0  0  0  0  0  0
   31.1910   22.2550   -8.0060 O   0  0  0  0  0  0  0  0  0  0  0  0
   28.1850   24.7560   -3.6660 N   0  0  0  0  0  0  0  0  0  0  0  0
   28.5650   27.0330   -3.8980 N   0  0  0  0  0  0  0  0  0  0  0  0
   29.4560   24.1620   -7.6320 N   0  0  0  0  0  0  0  0  0  0  0  0
   29.0720   23.2580   -5.4850 N   0  0  0  0  0  0  0  0  0  0  0  0
   27.8810   24.9040   -2.3820 C   0  0  0  0  0  0  0  0  0  0  0  0
   28.2720   27.2420   -2.6190 C   0  0  0  0  0  0  0  0  0  0  0  0
   29.5180   25.1700   -8.4820 C   0  0  0  0  0  0  0  0  0  0  0  0
   27.9180   26.1660   -1.8130 C   0  0  0  0  0  0  0  0  0  0  0  0
   29.2560   26.4630   -8.0540 C   0  0  0  0  0  0  0  0  0  0  0  0
   29.2700   21.8920   -5.9710 C   0  0  0  0  0  0  0  0  0  0  0  0
   32.3680   20.3470   -4.5320 C   0  0  0  0  0  0  0  0  0  0  0  0
   28.9290   26.6970   -6.7270 C   0  0  0  0  0  0  0  0  0  0  0  0
   31.0720   20.7940   -4.6610 C   0  0  0  0  0  0  0  0  0  0  0  0
   32.9030   21.1750   -6.7370 C   0  0  0  0  0  0  0  0  0  0  0  0
   33.2750   20.5420   -5.5580 C   0  0  0  0  0  0  0  0  0  0  0  0
   31.5920   21.6240   -6.8660 C   0  0  0  0  0  0  0  0  0  0  0  0
   28.5230   25.8040   -4.4130 C   0  0  0  0  0  0  0  0  0  0  0  0
   29.1410   24.3370   -6.3500 C   0  0  0  0  0  0  0  0  0  0  0  0
   30.6880   21.4290   -5.8250 C   0  0  0  0  0  0  0  0  0  0  0  0
   28.8580   25.6130   -5.8470 C   0  0  0  0  0  0  0  0  0  0  0  0
   30.2481   22.5760   -8.0946 H   0  0  0  0  0  0  0  0  0  0  0  0
   28.8844   23.4143   -4.5153 H   0  0  0  0  0  0  0  0  0  0  0  0
   27.6271   24.1099   -1.8298 H   0  0  0  0  0  0  0  0  0  0  0  0
   28.3059   28.1664   -2.2390 H   0  0  0  0  0  0  0  0  0  0  0  0
   29.7549   25.0007   -9.4387 H   0  0  0  0  0  0  0  0  0  0  0  0
   27.6958   26.2999   -0.8472 H   0  0  0  0  0  0  0  0  0  0  0  0
   29.3028   27.2244   -8.7006 H   0  0  0  0  0  0  0  0  0  0  0  0
   29.0194   21.8566   -6.9384 H   0  0  0  0  0  0  0  0  0  0  0  0
   28.6771   21.2776   -5.4504 H   0  0  0  0  0  0  0  0  0  0  0  0
   32.6540   19.8805   -3.6950 H   0  0  0  0  0  0  0  0  0  0  0  0
   28.7469   27.6260   -6.4047 H   0  0  0  0  0  0  0  0  0  0  0  0
   30.4154   20.6599   -3.9187 H   0  0  0  0  0  0  0  0  0  0  0  0
   33.5628   21.3053   -7.4771 H   0  0  0  0  0  0  0  0  0  0  0  0
  1 17  1  0  0  0  0
  2 18  1  0  0  0  0
  3  7  2  0  0  0  0
  3 19  1  0  0  0  0
  4  8  1  0  0  0  0
  4 19  2  0  0  0  0
  5  9  1  0  0  0  0
  5 20  2  0  0  0  0
  6 12  1  0  0  0  0
  6 20  1  0  0  0  0
  7 10  1  0  0  0  0
  8 10  2  0  0  0  0
  9 11  2  0  0  0  0
 11 14  1  0  0  0  0
 12 21  1  0  0  0  0
 13 15  1  0  0  0  0
 13 17  2  0  0  0  0
 14 22  2  0  0  0  0
 15 21  2  0  0  0  0
 16 17  1  0  0  0  0
 16 18  2  0  0  0  0
 18 21  1  0  0  0  0
 19 22  1  0  0  0  0
 20 22  1  0  0  0  0
  2 23  1  0  0  0  0
  6 24  1  0  0  0  0
  7 25  1  0  0  0  0
  8 26  1  0  0  0  0
  9 27  1  0  0  0  0
 10 28  1  0  0  0  0
 11 29  1  0  0  0  0
 12 30  1  0  0  0  0
 12 31  1  0  0  0  0
 13 32  1  0  0  0  0
 14 33  1  0  0  0  0
 15 34  1  0  0  0  0
 16 35  1  0  0  0  0
M  END
> <pdb_id>
4NBL

> <uniprot_id>
P55212

> <usmiles>
Fc1cc(O)c(cc1)CNc2ncccc2c3ncccn3

$$$$
2JJ_B_301
          07202416593D 1   1.00000     0.00000     0
            
 24 23  0  0  0  0            999 V2000
   -9.9166   20.8865  -53.1076 P   0  0  0  0  0  0  0  0  0  0  0  0
  -10.9337   19.8871  -53.7189 O   0  0  0  0  0  0  0  0  0  0  0  0
  -10.5945   22.2868  -52.9588 O   0  0  0  0  0  0  0  0  0  0  0  0
   -8.6794   20.9845  -53.9500 O   0  0  0  0  0  0  0  0  0  0  0  0
  -10.6115   15.6860  -52.9557 O   0  0  0  0  0  0  0  0  0  0  0  0
  -10.2212   14.3335  -51.3020 O   0  0  0  0  0  0  0  0  0  0  0  0
   -8.6421   16.0569  -49.9914 N   0  0  0  0  0  0  0  0  0  0  0  0
   -9.4645   20.3191  -51.4262 C   0  0  0  0  0  0  0  0  0  0  0  0
   -8.8076   18.9859  -51.2690 C   0  0  0  0  0  0  0  0  0  0  0  0
   -9.6824   17.7756  -51.3273 C   0  0  0  0  0  0  0  0  0  0  0  0
   -9.9963   15.4353  -51.8802 C   0  0  0  0  0  0  0  0  0  0  0  0
   -9.0333   16.4313  -51.3299 C   0  0  2  0  0  0  0  0  0  0  0  0
  -10.5027   18.9899  -53.8154 H   0  0  0  0  0  0  0  0  0  0  0  0
   -9.9412   22.9333  -52.5648 H   0  0  0  0  0  0  0  0  0  0  0  0
  -10.4521   16.5500  -53.4332 H   0  0  0  0  0  0  0  0  0  0  0  0
   -8.2095   15.1555  -50.0104 H   0  0  0  0  0  0  0  0  0  0  0  0
   -7.9951   16.7297  -49.6327 H   0  0  0  0  0  0  0  0  0  0  0  0
  -10.3064   20.2974  -50.8870 H   0  0  0  0  0  0  0  0  0  0  0  0
   -8.8410   21.0010  -51.0436 H   0  0  0  0  0  0  0  0  0  0  0  0
   -8.3480   18.9811  -50.3808 H   0  0  0  0  0  0  0  0  0  0  0  0
   -8.1272   18.8993  -51.9968 H   0  0  0  0  0  0  0  0  0  0  0  0
  -10.2259   17.8434  -52.1640 H   0  0  0  0  0  0  0  0  0  0  0  0
  -10.2884   17.8100  -50.5326 H   0  0  0  0  0  0  0  0  0  0  0  0
   -8.2215   16.4600  -51.9132 H   0  0  0  0  0  0  0  0  0  0  0  0
  1  2  1  0  0  0  0
  1  3  1  0  0  0  0
  1  4  2  0  0  0  0
  1  8  1  0  0  0  0
  5 11  1  0  0  0  0
  6 11  2  0  0  0  0
  7 12  1  0  0  0  0
  8  9  1  0  0  0  0
  9 10  1  0  0  0  0
 10 12  1  0  0  0  0
 11 12  1  0  0  0  0
  2 13  1  0  0  0  0
  3 14  1  0  0  0  0
  5 15  1  0  0  0  0
  7 16  1  0  0  0  0
  7 17  1  0  0  0  0
  8 18  1  0  0  0  0
  8 19  1  0  0  0  0
  9 20  1  0  0  0  0
  9 21  1  0  0  0  0
 10 22  1  0  0  0  0
 10 23  1  0  0  0  0
 12 24  1  0  0  0  0
M  END
> <pdb_id>
4NF5

> <uniprot_id>
Q00959

> <usmiles>
P(=O)(O)(O)CCC[C@@H](N)C(=O)O

$$$$
2JL_B_301
          07202416593D 1   1.00000     0.00000     0
            
 46 49  0  0  0  0            999 V2000
  -10.5310   15.2460  -53.1380 O   0  0  0  0  0  0  0  0  0  0  0  0
  -10.4940   14.1000  -51.3070 O   0  0  0  0  0  0  0  0  0  0  0  0
  -10.1630   19.2160  -51.8790 O   0  0  0  0  0  0  0  0  0  0  0  0
  -10.9530   17.4960  -50.8260 O   0  0  0  0  0  0  0  0  0  0  0  0
   -6.5550   18.0920  -53.5270 O   0  0  0  0  0  0  0  0  0  0  0  0
   -8.7890   15.7160  -50.0330 N   0  0  0  0  0  0  0  0  0  0  0  0
   -7.5720   17.7410  -51.4800 N   0  0  0  0  0  0  0  0  0  0  0  0
   -7.5700   16.4200  -49.5110 C   0  0  0  0  0  0  0  0  0  0  0  0
   -7.4620   17.7940  -50.1010 C   0  0  0  0  0  0  0  0  0  0  0  0
    1.3610   20.7640  -49.7370 C   0  0  0  0  0  0  0  0  0  0  0  0
    0.6210   21.6260  -50.5440 C   0  0  0  0  0  0  0  0  0  0  0  0
    0.8340   19.5370  -49.3730 C   0  0  0  0  0  0  0  0  0  0  0  0
   -0.6490   21.2510  -50.9810 C   0  0  0  0  0  0  0  0  0  0  0  0
   -0.9520   17.9030  -49.4330 C   0  0  0  0  0  0  0  0  0  0  0  0
   -4.6040   19.9300  -52.2790 C   0  0  0  0  0  0  0  0  0  0  0  0
   -2.2110   17.4920  -49.8500 C   0  0  0  0  0  0  0  0  0  0  0  0
   -3.3450   20.3710  -51.8740 C   0  0  0  0  0  0  0  0  0  0  0  0
   -4.2620   17.8840  -51.0730 C   0  0  0  0  0  0  0  0  0  0  0  0
  -10.0090   15.0180  -52.0150 C   0  0  0  0  0  0  0  0  0  0  0  0
  -10.0430   18.0170  -51.5250 C   0  0  0  0  0  0  0  0  0  0  0  0
   -6.4280   18.1710  -52.3100 C   0  0  0  0  0  0  0  0  0  0  0  0
   -8.8390   15.7900  -51.5140 C   0  0  1  0  0  0  0  0  0  0  0  0
   -5.0700   18.6860  -51.8640 C   0  0  0  0  0  0  0  0  0  0  0  0
   -0.4460   19.1610  -49.8260 C   0  0  0  0  0  0  0  0  0  0  0  0
   -2.9870   18.3360  -50.6680 C   0  0  0  0  0  0  0  0  0  0  0  0
   -8.7990   17.2360  -51.9470 C   0  0  2  0  0  0  0  0  0  0  0  0
   -1.1960   19.9950  -50.6230 C   0  0  0  0  0  0  0  0  0  0  0  0
   -2.5150   19.5700  -51.0550 C   0  0  0  0  0  0  0  0  0  0  0  0
  -10.1649   15.9707  -53.7217 H   0  0  0  0  0  0  0  0  0  0  0  0
   -9.4515   19.6471  -52.4339 H   0  0  0  0  0  0  0  0  0  0  0  0
   -9.6067   16.1496  -49.6543 H   0  0  0  0  0  0  0  0  0  0  0  0
   -6.7561   15.8926  -49.7548 H   0  0  0  0  0  0  0  0  0  0  0  0
   -7.6338   16.4936  -48.5158 H   0  0  0  0  0  0  0  0  0  0  0  0
   -8.1945   18.3678  -49.7345 H   0  0  0  0  0  0  0  0  0  0  0  0
   -6.5760   18.1881  -49.8567 H   0  0  0  0  0  0  0  0  0  0  0  0
    2.2714   21.0315  -49.4214 H   0  0  0  0  0  0  0  0  0  0  0  0
    1.0003   22.5124  -50.8094 H   0  0  0  0  0  0  0  0  0  0  0  0
    1.3607   18.9187  -48.7897 H   0  0  0  0  0  0  0  0  0  0  0  0
   -1.1794   21.8761  -51.5536 H   0  0  0  0  0  0  0  0  0  0  0  0
   -0.4008   17.3048  -48.8513 H   0  0  0  0  0  0  0  0  0  0  0  0
   -5.1714   20.5067  -52.8668 H   0  0  0  0  0  0  0  0  0  0  0  0
   -2.5656   16.5997  -49.5705 H   0  0  0  0  0  0  0  0  0  0  0  0
   -3.0225   21.2707  -52.1681 H   0  0  0  0  0  0  0  0  0  0  0  0
   -4.5836   16.9811  -50.7879 H   0  0  0  0  0  0  0  0  0  0  0  0
   -8.0138   15.3477  -51.8654 H   0  0  0  0  0  0  0  0  0  0  0  0
   -8.7649   17.2471  -52.9464 H   0  0  0  0  0  0  0  0  0  0  0  0
  1 19  1  0  0  0  0
  2 19  2  0  0  0  0
  3 20  1  0  0  0  0
  4 20  2  0  0  0  0
  5 21  2  0  0  0  0
  6  8  1  0  0  0  0
  6 22  1  0  0  0  0
  7  9  1  0  0  0  0
  7 21  1  0  0  0  0
  7 26  1  0  0  0  0
  8  9  1  0  0  0  0
 10 11  2  0  0  0  0
 10 12  1  0  0  0  0
 11 13  1  0  0  0  0
 12 24  2  0  0  0  0
 13 27  2  0  0  0  0
 14 16  2  0  0  0  0
 14 24  1  0  0  0  0
 15 17  1  0  0  0  0
 15 23  2  0  0  0  0
 16 25  1  0  0  0  0
 17 28  2  0  0  0  0
 18 23  1  0  0  0  0
 18 25  2  0  0  0  0
 19 22  1  0  0  0  0
 20 26  1  0  0  0  0
 21 23  1  0  0  0  0
 22 26  1  0  0  0  0
 24 27  1  0  0  0  0
 25 28  1  0  0  0  0
 27 28  1  0  0  0  0
  1 29  1  0  0  0  0
  3 30  1  0  0  0  0
  6 31  1  0  0  0  0
  8 32  1  0  0  0  0
  8 33  1  0  0  0  0
  9 34  1  0  0  0  0
  9 35  1  0  0  0  0
 10 36  1  0  0  0  0
 11 37  1  0  0  0  0
 12 38  1  0  0  0  0
 13 39  1  0  0  0  0
 14 40  1  0  0  0  0
 15 41  1  0  0  0  0
 16 42  1  0  0  0  0
 17 43  1  0  0  0  0
 18 44  1  0  0  0  0
 22 45  1  0  0  0  0
 26 46  1  0  0  0  0
M  END
> <pdb_id>
4NF6

> <uniprot_id>
Q00959

> <usmiles>
O=C(N1[C@H](C(=O)O)[C@@H](NCC1)C(=O)O)c2cc3c(c4c(cc3)cccc4)cc2

$$$$
2KR_B_820
          07192416573D 1   1.00000     0.00000     0
            
 42 45  0  0  0  0            999 V2000
   16.9107   -1.7572   21.2914 O   0  0  0  0  0  0  0  0  0  0  0  0
   19.6177   -3.3744   17.4819 N   0  0  0  0  0  0  0  0  0  0  0  0
   24.1644   -4.4555   22.9152 N   0  0  0  0  0  0  0  0  0  0  0  0
   16.7560   -1.7558   18.8159 N   0  0  0  0  0  0  0  0  0  0  0  0
   21.8813   -5.0073   23.5118 N   0  0  0  0  0  0  0  0  0  0  0  0
   18.5654   -2.7039   19.6624 N   0  0  0  0  0  0  0  0  0  0  0  0
   15.6010   -1.1223   21.3609 C   0  0  0  0  0  0  0  0  0  0  0  0
   27.5069   -5.0205   24.7124 C   0  0  0  0  0  0  0  0  0  0  0  0
   19.4906   -3.3432   16.1584 C   0  0  0  0  0  0  0  0  0  0  0  0
   25.4868   -4.4477   23.1909 C   0  0  0  0  0  0  0  0  0  0  0  0
   18.3892   -2.7471   15.5436 C   0  0  0  0  0  0  0  0  0  0  0  0
   23.7514   -5.5759   24.9854 C   0  0  0  0  0  0  0  0  0  0  0  0
   17.3986   -2.1686   16.3816 C   0  0  0  0  0  0  0  0  0  0  0  0
   21.6096   -3.3402   21.6441 C   0  0  0  0  0  0  0  0  0  0  0  0
   19.7902   -4.7526   22.3501 C   0  0  0  0  0  0  0  0  0  0  0  0
   20.7755   -2.7626   20.6855 C   0  0  0  0  0  0  0  0  0  0  0  0
   18.9778   -4.1887   21.4062 C   0  0  0  0  0  0  0  0  0  0  0  0
   25.1071   -5.5918   25.3029 C   0  0  0  0  0  0  0  0  0  0  0  0
   17.3866   -2.0628   19.9583 C   0  0  0  0  0  0  0  0  0  0  0  0
   23.2994   -4.9849   23.7612 C   0  0  0  0  0  0  0  0  0  0  0  0
   18.6529   -2.8168   18.3002 C   0  0  0  0  0  0  0  0  0  0  0  0
   21.1250   -4.3357   22.4755 C   0  0  0  0  0  0  0  0  0  0  0  0
   17.5349   -2.2134   17.7579 C   0  0  0  0  0  0  0  0  0  0  0  0
   19.4509   -3.1999   20.5706 C   0  0  0  0  0  0  0  0  0  0  0  0
   25.9754   -5.0241   24.4036 C   0  0  0  0  0  0  0  0  0  0  0  0
   21.3429   -5.5652   24.1433 H   0  0  0  0  0  0  0  0  0  0  0  0
   15.3630   -0.9529   22.3173 H   0  0  0  0  0  0  0  0  0  0  0  0
   15.6245   -0.2546   20.8645 H   0  0  0  0  0  0  0  0  0  0  0  0
   14.9167   -1.7238   20.9486 H   0  0  0  0  0  0  0  0  0  0  0  0
   27.6700   -5.4607   25.5953 H   0  0  0  0  0  0  0  0  0  0  0  0
   27.9926   -5.5208   23.9956 H   0  0  0  0  0  0  0  0  0  0  0  0
   27.8383   -4.0775   24.7438 H   0  0  0  0  0  0  0  0  0  0  0  0
   20.2018   -3.7570   15.5901 H   0  0  0  0  0  0  0  0  0  0  0  0
   26.1275   -4.0361   22.5426 H   0  0  0  0  0  0  0  0  0  0  0  0
   18.3001   -2.7278   14.5477 H   0  0  0  0  0  0  0  0  0  0  0  0
   23.0888   -5.9798   25.6162 H   0  0  0  0  0  0  0  0  0  0  0  0
   16.5989   -1.7268   15.9749 H   0  0  0  0  0  0  0  0  0  0  0  0
   22.5579   -3.0347   21.7305 H   0  0  0  0  0  0  0  0  0  0  0  0
   19.4323   -5.4651   22.9536 H   0  0  0  0  0  0  0  0  0  0  0  0
   21.1218   -2.0417   20.0852 H   0  0  0  0  0  0  0  0  0  0  0  0
   18.0303   -4.4969   21.3211 H   0  0  0  0  0  0  0  0  0  0  0  0
   25.4358   -6.0013   26.1539 H   0  0  0  0  0  0  0  0  0  0  0  0
  1  7  1  0  0  0  0
  1 19  1  0  0  0  0
  2  9  2  0  0  0  0
  2 21  1  0  0  0  0
  3 10  2  0  0  0  0
  3 20  1  0  0  0  0
  4 19  2  0  0  0  0
  4 23  1  0  0  0  0
  5 20  1  0  0  0  0
  5 22  1  0  0  0  0
  6 19  1  0  0  0  0
  6 21  1  0  0  0  0
  6 24  1  0  0  0  0
  8 25  1  0  0  0  0
  9 11  1  0  0  0  0
 10 25  1  0  0  0  0
 11 13  2  0  0  0  0
 12 18  1  0  0  0  0
 12 20  2  0  0  0  0
 13 23  1  0  0  0  0
 14 16  1  0  0  0  0
 14 22  2  0  0  0  0
 15 17  2  0  0  0  0
 15 22  1  0  0  0  0
 16 24  2  0  0  0  0
 17 24  1  0  0  0  0
 18 25  2  0  0  0  0
 21 23  2  0  0  0  0
  5 26  1  0  0  0  0
  7 27  1  0  0  0  0
  7 28  1  0  0  0  0
  7 29  1  0  0  0  0
  8 30  1  0  0  0  0
  8 31  1  0  0  0  0
  8 32  1  0  0  0  0
  9 33  1  0  0  0  0
 10 34  1  0  0  0  0
 11 35  1  0  0  0  0
 12 36  1  0  0  0  0
 13 37  1  0  0  0  0
 14 38  1  0  0  0  0
 15 39  1  0  0  0  0
 16 40  1  0  0  0  0
 17 41  1  0  0  0  0
 18 42  1  0  0  0  0
M  END
> <pdb_id>
4P1R

> <uniprot_id>
Q9Y233

> <usmiles>
O(C1=Nc2c(nccc2)N1c3ccc(Nc4ncc(cc4)C)cc3)C

$$$$
2KV_B_810
          07212402213D 1   1.00000     0.00000     0
            
 47 49  0  0  0  0            999 V2000
   34.7837   46.9332   35.2099 Cl  0  0  0  0  0  0  0  0  0  0  0  0
   43.7669   50.4346   38.8928 O   0  0  0  0  0  0  0  0  0  0  0  0
   37.6917   51.5500   34.2629 N   0  0  0  0  0  0  0  0  0  0  0  0
   42.8827   51.0829   36.9088 N   0  0  0  0  0  0  0  0  0  0  0  0
   43.1252   51.6454   35.5666 C   0  0  0  0  0  0  0  0  0  0  0  0
   38.8209   50.7789   34.8081 C   0  0  0  0  0  0  0  0  0  0  0  0
   44.4998   52.3346   35.3730 C   0  0  0  0  0  0  0  0  0  0  0  0
   45.5954   51.4177   35.9575 C   0  0  0  0  0  0  0  0  0  0  0  0
   34.8734   50.3656   37.3278 C   0  0  0  0  0  0  0  0  0  0  0  0
   45.3380   51.3293   37.4760 C   0  0  0  0  0  0  0  0  0  0  0  0
   34.3695   49.1943   36.7557 C   0  0  0  0  0  0  0  0  0  0  0  0
   36.2061   50.7587   37.1685 C   0  0  0  0  0  0  0  0  0  0  0  0
   40.5793   51.8984   37.2204 C   0  0  0  0  0  0  0  0  0  0  0  0
   41.0749   49.3197   36.6648 C   0  0  0  0  0  0  0  0  0  0  0  0
   36.5932   48.7931   35.8734 C   0  0  0  0  0  0  0  0  0  0  0  0
   39.0677   51.5454   37.1968 C   0  0  0  0  0  0  0  0  0  0  0  0
   39.5236   49.1019   36.7312 C   0  0  0  0  0  0  0  0  0  0  0  0
   43.9125   50.9227   37.7910 C   0  0  0  0  0  0  0  0  0  0  0  0
   35.2618   48.4232   35.9953 C   0  0  0  0  0  0  0  0  0  0  0  0
   41.5351   50.6735   37.3171 C   0  0  0  0  0  0  0  0  0  0  0  0
   37.1232   49.9587   36.4542 C   0  0  0  0  0  0  0  0  0  0  0  0
   38.6341   50.3404   36.2939 C   0  0  0  0  0  0  0  0  0  0  0  0
   37.8829   51.7941   33.3122 H   0  0  0  0  0  0  0  0  0  0  0  0
   36.8596   50.9969   34.3042 H   0  0  0  0  0  0  0  0  0  0  0  0
   42.4122   52.3219   35.3822 H   0  0  0  0  0  0  0  0  0  0  0  0
   43.0575   50.9003   34.9030 H   0  0  0  0  0  0  0  0  0  0  0  0
   39.6445   51.3430   34.7482 H   0  0  0  0  0  0  0  0  0  0  0  0
   38.9385   49.9572   34.2505 H   0  0  0  0  0  0  0  0  0  0  0  0
   44.5063   53.2137   35.8496 H   0  0  0  0  0  0  0  0  0  0  0  0
   44.6685   52.4825   34.3985 H   0  0  0  0  0  0  0  0  0  0  0  0
   46.4997   51.8075   35.7836 H   0  0  0  0  0  0  0  0  0  0  0  0
   45.5395   50.5083   35.5452 H   0  0  0  0  0  0  0  0  0  0  0  0
   34.2608   50.9417   37.8690 H   0  0  0  0  0  0  0  0  0  0  0  0
   45.5160   52.2241   37.8856 H   0  0  0  0  0  0  0  0  0  0  0  0
   45.9605   50.6528   37.8695 H   0  0  0  0  0  0  0  0  0  0  0  0
   33.4167   48.9184   36.8824 H   0  0  0  0  0  0  0  0  0  0  0  0
   36.5145   51.6221   37.5679 H   0  0  0  0  0  0  0  0  0  0  0  0
   40.7486   52.4881   38.0101 H   0  0  0  0  0  0  0  0  0  0  0  0
   40.7955   52.3960   36.3803 H   0  0  0  0  0  0  0  0  0  0  0  0
   41.3560   49.3169   35.7051 H   0  0  0  0  0  0  0  0  0  0  0  0
   41.5231   48.5660   37.1456 H   0  0  0  0  0  0  0  0  0  0  0  0
   37.2052   48.2026   35.3473 H   0  0  0  0  0  0  0  0  0  0  0  0
   38.5736   52.3544   36.8783 H   0  0  0  0  0  0  0  0  0  0  0  0
   38.7923   51.3343   38.1347 H   0  0  0  0  0  0  0  0  0  0  0  0
   39.2861   48.8714   37.6748 H   0  0  0  0  0  0  0  0  0  0  0  0
   39.2956   48.3337   36.1329 H   0  0  0  0  0  0  0  0  0  0  0  0
   41.6085   50.4784   38.2951 H   0  0  0  0  0  0  0  0  0  0  0  0
  1 19  1  0  0  0  0
  2 18  2  0  0  0  0
  3  6  1  0  0  0  0
  4  5  1  0  0  0  0
  4 18  1  0  0  0  0
  4 20  1  0  0  0  0
  5  7  1  0  0  0  0
  6 22  1  0  0  0  0
  7  8  1  0  0  0  0
  8 10  1  0  0  0  0
  9 11  2  0  0  0  0
  9 12  1  0  0  0  0
 10 18  1  0  0  0  0
 11 19  1  0  0  0  0
 12 21  2  0  0  0  0
 13 16  1  0  0  0  0
 13 20  1  0  0  0  0
 14 17  1  0  0  0  0
 14 20  1  0  0  0  0
 15 19  2  0  0  0  0
 15 21  1  0  0  0  0
 16 22  1  0  0  0  0
 17 22  1  0  0  0  0
 21 22  1  0  0  0  0
  3 23  1  0  0  0  0
  3 24  1  0  0  0  0
  5 25  1  0  0  0  0
  5 26  1  0  0  0  0
  6 27  1  0  0  0  0
  6 28  1  0  0  0  0
  7 29  1  0  0  0  0
  7 30  1  0  0  0  0
  8 31  1  0  0  0  0
  8 32  1  0  0  0  0
  9 33  1  0  0  0  0
 10 34  1  0  0  0  0
 10 35  1  0  0  0  0
 11 36  1  0  0  0  0
 12 37  1  0  0  0  0
 13 38  1  0  0  0  0
 13 39  1  0  0  0  0
 14 40  1  0  0  0  0
 14 41  1  0  0  0  0
 15 42  1  0  0  0  0
 16 43  1  0  0  0  0
 16 44  1  0  0  0  0
 17 45  1  0  0  0  0
 17 46  1  0  0  0  0
 20 47  1  0  0  0  0
M  END
> <pdb_id>
4N8E

> <uniprot_id>
P27487

> <usmiles>
Clc1cc(ccc1)C2(CN)CCC(N3C(=O)CCCC3)CC2

$$$$
2LK_A_1201
          07192420223D 1   1.00000     0.00000     0
            
 40 43  0  0  0  0            999 V2000
   14.8920    8.7816    4.7180 Cl  0  0  0  0  0  0  0  0  0  0  0  0
    6.0429   14.8111    8.9802 O   0  0  0  0  0  0  0  0  0  0  0  0
    5.6820   13.4949    8.7894 N   0  0  0  0  0  0  0  0  0  0  0  0
   11.3923   10.9005   11.5499 N   0  0  0  0  0  0  0  0  0  0  0  0
   13.0138   11.7131   10.3443 N   0  0  0  0  0  0  0  0  0  0  0  0
    8.1433   16.1236    9.5957 C   0  0  0  0  0  0  0  0  0  0  0  0
    6.7695   11.1994    8.8613 C   0  0  0  0  0  0  0  0  0  0  0  0
   12.7144   10.8761   11.3304 C   0  0  0  0  0  0  0  0  0  0  0  0
   14.3790   11.9858    9.7327 C   0  0  0  0  0  0  0  0  0  0  0  0
   14.8000    9.0783    7.3980 C   0  0  0  0  0  0  0  0  0  0  0  0
   14.6020   11.0852    6.0945 C   0  0  0  0  0  0  0  0  0  0  0  0
   11.5771   13.2201    9.0195 C   0  0  0  0  0  0  0  0  0  0  0  0
   14.6471    9.7856    8.5958 C   0  0  0  0  0  0  0  0  0  0  0  0
   14.5115   11.7775    7.2837 C   0  0  0  0  0  0  0  0  0  0  0  0
   10.2436   13.6197    8.8136 C   0  0  0  0  0  0  0  0  0  0  0  0
    9.5315   12.1484   10.5264 C   0  0  0  0  0  0  0  0  0  0  0  0
   14.7346    9.7171    6.1705 C   0  0  0  0  0  0  0  0  0  0  0  0
    7.3974   14.8178    9.2984 C   0  0  0  0  0  0  0  0  0  0  0  0
    6.7876   12.7376    8.9950 C   0  0  0  0  0  0  0  0  0  0  0  0
   10.8420   11.7975   10.7109 C   0  0  0  0  0  0  0  0  0  0  0  0
   11.8392   12.2775    9.9284 C   0  0  0  0  0  0  0  0  0  0  0  0
   14.5063   11.1834    8.5283 C   0  0  0  0  0  0  0  0  0  0  0  0
    9.1830   13.1082    9.5662 C   0  0  0  0  0  0  0  0  0  0  0  0
    7.8603   13.5306    9.3185 C   0  0  0  0  0  0  0  0  0  0  0  0
    9.1008   15.9212    9.8012 H   0  0  0  0  0  0  0  0  0  0  0  0
    8.0935   16.7250    8.7983 H   0  0  0  0  0  0  0  0  0  0  0  0
    7.7222   16.5765   10.3816 H   0  0  0  0  0  0  0  0  0  0  0  0
    7.6818   10.8374    9.0531 H   0  0  0  0  0  0  0  0  0  0  0  0
    6.1150   10.8158    9.5128 H   0  0  0  0  0  0  0  0  0  0  0  0
    6.5002   10.9488    7.9315 H   0  0  0  0  0  0  0  0  0  0  0  0
   13.3730   10.3147   11.8315 H   0  0  0  0  0  0  0  0  0  0  0  0
   15.0969   11.7366   10.3828 H   0  0  0  0  0  0  0  0  0  0  0  0
   14.4593   12.9558    9.5031 H   0  0  0  0  0  0  0  0  0  0  0  0
   14.9597    8.0916    7.4288 H   0  0  0  0  0  0  0  0  0  0  0  0
   14.5726   11.5574    5.2135 H   0  0  0  0  0  0  0  0  0  0  0  0
   12.3182   13.6362    8.4925 H   0  0  0  0  0  0  0  0  0  0  0  0
   14.6381    9.3103    9.4756 H   0  0  0  0  0  0  0  0  0  0  0  0
   14.4452   12.7744    7.2409 H   0  0  0  0  0  0  0  0  0  0  0  0
   10.0477   14.2949    8.1024 H   0  0  0  0  0  0  0  0  0  0  0  0
    8.8188   11.7174   11.0799 H   0  0  0  0  0  0  0  0  0  0  0  0
  1 17  1  0  0  0  0
  2  3  1  0  0  0  0
  2 18  1  0  0  0  0
  3 19  2  0  0  0  0
  4  8  2  0  0  0  0
  4 20  1  0  0  0  0
  5  8  1  0  0  0  0
  5  9  1  0  0  0  0
  5 21  1  0  0  0  0
  6 18  1  0  0  0  0
  7 19  1  0  0  0  0
  9 22  1  0  0  0  0
 10 13  2  0  0  0  0
 10 17  1  0  0  0  0
 11 14  1  0  0  0  0
 11 17  2  0  0  0  0
 12 15  1  0  0  0  0
 12 21  2  0  0  0  0
 13 22  1  0  0  0  0
 14 22  2  0  0  0  0
 15 23  2  0  0  0  0
 16 20  2  0  0  0  0
 16 23  1  0  0  0  0
 18 24  2  0  0  0  0
 19 24  1  0  0  0  0
 20 21  1  0  0  0  0
 23 24  1  0  0  0  0
  6 25  1  0  0  0  0
  6 26  1  0  0  0  0
  6 27  1  0  0  0  0
  7 28  1  0  0  0  0
  7 29  1  0  0  0  0
  7 30  1  0  0  0  0
  8 31  1  0  0  0  0
  9 32  1  0  0  0  0
  9 33  1  0  0  0  0
 10 34  1  0  0  0  0
 11 35  1  0  0  0  0
 12 36  1  0  0  0  0
 13 37  1  0  0  0  0
 14 38  1  0  0  0  0
 15 39  1  0  0  0  0
 16 40  1  0  0  0  0
M  END
> <pdb_id>
4NR4

> <uniprot_id>
Q92793

> <usmiles>
Clc1ccc(cc1)CN2c3c(N=C2)cc(cc3)C4=C(ON=C4C)C

$$$$
2LP_B_202
          07202414543D 1   1.00000     0.00000     0
            
 22 22  0  0  0  0            999 V2000
   27.8328   23.6587   -1.4018 O   0  0  0  0  0  0  0  0  0  0  0  0
   28.4290   23.3274    2.1841 C   0  0  0  0  0  0  0  0  0  0  0  0
   29.6916   23.5891    1.4758 C   0  0  0  0  0  0  0  0  0  0  0  0
   26.1074   26.8790   -0.8768 C   0  0  0  0  0  0  0  0  0  0  0  0
   26.9629   27.4668    0.0409 C   0  0  0  0  0  0  0  0  0  0  0  0
   29.6095   24.8183    0.5551 C   0  0  0  0  0  0  0  0  0  0  0  0
   26.4641   25.5924   -1.3815 C   0  0  0  0  0  0  0  0  0  0  0  0
   28.1026   26.7876    0.4404 C   0  0  0  0  0  0  0  0  0  0  0  0
   27.6102   24.9191   -0.9322 C   0  0  0  0  0  0  0  0  0  0  0  0
   28.4184   25.4633    0.0687 C   0  0  0  0  0  0  0  0  0  0  0  0
   28.6397   23.1491   -1.1031 H   0  0  0  0  0  0  0  0  0  0  0  0
   28.5346   22.5216    2.7669 H   0  0  0  0  0  0  0  0  0  0  0  0
   28.1933   24.1184    2.7486 H   0  0  0  0  0  0  0  0  0  0  0  0
   27.7010   23.1641    1.5183 H   0  0  0  0  0  0  0  0  0  0  0  0
   29.9199   22.7886    0.9217 H   0  0  0  0  0  0  0  0  0  0  0  0
   30.4121   23.7430    2.1520 H   0  0  0  0  0  0  0  0  0  0  0  0
   25.2709   27.3391   -1.1745 H   0  0  0  0  0  0  0  0  0  0  0  0
   26.7596   28.3731    0.4116 H   0  0  0  0  0  0  0  0  0  0  0  0
   30.1141   24.5569   -0.2677 H   0  0  0  0  0  0  0  0  0  0  0  0
   30.1104   25.5357    1.0394 H   0  0  0  0  0  0  0  0  0  0  0  0
   25.8834   25.1606   -2.0717 H   0  0  0  0  0  0  0  0  0  0  0  0
   28.7468   27.2699    1.0340 H   0  0  0  0  0  0  0  0  0  0  0  0
  1  9  1  0  0  0  0
  2  3  1  0  0  0  0
  3  6  1  0  0  0  0
  4  5  2  0  0  0  0
  4  7  1  0  0  0  0
  5  8  1  0  0  0  0
  6 10  1  0  0  0  0
  7  9  2  0  0  0  0
  8 10  2  0  0  0  0
  9 10  1  0  0  0  0
  1 11  1  0  0  0  0
  2 12  1  0  0  0  0
  2 13  1  0  0  0  0
  2 14  1  0  0  0  0
  3 15  1  0  0  0  0
  3 16  1  0  0  0  0
  4 17  1  0  0  0  0
  5 18  1  0  0  0  0
  6 19  1  0  0  0  0
  6 20  1  0  0  0  0
  7 21  1  0  0  0  0
  8 22  1  0  0  0  0
M  END
> <pdb_id>
4I7M

> <uniprot_id>
P00720

> <usmiles>
Oc1c(cccc1)CCC

$$$$
2LW_A_2006
          07192415263D 1   1.00000     0.00000     0
            
 30 32  0  0  0  0            999 V2000
   72.8947   35.2691   -0.3544 Cl  0  0  0  0  0  0  0  0  0  0  0  0
   64.7631   39.8584   -1.2724 O   0  0  0  0  0  0  0  0  0  0  0  0
   70.5285   40.2844   -1.9793 N   0  0  0  0  0  0  0  0  0  0  0  0
   66.8830   39.5620   -0.5653 N   0  0  0  0  0  0  0  0  0  0  0  0
   65.5524   37.6056   -0.9136 C   0  0  0  0  0  0  0  0  0  0  0  0
   67.1413   40.9791   -0.5306 C   0  0  0  0  0  0  0  0  0  0  0  0
   68.0350   38.6152   -0.1467 C   0  0  0  0  0  0  0  0  0  0  0  0
   68.2471   41.2487   -1.5611 C   0  0  0  0  0  0  0  0  0  0  0  0
   73.0260   37.6165   -1.6348 C   0  0  0  0  0  0  0  0  0  0  0  0
   72.4813   38.8439   -2.0472 C   0  0  0  0  0  0  0  0  0  0  0  0
   70.8984   37.1543   -0.5563 C   0  0  0  0  0  0  0  0  0  0  0  0
   65.7515   39.1706   -1.0532 C   0  0  0  0  0  0  0  0  0  0  0  0
   72.2167   36.7601   -0.8658 C   0  0  0  0  0  0  0  0  0  0  0  0
   69.2945   40.2310   -1.4519 C   0  0  0  0  0  0  0  0  0  0  0  0
   71.2164   39.1716   -1.7006 C   0  0  0  0  0  0  0  0  0  0  0  0
   69.2218   38.9989   -0.7893 C   0  0  0  0  0  0  0  0  0  0  0  0
   70.4114   38.3432   -0.9519 C   0  0  0  0  0  0  0  0  0  0  0  0
   70.8854   41.0534   -2.5096 H   0  0  0  0  0  0  0  0  0  0  0  0
   66.4358   37.1716   -0.7371 H   0  0  0  0  0  0  0  0  0  0  0  0
   64.9299   37.4152   -0.1544 H   0  0  0  0  0  0  0  0  0  0  0  0
   65.1656   37.2419   -1.7610 H   0  0  0  0  0  0  0  0  0  0  0  0
   67.4460   41.2521    0.3819 H   0  0  0  0  0  0  0  0  0  0  0  0
   66.3140   41.4866   -0.7715 H   0  0  0  0  0  0  0  0  0  0  0  0
   67.8049   37.6773   -0.4063 H   0  0  0  0  0  0  0  0  0  0  0  0
   68.1626   38.6651    0.8439 H   0  0  0  0  0  0  0  0  0  0  0  0
   68.6437   42.1511   -1.3924 H   0  0  0  0  0  0  0  0  0  0  0  0
   67.8556   41.2233   -2.4809 H   0  0  0  0  0  0  0  0  0  0  0  0
   73.9606   37.3592   -1.8802 H   0  0  0  0  0  0  0  0  0  0  0  0
   73.0288   39.4748   -2.5969 H   0  0  0  0  0  0  0  0  0  0  0  0
   70.3134   36.5362   -0.0313 H   0  0  0  0  0  0  0  0  0  0  0  0
  1 13  1  0  0  0  0
  2 12  2  0  0  0  0
  3 14  1  0  0  0  0
  3 15  1  0  0  0  0
  4  6  1  0  0  0  0
  4  7  1  0  0  0  0
  4 12  1  0  0  0  0
  5 12  1  0  0  0  0
  6  8  1  0  0  0  0
  7 16  1  0  0  0  0
  8 14  1  0  0  0  0
  9 10  1  0  0  0  0
  9 13  2  0  0  0  0
 10 15  2  0  0  0  0
 11 13  1  0  0  0  0
 11 17  2  0  0  0  0
 14 16  2  0  0  0  0
 15 17  1  0  0  0  0
 16 17  1  0  0  0  0
  3 18  1  0  0  0  0
  5 19  1  0  0  0  0
  5 20  1  0  0  0  0
  5 21  1  0  0  0  0
  6 22  1  0  0  0  0
  6 23  1  0  0  0  0
  7 24  1  0  0  0  0
  7 25  1  0  0  0  0
  8 26  1  0  0  0  0
  8 27  1  0  0  0  0
  9 28  1  0  0  0  0
 10 29  1  0  0  0  0
 11 30  1  0  0  0  0
M  END
> <pdb_id>
4NRA

> <uniprot_id>
Q9UIF8

> <usmiles>
Clc1cc2c(NC3=C2CN(C(=O)C)CC3)cc1

$$$$
2LY_A_2001
          07192415263D 1   1.00000     0.00000     0
            
 22 23  0  0  0  0            999 V2000
   67.0088   41.7031   -0.9957 S   0  0  0  0  0  0  0  0  0  0  0  0
   64.8645   39.6890   -1.2615 O   0  0  0  0  0  0  0  0  0  0  0  0
   70.7320   40.5656   -0.5950 O   0  0  0  0  0  0  0  0  0  0  0  0
   68.9684   38.2304   -0.7838 O   0  0  0  0  0  0  0  0  0  0  0  0
   66.1723   37.7293   -0.9346 N   0  0  0  0  0  0  0  0  0  0  0  0
   64.9927   36.8997   -1.0021 C   0  0  0  0  0  0  0  0  0  0  0  0
   68.5963   42.0196   -0.8405 C   0  0  0  0  0  0  0  0  0  0  0  0
   71.2433   39.2880   -0.4732 C   0  0  0  0  0  0  0  0  0  0  0  0
   70.4102   38.0993   -0.9568 C   0  0  0  0  0  0  0  0  0  0  0  0
   65.9604   39.1715   -1.0947 C   0  0  0  0  0  0  0  0  0  0  0  0
   67.1066   40.0779   -0.9964 C   0  0  0  0  0  0  0  0  0  0  0  0
   69.3813   40.7336   -0.7372 C   0  0  0  0  0  0  0  0  0  0  0  0
   68.4952   39.6067   -0.8215 C   0  0  0  0  0  0  0  0  0  0  0  0
   67.0825   37.3424   -0.7870 H   0  0  0  0  0  0  0  0  0  0  0  0
   65.2518   35.9415   -0.8812 H   0  0  0  0  0  0  0  0  0  0  0  0
   64.3557   37.1666   -0.2789 H   0  0  0  0  0  0  0  0  0  0  0  0
   64.5536   37.0164   -1.8929 H   0  0  0  0  0  0  0  0  0  0  0  0
   68.9961   42.9359   -0.8168 H   0  0  0  0  0  0  0  0  0  0  0  0
   71.4278   39.1389    0.4983 H   0  0  0  0  0  0  0  0  0  0  0  0
   72.1035   39.2681   -0.9828 H   0  0  0  0  0  0  0  0  0  0  0  0
   70.5930   37.9715   -1.9317 H   0  0  0  0  0  0  0  0  0  0  0  0
   70.7084   37.2888   -0.4527 H   0  0  0  0  0  0  0  0  0  0  0  0
  1  7  1  0  0  0  0
  1 11  1  0  0  0  0
  2 10  2  0  0  0  0
  3  8  1  0  0  0  0
  3 12  1  0  0  0  0
  4  9  1  0  0  0  0
  4 13  1  0  0  0  0
  5  6  1  0  0  0  0
  5 10  1  0  0  0  0
  7 12  2  0  0  0  0
  8  9  1  0  0  0  0
 10 11  1  0  0  0  0
 11 13  2  0  0  0  0
 12 13  1  0  0  0  0
  5 14  1  0  0  0  0
  6 15  1  0  0  0  0
  6 16  1  0  0  0  0
  6 17  1  0  0  0  0
  7 18  1  0  0  0  0
  8 19  1  0  0  0  0
  8 20  1  0  0  0  0
  9 21  1  0  0  0  0
  9 22  1  0  0  0  0
M  END
> <pdb_id>
4NRC

> <uniprot_id>
Q9UIF8

> <usmiles>
S1C(C(=O)NC)=C2OCCOC2=C1

$$$$
2M7_B_505
          07192418093D 1   1.00000     0.00000     0
            
 31 32  0  0  0  0            999 V2000
  -24.2552    3.8909   29.1907 O   0  0  0  0  0  0  0  0  0  0  0  0
  -24.4639    0.9899   29.4557 O   0  0  0  0  0  0  0  0  0  0  0  0
  -26.4987    3.2649   27.5535 N   0  0  0  0  0  0  0  0  0  0  0  0
  -24.8163    4.9923   26.7675 C   0  0  0  0  0  0  0  0  0  0  0  0
  -30.9805   -2.1457   26.0990 C   0  0  0  0  0  0  0  0  0  0  0  0
  -30.2387   -1.2998   25.2554 C   0  0  0  0  0  0  0  0  0  0  0  0
  -30.7941   -2.1351   27.4880 C   0  0  0  0  0  0  0  0  0  0  0  0
  -29.2995   -0.4398   25.8310 C   0  0  0  0  0  0  0  0  0  0  0  0
  -29.8479   -1.2771   28.0472 C   0  0  0  0  0  0  0  0  0  0  0  0
  -27.3095    1.2973   28.1429 C   0  0  0  0  0  0  0  0  0  0  0  0
  -28.0002    0.5431   27.7602 C   0  0  0  0  0  0  0  0  0  0  0  0
  -25.1326    3.5048   26.9950 C   0  0  1  0  0  0  0  0  0  0  0  0
  -26.3545    2.1454   28.5843 C   0  0  1  0  0  0  0  0  0  0  0  0
  -24.2180    2.9275   28.0632 C   0  0  2  0  0  0  0  0  0  0  0  0
  -25.0002    1.6554   28.3151 C   0  0  1  0  0  0  0  0  0  0  0  0
  -29.1039   -0.4138   27.2352 C   0  0  0  0  0  0  0  0  0  0  0  0
  -23.6673    3.5620   29.9297 H   0  0  0  0  0  0  0  0  0  0  0  0
  -23.5412    0.6649   29.2487 H   0  0  0  0  0  0  0  0  0  0  0  0
  -27.1255    2.9861   26.8260 H   0  0  0  0  0  0  0  0  0  0  0  0
  -23.8928    5.0835   26.3948 H   0  0  0  0  0  0  0  0  0  0  0  0
  -25.4757    5.3785   26.1225 H   0  0  0  0  0  0  0  0  0  0  0  0
  -24.8746    5.4823   27.6373 H   0  0  0  0  0  0  0  0  0  0  0  0
  -31.6545   -2.7672   25.6998 H   0  0  0  0  0  0  0  0  0  0  0  0
  -30.3801   -1.3133   24.2655 H   0  0  0  0  0  0  0  0  0  0  0  0
  -31.3356   -2.7384   28.0736 H   0  0  0  0  0  0  0  0  0  0  0  0
  -28.7590    0.1645   25.2457 H   0  0  0  0  0  0  0  0  0  0  0  0
  -29.6999   -1.2786   29.0362 H   0  0  0  0  0  0  0  0  0  0  0  0
  -25.0203    2.9981   26.1402 H   0  0  0  0  0  0  0  0  0  0  0  0
  -26.4915    2.4483   29.5275 H   0  0  0  0  0  0  0  0  0  0  0  0
  -23.2912    2.7546   27.7297 H   0  0  0  0  0  0  0  0  0  0  0  0
  -24.9865    1.0599   27.5119 H   0  0  0  0  0  0  0  0  0  0  0  0
  1 14  1  0  0  0  0
  2 15  1  0  0  0  0
  3 12  1  0  0  0  0
  3 13  1  0  0  0  0
  4 12  1  0  0  0  0
  5  6  2  0  0  0  0
  5  7  1  0  0  0  0
  6  8  1  0  0  0  0
  7  9  2  0  0  0  0
  8 16  2  0  0  0  0
  9 16  1  0  0  0  0
 10 11  3  0  0  0  0
 10 13  1  0  0  0  0
 11 16  1  0  0  0  0
 12 14  1  0  0  0  0
 13 15  1  0  0  0  0
 14 15  1  0  0  0  0
  1 17  1  0  0  0  0
  2 18  1  0  0  0  0
  3 19  1  0  0  0  0
  4 20  1  0  0  0  0
  4 21  1  0  0  0  0
  4 22  1  0  0  0  0
  5 23  1  0  0  0  0
  6 24  1  0  0  0  0
  7 25  1  0  0  0  0
  8 26  1  0  0  0  0
  9 27  1  0  0  0  0
 12 28  1  0  0  0  0
 13 29  1  0  0  0  0
 14 30  1  0  0  0  0
 15 31  1  0  0  0  0
M  END
> <pdb_id>
4PCS

> <uniprot_id>
Q8A3I4

> <usmiles>
O[C@H]1[C@@H](O)[C@@H](N[C@H]1C)C#Cc2ccccc2

$$$$
2MQ_A_400
          07202407253D 1   1.00000     0.00000     0
            
 35 37  0  0  0  0            999 V2000
  103.5170   16.8492   23.9702 O   0  0  0  0  0  0  0  0  0  0  0  0
   98.5326   13.9023   17.8906 N   0  0  0  0  0  0  0  0  0  0  0  0
   99.2452   15.4693   24.5850 N   0  0  0  0  0  0  0  0  0  0  0  0
  103.4066   17.3001   16.4490 N   0  0  0  0  0  0  0  0  0  0  0  0
  101.3901   16.1712   24.2886 N   0  0  0  0  0  0  0  0  0  0  0  0
  100.0717   15.6159   22.4958 N   0  0  0  0  0  0  0  0  0  0  0  0
  103.7459   17.1570   18.7187 N   0  0  0  0  0  0  0  0  0  0  0  0
  101.8167   16.5566   17.9745 N   0  0  0  0  0  0  0  0  0  0  0  0
  102.6644   17.1440   15.2217 C   0  0  0  0  0  0  0  0  0  0  0  0
   99.5519   14.0824   18.9418 C   0  0  0  0  0  0  0  0  0  0  0  0
   99.4159   15.5518   19.5155 C   0  0  0  0  0  0  0  0  0  0  0  0
  103.2998   16.7969   21.1479 C   0  0  0  0  0  0  0  0  0  0  0  0
  100.2423   15.7526   23.7748 C   0  0  0  0  0  0  0  0  0  0  0  0
  102.9633   17.0537   17.6688 C   0  0  0  0  0  0  0  0  0  0  0  0
  102.4081   16.5134   23.5216 C   0  0  0  0  0  0  0  0  0  0  0  0
  103.0355   16.7444   19.7808 C   0  0  0  0  0  0  0  0  0  0  0  0
  101.7565   16.4409   19.3212 C   0  0  0  0  0  0  0  0  0  0  0  0
  101.0280   15.9358   21.5520 C   0  0  0  0  0  0  0  0  0  0  0  0
  100.7534   15.9713   20.1754 C   0  0  0  0  0  0  0  0  0  0  0  0
  102.2543   16.4270   22.0149 C   0  0  0  0  0  0  0  0  0  0  0  0
   98.6016   12.9784   17.5142 H   0  0  0  0  0  0  0  0  0  0  0  0
   97.6223   14.0354   18.2826 H   0  0  0  0  0  0  0  0  0  0  0  0
   98.3729   15.1523   24.2126 H   0  0  0  0  0  0  0  0  0  0  0  0
   99.3596   15.5709   25.5732 H   0  0  0  0  0  0  0  0  0  0  0  0
  104.3483   17.6267   16.3685 H   0  0  0  0  0  0  0  0  0  0  0  0
  101.4871   16.2292   25.2822 H   0  0  0  0  0  0  0  0  0  0  0  0
  101.0963   16.3006   17.3299 H   0  0  0  0  0  0  0  0  0  0  0  0
  103.2426   17.4014   14.4474 H   0  0  0  0  0  0  0  0  0  0  0  0
  102.3802   16.1903   15.1230 H   0  0  0  0  0  0  0  0  0  0  0  0
  101.8559   17.7321   15.2439 H   0  0  0  0  0  0  0  0  0  0  0  0
  100.4646   13.9535   18.5540 H   0  0  0  0  0  0  0  0  0  0  0  0
   99.4040   13.4179   19.6743 H   0  0  0  0  0  0  0  0  0  0  0  0
   98.6847   15.5776   20.1972 H   0  0  0  0  0  0  0  0  0  0  0  0
   99.1991   16.1824   18.7702 H   0  0  0  0  0  0  0  0  0  0  0  0
  104.1917   17.0842   21.4972 H   0  0  0  0  0  0  0  0  0  0  0  0
  1 15  2  0  0  0  0
  2 10  1  0  0  0  0
  3 13  1  0  0  0  0
  4  9  1  0  0  0  0
  4 14  1  0  0  0  0
  5 13  1  0  0  0  0
  5 15  1  0  0  0  0
  6 13  2  0  0  0  0
  6 18  1  0  0  0  0
  7 14  2  0  0  0  0
  7 16  1  0  0  0  0
  8 14  1  0  0  0  0
  8 17  1  0  0  0  0
 10 11  1  0  0  0  0
 11 19  1  0  0  0  0
 12 16  1  0  0  0  0
 12 20  2  0  0  0  0
 15 20  1  0  0  0  0
 16 17  2  0  0  0  0
 17 19  1  0  0  0  0
 18 19  2  0  0  0  0
 18 20  1  0  0  0  0
  2 21  1  0  0  0  0
  2 22  1  0  0  0  0
  3 23  1  0  0  0  0
  3 24  1  0  0  0  0
  4 25  1  0  0  0  0
  5 26  1  0  0  0  0
  8 27  1  0  0  0  0
  9 28  1  0  0  0  0
  9 29  1  0  0  0  0
  9 30  1  0  0  0  0
 10 31  1  0  0  0  0
 10 32  1  0  0  0  0
 11 33  1  0  0  0  0
 11 34  1  0  0  0  0
 12 35  1  0  0  0  0
M  END
> <pdb_id>
3GC5

> <uniprot_id>
P28720

> <usmiles>
O=C1NC(=Nc2c(c3NC(=Nc3cc21)NC)CCN)N

$$$$
2N0_A_302
          07212401333D 1   1.00000     0.00000     0
            
 38 40  0  0  0  0            999 V2000
  -16.7389  -23.6311  -23.2437 O   0  0  0  0  0  0  0  0  0  0  0  0
  -13.9837  -22.6750  -19.7468 N   0  0  0  0  0  0  0  0  0  0  0  0
  -12.9759  -26.3360  -19.8106 C   0  0  0  0  0  0  0  0  0  0  0  0
  -13.3489  -21.9574  -18.6351 C   0  0  0  0  0  0  0  0  0  0  0  0
  -16.2719  -21.4853  -15.4875 C   0  0  0  0  0  0  0  0  0  0  0  0
  -15.9238  -22.7537  -15.9317 C   0  0  0  0  0  0  0  0  0  0  0  0
  -15.6743  -20.3678  -16.0595 C   0  0  0  0  0  0  0  0  0  0  0  0
  -15.5855  -20.3503  -22.0902 C   0  0  0  0  0  0  0  0  0  0  0  0
  -12.9555  -24.9325  -19.2474 C   0  0  0  0  0  0  0  0  0  0  0  0
  -16.6094  -21.3072  -22.7031 C   0  0  0  0  0  0  0  0  0  0  0  0
  -15.2642  -20.6797  -20.6384 C   0  0  0  0  0  0  0  0  0  0  0  0
  -14.9795  -22.8966  -16.9482 C   0  0  0  0  0  0  0  0  0  0  0  0
  -14.7287  -20.5076  -17.0735 C   0  0  0  0  0  0  0  0  0  0  0  0
  -14.6332  -24.2940  -21.1381 C   0  0  0  0  0  0  0  0  0  0  0  0
  -13.8444  -23.9854  -20.0304 C   0  0  0  0  0  0  0  0  0  0  0  0
  -16.2099  -22.7623  -22.5618 C   0  0  0  0  0  0  0  0  0  0  0  0
  -14.8269  -22.1181  -20.6143 C   0  0  0  0  0  0  0  0  0  0  0  0
  -14.3769  -21.7793  -17.5237 C   0  0  0  0  0  0  0  0  0  0  0  0
  -15.2346  -23.0993  -21.4963 C   0  0  0  0  0  0  0  0  0  0  0  0
  -12.3780  -26.9230  -19.2647 H   0  0  0  0  0  0  0  0  0  0  0  0
  -13.9096  -26.6929  -19.7824 H   0  0  0  0  0  0  0  0  0  0  0  0
  -12.6536  -26.3200  -20.7571 H   0  0  0  0  0  0  0  0  0  0  0  0
  -13.0325  -21.0621  -18.9485 H   0  0  0  0  0  0  0  0  0  0  0  0
  -12.5710  -22.4850  -18.2936 H   0  0  0  0  0  0  0  0  0  0  0  0
  -16.9490  -21.3760  -14.7598 H   0  0  0  0  0  0  0  0  0  0  0  0
  -16.3487  -23.5621  -15.5244 H   0  0  0  0  0  0  0  0  0  0  0  0
  -15.9257  -19.4542  -15.7400 H   0  0  0  0  0  0  0  0  0  0  0  0
  -15.9513  -19.4206  -22.1333 H   0  0  0  0  0  0  0  0  0  0  0  0
  -14.7412  -20.4013  -22.6237 H   0  0  0  0  0  0  0  0  0  0  0  0
  -12.0168  -24.5888  -19.2742 H   0  0  0  0  0  0  0  0  0  0  0  0
  -13.2728  -24.9617  -18.2995 H   0  0  0  0  0  0  0  0  0  0  0  0
  -16.7036  -21.0945  -23.6756 H   0  0  0  0  0  0  0  0  0  0  0  0
  -17.4881  -21.1711  -22.2455 H   0  0  0  0  0  0  0  0  0  0  0  0
  -16.0762  -20.5558  -20.0681 H   0  0  0  0  0  0  0  0  0  0  0  0
  -14.5292  -20.0895  -20.3046 H   0  0  0  0  0  0  0  0  0  0  0  0
  -14.7319  -23.8112  -17.2677 H   0  0  0  0  0  0  0  0  0  0  0  0
  -14.3035  -19.6977  -17.4773 H   0  0  0  0  0  0  0  0  0  0  0  0
  -14.7412  -25.1853  -21.5785 H   0  0  0  0  0  0  0  0  0  0  0  0
  1 16  2  0  0  0  0
  2  4  1  0  0  0  0
  2 15  1  0  0  0  0
  2 17  1  0  0  0  0
  3  9  1  0  0  0  0
  4 18  1  0  0  0  0
  5  6  2  0  0  0  0
  5  7  1  0  0  0  0
  6 12  1  0  0  0  0
  7 13  2  0  0  0  0
  8 10  1  0  0  0  0
  8 11  1  0  0  0  0
  9 15  1  0  0  0  0
 10 16  1  0  0  0  0
 11 17  1  0  0  0  0
 12 18  2  0  0  0  0
 13 18  1  0  0  0  0
 14 15  2  0  0  0  0
 14 19  1  0  0  0  0
 16 19  1  0  0  0  0
 17 19  2  0  0  0  0
  3 20  1  0  0  0  0
  3 21  1  0  0  0  0
  3 22  1  0  0  0  0
  4 23  1  0  0  0  0
  4 24  1  0  0  0  0
  5 25  1  0  0  0  0
  6 26  1  0  0  0  0
  7 27  1  0  0  0  0
  8 28  1  0  0  0  0
  8 29  1  0  0  0  0
  9 30  1  0  0  0  0
  9 31  1  0  0  0  0
 10 32  1  0  0  0  0
 10 33  1  0  0  0  0
 11 34  1  0  0  0  0
 11 35  1  0  0  0  0
 12 36  1  0  0  0  0
 13 37  1  0  0  0  0
 14 38  1  0  0  0  0
M  END
> <pdb_id>
4PCE

> <uniprot_id>
O60885

> <usmiles>
O=C1C2=C(N(C(=C2)CC)Cc3ccccc3)CCC1

$$$$
2NJ_A_201
          07212401333D 1   1.00000     0.00000     0
            
 35 37  0  0  0  0            999 V2000
  -16.5027  -23.3581  -23.0242 O   0  0  0  0  0  0  0  0  0  0  0  0
  -15.1832  -22.6438  -19.5208 N   0  0  0  0  0  0  0  0  0  0  0  0
  -15.9836  -21.4536  -21.9852 N   0  0  0  0  0  0  0  0  0  0  0  0
  -17.1480  -20.7496  -22.5239 C   0  0  0  0  0  0  0  0  0  0  0  0
  -11.1338  -25.6074  -18.7939 C   0  0  0  0  0  0  0  0  0  0  0  0
  -13.8425  -19.2569  -19.1239 C   0  0  0  0  0  0  0  0  0  0  0  0
  -14.1970  -18.6716  -20.3300 C   0  0  0  0  0  0  0  0  0  0  0  0
  -11.2183  -24.2216  -18.8203 C   0  0  0  0  0  0  0  0  0  0  0  0
  -12.1870  -26.3827  -19.2680 C   0  0  0  0  0  0  0  0  0  0  0  0
  -14.1708  -20.5884  -18.8770 C   0  0  0  0  0  0  0  0  0  0  0  0
  -14.8875  -19.4224  -21.2744 C   0  0  0  0  0  0  0  0  0  0  0  0
  -12.3785  -23.6148  -19.3102 C   0  0  0  0  0  0  0  0  0  0  0  0
  -13.3356  -25.7709  -19.7607 C   0  0  0  0  0  0  0  0  0  0  0  0
  -14.4662  -23.3257  -21.7597 C   0  0  0  0  0  0  0  0  0  0  0  0
  -15.7310  -22.7139  -22.3157 C   0  0  0  0  0  0  0  0  0  0  0  0
  -14.8681  -21.3464  -19.8149 C   0  0  0  0  0  0  0  0  0  0  0  0
  -14.7009  -23.7706  -20.3155 C   0  0  1  0  0  0  0  0  0  0  0  0
  -15.2240  -20.7548  -21.0239 C   0  0  0  0  0  0  0  0  0  0  0  0
  -13.4483  -24.3852  -19.7755 C   0  0  0  0  0  0  0  0  0  0  0  0
  -15.7671  -22.8287  -18.7303 H   0  0  0  0  0  0  0  0  0  0  0  0
  -17.1702  -19.8173  -22.1630 H   0  0  0  0  0  0  0  0  0  0  0  0
  -17.0872  -20.7195  -23.5216 H   0  0  0  0  0  0  0  0  0  0  0  0
  -17.9823  -21.2310  -22.2552 H   0  0  0  0  0  0  0  0  0  0  0  0
  -10.3128  -26.0497  -18.4328 H   0  0  0  0  0  0  0  0  0  0  0  0
  -13.3525  -18.7250  -18.4332 H   0  0  0  0  0  0  0  0  0  0  0  0
  -13.9584  -17.7189  -20.5185 H   0  0  0  0  0  0  0  0  0  0  0  0
  -10.4565  -23.6631  -18.4920 H   0  0  0  0  0  0  0  0  0  0  0  0
  -12.1186  -27.3802  -19.2547 H   0  0  0  0  0  0  0  0  0  0  0  0
  -13.9008  -21.0077  -18.0103 H   0  0  0  0  0  0  0  0  0  0  0  0
  -15.1467  -19.0033  -22.1445 H   0  0  0  0  0  0  0  0  0  0  0  0
  -12.4440  -22.6171  -19.3281 H   0  0  0  0  0  0  0  0  0  0  0  0
  -14.0866  -26.3329  -20.1071 H   0  0  0  0  0  0  0  0  0  0  0  0
  -13.7309  -22.6484  -21.7836 H   0  0  0  0  0  0  0  0  0  0  0  0
  -14.2084  -24.1173  -22.3137 H   0  0  0  0  0  0  0  0  0  0  0  0
  -15.4128  -24.4729  -20.3202 H   0  0  0  0  0  0  0  0  0  0  0  0
  1 15  2  0  0  0  0
  2 16  1  0  0  0  0
  2 17  1  0  0  0  0
  3  4  1  0  0  0  0
  3 15  1  0  0  0  0
  3 18  1  0  0  0  0
  5  8  2  0  0  0  0
  5  9  1  0  0  0  0
  6  7  2  0  0  0  0
  6 10  1  0  0  0  0
  7 11  1  0  0  0  0
  8 12  1  0  0  0  0
  9 13  2  0  0  0  0
 10 16  2  0  0  0  0
 11 18  2  0  0  0  0
 12 19  2  0  0  0  0
 13 19  1  0  0  0  0
 14 15  1  0  0  0  0
 14 17  1  0  0  0  0
 16 18  1  0  0  0  0
 17 19  1  0  0  0  0
  2 20  1  0  0  0  0
  4 21  1  0  0  0  0
  4 22  1  0  0  0  0
  4 23  1  0  0  0  0
  5 24  1  0  0  0  0
  6 25  1  0  0  0  0
  7 26  1  0  0  0  0
  8 27  1  0  0  0  0
  9 28  1  0  0  0  0
 10 29  1  0  0  0  0
 11 30  1  0  0  0  0
 12 31  1  0  0  0  0
 13 32  1  0  0  0  0
 14 33  1  0  0  0  0
 14 34  1  0  0  0  0
 17 35  1  0  0  0  0
M  END
> <pdb_id>
4PCI

> <uniprot_id>
O60885

> <usmiles>
O=C1N(c2c(N[C@H](c3ccccc3)C1)cccc2)C

$$$$
2O2_A_305
          07212403203D 1   1.00000     0.00000     0
            
 55 58  0  0  0  0            999 V2000
   -3.0240   21.0788   24.3898 P   0  0  0  0  0  0  0  0  0  0  0  0
   -5.7557   24.7323   31.8346 P   0  0  0  0  0  0  0  0  0  0  0  0
   -2.0622   20.1412   24.9438 O   0  0  0  0  0  0  0  0  0  0  0  0
   -2.8527   21.3880   22.9626 O   0  0  0  0  0  0  0  0  0  0  0  0
   -4.4811   20.8700   24.7961 O   0  0  0  0  0  0  0  0  0  0  0  0
   -6.2253   26.0894   32.1130 O   0  0  0  0  0  0  0  0  0  0  0  0
   -6.8190   23.8068   31.3958 O   0  0  0  0  0  0  0  0  0  0  0  0
   -4.8486   24.0553   32.8788 O   0  0  0  0  0  0  0  0  0  0  0  0
   -1.4775   28.6269   26.6429 O   0  0  0  0  0  0  0  0  0  0  0  0
   -1.0027   25.1338   23.8010 O   0  0  0  0  0  0  0  0  0  0  0  0
   -3.3266   25.4713   30.7598 O   0  0  0  0  0  0  0  0  0  0  0  0
   -3.0512   27.6452   28.9542 O   0  0  0  0  0  0  0  0  0  0  0  0
   -4.9834   25.5164   29.2305 O   0  0  0  0  0  0  0  0  0  0  0  0
   -1.2485   26.8610   25.2366 N   0  0  0  0  0  0  0  0  0  0  0  0
   -3.0792   27.0406   26.6444 N   0  0  0  0  0  0  0  0  0  0  0  0
   -2.6356   22.6498   25.2434 C   0  0  0  0  0  0  0  0  0  0  0  0
   -3.4748   26.9279   31.1628 C   0  0  0  0  0  0  0  0  0  0  0  0
   -3.8086   20.8073   29.0755 C   0  0  0  0  0  0  0  0  0  0  0  0
   -3.0361   21.3150   30.1380 C   0  0  0  0  0  0  0  0  0  0  0  0
   -4.7895   21.6266   28.4363 C   0  0  0  0  0  0  0  0  0  0  0  0
   -3.5582   25.8057   26.1499 C   0  0  0  0  0  0  0  0  0  0  0  0
   -3.4426   23.7829   24.6880 C   0  0  0  0  0  0  0  0  0  0  0  0
   -3.2663   22.6112   30.6006 C   0  0  0  0  0  0  0  0  0  0  0  0
   -4.9770   22.8855   28.8806 C   0  0  0  0  0  0  0  0  0  0  0  0
   -5.2473   27.4587   27.9270 C   0  0  0  0  0  0  0  0  0  0  0  0
   -1.9314   27.5602   26.1904 C   0  0  0  0  0  0  0  0  0  0  0  0
   -1.7008   25.6458   24.6918 C   0  0  0  0  0  0  0  0  0  0  0  0
   -3.7410   27.8212   27.6915 C   0  0  1  0  0  0  0  0  0  0  0  0
   -4.0318   27.6479   29.9932 C   0  0  2  0  0  0  0  0  0  0  0  0
   -5.1984   26.9087   29.3464 C   0  0  2  0  0  0  0  0  0  0  0  0
   -2.8815   25.0534   25.1865 C   0  0  0  0  0  0  0  0  0  0  0  0
   -4.2573   23.4165   29.9605 C   0  0  0  0  0  0  0  0  0  0  0  0
   -4.5254   24.7937   30.3990 C   0  0  2  0  0  0  0  0  0  0  0  0
   -2.2593   19.9954   25.9133 H   0  0  0  0  0  0  0  0  0  0  0  0
   -3.5568   22.0375   22.6754 H   0  0  0  0  0  0  0  0  0  0  0  0
   -5.4542   26.6560   32.4032 H   0  0  0  0  0  0  0  0  0  0  0  0
   -6.4253   22.9036   31.2251 H   0  0  0  0  0  0  0  0  0  0  0  0
   -0.3804   27.2329   24.9080 H   0  0  0  0  0  0  0  0  0  0  0  0
   -1.6636   22.8533   25.1256 H   0  0  0  0  0  0  0  0  0  0  0  0
   -2.8397   22.5508   26.2173 H   0  0  0  0  0  0  0  0  0  0  0  0
   -2.5831   27.3087   31.4075 H   0  0  0  0  0  0  0  0  0  0  0  0
   -4.0962   27.0068   31.9423 H   0  0  0  0  0  0  0  0  0  0  0  0
   -3.6696   19.8666   28.7661 H   0  0  0  0  0  0  0  0  0  0  0  0
   -2.3265   20.7497   30.5586 H   0  0  0  0  0  0  0  0  0  0  0  0
   -5.3280   21.2719   27.6719 H   0  0  0  0  0  0  0  0  0  0  0  0
   -4.4233   25.4536   26.5071 H   0  0  0  0  0  0  0  0  0  0  0  0
   -4.3936   23.6957   24.9848 H   0  0  0  0  0  0  0  0  0  0  0  0
   -3.4024   23.7664   23.6889 H   0  0  0  0  0  0  0  0  0  0  0  0
   -2.7429   22.9726   31.3723 H   0  0  0  0  0  0  0  0  0  0  0  0
   -5.6542   23.4618   28.4233 H   0  0  0  0  0  0  0  0  0  0  0  0
   -5.5644   26.7683   27.2768 H   0  0  0  0  0  0  0  0  0  0  0  0
   -5.8328   28.2671   27.8668 H   0  0  0  0  0  0  0  0  0  0  0  0
   -3.6887   28.7876   27.4399 H   0  0  0  0  0  0  0  0  0  0  0  0
   -4.2914   28.5820   30.2381 H   0  0  0  0  0  0  0  0  0  0  0  0
   -6.0524   27.0979   29.8311 H   0  0  0  0  0  0  0  0  0  0  0  0
  1  3  1  0  0  0  0
  1  4  1  0  0  0  0
  1  5  2  0  0  0  0
  1 16  1  0  0  0  0
  2  6  1  0  0  0  0
  2  7  1  0  0  0  0
  2  8  2  0  0  0  0
  2 33  1  0  0  0  0
  9 26  2  0  0  0  0
 10 27  2  0  0  0  0
 11 17  1  0  0  0  0
 11 33  1  0  0  0  0
 12 28  1  0  0  0  0
 12 29  1  0  0  0  0
 13 30  1  0  0  0  0
 13 33  1  0  0  0  0
 14 26  1  0  0  0  0
 14 27  1  0  0  0  0
 15 21  1  0  0  0  0
 15 26  1  0  0  0  0
 15 28  1  0  0  0  0
 16 22  1  0  0  0  0
 17 29  1  0  0  0  0
 18 19  2  0  0  0  0
 18 20  1  0  0  0  0
 19 23  1  0  0  0  0
 20 24  2  0  0  0  0
 21 31  2  0  0  0  0
 22 31  1  0  0  0  0
 23 32  2  0  0  0  0
 24 32  1  0  0  0  0
 25 28  1  0  0  0  0
 25 30  1  0  0  0  0
 27 31  1  0  0  0  0
 29 30  1  0  0  0  0
 32 33  1  0  0  0  0
  3 34  1  0  0  0  0
  4 35  1  0  0  0  0
  6 36  1  0  0  0  0
  7 37  1  0  0  0  0
 14 38  1  0  0  0  0
 16 39  1  0  0  0  0
 16 40  1  0  0  0  0
 17 41  1  0  0  0  0
 17 42  1  0  0  0  0
 18 43  1  0  0  0  0
 19 44  1  0  0  0  0
 20 45  1  0  0  0  0
 21 46  1  0  0  0  0
 22 47  1  0  0  0  0
 22 48  1  0  0  0  0
 23 49  1  0  0  0  0
 24 50  1  0  0  0  0
 25 51  1  0  0  0  0
 25 52  1  0  0  0  0
 28 53  1  0  0  0  0
 29 54  1  0  0  0  0
 30 55  1  0  0  0  0
M  END
> <pdb_id>
6G22

> <uniprot_id>
Q9NPB1

> <usmiles>
P(=O)(O)(O)[C@]1(O[C@H]2[C@H](O[C@@H](N3C(=O)NC(=O)C(=C3)CCP(=O)(O)O)C2)CO1)c4ccccc4

$$$$
2OD_A_1201
          07202416363D 1   1.00000     0.00000     0
            
 51 54  0  0  0  0            999 V2000
   38.7324   12.7248  -13.5600 O   0  0  0  0  0  0  0  0  0  0  0  0
   36.1647   11.6964  -13.4622 O   0  0  0  0  0  0  0  0  0  0  0  0
   34.8063   17.9867  -10.3426 N   0  0  0  0  0  0  0  0  0  0  0  0
   34.6972   15.8683  -11.3208 N   0  0  0  0  0  0  0  0  0  0  0  0
   35.3974    8.2309  -12.4150 N   0  0  0  0  0  0  0  0  0  0  0  0
   40.0861   13.1561  -13.6795 C   0  0  0  0  0  0  0  0  0  0  0  0
   34.7746   11.2212  -13.3874 C   0  0  0  0  0  0  0  0  0  0  0  0
   35.6017    8.7737  -13.7979 C   0  0  0  0  0  0  0  0  0  0  0  0
   34.1589    7.3854  -12.2060 C   0  0  0  0  0  0  0  0  0  0  0  0
   36.5248    7.4035  -11.8625 C   0  0  0  0  0  0  0  0  0  0  0  0
   34.6378    9.9257  -14.2232 C   0  0  0  0  0  0  0  0  0  0  0  0
   34.3648    6.8370  -10.7904 C   0  0  0  0  0  0  0  0  0  0  0  0
   35.8757    6.5098  -10.7564 C   0  0  0  0  0  0  0  0  0  0  0  0
   38.5636   18.3867  -11.2361 C   0  0  0  0  0  0  0  0  0  0  0  0
   37.4218   18.1208  -12.2521 C   0  0  0  0  0  0  0  0  0  0  0  0
   37.9085   17.3861  -10.2341 C   0  0  0  0  0  0  0  0  0  0  0  0
   35.3067   13.7522  -12.4791 C   0  0  0  0  0  0  0  0  0  0  0  0
   38.0234   14.8373  -12.4629 C   0  0  0  0  0  0  0  0  0  0  0  0
   35.3927   16.9498  -10.9720 C   0  0  0  0  0  0  0  0  0  0  0  0
   37.7671   13.5364  -13.0047 C   0  0  0  0  0  0  0  0  0  0  0  0
   36.4073   12.9883  -13.0023 C   0  0  0  0  0  0  0  0  0  0  0  0
   35.6159   15.0099  -11.9437 C   0  0  0  0  0  0  0  0  0  0  0  0
   36.9537   15.5540  -11.9460 C   0  0  0  0  0  0  0  0  0  0  0  0
   36.8976   16.9432  -11.3485 C   0  0  0  0  0  0  0  0  0  0  0  0
   35.3474   18.7889  -10.0898 H   0  0  0  0  0  0  0  0  0  0  0  0
   33.8301   17.9543  -10.1282 H   0  0  0  0  0  0  0  0  0  0  0  0
   40.6302   12.4325  -14.1042 H   0  0  0  0  0  0  0  0  0  0  0  0
   40.1250   13.9788  -14.2466 H   0  0  0  0  0  0  0  0  0  0  0  0
   40.4526   13.3594  -12.7716 H   0  0  0  0  0  0  0  0  0  0  0  0
   34.1610   11.9216  -13.7522 H   0  0  0  0  0  0  0  0  0  0  0  0
   34.5359   11.0322  -12.4349 H   0  0  0  0  0  0  0  0  0  0  0  0
   35.4834    8.0198  -14.4442 H   0  0  0  0  0  0  0  0  0  0  0  0
   36.5382    9.1193  -13.8569 H   0  0  0  0  0  0  0  0  0  0  0  0
   34.1097    6.6451  -12.8764 H   0  0  0  0  0  0  0  0  0  0  0  0
   33.3290    7.9406  -12.2610 H   0  0  0  0  0  0  0  0  0  0  0  0
   37.2307    7.9919  -11.4681 H   0  0  0  0  0  0  0  0  0  0  0  0
   36.9272    6.8355  -12.5805 H   0  0  0  0  0  0  0  0  0  0  0  0
   34.8233   10.1505  -15.1798 H   0  0  0  0  0  0  0  0  0  0  0  0
   33.6982    9.5950  -14.1347 H   0  0  0  0  0  0  0  0  0  0  0  0
   33.8161    6.0145  -10.6409 H   0  0  0  0  0  0  0  0  0  0  0  0
   34.1308    7.5236  -10.1021 H   0  0  0  0  0  0  0  0  0  0  0  0
   36.2603    6.7296   -9.8599 H   0  0  0  0  0  0  0  0  0  0  0  0
   36.0277    5.5418  -10.9561 H   0  0  0  0  0  0  0  0  0  0  0  0
   38.6032   19.3292  -10.9043 H   0  0  0  0  0  0  0  0  0  0  0  0
   39.4687   18.1082  -11.5575 H   0  0  0  0  0  0  0  0  0  0  0  0
   37.7378   17.8329  -13.1561 H   0  0  0  0  0  0  0  0  0  0  0  0
   36.7772   18.8790  -12.3502 H   0  0  0  0  0  0  0  0  0  0  0  0
   37.4799   17.8215   -9.4425 H   0  0  0  0  0  0  0  0  0  0  0  0
   38.5201   16.6584   -9.9238 H   0  0  0  0  0  0  0  0  0  0  0  0
   34.3695   13.4038  -12.4963 H   0  0  0  0  0  0  0  0  0  0  0  0
   38.9479   15.2184  -12.4573 H   0  0  0  0  0  0  0  0  0  0  0  0
  1  6  1  0  0  0  0
  1 20  1  0  0  0  0
  2  7  1  0  0  0  0
  2 21  1  0  0  0  0
  3 19  1  0  0  0  0
  4 19  2  0  0  0  0
  4 22  1  0  0  0  0
  5  8  1  0  0  0  0
  5  9  1  0  0  0  0
  5 10  1  0  0  0  0
  7 11  1  0  0  0  0
  8 11  1  0  0  0  0
  9 12  1  0  0  0  0
 10 13  1  0  0  0  0
 12 13  1  0  0  0  0
 14 15  1  0  0  0  0
 14 16  1  0  0  0  0
 15 24  1  0  0  0  0
 16 24  1  0  0  0  0
 17 21  1  0  0  0  0
 17 22  2  0  0  0  0
 18 20  1  0  0  0  0
 18 23  2  0  0  0  0
 19 24  1  0  0  0  0
 20 21  2  0  0  0  0
 22 23  1  0  0  0  0
 23 24  1  0  0  0  0
  3 25  1  0  0  0  0
  3 26  1  0  0  0  0
  6 27  1  0  0  0  0
  6 28  1  0  0  0  0
  6 29  1  0  0  0  0
  7 30  1  0  0  0  0
  7 31  1  0  0  0  0
  8 32  1  0  0  0  0
  8 33  1  0  0  0  0
  9 34  1  0  0  0  0
  9 35  1  0  0  0  0
 10 36  1  0  0  0  0
 10 37  1  0  0  0  0
 11 38  1  0  0  0  0
 11 39  1  0  0  0  0
 12 40  1  0  0  0  0
 12 41  1  0  0  0  0
 13 42  1  0  0  0  0
 13 43  1  0  0  0  0
 14 44  1  0  0  0  0
 14 45  1  0  0  0  0
 15 46  1  0  0  0  0
 15 47  1  0  0  0  0
 16 48  1  0  0  0  0
 16 49  1  0  0  0  0
 17 50  1  0  0  0  0
 18 51  1  0  0  0  0
M  END
> <pdb_id>
4NVQ

> <uniprot_id>
Q96KQ7

> <usmiles>
O(c1c(OC)cc2c(N=C(N)C23CCC3)c1)CCCN4CCCC4

$$$$
2OD_A_301
          07212403343D 1   1.00000     0.00000     0
            
 51 54  0  0  0  0            999 V2000
  -10.7366  -37.8886   -5.9097 O   0  0  0  0  0  0  0  0  0  0  0  0
  -10.6650  -35.4538   -6.3467 O   0  0  0  0  0  0  0  0  0  0  0  0
   -3.7498  -37.0416   -8.0408 N   0  0  0  0  0  0  0  0  0  0  0  0
   -5.8164  -35.8630   -7.6442 N   0  0  0  0  0  0  0  0  0  0  0  0
  -12.4921  -35.8808   -4.4691 N   0  0  0  0  0  0  0  0  0  0  0  0
  -10.8747  -39.2922   -5.6860 C   0  0  0  0  0  0  0  0  0  0  0  0
  -10.5604  -34.0627   -6.0648 C   0  0  0  0  0  0  0  0  0  0  0  0
  -12.1976  -34.6929   -4.1520 C   0  0  0  0  0  0  0  0  0  0  0  0
  -12.7556  -36.5280   -3.3617 C   0  0  0  0  0  0  0  0  0  0  0  0
  -13.8462  -36.0242   -5.2631 C   0  0  0  0  0  0  0  0  0  0  0  0
  -11.8485  -33.7387   -5.2886 C   0  0  0  0  0  0  0  0  0  0  0  0
  -13.8006  -37.6280   -3.6871 C   0  0  0  0  0  0  0  0  0  0  0  0
  -14.2756  -37.2836   -5.0462 C   0  0  0  0  0  0  0  0  0  0  0  0
   -5.3969  -40.2513   -7.3858 C   0  0  0  0  0  0  0  0  0  0  0  0
   -5.2626  -39.2258   -6.2889 C   0  0  0  0  0  0  0  0  0  0  0  0
   -5.6797  -39.1519   -8.3859 C   0  0  0  0  0  0  0  0  0  0  0  0
   -8.2882  -35.4237   -7.0478 C   0  0  0  0  0  0  0  0  0  0  0  0
   -8.3613  -38.3102   -6.5480 C   0  0  0  0  0  0  0  0  0  0  0  0
   -5.0185  -37.0537   -7.7035 C   0  0  0  0  0  0  0  0  0  0  0  0
   -9.5329  -37.4632   -6.3678 C   0  0  0  0  0  0  0  0  0  0  0  0
   -9.4413  -36.0969   -6.6454 C   0  0  0  0  0  0  0  0  0  0  0  0
   -7.1797  -36.2605   -7.2215 C   0  0  0  0  0  0  0  0  0  0  0  0
   -7.2308  -37.6795   -6.9970 C   0  0  0  0  0  0  0  0  0  0  0  0
   -5.8371  -38.1808   -7.2396 C   0  0  0  0  0  0  0  0  0  0  0  0
   -3.2317  -37.8965   -8.0688 H   0  0  0  0  0  0  0  0  0  0  0  0
   -3.3015  -36.1775   -8.2696 H   0  0  0  0  0  0  0  0  0  0  0  0
  -11.7967  -39.4873   -5.3515 H   0  0  0  0  0  0  0  0  0  0  0  0
  -10.7202  -39.7832   -6.5433 H   0  0  0  0  0  0  0  0  0  0  0  0
  -10.2038  -39.5890   -5.0064 H   0  0  0  0  0  0  0  0  0  0  0  0
  -10.5128  -33.5317   -6.9108 H   0  0  0  0  0  0  0  0  0  0  0  0
   -9.7526  -33.8735   -5.5065 H   0  0  0  0  0  0  0  0  0  0  0  0
  -11.4095  -34.7312   -3.5377 H   0  0  0  0  0  0  0  0  0  0  0  0
  -12.9815  -34.3077   -3.6650 H   0  0  0  0  0  0  0  0  0  0  0  0
  -13.1273  -35.8975   -2.6803 H   0  0  0  0  0  0  0  0  0  0  0  0
  -11.9202  -36.9478   -3.0068 H   0  0  0  0  0  0  0  0  0  0  0  0
  -13.6935  -35.8730   -6.2397 H   0  0  0  0  0  0  0  0  0  0  0  0
  -14.5182  -35.3654   -4.9249 H   0  0  0  0  0  0  0  0  0  0  0  0
  -12.6082  -33.7456   -5.9389 H   0  0  0  0  0  0  0  0  0  0  0  0
  -11.7503  -32.8224   -4.9004 H   0  0  0  0  0  0  0  0  0  0  0  0
  -14.5551  -37.6060   -3.0311 H   0  0  0  0  0  0  0  0  0  0  0  0
  -13.3772  -38.5338   -3.6779 H   0  0  0  0  0  0  0  0  0  0  0  0
  -13.8856  -37.9083   -5.7226 H   0  0  0  0  0  0  0  0  0  0  0  0
  -15.2738  -37.3259   -5.0899 H   0  0  0  0  0  0  0  0  0  0  0  0
   -6.1558  -40.8895   -7.2563 H   0  0  0  0  0  0  0  0  0  0  0  0
   -4.5581  -40.7636   -7.5697 H   0  0  0  0  0  0  0  0  0  0  0  0
   -4.3209  -39.0494   -6.0022 H   0  0  0  0  0  0  0  0  0  0  0  0
   -5.8278  -39.4063   -5.4839 H   0  0  0  0  0  0  0  0  0  0  0  0
   -6.5106  -39.2900   -8.9250 H   0  0  0  0  0  0  0  0  0  0  0  0
   -4.9159  -38.9459   -8.9976 H   0  0  0  0  0  0  0  0  0  0  0  0
   -8.2563  -34.4356   -7.1982 H   0  0  0  0  0  0  0  0  0  0  0  0
   -8.3809  -39.2913   -6.3557 H   0  0  0  0  0  0  0  0  0  0  0  0
  1  6  1  0  0  0  0
  1 20  1  0  0  0  0
  2  7  1  0  0  0  0
  2 21  1  0  0  0  0
  3 19  1  0  0  0  0
  4 19  2  0  0  0  0
  4 22  1  0  0  0  0
  5  8  1  0  0  0  0
  5  9  1  0  0  0  0
  5 10  1  0  0  0  0
  7 11  1  0  0  0  0
  8 11  1  0  0  0  0
  9 12  1  0  0  0  0
 10 13  1  0  0  0  0
 12 13  1  0  0  0  0
 14 15  1  0  0  0  0
 14 16  1  0  0  0  0
 15 24  1  0  0  0  0
 16 24  1  0  0  0  0
 17 21  1  0  0  0  0
 17 22  2  0  0  0  0
 18 20  1  0  0  0  0
 18 23  2  0  0  0  0
 19 24  1  0  0  0  0
 20 21  2  0  0  0  0
 22 23  1  0  0  0  0
 23 24  1  0  0  0  0
  3 25  1  0  0  0  0
  3 26  1  0  0  0  0
  6 27  1  0  0  0  0
  6 28  1  0  0  0  0
  6 29  1  0  0  0  0
  7 30  1  0  0  0  0
  7 31  1  0  0  0  0
  8 32  1  0  0  0  0
  8 33  1  0  0  0  0
  9 34  1  0  0  0  0
  9 35  1  0  0  0  0
 10 36  1  0  0  0  0
 10 37  1  0  0  0  0
 11 38  1  0  0  0  0
 11 39  1  0  0  0  0
 12 40  1  0  0  0  0
 12 41  1  0  0  0  0
 13 42  1  0  0  0  0
 13 43  1  0  0  0  0
 14 44  1  0  0  0  0
 14 45  1  0  0  0  0
 15 46  1  0  0  0  0
 15 47  1  0  0  0  0
 16 48  1  0  0  0  0
 16 49  1  0  0  0  0
 17 50  1  0  0  0  0
 18 51  1  0  0  0  0
M  END
> <pdb_id>
6I8Y

> <uniprot_id>
Q9Y657

> <usmiles>
O(c1c(OC)cc2c(N=C(N)C23CCC3)c1)CCCN4CCCC4

$$$$
2OQ_A_601
          07202413143D 1   1.00000     0.00000     0
            
 46 49  0  0  0  0            999 V2000
   -6.9240   -0.1906   19.7594 O   0  0  0  0  0  0  0  0  0  0  0  0
   -8.2081  -12.1498   19.9202 N   0  0  0  0  0  0  0  0  0  0  0  0
   -7.9211  -10.2688   21.3198 N   0  0  0  0  0  0  0  0  0  0  0  0
   -6.6958   -8.4699   20.5900 N   0  0  0  0  0  0  0  0  0  0  0  0
   -6.9576  -10.2823   19.2257 N   0  0  0  0  0  0  0  0  0  0  0  0
   -4.3739   -8.0571   16.7234 N   0  0  0  0  0  0  0  0  0  0  0  0
   -5.6848   -8.4295   18.4443 N   0  0  0  0  0  0  0  0  0  0  0  0
   -4.7626  -10.4600   17.1186 C   0  0  0  0  0  0  0  0  0  0  0  0
   -7.4246   -9.0600   21.5251 C   0  0  0  0  0  0  0  0  0  0  0  0
   -8.3966   -0.0542   22.8168 C   0  0  0  0  0  0  0  0  0  0  0  0
   -9.1323   -0.2888   21.5011 C   0  0  0  0  0  0  0  0  0  0  0  0
   -6.9005    0.1312   22.5486 C   0  0  0  0  0  0  0  0  0  0  0  0
   -4.3575   -5.5339   16.8195 C   0  0  0  0  0  0  0  0  0  0  0  0
   -4.8456   -4.4689   17.5092 C   0  0  0  0  0  0  0  0  0  0  0  0
   -6.1808   -3.4992   19.3077 C   0  0  0  0  0  0  0  0  0  0  0  0
   -8.5659   -1.5472   20.8442 C   0  0  0  0  0  0  0  0  0  0  0  0
   -6.3324   -1.1375   21.9052 C   0  0  0  0  0  0  0  0  0  0  0  0
   -6.5769   -2.5505   19.8782 C   0  0  0  0  0  0  0  0  0  0  0  0
   -6.0324   -5.9461   19.0154 C   0  0  0  0  0  0  0  0  0  0  0  0
   -7.6901  -10.8865   20.1592 C   0  0  0  0  0  0  0  0  0  0  0  0
   -6.4506   -9.0738   19.4277 C   0  0  0  0  0  0  0  0  0  0  0  0
   -4.9431   -8.9913   17.4267 C   0  0  0  0  0  0  0  0  0  0  0  0
   -4.6983   -6.8351   17.2080 C   0  0  0  0  0  0  0  0  0  0  0  0
   -5.5408   -7.0467   18.3165 C   0  0  0  0  0  0  0  0  0  0  0  0
   -5.6886   -4.6547   18.6124 C   0  0  0  0  0  0  0  0  0  0  0  0
   -7.0771   -1.3499   20.5740 C   0  0  0  0  0  0  0  0  0  0  0  0
   -5.9534   -0.0423   19.5697 H   0  0  0  0  0  0  0  0  0  0  0  0
   -8.0308  -12.6063   19.0483 H   0  0  0  0  0  0  0  0  0  0  0  0
   -8.7592  -12.6048   20.6197 H   0  0  0  0  0  0  0  0  0  0  0  0
   -5.2829  -11.0049   17.7762 H   0  0  0  0  0  0  0  0  0  0  0  0
   -5.0924  -10.6495   16.1938 H   0  0  0  0  0  0  0  0  0  0  0  0
   -3.7933  -10.6972   17.1820 H   0  0  0  0  0  0  0  0  0  0  0  0
   -7.6002   -8.5899   22.3900 H   0  0  0  0  0  0  0  0  0  0  0  0
   -8.5310   -0.8423   23.4174 H   0  0  0  0  0  0  0  0  0  0  0  0
   -8.7590    0.7668   23.2579 H   0  0  0  0  0  0  0  0  0  0  0  0
   -8.9994    0.4962   20.8960 H   0  0  0  0  0  0  0  0  0  0  0  0
  -10.1088   -0.4116   21.6783 H   0  0  0  0  0  0  0  0  0  0  0  0
   -6.4271    0.3073   23.4117 H   0  0  0  0  0  0  0  0  0  0  0  0
   -6.7667    0.9062   21.9309 H   0  0  0  0  0  0  0  0  0  0  0  0
   -3.7550   -5.3879   16.0348 H   0  0  0  0  0  0  0  0  0  0  0  0
   -4.5999   -3.5420   17.2256 H   0  0  0  0  0  0  0  0  0  0  0  0
   -9.0422   -1.7168   19.9815 H   0  0  0  0  0  0  0  0  0  0  0  0
   -8.6936   -2.3289   21.4548 H   0  0  0  0  0  0  0  0  0  0  0  0
   -6.4790   -1.9218   22.5081 H   0  0  0  0  0  0  0  0  0  0  0  0
   -5.3533   -1.0260   21.7355 H   0  0  0  0  0  0  0  0  0  0  0  0
   -6.6309   -6.0813   19.8050 H   0  0  0  0  0  0  0  0  0  0  0  0
  1 26  1  0  0  0  0
  2 20  1  0  0  0  0
  3  9  1  0  0  0  0
  3 20  2  0  0  0  0
  4  9  2  0  0  0  0
  4 21  1  0  0  0  0
  5 20  1  0  0  0  0
  5 21  2  0  0  0  0
  6 22  2  0  0  0  0
  6 23  1  0  0  0  0
  7 21  1  0  0  0  0
  7 22  1  0  0  0  0
  7 24  1  0  0  0  0
  8 22  1  0  0  0  0
 10 11  1  0  0  0  0
 10 12  1  0  0  0  0
 11 16  1  0  0  0  0
 12 17  1  0  0  0  0
 13 14  1  0  0  0  0
 13 23  2  0  0  0  0
 14 25  2  0  0  0  0
 15 18  3  0  0  0  0
 15 25  1  0  0  0  0
 16 26  1  0  0  0  0
 17 26  1  0  0  0  0
 18 26  1  0  0  0  0
 19 24  2  0  0  0  0
 19 25  1  0  0  0  0
 23 24  1  0  0  0  0
  1 27  1  0  0  0  0
  2 28  1  0  0  0  0
  2 29  1  0  0  0  0
  8 30  1  0  0  0  0
  8 31  1  0  0  0  0
  8 32  1  0  0  0  0
  9 33  1  0  0  0  0
 10 34  1  0  0  0  0
 10 35  1  0  0  0  0
 11 36  1  0  0  0  0
 11 37  1  0  0  0  0
 12 38  1  0  0  0  0
 12 39  1  0  0  0  0
 13 40  1  0  0  0  0
 14 41  1  0  0  0  0
 16 42  1  0  0  0  0
 16 43  1  0  0  0  0
 17 44  1  0  0  0  0
 17 45  1  0  0  0  0
 19 46  1  0  0  0  0
M  END
> <pdb_id>
4O0X

> <uniprot_id>
O96013

> <usmiles>
OC1(C#Cc2cc3N(c4nc(ncn4)N)C(=Nc3cc2)C)CCCCC1

$$$$
2OX_C_504
          07192418093D 1   1.00000     0.00000     0
            
 35 37  0  0  0  0            999 V2000
  -24.1197    3.7565   29.2913 O   0  0  0  0  0  0  0  0  0  0  0  0
  -24.6225    0.9885   29.4395 O   0  0  0  0  0  0  0  0  0  0  0  0
  -28.2563   -0.9282   27.5043 N   0  0  0  0  0  0  0  0  0  0  0  0
  -27.0944   -0.2261   27.6540 N   0  0  0  0  0  0  0  0  0  0  0  0
  -26.5078    3.4879   27.5085 N   0  0  0  0  0  0  0  0  0  0  0  0
  -29.2457   -0.2029   27.7056 N   0  0  0  0  0  0  0  0  0  0  0  0
  -24.7967    5.1877   26.8683 C   0  0  0  0  0  0  0  0  0  0  0  0
  -28.7750    1.0106   28.0324 C   0  0  0  0  0  0  0  0  0  0  0  0
  -33.2205   -1.5011   27.6105 C   0  0  0  0  0  0  0  0  0  0  0  0
  -32.2004   -2.3766   27.9924 C   0  0  0  0  0  0  0  0  0  0  0  0
  -32.9088   -0.1709   27.2472 C   0  0  0  0  0  0  0  0  0  0  0  0
  -30.8757   -1.9312   28.0060 C   0  0  0  0  0  0  0  0  0  0  0  0
  -31.5717    0.2689   27.2668 C   0  0  0  0  0  0  0  0  0  0  0  0
  -25.1431    3.7062   27.0090 C   0  0  1  0  0  0  0  0  0  0  0  0
  -24.2250    3.0289   28.0747 C   0  0  2  0  0  0  0  0  0  0  0  0
  -25.0460    1.7566   28.2781 C   0  0  2  0  0  0  0  0  0  0  0  0
  -27.4661    0.9861   28.0101 C   0  0  0  0  0  0  0  0  0  0  0  0
  -26.5064    2.1996   28.2725 C   0  0  2  0  0  0  0  0  0  0  0  0
  -30.5378   -0.6109   27.6487 C   0  0  0  0  0  0  0  0  0  0  0  0
  -23.5194    3.2653   29.9226 H   0  0  0  0  0  0  0  0  0  0  0  0
  -25.1916    0.1705   29.5237 H   0  0  0  0  0  0  0  0  0  0  0  0
  -27.1469    3.4294   26.7416 H   0  0  0  0  0  0  0  0  0  0  0  0
  -23.8615    5.2804   26.5265 H   0  0  0  0  0  0  0  0  0  0  0  0
  -25.4306    5.6187   26.2260 H   0  0  0  0  0  0  0  0  0  0  0  0
  -24.8714    5.6337   27.7602 H   0  0  0  0  0  0  0  0  0  0  0  0
  -29.3354    1.8077   28.2573 H   0  0  0  0  0  0  0  0  0  0  0  0
  -34.1698   -1.8152   27.5942 H   0  0  0  0  0  0  0  0  0  0  0  0
  -32.4171   -3.3170   28.2547 H   0  0  0  0  0  0  0  0  0  0  0  0
  -33.6380    0.4574   26.9762 H   0  0  0  0  0  0  0  0  0  0  0  0
  -30.1504   -2.5647   28.2757 H   0  0  0  0  0  0  0  0  0  0  0  0
  -31.3539    1.2101   27.0086 H   0  0  0  0  0  0  0  0  0  0  0  0
  -25.0299    3.2486   26.1271 H   0  0  0  0  0  0  0  0  0  0  0  0
  -23.3226    2.8217   27.6969 H   0  0  0  0  0  0  0  0  0  0  0  0
  -24.9065    1.1802   27.4729 H   0  0  0  0  0  0  0  0  0  0  0  0
  -26.6919    2.4674   29.2180 H   0  0  0  0  0  0  0  0  0  0  0  0
  1 15  1  0  0  0  0
  2 16  1  0  0  0  0
  3  4  2  0  0  0  0
  3  6  1  0  0  0  0
  4 17  1  0  0  0  0
  5 14  1  0  0  0  0
  5 18  1  0  0  0  0
  6  8  1  0  0  0  0
  6 19  1  0  0  0  0
  7 14  1  0  0  0  0
  8 17  2  0  0  0  0
  9 10  2  0  0  0  0
  9 11  1  0  0  0  0
 10 12  1  0  0  0  0
 11 13  2  0  0  0  0
 12 19  2  0  0  0  0
 13 19  1  0  0  0  0
 14 15  1  0  0  0  0
 15 16  1  0  0  0  0
 16 18  1  0  0  0  0
 17 18  1  0  0  0  0
  1 20  1  0  0  0  0
  2 21  1  0  0  0  0
  5 22  1  0  0  0  0
  7 23  1  0  0  0  0
  7 24  1  0  0  0  0
  7 25  1  0  0  0  0
  8 26  1  0  0  0  0
  9 27  1  0  0  0  0
 10 28  1  0  0  0  0
 11 29  1  0  0  0  0
 12 30  1  0  0  0  0
 13 31  1  0  0  0  0
 14 32  1  0  0  0  0
 15 33  1  0  0  0  0
 16 34  1  0  0  0  0
 18 35  1  0  0  0  0
M  END
> <pdb_id>
4PEE

> <uniprot_id>
Q8A3I4

> <usmiles>
O[C@H]1[C@@H](O)[C@@H](N[C@H]1C)C=2N=NN(c3ccccc3)C2

$$$$
2P0_B_328
          07202401293D 1   1.00000     0.00000     0
            
 33 33  0  0  0  0            999 V2000
  -61.1630  -39.2010  -20.0970 P   0  0  0  0  0  0  0  0  0  0  0  0
  -61.2560  -36.7870  -21.5020 P   0  0  0  0  0  0  0  0  0  0  0  0
  -60.0700  -40.2040  -19.8650 O   0  0  0  0  0  0  0  0  0  0  0  0
  -61.9830  -38.9610  -18.8490 O   0  0  0  0  0  0  0  0  0  0  0  0
  -62.0790  -39.6820  -21.1960 O   0  0  0  0  0  0  0  0  0  0  0  0
  -61.7100  -37.4340  -22.7800 O   0  0  0  0  0  0  0  0  0  0  0  0
  -62.3860  -36.1230  -20.7440 O   0  0  0  0  0  0  0  0  0  0  0  0
  -61.0200  -31.3220  -21.1490 O   0  0  0  0  0  0  0  0  0  0  0  0
  -61.3850  -31.3570  -19.0150 O   0  0  0  0  0  0  0  0  0  0  0  0
  -58.1590  -33.9590  -22.5330 O   0  0  0  0  0  0  0  0  0  0  0  0
  -60.5570  -37.8190  -20.5420 O   0  0  0  0  0  0  0  0  0  0  0  0
  -60.1780  -35.7050  -21.8580 O   0  0  0  0  0  0  0  0  0  0  0  0
  -58.5710  -32.4670  -20.8980 N   0  0  0  0  0  0  0  0  0  0  0  0
  -59.8120  -34.6910  -20.9910 C   0  0  0  0  0  0  0  0  0  0  0  0
  -57.6130  -31.5370  -21.4020 C   0  0  0  0  0  0  0  0  0  0  0  0
  -57.2790  -30.6570  -20.2490 C   0  0  0  0  0  0  0  0  0  0  0  0
  -58.4020  -30.8060  -19.2680 C   0  0  0  0  0  0  0  0  0  0  0  0
  -60.5970  -31.5340  -19.9780 C   0  0  0  0  0  0  0  0  0  0  0  0
  -58.8080  -33.7190  -21.5270 C   0  0  0  0  0  0  0  0  0  0  0  0
  -59.2120  -31.9770  -19.7200 C   0  0  1  0  0  0  0  0  0  0  0  0
  -59.5524  -40.3346  -20.7106 H   0  0  0  0  0  0  0  0  0  0  0  0
  -62.6979  -38.2894  -19.0439 H   0  0  0  0  0  0  0  0  0  0  0  0
  -60.9265  -37.8549  -23.2372 H   0  0  0  0  0  0  0  0  0  0  0  0
  -60.4124  -31.4557  -21.9319 H   0  0  0  0  0  0  0  0  0  0  0  0
  -59.4263  -35.1115  -20.1698 H   0  0  0  0  0  0  0  0  0  0  0  0
  -60.6367  -34.1802  -20.7480 H   0  0  0  0  0  0  0  0  0  0  0  0
  -58.0044  -31.0012  -22.1502 H   0  0  0  0  0  0  0  0  0  0  0  0
  -56.7968  -32.0153  -21.7260 H   0  0  0  0  0  0  0  0  0  0  0  0
  -57.2051  -29.7060  -20.5491 H   0  0  0  0  0  0  0  0  0  0  0  0
  -56.4157  -30.9434  -19.8334 H   0  0  0  0  0  0  0  0  0  0  0  0
  -58.9650  -29.9796  -19.2601 H   0  0  0  0  0  0  0  0  0  0  0  0
  -58.0392  -30.9710  -18.3508 H   0  0  0  0  0  0  0  0  0  0  0  0
  -59.2086  -32.6844  -19.0132 H   0  0  0  0  0  0  0  0  0  0  0  0
  1  3  1  0  0  0  0
  1  4  1  0  0  0  0
  1  5  2  0  0  0  0
  1 11  1  0  0  0  0
  2  6  1  0  0  0  0
  2  7  2  0  0  0  0
  2 11  1  0  0  0  0
  2 12  1  0  0  0  0
  8 18  1  0  0  0  0
  9 18  2  0  0  0  0
 10 19  2  0  0  0  0
 12 14  1  0  0  0  0
 13 15  1  0  0  0  0
 13 19  1  0  0  0  0
 13 20  1  0  0  0  0
 14 19  1  0  0  0  0
 15 16  1  0  0  0  0
 16 17  1  0  0  0  0
 17 20  1  0  0  0  0
 18 20  1  0  0  0  0
  3 21  1  0  0  0  0
  4 22  1  0  0  0  0
  6 23  1  0  0  0  0
  8 24  1  0  0  0  0
 14 25  1  0  0  0  0
 14 26  1  0  0  0  0
 15 27  1  0  0  0  0
 15 28  1  0  0  0  0
 16 29  1  0  0  0  0
 16 30  1  0  0  0  0
 17 31  1  0  0  0  0
 17 32  1  0  0  0  0
 20 33  1  0  0  0  0
M  END
> <pdb_id>
3QT6

> <uniprot_id>
Q9FD73

> <usmiles>
P(=O)(OP(=O)(O)O)(OCC(=O)N1[C@H](C(=O)O)CCC1)O

$$$$
2P0_B_401
          07192423253D 1   1.00000     0.00000     0
            
 33 33  0  0  0  0            999 V2000
  -19.8860  -11.4680  -57.5630 P   0  0  0  0  0  0  0  0  0  0  0  0
  -19.9280  -13.8350  -56.0890 P   0  0  0  0  0  0  0  0  0  0  0  0
  -20.9220  -10.9730  -56.5730 O   0  0  0  0  0  0  0  0  0  0  0  0
  -18.8010  -10.4340  -57.7360 O   0  0  0  0  0  0  0  0  0  0  0  0
  -20.5660  -11.7680  -58.9110 O   0  0  0  0  0  0  0  0  0  0  0  0
  -21.0780  -14.5130  -56.7780 O   0  0  0  0  0  0  0  0  0  0  0  0
  -20.3880  -13.1820  -54.7770 O   0  0  0  0  0  0  0  0  0  0  0  0
  -19.8940  -19.2120  -57.1110 O   0  0  0  0  0  0  0  0  0  0  0  0
  -19.3520  -19.5260  -59.2420 O   0  0  0  0  0  0  0  0  0  0  0  0
  -17.5570  -16.8320  -54.6740 O   0  0  0  0  0  0  0  0  0  0  0  0
  -19.2040  -12.7730  -57.0010 O   0  0  0  0  0  0  0  0  0  0  0  0
  -18.8250  -14.9350  -55.7660 O   0  0  0  0  0  0  0  0  0  0  0  0
  -17.3430  -18.2940  -56.4440 N   0  0  0  0  0  0  0  0  0  0  0  0
  -18.6820  -16.1100  -56.5930 C   0  0  0  0  0  0  0  0  0  0  0  0
  -16.5260  -19.2500  -55.7620 C   0  0  0  0  0  0  0  0  0  0  0  0
  -15.8080  -20.0050  -56.8430 C   0  0  0  0  0  0  0  0  0  0  0  0
  -16.6530  -19.8760  -58.0670 C   0  0  0  0  0  0  0  0  0  0  0  0
  -19.0200  -19.1790  -58.0490 C   0  0  0  0  0  0  0  0  0  0  0  0
  -17.8480  -17.0600  -55.8380 C   0  0  0  0  0  0  0  0  0  0  0  0
  -17.5680  -18.7520  -57.8040 C   0  0  1  0  0  0  0  0  0  0  0  0
  -21.6366  -11.6641  -56.4647 H   0  0  0  0  0  0  0  0  0  0  0  0
  -18.1227  -10.7688  -58.3901 H   0  0  0  0  0  0  0  0  0  0  0  0
  -20.7577  -14.9308  -57.6282 H   0  0  0  0  0  0  0  0  0  0  0  0
  -19.6406  -18.9431  -56.1818 H   0  0  0  0  0  0  0  0  0  0  0  0
  -18.2373  -15.8717  -57.4564 H   0  0  0  0  0  0  0  0  0  0  0  0
  -19.5787  -16.5113  -56.7795 H   0  0  0  0  0  0  0  0  0  0  0  0
  -17.0923  -19.8702  -55.2192 H   0  0  0  0  0  0  0  0  0  0  0  0
  -15.8712  -18.7874  -55.1643 H   0  0  0  0  0  0  0  0  0  0  0  0
  -15.7100  -20.9671  -56.5884 H   0  0  0  0  0  0  0  0  0  0  0  0
  -14.9038  -19.6085  -57.0018 H   0  0  0  0  0  0  0  0  0  0  0  0
  -17.1704  -20.7173  -58.2236 H   0  0  0  0  0  0  0  0  0  0  0  0
  -16.0828  -19.6818  -58.8653 H   0  0  0  0  0  0  0  0  0  0  0  0
  -17.3451  -18.0064  -58.4320 H   0  0  0  0  0  0  0  0  0  0  0  0
  1  3  1  0  0  0  0
  1  4  1  0  0  0  0
  1  5  2  0  0  0  0
  1 11  1  0  0  0  0
  2  6  1  0  0  0  0
  2  7  2  0  0  0  0
  2 11  1  0  0  0  0
  2 12  1  0  0  0  0
  8 18  1  0  0  0  0
  9 18  2  0  0  0  0
 10 19  2  0  0  0  0
 12 14  1  0  0  0  0
 13 15  1  0  0  0  0
 13 19  1  0  0  0  0
 13 20  1  0  0  0  0
 14 19  1  0  0  0  0
 15 16  1  0  0  0  0
 16 17  1  0  0  0  0
 17 20  1  0  0  0  0
 18 20  1  0  0  0  0
  3 21  1  0  0  0  0
  4 22  1  0  0  0  0
  6 23  1  0  0  0  0
  8 24  1  0  0  0  0
 14 25  1  0  0  0  0
 14 26  1  0  0  0  0
 15 27  1  0  0  0  0
 15 28  1  0  0  0  0
 16 29  1  0  0  0  0
 16 30  1  0  0  0  0
 17 31  1  0  0  0  0
 17 32  1  0  0  0  0
 20 33  1  0  0  0  0
M  END
> <pdb_id>
4DPY

> <uniprot_id>
Q9FD73

> <usmiles>
P(=O)(OP(=O)(O)O)(OCC(=O)N1[C@H](C(=O)O)CCC1)O

$$$$
2P1_A_601
          07202407493D 1   1.00000     0.00000     0
            
 47 50  0  0  0  0            999 V2000
    8.3946   -2.9440   46.1288 S   0  0  0  0  0  0  0  0  0  0  0  0
   13.8433   -1.1778   47.5964 F   0  0  0  0  0  0  0  0  0  0  0  0
   12.6350    0.1907   46.2972 F   0  0  0  0  0  0  0  0  0  0  0  0
   12.9235    0.7181   48.4916 F   0  0  0  0  0  0  0  0  0  0  0  0
    7.3386   -3.6051   46.8205 O   0  0  0  0  0  0  0  0  0  0  0  0
    8.1806   -1.8455   45.2585 O   0  0  0  0  0  0  0  0  0  0  0  0
   10.1615   -8.1909   42.4789 O   0  0  0  0  0  0  0  0  0  0  0  0
   10.9271   -7.9533   35.6584 N   0  0  0  0  0  0  0  0  0  0  0  0
    9.8944   -8.6781   36.2547 N   0  0  0  0  0  0  0  0  0  0  0  0
   11.9637   -6.9912   41.9874 N   0  0  0  0  0  0  0  0  0  0  0  0
    9.2595   -9.0205   38.6063 N   0  0  0  0  0  0  0  0  0  0  0  0
   11.6886   -7.4069   36.5680 C   0  0  0  0  0  0  0  0  0  0  0  0
   12.1788   -6.8110   43.4253 C   0  0  0  0  0  0  0  0  0  0  0  0
    9.5399   -8.7622   39.8613 C   0  0  0  0  0  0  0  0  0  0  0  0
   10.0912   -1.9917   49.6903 C   0  0  0  0  0  0  0  0  0  0  0  0
    9.2305   -2.4944   48.7253 C   0  0  0  0  0  0  0  0  0  0  0  0
   10.1215   -3.7351   44.2022 C   0  0  0  0  0  0  0  0  0  0  0  0
    9.6875   -5.3669   45.8878 C   0  0  0  0  0  0  0  0  0  0  0  0
   11.2225   -1.2918   49.2970 C   0  0  0  0  0  0  0  0  0  0  0  0
   10.9887   -4.6058   43.5794 C   0  0  0  0  0  0  0  0  0  0  0  0
   10.5578   -6.2425   45.2554 C   0  0  0  0  0  0  0  0  0  0  0  0
   10.6251   -1.5942   46.9967 C   0  0  0  0  0  0  0  0  0  0  0  0
   11.4665   -7.4518   39.1966 C   0  0  0  0  0  0  0  0  0  0  0  0
    9.4609   -4.1089   45.3536 C   0  0  0  0  0  0  0  0  0  0  0  0
    9.4875   -2.3028   47.3721 C   0  0  0  0  0  0  0  0  0  0  0  0
   10.9083   -7.7315   41.6234 C   0  0  0  0  0  0  0  0  0  0  0  0
    9.9917   -8.5476   37.6100 C   0  0  0  0  0  0  0  0  0  0  0  0
   11.2071   -5.8633   44.0911 C   0  0  0  0  0  0  0  0  0  0  0  0
   10.6383   -7.9746   40.1994 C   0  0  0  0  0  0  0  0  0  0  0  0
   11.1285   -7.7432   37.8718 C   0  0  0  0  0  0  0  0  0  0  0  0
   11.4895   -1.0886   47.9595 C   0  0  0  0  0  0  0  0  0  0  0  0
   12.7370   -0.3254   47.5807 C   0  0  0  0  0  0  0  0  0  0  0  0
    9.1978   -9.2062   35.7691 H   0  0  0  0  0  0  0  0  0  0  0  0
   12.5751   -6.5814   41.3105 H   0  0  0  0  0  0  0  0  0  0  0  0
   12.5073   -6.8576   36.4007 H   0  0  0  0  0  0  0  0  0  0  0  0
   13.1037   -6.4558   43.5605 H   0  0  0  0  0  0  0  0  0  0  0  0
   12.0967   -7.7041   43.8676 H   0  0  0  0  0  0  0  0  0  0  0  0
    8.9582   -9.1351   40.5842 H   0  0  0  0  0  0  0  0  0  0  0  0
    9.8977   -2.1328   50.6612 H   0  0  0  0  0  0  0  0  0  0  0  0
    8.4152   -3.0007   49.0063 H   0  0  0  0  0  0  0  0  0  0  0  0
    9.9699   -2.8251   43.8164 H   0  0  0  0  0  0  0  0  0  0  0  0
    9.2236   -5.6437   46.7293 H   0  0  0  0  0  0  0  0  0  0  0  0
   11.8489   -0.9320   49.9885 H   0  0  0  0  0  0  0  0  0  0  0  0
   11.4640   -4.3205   42.7471 H   0  0  0  0  0  0  0  0  0  0  0  0
   10.7174   -7.1512   45.6412 H   0  0  0  0  0  0  0  0  0  0  0  0
   10.8216   -1.4480   46.0272 H   0  0  0  0  0  0  0  0  0  0  0  0
   12.2658   -6.8938   39.4196 H   0  0  0  0  0  0  0  0  0  0  0  0
  1  5  2  0  0  0  0
  1  6  2  0  0  0  0
  1 24  1  0  0  0  0
  1 25  1  0  0  0  0
  2 32  1  0  0  0  0
  3 32  1  0  0  0  0
  4 32  1  0  0  0  0
  7 26  2  0  0  0  0
  8  9  1  0  0  0  0
  8 12  2  0  0  0  0
  9 27  1  0  0  0  0
 10 13  1  0  0  0  0
 10 26  1  0  0  0  0
 11 14  1  0  0  0  0
 11 27  2  0  0  0  0
 12 30  1  0  0  0  0
 13 28  1  0  0  0  0
 14 29  2  0  0  0  0
 15 16  2  0  0  0  0
 15 19  1  0  0  0  0
 16 25  1  0  0  0  0
 17 20  2  0  0  0  0
 17 24  1  0  0  0  0
 18 21  1  0  0  0  0
 18 24  2  0  0  0  0
 19 31  2  0  0  0  0
 20 28  1  0  0  0  0
 21 28  2  0  0  0  0
 22 25  2  0  0  0  0
 22 31  1  0  0  0  0
 23 29  1  0  0  0  0
 23 30  2  0  0  0  0
 26 29  1  0  0  0  0
 27 30  1  0  0  0  0
 31 32  1  0  0  0  0
  9 33  1  0  0  0  0
 10 34  1  0  0  0  0
 12 35  1  0  0  0  0
 13 36  1  0  0  0  0
 13 37  1  0  0  0  0
 14 38  1  0  0  0  0
 15 39  1  0  0  0  0
 16 40  1  0  0  0  0
 17 41  1  0  0  0  0
 18 42  1  0  0  0  0
 19 43  1  0  0  0  0
 20 44  1  0  0  0  0
 21 45  1  0  0  0  0
 22 46  1  0  0  0  0
 23 47  1  0  0  0  0
M  END
> <pdb_id>
4O13

> <uniprot_id>
P43490

> <usmiles>
S(=O)(=O)(c1cc(ccc1)C(F)(F)F)c2ccc(cc2)CNC(=O)c3cnc4NN=Cc4c3

$$$$
2Q8_A_4000
          07192420423D 1   1.00000     0.00000     0
            
 51 54  0  0  0  0            999 V2000
   65.4806   34.6542   23.2901 O   0  0  0  0  0  0  0  0  0  0  0  0
   76.0449   33.0866   25.0979 O   0  0  0  0  0  0  0  0  0  0  0  0
   65.1130   33.5616   25.2185 N   0  0  0  0  0  0  0  0  0  0  0  0
   72.9368   37.5820   26.5905 N   0  0  0  0  0  0  0  0  0  0  0  0
   71.5911   34.2639   25.2143 N   0  0  0  0  0  0  0  0  0  0  0  0
   72.5432   38.9981   26.6344 C   0  0  0  0  0  0  0  0  0  0  0  0
   72.9456   29.6146   23.6972 C   0  0  0  0  0  0  0  0  0  0  0  0
   73.4824   31.6666   22.3993 C   0  0  0  0  0  0  0  0  0  0  0  0
   74.2304   37.4217   25.9277 C   0  0  0  0  0  0  0  0  0  0  0  0
   71.9064   36.7841   25.9305 C   0  0  0  0  0  0  0  0  0  0  0  0
   74.7703   35.9914   25.9493 C   0  0  0  0  0  0  0  0  0  0  0  0
   69.5488   35.1846   24.1924 C   0  0  0  0  0  0  0  0  0  0  0  0
   69.3758   33.2600   25.6491 C   0  0  0  0  0  0  0  0  0  0  0  0
   68.1767   35.1565   24.0013 C   0  0  0  0  0  0  0  0  0  0  0  0
   68.0033   33.2320   25.4359 C   0  0  0  0  0  0  0  0  0  0  0  0
   74.5548   31.2913   24.6442 C   0  0  0  0  0  0  0  0  0  0  0  0
   72.1219   31.8272   24.5105 C   0  0  0  0  0  0  0  0  0  0  0  0
   65.9076   34.1485   24.3298 C   0  0  0  0  0  0  0  0  0  0  0  0
   74.8778   32.7208   25.0211 C   0  0  0  0  0  0  0  0  0  0  0  0
   70.1589   34.2370   25.0202 C   0  0  0  0  0  0  0  0  0  0  0  0
   72.3120   35.3822   25.5976 C   0  0  0  0  0  0  0  0  0  0  0  0
   72.4665   33.2042   24.9947 C   0  0  0  0  0  0  0  0  0  0  0  0
   67.3883   34.1776   24.6112 C   0  0  0  0  0  0  0  0  0  0  0  0
   73.6438   35.0407   25.6220 C   0  0  0  0  0  0  0  0  0  0  0  0
   73.7523   33.6517   25.2451 C   0  0  0  0  0  0  0  0  0  0  0  0
   73.2774   31.1010   23.8093 C   0  0  0  0  0  0  0  0  0  0  0  0
   65.5008   33.1634   26.0498 H   0  0  0  0  0  0  0  0  0  0  0  0
   64.1273   33.5182   25.0560 H   0  0  0  0  0  0  0  0  0  0  0  0
   71.6577   39.0840   27.0909 H   0  0  0  0  0  0  0  0  0  0  0  0
   73.2307   39.5196   27.1397 H   0  0  0  0  0  0  0  0  0  0  0  0
   72.4737   39.3537   25.7023 H   0  0  0  0  0  0  0  0  0  0  0  0
   72.8094   29.2336   24.6116 H   0  0  0  0  0  0  0  0  0  0  0  0
   72.1100   29.4992   23.1601 H   0  0  0  0  0  0  0  0  0  0  0  0
   73.7002   29.1378   23.2464 H   0  0  0  0  0  0  0  0  0  0  0  0
   73.7006   32.6407   22.4593 H   0  0  0  0  0  0  0  0  0  0  0  0
   74.2353   31.1834   21.9525 H   0  0  0  0  0  0  0  0  0  0  0  0
   72.6452   31.5448   21.8662 H   0  0  0  0  0  0  0  0  0  0  0  0
   74.8933   38.0144   26.3852 H   0  0  0  0  0  0  0  0  0  0  0  0
   74.1319   37.7057   24.9739 H   0  0  0  0  0  0  0  0  0  0  0  0
   71.6542   37.2449   25.0797 H   0  0  0  0  0  0  0  0  0  0  0  0
   71.1112   36.7421   26.5353 H   0  0  0  0  0  0  0  0  0  0  0  0
   75.1329   35.7827   26.8576 H   0  0  0  0  0  0  0  0  0  0  0  0
   75.4981   35.8966   25.2701 H   0  0  0  0  0  0  0  0  0  0  0  0
   70.1027   35.8825   23.7385 H   0  0  0  0  0  0  0  0  0  0  0  0
   69.8037   32.5846   26.2498 H   0  0  0  0  0  0  0  0  0  0  0  0
   67.7452   35.8458   23.4192 H   0  0  0  0  0  0  0  0  0  0  0  0
   67.4489   32.5268   25.8779 H   0  0  0  0  0  0  0  0  0  0  0  0
   74.4525   30.7654   25.4885 H   0  0  0  0  0  0  0  0  0  0  0  0
   75.3242   30.9299   24.1175 H   0  0  0  0  0  0  0  0  0  0  0  0
   71.3612   31.9025   23.8658 H   0  0  0  0  0  0  0  0  0  0  0  0
   71.8387   31.2794   25.2977 H   0  0  0  0  0  0  0  0  0  0  0  0
  1 18  2  0  0  0  0
  2 19  2  0  0  0  0
  3 18  1  0  0  0  0
  4  6  1  0  0  0  0
  4  9  1  0  0  0  0
  4 10  1  0  0  0  0
  5 20  1  0  0  0  0
  5 21  1  0  0  0  0
  5 22  1  0  0  0  0
  7 26  1  0  0  0  0
  8 26  1  0  0  0  0
  9 11  1  0  0  0  0
 10 21  1  0  0  0  0
 11 24  1  0  0  0  0
 12 14  1  0  0  0  0
 12 20  2  0  0  0  0
 13 15  2  0  0  0  0
 13 20  1  0  0  0  0
 14 23  2  0  0  0  0
 15 23  1  0  0  0  0
 16 19  1  0  0  0  0
 16 26  1  0  0  0  0
 17 22  1  0  0  0  0
 17 26  1  0  0  0  0
 18 23  1  0  0  0  0
 19 25  1  0  0  0  0
 21 24  2  0  0  0  0
 22 25  2  0  0  0  0
 24 25  1  0  0  0  0
  3 27  1  0  0  0  0
  3 28  1  0  0  0  0
  6 29  1  0  0  0  0
  6 30  1  0  0  0  0
  6 31  1  0  0  0  0
  7 32  1  0  0  0  0
  7 33  1  0  0  0  0
  7 34  1  0  0  0  0
  8 35  1  0  0  0  0
  8 36  1  0  0  0  0
  8 37  1  0  0  0  0
  9 38  1  0  0  0  0
  9 39  1  0  0  0  0
 10 40  1  0  0  0  0
 10 41  1  0  0  0  0
 11 42  1  0  0  0  0
 11 43  1  0  0  0  0
 12 44  1  0  0  0  0
 13 45  1  0  0  0  0
 14 46  1  0  0  0  0
 15 47  1  0  0  0  0
 16 48  1  0  0  0  0
 16 49  1  0  0  0  0
 17 50  1  0  0  0  0
 17 51  1  0  0  0  0
M  END
> <pdb_id>
4O04

> <uniprot_id>
P07900

> <usmiles>
O=C(N)c1ccc(N2C3=C(C=4C(=O)CC(CC24)(C)C)CCN(C3)C)cc1

$$$$
2Q9_A_4000
          07192420423D 1   1.00000     0.00000     0
            
 66 70  0  0  0  0            999 V2000
   65.4153   34.6191   23.1636 O   0  0  0  0  0  0  0  0  0  0  0  0
   75.9507   33.2014   25.1222 O   0  0  0  0  0  0  0  0  0  0  0  0
   65.1660   33.3638   24.9963 N   0  0  0  0  0  0  0  0  0  0  0  0
   67.6344   36.1873   22.9862 N   0  0  0  0  0  0  0  0  0  0  0  0
   72.8391   37.6728   26.6813 N   0  0  0  0  0  0  0  0  0  0  0  0
   71.5125   34.3639   25.2709 N   0  0  0  0  0  0  0  0  0  0  0  0
   72.4301   39.0872   26.7469 C   0  0  0  0  0  0  0  0  0  0  0  0
   67.6784   37.2987   20.8272 C   0  0  0  0  0  0  0  0  0  0  0  0
   68.5485   38.4736   22.8501 C   0  0  0  0  0  0  0  0  0  0  0  0
   72.8683   29.7426   23.6895 C   0  0  0  0  0  0  0  0  0  0  0  0
   73.3780   31.8217   22.4191 C   0  0  0  0  0  0  0  0  0  0  0  0
   65.6483   32.7055   26.2241 C   0  0  0  0  0  0  0  0  0  0  0  0
   74.1393   37.5327   26.0281 C   0  0  0  0  0  0  0  0  0  0  0  0
   71.8165   36.8748   26.0110 C   0  0  0  0  0  0  0  0  0  0  0  0
   67.0883   32.2689   26.0815 C   0  0  0  0  0  0  0  0  0  0  0  0
   74.6877   36.1018   26.0055 C   0  0  0  0  0  0  0  0  0  0  0  0
   69.5356   35.2677   24.1632 C   0  0  0  0  0  0  0  0  0  0  0  0
   69.2919   33.3968   25.6950 C   0  0  0  0  0  0  0  0  0  0  0  0
   74.4738   31.4120   24.6478 C   0  0  0  0  0  0  0  0  0  0  0  0
   72.0378   31.9363   24.5455 C   0  0  0  0  0  0  0  0  0  0  0  0
   65.9129   34.1157   24.1653 C   0  0  0  0  0  0  0  0  0  0  0  0
   68.3783   37.1485   22.1510 C   0  0  0  0  0  0  0  0  0  0  0  0
   74.7920   32.8346   25.0470 C   0  0  0  0  0  0  0  0  0  0  0  0
   68.1671   35.2649   23.8886 C   0  0  0  0  0  0  0  0  0  0  0  0
   70.0907   34.3454   25.0507 C   0  0  0  0  0  0  0  0  0  0  0  0
   72.2318   35.4794   25.6598 C   0  0  0  0  0  0  0  0  0  0  0  0
   72.3859   33.3139   25.0285 C   0  0  0  0  0  0  0  0  0  0  0  0
   67.9266   33.3400   25.4264 C   0  0  0  0  0  0  0  0  0  0  0  0
   73.5640   35.1505   25.6580 C   0  0  0  0  0  0  0  0  0  0  0  0
   67.3535   34.2689   24.5126 C   0  0  0  0  0  0  0  0  0  0  0  0
   73.6721   33.7671   25.2582 C   0  0  0  0  0  0  0  0  0  0  0  0
   73.1913   31.2293   23.8211 C   0  0  0  0  0  0  0  0  0  0  0  0
   64.2020   33.2416   24.7604 H   0  0  0  0  0  0  0  0  0  0  0  0
   66.6385   36.1973   22.8961 H   0  0  0  0  0  0  0  0  0  0  0  0
   71.5398   39.1563   27.1969 H   0  0  0  0  0  0  0  0  0  0  0  0
   73.1079   39.6064   27.2676 H   0  0  0  0  0  0  0  0  0  0  0  0
   72.3652   39.4587   25.8208 H   0  0  0  0  0  0  0  0  0  0  0  0
   68.1795   37.9499   20.2572 H   0  0  0  0  0  0  0  0  0  0  0  0
   67.6421   36.4118   20.3668 H   0  0  0  0  0  0  0  0  0  0  0  0
   66.7486   37.6343   20.9779 H   0  0  0  0  0  0  0  0  0  0  0  0
   69.0554   39.1002   22.2580 H   0  0  0  0  0  0  0  0  0  0  0  0
   67.6493   38.8612   23.0533 H   0  0  0  0  0  0  0  0  0  0  0  0
   69.0535   38.3384   23.7025 H   0  0  0  0  0  0  0  0  0  0  0  0
   72.7445   29.3465   24.5993 H   0  0  0  0  0  0  0  0  0  0  0  0
   72.0277   29.6298   23.1597 H   0  0  0  0  0  0  0  0  0  0  0  0
   73.6210   29.2779   23.2232 H   0  0  0  0  0  0  0  0  0  0  0  0
   73.5902   32.7960   22.4945 H   0  0  0  0  0  0  0  0  0  0  0  0
   74.1295   31.3518   21.9560 H   0  0  0  0  0  0  0  0  0  0  0  0
   72.5361   31.7037   21.8925 H   0  0  0  0  0  0  0  0  0  0  0  0
   65.0809   31.9028   26.4081 H   0  0  0  0  0  0  0  0  0  0  0  0
   65.5761   33.3469   26.9879 H   0  0  0  0  0  0  0  0  0  0  0  0
   74.7959   38.1113   26.5119 H   0  0  0  0  0  0  0  0  0  0  0  0
   74.0499   37.8480   25.0833 H   0  0  0  0  0  0  0  0  0  0  0  0
   71.5612   37.3444   25.1659 H   0  0  0  0  0  0  0  0  0  0  0  0
   71.0213   36.8191   26.6148 H   0  0  0  0  0  0  0  0  0  0  0  0
   67.1233   31.4408   25.5221 H   0  0  0  0  0  0  0  0  0  0  0  0
   67.4605   32.0742   26.9890 H   0  0  0  0  0  0  0  0  0  0  0  0
   75.0574   35.8700   26.9053 H   0  0  0  0  0  0  0  0  0  0  0  0
   75.4116   36.0308   25.3193 H   0  0  0  0  0  0  0  0  0  0  0  0
   70.1265   35.9401   23.7175 H   0  0  0  0  0  0  0  0  0  0  0  0
   69.7003   32.7595   26.3484 H   0  0  0  0  0  0  0  0  0  0  0  0
   74.3817   30.8706   25.4835 H   0  0  0  0  0  0  0  0  0  0  0  0
   75.2406   31.0644   24.1082 H   0  0  0  0  0  0  0  0  0  0  0  0
   71.2653   32.0083   23.9146 H   0  0  0  0  0  0  0  0  0  0  0  0
   71.7732   31.3821   25.3347 H   0  0  0  0  0  0  0  0  0  0  0  0
   69.2879   36.7701   21.9792 H   0  0  0  0  0  0  0  0  0  0  0  0
  1 21  2  0  0  0  0
  2 23  2  0  0  0  0
  3 12  1  0  0  0  0
  3 21  1  0  0  0  0
  4 22  1  0  0  0  0
  4 24  1  0  0  0  0
  5  7  1  0  0  0  0
  5 13  1  0  0  0  0
  5 14  1  0  0  0  0
  6 25  1  0  0  0  0
  6 26  1  0  0  0  0
  6 27  1  0  0  0  0
  8 22  1  0  0  0  0
  9 22  1  0  0  0  0
 10 32  1  0  0  0  0
 11 32  1  0  0  0  0
 12 15  1  0  0  0  0
 13 16  1  0  0  0  0
 14 26  1  0  0  0  0
 15 28  1  0  0  0  0
 16 29  1  0  0  0  0
 17 24  1  0  0  0  0
 17 25  2  0  0  0  0
 18 25  1  0  0  0  0
 18 28  2  0  0  0  0
 19 23  1  0  0  0  0
 19 32  1  0  0  0  0
 20 27  1  0  0  0  0
 20 32  1  0  0  0  0
 21 30  1  0  0  0  0
 23 31  1  0  0  0  0
 24 30  2  0  0  0  0
 26 29  2  0  0  0  0
 27 31  2  0  0  0  0
 28 30  1  0  0  0  0
 29 31  1  0  0  0  0
  3 33  1  0  0  0  0
  4 34  1  0  0  0  0
  7 35  1  0  0  0  0
  7 36  1  0  0  0  0
  7 37  1  0  0  0  0
  8 38  1  0  0  0  0
  8 39  1  0  0  0  0
  8 40  1  0  0  0  0
  9 41  1  0  0  0  0
  9 42  1  0  0  0  0
  9 43  1  0  0  0  0
 10 44  1  0  0  0  0
 10 45  1  0  0  0  0
 10 46  1  0  0  0  0
 11 47  1  0  0  0  0
 11 48  1  0  0  0  0
 11 49  1  0  0  0  0
 12 50  1  0  0  0  0
 12 51  1  0  0  0  0
 13 52  1  0  0  0  0
 13 53  1  0  0  0  0
 14 54  1  0  0  0  0
 14 55  1  0  0  0  0
 15 56  1  0  0  0  0
 15 57  1  0  0  0  0
 16 58  1  0  0  0  0
 16 59  1  0  0  0  0
 17 60  1  0  0  0  0
 18 61  1  0  0  0  0
 19 62  1  0  0  0  0
 19 63  1  0  0  0  0
 20 64  1  0  0  0  0
 20 65  1  0  0  0  0
 22 66  1  0  0  0  0
M  END
> <pdb_id>
4O05

> <uniprot_id>
P07900

> <usmiles>
O=C1NCCc2c1c(NC(C)C)cc(N3C4=C(C=5C(=O)CC(CC35)(C)C)CCN(C4)C)c2

$$$$
2QA_A_4000
          07192420423D 1   1.00000     0.00000     0
            
 59 63  0  0  0  0            999 V2000
   65.5585   34.5937   23.1849 O   0  0  0  0  0  0  0  0  0  0  0  0
   76.0647   33.2799   25.1937 O   0  0  0  0  0  0  0  0  0  0  0  0
   65.2720   33.3421   25.0078 N   0  0  0  0  0  0  0  0  0  0  0  0
   71.5839   34.3942   25.5618 N   0  0  0  0  0  0  0  0  0  0  0  0
   74.7783   36.1728   26.1586 C   0  0  0  0  0  0  0  0  0  0  0  0
   72.9448   29.8705   23.6975 C   0  0  0  0  0  0  0  0  0  0  0  0
   73.3907   31.9861   22.4702 C   0  0  0  0  0  0  0  0  0  0  0  0
   65.7464   32.6352   26.2124 C   0  0  0  0  0  0  0  0  0  0  0  0
   72.3385   35.4858   25.9492 C   0  0  0  0  0  0  0  0  0  0  0  0
   67.6221   38.4577   21.9092 C   0  0  0  0  0  0  0  0  0  0  0  0
   67.4718   39.1265   23.2635 C   0  0  0  0  0  0  0  0  0  0  0  0
   67.1645   32.1830   25.9353 C   0  0  0  0  0  0  0  0  0  0  0  0
   68.0247   37.0029   22.1669 C   0  0  0  0  0  0  0  0  0  0  0  0
   67.9489   38.1209   24.2872 C   0  0  0  0  0  0  0  0  0  0  0  0
   69.3658   33.3557   25.7417 C   0  0  0  0  0  0  0  0  0  0  0  0
   69.6030   35.4978   24.6221 C   0  0  0  0  0  0  0  0  0  0  0  0
   74.5766   31.5220   24.6403 C   0  0  0  0  0  0  0  0  0  0  0  0
   72.1333   32.0326   24.6486 C   0  0  0  0  0  0  0  0  0  0  0  0
   66.0217   34.1523   24.2311 C   0  0  0  0  0  0  0  0  0  0  0  0
   74.8957   32.9272   25.0959 C   0  0  0  0  0  0  0  0  0  0  0  0
   70.1596   34.4234   25.3196 C   0  0  0  0  0  0  0  0  0  0  0  0
   72.4778   33.3845   25.2007 C   0  0  0  0  0  0  0  0  0  0  0  0
   73.6672   35.2025   25.8518 C   0  0  0  0  0  0  0  0  0  0  0  0
   67.6405   36.7451   23.6394 C   0  0  0  0  0  0  0  0  0  0  0  0
   68.0115   33.3240   25.4219 C   0  0  0  0  0  0  0  0  0  0  0  0
   68.2396   35.5087   24.2972 C   0  0  0  0  0  0  0  0  0  0  0  0
   73.7679   33.8463   25.3841 C   0  0  0  0  0  0  0  0  0  0  0  0
   67.4386   34.3869   24.6599 C   0  0  0  0  0  0  0  0  0  0  0  0
   73.2631   31.3548   23.8608 C   0  0  0  0  0  0  0  0  0  0  0  0
   64.3163   33.2102   24.7450 H   0  0  0  0  0  0  0  0  0  0  0  0
   75.6609   35.7264   26.0109 H   0  0  0  0  0  0  0  0  0  0  0  0
   74.7021   36.9679   25.5570 H   0  0  0  0  0  0  0  0  0  0  0  0
   74.7094   36.4680   27.1115 H   0  0  0  0  0  0  0  0  0  0  0  0
   72.8589   29.4468   24.5992 H   0  0  0  0  0  0  0  0  0  0  0  0
   72.0850   29.7670   23.1973 H   0  0  0  0  0  0  0  0  0  0  0  0
   73.6819   29.4255   23.1889 H   0  0  0  0  0  0  0  0  0  0  0  0
   73.5994   32.9596   22.5639 H   0  0  0  0  0  0  0  0  0  0  0  0
   74.1264   31.5346   21.9653 H   0  0  0  0  0  0  0  0  0  0  0  0
   72.5296   31.8761   21.9738 H   0  0  0  0  0  0  0  0  0  0  0  0
   65.1640   31.8435   26.3970 H   0  0  0  0  0  0  0  0  0  0  0  0
   65.7307   33.2513   26.9999 H   0  0  0  0  0  0  0  0  0  0  0  0
   71.9622   36.3595   26.2573 H   0  0  0  0  0  0  0  0  0  0  0  0
   68.3300   38.9199   21.3752 H   0  0  0  0  0  0  0  0  0  0  0  0
   66.7549   38.4906   21.4124 H   0  0  0  0  0  0  0  0  0  0  0  0
   66.5142   39.3620   23.4292 H   0  0  0  0  0  0  0  0  0  0  0  0
   68.0307   39.9548   23.3048 H   0  0  0  0  0  0  0  0  0  0  0  0
   67.1468   31.4556   25.2493 H   0  0  0  0  0  0  0  0  0  0  0  0
   67.5666   31.8334   26.7815 H   0  0  0  0  0  0  0  0  0  0  0  0
   69.0080   36.8800   22.0323 H   0  0  0  0  0  0  0  0  0  0  0  0
   67.5253   36.3858   21.5589 H   0  0  0  0  0  0  0  0  0  0  0  0
   67.4513   38.2274   25.1480 H   0  0  0  0  0  0  0  0  0  0  0  0
   68.9296   38.2226   24.4544 H   0  0  0  0  0  0  0  0  0  0  0  0
   69.7705   32.6126   26.2745 H   0  0  0  0  0  0  0  0  0  0  0  0
   70.1826   36.2666   24.3519 H   0  0  0  0  0  0  0  0  0  0  0  0
   74.5282   30.9398   25.4518 H   0  0  0  0  0  0  0  0  0  0  0  0
   75.3239   31.2128   24.0522 H   0  0  0  0  0  0  0  0  0  0  0  0
   71.3472   32.1360   24.0393 H   0  0  0  0  0  0  0  0  0  0  0  0
   71.8863   31.4375   25.4134 H   0  0  0  0  0  0  0  0  0  0  0  0
   66.6472   36.6316   23.6626 H   0  0  0  0  0  0  0  0  0  0  0  0
  1 19  2  0  0  0  0
  2 20  2  0  0  0  0
  3  8  1  0  0  0  0
  3 19  1  0  0  0  0
  4  9  1  0  0  0  0
  4 21  1  0  0  0  0
  4 22  1  0  0  0  0
  5 23  1  0  0  0  0
  6 29  1  0  0  0  0
  7 29  1  0  0  0  0
  8 12  1  0  0  0  0
  9 23  2  0  0  0  0
 10 11  1  0  0  0  0
 10 13  1  0  0  0  0
 11 14  1  0  0  0  0
 12 25  1  0  0  0  0
 13 24  1  0  0  0  0
 14 24  1  0  0  0  0
 15 21  2  0  0  0  0
 15 25  1  0  0  0  0
 16 21  1  0  0  0  0
 16 26  2  0  0  0  0
 17 20  1  0  0  0  0
 17 29  1  0  0  0  0
 18 22  1  0  0  0  0
 18 29  1  0  0  0  0
 19 28  1  0  0  0  0
 20 27  1  0  0  0  0
 22 27  2  0  0  0  0
 23 27  1  0  0  0  0
 24 26  1  0  0  0  0
 25 28  2  0  0  0  0
 26 28  1  0  0  0  0
  3 30  1  0  0  0  0
  5 31  1  0  0  0  0
  5 32  1  0  0  0  0
  5 33  1  0  0  0  0
  6 34  1  0  0  0  0
  6 35  1  0  0  0  0
  6 36  1  0  0  0  0
  7 37  1  0  0  0  0
  7 38  1  0  0  0  0
  7 39  1  0  0  0  0
  8 40  1  0  0  0  0
  8 41  1  0  0  0  0
  9 42  1  0  0  0  0
 10 43  1  0  0  0  0
 10 44  1  0  0  0  0
 11 45  1  0  0  0  0
 11 46  1  0  0  0  0
 12 47  1  0  0  0  0
 12 48  1  0  0  0  0
 13 49  1  0  0  0  0
 13 50  1  0  0  0  0
 14 51  1  0  0  0  0
 14 52  1  0  0  0  0
 15 53  1  0  0  0  0
 16 54  1  0  0  0  0
 17 55  1  0  0  0  0
 17 56  1  0  0  0  0
 18 57  1  0  0  0  0
 18 58  1  0  0  0  0
 24 59  1  0  0  0  0
M  END
> <pdb_id>
4O0B

> <uniprot_id>
P07900

> <usmiles>
O=C1NCCc2c1c(cc(N3C4=C(C(=O)CC(C4)(C)C)C(=C3)C)c2)C5CCCC5

$$$$
2QF_A_601
          07202407493D 1   1.00000     0.00000     0
            
 46 49  0  0  0  0            999 V2000
    8.3198   -2.8908   46.0792 S   0  0  0  0  0  0  0  0  0  0  0  0
   12.7241   -0.3274   46.9410 F   0  0  0  0  0  0  0  0  0  0  0  0
   10.4052   -2.1061   50.6664 F   0  0  0  0  0  0  0  0  0  0  0  0
    8.0235   -1.8441   45.1356 O   0  0  0  0  0  0  0  0  0  0  0  0
    7.2979   -3.5077   46.8564 O   0  0  0  0  0  0  0  0  0  0  0  0
   10.1401   -8.1883   42.5634 O   0  0  0  0  0  0  0  0  0  0  0  0
   11.9527   -6.9898   42.0291 N   0  0  0  0  0  0  0  0  0  0  0  0
   10.1009   -8.4820   37.6103 N   0  0  0  0  0  0  0  0  0  0  0  0
   12.1371   -6.7954   43.4612 C   0  0  0  0  0  0  0  0  0  0  0  0
    9.9703   -8.6099   36.2567 C   0  0  0  0  0  0  0  0  0  0  0  0
    9.3455   -9.0533   38.5919 C   0  0  0  0  0  0  0  0  0  0  0  0
   10.9394   -7.8370   35.6950 C   0  0  0  0  0  0  0  0  0  0  0  0
    9.8523   -3.8584   44.0685 C   0  0  0  0  0  0  0  0  0  0  0  0
    9.7805   -5.2629   45.9876 C   0  0  0  0  0  0  0  0  0  0  0  0
   11.6845   -7.2474   36.7247 C   0  0  0  0  0  0  0  0  0  0  0  0
    9.5827   -8.8418   39.8823 C   0  0  0  0  0  0  0  0  0  0  0  0
   10.7250   -4.7339   43.4670 C   0  0  0  0  0  0  0  0  0  0  0  0
   10.6588   -6.1374   45.3669 C   0  0  0  0  0  0  0  0  0  0  0  0
   10.6694   -1.5166   46.6477 C   0  0  0  0  0  0  0  0  0  0  0  0
    9.5078   -2.4246   48.5191 C   0  0  0  0  0  0  0  0  0  0  0  0
   11.5910   -1.1855   48.8479 C   0  0  0  0  0  0  0  0  0  0  0  0
   11.4478   -7.3561   39.2948 C   0  0  0  0  0  0  0  0  0  0  0  0
    9.3562   -4.1078   45.3383 C   0  0  0  0  0  0  0  0  0  0  0  0
    9.5698   -2.2180   47.1530 C   0  0  0  0  0  0  0  0  0  0  0  0
   11.6750   -1.0044   47.4673 C   0  0  0  0  0  0  0  0  0  0  0  0
   10.5073   -1.8961   49.3363 C   0  0  0  0  0  0  0  0  0  0  0  0
   10.9003   -7.7316   41.7005 C   0  0  0  0  0  0  0  0  0  0  0  0
   11.1475   -7.6470   37.9371 C   0  0  0  0  0  0  0  0  0  0  0  0
   11.1356   -5.8743   44.0887 C   0  0  0  0  0  0  0  0  0  0  0  0
   10.6643   -7.9566   40.2738 C   0  0  0  0  0  0  0  0  0  0  0  0
   12.5693   -6.5961   41.3474 H   0  0  0  0  0  0  0  0  0  0  0  0
   13.0500   -6.4157   43.6114 H   0  0  0  0  0  0  0  0  0  0  0  0
   12.0686   -7.6863   43.9103 H   0  0  0  0  0  0  0  0  0  0  0  0
    9.2936   -9.1643   35.7722 H   0  0  0  0  0  0  0  0  0  0  0  0
    8.5876   -9.6515   38.3317 H   0  0  0  0  0  0  0  0  0  0  0  0
   11.0934   -7.7113   34.7149 H   0  0  0  0  0  0  0  0  0  0  0  0
    9.5715   -3.0303   43.5832 H   0  0  0  0  0  0  0  0  0  0  0  0
    9.4491   -5.4639   46.9095 H   0  0  0  0  0  0  0  0  0  0  0  0
   12.4706   -6.6410   36.6046 H   0  0  0  0  0  0  0  0  0  0  0  0
    9.0205   -9.2889   40.5780 H   0  0  0  0  0  0  0  0  0  0  0  0
   11.0670   -4.5284   42.5501 H   0  0  0  0  0  0  0  0  0  0  0  0
   10.9521   -6.9659   45.8438 H   0  0  0  0  0  0  0  0  0  0  0  0
   10.7372   -1.3769   45.6599 H   0  0  0  0  0  0  0  0  0  0  0  0
    8.7541   -2.9475   48.9170 H   0  0  0  0  0  0  0  0  0  0  0  0
   12.2878   -0.8157   49.4625 H   0  0  0  0  0  0  0  0  0  0  0  0
   12.1972   -6.7404   39.5381 H   0  0  0  0  0  0  0  0  0  0  0  0
  1  4  2  0  0  0  0
  1  5  2  0  0  0  0
  1 23  1  0  0  0  0
  1 24  1  0  0  0  0
  2 25  1  0  0  0  0
  3 26  1  0  0  0  0
  6 27  2  0  0  0  0
  7  9  1  0  0  0  0
  7 27  1  0  0  0  0
  8 10  1  0  0  0  0
  8 11  1  0  0  0  0
  8 28  1  0  0  0  0
  9 29  1  0  0  0  0
 10 12  2  0  0  0  0
 11 16  2  0  0  0  0
 12 15  1  0  0  0  0
 13 17  2  0  0  0  0
 13 23  1  0  0  0  0
 14 18  1  0  0  0  0
 14 23  2  0  0  0  0
 15 28  2  0  0  0  0
 16 30  1  0  0  0  0
 17 29  1  0  0  0  0
 18 29  2  0  0  0  0
 19 24  2  0  0  0  0
 19 25  1  0  0  0  0
 20 24  1  0  0  0  0
 20 26  2  0  0  0  0
 21 25  2  0  0  0  0
 21 26  1  0  0  0  0
 22 28  1  0  0  0  0
 22 30  2  0  0  0  0
 27 30  1  0  0  0  0
  7 31  1  0  0  0  0
  9 32  1  0  0  0  0
  9 33  1  0  0  0  0
 10 34  1  0  0  0  0
 11 35  1  0  0  0  0
 12 36  1  0  0  0  0
 13 37  1  0  0  0  0
 14 38  1  0  0  0  0
 15 39  1  0  0  0  0
 16 40  1  0  0  0  0
 17 41  1  0  0  0  0
 18 42  1  0  0  0  0
 19 43  1  0  0  0  0
 20 44  1  0  0  0  0
 21 45  1  0  0  0  0
 22 46  1  0  0  0  0
M  END
> <pdb_id>
4O10

> <uniprot_id>
P43490

> <usmiles>
S(=O)(=O)(c1cc(F)cc(F)c1)c2ccc(cc2)CNC(=O)C3=CC=4N(C=C3)C=CC4

$$$$
2QU_A_403
          07202405063D 1   1.00000     0.00000     0
            
 26 28  0  0  0  0            999 V2000
  -19.7455   -9.9639   30.8659 F   0  0  0  0  0  0  0  0  0  0  0  0
  -14.6229   -6.4194   32.8978 N   0  0  0  0  0  0  0  0  0  0  0  0
  -20.0488   -9.1116   28.7508 N   0  0  0  0  0  0  0  0  0  0  0  0
  -13.9656   -4.1482   32.5883 N   0  0  0  0  0  0  0  0  0  0  0  0
  -14.7809   -2.8672   30.7393 N   0  0  0  0  0  0  0  0  0  0  0  0
  -16.4537   -6.1404   30.6899 N   0  0  0  0  0  0  0  0  0  0  0  0
  -14.0444   -3.0578   31.8182 C   0  0  0  0  0  0  0  0  0  0  0  0
  -19.6469   -8.2405   27.8141 C   0  0  0  0  0  0  0  0  0  0  0  0
  -18.6979   -7.2627   28.0253 C   0  0  0  0  0  0  0  0  0  0  0  0
  -16.3546   -3.8148   29.2066 C   0  0  0  0  0  0  0  0  0  0  0  0
  -17.1410   -4.8564   28.8101 C   0  0  0  0  0  0  0  0  0  0  0  0
  -18.5146   -8.0078   30.2992 C   0  0  0  0  0  0  0  0  0  0  0  0
  -19.4534   -8.9911   29.9749 C   0  0  0  0  0  0  0  0  0  0  0  0
  -14.7523   -5.2428   32.2452 C   0  0  0  0  0  0  0  0  0  0  0  0
  -15.5786   -3.9226   30.3763 C   0  0  0  0  0  0  0  0  0  0  0  0
  -17.1889   -6.0124   29.5893 C   0  0  0  0  0  0  0  0  0  0  0  0
  -18.1318   -7.1190   29.2914 C   0  0  0  0  0  0  0  0  0  0  0  0
  -15.6322   -5.1367   31.1114 C   0  0  0  0  0  0  0  0  0  0  0  0
  -15.1945   -7.1988   32.6415 H   0  0  0  0  0  0  0  0  0  0  0  0
  -13.9555   -6.5104   33.6369 H   0  0  0  0  0  0  0  0  0  0  0  0
  -13.4712   -2.2868   32.0956 H   0  0  0  0  0  0  0  0  0  0  0  0
  -20.0611   -8.3038   26.9061 H   0  0  0  0  0  0  0  0  0  0  0  0
  -18.4180   -6.6617   27.2766 H   0  0  0  0  0  0  0  0  0  0  0  0
  -16.3293   -2.9739   28.6660 H   0  0  0  0  0  0  0  0  0  0  0  0
  -17.6779   -4.7919   27.9689 H   0  0  0  0  0  0  0  0  0  0  0  0
  -18.1303   -7.9427   31.2202 H   0  0  0  0  0  0  0  0  0  0  0  0
  1 13  1  0  0  0  0
  2 14  1  0  0  0  0
  3  8  2  0  0  0  0
  3 13  1  0  0  0  0
  4  7  1  0  0  0  0
  4 14  2  0  0  0  0
  5  7  2  0  0  0  0
  5 15  1  0  0  0  0
  6 16  1  0  0  0  0
  6 18  2  0  0  0  0
  8  9  1  0  0  0  0
  9 17  2  0  0  0  0
 10 11  1  0  0  0  0
 10 15  2  0  0  0  0
 11 16  2  0  0  0  0
 12 13  2  0  0  0  0
 12 17  1  0  0  0  0
 14 18  1  0  0  0  0
 15 18  1  0  0  0  0
 16 17  1  0  0  0  0
  2 19  1  0  0  0  0
  2 20  1  0  0  0  0
  7 21  1  0  0  0  0
  8 22  1  0  0  0  0
  9 23  1  0  0  0  0
 10 24  1  0  0  0  0
 11 25  1  0  0  0  0
 12 26  1  0  0  0  0
M  END
> <pdb_id>
4OBP

> <uniprot_id>
O95819

> <usmiles>
Fc1nccc(c2nc3c(ncnc3cc2)N)c1

$$$$
2QV_A_403
          07202405063D 1   1.00000     0.00000     0
            
 28 30  0  0  0  0            999 V2000
  -20.4014   -9.9768   31.0315 Cl  0  0  0  0  0  0  0  0  0  0  0  0
  -14.5773   -6.4167   32.9912 N   0  0  0  0  0  0  0  0  0  0  0  0
  -13.8149   -4.3529   32.3972 N   0  0  0  0  0  0  0  0  0  0  0  0
  -14.5880   -3.1046   30.6655 N   0  0  0  0  0  0  0  0  0  0  0  0
  -13.7667   -3.2556   31.7169 C   0  0  0  0  0  0  0  0  0  0  0  0
  -19.7825   -8.1010   27.4597 C   0  0  0  0  0  0  0  0  0  0  0  0
  -20.2756   -8.9823   28.5496 C   0  0  0  0  0  0  0  0  0  0  0  0
  -18.7998   -7.1981   27.8768 C   0  0  0  0  0  0  0  0  0  0  0  0
  -16.3537   -3.8726   29.2268 C   0  0  0  0  0  0  0  0  0  0  0  0
  -17.2749   -4.9106   28.9303 C   0  0  0  0  0  0  0  0  0  0  0  0
  -18.8455   -8.0099   30.3030 C   0  0  0  0  0  0  0  0  0  0  0  0
  -16.5031   -6.3687   30.8441 C   0  0  0  0  0  0  0  0  0  0  0  0
  -19.7981   -8.9119   29.8886 C   0  0  0  0  0  0  0  0  0  0  0  0
  -14.6553   -5.4181   32.2060 C   0  0  0  0  0  0  0  0  0  0  0  0
  -15.4981   -4.0497   30.3269 C   0  0  0  0  0  0  0  0  0  0  0  0
  -18.3272   -7.1435   29.3649 C   0  0  0  0  0  0  0  0  0  0  0  0
  -17.3334   -6.1667   29.7639 C   0  0  0  0  0  0  0  0  0  0  0  0
  -15.6000   -5.3806   31.1538 C   0  0  0  0  0  0  0  0  0  0  0  0
  -15.1841   -7.2013   32.8641 H   0  0  0  0  0  0  0  0  0  0  0  0
  -13.9092   -6.4167   33.7353 H   0  0  0  0  0  0  0  0  0  0  0  0
  -13.1272   -2.5295   31.9696 H   0  0  0  0  0  0  0  0  0  0  0  0
  -20.1205   -8.1489   26.5198 H   0  0  0  0  0  0  0  0  0  0  0  0
  -20.9784   -9.6593   28.3313 H   0  0  0  0  0  0  0  0  0  0  0  0
  -18.3915   -6.5751   27.2096 H   0  0  0  0  0  0  0  0  0  0  0  0
  -16.3149   -3.0422   28.6709 H   0  0  0  0  0  0  0  0  0  0  0  0
  -17.8970   -4.8075   28.1542 H   0  0  0  0  0  0  0  0  0  0  0  0
  -18.5389   -7.9838   31.2544 H   0  0  0  0  0  0  0  0  0  0  0  0
  -16.5559   -7.2077   31.3857 H   0  0  0  0  0  0  0  0  0  0  0  0
  1 13  1  0  0  0  0
  2 14  1  0  0  0  0
  3  5  1  0  0  0  0
  3 14  2  0  0  0  0
  4  5  2  0  0  0  0
  4 15  1  0  0  0  0
  6  7  2  0  0  0  0
  6  8  1  0  0  0  0
  7 13  1  0  0  0  0
  8 16  2  0  0  0  0
  9 10  1  0  0  0  0
  9 15  2  0  0  0  0
 10 17  2  0  0  0  0
 11 13  2  0  0  0  0
 11 16  1  0  0  0  0
 12 17  1  0  0  0  0
 12 18  2  0  0  0  0
 14 18  1  0  0  0  0
 15 18  1  0  0  0  0
 16 17  1  0  0  0  0
  2 19  1  0  0  0  0
  2 20  1  0  0  0  0
  5 21  1  0  0  0  0
  6 22  1  0  0  0  0
  7 23  1  0  0  0  0
  8 24  1  0  0  0  0
  9 25  1  0  0  0  0
 10 26  1  0  0  0  0
 11 27  1  0  0  0  0
 12 28  1  0  0  0  0
M  END
> <pdb_id>
4OBO

> <uniprot_id>
O95819

> <usmiles>
Clc1cc(c2cc3c(ncnc3cc2)N)ccc1

$$$$
2R6_A_4000
          07192420423D 1   1.00000     0.00000     0
            
 58 61  0  0  0  0            999 V2000
   65.7356   34.7937   23.0254 O   0  0  0  0  0  0  0  0  0  0  0  0
   76.1242   32.9992   25.0911 O   0  0  0  0  0  0  0  0  0  0  0  0
   65.3452   33.6107   24.8809 N   0  0  0  0  0  0  0  0  0  0  0  0
   71.6982   34.2448   25.5513 N   0  0  0  0  0  0  0  0  0  0  0  0
   67.1956   38.9664   22.9559 C   0  0  0  0  0  0  0  0  0  0  0  0
   68.2047   38.3966   25.1698 C   0  0  0  0  0  0  0  0  0  0  0  0
   74.9450   35.8964   26.1980 C   0  0  0  0  0  0  0  0  0  0  0  0
   73.4133   31.8399   22.3945 C   0  0  0  0  0  0  0  0  0  0  0  0
   72.8753   29.7214   23.5805 C   0  0  0  0  0  0  0  0  0  0  0  0
   65.7351   32.8840   26.1025 C   0  0  0  0  0  0  0  0  0  0  0  0
   72.4873   35.2991   25.9651 C   0  0  0  0  0  0  0  0  0  0  0  0
   67.1355   32.3387   25.9223 C   0  0  0  0  0  0  0  0  0  0  0  0
   68.1449   36.6724   23.2493 C   0  0  0  0  0  0  0  0  0  0  0  0
   69.4124   33.3684   25.7381 C   0  0  0  0  0  0  0  0  0  0  0  0
   69.8354   35.3746   24.4331 C   0  0  0  0  0  0  0  0  0  0  0  0
   74.5685   31.2907   24.5604 C   0  0  0  0  0  0  0  0  0  0  0  0
   72.1499   31.8980   24.5680 C   0  0  0  0  0  0  0  0  0  0  0  0
   66.1613   34.3283   24.0820 C   0  0  0  0  0  0  0  0  0  0  0  0
   74.9441   32.6795   25.0278 C   0  0  0  0  0  0  0  0  0  0  0  0
   67.4506   37.8446   23.9556 C   0  0  0  0  0  0  0  0  0  0  0  0
   70.2900   34.3407   25.2515 C   0  0  0  0  0  0  0  0  0  0  0  0
   72.5526   33.2179   25.1589 C   0  0  0  0  0  0  0  0  0  0  0  0
   73.8025   34.9762   25.8579 C   0  0  0  0  0  0  0  0  0  0  0  0
   68.0658   33.3958   25.3735 C   0  0  0  0  0  0  0  0  0  0  0  0
   68.4921   35.4469   24.0648 C   0  0  0  0  0  0  0  0  0  0  0  0
   73.8574   33.6306   25.3487 C   0  0  0  0  0  0  0  0  0  0  0  0
   67.5914   34.4297   24.5088 C   0  0  0  0  0  0  0  0  0  0  0  0
   73.2537   31.1882   23.7723 C   0  0  0  0  0  0  0  0  0  0  0  0
   64.3811   33.5675   24.6187 H   0  0  0  0  0  0  0  0  0  0  0  0
   66.7035   38.6026   22.1650 H   0  0  0  0  0  0  0  0  0  0  0  0
   66.6473   39.6813   23.3897 H   0  0  0  0  0  0  0  0  0  0  0  0
   68.0688   39.3513   22.6569 H   0  0  0  0  0  0  0  0  0  0  0  0
   68.3702   37.6581   25.8234 H   0  0  0  0  0  0  0  0  0  0  0  0
   69.0787   38.7811   24.8728 H   0  0  0  0  0  0  0  0  0  0  0  0
   67.6572   39.1110   25.6056 H   0  0  0  0  0  0  0  0  0  0  0  0
   75.8121   35.4258   26.0343 H   0  0  0  0  0  0  0  0  0  0  0  0
   74.8963   36.7143   25.6248 H   0  0  0  0  0  0  0  0  0  0  0  0
   74.8854   36.1600   27.1608 H   0  0  0  0  0  0  0  0  0  0  0  0
   73.6614   32.8020   22.5076 H   0  0  0  0  0  0  0  0  0  0  0  0
   74.1321   31.3681   21.8839 H   0  0  0  0  0  0  0  0  0  0  0  0
   72.5506   31.7749   21.8930 H   0  0  0  0  0  0  0  0  0  0  0  0
   72.7683   29.2852   24.4739 H   0  0  0  0  0  0  0  0  0  0  0  0
   72.0142   29.6625   23.0755 H   0  0  0  0  0  0  0  0  0  0  0  0
   73.5957   29.2558   23.0664 H   0  0  0  0  0  0  0  0  0  0  0  0
   65.0988   32.1291   26.2617 H   0  0  0  0  0  0  0  0  0  0  0  0
   65.7155   33.5070   26.8845 H   0  0  0  0  0  0  0  0  0  0  0  0
   72.1401   36.1762   26.2968 H   0  0  0  0  0  0  0  0  0  0  0  0
   67.1062   31.5677   25.2862 H   0  0  0  0  0  0  0  0  0  0  0  0
   67.4811   32.0276   26.8076 H   0  0  0  0  0  0  0  0  0  0  0  0
   68.9985   37.0229   22.8639 H   0  0  0  0  0  0  0  0  0  0  0  0
   67.5425   36.3742   22.5090 H   0  0  0  0  0  0  0  0  0  0  0  0
   69.7498   32.6519   26.3486 H   0  0  0  0  0  0  0  0  0  0  0  0
   70.4772   36.0692   24.1081 H   0  0  0  0  0  0  0  0  0  0  0  0
   74.4899   30.7054   25.3674 H   0  0  0  0  0  0  0  0  0  0  0  0
   75.3054   30.9536   23.9745 H   0  0  0  0  0  0  0  0  0  0  0  0
   71.3755   32.0545   23.9549 H   0  0  0  0  0  0  0  0  0  0  0  0
   71.8676   31.2956   25.3146 H   0  0  0  0  0  0  0  0  0  0  0  0
   66.5611   37.5189   24.2761 H   0  0  0  0  0  0  0  0  0  0  0  0
  1 18  2  0  0  0  0
  2 19  2  0  0  0  0
  3 10  1  0  0  0  0
  3 18  1  0  0  0  0
  4 11  1  0  0  0  0
  4 21  1  0  0  0  0
  4 22  1  0  0  0  0
  5 20  1  0  0  0  0
  6 20  1  0  0  0  0
  7 23  1  0  0  0  0
  8 28  1  0  0  0  0
  9 28  1  0  0  0  0
 10 12  1  0  0  0  0
 11 23  2  0  0  0  0
 12 24  1  0  0  0  0
 13 20  1  0  0  0  0
 13 25  1  0  0  0  0
 14 21  2  0  0  0  0
 14 24  1  0  0  0  0
 15 21  1  0  0  0  0
 15 25  2  0  0  0  0
 16 19  1  0  0  0  0
 16 28  1  0  0  0  0
 17 22  1  0  0  0  0
 17 28  1  0  0  0  0
 18 27  1  0  0  0  0
 19 26  1  0  0  0  0
 22 26  2  0  0  0  0
 23 26  1  0  0  0  0
 24 27  2  0  0  0  0
 25 27  1  0  0  0  0
  3 29  1  0  0  0  0
  5 30  1  0  0  0  0
  5 31  1  0  0  0  0
  5 32  1  0  0  0  0
  6 33  1  0  0  0  0
  6 34  1  0  0  0  0
  6 35  1  0  0  0  0
  7 36  1  0  0  0  0
  7 37  1  0  0  0  0
  7 38  1  0  0  0  0
  8 39  1  0  0  0  0
  8 40  1  0  0  0  0
  8 41  1  0  0  0  0
  9 42  1  0  0  0  0
  9 43  1  0  0  0  0
  9 44  1  0  0  0  0
 10 45  1  0  0  0  0
 10 46  1  0  0  0  0
 11 47  1  0  0  0  0
 12 48  1  0  0  0  0
 12 49  1  0  0  0  0
 13 50  1  0  0  0  0
 13 51  1  0  0  0  0
 14 52  1  0  0  0  0
 15 53  1  0  0  0  0
 16 54  1  0  0  0  0
 16 55  1  0  0  0  0
 17 56  1  0  0  0  0
 17 57  1  0  0  0  0
 20 58  1  0  0  0  0
M  END
> <pdb_id>
4O09

> <uniprot_id>
P07900

> <usmiles>
O=C1NCCc2c1c(cc(N3C4=C(C(=O)CC(C4)(C)C)C(=C3)C)c2)CC(C)C

$$$$
2RM_A_601
          07202407493D 1   1.00000     0.00000     0
            
 46 49  0  0  0  0            999 V2000
    8.3140   -2.8095   46.1268 S   0  0  0  0  0  0  0  0  0  0  0  0
   10.4356   -2.2457   50.7846 F   0  0  0  0  0  0  0  0  0  0  0  0
   12.5977   -0.2784   47.0741 F   0  0  0  0  0  0  0  0  0  0  0  0
    8.1014   -1.7712   45.1772 O   0  0  0  0  0  0  0  0  0  0  0  0
    7.2603   -3.4608   46.8193 O   0  0  0  0  0  0  0  0  0  0  0  0
    9.8849   -8.1344   42.6461 O   0  0  0  0  0  0  0  0  0  0  0  0
   11.7856   -7.0758   42.1676 N   0  0  0  0  0  0  0  0  0  0  0  0
   11.1199   -7.7105   38.1120 N   0  0  0  0  0  0  0  0  0  0  0  0
   12.0455   -6.8036   43.5780 C   0  0  0  0  0  0  0  0  0  0  0  0
   11.8128   -7.2827   37.0118 C   0  0  0  0  0  0  0  0  0  0  0  0
   11.2198   -7.7844   35.9023 C   0  0  0  0  0  0  0  0  0  0  0  0
   11.3103   -7.4820   39.4480 C   0  0  0  0  0  0  0  0  0  0  0  0
   10.1234   -8.5576   36.2974 C   0  0  0  0  0  0  0  0  0  0  0  0
   10.0305   -3.6900   44.2194 C   0  0  0  0  0  0  0  0  0  0  0  0
    9.5870   -5.2372   45.9921 C   0  0  0  0  0  0  0  0  0  0  0  0
    9.1830   -9.0757   38.6114 C   0  0  0  0  0  0  0  0  0  0  0  0
   10.8860   -4.5937   43.6255 C   0  0  0  0  0  0  0  0  0  0  0  0
   10.4492   -6.1419   45.3914 C   0  0  0  0  0  0  0  0  0  0  0  0
    9.3491   -8.8615   39.9398 C   0  0  0  0  0  0  0  0  0  0  0  0
    9.4674   -2.4885   48.6270 C   0  0  0  0  0  0  0  0  0  0  0  0
   10.5801   -1.4830   46.7585 C   0  0  0  0  0  0  0  0  0  0  0  0
   11.5177   -1.2587   48.9409 C   0  0  0  0  0  0  0  0  0  0  0  0
    9.3680   -4.0113   45.3875 C   0  0  0  0  0  0  0  0  0  0  0  0
    9.5202   -2.2122   47.2698 C   0  0  0  0  0  0  0  0  0  0  0  0
   10.4683   -2.0003   49.4585 C   0  0  0  0  0  0  0  0  0  0  0  0
   11.5764   -0.9976   47.5879 C   0  0  0  0  0  0  0  0  0  0  0  0
   10.6859   -7.7608   41.8059 C   0  0  0  0  0  0  0  0  0  0  0  0
   10.0732   -8.4991   37.6807 C   0  0  0  0  0  0  0  0  0  0  0  0
   11.0920   -5.8240   44.2056 C   0  0  0  0  0  0  0  0  0  0  0  0
   10.4671   -8.0236   40.3741 C   0  0  0  0  0  0  0  0  0  0  0  0
   12.4253   -6.7528   41.4701 H   0  0  0  0  0  0  0  0  0  0  0  0
   12.9717   -6.4358   43.6604 H   0  0  0  0  0  0  0  0  0  0  0  0
   11.9835   -7.6663   44.0799 H   0  0  0  0  0  0  0  0  0  0  0  0
   12.6229   -6.6966   37.0251 H   0  0  0  0  0  0  0  0  0  0  0  0
   11.5158   -7.6283   34.9600 H   0  0  0  0  0  0  0  0  0  0  0  0
   12.0752   -6.9123   39.7484 H   0  0  0  0  0  0  0  0  0  0  0  0
    9.4973   -9.0559   35.6978 H   0  0  0  0  0  0  0  0  0  0  0  0
    9.8885   -2.7934   43.8001 H   0  0  0  0  0  0  0  0  0  0  0  0
    9.1293   -5.4672   46.8509 H   0  0  0  0  0  0  0  0  0  0  0  0
    8.4262   -9.6447   38.2897 H   0  0  0  0  0  0  0  0  0  0  0  0
   11.3556   -4.3554   42.7753 H   0  0  0  0  0  0  0  0  0  0  0  0
   10.6086   -7.0322   45.8180 H   0  0  0  0  0  0  0  0  0  0  0  0
    8.7230   -9.2663   40.6062 H   0  0  0  0  0  0  0  0  0  0  0  0
    8.7177   -3.0328   49.0036 H   0  0  0  0  0  0  0  0  0  0  0  0
   10.6267   -1.3043   45.7757 H   0  0  0  0  0  0  0  0  0  0  0  0
   12.2328   -0.9126   49.5483 H   0  0  0  0  0  0  0  0  0  0  0  0
  1  4  2  0  0  0  0
  1  5  2  0  0  0  0
  1 23  1  0  0  0  0
  1 24  1  0  0  0  0
  2 25  1  0  0  0  0
  3 26  1  0  0  0  0
  6 27  2  0  0  0  0
  7  9  1  0  0  0  0
  7 27  1  0  0  0  0
  8 10  1  0  0  0  0
  8 12  1  0  0  0  0
  8 28  1  0  0  0  0
  9 29  1  0  0  0  0
 10 11  2  0  0  0  0
 11 13  1  0  0  0  0
 12 30  2  0  0  0  0
 13 28  2  0  0  0  0
 14 17  2  0  0  0  0
 14 23  1  0  0  0  0
 15 18  1  0  0  0  0
 15 23  2  0  0  0  0
 16 19  2  0  0  0  0
 16 28  1  0  0  0  0
 17 29  1  0  0  0  0
 18 29  2  0  0  0  0
 19 30  1  0  0  0  0
 20 24  2  0  0  0  0
 20 25  1  0  0  0  0
 21 24  1  0  0  0  0
 21 26  2  0  0  0  0
 22 25  2  0  0  0  0
 22 26  1  0  0  0  0
 27 30  1  0  0  0  0
  7 31  1  0  0  0  0
  9 32  1  0  0  0  0
  9 33  1  0  0  0  0
 10 34  1  0  0  0  0
 11 35  1  0  0  0  0
 12 36  1  0  0  0  0
 13 37  1  0  0  0  0
 14 38  1  0  0  0  0
 15 39  1  0  0  0  0
 16 40  1  0  0  0  0
 17 41  1  0  0  0  0
 18 42  1  0  0  0  0
 19 43  1  0  0  0  0
 20 44  1  0  0  0  0
 21 45  1  0  0  0  0
 22 46  1  0  0  0  0
M  END
> <pdb_id>
4O0Z

> <uniprot_id>
P43490

> <usmiles>
S(=O)(=O)(c1cc(F)cc(F)c1)c2ccc(cc2)CNC(=O)C3=CN4C(C=C3)=CC=C4

$$$$
2SC_A_501
          07192421083D 1   1.00000     0.00000     0
            
 42 45  0  0  0  0            999 V2000
   -1.3937   30.8333    9.5998 O   0  0  0  0  0  0  0  0  0  0  0  0
    1.9185   30.1793    6.5619 N   0  0  0  0  0  0  0  0  0  0  0  0
    5.5318   25.6757    3.1126 N   0  0  0  0  0  0  0  0  0  0  0  0
    3.8169   28.0398    6.4074 N   0  0  0  0  0  0  0  0  0  0  0  0
    0.1747   27.7535    8.5415 N   0  0  0  0  0  0  0  0  0  0  0  0
    1.7497   28.9528    7.1566 N   0  0  0  0  0  0  0  0  0  0  0  0
    5.3241   24.3768    3.4298 C   0  0  0  0  0  0  0  0  0  0  0  0
   -1.4086   30.5285    8.2055 C   0  0  0  0  0  0  0  0  0  0  0  0
    0.8268   30.8671    6.9125 C   0  0  0  0  0  0  0  0  0  0  0  0
    5.4159   26.5732    4.1221 C   0  0  0  0  0  0  0  0  0  0  0  0
    5.0506   27.2993    6.4858 C   0  0  0  0  0  0  0  0  0  0  0  0
    5.0129   23.9401    4.7148 C   0  0  0  0  0  0  0  0  0  0  0  0
    0.0028   23.1592   10.6766 C   0  0  0  0  0  0  0  0  0  0  0  0
   -0.9995   24.0077   10.1951 C   0  0  0  0  0  0  0  0  0  0  0  0
    1.3512   23.4620   10.4450 C   0  0  0  0  0  0  0  0  0  0  0  0
    4.9388   24.8860    5.7259 C   0  0  0  0  0  0  0  0  0  0  0  0
   -0.6594   25.1721    9.4849 C   0  0  0  0  0  0  0  0  0  0  0  0
    1.6924   24.6255    9.7339 C   0  0  0  0  0  0  0  0  0  0  0  0
    2.3047   26.7314    7.7719 C   0  0  0  0  0  0  0  0  0  0  0  0
    2.6512   27.8589    7.1200 C   0  0  0  0  0  0  0  0  0  0  0  0
    0.5590   28.8843    7.8523 C   0  0  0  0  0  0  0  0  0  0  0  0
    1.0104   26.7366    8.5024 C   0  0  0  0  0  0  0  0  0  0  0  0
    5.1297   26.2372    5.4392 C   0  0  0  0  0  0  0  0  0  0  0  0
   -0.0756   30.1144    7.6894 C   0  0  0  0  0  0  0  0  0  0  0  0
    0.6831   25.4801    9.2522 C   0  0  0  0  0  0  0  0  0  0  0  0
   -2.3110   31.1043    9.8917 H   0  0  0  0  0  0  0  0  0  0  0  0
    3.8048   28.7882    5.7443 H   0  0  0  0  0  0  0  0  0  0  0  0
    5.3981   23.6943    2.7027 H   0  0  0  0  0  0  0  0  0  0  0  0
   -1.7066   31.3409    7.7043 H   0  0  0  0  0  0  0  0  0  0  0  0
   -2.0571   29.7836    8.0486 H   0  0  0  0  0  0  0  0  0  0  0  0
    0.6672   31.8187    6.6500 H   0  0  0  0  0  0  0  0  0  0  0  0
    5.5451   27.5406    3.9043 H   0  0  0  0  0  0  0  0  0  0  0  0
    5.1137   26.8706    7.3870 H   0  0  0  0  0  0  0  0  0  0  0  0
    5.8155   27.9317    6.3632 H   0  0  0  0  0  0  0  0  0  0  0  0
    4.8476   22.9720    4.9031 H   0  0  0  0  0  0  0  0  0  0  0  0
   -0.2432   22.3352   11.1869 H   0  0  0  0  0  0  0  0  0  0  0  0
   -1.9610   23.7853   10.3566 H   0  0  0  0  0  0  0  0  0  0  0  0
    2.0679   22.8529   10.7844 H   0  0  0  0  0  0  0  0  0  0  0  0
    4.7478   24.5981    6.6643 H   0  0  0  0  0  0  0  0  0  0  0  0
   -1.3780   25.7797    9.1465 H   0  0  0  0  0  0  0  0  0  0  0  0
    2.6538   24.8463    9.5698 H   0  0  0  0  0  0  0  0  0  0  0  0
    2.8946   25.9239    7.7644 H   0  0  0  0  0  0  0  0  0  0  0  0
  1  8  1  0  0  0  0
  2  6  1  0  0  0  0
  2  9  2  0  0  0  0
  3  7  2  0  0  0  0
  3 10  1  0  0  0  0
  4 11  1  0  0  0  0
  4 20  1  0  0  0  0
  5 21  1  0  0  0  0
  5 22  2  0  0  0  0
  6 20  1  0  0  0  0
  6 21  1  0  0  0  0
  7 12  1  0  0  0  0
  8 24  1  0  0  0  0
  9 24  1  0  0  0  0
 10 23  2  0  0  0  0
 11 23  1  0  0  0  0
 12 16  2  0  0  0  0
 13 14  2  0  0  0  0
 13 15  1  0  0  0  0
 14 17  1  0  0  0  0
 15 18  2  0  0  0  0
 16 23  1  0  0  0  0
 17 25  2  0  0  0  0
 18 25  1  0  0  0  0
 19 20  2  0  0  0  0
 19 22  1  0  0  0  0
 21 24  2  0  0  0  0
 22 25  1  0  0  0  0
  1 26  1  0  0  0  0
  4 27  1  0  0  0  0
  7 28  1  0  0  0  0
  8 29  1  0  0  0  0
  8 30  1  0  0  0  0
  9 31  1  0  0  0  0
 10 32  1  0  0  0  0
 11 33  1  0  0  0  0
 11 34  1  0  0  0  0
 12 35  1  0  0  0  0
 13 36  1  0  0  0  0
 14 37  1  0  0  0  0
 15 38  1  0  0  0  0
 16 39  1  0  0  0  0
 17 40  1  0  0  0  0
 18 41  1  0  0  0  0
 19 42  1  0  0  0  0
M  END
> <pdb_id>
2R3O

> <uniprot_id>
P24941

> <usmiles>
OCC1=C2N=C(c3ccccc3)C=C(N2N=C1)NCc4cnccc4

$$$$
2SH_A_401
          07212404193D 1   1.00000     0.00000     0
            
 56 59  0  0  0  0            999 V2000
    5.9911   13.6388   46.2183 Cl  0  0  0  0  0  0  0  0  0  0  0  0
    4.0066   13.2233   48.4156 F   0  0  0  0  0  0  0  0  0  0  0  0
    2.5157    9.8806   43.0154 O   0  0  0  0  0  0  0  0  0  0  0  0
    5.1412    6.8894   46.1322 O   0  0  0  0  0  0  0  0  0  0  0  0
   12.6580   11.1549   39.8269 O   0  0  0  0  0  0  0  0  0  0  0  0
   12.0246    6.4910   44.0651 N   0  0  0  0  0  0  0  0  0  0  0  0
    5.5009    8.5900   44.7013 N   0  0  0  0  0  0  0  0  0  0  0  0
   12.6195    8.3898   42.8841 N   0  0  0  0  0  0  0  0  0  0  0  0
   10.4735    8.2128   43.8174 N   0  0  0  0  0  0  0  0  0  0  0  0
    7.2735    7.3230   45.4961 N   0  0  0  0  0  0  0  0  0  0  0  0
    3.8622    9.4385   43.1442 C   0  0  0  0  0  0  0  0  0  0  0  0
   13.4583   11.5176   40.9631 C   0  0  0  0  0  0  0  0  0  0  0  0
   11.3365   10.6557   40.0983 C   0  0  0  0  0  0  0  0  0  0  0  0
   11.1586    5.7766   44.7711 C   0  0  0  0  0  0  0  0  0  0  0  0
    7.8174    6.2826   46.3996 C   0  0  0  0  0  0  0  0  0  0  0  0
    8.2182    8.1961   44.7424 C   0  0  0  0  0  0  0  0  0  0  0  0
   13.7051   10.2540   41.7992 C   0  0  0  0  0  0  0  0  0  0  0  0
   11.4613    9.3707   40.9377 C   0  0  0  0  0  0  0  0  0  0  0  0
    3.1459   11.1475   47.6124 C   0  0  0  0  0  0  0  0  0  0  0  0
    8.9329    5.4347   45.8008 C   0  0  0  0  0  0  0  0  0  0  0  0
    3.1679   10.1195   46.6721 C   0  0  0  0  0  0  0  0  0  0  0  0
    4.9186   11.2668   45.4870 C   0  0  0  0  0  0  0  0  0  0  0  0
    4.8976   12.2961   46.4154 C   0  0  0  0  0  0  0  0  0  0  0  0
    5.9353    7.5741   45.4816 C   0  0  0  0  0  0  0  0  0  0  0  0
    4.0236   12.2271   47.4985 C   0  0  0  0  0  0  0  0  0  0  0  0
   11.6708    7.6833   43.5865 C   0  0  0  0  0  0  0  0  0  0  0  0
   12.3358    9.6452   42.1834 C   0  0  0  0  0  0  0  0  0  0  0  0
    4.1123    9.0455   44.6013 C   0  0  2  0  0  0  0  0  0  0  0  0
    9.5613    7.5431   44.5246 C   0  0  0  0  0  0  0  0  0  0  0  0
    9.8936    6.3012   45.0362 C   0  0  0  0  0  0  0  0  0  0  0  0
    4.0272   10.1962   45.5812 C   0  0  0  0  0  0  0  0  0  0  0  0
    2.3396   10.1408   42.0660 H   0  0  0  0  0  0  0  0  0  0  0  0
    6.1827    9.0687   44.1481 H   0  0  0  0  0  0  0  0  0  0  0  0
   13.5511    8.0280   42.8500 H   0  0  0  0  0  0  0  0  0  0  0  0
    4.4849   10.1761   42.8829 H   0  0  0  0  0  0  0  0  0  0  0  0
    4.0148    8.6477   42.5514 H   0  0  0  0  0  0  0  0  0  0  0  0
   12.9756   12.1988   41.5135 H   0  0  0  0  0  0  0  0  0  0  0  0
   14.3314   11.8957   40.6553 H   0  0  0  0  0  0  0  0  0  0  0  0
   10.8696   10.4523   39.2377 H   0  0  0  0  0  0  0  0  0  0  0  0
   10.8150   11.3411   40.6065 H   0  0  0  0  0  0  0  0  0  0  0  0
   11.4103    4.8702   45.1104 H   0  0  0  0  0  0  0  0  0  0  0  0
    7.0682    5.6729   46.6584 H   0  0  0  0  0  0  0  0  0  0  0  0
    8.1755    6.7359   47.2158 H   0  0  0  0  0  0  0  0  0  0  0  0
    8.3531    9.0424   45.2578 H   0  0  0  0  0  0  0  0  0  0  0  0
    7.8169    8.4086   43.8515 H   0  0  0  0  0  0  0  0  0  0  0  0
   14.2131   10.4912   42.6272 H   0  0  0  0  0  0  0  0  0  0  0  0
   14.2302    9.5924   41.2639 H   0  0  0  0  0  0  0  0  0  0  0  0
   11.8852    8.6528   40.3855 H   0  0  0  0  0  0  0  0  0  0  0  0
   10.5518    9.0740   41.2288 H   0  0  0  0  0  0  0  0  0  0  0  0
    2.4977   11.1118   48.3731 H   0  0  0  0  0  0  0  0  0  0  0  0
    8.5360    4.7567   45.1821 H   0  0  0  0  0  0  0  0  0  0  0  0
    9.4236    4.9678   46.5365 H   0  0  0  0  0  0  0  0  0  0  0  0
    2.5669    9.3277   46.7815 H   0  0  0  0  0  0  0  0  0  0  0  0
    5.5818   11.2913   44.7390 H   0  0  0  0  0  0  0  0  0  0  0  0
   11.8539   10.2693   42.7985 H   0  0  0  0  0  0  0  0  0  0  0  0
    3.4881    8.3132   44.8735 H   0  0  0  0  0  0  0  0  0  0  0  0
  1 23  1  0  0  0  0
  2 25  1  0  0  0  0
  3 11  1  0  0  0  0
  4 24  2  0  0  0  0
  5 12  1  0  0  0  0
  5 13  1  0  0  0  0
  6 14  2  0  0  0  0
  6 26  1  0  0  0  0
  7 24  1  0  0  0  0
  7 28  1  0  0  0  0
  8 26  1  0  0  0  0
  8 27  1  0  0  0  0
  9 26  2  0  0  0  0
  9 29  1  0  0  0  0
 10 15  1  0  0  0  0
 10 16  1  0  0  0  0
 10 24  1  0  0  0  0
 11 28  1  0  0  0  0
 12 17  1  0  0  0  0
 13 18  1  0  0  0  0
 14 30  1  0  0  0  0
 15 20  1  0  0  0  0
 16 29  1  0  0  0  0
 17 27  1  0  0  0  0
 18 27  1  0  0  0  0
 19 21  2  0  0  0  0
 19 25  1  0  0  0  0
 20 30  1  0  0  0  0
 21 31  1  0  0  0  0
 22 23  1  0  0  0  0
 22 31  2  0  0  0  0
 23 25  2  0  0  0  0
 28 31  1  0  0  0  0
 29 30  2  0  0  0  0
  3 32  1  0  0  0  0
  7 33  1  0  0  0  0
  8 34  1  0  0  0  0
 11 35  1  0  0  0  0
 11 36  1  0  0  0  0
 12 37  1  0  0  0  0
 12 38  1  0  0  0  0
 13 39  1  0  0  0  0
 13 40  1  0  0  0  0
 14 41  1  0  0  0  0
 15 42  1  0  0  0  0
 15 43  1  0  0  0  0
 16 44  1  0  0  0  0
 16 45  1  0  0  0  0
 17 46  1  0  0  0  0
 17 47  1  0  0  0  0
 18 48  1  0  0  0  0
 18 49  1  0  0  0  0
 19 50  1  0  0  0  0
 20 51  1  0  0  0  0
 20 52  1  0  0  0  0
 21 53  1  0  0  0  0
 22 54  1  0  0  0  0
 27 55  1  0  0  0  0
 28 56  1  0  0  0  0
M  END
> <pdb_id>
4O6E

> <uniprot_id>
P28482

> <usmiles>
Clc1c(F)ccc(c1)[C@H](NC(=O)N2Cc3nc(ncc3CC2)NC4CCOCC4)CO

$$$$
2SK_A_5009
          07202412393D 1   1.00000     0.00000     0
            
 37 38  0  0  0  0            999 V2000
   29.3638   66.7678    7.5020 S   0  0  0  0  0  0  0  0  0  0  0  0
   31.9146   68.0017    5.7870 O   0  0  0  0  0  0  0  0  0  0  0  0
   33.9781   66.4883    7.0228 O   0  0  0  0  0  0  0  0  0  0  0  0
   33.8255   65.9060    9.6251 O   0  0  0  0  0  0  0  0  0  0  0  0
   31.2985   65.2670    9.7758 N   0  0  0  0  0  0  0  0  0  0  0  0
   28.7194   68.4296    7.7431 C   0  0  0  0  0  0  0  0  0  0  0  0
   29.9634   64.6649    9.8824 C   0  0  0  0  0  0  0  0  0  0  0  0
   27.7347   65.5773   13.5219 C   0  0  0  0  0  0  0  0  0  0  0  0
   27.7082   66.4136   12.3989 C   0  0  0  0  0  0  0  0  0  0  0  0
   28.5084   64.3945   13.4673 C   0  0  0  0  0  0  0  0  0  0  0  0
   28.4174   66.1390   11.2154 C   0  0  0  0  0  0  0  0  0  0  0  0
   29.2096   64.1169   12.2789 C   0  0  0  0  0  0  0  0  0  0  0  0
   31.1240   66.6322    7.7065 C   0  0  1  0  0  0  0  0  0  0  0  0
   31.9752   67.7761    7.1867 C   0  0  1  0  0  0  0  0  0  0  0  0
   33.3428   67.4814    7.8111 C   0  0  1  0  0  0  0  0  0  0  0  0
   32.9778   66.9802    9.1956 C   0  0  1  0  0  0  0  0  0  0  0  0
   31.4944   66.5950    9.1794 C   0  0  2  0  0  0  0  0  0  0  0  0
   29.1731   64.9762   11.1709 C   0  0  0  0  0  0  0  0  0  0  0  0
   32.5066   68.7712    5.5474 H   0  0  0  0  0  0  0  0  0  0  0  0
   34.8753   66.2780    7.4111 H   0  0  0  0  0  0  0  0  0  0  0  0
   33.5495   65.6086   10.5391 H   0  0  0  0  0  0  0  0  0  0  0  0
   31.8528   64.6315    9.2385 H   0  0  0  0  0  0  0  0  0  0  0  0
   27.7280   68.4249    7.6120 H   0  0  0  0  0  0  0  0  0  0  0  0
   28.9315   68.7381    8.6703 H   0  0  0  0  0  0  0  0  0  0  0  0
   29.1402   69.0496    7.0809 H   0  0  0  0  0  0  0  0  0  0  0  0
   30.0713   63.6725    9.8235 H   0  0  0  0  0  0  0  0  0  0  0  0
   29.4209   64.9878    9.1069 H   0  0  0  0  0  0  0  0  0  0  0  0
   27.2174   65.8114   14.3450 H   0  0  0  0  0  0  0  0  0  0  0  0
   27.1578   67.2474   12.4403 H   0  0  0  0  0  0  0  0  0  0  0  0
   28.5559   63.7738   14.2500 H   0  0  0  0  0  0  0  0  0  0  0  0
   28.3782   66.7606   10.4330 H   0  0  0  0  0  0  0  0  0  0  0  0
   29.7522   63.2788   12.2226 H   0  0  0  0  0  0  0  0  0  0  0  0
   31.4319   65.7831    7.2773 H   0  0  0  0  0  0  0  0  0  0  0  0
   31.6344   68.6078    7.6250 H   0  0  0  0  0  0  0  0  0  0  0  0
   33.9003   68.3099    7.8638 H   0  0  0  0  0  0  0  0  0  0  0  0
   33.0921   67.7383    9.8376 H   0  0  0  0  0  0  0  0  0  0  0  0
   30.9607   67.2755    9.6815 H   0  0  0  0  0  0  0  0  0  0  0  0
  1  6  1  0  0  0  0
  1 13  1  0  0  0  0
  2 14  1  0  0  0  0
  3 15  1  0  0  0  0
  4 16  1  0  0  0  0
  5  7  1  0  0  0  0
  5 17  1  0  0  0  0
  7 18  1  0  0  0  0
  8  9  2  0  0  0  0
  8 10  1  0  0  0  0
  9 11  1  0  0  0  0
 10 12  2  0  0  0  0
 11 18  2  0  0  0  0
 12 18  1  0  0  0  0
 13 14  1  0  0  0  0
 13 17  1  0  0  0  0
 14 15  1  0  0  0  0
 15 16  1  0  0  0  0
 16 17  1  0  0  0  0
  2 19  1  0  0  0  0
  3 20  1  0  0  0  0
  4 21  1  0  0  0  0
  5 22  1  0  0  0  0
  6 23  1  0  0  0  0
  6 24  1  0  0  0  0
  6 25  1  0  0  0  0
  7 26  1  0  0  0  0
  7 27  1  0  0  0  0
  8 28  1  0  0  0  0
  9 29  1  0  0  0  0
 10 30  1  0  0  0  0
 11 31  1  0  0  0  0
 12 32  1  0  0  0  0
 13 33  1  0  0  0  0
 14 34  1  0  0  0  0
 15 35  1  0  0  0  0
 16 36  1  0  0  0  0
 17 37  1  0  0  0  0
M  END
> <pdb_id>
2F7P

> <uniprot_id>
Q24451

> <usmiles>
S([C@H]1[C@H](O)[C@H](O)[C@H](O)[C@@H]1NCc2ccccc2)C

$$$$
2T6_D_401
          07212401293D 1   1.00000     0.00000     0
            
 32 34  0  0  0  0            999 V2000
   25.6988  -14.5204   29.7282 S   0  0  0  0  0  0  0  0  0  0  0  0
   25.9291  -11.5994   36.8370 P   0  0  0  0  0  0  0  0  0  0  0  0
   24.7498  -10.9202   36.2220 O   0  0  0  0  0  0  0  0  0  0  0  0
   25.8878  -11.4217   38.3276 O   0  0  0  0  0  0  0  0  0  0  0  0
   27.1877  -10.9897   36.2909 O   0  0  0  0  0  0  0  0  0  0  0  0
   26.9251  -19.4236   32.5602 O   0  0  0  0  0  0  0  0  0  0  0  0
   25.9694  -13.5651   35.0279 O   0  0  0  0  0  0  0  0  0  0  0  0
   26.0756  -19.9267   34.5712 N   0  0  0  0  0  0  0  0  0  0  0  0
   25.7037  -13.1880   31.9433 N   0  0  0  0  0  0  0  0  0  0  0  0
   25.8880  -13.3770   36.4258 C   0  0  0  0  0  0  0  0  0  0  0  0
   25.5893  -13.0316   30.5704 C   0  0  0  0  0  0  0  0  0  0  0  0
   26.2771  -15.8912   35.7171 C   0  0  0  0  0  0  0  0  0  0  0  0
   26.4040  -17.2541   35.3647 C   0  0  0  0  0  0  0  0  0  0  0  0
   26.0838  -16.8259   31.5026 C   0  0  0  0  0  0  0  0  0  0  0  0
   25.8956  -15.3578   31.1727 C   0  0  0  0  0  0  0  0  0  0  0  0
   26.4824  -19.0495   33.6349 C   0  0  0  0  0  0  0  0  0  0  0  0
   26.0976  -14.9129   34.7201 C   0  0  0  0  0  0  0  0  0  0  0  0
   25.8761  -14.5333   32.2115 C   0  0  0  0  0  0  0  0  0  0  0  0
   26.3508  -17.6364   34.0142 C   0  0  0  0  0  0  0  0  0  0  0  0
   26.1735  -16.6479   33.0488 C   0  0  0  0  0  0  0  0  0  0  0  0
   26.0490  -15.3228   33.4124 C   0  0  0  0  0  0  0  0  0  0  0  0
   24.7773  -11.0385   35.2294 H   0  0  0  0  0  0  0  0  0  0  0  0
   26.6774  -11.8764   38.7395 H   0  0  0  0  0  0  0  0  0  0  0  0
   25.7165  -19.5958   35.4439 H   0  0  0  0  0  0  0  0  0  0  0  0
   26.1325  -20.9092   34.3942 H   0  0  0  0  0  0  0  0  0  0  0  0
   25.0331  -13.7725   36.7615 H   0  0  0  0  0  0  0  0  0  0  0  0
   26.6617  -13.8340   36.8646 H   0  0  0  0  0  0  0  0  0  0  0  0
   25.4574  -12.1479   30.1212 H   0  0  0  0  0  0  0  0  0  0  0  0
   26.3150  -15.6204   36.6789 H   0  0  0  0  0  0  0  0  0  0  0  0
   26.5316  -17.9453   36.0760 H   0  0  0  0  0  0  0  0  0  0  0  0
   26.9220  -17.2040   31.1097 H   0  0  0  0  0  0  0  0  0  0  0  0
   25.3033  -17.3857   31.2245 H   0  0  0  0  0  0  0  0  0  0  0  0
  1 11  1  0  0  0  0
  1 15  1  0  0  0  0
  2  3  1  0  0  0  0
  2  4  1  0  0  0  0
  2  5  2  0  0  0  0
  2 10  1  0  0  0  0
  6 16  2  0  0  0  0
  7 10  1  0  0  0  0
  7 17  1  0  0  0  0
  8 16  1  0  0  0  0
  9 11  2  0  0  0  0
  9 18  1  0  0  0  0
 12 13  1  0  0  0  0
 12 17  2  0  0  0  0
 13 19  2  0  0  0  0
 14 15  1  0  0  0  0
 14 20  1  0  0  0  0
 15 18  2  0  0  0  0
 16 19  1  0  0  0  0
 17 21  1  0  0  0  0
 18 21  1  0  0  0  0
 19 20  1  0  0  0  0
 20 21  2  0  0  0  0
  3 22  1  0  0  0  0
  4 23  1  0  0  0  0
  8 24  1  0  0  0  0
  8 25  1  0  0  0  0
 10 26  1  0  0  0  0
 10 27  1  0  0  0  0
 11 28  1  0  0  0  0
 12 29  1  0  0  0  0
 13 30  1  0  0  0  0
 14 31  1  0  0  0  0
 14 32  1  0  0  0  0
M  END
> <pdb_id>
3KC1

> <uniprot_id>
P09467

> <usmiles>
S1C2=C(N=C1)c3c(OCP(=O)(O)O)ccc(c3C2)C(=O)N

$$$$
2TK_A_301
          07192418023D 1   1.00000     0.00000     0
            
 42 43  0  0  0  0            999 V2000
  -20.8325  -33.1172   14.5158 Br  0  0  0  0  0  0  0  0  0  0  0  0
  -16.3284  -33.2915   16.5351 O   0  0  0  0  0  0  0  0  0  0  0  0
  -18.6028  -34.6578   15.7853 O   0  0  0  0  0  0  0  0  0  0  0  0
  -11.3901  -40.9561   15.4978 C   0  0  0  0  0  0  0  0  0  0  0  0
  -11.4711  -39.4586   15.2078 C   0  0  0  0  0  0  0  0  0  0  0  0
  -11.6235  -38.5461   16.4134 C   0  0  0  0  0  0  0  0  0  0  0  0
  -13.0225  -38.0106   16.7061 C   0  0  0  0  0  0  0  0  0  0  0  0
  -17.9617  -34.1350   11.6573 C   0  0  0  0  0  0  0  0  0  0  0  0
  -13.5514  -38.3042   18.0960 C   0  0  0  0  0  0  0  0  0  0  0  0
  -17.0268  -34.8458   12.4153 C   0  0  0  0  0  0  0  0  0  0  0  0
  -19.1015  -33.6077   12.2715 C   0  0  0  0  0  0  0  0  0  0  0  0
  -17.2208  -35.0210   13.7911 C   0  0  0  0  0  0  0  0  0  0  0  0
  -14.5099  -37.3248   18.7450 C   0  0  0  0  0  0  0  0  0  0  0  0
  -17.7165  -36.6771   16.7860 C   0  0  0  0  0  0  0  0  0  0  0  0
  -16.7103  -37.3396   17.4952 C   0  0  0  0  0  0  0  0  0  0  0  0
  -15.4092  -35.2786   17.5933 C   0  0  0  0  0  0  0  0  0  0  0  0
  -19.2789  -33.8104   13.6376 C   0  0  0  0  0  0  0  0  0  0  0  0
  -16.4269  -34.6286   16.8776 C   0  0  0  0  0  0  0  0  0  0  0  0
  -18.3543  -34.5043   14.4103 C   0  0  0  0  0  0  0  0  0  0  0  0
  -17.5703  -35.3207   16.4706 C   0  0  0  0  0  0  0  0  0  0  0  0
  -15.5667  -36.6350   17.8893 C   0  0  0  0  0  0  0  0  0  0  0  0
  -17.0667  -32.8504   16.0248 H   0  0  0  0  0  0  0  0  0  0  0  0
  -11.2916  -41.4572   14.6380 H   0  0  0  0  0  0  0  0  0  0  0  0
  -10.6004  -41.1401   16.0831 H   0  0  0  0  0  0  0  0  0  0  0  0
  -12.2251  -41.2514   15.9620 H   0  0  0  0  0  0  0  0  0  0  0  0
  -12.2575  -39.3064   14.6093 H   0  0  0  0  0  0  0  0  0  0  0  0
  -10.6328  -39.1951   14.7304 H   0  0  0  0  0  0  0  0  0  0  0  0
  -11.0225  -37.7591   16.2737 H   0  0  0  0  0  0  0  0  0  0  0  0
  -11.3218  -39.0571   17.2183 H   0  0  0  0  0  0  0  0  0  0  0  0
  -13.6529  -38.4153   16.0438 H   0  0  0  0  0  0  0  0  0  0  0  0
  -13.0046  -37.0180   16.5858 H   0  0  0  0  0  0  0  0  0  0  0  0
  -17.8154  -34.0038   10.6768 H   0  0  0  0  0  0  0  0  0  0  0  0
  -12.7583  -38.3808   18.7002 H   0  0  0  0  0  0  0  0  0  0  0  0
  -14.0214  -39.1857   18.0495 H   0  0  0  0  0  0  0  0  0  0  0  0
  -16.2164  -35.2306   11.9735 H   0  0  0  0  0  0  0  0  0  0  0  0
  -19.7761  -33.0951   11.7402 H   0  0  0  0  0  0  0  0  0  0  0  0
  -16.5420  -35.5194   14.3304 H   0  0  0  0  0  0  0  0  0  0  0  0
  -13.9541  -36.6039   19.1591 H   0  0  0  0  0  0  0  0  0  0  0  0
  -14.9960  -37.8243   19.4620 H   0  0  0  0  0  0  0  0  0  0  0  0
  -18.5392  -37.1710   16.5044 H   0  0  0  0  0  0  0  0  0  0  0  0
  -16.8067  -38.3094   17.7193 H   0  0  0  0  0  0  0  0  0  0  0  0
  -14.5911  -34.7826   17.8845 H   0  0  0  0  0  0  0  0  0  0  0  0
  1 17  1  0  0  0  0
  2 18  1  0  0  0  0
  3 19  1  0  0  0  0
  3 20  1  0  0  0  0
  4  5  1  0  0  0  0
  5  6  1  0  0  0  0
  6  7  1  0  0  0  0
  7  9  1  0  0  0  0
  8 10  2  0  0  0  0
  8 11  1  0  0  0  0
  9 13  1  0  0  0  0
 10 12  1  0  0  0  0
 11 17  2  0  0  0  0
 12 19  2  0  0  0  0
 13 21  1  0  0  0  0
 14 15  1  0  0  0  0
 14 20  2  0  0  0  0
 15 21  2  0  0  0  0
 16 18  2  0  0  0  0
 16 21  1  0  0  0  0
 17 19  1  0  0  0  0
 18 20  1  0  0  0  0
  2 22  1  0  0  0  0
  4 23  1  0  0  0  0
  4 24  1  0  0  0  0
  4 25  1  0  0  0  0
  5 26  1  0  0  0  0
  5 27  1  0  0  0  0
  6 28  1  0  0  0  0
  6 29  1  0  0  0  0
  7 30  1  0  0  0  0
  7 31  1  0  0  0  0
  8 32  1  0  0  0  0
  9 33  1  0  0  0  0
  9 34  1  0  0  0  0
 10 35  1  0  0  0  0
 11 36  1  0  0  0  0
 12 37  1  0  0  0  0
 13 38  1  0  0  0  0
 13 39  1  0  0  0  0
 14 40  1  0  0  0  0
 15 41  1  0  0  0  0
 16 42  1  0  0  0  0
M  END
> <pdb_id>
4OHU

> <uniprot_id>
P0A5Y6

> <usmiles>
Brc1c(Oc2c(O)cc(cc2)CCCCCC)cccc1

$$$$
2UP_A_301
          07202413303D 1   1.00000     0.00000     0
            
 23 24  0  0  0  0            999 V2000
  -31.9374  -20.8157   -4.3724 N   0  0  0  0  0  0  0  0  0  0  0  0
  -32.1939  -20.2866   -2.1664 N   0  0  0  0  0  0  0  0  0  0  0  0
  -26.9562  -15.6558   -2.8191 C   0  0  0  0  0  0  0  0  0  0  0  0
  -27.0880  -16.3342   -1.6014 C   0  0  0  0  0  0  0  0  0  0  0  0
  -27.7817  -15.9792   -3.9024 C   0  0  0  0  0  0  0  0  0  0  0  0
  -28.0439  -17.3443   -1.4618 C   0  0  0  0  0  0  0  0  0  0  0  0
  -29.5614  -17.3279   -4.8495 C   0  0  0  0  0  0  0  0  0  0  0  0
  -30.5212  -18.3344   -4.7022 C   0  0  0  0  0  0  0  0  0  0  0  0
  -29.8226  -18.6880   -2.4109 C   0  0  0  0  0  0  0  0  0  0  0  0
  -31.6122  -20.0423   -3.3415 C   0  0  0  0  0  0  0  0  0  0  0  0
  -28.7349  -16.9948   -3.7696 C   0  0  0  0  0  0  0  0  0  0  0  0
  -30.6610  -19.0211   -3.4842 C   0  0  0  0  0  0  0  0  0  0  0  0
  -28.8657  -17.6774   -2.5458 C   0  0  0  0  0  0  0  0  0  0  0  0
  -31.5189  -20.6586   -5.2670 H   0  0  0  0  0  0  0  0  0  0  0  0
  -32.6005  -21.5547   -4.2535 H   0  0  0  0  0  0  0  0  0  0  0  0
  -31.9708  -19.7228   -1.3712 H   0  0  0  0  0  0  0  0  0  0  0  0
  -26.2685  -14.9362   -2.9155 H   0  0  0  0  0  0  0  0  0  0  0  0
  -26.4974  -16.0956   -0.8305 H   0  0  0  0  0  0  0  0  0  0  0  0
  -27.6906  -15.4864   -4.7678 H   0  0  0  0  0  0  0  0  0  0  0  0
  -28.1405  -17.8272   -0.5915 H   0  0  0  0  0  0  0  0  0  0  0  0
  -29.4658  -16.8485   -5.7219 H   0  0  0  0  0  0  0  0  0  0  0  0
  -31.1148  -18.5680   -5.4723 H   0  0  0  0  0  0  0  0  0  0  0  0
  -29.9096  -19.1767   -1.5428 H   0  0  0  0  0  0  0  0  0  0  0  0
  1 10  1  0  0  0  0
  2 10  2  0  0  0  0
  3  4  1  0  0  0  0
  3  5  2  0  0  0  0
  4  6  2  0  0  0  0
  5 11  1  0  0  0  0
  6 13  1  0  0  0  0
  7  8  1  0  0  0  0
  7 11  2  0  0  0  0
  8 12  2  0  0  0  0
  9 12  1  0  0  0  0
  9 13  2  0  0  0  0
 10 12  1  0  0  0  0
 11 13  1  0  0  0  0
  1 14  1  0  0  0  0
  1 15  1  0  0  0  0
  2 16  1  0  0  0  0
  3 17  1  0  0  0  0
  4 18  1  0  0  0  0
  5 19  1  0  0  0  0
  6 20  1  0  0  0  0
  7 21  1  0  0  0  0
  8 22  1  0  0  0  0
  9 23  1  0  0  0  0
M  END
> <pdb_id>
4FU8

> <uniprot_id>
P00749

> <usmiles>
N=C(N)c1cc2c(cc1)cccc2

$$$$
2UW_A_701
          07202416493D 1   1.00000     0.00000     0
            
 42 44  0  0  0  0            999 V2000
  -12.3392   40.8152   14.8759 Cl  0  0  0  0  0  0  0  0  0  0  0  0
  -13.2849   43.4143   14.7960 S   0  0  0  0  0  0  0  0  0  0  0  0
  -13.9131   46.0028   13.4481 S   0  0  0  0  0  0  0  0  0  0  0  0
  -14.4685   38.9019   21.1342 F   0  0  0  0  0  0  0  0  0  0  0  0
  -15.2949   37.8141   19.4533 F   0  0  0  0  0  0  0  0  0  0  0  0
  -13.8702   36.8103   20.7252 F   0  0  0  0  0  0  0  0  0  0  0  0
  -14.9076   47.0386   13.6486 O   0  0  0  0  0  0  0  0  0  0  0  0
  -13.8713   45.3611   12.1337 O   0  0  0  0  0  0  0  0  0  0  0  0
  -12.6426   37.4009   18.6835 O   0  0  0  0  0  0  0  0  0  0  0  0
   -8.5852   48.2175   13.8535 N   0  0  0  0  0  0  0  0  0  0  0  0
  -10.0736   46.7595   12.7819 N   0  0  0  0  0  0  0  0  0  0  0  0
  -14.2272   41.8524   18.2999 N   0  0  0  0  0  0  0  0  0  0  0  0
  -12.0402   38.8336   20.5888 C   0  0  0  0  0  0  0  0  0  0  0  0
  -11.2996   46.2377   12.6915 C   0  0  0  0  0  0  0  0  0  0  0  0
  -14.0183   40.7839   19.0741 C   0  0  0  0  0  0  0  0  0  0  0  0
  -14.8282   45.1601   15.7954 C   0  0  0  0  0  0  0  0  0  0  0  0
  -14.7643   44.1410   16.6764 C   0  0  0  0  0  0  0  0  0  0  0  0
  -12.0327   47.6401   14.4766 C   0  0  0  0  0  0  0  0  0  0  0  0
  -10.7620   48.1449   14.5847 C   0  0  0  0  0  0  0  0  0  0  0  0
  -12.7911   39.7087   17.3229 C   0  0  0  0  0  0  0  0  0  0  0  0
  -14.0792   44.9214   14.7046 C   0  0  0  0  0  0  0  0  0  0  0  0
  -13.0070   40.8269   16.5166 C   0  0  0  0  0  0  0  0  0  0  0  0
  -13.9938   43.0827   16.3072 C   0  0  0  0  0  0  0  0  0  0  0  0
  -12.3186   46.6881   13.5190 C   0  0  0  0  0  0  0  0  0  0  0  0
   -9.7931   47.6929   13.7281 C   0  0  0  0  0  0  0  0  0  0  0  0
  -13.7504   41.9116   17.0334 C   0  0  0  0  0  0  0  0  0  0  0  0
  -13.3120   39.6745   18.6068 C   0  0  0  0  0  0  0  0  0  0  0  0
  -14.2450   37.9751   20.2218 C   0  0  0  0  0  0  0  0  0  0  0  0
  -13.0504   38.4679   19.4894 C   0  0  1  0  0  0  0  0  0  0  0  0
  -13.3430   37.2176   17.9937 H   0  0  0  0  0  0  0  0  0  0  0  0
   -8.4087   48.9030   14.5599 H   0  0  0  0  0  0  0  0  0  0  0  0
   -7.8486   47.9286   13.2420 H   0  0  0  0  0  0  0  0  0  0  0  0
  -12.3937   39.6004   21.1246 H   0  0  0  0  0  0  0  0  0  0  0  0
  -11.8994   38.0453   21.1877 H   0  0  0  0  0  0  0  0  0  0  0  0
  -11.1703   39.0931   20.1692 H   0  0  0  0  0  0  0  0  0  0  0  0
  -11.4845   45.5174   12.0230 H   0  0  0  0  0  0  0  0  0  0  0  0
  -14.3756   40.7789   20.0081 H   0  0  0  0  0  0  0  0  0  0  0  0
  -15.3663   45.9911   15.9362 H   0  0  0  0  0  0  0  0  0  0  0  0
  -15.2538   44.1621   17.5481 H   0  0  0  0  0  0  0  0  0  0  0  0
  -12.7524   47.9620   15.0918 H   0  0  0  0  0  0  0  0  0  0  0  0
  -10.5461   48.8324   15.2781 H   0  0  0  0  0  0  0  0  0  0  0  0
  -12.2621   38.9344   16.9754 H   0  0  0  0  0  0  0  0  0  0  0  0
  1 22  1  0  0  0  0
  2 21  1  0  0  0  0
  2 23  1  0  0  0  0
  3  7  2  0  0  0  0
  3  8  2  0  0  0  0
  3 21  1  0  0  0  0
  3 24  1  0  0  0  0
  4 28  1  0  0  0  0
  5 28  1  0  0  0  0
  6 28  1  0  0  0  0
  9 29  1  0  0  0  0
 10 25  1  0  0  0  0
 11 14  1  0  0  0  0
 11 25  2  0  0  0  0
 12 15  2  0  0  0  0
 12 26  1  0  0  0  0
 13 29  1  0  0  0  0
 14 24  2  0  0  0  0
 15 27  1  0  0  0  0
 16 17  1  0  0  0  0
 16 21  2  0  0  0  0
 17 23  2  0  0  0  0
 18 19  2  0  0  0  0
 18 24  1  0  0  0  0
 19 25  1  0  0  0  0
 20 22  1  0  0  0  0
 20 27  2  0  0  0  0
 22 26  2  0  0  0  0
 23 26  1  0  0  0  0
 27 29  1  0  0  0  0
 28 29  1  0  0  0  0
  9 30  1  0  0  0  0
 10 31  1  0  0  0  0
 10 32  1  0  0  0  0
 13 33  1  0  0  0  0
 13 34  1  0  0  0  0
 13 35  1  0  0  0  0
 14 36  1  0  0  0  0
 15 37  1  0  0  0  0
 16 38  1  0  0  0  0
 17 39  1  0  0  0  0
 18 40  1  0  0  0  0
 19 41  1  0  0  0  0
 20 42  1  0  0  0  0
M  END
> <pdb_id>
4OP1

> <uniprot_id>
Q14397

> <usmiles>
Clc1c(ncc(c1)[C@](O)(C(F)(F)F)C)C=2SC(S(=O)(=O)c3cnc(N)cc3)=CC2

$$$$
2VP_A_501
          07202409333D 1   1.00000     0.00000     0
            
 47 48  0  0  0  0            999 V2000
  -18.6559  -10.2474  -29.4384 O   0  0  0  0  0  0  0  0  0  0  0  0
  -20.4405   -9.3000  -30.3355 O   0  0  0  0  0  0  0  0  0  0  0  0
  -20.3621   -6.5050  -30.3402 C   0  0  0  0  0  0  0  0  0  0  0  0
  -17.7271   -1.1897  -26.8520 C   0  0  0  0  0  0  0  0  0  0  0  0
  -16.9321   -1.5779  -34.4253 C   0  0  0  0  0  0  0  0  0  0  0  0
  -18.7847   -4.5242  -28.5532 C   0  0  0  0  0  0  0  0  0  0  0  0
  -20.6990    0.9718  -29.6032 C   0  0  0  0  0  0  0  0  0  0  0  0
  -19.2760   -5.7527  -28.1111 C   0  0  0  0  0  0  0  0  0  0  0  0
  -18.4479   -3.4769  -27.5803 C   0  0  0  0  0  0  0  0  0  0  0  0
  -20.1354    1.7215  -30.8123 C   0  0  0  0  0  0  0  0  0  0  0  0
  -19.6569    0.1164  -28.8758 C   0  0  0  0  0  0  0  0  0  0  0  0
  -18.4307    0.4005  -33.9332 C   0  0  0  0  0  0  0  0  0  0  0  0
  -19.2017    1.1623  -33.0569 C   0  0  0  0  0  0  0  0  0  0  0  0
  -19.2105   -8.1250  -28.7219 C   0  0  0  0  0  0  0  0  0  0  0  0
  -18.0627   -1.7650  -29.3596 C   0  0  0  0  0  0  0  0  0  0  0  0
  -17.8978   -1.0915  -32.1282 C   0  0  0  0  0  0  0  0  0  0  0  0
  -19.4670   -9.2985  -29.5464 C   0  0  0  0  0  0  0  0  0  0  0  0
  -19.5999   -6.8158  -29.0505 C   0  0  0  0  0  0  0  0  0  0  0  0
  -18.1064   -2.1925  -27.9389 C   0  0  0  0  0  0  0  0  0  0  0  0
  -17.7770   -0.7276  -33.4749 C   0  0  0  0  0  0  0  0  0  0  0  0
  -19.3095    0.8222  -31.7213 C   0  0  0  0  0  0  0  0  0  0  0  0
  -18.7758   -0.6840  -29.8480 C   0  0  0  0  0  0  0  0  0  0  0  0
  -18.6408   -0.3313  -31.2530 C   0  0  0  0  0  0  0  0  0  0  0  0
  -17.8979  -10.1858  -28.7891 H   0  0  0  0  0  0  0  0  0  0  0  0
  -20.4955   -7.3488  -30.8601 H   0  0  0  0  0  0  0  0  0  0  0  0
  -21.2518   -6.1085  -30.1142 H   0  0  0  0  0  0  0  0  0  0  0  0
  -19.8370   -5.8547  -30.8892 H   0  0  0  0  0  0  0  0  0  0  0  0
  -17.5074   -0.3095  -27.2726 H   0  0  0  0  0  0  0  0  0  0  0  0
  -18.4947   -1.0755  -26.2213 H   0  0  0  0  0  0  0  0  0  0  0  0
  -16.9307   -1.5274  -26.3502 H   0  0  0  0  0  0  0  0  0  0  0  0
  -16.5378   -2.3474  -33.9228 H   0  0  0  0  0  0  0  0  0  0  0  0
  -17.5090   -1.9236  -35.1653 H   0  0  0  0  0  0  0  0  0  0  0  0
  -16.1973   -1.0187  -34.8090 H   0  0  0  0  0  0  0  0  0  0  0  0
  -18.6620   -4.3568  -29.5314 H   0  0  0  0  0  0  0  0  0  0  0  0
  -21.4365    0.3738  -29.9170 H   0  0  0  0  0  0  0  0  0  0  0  0
  -21.0651    1.6420  -28.9576 H   0  0  0  0  0  0  0  0  0  0  0  0
  -19.4080   -5.9054  -27.1317 H   0  0  0  0  0  0  0  0  0  0  0  0
  -18.4677   -3.7087  -26.6077 H   0  0  0  0  0  0  0  0  0  0  0  0
  -19.5550    2.4673  -30.4854 H   0  0  0  0  0  0  0  0  0  0  0  0
  -20.8969    2.0983  -31.3397 H   0  0  0  0  0  0  0  0  0  0  0  0
  -20.1316   -0.5233  -28.2713 H   0  0  0  0  0  0  0  0  0  0  0  0
  -19.0712    0.7171  -28.3317 H   0  0  0  0  0  0  0  0  0  0  0  0
  -18.3506    0.6700  -34.8929 H   0  0  0  0  0  0  0  0  0  0  0  0
  -19.6849    1.9678  -33.3999 H   0  0  0  0  0  0  0  0  0  0  0  0
  -18.7221   -8.2613  -27.8600 H   0  0  0  0  0  0  0  0  0  0  0  0
  -17.4901   -2.2832  -29.9949 H   0  0  0  0  0  0  0  0  0  0  0  0
  -17.4378   -1.9155  -31.7973 H   0  0  0  0  0  0  0  0  0  0  0  0
  1 17  1  0  0  0  0
  2 17  2  0  0  0  0
  3 18  1  0  0  0  0
  4 19  1  0  0  0  0
  5 20  1  0  0  0  0
  6  8  2  0  0  0  0
  6  9  1  0  0  0  0
  7 10  1  0  0  0  0
  7 11  1  0  0  0  0
  8 18  1  0  0  0  0
  9 19  2  0  0  0  0
 10 21  1  0  0  0  0
 11 22  1  0  0  0  0
 12 13  1  0  0  0  0
 12 20  2  0  0  0  0
 13 21  2  0  0  0  0
 14 17  1  0  0  0  0
 14 18  2  0  0  0  0
 15 19  1  0  0  0  0
 15 22  2  0  0  0  0
 16 20  1  0  0  0  0
 16 23  2  0  0  0  0
 21 23  1  0  0  0  0
 22 23  1  0  0  0  0
  1 24  1  0  0  0  0
  3 25  1  0  0  0  0
  3 26  1  0  0  0  0
  3 27  1  0  0  0  0
  4 28  1  0  0  0  0
  4 29  1  0  0  0  0
  4 30  1  0  0  0  0
  5 31  1  0  0  0  0
  5 32  1  0  0  0  0
  5 33  1  0  0  0  0
  6 34  1  0  0  0  0
  7 35  1  0  0  0  0
  7 36  1  0  0  0  0
  8 37  1  0  0  0  0
  9 38  1  0  0  0  0
 10 39  1  0  0  0  0
 10 40  1  0  0  0  0
 11 41  1  0  0  0  0
 11 42  1  0  0  0  0
 12 43  1  0  0  0  0
 13 44  1  0  0  0  0
 14 45  1  0  0  0  0
 15 46  1  0  0  0  0
 16 47  1  0  0  0  0
M  END
> <pdb_id>
4POJ

> <uniprot_id>
P19793

> <usmiles>
O=C(O)/C=C(/C=C/C=C(\C=C/1\c2c(ccc(c2)C)CCC1)/C)\C

$$$$
2VQ_A_302
          07192416293D 1   1.00000     0.00000     0
            
 27 27  0  0  0  0            999 V2000
   -5.3585    1.1052   16.4788 S   0  0  0  0  0  0  0  0  0  0  0  0
   -4.7798    1.4145   17.7485 O   0  0  0  0  0  0  0  0  0  0  0  0
   -6.7028    1.5081   16.2035 O   0  0  0  0  0  0  0  0  0  0  0  0
   -0.7359    3.3266   11.9724 O   0  5  0  0  0  0  0  0  0  0  0  0
   -2.5577    2.2259   11.5714 O   0  0  0  0  0  0  0  0  0  0  0  0
   -5.2511   -0.4701   16.2346 N   0  0  0  0  0  0  0  0  0  0  0  0
   -4.3537    1.8388   15.4427 N   0  0  0  0  0  0  0  0  0  0  0  0
   -3.1254    5.7139   14.3186 N   0  0  0  0  0  0  0  0  0  0  0  0
   -1.9347    3.1068   12.1631 N   0  3  0  0  0  0  0  0  0  0  0  0
   -3.9229    3.8337   13.4591 N   0  0  0  0  0  0  0  0  0  0  0  0
   -5.4658    5.1683   14.8964 C   0  0  0  0  0  0  0  0  0  0  0  0
   -4.4667    1.5005   14.0076 C   0  0  0  0  0  0  0  0  0  0  0  0
   -2.1354    5.1202   13.6182 C   0  0  0  0  0  0  0  0  0  0  0  0
   -4.8524    2.7158   13.2369 C   0  0  0  0  0  0  0  0  0  0  0  0
   -4.1847    4.9326   14.2129 C   0  0  0  0  0  0  0  0  0  0  0  0
   -2.6074    3.9605   13.0637 C   0  0  0  0  0  0  0  0  0  0  0  0
   -5.6535   -0.6981   15.3479 H   0  0  0  0  0  0  0  0  0  0  0  0
   -4.2895   -0.7442   16.2446 H   0  0  0  0  0  0  0  0  0  0  0  0
   -3.4207    1.6187   15.7274 H   0  0  0  0  0  0  0  0  0  0  0  0
   -6.1093    4.4408   14.6584 H   0  0  0  0  0  0  0  0  0  0  0  0
   -5.3197    5.1737   15.8856 H   0  0  0  0  0  0  0  0  0  0  0  0
   -5.8391    6.0505   14.6097 H   0  0  0  0  0  0  0  0  0  0  0  0
   -5.1638    0.7940   13.8860 H   0  0  0  0  0  0  0  0  0  0  0  0
   -3.5866    1.1611   13.6753 H   0  0  0  0  0  0  0  0  0  0  0  0
   -1.2045    5.4718   13.5200 H   0  0  0  0  0  0  0  0  0  0  0  0
   -4.8582    2.4907   12.2626 H   0  0  0  0  0  0  0  0  0  0  0  0
   -5.7692    2.9984   13.5192 H   0  0  0  0  0  0  0  0  0  0  0  0
  1  2  2  0  0  0  0
  1  3  2  0  0  0  0
  1  6  1  0  0  0  0
  1  7  1  0  0  0  0
  4  9  1  0  0  0  0
  5  9  2  0  0  0  0
  7 12  1  0  0  0  0
  8 13  1  0  0  0  0
  8 15  2  0  0  0  0
  9 16  1  0  0  0  0
 10 14  1  0  0  0  0
 10 15  1  0  0  0  0
 10 16  1  0  0  0  0
 11 15  1  0  0  0  0
 12 14  1  0  0  0  0
 13 16  2  0  0  0  0
  6 17  1  0  0  0  0
  6 18  1  0  0  0  0
  7 19  1  0  0  0  0
 11 20  1  0  0  0  0
 11 21  1  0  0  0  0
 11 22  1  0  0  0  0
 12 23  1  0  0  0  0
 12 24  1  0  0  0  0
 13 25  1  0  0  0  0
 14 26  1  0  0  0  0
 14 27  1  0  0  0  0
M  CHG  2   4  -1   9   1
M  END
> <pdb_id>
4MO8

> <uniprot_id>
P00918

> <usmiles>
S(=O)(=O)(NCCN1C([N+]([O-])=O)=CN=C1C)N

$$$$
2VY_B_201
          07202408023D 1   1.00000     0.00000     0
            
 32 33  0  0  0  0            999 V2000
   24.6146    6.8522   18.6528 S   0  0  0  0  0  0  0  0  0  0  0  0
   25.4120    7.9914   14.8501 O   0  0  0  0  0  0  0  0  0  0  0  0
   19.9951    5.9354   18.8125 N   0  0  0  0  0  0  0  0  0  0  0  0
   20.7865    1.9014   19.6620 N   0  0  0  0  0  0  0  0  0  0  0  0
   19.7801    3.9505   20.1393 N   0  0  0  0  0  0  0  0  0  0  0  0
   19.3968    2.0221   21.6436 C   0  0  0  0  0  0  0  0  0  0  0  0
   23.3366    6.0112   14.9262 C   0  0  0  0  0  0  0  0  0  0  0  0
   23.3295    5.7377   18.7385 C   0  0  0  0  0  0  0  0  0  0  0  0
   25.6496    7.9558   16.2350 C   0  0  0  0  0  0  0  0  0  0  0  0
   21.3969    2.4526   18.5449 C   0  0  0  0  0  0  0  0  0  0  0  0
   21.7852    4.4816   17.0176 C   0  0  0  0  0  0  0  0  0  0  0  0
   24.6604    7.0449   16.9691 C   0  0  0  0  0  0  0  0  0  0  0  0
   20.0149    2.6520   20.4177 C   0  0  0  0  0  0  0  0  0  0  0  0
   20.2978    4.5688   19.0767 C   0  0  0  0  0  0  0  0  0  0  0  0
   22.9113    5.4416   17.4064 C   0  0  0  0  0  0  0  0  0  0  0  0
   21.1435    3.8179   18.2279 C   0  0  0  0  0  0  0  0  0  0  0  0
   23.6469    6.1988   16.4157 C   0  0  0  0  0  0  0  0  0  0  0  0
   26.0783    8.5955   14.4130 H   0  0  0  0  0  0  0  0  0  0  0  0
   20.3886    6.3892   18.0130 H   0  0  0  0  0  0  0  0  0  0  0  0
   19.3890    6.4410   19.4265 H   0  0  0  0  0  0  0  0  0  0  0  0
   18.8390    2.7005   22.1217 H   0  0  0  0  0  0  0  0  0  0  0  0
   18.8217    1.2517   21.3684 H   0  0  0  0  0  0  0  0  0  0  0  0
   20.1207    1.6970   22.2522 H   0  0  0  0  0  0  0  0  0  0  0  0
   22.5814    5.3641   14.8220 H   0  0  0  0  0  0  0  0  0  0  0  0
   23.0794    6.8908   14.5260 H   0  0  0  0  0  0  0  0  0  0  0  0
   24.1465    5.6565   14.4591 H   0  0  0  0  0  0  0  0  0  0  0  0
   22.9368    5.3573   19.5758 H   0  0  0  0  0  0  0  0  0  0  0  0
   25.5653    8.8830   16.6001 H   0  0  0  0  0  0  0  0  0  0  0  0
   26.5773    7.6180   16.3940 H   0  0  0  0  0  0  0  0  0  0  0  0
   22.0040    1.9014   17.9725 H   0  0  0  0  0  0  0  0  0  0  0  0
   22.1605    3.7707   16.4230 H   0  0  0  0  0  0  0  0  0  0  0  0
   21.0833    4.9939   16.5227 H   0  0  0  0  0  0  0  0  0  0  0  0
  1  8  1  0  0  0  0
  1 12  1  0  0  0  0
  2  9  1  0  0  0  0
  3 14  1  0  0  0  0
  4 10  1  0  0  0  0
  4 13  2  0  0  0  0
  5 13  1  0  0  0  0
  5 14  2  0  0  0  0
  6 13  1  0  0  0  0
  7 17  1  0  0  0  0
  8 15  2  0  0  0  0
  9 12  1  0  0  0  0
 10 16  2  0  0  0  0
 11 15  1  0  0  0  0
 11 16  1  0  0  0  0
 12 17  2  0  0  0  0
 14 16  1  0  0  0  0
 15 17  1  0  0  0  0
  2 18  1  0  0  0  0
  3 19  1  0  0  0  0
  3 20  1  0  0  0  0
  6 21  1  0  0  0  0
  6 22  1  0  0  0  0
  6 23  1  0  0  0  0
  7 24  1  0  0  0  0
  7 25  1  0  0  0  0
  7 26  1  0  0  0  0
  8 27  1  0  0  0  0
  9 28  1  0  0  0  0
  9 29  1  0  0  0  0
 10 30  1  0  0  0  0
 11 31  1  0  0  0  0
 11 32  1  0  0  0  0
M  END
> <pdb_id>
4POP

> <uniprot_id>
A2RI47

> <usmiles>
S1C(=C(C(=C1)Cc2c(nc(nc2)C)N)C)CO

$$$$
2VZ_A_500
          07202409333D 1   1.00000     0.00000     0
            
 47 48  0  0  0  0            999 V2000
  -20.4546   -9.2188  -30.3297 O   0  0  0  0  0  0  0  0  0  0  0  0
  -18.7248  -10.1817  -29.3565 O   0  0  0  0  0  0  0  0  0  0  0  0
  -20.3373   -6.3949  -30.3025 C   0  0  0  0  0  0  0  0  0  0  0  0
  -17.6461   -1.0791  -26.8714 C   0  0  0  0  0  0  0  0  0  0  0  0
  -18.4594    0.0121  -35.6456 C   0  0  0  0  0  0  0  0  0  0  0  0
  -18.7465   -4.4916  -28.4442 C   0  0  0  0  0  0  0  0  0  0  0  0
  -20.5565    1.0412  -29.8181 C   0  0  0  0  0  0  0  0  0  0  0  0
  -19.3183   -5.6798  -28.0177 C   0  0  0  0  0  0  0  0  0  0  0  0
  -18.4152   -3.4072  -27.4940 C   0  0  0  0  0  0  0  0  0  0  0  0
  -19.5876    0.1517  -29.0361 C   0  0  0  0  0  0  0  0  0  0  0  0
  -19.8669    1.6225  -31.0562 C   0  0  0  0  0  0  0  0  0  0  0  0
  -17.9500   -1.3333  -33.5432 C   0  0  0  0  0  0  0  0  0  0  0  0
  -17.9828   -1.5164  -32.1784 C   0  0  0  0  0  0  0  0  0  0  0  0
  -19.2874   -8.0462  -28.6591 C   0  0  0  0  0  0  0  0  0  0  0  0
  -18.0144   -1.7913  -29.3302 C   0  0  0  0  0  0  0  0  0  0  0  0
  -19.1164    0.7385  -33.3058 C   0  0  0  0  0  0  0  0  0  0  0  0
  -19.5104   -9.2173  -29.5105 C   0  0  0  0  0  0  0  0  0  0  0  0
  -19.6311   -6.7407  -28.9879 C   0  0  0  0  0  0  0  0  0  0  0  0
  -18.0587   -2.1396  -27.8958 C   0  0  0  0  0  0  0  0  0  0  0  0
  -18.5119   -0.2036  -34.1291 C   0  0  0  0  0  0  0  0  0  0  0  0
  -18.7228   -0.7496  -29.9248 C   0  0  0  0  0  0  0  0  0  0  0  0
  -19.1801    0.5628  -31.9198 C   0  0  0  0  0  0  0  0  0  0  0  0
  -18.6165   -0.5578  -31.3543 C   0  0  0  0  0  0  0  0  0  0  0  0
  -21.0495   -8.4190  -30.4083 H   0  0  0  0  0  0  0  0  0  0  0  0
  -20.4709   -7.2285  -30.8385 H   0  0  0  0  0  0  0  0  0  0  0  0
  -21.2254   -5.9800  -30.1046 H   0  0  0  0  0  0  0  0  0  0  0  0
  -19.7768   -5.7505  -30.8226 H   0  0  0  0  0  0  0  0  0  0  0  0
  -17.4235   -0.2269  -27.3450 H   0  0  0  0  0  0  0  0  0  0  0  0
  -18.4004   -0.9193  -26.2347 H   0  0  0  0  0  0  0  0  0  0  0  0
  -16.8448   -1.3983  -26.3654 H   0  0  0  0  0  0  0  0  0  0  0  0
  -18.9124    0.8734  -35.8757 H   0  0  0  0  0  0  0  0  0  0  0  0
  -17.5057    0.0468  -35.9445 H   0  0  0  0  0  0  0  0  0  0  0  0
  -18.9257   -0.7432  -36.1061 H   0  0  0  0  0  0  0  0  0  0  0  0
  -18.5533   -4.3642  -29.4171 H   0  0  0  0  0  0  0  0  0  0  0  0
  -20.8642    1.7895  -29.2305 H   0  0  0  0  0  0  0  0  0  0  0  0
  -21.3449    0.4970  -30.1051 H   0  0  0  0  0  0  0  0  0  0  0  0
  -19.5189   -5.8165  -27.0476 H   0  0  0  0  0  0  0  0  0  0  0  0
  -18.4519   -3.6041  -26.5142 H   0  0  0  0  0  0  0  0  0  0  0  0
  -20.1198   -0.4294  -28.4204 H   0  0  0  0  0  0  0  0  0  0  0  0
  -18.9825    0.7398  -28.4995 H   0  0  0  0  0  0  0  0  0  0  0  0
  -19.1780    2.2821  -30.7555 H   0  0  0  0  0  0  0  0  0  0  0  0
  -20.5543    2.0889  -31.6129 H   0  0  0  0  0  0  0  0  0  0  0  0
  -17.5155   -2.0234  -34.1220 H   0  0  0  0  0  0  0  0  0  0  0  0
  -17.5593   -2.3256  -31.7712 H   0  0  0  0  0  0  0  0  0  0  0  0
  -18.8535   -8.1984  -27.7711 H   0  0  0  0  0  0  0  0  0  0  0  0
  -17.4297   -2.3470  -29.9212 H   0  0  0  0  0  0  0  0  0  0  0  0
  -19.5146    1.5603  -33.7132 H   0  0  0  0  0  0  0  0  0  0  0  0
  1 17  1  0  0  0  0
  2 17  2  0  0  0  0
  3 18  1  0  0  0  0
  4 19  1  0  0  0  0
  5 20  1  0  0  0  0
  6  8  2  0  0  0  0
  6  9  1  0  0  0  0
  7 10  1  0  0  0  0
  7 11  1  0  0  0  0
  8 18  1  0  0  0  0
  9 19  2  0  0  0  0
 10 21  1  0  0  0  0
 11 22  1  0  0  0  0
 12 13  1  0  0  0  0
 12 20  2  0  0  0  0
 13 23  2  0  0  0  0
 14 17  1  0  0  0  0
 14 18  2  0  0  0  0
 15 19  1  0  0  0  0
 15 21  2  0  0  0  0
 16 20  1  0  0  0  0
 16 22  2  0  0  0  0
 21 23  1  0  0  0  0
 22 23  1  0  0  0  0
  1 24  1  0  0  0  0
  3 25  1  0  0  0  0
  3 26  1  0  0  0  0
  3 27  1  0  0  0  0
  4 28  1  0  0  0  0
  4 29  1  0  0  0  0
  4 30  1  0  0  0  0
  5 31  1  0  0  0  0
  5 32  1  0  0  0  0
  5 33  1  0  0  0  0
  6 34  1  0  0  0  0
  7 35  1  0  0  0  0
  7 36  1  0  0  0  0
  8 37  1  0  0  0  0
  9 38  1  0  0  0  0
 10 39  1  0  0  0  0
 10 40  1  0  0  0  0
 11 41  1  0  0  0  0
 11 42  1  0  0  0  0
 12 43  1  0  0  0  0
 13 44  1  0  0  0  0
 14 45  1  0  0  0  0
 15 46  1  0  0  0  0
 16 47  1  0  0  0  0
M  END
> <pdb_id>
4PP3

> <uniprot_id>
P19793

> <usmiles>
O=C(O)/C=C(/C=C/C=C(\C=C/1\c2c(cc(cc2)C)CCC1)/C)\C

$$$$
2W1_B_807
          07192416573D 1   1.00000     0.00000     0
            
 51 55  0  0  0  0            999 V2000
   20.7408   -6.1355   23.4557 O   0  0  0  0  0  0  0  0  0  0  0  0
   15.2779    0.8527   20.2491 O   0  0  0  0  0  0  0  0  0  0  0  0
   18.9089   -1.7074   19.2067 O   0  0  0  0  0  0  0  0  0  0  0  0
   19.2204   -3.1720   17.3186 N   0  0  0  0  0  0  0  0  0  0  0  0
   23.8718   -4.5278   22.8700 N   0  0  0  0  0  0  0  0  0  0  0  0
   23.2795   -5.6777   24.6513 N   0  0  0  0  0  0  0  0  0  0  0  0
   15.8889    1.3411   19.0145 C   0  0  0  0  0  0  0  0  0  0  0  0
   14.7167   -0.4905   20.1196 C   0  0  0  0  0  0  0  0  0  0  0  0
   18.8183   -3.7450   16.1600 C   0  0  0  0  0  0  0  0  0  0  0  0
   17.5319   -3.4411   15.6332 C   0  0  0  0  0  0  0  0  0  0  0  0
   27.2927   -4.5168   24.5700 C   0  0  0  0  0  0  0  0  0  0  0  0
   26.8956   -5.2448   25.6875 C   0  0  0  0  0  0  0  0  0  0  0  0
   16.8065    0.3356   18.3358 C   0  0  0  0  0  0  0  0  0  0  0  0
   15.7294   -1.4489   19.5289 C   0  0  0  0  0  0  0  0  0  0  0  0
   20.7788   -2.2204   20.6505 C   0  0  0  0  0  0  0  0  0  0  0  0
   18.8986   -3.8013   20.5218 C   0  0  0  0  0  0  0  0  0  0  0  0
   26.3548   -4.2060   23.5472 C   0  0  0  0  0  0  0  0  0  0  0  0
   25.5586   -5.6882   25.8134 C   0  0  0  0  0  0  0  0  0  0  0  0
   16.7107   -2.5564   16.3077 C   0  0  0  0  0  0  0  0  0  0  0  0
   21.4162   -3.0533   21.5660 C   0  0  0  0  0  0  0  0  0  0  0  0
   19.5319   -4.6166   21.4199 C   0  0  0  0  0  0  0  0  0  0  0  0
   19.5386   -2.5845   20.1252 C   0  0  0  0  0  0  0  0  0  0  0  0
   18.4281   -2.3147   17.9949 C   0  0  0  0  0  0  0  0  0  0  0  0
   21.4351   -5.2532   22.9893 C   0  0  0  0  0  0  0  0  0  0  0  0
   22.8531   -5.1472   23.4782 C   0  0  0  0  0  0  0  0  0  0  0  0
   24.9939   -4.6604   23.6825 C   0  0  0  0  0  0  0  0  0  0  0  0
   24.6146   -5.3770   24.7890 C   0  0  0  0  0  0  0  0  0  0  0  0
   20.7924   -4.2728   21.9576 C   0  0  0  0  0  0  0  0  0  0  0  0
   16.1660   -0.9861   18.2208 C   0  0  0  0  0  0  0  0  0  0  0  0
   17.1301   -1.9608   17.5021 C   0  0  0  0  0  0  0  0  0  0  0  0
   23.8336   -4.0547   21.9898 H   0  0  0  0  0  0  0  0  0  0  0  0
   16.4235    2.1581   19.2305 H   0  0  0  0  0  0  0  0  0  0  0  0
   15.1579    1.5803   18.3755 H   0  0  0  0  0  0  0  0  0  0  0  0
   13.9151   -0.4535   19.5229 H   0  0  0  0  0  0  0  0  0  0  0  0
   14.4443   -0.8194   21.0239 H   0  0  0  0  0  0  0  0  0  0  0  0
   19.4223   -4.3786   15.6766 H   0  0  0  0  0  0  0  0  0  0  0  0
   17.2238   -3.8644   14.7812 H   0  0  0  0  0  0  0  0  0  0  0  0
   28.2411   -4.2111   24.4859 H   0  0  0  0  0  0  0  0  0  0  0  0
   27.5591   -5.4555   26.4053 H   0  0  0  0  0  0  0  0  0  0  0  0
   17.6444    0.2451   18.8740 H   0  0  0  0  0  0  0  0  0  0  0  0
   17.0327    0.6681   17.4202 H   0  0  0  0  0  0  0  0  0  0  0  0
   15.3118   -2.3528   19.4357 H   0  0  0  0  0  0  0  0  0  0  0  0
   16.5204   -1.5084   20.1379 H   0  0  0  0  0  0  0  0  0  0  0  0
   21.2093   -1.3625   20.3699 H   0  0  0  0  0  0  0  0  0  0  0  0
   18.0048   -4.0513   20.1494 H   0  0  0  0  0  0  0  0  0  0  0  0
   26.6358   -3.6792   22.7450 H   0  0  0  0  0  0  0  0  0  0  0  0
   25.2765   -6.2161   26.6146 H   0  0  0  0  0  0  0  0  0  0  0  0
   15.8072   -2.3400   15.9377 H   0  0  0  0  0  0  0  0  0  0  0  0
   22.3052   -2.7976   21.9458 H   0  0  0  0  0  0  0  0  0  0  0  0
   19.0947   -5.4709   21.7008 H   0  0  0  0  0  0  0  0  0  0  0  0
   15.3535   -0.8824   17.6471 H   0  0  0  0  0  0  0  0  0  0  0  0
  1 24  2  0  0  0  0
  2  7  1  0  0  0  0
  2  8  1  0  0  0  0
  3 22  1  0  0  0  0
  3 23  1  0  0  0  0
  4  9  2  0  0  0  0
  4 23  1  0  0  0  0
  5 25  1  0  0  0  0
  5 26  1  0  0  0  0
  6 25  2  0  0  0  0
  6 27  1  0  0  0  0
  7 13  1  0  0  0  0
  8 14  1  0  0  0  0
  9 10  1  0  0  0  0
 10 19  2  0  0  0  0
 11 12  2  0  0  0  0
 11 17  1  0  0  0  0
 12 18  1  0  0  0  0
 13 29  1  0  0  0  0
 14 29  1  0  0  0  0
 15 20  1  0  0  0  0
 15 22  2  0  0  0  0
 16 21  2  0  0  0  0
 16 22  1  0  0  0  0
 17 26  2  0  0  0  0
 18 27  2  0  0  0  0
 19 30  1  0  0  0  0
 20 28  2  0  0  0  0
 21 28  1  0  0  0  0
 23 30  2  0  0  0  0
 24 25  1  0  0  0  0
 24 28  1  0  0  0  0
 26 27  1  0  0  0  0
 29 30  1  0  0  0  0
  5 31  1  0  0  0  0
  7 32  1  0  0  0  0
  7 33  1  0  0  0  0
  8 34  1  0  0  0  0
  8 35  1  0  0  0  0
  9 36  1  0  0  0  0
 10 37  1  0  0  0  0
 11 38  1  0  0  0  0
 12 39  1  0  0  0  0
 13 40  1  0  0  0  0
 13 41  1  0  0  0  0
 14 42  1  0  0  0  0
 14 43  1  0  0  0  0
 15 44  1  0  0  0  0
 16 45  1  0  0  0  0
 17 46  1  0  0  0  0
 18 47  1  0  0  0  0
 19 48  1  0  0  0  0
 20 49  1  0  0  0  0
 21 50  1  0  0  0  0
 29 51  1  0  0  0  0
M  END
> <pdb_id>
4PHW

> <uniprot_id>
Q9Y233

> <usmiles>
O=C(c1ccc(Oc2ncccc2C3CCOCC3)cc1)C4=Nc5c(N4)cccc5

$$$$
2W4_B_2205
          07202417183D 1   1.00000     0.00000     0
            
 56 61  0  0  0  0            999 V2000
  -14.5690  -13.6730   22.5040 O   0  0  0  0  0  0  0  0  0  0  0  0
   -5.7410  -15.0720   24.2630 O   0  0  0  0  0  0  0  0  0  0  0  0
  -10.9520   -4.3970   19.1510 O   0  0  0  0  0  0  0  0  0  0  0  0
  -13.2040  -15.2240   23.5370 N   0  0  0  0  0  0  0  0  0  0  0  0
  -11.8900  -15.3190   23.9020 N   0  0  0  0  0  0  0  0  0  0  0  0
   -7.4510  -15.4560   22.8860 N   0  0  0  0  0  0  0  0  0  0  0  0
  -12.2910  -13.3840   22.9350 N   0  0  0  0  0  0  0  0  0  0  0  0
  -11.8260   -3.6860   19.9480 C   0  0  0  0  0  0  0  0  0  0  0  0
   -8.4470  -16.2820   22.1860 C   0  0  0  0  0  0  0  0  0  0  0  0
   -7.6360  -14.0450   22.5620 C   0  0  0  0  0  0  0  0  0  0  0  0
  -12.4300   -4.4620   20.8450 C   0  0  0  0  0  0  0  0  0  0  0  0
   -9.4080  -15.2490   21.5940 C   0  0  0  0  0  0  0  0  0  0  0  0
  -10.3210   -6.7500   19.0730 C   0  0  0  0  0  0  0  0  0  0  0  0
  -11.7940  -11.9260   21.0350 C   0  0  0  0  0  0  0  0  0  0  0  0
  -12.1480  -10.9460   23.1890 C   0  0  0  0  0  0  0  0  0  0  0  0
   -6.0990  -17.7160   25.4540 C   0  0  0  0  0  0  0  0  0  0  0  0
   -5.0510  -17.8560   24.4170 C   0  0  0  0  0  0  0  0  0  0  0  0
  -10.5190   -7.9900   19.6500 C   0  0  0  0  0  0  0  0  0  0  0  0
  -11.5810  -10.6660   20.5030 C   0  0  0  0  0  0  0  0  0  0  0  0
  -11.9280   -9.6910   22.6510 C   0  0  0  0  0  0  0  0  0  0  0  0
   -9.9210  -13.8380   23.7050 C   0  0  0  0  0  0  0  0  0  0  0  0
  -12.1210   -7.0610   21.1920 C   0  0  0  0  0  0  0  0  0  0  0  0
  -13.5010  -14.0690   22.9380 C   0  0  0  0  0  0  0  0  0  0  0  0
   -6.5040  -15.8670   23.7390 C   0  0  0  0  0  0  0  0  0  0  0  0
  -11.3610  -14.1870   23.5360 C   0  0  0  0  0  0  0  0  0  0  0  0
  -11.0330   -5.6860   19.5900 C   0  0  0  0  0  0  0  0  0  0  0  0
  -12.0910  -12.0700   22.3760 C   0  0  0  0  0  0  0  0  0  0  0  0
   -9.1590  -13.9540   22.3740 C   0  0  1  0  0  0  0  0  0  0  0  0
   -6.4090  -17.3530   24.0280 C   0  0  0  0  0  0  0  0  0  0  0  0
  -11.9320   -5.7930   20.6390 C   0  0  0  0  0  0  0  0  0  0  0  0
  -11.6380   -9.5230   21.2970 C   0  0  0  0  0  0  0  0  0  0  0  0
  -11.4120   -8.1740   20.7120 C   0  0  0  0  0  0  0  0  0  0  0  0
  -13.8749  -15.9469   23.7022 H   0  0  0  0  0  0  0  0  0  0  0  0
  -11.9867   -2.7028   19.8617 H   0  0  0  0  0  0  0  0  0  0  0  0
   -8.9216  -16.8884   22.8240 H   0  0  0  0  0  0  0  0  0  0  0  0
   -8.0180  -16.8265   21.4652 H   0  0  0  0  0  0  0  0  0  0  0  0
   -7.1514  -13.7989   21.7226 H   0  0  0  0  0  0  0  0  0  0  0  0
   -7.3269  -13.4574   23.3098 H   0  0  0  0  0  0  0  0  0  0  0  0
  -13.1001   -4.1742   21.5292 H   0  0  0  0  0  0  0  0  0  0  0  0
  -10.3552  -15.5483   21.7089 H   0  0  0  0  0  0  0  0  0  0  0  0
   -9.2171  -15.1124   20.6219 H   0  0  0  0  0  0  0  0  0  0  0  0
   -9.6862   -6.6280   18.3100 H   0  0  0  0  0  0  0  0  0  0  0  0
  -11.7327  -12.7330   20.4476 H   0  0  0  0  0  0  0  0  0  0  0  0
  -12.3482  -11.0439   24.1639 H   0  0  0  0  0  0  0  0  0  0  0  0
   -6.0233  -16.9987   26.1466 H   0  0  0  0  0  0  0  0  0  0  0  0
   -6.5095  -18.5314   25.8621 H   0  0  0  0  0  0  0  0  0  0  0  0
   -4.7547  -18.7661   24.1274 H   0  0  0  0  0  0  0  0  0  0  0  0
   -4.2685  -17.2334   24.4119 H   0  0  0  0  0  0  0  0  0  0  0  0
  -10.0108   -8.7767   19.2995 H   0  0  0  0  0  0  0  0  0  0  0  0
  -11.3819  -10.5743   19.5273 H   0  0  0  0  0  0  0  0  0  0  0  0
  -11.9778   -8.8878   23.2447 H   0  0  0  0  0  0  0  0  0  0  0  0
   -9.5106  -14.4611   24.3709 H   0  0  0  0  0  0  0  0  0  0  0  0
   -9.8505  -12.8985   24.0401 H   0  0  0  0  0  0  0  0  0  0  0  0
  -12.7718   -7.1785   21.9421 H   0  0  0  0  0  0  0  0  0  0  0  0
   -9.3774  -13.1685   21.7950 H   0  0  0  0  0  0  0  0  0  0  0  0
   -7.0028  -17.9678   23.5090 H   0  0  0  0  0  0  0  0  0  0  0  0
  1 23  2  0  0  0  0
  2 24  2  0  0  0  0
  3  8  1  0  0  0  0
  3 26  1  0  0  0  0
  4  5  1  0  0  0  0
  4 23  1  0  0  0  0
  5 25  2  0  0  0  0
  6  9  1  0  0  0  0
  6 10  1  0  0  0  0
  6 24  1  0  0  0  0
  7 23  1  0  0  0  0
  7 25  1  0  0  0  0
  7 27  1  0  0  0  0
  8 11  2  0  0  0  0
  9 12  1  0  0  0  0
 10 28  1  0  0  0  0
 11 30  1  0  0  0  0
 12 28  1  0  0  0  0
 13 18  1  0  0  0  0
 13 26  2  0  0  0  0
 14 19  1  0  0  0  0
 14 27  2  0  0  0  0
 15 20  2  0  0  0  0
 15 27  1  0  0  0  0
 16 17  1  0  0  0  0
 16 29  1  0  0  0  0
 17 29  1  0  0  0  0
 18 32  2  0  0  0  0
 19 31  2  0  0  0  0
 20 31  1  0  0  0  0
 21 25  1  0  0  0  0
 21 28  1  0  0  0  0
 22 30  2  0  0  0  0
 22 32  1  0  0  0  0
 24 29  1  0  0  0  0
 26 30  1  0  0  0  0
 31 32  1  0  0  0  0
  4 33  1  0  0  0  0
  8 34  1  0  0  0  0
  9 35  1  0  0  0  0
  9 36  1  0  0  0  0
 10 37  1  0  0  0  0
 10 38  1  0  0  0  0
 11 39  1  0  0  0  0
 12 40  1  0  0  0  0
 12 41  1  0  0  0  0
 13 42  1  0  0  0  0
 14 43  1  0  0  0  0
 15 44  1  0  0  0  0
 16 45  1  0  0  0  0
 16 46  1  0  0  0  0
 17 47  1  0  0  0  0
 17 48  1  0  0  0  0
 18 49  1  0  0  0  0
 19 50  1  0  0  0  0
 20 51  1  0  0  0  0
 21 52  1  0  0  0  0
 21 53  1  0  0  0  0
 22 54  1  0  0  0  0
 28 55  1  0  0  0  0
 29 56  1  0  0  0  0
M  END
> <pdb_id>
4PIV

> <uniprot_id>
P49327

> <usmiles>
O=C1N(c2ccc(c3cc4c(OC=C4)cc3)cc2)C(=NN1)C[C@H]5CN(C(=O)C6CC6)CC5

$$$$
2W5_A_201
          07202416583D 1   1.00000     0.00000     0
            
 49 51  0  0  0  0            999 V2000
   21.0260   47.3020  -27.3720 Cl  0  0  0  0  0  0  0  0  0  0  0  0
   19.2620   49.0620  -29.2170 Cl  0  0  0  0  0  0  0  0  0  0  0  0
   20.1360   45.3000  -33.8590 O   0  0  0  0  0  0  0  0  0  0  0  0
   25.7840   44.1610  -31.3630 O   0  0  0  0  0  0  0  0  0  0  0  0
   21.8640   42.0890  -29.4720 O   0  0  0  0  0  0  0  0  0  0  0  0
   18.9130   43.8190  -32.6850 N   0  0  0  0  0  0  0  0  0  0  0  0
   23.9780   43.5300  -32.7580 N   0  0  0  0  0  0  0  0  0  0  0  0
   22.0790   42.5250  -31.7550 N   0  0  0  0  0  0  0  0  0  0  0  0
   26.6110   44.3150  -32.5050 C   0  0  0  0  0  0  0  0  0  0  0  0
   21.3200   40.7940  -29.8370 C   0  0  0  0  0  0  0  0  0  0  0  0
   18.2550   44.9410  -32.0320 C   0  0  0  0  0  0  0  0  0  0  0  0
   20.6930   41.5830  -36.4690 C   0  0  0  0  0  0  0  0  0  0  0  0
   22.2080   41.8240  -36.3470 C   0  0  0  0  0  0  0  0  0  0  0  0
   20.5090   45.2290  -29.0270 C   0  0  0  0  0  0  0  0  0  0  0  0
   19.9460   42.6820  -35.7180 C   0  0  0  0  0  0  0  0  0  0  0  0
   22.5710   41.5370  -34.8870 C   0  0  0  0  0  0  0  0  0  0  0  0
   19.8390   44.6540  -30.1100 C   0  0  0  0  0  0  0  0  0  0  0  0
   23.8630   43.1410  -30.3920 C   0  0  0  0  0  0  0  0  0  0  0  0
   18.8230   46.8140  -30.6040 C   0  0  0  0  0  0  0  0  0  0  0  0
   19.8380   44.1750  -33.6080 C   0  0  0  0  0  0  0  0  0  0  0  0
   20.2970   46.5920  -28.7520 C   0  0  0  0  0  0  0  0  0  0  0  0
   19.4660   47.3730  -29.5240 C   0  0  0  0  0  0  0  0  0  0  0  0
   24.5480   43.5960  -31.5580 C   0  0  0  0  0  0  0  0  0  0  0  0
   22.5960   42.5660  -30.5270 C   0  0  0  0  0  0  0  0  0  0  0  0
   22.7360   43.0050  -32.8100 C   0  0  0  0  0  0  0  0  0  0  0  0
   19.0210   45.4690  -30.8860 C   0  0  0  0  0  0  0  0  0  0  0  0
   20.6040   43.1620  -34.4450 C   0  0  0  0  0  0  0  0  0  0  0  0
   21.9840   42.7000  -34.0300 C   0  0  0  0  0  0  0  0  0  0  0  0
   18.7001   42.8658  -32.4703 H   0  0  0  0  0  0  0  0  0  0  0  0
   27.4776   44.7346  -32.2349 H   0  0  0  0  0  0  0  0  0  0  0  0
   26.7872   43.4188  -32.9122 H   0  0  0  0  0  0  0  0  0  0  0  0
   26.1513   44.9001  -33.1730 H   0  0  0  0  0  0  0  0  0  0  0  0
   20.7820   40.4319  -29.0758 H   0  0  0  0  0  0  0  0  0  0  0  0
   20.7344   40.8932  -30.6415 H   0  0  0  0  0  0  0  0  0  0  0  0
   22.0687   40.1646  -30.0452 H   0  0  0  0  0  0  0  0  0  0  0  0
   17.3593   44.6393  -31.7052 H   0  0  0  0  0  0  0  0  0  0  0  0
   18.1360   45.6745  -32.7012 H   0  0  0  0  0  0  0  0  0  0  0  0
   20.4633   40.6932  -36.0745 H   0  0  0  0  0  0  0  0  0  0  0  0
   20.4288   41.5983  -37.4333 H   0  0  0  0  0  0  0  0  0  0  0  0
   22.4279   42.7715  -36.5789 H   0  0  0  0  0  0  0  0  0  0  0  0
   22.7071   41.2074  -36.9558 H   0  0  0  0  0  0  0  0  0  0  0  0
   21.1258   44.6833  -28.4598 H   0  0  0  0  0  0  0  0  0  0  0  0
   19.0387   42.3330  -35.4833 H   0  0  0  0  0  0  0  0  0  0  0  0
   19.8531   43.4662  -36.3315 H   0  0  0  0  0  0  0  0  0  0  0  0
   23.5648   41.5012  -34.7815 H   0  0  0  0  0  0  0  0  0  0  0  0
   22.1737   40.6653  -34.6000 H   0  0  0  0  0  0  0  0  0  0  0  0
   19.9447   43.6824  -30.3217 H   0  0  0  0  0  0  0  0  0  0  0  0
   24.2840   43.2323  -29.4895 H   0  0  0  0  0  0  0  0  0  0  0  0
   18.2211   47.3689  -31.1783 H   0  0  0  0  0  0  0  0  0  0  0  0
  1 21  1  0  0  0  0
  2 22  1  0  0  0  0
  3 20  2  0  0  0  0
  4  9  1  0  0  0  0
  4 23  1  0  0  0  0
  5 10  1  0  0  0  0
  5 24  1  0  0  0  0
  6 11  1  0  0  0  0
  6 20  1  0  0  0  0
  7 23  2  0  0  0  0
  7 25  1  0  0  0  0
  8 24  1  0  0  0  0
  8 25  2  0  0  0  0
 11 26  1  0  0  0  0
 12 13  1  0  0  0  0
 12 15  1  0  0  0  0
 13 16  1  0  0  0  0
 14 17  1  0  0  0  0
 14 21  2  0  0  0  0
 15 27  1  0  0  0  0
 16 28  1  0  0  0  0
 17 26  2  0  0  0  0
 18 23  1  0  0  0  0
 18 24  2  0  0  0  0
 19 22  2  0  0  0  0
 19 26  1  0  0  0  0
 20 27  1  0  0  0  0
 21 22  1  0  0  0  0
 25 28  1  0  0  0  0
 27 28  2  0  0  0  0
  6 29  1  0  0  0  0
  9 30  1  0  0  0  0
  9 31  1  0  0  0  0
  9 32  1  0  0  0  0
 10 33  1  0  0  0  0
 10 34  1  0  0  0  0
 10 35  1  0  0  0  0
 11 36  1  0  0  0  0
 11 37  1  0  0  0  0
 12 38  1  0  0  0  0
 12 39  1  0  0  0  0
 13 40  1  0  0  0  0
 13 41  1  0  0  0  0
 14 42  1  0  0  0  0
 15 43  1  0  0  0  0
 15 44  1  0  0  0  0
 16 45  1  0  0  0  0
 16 46  1  0  0  0  0
 17 47  1  0  0  0  0
 18 48  1  0  0  0  0
 19 49  1  0  0  0  0
M  END
> <pdb_id>
4NAT

> <uniprot_id>
P63820

> <usmiles>
Clc1c(Cl)ccc(c1)CNC(=O)C2=C(c3nc(OC)cc(OC)n3)CCCC2

$$$$
2W5_C_201
          07202416583D 1   1.00000     0.00000     0
            
 51 53  0  0  0  0            999 V2000
   20.9943   47.4131  -27.2648 Cl  0  0  0  0  0  0  0  0  0  0  0  0
   19.3762   49.0936  -29.2849 Cl  0  0  0  0  0  0  0  0  0  0  0  0
   20.2001   45.2257  -33.6376 O   0  0  0  0  0  0  0  0  0  0  0  0
   21.9484   42.3331  -29.4099 O   0  0  0  0  0  0  0  0  0  0  0  0
   25.8672   44.2934  -31.3764 O   0  0  0  0  0  0  0  0  0  0  0  0
   18.9942   43.6960  -32.6122 N   0  0  0  0  0  0  0  0  0  0  0  0
   22.1528   42.5952  -31.6243 N   0  0  0  0  0  0  0  0  0  0  0  0
   23.9863   43.5435  -32.6594 N   0  0  0  0  0  0  0  0  0  0  0  0
   22.6707   42.6069  -28.1681 C   0  0  0  0  0  0  0  0  0  0  0  0
   26.5344   44.2829  -32.6324 C   0  0  0  0  0  0  0  0  0  0  0  0
   18.2830   44.7333  -31.9119 C   0  0  0  0  0  0  0  0  0  0  0  0
   20.6200   41.5004  -36.1578 C   0  0  0  0  0  0  0  0  0  0  0  0
   22.1368   41.7184  -36.3666 C   0  0  0  0  0  0  0  0  0  0  0  0
   20.3547   45.2562  -28.8241 C   0  0  0  0  0  0  0  0  0  0  0  0
   19.9144   42.7147  -35.5126 C   0  0  0  0  0  0  0  0  0  0  0  0
   22.9084   42.0546  -35.0958 C   0  0  0  0  0  0  0  0  0  0  0  0
   19.7299   44.6245  -29.8923 C   0  0  0  0  0  0  0  0  0  0  0  0
   23.9627   43.3264  -30.2730 C   0  0  0  0  0  0  0  0  0  0  0  0
   18.8556   46.7834  -30.6304 C   0  0  0  0  0  0  0  0  0  0  0  0
   19.9557   44.0921  -33.4722 C   0  0  0  0  0  0  0  0  0  0  0  0
   20.2112   46.6176  -28.6229 C   0  0  0  0  0  0  0  0  0  0  0  0
   19.4724   47.3818  -29.5367 C   0  0  0  0  0  0  0  0  0  0  0  0
   22.6857   42.7563  -30.4124 C   0  0  0  0  0  0  0  0  0  0  0  0
   24.6309   43.6932  -31.4796 C   0  0  0  0  0  0  0  0  0  0  0  0
   22.7610   43.0130  -32.7200 C   0  0  0  0  0  0  0  0  0  0  0  0
   18.9940   45.3957  -30.7870 C   0  0  0  0  0  0  0  0  0  0  0  0
   20.8300   43.3813  -34.4613 C   0  0  1  0  0  0  0  0  0  0  0  0
   21.9627   42.5568  -33.9424 C   0  0  1  0  0  0  0  0  0  0  0  0
   18.7857   42.7286  -32.4684 H   0  0  0  0  0  0  0  0  0  0  0  0
   22.1270   42.2924  -27.3900 H   0  0  0  0  0  0  0  0  0  0  0  0
   23.5469   42.1251  -28.1790 H   0  0  0  0  0  0  0  0  0  0  0  0
   22.8321   43.5904  -28.0862 H   0  0  0  0  0  0  0  0  0  0  0  0
   27.4281   44.7216  -32.5387 H   0  0  0  0  0  0  0  0  0  0  0  0
   26.6571   43.3382  -32.9368 H   0  0  0  0  0  0  0  0  0  0  0  0
   25.9872   44.7813  -33.3047 H   0  0  0  0  0  0  0  0  0  0  0  0
   17.4454   44.3297  -31.5438 H   0  0  0  0  0  0  0  0  0  0  0  0
   18.0472   45.4406  -32.5783 H   0  0  0  0  0  0  0  0  0  0  0  0
   20.4917   40.7058  -35.5644 H   0  0  0  0  0  0  0  0  0  0  0  0
   20.1988   41.3237  -37.0474 H   0  0  0  0  0  0  0  0  0  0  0  0
   22.2580   42.4710  -37.0139 H   0  0  0  0  0  0  0  0  0  0  0  0
   22.5223   40.8807  -36.7535 H   0  0  0  0  0  0  0  0  0  0  0  0
   20.9151   44.7201  -28.1928 H   0  0  0  0  0  0  0  0  0  0  0  0
   19.0730   42.4076  -35.0679 H   0  0  0  0  0  0  0  0  0  0  0  0
   19.6914   43.3812  -36.2239 H   0  0  0  0  0  0  0  0  0  0  0  0
   23.5732   42.7724  -35.3029 H   0  0  0  0  0  0  0  0  0  0  0  0
   23.3891   41.2349  -34.7844 H   0  0  0  0  0  0  0  0  0  0  0  0
   19.8074   43.6352  -30.0157 H   0  0  0  0  0  0  0  0  0  0  0  0
   24.3811   43.4677  -29.3757 H   0  0  0  0  0  0  0  0  0  0  0  0
   18.3294   47.3257  -31.2855 H   0  0  0  0  0  0  0  0  0  0  0  0
   21.2784   44.1205  -34.9640 H   0  0  0  0  0  0  0  0  0  0  0  0
   21.5153   41.7196  -33.6281 H   0  0  0  0  0  0  0  0  0  0  0  0
  1 21  1  0  0  0  0
  2 22  1  0  0  0  0
  3 20  2  0  0  0  0
  4  9  1  0  0  0  0
  4 23  1  0  0  0  0
  5 10  1  0  0  0  0
  5 24  1  0  0  0  0
  6 11  1  0  0  0  0
  6 20  1  0  0  0  0
  7 23  2  0  0  0  0
  7 25  1  0  0  0  0
  8 24  1  0  0  0  0
  8 25  2  0  0  0  0
 11 26  1  0  0  0  0
 12 13  1  0  0  0  0
 12 15  1  0  0  0  0
 13 16  1  0  0  0  0
 14 17  2  0  0  0  0
 14 21  1  0  0  0  0
 15 27  1  0  0  0  0
 16 28  1  0  0  0  0
 17 26  1  0  0  0  0
 18 23  1  0  0  0  0
 18 24  2  0  0  0  0
 19 22  1  0  0  0  0
 19 26  2  0  0  0  0
 20 27  1  0  0  0  0
 21 22  2  0  0  0  0
 25 28  1  0  0  0  0
 27 28  1  0  0  0  0
  6 29  1  0  0  0  0
  9 30  1  0  0  0  0
  9 31  1  0  0  0  0
  9 32  1  0  0  0  0
 10 33  1  0  0  0  0
 10 34  1  0  0  0  0
 10 35  1  0  0  0  0
 11 36  1  0  0  0  0
 11 37  1  0  0  0  0
 12 38  1  0  0  0  0
 12 39  1  0  0  0  0
 13 40  1  0  0  0  0
 13 41  1  0  0  0  0
 14 42  1  0  0  0  0
 15 43  1  0  0  0  0
 15 44  1  0  0  0  0
 16 45  1  0  0  0  0
 16 46  1  0  0  0  0
 17 47  1  0  0  0  0
 18 48  1  0  0  0  0
 19 49  1  0  0  0  0
 27 50  1  0  0  0  0
 28 51  1  0  0  0  0
M  END
> <pdb_id>
4NAT

> <uniprot_id>
P63820

> <usmiles>
Clc1c(Cl)ccc(c1)CNC(=O)[C@H]2[C@H](c3nc(OC)cc(OC)n3)CCCC2

$$$$
2WF_A_501
          07202403123D 1   1.00000     0.00000     0
            
 37 40  0  0  0  0            999 V2000
   41.7187    4.9206   34.0353 O   0  0  0  0  0  0  0  0  0  0  0  0
   36.3122   11.9360   30.9984 N   0  0  0  0  0  0  0  0  0  0  0  0
   41.1731    7.8676   37.0415 N   0  0  0  0  0  0  0  0  0  0  0  0
   41.7291    5.7749   36.1244 N   0  0  0  0  0  0  0  0  0  0  0  0
   36.4827   11.2190   29.8662 C   0  0  0  0  0  0  0  0  0  0  0  0
   40.6154    9.0981   36.9496 C   0  0  0  0  0  0  0  0  0  0  0  0
   36.9439   11.5965   32.1453 C   0  0  0  0  0  0  0  0  0  0  0  0
   37.3269   10.1088   29.8465 C   0  0  0  0  0  0  0  0  0  0  0  0
   39.9920    9.4973   35.7680 C   0  0  0  0  0  0  0  0  0  0  0  0
   42.1466    2.2181   35.0034 C   0  0  0  0  0  0  0  0  0  0  0  0
   43.5418    2.8029   34.7475 C   0  0  0  0  0  0  0  0  0  0  0  0
   38.8335    8.6390   31.0545 C   0  0  0  0  0  0  0  0  0  0  0  0
   39.4805    8.2884   32.2374 C   0  0  0  0  0  0  0  0  0  0  0  0
   40.5431    7.3702   34.8060 C   0  0  0  0  0  0  0  0  0  0  0  0
   38.4577   10.1404   33.3587 C   0  0  0  0  0  0  0  0  0  0  0  0
   41.9614    4.7933   35.2258 C   0  0  0  0  0  0  0  0  0  0  0  0
   41.1586    6.9961   35.9938 C   0  0  0  0  0  0  0  0  0  0  0  0
   42.5779    3.5038   35.7116 C   0  0  0  0  0  0  0  0  0  0  0  0
   37.7943   10.4916   32.1806 C   0  0  0  0  0  0  0  0  0  0  0  0
   37.9830    9.7402   31.0226 C   0  0  0  0  0  0  0  0  0  0  0  0
   39.9728    8.6348   34.6734 C   0  0  0  0  0  0  0  0  0  0  0  0
   39.2975    9.0333   33.4033 C   0  0  0  0  0  0  0  0  0  0  0  0
   42.0332    5.5614   37.0528 H   0  0  0  0  0  0  0  0  0  0  0  0
   35.9984   11.4871   29.0334 H   0  0  0  0  0  0  0  0  0  0  0  0
   40.6508    9.7216   37.7306 H   0  0  0  0  0  0  0  0  0  0  0  0
   36.8004   12.1404   32.9720 H   0  0  0  0  0  0  0  0  0  0  0  0
   37.4600    9.5858   29.0045 H   0  0  0  0  0  0  0  0  0  0  0  0
   39.5610   10.3976   35.7063 H   0  0  0  0  0  0  0  0  0  0  0  0
   42.0478    1.3698   35.5237 H   0  0  0  0  0  0  0  0  0  0  0  0
   41.4510    2.2519   34.2858 H   0  0  0  0  0  0  0  0  0  0  0  0
   43.7557    3.2186   33.8636 H   0  0  0  0  0  0  0  0  0  0  0  0
   44.3525    2.3366   35.1015 H   0  0  0  0  0  0  0  0  0  0  0  0
   38.9806    8.0981   30.2264 H   0  0  0  0  0  0  0  0  0  0  0  0
   40.0847    7.4916   32.2512 H   0  0  0  0  0  0  0  0  0  0  0  0
   40.5090    6.7275   34.0406 H   0  0  0  0  0  0  0  0  0  0  0  0
   38.3268   10.6932   34.1816 H   0  0  0  0  0  0  0  0  0  0  0  0
   42.7836    3.4379   36.6880 H   0  0  0  0  0  0  0  0  0  0  0  0
  1 16  2  0  0  0  0
  2  5  1  0  0  0  0
  2  7  2  0  0  0  0
  3  6  1  0  0  0  0
  3 17  2  0  0  0  0
  4 16  1  0  0  0  0
  4 17  1  0  0  0  0
  5  8  2  0  0  0  0
  6  9  2  0  0  0  0
  7 19  1  0  0  0  0
  8 20  1  0  0  0  0
  9 21  1  0  0  0  0
 10 11  1  0  0  0  0
 10 18  1  0  0  0  0
 11 18  1  0  0  0  0
 12 13  1  0  0  0  0
 12 20  2  0  0  0  0
 13 22  2  0  0  0  0
 14 17  1  0  0  0  0
 14 21  2  0  0  0  0
 15 19  2  0  0  0  0
 15 22  1  0  0  0  0
 16 18  1  0  0  0  0
 19 20  1  0  0  0  0
 21 22  1  0  0  0  0
  4 23  1  0  0  0  0
  5 24  1  0  0  0  0
  6 25  1  0  0  0  0
  7 26  1  0  0  0  0
  8 27  1  0  0  0  0
  9 28  1  0  0  0  0
 10 29  1  0  0  0  0
 10 30  1  0  0  0  0
 11 31  1  0  0  0  0
 11 32  1  0  0  0  0
 12 33  1  0  0  0  0
 13 34  1  0  0  0  0
 14 35  1  0  0  0  0
 15 36  1  0  0  0  0
 18 37  1  0  0  0  0
M  END
> <pdb_id>
4PTE

> <uniprot_id>
P49841

> <usmiles>
O=C(Nc1nccc(c2cc3c(ccnc3)cc2)c1)C4CC4

$$$$
2WG_A_501
          07202403123D 1   1.00000     0.00000     0
            
 38 40  0  0  0  0            999 V2000
   35.9413   12.0335   30.9770 O   0  0  0  0  0  0  0  0  0  0  0  0
   41.4762    5.4297   34.0050 O   0  0  0  0  0  0  0  0  0  0  0  0
   38.3901    8.7180   30.5042 O   0  0  0  0  0  0  0  0  0  0  0  0
   36.5872   10.4757   29.5373 N   0  0  0  0  0  0  0  0  0  0  0  0
   41.1844    8.2140   37.2299 N   0  0  0  0  0  0  0  0  0  0  0  0
   38.2542   10.7264   34.0260 N   0  0  0  0  0  0  0  0  0  0  0  0
   41.7169    6.2417   36.1050 N   0  0  0  0  0  0  0  0  0  0  0  0
   39.0585    8.9709   32.7081 N   0  0  0  0  0  0  0  0  0  0  0  0
   39.2424    7.5433   30.3920 C   0  0  0  0  0  0  0  0  0  0  0  0
   40.5820    9.4257   37.2969 C   0  0  0  0  0  0  0  0  0  0  0  0
   37.5039   11.1864   33.0151 C   0  0  0  0  0  0  0  0  0  0  0  0
   39.8665    9.9252   36.2110 C   0  0  0  0  0  0  0  0  0  0  0  0
   43.2948    3.2413   34.4549 C   0  0  0  0  0  0  0  0  0  0  0  0
   41.9373    2.7040   34.9196 C   0  0  0  0  0  0  0  0  0  0  0  0
   40.4085    7.9140   35.0121 C   0  0  0  0  0  0  0  0  0  0  0  0
   36.6503   11.0704   30.7333 C   0  0  0  0  0  0  0  0  0  0  0  0
   41.8561    5.2846   35.1658 C   0  0  0  0  0  0  0  0  0  0  0  0
   38.3227    9.3867   31.6556 C   0  0  0  0  0  0  0  0  0  0  0  0
   41.1097    7.4446   36.1165 C   0  0  0  0  0  0  0  0  0  0  0  0
   39.0295    9.6429   33.8772 C   0  0  0  0  0  0  0  0  0  0  0  0
   42.5144    3.9758   35.5534 C   0  0  0  0  0  0  0  0  0  0  0  0
   39.8082    9.1636   35.0478 C   0  0  0  0  0  0  0  0  0  0  0  0
   37.5250   10.5267   31.8071 C   0  0  0  0  0  0  0  0  0  0  0  0
   37.1690    9.6868   29.3399 H   0  0  0  0  0  0  0  0  0  0  0  0
   35.9582   10.8200   28.8403 H   0  0  0  0  0  0  0  0  0  0  0  0
   42.1553    6.0110   36.9737 H   0  0  0  0  0  0  0  0  0  0  0  0
   39.1730    7.1683   29.4676 H   0  0  0  0  0  0  0  0  0  0  0  0
   40.1908    7.8007   30.5770 H   0  0  0  0  0  0  0  0  0  0  0  0
   38.9488    6.8540   31.0543 H   0  0  0  0  0  0  0  0  0  0  0  0
   40.6517    9.9673   38.1346 H   0  0  0  0  0  0  0  0  0  0  0  0
   36.9352   11.9999   33.1370 H   0  0  0  0  0  0  0  0  0  0  0  0
   39.4053   10.8108   36.2661 H   0  0  0  0  0  0  0  0  0  0  0  0
   43.3862    3.6511   33.5473 H   0  0  0  0  0  0  0  0  0  0  0  0
   44.1332    2.7462   34.6831 H   0  0  0  0  0  0  0  0  0  0  0  0
   41.8898    1.8581   35.4508 H   0  0  0  0  0  0  0  0  0  0  0  0
   41.1429    2.7630   34.3151 H   0  0  0  0  0  0  0  0  0  0  0  0
   40.3367    7.3493   34.1899 H   0  0  0  0  0  0  0  0  0  0  0  0
   42.8635    3.9009   36.4875 H   0  0  0  0  0  0  0  0  0  0  0  0
  1 16  2  0  0  0  0
  2 17  2  0  0  0  0
  3  9  1  0  0  0  0
  3 18  1  0  0  0  0
  4 16  1  0  0  0  0
  5 10  2  0  0  0  0
  5 19  1  0  0  0  0
  6 11  1  0  0  0  0
  6 20  2  0  0  0  0
  7 17  1  0  0  0  0
  7 19  1  0  0  0  0
  8 18  2  0  0  0  0
  8 20  1  0  0  0  0
 10 12  1  0  0  0  0
 11 23  2  0  0  0  0
 12 22  2  0  0  0  0
 13 14  1  0  0  0  0
 13 21  1  0  0  0  0
 14 21  1  0  0  0  0
 15 19  2  0  0  0  0
 15 22  1  0  0  0  0
 16 23  1  0  0  0  0
 17 21  1  0  0  0  0
 18 23  1  0  0  0  0
 20 22  1  0  0  0  0
  4 24  1  0  0  0  0
  4 25  1  0  0  0  0
  7 26  1  0  0  0  0
  9 27  1  0  0  0  0
  9 28  1  0  0  0  0
  9 29  1  0  0  0  0
 10 30  1  0  0  0  0
 11 31  1  0  0  0  0
 12 32  1  0  0  0  0
 13 33  1  0  0  0  0
 13 34  1  0  0  0  0
 14 35  1  0  0  0  0
 14 36  1  0  0  0  0
 15 37  1  0  0  0  0
 21 38  1  0  0  0  0
M  END
> <pdb_id>
4PTG

> <uniprot_id>
P49841

> <usmiles>
O=C(N)c1c(OC)nc(nc1)c2cc(ncc2)NC(=O)C3CC3

$$$$
2WU_A_405
          07202407253D 1   1.00000     0.00000     0
            
 27 29  0  0  0  0            999 V2000
  103.5629   16.8774   24.0104 O   0  0  0  0  0  0  0  0  0  0  0  0
   99.2722   15.5399   24.8685 N   0  0  0  0  0  0  0  0  0  0  0  0
  103.0059   17.2020   16.4221 N   0  0  0  0  0  0  0  0  0  0  0  0
  101.4293   16.2366   24.3914 N   0  0  0  0  0  0  0  0  0  0  0  0
   99.9400   15.6260   22.6493 N   0  0  0  0  0  0  0  0  0  0  0  0
  101.4801   16.4524   18.0326 N   0  0  0  0  0  0  0  0  0  0  0  0
  103.5346   17.0382   18.7041 N   0  0  0  0  0  0  0  0  0  0  0  0
  102.0801   17.1052   15.3085 C   0  0  0  0  0  0  0  0  0  0  0  0
  100.6120   15.8869   20.3527 C   0  0  0  0  0  0  0  0  0  0  0  0
  103.1556   16.7284   21.1905 C   0  0  0  0  0  0  0  0  0  0  0  0
  100.2114   15.8004   23.9428 C   0  0  0  0  0  0  0  0  0  0  0  0
  102.6723   16.8927   17.6733 C   0  0  0  0  0  0  0  0  0  0  0  0
  102.4798   16.5196   23.5650 C   0  0  0  0  0  0  0  0  0  0  0  0
  101.5697   16.3085   19.4225 C   0  0  0  0  0  0  0  0  0  0  0  0
  102.8397   16.6898   19.8510 C   0  0  0  0  0  0  0  0  0  0  0  0
  100.9351   15.9307   21.7262 C   0  0  0  0  0  0  0  0  0  0  0  0
  102.2008   16.3739   22.1316 C   0  0  0  0  0  0  0  0  0  0  0  0
   98.3679   15.2191   24.5869 H   0  0  0  0  0  0  0  0  0  0  0  0
   99.4779   15.6669   25.8389 H   0  0  0  0  0  0  0  0  0  0  0  0
  103.9380   17.5157   16.2411 H   0  0  0  0  0  0  0  0  0  0  0  0
  101.5566   16.3542   25.3762 H   0  0  0  0  0  0  0  0  0  0  0  0
  100.6926   16.2644   17.4456 H   0  0  0  0  0  0  0  0  0  0  0  0
  102.5411   17.3853   14.4665 H   0  0  0  0  0  0  0  0  0  0  0  0
  101.7654   16.1604   15.2178 H   0  0  0  0  0  0  0  0  0  0  0  0
  101.2959   17.7033   15.4740 H   0  0  0  0  0  0  0  0  0  0  0  0
   99.7164   15.5611   20.0500 H   0  0  0  0  0  0  0  0  0  0  0  0
  104.0691   17.0107   21.4834 H   0  0  0  0  0  0  0  0  0  0  0  0
  1 13  2  0  0  0  0
  2 11  1  0  0  0  0
  3  8  1  0  0  0  0
  3 12  1  0  0  0  0
  4 11  1  0  0  0  0
  4 13  1  0  0  0  0
  5 11  2  0  0  0  0
  5 16  1  0  0  0  0
  6 12  1  0  0  0  0
  6 14  1  0  0  0  0
  7 12  2  0  0  0  0
  7 15  1  0  0  0  0
  9 14  1  0  0  0  0
  9 16  2  0  0  0  0
 10 15  1  0  0  0  0
 10 17  2  0  0  0  0
 13 17  1  0  0  0  0
 14 15  2  0  0  0  0
 16 17  1  0  0  0  0
  2 18  1  0  0  0  0
  2 19  1  0  0  0  0
  3 20  1  0  0  0  0
  4 21  1  0  0  0  0
  6 22  1  0  0  0  0
  8 23  1  0  0  0  0
  8 24  1  0  0  0  0
  8 25  1  0  0  0  0
  9 26  1  0  0  0  0
 10 27  1  0  0  0  0
M  END
> <pdb_id>
4PUK

> <uniprot_id>
P28720

> <usmiles>
O=C1NC(=Nc2c1cc3N=C(Nc3c2)NC)N

$$$$
2X4_A_502
          07202405583D 1   1.00000     0.00000     0
            
 44 48  0  0  0  0            999 V2000
   70.9372   45.7989    2.7348 Cl  0  0  0  0  0  0  0  0  0  0  0  0
   66.5852   52.0642   11.3062 O   0  0  0  0  0  0  0  0  0  0  0  0
   66.5846   47.0229    7.9968 O   0  0  0  0  0  0  0  0  0  0  0  0
   69.7558   50.7617   10.1248 O   0  0  0  0  0  0  0  0  0  0  0  0
   65.5352   48.1651    6.2756 N   0  0  0  0  0  0  0  0  0  0  0  0
   73.6838   45.7244    5.6332 N   0  0  0  0  0  0  0  0  0  0  0  0
   67.1237   49.2007    7.7198 N   0  0  0  0  0  0  0  0  0  0  0  0
   65.8564   50.8566   11.5230 C   0  0  0  0  0  0  0  0  0  0  0  0
   68.0017   51.9542   11.2239 C   0  0  0  0  0  0  0  0  0  0  0  0
   67.5397   47.3112    9.0265 C   0  0  0  0  0  0  0  0  0  0  0  0
   73.0094   45.4962    4.4843 C   0  0  0  0  0  0  0  0  0  0  0  0
   73.1754   46.5802    6.5481 C   0  0  0  0  0  0  0  0  0  0  0  0
   66.0669   49.8883   10.3386 C   0  0  0  0  0  0  0  0  0  0  0  0
   71.6562   49.9732    8.9170 C   0  0  0  0  0  0  0  0  0  0  0  0
   72.2347   49.1005    7.9636 C   0  0  0  0  0  0  0  0  0  0  0  0
   71.2286   47.0298    5.1422 C   0  0  0  0  0  0  0  0  0  0  0  0
   70.0241   48.0674    7.5966 C   0  0  0  0  0  0  0  0  0  0  0  0
   66.4601   48.1444    7.2418 C   0  0  0  0  0  0  0  0  0  0  0  0
   71.7688   46.1219    4.1993 C   0  0  0  0  0  0  0  0  0  0  0  0
   68.3664   51.0375   10.0360 C   0  0  2  0  0  0  0  0  0  0  0  0
   70.2686   49.8875    9.2046 C   0  0  0  0  0  0  0  0  0  0  0  0
   71.9451   47.2604    6.3460 C   0  0  0  0  0  0  0  0  0  0  0  0
   71.4140   48.1445    7.3073 C   0  0  0  0  0  0  0  0  0  0  0  0
   67.5833   49.6974   10.0658 C   0  0  2  0  0  0  0  0  0  0  0  0
   69.4401   48.9353    8.5473 C   0  0  0  0  0  0  0  0  0  0  0  0
   67.9363   48.8010    8.8540 C   0  0  2  0  0  0  0  0  0  0  0  0
   65.4249   48.9800    5.7065 H   0  0  0  0  0  0  0  0  0  0  0  0
   64.9541   47.3658    6.1224 H   0  0  0  0  0  0  0  0  0  0  0  0
   64.8828   51.0688   11.6076 H   0  0  0  0  0  0  0  0  0  0  0  0
   66.1775   50.4234   12.3652 H   0  0  0  0  0  0  0  0  0  0  0  0
   68.3573   51.5615   12.0720 H   0  0  0  0  0  0  0  0  0  0  0  0
   68.4007   52.8603   11.0831 H   0  0  0  0  0  0  0  0  0  0  0  0
   68.3439   46.7256    8.9256 H   0  0  0  0  0  0  0  0  0  0  0  0
   67.1314   47.1644    9.9274 H   0  0  0  0  0  0  0  0  0  0  0  0
   73.3980   44.8652    3.8129 H   0  0  0  0  0  0  0  0  0  0  0  0
   73.6825   46.7396    7.3951 H   0  0  0  0  0  0  0  0  0  0  0  0
   65.6292   50.2650    9.5221 H   0  0  0  0  0  0  0  0  0  0  0  0
   65.6567   49.0032   10.5585 H   0  0  0  0  0  0  0  0  0  0  0  0
   72.2243   50.6488    9.3870 H   0  0  0  0  0  0  0  0  0  0  0  0
   73.2109   49.1567    7.7543 H   0  0  0  0  0  0  0  0  0  0  0  0
   70.3628   47.4975    4.9644 H   0  0  0  0  0  0  0  0  0  0  0  0
   69.4554   47.3941    7.1240 H   0  0  0  0  0  0  0  0  0  0  0  0
   68.1765   51.5144    9.1778 H   0  0  0  0  0  0  0  0  0  0  0  0
   67.9332   49.2076   10.8644 H   0  0  0  0  0  0  0  0  0  0  0  0
  1 19  1  0  0  0  0
  2  8  1  0  0  0  0
  2  9  1  0  0  0  0
  3 10  1  0  0  0  0
  3 18  1  0  0  0  0
  4 20  1  0  0  0  0
  4 21  1  0  0  0  0
  5 18  1  0  0  0  0
  6 11  2  0  0  0  0
  6 12  1  0  0  0  0
  7 18  2  0  0  0  0
  7 26  1  0  0  0  0
  8 13  1  0  0  0  0
  9 20  1  0  0  0  0
 10 26  1  0  0  0  0
 11 19  1  0  0  0  0
 12 22  2  0  0  0  0
 13 24  1  0  0  0  0
 14 15  2  0  0  0  0
 14 21  1  0  0  0  0
 15 23  1  0  0  0  0
 16 19  2  0  0  0  0
 16 22  1  0  0  0  0
 17 23  2  0  0  0  0
 17 25  1  0  0  0  0
 20 24  1  0  0  0  0
 21 25  2  0  0  0  0
 22 23  1  0  0  0  0
 24 26  1  0  0  0  0
 25 26  1  0  0  0  0
  5 27  1  0  0  0  0
  5 28  1  0  0  0  0
  8 29  1  0  0  0  0
  8 30  1  0  0  0  0
  9 31  1  0  0  0  0
  9 32  1  0  0  0  0
 10 33  1  0  0  0  0
 10 34  1  0  0  0  0
 11 35  1  0  0  0  0
 12 36  1  0  0  0  0
 13 37  1  0  0  0  0
 13 38  1  0  0  0  0
 14 39  1  0  0  0  0
 15 40  1  0  0  0  0
 16 41  1  0  0  0  0
 17 42  1  0  0  0  0
 20 43  1  0  0  0  0
 24 44  1  0  0  0  0
M  END
> <pdb_id>
4PZW

> <uniprot_id>
P56817

> <usmiles>
Clc1cncc(c2cc3c(O[C@H]4[C@H]([C@@]35N=C(OC5)N)CCOC4)cc2)c1

$$$$
2X5_A_502
          07202405583D 1   1.00000     0.00000     0
            
 44 48  0  0  0  0            999 V2000
   71.0032   46.0521    2.7305 Cl  0  0  0  0  0  0  0  0  0  0  0  0
   66.6093   51.1974   12.2303 O   0  0  0  0  0  0  0  0  0  0  0  0
   66.4257   47.2935    8.1070 O   0  0  0  0  0  0  0  0  0  0  0  0
   69.7521   50.4594   10.5686 O   0  0  0  0  0  0  0  0  0  0  0  0
   65.5522   48.2224    6.1686 N   0  0  0  0  0  0  0  0  0  0  0  0
   73.7071   45.8773    5.6348 N   0  0  0  0  0  0  0  0  0  0  0  0
   67.2552   49.2830    7.4574 N   0  0  0  0  0  0  0  0  0  0  0  0
   65.7106   51.3108   11.1278 C   0  0  0  0  0  0  0  0  0  0  0  0
   67.9847   51.3718   11.9059 C   0  0  0  0  0  0  0  0  0  0  0  0
   67.4070   47.6150    9.0941 C   0  0  0  0  0  0  0  0  0  0  0  0
   73.0402   45.6933    4.4759 C   0  0  0  0  0  0  0  0  0  0  0  0
   73.1849   46.6990    6.5714 C   0  0  0  0  0  0  0  0  0  0  0  0
   65.9760   50.1454   10.1446 C   0  0  0  0  0  0  0  0  0  0  0  0
   71.6896   49.6579    9.4002 C   0  0  0  0  0  0  0  0  0  0  0  0
   72.2878   48.9082    8.3557 C   0  0  0  0  0  0  0  0  0  0  0  0
   71.2554   47.2170    5.1793 C   0  0  0  0  0  0  0  0  0  0  0  0
   70.0420   48.2772    7.5753 C   0  0  0  0  0  0  0  0  0  0  0  0
   66.4438   48.2667    7.1651 C   0  0  0  0  0  0  0  0  0  0  0  0
   71.8083   46.3385    4.2131 C   0  0  0  0  0  0  0  0  0  0  0  0
   68.4116   50.2106   10.9742 C   0  0  1  0  0  0  0  0  0  0  0  0
   70.2781   49.7121    9.5401 C   0  0  0  0  0  0  0  0  0  0  0  0
   71.9733   47.4183    6.3866 C   0  0  0  0  0  0  0  0  0  0  0  0
   71.4543   48.2262    7.4280 C   0  0  0  0  0  0  0  0  0  0  0  0
   67.4712   50.1327    9.7352 C   0  0  1  0  0  0  0  0  0  0  0  0
   69.4394   49.0259    8.6145 C   0  0  0  0  0  0  0  0  0  0  0  0
   67.9078   49.0393    8.7414 C   0  0  2  0  0  0  0  0  0  0  0  0
   65.5525   48.9334    5.4654 H   0  0  0  0  0  0  0  0  0  0  0  0
   64.8854   47.4784    6.1269 H   0  0  0  0  0  0  0  0  0  0  0  0
   65.8585   52.1833   10.6622 H   0  0  0  0  0  0  0  0  0  0  0  0
   64.7675   51.2643   11.4571 H   0  0  0  0  0  0  0  0  0  0  0  0
   68.5345   51.3556   12.7410 H   0  0  0  0  0  0  0  0  0  0  0  0
   68.1142   52.2463   11.4385 H   0  0  0  0  0  0  0  0  0  0  0  0
   68.1630   46.9613    9.0596 H   0  0  0  0  0  0  0  0  0  0  0  0
   66.9992   47.6051   10.0071 H   0  0  0  0  0  0  0  0  0  0  0  0
   73.4272   45.0840    3.7838 H   0  0  0  0  0  0  0  0  0  0  0  0
   73.6746   46.8063    7.4367 H   0  0  0  0  0  0  0  0  0  0  0  0
   65.4096   50.2637    9.3290 H   0  0  0  0  0  0  0  0  0  0  0  0
   65.7458   49.2788   10.5874 H   0  0  0  0  0  0  0  0  0  0  0  0
   72.2693   50.1546   10.0462 H   0  0  0  0  0  0  0  0  0  0  0  0
   73.2832   48.8599    8.2729 H   0  0  0  0  0  0  0  0  0  0  0  0
   70.3851   47.6810    5.0146 H   0  0  0  0  0  0  0  0  0  0  0  0
   69.4631   47.7749    6.9330 H   0  0  0  0  0  0  0  0  0  0  0  0
   68.3709   49.3477   11.4777 H   0  0  0  0  0  0  0  0  0  0  0  0
   67.6129   50.9949    9.2490 H   0  0  0  0  0  0  0  0  0  0  0  0
  1 19  1  0  0  0  0
  2  8  1  0  0  0  0
  2  9  1  0  0  0  0
  3 10  1  0  0  0  0
  3 18  1  0  0  0  0
  4 20  1  0  0  0  0
  4 21  1  0  0  0  0
  5 18  1  0  0  0  0
  6 11  2  0  0  0  0
  6 12  1  0  0  0  0
  7 18  2  0  0  0  0
  7 26  1  0  0  0  0
  8 13  1  0  0  0  0
  9 20  1  0  0  0  0
 10 26  1  0  0  0  0
 11 19  1  0  0  0  0
 12 22  2  0  0  0  0
 13 24  1  0  0  0  0
 14 15  1  0  0  0  0
 14 21  2  0  0  0  0
 15 23  2  0  0  0  0
 16 19  2  0  0  0  0
 16 22  1  0  0  0  0
 17 23  1  0  0  0  0
 17 25  2  0  0  0  0
 20 24  1  0  0  0  0
 21 25  1  0  0  0  0
 22 23  1  0  0  0  0
 24 26  1  0  0  0  0
 25 26  1  0  0  0  0
  5 27  1  0  0  0  0
  5 28  1  0  0  0  0
  8 29  1  0  0  0  0
  8 30  1  0  0  0  0
  9 31  1  0  0  0  0
  9 32  1  0  0  0  0
 10 33  1  0  0  0  0
 10 34  1  0  0  0  0
 11 35  1  0  0  0  0
 12 36  1  0  0  0  0
 13 37  1  0  0  0  0
 13 38  1  0  0  0  0
 14 39  1  0  0  0  0
 15 40  1  0  0  0  0
 16 41  1  0  0  0  0
 17 42  1  0  0  0  0
 20 43  1  0  0  0  0
 24 44  1  0  0  0  0
M  END
> <pdb_id>
4PZX

> <uniprot_id>
P56817

> <usmiles>
Clc1cncc(c2cc3c(O[C@@H]4[C@@H]([C@@]35N=C(OC5)N)CCOC4)cc2)c1

$$$$
2X6_A_701
          07192419173D 1   1.00000     0.00000     0
            
 52 56  0  0  0  0            999 V2000
    3.7381   -1.1772   15.9522 O   0  0  0  0  0  0  0  0  0  0  0  0
    0.7030    5.9676   13.6706 N   0  0  0  0  0  0  0  0  0  0  0  0
    5.7726   -0.1702   15.9206 N   0  0  0  0  0  0  0  0  0  0  0  0
    6.1514    1.9138   14.7864 N   0  0  0  0  0  0  0  0  0  0  0  0
    0.1369   -2.4095   15.6815 N   0  0  0  0  0  0  0  0  0  0  0  0
    2.0748    2.0119   13.5922 N   0  0  0  0  0  0  0  0  0  0  0  0
    2.5126    4.0512   12.5019 N   0  0  0  0  0  0  0  0  0  0  0  0
    1.6926   -0.0479   14.7109 N   0  0  0  0  0  0  0  0  0  0  0  0
    6.5666    0.8987   15.5050 C   0  0  0  0  0  0  0  0  0  0  0  0
   -0.9252   -3.2916   15.9107 C   0  0  0  0  0  0  0  0  0  0  0  0
   -1.3114    5.7435   11.5019 C   0  0  0  0  0  0  0  0  0  0  0  0
   -0.3867    5.3162   10.3801 C   0  0  0  0  0  0  0  0  0  0  0  0
   -1.8147    0.4554   13.4343 C   0  0  0  0  0  0  0  0  0  0  0  0
   -2.0646   -2.8045   15.3036 C   0  0  0  0  0  0  0  0  0  0  0  0
   -1.2222    4.7911   12.6887 C   0  0  0  0  0  0  0  0  0  0  0  0
    1.0443    5.1423   10.8752 C   0  0  0  0  0  0  0  0  0  0  0  0
   -0.4437    0.6957   13.6742 C   0  0  0  0  0  0  0  0  0  0  0  0
   -2.4576   -0.6563   13.9163 C   0  0  0  0  0  0  0  0  0  0  0  0
    4.3433    2.9932   13.6407 C   0  0  0  0  0  0  0  0  0  0  0  0
    4.4048   -0.2086   15.5619 C   0  0  0  0  0  0  0  0  0  0  0  0
    2.9756    2.9993   13.2557 C   0  0  0  0  0  0  0  0  0  0  0  0
    0.2022    4.6638   13.2115 C   0  0  1  0  0  0  0  0  0  0  0  0
    2.5457    0.9712   14.3421 C   0  0  0  0  0  0  0  0  0  0  0  0
    1.1188    4.1650   12.0457 C   0  0  2  0  0  0  0  0  0  0  0  0
    4.7905    1.9280   14.3984 C   0  0  0  0  0  0  0  0  0  0  0  0
    0.3187   -0.1883   14.4116 C   0  0  0  0  0  0  0  0  0  0  0  0
   -1.7136   -1.5719   14.6684 C   0  0  0  0  0  0  0  0  0  0  0  0
   -0.3374   -1.3426   14.9150 C   0  0  0  0  0  0  0  0  0  0  0  0
    3.9109    0.8864   14.7730 C   0  0  0  0  0  0  0  0  0  0  0  0
    1.6381    5.8649   14.0099 H   0  0  0  0  0  0  0  0  0  0  0  0
    0.6942    6.6152   12.9086 H   0  0  0  0  0  0  0  0  0  0  0  0
    6.7735    2.6509   14.5222 H   0  0  0  0  0  0  0  0  0  0  0  0
    1.0745   -2.5235   16.0100 H   0  0  0  0  0  0  0  0  0  0  0  0
    3.1552    4.7752   12.2512 H   0  0  0  0  0  0  0  0  0  0  0  0
    2.0974   -0.7797   15.2592 H   0  0  0  0  0  0  0  0  0  0  0  0
    7.5290    0.8902   15.7767 H   0  0  0  0  0  0  0  0  0  0  0  0
   -0.8673   -4.1424   16.4331 H   0  0  0  0  0  0  0  0  0  0  0  0
   -2.2519    5.7534   11.1624 H   0  0  0  0  0  0  0  0  0  0  0  0
   -1.0557    6.6625   11.8022 H   0  0  0  0  0  0  0  0  0  0  0  0
   -0.4006    6.0134    9.6634 H   0  0  0  0  0  0  0  0  0  0  0  0
   -0.7093    4.4468   10.0057 H   0  0  0  0  0  0  0  0  0  0  0  0
   -2.3342    1.1180   12.8949 H   0  0  0  0  0  0  0  0  0  0  0  0
   -2.9679   -3.2335   15.3071 H   0  0  0  0  0  0  0  0  0  0  0  0
   -1.5433    3.8882   12.4030 H   0  0  0  0  0  0  0  0  0  0  0  0
   -1.8064    5.1354   13.4237 H   0  0  0  0  0  0  0  0  0  0  0  0
    1.3955    6.0306   11.1712 H   0  0  0  0  0  0  0  0  0  0  0  0
    1.6072    4.7944   10.1254 H   0  0  0  0  0  0  0  0  0  0  0  0
   -0.0175    1.5208   13.3033 H   0  0  0  0  0  0  0  0  0  0  0  0
   -3.4293   -0.8079   13.7355 H   0  0  0  0  0  0  0  0  0  0  0  0
    4.9600    3.7335   13.3729 H   0  0  0  0  0  0  0  0  0  0  0  0
    0.2278    4.0076   13.9657 H   0  0  0  0  0  0  0  0  0  0  0  0
    0.8005    3.2670   11.7417 H   0  0  0  0  0  0  0  0  0  0  0  0
  1 20  2  0  0  0  0
  2 22  1  0  0  0  0
  3  9  2  0  0  0  0
  3 20  1  0  0  0  0
  4  9  1  0  0  0  0
  4 25  1  0  0  0  0
  5 10  1  0  0  0  0
  5 28  1  0  0  0  0
  6 21  2  0  0  0  0
  6 23  1  0  0  0  0
  7 21  1  0  0  0  0
  7 24  1  0  0  0  0
  8 23  1  0  0  0  0
  8 26  1  0  0  0  0
 10 14  2  0  0  0  0
 11 12  1  0  0  0  0
 11 15  1  0  0  0  0
 12 16  1  0  0  0  0
 13 17  1  0  0  0  0
 13 18  2  0  0  0  0
 14 27  1  0  0  0  0
 15 22  1  0  0  0  0
 16 24  1  0  0  0  0
 17 26  2  0  0  0  0
 18 27  1  0  0  0  0
 19 21  1  0  0  0  0
 19 25  2  0  0  0  0
 20 29  1  0  0  0  0
 22 24  1  0  0  0  0
 23 29  2  0  0  0  0
 25 29  1  0  0  0  0
 26 28  1  0  0  0  0
 27 28  2  0  0  0  0
  2 30  1  0  0  0  0
  2 31  1  0  0  0  0
  4 32  1  0  0  0  0
  5 33  1  0  0  0  0
  7 34  1  0  0  0  0
  8 35  1  0  0  0  0
  9 36  1  0  0  0  0
 10 37  1  0  0  0  0
 11 38  1  0  0  0  0
 11 39  1  0  0  0  0
 12 40  1  0  0  0  0
 12 41  1  0  0  0  0
 13 42  1  0  0  0  0
 14 43  1  0  0  0  0
 15 44  1  0  0  0  0
 15 45  1  0  0  0  0
 16 46  1  0  0  0  0
 16 47  1  0  0  0  0
 17 48  1  0  0  0  0
 18 49  1  0  0  0  0
 19 50  1  0  0  0  0
 22 51  1  0  0  0  0
 24 52  1  0  0  0  0
M  END
> <pdb_id>
4PX6

> <uniprot_id>
P43405

> <usmiles>
O=C1N=CNc2c1c(nc(N[C@H]3[C@@H](N)CCCC3)c2)Nc4c5NC=Cc5ccc4

$$$$
2XQ_A_1494
          07192422553D 1   1.00000     0.00000     0
            
 56 59  0  0  0  0            999 V2000
   -3.6810   -6.7490  -32.2680 F   0  0  0  0  0  0  0  0  0  0  0  0
   -1.1790   -7.4860  -32.5600 F   0  0  0  0  0  0  0  0  0  0  0  0
    0.8080   -6.6690  -30.8570 F   0  0  0  0  0  0  0  0  0  0  0  0
    3.5120   -3.0390  -24.0810 O   0  0  0  0  0  0  0  0  0  0  0  0
    0.1710   -4.9710  -28.7300 O   0  0  0  0  0  0  0  0  0  0  0  0
    2.6490   -3.4780  -28.4620 O   0  0  0  0  0  0  0  0  0  0  0  0
    1.6640   -4.0290  -20.3460 N   0  0  0  0  0  0  0  0  0  0  0  0
   -2.6750   -4.5630  -18.2430 N   0  0  0  0  0  0  0  0  0  0  0  0
    0.6920   -3.2220  -25.3240 C   0  0  0  0  0  0  0  0  0  0  0  0
    4.4300   -3.1910  -22.9530 C   0  0  0  0  0  0  0  0  0  0  0  0
    0.2500   -3.5260  -28.3630 C   0  0  0  0  0  0  0  0  0  0  0  0
    2.4490   -4.1660  -21.5790 C   0  0  0  0  0  0  0  0  0  0  0  0
   -2.0750   -4.3530  -17.0810 C   0  0  0  0  0  0  0  0  0  0  0  0
    0.3280   -4.5940  -20.5260 C   0  0  0  0  0  0  0  0  0  0  0  0
   -1.9250   -4.6650  -19.3380 C   0  0  0  0  0  0  0  0  0  0  0  0
    3.6530   -3.2150  -21.5800 C   0  0  0  0  0  0  0  0  0  0  0  0
   -0.7130   -4.2000  -16.9400 C   0  0  0  0  0  0  0  0  0  0  0  0
    5.9900   -3.3490  -26.7140 C   0  0  0  0  0  0  0  0  0  0  0  0
   -3.1390   -5.4010  -30.2640 C   0  0  0  0  0  0  0  0  0  0  0  0
    5.4420   -3.2420  -25.4350 C   0  0  0  0  0  0  0  0  0  0  0  0
    5.1160   -3.4290  -27.8230 C   0  0  0  0  0  0  0  0  0  0  0  0
   -2.1410   -4.9630  -29.3680 C   0  0  0  0  0  0  0  0  0  0  0  0
    0.1160   -4.2810  -18.0590 C   0  0  0  0  0  0  0  0  0  0  0  0
   -2.7860   -6.2570  -31.3520 C   0  0  0  0  0  0  0  0  0  0  0  0
   -1.4660   -6.6630  -31.5210 C   0  0  0  0  0  0  0  0  0  0  0  0
   -0.4780   -6.2480  -30.6320 C   0  0  0  0  0  0  0  0  0  0  0  0
   -0.8110   -5.3760  -29.5730 C   0  0  0  0  0  0  0  0  0  0  0  0
    1.4920   -3.4030  -27.7800 C   0  0  0  0  0  0  0  0  0  0  0  0
    4.0520   -3.2110  -25.2830 C   0  0  0  0  0  0  0  0  0  0  0  0
    3.7210   -3.3870  -27.6040 C   0  0  0  0  0  0  0  0  0  0  0  0
    1.7730   -3.3170  -26.4560 C   0  0  0  0  0  0  0  0  0  0  0  0
   -0.5230   -4.5040  -19.2610 C   0  0  0  0  0  0  0  0  0  0  0  0
    3.1800   -3.3060  -26.3410 C   0  0  0  0  0  0  0  0  0  0  0  0
    1.5831   -3.0599  -20.1131 H   0  0  0  0  0  0  0  0  0  0  0  0
    1.1450   -3.1685  -24.4341 H   0  0  0  0  0  0  0  0  0  0  0  0
    0.1340   -2.4040  -25.4637 H   0  0  0  0  0  0  0  0  0  0  0  0
    0.1076   -4.0329  -25.3523 H   0  0  0  0  0  0  0  0  0  0  0  0
    5.0723   -2.4246  -22.9503 H   0  0  0  0  0  0  0  0  0  0  0  0
    4.9343   -4.0482  -23.0568 H   0  0  0  0  0  0  0  0  0  0  0  0
   -0.4729   -3.2826  -27.7163 H   0  0  0  0  0  0  0  0  0  0  0  0
    0.1790   -2.9476  -29.1756 H   0  0  0  0  0  0  0  0  0  0  0  0
    1.8651   -3.9535  -22.3625 H   0  0  0  0  0  0  0  0  0  0  0  0
    2.7773   -5.1076  -21.6535 H   0  0  0  0  0  0  0  0  0  0  0  0
   -2.6428   -4.3026  -16.2594 H   0  0  0  0  0  0  0  0  0  0  0  0
    0.4191   -5.5561  -20.7830 H   0  0  0  0  0  0  0  0  0  0  0  0
   -0.1344   -4.0955  -21.2592 H   0  0  0  0  0  0  0  0  0  0  0  0
   -2.3559   -4.8566  -20.2198 H   0  0  0  0  0  0  0  0  0  0  0  0
    3.3269   -2.2902  -21.3839 H   0  0  0  0  0  0  0  0  0  0  0  0
    4.2863   -3.5043  -20.8622 H   0  0  0  0  0  0  0  0  0  0  0  0
   -0.3192   -4.0311  -16.0365 H   0  0  0  0  0  0  0  0  0  0  0  0
    6.9813   -3.3687  -26.8438 H   0  0  0  0  0  0  0  0  0  0  0  0
   -4.0886   -5.1138  -30.1381 H   0  0  0  0  0  0  0  0  0  0  0  0
    6.0381   -3.1879  -24.6339 H   0  0  0  0  0  0  0  0  0  0  0  0
    5.4808   -3.5142  -28.7502 H   0  0  0  0  0  0  0  0  0  0  0  0
   -2.3749   -4.3682  -28.5989 H   0  0  0  0  0  0  0  0  0  0  0  0
    1.1091   -4.1837  -17.9940 H   0  0  0  0  0  0  0  0  0  0  0  0
  1 24  1  0  0  0  0
  2 25  1  0  0  0  0
  3 26  1  0  0  0  0
  4 10  1  0  0  0  0
  4 29  1  0  0  0  0
  5 11  1  0  0  0  0
  5 27  1  0  0  0  0
  6 28  1  0  0  0  0
  6 30  1  0  0  0  0
  7 12  1  0  0  0  0
  7 14  1  0  0  0  0
  8 13  2  0  0  0  0
  8 15  1  0  0  0  0
  9 31  1  0  0  0  0
 10 16  1  0  0  0  0
 11 28  1  0  0  0  0
 12 16  1  0  0  0  0
 13 17  1  0  0  0  0
 14 32  1  0  0  0  0
 15 32  2  0  0  0  0
 17 23  2  0  0  0  0
 18 20  2  0  0  0  0
 18 21  1  0  0  0  0
 19 22  2  0  0  0  0
 19 24  1  0  0  0  0
 20 29  1  0  0  0  0
 21 30  2  0  0  0  0
 22 27  1  0  0  0  0
 23 32  1  0  0  0  0
 24 25  2  0  0  0  0
 25 26  1  0  0  0  0
 26 27  2  0  0  0  0
 28 31  2  0  0  0  0
 29 33  2  0  0  0  0
 30 33  1  0  0  0  0
 31 33  1  0  0  0  0
  7 34  1  0  0  0  0
  9 35  1  0  0  0  0
  9 36  1  0  0  0  0
  9 37  1  0  0  0  0
 10 38  1  0  0  0  0
 10 39  1  0  0  0  0
 11 40  1  0  0  0  0
 11 41  1  0  0  0  0
 12 42  1  0  0  0  0
 12 43  1  0  0  0  0
 13 44  1  0  0  0  0
 14 45  1  0  0  0  0
 14 46  1  0  0  0  0
 15 47  1  0  0  0  0
 16 48  1  0  0  0  0
 16 49  1  0  0  0  0
 17 50  1  0  0  0  0
 18 51  1  0  0  0  0
 19 52  1  0  0  0  0
 20 53  1  0  0  0  0
 21 54  1  0  0  0  0
 22 55  1  0  0  0  0
 23 56  1  0  0  0  0
M  END
> <pdb_id>
4CAV

> <uniprot_id>
Q9UVX3

> <usmiles>
Fc1c(F)c(OCC=2Oc3c(c(OCCCNCc4cnccc4)ccc3)C2C)ccc1F

$$$$
2XZ_B_301
          07202407393D 1   1.00000     0.00000     0
            
 55 57  0  0  0  0            999 V2000
  -28.9781  -10.7307  -22.8512 S   0  0  0  0  0  0  0  0  0  0  0  0
  -32.4337  -13.5166  -20.7643 S   0  0  0  0  0  0  0  0  0  0  0  0
  -36.3247   -7.8234  -26.7575 O   0  0  0  0  0  0  0  0  0  0  0  0
  -38.3399  -10.9051  -22.2878 O   0  0  0  0  0  0  0  0  0  0  0  0
  -36.6449   -9.7505  -23.8278 O   0  0  0  0  0  0  0  0  0  0  0  0
  -25.2067  -14.0244  -22.1289 N   0  0  0  0  0  0  0  0  0  0  0  0
  -24.2132   -9.4144  -21.7071 N   0  0  0  0  0  0  0  0  0  0  0  0
  -26.8370  -12.4229  -22.4291 N   0  0  0  0  0  0  0  0  0  0  0  0
  -26.3618  -10.1558  -22.2130 N   0  0  0  0  0  0  0  0  0  0  0  0
  -32.0275  -12.1031  -22.7201 N   0  0  0  0  0  0  0  0  0  0  0  0
  -39.3681  -11.8742  -22.0767 C   0  0  0  0  0  0  0  0  0  0  0  0
  -29.9877  -16.3514  -22.0200 C   0  0  0  0  0  0  0  0  0  0  0  0
  -29.6290  -12.4024  -23.2435 C   0  0  0  0  0  0  0  0  0  0  0  0
  -36.9427   -8.6664  -25.8347 C   0  0  0  0  0  0  0  0  0  0  0  0
  -35.9328   -8.8956  -24.7257 C   0  0  0  0  0  0  0  0  0  0  0  0
  -30.1391  -15.6699  -20.6377 C   0  0  0  0  0  0  0  0  0  0  0  0
  -29.6926  -14.2360  -20.8057 C   0  0  0  0  0  0  0  0  0  0  0  0
  -36.5911  -12.2508  -21.2722 C   0  0  0  0  0  0  0  0  0  0  0  0
  -35.2529  -12.5959  -21.2209 C   0  0  0  0  0  0  0  0  0  0  0  0
  -24.6465  -11.7374  -21.8920 C   0  0  0  0  0  0  0  0  0  0  0  0
  -34.7140  -11.0193  -22.9309 C   0  0  0  0  0  0  0  0  0  0  0  0
  -27.2417  -11.1400  -22.4691 C   0  0  0  0  0  0  0  0  0  0  0  0
  -33.0143  -12.4197  -21.8959 C   0  0  0  0  0  0  0  0  0  0  0  0
  -30.8714  -13.4762  -21.3696 C   0  0  0  0  0  0  0  0  0  0  0  0
  -25.5734  -12.7415  -22.1429 C   0  0  0  0  0  0  0  0  0  0  0  0
  -25.0681  -10.4155  -21.9381 C   0  0  0  0  0  0  0  0  0  0  0  0
  -37.0168  -11.3010  -22.1842 C   0  0  0  0  0  0  0  0  0  0  0  0
  -36.0862  -10.6791  -23.0021 C   0  0  0  0  0  0  0  0  0  0  0  0
  -30.8516  -12.6724  -22.4253 C   0  0  0  0  0  0  0  0  0  0  0  0
  -34.2894  -11.9941  -22.0247 C   0  0  0  0  0  0  0  0  0  0  0  0
  -36.9525   -7.6398  -27.5139 H   0  0  0  0  0  0  0  0  0  0  0  0
  -24.2617  -14.2720  -21.9154 H   0  0  0  0  0  0  0  0  0  0  0  0
  -25.8770  -14.7382  -22.3319 H   0  0  0  0  0  0  0  0  0  0  0  0
  -23.2544   -9.6126  -21.5037 H   0  0  0  0  0  0  0  0  0  0  0  0
  -24.5324   -8.4672  -21.7377 H   0  0  0  0  0  0  0  0  0  0  0  0
  -40.2625  -11.4402  -22.1848 H   0  0  0  0  0  0  0  0  0  0  0  0
  -39.2729  -12.6122  -22.7448 H   0  0  0  0  0  0  0  0  0  0  0  0
  -39.2887  -12.2487  -21.1529 H   0  0  0  0  0  0  0  0  0  0  0  0
  -30.2740  -17.3072  -21.9535 H   0  0  0  0  0  0  0  0  0  0  0  0
  -30.5598  -15.8778  -22.6896 H   0  0  0  0  0  0  0  0  0  0  0  0
  -29.0314  -16.3092  -22.3094 H   0  0  0  0  0  0  0  0  0  0  0  0
  -28.9315  -13.0880  -23.0351 H   0  0  0  0  0  0  0  0  0  0  0  0
  -29.8622  -12.4487  -24.2149 H   0  0  0  0  0  0  0  0  0  0  0  0
  -37.1853   -9.5348  -26.2672 H   0  0  0  0  0  0  0  0  0  0  0  0
  -37.7670   -8.2345  -25.4688 H   0  0  0  0  0  0  0  0  0  0  0  0
  -35.1094   -9.3435  -25.0741 H   0  0  0  0  0  0  0  0  0  0  0  0
  -35.6820   -8.0350  -24.2824 H   0  0  0  0  0  0  0  0  0  0  0  0
  -29.5654  -16.1320  -19.9615 H   0  0  0  0  0  0  0  0  0  0  0  0
  -31.0938  -15.7006  -20.3417 H   0  0  0  0  0  0  0  0  0  0  0  0
  -28.9182  -14.1880  -21.4365 H   0  0  0  0  0  0  0  0  0  0  0  0
  -29.4265  -13.8522  -19.9214 H   0  0  0  0  0  0  0  0  0  0  0  0
  -37.2468  -12.6846  -20.6543 H   0  0  0  0  0  0  0  0  0  0  0  0
  -34.9657  -13.3075  -20.5797 H   0  0  0  0  0  0  0  0  0  0  0  0
  -23.6949  -11.9623  -21.6824 H   0  0  0  0  0  0  0  0  0  0  0  0
  -34.0519  -10.5641  -23.5262 H   0  0  0  0  0  0  0  0  0  0  0  0
  1 13  1  0  0  0  0
  1 22  1  0  0  0  0
  2 23  1  0  0  0  0
  2 24  1  0  0  0  0
  3 14  1  0  0  0  0
  4 11  1  0  0  0  0
  4 27  1  0  0  0  0
  5 15  1  0  0  0  0
  5 28  1  0  0  0  0
  6 25  1  0  0  0  0
  7 26  1  0  0  0  0
  8 22  1  0  0  0  0
  8 25  2  0  0  0  0
  9 22  2  0  0  0  0
  9 26  1  0  0  0  0
 10 23  2  0  0  0  0
 10 29  1  0  0  0  0
 12 16  1  0  0  0  0
 13 29  1  0  0  0  0
 14 15  1  0  0  0  0
 16 17  1  0  0  0  0
 17 24  1  0  0  0  0
 18 19  1  0  0  0  0
 18 27  2  0  0  0  0
 19 30  2  0  0  0  0
 20 25  1  0  0  0  0
 20 26  2  0  0  0  0
 21 28  2  0  0  0  0
 21 30  1  0  0  0  0
 23 30  1  0  0  0  0
 24 29  2  0  0  0  0
 27 28  1  0  0  0  0
  3 31  1  0  0  0  0
  6 32  1  0  0  0  0
  6 33  1  0  0  0  0
  7 34  1  0  0  0  0
  7 35  1  0  0  0  0
 11 36  1  0  0  0  0
 11 37  1  0  0  0  0
 11 38  1  0  0  0  0
 12 39  1  0  0  0  0
 12 40  1  0  0  0  0
 12 41  1  0  0  0  0
 13 42  1  0  0  0  0
 13 43  1  0  0  0  0
 14 44  1  0  0  0  0
 14 45  1  0  0  0  0
 15 46  1  0  0  0  0
 15 47  1  0  0  0  0
 16 48  1  0  0  0  0
 16 49  1  0  0  0  0
 17 50  1  0  0  0  0
 17 51  1  0  0  0  0
 18 52  1  0  0  0  0
 19 53  1  0  0  0  0
 20 54  1  0  0  0  0
 21 55  1  0  0  0  0
M  END
> <pdb_id>
4Q1A

> <uniprot_id>
P27707

> <usmiles>
S(c1nc(N)cc(n1)N)CC=2N=C(SC2CCC)c3cc(OCCO)c(OC)cc3

$$$$
2YM_A_406
          07202407253D 1   1.00000     0.00000     0
            
 45 48  0  0  0  0            999 V2000
  103.5125   16.8787   24.0844 O   0  0  0  0  0  0  0  0  0  0  0  0
   99.1938   15.4635   24.8438 N   0  0  0  0  0  0  0  0  0  0  0  0
  103.1338   17.3176   16.5110 N   0  0  0  0  0  0  0  0  0  0  0  0
  101.3455   16.2034   24.4285 N   0  0  0  0  0  0  0  0  0  0  0  0
   99.9489   15.6165   22.6654 N   0  0  0  0  0  0  0  0  0  0  0  0
  101.5571   16.4917   18.0700 N   0  0  0  0  0  0  0  0  0  0  0  0
  103.5883   17.0989   18.7852 N   0  0  0  0  0  0  0  0  0  0  0  0
  102.0877   17.4042   12.8549 N   0  0  0  0  0  0  0  0  0  0  0  0
  102.2580   17.2187   15.3537 C   0  0  0  0  0  0  0  0  0  0  0  0
  102.9980   17.3976   14.0461 C   0  0  0  0  0  0  0  0  0  0  0  0
  102.8105   16.9767   11.6195 C   0  0  0  0  0  0  0  0  0  0  0  0
  101.4664   18.7480   12.6440 C   0  0  0  0  0  0  0  0  0  0  0  0
  101.8667   16.9039   10.4434 C   0  0  0  0  0  0  0  0  0  0  0  0
  100.5061   18.7246   11.4750 C   0  0  0  0  0  0  0  0  0  0  0  0
  101.1820   18.2346   10.2065 C   0  0  0  0  0  0  0  0  0  0  0  0
  100.6538   15.9103   20.3654 C   0  0  0  0  0  0  0  0  0  0  0  0
  103.1727   16.7265   21.2597 C   0  0  0  0  0  0  0  0  0  0  0  0
  100.1518   15.7654   23.9883 C   0  0  0  0  0  0  0  0  0  0  0  0
  102.7454   16.9610   17.7354 C   0  0  0  0  0  0  0  0  0  0  0  0
  102.4381   16.5004   23.6255 C   0  0  0  0  0  0  0  0  0  0  0  0
  101.6232   16.3289   19.4532 C   0  0  0  0  0  0  0  0  0  0  0  0
  102.8817   16.7198   19.9127 C   0  0  0  0  0  0  0  0  0  0  0  0
  100.9402   15.9226   21.7373 C   0  0  0  0  0  0  0  0  0  0  0  0
  102.2108   16.3422   22.1871 C   0  0  0  0  0  0  0  0  0  0  0  0
   98.3091   15.1386   24.5096 H   0  0  0  0  0  0  0  0  0  0  0  0
   99.3524   15.5597   25.8265 H   0  0  0  0  0  0  0  0  0  0  0  0
  104.0623   17.6663   16.3833 H   0  0  0  0  0  0  0  0  0  0  0  0
  101.4544   16.3250   25.4151 H   0  0  0  0  0  0  0  0  0  0  0  0
  100.7837   16.2968   17.4668 H   0  0  0  0  0  0  0  0  0  0  0  0
  101.5547   17.9263   15.4230 H   0  0  0  0  0  0  0  0  0  0  0  0
  101.8252   16.3172   15.3559 H   0  0  0  0  0  0  0  0  0  0  0  0
  103.4912   18.2670   14.0753 H   0  0  0  0  0  0  0  0  0  0  0  0
  103.6510   16.6471   13.9441 H   0  0  0  0  0  0  0  0  0  0  0  0
  103.2145   16.0747   11.7718 H   0  0  0  0  0  0  0  0  0  0  0  0
  103.5344   17.6365   11.4184 H   0  0  0  0  0  0  0  0  0  0  0  0
  102.1874   19.4165   12.4615 H   0  0  0  0  0  0  0  0  0  0  0  0
  100.9690   19.0116   13.4705 H   0  0  0  0  0  0  0  0  0  0  0  0
  101.1722   16.2077   10.6252 H   0  0  0  0  0  0  0  0  0  0  0  0
  102.3840   16.6531    9.6252 H   0  0  0  0  0  0  0  0  0  0  0  0
  100.1592   19.6498   11.3214 H   0  0  0  0  0  0  0  0  0  0  0  0
   99.7442   18.1148   11.6931 H   0  0  0  0  0  0  0  0  0  0  0  0
  100.4941   18.1266    9.4889 H   0  0  0  0  0  0  0  0  0  0  0  0
  101.8631   18.9071    9.9169 H   0  0  0  0  0  0  0  0  0  0  0  0
   99.7589   15.6030   20.0418 H   0  0  0  0  0  0  0  0  0  0  0  0
  104.0799   17.0091   21.5715 H   0  0  0  0  0  0  0  0  0  0  0  0
  1 20  2  0  0  0  0
  2 18  1  0  0  0  0
  3  9  1  0  0  0  0
  3 19  1  0  0  0  0
  4 18  1  0  0  0  0
  4 20  1  0  0  0  0
  5 18  2  0  0  0  0
  5 23  1  0  0  0  0
  6 19  1  0  0  0  0
  6 21  1  0  0  0  0
  7 19  2  0  0  0  0
  7 22  1  0  0  0  0
  8 10  1  0  0  0  0
  8 11  1  0  0  0  0
  8 12  1  0  0  0  0
  9 10  1  0  0  0  0
 11 13  1  0  0  0  0
 12 14  1  0  0  0  0
 13 15  1  0  0  0  0
 14 15  1  0  0  0  0
 16 21  1  0  0  0  0
 16 23  2  0  0  0  0
 17 22  1  0  0  0  0
 17 24  2  0  0  0  0
 20 24  1  0  0  0  0
 21 22  2  0  0  0  0
 23 24  1  0  0  0  0
  2 25  1  0  0  0  0
  2 26  1  0  0  0  0
  3 27  1  0  0  0  0
  4 28  1  0  0  0  0
  6 29  1  0  0  0  0
  9 30  1  0  0  0  0
  9 31  1  0  0  0  0
 10 32  1  0  0  0  0
 10 33  1  0  0  0  0
 11 34  1  0  0  0  0
 11 35  1  0  0  0  0
 12 36  1  0  0  0  0
 12 37  1  0  0  0  0
 13 38  1  0  0  0  0
 13 39  1  0  0  0  0
 14 40  1  0  0  0  0
 14 41  1  0  0  0  0
 15 42  1  0  0  0  0
 15 43  1  0  0  0  0
 16 44  1  0  0  0  0
 17 45  1  0  0  0  0
M  END
> <pdb_id>
4Q4O

> <uniprot_id>
P28720

> <usmiles>
O=C1NC(=Nc2c1cc3N=C(Nc3c2)NCCN4CCCCC4)N

$$$$
2YO_A_405
          07202407253D 1   1.00000     0.00000     0
            
 43 46  0  0  0  0            999 V2000
  103.8521   16.9789   24.1292 O   0  0  0  0  0  0  0  0  0  0  0  0
  101.7025   16.3018   24.5404 N   0  0  0  0  0  0  0  0  0  0  0  0
  103.2341   17.4541   16.5539 N   0  0  0  0  0  0  0  0  0  0  0  0
  100.1951   15.8812   22.8230 N   0  0  0  0  0  0  0  0  0  0  0  0
  101.6561   16.7660   18.1783 N   0  0  0  0  0  0  0  0  0  0  0  0
  103.7463   17.2487   18.8190 N   0  0  0  0  0  0  0  0  0  0  0  0
  102.0608   17.4915   12.9425 N   0  0  0  0  0  0  0  0  0  0  0  0
  100.4709   15.9426   24.1379 C   0  0  0  0  0  0  0  0  0  0  0  0
  102.3060   17.4171   15.4381 C   0  0  0  0  0  0  0  0  0  0  0  0
  103.0060   17.5361   14.1028 C   0  0  0  0  0  0  0  0  0  0  0  0
  102.7781   17.1524   11.6777 C   0  0  0  0  0  0  0  0  0  0  0  0
  101.3285   18.7848   12.7841 C   0  0  0  0  0  0  0  0  0  0  0  0
  101.8076   17.0318   10.5278 C   0  0  0  0  0  0  0  0  0  0  0  0
  100.3360   18.7062   11.6454 C   0  0  0  0  0  0  0  0  0  0  0  0
  101.0088   18.3064   10.3473 C   0  0  0  0  0  0  0  0  0  0  0  0
  100.8133   16.2145   20.5051 C   0  0  0  0  0  0  0  0  0  0  0  0
  103.4066   16.8737   21.3025 C   0  0  0  0  0  0  0  0  0  0  0  0
  102.8609   17.1600   17.8018 C   0  0  0  0  0  0  0  0  0  0  0  0
  102.7599   16.6191   23.6972 C   0  0  0  0  0  0  0  0  0  0  0  0
  101.1546   16.1857   21.8614 C   0  0  0  0  0  0  0  0  0  0  0  0
  101.7677   16.5900   19.5559 C   0  0  0  0  0  0  0  0  0  0  0  0
  103.0628   16.9008   19.9683 C   0  0  0  0  0  0  0  0  0  0  0  0
  102.4603   16.5324   22.2661 C   0  0  0  0  0  0  0  0  0  0  0  0
  101.8706   16.3441   25.5253 H   0  0  0  0  0  0  0  0  0  0  0  0
  104.1858   17.7086   16.3819 H   0  0  0  0  0  0  0  0  0  0  0  0
  100.8489   16.6262   17.6049 H   0  0  0  0  0  0  0  0  0  0  0  0
   99.7651   15.7226   24.8114 H   0  0  0  0  0  0  0  0  0  0  0  0
  101.6610   18.1755   15.5314 H   0  0  0  0  0  0  0  0  0  0  0  0
  101.8075   16.5505   15.4634 H   0  0  0  0  0  0  0  0  0  0  0  0
  103.5004   18.4050   14.0782 H   0  0  0  0  0  0  0  0  0  0  0  0
  103.6552   16.7806   14.0145 H   0  0  0  0  0  0  0  0  0  0  0  0
  103.2570   16.2824   11.7953 H   0  0  0  0  0  0  0  0  0  0  0  0
  103.4410   17.8727   11.4732 H   0  0  0  0  0  0  0  0  0  0  0  0
  101.9872   19.5131   12.5948 H   0  0  0  0  0  0  0  0  0  0  0  0
  100.8391   18.9900   13.6316 H   0  0  0  0  0  0  0  0  0  0  0  0
  101.1786   16.2760   10.7101 H   0  0  0  0  0  0  0  0  0  0  0  0
  102.3182   16.8454    9.6885 H   0  0  0  0  0  0  0  0  0  0  0  0
   99.9067   19.6015   11.5264 H   0  0  0  0  0  0  0  0  0  0  0  0
   99.6363   18.0283   11.8707 H   0  0  0  0  0  0  0  0  0  0  0  0
  100.3101   18.1594    9.6472 H   0  0  0  0  0  0  0  0  0  0  0  0
  101.6229   19.0401   10.0564 H   0  0  0  0  0  0  0  0  0  0  0  0
   99.8887   15.9670   20.2155 H   0  0  0  0  0  0  0  0  0  0  0  0
  104.3401   17.1003   21.5803 H   0  0  0  0  0  0  0  0  0  0  0  0
  1 19  2  0  0  0  0
  2  8  1  0  0  0  0
  2 19  1  0  0  0  0
  3  9  1  0  0  0  0
  3 18  1  0  0  0  0
  4  8  2  0  0  0  0
  4 20  1  0  0  0  0
  5 18  1  0  0  0  0
  5 21  1  0  0  0  0
  6 18  2  0  0  0  0
  6 22  1  0  0  0  0
  7 10  1  0  0  0  0
  7 11  1  0  0  0  0
  7 12  1  0  0  0  0
  9 10  1  0  0  0  0
 11 13  1  0  0  0  0
 12 14  1  0  0  0  0
 13 15  1  0  0  0  0
 14 15  1  0  0  0  0
 16 20  2  0  0  0  0
 16 21  1  0  0  0  0
 17 22  1  0  0  0  0
 17 23  2  0  0  0  0
 19 23  1  0  0  0  0
 20 23  1  0  0  0  0
 21 22  2  0  0  0  0
  2 24  1  0  0  0  0
  3 25  1  0  0  0  0
  5 26  1  0  0  0  0
  8 27  1  0  0  0  0
  9 28  1  0  0  0  0
  9 29  1  0  0  0  0
 10 30  1  0  0  0  0
 10 31  1  0  0  0  0
 11 32  1  0  0  0  0
 11 33  1  0  0  0  0
 12 34  1  0  0  0  0
 12 35  1  0  0  0  0
 13 36  1  0  0  0  0
 13 37  1  0  0  0  0
 14 38  1  0  0  0  0
 14 39  1  0  0  0  0
 15 40  1  0  0  0  0
 15 41  1  0  0  0  0
 16 42  1  0  0  0  0
 17 43  1  0  0  0  0
M  END
> <pdb_id>
4Q4P

> <uniprot_id>
P28720

> <usmiles>
O=C1NC=Nc2c1cc3N=C(Nc3c2)NCCN4CCCCC4

$$$$
2YV_A_402
          07202407253D 1   1.00000     0.00000     0
            
 40 43  0  0  0  0            999 V2000
  103.5059   16.9275   23.9703 O   0  0  0  0  0  0  0  0  0  0  0  0
   99.2616   15.3818   24.7785 N   0  0  0  0  0  0  0  0  0  0  0  0
  103.1734   17.0886   16.3932 N   0  0  0  0  0  0  0  0  0  0  0  0
  101.4212   16.1727   24.3611 N   0  0  0  0  0  0  0  0  0  0  0  0
   99.9704   15.6619   22.5644 N   0  0  0  0  0  0  0  0  0  0  0  0
  101.5468   16.4360   17.9986 N   0  0  0  0  0  0  0  0  0  0  0  0
  103.5774   17.1329   18.7011 N   0  0  0  0  0  0  0  0  0  0  0  0
  102.2486   17.2363   15.2802 C   0  0  0  0  0  0  0  0  0  0  0  0
  100.8995   17.8355   10.3564 C   0  0  0  0  0  0  0  0  0  0  0  0
  101.8550   16.8712   10.6551 C   0  0  0  0  0  0  0  0  0  0  0  0
  100.6068   18.8342   11.2800 C   0  0  0  0  0  0  0  0  0  0  0  0
  102.9647   17.9374   14.1245 C   0  0  0  0  0  0  0  0  0  0  0  0
  102.5178   16.9085   11.8763 C   0  0  0  0  0  0  0  0  0  0  0  0
  101.2715   18.8715   12.5032 C   0  0  0  0  0  0  0  0  0  0  0  0
  100.6057   15.9897   20.2809 C   0  0  0  0  0  0  0  0  0  0  0  0
  103.1079   16.8611   21.1497 C   0  0  0  0  0  0  0  0  0  0  0  0
  100.2234   15.7459   23.8914 C   0  0  0  0  0  0  0  0  0  0  0  0
  102.4064   16.5377   23.5238 C   0  0  0  0  0  0  0  0  0  0  0  0
  102.7652   16.8887   17.6652 C   0  0  0  0  0  0  0  0  0  0  0  0
  102.2230   17.9023   12.8060 C   0  0  0  0  0  0  0  0  0  0  0  0
  101.5722   16.3738   19.3533 C   0  0  0  0  0  0  0  0  0  0  0  0
  102.8278   16.8165   19.7900 C   0  0  0  0  0  0  0  0  0  0  0  0
  100.8958   16.0363   21.6435 C   0  0  0  0  0  0  0  0  0  0  0  0
  102.1404   16.4798   22.0683 C   0  0  0  0  0  0  0  0  0  0  0  0
   98.3722   15.0646   24.4495 H   0  0  0  0  0  0  0  0  0  0  0  0
   99.4429   15.4310   25.7607 H   0  0  0  0  0  0  0  0  0  0  0  0
  104.1550   17.1371   16.2085 H   0  0  0  0  0  0  0  0  0  0  0  0
  101.5743   16.2165   25.3483 H   0  0  0  0  0  0  0  0  0  0  0  0
  100.7918   16.1985   17.3874 H   0  0  0  0  0  0  0  0  0  0  0  0
  101.4626   17.7832   15.5683 H   0  0  0  0  0  0  0  0  0  0  0  0
  101.9360   16.3343   14.9826 H   0  0  0  0  0  0  0  0  0  0  0  0
  100.4225   17.8116    9.4778 H   0  0  0  0  0  0  0  0  0  0  0  0
  102.0651   16.1521    9.9927 H   0  0  0  0  0  0  0  0  0  0  0  0
   99.9178   19.5264   11.0651 H   0  0  0  0  0  0  0  0  0  0  0  0
  103.8524   17.4956   13.9943 H   0  0  0  0  0  0  0  0  0  0  0  0
  103.1029   18.8947   14.3787 H   0  0  0  0  0  0  0  0  0  0  0  0
  103.2096   16.2182   12.0882 H   0  0  0  0  0  0  0  0  0  0  0  0
  101.0654   19.5940   13.1631 H   0  0  0  0  0  0  0  0  0  0  0  0
   99.7066   15.6816   19.9699 H   0  0  0  0  0  0  0  0  0  0  0  0
  104.0056   17.1675   21.4662 H   0  0  0  0  0  0  0  0  0  0  0  0
  1 18  2  0  0  0  0
  2 17  1  0  0  0  0
  3  8  1  0  0  0  0
  3 19  1  0  0  0  0
  4 17  1  0  0  0  0
  4 18  1  0  0  0  0
  5 17  2  0  0  0  0
  5 23  1  0  0  0  0
  6 19  1  0  0  0  0
  6 21  1  0  0  0  0
  7 19  2  0  0  0  0
  7 22  1  0  0  0  0
  8 12  1  0  0  0  0
  9 10  2  0  0  0  0
  9 11  1  0  0  0  0
 10 13  1  0  0  0  0
 11 14  2  0  0  0  0
 12 20  1  0  0  0  0
 13 20  2  0  0  0  0
 14 20  1  0  0  0  0
 15 21  1  0  0  0  0
 15 23  2  0  0  0  0
 16 22  1  0  0  0  0
 16 24  2  0  0  0  0
 18 24  1  0  0  0  0
 21 22  2  0  0  0  0
 23 24  1  0  0  0  0
  2 25  1  0  0  0  0
  2 26  1  0  0  0  0
  3 27  1  0  0  0  0
  4 28  1  0  0  0  0
  6 29  1  0  0  0  0
  8 30  1  0  0  0  0
  8 31  1  0  0  0  0
  9 32  1  0  0  0  0
 10 33  1  0  0  0  0
 11 34  1  0  0  0  0
 12 35  1  0  0  0  0
 12 36  1  0  0  0  0
 13 37  1  0  0  0  0
 14 38  1  0  0  0  0
 15 39  1  0  0  0  0
 16 40  1  0  0  0  0
M  END
> <pdb_id>
4Q8T

> <uniprot_id>
P28720

> <usmiles>
O=C1NC(=Nc2c1cc3N=C(Nc3c2)NCCc4ccccc4)N

$$$$
2ZM_A_900
          07192416573D 1   1.00000     0.00000     0
            
 17 18  0  0  0  0            999 V2000
   16.5439   -2.1911   14.4233 O   0  5  0  0  0  0  0  0  0  0  0  0
   15.0920   -1.5045   15.7922 O   0  0  0  0  0  0  0  0  0  0  0  0
   19.3562   -3.3404   19.7728 N   0  0  0  0  0  0  0  0  0  0  0  0
   17.6901   -1.9509   20.1968 N   0  0  0  0  0  0  0  0  0  0  0  0
   16.1849   -2.0186   15.5818 N   0  3  0  0  0  0  0  0  0  0  0  0
   18.7354   -2.6156   20.7315 C   0  0  0  0  0  0  0  0  0  0  0  0
   18.9349   -3.6633   17.3458 C   0  0  0  0  0  0  0  0  0  0  0  0
   18.0545   -3.2607   16.3482 C   0  0  0  0  0  0  0  0  0  0  0  0
   16.7586   -1.8531   17.8771 C   0  0  0  0  0  0  0  0  0  0  0  0
   18.7001   -3.1380   18.6152 C   0  0  0  0  0  0  0  0  0  0  0  0
   17.6399   -2.2629   18.8814 C   0  0  0  0  0  0  0  0  0  0  0  0
   16.9956   -2.3799   16.5985 C   0  0  0  0  0  0  0  0  0  0  0  0
   20.1590   -3.9225   19.9012 H   0  0  0  0  0  0  0  0  0  0  0  0
   19.0100   -2.5781   21.6923 H   0  0  0  0  0  0  0  0  0  0  0  0
   19.6910   -4.2919   17.1636 H   0  0  0  0  0  0  0  0  0  0  0  0
   18.1818   -3.6120   15.4206 H   0  0  0  0  0  0  0  0  0  0  0  0
   16.0043   -1.2222   18.0590 H   0  0  0  0  0  0  0  0  0  0  0  0
  1  5  1  0  0  0  0
  2  5  2  0  0  0  0
  3  6  1  0  0  0  0
  3 10  1  0  0  0  0
  4  6  2  0  0  0  0
  4 11  1  0  0  0  0
  5 12  1  0  0  0  0
  7  8  1  0  0  0  0
  7 10  2  0  0  0  0
  8 12  2  0  0  0  0
  9 11  2  0  0  0  0
  9 12  1  0  0  0  0
 10 11  1  0  0  0  0
  3 13  1  0  0  0  0
  6 14  1  0  0  0  0
  7 15  1  0  0  0  0
  8 16  1  0  0  0  0
  9 17  1  0  0  0  0
M  CHG  2   1  -1   5   1
M  END
> <pdb_id>
4MSA

> <uniprot_id>
Q9Y233

> <usmiles>
[O-][N+](=O)c1cc2N=CNc2cc1

$$$$
2ZQ_A_900
          07192416573D 1   1.00000     0.00000     0
            
 19 20  0  0  0  0            999 V2000
   19.2879   -4.2837   22.1279 O   0  5  0  0  0  0  0  0  0  0  0  0
   20.5439   -3.4077   20.6981 O   0  0  0  0  0  0  0  0  0  0  0  0
   18.8555   -3.6820   18.4477 N   0  0  0  0  0  0  0  0  0  0  0  0
   19.4230   -3.5439   21.1637 N   0  3  0  0  0  0  0  0  0  0  0  0
   18.5911   -3.7589   17.1173 C   0  0  0  0  0  0  0  0  0  0  0  0
   17.4873   -3.1042   16.5730 C   0  0  0  0  0  0  0  0  0  0  0  0
   16.4008   -1.4909   20.9743 C   0  0  0  0  0  0  0  0  0  0  0  0
   17.5140   -2.1610   21.4810 C   0  0  0  0  0  0  0  0  0  0  0  0
   16.6542   -2.3655   17.4144 C   0  0  0  0  0  0  0  0  0  0  0  0
   16.1101   -1.5561   19.6139 C   0  0  0  0  0  0  0  0  0  0  0  0
   18.0609   -2.9689   19.2829 C   0  0  0  0  0  0  0  0  0  0  0  0
   18.3551   -2.9055   20.6483 C   0  0  0  0  0  0  0  0  0  0  0  0
   16.9428   -2.2939   18.7780 C   0  0  0  0  0  0  0  0  0  0  0  0
   19.1942   -4.2905   16.5226 H   0  0  0  0  0  0  0  0  0  0  0  0
   17.2951   -3.1630   15.5934 H   0  0  0  0  0  0  0  0  0  0  0  0
   15.8120   -0.9640   21.5872 H   0  0  0  0  0  0  0  0  0  0  0  0
   17.7146   -2.1081   22.4593 H   0  0  0  0  0  0  0  0  0  0  0  0
   15.8563   -1.8908   17.0429 H   0  0  0  0  0  0  0  0  0  0  0  0
   15.3135   -1.0790   19.2427 H   0  0  0  0  0  0  0  0  0  0  0  0
  1  4  1  0  0  0  0
  2  4  2  0  0  0  0
  3  5  2  0  0  0  0
  3 11  1  0  0  0  0
  4 12  1  0  0  0  0
  5  6  1  0  0  0  0
  6  9  2  0  0  0  0
  7  8  2  0  0  0  0
  7 10  1  0  0  0  0
  8 12  1  0  0  0  0
  9 13  1  0  0  0  0
 10 13  2  0  0  0  0
 11 12  2  0  0  0  0
 11 13  1  0  0  0  0
  5 14  1  0  0  0  0
  6 15  1  0  0  0  0
  7 16  1  0  0  0  0
  8 17  1  0  0  0  0
  9 18  1  0  0  0  0
 10 19  1  0  0  0  0
M  CHG  2   1  -1   4   1
M  END
> <pdb_id>
4MSN

> <uniprot_id>
Q9Y233

> <usmiles>
[O-][N+](=O)c1c2ncccc2ccc1

$$$$
2ZT_A_900
          07192416573D 1   1.00000     0.00000     0
            
 36 39  0  0  0  0            999 V2000
   20.0312   -4.3905   21.8424 O   0  0  0  0  0  0  0  0  0  0  0  0
   17.9939   -2.9381   17.7701 N   0  0  0  0  0  0  0  0  0  0  0  0
   23.6459   -4.4146   22.4362 N   0  0  0  0  0  0  0  0  0  0  0  0
   21.4005   -4.6225   21.4050 C   0  0  0  0  0  0  0  0  0  0  0  0
   17.0004   -2.2844   17.1073 C   0  0  0  0  0  0  0  0  0  0  0  0
   15.9830   -1.6599   17.8250 C   0  0  0  0  0  0  0  0  0  0  0  0
   26.8058   -4.2635   24.2696 C   0  0  0  0  0  0  0  0  0  0  0  0
   26.4088   -4.8111   25.4894 C   0  0  0  0  0  0  0  0  0  0  0  0
   18.0465   -3.1289   21.8989 C   0  0  0  0  0  0  0  0  0  0  0  0
   25.8778   -4.1263   23.2425 C   0  0  0  0  0  0  0  0  0  0  0  0
   15.9716   -1.7105   19.2059 C   0  0  0  0  0  0  0  0  0  0  0  0
   25.0911   -5.2330   25.6843 C   0  0  0  0  0  0  0  0  0  0  0  0
   21.9332   -5.3408   23.7788 C   0  0  0  0  0  0  0  0  0  0  0  0
   17.0229   -2.4499   21.2487 C   0  0  0  0  0  0  0  0  0  0  0  0
   22.8407   -5.4931   24.8268 C   0  0  0  0  0  0  0  0  0  0  0  0
   19.0255   -3.6750   19.7991 C   0  0  0  0  0  0  0  0  0  0  0  0
   19.0597   -3.7447   21.1903 C   0  0  0  0  0  0  0  0  0  0  0  0
   22.3594   -4.7932   22.5682 C   0  0  0  0  0  0  0  0  0  0  0  0
   18.0015   -2.9998   19.1289 C   0  0  0  0  0  0  0  0  0  0  0  0
   24.5553   -4.5503   23.4334 C   0  0  0  0  0  0  0  0  0  0  0  0
   16.9915   -2.3827   19.8576 C   0  0  0  0  0  0  0  0  0  0  0  0
   24.1658   -5.0992   24.6540 C   0  0  0  0  0  0  0  0  0  0  0  0
   21.6984   -3.8420   20.8554 H   0  0  0  0  0  0  0  0  0  0  0  0
   21.4228   -5.4515   20.8463 H   0  0  0  0  0  0  0  0  0  0  0  0
   17.0010   -2.2527   16.1078 H   0  0  0  0  0  0  0  0  0  0  0  0
   15.2576   -1.1727   17.3388 H   0  0  0  0  0  0  0  0  0  0  0  0
   27.7524   -3.9711   24.1342 H   0  0  0  0  0  0  0  0  0  0  0  0
   27.0732   -4.9027   26.2311 H   0  0  0  0  0  0  0  0  0  0  0  0
   18.0496   -3.1724   22.8980 H   0  0  0  0  0  0  0  0  0  0  0  0
   26.1538   -3.7257   22.3688 H   0  0  0  0  0  0  0  0  0  0  0  0
   15.2397   -1.2693   19.7252 H   0  0  0  0  0  0  0  0  0  0  0  0
   24.8145   -5.6290   26.5599 H   0  0  0  0  0  0  0  0  0  0  0  0
   20.9808   -5.6229   23.8945 H   0  0  0  0  0  0  0  0  0  0  0  0
   16.3036   -2.0063   21.7834 H   0  0  0  0  0  0  0  0  0  0  0  0
   22.5418   -5.8829   25.6978 H   0  0  0  0  0  0  0  0  0  0  0  0
   19.7489   -4.1175   19.2690 H   0  0  0  0  0  0  0  0  0  0  0  0
  1  4  1  0  0  0  0
  1 17  1  0  0  0  0
  2  5  2  0  0  0  0
  2 19  1  0  0  0  0
  3 18  2  0  0  0  0
  3 20  1  0  0  0  0
  4 18  1  0  0  0  0
  5  6  1  0  0  0  0
  6 11  2  0  0  0  0
  7  8  2  0  0  0  0
  7 10  1  0  0  0  0
  8 12  1  0  0  0  0
  9 14  1  0  0  0  0
  9 17  2  0  0  0  0
 10 20  2  0  0  0  0
 11 21  1  0  0  0  0
 12 22  2  0  0  0  0
 13 15  2  0  0  0  0
 13 18  1  0  0  0  0
 14 21  2  0  0  0  0
 15 22  1  0  0  0  0
 16 17  1  0  0  0  0
 16 19  2  0  0  0  0
 19 21  1  0  0  0  0
 20 22  1  0  0  0  0
  4 23  1  0  0  0  0
  4 24  1  0  0  0  0
  5 25  1  0  0  0  0
  6 26  1  0  0  0  0
  7 27  1  0  0  0  0
  8 28  1  0  0  0  0
  9 29  1  0  0  0  0
 10 30  1  0  0  0  0
 11 31  1  0  0  0  0
 12 32  1  0  0  0  0
 13 33  1  0  0  0  0
 14 34  1  0  0  0  0
 15 35  1  0  0  0  0
 16 36  1  0  0  0  0
M  END
> <pdb_id>
4MSC

> <uniprot_id>
Q9Y233

> <usmiles>
O(c1cc2ncccc2cc1)Cc3nc4c(cc3)cccc4

$$$$
2ZV_A_900
          07192416573D 1   1.00000     0.00000     0
            
 18 18  0  0  0  0            999 V2000
   16.1237   -1.1912   17.4706 O   0  5  0  0  0  0  0  0  0  0  0  0
   16.6589   -2.9750   16.4966 O   0  0  0  0  0  0  0  0  0  0  0  0
   19.0233   -3.7908   17.1406 N   0  0  0  0  0  0  0  0  0  0  0  0
   19.5243   -3.5536   19.3943 N   0  0  0  0  0  0  0  0  0  0  0  0
   16.7521   -2.2443   17.4782 N   0  3  0  0  0  0  0  0  0  0  0  0
   16.0461   -1.1915   20.1446 C   0  0  0  0  0  0  0  0  0  0  0  0
   19.2596   -3.1002   20.6437 C   0  0  0  0  0  0  0  0  0  0  0  0
   18.1254   -2.3327   20.8835 C   0  0  0  0  0  0  0  0  0  0  0  0
   18.7152   -3.2874   18.3492 C   0  0  0  0  0  0  0  0  0  0  0  0
   17.5510   -2.5209   18.5373 C   0  0  0  0  0  0  0  0  0  0  0  0
   17.2686   -2.0300   19.8285 C   0  0  0  0  0  0  0  0  0  0  0  0
   18.4334   -3.6025   16.3554 H   0  0  0  0  0  0  0  0  0  0  0  0
   19.8423   -4.3533   17.0272 H   0  0  0  0  0  0  0  0  0  0  0  0
   15.5169   -1.0456   19.3088 H   0  0  0  0  0  0  0  0  0  0  0  0
   15.4807   -1.6672   20.8184 H   0  0  0  0  0  0  0  0  0  0  0  0
   16.3343   -0.3085   20.5151 H   0  0  0  0  0  0  0  0  0  0  0  0
   19.8819   -3.3184   21.3955 H   0  0  0  0  0  0  0  0  0  0  0  0
   17.9267   -2.0010   21.8057 H   0  0  0  0  0  0  0  0  0  0  0  0
  1  5  1  0  0  0  0
  2  5  2  0  0  0  0
  3  9  1  0  0  0  0
  4  7  2  0  0  0  0
  4  9  1  0  0  0  0
  5 10  1  0  0  0  0
  6 11  1  0  0  0  0
  7  8  1  0  0  0  0
  8 11  2  0  0  0  0
  9 10  2  0  0  0  0
 10 11  1  0  0  0  0
  3 12  1  0  0  0  0
  3 13  1  0  0  0  0
  6 14  1  0  0  0  0
  6 15  1  0  0  0  0
  6 16  1  0  0  0  0
  7 17  1  0  0  0  0
  8 18  1  0  0  0  0
M  CHG  2   1  -1   5   1
M  END
> <pdb_id>
4MRZ

> <uniprot_id>
Q9Y233

> <usmiles>
[O-][N+](=O)c1c(nccc1C)N

$$$$
30X_A_1
          07192422213D 1   1.00000     0.00000     0
            
 40 40  0  0  0  0            999 V2000
    6.9969    5.4150   46.7719 F   0  0  0  0  0  0  0  0  0  0  0  0
    8.4494    3.8119   46.7117 F   0  0  0  0  0  0  0  0  0  0  0  0
    8.8319    5.6900   45.6792 F   0  0  0  0  0  0  0  0  0  0  0  0
   11.1208    5.9383   42.4327 F   0  0  0  0  0  0  0  0  0  0  0  0
   11.1284    6.5962   40.4118 F   0  0  0  0  0  0  0  0  0  0  0  0
   10.7745    4.5048   40.8716 F   0  0  0  0  0  0  0  0  0  0  0  0
    3.8708    3.6891   45.7863 O   0  0  0  0  0  0  0  0  0  0  0  0
    9.1211    7.4860   38.0826 N   0  0  0  0  0  0  0  0  0  0  0  0
    4.1387    5.9087   46.0559 N   0  0  0  0  0  0  0  0  0  0  0  0
    6.3596    5.2616   44.0876 N   0  0  0  0  0  0  0  0  0  0  0  0
    3.6516    5.8461   47.4572 C   0  0  0  0  0  0  0  0  0  0  0  0
    4.4566    7.2418   45.4804 C   0  0  0  0  0  0  0  0  0  0  0  0
    4.9303    3.3497   43.2962 C   0  0  0  0  0  0  0  0  0  0  0  0
    8.7039    7.0989   39.0857 C   0  0  0  0  0  0  0  0  0  0  0  0
    7.2205    4.2285   44.7573 C   0  0  0  0  0  0  0  0  0  0  0  0
    6.1742    6.3382   41.7869 C   0  0  0  0  0  0  0  0  0  0  0  0
    6.7764    6.7777   40.5786 C   0  0  0  0  0  0  0  0  0  0  0  0
    8.3782    5.5506   42.5785 C   0  0  0  0  0  0  0  0  0  0  0  0
    4.2826    4.7579   45.3214 C   0  0  0  0  0  0  0  0  0  0  0  0
    6.9650    5.7138   42.8080 C   0  0  0  0  0  0  0  0  0  0  0  0
    4.9447    4.7676   43.9215 C   0  0  1  0  0  0  0  0  0  0  0  0
    8.1751    6.6172   40.3515 C   0  0  0  0  0  0  0  0  0  0  0  0
    9.0077    5.9844   41.3795 C   0  0  0  0  0  0  0  0  0  0  0  0
    7.8964    4.8065   46.0189 C   0  0  0  0  0  0  0  0  0  0  0  0
   10.5458    5.7521   41.2549 C   0  0  0  0  0  0  0  0  0  0  0  0
    3.4795    4.8935   47.7080 H   0  0  0  0  0  0  0  0  0  0  0  0
    4.3430    6.2320   48.0680 H   0  0  0  0  0  0  0  0  0  0  0  0
    2.8042    6.3707   47.5393 H   0  0  0  0  0  0  0  0  0  0  0  0
    4.7707    7.1315   44.5374 H   0  0  0  0  0  0  0  0  0  0  0  0
    3.6372    7.8148   45.4939 H   0  0  0  0  0  0  0  0  0  0  0  0
    5.1760    7.6760   46.0226 H   0  0  0  0  0  0  0  0  0  0  0  0
    3.9850    3.0399   43.1942 H   0  0  0  0  0  0  0  0  0  0  0  0
    5.3709    3.3766   42.3990 H   0  0  0  0  0  0  0  0  0  0  0  0
    5.4257    2.7176   43.8921 H   0  0  0  0  0  0  0  0  0  0  0  0
    7.9268    3.9263   44.1171 H   0  0  0  0  0  0  0  0  0  0  0  0
    6.6520    3.4486   45.0190 H   0  0  0  0  0  0  0  0  0  0  0  0
    5.1922    6.4649   41.9270 H   0  0  0  0  0  0  0  0  0  0  0  0
    6.2102    7.2069   39.8750 H   0  0  0  0  0  0  0  0  0  0  0  0
    8.9355    5.1172   43.2868 H   0  0  0  0  0  0  0  0  0  0  0  0
    4.4446    5.3955   43.3251 H   0  0  0  0  0  0  0  0  0  0  0  0
  1 24  1  0  0  0  0
  2 24  1  0  0  0  0
  3 24  1  0  0  0  0
  4 25  1  0  0  0  0
  5 25  1  0  0  0  0
  6 25  1  0  0  0  0
  7 19  2  0  0  0  0
  8 14  3  0  0  0  0
  9 11  1  0  0  0  0
  9 12  1  0  0  0  0
  9 19  1  0  0  0  0
 10 15  1  0  0  0  0
 10 20  1  0  0  0  0
 10 21  1  0  0  0  0
 13 21  1  0  0  0  0
 14 22  1  0  0  0  0
 15 24  1  0  0  0  0
 16 17  1  0  0  0  0
 16 20  2  0  0  0  0
 17 22  2  0  0  0  0
 18 20  1  0  0  0  0
 18 23  2  0  0  0  0
 19 21  1  0  0  0  0
 22 23  1  0  0  0  0
 23 25  1  0  0  0  0
 11 26  1  0  0  0  0
 11 27  1  0  0  0  0
 11 28  1  0  0  0  0
 12 29  1  0  0  0  0
 12 30  1  0  0  0  0
 12 31  1  0  0  0  0
 13 32  1  0  0  0  0
 13 33  1  0  0  0  0
 13 34  1  0  0  0  0
 15 35  1  0  0  0  0
 15 36  1  0  0  0  0
 16 37  1  0  0  0  0
 17 38  1  0  0  0  0
 18 39  1  0  0  0  0
 21 40  1  0  0  0  0
M  END
> <pdb_id>
3G8O

> <uniprot_id>
P06401

> <usmiles>
FC(F)(F)c1c(C#N)ccc(N([C@H](C(=O)N(C)C)C)CC(F)(F)F)c1

$$$$
311_E_604
          07202412553D 1   1.00000     0.00000     0
            
 47 49  0  0  0  0            999 V2000
   58.0821   23.1936   39.6898 F   0  0  0  0  0  0  0  0  0  0  0  0
   51.3192   22.2839   42.4727 O   0  0  0  0  0  0  0  0  0  0  0  0
   53.5133   21.6977   39.8881 N   0  0  0  0  0  0  0  0  0  0  0  0
   51.2495   23.7777   40.7706 N   0  0  0  0  0  0  0  0  0  0  0  0
   59.5825   22.5167   37.4746 C   0  0  0  0  0  0  0  0  0  0  0  0
   53.2620   25.5957   42.1956 C   0  0  0  0  0  0  0  0  0  0  0  0
   51.5330   27.2920   42.3429 C   0  0  0  0  0  0  0  0  0  0  0  0
   51.2152   24.0801   39.2809 C   0  0  0  0  0  0  0  0  0  0  0  0
   50.8423   24.7835   41.7673 C   0  0  0  0  0  0  0  0  0  0  0  0
   52.3193   25.1717   39.1179 C   0  0  0  0  0  0  0  0  0  0  0  0
   52.2236   19.4018   39.5728 C   0  0  0  0  0  0  0  0  0  0  0  0
   51.6235   20.3245   40.3177 C   0  0  0  0  0  0  0  0  0  0  0  0
   53.4452   19.5669   38.9200 C   0  0  0  0  0  0  0  0  0  0  0  0
   57.4741   20.9603   36.7968 C   0  0  0  0  0  0  0  0  0  0  0  0
   56.1507   20.5692   37.2641 C   0  0  0  0  0  0  0  0  0  0  0  0
   51.9350   26.3815   40.0490 C   0  0  0  0  0  0  0  0  0  0  0  0
   56.2637   21.9511   39.2761 C   0  0  0  0  0  0  0  0  0  0  0  0
   51.7039   22.6004   41.3091 C   0  0  0  0  0  0  0  0  0  0  0  0
   57.5291   22.3223   38.8816 C   0  0  0  0  0  0  0  0  0  0  0  0
   52.2511   21.4967   40.4126 C   0  0  0  0  0  0  0  0  0  0  0  0
   54.1150   20.7468   39.0567 C   0  0  0  0  0  0  0  0  0  0  0  0
   58.1847   21.8915   37.7420 C   0  0  0  0  0  0  0  0  0  0  0  0
   55.4866   21.0594   38.4711 C   0  0  0  0  0  0  0  0  0  0  0  0
   51.8570   26.0049   41.5903 C   0  0  0  0  0  0  0  0  0  0  0  0
   59.8408   23.0980   38.2462 H   0  0  0  0  0  0  0  0  0  0  0  0
   60.2583   21.7878   37.3655 H   0  0  0  0  0  0  0  0  0  0  0  0
   59.5475   23.0665   36.6401 H   0  0  0  0  0  0  0  0  0  0  0  0
   53.5761   24.7490   41.7660 H   0  0  0  0  0  0  0  0  0  0  0  0
   53.9249   26.3238   42.0212 H   0  0  0  0  0  0  0  0  0  0  0  0
   53.1722   25.4558   43.1816 H   0  0  0  0  0  0  0  0  0  0  0  0
   50.6498   27.6453   42.0343 H   0  0  0  0  0  0  0  0  0  0  0  0
   51.4920   27.1032   43.3241 H   0  0  0  0  0  0  0  0  0  0  0  0
   52.2447   27.9712   42.1636 H   0  0  0  0  0  0  0  0  0  0  0  0
   50.3200   24.4306   39.0059 H   0  0  0  0  0  0  0  0  0  0  0  0
   51.4335   23.2653   38.7437 H   0  0  0  0  0  0  0  0  0  0  0  0
   50.9092   24.4059   42.6908 H   0  0  0  0  0  0  0  0  0  0  0  0
   49.9035   25.0829   41.5968 H   0  0  0  0  0  0  0  0  0  0  0  0
   52.3614   25.4744   38.1657 H   0  0  0  0  0  0  0  0  0  0  0  0
   53.2076   24.8013   39.3895 H   0  0  0  0  0  0  0  0  0  0  0  0
   51.7632   18.5198   39.4724 H   0  0  0  0  0  0  0  0  0  0  0  0
   50.7536   20.1500   40.7791 H   0  0  0  0  0  0  0  0  0  0  0  0
   53.8244   18.8305   38.3598 H   0  0  0  0  0  0  0  0  0  0  0  0
   57.8702   20.6423   35.9354 H   0  0  0  0  0  0  0  0  0  0  0  0
   55.6508   19.9048   36.7086 H   0  0  0  0  0  0  0  0  0  0  0  0
   51.0414   26.7277   39.7634 H   0  0  0  0  0  0  0  0  0  0  0  0
   52.6225   27.0986   39.9340 H   0  0  0  0  0  0  0  0  0  0  0  0
   55.8852   22.3069   40.1306 H   0  0  0  0  0  0  0  0  0  0  0  0
  1 19  1  0  0  0  0
  2 18  2  0  0  0  0
  3 20  2  0  0  0  0
  3 21  1  0  0  0  0
  4  8  1  0  0  0  0
  4  9  1  0  0  0  0
  4 18  1  0  0  0  0
  5 22  1  0  0  0  0
  6 24  1  0  0  0  0
  7 24  1  0  0  0  0
  8 10  1  0  0  0  0
  9 24  1  0  0  0  0
 10 16  1  0  0  0  0
 11 12  2  0  0  0  0
 11 13  1  0  0  0  0
 12 20  1  0  0  0  0
 13 21  2  0  0  0  0
 14 15  1  0  0  0  0
 14 22  2  0  0  0  0
 15 23  2  0  0  0  0
 16 24  1  0  0  0  0
 17 19  2  0  0  0  0
 17 23  1  0  0  0  0
 18 20  1  0  0  0  0
 19 22  1  0  0  0  0
 21 23  1  0  0  0  0
  5 25  1  0  0  0  0
  5 26  1  0  0  0  0
  5 27  1  0  0  0  0
  6 28  1  0  0  0  0
  6 29  1  0  0  0  0
  6 30  1  0  0  0  0
  7 31  1  0  0  0  0
  7 32  1  0  0  0  0
  7 33  1  0  0  0  0
  8 34  1  0  0  0  0
  8 35  1  0  0  0  0
  9 36  1  0  0  0  0
  9 37  1  0  0  0  0
 10 38  1  0  0  0  0
 10 39  1  0  0  0  0
 11 40  1  0  0  0  0
 12 41  1  0  0  0  0
 13 42  1  0  0  0  0
 14 43  1  0  0  0  0
 15 44  1  0  0  0  0
 16 45  1  0  0  0  0
 16 46  1  0  0  0  0
 17 47  1  0  0  0  0
M  END
> <pdb_id>
3CH6

> <uniprot_id>
P28845

> <usmiles>
Fc1c(ccc(c2nc(ccc2)C(=O)N3CC(CCC3)(C)C)c1)C

$$$$
315_B_804
          07212402213D 1   1.00000     0.00000     0
            
 55 58  0  0  0  0            999 V2000
   41.1445   46.8403   44.3966 S   0  0  0  0  0  0  0  0  0  0  0  0
   35.6662   47.2151   36.8793 F   0  0  0  0  0  0  0  0  0  0  0  0
   42.5796   47.0327   39.5407 F   0  0  0  0  0  0  0  0  0  0  0  0
   41.4716   45.4503   44.2655 O   0  0  0  0  0  0  0  0  0  0  0  0
   39.9085   47.1608   45.0865 O   0  0  0  0  0  0  0  0  0  0  0  0
   36.6892   51.9545   36.7033 O   0  0  0  0  0  0  0  0  0  0  0  0
   40.2832   49.1619   36.5847 O   0  0  0  0  0  0  0  0  0  0  0  0
   38.3565   51.8199   34.3040 N   0  0  0  0  0  0  0  0  0  0  0  0
   40.6047   48.3962   37.6238 N   0  0  0  0  0  0  0  0  0  0  0  0
   40.0501   50.3844   38.4968 N   0  0  0  0  0  0  0  0  0  0  0  0
   36.1793   49.9187   35.7514 N   0  0  0  0  0  0  0  0  0  0  0  0
   42.5151   47.7593   45.1098 C   0  0  0  0  0  0  0  0  0  0  0  0
   34.7448   49.9693   36.0712 C   0  0  0  0  0  0  0  0  0  0  0  0
   36.5530   48.6254   35.2078 C   0  0  0  0  0  0  0  0  0  0  0  0
   34.2302   48.5860   35.6735 C   0  0  0  0  0  0  0  0  0  0  0  0
   40.0161   48.4961   42.4687 C   0  0  0  0  0  0  0  0  0  0  0  0
   42.0221   53.4778   36.9984 C   0  0  0  0  0  0  0  0  0  0  0  0
   43.1307   53.0444   36.0559 C   0  0  0  0  0  0  0  0  0  0  0  0
   39.8819   49.0033   41.1659 C   0  0  0  0  0  0  0  0  0  0  0  0
   41.8618   47.0412   41.7394 C   0  0  0  0  0  0  0  0  0  0  0  0
   40.8018   52.0334   35.4372 C   0  0  0  0  0  0  0  0  0  0  0  0
   40.9984   47.5100   42.7567 C   0  0  0  0  0  0  0  0  0  0  0  0
   35.4297   47.6981   35.6106 C   0  0  2  0  0  0  0  0  0  0  0  0
   41.7275   47.5494   40.4338 C   0  0  0  0  0  0  0  0  0  0  0  0
   36.9979   51.0024   35.9635 C   0  0  0  0  0  0  0  0  0  0  0  0
   39.9673   50.3236   37.1830 C   0  0  0  0  0  0  0  0  0  0  0  0
   40.4650   49.1275   38.7635 C   0  0  0  0  0  0  0  0  0  0  0  0
   38.3794   51.0671   35.1997 C   0  0  2  0  0  0  0  0  0  0  0  0
   42.0699   52.1255   36.3404 C   0  0  0  0  0  0  0  0  0  0  0  0
   40.7203   48.5510   40.1107 C   0  0  0  0  0  0  0  0  0  0  0  0
   39.5283   51.5242   36.1799 C   0  0  2  0  0  0  0  0  0  0  0  0
   39.2485   51.8275   33.8521 H   0  0  0  0  0  0  0  0  0  0  0  0
   37.6540   51.5389   33.6502 H   0  0  0  0  0  0  0  0  0  0  0  0
   42.2634   48.7237   45.1909 H   0  0  0  0  0  0  0  0  0  0  0  0
   42.7267   47.3927   46.0157 H   0  0  0  0  0  0  0  0  0  0  0  0
   43.3175   47.6728   44.5194 H   0  0  0  0  0  0  0  0  0  0  0  0
   34.2875   50.6845   35.5426 H   0  0  0  0  0  0  0  0  0  0  0  0
   34.6035   50.1344   37.0473 H   0  0  0  0  0  0  0  0  0  0  0  0
   37.4210   48.3171   35.5970 H   0  0  0  0  0  0  0  0  0  0  0  0
   36.6319   48.6713   34.2119 H   0  0  0  0  0  0  0  0  0  0  0  0
   33.7814   48.6264   34.7808 H   0  0  0  0  0  0  0  0  0  0  0  0
   33.5833   48.2470   36.3567 H   0  0  0  0  0  0  0  0  0  0  0  0
   39.4178   48.8302   43.1970 H   0  0  0  0  0  0  0  0  0  0  0  0
   41.3486   54.1592   36.7118 H   0  0  0  0  0  0  0  0  0  0  0  0
   42.1962   53.5729   37.9785 H   0  0  0  0  0  0  0  0  0  0  0  0
   44.0479   52.8707   36.4144 H   0  0  0  0  0  0  0  0  0  0  0  0
   43.2003   53.4570   35.1477 H   0  0  0  0  0  0  0  0  0  0  0  0
   39.1845   49.6947   40.9773 H   0  0  0  0  0  0  0  0  0  0  0  0
   42.5602   46.3558   41.9456 H   0  0  0  0  0  0  0  0  0  0  0  0
   40.9977   51.4064   34.6833 H   0  0  0  0  0  0  0  0  0  0  0  0
   40.6094   52.9442   35.0718 H   0  0  0  0  0  0  0  0  0  0  0  0
   35.3070   46.9574   34.9500 H   0  0  0  0  0  0  0  0  0  0  0  0
   38.5974   50.1561   34.8498 H   0  0  0  0  0  0  0  0  0  0  0  0
   42.2836   51.3379   36.9184 H   0  0  0  0  0  0  0  0  0  0  0  0
   39.1760   52.2765   36.7367 H   0  0  0  0  0  0  0  0  0  0  0  0
  1  4  2  0  0  0  0
  1  5  2  0  0  0  0
  1 12  1  0  0  0  0
  1 22  1  0  0  0  0
  2 23  1  0  0  0  0
  3 24  1  0  0  0  0
  6 25  2  0  0  0  0
  7  9  1  0  0  0  0
  7 26  1  0  0  0  0
  8 28  1  0  0  0  0
  9 27  2  0  0  0  0
 10 26  2  0  0  0  0
 10 27  1  0  0  0  0
 11 13  1  0  0  0  0
 11 14  1  0  0  0  0
 11 25  1  0  0  0  0
 13 15  1  0  0  0  0
 14 23  1  0  0  0  0
 15 23  1  0  0  0  0
 16 19  1  0  0  0  0
 16 22  2  0  0  0  0
 17 18  1  0  0  0  0
 17 29  1  0  0  0  0
 18 29  1  0  0  0  0
 19 30  2  0  0  0  0
 20 22  1  0  0  0  0
 20 24  2  0  0  0  0
 21 29  1  0  0  0  0
 21 31  1  0  0  0  0
 24 30  1  0  0  0  0
 25 28  1  0  0  0  0
 26 31  1  0  0  0  0
 27 30  1  0  0  0  0
 28 31  1  0  0  0  0
  8 32  1  0  0  0  0
  8 33  1  0  0  0  0
 12 34  1  0  0  0  0
 12 35  1  0  0  0  0
 12 36  1  0  0  0  0
 13 37  1  0  0  0  0
 13 38  1  0  0  0  0
 14 39  1  0  0  0  0
 14 40  1  0  0  0  0
 15 41  1  0  0  0  0
 15 42  1  0  0  0  0
 16 43  1  0  0  0  0
 17 44  1  0  0  0  0
 17 45  1  0  0  0  0
 18 46  1  0  0  0  0
 18 47  1  0  0  0  0
 19 48  1  0  0  0  0
 20 49  1  0  0  0  0
 21 50  1  0  0  0  0
 21 51  1  0  0  0  0
 23 52  1  0  0  0  0
 28 53  1  0  0  0  0
 29 54  1  0  0  0  0
 31 55  1  0  0  0  0
M  END
> <pdb_id>
3C43

> <uniprot_id>
P27487

> <usmiles>
S(=O)(=O)(c1cc(F)c(cc1)C2=NOC(=N2)[C@H]([C@H](N)C(=O)N3C[C@@H](F)CC3)CC4CC4)C

$$$$
319_A_2001
          07202403373D 1   1.00000     0.00000     0
            
 45 47  0  0  0  0            999 V2000
    0.0361   -1.4411   56.4669 F   0  0  0  0  0  0  0  0  0  0  0  0
    0.8137   11.3693   53.8714 F   0  0  0  0  0  0  0  0  0  0  0  0
    0.5378    7.1585   51.7961 O   0  0  0  0  0  0  0  0  0  0  0  0
    0.7161    4.1086   54.5164 O   0  0  0  0  0  0  0  0  0  0  0  0
    1.5635   11.5215   56.5349 O   0  0  0  0  0  0  0  0  0  0  0  0
    0.1082   14.2471   60.2047 N   0  0  0  0  0  0  0  0  0  0  0  0
   -1.4661   12.8064   59.1245 N   0  0  0  0  0  0  0  0  0  0  0  0
    0.0519    5.1029   52.5618 N   0  0  0  0  0  0  0  0  0  0  0  0
    1.1511    6.5796   53.9696 N   0  0  0  0  0  0  0  0  0  0  0  0
   -1.7286   11.8817   58.1655 C   0  0  0  0  0  0  0  0  0  0  0  0
    0.9241   -0.2240   54.6678 C   0  0  0  0  0  0  0  0  0  0  0  0
   -1.2079    0.4051   55.6799 C   0  0  0  0  0  0  0  0  0  0  0  0
   -0.7864   11.4057   57.2705 C   0  0  0  0  0  0  0  0  0  0  0  0
    1.7412    9.1165   56.5947 C   0  0  0  0  0  0  0  0  0  0  0  0
    1.6249    7.8831   55.9496 C   0  0  0  0  0  0  0  0  0  0  0  0
    0.8216    0.8241   53.7688 C   0  0  0  0  0  0  0  0  0  0  0  0
   -1.3204    1.4579   54.7709 C   0  0  0  0  0  0  0  0  0  0  0  0
    0.8109   12.8463   58.3446 C   0  0  0  0  0  0  0  0  0  0  0  0
   -0.3999    2.7895   52.8414 C   0  0  0  0  0  0  0  0  0  0  0  0
    0.9913    9.0228   53.9130 C   0  0  0  0  0  0  0  0  0  0  0  0
   -0.0842   -0.4243   55.6096 C   0  0  0  0  0  0  0  0  0  0  0  0
    0.5940    6.3640   52.7241 C   0  0  0  0  0  0  0  0  0  0  0  0
    0.0595    4.0733   53.4916 C   0  0  0  0  0  0  0  0  0  0  0  0
    1.0907   10.2462   54.5643 C   0  0  0  0  0  0  0  0  0  0  0  0
    0.5143   11.8991   57.3632 C   0  0  0  0  0  0  0  0  0  0  0  0
   -0.2004   13.2846   59.2107 C   0  0  0  0  0  0  0  0  0  0  0  0
    1.4672   10.2996   55.9065 C   0  0  0  0  0  0  0  0  0  0  0  0
    1.2544    7.8376   54.5962 C   0  0  0  0  0  0  0  0  0  0  0  0
   -0.3031    1.6619   53.8120 C   0  0  0  0  0  0  0  0  0  0  0  0
    1.0377   14.6083   60.2796 H   0  0  0  0  0  0  0  0  0  0  0  0
   -0.6036   14.5648   60.8312 H   0  0  0  0  0  0  0  0  0  0  0  0
   -0.3905    4.9134   51.6852 H   0  0  0  0  0  0  0  0  0  0  0  0
    1.5068    5.7855   54.4623 H   0  0  0  0  0  0  0  0  0  0  0  0
   -2.6598   11.5226   58.1021 H   0  0  0  0  0  0  0  0  0  0  0  0
    1.7164   -0.8335   54.6417 H   0  0  0  0  0  0  0  0  0  0  0  0
   -1.9165    0.2469   56.3676 H   0  0  0  0  0  0  0  0  0  0  0  0
   -1.0314   10.7277   56.5774 H   0  0  0  0  0  0  0  0  0  0  0  0
    2.0221    9.1520   57.5538 H   0  0  0  0  0  0  0  0  0  0  0  0
    1.8047    7.0360   56.4497 H   0  0  0  0  0  0  0  0  0  0  0  0
    1.5430    0.9826   53.0947 H   0  0  0  0  0  0  0  0  0  0  0  0
   -2.1155    2.0638   54.7981 H   0  0  0  0  0  0  0  0  0  0  0  0
    1.7386   13.2097   58.4294 H   0  0  0  0  0  0  0  0  0  0  0  0
    0.1781    2.5946   52.0490 H   0  0  0  0  0  0  0  0  0  0  0  0
   -1.3495    2.8902   52.5446 H   0  0  0  0  0  0  0  0  0  0  0  0
    0.7295    8.9930   52.9483 H   0  0  0  0  0  0  0  0  0  0  0  0
  1 21  1  0  0  0  0
  2 24  1  0  0  0  0
  3 22  2  0  0  0  0
  4 23  2  0  0  0  0
  5 25  1  0  0  0  0
  5 27  1  0  0  0  0
  6 26  1  0  0  0  0
  7 10  1  0  0  0  0
  7 26  2  0  0  0  0
  8 22  1  0  0  0  0
  8 23  1  0  0  0  0
  9 22  1  0  0  0  0
  9 28  1  0  0  0  0
 10 13  2  0  0  0  0
 11 16  2  0  0  0  0
 11 21  1  0  0  0  0
 12 17  1  0  0  0  0
 12 21  2  0  0  0  0
 13 25  1  0  0  0  0
 14 15  1  0  0  0  0
 14 27  2  0  0  0  0
 15 28  2  0  0  0  0
 16 29  1  0  0  0  0
 17 29  2  0  0  0  0
 18 25  2  0  0  0  0
 18 26  1  0  0  0  0
 19 23  1  0  0  0  0
 19 29  1  0  0  0  0
 20 24  2  0  0  0  0
 20 28  1  0  0  0  0
 24 27  1  0  0  0  0
  6 30  1  0  0  0  0
  6 31  1  0  0  0  0
  8 32  1  0  0  0  0
  9 33  1  0  0  0  0
 10 34  1  0  0  0  0
 11 35  1  0  0  0  0
 12 36  1  0  0  0  0
 13 37  1  0  0  0  0
 14 38  1  0  0  0  0
 15 39  1  0  0  0  0
 16 40  1  0  0  0  0
 17 41  1  0  0  0  0
 18 42  1  0  0  0  0
 19 43  1  0  0  0  0
 19 44  1  0  0  0  0
 20 45  1  0  0  0  0
M  END
> <pdb_id>
3CTH

> <uniprot_id>
P08581

> <usmiles>
Fc1c(Oc2cc(ncc2)N)ccc(NC(=O)NC(=O)Cc3ccc(F)cc3)c1

$$$$
31Z_B_301
          07202417403D 1   1.00000     0.00000     0
            
 57 60  0  0  0  0            999 V2000
   30.6722    4.4198   -9.9874 Cl  0  0  0  0  0  0  0  0  0  0  0  0
   35.3738    1.5888  -12.7803 F   0  0  0  0  0  0  0  0  0  0  0  0
   36.7731    6.4131  -11.4596 O   0  0  0  0  0  0  0  0  0  0  0  0
   38.7449    5.6388  -10.6987 O   0  0  0  0  0  0  0  0  0  0  0  0
   32.4942   -0.4594  -17.1245 O   0  0  0  0  0  0  0  0  0  0  0  0
   29.2541    2.7042  -16.8960 O   0  0  0  0  0  0  0  0  0  0  0  0
   35.5091    3.7523  -11.1963 O   0  0  0  0  0  0  0  0  0  0  0  0
   30.8869    1.1340  -17.0248 N   0  0  0  0  0  0  0  0  0  0  0  0
   36.6666    1.0194  -16.1115 N   0  0  0  0  0  0  0  0  0  0  0  0
   33.1253    1.7509  -17.1005 N   0  0  0  0  0  0  0  0  0  0  0  0
   31.1214    4.9259  -16.8532 C   0  0  0  0  0  0  0  0  0  0  0  0
   37.3661    1.9130  -17.0973 C   0  0  0  0  0  0  0  0  0  0  0  0
   35.2376    1.3861  -15.9335 C   0  0  0  0  0  0  0  0  0  0  0  0
   37.3970    0.9200  -14.7967 C   0  0  0  0  0  0  0  0  0  0  0  0
   32.7572    3.0694  -17.0159 C   0  0  0  0  0  0  0  0  0  0  0  0
   36.6923    1.7761  -18.4523 C   0  0  0  0  0  0  0  0  0  0  0  0
   32.8797    5.5999  -13.0793 C   0  0  0  0  0  0  0  0  0  0  0  0
   31.8036    5.4291  -12.2289 C   0  0  0  0  0  0  0  0  0  0  0  0
   34.1131    5.0412  -12.7727 C   0  0  0  0  0  0  0  0  0  0  0  0
   35.2391    2.2148  -18.3263 C   0  0  0  0  0  0  0  0  0  0  0  0
   38.4942    2.9955  -13.9896 C   0  0  0  0  0  0  0  0  0  0  0  0
   38.5747    4.1102  -13.1813 C   0  0  0  0  0  0  0  0  0  0  0  0
   33.2193    4.1516  -10.7502 C   0  0  0  0  0  0  0  0  0  0  0  0
   37.7051    5.5681  -11.4074 C   0  0  0  0  0  0  0  0  0  0  0  0
   32.1974    0.7281  -17.0866 C   0  0  0  0  0  0  0  0  0  0  0  0
   31.9910    4.6963  -11.0658 C   0  0  0  0  0  0  0  0  0  0  0  0
   30.4401    2.4278  -16.9463 C   0  0  0  0  0  0  0  0  0  0  0  0
   36.4282    2.4006  -12.9499 C   0  0  0  0  0  0  0  0  0  0  0  0
   34.2914    4.3182  -11.6055 C   0  0  0  0  0  0  0  0  0  0  0  0
   36.5015    3.5191  -12.1445 C   0  0  0  0  0  0  0  0  0  0  0  0
   34.5148    1.3835  -17.2623 C   0  0  2  0  0  0  0  0  0  0  0  0
   31.4883    3.4784  -16.9354 C   0  0  0  0  0  0  0  0  0  0  0  0
   37.4176    2.1305  -13.8926 C   0  0  0  0  0  0  0  0  0  0  0  0
   37.5808    4.3791  -12.2565 C   0  0  0  0  0  0  0  0  0  0  0  0
   35.9892    6.2563  -12.0604 H   0  0  0  0  0  0  0  0  0  0  0  0
   30.1909    0.4162  -17.0383 H   0  0  0  0  0  0  0  0  0  0  0  0
   30.1268    5.0152  -16.8004 H   0  0  0  0  0  0  0  0  0  0  0  0
   31.5361    5.3291  -16.0375 H   0  0  0  0  0  0  0  0  0  0  0  0
   31.4561    5.4013  -17.6669 H   0  0  0  0  0  0  0  0  0  0  0  0
   38.3263    1.6437  -17.1715 H   0  0  0  0  0  0  0  0  0  0  0  0
   37.3090    2.8624  -16.7887 H   0  0  0  0  0  0  0  0  0  0  0  0
   35.1809    2.2997  -15.5308 H   0  0  0  0  0  0  0  0  0  0  0  0
   34.8028    0.7249  -15.3221 H   0  0  0  0  0  0  0  0  0  0  0  0
   38.3478    0.6893  -15.0035 H   0  0  0  0  0  0  0  0  0  0  0  0
   36.9773    0.1730  -14.2811 H   0  0  0  0  0  0  0  0  0  0  0  0
   33.4782    3.7623  -17.0143 H   0  0  0  0  0  0  0  0  0  0  0  0
   36.7306    0.8227  -18.7516 H   0  0  0  0  0  0  0  0  0  0  0  0
   37.1609    2.3543  -19.1202 H   0  0  0  0  0  0  0  0  0  0  0  0
   32.7692    6.1291  -13.9206 H   0  0  0  0  0  0  0  0  0  0  0  0
   30.9112    5.8243  -12.4468 H   0  0  0  0  0  0  0  0  0  0  0  0
   34.8809    5.1621  -13.4018 H   0  0  0  0  0  0  0  0  0  0  0  0
   34.7814    2.0921  -19.2069 H   0  0  0  0  0  0  0  0  0  0  0  0
   35.2086    3.1799  -18.0662 H   0  0  0  0  0  0  0  0  0  0  0  0
   39.2203    2.8104  -14.6518 H   0  0  0  0  0  0  0  0  0  0  0  0
   39.3565    4.7282  -13.2641 H   0  0  0  0  0  0  0  0  0  0  0  0
   33.3334    3.6356   -9.9013 H   0  0  0  0  0  0  0  0  0  0  0  0
   34.5222    0.4379  -17.5875 H   0  0  0  0  0  0  0  0  0  0  0  0
  1 26  1  0  0  0  0
  2 28  1  0  0  0  0
  3 24  1  0  0  0  0
  4 24  2  0  0  0  0
  5 25  2  0  0  0  0
  6 27  2  0  0  0  0
  7 29  1  0  0  0  0
  7 30  1  0  0  0  0
  8 25  1  0  0  0  0
  8 27  1  0  0  0  0
  9 12  1  0  0  0  0
  9 13  1  0  0  0  0
  9 14  1  0  0  0  0
 10 15  1  0  0  0  0
 10 25  1  0  0  0  0
 10 31  1  0  0  0  0
 11 32  1  0  0  0  0
 12 16  1  0  0  0  0
 13 31  1  0  0  0  0
 14 33  1  0  0  0  0
 15 32  2  0  0  0  0
 16 20  1  0  0  0  0
 17 18  2  0  0  0  0
 17 19  1  0  0  0  0
 18 26  1  0  0  0  0
 19 29  2  0  0  0  0
 20 31  1  0  0  0  0
 21 22  2  0  0  0  0
 21 33  1  0  0  0  0
 22 34  1  0  0  0  0
 23 26  2  0  0  0  0
 23 29  1  0  0  0  0
 24 34  1  0  0  0  0
 27 32  1  0  0  0  0
 28 30  1  0  0  0  0
 28 33  2  0  0  0  0
 30 34  2  0  0  0  0
  3 35  1  0  0  0  0
  8 36  1  0  0  0  0
 11 37  1  0  0  0  0
 11 38  1  0  0  0  0
 11 39  1  0  0  0  0
 12 40  1  0  0  0  0
 12 41  1  0  0  0  0
 13 42  1  0  0  0  0
 13 43  1  0  0  0  0
 14 44  1  0  0  0  0
 14 45  1  0  0  0  0
 15 46  1  0  0  0  0
 16 47  1  0  0  0  0
 16 48  1  0  0  0  0
 17 49  1  0  0  0  0
 18 50  1  0  0  0  0
 19 51  1  0  0  0  0
 20 52  1  0  0  0  0
 20 53  1  0  0  0  0
 21 54  1  0  0  0  0
 22 55  1  0  0  0  0
 23 56  1  0  0  0  0
 31 57  1  0  0  0  0
M  END
> <pdb_id>
4QGA

> <uniprot_id>
Q6GJI9

> <usmiles>
Clc1cc(Oc2c(F)c(ccc2C(=O)O)CN3C[C@@H](N4C(=O)NC(=O)C(=C4)C)CCC3)ccc1

$$$$
329_B_2903
          07202412353D 1   1.00000     0.00000     0
            
 22 23  0  0  0  0            999 V2000
  126.1948  113.7875   95.8225 S   0  0  0  0  0  0  0  0  0  0  0  0
  126.1626  113.9138   91.8368 O   0  0  0  0  0  0  0  0  0  0  0  0
  126.4149  116.7535   94.9688 N   0  0  0  0  0  0  0  0  0  0  0  0
  127.7730  116.2894   93.1701 N   0  0  0  0  0  0  0  0  0  0  0  0
  126.7065  115.7916   90.3342 C   0  0  0  0  0  0  0  0  0  0  0  0
  125.6522  112.2757   95.0116 C   0  0  0  0  0  0  0  0  0  0  0  0
  128.3127  115.3178   92.2031 C   0  0  0  0  0  0  0  0  0  0  0  0
  125.6493  112.3410   93.6697 C   0  0  0  0  0  0  0  0  0  0  0  0
  127.2675  114.6432   91.2238 C   0  0  1  0  0  0  0  0  0  0  0  0
  126.4203  114.5105   94.2362 C   0  0  0  0  0  0  0  0  0  0  0  0
  126.9004  115.8738   94.0922 C   0  0  0  0  0  0  0  0  0  0  0  0
  126.0984  113.6512   93.2139 C   0  0  0  0  0  0  0  0  0  0  0  0
  125.7609  116.4570   95.6647 H   0  0  0  0  0  0  0  0  0  0  0  0
  126.7047  117.7098   94.9302 H   0  0  0  0  0  0  0  0  0  0  0  0
  127.4656  116.2899   89.9153 H   0  0  0  0  0  0  0  0  0  0  0  0
  126.1258  115.4050   89.6178 H   0  0  0  0  0  0  0  0  0  0  0  0
  126.1679  116.4175   90.8984 H   0  0  0  0  0  0  0  0  0  0  0  0
  125.3766  111.4575   95.5162 H   0  0  0  0  0  0  0  0  0  0  0  0
  128.7584  114.5881   92.7216 H   0  0  0  0  0  0  0  0  0  0  0  0
  128.9922  115.7917   91.6430 H   0  0  0  0  0  0  0  0  0  0  0  0
  125.3762  111.5924   93.0655 H   0  0  0  0  0  0  0  0  0  0  0  0
  127.7646  114.0091   90.6315 H   0  0  0  0  0  0  0  0  0  0  0  0
  1  6  1  0  0  0  0
  1 10  1  0  0  0  0
  2  9  1  0  0  0  0
  2 12  1  0  0  0  0
  3 11  1  0  0  0  0
  4  7  1  0  0  0  0
  4 11  2  0  0  0  0
  5  9  1  0  0  0  0
  6  8  2  0  0  0  0
  7  9  1  0  0  0  0
  8 12  1  0  0  0  0
 10 11  1  0  0  0  0
 10 12  2  0  0  0  0
  3 13  1  0  0  0  0
  3 14  1  0  0  0  0
  5 15  1  0  0  0  0
  5 16  1  0  0  0  0
  5 17  1  0  0  0  0
  6 18  1  0  0  0  0
  7 19  1  0  0  0  0
  7 20  1  0  0  0  0
  8 21  1  0  0  0  0
  9 22  1  0  0  0  0
M  END
> <pdb_id>
3EBD

> <uniprot_id>
P29477

> <usmiles>
S1C=2C(=NC[C@@H](OC2C=C1)C)N

$$$$
32C_B_301
          07202417403D 1   1.00000     0.00000     0
            
 69 72  0  0  0  0            999 V2000
   30.5550    4.4590  -10.0370 Cl  0  0  0  0  0  0  0  0  0  0  0  0
   35.1160    1.8790  -12.6250 F   0  0  0  0  0  0  0  0  0  0  0  0
   36.8250    6.5200  -11.3050 O   0  0  0  0  0  0  0  0  0  0  0  0
   38.9220    5.8900  -10.8650 O   0  0  0  0  0  0  0  0  0  0  0  0
   32.4910   -0.4760  -17.0710 O   0  0  0  0  0  0  0  0  0  0  0  0
   29.2650    2.7280  -16.9750 O   0  0  0  0  0  0  0  0  0  0  0  0
   35.4440    4.1080  -11.1220 O   0  0  0  0  0  0  0  0  0  0  0  0
   30.8810    1.1190  -17.0070 N   0  0  0  0  0  0  0  0  0  0  0  0
   36.5070    0.9750  -15.8310 N   0  0  0  0  0  0  0  0  0  0  0  0
   33.1190    1.7470  -17.0900 N   0  0  0  0  0  0  0  0  0  0  0  0
   36.3450   -1.7670  -11.7090 C   0  0  0  0  0  0  0  0  0  0  0  0
   38.6120   -1.2410  -12.5570 C   0  0  0  0  0  0  0  0  0  0  0  0
   31.0840    4.9230  -16.8840 C   0  0  0  0  0  0  0  0  0  0  0  0
   37.3680    1.7710  -16.7700 C   0  0  0  0  0  0  0  0  0  0  0  0
   35.1170    1.4950  -15.7580 C   0  0  0  0  0  0  0  0  0  0  0  0
   32.7500    3.0700  -17.0210 C   0  0  0  0  0  0  0  0  0  0  0  0
   36.7910    1.7070  -18.1680 C   0  0  0  0  0  0  0  0  0  0  0  0
   32.8080    5.7540  -13.0940 C   0  0  0  0  0  0  0  0  0  0  0  0
   31.7310    5.5070  -12.2620 C   0  0  0  0  0  0  0  0  0  0  0  0
   34.0670    5.2950  -12.7480 C   0  0  0  0  0  0  0  0  0  0  0  0
   35.3420    2.1530  -18.1650 C   0  0  0  0  0  0  0  0  0  0  0  0
   38.5400    4.0370  -13.0360 C   0  0  0  0  0  0  0  0  0  0  0  0
   38.3790    2.8670  -13.7560 C   0  0  0  0  0  0  0  0  0  0  0  0
   33.1460    4.3430  -10.7500 C   0  0  0  0  0  0  0  0  0  0  0  0
   36.5430   -0.3670  -13.7390 C   0  0  0  0  0  0  0  0  0  0  0  0
   37.7880    5.7250  -11.3910 C   0  0  0  0  0  0  0  0  0  0  0  0
   32.1830    0.7100  -17.0600 C   0  0  0  0  0  0  0  0  0  0  0  0
   31.8930    4.7990  -11.0860 C   0  0  0  0  0  0  0  0  0  0  0  0
   30.4430    2.4240  -16.9720 C   0  0  0  0  0  0  0  0  0  0  0  0
   36.2580    2.5610  -12.7710 C   0  0  0  0  0  0  0  0  0  0  0  0
   34.2200    4.5900  -11.5730 C   0  0  0  0  0  0  0  0  0  0  0  0
   36.4170    3.7240  -12.0360 C   0  0  0  0  0  0  0  0  0  0  0  0
   34.5170    1.3820  -17.1300 C   0  0  2  0  0  0  0  0  0  0  0  0
   37.1920   -0.7340  -12.4110 C   0  0  0  0  0  0  0  0  0  0  0  0
   37.1760    0.8200  -14.4900 C   0  0  2  0  0  0  0  0  0  0  0  0
   31.4790    3.4790  -16.9530 C   0  0  0  0  0  0  0  0  0  0  0  0
   37.5730    4.4750  -12.1550 C   0  0  0  0  0  0  0  0  0  0  0  0
   37.2290    2.1030  -13.6530 C   0  0  0  0  0  0  0  0  0  0  0  0
   35.9586    6.3067  -11.7566 H   0  0  0  0  0  0  0  0  0  0  0  0
   30.1812    0.4048  -16.9923 H   0  0  0  0  0  0  0  0  0  0  0  0
   35.4100   -1.4246  -11.6168 H   0  0  0  0  0  0  0  0  0  0  0  0
   36.3393   -2.6123  -12.2432 H   0  0  0  0  0  0  0  0  0  0  0  0
   36.7245   -1.9486  -10.8018 H   0  0  0  0  0  0  0  0  0  0  0  0
   39.1661   -0.5510  -13.0228 H   0  0  0  0  0  0  0  0  0  0  0  0
   38.9963   -1.4215  -11.6516 H   0  0  0  0  0  0  0  0  0  0  0  0
   38.6111   -2.0852  -13.0930 H   0  0  0  0  0  0  0  0  0  0  0  0
   30.0875    4.9943  -16.8398 H   0  0  0  0  0  0  0  0  0  0  0  0
   31.4845    5.3395  -16.0679 H   0  0  0  0  0  0  0  0  0  0  0  0
   31.4164    5.3988  -17.6983 H   0  0  0  0  0  0  0  0  0  0  0  0
   38.2935    1.3922  -16.7745 H   0  0  0  0  0  0  0  0  0  0  0  0
   37.3991    2.7233  -16.4663 H   0  0  0  0  0  0  0  0  0  0  0  0
   35.1257    2.4518  -15.4675 H   0  0  0  0  0  0  0  0  0  0  0  0
   34.5843    0.9539  -15.1073 H   0  0  0  0  0  0  0  0  0  0  0  0
   33.4709    3.7631  -17.0217 H   0  0  0  0  0  0  0  0  0  0  0  0
   36.8452    0.7666  -18.5037 H   0  0  0  0  0  0  0  0  0  0  0  0
   37.3187    2.3067  -18.7696 H   0  0  0  0  0  0  0  0  0  0  0  0
   32.6771    6.2636  -13.9444 H   0  0  0  0  0  0  0  0  0  0  0  0
   30.8242    5.8447  -12.5143 H   0  0  0  0  0  0  0  0  0  0  0  0
   34.8529    5.4718  -13.3405 H   0  0  0  0  0  0  0  0  0  0  0  0
   34.9524    1.9964  -19.0726 H   0  0  0  0  0  0  0  0  0  0  0  0
   35.3032    3.1287  -17.9494 H   0  0  0  0  0  0  0  0  0  0  0  0
   39.3737    4.5759  -13.1564 H   0  0  0  0  0  0  0  0  0  0  0  0
   39.1116    2.5654  -14.3662 H   0  0  0  0  0  0  0  0  0  0  0  0
   33.2771    3.8288   -9.9024 H   0  0  0  0  0  0  0  0  0  0  0  0
   35.5853   -0.1413  -13.5603 H   0  0  0  0  0  0  0  0  0  0  0  0
   36.5910   -1.1681  -14.3356 H   0  0  0  0  0  0  0  0  0  0  0  0
   34.5580    0.4163  -17.3865 H   0  0  0  0  0  0  0  0  0  0  0  0
   37.2141    0.0870  -11.8405 H   0  0  0  0  0  0  0  0  0  0  0  0
   38.1247    0.5639  -14.6752 H   0  0  0  0  0  0  0  0  0  0  0  0
  1 28  1  0  0  0  0
  2 30  1  0  0  0  0
  3 26  1  0  0  0  0
  4 26  2  0  0  0  0
  5 27  2  0  0  0  0
  6 29  2  0  0  0  0
  7 31  1  0  0  0  0
  7 32  1  0  0  0  0
  8 27  1  0  0  0  0
  8 29  1  0  0  0  0
  9 14  1  0  0  0  0
  9 15  1  0  0  0  0
  9 35  1  0  0  0  0
 10 16  1  0  0  0  0
 10 27  1  0  0  0  0
 10 33  1  0  0  0  0
 11 34  1  0  0  0  0
 12 34  1  0  0  0  0
 13 36  1  0  0  0  0
 14 17  1  0  0  0  0
 15 33  1  0  0  0  0
 16 36  2  0  0  0  0
 17 21  1  0  0  0  0
 18 19  2  0  0  0  0
 18 20  1  0  0  0  0
 19 28  1  0  0  0  0
 20 31  2  0  0  0  0
 21 33  1  0  0  0  0
 22 23  2  0  0  0  0
 22 37  1  0  0  0  0
 23 38  1  0  0  0  0
 24 28  2  0  0  0  0
 24 31  1  0  0  0  0
 25 34  1  0  0  0  0
 25 35  1  0  0  0  0
 26 37  1  0  0  0  0
 29 36  1  0  0  0  0
 30 32  1  0  0  0  0
 30 38  2  0  0  0  0
 32 37  2  0  0  0  0
 35 38  1  0  0  0  0
  3 39  1  0  0  0  0
  8 40  1  0  0  0  0
 11 41  1  0  0  0  0
 11 42  1  0  0  0  0
 11 43  1  0  0  0  0
 12 44  1  0  0  0  0
 12 45  1  0  0  0  0
 12 46  1  0  0  0  0
 13 47  1  0  0  0  0
 13 48  1  0  0  0  0
 13 49  1  0  0  0  0
 14 50  1  0  0  0  0
 14 51  1  0  0  0  0
 15 52  1  0  0  0  0
 15 53  1  0  0  0  0
 16 54  1  0  0  0  0
 17 55  1  0  0  0  0
 17 56  1  0  0  0  0
 18 57  1  0  0  0  0
 19 58  1  0  0  0  0
 20 59  1  0  0  0  0
 21 60  1  0  0  0  0
 21 61  1  0  0  0  0
 22 62  1  0  0  0  0
 23 63  1  0  0  0  0
 24 64  1  0  0  0  0
 25 65  1  0  0  0  0
 25 66  1  0  0  0  0
 33 67  1  0  0  0  0
 34 68  1  0  0  0  0
 35 69  1  0  0  0  0
M  END
> <pdb_id>
4QGG

> <uniprot_id>
Q6GJI9

> <usmiles>
Clc1cc(Oc2c(F)c(ccc2C(=O)O)[C@H](N3C[C@@H](N4C(=O)NC(=O)C(=C4)C)CCC3)CC(C)C)ccc1

$$$$
32E_A_301
          07202417403D 1   1.00000     0.00000     0
            
 69 72  0  0  0  0            999 V2000
   30.6440    4.2825   -9.8503 Cl  0  0  0  0  0  0  0  0  0  0  0  0
   35.2245    1.6498  -12.5382 F   0  0  0  0  0  0  0  0  0  0  0  0
   36.8018    6.4767  -11.2885 O   0  0  0  0  0  0  0  0  0  0  0  0
   38.9014    5.7012  -10.7953 O   0  0  0  0  0  0  0  0  0  0  0  0
   32.5487   -0.5533  -17.0797 O   0  0  0  0  0  0  0  0  0  0  0  0
   29.2977    2.6763  -17.0392 O   0  0  0  0  0  0  0  0  0  0  0  0
   35.4694    3.8600  -11.0862 O   0  0  0  0  0  0  0  0  0  0  0  0
   30.9418    1.0715  -17.0886 N   0  0  0  0  0  0  0  0  0  0  0  0
   36.6046    0.8493  -15.7988 N   0  0  0  0  0  0  0  0  0  0  0  0
   33.1926    1.6525  -17.0774 N   0  0  0  0  0  0  0  0  0  0  0  0
   37.7056   -1.3499  -12.2253 C   0  0  0  0  0  0  0  0  0  0  0  0
   40.0260   -1.4900  -13.0854 C   0  0  0  0  0  0  0  0  0  0  0  0
   31.1807    4.8728  -16.8272 C   0  0  0  0  0  0  0  0  0  0  0  0
   37.3883    1.7278  -16.6923 C   0  0  0  0  0  0  0  0  0  0  0  0
   35.2139    1.3068  -15.7358 C   0  0  0  0  0  0  0  0  0  0  0  0
   32.8272    2.9837  -16.9733 C   0  0  0  0  0  0  0  0  0  0  0  0
   36.8788    1.6138  -18.1180 C   0  0  0  0  0  0  0  0  0  0  0  0
   32.7453    5.5326  -12.9742 C   0  0  0  0  0  0  0  0  0  0  0  0
   31.6945    5.3231  -12.0931 C   0  0  0  0  0  0  0  0  0  0  0  0
   34.0022    5.0434  -12.6569 C   0  0  0  0  0  0  0  0  0  0  0  0
   35.4255    2.0672  -18.1268 C   0  0  0  0  0  0  0  0  0  0  0  0
   38.5342    4.0437  -13.0819 C   0  0  0  0  0  0  0  0  0  0  0  0
   38.4053    2.8671  -13.8052 C   0  0  0  0  0  0  0  0  0  0  0  0
   33.1814    4.1155  -10.6081 C   0  0  0  0  0  0  0  0  0  0  0  0
   38.3856   -0.1381  -14.3569 C   0  0  0  0  0  0  0  0  0  0  0  0
   37.6800    5.6342  -11.3845 C   0  0  0  0  0  0  0  0  0  0  0  0
   32.2533    0.6403  -17.0913 C   0  0  0  0  0  0  0  0  0  0  0  0
   31.9292    4.5972  -10.9403 C   0  0  0  0  0  0  0  0  0  0  0  0
   30.4946    2.3901  -17.0273 C   0  0  0  0  0  0  0  0  0  0  0  0
   36.3231    2.4153  -12.7496 C   0  0  0  0  0  0  0  0  0  0  0  0
   34.2227    4.3565  -11.4808 C   0  0  0  0  0  0  0  0  0  0  0  0
   36.4384    3.5849  -12.0244 C   0  0  0  0  0  0  0  0  0  0  0  0
   34.5972    1.2497  -17.1289 C   0  0  2  0  0  0  0  0  0  0  0  0
   38.7984   -0.6061  -12.9702 C   0  0  0  0  0  0  0  0  0  0  0  0
   37.1100    0.7211  -14.4066 C   0  0  1  0  0  0  0  0  0  0  0  0
   31.5550    3.4233  -16.9353 C   0  0  0  0  0  0  0  0  0  0  0  0
   37.5576    4.3871  -12.1661 C   0  0  0  0  0  0  0  0  0  0  0  0
   37.2959    2.0353  -13.6555 C   0  0  0  0  0  0  0  0  0  0  0  0
   35.9290    6.3450  -11.7585 H   0  0  0  0  0  0  0  0  0  0  0  0
   30.2381    0.3626  -17.1357 H   0  0  0  0  0  0  0  0  0  0  0  0
   36.8970   -0.7664  -12.1499 H   0  0  0  0  0  0  0  0  0  0  0  0
   37.4697   -2.1835  -12.7247 H   0  0  0  0  0  0  0  0  0  0  0  0
   38.0299   -1.5899  -11.3103 H   0  0  0  0  0  0  0  0  0  0  0  0
   40.7454   -0.9989  -13.5765 H   0  0  0  0  0  0  0  0  0  0  0  0
   40.3509   -1.7301  -12.1707 H   0  0  0  0  0  0  0  0  0  0  0  0
   39.7907   -2.3237  -13.5850 H   0  0  0  0  0  0  0  0  0  0  0  0
   30.1846    4.9600  -16.8163 H   0  0  0  0  0  0  0  0  0  0  0  0
   31.5578    5.2524  -15.9824 H   0  0  0  0  0  0  0  0  0  0  0  0
   31.5504    5.3719  -17.6110 H   0  0  0  0  0  0  0  0  0  0  0  0
   38.3501    1.4560  -16.6624 H   0  0  0  0  0  0  0  0  0  0  0  0
   37.2999    2.6752  -16.3847 H   0  0  0  0  0  0  0  0  0  0  0  0
   35.1873    2.2475  -15.3976 H   0  0  0  0  0  0  0  0  0  0  0  0
   34.6960    0.7156  -15.1174 H   0  0  0  0  0  0  0  0  0  0  0  0
   33.5575    3.6650  -16.9230 H   0  0  0  0  0  0  0  0  0  0  0  0
   36.9417    0.6650  -18.4274 H   0  0  0  0  0  0  0  0  0  0  0  0
   37.4216    2.1979  -18.7215 H   0  0  0  0  0  0  0  0  0  0  0  0
   32.5973    6.0309  -13.8285 H   0  0  0  0  0  0  0  0  0  0  0  0
   30.7849    5.6900  -12.2881 H   0  0  0  0  0  0  0  0  0  0  0  0
   34.7617    5.1907  -13.2904 H   0  0  0  0  0  0  0  0  0  0  0  0
   35.0487    1.9439  -19.0449 H   0  0  0  0  0  0  0  0  0  0  0  0
   35.3816    3.0341  -17.8756 H   0  0  0  0  0  0  0  0  0  0  0  0
   39.3263    4.6379  -13.2218 H   0  0  0  0  0  0  0  0  0  0  0  0
   39.1252    2.6090  -14.4496 H   0  0  0  0  0  0  0  0  0  0  0  0
   33.3285    3.6071   -9.7597 H   0  0  0  0  0  0  0  0  0  0  0  0
   38.2355   -0.9476  -14.9245 H   0  0  0  0  0  0  0  0  0  0  0  0
   39.1367    0.4013  -14.7375 H   0  0  0  0  0  0  0  0  0  0  0  0
   34.6240    0.2961  -17.4287 H   0  0  0  0  0  0  0  0  0  0  0  0
   39.0464    0.1997  -12.4325 H   0  0  0  0  0  0  0  0  0  0  0  0
   36.4122    0.2107  -13.9041 H   0  0  0  0  0  0  0  0  0  0  0  0
  1 28  1  0  0  0  0
  2 30  1  0  0  0  0
  3 26  1  0  0  0  0
  4 26  2  0  0  0  0
  5 27  2  0  0  0  0
  6 29  2  0  0  0  0
  7 31  1  0  0  0  0
  7 32  1  0  0  0  0
  8 27  1  0  0  0  0
  8 29  1  0  0  0  0
  9 14  1  0  0  0  0
  9 15  1  0  0  0  0
  9 35  1  0  0  0  0
 10 16  1  0  0  0  0
 10 27  1  0  0  0  0
 10 33  1  0  0  0  0
 11 34  1  0  0  0  0
 12 34  1  0  0  0  0
 13 36  1  0  0  0  0
 14 17  1  0  0  0  0
 15 33  1  0  0  0  0
 16 36  2  0  0  0  0
 17 21  1  0  0  0  0
 18 19  2  0  0  0  0
 18 20  1  0  0  0  0
 19 28  1  0  0  0  0
 20 31  2  0  0  0  0
 21 33  1  0  0  0  0
 22 23  2  0  0  0  0
 22 37  1  0  0  0  0
 23 38  1  0  0  0  0
 24 28  2  0  0  0  0
 24 31  1  0  0  0  0
 25 34  1  0  0  0  0
 25 35  1  0  0  0  0
 26 37  1  0  0  0  0
 29 36  1  0  0  0  0
 30 32  1  0  0  0  0
 30 38  2  0  0  0  0
 32 37  2  0  0  0  0
 35 38  1  0  0  0  0
  3 39  1  0  0  0  0
  8 40  1  0  0  0  0
 11 41  1  0  0  0  0
 11 42  1  0  0  0  0
 11 43  1  0  0  0  0
 12 44  1  0  0  0  0
 12 45  1  0  0  0  0
 12 46  1  0  0  0  0
 13 47  1  0  0  0  0
 13 48  1  0  0  0  0
 13 49  1  0  0  0  0
 14 50  1  0  0  0  0
 14 51  1  0  0  0  0
 15 52  1  0  0  0  0
 15 53  1  0  0  0  0
 16 54  1  0  0  0  0
 17 55  1  0  0  0  0
 17 56  1  0  0  0  0
 18 57  1  0  0  0  0
 19 58  1  0  0  0  0
 20 59  1  0  0  0  0
 21 60  1  0  0  0  0
 21 61  1  0  0  0  0
 22 62  1  0  0  0  0
 23 63  1  0  0  0  0
 24 64  1  0  0  0  0
 25 65  1  0  0  0  0
 25 66  1  0  0  0  0
 33 67  1  0  0  0  0
 34 68  1  0  0  0  0
 35 69  1  0  0  0  0
M  END
> <pdb_id>
4QGH

> <uniprot_id>
Q6GJI9

> <usmiles>
Clc1cc(Oc2c(F)c(ccc2C(=O)O)[C@@H](N3C[C@@H](N4C(=O)NC(=O)C(=C4)C)CCC3)CC(C)C)ccc1

$$$$
32K_A_301
          07202417403D 1   1.00000     0.00000     0
            
 61 64  0  0  0  0            999 V2000
   30.7584    4.2186  -10.0210 Cl  0  0  0  0  0  0  0  0  0  0  0  0
   38.8100    5.1715  -10.7188 O   0  0  0  0  0  0  0  0  0  0  0  0
   36.9089    6.0306  -11.5012 O   0  0  0  0  0  0  0  0  0  0  0  0
   32.5595   -0.5191  -17.2009 O   0  0  0  0  0  0  0  0  0  0  0  0
   29.2452    2.6296  -17.0475 O   0  0  0  0  0  0  0  0  0  0  0  0
   35.2457    1.2131  -12.9493 O   0  0  0  0  0  0  0  0  0  0  0  0
   35.5238    3.3984  -11.2555 O   0  0  0  0  0  0  0  0  0  0  0  0
   30.9292    1.0710  -17.1554 N   0  0  0  0  0  0  0  0  0  0  0  0
   36.6546    0.9213  -16.2480 N   0  0  0  0  0  0  0  0  0  0  0  0
   33.1635    1.6951  -17.2371 N   0  0  0  0  0  0  0  0  0  0  0  0
   35.4563    0.2991  -11.8547 C   0  0  0  0  0  0  0  0  0  0  0  0
   31.0421    4.8371  -17.0218 C   0  0  0  0  0  0  0  0  0  0  0  0
   37.4157    1.7994  -17.1886 C   0  0  0  0  0  0  0  0  0  0  0  0
   35.2457    1.3581  -16.0606 C   0  0  0  0  0  0  0  0  0  0  0  0
   37.2883    0.6088  -14.9351 C   0  0  0  0  0  0  0  0  0  0  0  0
   32.7660    3.0143  -17.1546 C   0  0  0  0  0  0  0  0  0  0  0  0
   36.7478    1.7141  -18.5548 C   0  0  0  0  0  0  0  0  0  0  0  0
   33.0461    5.4810  -13.0345 C   0  0  0  0  0  0  0  0  0  0  0  0
   31.9663    5.2865  -12.1954 C   0  0  0  0  0  0  0  0  0  0  0  0
   34.2471    4.8499  -12.7505 C   0  0  0  0  0  0  0  0  0  0  0  0
   35.3109    2.1886  -18.4215 C   0  0  0  0  0  0  0  0  0  0  0  0
   38.4811    2.5791  -14.0522 C   0  0  0  0  0  0  0  0  0  0  0  0
   38.5956    3.6699  -13.2259 C   0  0  0  0  0  0  0  0  0  0  0  0
   33.2911    3.8670  -10.7741 C   0  0  0  0  0  0  0  0  0  0  0  0
   37.7858    5.1393  -11.4459 C   0  0  0  0  0  0  0  0  0  0  0  0
   32.2484    0.6665  -17.2006 C   0  0  0  0  0  0  0  0  0  0  0  0
   30.4460    2.3593  -17.0975 C   0  0  0  0  0  0  0  0  0  0  0  0
   32.0958    4.4877  -11.0749 C   0  0  0  0  0  0  0  0  0  0  0  0
   34.3590    4.0435  -11.6283 C   0  0  0  0  0  0  0  0  0  0  0  0
   36.3690    2.0429  -13.0492 C   0  0  0  0  0  0  0  0  0  0  0  0
   36.4913    3.1450  -12.2152 C   0  0  0  0  0  0  0  0  0  0  0  0
   34.5611    1.3393  -17.3963 C   0  0  2  0  0  0  0  0  0  0  0  0
   31.4827    3.4120  -17.0893 C   0  0  0  0  0  0  0  0  0  0  0  0
   37.3601    1.7729  -13.9885 C   0  0  0  0  0  0  0  0  0  0  0  0
   37.6074    3.9633  -12.3066 C   0  0  0  0  0  0  0  0  0  0  0  0
   39.4608    4.4125  -10.7380 H   0  0  0  0  0  0  0  0  0  0  0  0
   30.2438    0.3429  -17.1660 H   0  0  0  0  0  0  0  0  0  0  0  0
   34.6632   -0.3036  -11.7665 H   0  0  0  0  0  0  0  0  0  0  0  0
   36.2738   -0.2492  -12.0309 H   0  0  0  0  0  0  0  0  0  0  0  0
   35.5779    0.8162  -11.0075 H   0  0  0  0  0  0  0  0  0  0  0  0
   30.0437    4.8757  -16.9805 H   0  0  0  0  0  0  0  0  0  0  0  0
   31.4264    5.2664  -16.2046 H   0  0  0  0  0  0  0  0  0  0  0  0
   31.3611    5.3234  -17.8353 H   0  0  0  0  0  0  0  0  0  0  0  0
   38.3632    1.4866  -17.2537 H   0  0  0  0  0  0  0  0  0  0  0  0
   37.3983    2.7439  -16.8605 H   0  0  0  0  0  0  0  0  0  0  0  0
   35.2267    2.2845  -15.6846 H   0  0  0  0  0  0  0  0  0  0  0  0
   34.7795    0.7341  -15.4335 H   0  0  0  0  0  0  0  0  0  0  0  0
   38.2194    0.2866  -15.1059 H   0  0  0  0  0  0  0  0  0  0  0  0
   36.7591   -0.1181  -14.4975 H   0  0  0  0  0  0  0  0  0  0  0  0
   33.4762    3.7182  -17.1426 H   0  0  0  0  0  0  0  0  0  0  0  0
   36.7617    0.7680  -18.8782 H   0  0  0  0  0  0  0  0  0  0  0  0
   37.2359    2.2960  -19.2054 H   0  0  0  0  0  0  0  0  0  0  0  0
   32.9623    6.0705  -13.8379 H   0  0  0  0  0  0  0  0  0  0  0  0
   31.0903    5.7239  -12.3988 H   0  0  0  0  0  0  0  0  0  0  0  0
   35.0333    4.9764  -13.3554 H   0  0  0  0  0  0  0  0  0  0  0  0
   34.8554    2.1125  -19.3085 H   0  0  0  0  0  0  0  0  0  0  0  0
   35.3057    3.1436  -18.1249 H   0  0  0  0  0  0  0  0  0  0  0  0
   39.2110    2.3673  -14.7022 H   0  0  0  0  0  0  0  0  0  0  0  0
   39.4022    4.2574  -13.2904 H   0  0  0  0  0  0  0  0  0  0  0  0
   33.3809    3.3015   -9.9542 H   0  0  0  0  0  0  0  0  0  0  0  0
   34.5867    0.3950  -17.7244 H   0  0  0  0  0  0  0  0  0  0  0  0
  1 28  1  0  0  0  0
  2 25  1  0  0  0  0
  3 25  2  0  0  0  0
  4 26  2  0  0  0  0
  5 27  2  0  0  0  0
  6 11  1  0  0  0  0
  6 30  1  0  0  0  0
  7 29  1  0  0  0  0
  7 31  1  0  0  0  0
  8 26  1  0  0  0  0
  8 27  1  0  0  0  0
  9 13  1  0  0  0  0
  9 14  1  0  0  0  0
  9 15  1  0  0  0  0
 10 16  1  0  0  0  0
 10 26  1  0  0  0  0
 10 32  1  0  0  0  0
 12 33  1  0  0  0  0
 13 17  1  0  0  0  0
 14 32  1  0  0  0  0
 15 34  1  0  0  0  0
 16 33  2  0  0  0  0
 17 21  1  0  0  0  0
 18 19  2  0  0  0  0
 18 20  1  0  0  0  0
 19 28  1  0  0  0  0
 20 29  2  0  0  0  0
 21 32  1  0  0  0  0
 22 23  2  0  0  0  0
 22 34  1  0  0  0  0
 23 35  1  0  0  0  0
 24 28  2  0  0  0  0
 24 29  1  0  0  0  0
 25 35  1  0  0  0  0
 27 33  1  0  0  0  0
 30 31  1  0  0  0  0
 30 34  2  0  0  0  0
 31 35  2  0  0  0  0
  2 36  1  0  0  0  0
  8 37  1  0  0  0  0
 11 38  1  0  0  0  0
 11 39  1  0  0  0  0
 11 40  1  0  0  0  0
 12 41  1  0  0  0  0
 12 42  1  0  0  0  0
 12 43  1  0  0  0  0
 13 44  1  0  0  0  0
 13 45  1  0  0  0  0
 14 46  1  0  0  0  0
 14 47  1  0  0  0  0
 15 48  1  0  0  0  0
 15 49  1  0  0  0  0
 16 50  1  0  0  0  0
 17 51  1  0  0  0  0
 17 52  1  0  0  0  0
 18 53  1  0  0  0  0
 19 54  1  0  0  0  0
 20 55  1  0  0  0  0
 21 56  1  0  0  0  0
 21 57  1  0  0  0  0
 22 58  1  0  0  0  0
 23 59  1  0  0  0  0
 24 60  1  0  0  0  0
 32 61  1  0  0  0  0
M  END
> <pdb_id>
4QG7

> <uniprot_id>
Q6GJI9

> <usmiles>
Clc1cc(Oc2c(OC)c(ccc2C(=O)O)CN3C[C@@H](N4C(=O)NC(=O)C(=C4)C)CCC3)ccc1

$$$$
32U_H_1000
          07202416143D 1   1.00000     0.00000     0
            
 56 58  0  0  0  0            999 V2000
   11.9532  -13.4905   15.4974 O   0  0  0  0  0  0  0  0  0  0  0  0
   11.8253  -13.5282   12.2872 O   0  0  0  0  0  0  0  0  0  0  0  0
   17.9936  -10.0873   10.8336 N   0  0  0  0  0  0  0  0  0  0  0  0
   18.3454  -12.3295   11.1394 N   0  0  0  0  0  0  0  0  0  0  0  0
   12.1574  -16.3573   12.0424 N   0  0  0  0  0  0  0  0  0  0  0  0
   12.1295  -11.3174   14.8357 N   0  0  0  0  0  0  0  0  0  0  0  0
   10.0322  -13.8962   13.5807 N   0  0  0  0  0  0  0  0  0  0  0  0
   13.4058  -11.2628   15.5804 C   0  0  0  0  0  0  0  0  0  0  0  0
    8.8474  -14.6811   13.9282 C   0  0  0  0  0  0  0  0  0  0  0  0
    8.0093  -13.5589   14.5953 C   0  0  0  0  0  0  0  0  0  0  0  0
    6.3081  -14.0659   10.2989 C   0  0  0  0  0  0  0  0  0  0  0  0
    6.5644  -15.3605   10.7415 C   0  0  0  0  0  0  0  0  0  0  0  0
    7.3851  -13.2533    9.9184 C   0  0  0  0  0  0  0  0  0  0  0  0
    9.0704  -12.6781   15.2987 C   0  0  0  0  0  0  0  0  0  0  0  0
    7.8686  -15.8484   10.8093 C   0  0  0  0  0  0  0  0  0  0  0  0
    8.6813  -13.7422    9.9882 C   0  0  0  0  0  0  0  0  0  0  0  0
   14.9365  -12.4317   13.9352 C   0  0  0  0  0  0  0  0  0  0  0  0
   15.1042  -10.0463   14.1163 C   0  0  0  0  0  0  0  0  0  0  0  0
   15.9371  -12.4394   12.9669 C   0  0  0  0  0  0  0  0  0  0  0  0
   16.1079  -10.0620   13.1448 C   0  0  0  0  0  0  0  0  0  0  0  0
   10.3728  -15.5411   10.4968 C   0  0  0  0  0  0  0  0  0  0  0  0
   17.6977  -11.2263   11.4430 C   0  0  0  0  0  0  0  0  0  0  0  0
   11.5105  -12.5214   14.8950 C   0  0  0  0  0  0  0  0  0  0  0  0
   10.9266  -14.2919   12.6290 C   0  0  0  0  0  0  0  0  0  0  0  0
   10.8599  -15.6464   11.9704 C   0  0  2  0  0  0  0  0  0  0  0  0
   10.1659  -12.5973   14.1938 C   0  0  1  0  0  0  0  0  0  0  0  0
   14.5150  -11.2406   14.5128 C   0  0  0  0  0  0  0  0  0  0  0  0
    8.9416  -15.0358   10.4317 C   0  0  0  0  0  0  0  0  0  0  0  0
   16.5404  -11.2459   12.5584 C   0  0  0  0  0  0  0  0  0  0  0  0
   17.4978   -9.2512   11.0683 H   0  0  0  0  0  0  0  0  0  0  0  0
   18.7126  -10.0640   10.1390 H   0  0  0  0  0  0  0  0  0  0  0  0
   18.1182  -13.1862   11.6023 H   0  0  0  0  0  0  0  0  0  0  0  0
   12.4535  -16.4149   12.9958 H   0  0  0  0  0  0  0  0  0  0  0  0
   12.0534  -17.2793   11.6693 H   0  0  0  0  0  0  0  0  0  0  0  0
   11.7570  -10.5368   14.3339 H   0  0  0  0  0  0  0  0  0  0  0  0
   13.5021  -12.0680   16.1656 H   0  0  0  0  0  0  0  0  0  0  0  0
   13.4463  -10.4361   16.1416 H   0  0  0  0  0  0  0  0  0  0  0  0
    9.0604  -15.4211   14.5661 H   0  0  0  0  0  0  0  0  0  0  0  0
    8.3954  -15.0577   13.1196 H   0  0  0  0  0  0  0  0  0  0  0  0
    7.3661  -13.9408   15.2589 H   0  0  0  0  0  0  0  0  0  0  0  0
    7.5072  -13.0328   13.9090 H   0  0  0  0  0  0  0  0  0  0  0  0
    5.3706  -13.7211   10.2532 H   0  0  0  0  0  0  0  0  0  0  0  0
    5.8029  -15.9484   11.0144 H   0  0  0  0  0  0  0  0  0  0  0  0
    7.2189  -12.3212    9.5967 H   0  0  0  0  0  0  0  0  0  0  0  0
    9.4175  -13.1134   16.1293 H   0  0  0  0  0  0  0  0  0  0  0  0
    8.7073  -11.7737   15.5231 H   0  0  0  0  0  0  0  0  0  0  0  0
    8.0368  -16.7810   11.1285 H   0  0  0  0  0  0  0  0  0  0  0  0
    9.4428  -13.1546    9.7148 H   0  0  0  0  0  0  0  0  0  0  0  0
   14.5162  -13.2938   14.2182 H   0  0  0  0  0  0  0  0  0  0  0  0
   14.8116   -9.1812   14.5237 H   0  0  0  0  0  0  0  0  0  0  0  0
   16.2268  -13.3058   12.5602 H   0  0  0  0  0  0  0  0  0  0  0  0
   16.5265   -9.1984   12.8637 H   0  0  0  0  0  0  0  0  0  0  0  0
   10.4203  -16.4448   10.0712 H   0  0  0  0  0  0  0  0  0  0  0  0
   10.9663  -14.9074   10.0006 H   0  0  0  0  0  0  0  0  0  0  0  0
   10.1886  -16.1925   12.4716 H   0  0  0  0  0  0  0  0  0  0  0  0
   10.0177  -11.8454   13.5515 H   0  0  0  0  0  0  0  0  0  0  0  0
  1 23  2  0  0  0  0
  2 24  2  0  0  0  0
  3 22  1  0  0  0  0
  4 22  2  0  0  0  0
  5 25  1  0  0  0  0
  6  8  1  0  0  0  0
  6 23  1  0  0  0  0
  7  9  1  0  0  0  0
  7 24  1  0  0  0  0
  7 26  1  0  0  0  0
  8 27  1  0  0  0  0
  9 10  1  0  0  0  0
 10 14  1  0  0  0  0
 11 12  2  0  0  0  0
 11 13  1  0  0  0  0
 12 15  1  0  0  0  0
 13 16  2  0  0  0  0
 14 26  1  0  0  0  0
 15 28  2  0  0  0  0
 16 28  1  0  0  0  0
 17 19  1  0  0  0  0
 17 27  2  0  0  0  0
 18 20  2  0  0  0  0
 18 27  1  0  0  0  0
 19 29  2  0  0  0  0
 20 29  1  0  0  0  0
 21 25  1  0  0  0  0
 21 28  1  0  0  0  0
 22 29  1  0  0  0  0
 23 26  1  0  0  0  0
 24 25  1  0  0  0  0
  3 30  1  0  0  0  0
  3 31  1  0  0  0  0
  4 32  1  0  0  0  0
  5 33  1  0  0  0  0
  5 34  1  0  0  0  0
  6 35  1  0  0  0  0
  8 36  1  0  0  0  0
  8 37  1  0  0  0  0
  9 38  1  0  0  0  0
  9 39  1  0  0  0  0
 10 40  1  0  0  0  0
 10 41  1  0  0  0  0
 11 42  1  0  0  0  0
 12 43  1  0  0  0  0
 13 44  1  0  0  0  0
 14 45  1  0  0  0  0
 14 46  1  0  0  0  0
 15 47  1  0  0  0  0
 16 48  1  0  0  0  0
 17 49  1  0  0  0  0
 18 50  1  0  0  0  0
 19 51  1  0  0  0  0
 20 52  1  0  0  0  0
 21 53  1  0  0  0  0
 21 54  1  0  0  0  0
 25 55  1  0  0  0  0
 26 56  1  0  0  0  0
M  END
> <pdb_id>
2ZDA

> <uniprot_id>
P00734

> <usmiles>
O=C(N1[C@H](C(=O)NCc2ccc(cc2)C(=N)N)CCC1)[C@H](N)Cc3ccccc3

$$$$
32V_A_503
          07192415293D 1   1.00000     0.00000     0
            
 37 39  0  0  0  0            999 V2000
  -47.2036   24.1351   -0.1773 S   0  0  0  0  0  0  0  0  0  0  0  0
  -44.0408   23.5015    0.3532 O   0  0  0  0  0  0  0  0  0  0  0  0
  -42.6327   27.4657   -1.9036 N   0  0  0  0  0  0  0  0  0  0  0  0
  -45.0258   26.9823   -1.7873 N   0  0  0  0  0  0  0  0  0  0  0  0
  -43.3801   25.4493   -0.7319 N   0  0  0  0  0  0  0  0  0  0  0  0
  -41.3950   24.4410   -1.6598 C   0  0  0  0  0  0  0  0  0  0  0  0
  -48.4833   28.4350   -2.9487 C   0  0  0  0  0  0  0  0  0  0  0  0
  -48.1605   25.2918   -0.9726 C   0  0  0  0  0  0  0  0  0  0  0  0
  -41.9669   25.1387   -0.4615 C   0  0  0  0  0  0  0  0  0  0  0  0
  -42.0510   30.6992   -3.4817 C   0  0  0  0  0  0  0  0  0  0  0  0
  -43.0129   31.0575   -2.3984 C   0  0  0  0  0  0  0  0  0  0  0  0
  -47.9609   27.4819   -2.3190 C   0  0  0  0  0  0  0  0  0  0  0  0
  -41.9289   29.1960   -3.4983 C   0  0  0  0  0  0  0  0  0  0  0  0
  -43.1129   29.8281   -1.5209 C   0  0  0  0  0  0  0  0  0  0  0  0
  -43.7077   26.6160   -1.4814 C   0  0  0  0  0  0  0  0  0  0  0  0
  -44.3856   24.6116   -0.3450 C   0  0  0  0  0  0  0  0  0  0  0  0
  -45.7316   24.9700   -0.6390 C   0  0  0  0  0  0  0  0  0  0  0  0
  -42.9968   28.7424   -2.5466 C   0  0  0  0  0  0  0  0  0  0  0  0
  -46.0452   26.1399   -1.3265 C   0  0  0  0  0  0  0  0  0  0  0  0
  -47.3957   26.3156   -1.5409 C   0  0  0  0  0  0  0  0  0  0  0  0
  -41.6771   27.2040   -1.7680 H   0  0  0  0  0  0  0  0  0  0  0  0
  -40.4337   24.2229   -1.4913 H   0  0  0  0  0  0  0  0  0  0  0  0
  -41.9037   23.5967   -1.8283 H   0  0  0  0  0  0  0  0  0  0  0  0
  -41.4662   25.0382   -2.4588 H   0  0  0  0  0  0  0  0  0  0  0  0
  -48.8992   29.1937   -3.4500 H   0  0  0  0  0  0  0  0  0  0  0  0
  -49.1579   25.2458   -1.0282 H   0  0  0  0  0  0  0  0  0  0  0  0
  -41.8997   24.5435    0.3393 H   0  0  0  0  0  0  0  0  0  0  0  0
  -41.4622   25.9850   -0.2912 H   0  0  0  0  0  0  0  0  0  0  0  0
  -41.1592   31.1125   -3.2973 H   0  0  0  0  0  0  0  0  0  0  0  0
  -42.3930   31.0240   -4.3635 H   0  0  0  0  0  0  0  0  0  0  0  0
  -43.9066   31.2838   -2.7858 H   0  0  0  0  0  0  0  0  0  0  0  0
  -42.6713   31.8358   -1.8715 H   0  0  0  0  0  0  0  0  0  0  0  0
  -41.0245   28.9082   -3.1832 H   0  0  0  0  0  0  0  0  0  0  0  0
  -42.0925   28.8350   -4.4164 H   0  0  0  0  0  0  0  0  0  0  0  0
  -43.9892   29.7887   -1.0407 H   0  0  0  0  0  0  0  0  0  0  0  0
  -42.3666   29.7882   -0.8565 H   0  0  0  0  0  0  0  0  0  0  0  0
  -43.8644   28.6415   -3.0335 H   0  0  0  0  0  0  0  0  0  0  0  0
  1  8  1  0  0  0  0
  1 17  1  0  0  0  0
  2 16  2  0  0  0  0
  3 15  1  0  0  0  0
  3 18  1  0  0  0  0
  4 15  2  0  0  0  0
  4 19  1  0  0  0  0
  5  9  1  0  0  0  0
  5 15  1  0  0  0  0
  5 16  1  0  0  0  0
  6  9  1  0  0  0  0
  7 12  3  0  0  0  0
  8 20  2  0  0  0  0
 10 11  1  0  0  0  0
 10 13  1  0  0  0  0
 11 14  1  0  0  0  0
 12 20  1  0  0  0  0
 13 18  1  0  0  0  0
 14 18  1  0  0  0  0
 16 17  1  0  0  0  0
 17 19  2  0  0  0  0
 19 20  1  0  0  0  0
  3 21  1  0  0  0  0
  6 22  1  0  0  0  0
  6 23  1  0  0  0  0
  6 24  1  0  0  0  0
  7 25  1  0  0  0  0
  8 26  1  0  0  0  0
  9 27  1  0  0  0  0
  9 28  1  0  0  0  0
 10 29  1  0  0  0  0
 10 30  1  0  0  0  0
 11 31  1  0  0  0  0
 11 32  1  0  0  0  0
 13 33  1  0  0  0  0
 13 34  1  0  0  0  0
 14 35  1  0  0  0  0
 14 36  1  0  0  0  0
 18 37  1  0  0  0  0
M  END
> <pdb_id>
4PM0

> <uniprot_id>
Q13946

> <usmiles>
S1C=2C(=O)N(C(=NC2C(C#C)=C1)NC3CCCC3)CC

$$$$
33H_A_601
          07202412553D 1   1.00000     0.00000     0
            
 64 66  0  0  0  0            999 V2000
   44.0512   14.3826   57.9017 S   0  0  0  0  0  0  0  0  0  0  0  0
   45.9680   15.7372   56.1391 O   0  0  0  0  0  0  0  0  0  0  0  0
   44.9895   15.2410   54.1495 O   0  0  0  0  0  0  0  0  0  0  0  0
   43.3140   11.4844   54.4038 O   0  0  0  0  0  0  0  0  0  0  0  0
   40.6241    8.9289   52.8295 O   0  0  0  0  0  0  0  0  0  0  0  0
   41.4567   13.1827   51.7893 O   0  0  0  0  0  0  0  0  0  0  0  0
   42.4907   13.6151   54.3306 N   0  0  0  0  0  0  0  0  0  0  0  0
   39.2824   10.8002   52.1234 C   0  0  0  0  0  0  0  0  0  0  0  0
   40.8808   13.2711   62.4477 C   0  0  0  0  0  0  0  0  0  0  0  0
   39.8545   11.3521   61.1576 C   0  0  0  0  0  0  0  0  0  0  0  0
   42.1782   11.1151   62.1208 C   0  0  0  0  0  0  0  0  0  0  0  0
   41.8596   14.5259   52.0609 C   0  0  0  0  0  0  0  0  0  0  0  0
   37.5166   15.7053   54.4686 C   0  0  0  0  0  0  0  0  0  0  0  0
   38.5427   16.8732   54.3782 C   0  0  0  0  0  0  0  0  0  0  0  0
   38.1439   14.3897   55.0136 C   0  0  0  0  0  0  0  0  0  0  0  0
   42.0934   12.9907   59.1548 C   0  0  0  0  0  0  0  0  0  0  0  0
   39.8314   16.4527   53.6178 C   0  0  0  0  0  0  0  0  0  0  0  0
   39.4192   13.9900   54.2322 C   0  0  0  0  0  0  0  0  0  0  0  0
   41.6919   12.5931   60.2224 C   0  0  0  0  0  0  0  0  0  0  0  0
   42.0513   13.1787   56.7186 C   0  0  0  0  0  0  0  0  0  0  0  0
   41.8454   10.7701   51.9383 C   0  0  0  0  0  0  0  0  0  0  0  0
   45.0609   15.2032   55.5091 C   0  0  0  0  0  0  0  0  0  0  0  0
   42.6038   13.4482   57.9366 C   0  0  0  0  0  0  0  0  0  0  0  0
   42.7758   12.4056   53.7612 C   0  0  0  0  0  0  0  0  0  0  0  0
   40.6155   10.3368   52.7352 C   0  0  2  0  0  0  0  0  0  0  0  0
   43.9679   14.4520   56.1522 C   0  0  0  0  0  0  0  0  0  0  0  0
   42.3959   12.1858   52.2571 C   0  0  2  0  0  0  0  0  0  0  0  0
   41.8681   14.7770   53.5973 C   0  0  1  0  0  0  0  0  0  0  0  0
   42.8336   13.8025   55.6993 C   0  0  0  0  0  0  0  0  0  0  0  0
   40.4715   15.1439   54.2000 C   0  0  0  0  0  0  0  0  0  0  0  0
   41.1615   12.0882   61.4938 C   0  0  0  0  0  0  0  0  0  0  0  0
   45.9816   15.6849   57.1376 H   0  0  0  0  0  0  0  0  0  0  0  0
   41.4904    8.6267   53.2272 H   0  0  0  0  0  0  0  0  0  0  0  0
   39.2754   11.7979   52.0562 H   0  0  0  0  0  0  0  0  0  0  0  0
   39.1788   10.4039   51.2111 H   0  0  0  0  0  0  0  0  0  0  0  0
   38.5264   10.4999   52.7051 H   0  0  0  0  0  0  0  0  0  0  0  0
   41.7383   13.7406   62.6579 H   0  0  0  0  0  0  0  0  0  0  0  0
   40.2495   13.9106   62.0090 H   0  0  0  0  0  0  0  0  0  0  0  0
   40.4729   12.9275   63.2936 H   0  0  0  0  0  0  0  0  0  0  0  0
   40.0503   10.5900   60.5404 H   0  0  0  0  0  0  0  0  0  0  0  0
   39.4431   11.0021   61.9992 H   0  0  0  0  0  0  0  0  0  0  0  0
   39.2197   11.9852   60.7146 H   0  0  0  0  0  0  0  0  0  0  0  0
   42.3471   10.3575   61.4902 H   0  0  0  0  0  0  0  0  0  0  0  0
   43.0356   11.5979   62.2990 H   0  0  0  0  0  0  0  0  0  0  0  0
   41.8118   10.7582   62.9801 H   0  0  0  0  0  0  0  0  0  0  0  0
   41.2193   15.1585   51.6252 H   0  0  0  0  0  0  0  0  0  0  0  0
   42.7781   14.6768   51.6953 H   0  0  0  0  0  0  0  0  0  0  0  0
   37.1513   15.5299   53.5544 H   0  0  0  0  0  0  0  0  0  0  0  0
   36.7728   15.9804   55.0777 H   0  0  0  0  0  0  0  0  0  0  0  0
   38.7915   17.1577   55.3040 H   0  0  0  0  0  0  0  0  0  0  0  0
   38.1185   17.6400   53.8965 H   0  0  0  0  0  0  0  0  0  0  0  0
   37.4717   13.6537   54.9331 H   0  0  0  0  0  0  0  0  0  0  0  0
   38.3821   14.5198   55.9761 H   0  0  0  0  0  0  0  0  0  0  0  0
   40.4995   17.1937   53.6845 H   0  0  0  0  0  0  0  0  0  0  0  0
   39.6008   16.2972   52.6573 H   0  0  0  0  0  0  0  0  0  0  0  0
   39.1637   13.7599   53.2932 H   0  0  0  0  0  0  0  0  0  0  0  0
   39.8298   13.1909   54.6714 H   0  0  0  0  0  0  0  0  0  0  0  0
   41.2289   12.6312   56.5640 H   0  0  0  0  0  0  0  0  0  0  0  0
   41.6057   10.7460   50.9677 H   0  0  0  0  0  0  0  0  0  0  0  0
   42.5749   10.1101   52.1179 H   0  0  0  0  0  0  0  0  0  0  0  0
   40.6878   10.7154   53.6580 H   0  0  0  0  0  0  0  0  0  0  0  0
   43.2341   12.3007   51.7239 H   0  0  0  0  0  0  0  0  0  0  0  0
   42.4628   15.5655   53.7543 H   0  0  0  0  0  0  0  0  0  0  0  0
   40.6533   15.3525   55.1610 H   0  0  0  0  0  0  0  0  0  0  0  0
  1 23  1  0  0  0  0
  1 26  1  0  0  0  0
  2 22  1  0  0  0  0
  3 22  2  0  0  0  0
  4 24  2  0  0  0  0
  5 25  1  0  0  0  0
  6 12  1  0  0  0  0
  6 27  1  0  0  0  0
  7 24  1  0  0  0  0
  7 28  1  0  0  0  0
  7 29  1  0  0  0  0
  8 25  1  0  0  0  0
  9 31  1  0  0  0  0
 10 31  1  0  0  0  0
 11 31  1  0  0  0  0
 12 28  1  0  0  0  0
 13 14  1  0  0  0  0
 13 15  1  0  0  0  0
 14 17  1  0  0  0  0
 15 18  1  0  0  0  0
 16 19  3  0  0  0  0
 16 23  1  0  0  0  0
 17 30  1  0  0  0  0
 18 30  1  0  0  0  0
 19 31  1  0  0  0  0
 20 23  2  0  0  0  0
 20 29  1  0  0  0  0
 21 25  1  0  0  0  0
 21 27  1  0  0  0  0
 22 26  1  0  0  0  0
 24 27  1  0  0  0  0
 26 29  2  0  0  0  0
 28 30  1  0  0  0  0
  2 32  1  0  0  0  0
  5 33  1  0  0  0  0
  8 34  1  0  0  0  0
  8 35  1  0  0  0  0
  8 36  1  0  0  0  0
  9 37  1  0  0  0  0
  9 38  1  0  0  0  0
  9 39  1  0  0  0  0
 10 40  1  0  0  0  0
 10 41  1  0  0  0  0
 10 42  1  0  0  0  0
 11 43  1  0  0  0  0
 11 44  1  0  0  0  0
 11 45  1  0  0  0  0
 12 46  1  0  0  0  0
 12 47  1  0  0  0  0
 13 48  1  0  0  0  0
 13 49  1  0  0  0  0
 14 50  1  0  0  0  0
 14 51  1  0  0  0  0
 15 52  1  0  0  0  0
 15 53  1  0  0  0  0
 17 54  1  0  0  0  0
 17 55  1  0  0  0  0
 18 56  1  0  0  0  0
 18 57  1  0  0  0  0
 20 58  1  0  0  0  0
 21 59  1  0  0  0  0
 21 60  1  0  0  0  0
 25 61  1  0  0  0  0
 27 62  1  0  0  0  0
 28 63  1  0  0  0  0
 30 64  1  0  0  0  0
M  END
> <pdb_id>
4TLR

> <uniprot_id>
nan

> <usmiles>
S1C(C#CC(C)(C)C)=CC(N2C(=O)[C@H](OC[C@H]2C3CCCCC3)C[C@H](O)C)=C1C(=O)O

$$$$
33M_D_301
          07202402443D 1   1.00000     0.00000     0
            
 40 43  0  0  0  0            999 V2000
    9.7259   -3.2696   11.6873 N   0  0  0  0  0  0  0  0  0  0  0  0
   10.4981    0.3535   14.5814 N   0  0  0  0  0  0  0  0  0  0  0  0
   13.4437   -0.6379   10.9108 N   0  0  0  0  0  0  0  0  0  0  0  0
   10.0654   -1.4201   13.1743 N   0  0  0  0  0  0  0  0  0  0  0  0
   11.5849   -1.9173   11.4370 N   0  0  0  0  0  0  0  0  0  0  0  0
   14.8172    2.3874   12.4647 N   0  0  0  0  0  0  0  0  0  0  0  0
   14.5309    3.3039   13.6379 C   0  0  0  0  0  0  0  0  0  0  0  0
   14.2607    0.4413   11.2177 C   0  0  0  0  0  0  0  0  0  0  0  0
   15.2482    4.2831    7.7614 C   0  0  0  0  0  0  0  0  0  0  0  0
   14.1349    4.0651    8.6112 C   0  0  0  0  0  0  0  0  0  0  0  0
   18.3005    2.5330   11.1357 C   0  0  0  0  0  0  0  0  0  0  0  0
   17.2061    2.3421   12.0385 C   0  0  0  0  0  0  0  0  0  0  0  0
   16.5568    3.9787    8.1964 C   0  0  0  0  0  0  0  0  0  0  0  0
   18.0993    3.1132    9.8675 C   0  0  0  0  0  0  0  0  0  0  0  0
   14.3683    3.5412    9.8793 C   0  0  0  0  0  0  0  0  0  0  0  0
   12.8406    1.0733   13.0796 C   0  0  0  0  0  0  0  0  0  0  0  0
   10.4450   -2.2057   12.1256 C   0  0  0  0  0  0  0  0  0  0  0  0
   10.8450   -0.3774   13.5337 C   0  0  0  0  0  0  0  0  0  0  0  0
   12.3603   -0.8452   11.7042 C   0  0  0  0  0  0  0  0  0  0  0  0
   13.9843    1.3211   12.2560 C   0  0  0  0  0  0  0  0  0  0  0  0
   15.8990    2.6320   11.6222 C   0  0  0  0  0  0  0  0  0  0  0  0
   16.7856    3.4355    9.4819 C   0  0  0  0  0  0  0  0  0  0  0  0
   12.0162   -0.0199   12.7773 C   0  0  0  0  0  0  0  0  0  0  0  0
   15.6745    3.1891   10.3410 C   0  0  0  0  0  0  0  0  0  0  0  0
   10.0542   -3.8100   10.9126 H   0  0  0  0  0  0  0  0  0  0  0  0
    8.8677   -3.5133   12.1390 H   0  0  0  0  0  0  0  0  0  0  0  0
   11.0651    1.1287   14.8600 H   0  0  0  0  0  0  0  0  0  0  0  0
    9.6692    0.1305   15.0943 H   0  0  0  0  0  0  0  0  0  0  0  0
   15.2152    4.0326   13.6663 H   0  0  0  0  0  0  0  0  0  0  0  0
   13.6209    3.7051   13.5331 H   0  0  0  0  0  0  0  0  0  0  0  0
   14.5678    2.7786   14.4880 H   0  0  0  0  0  0  0  0  0  0  0  0
   15.0826    0.5916   10.6682 H   0  0  0  0  0  0  0  0  0  0  0  0
   15.1056    4.6563    6.8447 H   0  0  0  0  0  0  0  0  0  0  0  0
   13.2070    4.2817    8.3078 H   0  0  0  0  0  0  0  0  0  0  0  0
   19.2201    2.2507   11.4088 H   0  0  0  0  0  0  0  0  0  0  0  0
   17.3735    2.0028   12.9641 H   0  0  0  0  0  0  0  0  0  0  0  0
   17.3315    4.1495    7.5876 H   0  0  0  0  0  0  0  0  0  0  0  0
   18.8710    3.2914    9.2570 H   0  0  0  0  0  0  0  0  0  0  0  0
   13.5903    3.4055   10.4927 H   0  0  0  0  0  0  0  0  0  0  0  0
   12.6333    1.6684   13.8560 H   0  0  0  0  0  0  0  0  0  0  0  0
  1 17  1  0  0  0  0
  2 18  1  0  0  0  0
  3  8  2  0  0  0  0
  3 19  1  0  0  0  0
  4 17  2  0  0  0  0
  4 18  1  0  0  0  0
  5 17  1  0  0  0  0
  5 19  2  0  0  0  0
  6  7  1  0  0  0  0
  6 20  1  0  0  0  0
  6 21  1  0  0  0  0
  8 20  1  0  0  0  0
  9 10  2  0  0  0  0
  9 13  1  0  0  0  0
 10 15  1  0  0  0  0
 11 12  1  0  0  0  0
 11 14  2  0  0  0  0
 12 21  2  0  0  0  0
 13 22  2  0  0  0  0
 14 22  1  0  0  0  0
 15 24  2  0  0  0  0
 16 20  2  0  0  0  0
 16 23  1  0  0  0  0
 18 23  2  0  0  0  0
 19 23  1  0  0  0  0
 21 24  1  0  0  0  0
 22 24  1  0  0  0  0
  1 25  1  0  0  0  0
  1 26  1  0  0  0  0
  2 27  1  0  0  0  0
  2 28  1  0  0  0  0
  7 29  1  0  0  0  0
  7 30  1  0  0  0  0
  7 31  1  0  0  0  0
  8 32  1  0  0  0  0
  9 33  1  0  0  0  0
 10 34  1  0  0  0  0
 11 35  1  0  0  0  0
 12 36  1  0  0  0  0
 13 37  1  0  0  0  0
 14 38  1  0  0  0  0
 15 39  1  0  0  0  0
 16 40  1  0  0  0  0
M  END
> <pdb_id>
4QJZ

> <uniprot_id>
P16184

> <usmiles>
n1c(nc(N)c2c1ncc(N(c3c4c(ccc3)cccc4)C)c2)N

$$$$
33U_H_2501
          07202416143D 1   1.00000     0.00000     0
            
 66 69  0  0  0  0            999 V2000
   11.7776  -13.5904   15.4819 O   0  0  0  0  0  0  0  0  0  0  0  0
   11.7372  -13.6871   12.3111 O   0  0  0  0  0  0  0  0  0  0  0  0
   18.3276  -12.3019   11.2154 N   0  0  0  0  0  0  0  0  0  0  0  0
   17.9483  -10.0900   10.9029 N   0  0  0  0  0  0  0  0  0  0  0  0
   12.0663  -16.5179   12.1260 N   0  0  0  0  0  0  0  0  0  0  0  0
   12.1018  -11.4340   14.7719 N   0  0  0  0  0  0  0  0  0  0  0  0
    9.9240  -13.9853   13.6099 N   0  0  0  0  0  0  0  0  0  0  0  0
   13.3844  -11.3880   15.5320 C   0  0  0  0  0  0  0  0  0  0  0  0
    9.0193  -14.8735   14.3545 C   0  0  0  0  0  0  0  0  0  0  0  0
    8.0259  -13.7650   14.8160 C   0  0  0  0  0  0  0  0  0  0  0  0
   10.2023  -19.2340    8.1857 C   0  0  0  0  0  0  0  0  0  0  0  0
    6.4016  -13.6605   10.3148 C   0  0  0  0  0  0  0  0  0  0  0  0
    9.8699  -19.2515    9.5399 C   0  0  0  0  0  0  0  0  0  0  0  0
   10.5755  -18.0526    7.5549 C   0  0  0  0  0  0  0  0  0  0  0  0
    6.5661  -14.8173   11.0606 C   0  0  0  0  0  0  0  0  0  0  0  0
    7.5031  -13.1229    9.6374 C   0  0  0  0  0  0  0  0  0  0  0  0
    8.9798  -12.6408   15.2850 C   0  0  0  0  0  0  0  0  0  0  0  0
    9.9121  -18.0598   10.2794 C   0  0  0  0  0  0  0  0  0  0  0  0
   10.6166  -16.8639    8.2933 C   0  0  0  0  0  0  0  0  0  0  0  0
    7.8096  -15.4654   11.1518 C   0  0  0  0  0  0  0  0  0  0  0  0
    8.7387  -13.7668    9.7296 C   0  0  0  0  0  0  0  0  0  0  0  0
   14.9353  -12.4079   13.8418 C   0  0  0  0  0  0  0  0  0  0  0  0
   15.1114  -10.0474   14.1682 C   0  0  0  0  0  0  0  0  0  0  0  0
   15.9426  -12.3888   12.8873 C   0  0  0  0  0  0  0  0  0  0  0  0
   16.1319  -10.0144   13.2027 C   0  0  0  0  0  0  0  0  0  0  0  0
   17.6553  -11.1671   11.5098 C   0  0  0  0  0  0  0  0  0  0  0  0
   11.4236  -12.5952   14.8652 C   0  0  0  0  0  0  0  0  0  0  0  0
   10.8122  -14.4190   12.6743 C   0  0  0  0  0  0  0  0  0  0  0  0
   10.7628  -15.7871   12.0089 C   0  0  1  0  0  0  0  0  0  0  0  0
   10.0706  -12.6468   14.1717 C   0  0  1  0  0  0  0  0  0  0  0  0
   14.5013  -11.2646   14.4946 C   0  0  0  0  0  0  0  0  0  0  0  0
   16.5567  -11.1717   12.5579 C   0  0  0  0  0  0  0  0  0  0  0  0
   10.2864  -16.8665    9.6526 C   0  0  0  0  0  0  0  0  0  0  0  0
    8.9121  -14.9308   10.4755 C   0  0  0  0  0  0  0  0  0  0  0  0
   10.3076  -15.5943   10.5354 C   0  0  0  0  0  0  0  0  0  0  0  0
   18.1025  -13.1535   11.6889 H   0  0  0  0  0  0  0  0  0  0  0  0
   19.0500  -12.2901   10.5241 H   0  0  0  0  0  0  0  0  0  0  0  0
   17.4552   -9.2464   11.1155 H   0  0  0  0  0  0  0  0  0  0  0  0
   11.9907  -17.4084   11.6774 H   0  0  0  0  0  0  0  0  0  0  0  0
   12.7886  -15.9837   11.6868 H   0  0  0  0  0  0  0  0  0  0  0  0
   11.7695  -10.6602   14.2327 H   0  0  0  0  0  0  0  0  0  0  0  0
   13.4998  -12.2258   16.0656 H   0  0  0  0  0  0  0  0  0  0  0  0
   13.3942  -10.5982   16.1453 H   0  0  0  0  0  0  0  0  0  0  0  0
    9.4719  -15.3280   15.1216 H   0  0  0  0  0  0  0  0  0  0  0  0
    8.5859  -15.5590   13.7695 H   0  0  0  0  0  0  0  0  0  0  0  0
    7.4483  -14.0862   15.5665 H   0  0  0  0  0  0  0  0  0  0  0  0
    7.4489  -13.4580   14.0591 H   0  0  0  0  0  0  0  0  0  0  0  0
   10.1717  -20.0842    7.6602 H   0  0  0  0  0  0  0  0  0  0  0  0
    5.5077  -13.2155   10.2611 H   0  0  0  0  0  0  0  0  0  0  0  0
    9.6032  -20.1083    9.9813 H   0  0  0  0  0  0  0  0  0  0  0  0
   10.8123  -18.0519    6.5833 H   0  0  0  0  0  0  0  0  0  0  0  0
    5.7801  -15.2003   11.5459 H   0  0  0  0  0  0  0  0  0  0  0  0
    7.4061  -12.2885    9.0948 H   0  0  0  0  0  0  0  0  0  0  0  0
    9.3741  -12.8500   16.1798 H   0  0  0  0  0  0  0  0  0  0  0  0
    8.5087  -11.7596   15.3260 H   0  0  0  0  0  0  0  0  0  0  0  0
    9.6753  -18.0635   11.2510 H   0  0  0  0  0  0  0  0  0  0  0  0
   10.8831  -16.0095    7.8473 H   0  0  0  0  0  0  0  0  0  0  0  0
    7.9058  -16.2999   11.6944 H   0  0  0  0  0  0  0  0  0  0  0  0
    9.5236  -13.3805    9.2452 H   0  0  0  0  0  0  0  0  0  0  0  0
   14.5052  -13.2819   14.0679 H   0  0  0  0  0  0  0  0  0  0  0  0
   14.8217   -9.2041   14.6207 H   0  0  0  0  0  0  0  0  0  0  0  0
   16.2281  -13.2355   12.4383 H   0  0  0  0  0  0  0  0  0  0  0  0
   16.5618   -9.1409   12.9744 H   0  0  0  0  0  0  0  0  0  0  0  0
   10.0648  -16.3296   12.4762 H   0  0  0  0  0  0  0  0  0  0  0  0
    9.9470  -11.9204   13.4956 H   0  0  0  0  0  0  0  0  0  0  0  0
   10.9517  -14.9569   10.1125 H   0  0  0  0  0  0  0  0  0  0  0  0
  1 27  2  0  0  0  0
  2 28  2  0  0  0  0
  3 26  1  0  0  0  0
  4 26  2  0  0  0  0
  5 29  1  0  0  0  0
  6  8  1  0  0  0  0
  6 27  1  0  0  0  0
  7  9  1  0  0  0  0
  7 28  1  0  0  0  0
  7 30  1  0  0  0  0
  8 31  1  0  0  0  0
  9 10  1  0  0  0  0
 10 17  1  0  0  0  0
 11 13  2  0  0  0  0
 11 14  1  0  0  0  0
 12 15  2  0  0  0  0
 12 16  1  0  0  0  0
 13 18  1  0  0  0  0
 14 19  2  0  0  0  0
 15 20  1  0  0  0  0
 16 21  2  0  0  0  0
 17 30  1  0  0  0  0
 18 33  2  0  0  0  0
 19 33  1  0  0  0  0
 20 34  2  0  0  0  0
 21 34  1  0  0  0  0
 22 24  1  0  0  0  0
 22 31  2  0  0  0  0
 23 25  2  0  0  0  0
 23 31  1  0  0  0  0
 24 32  2  0  0  0  0
 25 32  1  0  0  0  0
 26 32  1  0  0  0  0
 27 30  1  0  0  0  0
 28 29  1  0  0  0  0
 29 35  1  0  0  0  0
 33 35  1  0  0  0  0
 34 35  1  0  0  0  0
  3 36  1  0  0  0  0
  3 37  1  0  0  0  0
  4 38  1  0  0  0  0
  5 39  1  0  0  0  0
  5 40  1  0  0  0  0
  6 41  1  0  0  0  0
  8 42  1  0  0  0  0
  8 43  1  0  0  0  0
  9 44  1  0  0  0  0
  9 45  1  0  0  0  0
 10 46  1  0  0  0  0
 10 47  1  0  0  0  0
 11 48  1  0  0  0  0
 12 49  1  0  0  0  0
 13 50  1  0  0  0  0
 14 51  1  0  0  0  0
 15 52  1  0  0  0  0
 16 53  1  0  0  0  0
 17 54  1  0  0  0  0
 17 55  1  0  0  0  0
 18 56  1  0  0  0  0
 19 57  1  0  0  0  0
 20 58  1  0  0  0  0
 21 59  1  0  0  0  0
 22 60  1  0  0  0  0
 23 61  1  0  0  0  0
 24 62  1  0  0  0  0
 25 63  1  0  0  0  0
 29 64  1  0  0  0  0
 30 65  1  0  0  0  0
 35 66  1  0  0  0  0
M  END
> <pdb_id>
2ZO3

> <uniprot_id>
P00734

> <usmiles>
O=C(N1[C@H](C(=O)NCc2ccc(cc2)C(=N)N)CCC1)[C@H](N)C(c3ccccc3)c4ccccc4

$$$$
348_H_1247
          07202416143D 1   1.00000     0.00000     0
            
 67 71  0  0  0  0            999 V2000
   12.4163  -13.2509   12.9250 O   0  0  0  0  0  0  0  0  0  0  0  0
    6.9668  -13.6728    9.3698 O   0  0  0  0  0  0  0  0  0  0  0  0
   18.4784  -12.2908   11.3318 N   0  0  0  0  0  0  0  0  0  0  0  0
   17.9064  -10.1166   10.8891 N   0  0  0  0  0  0  0  0  0  0  0  0
   10.8210  -13.8770   14.3919 N   0  0  0  0  0  0  0  0  0  0  0  0
   13.5545  -12.5757   16.5459 N   0  0  0  0  0  0  0  0  0  0  0  0
    7.4135  -12.7521    8.3664 C   0  0  0  0  0  0  0  0  0  0  0  0
    8.1142  -12.7856   17.0023 C   0  0  0  0  0  0  0  0  0  0  0  0
    8.4830  -11.8149   14.7483 C   0  0  0  0  0  0  0  0  0  0  0  0
   14.4498  -12.0553   17.6040 C   0  0  0  0  0  0  0  0  0  0  0  0
   10.3462  -15.1122   13.7288 C   0  0  0  0  0  0  0  0  0  0  0  0
   13.6498  -12.0595   18.9145 C   0  0  0  0  0  0  0  0  0  0  0  0
   12.1826  -12.1315   18.5005 C   0  0  0  0  0  0  0  0  0  0  0  0
    7.2293  -14.2912   11.6714 C   0  0  0  0  0  0  0  0  0  0  0  0
    9.1625  -14.1354   10.2328 C   0  0  0  0  0  0  0  0  0  0  0  0
    8.0700  -14.6514   12.7317 C   0  0  0  0  0  0  0  0  0  0  0  0
    9.9981  -14.4917   11.2913 C   0  0  0  0  0  0  0  0  0  0  0  0
   16.3595  -12.5125   13.2656 C   0  0  0  0  0  0  0  0  0  0  0  0
   15.7423  -10.2255   12.8121 C   0  0  0  0  0  0  0  0  0  0  0  0
   15.3179  -12.5936   14.1977 C   0  0  0  0  0  0  0  0  0  0  0  0
   14.6987  -10.3126   13.7441 C   0  0  0  0  0  0  0  0  0  0  0  0
   11.7862  -13.0576   13.9572 C   0  0  0  0  0  0  0  0  0  0  0  0
   17.6877  -11.2343   11.5550 C   0  0  0  0  0  0  0  0  0  0  0  0
    7.7814  -14.0261   10.4175 C   0  0  0  0  0  0  0  0  0  0  0  0
   12.2185  -12.8168   17.1381 C   0  0  1  0  0  0  0  0  0  0  0  0
   10.2422  -13.4891   15.7013 C   0  0  2  0  0  0  0  0  0  0  0  0
   13.3643  -11.5807   15.4450 C   0  0  1  0  0  0  0  0  0  0  0  0
    8.7579  -13.0291   15.6361 C   0  0  0  0  0  0  0  0  0  0  0  0
    9.4511  -14.7519   12.5552 C   0  0  0  0  0  0  0  0  0  0  0  0
   16.5710  -11.3173   12.5649 C   0  0  0  0  0  0  0  0  0  0  0  0
   14.4772  -11.5069   14.4439 C   0  0  0  0  0  0  0  0  0  0  0  0
   11.9597  -11.8880   14.8869 C   0  0  2  0  0  0  0  0  0  0  0  0
   11.1821  -12.3440   16.1197 C   0  0  2  0  0  0  0  0  0  0  0  0
   18.3244  -13.1445   11.8292 H   0  0  0  0  0  0  0  0  0  0  0  0
   19.2232  -12.2265   10.6676 H   0  0  0  0  0  0  0  0  0  0  0  0
   17.3236   -9.3192   11.0456 H   0  0  0  0  0  0  0  0  0  0  0  0
    6.6889  -12.6186    7.6903 H   0  0  0  0  0  0  0  0  0  0  0  0
    7.6365  -11.8759    8.7936 H   0  0  0  0  0  0  0  0  0  0  0  0
    8.2268  -13.1195    7.9153 H   0  0  0  0  0  0  0  0  0  0  0  0
    8.2850  -13.5719   17.5961 H   0  0  0  0  0  0  0  0  0  0  0  0
    8.5084  -11.9644   17.4149 H   0  0  0  0  0  0  0  0  0  0  0  0
    7.1284  -12.6614   16.8889 H   0  0  0  0  0  0  0  0  0  0  0  0
    8.8978  -11.9581   13.8498 H   0  0  0  0  0  0  0  0  0  0  0  0
    7.4957  -11.6947   14.6443 H   0  0  0  0  0  0  0  0  0  0  0  0
    8.8756  -10.9977   15.1703 H   0  0  0  0  0  0  0  0  0  0  0  0
   14.7388  -11.1241   17.3815 H   0  0  0  0  0  0  0  0  0  0  0  0
   15.2547  -12.6421   17.6916 H   0  0  0  0  0  0  0  0  0  0  0  0
    9.8295  -15.6635   14.3839 H   0  0  0  0  0  0  0  0  0  0  0  0
   11.1319  -15.6356   13.3992 H   0  0  0  0  0  0  0  0  0  0  0  0
   13.8254  -11.2228   19.4332 H   0  0  0  0  0  0  0  0  0  0  0  0
   13.8949  -12.8539   19.4703 H   0  0  0  0  0  0  0  0  0  0  0  0
   11.7882  -11.2154   18.4275 H   0  0  0  0  0  0  0  0  0  0  0  0
   11.6540  -12.6707   19.1561 H   0  0  0  0  0  0  0  0  0  0  0  0
    6.2414  -14.2245   11.8116 H   0  0  0  0  0  0  0  0  0  0  0  0
    9.5561  -13.9561    9.3312 H   0  0  0  0  0  0  0  0  0  0  0  0
    7.6744  -14.8399   13.6305 H   0  0  0  0  0  0  0  0  0  0  0  0
   10.9855  -14.5613   11.1486 H   0  0  0  0  0  0  0  0  0  0  0  0
   16.9493  -13.3030   13.1007 H   0  0  0  0  0  0  0  0  0  0  0  0
   15.8935   -9.3690   12.3186 H   0  0  0  0  0  0  0  0  0  0  0  0
   15.1733  -13.4477   14.6974 H   0  0  0  0  0  0  0  0  0  0  0  0
   14.1109   -9.5209   13.9102 H   0  0  0  0  0  0  0  0  0  0  0  0
   12.1042  -13.8009   17.2743 H   0  0  0  0  0  0  0  0  0  0  0  0
   10.3305  -14.2486   16.3458 H   0  0  0  0  0  0  0  0  0  0  0  0
   13.3094  -10.6812   15.8786 H   0  0  0  0  0  0  0  0  0  0  0  0
    8.2529  -13.7887   15.2262 H   0  0  0  0  0  0  0  0  0  0  0  0
   11.5484  -11.0644   14.4965 H   0  0  0  0  0  0  0  0  0  0  0  0
   10.6528  -11.5829   16.4944 H   0  0  0  0  0  0  0  0  0  0  0  0
  1 22  2  0  0  0  0
  2  7  1  0  0  0  0
  2 24  1  0  0  0  0
  3 23  1  0  0  0  0
  4 23  2  0  0  0  0
  5 11  1  0  0  0  0
  5 22  1  0  0  0  0
  5 26  1  0  0  0  0
  6 10  1  0  0  0  0
  6 25  1  0  0  0  0
  6 27  1  0  0  0  0
  8 28  1  0  0  0  0
  9 28  1  0  0  0  0
 10 12  1  0  0  0  0
 11 29  1  0  0  0  0
 12 13  1  0  0  0  0
 13 25  1  0  0  0  0
 14 16  2  0  0  0  0
 14 24  1  0  0  0  0
 15 17  1  0  0  0  0
 15 24  2  0  0  0  0
 16 29  1  0  0  0  0
 17 29  2  0  0  0  0
 18 20  1  0  0  0  0
 18 30  2  0  0  0  0
 19 21  2  0  0  0  0
 19 30  1  0  0  0  0
 20 31  2  0  0  0  0
 21 31  1  0  0  0  0
 22 32  1  0  0  0  0
 23 30  1  0  0  0  0
 25 33  1  0  0  0  0
 26 28  1  0  0  0  0
 26 33  1  0  0  0  0
 27 31  1  0  0  0  0
 27 32  1  0  0  0  0
 32 33  1  0  0  0  0
  3 34  1  0  0  0  0
  3 35  1  0  0  0  0
  4 36  1  0  0  0  0
  7 37  1  0  0  0  0
  7 38  1  0  0  0  0
  7 39  1  0  0  0  0
  8 40  1  0  0  0  0
  8 41  1  0  0  0  0
  8 42  1  0  0  0  0
  9 43  1  0  0  0  0
  9 44  1  0  0  0  0
  9 45  1  0  0  0  0
 10 46  1  0  0  0  0
 10 47  1  0  0  0  0
 11 48  1  0  0  0  0
 11 49  1  0  0  0  0
 12 50  1  0  0  0  0
 12 51  1  0  0  0  0
 13 52  1  0  0  0  0
 13 53  1  0  0  0  0
 14 54  1  0  0  0  0
 15 55  1  0  0  0  0
 16 56  1  0  0  0  0
 17 57  1  0  0  0  0
 18 58  1  0  0  0  0
 19 59  1  0  0  0  0
 20 60  1  0  0  0  0
 21 61  1  0  0  0  0
 25 62  1  0  0  0  0
 26 63  1  0  0  0  0
 27 64  1  0  0  0  0
 28 65  1  0  0  0  0
 32 66  1  0  0  0  0
 33 67  1  0  0  0  0
M  END
> <pdb_id>
2CF9

> <uniprot_id>
P00734

> <usmiles>
O=C1N([C@@H]([C@H]2[C@H]3N([C@@H](c4ccc(cc4)C(=N)N)[C@@H]12)CCC3)C(C)C)Cc5ccc(OC)cc5

$$$$
34F_A_1390
          07192418183D 1   1.00000     0.00000     0
            
 31 31  0  0  0  0            999 V2000
    7.9500   -4.0150    4.2210 Cl  0  0  0  0  0  0  0  0  0  0  0  0
   10.2330   -2.1340    5.3380 Cl  0  0  0  0  0  0  0  0  0  0  0  0
   14.4010   -5.6130    1.6410 P   0  0  0  0  0  0  0  0  0  0  0  0
   15.6410   -5.3190    0.8450 O   0  0  0  0  0  0  0  0  0  0  0  0
   14.7150   -5.9410    3.0850 O   0  0  0  0  0  0  0  0  0  0  0  0
   13.6070   -6.6940    0.9750 O   0  0  0  0  0  0  0  0  0  0  0  0
   15.0600   -0.9020    0.5310 O   0  0  0  0  0  0  0  0  0  0  0  0
   14.1900    0.2970    2.6990 O   0  0  0  0  0  0  0  0  0  0  0  0
   13.8090   -1.1490    1.0980 N   0  0  0  0  0  0  0  0  0  0  0  0
   13.4600   -0.5390    2.1590 C   0  0  0  0  0  0  0  0  0  0  0  0
   12.8990   -2.0940    0.4380 C   0  0  0  0  0  0  0  0  0  0  0  0
   13.5330   -3.4970    0.3650 C   0  0  0  0  0  0  0  0  0  0  0  0
    9.8490   -4.9820    2.4130 C   0  0  0  0  0  0  0  0  0  0  0  0
   11.1370   -5.0330    1.8390 C   0  0  0  0  0  0  0  0  0  0  0  0
   11.8850   -3.3230    3.3960 C   0  0  0  0  0  0  0  0  0  0  0  0
    9.5860   -4.0970    3.4820 C   0  0  0  0  0  0  0  0  0  0  0  0
   10.6030   -3.2620    3.9730 C   0  0  0  0  0  0  0  0  0  0  0  0
   13.5850   -4.2000    1.7250 C   0  0  1  0  0  0  0  0  0  0  0  0
   12.1750   -4.2110    2.3310 C   0  0  0  0  0  0  0  0  0  0  0  0
   15.3887   -5.1082   -0.0994 H   0  0  0  0  0  0  0  0  0  0  0  0
   13.8647   -6.1293    3.5765 H   0  0  0  0  0  0  0  0  0  0  0  0
   15.1697   -1.4610   -0.2909 H   0  0  0  0  0  0  0  0  0  0  0  0
   12.5698   -0.7426    2.5664 H   0  0  0  0  0  0  0  0  0  0  0  0
   12.7064   -1.7718   -0.4889 H   0  0  0  0  0  0  0  0  0  0  0  0
   12.0458   -2.1456    0.9570 H   0  0  0  0  0  0  0  0  0  0  0  0
   14.4660   -3.4077    0.0163 H   0  0  0  0  0  0  0  0  0  0  0  0
   12.9945   -4.0580   -0.2637 H   0  0  0  0  0  0  0  0  0  0  0  0
    9.1220   -5.5727    2.0628 H   0  0  0  0  0  0  0  0  0  0  0  0
   11.3164   -5.6561    1.0777 H   0  0  0  0  0  0  0  0  0  0  0  0
   12.6073   -2.7263    3.7455 H   0  0  0  0  0  0  0  0  0  0  0  0
   14.1303   -3.6063    2.3168 H   0  0  0  0  0  0  0  0  0  0  0  0
  1 16  1  0  0  0  0
  2 17  1  0  0  0  0
  3  4  1  0  0  0  0
  3  5  1  0  0  0  0
  3  6  2  0  0  0  0
  3 18  1  0  0  0  0
  7  9  1  0  0  0  0
  8 10  2  0  0  0  0
  9 10  1  0  0  0  0
  9 11  1  0  0  0  0
 11 12  1  0  0  0  0
 12 18  1  0  0  0  0
 13 14  2  0  0  0  0
 13 16  1  0  0  0  0
 14 19  1  0  0  0  0
 15 17  1  0  0  0  0
 15 19  2  0  0  0  0
 16 17  2  0  0  0  0
 18 19  1  0  0  0  0
  4 20  1  0  0  0  0
  5 21  1  0  0  0  0
  7 22  1  0  0  0  0
 10 23  1  0  0  0  0
 11 24  1  0  0  0  0
 11 25  1  0  0  0  0
 12 26  1  0  0  0  0
 12 27  1  0  0  0  0
 13 28  1  0  0  0  0
 14 29  1  0  0  0  0
 15 30  1  0  0  0  0
 18 31  1  0  0  0  0
M  END
> <pdb_id>
2Y1F

> <uniprot_id>
A2VLK3

> <usmiles>
Clc1c(Cl)ccc(c1)[C@@H](P(=O)(O)O)CCN(O)C=O

$$$$
34O_A_3000
          07202403123D 1   1.00000     0.00000     0
            
 38 41  0  0  0  0            999 V2000
   36.6286   11.1314   30.4185 S   0  0  0  0  0  0  0  0  0  0  0  0
   40.6140    7.1549   30.2590 F   0  0  0  0  0  0  0  0  0  0  0  0
   39.5413    5.3282   32.3539 O   0  0  0  0  0  0  0  0  0  0  0  0
   41.7355    8.1125   37.1903 O   0  0  0  0  0  0  0  0  0  0  0  0
   41.4307    7.3157   35.0403 O   0  0  0  0  0  0  0  0  0  0  0  0
   38.1342   10.3667   32.4852 O   0  0  0  0  0  0  0  0  0  0  0  0
   36.7130   12.0925   32.8496 N   0  0  0  0  0  0  0  0  0  0  0  0
   37.4159   11.8208   34.0507 N   0  0  0  0  0  0  0  0  0  0  0  0
   40.8943    5.5077   32.7789 C   0  0  0  0  0  0  0  0  0  0  0  0
   42.1576    7.0922   36.2629 C   0  0  0  0  0  0  0  0  0  0  0  0
   36.2638    9.4316   30.0153 C   0  0  0  0  0  0  0  0  0  0  0  0
   37.4610    6.4915   32.1579 C   0  0  0  0  0  0  0  0  0  0  0  0
   40.1803   10.0432   37.0090 C   0  0  0  0  0  0  0  0  0  0  0  0
   36.6760    7.4887   31.5845 C   0  0  0  0  0  0  0  0  0  0  0  0
   39.3262   10.6640   36.0942 C   0  0  0  0  0  0  0  0  0  0  0  0
   38.5024    8.2286   30.1656 C   0  0  0  0  0  0  0  0  0  0  0  0
   39.8091    9.0495   34.3179 C   0  0  0  0  0  0  0  0  0  0  0  0
   37.1232   11.2581   31.9843 C   0  0  0  0  0  0  0  0  0  0  0  0
   38.2148   10.8545   33.8351 C   0  0  0  0  0  0  0  0  0  0  0  0
   39.3420    7.2516   30.7060 C   0  0  0  0  0  0  0  0  0  0  0  0
   38.7927    6.3315   31.7641 C   0  0  0  0  0  0  0  0  0  0  0  0
   40.8531    8.9235   36.5600 C   0  0  0  0  0  0  0  0  0  0  0  0
   40.6593    8.4160   35.2065 C   0  0  0  0  0  0  0  0  0  0  0  0
   37.1797    8.3573   30.6047 C   0  0  0  0  0  0  0  0  0  0  0  0
   39.1496   10.1871   34.7902 C   0  0  0  0  0  0  0  0  0  0  0  0
   41.2352    4.6550   33.1748 H   0  0  0  0  0  0  0  0  0  0  0  0
   41.4597    5.7601   31.9936 H   0  0  0  0  0  0  0  0  0  0  0  0
   40.9345    6.2335   33.4656 H   0  0  0  0  0  0  0  0  0  0  0  0
   41.9461    6.1858   36.6285 H   0  0  0  0  0  0  0  0  0  0  0  0
   43.1411    7.1635   36.0967 H   0  0  0  0  0  0  0  0  0  0  0  0
   36.3011    9.3446   29.0197 H   0  0  0  0  0  0  0  0  0  0  0  0
   35.3347    9.2408   30.3320 H   0  0  0  0  0  0  0  0  0  0  0  0
   37.0709    5.8882   32.8535 H   0  0  0  0  0  0  0  0  0  0  0  0
   40.2982   10.3908   37.9392 H   0  0  0  0  0  0  0  0  0  0  0  0
   35.7257    7.5885   31.8796 H   0  0  0  0  0  0  0  0  0  0  0  0
   38.8226   11.4788   36.3816 H   0  0  0  0  0  0  0  0  0  0  0  0
   38.8503    8.8427   29.4572 H   0  0  0  0  0  0  0  0  0  0  0  0
   39.6736    8.7110   33.3867 H   0  0  0  0  0  0  0  0  0  0  0  0
  1 11  1  0  0  0  0
  1 18  1  0  0  0  0
  2 20  1  0  0  0  0
  3  9  1  0  0  0  0
  3 21  1  0  0  0  0
  4 10  1  0  0  0  0
  4 22  1  0  0  0  0
  5 10  1  0  0  0  0
  5 23  1  0  0  0  0
  6 18  1  0  0  0  0
  6 19  1  0  0  0  0
  7  8  1  0  0  0  0
  7 18  2  0  0  0  0
  8 19  2  0  0  0  0
 11 24  1  0  0  0  0
 12 14  2  0  0  0  0
 12 21  1  0  0  0  0
 13 15  1  0  0  0  0
 13 22  2  0  0  0  0
 14 24  1  0  0  0  0
 15 25  2  0  0  0  0
 16 20  1  0  0  0  0
 16 24  2  0  0  0  0
 17 23  2  0  0  0  0
 17 25  1  0  0  0  0
 19 25  1  0  0  0  0
 20 21  2  0  0  0  0
 22 23  1  0  0  0  0
  9 26  1  0  0  0  0
  9 27  1  0  0  0  0
  9 28  1  0  0  0  0
 10 29  1  0  0  0  0
 10 30  1  0  0  0  0
 11 31  1  0  0  0  0
 11 32  1  0  0  0  0
 12 33  1  0  0  0  0
 13 34  1  0  0  0  0
 14 35  1  0  0  0  0
 15 36  1  0  0  0  0
 16 37  1  0  0  0  0
 17 38  1  0  0  0  0
M  END
> <pdb_id>
3F7Z

> <uniprot_id>
P49841

> <usmiles>
S(C=1OC(=NN1)c2cc3OCOc3cc2)Cc4cc(F)c(OC)cc4

$$$$
35B_A_307
          07202400393D 1   1.00000     0.00000     0
            
 54 56  0  0  0  0            999 V2000
   47.6254   12.9210    4.0140 Br  0  0  0  0  0  0  0  0  0  0  0  0
   44.7769   14.0239    0.8481 S   0  0  0  0  0  0  0  0  0  0  0  0
   46.9661   17.3358    5.8719 O   0  0  0  0  0  0  0  0  0  0  0  0
   48.9902   17.9046    4.9976 O   0  0  0  0  0  0  0  0  0  0  0  0
   44.1579   17.4796    2.6609 O   0  0  0  0  0  0  0  0  0  0  0  0
   43.9175   16.8850    0.4872 O   0  0  0  0  0  0  0  0  0  0  0  0
   51.0281    9.1929   -0.1177 O   0  0  0  0  0  0  0  0  0  0  0  0
   46.3030   15.8672    3.9213 O   0  0  0  0  0  0  0  0  0  0  0  0
   49.4465   10.5691   -1.0470 N   0  0  0  0  0  0  0  0  0  0  0  0
   48.8704    9.2109    0.7989 N   0  0  0  0  0  0  0  0  0  0  0  0
   50.3271   11.1087   -2.0572 C   0  0  0  0  0  0  0  0  0  0  0  0
   47.5598   16.5269    3.7091 C   0  0  0  0  0  0  0  0  0  0  0  0
   48.7473    6.0432    3.8435 C   0  0  0  0  0  0  0  0  0  0  0  0
   48.2387    5.9137    2.4084 C   0  0  0  0  0  0  0  0  0  0  0  0
   48.9360    7.4976    4.2702 C   0  0  0  0  0  0  0  0  0  0  0  0
   45.1824    9.6136    0.2179 C   0  0  0  0  0  0  0  0  0  0  0  0
   49.0516    6.7408    1.4132 C   0  0  0  0  0  0  0  0  0  0  0  0
   48.4692    8.4763    3.1925 C   0  0  0  0  0  0  0  0  0  0  0  0
   46.4542    9.0385    0.2434 C   0  0  0  0  0  0  0  0  0  0  0  0
   44.9759   10.9050    0.7011 C   0  0  0  0  0  0  0  0  0  0  0  0
   47.3213   11.0642    1.2365 C   0  0  0  0  0  0  0  0  0  0  0  0
   47.8634   17.3334    4.9801 C   0  0  0  0  0  0  0  0  0  0  0  0
   44.3035   16.6912    1.6813 C   0  0  0  0  0  0  0  0  0  0  0  0
   49.8716    9.6218   -0.1176 C   0  0  0  0  0  0  0  0  0  0  0  0
   46.4005   13.6702    2.7842 C   0  0  0  0  0  0  0  0  0  0  0  0
   45.0446   15.3281    1.9170 C   0  0  0  0  0  0  0  0  0  0  0  0
   45.8453   13.0005    1.7138 C   0  0  0  0  0  0  0  0  0  0  0  0
   45.9179   15.0024    2.9388 C   0  0  0  0  0  0  0  0  0  0  0  0
   49.1872    8.2096    1.8614 C   0  0  0  0  0  0  0  0  0  0  0  0
   47.5406    9.7616    0.7544 C   0  0  0  0  0  0  0  0  0  0  0  0
   46.0474   11.6423    1.2120 C   0  0  0  0  0  0  0  0  0  0  0  0
   46.1130   16.8354    5.7241 H   0  0  0  0  0  0  0  0  0  0  0  0
   44.5031   17.2240    3.5639 H   0  0  0  0  0  0  0  0  0  0  0  0
   48.4988   10.8865   -1.0135 H   0  0  0  0  0  0  0  0  0  0  0  0
   49.8268   11.7689   -2.6175 H   0  0  0  0  0  0  0  0  0  0  0  0
   51.1006   11.5642   -1.6164 H   0  0  0  0  0  0  0  0  0  0  0  0
   50.6635   10.3667   -2.6371 H   0  0  0  0  0  0  0  0  0  0  0  0
   47.4976   17.1389    2.9207 H   0  0  0  0  0  0  0  0  0  0  0  0
   48.2799   15.8514    3.5508 H   0  0  0  0  0  0  0  0  0  0  0  0
   49.6260    5.5715    3.9157 H   0  0  0  0  0  0  0  0  0  0  0  0
   48.0862    5.6123    4.4577 H   0  0  0  0  0  0  0  0  0  0  0  0
   47.2878    6.2216    2.3777 H   0  0  0  0  0  0  0  0  0  0  0  0
   48.2866    4.9520    2.1383 H   0  0  0  0  0  0  0  0  0  0  0  0
   49.9062    7.6571    4.4527 H   0  0  0  0  0  0  0  0  0  0  0  0
   48.4088    7.6603    5.1042 H   0  0  0  0  0  0  0  0  0  0  0  0
   44.4115    9.0940   -0.1507 H   0  0  0  0  0  0  0  0  0  0  0  0
   48.5960    6.7151    0.5234 H   0  0  0  0  0  0  0  0  0  0  0  0
   49.9651    6.3421    1.3316 H   0  0  0  0  0  0  0  0  0  0  0  0
   48.6677    9.4101    3.4901 H   0  0  0  0  0  0  0  0  0  0  0  0
   47.4837    8.3712    3.0596 H   0  0  0  0  0  0  0  0  0  0  0  0
   46.5901    8.1103   -0.1031 H   0  0  0  0  0  0  0  0  0  0  0  0
   44.0593   11.3045    0.6820 H   0  0  0  0  0  0  0  0  0  0  0  0
   48.0903   11.5872    1.6039 H   0  0  0  0  0  0  0  0  0  0  0  0
   50.1596    8.3349    2.0582 H   0  0  0  0  0  0  0  0  0  0  0  0
  1 25  1  0  0  0  0
  2 26  1  0  0  0  0
  2 27  1  0  0  0  0
  3 22  1  0  0  0  0
  4 22  2  0  0  0  0
  5 23  1  0  0  0  0
  6 23  2  0  0  0  0
  7 24  2  0  0  0  0
  8 12  1  0  0  0  0
  8 28  1  0  0  0  0
  9 11  1  0  0  0  0
  9 24  1  0  0  0  0
 10 24  1  0  0  0  0
 10 29  1  0  0  0  0
 10 30  1  0  0  0  0
 12 22  1  0  0  0  0
 13 14  1  0  0  0  0
 13 15  1  0  0  0  0
 14 17  1  0  0  0  0
 15 18  1  0  0  0  0
 16 19  2  0  0  0  0
 16 20  1  0  0  0  0
 17 29  1  0  0  0  0
 18 29  1  0  0  0  0
 19 30  1  0  0  0  0
 20 31  2  0  0  0  0
 21 30  2  0  0  0  0
 21 31  1  0  0  0  0
 23 26  1  0  0  0  0
 25 27  2  0  0  0  0
 25 28  1  0  0  0  0
 26 28  2  0  0  0  0
 27 31  1  0  0  0  0
  3 32  1  0  0  0  0
  5 33  1  0  0  0  0
  9 34  1  0  0  0  0
 11 35  1  0  0  0  0
 11 36  1  0  0  0  0
 11 37  1  0  0  0  0
 12 38  1  0  0  0  0
 12 39  1  0  0  0  0
 13 40  1  0  0  0  0
 13 41  1  0  0  0  0
 14 42  1  0  0  0  0
 14 43  1  0  0  0  0
 15 44  1  0  0  0  0
 15 45  1  0  0  0  0
 16 46  1  0  0  0  0
 17 47  1  0  0  0  0
 17 48  1  0  0  0  0
 18 49  1  0  0  0  0
 18 50  1  0  0  0  0
 19 51  1  0  0  0  0
 20 52  1  0  0  0  0
 21 53  1  0  0  0  0
 29 54  1  0  0  0  0
M  END
> <pdb_id>
2ZMM

> <uniprot_id>
P18031

> <usmiles>
BrC1=C(SC(C(=O)O)=C1OCC(=O)O)c2cc(N(C(=O)NC)C3CCCCC3)ccc2

$$$$
35K_B_301
          07202409023D 1   1.00000     0.00000     0
            
 32 33  0  0  0  0            999 V2000
   -3.1540    0.0554   12.7343 O   0  0  0  0  0  0  0  0  0  0  0  0
   -2.1351    1.5744   14.0150 O   0  0  0  0  0  0  0  0  0  0  0  0
  -10.1807   -6.1522   15.7768 O   0  0  0  0  0  0  0  0  0  0  0  0
  -10.5892   -4.0459   14.0573 O   0  0  0  0  0  0  0  0  0  0  0  0
   -1.8747    0.0327   16.0077 N   0  0  0  0  0  0  0  0  0  0  0  0
   -8.1825   -5.2972   16.3990 N   0  0  0  0  0  0  0  0  0  0  0  0
   -8.5969   -3.1574   14.6482 N   0  0  0  0  0  0  0  0  0  0  0  0
   -3.3109   -1.6469   14.8444 C   0  0  0  0  0  0  0  0  0  0  0  0
   -4.2930   -1.2821   15.9596 C   0  0  0  0  0  0  0  0  0  0  0  0
   -5.0642   -3.3637   16.9513 C   0  0  0  0  0  0  0  0  0  0  0  0
   -6.0284   -4.3817   17.0742 C   0  0  0  0  0  0  0  0  0  0  0  0
   -6.4479   -2.1966   15.2894 C   0  0  0  0  0  0  0  0  0  0  0  0
   -2.5141    0.4193   13.7395 C   0  0  0  0  0  0  0  0  0  0  0  0
   -9.3701   -5.2456   15.6372 C   0  0  0  0  0  0  0  0  0  0  0  0
   -9.5755   -4.1673   14.7572 C   0  0  0  0  0  0  0  0  0  0  0  0
   -2.1448   -0.6638   14.7441 C   0  0  1  0  0  0  0  0  0  0  0  0
   -5.2715   -2.2825   16.0733 C   0  0  0  0  0  0  0  0  0  0  0  0
   -7.1976   -4.2960   16.3000 C   0  0  0  0  0  0  0  0  0  0  0  0
   -7.4111   -3.2160   15.4140 C   0  0  0  0  0  0  0  0  0  0  0  0
   -3.4034   -0.9064   12.6216 H   0  0  0  0  0  0  0  0  0  0  0  0
   -1.1058    0.6602   15.8847 H   0  0  0  0  0  0  0  0  0  0  0  0
   -2.6854    0.5490   16.2837 H   0  0  0  0  0  0  0  0  0  0  0  0
   -8.0372   -6.0639   17.0243 H   0  0  0  0  0  0  0  0  0  0  0  0
   -8.7440   -2.3917   14.0221 H   0  0  0  0  0  0  0  0  0  0  0  0
   -3.8023   -1.6510   13.9735 H   0  0  0  0  0  0  0  0  0  0  0  0
   -2.9455   -2.5600   15.0253 H   0  0  0  0  0  0  0  0  0  0  0  0
   -4.7323   -0.4101   15.7437 H   0  0  0  0  0  0  0  0  0  0  0  0
   -3.7983   -1.2009   16.8249 H   0  0  0  0  0  0  0  0  0  0  0  0
   -4.2244   -3.4088   17.4923 H   0  0  0  0  0  0  0  0  0  0  0  0
   -5.8844   -5.1491   17.6989 H   0  0  0  0  0  0  0  0  0  0  0  0
   -6.5910   -1.4306   14.6627 H   0  0  0  0  0  0  0  0  0  0  0  0
   -1.3223   -1.1435   14.4387 H   0  0  0  0  0  0  0  0  0  0  0  0
  1 13  1  0  0  0  0
  2 13  2  0  0  0  0
  3 14  2  0  0  0  0
  4 15  2  0  0  0  0
  5 16  1  0  0  0  0
  6 14  1  0  0  0  0
  6 18  1  0  0  0  0
  7 15  1  0  0  0  0
  7 19  1  0  0  0  0
  8  9  1  0  0  0  0
  8 16  1  0  0  0  0
  9 17  1  0  0  0  0
 10 11  1  0  0  0  0
 10 17  2  0  0  0  0
 11 18  2  0  0  0  0
 12 17  1  0  0  0  0
 12 19  2  0  0  0  0
 13 16  1  0  0  0  0
 14 15  1  0  0  0  0
 18 19  1  0  0  0  0
  1 20  1  0  0  0  0
  5 21  1  0  0  0  0
  5 22  1  0  0  0  0
  6 23  1  0  0  0  0
  7 24  1  0  0  0  0
  8 25  1  0  0  0  0
  8 26  1  0  0  0  0
  9 27  1  0  0  0  0
  9 28  1  0  0  0  0
 10 29  1  0  0  0  0
 11 30  1  0  0  0  0
 12 31  1  0  0  0  0
 16 32  1  0  0  0  0
M  END
> <pdb_id>
4QF9

> <uniprot_id>
P22756

> <usmiles>
O=C(O)[C@@H](N)CCc1cc2NC(=O)C(=O)Nc2cc1

$$$$
35O_B_601
          07202417403D 1   1.00000     0.00000     0
            
 53 56  0  0  0  0            999 V2000
   95.8080   17.8520   12.7300 O   0  0  0  0  0  0  0  0  0  0  0  0
   95.7260   20.9430    6.4800 O   0  0  0  0  0  0  0  0  0  0  0  0
   91.5870   20.6890   16.2470 O   0  0  0  0  0  0  0  0  0  0  0  0
   95.3950   24.0160    9.2690 N   0  0  0  0  0  0  0  0  0  0  0  0
   96.4730   19.8690    8.4500 N   0  0  0  0  0  0  0  0  0  0  0  0
   96.4370   21.0590   10.4410 N   0  0  0  0  0  0  0  0  0  0  0  0
   97.2890   18.9100   10.3880 N   0  0  0  0  0  0  0  0  0  0  0  0
   96.2070   20.0020   13.3930 N   0  0  0  0  0  0  0  0  0  0  0  0
   95.7140   23.3860   10.1570 N   0  0  0  0  0  0  0  0  0  0  0  0
   90.7820   19.5090   16.3240 C   0  0  0  0  0  0  0  0  0  0  0  0
   98.6850   17.8550   12.1110 C   0  0  0  0  0  0  0  0  0  0  0  0
   95.3870   23.3060    8.1420 C   0  0  0  0  0  0  0  0  0  0  0  0
   94.8990   25.0280   13.3460 C   0  0  0  0  0  0  0  0  0  0  0  0
   95.9550   25.9400   12.7420 C   0  0  0  0  0  0  0  0  0  0  0  0
   93.6740   21.5040   15.4780 C   0  0  0  0  0  0  0  0  0  0  0  0
   93.1010   19.2000   15.1170 C   0  0  0  0  0  0  0  0  0  0  0  0
   94.4150   24.3430   12.0820 C   0  0  0  0  0  0  0  0  0  0  0  0
   96.7050   25.0270   11.7820 C   0  0  0  0  0  0  0  0  0  0  0  0
   94.8560   21.3130   14.7710 C   0  0  0  0  0  0  0  0  0  0  0  0
   94.2820   19.0130   14.4060 C   0  0  0  0  0  0  0  0  0  0  0  0
   96.6840   19.9220    9.7730 C   0  0  0  0  0  0  0  0  0  0  0  0
   96.4720   18.8870   12.6960 C   0  0  0  0  0  0  0  0  0  0  0  0
   96.0140   20.9540    7.8100 C   0  0  0  0  0  0  0  0  0  0  0  0
   92.7840   20.4500   15.6420 C   0  0  0  0  0  0  0  0  0  0  0  0
   95.9880   22.1370    9.7840 C   0  0  0  0  0  0  0  0  0  0  0  0
   95.1610   20.0750   14.2160 C   0  0  0  0  0  0  0  0  0  0  0  0
   97.7050   18.9880   11.7950 C   0  0  2  0  0  0  0  0  0  0  0  0
   95.7560   23.8580   11.5580 C   0  0  0  0  0  0  0  0  0  0  0  0
   95.7740   22.0800    8.4740 C   0  0  0  0  0  0  0  0  0  0  0  0
   96.6567   19.0261    7.9442 H   0  0  0  0  0  0  0  0  0  0  0  0
   97.4665   18.0692    9.8766 H   0  0  0  0  0  0  0  0  0  0  0  0
   96.8071   20.7956   13.2930 H   0  0  0  0  0  0  0  0  0  0  0  0
   89.9151   19.7256   16.7729 H   0  0  0  0  0  0  0  0  0  0  0  0
   90.6033   19.1666   15.4016 H   0  0  0  0  0  0  0  0  0  0  0  0
   91.2649   18.8099   16.8514 H   0  0  0  0  0  0  0  0  0  0  0  0
   98.9643   17.9134   13.0694 H   0  0  0  0  0  0  0  0  0  0  0  0
   98.2407   16.9744   11.9464 H   0  0  0  0  0  0  0  0  0  0  0  0
   99.4901   17.9371   11.5236 H   0  0  0  0  0  0  0  0  0  0  0  0
   95.1393   23.6310    7.2293 H   0  0  0  0  0  0  0  0  0  0  0  0
   94.1697   25.5456   13.7934 H   0  0  0  0  0  0  0  0  0  0  0  0
   95.2935   24.3782   13.9957 H   0  0  0  0  0  0  0  0  0  0  0  0
   96.5667   26.2957   13.4486 H   0  0  0  0  0  0  0  0  0  0  0  0
   95.5315   26.7026   12.2529 H   0  0  0  0  0  0  0  0  0  0  0  0
   93.4645   22.4004   15.8686 H   0  0  0  0  0  0  0  0  0  0  0  0
   92.4755   18.4315   15.2519 H   0  0  0  0  0  0  0  0  0  0  0  0
   93.9739   24.9827   11.4525 H   0  0  0  0  0  0  0  0  0  0  0  0
   93.7918   23.5861   12.2790 H   0  0  0  0  0  0  0  0  0  0  0  0
   97.5634   24.7139   12.1883 H   0  0  0  0  0  0  0  0  0  0  0  0
   96.8962   25.4983   10.9210 H   0  0  0  0  0  0  0  0  0  0  0  0
   95.4942   22.0749   14.6604 H   0  0  0  0  0  0  0  0  0  0  0  0
   94.5001   18.1123   14.0301 H   0  0  0  0  0  0  0  0  0  0  0  0
   98.1565   19.8658   11.9549 H   0  0  0  0  0  0  0  0  0  0  0  0
   96.0580   23.0978   12.1332 H   0  0  0  0  0  0  0  0  0  0  0  0
  1 22  2  0  0  0  0
  2 23  2  0  0  0  0
  3 10  1  0  0  0  0
  3 24  1  0  0  0  0
  4  9  1  0  0  0  0
  4 12  2  0  0  0  0
  5 21  1  0  0  0  0
  5 23  1  0  0  0  0
  6 21  2  0  0  0  0
  6 25  1  0  0  0  0
  7 21  1  0  0  0  0
  7 27  1  0  0  0  0
  8 22  1  0  0  0  0
  8 26  1  0  0  0  0
  9 25  1  0  0  0  0
  9 28  1  0  0  0  0
 11 27  1  0  0  0  0
 12 29  1  0  0  0  0
 13 14  1  0  0  0  0
 13 17  1  0  0  0  0
 14 18  1  0  0  0  0
 15 19  1  0  0  0  0
 15 24  2  0  0  0  0
 16 20  2  0  0  0  0
 16 24  1  0  0  0  0
 17 28  1  0  0  0  0
 18 28  1  0  0  0  0
 19 26  2  0  0  0  0
 20 26  1  0  0  0  0
 22 27  1  0  0  0  0
 23 29  1  0  0  0  0
 25 29  2  0  0  0  0
  5 30  1  0  0  0  0
  7 31  1  0  0  0  0
  8 32  1  0  0  0  0
 10 33  1  0  0  0  0
 10 34  1  0  0  0  0
 10 35  1  0  0  0  0
 11 36  1  0  0  0  0
 11 37  1  0  0  0  0
 11 38  1  0  0  0  0
 12 39  1  0  0  0  0
 13 40  1  0  0  0  0
 13 41  1  0  0  0  0
 14 42  1  0  0  0  0
 14 43  1  0  0  0  0
 15 44  1  0  0  0  0
 16 45  1  0  0  0  0
 17 46  1  0  0  0  0
 17 47  1  0  0  0  0
 18 48  1  0  0  0  0
 18 49  1  0  0  0  0
 19 50  1  0  0  0  0
 20 51  1  0  0  0  0
 27 52  1  0  0  0  0
 28 53  1  0  0  0  0
M  END
> <pdb_id>
4QGE

> <uniprot_id>
K7AGW3

> <usmiles>
O=C1NC(=NC=2N(N=CC12)C3CCCC3)N[C@@H](C(=O)Nc4ccc(OC)cc4)C

$$$$
35T_A_201
          07202417413D 1   1.00000     0.00000     0
            
 71 75  0  0  0  0            999 V2000
   25.1500   -6.3890  -17.1720 Cl  0  0  0  0  0  0  0  0  0  0  0  0
   29.9860   -5.2320  -13.4180 Cl  0  0  0  0  0  0  0  0  0  0  0  0
   26.9020    1.3720  -19.8450 S   0  0  0  0  0  0  0  0  0  0  0  0
   27.0720    0.2300  -20.6880 O   0  0  0  0  0  0  0  0  0  0  0  0
   27.9870    1.7050  -18.9800 O   0  0  0  0  0  0  0  0  0  0  0  0
   28.9220    1.5150  -12.3460 O   0  0  0  0  0  0  0  0  0  0  0  0
   27.8750    3.4630  -12.3010 O   0  0  0  0  0  0  0  0  0  0  0  0
   25.2930    2.0980  -15.9900 O   0  0  0  0  0  0  0  0  0  0  0  0
   26.7830    2.7320  -20.9420 N   0  0  0  0  0  0  0  0  0  0  0  0
   26.3060    0.2030  -16.8660 N   0  0  0  0  0  0  0  0  0  0  0  0
   27.8660    3.0350  -15.6480 C   0  0  0  0  0  0  0  0  0  0  0  0
   25.4410    1.3320  -18.8430 C   0  0  0  0  0  0  0  0  0  0  0  0
   27.1490    4.0370  -20.3000 C   0  0  0  0  0  0  0  0  0  0  0  0
   25.6470    2.9230  -21.8640 C   0  0  0  0  0  0  0  0  0  0  0  0
   26.4540    5.1280  -21.0800 C   0  0  0  0  0  0  0  0  0  0  0  0
   25.3680    4.4360  -21.8690 C   0  0  0  0  0  0  0  0  0  0  0  0
   31.6380   -2.6330  -16.1020 C   0  0  0  0  0  0  0  0  0  0  0  0
   31.4090   -3.7440  -15.2170 C   0  0  0  0  0  0  0  0  0  0  0  0
   25.2320   -4.0280  -15.9500 C   0  0  0  0  0  0  0  0  0  0  0  0
   26.6950   -4.4190  -18.0280 C   0  0  0  0  0  0  0  0  0  0  0  0
   30.5610   -1.6520  -16.1750 C   0  0  0  0  0  0  0  0  0  0  0  0
   25.7400   -2.7030  -15.8660 C   0  0  0  0  0  0  0  0  0  0  0  0
   27.1960   -3.0940  -17.9430 C   0  0  0  0  0  0  0  0  0  0  0  0
   22.9160   -0.2780  -18.5860 C   0  0  0  0  0  0  0  0  0  0  0  0
   23.1900   -1.2870  -18.0050 C   0  0  0  0  0  0  0  0  0  0  0  0
   29.1540   -2.9120  -14.5380 C   0  0  0  0  0  0  0  0  0  0  0  0
   26.9610    1.7410  -13.7560 C   0  0  0  0  0  0  0  0  0  0  0  0
   28.6540    0.6680  -15.3850 C   0  0  0  0  0  0  0  0  0  0  0  0
   27.9450    2.3450  -12.7390 C   0  0  0  0  0  0  0  0  0  0  0  0
   25.7440   -4.8150  -17.0360 C   0  0  0  0  0  0  0  0  0  0  0  0
   30.2030   -3.8880  -14.4540 C   0  0  0  0  0  0  0  0  0  0  0  0
   26.2560    1.3230  -16.0560 C   0  0  0  0  0  0  0  0  0  0  0  0
   25.3460    0.0870  -17.9650 C   0  0  2  0  0  0  0  0  0  0  0  0
   27.2720   -0.9410  -16.7710 C   0  0  2  0  0  0  0  0  0  0  0  0
   23.9340   -0.0290  -17.3970 C   0  0  0  0  0  0  0  0  0  0  0  0
   26.6970   -2.2890  -16.8590 C   0  0  0  0  0  0  0  0  0  0  0  0
   29.3270   -1.7740  -15.4120 C   0  0  0  0  0  0  0  0  0  0  0  0
   28.1880   -0.7830  -15.5150 C   0  0  1  0  0  0  0  0  0  0  0  0
   27.4830    1.6420  -15.1790 C   0  0  2  0  0  0  0  0  0  0  0  0
   28.9698    0.5877  -12.7173 H   0  0  0  0  0  0  0  0  0  0  0  0
   28.2123    2.9878  -16.5849 H   0  0  0  0  0  0  0  0  0  0  0  0
   27.0621    3.6291  -15.6193 H   0  0  0  0  0  0  0  0  0  0  0  0
   28.5757    3.4052  -15.0485 H   0  0  0  0  0  0  0  0  0  0  0  0
   24.6426    1.3580  -19.4445 H   0  0  0  0  0  0  0  0  0  0  0  0
   25.4393    2.1385  -18.2517 H   0  0  0  0  0  0  0  0  0  0  0  0
   28.1396    4.1695  -20.3335 H   0  0  0  0  0  0  0  0  0  0  0  0
   26.8432    4.0483  -19.3480 H   0  0  0  0  0  0  0  0  0  0  0  0
   24.8454    2.4213  -21.5389 H   0  0  0  0  0  0  0  0  0  0  0  0
   25.8866    2.6092  -22.7828 H   0  0  0  0  0  0  0  0  0  0  0  0
   27.0983    5.5809  -21.6962 H   0  0  0  0  0  0  0  0  0  0  0  0
   26.0572    5.8030  -20.4580 H   0  0  0  0  0  0  0  0  0  0  0  0
   24.4789    4.6161  -21.4483 H   0  0  0  0  0  0  0  0  0  0  0  0
   25.3665    4.7753  -22.8097 H   0  0  0  0  0  0  0  0  0  0  0  0
   32.4805   -2.5395  -16.6325 H   0  0  0  0  0  0  0  0  0  0  0  0
   32.1185   -4.4433  -15.1304 H   0  0  0  0  0  0  0  0  0  0  0  0
   24.5643   -4.3870  -15.2978 H   0  0  0  0  0  0  0  0  0  0  0  0
   26.9929   -5.0462  -18.7476 H   0  0  0  0  0  0  0  0  0  0  0  0
   30.6752   -0.8607  -16.7756 H   0  0  0  0  0  0  0  0  0  0  0  0
   25.4430   -2.0800  -15.1423 H   0  0  0  0  0  0  0  0  0  0  0  0
   27.8600   -2.7386  -18.6008 H   0  0  0  0  0  0  0  0  0  0  0  0
   22.3913    0.1353  -19.3302 H   0  0  0  0  0  0  0  0  0  0  0  0
   23.0448   -2.2745  -17.9437 H   0  0  0  0  0  0  0  0  0  0  0  0
   28.3173   -3.0176  -14.0007 H   0  0  0  0  0  0  0  0  0  0  0  0
   26.1388    2.3101  -13.7668 H   0  0  0  0  0  0  0  0  0  0  0  0
   26.7245    0.8194  -13.4482 H   0  0  0  0  0  0  0  0  0  0  0  0
   29.1425    0.9246  -16.2190 H   0  0  0  0  0  0  0  0  0  0  0  0
   29.2719    0.7381  -14.6019 H   0  0  0  0  0  0  0  0  0  0  0  0
   25.5562   -0.7247  -18.5099 H   0  0  0  0  0  0  0  0  0  0  0  0
   27.8775   -0.8517  -17.5618 H   0  0  0  0  0  0  0  0  0  0  0  0
   23.6626    0.3940  -16.5325 H   0  0  0  0  0  0  0  0  0  0  0  0
   27.6014   -0.9552  -14.7236 H   0  0  0  0  0  0  0  0  0  0  0  0
  1 30  1  0  0  0  0
  2 31  1  0  0  0  0
  3  4  2  0  0  0  0
  3  5  2  0  0  0  0
  3  9  1  0  0  0  0
  3 12  1  0  0  0  0
  6 29  1  0  0  0  0
  7 29  2  0  0  0  0
  8 32  2  0  0  0  0
  9 13  1  0  0  0  0
  9 14  1  0  0  0  0
 10 32  1  0  0  0  0
 10 33  1  0  0  0  0
 10 34  1  0  0  0  0
 11 39  1  0  0  0  0
 12 33  1  0  0  0  0
 13 15  1  0  0  0  0
 14 16  1  0  0  0  0
 15 16  1  0  0  0  0
 17 18  2  0  0  0  0
 17 21  1  0  0  0  0
 18 31  1  0  0  0  0
 19 22  2  0  0  0  0
 19 30  1  0  0  0  0
 20 23  1  0  0  0  0
 20 30  2  0  0  0  0
 21 37  2  0  0  0  0
 22 36  1  0  0  0  0
 23 36  2  0  0  0  0
 24 25  2  0  0  0  0
 24 35  1  0  0  0  0
 25 35  1  0  0  0  0
 26 31  2  0  0  0  0
 26 37  1  0  0  0  0
 27 29  1  0  0  0  0
 27 39  1  0  0  0  0
 28 38  1  0  0  0  0
 28 39  1  0  0  0  0
 32 39  1  0  0  0  0
 33 35  1  0  0  0  0
 34 36  1  0  0  0  0
 34 38  1  0  0  0  0
 37 38  1  0  0  0  0
  6 40  1  0  0  0  0
 11 41  1  0  0  0  0
 11 42  1  0  0  0  0
 11 43  1  0  0  0  0
 12 44  1  0  0  0  0
 12 45  1  0  0  0  0
 13 46  1  0  0  0  0
 13 47  1  0  0  0  0
 14 48  1  0  0  0  0
 14 49  1  0  0  0  0
 15 50  1  0  0  0  0
 15 51  1  0  0  0  0
 16 52  1  0  0  0  0
 16 53  1  0  0  0  0
 17 54  1  0  0  0  0
 18 55  1  0  0  0  0
 19 56  1  0  0  0  0
 20 57  1  0  0  0  0
 21 58  1  0  0  0  0
 22 59  1  0  0  0  0
 23 60  1  0  0  0  0
 24 61  1  0  0  0  0
 25 62  1  0  0  0  0
 26 63  1  0  0  0  0
 27 64  1  0  0  0  0
 27 65  1  0  0  0  0
 28 66  1  0  0  0  0
 28 67  1  0  0  0  0
 33 68  1  0  0  0  0
 34 69  1  0  0  0  0
 35 70  1  0  0  0  0
 38 71  1  0  0  0  0
M  END
> <pdb_id>
4QOC

> <uniprot_id>
Q00987

> <usmiles>
Clc1cc(ccc1)[C@@H]2[C@H](N(C(=O)[C@@](CC(=O)O)(C2)C)[C@@H](C3C=C3)CS(=O)(=O)N4CCCC4)c5ccc(Cl)cc5

$$$$
35X_A_401
          07212404193D 1   1.00000     0.00000     0
            
 39 42  0  0  0  0            999 V2000
    5.8233    7.7761   45.5544 N   0  0  0  0  0  0  0  0  0  0  0  0
   12.5886   11.6649   40.1499 N   0  0  0  0  0  0  0  0  0  0  0  0
   12.5826    6.4673   43.7282 N   0  0  0  0  0  0  0  0  0  0  0  0
   10.9394    5.3199   45.1746 N   0  0  0  0  0  0  0  0  0  0  0  0
   10.5694    8.2628   43.2904 N   0  0  0  0  0  0  0  0  0  0  0  0
    6.1660    8.6532   44.5165 N   0  0  0  0  0  0  0  0  0  0  0  0
    3.4926    9.9946   42.1903 C   0  0  0  0  0  0  0  0  0  0  0  0
   11.3391   11.2398   40.2521 C   0  0  0  0  0  0  0  0  0  0  0  0
   13.5694   11.1057   40.8226 C   0  0  0  0  0  0  0  0  0  0  0  0
    5.2873    9.6729   43.9354 C   0  0  0  0  0  0  0  0  0  0  0  0
    6.8482    7.0064   45.8067 C   0  0  0  0  0  0  0  0  0  0  0  0
   12.7782    7.5102   42.9406 C   0  0  0  0  0  0  0  0  0  0  0  0
    9.6366    5.5978   45.4932 C   0  0  0  0  0  0  0  0  0  0  0  0
    7.4431    8.3964   44.1494 C   0  0  0  0  0  0  0  0  0  0  0  0
    4.5330    9.0163   42.7710 C   0  0  0  0  0  0  0  0  0  0  0  0
   11.0128   10.1854   41.0877 C   0  0  0  0  0  0  0  0  0  0  0  0
   13.3322   10.0468   41.6724 C   0  0  0  0  0  0  0  0  0  0  0  0
   11.4139    6.2861   44.3189 C   0  0  0  0  0  0  0  0  0  0  0  0
   11.7569    8.4354   42.7240 C   0  0  0  0  0  0  0  0  0  0  0  0
   10.3740    7.2163   44.0831 C   0  0  0  0  0  0  0  0  0  0  0  0
    7.8951    7.3750   44.9409 C   0  0  0  0  0  0  0  0  0  0  0  0
   12.0270    9.5753   41.8223 C   0  0  0  0  0  0  0  0  0  0  0  0
    9.2355    6.7417   44.8736 C   0  0  0  0  0  0  0  0  0  0  0  0
   11.4631    4.5373   45.5114 H   0  0  0  0  0  0  0  0  0  0  0  0
    3.0084    9.5557   41.4333 H   0  0  0  0  0  0  0  0  0  0  0  0
    2.8381   10.2470   42.9030 H   0  0  0  0  0  0  0  0  0  0  0  0
    3.9564   10.8158   41.8578 H   0  0  0  0  0  0  0  0  0  0  0  0
   10.6210   11.6865   39.7184 H   0  0  0  0  0  0  0  0  0  0  0  0
   14.5010   11.4534   40.7165 H   0  0  0  0  0  0  0  0  0  0  0  0
    5.8310   10.4424   43.6003 H   0  0  0  0  0  0  0  0  0  0  0  0
    4.6385    9.9978   44.6235 H   0  0  0  0  0  0  0  0  0  0  0  0
    6.8830    6.2817   46.4948 H   0  0  0  0  0  0  0  0  0  0  0  0
   13.6652    7.6372   42.4964 H   0  0  0  0  0  0  0  0  0  0  0  0
    9.0631    5.0411   46.0941 H   0  0  0  0  0  0  0  0  0  0  0  0
    7.9602    8.8654   43.4334 H   0  0  0  0  0  0  0  0  0  0  0  0
    5.1847    8.7645   42.0556 H   0  0  0  0  0  0  0  0  0  0  0  0
    4.0664    8.1956   43.1008 H   0  0  0  0  0  0  0  0  0  0  0  0
   10.0675    9.8679   41.1624 H   0  0  0  0  0  0  0  0  0  0  0  0
   14.0852    9.6219   42.1749 H   0  0  0  0  0  0  0  0  0  0  0  0
  1  6  1  0  0  0  0
  1 11  2  0  0  0  0
  2  8  2  0  0  0  0
  2  9  1  0  0  0  0
  3 12  1  0  0  0  0
  3 18  2  0  0  0  0
  4 13  1  0  0  0  0
  4 18  1  0  0  0  0
  5 19  1  0  0  0  0
  5 20  2  0  0  0  0
  6 10  1  0  0  0  0
  6 14  1  0  0  0  0
  7 15  1  0  0  0  0
  8 16  1  0  0  0  0
  9 17  2  0  0  0  0
 10 15  1  0  0  0  0
 11 21  1  0  0  0  0
 12 19  2  0  0  0  0
 13 23  2  0  0  0  0
 14 21  2  0  0  0  0
 16 22  2  0  0  0  0
 17 22  1  0  0  0  0
 18 20  1  0  0  0  0
 19 22  1  0  0  0  0
 20 23  1  0  0  0  0
 21 23  1  0  0  0  0
  4 24  1  0  0  0  0
  7 25  1  0  0  0  0
  7 26  1  0  0  0  0
  7 27  1  0  0  0  0
  8 28  1  0  0  0  0
  9 29  1  0  0  0  0
 10 30  1  0  0  0  0
 10 31  1  0  0  0  0
 11 32  1  0  0  0  0
 12 33  1  0  0  0  0
 13 34  1  0  0  0  0
 14 35  1  0  0  0  0
 15 36  1  0  0  0  0
 15 37  1  0  0  0  0
 16 38  1  0  0  0  0
 17 39  1  0  0  0  0
M  END
> <pdb_id>
4QP9

> <uniprot_id>
P28482

> <usmiles>
n1c(c2ccncc2)cnc3NC=C(c13)C=4C=NN(C4)CCC

$$$$
362_B_401
          07212404193D 1   1.00000     0.00000     0
            
 30 33  0  0  0  0            999 V2000
   12.6388   10.9230   40.4603 N   0  0  0  0  0  0  0  0  0  0  0  0
   11.2610   10.9196   40.2040 N   0  0  0  0  0  0  0  0  0  0  0  0
    6.0686    8.6763   44.3817 N   0  0  0  0  0  0  0  0  0  0  0  0
   12.4897    6.5411   43.9396 N   0  0  0  0  0  0  0  0  0  0  0  0
   10.8881    5.3820   45.4280 N   0  0  0  0  0  0  0  0  0  0  0  0
   10.3324    8.0841   43.2687 N   0  0  0  0  0  0  0  0  0  0  0  0
    5.1073    7.9794   44.9608 C   0  0  0  0  0  0  0  0  0  0  0  0
    5.3752    6.7718   45.5791 C   0  0  0  0  0  0  0  0  0  0  0  0
   12.8919    9.9845   41.3924 C   0  0  0  0  0  0  0  0  0  0  0  0
   10.6955   10.0128   40.9560 C   0  0  0  0  0  0  0  0  0  0  0  0
    7.3196    8.2634   44.3625 C   0  0  0  0  0  0  0  0  0  0  0  0
   12.6166    7.5134   43.0620 C   0  0  0  0  0  0  0  0  0  0  0  0
    9.5613    5.5477   45.6899 C   0  0  0  0  0  0  0  0  0  0  0  0
    6.6740    6.2958   45.5858 C   0  0  0  0  0  0  0  0  0  0  0  0
   11.3102    6.3068   44.5022 C   0  0  0  0  0  0  0  0  0  0  0  0
   11.5204    8.3081   42.7165 C   0  0  0  0  0  0  0  0  0  0  0  0
   11.7041    9.3948   41.7220 C   0  0  0  0  0  0  0  0  0  0  0  0
    7.6705    7.0585   44.9668 C   0  0  0  0  0  0  0  0  0  0  0  0
   10.1979    7.1016   44.1572 C   0  0  0  0  0  0  0  0  0  0  0  0
    9.0735    6.5779   44.9553 C   0  0  0  0  0  0  0  0  0  0  0  0
   13.3155   11.5181   40.0270 H   0  0  0  0  0  0  0  0  0  0  0  0
   11.4713    4.6872   45.8488 H   0  0  0  0  0  0  0  0  0  0  0  0
    4.1710    8.3305   44.9518 H   0  0  0  0  0  0  0  0  0  0  0  0
    4.6413    6.2507   46.0148 H   0  0  0  0  0  0  0  0  0  0  0  0
   13.7882    9.7594   41.7746 H   0  0  0  0  0  0  0  0  0  0  0  0
    9.7198    9.7957   40.9831 H   0  0  0  0  0  0  0  0  0  0  0  0
    8.0199    8.8173   43.9123 H   0  0  0  0  0  0  0  0  0  0  0  0
   13.5060    7.6853   42.6383 H   0  0  0  0  0  0  0  0  0  0  0  0
    9.0274    4.9930   46.3280 H   0  0  0  0  0  0  0  0  0  0  0  0
    6.8962    5.4248   46.0239 H   0  0  0  0  0  0  0  0  0  0  0  0
  1  2  1  0  0  0  0
  1  9  1  0  0  0  0
  2 10  2  0  0  0  0
  3  7  2  0  0  0  0
  3 11  1  0  0  0  0
  4 12  2  0  0  0  0
  4 15  1  0  0  0  0
  5 13  1  0  0  0  0
  5 15  1  0  0  0  0
  6 16  2  0  0  0  0
  6 19  1  0  0  0  0
  7  8  1  0  0  0  0
  8 14  2  0  0  0  0
  9 17  2  0  0  0  0
 10 17  1  0  0  0  0
 11 18  2  0  0  0  0
 12 16  1  0  0  0  0
 13 20  2  0  0  0  0
 14 18  1  0  0  0  0
 15 19  2  0  0  0  0
 16 17  1  0  0  0  0
 18 20  1  0  0  0  0
 19 20  1  0  0  0  0
  1 21  1  0  0  0  0
  5 22  1  0  0  0  0
  7 23  1  0  0  0  0
  8 24  1  0  0  0  0
  9 25  1  0  0  0  0
 10 26  1  0  0  0  0
 11 27  1  0  0  0  0
 12 28  1  0  0  0  0
 13 29  1  0  0  0  0
 14 30  1  0  0  0  0
M  END
> <pdb_id>
4QP8

> <uniprot_id>
P28482

> <usmiles>
n1c2c(ncc1C=3C=NNC3)NC=C2c4cnccc4

$$$$
36I_D_1248
          07192422433D 1   1.00000     0.00000     0
            
 36 39  0  0  0  0            999 V2000
   -1.9358  173.4155   33.6640 S   0  0  0  0  0  0  0  0  0  0  0  0
    1.3226  171.0660   36.9708 O   0  0  0  0  0  0  0  0  0  0  0  0
    1.7292  174.9046   34.1816 N   0  0  0  0  0  0  0  0  0  0  0  0
    0.5453  176.1505   32.7306 N   0  0  0  0  0  0  0  0  0  0  0  0
    0.8496  173.0582   35.0931 N   0  0  0  0  0  0  0  0  0  0  0  0
   -2.6096  174.5447   32.5503 C   0  0  0  0  0  0  0  0  0  0  0  0
    0.0196  171.6836   36.7577 C   0  0  0  0  0  0  0  0  0  0  0  0
    2.3279  172.1129   36.7646 C   0  0  0  0  0  0  0  0  0  0  0  0
   -0.2000  172.0976   35.3643 C   0  0  0  0  0  0  0  0  0  0  0  0
    2.2173  172.8078   35.4575 C   0  0  0  0  0  0  0  0  0  0  0  0
    5.1788  178.3452   33.1243 C   0  0  0  0  0  0  0  0  0  0  0  0
    5.1975  177.2185   33.9160 C   0  0  0  0  0  0  0  0  0  0  0  0
    4.0329  178.6296   32.3841 C   0  0  0  0  0  0  0  0  0  0  0  0
   -1.7162  175.4528   32.2586 C   0  0  0  0  0  0  0  0  0  0  0  0
    4.0232  176.4518   34.0267 C   0  0  0  0  0  0  0  0  0  0  0  0
    2.8863  177.8535   32.4832 C   0  0  0  0  0  0  0  0  0  0  0  0
    1.7013  175.9422   33.4119 C   0  0  0  0  0  0  0  0  0  0  0  0
   -0.4481  174.2793   33.6713 C   0  0  0  0  0  0  0  0  0  0  0  0
    0.6686  174.1107   34.3202 C   0  0  0  0  0  0  0  0  0  0  0  0
   -0.5290  175.3568   32.8626 C   0  0  0  0  0  0  0  0  0  0  0  0
    2.8623  176.7404   33.3254 C   0  0  0  0  0  0  0  0  0  0  0  0
   -3.5396  174.5105   32.1842 H   0  0  0  0  0  0  0  0  0  0  0  0
   -0.0501  172.4904   37.3444 H   0  0  0  0  0  0  0  0  0  0  0  0
   -0.6898  171.0256   37.0100 H   0  0  0  0  0  0  0  0  0  0  0  0
    3.2342  171.6942   36.8224 H   0  0  0  0  0  0  0  0  0  0  0  0
    2.2277  172.7924   37.4914 H   0  0  0  0  0  0  0  0  0  0  0  0
   -0.1274  171.3133   34.7483 H   0  0  0  0  0  0  0  0  0  0  0  0
   -1.1001  172.5208   35.2604 H   0  0  0  0  0  0  0  0  0  0  0  0
    2.7009  173.6812   35.5146 H   0  0  0  0  0  0  0  0  0  0  0  0
    2.6398  172.2382   34.7526 H   0  0  0  0  0  0  0  0  0  0  0  0
    5.9745  178.9494   33.0813 H   0  0  0  0  0  0  0  0  0  0  0  0
    6.0292  176.9506   34.4024 H   0  0  0  0  0  0  0  0  0  0  0  0
    4.0367  179.4145   31.7645 H   0  0  0  0  0  0  0  0  0  0  0  0
   -1.9132  176.1884   31.6105 H   0  0  0  0  0  0  0  0  0  0  0  0
    4.0258  175.6618   34.6398 H   0  0  0  0  0  0  0  0  0  0  0  0
    2.0750  178.0924   31.9496 H   0  0  0  0  0  0  0  0  0  0  0  0
  1  6  1  0  0  0  0
  1 18  1  0  0  0  0
  2  7  1  0  0  0  0
  2  8  1  0  0  0  0
  3 17  2  0  0  0  0
  3 19  1  0  0  0  0
  4 17  1  0  0  0  0
  4 20  2  0  0  0  0
  5  9  1  0  0  0  0
  5 10  1  0  0  0  0
  5 19  1  0  0  0  0
  6 14  2  0  0  0  0
  7  9  1  0  0  0  0
  8 10  1  0  0  0  0
 11 12  2  0  0  0  0
 11 13  1  0  0  0  0
 12 15  1  0  0  0  0
 13 16  2  0  0  0  0
 14 20  1  0  0  0  0
 15 21  2  0  0  0  0
 16 21  1  0  0  0  0
 17 21  1  0  0  0  0
 18 19  2  0  0  0  0
 18 20  1  0  0  0  0
  6 22  1  0  0  0  0
  7 23  1  0  0  0  0
  7 24  1  0  0  0  0
  8 25  1  0  0  0  0
  8 26  1  0  0  0  0
  9 27  1  0  0  0  0
  9 28  1  0  0  0  0
 10 29  1  0  0  0  0
 10 30  1  0  0  0  0
 11 31  1  0  0  0  0
 12 32  1  0  0  0  0
 13 33  1  0  0  0  0
 14 34  1  0  0  0  0
 15 35  1  0  0  0  0
 16 36  1  0  0  0  0
M  END
> <pdb_id>
4BNY

> <uniprot_id>
O54438

> <usmiles>
S1c2c(nc(nc2C=C1)c3ccccc3)N4CCOCC4

$$$$
36J_A_301
          07202413093D 1   1.00000     0.00000     0
            
 47 48  0  0  0  0            999 V2000
  -68.9991   79.2602  -35.0488 O   0  0  0  0  0  0  0  0  0  0  0  0
  -72.5603   86.8448  -35.4085 O   0  0  0  0  0  0  0  0  0  0  0  0
  -65.0483   81.8714  -39.2940 O   0  0  0  0  0  0  0  0  0  0  0  0
  -66.7281   79.1584  -35.6782 O   0  0  0  0  0  0  0  0  0  0  0  0
  -69.9283   81.2682  -35.2133 O   0  0  0  0  0  0  0  0  0  0  0  0
  -69.7256   81.2982  -32.7204 C   0  0  0  0  0  0  0  0  0  0  0  0
  -71.2366   84.1168  -38.7947 C   0  0  0  0  0  0  0  0  0  0  0  0
  -71.2008   85.3358  -37.8634 C   0  0  0  0  0  0  0  0  0  0  0  0
  -69.9386   83.5459  -38.5864 C   0  0  0  0  0  0  0  0  0  0  0  0
  -71.0318   83.9005  -33.4747 C   0  0  0  0  0  0  0  0  0  0  0  0
  -71.8198   84.7297  -36.5338 C   0  0  0  0  0  0  0  0  0  0  0  0
  -71.9948   85.1398  -33.9851 C   0  0  0  0  0  0  0  0  0  0  0  0
  -71.6635   82.5134  -33.8935 C   0  0  0  0  0  0  0  0  0  0  0  0
  -69.6672   82.4026  -37.8527 C   0  0  0  0  0  0  0  0  0  0  0  0
  -65.8155   80.5008  -37.4673 C   0  0  0  0  0  0  0  0  0  0  0  0
  -67.3505   82.0412  -38.5166 C   0  0  0  0  0  0  0  0  0  0  0  0
  -69.1428   80.2990  -35.6632 C   0  0  0  0  0  0  0  0  0  0  0  0
  -71.5920   85.7168  -35.2535 C   0  0  2  0  0  0  0  0  0  0  0  0
  -66.0676   81.4810  -38.4270 C   0  0  0  0  0  0  0  0  0  0  0  0
  -70.7389   81.2858  -33.8846 C   0  0  1  0  0  0  0  0  0  0  0  0
  -66.9090   80.1587  -36.5814 C   0  0  0  0  0  0  0  0  0  0  0  0
  -68.4021   81.7407  -37.6486 C   0  0  0  0  0  0  0  0  0  0  0  0
  -68.1730   80.7455  -36.6530 C   0  0  0  0  0  0  0  0  0  0  0  0
  -72.4577   87.4798  -34.6428 H   0  0  0  0  0  0  0  0  0  0  0  0
  -65.2211   82.5735  -39.9848 H   0  0  0  0  0  0  0  0  0  0  0  0
  -67.4698   78.9057  -35.0568 H   0  0  0  0  0  0  0  0  0  0  0  0
  -70.2180   81.3097  -31.8501 H   0  0  0  0  0  0  0  0  0  0  0  0
  -69.1526   80.4800  -32.7685 H   0  0  0  0  0  0  0  0  0  0  0  0
  -69.1497   82.1129  -32.7884 H   0  0  0  0  0  0  0  0  0  0  0  0
  -71.3645   84.3910  -39.7478 H   0  0  0  0  0  0  0  0  0  0  0  0
  -71.9607   83.4792  -38.5312 H   0  0  0  0  0  0  0  0  0  0  0  0
  -71.7598   86.0848  -38.2192 H   0  0  0  0  0  0  0  0  0  0  0  0
  -70.2653   85.6580  -37.7180 H   0  0  0  0  0  0  0  0  0  0  0  0
  -69.1613   84.0136  -39.0072 H   0  0  0  0  0  0  0  0  0  0  0  0
  -70.9453   83.9373  -32.4791 H   0  0  0  0  0  0  0  0  0  0  0  0
  -70.1273   83.9912  -33.8914 H   0  0  0  0  0  0  0  0  0  0  0  0
  -71.3836   83.8498  -36.3457 H   0  0  0  0  0  0  0  0  0  0  0  0
  -72.8015   84.5935  -36.6667 H   0  0  0  0  0  0  0  0  0  0  0  0
  -71.9744   85.8599  -33.2916 H   0  0  0  0  0  0  0  0  0  0  0  0
  -72.9284   84.7941  -34.0794 H   0  0  0  0  0  0  0  0  0  0  0  0
  -72.0201   82.6141  -34.8224 H   0  0  0  0  0  0  0  0  0  0  0  0
  -72.4184   82.3253  -33.2653 H   0  0  0  0  0  0  0  0  0  0  0  0
  -70.4543   81.9792  -37.4042 H   0  0  0  0  0  0  0  0  0  0  0  0
  -64.9230   80.0559  -37.3944 H   0  0  0  0  0  0  0  0  0  0  0  0
  -67.5232   82.6987  -39.2500 H   0  0  0  0  0  0  0  0  0  0  0  0
  -70.6500   86.0506  -35.2167 H   0  0  0  0  0  0  0  0  0  0  0  0
  -71.2946   80.4564  -33.8278 H   0  0  0  0  0  0  0  0  0  0  0  0
  1 17  2  0  0  0  0
  2 18  1  0  0  0  0
  3 19  1  0  0  0  0
  4 21  1  0  0  0  0
  5 17  1  0  0  0  0
  5 20  1  0  0  0  0
  6 20  1  0  0  0  0
  7  8  1  0  0  0  0
  7  9  1  0  0  0  0
  8 11  1  0  0  0  0
  9 14  2  0  0  0  0
 10 12  1  0  0  0  0
 10 13  1  0  0  0  0
 11 18  1  0  0  0  0
 12 18  1  0  0  0  0
 13 20  1  0  0  0  0
 14 22  1  0  0  0  0
 15 19  2  0  0  0  0
 15 21  1  0  0  0  0
 16 19  1  0  0  0  0
 16 22  2  0  0  0  0
 17 23  1  0  0  0  0
 21 23  2  0  0  0  0
 22 23  1  0  0  0  0
  2 24  1  0  0  0  0
  3 25  1  0  0  0  0
  4 26  1  0  0  0  0
  6 27  1  0  0  0  0
  6 28  1  0  0  0  0
  6 29  1  0  0  0  0
  7 30  1  0  0  0  0
  7 31  1  0  0  0  0
  8 32  1  0  0  0  0
  8 33  1  0  0  0  0
  9 34  1  0  0  0  0
 10 35  1  0  0  0  0
 10 36  1  0  0  0  0
 11 37  1  0  0  0  0
 11 38  1  0  0  0  0
 12 39  1  0  0  0  0
 12 40  1  0  0  0  0
 13 41  1  0  0  0  0
 13 42  1  0  0  0  0
 14 43  1  0  0  0  0
 15 44  1  0  0  0  0
 16 45  1  0  0  0  0
 18 46  1  0  0  0  0
 20 47  1  0  0  0  0
M  END
> <pdb_id>
5XO7

> <uniprot_id>
nan

> <usmiles>
O=C1O[C@H](CCC[C@H](O)CCC/C=C/c2c1c(O)cc(O)c2)C

$$$$
36J_E_301
          07202413093D 1   1.00000     0.00000     0
            
 47 48  0  0  0  0            999 V2000
  -69.0930   79.2380  -35.0630 O   0  0  0  0  0  0  0  0  0  0  0  0
  -72.4440   86.8470  -35.7200 O   0  0  0  0  0  0  0  0  0  0  0  0
  -65.1630   81.8170  -39.1750 O   0  0  0  0  0  0  0  0  0  0  0  0
  -66.7740   79.1260  -35.6660 O   0  0  0  0  0  0  0  0  0  0  0  0
  -70.1650   81.2030  -35.3150 O   0  0  0  0  0  0  0  0  0  0  0  0
  -69.4870   81.5050  -32.9090 C   0  0  0  0  0  0  0  0  0  0  0  0
  -70.0480   84.5360  -38.6910 C   0  0  0  0  0  0  0  0  0  0  0  0
  -71.2400   85.3320  -38.0740 C   0  0  0  0  0  0  0  0  0  0  0  0
  -70.2470   83.2620  -38.5690 C   0  0  0  0  0  0  0  0  0  0  0  0
  -70.9390   83.9840  -33.6180 C   0  0  0  0  0  0  0  0  0  0  0  0
  -71.7140   84.7080  -36.6740 C   0  0  0  0  0  0  0  0  0  0  0  0
  -71.8850   85.1720  -34.1180 C   0  0  0  0  0  0  0  0  0  0  0  0
  -71.6240   82.6040  -33.6560 C   0  0  0  0  0  0  0  0  0  0  0  0
  -69.6550   82.3820  -37.7460 C   0  0  0  0  0  0  0  0  0  0  0  0
  -65.9940   80.4870  -37.4400 C   0  0  0  0  0  0  0  0  0  0  0  0
  -67.3920   82.1180  -38.4220 C   0  0  0  0  0  0  0  0  0  0  0  0
  -69.2130   80.3060  -35.6450 C   0  0  0  0  0  0  0  0  0  0  0  0
  -71.5380   85.7180  -35.4500 C   0  0  2  0  0  0  0  0  0  0  0  0
  -66.1720   81.4870  -38.3620 C   0  0  0  0  0  0  0  0  0  0  0  0
  -70.6890   81.3410  -33.8350 C   0  0  1  0  0  0  0  0  0  0  0  0
  -66.9810   80.1170  -36.5610 C   0  0  0  0  0  0  0  0  0  0  0  0
  -68.4000   81.7750  -37.5390 C   0  0  0  0  0  0  0  0  0  0  0  0
  -68.2260   80.7400  -36.5840 C   0  0  0  0  0  0  0  0  0  0  0  0
  -72.3740   87.5151  -34.9792 H   0  0  0  0  0  0  0  0  0  0  0  0
  -65.2826   82.5446  -39.8505 H   0  0  0  0  0  0  0  0  0  0  0  0
  -67.5013   78.8659  -35.0309 H   0  0  0  0  0  0  0  0  0  0  0  0
  -69.8035   81.5940  -31.9646 H   0  0  0  0  0  0  0  0  0  0  0  0
  -68.8938   80.7038  -32.9877 H   0  0  0  0  0  0  0  0  0  0  0  0
  -68.9761   82.3247  -33.1680 H   0  0  0  0  0  0  0  0  0  0  0  0
  -69.2040   84.7850  -38.2160 H   0  0  0  0  0  0  0  0  0  0  0  0
  -69.9649   84.7655  -39.6608 H   0  0  0  0  0  0  0  0  0  0  0  0
  -72.0082   85.3116  -38.7138 H   0  0  0  0  0  0  0  0  0  0  0  0
  -70.9545   86.2789  -37.9260 H   0  0  0  0  0  0  0  0  0  0  0  0
  -70.9427   82.8781  -39.1761 H   0  0  0  0  0  0  0  0  0  0  0  0
  -70.6604   84.1745  -32.6767 H   0  0  0  0  0  0  0  0  0  0  0  0
  -70.1302   83.9534  -34.2053 H   0  0  0  0  0  0  0  0  0  0  0  0
  -71.1721   83.8877  -36.4909 H   0  0  0  0  0  0  0  0  0  0  0  0
  -72.6801   84.4601  -36.7463 H   0  0  0  0  0  0  0  0  0  0  0  0
  -71.8298   85.9159  -33.4520 H   0  0  0  0  0  0  0  0  0  0  0  0
  -72.8233   84.8282  -34.1567 H   0  0  0  0  0  0  0  0  0  0  0  0
  -72.2716   82.6099  -34.4179 H   0  0  0  0  0  0  0  0  0  0  0  0
  -72.1219   82.4909  -32.7962 H   0  0  0  0  0  0  0  0  0  0  0  0
  -70.3107   82.0540  -37.0659 H   0  0  0  0  0  0  0  0  0  0  0  0
  -65.1150   80.0113  -37.4072 H   0  0  0  0  0  0  0  0  0  0  0  0
  -67.5515   82.8285  -39.1074 H   0  0  0  0  0  0  0  0  0  0  0  0
  -70.5952   86.0510  -35.4325 H   0  0  0  0  0  0  0  0  0  0  0  0
  -71.1933   80.5153  -33.5823 H   0  0  0  0  0  0  0  0  0  0  0  0
  1 17  2  0  0  0  0
  2 18  1  0  0  0  0
  3 19  1  0  0  0  0
  4 21  1  0  0  0  0
  5 17  1  0  0  0  0
  5 20  1  0  0  0  0
  6 20  1  0  0  0  0
  7  8  1  0  0  0  0
  7  9  1  0  0  0  0
  8 11  1  0  0  0  0
  9 14  2  0  0  0  0
 10 12  1  0  0  0  0
 10 13  1  0  0  0  0
 11 18  1  0  0  0  0
 12 18  1  0  0  0  0
 13 20  1  0  0  0  0
 14 22  1  0  0  0  0
 15 19  2  0  0  0  0
 15 21  1  0  0  0  0
 16 19  1  0  0  0  0
 16 22  2  0  0  0  0
 17 23  1  0  0  0  0
 21 23  2  0  0  0  0
 22 23  1  0  0  0  0
  2 24  1  0  0  0  0
  3 25  1  0  0  0  0
  4 26  1  0  0  0  0
  6 27  1  0  0  0  0
  6 28  1  0  0  0  0
  6 29  1  0  0  0  0
  7 30  1  0  0  0  0
  7 31  1  0  0  0  0
  8 32  1  0  0  0  0
  8 33  1  0  0  0  0
  9 34  1  0  0  0  0
 10 35  1  0  0  0  0
 10 36  1  0  0  0  0
 11 37  1  0  0  0  0
 11 38  1  0  0  0  0
 12 39  1  0  0  0  0
 12 40  1  0  0  0  0
 13 41  1  0  0  0  0
 13 42  1  0  0  0  0
 14 43  1  0  0  0  0
 15 44  1  0  0  0  0
 16 45  1  0  0  0  0
 18 46  1  0  0  0  0
 20 47  1  0  0  0  0
M  END
> <pdb_id>
5XO7

> <uniprot_id>
nan

> <usmiles>
O=C1O[C@H](CCC[C@H](O)CCC/C=C\c2c1c(O)cc(O)c2)C

$$$$
36K_C_1248
          07192422433D 1   1.00000     0.00000     0
            
 41 43  0  0  0  0            999 V2000
   -1.5129  175.4555   33.2310 O   0  0  0  0  0  0  0  0  0  0  0  0
    1.9994  173.2859   35.7589 O   0  0  0  0  0  0  0  0  0  0  0  0
    0.2660  176.6978   33.1277 N   0  0  0  0  0  0  0  0  0  0  0  0
    0.4043  174.6451   34.3433 N   0  0  0  0  0  0  0  0  0  0  0  0
    2.5144  176.1098   33.8931 N   0  0  0  0  0  0  0  0  0  0  0  0
    2.2340  177.9959   32.8342 N   0  0  0  0  0  0  0  0  0  0  0  0
    3.0664  172.5989   36.3332 C   0  0  0  0  0  0  0  0  0  0  0  0
    1.9421  178.9435   30.6522 C   0  0  0  0  0  0  0  0  0  0  0  0
    1.8056  179.2134   32.1543 C   0  0  0  0  0  0  0  0  0  0  0  0
   -0.9040  171.0672   35.9706 C   0  0  0  0  0  0  0  0  0  0  0  0
   -1.7804  171.7832   35.1977 C   0  0  0  0  0  0  0  0  0  0  0  0
    6.0160  177.2754   33.9812 C   0  0  0  0  0  0  0  0  0  0  0  0
    5.8535  178.4996   33.3314 C   0  0  0  0  0  0  0  0  0  0  0  0
    0.3709  171.5508   36.2037 C   0  0  0  0  0  0  0  0  0  0  0  0
   -1.3913  173.0103   34.6298 C   0  0  0  0  0  0  0  0  0  0  0  0
    4.9177  176.3888   34.1985 C   0  0  0  0  0  0  0  0  0  0  0  0
    4.5549  178.8214   32.9120 C   0  0  0  0  0  0  0  0  0  0  0  0
   -0.3443  175.5991   33.5956 C   0  0  0  0  0  0  0  0  0  0  0  0
    1.5983  176.9194   33.3154 C   0  0  0  0  0  0  0  0  0  0  0  0
    0.7739  172.7440   35.6156 C   0  0  0  0  0  0  0  0  0  0  0  0
   -0.0936  173.4931   34.8195 C   0  0  0  0  0  0  0  0  0  0  0  0
    3.7280  176.7264   33.7616 C   0  0  0  0  0  0  0  0  0  0  0  0
    3.5682  177.9064   33.1291 C   0  0  0  0  0  0  0  0  0  0  0  0
   -0.2722  177.3749   32.6260 H   0  0  0  0  0  0  0  0  0  0  0  0
    1.3664  174.8475   34.5259 H   0  0  0  0  0  0  0  0  0  0  0  0
    3.8762  173.1857   36.3392 H   0  0  0  0  0  0  0  0  0  0  0  0
    2.8325  172.3441   37.2715 H   0  0  0  0  0  0  0  0  0  0  0  0
    3.2567  171.7738   35.8013 H   0  0  0  0  0  0  0  0  0  0  0  0
    1.6583  179.7546   30.1407 H   0  0  0  0  0  0  0  0  0  0  0  0
    2.8952  178.7304   30.4371 H   0  0  0  0  0  0  0  0  0  0  0  0
    1.3621  178.1695   30.3985 H   0  0  0  0  0  0  0  0  0  0  0  0
    2.3876  179.9814   32.4216 H   0  0  0  0  0  0  0  0  0  0  0  0
    0.8544  179.4204   32.3830 H   0  0  0  0  0  0  0  0  0  0  0  0
   -1.1866  170.1936   36.3668 H   0  0  0  0  0  0  0  0  0  0  0  0
   -2.7024  171.4312   35.0362 H   0  0  0  0  0  0  0  0  0  0  0  0
    6.9253  177.0121   34.3032 H   0  0  0  0  0  0  0  0  0  0  0  0
    6.6245  179.1163   33.1729 H   0  0  0  0  0  0  0  0  0  0  0  0
    1.0001  171.0440   36.7930 H   0  0  0  0  0  0  0  0  0  0  0  0
   -2.0455  173.5387   34.0887 H   0  0  0  0  0  0  0  0  0  0  0  0
    5.0541  175.5216   34.6775 H   0  0  0  0  0  0  0  0  0  0  0  0
    4.3586  179.6953   32.4673 H   0  0  0  0  0  0  0  0  0  0  0  0
  1 18  2  0  0  0  0
  2  7  1  0  0  0  0
  2 20  1  0  0  0  0
  3 18  1  0  0  0  0
  3 19  1  0  0  0  0
  4 18  1  0  0  0  0
  4 21  1  0  0  0  0
  5 19  2  0  0  0  0
  5 22  1  0  0  0  0
  6  9  1  0  0  0  0
  6 19  1  0  0  0  0
  6 23  1  0  0  0  0
  8  9  1  0  0  0  0
 10 11  2  0  0  0  0
 10 14  1  0  0  0  0
 11 15  1  0  0  0  0
 12 13  2  0  0  0  0
 12 16  1  0  0  0  0
 13 17  1  0  0  0  0
 14 20  2  0  0  0  0
 15 21  2  0  0  0  0
 16 22  2  0  0  0  0
 17 23  2  0  0  0  0
 20 21  1  0  0  0  0
 22 23  1  0  0  0  0
  3 24  1  0  0  0  0
  4 25  1  0  0  0  0
  7 26  1  0  0  0  0
  7 27  1  0  0  0  0
  7 28  1  0  0  0  0
  8 29  1  0  0  0  0
  8 30  1  0  0  0  0
  8 31  1  0  0  0  0
  9 32  1  0  0  0  0
  9 33  1  0  0  0  0
 10 34  1  0  0  0  0
 11 35  1  0  0  0  0
 12 36  1  0  0  0  0
 13 37  1  0  0  0  0
 14 38  1  0  0  0  0
 15 39  1  0  0  0  0
 16 40  1  0  0  0  0
 17 41  1  0  0  0  0
M  END
> <pdb_id>
4BO2

> <uniprot_id>
O54438

> <usmiles>
O=C(Nc1c(OC)cccc1)NC2=Nc3c(N2CC)cccc3

$$$$
370_A_1411
          07202411503D 1   1.00000     0.00000     0
            
 52 56  0  0  0  0            999 V2000
   21.9238  -19.3729  -25.6310 S   0  0  0  0  0  0  0  0  0  0  0  0
   23.8875  -17.2165  -25.8782 O   0  0  0  0  0  0  0  0  0  0  0  0
   24.7951  -20.5802  -23.3133 O   0  0  0  0  0  0  0  0  0  0  0  0
   26.1524  -17.0526  -25.6922 N   0  0  0  0  0  0  0  0  0  0  0  0
   25.7479  -18.3088  -25.2234 N   0  0  0  0  0  0  0  0  0  0  0  0
   22.1127  -13.0712  -25.1499 N   0  0  0  0  0  0  0  0  0  0  0  0
   23.2246  -12.4147  -24.5735 N   0  0  0  0  0  0  0  0  0  0  0  0
   27.2993  -20.2217  -20.9908 N   0  0  0  0  0  0  0  0  0  0  0  0
   21.6006  -14.9899  -26.6462 C   0  0  0  0  0  0  0  0  0  0  0  0
   25.7984  -12.5755  -24.6150 C   0  0  0  0  0  0  0  0  0  0  0  0
   26.5756  -19.0075  -21.4184 C   0  0  0  0  0  0  0  0  0  0  0  0
   26.9090  -21.5238  -21.5082 C   0  0  0  0  0  0  0  0  0  0  0  0
   19.7798  -22.3007  -23.7754 C   0  0  0  0  0  0  0  0  0  0  0  0
   20.7838  -22.8252  -22.9273 C   0  0  0  0  0  0  0  0  0  0  0  0
   25.0468  -19.2093  -21.2539 C   0  0  0  0  0  0  0  0  0  0  0  0
   25.4201  -21.7439  -21.2947 C   0  0  0  0  0  0  0  0  0  0  0  0
   20.0411  -21.2122  -24.7052 C   0  0  0  0  0  0  0  0  0  0  0  0
   22.0947  -22.3039  -22.8840 C   0  0  0  0  0  0  0  0  0  0  0  0
   25.0284  -15.0037  -26.5852 C   0  0  0  0  0  0  0  0  0  0  0  0
   25.0395  -16.4089  -26.0721 C   0  0  0  0  0  0  0  0  0  0  0  0
   24.4403  -18.3474  -25.4397 C   0  0  0  0  0  0  0  0  0  0  0  0
   21.3542  -20.6876  -24.7249 C   0  0  0  0  0  0  0  0  0  0  0  0
   23.4974  -19.3913  -25.0643 C   0  0  0  0  0  0  0  0  0  0  0  0
   24.6207  -20.5689  -21.8706 C   0  0  0  0  0  0  0  0  0  0  0  0
   22.5386  -14.0838  -25.9192 C   0  0  0  0  0  0  0  0  0  0  0  0
   24.3815  -12.9692  -24.9881 C   0  0  0  0  0  0  0  0  0  0  0  0
   23.6330  -20.4021  -23.9903 C   0  0  0  0  0  0  0  0  0  0  0  0
   22.3839  -21.1867  -23.7566 C   0  0  0  0  0  0  0  0  0  0  0  0
   24.0234  -14.1117  -25.8808 C   0  0  0  0  0  0  0  0  0  0  0  0
   21.1558  -12.8191  -25.0060 H   0  0  0  0  0  0  0  0  0  0  0  0
   27.2171  -20.2707  -19.9954 H   0  0  0  0  0  0  0  0  0  0  0  0
   22.1244  -15.6715  -27.1571 H   0  0  0  0  0  0  0  0  0  0  0  0
   21.0056  -15.4514  -25.9881 H   0  0  0  0  0  0  0  0  0  0  0  0
   21.0435  -14.4537  -27.2804 H   0  0  0  0  0  0  0  0  0  0  0  0
   26.4458  -13.1755  -25.0850 H   0  0  0  0  0  0  0  0  0  0  0  0
   25.9638  -11.6277  -24.8879 H   0  0  0  0  0  0  0  0  0  0  0  0
   25.9195  -12.6636  -23.6263 H   0  0  0  0  0  0  0  0  0  0  0  0
   26.7826  -18.8206  -22.3787 H   0  0  0  0  0  0  0  0  0  0  0  0
   26.8688  -18.2334  -20.8573 H   0  0  0  0  0  0  0  0  0  0  0  0
   27.4211  -22.2372  -21.0298 H   0  0  0  0  0  0  0  0  0  0  0  0
   27.1130  -21.5661  -22.4863 H   0  0  0  0  0  0  0  0  0  0  0  0
   18.8601  -22.6911  -23.7345 H   0  0  0  0  0  0  0  0  0  0  0  0
   20.5551  -23.5971  -22.3341 H   0  0  0  0  0  0  0  0  0  0  0  0
   24.5630  -18.4684  -21.7196 H   0  0  0  0  0  0  0  0  0  0  0  0
   24.8144  -19.1996  -20.2813 H   0  0  0  0  0  0  0  0  0  0  0  0
   25.2350  -21.8201  -20.3149 H   0  0  0  0  0  0  0  0  0  0  0  0
   25.1423  -22.5881  -21.7531 H   0  0  0  0  0  0  0  0  0  0  0  0
   19.3250  -20.8518  -25.3029 H   0  0  0  0  0  0  0  0  0  0  0  0
   22.7912  -22.6888  -22.2783 H   0  0  0  0  0  0  0  0  0  0  0  0
   24.8054  -15.0241  -27.5598 H   0  0  0  0  0  0  0  0  0  0  0  0
   25.9406  -14.6135  -26.4600 H   0  0  0  0  0  0  0  0  0  0  0  0
   23.6525  -20.7172  -21.6688 H   0  0  0  0  0  0  0  0  0  0  0  0
  1 22  1  0  0  0  0
  1 23  1  0  0  0  0
  2 20  1  0  0  0  0
  2 21  1  0  0  0  0
  3 24  1  0  0  0  0
  3 27  1  0  0  0  0
  4  5  1  0  0  0  0
  4 20  2  0  0  0  0
  5 21  2  0  0  0  0
  6  7  1  0  0  0  0
  6 25  1  0  0  0  0
  7 26  2  0  0  0  0
  8 11  1  0  0  0  0
  8 12  1  0  0  0  0
  9 25  1  0  0  0  0
 10 26  1  0  0  0  0
 11 15  1  0  0  0  0
 12 16  1  0  0  0  0
 13 14  2  0  0  0  0
 13 17  1  0  0  0  0
 14 18  1  0  0  0  0
 15 24  1  0  0  0  0
 16 24  1  0  0  0  0
 17 22  2  0  0  0  0
 18 28  2  0  0  0  0
 19 20  1  0  0  0  0
 19 29  1  0  0  0  0
 21 23  1  0  0  0  0
 22 28  1  0  0  0  0
 23 27  2  0  0  0  0
 25 29  2  0  0  0  0
 26 29  1  0  0  0  0
 27 28  1  0  0  0  0
  6 30  1  0  0  0  0
  8 31  1  0  0  0  0
  9 32  1  0  0  0  0
  9 33  1  0  0  0  0
  9 34  1  0  0  0  0
 10 35  1  0  0  0  0
 10 36  1  0  0  0  0
 10 37  1  0  0  0  0
 11 38  1  0  0  0  0
 11 39  1  0  0  0  0
 12 40  1  0  0  0  0
 12 41  1  0  0  0  0
 13 42  1  0  0  0  0
 14 43  1  0  0  0  0
 15 44  1  0  0  0  0
 15 45  1  0  0  0  0
 16 46  1  0  0  0  0
 16 47  1  0  0  0  0
 17 48  1  0  0  0  0
 18 49  1  0  0  0  0
 19 50  1  0  0  0  0
 19 51  1  0  0  0  0
 24 52  1  0  0  0  0
M  END
> <pdb_id>
4CAF

> <uniprot_id>
A5K1A2

> <usmiles>
S1c2c(cccc2)C(OC3CCNCC3)=C1C=4OC(=NN4)CC=5C(=NNC5C)C

$$$$
387_B_806
          07192416263D 1   1.00000     0.00000     0
            
 43 44  0  0  0  0            999 V2000
  -41.5990   17.3358    7.2197 Cl  0  0  0  0  0  0  0  0  0  0  0  0
  -36.7567   14.9713    7.0930 Cl  0  0  0  0  0  0  0  0  0  0  0  0
  -45.2238   13.9193   13.0439 O   0  0  0  0  0  0  0  0  0  0  0  0
  -46.4190   17.1902   16.2951 O   0  0  0  0  0  0  0  0  0  0  0  0
  -41.6043   11.5460    8.3563 N   0  0  0  0  0  0  0  0  0  0  0  0
  -43.3760   13.0324   12.1321 N   0  0  0  0  0  0  0  0  0  0  0  0
  -43.1738   14.7028   13.6882 N   0  0  0  0  0  0  0  0  0  0  0  0
  -42.7461   12.1977    9.0145 C   0  0  0  0  0  0  0  0  0  0  0  0
  -44.1187   12.2121   11.1829 C   0  0  0  0  0  0  0  0  0  0  0  0
  -43.2264   11.4280   10.2384 C   0  0  0  0  0  0  0  0  0  0  0  0
  -42.8794   17.7834   15.6940 C   0  0  0  0  0  0  0  0  0  0  0  0
  -41.2139   12.1683    7.0839 C   0  0  0  0  0  0  0  0  0  0  0  0
  -44.1670   17.9557   16.1729 C   0  0  0  0  0  0  0  0  0  0  0  0
  -42.5635   16.7014   14.8866 C   0  0  0  0  0  0  0  0  0  0  0  0
  -39.2617   16.0064    7.2478 C   0  0  0  0  0  0  0  0  0  0  0  0
  -41.2671   14.6665    7.1977 C   0  0  0  0  0  0  0  0  0  0  0  0
  -39.1144   13.5995    7.1974 C   0  0  0  0  0  0  0  0  0  0  0  0
  -44.8252   15.9249   15.0709 C   0  0  0  0  0  0  0  0  0  0  0  0
  -44.0037   13.8989   12.9437 C   0  0  0  0  0  0  0  0  0  0  0  0
  -40.6352   15.8906    7.2291 C   0  0  0  0  0  0  0  0  0  0  0  0
  -38.5153   14.8471    7.2121 C   0  0  0  0  0  0  0  0  0  0  0  0
  -45.1400   17.0250   15.8553 C   0  0  0  0  0  0  0  0  0  0  0  0
  -43.5396   15.7637   14.5680 C   0  0  0  0  0  0  0  0  0  0  0  0
  -40.5095   13.5030    7.1849 C   0  0  0  0  0  0  0  0  0  0  0  0
  -47.1187   16.5146   16.0629 H   0  0  0  0  0  0  0  0  0  0  0  0
  -41.8460   10.5921    8.1787 H   0  0  0  0  0  0  0  0  0  0  0  0
  -42.3806   12.9482   12.1798 H   0  0  0  0  0  0  0  0  0  0  0  0
  -42.1941   14.5216   13.6025 H   0  0  0  0  0  0  0  0  0  0  0  0
  -43.4994   12.2635    8.3602 H   0  0  0  0  0  0  0  0  0  0  0  0
  -42.4712   13.1159    9.2998 H   0  0  0  0  0  0  0  0  0  0  0  0
  -44.7076   12.8104   10.6395 H   0  0  0  0  0  0  0  0  0  0  0  0
  -44.6831   11.5655   11.6961 H   0  0  0  0  0  0  0  0  0  0  0  0
  -42.4220   11.1271   10.7505 H   0  0  0  0  0  0  0  0  0  0  0  0
  -43.7375   10.6292    9.9211 H   0  0  0  0  0  0  0  0  0  0  0  0
  -42.1698   18.4463   15.9330 H   0  0  0  0  0  0  0  0  0  0  0  0
  -42.0433   12.3008    6.5413 H   0  0  0  0  0  0  0  0  0  0  0  0
  -40.6025   11.5353    6.6090 H   0  0  0  0  0  0  0  0  0  0  0  0
  -44.3917   18.7459   16.7432 H   0  0  0  0  0  0  0  0  0  0  0  0
  -41.6339   16.5954   14.5335 H   0  0  0  0  0  0  0  0  0  0  0  0
  -38.8204   16.9029    7.2862 H   0  0  0  0  0  0  0  0  0  0  0  0
  -42.2657   14.6165    7.1842 H   0  0  0  0  0  0  0  0  0  0  0  0
  -38.5530   12.7719    7.1959 H   0  0  0  0  0  0  0  0  0  0  0  0
  -45.5278   15.2435   14.8659 H   0  0  0  0  0  0  0  0  0  0  0  0
  1 20  1  0  0  0  0
  2 21  1  0  0  0  0
  3 19  2  0  0  0  0
  4 22  1  0  0  0  0
  5  8  1  0  0  0  0
  5 12  1  0  0  0  0
  6  9  1  0  0  0  0
  6 19  1  0  0  0  0
  7 19  1  0  0  0  0
  7 23  1  0  0  0  0
  8 10  1  0  0  0  0
  9 10  1  0  0  0  0
 11 13  2  0  0  0  0
 11 14  1  0  0  0  0
 12 24  1  0  0  0  0
 13 22  1  0  0  0  0
 14 23  2  0  0  0  0
 15 20  2  0  0  0  0
 15 21  1  0  0  0  0
 16 20  1  0  0  0  0
 16 24  2  0  0  0  0
 17 21  2  0  0  0  0
 17 24  1  0  0  0  0
 18 22  2  0  0  0  0
 18 23  1  0  0  0  0
  4 25  1  0  0  0  0
  5 26  1  0  0  0  0
  6 27  1  0  0  0  0
  7 28  1  0  0  0  0
  8 29  1  0  0  0  0
  8 30  1  0  0  0  0
  9 31  1  0  0  0  0
  9 32  1  0  0  0  0
 10 33  1  0  0  0  0
 10 34  1  0  0  0  0
 11 35  1  0  0  0  0
 12 36  1  0  0  0  0
 12 37  1  0  0  0  0
 13 38  1  0  0  0  0
 14 39  1  0  0  0  0
 15 40  1  0  0  0  0
 16 41  1  0  0  0  0
 17 42  1  0  0  0  0
 18 43  1  0  0  0  0
M  END
> <pdb_id>
4MVY

> <uniprot_id>
Q38C91

> <usmiles>
Clc1cc(Cl)cc(c1)CNCCCNC(=O)Nc2cc(O)ccc2

$$$$
388_A_600
          07202404503D 1   1.00000     0.00000     0
            
 36 37  0  0  0  0            999 V2000
   62.9931   -4.0538   33.3798 Br  0  0  0  0  0  0  0  0  0  0  0  0
   62.1320  -11.7381   42.0411 Cl  0  0  0  0  0  0  0  0  0  0  0  0
   67.4496   -4.4902   35.9948 F   0  0  0  0  0  0  0  0  0  0  0  0
   63.4810   -6.1362   40.6655 O   0  0  0  0  0  0  0  0  0  0  0  0
   62.8175   -5.8260   42.7288 O   0  0  0  0  0  0  0  0  0  0  0  0
   66.4848   -9.2458   37.6451 O   0  0  0  0  0  0  0  0  0  0  0  0
   65.3940   -7.8304   41.2650 O   0  0  0  0  0  0  0  0  0  0  0  0
   66.0150   -7.2814   38.6917 N   0  0  0  0  0  0  0  0  0  0  0  0
   64.8197   -7.1321   42.3809 C   0  0  0  0  0  0  0  0  0  0  0  0
   66.7190   -6.4744   37.6926 C   0  0  0  0  0  0  0  0  0  0  0  0
   63.5835   -5.8934   35.4487 C   0  0  0  0  0  0  0  0  0  0  0  0
   63.5490  -11.3170   39.7882 C   0  0  0  0  0  0  0  0  0  0  0  0
   64.4317   -6.4031   36.4543 C   0  0  0  0  0  0  0  0  0  0  0  0
   64.4722  -10.5873   39.0211 C   0  0  0  0  0  0  0  0  0  0  0  0
   65.3620   -4.3564   34.8210 C   0  0  0  0  0  0  0  0  0  0  0  0
   63.8188   -9.6732   41.5677 C   0  0  0  0  0  0  0  0  0  0  0  0
   64.0627   -4.8330   34.6780 C   0  0  0  0  0  0  0  0  0  0  0  0
   63.6254   -6.3361   41.9726 C   0  0  0  0  0  0  0  0  0  0  0  0
   63.3108  -10.8755   41.1049 C   0  0  0  0  0  0  0  0  0  0  0  0
   66.2246   -4.9862   35.7518 C   0  0  0  0  0  0  0  0  0  0  0  0
   65.8733   -8.6083   38.5328 C   0  0  0  0  0  0  0  0  0  0  0  0
   64.7078   -8.9287   40.7806 C   0  0  0  0  0  0  0  0  0  0  0  0
   65.7333   -5.9646   36.6263 C   0  0  0  0  0  0  0  0  0  0  0  0
   64.9671   -9.3567   39.4715 C   0  0  0  0  0  0  0  0  0  0  0  0
   64.1299   -6.5433   40.0228 H   0  0  0  0  0  0  0  0  0  0  0  0
   65.6343   -6.8387   39.5036 H   0  0  0  0  0  0  0  0  0  0  0  0
   65.5057   -6.5145   42.7656 H   0  0  0  0  0  0  0  0  0  0  0  0
   64.5447   -7.7981   43.0743 H   0  0  0  0  0  0  0  0  0  0  0  0
   67.4212   -7.0337   37.2522 H   0  0  0  0  0  0  0  0  0  0  0  0
   67.1499   -5.6929   38.1440 H   0  0  0  0  0  0  0  0  0  0  0  0
   62.6732   -6.2774   35.2940 H   0  0  0  0  0  0  0  0  0  0  0  0
   63.0798  -12.1174   39.4150 H   0  0  0  0  0  0  0  0  0  0  0  0
   64.0783   -7.1095   37.0676 H   0  0  0  0  0  0  0  0  0  0  0  0
   64.7801  -10.9511   38.1419 H   0  0  0  0  0  0  0  0  0  0  0  0
   65.6818   -3.5817   34.2755 H   0  0  0  0  0  0  0  0  0  0  0  0
   63.5496   -9.3341   42.4691 H   0  0  0  0  0  0  0  0  0  0  0  0
  1 17  1  0  0  0  0
  2 19  1  0  0  0  0
  3 20  1  0  0  0  0
  4 18  1  0  0  0  0
  5 18  2  0  0  0  0
  6 21  2  0  0  0  0
  7  9  1  0  0  0  0
  7 22  1  0  0  0  0
  8 10  1  0  0  0  0
  8 21  1  0  0  0  0
  9 18  1  0  0  0  0
 10 23  1  0  0  0  0
 11 13  1  0  0  0  0
 11 17  2  0  0  0  0
 12 14  1  0  0  0  0
 12 19  2  0  0  0  0
 13 23  2  0  0  0  0
 14 24  2  0  0  0  0
 15 17  1  0  0  0  0
 15 20  2  0  0  0  0
 16 19  1  0  0  0  0
 16 22  2  0  0  0  0
 20 23  1  0  0  0  0
 21 24  1  0  0  0  0
 22 24  1  0  0  0  0
  4 25  1  0  0  0  0
  8 26  1  0  0  0  0
  9 27  1  0  0  0  0
  9 28  1  0  0  0  0
 10 29  1  0  0  0  0
 10 30  1  0  0  0  0
 11 31  1  0  0  0  0
 12 32  1  0  0  0  0
 13 33  1  0  0  0  0
 14 34  1  0  0  0  0
 15 35  1  0  0  0  0
 16 36  1  0  0  0  0
M  END
> <pdb_id>
2IKI

> <uniprot_id>
P15121

> <usmiles>
Brc1cc(F)c(cc1)CNC(=O)c2c(OCC(=O)O)cc(Cl)cc2

$$$$
392_B_808
          07192416263D 1   1.00000     0.00000     0
            
 43 44  0  0  0  0            999 V2000
  -41.4796   17.4177    7.1826 Cl  0  0  0  0  0  0  0  0  0  0  0  0
  -36.6541   15.0236    7.0913 Cl  0  0  0  0  0  0  0  0  0  0  0  0
  -45.3093   14.3210   12.8354 O   0  0  0  0  0  0  0  0  0  0  0  0
  -45.8814   15.0677   15.0112 O   0  0  0  0  0  0  0  0  0  0  0  0
  -41.5154   11.7052    8.4870 N   0  0  0  0  0  0  0  0  0  0  0  0
  -43.4681   13.1710   12.2150 N   0  0  0  0  0  0  0  0  0  0  0  0
  -43.3004   14.7843   13.8385 N   0  0  0  0  0  0  0  0  0  0  0  0
  -42.7034   12.3380    9.0687 C   0  0  0  0  0  0  0  0  0  0  0  0
  -44.1543   12.3964   11.1879 C   0  0  0  0  0  0  0  0  0  0  0  0
  -43.2128   11.5950   10.2933 C   0  0  0  0  0  0  0  0  0  0  0  0
  -44.2613   18.0764   16.2692 C   0  0  0  0  0  0  0  0  0  0  0  0
  -43.0166   17.9684   15.6784 C   0  0  0  0  0  0  0  0  0  0  0  0
  -41.1329   12.2547    7.1781 C   0  0  0  0  0  0  0  0  0  0  0  0
  -45.2072   17.0872   16.0859 C   0  0  0  0  0  0  0  0  0  0  0  0
  -42.7080   16.8747   14.8839 C   0  0  0  0  0  0  0  0  0  0  0  0
  -39.1485   16.0820    7.2232 C   0  0  0  0  0  0  0  0  0  0  0  0
  -41.1633   14.7525    7.2442 C   0  0  0  0  0  0  0  0  0  0  0  0
  -39.0203   13.6711    7.2033 C   0  0  0  0  0  0  0  0  0  0  0  0
  -44.1014   14.1162   12.9406 C   0  0  0  0  0  0  0  0  0  0  0  0
  -40.5245   15.9734    7.2358 C   0  0  0  0  0  0  0  0  0  0  0  0
  -38.4110   14.9156    7.1932 C   0  0  0  0  0  0  0  0  0  0  0  0
  -44.9109   15.9749   15.3057 C   0  0  0  0  0  0  0  0  0  0  0  0
  -40.4147   13.5839    7.2271 C   0  0  0  0  0  0  0  0  0  0  0  0
  -43.6564   15.8704   14.6896 C   0  0  0  0  0  0  0  0  0  0  0  0
  -45.6653   14.2687   14.4500 H   0  0  0  0  0  0  0  0  0  0  0  0
  -41.6998   10.7284    8.3775 H   0  0  0  0  0  0  0  0  0  0  0  0
  -42.4986   12.9965   12.3869 H   0  0  0  0  0  0  0  0  0  0  0  0
  -42.3534   14.4693   13.9013 H   0  0  0  0  0  0  0  0  0  0  0  0
  -43.4278   12.3563    8.3796 H   0  0  0  0  0  0  0  0  0  0  0  0
  -42.4718   13.2739    9.3339 H   0  0  0  0  0  0  0  0  0  0  0  0
  -44.6761   13.0266   10.6129 H   0  0  0  0  0  0  0  0  0  0  0  0
  -44.7805   11.7598   11.6381 H   0  0  0  0  0  0  0  0  0  0  0  0
  -42.4223   11.3212   10.8412 H   0  0  0  0  0  0  0  0  0  0  0  0
  -43.7004   10.7797    9.9811 H   0  0  0  0  0  0  0  0  0  0  0  0
  -44.4778   18.8743   16.8319 H   0  0  0  0  0  0  0  0  0  0  0  0
  -42.3337   18.6840   15.8248 H   0  0  0  0  0  0  0  0  0  0  0  0
  -41.9650   12.3717    6.6359 H   0  0  0  0  0  0  0  0  0  0  0  0
  -40.5320   11.5941    6.7281 H   0  0  0  0  0  0  0  0  0  0  0  0
  -46.1067   17.1708   16.5148 H   0  0  0  0  0  0  0  0  0  0  0  0
  -41.8088   16.8061   14.4518 H   0  0  0  0  0  0  0  0  0  0  0  0
  -38.7008   16.9761    7.2354 H   0  0  0  0  0  0  0  0  0  0  0  0
  -42.1622   14.7086    7.2626 H   0  0  0  0  0  0  0  0  0  0  0  0
  -38.4650   12.8395    7.1936 H   0  0  0  0  0  0  0  0  0  0  0  0
  1 20  1  0  0  0  0
  2 21  1  0  0  0  0
  3 19  2  0  0  0  0
  4 22  1  0  0  0  0
  5  8  1  0  0  0  0
  5 13  1  0  0  0  0
  6  9  1  0  0  0  0
  6 19  1  0  0  0  0
  7 19  1  0  0  0  0
  7 24  1  0  0  0  0
  8 10  1  0  0  0  0
  9 10  1  0  0  0  0
 11 12  2  0  0  0  0
 11 14  1  0  0  0  0
 12 15  1  0  0  0  0
 13 23  1  0  0  0  0
 14 22  2  0  0  0  0
 15 24  2  0  0  0  0
 16 20  2  0  0  0  0
 16 21  1  0  0  0  0
 17 20  1  0  0  0  0
 17 23  2  0  0  0  0
 18 21  2  0  0  0  0
 18 23  1  0  0  0  0
 22 24  1  0  0  0  0
  4 25  1  0  0  0  0
  5 26  1  0  0  0  0
  6 27  1  0  0  0  0
  7 28  1  0  0  0  0
  8 29  1  0  0  0  0
  8 30  1  0  0  0  0
  9 31  1  0  0  0  0
  9 32  1  0  0  0  0
 10 33  1  0  0  0  0
 10 34  1  0  0  0  0
 11 35  1  0  0  0  0
 12 36  1  0  0  0  0
 13 37  1  0  0  0  0
 13 38  1  0  0  0  0
 14 39  1  0  0  0  0
 15 40  1  0  0  0  0
 16 41  1  0  0  0  0
 17 42  1  0  0  0  0
 18 43  1  0  0  0  0
M  END
> <pdb_id>
4MW0

> <uniprot_id>
Q38C91

> <usmiles>
Clc1cc(Cl)cc(c1)CNCCCNC(=O)Nc2c(O)cccc2

$$$$
393_A_600
          07202404503D 1   1.00000     0.00000     0
            
 38 39  0  0  0  0            999 V2000
   62.0903  -11.7893   42.2279 Cl  0  0  0  0  0  0  0  0  0  0  0  0
   64.6329   -3.1897   32.6292 O   0  5  0  0  0  0  0  0  0  0  0  0
   66.5233   -3.4010   33.7359 O   0  0  0  0  0  0  0  0  0  0  0  0
   62.8351   -5.8212   42.7812 O   0  0  0  0  0  0  0  0  0  0  0  0
   63.3683   -6.1085   40.6546 O   0  0  0  0  0  0  0  0  0  0  0  0
   66.1678   -9.1080   37.6458 O   0  0  0  0  0  0  0  0  0  0  0  0
   65.2938   -7.8797   41.1670 O   0  0  0  0  0  0  0  0  0  0  0  0
   65.4374   -7.2006   38.5330 N   0  0  0  0  0  0  0  0  0  0  0  0
   65.3439   -3.6474   33.5340 N   0  3  0  0  0  0  0  0  0  0  0  0
   64.7994   -7.1262   42.3044 C   0  0  0  0  0  0  0  0  0  0  0  0
   66.1364   -6.4135   37.5376 C   0  0  0  0  0  0  0  0  0  0  0  0
   63.0216   -5.8373   35.3222 C   0  0  0  0  0  0  0  0  0  0  0  0
   63.2480  -11.2879   39.8529 C   0  0  0  0  0  0  0  0  0  0  0  0
   63.5176   -4.9322   34.3815 C   0  0  0  0  0  0  0  0  0  0  0  0
   63.8505   -6.3107   36.3469 C   0  0  0  0  0  0  0  0  0  0  0  0
   64.0356  -10.5108   38.9969 C   0  0  0  0  0  0  0  0  0  0  0  0
   63.7934   -9.7980   41.6695 C   0  0  0  0  0  0  0  0  0  0  0  0
   65.6833   -5.0151   35.4854 C   0  0  0  0  0  0  0  0  0  0  0  0
   63.6226   -6.2886   41.8370 C   0  0  0  0  0  0  0  0  0  0  0  0
   63.1246  -10.9344   41.2026 C   0  0  0  0  0  0  0  0  0  0  0  0
   65.5535   -8.5389   38.5436 C   0  0  0  0  0  0  0  0  0  0  0  0
   64.5831   -9.0190   40.8165 C   0  0  0  0  0  0  0  0  0  0  0  0
   64.8471   -4.5425   34.4806 C   0  0  0  0  0  0  0  0  0  0  0  0
   65.1934   -5.9144   36.4341 C   0  0  0  0  0  0  0  0  0  0  0  0
   64.7023   -9.3864   39.4557 C   0  0  0  0  0  0  0  0  0  0  0  0
   63.0596   -5.9786   43.7429 H   0  0  0  0  0  0  0  0  0  0  0  0
   64.8656   -6.7454   39.2155 H   0  0  0  0  0  0  0  0  0  0  0  0
   65.5213   -6.5305   42.6565 H   0  0  0  0  0  0  0  0  0  0  0  0
   64.5042   -7.7538   43.0248 H   0  0  0  0  0  0  0  0  0  0  0  0
   66.8496   -6.9780   37.1220 H   0  0  0  0  0  0  0  0  0  0  0  0
   66.5553   -5.6239   37.9860 H   0  0  0  0  0  0  0  0  0  0  0  0
   62.0729   -6.1480   35.2640 H   0  0  0  0  0  0  0  0  0  0  0  0
   62.7735  -12.0950   39.5015 H   0  0  0  0  0  0  0  0  0  0  0  0
   62.9308   -4.5738   33.6554 H   0  0  0  0  0  0  0  0  0  0  0  0
   63.4789   -6.9419   37.0278 H   0  0  0  0  0  0  0  0  0  0  0  0
   64.1191  -10.7721   38.0352 H   0  0  0  0  0  0  0  0  0  0  0  0
   63.7056   -9.5374   42.6309 H   0  0  0  0  0  0  0  0  0  0  0  0
   66.6350   -4.7112   35.5286 H   0  0  0  0  0  0  0  0  0  0  0  0
  1 20  1  0  0  0  0
  2  9  1  0  0  0  0
  3  9  2  0  0  0  0
  4 19  1  0  0  0  0
  5 19  2  0  0  0  0
  6 21  2  0  0  0  0
  7 10  1  0  0  0  0
  7 22  1  0  0  0  0
  8 11  1  0  0  0  0
  8 21  1  0  0  0  0
  9 23  1  0  0  0  0
 10 19  1  0  0  0  0
 11 24  1  0  0  0  0
 12 14  1  0  0  0  0
 12 15  2  0  0  0  0
 13 16  2  0  0  0  0
 13 20  1  0  0  0  0
 14 23  2  0  0  0  0
 15 24  1  0  0  0  0
 16 25  1  0  0  0  0
 17 20  2  0  0  0  0
 17 22  1  0  0  0  0
 18 23  1  0  0  0  0
 18 24  2  0  0  0  0
 21 25  1  0  0  0  0
 22 25  2  0  0  0  0
  4 26  1  0  0  0  0
  8 27  1  0  0  0  0
 10 28  1  0  0  0  0
 10 29  1  0  0  0  0
 11 30  1  0  0  0  0
 11 31  1  0  0  0  0
 12 32  1  0  0  0  0
 13 33  1  0  0  0  0
 14 34  1  0  0  0  0
 15 35  1  0  0  0  0
 16 36  1  0  0  0  0
 17 37  1  0  0  0  0
 18 38  1  0  0  0  0
M  CHG  2   2  -1   9   1
M  END
> <pdb_id>
2IKJ

> <uniprot_id>
P15121

> <usmiles>
Clc1cc(OCC(=O)O)c(cc1)C(=O)NCc2cc([N+]([O-])=O)ccc2

$$$$
39D_A_301
          07212401303D 1   1.00000     0.00000     0
            
 64 67  0  0  0  0            999 V2000
   49.0992  -21.4773   31.7612 O   0  0  0  0  0  0  0  0  0  0  0  0
   39.4721  -18.3503   29.9666 O   0  0  0  0  0  0  0  0  0  0  0  0
   36.7289  -12.3490   27.1747 N   0  0  0  0  0  0  0  0  0  0  0  0
   47.9554  -22.5781   33.3659 N   0  0  0  0  0  0  0  0  0  0  0  0
   41.9361  -20.9151   29.6802 N   0  0  0  0  0  0  0  0  0  0  0  0
   41.8191  -20.3187   27.5505 N   0  0  0  0  0  0  0  0  0  0  0  0
   38.9575  -19.6223   28.1728 N   0  0  0  0  0  0  0  0  0  0  0  0
   41.4162  -25.4531   29.3137 C   0  0  0  0  0  0  0  0  0  0  0  0
   40.4538  -24.8649   30.1089 C   0  0  0  0  0  0  0  0  0  0  0  0
   41.6516  -24.9577   28.0451 C   0  0  0  0  0  0  0  0  0  0  0  0
   43.1427  -20.3902   27.8596 C   0  0  0  0  0  0  0  0  0  0  0  0
   39.7168  -23.7903   29.6326 C   0  0  0  0  0  0  0  0  0  0  0  0
   40.9106  -23.8840   27.5689 C   0  0  0  0  0  0  0  0  0  0  0  0
   46.7745  -20.7458   30.3844 C   0  0  0  0  0  0  0  0  0  0  0  0
   45.4572  -22.0301   31.9152 C   0  0  0  0  0  0  0  0  0  0  0  0
   45.6331  -20.4402   29.6600 C   0  0  0  0  0  0  0  0  0  0  0  0
   44.3225  -21.7526   31.1708 C   0  0  0  0  0  0  0  0  0  0  0  0
   36.0099  -13.5146   27.6996 C   0  0  0  0  0  0  0  0  0  0  0  0
   37.7905  -15.2196   27.0951 C   0  0  0  0  0  0  0  0  0  0  0  0
   36.1414  -15.7569   28.8628 C   0  0  0  0  0  0  0  0  0  0  0  0
   38.7288  -16.3269   27.6126 C   0  0  0  0  0  0  0  0  0  0  0  0
   37.0643  -16.8420   29.4334 C   0  0  0  0  0  0  0  0  0  0  0  0
   39.2129  -22.0502   27.8803 C   0  0  0  0  0  0  0  0  0  0  0  0
   48.0090  -21.8705   32.2454 C   0  0  0  0  0  0  0  0  0  0  0  0
   38.8786  -18.5019   28.8944 C   0  0  0  0  0  0  0  0  0  0  0  0
   41.1309  -20.6548   28.6638 C   0  0  0  0  0  0  0  0  0  0  0  0
   39.9312  -23.2918   28.3542 C   0  0  0  0  0  0  0  0  0  0  0  0
   43.2123  -20.7488   29.1760 C   0  0  0  0  0  0  0  0  0  0  0  0
   46.7057  -21.5413   31.5263 C   0  0  0  0  0  0  0  0  0  0  0  0
   44.3943  -20.9601   30.0278 C   0  0  0  0  0  0  0  0  0  0  0  0
   36.9271  -14.6319   28.2064 C   0  0  0  0  0  0  0  0  0  0  0  0
   39.6413  -20.8027   28.6729 C   0  0  1  0  0  0  0  0  0  0  0  0
   37.9428  -17.4427   28.3300 C   0  0  0  0  0  0  0  0  0  0  0  0
   36.1251  -11.6407   26.7723 H   0  0  0  0  0  0  0  0  0  0  0  0
   37.3470  -11.9196   27.8559 H   0  0  0  0  0  0  0  0  0  0  0  0
   47.0949  -22.8984   33.7937 H   0  0  0  0  0  0  0  0  0  0  0  0
   48.7981  -22.8251   33.8749 H   0  0  0  0  0  0  0  0  0  0  0  0
   41.4378  -20.0597   26.6462 H   0  0  0  0  0  0  0  0  0  0  0  0
   38.5576  -19.6923   27.2416 H   0  0  0  0  0  0  0  0  0  0  0  0
   41.9841  -26.3084   29.6759 H   0  0  0  0  0  0  0  0  0  0  0  0
   40.2735  -25.2434   31.1147 H   0  0  0  0  0  0  0  0  0  0  0  0
   42.4171  -25.4056   27.4133 H   0  0  0  0  0  0  0  0  0  0  0  0
   43.9370  -20.1885   27.1417 H   0  0  0  0  0  0  0  0  0  0  0  0
   38.9615  -23.3374   30.2733 H   0  0  0  0  0  0  0  0  0  0  0  0
   41.1272  -23.4887   26.5787 H   0  0  0  0  0  0  0  0  0  0  0  0
   47.7139  -20.3336   30.0186 H   0  0  0  0  0  0  0  0  0  0  0  0
   45.3299  -22.6380   32.8061 H   0  0  0  0  0  0  0  0  0  0  0  0
   45.7139  -19.7810   28.7974 H   0  0  0  0  0  0  0  0  0  0  0  0
   43.3727  -22.1728   31.4977 H   0  0  0  0  0  0  0  0  0  0  0  0
   35.3621  -13.8883   26.9086 H   0  0  0  0  0  0  0  0  0  0  0  0
   35.3345  -13.1776   28.4849 H   0  0  0  0  0  0  0  0  0  0  0  0
   37.1636  -15.6093   26.2939 H   0  0  0  0  0  0  0  0  0  0  0  0
   38.3914  -14.4434   26.6234 H   0  0  0  0  0  0  0  0  0  0  0  0
   35.4649  -16.2072   28.1402 H   0  0  0  0  0  0  0  0  0  0  0  0
   35.4861  -15.3510   29.6307 H   0  0  0  0  0  0  0  0  0  0  0  0
   39.3076  -16.7416   26.7894 H   0  0  0  0  0  0  0  0  0  0  0  0
   39.4687  -15.9040   28.2877 H   0  0  0  0  0  0  0  0  0  0  0  0
   36.4643  -17.6202   29.9021 H   0  0  0  0  0  0  0  0  0  0  0  0
   37.6743  -16.4322   30.2367 H   0  0  0  0  0  0  0  0  0  0  0  0
   39.4139  -21.8870   26.8229 H   0  0  0  0  0  0  0  0  0  0  0  0
   38.1328  -22.1697   27.9315 H   0  0  0  0  0  0  0  0  0  0  0  0
   37.5937  -14.2175   28.9611 H   0  0  0  0  0  0  0  0  0  0  0  0
   39.3490  -20.9666   29.7071 H   0  0  0  0  0  0  0  0  0  0  0  0
   37.2573  -17.8860   27.6095 H   0  0  0  0  0  0  0  0  0  0  0  0
  1 24  2  0  0  0  0
  2 25  2  0  0  0  0
  3 18  1  0  0  0  0
  3 34  1  0  0  0  0
  3 35  1  0  0  0  0
  4 24  1  0  0  0  0
  4 36  1  0  0  0  0
  4 37  1  0  0  0  0
  5 26  2  0  0  0  0
  5 28  1  0  0  0  0
  6 11  1  0  0  0  0
  6 26  1  0  0  0  0
  6 38  1  0  0  0  0
  7 25  1  0  0  0  0
  7 32  1  0  0  0  0
  7 39  1  0  0  0  0
  8  9  2  0  0  0  0
  8 10  1  0  0  0  0
  8 40  1  0  0  0  0
  9 12  1  0  0  0  0
  9 41  1  0  0  0  0
 10 13  2  0  0  0  0
 10 42  1  0  0  0  0
 11 28  2  0  0  0  0
 11 43  1  0  0  0  0
 12 27  2  0  0  0  0
 12 44  1  0  0  0  0
 13 27  1  0  0  0  0
 13 45  1  0  0  0  0
 14 16  1  0  0  0  0
 14 29  2  0  0  0  0
 14 46  1  0  0  0  0
 15 17  2  0  0  0  0
 15 29  1  0  0  0  0
 15 47  1  0  0  0  0
 16 30  2  0  0  0  0
 16 48  1  0  0  0  0
 17 30  1  0  0  0  0
 17 49  1  0  0  0  0
 18 31  1  0  0  0  0
 18 50  1  0  0  0  0
 18 51  1  0  0  0  0
 19 21  1  0  0  0  0
 19 31  1  0  0  0  0
 19 52  1  0  0  0  0
 19 53  1  0  0  0  0
 20 22  1  0  0  0  0
 20 31  1  0  0  0  0
 20 54  1  0  0  0  0
 20 55  1  0  0  0  0
 21 33  1  0  0  0  0
 21 56  1  0  0  0  0
 21 57  1  0  0  0  0
 22 33  1  0  0  0  0
 22 58  1  0  0  0  0
 22 59  1  0  0  0  0
 23 27  1  0  0  0  0
 23 32  1  0  0  0  0
 23 60  1  0  0  0  0
 23 61  1  0  0  0  0
 24 29  1  0  0  0  0
 25 33  1  0  0  0  0
 26 32  1  0  0  0  0
 28 30  1  0  0  0  0
 31 62  1  0  0  0  0
 32 63  1  0  0  0  0
 33 64  1  0  0  0  0
M  END
> <pdb_id>
4TY6

> <uniprot_id>
P03951

> <usmiles>
O=C(N)c1ccc(cc1)C=2N=C(NC2)[C@@H](NC(=O)C3CCC(CN)CC3)Cc4ccccc4

$$$$
39F_A_301
          07212401303D 1   1.00000     0.00000     0
            
 65 69  0  0  0  0            999 V2000
   44.2175  -20.1585   26.5834 Cl  0  0  0  0  0  0  0  0  0  0  0  0
   39.3772  -18.2703   29.8794 O   0  0  0  0  0  0  0  0  0  0  0  0
   36.7944  -12.2887   27.2609 N   0  0  0  0  0  0  0  0  0  0  0  0
   48.0012  -22.6691   33.1238 N   0  0  0  0  0  0  0  0  0  0  0  0
   48.5973  -21.2039   31.3358 N   0  0  0  0  0  0  0  0  0  0  0  0
   47.8637  -20.5879   30.3879 N   0  0  0  0  0  0  0  0  0  0  0  0
   41.6627  -20.3349   27.3992 N   0  0  0  0  0  0  0  0  0  0  0  0
   38.7382  -19.6162   28.1258 N   0  0  0  0  0  0  0  0  0  0  0  0
   41.8003  -20.9052   29.5288 N   0  0  0  0  0  0  0  0  0  0  0  0
   35.9825  -13.3949   27.6955 C   0  0  0  0  0  0  0  0  0  0  0  0
   41.4419  -25.3551   29.3194 C   0  0  0  0  0  0  0  0  0  0  0  0
   41.6635  -24.8308   28.0295 C   0  0  0  0  0  0  0  0  0  0  0  0
   40.4324  -24.8228   30.1260 C   0  0  0  0  0  0  0  0  0  0  0  0
   40.8618  -23.7802   27.5625 C   0  0  0  0  0  0  0  0  0  0  0  0
   39.6559  -23.7572   29.6706 C   0  0  0  0  0  0  0  0  0  0  0  0
   35.9900  -15.7109   28.7571 C   0  0  0  0  0  0  0  0  0  0  0  0
   37.7911  -15.0878   27.0597 C   0  0  0  0  0  0  0  0  0  0  0  0
   36.8604  -16.8827   29.2473 C   0  0  0  0  0  0  0  0  0  0  0  0
   38.7120  -16.2137   27.5801 C   0  0  0  0  0  0  0  0  0  0  0  0
   44.0218  -21.9004   31.0444 C   0  0  0  0  0  0  0  0  0  0  0  0
   45.1072  -22.2760   31.8581 C   0  0  0  0  0  0  0  0  0  0  0  0
   39.0172  -22.0722   27.8945 C   0  0  0  0  0  0  0  0  0  0  0  0
   45.4528  -20.4675   29.6523 C   0  0  0  0  0  0  0  0  0  0  0  0
   42.9767  -20.4488   27.7508 C   0  0  0  0  0  0  0  0  0  0  0  0
   38.7538  -18.4375   28.8247 C   0  0  0  0  0  0  0  0  0  0  0  0
   47.7071  -21.8950   32.0464 C   0  0  0  0  0  0  0  0  0  0  0  0
   40.9824  -20.5863   28.4918 C   0  0  0  0  0  0  0  0  0  0  0  0
   39.4765  -20.7645   28.6041 C   0  0  1  0  0  0  0  0  0  0  0  0
   46.5278  -20.8882   30.4474 C   0  0  0  0  0  0  0  0  0  0  0  0
   43.0799  -20.7361   29.1008 C   0  0  0  0  0  0  0  0  0  0  0  0
   36.8638  -14.5638   28.1806 C   0  0  0  0  0  0  0  0  0  0  0  0
   39.8373  -23.2609   28.3713 C   0  0  0  0  0  0  0  0  0  0  0  0
   37.8928  -17.3626   28.2151 C   0  0  0  0  0  0  0  0  0  0  0  0
   44.1971  -21.0256   29.9546 C   0  0  0  0  0  0  0  0  0  0  0  0
   46.3865  -21.7632   31.5348 C   0  0  0  0  0  0  0  0  0  0  0  0
   36.2041  -11.5433   26.9512 H   0  0  0  0  0  0  0  0  0  0  0  0
   37.3604  -11.9714   28.0218 H   0  0  0  0  0  0  0  0  0  0  0  0
   47.2715  -23.1567   33.6032 H   0  0  0  0  0  0  0  0  0  0  0  0
   48.9472  -22.7511   33.4372 H   0  0  0  0  0  0  0  0  0  0  0  0
   48.2566  -19.9706   29.7063 H   0  0  0  0  0  0  0  0  0  0  0  0
   38.2120  -19.6831   27.2780 H   0  0  0  0  0  0  0  0  0  0  0  0
   41.5143  -21.2079   30.4380 H   0  0  0  0  0  0  0  0  0  0  0  0
   35.4164  -13.7060   26.9321 H   0  0  0  0  0  0  0  0  0  0  0  0
   35.3939  -13.0947   28.4462 H   0  0  0  0  0  0  0  0  0  0  0  0
   42.0070  -26.1078   29.6571 H   0  0  0  0  0  0  0  0  0  0  0  0
   42.3881  -25.2062   27.4515 H   0  0  0  0  0  0  0  0  0  0  0  0
   40.2660  -25.2076   31.0338 H   0  0  0  0  0  0  0  0  0  0  0  0
   41.0195  -23.3994   26.6513 H   0  0  0  0  0  0  0  0  0  0  0  0
   38.9694  -23.3469   30.2708 H   0  0  0  0  0  0  0  0  0  0  0  0
   35.4549  -15.3587   29.5250 H   0  0  0  0  0  0  0  0  0  0  0  0
   35.3719  -16.0402   28.0433 H   0  0  0  0  0  0  0  0  0  0  0  0
   37.2306  -15.4439   26.3120 H   0  0  0  0  0  0  0  0  0  0  0  0
   38.3553  -14.3337   26.7235 H   0  0  0  0  0  0  0  0  0  0  0  0
   36.2592  -17.6496   29.4719 H   0  0  0  0  0  0  0  0  0  0  0  0
   37.3489  -16.5902   30.0694 H   0  0  0  0  0  0  0  0  0  0  0  0
   39.3310  -15.8359   28.2687 H   0  0  0  0  0  0  0  0  0  0  0  0
   39.2452  -16.5774   26.8163 H   0  0  0  0  0  0  0  0  0  0  0  0
   43.1105  -22.2609   31.2435 H   0  0  0  0  0  0  0  0  0  0  0  0
   44.9787  -22.8860   32.6400 H   0  0  0  0  0  0  0  0  0  0  0  0
   39.1342  -21.9679   26.9069 H   0  0  0  0  0  0  0  0  0  0  0  0
   38.0524  -22.2356   28.1004 H   0  0  0  0  0  0  0  0  0  0  0  0
   45.5718  -19.8071   28.9109 H   0  0  0  0  0  0  0  0  0  0  0  0
   39.2641  -20.8669   29.5759 H   0  0  0  0  0  0  0  0  0  0  0  0
   37.4434  -14.2216   28.9201 H   0  0  0  0  0  0  0  0  0  0  0  0
   37.3786  -17.7928   27.4732 H   0  0  0  0  0  0  0  0  0  0  0  0
  1 24  1  0  0  0  0
  2 25  2  0  0  0  0
  3 10  1  0  0  0  0
  4 26  1  0  0  0  0
  5  6  1  0  0  0  0
  5 26  2  0  0  0  0
  6 29  1  0  0  0  0
  7 24  1  0  0  0  0
  7 27  2  0  0  0  0
  8 25  1  0  0  0  0
  8 28  1  0  0  0  0
  9 27  1  0  0  0  0
  9 30  1  0  0  0  0
 10 31  1  0  0  0  0
 11 12  2  0  0  0  0
 11 13  1  0  0  0  0
 12 14  1  0  0  0  0
 13 15  2  0  0  0  0
 14 32  2  0  0  0  0
 15 32  1  0  0  0  0
 16 18  1  0  0  0  0
 16 31  1  0  0  0  0
 17 19  1  0  0  0  0
 17 31  1  0  0  0  0
 18 33  1  0  0  0  0
 19 33  1  0  0  0  0
 20 21  1  0  0  0  0
 20 34  2  0  0  0  0
 21 35  2  0  0  0  0
 22 28  1  0  0  0  0
 22 32  1  0  0  0  0
 23 29  2  0  0  0  0
 23 34  1  0  0  0  0
 24 30  2  0  0  0  0
 25 33  1  0  0  0  0
 26 35  1  0  0  0  0
 27 28  1  0  0  0  0
 29 35  1  0  0  0  0
 30 34  1  0  0  0  0
  3 36  1  0  0  0  0
  3 37  1  0  0  0  0
  4 38  1  0  0  0  0
  4 39  1  0  0  0  0
  6 40  1  0  0  0  0
  8 41  1  0  0  0  0
  9 42  1  0  0  0  0
 10 43  1  0  0  0  0
 10 44  1  0  0  0  0
 11 45  1  0  0  0  0
 12 46  1  0  0  0  0
 13 47  1  0  0  0  0
 14 48  1  0  0  0  0
 15 49  1  0  0  0  0
 16 50  1  0  0  0  0
 16 51  1  0  0  0  0
 17 52  1  0  0  0  0
 17 53  1  0  0  0  0
 18 54  1  0  0  0  0
 18 55  1  0  0  0  0
 19 56  1  0  0  0  0
 19 57  1  0  0  0  0
 20 58  1  0  0  0  0
 21 59  1  0  0  0  0
 22 60  1  0  0  0  0
 22 61  1  0  0  0  0
 23 62  1  0  0  0  0
 28 63  1  0  0  0  0
 31 64  1  0  0  0  0
 33 65  1  0  0  0  0
M  END
> <pdb_id>
4TY7

> <uniprot_id>
P03951

> <usmiles>
ClC=1N=C(NC1c2cc3NN=C(N)c3cc2)[C@@H](NC(=O)C4CCC(CN)CC4)Cc5ccccc5

$$$$
39X_B_201
          07192422023D 1   1.00000     0.00000     0
            
 44 47  0  0  0  0            999 V2000
   31.0494  -24.5913  -13.8158 F   0  0  0  0  0  0  0  0  0  0  0  0
   39.6688  -28.0400  -17.2357 O   0  0  0  0  0  0  0  0  0  0  0  0
   39.3416  -26.9173  -19.1228 O   0  0  0  0  0  0  0  0  0  0  0  0
   34.8241  -27.6752  -17.9923 O   0  0  0  0  0  0  0  0  0  0  0  0
   35.4713  -24.6094  -17.0065 N   0  0  0  0  0  0  0  0  0  0  0  0
   36.7140  -26.7379  -18.7714 N   0  0  0  0  0  0  0  0  0  0  0  0
   35.5183  -25.8916  -15.1883 N   0  0  0  0  0  0  0  0  0  0  0  0
   33.0916  -24.6942  -24.5069 C   0  0  0  0  0  0  0  0  0  0  0  0
   34.4490  -24.9520  -24.6516 C   0  0  0  0  0  0  0  0  0  0  0  0
   32.0237  -23.8044  -15.7998 C   0  0  0  0  0  0  0  0  0  0  0  0
   32.4541  -24.9769  -23.3319 C   0  0  0  0  0  0  0  0  0  0  0  0
   35.1644  -25.5018  -23.6262 C   0  0  0  0  0  0  0  0  0  0  0  0
   33.1186  -23.7561  -16.6514 C   0  0  0  0  0  0  0  0  0  0  0  0
   33.3103  -26.1804  -19.9037 C   0  0  0  0  0  0  0  0  0  0  0  0
   32.5715  -25.7421  -20.9615 C   0  0  0  0  0  0  0  0  0  0  0  0
   33.2001  -25.3465  -14.3296 C   0  0  0  0  0  0  0  0  0  0  0  0
   35.2698  -26.3057  -21.2751 C   0  0  0  0  0  0  0  0  0  0  0  0
   37.5388  -25.8978  -16.6068 C   0  0  0  0  0  0  0  0  0  0  0  0
   32.1031  -24.5836  -14.6668 C   0  0  0  0  0  0  0  0  0  0  0  0
   38.9694  -27.3699  -18.0185 C   0  0  0  0  0  0  0  0  0  0  0  0
   35.4086  -27.0385  -18.8662 C   0  0  0  0  0  0  0  0  0  0  0  0
   36.1896  -25.4347  -16.2678 C   0  0  0  0  0  0  0  0  0  0  0  0
   34.2498  -24.5085  -16.3491 C   0  0  0  0  0  0  0  0  0  0  0  0
   34.2770  -25.2993  -15.1991 C   0  0  0  0  0  0  0  0  0  0  0  0
   34.6661  -26.4934  -20.0525 C   0  0  0  0  0  0  0  0  0  0  0  0
   33.1648  -25.5277  -22.2320 C   0  0  0  0  0  0  0  0  0  0  0  0
   34.5441  -25.8063  -22.3877 C   0  0  0  0  0  0  0  0  0  0  0  0
   37.5212  -27.0677  -17.6011 C   0  0  2  0  0  0  0  0  0  0  0  0
   37.2322  -26.8177  -19.6396 H   0  0  0  0  0  0  0  0  0  0  0  0
   35.8010  -26.5980  -14.5182 H   0  0  0  0  0  0  0  0  0  0  0  0
   32.5151  -24.2632  -25.3240 H   0  0  0  0  0  0  0  0  0  0  0  0
   34.9379  -24.7175  -25.5958 H   0  0  0  0  0  0  0  0  0  0  0  0
   31.1250  -23.2318  -16.0243 H   0  0  0  0  0  0  0  0  0  0  0  0
   31.3931  -24.7725  -23.2068 H   0  0  0  0  0  0  0  0  0  0  0  0
   36.2261  -25.7086  -23.7464 H   0  0  0  0  0  0  0  0  0  0  0  0
   33.0759  -23.1403  -17.5480 H   0  0  0  0  0  0  0  0  0  0  0  0
   32.8742  -26.2067  -18.9066 H   0  0  0  0  0  0  0  0  0  0  0  0
   31.5060  -25.5452  -20.8572 H   0  0  0  0  0  0  0  0  0  0  0  0
   33.2189  -25.9639  -13.4332 H   0  0  0  0  0  0  0  0  0  0  0  0
   36.3235  -26.5299  -21.4157 H   0  0  0  0  0  0  0  0  0  0  0  0
   38.1298  -25.0972  -17.0484 H   0  0  0  0  0  0  0  0  0  0  0  0
   38.0048  -26.1430  -15.6541 H   0  0  0  0  0  0  0  0  0  0  0  0
   37.1414  -27.9624  -17.1092 H   0  0  0  0  0  0  0  0  0  0  0  0
   39.2834  -28.3606  -16.3704 H   0  0  0  0  0  0  0  0  0  0  0  0
  1 19  1  0  0  0  0
  2 20  1  0  0  0  0
  3 20  2  0  0  0  0
  4 21  2  0  0  0  0
  5 22  2  0  0  0  0
  5 23  1  0  0  0  0
  6 21  1  0  0  0  0
  6 28  1  0  0  0  0
  6 29  1  0  0  0  0
  7 22  1  0  0  0  0
  7 24  1  0  0  0  0
  7 30  1  0  0  0  0
  8  9  1  0  0  0  0
  8 11  2  0  0  0  0
  8 31  1  0  0  0  0
  9 12  2  0  0  0  0
  9 32  1  0  0  0  0
 10 13  1  0  0  0  0
 10 19  2  0  0  0  0
 10 33  1  0  0  0  0
 11 26  1  0  0  0  0
 11 34  1  0  0  0  0
 12 27  1  0  0  0  0
 12 35  1  0  0  0  0
 13 23  2  0  0  0  0
 13 36  1  0  0  0  0
 14 15  1  0  0  0  0
 14 25  2  0  0  0  0
 14 37  1  0  0  0  0
 15 26  2  0  0  0  0
 15 38  1  0  0  0  0
 16 19  1  0  0  0  0
 16 24  2  0  0  0  0
 16 39  1  0  0  0  0
 17 25  1  0  0  0  0
 17 27  2  0  0  0  0
 17 40  1  0  0  0  0
 18 22  1  0  0  0  0
 18 28  1  0  0  0  0
 18 41  1  0  0  0  0
 18 42  1  0  0  0  0
 20 28  1  0  0  0  0
 21 25  1  0  0  0  0
 23 24  1  0  0  0  0
 26 27  1  0  0  0  0
 28 43  1  0  0  0  0
  2 44  1  0  0  0  0
M  END
> <pdb_id>
4TYO

> <uniprot_id>
Q13526

> <usmiles>
Fc1cc2NC(=Nc2cc1)C[C@@H](NC(=O)c3cc4c(cc3)cccc4)C(=O)O

$$$$
39Z_A_501
          07202403043D 1   1.00000     0.00000     0
            
 30 32  0  0  0  0            999 V2000
   85.2367   13.1922   13.1906 O   0  0  0  0  0  0  0  0  0  0  0  0
   80.1353   17.8514   11.5484 O   0  0  0  0  0  0  0  0  0  0  0  0
   86.9924   14.6270   13.8534 N   0  0  0  0  0  0  0  0  0  0  0  0
   83.1547   13.3372   12.3529 N   0  0  0  0  0  0  0  0  0  0  0  0
   84.7640   17.7055   13.5660 C   0  0  0  0  0  0  0  0  0  0  0  0
   88.2236   14.7102   14.3533 C   0  0  0  0  0  0  0  0  0  0  0  0
   88.4433   15.9761   14.6909 C   0  0  0  0  0  0  0  0  0  0  0  0
   87.3453   16.6722   14.3988 C   0  0  0  0  0  0  0  0  0  0  0  0
   80.2475   15.4683   11.4015 C   0  0  0  0  0  0  0  0  0  0  0  0
   80.9723   14.2781   11.5785 C   0  0  0  0  0  0  0  0  0  0  0  0
   82.1275   16.7498   12.2658 C   0  0  0  0  0  0  0  0  0  0  0  0
   84.2709   13.8662   12.8524 C   0  0  0  0  0  0  0  0  0  0  0  0
   80.8266   16.7016   11.7436 C   0  0  0  0  0  0  0  0  0  0  0  0
   86.4360   15.8399   13.8770 C   0  0  0  0  0  0  0  0  0  0  0  0
   82.2791   14.3162   12.0986 C   0  0  0  0  0  0  0  0  0  0  0  0
   85.1307   16.2083   13.4490 C   0  0  0  0  0  0  0  0  0  0  0  0
   82.8669   15.5570   12.4499 C   0  0  0  0  0  0  0  0  0  0  0  0
   84.1532   15.2592   12.9394 C   0  0  0  0  0  0  0  0  0  0  0  0
   80.5468   18.7297   11.7918 H   0  0  0  0  0  0  0  0  0  0  0  0
   86.5563   13.7929   13.5157 H   0  0  0  0  0  0  0  0  0  0  0  0
   82.9966   12.3627   12.1935 H   0  0  0  0  0  0  0  0  0  0  0  0
   83.8297   17.8465   13.2387 H   0  0  0  0  0  0  0  0  0  0  0  0
   84.8288   17.9908   14.5223 H   0  0  0  0  0  0  0  0  0  0  0  0
   85.3964   18.2478   13.0128 H   0  0  0  0  0  0  0  0  0  0  0  0
   88.8689   13.9533   14.4565 H   0  0  0  0  0  0  0  0  0  0  0  0
   89.2831   16.3414   15.0925 H   0  0  0  0  0  0  0  0  0  0  0  0
   87.2212   17.6536   14.5452 H   0  0  0  0  0  0  0  0  0  0  0  0
   79.3189   15.4376   11.0317 H   0  0  0  0  0  0  0  0  0  0  0  0
   80.5584   13.4012   11.3341 H   0  0  0  0  0  0  0  0  0  0  0  0
   82.5342   17.6304   12.5089 H   0  0  0  0  0  0  0  0  0  0  0  0
  1 12  2  0  0  0  0
  2 13  1  0  0  0  0
  3  6  1  0  0  0  0
  3 14  1  0  0  0  0
  4 12  1  0  0  0  0
  4 15  1  0  0  0  0
  5 16  1  0  0  0  0
  6  7  2  0  0  0  0
  7  8  1  0  0  0  0
  8 14  2  0  0  0  0
  9 10  1  0  0  0  0
  9 13  2  0  0  0  0
 10 15  2  0  0  0  0
 11 13  1  0  0  0  0
 11 17  2  0  0  0  0
 12 18  1  0  0  0  0
 14 16  1  0  0  0  0
 15 17  1  0  0  0  0
 16 18  2  0  0  0  0
 17 18  1  0  0  0  0
  2 19  1  0  0  0  0
  3 20  1  0  0  0  0
  4 21  1  0  0  0  0
  5 22  1  0  0  0  0
  5 23  1  0  0  0  0
  5 24  1  0  0  0  0
  6 25  1  0  0  0  0
  7 26  1  0  0  0  0
  8 27  1  0  0  0  0
  9 28  1  0  0  0  0
 10 29  1  0  0  0  0
 11 30  1  0  0  0  0
M  END
> <pdb_id>
2PE0

> <uniprot_id>
O15530

> <usmiles>
O=C/1Nc2c(cc(O)cc2)\C1=C(\C=3NC=CC3)/C

$$$$
3A8_A_302
          07202405023D 1   1.00000     0.00000     0
            
 35 38  0  0  0  0            999 V2000
  -15.1170   79.4590    7.1770 O   0  0  0  0  0  0  0  0  0  0  0  0
  -10.1020   83.9290    3.1220 O   0  0  0  0  0  0  0  0  0  0  0  0
  -16.8420   79.7910    4.6460 N   0  0  0  0  0  0  0  0  0  0  0  0
  -17.2310   80.4260    3.6990 N   0  0  0  0  0  0  0  0  0  0  0  0
  -14.5550   81.5800    6.6310 N   0  0  0  0  0  0  0  0  0  0  0  0
  -17.3250   84.4820    0.7320 C   0  0  0  0  0  0  0  0  0  0  0  0
  -16.8710   84.8740    1.9900 C   0  0  0  0  0  0  0  0  0  0  0  0
  -17.5520   83.1370    0.4760 C   0  0  0  0  0  0  0  0  0  0  0  0
  -16.6450   83.9330    2.9940 C   0  0  0  0  0  0  0  0  0  0  0  0
  -17.3230   82.1980    1.4810 C   0  0  0  0  0  0  0  0  0  0  0  0
  -12.0820   84.5410    4.3090 C   0  0  0  0  0  0  0  0  0  0  0  0
  -11.6880   82.2480    3.6800 C   0  0  0  0  0  0  0  0  0  0  0  0
  -13.2910   84.1700    4.9020 C   0  0  0  0  0  0  0  0  0  0  0  0
  -12.8960   81.8740    4.2700 C   0  0  0  0  0  0  0  0  0  0  0  0
  -15.2060   80.4440    6.4430 C   0  0  0  0  0  0  0  0  0  0  0  0
  -11.2820   83.5780    3.6980 C   0  0  0  0  0  0  0  0  0  0  0  0
  -15.9720   80.5000    5.3580 C   0  0  0  0  0  0  0  0  0  0  0  0
  -16.6520   81.6300    3.6980 C   0  0  0  0  0  0  0  0  0  0  0  0
  -14.9260   82.4700    5.5070 C   0  0  1  0  0  0  0  0  0  0  0  0
  -16.8700   82.5730    2.7530 C   0  0  0  0  0  0  0  0  0  0  0  0
  -13.7180   82.8340    4.8740 C   0  0  0  0  0  0  0  0  0  0  0  0
  -15.8270   81.6870    4.7540 C   0  0  0  0  0  0  0  0  0  0  0  0
   -9.5323   83.2329    2.6850 H   0  0  0  0  0  0  0  0  0  0  0  0
  -17.1332   78.8599    4.8658 H   0  0  0  0  0  0  0  0  0  0  0  0
  -13.9340   81.7956    7.3845 H   0  0  0  0  0  0  0  0  0  0  0  0
  -17.4860   85.1647    0.0192 H   0  0  0  0  0  0  0  0  0  0  0  0
  -16.7052   85.8426    2.1751 H   0  0  0  0  0  0  0  0  0  0  0  0
  -17.8775   82.8434   -0.4228 H   0  0  0  0  0  0  0  0  0  0  0  0
  -16.3203   84.2318    3.8914 H   0  0  0  0  0  0  0  0  0  0  0  0
  -17.4865   81.2304    1.2888 H   0  0  0  0  0  0  0  0  0  0  0  0
  -11.7908   85.4976    4.3230 H   0  0  0  0  0  0  0  0  0  0  0  0
  -11.1122   81.5572    3.2427 H   0  0  0  0  0  0  0  0  0  0  0  0
  -13.8567   84.8622    5.3501 H   0  0  0  0  0  0  0  0  0  0  0  0
  -13.1767   80.9142    4.2616 H   0  0  0  0  0  0  0  0  0  0  0  0
  -15.3892   83.2852    5.8547 H   0  0  0  0  0  0  0  0  0  0  0  0
  1 15  2  0  0  0  0
  2 16  1  0  0  0  0
  3  4  1  0  0  0  0
  3 17  1  0  0  0  0
  4 18  2  0  0  0  0
  5 15  1  0  0  0  0
  5 19  1  0  0  0  0
  6  7  2  0  0  0  0
  6  8  1  0  0  0  0
  7  9  1  0  0  0  0
  8 10  2  0  0  0  0
  9 20  2  0  0  0  0
 10 20  1  0  0  0  0
 11 13  1  0  0  0  0
 11 16  2  0  0  0  0
 12 14  2  0  0  0  0
 12 16  1  0  0  0  0
 13 21  2  0  0  0  0
 14 21  1  0  0  0  0
 15 17  1  0  0  0  0
 17 22  2  0  0  0  0
 18 20  1  0  0  0  0
 18 22  1  0  0  0  0
 19 21  1  0  0  0  0
 19 22  1  0  0  0  0
  2 23  1  0  0  0  0
  3 24  1  0  0  0  0
  5 25  1  0  0  0  0
  6 26  1  0  0  0  0
  7 27  1  0  0  0  0
  8 28  1  0  0  0  0
  9 29  1  0  0  0  0
 10 30  1  0  0  0  0
 11 31  1  0  0  0  0
 12 32  1  0  0  0  0
 13 33  1  0  0  0  0
 14 34  1  0  0  0  0
 19 35  1  0  0  0  0
M  END
> <pdb_id>
4U0F

> <uniprot_id>
P12493

> <usmiles>
O=C1N[C@@H](c2ccc(O)cc2)C=3C(=NNC13)c4ccccc4

$$$$
3AB_A_302
          07192419343D 1   1.00000     0.00000     0
            
 18 18  0  0  0  0            999 V2000
   48.5610   22.7596   51.2238 O   0  0  0  0  0  0  0  0  0  0  0  0
   47.6166   22.5085   53.2582 N   0  0  0  0  0  0  0  0  0  0  0  0
   46.2174   17.5815   52.5899 N   0  0  0  0  0  0  0  0  0  0  0  0
   45.5976   19.9465   49.8095 C   0  0  0  0  0  0  0  0  0  0  0  0
   45.5453   18.8059   50.5907 C   0  0  0  0  0  0  0  0  0  0  0  0
   46.3055   21.0518   50.2418 C   0  0  0  0  0  0  0  0  0  0  0  0
   46.9041   19.8820   52.2556 C   0  0  0  0  0  0  0  0  0  0  0  0
   47.7675   22.1783   51.9828 C   0  0  0  0  0  0  0  0  0  0  0  0
   46.2077   18.7567   51.8249 C   0  0  0  0  0  0  0  0  0  0  0  0
   46.9660   21.0259   51.4673 C   0  0  0  0  0  0  0  0  0  0  0  0
   46.9645   22.0105   53.8299 H   0  0  0  0  0  0  0  0  0  0  0  0
   48.1550   23.2554   53.6484 H   0  0  0  0  0  0  0  0  0  0  0  0
   46.6941   17.5608   53.4687 H   0  0  0  0  0  0  0  0  0  0  0  0
   45.7477   16.7640   52.2565 H   0  0  0  0  0  0  0  0  0  0  0  0
   45.1222   19.9712   48.9301 H   0  0  0  0  0  0  0  0  0  0  0  0
   45.0307   18.0099   50.2721 H   0  0  0  0  0  0  0  0  0  0  0  0
   46.3435   21.8730   49.6726 H   0  0  0  0  0  0  0  0  0  0  0  0
   47.3656   19.8678   53.1426 H   0  0  0  0  0  0  0  0  0  0  0  0
  1  8  2  0  0  0  0
  2  8  1  0  0  0  0
  3  9  1  0  0  0  0
  4  5  1  0  0  0  0
  4  6  2  0  0  0  0
  5  9  2  0  0  0  0
  6 10  1  0  0  0  0
  7  9  1  0  0  0  0
  7 10  2  0  0  0  0
  8 10  1  0  0  0  0
  2 11  1  0  0  0  0
  2 12  1  0  0  0  0
  3 13  1  0  0  0  0
  3 14  1  0  0  0  0
  4 15  1  0  0  0  0
  5 16  1  0  0  0  0
  6 17  1  0  0  0  0
  7 18  1  0  0  0  0
M  END
> <pdb_id>
6YIU

> <uniprot_id>
P00760

> <usmiles>
O=C(N)c1cc(N)ccc1

$$$$
3AB_A_409
          07192419533D 1   1.00000     0.00000     0
            
 18 18  0  0  0  0            999 V2000
  117.8950   14.5403  -47.3134 O   0  0  0  0  0  0  0  0  0  0  0  0
  117.4024   15.5622  -45.3851 N   0  0  0  0  0  0  0  0  0  0  0  0
  122.0858   17.0881  -43.9461 N   0  0  0  0  0  0  0  0  0  0  0  0
  121.9562   14.1349  -46.1260 C   0  0  0  0  0  0  0  0  0  0  0  0
  122.4536   15.1258  -45.3078 C   0  0  0  0  0  0  0  0  0  0  0  0
  120.6019   14.1027  -46.4306 C   0  0  0  0  0  0  0  0  0  0  0  0
  120.2366   16.0545  -45.0777 C   0  0  0  0  0  0  0  0  0  0  0  0
  118.2710   15.0286  -46.2387 C   0  0  0  0  0  0  0  0  0  0  0  0
  121.6026   16.0951  -44.7712 C   0  0  0  0  0  0  0  0  0  0  0  0
  119.7376   15.0642  -45.9140 C   0  0  0  0  0  0  0  0  0  0  0  0
  117.7244   15.9518  -44.5223 H   0  0  0  0  0  0  0  0  0  0  0  0
  116.4272   15.5739  -45.6060 H   0  0  0  0  0  0  0  0  0  0  0  0
  121.4621   17.7739  -43.5709 H   0  0  0  0  0  0  0  0  0  0  0  0
  123.0599   17.1228  -43.7229 H   0  0  0  0  0  0  0  0  0  0  0  0
  122.5700   13.4397  -46.5002 H   0  0  0  0  0  0  0  0  0  0  0  0
  123.4307   15.1512  -45.0966 H   0  0  0  0  0  0  0  0  0  0  0  0
  120.2445   13.3830  -47.0258 H   0  0  0  0  0  0  0  0  0  0  0  0
  119.6188   16.7405  -44.6934 H   0  0  0  0  0  0  0  0  0  0  0  0
  1  8  2  0  0  0  0
  2  8  1  0  0  0  0
  3  9  1  0  0  0  0
  4  5  2  0  0  0  0
  4  6  1  0  0  0  0
  5  9  1  0  0  0  0
  6 10  2  0  0  0  0
  7  9  2  0  0  0  0
  7 10  1  0  0  0  0
  8 10  1  0  0  0  0
  2 11  1  0  0  0  0
  2 12  1  0  0  0  0
  3 13  1  0  0  0  0
  3 14  1  0  0  0  0
  4 15  1  0  0  0  0
  5 16  1  0  0  0  0
  6 17  1  0  0  0  0
  7 18  1  0  0  0  0
M  END
> <pdb_id>
8AKF

> <uniprot_id>
Q8N6T7

> <usmiles>
O=C(N)c1cc(N)ccc1

$$$$
3AB_B_1
          07192416313D 1   1.00000     0.00000     0
            
 18 18  0  0  0  0            999 V2000
   -1.1772  -27.7394  -50.6064 O   0  0  0  0  0  0  0  0  0  0  0  0
   -2.4448  -25.9264  -50.2688 N   0  0  0  0  0  0  0  0  0  0  0  0
   -5.4873  -27.5452  -46.5298 N   0  0  0  0  0  0  0  0  0  0  0  0
   -2.2822  -29.2350  -46.7896 C   0  0  0  0  0  0  0  0  0  0  0  0
   -3.5257  -28.8466  -46.3284 C   0  0  0  0  0  0  0  0  0  0  0  0
   -1.8004  -28.6822  -47.9607 C   0  0  0  0  0  0  0  0  0  0  0  0
   -3.8072  -27.3565  -48.1883 C   0  0  0  0  0  0  0  0  0  0  0  0
   -2.0010  -27.1394  -49.9329 C   0  0  0  0  0  0  0  0  0  0  0  0
   -4.2937  -27.9078  -47.0106 C   0  0  0  0  0  0  0  0  0  0  0  0
   -2.5579  -27.7452  -48.6513 C   0  0  0  0  0  0  0  0  0  0  0  0
   -3.1199  -25.4640  -49.6939 H   0  0  0  0  0  0  0  0  0  0  0  0
   -2.1023  -25.4798  -51.0954 H   0  0  0  0  0  0  0  0  0  0  0  0
   -6.0396  -26.8707  -47.0196 H   0  0  0  0  0  0  0  0  0  0  0  0
   -5.8277  -27.9485  -45.6804 H   0  0  0  0  0  0  0  0  0  0  0  0
   -1.7396  -29.9056  -46.2837 H   0  0  0  0  0  0  0  0  0  0  0  0
   -3.8818  -29.2493  -45.4852 H   0  0  0  0  0  0  0  0  0  0  0  0
   -0.9052  -28.9572  -48.3114 H   0  0  0  0  0  0  0  0  0  0  0  0
   -4.3501  -26.6879  -48.6965 H   0  0  0  0  0  0  0  0  0  0  0  0
  1  8  2  0  0  0  0
  2  8  1  0  0  0  0
  3  9  1  0  0  0  0
  4  5  2  0  0  0  0
  4  6  1  0  0  0  0
  5  9  1  0  0  0  0
  6 10  2  0  0  0  0
  7  9  2  0  0  0  0
  7 10  1  0  0  0  0
  8 10  1  0  0  0  0
  2 11  1  0  0  0  0
  2 12  1  0  0  0  0
  3 13  1  0  0  0  0
  3 14  1  0  0  0  0
  4 15  1  0  0  0  0
  5 16  1  0  0  0  0
  6 17  1  0  0  0  0
  7 18  1  0  0  0  0
M  END
> <pdb_id>
3KCZ

> <uniprot_id>
Q9UGN5

> <usmiles>
O=C(N)c1cc(N)ccc1

$$$$
3AD_A_504
          07192421323D 1   1.00000     0.00000     0
            
 31 33  0  0  0  0            999 V2000
   24.0589    7.6484   15.2472 O   0  0  0  0  0  0  0  0  0  0  0  0
   18.9444    8.5397   17.1930 O   0  0  0  0  0  0  0  0  0  0  0  0
   21.6797    9.1525   15.1673 O   0  0  0  0  0  0  0  0  0  0  0  0
   18.6836   14.9843   13.1654 N   0  0  0  0  0  0  0  0  0  0  0  0
   19.8523   14.8315   15.1402 N   0  0  0  0  0  0  0  0  0  0  0  0
   20.5730   12.8537   16.0986 N   0  0  0  0  0  0  0  0  0  0  0  0
   18.9850   11.9324   13.1770 N   0  0  0  0  0  0  0  0  0  0  0  0
   20.0124   10.8941   14.8323 N   0  0  0  0  0  0  0  0  0  0  0  0
   22.7697    7.1831   14.8188 C   0  0  0  0  0  0  0  0  0  0  0  0
   20.4620   14.1665   16.1061 C   0  0  0  0  0  0  0  0  0  0  0  0
   19.3542   10.7555   13.6688 C   0  0  0  0  0  0  0  0  0  0  0  0
   20.2225    7.3734   15.4546 C   0  0  0  0  0  0  0  0  0  0  0  0
   19.4808    8.6610   15.8441 C   0  0  2  0  0  0  0  0  0  0  0  0
   21.6857    7.8324   15.6901 C   0  0  2  0  0  0  0  0  0  0  0  0
   20.5602    9.7859   15.7202 C   0  0  1  0  0  0  0  0  0  0  0  0
   19.2933   14.2308   14.0999 C   0  0  0  0  0  0  0  0  0  0  0  0
   20.0591   12.1815   15.0840 C   0  0  0  0  0  0  0  0  0  0  0  0
   19.3880   12.8513   14.0506 C   0  0  0  0  0  0  0  0  0  0  0  0
   24.7694    7.2283   14.6826 H   0  0  0  0  0  0  0  0  0  0  0  0
   18.4638    9.3819   17.4376 H   0  0  0  0  0  0  0  0  0  0  0  0
   18.2560   14.5492   12.3730 H   0  0  0  0  0  0  0  0  0  0  0  0
   18.6584   15.9792   13.2636 H   0  0  0  0  0  0  0  0  0  0  0  0
   22.7243    6.1886   14.9137 H   0  0  0  0  0  0  0  0  0  0  0  0
   22.6245    7.4336   13.8617 H   0  0  0  0  0  0  0  0  0  0  0  0
   20.8534   14.6786   16.8706 H   0  0  0  0  0  0  0  0  0  0  0  0
   19.1661    9.8772   13.2292 H   0  0  0  0  0  0  0  0  0  0  0  0
   20.0597    7.1244   14.4999 H   0  0  0  0  0  0  0  0  0  0  0  0
   19.9731    6.6067   16.0462 H   0  0  0  0  0  0  0  0  0  0  0  0
   18.7371    8.8324   15.1979 H   0  0  0  0  0  0  0  0  0  0  0  0
   21.9290    7.8172   16.6599 H   0  0  0  0  0  0  0  0  0  0  0  0
   20.7830   10.1492   16.6248 H   0  0  0  0  0  0  0  0  0  0  0  0
  1  9  1  0  0  0  0
  2 13  1  0  0  0  0
  3 14  1  0  0  0  0
  3 15  1  0  0  0  0
  4 16  1  0  0  0  0
  5 10  1  0  0  0  0
  5 16  2  0  0  0  0
  6 10  2  0  0  0  0
  6 17  1  0  0  0  0
  7 11  2  0  0  0  0
  7 18  1  0  0  0  0
  8 11  1  0  0  0  0
  8 15  1  0  0  0  0
  8 17  1  0  0  0  0
  9 14  1  0  0  0  0
 12 13  1  0  0  0  0
 12 14  1  0  0  0  0
 13 15  1  0  0  0  0
 16 18  1  0  0  0  0
 17 18  2  0  0  0  0
  1 19  1  0  0  0  0
  2 20  1  0  0  0  0
  4 21  1  0  0  0  0
  4 22  1  0  0  0  0
  9 23  1  0  0  0  0
  9 24  1  0  0  0  0
 10 25  1  0  0  0  0
 11 26  1  0  0  0  0
 12 27  1  0  0  0  0
 12 28  1  0  0  0  0
 13 29  1  0  0  0  0
 14 30  1  0  0  0  0
 15 31  1  0  0  0  0
M  END
> <pdb_id>
3ONF

> <uniprot_id>
Q9SP37

> <usmiles>
O1[C@@H](N2c3ncnc(N)c3N=C2)[C@H](O)C[C@H]1CO

$$$$
3B4_B_500
          07192421573D 1   1.00000     0.00000     0
            
 33 34  0  0  0  0            999 V2000
   23.2267   14.4395   80.0914 O   0  0  0  0  0  0  0  0  0  0  0  0
   25.2789   14.6580   79.4371 O   0  0  0  0  0  0  0  0  0  0  0  0
   25.9720   14.1205   77.0593 N   0  0  0  0  0  0  0  0  0  0  0  0
   27.3415   17.3026   74.7865 C   0  0  0  0  0  0  0  0  0  0  0  0
   25.7725   17.1508   74.5654 C   0  0  0  0  0  0  0  0  0  0  0  0
   27.6267   17.4771   76.2261 C   0  0  0  0  0  0  0  0  0  0  0  0
   23.3322   11.9123   75.8210 C   0  0  0  0  0  0  0  0  0  0  0  0
   22.4656   11.9219   76.8369 C   0  0  0  0  0  0  0  0  0  0  0  0
   25.1659   16.2215   75.7298 C   0  0  0  0  0  0  0  0  0  0  0  0
   27.2848   16.1958   76.9026 C   0  0  0  0  0  0  0  0  0  0  0  0
   24.5277   12.6260   75.9269 C   0  0  0  0  0  0  0  0  0  0  0  0
   22.7077   12.7013   77.9713 C   0  0  0  0  0  0  0  0  0  0  0  0
   24.1516   14.2473   79.2678 C   0  0  0  0  0  0  0  0  0  0  0  0
   26.2737   15.3066   76.1225 C   0  0  0  0  0  0  0  0  0  0  0  0
   24.7747   13.4536   77.0044 C   0  0  0  0  0  0  0  0  0  0  0  0
   23.9181   13.4051   78.0522 C   0  0  0  0  0  0  0  0  0  0  0  0
   22.3114   14.0809   79.9081 H   0  0  0  0  0  0  0  0  0  0  0  0
   26.6636   13.8310   77.7209 H   0  0  0  0  0  0  0  0  0  0  0  0
   27.6726   18.1006   74.2829 H   0  0  0  0  0  0  0  0  0  0  0  0
   27.8052   16.4819   74.4528 H   0  0  0  0  0  0  0  0  0  0  0  0
   25.5988   16.7291   73.6755 H   0  0  0  0  0  0  0  0  0  0  0  0
   25.3409   18.0523   74.5970 H   0  0  0  0  0  0  0  0  0  0  0  0
   27.0697   18.2198   76.5978 H   0  0  0  0  0  0  0  0  0  0  0  0
   28.5951   17.6874   76.3602 H   0  0  0  0  0  0  0  0  0  0  0  0
   23.1261   11.3970   74.9891 H   0  0  0  0  0  0  0  0  0  0  0  0
   21.6358   11.3662   76.7855 H   0  0  0  0  0  0  0  0  0  0  0  0
   24.3845   15.6988   75.3890 H   0  0  0  0  0  0  0  0  0  0  0  0
   24.8797   16.7791   76.5091 H   0  0  0  0  0  0  0  0  0  0  0  0
   26.8891   16.4096   77.7958 H   0  0  0  0  0  0  0  0  0  0  0  0
   28.1284   15.6737   77.0282 H   0  0  0  0  0  0  0  0  0  0  0  0
   25.2180   12.5361   75.2090 H   0  0  0  0  0  0  0  0  0  0  0  0
   22.0337   12.7559   78.7080 H   0  0  0  0  0  0  0  0  0  0  0  0
   26.7172   14.9613   75.2954 H   0  0  0  0  0  0  0  0  0  0  0  0
  1 13  1  0  0  0  0
  2 13  2  0  0  0  0
  3 14  1  0  0  0  0
  3 15  1  0  0  0  0
  4  5  1  0  0  0  0
  4  6  1  0  0  0  0
  5  9  1  0  0  0  0
  6 10  1  0  0  0  0
  7  8  2  0  0  0  0
  7 11  1  0  0  0  0
  8 12  1  0  0  0  0
  9 14  1  0  0  0  0
 10 14  1  0  0  0  0
 11 15  2  0  0  0  0
 12 16  2  0  0  0  0
 13 16  1  0  0  0  0
 15 16  1  0  0  0  0
  1 17  1  0  0  0  0
  3 18  1  0  0  0  0
  4 19  1  0  0  0  0
  4 20  1  0  0  0  0
  5 21  1  0  0  0  0
  5 22  1  0  0  0  0
  6 23  1  0  0  0  0
  6 24  1  0  0  0  0
  7 25  1  0  0  0  0
  8 26  1  0  0  0  0
  9 27  1  0  0  0  0
  9 28  1  0  0  0  0
 10 29  1  0  0  0  0
 10 30  1  0  0  0  0
 11 31  1  0  0  0  0
 12 32  1  0  0  0  0
 14 33  1  0  0  0  0
M  END
> <pdb_id>
3B4P

> <uniprot_id>
Q396C9

> <usmiles>
O=C(O)c1c(NC2CCCCC2)cccc1

$$$$
3B6_A_1
          07202400533D 1   1.00000     0.00000     0
            
 39 40  0  0  0  0            999 V2000
   23.2535    3.8335    4.4423 I   0  0  0  0  0  0  0  0  0  0  0  0
   27.3745    0.8833    4.4687 O   0  0  0  0  0  0  0  0  0  0  0  0
   30.8059    1.5426    3.7866 O   0  0  0  0  0  0  0  0  0  0  0  0
   30.1768    1.3300    6.5237 O   0  0  0  0  0  0  0  0  0  0  0  0
   29.1425    0.2410   13.0739 N   0  0  0  0  0  0  0  0  0  0  0  0
   23.9126    7.5350    3.6822 N   0  0  0  0  0  0  0  0  0  0  0  0
   28.5778    2.7598    4.0368 N   0  0  0  0  0  0  0  0  0  0  0  0
   29.6392   -0.5348    3.3074 C   0  0  0  0  0  0  0  0  0  0  0  0
   30.0677    0.1959    5.6472 C   0  0  0  0  0  0  0  0  0  0  0  0
   29.2817    0.3953   11.9556 C   0  0  0  0  0  0  0  0  0  0  0  0
   24.6728    6.6952    3.7674 C   0  0  0  0  0  0  0  0  0  0  0  0
   30.2891   -0.1576    8.4175 C   0  0  0  0  0  0  0  0  0  0  0  0
   29.3196    2.0353    8.6166 C   0  0  0  0  0  0  0  0  0  0  0  0
   27.9558    4.9778    3.7447 C   0  0  0  0  0  0  0  0  0  0  0  0
   30.0598   -0.3858    9.7714 C   0  0  0  0  0  0  0  0  0  0  0  0
   29.0893    1.8101    9.9705 C   0  0  0  0  0  0  0  0  0  0  0  0
   26.9822    5.9681    3.6783 C   0  0  0  0  0  0  0  0  0  0  0  0
   26.2499    3.3432    4.1938 C   0  0  0  0  0  0  0  0  0  0  0  0
   25.2684    4.3315    4.1284 C   0  0  0  0  0  0  0  0  0  0  0  0
   28.4425    1.4536    4.2523 C   0  0  0  0  0  0  0  0  0  0  0  0
   29.9235    1.0535    7.8340 C   0  0  0  0  0  0  0  0  0  0  0  0
   27.5936    3.6583    4.0030 C   0  0  0  0  0  0  0  0  0  0  0  0
   29.4629    0.6001   10.5499 C   0  0  0  0  0  0  0  0  0  0  0  0
   25.6416    5.6450    3.8672 C   0  0  0  0  0  0  0  0  0  0  0  0
   29.7613    0.6756    4.2365 C   0  0  1  0  0  0  0  0  0  0  0  0
   30.8750    2.3282    4.4014 H   0  0  0  0  0  0  0  0  0  0  0  0
   29.5061    3.0996    3.8859 H   0  0  0  0  0  0  0  0  0  0  0  0
   28.9063   -1.1322    3.6328 H   0  0  0  0  0  0  0  0  0  0  0  0
   29.4290   -0.2237    2.3806 H   0  0  0  0  0  0  0  0  0  0  0  0
   30.5027   -1.0392    3.3019 H   0  0  0  0  0  0  0  0  0  0  0  0
   29.3308   -0.4011    5.9641 H   0  0  0  0  0  0  0  0  0  0  0  0
   30.9302   -0.3102    5.6475 H   0  0  0  0  0  0  0  0  0  0  0  0
   30.7191   -0.8677    7.8600 H   0  0  0  0  0  0  0  0  0  0  0  0
   29.0505    2.9054    8.2037 H   0  0  0  0  0  0  0  0  0  0  0  0
   28.9177    5.2134    3.6067 H   0  0  0  0  0  0  0  0  0  0  0  0
   30.3240   -1.2576   10.1839 H   0  0  0  0  0  0  0  0  0  0  0  0
   28.6551    2.5178   10.5278 H   0  0  0  0  0  0  0  0  0  0  0  0
   27.2459    6.9151    3.4944 H   0  0  0  0  0  0  0  0  0  0  0  0
   25.9862    2.3967    4.3799 H   0  0  0  0  0  0  0  0  0  0  0  0
  1 19  1  0  0  0  0
  2 20  2  0  0  0  0
  3 25  1  0  0  0  0
  4  9  1  0  0  0  0
  4 21  1  0  0  0  0
  5 10  3  0  0  0  0
  6 11  3  0  0  0  0
  7 20  1  0  0  0  0
  7 22  1  0  0  0  0
  8 25  1  0  0  0  0
  9 25  1  0  0  0  0
 10 23  1  0  0  0  0
 11 24  1  0  0  0  0
 12 15  1  0  0  0  0
 12 21  2  0  0  0  0
 13 16  2  0  0  0  0
 13 21  1  0  0  0  0
 14 17  1  0  0  0  0
 14 22  2  0  0  0  0
 15 23  2  0  0  0  0
 16 23  1  0  0  0  0
 17 24  2  0  0  0  0
 18 19  2  0  0  0  0
 18 22  1  0  0  0  0
 19 24  1  0  0  0  0
 20 25  1  0  0  0  0
  3 26  1  0  0  0  0
  7 27  1  0  0  0  0
  8 28  1  0  0  0  0
  8 29  1  0  0  0  0
  8 30  1  0  0  0  0
  9 31  1  0  0  0  0
  9 32  1  0  0  0  0
 12 33  1  0  0  0  0
 13 34  1  0  0  0  0
 14 35  1  0  0  0  0
 15 36  1  0  0  0  0
 16 37  1  0  0  0  0
 17 38  1  0  0  0  0
 18 39  1  0  0  0  0
M  END
> <pdb_id>
3B65

> <uniprot_id>
P10275

> <usmiles>
Ic1c(C#N)ccc(NC(=O)[C@@](O)(COc2ccc(C#N)cc2)C)c1

$$$$
3BQ_A_601
          07202417413D 1   1.00000     0.00000     0
            
 50 52  0  0  0  0            999 V2000
   -3.0640   -4.3130   31.7780 O   0  0  0  0  0  0  0  0  0  0  0  0
   -4.5980   -1.8780   37.6590 N   0  0  0  0  0  0  0  0  0  0  0  0
    0.0640   -6.6080   25.9170 N   0  0  0  0  0  0  0  0  0  0  0  0
   -2.0260   -4.0970   33.7770 N   0  0  0  0  0  0  0  0  0  0  0  0
   -0.7710   -4.3660   31.9070 N   0  0  0  0  0  0  0  0  0  0  0  0
   -1.2110   -6.7710   26.2890 C   0  0  0  0  0  0  0  0  0  0  0  0
   -3.1640   -3.5630   34.5120 C   0  0  0  0  0  0  0  0  0  0  0  0
   -4.1980   -3.2720   37.7410 C   0  0  0  0  0  0  0  0  0  0  0  0
   -7.5810   -4.3750   37.1370 C   0  0  0  0  0  0  0  0  0  0  0  0
   -6.5560   -5.1730   37.9240 C   0  0  0  0  0  0  0  0  0  0  0  0
   -6.9940   -3.0730   36.6340 C   0  0  0  0  0  0  0  0  0  0  0  0
    0.8940   -6.0520   26.7970 C   0  0  0  0  0  0  0  0  0  0  0  0
   -1.7070   -6.4140   27.5080 C   0  0  0  0  0  0  0  0  0  0  0  0
    0.9450   -4.6600   30.2680 C   0  0  0  0  0  0  0  0  0  0  0  0
    1.3840   -5.0310   29.0310 C   0  0  0  0  0  0  0  0  0  0  0  0
   -3.4910   -4.5220   35.6290 C   0  0  0  0  0  0  0  0  0  0  0  0
   -5.3010   -5.4200   37.1000 C   0  0  0  0  0  0  0  0  0  0  0  0
   -5.7410   -3.3210   35.8050 C   0  0  0  0  0  0  0  0  0  0  0  0
   -1.2720   -5.4310   29.7470 C   0  0  0  0  0  0  0  0  0  0  0  0
   -2.0290   -4.2680   32.4430 C   0  0  0  0  0  0  0  0  0  0  0  0
   -0.3870   -4.8560   30.6390 C   0  0  0  0  0  0  0  0  0  0  0  0
    0.5060   -5.6200   28.0930 C   0  0  0  0  0  0  0  0  0  0  0  0
   -0.8450   -5.8220   28.4560 C   0  0  0  0  0  0  0  0  0  0  0  0
   -4.6650   -4.1330   36.5470 C   0  0  0  0  0  0  0  0  0  0  0  0
   -4.2614   -1.3868   38.4624 H   0  0  0  0  0  0  0  0  0  0  0  0
   -4.2122   -1.4686   36.8322 H   0  0  0  0  0  0  0  0  0  0  0  0
   -1.2039   -4.3483   34.2880 H   0  0  0  0  0  0  0  0  0  0  0  0
   -0.0251   -4.0479   32.4922 H   0  0  0  0  0  0  0  0  0  0  0  0
   -1.8413   -7.1814   25.6300 H   0  0  0  0  0  0  0  0  0  0  0  0
   -3.9505   -3.4733   33.9009 H   0  0  0  0  0  0  0  0  0  0  0  0
   -2.9326   -2.6671   34.8911 H   0  0  0  0  0  0  0  0  0  0  0  0
   -4.5831   -3.6606   38.5781 H   0  0  0  0  0  0  0  0  0  0  0  0
   -3.1997   -3.3103   37.7844 H   0  0  0  0  0  0  0  0  0  0  0  0
   -8.3616   -4.1736   37.7287 H   0  0  0  0  0  0  0  0  0  0  0  0
   -7.8868   -4.9183   36.3552 H   0  0  0  0  0  0  0  0  0  0  0  0
   -6.9554   -6.0528   38.1818 H   0  0  0  0  0  0  0  0  0  0  0  0
   -6.3098   -4.6642   38.7489 H   0  0  0  0  0  0  0  0  0  0  0  0
   -6.7591   -2.4967   37.4167 H   0  0  0  0  0  0  0  0  0  0  0  0
   -7.6730   -2.6057   36.0679 H   0  0  0  0  0  0  0  0  0  0  0  0
    1.8498   -5.9311   26.5288 H   0  0  0  0  0  0  0  0  0  0  0  0
   -2.6700   -6.5698   27.7277 H   0  0  0  0  0  0  0  0  0  0  0  0
    1.5832   -4.2436   30.9156 H   0  0  0  0  0  0  0  0  0  0  0  0
    2.3418   -4.8840   28.7840 H   0  0  0  0  0  0  0  0  0  0  0  0
   -2.6754   -4.6122   36.2005 H   0  0  0  0  0  0  0  0  0  0  0  0
   -3.7083   -5.4065   35.2162 H   0  0  0  0  0  0  0  0  0  0  0  0
   -5.5398   -6.0111   36.3295 H   0  0  0  0  0  0  0  0  0  0  0  0
   -4.6286   -5.8817   37.6785 H   0  0  0  0  0  0  0  0  0  0  0  0
   -5.3502   -2.4366   35.5497 H   0  0  0  0  0  0  0  0  0  0  0  0
   -6.0017   -3.8212   34.9792 H   0  0  0  0  0  0  0  0  0  0  0  0
   -2.2245   -5.5723   30.0168 H   0  0  0  0  0  0  0  0  0  0  0  0
  1 20  2  0  0  0  0
  2  8  1  0  0  0  0
  3  6  1  0  0  0  0
  3 12  2  0  0  0  0
  4  7  1  0  0  0  0
  4 20  1  0  0  0  0
  5 20  1  0  0  0  0
  5 21  1  0  0  0  0
  6 13  2  0  0  0  0
  7 16  1  0  0  0  0
  8 24  1  0  0  0  0
  9 10  1  0  0  0  0
  9 11  1  0  0  0  0
 10 17  1  0  0  0  0
 11 18  1  0  0  0  0
 12 22  1  0  0  0  0
 13 23  1  0  0  0  0
 14 15  1  0  0  0  0
 14 21  2  0  0  0  0
 15 22  2  0  0  0  0
 16 24  1  0  0  0  0
 17 24  1  0  0  0  0
 18 24  1  0  0  0  0
 19 21  1  0  0  0  0
 19 23  2  0  0  0  0
 22 23  1  0  0  0  0
  2 25  1  0  0  0  0
  2 26  1  0  0  0  0
  4 27  1  0  0  0  0
  5 28  1  0  0  0  0
  6 29  1  0  0  0  0
  7 30  1  0  0  0  0
  7 31  1  0  0  0  0
  8 32  1  0  0  0  0
  8 33  1  0  0  0  0
  9 34  1  0  0  0  0
  9 35  1  0  0  0  0
 10 36  1  0  0  0  0
 10 37  1  0  0  0  0
 11 38  1  0  0  0  0
 11 39  1  0  0  0  0
 12 40  1  0  0  0  0
 13 41  1  0  0  0  0
 14 42  1  0  0  0  0
 15 43  1  0  0  0  0
 16 44  1  0  0  0  0
 16 45  1  0  0  0  0
 17 46  1  0  0  0  0
 17 47  1  0  0  0  0
 18 48  1  0  0  0  0
 18 49  1  0  0  0  0
 19 50  1  0  0  0  0
M  END
> <pdb_id>
4QQN

> <uniprot_id>
Q8WUV3

> <usmiles>
O=C(Nc1cc2c(cncc2)cc1)NCCC3(CN)CCCCC3

$$$$
3C2_A_801
          07202410513D 1   1.00000     0.00000     0
            
 25 26  0  0  0  0            999 V2000
   33.6075  167.1273  -30.4458 S   0  0  0  0  0  0  0  0  0  0  0  0
   34.8998  166.4015  -30.3470 O   0  0  0  0  0  0  0  0  0  0  0  0
   32.7524  166.8407  -31.6274 O   0  0  0  0  0  0  0  0  0  0  0  0
   33.8885  168.7322  -30.4828 N   0  0  0  0  0  0  0  0  0  0  0  0
   31.9717  165.8318  -28.8528 N   0  0  0  0  0  0  0  0  0  0  0  0
   33.6263  169.0165  -28.0772 N   0  0  0  0  0  0  0  0  0  0  0  0
   32.4568  170.9067  -26.9919 C   0  0  0  0  0  0  0  0  0  0  0  0
   34.5231  169.1864  -29.2392 C   0  0  0  0  0  0  0  0  0  0  0  0
   31.2445  165.6236  -27.6775 C   0  0  0  0  0  0  0  0  0  0  0  0
   33.7409  170.0659  -27.0309 C   0  0  0  0  0  0  0  0  0  0  0  0
   31.3005  166.5467  -26.6566 C   0  0  0  0  0  0  0  0  0  0  0  0
   32.0823  167.6855  -26.7679 C   0  0  0  0  0  0  0  0  0  0  0  0
   32.7282  166.9437  -28.9627 C   0  0  0  0  0  0  0  0  0  0  0  0
   32.8295  167.9214  -27.9355 C   0  0  0  0  0  0  0  0  0  0  0  0
   33.0198  169.2133  -30.6008 H   0  0  0  0  0  0  0  0  0  0  0  0
   32.5405  171.6103  -26.2863 H   0  0  0  0  0  0  0  0  0  0  0  0
   32.3160  171.3415  -27.8813 H   0  0  0  0  0  0  0  0  0  0  0  0
   31.6777  170.3157  -26.7827 H   0  0  0  0  0  0  0  0  0  0  0  0
   34.7576  170.1544  -29.3293 H   0  0  0  0  0  0  0  0  0  0  0  0
   35.3560  168.6544  -29.0868 H   0  0  0  0  0  0  0  0  0  0  0  0
   30.6823  164.8027  -27.5775 H   0  0  0  0  0  0  0  0  0  0  0  0
   34.5190  170.6584  -27.2392 H   0  0  0  0  0  0  0  0  0  0  0  0
   33.8807  169.6326  -26.1405 H   0  0  0  0  0  0  0  0  0  0  0  0
   30.7695  166.3929  -25.8233 H   0  0  0  0  0  0  0  0  0  0  0  0
   32.1152  168.3423  -26.0145 H   0  0  0  0  0  0  0  0  0  0  0  0
  1  2  2  0  0  0  0
  1  3  2  0  0  0  0
  1  4  1  0  0  0  0
  1 13  1  0  0  0  0
  4  8  1  0  0  0  0
  5  9  1  0  0  0  0
  5 13  2  0  0  0  0
  6  8  1  0  0  0  0
  6 10  1  0  0  0  0
  6 14  1  0  0  0  0
  7 10  1  0  0  0  0
  9 11  2  0  0  0  0
 11 12  1  0  0  0  0
 12 14  2  0  0  0  0
 13 14  1  0  0  0  0
  4 15  1  0  0  0  0
  7 16  1  0  0  0  0
  7 17  1  0  0  0  0
  7 18  1  0  0  0  0
  8 19  1  0  0  0  0
  8 20  1  0  0  0  0
  9 21  1  0  0  0  0
 10 22  1  0  0  0  0
 10 23  1  0  0  0  0
 11 24  1  0  0  0  0
 12 25  1  0  0  0  0
M  END
> <pdb_id>
4U4X

> <uniprot_id>
P19491

> <usmiles>
S1(=O)(=O)NCN(c2c1nccc2)CC

$$$$
3C8_A_401
          07202405063D 1   1.00000     0.00000     0
            
 42 45  0  0  0  0            999 V2000
  -14.6190   -6.2060   33.0500 N   0  0  0  0  0  0  0  0  0  0  0  0
  -20.4990  -10.4220   31.6010 N   0  0  0  0  0  0  0  0  0  0  0  0
  -13.9100   -4.0330   32.4850 N   0  0  0  0  0  0  0  0  0  0  0  0
  -14.6180   -2.9310   30.5800 N   0  0  0  0  0  0  0  0  0  0  0  0
  -16.1300   -6.1890   30.6830 N   0  0  0  0  0  0  0  0  0  0  0  0
  -20.9980  -10.5680   32.9050 N   0  0  0  0  0  0  0  0  0  0  0  0
  -17.5940   -7.3060   29.2590 N   0  0  0  0  0  0  0  0  0  0  0  0
  -19.8670   -7.1090   33.0600 C   0  0  0  0  0  0  0  0  0  0  0  0
  -13.9230   -2.9710   31.6940 C   0  0  0  0  0  0  0  0  0  0  0  0
  -20.8160   -9.4030   33.5590 C   0  0  0  0  0  0  0  0  0  0  0  0
  -18.4640   -6.9770   28.1090 C   0  0  0  0  0  0  0  0  0  0  0  0
  -18.2770   -7.7280   30.4950 C   0  0  0  0  0  0  0  0  0  0  0  0
  -19.7030   -7.8650   27.9580 C   0  0  0  0  0  0  0  0  0  0  0  0
  -16.8620   -5.0750   28.7120 C   0  0  0  0  0  0  0  0  0  0  0  0
  -16.1280   -3.9650   29.0140 C   0  0  0  0  0  0  0  0  0  0  0  0
  -20.4150   -7.9490   29.3080 C   0  0  0  0  0  0  0  0  0  0  0  0
  -14.6210   -5.1180   32.2080 C   0  0  0  0  0  0  0  0  0  0  0  0
  -16.8370   -6.1850   29.5720 C   0  0  0  0  0  0  0  0  0  0  0  0
  -15.3680   -3.9770   30.2030 C   0  0  0  0  0  0  0  0  0  0  0  0
  -20.0560   -9.1950   31.4750 C   0  0  0  0  0  0  0  0  0  0  0  0
  -15.3980   -5.1300   31.0250 C   0  0  0  0  0  0  0  0  0  0  0  0
  -20.2340   -8.5310   32.7060 C   0  0  0  0  0  0  0  0  0  0  0  0
  -19.4280   -8.6780   30.2050 C   0  0  2  0  0  0  0  0  0  0  0  0
  -21.3960  -11.3720   33.2740 H   0  0  0  0  0  0  0  0  0  0  0  0
  -15.1618   -7.0147   32.8233 H   0  0  0  0  0  0  0  0  0  0  0  0
  -14.0747   -6.1882   33.8887 H   0  0  0  0  0  0  0  0  0  0  0  0
  -19.4508   -6.6648   32.2666 H   0  0  0  0  0  0  0  0  0  0  0  0
  -20.6905   -6.6091   33.3280 H   0  0  0  0  0  0  0  0  0  0  0  0
  -19.2167   -7.1118   33.8197 H   0  0  0  0  0  0  0  0  0  0  0  0
  -13.3839   -2.1700   31.9543 H   0  0  0  0  0  0  0  0  0  0  0  0
  -21.0676   -9.2168   34.5088 H   0  0  0  0  0  0  0  0  0  0  0  0
  -17.9194   -7.0603   27.2745 H   0  0  0  0  0  0  0  0  0  0  0  0
  -18.7714   -6.0312   28.2134 H   0  0  0  0  0  0  0  0  0  0  0  0
  -18.6345   -6.9183   30.9604 H   0  0  0  0  0  0  0  0  0  0  0  0
  -17.6175   -8.1895   31.0883 H   0  0  0  0  0  0  0  0  0  0  0  0
  -19.4269   -8.7807   27.6659 H   0  0  0  0  0  0  0  0  0  0  0  0
  -20.3192   -7.4695   27.2769 H   0  0  0  0  0  0  0  0  0  0  0  0
  -17.4165   -5.0980   27.8801 H   0  0  0  0  0  0  0  0  0  0  0  0
  -16.1286   -3.1672   28.4110 H   0  0  0  0  0  0  0  0  0  0  0  0
  -21.2684   -8.4640   29.2275 H   0  0  0  0  0  0  0  0  0  0  0  0
  -20.6096   -7.0349   29.6639 H   0  0  0  0  0  0  0  0  0  0  0  0
  -19.0654   -9.4595   29.6973 H   0  0  0  0  0  0  0  0  0  0  0  0
  1 17  1  0  0  0  0
  2  6  1  0  0  0  0
  2 20  2  0  0  0  0
  3  9  1  0  0  0  0
  3 17  2  0  0  0  0
  4  9  2  0  0  0  0
  4 19  1  0  0  0  0
  5 18  1  0  0  0  0
  5 21  2  0  0  0  0
  6 10  1  0  0  0  0
  6 24  1  0  0  0  0
  7 11  1  0  0  0  0
  7 12  1  0  0  0  0
  7 18  1  0  0  0  0
  8 22  1  0  0  0  0
 10 22  2  0  0  0  0
 11 13  1  0  0  0  0
 12 23  1  0  0  0  0
 13 16  1  0  0  0  0
 14 15  1  0  0  0  0
 14 18  2  0  0  0  0
 15 19  2  0  0  0  0
 16 23  1  0  0  0  0
 17 21  1  0  0  0  0
 19 21  1  0  0  0  0
 20 22  1  0  0  0  0
 20 23  1  0  0  0  0
  1 25  1  0  0  0  0
  1 26  1  0  0  0  0
  8 27  1  0  0  0  0
  8 28  1  0  0  0  0
  8 29  1  0  0  0  0
  9 30  1  0  0  0  0
 10 31  1  0  0  0  0
 11 32  1  0  0  0  0
 11 33  1  0  0  0  0
 12 34  1  0  0  0  0
 12 35  1  0  0  0  0
 13 36  1  0  0  0  0
 13 37  1  0  0  0  0
 14 38  1  0  0  0  0
 15 39  1  0  0  0  0
 16 40  1  0  0  0  0
 16 41  1  0  0  0  0
 23 42  1  0  0  0  0
M  END
> <pdb_id>
4U41

> <uniprot_id>
O95819

> <usmiles>
n1c(N2C[C@@H](C3=NNC=C3C)CCC2)ccc4ncnc(N)c14

$$$$
3CU_A_1001
          07192422103D 1   1.00000     0.00000     0
            
 29 30  0  0  0  0            999 V2000
   42.7650   95.8230   36.3318 O   0  0  0  0  0  0  0  0  0  0  0  0
   45.1002   91.3544   33.8403 O   0  0  0  0  0  0  0  0  0  0  0  0
   44.9745   93.8628   31.2430 O   0  0  0  0  0  0  0  0  0  0  0  0
   46.1134   94.8151   37.0270 O   0  0  0  0  0  0  0  0  0  0  0  0
   47.4088   95.3010   34.3357 O   0  0  0  0  0  0  0  0  0  0  0  0
   43.9188   94.1833   34.2798 N   0  0  0  0  0  0  0  0  0  0  0  0
   43.1056   94.4609   36.5853 C   0  0  0  0  0  0  0  0  0  0  0  0
   43.3171   92.9299   33.7405 C   0  0  0  0  0  0  0  0  0  0  0  0
   44.3862   92.2253   32.9589 C   0  0  1  0  0  0  0  0  0  0  0  0
   45.3394   93.3552   32.5143 C   0  0  2  0  0  0  0  0  0  0  0  0
   45.4530   95.0061   35.7910 C   0  0  1  0  0  0  0  0  0  0  0  0
   46.2774   94.4601   34.6216 C   0  0  1  0  0  0  0  0  0  0  0  0
   44.2964   94.0419   35.7040 C   0  0  2  0  0  0  0  0  0  0  0  0
   45.1824   94.4908   33.5334 C   0  0  2  0  0  0  0  0  0  0  0  0
   41.9913   96.0860   36.9082 H   0  0  0  0  0  0  0  0  0  0  0  0
   45.8166   90.8783   33.3304 H   0  0  0  0  0  0  0  0  0  0  0  0
   45.6072   94.5914   30.9808 H   0  0  0  0  0  0  0  0  0  0  0  0
   45.5492   95.1820   37.7666 H   0  0  0  0  0  0  0  0  0  0  0  0
   47.9241   94.9172   33.5694 H   0  0  0  0  0  0  0  0  0  0  0  0
   42.3192   93.8790   36.3777 H   0  0  0  0  0  0  0  0  0  0  0  0
   43.3533   94.3554   37.5484 H   0  0  0  0  0  0  0  0  0  0  0  0
   42.5450   93.1495   33.1441 H   0  0  0  0  0  0  0  0  0  0  0  0
   43.0032   92.3496   34.4920 H   0  0  0  0  0  0  0  0  0  0  0  0
   44.0077   91.7309   32.1764 H   0  0  0  0  0  0  0  0  0  0  0  0
   46.2843   93.0282   32.5004 H   0  0  0  0  0  0  0  0  0  0  0  0
   45.1713   95.9553   35.6503 H   0  0  0  0  0  0  0  0  0  0  0  0
   46.5706   93.5213   34.8028 H   0  0  0  0  0  0  0  0  0  0  0  0
   44.5879   93.1077   35.9099 H   0  0  0  0  0  0  0  0  0  0  0  0
   45.1358   95.3832   33.0845 H   0  0  0  0  0  0  0  0  0  0  0  0
  1  7  1  0  0  0  0
  2  9  1  0  0  0  0
  3 10  1  0  0  0  0
  4 11  1  0  0  0  0
  5 12  1  0  0  0  0
  6  8  1  0  0  0  0
  6 13  1  0  0  0  0
  6 14  1  0  0  0  0
  7 13  1  0  0  0  0
  8  9  1  0  0  0  0
  9 10  1  0  0  0  0
 10 14  1  0  0  0  0
 11 12  1  0  0  0  0
 11 13  1  0  0  0  0
 12 14  1  0  0  0  0
  1 15  1  0  0  0  0
  2 16  1  0  0  0  0
  3 17  1  0  0  0  0
  4 18  1  0  0  0  0
  5 19  1  0  0  0  0
  7 20  1  0  0  0  0
  7 21  1  0  0  0  0
  8 22  1  0  0  0  0
  8 23  1  0  0  0  0
  9 24  1  0  0  0  0
 10 25  1  0  0  0  0
 11 26  1  0  0  0  0
 12 27  1  0  0  0  0
 13 28  1  0  0  0  0
 14 29  1  0  0  0  0
M  END
> <pdb_id>
3CTT

> <uniprot_id>
O43451

> <usmiles>
O[C@H]1[C@H](O)[C@H](N2[C@@H]1[C@H](O)[C@@H](O)C2)CO

$$$$
3DE_A_1003
          07202412153D 1   1.00000     0.00000     0
            
 34 35  0  0  0  0            999 V2000
   44.1185   46.7678   66.1824 O   0  0  0  0  0  0  0  0  0  0  0  0
   43.3233   45.9870   64.2656 O   0  0  0  0  0  0  0  0  0  0  0  0
   47.8828   46.6619   64.4841 N   0  0  0  0  0  0  0  0  0  0  0  0
   47.4919   45.9203   63.3270 N   0  0  0  0  0  0  0  0  0  0  0  0
   41.0941   45.2668   63.7377 C   0  0  0  0  0  0  0  0  0  0  0  0
   46.9145   47.5860   66.5835 C   0  0  0  0  0  0  0  0  0  0  0  0
   45.3315   44.9754   62.3874 C   0  0  0  0  0  0  0  0  0  0  0  0
   41.9535   46.0678   64.6962 C   0  0  0  0  0  0  0  0  0  0  0  0
   50.1540   44.9293   60.2273 C   0  0  0  0  0  0  0  0  0  0  0  0
   50.3076   44.3408   61.4945 C   0  0  0  0  0  0  0  0  0  0  0  0
   49.1191   45.8407   59.9973 C   0  0  0  0  0  0  0  0  0  0  0  0
   49.4246   44.6650   62.5363 C   0  0  0  0  0  0  0  0  0  0  0  0
   48.2328   46.1619   61.0359 C   0  0  0  0  0  0  0  0  0  0  0  0
   44.3281   46.2505   65.1201 C   0  0  0  0  0  0  0  0  0  0  0  0
   46.8734   46.7924   65.3044 C   0  0  0  0  0  0  0  0  0  0  0  0
   48.3772   45.5639   62.2923 C   0  0  0  0  0  0  0  0  0  0  0  0
   46.1436   45.7095   63.4242 C   0  0  0  0  0  0  0  0  0  0  0  0
   45.7013   46.2577   64.5828 C   0  0  0  0  0  0  0  0  0  0  0  0
   40.1381   45.3153   64.0270 H   0  0  0  0  0  0  0  0  0  0  0  0
   41.1830   45.6437   62.8157 H   0  0  0  0  0  0  0  0  0  0  0  0
   41.3945   44.3129   63.7383 H   0  0  0  0  0  0  0  0  0  0  0  0
   46.0240   47.5360   67.0356 H   0  0  0  0  0  0  0  0  0  0  0  0
   47.6166   47.2088   67.1874 H   0  0  0  0  0  0  0  0  0  0  0  0
   47.1302   48.5404   66.3768 H   0  0  0  0  0  0  0  0  0  0  0  0
   44.3738   44.9461   62.6736 H   0  0  0  0  0  0  0  0  0  0  0  0
   45.4028   45.4506   61.5104 H   0  0  0  0  0  0  0  0  0  0  0  0
   45.6792   44.0429   62.2905 H   0  0  0  0  0  0  0  0  0  0  0  0
   41.6567   47.0228   64.6965 H   0  0  0  0  0  0  0  0  0  0  0  0
   41.8682   45.6920   65.6190 H   0  0  0  0  0  0  0  0  0  0  0  0
   50.7863   44.6955   59.4887 H   0  0  0  0  0  0  0  0  0  0  0  0
   51.0487   43.6888   61.6544 H   0  0  0  0  0  0  0  0  0  0  0  0
   49.0112   46.2616   59.0966 H   0  0  0  0  0  0  0  0  0  0  0  0
   49.5414   44.2590   63.4427 H   0  0  0  0  0  0  0  0  0  0  0  0
   47.4963   46.8196   60.8779 H   0  0  0  0  0  0  0  0  0  0  0  0
  1 14  2  0  0  0  0
  2  8  1  0  0  0  0
  2 14  1  0  0  0  0
  3  4  1  0  0  0  0
  3 15  2  0  0  0  0
  4 16  1  0  0  0  0
  4 17  1  0  0  0  0
  5  8  1  0  0  0  0
  6 15  1  0  0  0  0
  7 17  1  0  0  0  0
  9 10  2  0  0  0  0
  9 11  1  0  0  0  0
 10 12  1  0  0  0  0
 11 13  2  0  0  0  0
 12 16  2  0  0  0  0
 13 16  1  0  0  0  0
 14 18  1  0  0  0  0
 15 18  1  0  0  0  0
 17 18  2  0  0  0  0
  5 19  1  0  0  0  0
  5 20  1  0  0  0  0
  5 21  1  0  0  0  0
  6 22  1  0  0  0  0
  6 23  1  0  0  0  0
  6 24  1  0  0  0  0
  7 25  1  0  0  0  0
  7 26  1  0  0  0  0
  7 27  1  0  0  0  0
  8 28  1  0  0  0  0
  8 29  1  0  0  0  0
  9 30  1  0  0  0  0
 10 31  1  0  0  0  0
 11 32  1  0  0  0  0
 12 33  1  0  0  0  0
 13 34  1  0  0  0  0
M  END
> <pdb_id>
1Y2C

> <uniprot_id>
Q08499

> <usmiles>
O=C(OCC)C=1C(=NN(c2ccccc2)C1C)C

$$$$
3DQ_A_1144
          07192422283D 1   1.00000     0.00000     0
            
 40 41  0  0  0  0            999 V2000
   31.1889   42.7587    5.8362 O   0  0  0  0  0  0  0  0  0  0  0  0
   29.2599   42.8645    4.6993 O   0  0  0  0  0  0  0  0  0  0  0  0
   29.8045   42.6167   10.7205 O   0  0  0  0  0  0  0  0  0  0  0  0
   28.0999   44.9058   10.9191 O   0  0  0  0  0  0  0  0  0  0  0  0
   27.2995   45.9742    8.5391 O   0  0  0  0  0  0  0  0  0  0  0  0
   27.8647   42.6230    7.0434 O   0  0  0  0  0  0  0  0  0  0  0  0
   29.1184   51.2127    6.6231 O   0  0  0  0  0  0  0  0  0  0  0  0
   29.6154   52.1418    7.6195 C   0  0  0  0  0  0  0  0  0  0  0  0
   30.0452   49.3412    7.8597 C   0  0  0  0  0  0  0  0  0  0  0  0
   29.0485   49.0188    5.7218 C   0  0  0  0  0  0  0  0  0  0  0  0
   30.3053   47.9761    7.9447 C   0  0  0  0  0  0  0  0  0  0  0  0
   29.3155   47.6606    5.7947 C   0  0  0  0  0  0  0  0  0  0  0  0
   30.2507   45.6575    6.9784 C   0  0  0  0  0  0  0  0  0  0  0  0
   29.9297   42.8101    8.3188 C   0  0  0  0  0  0  0  0  0  0  0  0
   29.9383   42.9392    5.7634 C   0  0  0  0  0  0  0  0  0  0  0  0
   29.4080   49.8767    6.7557 C   0  0  0  0  0  0  0  0  0  0  0  0
   29.1108   43.1245    9.5761 C   0  0  2  0  0  0  0  0  0  0  0  0
   28.9189   44.6383    9.7563 C   0  0  1  0  0  0  0  0  0  0  0  0
   28.2912   45.2191    8.4828 C   0  0  0  0  0  0  0  0  0  0  0  0
   29.9630   47.1430    6.9095 C   0  0  0  0  0  0  0  0  0  0  0  0
   28.9460   44.8467    7.1391 C   0  0  2  0  0  0  0  0  0  0  0  0
   29.1769   43.2873    7.0580 C   0  0  1  0  0  0  0  0  0  0  0  0
   31.6547   42.8355    6.7178 H   0  0  0  0  0  0  0  0  0  0  0  0
   29.2771   42.8174   11.5461 H   0  0  0  0  0  0  0  0  0  0  0  0
   27.9832   45.8933   11.0245 H   0  0  0  0  0  0  0  0  0  0  0  0
   27.3528   42.9139    6.2351 H   0  0  0  0  0  0  0  0  0  0  0  0
   29.3233   53.0692    7.3856 H   0  0  0  0  0  0  0  0  0  0  0  0
   29.2513   51.8941    8.5173 H   0  0  0  0  0  0  0  0  0  0  0  0
   30.6144   52.1029    7.6426 H   0  0  0  0  0  0  0  0  0  0  0  0
   30.3234   49.9433    8.6081 H   0  0  0  0  0  0  0  0  0  0  0  0
   28.5901   49.3876    4.9131 H   0  0  0  0  0  0  0  0  0  0  0  0
   30.7426   47.6018    8.7623 H   0  0  0  0  0  0  0  0  0  0  0  0
   29.0429   47.0550    5.0470 H   0  0  0  0  0  0  0  0  0  0  0  0
   30.8467   45.4760    7.7606 H   0  0  0  0  0  0  0  0  0  0  0  0
   30.7100   45.3742    6.1365 H   0  0  0  0  0  0  0  0  0  0  0  0
   30.0791   41.8230    8.2603 H   0  0  0  0  0  0  0  0  0  0  0  0
   30.8117   43.2781    8.3737 H   0  0  0  0  0  0  0  0  0  0  0  0
   28.2162   42.6828    9.5079 H   0  0  0  0  0  0  0  0  0  0  0  0
   29.8152   45.0604    9.8924 H   0  0  0  0  0  0  0  0  0  0  0  0
   28.3217   45.1093    6.4033 H   0  0  0  0  0  0  0  0  0  0  0  0
  1 15  1  0  0  0  0
  2 15  2  0  0  0  0
  3 17  1  0  0  0  0
  4 18  1  0  0  0  0
  5 19  2  0  0  0  0
  6 22  1  0  0  0  0
  7  8  1  0  0  0  0
  7 16  1  0  0  0  0
  9 11  2  0  0  0  0
  9 16  1  0  0  0  0
 10 12  1  0  0  0  0
 10 16  2  0  0  0  0
 11 20  1  0  0  0  0
 12 20  2  0  0  0  0
 13 20  1  0  0  0  0
 13 21  1  0  0  0  0
 14 17  1  0  0  0  0
 14 22  1  0  0  0  0
 15 22  1  0  0  0  0
 17 18  1  0  0  0  0
 18 19  1  0  0  0  0
 19 21  1  0  0  0  0
 21 22  1  0  0  0  0
  1 23  1  0  0  0  0
  3 24  1  0  0  0  0
  4 25  1  0  0  0  0
  6 26  1  0  0  0  0
  8 27  1  0  0  0  0
  8 28  1  0  0  0  0
  8 29  1  0  0  0  0
  9 30  1  0  0  0  0
 10 31  1  0  0  0  0
 11 32  1  0  0  0  0
 12 33  1  0  0  0  0
 13 34  1  0  0  0  0
 13 35  1  0  0  0  0
 14 36  1  0  0  0  0
 14 37  1  0  0  0  0
 17 38  1  0  0  0  0
 18 39  1  0  0  0  0
 21 40  1  0  0  0  0
M  END
> <pdb_id>
4B6O

> <uniprot_id>
P0A4Z6

> <usmiles>
O=C(O)[C@]1(O)[C@@H](C(=O)[C@@H](O)[C@H](O)C1)Cc2ccc(OC)cc2

$$$$
3DQ_A_1158
          07192422293D 1   1.00000     0.00000     0
            
 40 41  0  0  0  0            999 V2000
   -0.0013   39.4358  -25.2124 O   0  0  0  0  0  0  0  0  0  0  0  0
    1.7476   38.8331  -26.3988 O   0  0  0  0  0  0  0  0  0  0  0  0
    1.4782   38.9146  -20.3614 O   0  0  0  0  0  0  0  0  0  0  0  0
    2.9505   36.5143  -20.4425 O   0  0  0  0  0  0  0  0  0  0  0  0
    3.5221   35.5622  -22.9450 O   0  0  0  0  0  0  0  0  0  0  0  0
    3.1562   39.2505  -24.1955 O   0  0  0  0  0  0  0  0  0  0  0  0
    1.1657   30.5276  -25.2669 O   0  0  0  0  0  0  0  0  0  0  0  0
    0.1823   29.9020  -26.0982 C   0  0  0  0  0  0  0  0  0  0  0  0
    1.0244   32.3215  -23.6547 C   0  0  0  0  0  0  0  0  0  0  0  0
    1.1054   32.7793  -26.0332 C   0  0  0  0  0  0  0  0  0  0  0  0
    0.9475   33.7085  -23.4112 C   0  0  0  0  0  0  0  0  0  0  0  0
    1.0304   34.1532  -25.7758 C   0  0  0  0  0  0  0  0  0  0  0  0
    0.8311   36.1740  -24.2361 C   0  0  0  0  0  0  0  0  0  0  0  0
    1.2850   39.0759  -22.7767 C   0  0  0  0  0  0  0  0  0  0  0  0
    1.1608   38.9719  -25.3185 C   0  0  0  0  0  0  0  0  0  0  0  0
    1.0909   31.8644  -24.9816 C   0  0  0  0  0  0  0  0  0  0  0  0
    2.1167   38.5445  -21.5631 C   0  0  2  0  0  0  0  0  0  0  0  0
    2.1796   37.0128  -21.5500 C   0  0  1  0  0  0  0  0  0  0  0  0
    2.6876   36.4592  -22.8666 C   0  0  0  0  0  0  0  0  0  0  0  0
    0.9568   34.6503  -24.4717 C   0  0  0  0  0  0  0  0  0  0  0  0
    2.1221   36.9933  -24.1343 C   0  0  2  0  0  0  0  0  0  0  0  0
    1.9289   38.5351  -24.0869 C   0  0  1  0  0  0  0  0  0  0  0  0
   -0.4240   39.5243  -24.3105 H   0  0  0  0  0  0  0  0  0  0  0  0
    2.0084   38.5758  -19.5842 H   0  0  0  0  0  0  0  0  0  0  0  0
    2.9666   35.5149  -20.4706 H   0  0  0  0  0  0  0  0  0  0  0  0
    3.6395   38.9598  -25.0213 H   0  0  0  0  0  0  0  0  0  0  0  0
    0.3974   28.9303  -26.1954 H   0  0  0  0  0  0  0  0  0  0  0  0
   -0.7206   30.0034  -25.6803 H   0  0  0  0  0  0  0  0  0  0  0  0
    0.1831   30.3354  -26.9994 H   0  0  0  0  0  0  0  0  0  0  0  0
    1.0316   31.6727  -22.8938 H   0  0  0  0  0  0  0  0  0  0  0  0
    1.1696   32.4525  -26.9761 H   0  0  0  0  0  0  0  0  0  0  0  0
    0.8848   34.0357  -22.4684 H   0  0  0  0  0  0  0  0  0  0  0  0
    1.0296   34.7942  -26.5433 H   0  0  0  0  0  0  0  0  0  0  0  0
    0.3287   36.3026  -23.3811 H   0  0  0  0  0  0  0  0  0  0  0  0
    0.2992   36.5497  -24.9950 H   0  0  0  0  0  0  0  0  0  0  0  0
    1.2966   40.0758  -22.7823 H   0  0  0  0  0  0  0  0  0  0  0  0
    0.3409   38.7538  -22.7063 H   0  0  0  0  0  0  0  0  0  0  0  0
    3.0414   38.9243  -21.5899 H   0  0  0  0  0  0  0  0  0  0  0  0
    1.2440   36.6802  -21.4315 H   0  0  0  0  0  0  0  0  0  0  0  0
    2.7272   36.7568  -24.8944 H   0  0  0  0  0  0  0  0  0  0  0  0
  1 15  1  0  0  0  0
  2 15  2  0  0  0  0
  3 17  1  0  0  0  0
  4 18  1  0  0  0  0
  5 19  2  0  0  0  0
  6 22  1  0  0  0  0
  7  8  1  0  0  0  0
  7 16  1  0  0  0  0
  9 11  2  0  0  0  0
  9 16  1  0  0  0  0
 10 12  1  0  0  0  0
 10 16  2  0  0  0  0
 11 20  1  0  0  0  0
 12 20  2  0  0  0  0
 13 20  1  0  0  0  0
 13 21  1  0  0  0  0
 14 17  1  0  0  0  0
 14 22  1  0  0  0  0
 15 22  1  0  0  0  0
 17 18  1  0  0  0  0
 18 19  1  0  0  0  0
 19 21  1  0  0  0  0
 21 22  1  0  0  0  0
  1 23  1  0  0  0  0
  3 24  1  0  0  0  0
  4 25  1  0  0  0  0
  6 26  1  0  0  0  0
  8 27  1  0  0  0  0
  8 28  1  0  0  0  0
  8 29  1  0  0  0  0
  9 30  1  0  0  0  0
 10 31  1  0  0  0  0
 11 32  1  0  0  0  0
 12 33  1  0  0  0  0
 13 34  1  0  0  0  0
 13 35  1  0  0  0  0
 14 36  1  0  0  0  0
 14 37  1  0  0  0  0
 17 38  1  0  0  0  0
 18 39  1  0  0  0  0
 21 40  1  0  0  0  0
M  END
> <pdb_id>
4B6R

> <uniprot_id>
Q48255

> <usmiles>
O=C(O)[C@]1(O)[C@@H](C(=O)[C@@H](O)[C@H](O)C1)Cc2ccc(OC)cc2

$$$$
3DW_B_301
          07202402503D 1   1.00000     0.00000     0
            
 50 54  0  0  0  0            999 V2000
    7.7147    5.5459   15.2210 O   0  0  0  0  0  0  0  0  0  0  0  0
    9.6248    6.6181   15.3049 O   0  0  0  0  0  0  0  0  0  0  0  0
    3.9731   10.0611   20.1319 N   0  0  0  0  0  0  0  0  0  0  0  0
    8.6750    8.4317   17.0493 N   0  0  0  0  0  0  0  0  0  0  0  0
    6.2398   10.0806   19.2749 N   0  0  0  0  0  0  0  0  0  0  0  0
   -4.8540    4.1830   19.4070 N   0  0  0  0  0  0  0  0  0  0  0  0
   -2.5532    5.8176   19.1340 N   0  0  0  0  0  0  0  0  0  0  0  0
   -6.1547    3.6385   18.9743 C   0  0  0  0  0  0  0  0  0  0  0  0
    8.2520    9.3531   17.9229 C   0  0  0  0  0  0  0  0  0  0  0  0
    2.8085    9.4203   20.0844 C   0  0  0  0  0  0  0  0  0  0  0  0
   -4.9467    5.6407   19.6190 C   0  0  0  0  0  0  0  0  0  0  0  0
   -3.8444    3.9248   18.3728 C   0  0  0  0  0  0  0  0  0  0  0  0
   -3.6098    6.2468   20.0616 C   0  0  0  0  0  0  0  0  0  0  0  0
   -2.4921    4.3702   18.9059 C   0  0  0  0  0  0  0  0  0  0  0  0
   -0.3913    6.1930   18.2173 C   0  0  0  0  0  0  0  0  0  0  0  0
   -0.9827    7.3021   20.2581 C   0  0  0  0  0  0  0  0  0  0  0  0
    0.8561    6.8009   18.2755 C   0  0  0  0  0  0  0  0  0  0  0  0
    0.2679    7.9022   20.3188 C   0  0  0  0  0  0  0  0  0  0  0  0
    6.5355    7.3133   17.0999 C   0  0  0  0  0  0  0  0  0  0  0  0
    3.6648    7.7501   18.5571 C   0  0  0  0  0  0  0  0  0  0  0  0
    8.4384    6.4629   15.6558 C   0  0  0  0  0  0  0  0  0  0  0  0
    4.9886    9.5785   19.3906 C   0  0  0  0  0  0  0  0  0  0  0  0
    7.8611    7.4277   16.6387 C   0  0  0  0  0  0  0  0  0  0  0  0
    6.9574    9.2857   18.4181 C   0  0  0  0  0  0  0  0  0  0  0  0
   -1.3406    6.4414   19.2119 C   0  0  0  0  0  0  0  0  0  0  0  0
    2.5864    8.2606   19.3238 C   0  0  0  0  0  0  0  0  0  0  0  0
    1.2307    7.6356   19.3323 C   0  0  0  0  0  0  0  0  0  0  0  0
    4.8780    8.4493   18.6245 C   0  0  0  0  0  0  0  0  0  0  0  0
    6.0996    8.2750   18.0089 C   0  0  0  0  0  0  0  0  0  0  0  0
    6.7685    5.4645   15.5342 H   0  0  0  0  0  0  0  0  0  0  0  0
    6.5846   10.8970   19.7381 H   0  0  0  0  0  0  0  0  0  0  0  0
   -6.0733    2.6515   18.8357 H   0  0  0  0  0  0  0  0  0  0  0  0
   -6.8427    3.8208   19.6767 H   0  0  0  0  0  0  0  0  0  0  0  0
   -6.4298    4.0739   18.1171 H   0  0  0  0  0  0  0  0  0  0  0  0
    8.8654   10.0860   18.2171 H   0  0  0  0  0  0  0  0  0  0  0  0
    2.0475    9.7851   20.6209 H   0  0  0  0  0  0  0  0  0  0  0  0
   -5.6315    5.8207   20.3251 H   0  0  0  0  0  0  0  0  0  0  0  0
   -5.2290    6.0735   18.7629 H   0  0  0  0  0  0  0  0  0  0  0  0
   -4.0683    4.4399   17.5454 H   0  0  0  0  0  0  0  0  0  0  0  0
   -3.8195    2.9479   18.1607 H   0  0  0  0  0  0  0  0  0  0  0  0
   -3.6762    7.2446   20.0542 H   0  0  0  0  0  0  0  0  0  0  0  0
   -3.3906    5.9342   20.9858 H   0  0  0  0  0  0  0  0  0  0  0  0
   -2.2933    3.8988   19.7651 H   0  0  0  0  0  0  0  0  0  0  0  0
   -1.7777    4.1612   18.2380 H   0  0  0  0  0  0  0  0  0  0  0  0
   -0.6106    5.5760   17.4615 H   0  0  0  0  0  0  0  0  0  0  0  0
   -1.6470    7.4896   20.9817 H   0  0  0  0  0  0  0  0  0  0  0  0
    1.5087    6.6357   17.5360 H   0  0  0  0  0  0  0  0  0  0  0  0
    0.4840    8.5273   21.0688 H   0  0  0  0  0  0  0  0  0  0  0  0
    5.9351    6.5762   16.7895 H   0  0  0  0  0  0  0  0  0  0  0  0
    3.5644    6.9294   17.9946 H   0  0  0  0  0  0  0  0  0  0  0  0
  1 21  1  0  0  0  0
  2 21  2  0  0  0  0
  3 10  1  0  0  0  0
  3 22  2  0  0  0  0
  4  9  1  0  0  0  0
  4 23  2  0  0  0  0
  5 22  1  0  0  0  0
  5 24  1  0  0  0  0
  6  8  1  0  0  0  0
  6 11  1  0  0  0  0
  6 12  1  0  0  0  0
  7 13  1  0  0  0  0
  7 14  1  0  0  0  0
  7 25  1  0  0  0  0
  9 24  2  0  0  0  0
 10 26  2  0  0  0  0
 11 13  1  0  0  0  0
 12 14  1  0  0  0  0
 15 17  1  0  0  0  0
 15 25  2  0  0  0  0
 16 18  2  0  0  0  0
 16 25  1  0  0  0  0
 17 27  2  0  0  0  0
 18 27  1  0  0  0  0
 19 23  1  0  0  0  0
 19 29  2  0  0  0  0
 20 26  1  0  0  0  0
 20 28  2  0  0  0  0
 21 23  1  0  0  0  0
 22 28  1  0  0  0  0
 24 29  1  0  0  0  0
 26 27  1  0  0  0  0
 28 29  1  0  0  0  0
  1 30  1  0  0  0  0
  5 31  1  0  0  0  0
  8 32  1  0  0  0  0
  8 33  1  0  0  0  0
  8 34  1  0  0  0  0
  9 35  1  0  0  0  0
 10 36  1  0  0  0  0
 11 37  1  0  0  0  0
 11 38  1  0  0  0  0
 12 39  1  0  0  0  0
 12 40  1  0  0  0  0
 13 41  1  0  0  0  0
 13 42  1  0  0  0  0
 14 43  1  0  0  0  0
 14 44  1  0  0  0  0
 15 45  1  0  0  0  0
 16 46  1  0  0  0  0
 17 47  1  0  0  0  0
 18 48  1  0  0  0  0
 19 49  1  0  0  0  0
 20 50  1  0  0  0  0
M  END
> <pdb_id>
4QYG

> <uniprot_id>
O14757

> <usmiles>
O=C(O)c1ncc2Nc3ncc(c4ccc(N5CCN(CC5)C)cc4)cc3c2c1

$$$$
3DX_B_301
          07202402503D 1   1.00000     0.00000     0
            
 48 52  0  0  0  0            999 V2000
    9.1183    5.9136   15.3057 N   0  0  0  0  0  0  0  0  0  0  0  0
    3.8360   10.0477   20.0946 N   0  0  0  0  0  0  0  0  0  0  0  0
    8.6852    8.4843   17.2268 N   0  0  0  0  0  0  0  0  0  0  0  0
    6.1158   10.1109   19.3040 N   0  0  0  0  0  0  0  0  0  0  0  0
   -5.0873    4.5538   18.8205 N   0  0  0  0  0  0  0  0  0  0  0  0
   -2.5668    5.7602   19.1313 N   0  0  0  0  0  0  0  0  0  0  0  0
   -6.3158    3.7490   18.9713 C   0  0  0  0  0  0  0  0  0  0  0  0
    8.5483    6.6280   16.0115 C   0  0  0  0  0  0  0  0  0  0  0  0
    8.2011    9.4147   18.0742 C   0  0  0  0  0  0  0  0  0  0  0  0
    2.6867    9.4068   20.0459 C   0  0  0  0  0  0  0  0  0  0  0  0
   -3.8997    3.7006   18.7196 C   0  0  0  0  0  0  0  0  0  0  0  0
   -4.8881    5.4345   19.9762 C   0  0  0  0  0  0  0  0  0  0  0  0
   -2.6910    4.5363   18.3314 C   0  0  0  0  0  0  0  0  0  0  0  0
   -3.7355    6.4152   19.7564 C   0  0  0  0  0  0  0  0  0  0  0  0
   -0.3943    6.1695   18.1556 C   0  0  0  0  0  0  0  0  0  0  0  0
   -0.9917    7.2248   20.2101 C   0  0  0  0  0  0  0  0  0  0  0  0
    0.8482    6.7824   18.2049 C   0  0  0  0  0  0  0  0  0  0  0  0
    0.2441    7.8419   20.2792 C   0  0  0  0  0  0  0  0  0  0  0  0
    6.6137    7.3102   17.2011 C   0  0  0  0  0  0  0  0  0  0  0  0
    3.6376    7.7144   18.5785 C   0  0  0  0  0  0  0  0  0  0  0  0
    4.8828    9.5609   19.3997 C   0  0  0  0  0  0  0  0  0  0  0  0
    7.9495    7.4469   16.7999 C   0  0  0  0  0  0  0  0  0  0  0  0
    6.8964    9.3188   18.5112 C   0  0  0  0  0  0  0  0  0  0  0  0
   -1.3386    6.3817   19.1632 C   0  0  0  0  0  0  0  0  0  0  0  0
    2.5354    8.2526   19.2867 C   0  0  0  0  0  0  0  0  0  0  0  0
    1.2008    7.6106   19.2838 C   0  0  0  0  0  0  0  0  0  0  0  0
    4.8343    8.4229   18.6401 C   0  0  0  0  0  0  0  0  0  0  0  0
    6.0914    8.2782   18.0625 C   0  0  0  0  0  0  0  0  0  0  0  0
    6.4082   10.9604   19.7432 H   0  0  0  0  0  0  0  0  0  0  0  0
   -7.1068    4.3573   19.0374 H   0  0  0  0  0  0  0  0  0  0  0  0
   -6.4214    3.1499   18.1777 H   0  0  0  0  0  0  0  0  0  0  0  0
   -6.2514    3.1947   19.8012 H   0  0  0  0  0  0  0  0  0  0  0  0
    8.7826   10.1673   18.3830 H   0  0  0  0  0  0  0  0  0  0  0  0
    1.9075    9.7575   20.5653 H   0  0  0  0  0  0  0  0  0  0  0  0
   -4.0542    2.9987   18.0243 H   0  0  0  0  0  0  0  0  0  0  0  0
   -3.7301    3.2633   19.6028 H   0  0  0  0  0  0  0  0  0  0  0  0
   -4.6861    4.8733   20.7789 H   0  0  0  0  0  0  0  0  0  0  0  0
   -5.7280    5.9536   20.1352 H   0  0  0  0  0  0  0  0  0  0  0  0
   -1.8666    3.9852   18.4601 H   0  0  0  0  0  0  0  0  0  0  0  0
   -2.7746    4.7912   17.3680 H   0  0  0  0  0  0  0  0  0  0  0  0
   -4.0490    7.1545   19.1605 H   0  0  0  0  0  0  0  0  0  0  0  0
   -3.4598    6.7936   20.6401 H   0  0  0  0  0  0  0  0  0  0  0  0
   -0.6176    5.5677   17.3889 H   0  0  0  0  0  0  0  0  0  0  0  0
   -1.6569    7.3913   20.9379 H   0  0  0  0  0  0  0  0  0  0  0  0
    1.5020    6.6332   17.4631 H   0  0  0  0  0  0  0  0  0  0  0  0
    0.4545    8.4542   21.0414 H   0  0  0  0  0  0  0  0  0  0  0  0
    6.0535    6.5459   16.8816 H   0  0  0  0  0  0  0  0  0  0  0  0
    3.5596    6.8642   18.0579 H   0  0  0  0  0  0  0  0  0  0  0  0
  1  8  3  0  0  0  0
  2 10  1  0  0  0  0
  2 21  2  0  0  0  0
  3  9  1  0  0  0  0
  3 22  2  0  0  0  0
  4 21  1  0  0  0  0
  4 23  1  0  0  0  0
  5  7  1  0  0  0  0
  5 11  1  0  0  0  0
  5 12  1  0  0  0  0
  6 13  1  0  0  0  0
  6 14  1  0  0  0  0
  6 24  1  0  0  0  0
  8 22  1  0  0  0  0
  9 23  2  0  0  0  0
 10 25  2  0  0  0  0
 11 13  1  0  0  0  0
 12 14  1  0  0  0  0
 15 17  1  0  0  0  0
 15 24  2  0  0  0  0
 16 18  2  0  0  0  0
 16 24  1  0  0  0  0
 17 26  2  0  0  0  0
 18 26  1  0  0  0  0
 19 22  1  0  0  0  0
 19 28  2  0  0  0  0
 20 25  1  0  0  0  0
 20 27  2  0  0  0  0
 21 27  1  0  0  0  0
 23 28  1  0  0  0  0
 25 26  1  0  0  0  0
 27 28  1  0  0  0  0
  4 29  1  0  0  0  0
  7 30  1  0  0  0  0
  7 31  1  0  0  0  0
  7 32  1  0  0  0  0
  9 33  1  0  0  0  0
 10 34  1  0  0  0  0
 11 35  1  0  0  0  0
 11 36  1  0  0  0  0
 12 37  1  0  0  0  0
 12 38  1  0  0  0  0
 13 39  1  0  0  0  0
 13 40  1  0  0  0  0
 14 41  1  0  0  0  0
 14 42  1  0  0  0  0
 15 43  1  0  0  0  0
 16 44  1  0  0  0  0
 17 45  1  0  0  0  0
 18 46  1  0  0  0  0
 19 47  1  0  0  0  0
 20 48  1  0  0  0  0
M  END
> <pdb_id>
4QYH

> <uniprot_id>
O14757

> <usmiles>
N#Cc1ncc2Nc3ncc(c4ccc(N5CCN(CC5)C)cc4)cc3c2c1

$$$$
3F3_B_1414
          07202411503D 1   1.00000     0.00000     0
            
 53 57  0  0  0  0            999 V2000
   21.9220  -19.2409  -25.7249 S   0  0  0  0  0  0  0  0  0  0  0  0
   22.7134  -11.5335  -24.7695 O   0  0  0  0  0  0  0  0  0  0  0  0
   24.0527  -17.0889  -26.0675 O   0  0  0  0  0  0  0  0  0  0  0  0
   24.7737  -20.3963  -23.2667 O   0  0  0  0  0  0  0  0  0  0  0  0
   26.2758  -17.2392  -25.8934 N   0  0  0  0  0  0  0  0  0  0  0  0
   25.7361  -18.4508  -25.3524 N   0  0  0  0  0  0  0  0  0  0  0  0
   27.3377  -20.1086  -20.8965 N   0  0  0  0  0  0  0  0  0  0  0  0
   21.5719  -11.6884  -25.6374 C   0  0  0  0  0  0  0  0  0  0  0  0
   26.9283  -21.3326  -21.5765 C   0  0  0  0  0  0  0  0  0  0  0  0
   26.5881  -18.9641  -21.4344 C   0  0  0  0  0  0  0  0  0  0  0  0
   19.7185  -22.1441  -23.9393 C   0  0  0  0  0  0  0  0  0  0  0  0
   20.7287  -22.6433  -23.0450 C   0  0  0  0  0  0  0  0  0  0  0  0
   26.1828  -12.5373  -24.3682 C   0  0  0  0  0  0  0  0  0  0  0  0
   20.1089  -21.1058  -24.8237 C   0  0  0  0  0  0  0  0  0  0  0  0
   25.4657  -21.6132  -21.2924 C   0  0  0  0  0  0  0  0  0  0  0  0
   25.0775  -19.1144  -21.3218 C   0  0  0  0  0  0  0  0  0  0  0  0
   24.9699  -11.8608  -24.2766 C   0  0  0  0  0  0  0  0  0  0  0  0
   26.2671  -13.5706  -25.2822 C   0  0  0  0  0  0  0  0  0  0  0  0
   21.9900  -22.0946  -23.0008 C   0  0  0  0  0  0  0  0  0  0  0  0
   25.4265  -15.1054  -27.0029 C   0  0  0  0  0  0  0  0  0  0  0  0
   23.9359  -13.3101  -25.9338 C   0  0  0  0  0  0  0  0  0  0  0  0
   25.2773  -16.4557  -26.3443 C   0  0  0  0  0  0  0  0  0  0  0  0
   24.4518  -18.2401  -25.4810 C   0  0  0  0  0  0  0  0  0  0  0  0
   21.3845  -20.5304  -24.8086 C   0  0  0  0  0  0  0  0  0  0  0  0
   23.4733  -19.1810  -24.9863 C   0  0  0  0  0  0  0  0  0  0  0  0
   23.8514  -12.2601  -25.0038 C   0  0  0  0  0  0  0  0  0  0  0  0
   24.6266  -20.4503  -21.8678 C   0  0  0  0  0  0  0  0  0  0  0  0
   23.6380  -20.2509  -24.0066 C   0  0  0  0  0  0  0  0  0  0  0  0
   25.1709  -13.9674  -26.0347 C   0  0  0  0  0  0  0  0  0  0  0  0
   22.3559  -21.0236  -23.8226 C   0  0  0  0  0  0  0  0  0  0  0  0
   28.3163  -19.9610  -21.0396 H   0  0  0  0  0  0  0  0  0  0  0  0
   20.8334  -11.0899  -25.3270 H   0  0  0  0  0  0  0  0  0  0  0  0
   21.8285  -11.4438  -26.5725 H   0  0  0  0  0  0  0  0  0  0  0  0
   21.2624  -12.6391  -25.6146 H   0  0  0  0  0  0  0  0  0  0  0  0
   27.4830  -22.0968  -21.2472 H   0  0  0  0  0  0  0  0  0  0  0  0
   27.0604  -21.2251  -22.5619 H   0  0  0  0  0  0  0  0  0  0  0  0
   26.8237  -18.8583  -22.4004 H   0  0  0  0  0  0  0  0  0  0  0  0
   26.8619  -18.1435  -20.9327 H   0  0  0  0  0  0  0  0  0  0  0  0
   18.7880  -22.5105  -23.9376 H   0  0  0  0  0  0  0  0  0  0  0  0
   20.5088  -23.4086  -22.4401 H   0  0  0  0  0  0  0  0  0  0  0  0
   26.9627  -12.2855  -23.7952 H   0  0  0  0  0  0  0  0  0  0  0  0
   19.4418  -20.7695  -25.4886 H   0  0  0  0  0  0  0  0  0  0  0  0
   25.3199  -21.6790  -20.3053 H   0  0  0  0  0  0  0  0  0  0  0  0
   25.1957  -22.4722  -21.7272 H   0  0  0  0  0  0  0  0  0  0  0  0
   24.6360  -18.3825  -21.8409 H   0  0  0  0  0  0  0  0  0  0  0  0
   24.8125  -19.0475  -20.3599 H   0  0  0  0  0  0  0  0  0  0  0  0
   24.8997  -11.0670  -23.6725 H   0  0  0  0  0  0  0  0  0  0  0  0
   27.1396  -14.0438  -25.4042 H   0  0  0  0  0  0  0  0  0  0  0  0
   22.6628  -22.4716  -22.3642 H   0  0  0  0  0  0  0  0  0  0  0  0
   24.7727  -15.0403  -27.7568 H   0  0  0  0  0  0  0  0  0  0  0  0
   26.3567  -15.0219  -27.3602 H   0  0  0  0  0  0  0  0  0  0  0  0
   23.1532  -13.5759  -26.4966 H   0  0  0  0  0  0  0  0  0  0  0  0
   23.6631  -20.5929  -21.6411 H   0  0  0  0  0  0  0  0  0  0  0  0
  1 24  1  0  0  0  0
  1 25  1  0  0  0  0
  2  8  1  0  0  0  0
  2 26  1  0  0  0  0
  3 22  1  0  0  0  0
  3 23  1  0  0  0  0
  4 27  1  0  0  0  0
  4 28  1  0  0  0  0
  5  6  1  0  0  0  0
  5 22  2  0  0  0  0
  6 23  2  0  0  0  0
  7  9  1  0  0  0  0
  7 10  1  0  0  0  0
  9 15  1  0  0  0  0
 10 16  1  0  0  0  0
 11 12  2  0  0  0  0
 11 14  1  0  0  0  0
 12 19  1  0  0  0  0
 13 17  2  0  0  0  0
 13 18  1  0  0  0  0
 14 24  2  0  0  0  0
 15 27  1  0  0  0  0
 16 27  1  0  0  0  0
 17 26  1  0  0  0  0
 18 29  2  0  0  0  0
 19 30  2  0  0  0  0
 20 22  1  0  0  0  0
 20 29  1  0  0  0  0
 21 26  2  0  0  0  0
 21 29  1  0  0  0  0
 23 25  1  0  0  0  0
 24 30  1  0  0  0  0
 25 28  2  0  0  0  0
 28 30  1  0  0  0  0
  7 31  1  0  0  0  0
  8 32  1  0  0  0  0
  8 33  1  0  0  0  0
  8 34  1  0  0  0  0
  9 35  1  0  0  0  0
  9 36  1  0  0  0  0
 10 37  1  0  0  0  0
 10 38  1  0  0  0  0
 11 39  1  0  0  0  0
 12 40  1  0  0  0  0
 13 41  1  0  0  0  0
 14 42  1  0  0  0  0
 15 43  1  0  0  0  0
 15 44  1  0  0  0  0
 16 45  1  0  0  0  0
 16 46  1  0  0  0  0
 17 47  1  0  0  0  0
 18 48  1  0  0  0  0
 19 49  1  0  0  0  0
 20 50  1  0  0  0  0
 20 51  1  0  0  0  0
 21 52  1  0  0  0  0
 27 53  1  0  0  0  0
M  END
> <pdb_id>
4CAE

> <uniprot_id>
A5K1A2

> <usmiles>
S1c2c(cccc2)C(OC3CCNCC3)=C1C=4OC(=NN4)Cc5cc(OC)ccc5

$$$$
3FB_A_902
          07202400433D 1   1.00000     0.00000     0
            
 26 26  0  0  0  0            999 V2000
   73.5120   45.8347    7.8779 O   0  0  0  0  0  0  0  0  0  0  0  0
   72.1720   44.6325    6.7141 O   0  0  0  0  0  0  0  0  0  0  0  0
   71.3759   44.7572    9.7421 N   0  0  0  0  0  0  0  0  0  0  0  0
   67.5408   49.8682   10.5812 C   0  0  0  0  0  0  0  0  0  0  0  0
   68.4536   49.6486   11.5852 C   0  0  0  0  0  0  0  0  0  0  0  0
   67.6575   49.1205    9.3933 C   0  0  0  0  0  0  0  0  0  0  0  0
   69.4905   48.7197   11.5150 C   0  0  0  0  0  0  0  0  0  0  0  0
   68.6965   48.2143    9.2840 C   0  0  0  0  0  0  0  0  0  0  0  0
   71.2283   46.5198    7.8532 C   0  0  0  0  0  0  0  0  0  0  0  0
   70.7528   47.0580   10.2424 C   0  0  0  0  0  0  0  0  0  0  0  0
   72.3900   45.6697    7.4402 C   0  0  0  0  0  0  0  0  0  0  0  0
   70.6750   45.9318    9.1584 C   0  0  2  0  0  0  0  0  0  0  0  0
   69.6006   48.0046   10.3261 C   0  0  0  0  0  0  0  0  0  0  0  0
   73.7147   46.6320    8.4464 H   0  0  0  0  0  0  0  0  0  0  0  0
   70.9144   44.4782   10.5843 H   0  0  0  0  0  0  0  0  0  0  0  0
   71.3611   44.0011    9.0877 H   0  0  0  0  0  0  0  0  0  0  0  0
   66.8110   50.5429   10.6917 H   0  0  0  0  0  0  0  0  0  0  0  0
   68.3683   50.1910   12.4209 H   0  0  0  0  0  0  0  0  0  0  0  0
   67.0042   49.2422    8.6460 H   0  0  0  0  0  0  0  0  0  0  0  0
   70.1211   48.5749   12.2775 H   0  0  0  0  0  0  0  0  0  0  0  0
   68.8027   47.6954    8.4358 H   0  0  0  0  0  0  0  0  0  0  0  0
   70.5231   46.5036    7.1444 H   0  0  0  0  0  0  0  0  0  0  0  0
   71.5293   47.4616    8.0025 H   0  0  0  0  0  0  0  0  0  0  0  0
   71.5734   47.5985   10.0565 H   0  0  0  0  0  0  0  0  0  0  0  0
   70.8417   46.6127   11.1333 H   0  0  0  0  0  0  0  0  0  0  0  0
   69.7146   45.6915    9.0173 H   0  0  0  0  0  0  0  0  0  0  0  0
  1 11  1  0  0  0  0
  2 11  2  0  0  0  0
  3 12  1  0  0  0  0
  4  5  2  0  0  0  0
  4  6  1  0  0  0  0
  5  7  1  0  0  0  0
  6  8  2  0  0  0  0
  7 13  2  0  0  0  0
  8 13  1  0  0  0  0
  9 11  1  0  0  0  0
  9 12  1  0  0  0  0
 10 12  1  0  0  0  0
 10 13  1  0  0  0  0
  1 14  1  0  0  0  0
  3 15  1  0  0  0  0
  3 16  1  0  0  0  0
  4 17  1  0  0  0  0
  5 18  1  0  0  0  0
  6 19  1  0  0  0  0
  7 20  1  0  0  0  0
  8 21  1  0  0  0  0
  9 22  1  0  0  0  0
  9 23  1  0  0  0  0
 10 24  1  0  0  0  0
 10 25  1  0  0  0  0
 12 26  1  0  0  0  0
M  END
> <pdb_id>
4XNB

> <uniprot_id>
P04825

> <usmiles>
O=C(O)C[C@@H](N)Cc1ccccc1

$$$$
3FE_A_301
          07192420463D 1   1.00000     0.00000     0
            
 38 41  0  0  0  0            999 V2000
    2.5555   -8.5318   16.1262 O   0  0  0  0  0  0  0  0  0  0  0  0
   10.8234   -6.7165   14.8808 N   0  0  0  0  0  0  0  0  0  0  0  0
    3.9598   -3.0212   19.8515 N   0  0  0  0  0  0  0  0  0  0  0  0
    2.6278   -4.6676   19.0336 N   0  0  0  0  0  0  0  0  0  0  0  0
    6.2102   -2.8750   19.0132 N   0  0  0  0  0  0  0  0  0  0  0  0
    3.2735   -6.1483   17.4436 N   0  0  0  0  0  0  0  0  0  0  0  0
    1.7464   -7.4230   16.0335 C   0  0  0  0  0  0  0  0  0  0  0  0
    3.9444   -8.2500   16.2074 C   0  0  0  0  0  0  0  0  0  0  0  0
    2.7862   -3.6346   19.8580 C   0  0  0  0  0  0  0  0  0  0  0  0
    9.7002   -6.5247   14.9355 C   0  0  0  0  0  0  0  0  0  0  0  0
    6.9101   -3.5293   18.1027 C   0  0  0  0  0  0  0  0  0  0  0  0
    1.8621   -6.4558   17.2281 C   0  0  0  0  0  0  0  0  0  0  0  0
    4.3076   -7.1817   17.2428 C   0  0  0  0  0  0  0  0  0  0  0  0
    6.0599   -6.2447   14.2562 C   0  0  0  0  0  0  0  0  0  0  0  0
    7.4065   -6.5747   14.0662 C   0  0  0  0  0  0  0  0  0  0  0  0
    5.6329   -5.5724   15.4243 C   0  0  0  0  0  0  0  0  0  0  0  0
    7.8758   -5.5790   16.2131 C   0  0  0  0  0  0  0  0  0  0  0  0
    4.9956   -3.4003   19.1058 C   0  0  0  0  0  0  0  0  0  0  0  0
    3.6042   -5.0672   18.1951 C   0  0  0  0  0  0  0  0  0  0  0  0
    8.3150   -6.2417   15.0618 C   0  0  0  0  0  0  0  0  0  0  0  0
    6.5516   -5.3294   16.4430 C   0  0  0  0  0  0  0  0  0  0  0  0
    6.0886   -4.5313   17.5837 C   0  0  0  0  0  0  0  0  0  0  0  0
    4.8500   -4.4403   18.2126 C   0  0  0  0  0  0  0  0  0  0  0  0
    6.5455   -2.1013   19.5508 H   0  0  0  0  0  0  0  0  0  0  0  0
    0.7973   -7.7316   15.9704 H   0  0  0  0  0  0  0  0  0  0  0  0
    1.9909   -6.9248   15.2016 H   0  0  0  0  0  0  0  0  0  0  0  0
    4.2536   -7.9352   15.3100 H   0  0  0  0  0  0  0  0  0  0  0  0
    4.4225   -9.0949   16.4473 H   0  0  0  0  0  0  0  0  0  0  0  0
    2.0467   -3.3331   20.4598 H   0  0  0  0  0  0  0  0  0  0  0  0
    7.8549   -3.3410   17.8349 H   0  0  0  0  0  0  0  0  0  0  0  0
    1.3603   -5.6139   17.0297 H   0  0  0  0  0  0  0  0  0  0  0  0
    1.4820   -6.8853   18.0473 H   0  0  0  0  0  0  0  0  0  0  0  0
    4.4684   -7.6372   18.1184 H   0  0  0  0  0  0  0  0  0  0  0  0
    5.1476   -6.7291   16.9433 H   0  0  0  0  0  0  0  0  0  0  0  0
    5.3896   -6.4881   13.5551 H   0  0  0  0  0  0  0  0  0  0  0  0
    7.7072   -7.0394   13.2333 H   0  0  0  0  0  0  0  0  0  0  0  0
    4.6828   -5.2748   15.5181 H   0  0  0  0  0  0  0  0  0  0  0  0
    8.5505   -5.2791   16.8876 H   0  0  0  0  0  0  0  0  0  0  0  0
  1  7  1  0  0  0  0
  1  8  1  0  0  0  0
  2 10  3  0  0  0  0
  3  9  2  0  0  0  0
  3 18  1  0  0  0  0
  4  9  1  0  0  0  0
  4 19  2  0  0  0  0
  5 11  1  0  0  0  0
  5 18  1  0  0  0  0
  6 12  1  0  0  0  0
  6 13  1  0  0  0  0
  6 19  1  0  0  0  0
  7 12  1  0  0  0  0
  8 13  1  0  0  0  0
 10 20  1  0  0  0  0
 11 22  2  0  0  0  0
 14 15  1  0  0  0  0
 14 16  2  0  0  0  0
 15 20  2  0  0  0  0
 16 21  1  0  0  0  0
 17 20  1  0  0  0  0
 17 21  2  0  0  0  0
 18 23  2  0  0  0  0
 19 23  1  0  0  0  0
 21 22  1  0  0  0  0
 22 23  1  0  0  0  0
  5 24  1  0  0  0  0
  7 25  1  0  0  0  0
  7 26  1  0  0  0  0
  8 27  1  0  0  0  0
  8 28  1  0  0  0  0
  9 29  1  0  0  0  0
 11 30  1  0  0  0  0
 12 31  1  0  0  0  0
 12 32  1  0  0  0  0
 13 33  1  0  0  0  0
 13 34  1  0  0  0  0
 14 35  1  0  0  0  0
 15 36  1  0  0  0  0
 16 37  1  0  0  0  0
 17 38  1  0  0  0  0
M  END
> <pdb_id>
5OP5

> <uniprot_id>
O14757

> <usmiles>
O1CCN(c2ncnc3NC=C(c23)c4cc(C#N)ccc4)CC1

$$$$
3FH_A_302
          07192416293D 1   1.00000     0.00000     0
            
 16 16  0  0  0  0            999 V2000
   -6.2736    0.4208   17.0570 S   0  0  0  0  0  0  0  0  0  0  0  0
   -6.3039    4.9167   17.0574 F   0  0  0  0  0  0  0  0  0  0  0  0
   -7.6532    3.2757   16.9001 F   0  0  0  0  0  0  0  0  0  0  0  0
   -6.0550    3.1353   18.3790 F   0  0  0  0  0  0  0  0  0  0  0  0
   -4.6357   -0.4573   14.8165 O   0  5  0  0  0  0  0  0  0  0  0  0
   -4.6884    0.8684   14.9335 N   0  3  0  0  0  0  0  0  0  0  0  0
   -4.0431    1.6559   14.0282 C   0  0  0  0  0  0  0  0  0  0  0  0
   -4.0824    3.0758   14.1610 C   0  0  0  0  0  0  0  0  0  0  0  0
   -4.8818    3.6714   15.1651 C   0  0  0  0  0  0  0  0  0  0  0  0
   -5.4506    1.4312   15.8956 C   0  0  0  0  0  0  0  0  0  0  0  0
   -5.5214    2.9239   16.0144 C   0  0  0  0  0  0  0  0  0  0  0  0
   -6.4373    3.5888   17.1134 C   0  0  0  0  0  0  0  0  0  0  0  0
   -6.8383    0.8364   17.7700 H   0  0  0  0  0  0  0  0  0  0  0  0
   -3.5417    1.2385   13.2703 H   0  0  0  0  0  0  0  0  0  0  0  0
   -3.5447    3.6505   13.5441 H   0  0  0  0  0  0  0  0  0  0  0  0
   -4.9547    4.6672   15.2213 H   0  0  0  0  0  0  0  0  0  0  0  0
  1 10  1  0  0  0  0
  2 12  1  0  0  0  0
  3 12  1  0  0  0  0
  4 12  1  0  0  0  0
  5  6  1  0  0  0  0
  6  7  1  0  0  0  0
  6 10  2  0  0  0  0
  7  8  2  0  0  0  0
  8  9  1  0  0  0  0
  9 11  2  0  0  0  0
 10 11  1  0  0  0  0
 11 12  1  0  0  0  0
  1 13  1  0  0  0  0
  7 14  1  0  0  0  0
  8 15  1  0  0  0  0
  9 16  1  0  0  0  0
M  CHG  2   5  -1   6   1
M  END
> <pdb_id>
4Q83

> <uniprot_id>
P00918

> <usmiles>
Sc1[n+]([O-])cccc1C(F)(F)F

$$$$
3FV_A_501
          07192420493D 1   1.00000     0.00000     0
            
 44 47  0  0  0  0            999 V2000
   16.0808    3.2250   23.9282 Cl  0  0  0  0  0  0  0  0  0  0  0  0
   15.1228    0.4181   25.2667 O   0  0  0  0  0  0  0  0  0  0  0  0
   13.2911   -2.7356   27.5535 N   0  0  0  0  0  0  0  0  0  0  0  0
   13.6224   -2.7308   28.6779 N   0  0  0  0  0  0  0  0  0  0  0  0
   16.9939    2.4918   27.6565 N   0  0  0  0  0  0  0  0  0  0  0  0
   19.5018    4.5937   31.0212 N   0  0  0  0  0  0  0  0  0  0  0  0
   15.7387   -0.2012   30.2705 N   0  0  0  0  0  0  0  0  0  0  0  0
   15.2664    0.1975   27.5733 N   0  0  0  0  0  0  0  0  0  0  0  0
   17.5452    3.4823   27.4631 N   0  0  0  0  0  0  0  0  0  0  0  0
   20.3207    3.9561   29.9775 C   0  0  0  0  0  0  0  0  0  0  0  0
   18.5378    5.5755   30.4857 C   0  0  0  0  0  0  0  0  0  0  0  0
   16.4192    0.1167   31.3799 C   0  0  0  0  0  0  0  0  0  0  0  0
   13.8129   -1.6804   26.8693 C   0  0  0  0  0  0  0  0  0  0  0  0
   17.3805    3.9410   26.2186 C   0  0  0  0  0  0  0  0  0  0  0  0
   16.3684   -0.7301   32.4847 C   0  0  0  0  0  0  0  0  0  0  0  0
   15.5988   -1.9009   32.4192 C   0  0  0  0  0  0  0  0  0  0  0  0
   19.3143    3.1851   29.0721 C   0  0  0  0  0  0  0  0  0  0  0  0
   17.5536    4.8844   29.5162 C   0  0  0  0  0  0  0  0  0  0  0  0
   14.9202   -2.2087   31.2443 C   0  0  0  0  0  0  0  0  0  0  0  0
   15.4723    0.8345   26.3994 C   0  0  0  0  0  0  0  0  0  0  0  0
   16.5891    3.0728   25.5905 C   0  0  0  0  0  0  0  0  0  0  0  0
   14.5545   -0.9735   27.7469 C   0  0  0  0  0  0  0  0  0  0  0  0
   15.0123   -1.3270   30.1741 C   0  0  0  0  0  0  0  0  0  0  0  0
   14.3603   -1.6556   28.9445 C   0  0  0  0  0  0  0  0  0  0  0  0
   16.3076    2.1135   26.5599 C   0  0  0  0  0  0  0  0  0  0  0  0
   18.3877    4.1861   28.4409 C   0  0  0  0  0  0  0  0  0  0  0  0
   12.6976   -3.4300   27.1465 H   0  0  0  0  0  0  0  0  0  0  0  0
   20.1109    5.0627   31.6607 H   0  0  0  0  0  0  0  0  0  0  0  0
   15.6659    0.6118   28.3911 H   0  0  0  0  0  0  0  0  0  0  0  0
   20.9780    3.3234   30.3869 H   0  0  0  0  0  0  0  0  0  0  0  0
   20.8100    4.6476   29.4461 H   0  0  0  0  0  0  0  0  0  0  0  0
   19.0342    6.2926   29.9965 H   0  0  0  0  0  0  0  0  0  0  0  0
   18.0254    5.9816   31.2424 H   0  0  0  0  0  0  0  0  0  0  0  0
   16.9604    0.9569   31.4146 H   0  0  0  0  0  0  0  0  0  0  0  0
   13.6732   -1.4699   25.9017 H   0  0  0  0  0  0  0  0  0  0  0  0
   17.7753    4.7750   25.8333 H   0  0  0  0  0  0  0  0  0  0  0  0
   16.8757   -0.5055   33.3167 H   0  0  0  0  0  0  0  0  0  0  0  0
   15.5383   -2.5093   33.2105 H   0  0  0  0  0  0  0  0  0  0  0  0
   18.7884    2.5387   29.6248 H   0  0  0  0  0  0  0  0  0  0  0  0
   19.8112    2.6882   28.3606 H   0  0  0  0  0  0  0  0  0  0  0  0
   16.9534    5.5648   29.0955 H   0  0  0  0  0  0  0  0  0  0  0  0
   17.0013    4.2130   30.0105 H   0  0  0  0  0  0  0  0  0  0  0  0
   14.3782   -3.0459   31.1716 H   0  0  0  0  0  0  0  0  0  0  0  0
   18.9339    4.8725   27.9606 H   0  0  0  0  0  0  0  0  0  0  0  0
  1 21  1  0  0  0  0
  2 20  2  0  0  0  0
  3  4  1  0  0  0  0
  3 13  1  0  0  0  0
  4 24  2  0  0  0  0
  5  9  1  0  0  0  0
  5 25  2  0  0  0  0
  6 10  1  0  0  0  0
  6 11  1  0  0  0  0
  7 12  1  0  0  0  0
  7 23  2  0  0  0  0
  8 20  1  0  0  0  0
  8 22  1  0  0  0  0
  9 14  1  0  0  0  0
  9 26  1  0  0  0  0
 10 17  1  0  0  0  0
 11 18  1  0  0  0  0
 12 15  2  0  0  0  0
 13 22  2  0  0  0  0
 14 21  2  0  0  0  0
 15 16  1  0  0  0  0
 16 19  2  0  0  0  0
 17 26  1  0  0  0  0
 18 26  1  0  0  0  0
 19 23  1  0  0  0  0
 20 25  1  0  0  0  0
 21 25  1  0  0  0  0
 22 24  1  0  0  0  0
 23 24  1  0  0  0  0
  3 27  1  0  0  0  0
  6 28  1  0  0  0  0
  8 29  1  0  0  0  0
 10 30  1  0  0  0  0
 10 31  1  0  0  0  0
 11 32  1  0  0  0  0
 11 33  1  0  0  0  0
 12 34  1  0  0  0  0
 13 35  1  0  0  0  0
 14 36  1  0  0  0  0
 15 37  1  0  0  0  0
 16 38  1  0  0  0  0
 17 39  1  0  0  0  0
 17 40  1  0  0  0  0
 18 41  1  0  0  0  0
 18 42  1  0  0  0  0
 19 43  1  0  0  0  0
 26 44  1  0  0  0  0
M  END
> <pdb_id>
4UAL

> <uniprot_id>
Q9Y5S2

> <usmiles>
ClC=1C(=NN(C1)C2CCNCC2)C(=O)NC=3C(=NNC3)c4ncccc4

$$$$
3GN_A_900
          07202406393D 1   1.00000     0.00000     0
            
 34 36  0  0  0  0            999 V2000
    9.1761   -1.5157   -4.4912 O   0  0  0  0  0  0  0  0  0  0  0  0
   10.7015   -2.7783   -5.6810 N   0  0  0  0  0  0  0  0  0  0  0  0
    8.0520   -4.8162   -9.0443 N   0  0  0  0  0  0  0  0  0  0  0  0
    9.6404   -4.4291   -7.5563 N   0  0  0  0  0  0  0  0  0  0  0  0
   11.2392   -6.5973   -8.3568 N   0  0  0  0  0  0  0  0  0  0  0  0
   10.3714   -6.0844  -10.5608 C   0  0  0  0  0  0  0  0  0  0  0  0
   11.0067   -7.6927   -7.3898 C   0  0  0  0  0  0  0  0  0  0  0  0
    9.8111   -8.4409   -7.9300 C   0  0  0  0  0  0  0  0  0  0  0  0
    6.3674   -1.9706   -7.5024 C   0  0  0  0  0  0  0  0  0  0  0  0
    6.4759   -2.9919   -8.4170 C   0  0  0  0  0  0  0  0  0  0  0  0
    7.3348   -1.7368   -6.5503 C   0  0  0  0  0  0  0  0  0  0  0  0
    9.1976   -7.6085   -9.0307 C   0  0  0  0  0  0  0  0  0  0  0  0
    9.4786   -2.2017   -5.4550 C   0  0  0  0  0  0  0  0  0  0  0  0
    9.2654   -5.1948   -8.5614 C   0  0  0  0  0  0  0  0  0  0  0  0
    7.6207   -3.7472   -8.3122 C   0  0  0  0  0  0  0  0  0  0  0  0
    8.6214   -3.5257   -7.3934 C   0  0  0  0  0  0  0  0  0  0  0  0
    8.4760   -2.4992   -6.4807 C   0  0  0  0  0  0  0  0  0  0  0  0
    9.9992   -6.3360   -9.1293 C   0  0  1  0  0  0  0  0  0  0  0  0
   10.8518   -3.3255   -6.5044 H   0  0  0  0  0  0  0  0  0  0  0  0
   11.4433   -2.6517   -5.0224 H   0  0  0  0  0  0  0  0  0  0  0  0
    7.5614   -5.2454   -9.8026 H   0  0  0  0  0  0  0  0  0  0  0  0
   11.9724   -6.8588   -8.9845 H   0  0  0  0  0  0  0  0  0  0  0  0
    9.5443   -5.9065  -11.0940 H   0  0  0  0  0  0  0  0  0  0  0  0
   10.9786   -5.2915  -10.6130 H   0  0  0  0  0  0  0  0  0  0  0  0
   10.8395   -6.8874  -10.9296 H   0  0  0  0  0  0  0  0  0  0  0  0
   10.8098   -7.3242   -6.4813 H   0  0  0  0  0  0  0  0  0  0  0  0
   11.8046   -8.2935   -7.3401 H   0  0  0  0  0  0  0  0  0  0  0  0
    9.1426   -8.5845   -7.2004 H   0  0  0  0  0  0  0  0  0  0  0  0
   10.1011   -9.3256   -8.2952 H   0  0  0  0  0  0  0  0  0  0  0  0
    5.5613   -1.3795   -7.5294 H   0  0  0  0  0  0  0  0  0  0  0  0
    5.7747   -3.1720   -9.1069 H   0  0  0  0  0  0  0  0  0  0  0  0
    7.2036   -0.9940   -5.8937 H   0  0  0  0  0  0  0  0  0  0  0  0
    8.2456   -7.3970   -8.8097 H   0  0  0  0  0  0  0  0  0  0  0  0
    9.2362   -8.1053   -9.8977 H   0  0  0  0  0  0  0  0  0  0  0  0
  1 13  2  0  0  0  0
  2 13  1  0  0  0  0
  3 14  1  0  0  0  0
  3 15  1  0  0  0  0
  4 14  2  0  0  0  0
  4 16  1  0  0  0  0
  5  7  1  0  0  0  0
  5 18  1  0  0  0  0
  6 18  1  0  0  0  0
  7  8  1  0  0  0  0
  8 12  1  0  0  0  0
  9 10  2  0  0  0  0
  9 11  1  0  0  0  0
 10 15  1  0  0  0  0
 11 17  2  0  0  0  0
 12 18  1  0  0  0  0
 13 17  1  0  0  0  0
 14 18  1  0  0  0  0
 15 16  2  0  0  0  0
 16 17  1  0  0  0  0
  2 19  1  0  0  0  0
  2 20  1  0  0  0  0
  3 21  1  0  0  0  0
  5 22  1  0  0  0  0
  6 23  1  0  0  0  0
  6 24  1  0  0  0  0
  6 25  1  0  0  0  0
  7 26  1  0  0  0  0
  7 27  1  0  0  0  0
  8 28  1  0  0  0  0
  8 29  1  0  0  0  0
  9 30  1  0  0  0  0
 10 31  1  0  0  0  0
 11 32  1  0  0  0  0
 12 33  1  0  0  0  0
 12 34  1  0  0  0  0
M  END
> <pdb_id>
3GN7

> <uniprot_id>
P09874

> <usmiles>
O=C(N)c1c2N=C(Nc2ccc1)[C@]3(NCCC3)C

$$$$
3HB_A_401
          07202417153D 1   1.00000     0.00000     0
            
 16 16  0  0  0  0            999 V2000
    7.2901   50.6610    5.3268 O   0  0  0  0  0  0  0  0  0  0  0  0
    5.6407   49.3788    6.0950 O   0  0  0  0  0  0  0  0  0  0  0  0
   10.4789   47.4620    3.0205 O   0  0  0  0  0  0  0  0  0  0  0  0
    7.5490   45.9469    4.6138 C   0  0  0  0  0  0  0  0  0  0  0  0
    8.7424   46.0798    3.9297 C   0  0  0  0  0  0  0  0  0  0  0  0
    6.8986   47.0625    5.1089 C   0  0  0  0  0  0  0  0  0  0  0  0
    8.6370   48.4438    4.2187 C   0  0  0  0  0  0  0  0  0  0  0  0
    9.2894   47.3252    3.7206 C   0  0  0  0  0  0  0  0  0  0  0  0
    6.7461   49.5325    5.4678 C   0  0  0  0  0  0  0  0  0  0  0  0
    7.4426   48.3240    4.9098 C   0  0  0  0  0  0  0  0  0  0  0  0
   10.3748   48.0617    2.3772 H   0  0  0  0  0  0  0  0  0  0  0  0
    7.1677   45.0656    4.7529 H   0  0  0  0  0  0  0  0  0  0  0  0
    9.1844   45.2930    3.5744 H   0  0  0  0  0  0  0  0  0  0  0  0
    6.0683   46.9630    5.6003 H   0  0  0  0  0  0  0  0  0  0  0  0
    9.0233   49.3231    4.0797 H   0  0  0  0  0  0  0  0  0  0  0  0
    8.1543   50.7408    4.8300 H   0  0  0  0  0  0  0  0  0  0  0  0
  1  9  1  0  0  0  0
  2  9  2  0  0  0  0
  3  8  1  0  0  0  0
  3 11  1  0  0  0  0
  4  5  2  0  0  0  0
  4  6  1  0  0  0  0
  4 12  1  0  0  0  0
  5  8  1  0  0  0  0
  5 13  1  0  0  0  0
  6 10  2  0  0  0  0
  6 14  1  0  0  0  0
  7  8  2  0  0  0  0
  7 10  1  0  0  0  0
  7 15  1  0  0  0  0
  9 10  1  0  0  0  0
  1 16  1  0  0  0  0
M  END
> <pdb_id>
4PAI

> <uniprot_id>
Q5LSJ5

> <usmiles>
O=C(O)c1cc(O)ccc1

$$$$
3HB_B_401
          07202406053D 1   1.00000     0.00000     0
            
 16 16  0  0  0  0            999 V2000
   -1.9789   -0.4091    6.6852 O   0  0  0  0  0  0  0  0  0  0  0  0
   -1.8267    1.7459    6.7647 O   0  0  0  0  0  0  0  0  0  0  0  0
    3.0153    2.7659    5.8581 O   0  0  0  0  0  0  0  0  0  0  0  0
    2.0282   -0.6967    5.3594 C   0  0  0  0  0  0  0  0  0  0  0  0
    2.7988    0.4318    5.3927 C   0  0  0  0  0  0  0  0  0  0  0  0
    0.7144   -0.6411    5.7538 C   0  0  0  0  0  0  0  0  0  0  0  0
    0.9302    1.6901    6.2179 C   0  0  0  0  0  0  0  0  0  0  0  0
    2.2451    1.6274    5.8132 C   0  0  0  0  0  0  0  0  0  0  0  0
   -1.2896    0.6344    6.5932 C   0  0  0  0  0  0  0  0  0  0  0  0
    0.1662    0.5492    6.1978 C   0  0  0  0  0  0  0  0  0  0  0  0
    2.8675    3.2353    5.1647 H   0  0  0  0  0  0  0  0  0  0  0  0
    2.3960   -1.5027    5.0771 H   0  0  0  0  0  0  0  0  0  0  0  0
    3.6909    0.3963    5.1330 H   0  0  0  0  0  0  0  0  0  0  0  0
    0.1913   -1.4107    5.7284 H   0  0  0  0  0  0  0  0  0  0  0  0
    0.5633    2.4971    6.4984 H   0  0  0  0  0  0  0  0  0  0  0  0
   -1.5529   -1.3034    6.5485 H   0  0  0  0  0  0  0  0  0  0  0  0
  1  9  1  0  0  0  0
  2  9  2  0  0  0  0
  3  8  1  0  0  0  0
  3 11  1  0  0  0  0
  4  5  2  0  0  0  0
  4  6  1  0  0  0  0
  4 12  1  0  0  0  0
  5  8  1  0  0  0  0
  5 13  1  0  0  0  0
  6 10  2  0  0  0  0
  6 14  1  0  0  0  0
  7  8  2  0  0  0  0
  7 10  1  0  0  0  0
  7 15  1  0  0  0  0
  9 10  1  0  0  0  0
  1 16  1  0  0  0  0
M  END
> <pdb_id>
5I7I

> <uniprot_id>
nan

> <usmiles>
O=C(O)c1cc(O)ccc1

$$$$
3HJ_A_501
          07192416213D 1   1.00000     0.00000     0
            
 51 54  0  0  0  0            999 V2000
   21.4063   11.2615   31.6832 O   0  0  0  0  0  0  0  0  0  0  0  0
   25.9408    3.1093   31.9328 O   0  0  0  0  0  0  0  0  0  0  0  0
   20.5209    6.6231   32.4023 N   0  0  0  0  0  0  0  0  0  0  0  0
   24.2851   -0.5774   35.3739 N   0  0  0  0  0  0  0  0  0  0  0  0
   19.9205   10.0900   32.8522 N   0  0  0  0  0  0  0  0  0  0  0  0
   20.0185   12.5388   32.9406 N   0  0  0  0  0  0  0  0  0  0  0  0
   23.8134    2.6708   32.7312 N   0  0  0  0  0  0  0  0  0  0  0  0
   21.5828    7.1455   31.7041 N   0  0  0  0  0  0  0  0  0  0  0  0
   22.2885   -1.7176   34.5075 C   0  0  0  0  0  0  0  0  0  0  0  0
   25.1994    0.4279   35.4014 C   0  0  0  0  0  0  0  0  0  0  0  0
   19.7331    7.5987   32.8248 C   0  0  0  0  0  0  0  0  0  0  0  0
   21.5519    8.4845   31.8379 C   0  0  0  0  0  0  0  0  0  0  0  0
   17.2311   13.0061   36.1168 C   0  0  0  0  0  0  0  0  0  0  0  0
   17.1242   13.7945   34.9617 C   0  0  0  0  0  0  0  0  0  0  0  0
   18.2915   12.0962   36.2557 C   0  0  0  0  0  0  0  0  0  0  0  0
   24.4576    6.3369   29.5216 C   0  0  0  0  0  0  0  0  0  0  0  0
   25.0681    1.4957   34.5355 C   0  0  0  0  0  0  0  0  0  0  0  0
   18.0181   13.6643   33.9022 C   0  0  0  0  0  0  0  0  0  0  0  0
   19.1574   11.9243   35.1876 C   0  0  0  0  0  0  0  0  0  0  0  0
   23.3172    6.9680   30.0082 C   0  0  0  0  0  0  0  0  0  0  0  0
   24.9185    5.1481   30.1390 C   0  0  0  0  0  0  0  0  0  0  0  0
   23.1023    0.4666   33.5992 C   0  0  0  0  0  0  0  0  0  0  0  0
   23.1445    5.3123   31.8009 C   0  0  0  0  0  0  0  0  0  0  0  0
   20.4921   11.2752   32.4337 C   0  0  0  0  0  0  0  0  0  0  0  0
   24.7664    3.4144   31.9945 C   0  0  0  0  0  0  0  0  0  0  0  0
   23.2637   -0.5692   34.5009 C   0  0  0  0  0  0  0  0  0  0  0  0
   20.3679    8.8121   32.4863 C   0  0  0  0  0  0  0  0  0  0  0  0
   19.0213   12.6816   33.9936 C   0  0  0  0  0  0  0  0  0  0  0  0
   24.0411    1.4991   33.5926 C   0  0  0  0  0  0  0  0  0  0  0  0
   22.6348    6.4496   31.1488 C   0  0  0  0  0  0  0  0  0  0  0  0
   24.2501    4.6309   31.2696 C   0  0  0  0  0  0  0  0  0  0  0  0
   19.1291   10.1470   33.4609 H   0  0  0  0  0  0  0  0  0  0  0  0
   20.3999   13.3734   32.5430 H   0  0  0  0  0  0  0  0  0  0  0  0
   22.8656    2.9808   32.6571 H   0  0  0  0  0  0  0  0  0  0  0  0
   21.5914   -1.5670   33.8065 H   0  0  0  0  0  0  0  0  0  0  0  0
   22.7756   -2.5696   34.3157 H   0  0  0  0  0  0  0  0  0  0  0  0
   21.8512   -1.7784   35.4048 H   0  0  0  0  0  0  0  0  0  0  0  0
   25.9635    0.3945   36.0457 H   0  0  0  0  0  0  0  0  0  0  0  0
   18.8561    7.4956   33.2941 H   0  0  0  0  0  0  0  0  0  0  0  0
   22.2532    9.1262   31.5273 H   0  0  0  0  0  0  0  0  0  0  0  0
   16.5499   13.0922   36.8439 H   0  0  0  0  0  0  0  0  0  0  0  0
   16.3871   14.4673   34.8974 H   0  0  0  0  0  0  0  0  0  0  0  0
   18.4189   11.5844   37.1053 H   0  0  0  0  0  0  0  0  0  0  0  0
   24.9494    6.7205   28.7400 H   0  0  0  0  0  0  0  0  0  0  0  0
   25.7071    2.2633   34.5845 H   0  0  0  0  0  0  0  0  0  0  0  0
   17.9490   14.2537   33.0973 H   0  0  0  0  0  0  0  0  0  0  0  0
   19.8944   11.2521   35.2589 H   0  0  0  0  0  0  0  0  0  0  0  0
   22.9735    7.7907   29.5554 H   0  0  0  0  0  0  0  0  0  0  0  0
   25.7194    4.6741   29.7729 H   0  0  0  0  0  0  0  0  0  0  0  0
   22.3291    0.4755   32.9651 H   0  0  0  0  0  0  0  0  0  0  0  0
   22.7178    4.9884   32.6453 H   0  0  0  0  0  0  0  0  0  0  0  0
  1 24  2  0  0  0  0
  2 25  2  0  0  0  0
  3  8  1  0  0  0  0
  3 11  2  0  0  0  0
  4 10  2  0  0  0  0
  4 26  1  0  0  0  0
  5 24  1  0  0  0  0
  5 27  1  0  0  0  0
  6 24  1  0  0  0  0
  6 28  1  0  0  0  0
  7 25  1  0  0  0  0
  7 29  1  0  0  0  0
  8 12  1  0  0  0  0
  8 30  1  0  0  0  0
  9 26  1  0  0  0  0
 10 17  1  0  0  0  0
 11 27  1  0  0  0  0
 12 27  2  0  0  0  0
 13 14  2  0  0  0  0
 13 15  1  0  0  0  0
 14 18  1  0  0  0  0
 15 19  2  0  0  0  0
 16 20  2  0  0  0  0
 16 21  1  0  0  0  0
 17 29  2  0  0  0  0
 18 28  2  0  0  0  0
 19 28  1  0  0  0  0
 20 30  1  0  0  0  0
 21 31  2  0  0  0  0
 22 26  2  0  0  0  0
 22 29  1  0  0  0  0
 23 30  2  0  0  0  0
 23 31  1  0  0  0  0
 25 31  1  0  0  0  0
  5 32  1  0  0  0  0
  6 33  1  0  0  0  0
  7 34  1  0  0  0  0
  9 35  1  0  0  0  0
  9 36  1  0  0  0  0
  9 37  1  0  0  0  0
 10 38  1  0  0  0  0
 11 39  1  0  0  0  0
 12 40  1  0  0  0  0
 13 41  1  0  0  0  0
 14 42  1  0  0  0  0
 15 43  1  0  0  0  0
 16 44  1  0  0  0  0
 17 45  1  0  0  0  0
 18 46  1  0  0  0  0
 19 47  1  0  0  0  0
 20 48  1  0  0  0  0
 21 49  1  0  0  0  0
 22 50  1  0  0  0  0
 23 51  1  0  0  0  0
M  END
> <pdb_id>
4W4W

> <uniprot_id>
P53779

> <usmiles>
O=C(Nc1ccccc1)NC=2C=NN(c3cc(ccc3)C(=O)Nc4cc(ncc4)C)C2

$$$$
3HP_A_401
          07202406053D 1   1.00000     0.00000     0
            
 19 19  0  0  0  0            999 V2000
   -2.1190   -0.3340    6.6210 O   0  0  0  0  0  0  0  0  0  0  0  0
   -2.0910    1.8820    6.8370 O   0  0  0  0  0  0  0  0  0  0  0  0
    3.6360    2.7530    5.6740 O   0  0  0  0  0  0  0  0  0  0  0  0
    2.2370   -0.6170    5.1510 C   0  0  0  0  0  0  0  0  0  0  0  0
    3.0600    0.4890    5.0230 C   0  0  0  0  0  0  0  0  0  0  0  0
    1.1450   -0.5740    5.9970 C   0  0  0  0  0  0  0  0  0  0  0  0
    1.7130    1.6600    6.6080 C   0  0  0  0  0  0  0  0  0  0  0  0
   -0.2530    0.6360    7.7170 C   0  0  0  0  0  0  0  0  0  0  0  0
   -1.5740    0.7430    6.9920 C   0  0  0  0  0  0  0  0  0  0  0  0
    2.7900    1.6360    5.7540 C   0  0  0  0  0  0  0  0  0  0  0  0
    0.8760    0.5660    6.7250 C   0  0  0  0  0  0  0  0  0  0  0  0
    3.4440    3.2040    4.9790 H   0  0  0  0  0  0  0  0  0  0  0  0
    2.3990   -1.3780    4.6420 H   0  0  0  0  0  0  0  0  0  0  0  0
    3.7840    0.4660    4.4400 H   0  0  0  0  0  0  0  0  0  0  0  0
    0.5940   -1.3190    6.0810 H   0  0  0  0  0  0  0  0  0  0  0  0
    1.5500    2.4190    7.1200 H   0  0  0  0  0  0  0  0  0  0  0  0
   -0.1340    1.4140    8.2840 H   0  0  0  0  0  0  0  0  0  0  0  0
   -0.2500   -0.1640    8.2640 H   0  0  0  0  0  0  0  0  0  0  0  0
   -1.6558   -1.2071    6.7733 H   0  0  0  0  0  0  0  0  0  0  0  0
  1  9  1  0  0  0  0
  2  9  2  0  0  0  0
  3 10  1  0  0  0  0
  3 12  1  0  0  0  0
  4  5  2  0  0  0  0
  4  6  1  0  0  0  0
  4 13  1  0  0  0  0
  5 10  1  0  0  0  0
  5 14  1  0  0  0  0
  6 11  2  0  0  0  0
  6 15  1  0  0  0  0
  7 10  2  0  0  0  0
  7 11  1  0  0  0  0
  7 16  1  0  0  0  0
  8  9  1  0  0  0  0
  8 11  1  0  0  0  0
  8 17  1  0  0  0  0
  8 18  1  0  0  0  0
  1 19  1  0  0  0  0
M  END
> <pdb_id>
5IZZ

> <uniprot_id>
nan

> <usmiles>
O=C(O)Cc1cc(O)ccc1

$$$$
3IG_A_885
          07192419013D 1   1.00000     0.00000     0
            
 55 57  0  0  0  0            999 V2000
    4.6580   90.7565  156.0971 O   0  0  0  0  0  0  0  0  0  0  0  0
    5.4126   85.3833  156.6489 O   0  0  0  0  0  0  0  0  0  0  0  0
    6.3411   84.4347  160.0474 O   0  0  0  0  0  0  0  0  0  0  0  0
   -0.2269   90.2985  164.3184 N   0  0  0  0  0  0  0  0  0  0  0  0
    0.8356   86.1863  162.5866 N   0  0  0  0  0  0  0  0  0  0  0  0
    3.3360   89.6950  157.6379 N   0  0  0  0  0  0  0  0  0  0  0  0
    0.2852   88.2275  163.4599 N   0  0  0  0  0  0  0  0  0  0  0  0
    1.9471   89.9087  163.7463 N   0  0  0  0  0  0  0  0  0  0  0  0
    4.6053   86.2323  158.6263 N   0  0  0  0  0  0  0  0  0  0  0  0
    4.5649   90.4551  161.8718 C   0  0  0  0  0  0  0  0  0  0  0  0
    2.4008   91.5442  156.3857 C   0  0  0  0  0  0  0  0  0  0  0  0
    5.3223   82.8771  158.4700 C   0  0  0  0  0  0  0  0  0  0  0  0
    7.5134   84.0044  158.0222 C   0  0  0  0  0  0  0  0  0  0  0  0
    4.3450   88.7188  158.0581 C   0  0  0  0  0  0  0  0  0  0  0  0
    3.8207   87.2764  157.8606 C   0  0  0  0  0  0  0  0  0  0  0  0
    4.3199   89.7056  163.1807 C   0  0  0  0  0  0  0  0  0  0  0  0
    5.3732   85.1599  162.1544 C   0  0  0  0  0  0  0  0  0  0  0  0
    4.4594   85.9762  162.8942 C   0  0  0  0  0  0  0  0  0  0  0  0
    3.6821   86.9172  160.8190 C   0  0  0  0  0  0  0  0  0  0  0  0
    3.5903   90.6280  156.6898 C   0  0  0  0  0  0  0  0  0  0  0  0
    0.6815   89.4567  163.8317 C   0  0  0  0  0  0  0  0  0  0  0  0
    5.3476   85.3380  157.8708 C   0  0  0  0  0  0  0  0  0  0  0  0
    1.2503   87.4097  162.9620 C   0  0  0  0  0  0  0  0  0  0  0  0
    5.4241   85.2362  160.7315 C   0  0  0  0  0  0  0  0  0  0  0  0
    2.9275   89.1035  163.2481 C   0  0  0  0  0  0  0  0  0  0  0  0
    4.5538   86.1276  160.0392 C   0  0  0  0  0  0  0  0  0  0  0  0
    3.6122   86.8616  162.2059 C   0  0  0  0  0  0  0  0  0  0  0  0
    2.6089   87.7886  162.8152 C   0  0  0  0  0  0  0  0  0  0  0  0
    6.1183   84.1911  158.6393 C   0  0  0  0  0  0  0  0  0  0  0  0
    0.0448   91.2183  164.6015 H   0  0  0  0  0  0  0  0  0  0  0  0
   -1.1812   90.0114  164.4010 H   0  0  0  0  0  0  0  0  0  0  0  0
    1.4899   85.5300  162.2108 H   0  0  0  0  0  0  0  0  0  0  0  0
   -0.1270   85.9332  162.6832 H   0  0  0  0  0  0  0  0  0  0  0  0
    2.4319   89.6716  158.0645 H   0  0  0  0  0  0  0  0  0  0  0  0
    5.4907   90.8330  161.8723 H   0  0  0  0  0  0  0  0  0  0  0  0
    4.4626   89.8246  161.1024 H   0  0  0  0  0  0  0  0  0  0  0  0
    3.9016   91.1983  161.7841 H   0  0  0  0  0  0  0  0  0  0  0  0
    1.6262   91.2880  156.9640 H   0  0  0  0  0  0  0  0  0  0  0  0
    2.6553   92.4934  156.5707 H   0  0  0  0  0  0  0  0  0  0  0  0
    2.1443   91.4492  155.4238 H   0  0  0  0  0  0  0  0  0  0  0  0
    5.1660   82.7050  157.4974 H   0  0  0  0  0  0  0  0  0  0  0  0
    5.8427   82.1191  158.8633 H   0  0  0  0  0  0  0  0  0  0  0  0
    4.4431   82.9570  158.9398 H   0  0  0  0  0  0  0  0  0  0  0  0
    7.4236   83.8312  157.0414 H   0  0  0  0  0  0  0  0  0  0  0  0
    8.0552   84.8325  158.1662 H   0  0  0  0  0  0  0  0  0  0  0  0
    7.9692   83.2280  158.4574 H   0  0  0  0  0  0  0  0  0  0  0  0
    4.5585   88.8617  159.0245 H   0  0  0  0  0  0  0  0  0  0  0  0
    5.1728   88.8455  157.5115 H   0  0  0  0  0  0  0  0  0  0  0  0
    2.8689   87.2422  158.1654 H   0  0  0  0  0  0  0  0  0  0  0  0
    3.8670   87.0544  156.8867 H   0  0  0  0  0  0  0  0  0  0  0  0
    4.4316   90.3438  163.9424 H   0  0  0  0  0  0  0  0  0  0  0  0
    4.9926   88.9700  163.2608 H   0  0  0  0  0  0  0  0  0  0  0  0
    5.9808   84.5309  162.6394 H   0  0  0  0  0  0  0  0  0  0  0  0
    4.4242   85.9172  163.8919 H   0  0  0  0  0  0  0  0  0  0  0  0
    3.0771   87.5564  160.3441 H   0  0  0  0  0  0  0  0  0  0  0  0
  1 20  2  0  0  0  0
  2 22  2  0  0  0  0
  3 24  1  0  0  0  0
  3 29  1  0  0  0  0
  4 21  1  0  0  0  0
  5 23  1  0  0  0  0
  6 14  1  0  0  0  0
  6 20  1  0  0  0  0
  7 21  2  0  0  0  0
  7 23  1  0  0  0  0
  8 21  1  0  0  0  0
  8 25  2  0  0  0  0
  9 15  1  0  0  0  0
  9 22  1  0  0  0  0
  9 26  1  0  0  0  0
 10 16  1  0  0  0  0
 11 20  1  0  0  0  0
 12 29  1  0  0  0  0
 13 29  1  0  0  0  0
 14 15  1  0  0  0  0
 16 25  1  0  0  0  0
 17 18  1  0  0  0  0
 17 24  2  0  0  0  0
 18 27  2  0  0  0  0
 19 26  2  0  0  0  0
 19 27  1  0  0  0  0
 22 29  1  0  0  0  0
 23 28  2  0  0  0  0
 24 26  1  0  0  0  0
 25 28  1  0  0  0  0
 27 28  1  0  0  0  0
  4 30  1  0  0  0  0
  4 31  1  0  0  0  0
  5 32  1  0  0  0  0
  5 33  1  0  0  0  0
  6 34  1  0  0  0  0
 10 35  1  0  0  0  0
 10 36  1  0  0  0  0
 10 37  1  0  0  0  0
 11 38  1  0  0  0  0
 11 39  1  0  0  0  0
 11 40  1  0  0  0  0
 12 41  1  0  0  0  0
 12 42  1  0  0  0  0
 12 43  1  0  0  0  0
 13 44  1  0  0  0  0
 13 45  1  0  0  0  0
 13 46  1  0  0  0  0
 14 47  1  0  0  0  0
 14 48  1  0  0  0  0
 15 49  1  0  0  0  0
 15 50  1  0  0  0  0
 16 51  1  0  0  0  0
 16 52  1  0  0  0  0
 17 53  1  0  0  0  0
 18 54  1  0  0  0  0
 19 55  1  0  0  0  0
M  END
> <pdb_id>
2G1R

> <uniprot_id>
P00797

> <usmiles>
O=C1N(c2c(OC1(C)C)ccc(c3c(nc(nc3CC)N)N)c2)CCNC(=O)C

$$$$
3IL_B_201
          07202401113D 1   1.00000     0.00000     0
            
 26 27  0  0  0  0            999 V2000
  -18.9480  -27.9310  -38.1370 O   0  0  0  0  0  0  0  0  0  0  0  0
  -17.1400  -28.4590  -39.2390 O   0  0  0  0  0  0  0  0  0  0  0  0
  -18.2240  -31.1020  -38.1460 O   0  0  0  0  0  0  0  0  0  0  0  0
  -21.4820  -33.5810  -37.9450 N   0  0  0  0  0  0  0  0  0  0  0  0
  -20.8200  -32.4680  -37.6860 C   0  0  0  0  0  0  0  0  0  0  0  0
  -23.3240  -34.1690  -41.1150 C   0  0  0  0  0  0  0  0  0  0  0  0
  -23.0200  -32.9400  -41.7040 C   0  0  0  0  0  0  0  0  0  0  0  0
  -22.8410  -34.4710  -39.8440 C   0  0  0  0  0  0  0  0  0  0  0  0
  -22.2370  -32.0060  -41.0300 C   0  0  0  0  0  0  0  0  0  0  0  0
  -20.3350  -30.2150  -38.9010 C   0  0  0  0  0  0  0  0  0  0  0  0
  -18.2740  -28.7820  -38.7840 C   0  0  0  0  0  0  0  0  0  0  0  0
  -18.8210  -30.1810  -39.0210 C   0  0  1  0  0  0  0  0  0  0  0  0
  -22.0550  -33.5290  -39.1600 C   0  0  0  0  0  0  0  0  0  0  0  0
  -20.9380  -31.6060  -38.7820 C   0  0  0  0  0  0  0  0  0  0  0  0
  -21.7500  -32.3060  -39.7450 C   0  0  0  0  0  0  0  0  0  0  0  0
  -19.8463  -28.1768  -37.7729 H   0  0  0  0  0  0  0  0  0  0  0  0
  -17.2298  -31.0594  -38.2448 H   0  0  0  0  0  0  0  0  0  0  0  0
  -21.5482  -34.3591  -37.3203 H   0  0  0  0  0  0  0  0  0  0  0  0
  -20.3166  -32.2731  -36.8442 H   0  0  0  0  0  0  0  0  0  0  0  0
  -23.8886  -34.8325  -41.6059 H   0  0  0  0  0  0  0  0  0  0  0  0
  -23.3675  -32.7287  -42.6176 H   0  0  0  0  0  0  0  0  0  0  0  0
  -23.0523  -35.3523  -39.4214 H   0  0  0  0  0  0  0  0  0  0  0  0
  -22.0224  -31.1276  -41.4570 H   0  0  0  0  0  0  0  0  0  0  0  0
  -20.7207  -29.7779  -39.7135 H   0  0  0  0  0  0  0  0  0  0  0  0
  -20.5937  -29.6939  -38.0877 H   0  0  0  0  0  0  0  0  0  0  0  0
  -18.5826  -30.4480  -39.9547 H   0  0  0  0  0  0  0  0  0  0  0  0
  1 11  1  0  0  0  0
  2 11  2  0  0  0  0
  3 12  1  0  0  0  0
  4  5  1  0  0  0  0
  4 13  1  0  0  0  0
  5 14  2  0  0  0  0
  6  7  2  0  0  0  0
  6  8  1  0  0  0  0
  7  9  1  0  0  0  0
  8 13  2  0  0  0  0
  9 15  2  0  0  0  0
 10 12  1  0  0  0  0
 10 14  1  0  0  0  0
 11 12  1  0  0  0  0
 13 15  1  0  0  0  0
 14 15  1  0  0  0  0
  1 16  1  0  0  0  0
  3 17  1  0  0  0  0
  4 18  1  0  0  0  0
  5 19  1  0  0  0  0
  6 20  1  0  0  0  0
  7 21  1  0  0  0  0
  8 22  1  0  0  0  0
  9 23  1  0  0  0  0
 10 24  1  0  0  0  0
 10 25  1  0  0  0  0
 12 26  1  0  0  0  0
M  END
> <pdb_id>
7YY8

> <uniprot_id>
B1MDL6

> <usmiles>
O=C(O)[C@@H](O)CC=1c2c(NC1)cccc2

$$$$
3IM_A_202
          07202405553D 1   1.00000     0.00000     0
            
 40 40  0  0  0  0            999 V2000
   12.4194   31.2386  -15.5935 O   0  0  0  0  0  0  0  0  0  0  0  0
    9.5406   34.6910  -12.1975 C   0  0  0  0  0  0  0  0  0  0  0  0
   13.2737   31.3787  -11.3405 C   0  0  0  0  0  0  0  0  0  0  0  0
   13.1008   29.7642  -13.1790 C   0  0  0  0  0  0  0  0  0  0  0  0
   14.4780   31.8868  -13.3368 C   0  0  0  0  0  0  0  0  0  0  0  0
   11.0087   33.2245  -17.7064 C   0  0  0  0  0  0  0  0  0  0  0  0
    9.8578   31.0373  -17.0365 C   0  0  0  0  0  0  0  0  0  0  0  0
    8.6750   33.2099  -16.9102 C   0  0  0  0  0  0  0  0  0  0  0  0
   11.3258   32.9606  -12.6120 C   0  0  0  0  0  0  0  0  0  0  0  0
    9.8384   33.5810  -14.3992 C   0  0  0  0  0  0  0  0  0  0  0  0
   10.2375   33.7329  -13.0672 C   0  0  0  0  0  0  0  0  0  0  0  0
   11.6249   32.0158  -14.7561 C   0  0  0  0  0  0  0  0  0  0  0  0
   11.9978   32.0632  -13.4215 C   0  0  0  0  0  0  0  0  0  0  0  0
   10.4999   32.6922  -15.2873 C   0  0  0  0  0  0  0  0  0  0  0  0
   13.1989   31.2838  -12.8285 C   0  0  0  0  0  0  0  0  0  0  0  0
   10.0287   32.5397  -16.7550 C   0  0  0  0  0  0  0  0  0  0  0  0
   12.1992   31.1665  -16.5663 H   0  0  0  0  0  0  0  0  0  0  0  0
    8.8040   35.1320  -12.7104 H   0  0  0  0  0  0  0  0  0  0  0  0
    9.1562   34.2084  -11.4106 H   0  0  0  0  0  0  0  0  0  0  0  0
   10.1873   35.3845  -11.8799 H   0  0  0  0  0  0  0  0  0  0  0  0
   13.3379   32.3395  -11.0707 H   0  0  0  0  0  0  0  0  0  0  0  0
   12.4521   30.9740  -10.9390 H   0  0  0  0  0  0  0  0  0  0  0  0
   14.0810   30.8864  -11.0152 H   0  0  0  0  0  0  0  0  0  0  0  0
   13.0485   29.6538  -14.1715 H   0  0  0  0  0  0  0  0  0  0  0  0
   13.9101   29.2894  -12.8330 H   0  0  0  0  0  0  0  0  0  0  0  0
   12.2812   29.3770  -12.7568 H   0  0  0  0  0  0  0  0  0  0  0  0
   14.4886   31.8526  -14.3361 H   0  0  0  0  0  0  0  0  0  0  0  0
   14.5411   32.8381  -13.0351 H   0  0  0  0  0  0  0  0  0  0  0  0
   15.2557   31.3709  -12.9773 H   0  0  0  0  0  0  0  0  0  0  0  0
   11.0765   34.1947  -17.4737 H   0  0  0  0  0  0  0  0  0  0  0  0
   11.9091   32.7977  -17.6215 H   0  0  0  0  0  0  0  0  0  0  0  0
   10.6821   33.1293  -18.6468 H   0  0  0  0  0  0  0  0  0  0  0  0
    9.2075   30.6479  -16.3842 H   0  0  0  0  0  0  0  0  0  0  0  0
    9.5139   30.9094  -17.9667 H   0  0  0  0  0  0  0  0  0  0  0  0
   10.7409   30.5778  -16.9415 H   0  0  0  0  0  0  0  0  0  0  0  0
    8.0161   32.7766  -16.2953 H   0  0  0  0  0  0  0  0  0  0  0  0
    8.7553   34.1802  -16.6824 H   0  0  0  0  0  0  0  0  0  0  0  0
    8.3619   33.1141  -17.8551 H   0  0  0  0  0  0  0  0  0  0  0  0
   11.6244   33.0662  -11.6635 H   0  0  0  0  0  0  0  0  0  0  0  0
    9.0631   34.1150  -14.7365 H   0  0  0  0  0  0  0  0  0  0  0  0
  1 12  1  0  0  0  0
  2 11  1  0  0  0  0
  3 15  1  0  0  0  0
  4 15  1  0  0  0  0
  5 15  1  0  0  0  0
  6 16  1  0  0  0  0
  7 16  1  0  0  0  0
  8 16  1  0  0  0  0
  9 11  2  0  0  0  0
  9 13  1  0  0  0  0
 10 11  1  0  0  0  0
 10 14  2  0  0  0  0
 12 13  2  0  0  0  0
 12 14  1  0  0  0  0
 13 15  1  0  0  0  0
 14 16  1  0  0  0  0
  1 17  1  0  0  0  0
  2 18  1  0  0  0  0
  2 19  1  0  0  0  0
  2 20  1  0  0  0  0
  3 21  1  0  0  0  0
  3 22  1  0  0  0  0
  3 23  1  0  0  0  0
  4 24  1  0  0  0  0
  4 25  1  0  0  0  0
  4 26  1  0  0  0  0
  5 27  1  0  0  0  0
  5 28  1  0  0  0  0
  5 29  1  0  0  0  0
  6 30  1  0  0  0  0
  6 31  1  0  0  0  0
  6 32  1  0  0  0  0
  7 33  1  0  0  0  0
  7 34  1  0  0  0  0
  7 35  1  0  0  0  0
  8 36  1  0  0  0  0
  8 37  1  0  0  0  0
  8 38  1  0  0  0  0
  9 39  1  0  0  0  0
 10 40  1  0  0  0  0
M  END
> <pdb_id>
7FBM

> <uniprot_id>
P05413

> <usmiles>
Oc1c(cc(cc1C(C)(C)C)C)C(C)(C)C

$$$$
3JA_A_500
          07202417403D 1   1.00000     0.00000     0
            
 37 40  0  0  0  0            999 V2000
   -2.1343   -2.9178   17.4687 O   0  0  0  0  0  0  0  0  0  0  0  0
    1.8665    0.9919   18.2722 N   0  0  0  0  0  0  0  0  0  0  0  0
   -3.7961    3.1078   14.3955 N   0  0  0  0  0  0  0  0  0  0  0  0
   -3.9006    0.7037   14.7087 N   0  0  0  0  0  0  0  0  0  0  0  0
   -1.8352    4.2212   15.3565 N   0  0  0  0  0  0  0  0  0  0  0  0
    1.7041    0.0974   17.2795 N   0  0  0  0  0  0  0  0  0  0  0  0
   -2.3754   -0.5238   16.0501 N   0  0  0  0  0  0  0  0  0  0  0  0
    2.4653   -1.1707   17.2101 C   0  0  0  0  0  0  0  0  0  0  0  0
   -4.3613    1.8948   14.2205 C   0  0  0  0  0  0  0  0  0  0  0  0
   -1.4962   -1.7685   17.9841 C   0  0  0  0  0  0  0  0  0  0  0  0
   -2.3319   -2.9792   16.0519 C   0  0  0  0  0  0  0  0  0  0  0  0
    0.9874    1.9926   18.0487 C   0  0  0  0  0  0  0  0  0  0  0  0
   -0.7321    3.8262   16.0793 C   0  0  0  0  0  0  0  0  0  0  0  0
   -2.2978   -0.4844   17.5674 C   0  0  0  0  0  0  0  0  0  0  0  0
   -3.1441   -1.7523   15.5640 C   0  0  0  0  0  0  0  0  0  0  0  0
    0.7457    0.4919   16.3888 C   0  0  0  0  0  0  0  0  0  0  0  0
   -2.6435    3.1095   15.1209 C   0  0  0  0  0  0  0  0  0  0  0  0
   -2.7704    0.7217   15.4599 C   0  0  0  0  0  0  0  0  0  0  0  0
    0.2536    1.7160   16.8831 C   0  0  0  0  0  0  0  0  0  0  0  0
   -0.8198    2.4443   16.2946 C   0  0  0  0  0  0  0  0  0  0  0  0
   -2.0356    1.9641   15.7039 C   0  0  0  0  0  0  0  0  0  0  0  0
   -2.0259    5.1538   15.0502 H   0  0  0  0  0  0  0  0  0  0  0  0
    2.1890   -1.6812   16.3959 H   0  0  0  0  0  0  0  0  0  0  0  0
    3.4437   -0.9699   17.1616 H   0  0  0  0  0  0  0  0  0  0  0  0
    2.2773   -1.7174   18.0261 H   0  0  0  0  0  0  0  0  0  0  0  0
   -5.2016    1.8642   13.6793 H   0  0  0  0  0  0  0  0  0  0  0  0
   -0.5668   -1.7128   17.6193 H   0  0  0  0  0  0  0  0  0  0  0  0
   -1.4598   -1.8281   18.9817 H   0  0  0  0  0  0  0  0  0  0  0  0
   -2.8307   -3.8156   15.8251 H   0  0  0  0  0  0  0  0  0  0  0  0
   -1.4421   -2.9876   15.5955 H   0  0  0  0  0  0  0  0  0  0  0  0
    0.8762    2.8036   18.6231 H   0  0  0  0  0  0  0  0  0  0  0  0
    0.0051    4.4229   16.3963 H   0  0  0  0  0  0  0  0  0  0  0  0
   -3.2155   -0.5019   17.9642 H   0  0  0  0  0  0  0  0  0  0  0  0
   -1.8190    0.3394   17.8709 H   0  0  0  0  0  0  0  0  0  0  0  0
   -3.2074   -1.7511   14.5660 H   0  0  0  0  0  0  0  0  0  0  0  0
   -4.0639   -1.7653   15.9563 H   0  0  0  0  0  0  0  0  0  0  0  0
    0.4549    0.0128   15.5606 H   0  0  0  0  0  0  0  0  0  0  0  0
  1 10  1  0  0  0  0
  1 11  1  0  0  0  0
  2  6  1  0  0  0  0
  2 12  2  0  0  0  0
  3  9  2  0  0  0  0
  3 17  1  0  0  0  0
  4  9  1  0  0  0  0
  4 18  2  0  0  0  0
  5 13  1  0  0  0  0
  5 17  1  0  0  0  0
  6  8  1  0  0  0  0
  6 16  1  0  0  0  0
  7 14  1  0  0  0  0
  7 15  1  0  0  0  0
  7 18  1  0  0  0  0
 10 14  1  0  0  0  0
 11 15  1  0  0  0  0
 12 19  1  0  0  0  0
 13 20  2  0  0  0  0
 16 19  2  0  0  0  0
 17 21  2  0  0  0  0
 18 21  1  0  0  0  0
 19 20  1  0  0  0  0
 20 21  1  0  0  0  0
  5 22  1  0  0  0  0
  8 23  1  0  0  0  0
  8 24  1  0  0  0  0
  8 25  1  0  0  0  0
  9 26  1  0  0  0  0
 10 27  1  0  0  0  0
 10 28  1  0  0  0  0
 11 29  1  0  0  0  0
 11 30  1  0  0  0  0
 12 31  1  0  0  0  0
 13 32  1  0  0  0  0
 14 33  1  0  0  0  0
 14 34  1  0  0  0  0
 15 35  1  0  0  0  0
 15 36  1  0  0  0  0
 16 37  1  0  0  0  0
M  END
> <pdb_id>
4W8D

> <uniprot_id>
Q9Y6E0

> <usmiles>
O1CCN(c2ncnc3NC=C(c23)C=4C=NN(C4)C)CC1

$$$$
3JC_A_301
          07192420423D 1   1.00000     0.00000     0
            
 34 36  0  0  0  0            999 V2000
   69.3597   36.4008   21.7343 O   0  0  0  0  0  0  0  0  0  0  0  0
   65.2267   33.4773   25.3248 N   0  0  0  0  0  0  0  0  0  0  0  0
   66.0682   34.6726   23.5188 N   0  0  0  0  0  0  0  0  0  0  0  0
   67.4768   34.0889   25.3450 N   0  0  0  0  0  0  0  0  0  0  0  0
   66.8288   35.9120   21.6129 C   0  0  0  0  0  0  0  0  0  0  0  0
   74.6705   35.2936   26.5745 C   0  0  0  0  0  0  0  0  0  0  0  0
   74.1167   34.0519   26.3710 C   0  0  0  0  0  0  0  0  0  0  0  0
   74.0155   36.4108   26.1132 C   0  0  0  0  0  0  0  0  0  0  0  0
   72.9188   33.9283   25.7090 C   0  0  0  0  0  0  0  0  0  0  0  0
   72.8155   36.2822   25.4519 C   0  0  0  0  0  0  0  0  0  0  0  0
   70.7213   36.1262   23.6854 C   0  0  0  0  0  0  0  0  0  0  0  0
   69.8069   34.6707   25.4635 C   0  0  0  0  0  0  0  0  0  0  0  0
   66.3032   34.1067   24.7054 C   0  0  0  0  0  0  0  0  0  0  0  0
   69.4737   35.9727   22.8717 C   0  0  0  0  0  0  0  0  0  0  0  0
   67.1021   35.2764   22.9329 C   0  0  0  0  0  0  0  0  0  0  0  0
   68.5000   34.6913   24.7393 C   0  0  0  0  0  0  0  0  0  0  0  0
   72.2580   35.0406   25.2442 C   0  0  0  0  0  0  0  0  0  0  0  0
   70.9577   34.8893   24.5110 C   0  0  2  0  0  0  0  0  0  0  0  0
   68.3448   35.3037   23.5194 C   0  0  0  0  0  0  0  0  0  0  0  0
   65.3490   33.0378   26.2147 H   0  0  0  0  0  0  0  0  0  0  0  0
   64.3313   33.4647   24.8797 H   0  0  0  0  0  0  0  0  0  0  0  0
   67.6669   36.3326   21.2656 H   0  0  0  0  0  0  0  0  0  0  0  0
   66.5124   35.2169   20.9674 H   0  0  0  0  0  0  0  0  0  0  0  0
   66.1237   36.6130   21.7201 H   0  0  0  0  0  0  0  0  0  0  0  0
   75.5432   35.3835   27.0545 H   0  0  0  0  0  0  0  0  0  0  0  0
   74.5873   33.2356   26.7059 H   0  0  0  0  0  0  0  0  0  0  0  0
   74.4113   37.3176   26.2583 H   0  0  0  0  0  0  0  0  0  0  0  0
   72.5241   33.0210   25.5641 H   0  0  0  0  0  0  0  0  0  0  0  0
   72.3437   37.0987   25.1190 H   0  0  0  0  0  0  0  0  0  0  0  0
   70.6251   36.9152   24.2922 H   0  0  0  0  0  0  0  0  0  0  0  0
   71.4994   36.2689   23.0737 H   0  0  0  0  0  0  0  0  0  0  0  0
   69.9180   33.7840   25.9123 H   0  0  0  0  0  0  0  0  0  0  0  0
   69.8104   35.3957   26.1522 H   0  0  0  0  0  0  0  0  0  0  0  0
   71.0230   34.1013   23.8988 H   0  0  0  0  0  0  0  0  0  0  0  0
  1 14  2  0  0  0  0
  2 13  1  0  0  0  0
  3 13  2  0  0  0  0
  3 15  1  0  0  0  0
  4 13  1  0  0  0  0
  4 16  2  0  0  0  0
  5 15  1  0  0  0  0
  6  7  2  0  0  0  0
  6  8  1  0  0  0  0
  7  9  1  0  0  0  0
  8 10  2  0  0  0  0
  9 17  2  0  0  0  0
 10 17  1  0  0  0  0
 11 14  1  0  0  0  0
 11 18  1  0  0  0  0
 12 16  1  0  0  0  0
 12 18  1  0  0  0  0
 14 19  1  0  0  0  0
 15 19  2  0  0  0  0
 16 19  1  0  0  0  0
 17 18  1  0  0  0  0
  2 20  1  0  0  0  0
  2 21  1  0  0  0  0
  5 22  1  0  0  0  0
  5 23  1  0  0  0  0
  5 24  1  0  0  0  0
  6 25  1  0  0  0  0
  7 26  1  0  0  0  0
  8 27  1  0  0  0  0
  9 28  1  0  0  0  0
 10 29  1  0  0  0  0
 11 30  1  0  0  0  0
 11 31  1  0  0  0  0
 12 32  1  0  0  0  0
 12 33  1  0  0  0  0
 18 34  1  0  0  0  0
M  END
> <pdb_id>
4W7T

> <uniprot_id>
P07900

> <usmiles>
O=C1c2c(nc(nc2C)N)C[C@H](c3ccccc3)C1

$$$$
3JW_A_1201
          07202414163D 1   1.00000     0.00000     0
            
 43 46  0  0  0  0            999 V2000
   55.4915   -4.5943   27.3473 S   0  0  0  0  0  0  0  0  0  0  0  0
   54.1577   -4.4157   26.7625 O   0  0  0  0  0  0  0  0  0  0  0  0
   55.4358   -4.0915   28.7203 O   0  0  0  0  0  0  0  0  0  0  0  0
   54.7742  -11.0768   26.5771 N   0  0  0  0  0  0  0  0  0  0  0  0
   55.1810   -8.8387   30.3656 N   0  0  0  0  0  0  0  0  0  0  0  0
   49.8343  -11.8982   31.7596 N   0  0  0  0  0  0  0  0  0  0  0  0
   51.9394  -11.0161   32.0043 N   0  0  0  0  0  0  0  0  0  0  0  0
   48.6225  -11.2597   29.6385 N   0  0  0  0  0  0  0  0  0  0  0  0
   55.6764   -6.2303   27.4959 N   0  0  0  0  0  0  0  0  0  0  0  0
   54.6722   -8.6850   29.1459 N   0  0  0  0  0  0  0  0  0  0  0  0
   55.9642   -3.4973   25.0629 C   0  0  0  0  0  0  0  0  0  0  0  0
   56.7684   -4.1016   26.2022 C   0  0  0  0  0  0  0  0  0  0  0  0
   50.9392  -11.7606   32.4662 C   0  0  0  0  0  0  0  0  0  0  0  0
   55.4574  -10.2504   26.9051 C   0  0  0  0  0  0  0  0  0  0  0  0
   48.9495  -10.5462   28.5600 C   0  0  0  0  0  0  0  0  0  0  0  0
   54.2596   -9.4292   31.1228 C   0  0  0  0  0  0  0  0  0  0  0  0
   53.4406   -9.1585   29.0756 C   0  0  0  0  0  0  0  0  0  0  0  0
   56.2863   -7.0028   28.5745 C   0  0  0  0  0  0  0  0  0  0  0  0
   54.6163   -7.2207   27.2449 C   0  0  0  0  0  0  0  0  0  0  0  0
   50.2507  -10.0759   28.7458 C   0  0  0  0  0  0  0  0  0  0  0  0
   56.2891   -9.0582   27.3297 C   0  0  0  0  0  0  0  0  0  0  0  0
   49.6792  -11.2815   30.5430 C   0  0  0  0  0  0  0  0  0  0  0  0
   51.8759  -10.3953   30.8217 C   0  0  0  0  0  0  0  0  0  0  0  0
   53.1083   -9.6582   30.3463 C   0  0  0  0  0  0  0  0  0  0  0  0
   50.7024  -10.5357   30.0215 C   0  0  0  0  0  0  0  0  0  0  0  0
   55.4183   -8.0997   28.0960 C   0  0  0  0  0  0  0  0  0  0  0  0
   47.7427  -11.7143   29.7772 H   0  0  0  0  0  0  0  0  0  0  0  0
   56.5864   -3.1798   24.3473 H   0  0  0  0  0  0  0  0  0  0  0  0
   55.3482   -4.1892   24.6861 H   0  0  0  0  0  0  0  0  0  0  0  0
   55.4287   -2.7254   25.4056 H   0  0  0  0  0  0  0  0  0  0  0  0
   57.3007   -4.8894   25.8921 H   0  0  0  0  0  0  0  0  0  0  0  0
   57.3812   -3.4256   26.6116 H   0  0  0  0  0  0  0  0  0  0  0  0
   51.0251  -12.2174   33.3517 H   0  0  0  0  0  0  0  0  0  0  0  0
   48.3685  -10.3788   27.7636 H   0  0  0  0  0  0  0  0  0  0  0  0
   54.3677   -9.6710   32.0871 H   0  0  0  0  0  0  0  0  0  0  0  0
   52.8528   -9.1608   28.2666 H   0  0  0  0  0  0  0  0  0  0  0  0
   56.0890   -6.6749   29.4984 H   0  0  0  0  0  0  0  0  0  0  0  0
   57.2687   -7.1643   28.4808 H   0  0  0  0  0  0  0  0  0  0  0  0
   54.5252   -7.5155   26.2937 H   0  0  0  0  0  0  0  0  0  0  0  0
   53.7155   -6.9820   27.6076 H   0  0  0  0  0  0  0  0  0  0  0  0
   50.7733   -9.5172   28.1017 H   0  0  0  0  0  0  0  0  0  0  0  0
   56.6581   -8.6018   26.5201 H   0  0  0  0  0  0  0  0  0  0  0  0
   57.0422   -9.3653   27.9115 H   0  0  0  0  0  0  0  0  0  0  0  0
  1  2  2  0  0  0  0
  1  3  2  0  0  0  0
  1  9  1  0  0  0  0
  1 12  1  0  0  0  0
  4 14  3  0  0  0  0
  5 10  1  0  0  0  0
  5 16  2  0  0  0  0
  6 13  2  0  0  0  0
  6 22  1  0  0  0  0
  7 13  1  0  0  0  0
  7 23  2  0  0  0  0
  8 15  1  0  0  0  0
  8 22  1  0  0  0  0
  9 18  1  0  0  0  0
  9 19  1  0  0  0  0
 10 17  1  0  0  0  0
 10 26  1  0  0  0  0
 11 12  1  0  0  0  0
 14 21  1  0  0  0  0
 15 20  2  0  0  0  0
 16 24  1  0  0  0  0
 17 24  2  0  0  0  0
 18 26  1  0  0  0  0
 19 26  1  0  0  0  0
 20 25  1  0  0  0  0
 21 26  1  0  0  0  0
 22 25  2  0  0  0  0
 23 24  1  0  0  0  0
 23 25  1  0  0  0  0
  8 27  1  0  0  0  0
 11 28  1  0  0  0  0
 11 29  1  0  0  0  0
 11 30  1  0  0  0  0
 12 31  1  0  0  0  0
 12 32  1  0  0  0  0
 13 33  1  0  0  0  0
 15 34  1  0  0  0  0
 16 35  1  0  0  0  0
 17 36  1  0  0  0  0
 18 37  1  0  0  0  0
 18 38  1  0  0  0  0
 19 39  1  0  0  0  0
 19 40  1  0  0  0  0
 20 41  1  0  0  0  0
 21 42  1  0  0  0  0
 21 43  1  0  0  0  0
M  END
> <pdb_id>
6VN8

> <uniprot_id>
O60674

> <usmiles>
S(=O)(=O)(N1CC(N2N=CC(c3ncnc4NC=Cc43)=C2)(C1)CC#N)CC

$$$$
3K1_A_304
          07202403273D 1   1.00000     0.00000     0
            
 27 29  0  0  0  0            999 V2000
    9.8325   22.0513   -8.3831 O   0  0  0  0  0  0  0  0  0  0  0  0
    8.9574   19.5325   -8.9522 O   0  0  0  0  0  0  0  0  0  0  0  0
   14.1813   26.8884  -16.6413 N   0  0  0  0  0  0  0  0  0  0  0  0
   14.9884   27.2032  -15.6241 N   0  0  0  0  0  0  0  0  0  0  0  0
   13.3348   25.9222  -16.2505 N   0  0  0  0  0  0  0  0  0  0  0  0
   10.7023   20.6073  -11.9504 N   0  0  0  0  0  0  0  0  0  0  0  0
   10.7380   22.3387  -10.3344 N   0  0  0  0  0  0  0  0  0  0  0  0
   14.6353   26.4196  -14.5937 N   0  0  0  0  0  0  0  0  0  0  0  0
   10.0015   19.8293  -11.0860 C   0  0  0  0  0  0  0  0  0  0  0  0
   13.0970   24.7824  -12.7053 C   0  0  0  0  0  0  0  0  0  0  0  0
   12.3091   23.5546  -14.6330 C   0  0  0  0  0  0  0  0  0  0  0  0
   12.4755   23.8652  -11.8586 C   0  0  0  0  0  0  0  0  0  0  0  0
   11.6848   22.6360  -13.8013 C   0  0  0  0  0  0  0  0  0  0  0  0
   10.0714   21.5926   -9.4645 C   0  0  0  0  0  0  0  0  0  0  0  0
   13.6560   25.6249  -14.9823 C   0  0  0  0  0  0  0  0  0  0  0  0
   11.0721   21.8289  -11.5250 C   0  0  0  0  0  0  0  0  0  0  0  0
    9.6606   20.3094   -9.8516 C   0  0  0  0  0  0  0  0  0  0  0  0
   12.9961   24.6186  -14.0814 C   0  0  0  0  0  0  0  0  0  0  0  0
   11.8045   22.7819  -12.4183 C   0  0  0  0  0  0  0  0  0  0  0  0
    8.9531   19.9297   -8.1569 H   0  0  0  0  0  0  0  0  0  0  0  0
   15.0288   26.4134  -13.7706 H   0  0  0  0  0  0  0  0  0  0  0  0
    9.7209   18.9339  -11.3549 H   0  0  0  0  0  0  0  0  0  0  0  0
   13.5873   25.5403  -12.3352 H   0  0  0  0  0  0  0  0  0  0  0  0
   12.2500   23.4587  -15.6034 H   0  0  0  0  0  0  0  0  0  0  0  0
   12.5277   23.9702  -10.8895 H   0  0  0  0  0  0  0  0  0  0  0  0
   11.1877   21.8850  -14.1786 H   0  0  0  0  0  0  0  0  0  0  0  0
   10.9899   23.2780  -10.1015 H   0  0  0  0  0  0  0  0  0  0  0  0
  1 14  2  0  0  0  0
  2 17  1  0  0  0  0
  2 20  1  0  0  0  0
  3  4  2  0  0  0  0
  3  5  1  0  0  0  0
  4  8  1  0  0  0  0
  5 15  2  0  0  0  0
  6  9  1  0  0  0  0
  6 16  2  0  0  0  0
  7 14  1  0  0  0  0
  7 16  1  0  0  0  0
  8 15  1  0  0  0  0
  8 21  1  0  0  0  0
  9 17  2  0  0  0  0
  9 22  1  0  0  0  0
 10 12  1  0  0  0  0
 10 18  2  0  0  0  0
 10 23  1  0  0  0  0
 11 13  2  0  0  0  0
 11 18  1  0  0  0  0
 11 24  1  0  0  0  0
 12 19  2  0  0  0  0
 12 25  1  0  0  0  0
 13 19  1  0  0  0  0
 13 26  1  0  0  0  0
 14 17  1  0  0  0  0
 15 18  1  0  0  0  0
 16 19  1  0  0  0  0
  7 27  1  0  0  0  0
M  END
> <pdb_id>
4W9S

> <uniprot_id>
P13166

> <usmiles>
O=C1NC(=NC=C1O)c2ccc(cc2)C3=NN=NN3

$$$$
3K9_A_1003
          07192416573D 1   1.00000     0.00000     0
            
 49 53  0  0  0  0            999 V2000
   16.8110   -3.9618   23.9199 F   0  0  0  0  0  0  0  0  0  0  0  0
   19.2939   -3.5354   18.3134 O   0  0  0  0  0  0  0  0  0  0  0  0
   20.4115   -4.2758   20.7144 O   0  0  0  0  0  0  0  0  0  0  0  0
   13.1620   -1.6117   26.3697 N   0  0  0  0  0  0  0  0  0  0  0  0
   15.5087   -1.2268   16.4363 N   0  0  0  0  0  0  0  0  0  0  0  0
   16.7157   -2.2161   20.3371 N   0  0  0  0  0  0  0  0  0  0  0  0
   13.6491   -0.7710   25.4312 N   0  0  0  0  0  0  0  0  0  0  0  0
   17.2443   -2.5258   21.5474 N   0  0  0  0  0  0  0  0  0  0  0  0
   15.9332   -1.2288   17.7131 N   0  0  0  0  0  0  0  0  0  0  0  0
   20.7780   -4.5498   22.0704 C   0  0  0  0  0  0  0  0  0  0  0  0
   12.2608   -0.8838   27.0397 C   0  0  0  0  0  0  0  0  0  0  0  0
   16.1234   -2.2734   15.8721 C   0  0  0  0  0  0  0  0  0  0  0  0
   13.0731    0.4680   25.4767 C   0  0  0  0  0  0  0  0  0  0  0  0
   18.4359   -3.1972   21.6962 C   0  0  0  0  0  0  0  0  0  0  0  0
   12.1698    0.4300   26.5139 C   0  0  0  0  0  0  0  0  0  0  0  0
   14.9882    1.9740   20.1895 C   0  0  0  0  0  0  0  0  0  0  0  0
   16.2812    1.8289   19.7284 C   0  0  0  0  0  0  0  0  0  0  0  0
   14.0119    1.0638   19.8379 C   0  0  0  0  0  0  0  0  0  0  0  0
   16.9326   -2.9593   16.8075 C   0  0  0  0  0  0  0  0  0  0  0  0
   16.5929    0.7632   18.9019 C   0  0  0  0  0  0  0  0  0  0  0  0
   14.3276   -0.0047   19.0205 C   0  0  0  0  0  0  0  0  0  0  0  0
   14.8075   -0.4533   23.3540 C   0  0  0  0  0  0  0  0  0  0  0  0
   15.7010   -0.9039   22.4093 C   0  0  0  0  0  0  0  0  0  0  0  0
   15.2773   -2.3843   24.6975 C   0  0  0  0  0  0  0  0  0  0  0  0
   16.1646   -2.8102   23.7344 C   0  0  0  0  0  0  0  0  0  0  0  0
   18.6949   -3.2549   19.3437 C   0  0  0  0  0  0  0  0  0  0  0  0
   19.2076   -3.5966   20.6756 C   0  0  0  0  0  0  0  0  0  0  0  0
   17.3747   -2.5398   19.2771 C   0  0  0  0  0  0  0  0  0  0  0  0
   14.5906   -1.2052   24.4889 C   0  0  0  0  0  0  0  0  0  0  0  0
   15.6166   -0.1489   18.5574 C   0  0  0  0  0  0  0  0  0  0  0  0
   16.3885   -2.0905   22.5831 C   0  0  0  0  0  0  0  0  0  0  0  0
   16.8007   -2.2588   17.9868 C   0  0  0  0  0  0  0  0  0  0  0  0
   21.6490   -5.0407   22.0875 H   0  0  0  0  0  0  0  0  0  0  0  0
   20.8705   -3.6891   22.5711 H   0  0  0  0  0  0  0  0  0  0  0  0
   20.0706   -5.1110   22.5000 H   0  0  0  0  0  0  0  0  0  0  0  0
   11.7216   -1.2224   27.8109 H   0  0  0  0  0  0  0  0  0  0  0  0
   16.0233   -2.5365   14.9126 H   0  0  0  0  0  0  0  0  0  0  0  0
   13.2687    1.2445   24.8777 H   0  0  0  0  0  0  0  0  0  0  0  0
   18.7461   -3.4000   22.6250 H   0  0  0  0  0  0  0  0  0  0  0  0
   11.5762    1.1703   26.8294 H   0  0  0  0  0  0  0  0  0  0  0  0
   14.7570    2.7449   20.7831 H   0  0  0  0  0  0  0  0  0  0  0  0
   16.9866    2.4879   19.9892 H   0  0  0  0  0  0  0  0  0  0  0  0
   13.0771    1.1775   20.1744 H   0  0  0  0  0  0  0  0  0  0  0  0
   17.4833   -3.7785   16.6471 H   0  0  0  0  0  0  0  0  0  0  0  0
   17.5244    0.6545   18.5550 H   0  0  0  0  0  0  0  0  0  0  0  0
   13.6246   -0.6690   18.7668 H   0  0  0  0  0  0  0  0  0  0  0  0
   14.3210    0.4098   23.2188 H   0  0  0  0  0  0  0  0  0  0  0  0
   15.8558   -0.3632   21.5824 H   0  0  0  0  0  0  0  0  0  0  0  0
   15.1334   -2.9181   25.5307 H   0  0  0  0  0  0  0  0  0  0  0  0
  1 25  1  0  0  0  0
  2 26  2  0  0  0  0
  3 10  1  0  0  0  0
  3 27  1  0  0  0  0
  4  7  1  0  0  0  0
  4 11  2  0  0  0  0
  5  9  1  0  0  0  0
  5 12  2  0  0  0  0
  6  8  1  0  0  0  0
  6 28  2  0  0  0  0
  7 13  1  0  0  0  0
  7 29  1  0  0  0  0
  8 14  1  0  0  0  0
  8 31  1  0  0  0  0
  9 30  1  0  0  0  0
  9 32  1  0  0  0  0
 11 15  1  0  0  0  0
 12 19  1  0  0  0  0
 13 15  2  0  0  0  0
 14 27  2  0  0  0  0
 16 17  2  0  0  0  0
 16 18  1  0  0  0  0
 17 20  1  0  0  0  0
 18 21  2  0  0  0  0
 19 32  2  0  0  0  0
 20 30  2  0  0  0  0
 21 30  1  0  0  0  0
 22 23  1  0  0  0  0
 22 29  2  0  0  0  0
 23 31  2  0  0  0  0
 24 25  2  0  0  0  0
 24 29  1  0  0  0  0
 25 31  1  0  0  0  0
 26 27  1  0  0  0  0
 26 28  1  0  0  0  0
 28 32  1  0  0  0  0
 10 33  1  0  0  0  0
 10 34  1  0  0  0  0
 10 35  1  0  0  0  0
 11 36  1  0  0  0  0
 12 37  1  0  0  0  0
 13 38  1  0  0  0  0
 14 39  1  0  0  0  0
 15 40  1  0  0  0  0
 16 41  1  0  0  0  0
 17 42  1  0  0  0  0
 18 43  1  0  0  0  0
 19 44  1  0  0  0  0
 20 45  1  0  0  0  0
 21 46  1  0  0  0  0
 22 47  1  0  0  0  0
 23 48  1  0  0  0  0
 24 49  1  0  0  0  0
M  END
> <pdb_id>
3WYM

> <uniprot_id>
Q9Y233

> <usmiles>
Fc1c(N2N=C(C(=O)C(OC)=C2)C=3N(N=CC3)c4ccccc4)ccc(N5N=CC=C5)c1

$$$$
3KG_A_1003
          07192416573D 1   1.00000     0.00000     0
            
 41 44  0  0  0  0            999 V2000
   15.3020   -4.7434   26.1796 F   0  0  0  0  0  0  0  0  0  0  0  0
   17.3632   -5.2108   25.6500 F   0  0  0  0  0  0  0  0  0  0  0  0
   16.9777   -3.5858   27.0261 F   0  0  0  0  0  0  0  0  0  0  0  0
   19.7008   -3.5272   17.9996 O   0  0  0  0  0  0  0  0  0  0  0  0
   15.6977   -1.3265   16.5002 N   0  0  0  0  0  0  0  0  0  0  0  0
   17.1989   -2.4355   20.2480 N   0  0  0  0  0  0  0  0  0  0  0  0
   17.8458   -2.7549   21.3964 N   0  0  0  0  0  0  0  0  0  0  0  0
   16.2368   -1.3511   17.7317 N   0  0  0  0  0  0  0  0  0  0  0  0
   16.2591   -2.3633   15.8710 C   0  0  0  0  0  0  0  0  0  0  0  0
   19.0923   -3.3237   21.4215 C   0  0  0  0  0  0  0  0  0  0  0  0
   15.1821    1.5541   20.4822 C   0  0  0  0  0  0  0  0  0  0  0  0
   16.3423    1.6992   19.7504 C   0  0  0  0  0  0  0  0  0  0  0  0
   14.3775    0.4435   20.3053 C   0  0  0  0  0  0  0  0  0  0  0  0
   15.5655   -1.1761   23.8357 C   0  0  0  0  0  0  0  0  0  0  0  0
   19.8276   -3.6406   20.3564 C   0  0  0  0  0  0  0  0  0  0  0  0
   17.1543   -3.0596   16.7151 C   0  0  0  0  0  0  0  0  0  0  0  0
   16.6929    0.7275   18.8350 C   0  0  0  0  0  0  0  0  0  0  0  0
   14.7192   -0.5342   19.3930 C   0  0  0  0  0  0  0  0  0  0  0  0
   16.2998   -1.3987   22.6917 C   0  0  0  0  0  0  0  0  0  0  0  0
   15.6258   -2.0764   24.8754 C   0  0  0  0  0  0  0  0  0  0  0  0
   17.1615   -3.3970   23.6164 C   0  0  0  0  0  0  0  0  0  0  0  0
   19.1735   -3.3080   19.0786 C   0  0  0  0  0  0  0  0  0  0  0  0
   17.8094   -2.6757   19.1343 C   0  0  0  0  0  0  0  0  0  0  0  0
   17.1083   -2.5078   22.5690 C   0  0  0  0  0  0  0  0  0  0  0  0
   15.8792   -0.3771   18.6651 C   0  0  0  0  0  0  0  0  0  0  0  0
   17.1287   -2.3791   17.9133 C   0  0  0  0  0  0  0  0  0  0  0  0
   16.4283   -3.1913   24.7658 C   0  0  0  0  0  0  0  0  0  0  0  0
   16.5084   -4.1728   25.8882 C   0  0  0  0  0  0  0  0  0  0  0  0
   16.0696   -2.6151   14.9220 H   0  0  0  0  0  0  0  0  0  0  0  0
   19.4855   -3.5184   22.3200 H   0  0  0  0  0  0  0  0  0  0  0  0
   14.9213    2.2564   21.1446 H   0  0  0  0  0  0  0  0  0  0  0  0
   16.9245    2.5015   19.8820 H   0  0  0  0  0  0  0  0  0  0  0  0
   13.5402    0.3479   20.8436 H   0  0  0  0  0  0  0  0  0  0  0  0
   14.9896   -0.3620   23.9109 H   0  0  0  0  0  0  0  0  0  0  0  0
   20.7324   -4.0619   20.4180 H   0  0  0  0  0  0  0  0  0  0  0  0
   17.6916   -3.8726   16.4905 H   0  0  0  0  0  0  0  0  0  0  0  0
   17.5309    0.8219   18.2976 H   0  0  0  0  0  0  0  0  0  0  0  0
   14.1386   -1.3380   19.2631 H   0  0  0  0  0  0  0  0  0  0  0  0
   16.2452   -0.7443   21.9375 H   0  0  0  0  0  0  0  0  0  0  0  0
   15.0901   -1.9222   25.7056 H   0  0  0  0  0  0  0  0  0  0  0  0
   17.7425   -4.2076   23.5432 H   0  0  0  0  0  0  0  0  0  0  0  0
  1 28  1  0  0  0  0
  2 28  1  0  0  0  0
  3 28  1  0  0  0  0
  4 22  2  0  0  0  0
  5  8  1  0  0  0  0
  5  9  2  0  0  0  0
  6  7  1  0  0  0  0
  6 23  2  0  0  0  0
  7 10  1  0  0  0  0
  7 24  1  0  0  0  0
  8 25  1  0  0  0  0
  8 26  1  0  0  0  0
  9 16  1  0  0  0  0
 10 15  2  0  0  0  0
 11 12  2  0  0  0  0
 11 13  1  0  0  0  0
 12 17  1  0  0  0  0
 13 18  2  0  0  0  0
 14 19  1  0  0  0  0
 14 20  2  0  0  0  0
 15 22  1  0  0  0  0
 16 26  2  0  0  0  0
 17 25  2  0  0  0  0
 18 25  1  0  0  0  0
 19 24  2  0  0  0  0
 20 27  1  0  0  0  0
 21 24  1  0  0  0  0
 21 27  2  0  0  0  0
 22 23  1  0  0  0  0
 23 26  1  0  0  0  0
 27 28  1  0  0  0  0
  9 29  1  0  0  0  0
 10 30  1  0  0  0  0
 11 31  1  0  0  0  0
 12 32  1  0  0  0  0
 13 33  1  0  0  0  0
 14 34  1  0  0  0  0
 15 35  1  0  0  0  0
 16 36  1  0  0  0  0
 17 37  1  0  0  0  0
 18 38  1  0  0  0  0
 19 39  1  0  0  0  0
 20 40  1  0  0  0  0
 21 41  1  0  0  0  0
M  END
> <pdb_id>
3WYK

> <uniprot_id>
Q9Y233

> <usmiles>
FC(F)(F)c1cc(N2N=C(C(=O)C=C2)C=3N(N=CC3)c4ccccc4)ccc1

$$$$
3KY_A_302
          07202404433D 1   1.00000     0.00000     0
            
 48 50  0  0  0  0            999 V2000
   -1.2984  -11.8703   31.5528 O   0  0  0  0  0  0  0  0  0  0  0  0
   -4.0537   -8.4247   29.7967 O   0  0  0  0  0  0  0  0  0  0  0  0
   -2.4005  -12.1898   29.6207 N   0  0  0  0  0  0  0  0  0  0  0  0
   -7.5203  -15.5268   27.6440 C   0  0  0  0  0  0  0  0  0  0  0  0
   -6.8378  -17.2449   29.3425 C   0  0  0  0  0  0  0  0  0  0  0  0
   -1.7061   -7.6739   34.1707 C   0  0  0  0  0  0  0  0  0  0  0  0
   -0.6971   -8.1058   33.3424 C   0  0  0  0  0  0  0  0  0  0  0  0
   -3.0109   -8.0143   33.9042 C   0  0  0  0  0  0  0  0  0  0  0  0
   -0.9910   -8.8844   32.2371 C   0  0  0  0  0  0  0  0  0  0  0  0
   -3.3124   -8.7919   32.7987 C   0  0  0  0  0  0  0  0  0  0  0  0
   -5.4298  -13.6558   28.9152 C   0  0  0  0  0  0  0  0  0  0  0  0
   -4.5505  -15.0599   27.0744 C   0  0  0  0  0  0  0  0  0  0  0  0
   -6.0436  -14.8773   29.5737 C   0  0  0  0  0  0  0  0  0  0  0  0
   -5.1452  -16.2978   27.7284 C   0  0  0  0  0  0  0  0  0  0  0  0
   -3.7840  -10.5278   28.6827 C   0  0  0  0  0  0  0  0  0  0  0  0
   -3.5070  -12.7727   27.5384 C   0  0  0  0  0  0  0  0  0  0  0  0
   -2.0592  -11.4080   30.7022 C   0  0  0  0  0  0  0  0  0  0  0  0
   -3.2270  -11.7641   28.6169 C   0  0  0  0  0  0  0  0  0  0  0  0
   -3.4996   -9.6735   29.7508 C   0  0  0  0  0  0  0  0  0  0  0  0
   -4.1916  -14.0192   28.1169 C   0  0  0  0  0  0  0  0  0  0  0  0
   -2.3078   -9.2276   31.9387 C   0  0  0  0  0  0  0  0  0  0  0  0
   -2.6270  -10.0796   30.7660 C   0  0  0  0  0  0  0  0  0  0  0  0
   -6.3904  -15.9910   28.5747 C   0  0  0  0  0  0  0  0  0  0  0  0
   -3.8489   -7.8146   30.5621 H   0  0  0  0  0  0  0  0  0  0  0  0
   -2.0254  -13.1152   29.5665 H   0  0  0  0  0  0  0  0  0  0  0  0
   -7.2273  -14.7110   27.1454 H   0  0  0  0  0  0  0  0  0  0  0  0
   -7.7370  -16.2550   26.9938 H   0  0  0  0  0  0  0  0  0  0  0  0
   -8.3322  -15.3121   28.1868 H   0  0  0  0  0  0  0  0  0  0  0  0
   -6.1009  -17.5456   29.9479 H   0  0  0  0  0  0  0  0  0  0  0  0
   -7.6494  -17.0310   29.8861 H   0  0  0  0  0  0  0  0  0  0  0  0
   -7.0542  -17.9739   28.6932 H   0  0  0  0  0  0  0  0  0  0  0  0
   -1.4902   -7.1110   34.9686 H   0  0  0  0  0  0  0  0  0  0  0  0
    0.2511   -7.8566   33.5392 H   0  0  0  0  0  0  0  0  0  0  0  0
   -3.7428   -7.7003   34.5090 H   0  0  0  0  0  0  0  0  0  0  0  0
   -0.2504   -9.2041   31.6461 H   0  0  0  0  0  0  0  0  0  0  0  0
   -4.2629   -9.0434   32.6158 H   0  0  0  0  0  0  0  0  0  0  0  0
   -5.1780  -12.9965   29.6236 H   0  0  0  0  0  0  0  0  0  0  0  0
   -6.1034  -13.2444   28.3012 H   0  0  0  0  0  0  0  0  0  0  0  0
   -5.2186  -14.6713   26.4399 H   0  0  0  0  0  0  0  0  0  0  0  0
   -3.7254  -15.3188   26.5722 H   0  0  0  0  0  0  0  0  0  0  0  0
   -6.8815  -14.5985   30.0429 H   0  0  0  0  0  0  0  0  0  0  0  0
   -5.3928  -15.2398   30.2409 H   0  0  0  0  0  0  0  0  0  0  0  0
   -4.4519  -16.7100   28.3196 H   0  0  0  0  0  0  0  0  0  0  0  0
   -5.3996  -16.9461   27.0108 H   0  0  0  0  0  0  0  0  0  0  0  0
   -4.4044  -10.2255   27.9590 H   0  0  0  0  0  0  0  0  0  0  0  0
   -2.6443  -13.0421   27.1104 H   0  0  0  0  0  0  0  0  0  0  0  0
   -4.1052  -12.3598   26.8515 H   0  0  0  0  0  0  0  0  0  0  0  0
   -3.5454  -14.4450   28.7502 H   0  0  0  0  0  0  0  0  0  0  0  0
  1 17  2  0  0  0  0
  2 19  1  0  0  0  0
  3 17  1  0  0  0  0
  3 18  1  0  0  0  0
  4 23  1  0  0  0  0
  5 23  1  0  0  0  0
  6  7  2  0  0  0  0
  6  8  1  0  0  0  0
  7  9  1  0  0  0  0
  8 10  2  0  0  0  0
  9 21  2  0  0  0  0
 10 21  1  0  0  0  0
 11 13  1  0  0  0  0
 11 20  1  0  0  0  0
 12 14  1  0  0  0  0
 12 20  1  0  0  0  0
 13 23  1  0  0  0  0
 14 23  1  0  0  0  0
 15 18  2  0  0  0  0
 15 19  1  0  0  0  0
 16 18  1  0  0  0  0
 16 20  1  0  0  0  0
 17 22  1  0  0  0  0
 19 22  2  0  0  0  0
 21 22  1  0  0  0  0
  2 24  1  0  0  0  0
  3 25  1  0  0  0  0
  4 26  1  0  0  0  0
  4 27  1  0  0  0  0
  4 28  1  0  0  0  0
  5 29  1  0  0  0  0
  5 30  1  0  0  0  0
  5 31  1  0  0  0  0
  6 32  1  0  0  0  0
  7 33  1  0  0  0  0
  8 34  1  0  0  0  0
  9 35  1  0  0  0  0
 10 36  1  0  0  0  0
 11 37  1  0  0  0  0
 11 38  1  0  0  0  0
 12 39  1  0  0  0  0
 12 40  1  0  0  0  0
 13 41  1  0  0  0  0
 13 42  1  0  0  0  0
 14 43  1  0  0  0  0
 14 44  1  0  0  0  0
 15 45  1  0  0  0  0
 16 46  1  0  0  0  0
 16 47  1  0  0  0  0
 20 48  1  0  0  0  0
M  END
> <pdb_id>
7U0O

> <uniprot_id>
nan

> <usmiles>
O=C1NC(=CC(O)=C1c2ccccc2)CC3CCC(CC3)(C)C

$$$$
3MS_A_579
          07192423343D 1   1.00000     0.00000     0
            
 56 59  0  0  0  0            999 V2000
   28.1890   43.7628   35.6806 S   0  0  0  0  0  0  0  0  0  0  0  0
   24.4331   45.1023   39.7078 S   0  0  0  0  0  0  0  0  0  0  0  0
   26.8405   43.2221   35.7574 O   0  0  0  0  0  0  0  0  0  0  0  0
   29.2086   43.1239   34.8651 O   0  0  0  0  0  0  0  0  0  0  0  0
   24.3605   46.3745   39.0164 O   0  0  0  0  0  0  0  0  0  0  0  0
   23.6235   43.9677   39.3285 O   0  0  0  0  0  0  0  0  0  0  0  0
   26.4162   43.7766   44.4683 O   0  0  0  0  0  0  0  0  0  0  0  0
   22.4090   45.9913   43.1664 O   0  0  0  0  0  0  0  0  0  0  0  0
   28.8692   44.0433   37.2236 N   0  0  0  0  0  0  0  0  0  0  0  0
   24.2312   45.4016   41.3525 N   0  0  0  0  0  0  0  0  0  0  0  0
   25.8907   43.7978   42.0142 N   0  0  0  0  0  0  0  0  0  0  0  0
   25.1946   44.8931   46.0868 N   0  0  0  0  0  0  0  0  0  0  0  0
   24.1111   45.7518   46.3190 N   0  0  0  0  0  0  0  0  0  0  0  0
   28.0375   45.4384   35.1090 C   0  0  0  0  0  0  0  0  0  0  0  0
   24.3053   41.1275   48.2985 C   0  0  0  0  0  0  0  0  0  0  0  0
   25.9192   41.2684   46.3996 C   0  0  0  0  0  0  0  0  0  0  0  0
   23.7620   46.3092   47.5225 C   0  0  0  0  0  0  0  0  0  0  0  0
   26.0936   44.4844   47.1566 C   0  0  0  0  0  0  0  0  0  0  0  0
   22.6393   47.0743   47.2974 C   0  0  0  0  0  0  0  0  0  0  0  0
   25.5299   43.3077   47.9709 C   0  0  0  0  0  0  0  0  0  0  0  0
   28.6309   43.4023   39.5554 C   0  0  0  0  0  0  0  0  0  0  0  0
   22.3129   46.9823   45.9245 C   0  0  0  0  0  0  0  0  0  0  0  0
   27.8901   43.3424   40.7460 C   0  0  0  0  0  0  0  0  0  0  0  0
   26.7902   44.5416   38.4463 C   0  0  0  0  0  0  0  0  0  0  0  0
   25.4482   44.4563   44.7876 C   0  0  0  0  0  0  0  0  0  0  0  0
   24.9559   44.6628   42.3119 C   0  0  0  0  0  0  0  0  0  0  0  0
   26.0692   44.4757   39.6437 C   0  0  0  0  0  0  0  0  0  0  0  0
   28.0800   43.9975   38.4107 C   0  0  0  0  0  0  0  0  0  0  0  0
   23.4464   45.6847   44.0146 C   0  0  0  0  0  0  0  0  0  0  0  0
   26.5919   43.8849   40.8052 C   0  0  0  0  0  0  0  0  0  0  0  0
   23.2469   46.1557   45.3329 C   0  0  0  0  0  0  0  0  0  0  0  0
   24.9226   42.0662   47.2534 C   0  0  0  0  0  0  0  0  0  0  0  0
   24.5556   44.9603   43.6979 C   0  0  0  0  0  0  0  0  0  0  0  0
   22.4451   45.7059   42.2086 H   0  0  0  0  0  0  0  0  0  0  0  0
   29.8460   44.2447   37.2958 H   0  0  0  0  0  0  0  0  0  0  0  0
   26.1076   43.0644   42.6585 H   0  0  0  0  0  0  0  0  0  0  0  0
   28.9459   45.8509   35.0412 H   0  0  0  0  0  0  0  0  0  0  0  0
   27.6002   45.4455   34.2097 H   0  0  0  0  0  0  0  0  0  0  0  0
   27.4810   45.9617   35.7544 H   0  0  0  0  0  0  0  0  0  0  0  0
   23.6540   41.6369   48.8608 H   0  0  0  0  0  0  0  0  0  0  0  0
   23.8314   40.3786   47.8353 H   0  0  0  0  0  0  0  0  0  0  0  0
   25.0283   40.7551   48.8804 H   0  0  0  0  0  0  0  0  0  0  0  0
   26.3281   41.8710   45.7143 H   0  0  0  0  0  0  0  0  0  0  0  0
   26.6376   40.8956   46.9869 H   0  0  0  0  0  0  0  0  0  0  0  0
   25.4407   40.5191   45.9417 H   0  0  0  0  0  0  0  0  0  0  0  0
   24.2325   46.1840   48.3960 H   0  0  0  0  0  0  0  0  0  0  0  0
   26.2381   45.2608   47.7701 H   0  0  0  0  0  0  0  0  0  0  0  0
   26.9674   44.2093   46.7556 H   0  0  0  0  0  0  0  0  0  0  0  0
   22.1415   47.6029   47.9850 H   0  0  0  0  0  0  0  0  0  0  0  0
   24.8088   43.6825   48.5536 H   0  0  0  0  0  0  0  0  0  0  0  0
   26.2783   42.9704   48.5419 H   0  0  0  0  0  0  0  0  0  0  0  0
   29.5542   43.0196   39.5230 H   0  0  0  0  0  0  0  0  0  0  0  0
   21.5467   47.4330   45.4665 H   0  0  0  0  0  0  0  0  0  0  0  0
   28.2864   42.9119   41.5570 H   0  0  0  0  0  0  0  0  0  0  0  0
   26.3930   44.9680   37.6336 H   0  0  0  0  0  0  0  0  0  0  0  0
   24.1887   42.3851   46.6536 H   0  0  0  0  0  0  0  0  0  0  0  0
  1  3  2  0  0  0  0
  1  4  2  0  0  0  0
  1  9  1  0  0  0  0
  1 14  1  0  0  0  0
  2  5  2  0  0  0  0
  2  6  2  0  0  0  0
  2 10  1  0  0  0  0
  2 27  1  0  0  0  0
  7 25  2  0  0  0  0
  8 29  1  0  0  0  0
  9 28  1  0  0  0  0
 10 26  2  0  0  0  0
 11 26  1  0  0  0  0
 11 30  1  0  0  0  0
 12 13  1  0  0  0  0
 12 18  1  0  0  0  0
 12 25  1  0  0  0  0
 13 17  1  0  0  0  0
 13 31  1  0  0  0  0
 15 32  1  0  0  0  0
 16 32  1  0  0  0  0
 17 19  2  0  0  0  0
 18 20  1  0  0  0  0
 19 22  1  0  0  0  0
 20 32  1  0  0  0  0
 21 23  1  0  0  0  0
 21 28  2  0  0  0  0
 22 31  2  0  0  0  0
 23 30  2  0  0  0  0
 24 27  2  0  0  0  0
 24 28  1  0  0  0  0
 25 33  1  0  0  0  0
 26 33  1  0  0  0  0
 27 30  1  0  0  0  0
 29 31  1  0  0  0  0
 29 33  2  0  0  0  0
  8 34  1  0  0  0  0
  9 35  1  0  0  0  0
 11 36  1  0  0  0  0
 14 37  1  0  0  0  0
 14 38  1  0  0  0  0
 14 39  1  0  0  0  0
 15 40  1  0  0  0  0
 15 41  1  0  0  0  0
 15 42  1  0  0  0  0
 16 43  1  0  0  0  0
 16 44  1  0  0  0  0
 16 45  1  0  0  0  0
 17 46  1  0  0  0  0
 18 47  1  0  0  0  0
 18 48  1  0  0  0  0
 19 49  1  0  0  0  0
 20 50  1  0  0  0  0
 20 51  1  0  0  0  0
 21 52  1  0  0  0  0
 22 53  1  0  0  0  0
 23 54  1  0  0  0  0
 24 55  1  0  0  0  0
 32 56  1  0  0  0  0
M  END
> <pdb_id>
3CO9

> <uniprot_id>
P26663

> <usmiles>
S1(=O)(=O)N=C(Nc2c1cc(NS(=O)(=O)C)cc2)C=3C(=O)N(N4C(C3O)=CC=C4)CCC(C)C

$$$$
3MS_B_579
          07192423343D 1   1.00000     0.00000     0
            
 56 59  0  0  0  0            999 V2000
   28.2097   43.7617   35.6879 S   0  0  0  0  0  0  0  0  0  0  0  0
   24.4510   45.1021   39.7261 S   0  0  0  0  0  0  0  0  0  0  0  0
   26.8798   43.1932   35.7510 O   0  0  0  0  0  0  0  0  0  0  0  0
   29.2214   43.0884   34.8961 O   0  0  0  0  0  0  0  0  0  0  0  0
   24.4026   46.3618   39.0172 O   0  0  0  0  0  0  0  0  0  0  0  0
   23.6024   43.9978   39.3579 O   0  0  0  0  0  0  0  0  0  0  0  0
   26.4085   43.7718   44.4903 O   0  0  0  0  0  0  0  0  0  0  0  0
   22.3840   46.0052   43.2088 O   0  0  0  0  0  0  0  0  0  0  0  0
   28.9077   43.9508   37.2487 N   0  0  0  0  0  0  0  0  0  0  0  0
   24.2056   45.3948   41.3695 N   0  0  0  0  0  0  0  0  0  0  0  0
   25.9480   43.8942   42.0679 N   0  0  0  0  0  0  0  0  0  0  0  0
   25.2092   44.8936   46.1136 N   0  0  0  0  0  0  0  0  0  0  0  0
   24.1463   45.7549   46.3641 N   0  0  0  0  0  0  0  0  0  0  0  0
   28.1148   45.4385   35.1116 C   0  0  0  0  0  0  0  0  0  0  0  0
   24.2615   41.2175   48.2813 C   0  0  0  0  0  0  0  0  0  0  0  0
   25.8218   41.2722   46.3392 C   0  0  0  0  0  0  0  0  0  0  0  0
   23.8462   46.3122   47.5779 C   0  0  0  0  0  0  0  0  0  0  0  0
   26.1356   44.4898   47.1642 C   0  0  0  0  0  0  0  0  0  0  0  0
   22.7309   47.0937   47.3888 C   0  0  0  0  0  0  0  0  0  0  0  0
   25.6234   43.2864   47.9661 C   0  0  0  0  0  0  0  0  0  0  0  0
   28.6705   43.4167   39.6043 C   0  0  0  0  0  0  0  0  0  0  0  0
   22.3582   47.0007   46.0251 C   0  0  0  0  0  0  0  0  0  0  0  0
   27.9293   43.4116   40.7964 C   0  0  0  0  0  0  0  0  0  0  0  0
   26.8155   44.4930   38.4699 C   0  0  0  0  0  0  0  0  0  0  0  0
   25.4407   44.4571   44.8107 C   0  0  0  0  0  0  0  0  0  0  0  0
   24.9643   44.7109   42.3425 C   0  0  0  0  0  0  0  0  0  0  0  0
   26.0942   44.4681   39.6709 C   0  0  0  0  0  0  0  0  0  0  0  0
   28.1130   43.9529   38.4413 C   0  0  0  0  0  0  0  0  0  0  0  0
   23.4278   45.6979   44.0627 C   0  0  0  0  0  0  0  0  0  0  0  0
   26.6322   43.9376   40.8475 C   0  0  0  0  0  0  0  0  0  0  0  0
   23.2655   46.1677   45.3931 C   0  0  0  0  0  0  0  0  0  0  0  0
   24.9017   42.1271   47.2309 C   0  0  0  0  0  0  0  0  0  0  0  0
   24.5419   44.9783   43.7300 C   0  0  0  0  0  0  0  0  0  0  0  0
   22.4168   45.7123   42.2532 H   0  0  0  0  0  0  0  0  0  0  0  0
   29.8984   44.0627   37.3263 H   0  0  0  0  0  0  0  0  0  0  0  0
   23.5157   46.0594   41.6565 H   0  0  0  0  0  0  0  0  0  0  0  0
   29.0345   45.8288   35.0690 H   0  0  0  0  0  0  0  0  0  0  0  0
   27.7031   45.4550   34.2005 H   0  0  0  0  0  0  0  0  0  0  0  0
   27.5535   45.9760   35.7409 H   0  0  0  0  0  0  0  0  0  0  0  0
   23.6602   41.7588   48.8690 H   0  0  0  0  0  0  0  0  0  0  0  0
   23.7284   40.5050   47.8249 H   0  0  0  0  0  0  0  0  0  0  0  0
   24.9774   40.7941   48.8365 H   0  0  0  0  0  0  0  0  0  0  0  0
   26.2484   41.8535   45.6463 H   0  0  0  0  0  0  0  0  0  0  0  0
   26.5316   40.8486   46.9020 H   0  0  0  0  0  0  0  0  0  0  0  0
   25.2827   40.5595   45.8904 H   0  0  0  0  0  0  0  0  0  0  0  0
   24.3421   46.1772   48.4357 H   0  0  0  0  0  0  0  0  0  0  0  0
   26.2675   45.2592   47.7891 H   0  0  0  0  0  0  0  0  0  0  0  0
   27.0105   44.2472   46.7449 H   0  0  0  0  0  0  0  0  0  0  0  0
   22.2648   47.6328   48.0904 H   0  0  0  0  0  0  0  0  0  0  0  0
   24.9827   43.6422   48.6465 H   0  0  0  0  0  0  0  0  0  0  0  0
   26.4149   42.8882   48.4297 H   0  0  0  0  0  0  0  0  0  0  0  0
   29.5956   43.0374   39.5877 H   0  0  0  0  0  0  0  0  0  0  0  0
   21.5783   47.4559   45.5954 H   0  0  0  0  0  0  0  0  0  0  0  0
   28.3350   43.0251   41.6247 H   0  0  0  0  0  0  0  0  0  0  0  0
   26.4130   44.8894   37.6448 H   0  0  0  0  0  0  0  0  0  0  0  0
   24.1768   42.5142   46.6611 H   0  0  0  0  0  0  0  0  0  0  0  0
  1  3  2  0  0  0  0
  1  4  2  0  0  0  0
  1  9  1  0  0  0  0
  1 14  1  0  0  0  0
  2  5  2  0  0  0  0
  2  6  2  0  0  0  0
  2 10  1  0  0  0  0
  2 27  1  0  0  0  0
  7 25  2  0  0  0  0
  8 29  1  0  0  0  0
  9 28  1  0  0  0  0
 10 26  1  0  0  0  0
 11 26  2  0  0  0  0
 11 30  1  0  0  0  0
 12 13  1  0  0  0  0
 12 18  1  0  0  0  0
 12 25  1  0  0  0  0
 13 17  1  0  0  0  0
 13 31  1  0  0  0  0
 15 32  1  0  0  0  0
 16 32  1  0  0  0  0
 17 19  2  0  0  0  0
 18 20  1  0  0  0  0
 19 22  1  0  0  0  0
 20 32  1  0  0  0  0
 21 23  1  0  0  0  0
 21 28  2  0  0  0  0
 22 31  2  0  0  0  0
 23 30  2  0  0  0  0
 24 27  2  0  0  0  0
 24 28  1  0  0  0  0
 25 33  1  0  0  0  0
 26 33  1  0  0  0  0
 27 30  1  0  0  0  0
 29 31  1  0  0  0  0
 29 33  2  0  0  0  0
  8 34  1  0  0  0  0
  9 35  1  0  0  0  0
 10 36  1  0  0  0  0
 14 37  1  0  0  0  0
 14 38  1  0  0  0  0
 14 39  1  0  0  0  0
 15 40  1  0  0  0  0
 15 41  1  0  0  0  0
 15 42  1  0  0  0  0
 16 43  1  0  0  0  0
 16 44  1  0  0  0  0
 16 45  1  0  0  0  0
 17 46  1  0  0  0  0
 18 47  1  0  0  0  0
 18 48  1  0  0  0  0
 19 49  1  0  0  0  0
 20 50  1  0  0  0  0
 20 51  1  0  0  0  0
 21 52  1  0  0  0  0
 22 53  1  0  0  0  0
 23 54  1  0  0  0  0
 24 55  1  0  0  0  0
 32 56  1  0  0  0  0
M  END
> <pdb_id>
3CO9

> <uniprot_id>
P26663

> <usmiles>
S1(=O)(=O)NC(=Nc2c1cc(NS(=O)(=O)C)cc2)C=3C(=O)N(N4C(C3O)=CC=C4)CCC(C)C

$$$$
3N1_F_1
          07202404053D 1   1.00000     0.00000     0
            
 24 25  0  0  0  0            999 V2000
    0.2355   77.5974   29.8401 Cl  0  0  0  0  0  0  0  0  0  0  0  0
    6.2984   78.1694   28.5949 S   0  0  0  0  0  0  0  0  0  0  0  0
    8.9924   75.3271   26.9665 O   0  0  0  0  0  0  0  0  0  0  0  0
    6.8110   74.8890   26.7118 O   0  0  0  0  0  0  0  0  0  0  0  0
    4.9756   74.3699   29.7191 C   0  0  0  0  0  0  0  0  0  0  0  0
    2.3725   79.0181   29.1165 C   0  0  0  0  0  0  0  0  0  0  0  0
    3.7237   79.1955   28.8347 C   0  0  0  0  0  0  0  0  0  0  0  0
    7.6210   75.6157   28.8936 C   0  0  0  0  0  0  0  0  0  0  0  0
    2.7382   76.6223   29.5898 C   0  0  0  0  0  0  0  0  0  0  0  0
    1.8982   77.7503   29.4863 C   0  0  0  0  0  0  0  0  0  0  0  0
    7.8718   75.2650   27.4422 C   0  0  0  0  0  0  0  0  0  0  0  0
    4.5658   78.0776   28.9399 C   0  0  0  0  0  0  0  0  0  0  0  0
    6.3545   76.3970   28.9784 C   0  0  0  0  0  0  0  0  0  0  0  0
    5.1854   75.8284   29.3368 C   0  0  0  0  0  0  0  0  0  0  0  0
    4.0825   76.8308   29.3094 C   0  0  0  0  0  0  0  0  0  0  0  0
    9.7629   75.6109   27.5373 H   0  0  0  0  0  0  0  0  0  0  0  0
    4.0122   74.2185   29.9401 H   0  0  0  0  0  0  0  0  0  0  0  0
    5.2380   73.7834   28.9528 H   0  0  0  0  0  0  0  0  0  0  0  0
    5.5389   74.1497   30.5155 H   0  0  0  0  0  0  0  0  0  0  0  0
    1.7417   79.7916   29.0558 H   0  0  0  0  0  0  0  0  0  0  0  0
    4.0826   80.0895   28.5662 H   0  0  0  0  0  0  0  0  0  0  0  0
    8.3800   76.1642   29.2443 H   0  0  0  0  0  0  0  0  0  0  0  0
    7.5377   74.7782   29.4337 H   0  0  0  0  0  0  0  0  0  0  0  0
    2.3860   75.7234   29.8502 H   0  0  0  0  0  0  0  0  0  0  0  0
  1 10  1  0  0  0  0
  2 12  1  0  0  0  0
  2 13  1  0  0  0  0
  3 11  1  0  0  0  0
  4 11  2  0  0  0  0
  5 14  1  0  0  0  0
  6  7  1  0  0  0  0
  6 10  2  0  0  0  0
  7 12  2  0  0  0  0
  8 11  1  0  0  0  0
  8 13  1  0  0  0  0
  9 10  1  0  0  0  0
  9 15  2  0  0  0  0
 12 15  1  0  0  0  0
 13 14  2  0  0  0  0
 14 15  1  0  0  0  0
  3 16  1  0  0  0  0
  5 17  1  0  0  0  0
  5 18  1  0  0  0  0
  5 19  1  0  0  0  0
  6 20  1  0  0  0  0
  7 21  1  0  0  0  0
  8 22  1  0  0  0  0
  8 23  1  0  0  0  0
  9 24  1  0  0  0  0
M  END
> <pdb_id>
3N1V

> <uniprot_id>
P14324

> <usmiles>
Clc1cc2c(SC(=C2C)CC(=O)O)cc1

$$$$
3P3_A_401
          07202401213D 1   1.00000     0.00000     0
            
 45 46  0  0  0  0            999 V2000
   31.9835  -14.4667   -6.3211 O   0  0  0  0  0  0  0  0  0  0  0  0
   30.3186  -12.8224   -7.3404 O   0  0  0  0  0  0  0  0  0  0  0  0
   33.5765   -9.2988   -8.0337 O   0  0  0  0  0  0  0  0  0  0  0  0
   30.8433  -10.6251   -4.5142 O   0  0  0  0  0  0  0  0  0  0  0  0
   32.2793  -13.1831   -6.2633 N   0  0  0  0  0  0  0  0  0  0  0  0
   31.4770  -10.2822   -8.1462 N   0  0  0  0  0  0  0  0  0  0  0  0
   29.1892  -10.1003   -6.2367 C   0  0  0  0  0  0  0  0  0  0  0  0
   29.1190   -3.3859  -20.4276 C   0  0  0  0  0  0  0  0  0  0  0  0
   28.1409   -4.1248  -19.7573 C   0  0  0  0  0  0  0  0  0  0  0  0
   30.4327   -3.4237  -19.9830 C   0  0  0  0  0  0  0  0  0  0  0  0
   30.5483   -6.2693  -16.0764 C   0  0  0  0  0  0  0  0  0  0  0  0
   30.9277   -6.9126  -14.9312 C   0  0  0  0  0  0  0  0  0  0  0  0
   28.4707   -4.8824  -18.6315 C   0  0  0  0  0  0  0  0  0  0  0  0
   30.7644   -4.1853  -18.8651 C   0  0  0  0  0  0  0  0  0  0  0  0
   30.2102   -5.6692  -17.0496 C   0  0  0  0  0  0  0  0  0  0  0  0
   31.2427   -7.4277  -13.9091 C   0  0  0  0  0  0  0  0  0  0  0  0
   31.1000   -9.2575  -12.2628 C   0  0  0  0  0  0  0  0  0  0  0  0
   32.4611   -7.2519  -11.7957 C   0  0  0  0  0  0  0  0  0  0  0  0
   31.4918   -9.7811  -10.9481 C   0  0  0  0  0  0  0  0  0  0  0  0
   32.8519   -7.7666  -10.4881 C   0  0  0  0  0  0  0  0  0  0  0  0
   31.3491  -12.3083   -6.8572 C   0  0  0  0  0  0  0  0  0  0  0  0
   32.5988   -9.5864   -8.7151 C   0  0  0  0  0  0  0  0  0  0  0  0
   30.6684  -10.0334   -5.8064 C   0  0  2  0  0  0  0  0  0  0  0  0
   29.7984   -4.9281  -18.1889 C   0  0  0  0  0  0  0  0  0  0  0  0
   31.6044   -8.0127  -12.6701 C   0  0  0  0  0  0  0  0  0  0  0  0
   31.5290  -10.8123   -6.8075 C   0  0  2  0  0  0  0  0  0  0  0  0
   32.3336   -9.0314  -10.0836 C   0  0  0  0  0  0  0  0  0  0  0  0
   32.7046  -14.9954   -5.8733 H   0  0  0  0  0  0  0  0  0  0  0  0
   31.8068  -10.5731   -4.2515 H   0  0  0  0  0  0  0  0  0  0  0  0
   33.1141  -12.8508   -5.8243 H   0  0  0  0  0  0  0  0  0  0  0  0
   30.6457  -10.4005   -8.6892 H   0  0  0  0  0  0  0  0  0  0  0  0
   29.0855   -9.6834   -7.1397 H   0  0  0  0  0  0  0  0  0  0  0  0
   28.8960  -11.0557   -6.2750 H   0  0  0  0  0  0  0  0  0  0  0  0
   28.6266   -9.6054   -5.5744 H   0  0  0  0  0  0  0  0  0  0  0  0
   28.8734   -2.8327  -21.2237 H   0  0  0  0  0  0  0  0  0  0  0  0
   27.1968   -4.1110  -20.0866 H   0  0  0  0  0  0  0  0  0  0  0  0
   31.1397   -2.9053  -20.4640 H   0  0  0  0  0  0  0  0  0  0  0  0
   27.7612   -5.3904  -18.1431 H   0  0  0  0  0  0  0  0  0  0  0  0
   31.7108   -4.1993  -18.5425 H   0  0  0  0  0  0  0  0  0  0  0  0
   30.4859   -9.7776  -12.8563 H   0  0  0  0  0  0  0  0  0  0  0  0
   32.7933   -6.3560  -12.0906 H   0  0  0  0  0  0  0  0  0  0  0  0
   31.1612  -10.6789  -10.6570 H   0  0  0  0  0  0  0  0  0  0  0  0
   33.4652   -7.2475   -9.8928 H   0  0  0  0  0  0  0  0  0  0  0  0
   30.9663   -9.0792   -5.7804 H   0  0  0  0  0  0  0  0  0  0  0  0
   32.4723  -10.6718   -6.5068 H   0  0  0  0  0  0  0  0  0  0  0  0
  1  5  1  0  0  0  0
  2 21  2  0  0  0  0
  3 22  2  0  0  0  0
  4 23  1  0  0  0  0
  5 21  1  0  0  0  0
  6 22  1  0  0  0  0
  6 26  1  0  0  0  0
  7 23  1  0  0  0  0
  8  9  2  0  0  0  0
  8 10  1  0  0  0  0
  9 13  1  0  0  0  0
 10 14  2  0  0  0  0
 11 12  1  0  0  0  0
 11 15  3  0  0  0  0
 12 16  3  0  0  0  0
 13 24  2  0  0  0  0
 14 24  1  0  0  0  0
 15 24  1  0  0  0  0
 16 25  1  0  0  0  0
 17 19  1  0  0  0  0
 17 25  2  0  0  0  0
 18 20  2  0  0  0  0
 18 25  1  0  0  0  0
 19 27  2  0  0  0  0
 20 27  1  0  0  0  0
 21 26  1  0  0  0  0
 22 27  1  0  0  0  0
 23 26  1  0  0  0  0
  1 28  1  0  0  0  0
  4 29  1  0  0  0  0
  5 30  1  0  0  0  0
  6 31  1  0  0  0  0
  7 32  1  0  0  0  0
  7 33  1  0  0  0  0
  7 34  1  0  0  0  0
  8 35  1  0  0  0  0
  9 36  1  0  0  0  0
 10 37  1  0  0  0  0
 13 38  1  0  0  0  0
 14 39  1  0  0  0  0
 17 40  1  0  0  0  0
 18 41  1  0  0  0  0
 19 42  1  0  0  0  0
 20 43  1  0  0  0  0
 23 44  1  0  0  0  0
 26 45  1  0  0  0  0
M  END
> <pdb_id>
3P3G

> <uniprot_id>
D5CV28

> <usmiles>
O=C(N[C@H](C(=O)NO)[C@H](O)C)c1ccc(C#CC#Cc2ccccc2)cc1

$$$$
3P3_A_501
          07202409253D 1   1.00000     0.00000     0
            
 45 46  0  0  0  0            999 V2000
  -14.1788   36.3872   14.9447 O   0  0  0  0  0  0  0  0  0  0  0  0
  -16.1930   35.2713   14.1707 O   0  0  0  0  0  0  0  0  0  0  0  0
  -18.9233   39.1307   12.6487 O   0  0  0  0  0  0  0  0  0  0  0  0
  -18.0405   36.8642   16.5686 O   0  0  0  0  0  0  0  0  0  0  0  0
  -15.2511   37.1759   14.8119 N   0  0  0  0  0  0  0  0  0  0  0  0
  -18.0652   37.0659   12.8514 N   0  0  0  0  0  0  0  0  0  0  0  0
  -19.1515   35.3845   14.8972 C   0  0  0  0  0  0  0  0  0  0  0  0
  -24.8646   34.0807    0.6906 C   0  0  0  0  0  0  0  0  0  0  0  0
  -24.3991   33.2018    1.6617 C   0  0  0  0  0  0  0  0  0  0  0  0
  -24.6054   35.4419    0.8017 C   0  0  0  0  0  0  0  0  0  0  0  0
  -22.0479   35.9603    4.8852 C   0  0  0  0  0  0  0  0  0  0  0  0
  -21.3674   36.4100    5.9637 C   0  0  0  0  0  0  0  0  0  0  0  0
  -23.6733   33.6838    2.7461 C   0  0  0  0  0  0  0  0  0  0  0  0
  -23.8800   35.9237    1.8844 C   0  0  0  0  0  0  0  0  0  0  0  0
  -22.6710   35.5428    3.9602 C   0  0  0  0  0  0  0  0  0  0  0  0
  -20.8097   36.7686    6.9460 C   0  0  0  0  0  0  0  0  0  0  0  0
  -19.3834   36.2799    8.8912 C   0  0  0  0  0  0  0  0  0  0  0  0
  -20.3447   38.4715    8.7155 C   0  0  0  0  0  0  0  0  0  0  0  0
  -18.8715   36.6018   10.1455 C   0  0  0  0  0  0  0  0  0  0  0  0
  -19.8305   38.7946    9.9744 C   0  0  0  0  0  0  0  0  0  0  0  0
  -16.3626   36.4668   14.4133 C   0  0  0  0  0  0  0  0  0  0  0  0
  -18.6323   38.1381   12.1064 C   0  0  0  0  0  0  0  0  0  0  0  0
  -18.6753   36.8162   15.2685 C   0  0  2  0  0  0  0  0  0  0  0  0
  -23.4140   35.0450    2.8572 C   0  0  0  0  0  0  0  0  0  0  0  0
  -20.1233   37.2094    8.1668 C   0  0  0  0  0  0  0  0  0  0  0  0
  -17.6497   37.2220   14.2066 C   0  0  2  0  0  0  0  0  0  0  0  0
  -19.1034   37.8551   10.7037 C   0  0  0  0  0  0  0  0  0  0  0  0
  -13.3948   36.9364   15.2342 H   0  0  0  0  0  0  0  0  0  0  0  0
  -17.7516   37.8014   16.7641 H   0  0  0  0  0  0  0  0  0  0  0  0
  -15.2462   38.1614   14.9815 H   0  0  0  0  0  0  0  0  0  0  0  0
  -17.9547   36.1752   12.4106 H   0  0  0  0  0  0  0  0  0  0  0  0
  -19.5820   35.4000   13.9948 H   0  0  0  0  0  0  0  0  0  0  0  0
  -18.3662   34.7656   14.8814 H   0  0  0  0  0  0  0  0  0  0  0  0
  -19.8128   35.0665   15.5766 H   0  0  0  0  0  0  0  0  0  0  0  0
  -25.3865   33.7335   -0.0886 H   0  0  0  0  0  0  0  0  0  0  0  0
  -24.5861   32.2228    1.5807 H   0  0  0  0  0  0  0  0  0  0  0  0
  -24.9406   36.0739    0.1030 H   0  0  0  0  0  0  0  0  0  0  0  0
  -23.3384   33.0518    3.4449 H   0  0  0  0  0  0  0  0  0  0  0  0
  -23.6927   36.9028    1.9645 H   0  0  0  0  0  0  0  0  0  0  0  0
  -19.2176   35.3716    8.5072 H   0  0  0  0  0  0  0  0  0  0  0  0
  -20.8743   39.1494    8.2057 H   0  0  0  0  0  0  0  0  0  0  0  0
  -18.3327   35.9266   10.6494 H   0  0  0  0  0  0  0  0  0  0  0  0
  -19.9852   39.7064   10.3547 H   0  0  0  0  0  0  0  0  0  0  0  0
  -19.4512   37.4467   15.2476 H   0  0  0  0  0  0  0  0  0  0  0  0
  -17.4490   38.1919   14.3446 H   0  0  0  0  0  0  0  0  0  0  0  0
  1  5  1  0  0  0  0
  2 21  2  0  0  0  0
  3 22  2  0  0  0  0
  4 23  1  0  0  0  0
  5 21  1  0  0  0  0
  6 22  1  0  0  0  0
  6 26  1  0  0  0  0
  7 23  1  0  0  0  0
  8  9  2  0  0  0  0
  8 10  1  0  0  0  0
  9 13  1  0  0  0  0
 10 14  2  0  0  0  0
 11 12  1  0  0  0  0
 11 15  3  0  0  0  0
 12 16  3  0  0  0  0
 13 24  2  0  0  0  0
 14 24  1  0  0  0  0
 15 24  1  0  0  0  0
 16 25  1  0  0  0  0
 17 19  1  0  0  0  0
 17 25  2  0  0  0  0
 18 20  2  0  0  0  0
 18 25  1  0  0  0  0
 19 27  2  0  0  0  0
 20 27  1  0  0  0  0
 21 26  1  0  0  0  0
 22 27  1  0  0  0  0
 23 26  1  0  0  0  0
  1 28  1  0  0  0  0
  4 29  1  0  0  0  0
  5 30  1  0  0  0  0
  6 31  1  0  0  0  0
  7 32  1  0  0  0  0
  7 33  1  0  0  0  0
  7 34  1  0  0  0  0
  8 35  1  0  0  0  0
  9 36  1  0  0  0  0
 10 37  1  0  0  0  0
 13 38  1  0  0  0  0
 14 39  1  0  0  0  0
 17 40  1  0  0  0  0
 18 41  1  0  0  0  0
 19 42  1  0  0  0  0
 20 43  1  0  0  0  0
 23 44  1  0  0  0  0
 26 45  1  0  0  0  0
M  END
> <pdb_id>
3P3C

> <uniprot_id>
O67648

> <usmiles>
O=C(N[C@H](C(=O)NO)[C@H](O)C)c1ccc(C#CC#Cc2ccccc2)cc1

$$$$
3P3_A_501
          07202407423D 1   1.00000     0.00000     0
            
 45 46  0  0  0  0            999 V2000
   22.0460   -7.9193   -7.4274 O   0  0  0  0  0  0  0  0  0  0  0  0
   22.2802  -10.3889   -8.1329 O   0  0  0  0  0  0  0  0  0  0  0  0
   27.0870  -11.0470   -7.1753 O   0  0  0  0  0  0  0  0  0  0  0  0
   24.6396   -9.4865  -10.5774 O   0  0  0  0  0  0  0  0  0  0  0  0
   23.2448   -8.3926   -7.6306 N   0  0  0  0  0  0  0  0  0  0  0  0
   24.8397  -11.5547   -7.4861 N   0  0  0  0  0  0  0  0  0  0  0  0
   23.8675  -11.7822  -10.3378 C   0  0  0  0  0  0  0  0  0  0  0  0
   27.9907  -23.5628   -0.0154 C   0  0  0  0  0  0  0  0  0  0  0  0
   27.1755  -23.5378   -1.1436 C   0  0  0  0  0  0  0  0  0  0  0  0
   28.5762  -22.3845    0.4279 C   0  0  0  0  0  0  0  0  0  0  0  0
   27.1624  -18.8706   -2.6095 C   0  0  0  0  0  0  0  0  0  0  0  0
   26.9762  -17.6864   -3.2721 C   0  0  0  0  0  0  0  0  0  0  0  0
   26.9468  -22.3396   -1.8244 C   0  0  0  0  0  0  0  0  0  0  0  0
   28.3464  -21.1912   -0.2519 C   0  0  0  0  0  0  0  0  0  0  0  0
   27.3277  -19.9107   -2.0384 C   0  0  0  0  0  0  0  0  0  0  0  0
   26.8168  -16.6623   -3.8702 C   0  0  0  0  0  0  0  0  0  0  0  0
   25.5312  -15.3194   -5.4785 C   0  0  0  0  0  0  0  0  0  0  0  0
   27.6026  -14.3992   -4.4420 C   0  0  0  0  0  0  0  0  0  0  0  0
   25.3702  -14.0704   -6.2305 C   0  0  0  0  0  0  0  0  0  0  0  0
   27.4454  -13.1593   -5.1880 C   0  0  0  0  0  0  0  0  0  0  0  0
   23.3204   -9.7598   -7.9978 C   0  0  0  0  0  0  0  0  0  0  0  0
   26.1416  -11.7674   -6.8882 C   0  0  0  0  0  0  0  0  0  0  0  0
   24.8447  -10.6964   -9.8469 C   0  0  2  0  0  0  0  0  0  0  0  0
   27.5295  -21.1532   -1.3780 C   0  0  0  0  0  0  0  0  0  0  0  0
   26.6346  -15.4559   -4.5957 C   0  0  0  0  0  0  0  0  0  0  0  0
   24.6118  -10.4225   -8.3562 C   0  0  2  0  0  0  0  0  0  0  0  0
   26.3210  -13.0202   -6.0720 C   0  0  0  0  0  0  0  0  0  0  0  0
   22.1072   -6.9535   -7.1754 H   0  0  0  0  0  0  0  0  0  0  0  0
   25.2776   -8.7885  -10.2522 H   0  0  0  0  0  0  0  0  0  0  0  0
   24.0619   -7.8245   -7.5330 H   0  0  0  0  0  0  0  0  0  0  0  0
   24.0946  -12.1940   -7.2962 H   0  0  0  0  0  0  0  0  0  0  0  0
   24.0185  -12.6249   -9.8209 H   0  0  0  0  0  0  0  0  0  0  0  0
   22.9271  -11.4710  -10.2006 H   0  0  0  0  0  0  0  0  0  0  0  0
   24.0229  -11.9554  -11.3103 H   0  0  0  0  0  0  0  0  0  0  0  0
   28.1530  -24.4212    0.4711 H   0  0  0  0  0  0  0  0  0  0  0  0
   26.7510  -24.3828   -1.4687 H   0  0  0  0  0  0  0  0  0  0  0  0
   29.1641  -22.3928    1.2369 H   0  0  0  0  0  0  0  0  0  0  0  0
   26.3624  -22.3322   -2.6358 H   0  0  0  0  0  0  0  0  0  0  0  0
   28.7749  -20.3485    0.0740 H   0  0  0  0  0  0  0  0  0  0  0  0
   24.8728  -16.0644   -5.5861 H   0  0  0  0  0  0  0  0  0  0  0  0
   28.3802  -14.5175   -3.8244 H   0  0  0  0  0  0  0  0  0  0  0  0
   24.5957  -13.9559   -6.8526 H   0  0  0  0  0  0  0  0  0  0  0  0
   28.1082  -12.4173   -5.0872 H   0  0  0  0  0  0  0  0  0  0  0  0
   25.7843  -11.0103   -9.9831 H   0  0  0  0  0  0  0  0  0  0  0  0
   25.3176   -9.7603   -8.1045 H   0  0  0  0  0  0  0  0  0  0  0  0
  1  5  1  0  0  0  0
  2 21  2  0  0  0  0
  3 22  2  0  0  0  0
  4 23  1  0  0  0  0
  5 21  1  0  0  0  0
  6 22  1  0  0  0  0
  6 26  1  0  0  0  0
  7 23  1  0  0  0  0
  8  9  2  0  0  0  0
  8 10  1  0  0  0  0
  9 13  1  0  0  0  0
 10 14  2  0  0  0  0
 11 12  1  0  0  0  0
 11 15  3  0  0  0  0
 12 16  3  0  0  0  0
 13 24  2  0  0  0  0
 14 24  1  0  0  0  0
 15 24  1  0  0  0  0
 16 25  1  0  0  0  0
 17 19  1  0  0  0  0
 17 25  2  0  0  0  0
 18 20  2  0  0  0  0
 18 25  1  0  0  0  0
 19 27  2  0  0  0  0
 20 27  1  0  0  0  0
 21 26  1  0  0  0  0
 22 27  1  0  0  0  0
 23 26  1  0  0  0  0
  1 28  1  0  0  0  0
  4 29  1  0  0  0  0
  5 30  1  0  0  0  0
  6 31  1  0  0  0  0
  7 32  1  0  0  0  0
  7 33  1  0  0  0  0
  7 34  1  0  0  0  0
  8 35  1  0  0  0  0
  9 36  1  0  0  0  0
 10 37  1  0  0  0  0
 13 38  1  0  0  0  0
 14 39  1  0  0  0  0
 17 40  1  0  0  0  0
 18 41  1  0  0  0  0
 19 42  1  0  0  0  0
 20 43  1  0  0  0  0
 23 44  1  0  0  0  0
 26 45  1  0  0  0  0
M  END
> <pdb_id>
3P3E

> <uniprot_id>
P47205

> <usmiles>
O=C(N[C@H](C(=O)NO)[C@H](O)C)c1ccc(C#CC#Cc2ccccc2)cc1

$$$$
3PF_A_1198
          07192420223D 1   1.00000     0.00000     0
            
 22 23  0  0  0  0            999 V2000
    5.5982   14.2506    8.5387 O   0  0  0  0  0  0  0  0  0  0  0  0
    7.5807   15.2548    8.7216 N   0  0  0  0  0  0  0  0  0  0  0  0
    7.2361   12.9044    9.2657 N   0  0  0  0  0  0  0  0  0  0  0  0
    6.2962   11.7502    9.2947 C   0  0  0  0  0  0  0  0  0  0  0  0
    8.6649   12.7677    9.6439 C   0  0  0  0  0  0  0  0  0  0  0  0
   11.1003   15.9066    8.1298 C   0  0  0  0  0  0  0  0  0  0  0  0
   11.6649   14.7214    8.5377 C   0  0  0  0  0  0  0  0  0  0  0  0
    9.7272   16.1067    8.1699 C   0  0  0  0  0  0  0  0  0  0  0  0
   10.8788   13.6860    9.0446 C   0  0  0  0  0  0  0  0  0  0  0  0
    6.7660   14.1554    8.8669 C   0  0  0  0  0  0  0  0  0  0  0  0
    8.9514   15.1159    8.7379 C   0  0  0  0  0  0  0  0  0  0  0  0
    9.5101   13.9089    9.1046 C   0  0  0  0  0  0  0  0  0  0  0  0
    7.1750   16.1611    8.6033 H   0  0  0  0  0  0  0  0  0  0  0  0
    5.3878   12.0527    9.0061 H   0  0  0  0  0  0  0  0  0  0  0  0
    6.6235   11.0382    8.6735 H   0  0  0  0  0  0  0  0  0  0  0  0
    6.2461   11.3845   10.2241 H   0  0  0  0  0  0  0  0  0  0  0  0
    9.0147   11.9058    9.2767 H   0  0  0  0  0  0  0  0  0  0  0  0
    8.7350   12.7579   10.6414 H   0  0  0  0  0  0  0  0  0  0  0  0
   11.6919   16.6409    7.7969 H   0  0  0  0  0  0  0  0  0  0  0  0
   12.6551   14.5993    8.4700 H   0  0  0  0  0  0  0  0  0  0  0  0
    9.3145   16.9393    7.8003 H   0  0  0  0  0  0  0  0  0  0  0  0
   11.2825   12.8238    9.3504 H   0  0  0  0  0  0  0  0  0  0  0  0
  1 10  2  0  0  0  0
  2 10  1  0  0  0  0
  2 11  1  0  0  0  0
  3  4  1  0  0  0  0
  3  5  1  0  0  0  0
  3 10  1  0  0  0  0
  5 12  1  0  0  0  0
  6  7  2  0  0  0  0
  6  8  1  0  0  0  0
  7  9  1  0  0  0  0
  8 11  2  0  0  0  0
  9 12  2  0  0  0  0
 11 12  1  0  0  0  0
  2 13  1  0  0  0  0
  4 14  1  0  0  0  0
  4 15  1  0  0  0  0
  4 16  1  0  0  0  0
  5 17  1  0  0  0  0
  5 18  1  0  0  0  0
  6 19  1  0  0  0  0
  7 20  1  0  0  0  0
  8 21  1  0  0  0  0
  9 22  1  0  0  0  0
M  END
> <pdb_id>
3P1F

> <uniprot_id>
Q92793

> <usmiles>
O=C1N(Cc2c(N1)cccc2)C

$$$$
3PF_A_201
          07212401333D 1   1.00000     0.00000     0
            
 20 21  0  0  0  0            999 V2000
  -16.5530  -23.1859  -22.8279 O   0  0  0  0  0  0  0  0  0  0  0  0
  -15.1836  -22.9068  -21.0742 N   0  0  0  0  0  0  0  0  0  0  0  0
  -16.2403  -21.0742  -22.1476 N   0  0  0  0  0  0  0  0  0  0  0  0
  -17.1032  -20.5760  -23.1766 C   0  0  0  0  0  0  0  0  0  0  0  0
  -15.6664  -20.2132  -21.2883 C   0  0  0  0  0  0  0  0  0  0  0  0
  -13.1607  -21.6548  -18.2352 C   0  0  0  0  0  0  0  0  0  0  0  0
  -13.4001  -20.2864  -18.3392 C   0  0  0  0  0  0  0  0  0  0  0  0
  -13.7590  -22.5366  -19.1299 C   0  0  0  0  0  0  0  0  0  0  0  0
  -14.2228  -19.7910  -19.3443 C   0  0  0  0  0  0  0  0  0  0  0  0
  -16.0185  -22.4208  -22.0448 C   0  0  0  0  0  0  0  0  0  0  0  0
  -14.6001  -22.0313  -20.1678 C   0  0  0  0  0  0  0  0  0  0  0  0
  -14.8303  -20.6985  -20.2704 C   0  0  0  0  0  0  0  0  0  0  0  0
  -17.4444  -21.3399  -23.7244 H   0  0  0  0  0  0  0  0  0  0  0  0
  -17.8742  -20.0937  -22.7606 H   0  0  0  0  0  0  0  0  0  0  0  0
  -16.5936  -19.9465  -23.7632 H   0  0  0  0  0  0  0  0  0  0  0  0
  -15.8347  -19.2312  -21.3741 H   0  0  0  0  0  0  0  0  0  0  0  0
  -12.5585  -22.0036  -17.5171 H   0  0  0  0  0  0  0  0  0  0  0  0
  -12.9776  -19.6568  -17.6871 H   0  0  0  0  0  0  0  0  0  0  0  0
  -13.6007  -23.5204  -19.0465 H   0  0  0  0  0  0  0  0  0  0  0  0
  -14.3893  -18.8079  -19.4199 H   0  0  0  0  0  0  0  0  0  0  0  0
  1 10  2  0  0  0  0
  2 10  1  0  0  0  0
  2 11  2  0  0  0  0
  3  4  1  0  0  0  0
  3  5  1  0  0  0  0
  3 10  1  0  0  0  0
  5 12  2  0  0  0  0
  6  7  1  0  0  0  0
  6  8  2  0  0  0  0
  7  9  2  0  0  0  0
  8 11  1  0  0  0  0
  9 12  1  0  0  0  0
 11 12  1  0  0  0  0
  4 13  1  0  0  0  0
  4 14  1  0  0  0  0
  4 15  1  0  0  0  0
  5 16  1  0  0  0  0
  6 17  1  0  0  0  0
  7 18  1  0  0  0  0
  8 19  1  0  0  0  0
  9 20  1  0  0  0  0
M  END
> <pdb_id>
4DON

> <uniprot_id>
O60885

> <usmiles>
O=C1N=C2C(=CN1C)C=CC=C2

$$$$
3PG_A_301
          07202412503D 1   1.00000     0.00000     0
            
 18 17  0  0  0  0            999 V2000
   -5.3330    6.4580   14.4690 P   0  0  0  0  0  0  0  0  0  0  0  0
   -4.5940    6.6590   15.7680 O   0  0  0  0  0  0  0  0  0  0  0  0
   -5.7250    5.0280   14.1930 O   0  0  0  0  0  0  0  0  0  0  0  0
   -4.7350    7.1750   13.2830 O   0  0  0  0  0  0  0  0  0  0  0  0
  -10.7370    8.0590   13.3780 O   0  0  0  0  0  0  0  0  0  0  0  0
   -9.5990    9.1720   11.8630 O   0  0  0  0  0  0  0  0  0  0  0  0
   -7.6090    9.6730   13.5240 O   0  0  0  0  0  0  0  0  0  0  0  0
   -6.7330    7.2120   14.7300 O   0  0  0  0  0  0  0  0  0  0  0  0
   -7.7400    7.2820   13.7220 C   0  0  0  0  0  0  0  0  0  0  0  0
   -9.6890    8.6110   12.9780 C   0  0  0  0  0  0  0  0  0  0  0  0
   -8.4870    8.5990   13.8780 C   0  0  2  0  0  0  0  0  0  0  0  0
   -4.3703    7.6275   15.8779 H   0  0  0  0  0  0  0  0  0  0  0  0
   -6.2080    4.9775   13.3188 H   0  0  0  0  0  0  0  0  0  0  0  0
  -10.7605    7.6232   14.2778 H   0  0  0  0  0  0  0  0  0  0  0  0
   -8.0906   10.5438   13.6232 H   0  0  0  0  0  0  0  0  0  0  0  0
   -8.3768    6.5182   13.8275 H   0  0  0  0  0  0  0  0  0  0  0  0
   -7.3157    7.2397   12.8175 H   0  0  0  0  0  0  0  0  0  0  0  0
   -8.7800    8.7064   14.8281 H   0  0  0  0  0  0  0  0  0  0  0  0
  1  2  1  0  0  0  0
  1  3  1  0  0  0  0
  1  4  2  0  0  0  0
  1  8  1  0  0  0  0
  5 10  1  0  0  0  0
  6 10  2  0  0  0  0
  7 11  1  0  0  0  0
  8  9  1  0  0  0  0
  9 11  1  0  0  0  0
 10 11  1  0  0  0  0
  2 12  1  0  0  0  0
  3 13  1  0  0  0  0
  5 14  1  0  0  0  0
  7 15  1  0  0  0  0
  9 16  1  0  0  0  0
  9 17  1  0  0  0  0
 11 18  1  0  0  0  0
M  END
> <pdb_id>
3FJG

> <uniprot_id>
Q0PBL7

> <usmiles>
P(=O)(OC[C@@H](O)C(=O)O)(O)O

$$$$
3PG_B_1001
          07202412473D 1   1.00000     0.00000     0
            
 18 17  0  0  0  0            999 V2000
   25.3760  -35.2870   65.6430 P   0  0  0  0  0  0  0  0  0  0  0  0
   26.5030  -35.6770   64.6980 O   0  0  0  0  0  0  0  0  0  0  0  0
   24.8630  -36.4160   66.5010 O   0  0  0  0  0  0  0  0  0  0  0  0
   25.6260  -34.0070   66.4190 O   0  0  0  0  0  0  0  0  0  0  0  0
   24.2700  -36.7970   60.7420 O   0  0  0  0  0  0  0  0  0  0  0  0
   23.0910  -37.8330   62.3230 O   0  0  0  0  0  0  0  0  0  0  0  0
   24.4790  -34.6480   62.4450 O   0  0  0  0  0  0  0  0  0  0  0  0
   24.1480  -34.9240   64.7170 O   0  0  0  0  0  0  0  0  0  0  0  0
   23.4180  -35.9540   64.0530 C   0  0  0  0  0  0  0  0  0  0  0  0
   23.6080  -36.8110   61.8170 C   0  0  0  0  0  0  0  0  0  0  0  0
   23.3950  -35.5570   62.6010 C   0  0  2  0  0  0  0  0  0  0  0  0
   26.7851  -34.8775   64.1677 H   0  0  0  0  0  0  0  0  0  0  0  0
   24.1283  -36.0797   67.0902 H   0  0  0  0  0  0  0  0  0  0  0  0
   24.6525  -35.9381   60.4015 H   0  0  0  0  0  0  0  0  0  0  0  0
   24.5226  -34.3413   61.4942 H   0  0  0  0  0  0  0  0  0  0  0  0
   22.4874  -36.0118   64.4145 H   0  0  0  0  0  0  0  0  0  0  0  0
   23.8753  -36.8360   64.1672 H   0  0  0  0  0  0  0  0  0  0  0  0
   22.5259  -35.1252   62.3598 H   0  0  0  0  0  0  0  0  0  0  0  0
  1  2  1  0  0  0  0
  1  3  1  0  0  0  0
  1  4  2  0  0  0  0
  1  8  1  0  0  0  0
  5 10  1  0  0  0  0
  6 10  2  0  0  0  0
  7 11  1  0  0  0  0
  8  9  1  0  0  0  0
  9 11  1  0  0  0  0
 10 11  1  0  0  0  0
  2 12  1  0  0  0  0
  3 13  1  0  0  0  0
  5 14  1  0  0  0  0
  7 15  1  0  0  0  0
  9 16  1  0  0  0  0
  9 17  1  0  0  0  0
 11 18  1  0  0  0  0
M  END
> <pdb_id>
3FDZ

> <uniprot_id>
Q3JWH7

> <usmiles>
P(=O)(OC[C@@H](O)C(=O)O)(O)O

$$$$
3PG_B_1249
          07192417343D 1   1.00000     0.00000     0
            
 18 17  0  0  0  0            999 V2000
   13.3945    2.2133   15.0753 P   0  0  0  0  0  0  0  0  0  0  0  0
   14.4608    1.8777   16.0894 O   0  0  0  0  0  0  0  0  0  0  0  0
   12.1035    1.4662   15.2889 O   0  0  0  0  0  0  0  0  0  0  0  0
   13.2322    3.6940   14.8234 O   0  0  0  0  0  0  0  0  0  0  0  0
   17.9924    1.7716   12.3597 O   0  0  0  0  0  0  0  0  0  0  0  0
   17.1723    1.5922   10.3437 O   0  0  0  0  0  0  0  0  0  0  0  0
   14.7998    0.7809   11.1077 O   0  0  0  0  0  0  0  0  0  0  0  0
   13.9463    1.6199   13.6805 O   0  0  0  0  0  0  0  0  0  0  0  0
   15.1600    2.0933   13.0951 C   0  0  0  0  0  0  0  0  0  0  0  0
   17.0522    1.4993   11.5839 C   0  0  0  0  0  0  0  0  0  0  0  0
   15.7399    1.0359   12.1587 C   0  0  2  0  0  0  0  0  0  0  0  0
   15.2870    2.4050   15.8912 H   0  0  0  0  0  0  0  0  0  0  0  0
   11.4436    1.7335   14.5867 H   0  0  0  0  0  0  0  0  0  0  0  0
   17.8655    1.6875   13.3480 H   0  0  0  0  0  0  0  0  0  0  0  0
   15.1713    0.0889   10.4888 H   0  0  0  0  0  0  0  0  0  0  0  0
   15.8207    2.2917   13.8190 H   0  0  0  0  0  0  0  0  0  0  0  0
   14.9734    2.9276   12.5763 H   0  0  0  0  0  0  0  0  0  0  0  0
   15.8897    0.1918   12.6736 H   0  0  0  0  0  0  0  0  0  0  0  0
  1  2  1  0  0  0  0
  1  3  1  0  0  0  0
  1  4  2  0  0  0  0
  1  8  1  0  0  0  0
  5 10  1  0  0  0  0
  6 10  2  0  0  0  0
  7 11  1  0  0  0  0
  8  9  1  0  0  0  0
  9 11  1  0  0  0  0
 10 11  1  0  0  0  0
  2 12  1  0  0  0  0
  3 13  1  0  0  0  0
  5 14  1  0  0  0  0
  7 15  1  0  0  0  0
  9 16  1  0  0  0  0
  9 17  1  0  0  0  0
 11 18  1  0  0  0  0
M  END
> <pdb_id>
2VFG

> <uniprot_id>
Q07412

> <usmiles>
P(=O)(OC[C@@H](O)C(=O)O)(O)O

$$$$
3PG_B_1250
          07192417343D 1   1.00000     0.00000     0
            
 18 17  0  0  0  0            999 V2000
   13.3220    2.2130   15.1890 P   0  0  0  0  0  0  0  0  0  0  0  0
   12.1690    1.2660   15.4110 O   0  0  0  0  0  0  0  0  0  0  0  0
   12.9140    3.6600   15.0490 O   0  0  0  0  0  0  0  0  0  0  0  0
   14.4780    1.9930   16.1370 O   0  0  0  0  0  0  0  0  0  0  0  0
   17.8470    1.8610   12.4600 O   0  0  0  0  0  0  0  0  0  0  0  0
   17.3060    1.1610   10.4720 O   0  0  0  0  0  0  0  0  0  0  0  0
   14.8300    0.5410   11.4570 O   0  0  0  0  0  0  0  0  0  0  0  0
   13.8760    1.8110   13.7270 O   0  0  0  0  0  0  0  0  0  0  0  0
   15.2690    1.8680   13.4190 C   0  0  0  0  0  0  0  0  0  0  0  0
   16.9850    1.5680   11.6060 C   0  0  0  0  0  0  0  0  0  0  0  0
   15.5170    1.7060   11.9220 C   0  0  1  0  0  0  0  0  0  0  0  0
   12.5161    0.3318   15.4937 H   0  0  0  0  0  0  0  0  0  0  0  0
   13.7276    4.2233   14.9052 H   0  0  0  0  0  0  0  0  0  0  0  0
   17.5660    2.1855   13.3632 H   0  0  0  0  0  0  0  0  0  0  0  0
   14.9889    0.4296   10.4760 H   0  0  0  0  0  0  0  0  0  0  0  0
   15.7403    1.1340   13.9079 H   0  0  0  0  0  0  0  0  0  0  0  0
   15.6314    2.7518   13.7148 H   0  0  0  0  0  0  0  0  0  0  0  0
   15.1564    2.5074   11.4448 H   0  0  0  0  0  0  0  0  0  0  0  0
  1  2  1  0  0  0  0
  1  3  1  0  0  0  0
  1  4  2  0  0  0  0
  1  8  1  0  0  0  0
  5 10  1  0  0  0  0
  6 10  2  0  0  0  0
  7 11  1  0  0  0  0
  8  9  1  0  0  0  0
  9 11  1  0  0  0  0
 10 11  1  0  0  0  0
  2 12  1  0  0  0  0
  3 13  1  0  0  0  0
  5 14  1  0  0  0  0
  7 15  1  0  0  0  0
  9 16  1  0  0  0  0
  9 17  1  0  0  0  0
 11 18  1  0  0  0  0
M  END
> <pdb_id>
2VFI

> <uniprot_id>
Q07412

> <usmiles>
P(=O)(OC[C@H](O)C(=O)O)(O)O

$$$$
3Q0_A_370
          07202403043D 1   1.00000     0.00000     0
            
 35 37  0  0  0  0            999 V2000
   77.0269   16.3888    9.8540 N   0  0  0  0  0  0  0  0  0  0  0  0
   85.7013   14.4440   13.2311 N   0  0  0  0  0  0  0  0  0  0  0  0
   83.9441   13.0366   12.3847 N   0  0  0  0  0  0  0  0  0  0  0  0
   82.6841   13.3099   11.9972 N   0  0  0  0  0  0  0  0  0  0  0  0
   78.0539   20.4405   12.0211 N   0  0  0  0  0  0  0  0  0  0  0  0
   77.5484   18.4102   10.9416 N   0  0  0  0  0  0  0  0  0  0  0  0
   79.0806   16.6063   10.9316 N   0  0  0  0  0  0  0  0  0  0  0  0
   78.9637   20.9276   14.2098 C   0  0  0  0  0  0  0  0  0  0  0  0
   79.1545   21.0804   12.7208 C   0  0  0  0  0  0  0  0  0  0  0  0
   82.2581   17.2745   12.5028 C   0  0  0  0  0  0  0  0  0  0  0  0
   83.4363   16.6311   12.8037 C   0  0  0  0  0  0  0  0  0  0  0  0
   79.6428   18.6280   12.0437 C   0  0  0  0  0  0  0  0  0  0  0  0
   81.1765   15.2718   11.7855 C   0  0  0  0  0  0  0  0  0  0  0  0
   77.9109   17.1651   10.6058 C   0  0  0  0  0  0  0  0  0  0  0  0
   78.4165   19.1357   11.6575 C   0  0  0  0  0  0  0  0  0  0  0  0
   84.4432   14.2233   12.7556 C   0  0  0  0  0  0  0  0  0  0  0  0
   82.3495   14.6312   12.0993 C   0  0  0  0  0  0  0  0  0  0  0  0
   79.9346   17.3386   11.6514 C   0  0  0  0  0  0  0  0  0  0  0  0
   81.1501   16.6332   11.9950 C   0  0  0  0  0  0  0  0  0  0  0  0
   83.4759   15.2590   12.5902 C   0  0  0  0  0  0  0  0  0  0  0  0
   77.2780   15.4568    9.5927 H   0  0  0  0  0  0  0  0  0  0  0  0
   76.1427   16.7648    9.5769 H   0  0  0  0  0  0  0  0  0  0  0  0
   85.9853   15.3690   13.4836 H   0  0  0  0  0  0  0  0  0  0  0  0
   86.3405   13.6810   13.3276 H   0  0  0  0  0  0  0  0  0  0  0  0
   82.0511   12.6105   11.6653 H   0  0  0  0  0  0  0  0  0  0  0  0
   77.1702   20.8666   11.8277 H   0  0  0  0  0  0  0  0  0  0  0  0
   79.7219   21.3686   14.6900 H   0  0  0  0  0  0  0  0  0  0  0  0
   78.1024   21.3571   14.4813 H   0  0  0  0  0  0  0  0  0  0  0  0
   78.9402   19.9559   14.4449 H   0  0  0  0  0  0  0  0  0  0  0  0
   79.1781   22.0522   12.4862 H   0  0  0  0  0  0  0  0  0  0  0  0
   80.0160   20.6510   12.4498 H   0  0  0  0  0  0  0  0  0  0  0  0
   82.2032   18.2603   12.6613 H   0  0  0  0  0  0  0  0  0  0  0  0
   84.2277   17.1282   13.1595 H   0  0  0  0  0  0  0  0  0  0  0  0
   80.2880   19.1701   12.5821 H   0  0  0  0  0  0  0  0  0  0  0  0
   80.3853   14.7778   11.4250 H   0  0  0  0  0  0  0  0  0  0  0  0
  1 14  1  0  0  0  0
  2 16  1  0  0  0  0
  3  4  1  0  0  0  0
  3 16  2  0  0  0  0
  4 17  1  0  0  0  0
  5  9  1  0  0  0  0
  5 15  1  0  0  0  0
  6 14  2  0  0  0  0
  6 15  1  0  0  0  0
  7 14  1  0  0  0  0
  7 18  2  0  0  0  0
  8  9  1  0  0  0  0
 10 11  1  0  0  0  0
 10 19  2  0  0  0  0
 11 20  2  0  0  0  0
 12 15  2  0  0  0  0
 12 18  1  0  0  0  0
 13 17  2  0  0  0  0
 13 19  1  0  0  0  0
 16 20  1  0  0  0  0
 17 20  1  0  0  0  0
 18 19  1  0  0  0  0
  1 21  1  0  0  0  0
  1 22  1  0  0  0  0
  2 23  1  0  0  0  0
  2 24  1  0  0  0  0
  4 25  1  0  0  0  0
  5 26  1  0  0  0  0
  8 27  1  0  0  0  0
  8 28  1  0  0  0  0
  8 29  1  0  0  0  0
  9 30  1  0  0  0  0
  9 31  1  0  0  0  0
 10 32  1  0  0  0  0
 11 33  1  0  0  0  0
 12 34  1  0  0  0  0
 13 35  1  0  0  0  0
M  END
> <pdb_id>
3QCQ

> <uniprot_id>
O15530

> <usmiles>
n1c(nc(c2cc3NN=C(N)c3cc2)cc1NCC)N

$$$$
3QA_C_301
          07212402473D 1   1.00000     0.00000     0
            
 53 55  0  0  0  0            999 V2000
  -34.7561  -36.3844  -58.5456 S   0  0  0  0  0  0  0  0  0  0  0  0
  -32.9414  -36.9644  -64.9908 O   0  0  0  0  0  0  0  0  0  0  0  0
  -29.7173  -36.9484  -55.8279 O   0  0  0  0  0  0  0  0  0  0  0  0
  -33.4323  -36.8749  -62.2099 O   0  0  0  0  0  0  0  0  0  0  0  0
  -33.0546  -28.1940  -55.2974 N   0  0  0  0  0  0  0  0  0  0  0  0
  -32.9383  -29.9853  -53.7213 N   0  0  0  0  0  0  0  0  0  0  0  0
  -31.3452  -31.7496  -53.8633 N   0  0  0  0  0  0  0  0  0  0  0  0
  -30.6986  -29.6752  -56.6735 N   0  0  0  0  0  0  0  0  0  0  0  0
  -29.4028  -34.1171  -56.1190 N   0  0  0  0  0  0  0  0  0  0  0  0
  -34.4959  -35.9866  -60.2468 C   0  0  0  0  0  0  0  0  0  0  0  0
  -33.1703  -36.5669  -57.7765 C   0  0  0  0  0  0  0  0  0  0  0  0
  -32.0174  -37.5501  -64.0766 C   0  0  0  0  0  0  0  0  0  0  0  0
  -34.1078  -37.2429  -61.0079 C   0  0  0  0  0  0  0  0  0  0  0  0
  -32.7128  -37.9687  -62.7872 C   0  0  0  0  0  0  0  0  0  0  0  0
  -32.3690  -31.1175  -53.2637 C   0  0  0  0  0  0  0  0  0  0  0  0
  -29.7471  -30.6301  -56.8764 C   0  0  0  0  0  0  0  0  0  0  0  0
  -30.2799  -34.7337  -55.1023 C   0  0  0  0  0  0  0  0  0  0  0  0
  -30.1395  -34.2194  -57.3927 C   0  0  0  0  0  0  0  0  0  0  0  0
  -28.8797  -32.7928  -55.7545 C   0  0  0  0  0  0  0  0  0  0  0  0
  -32.4607  -35.2324  -57.5954 C   0  0  0  0  0  0  0  0  0  0  0  0
  -30.7587  -35.9699  -55.8289 C   0  0  1  0  0  0  0  0  0  0  0  0
  -32.5022  -29.3335  -54.8278 C   0  0  0  0  0  0  0  0  0  0  0  0
  -31.3915  -29.9519  -55.5569 C   0  0  0  0  0  0  0  0  0  0  0  0
  -30.8486  -31.1712  -54.9845 C   0  0  0  0  0  0  0  0  0  0  0  0
  -30.9960  -35.4811  -57.2534 C   0  0  2  0  0  0  0  0  0  0  0  0
  -29.7837  -31.6041  -55.8903 C   0  0  0  0  0  0  0  0  0  0  0  0
  -32.4606  -36.6992  -65.8266 H   0  0  0  0  0  0  0  0  0  0  0  0
  -30.0298  -37.7683  -56.3077 H   0  0  0  0  0  0  0  0  0  0  0  0
  -32.6857  -27.7616  -56.1201 H   0  0  0  0  0  0  0  0  0  0  0  0
  -33.8325  -27.7827  -54.8223 H   0  0  0  0  0  0  0  0  0  0  0  0
  -30.8570  -28.8864  -57.2674 H   0  0  0  0  0  0  0  0  0  0  0  0
  -33.7625  -35.3111  -60.3226 H   0  0  0  0  0  0  0  0  0  0  0  0
  -35.3376  -35.6096  -60.6333 H   0  0  0  0  0  0  0  0  0  0  0  0
  -32.6017  -37.1588  -58.3479 H   0  0  0  0  0  0  0  0  0  0  0  0
  -33.2947  -36.9898  -56.8789 H   0  0  0  0  0  0  0  0  0  0  0  0
  -31.3038  -36.8835  -63.8613 H   0  0  0  0  0  0  0  0  0  0  0  0
  -31.6040  -38.3557  -64.5011 H   0  0  0  0  0  0  0  0  0  0  0  0
  -33.5023  -37.8027  -60.4422 H   0  0  0  0  0  0  0  0  0  0  0  0
  -34.9304  -37.7649  -61.2332 H   0  0  0  0  0  0  0  0  0  0  0  0
  -33.3525  -38.7107  -62.9874 H   0  0  0  0  0  0  0  0  0  0  0  0
  -32.0256  -38.2880  -62.1346 H   0  0  0  0  0  0  0  0  0  0  0  0
  -32.7328  -31.5146  -52.4211 H   0  0  0  0  0  0  0  0  0  0  0  0
  -29.1029  -30.6284  -57.6413 H   0  0  0  0  0  0  0  0  0  0  0  0
  -31.0421  -34.1319  -54.8636 H   0  0  0  0  0  0  0  0  0  0  0  0
  -29.7704  -34.9703  -54.2750 H   0  0  0  0  0  0  0  0  0  0  0  0
  -29.5045  -34.3084  -58.1601 H   0  0  0  0  0  0  0  0  0  0  0  0
  -30.7178  -33.4152  -57.5301 H   0  0  0  0  0  0  0  0  0  0  0  0
  -28.0799  -32.6227  -56.3301 H   0  0  0  0  0  0  0  0  0  0  0  0
  -28.5968  -32.8406  -54.7965 H   0  0  0  0  0  0  0  0  0  0  0  0
  -32.8947  -34.7217  -56.8532 H   0  0  0  0  0  0  0  0  0  0  0  0
  -32.5207  -34.7048  -58.4427 H   0  0  0  0  0  0  0  0  0  0  0  0
  -31.5982  -36.3301  -55.4221 H   0  0  0  0  0  0  0  0  0  0  0  0
  -30.6407  -36.1712  -57.8839 H   0  0  0  0  0  0  0  0  0  0  0  0
  1 10  1  0  0  0  0
  1 11  1  0  0  0  0
  2 12  1  0  0  0  0
  3 21  1  0  0  0  0
  4 13  1  0  0  0  0
  4 14  1  0  0  0  0
  5 22  1  0  0  0  0
  6 15  1  0  0  0  0
  6 22  2  0  0  0  0
  7 15  2  0  0  0  0
  7 24  1  0  0  0  0
  8 16  1  0  0  0  0
  8 23  1  0  0  0  0
  9 17  1  0  0  0  0
  9 18  1  0  0  0  0
  9 19  1  0  0  0  0
 10 13  1  0  0  0  0
 11 20  1  0  0  0  0
 12 14  1  0  0  0  0
 16 26  2  0  0  0  0
 17 21  1  0  0  0  0
 18 25  1  0  0  0  0
 19 26  1  0  0  0  0
 20 25  1  0  0  0  0
 21 25  1  0  0  0  0
 22 23  1  0  0  0  0
 23 24  2  0  0  0  0
 24 26  1  0  0  0  0
  2 27  1  0  0  0  0
  3 28  1  0  0  0  0
  5 29  1  0  0  0  0
  5 30  1  0  0  0  0
  8 31  1  0  0  0  0
 10 32  1  0  0  0  0
 10 33  1  0  0  0  0
 11 34  1  0  0  0  0
 11 35  1  0  0  0  0
 12 36  1  0  0  0  0
 12 37  1  0  0  0  0
 13 38  1  0  0  0  0
 13 39  1  0  0  0  0
 14 40  1  0  0  0  0
 14 41  1  0  0  0  0
 15 42  1  0  0  0  0
 16 43  1  0  0  0  0
 17 44  1  0  0  0  0
 17 45  1  0  0  0  0
 18 46  1  0  0  0  0
 18 47  1  0  0  0  0
 19 48  1  0  0  0  0
 19 49  1  0  0  0  0
 20 50  1  0  0  0  0
 20 51  1  0  0  0  0
 21 52  1  0  0  0  0
 25 53  1  0  0  0  0
M  END
> <pdb_id>
4WKP

> <uniprot_id>
Q9ZMY2

> <usmiles>
S(CCOCCO)CC[C@@H]1[C@@H](O)CN(CC=2c3ncnc(N)c3NC2)C1

$$$$
3QC_A_370
          07202413333D 1   1.00000     0.00000     0
            
 48 50  0  0  0  0            999 V2000
   42.6601   -8.1599   21.4341 O   0  0  0  0  0  0  0  0  0  0  0  0
   39.7401  -10.5288   16.1890 O   0  0  0  0  0  0  0  0  0  0  0  0
   43.4990   -6.1266   20.9686 N   0  0  0  0  0  0  0  0  0  0  0  0
   41.1622   -6.5419   21.0397 N   0  0  0  0  0  0  0  0  0  0  0  0
   43.5254   -4.8552   20.2229 C   0  0  0  0  0  0  0  0  0  0  0  0
   44.7505   -6.5662   21.5804 C   0  0  0  0  0  0  0  0  0  0  0  0
   37.8508   -1.3136   20.4162 C   0  0  0  0  0  0  0  0  0  0  0  0
   39.9199   -2.5890   21.9745 C   0  0  0  0  0  0  0  0  0  0  0  0
   40.0373   -7.4164   20.7421 C   0  0  0  0  0  0  0  0  0  0  0  0
   40.7051   -5.2416   21.4600 C   0  0  0  0  0  0  0  0  0  0  0  0
   40.8706   -6.9593   15.8386 C   0  0  0  0  0  0  0  0  0  0  0  0
   40.5858   -8.3316   15.5575 C   0  0  0  0  0  0  0  0  0  0  0  0
   40.5165   -6.4888   17.1543 C   0  0  0  0  0  0  0  0  0  0  0  0
   37.5680   -3.4332   19.0528 C   0  0  0  0  0  0  0  0  0  0  0  0
   37.8976   -4.8057   18.8279 C   0  0  0  0  0  0  0  0  0  0  0  0
   39.5942   -8.7290   17.8588 C   0  0  0  0  0  0  0  0  0  0  0  0
   42.4478   -6.9822   21.1568 C   0  0  0  0  0  0  0  0  0  0  0  0
   39.9722   -9.2136   16.5391 C   0  0  0  0  0  0  0  0  0  0  0  0
   38.2315   -2.7132   20.1054 C   0  0  0  0  0  0  0  0  0  0  0  0
   39.8700   -7.3400   18.1478 C   0  0  0  0  0  0  0  0  0  0  0  0
   39.2397   -3.3223   20.9099 C   0  0  0  0  0  0  0  0  0  0  0  0
   39.4671   -6.7881   19.4693 C   0  0  2  0  0  0  0  0  0  0  0  0
   39.5859   -4.6693   20.6667 C   0  0  0  0  0  0  0  0  0  0  0  0
   38.9076   -5.4119   19.6587 C   0  0  0  0  0  0  0  0  0  0  0  0
   39.3196  -11.1544   16.8461 H   0  0  0  0  0  0  0  0  0  0  0  0
   42.6151   -4.6656   19.8550 H   0  0  0  0  0  0  0  0  0  0  0  0
   43.7978   -4.1143   20.8368 H   0  0  0  0  0  0  0  0  0  0  0  0
   44.1812   -4.9232   19.4711 H   0  0  0  0  0  0  0  0  0  0  0  0
   44.6031   -7.4348   22.0535 H   0  0  0  0  0  0  0  0  0  0  0  0
   45.4442   -6.6869   20.8704 H   0  0  0  0  0  0  0  0  0  0  0  0
   45.0608   -5.8779   22.2361 H   0  0  0  0  0  0  0  0  0  0  0  0
   38.4128   -0.9750   21.1708 H   0  0  0  0  0  0  0  0  0  0  0  0
   37.9967   -0.7414   19.6091 H   0  0  0  0  0  0  0  0  0  0  0  0
   36.8863   -1.2808   20.6781 H   0  0  0  0  0  0  0  0  0  0  0  0
   40.5871   -3.1876   22.4178 H   0  0  0  0  0  0  0  0  0  0  0  0
   40.3896   -1.7964   21.5858 H   0  0  0  0  0  0  0  0  0  0  0  0
   39.2486   -2.2812   22.6487 H   0  0  0  0  0  0  0  0  0  0  0  0
   39.3656   -7.4079   21.4829 H   0  0  0  0  0  0  0  0  0  0  0  0
   40.3412   -8.3549   20.5784 H   0  0  0  0  0  0  0  0  0  0  0  0
   41.4781   -4.6099   21.4025 H   0  0  0  0  0  0  0  0  0  0  0  0
   40.4034   -5.3136   22.4107 H   0  0  0  0  0  0  0  0  0  0  0  0
   41.2925   -6.3585   15.1596 H   0  0  0  0  0  0  0  0  0  0  0  0
   40.8160   -8.6980   14.6560 H   0  0  0  0  0  0  0  0  0  0  0  0
   40.7223   -5.5405   17.3962 H   0  0  0  0  0  0  0  0  0  0  0  0
   36.8828   -2.9785   18.4838 H   0  0  0  0  0  0  0  0  0  0  0  0
   37.4390   -5.3322   18.1121 H   0  0  0  0  0  0  0  0  0  0  0  0
   39.1641   -9.3289   18.5335 H   0  0  0  0  0  0  0  0  0  0  0  0
   38.5866   -7.2604   19.5105 H   0  0  0  0  0  0  0  0  0  0  0  0
  1 17  2  0  0  0  0
  2 18  1  0  0  0  0
  3  5  1  0  0  0  0
  3  6  1  0  0  0  0
  3 17  1  0  0  0  0
  4  9  1  0  0  0  0
  4 10  1  0  0  0  0
  4 17  1  0  0  0  0
  7 19  1  0  0  0  0
  8 21  1  0  0  0  0
  9 22  1  0  0  0  0
 10 23  1  0  0  0  0
 11 12  1  0  0  0  0
 11 13  2  0  0  0  0
 12 18  2  0  0  0  0
 13 20  1  0  0  0  0
 14 15  1  0  0  0  0
 14 19  2  0  0  0  0
 15 24  2  0  0  0  0
 16 18  1  0  0  0  0
 16 20  2  0  0  0  0
 19 21  1  0  0  0  0
 20 22  1  0  0  0  0
 21 23  2  0  0  0  0
 22 24  1  0  0  0  0
 23 24  1  0  0  0  0
  2 25  1  0  0  0  0
  5 26  1  0  0  0  0
  5 27  1  0  0  0  0
  5 28  1  0  0  0  0
  6 29  1  0  0  0  0
  6 30  1  0  0  0  0
  6 31  1  0  0  0  0
  7 32  1  0  0  0  0
  7 33  1  0  0  0  0
  7 34  1  0  0  0  0
  8 35  1  0  0  0  0
  8 36  1  0  0  0  0
  8 37  1  0  0  0  0
  9 38  1  0  0  0  0
  9 39  1  0  0  0  0
 10 40  1  0  0  0  0
 10 41  1  0  0  0  0
 11 42  1  0  0  0  0
 12 43  1  0  0  0  0
 13 44  1  0  0  0  0
 14 45  1  0  0  0  0
 15 46  1  0  0  0  0
 16 47  1  0  0  0  0
 22 48  1  0  0  0  0
M  END
> <pdb_id>
2FME

> <uniprot_id>
P52732

> <usmiles>
O=C(N1Cc2c(c(ccc2[C@@H](c3cc(O)ccc3)C1)C)C)N(C)C

$$$$
3QT_A_1
          07202415303D 1   1.00000     0.00000     0
            
 42 46  0  0  0  0            999 V2000
   -6.7410  -13.4349   15.8809 N   0  0  0  0  0  0  0  0  0  0  0  0
   -3.1961  -13.8511   18.0887 N   0  0  0  0  0  0  0  0  0  0  0  0
   -0.9597  -14.1513   20.8620 N   0  0  0  0  0  0  0  0  0  0  0  0
   -0.7364  -18.5691   14.1541 N   0  0  0  0  0  0  0  0  0  0  0  0
   -7.5665  -13.6246   16.9348 N   0  0  0  0  0  0  0  0  0  0  0  0
   -2.1424  -13.9326   18.9554 N   0  0  0  0  0  0  0  0  0  0  0  0
   -8.9976  -13.5502   16.7401 C   0  0  0  0  0  0  0  0  0  0  0  0
   -1.6943  -18.6727   13.1992 C   0  0  0  0  0  0  0  0  0  0  0  0
   -5.5158  -13.5082   16.3801 C   0  0  0  0  0  0  0  0  0  0  0  0
   -0.1079  -14.0177   19.7719 C   0  0  0  0  0  0  0  0  0  0  0  0
   -6.8724  -13.8345   18.1030 C   0  0  0  0  0  0  0  0  0  0  0  0
   -2.6181  -17.6395   12.9056 C   0  0  0  0  0  0  0  0  0  0  0  0
   -3.4778  -14.1835   20.9301 C   0  0  0  0  0  0  0  0  0  0  0  0
   -4.5698  -14.1014   20.0986 C   0  0  0  0  0  0  0  0  0  0  0  0
    0.2997  -17.3069   15.9179 C   0  0  0  0  0  0  0  0  0  0  0  0
    0.4192  -16.1118   16.6681 C   0  0  0  0  0  0  0  0  0  0  0  0
   -2.5257  -16.4280   13.6335 C   0  0  0  0  0  0  0  0  0  0  0  0
   -0.3191  -13.7153   17.2002 C   0  0  0  0  0  0  0  0  0  0  0  0
   -1.4320  -15.1123   15.3970 C   0  0  0  0  0  0  0  0  0  0  0  0
   -2.1831  -14.1042   20.3581 C   0  0  0  0  0  0  0  0  0  0  0  0
   -0.8082  -13.8725   18.6055 C   0  0  0  0  0  0  0  0  0  0  0  0
   -4.4001  -13.9375   18.6840 C   0  0  0  0  0  0  0  0  0  0  0  0
   -0.6510  -17.4147   14.8728 C   0  0  0  0  0  0  0  0  0  0  0  0
   -0.4455  -15.0140   16.4161 C   0  0  0  0  0  0  0  0  0  0  0  0
   -5.5451  -13.8033   17.7726 C   0  0  0  0  0  0  0  0  0  0  0  0
   -1.5274  -16.3008   14.6250 C   0  0  0  0  0  0  0  0  0  0  0  0
   -9.4614  -13.7124   17.6111 H   0  0  0  0  0  0  0  0  0  0  0  0
   -9.2406  -12.6428   16.3971 H   0  0  0  0  0  0  0  0  0  0  0  0
   -9.2805  -14.2437   16.0776 H   0  0  0  0  0  0  0  0  0  0  0  0
   -1.7513  -19.5225   12.6752 H   0  0  0  0  0  0  0  0  0  0  0  0
   -4.6797  -13.3738   15.8482 H   0  0  0  0  0  0  0  0  0  0  0  0
    0.8902  -14.0265   19.8324 H   0  0  0  0  0  0  0  0  0  0  0  0
   -7.2605  -13.9808   19.0130 H   0  0  0  0  0  0  0  0  0  0  0  0
   -3.3180  -17.7624   12.2020 H   0  0  0  0  0  0  0  0  0  0  0  0
   -3.5943  -14.2966   21.9168 H   0  0  0  0  0  0  0  0  0  0  0  0
   -5.4909  -14.1566   20.4838 H   0  0  0  0  0  0  0  0  0  0  0  0
    0.8933  -18.0837   16.1282 H   0  0  0  0  0  0  0  0  0  0  0  0
    1.1174  -16.0406   17.3805 H   0  0  0  0  0  0  0  0  0  0  0  0
   -3.1569  -15.6748   13.4485 H   0  0  0  0  0  0  0  0  0  0  0  0
    0.6420  -13.4399   17.2196 H   0  0  0  0  0  0  0  0  0  0  0  0
   -0.8596  -13.0075   16.7454 H   0  0  0  0  0  0  0  0  0  0  0  0
   -2.0550  -14.3493   15.2248 H   0  0  0  0  0  0  0  0  0  0  0  0
  1  5  1  0  0  0  0
  1  9  2  0  0  0  0
  2  6  1  0  0  0  0
  2 22  2  0  0  0  0
  3 10  1  0  0  0  0
  3 20  2  0  0  0  0
  4  8  2  0  0  0  0
  4 23  1  0  0  0  0
  5  7  1  0  0  0  0
  5 11  1  0  0  0  0
  6 20  1  0  0  0  0
  6 21  1  0  0  0  0
  8 12  1  0  0  0  0
  9 25  1  0  0  0  0
 10 21  2  0  0  0  0
 11 25  2  0  0  0  0
 12 17  2  0  0  0  0
 13 14  2  0  0  0  0
 13 20  1  0  0  0  0
 14 22  1  0  0  0  0
 15 16  1  0  0  0  0
 15 23  2  0  0  0  0
 16 24  2  0  0  0  0
 17 26  1  0  0  0  0
 18 21  1  0  0  0  0
 18 24  1  0  0  0  0
 19 24  1  0  0  0  0
 19 26  2  0  0  0  0
 22 25  1  0  0  0  0
 23 26  1  0  0  0  0
  7 27  1  0  0  0  0
  7 28  1  0  0  0  0
  7 29  1  0  0  0  0
  8 30  1  0  0  0  0
  9 31  1  0  0  0  0
 10 32  1  0  0  0  0
 11 33  1  0  0  0  0
 12 34  1  0  0  0  0
 13 35  1  0  0  0  0
 14 36  1  0  0  0  0
 15 37  1  0  0  0  0
 16 38  1  0  0  0  0
 17 39  1  0  0  0  0
 18 40  1  0  0  0  0
 18 41  1  0  0  0  0
 19 42  1  0  0  0  0
M  END
> <pdb_id>
3QTI

> <uniprot_id>
P08581

> <usmiles>
n1c2c(cc(cc2)CC=3N4N=C(C=5C=NN(C5)C)C=CC4=NC3)ccc1

$$$$
3R7_A_402
          07202413553D 1   1.00000     0.00000     0
            
 34 35  0  0  0  0            999 V2000
    6.5548    3.5769   98.9267 S   0  0  0  0  0  0  0  0  0  0  0  0
    7.2825    4.6793   98.3208 O   0  0  0  0  0  0  0  0  0  0  0  0
    5.1807    4.0406   99.0727 O   0  0  0  0  0  0  0  0  0  0  0  0
    7.6294   -1.6339   99.1445 O   0  0  0  0  0  0  0  0  0  0  0  0
    6.1877    0.0165   99.1012 O   0  0  0  0  0  0  0  0  0  0  0  0
    6.7111    2.1808   97.9454 N   0  0  0  0  0  0  0  0  0  0  0  0
   11.1194    4.0183   95.7907 C   0  0  0  0  0  0  0  0  0  0  0  0
   11.3704    2.7820   96.1844 C   0  0  0  0  0  0  0  0  0  0  0  0
    8.5026    2.8466  102.9809 C   0  0  0  0  0  0  0  0  0  0  0  0
    7.1755    2.4884  102.7841 C   0  0  0  0  0  0  0  0  0  0  0  0
    9.2324    3.4234  101.9628 C   0  0  0  0  0  0  0  0  0  0  0  0
    6.5706    2.7055  101.5559 C   0  0  0  0  0  0  0  0  0  0  0  0
    8.6324    3.6494  100.7395 C   0  0  0  0  0  0  0  0  0  0  0  0
   10.6170    0.6592   97.3105 C   0  0  0  0  0  0  0  0  0  0  0  0
    9.6544   -0.1163   97.9410 C   0  0  0  0  0  0  0  0  0  0  0  0
    9.0151    2.4497   97.0852 C   0  0  0  0  0  0  0  0  0  0  0  0
    7.3292   -0.4536   98.8360 C   0  0  0  0  0  0  0  0  0  0  0  0
    7.3142    3.2804  100.5427 C   0  0  0  0  0  0  0  0  0  0  0  0
    8.0545    1.6731   97.7185 C   0  0  0  0  0  0  0  0  0  0  0  0
   10.2976    1.9422   96.8799 C   0  0  0  0  0  0  0  0  0  0  0  0
    8.3797    0.3966   98.1459 C   0  0  0  0  0  0  0  0  0  0  0  0
    8.5377   -1.9917   98.9276 H   0  0  0  0  0  0  0  0  0  0  0  0
    5.9111    1.7336   97.5452 H   0  0  0  0  0  0  0  0  0  0  0  0
   11.8325    4.5532   95.3375 H   0  0  0  0  0  0  0  0  0  0  0  0
   10.2164    4.4188   95.9459 H   0  0  0  0  0  0  0  0  0  0  0  0
   12.2762    2.3892   96.0252 H   0  0  0  0  0  0  0  0  0  0  0  0
    8.9330    2.6849  103.8689 H   0  0  0  0  0  0  0  0  0  0  0  0
    6.6551    2.0728  103.5301 H   0  0  0  0  0  0  0  0  0  0  0  0
   10.1888    3.6760  102.1092 H   0  0  0  0  0  0  0  0  0  0  0  0
    5.6152    2.4511  101.4060 H   0  0  0  0  0  0  0  0  0  0  0  0
    9.1494    4.0784   99.9987 H   0  0  0  0  0  0  0  0  0  0  0  0
   11.5377    0.2965   97.1663 H   0  0  0  0  0  0  0  0  0  0  0  0
    9.8776   -1.0417   98.2470 H   0  0  0  0  0  0  0  0  0  0  0  0
    8.7874    3.3731   96.7762 H   0  0  0  0  0  0  0  0  0  0  0  0
  1  2  2  0  0  0  0
  1  3  2  0  0  0  0
  1  6  1  0  0  0  0
  1 18  1  0  0  0  0
  4 17  1  0  0  0  0
  5 17  2  0  0  0  0
  6 19  1  0  0  0  0
  7  8  2  0  0  0  0
  8 20  1  0  0  0  0
  9 10  2  0  0  0  0
  9 11  1  0  0  0  0
 10 12  1  0  0  0  0
 11 13  2  0  0  0  0
 12 18  2  0  0  0  0
 13 18  1  0  0  0  0
 14 15  1  0  0  0  0
 14 20  2  0  0  0  0
 15 21  2  0  0  0  0
 16 19  2  0  0  0  0
 16 20  1  0  0  0  0
 17 21  1  0  0  0  0
 19 21  1  0  0  0  0
  4 22  1  0  0  0  0
  6 23  1  0  0  0  0
  7 24  1  0  0  0  0
  7 25  1  0  0  0  0
  8 26  1  0  0  0  0
  9 27  1  0  0  0  0
 10 28  1  0  0  0  0
 11 29  1  0  0  0  0
 12 30  1  0  0  0  0
 13 31  1  0  0  0  0
 14 32  1  0  0  0  0
 15 33  1  0  0  0  0
 16 34  1  0  0  0  0
M  END
> <pdb_id>
4WMX

> <uniprot_id>
P0AEX9

> <usmiles>
S(=O)(=O)(Nc1c(ccc(c1)C=C)C(=O)O)c2ccccc2

$$$$
3RA_B_2
          07202416103D 1   1.00000     0.00000     0
            
 36 39  0  0  0  0            999 V2000
   37.0799   25.5035   18.6866 O   0  0  0  0  0  0  0  0  0  0  0  0
   36.9726   30.9506   12.1606 O   0  0  0  0  0  0  0  0  0  0  0  0
   36.9635   31.9079   14.2284 O   0  0  0  0  0  0  0  0  0  0  0  0
   36.6299   27.3231   19.8978 N   0  0  0  0  0  0  0  0  0  0  0  0
   36.2570   29.4880   20.6480 N   0  0  0  0  0  0  0  0  0  0  0  0
   36.6875   28.9062   18.3719 N   0  0  0  0  0  0  0  0  0  0  0  0
   36.6643   32.1523   12.8219 C   0  0  0  0  0  0  0  0  0  0  0  0
   36.2530   33.6063   20.6517 C   0  0  0  0  0  0  0  0  0  0  0  0
   35.6121   32.9104   21.6723 C   0  0  0  0  0  0  0  0  0  0  0  0
   36.9277   32.9091   19.6449 C   0  0  0  0  0  0  0  0  0  0  0  0
   35.6488   31.5149   21.6245 C   0  0  0  0  0  0  0  0  0  0  0  0
   36.9785   31.5106   19.6089 C   0  0  0  0  0  0  0  0  0  0  0  0
   37.0742   28.6024   12.9546 C   0  0  0  0  0  0  0  0  0  0  0  0
   37.1493   27.7925   14.0808 C   0  0  0  0  0  0  0  0  0  0  0  0
   37.0594   29.7299   15.4646 C   0  0  0  0  0  0  0  0  0  0  0  0
   37.1828   27.4565   16.4250 C   0  0  0  0  0  0  0  0  0  0  0  0
   36.9069   26.7397   18.7637 C   0  0  0  0  0  0  0  0  0  0  0  0
   36.5015   28.6363   19.6579 C   0  0  0  0  0  0  0  0  0  0  0  0
   37.0172   29.9746   13.0920 C   0  0  0  0  0  0  0  0  0  0  0  0
   37.0240   30.5505   14.3537 C   0  0  0  0  0  0  0  0  0  0  0  0
   36.3232   30.8071   20.6114 C   0  0  0  0  0  0  0  0  0  0  0  0
   37.1132   28.3462   15.3435 C   0  0  0  0  0  0  0  0  0  0  0  0
   36.9370   27.7540   17.7613 C   0  0  0  0  0  0  0  0  0  0  0  0
   36.5311   26.8725   20.7850 H   0  0  0  0  0  0  0  0  0  0  0  0
   35.9919   29.0833   21.5231 H   0  0  0  0  0  0  0  0  0  0  0  0
   35.6974   32.3784   12.7040 H   0  0  0  0  0  0  0  0  0  0  0  0
   37.2269   32.9001   12.4693 H   0  0  0  0  0  0  0  0  0  0  0  0
   36.2309   34.6059   20.6384 H   0  0  0  0  0  0  0  0  0  0  0  0
   35.1426   33.3916   22.4126 H   0  0  0  0  0  0  0  0  0  0  0  0
   37.3901   33.4274   18.9255 H   0  0  0  0  0  0  0  0  0  0  0  0
   35.1771   30.9977   22.3387 H   0  0  0  0  0  0  0  0  0  0  0  0
   37.4721   31.0321   18.8827 H   0  0  0  0  0  0  0  0  0  0  0  0
   37.0615   28.1908   12.0433 H   0  0  0  0  0  0  0  0  0  0  0  0
   37.2300   26.8013   13.9752 H   0  0  0  0  0  0  0  0  0  0  0  0
   37.0462   30.1406   16.3763 H   0  0  0  0  0  0  0  0  0  0  0  0
   37.4350   26.5120   16.2141 H   0  0  0  0  0  0  0  0  0  0  0  0
  1 17  2  0  0  0  0
  2  7  1  0  0  0  0
  2 19  1  0  0  0  0
  3  7  1  0  0  0  0
  3 20  1  0  0  0  0
  4 17  1  0  0  0  0
  4 18  1  0  0  0  0
  5 18  1  0  0  0  0
  5 21  1  0  0  0  0
  6 18  2  0  0  0  0
  6 23  1  0  0  0  0
  8  9  2  0  0  0  0
  8 10  1  0  0  0  0
  9 11  1  0  0  0  0
 10 12  2  0  0  0  0
 11 21  2  0  0  0  0
 12 21  1  0  0  0  0
 13 14  1  0  0  0  0
 13 19  2  0  0  0  0
 14 22  2  0  0  0  0
 15 20  2  0  0  0  0
 15 22  1  0  0  0  0
 16 22  1  0  0  0  0
 16 23  2  0  0  0  0
 17 23  1  0  0  0  0
 19 20  1  0  0  0  0
  4 24  1  0  0  0  0
  5 25  1  0  0  0  0
  7 26  1  0  0  0  0
  7 27  1  0  0  0  0
  8 28  1  0  0  0  0
  9 29  1  0  0  0  0
 10 30  1  0  0  0  0
 11 31  1  0  0  0  0
 12 32  1  0  0  0  0
 13 33  1  0  0  0  0
 14 34  1  0  0  0  0
 15 35  1  0  0  0  0
 16 36  1  0  0  0  0
M  END
> <pdb_id>
3RAW

> <uniprot_id>
P49761

> <usmiles>
O=C\1NC(=N/C1=C\c2cc3OCOc3cc2)Nc4ccccc4

$$$$
3RC_A_0
          07202403043D 1   1.00000     0.00000     0
            
 34 37  0  0  0  0            999 V2000
   79.4600   17.9510   10.8978 N   0  0  0  0  0  0  0  0  0  0  0  0
   79.8338   16.7201   10.9282 N   0  0  0  0  0  0  0  0  0  0  0  0
   84.5827   13.3377   12.8156 N   0  0  0  0  0  0  0  0  0  0  0  0
   82.3616   13.2153   11.7063 N   0  0  0  0  0  0  0  0  0  0  0  0
   80.3490   18.7027   11.4402 N   0  0  0  0  0  0  0  0  0  0  0  0
   85.5031   14.1301   13.3831 C   0  0  0  0  0  0  0  0  0  0  0  0
   81.4194   14.1412   11.3726 C   0  0  0  0  0  0  0  0  0  0  0  0
   81.3755   17.9236   11.8563 C   0  0  0  0  0  0  0  0  0  0  0  0
   80.2671   20.1638   11.5841 C   0  0  0  0  0  0  0  0  0  0  0  0
   85.2985   15.5205   13.4841 C   0  0  0  0  0  0  0  0  0  0  0  0
   77.3736   21.1229   14.6425 C   0  0  0  0  0  0  0  0  0  0  0  0
   78.7396   21.0143   14.9729 C   0  0  0  0  0  0  0  0  0  0  0  0
   76.9458   20.9202   13.3111 C   0  0  0  0  0  0  0  0  0  0  0  0
   79.6807   20.7035   13.9749 C   0  0  0  0  0  0  0  0  0  0  0  0
   77.8909   20.6082   12.3134 C   0  0  0  0  0  0  0  0  0  0  0  0
   84.1071   16.0738   12.9767 C   0  0  0  0  0  0  0  0  0  0  0  0
   83.4245   13.8120   12.3153 C   0  0  0  0  0  0  0  0  0  0  0  0
   81.0383   16.6388   11.5227 C   0  0  0  0  0  0  0  0  0  0  0  0
   79.2588   20.4994   12.6479 C   0  0  0  0  0  0  0  0  0  0  0  0
   81.8192   15.3853   11.7451 C   0  0  0  0  0  0  0  0  0  0  0  0
   83.1451   15.2144   12.3794 C   0  0  0  0  0  0  0  0  0  0  0  0
   82.2838   12.2342   11.5289 H   0  0  0  0  0  0  0  0  0  0  0  0
   86.3468   13.7288   13.7397 H   0  0  0  0  0  0  0  0  0  0  0  0
   80.5538   13.9340   10.9167 H   0  0  0  0  0  0  0  0  0  0  0  0
   82.2114   18.2256   12.3147 H   0  0  0  0  0  0  0  0  0  0  0  0
   79.9845   20.5703   10.7152 H   0  0  0  0  0  0  0  0  0  0  0  0
   81.1621   20.5250   11.8456 H   0  0  0  0  0  0  0  0  0  0  0  0
   85.9889   16.1055   13.9097 H   0  0  0  0  0  0  0  0  0  0  0  0
   76.7051   21.3441   15.3526 H   0  0  0  0  0  0  0  0  0  0  0  0
   79.0393   21.1581   15.9160 H   0  0  0  0  0  0  0  0  0  0  0  0
   75.9765   20.9978   13.0779 H   0  0  0  0  0  0  0  0  0  0  0  0
   80.6501   20.6275   14.2084 H   0  0  0  0  0  0  0  0  0  0  0  0
   77.5934   20.4640   11.3696 H   0  0  0  0  0  0  0  0  0  0  0  0
   83.9401   17.0580   13.0357 H   0  0  0  0  0  0  0  0  0  0  0  0
  1  2  2  0  0  0  0
  1  5  1  0  0  0  0
  2 18  1  0  0  0  0
  3  6  1  0  0  0  0
  3 17  2  0  0  0  0
  4  7  1  0  0  0  0
  4 17  1  0  0  0  0
  5  8  1  0  0  0  0
  5  9  1  0  0  0  0
  6 10  2  0  0  0  0
  7 20  2  0  0  0  0
  8 18  2  0  0  0  0
  9 19  1  0  0  0  0
 10 16  1  0  0  0  0
 11 12  2  0  0  0  0
 11 13  1  0  0  0  0
 12 14  1  0  0  0  0
 13 15  2  0  0  0  0
 14 19  2  0  0  0  0
 15 19  1  0  0  0  0
 16 21  2  0  0  0  0
 17 21  1  0  0  0  0
 18 20  1  0  0  0  0
 20 21  1  0  0  0  0
  4 22  1  0  0  0  0
  6 23  1  0  0  0  0
  7 24  1  0  0  0  0
  8 25  1  0  0  0  0
  9 26  1  0  0  0  0
  9 27  1  0  0  0  0
 10 28  1  0  0  0  0
 11 29  1  0  0  0  0
 12 30  1  0  0  0  0
 13 31  1  0  0  0  0
 14 32  1  0  0  0  0
 15 33  1  0  0  0  0
 16 34  1  0  0  0  0
M  END
> <pdb_id>
3RCJ

> <uniprot_id>
O15530

> <usmiles>
n1c2NC=C(c2ccc1)C=3N=NN(C3)Cc4ccccc4

$$$$
3RF_A_401
          07202405323D 1   1.00000     0.00000     0
            
 46 50  0  0  0  0            999 V2000
  105.1671   47.6294   16.1215 N   0  0  0  0  0  0  0  0  0  0  0  0
  101.0998   41.3542   13.9684 N   0  0  0  0  0  0  0  0  0  0  0  0
  101.7734   42.6173   17.9673 N   0  0  0  0  0  0  0  0  0  0  0  0
  101.2607   42.3200   20.2308 N   0  0  0  0  0  0  0  0  0  0  0  0
  101.7197   42.1678   13.0773 N   0  0  0  0  0  0  0  0  0  0  0  0
  102.8330   43.9472   19.6563 N   0  0  0  0  0  0  0  0  0  0  0  0
  100.6999   41.2594   16.3130 N   0  0  0  0  0  0  0  0  0  0  0  0
   98.7032   39.6813   20.7484 C   0  0  0  0  0  0  0  0  0  0  0  0
   98.4776   39.2943   19.4130 C   0  0  0  0  0  0  0  0  0  0  0  0
   99.6188   40.6975   21.0393 C   0  0  0  0  0  0  0  0  0  0  0  0
  103.4596   47.0826   17.7826 C   0  0  0  0  0  0  0  0  0  0  0  0
  105.0851   45.4178   17.1167 C   0  0  0  0  0  0  0  0  0  0  0  0
   99.1876   39.9242   18.3721 C   0  0  0  0  0  0  0  0  0  0  0  0
  102.8776   46.1660   18.6610 C   0  0  0  0  0  0  0  0  0  0  0  0
  104.5080   44.4980   17.9960 C   0  0  0  0  0  0  0  0  0  0  0  0
  101.9992   43.1242   15.0031 C   0  0  0  0  0  0  0  0  0  0  0  0
  104.2787   44.3647   13.4387 C   0  0  0  0  0  0  0  0  0  0  0  0
  103.1891   45.3895   13.6074 C   0  0  0  0  0  0  0  0  0  0  0  0
  101.9269   42.9297   19.2520 C   0  0  0  0  0  0  0  0  0  0  0  0
  101.2641   41.9220   15.1795 C   0  0  0  0  0  0  0  0  0  0  0  0
  104.5581   46.6933   17.0172 C   0  0  0  0  0  0  0  0  0  0  0  0
  100.9023   41.6493   17.6496 C   0  0  0  0  0  0  0  0  0  0  0  0
  103.4013   44.8790   18.7370 C   0  0  0  0  0  0  0  0  0  0  0  0
  100.3511   41.3267   19.9685 C   0  0  0  0  0  0  0  0  0  0  0  0
  102.2923   43.2551   13.6391 C   0  0  0  0  0  0  0  0  0  0  0  0
  100.1351   40.9462   18.6592 C   0  0  0  0  0  0  0  0  0  0  0  0
  103.0065   44.2263   12.6197 C   0  0  0  0  0  0  0  0  0  0  0  0
  105.3820   47.3741   15.2658 H   0  0  0  0  0  0  0  0  0  0  0  0
  105.3415   48.4851   16.4011 H   0  0  0  0  0  0  0  0  0  0  0  0
  101.7489   41.9935   12.1760 H   0  0  0  0  0  0  0  0  0  0  0  0
  103.0615   44.0078   20.5442 H   0  0  0  0  0  0  0  0  0  0  0  0
  100.1672   40.5270   16.1577 H   0  0  0  0  0  0  0  0  0  0  0  0
   98.2076   39.2459   21.4740 H   0  0  0  0  0  0  0  0  0  0  0  0
   97.8376   38.5811   19.2099 H   0  0  0  0  0  0  0  0  0  0  0  0
   99.7750   40.9688   21.9676 H   0  0  0  0  0  0  0  0  0  0  0  0
  103.0975   47.9921   17.7019 H   0  0  0  0  0  0  0  0  0  0  0  0
  105.8615   45.1610   16.5730 H   0  0  0  0  0  0  0  0  0  0  0  0
   99.0404   39.6458   17.4450 H   0  0  0  0  0  0  0  0  0  0  0  0
  102.1020   46.4208   19.2057 H   0  0  0  0  0  0  0  0  0  0  0  0
  104.8693   43.5892   18.0731 H   0  0  0  0  0  0  0  0  0  0  0  0
  102.2686   43.7464   15.7150 H   0  0  0  0  0  0  0  0  0  0  0  0
  104.3792   43.7297   14.1734 H   0  0  0  0  0  0  0  0  0  0  0  0
  105.0722   44.6659   12.9422 H   0  0  0  0  0  0  0  0  0  0  0  0
  102.6733   45.3288   14.4359 H   0  0  0  0  0  0  0  0  0  0  0  0
  103.3642   46.2690   13.2036 H   0  0  0  0  0  0  0  0  0  0  0  0
  102.6388   43.9681   11.7465 H   0  0  0  0  0  0  0  0  0  0  0  0
  1 21  1  0  0  0  0
  1 28  1  0  0  0  0
  1 29  1  0  0  0  0
  2  5  1  0  0  0  0
  2 20  2  0  0  0  0
  3 19  1  0  0  0  0
  3 22  2  0  0  0  0
  4 19  2  0  0  0  0
  4 24  1  0  0  0  0
  5 25  1  0  0  0  0
  5 30  1  0  0  0  0
  6 19  1  0  0  0  0
  6 23  1  0  0  0  0
  6 31  1  0  0  0  0
  7 20  1  0  0  0  0
  7 22  1  0  0  0  0
  7 32  1  0  0  0  0
  8  9  2  0  0  0  0
  8 10  1  0  0  0  0
  8 33  1  0  0  0  0
  9 13  1  0  0  0  0
  9 34  1  0  0  0  0
 10 24  2  0  0  0  0
 10 35  1  0  0  0  0
 11 14  2  0  0  0  0
 11 21  1  0  0  0  0
 11 36  1  0  0  0  0
 12 15  1  0  0  0  0
 12 21  2  0  0  0  0
 12 37  1  0  0  0  0
 13 26  2  0  0  0  0
 13 38  1  0  0  0  0
 14 23  1  0  0  0  0
 14 39  1  0  0  0  0
 15 23  2  0  0  0  0
 15 40  1  0  0  0  0
 16 20  1  0  0  0  0
 16 25  2  0  0  0  0
 16 41  1  0  0  0  0
 17 18  1  0  0  0  0
 17 27  1  0  0  0  0
 17 42  1  0  0  0  0
 17 43  1  0  0  0  0
 18 27  1  0  0  0  0
 18 44  1  0  0  0  0
 18 45  1  0  0  0  0
 22 26  1  0  0  0  0
 24 26  1  0  0  0  0
 25 27  1  0  0  0  0
 27 46  1  0  0  0  0
M  END
> <pdb_id>
4WNO

> <uniprot_id>
O75385

> <usmiles>
n1c(nc2c(c1NC3=NNC(=C3)C4CC4)cccc2)Nc5ccc(N)cc5

$$$$
3RH_B_1
          07202401443D 1   1.00000     0.00000     0
            
 36 39  0  0  0  0            999 V2000
  -52.2540   23.9500   -6.4870 N   0  0  0  0  0  0  0  0  0  0  0  0
  -51.8640   24.5720   -4.2620 N   0  0  0  0  0  0  0  0  0  0  0  0
  -50.0530   24.3110   -5.7630 N   0  0  0  0  0  0  0  0  0  0  0  0
  -51.0230   24.9030   -3.2710 C   0  0  0  0  0  0  0  0  0  0  0  0
  -44.8050   27.1890    0.1900 C   0  0  0  0  0  0  0  0  0  0  0  0
  -45.0230   25.8390   -0.0850 C   0  0  0  0  0  0  0  0  0  0  0  0
  -45.4620   28.1670   -0.5670 C   0  0  0  0  0  0  0  0  0  0  0  0
  -45.7580   24.0740   -6.3760 C   0  0  0  0  0  0  0  0  0  0  0  0
  -44.9290   24.7890   -5.5050 C   0  0  0  0  0  0  0  0  0  0  0  0
  -45.8930   25.4720   -1.1180 C   0  0  0  0  0  0  0  0  0  0  0  0
  -46.3270   27.8020   -1.5980 C   0  0  0  0  0  0  0  0  0  0  0  0
  -47.1350   24.0270   -6.1430 C   0  0  0  0  0  0  0  0  0  0  0  0
  -45.4850   25.4460   -4.4020 C   0  0  0  0  0  0  0  0  0  0  0  0
  -48.6770   25.3170   -2.4150 C   0  0  0  0  0  0  0  0  0  0  0  0
  -51.3870   24.2820   -5.5010 C   0  0  0  0  0  0  0  0  0  0  0  0
  -49.1660   24.6360   -4.7870 C   0  0  0  0  0  0  0  0  0  0  0  0
  -49.6460   24.9400   -3.5170 C   0  0  0  0  0  0  0  0  0  0  0  0
  -46.5450   26.4530   -1.8820 C   0  0  0  0  0  0  0  0  0  0  0  0
  -47.6890   24.6880   -5.0410 C   0  0  0  0  0  0  0  0  0  0  0  0
  -46.8660   25.3940   -4.1560 C   0  0  0  0  0  0  0  0  0  0  0  0
  -47.4860   26.1040   -2.9840 C   0  0  1  0  0  0  0  0  0  0  0  0
  -51.9123   23.7350   -7.4019 H   0  0  0  0  0  0  0  0  0  0  0  0
  -53.2359   23.9198   -6.3002 H   0  0  0  0  0  0  0  0  0  0  0  0
  -51.3778   25.1220   -2.3621 H   0  0  0  0  0  0  0  0  0  0  0  0
  -44.1821   27.4574    0.9248 H   0  0  0  0  0  0  0  0  0  0  0  0
  -44.5593   25.1359    0.4541 H   0  0  0  0  0  0  0  0  0  0  0  0
  -45.3096   29.1348   -0.3666 H   0  0  0  0  0  0  0  0  0  0  0  0
  -45.3662   23.5978   -7.1632 H   0  0  0  0  0  0  0  0  0  0  0  0
  -43.9436   24.8303   -5.6700 H   0  0  0  0  0  0  0  0  0  0  0  0
  -46.0514   24.5041   -1.3133 H   0  0  0  0  0  0  0  0  0  0  0  0
  -46.7913   28.5070   -2.1341 H   0  0  0  0  0  0  0  0  0  0  0  0
  -47.7278   23.5182   -6.7672 H   0  0  0  0  0  0  0  0  0  0  0  0
  -44.8916   25.9587   -3.7815 H   0  0  0  0  0  0  0  0  0  0  0  0
  -48.3402   24.4845   -1.9752 H   0  0  0  0  0  0  0  0  0  0  0  0
  -49.1514   25.8821   -1.7400 H   0  0  0  0  0  0  0  0  0  0  0  0
  -47.8524   26.9668   -3.3324 H   0  0  0  0  0  0  0  0  0  0  0  0
  1 15  1  0  0  0  0
  2  4  1  0  0  0  0
  2 15  2  0  0  0  0
  3 15  1  0  0  0  0
  3 16  2  0  0  0  0
  4 17  2  0  0  0  0
  5  6  2  0  0  0  0
  5  7  1  0  0  0  0
  6 10  1  0  0  0  0
  7 11  2  0  0  0  0
  8  9  2  0  0  0  0
  8 12  1  0  0  0  0
  9 13  1  0  0  0  0
 10 18  2  0  0  0  0
 11 18  1  0  0  0  0
 12 19  2  0  0  0  0
 13 20  2  0  0  0  0
 14 17  1  0  0  0  0
 14 21  1  0  0  0  0
 16 17  1  0  0  0  0
 16 19  1  0  0  0  0
 18 21  1  0  0  0  0
 19 20  1  0  0  0  0
 20 21  1  0  0  0  0
  1 22  1  0  0  0  0
  1 23  1  0  0  0  0
  4 24  1  0  0  0  0
  5 25  1  0  0  0  0
  6 26  1  0  0  0  0
  7 27  1  0  0  0  0
  8 28  1  0  0  0  0
  9 29  1  0  0  0  0
 10 30  1  0  0  0  0
 11 31  1  0  0  0  0
 12 32  1  0  0  0  0
 13 33  1  0  0  0  0
 14 34  1  0  0  0  0
 14 35  1  0  0  0  0
 21 36  1  0  0  0  0
M  END
> <pdb_id>
3RI1

> <uniprot_id>
P21802

> <usmiles>
n1c(ncc2c1c3c(cccc3)[C@H](c4ccccc4)C2)N

$$$$
3RJ_A_303
          07202405323D 1   1.00000     0.00000     0
            
 50 55  0  0  0  0            999 V2000
  101.0470   41.1480   14.0830 N   0  0  0  0  0  0  0  0  0  0  0  0
  106.2100   46.1930   16.6330 N   0  0  0  0  0  0  0  0  0  0  0  0
  101.4530   42.4160   18.1370 N   0  0  0  0  0  0  0  0  0  0  0  0
  100.7870   42.1060   20.3950 N   0  0  0  0  0  0  0  0  0  0  0  0
  101.7750   41.8980   13.2140 N   0  0  0  0  0  0  0  0  0  0  0  0
  106.9270   44.7920   18.1580 N   0  0  0  0  0  0  0  0  0  0  0  0
  102.4420   43.7250   19.8670 N   0  0  0  0  0  0  0  0  0  0  0  0
  100.4910   41.0760   16.4070 N   0  0  0  0  0  0  0  0  0  0  0  0
  107.3160   45.6330   17.1700 C   0  0  0  0  0  0  0  0  0  0  0  0
   98.2360   39.4780   20.6690 C   0  0  0  0  0  0  0  0  0  0  0  0
   98.1060   39.1030   19.3190 C   0  0  0  0  0  0  0  0  0  0  0  0
  102.8190   45.2630   18.0080 C   0  0  0  0  0  0  0  0  0  0  0  0
   99.1110   40.4790   21.0410 C   0  0  0  0  0  0  0  0  0  0  0  0
   98.8710   39.7300   18.3300 C   0  0  0  0  0  0  0  0  0  0  0  0
  103.7120   45.9230   17.1620 C   0  0  0  0  0  0  0  0  0  0  0  0
  101.9670   42.8740   15.1950 C   0  0  0  0  0  0  0  0  0  0  0  0
  104.6680   44.1610   19.1100 C   0  0  0  0  0  0  0  0  0  0  0  0
  104.3390   45.6240   13.4470 C   0  0  0  0  0  0  0  0  0  0  0  0
  102.8680   45.4300   13.2740 C   0  0  0  0  0  0  0  0  0  0  0  0
  104.4820   44.1570   13.6980 C   0  0  0  0  0  0  0  0  0  0  0  0
  101.5320   42.7320   19.4490 C   0  0  0  0  0  0  0  0  0  0  0  0
  101.1710   41.7090   15.3070 C   0  0  0  0  0  0  0  0  0  0  0  0
  103.3130   44.3770   18.9570 C   0  0  0  0  0  0  0  0  0  0  0  0
  100.6020   41.4430   17.7730 C   0  0  0  0  0  0  0  0  0  0  0  0
  105.1000   45.6990   17.3020 C   0  0  0  0  0  0  0  0  0  0  0  0
   99.8940   41.1120   20.0380 C   0  0  0  0  0  0  0  0  0  0  0  0
  102.3310   42.9500   13.8300 C   0  0  0  0  0  0  0  0  0  0  0  0
  105.5700   44.8320   18.2540 C   0  0  0  0  0  0  0  0  0  0  0  0
   99.7840   40.7660   18.7150 C   0  0  0  0  0  0  0  0  0  0  0  0
  103.1500   43.9610   13.0650 C   0  0  0  0  0  0  0  0  0  0  0  0
  101.8450   41.7260   12.3210 H   0  0  0  0  0  0  0  0  0  0  0  0
  107.4770   44.3050   18.6820 H   0  0  0  0  0  0  0  0  0  0  0  0
  102.2770   44.1410   20.6520 H   0  0  0  0  0  0  0  0  0  0  0  0
   99.9950   40.3410   16.2160 H   0  0  0  0  0  0  0  0  0  0  0  0
  108.2290   45.7950   16.8880 H   0  0  0  0  0  0  0  0  0  0  0  0
   97.6950   39.0400   21.3420 H   0  0  0  0  0  0  0  0  0  0  0  0
   97.4800   38.4090   19.0720 H   0  0  0  0  0  0  0  0  0  0  0  0
  101.8690   45.4160   17.9280 H   0  0  0  0  0  0  0  0  0  0  0  0
   99.2030   40.7320   21.9680 H   0  0  0  0  0  0  0  0  0  0  0  0
   98.7790   39.4710   17.4060 H   0  0  0  0  0  0  0  0  0  0  0  0
  103.3840   46.5330   16.4930 H   0  0  0  0  0  0  0  0  0  0  0  0
  102.2130   43.4870   15.9020 H   0  0  0  0  0  0  0  0  0  0  0  0
  104.9950   43.5520   19.7880 H   0  0  0  0  0  0  0  0  0  0  0  0
  104.7830   45.9190   12.6380 H   0  0  0  0  0  0  0  0  0  0  0  0
  104.5550   46.1600   14.2300 H   0  0  0  0  0  0  0  0  0  0  0  0
  102.3520   45.6160   14.0730 H   0  0  0  0  0  0  0  0  0  0  0  0
  102.5300   45.8610   12.4760 H   0  0  0  0  0  0  0  0  0  0  0  0
  105.2050   43.7600   13.1780 H   0  0  0  0  0  0  0  0  0  0  0  0
  104.4980   43.9220   14.6380 H   0  0  0  0  0  0  0  0  0  0  0  0
  103.1010   43.7570   12.1150 H   0  0  0  0  0  0  0  0  0  0  0  0
  1  5  1  0  0  0  0
  1 22  2  0  0  0  0
  2  9  2  0  0  0  0
  2 25  1  0  0  0  0
  3 21  1  0  0  0  0
  3 24  2  0  0  0  0
  4 21  2  0  0  0  0
  4 26  1  0  0  0  0
  5 27  1  0  0  0  0
  5 31  1  0  0  0  0
  6  9  1  0  0  0  0
  6 28  1  0  0  0  0
  6 32  1  0  0  0  0
  7 21  1  0  0  0  0
  7 23  1  0  0  0  0
  7 33  1  0  0  0  0
  8 22  1  0  0  0  0
  8 24  1  0  0  0  0
  8 34  1  0  0  0  0
  9 35  1  0  0  0  0
 10 11  2  0  0  0  0
 10 13  1  0  0  0  0
 10 36  1  0  0  0  0
 11 14  1  0  0  0  0
 11 37  1  0  0  0  0
 12 15  1  0  0  0  0
 12 23  2  0  0  0  0
 12 38  1  0  0  0  0
 13 26  2  0  0  0  0
 13 39  1  0  0  0  0
 14 29  2  0  0  0  0
 14 40  1  0  0  0  0
 15 25  2  0  0  0  0
 15 41  1  0  0  0  0
 16 22  1  0  0  0  0
 16 27  2  0  0  0  0
 16 42  1  0  0  0  0
 17 23  1  0  0  0  0
 17 28  2  0  0  0  0
 17 43  1  0  0  0  0
 18 19  1  0  0  0  0
 18 20  1  0  0  0  0
 18 44  1  0  0  0  0
 18 45  1  0  0  0  0
 19 30  1  0  0  0  0
 19 46  1  0  0  0  0
 19 47  1  0  0  0  0
 20 30  1  0  0  0  0
 20 48  1  0  0  0  0
 20 49  1  0  0  0  0
 24 29  1  0  0  0  0
 25 28  1  0  0  0  0
 26 29  1  0  0  0  0
 27 30  1  0  0  0  0
 30 50  1  0  0  0  0
M  END
> <pdb_id>
4WNP

> <uniprot_id>
O75385

> <usmiles>
n1c(nc2c(c1NC3=NNC(=C3)C4CCC4)cccc2)Nc5cc6NC=Nc6cc5

$$$$
3RL_B_402
          07202416443D 1   1.00000     0.00000     0
            
 35 36  0  0  0  0            999 V2000
  -21.1360  -13.4440   32.1410 O   0  0  0  0  0  0  0  0  0  0  0  0
  -10.1280  -15.4700   33.4070 O   0  0  0  0  0  0  0  0  0  0  0  0
  -10.6980  -13.2810   29.2290 O   0  0  0  0  0  0  0  0  0  0  0  0
   -8.7340  -15.4860   33.2160 C   0  0  0  0  0  0  0  0  0  0  0  0
  -11.4610  -12.4280   28.3720 C   0  0  0  0  0  0  0  0  0  0  0  0
  -19.2350  -13.1420   30.7550 C   0  0  0  0  0  0  0  0  0  0  0  0
  -18.9030  -13.5680   33.1220 C   0  0  0  0  0  0  0  0  0  0  0  0
  -17.8550  -13.1560   30.5740 C   0  0  0  0  0  0  0  0  0  0  0  0
  -17.5260  -13.5010   32.9370 C   0  0  0  0  0  0  0  0  0  0  0  0
  -15.5230  -13.2360   31.4330 C   0  0  0  0  0  0  0  0  0  0  0  0
  -14.5850  -13.8480   32.1970 C   0  0  0  0  0  0  0  0  0  0  0  0
  -10.4420  -14.3470   31.2800 C   0  0  0  0  0  0  0  0  0  0  0  0
  -12.3070  -14.6770   32.7810 C   0  0  0  0  0  0  0  0  0  0  0  0
  -12.6720  -13.5780   30.6450 C   0  0  0  0  0  0  0  0  0  0  0  0
  -19.7580  -13.3650   32.0260 C   0  0  0  0  0  0  0  0  0  0  0  0
  -10.9460  -14.8330   32.4820 C   0  0  0  0  0  0  0  0  0  0  0  0
  -11.2980  -13.7200   30.3850 C   0  0  0  0  0  0  0  0  0  0  0  0
  -16.9720  -13.2930   31.6550 C   0  0  0  0  0  0  0  0  0  0  0  0
  -13.1740  -14.0730   31.8520 C   0  0  0  0  0  0  0  0  0  0  0  0
  -21.5548  -13.6031   33.0350 H   0  0  0  0  0  0  0  0  0  0  0  0
   -8.3002  -15.9821   33.9681 H   0  0  0  0  0  0  0  0  0  0  0  0
   -8.5213  -15.9399   32.3507 H   0  0  0  0  0  0  0  0  0  0  0  0
   -8.3898  -14.5474   33.1934 H   0  0  0  0  0  0  0  0  0  0  0  0
  -10.9130  -12.1824   27.5724 H   0  0  0  0  0  0  0  0  0  0  0  0
  -12.2875  -12.9065   28.0755 H   0  0  0  0  0  0  0  0  0  0  0  0
  -11.7162  -11.5985   28.8687 H   0  0  0  0  0  0  0  0  0  0  0  0
  -19.8445  -12.9735   29.9803 H   0  0  0  0  0  0  0  0  0  0  0  0
  -19.2812  -13.7591   34.0278 H   0  0  0  0  0  0  0  0  0  0  0  0
  -17.4837  -13.0661   29.6498 H   0  0  0  0  0  0  0  0  0  0  0  0
  -16.9184  -13.6018   33.7249 H   0  0  0  0  0  0  0  0  0  0  0  0
  -15.2000  -12.7007   30.6525 H   0  0  0  0  0  0  0  0  0  0  0  0
  -14.8851  -14.1820   33.0905 H   0  0  0  0  0  0  0  0  0  0  0  0
   -9.4712  -14.4485   31.0625 H   0  0  0  0  0  0  0  0  0  0  0  0
  -12.6632  -14.9967   33.6590 H   0  0  0  0  0  0  0  0  0  0  0  0
  -13.2755  -13.1338   29.9828 H   0  0  0  0  0  0  0  0  0  0  0  0
  1 15  1  0  0  0  0
  2  4  1  0  0  0  0
  2 16  1  0  0  0  0
  3  5  1  0  0  0  0
  3 17  1  0  0  0  0
  6  8  1  0  0  0  0
  6 15  2  0  0  0  0
  7  9  2  0  0  0  0
  7 15  1  0  0  0  0
  8 18  2  0  0  0  0
  9 18  1  0  0  0  0
 10 11  2  0  0  0  0
 10 18  1  0  0  0  0
 11 19  1  0  0  0  0
 12 16  2  0  0  0  0
 12 17  1  0  0  0  0
 13 16  1  0  0  0  0
 13 19  2  0  0  0  0
 14 17  2  0  0  0  0
 14 19  1  0  0  0  0
  1 20  1  0  0  0  0
  4 21  1  0  0  0  0
  4 22  1  0  0  0  0
  4 23  1  0  0  0  0
  5 24  1  0  0  0  0
  5 25  1  0  0  0  0
  5 26  1  0  0  0  0
  6 27  1  0  0  0  0
  7 28  1  0  0  0  0
  8 29  1  0  0  0  0
  9 30  1  0  0  0  0
 10 31  1  0  0  0  0
 11 32  1  0  0  0  0
 12 33  1  0  0  0  0
 13 34  1  0  0  0  0
 14 35  1  0  0  0  0
M  END
> <pdb_id>
7WAS

> <uniprot_id>
nan

> <usmiles>
O(c1cc(OC)cc(c1)/C=C/c2ccc(O)cc2)C

$$$$
3RM_A_1
          07202401523D 1   1.00000     0.00000     0
            
 41 43  0  0  0  0            999 V2000
    3.2210   10.5090  -15.8700 Br  0  0  0  0  0  0  0  0  0  0  0  0
    2.8960    4.4680  -15.9680 O   0  0  0  0  0  0  0  0  0  0  0  0
   -3.7620   -0.1230  -20.7620 N   0  0  0  0  0  0  0  0  0  0  0  0
   -3.3120   -0.6040  -18.4250 N   0  0  0  0  0  0  0  0  0  0  0  0
   -2.2280   -0.2840  -17.7070 N   0  0  0  0  0  0  0  0  0  0  0  0
   -1.7840    0.5140  -19.6820 N   0  0  0  0  0  0  0  0  0  0  0  0
    2.1510    2.0240  -16.7050 N   0  0  0  0  0  0  0  0  0  0  0  0
   -0.1060    0.8090  -17.9640 N   0  0  0  0  0  0  0  0  0  0  0  0
    3.9200    3.7680  -16.6980 C   0  0  0  0  0  0  0  0  0  0  0  0
    3.6290    2.2810  -16.5190 C   0  0  0  0  0  0  0  0  0  0  0  0
    1.6560    2.5630  -18.0370 C   0  0  0  0  0  0  0  0  0  0  0  0
    1.8860    0.5380  -16.5560 C   0  0  0  0  0  0  0  0  0  0  0  0
    0.2000    2.2100  -18.2760 C   0  0  0  0  0  0  0  0  0  0  0  0
    0.3960    0.2960  -16.6860 C   0  0  0  0  0  0  0  0  0  0  0  0
    3.1180    7.9870  -17.1700 C   0  0  0  0  0  0  0  0  0  0  0  0
    3.0360    7.8820  -14.7380 C   0  0  0  0  0  0  0  0  0  0  0  0
    3.0470    6.5870  -17.2210 C   0  0  0  0  0  0  0  0  0  0  0  0
    2.9630    6.4860  -14.7930 C   0  0  0  0  0  0  0  0  0  0  0  0
   -3.0130   -0.0930  -19.6350 C   0  0  0  0  0  0  0  0  0  0  0  0
    3.1120    8.6180  -15.9260 C   0  0  0  0  0  0  0  0  0  0  0  0
    2.9640    5.8370  -16.0360 C   0  0  0  0  0  0  0  0  0  0  0  0
   -1.2980    0.3770  -18.4600 C   0  0  0  0  0  0  0  0  0  0  0  0
   -3.4191    0.2983  -21.6016 H   0  0  0  0  0  0  0  0  0  0  0  0
   -4.6583   -0.5664  -20.7550 H   0  0  0  0  0  0  0  0  0  0  0  0
   -4.1333   -1.0963  -18.1367 H   0  0  0  0  0  0  0  0  0  0  0  0
    4.8225    3.9914  -16.3298 H   0  0  0  0  0  0  0  0  0  0  0  0
    3.8849    4.0140  -17.6666 H   0  0  0  0  0  0  0  0  0  0  0  0
    4.1451    1.7575  -17.1969 H   0  0  0  0  0  0  0  0  0  0  0  0
    3.9025    1.9972  -15.5999 H   0  0  0  0  0  0  0  0  0  0  0  0
    2.2098    2.1711  -18.7717 H   0  0  0  0  0  0  0  0  0  0  0  0
    1.7535    3.5582  -18.0408 H   0  0  0  0  0  0  0  0  0  0  0  0
    2.2004    0.2283  -15.6587 H   0  0  0  0  0  0  0  0  0  0  0  0
    2.3723    0.0359  -17.2711 H   0  0  0  0  0  0  0  0  0  0  0  0
   -0.3694    2.7969  -17.7004 H   0  0  0  0  0  0  0  0  0  0  0  0
   -0.0151    2.3771  -19.2382 H   0  0  0  0  0  0  0  0  0  0  0  0
    0.2179   -0.6867  -16.6347 H   0  0  0  0  0  0  0  0  0  0  0  0
   -0.0779    0.7602  -15.9377 H   0  0  0  0  0  0  0  0  0  0  0  0
    3.1720    8.5240  -18.0118 H   0  0  0  0  0  0  0  0  0  0  0  0
    3.0339    8.3513  -13.8550 H   0  0  0  0  0  0  0  0  0  0  0  0
    3.0555    6.1204  -18.1054 H   0  0  0  0  0  0  0  0  0  0  0  0
    2.9103    5.9527  -13.9487 H   0  0  0  0  0  0  0  0  0  0  0  0
  1 20  1  0  0  0  0
  2  9  1  0  0  0  0
  2 21  1  0  0  0  0
  3 19  1  0  0  0  0
  4  5  1  0  0  0  0
  4 19  1  0  0  0  0
  5 22  2  0  0  0  0
  6 19  2  0  0  0  0
  6 22  1  0  0  0  0
  7 10  1  0  0  0  0
  7 11  1  0  0  0  0
  7 12  1  0  0  0  0
  8 13  1  0  0  0  0
  8 14  1  0  0  0  0
  8 22  1  0  0  0  0
  9 10  1  0  0  0  0
 11 13  1  0  0  0  0
 12 14  1  0  0  0  0
 15 17  2  0  0  0  0
 15 20  1  0  0  0  0
 16 18  1  0  0  0  0
 16 20  2  0  0  0  0
 17 21  1  0  0  0  0
 18 21  2  0  0  0  0
  3 23  1  0  0  0  0
  3 24  1  0  0  0  0
  4 25  1  0  0  0  0
  9 26  1  0  0  0  0
  9 27  1  0  0  0  0
 10 28  1  0  0  0  0
 10 29  1  0  0  0  0
 11 30  1  0  0  0  0
 11 31  1  0  0  0  0
 12 32  1  0  0  0  0
 12 33  1  0  0  0  0
 13 34  1  0  0  0  0
 13 35  1  0  0  0  0
 14 36  1  0  0  0  0
 14 37  1  0  0  0  0
 15 38  1  0  0  0  0
 16 39  1  0  0  0  0
 17 40  1  0  0  0  0
 18 41  1  0  0  0  0
M  END
> <pdb_id>
3RM4

> <uniprot_id>
Q9BZP6

> <usmiles>
Brc1ccc(OCCN2CCN(C3=NNC(=N3)N)CC2)cc1

$$$$
3RP_A_901
          07192420423D 1   1.00000     0.00000     0
            
 29 30  0  0  0  0            999 V2000
   74.0446   33.9766   26.6169 Cl  0  0  0  0  0  0  0  0  0  0  0  0
   69.4942   31.5468   24.9881 Cl  0  0  0  0  0  0  0  0  0  0  0  0
   72.6181   36.5468   26.1905 O   0  0  0  0  0  0  0  0  0  0  0  0
   64.9763   33.6641   25.6436 N   0  0  0  0  0  0  0  0  0  0  0  0
   65.7730   34.6344   23.6284 N   0  0  0  0  0  0  0  0  0  0  0  0
   67.3156   34.0036   25.3717 N   0  0  0  0  0  0  0  0  0  0  0  0
   72.0961   37.8753   26.0395 C   0  0  0  0  0  0  0  0  0  0  0  0
   66.5213   35.6412   21.5118 C   0  0  0  0  0  0  0  0  0  0  0  0
   71.6740   32.9692   25.7771 C   0  0  0  0  0  0  0  0  0  0  0  0
   68.1381   34.9990   23.3029 C   0  0  0  0  0  0  0  0  0  0  0  0
   70.4724   35.5070   25.3946 C   0  0  0  0  0  0  0  0  0  0  0  0
   66.0423   34.1084   24.8701 C   0  0  0  0  0  0  0  0  0  0  0  0
   72.4119   34.1563   26.0576 C   0  0  0  0  0  0  0  0  0  0  0  0
   70.3347   33.0470   25.3057 C   0  0  0  0  0  0  0  0  0  0  0  0
   71.8211   35.4479   25.8788 C   0  0  0  0  0  0  0  0  0  0  0  0
   66.8240   35.0695   22.8698 C   0  0  0  0  0  0  0  0  0  0  0  0
   68.3436   34.4512   24.5799 C   0  0  0  0  0  0  0  0  0  0  0  0
   69.7136   34.3237   25.0974 C   0  0  0  0  0  0  0  0  0  0  0  0
   65.1435   33.2772   26.5504 H   0  0  0  0  0  0  0  0  0  0  0  0
   64.0421   33.7314   25.2932 H   0  0  0  0  0  0  0  0  0  0  0  0
   72.7945   38.5400   26.3049 H   0  0  0  0  0  0  0  0  0  0  0  0
   71.8385   38.0257   25.0850 H   0  0  0  0  0  0  0  0  0  0  0  0
   71.2918   37.9858   26.6233 H   0  0  0  0  0  0  0  0  0  0  0  0
   67.3741   35.9179   21.0690 H   0  0  0  0  0  0  0  0  0  0  0  0
   66.0648   34.9489   20.9529 H   0  0  0  0  0  0  0  0  0  0  0  0
   65.9237   36.4368   21.6108 H   0  0  0  0  0  0  0  0  0  0  0  0
   72.1013   32.0754   25.9128 H   0  0  0  0  0  0  0  0  0  0  0  0
   68.8981   35.3203   22.7378 H   0  0  0  0  0  0  0  0  0  0  0  0
   70.0461   36.4014   25.2594 H   0  0  0  0  0  0  0  0  0  0  0  0
  1 13  1  0  0  0  0
  2 14  1  0  0  0  0
  3  7  1  0  0  0  0
  3 15  1  0  0  0  0
  4 12  1  0  0  0  0
  5 12  2  0  0  0  0
  5 16  1  0  0  0  0
  6 12  1  0  0  0  0
  6 17  2  0  0  0  0
  8 16  1  0  0  0  0
  9 13  2  0  0  0  0
  9 14  1  0  0  0  0
 10 16  2  0  0  0  0
 10 17  1  0  0  0  0
 11 15  2  0  0  0  0
 11 18  1  0  0  0  0
 13 15  1  0  0  0  0
 14 18  2  0  0  0  0
 17 18  1  0  0  0  0
  4 19  1  0  0  0  0
  4 20  1  0  0  0  0
  7 21  1  0  0  0  0
  7 22  1  0  0  0  0
  7 23  1  0  0  0  0
  8 24  1  0  0  0  0
  8 25  1  0  0  0  0
  8 26  1  0  0  0  0
  9 27  1  0  0  0  0
 10 28  1  0  0  0  0
 11 29  1  0  0  0  0
M  END
> <pdb_id>
3RLP

> <uniprot_id>
P07900

> <usmiles>
Clc1c(OC)cc(c(Cl)c1)c2nc(nc(c2)C)N

$$$$
3RQ_A_901
          07192420423D 1   1.00000     0.00000     0
            
 32 34  0  0  0  0            999 V2000
   73.9666   34.2681   26.6450 Cl  0  0  0  0  0  0  0  0  0  0  0  0
   69.6597   31.5988   24.9731 Cl  0  0  0  0  0  0  0  0  0  0  0  0
   72.4062   36.7588   26.2481 O   0  0  0  0  0  0  0  0  0  0  0  0
   68.3076   32.5135   28.3724 N   0  0  0  0  0  0  0  0  0  0  0  0
   64.9048   33.5121   25.2172 N   0  0  0  0  0  0  0  0  0  0  0  0
   65.7605   34.6909   23.2909 N   0  0  0  0  0  0  0  0  0  0  0  0
   68.1499   35.0830   23.3627 N   0  0  0  0  0  0  0  0  0  0  0  0
   71.8198   38.0617   26.1198 C   0  0  0  0  0  0  0  0  0  0  0  0
   66.8603   35.8801   21.4534 C   0  0  0  0  0  0  0  0  0  0  0  0
   67.6003   32.8112   27.5069 C   0  0  0  0  0  0  0  0  0  0  0  0
   65.3960   32.9858   26.3878 C   0  0  0  0  0  0  0  0  0  0  0  0
   71.6915   33.1556   25.7786 C   0  0  0  0  0  0  0  0  0  0  0  0
   70.3208   35.6153   25.4210 C   0  0  0  0  0  0  0  0  0  0  0  0
   72.3415   34.3711   26.0771 C   0  0  0  0  0  0  0  0  0  0  0  0
   70.3620   33.1556   25.3021 C   0  0  0  0  0  0  0  0  0  0  0  0
   66.9249   35.1754   22.7799 C   0  0  0  0  0  0  0  0  0  0  0  0
   71.6736   35.6286   25.9129 C   0  0  0  0  0  0  0  0  0  0  0  0
   65.9185   34.0770   24.5022 C   0  0  0  0  0  0  0  0  0  0  0  0
   68.2750   34.4511   24.5912 C   0  0  0  0  0  0  0  0  0  0  0  0
   66.7524   33.2151   26.4256 C   0  0  0  0  0  0  0  0  0  0  0  0
   69.6454   34.3973   25.1062 C   0  0  0  0  0  0  0  0  0  0  0  0
   67.1116   33.9103   25.2261 C   0  0  0  0  0  0  0  0  0  0  0  0
   63.9467   33.4846   24.9323 H   0  0  0  0  0  0  0  0  0  0  0  0
   72.4827   38.7549   26.4022 H   0  0  0  0  0  0  0  0  0  0  0  0
   71.5598   38.2177   25.1669 H   0  0  0  0  0  0  0  0  0  0  0  0
   71.0079   38.1205   26.7007 H   0  0  0  0  0  0  0  0  0  0  0  0
   67.7764   36.1849   21.1929 H   0  0  0  0  0  0  0  0  0  0  0  0
   66.5079   35.2524   20.7593 H   0  0  0  0  0  0  0  0  0  0  0  0
   66.2536   36.6718   21.5258 H   0  0  0  0  0  0  0  0  0  0  0  0
   64.8605   32.5173   27.0905 H   0  0  0  0  0  0  0  0  0  0  0  0
   72.1745   32.2892   25.9051 H   0  0  0  0  0  0  0  0  0  0  0  0
   69.8405   36.4835   25.2962 H   0  0  0  0  0  0  0  0  0  0  0  0
  1 14  1  0  0  0  0
  2 15  1  0  0  0  0
  3  8  1  0  0  0  0
  3 17  1  0  0  0  0
  4 10  3  0  0  0  0
  5 11  1  0  0  0  0
  5 18  1  0  0  0  0
  6 16  1  0  0  0  0
  6 18  2  0  0  0  0
  7 16  2  0  0  0  0
  7 19  1  0  0  0  0
  9 16  1  0  0  0  0
 10 20  1  0  0  0  0
 11 20  2  0  0  0  0
 12 14  2  0  0  0  0
 12 15  1  0  0  0  0
 13 17  2  0  0  0  0
 13 21  1  0  0  0  0
 14 17  1  0  0  0  0
 15 21  2  0  0  0  0
 18 22  1  0  0  0  0
 19 21  1  0  0  0  0
 19 22  2  0  0  0  0
 20 22  1  0  0  0  0
  5 23  1  0  0  0  0
  8 24  1  0  0  0  0
  8 25  1  0  0  0  0
  8 26  1  0  0  0  0
  9 27  1  0  0  0  0
  9 28  1  0  0  0  0
  9 29  1  0  0  0  0
 11 30  1  0  0  0  0
 12 31  1  0  0  0  0
 13 32  1  0  0  0  0
M  END
> <pdb_id>
3RLQ

> <uniprot_id>
P07900

> <usmiles>
Clc1c(OC)cc(c(Cl)c1)c2nc(nc3NC=C(C#N)c32)C

$$$$
3RR_A_901
          07192420423D 1   1.00000     0.00000     0
            
 35 37  0  0  0  0            999 V2000
   73.9429   34.1821   26.6179 Cl  0  0  0  0  0  0  0  0  0  0  0  0
   69.5827   31.4806   25.0174 Cl  0  0  0  0  0  0  0  0  0  0  0  0
   72.3160   36.6368   26.3224 O   0  0  0  0  0  0  0  0  0  0  0  0
   68.4031   32.3299   28.4843 N   0  0  0  0  0  0  0  0  0  0  0  0
   65.6406   34.5147   23.5242 N   0  0  0  0  0  0  0  0  0  0  0  0
   68.0220   34.9545   23.5363 N   0  0  0  0  0  0  0  0  0  0  0  0
   64.8629   33.2713   25.4534 N   0  0  0  0  0  0  0  0  0  0  0  0
   71.6910   37.9261   26.2373 C   0  0  0  0  0  0  0  0  0  0  0  0
   66.6669   35.7568   21.6774 C   0  0  0  0  0  0  0  0  0  0  0  0
   64.5332   32.0073   27.5797 C   0  0  0  0  0  0  0  0  0  0  0  0
   67.6541   32.6029   27.6477 C   0  0  0  0  0  0  0  0  0  0  0  0
   71.6533   33.0327   25.8020 C   0  0  0  0  0  0  0  0  0  0  0  0
   70.2420   35.4767   25.5422 C   0  0  0  0  0  0  0  0  0  0  0  0
   72.2952   34.2568   26.1058 C   0  0  0  0  0  0  0  0  0  0  0  0
   70.3070   33.0291   25.3661 C   0  0  0  0  0  0  0  0  0  0  0  0
   66.7795   35.0348   22.9892 C   0  0  0  0  0  0  0  0  0  0  0  0
   71.6019   35.4997   25.9899 C   0  0  0  0  0  0  0  0  0  0  0  0
   65.8437   33.8782   24.7192 C   0  0  0  0  0  0  0  0  0  0  0  0
   65.3899   32.7247   26.6061 C   0  0  0  0  0  0  0  0  0  0  0  0
   68.1930   34.3021   24.7494 C   0  0  0  0  0  0  0  0  0  0  0  0
   69.5750   34.2610   25.2216 C   0  0  0  0  0  0  0  0  0  0  0  0
   66.7492   32.9978   26.6040 C   0  0  0  0  0  0  0  0  0  0  0  0
   67.0585   33.7241   25.4069 C   0  0  0  0  0  0  0  0  0  0  0  0
   63.8986   33.2293   25.1918 H   0  0  0  0  0  0  0  0  0  0  0  0
   72.3443   38.6320   26.5114 H   0  0  0  0  0  0  0  0  0  0  0  0
   71.3961   38.0922   25.2963 H   0  0  0  0  0  0  0  0  0  0  0  0
   70.8973   37.9526   26.8450 H   0  0  0  0  0  0  0  0  0  0  0  0
   67.5694   36.0861   21.3997 H   0  0  0  0  0  0  0  0  0  0  0  0
   66.3117   35.1318   20.9823 H   0  0  0  0  0  0  0  0  0  0  0  0
   66.0448   36.5334   21.7767 H   0  0  0  0  0  0  0  0  0  0  0  0
   65.0932   31.6866   28.3435 H   0  0  0  0  0  0  0  0  0  0  0  0
   63.8264   32.6267   27.9216 H   0  0  0  0  0  0  0  0  0  0  0  0
   64.1019   31.2247   27.1309 H   0  0  0  0  0  0  0  0  0  0  0  0
   72.1510   32.1704   25.8953 H   0  0  0  0  0  0  0  0  0  0  0  0
   69.7463   36.3405   25.4521 H   0  0  0  0  0  0  0  0  0  0  0  0
  1 14  1  0  0  0  0
  2 15  1  0  0  0  0
  3  8  1  0  0  0  0
  3 17  1  0  0  0  0
  4 11  3  0  0  0  0
  5 16  1  0  0  0  0
  5 18  2  0  0  0  0
  6 16  2  0  0  0  0
  6 20  1  0  0  0  0
  7 18  1  0  0  0  0
  7 19  1  0  0  0  0
  9 16  1  0  0  0  0
 10 19  1  0  0  0  0
 11 22  1  0  0  0  0
 12 14  2  0  0  0  0
 12 15  1  0  0  0  0
 13 17  2  0  0  0  0
 13 21  1  0  0  0  0
 14 17  1  0  0  0  0
 15 21  2  0  0  0  0
 18 23  1  0  0  0  0
 19 22  2  0  0  0  0
 20 21  1  0  0  0  0
 20 23  2  0  0  0  0
 22 23  1  0  0  0  0
  7 24  1  0  0  0  0
  8 25  1  0  0  0  0
  8 26  1  0  0  0  0
  8 27  1  0  0  0  0
  9 28  1  0  0  0  0
  9 29  1  0  0  0  0
  9 30  1  0  0  0  0
 10 31  1  0  0  0  0
 10 32  1  0  0  0  0
 10 33  1  0  0  0  0
 12 34  1  0  0  0  0
 13 35  1  0  0  0  0
M  END
> <pdb_id>
3RLR

> <uniprot_id>
P07900

> <usmiles>
Clc1c(OC)cc(c(Cl)c1)c2nc(nc3NC(=C(C#N)c32)C)C

$$$$
3SE_A_217
          07192423263D 1   1.00000     0.00000     0
            
 39 41  0  0  0  0            999 V2000
   27.3664   -4.0542   -3.2235 S   0  0  0  0  0  0  0  0  0  0  0  0
   30.1363  -15.9679   -7.9055 F   0  0  0  0  0  0  0  0  0  0  0  0
   30.1263  -17.9164   -7.3173 F   0  0  0  0  0  0  0  0  0  0  0  0
   31.5093  -16.6140   -6.2802 F   0  0  0  0  0  0  0  0  0  0  0  0
   28.2725  -13.8592   -7.5108 O   0  0  0  0  0  0  0  0  0  0  0  0
   27.1367   -8.5863   -2.7660 O   0  0  0  0  0  0  0  0  0  0  0  0
   27.1413   -7.1905   -2.5898 N   0  0  0  0  0  0  0  0  0  0  0  0
   27.5836   -4.9668   -5.5183 N   0  0  0  0  0  0  0  0  0  0  0  0
   27.4312   -7.6984   -4.6992 N   0  0  0  0  0  0  0  0  0  0  0  0
   28.3443  -12.4480   -5.7916 N   0  0  0  0  0  0  0  0  0  0  0  0
   27.5296   -2.8304   -4.4604 C   0  0  0  0  0  0  0  0  0  0  0  0
   27.6558   -3.5823   -5.6330 C   0  0  0  0  0  0  0  0  0  0  0  0
   28.8107  -12.2390   -4.3676 C   0  0  0  0  0  0  0  0  0  0  0  0
   27.3765  -11.5597   -6.4401 C   0  0  0  0  0  0  0  0  0  0  0  0
   28.7138  -10.7800   -3.8879 C   0  0  0  0  0  0  0  0  0  0  0  0
   27.4766  -10.1317   -5.9559 C   0  0  0  0  0  0  0  0  0  0  0  0
   29.4901  -14.6372   -5.6073 C   0  0  0  0  0  0  0  0  0  0  0  0
   29.2286  -16.1854   -5.8862 C   0  0  0  0  0  0  0  0  0  0  0  0
   27.4073   -5.3875   -4.2599 C   0  0  0  0  0  0  0  0  0  0  0  0
   28.6805  -13.6045   -6.3851 C   0  0  0  0  0  0  0  0  0  0  0  0
   27.2979   -8.8294   -3.9766 C   0  0  0  0  0  0  0  0  0  0  0  0
   27.3446   -6.7337   -3.8184 C   0  0  0  0  0  0  0  0  0  0  0  0
   27.3988  -10.1963   -4.4267 C   0  0  0  0  0  0  0  0  0  0  0  0
   30.2914  -16.7194   -6.8271 C   0  0  0  0  0  0  0  0  0  0  0  0
   27.5322   -1.8359   -4.3554 H   0  0  0  0  0  0  0  0  0  0  0  0
   27.7927   -3.1414   -6.5201 H   0  0  0  0  0  0  0  0  0  0  0  0
   29.7656  -12.5289   -4.3032 H   0  0  0  0  0  0  0  0  0  0  0  0
   28.2488  -12.8064   -3.7657 H   0  0  0  0  0  0  0  0  0  0  0  0
   26.4549  -11.8979   -6.2496 H   0  0  0  0  0  0  0  0  0  0  0  0
   27.5399  -11.5749   -7.4265 H   0  0  0  0  0  0  0  0  0  0  0  0
   29.4887  -10.2542   -4.2387 H   0  0  0  0  0  0  0  0  0  0  0  0
   28.7154  -10.7495   -2.8883 H   0  0  0  0  0  0  0  0  0  0  0  0
   26.7202   -9.5880   -6.3194 H   0  0  0  0  0  0  0  0  0  0  0  0
   28.3453   -9.7279   -6.2426 H   0  0  0  0  0  0  0  0  0  0  0  0
   30.4551  -14.4621   -5.8024 H   0  0  0  0  0  0  0  0  0  0  0  0
   29.3124  -14.4793   -4.6359 H   0  0  0  0  0  0  0  0  0  0  0  0
   28.3269  -16.3009   -6.3029 H   0  0  0  0  0  0  0  0  0  0  0  0
   29.2642  -16.6897   -5.0234 H   0  0  0  0  0  0  0  0  0  0  0  0
   26.6124  -10.7360   -4.1262 H   0  0  0  0  0  0  0  0  0  0  0  0
  1 11  1  0  0  0  0
  1 19  1  0  0  0  0
  2 24  1  0  0  0  0
  3 24  1  0  0  0  0
  4 24  1  0  0  0  0
  5 20  2  0  0  0  0
  6  7  1  0  0  0  0
  6 21  1  0  0  0  0
  7 22  2  0  0  0  0
  8 12  1  0  0  0  0
  8 19  2  0  0  0  0
  9 21  2  0  0  0  0
  9 22  1  0  0  0  0
 10 13  1  0  0  0  0
 10 14  1  0  0  0  0
 10 20  1  0  0  0  0
 11 12  2  0  0  0  0
 13 15  1  0  0  0  0
 14 16  1  0  0  0  0
 15 23  1  0  0  0  0
 16 23  1  0  0  0  0
 17 18  1  0  0  0  0
 17 20  1  0  0  0  0
 18 24  1  0  0  0  0
 19 22  1  0  0  0  0
 21 23  1  0  0  0  0
 11 25  1  0  0  0  0
 12 26  1  0  0  0  0
 13 27  1  0  0  0  0
 13 28  1  0  0  0  0
 14 29  1  0  0  0  0
 14 30  1  0  0  0  0
 15 31  1  0  0  0  0
 15 32  1  0  0  0  0
 16 33  1  0  0  0  0
 16 34  1  0  0  0  0
 17 35  1  0  0  0  0
 17 36  1  0  0  0  0
 18 37  1  0  0  0  0
 18 38  1  0  0  0  0
 23 39  1  0  0  0  0
M  END
> <pdb_id>
3SDG

> <uniprot_id>
P96222

> <usmiles>
S1C(=NC=C1)C2=NOC(=N2)C3CCN(C(=O)CCC(F)(F)F)CC3

$$$$
3SF_A_217
          07192423263D 1   1.00000     0.00000     0
            
 42 44  0  0  0  0            999 V2000
   27.6994   -3.7605   -3.2339 S   0  0  0  0  0  0  0  0  0  0  0  0
   31.4366  -16.6006   -8.5657 F   0  0  0  0  0  0  0  0  0  0  0  0
   31.5432  -18.1398   -7.0767 F   0  0  0  0  0  0  0  0  0  0  0  0
   29.6565  -17.5986   -7.9475 F   0  0  0  0  0  0  0  0  0  0  0  0
   28.2297  -13.3012   -7.4437 O   0  0  0  0  0  0  0  0  0  0  0  0
   27.1524   -8.1443   -2.8168 O   0  0  0  0  0  0  0  0  0  0  0  0
   27.3247   -6.8084   -2.6584 N   0  0  0  0  0  0  0  0  0  0  0  0
   27.6397   -4.5910   -5.6159 N   0  0  0  0  0  0  0  0  0  0  0  0
   27.3083   -7.3703   -4.8227 N   0  0  0  0  0  0  0  0  0  0  0  0
   28.0850  -12.1772   -5.6132 N   0  0  0  0  0  0  0  0  0  0  0  0
   27.8656   -2.5254   -4.4534 C   0  0  0  0  0  0  0  0  0  0  0  0
   27.8058   -3.2145   -5.6616 C   0  0  0  0  0  0  0  0  0  0  0  0
   28.5270  -11.9393   -4.2143 C   0  0  0  0  0  0  0  0  0  0  0  0
   27.0758  -11.3695   -6.2929 C   0  0  0  0  0  0  0  0  0  0  0  0
   29.5559  -15.2699   -6.7245 C   0  0  0  0  0  0  0  0  0  0  0  0
   29.4034  -14.2269   -5.6419 C   0  0  0  0  0  0  0  0  0  0  0  0
   28.2075  -10.5416   -3.6842 C   0  0  0  0  0  0  0  0  0  0  0  0
   27.2932   -9.9429   -5.8755 C   0  0  0  0  0  0  0  0  0  0  0  0
   30.7063  -16.1847   -6.4066 C   0  0  0  0  0  0  0  0  0  0  0  0
   27.5682   -5.0451   -4.3434 C   0  0  0  0  0  0  0  0  0  0  0  0
   28.5489  -13.1837   -6.2937 C   0  0  0  0  0  0  0  0  0  0  0  0
   27.1541   -8.4598   -4.0334 C   0  0  0  0  0  0  0  0  0  0  0  0
   27.4034   -6.3713   -3.9389 C   0  0  0  0  0  0  0  0  0  0  0  0
   27.0406   -9.8724   -4.3787 C   0  0  0  0  0  0  0  0  0  0  0  0
   30.8301  -17.1500   -7.5454 C   0  0  0  0  0  0  0  0  0  0  0  0
   27.9786   -1.5414   -4.3156 H   0  0  0  0  0  0  0  0  0  0  0  0
   27.8802   -2.7325   -6.5346 H   0  0  0  0  0  0  0  0  0  0  0  0
   29.5172  -12.0719   -4.1715 H   0  0  0  0  0  0  0  0  0  0  0  0
   28.0753  -12.6089   -3.6247 H   0  0  0  0  0  0  0  0  0  0  0  0
   26.1601  -11.6690   -6.0251 H   0  0  0  0  0  0  0  0  0  0  0  0
   27.1783  -11.4559   -7.2838 H   0  0  0  0  0  0  0  0  0  0  0  0
   29.7269  -14.8157   -7.5988 H   0  0  0  0  0  0  0  0  0  0  0  0
   28.7145  -15.8067   -6.7867 H   0  0  0  0  0  0  0  0  0  0  0  0
   30.2916  -13.8504   -5.3785 H   0  0  0  0  0  0  0  0  0  0  0  0
   28.9512  -14.6093   -4.8361 H   0  0  0  0  0  0  0  0  0  0  0  0
   29.0169   -9.9668   -3.8046 H   0  0  0  0  0  0  0  0  0  0  0  0
   27.9934  -10.6158   -2.7102 H   0  0  0  0  0  0  0  0  0  0  0  0
   26.6562   -9.3429   -6.3596 H   0  0  0  0  0  0  0  0  0  0  0  0
   28.2322   -9.6653   -6.0784 H   0  0  0  0  0  0  0  0  0  0  0  0
   30.5265  -16.6790   -5.5561 H   0  0  0  0  0  0  0  0  0  0  0  0
   31.5495  -15.6554   -6.3127 H   0  0  0  0  0  0  0  0  0  0  0  0
   26.1587  -10.2644   -4.1169 H   0  0  0  0  0  0  0  0  0  0  0  0
  1 11  1  0  0  0  0
  1 20  1  0  0  0  0
  2 25  1  0  0  0  0
  3 25  1  0  0  0  0
  4 25  1  0  0  0  0
  5 21  2  0  0  0  0
  6  7  1  0  0  0  0
  6 22  1  0  0  0  0
  7 23  2  0  0  0  0
  8 12  1  0  0  0  0
  8 20  2  0  0  0  0
  9 22  2  0  0  0  0
  9 23  1  0  0  0  0
 10 13  1  0  0  0  0
 10 14  1  0  0  0  0
 10 21  1  0  0  0  0
 11 12  2  0  0  0  0
 13 17  1  0  0  0  0
 14 18  1  0  0  0  0
 15 16  1  0  0  0  0
 15 19  1  0  0  0  0
 16 21  1  0  0  0  0
 17 24  1  0  0  0  0
 18 24  1  0  0  0  0
 19 25  1  0  0  0  0
 20 23  1  0  0  0  0
 22 24  1  0  0  0  0
 11 26  1  0  0  0  0
 12 27  1  0  0  0  0
 13 28  1  0  0  0  0
 13 29  1  0  0  0  0
 14 30  1  0  0  0  0
 14 31  1  0  0  0  0
 15 32  1  0  0  0  0
 15 33  1  0  0  0  0
 16 34  1  0  0  0  0
 16 35  1  0  0  0  0
 17 36  1  0  0  0  0
 17 37  1  0  0  0  0
 18 38  1  0  0  0  0
 18 39  1  0  0  0  0
 19 40  1  0  0  0  0
 19 41  1  0  0  0  0
 24 42  1  0  0  0  0
M  END
> <pdb_id>
3SFI

> <uniprot_id>
P96222

> <usmiles>
S1C(=NC=C1)C2=NOC(=N2)C3CCN(C(=O)CCCC(F)(F)F)CC3

$$$$
3SW_A_500
          07202409333D 1   1.00000     0.00000     0
            
 60 61  0  0  0  0            999 V2000
  -20.3829   -9.2218  -30.3872 O   0  0  0  0  0  0  0  0  0  0  0  0
  -18.7230  -10.3319  -29.4433 O   0  0  0  0  0  0  0  0  0  0  0  0
  -17.0452   -0.6406  -34.8080 C   0  0  0  0  0  0  0  0  0  0  0  0
  -17.6902   -3.0148  -34.2249 C   0  0  0  0  0  0  0  0  0  0  0  0
  -20.3167   -6.4851  -30.2044 C   0  0  0  0  0  0  0  0  0  0  0  0
  -17.4558   -1.3154  -26.6532 C   0  0  0  0  0  0  0  0  0  0  0  0
  -18.6271   -4.5858  -28.4164 C   0  0  0  0  0  0  0  0  0  0  0  0
  -20.5929    1.1077  -28.9733 C   0  0  0  0  0  0  0  0  0  0  0  0
  -19.0900   -5.8287  -28.0027 C   0  0  0  0  0  0  0  0  0  0  0  0
  -18.2134   -3.5885  -27.4229 C   0  0  0  0  0  0  0  0  0  0  0  0
  -19.7831   -0.0699  -28.4238 C   0  0  0  0  0  0  0  0  0  0  0  0
  -17.1388   -1.3415  -32.3856 C   0  0  0  0  0  0  0  0  0  0  0  0
  -19.8182    1.8854  -30.0409 C   0  0  0  0  0  0  0  0  0  0  0  0
  -20.1137    2.8012  -32.8415 C   0  0  0  0  0  0  0  0  0  0  0  0
  -20.8093    1.5124  -33.2885 C   0  0  0  0  0  0  0  0  0  0  0  0
  -18.6332   -1.3388  -32.0558 C   0  0  0  0  0  0  0  0  0  0  0  0
  -19.1212   -8.1739  -28.7086 C   0  0  0  0  0  0  0  0  0  0  0  0
  -18.0802   -1.7829  -29.1325 C   0  0  0  0  0  0  0  0  0  0  0  0
  -19.4386   -9.3152  -29.5716 C   0  0  0  0  0  0  0  0  0  0  0  0
  -16.8566   -1.7951  -33.8218 C   0  0  0  0  0  0  0  0  0  0  0  0
  -19.4964   -6.8577  -28.9667 C   0  0  0  0  0  0  0  0  0  0  0  0
  -17.9463   -2.2630  -27.7510 C   0  0  0  0  0  0  0  0  0  0  0  0
  -19.4385    1.4462  -32.6123 C   0  0  0  0  0  0  0  0  0  0  0  0
  -18.9492   -0.7628  -29.5080 C   0  0  0  0  0  0  0  0  0  0  0  0
  -19.4216    0.9313  -31.1702 C   0  0  0  0  0  0  0  0  0  0  0  0
  -19.0021   -0.3744  -30.9238 C   0  0  0  0  0  0  0  0  0  0  0  0
  -20.9172   -8.3781  -30.4392 H   0  0  0  0  0  0  0  0  0  0  0  0
  -16.4898    0.1391  -34.5187 H   0  0  0  0  0  0  0  0  0  0  0  0
  -16.7604   -0.9322  -35.7211 H   0  0  0  0  0  0  0  0  0  0  0  0
  -18.0088   -0.3740  -34.8287 H   0  0  0  0  0  0  0  0  0  0  0  0
  -17.5461   -3.7505  -33.5631 H   0  0  0  0  0  0  0  0  0  0  0  0
  -18.6586   -2.7661  -34.2413 H   0  0  0  0  0  0  0  0  0  0  0  0
  -17.4101   -3.3244  -35.1337 H   0  0  0  0  0  0  0  0  0  0  0  0
  -20.5000   -7.3075  -30.7428 H   0  0  0  0  0  0  0  0  0  0  0  0
  -21.1824   -6.0737  -29.9190 H   0  0  0  0  0  0  0  0  0  0  0  0
  -19.8036   -5.8306  -30.7597 H   0  0  0  0  0  0  0  0  0  0  0  0
  -17.3087   -0.4050  -27.0399 H   0  0  0  0  0  0  0  0  0  0  0  0
  -18.1419   -1.2624  -25.9276 H   0  0  0  0  0  0  0  0  0  0  0  0
  -16.5965   -1.6597  -26.2750 H   0  0  0  0  0  0  0  0  0  0  0  0
  -18.5758   -4.3708  -29.3917 H   0  0  0  0  0  0  0  0  0  0  0  0
  -20.8151    1.7267  -28.2200 H   0  0  0  0  0  0  0  0  0  0  0  0
  -21.4380    0.7580  -29.3778 H   0  0  0  0  0  0  0  0  0  0  0  0
  -19.1477   -6.0269  -27.0242 H   0  0  0  0  0  0  0  0  0  0  0  0
  -18.1193   -3.8736  -26.4690 H   0  0  0  0  0  0  0  0  0  0  0  0
  -20.4145   -0.7373  -28.0288 H   0  0  0  0  0  0  0  0  0  0  0  0
  -19.1673    0.2682  -27.7121 H   0  0  0  0  0  0  0  0  0  0  0  0
  -16.6723   -1.9623  -31.7555 H   0  0  0  0  0  0  0  0  0  0  0  0
  -16.7822   -0.4150  -32.2658 H   0  0  0  0  0  0  0  0  0  0  0  0
  -18.9955    2.2826  -29.6342 H   0  0  0  0  0  0  0  0  0  0  0  0
  -20.3949    2.6157  -30.4071 H   0  0  0  0  0  0  0  0  0  0  0  0
  -20.4718    3.3193  -32.0648 H   0  0  0  0  0  0  0  0  0  0  0  0
  -19.7467    3.4338  -33.5235 H   0  0  0  0  0  0  0  0  0  0  0  0
  -20.8969    1.3036  -34.2625 H   0  0  0  0  0  0  0  0  0  0  0  0
  -21.6220    1.1890  -32.8038 H   0  0  0  0  0  0  0  0  0  0  0  0
  -18.9001   -2.2636  -31.7845 H   0  0  0  0  0  0  0  0  0  0  0  0
  -19.1389   -1.0732  -32.8766 H   0  0  0  0  0  0  0  0  0  0  0  0
  -18.5982   -8.3529  -27.8753 H   0  0  0  0  0  0  0  0  0  0  0  0
  -17.5178   -2.2111  -29.8398 H   0  0  0  0  0  0  0  0  0  0  0  0
  -15.8950   -2.0663  -33.8634 H   0  0  0  0  0  0  0  0  0  0  0  0
  -18.6529    1.2217  -33.1888 H   0  0  0  0  0  0  0  0  0  0  0  0
  1 19  1  0  0  0  0
  2 19  2  0  0  0  0
  3 20  1  0  0  0  0
  4 20  1  0  0  0  0
  5 21  1  0  0  0  0
  6 22  1  0  0  0  0
  7  9  2  0  0  0  0
  7 10  1  0  0  0  0
  8 11  1  0  0  0  0
  8 13  1  0  0  0  0
  9 21  1  0  0  0  0
 10 22  2  0  0  0  0
 11 24  1  0  0  0  0
 12 16  1  0  0  0  0
 12 20  1  0  0  0  0
 13 25  1  0  0  0  0
 14 15  1  0  0  0  0
 14 23  1  0  0  0  0
 15 23  1  0  0  0  0
 16 26  1  0  0  0  0
 17 19  1  0  0  0  0
 17 21  2  0  0  0  0
 18 22  1  0  0  0  0
 18 24  2  0  0  0  0
 23 25  1  0  0  0  0
 24 26  1  0  0  0  0
 25 26  2  0  0  0  0
  1 27  1  0  0  0  0
  3 28  1  0  0  0  0
  3 29  1  0  0  0  0
  3 30  1  0  0  0  0
  4 31  1  0  0  0  0
  4 32  1  0  0  0  0
  4 33  1  0  0  0  0
  5 34  1  0  0  0  0
  5 35  1  0  0  0  0
  5 36  1  0  0  0  0
  6 37  1  0  0  0  0
  6 38  1  0  0  0  0
  6 39  1  0  0  0  0
  7 40  1  0  0  0  0
  8 41  1  0  0  0  0
  8 42  1  0  0  0  0
  9 43  1  0  0  0  0
 10 44  1  0  0  0  0
 11 45  1  0  0  0  0
 11 46  1  0  0  0  0
 12 47  1  0  0  0  0
 12 48  1  0  0  0  0
 13 49  1  0  0  0  0
 13 50  1  0  0  0  0
 14 51  1  0  0  0  0
 14 52  1  0  0  0  0
 15 53  1  0  0  0  0
 15 54  1  0  0  0  0
 16 55  1  0  0  0  0
 16 56  1  0  0  0  0
 17 57  1  0  0  0  0
 18 58  1  0  0  0  0
 20 59  1  0  0  0  0
 23 60  1  0  0  0  0
M  END
> <pdb_id>
4RMD

> <uniprot_id>
P19793

> <usmiles>
O=C(O)/C=C(/C=C/C=C(\C=C/1\C(=C(C2CC2)CCC1)CCC(C)C)/C)\C

$$$$
3T0_A_2
          07202408433D 1   1.00000     0.00000     0
            
 43 45  0  0  0  0            999 V2000
   24.0484    8.1015   12.9706 Br  0  0  0  0  0  0  0  0  0  0  0  0
   18.6680    4.5186   14.5948 S   0  0  0  0  0  0  0  0  0  0  0  0
   17.1461    3.6719   16.6202 O   0  0  0  0  0  0  0  0  0  0  0  0
   15.9115    6.8071   13.2278 O   0  0  0  0  0  0  0  0  0  0  0  0
   18.7339    6.2477   10.1733 O   0  0  0  0  0  0  0  0  0  0  0  0
   16.2707    5.2601   15.0971 N   0  0  0  0  0  0  0  0  0  0  0  0
   18.4942    6.5960    8.8637 C   0  0  0  0  0  0  0  0  0  0  0  0
   10.6184    1.9499   13.4110 C   0  0  0  0  0  0  0  0  0  0  0  0
   14.9272    5.4854   15.6158 C   0  0  0  0  0  0  0  0  0  0  0  0
   22.3557    7.2198   10.7267 C   0  0  0  0  0  0  0  0  0  0  0  0
   21.1431    6.8618    9.9986 C   0  0  0  0  0  0  0  0  0  0  0  0
   12.7842    3.4844   13.0081 C   0  0  0  0  0  0  0  0  0  0  0  0
   11.7974    3.2178   15.3242 C   0  0  0  0  0  0  0  0  0  0  0  0
   13.8748    4.3291   13.5418 C   0  0  0  0  0  0  0  0  0  0  0  0
   12.8868    4.0971   15.8807 C   0  0  0  0  0  0  0  0  0  0  0  0
   21.0761    7.2402   13.0266 C   0  0  0  0  0  0  0  0  0  0  0  0
   18.4310    6.5382   12.4568 C   0  0  0  0  0  0  0  0  0  0  0  0
   17.2594    4.4027   15.6646 C   0  0  0  0  0  0  0  0  0  0  0  0
   22.3742    7.4774   12.1622 C   0  0  0  0  0  0  0  0  0  0  0  0
   17.9733    5.7230   13.5885 C   0  0  0  0  0  0  0  0  0  0  0  0
   16.6063    5.9621   13.9390 C   0  0  0  0  0  0  0  0  0  0  0  0
   19.8860    6.6695   10.7782 C   0  0  0  0  0  0  0  0  0  0  0  0
   11.7316    2.8891   13.8961 C   0  0  0  0  0  0  0  0  0  0  0  0
   13.9072    4.6124   14.9991 C   0  0  0  0  0  0  0  0  0  0  0  0
   19.8475    6.8991   12.2483 C   0  0  0  0  0  0  0  0  0  0  0  0
   16.3141    7.2245   12.4131 H   0  0  0  0  0  0  0  0  0  0  0  0
   17.6177    6.2131    8.5720 H   0  0  0  0  0  0  0  0  0  0  0  0
   18.4659    7.5923    8.7836 H   0  0  0  0  0  0  0  0  0  0  0  0
   19.2249    6.2355    8.2839 H   0  0  0  0  0  0  0  0  0  0  0  0
   10.0429    1.6872   14.1855 H   0  0  0  0  0  0  0  0  0  0  0  0
   10.0614    2.4191   12.7258 H   0  0  0  0  0  0  0  0  0  0  0  0
   11.0258    1.1314   13.0058 H   0  0  0  0  0  0  0  0  0  0  0  0
   14.6761    6.4378   15.4428 H   0  0  0  0  0  0  0  0  0  0  0  0
   14.9353    5.3165   16.6014 H   0  0  0  0  0  0  0  0  0  0  0  0
   23.2137    7.2919   10.2181 H   0  0  0  0  0  0  0  0  0  0  0  0
   21.1544    6.7486    9.0051 H   0  0  0  0  0  0  0  0  0  0  0  0
   12.7472    3.3045   12.0251 H   0  0  0  0  0  0  0  0  0  0  0  0
   11.1030    2.8498   15.9426 H   0  0  0  0  0  0  0  0  0  0  0  0
   14.5759    4.7017   12.9338 H   0  0  0  0  0  0  0  0  0  0  0  0
   12.9029    4.3225   16.8549 H   0  0  0  0  0  0  0  0  0  0  0  0
   21.0757    7.3129   14.0239 H   0  0  0  0  0  0  0  0  0  0  0  0
   17.9326    7.4028   12.5203 H   0  0  0  0  0  0  0  0  0  0  0  0
   18.1466    6.0494   11.6320 H   0  0  0  0  0  0  0  0  0  0  0  0
  1 19  1  0  0  0  0
  2 18  1  0  0  0  0
  2 20  1  0  0  0  0
  3 18  2  0  0  0  0
  4 21  1  0  0  0  0
  5  7  1  0  0  0  0
  5 22  1  0  0  0  0
  6  9  1  0  0  0  0
  6 18  1  0  0  0  0
  6 21  1  0  0  0  0
  8 23  1  0  0  0  0
  9 24  1  0  0  0  0
 10 11  2  0  0  0  0
 10 19  1  0  0  0  0
 11 22  1  0  0  0  0
 12 14  1  0  0  0  0
 12 23  2  0  0  0  0
 13 15  2  0  0  0  0
 13 23  1  0  0  0  0
 14 24  2  0  0  0  0
 15 24  1  0  0  0  0
 16 19  2  0  0  0  0
 16 25  1  0  0  0  0
 17 20  1  0  0  0  0
 17 25  1  0  0  0  0
 20 21  2  0  0  0  0
 22 25  2  0  0  0  0
  4 26  1  0  0  0  0
  7 27  1  0  0  0  0
  7 28  1  0  0  0  0
  7 29  1  0  0  0  0
  8 30  1  0  0  0  0
  8 31  1  0  0  0  0
  8 32  1  0  0  0  0
  9 33  1  0  0  0  0
  9 34  1  0  0  0  0
 10 35  1  0  0  0  0
 11 36  1  0  0  0  0
 12 37  1  0  0  0  0
 13 38  1  0  0  0  0
 14 39  1  0  0  0  0
 15 40  1  0  0  0  0
 16 41  1  0  0  0  0
 17 42  1  0  0  0  0
 17 43  1  0  0  0  0
M  END
> <pdb_id>
3T03

> <uniprot_id>
P37231

> <usmiles>
Brc1cc(c(OC)cc1)CC=2SC(=O)N(C2O)Cc3ccc(cc3)C

$$$$
3TJ_B_400
          07202410513D 1   1.00000     0.00000     0
            
 26 27  0  0  0  0            999 V2000
   33.8208  167.3355  -30.4930 S   0  0  0  0  0  0  0  0  0  0  0  0
   30.6085  164.5179  -27.6551 F   0  0  0  0  0  0  0  0  0  0  0  0
   35.2355  166.5225  -30.3373 O   0  0  0  0  0  0  0  0  0  0  0  0
   32.9784  166.9405  -31.8280 O   0  0  0  0  0  0  0  0  0  0  0  0
   34.0958  168.8678  -30.5793 N   0  0  0  0  0  0  0  0  0  0  0  0
   33.7309  169.2980  -28.1462 N   0  0  0  0  0  0  0  0  0  0  0  0
   32.2967  171.0678  -27.0466 C   0  0  0  0  0  0  0  0  0  0  0  0
   34.6645  169.4675  -29.3184 C   0  0  0  0  0  0  0  0  0  0  0  0
   33.6469  170.3564  -27.1581 C   0  0  0  0  0  0  0  0  0  0  0  0
   31.3708  166.6754  -26.6803 C   0  0  0  0  0  0  0  0  0  0  0  0
   32.1237  167.8196  -26.8110 C   0  0  0  0  0  0  0  0  0  0  0  0
   32.0895  165.8343  -28.9237 C   0  0  0  0  0  0  0  0  0  0  0  0
   32.8453  167.0053  -29.0410 C   0  0  0  0  0  0  0  0  0  0  0  0
   31.3602  165.6419  -27.7752 C   0  0  0  0  0  0  0  0  0  0  0  0
   32.8723  168.0223  -27.9761 C   0  0  0  0  0  0  0  0  0  0  0  0
   33.2330  169.3298  -30.7845 H   0  0  0  0  0  0  0  0  0  0  0  0
   32.3494  171.7742  -26.3407 H   0  0  0  0  0  0  0  0  0  0  0  0
   32.0687  171.4898  -27.9241 H   0  0  0  0  0  0  0  0  0  0  0  0
   31.5896  170.4043  -26.8021 H   0  0  0  0  0  0  0  0  0  0  0  0
   34.8231  170.4435  -29.4673 H   0  0  0  0  0  0  0  0  0  0  0  0
   35.5323  169.0170  -29.1087 H   0  0  0  0  0  0  0  0  0  0  0  0
   34.3363  171.0437  -27.3872 H   0  0  0  0  0  0  0  0  0  0  0  0
   33.8571  169.9582  -26.2652 H   0  0  0  0  0  0  0  0  0  0  0  0
   30.8277  166.5294  -25.8534 H   0  0  0  0  0  0  0  0  0  0  0  0
   32.1359  168.5011  -26.0793 H   0  0  0  0  0  0  0  0  0  0  0  0
   32.0802  165.1545  -29.6570 H   0  0  0  0  0  0  0  0  0  0  0  0
  1  3  2  0  0  0  0
  1  4  2  0  0  0  0
  1  5  1  0  0  0  0
  1 13  1  0  0  0  0
  2 14  1  0  0  0  0
  5  8  1  0  0  0  0
  6  8  1  0  0  0  0
  6  9  1  0  0  0  0
  6 15  1  0  0  0  0
  7  9  1  0  0  0  0
 10 11  1  0  0  0  0
 10 14  2  0  0  0  0
 11 15  2  0  0  0  0
 12 13  2  0  0  0  0
 12 14  1  0  0  0  0
 13 15  1  0  0  0  0
  5 16  1  0  0  0  0
  7 17  1  0  0  0  0
  7 18  1  0  0  0  0
  7 19  1  0  0  0  0
  8 20  1  0  0  0  0
  8 21  1  0  0  0  0
  9 22  1  0  0  0  0
  9 23  1  0  0  0  0
 10 24  1  0  0  0  0
 11 25  1  0  0  0  0
 12 26  1  0  0  0  0
M  END
> <pdb_id>
3TDJ

> <uniprot_id>
P19491

> <usmiles>
S1(=O)(=O)NCN(c2c1cc(F)cc2)CC

$$$$
3TV_A_306
          07192416293D 1   1.00000     0.00000     0
            
 27 27  0  0  0  0            999 V2000
   -4.5729    5.4787   12.9094 S   0  0  0  0  0  0  0  0  0  0  0  0
   -6.0234    0.8882   17.0127 S   0  0  0  0  0  0  0  0  0  0  0  0
   -6.2095    5.6426   15.3251 F   0  0  0  0  0  0  0  0  0  0  0  0
   -3.6315    2.5861   12.9064 F   0  0  0  0  0  0  0  0  0  0  0  0
   -6.8368    3.7309   17.0352 F   0  0  0  0  0  0  0  0  0  0  0  0
   -4.2258    0.6870   14.5644 F   0  0  0  0  0  0  0  0  0  0  0  0
   -7.4523    0.9555   16.9392 O   0  0  0  0  0  0  0  0  0  0  0  0
   -5.3751    1.2046   18.2520 O   0  0  0  0  0  0  0  0  0  0  0  0
   -5.5358   -0.4730   16.4536 N   0  0  0  0  0  0  0  0  0  0  0  0
   -2.2792    7.1021   14.5647 C   0  0  0  0  0  0  0  0  0  0  0  0
   -2.8028    5.4696   12.7537 C   0  0  0  0  0  0  0  0  0  0  0  0
   -2.1545    5.7332   14.0264 C   0  0  0  0  0  0  0  0  0  0  0  0
   -4.9054    4.1919   14.0592 C   0  0  0  0  0  0  0  0  0  0  0  0
   -5.5559    2.1470   15.8812 C   0  0  0  0  0  0  0  0  0  0  0  0
   -5.6861    4.4119   15.1332 C   0  0  0  0  0  0  0  0  0  0  0  0
   -4.4071    2.8987   13.9237 C   0  0  0  0  0  0  0  0  0  0  0  0
   -6.0153    3.4050   15.9760 C   0  0  0  0  0  0  0  0  0  0  0  0
   -4.7453    1.8762   14.8236 C   0  0  0  0  0  0  0  0  0  0  0  0
   -4.5381   -0.5169   16.5063 H   0  0  0  0  0  0  0  0  0  0  0  0
   -5.9311   -1.2160   16.9936 H   0  0  0  0  0  0  0  0  0  0  0  0
   -1.7959    7.1621   15.4381 H   0  0  0  0  0  0  0  0  0  0  0  0
   -1.8805    7.7522   13.9179 H   0  0  0  0  0  0  0  0  0  0  0  0
   -3.2455    7.3193   14.7028 H   0  0  0  0  0  0  0  0  0  0  0  0
   -2.5307    6.1743   12.0985 H   0  0  0  0  0  0  0  0  0  0  0  0
   -2.5106    4.5734   12.4199 H   0  0  0  0  0  0  0  0  0  0  0  0
   -2.5448    5.1061   14.7005 H   0  0  0  0  0  0  0  0  0  0  0  0
   -1.1798    5.5390   13.9156 H   0  0  0  0  0  0  0  0  0  0  0  0
  1 11  1  0  0  0  0
  1 13  1  0  0  0  0
  2  7  2  0  0  0  0
  2  8  2  0  0  0  0
  2  9  1  0  0  0  0
  2 14  1  0  0  0  0
  3 15  1  0  0  0  0
  4 16  1  0  0  0  0
  5 17  1  0  0  0  0
  6 18  1  0  0  0  0
 10 12  1  0  0  0  0
 11 12  1  0  0  0  0
 13 15  2  0  0  0  0
 13 16  1  0  0  0  0
 14 17  2  0  0  0  0
 14 18  1  0  0  0  0
 15 17  1  0  0  0  0
 16 18  2  0  0  0  0
  9 19  1  0  0  0  0
  9 20  1  0  0  0  0
 10 21  1  0  0  0  0
 10 22  1  0  0  0  0
 10 23  1  0  0  0  0
 11 24  1  0  0  0  0
 11 25  1  0  0  0  0
 12 26  1  0  0  0  0
 12 27  1  0  0  0  0
M  END
> <pdb_id>
4WW6

> <uniprot_id>
P00918

> <usmiles>
S(=O)(=O)(N)c1c(F)c(F)c(SCCC)c(F)c1F

$$$$
3TV_B_302
          07212403053D 1   1.00000     0.00000     0
            
 27 27  0  0  0  0            999 V2000
    0.0615   70.8643   53.4651 S   0  0  0  0  0  0  0  0  0  0  0  0
    3.3932   72.3313   58.7328 S   0  0  0  0  0  0  0  0  0  0  0  0
    1.3323   73.5160   54.2909 F   0  0  0  0  0  0  0  0  0  0  0  0
    0.8826   68.9174   55.7005 F   0  0  0  0  0  0  0  0  0  0  0  0
    2.7059   74.0603   56.4283 F   0  0  0  0  0  0  0  0  0  0  0  0
    2.2517   69.4588   57.8590 F   0  0  0  0  0  0  0  0  0  0  0  0
    3.6317   71.0773   59.4360 O   0  0  0  0  0  0  0  0  0  0  0  0
    2.5295   73.3685   59.2938 O   0  0  0  0  0  0  0  0  0  0  0  0
    4.8372   72.9175   58.2383 N   0  0  0  0  0  0  0  0  0  0  0  0
   -2.9808   71.4410   52.7373 C   0  0  0  0  0  0  0  0  0  0  0  0
   -1.4297   70.0094   54.1850 C   0  0  0  0  0  0  0  0  0  0  0  0
   -2.5516   70.0208   53.1342 C   0  0  0  0  0  0  0  0  0  0  0  0
    1.0511   71.1538   54.9395 C   0  0  0  0  0  0  0  0  0  0  0  0
    2.5433   71.8122   57.2292 C   0  0  0  0  0  0  0  0  0  0  0  0
    1.5121   72.4586   55.1090 C   0  0  0  0  0  0  0  0  0  0  0  0
    1.2928   70.1992   55.8580 C   0  0  0  0  0  0  0  0  0  0  0  0
    2.2818   72.7622   56.2571 C   0  0  0  0  0  0  0  0  0  0  0  0
    2.0279   70.4952   57.0238 C   0  0  0  0  0  0  0  0  0  0  0  0
    4.6979   73.7801   57.7519 H   0  0  0  0  0  0  0  0  0  0  0  0
    5.4233   73.0740   59.0333 H   0  0  0  0  0  0  0  0  0  0  0  0
   -3.7096   71.3903   52.0545 H   0  0  0  0  0  0  0  0  0  0  0  0
   -3.3144   71.9264   53.5454 H   0  0  0  0  0  0  0  0  0  0  0  0
   -2.1980   71.9309   52.3536 H   0  0  0  0  0  0  0  0  0  0  0  0
   -1.7319   70.4927   55.0066 H   0  0  0  0  0  0  0  0  0  0  0  0
   -1.1969   69.0657   54.4200 H   0  0  0  0  0  0  0  0  0  0  0  0
   -2.2283   69.5445   52.3165 H   0  0  0  0  0  0  0  0  0  0  0  0
   -3.3446   69.5401   53.5083 H   0  0  0  0  0  0  0  0  0  0  0  0
  1 11  1  0  0  0  0
  1 13  1  0  0  0  0
  2  7  2  0  0  0  0
  2  8  2  0  0  0  0
  2  9  1  0  0  0  0
  2 14  1  0  0  0  0
  3 15  1  0  0  0  0
  4 16  1  0  0  0  0
  5 17  1  0  0  0  0
  6 18  1  0  0  0  0
 10 12  1  0  0  0  0
 11 12  1  0  0  0  0
 13 15  2  0  0  0  0
 13 16  1  0  0  0  0
 14 17  2  0  0  0  0
 14 18  1  0  0  0  0
 15 17  1  0  0  0  0
 16 18  2  0  0  0  0
  9 19  1  0  0  0  0
  9 20  1  0  0  0  0
 10 21  1  0  0  0  0
 10 22  1  0  0  0  0
 10 23  1  0  0  0  0
 11 24  1  0  0  0  0
 11 25  1  0  0  0  0
 12 26  1  0  0  0  0
 12 27  1  0  0  0  0
M  END
> <pdb_id>
4WR7

> <uniprot_id>
P00915

> <usmiles>
S(=O)(=O)(N)c1c(F)c(F)c(SCCC)c(F)c1F

$$$$
3TV_C_302
          07192419453D 1   1.00000     0.00000     0
            
 27 27  0  0  0  0            999 V2000
    3.8799   13.1192  -37.3475 S   0  0  0  0  0  0  0  0  0  0  0  0
    6.6457    7.5387  -36.1394 S   0  0  0  0  0  0  0  0  0  0  0  0
    5.4237   11.5068  -39.1360 F   0  0  0  0  0  0  0  0  0  0  0  0
    3.8001   11.4730  -34.7050 F   0  0  0  0  0  0  0  0  0  0  0  0
    6.6493    9.2611  -38.7447 F   0  0  0  0  0  0  0  0  0  0  0  0
    4.9803    9.1803  -34.3063 F   0  0  0  0  0  0  0  0  0  0  0  0
    5.5284    6.6495  -36.0272 O   0  0  0  0  0  0  0  0  0  0  0  0
    7.3676    7.7478  -34.9581 O   0  0  0  0  0  0  0  0  0  0  0  0
    7.5478    7.0668  -37.3419 N   0  0  0  0  0  0  0  0  0  0  0  0
    1.5508   14.6410  -35.4800 C   0  0  0  0  0  0  0  0  0  0  0  0
    2.1201   12.6839  -36.9483 C   0  0  0  0  0  0  0  0  0  0  0  0
    1.6272   13.1476  -35.5655 C   0  0  0  0  0  0  0  0  0  0  0  0
    4.5589   11.5260  -36.9829 C   0  0  0  0  0  0  0  0  0  0  0  0
    5.8952    9.1074  -36.4944 C   0  0  0  0  0  0  0  0  0  0  0  0
    5.3275   10.9306  -37.9244 C   0  0  0  0  0  0  0  0  0  0  0  0
    4.4834   10.9274  -35.7258 C   0  0  0  0  0  0  0  0  0  0  0  0
    5.9895    9.7437  -37.6978 C   0  0  0  0  0  0  0  0  0  0  0  0
    5.1283    9.7358  -35.4964 C   0  0  0  0  0  0  0  0  0  0  0  0
    8.3324    7.6804  -37.4309 H   0  0  0  0  0  0  0  0  0  0  0  0
    7.8704    6.1358  -37.1714 H   0  0  0  0  0  0  0  0  0  0  0  0
    1.2282   14.9068  -34.5715 H   0  0  0  0  0  0  0  0  0  0  0  0
    2.4579   15.0307  -35.6389 H   0  0  0  0  0  0  0  0  0  0  0  0
    0.9154   14.9824  -36.1725 H   0  0  0  0  0  0  0  0  0  0  0  0
    2.0303   11.6888  -36.9910 H   0  0  0  0  0  0  0  0  0  0  0  0
    1.5332   13.1016  -37.6419 H   0  0  0  0  0  0  0  0  0  0  0  0
    0.7177   12.7661  -35.4004 H   0  0  0  0  0  0  0  0  0  0  0  0
    2.2602   12.8144  -34.8668 H   0  0  0  0  0  0  0  0  0  0  0  0
  1 11  1  0  0  0  0
  1 13  1  0  0  0  0
  2  7  2  0  0  0  0
  2  8  2  0  0  0  0
  2  9  1  0  0  0  0
  2 14  1  0  0  0  0
  3 15  1  0  0  0  0
  4 16  1  0  0  0  0
  5 17  1  0  0  0  0
  6 18  1  0  0  0  0
 10 12  1  0  0  0  0
 11 12  1  0  0  0  0
 13 15  2  0  0  0  0
 13 16  1  0  0  0  0
 14 17  2  0  0  0  0
 14 18  1  0  0  0  0
 15 17  1  0  0  0  0
 16 18  2  0  0  0  0
  9 19  1  0  0  0  0
  9 20  1  0  0  0  0
 10 21  1  0  0  0  0
 10 22  1  0  0  0  0
 10 23  1  0  0  0  0
 11 24  1  0  0  0  0
 11 25  1  0  0  0  0
 12 26  1  0  0  0  0
 12 27  1  0  0  0  0
M  END
> <pdb_id>
5MSA

> <uniprot_id>
O43570

> <usmiles>
S(=O)(=O)(N)c1c(F)c(F)c(SCCC)c(F)c1F

$$$$
3TW_A_201
          07202405323D 1   1.00000     0.00000     0
            
 45 48  0  0  0  0            999 V2000
  -16.6720   -2.7910    4.7230 O   0  0  0  0  0  0  0  0  0  0  0  0
   -6.7870   -0.0090   -9.3320 O   0  0  0  0  0  0  0  0  0  0  0  0
   -9.2110    0.6110   -8.0710 O   0  0  0  0  0  0  0  0  0  0  0  0
  -15.8820   -2.0300   -1.5950 N   0  0  0  0  0  0  0  0  0  0  0  0
  -15.1290   -1.6580   -2.6290 N   0  0  0  0  0  0  0  0  0  0  0  0
  -13.0580   -0.9610   -4.4630 N   0  0  0  0  0  0  0  0  0  0  0  0
  -15.1230   -1.8390   -0.4830 N   0  0  0  0  0  0  0  0  0  0  0  0
   -5.6500   -0.0880  -10.1920 C   0  0  0  0  0  0  0  0  0  0  0  0
   -7.1100    1.3260   -8.9510 C   0  0  0  0  0  0  0  0  0  0  0  0
   -7.9780    1.2410   -7.7110 C   0  0  0  0  0  0  0  0  0  0  0  0
  -13.8990   -1.3390   -0.8060 C   0  0  0  0  0  0  0  0  0  0  0  0
  -14.9960   -2.7350    3.1010 C   0  0  0  0  0  0  0  0  0  0  0  0
  -17.2530   -2.1470    2.5320 C   0  0  0  0  0  0  0  0  0  0  0  0
  -11.3180   -0.3660   -7.5800 C   0  0  0  0  0  0  0  0  0  0  0  0
  -12.3010   -0.7640   -6.6840 C   0  0  0  0  0  0  0  0  0  0  0  0
  -11.7190   -0.2070   -2.6480 C   0  0  0  0  0  0  0  0  0  0  0  0
  -14.6000   -2.5140    1.7900 C   0  0  0  0  0  0  0  0  0  0  0  0
  -16.8750   -1.9190    1.2180 C   0  0  0  0  0  0  0  0  0  0  0  0
  -10.7180    0.1970   -3.5170 C   0  0  0  0  0  0  0  0  0  0  0  0
   -9.9210    0.4240   -5.7640 C   0  0  0  0  0  0  0  0  0  0  0  0
  -16.3180   -2.5650    3.4490 C   0  0  0  0  0  0  0  0  0  0  0  0
  -10.1360    0.2260   -7.1290 C   0  0  0  0  0  0  0  0  0  0  0  0
  -13.9100   -1.2320   -2.1790 C   0  0  0  0  0  0  0  0  0  0  0  0
  -12.8850   -0.7840   -3.1450 C   0  0  0  0  0  0  0  0  0  0  0  0
  -12.0930   -0.5700   -5.3270 C   0  0  0  0  0  0  0  0  0  0  0  0
  -15.5400   -2.0870    0.8520 C   0  0  0  0  0  0  0  0  0  0  0  0
  -10.9040    0.0160   -4.8710 C   0  0  0  0  0  0  0  0  0  0  0  0
  -17.6244   -2.6758    5.0053 H   0  0  0  0  0  0  0  0  0  0  0  0
   -5.4733   -1.0445  -10.4240 H   0  0  0  0  0  0  0  0  0  0  0  0
   -5.8280    0.4304  -11.0284 H   0  0  0  0  0  0  0  0  0  0  0  0
   -4.8523    0.2948   -9.7260 H   0  0  0  0  0  0  0  0  0  0  0  0
   -7.6093    1.7813   -9.6881 H   0  0  0  0  0  0  0  0  0  0  0  0
   -6.2741    1.8366   -8.7497 H   0  0  0  0  0  0  0  0  0  0  0  0
   -7.5139    0.7005   -7.0093 H   0  0  0  0  0  0  0  0  0  0  0  0
   -8.1573    2.1599   -7.3596 H   0  0  0  0  0  0  0  0  0  0  0  0
  -13.1543   -1.1012   -0.1825 H   0  0  0  0  0  0  0  0  0  0  0  0
  -14.3265   -3.0158    3.7887 H   0  0  0  0  0  0  0  0  0  0  0  0
  -18.2029   -2.0079    2.8120 H   0  0  0  0  0  0  0  0  0  0  0  0
  -11.4579   -0.5049   -8.5604 H   0  0  0  0  0  0  0  0  0  0  0  0
  -13.1467   -1.1845   -7.0126 H   0  0  0  0  0  0  0  0  0  0  0  0
  -11.6039   -0.0840   -1.6623 H   0  0  0  0  0  0  0  0  0  0  0  0
  -13.6483   -2.6596    1.5196 H   0  0  0  0  0  0  0  0  0  0  0  0
  -17.5530   -1.6368    0.5392 H   0  0  0  0  0  0  0  0  0  0  0  0
   -9.8773    0.6117   -3.1688 H   0  0  0  0  0  0  0  0  0  0  0  0
   -9.0779    0.8502   -5.4361 H   0  0  0  0  0  0  0  0  0  0  0  0
  1 21  1  0  0  0  0
  2  8  1  0  0  0  0
  2  9  1  0  0  0  0
  3 10  1  0  0  0  0
  3 22  1  0  0  0  0
  4  5  2  0  0  0  0
  4  7  1  0  0  0  0
  5 23  1  0  0  0  0
  6 24  2  0  0  0  0
  6 25  1  0  0  0  0
  7 11  1  0  0  0  0
  7 26  1  0  0  0  0
  9 10  1  0  0  0  0
 11 23  2  0  0  0  0
 12 17  1  0  0  0  0
 12 21  2  0  0  0  0
 13 18  2  0  0  0  0
 13 21  1  0  0  0  0
 14 15  1  0  0  0  0
 14 22  2  0  0  0  0
 15 25  2  0  0  0  0
 16 19  2  0  0  0  0
 16 24  1  0  0  0  0
 17 26  2  0  0  0  0
 18 26  1  0  0  0  0
 19 27  1  0  0  0  0
 20 22  1  0  0  0  0
 20 27  2  0  0  0  0
 23 24  1  0  0  0  0
 25 27  1  0  0  0  0
  1 28  1  0  0  0  0
  8 29  1  0  0  0  0
  8 30  1  0  0  0  0
  8 31  1  0  0  0  0
  9 32  1  0  0  0  0
  9 33  1  0  0  0  0
 10 34  1  0  0  0  0
 10 35  1  0  0  0  0
 11 36  1  0  0  0  0
 12 37  1  0  0  0  0
 13 38  1  0  0  0  0
 14 39  1  0  0  0  0
 15 40  1  0  0  0  0
 16 41  1  0  0  0  0
 17 42  1  0  0  0  0
 18 43  1  0  0  0  0
 19 44  1  0  0  0  0
 20 45  1  0  0  0  0
M  END
> <pdb_id>
4WRB

> <uniprot_id>
P14174

> <usmiles>
O(c1cc2c(nc(cc2)C=3N=NN(c4ccc(O)cc4)C3)cc1)CCOC

$$$$
3U9_B_2401
          07192418053D 1   1.00000     0.00000     0
            
 43 45  0  0  0  0            999 V2000
    8.9334   16.8320   11.9480 F   0  0  0  0  0  0  0  0  0  0  0  0
    7.3294   16.5107    6.6083 O   0  0  0  0  0  0  0  0  0  0  0  0
    5.1079   14.4474    9.2364 O   0  0  0  0  0  0  0  0  0  0  0  0
    2.9764   14.0166   10.9060 N   0  0  0  0  0  0  0  0  0  0  0  0
    2.5881   20.7689    6.7880 N   0  0  0  0  0  0  0  0  0  0  0  0
    3.9035   20.6879    6.7862 N   0  0  0  0  0  0  0  0  0  0  0  0
    2.0173   16.1098   10.3015 N   0  0  0  0  0  0  0  0  0  0  0  0
    2.1044   19.7026    7.4567 N   0  0  0  0  0  0  0  0  0  0  0  0
    7.7603   17.4379    5.6058 C   0  0  0  0  0  0  0  0  0  0  0  0
    0.6626   19.5956    7.5788 C   0  0  0  0  0  0  0  0  0  0  0  0
    7.0020   13.1854    8.4613 C   0  0  0  0  0  0  0  0  0  0  0  0
    4.2525   19.5669    7.4563 C   0  0  0  0  0  0  0  0  0  0  0  0
    2.0510   17.2804    9.5853 C   0  0  0  0  0  0  0  0  0  0  0  0
    9.0583   17.7210    9.7568 C   0  0  0  0  0  0  0  0  0  0  0  0
    8.6720   17.6694    8.3948 C   0  0  0  0  0  0  0  0  0  0  0  0
    7.6914   15.7423   10.2396 C   0  0  0  0  0  0  0  0  0  0  0  0
    4.1170   16.6714    8.5637 C   0  0  0  0  0  0  0  0  0  0  0  0
    8.5676   16.7644   10.6635 C   0  0  0  0  0  0  0  0  0  0  0  0
    3.0364   15.2038   10.1591 C   0  0  0  0  0  0  0  0  0  0  0  0
    6.3079   14.5495    8.3966 C   0  0  2  0  0  0  0  0  0  0  0  0
    7.7803   16.6473    7.9251 C   0  0  0  0  0  0  0  0  0  0  0  0
    4.1299   15.4426    9.2878 C   0  0  0  0  0  0  0  0  0  0  0  0
    3.1356   18.8837    7.9165 C   0  0  0  0  0  0  0  0  0  0  0  0
    3.0797   17.6258    8.6898 C   0  0  0  0  0  0  0  0  0  0  0  0
    7.2811   15.6630    8.8601 C   0  0  0  0  0  0  0  0  0  0  0  0
    3.7049   13.3366   10.8234 H   0  0  0  0  0  0  0  0  0  0  0  0
    2.2052   13.8510   11.5206 H   0  0  0  0  0  0  0  0  0  0  0  0
    7.3466   17.1961    4.7282 H   0  0  0  0  0  0  0  0  0  0  0  0
    7.4789   18.3622    5.8636 H   0  0  0  0  0  0  0  0  0  0  0  0
    8.7565   17.4030    5.5256 H   0  0  0  0  0  0  0  0  0  0  0  0
    0.4319   18.7687    8.0916 H   0  0  0  0  0  0  0  0  0  0  0  0
    0.3086   20.3967    8.0613 H   0  0  0  0  0  0  0  0  0  0  0  0
    0.2536   19.5476    6.6675 H   0  0  0  0  0  0  0  0  0  0  0  0
    7.8301   13.2058    7.9012 H   0  0  0  0  0  0  0  0  0  0  0  0
    7.2457   12.9800    9.4092 H   0  0  0  0  0  0  0  0  0  0  0  0
    6.3832   12.4798    8.1159 H   0  0  0  0  0  0  0  0  0  0  0  0
    5.1956   19.2680    7.6020 H   0  0  0  0  0  0  0  0  0  0  0  0
    1.2983   17.9273    9.7076 H   0  0  0  0  0  0  0  0  0  0  0  0
    9.6799   18.4375   10.0734 H   0  0  0  0  0  0  0  0  0  0  0  0
    9.0239   18.3519    7.7542 H   0  0  0  0  0  0  0  0  0  0  0  0
    7.3540   15.0703   10.8989 H   0  0  0  0  0  0  0  0  0  0  0  0
    4.8738   16.8670    7.9399 H   0  0  0  0  0  0  0  0  0  0  0  0
    6.0312   14.7302    7.4528 H   0  0  0  0  0  0  0  0  0  0  0  0
  1 18  1  0  0  0  0
  2  9  1  0  0  0  0
  2 21  1  0  0  0  0
  3 20  1  0  0  0  0
  3 22  1  0  0  0  0
  4 19  1  0  0  0  0
  5  6  2  0  0  0  0
  5  8  1  0  0  0  0
  6 12  1  0  0  0  0
  7 13  1  0  0  0  0
  7 19  2  0  0  0  0
  8 10  1  0  0  0  0
  8 23  1  0  0  0  0
 11 20  1  0  0  0  0
 12 23  2  0  0  0  0
 13 24  2  0  0  0  0
 14 15  2  0  0  0  0
 14 18  1  0  0  0  0
 15 21  1  0  0  0  0
 16 18  2  0  0  0  0
 16 25  1  0  0  0  0
 17 22  2  0  0  0  0
 17 24  1  0  0  0  0
 19 22  1  0  0  0  0
 20 25  1  0  0  0  0
 21 25  2  0  0  0  0
 23 24  1  0  0  0  0
  4 26  1  0  0  0  0
  4 27  1  0  0  0  0
  9 28  1  0  0  0  0
  9 29  1  0  0  0  0
  9 30  1  0  0  0  0
 10 31  1  0  0  0  0
 10 32  1  0  0  0  0
 10 33  1  0  0  0  0
 11 34  1  0  0  0  0
 11 35  1  0  0  0  0
 11 36  1  0  0  0  0
 12 37  1  0  0  0  0
 13 38  1  0  0  0  0
 14 39  1  0  0  0  0
 15 40  1  0  0  0  0
 16 41  1  0  0  0  0
 17 42  1  0  0  0  0
 20 43  1  0  0  0  0
M  END
> <pdb_id>
4CNH

> <uniprot_id>
Q9UM73

> <usmiles>
Fc1cc(c(OC)cc1)[C@H](Oc2c(ncc(c2)C=3N(N=NC3)C)N)C

$$$$
3UF_B_302
          07212403053D 1   1.00000     0.00000     0
            
 25 25  0  0  0  0            999 V2000
    0.9208   70.0238   53.4275 S   0  0  0  0  0  0  0  0  0  0  0  0
    3.4340   72.3586   58.8121 S   0  0  0  0  0  0  0  0  0  0  0  0
    2.5344   73.4040   59.4607 O   0  0  0  0  0  0  0  0  0  0  0  0
    3.6331   71.2007   59.7915 O   0  0  0  0  0  0  0  0  0  0  0  0
   -2.8485   70.2834   52.0640 O   0  0  0  0  0  0  0  0  0  0  0  0
    4.9210   73.0764   58.4928 N   0  0  0  0  0  0  0  0  0  0  0  0
   -0.7105   70.7514   53.0423 C   0  0  0  0  0  0  0  0  0  0  0  0
   -1.6155   69.6900   52.4013 C   0  0  0  0  0  0  0  0  0  0  0  0
    2.1194   72.0686   55.0818 C   0  0  0  0  0  0  0  0  0  0  0  0
    1.7201   69.9188   56.1396 C   0  0  0  0  0  0  0  0  0  0  0  0
    2.6884   72.5308   56.2837 C   0  0  0  0  0  0  0  0  0  0  0  0
    2.2556   70.3414   57.3650 C   0  0  0  0  0  0  0  0  0  0  0  0
    1.6334   70.7385   54.9981 C   0  0  0  0  0  0  0  0  0  0  0  0
    2.7209   71.6599   57.3894 C   0  0  0  0  0  0  0  0  0  0  0  0
   -3.4447   69.5983   51.6455 H   0  0  0  0  0  0  0  0  0  0  0  0
    5.5293   72.4073   58.0658 H   0  0  0  0  0  0  0  0  0  0  0  0
    4.7912   73.8513   57.8741 H   0  0  0  0  0  0  0  0  0  0  0  0
   -0.5919   71.5142   52.4066 H   0  0  0  0  0  0  0  0  0  0  0  0
   -1.1335   71.0829   53.8856 H   0  0  0  0  0  0  0  0  0  0  0  0
   -1.1792   69.3310   51.5762 H   0  0  0  0  0  0  0  0  0  0  0  0
   -1.7684   68.9438   53.0492 H   0  0  0  0  0  0  0  0  0  0  0  0
    2.0581   72.6759   54.2896 H   0  0  0  0  0  0  0  0  0  0  0  0
    1.3800   68.9808   56.0727 H   0  0  0  0  0  0  0  0  0  0  0  0
    3.0608   73.4565   56.3505 H   0  0  0  0  0  0  0  0  0  0  0  0
    2.3015   69.7425   58.1644 H   0  0  0  0  0  0  0  0  0  0  0  0
  1  7  1  0  0  0  0
  1 13  1  0  0  0  0
  2  3  2  0  0  0  0
  2  4  2  0  0  0  0
  2  6  1  0  0  0  0
  2 14  1  0  0  0  0
  5  8  1  0  0  0  0
  7  8  1  0  0  0  0
  9 11  2  0  0  0  0
  9 13  1  0  0  0  0
 10 12  1  0  0  0  0
 10 13  2  0  0  0  0
 11 14  1  0  0  0  0
 12 14  2  0  0  0  0
  5 15  1  0  0  0  0
  6 16  1  0  0  0  0
  6 17  1  0  0  0  0
  7 18  1  0  0  0  0
  7 19  1  0  0  0  0
  8 20  1  0  0  0  0
  8 21  1  0  0  0  0
  9 22  1  0  0  0  0
 10 23  1  0  0  0  0
 11 24  1  0  0  0  0
 12 25  1  0  0  0  0
M  END
> <pdb_id>
4WUP

> <uniprot_id>
P00915

> <usmiles>
S(=O)(=O)(N)c1ccc(SCCO)cc1

$$$$
3UG_A_302
          07212403053D 1   1.00000     0.00000     0
            
 32 33  0  0  0  0            999 V2000
    3.3284   72.2544   58.7557 S   0  0  0  0  0  0  0  0  0  0  0  0
    1.9532   69.5332   58.0737 F   0  0  0  0  0  0  0  0  0  0  0  0
    2.6251   73.9708   56.3619 F   0  0  0  0  0  0  0  0  0  0  0  0
    0.4973   69.0187   56.1003 F   0  0  0  0  0  0  0  0  0  0  0  0
    1.1227   73.4078   54.2914 F   0  0  0  0  0  0  0  0  0  0  0  0
    3.5027   70.9835   59.5853 O   0  0  0  0  0  0  0  0  0  0  0  0
    2.5896   73.4141   59.3576 O   0  0  0  0  0  0  0  0  0  0  0  0
    4.8450   72.8917   58.2481 N   0  0  0  0  0  0  0  0  0  0  0  0
   -0.2149   70.9082   53.9196 N   0  0  0  0  0  0  0  0  0  0  0  0
   -1.0166   69.6954   53.9988 C   0  0  0  0  0  0  0  0  0  0  0  0
    0.1406   71.3815   52.5624 C   0  0  0  0  0  0  0  0  0  0  0  0
   -2.3696   69.9735   53.3603 C   0  0  0  0  0  0  0  0  0  0  0  0
   -0.6923   70.6490   51.5023 C   0  0  0  0  0  0  0  0  0  0  0  0
   -2.1445   70.4159   51.9119 C   0  0  0  0  0  0  0  0  0  0  0  0
    2.3567   71.8045   57.3014 C   0  0  0  0  0  0  0  0  0  0  0  0
    1.7654   70.5615   57.1909 C   0  0  0  0  0  0  0  0  0  0  0  0
    2.1472   72.7231   56.3154 C   0  0  0  0  0  0  0  0  0  0  0  0
    0.9817   70.2515   56.0772 C   0  0  0  0  0  0  0  0  0  0  0  0
    1.3164   72.4177   55.2203 C   0  0  0  0  0  0  0  0  0  0  0  0
    0.7213   71.1399   55.0477 C   0  0  0  0  0  0  0  0  0  0  0  0
    4.6948   73.7206   57.7092 H   0  0  0  0  0  0  0  0  0  0  0  0
    5.3995   73.1119   59.0506 H   0  0  0  0  0  0  0  0  0  0  0  0
   -1.1418   69.4349   54.9561 H   0  0  0  0  0  0  0  0  0  0  0  0
   -0.5577   68.9543   53.5089 H   0  0  0  0  0  0  0  0  0  0  0  0
    1.1112   71.2069   52.3967 H   0  0  0  0  0  0  0  0  0  0  0  0
   -0.0369   72.3637   52.4995 H   0  0  0  0  0  0  0  0  0  0  0  0
   -2.8377   70.6987   53.8652 H   0  0  0  0  0  0  0  0  0  0  0  0
   -2.9267   69.1432   53.3763 H   0  0  0  0  0  0  0  0  0  0  0  0
   -0.2679   69.7608   51.3264 H   0  0  0  0  0  0  0  0  0  0  0  0
   -0.6849   71.1939   50.6638 H   0  0  0  0  0  0  0  0  0  0  0  0
   -2.6431   71.2713   51.7722 H   0  0  0  0  0  0  0  0  0  0  0  0
   -2.5215   69.7087   51.3138 H   0  0  0  0  0  0  0  0  0  0  0  0
  1  6  2  0  0  0  0
  1  7  2  0  0  0  0
  1  8  1  0  0  0  0
  1 15  1  0  0  0  0
  2 16  1  0  0  0  0
  3 17  1  0  0  0  0
  4 18  1  0  0  0  0
  5 19  1  0  0  0  0
  9 10  1  0  0  0  0
  9 11  1  0  0  0  0
  9 20  1  0  0  0  0
 10 12  1  0  0  0  0
 11 13  1  0  0  0  0
 12 14  1  0  0  0  0
 13 14  1  0  0  0  0
 15 16  2  0  0  0  0
 15 17  1  0  0  0  0
 16 18  1  0  0  0  0
 17 19  2  0  0  0  0
 18 20  2  0  0  0  0
 19 20  1  0  0  0  0
  8 21  1  0  0  0  0
  8 22  1  0  0  0  0
 10 23  1  0  0  0  0
 10 24  1  0  0  0  0
 11 25  1  0  0  0  0
 11 26  1  0  0  0  0
 12 27  1  0  0  0  0
 12 28  1  0  0  0  0
 13 29  1  0  0  0  0
 13 30  1  0  0  0  0
 14 31  1  0  0  0  0
 14 32  1  0  0  0  0
M  END
> <pdb_id>
4WUQ

> <uniprot_id>
P00915

> <usmiles>
S(=O)(=O)(N)c1c(F)c(F)c(N2CCCCC2)c(F)c1F

$$$$
3UH_A_401
          07202404503D 1   1.00000     0.00000     0
            
 48 50  0  0  0  0            999 V2000
   66.5450   -3.6170   33.6150 O   0  5  0  0  0  0  0  0  0  0  0  0
   64.6120   -3.1300   32.8450 O   0  0  0  0  0  0  0  0  0  0  0  0
   63.3190   -6.2110   40.5280 O   0  0  0  0  0  0  0  0  0  0  0  0
   62.8310   -5.8650   42.7000 O   0  0  0  0  0  0  0  0  0  0  0  0
   66.1360   -9.4280   37.7100 O   0  0  0  0  0  0  0  0  0  0  0  0
   65.2610   -7.8590   41.1390 O   0  0  0  0  0  0  0  0  0  0  0  0
   65.2900   -7.4620   38.4910 N   0  0  0  0  0  0  0  0  0  0  0  0
   65.3330   -3.7510   33.6030 N   0  3  0  0  0  0  0  0  0  0  0  0
   64.7850   -7.0780   42.2390 C   0  0  0  0  0  0  0  0  0  0  0  0
   65.9830   -6.6500   37.5010 C   0  0  0  0  0  0  0  0  0  0  0  0
   61.3220  -15.0790   39.1840 C   0  0  0  0  0  0  0  0  0  0  0  0
   62.5470  -14.7790   38.5800 C   0  0  0  0  0  0  0  0  0  0  0  0
   60.7680  -14.2000   40.1190 C   0  0  0  0  0  0  0  0  0  0  0  0
   62.8740   -5.9140   35.3380 C   0  0  0  0  0  0  0  0  0  0  0  0
   63.4100   -5.0030   34.4140 C   0  0  0  0  0  0  0  0  0  0  0  0
   63.6810   -6.4630   36.3390 C   0  0  0  0  0  0  0  0  0  0  0  0
   63.8440   -9.7020   41.8290 C   0  0  0  0  0  0  0  0  0  0  0  0
   63.2280  -13.6040   38.9140 C   0  0  0  0  0  0  0  0  0  0  0  0
   61.4480  -13.0280   40.4520 C   0  0  0  0  0  0  0  0  0  0  0  0
   63.2260  -10.9120   41.4990 C   0  0  0  0  0  0  0  0  0  0  0  0
   65.5480   -5.1970   35.4960 C   0  0  0  0  0  0  0  0  0  0  0  0
   64.0890  -10.7690   39.2550 C   0  0  0  0  0  0  0  0  0  0  0  0
   63.5500   -6.3340   41.8340 C   0  0  0  0  0  0  0  0  0  0  0  0
   65.4740   -8.8060   38.5310 C   0  0  0  0  0  0  0  0  0  0  0  0
   64.5900   -9.0390   40.8590 C   0  0  0  0  0  0  0  0  0  0  0  0
   64.7640   -4.6330   34.4840 C   0  0  0  0  0  0  0  0  0  0  0  0
   65.0290   -6.0980   36.4250 C   0  0  0  0  0  0  0  0  0  0  0  0
   62.6730  -12.7200   39.8520 C   0  0  0  0  0  0  0  0  0  0  0  0
   63.3500  -11.4520   40.2150 C   0  0  0  0  0  0  0  0  0  0  0  0
   64.7110   -9.5720   39.5760 C   0  0  0  0  0  0  0  0  0  0  0  0
   63.9491   -6.6203   39.8681 H   0  0  0  0  0  0  0  0  0  0  0  0
   64.6736   -7.0260   39.1467 H   0  0  0  0  0  0  0  0  0  0  0  0
   65.4912   -6.4253   42.5132 H   0  0  0  0  0  0  0  0  0  0  0  0
   64.5723   -7.6815   43.0075 H   0  0  0  0  0  0  0  0  0  0  0  0
   66.6797   -7.2119   37.0551 H   0  0  0  0  0  0  0  0  0  0  0  0
   66.4221   -5.8814   37.9661 H   0  0  0  0  0  0  0  0  0  0  0  0
   60.8417  -15.9234   38.9467 H   0  0  0  0  0  0  0  0  0  0  0  0
   62.9375  -15.4069   37.9068 H   0  0  0  0  0  0  0  0  0  0  0  0
   59.8890  -14.4100   40.5470 H   0  0  0  0  0  0  0  0  0  0  0  0
   61.9095   -6.1717   35.2798 H   0  0  0  0  0  0  0  0  0  0  0  0
   62.8249   -4.6151   33.7018 H   0  0  0  0  0  0  0  0  0  0  0  0
   63.2957   -7.1150   36.9920 H   0  0  0  0  0  0  0  0  0  0  0  0
   63.7514   -9.3188   42.7480 H   0  0  0  0  0  0  0  0  0  0  0  0
   64.1072  -13.3946   38.4860 H   0  0  0  0  0  0  0  0  0  0  0  0
   61.0556  -12.4023   41.1262 H   0  0  0  0  0  0  0  0  0  0  0  0
   62.6890  -11.3970   42.1893 H   0  0  0  0  0  0  0  0  0  0  0  0
   66.5140   -4.9453   35.5552 H   0  0  0  0  0  0  0  0  0  0  0  0
   64.1720  -11.1421   38.3309 H   0  0  0  0  0  0  0  0  0  0  0  0
  1  8  1  0  0  0  0
  2  8  2  0  0  0  0
  3 23  1  0  0  0  0
  4 23  2  0  0  0  0
  5 24  2  0  0  0  0
  6  9  1  0  0  0  0
  6 25  1  0  0  0  0
  7 10  1  0  0  0  0
  7 24  1  0  0  0  0
  8 26  1  0  0  0  0
  9 23  1  0  0  0  0
 10 27  1  0  0  0  0
 11 12  2  0  0  0  0
 11 13  1  0  0  0  0
 12 18  1  0  0  0  0
 13 19  2  0  0  0  0
 14 15  1  0  0  0  0
 14 16  2  0  0  0  0
 15 26  2  0  0  0  0
 16 27  1  0  0  0  0
 17 20  1  0  0  0  0
 17 25  2  0  0  0  0
 18 28  2  0  0  0  0
 19 28  1  0  0  0  0
 20 29  2  0  0  0  0
 21 26  1  0  0  0  0
 21 27  2  0  0  0  0
 22 29  1  0  0  0  0
 22 30  2  0  0  0  0
 24 30  1  0  0  0  0
 25 30  1  0  0  0  0
 28 29  1  0  0  0  0
  3 31  1  0  0  0  0
  7 32  1  0  0  0  0
  9 33  1  0  0  0  0
  9 34  1  0  0  0  0
 10 35  1  0  0  0  0
 10 36  1  0  0  0  0
 11 37  1  0  0  0  0
 12 38  1  0  0  0  0
 13 39  1  0  0  0  0
 14 40  1  0  0  0  0
 15 41  1  0  0  0  0
 16 42  1  0  0  0  0
 17 43  1  0  0  0  0
 18 44  1  0  0  0  0
 19 45  1  0  0  0  0
 20 46  1  0  0  0  0
 21 47  1  0  0  0  0
 22 48  1  0  0  0  0
M  CHG  2   1  -1   8   1
M  END
> <pdb_id>
4RPQ

> <uniprot_id>
P15121

> <usmiles>
[O-][N+](=O)c1cc(ccc1)CNC(=O)c2c(OCC(=O)O)ccc(c3ccccc3)c2

$$$$
3VO_A_4000
          07202405583D 1   1.00000     0.00000     0
            
 33 35  0  0  0  0            999 V2000
   66.4885   46.8497    8.5347 S   0  0  0  0  0  0  0  0  0  0  0  0
   73.2478   48.4612    7.3774 F   0  0  0  0  0  0  0  0  0  0  0  0
   70.4193   49.9558   10.7431 F   0  0  0  0  0  0  0  0  0  0  0  0
   66.7108   51.5550    9.9847 O   0  0  0  0  0  0  0  0  0  0  0  0
   65.7060   48.2663    6.4408 N   0  0  0  0  0  0  0  0  0  0  0  0
   67.0161   49.5436    7.8987 N   0  0  0  0  0  0  0  0  0  0  0  0
   67.5697   47.2840    9.9448 C   0  0  0  0  0  0  0  0  0  0  0  0
   66.3233   50.8289   11.2038 C   0  0  0  0  0  0  0  0  0  0  0  0
   67.9311   51.2120    9.4626 C   0  0  0  0  0  0  0  0  0  0  0  0
   66.1913   49.2879   10.9694 C   0  0  0  0  0  0  0  0  0  0  0  0
   70.9523   48.6068    6.8761 C   0  0  0  0  0  0  0  0  0  0  0  0
   69.6714   48.9129    7.2972 C   0  0  0  0  0  0  0  0  0  0  0  0
   71.8340   49.2295    9.0972 C   0  0  0  0  0  0  0  0  0  0  0  0
   66.4505   48.3809    7.5949 C   0  0  0  0  0  0  0  0  0  0  0  0
   72.0266   48.7700    7.7861 C   0  0  0  0  0  0  0  0  0  0  0  0
   70.5272   49.4855    9.5037 C   0  0  0  0  0  0  0  0  0  0  0  0
   67.5071   48.7966   10.2972 C   0  0  2  0  0  0  0  0  0  0  0  0
   69.3869   49.3784    8.5940 C   0  0  0  0  0  0  0  0  0  0  0  0
   67.9621   49.6920    9.0649 C   0  0  1  0  0  0  0  0  0  0  0  0
   65.6074   49.0514    5.8293 H   0  0  0  0  0  0  0  0  0  0  0  0
   65.2643   47.3980    6.2148 H   0  0  0  0  0  0  0  0  0  0  0  0
   68.5128   47.0477    9.7107 H   0  0  0  0  0  0  0  0  0  0  0  0
   67.2824   46.7561   10.7440 H   0  0  0  0  0  0  0  0  0  0  0  0
   65.4426   51.1814   11.5203 H   0  0  0  0  0  0  0  0  0  0  0  0
   67.0177   50.9879   11.9057 H   0  0  0  0  0  0  0  0  0  0  0  0
   68.6404   51.3865   10.1455 H   0  0  0  0  0  0  0  0  0  0  0  0
   68.1073   51.7670    8.6496 H   0  0  0  0  0  0  0  0  0  0  0  0
   65.4125   49.0999   10.3710 H   0  0  0  0  0  0  0  0  0  0  0  0
   66.0605   48.8204   11.8437 H   0  0  0  0  0  0  0  0  0  0  0  0
   71.1177   48.2764    5.9469 H   0  0  0  0  0  0  0  0  0  0  0  0
   68.9153   48.7986    6.6527 H   0  0  0  0  0  0  0  0  0  0  0  0
   72.6065   49.3680    9.7170 H   0  0  0  0  0  0  0  0  0  0  0  0
   68.2163   48.9302   10.9894 H   0  0  0  0  0  0  0  0  0  0  0  0
  1  7  1  0  0  0  0
  1 14  1  0  0  0  0
  2 15  1  0  0  0  0
  3 16  1  0  0  0  0
  4  8  1  0  0  0  0
  4  9  1  0  0  0  0
  5 14  1  0  0  0  0
  6 14  2  0  0  0  0
  6 19  1  0  0  0  0
  7 17  1  0  0  0  0
  8 10  1  0  0  0  0
  9 19  1  0  0  0  0
 10 17  1  0  0  0  0
 11 12  2  0  0  0  0
 11 15  1  0  0  0  0
 12 18  1  0  0  0  0
 13 15  2  0  0  0  0
 13 16  1  0  0  0  0
 16 18  2  0  0  0  0
 17 19  1  0  0  0  0
 18 19  1  0  0  0  0
  5 20  1  0  0  0  0
  5 21  1  0  0  0  0
  7 22  1  0  0  0  0
  7 23  1  0  0  0  0
  8 24  1  0  0  0  0
  8 25  1  0  0  0  0
  9 26  1  0  0  0  0
  9 27  1  0  0  0  0
 10 28  1  0  0  0  0
 10 29  1  0  0  0  0
 11 30  1  0  0  0  0
 12 31  1  0  0  0  0
 13 32  1  0  0  0  0
 17 33  1  0  0  0  0
M  END
> <pdb_id>
4WY1

> <uniprot_id>
P56817

> <usmiles>
S1C(=N[C@]2(c3c(F)cc(F)cc3)[C@H](C1)CCOC2)N

$$$$
3VP_A_401
          07202405583D 1   1.00000     0.00000     0
            
 36 38  0  0  0  0            999 V2000
   66.6677   46.7340    8.5045 S   0  0  0  0  0  0  0  0  0  0  0  0
   65.0683   52.1167   12.3192 F   0  0  0  0  0  0  0  0  0  0  0  0
   73.2199   48.9666    6.9373 F   0  0  0  0  0  0  0  0  0  0  0  0
   70.4569   50.0691   10.5129 F   0  0  0  0  0  0  0  0  0  0  0  0
   66.5796   51.2524   10.1344 O   0  0  0  0  0  0  0  0  0  0  0  0
   65.5965   48.2120    6.6161 N   0  0  0  0  0  0  0  0  0  0  0  0
   67.0053   49.4493    7.9733 N   0  0  0  0  0  0  0  0  0  0  0  0
   70.8908   48.8115    6.6380 C   0  0  0  0  0  0  0  0  0  0  0  0
   69.6180   48.9781    7.1687 C   0  0  0  0  0  0  0  0  0  0  0  0
   71.8554   49.5485    8.7486 C   0  0  0  0  0  0  0  0  0  0  0  0
   67.8481   47.1912    9.8076 C   0  0  0  0  0  0  0  0  0  0  0  0
   65.0315   50.8559   11.8406 C   0  0  0  0  0  0  0  0  0  0  0  0
   67.8094   51.0736    9.4915 C   0  0  0  0  0  0  0  0  0  0  0  0
   66.4423   48.9752   10.9144 C   0  0  0  0  0  0  0  0  0  0  0  0
   66.4616   48.3059    7.6857 C   0  0  0  0  0  0  0  0  0  0  0  0
   72.0011   49.1086    7.4346 C   0  0  0  0  0  0  0  0  0  0  0  0
   70.5536   49.6765    9.2487 C   0  0  0  0  0  0  0  0  0  0  0  0
   69.4083   49.4030    8.4835 C   0  0  0  0  0  0  0  0  0  0  0  0
   66.4272   50.4616   11.2864 C   0  0  1  0  0  0  0  0  0  0  0  0
   67.7730   48.6458   10.2361 C   0  0  2  0  0  0  0  0  0  0  0  0
   68.0065   49.5933    9.0356 C   0  0  2  0  0  0  0  0  0  0  0  0
   65.3429   49.0274    6.0867 H   0  0  0  0  0  0  0  0  0  0  0  0
   65.0580   47.3782    6.4863 H   0  0  0  0  0  0  0  0  0  0  0  0
   71.0225   48.4693    5.6086 H   0  0  0  0  0  0  0  0  0  0  0  0
   68.7798   48.7630    6.4964 H   0  0  0  0  0  0  0  0  0  0  0  0
   72.7256   49.7834    9.3682 H   0  0  0  0  0  0  0  0  0  0  0  0
   67.6348   46.5043   10.6471 H   0  0  0  0  0  0  0  0  0  0  0  0
   68.8609   46.9312    9.4445 H   0  0  0  0  0  0  0  0  0  0  0  0
   64.2494   50.7885   11.0546 H   0  0  0  0  0  0  0  0  0  0  0  0
   64.7341   50.1673   12.6631 H   0  0  0  0  0  0  0  0  0  0  0  0
   68.6387   51.4483   10.1263 H   0  0  0  0  0  0  0  0  0  0  0  0
   67.7457   51.7671    8.6241 H   0  0  0  0  0  0  0  0  0  0  0  0
   66.3010   48.3472   11.8188 H   0  0  0  0  0  0  0  0  0  0  0  0
   65.5791   48.7267   10.2625 H   0  0  0  0  0  0  0  0  0  0  0  0
   67.2244   50.6884   12.0459 H   0  0  0  0  0  0  0  0  0  0  0  0
   68.5732   48.7945   11.0044 H   0  0  0  0  0  0  0  0  0  0  0  0
  1 11  1  0  0  0  0
  1 15  1  0  0  0  0
  2 12  1  0  0  0  0
  3 16  1  0  0  0  0
  4 17  1  0  0  0  0
  5 13  1  0  0  0  0
  5 19  1  0  0  0  0
  6 15  1  0  0  0  0
  6 22  1  0  0  0  0
  6 23  1  0  0  0  0
  7 15  2  0  0  0  0
  7 21  1  0  0  0  0
  8  9  2  0  0  0  0
  8 16  1  0  0  0  0
  8 24  1  0  0  0  0
  9 18  1  0  0  0  0
  9 25  1  0  0  0  0
 10 16  2  0  0  0  0
 10 17  1  0  0  0  0
 10 26  1  0  0  0  0
 11 20  1  0  0  0  0
 11 27  1  0  0  0  0
 11 28  1  0  0  0  0
 12 19  1  0  0  0  0
 12 29  1  0  0  0  0
 12 30  1  0  0  0  0
 13 21  1  0  0  0  0
 13 31  1  0  0  0  0
 13 32  1  0  0  0  0
 14 19  1  0  0  0  0
 14 20  1  0  0  0  0
 14 33  1  0  0  0  0
 14 34  1  0  0  0  0
 17 18  2  0  0  0  0
 18 21  1  0  0  0  0
 19 35  1  0  0  0  0
 20 21  1  0  0  0  0
 20 36  1  0  0  0  0
M  END
> <pdb_id>
4WY6

> <uniprot_id>
P56817

> <usmiles>
S1C(=N[C@]2(c3c(F)cc(F)cc3)[C@H](C1)C[C@@H](OC2)CF)N

$$$$
3VW_B_501
          07202405363D 1   1.00000     0.00000     0
            
 29 30  0  0  0  0            999 V2000
  -14.2620    7.6160   29.1480 O   0  0  0  0  0  0  0  0  0  0  0  0
  -12.0440    3.7200   30.9790 N   0  0  0  0  0  0  0  0  0  0  0  0
  -12.5340    4.5010   32.1360 C   0  0  0  0  0  0  0  0  0  0  0  0
  -13.1250    3.5870   29.9780 C   0  0  0  0  0  0  0  0  0  0  0  0
  -16.9810    9.3750   32.7890 C   0  0  0  0  0  0  0  0  0  0  0  0
  -16.7000    8.0620   33.1280 C   0  0  0  0  0  0  0  0  0  0  0  0
  -16.4760    9.9520   31.6350 C   0  0  0  0  0  0  0  0  0  0  0  0
  -12.9610    5.8810   31.7170 C   0  0  0  0  0  0  0  0  0  0  0  0
  -13.5630    4.9610   29.4990 C   0  0  0  0  0  0  0  0  0  0  0  0
  -15.8800    7.3160   32.2860 C   0  0  0  0  0  0  0  0  0  0  0  0
  -15.6700    9.1990   30.7960 C   0  0  0  0  0  0  0  0  0  0  0  0
  -14.5370    7.1660   30.2600 C   0  0  0  0  0  0  0  0  0  0  0  0
  -14.0850    5.7640   30.6980 C   0  0  0  0  0  0  0  0  0  0  0  0
  -15.3440    7.8910   31.1410 C   0  0  0  0  0  0  0  0  0  0  0  0
  -11.7611    2.8114   31.2863 H   0  0  0  0  0  0  0  0  0  0  0  0
  -11.8013    4.5772   32.8123 H   0  0  0  0  0  0  0  0  0  0  0  0
  -13.3150    4.0270   32.5427 H   0  0  0  0  0  0  0  0  0  0  0  0
  -13.9042    3.1171   30.3928 H   0  0  0  0  0  0  0  0  0  0  0  0
  -12.7914    3.0558   29.1992 H   0  0  0  0  0  0  0  0  0  0  0  0
  -17.5630    9.9203   33.3922 H   0  0  0  0  0  0  0  0  0  0  0  0
  -17.0785    7.6580   33.9608 H   0  0  0  0  0  0  0  0  0  0  0  0
  -16.6910   10.9023   31.4098 H   0  0  0  0  0  0  0  0  0  0  0  0
  -12.1858    6.3619   31.3073 H   0  0  0  0  0  0  0  0  0  0  0  0
  -13.2840    6.3889   32.5156 H   0  0  0  0  0  0  0  0  0  0  0  0
  -14.2895    4.8633   28.8188 H   0  0  0  0  0  0  0  0  0  0  0  0
  -12.7849    5.4373   29.0895 H   0  0  0  0  0  0  0  0  0  0  0  0
  -15.6760    6.3622   32.5065 H   0  0  0  0  0  0  0  0  0  0  0  0
  -15.3238    9.5944   29.9453 H   0  0  0  0  0  0  0  0  0  0  0  0
  -14.8572    5.2803   31.1101 H   0  0  0  0  0  0  0  0  0  0  0  0
  1 12  2  0  0  0  0
  2  3  1  0  0  0  0
  2  4  1  0  0  0  0
  3  8  1  0  0  0  0
  4  9  1  0  0  0  0
  5  6  2  0  0  0  0
  5  7  1  0  0  0  0
  6 10  1  0  0  0  0
  7 11  2  0  0  0  0
  8 13  1  0  0  0  0
  9 13  1  0  0  0  0
 10 14  2  0  0  0  0
 11 14  1  0  0  0  0
 12 13  1  0  0  0  0
 12 14  1  0  0  0  0
  2 15  1  0  0  0  0
  3 16  1  0  0  0  0
  3 17  1  0  0  0  0
  4 18  1  0  0  0  0
  4 19  1  0  0  0  0
  5 20  1  0  0  0  0
  6 21  1  0  0  0  0
  7 22  1  0  0  0  0
  8 23  1  0  0  0  0
  8 24  1  0  0  0  0
  9 25  1  0  0  0  0
  9 26  1  0  0  0  0
 10 27  1  0  0  0  0
 11 28  1  0  0  0  0
 13 29  1  0  0  0  0
M  END
> <pdb_id>
4WYE

> <uniprot_id>
P9WQ81

> <usmiles>
O=C(c1ccccc1)C2CCNCC2

$$$$
3W3_A_302
          07192416293D 1   1.00000     0.00000     0
            
 28 28  0  0  0  0            999 V2000
   -5.9142    0.9630   16.8796 S   0  0  0  0  0  0  0  0  0  0  0  0
   -5.3862    1.0893   18.2276 O   0  0  0  0  0  0  0  0  0  0  0  0
   -7.3321    1.0670   16.7670 O   0  0  0  0  0  0  0  0  0  0  0  0
   -3.7445    5.7054   14.0320 O   0  0  0  0  0  0  0  0  0  0  0  0
   -5.3560   -0.3905   16.2083 N   0  3  0  0  0  0  0  0  0  0  0  0
   -1.9565    8.0185   14.6170 C   0  0  0  0  0  0  0  0  0  0  0  0
   -2.0309    7.1861   13.3548 C   0  0  0  0  0  0  0  0  0  0  0  0
   -6.0769    3.4105   15.7801 C   0  0  0  0  0  0  0  0  0  0  0  0
   -3.8566    2.3272   15.5715 C   0  0  0  0  0  0  0  0  0  0  0  0
   -5.5130    4.5958   15.0630 C   0  0  0  0  0  0  0  0  0  0  0  0
   -3.3497    3.3890   14.9300 C   0  0  0  0  0  0  0  0  0  0  0  0
   -2.3801    5.7486   13.6686 C   0  0  0  0  0  0  0  0  0  0  0  0
   -5.2852    2.3465   16.0064 C   0  0  0  0  0  0  0  0  0  0  0  0
   -4.2304    4.5767   14.6809 C   0  0  0  0  0  0  0  0  0  0  0  0
   -5.6537   -0.4468   15.3421 H   0  0  0  0  0  0  0  0  0  0  0  0
   -4.4390   -0.3806   16.2165 H   0  0  0  0  0  0  0  0  0  0  0  0
   -5.6580   -1.1140   16.6831 H   0  0  0  0  0  0  0  0  0  0  0  0
   -2.1921    7.4648   15.3879 H   0  0  0  0  0  0  0  0  0  0  0  0
   -1.0470    8.3610   14.7283 H   0  0  0  0  0  0  0  0  0  0  0  0
   -2.7055    7.5610   12.7566 H   0  0  0  0  0  0  0  0  0  0  0  0
   -7.0053    3.4104   16.0828 H   0  0  0  0  0  0  0  0  0  0  0  0
   -3.2961    1.5498   15.7568 H   0  0  0  0  0  0  0  0  0  0  0  0
   -6.0675    5.3803   14.8916 H   0  0  0  0  0  0  0  0  0  0  0  0
   -2.4173    3.3951   14.6413 H   0  0  0  0  0  0  0  0  0  0  0  0
   -2.2304    5.1901   12.8781 H   0  0  0  0  0  0  0  0  0  0  0  0
   -1.8288    5.4284   14.4123 H   0  0  0  0  0  0  0  0  0  0  0  0
   -2.5954    8.7848   14.5493 H   0  0  0  0  0  0  0  0  0  0  0  0
   -1.1421    7.2112   12.8972 H   0  0  0  0  0  0  0  0  0  0  0  0
  1  2  2  0  0  0  0
  1  3  2  0  0  0  0
  1  5  1  0  0  0  0
  1 13  1  0  0  0  0
  4 12  1  0  0  0  0
  4 14  1  0  0  0  0
  5 15  1  0  0  0  0
  5 16  1  0  0  0  0
  5 17  1  0  0  0  0
  6  7  1  0  0  0  0
  6 18  1  0  0  0  0
  6 19  1  0  0  0  0
  7 12  1  0  0  0  0
  7 20  1  0  0  0  0
  8 10  2  0  0  0  0
  8 13  1  0  0  0  0
  8 21  1  0  0  0  0
  9 11  1  0  0  0  0
  9 13  2  0  0  0  0
  9 22  1  0  0  0  0
 10 14  1  0  0  0  0
 10 23  1  0  0  0  0
 11 14  2  0  0  0  0
 11 24  1  0  0  0  0
 12 25  1  0  0  0  0
 12 26  1  0  0  0  0
  6 27  1  0  0  0  0
  7 28  1  0  0  0  0
M  CHG  1   5   1
M  END
> <pdb_id>
4RUX

> <uniprot_id>
P00918

> <usmiles>
S(=O)(=O)([NH3+])c1ccc(OCCC)cc1

$$$$
3W6_A_306
          07192416293D 1   1.00000     0.00000     0
            
 27 27  0  0  0  0            999 V2000
   -5.9593    0.9328   16.9252 S   0  0  0  0  0  0  0  0  0  0  0  0
   -7.3905    0.9735   16.7899 O   0  0  0  0  0  0  0  0  0  0  0  0
   -5.4244    1.0158   18.2469 O   0  0  0  0  0  0  0  0  0  0  0  0
   -4.0177    5.8321   14.2735 O   0  0  0  0  0  0  0  0  0  0  0  0
   -5.3644   -0.3865   16.1912 N   0  0  0  0  0  0  0  0  0  0  0  0
   -2.1247    8.1295   14.9156 C   0  0  0  0  0  0  0  0  0  0  0  0
   -2.6645    5.9645   13.8013 C   0  0  0  0  0  0  0  0  0  0  0  0
   -2.3762    7.4239   13.5983 C   0  0  0  0  0  0  0  0  0  0  0  0
   -4.0284    2.4205   15.6550 C   0  0  0  0  0  0  0  0  0  0  0  0
   -6.2206    3.4114   15.8224 C   0  0  0  0  0  0  0  0  0  0  0  0
   -3.5655    3.5677   15.0171 C   0  0  0  0  0  0  0  0  0  0  0  0
   -5.7348    4.5674   15.2296 C   0  0  0  0  0  0  0  0  0  0  0  0
   -5.3580    2.3539   16.0487 C   0  0  0  0  0  0  0  0  0  0  0  0
   -4.4123    4.6429   14.8339 C   0  0  0  0  0  0  0  0  0  0  0  0
   -4.3696   -0.4040   16.2918 H   0  0  0  0  0  0  0  0  0  0  0  0
   -5.7562   -1.2059   16.6097 H   0  0  0  0  0  0  0  0  0  0  0  0
   -1.9365    9.0967   14.7451 H   0  0  0  0  0  0  0  0  0  0  0  0
   -2.9327    8.0449   15.4987 H   0  0  0  0  0  0  0  0  0  0  0  0
   -1.3389    7.7125   15.3724 H   0  0  0  0  0  0  0  0  0  0  0  0
   -2.5592    5.4754   12.9354 H   0  0  0  0  0  0  0  0  0  0  0  0
   -2.0320    5.5858   14.4771 H   0  0  0  0  0  0  0  0  0  0  0  0
   -1.5660    7.5176   13.0197 H   0  0  0  0  0  0  0  0  0  0  0  0
   -3.1598    7.8499   13.1461 H   0  0  0  0  0  0  0  0  0  0  0  0
   -3.4105    1.6533   15.8276 H   0  0  0  0  0  0  0  0  0  0  0  0
   -7.1836    3.3432   16.0833 H   0  0  0  0  0  0  0  0  0  0  0  0
   -2.6210    3.6132   14.6919 H   0  0  0  0  0  0  0  0  0  0  0  0
   -6.3430    5.3485   15.0880 H   0  0  0  0  0  0  0  0  0  0  0  0
  1  2  2  0  0  0  0
  1  3  2  0  0  0  0
  1  5  1  0  0  0  0
  1 13  1  0  0  0  0
  4  7  1  0  0  0  0
  4 14  1  0  0  0  0
  6  8  1  0  0  0  0
  7  8  1  0  0  0  0
  9 11  2  0  0  0  0
  9 13  1  0  0  0  0
 10 12  1  0  0  0  0
 10 13  2  0  0  0  0
 11 14  1  0  0  0  0
 12 14  2  0  0  0  0
  5 15  1  0  0  0  0
  5 16  1  0  0  0  0
  6 17  1  0  0  0  0
  6 18  1  0  0  0  0
  6 19  1  0  0  0  0
  7 20  1  0  0  0  0
  7 21  1  0  0  0  0
  8 22  1  0  0  0  0
  8 23  1  0  0  0  0
  9 24  1  0  0  0  0
 10 25  1  0  0  0  0
 11 26  1  0  0  0  0
 12 27  1  0  0  0  0
M  END
> <pdb_id>
6I2F

> <uniprot_id>
P00918

> <usmiles>
S(=O)(=O)(N)c1ccc(OCCC)cc1

$$$$
3W7_C_2301
          07202409163D 1   1.00000     0.00000     0
            
 54 58  0  0  0  0            999 V2000
   29.0307  -21.4695  -61.0487 O   0  0  0  0  0  0  0  0  0  0  0  0
   23.7053  -17.9544  -55.7660 O   0  0  0  0  0  0  0  0  0  0  0  0
   26.7935  -17.6502  -66.0316 N   0  0  0  0  0  0  0  0  0  0  0  0
   27.9012  -17.2967  -65.3595 N   0  0  0  0  0  0  0  0  0  0  0  0
   20.6553  -20.2357  -57.8485 N   0  0  0  0  0  0  0  0  0  0  0  0
   21.3626  -19.3582  -57.1127 N   0  0  0  0  0  0  0  0  0  0  0  0
   26.9122  -20.9134  -60.3401 N   0  0  0  0  0  0  0  0  0  0  0  0
   19.5576  -18.6794  -55.5969 C   0  0  0  0  0  0  0  0  0  0  0  0
   20.1572  -17.2803  -57.5492 C   0  0  0  0  0  0  0  0  0  0  0  0
   26.2757  -18.6626  -65.3398 C   0  0  0  0  0  0  0  0  0  0  0  0
   21.5547  -21.1106  -58.3052 C   0  0  0  0  0  0  0  0  0  0  0  0
   26.9981  -21.8502  -59.2331 C   0  0  0  0  0  0  0  0  0  0  0  0
   25.7281  -20.0710  -60.4498 C   0  0  0  0  0  0  0  0  0  0  0  0
   29.1306  -17.9633  -63.3094 C   0  0  0  0  0  0  0  0  0  0  0  0
   29.0145  -18.9012  -62.3037 C   0  0  0  0  0  0  0  0  0  0  0  0
   26.9829  -19.9055  -63.2021 C   0  0  0  0  0  0  0  0  0  0  0  0
   26.5919  -21.2040  -57.9018 C   0  0  0  0  0  0  0  0  0  0  0  0
   25.3199  -19.4286  -59.1315 C   0  0  0  0  0  0  0  0  0  0  0  0
   25.1723  -19.6383  -56.6409 C   0  0  0  0  0  0  0  0  0  0  0  0
   24.1345  -21.4407  -58.0995 C   0  0  0  0  0  0  0  0  0  0  0  0
   28.0140  -20.7958  -61.1532 C   0  0  0  0  0  0  0  0  0  0  0  0
   20.6885  -18.2282  -56.4893 C   0  0  0  0  0  0  0  0  0  0  0  0
   23.8127  -18.9746  -56.4333 C   0  0  0  0  0  0  0  0  0  0  0  0
   28.1162  -18.0461  -64.2383 C   0  0  0  0  0  0  0  0  0  0  0  0
   22.7078  -19.6505  -57.0818 C   0  0  0  0  0  0  0  0  0  0  0  0
   27.0702  -18.9589  -64.2071 C   0  0  0  0  0  0  0  0  0  0  0  0
   27.9812  -19.8174  -62.2534 C   0  0  0  0  0  0  0  0  0  0  0  0
   22.8501  -20.7863  -57.8442 C   0  0  0  0  0  0  0  0  0  0  0  0
   25.2853  -20.4285  -57.9641 C   0  0  0  0  0  0  0  0  0  0  0  0
   28.5086  -16.5578  -65.6513 H   0  0  0  0  0  0  0  0  0  0  0  0
   19.1179  -17.8806  -55.1863 H   0  0  0  0  0  0  0  0  0  0  0  0
   18.8876  -19.1870  -56.1387 H   0  0  0  0  0  0  0  0  0  0  0  0
   19.9181  -19.2696  -54.8746 H   0  0  0  0  0  0  0  0  0  0  0  0
   19.6973  -16.5100  -57.1073 H   0  0  0  0  0  0  0  0  0  0  0  0
   20.9168  -16.9411  -58.1041 H   0  0  0  0  0  0  0  0  0  0  0  0
   19.5073  -17.7652  -58.1345 H   0  0  0  0  0  0  0  0  0  0  0  0
   25.4375  -19.1487  -65.5874 H   0  0  0  0  0  0  0  0  0  0  0  0
   21.3403  -21.8900  -58.8939 H   0  0  0  0  0  0  0  0  0  0  0  0
   27.9401  -22.1775  -59.1592 H   0  0  0  0  0  0  0  0  0  0  0  0
   26.3902  -22.6229  -59.4159 H   0  0  0  0  0  0  0  0  0  0  0  0
   24.9685  -20.6328  -60.7774 H   0  0  0  0  0  0  0  0  0  0  0  0
   25.9155  -19.3451  -61.1116 H   0  0  0  0  0  0  0  0  0  0  0  0
   29.8723  -17.2945  -63.3588 H   0  0  0  0  0  0  0  0  0  0  0  0
   29.7063  -18.9185  -61.5819 H   0  0  0  0  0  0  0  0  0  0  0  0
   26.2588  -20.5943  -63.1662 H   0  0  0  0  0  0  0  0  0  0  0  0
   27.3178  -20.5753  -57.6230 H   0  0  0  0  0  0  0  0  0  0  0  0
   26.4961  -21.9270  -57.2176 H   0  0  0  0  0  0  0  0  0  0  0  0
   24.4083  -19.0317  -59.2387 H   0  0  0  0  0  0  0  0  0  0  0  0
   25.9748  -18.7053  -58.9127 H   0  0  0  0  0  0  0  0  0  0  0  0
   25.3343  -20.2692  -55.8821 H   0  0  0  0  0  0  0  0  0  0  0  0
   25.8744  -18.9262  -56.6380 H   0  0  0  0  0  0  0  0  0  0  0  0
   24.1341  -21.8179  -59.0256 H   0  0  0  0  0  0  0  0  0  0  0  0
   24.2655  -22.1796  -57.4386 H   0  0  0  0  0  0  0  0  0  0  0  0
   21.3537  -17.7341  -55.9295 H   0  0  0  0  0  0  0  0  0  0  0  0
  1 21  2  0  0  0  0
  2 23  2  0  0  0  0
  3  4  1  0  0  0  0
  3 10  2  0  0  0  0
  4 24  1  0  0  0  0
  5  6  1  0  0  0  0
  5 11  2  0  0  0  0
  6 22  1  0  0  0  0
  6 25  1  0  0  0  0
  7 12  1  0  0  0  0
  7 13  1  0  0  0  0
  7 21  1  0  0  0  0
  8 22  1  0  0  0  0
  9 22  1  0  0  0  0
 10 26  1  0  0  0  0
 11 28  1  0  0  0  0
 12 17  1  0  0  0  0
 13 18  1  0  0  0  0
 14 15  1  0  0  0  0
 14 24  2  0  0  0  0
 15 27  2  0  0  0  0
 16 26  2  0  0  0  0
 16 27  1  0  0  0  0
 17 29  1  0  0  0  0
 18 29  1  0  0  0  0
 19 23  1  0  0  0  0
 19 29  1  0  0  0  0
 20 28  1  0  0  0  0
 20 29  1  0  0  0  0
 21 27  1  0  0  0  0
 23 25  1  0  0  0  0
 24 26  1  0  0  0  0
 25 28  2  0  0  0  0
  4 30  1  0  0  0  0
  8 31  1  0  0  0  0
  8 32  1  0  0  0  0
  8 33  1  0  0  0  0
  9 34  1  0  0  0  0
  9 35  1  0  0  0  0
  9 36  1  0  0  0  0
 10 37  1  0  0  0  0
 11 38  1  0  0  0  0
 12 39  1  0  0  0  0
 12 40  1  0  0  0  0
 13 41  1  0  0  0  0
 13 42  1  0  0  0  0
 14 43  1  0  0  0  0
 15 44  1  0  0  0  0
 16 45  1  0  0  0  0
 17 46  1  0  0  0  0
 17 47  1  0  0  0  0
 18 48  1  0  0  0  0
 18 49  1  0  0  0  0
 19 50  1  0  0  0  0
 19 51  1  0  0  0  0
 20 52  1  0  0  0  0
 20 53  1  0  0  0  0
 22 54  1  0  0  0  0
M  END
> <pdb_id>
4WZ8

> <uniprot_id>
Q00955

> <usmiles>
O=C(N1CCC2(CC(=O)C=3N(N=CC3C2)C(C)C)CC1)c4cc5c(NN=C5)cc4

$$$$
3W8_A_302
          07192416293D 1   1.00000     0.00000     0
            
 25 25  0  0  0  0            999 V2000
   -5.9153    0.9558   16.8908 S   0  0  0  0  0  0  0  0  0  0  0  0
   -5.4120    1.0613   18.2439 O   0  0  0  0  0  0  0  0  0  0  0  0
   -7.3483    1.0018   16.9456 O   0  0  0  0  0  0  0  0  0  0  0  0
   -3.7894    5.7128   13.9236 O   0  0  0  0  0  0  0  0  0  0  0  0
   -5.3729   -0.4061   16.1799 N   0  3  0  0  0  0  0  0  0  0  0  0
   -2.1027    7.1011   13.0843 C   0  0  0  0  0  0  0  0  0  0  0  0
   -6.1940    3.4677   15.6727 C   0  0  0  0  0  0  0  0  0  0  0  0
   -3.9680    2.3605   15.6527 C   0  0  0  0  0  0  0  0  0  0  0  0
   -5.6971    4.5322   15.0085 C   0  0  0  0  0  0  0  0  0  0  0  0
   -3.4278    3.5454   14.9060 C   0  0  0  0  0  0  0  0  0  0  0  0
   -2.4150    5.7246   13.6204 C   0  0  0  0  0  0  0  0  0  0  0  0
   -5.2756    2.3248   16.0011 C   0  0  0  0  0  0  0  0  0  0  0  0
   -4.2515    4.5794   14.6112 C   0  0  0  0  0  0  0  0  0  0  0  0
   -5.7278   -0.4730   15.3368 H   0  0  0  0  0  0  0  0  0  0  0  0
   -4.4587   -0.3801   16.1260 H   0  0  0  0  0  0  0  0  0  0  0  0
   -5.6289   -1.1329   16.6775 H   0  0  0  0  0  0  0  0  0  0  0  0
   -2.5863    7.2414   12.2439 H   0  0  0  0  0  0  0  0  0  0  0  0
   -1.1393    7.1774   12.9222 H   0  0  0  0  0  0  0  0  0  0  0  0
   -2.3784    7.7762   13.7383 H   0  0  0  0  0  0  0  0  0  0  0  0
   -7.1334    3.4429   15.9385 H   0  0  0  0  0  0  0  0  0  0  0  0
   -3.3807    1.6146   15.8766 H   0  0  0  0  0  0  0  0  0  0  0  0
   -6.2834    5.2801   14.7866 H   0  0  0  0  0  0  0  0  0  0  0  0
   -2.4864    3.5783   14.6491 H   0  0  0  0  0  0  0  0  0  0  0  0
   -2.2153    5.0465   12.9414 H   0  0  0  0  0  0  0  0  0  0  0  0
   -1.8914    5.5530   14.4311 H   0  0  0  0  0  0  0  0  0  0  0  0
  1  2  2  0  0  0  0
  1  3  2  0  0  0  0
  1  5  1  0  0  0  0
  1 12  1  0  0  0  0
  4 11  1  0  0  0  0
  4 13  1  0  0  0  0
  5 14  1  0  0  0  0
  5 15  1  0  0  0  0
  5 16  1  0  0  0  0
  6 11  1  0  0  0  0
  6 17  1  0  0  0  0
  6 18  1  0  0  0  0
  6 19  1  0  0  0  0
  7  9  2  0  0  0  0
  7 12  1  0  0  0  0
  7 20  1  0  0  0  0
  8 10  1  0  0  0  0
  8 12  2  0  0  0  0
  8 21  1  0  0  0  0
  9 13  1  0  0  0  0
  9 22  1  0  0  0  0
 10 13  2  0  0  0  0
 10 23  1  0  0  0  0
 11 24  1  0  0  0  0
 11 25  1  0  0  0  0
M  CHG  1   5   1
M  END
> <pdb_id>
4RUZ

> <uniprot_id>
P00918

> <usmiles>
S(=O)(=O)([NH3+])c1ccc(OCC)cc1

$$$$
3W8_A_307
          07192416293D 1   1.00000     0.00000     0
            
 24 24  0  0  0  0            999 V2000
   -5.9707    0.9154   16.9183 S   0  0  0  0  0  0  0  0  0  0  0  0
   -5.4313    1.0357   18.2363 O   0  0  0  0  0  0  0  0  0  0  0  0
   -7.4079    0.9478   16.7976 O   0  0  0  0  0  0  0  0  0  0  0  0
   -4.1134    5.7701   14.1061 O   0  0  0  0  0  0  0  0  0  0  0  0
   -5.3977   -0.3989   16.2088 N   0  0  0  0  0  0  0  0  0  0  0  0
   -2.6362    7.2420   12.9848 C   0  0  0  0  0  0  0  0  0  0  0  0
   -2.7611    5.9079   13.6531 C   0  0  0  0  0  0  0  0  0  0  0  0
   -6.2418    3.3850   15.8091 C   0  0  0  0  0  0  0  0  0  0  0  0
   -4.0417    2.4229   15.6533 C   0  0  0  0  0  0  0  0  0  0  0  0
   -5.7808    4.5216   15.1702 C   0  0  0  0  0  0  0  0  0  0  0  0
   -3.5917    3.5705   15.0075 C   0  0  0  0  0  0  0  0  0  0  0  0
   -5.3792    2.3258   16.0306 C   0  0  0  0  0  0  0  0  0  0  0  0
   -4.4663    4.6110   14.7528 C   0  0  0  0  0  0  0  0  0  0  0  0
   -5.7804   -0.4744   15.2880 H   0  0  0  0  0  0  0  0  0  0  0  0
   -4.4011   -0.3393   16.1517 H   0  0  0  0  0  0  0  0  0  0  0  0
   -1.6991    7.3646   12.6580 H   0  0  0  0  0  0  0  0  0  0  0  0
   -3.2678    7.2875   12.2108 H   0  0  0  0  0  0  0  0  0  0  0  0
   -2.8584    7.9647   13.6392 H   0  0  0  0  0  0  0  0  0  0  0  0
   -2.5444    5.1799   13.0027 H   0  0  0  0  0  0  0  0  0  0  0  0
   -2.1349    5.8572   14.4311 H   0  0  0  0  0  0  0  0  0  0  0  0
   -7.1939    3.3288   16.1096 H   0  0  0  0  0  0  0  0  0  0  0  0
   -3.4089    1.6727   15.8454 H   0  0  0  0  0  0  0  0  0  0  0  0
   -6.4047    5.2863   15.0086 H   0  0  0  0  0  0  0  0  0  0  0  0
   -2.6346    3.6429   14.7271 H   0  0  0  0  0  0  0  0  0  0  0  0
  1  2  2  0  0  0  0
  1  3  2  0  0  0  0
  1  5  1  0  0  0  0
  1 12  1  0  0  0  0
  4  7  1  0  0  0  0
  4 13  1  0  0  0  0
  6  7  1  0  0  0  0
  8 10  2  0  0  0  0
  8 12  1  0  0  0  0
  9 11  1  0  0  0  0
  9 12  2  0  0  0  0
 10 13  1  0  0  0  0
 11 13  2  0  0  0  0
  5 14  1  0  0  0  0
  5 15  1  0  0  0  0
  6 16  1  0  0  0  0
  6 17  1  0  0  0  0
  6 18  1  0  0  0  0
  7 19  1  0  0  0  0
  7 20  1  0  0  0  0
  8 21  1  0  0  0  0
  9 22  1  0  0  0  0
 10 23  1  0  0  0  0
 11 24  1  0  0  0  0
M  END
> <pdb_id>
6I1U

> <uniprot_id>
P00918

> <usmiles>
S(=O)(=O)(N)c1ccc(OCC)cc1

$$$$
3WH_A_501
          07192416213D 1   1.00000     0.00000     0
            
 51 54  0  0  0  0            999 V2000
   18.5530   10.8090   33.8536 I   0  0  0  0  0  0  0  0  0  0  0  0
   26.7425    4.5009   27.8605 O   0  0  0  0  0  0  0  0  0  0  0  0
   25.9179    6.2929   26.6837 N   0  0  0  0  0  0  0  0  0  0  0  0
   20.2431    7.0828   32.6814 N   0  0  0  0  0  0  0  0  0  0  0  0
   21.3982   13.2605   31.7998 N   0  0  0  0  0  0  0  0  0  0  0  0
   22.0430    6.4772   31.5239 N   0  0  0  0  0  0  0  0  0  0  0  0
   21.7192    8.7083   31.7858 N   0  0  0  0  0  0  0  0  0  0  0  0
   25.4602    6.0026   28.9785 N   0  0  0  0  0  0  0  0  0  0  0  0
   27.0440    7.0295   24.5381 C   0  0  0  0  0  0  0  0  0  0  0  0
   26.5165    5.8807   25.4240 C   0  0  0  0  0  0  0  0  0  0  0  0
   19.4867    8.0361   33.1805 C   0  0  0  0  0  0  0  0  0  0  0  0
   20.6953   12.1689   32.1298 C   0  0  0  0  0  0  0  0  0  0  0  0
   24.7065    7.2266   28.9507 C   0  0  0  0  0  0  0  0  0  0  0  0
   25.4831    5.3900   30.3050 C   0  0  0  0  0  0  0  0  0  0  0  0
   24.8543   12.9259   30.6405 C   0  0  0  0  0  0  0  0  0  0  0  0
   24.9045   11.5495   30.7448 C   0  0  0  0  0  0  0  0  0  0  0  0
   23.3441    7.1609   29.5721 C   0  0  0  0  0  0  0  0  0  0  0  0
   24.1239    5.2475   30.9235 C   0  0  0  0  0  0  0  0  0  0  0  0
   23.6928   13.5904   30.9578 C   0  0  0  0  0  0  0  0  0  0  0  0
   23.8405   10.7860   31.1928 C   0  0  0  0  0  0  0  0  0  0  0  0
   26.0783    5.5349   27.8672 C   0  0  0  0  0  0  0  0  0  0  0  0
   21.3224    7.4724   32.0081 C   0  0  0  0  0  0  0  0  0  0  0  0
   19.8112    9.3831   32.9930 C   0  0  0  0  0  0  0  0  0  0  0  0
   23.3567    6.5359   30.9154 C   0  0  0  0  0  0  0  0  0  0  0  0
   22.6195   12.8635   31.4069 C   0  0  0  0  0  0  0  0  0  0  0  0
   20.9591    9.6747   32.2757 C   0  0  0  0  0  0  0  0  0  0  0  0
   21.3900   11.0310   32.0206 C   0  0  0  0  0  0  0  0  0  0  0  0
   22.6776   11.4623   31.5329 C   0  0  0  0  0  0  0  0  0  0  0  0
   25.3787    7.1345   26.7140 H   0  0  0  0  0  0  0  0  0  0  0  0
   21.0711   14.2047   31.8391 H   0  0  0  0  0  0  0  0  0  0  0  0
   21.6298    5.5686   31.5848 H   0  0  0  0  0  0  0  0  0  0  0  0
   27.4349    6.6510   23.6991 H   0  0  0  0  0  0  0  0  0  0  0  0
   26.2905    7.6449   24.3066 H   0  0  0  0  0  0  0  0  0  0  0  0
   27.7482    7.5369   25.0346 H   0  0  0  0  0  0  0  0  0  0  0  0
   25.8252    5.3805   24.9024 H   0  0  0  0  0  0  0  0  0  0  0  0
   27.2830    5.2725   25.6304 H   0  0  0  0  0  0  0  0  0  0  0  0
   18.6681    7.7941   33.7013 H   0  0  0  0  0  0  0  0  0  0  0  0
   19.7418   12.2016   32.4294 H   0  0  0  0  0  0  0  0  0  0  0  0
   24.5960    7.4986   27.9947 H   0  0  0  0  0  0  0  0  0  0  0  0
   25.2333    7.9238   29.4369 H   0  0  0  0  0  0  0  0  0  0  0  0
   26.0460    5.9575   30.9058 H   0  0  0  0  0  0  0  0  0  0  0  0
   25.8916    4.4806   30.2264 H   0  0  0  0  0  0  0  0  0  0  0  0
   25.6583   13.4364   30.3359 H   0  0  0  0  0  0  0  0  0  0  0  0
   25.7495   11.0826   30.4844 H   0  0  0  0  0  0  0  0  0  0  0  0
   22.7462    6.6252   28.9758 H   0  0  0  0  0  0  0  0  0  0  0  0
   22.9854    8.0906   29.6554 H   0  0  0  0  0  0  0  0  0  0  0  0
   24.2317    4.9435   31.8701 H   0  0  0  0  0  0  0  0  0  0  0  0
   23.6073    4.5624   30.4101 H   0  0  0  0  0  0  0  0  0  0  0  0
   23.6319   14.5841   30.8631 H   0  0  0  0  0  0  0  0  0  0  0  0
   23.9069    9.7911   31.2681 H   0  0  0  0  0  0  0  0  0  0  0  0
   23.8852    7.1601   31.4907 H   0  0  0  0  0  0  0  0  0  0  0  0
  1 23  1  0  0  0  0
  2 21  2  0  0  0  0
  3 10  1  0  0  0  0
  3 21  1  0  0  0  0
  4 11  2  0  0  0  0
  4 22  1  0  0  0  0
  5 12  1  0  0  0  0
  5 25  1  0  0  0  0
  6 22  1  0  0  0  0
  6 24  1  0  0  0  0
  7 22  2  0  0  0  0
  7 26  1  0  0  0  0
  8 13  1  0  0  0  0
  8 14  1  0  0  0  0
  8 21  1  0  0  0  0
  9 10  1  0  0  0  0
 11 23  1  0  0  0  0
 12 27  2  0  0  0  0
 13 17  1  0  0  0  0
 14 18  1  0  0  0  0
 15 16  2  0  0  0  0
 15 19  1  0  0  0  0
 16 20  1  0  0  0  0
 17 24  1  0  0  0  0
 18 24  1  0  0  0  0
 19 25  2  0  0  0  0
 20 28  2  0  0  0  0
 23 26  2  0  0  0  0
 25 28  1  0  0  0  0
 26 27  1  0  0  0  0
 27 28  1  0  0  0  0
  3 29  1  0  0  0  0
  5 30  1  0  0  0  0
  6 31  1  0  0  0  0
  9 32  1  0  0  0  0
  9 33  1  0  0  0  0
  9 34  1  0  0  0  0
 10 35  1  0  0  0  0
 10 36  1  0  0  0  0
 11 37  1  0  0  0  0
 12 38  1  0  0  0  0
 13 39  1  0  0  0  0
 13 40  1  0  0  0  0
 14 41  1  0  0  0  0
 14 42  1  0  0  0  0
 15 43  1  0  0  0  0
 16 44  1  0  0  0  0
 17 45  1  0  0  0  0
 17 46  1  0  0  0  0
 18 47  1  0  0  0  0
 18 48  1  0  0  0  0
 19 49  1  0  0  0  0
 20 50  1  0  0  0  0
 24 51  1  0  0  0  0
M  END
> <pdb_id>
4X21

> <uniprot_id>
P53779

> <usmiles>
Ic1c(nc(nc1)NC2CCN(C(=O)NCC)CC2)C=3c4c(NC3)cccc4

$$$$
3X0_A_202
          07212401333D 1   1.00000     0.00000     0
            
 40 43  0  0  0  0            999 V2000
  -16.6078  -22.2770  -13.1471 Cl  0  0  0  0  0  0  0  0  0  0  0  0
  -17.1304  -22.6588  -22.7522 N   0  0  0  0  0  0  0  0  0  0  0  0
  -16.1993  -23.5429  -22.2733 N   0  0  0  0  0  0  0  0  0  0  0  0
  -14.8025  -22.2140  -18.7969 N   0  0  0  0  0  0  0  0  0  0  0  0
  -15.7325  -21.6199  -21.4741 N   0  0  0  0  0  0  0  0  0  0  0  0
  -17.5721  -20.1843  -22.4959 C   0  0  0  0  0  0  0  0  0  0  0  0
  -13.8232  -24.8899  -21.3373 C   0  0  0  0  0  0  0  0  0  0  0  0
  -14.3350  -23.4886  -19.3441 C   0  0  0  0  0  0  0  0  0  0  0  0
  -13.4676  -18.8283  -19.2778 C   0  0  0  0  0  0  0  0  0  0  0  0
  -13.9586  -18.4643  -20.5172 C   0  0  0  0  0  0  0  0  0  0  0  0
  -16.2526  -21.1036  -15.5748 C   0  0  0  0  0  0  0  0  0  0  0  0
  -15.4485  -23.3609  -15.3108 C   0  0  0  0  0  0  0  0  0  0  0  0
  -13.7386  -20.0782  -18.7648 C   0  0  0  0  0  0  0  0  0  0  0  0
  -14.7116  -19.3831  -21.2372 C   0  0  0  0  0  0  0  0  0  0  0  0
  -15.7745  -21.0854  -16.8947 C   0  0  0  0  0  0  0  0  0  0  0  0
  -15.0405  -23.3351  -16.6186 C   0  0  0  0  0  0  0  0  0  0  0  0
  -16.8424  -21.4742  -22.2305 C   0  0  0  0  0  0  0  0  0  0  0  0
  -15.3690  -22.8942  -21.4765 C   0  0  0  0  0  0  0  0  0  0  0  0
  -16.0621  -22.2262  -14.7690 C   0  0  0  0  0  0  0  0  0  0  0  0
  -15.1969  -22.2281  -17.4527 C   0  0  0  0  0  0  0  0  0  0  0  0
  -14.5219  -20.9959  -19.4529 C   0  0  0  0  0  0  0  0  0  0  0  0
  -15.0108  -20.6851  -20.7173 C   0  0  0  0  0  0  0  0  0  0  0  0
  -14.1619  -23.4845  -20.8715 C   0  0  2  0  0  0  0  0  0  0  0  0
  -17.1454  -19.4463  -21.9732 H   0  0  0  0  0  0  0  0  0  0  0  0
  -17.5274  -19.9707  -23.4718 H   0  0  0  0  0  0  0  0  0  0  0  0
  -18.5283  -20.2792  -22.2189 H   0  0  0  0  0  0  0  0  0  0  0  0
  -13.7094  -24.8934  -22.3308 H   0  0  0  0  0  0  0  0  0  0  0  0
  -12.9734  -25.1891  -20.9034 H   0  0  0  0  0  0  0  0  0  0  0  0
  -14.5638  -25.5124  -21.0845 H   0  0  0  0  0  0  0  0  0  0  0  0
  -14.9992  -24.1967  -19.1043 H   0  0  0  0  0  0  0  0  0  0  0  0
  -13.4520  -23.7052  -18.9277 H   0  0  0  0  0  0  0  0  0  0  0  0
  -12.9140  -18.1828  -18.7517 H   0  0  0  0  0  0  0  0  0  0  0  0
  -13.7750  -17.5545  -20.8895 H   0  0  0  0  0  0  0  0  0  0  0  0
  -16.7331  -20.3062  -15.2098 H   0  0  0  0  0  0  0  0  0  0  0  0
  -15.3098  -24.1785  -14.7520 H   0  0  0  0  0  0  0  0  0  0  0  0
  -13.3614  -20.3311  -17.8738 H   0  0  0  0  0  0  0  0  0  0  0  0
  -15.0540  -19.1297  -22.1420 H   0  0  0  0  0  0  0  0  0  0  0  0
  -15.8478  -20.2494  -17.4385 H   0  0  0  0  0  0  0  0  0  0  0  0
  -14.6074  -24.1539  -16.9954 H   0  0  0  0  0  0  0  0  0  0  0  0
  -13.3867  -22.8924  -21.0916 H   0  0  0  0  0  0  0  0  0  0  0  0
  1 19  1  0  0  0  0
  2  3  1  0  0  0  0
  2 17  2  0  0  0  0
  3 18  2  0  0  0  0
  4  8  1  0  0  0  0
  4 20  1  0  0  0  0
  4 21  1  0  0  0  0
  5 17  1  0  0  0  0
  5 18  1  0  0  0  0
  5 22  1  0  0  0  0
  6 17  1  0  0  0  0
  7 23  1  0  0  0  0
  8 23  1  0  0  0  0
  9 10  2  0  0  0  0
  9 13  1  0  0  0  0
 10 14  1  0  0  0  0
 11 15  1  0  0  0  0
 11 19  2  0  0  0  0
 12 16  2  0  0  0  0
 12 19  1  0  0  0  0
 13 21  2  0  0  0  0
 14 22  2  0  0  0  0
 15 20  2  0  0  0  0
 16 20  1  0  0  0  0
 18 23  1  0  0  0  0
 21 22  1  0  0  0  0
  6 24  1  0  0  0  0
  6 25  1  0  0  0  0
  6 26  1  0  0  0  0
  7 27  1  0  0  0  0
  7 28  1  0  0  0  0
  7 29  1  0  0  0  0
  8 30  1  0  0  0  0
  8 31  1  0  0  0  0
  9 32  1  0  0  0  0
 10 33  1  0  0  0  0
 11 34  1  0  0  0  0
 12 35  1  0  0  0  0
 13 36  1  0  0  0  0
 14 37  1  0  0  0  0
 15 38  1  0  0  0  0
 16 39  1  0  0  0  0
 23 40  1  0  0  0  0
M  END
> <pdb_id>
4X2I

> <uniprot_id>
O60885

> <usmiles>
Clc1ccc(N2c3c(N4C(=NN=C4C)[C@@H](C2)C)cccc3)cc1

$$$$
3X8_A_301
          07202405373D 1   1.00000     0.00000     0
            
 44 46  0  0  0  0            999 V2000
   13.8889   13.8351  -13.3908 O   0  0  0  0  0  0  0  0  0  0  0  0
   10.5744   11.6085  -14.8787 O   0  0  0  0  0  0  0  0  0  0  0  0
    9.2827   11.8097  -12.3017 O   0  0  0  0  0  0  0  0  0  0  0  0
   11.1895   13.6433  -11.2631 O   0  0  0  0  0  0  0  0  0  0  0  0
    9.1673   14.9738  -14.9071 O   0  0  0  0  0  0  0  0  0  0  0  0
   11.4830   14.2862  -14.8680 O   0  0  0  0  0  0  0  0  0  0  0  0
    9.0992   22.9624  -17.3255 C   0  0  0  0  0  0  0  0  0  0  0  0
    9.6596   22.0169  -18.1770 C   0  0  0  0  0  0  0  0  0  0  0  0
    8.5844   22.5661  -16.0988 C   0  0  0  0  0  0  0  0  0  0  0  0
    9.7082   20.6749  -17.8059 C   0  0  0  0  0  0  0  0  0  0  0  0
    8.6295   21.2256  -15.7310 C   0  0  0  0  0  0  0  0  0  0  0  0
   10.2820   16.7509  -16.1481 C   0  0  0  0  0  0  0  0  0  0  0  0
    8.2046   17.1098  -14.9935 C   0  0  0  0  0  0  0  0  0  0  0  0
   10.2681   18.0857  -16.5590 C   0  0  0  0  0  0  0  0  0  0  0  0
    8.1926   18.4356  -15.3995 C   0  0  0  0  0  0  0  0  0  0  0  0
   13.0109   14.9223  -13.0836 C   0  0  0  0  0  0  0  0  0  0  0  0
    9.2417   16.2611  -15.3598 C   0  0  0  0  0  0  0  0  0  0  0  0
    9.1908   20.2745  -16.5796 C   0  0  0  0  0  0  0  0  0  0  0  0
    9.2240   18.9336  -16.1856 C   0  0  0  0  0  0  0  0  0  0  0  0
   10.1270   13.9624  -15.2645 C   0  0  1  0  0  0  0  0  0  0  0  0
    9.6891   12.6882  -14.5446 C   0  0  2  0  0  0  0  0  0  0  0  0
    9.7177   12.9603  -13.0420 C   0  0  2  0  0  0  0  0  0  0  0  0
   11.1380   13.3276  -12.6562 C   0  0  1  0  0  0  0  0  0  0  0  0
   11.5708   14.5496  -13.4529 C   0  0  2  0  0  0  0  0  0  0  0  0
   13.8412   13.6339  -14.3687 H   0  0  0  0  0  0  0  0  0  0  0  0
   10.2849   10.7791  -14.4006 H   0  0  0  0  0  0  0  0  0  0  0  0
    9.8866   11.0376  -12.4998 H   0  0  0  0  0  0  0  0  0  0  0  0
   10.5778   14.4108  -11.0717 H   0  0  0  0  0  0  0  0  0  0  0  0
    9.0656   24.0109  -17.6193 H   0  0  0  0  0  0  0  0  0  0  0  0
   10.0659   22.3279  -19.1404 H   0  0  0  0  0  0  0  0  0  0  0  0
    8.1424   23.3019  -15.4274 H   0  0  0  0  0  0  0  0  0  0  0  0
   10.1475   19.9394  -18.4786 H   0  0  0  0  0  0  0  0  0  0  0  0
    8.2246   20.9167  -14.7675 H   0  0  0  0  0  0  0  0  0  0  0  0
   11.1010   16.0962  -16.4424 H   0  0  0  0  0  0  0  0  0  0  0  0
    7.3911   16.7288  -14.3752 H   0  0  0  0  0  0  0  0  0  0  0  0
   11.0820   18.4696  -17.1739 H   0  0  0  0  0  0  0  0  0  0  0  0
    7.3726   19.0897  -15.1021 H   0  0  0  0  0  0  0  0  0  0  0  0
   13.3141   15.8026  -13.6500 H   0  0  0  0  0  0  0  0  0  0  0  0
   13.0658   15.1415  -12.0172 H   0  0  0  0  0  0  0  0  0  0  0  0
   10.0993   13.7966  -16.3416 H   0  0  0  0  0  0  0  0  0  0  0  0
    8.6746   12.4306  -14.8487 H   0  0  0  0  0  0  0  0  0  0  0  0
    9.0541   13.7945  -12.8174 H   0  0  0  0  0  0  0  0  0  0  0  0
   11.8024   12.4923  -12.8788 H   0  0  0  0  0  0  0  0  0  0  0  0
   10.9107   15.3839  -13.2152 H   0  0  0  0  0  0  0  0  0  0  0  0
  1 16  1  0  0  0  0
  1 25  1  0  0  0  0
  2 21  1  0  0  0  0
  2 26  1  0  0  0  0
  3 22  1  0  0  0  0
  3 27  1  0  0  0  0
  4 23  1  0  0  0  0
  4 28  1  0  0  0  0
  5 17  1  0  0  0  0
  5 20  1  0  0  0  0
  6 20  1  0  0  0  0
  6 24  1  0  0  0  0
  7  8  2  0  0  0  0
  7  9  1  0  0  0  0
  7 29  1  0  0  0  0
  8 10  1  0  0  0  0
  8 30  1  0  0  0  0
  9 11  2  0  0  0  0
  9 31  1  0  0  0  0
 10 18  2  0  0  0  0
 10 32  1  0  0  0  0
 11 18  1  0  0  0  0
 11 33  1  0  0  0  0
 12 14  1  0  0  0  0
 12 17  2  0  0  0  0
 12 34  1  0  0  0  0
 13 15  2  0  0  0  0
 13 17  1  0  0  0  0
 13 35  1  0  0  0  0
 14 19  2  0  0  0  0
 14 36  1  0  0  0  0
 15 19  1  0  0  0  0
 15 37  1  0  0  0  0
 16 24  1  0  0  0  0
 16 38  1  0  0  0  0
 16 39  1  0  0  0  0
 18 19  1  0  0  0  0
 20 21  1  0  0  0  0
 20 40  1  0  0  0  0
 21 22  1  0  0  0  0
 21 41  1  0  0  0  0
 22 23  1  0  0  0  0
 22 42  1  0  0  0  0
 23 24  1  0  0  0  0
 23 43  1  0  0  0  0
 24 44  1  0  0  0  0
M  END
> <pdb_id>
4X50

> <uniprot_id>
P08191

> <usmiles>
O(c1ccc(c2ccccc2)cc1)[C@H]3O[C@@H]([C@@H](O)[C@H](O)[C@@H]3O)CO

$$$$
3XH_A_201
          07202408113D 1   1.00000     0.00000     0
            
 23 23  0  0  0  0            999 V2000
    5.9473  -21.9043  -25.6556 O   0  0  0  0  0  0  0  0  0  0  0  0
    5.8203  -20.5844  -27.2561 O   0  0  0  0  0  0  0  0  0  0  0  0
    8.7286  -17.7231  -24.7547 O   0  0  0  0  0  0  0  0  0  0  0  0
    9.9636  -13.4202  -27.0053 O   0  0  0  0  0  0  0  0  0  0  0  0
    7.2647  -18.6478  -26.1187 N   0  0  0  0  0  0  0  0  0  0  0  0
    6.7618  -14.8917  -27.9218 C   0  0  0  0  0  0  0  0  0  0  0  0
    7.8155  -13.9608  -27.8580 C   0  0  0  0  0  0  0  0  0  0  0  0
    6.8561  -16.0648  -27.1648 C   0  0  0  0  0  0  0  0  0  0  0  0
    9.0121  -15.3776  -26.3331 C   0  0  0  0  0  0  0  0  0  0  0  0
    7.3032  -19.8944  -25.5007 C   0  0  0  0  0  0  0  0  0  0  0  0
    6.2944  -20.8651  -26.1994 C   0  0  0  0  0  0  0  0  0  0  0  0
    8.0377  -17.5819  -25.6220 C   0  0  0  0  0  0  0  0  0  0  0  0
    8.9121  -14.2302  -27.0712 C   0  0  0  0  0  0  0  0  0  0  0  0
    7.9440  -16.2944  -26.3993 C   0  0  0  0  0  0  0  0  0  0  0  0
   10.4972  -13.5957  -27.6428 H   0  0  0  0  0  0  0  0  0  0  0  0
    6.7585  -18.5318  -26.8028 H   0  0  0  0  0  0  0  0  0  0  0  0
    6.0069  -14.7189  -28.4365 H   0  0  0  0  0  0  0  0  0  0  0  0
    7.7759  -13.1742  -28.3525 H   0  0  0  0  0  0  0  0  0  0  0  0
    6.1638  -16.6856  -27.1854 H   0  0  0  0  0  0  0  0  0  0  0  0
    9.7685  -15.5490  -25.8248 H   0  0  0  0  0  0  0  0  0  0  0  0
    7.0624  -19.7977  -24.5658 H   0  0  0  0  0  0  0  0  0  0  0  0
    8.1994  -20.2596  -25.5669 H   0  0  0  0  0  0  0  0  0  0  0  0
    6.3334  -22.1577  -24.7686 H   0  0  0  0  0  0  0  0  0  0  0  0
  1 11  1  0  0  0  0
  2 11  2  0  0  0  0
  3 12  2  0  0  0  0
  4 13  1  0  0  0  0
  4 15  1  0  0  0  0
  5 10  1  0  0  0  0
  5 12  1  0  0  0  0
  5 16  1  0  0  0  0
  6  7  2  0  0  0  0
  6  8  1  0  0  0  0
  6 17  1  0  0  0  0
  7 13  1  0  0  0  0
  7 18  1  0  0  0  0
  8 14  2  0  0  0  0
  8 19  1  0  0  0  0
  9 13  2  0  0  0  0
  9 14  1  0  0  0  0
  9 20  1  0  0  0  0
 10 11  1  0  0  0  0
 10 21  1  0  0  0  0
 10 22  1  0  0  0  0
 12 14  1  0  0  0  0
  1 23  1  0  0  0  0
M  END
> <pdb_id>
5RTB

> <uniprot_id>
P0DTD1

> <usmiles>
O=C(NCC(=O)O)c1cc(O)ccc1

$$$$
3XK_A_301
          07202402503D 1   1.00000     0.00000     0
            
 38 41  0  0  0  0            999 V2000
   -0.6500    8.9866   22.8063 O   0  0  0  0  0  0  0  0  0  0  0  0
    9.1618    5.8781   15.1720 N   0  0  0  0  0  0  0  0  0  0  0  0
    3.9571   10.0851   20.0451 N   0  0  0  0  0  0  0  0  0  0  0  0
    8.7980    8.3964   17.2750 N   0  0  0  0  0  0  0  0  0  0  0  0
   -1.8683    7.7219   21.3268 N   0  0  0  0  0  0  0  0  0  0  0  0
    6.2486   10.0769   19.3082 N   0  0  0  0  0  0  0  0  0  0  0  0
   -2.9020    8.5651   23.3125 C   0  0  0  0  0  0  0  0  0  0  0  0
    8.6579    6.5266   16.0169 C   0  0  0  0  0  0  0  0  0  0  0  0
    8.2946    9.3346   18.0786 C   0  0  0  0  0  0  0  0  0  0  0  0
    2.7797    9.4341   19.9946 C   0  0  0  0  0  0  0  0  0  0  0  0
   -0.4912    6.3360   18.1764 C   0  0  0  0  0  0  0  0  0  0  0  0
   -1.3811    6.6243   19.2256 C   0  0  0  0  0  0  0  0  0  0  0  0
    0.8134    6.8601   18.1642 C   0  0  0  0  0  0  0  0  0  0  0  0
    0.3281    7.9557   20.2585 C   0  0  0  0  0  0  0  0  0  0  0  0
    6.7118    7.2550   17.2040 C   0  0  0  0  0  0  0  0  0  0  0  0
    3.7078    7.7208   18.5516 C   0  0  0  0  0  0  0  0  0  0  0  0
   -1.6858    8.4498   22.4469 C   0  0  0  0  0  0  0  0  0  0  0  0
    4.9914    9.5665   19.3730 C   0  0  0  0  0  0  0  0  0  0  0  0
    8.0742    7.3485   16.8429 C   0  0  0  0  0  0  0  0  0  0  0  0
   -0.9643    7.4328   20.2826 C   0  0  0  0  0  0  0  0  0  0  0  0
    6.9925    9.2659   18.5131 C   0  0  0  0  0  0  0  0  0  0  0  0
    2.6147    8.2544   19.2671 C   0  0  0  0  0  0  0  0  0  0  0  0
    1.2463    7.6468   19.2393 C   0  0  0  0  0  0  0  0  0  0  0  0
    4.9222    8.4092   18.6317 C   0  0  0  0  0  0  0  0  0  0  0  0
    6.1796    8.2225   18.0675 C   0  0  0  0  0  0  0  0  0  0  0  0
   -2.7811    7.3279   21.2201 H   0  0  0  0  0  0  0  0  0  0  0  0
    6.5702   10.9056   19.7663 H   0  0  0  0  0  0  0  0  0  0  0  0
   -3.6627    8.0763   22.8853 H   0  0  0  0  0  0  0  0  0  0  0  0
   -2.7116    8.1666   24.2097 H   0  0  0  0  0  0  0  0  0  0  0  0
   -3.1441    9.5293   23.4206 H   0  0  0  0  0  0  0  0  0  0  0  0
    8.8720   10.0977   18.3686 H   0  0  0  0  0  0  0  0  0  0  0  0
    1.9983    9.8078   20.4943 H   0  0  0  0  0  0  0  0  0  0  0  0
   -0.7913    5.7478   17.4255 H   0  0  0  0  0  0  0  0  0  0  0  0
   -2.3089    6.2513   19.2141 H   0  0  0  0  0  0  0  0  0  0  0  0
    1.4257    6.6731   17.3961 H   0  0  0  0  0  0  0  0  0  0  0  0
    0.6123    8.5726   20.9925 H   0  0  0  0  0  0  0  0  0  0  0  0
    6.1394    6.5148   16.8513 H   0  0  0  0  0  0  0  0  0  0  0  0
    3.6176    6.8851   18.0100 H   0  0  0  0  0  0  0  0  0  0  0  0
  1 17  2  0  0  0  0
  2  8  3  0  0  0  0
  3 10  1  0  0  0  0
  3 18  2  0  0  0  0
  4  9  1  0  0  0  0
  4 19  2  0  0  0  0
  5 17  1  0  0  0  0
  5 20  1  0  0  0  0
  6 18  1  0  0  0  0
  6 21  1  0  0  0  0
  7 17  1  0  0  0  0
  8 19  1  0  0  0  0
  9 21  2  0  0  0  0
 10 22  2  0  0  0  0
 11 12  1  0  0  0  0
 11 13  2  0  0  0  0
 12 20  2  0  0  0  0
 13 23  1  0  0  0  0
 14 20  1  0  0  0  0
 14 23  2  0  0  0  0
 15 19  1  0  0  0  0
 15 25  2  0  0  0  0
 16 22  1  0  0  0  0
 16 24  2  0  0  0  0
 18 24  1  0  0  0  0
 21 25  1  0  0  0  0
 22 23  1  0  0  0  0
 24 25  1  0  0  0  0
  5 26  1  0  0  0  0
  6 27  1  0  0  0  0
  7 28  1  0  0  0  0
  7 29  1  0  0  0  0
  7 30  1  0  0  0  0
  9 31  1  0  0  0  0
 10 32  1  0  0  0  0
 11 33  1  0  0  0  0
 12 34  1  0  0  0  0
 13 35  1  0  0  0  0
 14 36  1  0  0  0  0
 15 37  1  0  0  0  0
 16 38  1  0  0  0  0
M  END
> <pdb_id>
4RVK

> <uniprot_id>
O14757

> <usmiles>
O=C(Nc1cc(c2cnc3Nc4c(c3c2)cc(nc4)C#N)ccc1)C

$$$$
3XO_A_301
          07202405373D 1   1.00000     0.00000     0
            
 59 62  0  0  0  0            999 V2000
    8.2250   17.1580  -14.3290 Cl  0  0  0  0  0  0  0  0  0  0  0  0
    8.4910   21.1830  -16.2180 O   0  0  0  0  0  0  0  0  0  0  0  0
    9.3210   23.9240  -17.6500 O   0  0  0  0  0  0  0  0  0  0  0  0
   14.0330   13.6380  -13.4710 O   0  0  0  0  0  0  0  0  0  0  0  0
   10.5300   11.4200  -14.7460 O   0  0  0  0  0  0  0  0  0  0  0  0
    9.2670   12.0520  -12.2640 O   0  0  0  0  0  0  0  0  0  0  0  0
   11.1630   13.9260  -11.3500 O   0  0  0  0  0  0  0  0  0  0  0  0
    9.5640   14.8510  -15.3610 O   0  0  0  0  0  0  0  0  0  0  0  0
   11.7080   14.0570  -14.9790 O   0  0  0  0  0  0  0  0  0  0  0  0
   11.0350   19.6070  -17.8250 N   0  0  0  0  0  0  0  0  0  0  0  0
   14.1550   23.8070  -19.9970 N   0  0  0  0  0  0  0  0  0  0  0  0
   11.7140   22.5450  -19.2510 N   0  0  0  0  0  0  0  0  0  0  0  0
   15.4690   24.4870  -19.6750 C   0  0  0  0  0  0  0  0  0  0  0  0
   10.9200   16.0290  -16.9910 C   0  0  0  0  0  0  0  0  0  0  0  0
   11.2820   17.2490  -17.5960 C   0  0  0  0  0  0  0  0  0  0  0  0
    9.7170   18.4140  -16.1470 C   0  0  0  0  0  0  0  0  0  0  0  0
   13.2160   14.7910  -13.2910 C   0  0  0  0  0  0  0  0  0  0  0  0
   14.1560   22.4320  -19.5130 C   0  0  0  0  0  0  0  0  0  0  0  0
   13.0430   24.5410  -19.3930 C   0  0  0  0  0  0  0  0  0  0  0  0
   12.8400   21.7490  -19.8080 C   0  0  0  0  0  0  0  0  0  0  0  0
   11.7180   23.9140  -19.7680 C   0  0  0  0  0  0  0  0  0  0  0  0
    9.3980   17.1920  -15.5730 C   0  0  0  0  0  0  0  0  0  0  0  0
    9.3220   21.4820  -16.9940 C   0  0  0  0  0  0  0  0  0  0  0  0
    9.6950   22.8070  -17.6730 C   0  0  0  0  0  0  0  0  0  0  0  0
    9.9710   16.0190  -15.9710 C   0  0  0  0  0  0  0  0  0  0  0  0
   10.6680   18.4410  -17.1610 C   0  0  0  0  0  0  0  0  0  0  0  0
   10.4530   20.8560  -17.7390 C   0  0  0  0  0  0  0  0  0  0  0  0
   10.7900   22.0870  -18.3770 C   0  0  0  0  0  0  0  0  0  0  0  0
   10.4130   13.7300  -15.4390 C   0  0  1  0  0  0  0  0  0  0  0  0
    9.7900   12.6380  -14.5780 C   0  0  2  0  0  0  0  0  0  0  0  0
    9.7760   13.0750  -13.1150 C   0  0  2  0  0  0  0  0  0  0  0  0
   11.1840   13.4360  -12.6840 C   0  0  1  0  0  0  0  0  0  0  0  0
   11.7660   14.4990  -13.6080 C   0  0  2  0  0  0  0  0  0  0  0  0
   14.8630   13.7620  -12.9390 H   0  0  0  0  0  0  0  0  0  0  0  0
   10.2700   10.8330  -13.9880 H   0  0  0  0  0  0  0  0  0  0  0  0
    8.3150   11.9220  -12.5160 H   0  0  0  0  0  0  0  0  0  0  0  0
   10.6610   14.7820  -11.3730 H   0  0  0  0  0  0  0  0  0  0  0  0
   11.8270   19.5540  -18.4560 H   0  0  0  0  0  0  0  0  0  0  0  0
   16.2650   24.0440  -20.2720 H   0  0  0  0  0  0  0  0  0  0  0  0
   15.5090   25.5620  -19.8410 H   0  0  0  0  0  0  0  0  0  0  0  0
   15.7380   24.3150  -18.6340 H   0  0  0  0  0  0  0  0  0  0  0  0
   11.3820   15.1000  -17.3230 H   0  0  0  0  0  0  0  0  0  0  0  0
   12.0290   17.2530  -18.3890 H   0  0  0  0  0  0  0  0  0  0  0  0
    9.2190   19.3150  -15.7910 H   0  0  0  0  0  0  0  0  0  0  0  0
   13.6560   15.5260  -13.9640 H   0  0  0  0  0  0  0  0  0  0  0  0
   13.3210   15.1930  -12.2840 H   0  0  0  0  0  0  0  0  0  0  0  0
   14.9470   21.8790  -20.0170 H   0  0  0  0  0  0  0  0  0  0  0  0
   14.3920   22.3370  -18.4550 H   0  0  0  0  0  0  0  0  0  0  0  0
   13.0460   25.5690  -19.7510 H   0  0  0  0  0  0  0  0  0  0  0  0
   13.1140   24.6370  -18.3100 H   0  0  0  0  0  0  0  0  0  0  0  0
   12.7230   21.6040  -20.8810 H   0  0  0  0  0  0  0  0  0  0  0  0
   12.8080   20.7560  -19.3630 H   0  0  0  0  0  0  0  0  0  0  0  0
   11.5790   23.8980  -20.8480 H   0  0  0  0  0  0  0  0  0  0  0  0
   10.8940   24.4920  -19.3520 H   0  0  0  0  0  0  0  0  0  0  0  0
   10.6060   13.3790  -16.4520 H   0  0  0  0  0  0  0  0  0  0  0  0
    8.7670   12.4790  -14.9150 H   0  0  0  0  0  0  0  0  0  0  0  0
    9.1360   13.9520  -13.0250 H   0  0  0  0  0  0  0  0  0  0  0  0
   11.7930   12.5360  -12.7460 H   0  0  0  0  0  0  0  0  0  0  0  0
   11.1990   15.4210  -13.4860 H   0  0  0  0  0  0  0  0  0  0  0  0
  1 22  1  0  0  0  0
  2 23  2  0  0  0  0
  3 24  2  0  0  0  0
  4 17  1  0  0  0  0
  4 34  1  0  0  0  0
  5 30  1  0  0  0  0
  5 35  1  0  0  0  0
  6 31  1  0  0  0  0
  6 36  1  0  0  0  0
  7 32  1  0  0  0  0
  7 37  1  0  0  0  0
  8 25  1  0  0  0  0
  8 29  1  0  0  0  0
  9 29  1  0  0  0  0
  9 33  1  0  0  0  0
 10 26  1  0  0  0  0
 10 27  1  0  0  0  0
 10 38  1  0  0  0  0
 11 13  1  0  0  0  0
 11 18  1  0  0  0  0
 11 19  1  0  0  0  0
 12 20  1  0  0  0  0
 12 21  1  0  0  0  0
 12 28  1  0  0  0  0
 13 39  1  0  0  0  0
 13 40  1  0  0  0  0
 13 41  1  0  0  0  0
 14 15  1  0  0  0  0
 14 25  2  0  0  0  0
 14 42  1  0  0  0  0
 15 26  2  0  0  0  0
 15 43  1  0  0  0  0
 16 22  2  0  0  0  0
 16 26  1  0  0  0  0
 16 44  1  0  0  0  0
 17 33  1  0  0  0  0
 17 45  1  0  0  0  0
 17 46  1  0  0  0  0
 18 20  1  0  0  0  0
 18 47  1  0  0  0  0
 18 48  1  0  0  0  0
 19 21  1  0  0  0  0
 19 49  1  0  0  0  0
 19 50  1  0  0  0  0
 20 51  1  0  0  0  0
 20 52  1  0  0  0  0
 21 53  1  0  0  0  0
 21 54  1  0  0  0  0
 22 25  1  0  0  0  0
 23 24  1  0  0  0  0
 23 27  1  0  0  0  0
 24 28  1  0  0  0  0
 27 28  2  0  0  0  0
 29 30  1  0  0  0  0
 29 55  1  0  0  0  0
 30 31  1  0  0  0  0
 30 56  1  0  0  0  0
 31 32  1  0  0  0  0
 31 57  1  0  0  0  0
 32 33  1  0  0  0  0
 32 58  1  0  0  0  0
 33 59  1  0  0  0  0
M  END
> <pdb_id>
4X5R

> <uniprot_id>
P08191

> <usmiles>
Clc1c(O[C@H]2O[C@@H]([C@@H](O)[C@H](O)[C@@H]2O)CO)ccc(NC=3C(=O)C(=O)C3N4CCN(CC4)C)c1

$$$$
3XY_A_605
          07202405373D 1   1.00000     0.00000     0
            
 54 58  0  0  0  0            999 V2000
   14.7870    6.7710   13.0740 S   0  0  0  0  0  0  0  0  0  0  0  0
   19.3380    7.7060   12.4580 F   0  0  0  0  0  0  0  0  0  0  0  0
   17.6970    6.4220   11.9290 F   0  0  0  0  0  0  0  0  0  0  0  0
   17.8250    8.4170   11.1280 F   0  0  0  0  0  0  0  0  0  0  0  0
    7.9230   22.4520   15.2800 N   0  0  0  0  0  0  0  0  0  0  0  0
   12.1490    7.1610   12.3300 N   0  0  0  0  0  0  0  0  0  0  0  0
   11.4010    9.3710   11.8030 N   0  0  0  0  0  0  0  0  0  0  0  0
   12.8460   11.2070   11.9200 N   0  0  0  0  0  0  0  0  0  0  0  0
   10.0680   20.5720   13.4840 N   0  0  0  0  0  0  0  0  0  0  0  0
   11.0470   14.8480   10.7980 N   0  0  0  0  0  0  0  0  0  0  0  0
   11.1230    8.0260   11.9830 C   0  0  0  0  0  0  0  0  0  0  0  0
    8.3300   21.6400   14.6320 C   0  0  0  0  0  0  0  0  0  0  0  0
   10.7610   14.3580   12.1790 C   0  0  0  0  0  0  0  0  0  0  0  0
   10.9310   13.7230    9.7930 C   0  0  0  0  0  0  0  0  0  0  0  0
   10.0690   15.9070   10.3810 C   0  0  0  0  0  0  0  0  0  0  0  0
   11.8090   13.2800   12.4990 C   0  0  0  0  0  0  0  0  0  0  0  0
   11.8250   12.5260   10.0590 C   0  0  0  0  0  0  0  0  0  0  0  0
   11.3990   19.0250   12.1030 C   0  0  0  0  0  0  0  0  0  0  0  0
   11.3610   17.8670   11.3190 C   0  0  0  0  0  0  0  0  0  0  0  0
   14.9990    9.2640   12.6950 C   0  0  0  0  0  0  0  0  0  0  0  0
    8.1800   19.5280   13.2890 C   0  0  0  0  0  0  0  0  0  0  0  0
    9.0200   17.6660   11.8620 C   0  0  0  0  0  0  0  0  0  0  0  0
   17.2250    8.2030   13.3700 C   0  0  0  0  0  0  0  0  0  0  0  0
   13.3920    7.6750   12.5580 C   0  0  0  0  0  0  0  0  0  0  0  0
   15.7470    8.1620   13.0270 C   0  0  0  0  0  0  0  0  0  0  0  0
   12.6510    9.8680   12.0750 C   0  0  0  0  0  0  0  0  0  0  0  0
    8.8070   20.5950   13.8180 C   0  0  0  0  0  0  0  0  0  0  0  0
   11.7160   12.1020   11.5450 C   0  0  0  0  0  0  0  0  0  0  0  0
   10.2640   19.4930   12.7050 C   0  0  0  0  0  0  0  0  0  0  0  0
   10.1530   17.1260   11.2060 C   0  0  0  0  0  0  0  0  0  0  0  0
    9.1070   18.8340   12.5680 C   0  0  0  0  0  0  0  0  0  0  0  0
   13.6900    9.0090   12.4220 C   0  0  0  0  0  0  0  0  0  0  0  0
   18.0450    7.6850   12.1910 C   0  0  0  0  0  0  0  0  0  0  0  0
   13.7577   11.5934   12.0595 H   0  0  0  0  0  0  0  0  0  0  0  0
   10.7633   21.2366   13.7577 H   0  0  0  0  0  0  0  0  0  0  0  0
   10.1914    7.6825   11.8638 H   0  0  0  0  0  0  0  0  0  0  0  0
    9.8417   13.9666   12.2211 H   0  0  0  0  0  0  0  0  0  0  0  0
   10.8327   15.1115   12.8325 H   0  0  0  0  0  0  0  0  0  0  0  0
   11.1627   14.0882    8.8914 H   0  0  0  0  0  0  0  0  0  0  0  0
    9.9824   13.4065    9.7907 H   0  0  0  0  0  0  0  0  0  0  0  0
    9.1442   15.5342   10.4566 H   0  0  0  0  0  0  0  0  0  0  0  0
   10.2524   16.1531    9.4293 H   0  0  0  0  0  0  0  0  0  0  0  0
   11.6622   12.9529   13.4325 H   0  0  0  0  0  0  0  0  0  0  0  0
   12.7210   13.6837   12.4268 H   0  0  0  0  0  0  0  0  0  0  0  0
   12.7730   12.7685    9.8526 H   0  0  0  0  0  0  0  0  0  0  0  0
   11.5412   11.7648    9.4759 H   0  0  0  0  0  0  0  0  0  0  0  0
   12.2627   19.5142   12.2241 H   0  0  0  0  0  0  0  0  0  0  0  0
   12.1828   17.5607   10.8385 H   0  0  0  0  0  0  0  0  0  0  0  0
   15.3866   10.1850   12.6566 H   0  0  0  0  0  0  0  0  0  0  0  0
    7.2157   19.2889   13.4031 H   0  0  0  0  0  0  0  0  0  0  0  0
    8.1441   17.1865   11.8082 H   0  0  0  0  0  0  0  0  0  0  0  0
   17.3959    7.6289   14.1708 H   0  0  0  0  0  0  0  0  0  0  0  0
   17.4928    9.1451   13.5720 H   0  0  0  0  0  0  0  0  0  0  0  0
   10.8503   11.6234   11.6914 H   0  0  0  0  0  0  0  0  0  0  0  0
  1 24  1  0  0  0  0
  1 25  1  0  0  0  0
  2 33  1  0  0  0  0
  3 33  1  0  0  0  0
  4 33  1  0  0  0  0
  5 12  3  0  0  0  0
  6 11  2  0  0  0  0
  6 24  1  0  0  0  0
  7 11  1  0  0  0  0
  7 26  2  0  0  0  0
  8 26  1  0  0  0  0
  8 28  1  0  0  0  0
  9 27  1  0  0  0  0
  9 29  1  0  0  0  0
 10 13  1  0  0  0  0
 10 14  1  0  0  0  0
 10 15  1  0  0  0  0
 12 27  1  0  0  0  0
 13 16  1  0  0  0  0
 14 17  1  0  0  0  0
 15 30  1  0  0  0  0
 16 28  1  0  0  0  0
 17 28  1  0  0  0  0
 18 19  1  0  0  0  0
 18 29  2  0  0  0  0
 19 30  2  0  0  0  0
 20 25  2  0  0  0  0
 20 32  1  0  0  0  0
 21 27  2  0  0  0  0
 21 31  1  0  0  0  0
 22 30  1  0  0  0  0
 22 31  2  0  0  0  0
 23 25  1  0  0  0  0
 23 33  1  0  0  0  0
 24 32  2  0  0  0  0
 26 32  1  0  0  0  0
 29 31  1  0  0  0  0
  8 34  1  0  0  0  0
  9 35  1  0  0  0  0
 11 36  1  0  0  0  0
 13 37  1  0  0  0  0
 13 38  1  0  0  0  0
 14 39  1  0  0  0  0
 14 40  1  0  0  0  0
 15 41  1  0  0  0  0
 15 42  1  0  0  0  0
 16 43  1  0  0  0  0
 16 44  1  0  0  0  0
 17 45  1  0  0  0  0
 17 46  1  0  0  0  0
 18 47  1  0  0  0  0
 19 48  1  0  0  0  0
 20 49  1  0  0  0  0
 21 50  1  0  0  0  0
 22 51  1  0  0  0  0
 23 52  1  0  0  0  0
 23 53  1  0  0  0  0
 28 54  1  0  0  0  0
M  END
> <pdb_id>
4X5Z

> <uniprot_id>
O00255

> <usmiles>
S1c2ncnc(NC3CCN(Cc4cc5c(NC(C#N)=C5)cc4)CC3)c2C=C1CC(F)(F)F

$$$$
3YR_B_401
          07192419233D 1   1.00000     0.00000     0
            
 44 47  0  0  0  0            999 V2000
  -21.2365   39.6949    1.2270 S   0  0  0  0  0  0  0  0  0  0  0  0
  -19.1593   38.6087   -2.5345 F   0  0  0  0  0  0  0  0  0  0  0  0
  -22.9654   40.5136   -0.8335 F   0  0  0  0  0  0  0  0  0  0  0  0
  -18.0124   36.6952    2.7887 O   0  0  0  0  0  0  0  0  0  0  0  0
  -17.5991   35.3853   -1.8333 O   0  0  0  0  0  0  0  0  0  0  0  0
  -17.4105   35.8629   -5.0070 N   0  0  0  0  0  0  0  0  0  0  0  0
  -15.7807   33.4648    1.2436 N   0  0  0  0  0  0  0  0  0  0  0  0
  -19.7332   38.2379    0.0021 N   0  0  0  0  0  0  0  0  0  0  0  0
  -18.1212   36.3467    0.5801 N   0  0  0  0  0  0  0  0  0  0  0  0
  -20.2936   38.6873    2.1331 C   0  0  0  0  0  0  0  0  0  0  0  0
  -18.6429   36.3979   -4.5229 C   0  0  0  0  0  0  0  0  0  0  0  0
  -15.5265   32.9957    0.0326 C   0  0  0  0  0  0  0  0  0  0  0  0
  -21.6854   40.2841   -4.1941 C   0  0  0  0  0  0  0  0  0  0  0  0
  -16.7062   35.0087   -4.0542 C   0  0  0  0  0  0  0  0  0  0  0  0
  -16.5991   34.4888    1.4558 C   0  0  0  0  0  0  0  0  0  0  0  0
  -19.0974   35.1995   -3.7373 C   0  0  0  0  0  0  0  0  0  0  0  0
  -20.5993   39.5400   -4.0040 C   0  0  0  0  0  0  0  0  0  0  0  0
  -22.4852   40.6471   -3.1289 C   0  0  0  0  0  0  0  0  0  0  0  0
  -16.1162   33.6674   -1.0691 C   0  0  0  0  0  0  0  0  0  0  0  0
  -20.6967   39.0953   -0.2894 C   0  0  0  0  0  0  0  0  0  0  0  0
  -20.2992   39.2283   -2.6875 C   0  0  0  0  0  0  0  0  0  0  0  0
  -22.1606   40.2674   -1.8561 C   0  0  0  0  0  0  0  0  0  0  0  0
  -18.4063   37.0858    1.6761 C   0  0  0  0  0  0  0  0  0  0  0  0
  -17.8152   34.6866   -3.0869 C   0  0  2  0  0  0  0  0  0  0  0  0
  -16.9981   34.7397   -0.7926 C   0  0  0  0  0  0  0  0  0  0  0  0
  -19.4892   38.0239    1.3101 C   0  0  0  0  0  0  0  0  0  0  0  0
  -17.2697   35.2109    0.4497 C   0  0  0  0  0  0  0  0  0  0  0  0
  -21.0444   39.5275   -1.6055 C   0  0  0  0  0  0  0  0  0  0  0  0
  -16.8104   36.6265   -5.2451 H   0  0  0  0  0  0  0  0  0  0  0  0
  -18.5740   36.6397   -0.2620 H   0  0  0  0  0  0  0  0  0  0  0  0
  -20.3229   38.5928    3.1281 H   0  0  0  0  0  0  0  0  0  0  0  0
  -19.2739   36.6262   -5.2643 H   0  0  0  0  0  0  0  0  0  0  0  0
  -18.5054   37.2009   -3.9430 H   0  0  0  0  0  0  0  0  0  0  0  0
  -14.9402   32.1968   -0.1010 H   0  0  0  0  0  0  0  0  0  0  0  0
  -21.9249   40.5836   -5.1177 H   0  0  0  0  0  0  0  0  0  0  0  0
  -15.9577   35.4972   -3.6059 H   0  0  0  0  0  0  0  0  0  0  0  0
  -16.3502   34.1838   -4.4933 H   0  0  0  0  0  0  0  0  0  0  0  0
  -16.7511   34.7689    2.4037 H   0  0  0  0  0  0  0  0  0  0  0  0
  -19.4933   34.5069   -4.3403 H   0  0  0  0  0  0  0  0  0  0  0  0
  -19.7690   35.4611   -3.0441 H   0  0  0  0  0  0  0  0  0  0  0  0
  -20.0332   39.2243   -4.7655 H   0  0  0  0  0  0  0  0  0  0  0  0
  -23.3083   41.1919   -3.2894 H   0  0  0  0  0  0  0  0  0  0  0  0
  -15.9156   33.3926   -2.0094 H   0  0  0  0  0  0  0  0  0  0  0  0
  -17.8706   33.7000   -2.9333 H   0  0  0  0  0  0  0  0  0  0  0  0
  1 10  1  0  0  0  0
  1 20  1  0  0  0  0
  2 21  1  0  0  0  0
  3 22  1  0  0  0  0
  4 23  2  0  0  0  0
  5 24  1  0  0  0  0
  5 25  1  0  0  0  0
  6 11  1  0  0  0  0
  6 14  1  0  0  0  0
  7 12  2  0  0  0  0
  7 15  1  0  0  0  0
  8 20  2  0  0  0  0
  8 26  1  0  0  0  0
  9 23  1  0  0  0  0
  9 27  1  0  0  0  0
 10 26  2  0  0  0  0
 11 16  1  0  0  0  0
 12 19  1  0  0  0  0
 13 17  2  0  0  0  0
 13 18  1  0  0  0  0
 14 24  1  0  0  0  0
 15 27  2  0  0  0  0
 16 24  1  0  0  0  0
 17 21  1  0  0  0  0
 18 22  2  0  0  0  0
 19 25  2  0  0  0  0
 20 28  1  0  0  0  0
 21 28  2  0  0  0  0
 22 28  1  0  0  0  0
 23 26  1  0  0  0  0
 25 27  1  0  0  0  0
  6 29  1  0  0  0  0
  9 30  1  0  0  0  0
 10 31  1  0  0  0  0
 11 32  1  0  0  0  0
 11 33  1  0  0  0  0
 12 34  1  0  0  0  0
 13 35  1  0  0  0  0
 14 36  1  0  0  0  0
 14 37  1  0  0  0  0
 15 38  1  0  0  0  0
 16 39  1  0  0  0  0
 16 40  1  0  0  0  0
 17 41  1  0  0  0  0
 18 42  1  0  0  0  0
 19 43  1  0  0  0  0
 24 44  1  0  0  0  0
M  END
> <pdb_id>
4XHK

> <uniprot_id>
P11309

> <usmiles>
S1C(=NC(C(=O)Nc2c(O[C@@H]3CNCC3)ccnc2)=C1)c4c(F)cccc4F

$$$$
3YS_B_401
          07202405583D 1   1.00000     0.00000     0
            
 43 46  0  0  0  0            999 V2000
   66.0992   47.3763    8.8559 S   0  0  0  0  0  0  0  0  0  0  0  0
   71.5411   44.8760    1.0118 F   0  0  0  0  0  0  0  0  0  0  0  0
   69.9273   50.9914   10.7955 F   0  0  0  0  0  0  0  0  0  0  0  0
   73.1812   47.5565    6.4836 O   0  0  0  0  0  0  0  0  0  0  0  0
   66.1512   51.4475   10.3692 O   0  0  0  0  0  0  0  0  0  0  0  0
   65.5200   48.6084    6.5883 N   0  0  0  0  0  0  0  0  0  0  0  0
   70.9551   47.1096    3.7623 N   0  0  0  0  0  0  0  0  0  0  0  0
   71.0611   48.3228    6.1109 N   0  0  0  0  0  0  0  0  0  0  0  0
   66.8054   49.8099    8.0258 N   0  0  0  0  0  0  0  0  0  0  0  0
   67.0868   47.8637   10.2977 C   0  0  0  0  0  0  0  0  0  0  0  0
   66.0185   50.1036   10.8940 C   0  0  0  0  0  0  0  0  0  0  0  0
   67.3584   51.5127    9.6212 C   0  0  0  0  0  0  0  0  0  0  0  0
   70.7949   46.4317    2.6261 C   0  0  0  0  0  0  0  0  0  0  0  0
   72.9203   45.3391    2.8765 C   0  0  0  0  0  0  0  0  0  0  0  0
   71.5096   50.1558    9.2955 C   0  0  0  0  0  0  0  0  0  0  0  0
   71.8055   49.4898    8.1213 C   0  0  0  0  0  0  0  0  0  0  0  0
   73.1278   46.1052    4.0129 C   0  0  0  0  0  0  0  0  0  0  0  0
   69.4513   49.2082    7.6940 C   0  0  0  0  0  0  0  0  0  0  0  0
   66.1794   48.7361    7.7489 C   0  0  0  0  0  0  0  0  0  0  0  0
   71.7365   45.5040    2.1973 C   0  0  0  0  0  0  0  0  0  0  0  0
   70.1964   50.3411    9.6320 C   0  0  0  0  0  0  0  0  0  0  0  0
   72.1735   47.6211    5.7848 C   0  0  0  0  0  0  0  0  0  0  0  0
   70.7750   48.9982    7.3213 C   0  0  0  0  0  0  0  0  0  0  0  0
   72.0796   46.9094    4.4641 C   0  0  0  0  0  0  0  0  0  0  0  0
   67.2692   49.3678   10.4830 C   0  0  2  0  0  0  0  0  0  0  0  0
   69.1265   49.9049    8.8628 C   0  0  0  0  0  0  0  0  0  0  0  0
   67.6531   50.0691    9.1810 C   0  0  1  0  0  0  0  0  0  0  0  0
   65.5328   49.3534    5.9214 H   0  0  0  0  0  0  0  0  0  0  0  0
   65.0155   47.7681    6.3897 H   0  0  0  0  0  0  0  0  0  0  0  0
   70.3524   48.3695    5.4069 H   0  0  0  0  0  0  0  0  0  0  0  0
   67.9932   47.4514   10.2054 H   0  0  0  0  0  0  0  0  0  0  0  0
   66.6385   47.5035   11.1158 H   0  0  0  0  0  0  0  0  0  0  0  0
   65.2111   49.6582   10.5071 H   0  0  0  0  0  0  0  0  0  0  0  0
   65.9412   50.1264   11.8907 H   0  0  0  0  0  0  0  0  0  0  0  0
   68.1026   51.8626   10.1901 H   0  0  0  0  0  0  0  0  0  0  0  0
   67.2426   52.1039    8.8230 H   0  0  0  0  0  0  0  0  0  0  0  0
   69.9797   46.5942    2.0702 H   0  0  0  0  0  0  0  0  0  0  0  0
   73.6098   44.6873    2.5608 H   0  0  0  0  0  0  0  0  0  0  0  0
   72.2406   50.4954    9.8874 H   0  0  0  0  0  0  0  0  0  0  0  0
   72.7581   49.3607    7.8456 H   0  0  0  0  0  0  0  0  0  0  0  0
   74.0033   46.0825    4.4958 H   0  0  0  0  0  0  0  0  0  0  0  0
   68.7172   48.8540    7.1147 H   0  0  0  0  0  0  0  0  0  0  0  0
   67.9828   49.5294   11.1645 H   0  0  0  0  0  0  0  0  0  0  0  0
  1 10  1  0  0  0  0
  1 19  1  0  0  0  0
  2 20  1  0  0  0  0
  3 21  1  0  0  0  0
  4 22  2  0  0  0  0
  5 11  1  0  0  0  0
  5 12  1  0  0  0  0
  6 19  1  0  0  0  0
  7 13  1  0  0  0  0
  7 24  2  0  0  0  0
  8 22  1  0  0  0  0
  8 23  1  0  0  0  0
  9 19  2  0  0  0  0
  9 27  1  0  0  0  0
 10 25  1  0  0  0  0
 11 25  1  0  0  0  0
 12 27  1  0  0  0  0
 13 20  2  0  0  0  0
 14 17  2  0  0  0  0
 14 20  1  0  0  0  0
 15 16  1  0  0  0  0
 15 21  2  0  0  0  0
 16 23  2  0  0  0  0
 17 24  1  0  0  0  0
 18 23  1  0  0  0  0
 18 26  2  0  0  0  0
 21 26  1  0  0  0  0
 22 24  1  0  0  0  0
 25 27  1  0  0  0  0
 26 27  1  0  0  0  0
  6 28  1  0  0  0  0
  6 29  1  0  0  0  0
  8 30  1  0  0  0  0
 10 31  1  0  0  0  0
 10 32  1  0  0  0  0
 11 33  1  0  0  0  0
 11 34  1  0  0  0  0
 12 35  1  0  0  0  0
 12 36  1  0  0  0  0
 13 37  1  0  0  0  0
 14 38  1  0  0  0  0
 15 39  1  0  0  0  0
 16 40  1  0  0  0  0
 17 41  1  0  0  0  0
 18 42  1  0  0  0  0
 25 43  1  0  0  0  0
M  END
> <pdb_id>
4X7I

> <uniprot_id>
P56817

> <usmiles>
S1C(=N[C@]2(c3c(F)ccc(NC(=O)c4ncc(F)cc4)c3)[C@H](C1)COC2)N

$$$$
3YY_A_538
          07202403303D 1   1.00000     0.00000     0
            
 38 41  0  0  0  0            999 V2000
   17.6088    3.0154  -30.7539 F   0  0  0  0  0  0  0  0  0  0  0  0
   10.0837    8.0699  -35.2936 O   0  0  0  0  0  0  0  0  0  0  0  0
   13.1202    4.6969  -35.5580 O   0  0  0  0  0  0  0  0  0  0  0  0
   16.6900    7.7055  -34.8281 N   0  0  0  0  0  0  0  0  0  0  0  0
   11.4462    6.2664  -35.7242 N   0  0  0  0  0  0  0  0  0  0  0  0
   12.1406    7.7410  -34.2557 N   0  0  0  0  0  0  0  0  0  0  0  0
   15.9754    8.5626  -35.5655 N   0  0  0  0  0  0  0  0  0  0  0  0
   14.6276    8.3713  -35.4837 C   0  0  0  0  0  0  0  0  0  0  0  0
   17.8527   11.5210  -37.7085 C   0  0  0  0  0  0  0  0  0  0  0  0
   16.5446   11.2033  -37.9950 C   0  0  0  0  0  0  0  0  0  0  0  0
   18.5370   10.8603  -36.7131 C   0  0  0  0  0  0  0  0  0  0  0  0
   16.1294    3.6887  -32.4716 C   0  0  0  0  0  0  0  0  0  0  0  0
   17.7340    5.2243  -31.6132 C   0  0  0  0  0  0  0  0  0  0  0  0
   15.9084   10.2124  -37.2820 C   0  0  0  0  0  0  0  0  0  0  0  0
   17.9107    9.8698  -35.9910 C   0  0  0  0  0  0  0  0  0  0  0  0
   15.6561    4.6452  -33.3435 C   0  0  0  0  0  0  0  0  0  0  0  0
   17.2636    6.1868  -32.4892 C   0  0  0  0  0  0  0  0  0  0  0  0
   11.1083    7.4338  -35.1022 C   0  0  0  0  0  0  0  0  0  0  0  0
   12.6189    5.7644  -35.2495 C   0  0  0  0  0  0  0  0  0  0  0  0
   17.1645    3.9721  -31.6099 C   0  0  0  0  0  0  0  0  0  0  0  0
   13.1676    6.7189  -34.2194 C   0  0  1  0  0  0  0  0  0  0  0  0
   15.7687    6.9254  -34.2482 C   0  0  0  0  0  0  0  0  0  0  0  0
   16.6093    9.5633  -36.2976 C   0  0  0  0  0  0  0  0  0  0  0  0
   16.2216    5.8982  -33.3539 C   0  0  0  0  0  0  0  0  0  0  0  0
   14.4535    7.3044  -34.6302 C   0  0  0  0  0  0  0  0  0  0  0  0
   10.8992    5.8333  -36.4407 H   0  0  0  0  0  0  0  0  0  0  0  0
   12.1813    8.5834  -33.7183 H   0  0  0  0  0  0  0  0  0  0  0  0
   13.9139    8.8967  -35.9471 H   0  0  0  0  0  0  0  0  0  0  0  0
   18.3117   12.2405  -38.2297 H   0  0  0  0  0  0  0  0  0  0  0  0
   16.0575   11.6911  -38.7194 H   0  0  0  0  0  0  0  0  0  0  0  0
   19.4875   11.0996  -36.5150 H   0  0  0  0  0  0  0  0  0  0  0  0
   15.7159    2.7782  -32.4648 H   0  0  0  0  0  0  0  0  0  0  0  0
   18.4835    5.4377  -30.9865 H   0  0  0  0  0  0  0  0  0  0  0  0
   14.9576    9.9716  -37.4771 H   0  0  0  0  0  0  0  0  0  0  0  0
   18.3927    9.3855  -35.2609 H   0  0  0  0  0  0  0  0  0  0  0  0
   14.9043    4.4286  -33.9663 H   0  0  0  0  0  0  0  0  0  0  0  0
   17.6788    7.0965  -32.4977 H   0  0  0  0  0  0  0  0  0  0  0  0
   13.2294    6.2913  -33.3175 H   0  0  0  0  0  0  0  0  0  0  0  0
  1 20  1  0  0  0  0
  2 18  2  0  0  0  0
  3 19  2  0  0  0  0
  4  7  1  0  0  0  0
  4 22  2  0  0  0  0
  5 18  1  0  0  0  0
  5 19  1  0  0  0  0
  6 18  1  0  0  0  0
  6 21  1  0  0  0  0
  7  8  1  0  0  0  0
  7 23  1  0  0  0  0
  8 25  2  0  0  0  0
  9 10  2  0  0  0  0
  9 11  1  0  0  0  0
 10 14  1  0  0  0  0
 11 15  2  0  0  0  0
 12 16  2  0  0  0  0
 12 20  1  0  0  0  0
 13 17  1  0  0  0  0
 13 20  2  0  0  0  0
 14 23  2  0  0  0  0
 15 23  1  0  0  0  0
 16 24  1  0  0  0  0
 17 24  2  0  0  0  0
 19 21  1  0  0  0  0
 21 25  1  0  0  0  0
 22 24  1  0  0  0  0
 22 25  1  0  0  0  0
  5 26  1  0  0  0  0
  6 27  1  0  0  0  0
  8 28  1  0  0  0  0
  9 29  1  0  0  0  0
 10 30  1  0  0  0  0
 11 31  1  0  0  0  0
 12 32  1  0  0  0  0
 13 33  1  0  0  0  0
 14 34  1  0  0  0  0
 15 35  1  0  0  0  0
 16 36  1  0  0  0  0
 17 37  1  0  0  0  0
 21 38  1  0  0  0  0
M  END
> <pdb_id>
3PYY

> <uniprot_id>
Q59FK4

> <usmiles>
Fc1ccc(cc1)C2=NN(c3ccccc3)C=C2[C@H]4NC(=O)NC4=O

$$$$
3ZG_A_601
          07202417413D 1   1.00000     0.00000     0
            
 40 42  0  0  0  0            999 V2000
   -3.0910   -4.4095   31.8984 O   0  0  0  0  0  0  0  0  0  0  0  0
   -3.5498   -5.8326   35.0654 O   0  0  0  0  0  0  0  0  0  0  0  0
    0.0486   -6.6281   25.9569 N   0  0  0  0  0  0  0  0  0  0  0  0
   -2.0484   -4.0651   33.8426 N   0  0  0  0  0  0  0  0  0  0  0  0
   -0.7993   -4.4391   31.9924 N   0  0  0  0  0  0  0  0  0  0  0  0
   -5.2133   -4.4506   35.5834 N   0  0  0  0  0  0  0  0  0  0  0  0
   -1.2368   -6.7918   26.3158 C   0  0  0  0  0  0  0  0  0  0  0  0
    0.8592   -6.0401   26.8317 C   0  0  0  0  0  0  0  0  0  0  0  0
   -3.2349   -3.5519   34.4860 C   0  0  0  0  0  0  0  0  0  0  0  0
   -5.9294   -3.1850   35.6181 C   0  0  0  0  0  0  0  0  0  0  0  0
   -6.0128   -5.5248   36.1790 C   0  0  0  0  0  0  0  0  0  0  0  0
   -7.3042   -3.5942   36.0598 C   0  0  0  0  0  0  0  0  0  0  0  0
   -7.0999   -4.7767   36.8677 C   0  0  0  0  0  0  0  0  0  0  0  0
   -1.7468   -6.4142   27.5242 C   0  0  0  0  0  0  0  0  0  0  0  0
    0.8878   -4.6481   30.3076 C   0  0  0  0  0  0  0  0  0  0  0  0
    1.3327   -4.9991   29.0661 C   0  0  0  0  0  0  0  0  0  0  0  0
   -1.3118   -5.4535   29.7844 C   0  0  0  0  0  0  0  0  0  0  0  0
   -2.0497   -4.3315   32.5366 C   0  0  0  0  0  0  0  0  0  0  0  0
   -4.0064   -4.7145   35.0693 C   0  0  0  0  0  0  0  0  0  0  0  0
   -0.4337   -4.8773   30.6892 C   0  0  0  0  0  0  0  0  0  0  0  0
    0.4617   -5.6056   28.1245 C   0  0  0  0  0  0  0  0  0  0  0  0
   -0.8824   -5.8225   28.4848 C   0  0  0  0  0  0  0  0  0  0  0  0
   -1.2201   -4.2218   34.3806 H   0  0  0  0  0  0  0  0  0  0  0  0
   -0.0420   -4.1748   32.5896 H   0  0  0  0  0  0  0  0  0  0  0  0
   -1.8574   -7.2165   25.6566 H   0  0  0  0  0  0  0  0  0  0  0  0
    1.8110   -5.8942   26.5619 H   0  0  0  0  0  0  0  0  0  0  0  0
   -3.8020   -3.0735   33.8155 H   0  0  0  0  0  0  0  0  0  0  0  0
   -2.9759   -2.9191   35.2157 H   0  0  0  0  0  0  0  0  0  0  0  0
   -5.9533   -2.7595   34.7134 H   0  0  0  0  0  0  0  0  0  0  0  0
   -5.5137   -2.5535   36.2726 H   0  0  0  0  0  0  0  0  0  0  0  0
   -5.4729   -6.0581   36.8302 H   0  0  0  0  0  0  0  0  0  0  0  0
   -6.3821   -6.1323   35.4758 H   0  0  0  0  0  0  0  0  0  0  0  0
   -7.8798   -3.8035   35.2693 H   0  0  0  0  0  0  0  0  0  0  0  0
   -7.7306   -2.8686   36.5998 H   0  0  0  0  0  0  0  0  0  0  0  0
   -6.8221   -4.5260   37.7951 H   0  0  0  0  0  0  0  0  0  0  0  0
   -7.9350   -5.3253   36.9068 H   0  0  0  0  0  0  0  0  0  0  0  0
   -2.7155   -6.5519   27.7308 H   0  0  0  0  0  0  0  0  0  0  0  0
    1.5195   -4.2199   30.9538 H   0  0  0  0  0  0  0  0  0  0  0  0
    2.2855   -4.8264   28.8166 H   0  0  0  0  0  0  0  0  0  0  0  0
   -2.2622   -5.6113   30.0524 H   0  0  0  0  0  0  0  0  0  0  0  0
  1 18  2  0  0  0  0
  2 19  2  0  0  0  0
  3  7  1  0  0  0  0
  3  8  2  0  0  0  0
  4  9  1  0  0  0  0
  4 18  1  0  0  0  0
  5 18  1  0  0  0  0
  5 20  1  0  0  0  0
  6 10  1  0  0  0  0
  6 11  1  0  0  0  0
  6 19  1  0  0  0  0
  7 14  2  0  0  0  0
  8 21  1  0  0  0  0
  9 19  1  0  0  0  0
 10 12  1  0  0  0  0
 11 13  1  0  0  0  0
 12 13  1  0  0  0  0
 14 22  1  0  0  0  0
 15 16  1  0  0  0  0
 15 20  2  0  0  0  0
 16 21  2  0  0  0  0
 17 20  1  0  0  0  0
 17 22  2  0  0  0  0
 21 22  1  0  0  0  0
  4 23  1  0  0  0  0
  5 24  1  0  0  0  0
  7 25  1  0  0  0  0
  8 26  1  0  0  0  0
  9 27  1  0  0  0  0
  9 28  1  0  0  0  0
 10 29  1  0  0  0  0
 10 30  1  0  0  0  0
 11 31  1  0  0  0  0
 11 32  1  0  0  0  0
 12 33  1  0  0  0  0
 12 34  1  0  0  0  0
 13 35  1  0  0  0  0
 13 36  1  0  0  0  0
 14 37  1  0  0  0  0
 15 38  1  0  0  0  0
 16 39  1  0  0  0  0
 17 40  1  0  0  0  0
M  END
> <pdb_id>
4RYL

> <uniprot_id>
Q8WUV3

> <usmiles>
O=C(Nc1cc2c(cncc2)cc1)NCC(=O)N3CCCC3

$$$$
404_A_299
          07192421083D 1   1.00000     0.00000     0
            
 52 54  0  0  0  0            999 V2000
   -1.4935   27.8292   11.1258 O   0  0  0  0  0  0  0  0  0  0  0  0
    1.5801   30.3763    6.6181 N   0  0  0  0  0  0  0  0  0  0  0  0
    0.4070   31.1095    6.8871 N   0  0  0  0  0  0  0  0  0  0  0  0
    3.6784   28.0332    6.7704 N   0  0  0  0  0  0  0  0  0  0  0  0
    2.1204   27.0655    8.2511 N   0  0  0  0  0  0  0  0  0  0  0  0
    0.7431   25.9564    9.7197 N   0  0  0  0  0  0  0  0  0  0  0  0
    0.0302   28.0840    8.8796 N   0  0  0  0  0  0  0  0  0  0  0  0
   -1.3477   24.2231    9.5101 C   0  0  0  0  0  0  0  0  0  0  0  0
   -1.6043   30.9371    9.8452 C   0  0  0  0  0  0  0  0  0  0  0  0
   -2.7617   29.7143    7.9565 C   0  0  0  0  0  0  0  0  0  0  0  0
   -0.2648   27.2444   11.5732 C   0  0  0  0  0  0  0  0  0  0  0  0
    4.6702   27.0066    7.0593 C   0  0  0  0  0  0  0  0  0  0  0  0
    4.7780   24.0995    3.9073 C   0  0  0  0  0  0  0  0  0  0  0  0
    4.4392   23.7126    5.1977 C   0  0  0  0  0  0  0  0  0  0  0  0
    5.0841   25.4246    3.6305 C   0  0  0  0  0  0  0  0  0  0  0  0
   -1.4864   25.3584   10.4974 C   0  0  0  0  0  0  0  0  0  0  0  0
    4.4065   24.6559    6.2151 C   0  0  0  0  0  0  0  0  0  0  0  0
    5.0464   26.3659    4.6487 C   0  0  0  0  0  0  0  0  0  0  0  0
    0.9469   27.0615    8.9558 C   0  0  0  0  0  0  0  0  0  0  0  0
    2.5044   28.0707    7.4426 C   0  0  0  0  0  0  0  0  0  0  0  0
   -0.1129   25.8893   10.8923 C   0  0  1  0  0  0  0  0  0  0  0  0
   -1.7055   30.7582    8.3261 C   0  0  0  0  0  0  0  0  0  0  0  0
    4.7124   25.9831    5.9442 C   0  0  0  0  0  0  0  0  0  0  0  0
    1.5766   29.2173    7.3103 C   0  0  0  0  0  0  0  0  0  0  0  0
   -0.3738   30.4272    7.7420 C   0  0  0  0  0  0  0  0  0  0  0  0
    0.3231   29.1528    8.0732 C   0  0  0  0  0  0  0  0  0  0  0  0
   -1.6156   28.7217   11.5601 H   0  0  0  0  0  0  0  0  0  0  0  0
    2.3106   30.6722    6.0025 H   0  0  0  0  0  0  0  0  0  0  0  0
    3.8671   28.7184    6.0670 H   0  0  0  0  0  0  0  0  0  0  0  0
    1.2217   25.1199    9.4529 H   0  0  0  0  0  0  0  0  0  0  0  0
   -2.2553   23.8855    9.2605 H   0  0  0  0  0  0  0  0  0  0  0  0
   -0.8766   24.5496    8.6906 H   0  0  0  0  0  0  0  0  0  0  0  0
   -0.8193   23.4827    9.9256 H   0  0  0  0  0  0  0  0  0  0  0  0
   -0.9078   31.6235   10.0543 H   0  0  0  0  0  0  0  0  0  0  0  0
   -2.4875   31.2379   10.2050 H   0  0  0  0  0  0  0  0  0  0  0  0
   -1.3515   30.0664   10.2672 H   0  0  0  0  0  0  0  0  0  0  0  0
   -2.8039   29.6205    6.9618 H   0  0  0  0  0  0  0  0  0  0  0  0
   -2.5177   28.8344    8.3642 H   0  0  0  0  0  0  0  0  0  0  0  0
   -3.6537   30.0058    8.3020 H   0  0  0  0  0  0  0  0  0  0  0  0
   -0.2874   27.1249   12.5658 H   0  0  0  0  0  0  0  0  0  0  0  0
    0.5025   27.8362   11.3261 H   0  0  0  0  0  0  0  0  0  0  0  0
    4.4315   26.5501    7.9164 H   0  0  0  0  0  0  0  0  0  0  0  0
    5.5699   27.4338    7.1485 H   0  0  0  0  0  0  0  0  0  0  0  0
    4.8013   23.4198    3.1742 H   0  0  0  0  0  0  0  0  0  0  0  0
    4.2196   22.7568    5.3930 H   0  0  0  0  0  0  0  0  0  0  0  0
    5.3308   25.6996    2.7012 H   0  0  0  0  0  0  0  0  0  0  0  0
   -1.9598   25.0288   11.3143 H   0  0  0  0  0  0  0  0  0  0  0  0
   -2.0171   26.0958   10.0794 H   0  0  0  0  0  0  0  0  0  0  0  0
    4.1623   24.3795    7.1446 H   0  0  0  0  0  0  0  0  0  0  0  0
    5.2599   27.3226    4.4511 H   0  0  0  0  0  0  0  0  0  0  0  0
    0.2959   25.2520   11.5455 H   0  0  0  0  0  0  0  0  0  0  0  0
   -1.9965   31.6326    7.9379 H   0  0  0  0  0  0  0  0  0  0  0  0
  1 11  1  0  0  0  0
  2  3  1  0  0  0  0
  2 24  1  0  0  0  0
  3 25  2  0  0  0  0
  4 12  1  0  0  0  0
  4 20  1  0  0  0  0
  5 19  2  0  0  0  0
  5 20  1  0  0  0  0
  6 19  1  0  0  0  0
  6 21  1  0  0  0  0
  7 19  1  0  0  0  0
  7 26  2  0  0  0  0
  8 16  1  0  0  0  0
  9 22  1  0  0  0  0
 10 22  1  0  0  0  0
 11 21  1  0  0  0  0
 12 23  1  0  0  0  0
 13 14  2  0  0  0  0
 13 15  1  0  0  0  0
 14 17  1  0  0  0  0
 15 18  2  0  0  0  0
 16 21  1  0  0  0  0
 17 23  2  0  0  0  0
 18 23  1  0  0  0  0
 20 24  2  0  0  0  0
 22 25  1  0  0  0  0
 24 26  1  0  0  0  0
 25 26  1  0  0  0  0
  1 27  1  0  0  0  0
  2 28  1  0  0  0  0
  4 29  1  0  0  0  0
  6 30  1  0  0  0  0
  8 31  1  0  0  0  0
  8 32  1  0  0  0  0
  8 33  1  0  0  0  0
  9 34  1  0  0  0  0
  9 35  1  0  0  0  0
  9 36  1  0  0  0  0
 10 37  1  0  0  0  0
 10 38  1  0  0  0  0
 10 39  1  0  0  0  0
 11 40  1  0  0  0  0
 11 41  1  0  0  0  0
 12 42  1  0  0  0  0
 12 43  1  0  0  0  0
 13 44  1  0  0  0  0
 14 45  1  0  0  0  0
 15 46  1  0  0  0  0
 16 47  1  0  0  0  0
 16 48  1  0  0  0  0
 17 49  1  0  0  0  0
 18 50  1  0  0  0  0
 21 51  1  0  0  0  0
 22 52  1  0  0  0  0
M  END
> <pdb_id>
3PJ8

> <uniprot_id>
P24941

> <usmiles>
OC[C@H](Nc1nc(NCc2ccccc2)c3NN=C(c3n1)C(C)C)CC

$$$$
409_A_702
          07192417133D 1   1.00000     0.00000     0
            
 47 49  0  0  0  0            999 V2000
   43.5403   67.7025  118.9975 S   0  0  0  0  0  0  0  0  0  0  0  0
   42.9344   68.9882  118.9694 O   0  0  0  0  0  0  0  0  0  0  0  0
   43.9814   67.2902  117.7230 O   0  0  0  0  0  0  0  0  0  0  0  0
   43.6848   64.9086  119.1908 O   0  0  0  0  0  0  0  0  0  0  0  0
   40.9534   63.1202  122.0794 O   0  0  0  0  0  0  0  0  0  0  0  0
   52.6987   68.8144  116.7887 N   0  0  0  0  0  0  0  0  0  0  0  0
   41.4777   63.2643  119.4625 N   0  0  0  0  0  0  0  0  0  0  0  0
   42.4149   66.6939  119.5567 N   0  0  0  0  0  0  0  0  0  0  0  0
   53.4777   69.1705  118.9584 N   0  0  0  0  0  0  0  0  0  0  0  0
   52.0411   69.1657  120.8586 N   0  0  0  0  0  0  0  0  0  0  0  0
   41.6267   65.4503  122.5694 C   0  0  0  0  0  0  0  0  0  0  0  0
   53.2655   69.2917  120.2882 C   0  0  0  0  0  0  0  0  0  0  0  0
   45.7682   67.7664  122.2715 C   0  0  0  0  0  0  0  0  0  0  0  0
   44.6735   67.6552  121.3842 C   0  0  0  0  0  0  0  0  0  0  0  0
   47.0278   68.0471  121.7300 C   0  0  0  0  0  0  0  0  0  0  0  0
   48.7376   68.4167  118.4239 C   0  0  0  0  0  0  0  0  0  0  0  0
   49.9822   68.5452  117.8364 C   0  0  0  0  0  0  0  0  0  0  0  0
   46.0892   68.1315  119.5069 C   0  0  0  0  0  0  0  0  0  0  0  0
   49.6556   68.7699  120.6439 C   0  0  0  0  0  0  0  0  0  0  0  0
   44.8264   67.8324  120.0041 C   0  0  0  0  0  0  0  0  0  0  0  0
   42.6386   65.3839  119.6101 C   0  0  0  0  0  0  0  0  0  0  0  0
   41.8189   64.2079  121.6686 C   0  0  2  0  0  0  0  0  0  0  0  0
   52.4708   68.9328  118.1039 C   0  0  0  0  0  0  0  0  0  0  0  0
   41.5476   64.5200  120.1862 C   0  0  2  0  0  0  0  0  0  0  0  0
   50.9369   68.9152  120.1040 C   0  0  0  0  0  0  0  0  0  0  0  0
   47.1832   68.2901  120.3632 C   0  0  0  0  0  0  0  0  0  0  0  0
   48.5562   68.5252  119.8068 C   0  0  0  0  0  0  0  0  0  0  0  0
   51.0981   68.8086  118.6525 C   0  0  0  0  0  0  0  0  0  0  0  0
   41.0999   62.3331  121.4801 H   0  0  0  0  0  0  0  0  0  0  0  0
   51.9386   68.6373  116.1635 H   0  0  0  0  0  0  0  0  0  0  0  0
   53.6288   68.9033  116.4324 H   0  0  0  0  0  0  0  0  0  0  0  0
   40.7518   62.6962  119.8501 H   0  0  0  0  0  0  0  0  0  0  0  0
   41.2807   63.4454  118.4990 H   0  0  0  0  0  0  0  0  0  0  0  0
   41.5369   67.0577  119.8677 H   0  0  0  0  0  0  0  0  0  0  0  0
   42.2353   66.1819  122.2625 H   0  0  0  0  0  0  0  0  0  0  0  0
   40.6776   65.7600  122.5119 H   0  0  0  0  0  0  0  0  0  0  0  0
   41.8428   65.2121  123.5163 H   0  0  0  0  0  0  0  0  0  0  0  0
   54.0487   69.4835  120.8797 H   0  0  0  0  0  0  0  0  0  0  0  0
   45.6463   67.6480  123.2570 H   0  0  0  0  0  0  0  0  0  0  0  0
   43.7675   67.4449  121.7514 H   0  0  0  0  0  0  0  0  0  0  0  0
   47.8276   68.0740  122.3298 H   0  0  0  0  0  0  0  0  0  0  0  0
   47.9429   68.2408  117.8429 H   0  0  0  0  0  0  0  0  0  0  0  0
   50.0881   68.4524  116.8464 H   0  0  0  0  0  0  0  0  0  0  0  0
   46.2176   68.2350  118.5206 H   0  0  0  0  0  0  0  0  0  0  0  0
   49.5218   68.8408  121.6324 H   0  0  0  0  0  0  0  0  0  0  0  0
   42.7673   63.9026  121.7553 H   0  0  0  0  0  0  0  0  0  0  0  0
   40.6722   64.9966  120.1046 H   0  0  0  0  0  0  0  0  0  0  0  0
  1  2  2  0  0  0  0
  1  3  2  0  0  0  0
  1  8  1  0  0  0  0
  1 20  1  0  0  0  0
  4 21  2  0  0  0  0
  5 22  1  0  0  0  0
  6 23  1  0  0  0  0
  7 24  1  0  0  0  0
  8 21  1  0  0  0  0
  9 12  1  0  0  0  0
  9 23  2  0  0  0  0
 10 12  2  0  0  0  0
 10 25  1  0  0  0  0
 11 22  1  0  0  0  0
 13 14  2  0  0  0  0
 13 15  1  0  0  0  0
 14 20  1  0  0  0  0
 15 26  2  0  0  0  0
 16 17  1  0  0  0  0
 16 27  2  0  0  0  0
 17 28  2  0  0  0  0
 18 20  2  0  0  0  0
 18 26  1  0  0  0  0
 19 25  2  0  0  0  0
 19 27  1  0  0  0  0
 21 24  1  0  0  0  0
 22 24  1  0  0  0  0
 23 28  1  0  0  0  0
 25 28  1  0  0  0  0
 26 27  1  0  0  0  0
  5 29  1  0  0  0  0
  6 30  1  0  0  0  0
  6 31  1  0  0  0  0
  7 32  1  0  0  0  0
  7 33  1  0  0  0  0
  8 34  1  0  0  0  0
 11 35  1  0  0  0  0
 11 36  1  0  0  0  0
 11 37  1  0  0  0  0
 12 38  1  0  0  0  0
 13 39  1  0  0  0  0
 14 40  1  0  0  0  0
 15 41  1  0  0  0  0
 16 42  1  0  0  0  0
 17 43  1  0  0  0  0
 18 44  1  0  0  0  0
 19 45  1  0  0  0  0
 22 46  1  0  0  0  0
 24 47  1  0  0  0  0
M  END
> <pdb_id>
4HWO

> <uniprot_id>
P0A8M3

> <usmiles>
S(=O)(=O)(NC(=O)[C@@H](N)[C@H](O)C)c1cc(c2cc3ncnc(N)c3cc2)ccc1

$$$$
40W_A_301
          07192420423D 1   1.00000     0.00000     0
            
 42 44  0  0  0  0            999 V2000
   65.2300   33.6007   25.1989 O   0  0  0  0  0  0  0  0  0  0  0  0
   76.1015   32.9663   25.0929 O   0  0  0  0  0  0  0  0  0  0  0  0
   65.6427   34.7423   23.3047 N   0  0  0  0  0  0  0  0  0  0  0  0
   71.6686   34.1342   25.4175 N   0  0  0  0  0  0  0  0  0  0  0  0
   74.8817   35.8186   26.1442 C   0  0  0  0  0  0  0  0  0  0  0  0
   73.4865   31.6917   22.4065 C   0  0  0  0  0  0  0  0  0  0  0  0
   72.9474   29.5804   23.5965 C   0  0  0  0  0  0  0  0  0  0  0  0
   72.4309   35.2135   25.8280 C   0  0  0  0  0  0  0  0  0  0  0  0
   69.6635   35.2260   24.5140 C   0  0  0  0  0  0  0  0  0  0  0  0
   69.4402   33.1136   25.6757 C   0  0  0  0  0  0  0  0  0  0  0  0
   68.2988   35.2292   24.2743 C   0  0  0  0  0  0  0  0  0  0  0  0
   68.0783   33.1191   25.4240 C   0  0  0  0  0  0  0  0  0  0  0  0
   74.5864   31.1913   24.6141 C   0  0  0  0  0  0  0  0  0  0  0  0
   72.1595   31.7492   24.5437 C   0  0  0  0  0  0  0  0  0  0  0  0
   66.0278   34.1676   24.4124 C   0  0  0  0  0  0  0  0  0  0  0  0
   74.9319   32.6018   25.0406 C   0  0  0  0  0  0  0  0  0  0  0  0
   70.2437   34.1625   25.2080 C   0  0  0  0  0  0  0  0  0  0  0  0
   72.5332   33.0943   25.0948 C   0  0  0  0  0  0  0  0  0  0  0  0
   73.7503   34.8919   25.7831 C   0  0  0  0  0  0  0  0  0  0  0  0
   67.4901   34.1736   24.7169 C   0  0  0  0  0  0  0  0  0  0  0  0
   73.8262   33.5328   25.3167 C   0  0  0  0  0  0  0  0  0  0  0  0
   73.2964   31.0540   23.7869 C   0  0  0  0  0  0  0  0  0  0  0  0
   66.3154   35.1817   22.7093 H   0  0  0  0  0  0  0  0  0  0  0  0
   64.6752   34.7431   23.0519 H   0  0  0  0  0  0  0  0  0  0  0  0
   75.7531   35.3423   26.0268 H   0  0  0  0  0  0  0  0  0  0  0  0
   74.8578   36.6215   25.5487 H   0  0  0  0  0  0  0  0  0  0  0  0
   74.7851   36.1071   27.0968 H   0  0  0  0  0  0  0  0  0  0  0  0
   73.7161   32.6589   22.5149 H   0  0  0  0  0  0  0  0  0  0  0  0
   74.2275   31.2254   21.9231 H   0  0  0  0  0  0  0  0  0  0  0  0
   72.6402   31.6068   21.8807 H   0  0  0  0  0  0  0  0  0  0  0  0
   72.8201   29.1498   24.4900 H   0  0  0  0  0  0  0  0  0  0  0  0
   72.1032   29.5037   23.0661 H   0  0  0  0  0  0  0  0  0  0  0  0
   73.6904   29.1223   23.1085 H   0  0  0  0  0  0  0  0  0  0  0  0
   72.0651   36.0988   26.1152 H   0  0  0  0  0  0  0  0  0  0  0  0
   70.2312   35.9832   24.1909 H   0  0  0  0  0  0  0  0  0  0  0  0
   69.8503   32.3612   26.1912 H   0  0  0  0  0  0  0  0  0  0  0  0
   67.8860   35.9939   23.7795 H   0  0  0  0  0  0  0  0  0  0  0  0
   67.5107   32.3632   25.7502 H   0  0  0  0  0  0  0  0  0  0  0  0
   74.4857   30.6347   25.4387 H   0  0  0  0  0  0  0  0  0  0  0  0
   75.3447   30.8397   24.0651 H   0  0  0  0  0  0  0  0  0  0  0  0
   71.3897   31.8681   23.9166 H   0  0  0  0  0  0  0  0  0  0  0  0
   71.8821   31.1626   25.3046 H   0  0  0  0  0  0  0  0  0  0  0  0
  1 15  2  0  0  0  0
  2 16  2  0  0  0  0
  3 15  1  0  0  0  0
  4  8  1  0  0  0  0
  4 17  1  0  0  0  0
  4 18  1  0  0  0  0
  5 19  1  0  0  0  0
  6 22  1  0  0  0  0
  7 22  1  0  0  0  0
  8 19  2  0  0  0  0
  9 11  1  0  0  0  0
  9 17  2  0  0  0  0
 10 12  2  0  0  0  0
 10 17  1  0  0  0  0
 11 20  2  0  0  0  0
 12 20  1  0  0  0  0
 13 16  1  0  0  0  0
 13 22  1  0  0  0  0
 14 18  1  0  0  0  0
 14 22  1  0  0  0  0
 15 20  1  0  0  0  0
 16 21  1  0  0  0  0
 18 21  2  0  0  0  0
 19 21  1  0  0  0  0
  3 23  1  0  0  0  0
  3 24  1  0  0  0  0
  5 25  1  0  0  0  0
  5 26  1  0  0  0  0
  5 27  1  0  0  0  0
  6 28  1  0  0  0  0
  6 29  1  0  0  0  0
  6 30  1  0  0  0  0
  7 31  1  0  0  0  0
  7 32  1  0  0  0  0
  7 33  1  0  0  0  0
  8 34  1  0  0  0  0
  9 35  1  0  0  0  0
 10 36  1  0  0  0  0
 11 37  1  0  0  0  0
 12 38  1  0  0  0  0
 13 39  1  0  0  0  0
 13 40  1  0  0  0  0
 14 41  1  0  0  0  0
 14 42  1  0  0  0  0
M  END
> <pdb_id>
4XIP

> <uniprot_id>
P07900

> <usmiles>
O=C(N)c1ccc(N2C3=C(C(=O)CC(C3)(C)C)C(=C2)C)cc1

$$$$
40Y_A_301
          07192420423D 1   1.00000     0.00000     0
            
 47 50  0  0  0  0            999 V2000
   65.5198   34.5984   23.2943 O   0  0  0  0  0  0  0  0  0  0  0  0
   76.0569   33.2167   25.1712 O   0  0  0  0  0  0  0  0  0  0  0  0
   70.2637   36.3052   23.9136 O   0  0  0  0  0  0  0  0  0  0  0  0
   65.0951   33.6342   25.2704 N   0  0  0  0  0  0  0  0  0  0  0  0
   71.5669   34.2186   25.3197 N   0  0  0  0  0  0  0  0  0  0  0  0
   74.7281   36.0616   25.9702 C   0  0  0  0  0  0  0  0  0  0  0  0
   73.4970   31.7482   22.4548 C   0  0  0  0  0  0  0  0  0  0  0  0
   73.0623   29.6665   23.7364 C   0  0  0  0  0  0  0  0  0  0  0  0
   70.7218   37.3043   24.8639 C   0  0  0  0  0  0  0  0  0  0  0  0
   71.6584   36.7451   25.9173 C   0  0  0  0  0  0  0  0  0  0  0  0
   69.3573   33.1867   25.6738 C   0  0  0  0  0  0  0  0  0  0  0  0
   67.9915   33.1761   25.4349 C   0  0  0  0  0  0  0  0  0  0  0  0
   68.1619   35.2323   24.1781 C   0  0  0  0  0  0  0  0  0  0  0  0
   74.6235   31.3902   24.6765 C   0  0  0  0  0  0  0  0  0  0  0  0
   72.1734   31.8341   24.5909 C   0  0  0  0  0  0  0  0  0  0  0  0
   65.9143   34.1535   24.3680 C   0  0  0  0  0  0  0  0  0  0  0  0
   74.8952   32.8232   25.0807 C   0  0  0  0  0  0  0  0  0  0  0  0
   69.5276   35.2420   24.4089 C   0  0  0  0  0  0  0  0  0  0  0  0
   70.1386   34.2191   25.1456 C   0  0  0  0  0  0  0  0  0  0  0  0
   72.2444   35.3809   25.6773 C   0  0  0  0  0  0  0  0  0  0  0  0
   72.4801   33.2136   25.0911 C   0  0  0  0  0  0  0  0  0  0  0  0
   67.3855   34.1873   24.6830 C   0  0  0  0  0  0  0  0  0  0  0  0
   73.5889   35.1206   25.6853 C   0  0  0  0  0  0  0  0  0  0  0  0
   73.7439   33.7296   25.3108 C   0  0  0  0  0  0  0  0  0  0  0  0
   73.3407   31.1608   23.8601 C   0  0  0  0  0  0  0  0  0  0  0  0
   65.4593   33.2828   26.1329 H   0  0  0  0  0  0  0  0  0  0  0  0
   64.1125   33.5936   25.0891 H   0  0  0  0  0  0  0  0  0  0  0  0
   75.5945   35.5677   25.8973 H   0  0  0  0  0  0  0  0  0  0  0  0
   74.7148   36.8110   25.3084 H   0  0  0  0  0  0  0  0  0  0  0  0
   74.6318   36.4312   26.8944 H   0  0  0  0  0  0  0  0  0  0  0  0
   73.6801   32.7290   22.5220 H   0  0  0  0  0  0  0  0  0  0  0  0
   74.2583   31.2980   21.9882 H   0  0  0  0  0  0  0  0  0  0  0  0
   72.6545   31.6011   21.9366 H   0  0  0  0  0  0  0  0  0  0  0  0
   72.9580   29.2702   24.6485 H   0  0  0  0  0  0  0  0  0  0  0  0
   72.2213   29.5263   23.2139 H   0  0  0  0  0  0  0  0  0  0  0  0
   73.8250   29.2232   23.2655 H   0  0  0  0  0  0  0  0  0  0  0  0
   69.9240   37.6946   25.3235 H   0  0  0  0  0  0  0  0  0  0  0  0
   71.2021   38.0234   24.3617 H   0  0  0  0  0  0  0  0  0  0  0  0
   71.1506   36.7050   26.7778 H   0  0  0  0  0  0  0  0  0  0  0  0
   72.4207   37.3857   26.0097 H   0  0  0  0  0  0  0  0  0  0  0  0
   69.7797   32.4625   26.2189 H   0  0  0  0  0  0  0  0  0  0  0  0
   67.4320   32.4348   25.8056 H   0  0  0  0  0  0  0  0  0  0  0  0
   67.7348   35.9687   23.6533 H   0  0  0  0  0  0  0  0  0  0  0  0
   74.5593   30.8424   25.5106 H   0  0  0  0  0  0  0  0  0  0  0  0
   75.3976   31.0734   24.1284 H   0  0  0  0  0  0  0  0  0  0  0  0
   71.3998   31.8934   23.9599 H   0  0  0  0  0  0  0  0  0  0  0  0
   71.9222   31.2646   25.3736 H   0  0  0  0  0  0  0  0  0  0  0  0
  1 16  2  0  0  0  0
  2 17  2  0  0  0  0
  3  9  1  0  0  0  0
  3 18  1  0  0  0  0
  4 16  1  0  0  0  0
  5 19  1  0  0  0  0
  5 20  1  0  0  0  0
  5 21  1  0  0  0  0
  6 23  1  0  0  0  0
  7 25  1  0  0  0  0
  8 25  1  0  0  0  0
  9 10  1  0  0  0  0
 10 20  1  0  0  0  0
 11 12  1  0  0  0  0
 11 19  2  0  0  0  0
 12 22  2  0  0  0  0
 13 18  2  0  0  0  0
 13 22  1  0  0  0  0
 14 17  1  0  0  0  0
 14 25  1  0  0  0  0
 15 21  1  0  0  0  0
 15 25  1  0  0  0  0
 16 22  1  0  0  0  0
 17 24  1  0  0  0  0
 18 19  1  0  0  0  0
 20 23  2  0  0  0  0
 21 24  2  0  0  0  0
 23 24  1  0  0  0  0
  4 26  1  0  0  0  0
  4 27  1  0  0  0  0
  6 28  1  0  0  0  0
  6 29  1  0  0  0  0
  6 30  1  0  0  0  0
  7 31  1  0  0  0  0
  7 32  1  0  0  0  0
  7 33  1  0  0  0  0
  8 34  1  0  0  0  0
  8 35  1  0  0  0  0
  8 36  1  0  0  0  0
  9 37  1  0  0  0  0
  9 38  1  0  0  0  0
 10 39  1  0  0  0  0
 10 40  1  0  0  0  0
 11 41  1  0  0  0  0
 12 42  1  0  0  0  0
 13 43  1  0  0  0  0
 14 44  1  0  0  0  0
 14 45  1  0  0  0  0
 15 46  1  0  0  0  0
 15 47  1  0  0  0  0
M  END
> <pdb_id>
4XIQ

> <uniprot_id>
P07900

> <usmiles>
O=C(N)c1cc2OCCC=3N(c2cc1)C4=C(C(=O)CC(C4)(C)C)C3C

$$$$
40Z_A_301
          07192420423D 1   1.00000     0.00000     0
            
 58 62  0  0  0  0            999 V2000
   67.4671   31.5959   25.9018 Cl  0  0  0  0  0  0  0  0  0  0  0  0
   65.5111   34.4884   23.4842 O   0  0  0  0  0  0  0  0  0  0  0  0
   76.1434   33.2319   25.2012 O   0  0  0  0  0  0  0  0  0  0  0  0
   70.6882   37.6078   20.5486 O   0  0  0  0  0  0  0  0  0  0  0  0
   65.1976   33.5111   25.4835 N   0  0  0  0  0  0  0  0  0  0  0  0
   70.1361   36.5850   24.0367 N   0  0  0  0  0  0  0  0  0  0  0  0
   71.6743   34.3320   25.2034 N   0  0  0  0  0  0  0  0  0  0  0  0
   74.8244   36.0896   26.0638 C   0  0  0  0  0  0  0  0  0  0  0  0
   73.1395   29.7332   23.6933 C   0  0  0  0  0  0  0  0  0  0  0  0
   73.6857   31.7544   22.3618 C   0  0  0  0  0  0  0  0  0  0  0  0
   71.2300   38.6778   19.9306 C   0  0  0  0  0  0  0  0  0  0  0  0
   70.9895   37.4573   24.8514 C   0  0  0  0  0  0  0  0  0  0  0  0
   69.7698   37.0101   22.6942 C   0  0  0  0  0  0  0  0  0  0  0  0
   71.3289   39.7044   20.7598 C   0  0  0  0  0  0  0  0  0  0  0  0
   71.7112   36.7663   26.0021 C   0  0  0  0  0  0  0  0  0  0  0  0
   70.8144   39.2778   21.9818 C   0  0  0  0  0  0  0  0  0  0  0  0
   69.5536   33.1987   25.5786 C   0  0  0  0  0  0  0  0  0  0  0  0
   68.1241   35.2390   24.3599 C   0  0  0  0  0  0  0  0  0  0  0  0
   74.7055   31.4432   24.6434 C   0  0  0  0  0  0  0  0  0  0  0  0
   72.2711   31.9512   24.4312 C   0  0  0  0  0  0  0  0  0  0  0  0
   65.9689   34.0392   24.5456 C   0  0  0  0  0  0  0  0  0  0  0  0
   68.1905   33.0839   25.4012 C   0  0  0  0  0  0  0  0  0  0  0  0
   74.9820   32.8720   25.0594 C   0  0  0  0  0  0  0  0  0  0  0  0
   70.4319   38.0048   21.8175 C   0  0  0  0  0  0  0  0  0  0  0  0
   69.5068   35.3697   24.5106 C   0  0  0  0  0  0  0  0  0  0  0  0
   72.3429   35.4561   25.6334 C   0  0  0  0  0  0  0  0  0  0  0  0
   70.2398   34.3166   25.1030 C   0  0  0  0  0  0  0  0  0  0  0  0
   72.5848   33.3216   24.9555 C   0  0  0  0  0  0  0  0  0  0  0  0
   73.6879   35.1860   25.6743 C   0  0  0  0  0  0  0  0  0  0  0  0
   67.4459   34.0963   24.7908 C   0  0  0  0  0  0  0  0  0  0  0  0
   73.8428   33.8098   25.2429 C   0  0  0  0  0  0  0  0  0  0  0  0
   73.4524   31.2236   23.7805 C   0  0  0  0  0  0  0  0  0  0  0  0
   65.6050   33.1593   26.3263 H   0  0  0  0  0  0  0  0  0  0  0  0
   64.2078   33.4642   25.3491 H   0  0  0  0  0  0  0  0  0  0  0  0
   75.6878   35.5908   25.9880 H   0  0  0  0  0  0  0  0  0  0  0  0
   74.8432   36.8829   25.4552 H   0  0  0  0  0  0  0  0  0  0  0  0
   74.6983   36.3962   27.0073 H   0  0  0  0  0  0  0  0  0  0  0  0
   72.9844   29.3708   24.6124 H   0  0  0  0  0  0  0  0  0  0  0  0
   72.3189   29.5968   23.1384 H   0  0  0  0  0  0  0  0  0  0  0  0
   73.9101   29.2549   23.2721 H   0  0  0  0  0  0  0  0  0  0  0  0
   73.8924   32.7320   22.4015 H   0  0  0  0  0  0  0  0  0  0  0  0
   74.4541   31.2678   21.9460 H   0  0  0  0  0  0  0  0  0  0  0  0
   72.8629   31.6097   21.8123 H   0  0  0  0  0  0  0  0  0  0  0  0
   71.5185   38.6931   18.9733 H   0  0  0  0  0  0  0  0  0  0  0  0
   70.4156   38.1805   25.2357 H   0  0  0  0  0  0  0  0  0  0  0  0
   71.6797   37.8626   24.2519 H   0  0  0  0  0  0  0  0  0  0  0  0
   68.8323   37.3455   22.7868 H   0  0  0  0  0  0  0  0  0  0  0  0
   69.7705   36.1664   22.1575 H   0  0  0  0  0  0  0  0  0  0  0  0
   71.7002   40.6090   20.5502 H   0  0  0  0  0  0  0  0  0  0  0  0
   71.0493   36.6007   26.7331 H   0  0  0  0  0  0  0  0  0  0  0  0
   72.4290   37.3780   26.3346 H   0  0  0  0  0  0  0  0  0  0  0  0
   70.7441   39.8180   22.8204 H   0  0  0  0  0  0  0  0  0  0  0  0
   70.0544   32.4743   26.0523 H   0  0  0  0  0  0  0  0  0  0  0  0
   67.6074   35.9814   23.9333 H   0  0  0  0  0  0  0  0  0  0  0  0
   74.6043   30.8966   25.4747 H   0  0  0  0  0  0  0  0  0  0  0  0
   75.4956   31.1173   24.1243 H   0  0  0  0  0  0  0  0  0  0  0  0
   71.5457   32.0383   23.7485 H   0  0  0  0  0  0  0  0  0  0  0  0
   71.9451   31.3936   25.1946 H   0  0  0  0  0  0  0  0  0  0  0  0
  1 22  1  0  0  0  0
  2 21  2  0  0  0  0
  3 23  2  0  0  0  0
  4 11  1  0  0  0  0
  4 24  1  0  0  0  0
  5 21  1  0  0  0  0
  6 12  1  0  0  0  0
  6 13  1  0  0  0  0
  6 25  1  0  0  0  0
  7 26  1  0  0  0  0
  7 27  1  0  0  0  0
  7 28  1  0  0  0  0
  8 29  1  0  0  0  0
  9 32  1  0  0  0  0
 10 32  1  0  0  0  0
 11 14  2  0  0  0  0
 12 15  1  0  0  0  0
 13 24  1  0  0  0  0
 14 16  1  0  0  0  0
 15 26  1  0  0  0  0
 16 24  2  0  0  0  0
 17 22  2  0  0  0  0
 17 27  1  0  0  0  0
 18 25  1  0  0  0  0
 18 30  2  0  0  0  0
 19 23  1  0  0  0  0
 19 32  1  0  0  0  0
 20 28  1  0  0  0  0
 20 32  1  0  0  0  0
 21 30  1  0  0  0  0
 22 30  1  0  0  0  0
 23 31  1  0  0  0  0
 25 27  2  0  0  0  0
 26 29  2  0  0  0  0
 28 31  2  0  0  0  0
 29 31  1  0  0  0  0
  5 33  1  0  0  0  0
  5 34  1  0  0  0  0
  8 35  1  0  0  0  0
  8 36  1  0  0  0  0
  8 37  1  0  0  0  0
  9 38  1  0  0  0  0
  9 39  1  0  0  0  0
  9 40  1  0  0  0  0
 10 41  1  0  0  0  0
 10 42  1  0  0  0  0
 10 43  1  0  0  0  0
 11 44  1  0  0  0  0
 12 45  1  0  0  0  0
 12 46  1  0  0  0  0
 13 47  1  0  0  0  0
 13 48  1  0  0  0  0
 14 49  1  0  0  0  0
 15 50  1  0  0  0  0
 15 51  1  0  0  0  0
 16 52  1  0  0  0  0
 17 53  1  0  0  0  0
 18 54  1  0  0  0  0
 19 55  1  0  0  0  0
 19 56  1  0  0  0  0
 20 57  1  0  0  0  0
 20 58  1  0  0  0  0
M  END
> <pdb_id>
4XIT

> <uniprot_id>
P07900

> <usmiles>
Clc1c(cc2N(CC=3OC=CC3)CCC=4N(c2c1)C5=C(C(=O)CC(C5)(C)C)C4C)C(=O)N

$$$$
410_A_300
          07202400393D 1   1.00000     0.00000     0
            
 59 62  0  0  0  0            999 V2000
   47.5090   12.8180    3.9060 Br  0  0  0  0  0  0  0  0  0  0  0  0
   44.6830   14.1060    0.7680 S   0  0  0  0  0  0  0  0  0  0  0  0
   48.9770   17.8700    5.0200 O   0  0  0  0  0  0  0  0  0  0  0  0
   47.0020   17.1990    5.8780 O   0  0  0  0  0  0  0  0  0  0  0  0
   43.8310   16.8970    0.4990 O   0  0  0  0  0  0  0  0  0  0  0  0
   44.3330   17.5910    2.5970 O   0  0  0  0  0  0  0  0  0  0  0  0
   50.6980    9.0630   -0.2960 O   0  0  0  0  0  0  0  0  0  0  0  0
   46.3510   15.8080    3.8840 O   0  0  0  0  0  0  0  0  0  0  0  0
   48.5540    9.1150    0.6020 N   0  0  0  0  0  0  0  0  0  0  0  0
   47.5490   16.5590    3.6400 C   0  0  0  0  0  0  0  0  0  0  0  0
   48.3070    6.1910    3.8420 C   0  0  0  0  0  0  0  0  0  0  0  0
   48.5590   12.4160   -3.3400 C   0  0  0  0  0  0  0  0  0  0  0  0
   48.6100    5.7150    2.4250 C   0  0  0  0  0  0  0  0  0  0  0  0
   49.0250    7.5090    4.1340 C   0  0  0  0  0  0  0  0  0  0  0  0
   47.9770   11.1460   -3.3450 C   0  0  0  0  0  0  0  0  0  0  0  0
   49.4750   12.7430   -2.3360 C   0  0  0  0  0  0  0  0  0  0  0  0
   44.8780    9.6670    0.0570 C   0  0  0  0  0  0  0  0  0  0  0  0
   48.1310    6.7610    1.4280 C   0  0  0  0  0  0  0  0  0  0  0  0
   48.7350    8.5940    3.0870 C   0  0  0  0  0  0  0  0  0  0  0  0
   46.1240    9.0360    0.0560 C   0  0  0  0  0  0  0  0  0  0  0  0
   48.3050   10.2140   -2.3520 C   0  0  0  0  0  0  0  0  0  0  0  0
   49.8070   11.8160   -1.3410 C   0  0  0  0  0  0  0  0  0  0  0  0
   44.7280   10.9630    0.5670 C   0  0  0  0  0  0  0  0  0  0  0  0
   47.0870   11.0050    1.0800 C   0  0  0  0  0  0  0  0  0  0  0  0
   47.8720   17.2790    4.9650 C   0  0  0  0  0  0  0  0  0  0  0  0
   44.3410   16.7580    1.6490 C   0  0  0  0  0  0  0  0  0  0  0  0
   46.2970   13.6400    2.6970 C   0  0  0  0  0  0  0  0  0  0  0  0
   45.0220   15.3700    1.8740 C   0  0  0  0  0  0  0  0  0  0  0  0
   45.7120   13.0190    1.6060 C   0  0  0  0  0  0  0  0  0  0  0  0
   49.5540    9.5190   -0.2990 C   0  0  0  0  0  0  0  0  0  0  0  0
   48.8730    8.0870    1.6430 C   0  0  0  0  0  0  0  0  0  0  0  0
   47.2420    9.6990    0.5700 C   0  0  0  0  0  0  0  0  0  0  0  0
   45.9190   15.0020    2.8620 C   0  0  0  0  0  0  0  0  0  0  0  0
   49.2250   10.5420   -1.3410 C   0  0  0  0  0  0  0  0  0  0  0  0
   45.8380   11.6510    1.0870 C   0  0  0  0  0  0  0  0  0  0  0  0
   49.5869   17.8647    4.2275 H   0  0  0  0  0  0  0  0  0  0  0  0
   43.9033   16.1595   -0.1725 H   0  0  0  0  0  0  0  0  0  0  0  0
   47.3994   17.2252    2.9094 H   0  0  0  0  0  0  0  0  0  0  0  0
   48.2976   15.9470    3.3850 H   0  0  0  0  0  0  0  0  0  0  0  0
   48.6147    5.4980    4.4940 H   0  0  0  0  0  0  0  0  0  0  0  0
   47.3209    6.3257    3.9393 H   0  0  0  0  0  0  0  0  0  0  0  0
   48.3231   13.0833   -4.0464 H   0  0  0  0  0  0  0  0  0  0  0  0
   48.1370    4.8505    2.2550 H   0  0  0  0  0  0  0  0  0  0  0  0
   49.5956    5.5817    2.3213 H   0  0  0  0  0  0  0  0  0  0  0  0
   50.0102    7.3382    4.1517 H   0  0  0  0  0  0  0  0  0  0  0  0
   48.7283    7.8422    5.0290 H   0  0  0  0  0  0  0  0  0  0  0  0
   47.3231   10.9011   -4.0609 H   0  0  0  0  0  0  0  0  0  0  0  0
   49.8978   13.6492   -2.3285 H   0  0  0  0  0  0  0  0  0  0  0  0
   44.0819    9.1869   -0.3115 H   0  0  0  0  0  0  0  0  0  0  0  0
   47.1498    6.9090    1.5520 H   0  0  0  0  0  0  0  0  0  0  0  0
   48.3040    6.4338    0.4990 H   0  0  0  0  0  0  0  0  0  0  0  0
   49.3778    9.3479    3.2229 H   0  0  0  0  0  0  0  0  0  0  0  0
   47.8007    8.9244    3.2208 H   0  0  0  0  0  0  0  0  0  0  0  0
   46.2162    8.1108   -0.3121 H   0  0  0  0  0  0  0  0  0  0  0  0
   47.8814    9.3082   -2.3624 H   0  0  0  0  0  0  0  0  0  0  0  0
   50.4622   12.0643   -0.6275 H   0  0  0  0  0  0  0  0  0  0  0  0
   43.8286   11.4000    0.5611 H   0  0  0  0  0  0  0  0  0  0  0  0
   47.8853   11.4834    1.4457 H   0  0  0  0  0  0  0  0  0  0  0  0
   49.8430    7.8751    1.5237 H   0  0  0  0  0  0  0  0  0  0  0  0
  1 27  1  0  0  0  0
  2 28  1  0  0  0  0
  2 29  1  0  0  0  0
  3 25  1  0  0  0  0
  4 25  2  0  0  0  0
  5 26  1  0  0  0  0
  6 26  2  0  0  0  0
  7 30  2  0  0  0  0
  8 10  1  0  0  0  0
  8 33  1  0  0  0  0
  9 30  1  0  0  0  0
  9 31  1  0  0  0  0
  9 32  1  0  0  0  0
 10 25  1  0  0  0  0
 11 13  1  0  0  0  0
 11 14  1  0  0  0  0
 12 15  2  0  0  0  0
 12 16  1  0  0  0  0
 13 18  1  0  0  0  0
 14 19  1  0  0  0  0
 15 21  1  0  0  0  0
 16 22  2  0  0  0  0
 17 20  2  0  0  0  0
 17 23  1  0  0  0  0
 18 31  1  0  0  0  0
 19 31  1  0  0  0  0
 20 32  1  0  0  0  0
 21 34  2  0  0  0  0
 22 34  1  0  0  0  0
 23 35  2  0  0  0  0
 24 32  2  0  0  0  0
 24 35  1  0  0  0  0
 26 28  1  0  0  0  0
 27 29  2  0  0  0  0
 27 33  1  0  0  0  0
 28 33  2  0  0  0  0
 29 35  1  0  0  0  0
 30 34  1  0  0  0  0
  3 36  1  0  0  0  0
  5 37  1  0  0  0  0
 10 38  1  0  0  0  0
 10 39  1  0  0  0  0
 11 40  1  0  0  0  0
 11 41  1  0  0  0  0
 12 42  1  0  0  0  0
 13 43  1  0  0  0  0
 13 44  1  0  0  0  0
 14 45  1  0  0  0  0
 14 46  1  0  0  0  0
 15 47  1  0  0  0  0
 16 48  1  0  0  0  0
 17 49  1  0  0  0  0
 18 50  1  0  0  0  0
 18 51  1  0  0  0  0
 19 52  1  0  0  0  0
 19 53  1  0  0  0  0
 20 54  1  0  0  0  0
 21 55  1  0  0  0  0
 22 56  1  0  0  0  0
 23 57  1  0  0  0  0
 24 58  1  0  0  0  0
 31 59  1  0  0  0  0
M  END
> <pdb_id>
2ZN7

> <uniprot_id>
P18031

> <usmiles>
BrC1=C(SC(C(=O)O)=C1OCC(=O)O)c2cc(N(C(=O)c3ccccc3)C4CCCCC4)ccc2

$$$$
42A_A_502
          07202414313D 1   1.00000     0.00000     0
            
 16 17  0  0  0  0            999 V2000
  -15.7428    8.1701   21.6224 N   0  0  0  0  0  0  0  0  0  0  0  0
  -14.3003   10.8888   26.8359 N   0  0  0  0  0  0  0  0  0  0  0  0
  -14.2451   11.5739   24.5516 N   0  0  0  0  0  0  0  0  0  0  0  0
  -15.4173    8.8818   22.4787 C   0  0  0  0  0  0  0  0  0  0  0  0
  -14.6275    9.8276   27.6055 C   0  0  0  0  0  0  0  0  0  0  0  0
  -14.5441   11.0497   23.3239 C   0  0  0  0  0  0  0  0  0  0  0  0
  -15.1174    8.6115   27.1420 C   0  0  0  0  0  0  0  0  0  0  0  0
  -15.3014    8.4285   25.7701 C   0  0  0  0  0  0  0  0  0  0  0  0
  -14.4996   10.6575   25.5278 C   0  0  0  0  0  0  0  0  0  0  0  0
  -15.0012    9.7628   23.5240 C   0  0  0  0  0  0  0  0  0  0  0  0
  -14.9793    9.5019   24.9228 C   0  0  0  0  0  0  0  0  0  0  0  0
  -13.8912   12.4957   24.7099 H   0  0  0  0  0  0  0  0  0  0  0  0
  -14.5071    9.9251   28.5934 H   0  0  0  0  0  0  0  0  0  0  0  0
  -14.4490   11.5136   22.4431 H   0  0  0  0  0  0  0  0  0  0  0  0
  -15.3355    7.8764   27.7839 H   0  0  0  0  0  0  0  0  0  0  0  0
  -15.6496    7.5654   25.4042 H   0  0  0  0  0  0  0  0  0  0  0  0
  1  4  3  0  0  0  0
  2  5  1  0  0  0  0
  2  9  2  0  0  0  0
  3  6  1  0  0  0  0
  3  9  1  0  0  0  0
  4 10  1  0  0  0  0
  5  7  2  0  0  0  0
  6 10  2  0  0  0  0
  7  8  1  0  0  0  0
  8 11  2  0  0  0  0
  9 11  1  0  0  0  0
 10 11  1  0  0  0  0
  3 12  1  0  0  0  0
  5 13  1  0  0  0  0
  6 14  1  0  0  0  0
  7 15  1  0  0  0  0
  8 16  1  0  0  0  0
M  END
> <pdb_id>
7EBB

> <uniprot_id>
Q16654

> <usmiles>
N#CC=1c2c(nccc2)NC1

$$$$
42A_A_506
          07202406103D 1   1.00000     0.00000     0
            
 16 17  0  0  0  0            999 V2000
  -57.5598   11.9357    8.0308 N   0  0  0  0  0  0  0  0  0  0  0  0
  -62.8649   10.4413   10.5053 N   0  0  0  0  0  0  0  0  0  0  0  0
  -60.6063   10.2975   11.2957 N   0  0  0  0  0  0  0  0  0  0  0  0
  -58.4239   11.5730    8.7170 C   0  0  0  0  0  0  0  0  0  0  0  0
  -63.5765   10.8434    9.4248 C   0  0  0  0  0  0  0  0  0  0  0  0
  -59.3497   10.6015   10.8329 C   0  0  0  0  0  0  0  0  0  0  0  0
  -63.0453   11.3812    8.2590 C   0  0  0  0  0  0  0  0  0  0  0  0
  -61.6627   11.5429    8.1515 C   0  0  0  0  0  0  0  0  0  0  0  0
  -61.5401   10.6208   10.3507 C   0  0  0  0  0  0  0  0  0  0  0  0
  -59.4896   11.1274    9.5598 C   0  0  0  0  0  0  0  0  0  0  0  0
  -60.8768   11.1443    9.2458 C   0  0  0  0  0  0  0  0  0  0  0  0
  -60.8083    9.8991   12.1904 H   0  0  0  0  0  0  0  0  0  0  0  0
  -64.5705   10.7445    9.4703 H   0  0  0  0  0  0  0  0  0  0  0  0
  -58.4900   10.4674   11.3256 H   0  0  0  0  0  0  0  0  0  0  0  0
  -63.6462   11.6492    7.5059 H   0  0  0  0  0  0  0  0  0  0  0  0
  -61.2477   11.9277    7.3271 H   0  0  0  0  0  0  0  0  0  0  0  0
  1  4  3  0  0  0  0
  2  5  1  0  0  0  0
  2  9  2  0  0  0  0
  3  6  1  0  0  0  0
  3  9  1  0  0  0  0
  4 10  1  0  0  0  0
  5  7  2  0  0  0  0
  6 10  2  0  0  0  0
  7  8  1  0  0  0  0
  8 11  2  0  0  0  0
  9 11  1  0  0  0  0
 10 11  1  0  0  0  0
  3 12  1  0  0  0  0
  5 13  1  0  0  0  0
  6 14  1  0  0  0  0
  7 15  1  0  0  0  0
  8 16  1  0  0  0  0
M  END
> <pdb_id>
7EAS

> <uniprot_id>
Q15119

> <usmiles>
N#CC=1c2c(nccc2)NC1

$$$$
42C_A_237
          07192420423D 1   1.00000     0.00000     0
            
 21 22  0  0  0  0            999 V2000
   65.6004   34.7720   22.6597 N   0  0  0  0  0  0  0  0  0  0  0  0
   64.8320   33.8171   24.7906 N   0  0  0  0  0  0  0  0  0  0  0  0
   67.8048   35.5968   22.6729 N   0  0  0  0  0  0  0  0  0  0  0  0
   66.7399   34.0985   25.9110 N   0  0  0  0  0  0  0  0  0  0  0  0
   69.3112   35.5639   24.5780 N   0  0  0  0  0  0  0  0  0  0  0  0
   70.4568   36.0277   23.8064 C   0  0  0  0  0  0  0  0  0  0  0  0
   69.4900   35.6150   26.0141 C   0  0  0  0  0  0  0  0  0  0  0  0
   66.6340   35.3814   22.0497 C   0  0  0  0  0  0  0  0  0  0  0  0
   65.4711   33.6225   25.9463 C   0  0  0  0  0  0  0  0  0  0  0  0
   65.7416   34.3745   23.9529 C   0  0  0  0  0  0  0  0  0  0  0  0
   68.0640   35.2350   23.9636 C   0  0  0  0  0  0  0  0  0  0  0  0
   66.9634   34.6151   24.6926 C   0  0  0  0  0  0  0  0  0  0  0  0
   67.3971   34.0697   26.6642 H   0  0  0  0  0  0  0  0  0  0  0  0
   70.2508   35.9595   22.8302 H   0  0  0  0  0  0  0  0  0  0  0  0
   70.6527   36.9800   24.0401 H   0  0  0  0  0  0  0  0  0  0  0  0
   71.2533   35.4616   24.0193 H   0  0  0  0  0  0  0  0  0  0  0  0
   68.6622   35.2814   26.4651 H   0  0  0  0  0  0  0  0  0  0  0  0
   70.2659   35.0402   26.2740 H   0  0  0  0  0  0  0  0  0  0  0  0
   69.6653   36.5586   26.2948 H   0  0  0  0  0  0  0  0  0  0  0  0
   66.5272   35.6833   21.1024 H   0  0  0  0  0  0  0  0  0  0  0  0
   65.0625   33.1782   26.7435 H   0  0  0  0  0  0  0  0  0  0  0  0
  1  8  2  0  0  0  0
  1 10  1  0  0  0  0
  2  9  2  0  0  0  0
  2 10  1  0  0  0  0
  3  8  1  0  0  0  0
  3 11  2  0  0  0  0
  4  9  1  0  0  0  0
  4 12  1  0  0  0  0
  5  6  1  0  0  0  0
  5  7  1  0  0  0  0
  5 11  1  0  0  0  0
 10 12  2  0  0  0  0
 11 12  1  0  0  0  0
  4 13  1  0  0  0  0
  6 14  1  0  0  0  0
  6 15  1  0  0  0  0
  6 16  1  0  0  0  0
  7 17  1  0  0  0  0
  7 18  1  0  0  0  0
  7 19  1  0  0  0  0
  8 20  1  0  0  0  0
  9 21  1  0  0  0  0
M  END
> <pdb_id>
3HZ1

> <uniprot_id>
P07900

> <usmiles>
n1c2N=CNc2c(nc1)N(C)C

$$$$
42C_A_501
          07202411413D 1   1.00000     0.00000     0
            
 21 22  0  0  0  0            999 V2000
  -31.9745   90.1444   24.1257 N   0  0  0  0  0  0  0  0  0  0  0  0
  -29.6948   90.5721   24.9337 N   0  0  0  0  0  0  0  0  0  0  0  0
  -32.2337   88.0285   22.8897 N   0  0  0  0  0  0  0  0  0  0  0  0
  -28.7277   88.6454   24.1165 N   0  0  0  0  0  0  0  0  0  0  0  0
  -30.4551   86.4946   22.4911 N   0  0  0  0  0  0  0  0  0  0  0  0
  -31.4117   85.6749   21.7116 C   0  0  0  0  0  0  0  0  0  0  0  0
  -29.0301   86.1225   22.7331 C   0  0  0  0  0  0  0  0  0  0  0  0
  -32.6460   89.2136   23.4397 C   0  0  0  0  0  0  0  0  0  0  0  0
  -28.5607   89.8385   24.8173 C   0  0  0  0  0  0  0  0  0  0  0  0
  -30.6689   89.8090   24.2686 C   0  0  0  0  0  0  0  0  0  0  0  0
  -30.9274   87.7257   23.0534 C   0  0  0  0  0  0  0  0  0  0  0  0
  -30.0737   88.5966   23.7490 C   0  0  0  0  0  0  0  0  0  0  0  0
  -28.0252   87.9622   23.9172 H   0  0  0  0  0  0  0  0  0  0  0  0
  -32.3013   86.1312   21.6898 H   0  0  0  0  0  0  0  0  0  0  0  0
  -31.0715   85.5633   20.7779 H   0  0  0  0  0  0  0  0  0  0  0  0
  -31.5082   84.7768   22.1407 H   0  0  0  0  0  0  0  0  0  0  0  0
  -28.5893   86.8316   23.2835 H   0  0  0  0  0  0  0  0  0  0  0  0
  -28.9915   85.2501   23.2204 H   0  0  0  0  0  0  0  0  0  0  0  0
  -28.5547   86.0366   21.8575 H   0  0  0  0  0  0  0  0  0  0  0  0
  -33.6157   89.4175   23.3051 H   0  0  0  0  0  0  0  0  0  0  0  0
  -27.6831   90.1275   25.1999 H   0  0  0  0  0  0  0  0  0  0  0  0
  1  8  2  0  0  0  0
  1 10  1  0  0  0  0
  2  9  2  0  0  0  0
  2 10  1  0  0  0  0
  3  8  1  0  0  0  0
  3 11  2  0  0  0  0
  4  9  1  0  0  0  0
  4 12  1  0  0  0  0
  5  6  1  0  0  0  0
  5  7  1  0  0  0  0
  5 11  1  0  0  0  0
 10 12  2  0  0  0  0
 11 12  1  0  0  0  0
  4 13  1  0  0  0  0
  6 14  1  0  0  0  0
  6 15  1  0  0  0  0
  6 16  1  0  0  0  0
  7 17  1  0  0  0  0
  7 18  1  0  0  0  0
  7 19  1  0  0  0  0
  8 20  1  0  0  0  0
  9 21  1  0  0  0  0
M  END
> <pdb_id>
7ULJ

> <uniprot_id>
P08238

> <usmiles>
n1c2N=CNc2c(nc1)N(C)C

$$$$
42J_B_406
          07202410283D 1   1.00000     0.00000     0
            
 20 20  0  0  0  0            999 V2000
 -131.6976 -188.5420  307.1720 Cl  0  0  0  0  0  0  0  0  0  0  0  0
 -132.2390 -187.6736  310.1210 Cl  0  0  0  0  0  0  0  0  0  0  0  0
 -137.4190 -186.1374  309.9574 N   0  0  0  0  0  0  0  0  0  0  0  0
 -137.4772 -185.3386  308.7344 C   0  0  0  0  0  0  0  0  0  0  0  0
 -136.1382 -184.6701  308.4265 C   0  0  0  0  0  0  0  0  0  0  0  0
 -133.7499 -186.9262  306.5115 C   0  0  0  0  0  0  0  0  0  0  0  0
 -134.7674 -186.0403  306.8118 C   0  0  0  0  0  0  0  0  0  0  0  0
 -134.2305 -186.1570  309.1277 C   0  0  0  0  0  0  0  0  0  0  0  0
 -132.9707 -187.4287  307.5337 C   0  0  0  0  0  0  0  0  0  0  0  0
 -133.2119 -187.0462  308.8370 C   0  0  0  0  0  0  0  0  0  0  0  0
 -135.0248 -185.6445  308.1146 C   0  0  0  0  0  0  0  0  0  0  0  0
 -138.3112 -186.5572  310.1241 H   0  0  0  0  0  0  0  0  0  0  0  0
 -136.7278 -186.8529  309.8556 H   0  0  0  0  0  0  0  0  0  0  0  0
 -138.1746 -184.6303  308.8437 H   0  0  0  0  0  0  0  0  0  0  0  0
 -137.7242 -185.9346  307.9703 H   0  0  0  0  0  0  0  0  0  0  0  0
 -135.8676 -184.1265  309.2211 H   0  0  0  0  0  0  0  0  0  0  0  0
 -136.2606 -184.0685  307.6372 H   0  0  0  0  0  0  0  0  0  0  0  0
 -133.5804 -187.1999  305.5647 H   0  0  0  0  0  0  0  0  0  0  0  0
 -135.3315 -185.6760  306.0709 H   0  0  0  0  0  0  0  0  0  0  0  0
 -134.3948 -185.8822  310.0751 H   0  0  0  0  0  0  0  0  0  0  0  0
  1  9  1  0  0  0  0
  2 10  1  0  0  0  0
  3  4  1  0  0  0  0
  4  5  1  0  0  0  0
  5 11  1  0  0  0  0
  6  7  2  0  0  0  0
  6  9  1  0  0  0  0
  7 11  1  0  0  0  0
  8 10  1  0  0  0  0
  8 11  2  0  0  0  0
  9 10  2  0  0  0  0
  3 12  1  0  0  0  0
  3 13  1  0  0  0  0
  4 14  1  0  0  0  0
  4 15  1  0  0  0  0
  5 16  1  0  0  0  0
  5 17  1  0  0  0  0
  6 18  1  0  0  0  0
  7 19  1  0  0  0  0
  8 20  1  0  0  0  0
M  END
> <pdb_id>
7AT5

> <uniprot_id>
P68400

> <usmiles>
Clc1c(Cl)ccc(c1)CCN

$$$$
42K_A_301
          07192421083D 1   1.00000     0.00000     0
            
 36 39  0  0  0  0            999 V2000
    6.7112   23.7296    7.3576 S   0  0  0  0  0  0  0  0  0  0  0  0
    7.0764   23.2311    6.0007 O   0  0  0  0  0  0  0  0  0  0  0  0
    7.8976   24.3746    7.9667 O   0  0  0  0  0  0  0  0  0  0  0  0
    2.0617   30.5329    6.0543 O   0  0  0  0  0  0  0  0  0  0  0  0
    6.2469   22.5417    8.3557 N   0  0  0  0  0  0  0  0  0  0  0  0
   -1.8544   27.3493   10.7074 N   0  0  0  0  0  0  0  0  0  0  0  0
    2.7530   28.0698    6.9459 N   0  0  0  0  0  0  0  0  0  0  0  0
   -2.5842   28.3586   10.7985 N   0  0  0  0  0  0  0  0  0  0  0  0
   -0.9042   27.5018    9.9015 N   0  0  0  0  0  0  0  0  0  0  0  0
    1.6831   28.1177    7.5946 N   0  0  0  0  0  0  0  0  0  0  0  0
    0.1956   31.2834    7.1451 N   0  0  0  0  0  0  0  0  0  0  0  0
    4.4641   25.0628    8.1833 C   0  0  0  0  0  0  0  0  0  0  0  0
    5.6046   25.9027    6.2060 C   0  0  0  0  0  0  0  0  0  0  0  0
    3.5290   26.1012    8.0836 C   0  0  0  0  0  0  0  0  0  0  0  0
    4.6739   26.9372    6.1138 C   0  0  0  0  0  0  0  0  0  0  0  0
   -2.5427   30.5771    9.6206 C   0  0  0  0  0  0  0  0  0  0  0  0
   -1.7979   31.3120    8.6684 C   0  0  0  0  0  0  0  0  0  0  0  0
    5.4965   24.9747    7.2454 C   0  0  0  0  0  0  0  0  0  0  0  0
    1.0910   30.3496    6.8125 C   0  0  0  0  0  0  0  0  0  0  0  0
    3.6122   27.0252    7.0257 C   0  0  0  0  0  0  0  0  0  0  0  0
   -2.1443   29.2767    9.9208 C   0  0  0  0  0  0  0  0  0  0  0  0
   -0.6682   30.7522    8.0373 C   0  0  0  0  0  0  0  0  0  0  0  0
    0.8493   29.1896    7.5469 C   0  0  0  0  0  0  0  0  0  0  0  0
   -0.9863   28.7328    9.3513 C   0  0  0  0  0  0  0  0  0  0  0  0
   -0.2710   29.4412    8.3537 C   0  0  0  0  0  0  0  0  0  0  0  0
    6.0140   22.9281    9.2482 H   0  0  0  0  0  0  0  0  0  0  0  0
    5.4468   22.0791    7.9738 H   0  0  0  0  0  0  0  0  0  0  0  0
    2.9829   28.8344    6.3438 H   0  0  0  0  0  0  0  0  0  0  0  0
   -3.3621   28.4654   11.4178 H   0  0  0  0  0  0  0  0  0  0  0  0
    0.1692   32.2189    6.7926 H   0  0  0  0  0  0  0  0  0  0  0  0
    4.3934   24.3899    8.9197 H   0  0  0  0  0  0  0  0  0  0  0  0
    6.3421   25.8258    5.5351 H   0  0  0  0  0  0  0  0  0  0  0  0
    2.8018   26.1858    8.7648 H   0  0  0  0  0  0  0  0  0  0  0  0
    4.7645   27.6223    5.3910 H   0  0  0  0  0  0  0  0  0  0  0  0
   -3.3389   30.9831   10.0691 H   0  0  0  0  0  0  0  0  0  0  0  0
   -2.0776   32.2443    8.4390 H   0  0  0  0  0  0  0  0  0  0  0  0
  1  2  2  0  0  0  0
  1  3  2  0  0  0  0
  1  5  1  0  0  0  0
  1 18  1  0  0  0  0
  4 19  2  0  0  0  0
  6  8  1  0  0  0  0
  6  9  2  0  0  0  0
  7 10  1  0  0  0  0
  7 20  1  0  0  0  0
  8 21  1  0  0  0  0
  9 24  1  0  0  0  0
 10 23  2  0  0  0  0
 11 19  1  0  0  0  0
 11 22  1  0  0  0  0
 12 14  1  0  0  0  0
 12 18  2  0  0  0  0
 13 15  2  0  0  0  0
 13 18  1  0  0  0  0
 14 20  2  0  0  0  0
 15 20  1  0  0  0  0
 16 17  1  0  0  0  0
 16 21  2  0  0  0  0
 17 22  2  0  0  0  0
 19 23  1  0  0  0  0
 21 24  1  0  0  0  0
 22 25  1  0  0  0  0
 23 25  1  0  0  0  0
 24 25  2  0  0  0  0
  5 26  1  0  0  0  0
  5 27  1  0  0  0  0
  7 28  1  0  0  0  0
  8 29  1  0  0  0  0
 11 30  1  0  0  0  0
 12 31  1  0  0  0  0
 13 32  1  0  0  0  0
 14 33  1  0  0  0  0
 15 34  1  0  0  0  0
 16 35  1  0  0  0  0
 17 36  1  0  0  0  0
M  END
> <pdb_id>
4FKQ

> <uniprot_id>
P24941

> <usmiles>
S(=O)(=O)(N)c1ccc(NN=C2c3c4N=NNc4ccc3NC2=O)cc1

$$$$
437_A_355
          07202400263D 1   1.00000     0.00000     0
            
 57 60  0  0  0  0            999 V2000
   -0.2929   10.4745   11.2057 O   0  0  0  0  0  0  0  0  0  0  0  0
   -0.1470    1.7378   15.4901 O   0  0  0  0  0  0  0  0  0  0  0  0
    2.0606    4.1572   11.9546 N   0  0  0  0  0  0  0  0  0  0  0  0
   -0.7316    3.3518   14.0275 N   0  0  0  0  0  0  0  0  0  0  0  0
   -2.1645    2.6924   15.6938 N   0  0  0  0  0  0  0  0  0  0  0  0
    0.8824    4.3943   12.6425 N   0  0  0  0  0  0  0  0  0  0  0  0
    4.1858    1.2187   12.6749 C   0  0  0  0  0  0  0  0  0  0  0  0
    4.5532    3.0576   11.0244 C   0  0  0  0  0  0  0  0  0  0  0  0
    2.9098    1.2685   10.5255 C   0  0  0  0  0  0  0  0  0  0  0  0
   -1.1083    9.7380   12.1288 C   0  0  0  0  0  0  0  0  0  0  0  0
   -6.2813   -0.1030   17.0695 C   0  0  0  0  0  0  0  0  0  0  0  0
   -5.8756    0.4693   15.8666 C   0  0  0  0  0  0  0  0  0  0  0  0
   -2.2654    1.5179   19.2117 C   0  0  0  0  0  0  0  0  0  0  0  0
   -1.8457    2.1016   18.0083 C   0  0  0  0  0  0  0  0  0  0  0  0
   -0.1458    6.3636   13.6677 C   0  0  0  0  0  0  0  0  0  0  0  0
    0.4028    6.3542   11.3691 C   0  0  0  0  0  0  0  0  0  0  0  0
   -5.4724    0.0393   18.1895 C   0  0  0  0  0  0  0  0  0  0  0  0
   -3.4858    0.8316   19.2546 C   0  0  0  0  0  0  0  0  0  0  0  0
   -4.6776    1.1996   15.7839 C   0  0  0  0  0  0  0  0  0  0  0  0
   -0.6231    7.6713   13.5508 C   0  0  0  0  0  0  0  0  0  0  0  0
   -0.0699    7.6584   11.2100 C   0  0  0  0  0  0  0  0  0  0  0  0
    1.3306    2.2548   13.0356 C   0  0  0  0  0  0  0  0  0  0  0  0
   -0.9780    2.5581   15.0932 C   0  0  0  0  0  0  0  0  0  0  0  0
    0.4334    3.2937   13.3020 C   0  0  0  0  0  0  0  0  0  0  0  0
   -2.6260    2.0319   16.8298 C   0  0  0  0  0  0  0  0  0  0  0  0
    2.3016    2.8612   12.2277 C   0  0  0  0  0  0  0  0  0  0  0  0
    0.3828    5.6491   12.5902 C   0  0  0  0  0  0  0  0  0  0  0  0
   -0.5802    8.3258   12.3036 C   0  0  0  0  0  0  0  0  0  0  0  0
   -4.2646    0.7339   18.1056 C   0  0  0  0  0  0  0  0  0  0  0  0
   -3.8502    1.3304   16.8984 C   0  0  0  0  0  0  0  0  0  0  0  0
    3.4917    2.1280   11.6409 C   0  0  0  0  0  0  0  0  0  0  0  0
   -0.6569   11.4004   11.1047 H   0  0  0  0  0  0  0  0  0  0  0  0
   -1.4305    4.0128   13.7541 H   0  0  0  0  0  0  0  0  0  0  0  0
   -2.7968    3.3457   15.2774 H   0  0  0  0  0  0  0  0  0  0  0  0
    3.5108    0.6065   13.0868 H   0  0  0  0  0  0  0  0  0  0  0  0
    4.8935    0.6773   12.2209 H   0  0  0  0  0  0  0  0  0  0  0  0
    4.6032    1.7825   13.3876 H   0  0  0  0  0  0  0  0  0  0  0  0
    4.1208    3.6561   10.3499 H   0  0  0  0  0  0  0  0  0  0  0  0
    4.9689    3.6128   11.7448 H   0  0  0  0  0  0  0  0  0  0  0  0
    5.2591    2.5077   10.5781 H   0  0  0  0  0  0  0  0  0  0  0  0
    2.4589    1.8555    9.8531 H   0  0  0  0  0  0  0  0  0  0  0  0
    3.6450    0.7566   10.0812 H   0  0  0  0  0  0  0  0  0  0  0  0
    2.2438    0.6295   10.9101 H   0  0  0  0  0  0  0  0  0  0  0  0
   -2.0445    9.6974   11.7797 H   0  0  0  0  0  0  0  0  0  0  0  0
   -1.1026   10.2024   13.0145 H   0  0  0  0  0  0  0  0  0  0  0  0
   -7.1421   -0.6088   17.1260 H   0  0  0  0  0  0  0  0  0  0  0  0
   -6.4439    0.3593   15.0512 H   0  0  0  0  0  0  0  0  0  0  0  0
   -1.6985    1.5908   20.0323 H   0  0  0  0  0  0  0  0  0  0  0  0
   -0.9688    2.5816   17.9818 H   0  0  0  0  0  0  0  0  0  0  0  0
   -0.1842    5.9193   14.5627 H   0  0  0  0  0  0  0  0  0  0  0  0
    0.7793    5.8911   10.5667 H   0  0  0  0  0  0  0  0  0  0  0  0
   -5.7571   -0.3585   19.0617 H   0  0  0  0  0  0  0  0  0  0  0  0
   -3.7964    0.4133   20.1082 H   0  0  0  0  0  0  0  0  0  0  0  0
   -4.4167    1.6286   14.9191 H   0  0  0  0  0  0  0  0  0  0  0  0
   -0.9947    8.1421   14.3510 H   0  0  0  0  0  0  0  0  0  0  0  0
   -0.0388    8.1027   10.3146 H   0  0  0  0  0  0  0  0  0  0  0  0
    1.2891    1.3056   13.3474 H   0  0  0  0  0  0  0  0  0  0  0  0
  1 10  1  0  0  0  0
  2 23  2  0  0  0  0
  3  6  1  0  0  0  0
  3 26  2  0  0  0  0
  4 23  1  0  0  0  0
  4 24  1  0  0  0  0
  5 23  1  0  0  0  0
  5 25  1  0  0  0  0
  6 24  1  0  0  0  0
  6 27  1  0  0  0  0
  7 31  1  0  0  0  0
  8 31  1  0  0  0  0
  9 31  1  0  0  0  0
 10 28  1  0  0  0  0
 11 12  2  0  0  0  0
 11 17  1  0  0  0  0
 12 19  1  0  0  0  0
 13 14  1  0  0  0  0
 13 18  2  0  0  0  0
 14 25  2  0  0  0  0
 15 20  1  0  0  0  0
 15 27  2  0  0  0  0
 16 21  2  0  0  0  0
 16 27  1  0  0  0  0
 17 29  2  0  0  0  0
 18 29  1  0  0  0  0
 19 30  2  0  0  0  0
 20 28  2  0  0  0  0
 21 28  1  0  0  0  0
 22 24  2  0  0  0  0
 22 26  1  0  0  0  0
 25 30  1  0  0  0  0
 26 31  1  0  0  0  0
 29 30  1  0  0  0  0
  1 32  1  0  0  0  0
  4 33  1  0  0  0  0
  5 34  1  0  0  0  0
  7 35  1  0  0  0  0
  7 36  1  0  0  0  0
  7 37  1  0  0  0  0
  8 38  1  0  0  0  0
  8 39  1  0  0  0  0
  8 40  1  0  0  0  0
  9 41  1  0  0  0  0
  9 42  1  0  0  0  0
  9 43  1  0  0  0  0
 10 44  1  0  0  0  0
 10 45  1  0  0  0  0
 11 46  1  0  0  0  0
 12 47  1  0  0  0  0
 13 48  1  0  0  0  0
 14 49  1  0  0  0  0
 15 50  1  0  0  0  0
 16 51  1  0  0  0  0
 17 52  1  0  0  0  0
 18 53  1  0  0  0  0
 19 54  1  0  0  0  0
 20 55  1  0  0  0  0
 21 56  1  0  0  0  0
 22 57  1  0  0  0  0
M  END
> <pdb_id>
3NNV

> <uniprot_id>
Q16539

> <usmiles>
O=C(Nc1c2c(ccc1)cccc2)NC=3N(N=C(C3)C(C)(C)C)c4ccc(cc4)CO

$$$$
43D_A_2001
          07192415263D 1   1.00000     0.00000     0
            
 45 48  0  0  0  0            999 V2000
   70.8520   33.4060    2.2390 N   0  0  0  0  0  0  0  0  0  0  0  0
   71.2500   40.4430    2.8300 N   0  0  0  0  0  0  0  0  0  0  0  0
   71.0480   39.5000    3.7110 N   0  0  0  0  0  0  0  0  0  0  0  0
   65.2210   39.4470   -0.8120 N   0  0  0  0  0  0  0  0  0  0  0  0
   68.8790   41.4320   -1.1510 N   0  0  0  0  0  0  0  0  0  0  0  0
   65.7960   38.2210   -0.8740 N   0  0  0  0  0  0  0  0  0  0  0  0
   72.2440   40.0940    2.0640 N   0  0  0  0  0  0  0  0  0  0  0  0
   70.8230   40.5360   -0.6650 N   0  0  0  0  0  0  0  0  0  0  0  0
   65.0560   36.9700   -0.9860 C   0  0  0  0  0  0  0  0  0  0  0  0
   72.0600   37.2560    4.3280 C   0  0  0  0  0  0  0  0  0  0  0  0
   70.2100   41.6420   -1.0870 C   0  0  0  0  0  0  0  0  0  0  0  0
   70.6850   34.5310    1.7560 C   0  0  0  0  0  0  0  0  0  0  0  0
   66.2440   40.3250   -0.7250 C   0  0  0  0  0  0  0  0  0  0  0  0
   72.6390   41.0320    0.9740 C   0  0  0  0  0  0  0  0  0  0  0  0
   72.3350   40.4860   -0.4560 C   0  0  0  0  0  0  0  0  0  0  0  0
   67.1060   38.3500   -0.8210 C   0  0  0  0  0  0  0  0  0  0  0  0
   72.7200   38.8960    2.4680 C   0  0  0  0  0  0  0  0  0  0  0  0
   69.6110   36.6930    1.8220 C   0  0  0  0  0  0  0  0  0  0  0  0
   71.1920   36.1800    0.0740 C   0  0  0  0  0  0  0  0  0  0  0  0
   69.4470   37.9430    1.2470 C   0  0  0  0  0  0  0  0  0  0  0  0
   71.0110   37.4620   -0.4790 C   0  0  0  0  0  0  0  0  0  0  0  0
   71.9590   38.5440    3.5010 C   0  0  0  0  0  0  0  0  0  0  0  0
   68.6600   40.1800   -0.6920 C   0  0  0  0  0  0  0  0  0  0  0  0
   69.8610   39.6170   -0.4000 C   0  0  0  0  0  0  0  0  0  0  0  0
   70.4700   35.7980    1.2380 C   0  0  0  0  0  0  0  0  0  0  0  0
   67.3910   39.6480   -0.6970 C   0  0  0  0  0  0  0  0  0  0  0  0
   70.1050   38.3540    0.0900 C   0  0  0  0  0  0  0  0  0  0  0  0
   65.6984   36.2041   -1.0143 H   0  0  0  0  0  0  0  0  0  0  0  0
   64.4511   36.8687   -0.1962 H   0  0  0  0  0  0  0  0  0  0  0  0
   64.5109   36.9791   -1.8243 H   0  0  0  0  0  0  0  0  0  0  0  0
   72.8156   36.6980    3.9849 H   0  0  0  0  0  0  0  0  0  0  0  0
   72.2252   37.4875    5.2867 H   0  0  0  0  0  0  0  0  0  0  0  0
   71.2051   36.7429    4.2515 H   0  0  0  0  0  0  0  0  0  0  0  0
   70.6684   42.4993   -1.3212 H   0  0  0  0  0  0  0  0  0  0  0  0
   66.1549   41.3203   -0.6877 H   0  0  0  0  0  0  0  0  0  0  0  0
   73.6215   41.2043    1.0450 H   0  0  0  0  0  0  0  0  0  0  0  0
   72.1403   41.8898    1.0981 H   0  0  0  0  0  0  0  0  0  0  0  0
   72.7918   41.0538   -1.1408 H   0  0  0  0  0  0  0  0  0  0  0  0
   72.6581   39.5430   -0.5356 H   0  0  0  0  0  0  0  0  0  0  0  0
   67.7713   37.6048   -0.8659 H   0  0  0  0  0  0  0  0  0  0  0  0
   73.4825   38.3827    2.0742 H   0  0  0  0  0  0  0  0  0  0  0  0
   69.1097   36.4470    2.6516 H   0  0  0  0  0  0  0  0  0  0  0  0
   71.8288   35.5375   -0.3521 H   0  0  0  0  0  0  0  0  0  0  0  0
   68.8209   38.5864    1.6875 H   0  0  0  0  0  0  0  0  0  0  0  0
   71.5362   37.7339   -1.2854 H   0  0  0  0  0  0  0  0  0  0  0  0
  1 12  3  0  0  0  0
  2  3  2  0  0  0  0
  2  7  1  0  0  0  0
  3 22  1  0  0  0  0
  4  6  1  0  0  0  0
  4 13  2  0  0  0  0
  5 11  2  0  0  0  0
  5 23  1  0  0  0  0
  6  9  1  0  0  0  0
  6 16  1  0  0  0  0
  7 14  1  0  0  0  0
  7 17  1  0  0  0  0
  8 11  1  0  0  0  0
  8 15  1  0  0  0  0
  8 24  1  0  0  0  0
 10 22  1  0  0  0  0
 12 25  1  0  0  0  0
 13 26  1  0  0  0  0
 14 15  1  0  0  0  0
 16 26  2  0  0  0  0
 17 22  2  0  0  0  0
 18 20  1  0  0  0  0
 18 25  2  0  0  0  0
 19 21  2  0  0  0  0
 19 25  1  0  0  0  0
 20 27  2  0  0  0  0
 21 27  1  0  0  0  0
 23 24  2  0  0  0  0
 23 26  1  0  0  0  0
 24 27  1  0  0  0  0
  9 28  1  0  0  0  0
  9 29  1  0  0  0  0
  9 30  1  0  0  0  0
 10 31  1  0  0  0  0
 10 32  1  0  0  0  0
 10 33  1  0  0  0  0
 11 34  1  0  0  0  0
 13 35  1  0  0  0  0
 14 36  1  0  0  0  0
 14 37  1  0  0  0  0
 15 38  1  0  0  0  0
 15 39  1  0  0  0  0
 16 40  1  0  0  0  0
 17 41  1  0  0  0  0
 18 42  1  0  0  0  0
 19 43  1  0  0  0  0
 20 44  1  0  0  0  0
 21 45  1  0  0  0  0
M  END
> <pdb_id>
4XUB

> <uniprot_id>
Q9UIF8

> <usmiles>
N#Cc1ccc(cc1)C=2N(C=NC2C=3C=NN(C3)C)CCN4N=NC(=C4)C

$$$$
43E_B_808
          07192416263D 1   1.00000     0.00000     0
            
 39 40  0  0  0  0            999 V2000
  -36.8101   14.9967    7.1181 Cl  0  0  0  0  0  0  0  0  0  0  0  0
  -41.6592   17.3402    7.1220 Cl  0  0  0  0  0  0  0  0  0  0  0  0
  -44.8795   17.6311   16.0412 S   0  0  0  0  0  0  0  0  0  0  0  0
  -45.1885   13.9998   13.2240 O   0  0  0  0  0  0  0  0  0  0  0  0
  -41.5223   11.6495    8.5502 N   0  0  0  0  0  0  0  0  0  0  0  0
  -43.3180   13.1864   12.2525 N   0  0  0  0  0  0  0  0  0  0  0  0
  -43.1797   14.8838   13.8125 N   0  0  0  0  0  0  0  0  0  0  0  0
  -43.2578   17.7949   15.9809 C   0  0  0  0  0  0  0  0  0  0  0  0
  -44.9074   16.2418   15.0568 C   0  0  0  0  0  0  0  0  0  0  0  0
  -42.6986   12.2375    9.1930 C   0  0  0  0  0  0  0  0  0  0  0  0
  -44.0291   12.2657   11.3741 C   0  0  0  0  0  0  0  0  0  0  0  0
  -41.2504   12.1831    7.2092 C   0  0  0  0  0  0  0  0  0  0  0  0
  -43.0946   11.4904   10.4583 C   0  0  0  0  0  0  0  0  0  0  0  0
  -42.7049   16.8254   15.2149 C   0  0  0  0  0  0  0  0  0  0  0  0
  -39.3121   16.0280    7.2339 C   0  0  0  0  0  0  0  0  0  0  0  0
  -39.1568   13.6209    7.2179 C   0  0  0  0  0  0  0  0  0  0  0  0
  -41.3099   14.6770    7.2125 C   0  0  0  0  0  0  0  0  0  0  0  0
  -38.5628   14.8710    7.2132 C   0  0  0  0  0  0  0  0  0  0  0  0
  -40.6864   15.9045    7.2176 C   0  0  0  0  0  0  0  0  0  0  0  0
  -43.9695   14.0293   13.0735 C   0  0  0  0  0  0  0  0  0  0  0  0
  -43.6559   15.9069   14.6700 C   0  0  0  0  0  0  0  0  0  0  0  0
  -40.5475   13.5188    7.2166 C   0  0  0  0  0  0  0  0  0  0  0  0
  -41.6650   10.6627    8.4739 H   0  0  0  0  0  0  0  0  0  0  0  0
  -42.3181   13.1915   12.2445 H   0  0  0  0  0  0  0  0  0  0  0  0
  -42.1888   14.7727   13.7375 H   0  0  0  0  0  0  0  0  0  0  0  0
  -42.7420   18.5140   16.4466 H   0  0  0  0  0  0  0  0  0  0  0  0
  -45.7351   15.7427   14.8003 H   0  0  0  0  0  0  0  0  0  0  0  0
  -43.4641   12.2109    8.5501 H   0  0  0  0  0  0  0  0  0  0  0  0
  -42.4952   13.1874    9.4300 H   0  0  0  0  0  0  0  0  0  0  0  0
  -44.6676   12.7898   10.8105 H   0  0  0  0  0  0  0  0  0  0  0  0
  -44.5382   11.6149   11.9373 H   0  0  0  0  0  0  0  0  0  0  0  0
  -42.1213   12.2877    6.7289 H   0  0  0  0  0  0  0  0  0  0  0  0
  -40.6762   11.5272    6.7192 H   0  0  0  0  0  0  0  0  0  0  0  0
  -42.2622   11.2754   10.9690 H   0  0  0  0  0  0  0  0  0  0  0  0
  -43.5505   10.6413   10.1913 H   0  0  0  0  0  0  0  0  0  0  0  0
  -41.7216   16.7577   15.0456 H   0  0  0  0  0  0  0  0  0  0  0  0
  -38.8744   16.9267    7.2599 H   0  0  0  0  0  0  0  0  0  0  0  0
  -38.5920   12.7957    7.2221 H   0  0  0  0  0  0  0  0  0  0  0  0
  -42.3083   14.6210    7.2057 H   0  0  0  0  0  0  0  0  0  0  0  0
  1 18  1  0  0  0  0
  2 19  1  0  0  0  0
  3  8  1  0  0  0  0
  3  9  1  0  0  0  0
  4 20  2  0  0  0  0
  5 10  1  0  0  0  0
  5 12  1  0  0  0  0
  6 11  1  0  0  0  0
  6 20  1  0  0  0  0
  7 20  1  0  0  0  0
  7 21  1  0  0  0  0
  8 14  2  0  0  0  0
  9 21  2  0  0  0  0
 10 13  1  0  0  0  0
 11 13  1  0  0  0  0
 12 22  1  0  0  0  0
 14 21  1  0  0  0  0
 15 18  2  0  0  0  0
 15 19  1  0  0  0  0
 16 18  1  0  0  0  0
 16 22  2  0  0  0  0
 17 19  2  0  0  0  0
 17 22  1  0  0  0  0
  5 23  1  0  0  0  0
  6 24  1  0  0  0  0
  7 25  1  0  0  0  0
  8 26  1  0  0  0  0
  9 27  1  0  0  0  0
 10 28  1  0  0  0  0
 10 29  1  0  0  0  0
 11 30  1  0  0  0  0
 11 31  1  0  0  0  0
 12 32  1  0  0  0  0
 12 33  1  0  0  0  0
 13 34  1  0  0  0  0
 13 35  1  0  0  0  0
 14 36  1  0  0  0  0
 15 37  1  0  0  0  0
 16 38  1  0  0  0  0
 17 39  1  0  0  0  0
M  END
> <pdb_id>
4MWD

> <uniprot_id>
Q38C91

> <usmiles>
Clc1cc(Cl)cc(c1)CNCCCNC(=O)NC2=CSC=C2

$$$$
43G_A_301
          07192415273D 1   1.00000     0.00000     0
            
 33 35  0  0  0  0            999 V2000
   17.3578  -11.4494   -7.9335 O   0  0  0  0  0  0  0  0  0  0  0  0
   14.7208  -11.6459   -7.1496 O   0  0  0  0  0  0  0  0  0  0  0  0
   17.3160   -9.2498   -5.0030 N   0  0  0  0  0  0  0  0  0  0  0  0
   16.0064   -9.3741   -4.6542 C   0  0  0  0  0  0  0  0  0  0  0  0
   17.7534   -9.9620   -6.0836 C   0  0  0  0  0  0  0  0  0  0  0  0
   23.1232   -4.5249   -5.7441 C   0  0  0  0  0  0  0  0  0  0  0  0
   23.4119   -5.3088   -4.6341 C   0  0  0  0  0  0  0  0  0  0  0  0
   21.8485   -4.5202   -6.2985 C   0  0  0  0  0  0  0  0  0  0  0  0
   19.0694   -8.0080   -2.0501 C   0  0  0  0  0  0  0  0  0  0  0  0
   15.0699  -10.1526   -5.3567 C   0  0  0  0  0  0  0  0  0  0  0  0
   18.1792   -8.6847   -2.8758 C   0  0  0  0  0  0  0  0  0  0  0  0
   22.3984   -6.0966   -4.0921 C   0  0  0  0  0  0  0  0  0  0  0  0
   20.8289   -5.3178   -5.7454 C   0  0  0  0  0  0  0  0  0  0  0  0
   20.0049   -7.1617   -2.6470 C   0  0  0  0  0  0  0  0  0  0  0  0
   19.1702   -7.6906   -4.8197 C   0  0  0  0  0  0  0  0  0  0  0  0
   16.8973  -10.7684   -6.8512 C   0  0  0  0  0  0  0  0  0  0  0  0
   15.5504  -10.8751   -6.4573 C   0  0  0  0  0  0  0  0  0  0  0  0
   18.1880   -8.5251   -4.2724 C   0  0  0  0  0  0  0  0  0  0  0  0
   21.1072   -6.1088   -4.6404 C   0  0  0  0  0  0  0  0  0  0  0  0
   20.0788   -6.9954   -4.0315 C   0  0  0  0  0  0  0  0  0  0  0  0
   16.7338  -12.0190   -8.4685 H   0  0  0  0  0  0  0  0  0  0  0  0
   15.6894   -8.8792   -3.8452 H   0  0  0  0  0  0  0  0  0  0  0  0
   18.7191   -9.9072   -6.3375 H   0  0  0  0  0  0  0  0  0  0  0  0
   23.8404   -3.9575   -6.1488 H   0  0  0  0  0  0  0  0  0  0  0  0
   24.3277   -5.3078   -4.2325 H   0  0  0  0  0  0  0  0  0  0  0  0
   21.6547   -3.9471   -7.0948 H   0  0  0  0  0  0  0  0  0  0  0  0
   19.0404   -8.1243   -1.0573 H   0  0  0  0  0  0  0  0  0  0  0  0
   14.1084  -10.1890   -5.0846 H   0  0  0  0  0  0  0  0  0  0  0  0
   17.5115   -9.3044   -2.4634 H   0  0  0  0  0  0  0  0  0  0  0  0
   22.5959   -6.6661   -3.2942 H   0  0  0  0  0  0  0  0  0  0  0  0
   19.9124   -5.3141   -6.1453 H   0  0  0  0  0  0  0  0  0  0  0  0
   20.6429   -6.6582   -2.0644 H   0  0  0  0  0  0  0  0  0  0  0  0
   19.2195   -7.5914   -5.8135 H   0  0  0  0  0  0  0  0  0  0  0  0
  1 16  1  0  0  0  0
  2 17  2  0  0  0  0
  3  4  1  0  0  0  0
  3  5  1  0  0  0  0
  3 18  1  0  0  0  0
  4 10  2  0  0  0  0
  5 16  2  0  0  0  0
  6  7  2  0  0  0  0
  6  8  1  0  0  0  0
  7 12  1  0  0  0  0
  8 13  2  0  0  0  0
  9 11  2  0  0  0  0
  9 14  1  0  0  0  0
 10 17  1  0  0  0  0
 11 18  1  0  0  0  0
 12 19  2  0  0  0  0
 13 19  1  0  0  0  0
 14 20  2  0  0  0  0
 15 18  2  0  0  0  0
 15 20  1  0  0  0  0
 16 17  1  0  0  0  0
 19 20  1  0  0  0  0
  1 21  1  0  0  0  0
  4 22  1  0  0  0  0
  5 23  1  0  0  0  0
  6 24  1  0  0  0  0
  7 25  1  0  0  0  0
  8 26  1  0  0  0  0
  9 27  1  0  0  0  0
 10 28  1  0  0  0  0
 11 29  1  0  0  0  0
 12 30  1  0  0  0  0
 13 31  1  0  0  0  0
 14 32  1  0  0  0  0
 15 33  1  0  0  0  0
M  END
> <pdb_id>
4XUC

> <uniprot_id>
P21964

> <usmiles>
O=C1C(O)=CN(c2cc(c3ccccc3)ccc2)C=C1

$$$$
43J_B_301
          07192415273D 1   1.00000     0.00000     0
            
 35 37  0  0  0  0            999 V2000
   14.3310  -12.1760   -7.4950 O   0  0  0  0  0  0  0  0  0  0  0  0
   16.7600  -11.5240   -8.2330 O   0  0  0  0  0  0  0  0  0  0  0  0
   16.2880   -9.1780   -5.5130 N   0  0  0  0  0  0  0  0  0  0  0  0
   14.3430  -10.5020   -5.7820 N   0  0  0  0  0  0  0  0  0  0  0  0
   12.9770  -10.8750   -5.4070 C   0  0  0  0  0  0  0  0  0  0  0  0
   16.8690   -9.8290   -6.5420 C   0  0  0  0  0  0  0  0  0  0  0  0
   12.3880  -11.4060    1.7080 C   0  0  0  0  0  0  0  0  0  0  0  0
   11.4850  -10.4510    1.2160 C   0  0  0  0  0  0  0  0  0  0  0  0
   13.6300  -11.5610    1.0820 C   0  0  0  0  0  0  0  0  0  0  0  0
   13.6840   -6.7860   -2.8400 C   0  0  0  0  0  0  0  0  0  0  0  0
   11.8380   -9.6630    0.1130 C   0  0  0  0  0  0  0  0  0  0  0  0
   13.9510  -10.7650   -0.0270 C   0  0  0  0  0  0  0  0  0  0  0  0
   14.2560   -7.3820   -3.9810 C   0  0  0  0  0  0  0  0  0  0  0  0
   13.3090   -7.5720   -1.7450 C   0  0  0  0  0  0  0  0  0  0  0  0
   14.0370   -9.5380   -2.8760 C   0  0  0  0  0  0  0  0  0  0  0  0
   14.9080  -11.1910   -6.8200 C   0  0  0  0  0  0  0  0  0  0  0  0
   15.0340   -9.5210   -5.1500 C   0  0  0  0  0  0  0  0  0  0  0  0
   16.2030  -10.8440   -7.2200 C   0  0  0  0  0  0  0  0  0  0  0  0
   14.4240   -8.7770   -3.9890 C   0  0  0  0  0  0  0  0  0  0  0  0
   13.0730   -9.8070   -0.5430 C   0  0  0  0  0  0  0  0  0  0  0  0
   13.4670   -8.9590   -1.7360 C   0  0  0  0  0  0  0  0  0  0  0  0
   16.2446  -12.2470   -8.6931 H   0  0  0  0  0  0  0  0  0  0  0  0
   12.6743  -10.3064   -4.6421 H   0  0  0  0  0  0  0  0  0  0  0  0
   12.3674  -10.7360   -6.1874 H   0  0  0  0  0  0  0  0  0  0  0  0
   12.9568  -11.8372   -5.1355 H   0  0  0  0  0  0  0  0  0  0  0  0
   17.7953   -9.5770   -6.8222 H   0  0  0  0  0  0  0  0  0  0  0  0
   12.1465  -11.9699    2.4977 H   0  0  0  0  0  0  0  0  0  0  0  0
   10.5925  -10.3334    1.6514 H   0  0  0  0  0  0  0  0  0  0  0  0
   14.2847  -12.2354    1.4235 H   0  0  0  0  0  0  0  0  0  0  0  0
   13.5453   -5.7961   -2.8125 H   0  0  0  0  0  0  0  0  0  0  0  0
   11.1910   -8.9762   -0.2183 H   0  0  0  0  0  0  0  0  0  0  0  0
   14.8415  -10.8872   -0.4653 H   0  0  0  0  0  0  0  0  0  0  0  0
   14.5351   -6.8270   -4.7646 H   0  0  0  0  0  0  0  0  0  0  0  0
   12.9146   -7.1253   -0.9419 H   0  0  0  0  0  0  0  0  0  0  0  0
   14.1730  -10.5285   -2.8976 H   0  0  0  0  0  0  0  0  0  0  0  0
  1 16  2  0  0  0  0
  2 18  1  0  0  0  0
  3  6  1  0  0  0  0
  3 17  2  0  0  0  0
  4  5  1  0  0  0  0
  4 16  1  0  0  0  0
  4 17  1  0  0  0  0
  6 18  2  0  0  0  0
  7  8  2  0  0  0  0
  7  9  1  0  0  0  0
  8 11  1  0  0  0  0
  9 12  2  0  0  0  0
 10 13  2  0  0  0  0
 10 14  1  0  0  0  0
 11 20  2  0  0  0  0
 12 20  1  0  0  0  0
 13 19  1  0  0  0  0
 14 21  2  0  0  0  0
 15 19  2  0  0  0  0
 15 21  1  0  0  0  0
 16 18  1  0  0  0  0
 17 19  1  0  0  0  0
 20 21  1  0  0  0  0
  2 22  1  0  0  0  0
  5 23  1  0  0  0  0
  5 24  1  0  0  0  0
  5 25  1  0  0  0  0
  6 26  1  0  0  0  0
  7 27  1  0  0  0  0
  8 28  1  0  0  0  0
  9 29  1  0  0  0  0
 10 30  1  0  0  0  0
 11 31  1  0  0  0  0
 12 32  1  0  0  0  0
 13 33  1  0  0  0  0
 14 34  1  0  0  0  0
 15 35  1  0  0  0  0
M  END
> <pdb_id>
4XUE

> <uniprot_id>
P21964

> <usmiles>
O=C1N(C(=NC=C1O)c2cc(c3ccccc3)ccc2)C

$$$$
43L_C_401
          07202411443D 1   1.00000     0.00000     0
            
 36 39  0  0  0  0            999 V2000
   18.9287    1.8688  -10.0006 Br  0  0  0  0  0  0  0  0  0  0  0  0
   29.1379   -2.4883   -7.3721 Br  0  0  0  0  0  0  0  0  0  0  0  0
   26.6850    1.3057  -13.7471 N   0  0  0  0  0  0  0  0  0  0  0  0
   27.0125    0.6628  -12.7096 N   0  0  0  0  0  0  0  0  0  0  0  0
   25.3549    1.4026  -13.9564 N   0  0  0  0  0  0  0  0  0  0  0  0
   23.5127    0.4759  -12.5735 N   0  0  0  0  0  0  0  0  0  0  0  0
   25.8457    0.2714  -12.1172 N   0  0  0  0  0  0  0  0  0  0  0  0
   19.9304   -2.0652  -10.6346 C   0  0  0  0  0  0  0  0  0  0  0  0
   27.8184    1.3243   -8.3201 C   0  0  0  0  0  0  0  0  0  0  0  0
   19.2261   -0.8982  -10.3033 C   0  0  0  0  0  0  0  0  0  0  0  0
   28.4844    0.2757   -7.7300 C   0  0  0  0  0  0  0  0  0  0  0  0
   21.2351   -2.0033  -11.0529 C   0  0  0  0  0  0  0  0  0  0  0  0
   26.9367    1.0908   -9.3734 C   0  0  0  0  0  0  0  0  0  0  0  0
   21.1423    0.3735  -10.8291 C   0  0  0  0  0  0  0  0  0  0  0  0
   27.3689   -1.2366   -9.1964 C   0  0  0  0  0  0  0  0  0  0  0  0
   24.2986   -0.5581  -10.5231 C   0  0  0  0  0  0  0  0  0  0  0  0
   24.7897    0.7425  -12.8961 C   0  0  0  0  0  0  0  0  0  0  0  0
   19.8692    0.2547  -10.4308 C   0  0  0  0  0  0  0  0  0  0  0  0
   28.2397   -0.9822   -8.1876 C   0  0  0  0  0  0  0  0  0  0  0  0
   21.8805   -0.7649  -11.1518 C   0  0  0  0  0  0  0  0  0  0  0  0
   26.6961   -0.2043   -9.8243 C   0  0  0  0  0  0  0  0  0  0  0  0
   23.2773   -0.6132  -11.5676 C   0  0  1  0  0  0  0  0  0  0  0  0
   25.7424   -0.5516  -10.9021 C   0  0  2  0  0  0  0  0  0  0  0  0
   22.6938    0.8666  -13.0677 H   0  0  0  0  0  0  0  0  0  0  0  0
   19.3868   -3.0366  -10.5399 H   0  0  0  0  0  0  0  0  0  0  0  0
   28.0136    2.3646   -7.9764 H   0  0  0  0  0  0  0  0  0  0  0  0
   18.1750   -0.9103   -9.9851 H   0  0  0  0  0  0  0  0  0  0  0  0
   29.1926    0.5030   -6.9076 H   0  0  0  0  0  0  0  0  0  0  0  0
   21.7489   -2.9747  -11.2843 H   0  0  0  0  0  0  0  0  0  0  0  0
   26.4185    1.9653   -9.8193 H   0  0  0  0  0  0  0  0  0  0  0  0
   21.5669    1.3866  -10.8748 H   0  0  0  0  0  0  0  0  0  0  0  0
   27.1968   -2.2764   -9.5266 H   0  0  0  0  0  0  0  0  0  0  0  0
   24.1874    0.3670   -9.9566 H   0  0  0  0  0  0  0  0  0  0  0  0
   24.1316   -1.4118   -9.8288 H   0  0  0  0  0  0  0  0  0  0  0  0
   23.3690   -1.6010  -12.1374 H   0  0  0  0  0  0  0  0  0  0  0  0
   26.1232   -1.5731  -11.2702 H   0  0  0  0  0  0  0  0  0  0  0  0
  1 18  1  0  0  0  0
  2 19  1  0  0  0  0
  3  4  2  0  0  0  0
  3  5  1  0  0  0  0
  4  7  1  0  0  0  0
  5 17  2  0  0  0  0
  6 17  1  0  0  0  0
  6 22  1  0  0  0  0
  6 24  1  0  0  0  0
  7 17  1  0  0  0  0
  7 23  1  0  0  0  0
  8 10  2  0  0  0  0
  8 12  1  0  0  0  0
  8 25  1  0  0  0  0
  9 11  2  0  0  0  0
  9 13  1  0  0  0  0
  9 26  1  0  0  0  0
 10 18  1  0  0  0  0
 10 27  1  0  0  0  0
 11 19  1  0  0  0  0
 11 28  1  0  0  0  0
 12 20  2  0  0  0  0
 12 29  1  0  0  0  0
 13 21  2  0  0  0  0
 13 30  1  0  0  0  0
 14 18  2  0  0  0  0
 14 20  1  0  0  0  0
 14 31  1  0  0  0  0
 15 19  2  0  0  0  0
 15 21  1  0  0  0  0
 15 32  1  0  0  0  0
 16 22  1  0  0  0  0
 16 23  1  0  0  0  0
 16 33  1  0  0  0  0
 16 34  1  0  0  0  0
 20 22  1  0  0  0  0
 21 23  1  0  0  0  0
 22 35  1  0  0  0  0
 23 36  1  0  0  0  0
M  END
> <pdb_id>
4XT2

> <uniprot_id>
Q99814

> <usmiles>
Brc1cc(ccc1)[C@@H]2N3N=NN=C3N[C@H](c4cc(Br)ccc4)C2

$$$$
43O_B_302
          07202411093D 1   1.00000     0.00000     0
            
 37 38  0  0  0  0            999 V2000
  -23.4033   -9.2960    9.5499 O   0  0  0  0  0  0  0  0  0  0  0  0
  -20.2496  -10.6027   15.2464 O   0  0  0  0  0  0  0  0  0  0  0  0
  -25.7919   -8.2787    8.8358 O   0  0  0  0  0  0  0  0  0  0  0  0
  -24.3955  -10.7555   10.9500 N   0  0  0  0  0  0  0  0  0  0  0  0
  -25.0643  -12.9949   15.7626 N   0  0  0  0  0  0  0  0  0  0  0  0
  -26.9079   -7.4063    9.1261 C   0  0  0  0  0  0  0  0  0  0  0  0
  -27.1970  -12.6240   14.4368 C   0  0  0  0  0  0  0  0  0  0  0  0
  -25.7604   -9.1090    9.9849 C   0  0  0  0  0  0  0  0  0  0  0  0
  -25.5152  -11.1324   11.7847 C   0  0  0  0  0  0  0  0  0  0  0  0
  -21.5636  -12.2163   16.3858 C   0  0  0  0  0  0  0  0  0  0  0  0
  -25.3248  -10.4836   13.1454 C   0  0  0  0  0  0  0  0  0  0  0  0
  -22.7773  -12.8780   16.5155 C   0  0  0  0  0  0  0  0  0  0  0  0
  -22.5656  -10.8871   14.6677 C   0  0  0  0  0  0  0  0  0  0  0  0
  -24.4124   -9.7206   10.1222 C   0  0  0  0  0  0  0  0  0  0  0  0
  -21.4485  -11.2282   15.4255 C   0  0  0  0  0  0  0  0  0  0  0  0
  -25.7271  -12.3491   14.8124 C   0  0  0  0  0  0  0  0  0  0  0  0
  -23.8127  -12.5323   15.7595 C   0  0  0  0  0  0  0  0  0  0  0  0
  -24.9031  -11.4945   14.2193 C   0  0  0  0  0  0  0  0  0  0  0  0
  -23.7181  -11.5516   14.8392 C   0  0  0  0  0  0  0  0  0  0  0  0
  -20.1574   -9.8870   14.5542 H   0  0  0  0  0  0  0  0  0  0  0  0
  -23.5624  -11.3063   11.0004 H   0  0  0  0  0  0  0  0  0  0  0  0
  -25.4343  -13.6985   16.3693 H   0  0  0  0  0  0  0  0  0  0  0  0
  -27.0321   -6.7617    8.3718 H   0  0  0  0  0  0  0  0  0  0  0  0
  -27.7379   -7.9528    9.2377 H   0  0  0  0  0  0  0  0  0  0  0  0
  -26.7255   -6.9012    9.9697 H   0  0  0  0  0  0  0  0  0  0  0  0
  -27.4714  -12.0127   13.6945 H   0  0  0  0  0  0  0  0  0  0  0  0
  -27.2930  -13.5738   14.1391 H   0  0  0  0  0  0  0  0  0  0  0  0
  -27.7801  -12.4638   15.2333 H   0  0  0  0  0  0  0  0  0  0  0  0
  -26.4456   -9.8314    9.8923 H   0  0  0  0  0  0  0  0  0  0  0  0
  -25.9614   -8.5610   10.7969 H   0  0  0  0  0  0  0  0  0  0  0  0
  -25.5449  -12.1271   11.8841 H   0  0  0  0  0  0  0  0  0  0  0  0
  -26.3685  -10.8130   11.3727 H   0  0  0  0  0  0  0  0  0  0  0  0
  -20.7893  -12.4493   16.9742 H   0  0  0  0  0  0  0  0  0  0  0  0
  -26.1872  -10.0604   13.4233 H   0  0  0  0  0  0  0  0  0  0  0  0
  -24.6176   -9.7806   13.0702 H   0  0  0  0  0  0  0  0  0  0  0  0
  -22.8722  -13.6182   17.1812 H   0  0  0  0  0  0  0  0  0  0  0  0
  -22.5088  -10.1479   13.9967 H   0  0  0  0  0  0  0  0  0  0  0  0
  1 14  2  0  0  0  0
  2 15  1  0  0  0  0
  3  6  1  0  0  0  0
  3  8  1  0  0  0  0
  4  9  1  0  0  0  0
  4 14  1  0  0  0  0
  5 16  1  0  0  0  0
  5 17  1  0  0  0  0
  7 16  1  0  0  0  0
  8 14  1  0  0  0  0
  9 11  1  0  0  0  0
 10 12  1  0  0  0  0
 10 15  2  0  0  0  0
 11 18  1  0  0  0  0
 12 17  2  0  0  0  0
 13 15  1  0  0  0  0
 13 19  2  0  0  0  0
 16 18  2  0  0  0  0
 17 19  1  0  0  0  0
 18 19  1  0  0  0  0
  2 20  1  0  0  0  0
  4 21  1  0  0  0  0
  5 22  1  0  0  0  0
  6 23  1  0  0  0  0
  6 24  1  0  0  0  0
  6 25  1  0  0  0  0
  7 26  1  0  0  0  0
  7 27  1  0  0  0  0
  7 28  1  0  0  0  0
  8 29  1  0  0  0  0
  8 30  1  0  0  0  0
  9 31  1  0  0  0  0
  9 32  1  0  0  0  0
 10 33  1  0  0  0  0
 11 34  1  0  0  0  0
 11 35  1  0  0  0  0
 12 36  1  0  0  0  0
 13 37  1  0  0  0  0
M  END
> <pdb_id>
4XWY

> <uniprot_id>
P35270

> <usmiles>
O=C(NCCC=1c2c(NC1C)ccc(O)c2)COC

$$$$
43P_A_301
          07192420423D 1   1.00000     0.00000     0
            
 34 36  0  0  0  0            999 V2000
   66.9907   32.2630   27.6548 O   0  0  0  0  0  0  0  0  0  0  0  0
   64.4184   34.3537   24.2552 O   0  0  0  0  0  0  0  0  0  0  0  0
   66.2761   35.5541   20.8512 N   0  0  0  0  0  0  0  0  0  0  0  0
   66.1886   34.6723   21.7114 N   0  0  0  0  0  0  0  0  0  0  0  0
   68.7410   39.0343   24.2994 N   0  0  0  0  0  0  0  0  0  0  0  0
   67.6815   37.2543   24.8507 N   0  0  0  0  0  0  0  0  0  0  0  0
   69.4829   31.0150   25.6455 C   0  0  0  0  0  0  0  0  0  0  0  0
   68.2936   38.3317   25.3369 C   0  0  0  0  0  0  0  0  0  0  0  0
   66.8915   36.6220   21.3503 C   0  0  0  0  0  0  0  0  0  0  0  0
   68.4062   38.3841   23.1880 C   0  0  0  0  0  0  0  0  0  0  0  0
   69.4474   32.4868   26.0734 C   0  0  0  0  0  0  0  0  0  0  0  0
   65.7035   33.2797   25.9282 C   0  0  0  0  0  0  0  0  0  0  0  0
   68.0270   33.8971   24.5515 C   0  0  0  0  0  0  0  0  0  0  0  0
   66.9353   32.8587   26.4285 C   0  0  0  0  0  0  0  0  0  0  0  0
   65.6425   34.0023   24.7355 C   0  0  0  0  0  0  0  0  0  0  0  0
   67.7430   37.2789   23.5215 C   0  0  0  0  0  0  0  0  0  0  0  0
   66.7241   35.0796   22.8634 C   0  0  0  0  0  0  0  0  0  0  0  0
   68.1031   33.1358   25.7189 C   0  0  0  0  0  0  0  0  0  0  0  0
   67.1886   36.3729   22.6229 C   0  0  0  0  0  0  0  0  0  0  0  0
   66.8045   34.3362   24.0452 C   0  0  0  0  0  0  0  0  0  0  0  0
   67.8688   31.9573   28.0230 H   0  0  0  0  0  0  0  0  0  0  0  0
   64.3456   34.8715   23.4028 H   0  0  0  0  0  0  0  0  0  0  0  0
   65.9337   35.4762   19.9149 H   0  0  0  0  0  0  0  0  0  0  0  0
   67.2448   36.5398   25.3973 H   0  0  0  0  0  0  0  0  0  0  0  0
   70.3682   30.6185   25.8882 H   0  0  0  0  0  0  0  0  0  0  0  0
   68.7541   30.5144   26.1127 H   0  0  0  0  0  0  0  0  0  0  0  0
   69.3494   30.9521   24.6565 H   0  0  0  0  0  0  0  0  0  0  0  0
   68.3977   38.5690   26.3028 H   0  0  0  0  0  0  0  0  0  0  0  0
   67.0956   37.4662   20.8547 H   0  0  0  0  0  0  0  0  0  0  0  0
   68.6177   38.6773   22.2557 H   0  0  0  0  0  0  0  0  0  0  0  0
   70.1810   32.9801   25.6059 H   0  0  0  0  0  0  0  0  0  0  0  0
   69.5858   32.5424   27.0622 H   0  0  0  0  0  0  0  0  0  0  0  0
   64.8627   33.0637   26.4246 H   0  0  0  0  0  0  0  0  0  0  0  0
   68.8692   34.1332   24.0668 H   0  0  0  0  0  0  0  0  0  0  0  0
  1 14  1  0  0  0  0
  2 15  1  0  0  0  0
  3  4  1  0  0  0  0
  3  9  1  0  0  0  0
  4 17  2  0  0  0  0
  5  8  2  0  0  0  0
  5 10  1  0  0  0  0
  6  8  1  0  0  0  0
  6 16  1  0  0  0  0
  7 11  1  0  0  0  0
  9 19  2  0  0  0  0
 10 16  2  0  0  0  0
 11 18  1  0  0  0  0
 12 14  2  0  0  0  0
 12 15  1  0  0  0  0
 13 18  2  0  0  0  0
 13 20  1  0  0  0  0
 14 18  1  0  0  0  0
 15 20  2  0  0  0  0
 16 19  1  0  0  0  0
 17 19  1  0  0  0  0
 17 20  1  0  0  0  0
  1 21  1  0  0  0  0
  2 22  1  0  0  0  0
  3 23  1  0  0  0  0
  6 24  1  0  0  0  0
  7 25  1  0  0  0  0
  7 26  1  0  0  0  0
  7 27  1  0  0  0  0
  8 28  1  0  0  0  0
  9 29  1  0  0  0  0
 10 30  1  0  0  0  0
 11 31  1  0  0  0  0
 11 32  1  0  0  0  0
 12 33  1  0  0  0  0
 13 34  1  0  0  0  0
M  END
> <pdb_id>
1YC4

> <uniprot_id>
P07900

> <usmiles>
Oc1c(cc(c(O)c1)CC)C2=NNC=C2C=3NC=NC3

$$$$
43S_A_201
          07212401333D 1   1.00000     0.00000     0
            
 30 33  0  0  0  0            999 V2000
  -12.3725  -19.3329  -16.4340 Br  0  0  0  0  0  0  0  0  0  0  0  0
  -14.4185  -18.3419  -21.9636 O   0  0  0  0  0  0  0  0  0  0  0  0
  -14.2268  -24.6474  -20.7740 N   0  0  0  0  0  0  0  0  0  0  0  0
  -17.2919  -21.8716  -23.1654 N   0  0  0  0  0  0  0  0  0  0  0  0
  -16.5702  -19.8737  -22.2727 N   0  0  0  0  0  0  0  0  0  0  0  0
  -15.7970  -23.4513  -22.0781 N   0  0  0  0  0  0  0  0  0  0  0  0
  -14.2725  -22.2572  -20.4300 N   0  0  0  0  0  0  0  0  0  0  0  0
  -14.1673  -16.9296  -22.1934 C   0  0  0  0  0  0  0  0  0  0  0  0
  -17.4373  -20.4949  -23.1199 C   0  0  0  0  0  0  0  0  0  0  0  0
  -13.7532  -16.2670  -20.8405 C   0  0  0  0  0  0  0  0  0  0  0  0
  -13.1527  -17.6775  -18.6793 C   0  0  0  0  0  0  0  0  0  0  0  0
  -13.7049  -20.0364  -18.8321 C   0  0  0  0  0  0  0  0  0  0  0  0
  -13.1664  -18.9605  -18.1838 C   0  0  0  0  0  0  0  0  0  0  0  0
  -14.7956  -23.3992  -21.1077 C   0  0  0  0  0  0  0  0  0  0  0  0
  -14.1899  -18.6290  -20.6841 C   0  0  0  0  0  0  0  0  0  0  0  0
  -16.2713  -22.1990  -22.3313 C   0  0  0  0  0  0  0  0  0  0  0  0
  -15.8191  -20.9586  -21.7476 C   0  0  0  0  0  0  0  0  0  0  0  0
  -14.8048  -21.0553  -20.7835 C   0  0  0  0  0  0  0  0  0  0  0  0
  -13.6683  -17.5007  -19.9567 C   0  0  0  0  0  0  0  0  0  0  0  0
  -14.2662  -19.8774  -20.1351 C   0  0  0  0  0  0  0  0  0  0  0  0
  -13.5021  -24.6989  -20.0868 H   0  0  0  0  0  0  0  0  0  0  0  0
  -14.5486  -25.4800  -21.2247 H   0  0  0  0  0  0  0  0  0  0  0  0
  -17.8377  -22.5071  -23.7116 H   0  0  0  0  0  0  0  0  0  0  0  0
  -14.9967  -16.4928  -22.5419 H   0  0  0  0  0  0  0  0  0  0  0  0
  -13.4294  -16.8233  -22.8598 H   0  0  0  0  0  0  0  0  0  0  0  0
  -18.1182  -20.0010  -23.6607 H   0  0  0  0  0  0  0  0  0  0  0  0
  -14.4464  -15.6242  -20.5146 H   0  0  0  0  0  0  0  0  0  0  0  0
  -12.8719  -15.7996  -20.9107 H   0  0  0  0  0  0  0  0  0  0  0  0
  -12.7905  -16.9120  -18.1475 H   0  0  0  0  0  0  0  0  0  0  0  0
  -13.7057  -20.9352  -18.3937 H   0  0  0  0  0  0  0  0  0  0  0  0
  1 13  1  0  0  0  0
  2  8  1  0  0  0  0
  2 15  1  0  0  0  0
  3 14  1  0  0  0  0
  4  9  1  0  0  0  0
  4 16  1  0  0  0  0
  5  9  2  0  0  0  0
  5 17  1  0  0  0  0
  6 14  2  0  0  0  0
  6 16  1  0  0  0  0
  7 14  1  0  0  0  0
  7 18  2  0  0  0  0
  8 10  1  0  0  0  0
 10 19  1  0  0  0  0
 11 13  2  0  0  0  0
 11 19  1  0  0  0  0
 12 13  1  0  0  0  0
 12 20  2  0  0  0  0
 15 19  2  0  0  0  0
 15 20  1  0  0  0  0
 16 17  2  0  0  0  0
 17 18  1  0  0  0  0
 18 20  1  0  0  0  0
  3 21  1  0  0  0  0
  3 22  1  0  0  0  0
  4 23  1  0  0  0  0
  8 24  1  0  0  0  0
  8 25  1  0  0  0  0
  9 26  1  0  0  0  0
 10 27  1  0  0  0  0
 10 28  1  0  0  0  0
 11 29  1  0  0  0  0
 12 30  1  0  0  0  0
M  END
> <pdb_id>
4XYA

> <uniprot_id>
O60885

> <usmiles>
Brc1cc(c2OCCc2c1)c3nc(nc4NC=Nc43)N

$$$$
43T_A_502
          07192419013D 1   1.00000     0.00000     0
            
 60 62  0  0  0  0            999 V2000
   -2.3993   83.6746  160.8569 F   0  0  0  0  0  0  0  0  0  0  0  0
    1.7621   84.6601  158.4699 O   0  0  0  0  0  0  0  0  0  0  0  0
    0.9467   85.9837  164.7152 O   0  0  0  0  0  0  0  0  0  0  0  0
   -0.0006   90.2832  163.4165 N   0  0  0  0  0  0  0  0  0  0  0  0
    2.3621   86.7878  159.1022 N   0  0  0  0  0  0  0  0  0  0  0  0
    2.1617   89.7304  164.0426 N   0  0  0  0  0  0  0  0  0  0  0  0
    0.5071   88.0399  163.7994 N   0  0  0  0  0  0  0  0  0  0  0  0
    3.9266   88.2831  158.0284 C   0  0  0  0  0  0  0  0  0  0  0  0
    4.1982   89.3743  162.0419 C   0  0  0  0  0  0  0  0  0  0  0  0
    5.1870   87.4797  163.2982 C   0  0  0  0  0  0  0  0  0  0  0  0
    4.1606   89.5281  165.2513 C   0  0  0  0  0  0  0  0  0  0  0  0
   -0.7415   87.5639  163.2325 C   0  0  0  0  0  0  0  0  0  0  0  0
    6.7814   84.4012  159.3820 C   0  0  0  0  0  0  0  0  0  0  0  0
    6.5043   84.6121  158.0401 C   0  0  0  0  0  0  0  0  0  0  0  0
    5.9681   84.9730  160.3417 C   0  0  0  0  0  0  0  0  0  0  0  0
    5.4414   85.3964  157.6403 C   0  0  0  0  0  0  0  0  0  0  0  0
    4.8998   85.7611  159.9422 C   0  0  0  0  0  0  0  0  0  0  0  0
   -1.5759   85.5703  162.0262 C   0  0  0  0  0  0  0  0  0  0  0  0
   -0.4415   84.6800  160.1046 C   0  0  0  0  0  0  0  0  0  0  0  0
    0.4528   86.5821  161.2317 C   0  0  0  0  0  0  0  0  0  0  0  0
    2.5497   87.6604  165.1237 C   0  0  0  0  0  0  0  0  0  0  0  0
    0.8694   89.3828  163.7273 C   0  0  0  0  0  0  0  0  0  0  0  0
    1.6113   85.6358  159.2014 C   0  0  0  0  0  0  0  0  0  0  0  0
    1.2551   87.1488  164.5472 C   0  0  0  0  0  0  0  0  0  0  0  0
   -1.4811   84.6402  161.0108 C   0  0  0  0  0  0  0  0  0  0  0  0
    3.4720   86.8427  158.1577 C   0  0  1  0  0  0  0  0  0  0  0  0
    3.8941   88.2638  163.0420 C   0  0  0  0  0  0  0  0  0  0  0  0
   -0.6079   86.5554  162.1300 C   0  0  0  0  0  0  0  0  0  0  0  0
    4.6308   85.9898  158.5959 C   0  0  0  0  0  0  0  0  0  0  0  0
    0.5372   85.6424  160.2222 C   0  0  0  0  0  0  0  0  0  0  0  0
    3.2069   88.7763  164.3282 C   0  0  1  0  0  0  0  0  0  0  0  0
   -0.9372   90.0163  163.1893 H   0  0  0  0  0  0  0  0  0  0  0  0
    0.2616   91.2482  163.4027 H   0  0  0  0  0  0  0  0  0  0  0  0
    2.1473   87.5799  159.6736 H   0  0  0  0  0  0  0  0  0  0  0  0
    4.6884   88.3354  157.3827 H   0  0  0  0  0  0  0  0  0  0  0  0
    3.1682   88.8433  157.6952 H   0  0  0  0  0  0  0  0  0  0  0  0
    4.2230   88.6206  158.9218 H   0  0  0  0  0  0  0  0  0  0  0  0
    3.3655   89.8979  161.8617 H   0  0  0  0  0  0  0  0  0  0  0  0
    4.8980   89.9806  162.4196 H   0  0  0  0  0  0  0  0  0  0  0  0
    4.5305   88.9726  161.1886 H   0  0  0  0  0  0  0  0  0  0  0  0
    5.0074   86.7456  163.9530 H   0  0  0  0  0  0  0  0  0  0  0  0
    5.5146   87.0871  162.4388 H   0  0  0  0  0  0  0  0  0  0  0  0
    5.8820   88.0952  163.6698 H   0  0  0  0  0  0  0  0  0  0  0  0
    4.9233   88.9312  165.5003 H   0  0  0  0  0  0  0  0  0  0  0  0
    4.5109   90.3379  164.7807 H   0  0  0  0  0  0  0  0  0  0  0  0
    3.6727   89.8080  166.0781 H   0  0  0  0  0  0  0  0  0  0  0  0
   -1.2357   88.3537  162.8693 H   0  0  0  0  0  0  0  0  0  0  0  0
   -1.2746   87.1468  163.9686 H   0  0  0  0  0  0  0  0  0  0  0  0
    7.5634   83.8400  159.6532 H   0  0  0  0  0  0  0  0  0  0  0  0
    7.0868   84.1869  157.3473 H   0  0  0  0  0  0  0  0  0  0  0  0
    6.1481   84.8200  161.3134 H   0  0  0  0  0  0  0  0  0  0  0  0
    5.2571   85.5359  156.6674 H   0  0  0  0  0  0  0  0  0  0  0  0
    4.3099   86.1741  160.6361 H   0  0  0  0  0  0  0  0  0  0  0  0
   -2.3333   85.5334  162.6781 H   0  0  0  0  0  0  0  0  0  0  0  0
   -0.3984   84.0106  159.3629 H   0  0  0  0  0  0  0  0  0  0  0  0
    1.1587   87.2854  161.3167 H   0  0  0  0  0  0  0  0  0  0  0  0
    3.1913   86.8951  165.1741 H   0  0  0  0  0  0  0  0  0  0  0  0
    2.3658   88.0024  166.0452 H   0  0  0  0  0  0  0  0  0  0  0  0
    3.1537   86.5225  157.2655 H   0  0  0  0  0  0  0  0  0  0  0  0
    3.2542   87.6367  162.5979 H   0  0  0  0  0  0  0  0  0  0  0  0
  1 25  1  0  0  0  0
  2 23  2  0  0  0  0
  3 24  2  0  0  0  0
  4 22  1  0  0  0  0
  5 23  1  0  0  0  0
  5 26  1  0  0  0  0
  6 22  2  0  0  0  0
  6 31  1  0  0  0  0
  7 12  1  0  0  0  0
  7 22  1  0  0  0  0
  7 24  1  0  0  0  0
  8 26  1  0  0  0  0
  9 27  1  0  0  0  0
 10 27  1  0  0  0  0
 11 31  1  0  0  0  0
 12 28  1  0  0  0  0
 13 14  2  0  0  0  0
 13 15  1  0  0  0  0
 14 16  1  0  0  0  0
 15 17  2  0  0  0  0
 16 29  2  0  0  0  0
 17 29  1  0  0  0  0
 18 25  2  0  0  0  0
 18 28  1  0  0  0  0
 19 25  1  0  0  0  0
 19 30  2  0  0  0  0
 20 28  2  0  0  0  0
 20 30  1  0  0  0  0
 21 24  1  0  0  0  0
 21 31  1  0  0  0  0
 23 30  1  0  0  0  0
 26 29  1  0  0  0  0
 27 31  1  0  0  0  0
  4 32  1  0  0  0  0
  4 33  1  0  0  0  0
  5 34  1  0  0  0  0
  8 35  1  0  0  0  0
  8 36  1  0  0  0  0
  8 37  1  0  0  0  0
  9 38  1  0  0  0  0
  9 39  1  0  0  0  0
  9 40  1  0  0  0  0
 10 41  1  0  0  0  0
 10 42  1  0  0  0  0
 10 43  1  0  0  0  0
 11 44  1  0  0  0  0
 11 45  1  0  0  0  0
 11 46  1  0  0  0  0
 12 47  1  0  0  0  0
 12 48  1  0  0  0  0
 13 49  1  0  0  0  0
 14 50  1  0  0  0  0
 15 51  1  0  0  0  0
 16 52  1  0  0  0  0
 17 53  1  0  0  0  0
 18 54  1  0  0  0  0
 19 55  1  0  0  0  0
 20 56  1  0  0  0  0
 21 57  1  0  0  0  0
 21 58  1  0  0  0  0
 26 59  1  0  0  0  0
 27 60  1  0  0  0  0
M  END
> <pdb_id>
4S1G

> <uniprot_id>
P00797

> <usmiles>
Fc1cc(cc(c1)CN2C(=N[C@](C(C)C)(CC2=O)C)N)C(=O)N[C@H](c3ccccc3)C

$$$$
43U_A_201
          07202405143D 1   1.00000     0.00000     0
            
 29 31  0  0  0  0            999 V2000
    4.3130   16.8095    9.9847 Br  0  0  0  0  0  0  0  0  0  0  0  0
    2.0160   11.4007    9.1832 O   0  0  0  0  0  0  0  0  0  0  0  0
   -1.2412   14.3164   13.6363 N   0  0  0  0  0  0  0  0  0  0  0  0
   -2.4877   11.4160   10.1510 N   0  0  0  0  0  0  0  0  0  0  0  0
   -0.6260   11.6091    9.0253 N   0  0  0  0  0  0  0  0  0  0  0  0
   -1.9373   12.8704   11.9966 N   0  0  0  0  0  0  0  0  0  0  0  0
    0.1566   13.8345   11.8812 N   0  0  0  0  0  0  0  0  0  0  0  0
    2.7845   10.3077    8.6128 C   0  0  0  0  0  0  0  0  0  0  0  0
   -1.8355   11.0546    9.0435 C   0  0  0  0  0  0  0  0  0  0  0  0
    4.2206   14.2541    8.8661 C   0  0  0  0  0  0  0  0  0  0  0  0
    3.7115   12.9766    8.6736 C   0  0  0  0  0  0  0  0  0  0  0  0
    2.3413   14.8459   10.3128 C   0  0  0  0  0  0  0  0  0  0  0  0
   -1.0197   13.6482   12.4916 C   0  0  0  0  0  0  0  0  0  0  0  0
    3.5363   15.1242    9.6861 C   0  0  0  0  0  0  0  0  0  0  0  0
    2.5240   12.6480    9.2826 C   0  0  0  0  0  0  0  0  0  0  0  0
   -1.6659   12.2510   10.8396 C   0  0  0  0  0  0  0  0  0  0  0  0
   -0.4757   12.3987   10.1742 C   0  0  0  0  0  0  0  0  0  0  0  0
    0.5223   13.1875   10.7225 C   0  0  0  0  0  0  0  0  0  0  0  0
    1.7960   13.5291   10.1329 C   0  0  0  0  0  0  0  0  0  0  0  0
   -0.5321   14.9129   14.0123 H   0  0  0  0  0  0  0  0  0  0  0  0
   -2.1151   14.2170   14.1122 H   0  0  0  0  0  0  0  0  0  0  0  0
   -3.4060   11.1273   10.4221 H   0  0  0  0  0  0  0  0  0  0  0  0
    2.2368    9.4712    8.6285 H   0  0  0  0  0  0  0  0  0  0  0  0
    3.0282   10.5288    7.6685 H   0  0  0  0  0  0  0  0  0  0  0  0
    3.6176   10.1708    9.1487 H   0  0  0  0  0  0  0  0  0  0  0  0
   -2.2022   10.4552    8.3320 H   0  0  0  0  0  0  0  0  0  0  0  0
    5.0684   14.5373    8.4176 H   0  0  0  0  0  0  0  0  0  0  0  0
    4.1970   12.3119    8.1058 H   0  0  0  0  0  0  0  0  0  0  0  0
    1.8730   15.5319   10.8696 H   0  0  0  0  0  0  0  0  0  0  0  0
  1 14  1  0  0  0  0
  2  8  1  0  0  0  0
  2 15  1  0  0  0  0
  3 13  1  0  0  0  0
  4  9  1  0  0  0  0
  4 16  1  0  0  0  0
  5  9  2  0  0  0  0
  5 17  1  0  0  0  0
  6 13  2  0  0  0  0
  6 16  1  0  0  0  0
  7 13  1  0  0  0  0
  7 18  2  0  0  0  0
 10 11  1  0  0  0  0
 10 14  2  0  0  0  0
 11 15  2  0  0  0  0
 12 14  1  0  0  0  0
 12 19  2  0  0  0  0
 15 19  1  0  0  0  0
 16 17  2  0  0  0  0
 17 18  1  0  0  0  0
 18 19  1  0  0  0  0
  3 20  1  0  0  0  0
  3 21  1  0  0  0  0
  4 22  1  0  0  0  0
  8 23  1  0  0  0  0
  8 24  1  0  0  0  0
  8 25  1  0  0  0  0
  9 26  1  0  0  0  0
 10 27  1  0  0  0  0
 11 28  1  0  0  0  0
 12 29  1  0  0  0  0
M  END
> <pdb_id>
4XY8

> <uniprot_id>
Q9H8M2

> <usmiles>
Brc1cc(c(OC)cc1)c2nc(nc3NC=Nc32)N

$$$$
43U_A_202
          07212401333D 1   1.00000     0.00000     0
            
 29 31  0  0  0  0            999 V2000
  -12.2842  -19.7463  -16.4370 Br  0  0  0  0  0  0  0  0  0  0  0  0
  -14.4667  -18.4737  -21.8922 O   0  0  0  0  0  0  0  0  0  0  0  0
  -14.2489  -24.6705  -21.0617 N   0  0  0  0  0  0  0  0  0  0  0  0
  -17.4679  -21.8681  -23.1585 N   0  0  0  0  0  0  0  0  0  0  0  0
  -16.6695  -19.9709  -22.1705 N   0  0  0  0  0  0  0  0  0  0  0  0
  -15.8485  -23.4721  -22.2385 N   0  0  0  0  0  0  0  0  0  0  0  0
  -14.2162  -22.3152  -20.6651 N   0  0  0  0  0  0  0  0  0  0  0  0
  -14.3770  -17.1047  -22.4292 C   0  0  0  0  0  0  0  0  0  0  0  0
  -17.6284  -20.5031  -22.9910 C   0  0  0  0  0  0  0  0  0  0  0  0
  -12.9176  -17.9595  -18.5743 C   0  0  0  0  0  0  0  0  0  0  0  0
  -13.4140  -17.6174  -19.8332 C   0  0  0  0  0  0  0  0  0  0  0  0
  -13.6593  -20.2561  -18.8228 C   0  0  0  0  0  0  0  0  0  0  0  0
  -14.7995  -23.4665  -21.3549 C   0  0  0  0  0  0  0  0  0  0  0  0
  -13.0550  -19.2467  -18.1490 C   0  0  0  0  0  0  0  0  0  0  0  0
  -14.0543  -18.6464  -20.6213 C   0  0  0  0  0  0  0  0  0  0  0  0
  -16.3501  -22.2416  -22.4056 C   0  0  0  0  0  0  0  0  0  0  0  0
  -15.8706  -21.0448  -21.7967 C   0  0  0  0  0  0  0  0  0  0  0  0
  -14.7631  -21.1364  -20.9037 C   0  0  0  0  0  0  0  0  0  0  0  0
  -14.1944  -19.9603  -20.1226 C   0  0  0  0  0  0  0  0  0  0  0  0
  -13.4811  -24.7271  -20.4235 H   0  0  0  0  0  0  0  0  0  0  0  0
  -14.6107  -25.5018  -21.4836 H   0  0  0  0  0  0  0  0  0  0  0  0
  -18.0418  -22.4716  -23.7122 H   0  0  0  0  0  0  0  0  0  0  0  0
  -14.7073  -17.0946  -23.3731 H   0  0  0  0  0  0  0  0  0  0  0  0
  -14.9378  -16.4912  -21.8733 H   0  0  0  0  0  0  0  0  0  0  0  0
  -13.4252  -16.7991  -22.4059 H   0  0  0  0  0  0  0  0  0  0  0  0
  -18.3579  -19.9692  -23.4183 H   0  0  0  0  0  0  0  0  0  0  0  0
  -12.4712  -17.2753  -17.9976 H   0  0  0  0  0  0  0  0  0  0  0  0
  -13.3288  -16.6838  -20.1813 H   0  0  0  0  0  0  0  0  0  0  0  0
  -13.7298  -21.1728  -18.4295 H   0  0  0  0  0  0  0  0  0  0  0  0
  1 14  1  0  0  0  0
  2  8  1  0  0  0  0
  2 15  1  0  0  0  0
  3 13  1  0  0  0  0
  4  9  1  0  0  0  0
  4 16  1  0  0  0  0
  5  9  2  0  0  0  0
  5 17  1  0  0  0  0
  6 13  2  0  0  0  0
  6 16  1  0  0  0  0
  7 13  1  0  0  0  0
  7 18  2  0  0  0  0
 10 11  1  0  0  0  0
 10 14  2  0  0  0  0
 11 15  2  0  0  0  0
 12 14  1  0  0  0  0
 12 19  2  0  0  0  0
 15 19  1  0  0  0  0
 16 17  2  0  0  0  0
 17 18  1  0  0  0  0
 18 19  1  0  0  0  0
  3 20  1  0  0  0  0
  3 21  1  0  0  0  0
  4 22  1  0  0  0  0
  8 23  1  0  0  0  0
  8 24  1  0  0  0  0
  8 25  1  0  0  0  0
  9 26  1  0  0  0  0
 10 27  1  0  0  0  0
 11 28  1  0  0  0  0
 12 29  1  0  0  0  0
M  END
> <pdb_id>
4XY9

> <uniprot_id>
O60885

> <usmiles>
Brc1cc(c(OC)cc1)c2nc(nc3NC=Nc32)N

$$$$
44F_B_808
          07192416263D 1   1.00000     0.00000     0
            
 43 44  0  0  0  0            999 V2000
  -36.9122   14.8768    7.2609 Cl  0  0  0  0  0  0  0  0  0  0  0  0
  -44.8297   17.7136   16.1196 S   0  0  0  0  0  0  0  0  0  0  0  0
  -45.1872   14.1422   13.2891 O   0  0  0  0  0  0  0  0  0  0  0  0
  -41.6739   16.7050    7.1183 O   0  0  0  0  0  0  0  0  0  0  0  0
  -41.6230   11.4563    8.5762 N   0  0  0  0  0  0  0  0  0  0  0  0
  -43.3753   13.2848   12.2566 N   0  0  0  0  0  0  0  0  0  0  0  0
  -43.1407   15.0107   13.7877 N   0  0  0  0  0  0  0  0  0  0  0  0
  -41.1753   18.0311    7.2115 C   0  0  0  0  0  0  0  0  0  0  0  0
  -43.1375   17.8287   16.0674 C   0  0  0  0  0  0  0  0  0  0  0  0
  -44.8431   16.3708   15.0800 C   0  0  0  0  0  0  0  0  0  0  0  0
  -42.6581   12.2735    9.2127 C   0  0  0  0  0  0  0  0  0  0  0  0
  -44.1223   12.4857   11.2963 C   0  0  0  0  0  0  0  0  0  0  0  0
  -41.2315   11.9320    7.2452 C   0  0  0  0  0  0  0  0  0  0  0  0
  -43.2214   11.6063   10.4500 C   0  0  0  0  0  0  0  0  0  0  0  0
  -42.5946   16.8815   15.2703 C   0  0  0  0  0  0  0  0  0  0  0  0
  -39.4105   15.8303    7.1607 C   0  0  0  0  0  0  0  0  0  0  0  0
  -39.1875   13.4352    7.2736 C   0  0  0  0  0  0  0  0  0  0  0  0
  -41.3654   14.4253    7.1406 C   0  0  0  0  0  0  0  0  0  0  0  0
  -38.6354   14.6994    7.2343 C   0  0  0  0  0  0  0  0  0  0  0  0
  -43.9776   14.1421   13.0992 C   0  0  0  0  0  0  0  0  0  0  0  0
  -40.7804   15.6748    7.1199 C   0  0  0  0  0  0  0  0  0  0  0  0
  -43.5694   16.0205   14.6820 C   0  0  0  0  0  0  0  0  0  0  0  0
  -40.5732   13.2900    7.2260 C   0  0  0  0  0  0  0  0  0  0  0  0
  -41.9681   10.5218    8.4886 H   0  0  0  0  0  0  0  0  0  0  0  0
  -42.3801   13.1930   12.2908 H   0  0  0  0  0  0  0  0  0  0  0  0
  -42.1564   14.9149   13.6398 H   0  0  0  0  0  0  0  0  0  0  0  0
  -41.9394   18.6761    7.1987 H   0  0  0  0  0  0  0  0  0  0  0  0
  -40.6648   18.1361    8.0649 H   0  0  0  0  0  0  0  0  0  0  0  0
  -40.5707   18.2151    6.4366 H   0  0  0  0  0  0  0  0  0  0  0  0
  -42.6064   18.5139   16.5658 H   0  0  0  0  0  0  0  0  0  0  0  0
  -45.6726   15.8925   14.7916 H   0  0  0  0  0  0  0  0  0  0  0  0
  -43.4002   12.4222    8.5591 H   0  0  0  0  0  0  0  0  0  0  0  0
  -42.2611   13.1539    9.4722 H   0  0  0  0  0  0  0  0  0  0  0  0
  -44.6297   13.1006   10.6927 H   0  0  0  0  0  0  0  0  0  0  0  0
  -44.7642   11.9026   11.7942 H   0  0  0  0  0  0  0  0  0  0  0  0
  -42.0530   11.9765    6.6768 H   0  0  0  0  0  0  0  0  0  0  0  0
  -40.5913   11.2705    6.8545 H   0  0  0  0  0  0  0  0  0  0  0  0
  -42.4546   11.3088   11.0187 H   0  0  0  0  0  0  0  0  0  0  0  0
  -43.7500   10.8088   10.1593 H   0  0  0  0  0  0  0  0  0  0  0  0
  -41.6116   16.7931   15.1093 H   0  0  0  0  0  0  0  0  0  0  0  0
  -38.9945   16.7393    7.1375 H   0  0  0  0  0  0  0  0  0  0  0  0
  -38.5983   12.6296    7.3358 H   0  0  0  0  0  0  0  0  0  0  0  0
  -42.3605   14.3382    7.0941 H   0  0  0  0  0  0  0  0  0  0  0  0
  1 19  1  0  0  0  0
  2  9  1  0  0  0  0
  2 10  1  0  0  0  0
  3 20  2  0  0  0  0
  4  8  1  0  0  0  0
  4 21  1  0  0  0  0
  5 11  1  0  0  0  0
  5 13  1  0  0  0  0
  6 12  1  0  0  0  0
  6 20  1  0  0  0  0
  7 20  1  0  0  0  0
  7 22  1  0  0  0  0
  9 15  2  0  0  0  0
 10 22  2  0  0  0  0
 11 14  1  0  0  0  0
 12 14  1  0  0  0  0
 13 23  1  0  0  0  0
 15 22  1  0  0  0  0
 16 19  2  0  0  0  0
 16 21  1  0  0  0  0
 17 19  1  0  0  0  0
 17 23  2  0  0  0  0
 18 21  2  0  0  0  0
 18 23  1  0  0  0  0
  5 24  1  0  0  0  0
  6 25  1  0  0  0  0
  7 26  1  0  0  0  0
  8 27  1  0  0  0  0
  8 28  1  0  0  0  0
  8 29  1  0  0  0  0
  9 30  1  0  0  0  0
 10 31  1  0  0  0  0
 11 32  1  0  0  0  0
 11 33  1  0  0  0  0
 12 34  1  0  0  0  0
 12 35  1  0  0  0  0
 13 36  1  0  0  0  0
 13 37  1  0  0  0  0
 14 38  1  0  0  0  0
 14 39  1  0  0  0  0
 15 40  1  0  0  0  0
 16 41  1  0  0  0  0
 17 42  1  0  0  0  0
 18 43  1  0  0  0  0
M  END
> <pdb_id>
4MW1

> <uniprot_id>
Q38C91

> <usmiles>
Clc1cc(OC)cc(c1)CNCCCNC(=O)NC2=CSC=C2

$$$$
44K_A_301
          07192415263D 1   1.00000     0.00000     0
            
 67 71  0  0  0  0            999 V2000
   -3.4598   -8.5478   15.6733 S   0  0  0  0  0  0  0  0  0  0  0  0
   -4.0947   -4.9605    6.2647 S   0  0  0  0  0  0  0  0  0  0  0  0
   -5.3007   -5.3820    5.6114 O   0  0  0  0  0  0  0  0  0  0  0  0
   -3.0193   -4.8767    5.3041 O   0  0  0  0  0  0  0  0  0  0  0  0
    0.9261   -8.8343   14.5424 O   0  0  0  0  0  0  0  0  0  0  0  0
   -5.6831   -5.8940    8.4828 O   0  0  0  0  0  0  0  0  0  0  0  0
   -6.2756   -1.1540   15.1076 N   0  0  0  0  0  0  0  0  0  0  0  0
   -4.3520   -3.5044    6.8767 N   0  0  0  0  0  0  0  0  0  0  0  0
   -3.6955   -5.9981    7.4237 N   0  0  0  0  0  0  0  0  0  0  0  0
   -7.8428   -0.9739   13.3651 N   0  0  0  0  0  0  0  0  0  0  0  0
   -7.1954   -0.4576   11.1743 N   0  0  0  0  0  0  0  0  0  0  0  0
   -4.2304   -0.5055   12.9947 N   0  0  0  0  0  0  0  0  0  0  0  0
   -0.5592  -10.3400   15.3381 N   0  0  0  0  0  0  0  0  0  0  0  0
   -1.0836   -9.1965   13.5534 N   0  0  0  0  0  0  0  0  0  0  0  0
   -4.7765   -0.1389   10.9017 N   0  0  0  0  0  0  0  0  0  0  0  0
   -2.7045   -9.9953   16.3116 C   0  0  0  0  0  0  0  0  0  0  0  0
   -8.1413   -0.7501   12.0777 C   0  0  0  0  0  0  0  0  0  0  0  0
   -3.7570   -0.2069   11.7681 C   0  0  0  0  0  0  0  0  0  0  0  0
   -3.3882   -2.8365    7.7294 C   0  0  0  0  0  0  0  0  0  0  0  0
   -3.7397   -8.3158   11.5788 C   0  0  0  0  0  0  0  0  0  0  0  0
   -4.0548   -7.1472   10.6458 C   0  0  0  0  0  0  0  0  0  0  0  0
   -3.4196   -7.8436   12.9955 C   0  0  0  0  0  0  0  0  0  0  0  0
   -4.1891   -7.5899    9.1918 C   0  0  0  0  0  0  0  0  0  0  0  0
   -3.2289    0.5843    9.1645 C   0  0  0  0  0  0  0  0  0  0  0  0
   -2.5988   -0.4849    8.2821 C   0  0  0  0  0  0  0  0  0  0  0  0
   -4.9288   -1.0984    8.6405 C   0  0  0  0  0  0  0  0  0  0  0  0
   -0.1526   -9.4137   14.4778 C   0  0  0  0  0  0  0  0  0  0  0  0
   -3.4894   -9.0122   13.9732 C   0  0  1  0  0  0  0  0  0  0  0  0
   -4.5861   -6.4105    8.3319 C   0  0  0  0  0  0  0  0  0  0  0  0
   -6.5692   -0.9242   13.8032 C   0  0  0  0  0  0  0  0  0  0  0  0
   -5.9029   -0.3988   11.5653 C   0  0  0  0  0  0  0  0  0  0  0  0
   -1.9628  -10.6262   15.1502 C   0  0  1  0  0  0  0  0  0  0  0  0
   -4.6624    0.1629    9.4546 C   0  0  1  0  0  0  0  0  0  0  0  0
   -5.5683   -0.6265   12.8897 C   0  0  0  0  0  0  0  0  0  0  0  0
   -2.2925   -9.9404   13.8280 C   0  0  2  0  0  0  0  0  0  0  0  0
   -3.7277   -1.3493    7.7346 C   0  0  2  0  0  0  0  0  0  0  0  0
   -5.3269   -1.1144   15.4211 H   0  0  0  0  0  0  0  0  0  0  0  0
   -7.0080   -1.3631   15.7556 H   0  0  0  0  0  0  0  0  0  0  0  0
   -5.1950   -3.5724    7.4104 H   0  0  0  0  0  0  0  0  0  0  0  0
   -2.7583   -6.3441    7.4672 H   0  0  0  0  0  0  0  0  0  0  0  0
    0.0250  -10.7786   16.0211 H   0  0  0  0  0  0  0  0  0  0  0  0
   -0.9624   -8.5930   12.7653 H   0  0  0  0  0  0  0  0  0  0  0  0
   -3.3987  -10.6235   16.6629 H   0  0  0  0  0  0  0  0  0  0  0  0
   -2.0663   -9.7599   17.0447 H   0  0  0  0  0  0  0  0  0  0  0  0
   -9.0955   -0.8028   11.7832 H   0  0  0  0  0  0  0  0  0  0  0  0
   -2.7945   -0.0592   11.5404 H   0  0  0  0  0  0  0  0  0  0  0  0
   -2.4644   -2.9740    7.3723 H   0  0  0  0  0  0  0  0  0  0  0  0
   -3.4443   -3.2020    8.6585 H   0  0  0  0  0  0  0  0  0  0  0  0
   -2.9511   -8.8138   11.2182 H   0  0  0  0  0  0  0  0  0  0  0  0
   -4.5318   -8.9252   11.6125 H   0  0  0  0  0  0  0  0  0  0  0  0
   -3.3171   -6.4752   10.7109 H   0  0  0  0  0  0  0  0  0  0  0  0
   -4.9149   -6.7270   10.9351 H   0  0  0  0  0  0  0  0  0  0  0  0
   -4.0821   -7.1459   13.2680 H   0  0  0  0  0  0  0  0  0  0  0  0
   -2.4988   -7.4539   13.0129 H   0  0  0  0  0  0  0  0  0  0  0  0
   -4.8893   -8.3006    9.1245 H   0  0  0  0  0  0  0  0  0  0  0  0
   -3.3136   -7.9533    8.8732 H   0  0  0  0  0  0  0  0  0  0  0  0
   -3.2225    1.4644    8.6897 H   0  0  0  0  0  0  0  0  0  0  0  0
   -2.7178    0.6636   10.0204 H   0  0  0  0  0  0  0  0  0  0  0  0
   -1.9699   -1.0454    8.8210 H   0  0  0  0  0  0  0  0  0  0  0  0
   -2.1007   -0.0559    7.5285 H   0  0  0  0  0  0  0  0  0  0  0  0
   -5.7509   -0.9743    8.0848 H   0  0  0  0  0  0  0  0  0  0  0  0
   -5.0564   -1.8766    9.2555 H   0  0  0  0  0  0  0  0  0  0  0  0
   -4.3246   -9.5324   13.7952 H   0  0  0  0  0  0  0  0  0  0  0  0
   -2.1309  -11.6108   15.1020 H   0  0  0  0  0  0  0  0  0  0  0  0
   -5.3004    0.8884    9.1963 H   0  0  0  0  0  0  0  0  0  0  0  0
   -2.4583  -10.6185   13.1120 H   0  0  0  0  0  0  0  0  0  0  0  0
   -3.9476   -1.0564    6.8040 H   0  0  0  0  0  0  0  0  0  0  0  0
  1 16  1  0  0  0  0
  1 28  1  0  0  0  0
  2  3  2  0  0  0  0
  2  4  2  0  0  0  0
  2  8  1  0  0  0  0
  2  9  1  0  0  0  0
  5 27  2  0  0  0  0
  6 29  2  0  0  0  0
  7 30  1  0  0  0  0
  8 19  1  0  0  0  0
  9 29  1  0  0  0  0
 10 17  1  0  0  0  0
 10 30  2  0  0  0  0
 11 17  2  0  0  0  0
 11 31  1  0  0  0  0
 12 18  2  0  0  0  0
 12 34  1  0  0  0  0
 13 27  1  0  0  0  0
 13 32  1  0  0  0  0
 14 27  1  0  0  0  0
 14 35  1  0  0  0  0
 15 18  1  0  0  0  0
 15 31  1  0  0  0  0
 15 33  1  0  0  0  0
 16 32  1  0  0  0  0
 19 36  1  0  0  0  0
 20 21  1  0  0  0  0
 20 22  1  0  0  0  0
 21 23  1  0  0  0  0
 22 28  1  0  0  0  0
 23 29  1  0  0  0  0
 24 25  1  0  0  0  0
 24 33  1  0  0  0  0
 25 36  1  0  0  0  0
 26 33  1  0  0  0  0
 26 36  1  0  0  0  0
 28 35  1  0  0  0  0
 30 34  1  0  0  0  0
 31 34  2  0  0  0  0
 32 35  1  0  0  0  0
  7 37  1  0  0  0  0
  7 38  1  0  0  0  0
  8 39  1  0  0  0  0
  9 40  1  0  0  0  0
 13 41  1  0  0  0  0
 14 42  1  0  0  0  0
 16 43  1  0  0  0  0
 16 44  1  0  0  0  0
 17 45  1  0  0  0  0
 18 46  1  0  0  0  0
 19 47  1  0  0  0  0
 19 48  1  0  0  0  0
 20 49  1  0  0  0  0
 20 50  1  0  0  0  0
 21 51  1  0  0  0  0
 21 52  1  0  0  0  0
 22 53  1  0  0  0  0
 22 54  1  0  0  0  0
 23 55  1  0  0  0  0
 23 56  1  0  0  0  0
 24 57  1  0  0  0  0
 24 58  1  0  0  0  0
 25 59  1  0  0  0  0
 25 60  1  0  0  0  0
 26 61  1  0  0  0  0
 26 62  1  0  0  0  0
 28 63  1  0  0  0  0
 32 64  1  0  0  0  0
 33 65  1  0  0  0  0
 35 66  1  0  0  0  0
 36 67  1  0  0  0  0
M  END
> <pdb_id>
4XTV

> <uniprot_id>
nan

> <usmiles>
S(=O)(=O)(NC(=O)CCCC[C@@H]1SC[C@@H]2NC(=O)N[C@@H]21)NC[C@H]3C[C@@H](N4c5ncnc(N)c5N=C4)CC3

$$$$
44L_A_301
          07192415263D 1   1.00000     0.00000     0
            
 66 70  0  0  0  0            999 V2000
   -3.3943   -8.5809   15.6946 S   0  0  0  0  0  0  0  0  0  0  0  0
   -4.1500   -4.9589    6.3345 S   0  0  0  0  0  0  0  0  0  0  0  0
   -3.7227    1.4840    7.7780 F   0  0  0  0  0  0  0  0  0  0  0  0
   -5.3635   -5.3322    5.6550 O   0  0  0  0  0  0  0  0  0  0  0  0
   -3.0762   -4.8182    5.3931 O   0  0  0  0  0  0  0  0  0  0  0  0
    0.9359   -8.8755   14.5653 O   0  0  0  0  0  0  0  0  0  0  0  0
   -5.7004   -5.9178    8.4630 O   0  0  0  0  0  0  0  0  0  0  0  0
   -1.7069   -0.1330    7.3103 O   0  0  0  0  0  0  0  0  0  0  0  0
   -4.8307   -1.1597    8.6949 O   0  0  0  0  0  0  0  0  0  0  0  0
   -6.3187   -1.1255   14.9864 N   0  0  0  0  0  0  0  0  0  0  0  0
   -4.4207   -3.5622    7.0726 N   0  0  0  0  0  0  0  0  0  0  0  0
   -3.7354   -6.0486    7.4450 N   0  0  0  0  0  0  0  0  0  0  0  0
   -7.8534   -0.8772   13.2317 N   0  0  0  0  0  0  0  0  0  0  0  0
   -7.1680   -0.3770   11.0519 N   0  0  0  0  0  0  0  0  0  0  0  0
   -4.1968   -0.5395   12.8763 N   0  0  0  0  0  0  0  0  0  0  0  0
   -0.6027  -10.3347   15.3886 N   0  0  0  0  0  0  0  0  0  0  0  0
   -1.0685   -9.2472   13.5454 N   0  0  0  0  0  0  0  0  0  0  0  0
   -4.7501   -0.1422   10.7937 N   0  0  0  0  0  0  0  0  0  0  0  0
   -2.8685  -10.1627   16.2653 C   0  0  0  0  0  0  0  0  0  0  0  0
   -8.1403   -0.6350   11.9449 C   0  0  0  0  0  0  0  0  0  0  0  0
   -3.7094   -0.2614   11.6420 C   0  0  0  0  0  0  0  0  0  0  0  0
   -3.3182   -2.8159    7.6511 C   0  0  0  0  0  0  0  0  0  0  0  0
   -3.8062   -8.3643   11.6125 C   0  0  0  0  0  0  0  0  0  0  0  0
   -4.0949   -7.2095   10.6561 C   0  0  0  0  0  0  0  0  0  0  0  0
   -3.5823   -7.8782   13.0354 C   0  0  0  0  0  0  0  0  0  0  0  0
   -4.2559   -7.6607    9.2098 C   0  0  0  0  0  0  0  0  0  0  0  0
   -3.5087   -9.0596   13.9990 C   0  0  1  0  0  0  0  0  0  0  0  0
   -0.1524   -9.4470   14.4995 C   0  0  0  0  0  0  0  0  0  0  0  0
   -4.6320   -6.4727    8.3319 C   0  0  0  0  0  0  0  0  0  0  0  0
   -3.4027    0.7164    8.8735 C   0  0  2  0  0  0  0  0  0  0  0  0
   -2.6315   -0.4767    8.3521 C   0  0  1  0  0  0  0  0  0  0  0  0
   -4.7209    0.1182    9.3471 C   0  0  1  0  0  0  0  0  0  0  0  0
   -6.5758   -0.8724   13.6794 C   0  0  0  0  0  0  0  0  0  0  0  0
   -3.7341   -1.3580    7.7979 C   0  0  2  0  0  0  0  0  0  0  0  0
   -5.8807   -0.3763   11.4596 C   0  0  0  0  0  0  0  0  0  0  0  0
   -1.9817  -10.6931   15.1311 C   0  0  1  0  0  0  0  0  0  0  0  0
   -2.2982   -9.9798   13.8047 C   0  0  2  0  0  0  0  0  0  0  0  0
   -5.5495   -0.6116   12.7761 C   0  0  0  0  0  0  0  0  0  0  0  0
   -1.2275   -0.9558    7.0052 H   0  0  0  0  0  0  0  0  0  0  0  0
   -5.3761   -1.1227   15.3203 H   0  0  0  0  0  0  0  0  0  0  0  0
   -7.0717   -1.3151   15.6165 H   0  0  0  0  0  0  0  0  0  0  0  0
   -5.0628   -3.7493    7.8160 H   0  0  0  0  0  0  0  0  0  0  0  0
   -2.8022   -6.4073    7.4682 H   0  0  0  0  0  0  0  0  0  0  0  0
   -0.0559  -10.7061   16.1390 H   0  0  0  0  0  0  0  0  0  0  0  0
   -0.9248   -8.6624   12.7470 H   0  0  0  0  0  0  0  0  0  0  0  0
   -3.6526  -10.7651   16.4143 H   0  0  0  0  0  0  0  0  0  0  0  0
   -2.3467  -10.0785   17.1142 H   0  0  0  0  0  0  0  0  0  0  0  0
   -9.0938   -0.6462   11.6436 H   0  0  0  0  0  0  0  0  0  0  0  0
   -2.7437   -0.1618   11.4022 H   0  0  0  0  0  0  0  0  0  0  0  0
   -2.5195   -2.8787    7.0526 H   0  0  0  0  0  0  0  0  0  0  0  0
   -3.0921   -3.1928    8.5493 H   0  0  0  0  0  0  0  0  0  0  0  0
   -2.9858   -8.8442   11.3018 H   0  0  0  0  0  0  0  0  0  0  0  0
   -4.5836   -8.9933   11.6041 H   0  0  0  0  0  0  0  0  0  0  0  0
   -3.3372   -6.5586   10.7045 H   0  0  0  0  0  0  0  0  0  0  0  0
   -4.9398   -6.7596   10.9455 H   0  0  0  0  0  0  0  0  0  0  0  0
   -4.3398   -7.2824   13.3025 H   0  0  0  0  0  0  0  0  0  0  0  0
   -2.7246   -7.3658   13.0769 H   0  0  0  0  0  0  0  0  0  0  0  0
   -4.9759   -8.3527    9.1569 H   0  0  0  0  0  0  0  0  0  0  0  0
   -3.3938   -8.0514    8.8868 H   0  0  0  0  0  0  0  0  0  0  0  0
   -4.3378   -9.6070   13.8850 H   0  0  0  0  0  0  0  0  0  0  0  0
   -2.9173    1.2231    9.5860 H   0  0  0  0  0  0  0  0  0  0  0  0
   -2.1573   -0.9401    9.1008 H   0  0  0  0  0  0  0  0  0  0  0  0
   -5.4843    0.7086    9.0850 H   0  0  0  0  0  0  0  0  0  0  0  0
   -3.9947   -1.0106    6.8972 H   0  0  0  0  0  0  0  0  0  0  0  0
   -2.0805  -11.6835   15.0353 H   0  0  0  0  0  0  0  0  0  0  0  0
   -2.4730  -10.6450   13.0787 H   0  0  0  0  0  0  0  0  0  0  0  0
  1 19  1  0  0  0  0
  1 27  1  0  0  0  0
  2  4  2  0  0  0  0
  2  5  2  0  0  0  0
  2 11  1  0  0  0  0
  2 12  1  0  0  0  0
  3 30  1  0  0  0  0
  6 28  2  0  0  0  0
  7 29  2  0  0  0  0
  8 31  1  0  0  0  0
  9 32  1  0  0  0  0
  9 34  1  0  0  0  0
 10 33  1  0  0  0  0
 11 22  1  0  0  0  0
 12 29  1  0  0  0  0
 13 20  1  0  0  0  0
 13 33  2  0  0  0  0
 14 20  2  0  0  0  0
 14 35  1  0  0  0  0
 15 21  2  0  0  0  0
 15 38  1  0  0  0  0
 16 28  1  0  0  0  0
 16 36  1  0  0  0  0
 17 28  1  0  0  0  0
 17 37  1  0  0  0  0
 18 21  1  0  0  0  0
 18 32  1  0  0  0  0
 18 35  1  0  0  0  0
 19 36  1  0  0  0  0
 22 34  1  0  0  0  0
 23 24  1  0  0  0  0
 23 25  1  0  0  0  0
 24 26  1  0  0  0  0
 25 27  1  0  0  0  0
 26 29  1  0  0  0  0
 27 37  1  0  0  0  0
 30 31  1  0  0  0  0
 30 32  1  0  0  0  0
 31 34  1  0  0  0  0
 33 38  1  0  0  0  0
 35 38  2  0  0  0  0
 36 37  1  0  0  0  0
  8 39  1  0  0  0  0
 10 40  1  0  0  0  0
 10 41  1  0  0  0  0
 11 42  1  0  0  0  0
 12 43  1  0  0  0  0
 16 44  1  0  0  0  0
 17 45  1  0  0  0  0
 19 46  1  0  0  0  0
 19 47  1  0  0  0  0
 20 48  1  0  0  0  0
 21 49  1  0  0  0  0
 22 50  1  0  0  0  0
 22 51  1  0  0  0  0
 23 52  1  0  0  0  0
 23 53  1  0  0  0  0
 24 54  1  0  0  0  0
 24 55  1  0  0  0  0
 25 56  1  0  0  0  0
 25 57  1  0  0  0  0
 26 58  1  0  0  0  0
 26 59  1  0  0  0  0
 27 60  1  0  0  0  0
 30 61  1  0  0  0  0
 31 62  1  0  0  0  0
 32 63  1  0  0  0  0
 34 64  1  0  0  0  0
 36 65  1  0  0  0  0
 37 66  1  0  0  0  0
M  END
> <pdb_id>
4XTY

> <uniprot_id>
nan

> <usmiles>
S(=O)(=O)(NC(=O)CCCC[C@@H]1SC[C@@H]2NC(=O)N[C@@H]21)NC[C@H]3O[C@@H](N4c5ncnc(N)c5N=C4)[C@H](F)[C@@H]3O

$$$$
44N_A_301
          07192415263D 1   1.00000     0.00000     0
            
 69 73  0  0  0  0            999 V2000
   -3.4340   -8.6160   15.6640 S   0  0  0  0  0  0  0  0  0  0  0  0
   -4.0420   -4.9340    6.4100 S   0  0  0  0  0  0  0  0  0  0  0  0
   -5.2110   -5.3340    5.6800 O   0  0  0  0  0  0  0  0  0  0  0  0
   -2.9490   -4.8000    5.4880 O   0  0  0  0  0  0  0  0  0  0  0  0
    0.9880   -8.8630   14.5090 O   0  0  0  0  0  0  0  0  0  0  0  0
   -5.6770   -5.9280    8.5200 O   0  0  0  0  0  0  0  0  0  0  0  0
   -1.8320   -0.1090    7.1980 O   0  0  0  0  0  0  0  0  0  0  0  0
   -3.9550    1.3990    7.5320 O   0  0  0  0  0  0  0  0  0  0  0  0
   -4.3290   -3.5770    7.0640 O   0  0  0  0  0  0  0  0  0  0  0  0
   -4.9130   -1.1590    8.6480 O   0  0  0  0  0  0  0  0  0  0  0  0
   -6.2410   -1.2140   15.0380 N   0  0  0  0  0  0  0  0  0  0  0  0
   -3.6820   -6.0400    7.5070 N   0  0  0  0  0  0  0  0  0  0  0  0
   -7.8210   -0.8660   13.3430 N   0  0  0  0  0  0  0  0  0  0  0  0
   -7.1810   -0.3610   11.1560 N   0  0  0  0  0  0  0  0  0  0  0  0
   -4.1800   -0.6880   12.8780 N   0  0  0  0  0  0  0  0  0  0  0  0
   -0.4790  -10.3820   15.3120 N   0  0  0  0  0  0  0  0  0  0  0  0
   -1.0030   -9.2810   13.5090 N   0  0  0  0  0  0  0  0  0  0  0  0
   -4.7530   -0.2250   10.8030 N   0  0  0  0  0  0  0  0  0  0  0  0
   -2.7520    1.7420    9.5640 C   0  0  0  0  0  0  0  0  0  0  0  0
   -2.6230  -10.0170   16.3420 C   0  0  0  0  0  0  0  0  0  0  0  0
   -8.1300   -0.5920   12.0710 C   0  0  0  0  0  0  0  0  0  0  0  0
   -3.3840   -2.8950    7.8830 C   0  0  0  0  0  0  0  0  0  0  0  0
   -3.7160   -0.4080   11.6400 C   0  0  0  0  0  0  0  0  0  0  0  0
   -3.7220   -8.3490   11.6020 C   0  0  0  0  0  0  0  0  0  0  0  0
   -3.9680   -7.1740   10.6670 C   0  0  0  0  0  0  0  0  0  0  0  0
   -3.3330   -7.8770   12.9980 C   0  0  0  0  0  0  0  0  0  0  0  0
   -4.2040   -7.6430    9.2350 C   0  0  0  0  0  0  0  0  0  0  0  0
   -0.0720   -9.4700   14.4390 C   0  0  0  0  0  0  0  0  0  0  0  0
   -3.4340   -9.0580   13.9560 C   0  0  1  0  0  0  0  0  0  0  0  0
   -4.5880   -6.4550    8.3850 C   0  0  0  0  0  0  0  0  0  0  0  0
   -4.7630    0.0870    9.3440 C   0  0  1  0  0  0  0  0  0  0  0  0
   -6.5340   -0.9290   13.7440 C   0  0  0  0  0  0  0  0  0  0  0  0
   -2.6890   -0.4610    8.2860 C   0  0  2  0  0  0  0  0  0  0  0  0
   -3.7700   -1.4220    7.8210 C   0  0  2  0  0  0  0  0  0  0  0  0
   -5.8740   -0.4150   11.5050 C   0  0  0  0  0  0  0  0  0  0  0  0
   -1.8930  -10.6480   15.1660 C   0  0  1  0  0  0  0  0  0  0  0  0
   -2.2310   -9.9870   13.8270 C   0  0  2  0  0  0  0  0  0  0  0  0
   -5.5270   -0.7000   12.8130 C   0  0  0  0  0  0  0  0  0  0  0  0
   -3.5190    0.7280    8.7190 C   0  0  1  0  0  0  0  0  0  0  0  0
   -1.1270    0.5230    7.5199 H   0  0  0  0  0  0  0  0  0  0  0  0
   -4.4627    0.7593    6.9549 H   0  0  0  0  0  0  0  0  0  0  0  0
   -5.2876   -1.2609   15.3361 H   0  0  0  0  0  0  0  0  0  0  0  0
   -6.9785   -1.3771   15.6934 H   0  0  0  0  0  0  0  0  0  0  0  0
   -2.7597   -6.4256    7.5325 H   0  0  0  0  0  0  0  0  0  0  0  0
    0.1140  -10.8271   15.9830 H   0  0  0  0  0  0  0  0  0  0  0  0
   -0.8733   -8.7211   12.6906 H   0  0  0  0  0  0  0  0  0  0  0  0
   -2.4328    1.3026   10.4037 H   0  0  0  0  0  0  0  0  0  0  0  0
   -1.9668    2.0815    9.0461 H   0  0  0  0  0  0  0  0  0  0  0  0
   -3.3540    2.5061    9.7957 H   0  0  0  0  0  0  0  0  0  0  0  0
   -3.2877  -10.6564   16.7285 H   0  0  0  0  0  0  0  0  0  0  0  0
   -1.9751   -9.7402   17.0517 H   0  0  0  0  0  0  0  0  0  0  0  0
   -9.0913   -0.5590   11.7975 H   0  0  0  0  0  0  0  0  0  0  0  0
   -2.4576   -3.0276    7.5306 H   0  0  0  0  0  0  0  0  0  0  0  0
   -3.4335   -3.2289    8.8243 H   0  0  0  0  0  0  0  0  0  0  0  0
   -2.7509   -0.3464   11.3855 H   0  0  0  0  0  0  0  0  0  0  0  0
   -2.9828   -8.9109   11.2308 H   0  0  0  0  0  0  0  0  0  0  0  0
   -4.5571   -8.8956   11.6643 H   0  0  0  0  0  0  0  0  0  0  0  0
   -3.1702   -6.5714   10.6848 H   0  0  0  0  0  0  0  0  0  0  0  0
   -4.7729   -6.6708   10.9815 H   0  0  0  0  0  0  0  0  0  0  0  0
   -3.9531   -7.1500   13.2928 H   0  0  0  0  0  0  0  0  0  0  0  0
   -2.3948   -7.5310   12.9874 H   0  0  0  0  0  0  0  0  0  0  0  0
   -4.9417   -8.3179    9.2206 H   0  0  0  0  0  0  0  0  0  0  0  0
   -3.3673   -8.0560    8.8754 H   0  0  0  0  0  0  0  0  0  0  0  0
   -4.2668   -9.5727   13.7524 H   0  0  0  0  0  0  0  0  0  0  0  0
   -5.5555    0.6634    9.1446 H   0  0  0  0  0  0  0  0  0  0  0  0
   -2.1690   -0.8403    9.0513 H   0  0  0  0  0  0  0  0  0  0  0  0
   -4.0063   -1.1974    6.8756 H   0  0  0  0  0  0  0  0  0  0  0  0
   -2.0661  -11.6322   15.1287 H   0  0  0  0  0  0  0  0  0  0  0  0
   -2.4119  -10.6869   13.1361 H   0  0  0  0  0  0  0  0  0  0  0  0
  1 20  1  0  0  0  0
  1 29  1  0  0  0  0
  2  3  2  0  0  0  0
  2  4  2  0  0  0  0
  2  9  1  0  0  0  0
  2 12  1  0  0  0  0
  5 28  2  0  0  0  0
  6 30  2  0  0  0  0
  7 33  1  0  0  0  0
  8 39  1  0  0  0  0
  9 22  1  0  0  0  0
 10 31  1  0  0  0  0
 10 34  1  0  0  0  0
 11 32  1  0  0  0  0
 12 30  1  0  0  0  0
 13 21  1  0  0  0  0
 13 32  2  0  0  0  0
 14 21  2  0  0  0  0
 14 35  1  0  0  0  0
 15 23  2  0  0  0  0
 15 38  1  0  0  0  0
 16 28  1  0  0  0  0
 16 36  1  0  0  0  0
 17 28  1  0  0  0  0
 17 37  1  0  0  0  0
 18 23  1  0  0  0  0
 18 31  1  0  0  0  0
 18 35  1  0  0  0  0
 19 39  1  0  0  0  0
 20 36  1  0  0  0  0
 22 34  1  0  0  0  0
 24 25  1  0  0  0  0
 24 26  1  0  0  0  0
 25 27  1  0  0  0  0
 26 29  1  0  0  0  0
 27 30  1  0  0  0  0
 29 37  1  0  0  0  0
 31 39  1  0  0  0  0
 32 38  1  0  0  0  0
 33 34  1  0  0  0  0
 33 39  1  0  0  0  0
 35 38  2  0  0  0  0
 36 37  1  0  0  0  0
  7 40  1  0  0  0  0
  8 41  1  0  0  0  0
 11 42  1  0  0  0  0
 11 43  1  0  0  0  0
 12 44  1  0  0  0  0
 16 45  1  0  0  0  0
 17 46  1  0  0  0  0
 19 47  1  0  0  0  0
 19 48  1  0  0  0  0
 19 49  1  0  0  0  0
 20 50  1  0  0  0  0
 20 51  1  0  0  0  0
 21 52  1  0  0  0  0
 22 53  1  0  0  0  0
 22 54  1  0  0  0  0
 23 55  1  0  0  0  0
 24 56  1  0  0  0  0
 24 57  1  0  0  0  0
 25 58  1  0  0  0  0
 25 59  1  0  0  0  0
 26 60  1  0  0  0  0
 26 61  1  0  0  0  0
 27 62  1  0  0  0  0
 27 63  1  0  0  0  0
 29 64  1  0  0  0  0
 31 65  1  0  0  0  0
 33 66  1  0  0  0  0
 34 67  1  0  0  0  0
 36 68  1  0  0  0  0
 37 69  1  0  0  0  0
M  END
> <pdb_id>
4XU0

> <uniprot_id>
nan

> <usmiles>
S(=O)(=O)(OC[C@H]1O[C@@H](N2c3ncnc(N)c3N=C2)[C@](O)([C@@H]1O)C)NC(=O)CCCC[C@@H]4SC[C@@H]5NC(=O)N[C@@H]54

$$$$
44O_A_301
          07192415263D 1   1.00000     0.00000     0
            
 66 70  0  0  0  0            999 V2000
   -3.3830   -8.5733   15.6644 S   0  0  0  0  0  0  0  0  0  0  0  0
   -4.0801   -5.0060    6.2807 S   0  0  0  0  0  0  0  0  0  0  0  0
   -5.3759   -5.2024    5.6974 O   0  0  0  0  0  0  0  0  0  0  0  0
   -3.0926   -5.0050    5.2427 O   0  0  0  0  0  0  0  0  0  0  0  0
    1.0135   -8.8777   14.5710 O   0  0  0  0  0  0  0  0  0  0  0  0
   -5.6752   -5.9083    8.5234 O   0  0  0  0  0  0  0  0  0  0  0  0
   -4.1990   -3.6850    7.0075 O   0  0  0  0  0  0  0  0  0  0  0  0
   -4.1279   -1.4180    9.0609 O   0  0  0  0  0  0  0  0  0  0  0  0
   -6.3876   -1.1574   15.0812 N   0  0  0  0  0  0  0  0  0  0  0  0
   -3.7823   -6.1888    7.3264 N   0  0  0  0  0  0  0  0  0  0  0  0
   -2.8674    0.6546    7.7998 N   0  0  0  0  0  0  0  0  0  0  0  0
   -7.8505   -0.9546   13.2655 N   0  0  0  0  0  0  0  0  0  0  0  0
   -7.1164   -0.5202   11.0861 N   0  0  0  0  0  0  0  0  0  0  0  0
   -4.2065   -0.6042   13.0069 N   0  0  0  0  0  0  0  0  0  0  0  0
   -0.5360  -10.3124   15.4211 N   0  0  0  0  0  0  0  0  0  0  0  0
   -0.9631   -9.2496   13.5366 N   0  0  0  0  0  0  0  0  0  0  0  0
   -4.6702   -0.2738   10.9071 N   0  0  0  0  0  0  0  0  0  0  0  0
   -2.8184  -10.1513   16.2334 C   0  0  0  0  0  0  0  0  0  0  0  0
   -3.1064   -3.0573    7.6526 C   0  0  0  0  0  0  0  0  0  0  0  0
   -8.1003   -0.7576   11.9630 C   0  0  0  0  0  0  0  0  0  0  0  0
   -3.6765   -0.3687   11.7979 C   0  0  0  0  0  0  0  0  0  0  0  0
   -3.3812    0.9206    9.1276 C   0  0  0  0  0  0  0  0  0  0  0  0
   -2.4445   -0.6847    7.4612 C   0  0  0  0  0  0  0  0  0  0  0  0
   -3.7126   -8.3535   11.5502 C   0  0  0  0  0  0  0  0  0  0  0  0
   -4.0172   -7.1722   10.6265 C   0  0  0  0  0  0  0  0  0  0  0  0
   -3.4965   -7.9091   13.0008 C   0  0  0  0  0  0  0  0  0  0  0  0
   -4.1995   -7.6406    9.1819 C   0  0  0  0  0  0  0  0  0  0  0  0
   -0.0720   -9.4443   14.5089 C   0  0  0  0  0  0  0  0  0  0  0  0
   -3.4355   -9.0905   13.9678 C   0  0  1  0  0  0  0  0  0  0  0  0
   -4.6230   -6.4827    8.3048 C   0  0  0  0  0  0  0  0  0  0  0  0
   -4.4857   -0.0788    9.4584 C   0  0  1  0  0  0  0  0  0  0  0  0
   -3.6011   -1.6227    7.7499 C   0  0  2  0  0  0  0  0  0  0  0  0
   -6.5969   -0.9281   13.7527 C   0  0  0  0  0  0  0  0  0  0  0  0
   -5.8330   -0.4858   11.5256 C   0  0  0  0  0  0  0  0  0  0  0  0
   -1.9042  -10.6855   15.1294 C   0  0  1  0  0  0  0  0  0  0  0  0
   -2.2014   -9.9887   13.7998 C   0  0  2  0  0  0  0  0  0  0  0  0
   -5.5519   -0.6941   12.8708 C   0  0  0  0  0  0  0  0  0  0  0  0
   -5.4589   -1.1394   15.4515 H   0  0  0  0  0  0  0  0  0  0  0  0
   -7.1630   -1.3433   15.6847 H   0  0  0  0  0  0  0  0  0  0  0  0
   -2.9383   -6.7173    7.2353 H   0  0  0  0  0  0  0  0  0  0  0  0
   -2.0768    1.2524    7.6675 H   0  0  0  0  0  0  0  0  0  0  0  0
   -0.0078  -10.6555   16.1978 H   0  0  0  0  0  0  0  0  0  0  0  0
   -0.8072   -8.6748   12.7332 H   0  0  0  0  0  0  0  0  0  0  0  0
   -3.5924  -10.7686   16.3744 H   0  0  0  0  0  0  0  0  0  0  0  0
   -2.3107  -10.0523   17.0892 H   0  0  0  0  0  0  0  0  0  0  0  0
   -2.2724   -3.1204    7.1045 H   0  0  0  0  0  0  0  0  0  0  0  0
   -2.9412   -3.4496    8.5575 H   0  0  0  0  0  0  0  0  0  0  0  0
   -9.0455   -0.7888   11.6381 H   0  0  0  0  0  0  0  0  0  0  0  0
   -2.7012   -0.2790   11.5958 H   0  0  0  0  0  0  0  0  0  0  0  0
   -3.7513    1.8490    9.1615 H   0  0  0  0  0  0  0  0  0  0  0  0
   -2.6415    0.8321    9.7947 H   0  0  0  0  0  0  0  0  0  0  0  0
   -1.6521   -0.9413    8.0146 H   0  0  0  0  0  0  0  0  0  0  0  0
   -2.2032   -0.7304    6.4919 H   0  0  0  0  0  0  0  0  0  0  0  0
   -2.8845   -8.8112   11.2263 H   0  0  0  0  0  0  0  0  0  0  0  0
   -4.4806   -8.9932   11.5198 H   0  0  0  0  0  0  0  0  0  0  0  0
   -3.2589   -6.5215   10.6663 H   0  0  0  0  0  0  0  0  0  0  0  0
   -4.8570   -6.7245   10.9338 H   0  0  0  0  0  0  0  0  0  0  0  0
   -4.2523   -7.3122   13.2700 H   0  0  0  0  0  0  0  0  0  0  0  0
   -2.6358   -7.4031   13.0570 H   0  0  0  0  0  0  0  0  0  0  0  0
   -4.9020   -8.3516    9.1517 H   0  0  0  0  0  0  0  0  0  0  0  0
   -3.3347   -8.0117    8.8437 H   0  0  0  0  0  0  0  0  0  0  0  0
   -4.2534   -9.6501   13.8339 H   0  0  0  0  0  0  0  0  0  0  0  0
   -5.3463    0.1957    9.0295 H   0  0  0  0  0  0  0  0  0  0  0  0
   -4.3242   -1.4749    7.0752 H   0  0  0  0  0  0  0  0  0  0  0  0
   -1.9929  -11.6776   15.0408 H   0  0  0  0  0  0  0  0  0  0  0  0
   -2.3605  -10.6659   13.0814 H   0  0  0  0  0  0  0  0  0  0  0  0
  1 18  1  0  0  0  0
  1 29  1  0  0  0  0
  2  3  2  0  0  0  0
  2  4  2  0  0  0  0
  2  7  1  0  0  0  0
  2 10  1  0  0  0  0
  5 28  2  0  0  0  0
  6 30  2  0  0  0  0
  7 19  1  0  0  0  0
  8 31  1  0  0  0  0
  8 32  1  0  0  0  0
  9 33  1  0  0  0  0
 10 30  1  0  0  0  0
 11 22  1  0  0  0  0
 11 23  1  0  0  0  0
 12 20  1  0  0  0  0
 12 33  2  0  0  0  0
 13 20  2  0  0  0  0
 13 34  1  0  0  0  0
 14 21  2  0  0  0  0
 14 37  1  0  0  0  0
 15 28  1  0  0  0  0
 15 35  1  0  0  0  0
 16 28  1  0  0  0  0
 16 36  1  0  0  0  0
 17 21  1  0  0  0  0
 17 31  1  0  0  0  0
 17 34  1  0  0  0  0
 18 35  1  0  0  0  0
 19 32  1  0  0  0  0
 22 31  1  0  0  0  0
 23 32  1  0  0  0  0
 24 25  1  0  0  0  0
 24 26  1  0  0  0  0
 25 27  1  0  0  0  0
 26 29  1  0  0  0  0
 27 30  1  0  0  0  0
 29 36  1  0  0  0  0
 33 37  1  0  0  0  0
 34 37  2  0  0  0  0
 35 36  1  0  0  0  0
  9 38  1  0  0  0  0
  9 39  1  0  0  0  0
 10 40  1  0  0  0  0
 11 41  1  0  0  0  0
 15 42  1  0  0  0  0
 16 43  1  0  0  0  0
 18 44  1  0  0  0  0
 18 45  1  0  0  0  0
 19 46  1  0  0  0  0
 19 47  1  0  0  0  0
 20 48  1  0  0  0  0
 21 49  1  0  0  0  0
 22 50  1  0  0  0  0
 22 51  1  0  0  0  0
 23 52  1  0  0  0  0
 23 53  1  0  0  0  0
 24 54  1  0  0  0  0
 24 55  1  0  0  0  0
 25 56  1  0  0  0  0
 25 57  1  0  0  0  0
 26 58  1  0  0  0  0
 26 59  1  0  0  0  0
 27 60  1  0  0  0  0
 27 61  1  0  0  0  0
 29 62  1  0  0  0  0
 31 63  1  0  0  0  0
 32 64  1  0  0  0  0
 35 65  1  0  0  0  0
 36 66  1  0  0  0  0
M  END
> <pdb_id>
4XU1

> <uniprot_id>
nan

> <usmiles>
S(=O)(=O)(OC[C@H]1O[C@@H](N2c3ncnc(N)c3N=C2)CNC1)NC(=O)CCCC[C@@H]4SC[C@@H]5NC(=O)N[C@@H]54

$$$$
44Q_A_300
          07192415263D 1   1.00000     0.00000     0
            
 66 70  0  0  0  0            999 V2000
   -3.5302   -8.6238   15.6303 S   0  0  0  0  0  0  0  0  0  0  0  0
   -4.0848   -4.9313    6.3448 S   0  0  0  0  0  0  0  0  0  0  0  0
   -5.2906   -5.4144    5.7327 O   0  0  0  0  0  0  0  0  0  0  0  0
   -3.0476   -4.8971    5.3509 O   0  0  0  0  0  0  0  0  0  0  0  0
    1.0515   -8.8320   14.3029 O   0  0  0  0  0  0  0  0  0  0  0  0
   -5.6942   -5.8858    8.5158 O   0  0  0  0  0  0  0  0  0  0  0  0
   -3.4695    1.7307    8.0596 O   0  0  0  0  0  0  0  0  0  0  0  0
   -4.9670   -0.9898    8.6316 O   0  0  0  0  0  0  0  0  0  0  0  0
   -6.2772   -1.2343   15.0315 N   0  0  0  0  0  0  0  0  0  0  0  0
   -4.3468   -3.4373    6.8499 N   0  0  0  0  0  0  0  0  0  0  0  0
   -3.6647   -5.8924    7.5570 N   0  0  0  0  0  0  0  0  0  0  0  0
   -7.8506   -1.0435   13.3024 N   0  0  0  0  0  0  0  0  0  0  0  0
   -7.2042   -0.4892   11.1273 N   0  0  0  0  0  0  0  0  0  0  0  0
   -4.2294   -0.5278   12.9340 N   0  0  0  0  0  0  0  0  0  0  0  0
   -0.3773  -10.2493   15.3081 N   0  0  0  0  0  0  0  0  0  0  0  0
   -0.9995   -9.2819   13.4539 N   0  0  0  0  0  0  0  0  0  0  0  0
   -4.7846   -0.1380   10.8494 N   0  0  0  0  0  0  0  0  0  0  0  0
   -2.4763   -9.8159   16.3720 C   0  0  0  0  0  0  0  0  0  0  0  0
   -8.1538   -0.8011   12.0193 C   0  0  0  0  0  0  0  0  0  0  0  0
   -3.7574   -0.2024   11.7093 C   0  0  0  0  0  0  0  0  0  0  0  0
   -3.5530   -2.8231    7.8963 C   0  0  0  0  0  0  0  0  0  0  0  0
   -3.6168   -8.3391   11.5652 C   0  0  0  0  0  0  0  0  0  0  0  0
   -3.8216   -7.1453   10.6364 C   0  0  0  0  0  0  0  0  0  0  0  0
   -3.3251   -7.9007   12.9986 C   0  0  0  0  0  0  0  0  0  0  0  0
   -4.1883   -7.5808    9.2213 C   0  0  0  0  0  0  0  0  0  0  0  0
   -2.6604   -0.5097    8.3654 C   0  0  0  0  0  0  0  0  0  0  0  0
   -0.0201   -9.4134   14.3439 C   0  0  0  0  0  0  0  0  0  0  0  0
   -3.4172   -9.0975   13.9388 C   0  0  1  0  0  0  0  0  0  0  0  0
   -4.5826   -6.3733    8.3965 C   0  0  0  0  0  0  0  0  0  0  0  0
   -3.3255    0.6839    9.0279 C   0  0  2  0  0  0  0  0  0  0  0  0
   -3.8287   -1.3270    7.8325 C   0  0  2  0  0  0  0  0  0  0  0  0
   -4.7136    0.1878    9.4046 C   0  0  1  0  0  0  0  0  0  0  0  0
   -6.5715   -0.9840   13.7334 C   0  0  0  0  0  0  0  0  0  0  0  0
   -5.9083   -0.4186   11.5122 C   0  0  0  0  0  0  0  0  0  0  0  0
   -1.7886  -10.5475   15.2303 C   0  0  1  0  0  0  0  0  0  0  0  0
   -2.1913  -10.0040   13.8592 C   0  0  2  0  0  0  0  0  0  0  0  0
   -5.5679   -0.6660   12.8291 C   0  0  0  0  0  0  0  0  0  0  0  0
   -3.9070    2.5220    8.4867 H   0  0  0  0  0  0  0  0  0  0  0  0
   -5.3293   -1.1894   15.3470 H   0  0  0  0  0  0  0  0  0  0  0  0
   -7.0078   -1.4642   15.6745 H   0  0  0  0  0  0  0  0  0  0  0  0
   -5.2944   -3.4130    7.1685 H   0  0  0  0  0  0  0  0  0  0  0  0
   -2.7029   -6.1344    7.6852 H   0  0  0  0  0  0  0  0  0  0  0  0
    0.2453  -10.6228   15.9958 H   0  0  0  0  0  0  0  0  0  0  0  0
   -0.9240   -8.7512   12.6097 H   0  0  0  0  0  0  0  0  0  0  0  0
   -3.0119  -10.4573   16.9214 H   0  0  0  0  0  0  0  0  0  0  0  0
   -1.7983   -9.3650   16.9525 H   0  0  0  0  0  0  0  0  0  0  0  0
   -9.1072   -0.8542   11.7222 H   0  0  0  0  0  0  0  0  0  0  0  0
   -2.7979   -0.0365   11.4817 H   0  0  0  0  0  0  0  0  0  0  0  0
   -2.5813   -3.0014    7.7416 H   0  0  0  0  0  0  0  0  0  0  0  0
   -3.8202   -3.1851    8.7893 H   0  0  0  0  0  0  0  0  0  0  0  0
   -2.8466   -8.8815   11.2297 H   0  0  0  0  0  0  0  0  0  0  0  0
   -4.4457   -8.8985   11.5604 H   0  0  0  0  0  0  0  0  0  0  0  0
   -2.9752   -6.6139   10.6019 H   0  0  0  0  0  0  0  0  0  0  0  0
   -4.5584   -6.5755   11.0003 H   0  0  0  0  0  0  0  0  0  0  0  0
   -3.9925   -7.2096   13.2759 H   0  0  0  0  0  0  0  0  0  0  0  0
   -2.4045   -7.5129   13.0455 H   0  0  0  0  0  0  0  0  0  0  0  0
   -4.9555   -8.2210    9.2597 H   0  0  0  0  0  0  0  0  0  0  0  0
   -3.4010   -8.0289    8.7978 H   0  0  0  0  0  0  0  0  0  0  0  0
   -2.1308   -1.0367    9.0301 H   0  0  0  0  0  0  0  0  0  0  0  0
   -2.0619   -0.2158    7.6202 H   0  0  0  0  0  0  0  0  0  0  0  0
   -4.2280   -9.6319   13.7000 H   0  0  0  0  0  0  0  0  0  0  0  0
   -2.8143    0.9921    9.8302 H   0  0  0  0  0  0  0  0  0  0  0  0
   -4.0054   -1.0663    6.8834 H   0  0  0  0  0  0  0  0  0  0  0  0
   -5.3926    0.8879    9.1838 H   0  0  0  0  0  0  0  0  0  0  0  0
   -1.9504  -11.5327   15.2869 H   0  0  0  0  0  0  0  0  0  0  0  0
   -2.3649  -10.7603   13.2284 H   0  0  0  0  0  0  0  0  0  0  0  0
  1 18  1  0  0  0  0
  1 28  1  0  0  0  0
  2  3  2  0  0  0  0
  2  4  2  0  0  0  0
  2 10  1  0  0  0  0
  2 11  1  0  0  0  0
  5 27  2  0  0  0  0
  6 29  2  0  0  0  0
  7 30  1  0  0  0  0
  8 31  1  0  0  0  0
  8 32  1  0  0  0  0
  9 33  1  0  0  0  0
 10 21  1  0  0  0  0
 11 29  1  0  0  0  0
 12 19  1  0  0  0  0
 12 33  2  0  0  0  0
 13 19  2  0  0  0  0
 13 34  1  0  0  0  0
 14 20  2  0  0  0  0
 14 37  1  0  0  0  0
 15 27  1  0  0  0  0
 15 35  1  0  0  0  0
 16 27  1  0  0  0  0
 16 36  1  0  0  0  0
 17 20  1  0  0  0  0
 17 32  1  0  0  0  0
 17 34  1  0  0  0  0
 18 35  1  0  0  0  0
 21 31  1  0  0  0  0
 22 23  1  0  0  0  0
 22 24  1  0  0  0  0
 23 25  1  0  0  0  0
 24 28  1  0  0  0  0
 25 29  1  0  0  0  0
 26 30  1  0  0  0  0
 26 31  1  0  0  0  0
 28 36  1  0  0  0  0
 30 32  1  0  0  0  0
 33 37  1  0  0  0  0
 34 37  2  0  0  0  0
 35 36  1  0  0  0  0
  7 38  1  0  0  0  0
  9 39  1  0  0  0  0
  9 40  1  0  0  0  0
 10 41  1  0  0  0  0
 11 42  1  0  0  0  0
 15 43  1  0  0  0  0
 16 44  1  0  0  0  0
 18 45  1  0  0  0  0
 18 46  1  0  0  0  0
 19 47  1  0  0  0  0
 20 48  1  0  0  0  0
 21 49  1  0  0  0  0
 21 50  1  0  0  0  0
 22 51  1  0  0  0  0
 22 52  1  0  0  0  0
 23 53  1  0  0  0  0
 23 54  1  0  0  0  0
 24 55  1  0  0  0  0
 24 56  1  0  0  0  0
 25 57  1  0  0  0  0
 25 58  1  0  0  0  0
 26 59  1  0  0  0  0
 26 60  1  0  0  0  0
 28 61  1  0  0  0  0
 30 62  1  0  0  0  0
 31 63  1  0  0  0  0
 32 64  1  0  0  0  0
 35 65  1  0  0  0  0
 36 66  1  0  0  0  0
M  END
> <pdb_id>
4XU2

> <uniprot_id>
nan

> <usmiles>
S(=O)(=O)(NC(=O)CCCC[C@@H]1SC[C@@H]2NC(=O)N[C@@H]21)NC[C@H]3O[C@@H](N4c5ncnc(N)c5N=C4)[C@H](O)C3

$$$$
44V_A_302
          07192415263D 1   1.00000     0.00000     0
            
 22 23  0  0  0  0            999 V2000
   21.1630   27.8340   23.2620 O   0  0  0  0  0  0  0  0  0  0  0  0
   23.0630   30.8070   20.0120 N   0  0  0  0  0  0  0  0  0  0  0  0
   21.6530   26.1700   18.7540 N   0  0  0  0  0  0  0  0  0  0  0  0
   22.0740   29.2810   21.7380 N   0  0  0  0  0  0  0  0  0  0  0  0
   22.3720   28.5000   19.3120 N   0  0  0  0  0  0  0  0  0  0  0  0
   20.8440   25.7000   21.3490 N   0  0  0  0  0  0  0  0  0  0  0  0
   20.2360   23.3450   20.7140 C   0  0  0  0  0  0  0  0  0  0  0  0
   21.0480   24.8440   19.2240 C   0  0  0  0  0  0  0  0  0  0  0  0
   22.5110   29.5450   20.3370 C   0  0  0  0  0  0  0  0  0  0  0  0
   21.5140   28.0150   22.1080 C   0  0  0  0  0  0  0  0  0  0  0  0
   21.8250   27.2260   19.6560 C   0  0  0  0  0  0  0  0  0  0  0  0
   21.1650   24.5560   20.4000 C   0  0  1  0  0  0  0  0  0  0  0  0
   21.3690   26.9640   21.1010 C   0  0  0  0  0  0  0  0  0  0  0  0
   23.3600   30.9968   19.0762 H   0  0  0  0  0  0  0  0  0  0  0  0
   23.1561   31.5089   20.7182 H   0  0  0  0  0  0  0  0  0  0  0  0
   22.1731   29.9972   22.4288 H   0  0  0  0  0  0  0  0  0  0  0  0
   20.2597   25.5447   22.1456 H   0  0  0  0  0  0  0  0  0  0  0  0
   20.4469   22.5925   20.0901 H   0  0  0  0  0  0  0  0  0  0  0  0
   20.3837   23.0473   21.6572 H   0  0  0  0  0  0  0  0  0  0  0  0
   19.2812   23.6180   20.5963 H   0  0  0  0  0  0  0  0  0  0  0  0
   20.5737   24.2365   18.5868 H   0  0  0  0  0  0  0  0  0  0  0  0
   22.1109   24.2737   20.5598 H   0  0  0  0  0  0  0  0  0  0  0  0
  1 10  2  0  0  0  0
  2  9  1  0  0  0  0
  3  8  2  0  0  0  0
  3 11  1  0  0  0  0
  4  9  1  0  0  0  0
  4 10  1  0  0  0  0
  5  9  2  0  0  0  0
  5 11  1  0  0  0  0
  6 12  1  0  0  0  0
  6 13  1  0  0  0  0
  7 12  1  0  0  0  0
  8 12  1  0  0  0  0
 10 13  1  0  0  0  0
 11 13  2  0  0  0  0
  2 14  1  0  0  0  0
  2 15  1  0  0  0  0
  4 16  1  0  0  0  0
  6 17  1  0  0  0  0
  7 18  1  0  0  0  0
  7 19  1  0  0  0  0
  7 20  1  0  0  0  0
  8 21  1  0  0  0  0
 12 22  1  0  0  0  0
M  END
> <pdb_id>
4XT6

> <uniprot_id>
P71968

> <usmiles>
O=C1NC(=NC=2N=C[C@@H](NC21)C)N

$$$$
44W_A_302
          07192415263D 1   1.00000     0.00000     0
            
 22 23  0  0  0  0            999 V2000
   21.1399   27.6551   23.1732 O   0  0  0  0  0  0  0  0  0  0  0  0
   22.9941   30.7839   20.2834 N   0  0  0  0  0  0  0  0  0  0  0  0
   21.5867   26.5493   18.5426 N   0  0  0  0  0  0  0  0  0  0  0  0
   22.0342   29.1039   21.7084 N   0  0  0  0  0  0  0  0  0  0  0  0
   22.3191   28.6797   19.3850 N   0  0  0  0  0  0  0  0  0  0  0  0
   20.7327   25.6748   21.1252 N   0  0  0  0  0  0  0  0  0  0  0  0
   20.2367   23.3347   20.3230 C   0  0  0  0  0  0  0  0  0  0  0  0
   21.6362   25.0867   18.9110 C   0  0  0  0  0  0  0  0  0  0  0  0
   22.4361   29.5132   20.4562 C   0  0  0  0  0  0  0  0  0  0  0  0
   21.4380   27.8310   22.0347 C   0  0  0  0  0  0  0  0  0  0  0  0
   21.7422   27.4279   19.6378 C   0  0  0  0  0  0  0  0  0  0  0  0
   20.8579   24.7584   20.1799 C   0  0  0  0  0  0  0  0  0  0  0  0
   21.3136   26.9455   20.8661 C   0  0  0  0  0  0  0  0  0  0  0  0
   23.2863   31.0823   19.3748 H   0  0  0  0  0  0  0  0  0  0  0  0
   23.1009   31.3941   21.0684 H   0  0  0  0  0  0  0  0  0  0  0  0
   21.4553   26.8689   17.6042 H   0  0  0  0  0  0  0  0  0  0  0  0
   22.1680   29.7486   22.4611 H   0  0  0  0  0  0  0  0  0  0  0  0
   20.4433   22.7972   19.5055 H   0  0  0  0  0  0  0  0  0  0  0  0
   20.6233   22.8816   21.1264 H   0  0  0  0  0  0  0  0  0  0  0  0
   19.2454   23.4126   20.4290 H   0  0  0  0  0  0  0  0  0  0  0  0
   22.5918   24.8261   19.0483 H   0  0  0  0  0  0  0  0  0  0  0  0
   21.2510   24.5560   18.1560 H   0  0  0  0  0  0  0  0  0  0  0  0
  1 10  2  0  0  0  0
  2  9  1  0  0  0  0
  3  8  1  0  0  0  0
  3 11  1  0  0  0  0
  4  9  1  0  0  0  0
  4 10  1  0  0  0  0
  5  9  2  0  0  0  0
  5 11  1  0  0  0  0
  6 12  2  0  0  0  0
  6 13  1  0  0  0  0
  7 12  1  0  0  0  0
  8 12  1  0  0  0  0
 10 13  1  0  0  0  0
 11 13  2  0  0  0  0
  2 14  1  0  0  0  0
  2 15  1  0  0  0  0
  3 16  1  0  0  0  0
  4 17  1  0  0  0  0
  7 18  1  0  0  0  0
  7 19  1  0  0  0  0
  7 20  1  0  0  0  0
  8 21  1  0  0  0  0
  8 22  1  0  0  0  0
M  END
> <pdb_id>
4XT4

> <uniprot_id>
P71968

> <usmiles>
O=C1NC(=NC=2NCC(=NC12)C)N

$$$$
455_A_1245
          07192422073D 1   1.00000     0.00000     0
            
 57 60  0  0  0  0            999 V2000
   42.4903   28.6882   12.0433 Cl  0  0  0  0  0  0  0  0  0  0  0  0
   31.2439   26.8812   13.2661 S   0  0  0  0  0  0  0  0  0  0  0  0
   36.3574   29.3933   19.3947 F   0  0  0  0  0  0  0  0  0  0  0  0
   30.6132   28.1011   12.7944 O   0  0  0  0  0  0  0  0  0  0  0  0
   31.7989   26.1033   12.1747 O   0  0  0  0  0  0  0  0  0  0  0  0
   36.5635   27.9527   15.2210 O   0  0  0  0  0  0  0  0  0  0  0  0
   33.2471   30.8091   16.3627 O   0  0  0  0  0  0  0  0  0  0  0  0
   35.3937   33.6197   21.9265 O   0  0  0  0  0  0  0  0  0  0  0  0
   30.3423   26.0355   14.2758 N   0  0  0  0  0  0  0  0  0  0  0  0
   36.6724   28.6834   13.0448 N   0  0  0  0  0  0  0  0  0  0  0  0
   35.1836   29.8400   17.1360 N   0  0  0  0  0  0  0  0  0  0  0  0
   32.6045   27.4087   14.2035 N   0  0  0  0  0  0  0  0  0  0  0  0
   37.1084   33.9777   20.4729 N   0  0  0  0  0  0  0  0  0  0  0  0
   38.3140   34.6335   20.0924 C   0  0  0  0  0  0  0  0  0  0  0  0
   38.7592   35.6569   20.8700 C   0  0  0  0  0  0  0  0  0  0  0  0
   38.1569   35.9587   22.1448 C   0  0  0  0  0  0  0  0  0  0  0  0
   33.6402   27.8950   13.2806 C   0  0  0  0  0  0  0  0  0  0  0  0
   32.4729   28.3030   15.3391 C   0  0  0  0  0  0  0  0  0  0  0  0
   37.0567   35.2654   22.5742 C   0  0  0  0  0  0  0  0  0  0  0  0
   40.3063   27.9084   13.4267 C   0  0  0  0  0  0  0  0  0  0  0  0
   39.8956   29.1793   11.3293 C   0  0  0  0  0  0  0  0  0  0  0  0
   38.9248   27.9170   13.7062 C   0  0  0  0  0  0  0  0  0  0  0  0
   38.5240   29.1754   11.6296 C   0  0  0  0  0  0  0  0  0  0  0  0
   35.4095   32.3446   17.5751 C   0  0  0  0  0  0  0  0  0  0  0  0
   35.8802   33.3454   18.4661 C   0  0  0  0  0  0  0  0  0  0  0  0
   36.7192   31.6427   19.9875 C   0  0  0  0  0  0  0  0  0  0  0  0
   40.7493   28.5176   12.2251 C   0  0  0  0  0  0  0  0  0  0  0  0
   35.9731   28.3608   14.2202 C   0  0  0  0  0  0  0  0  0  0  0  0
   34.0466   29.8389   16.4112 C   0  0  0  0  0  0  0  0  0  0  0  0
   36.2518   30.6955   19.0716 C   0  0  0  0  0  0  0  0  0  0  0  0
   36.4030   34.3364   21.6681 C   0  0  0  0  0  0  0  0  0  0  0  0
   38.0747   28.5405   12.7735 C   0  0  0  0  0  0  0  0  0  0  0  0
   35.6333   31.0126   17.8816 C   0  0  0  0  0  0  0  0  0  0  0  0
   36.5341   32.9572   19.6339 C   0  0  0  0  0  0  0  0  0  0  0  0
   34.5445   28.7782   14.2176 C   0  0  2  0  0  0  0  0  0  0  0  0
   33.9387   28.6191   15.6011 C   0  0  2  0  0  0  0  0  0  0  0  0
   30.8380   25.2139   14.5572 H   0  0  0  0  0  0  0  0  0  0  0  0
   30.1329   26.5906   15.0808 H   0  0  0  0  0  0  0  0  0  0  0  0
   36.1216   29.0616   12.3008 H   0  0  0  0  0  0  0  0  0  0  0  0
   35.7385   29.0086   17.1641 H   0  0  0  0  0  0  0  0  0  0  0  0
   38.8187   34.3499   19.2770 H   0  0  0  0  0  0  0  0  0  0  0  0
   39.5246   36.2147   20.5491 H   0  0  0  0  0  0  0  0  0  0  0  0
   38.5452   36.6793   22.7193 H   0  0  0  0  0  0  0  0  0  0  0  0
   33.2405   28.4414   12.5445 H   0  0  0  0  0  0  0  0  0  0  0  0
   34.1595   27.1359   12.8880 H   0  0  0  0  0  0  0  0  0  0  0  0
   32.0461   27.8488   16.1211 H   0  0  0  0  0  0  0  0  0  0  0  0
   31.9525   29.1244   15.1058 H   0  0  0  0  0  0  0  0  0  0  0  0
   36.7068   35.3972   23.5016 H   0  0  0  0  0  0  0  0  0  0  0  0
   40.9559   27.4846   14.0580 H   0  0  0  0  0  0  0  0  0  0  0  0
   40.2490   29.6343   10.5119 H   0  0  0  0  0  0  0  0  0  0  0  0
   38.5617   27.4955   14.5371 H   0  0  0  0  0  0  0  0  0  0  0  0
   37.8749   29.6294   11.0193 H   0  0  0  0  0  0  0  0  0  0  0  0
   34.9235   32.5979   16.7387 H   0  0  0  0  0  0  0  0  0  0  0  0
   35.7446   34.3142   18.2585 H   0  0  0  0  0  0  0  0  0  0  0  0
   37.1603   31.3800   20.8456 H   0  0  0  0  0  0  0  0  0  0  0  0
   34.4793   29.7353   13.9352 H   0  0  0  0  0  0  0  0  0  0  0  0
   34.3725   27.8542   16.0773 H   0  0  0  0  0  0  0  0  0  0  0  0
  1 27  1  0  0  0  0
  2  4  2  0  0  0  0
  2  5  2  0  0  0  0
  2  9  1  0  0  0  0
  2 12  1  0  0  0  0
  3 30  1  0  0  0  0
  6 28  2  0  0  0  0
  7 29  2  0  0  0  0
  8 31  2  0  0  0  0
 10 28  1  0  0  0  0
 10 32  1  0  0  0  0
 11 29  1  0  0  0  0
 11 33  1  0  0  0  0
 12 17  1  0  0  0  0
 12 18  1  0  0  0  0
 13 14  1  0  0  0  0
 13 31  1  0  0  0  0
 13 34  1  0  0  0  0
 14 15  2  0  0  0  0
 15 16  1  0  0  0  0
 16 19  2  0  0  0  0
 17 35  1  0  0  0  0
 18 36  1  0  0  0  0
 19 31  1  0  0  0  0
 20 22  1  0  0  0  0
 20 27  2  0  0  0  0
 21 23  2  0  0  0  0
 21 27  1  0  0  0  0
 22 32  2  0  0  0  0
 23 32  1  0  0  0  0
 24 25  1  0  0  0  0
 24 33  2  0  0  0  0
 25 34  2  0  0  0  0
 26 30  2  0  0  0  0
 26 34  1  0  0  0  0
 28 35  1  0  0  0  0
 29 36  1  0  0  0  0
 30 33  1  0  0  0  0
 35 36  1  0  0  0  0
  9 37  1  0  0  0  0
  9 38  1  0  0  0  0
 10 39  1  0  0  0  0
 11 40  1  0  0  0  0
 14 41  1  0  0  0  0
 15 42  1  0  0  0  0
 16 43  1  0  0  0  0
 17 44  1  0  0  0  0
 17 45  1  0  0  0  0
 18 46  1  0  0  0  0
 18 47  1  0  0  0  0
 19 48  1  0  0  0  0
 20 49  1  0  0  0  0
 21 50  1  0  0  0  0
 22 51  1  0  0  0  0
 23 52  1  0  0  0  0
 24 53  1  0  0  0  0
 25 54  1  0  0  0  0
 26 55  1  0  0  0  0
 35 56  1  0  0  0  0
 36 57  1  0  0  0  0
M  END
> <pdb_id>
2XBW

> <uniprot_id>
P00742

> <usmiles>
Clc1ccc(NC(=O)[C@@H]2[C@@H](C(=O)Nc3c(F)cc(N4C(=O)C=CC=C4)cc3)CN(S(=O)(=O)N)C2)cc1

$$$$
45I_A_266
          07192416293D 1   1.00000     0.00000     0
            
 41 42  0  0  0  0            999 V2000
   -5.8828    1.0586   16.7274 S   0  0  0  0  0  0  0  0  0  0  0  0
   -5.6352    5.5271   13.9098 S   0  0  0  0  0  0  0  0  0  0  0  0
   -7.2871    1.3501   16.9001 O   0  0  0  0  0  0  0  0  0  0  0  0
   -5.0533    1.4783   17.7905 O   0  0  0  0  0  0  0  0  0  0  0  0
   -5.9776    6.0435   15.1859 O   0  0  0  0  0  0  0  0  0  0  0  0
   -6.4012    6.0009   12.7760 O   0  0  0  0  0  0  0  0  0  0  0  0
   -3.2094    4.7321   11.6414 O   0  0  0  0  0  0  0  0  0  0  0  0
   -4.8618    3.6813   10.6767 O   0  0  0  0  0  0  0  0  0  0  0  0
   -5.6775   -0.4909   16.5532 N   0  0  0  0  0  0  0  0  0  0  0  0
   -4.2557    6.2449   13.5514 N   0  0  0  0  0  0  0  0  0  0  0  0
   -3.1667    6.2596   14.5333 C   0  0  0  0  0  0  0  0  0  0  0  0
   -1.5956   10.8473   13.1171 C   0  0  0  0  0  0  0  0  0  0  0  0
   -1.2014   10.3431   14.3631 C   0  0  0  0  0  0  0  0  0  0  0  0
   -2.0853    9.9765   12.1314 C   0  0  0  0  0  0  0  0  0  0  0  0
   -1.8290    6.6383   13.9054 C   0  0  0  0  0  0  0  0  0  0  0  0
   -1.2699    8.9691   14.6184 C   0  0  0  0  0  0  0  0  0  0  0  0
   -2.1528    8.6066   12.3887 C   0  0  0  0  0  0  0  0  0  0  0  0
   -4.6448    1.1950   14.2749 C   0  0  0  0  0  0  0  0  0  0  0  0
   -4.2512    1.8949   13.1174 C   0  0  0  0  0  0  0  0  0  0  0  0
   -5.6640    3.1931   15.1653 C   0  0  0  0  0  0  0  0  0  0  0  0
   -4.1220    3.9231   11.7147 C   0  0  0  0  0  0  0  0  0  0  0  0
   -5.3606    1.8283   15.3313 C   0  0  0  0  0  0  0  0  0  0  0  0
   -5.3045    3.9288   14.0171 C   0  0  0  0  0  0  0  0  0  0  0  0
   -1.7546    8.1093   13.6338 C   0  0  0  0  0  0  0  0  0  0  0  0
   -4.5246    3.2445   12.9653 C   0  0  0  0  0  0  0  0  0  0  0  0
   -2.6400    4.9174   12.4423 H   0  0  0  0  0  0  0  0  0  0  0  0
   -4.7042   -0.6869   16.4341 H   0  0  0  0  0  0  0  0  0  0  0  0
   -6.0162   -0.9655   17.3656 H   0  0  0  0  0  0  0  0  0  0  0  0
   -4.4710    7.1989   13.3430 H   0  0  0  0  0  0  0  0  0  0  0  0
   -3.0859    5.3489   14.9382 H   0  0  0  0  0  0  0  0  0  0  0  0
   -3.3864    6.9238   15.2478 H   0  0  0  0  0  0  0  0  0  0  0  0
   -1.5281   11.8274   12.9300 H   0  0  0  0  0  0  0  0  0  0  0  0
   -0.8704   10.9664   15.0715 H   0  0  0  0  0  0  0  0  0  0  0  0
   -2.3848   10.3365   11.2478 H   0  0  0  0  0  0  0  0  0  0  0  0
   -1.7208    6.1417   13.0442 H   0  0  0  0  0  0  0  0  0  0  0  0
   -1.0915    6.3845   14.5314 H   0  0  0  0  0  0  0  0  0  0  0  0
   -0.9730    8.6061   15.5016 H   0  0  0  0  0  0  0  0  0  0  0  0
   -2.4857    7.9808   11.6833 H   0  0  0  0  0  0  0  0  0  0  0  0
   -4.4150    0.2252   14.3575 H   0  0  0  0  0  0  0  0  0  0  0  0
   -3.7652    1.4081   12.3916 H   0  0  0  0  0  0  0  0  0  0  0  0
   -6.1581    3.6633   15.8966 H   0  0  0  0  0  0  0  0  0  0  0  0
  1  3  2  0  0  0  0
  1  4  2  0  0  0  0
  1  9  1  0  0  0  0
  1 22  1  0  0  0  0
  2  5  2  0  0  0  0
  2  6  2  0  0  0  0
  2 10  1  0  0  0  0
  2 23  1  0  0  0  0
  7 21  1  0  0  0  0
  8 21  2  0  0  0  0
 10 11  1  0  0  0  0
 11 15  1  0  0  0  0
 12 13  2  0  0  0  0
 12 14  1  0  0  0  0
 13 16  1  0  0  0  0
 14 17  2  0  0  0  0
 15 24  1  0  0  0  0
 16 24  2  0  0  0  0
 17 24  1  0  0  0  0
 18 19  2  0  0  0  0
 18 22  1  0  0  0  0
 19 25  1  0  0  0  0
 20 22  2  0  0  0  0
 20 23  1  0  0  0  0
 21 25  1  0  0  0  0
 23 25  2  0  0  0  0
  7 26  1  0  0  0  0
  9 27  1  0  0  0  0
  9 28  1  0  0  0  0
 10 29  1  0  0  0  0
 11 30  1  0  0  0  0
 11 31  1  0  0  0  0
 12 32  1  0  0  0  0
 13 33  1  0  0  0  0
 14 34  1  0  0  0  0
 15 35  1  0  0  0  0
 15 36  1  0  0  0  0
 16 37  1  0  0  0  0
 17 38  1  0  0  0  0
 18 39  1  0  0  0  0
 19 40  1  0  0  0  0
 20 41  1  0  0  0  0
M  END
> <pdb_id>
5AMD

> <uniprot_id>
P00918

> <usmiles>
S(=O)(=O)(NCCc1ccccc1)c2c(ccc(S(=O)(=O)N)c2)C(=O)O

$$$$
45K_A_301
          07192421083D 1   1.00000     0.00000     0
            
 39 43  0  0  0  0            999 V2000
   -0.5242   26.5968    9.7823 S   0  0  0  0  0  0  0  0  0  0  0  0
    7.0031   23.3973    7.7438 S   0  0  0  0  0  0  0  0  0  0  0  0
    7.9514   24.3772    8.3551 O   0  0  0  0  0  0  0  0  0  0  0  0
    7.3611   21.9521    7.9469 O   0  0  0  0  0  0  0  0  0  0  0  0
    2.0050   30.4408    6.1092 O   0  0  0  0  0  0  0  0  0  0  0  0
   -2.5291   27.6678   10.7243 N   0  0  0  0  0  0  0  0  0  0  0  0
    2.9392   27.9432    6.6907 N   0  0  0  0  0  0  0  0  0  0  0  0
    0.1264   30.9886    7.2831 N   0  0  0  0  0  0  0  0  0  0  0  0
   -1.8867   26.4874   10.7883 C   0  0  0  0  0  0  0  0  0  0  0  0
    6.7994   23.7774    5.9731 C   0  0  0  0  0  0  0  0  0  0  0  0
    5.2953   23.7437    8.1833 C   0  0  0  0  0  0  0  0  0  0  0  0
    1.8185   27.8385    7.4164 C   0  0  0  0  0  0  0  0  0  0  0  0
    4.6243   26.9664    5.3473 C   0  0  0  0  0  0  0  0  0  0  0  0
   -2.4868   29.9053    9.7077 C   0  0  0  0  0  0  0  0  0  0  0  0
   -1.8272   30.7499    8.8137 C   0  0  0  0  0  0  0  0  0  0  0  0
    5.5738   25.9633    5.1201 C   0  0  0  0  0  0  0  0  0  0  0  0
    4.0555   25.9638    7.4533 C   0  0  0  0  0  0  0  0  0  0  0  0
   -0.8309   28.1949    9.2571 C   0  0  0  0  0  0  0  0  0  0  0  0
    1.0678   30.1387    6.8576 C   0  0  0  0  0  0  0  0  0  0  0  0
    3.8150   26.9436    6.4902 C   0  0  0  0  0  0  0  0  0  0  0  0
   -2.0128   28.6098    9.9212 C   0  0  0  0  0  0  0  0  0  0  0  0
   -0.6803   30.3310    8.1316 C   0  0  0  0  0  0  0  0  0  0  0  0
    5.7816   24.9454    6.0576 C   0  0  0  0  0  0  0  0  0  0  0  0
    4.9736   24.9248    7.2295 C   0  0  0  0  0  0  0  0  0  0  0  0
    0.9719   28.9436    7.5696 C   0  0  0  0  0  0  0  0  0  0  0  0
   -0.1647   29.0466    8.3705 C   0  0  0  0  0  0  0  0  0  0  0  0
    3.1385   28.8275    6.2684 H   0  0  0  0  0  0  0  0  0  0  0  0
    0.0386   31.9481    7.0155 H   0  0  0  0  0  0  0  0  0  0  0  0
   -2.1614   25.6922   11.3289 H   0  0  0  0  0  0  0  0  0  0  0  0
    6.4281   22.9986    5.4676 H   0  0  0  0  0  0  0  0  0  0  0  0
    7.6606   24.0662    5.5550 H   0  0  0  0  0  0  0  0  0  0  0  0
    5.2110   24.0136    9.1425 H   0  0  0  0  0  0  0  0  0  0  0  0
    4.7040   22.9571    8.0052 H   0  0  0  0  0  0  0  0  0  0  0  0
    1.5854   26.9682    7.8504 H   0  0  0  0  0  0  0  0  0  0  0  0
    4.5226   27.7089    4.6852 H   0  0  0  0  0  0  0  0  0  0  0  0
   -3.2983   30.2279   10.1949 H   0  0  0  0  0  0  0  0  0  0  0  0
   -2.1813   31.6721    8.6579 H   0  0  0  0  0  0  0  0  0  0  0  0
    6.1107   25.9742    4.2765 H   0  0  0  0  0  0  0  0  0  0  0  0
    3.5631   26.0020    8.3228 H   0  0  0  0  0  0  0  0  0  0  0  0
  1  9  1  0  0  0  0
  1 18  1  0  0  0  0
  2  3  2  0  0  0  0
  2  4  2  0  0  0  0
  2 10  1  0  0  0  0
  2 11  1  0  0  0  0
  5 19  2  0  0  0  0
  6  9  2  0  0  0  0
  6 21  1  0  0  0  0
  7 12  1  0  0  0  0
  7 20  1  0  0  0  0
  8 19  1  0  0  0  0
  8 22  1  0  0  0  0
 10 23  1  0  0  0  0
 11 24  1  0  0  0  0
 12 25  2  0  0  0  0
 13 16  1  0  0  0  0
 13 20  2  0  0  0  0
 14 15  1  0  0  0  0
 14 21  2  0  0  0  0
 15 22  2  0  0  0  0
 16 23  2  0  0  0  0
 17 20  1  0  0  0  0
 17 24  2  0  0  0  0
 18 21  1  0  0  0  0
 18 26  2  0  0  0  0
 19 25  1  0  0  0  0
 22 26  1  0  0  0  0
 23 24  1  0  0  0  0
 25 26  1  0  0  0  0
  7 27  1  0  0  0  0
  8 28  1  0  0  0  0
  9 29  1  0  0  0  0
 10 30  1  0  0  0  0
 10 31  1  0  0  0  0
 11 32  1  0  0  0  0
 11 33  1  0  0  0  0
 12 34  1  0  0  0  0
 13 35  1  0  0  0  0
 14 36  1  0  0  0  0
 15 37  1  0  0  0  0
 16 38  1  0  0  0  0
 17 39  1  0  0  0  0
M  END
> <pdb_id>
4FKR

> <uniprot_id>
P24941

> <usmiles>
S1(=O)(=O)Cc2c(ccc(N/C=C\3/c4c5SC=Nc5ccc4NC3=O)c2)C1

$$$$
45R_C_1334
          07202406023D 1   1.00000     0.00000     0
            
 50 53  0  0  0  0            999 V2000
   -4.0320   -7.0936   -1.7350 O   0  0  0  0  0  0  0  0  0  0  0  0
   -4.2178  -10.5011    0.4927 O   0  0  0  0  0  0  0  0  0  0  0  0
   -7.7176   -7.2869    5.8606 N   0  0  0  0  0  0  0  0  0  0  0  0
   -7.5628   -8.6239    5.9614 N   0  0  0  0  0  0  0  0  0  0  0  0
   -2.9218   -9.0248   -1.3555 N   0  0  0  0  0  0  0  0  0  0  0  0
    1.3485  -11.9747   -5.7750 N   0  3  0  0  0  0  0  0  0  0  0  0
   -4.5631  -11.7583    1.0769 C   0  0  0  0  0  0  0  0  0  0  0  0
   -7.1155   -6.9641    4.7211 C   0  0  0  0  0  0  0  0  0  0  0  0
   -6.8878   -9.1261    4.9234 C   0  0  0  0  0  0  0  0  0  0  0  0
   -2.2934   -8.3667   -3.6786 C   0  0  0  0  0  0  0  0  0  0  0  0
   -1.6935   -8.7111   -4.8757 C   0  0  0  0  0  0  0  0  0  0  0  0
   -5.6290   -6.9366    2.0903 C   0  0  0  0  0  0  0  0  0  0  0  0
   -4.9669   -6.9694    0.8770 C   0  0  0  0  0  0  0  0  0  0  0  0
   -5.3725   -9.3021    2.2912 C   0  0  0  0  0  0  0  0  0  0  0  0
   -1.7607  -10.5304   -2.7915 C   0  0  0  0  0  0  0  0  0  0  0  0
    1.0197  -10.6078   -6.2854 C   0  0  0  0  0  0  0  0  0  0  0  0
    0.9468  -12.2793   -4.3662 C   0  0  0  0  0  0  0  0  0  0  0  0
   -0.4767  -10.3228   -6.3681 C   0  0  0  0  0  0  0  0  0  0  0  0
   -0.5595  -12.2717   -4.1241 C   0  0  0  0  0  0  0  0  0  0  0  0
   -3.8006   -8.0484   -0.9986 C   0  0  0  0  0  0  0  0  0  0  0  0
   -4.7012   -9.3552    1.0734 C   0  0  0  0  0  0  0  0  0  0  0  0
   -2.3358   -9.2772   -2.6247 C   0  0  0  0  0  0  0  0  0  0  0  0
   -6.5722   -8.0642    4.0990 C   0  0  0  0  0  0  0  0  0  0  0  0
   -5.8422   -8.0998    2.8165 C   0  0  0  0  0  0  0  0  0  0  0  0
   -1.1197   -9.9725   -5.0485 C   0  0  0  0  0  0  0  0  0  0  0  0
   -1.1541  -10.8921   -3.9903 C   0  0  0  0  0  0  0  0  0  0  0  0
   -4.4893   -8.1678    0.3417 C   0  0  0  0  0  0  0  0  0  0  0  0
   -7.8894   -9.0858    6.6566 H   0  0  0  0  0  0  0  0  0  0  0  0
   -2.4534   -9.3444   -0.6956 H   0  0  0  0  0  0  0  0  0  0  0  0
    0.9445  -12.5916   -6.3277 H   0  0  0  0  0  0  0  0  0  0  0  0
    2.2607  -12.0919   -5.8449 H   0  0  0  0  0  0  0  0  0  0  0  0
   -4.3060  -12.4815    0.4715 H   0  0  0  0  0  0  0  0  0  0  0  0
   -4.0923  -11.8637    1.9237 H   0  0  0  0  0  0  0  0  0  0  0  0
   -5.5197  -11.7934    1.2341 H   0  0  0  0  0  0  0  0  0  0  0  0
   -7.0708   -6.0802    4.3989 H   0  0  0  0  0  0  0  0  0  0  0  0
   -6.6749  -10.0366    4.8062 H   0  0  0  0  0  0  0  0  0  0  0  0
   -2.6721   -7.5145   -3.5771 H   0  0  0  0  0  0  0  0  0  0  0  0
   -1.6706   -8.0885   -5.5829 H   0  0  0  0  0  0  0  0  0  0  0  0
   -5.9411   -6.1149    2.4258 H   0  0  0  0  0  0  0  0  0  0  0  0
   -4.8337   -6.1667    0.4046 H   0  0  0  0  0  0  0  0  0  0  0  0
   -5.5172  -10.0972    2.7727 H   0  0  0  0  0  0  0  0  0  0  0  0
   -1.7910  -11.1503   -2.0817 H   0  0  0  0  0  0  0  0  0  0  0  0
    1.4143  -10.5181   -7.1791 H   0  0  0  0  0  0  0  0  0  0  0  0
    1.4401   -9.9543   -5.6863 H   0  0  0  0  0  0  0  0  0  0  0  0
    1.3008  -13.1647   -4.1409 H   0  0  0  0  0  0  0  0  0  0  0  0
    1.3693  -11.6134   -3.7818 H   0  0  0  0  0  0  0  0  0  0  0  0
   -0.9251  -11.1132   -6.7338 H   0  0  0  0  0  0  0  0  0  0  0  0
   -0.6182   -9.5826   -6.9951 H   0  0  0  0  0  0  0  0  0  0  0  0
   -0.9978  -12.7288   -4.8685 H   0  0  0  0  0  0  0  0  0  0  0  0
   -0.7484  -12.7770   -3.3081 H   0  0  0  0  0  0  0  0  0  0  0  0
  1 20  2  0  0  0  0
  2  7  1  0  0  0  0
  2 21  1  0  0  0  0
  3  4  1  0  0  0  0
  3  8  2  0  0  0  0
  4  9  1  0  0  0  0
  4 28  1  0  0  0  0
  5 20  1  0  0  0  0
  5 22  1  0  0  0  0
  5 29  1  0  0  0  0
  6 16  1  0  0  0  0
  6 17  1  0  0  0  0
  6 30  1  0  0  0  0
  6 31  1  0  0  0  0
  7 32  1  0  0  0  0
  7 33  1  0  0  0  0
  7 34  1  0  0  0  0
  8 23  1  0  0  0  0
  8 35  1  0  0  0  0
  9 23  2  0  0  0  0
  9 36  1  0  0  0  0
 10 11  2  0  0  0  0
 10 22  1  0  0  0  0
 10 37  1  0  0  0  0
 11 25  1  0  0  0  0
 11 38  1  0  0  0  0
 12 13  1  0  0  0  0
 12 24  2  0  0  0  0
 12 39  1  0  0  0  0
 13 27  2  0  0  0  0
 13 40  1  0  0  0  0
 14 21  2  0  0  0  0
 14 24  1  0  0  0  0
 14 41  1  0  0  0  0
 15 22  2  0  0  0  0
 15 26  1  0  0  0  0
 15 42  1  0  0  0  0
 16 18  1  0  0  0  0
 16 43  1  0  0  0  0
 16 44  1  0  0  0  0
 17 19  1  0  0  0  0
 17 45  1  0  0  0  0
 17 46  1  0  0  0  0
 18 25  1  0  0  0  0
 18 47  1  0  0  0  0
 18 48  1  0  0  0  0
 19 26  1  0  0  0  0
 19 49  1  0  0  0  0
 19 50  1  0  0  0  0
 20 27  1  0  0  0  0
 21 27  1  0  0  0  0
 23 24  1  0  0  0  0
 25 26  2  0  0  0  0
M  CHG  1   6   1
M  END
> <pdb_id>
4D2V

> <uniprot_id>
Q14680

> <usmiles>
O=C(Nc1cc2c(cc1)CC[NH2+]CC2)c3c(OC)cc(cc3)C=4C=NNC4

$$$$
45S_B_704
          07202416143D 1   1.00000     0.00000     0
            
 49 51  0  0  0  0            999 V2000
   16.3368   -8.1164   10.8834 Cl  0  0  0  0  0  0  0  0  0  0  0  0
   13.3757  -13.1696   15.6462 O   0  0  0  0  0  0  0  0  0  0  0  0
   12.4123  -13.1914   12.9036 O   0  0  0  0  0  0  0  0  0  0  0  0
   15.2865  -14.1659   13.4051 N   0  0  0  0  0  0  0  0  0  0  0  0
   13.3884  -10.9817   14.9181 N   0  0  0  0  0  0  0  0  0  0  0  0
   11.2043  -15.0004   11.3367 N   0  0  0  0  0  0  0  0  0  0  0  0
   10.7297  -13.1197   14.4624 N   0  0  0  0  0  0  0  0  0  0  0  0
   10.7873  -16.4965    9.4273 C   0  0  0  0  0  0  0  0  0  0  0  0
   16.2841  -13.2275   13.9937 C   0  0  0  0  0  0  0  0  0  0  0  0
   14.8195  -10.8553   15.0346 C   0  0  0  0  0  0  0  0  0  0  0  0
    9.5656  -13.7087   15.0953 C   0  0  0  0  0  0  0  0  0  0  0  0
    9.3074  -12.8704   16.3219 C   0  0  0  0  0  0  0  0  0  0  0  0
   17.0422  -10.6632   11.3793 C   0  0  0  0  0  0  0  0  0  0  0  0
   10.6610  -12.2630   16.6203 C   0  0  0  0  0  0  0  0  0  0  0  0
    9.0930  -15.6435   11.2007 C   0  0  0  0  0  0  0  0  0  0  0  0
    9.2426  -14.7800   12.3141 C   0  0  0  0  0  0  0  0  0  0  0  0
   16.9971  -11.8525   12.0928 C   0  0  0  0  0  0  0  0  0  0  0  0
   15.6004   -9.6456   13.0129 C   0  0  0  0  0  0  0  0  0  0  0  0
   12.7738  -12.1529   15.3189 C   0  0  0  0  0  0  0  0  0  0  0  0
   16.3194   -9.5812   11.8369 C   0  0  0  0  0  0  0  0  0  0  0  0
   11.2974  -13.5313   13.2690 C   0  0  0  0  0  0  0  0  0  0  0  0
   10.3302  -15.7494   10.6031 C   0  0  0  0  0  0  0  0  0  0  0  0
   10.5692  -14.4006   12.3834 C   0  0  0  0  0  0  0  0  0  0  0  0
   11.2735  -12.0365   15.2570 C   0  0  1  0  0  0  0  0  0  0  0  0
   16.2731  -11.9179   13.2649 C   0  0  0  0  0  0  0  0  0  0  0  0
   15.5723  -10.8243   13.7427 C   0  0  0  0  0  0  0  0  0  0  0  0
   15.3090  -15.0323   13.9040 H   0  0  0  0  0  0  0  0  0  0  0  0
   14.3724  -13.7661   13.4727 H   0  0  0  0  0  0  0  0  0  0  0  0
   12.8444  -10.2277   14.5500 H   0  0  0  0  0  0  0  0  0  0  0  0
   12.1788  -14.9046   11.1338 H   0  0  0  0  0  0  0  0  0  0  0  0
   10.0142  -16.9826    9.0200 H   0  0  0  0  0  0  0  0  0  0  0  0
   11.1720  -15.8613    8.7576 H   0  0  0  0  0  0  0  0  0  0  0  0
   11.4876  -17.1552    9.7025 H   0  0  0  0  0  0  0  0  0  0  0  0
   17.1958  -13.6330   13.9265 H   0  0  0  0  0  0  0  0  0  0  0  0
   16.0594  -13.0701   14.9553 H   0  0  0  0  0  0  0  0  0  0  0  0
   15.1546  -11.6323   15.5675 H   0  0  0  0  0  0  0  0  0  0  0  0
   15.0145  -10.0059   15.5249 H   0  0  0  0  0  0  0  0  0  0  0  0
    9.7499  -14.6573   15.3527 H   0  0  0  0  0  0  0  0  0  0  0  0
    8.7790  -13.6775   14.4786 H   0  0  0  0  0  0  0  0  0  0  0  0
    8.9934  -13.4372   17.0835 H   0  0  0  0  0  0  0  0  0  0  0  0
    8.6296  -12.1596   16.1337 H   0  0  0  0  0  0  0  0  0  0  0  0
   17.5904  -10.5917   10.5460 H   0  0  0  0  0  0  0  0  0  0  0  0
   11.2205  -12.8915   17.1607 H   0  0  0  0  0  0  0  0  0  0  0  0
   10.5612  -11.3983   17.1125 H   0  0  0  0  0  0  0  0  0  0  0  0
    8.2493  -16.0912   10.9046 H   0  0  0  0  0  0  0  0  0  0  0  0
    8.5160  -14.4954   12.9395 H   0  0  0  0  0  0  0  0  0  0  0  0
   17.4869  -12.6579   11.7590 H   0  0  0  0  0  0  0  0  0  0  0  0
   15.1003   -8.8432   13.3385 H   0  0  0  0  0  0  0  0  0  0  0  0
   10.9995  -11.1493   14.8858 H   0  0  0  0  0  0  0  0  0  0  0  0
  1 20  1  0  0  0  0
  2 19  2  0  0  0  0
  3 21  2  0  0  0  0
  4  9  1  0  0  0  0
  5 10  1  0  0  0  0
  5 19  1  0  0  0  0
  6 22  1  0  0  0  0
  6 23  1  0  0  0  0
  7 11  1  0  0  0  0
  7 21  1  0  0  0  0
  7 24  1  0  0  0  0
  8 22  1  0  0  0  0
  9 25  1  0  0  0  0
 10 26  1  0  0  0  0
 11 12  1  0  0  0  0
 12 14  1  0  0  0  0
 13 17  2  0  0  0  0
 13 20  1  0  0  0  0
 14 24  1  0  0  0  0
 15 16  1  0  0  0  0
 15 22  2  0  0  0  0
 16 23  2  0  0  0  0
 17 25  1  0  0  0  0
 18 20  2  0  0  0  0
 18 26  1  0  0  0  0
 19 24  1  0  0  0  0
 21 23  1  0  0  0  0
 25 26  2  0  0  0  0
  4 27  1  0  0  0  0
  4 28  1  0  0  0  0
  5 29  1  0  0  0  0
  6 30  1  0  0  0  0
  8 31  1  0  0  0  0
  8 32  1  0  0  0  0
  8 33  1  0  0  0  0
  9 34  1  0  0  0  0
  9 35  1  0  0  0  0
 10 36  1  0  0  0  0
 10 37  1  0  0  0  0
 11 38  1  0  0  0  0
 11 39  1  0  0  0  0
 12 40  1  0  0  0  0
 12 41  1  0  0  0  0
 13 42  1  0  0  0  0
 14 43  1  0  0  0  0
 14 44  1  0  0  0  0
 15 45  1  0  0  0  0
 16 46  1  0  0  0  0
 17 47  1  0  0  0  0
 18 48  1  0  0  0  0
 24 49  1  0  0  0  0
M  END
> <pdb_id>
4YES

> <uniprot_id>
P00734

> <usmiles>
Clc1cc(c(cc1)CN)CNC(=O)[C@H]2N(C(=O)C=3NC(=CC3)C)CCC2

$$$$
467_A_4000
          07202414163D 1   1.00000     0.00000     0
            
 44 46  0  0  0  0            999 V2000
   53.5114  -11.6910   33.3926 Cl  0  0  0  0  0  0  0  0  0  0  0  0
   53.6981   -6.5421   25.9705 F   0  0  0  0  0  0  0  0  0  0  0  0
   54.9980  -11.4232   26.2019 F   0  0  0  0  0  0  0  0  0  0  0  0
   53.7001  -11.6720   27.8462 F   0  0  0  0  0  0  0  0  0  0  0  0
   55.0168  -13.2592   27.2591 F   0  0  0  0  0  0  0  0  0  0  0  0
   55.3837  -10.1159   30.7300 O   0  0  0  0  0  0  0  0  0  0  0  0
   49.9307  -12.3536   31.8510 N   0  0  0  0  0  0  0  0  0  0  0  0
   51.0445   -8.8908   26.9454 N   0  0  0  0  0  0  0  0  0  0  0  0
   49.0332  -11.5096   29.6832 N   0  0  0  0  0  0  0  0  0  0  0  0
   55.8503  -10.0026   28.5163 N   0  0  0  0  0  0  0  0  0  0  0  0
   52.7672   -8.8748   28.6877 N   0  0  0  0  0  0  0  0  0  0  0  0
   54.7102   -7.4616   28.4590 N   0  0  0  0  0  0  0  0  0  0  0  0
   56.8252   -7.2675   29.6814 C   0  0  0  0  0  0  0  0  0  0  0  0
   54.6667   -7.3377   30.9413 C   0  0  0  0  0  0  0  0  0  0  0  0
   51.0296  -12.3686   32.6451 C   0  0  0  0  0  0  0  0  0  0  0  0
   51.7644   -7.9631   26.2139 C   0  0  0  0  0  0  0  0  0  0  0  0
   49.5170  -10.6636   28.6785 C   0  0  0  0  0  0  0  0  0  0  0  0
   55.9960  -11.4302   28.3233 C   0  0  0  0  0  0  0  0  0  0  0  0
   52.3028  -10.8498   31.1576 C   0  0  0  0  0  0  0  0  0  0  0  0
   52.2101  -11.6253   32.3015 C   0  0  0  0  0  0  0  0  0  0  0  0
   52.9963   -7.4549   26.6796 C   0  0  0  0  0  0  0  0  0  0  0  0
   55.5602   -9.4271   29.7343 C   0  0  0  0  0  0  0  0  0  0  0  0
   50.0193  -11.5957   30.6907 C   0  0  0  0  0  0  0  0  0  0  0  0
   51.5787   -9.3102   28.1822 C   0  0  0  0  0  0  0  0  0  0  0  0
   53.4921   -7.9468   27.9553 C   0  0  0  0  0  0  0  0  0  0  0  0
   50.8029  -10.2137   29.0126 C   0  0  0  0  0  0  0  0  0  0  0  0
   51.1527  -10.8106   30.2850 C   0  0  0  0  0  0  0  0  0  0  0  0
   54.9311  -11.9501   27.4073 C   0  0  0  0  0  0  0  0  0  0  0  0
   55.4202   -7.8779   29.7217 C   0  0  0  0  0  0  0  0  0  0  0  0
   48.1463  -11.9714   29.6870 H   0  0  0  0  0  0  0  0  0  0  0  0
   55.9661   -9.4031   27.7245 H   0  0  0  0  0  0  0  0  0  0  0  0
   55.1607   -6.7545   27.9141 H   0  0  0  0  0  0  0  0  0  0  0  0
   57.3247   -7.5257   30.5084 H   0  0  0  0  0  0  0  0  0  0  0  0
   57.3133   -7.6072   28.8775 H   0  0  0  0  0  0  0  0  0  0  0  0
   56.7545   -6.2712   29.6322 H   0  0  0  0  0  0  0  0  0  0  0  0
   55.1410   -7.6162   31.7764 H   0  0  0  0  0  0  0  0  0  0  0  0
   54.6305   -6.3394   30.8955 H   0  0  0  0  0  0  0  0  0  0  0  0
   53.7366   -7.7050   30.9480 H   0  0  0  0  0  0  0  0  0  0  0  0
   51.0182  -12.9081   33.4870 H   0  0  0  0  0  0  0  0  0  0  0  0
   51.4045   -7.6459   25.3365 H   0  0  0  0  0  0  0  0  0  0  0  0
   49.0200  -10.4166   27.8466 H   0  0  0  0  0  0  0  0  0  0  0  0
   55.9221  -11.8906   29.2079 H   0  0  0  0  0  0  0  0  0  0  0  0
   56.8933  -11.6178   27.9238 H   0  0  0  0  0  0  0  0  0  0  0  0
   53.1343  -10.3369   30.9441 H   0  0  0  0  0  0  0  0  0  0  0  0
  1 20  1  0  0  0  0
  2 21  1  0  0  0  0
  3 28  1  0  0  0  0
  4 28  1  0  0  0  0
  5 28  1  0  0  0  0
  6 22  2  0  0  0  0
  7 15  2  0  0  0  0
  7 23  1  0  0  0  0
  8 16  1  0  0  0  0
  8 24  2  0  0  0  0
  9 17  1  0  0  0  0
  9 23  1  0  0  0  0
 10 18  1  0  0  0  0
 10 22  1  0  0  0  0
 11 24  1  0  0  0  0
 11 25  2  0  0  0  0
 12 25  1  0  0  0  0
 12 29  1  0  0  0  0
 13 29  1  0  0  0  0
 14 29  1  0  0  0  0
 15 20  1  0  0  0  0
 16 21  2  0  0  0  0
 17 26  2  0  0  0  0
 18 28  1  0  0  0  0
 19 20  2  0  0  0  0
 19 27  1  0  0  0  0
 21 25  1  0  0  0  0
 22 29  1  0  0  0  0
 23 27  2  0  0  0  0
 24 26  1  0  0  0  0
 26 27  1  0  0  0  0
  9 30  1  0  0  0  0
 10 31  1  0  0  0  0
 12 32  1  0  0  0  0
 13 33  1  0  0  0  0
 13 34  1  0  0  0  0
 13 35  1  0  0  0  0
 14 36  1  0  0  0  0
 14 37  1  0  0  0  0
 14 38  1  0  0  0  0
 15 39  1  0  0  0  0
 16 40  1  0  0  0  0
 17 41  1  0  0  0  0
 18 42  1  0  0  0  0
 18 43  1  0  0  0  0
 19 44  1  0  0  0  0
M  END
> <pdb_id>
4YTH

> <uniprot_id>
O60674

> <usmiles>
Clc1cnc2NC=C(c3nc(NC(C(=O)NCC(F)(F)F)(C)C)c(F)cn3)c2c1

$$$$
46G_A_1401
          07202415303D 1   1.00000     0.00000     0
            
 48 52  0  0  0  0            999 V2000
   -3.6883  -14.6366   21.8616 F   0  0  0  0  0  0  0  0  0  0  0  0
   -0.9954  -12.6724   16.4801 F   0  0  0  0  0  0  0  0  0  0  0  0
   -5.5772  -13.2329   16.3488 O   0  0  0  0  0  0  0  0  0  0  0  0
   -2.6337  -17.8965   11.5145 O   0  0  0  0  0  0  0  0  0  0  0  0
   -6.8630  -13.0010   15.8680 N   0  0  0  0  0  0  0  0  0  0  0  0
   -1.0713  -14.3109   20.4764 N   0  0  0  0  0  0  0  0  0  0  0  0
   -0.2221  -14.1104   19.5740 N   0  0  0  0  0  0  0  0  0  0  0  0
   -0.3002  -18.4417   14.1643 N   0  0  0  0  0  0  0  0  0  0  0  0
   -2.2055  -13.9227   18.6445 N   0  0  0  0  0  0  0  0  0  0  0  0
   -3.8817  -17.1845   11.3947 C   0  0  0  0  0  0  0  0  0  0  0  0
   -9.1951  -13.1797   16.7366 C   0  0  0  0  0  0  0  0  0  0  0  0
    1.2270  -13.1082   17.2740 C   0  0  0  0  0  0  0  0  0  0  0  0
   -1.0647  -18.6115   13.1017 C   0  0  0  0  0  0  0  0  0  0  0  0
   -3.3279  -13.7454   17.8332 C   0  0  0  0  0  0  0  0  0  0  0  0
    0.5070  -17.1551   15.9517 C   0  0  0  0  0  0  0  0  0  0  0  0
    0.5261  -15.9592   16.6631 C   0  0  0  0  0  0  0  0  0  0  0  0
   -4.7063  -14.1851   19.7657 C   0  0  0  0  0  0  0  0  0  0  0  0
   -7.0222  -13.6777   17.9566 C   0  0  0  0  0  0  0  0  0  0  0  0
   -1.9255  -16.3728   13.2972 C   0  0  0  0  0  0  0  0  0  0  0  0
   -1.0977  -15.0115   15.1419 C   0  0  0  0  0  0  0  0  0  0  0  0
   -3.5747  -14.3541   20.5535 C   0  0  0  0  0  0  0  0  0  0  0  0
   -1.8972  -17.6071   12.6290 C   0  0  0  0  0  0  0  0  0  0  0  0
   -2.3083  -14.2127   19.9958 C   0  0  0  0  0  0  0  0  0  0  0  0
   -5.7218  -13.6714   17.6319 C   0  0  0  0  0  0  0  0  0  0  0  0
   -0.8488  -13.8678   18.4311 C   0  0  0  0  0  0  0  0  0  0  0  0
   -7.6864  -13.2860   16.8636 C   0  0  0  0  0  0  0  0  0  0  0  0
   -0.3020  -17.2780   14.8329 C   0  0  0  0  0  0  0  0  0  0  0  0
   -4.5962  -13.9035   18.4066 C   0  0  0  0  0  0  0  0  0  0  0  0
   -1.1173  -16.2159   14.4232 C   0  0  0  0  0  0  0  0  0  0  0  0
   -0.2763  -14.8860   16.2586 C   0  0  0  0  0  0  0  0  0  0  0  0
   -0.2343  -13.5778   17.0741 C   0  0  1  0  0  0  0  0  0  0  0  0
   -4.3446  -17.4625   10.5531 H   0  0  0  0  0  0  0  0  0  0  0  0
   -4.4630  -17.3962   12.1804 H   0  0  0  0  0  0  0  0  0  0  0  0
   -3.7030  -16.2009   11.3677 H   0  0  0  0  0  0  0  0  0  0  0  0
   -9.6217  -13.4402   17.6028 H   0  0  0  0  0  0  0  0  0  0  0  0
   -9.4452  -12.2379   16.5119 H   0  0  0  0  0  0  0  0  0  0  0  0
   -9.5125  -13.7909   16.0116 H   0  0  0  0  0  0  0  0  0  0  0  0
    1.7506  -13.8309   17.7252 H   0  0  0  0  0  0  0  0  0  0  0  0
    1.6366  -12.9055   16.3845 H   0  0  0  0  0  0  0  0  0  0  0  0
    1.2378  -12.2849   17.8414 H   0  0  0  0  0  0  0  0  0  0  0  0
   -1.0433  -19.4895   12.6235 H   0  0  0  0  0  0  0  0  0  0  0  0
   -3.2287  -13.5111   16.8661 H   0  0  0  0  0  0  0  0  0  0  0  0
    1.0750  -17.9233   16.2468 H   0  0  0  0  0  0  0  0  0  0  0  0
    1.1151  -15.8663   17.4660 H   0  0  0  0  0  0  0  0  0  0  0  0
   -5.6126  -14.2668   20.1805 H   0  0  0  0  0  0  0  0  0  0  0  0
   -7.4175  -13.9261   18.8409 H   0  0  0  0  0  0  0  0  0  0  0  0
   -2.5087  -15.6271   12.9751 H   0  0  0  0  0  0  0  0  0  0  0  0
   -1.6719  -14.2455   14.8529 H   0  0  0  0  0  0  0  0  0  0  0  0
  1 21  1  0  0  0  0
  2 31  1  0  0  0  0
  3  5  1  0  0  0  0
  3 24  1  0  0  0  0
  4 10  1  0  0  0  0
  4 22  1  0  0  0  0
  5 26  2  0  0  0  0
  6  7  1  0  0  0  0
  6 23  2  0  0  0  0
  7 25  2  0  0  0  0
  8 13  2  0  0  0  0
  8 27  1  0  0  0  0
  9 14  1  0  0  0  0
  9 23  1  0  0  0  0
  9 25  1  0  0  0  0
 11 26  1  0  0  0  0
 12 31  1  0  0  0  0
 13 22  1  0  0  0  0
 14 28  2  0  0  0  0
 15 16  1  0  0  0  0
 15 27  2  0  0  0  0
 16 30  2  0  0  0  0
 17 21  2  0  0  0  0
 17 28  1  0  0  0  0
 18 24  2  0  0  0  0
 18 26  1  0  0  0  0
 19 22  2  0  0  0  0
 19 29  1  0  0  0  0
 20 29  2  0  0  0  0
 20 30  1  0  0  0  0
 21 23  1  0  0  0  0
 24 28  1  0  0  0  0
 25 31  1  0  0  0  0
 27 29  1  0  0  0  0
 30 31  1  0  0  0  0
 10 32  1  0  0  0  0
 10 33  1  0  0  0  0
 10 34  1  0  0  0  0
 11 35  1  0  0  0  0
 11 36  1  0  0  0  0
 11 37  1  0  0  0  0
 12 38  1  0  0  0  0
 12 39  1  0  0  0  0
 12 40  1  0  0  0  0
 13 41  1  0  0  0  0
 14 42  1  0  0  0  0
 15 43  1  0  0  0  0
 16 44  1  0  0  0  0
 17 45  1  0  0  0  0
 18 46  1  0  0  0  0
 19 47  1  0  0  0  0
 20 48  1  0  0  0  0
M  END
> <pdb_id>
4XMO

> <uniprot_id>
P08581

> <usmiles>
FC=1C2=NN=C(N2C=C(C=3ON=C(C3)C)C1)[C@](F)(c4cc5c(ncc(OC)c5)cc4)C

$$$$
46U_A_501
          07192419343D 1   1.00000     0.00000     0
            
 58 60  0  0  0  0            999 V2000
   44.6906   24.6804   50.0156 O   0  0  0  0  0  0  0  0  0  0  0  0
   43.1025   24.2967   52.7365 O   0  0  0  0  0  0  0  0  0  0  0  0
   41.3453   26.6228   54.1822 O   0  0  0  0  0  0  0  0  0  0  0  0
   46.2197   16.6906   52.8300 N   0  0  0  0  0  0  0  0  0  0  0  0
   47.4692   18.1159   54.1036 N   0  0  0  0  0  0  0  0  0  0  0  0
   43.9358   22.6708   49.5451 N   0  0  0  0  0  0  0  0  0  0  0  0
   42.1611   25.5495   51.1640 N   0  0  0  0  0  0  0  0  0  0  0  0
   42.5230   26.4003   53.4567 C   0  0  0  0  0  0  0  0  0  0  0  0
   45.2532   22.0753   49.2619 C   0  0  0  0  0  0  0  0  0  0  0  0
   41.4148   26.6685   50.5031 C   0  0  0  0  0  0  0  0  0  0  0  0
   37.9534   25.0073   55.9024 C   0  0  0  0  0  0  0  0  0  0  0  0
   41.5678   26.3605   49.0141 C   0  0  0  0  0  0  0  0  0  0  0  0
   37.6947   25.5971   54.5744 C   0  0  0  0  0  0  0  0  0  0  0  0
   39.2281   24.2227   55.9518 C   0  0  0  0  0  0  0  0  0  0  0  0
   38.9135   26.4553   54.3448 C   0  0  0  0  0  0  0  0  0  0  0  0
   40.3806   25.1029   55.6130 C   0  0  0  0  0  0  0  0  0  0  0  0
   41.7818   24.8645   48.8418 C   0  0  0  0  0  0  0  0  0  0  0  0
   45.8287   21.2781   51.6518 C   0  0  0  0  0  0  0  0  0  0  0  0
   45.7865   19.7027   49.8455 C   0  0  0  0  0  0  0  0  0  0  0  0
   46.1731   20.2751   52.5591 C   0  0  0  0  0  0  0  0  0  0  0  0
   46.1297   18.7140   50.7608 C   0  0  0  0  0  0  0  0  0  0  0  0
   43.7004   23.9538   49.9240 C   0  0  0  0  0  0  0  0  0  0  0  0
   42.5870   25.3339   52.3520 C   0  0  0  0  0  0  0  0  0  0  0  0
   46.6912   17.9006   53.0567 C   0  0  0  0  0  0  0  0  0  0  0  0
   40.2642   25.7600   54.3049 C   0  0  0  0  0  0  0  0  0  0  0  0
   45.6292   21.0182   50.2874 C   0  0  0  0  0  0  0  0  0  0  0  0
   42.2817   24.4376   50.2255 C   0  0  1  0  0  0  0  0  0  0  0  0
   46.3213   18.9981   52.1061 C   0  0  0  0  0  0  0  0  0  0  0  0
   45.6309   16.5235   52.0392 H   0  0  0  0  0  0  0  0  0  0  0  0
   46.4508   15.9399   53.4488 H   0  0  0  0  0  0  0  0  0  0  0  0
   47.8290   19.0322   54.2792 H   0  0  0  0  0  0  0  0  0  0  0  0
   43.1392   22.0739   49.4492 H   0  0  0  0  0  0  0  0  0  0  0  0
   43.2265   26.1587   54.1252 H   0  0  0  0  0  0  0  0  0  0  0  0
   42.7587   27.2708   53.0246 H   0  0  0  0  0  0  0  0  0  0  0  0
   45.9442   22.7981   49.2743 H   0  0  0  0  0  0  0  0  0  0  0  0
   45.2291   21.6528   48.3559 H   0  0  0  0  0  0  0  0  0  0  0  0
   41.8215   27.5535   50.7296 H   0  0  0  0  0  0  0  0  0  0  0  0
   40.4518   26.6654   50.7725 H   0  0  0  0  0  0  0  0  0  0  0  0
   37.1947   24.3987   56.1348 H   0  0  0  0  0  0  0  0  0  0  0  0
   38.0065   25.7455   56.5749 H   0  0  0  0  0  0  0  0  0  0  0  0
   42.3547   26.8569   48.6475 H   0  0  0  0  0  0  0  0  0  0  0  0
   40.7407   26.6399   48.5265 H   0  0  0  0  0  0  0  0  0  0  0  0
   36.8615   26.1500   54.5823 H   0  0  0  0  0  0  0  0  0  0  0  0
   37.6172   24.8873   53.8743 H   0  0  0  0  0  0  0  0  0  0  0  0
   39.1804   23.4714   55.2936 H   0  0  0  0  0  0  0  0  0  0  0  0
   39.3536   23.8521   56.8721 H   0  0  0  0  0  0  0  0  0  0  0  0
   38.9464   27.1317   55.0806 H   0  0  0  0  0  0  0  0  0  0  0  0
   38.7907   26.9215   53.4687 H   0  0  0  0  0  0  0  0  0  0  0  0
   41.2118   24.5470   55.6131 H   0  0  0  0  0  0  0  0  0  0  0  0
   40.4530   25.8109   56.3155 H   0  0  0  0  0  0  0  0  0  0  0  0
   42.4658   24.6764   48.1369 H   0  0  0  0  0  0  0  0  0  0  0  0
   40.9266   24.4019   48.6083 H   0  0  0  0  0  0  0  0  0  0  0  0
   45.7203   22.2145   51.9856 H   0  0  0  0  0  0  0  0  0  0  0  0
   45.6536   19.4743   48.8811 H   0  0  0  0  0  0  0  0  0  0  0  0
   46.3089   20.4900   53.5263 H   0  0  0  0  0  0  0  0  0  0  0  0
   46.2416   17.7730   50.4415 H   0  0  0  0  0  0  0  0  0  0  0  0
   40.2808   25.0787   53.5731 H   0  0  0  0  0  0  0  0  0  0  0  0
   41.7327   23.6683   50.5523 H   0  0  0  0  0  0  0  0  0  0  0  0
  1 22  2  0  0  0  0
  2 23  2  0  0  0  0
  3  8  1  0  0  0  0
  3 25  1  0  0  0  0
  4 24  1  0  0  0  0
  5 24  2  0  0  0  0
  6  9  1  0  0  0  0
  6 22  1  0  0  0  0
  7 10  1  0  0  0  0
  7 23  1  0  0  0  0
  7 27  1  0  0  0  0
  8 23  1  0  0  0  0
  9 26  1  0  0  0  0
 10 12  1  0  0  0  0
 11 13  1  0  0  0  0
 11 14  1  0  0  0  0
 12 17  1  0  0  0  0
 13 15  1  0  0  0  0
 14 16  1  0  0  0  0
 15 25  1  0  0  0  0
 16 25  1  0  0  0  0
 17 27  1  0  0  0  0
 18 20  1  0  0  0  0
 18 26  2  0  0  0  0
 19 21  2  0  0  0  0
 19 26  1  0  0  0  0
 20 28  2  0  0  0  0
 21 28  1  0  0  0  0
 22 27  1  0  0  0  0
 24 28  1  0  0  0  0
  4 29  1  0  0  0  0
  4 30  1  0  0  0  0
  5 31  1  0  0  0  0
  6 32  1  0  0  0  0
  8 33  1  0  0  0  0
  8 34  1  0  0  0  0
  9 35  1  0  0  0  0
  9 36  1  0  0  0  0
 10 37  1  0  0  0  0
 10 38  1  0  0  0  0
 11 39  1  0  0  0  0
 11 40  1  0  0  0  0
 12 41  1  0  0  0  0
 12 42  1  0  0  0  0
 13 43  1  0  0  0  0
 13 44  1  0  0  0  0
 14 45  1  0  0  0  0
 14 46  1  0  0  0  0
 15 47  1  0  0  0  0
 15 48  1  0  0  0  0
 16 49  1  0  0  0  0
 16 50  1  0  0  0  0
 17 51  1  0  0  0  0
 17 52  1  0  0  0  0
 18 53  1  0  0  0  0
 19 54  1  0  0  0  0
 20 55  1  0  0  0  0
 21 56  1  0  0  0  0
 25 57  1  0  0  0  0
 27 58  1  0  0  0  0
M  END
> <pdb_id>
2ZDM

> <uniprot_id>
P00760

> <usmiles>
O=C(N1[C@H](C(=O)NCc2ccc(cc2)C(=N)N)CCC1)COC3CCCCC3

$$$$
472_A_1
          07202405583D 1   1.00000     0.00000     0
            
 43 46  0  0  0  0            999 V2000
   68.0987   47.2711   10.1250 O   0  0  0  0  0  0  0  0  0  0  0  0
   65.8266   48.5559    6.3313 N   0  0  0  0  0  0  0  0  0  0  0  0
   67.3832   52.5755   11.5854 N   0  0  0  0  0  0  0  0  0  0  0  0
   71.7754   46.5468    3.7815 N   0  0  0  0  0  0  0  0  0  0  0  0
   67.4821   49.6274    7.5258 N   0  0  0  0  0  0  0  0  0  0  0  0
   66.8617   47.5844    8.2215 N   0  0  0  0  0  0  0  0  0  0  0  0
   66.1662   46.3154    8.2401 C   0  0  0  0  0  0  0  0  0  0  0  0
   72.7139   45.6017    4.0234 C   0  0  0  0  0  0  0  0  0  0  0  0
   67.4895   52.7903   10.2563 C   0  0  0  0  0  0  0  0  0  0  0  0
   67.5675   51.3093   12.0092 C   0  0  0  0  0  0  0  0  0  0  0  0
   71.4456   47.3662    4.8143 C   0  0  0  0  0  0  0  0  0  0  0  0
   73.3349   45.4447    5.2521 C   0  0  0  0  0  0  0  0  0  0  0  0
   72.1287   49.7793    8.9517 C   0  0  0  0  0  0  0  0  0  0  0  0
   67.7758   51.7906    9.3399 C   0  0  0  0  0  0  0  0  0  0  0  0
   67.8579   50.2396   11.1675 C   0  0  0  0  0  0  0  0  0  0  0  0
   72.9729   46.3027    6.2895 C   0  0  0  0  0  0  0  0  0  0  0  0
   72.5480   48.9277    7.9259 C   0  0  0  0  0  0  0  0  0  0  0  0
   70.7707   49.9337    9.2401 C   0  0  0  0  0  0  0  0  0  0  0  0
   70.2481   48.3841    7.4754 C   0  0  0  0  0  0  0  0  0  0  0  0
   66.7537   48.5783    7.3168 C   0  0  0  0  0  0  0  0  0  0  0  0
   67.7634   47.9537    9.1679 C   0  0  0  0  0  0  0  0  0  0  0  0
   72.0064   47.2995    6.0888 C   0  0  0  0  0  0  0  0  0  0  0  0
   71.6088   48.2143    7.1685 C   0  0  0  0  0  0  0  0  0  0  0  0
   67.9680   50.4724    9.7907 C   0  0  0  0  0  0  0  0  0  0  0  0
   69.7994   49.2346    8.5008 C   0  0  0  0  0  0  0  0  0  0  0  0
   68.2846   49.3619    8.7736 C   0  0  2  0  0  0  0  0  0  0  0  0
   65.2728   47.7363    6.1844 H   0  0  0  0  0  0  0  0  0  0  0  0
   65.6954   49.3589    5.7500 H   0  0  0  0  0  0  0  0  0  0  0  0
   66.4567   45.7877    9.0383 H   0  0  0  0  0  0  0  0  0  0  0  0
   65.1804   46.4762    8.2876 H   0  0  0  0  0  0  0  0  0  0  0  0
   66.3809   45.8053    7.4072 H   0  0  0  0  0  0  0  0  0  0  0  0
   72.9717   44.9864    3.2785 H   0  0  0  0  0  0  0  0  0  0  0  0
   67.3544   53.7205    9.9150 H   0  0  0  0  0  0  0  0  0  0  0  0
   67.4909   51.1272   12.9895 H   0  0  0  0  0  0  0  0  0  0  0  0
   70.7515   48.0667    4.6482 H   0  0  0  0  0  0  0  0  0  0  0  0
   74.0249   44.7344    5.3911 H   0  0  0  0  0  0  0  0  0  0  0  0
   72.8081   50.2834    9.4849 H   0  0  0  0  0  0  0  0  0  0  0  0
   67.8451   52.0050    8.3656 H   0  0  0  0  0  0  0  0  0  0  0  0
   67.9858   49.3202   11.5395 H   0  0  0  0  0  0  0  0  0  0  0  0
   73.4065   46.2068    7.1855 H   0  0  0  0  0  0  0  0  0  0  0  0
   73.5237   48.8268    7.7312 H   0  0  0  0  0  0  0  0  0  0  0  0
   70.4868   50.5460    9.9780 H   0  0  0  0  0  0  0  0  0  0  0  0
   69.5703   47.8784    6.9417 H   0  0  0  0  0  0  0  0  0  0  0  0
  1 21  2  0  0  0  0
  2 20  1  0  0  0  0
  3  9  2  0  0  0  0
  3 10  1  0  0  0  0
  4  8  2  0  0  0  0
  4 11  1  0  0  0  0
  5 20  2  0  0  0  0
  5 26  1  0  0  0  0
  6  7  1  0  0  0  0
  6 20  1  0  0  0  0
  6 21  1  0  0  0  0
  8 12  1  0  0  0  0
  9 14  1  0  0  0  0
 10 15  2  0  0  0  0
 11 22  2  0  0  0  0
 12 16  2  0  0  0  0
 13 17  2  0  0  0  0
 13 18  1  0  0  0  0
 14 24  2  0  0  0  0
 15 24  1  0  0  0  0
 16 22  1  0  0  0  0
 17 23  1  0  0  0  0
 18 25  2  0  0  0  0
 19 23  2  0  0  0  0
 19 25  1  0  0  0  0
 21 26  1  0  0  0  0
 22 23  1  0  0  0  0
 24 26  1  0  0  0  0
 25 26  1  0  0  0  0
  2 27  1  0  0  0  0
  2 28  1  0  0  0  0
  7 29  1  0  0  0  0
  7 30  1  0  0  0  0
  7 31  1  0  0  0  0
  8 32  1  0  0  0  0
  9 33  1  0  0  0  0
 10 34  1  0  0  0  0
 11 35  1  0  0  0  0
 12 36  1  0  0  0  0
 13 37  1  0  0  0  0
 14 38  1  0  0  0  0
 15 39  1  0  0  0  0
 16 40  1  0  0  0  0
 17 41  1  0  0  0  0
 18 42  1  0  0  0  0
 19 43  1  0  0  0  0
M  END
> <pdb_id>
3IN3

> <uniprot_id>
P56817

> <usmiles>
O=C1N(C(=N[C@@]1(c2cc(c3cnccc3)ccc2)c4ccncc4)N)C

$$$$
47A_H_305
          07202416143D 1   1.00000     0.00000     0
            
 19 19  0  0  0  0            999 V2000
   16.5898   -7.9153   10.7285 Br  0  0  0  0  0  0  0  0  0  0  0  0
   15.7227  -12.6469   15.5547 O   0  0  0  0  0  0  0  0  0  0  0  0
   15.7518  -15.1321   14.3902 N   0  0  0  0  0  0  0  0  0  0  0  0
   16.7456  -14.1318   14.0001 C   0  0  0  0  0  0  0  0  0  0  0  0
   15.5998   -9.4272   12.9174 C   0  0  0  0  0  0  0  0  0  0  0  0
   17.2822  -10.5303   11.5945 C   0  0  0  0  0  0  0  0  0  0  0  0
   15.5235  -10.5255   13.7409 C   0  0  0  0  0  0  0  0  0  0  0  0
   17.1829  -11.6405   12.4168 C   0  0  0  0  0  0  0  0  0  0  0  0
   16.4745   -9.4476   11.8505 C   0  0  0  0  0  0  0  0  0  0  0  0
   16.2712  -12.7722   14.4708 C   0  0  0  0  0  0  0  0  0  0  0  0
   16.3050  -11.6483   13.4995 C   0  0  0  0  0  0  0  0  0  0  0  0
   16.0516  -16.0362   14.0857 H   0  0  0  0  0  0  0  0  0  0  0  0
   15.6512  -15.1318   15.3851 H   0  0  0  0  0  0  0  0  0  0  0  0
   16.8472  -14.1275   13.0053 H   0  0  0  0  0  0  0  0  0  0  0  0
   17.6253  -14.3473   14.4241 H   0  0  0  0  0  0  0  0  0  0  0  0
   15.0289   -8.6243   13.0893 H   0  0  0  0  0  0  0  0  0  0  0  0
   17.9276  -10.5166   10.8308 H   0  0  0  0  0  0  0  0  0  0  0  0
   14.8989  -10.5160   14.5218 H   0  0  0  0  0  0  0  0  0  0  0  0
   17.7471  -12.4452   12.2318 H   0  0  0  0  0  0  0  0  0  0  0  0
  1  9  1  0  0  0  0
  2 10  2  0  0  0  0
  3  4  1  0  0  0  0
  4 10  1  0  0  0  0
  5  7  1  0  0  0  0
  5  9  2  0  0  0  0
  6  8  2  0  0  0  0
  6  9  1  0  0  0  0
  7 11  2  0  0  0  0
  8 11  1  0  0  0  0
 10 11  1  0  0  0  0
  3 12  1  0  0  0  0
  3 13  1  0  0  0  0
  4 14  1  0  0  0  0
  4 15  1  0  0  0  0
  5 16  1  0  0  0  0
  6 17  1  0  0  0  0
  7 18  1  0  0  0  0
  8 19  1  0  0  0  0
M  END
> <pdb_id>
6YSJ

> <uniprot_id>
P00734

> <usmiles>
Brc1ccc(cc1)C(=O)CN

$$$$
47D_A_600
          07202404503D 1   1.00000     0.00000     0
            
 33 35  0  0  0  0            999 V2000
   64.1813   -2.7552   32.5557 Cl  0  0  0  0  0  0  0  0  0  0  0  0
   64.5406   -6.9531   37.0793 S   0  0  0  0  0  0  0  0  0  0  0  0
   62.8559   -5.9365   42.7296 O   0  0  0  0  0  0  0  0  0  0  0  0
   62.9668   -6.5681   40.5755 O   0  0  0  0  0  0  0  0  0  0  0  0
   66.1354   -6.0449   40.4023 O   0  0  0  0  0  0  0  0  0  0  0  0
   66.8800   -9.5680   37.7112 O   0  0  0  0  0  0  0  0  0  0  0  0
   66.5184   -5.5315   36.2004 N   0  0  0  0  0  0  0  0  0  0  0  0
   65.2818   -7.9800   41.0148 N   0  0  0  0  0  0  0  0  0  0  0  0
   66.5199   -7.7717   39.0508 N   0  0  0  0  0  0  0  0  0  0  0  0
   65.0917   -9.2823   40.7840 C   0  0  0  0  0  0  0  0  0  0  0  0
   67.2235   -6.9429   38.0974 C   0  0  0  0  0  0  0  0  0  0  0  0
   64.6167   -7.3876   42.1809 C   0  0  0  0  0  0  0  0  0  0  0  0
   65.5956   -9.8824   39.7020 C   0  0  0  0  0  0  0  0  0  0  0  0
   63.0838   -4.6072   34.1411 C   0  0  0  0  0  0  0  0  0  0  0  0
   63.1146   -5.5554   35.1442 C   0  0  0  0  0  0  0  0  0  0  0  0
   65.5094   -4.2373   34.3588 C   0  0  0  0  0  0  0  0  0  0  0  0
   66.2440   -6.4274   37.0554 C   0  0  0  0  0  0  0  0  0  0  0  0
   63.3905   -6.6070   41.7291 C   0  0  0  0  0  0  0  0  0  0  0  0
   64.2735   -3.9399   33.8153 C   0  0  0  0  0  0  0  0  0  0  0  0
   65.9659   -7.2525   40.1814 C   0  0  0  0  0  0  0  0  0  0  0  0
   64.3376   -5.7884   35.7714 C   0  0  0  0  0  0  0  0  0  0  0  0
   66.3875   -9.0933   38.7438 C   0  0  0  0  0  0  0  0  0  0  0  0
   65.5017   -5.1076   35.4362 C   0  0  0  0  0  0  0  0  0  0  0  0
   63.2476   -6.0102   43.6467 H   0  0  0  0  0  0  0  0  0  0  0  0
   64.5593   -9.8208   41.4371 H   0  0  0  0  0  0  0  0  0  0  0  0
   67.9353   -7.4826   37.6478 H   0  0  0  0  0  0  0  0  0  0  0  0
   67.6422   -6.1693   38.5730 H   0  0  0  0  0  0  0  0  0  0  0  0
   65.2504   -6.7706   42.6474 H   0  0  0  0  0  0  0  0  0  0  0  0
   64.3360   -8.1140   42.8082 H   0  0  0  0  0  0  0  0  0  0  0  0
   65.4366  -10.8570   39.5445 H   0  0  0  0  0  0  0  0  0  0  0  0
   62.2329   -4.4011   33.6580 H   0  0  0  0  0  0  0  0  0  0  0  0
   62.2909   -6.0560   35.4106 H   0  0  0  0  0  0  0  0  0  0  0  0
   66.3564   -3.8483   33.9966 H   0  0  0  0  0  0  0  0  0  0  0  0
  1 19  1  0  0  0  0
  2 17  1  0  0  0  0
  2 21  1  0  0  0  0
  3 18  1  0  0  0  0
  4 18  2  0  0  0  0
  5 20  2  0  0  0  0
  6 22  2  0  0  0  0
  7 17  2  0  0  0  0
  7 23  1  0  0  0  0
  8 10  1  0  0  0  0
  8 12  1  0  0  0  0
  8 20  1  0  0  0  0
  9 11  1  0  0  0  0
  9 20  1  0  0  0  0
  9 22  1  0  0  0  0
 10 13  2  0  0  0  0
 11 17  1  0  0  0  0
 12 18  1  0  0  0  0
 13 22  1  0  0  0  0
 14 15  1  0  0  0  0
 14 19  2  0  0  0  0
 15 21  2  0  0  0  0
 16 19  1  0  0  0  0
 16 23  2  0  0  0  0
 21 23  1  0  0  0  0
  3 24  1  0  0  0  0
 10 25  1  0  0  0  0
 11 26  1  0  0  0  0
 11 27  1  0  0  0  0
 12 28  1  0  0  0  0
 12 29  1  0  0  0  0
 13 30  1  0  0  0  0
 14 31  1  0  0  0  0
 15 32  1  0  0  0  0
 16 33  1  0  0  0  0
M  END
> <pdb_id>
2PDG

> <uniprot_id>
P15121

> <usmiles>
Clc1cc2N=C(Sc2cc1)CN3C(=O)N(C=CC3=O)CC(=O)O

$$$$
47D_A_600
          07192418223D 1   1.00000     0.00000     0
            
 33 35  0  0  0  0            999 V2000
   16.3699   -2.1755    9.0173 Cl  0  0  0  0  0  0  0  0  0  0  0  0
   16.1893   -6.6368   13.2653 S   0  0  0  0  0  0  0  0  0  0  0  0
   14.5822   -5.4464   19.1134 O   0  0  0  0  0  0  0  0  0  0  0  0
   14.6679   -5.9793   16.9541 O   0  0  0  0  0  0  0  0  0  0  0  0
   17.8294   -5.9687   16.7256 O   0  0  0  0  0  0  0  0  0  0  0  0
   18.0817   -9.4915   14.0084 O   0  0  0  0  0  0  0  0  0  0  0  0
   18.2916   -5.2697   12.6776 N   0  0  0  0  0  0  0  0  0  0  0  0
   16.7350   -7.7878   17.3287 N   0  0  0  0  0  0  0  0  0  0  0  0
   17.9667   -7.7002   15.3680 N   0  0  0  0  0  0  0  0  0  0  0  0
   16.3857   -9.0303   17.0963 C   0  0  0  0  0  0  0  0  0  0  0  0
   18.7774   -6.9415   14.4216 C   0  0  0  0  0  0  0  0  0  0  0  0
   16.1261   -7.1243   18.4905 C   0  0  0  0  0  0  0  0  0  0  0  0
   16.7962   -9.6806   15.9945 C   0  0  0  0  0  0  0  0  0  0  0  0
   15.0598   -4.0866   10.3951 C   0  0  0  0  0  0  0  0  0  0  0  0
   14.9549   -5.1104   11.3460 C   0  0  0  0  0  0  0  0  0  0  0  0
   17.4751   -3.7653   10.8916 C   0  0  0  0  0  0  0  0  0  0  0  0
   17.9029   -6.2126   13.4498 C   0  0  0  0  0  0  0  0  0  0  0  0
   15.0599   -6.1371   18.0878 C   0  0  0  0  0  0  0  0  0  0  0  0
   16.2855   -3.4581   10.2235 C   0  0  0  0  0  0  0  0  0  0  0  0
   17.5034   -7.1291   16.5031 C   0  0  0  0  0  0  0  0  0  0  0  0
   16.1285   -5.3976   12.0344 C   0  0  0  0  0  0  0  0  0  0  0  0
   17.6518   -8.9797   15.0587 C   0  0  0  0  0  0  0  0  0  0  0  0
   17.3459   -4.7608   11.8541 C   0  0  0  0  0  0  0  0  0  0  0  0
   14.9359   -5.6098   20.0344 H   0  0  0  0  0  0  0  0  0  0  0  0
   15.8005   -9.5045   17.7541 H   0  0  0  0  0  0  0  0  0  0  0  0
   19.3735   -7.5694   13.9213 H   0  0  0  0  0  0  0  0  0  0  0  0
   19.3355   -6.2800   14.9225 H   0  0  0  0  0  0  0  0  0  0  0  0
   16.8401   -6.6392   18.9953 H   0  0  0  0  0  0  0  0  0  0  0  0
   15.7151   -7.8198   19.0798 H   0  0  0  0  0  0  0  0  0  0  0  0
   16.5177  -10.6259   15.8244 H   0  0  0  0  0  0  0  0  0  0  0  0
   14.2667   -3.8138    9.8504 H   0  0  0  0  0  0  0  0  0  0  0  0
   14.0990   -5.5986   11.5170 H   0  0  0  0  0  0  0  0  0  0  0  0
   18.3428   -3.3090   10.6945 H   0  0  0  0  0  0  0  0  0  0  0  0
  1 19  1  0  0  0  0
  2 17  1  0  0  0  0
  2 21  1  0  0  0  0
  3 18  1  0  0  0  0
  4 18  2  0  0  0  0
  5 20  2  0  0  0  0
  6 22  2  0  0  0  0
  7 17  2  0  0  0  0
  7 23  1  0  0  0  0
  8 10  1  0  0  0  0
  8 12  1  0  0  0  0
  8 20  1  0  0  0  0
  9 11  1  0  0  0  0
  9 20  1  0  0  0  0
  9 22  1  0  0  0  0
 10 13  2  0  0  0  0
 11 17  1  0  0  0  0
 12 18  1  0  0  0  0
 13 22  1  0  0  0  0
 14 15  1  0  0  0  0
 14 19  2  0  0  0  0
 15 21  2  0  0  0  0
 16 19  1  0  0  0  0
 16 23  2  0  0  0  0
 21 23  1  0  0  0  0
  3 24  1  0  0  0  0
 10 25  1  0  0  0  0
 11 26  1  0  0  0  0
 11 27  1  0  0  0  0
 12 28  1  0  0  0  0
 12 29  1  0  0  0  0
 13 30  1  0  0  0  0
 14 31  1  0  0  0  0
 15 32  1  0  0  0  0
 16 33  1  0  0  0  0
M  END
> <pdb_id>
2PDH

> <uniprot_id>
P15121

> <usmiles>
Clc1cc2N=C(Sc2cc1)CN3C(=O)N(C=CC3=O)CC(=O)O

$$$$
48I_B_402
          07202404503D 1   1.00000     0.00000     0
            
 33 34  0  0  0  0            999 V2000
   62.9103   -4.4083   33.8066 Cl  0  0  0  0  0  0  0  0  0  0  0  0
   67.2726   -4.0566   34.1189 O   0  5  0  0  0  0  0  0  0  0  0  0
   65.4329   -3.3445   33.3729 O   0  0  0  0  0  0  0  0  0  0  0  0
   62.6959   -5.8492   42.8157 O   0  0  0  0  0  0  0  0  0  0  0  0
   62.6843   -6.3581   40.6422 O   0  0  0  0  0  0  0  0  0  0  0  0
   65.7516   -6.1866   40.2348 O   0  0  0  0  0  0  0  0  0  0  0  0
   65.8841   -9.8341   37.4353 O   0  0  0  0  0  0  0  0  0  0  0  0
   66.0461   -4.0810   34.1183 N   0  3  0  0  0  0  0  0  0  0  0  0
   64.7044   -8.1335   40.9096 N   0  0  0  0  0  0  0  0  0  0  0  0
   65.7717   -7.9963   38.8138 N   0  0  0  0  0  0  0  0  0  0  0  0
   64.3670   -9.4083   40.6752 C   0  0  0  0  0  0  0  0  0  0  0  0
   64.2743   -7.4191   42.1098 C   0  0  0  0  0  0  0  0  0  0  0  0
   66.5211   -7.1814   37.8417 C   0  0  0  0  0  0  0  0  0  0  0  0
   64.7553  -10.0266   39.5001 C   0  0  0  0  0  0  0  0  0  0  0  0
   63.4209   -6.0495   35.8429 C   0  0  0  0  0  0  0  0  0  0  0  0
   64.2040   -6.7043   36.7933 C   0  0  0  0  0  0  0  0  0  0  0  0
   66.1377   -5.6012   35.9435 C   0  0  0  0  0  0  0  0  0  0  0  0
   63.1270   -6.4685   41.8106 C   0  0  0  0  0  0  0  0  0  0  0  0
   65.4267   -7.4199   39.9708 C   0  0  0  0  0  0  0  0  0  0  0  0
   65.4888   -9.2934   38.5864 C   0  0  0  0  0  0  0  0  0  0  0  0
   64.0065   -5.1845   34.9583 C   0  0  0  0  0  0  0  0  0  0  0  0
   65.5843   -6.4906   36.8456 C   0  0  0  0  0  0  0  0  0  0  0  0
   65.3702   -4.9466   34.9951 C   0  0  0  0  0  0  0  0  0  0  0  0
   63.1115   -6.0007   43.7125 H   0  0  0  0  0  0  0  0  0  0  0  0
   63.8325   -9.9149   41.3518 H   0  0  0  0  0  0  0  0  0  0  0  0
   65.0458   -6.8943   42.4696 H   0  0  0  0  0  0  0  0  0  0  0  0
   63.9754   -8.0841   42.7942 H   0  0  0  0  0  0  0  0  0  0  0  0
   67.1506   -7.7735   37.3386 H   0  0  0  0  0  0  0  0  0  0  0  0
   67.0415   -6.4844   38.3351 H   0  0  0  0  0  0  0  0  0  0  0  0
   64.5118  -10.9790   39.3166 H   0  0  0  0  0  0  0  0  0  0  0  0
   62.4347   -6.2114   35.8078 H   0  0  0  0  0  0  0  0  0  0  0  0
   63.7745   -7.3318   37.4426 H   0  0  0  0  0  0  0  0  0  0  0  0
   67.1215   -5.4255   35.9769 H   0  0  0  0  0  0  0  0  0  0  0  0
  1 21  1  0  0  0  0
  2  8  1  0  0  0  0
  3  8  2  0  0  0  0
  4 18  1  0  0  0  0
  5 18  2  0  0  0  0
  6 19  2  0  0  0  0
  7 20  2  0  0  0  0
  8 23  1  0  0  0  0
  9 11  1  0  0  0  0
  9 12  1  0  0  0  0
  9 19  1  0  0  0  0
 10 13  1  0  0  0  0
 10 19  1  0  0  0  0
 10 20  1  0  0  0  0
 11 14  2  0  0  0  0
 12 18  1  0  0  0  0
 13 22  1  0  0  0  0
 14 20  1  0  0  0  0
 15 16  1  0  0  0  0
 15 21  2  0  0  0  0
 16 22  2  0  0  0  0
 17 22  1  0  0  0  0
 17 23  2  0  0  0  0
 21 23  1  0  0  0  0
  4 24  1  0  0  0  0
 11 25  1  0  0  0  0
 12 26  1  0  0  0  0
 12 27  1  0  0  0  0
 13 28  1  0  0  0  0
 13 29  1  0  0  0  0
 14 30  1  0  0  0  0
 15 31  1  0  0  0  0
 16 32  1  0  0  0  0
 17 33  1  0  0  0  0
M  CHG  2   2  -1   8   1
M  END
> <pdb_id>
4XZH

> <uniprot_id>
P15121

> <usmiles>
Clc1c([N+]([O-])=O)cc(cc1)CN2C(=O)N(C=CC2=O)CC(=O)O

$$$$
48S_A_502
          07202406173D 1   1.00000     0.00000     0
            
 37 37  0  0  0  0            999 V2000
   -0.5530   16.1202   21.2889 P   0  0  0  0  0  0  0  0  0  0  0  0
   -1.7464   15.5159   21.9809 O   0  0  0  0  0  0  0  0  0  0  0  0
   -1.0319   17.0579   20.1987 O   0  0  0  0  0  0  0  0  0  0  0  0
    0.2734   16.9065   22.2739 O   0  0  0  0  0  0  0  0  0  0  0  0
    4.9112   14.3177   18.4648 O   0  0  0  0  0  0  0  0  0  0  0  0
    3.6856   15.0982   20.7235 O   0  0  0  0  0  0  0  0  0  0  0  0
    3.9125   13.5923   19.1025 N   0  0  0  0  0  0  0  0  0  0  0  0
    3.4972   12.3238   18.5115 C   0  0  0  0  0  0  0  0  0  0  0  0
   -1.7591    9.9238   24.3520 C   0  0  0  0  0  0  0  0  0  0  0  0
    0.4343   14.8115   20.5591 C   0  0  0  0  0  0  0  0  0  0  0  0
   -1.5021   11.6158   22.5146 C   0  0  0  0  0  0  0  0  0  0  0  0
    0.2638   11.3993   24.1304 C   0  0  0  0  0  0  0  0  0  0  0  0
   -0.7887   12.6166   21.8602 C   0  0  0  0  0  0  0  0  0  0  0  0
    0.9753   12.4021   23.4719 C   0  0  0  0  0  0  0  0  0  0  0  0
    2.2736   13.2265   20.8940 C   0  0  0  0  0  0  0  0  0  0  0  0
    3.3429   14.0456   20.2229 C   0  0  0  0  0  0  0  0  0  0  0  0
   -0.9799   11.0051   23.6513 C   0  0  0  0  0  0  0  0  0  0  0  0
    0.4409   13.0278   22.3449 C   0  0  0  0  0  0  0  0  0  0  0  0
    1.2235   14.0548   21.6232 C   0  0  2  0  0  0  0  0  0  0  0  0
   -1.4354   14.8961   22.7015 H   0  0  0  0  0  0  0  0  0  0  0  0
   -0.2427   17.4618   19.7361 H   0  0  0  0  0  0  0  0  0  0  0  0
    5.2131   13.8237   17.6495 H   0  0  0  0  0  0  0  0  0  0  0  0
    2.7772   11.9148   19.0721 H   0  0  0  0  0  0  0  0  0  0  0  0
    3.1496   12.4844   17.5877 H   0  0  0  0  0  0  0  0  0  0  0  0
    4.2803   11.7033   18.4698 H   0  0  0  0  0  0  0  0  0  0  0  0
   -1.2406    9.5984   25.1427 H   0  0  0  0  0  0  0  0  0  0  0  0
   -2.6377   10.2908   24.6576 H   0  0  0  0  0  0  0  0  0  0  0  0
   -1.9165    9.1642   23.7210 H   0  0  0  0  0  0  0  0  0  0  0  0
    1.0736   15.2128   19.9031 H   0  0  0  0  0  0  0  0  0  0  0  0
   -0.1712   14.1717   20.0859 H   0  0  0  0  0  0  0  0  0  0  0  0
   -2.3958   11.3338   22.1657 H   0  0  0  0  0  0  0  0  0  0  0  0
    0.6477   10.9650   24.9453 H   0  0  0  0  0  0  0  0  0  0  0  0
   -1.1662   13.0400   21.0366 H   0  0  0  0  0  0  0  0  0  0  0  0
    1.8759   12.6748   23.8102 H   0  0  0  0  0  0  0  0  0  0  0  0
    2.7121   12.6203   21.5576 H   0  0  0  0  0  0  0  0  0  0  0  0
    1.8127   12.6788   20.1958 H   0  0  0  0  0  0  0  0  0  0  0  0
    1.6541   14.6895   22.2648 H   0  0  0  0  0  0  0  0  0  0  0  0
  1  2  1  0  0  0  0
  1  3  1  0  0  0  0
  1  4  2  0  0  0  0
  1 10  1  0  0  0  0
  5  7  1  0  0  0  0
  6 16  2  0  0  0  0
  7  8  1  0  0  0  0
  7 16  1  0  0  0  0
  9 17  1  0  0  0  0
 10 19  1  0  0  0  0
 11 13  1  0  0  0  0
 11 17  2  0  0  0  0
 12 14  2  0  0  0  0
 12 17  1  0  0  0  0
 13 18  2  0  0  0  0
 14 18  1  0  0  0  0
 15 16  1  0  0  0  0
 15 19  1  0  0  0  0
 18 19  1  0  0  0  0
  2 20  1  0  0  0  0
  3 21  1  0  0  0  0
  5 22  1  0  0  0  0
  8 23  1  0  0  0  0
  8 24  1  0  0  0  0
  8 25  1  0  0  0  0
  9 26  1  0  0  0  0
  9 27  1  0  0  0  0
  9 28  1  0  0  0  0
 10 29  1  0  0  0  0
 10 30  1  0  0  0  0
 11 31  1  0  0  0  0
 12 32  1  0  0  0  0
 13 33  1  0  0  0  0
 14 34  1  0  0  0  0
 15 35  1  0  0  0  0
 15 36  1  0  0  0  0
 19 37  1  0  0  0  0
M  END
> <pdb_id>
4Y6S

> <uniprot_id>
Q8IKG4

> <usmiles>
P(=O)(O)(O)C[C@@H](c1ccc(cc1)C)CC(=O)N(O)C

$$$$
48U_A_301
          07192422073D 1   1.00000     0.00000     0
            
 49 51  0  0  0  0            999 V2000
   42.4482   28.8784   12.4451 Cl  0  0  0  0  0  0  0  0  0  0  0  0
   39.8563   27.9408   13.5719 S   0  0  0  0  0  0  0  0  0  0  0  0
   35.0597   26.9797   14.7235 S   0  0  0  0  0  0  0  0  0  0  0  0
   35.1483   33.8341   16.8615 F   0  0  0  0  0  0  0  0  0  0  0  0
   34.9935   25.6901   15.3518 O   0  0  0  0  0  0  0  0  0  0  0  0
   34.2751   27.2843   13.5669 O   0  0  0  0  0  0  0  0  0  0  0  0
   36.1112   34.2256   22.5345 O   0  0  0  0  0  0  0  0  0  0  0  0
   36.5249   29.6895   16.9852 O   0  0  0  0  0  0  0  0  0  0  0  0
   34.4783   27.9597   15.8682 N   0  0  0  0  0  0  0  0  0  0  0  0
   37.7723   35.1444   21.3786 N   0  0  0  0  0  0  0  0  0  0  0  0
   34.7379   31.1300   17.1905 N   0  0  0  0  0  0  0  0  0  0  0  0
   38.6861   35.2637   20.2304 C   0  0  0  0  0  0  0  0  0  0  0  0
   38.0397   35.9802   22.5597 C   0  0  0  0  0  0  0  0  0  0  0  0
   36.7157   27.4146   14.4238 C   0  0  0  0  0  0  0  0  0  0  0  0
   33.4385   31.3662   16.5781 C   0  0  0  0  0  0  0  0  0  0  0  0
   37.0422   27.7693   13.1814 C   0  0  0  0  0  0  0  0  0  0  0  0
   39.9536   29.1273   11.2782 C   0  0  0  0  0  0  0  0  0  0  0  0
   38.6079   28.8279   11.5078 C   0  0  0  0  0  0  0  0  0  0  0  0
   33.1300   30.0544   15.8650 C   0  0  0  0  0  0  0  0  0  0  0  0
   35.5410   31.4126   19.4946 C   0  0  0  0  0  0  0  0  0  0  0  0
   36.0179   32.2028   20.5206 C   0  0  0  0  0  0  0  0  0  0  0  0
   35.9149   34.1337   19.0694 C   0  0  0  0  0  0  0  0  0  0  0  0
   40.7302   28.7110   12.3073 C   0  0  0  0  0  0  0  0  0  0  0  0
   38.3711   28.1826   12.7157 C   0  0  0  0  0  0  0  0  0  0  0  0
   35.4391   33.3087   18.0630 C   0  0  0  0  0  0  0  0  0  0  0  0
   36.7086   34.3418   21.4764 C   0  0  0  0  0  0  0  0  0  0  0  0
   35.4002   30.0601   16.6834 C   0  0  0  0  0  0  0  0  0  0  0  0
   34.4944   29.3888   15.6579 C   0  0  1  0  0  0  0  0  0  0  0  0
   35.2483   31.9473   18.2479 C   0  0  0  0  0  0  0  0  0  0  0  0
   36.2094   33.5598   20.3067 C   0  0  0  0  0  0  0  0  0  0  0  0
   35.0064   27.7821   16.6986 H   0  0  0  0  0  0  0  0  0  0  0  0
   38.3900   34.6447   19.5030 H   0  0  0  0  0  0  0  0  0  0  0  0
   38.6753   36.2047   19.8921 H   0  0  0  0  0  0  0  0  0  0  0  0
   39.6136   35.0228   20.5161 H   0  0  0  0  0  0  0  0  0  0  0  0
   37.3479   35.8002   23.2590 H   0  0  0  0  0  0  0  0  0  0  0  0
   38.9456   35.7633   22.9234 H   0  0  0  0  0  0  0  0  0  0  0  0
   38.0073   36.9452   22.2994 H   0  0  0  0  0  0  0  0  0  0  0  0
   37.3972   27.3992   15.1555 H   0  0  0  0  0  0  0  0  0  0  0  0
   33.4838   32.1238   15.9269 H   0  0  0  0  0  0  0  0  0  0  0  0
   32.7477   31.5650   17.2732 H   0  0  0  0  0  0  0  0  0  0  0  0
   36.3104   27.7522   12.5001 H   0  0  0  0  0  0  0  0  0  0  0  0
   40.2983   29.5888   10.4608 H   0  0  0  0  0  0  0  0  0  0  0  0
   37.8807   29.0574   10.8609 H   0  0  0  0  0  0  0  0  0  0  0  0
   32.6859   30.2276   14.9859 H   0  0  0  0  0  0  0  0  0  0  0  0
   32.5391   29.4777   16.4291 H   0  0  0  0  0  0  0  0  0  0  0  0
   35.4035   30.4348   19.6527 H   0  0  0  0  0  0  0  0  0  0  0  0
   36.2240   31.7997   21.4122 H   0  0  0  0  0  0  0  0  0  0  0  0
   36.0437   35.1130   18.9134 H   0  0  0  0  0  0  0  0  0  0  0  0
   34.8274   29.5877   14.7361 H   0  0  0  0  0  0  0  0  0  0  0  0
  1 23  1  0  0  0  0
  2 23  1  0  0  0  0
  2 24  1  0  0  0  0
  3  5  2  0  0  0  0
  3  6  2  0  0  0  0
  3  9  1  0  0  0  0
  3 14  1  0  0  0  0
  4 25  1  0  0  0  0
  7 26  2  0  0  0  0
  8 27  2  0  0  0  0
  9 28  1  0  0  0  0
 10 12  1  0  0  0  0
 10 13  1  0  0  0  0
 10 26  1  0  0  0  0
 11 15  1  0  0  0  0
 11 27  1  0  0  0  0
 11 29  1  0  0  0  0
 14 16  2  0  0  0  0
 15 19  1  0  0  0  0
 16 24  1  0  0  0  0
 17 18  1  0  0  0  0
 17 23  2  0  0  0  0
 18 24  2  0  0  0  0
 19 28  1  0  0  0  0
 20 21  2  0  0  0  0
 20 29  1  0  0  0  0
 21 30  1  0  0  0  0
 22 25  1  0  0  0  0
 22 30  2  0  0  0  0
 25 29  2  0  0  0  0
 26 30  1  0  0  0  0
 27 28  1  0  0  0  0
  9 31  1  0  0  0  0
 12 32  1  0  0  0  0
 12 33  1  0  0  0  0
 12 34  1  0  0  0  0
 13 35  1  0  0  0  0
 13 36  1  0  0  0  0
 13 37  1  0  0  0  0
 14 38  1  0  0  0  0
 15 39  1  0  0  0  0
 15 40  1  0  0  0  0
 16 41  1  0  0  0  0
 17 42  1  0  0  0  0
 18 43  1  0  0  0  0
 19 44  1  0  0  0  0
 19 45  1  0  0  0  0
 20 46  1  0  0  0  0
 21 47  1  0  0  0  0
 22 48  1  0  0  0  0
 28 49  1  0  0  0  0
M  END
> <pdb_id>
4Y6D

> <uniprot_id>
P00742

> <usmiles>
ClC=1SC(/C=C/S(=O)(=O)N[C@@H]2C(=O)N(c3c(F)cc(cc3)C(=O)N(C)C)CC2)=CC1

$$$$
49A_A_0
          07202416543D 1   1.00000     0.00000     0
            
 39 39  0  0  0  0            999 V2000
   64.8642   20.6357  -24.3725 O   0  0  0  0  0  0  0  0  0  0  0  0
   65.0633   19.5560  -22.4800 O   0  0  0  0  0  0  0  0  0  0  0  0
   62.8305   14.1024  -27.2742 O   0  0  0  0  0  0  0  0  0  0  0  0
   61.1310   19.9040  -27.9139 O   0  0  0  0  0  0  0  0  0  0  0  0
   64.0367   17.7300  -28.2227 O   0  0  0  0  0  0  0  0  0  0  0  0
   63.7196   18.6707  -25.5993 O   0  0  0  0  0  0  0  0  0  0  0  0
   62.1355   19.3570  -30.5208 N   0  0  0  0  0  0  0  0  0  0  0  0
   62.9217   15.0881  -23.7722 N   0  0  0  0  0  0  0  0  0  0  0  0
   61.5503   15.7021  -26.3387 N   0  0  0  0  0  0  0  0  0  0  0  0
   60.4726   13.9536  -27.5970 C   0  0  0  0  0  0  0  0  0  0  0  0
   62.9377   20.0289  -29.4641 C   0  0  0  0  0  0  0  0  0  0  0  0
   63.5458   17.4375  -23.5624 C   0  0  0  0  0  0  0  0  0  0  0  0
   64.6700   19.6247  -23.6614 C   0  0  0  0  0  0  0  0  0  0  0  0
   61.7238   14.5951  -27.0561 C   0  0  0  0  0  0  0  0  0  0  0  0
   62.4923   19.6300  -28.0561 C   0  0  2  0  0  0  0  0  0  0  0  0
   62.7352   18.1462  -27.7595 C   0  0  2  0  0  0  0  0  0  0  0  0
   63.9873   18.5548  -24.2428 C   0  0  0  0  0  0  0  0  0  0  0  0
   62.6162   17.9413  -26.1952 C   0  0  1  0  0  0  0  0  0  0  0  0
   62.5705   16.4391  -24.2180 C   0  0  1  0  0  0  0  0  0  0  0  0
   62.6668   16.4595  -25.7340 C   0  0  1  0  0  0  0  0  0  0  0  0
   64.5339   20.6542  -25.3162 H   0  0  0  0  0  0  0  0  0  0  0  0
   60.8330   19.6454  -26.9950 H   0  0  0  0  0  0  0  0  0  0  0  0
   64.1692   16.7604  -28.0173 H   0  0  0  0  0  0  0  0  0  0  0  0
   62.4607   19.6466  -31.4210 H   0  0  0  0  0  0  0  0  0  0  0  0
   62.2336   18.3656  -30.4340 H   0  0  0  0  0  0  0  0  0  0  0  0
   62.2978   14.4269  -24.1889 H   0  0  0  0  0  0  0  0  0  0  0  0
   63.8603   14.8798  -24.0471 H   0  0  0  0  0  0  0  0  0  0  0  0
   60.6186   16.0385  -26.2017 H   0  0  0  0  0  0  0  0  0  0  0  0
   59.6760   14.4910  -27.3200 H   0  0  0  0  0  0  0  0  0  0  0  0
   60.5205   13.9189  -28.5952 H   0  0  0  0  0  0  0  0  0  0  0  0
   60.3906   13.0251  -27.2347 H   0  0  0  0  0  0  0  0  0  0  0  0
   62.8376   21.0188  -29.5649 H   0  0  0  0  0  0  0  0  0  0  0  0
   63.8985   19.7774  -29.5809 H   0  0  0  0  0  0  0  0  0  0  0  0
   63.8639   17.2729  -22.6287 H   0  0  0  0  0  0  0  0  0  0  0  0
   63.0009   20.1775  -27.3915 H   0  0  0  0  0  0  0  0  0  0  0  0
   62.0333   17.6003  -28.2170 H   0  0  0  0  0  0  0  0  0  0  0  0
   61.7570   18.3462  -25.8824 H   0  0  0  0  0  0  0  0  0  0  0  0
   61.6343   16.6519  -23.9384 H   0  0  0  0  0  0  0  0  0  0  0  0
   63.5356   16.0531  -26.0171 H   0  0  0  0  0  0  0  0  0  0  0  0
  1 13  1  0  0  0  0
  2 13  2  0  0  0  0
  3 14  2  0  0  0  0
  4 15  1  0  0  0  0
  5 16  1  0  0  0  0
  6 17  1  0  0  0  0
  6 18  1  0  0  0  0
  7 11  1  0  0  0  0
  8 19  1  0  0  0  0
  9 14  1  0  0  0  0
  9 20  1  0  0  0  0
 10 14  1  0  0  0  0
 11 15  1  0  0  0  0
 12 17  2  0  0  0  0
 12 19  1  0  0  0  0
 13 17  1  0  0  0  0
 15 16  1  0  0  0  0
 16 18  1  0  0  0  0
 18 20  1  0  0  0  0
 19 20  1  0  0  0  0
  1 21  1  0  0  0  0
  4 22  1  0  0  0  0
  5 23  1  0  0  0  0
  7 24  1  0  0  0  0
  7 25  1  0  0  0  0
  8 26  1  0  0  0  0
  8 27  1  0  0  0  0
  9 28  1  0  0  0  0
 10 29  1  0  0  0  0
 10 30  1  0  0  0  0
 10 31  1  0  0  0  0
 11 32  1  0  0  0  0
 11 33  1  0  0  0  0
 12 34  1  0  0  0  0
 15 35  1  0  0  0  0
 16 36  1  0  0  0  0
 18 37  1  0  0  0  0
 19 38  1  0  0  0  0
 20 39  1  0  0  0  0
M  END
> <pdb_id>
1F8E

> <uniprot_id>
nan

> <usmiles>
O=C(O)C=1O[C@@H]([C@H](O)[C@H](O)CN)[C@H](NC(=O)C)[C@@H](N)C1

$$$$
49D_A_601
          07202417403D 1   1.00000     0.00000     0
            
 45 48  0  0  0  0            999 V2000
  102.7876   19.1069   12.9276 Cl  0  0  0  0  0  0  0  0  0  0  0  0
   95.7381   20.8583    6.6344 O   0  0  0  0  0  0  0  0  0  0  0  0
   95.2970   24.2103    9.1263 N   0  0  0  0  0  0  0  0  0  0  0  0
   96.1911   19.8965    8.6130 N   0  0  0  0  0  0  0  0  0  0  0  0
   96.1361   21.2066   10.5349 N   0  0  0  0  0  0  0  0  0  0  0  0
   96.6502   18.9496   10.7101 N   0  0  0  0  0  0  0  0  0  0  0  0
   95.5767   23.5209   10.1532 N   0  0  0  0  0  0  0  0  0  0  0  0
   96.0481   17.8617   12.8514 C   0  0  0  0  0  0  0  0  0  0  0  0
   95.3362   23.4092    8.0556 C   0  0  0  0  0  0  0  0  0  0  0  0
   95.8178   25.5652   13.0700 C   0  0  0  0  0  0  0  0  0  0  0  0
   94.3444   25.4624   12.6880 C   0  0  0  0  0  0  0  0  0  0  0  0
  100.2545   20.2371   12.7337 C   0  0  0  0  0  0  0  0  0  0  0  0
  100.3214   17.8445   12.5045 C   0  0  0  0  0  0  0  0  0  0  0  0
   96.5030   25.1362   11.8196 C   0  0  0  0  0  0  0  0  0  0  0  0
   94.3777   24.0137   12.3059 C   0  0  0  0  0  0  0  0  0  0  0  0
   98.8676   20.2093   12.5620 C   0  0  0  0  0  0  0  0  0  0  0  0
   98.9317   17.8137   12.3362 C   0  0  0  0  0  0  0  0  0  0  0  0
   96.3362   20.0125    9.9804 C   0  0  0  0  0  0  0  0  0  0  0  0
   95.8480   21.0034    7.8529 C   0  0  0  0  0  0  0  0  0  0  0  0
  100.9938   19.0562   12.7082 C   0  0  0  0  0  0  0  0  0  0  0  0
   95.8079   22.2655    9.7887 C   0  0  0  0  0  0  0  0  0  0  0  0
   96.8122   19.0185   12.1777 C   0  0  1  0  0  0  0  0  0  0  0  0
   95.7126   23.8365   11.6165 C   0  0  0  0  0  0  0  0  0  0  0  0
   98.1939   18.9977   12.3805 C   0  0  0  0  0  0  0  0  0  0  0  0
   95.6630   22.1805    8.4671 C   0  0  0  0  0  0  0  0  0  0  0  0
   96.3337   19.0117    8.1696 H   0  0  0  0  0  0  0  0  0  0  0  0
   96.7818   18.0710   10.2510 H   0  0  0  0  0  0  0  0  0  0  0  0
   96.1645   17.9182   13.8430 H   0  0  0  0  0  0  0  0  0  0  0  0
   95.0762   17.9281   12.6256 H   0  0  0  0  0  0  0  0  0  0  0  0
   96.4078   16.9885   12.5227 H   0  0  0  0  0  0  0  0  0  0  0  0
   95.1527   23.6824    7.1113 H   0  0  0  0  0  0  0  0  0  0  0  0
   96.0378   24.9547   13.8308 H   0  0  0  0  0  0  0  0  0  0  0  0
   96.0638   26.5034   13.3136 H   0  0  0  0  0  0  0  0  0  0  0  0
   94.1020   26.0578   11.9220 H   0  0  0  0  0  0  0  0  0  0  0  0
   93.7327   25.6442   13.4580 H   0  0  0  0  0  0  0  0  0  0  0  0
  100.7196   21.1108   12.8760 H   0  0  0  0  0  0  0  0  0  0  0  0
  100.8407   16.9902   12.4789 H   0  0  0  0  0  0  0  0  0  0  0  0
   97.4804   24.9734   11.9544 H   0  0  0  0  0  0  0  0  0  0  0  0
   96.3735   25.7848   11.0695 H   0  0  0  0  0  0  0  0  0  0  0  0
   93.6263   23.7946   11.6836 H   0  0  0  0  0  0  0  0  0  0  0  0
   94.3187   23.4323   13.1175 H   0  0  0  0  0  0  0  0  0  0  0  0
   98.3514   21.0657   12.5690 H   0  0  0  0  0  0  0  0  0  0  0  0
   98.4668   16.9416   12.1839 H   0  0  0  0  0  0  0  0  0  0  0  0
   96.4459   19.8888   12.5071 H   0  0  0  0  0  0  0  0  0  0  0  0
   96.2059   23.0888   12.0610 H   0  0  0  0  0  0  0  0  0  0  0  0
  1 20  1  0  0  0  0
  2 19  2  0  0  0  0
  3  7  1  0  0  0  0
  3  9  2  0  0  0  0
  4 18  1  0  0  0  0
  4 19  1  0  0  0  0
  5 18  2  0  0  0  0
  5 21  1  0  0  0  0
  6 18  1  0  0  0  0
  6 22  1  0  0  0  0
  7 21  1  0  0  0  0
  7 23  1  0  0  0  0
  8 22  1  0  0  0  0
  9 25  1  0  0  0  0
 10 11  1  0  0  0  0
 10 14  1  0  0  0  0
 11 15  1  0  0  0  0
 12 16  2  0  0  0  0
 12 20  1  0  0  0  0
 13 17  1  0  0  0  0
 13 20  2  0  0  0  0
 14 23  1  0  0  0  0
 15 23  1  0  0  0  0
 16 24  1  0  0  0  0
 17 24  2  0  0  0  0
 19 25  1  0  0  0  0
 21 25  2  0  0  0  0
 22 24  1  0  0  0  0
  4 26  1  0  0  0  0
  6 27  1  0  0  0  0
  8 28  1  0  0  0  0
  8 29  1  0  0  0  0
  8 30  1  0  0  0  0
  9 31  1  0  0  0  0
 10 32  1  0  0  0  0
 10 33  1  0  0  0  0
 11 34  1  0  0  0  0
 11 35  1  0  0  0  0
 12 36  1  0  0  0  0
 13 37  1  0  0  0  0
 14 38  1  0  0  0  0
 14 39  1  0  0  0  0
 15 40  1  0  0  0  0
 15 41  1  0  0  0  0
 16 42  1  0  0  0  0
 17 43  1  0  0  0  0
 22 44  1  0  0  0  0
 23 45  1  0  0  0  0
M  END
> <pdb_id>
4Y86

> <uniprot_id>
O76083

> <usmiles>
Clc1ccc(cc1)[C@@H](NC2=NC=3N(N=CC3C(=O)N2)C4CCCC4)C

$$$$
49K_A_402
          07192415303D 1   1.00000     0.00000     0
            
 35 36  0  0  0  0            999 V2000
   43.1920  -22.7150    8.9490 F   0  0  0  0  0  0  0  0  0  0  0  0
   51.0900  -25.7430    7.2420 N   0  0  0  0  0  0  0  0  0  0  0  0
   48.4420  -23.2830   14.3510 N   0  0  0  0  0  0  0  0  0  0  0  0
   47.2630  -23.1140   13.7930 N   0  0  0  0  0  0  0  0  0  0  0  0
   49.4810  -25.5820   10.7600 N   0  0  0  0  0  0  0  0  0  0  0  0
   48.1820  -26.3130   10.7150 C   0  0  0  0  0  0  0  0  0  0  0  0
   50.0190  -25.5810    8.2430 C   0  0  0  0  0  0  0  0  0  0  0  0
   49.3230  -23.6510   13.4230 C   0  0  0  0  0  0  0  0  0  0  0  0
   50.4380  -26.0050    9.6660 C   0  0  0  0  0  0  0  0  0  0  0  0
   49.3110  -24.1040   10.9020 C   0  0  0  0  0  0  0  0  0  0  0  0
   45.4490  -22.3080    9.5710 C   0  0  0  0  0  0  0  0  0  0  0  0
   44.0410  -23.6670   10.9910 C   0  0  0  0  0  0  0  0  0  0  0  0
   46.4970  -22.4800   10.4810 C   0  0  0  0  0  0  0  0  0  0  0  0
   45.0870  -23.8300   11.8920 C   0  0  0  0  0  0  0  0  0  0  0  0
   44.2200  -22.9040    9.8330 C   0  0  0  0  0  0  0  0  0  0  0  0
   47.3800  -23.3770   12.4960 C   0  0  0  0  0  0  0  0  0  0  0  0
   48.6590  -23.7090   12.2590 C   0  0  0  0  0  0  0  0  0  0  0  0
   46.3450  -23.2570   11.6300 C   0  0  0  0  0  0  0  0  0  0  0  0
   50.7553  -25.4521    6.3457 H   0  0  0  0  0  0  0  0  0  0  0  0
   51.8767  -25.1830    7.5019 H   0  0  0  0  0  0  0  0  0  0  0  0
   48.6452  -23.1550   15.3217 H   0  0  0  0  0  0  0  0  0  0  0  0
   47.5936  -25.9932   11.4577 H   0  0  0  0  0  0  0  0  0  0  0  0
   47.7337  -26.1424    9.8375 H   0  0  0  0  0  0  0  0  0  0  0  0
   48.3476  -27.2936   10.8196 H   0  0  0  0  0  0  0  0  0  0  0  0
   49.2375  -26.1389    7.9636 H   0  0  0  0  0  0  0  0  0  0  0  0
   49.7500  -24.6181    8.2658 H   0  0  0  0  0  0  0  0  0  0  0  0
   50.2932  -23.8465   13.5663 H   0  0  0  0  0  0  0  0  0  0  0  0
   50.5115  -27.0021    9.6849 H   0  0  0  0  0  0  0  0  0  0  0  0
   51.3318  -25.6011    9.8608 H   0  0  0  0  0  0  0  0  0  0  0  0
   48.7291  -23.7748   10.1583 H   0  0  0  0  0  0  0  0  0  0  0  0
   50.2097  -23.6699   10.8392 H   0  0  0  0  0  0  0  0  0  0  0  0
   45.5816  -21.7636    8.7427 H   0  0  0  0  0  0  0  0  0  0  0  0
   43.1566  -24.0973   11.1718 H   0  0  0  0  0  0  0  0  0  0  0  0
   47.3754  -22.0360   10.3042 H   0  0  0  0  0  0  0  0  0  0  0  0
   44.9447  -24.3568   12.7300 H   0  0  0  0  0  0  0  0  0  0  0  0
  1 15  1  0  0  0  0
  2  7  1  0  0  0  0
  3  4  1  0  0  0  0
  3  8  1  0  0  0  0
  4 16  2  0  0  0  0
  5  6  1  0  0  0  0
  5  9  1  0  0  0  0
  5 10  1  0  0  0  0
  7  9  1  0  0  0  0
  8 17  2  0  0  0  0
 10 17  1  0  0  0  0
 11 13  2  0  0  0  0
 11 15  1  0  0  0  0
 12 14  1  0  0  0  0
 12 15  2  0  0  0  0
 13 18  1  0  0  0  0
 14 18  2  0  0  0  0
 16 17  1  0  0  0  0
 16 18  1  0  0  0  0
  2 19  1  0  0  0  0
  2 20  1  0  0  0  0
  3 21  1  0  0  0  0
  6 22  1  0  0  0  0
  6 23  1  0  0  0  0
  6 24  1  0  0  0  0
  7 25  1  0  0  0  0
  7 26  1  0  0  0  0
  8 27  1  0  0  0  0
  9 28  1  0  0  0  0
  9 29  1  0  0  0  0
 10 30  1  0  0  0  0
 10 31  1  0  0  0  0
 11 32  1  0  0  0  0
 12 33  1  0  0  0  0
 13 34  1  0  0  0  0
 14 35  1  0  0  0  0
M  END
> <pdb_id>
4Y2H

> <uniprot_id>
Q96LA8

> <usmiles>
Fc1ccc(cc1)C2=NNC=C2CN(CCN)C

$$$$
49U_A_501
          07192419343D 1   1.00000     0.00000     0
            
 57 59  0  0  0  0            999 V2000
   44.9272   24.4666   49.9963 O   0  0  0  0  0  0  0  0  0  0  0  0
   43.4404   23.7989   52.5836 O   0  0  0  0  0  0  0  0  0  0  0  0
   47.5828   18.1772   54.0095 N   0  0  0  0  0  0  0  0  0  0  0  0
   46.3250   16.6405   52.8650 N   0  0  0  0  0  0  0  0  0  0  0  0
   44.0244   22.5930   49.4503 N   0  0  0  0  0  0  0  0  0  0  0  0
   42.5397   25.3270   51.2483 N   0  0  0  0  0  0  0  0  0  0  0  0
   45.2160   21.8937   49.1414 C   0  0  0  0  0  0  0  0  0  0  0  0
   42.0512   26.6880   50.9567 C   0  0  0  0  0  0  0  0  0  0  0  0
   41.4738   26.6230   49.5583 C   0  0  0  0  0  0  0  0  0  0  0  0
   38.3128   26.4986   54.2623 C   0  0  0  0  0  0  0  0  0  0  0  0
   38.1689   25.1928   55.0401 C   0  0  0  0  0  0  0  0  0  0  0  0
   42.7538   25.8691   53.5635 C   0  0  0  0  0  0  0  0  0  0  0  0
   42.1879   25.4204   48.9897 C   0  0  0  0  0  0  0  0  0  0  0  0
   39.7976   26.6384   53.8072 C   0  0  0  0  0  0  0  0  0  0  0  0
   39.6082   24.7343   55.3307 C   0  0  0  0  0  0  0  0  0  0  0  0
   41.9136   25.3068   54.6659 C   0  0  0  0  0  0  0  0  0  0  0  0
   45.7679   21.2240   51.4850 C   0  0  0  0  0  0  0  0  0  0  0  0
   45.8300   19.6025   49.7426 C   0  0  0  0  0  0  0  0  0  0  0  0
   46.1431   20.2445   52.3972 C   0  0  0  0  0  0  0  0  0  0  0  0
   46.2057   18.6325   50.6748 C   0  0  0  0  0  0  0  0  0  0  0  0
   46.7743   17.8767   53.0037 C   0  0  0  0  0  0  0  0  0  0  0  0
   43.9014   23.8294   49.8284 C   0  0  0  0  0  0  0  0  0  0  0  0
   42.9426   24.9110   52.4441 C   0  0  0  0  0  0  0  0  0  0  0  0
   42.5650   24.4472   50.0869 C   0  0  1  0  0  0  0  0  0  0  0  0
   45.6120   20.9091   50.1696 C   0  0  0  0  0  0  0  0  0  0  0  0
   40.4691   25.2760   54.1614 C   0  0  0  0  0  0  0  0  0  0  0  0
   46.3685   18.9376   52.0202 C   0  0  0  0  0  0  0  0  0  0  0  0
   47.9231   19.1115   54.1156 H   0  0  0  0  0  0  0  0  0  0  0  0
   47.8526   17.4696   54.6627 H   0  0  0  0  0  0  0  0  0  0  0  0
   45.7148   16.4125   52.1063 H   0  0  0  0  0  0  0  0  0  0  0  0
   43.1749   22.0721   49.3673 H   0  0  0  0  0  0  0  0  0  0  0  0
   45.9555   22.5594   49.0408 H   0  0  0  0  0  0  0  0  0  0  0  0
   45.0828   21.4101   48.2763 H   0  0  0  0  0  0  0  0  0  0  0  0
   42.8046   27.3445   50.9930 H   0  0  0  0  0  0  0  0  0  0  0  0
   41.3456   26.9538   51.6136 H   0  0  0  0  0  0  0  0  0  0  0  0
   41.6832   27.4512   49.0383 H   0  0  0  0  0  0  0  0  0  0  0  0
   40.4838   26.4835   49.5785 H   0  0  0  0  0  0  0  0  0  0  0  0
   38.0650   27.2701   54.8484 H   0  0  0  0  0  0  0  0  0  0  0  0
   37.7140   26.4826   53.4615 H   0  0  0  0  0  0  0  0  0  0  0  0
   37.6873   24.5094   54.4916 H   0  0  0  0  0  0  0  0  0  0  0  0
   37.6709   25.3464   55.8936 H   0  0  0  0  0  0  0  0  0  0  0  0
   43.6509   26.1086   53.9348 H   0  0  0  0  0  0  0  0  0  0  0  0
   42.3091   26.6918   53.2095 H   0  0  0  0  0  0  0  0  0  0  0  0
   43.0179   25.7236   48.5214 H   0  0  0  0  0  0  0  0  0  0  0  0
   41.5859   24.9606   48.3368 H   0  0  0  0  0  0  0  0  0  0  0  0
   40.2448   27.3867   54.2972 H   0  0  0  0  0  0  0  0  0  0  0  0
   39.8475   26.8076   52.8229 H   0  0  0  0  0  0  0  0  0  0  0  0
   39.6554   23.7360   55.3643 H   0  0  0  0  0  0  0  0  0  0  0  0
   39.9251   25.1125   56.2005 H   0  0  0  0  0  0  0  0  0  0  0  0
   41.9808   25.8864   55.4780 H   0  0  0  0  0  0  0  0  0  0  0  0
   42.2179   24.3812   54.8909 H   0  0  0  0  0  0  0  0  0  0  0  0
   45.6122   22.1617   51.7954 H   0  0  0  0  0  0  0  0  0  0  0  0
   45.7190   19.3607   48.7787 H   0  0  0  0  0  0  0  0  0  0  0  0
   46.2532   20.4961   53.3588 H   0  0  0  0  0  0  0  0  0  0  0  0
   46.3614   17.6943   50.3658 H   0  0  0  0  0  0  0  0  0  0  0  0
   41.8665   23.7371   50.1751 H   0  0  0  0  0  0  0  0  0  0  0  0
   40.4006   24.6558   53.3799 H   0  0  0  0  0  0  0  0  0  0  0  0
  1 22  2  0  0  0  0
  2 23  2  0  0  0  0
  3 21  1  0  0  0  0
  4 21  2  0  0  0  0
  5  7  1  0  0  0  0
  5 22  1  0  0  0  0
  6  8  1  0  0  0  0
  6 23  1  0  0  0  0
  6 24  1  0  0  0  0
  7 25  1  0  0  0  0
  8  9  1  0  0  0  0
  9 13  1  0  0  0  0
 10 11  1  0  0  0  0
 10 14  1  0  0  0  0
 11 15  1  0  0  0  0
 12 16  1  0  0  0  0
 12 23  1  0  0  0  0
 13 24  1  0  0  0  0
 14 26  1  0  0  0  0
 15 26  1  0  0  0  0
 16 26  1  0  0  0  0
 17 19  1  0  0  0  0
 17 25  2  0  0  0  0
 18 20  2  0  0  0  0
 18 25  1  0  0  0  0
 19 27  2  0  0  0  0
 20 27  1  0  0  0  0
 21 27  1  0  0  0  0
 22 24  1  0  0  0  0
  3 28  1  0  0  0  0
  3 29  1  0  0  0  0
  4 30  1  0  0  0  0
  5 31  1  0  0  0  0
  7 32  1  0  0  0  0
  7 33  1  0  0  0  0
  8 34  1  0  0  0  0
  8 35  1  0  0  0  0
  9 36  1  0  0  0  0
  9 37  1  0  0  0  0
 10 38  1  0  0  0  0
 10 39  1  0  0  0  0
 11 40  1  0  0  0  0
 11 41  1  0  0  0  0
 12 42  1  0  0  0  0
 12 43  1  0  0  0  0
 13 44  1  0  0  0  0
 13 45  1  0  0  0  0
 14 46  1  0  0  0  0
 14 47  1  0  0  0  0
 15 48  1  0  0  0  0
 15 49  1  0  0  0  0
 16 50  1  0  0  0  0
 16 51  1  0  0  0  0
 17 52  1  0  0  0  0
 18 53  1  0  0  0  0
 19 54  1  0  0  0  0
 20 55  1  0  0  0  0
 24 56  1  0  0  0  0
 26 57  1  0  0  0  0
M  END
> <pdb_id>
2ZDN

> <uniprot_id>
P00760

> <usmiles>
O=C(N1[C@H](C(=O)NCc2ccc(cc2)C(=N)N)CCC1)CCC3CCCC3

$$$$
49Z_A_602
          07202405383D 1   1.00000     0.00000     0
            
 33 34  0  0  0  0            999 V2000
   -1.2475    2.0699   32.8771 S   0  0  0  0  0  0  0  0  0  0  0  0
   -1.9442    8.4359   28.8345 F   0  0  0  0  0  0  0  0  0  0  0  0
   -2.8947    4.5962   31.0428 N   0  0  0  0  0  0  0  0  0  0  0  0
   -1.6021   -0.3927   34.0817 C   0  0  0  0  0  0  0  0  0  0  0  0
   -2.9136    5.9390   30.4700 C   0  0  0  0  0  0  0  0  0  0  0  0
   -2.3372    4.5972   32.3879 C   0  0  0  0  0  0  0  0  0  0  0  0
   -5.2072    9.5178   27.8486 C   0  0  0  0  0  0  0  0  0  0  0  0
   -5.8869    8.3177   27.8928 C   0  0  0  0  0  0  0  0  0  0  0  0
   -3.2118    5.9252   28.9789 C   0  0  0  0  0  0  0  0  0  0  0  0
   -3.3168    1.4700   34.2625 C   0  0  0  0  0  0  0  0  0  0  0  0
   -3.8709    9.5743   28.1665 C   0  0  0  0  0  0  0  0  0  0  0  0
   -3.4949    2.7861   33.8097 C   0  0  0  0  0  0  0  0  0  0  0  0
   -5.2625    7.1470   28.2564 C   0  0  0  0  0  0  0  0  0  0  0  0
   -2.1318    0.9422   33.8269 C   0  0  0  0  0  0  0  0  0  0  0  0
   -2.4709    3.2686   33.0210 C   0  0  0  0  0  0  0  0  0  0  0  0
   -3.2507    8.3897   28.5222 C   0  0  0  0  0  0  0  0  0  0  0  0
   -3.9223    7.1773   28.5787 C   0  0  0  0  0  0  0  0  0  0  0  0
   -2.3386    4.0026   30.4611 H   0  0  0  0  0  0  0  0  0  0  0  0
   -2.2479   -0.9051   34.6477 H   0  0  0  0  0  0  0  0  0  0  0  0
   -1.4688   -0.8698   33.2130 H   0  0  0  0  0  0  0  0  0  0  0  0
   -0.7265   -0.3183   34.5589 H   0  0  0  0  0  0  0  0  0  0  0  0
   -2.0199    6.3635   30.6155 H   0  0  0  0  0  0  0  0  0  0  0  0
   -3.6175    6.4768   30.9339 H   0  0  0  0  0  0  0  0  0  0  0  0
   -2.8227    5.2733   32.9420 H   0  0  0  0  0  0  0  0  0  0  0  0
   -1.3682    4.8397   32.3395 H   0  0  0  0  0  0  0  0  0  0  0  0
   -5.6901   10.3524   27.5835 H   0  0  0  0  0  0  0  0  0  0  0  0
   -6.8579    8.2985   27.6545 H   0  0  0  0  0  0  0  0  0  0  0  0
   -3.7883    5.1365   28.7653 H   0  0  0  0  0  0  0  0  0  0  0  0
   -2.3527    5.8573   28.4716 H   0  0  0  0  0  0  0  0  0  0  0  0
   -3.9746    0.9785   34.8332 H   0  0  0  0  0  0  0  0  0  0  0  0
   -3.3668   10.4376   28.1416 H   0  0  0  0  0  0  0  0  0  0  0  0
   -4.3007    3.3315   34.0405 H   0  0  0  0  0  0  0  0  0  0  0  0
   -5.7727    6.2875   28.2865 H   0  0  0  0  0  0  0  0  0  0  0  0
  1 14  1  0  0  0  0
  1 15  1  0  0  0  0
  2 16  1  0  0  0  0
  3  5  1  0  0  0  0
  3  6  1  0  0  0  0
  4 14  1  0  0  0  0
  5  9  1  0  0  0  0
  6 15  1  0  0  0  0
  7  8  2  0  0  0  0
  7 11  1  0  0  0  0
  8 13  1  0  0  0  0
  9 17  1  0  0  0  0
 10 12  1  0  0  0  0
 10 14  2  0  0  0  0
 11 16  2  0  0  0  0
 12 15  2  0  0  0  0
 13 17  2  0  0  0  0
 16 17  1  0  0  0  0
  3 18  1  0  0  0  0
  4 19  1  0  0  0  0
  4 20  1  0  0  0  0
  4 21  1  0  0  0  0
  5 22  1  0  0  0  0
  5 23  1  0  0  0  0
  6 24  1  0  0  0  0
  6 25  1  0  0  0  0
  7 26  1  0  0  0  0
  8 27  1  0  0  0  0
  9 28  1  0  0  0  0
  9 29  1  0  0  0  0
 10 30  1  0  0  0  0
 11 31  1  0  0  0  0
 12 32  1  0  0  0  0
 13 33  1  0  0  0  0
M  END
> <pdb_id>
4Y2Y

> <uniprot_id>
P34913

> <usmiles>
S1C(=CC=C1C)CNCCc2c(F)cccc2

$$$$
4BG_A_901
          07202400553D 1   1.00000     0.00000     0
            
 35 36  0  0  0  0            999 V2000
   31.8775    2.6362    0.6881 O   0  0  0  0  0  0  0  0  0  0  0  0
   26.0765    0.5764    0.5117 O   0  0  0  0  0  0  0  0  0  0  0  0
   34.2637    3.2905   -0.3394 N   0  0  0  0  0  0  0  0  0  0  0  0
   31.0910    1.7333   -1.2660 N   0  0  0  0  0  0  0  0  0  0  0  0
   25.8958    0.0298    1.7471 C   0  0  0  0  0  0  0  0  0  0  0  0
   33.4251    2.3784   -1.1328 C   0  0  0  0  0  0  0  0  0  0  0  0
   22.8694    1.7231    4.3030 C   0  0  0  0  0  0  0  0  0  0  0  0
   23.5006    0.5237    4.6711 C   0  0  0  0  0  0  0  0  0  0  0  0
   23.1380    2.3015    3.0555 C   0  0  0  0  0  0  0  0  0  0  0  0
   28.4072    0.7026    1.0041 C   0  0  0  0  0  0  0  0  0  0  0  0
   27.6275    0.5587   -1.2966 C   0  0  0  0  0  0  0  0  0  0  0  0
   29.6806    1.0421    0.5609 C   0  0  0  0  0  0  0  0  0  0  0  0
   28.9178    0.9021   -1.7430 C   0  0  0  0  0  0  0  0  0  0  0  0
   24.4094   -0.0901    3.7975 C   0  0  0  0  0  0  0  0  0  0  0  0
   24.0479    1.6877    2.1829 C   0  0  0  0  0  0  0  0  0  0  0  0
   32.0543    2.2423   -0.4687 C   0  0  0  0  0  0  0  0  0  0  0  0
   27.3697    0.4859    0.0818 C   0  0  0  0  0  0  0  0  0  0  0  0
   29.9465    1.1688   -0.8139 C   0  0  0  0  0  0  0  0  0  0  0  0
   24.6961    0.4934    2.5568 C   0  0  0  0  0  0  0  0  0  0  0  0
   35.1605    3.3804   -0.7726 H   0  0  0  0  0  0  0  0  0  0  0  0
   33.8257    4.1881   -0.2903 H   0  0  0  0  0  0  0  0  0  0  0  0
   31.2320    1.7761   -2.2551 H   0  0  0  0  0  0  0  0  0  0  0  0
   26.7146    0.2304    2.2850 H   0  0  0  0  0  0  0  0  0  0  0  0
   25.8103   -0.9592    1.6263 H   0  0  0  0  0  0  0  0  0  0  0  0
   33.8627    1.4806   -1.1819 H   0  0  0  0  0  0  0  0  0  0  0  0
   33.3135    2.7459   -2.0561 H   0  0  0  0  0  0  0  0  0  0  0  0
   22.2284    2.1641    4.9312 H   0  0  0  0  0  0  0  0  0  0  0  0
   23.3015    0.1067    5.5579 H   0  0  0  0  0  0  0  0  0  0  0  0
   22.6818    3.1503    2.7881 H   0  0  0  0  0  0  0  0  0  0  0  0
   28.2290    0.6122    1.9839 H   0  0  0  0  0  0  0  0  0  0  0  0
   26.9002    0.3680   -1.9560 H   0  0  0  0  0  0  0  0  0  0  0  0
   30.4125    1.1972    1.2245 H   0  0  0  0  0  0  0  0  0  0  0  0
   29.1066    0.9574   -2.7234 H   0  0  0  0  0  0  0  0  0  0  0  0
   24.8539   -0.9463    4.0608 H   0  0  0  0  0  0  0  0  0  0  0  0
   24.2376    2.0992    1.2915 H   0  0  0  0  0  0  0  0  0  0  0  0
  1 16  2  0  0  0  0
  2  5  1  0  0  0  0
  2 17  1  0  0  0  0
  3  6  1  0  0  0  0
  4 16  1  0  0  0  0
  4 18  1  0  0  0  0
  5 19  1  0  0  0  0
  6 16  1  0  0  0  0
  7  8  2  0  0  0  0
  7  9  1  0  0  0  0
  8 14  1  0  0  0  0
  9 15  2  0  0  0  0
 10 12  1  0  0  0  0
 10 17  2  0  0  0  0
 11 13  2  0  0  0  0
 11 17  1  0  0  0  0
 12 18  2  0  0  0  0
 13 18  1  0  0  0  0
 14 19  2  0  0  0  0
 15 19  1  0  0  0  0
  3 20  1  0  0  0  0
  3 21  1  0  0  0  0
  4 22  1  0  0  0  0
  5 23  1  0  0  0  0
  5 24  1  0  0  0  0
  6 25  1  0  0  0  0
  6 26  1  0  0  0  0
  7 27  1  0  0  0  0
  8 28  1  0  0  0  0
  9 29  1  0  0  0  0
 10 30  1  0  0  0  0
 11 31  1  0  0  0  0
 12 32  1  0  0  0  0
 13 33  1  0  0  0  0
 14 34  1  0  0  0  0
 15 35  1  0  0  0  0
M  END
> <pdb_id>
3CHO

> <uniprot_id>
P09960

> <usmiles>
O=C(Nc1ccc(OCc2ccccc2)cc1)CN

$$$$
4BQ_A_901
          07202400553D 1   1.00000     0.00000     0
            
 44 45  0  0  0  0            999 V2000
   36.3188    4.2261    2.0582 O   0  0  0  0  0  0  0  0  0  0  0  0
   34.4232    3.8594    3.1537 O   0  0  0  0  0  0  0  0  0  0  0  0
   31.5720    1.9440    1.1878 O   0  0  0  0  0  0  0  0  0  0  0  0
   25.5650   -0.2267    0.2535 O   0  0  0  0  0  0  0  0  0  0  0  0
   34.1441    1.5488    1.7095 N   0  0  0  0  0  0  0  0  0  0  0  0
   30.6876    1.6478   -0.9102 N   0  0  0  0  0  0  0  0  0  0  0  0
   25.2490   -0.5487    1.6420 C   0  0  0  0  0  0  0  0  0  0  0  0
   23.3853    2.2255    4.2154 C   0  0  0  0  0  0  0  0  0  0  0  0
   23.6735    2.5903    2.8899 C   0  0  0  0  0  0  0  0  0  0  0  0
   23.7102    0.9381    4.6755 C   0  0  0  0  0  0  0  0  0  0  0  0
   32.9089    2.5833   -0.7144 C   0  0  0  0  0  0  0  0  0  0  0  0
   27.8333    0.3138    1.0456 C   0  0  0  0  0  0  0  0  0  0  0  0
   27.2320    0.5113   -1.3013 C   0  0  0  0  0  0  0  0  0  0  0  0
   33.6894    3.5030    0.2363 C   0  0  0  0  0  0  0  0  0  0  0  0
   24.2858    1.6684    2.0224 C   0  0  0  0  0  0  0  0  0  0  0  0
   24.3234    0.0172    3.8098 C   0  0  0  0  0  0  0  0  0  0  0  0
   29.1348    0.7602    0.7462 C   0  0  0  0  0  0  0  0  0  0  0  0
   28.5326    0.9532   -1.5996 C   0  0  0  0  0  0  0  0  0  0  0  0
   35.2033    3.6885    2.1979 C   0  0  0  0  0  0  0  0  0  0  0  0
   31.6630    1.9901   -0.0438 C   0  0  0  0  0  0  0  0  0  0  0  0
   26.8675    0.1910    0.0154 C   0  0  0  0  0  0  0  0  0  0  0  0
   34.7316    2.7513    1.0914 C   0  0  1  0  0  0  0  0  0  0  0  0
   29.4932    1.0881   -0.5826 C   0  0  0  0  0  0  0  0  0  0  0  0
   24.6155    0.3772    2.4845 C   0  0  0  0  0  0  0  0  0  0  0  0
   36.8738    4.0237    1.2513 H   0  0  0  0  0  0  0  0  0  0  0  0
   34.8390    1.0818    2.2565 H   0  0  0  0  0  0  0  0  0  0  0  0
   33.3806    1.8155    2.2977 H   0  0  0  0  0  0  0  0  0  0  0  0
   30.8585    1.8212   -1.8801 H   0  0  0  0  0  0  0  0  0  0  0  0
   26.1163   -0.7824    2.0815 H   0  0  0  0  0  0  0  0  0  0  0  0
   24.6597   -1.3562    1.6169 H   0  0  0  0  0  0  0  0  0  0  0  0
   22.9491    2.8816    4.8313 H   0  0  0  0  0  0  0  0  0  0  0  0
   23.4430    3.5067    2.5628 H   0  0  0  0  0  0  0  0  0  0  0  0
   23.5050    0.6776    5.6189 H   0  0  0  0  0  0  0  0  0  0  0  0
   33.5067    1.8358   -1.0041 H   0  0  0  0  0  0  0  0  0  0  0  0
   32.6245    3.1118   -1.5143 H   0  0  0  0  0  0  0  0  0  0  0  0
   27.5897    0.0828    1.9876 H   0  0  0  0  0  0  0  0  0  0  0  0
   26.5589    0.4241   -2.0357 H   0  0  0  0  0  0  0  0  0  0  0  0
   33.0392    3.9515    0.8496 H   0  0  0  0  0  0  0  0  0  0  0  0
   34.1644    4.1939   -0.3088 H   0  0  0  0  0  0  0  0  0  0  0  0
   24.4875    1.9282    1.0780 H   0  0  0  0  0  0  0  0  0  0  0  0
   24.5529   -0.8988    4.1390 H   0  0  0  0  0  0  0  0  0  0  0  0
   29.8107    0.8461    1.4782 H   0  0  0  0  0  0  0  0  0  0  0  0
   28.7766    1.1737   -2.5440 H   0  0  0  0  0  0  0  0  0  0  0  0
   35.5089    2.4891    0.5195 H   0  0  0  0  0  0  0  0  0  0  0  0
  1 19  1  0  0  0  0
  2 19  2  0  0  0  0
  3 20  2  0  0  0  0
  4  7  1  0  0  0  0
  4 21  1  0  0  0  0
  5 22  1  0  0  0  0
  6 20  1  0  0  0  0
  6 23  1  0  0  0  0
  7 24  1  0  0  0  0
  8  9  2  0  0  0  0
  8 10  1  0  0  0  0
  9 15  1  0  0  0  0
 10 16  2  0  0  0  0
 11 14  1  0  0  0  0
 11 20  1  0  0  0  0
 12 17  1  0  0  0  0
 12 21  2  0  0  0  0
 13 18  2  0  0  0  0
 13 21  1  0  0  0  0
 14 22  1  0  0  0  0
 15 24  2  0  0  0  0
 16 24  1  0  0  0  0
 17 23  2  0  0  0  0
 18 23  1  0  0  0  0
 19 22  1  0  0  0  0
  1 25  1  0  0  0  0
  5 26  1  0  0  0  0
  5 27  1  0  0  0  0
  6 28  1  0  0  0  0
  7 29  1  0  0  0  0
  7 30  1  0  0  0  0
  8 31  1  0  0  0  0
  9 32  1  0  0  0  0
 10 33  1  0  0  0  0
 11 34  1  0  0  0  0
 11 35  1  0  0  0  0
 12 36  1  0  0  0  0
 13 37  1  0  0  0  0
 14 38  1  0  0  0  0
 14 39  1  0  0  0  0
 15 40  1  0  0  0  0
 16 41  1  0  0  0  0
 17 42  1  0  0  0  0
 18 43  1  0  0  0  0
 22 44  1  0  0  0  0
M  END
> <pdb_id>
3CHQ

> <uniprot_id>
P09960

> <usmiles>
O=C(O)[C@@H](N)CCC(=O)Nc1ccc(OCc2ccccc2)cc1

$$$$
4BS_A_613
          07202400553D 1   1.00000     0.00000     0
            
 41 42  0  0  0  0            999 V2000
   31.4256    1.9411    1.1710 O   0  0  0  0  0  0  0  0  0  0  0  0
   25.5461   -0.1485    0.4961 O   0  0  0  0  0  0  0  0  0  0  0  0
   33.9513    1.6380    2.0405 N   0  0  0  0  0  0  0  0  0  0  0  0
   30.6050    1.4764   -0.8586 N   0  0  0  0  0  0  0  0  0  0  0  0
   24.9079   -0.4882    1.7270 C   0  0  0  0  0  0  0  0  0  0  0  0
   34.6979    2.2612    0.9554 C   0  0  0  0  0  0  0  0  0  0  0  0
   33.7625    3.1452    0.1472 C   0  0  0  0  0  0  0  0  0  0  0  0
   23.3853    2.4268    4.5495 C   0  0  0  0  0  0  0  0  0  0  0  0
   23.6260    2.8514    3.2384 C   0  0  0  0  0  0  0  0  0  0  0  0
   23.6414    1.1128    4.9048 C   0  0  0  0  0  0  0  0  0  0  0  0
   32.7928    2.3745   -0.7375 C   0  0  0  0  0  0  0  0  0  0  0  0
   27.8201    0.2970    1.2529 C   0  0  0  0  0  0  0  0  0  0  0  0
   27.1407    0.5708   -1.0368 C   0  0  0  0  0  0  0  0  0  0  0  0
   29.1103    0.6796    0.8961 C   0  0  0  0  0  0  0  0  0  0  0  0
   28.4158    0.9436   -1.3958 C   0  0  0  0  0  0  0  0  0  0  0  0
   24.1178    1.9527    2.2952 C   0  0  0  0  0  0  0  0  0  0  0  0
   24.1391    0.2373    3.9594 C   0  0  0  0  0  0  0  0  0  0  0  0
   31.5475    1.9094   -0.0393 C   0  0  0  0  0  0  0  0  0  0  0  0
   26.8422    0.2276    0.2734 C   0  0  0  0  0  0  0  0  0  0  0  0
   29.4057    1.0220   -0.4360 C   0  0  0  0  0  0  0  0  0  0  0  0
   24.3861    0.6184    2.6492 C   0  0  0  0  0  0  0  0  0  0  0  0
   34.5637    1.0553    2.5748 H   0  0  0  0  0  0  0  0  0  0  0  0
   33.5669    2.3475    2.6311 H   0  0  0  0  0  0  0  0  0  0  0  0
   30.7894    1.4859   -1.8414 H   0  0  0  0  0  0  0  0  0  0  0  0
   25.5684   -1.0191    2.2580 H   0  0  0  0  0  0  0  0  0  0  0  0
   24.1245   -1.0654    1.4965 H   0  0  0  0  0  0  0  0  0  0  0  0
   35.0823    1.5524    0.3639 H   0  0  0  0  0  0  0  0  0  0  0  0
   35.4381    2.8165    1.3347 H   0  0  0  0  0  0  0  0  0  0  0  0
   34.3167    3.7388   -0.4363 H   0  0  0  0  0  0  0  0  0  0  0  0
   33.2311    3.7049    0.7831 H   0  0  0  0  0  0  0  0  0  0  0  0
   23.0295    3.0698    5.2277 H   0  0  0  0  0  0  0  0  0  0  0  0
   23.4450    3.8000    2.9787 H   0  0  0  0  0  0  0  0  0  0  0  0
   23.4673    0.8004    5.8387 H   0  0  0  0  0  0  0  0  0  0  0  0
   33.2683    1.5712   -1.0961 H   0  0  0  0  0  0  0  0  0  0  0  0
   32.5227    2.9679   -1.4956 H   0  0  0  0  0  0  0  0  0  0  0  0
   27.6020    0.0753    2.2033 H   0  0  0  0  0  0  0  0  0  0  0  0
   26.4200    0.5471   -1.7296 H   0  0  0  0  0  0  0  0  0  0  0  0
   29.8300    0.7113    1.5897 H   0  0  0  0  0  0  0  0  0  0  0  0
   28.6252    1.1573   -2.3500 H   0  0  0  0  0  0  0  0  0  0  0  0
   24.2817    2.2590    1.3574 H   0  0  0  0  0  0  0  0  0  0  0  0
   24.3285   -0.7066    4.2299 H   0  0  0  0  0  0  0  0  0  0  0  0
  1 18  2  0  0  0  0
  2  5  1  0  0  0  0
  2 19  1  0  0  0  0
  3  6  1  0  0  0  0
  4 18  1  0  0  0  0
  4 20  1  0  0  0  0
  5 21  1  0  0  0  0
  6  7  1  0  0  0  0
  7 11  1  0  0  0  0
  8  9  2  0  0  0  0
  8 10  1  0  0  0  0
  9 16  1  0  0  0  0
 10 17  2  0  0  0  0
 11 18  1  0  0  0  0
 12 14  1  0  0  0  0
 12 19  2  0  0  0  0
 13 15  2  0  0  0  0
 13 19  1  0  0  0  0
 14 20  2  0  0  0  0
 15 20  1  0  0  0  0
 16 21  2  0  0  0  0
 17 21  1  0  0  0  0
  3 22  1  0  0  0  0
  3 23  1  0  0  0  0
  4 24  1  0  0  0  0
  5 25  1  0  0  0  0
  5 26  1  0  0  0  0
  6 27  1  0  0  0  0
  6 28  1  0  0  0  0
  7 29  1  0  0  0  0
  7 30  1  0  0  0  0
  8 31  1  0  0  0  0
  9 32  1  0  0  0  0
 10 33  1  0  0  0  0
 11 34  1  0  0  0  0
 11 35  1  0  0  0  0
 12 36  1  0  0  0  0
 13 37  1  0  0  0  0
 14 38  1  0  0  0  0
 15 39  1  0  0  0  0
 16 40  1  0  0  0  0
 17 41  1  0  0  0  0
M  END
> <pdb_id>
3CHR

> <uniprot_id>
P09960

> <usmiles>
O=C(Nc1ccc(OCc2ccccc2)cc1)CCCN

$$$$
4BX_B_1
          07192422023D 1   1.00000     0.00000     0
            
 24 25  0  0  0  0            999 V2000
   39.2867  -29.2441  -15.5464 O   0  0  0  0  0  0  0  0  0  0  0  0
   39.9715  -27.9201  -17.0557 O   0  0  0  0  0  0  0  0  0  0  0  0
   35.6188  -25.8709  -15.0477 N   0  0  0  0  0  0  0  0  0  0  0  0
   35.4717  -25.0269  -17.0407 N   0  0  0  0  0  0  0  0  0  0  0  0
   32.2625  -24.3908  -14.5976 C   0  0  0  0  0  0  0  0  0  0  0  0
   32.1686  -23.8507  -15.8749 C   0  0  0  0  0  0  0  0  0  0  0  0
   37.6320  -27.8116  -16.5323 C   0  0  0  0  0  0  0  0  0  0  0  0
   33.4000  -25.0973  -14.2226 C   0  0  0  0  0  0  0  0  0  0  0  0
   33.2120  -24.0143  -16.7798 C   0  0  0  0  0  0  0  0  0  0  0  0
   37.6332  -26.2820  -16.5505 C   0  0  0  0  0  0  0  0  0  0  0  0
   39.0509  -28.3596  -16.3680 C   0  0  0  0  0  0  0  0  0  0  0  0
   36.2466  -25.7288  -16.2149 C   0  0  0  0  0  0  0  0  0  0  0  0
   34.4418  -25.2593  -15.1283 C   0  0  0  0  0  0  0  0  0  0  0  0
   34.3476  -24.7208  -16.4023 C   0  0  0  0  0  0  0  0  0  0  0  0
   38.5481  -29.6108  -14.9807 H   0  0  0  0  0  0  0  0  0  0  0  0
   35.9731  -26.3552  -14.2477 H   0  0  0  0  0  0  0  0  0  0  0  0
   31.5117  -24.2713  -13.9480 H   0  0  0  0  0  0  0  0  0  0  0  0
   31.3497  -23.3437  -16.1436 H   0  0  0  0  0  0  0  0  0  0  0  0
   37.2490  -28.1485  -17.3924 H   0  0  0  0  0  0  0  0  0  0  0  0
   37.0686  -28.1290  -15.7695 H   0  0  0  0  0  0  0  0  0  0  0  0
   33.4683  -25.4876  -13.3045 H   0  0  0  0  0  0  0  0  0  0  0  0
   33.1453  -23.6251  -17.6985 H   0  0  0  0  0  0  0  0  0  0  0  0
   37.8998  -25.9660  -17.4610 H   0  0  0  0  0  0  0  0  0  0  0  0
   38.2909  -25.9474  -15.8757 H   0  0  0  0  0  0  0  0  0  0  0  0
  1 11  1  0  0  0  0
  2 11  2  0  0  0  0
  3 12  1  0  0  0  0
  3 13  1  0  0  0  0
  4 12  2  0  0  0  0
  4 14  1  0  0  0  0
  5  6  2  0  0  0  0
  5  8  1  0  0  0  0
  6  9  1  0  0  0  0
  7 10  1  0  0  0  0
  7 11  1  0  0  0  0
  8 13  2  0  0  0  0
  9 14  2  0  0  0  0
 10 12  1  0  0  0  0
 13 14  1  0  0  0  0
  1 15  1  0  0  0  0
  3 16  1  0  0  0  0
  5 17  1  0  0  0  0
  6 18  1  0  0  0  0
  7 19  1  0  0  0  0
  7 20  1  0  0  0  0
  8 21  1  0  0  0  0
  9 22  1  0  0  0  0
 10 23  1  0  0  0  0
 10 24  1  0  0  0  0
M  END
> <pdb_id>
3KAC

> <uniprot_id>
Q13526

> <usmiles>
O=C(O)CCC1=Nc2c(N1)cccc2

$$$$
4BY_A_165
          07192422023D 1   1.00000     0.00000     0
            
 22 23  0  0  0  0            999 V2000
   38.7744  -26.4555  -17.9337 O   0  0  0  0  0  0  0  0  0  0  0  0
   38.7604  -27.7448  -16.1184 O   0  0  0  0  0  0  0  0  0  0  0  0
   36.2096  -25.4846  -17.3287 N   0  0  0  0  0  0  0  0  0  0  0  0
   31.7633  -24.6068  -13.9663 C   0  0  0  0  0  0  0  0  0  0  0  0
   33.9873  -24.3669  -17.0631 C   0  0  0  0  0  0  0  0  0  0  0  0
   32.9164  -24.1825  -16.1862 C   0  0  0  0  0  0  0  0  0  0  0  0
   36.2361  -26.4935  -15.3625 C   0  0  0  0  0  0  0  0  0  0  0  0
   34.0262  -25.6153  -14.5684 C   0  0  0  0  0  0  0  0  0  0  0  0
   38.2474  -26.8838  -16.8751 C   0  0  0  0  0  0  0  0  0  0  0  0
   36.8924  -26.2961  -16.5112 C   0  0  0  0  0  0  0  0  0  0  0  0
   35.0783  -25.1542  -16.6941 C   0  0  0  0  0  0  0  0  0  0  0  0
   32.9354  -24.8066  -14.9363 C   0  0  0  0  0  0  0  0  0  0  0  0
   35.0992  -25.7895  -15.4448 C   0  0  0  0  0  0  0  0  0  0  0  0
   38.3020  -25.7672  -18.4844 H   0  0  0  0  0  0  0  0  0  0  0  0
   36.4911  -25.1830  -18.2396 H   0  0  0  0  0  0  0  0  0  0  0  0
   31.9360  -25.1191  -13.1249 H   0  0  0  0  0  0  0  0  0  0  0  0
   31.6703  -23.6346  -13.7515 H   0  0  0  0  0  0  0  0  0  0  0  0
   30.9198  -24.9367  -14.3902 H   0  0  0  0  0  0  0  0  0  0  0  0
   33.9720  -23.9311  -17.9630 H   0  0  0  0  0  0  0  0  0  0  0  0
   32.1417  -23.6081  -16.4508 H   0  0  0  0  0  0  0  0  0  0  0  0
   36.5356  -27.0568  -14.5925 H   0  0  0  0  0  0  0  0  0  0  0  0
   34.0332  -26.0669  -13.6762 H   0  0  0  0  0  0  0  0  0  0  0  0
  1  9  1  0  0  0  0
  2  9  2  0  0  0  0
  3 10  1  0  0  0  0
  3 11  1  0  0  0  0
  4 12  1  0  0  0  0
  5  6  1  0  0  0  0
  5 11  2  0  0  0  0
  6 12  2  0  0  0  0
  7 10  2  0  0  0  0
  7 13  1  0  0  0  0
  8 12  1  0  0  0  0
  8 13  2  0  0  0  0
  9 10  1  0  0  0  0
 11 13  1  0  0  0  0
  1 14  1  0  0  0  0
  3 15  1  0  0  0  0
  4 16  1  0  0  0  0
  4 17  1  0  0  0  0
  4 18  1  0  0  0  0
  5 19  1  0  0  0  0
  6 20  1  0  0  0  0
  7 21  1  0  0  0  0
  8 22  1  0  0  0  0
M  END
> <pdb_id>
3KCE

> <uniprot_id>
Q13526

> <usmiles>
O=C(O)C=1Nc2c(cc(cc2)C)C1

$$$$
4C5_A_602
          07202413333D 1   1.00000     0.00000     0
            
 51 53  0  0  0  0            999 V2000
   39.4490   -7.7200   20.7900 S   0  0  0  0  0  0  0  0  0  0  0  0
   38.2240   -6.6540   25.6890 O   0  0  0  0  0  0  0  0  0  0  0  0
   40.3240   -6.7880   25.2640 O   0  0  0  0  0  0  0  0  0  0  0  0
   37.7460   -1.9410   20.2030 O   0  0  0  0  0  0  0  0  0  0  0  0
   37.2570   -7.3870   23.2660 N   0  0  0  0  0  0  0  0  0  0  0  0
   37.8360   -1.0140   21.2590 C   0  0  0  0  0  0  0  0  0  0  0  0
   39.4430   -6.8730   22.3710 C   0  0  0  0  0  0  0  0  0  0  0  0
   40.4440   -8.5560   15.7570 C   0  0  0  0  0  0  0  0  0  0  0  0
   44.7240   -6.8620   20.7990 C   0  0  0  0  0  0  0  0  0  0  0  0
   40.7190   -7.1990   15.9390 C   0  0  0  0  0  0  0  0  0  0  0  0
   40.1620   -9.3470   16.8410 C   0  0  0  0  0  0  0  0  0  0  0  0
   43.8410   -7.7610   21.3580 C   0  0  0  0  0  0  0  0  0  0  0  0
   44.2540   -5.9310   19.9020 C   0  0  0  0  0  0  0  0  0  0  0  0
   39.7030   -3.2370   20.7670 C   0  0  0  0  0  0  0  0  0  0  0  0
   37.9700   -4.0490   19.2970 C   0  0  0  0  0  0  0  0  0  0  0  0
   40.7850   -6.6130   17.1820 C   0  0  0  0  0  0  0  0  0  0  0  0
   40.1890   -8.7650   18.1070 C   0  0  0  0  0  0  0  0  0  0  0  0
   42.4960   -7.7470   21.0170 C   0  0  0  0  0  0  0  0  0  0  0  0
   42.9140   -5.9310   19.5360 C   0  0  0  0  0  0  0  0  0  0  0  0
   40.3860   -4.4390   20.6270 C   0  0  0  0  0  0  0  0  0  0  0  0
   38.6780   -5.2450   19.1520 C   0  0  0  0  0  0  0  0  0  0  0  0
   39.0650   -6.9880   24.8790 C   0  0  0  0  0  0  0  0  0  0  0  0
   38.4700   -3.0670   20.1210 C   0  0  0  0  0  0  0  0  0  0  0  0
   38.6970   -7.5660   23.5000 C   0  0  1  0  0  0  0  0  0  0  0  0
   40.5170   -7.4030   18.2960 C   0  0  0  0  0  0  0  0  0  0  0  0
   42.0010   -6.8290   20.0900 C   0  0  0  0  0  0  0  0  0  0  0  0
   39.8860   -5.4600   19.7900 C   0  0  0  0  0  0  0  0  0  0  0  0
   40.5380   -6.8050   19.6610 C   0  0  0  0  0  0  0  0  0  0  0  0
   37.2533   -6.7703   25.4788 H   0  0  0  0  0  0  0  0  0  0  0  0
   36.7423   -7.8350   23.9970 H   0  0  0  0  0  0  0  0  0  0  0  0
   37.0398   -6.4109   23.2553 H   0  0  0  0  0  0  0  0  0  0  0  0
   37.1998   -0.2600   21.0958 H   0  0  0  0  0  0  0  0  0  0  0  0
   37.6033   -1.4660   22.1201 H   0  0  0  0  0  0  0  0  0  0  0  0
   38.7689   -0.6576   21.3111 H   0  0  0  0  0  0  0  0  0  0  0  0
   39.0246   -5.9751   22.2346 H   0  0  0  0  0  0  0  0  0  0  0  0
   40.3936   -6.7575   22.6590 H   0  0  0  0  0  0  0  0  0  0  0  0
   40.4527   -8.9501   14.8380 H   0  0  0  0  0  0  0  0  0  0  0  0
   45.6936   -6.8863   21.0424 H   0  0  0  0  0  0  0  0  0  0  0  0
   40.8745   -6.6293   15.1320 H   0  0  0  0  0  0  0  0  0  0  0  0
   39.9428  -10.3159   16.7261 H   0  0  0  0  0  0  0  0  0  0  0  0
   44.1747   -8.4331   22.0190 H   0  0  0  0  0  0  0  0  0  0  0  0
   44.8779   -5.2532   19.5129 H   0  0  0  0  0  0  0  0  0  0  0  0
   40.0872   -2.5001   21.3232 H   0  0  0  0  0  0  0  0  0  0  0  0
   37.1095   -3.9084   18.8073 H   0  0  0  0  0  0  0  0  0  0  0  0
   41.0191   -5.6460   17.2823 H   0  0  0  0  0  0  0  0  0  0  0  0
   39.9701   -9.3270   18.9046 H   0  0  0  0  0  0  0  0  0  0  0  0
   41.8728   -8.4039   21.4415 H   0  0  0  0  0  0  0  0  0  0  0  0
   42.5951   -5.2696   18.8572 H   0  0  0  0  0  0  0  0  0  0  0  0
   41.2414   -4.5824   21.1248 H   0  0  0  0  0  0  0  0  0  0  0  0
   38.3005   -5.9657   18.5705 H   0  0  0  0  0  0  0  0  0  0  0  0
   38.9129   -8.5423   23.4852 H   0  0  0  0  0  0  0  0  0  0  0  0
  1  7  1  0  0  0  0
  1 28  1  0  0  0  0
  2 22  1  0  0  0  0
  3 22  2  0  0  0  0
  4  6  1  0  0  0  0
  4 23  1  0  0  0  0
  5 24  1  0  0  0  0
  7 24  1  0  0  0  0
  8 10  2  0  0  0  0
  8 11  1  0  0  0  0
  9 12  2  0  0  0  0
  9 13  1  0  0  0  0
 10 16  1  0  0  0  0
 11 17  2  0  0  0  0
 12 18  1  0  0  0  0
 13 19  2  0  0  0  0
 14 20  2  0  0  0  0
 14 23  1  0  0  0  0
 15 21  1  0  0  0  0
 15 23  2  0  0  0  0
 16 25  2  0  0  0  0
 17 25  1  0  0  0  0
 18 26  2  0  0  0  0
 19 26  1  0  0  0  0
 20 27  1  0  0  0  0
 21 27  2  0  0  0  0
 22 24  1  0  0  0  0
 25 28  1  0  0  0  0
 26 28  1  0  0  0  0
 27 28  1  0  0  0  0
  2 29  1  0  0  0  0
  5 30  1  0  0  0  0
  5 31  1  0  0  0  0
  6 32  1  0  0  0  0
  6 33  1  0  0  0  0
  6 34  1  0  0  0  0
  7 35  1  0  0  0  0
  7 36  1  0  0  0  0
  8 37  1  0  0  0  0
  9 38  1  0  0  0  0
 10 39  1  0  0  0  0
 11 40  1  0  0  0  0
 12 41  1  0  0  0  0
 13 42  1  0  0  0  0
 14 43  1  0  0  0  0
 15 44  1  0  0  0  0
 16 45  1  0  0  0  0
 17 46  1  0  0  0  0
 18 47  1  0  0  0  0
 19 48  1  0  0  0  0
 20 49  1  0  0  0  0
 21 50  1  0  0  0  0
 24 51  1  0  0  0  0
M  END
> <pdb_id>
5ZO8

> <uniprot_id>
P52732

> <usmiles>
S(C(c1ccc(OC)cc1)(c2ccccc2)c3ccccc3)C[C@H](N)C(=O)O

$$$$
4CD_A_901
          07192420423D 1   1.00000     0.00000     0
            
 41 43  0  0  0  0            999 V2000
   69.6424   32.6375   26.1899 Cl  0  0  0  0  0  0  0  0  0  0  0  0
   66.1232   34.0980   21.5855 O   0  0  0  0  0  0  0  0  0  0  0  0
   66.9988   32.3416   27.6385 O   0  0  0  0  0  0  0  0  0  0  0  0
   64.3103   34.2738   24.2087 O   0  0  0  0  0  0  0  0  0  0  0  0
   67.0454   36.1223   22.2909 N   0  0  0  0  0  0  0  0  0  0  0  0
   68.6467   38.0639   26.0099 C   0  0  0  0  0  0  0  0  0  0  0  0
   66.9208   36.7321   20.9590 C   0  0  0  0  0  0  0  0  0  0  0  0
   67.4653   38.1488   21.0795 C   0  0  0  0  0  0  0  0  0  0  0  0
   71.8095   36.5534   24.4608 C   0  0  0  0  0  0  0  0  0  0  0  0
   71.3619   36.1014   23.2009 C   0  0  0  0  0  0  0  0  0  0  0  0
   67.3677   38.4626   22.5710 C   0  0  0  0  0  0  0  0  0  0  0  0
   70.9072   37.1851   25.3485 C   0  0  0  0  0  0  0  0  0  0  0  0
   70.0089   36.2795   22.8209 C   0  0  0  0  0  0  0  0  0  0  0  0
   65.6465   33.3150   25.9023 C   0  0  0  0  0  0  0  0  0  0  0  0
   67.9868   33.7233   24.3383 C   0  0  0  0  0  0  0  0  0  0  0  0
   66.6126   34.7862   22.4826 C   0  0  0  0  0  0  0  0  0  0  0  0
   68.0864   33.1155   25.6215 C   0  0  0  0  0  0  0  0  0  0  0  0
   66.9136   32.9162   26.4018 C   0  0  0  0  0  0  0  0  0  0  0  0
   65.5499   33.9200   24.6202 C   0  0  0  0  0  0  0  0  0  0  0  0
   67.5644   37.1115   23.2838 C   0  0  2  0  0  0  0  0  0  0  0  0
   69.5345   37.3803   24.9950 C   0  0  0  0  0  0  0  0  0  0  0  0
   66.7133   34.1347   23.8322 C   0  0  0  0  0  0  0  0  0  0  0  0
   69.0553   36.9219   23.7020 C   0  0  0  0  0  0  0  0  0  0  0  0
   67.8878   32.0578   27.9978 H   0  0  0  0  0  0  0  0  0  0  0  0
   64.1839   34.7035   23.3147 H   0  0  0  0  0  0  0  0  0  0  0  0
   67.7190   38.1391   25.6443 H   0  0  0  0  0  0  0  0  0  0  0  0
   68.6302   37.5272   26.8535 H   0  0  0  0  0  0  0  0  0  0  0  0
   69.0039   38.9778   26.2032 H   0  0  0  0  0  0  0  0  0  0  0  0
   65.9616   36.7535   20.6772 H   0  0  0  0  0  0  0  0  0  0  0  0
   67.4532   36.2131   20.2902 H   0  0  0  0  0  0  0  0  0  0  0  0
   66.9118   38.7880   20.5456 H   0  0  0  0  0  0  0  0  0  0  0  0
   68.4152   38.1911   20.7697 H   0  0  0  0  0  0  0  0  0  0  0  0
   72.7653   36.4271   24.7262 H   0  0  0  0  0  0  0  0  0  0  0  0
   72.0012   35.6544   22.5753 H   0  0  0  0  0  0  0  0  0  0  0  0
   66.4709   38.8470   22.7902 H   0  0  0  0  0  0  0  0  0  0  0  0
   68.0820   39.1082   22.8407 H   0  0  0  0  0  0  0  0  0  0  0  0
   71.2346   37.5009   26.2391 H   0  0  0  0  0  0  0  0  0  0  0  0
   69.7056   35.9548   21.9250 H   0  0  0  0  0  0  0  0  0  0  0  0
   64.8234   33.1706   26.4515 H   0  0  0  0  0  0  0  0  0  0  0  0
   68.8101   33.8634   23.7883 H   0  0  0  0  0  0  0  0  0  0  0  0
   66.9895   37.0863   24.1016 H   0  0  0  0  0  0  0  0  0  0  0  0
  1 17  1  0  0  0  0
  2 16  2  0  0  0  0
  3 18  1  0  0  0  0
  4 19  1  0  0  0  0
  5  7  1  0  0  0  0
  5 16  1  0  0  0  0
  5 20  1  0  0  0  0
  6 21  1  0  0  0  0
  7  8  1  0  0  0  0
  8 11  1  0  0  0  0
  9 10  2  0  0  0  0
  9 12  1  0  0  0  0
 10 13  1  0  0  0  0
 11 20  1  0  0  0  0
 12 21  2  0  0  0  0
 13 23  2  0  0  0  0
 14 18  2  0  0  0  0
 14 19  1  0  0  0  0
 15 17  2  0  0  0  0
 15 22  1  0  0  0  0
 16 22  1  0  0  0  0
 17 18  1  0  0  0  0
 19 22  2  0  0  0  0
 20 23  1  0  0  0  0
 21 23  1  0  0  0  0
  3 24  1  0  0  0  0
  4 25  1  0  0  0  0
  6 26  1  0  0  0  0
  6 27  1  0  0  0  0
  6 28  1  0  0  0  0
  7 29  1  0  0  0  0
  7 30  1  0  0  0  0
  8 31  1  0  0  0  0
  8 32  1  0  0  0  0
  9 33  1  0  0  0  0
 10 34  1  0  0  0  0
 11 35  1  0  0  0  0
 11 36  1  0  0  0  0
 12 37  1  0  0  0  0
 13 38  1  0  0  0  0
 14 39  1  0  0  0  0
 15 40  1  0  0  0  0
 20 41  1  0  0  0  0
M  END
> <pdb_id>
3K97

> <uniprot_id>
P07900

> <usmiles>
Clc1c(O)cc(O)c(c1)C(=O)N2[C@@H](c3c(cccc3)C)CCC2

$$$$
4CN_A_1103
          07192415333D 1   1.00000     0.00000     0
            
 29 31  0  0  0  0            999 V2000
   48.5300    2.4340  152.1500 S   0  0  0  0  0  0  0  0  0  0  0  0
   46.1660    0.5330  143.1930 O   0  0  0  0  0  0  0  0  0  0  0  0
   49.9270    2.0110  150.2820 N   0  0  0  0  0  0  0  0  0  0  0  0
   48.0420    0.9240  144.3510 N   0  0  0  0  0  0  0  0  0  0  0  0
   48.9850    0.8690  143.1740 C   0  0  0  0  0  0  0  0  0  0  0  0
   51.1820    2.4930  152.4900 C   0  0  0  0  0  0  0  0  0  0  0  0
   47.7050    2.0890  150.6010 C   0  0  0  0  0  0  0  0  0  0  0  0
   49.5690    1.4000  146.2050 C   0  0  0  0  0  0  0  0  0  0  0  0
   49.6940    1.6100  147.5750 C   0  0  0  0  0  0  0  0  0  0  0  0
   46.2080    0.9130  145.5090 C   0  0  0  0  0  0  0  0  0  0  0  0
   47.3160    1.3890  147.7000 C   0  0  0  0  0  0  0  0  0  0  0  0
   49.9420    2.2950  151.6130 C   0  0  0  0  0  0  0  0  0  0  0  0
   46.7440    0.7600  144.2640 C   0  0  0  0  0  0  0  0  0  0  0  0
   48.6980    1.8750  149.7020 C   0  0  0  0  0  0  0  0  0  0  0  0
   48.3810    1.1600  145.6410 C   0  0  0  0  0  0  0  0  0  0  0  0
   48.5480    1.6350  148.3600 C   0  0  0  0  0  0  0  0  0  0  0  0
   47.2370    1.1830  146.3810 C   0  0  0  0  0  0  0  0  0  0  0  0
   45.1731    0.4149  143.1759 H   0  0  0  0  0  0  0  0  0  0  0  0
   49.9213    1.0228  143.4896 H   0  0  0  0  0  0  0  0  0  0  0  0
   48.9232   -0.0293  142.7390 H   0  0  0  0  0  0  0  0  0  0  0  0
   48.7353    1.5771  142.5135 H   0  0  0  0  0  0  0  0  0  0  0  0
   52.0052    2.3555  151.9392 H   0  0  0  0  0  0  0  0  0  0  0  0
   51.1817    3.4208  152.8632 H   0  0  0  0  0  0  0  0  0  0  0  0
   51.1687    1.8320  153.2402 H   0  0  0  0  0  0  0  0  0  0  0  0
   46.7196    2.0600  150.4331 H   0  0  0  0  0  0  0  0  0  0  0  0
   50.3863    1.4293  145.6295 H   0  0  0  0  0  0  0  0  0  0  0  0
   50.5952    1.7409  147.9882 H   0  0  0  0  0  0  0  0  0  0  0  0
   45.2391    0.8416  145.7457 H   0  0  0  0  0  0  0  0  0  0  0  0
   46.4755    1.3689  148.2415 H   0  0  0  0  0  0  0  0  0  0  0  0
  1  7  1  0  0  0  0
  1 12  1  0  0  0  0
  2 13  1  0  0  0  0
  3 12  2  0  0  0  0
  3 14  1  0  0  0  0
  4  5  1  0  0  0  0
  4 13  1  0  0  0  0
  4 15  1  0  0  0  0
  6 12  1  0  0  0  0
  7 14  2  0  0  0  0
  8  9  1  0  0  0  0
  8 15  2  0  0  0  0
  9 16  2  0  0  0  0
 10 13  2  0  0  0  0
 10 17  1  0  0  0  0
 11 16  1  0  0  0  0
 11 17  2  0  0  0  0
 14 16  1  0  0  0  0
 15 17  1  0  0  0  0
  2 18  1  0  0  0  0
  5 19  1  0  0  0  0
  5 20  1  0  0  0  0
  5 21  1  0  0  0  0
  6 22  1  0  0  0  0
  6 23  1  0  0  0  0
  6 24  1  0  0  0  0
  7 25  1  0  0  0  0
  8 26  1  0  0  0  0
  9 27  1  0  0  0  0
 10 28  1  0  0  0  0
 11 29  1  0  0  0  0
M  END
> <pdb_id>
4YAB

> <uniprot_id>
O15164

> <usmiles>
S1C(=NC(c2cc3c(N(C(O)=C3)C)cc2)=C1)C

$$$$
4CS_A_1311
          07192417363D 1   1.00000     0.00000     0
            
 20 20  0  0  0  0            999 V2000
   44.0833   31.3840   35.1548 O   0  0  0  0  0  0  0  0  0  0  0  0
   43.6610   29.9391   33.5594 O   0  0  0  0  0  0  0  0  0  0  0  0
   42.0538   33.8176   31.2410 N   0  0  0  0  0  0  0  0  0  0  0  0
   42.9182   31.7565   31.7565 N   0  0  0  0  0  0  0  0  0  0  0  0
   41.7319   32.0738   29.6085 C   0  0  0  0  0  0  0  0  0  0  0  0
   42.4169   34.3913   32.5295 C   0  0  0  0  0  0  0  0  0  0  0  0
   42.6149   33.3169   33.5914 C   0  0  0  0  0  0  0  0  0  0  0  0
   43.7473   31.1033   33.9785 C   0  0  0  0  0  0  0  0  0  0  0  0
   42.2745   32.5651   30.9271 C   0  0  0  0  0  0  0  0  0  0  0  0
   43.4992   32.2164   33.0169 C   0  0  1  0  0  0  0  0  0  0  0  0
   44.1382   32.3395   35.4446 H   0  0  0  0  0  0  0  0  0  0  0  0
   43.0105   30.7918   31.5101 H   0  0  0  0  0  0  0  0  0  0  0  0
   41.9668   31.1090   29.4901 H   0  0  0  0  0  0  0  0  0  0  0  0
   40.7374   32.1785   29.5975 H   0  0  0  0  0  0  0  0  0  0  0  0
   42.1316   32.6081   28.8637 H   0  0  0  0  0  0  0  0  0  0  0  0
   41.6882   35.0089   32.8257 H   0  0  0  0  0  0  0  0  0  0  0  0
   43.2683   34.9056   32.4265 H   0  0  0  0  0  0  0  0  0  0  0  0
   41.7285   32.9342   33.8519 H   0  0  0  0  0  0  0  0  0  0  0  0
   43.0550   33.7162   34.3957 H   0  0  0  0  0  0  0  0  0  0  0  0
   44.3852   32.6279   32.8033 H   0  0  0  0  0  0  0  0  0  0  0  0
  1  8  1  0  0  0  0
  2  8  2  0  0  0  0
  3  6  1  0  0  0  0
  3  9  2  0  0  0  0
  4  9  1  0  0  0  0
  4 10  1  0  0  0  0
  5  9  1  0  0  0  0
  6  7  1  0  0  0  0
  7 10  1  0  0  0  0
  8 10  1  0  0  0  0
  1 11  1  0  0  0  0
  4 12  1  0  0  0  0
  5 13  1  0  0  0  0
  5 14  1  0  0  0  0
  5 15  1  0  0  0  0
  6 16  1  0  0  0  0
  6 17  1  0  0  0  0
  7 18  1  0  0  0  0
  7 19  1  0  0  0  0
 10 20  1  0  0  0  0
M  END
> <pdb_id>
2VPN

> <uniprot_id>
Q8VPB3

> <usmiles>
O=C(O)[C@H]1NC(=NCC1)C

$$$$
4CS_B_1311
          07192417363D 1   1.00000     0.00000     0
            
 20 20  0  0  0  0            999 V2000
   43.5642   29.9460   33.5621 O   0  0  0  0  0  0  0  0  0  0  0  0
   43.9923   31.3368   35.2002 O   0  0  0  0  0  0  0  0  0  0  0  0
   41.9387   33.8159   31.3236 N   0  0  0  0  0  0  0  0  0  0  0  0
   42.8152   31.7175   31.8222 N   0  0  0  0  0  0  0  0  0  0  0  0
   41.6950   32.0547   29.6509 C   0  0  0  0  0  0  0  0  0  0  0  0
   42.2999   34.4127   32.5912 C   0  0  0  0  0  0  0  0  0  0  0  0
   42.4803   33.3281   33.6334 C   0  0  0  0  0  0  0  0  0  0  0  0
   43.6612   31.1133   34.0102 C   0  0  0  0  0  0  0  0  0  0  0  0
   42.1715   32.5424   30.9953 C   0  0  0  0  0  0  0  0  0  0  0  0
   43.3927   32.2411   33.0523 C   0  0  1  0  0  0  0  0  0  0  0  0
   43.2984   29.7964   32.6097 H   0  0  0  0  0  0  0  0  0  0  0  0
   41.4841   34.3960   30.6478 H   0  0  0  0  0  0  0  0  0  0  0  0
   41.9360   31.0904   29.5415 H   0  0  0  0  0  0  0  0  0  0  0  0
   40.7023   32.1591   29.5911 H   0  0  0  0  0  0  0  0  0  0  0  0
   42.1307   32.5912   28.9281 H   0  0  0  0  0  0  0  0  0  0  0  0
   41.5754   35.0369   32.8832 H   0  0  0  0  0  0  0  0  0  0  0  0
   43.1555   34.9200   32.4879 H   0  0  0  0  0  0  0  0  0  0  0  0
   41.5917   32.9333   33.8666 H   0  0  0  0  0  0  0  0  0  0  0  0
   42.8987   33.7159   34.4547 H   0  0  0  0  0  0  0  0  0  0  0  0
   44.2690   32.6653   32.8239 H   0  0  0  0  0  0  0  0  0  0  0  0
  1  8  1  0  0  0  0
  2  8  2  0  0  0  0
  3  6  1  0  0  0  0
  3  9  1  0  0  0  0
  4  9  2  0  0  0  0
  4 10  1  0  0  0  0
  5  9  1  0  0  0  0
  6  7  1  0  0  0  0
  7 10  1  0  0  0  0
  8 10  1  0  0  0  0
  1 11  1  0  0  0  0
  3 12  1  0  0  0  0
  5 13  1  0  0  0  0
  5 14  1  0  0  0  0
  5 15  1  0  0  0  0
  6 16  1  0  0  0  0
  6 17  1  0  0  0  0
  7 18  1  0  0  0  0
  7 19  1  0  0  0  0
 10 20  1  0  0  0  0
M  END
> <pdb_id>
2VPN

> <uniprot_id>
Q8VPB3

> <usmiles>
O=C(O)[C@H]1N=C(NCC1)C

$$$$
4CT_A_284
          07202404323D 1   1.00000     0.00000     0
            
 46 49  0  0  0  0            999 V2000
   63.6140   -9.9800   13.2210 Cl  0  0  0  0  0  0  0  0  0  0  0  0
   64.8690  -14.0590    8.6730 S   0  0  0  0  0  0  0  0  0  0  0  0
   61.4290  -17.3240   10.5550 O   0  0  0  0  0  0  0  0  0  0  0  0
   64.7590  -18.2360    1.9390 N   0  0  0  0  0  0  0  0  0  0  0  0
   63.9110  -19.8170    3.4550 N   0  0  0  0  0  0  0  0  0  0  0  0
   62.3860  -19.2690    5.1230 N   0  0  0  0  0  0  0  0  0  0  0  0
   63.0090  -16.2320    3.4970 N   0  0  0  0  0  0  0  0  0  0  0  0
   61.2300  -16.6220    7.7780 N   0  0  0  0  0  0  0  0  0  0  0  0
   64.3520  -15.6860    9.0830 C   0  0  0  0  0  0  0  0  0  0  0  0
   63.1310  -20.1890    4.4940 C   0  0  0  0  0  0  0  0  0  0  0  0
   62.1250  -15.8000    4.4290 C   0  0  0  0  0  0  0  0  0  0  0  0
   61.9770  -17.7810    8.2870 C   0  0  0  0  0  0  0  0  0  0  0  0
   62.0870  -15.4460    8.0200 C   0  0  0  0  0  0  0  0  0  0  0  0
   60.7570  -16.8290    6.3690 C   0  0  0  0  0  0  0  0  0  0  0  0
   64.2270  -10.7390   10.6600 C   0  0  0  0  0  0  0  0  0  0  0  0
   64.0230  -12.5500   12.2590 C   0  0  0  0  0  0  0  0  0  0  0  0
   64.4940  -11.6460    9.6490 C   0  0  0  0  0  0  0  0  0  0  0  0
   64.3130  -13.4690   11.2460 C   0  0  0  0  0  0  0  0  0  0  0  0
   63.9850  -11.1910   11.9540 C   0  0  0  0  0  0  0  0  0  0  0  0
   64.5430  -13.0060    9.9470 C   0  0  0  0  0  0  0  0  0  0  0  0
   63.9600  -18.5410    2.9930 C   0  0  0  0  0  0  0  0  0  0  0  0
   62.5000  -17.2400    9.6130 C   0  0  1  0  0  0  0  0  0  0  0  0
   63.1970  -17.5680    3.6370 C   0  0  0  0  0  0  0  0  0  0  0  0
   62.4300  -17.9720    4.7120 C   0  0  0  0  0  0  0  0  0  0  0  0
   62.8420  -15.8000    9.3040 C   0  0  1  0  0  0  0  0  0  0  0  0
   61.7460  -16.8800    5.2270 C   0  0  0  0  0  0  0  0  0  0  0  0
   61.7362  -16.9763   11.4408 H   0  0  0  0  0  0  0  0  0  0  0  0
   64.7977  -17.2975    1.5960 H   0  0  0  0  0  0  0  0  0  0  0  0
   65.3090  -18.9498    1.5055 H   0  0  0  0  0  0  0  0  0  0  0  0
   63.4539  -15.6550    2.8120 H   0  0  0  0  0  0  0  0  0  0  0  0
   64.8182  -15.9658    9.9223 H   0  0  0  0  0  0  0  0  0  0  0  0
   64.6114  -16.2995    8.3372 H   0  0  0  0  0  0  0  0  0  0  0  0
   63.1097  -21.1435    4.7914 H   0  0  0  0  0  0  0  0  0  0  0  0
   61.7977  -14.8603    4.5285 H   0  0  0  0  0  0  0  0  0  0  0  0
   62.7255  -18.0324    7.6734 H   0  0  0  0  0  0  0  0  0  0  0  0
   61.3789  -18.5706    8.4241 H   0  0  0  0  0  0  0  0  0  0  0  0
   61.5339  -14.6227    8.1478 H   0  0  0  0  0  0  0  0  0  0  0  0
   62.7223  -15.3062    7.2605 H   0  0  0  0  0  0  0  0  0  0  0  0
   60.1241  -16.0817    6.1666 H   0  0  0  0  0  0  0  0  0  0  0  0
   60.2616  -17.6976    6.3579 H   0  0  0  0  0  0  0  0  0  0  0  0
   64.2080   -9.7592   10.4607 H   0  0  0  0  0  0  0  0  0  0  0  0
   63.8450  -12.8644   13.1915 H   0  0  0  0  0  0  0  0  0  0  0  0
   64.6502  -11.3281    8.7138 H   0  0  0  0  0  0  0  0  0  0  0  0
   64.3555  -14.4474   11.4485 H   0  0  0  0  0  0  0  0  0  0  0  0
   63.3027  -17.7483    9.9249 H   0  0  0  0  0  0  0  0  0  0  0  0
   62.5534  -15.2045   10.0537 H   0  0  0  0  0  0  0  0  0  0  0  0
  1 19  1  0  0  0  0
  2  9  1  0  0  0  0
  2 20  1  0  0  0  0
  3 22  1  0  0  0  0
  4 21  1  0  0  0  0
  5 10  1  0  0  0  0
  5 21  2  0  0  0  0
  6 10  2  0  0  0  0
  6 24  1  0  0  0  0
  7 11  1  0  0  0  0
  7 23  1  0  0  0  0
  8 12  1  0  0  0  0
  8 13  1  0  0  0  0
  8 14  1  0  0  0  0
  9 25  1  0  0  0  0
 11 26  2  0  0  0  0
 12 22  1  0  0  0  0
 13 25  1  0  0  0  0
 14 26  1  0  0  0  0
 15 17  2  0  0  0  0
 15 19  1  0  0  0  0
 16 18  1  0  0  0  0
 16 19  2  0  0  0  0
 17 20  1  0  0  0  0
 18 20  2  0  0  0  0
 21 23  1  0  0  0  0
 22 25  1  0  0  0  0
 23 24  2  0  0  0  0
 24 26  1  0  0  0  0
  3 27  1  0  0  0  0
  4 28  1  0  0  0  0
  4 29  1  0  0  0  0
  7 30  1  0  0  0  0
  9 31  1  0  0  0  0
  9 32  1  0  0  0  0
 10 33  1  0  0  0  0
 11 34  1  0  0  0  0
 12 35  1  0  0  0  0
 12 36  1  0  0  0  0
 13 37  1  0  0  0  0
 13 38  1  0  0  0  0
 14 39  1  0  0  0  0
 14 40  1  0  0  0  0
 15 41  1  0  0  0  0
 16 42  1  0  0  0  0
 17 43  1  0  0  0  0
 18 44  1  0  0  0  0
 22 45  1  0  0  0  0
 25 46  1  0  0  0  0
M  END
> <pdb_id>
3OZC

> <uniprot_id>
Q13126

> <usmiles>
Clc1ccc(SC[C@@H]2[C@@H](O)CN(CC=3c4ncnc(N)c4NC3)C2)cc1

$$$$
4CT_A_301
          07212402473D 1   1.00000     0.00000     0
            
 47 50  0  0  0  0            999 V2000
  -35.9068  -38.1483  -62.8193 Cl  0  0  0  0  0  0  0  0  0  0  0  0
  -33.6526  -35.9233  -57.3544 S   0  0  0  0  0  0  0  0  0  0  0  0
  -29.7892  -36.8620  -55.8478 O   0  0  0  0  0  0  0  0  0  0  0  0
  -33.1984  -28.2530  -55.1214 N   0  0  0  0  0  0  0  0  0  0  0  0
  -32.9737  -29.9983  -53.5479 N   0  0  0  0  0  0  0  0  0  0  0  0
  -31.3429  -31.7229  -53.7624 N   0  0  0  0  0  0  0  0  0  0  0  0
  -30.9095  -29.6454  -56.5442 N   0  0  0  0  0  0  0  0  0  0  0  0
  -29.3988  -34.0201  -56.0723 N   0  3  0  0  0  0  0  0  0  0  0  0
  -32.3640  -31.1111  -53.1245 C   0  0  0  0  0  0  0  0  0  0  0  0
  -29.9718  -30.4863  -56.8364 C   0  0  0  0  0  0  0  0  0  0  0  0
  -34.1174  -36.5169  -61.3869 C   0  0  0  0  0  0  0  0  0  0  0  0
  -35.7607  -37.9025  -60.1773 C   0  0  0  0  0  0  0  0  0  0  0  0
  -33.6242  -36.0282  -60.1636 C   0  0  0  0  0  0  0  0  0  0  0  0
  -35.2718  -37.4178  -58.9705 C   0  0  0  0  0  0  0  0  0  0  0  0
  -32.2261  -34.7870  -57.5417 C   0  0  0  0  0  0  0  0  0  0  0  0
  -29.0280  -32.6434  -55.7398 C   0  0  0  0  0  0  0  0  0  0  0  0
  -30.4205  -34.6372  -55.0542 C   0  0  0  0  0  0  0  0  0  0  0  0
  -29.8708  -34.1157  -57.2675 C   0  0  0  0  0  0  0  0  0  0  0  0
  -35.2000  -37.4655  -61.3855 C   0  0  0  0  0  0  0  0  0  0  0  0
  -34.2061  -36.4818  -58.9591 C   0  0  0  0  0  0  0  0  0  0  0  0
  -32.5634  -29.4184  -54.6821 C   0  0  0  0  0  0  0  0  0  0  0  0
  -31.5182  -29.9927  -55.3978 C   0  0  0  0  0  0  0  0  0  0  0  0
  -30.9189  -31.1290  -54.9342 C   0  0  0  0  0  0  0  0  0  0  0  0
  -29.9398  -31.4581  -55.8298 C   0  0  0  0  0  0  0  0  0  0  0  0
  -30.7698  -35.8504  -55.9206 C   0  0  1  0  0  0  0  0  0  0  0  0
  -30.8448  -35.3506  -57.1758 C   0  0  1  0  0  0  0  0  0  0  0  0
  -29.6108  -37.4310  -55.1181 H   0  0  0  0  0  0  0  0  0  0  0  0
  -33.9184  -27.8392  -54.6465 H   0  0  0  0  0  0  0  0  0  0  0  0
  -32.8783  -27.8117  -55.9327 H   0  0  0  0  0  0  0  0  0  0  0  0
  -31.1498  -28.8675  -57.0778 H   0  0  0  0  0  0  0  0  0  0  0  0
  -28.6269  -34.5445  -56.0218 H   0  0  0  0  0  0  0  0  0  0  0  0
  -32.6936  -31.4489  -52.3428 H   0  0  0  0  0  0  0  0  0  0  0  0
  -29.4018  -30.4196  -57.6335 H   0  0  0  0  0  0  0  0  0  0  0  0
  -33.7375  -36.2218  -62.1966 H   0  0  0  0  0  0  0  0  0  0  0  0
  -36.4582  -38.5128  -60.1833 H   0  0  0  0  0  0  0  0  0  0  0  0
  -32.9202  -35.4116  -60.1524 H   0  0  0  0  0  0  0  0  0  0  0  0
  -35.6462  -37.7077  -58.1514 H   0  0  0  0  0  0  0  0  0  0  0  0
  -32.3954  -34.0483  -56.8754 H   0  0  0  0  0  0  0  0  0  0  0  0
  -32.2177  -34.4653  -58.4583 H   0  0  0  0  0  0  0  0  0  0  0  0
  -28.7252  -32.7049  -54.7655 H   0  0  0  0  0  0  0  0  0  0  0  0
  -28.2142  -32.4520  -56.2727 H   0  0  0  0  0  0  0  0  0  0  0  0
  -29.9106  -34.9684  -54.2465 H   0  0  0  0  0  0  0  0  0  0  0  0
  -31.2059  -34.0585  -54.9144 H   0  0  0  0  0  0  0  0  0  0  0  0
  -30.4247  -33.3158  -57.4955 H   0  0  0  0  0  0  0  0  0  0  0  0
  -29.1580  -34.2711  -57.9323 H   0  0  0  0  0  0  0  0  0  0  0  0
  -31.6488  -36.1983  -55.6396 H   0  0  0  0  0  0  0  0  0  0  0  0
  -30.5354  -36.0650  -57.8193 H   0  0  0  0  0  0  0  0  0  0  0  0
  1 19  1  0  0  0  0
  2 15  1  0  0  0  0
  2 20  1  0  0  0  0
  3 25  1  0  0  0  0
  3 27  1  0  0  0  0
  4 21  1  0  0  0  0
  4 28  1  0  0  0  0
  4 29  1  0  0  0  0
  5  9  1  0  0  0  0
  5 21  2  0  0  0  0
  6  9  2  0  0  0  0
  6 23  1  0  0  0  0
  7 10  1  0  0  0  0
  7 22  1  0  0  0  0
  7 30  1  0  0  0  0
  8 16  1  0  0  0  0
  8 17  1  0  0  0  0
  8 18  1  0  0  0  0
  8 31  1  0  0  0  0
  9 32  1  0  0  0  0
 10 24  2  0  0  0  0
 10 33  1  0  0  0  0
 11 13  2  0  0  0  0
 11 19  1  0  0  0  0
 11 34  1  0  0  0  0
 12 14  1  0  0  0  0
 12 19  2  0  0  0  0
 12 35  1  0  0  0  0
 13 20  1  0  0  0  0
 13 36  1  0  0  0  0
 14 20  2  0  0  0  0
 14 37  1  0  0  0  0
 15 26  1  0  0  0  0
 15 38  1  0  0  0  0
 15 39  1  0  0  0  0
 16 24  1  0  0  0  0
 16 40  1  0  0  0  0
 16 41  1  0  0  0  0
 17 25  1  0  0  0  0
 17 42  1  0  0  0  0
 17 43  1  0  0  0  0
 18 26  1  0  0  0  0
 18 44  1  0  0  0  0
 18 45  1  0  0  0  0
 21 22  1  0  0  0  0
 22 23  2  0  0  0  0
 23 24  1  0  0  0  0
 25 26  1  0  0  0  0
 25 46  1  0  0  0  0
 26 47  1  0  0  0  0
M  CHG  1   8   1
M  END
> <pdb_id>
5K1Z

> <uniprot_id>
Q9ZMY2

> <usmiles>
Clc1ccc(SC[C@@H]2[C@@H](O)C[NH+](CC=3c4ncnc(N)c4NC3)C2)cc1

$$$$
4CT_A_301
          07212402473D 1   1.00000     0.00000     0
            
 46 49  0  0  0  0            999 V2000
  -35.6883  -37.8105  -62.6734 Cl  0  0  0  0  0  0  0  0  0  0  0  0
  -33.7577  -35.6532  -56.9705 S   0  0  0  0  0  0  0  0  0  0  0  0
  -29.6829  -36.9335  -55.9076 O   0  0  0  0  0  0  0  0  0  0  0  0
  -32.9943  -28.2074  -55.3270 N   0  0  0  0  0  0  0  0  0  0  0  0
  -32.8578  -30.0170  -53.7692 N   0  0  0  0  0  0  0  0  0  0  0  0
  -31.2953  -31.7916  -53.9183 N   0  0  0  0  0  0  0  0  0  0  0  0
  -30.6513  -29.7450  -56.6867 N   0  0  0  0  0  0  0  0  0  0  0  0
  -29.2394  -34.0385  -56.0999 N   0  0  0  0  0  0  0  0  0  0  0  0
  -32.3150  -34.5581  -57.1703 C   0  0  0  0  0  0  0  0  0  0  0  0
  -32.2935  -31.1661  -53.3160 C   0  0  0  0  0  0  0  0  0  0  0  0
  -29.7170  -30.6641  -56.9336 C   0  0  0  0  0  0  0  0  0  0  0  0
  -30.2084  -34.6138  -55.0919 C   0  0  0  0  0  0  0  0  0  0  0  0
  -29.7513  -34.2342  -57.2758 C   0  0  0  0  0  0  0  0  0  0  0  0
  -28.8131  -32.9040  -55.8297 C   0  0  0  0  0  0  0  0  0  0  0  0
  -34.0844  -36.2233  -61.0369 C   0  0  0  0  0  0  0  0  0  0  0  0
  -35.7267  -37.6705  -59.9547 C   0  0  0  0  0  0  0  0  0  0  0  0
  -33.6699  -35.7628  -59.8287 C   0  0  0  0  0  0  0  0  0  0  0  0
  -35.3068  -37.1917  -58.7136 C   0  0  0  0  0  0  0  0  0  0  0  0
  -35.1402  -37.2009  -61.1131 C   0  0  0  0  0  0  0  0  0  0  0  0
  -34.2806  -36.2462  -58.6314 C   0  0  0  0  0  0  0  0  0  0  0  0
  -32.4014  -29.4416  -54.8664 C   0  0  0  0  0  0  0  0  0  0  0  0
  -30.7524  -35.8876  -55.9201 C   0  0  1  0  0  0  0  0  0  0  0  0
  -31.3249  -30.0728  -55.5435 C   0  0  0  0  0  0  0  0  0  0  0  0
  -30.7704  -31.2563  -55.0595 C   0  0  0  0  0  0  0  0  0  0  0  0
  -30.9138  -35.4292  -57.0779 C   0  0  1  0  0  0  0  0  0  0  0  0
  -29.7480  -31.6661  -55.9439 C   0  0  0  0  0  0  0  0  0  0  0  0
  -29.9955  -37.7361  -56.4156 H   0  0  0  0  0  0  0  0  0  0  0  0
  -32.6521  -27.7677  -56.1575 H   0  0  0  0  0  0  0  0  0  0  0  0
  -33.7468  -27.7927  -54.8155 H   0  0  0  0  0  0  0  0  0  0  0  0
  -30.8314  -28.9396  -57.2514 H   0  0  0  0  0  0  0  0  0  0  0  0
  -32.3223  -33.8680  -56.4466 H   0  0  0  0  0  0  0  0  0  0  0  0
  -32.3645  -34.1070  -58.0614 H   0  0  0  0  0  0  0  0  0  0  0  0
  -32.6555  -31.5649  -52.4734 H   0  0  0  0  0  0  0  0  0  0  0  0
  -29.0857  -30.6448  -57.7089 H   0  0  0  0  0  0  0  0  0  0  0  0
  -30.9431  -33.9710  -54.8750 H   0  0  0  0  0  0  0  0  0  0  0  0
  -29.7467  -34.8892  -54.2487 H   0  0  0  0  0  0  0  0  0  0  0  0
  -29.0458  -34.5379  -57.9162 H   0  0  0  0  0  0  0  0  0  0  0  0
  -30.1713  -33.3932  -57.6168 H   0  0  0  0  0  0  0  0  0  0  0  0
  -28.0380  -32.7358  -56.4387 H   0  0  0  0  0  0  0  0  0  0  0  0
  -28.4925  -32.9355  -54.8830 H   0  0  0  0  0  0  0  0  0  0  0  0
  -33.6565  -35.8838  -61.8745 H   0  0  0  0  0  0  0  0  0  0  0  0
  -36.4537  -38.3552  -60.0055 H   0  0  0  0  0  0  0  0  0  0  0  0
  -32.9366  -35.0849  -59.7772 H   0  0  0  0  0  0  0  0  0  0  0  0
  -35.7424  -37.5268  -57.8781 H   0  0  0  0  0  0  0  0  0  0  0  0
  -31.6097  -36.2343  -55.5395 H   0  0  0  0  0  0  0  0  0  0  0  0
  -30.8572  -36.1380  -57.7811 H   0  0  0  0  0  0  0  0  0  0  0  0
  1 19  1  0  0  0  0
  2  9  1  0  0  0  0
  2 20  1  0  0  0  0
  3 22  1  0  0  0  0
  4 21  1  0  0  0  0
  5 10  1  0  0  0  0
  5 21  2  0  0  0  0
  6 10  2  0  0  0  0
  6 24  1  0  0  0  0
  7 11  1  0  0  0  0
  7 23  1  0  0  0  0
  8 12  1  0  0  0  0
  8 13  1  0  0  0  0
  8 14  1  0  0  0  0
  9 25  1  0  0  0  0
 11 26  2  0  0  0  0
 12 22  1  0  0  0  0
 13 25  1  0  0  0  0
 14 26  1  0  0  0  0
 15 17  2  0  0  0  0
 15 19  1  0  0  0  0
 16 18  1  0  0  0  0
 16 19  2  0  0  0  0
 17 20  1  0  0  0  0
 18 20  2  0  0  0  0
 21 23  1  0  0  0  0
 22 25  1  0  0  0  0
 23 24  2  0  0  0  0
 24 26  1  0  0  0  0
  3 27  1  0  0  0  0
  4 28  1  0  0  0  0
  4 29  1  0  0  0  0
  7 30  1  0  0  0  0
  9 31  1  0  0  0  0
  9 32  1  0  0  0  0
 10 33  1  0  0  0  0
 11 34  1  0  0  0  0
 12 35  1  0  0  0  0
 12 36  1  0  0  0  0
 13 37  1  0  0  0  0
 13 38  1  0  0  0  0
 14 39  1  0  0  0  0
 14 40  1  0  0  0  0
 15 41  1  0  0  0  0
 16 42  1  0  0  0  0
 17 43  1  0  0  0  0
 18 44  1  0  0  0  0
 22 45  1  0  0  0  0
 25 46  1  0  0  0  0
M  END
> <pdb_id>
5KB3

> <uniprot_id>
Q9ZMY2

> <usmiles>
Clc1ccc(SC[C@@H]2[C@@H](O)CN(CC=3c4ncnc(N)c4NC3)C2)cc1

$$$$
4CT_B_234
          07202415043D 1   1.00000     0.00000     0
            
 46 49  0  0  0  0            999 V2000
  -29.6931   14.9013    6.4201 Cl  0  0  0  0  0  0  0  0  0  0  0  0
  -24.1471   12.4074    4.6182 S   0  0  0  0  0  0  0  0  0  0  0  0
  -25.7383    8.2562    4.6588 O   0  0  0  0  0  0  0  0  0  0  0  0
  -19.9562   11.8805   -1.6286 N   0  0  0  0  0  0  0  0  0  0  0  0
  -19.5684   10.6434    0.3484 N   0  0  0  0  0  0  0  0  0  0  0  0
  -21.2656    9.2069    1.2501 N   0  0  0  0  0  0  0  0  0  0  0  0
  -22.6964   10.5609   -1.6801 N   0  0  0  0  0  0  0  0  0  0  0  0
  -24.8107    8.5210    1.9202 N   0  0  0  0  0  0  0  0  0  0  0  0
  -24.5245   11.5435    3.0690 C   0  0  0  0  0  0  0  0  0  0  0  0
  -20.0408    9.7784    1.3240 C   0  0  0  0  0  0  0  0  0  0  0  0
  -23.7461    9.7366   -1.2592 C   0  0  0  0  0  0  0  0  0  0  0  0
  -23.9692    8.3206    3.1011 C   0  0  0  0  0  0  0  0  0  0  0  0
  -25.8382    9.6053    1.9725 C   0  0  0  0  0  0  0  0  0  0  0  0
  -24.3309    7.9823    0.6453 C   0  0  0  0  0  0  0  0  0  0  0  0
  -27.7565   12.9643    6.3152 C   0  0  0  0  0  0  0  0  0  0  0  0
  -27.2761   14.9543    4.9857 C   0  0  0  0  0  0  0  0  0  0  0  0
  -26.5282   12.4195    5.8372 C   0  0  0  0  0  0  0  0  0  0  0  0
  -26.0096   14.4722    4.6281 C   0  0  0  0  0  0  0  0  0  0  0  0
  -28.1067   14.2281    5.8468 C   0  0  0  0  0  0  0  0  0  0  0  0
  -25.6313   13.1746    4.9986 C   0  0  0  0  0  0  0  0  0  0  0  0
  -20.3905   10.9740   -0.6690 C   0  0  0  0  0  0  0  0  0  0  0  0
  -24.7402    9.1899    4.1250 C   0  0  1  0  0  0  0  0  0  0  0  0
  -21.6595   10.4007   -0.7682 C   0  0  0  0  0  0  0  0  0  0  0  0
  -22.0933    9.4872    0.2123 C   0  0  0  0  0  0  0  0  0  0  0  0
  -25.4144   10.2964    3.3321 C   0  0  1  0  0  0  0  0  0  0  0  0
  -23.3965    9.0338   -0.0548 C   0  0  0  0  0  0  0  0  0  0  0  0
  -26.3005    8.7234    5.3412 H   0  0  0  0  0  0  0  0  0  0  0  0
  -20.5576   12.1324   -2.3869 H   0  0  0  0  0  0  0  0  0  0  0  0
  -19.0424   12.2809   -1.5610 H   0  0  0  0  0  0  0  0  0  0  0  0
  -22.6930   11.1537   -2.4854 H   0  0  0  0  0  0  0  0  0  0  0  0
  -23.6696   11.2512    2.6404 H   0  0  0  0  0  0  0  0  0  0  0  0
  -25.0085   12.1676    2.4556 H   0  0  0  0  0  0  0  0  0  0  0  0
  -19.4569    9.5698    2.1086 H   0  0  0  0  0  0  0  0  0  0  0  0
  -24.6223    9.6482   -1.7330 H   0  0  0  0  0  0  0  0  0  0  0  0
  -23.0382    8.6554    2.9554 H   0  0  0  0  0  0  0  0  0  0  0  0
  -23.9385    7.3600    3.3772 H   0  0  0  0  0  0  0  0  0  0  0  0
  -26.7673    9.2378    2.0140 H   0  0  0  0  0  0  0  0  0  0  0  0
  -25.7613   10.2305    1.1959 H   0  0  0  0  0  0  0  0  0  0  0  0
  -25.1118    7.7848    0.0527 H   0  0  0  0  0  0  0  0  0  0  0  0
  -23.8176    7.1404    0.8120 H   0  0  0  0  0  0  0  0  0  0  0  0
  -28.3381   12.4629    6.9557 H   0  0  0  0  0  0  0  0  0  0  0  0
  -27.5909   15.8302    4.6201 H   0  0  0  0  0  0  0  0  0  0  0  0
  -26.2814   11.4845    6.0919 H   0  0  0  0  0  0  0  0  0  0  0  0
  -25.3791   15.0512    4.1113 H   0  0  0  0  0  0  0  0  0  0  0  0
  -24.1412    9.5502    4.8400 H   0  0  0  0  0  0  0  0  0  0  0  0
  -26.2392   10.5852    3.8182 H   0  0  0  0  0  0  0  0  0  0  0  0
  1 19  1  0  0  0  0
  2  9  1  0  0  0  0
  2 20  1  0  0  0  0
  3 22  1  0  0  0  0
  4 21  1  0  0  0  0
  5 10  1  0  0  0  0
  5 21  2  0  0  0  0
  6 10  2  0  0  0  0
  6 24  1  0  0  0  0
  7 11  1  0  0  0  0
  7 23  1  0  0  0  0
  8 12  1  0  0  0  0
  8 13  1  0  0  0  0
  8 14  1  0  0  0  0
  9 25  1  0  0  0  0
 11 26  2  0  0  0  0
 12 22  1  0  0  0  0
 13 25  1  0  0  0  0
 14 26  1  0  0  0  0
 15 17  2  0  0  0  0
 15 19  1  0  0  0  0
 16 18  1  0  0  0  0
 16 19  2  0  0  0  0
 17 20  1  0  0  0  0
 18 20  2  0  0  0  0
 21 23  1  0  0  0  0
 22 25  1  0  0  0  0
 23 24  2  0  0  0  0
 24 26  1  0  0  0  0
  3 27  1  0  0  0  0
  4 28  1  0  0  0  0
  4 29  1  0  0  0  0
  7 30  1  0  0  0  0
  9 31  1  0  0  0  0
  9 32  1  0  0  0  0
 10 33  1  0  0  0  0
 11 34  1  0  0  0  0
 12 35  1  0  0  0  0
 12 36  1  0  0  0  0
 13 37  1  0  0  0  0
 13 38  1  0  0  0  0
 14 39  1  0  0  0  0
 14 40  1  0  0  0  0
 15 41  1  0  0  0  0
 16 42  1  0  0  0  0
 17 43  1  0  0  0  0
 18 44  1  0  0  0  0
 22 45  1  0  0  0  0
 25 46  1  0  0  0  0
M  END
> <pdb_id>
3O4V

> <uniprot_id>
D3QWG1

> <usmiles>
Clc1ccc(SC[C@@H]2[C@@H](O)CN(CC=3c4ncnc(N)c4NC3)C2)cc1

$$$$
4DF_A_701
          07192419173D 1   1.00000     0.00000     0
            
 49 53  0  0  0  0            999 V2000
    6.6989    1.6670   15.1856 Cl  0  0  0  0  0  0  0  0  0  0  0  0
   -1.5829    0.2155   12.2863 S   0  0  0  0  0  0  0  0  0  0  0  0
   -1.9331    1.5041   12.8021 O   0  0  0  0  0  0  0  0  0  0  0  0
   -0.7745    0.1937   11.1087 O   0  0  0  0  0  0  0  0  0  0  0  0
   -2.8707   -0.8127   12.1743 N   0  0  0  0  0  0  0  0  0  0  0  0
    6.1306    5.5272   12.1286 N   0  0  0  0  0  0  0  0  0  0  0  0
    7.1865    4.8868   11.5513 N   0  0  0  0  0  0  0  0  0  0  0  0
    4.1151   -1.0601   16.3279 N   0  0  0  0  0  0  0  0  0  0  0  0
    3.1777    0.0003   14.3797 N   0  0  0  0  0  0  0  0  0  0  0  0
    2.0809   -1.6546   15.5905 N   0  0  0  0  0  0  0  0  0  0  0  0
    4.2755    1.6427   13.2244 N   0  0  0  0  0  0  0  0  0  0  0  0
    2.0953    2.8231   13.4469 C   0  0  0  0  0  0  0  0  0  0  0  0
   -3.2097   -1.4166   13.4661 C   0  0  0  0  0  0  0  0  0  0  0  0
    5.3423    4.5789   12.5926 C   0  0  0  0  0  0  0  0  0  0  0  0
    5.1983   -0.2885   16.2160 C   0  0  0  0  0  0  0  0  0  0  0  0
    2.9736    1.9695   12.5625 C   0  0  0  0  0  0  0  0  0  0  0  0
    7.5138    1.2014   11.4444 C   0  0  0  0  0  0  0  0  0  0  0  0
    7.8971    2.5125   11.1991 C   0  0  0  0  0  0  0  0  0  0  0  0
   -0.1955   -2.4215   15.6268 C   0  0  0  0  0  0  0  0  0  0  0  0
    6.3239    0.9202   12.1022 C   0  0  0  0  0  0  0  0  0  0  0  0
   -1.4855   -2.4076   15.1385 C   0  0  0  0  0  0  0  0  0  0  0  0
    0.4125   -0.7582   14.0410 C   0  0  0  0  0  0  0  0  0  0  0  0
    3.1580   -0.8727   15.4040 C   0  0  0  0  0  0  0  0  0  0  0  0
    5.3003    0.6369   15.1978 C   0  0  0  0  0  0  0  0  0  0  0  0
   -0.8835   -0.7544   13.5562 C   0  0  0  0  0  0  0  0  0  0  0  0
    4.2719    0.7677   14.2706 C   0  0  0  0  0  0  0  0  0  0  0  0
    0.7622   -1.5680   15.0923 C   0  0  0  0  0  0  0  0  0  0  0  0
    7.0777    3.5366   11.6523 C   0  0  0  0  0  0  0  0  0  0  0  0
    5.4935    1.9477   12.5466 C   0  0  0  0  0  0  0  0  0  0  0  0
   -1.8500   -1.5718   14.0883 C   0  0  0  0  0  0  0  0  0  0  0  0
    5.8650    3.2937   12.3288 C   0  0  0  0  0  0  0  0  0  0  0  0
   -2.6461   -1.5412   11.5271 H   0  0  0  0  0  0  0  0  0  0  0  0
    7.9500    5.3550   11.1066 H   0  0  0  0  0  0  0  0  0  0  0  0
    2.2422   -2.4387   16.1898 H   0  0  0  0  0  0  0  0  0  0  0  0
    1.2370    3.0208   12.9732 H   0  0  0  0  0  0  0  0  0  0  0  0
    1.9017    2.3332   14.2969 H   0  0  0  0  0  0  0  0  0  0  0  0
    2.5657    3.6804   13.6560 H   0  0  0  0  0  0  0  0  0  0  0  0
   -3.6612   -2.3011   13.3489 H   0  0  0  0  0  0  0  0  0  0  0  0
   -3.7937   -0.8135   14.0094 H   0  0  0  0  0  0  0  0  0  0  0  0
    4.4811    4.7481   13.0719 H   0  0  0  0  0  0  0  0  0  0  0  0
    5.9432   -0.3820   16.8766 H   0  0  0  0  0  0  0  0  0  0  0  0
    2.4931    1.1176   12.3542 H   0  0  0  0  0  0  0  0  0  0  0  0
    3.1572    2.4648   11.7133 H   0  0  0  0  0  0  0  0  0  0  0  0
    8.1016    0.4503   11.1438 H   0  0  0  0  0  0  0  0  0  0  0  0
    8.7440    2.7145   10.7072 H   0  0  0  0  0  0  0  0  0  0  0  0
    0.0511   -3.0471   16.3670 H   0  0  0  0  0  0  0  0  0  0  0  0
    6.0594   -0.0314   12.2591 H   0  0  0  0  0  0  0  0  0  0  0  0
   -2.1714   -3.0096   15.5472 H   0  0  0  0  0  0  0  0  0  0  0  0
    1.1003   -0.1658   13.6216 H   0  0  0  0  0  0  0  0  0  0  0  0
  1 24  1  0  0  0  0
  2  3  2  0  0  0  0
  2  4  2  0  0  0  0
  2  5  1  0  0  0  0
  2 25  1  0  0  0  0
  5 13  1  0  0  0  0
  6  7  1  0  0  0  0
  6 14  2  0  0  0  0
  7 28  1  0  0  0  0
  8 15  1  0  0  0  0
  8 23  2  0  0  0  0
  9 23  1  0  0  0  0
  9 26  2  0  0  0  0
 10 23  1  0  0  0  0
 10 27  1  0  0  0  0
 11 16  1  0  0  0  0
 11 26  1  0  0  0  0
 11 29  1  0  0  0  0
 12 16  1  0  0  0  0
 13 30  1  0  0  0  0
 14 31  1  0  0  0  0
 15 24  2  0  0  0  0
 17 18  1  0  0  0  0
 17 20  2  0  0  0  0
 18 28  2  0  0  0  0
 19 21  1  0  0  0  0
 19 27  2  0  0  0  0
 20 29  1  0  0  0  0
 21 30  2  0  0  0  0
 22 25  2  0  0  0  0
 22 27  1  0  0  0  0
 24 26  1  0  0  0  0
 25 30  1  0  0  0  0
 28 31  1  0  0  0  0
 29 31  2  0  0  0  0
  5 32  1  0  0  0  0
  7 33  1  0  0  0  0
 10 34  1  0  0  0  0
 12 35  1  0  0  0  0
 12 36  1  0  0  0  0
 12 37  1  0  0  0  0
 13 38  1  0  0  0  0
 13 39  1  0  0  0  0
 14 40  1  0  0  0  0
 15 41  1  0  0  0  0
 16 42  1  0  0  0  0
 16 43  1  0  0  0  0
 17 44  1  0  0  0  0
 18 45  1  0  0  0  0
 19 46  1  0  0  0  0
 20 47  1  0  0  0  0
 21 48  1  0  0  0  0
 22 49  1  0  0  0  0
M  END
> <pdb_id>
4YJO

> <uniprot_id>
P43405

> <usmiles>
Clc1c(nc(nc1)Nc2cc3S(=O)(=O)NCc3cc2)N(c4c5c(NN=C5)ccc4)CC

$$$$
4DH_A_165
          07192422023D 1   1.00000     0.00000     0
            
 48 51  0  0  0  0            999 V2000
   39.3330  -27.3840  -19.3510 O   0  0  0  0  0  0  0  0  0  0  0  0
   39.7750  -27.9340  -17.3500 O   0  0  0  0  0  0  0  0  0  0  0  0
   34.8900  -27.8080  -18.3480 O   0  0  0  0  0  0  0  0  0  0  0  0
   33.3790  -25.9940  -21.7610 N   0  0  0  0  0  0  0  0  0  0  0  0
   36.7820  -26.7260  -18.9490 N   0  0  0  0  0  0  0  0  0  0  0  0
   35.3530  -24.7970  -17.0060 N   0  0  0  0  0  0  0  0  0  0  0  0
   35.6000  -25.9510  -15.1850 N   0  0  0  0  0  0  0  0  0  0  0  0
   33.5760  -26.4220  -20.6240 N   0  0  0  0  0  0  0  0  0  0  0  0
   32.5180  -26.7100  -19.6290 C   0  0  0  0  0  0  0  0  0  0  0  0
   35.1530  -24.4780  -26.2620 C   0  0  0  0  0  0  0  0  0  0  0  0
   36.1120  -25.2820  -25.6560 C   0  0  0  0  0  0  0  0  0  0  0  0
   33.9970  -24.1340  -25.5720 C   0  0  0  0  0  0  0  0  0  0  0  0
   32.0150  -24.0450  -15.6130 C   0  0  0  0  0  0  0  0  0  0  0  0
   32.1730  -24.7840  -14.4460 C   0  0  0  0  0  0  0  0  0  0  0  0
   33.0430  -23.9890  -16.5460 C   0  0  0  0  0  0  0  0  0  0  0  0
   33.3600  -25.4680  -14.2110 C   0  0  0  0  0  0  0  0  0  0  0  0
   35.9150  -25.7400  -24.3580 C   0  0  0  0  0  0  0  0  0  0  0  0
   33.8000  -24.5930  -24.2740 C   0  0  0  0  0  0  0  0  0  0  0  0
   37.5980  -25.9760  -16.7640 C   0  0  0  0  0  0  0  0  0  0  0  0
   35.5170  -26.2310  -21.5220 C   0  0  0  0  0  0  0  0  0  0  0  0
   38.9740  -27.5070  -18.1810 C   0  0  0  0  0  0  0  0  0  0  0  0
   35.5200  -27.1020  -19.1330 C   0  0  0  0  0  0  0  0  0  0  0  0
   36.1900  -25.5760  -16.3200 C   0  0  0  0  0  0  0  0  0  0  0  0
   37.5500  -27.1330  -17.7640 C   0  0  2  0  0  0  0  0  0  0  0  0
   34.5610  -25.8550  -22.3710 C   0  0  0  0  0  0  0  0  0  0  0  0
   34.2290  -24.6740  -16.3090 C   0  0  0  0  0  0  0  0  0  0  0  0
   34.3870  -25.4110  -15.1460 C   0  0  0  0  0  0  0  0  0  0  0  0
   34.8740  -26.5870  -20.4210 C   0  0  0  0  0  0  0  0  0  0  0  0
   34.7590  -25.3960  -23.6680 C   0  0  0  0  0  0  0  0  0  0  0  0
   38.6926  -27.0382  -20.0368 H   0  0  0  0  0  0  0  0  0  0  0  0
   37.2216  -26.1491  -19.6374 H   0  0  0  0  0  0  0  0  0  0  0  0
   35.5397  -24.3769  -17.8941 H   0  0  0  0  0  0  0  0  0  0  0  0
   32.9365  -27.0467  -18.7855 H   0  0  0  0  0  0  0  0  0  0  0  0
   32.0053  -25.8734  -19.4359 H   0  0  0  0  0  0  0  0  0  0  0  0
   31.8977  -27.4044  -19.9936 H   0  0  0  0  0  0  0  0  0  0  0  0
   35.2953  -24.1472  -27.1949 H   0  0  0  0  0  0  0  0  0  0  0  0
   36.9431  -25.5307  -26.1535 H   0  0  0  0  0  0  0  0  0  0  0  0
   33.3070  -23.5566  -26.0085 H   0  0  0  0  0  0  0  0  0  0  0  0
   31.1606  -23.5533  -15.7810 H   0  0  0  0  0  0  0  0  0  0  0  0
   31.4323  -24.8235  -13.7753 H   0  0  0  0  0  0  0  0  0  0  0  0
   32.9300  -23.4575  -17.3855 H   0  0  0  0  0  0  0  0  0  0  0  0
   33.4748  -25.9995  -13.3718 H   0  0  0  0  0  0  0  0  0  0  0  0
   36.6052  -26.3169  -23.9211 H   0  0  0  0  0  0  0  0  0  0  0  0
   32.9685  -24.3453  -23.7768 H   0  0  0  0  0  0  0  0  0  0  0  0
   38.1257  -26.2580  -15.9628 H   0  0  0  0  0  0  0  0  0  0  0  0
   38.0407  -25.1896  -17.1948 H   0  0  0  0  0  0  0  0  0  0  0  0
   36.5041  -26.2418  -21.6817 H   0  0  0  0  0  0  0  0  0  0  0  0
   37.1098  -27.9232  -17.3376 H   0  0  0  0  0  0  0  0  0  0  0  0
  1 21  1  0  0  0  0
  2 21  2  0  0  0  0
  3 22  2  0  0  0  0
  4  8  1  0  0  0  0
  4 25  2  0  0  0  0
  5 22  1  0  0  0  0
  5 24  1  0  0  0  0
  6 23  1  0  0  0  0
  6 26  1  0  0  0  0
  7 23  2  0  0  0  0
  7 27  1  0  0  0  0
  8  9  1  0  0  0  0
  8 28  1  0  0  0  0
 10 11  2  0  0  0  0
 10 12  1  0  0  0  0
 11 17  1  0  0  0  0
 12 18  2  0  0  0  0
 13 14  2  0  0  0  0
 13 15  1  0  0  0  0
 14 16  1  0  0  0  0
 15 26  2  0  0  0  0
 16 27  2  0  0  0  0
 17 29  2  0  0  0  0
 18 29  1  0  0  0  0
 19 23  1  0  0  0  0
 19 24  1  0  0  0  0
 20 25  1  0  0  0  0
 20 28  2  0  0  0  0
 21 24  1  0  0  0  0
 22 28  1  0  0  0  0
 25 29  1  0  0  0  0
 26 27  1  0  0  0  0
  1 30  1  0  0  0  0
  5 31  1  0  0  0  0
  6 32  1  0  0  0  0
  9 33  1  0  0  0  0
  9 34  1  0  0  0  0
  9 35  1  0  0  0  0
 10 36  1  0  0  0  0
 11 37  1  0  0  0  0
 12 38  1  0  0  0  0
 13 39  1  0  0  0  0
 14 40  1  0  0  0  0
 15 41  1  0  0  0  0
 16 42  1  0  0  0  0
 17 43  1  0  0  0  0
 18 44  1  0  0  0  0
 19 45  1  0  0  0  0
 19 46  1  0  0  0  0
 20 47  1  0  0  0  0
 24 48  1  0  0  0  0
M  END
> <pdb_id>
3KAH

> <uniprot_id>
Q13526

> <usmiles>
O=C(O)[C@H](NC(=O)C=1N(N=C(c2ccccc2)C1)C)CC3=Nc4c(N3)cccc4

$$$$
4DL_A_701
          07192419173D 1   1.00000     0.00000     0
            
 50 54  0  0  0  0            999 V2000
   -1.1797    0.1620   12.3638 S   0  0  0  0  0  0  0  0  0  0  0  0
   -1.4736    1.4937   12.7861 O   0  0  0  0  0  0  0  0  0  0  0  0
   -0.3801    0.0140   11.1902 O   0  0  0  0  0  0  0  0  0  0  0  0
    3.1647    3.2340   11.8647 O   0  0  0  0  0  0  0  0  0  0  0  0
   -2.5519   -0.7380   12.1831 N   0  0  0  0  0  0  0  0  0  0  0  0
    6.5022    4.8031   14.0547 N   0  0  0  0  0  0  0  0  0  0  0  0
    7.5614    4.6512   13.2096 N   0  0  0  0  0  0  0  0  0  0  0  0
    4.4288   -1.0535   16.4580 N   0  0  0  0  0  0  0  0  0  0  0  0
    3.5337   -0.2420   14.3957 N   0  0  0  0  0  0  0  0  0  0  0  0
    2.2730   -1.4705   15.9358 N   0  0  0  0  0  0  0  0  0  0  0  0
    4.8188    0.9533   12.8726 N   0  0  0  0  0  0  0  0  0  0  0  0
    2.6752    1.9549   12.2147 C   0  0  0  0  0  0  0  0  0  0  0  0
    5.5889   -0.4566   16.1437 C   0  0  0  0  0  0  0  0  0  0  0  0
   -2.7829   -1.6418   13.3225 C   0  0  0  0  0  0  0  0  0  0  0  0
    5.7660    3.7242   13.9091 C   0  0  0  0  0  0  0  0  0  0  0  0
    3.7063    0.9049   11.9175 C   0  0  0  0  0  0  0  0  0  0  0  0
    8.0198    1.6820   11.0671 C   0  0  0  0  0  0  0  0  0  0  0  0
    5.8032    0.2240   14.9701 C   0  0  0  0  0  0  0  0  0  0  0  0
    8.3570    2.9147   11.5963 C   0  0  0  0  0  0  0  0  0  0  0  0
    0.1111   -2.4822   15.7606 C   0  0  0  0  0  0  0  0  0  0  0  0
    6.8792    1.0122   11.4915 C   0  0  0  0  0  0  0  0  0  0  0  0
   -1.1375   -2.5746   15.1756 C   0  0  0  0  0  0  0  0  0  0  0  0
    0.6634   -0.7227   14.2563 C   0  0  0  0  0  0  0  0  0  0  0  0
    3.4411   -0.9002   15.5625 C   0  0  0  0  0  0  0  0  0  0  0  0
   -0.5969   -0.8199   13.6852 C   0  0  0  0  0  0  0  0  0  0  0  0
    4.7151    0.2993   14.1037 C   0  0  0  0  0  0  0  0  0  0  0  0
    1.0224   -1.5420   15.3046 C   0  0  0  0  0  0  0  0  0  0  0  0
    7.5106    3.4734   12.5420 C   0  0  0  0  0  0  0  0  0  0  0  0
    6.0274    1.5771   12.4355 C   0  0  0  0  0  0  0  0  0  0  0  0
   -1.5091   -1.7430   14.1242 C   0  0  0  0  0  0  0  0  0  0  0  0
    6.3252    2.8401   12.9663 C   0  0  0  0  0  0  0  0  0  0  0  0
    2.4697    3.9238   12.0672 H   0  0  0  0  0  0  0  0  0  0  0  0
   -2.4698   -1.2854   11.3502 H   0  0  0  0  0  0  0  0  0  0  0  0
    8.2887    5.3281   13.0962 H   0  0  0  0  0  0  0  0  0  0  0  0
    2.3072   -1.9249   16.8260 H   0  0  0  0  0  0  0  0  0  0  0  0
    1.8471    1.7629   11.6881 H   0  0  0  0  0  0  0  0  0  0  0  0
    2.4603    1.9395   13.1913 H   0  0  0  0  0  0  0  0  0  0  0  0
    6.3402   -0.5104   16.8015 H   0  0  0  0  0  0  0  0  0  0  0  0
   -3.0422   -2.5474   12.9867 H   0  0  0  0  0  0  0  0  0  0  0  0
   -3.5150   -1.2776   13.8981 H   0  0  0  0  0  0  0  0  0  0  0  0
    4.9151    3.5525   14.4056 H   0  0  0  0  0  0  0  0  0  0  0  0
    3.2753    0.0039   11.9669 H   0  0  0  0  0  0  0  0  0  0  0  0
    4.0637    1.0532   10.9954 H   0  0  0  0  0  0  0  0  0  0  0  0
    8.6048    1.2676   10.3699 H   0  0  0  0  0  0  0  0  0  0  0  0
    6.6859    0.6397   14.7511 H   0  0  0  0  0  0  0  0  0  0  0  0
    9.1876    3.3895   11.3053 H   0  0  0  0  0  0  0  0  0  0  0  0
    0.3574   -3.0934   16.5128 H   0  0  0  0  0  0  0  0  0  0  0  0
    6.6673    0.1111   11.1132 H   0  0  0  0  0  0  0  0  0  0  0  0
   -1.7879   -3.2540   15.5153 H   0  0  0  0  0  0  0  0  0  0  0  0
    1.3170   -0.0526   13.9044 H   0  0  0  0  0  0  0  0  0  0  0  0
  1  2  2  0  0  0  0
  1  3  2  0  0  0  0
  1  5  1  0  0  0  0
  1 25  1  0  0  0  0
  4 12  1  0  0  0  0
  5 14  1  0  0  0  0
  6  7  1  0  0  0  0
  6 15  2  0  0  0  0
  7 28  1  0  0  0  0
  8 13  1  0  0  0  0
  8 24  2  0  0  0  0
  9 24  1  0  0  0  0
  9 26  2  0  0  0  0
 10 24  1  0  0  0  0
 10 27  1  0  0  0  0
 11 16  1  0  0  0  0
 11 26  1  0  0  0  0
 11 29  1  0  0  0  0
 12 16  1  0  0  0  0
 13 18  2  0  0  0  0
 14 30  1  0  0  0  0
 15 31  1  0  0  0  0
 17 19  1  0  0  0  0
 17 21  2  0  0  0  0
 18 26  1  0  0  0  0
 19 28  2  0  0  0  0
 20 22  1  0  0  0  0
 20 27  2  0  0  0  0
 21 29  1  0  0  0  0
 22 30  2  0  0  0  0
 23 25  2  0  0  0  0
 23 27  1  0  0  0  0
 25 30  1  0  0  0  0
 28 31  1  0  0  0  0
 29 31  2  0  0  0  0
  4 32  1  0  0  0  0
  5 33  1  0  0  0  0
  7 34  1  0  0  0  0
 10 35  1  0  0  0  0
 12 36  1  0  0  0  0
 12 37  1  0  0  0  0
 13 38  1  0  0  0  0
 14 39  1  0  0  0  0
 14 40  1  0  0  0  0
 15 41  1  0  0  0  0
 16 42  1  0  0  0  0
 16 43  1  0  0  0  0
 17 44  1  0  0  0  0
 18 45  1  0  0  0  0
 19 46  1  0  0  0  0
 20 47  1  0  0  0  0
 21 48  1  0  0  0  0
 22 49  1  0  0  0  0
 23 50  1  0  0  0  0
M  END
> <pdb_id>
4YJP

> <uniprot_id>
P43405

> <usmiles>
S1(=O)(=O)NCc2c1cc(Nc3nc(N(c4c5c(NN=C5)ccc4)CCO)ccn3)cc2

$$$$
4DO_A_701
          07192419173D 1   1.00000     0.00000     0
            
 46 50  0  0  0  0            999 V2000
   -1.4540    0.1518   12.3734 S   0  0  0  0  0  0  0  0  0  0  0  0
    6.6508    1.0881   15.0585 F   0  0  0  0  0  0  0  0  0  0  0  0
   -0.7866   -0.0209   11.1021 O   0  0  0  0  0  0  0  0  0  0  0  0
   -1.6404    1.4780   12.8692 O   0  0  0  0  0  0  0  0  0  0  0  0
    6.1799    5.4117   12.6272 N   0  0  0  0  0  0  0  0  0  0  0  0
    4.1952   -1.1750   16.4353 N   0  0  0  0  0  0  0  0  0  0  0  0
    3.2824   -0.0823   14.5445 N   0  0  0  0  0  0  0  0  0  0  0  0
   -2.8797   -0.6893   12.3381 N   0  0  0  0  0  0  0  0  0  0  0  0
    7.2479    4.8762   11.9743 N   0  0  0  0  0  0  0  0  0  0  0  0
    2.0543   -1.6049   15.8476 N   0  0  0  0  0  0  0  0  0  0  0  0
    4.3466    1.4764   13.2368 N   0  0  0  0  0  0  0  0  0  0  0  0
    3.0753    1.9086   12.6432 C   0  0  0  0  0  0  0  0  0  0  0  0
    5.3723    4.4315   12.9907 C   0  0  0  0  0  0  0  0  0  0  0  0
    5.3489   -0.5004   16.2357 C   0  0  0  0  0  0  0  0  0  0  0  0
    7.5009    1.2507   11.3122 C   0  0  0  0  0  0  0  0  0  0  0  0
   -0.1307   -2.5428   15.6863 C   0  0  0  0  0  0  0  0  0  0  0  0
    7.9080    2.5958   11.2734 C   0  0  0  0  0  0  0  0  0  0  0  0
    6.3377    0.8804   11.9849 C   0  0  0  0  0  0  0  0  0  0  0  0
   -1.4085   -2.6144   15.1346 C   0  0  0  0  0  0  0  0  0  0  0  0
    0.4338   -0.7095   14.1823 C   0  0  0  0  0  0  0  0  0  0  0  0
   -3.0941   -1.7176   13.3736 C   0  0  0  0  0  0  0  0  0  0  0  0
    3.2021   -0.9235   15.5813 C   0  0  0  0  0  0  0  0  0  0  0  0
   -0.8306   -0.8408   13.6448 C   0  0  0  0  0  0  0  0  0  0  0  0
    5.4968    0.4011   15.1921 C   0  0  0  0  0  0  0  0  0  0  0  0
    4.3903    0.6307   14.3336 C   0  0  0  0  0  0  0  0  0  0  0  0
    0.8045   -1.5689   15.2537 C   0  0  0  0  0  0  0  0  0  0  0  0
    7.1278    3.5436   11.8502 C   0  0  0  0  0  0  0  0  0  0  0  0
    5.5304    1.8558   12.5766 C   0  0  0  0  0  0  0  0  0  0  0  0
   -1.7638   -1.7590   14.1011 C   0  0  0  0  0  0  0  0  0  0  0  0
    5.9205    3.1921   12.4982 C   0  0  0  0  0  0  0  0  0  0  0  0
   -3.6292   -0.3806   11.7336 H   0  0  0  0  0  0  0  0  0  0  0  0
    7.9242    5.4144   11.5077 H   0  0  0  0  0  0  0  0  0  0  0  0
    2.1746   -2.2474   16.5911 H   0  0  0  0  0  0  0  0  0  0  0  0
    2.6626    1.0533   12.1077 H   0  0  0  0  0  0  0  0  0  0  0  0
    2.3846    2.2390   13.4192 H   0  0  0  0  0  0  0  0  0  0  0  0
    3.2271    2.7190   11.9273 H   0  0  0  0  0  0  0  0  0  0  0  0
    4.4583    4.5553   13.5510 H   0  0  0  0  0  0  0  0  0  0  0  0
    6.1584   -0.6092   16.9284 H   0  0  0  0  0  0  0  0  0  0  0  0
    8.1204    0.4863   10.8743 H   0  0  0  0  0  0  0  0  0  0  0  0
    0.1036   -3.2272   16.4882 H   0  0  0  0  0  0  0  0  0  0  0  0
    8.7955    2.8831   10.7403 H   0  0  0  0  0  0  0  0  0  0  0  0
    6.0574   -0.1592   12.0269 H   0  0  0  0  0  0  0  0  0  0  0  0
   -2.1152   -3.3513   15.4853 H   0  0  0  0  0  0  0  0  0  0  0  0
    1.0276    0.0613   13.7309 H   0  0  0  0  0  0  0  0  0  0  0  0
   -3.9075   -1.4322   14.0404 H   0  0  0  0  0  0  0  0  0  0  0  0
   -3.3111   -2.6697   12.8872 H   0  0  0  0  0  0  0  0  0  0  0  0
  1  3  2  0  0  0  0
  1  4  2  0  0  0  0
  1  8  1  0  0  0  0
  1 23  1  0  0  0  0
  2 24  1  0  0  0  0
  5  9  1  0  0  0  0
  5 13  2  0  0  0  0
  6 14  1  0  0  0  0
  6 22  2  0  0  0  0
  7 22  1  0  0  0  0
  7 25  2  0  0  0  0
  8 21  1  0  0  0  0
  8 31  1  0  0  0  0
  9 27  1  0  0  0  0
  9 32  1  0  0  0  0
 10 22  1  0  0  0  0
 10 26  1  0  0  0  0
 10 33  1  0  0  0  0
 11 12  1  0  0  0  0
 11 25  1  0  0  0  0
 11 28  1  0  0  0  0
 12 34  1  0  0  0  0
 12 35  1  0  0  0  0
 12 36  1  0  0  0  0
 13 30  1  0  0  0  0
 13 37  1  0  0  0  0
 14 24  2  0  0  0  0
 14 38  1  0  0  0  0
 15 17  1  0  0  0  0
 15 18  2  0  0  0  0
 15 39  1  0  0  0  0
 16 19  1  0  0  0  0
 16 26  2  0  0  0  0
 16 40  1  0  0  0  0
 17 27  2  0  0  0  0
 17 41  1  0  0  0  0
 18 28  1  0  0  0  0
 18 42  1  0  0  0  0
 19 29  2  0  0  0  0
 19 43  1  0  0  0  0
 20 23  2  0  0  0  0
 20 26  1  0  0  0  0
 20 44  1  0  0  0  0
 21 29  1  0  0  0  0
 21 45  1  0  0  0  0
 21 46  1  0  0  0  0
 23 29  1  0  0  0  0
 24 25  1  0  0  0  0
 27 30  1  0  0  0  0
 28 30  2  0  0  0  0
M  END
> <pdb_id>
4YJU

> <uniprot_id>
P43405

> <usmiles>
S1(=O)(=O)NCc2c1cc(Nc3nc(N(c4c5c(NN=C5)ccc4)C)c(F)cn3)cc2

$$$$
4DQ_A_702
          07192419173D 1   1.00000     0.00000     0
            
 49 53  0  0  0  0            999 V2000
   -1.5214   -0.0028   12.3694 S   0  0  0  0  0  0  0  0  0  0  0  0
    6.6600    1.0652   14.9925 F   0  0  0  0  0  0  0  0  0  0  0  0
   -0.7914   -0.2246   11.1661 O   0  0  0  0  0  0  0  0  0  0  0  0
   -1.6193    1.3536   12.7475 O   0  0  0  0  0  0  0  0  0  0  0  0
    6.2831    5.2664   13.0039 N   0  0  0  0  0  0  0  0  0  0  0  0
    4.2664   -1.1361   16.4392 N   0  0  0  0  0  0  0  0  0  0  0  0
    3.2589   -0.1309   14.5643 N   0  0  0  0  0  0  0  0  0  0  0  0
   -3.0129   -0.7502   12.3733 N   0  0  0  0  0  0  0  0  0  0  0  0
    7.2985    4.8254   12.2062 N   0  0  0  0  0  0  0  0  0  0  0  0
    2.0791   -1.6518   15.9403 N   0  0  0  0  0  0  0  0  0  0  0  0
    4.3841    1.4070   13.2404 N   0  0  0  0  0  0  0  0  0  0  0  0
    2.1090    2.4740   13.3591 C   0  0  0  0  0  0  0  0  0  0  0  0
    5.5245    4.2375   13.2606 C   0  0  0  0  0  0  0  0  0  0  0  0
    5.4011   -0.4889   16.2306 C   0  0  0  0  0  0  0  0  0  0  0  0
    7.5008    1.2722   11.1715 C   0  0  0  0  0  0  0  0  0  0  0  0
   -0.1345   -2.5977   15.7812 C   0  0  0  0  0  0  0  0  0  0  0  0
    7.9408    2.5831   11.1881 C   0  0  0  0  0  0  0  0  0  0  0  0
    6.3596    0.8664   11.8433 C   0  0  0  0  0  0  0  0  0  0  0  0
   -1.3984   -2.6847   15.2312 C   0  0  0  0  0  0  0  0  0  0  0  0
    0.4364   -0.8520   14.2302 C   0  0  0  0  0  0  0  0  0  0  0  0
   -3.0700   -1.8019   13.4138 C   0  0  0  0  0  0  0  0  0  0  0  0
    3.1176    1.6915   12.5067 C   0  0  0  0  0  0  0  0  0  0  0  0
    3.2242   -0.9320   15.6199 C   0  0  0  0  0  0  0  0  0  0  0  0
   -0.8344   -0.9470   13.6883 C   0  0  0  0  0  0  0  0  0  0  0  0
    5.5098    0.3898   15.1677 C   0  0  0  0  0  0  0  0  0  0  0  0
    4.3953    0.5291   14.3118 C   0  0  0  0  0  0  0  0  0  0  0  0
    0.8053   -1.6553   15.3216 C   0  0  0  0  0  0  0  0  0  0  0  0
    7.2007    3.4939   11.9537 C   0  0  0  0  0  0  0  0  0  0  0  0
    5.5991    1.7528   12.5677 C   0  0  0  0  0  0  0  0  0  0  0  0
   -1.7619   -1.8506   14.1744 C   0  0  0  0  0  0  0  0  0  0  0  0
    6.0071    3.0970   12.5832 C   0  0  0  0  0  0  0  0  0  0  0  0
   -3.7433   -0.5286   11.7751 H   0  0  0  0  0  0  0  0  0  0  0  0
    7.9805    5.3727   11.8383 H   0  0  0  0  0  0  0  0  0  0  0  0
    2.1895   -2.2678   16.6684 H   0  0  0  0  0  0  0  0  0  0  0  0
    1.8392    1.9313   14.2616 H   0  0  0  0  0  0  0  0  0  0  0  0
    2.5331    3.4343   13.6417 H   0  0  0  0  0  0  0  0  0  0  0  0
    1.2161    2.6389   12.7638 H   0  0  0  0  0  0  0  0  0  0  0  0
    4.6433    4.2623   13.8767 H   0  0  0  0  0  0  0  0  0  0  0  0
    6.2203   -0.5917   16.9116 H   0  0  0  0  0  0  0  0  0  0  0  0
    8.0501    0.5463   10.5979 H   0  0  0  0  0  0  0  0  0  0  0  0
    0.1161   -3.2533   16.6013 H   0  0  0  0  0  0  0  0  0  0  0  0
    8.8286    2.8855   10.6572 H   0  0  0  0  0  0  0  0  0  0  0  0
    6.0468   -0.1638   11.7696 H   0  0  0  0  0  0  0  0  0  0  0  0
   -2.1028   -3.4046   15.6175 H   0  0  0  0  0  0  0  0  0  0  0  0
    1.1042   -0.1242   13.8169 H   0  0  0  0  0  0  0  0  0  0  0  0
   -3.2496   -2.7678   12.9432 H   0  0  0  0  0  0  0  0  0  0  0  0
   -3.8824   -1.5878   14.1058 H   0  0  0  0  0  0  0  0  0  0  0  0
    2.6616    0.7531   12.1886 H   0  0  0  0  0  0  0  0  0  0  0  0
    3.3409    2.2790   11.6151 H   0  0  0  0  0  0  0  0  0  0  0  0
  1  3  2  0  0  0  0
  1  4  2  0  0  0  0
  1  8  1  0  0  0  0
  1 24  1  0  0  0  0
  2 25  1  0  0  0  0
  5  9  1  0  0  0  0
  5 13  2  0  0  0  0
  6 14  1  0  0  0  0
  6 23  2  0  0  0  0
  7 23  1  0  0  0  0
  7 26  2  0  0  0  0
  8 21  1  0  0  0  0
  8 32  1  0  0  0  0
  9 28  1  0  0  0  0
  9 33  1  0  0  0  0
 10 23  1  0  0  0  0
 10 27  1  0  0  0  0
 10 34  1  0  0  0  0
 11 22  1  0  0  0  0
 11 26  1  0  0  0  0
 11 29  1  0  0  0  0
 12 22  1  0  0  0  0
 12 35  1  0  0  0  0
 12 36  1  0  0  0  0
 12 37  1  0  0  0  0
 13 31  1  0  0  0  0
 13 38  1  0  0  0  0
 14 25  2  0  0  0  0
 14 39  1  0  0  0  0
 15 17  1  0  0  0  0
 15 18  2  0  0  0  0
 15 40  1  0  0  0  0
 16 19  1  0  0  0  0
 16 27  2  0  0  0  0
 16 41  1  0  0  0  0
 17 28  2  0  0  0  0
 17 42  1  0  0  0  0
 18 29  1  0  0  0  0
 18 43  1  0  0  0  0
 19 30  2  0  0  0  0
 19 44  1  0  0  0  0
 20 24  2  0  0  0  0
 20 27  1  0  0  0  0
 20 45  1  0  0  0  0
 21 30  1  0  0  0  0
 21 46  1  0  0  0  0
 21 47  1  0  0  0  0
 22 48  1  0  0  0  0
 22 49  1  0  0  0  0
 24 30  1  0  0  0  0
 25 26  1  0  0  0  0
 28 31  1  0  0  0  0
 29 31  2  0  0  0  0
M  END
> <pdb_id>
4YJT

> <uniprot_id>
P43405

> <usmiles>
S1(=O)(=O)NCc2c1cc(Nc3nc(N(c4c5c(NN=C5)ccc4)CC)c(F)cn3)cc2

$$$$
4E2_A_519
          07202416203D 1   1.00000     0.00000     0
            
 30 33  0  0  0  0            999 V2000
   -2.2803    1.6229   25.7493 I   0  0  0  0  0  0  0  0  0  0  0  0
   -8.4106   -0.2533   29.6001 Cl  0  0  0  0  0  0  0  0  0  0  0  0
   -1.5632   -5.1699   30.7404 O   0  0  0  0  0  0  0  0  0  0  0  0
   -3.9021   -5.5216   30.8704 O   0  0  0  0  0  0  0  0  0  0  0  0
   -1.8964   -3.3357   29.4175 N   0  0  0  0  0  0  0  0  0  0  0  0
   -5.4655   -1.3660   29.2452 N   0  0  0  0  0  0  0  0  0  0  0  0
   -7.7754   -3.6617   31.7074 C   0  0  0  0  0  0  0  0  0  0  0  0
   -0.9536   -0.7351   27.0224 C   0  0  0  0  0  0  0  0  0  0  0  0
   -8.3995   -2.5418   31.1624 C   0  0  0  0  0  0  0  0  0  0  0  0
   -0.8581   -1.8335   27.8514 C   0  0  0  0  0  0  0  0  0  0  0  0
   -6.4305   -3.9889   31.4210 C   0  0  0  0  0  0  0  0  0  0  0  0
   -3.2689   -0.4927   27.6733 C   0  0  0  0  0  0  0  0  0  0  0  0
   -2.1568   -0.0630   26.9518 C   0  0  0  0  0  0  0  0  0  0  0  0
   -2.8247   -4.8967   30.6914 C   0  0  0  0  0  0  0  0  0  0  0  0
   -7.6839   -1.7066   30.3218 C   0  0  0  0  0  0  0  0  0  0  0  0
   -1.9637   -2.2618   28.5805 C   0  0  0  0  0  0  0  0  0  0  0  0
   -3.0808   -3.7577   30.0401 C   0  0  0  0  0  0  0  0  0  0  0  0
   -6.3619   -2.0212   30.0428 C   0  0  0  0  0  0  0  0  0  0  0  0
   -4.2905   -2.0082   29.2327 C   0  0  0  0  0  0  0  0  0  0  0  0
   -3.1697   -1.5889   28.5013 C   0  0  0  0  0  0  0  0  0  0  0  0
   -5.6994   -3.1411   30.5510 C   0  0  0  0  0  0  0  0  0  0  0  0
   -4.3615   -3.1007   30.0180 C   0  0  0  0  0  0  0  0  0  0  0  0
   -0.8894   -4.4572   30.5456 H   0  0  0  0  0  0  0  0  0  0  0  0
   -5.6601   -0.5244   28.7414 H   0  0  0  0  0  0  0  0  0  0  0  0
   -8.2964   -4.2541   32.3220 H   0  0  0  0  0  0  0  0  0  0  0  0
   -0.1674   -0.4321   26.4838 H   0  0  0  0  0  0  0  0  0  0  0  0
   -9.3559   -2.3431   31.3766 H   0  0  0  0  0  0  0  0  0  0  0  0
    0.0096   -2.3244   27.9288 H   0  0  0  0  0  0  0  0  0  0  0  0
   -6.0045   -4.7996   31.8226 H   0  0  0  0  0  0  0  0  0  0  0  0
   -4.1383   -0.0055   27.5900 H   0  0  0  0  0  0  0  0  0  0  0  0
  1 13  1  0  0  0  0
  2 15  1  0  0  0  0
  3 14  1  0  0  0  0
  4 14  2  0  0  0  0
  5 16  1  0  0  0  0
  5 17  2  0  0  0  0
  6 18  1  0  0  0  0
  6 19  1  0  0  0  0
  7  9  2  0  0  0  0
  7 11  1  0  0  0  0
  8 10  1  0  0  0  0
  8 13  2  0  0  0  0
  9 15  1  0  0  0  0
 10 16  2  0  0  0  0
 11 21  2  0  0  0  0
 12 13  1  0  0  0  0
 12 20  2  0  0  0  0
 14 17  1  0  0  0  0
 15 18  2  0  0  0  0
 16 20  1  0  0  0  0
 17 22  1  0  0  0  0
 18 21  1  0  0  0  0
 19 20  1  0  0  0  0
 19 22  2  0  0  0  0
 21 22  1  0  0  0  0
  3 23  1  0  0  0  0
  6 24  1  0  0  0  0
  7 25  1  0  0  0  0
  8 26  1  0  0  0  0
  9 27  1  0  0  0  0
 10 28  1  0  0  0  0
 11 29  1  0  0  0  0
 12 30  1  0  0  0  0
M  END
> <pdb_id>
4YLK

> <uniprot_id>
Q13627

> <usmiles>
Ic1cc2c(nc(c3c2Nc4c(Cl)cccc43)C(=O)O)cc1

$$$$
4E3_A_515
          07202416203D 1   1.00000     0.00000     0
            
 30 33  0  0  0  0            999 V2000
   -2.3076    1.5989   25.7227 I   0  0  0  0  0  0  0  0  0  0  0  0
   -8.4263   -0.2845   29.5499 Br  0  0  0  0  0  0  0  0  0  0  0  0
   -1.3576   -5.2376   30.6031 O   0  0  0  0  0  0  0  0  0  0  0  0
   -3.7752   -5.5687   30.7203 O   0  0  0  0  0  0  0  0  0  0  0  0
   -1.6517   -3.3423   29.5042 N   0  0  0  0  0  0  0  0  0  0  0  0
   -5.3584   -1.4465   29.3171 N   0  0  0  0  0  0  0  0  0  0  0  0
   -7.6749   -3.8365   31.6795 C   0  0  0  0  0  0  0  0  0  0  0  0
   -0.8496   -0.6550   27.1219 C   0  0  0  0  0  0  0  0  0  0  0  0
   -8.3289   -2.7123   31.1538 C   0  0  0  0  0  0  0  0  0  0  0  0
   -0.7091   -1.7471   27.9410 C   0  0  0  0  0  0  0  0  0  0  0  0
   -6.3377   -4.1788   31.3743 C   0  0  0  0  0  0  0  0  0  0  0  0
   -3.1877   -0.5385   27.7613 C   0  0  0  0  0  0  0  0  0  0  0  0
   -2.0916   -0.0333   27.0683 C   0  0  0  0  0  0  0  0  0  0  0  0
   -2.6449   -4.9637   30.6160 C   0  0  0  0  0  0  0  0  0  0  0  0
   -7.6283   -1.8561   30.3251 C   0  0  0  0  0  0  0  0  0  0  0  0
   -1.7995   -2.2476   28.6739 C   0  0  0  0  0  0  0  0  0  0  0  0
   -2.9045   -3.8475   30.0534 C   0  0  0  0  0  0  0  0  0  0  0  0
   -6.2862   -2.1398   30.0691 C   0  0  0  0  0  0  0  0  0  0  0  0
   -4.1847   -2.0842   29.3136 C   0  0  0  0  0  0  0  0  0  0  0  0
   -3.0562   -1.6458   28.5926 C   0  0  0  0  0  0  0  0  0  0  0  0
   -5.5940   -3.2921   30.5465 C   0  0  0  0  0  0  0  0  0  0  0  0
   -4.2559   -3.2339   30.0460 C   0  0  0  0  0  0  0  0  0  0  0  0
   -0.6905   -4.4998   30.4996 H   0  0  0  0  0  0  0  0  0  0  0  0
   -5.5401   -0.5861   28.8410 H   0  0  0  0  0  0  0  0  0  0  0  0
   -8.1829   -4.4287   32.3050 H   0  0  0  0  0  0  0  0  0  0  0  0
   -0.0808   -0.3163   26.5794 H   0  0  0  0  0  0  0  0  0  0  0  0
   -9.2874   -2.5330   31.3753 H   0  0  0  0  0  0  0  0  0  0  0  0
    0.1823   -2.1936   28.0178 H   0  0  0  0  0  0  0  0  0  0  0  0
   -5.9270   -5.0187   31.7292 H   0  0  0  0  0  0  0  0  0  0  0  0
   -4.0807   -0.0999   27.6603 H   0  0  0  0  0  0  0  0  0  0  0  0
  1 13  1  0  0  0  0
  2 15  1  0  0  0  0
  3 14  1  0  0  0  0
  4 14  2  0  0  0  0
  5 16  1  0  0  0  0
  5 17  2  0  0  0  0
  6 18  1  0  0  0  0
  6 19  1  0  0  0  0
  7  9  2  0  0  0  0
  7 11  1  0  0  0  0
  8 10  1  0  0  0  0
  8 13  2  0  0  0  0
  9 15  1  0  0  0  0
 10 16  2  0  0  0  0
 11 21  2  0  0  0  0
 12 13  1  0  0  0  0
 12 20  2  0  0  0  0
 14 17  1  0  0  0  0
 15 18  2  0  0  0  0
 16 20  1  0  0  0  0
 17 22  1  0  0  0  0
 18 21  1  0  0  0  0
 19 20  1  0  0  0  0
 19 22  2  0  0  0  0
 21 22  1  0  0  0  0
  3 23  1  0  0  0  0
  6 24  1  0  0  0  0
  7 25  1  0  0  0  0
  8 26  1  0  0  0  0
  9 27  1  0  0  0  0
 10 28  1  0  0  0  0
 11 29  1  0  0  0  0
 12 30  1  0  0  0  0
M  END
> <pdb_id>
4YLL

> <uniprot_id>
Q13627

> <usmiles>
Ic1cc2c(nc(c3c2Nc4c(Br)cccc43)C(=O)O)cc1

$$$$
4EH_A_301
          07212402473D 1   1.00000     0.00000     0
            
 44 47  0  0  0  0            999 V2000
  -33.8017  -35.7400  -57.1266 S   0  0  0  0  0  0  0  0  0  0  0  0
  -29.7067  -36.9137  -55.8668 O   0  0  0  0  0  0  0  0  0  0  0  0
  -33.0281  -28.1656  -55.3172 N   0  0  0  0  0  0  0  0  0  0  0  0
  -34.0192  -36.6437  -60.9749 N   0  0  0  0  0  0  0  0  0  0  0  0
  -32.9452  -29.9776  -53.7551 N   0  0  0  0  0  0  0  0  0  0  0  0
  -35.2882  -37.2744  -58.6913 N   0  0  0  0  0  0  0  0  0  0  0  0
  -31.3567  -31.7482  -53.9631 N   0  0  0  0  0  0  0  0  0  0  0  0
  -30.6756  -29.6097  -56.7013 N   0  0  0  0  0  0  0  0  0  0  0  0
  -29.2081  -34.1364  -56.1472 N   0  0  0  0  0  0  0  0  0  0  0  0
  -32.4084  -34.6412  -57.2112 C   0  0  0  0  0  0  0  0  0  0  0  0
  -32.3825  -31.1420  -53.3251 C   0  0  0  0  0  0  0  0  0  0  0  0
  -35.0410  -37.5176  -61.0165 C   0  0  0  0  0  0  0  0  0  0  0  0
  -35.6872  -37.8421  -59.8394 C   0  0  0  0  0  0  0  0  0  0  0  0
  -33.6000  -36.0759  -59.8269 C   0  0  0  0  0  0  0  0  0  0  0  0
  -29.7269  -30.5638  -56.9433 C   0  0  0  0  0  0  0  0  0  0  0  0
  -29.9921  -34.6989  -55.0332 C   0  0  0  0  0  0  0  0  0  0  0  0
  -29.9842  -34.2958  -57.3942 C   0  0  0  0  0  0  0  0  0  0  0  0
  -28.8007  -32.7517  -55.9321 C   0  0  0  0  0  0  0  0  0  0  0  0
  -34.2494  -36.4004  -58.6414 C   0  0  0  0  0  0  0  0  0  0  0  0
  -32.4850  -29.3215  -54.8728 C   0  0  0  0  0  0  0  0  0  0  0  0
  -30.6761  -35.8679  -55.7255 C   0  0  1  0  0  0  0  0  0  0  0  0
  -31.3743  -29.9092  -55.6085 C   0  0  0  0  0  0  0  0  0  0  0  0
  -30.8495  -31.1620  -55.0707 C   0  0  0  0  0  0  0  0  0  0  0  0
  -31.0585  -35.3472  -57.0992 C   0  0  1  0  0  0  0  0  0  0  0  0
  -29.7756  -31.5816  -55.9933 C   0  0  0  0  0  0  0  0  0  0  0  0
  -30.1276  -37.6993  -56.3203 H   0  0  0  0  0  0  0  0  0  0  0  0
  -32.6611  -27.7227  -56.1352 H   0  0  0  0  0  0  0  0  0  0  0  0
  -33.7968  -27.7538  -54.8278 H   0  0  0  0  0  0  0  0  0  0  0  0
  -30.8243  -28.7987  -57.2671 H   0  0  0  0  0  0  0  0  0  0  0  0
  -32.4818  -33.9810  -56.4637 H   0  0  0  0  0  0  0  0  0  0  0  0
  -32.4401  -34.1587  -58.0865 H   0  0  0  0  0  0  0  0  0  0  0  0
  -32.7464  -31.5687  -52.4971 H   0  0  0  0  0  0  0  0  0  0  0  0
  -35.3275  -37.9250  -61.8837 H   0  0  0  0  0  0  0  0  0  0  0  0
  -36.4455  -38.4940  -59.8432 H   0  0  0  0  0  0  0  0  0  0  0  0
  -32.8349  -35.4321  -59.8278 H   0  0  0  0  0  0  0  0  0  0  0  0
  -29.0801  -30.5348  -57.7054 H   0  0  0  0  0  0  0  0  0  0  0  0
  -30.6568  -34.0397  -54.6816 H   0  0  0  0  0  0  0  0  0  0  0  0
  -29.4020  -35.0075  -54.2872 H   0  0  0  0  0  0  0  0  0  0  0  0
  -29.3892  -34.6069  -58.1353 H   0  0  0  0  0  0  0  0  0  0  0  0
  -30.4099  -33.4280  -57.6506 H   0  0  0  0  0  0  0  0  0  0  0  0
  -28.0981  -32.5613  -56.6178 H   0  0  0  0  0  0  0  0  0  0  0  0
  -28.3924  -32.7229  -55.0197 H   0  0  0  0  0  0  0  0  0  0  0  0
  -31.4780  -36.1780  -55.2149 H   0  0  0  0  0  0  0  0  0  0  0  0
  -31.0044  -36.0865  -57.7704 H   0  0  0  0  0  0  0  0  0  0  0  0
  1 10  1  0  0  0  0
  1 19  1  0  0  0  0
  2 21  1  0  0  0  0
  3 20  1  0  0  0  0
  4 12  2  0  0  0  0
  4 14  1  0  0  0  0
  5 11  1  0  0  0  0
  5 20  2  0  0  0  0
  6 13  2  0  0  0  0
  6 19  1  0  0  0  0
  7 11  2  0  0  0  0
  7 23  1  0  0  0  0
  8 15  1  0  0  0  0
  8 22  1  0  0  0  0
  9 16  1  0  0  0  0
  9 17  1  0  0  0  0
  9 18  1  0  0  0  0
 10 24  1  0  0  0  0
 12 13  1  0  0  0  0
 14 19  2  0  0  0  0
 15 25  2  0  0  0  0
 16 21  1  0  0  0  0
 17 24  1  0  0  0  0
 18 25  1  0  0  0  0
 20 22  1  0  0  0  0
 21 24  1  0  0  0  0
 22 23  2  0  0  0  0
 23 25  1  0  0  0  0
  2 26  1  0  0  0  0
  3 27  1  0  0  0  0
  3 28  1  0  0  0  0
  8 29  1  0  0  0  0
 10 30  1  0  0  0  0
 10 31  1  0  0  0  0
 11 32  1  0  0  0  0
 12 33  1  0  0  0  0
 13 34  1  0  0  0  0
 14 35  1  0  0  0  0
 15 36  1  0  0  0  0
 16 37  1  0  0  0  0
 16 38  1  0  0  0  0
 17 39  1  0  0  0  0
 17 40  1  0  0  0  0
 18 41  1  0  0  0  0
 18 42  1  0  0  0  0
 21 43  1  0  0  0  0
 24 44  1  0  0  0  0
M  END
> <pdb_id>
4YNB

> <uniprot_id>
Q9ZMY2

> <usmiles>
S(c1nccnc1)C[C@@H]2[C@@H](O)CN(CC=3c4ncnc(N)c4NC3)C2

$$$$
4EH_B_301
          07202413423D 1   1.00000     0.00000     0
            
 44 47  0  0  0  0            999 V2000
  -26.1245   27.5494    7.1641 S   0  0  0  0  0  0  0  0  0  0  0  0
  -27.1164   24.1711    3.3915 O   0  0  0  0  0  0  0  0  0  0  0  0
  -24.4973   23.0318   12.3345 N   0  0  0  0  0  0  0  0  0  0  0  0
  -26.0493   31.2237    5.7049 N   0  0  0  0  0  0  0  0  0  0  0  0
  -26.4576   22.5289   11.1294 N   0  0  0  0  0  0  0  0  0  0  0  0
  -27.0863   28.7802    5.0179 N   0  0  0  0  0  0  0  0  0  0  0  0
  -26.4528   22.3034    8.8011 N   0  0  0  0  0  0  0  0  0  0  0  0
  -23.1502   23.0437    9.6187 N   0  0  0  0  0  0  0  0  0  0  0  0
  -25.2115   23.4120    5.4201 N   0  0  0  0  0  0  0  0  0  0  0  0
  -27.0355   26.1798    6.5247 C   0  0  0  0  0  0  0  0  0  0  0  0
  -27.0946   22.2877    9.9711 C   0  0  0  0  0  0  0  0  0  0  0  0
  -26.7635   31.0848    4.5723 C   0  0  0  0  0  0  0  0  0  0  0  0
  -27.2848   29.8418    4.2248 C   0  0  0  0  0  0  0  0  0  0  0  0
  -25.8427   30.1519    6.4992 C   0  0  0  0  0  0  0  0  0  0  0  0
  -22.9911   22.9449    8.2735 C   0  0  0  0  0  0  0  0  0  0  0  0
  -26.6577   23.1586    5.5092 C   0  0  0  0  0  0  0  0  0  0  0  0
  -25.0043   24.8671    5.6366 C   0  0  0  0  0  0  0  0  0  0  0  0
  -24.3895   22.4636    6.1855 C   0  0  0  0  0  0  0  0  0  0  0  0
  -26.3739   28.9087    6.1648 C   0  0  0  0  0  0  0  0  0  0  0  0
  -25.1199   22.8006   11.1544 C   0  0  0  0  0  0  0  0  0  0  0  0
  -27.2202   24.3715    4.8037 C   0  0  1  0  0  0  0  0  0  0  0  0
  -24.4240   22.8140    9.9621 C   0  0  0  0  0  0  0  0  0  0  0  0
  -25.1317   22.5665    8.8034 C   0  0  0  0  0  0  0  0  0  0  0  0
  -26.3566   25.5161    5.3169 C   0  0  1  0  0  0  0  0  0  0  0  0
  -24.1989   22.6592    7.6710 C   0  0  0  0  0  0  0  0  0  0  0  0
  -27.4859   24.9681    2.9137 H   0  0  0  0  0  0  0  0  0  0  0  0
  -23.5175   23.2308   12.3523 H   0  0  0  0  0  0  0  0  0  0  0  0
  -25.0174   23.0036   13.1881 H   0  0  0  0  0  0  0  0  0  0  0  0
  -22.4170   23.2584   10.2639 H   0  0  0  0  0  0  0  0  0  0  0  0
  -27.9397   26.5019    6.2442 H   0  0  0  0  0  0  0  0  0  0  0  0
  -27.1345   25.4974    7.2489 H   0  0  0  0  0  0  0  0  0  0  0  0
  -28.0750   22.0914    9.9862 H   0  0  0  0  0  0  0  0  0  0  0  0
  -26.9198   31.8753    3.9802 H   0  0  0  0  0  0  0  0  0  0  0  0
  -27.8096   29.7406    3.3796 H   0  0  0  0  0  0  0  0  0  0  0  0
  -25.3034   30.2515    7.3354 H   0  0  0  0  0  0  0  0  0  0  0  0
  -22.1238   23.0623    7.7897 H   0  0  0  0  0  0  0  0  0  0  0  0
  -26.9631   23.1149    6.4604 H   0  0  0  0  0  0  0  0  0  0  0  0
  -26.9100   22.3128    5.0390 H   0  0  0  0  0  0  0  0  0  0  0  0
  -24.2944   25.2154    5.0245 H   0  0  0  0  0  0  0  0  0  0  0  0
  -24.7442   25.0472    6.5853 H   0  0  0  0  0  0  0  0  0  0  0  0
  -23.4783   22.4731    5.7735 H   0  0  0  0  0  0  0  0  0  0  0  0
  -24.8011   21.5605    6.0634 H   0  0  0  0  0  0  0  0  0  0  0  0
  -28.1751   24.5131    5.0649 H   0  0  0  0  0  0  0  0  0  0  0  0
  -26.2364   26.1927    4.5905 H   0  0  0  0  0  0  0  0  0  0  0  0
  1 10  1  0  0  0  0
  1 19  1  0  0  0  0
  2 21  1  0  0  0  0
  3 20  1  0  0  0  0
  4 12  2  0  0  0  0
  4 14  1  0  0  0  0
  5 11  1  0  0  0  0
  5 20  2  0  0  0  0
  6 13  2  0  0  0  0
  6 19  1  0  0  0  0
  7 11  2  0  0  0  0
  7 23  1  0  0  0  0
  8 15  1  0  0  0  0
  8 22  1  0  0  0  0
  9 16  1  0  0  0  0
  9 17  1  0  0  0  0
  9 18  1  0  0  0  0
 10 24  1  0  0  0  0
 12 13  1  0  0  0  0
 14 19  2  0  0  0  0
 15 25  2  0  0  0  0
 16 21  1  0  0  0  0
 17 24  1  0  0  0  0
 18 25  1  0  0  0  0
 20 22  1  0  0  0  0
 21 24  1  0  0  0  0
 22 23  2  0  0  0  0
 23 25  1  0  0  0  0
  2 26  1  0  0  0  0
  3 27  1  0  0  0  0
  3 28  1  0  0  0  0
  8 29  1  0  0  0  0
 10 30  1  0  0  0  0
 10 31  1  0  0  0  0
 11 32  1  0  0  0  0
 12 33  1  0  0  0  0
 13 34  1  0  0  0  0
 14 35  1  0  0  0  0
 15 36  1  0  0  0  0
 16 37  1  0  0  0  0
 16 38  1  0  0  0  0
 17 39  1  0  0  0  0
 17 40  1  0  0  0  0
 18 41  1  0  0  0  0
 18 42  1  0  0  0  0
 21 43  1  0  0  0  0
 24 44  1  0  0  0  0
M  END
> <pdb_id>
6AYT

> <uniprot_id>
nan

> <usmiles>
S(c1nccnc1)C[C@@H]2[C@@H](O)CN(CC=3c4ncnc(N)c4NC3)C2

$$$$
4EO_A_301
          07192420423D 1   1.00000     0.00000     0
            
 34 36  0  0  0  0            999 V2000
   66.0384   34.1140   21.4085 O   0  0  0  0  0  0  0  0  0  0  0  0
   64.3570   34.2927   24.1838 O   0  0  0  0  0  0  0  0  0  0  0  0
   67.0427   32.3579   27.6030 O   0  0  0  0  0  0  0  0  0  0  0  0
   66.3696   36.3853   21.0451 N   0  0  0  0  0  0  0  0  0  0  0  0
   66.6963   35.5891   23.1061 N   0  0  0  0  0  0  0  0  0  0  0  0
   70.3685   32.6216   25.6286 C   0  0  0  0  0  0  0  0  0  0  0  0
   67.2211   39.6718   22.6107 C   0  0  0  0  0  0  0  0  0  0  0  0
   67.4306   39.1782   23.8944 C   0  0  0  0  0  0  0  0  0  0  0  0
   66.8771   38.8181   21.5681 C   0  0  0  0  0  0  0  0  0  0  0  0
   67.3030   37.8166   24.1682 C   0  0  0  0  0  0  0  0  0  0  0  0
   65.7128   33.2648   25.8532 C   0  0  0  0  0  0  0  0  0  0  0  0
   67.9977   34.4169   24.7773 C   0  0  0  0  0  0  0  0  0  0  0  0
   69.5023   33.4243   26.4889 C   0  0  0  0  0  0  0  0  0  0  0  0
   66.3362   35.2365   21.7859 C   0  0  0  0  0  0  0  0  0  0  0  0
   65.5985   34.0755   24.7350 C   0  0  0  0  0  0  0  0  0  0  0  0
   66.9554   33.0370   26.4316 C   0  0  0  0  0  0  0  0  0  0  0  0
   66.7343   37.4589   21.8430 C   0  0  0  0  0  0  0  0  0  0  0  0
   66.7520   34.6617   24.2086 C   0  0  0  0  0  0  0  0  0  0  0  0
   66.9477   36.9694   23.1249 C   0  0  0  0  0  0  0  0  0  0  0  0
   68.1186   33.5963   25.8929 C   0  0  0  0  0  0  0  0  0  0  0  0
   63.7695   34.5894   24.9267 H   0  0  0  0  0  0  0  0  0  0  0  0
   67.6093   31.5557   27.4584 H   0  0  0  0  0  0  0  0  0  0  0  0
   66.1954   36.4356   20.0483 H   0  0  0  0  0  0  0  0  0  0  0  0
   71.3568   32.4720   26.0610 H   0  0  0  0  0  0  0  0  0  0  0  0
   69.9597   31.6256   25.4654 H   0  0  0  0  0  0  0  0  0  0  0  0
   70.5020   33.0917   24.6549 H   0  0  0  0  0  0  0  0  0  0  0  0
   67.3259   40.7363   22.4101 H   0  0  0  0  0  0  0  0  0  0  0  0
   67.6892   39.8664   24.6982 H   0  0  0  0  0  0  0  0  0  0  0  0
   66.7744   39.2043   20.5563 H   0  0  0  0  0  0  0  0  0  0  0  0
   67.4661   37.4316   25.1730 H   0  0  0  0  0  0  0  0  0  0  0  0
   64.8213   32.8017   26.2745 H   0  0  0  0  0  0  0  0  0  0  0  0
   68.8899   34.8607   24.3393 H   0  0  0  0  0  0  0  0  0  0  0  0
   69.4462   32.9906   27.4872 H   0  0  0  0  0  0  0  0  0  0  0  0
   69.9562   34.3974   26.6697 H   0  0  0  0  0  0  0  0  0  0  0  0
  1 14  2  0  0  0  0
  2 15  1  0  0  0  0
  2 21  1  0  0  0  0
  3 16  1  0  0  0  0
  3 22  1  0  0  0  0
  4 14  1  0  0  0  0
  4 17  1  0  0  0  0
  4 23  1  0  0  0  0
  5 14  1  0  0  0  0
  5 18  1  0  0  0  0
  5 19  1  0  0  0  0
  6 13  1  0  0  0  0
  6 24  1  0  0  0  0
  6 25  1  0  0  0  0
  6 26  1  0  0  0  0
  7  8  2  0  0  0  0
  7  9  1  0  0  0  0
  7 27  1  0  0  0  0
  8 10  1  0  0  0  0
  8 28  1  0  0  0  0
  9 17  2  0  0  0  0
  9 29  1  0  0  0  0
 10 19  2  0  0  0  0
 10 30  1  0  0  0  0
 11 15  2  0  0  0  0
 11 16  1  0  0  0  0
 11 31  1  0  0  0  0
 12 18  2  0  0  0  0
 12 20  1  0  0  0  0
 12 32  1  0  0  0  0
 13 20  1  0  0  0  0
 13 33  1  0  0  0  0
 13 34  1  0  0  0  0
 15 18  1  0  0  0  0
 16 20  2  0  0  0  0
 17 19  1  0  0  0  0
M  END
> <pdb_id>
4YKQ

> <uniprot_id>
P07900

> <usmiles>
O=C1N(c2c(O)cc(O)c(c2)CC)c3c(N1)cccc3

$$$$
4EP_A_301
          07192420423D 1   1.00000     0.00000     0
            
 37 39  0  0  0  0            999 V2000
   66.0564   34.1166   21.4872 O   0  0  0  0  0  0  0  0  0  0  0  0
   64.3811   34.3092   24.2026 O   0  0  0  0  0  0  0  0  0  0  0  0
   67.0086   32.4151   27.7168 O   0  0  0  0  0  0  0  0  0  0  0  0
   66.3970   36.3860   21.0961 N   0  0  0  0  0  0  0  0  0  0  0  0
   66.6645   35.6200   23.1843 N   0  0  0  0  0  0  0  0  0  0  0  0
   69.4760   31.3047   25.1333 C   0  0  0  0  0  0  0  0  0  0  0  0
   67.1353   39.7023   22.6576 C   0  0  0  0  0  0  0  0  0  0  0  0
   67.3259   39.2239   23.9526 C   0  0  0  0  0  0  0  0  0  0  0  0
   66.8668   38.8348   21.6032 C   0  0  0  0  0  0  0  0  0  0  0  0
   67.2238   37.8607   24.2333 C   0  0  0  0  0  0  0  0  0  0  0  0
   65.6966   33.3144   25.9467 C   0  0  0  0  0  0  0  0  0  0  0  0
   67.9799   34.5014   24.8986 C   0  0  0  0  0  0  0  0  0  0  0  0
   70.2747   32.4234   25.7443 C   0  0  0  0  0  0  0  0  0  0  0  0
   69.5002   33.4681   26.5252 C   0  0  0  0  0  0  0  0  0  0  0  0
   66.3349   35.2487   21.8583 C   0  0  0  0  0  0  0  0  0  0  0  0
   65.5926   34.1082   24.8093 C   0  0  0  0  0  0  0  0  0  0  0  0
   66.9338   33.1338   26.5612 C   0  0  0  0  0  0  0  0  0  0  0  0
   66.7444   37.4757   21.8859 C   0  0  0  0  0  0  0  0  0  0  0  0
   66.9166   37.0016   23.1859 C   0  0  0  0  0  0  0  0  0  0  0  0
   66.7403   34.7154   24.3023 C   0  0  0  0  0  0  0  0  0  0  0  0
   68.0951   33.7070   26.0335 C   0  0  0  0  0  0  0  0  0  0  0  0
   64.4154   33.9124   23.2944 H   0  0  0  0  0  0  0  0  0  0  0  0
   66.2309   31.8006   27.7654 H   0  0  0  0  0  0  0  0  0  0  0  0
   66.2412   36.4185   20.0946 H   0  0  0  0  0  0  0  0  0  0  0  0
   68.9870   30.6913   25.8889 H   0  0  0  0  0  0  0  0  0  0  0  0
   68.6850   31.6459   24.4685 H   0  0  0  0  0  0  0  0  0  0  0  0
   70.1021   30.6311   24.5526 H   0  0  0  0  0  0  0  0  0  0  0  0
   67.1966   40.7700   22.4545 H   0  0  0  0  0  0  0  0  0  0  0  0
   67.5609   39.9215   24.7552 H   0  0  0  0  0  0  0  0  0  0  0  0
   66.7868   39.2086   20.5840 H   0  0  0  0  0  0  0  0  0  0  0  0
   67.3776   37.4828   25.2432 H   0  0  0  0  0  0  0  0  0  0  0  0
   64.8123   32.8349   26.3580 H   0  0  0  0  0  0  0  0  0  0  0  0
   68.8669   34.9524   24.4578 H   0  0  0  0  0  0  0  0  0  0  0  0
   71.1137   32.0454   26.3200 H   0  0  0  0  0  0  0  0  0  0  0  0
   70.7790   32.9380   24.9282 H   0  0  0  0  0  0  0  0  0  0  0  0
   69.4860   33.1920   27.5780 H   0  0  0  0  0  0  0  0  0  0  0  0
   70.0466   34.4103   26.5423 H   0  0  0  0  0  0  0  0  0  0  0  0
  1 15  2  0  0  0  0
  2 16  1  0  0  0  0
  2 22  1  0  0  0  0
  3 17  1  0  0  0  0
  3 23  1  0  0  0  0
  4 15  1  0  0  0  0
  4 18  1  0  0  0  0
  4 24  1  0  0  0  0
  5 15  1  0  0  0  0
  5 19  1  0  0  0  0
  5 20  1  0  0  0  0
  6 13  1  0  0  0  0
  6 25  1  0  0  0  0
  6 26  1  0  0  0  0
  6 27  1  0  0  0  0
  7  8  2  0  0  0  0
  7  9  1  0  0  0  0
  7 28  1  0  0  0  0
  8 10  1  0  0  0  0
  8 29  1  0  0  0  0
  9 18  2  0  0  0  0
  9 30  1  0  0  0  0
 10 19  2  0  0  0  0
 10 31  1  0  0  0  0
 11 16  2  0  0  0  0
 11 17  1  0  0  0  0
 11 32  1  0  0  0  0
 12 20  2  0  0  0  0
 12 21  1  0  0  0  0
 12 33  1  0  0  0  0
 13 14  1  0  0  0  0
 13 34  1  0  0  0  0
 13 35  1  0  0  0  0
 14 21  1  0  0  0  0
 14 36  1  0  0  0  0
 14 37  1  0  0  0  0
 16 20  1  0  0  0  0
 17 21  2  0  0  0  0
 18 19  1  0  0  0  0
M  END
> <pdb_id>
4YKR

> <uniprot_id>
P07900

> <usmiles>
O=C1N(c2c(O)cc(O)c(c2)CCC)c3c(N1)cccc3

$$$$
4ER_A_301
          07192420423D 1   1.00000     0.00000     0
            
 23 24  0  0  0  0            999 V2000
   69.4365   31.7372   25.0477 Cl  0  0  0  0  0  0  0  0  0  0  0  0
   64.8526   33.4820   25.4505 N   0  0  0  0  0  0  0  0  0  0  0  0
   66.4716   35.5915   21.7063 N   0  0  0  0  0  0  0  0  0  0  0  0
   65.6204   34.4440   23.5123 N   0  0  0  0  0  0  0  0  0  0  0  0
   67.1058   33.8935   25.3106 N   0  0  0  0  0  0  0  0  0  0  0  0
   67.9362   35.0692   23.3982 N   0  0  0  0  0  0  0  0  0  0  0  0
   71.9978   34.5124   26.2713 C   0  0  0  0  0  0  0  0  0  0  0  0
   71.3028   35.6848   26.0853 C   0  0  0  0  0  0  0  0  0  0  0  0
   71.4219   33.2992   25.9405 C   0  0  0  0  0  0  0  0  0  0  0  0
   70.0454   35.6663   25.5114 C   0  0  0  0  0  0  0  0  0  0  0  0
   65.8878   33.9292   24.7284 C   0  0  0  0  0  0  0  0  0  0  0  0
   66.6812   35.0132   22.8982 C   0  0  0  0  0  0  0  0  0  0  0  0
   70.1481   33.2808   25.4001 C   0  0  0  0  0  0  0  0  0  0  0  0
   68.0768   34.4787   24.5946 C   0  0  0  0  0  0  0  0  0  0  0  0
   69.4358   34.4577   25.1682 C   0  0  0  0  0  0  0  0  0  0  0  0
   64.9876   33.1346   26.3950 H   0  0  0  0  0  0  0  0  0  0  0  0
   63.9092   33.4772   25.0762 H   0  0  0  0  0  0  0  0  0  0  0  0
   65.5552   35.6064   21.2687 H   0  0  0  0  0  0  0  0  0  0  0  0
   67.2368   36.0336   21.2087 H   0  0  0  0  0  0  0  0  0  0  0  0
   73.0109   34.5281   26.6682 H   0  0  0  0  0  0  0  0  0  0  0  0
   71.6841   36.6319   26.4600 H   0  0  0  0  0  0  0  0  0  0  0  0
   71.9575   32.3615   26.0710 H   0  0  0  0  0  0  0  0  0  0  0  0
   69.5310   36.6066   25.3207 H   0  0  0  0  0  0  0  0  0  0  0  0
  1 13  1  0  0  0  0
  2 11  1  0  0  0  0
  2 16  1  0  0  0  0
  2 17  1  0  0  0  0
  3 12  1  0  0  0  0
  3 18  1  0  0  0  0
  3 19  1  0  0  0  0
  4 11  2  0  0  0  0
  4 12  1  0  0  0  0
  5 11  1  0  0  0  0
  5 14  2  0  0  0  0
  6 12  2  0  0  0  0
  6 14  1  0  0  0  0
  7  8  2  0  0  0  0
  7  9  1  0  0  0  0
  7 20  1  0  0  0  0
  8 10  1  0  0  0  0
  8 21  1  0  0  0  0
  9 13  2  0  0  0  0
  9 22  1  0  0  0  0
 10 15  2  0  0  0  0
 10 23  1  0  0  0  0
 13 15  1  0  0  0  0
 14 15  1  0  0  0  0
M  END
> <pdb_id>
4YKU

> <uniprot_id>
P07900

> <usmiles>
Clc1c(c2nc(nc(n2)N)N)cccc1

$$$$
4ET_A_301
          07192420423D 1   1.00000     0.00000     0
            
 26 27  0  0  0  0            999 V2000
   69.5383   32.3845   26.0924 Cl  0  0  0  0  0  0  0  0  0  0  0  0
   65.8404   34.3185   21.7895 O   0  0  0  0  0  0  0  0  0  0  0  0
   68.4132   40.0721   22.4049 O   0  0  0  0  0  0  0  0  0  0  0  0
   64.2380   34.1252   24.3251 O   0  0  0  0  0  0  0  0  0  0  0  0
   66.8643   32.6577   26.3836 C   0  0  0  0  0  0  0  0  0  0  0  0
   67.5853   38.1012   21.2972 C   0  0  0  0  0  0  0  0  0  0  0  0
   67.7041   38.2193   23.6916 C   0  0  0  0  0  0  0  0  0  0  0  0
   65.6054   33.0042   25.9204 C   0  0  0  0  0  0  0  0  0  0  0  0
   67.1948   36.7762   21.3811 C   0  0  0  0  0  0  0  0  0  0  0  0
   67.3341   36.8900   23.7695 C   0  0  0  0  0  0  0  0  0  0  0  0
   67.8472   33.6900   24.4441 C   0  0  0  0  0  0  0  0  0  0  0  0
   67.9675   32.9906   25.6242 C   0  0  0  0  0  0  0  0  0  0  0  0
   67.8520   38.8238   22.4520 C   0  0  0  0  0  0  0  0  0  0  0  0
   65.4549   33.6589   24.6982 C   0  0  0  0  0  0  0  0  0  0  0  0
   66.4190   34.8194   22.7477 C   0  0  0  0  0  0  0  0  0  0  0  0
   67.0638   36.1523   22.6187 C   0  0  0  0  0  0  0  0  0  0  0  0
   66.5836   33.9747   23.9221 C   0  0  0  0  0  0  0  0  0  0  0  0
   68.6337   40.2973   21.4633 H   0  0  0  0  0  0  0  0  0  0  0  0
   63.5668   33.9644   25.0364 H   0  0  0  0  0  0  0  0  0  0  0  0
   66.9875   32.1331   27.3280 H   0  0  0  0  0  0  0  0  0  0  0  0
   67.6663   38.5566   20.3100 H   0  0  0  0  0  0  0  0  0  0  0  0
   67.8722   38.7971   24.5977 H   0  0  0  0  0  0  0  0  0  0  0  0
   64.7217   32.7655   26.5102 H   0  0  0  0  0  0  0  0  0  0  0  0
   66.9960   36.2270   20.4644 H   0  0  0  0  0  0  0  0  0  0  0  0
   67.2418   36.4412   24.7572 H   0  0  0  0  0  0  0  0  0  0  0  0
   68.7516   34.0175   23.9336 H   0  0  0  0  0  0  0  0  0  0  0  0
  1 12  1  0  0  0  0
  2 15  2  0  0  0  0
  3 13  1  0  0  0  0
  3 18  1  0  0  0  0
  4 14  1  0  0  0  0
  4 19  1  0  0  0  0
  5  8  2  0  0  0  0
  5 12  1  0  0  0  0
  5 20  1  0  0  0  0
  6  9  1  0  0  0  0
  6 13  2  0  0  0  0
  6 21  1  0  0  0  0
  7 10  2  0  0  0  0
  7 13  1  0  0  0  0
  7 22  1  0  0  0  0
  8 14  1  0  0  0  0
  8 23  1  0  0  0  0
  9 16  2  0  0  0  0
  9 24  1  0  0  0  0
 10 16  1  0  0  0  0
 10 25  1  0  0  0  0
 11 12  2  0  0  0  0
 11 17  1  0  0  0  0
 11 26  1  0  0  0  0
 14 17  2  0  0  0  0
 15 16  1  0  0  0  0
 15 17  1  0  0  0  0
M  END
> <pdb_id>
4YKX

> <uniprot_id>
P07900

> <usmiles>
Clc1cc(c(O)cc1)C(=O)c2ccc(O)cc2

$$$$
4EU_A_301
          07192420423D 1   1.00000     0.00000     0
            
 27 28  0  0  0  0            999 V2000
   66.1062   34.2782   21.8639 O   0  0  0  0  0  0  0  0  0  0  0  0
   68.3647   40.2308   22.3921 O   0  0  0  0  0  0  0  0  0  0  0  0
   67.2161   32.3973   27.8252 O   0  0  0  0  0  0  0  0  0  0  0  0
   64.4519   34.1048   24.3618 O   0  0  0  0  0  0  0  0  0  0  0  0
   67.7178   38.3562   23.7125 C   0  0  0  0  0  0  0  0  0  0  0  0
   67.6229   38.2116   21.3171 C   0  0  0  0  0  0  0  0  0  0  0  0
   68.2136   33.2915   25.8561 C   0  0  0  0  0  0  0  0  0  0  0  0
   67.3399   37.0302   23.8025 C   0  0  0  0  0  0  0  0  0  0  0  0
   67.2317   36.8853   21.4146 C   0  0  0  0  0  0  0  0  0  0  0  0
   68.0763   33.8984   24.6208 C   0  0  0  0  0  0  0  0  0  0  0  0
   65.8185   33.2051   26.0731 C   0  0  0  0  0  0  0  0  0  0  0  0
   67.8778   38.9470   22.4706 C   0  0  0  0  0  0  0  0  0  0  0  0
   67.0812   32.9452   26.5811 C   0  0  0  0  0  0  0  0  0  0  0  0
   65.6823   33.8120   24.8329 C   0  0  0  0  0  0  0  0  0  0  0  0
   67.0934   36.2743   22.6578 C   0  0  0  0  0  0  0  0  0  0  0  0
   66.6609   34.8562   22.7892 C   0  0  0  0  0  0  0  0  0  0  0  0
   66.8208   34.1600   24.0811 C   0  0  0  0  0  0  0  0  0  0  0  0
   68.5552   40.5920   23.2971 H   0  0  0  0  0  0  0  0  0  0  0  0
   68.1740   32.2689   28.0551 H   0  0  0  0  0  0  0  0  0  0  0  0
   63.7669   33.8031   25.0127 H   0  0  0  0  0  0  0  0  0  0  0  0
   67.8757   38.9098   24.6376 H   0  0  0  0  0  0  0  0  0  0  0  0
   67.7353   38.6819   20.3426 H   0  0  0  0  0  0  0  0  0  0  0  0
   69.2167   33.0962   26.2273 H   0  0  0  0  0  0  0  0  0  0  0  0
   67.2152   36.6029   24.7968 H   0  0  0  0  0  0  0  0  0  0  0  0
   67.0466   36.3220   20.5005 H   0  0  0  0  0  0  0  0  0  0  0  0
   68.9628   34.1785   24.0523 H   0  0  0  0  0  0  0  0  0  0  0  0
   64.9480   32.9231   26.6654 H   0  0  0  0  0  0  0  0  0  0  0  0
  1 16  2  0  0  0  0
  2 12  1  0  0  0  0
  2 18  1  0  0  0  0
  3 13  1  0  0  0  0
  3 19  1  0  0  0  0
  4 14  1  0  0  0  0
  4 20  1  0  0  0  0
  5  8  1  0  0  0  0
  5 12  2  0  0  0  0
  5 21  1  0  0  0  0
  6  9  2  0  0  0  0
  6 12  1  0  0  0  0
  6 22  1  0  0  0  0
  7 10  2  0  0  0  0
  7 13  1  0  0  0  0
  7 23  1  0  0  0  0
  8 15  2  0  0  0  0
  8 24  1  0  0  0  0
  9 15  1  0  0  0  0
  9 25  1  0  0  0  0
 10 17  1  0  0  0  0
 10 26  1  0  0  0  0
 11 13  2  0  0  0  0
 11 14  1  0  0  0  0
 11 27  1  0  0  0  0
 14 17  2  0  0  0  0
 15 16  1  0  0  0  0
 16 17  1  0  0  0  0
M  END
> <pdb_id>
4YKY

> <uniprot_id>
P07900

> <usmiles>
O=C(c1c(O)cc(O)cc1)c2ccc(O)cc2

$$$$
4EV_A_301
          07192420423D 1   1.00000     0.00000     0
            
 27 28  0  0  0  0            999 V2000
   66.1469   34.6515   21.8432 O   0  0  0  0  0  0  0  0  0  0  0  0
   67.2312   32.4319   27.6922 O   0  0  0  0  0  0  0  0  0  0  0  0
   68.1936   38.9607   20.0922 O   0  0  0  0  0  0  0  0  0  0  0  0
   64.4660   34.0935   24.1804 O   0  0  0  0  0  0  0  0  0  0  0  0
   67.6121   38.7386   23.6888 C   0  0  0  0  0  0  0  0  0  0  0  0
   67.8951   39.2791   22.4458 C   0  0  0  0  0  0  0  0  0  0  0  0
   68.2167   33.5452   25.8502 C   0  0  0  0  0  0  0  0  0  0  0  0
   67.2757   37.4048   23.8095 C   0  0  0  0  0  0  0  0  0  0  0  0
   68.0982   34.2231   24.6499 C   0  0  0  0  0  0  0  0  0  0  0  0
   65.8258   33.2734   25.9330 C   0  0  0  0  0  0  0  0  0  0  0  0
   67.5071   37.1246   21.4289 C   0  0  0  0  0  0  0  0  0  0  0  0
   67.0828   33.0759   26.4932 C   0  0  0  0  0  0  0  0  0  0  0  0
   67.8556   38.4642   21.3226 C   0  0  0  0  0  0  0  0  0  0  0  0
   65.7073   33.9401   24.7209 C   0  0  0  0  0  0  0  0  0  0  0  0
   67.2023   36.5886   22.6827 C   0  0  0  0  0  0  0  0  0  0  0  0
   66.7085   35.1872   22.7920 C   0  0  0  0  0  0  0  0  0  0  0  0
   66.8511   34.4384   24.0618 C   0  0  0  0  0  0  0  0  0  0  0  0
   66.3485   32.1595   28.0535 H   0  0  0  0  0  0  0  0  0  0  0  0
   68.4622   39.9121   20.1756 H   0  0  0  0  0  0  0  0  0  0  0  0
   63.7859   33.6876   24.7774 H   0  0  0  0  0  0  0  0  0  0  0  0
   67.6544   39.3707   24.5752 H   0  0  0  0  0  0  0  0  0  0  0  0
   68.1401   40.3368   22.3818 H   0  0  0  0  0  0  0  0  0  0  0  0
   69.2094   33.3909   26.2704 H   0  0  0  0  0  0  0  0  0  0  0  0
   67.0571   37.0044   24.7997 H   0  0  0  0  0  0  0  0  0  0  0  0
   68.9870   34.6030   24.1477 H   0  0  0  0  0  0  0  0  0  0  0  0
   64.9501   32.8924   26.4559 H   0  0  0  0  0  0  0  0  0  0  0  0
   67.4656   36.5133   20.5301 H   0  0  0  0  0  0  0  0  0  0  0  0
  1 16  2  0  0  0  0
  2 12  1  0  0  0  0
  2 18  1  0  0  0  0
  3 13  1  0  0  0  0
  3 19  1  0  0  0  0
  4 14  1  0  0  0  0
  4 20  1  0  0  0  0
  5  6  2  0  0  0  0
  5  8  1  0  0  0  0
  5 21  1  0  0  0  0
  6 13  1  0  0  0  0
  6 22  1  0  0  0  0
  7  9  2  0  0  0  0
  7 12  1  0  0  0  0
  7 23  1  0  0  0  0
  8 15  2  0  0  0  0
  8 24  1  0  0  0  0
  9 17  1  0  0  0  0
  9 25  1  0  0  0  0
 10 12  2  0  0  0  0
 10 14  1  0  0  0  0
 10 26  1  0  0  0  0
 11 13  2  0  0  0  0
 11 15  1  0  0  0  0
 11 27  1  0  0  0  0
 14 17  2  0  0  0  0
 15 16  1  0  0  0  0
 16 17  1  0  0  0  0
M  END
> <pdb_id>
4YKZ

> <uniprot_id>
P07900

> <usmiles>
O=C(c1c(O)cc(O)cc1)c2cc(O)ccc2

$$$$
4EZ_A_301
          07212402473D 1   1.00000     0.00000     0
            
 43 44  0  0  0  0            999 V2000
  -29.8936  -36.2378  -54.8650 O   0  0  0  0  0  0  0  0  0  0  0  0
  -32.9826  -28.1876  -55.0850 N   0  0  0  0  0  0  0  0  0  0  0  0
  -32.9324  -30.0950  -53.7394 N   0  0  0  0  0  0  0  0  0  0  0  0
  -31.4510  -31.9214  -54.0757 N   0  0  0  0  0  0  0  0  0  0  0  0
  -30.6604  -29.6701  -56.6247 N   0  0  0  0  0  0  0  0  0  0  0  0
  -29.6881  -34.2818  -56.1278 N   0  0  0  0  0  0  0  0  0  0  0  0
  -35.4509  -37.2836  -59.4542 C   0  0  0  0  0  0  0  0  0  0  0  0
  -29.3040  -34.9594  -54.8405 C   0  0  0  0  0  0  0  0  0  0  0  0
  -32.4346  -31.2880  -53.4024 C   0  0  0  0  0  0  0  0  0  0  0  0
  -29.7582  -30.6411  -56.9178 C   0  0  0  0  0  0  0  0  0  0  0  0
  -31.1715  -34.3302  -56.1343 C   0  0  0  0  0  0  0  0  0  0  0  0
  -29.0157  -32.9701  -56.0953 C   0  0  0  0  0  0  0  0  0  0  0  0
  -34.9357  -36.2940  -58.4306 C   0  0  0  0  0  0  0  0  0  0  0  0
  -31.7643  -35.4219  -57.0180 C   0  0  0  0  0  0  0  0  0  0  0  0
  -33.5814  -35.7271  -58.8370 C   0  0  0  0  0  0  0  0  0  0  0  0
  -32.9988  -34.8366  -57.7336 C   0  0  0  0  0  0  0  0  0  0  0  0
  -32.4740  -29.3940  -54.7882 C   0  0  0  0  0  0  0  0  0  0  0  0
  -31.3930  -30.0008  -55.5777 C   0  0  0  0  0  0  0  0  0  0  0  0
  -30.9295  -31.3104  -55.1372 C   0  0  0  0  0  0  0  0  0  0  0  0
  -29.8605  -31.7199  -56.0451 C   0  0  0  0  0  0  0  0  0  0  0  0
  -29.6635  -36.7271  -54.0238 H   0  0  0  0  0  0  0  0  0  0  0  0
  -32.6316  -27.6762  -55.8694 H   0  0  0  0  0  0  0  0  0  0  0  0
  -33.7125  -27.8004  -54.5217 H   0  0  0  0  0  0  0  0  0  0  0  0
  -30.7573  -28.8157  -57.1353 H   0  0  0  0  0  0  0  0  0  0  0  0
  -36.3388  -37.6365  -59.1592 H   0  0  0  0  0  0  0  0  0  0  0  0
  -35.5507  -36.8272  -60.3384 H   0  0  0  0  0  0  0  0  0  0  0  0
  -34.8034  -38.0407  -59.5412 H   0  0  0  0  0  0  0  0  0  0  0  0
  -28.3093  -35.0398  -54.7768 H   0  0  0  0  0  0  0  0  0  0  0  0
  -29.6469  -34.4366  -54.0601 H   0  0  0  0  0  0  0  0  0  0  0  0
  -32.8162  -31.7422  -52.5973 H   0  0  0  0  0  0  0  0  0  0  0  0
  -29.1004  -30.5876  -57.6691 H   0  0  0  0  0  0  0  0  0  0  0  0
  -31.5114  -33.4473  -56.4581 H   0  0  0  0  0  0  0  0  0  0  0  0
  -31.4832  -34.4838  -55.1966 H   0  0  0  0  0  0  0  0  0  0  0  0
  -28.4500  -32.9095  -56.9177 H   0  0  0  0  0  0  0  0  0  0  0  0
  -28.4289  -32.9608  -55.2857 H   0  0  0  0  0  0  0  0  0  0  0  0
  -34.8433  -36.7565  -57.5489 H   0  0  0  0  0  0  0  0  0  0  0  0
  -35.5905  -35.5430  -58.3461 H   0  0  0  0  0  0  0  0  0  0  0  0
  -32.0363  -36.2031  -56.4561 H   0  0  0  0  0  0  0  0  0  0  0  0
  -31.0882  -35.7163  -57.6934 H   0  0  0  0  0  0  0  0  0  0  0  0
  -33.6916  -35.1845  -59.6698 H   0  0  0  0  0  0  0  0  0  0  0  0
  -32.9509  -36.4831  -59.0128 H   0  0  0  0  0  0  0  0  0  0  0  0
  -32.7360  -33.9635  -58.1442 H   0  0  0  0  0  0  0  0  0  0  0  0
  -33.7114  -34.6821  -57.0493 H   0  0  0  0  0  0  0  0  0  0  0  0
  1  8  1  0  0  0  0
  2 17  1  0  0  0  0
  3  9  1  0  0  0  0
  3 17  2  0  0  0  0
  4  9  2  0  0  0  0
  4 19  1  0  0  0  0
  5 10  1  0  0  0  0
  5 18  1  0  0  0  0
  6  8  1  0  0  0  0
  6 11  1  0  0  0  0
  6 12  1  0  0  0  0
  7 13  1  0  0  0  0
 10 20  2  0  0  0  0
 11 14  1  0  0  0  0
 12 20  1  0  0  0  0
 13 15  1  0  0  0  0
 14 16  1  0  0  0  0
 15 16  1  0  0  0  0
 17 18  1  0  0  0  0
 18 19  2  0  0  0  0
 19 20  1  0  0  0  0
  1 21  1  0  0  0  0
  2 22  1  0  0  0  0
  2 23  1  0  0  0  0
  5 24  1  0  0  0  0
  7 25  1  0  0  0  0
  7 26  1  0  0  0  0
  7 27  1  0  0  0  0
  8 28  1  0  0  0  0
  8 29  1  0  0  0  0
  9 30  1  0  0  0  0
 10 31  1  0  0  0  0
 11 32  1  0  0  0  0
 11 33  1  0  0  0  0
 12 34  1  0  0  0  0
 12 35  1  0  0  0  0
 13 36  1  0  0  0  0
 13 37  1  0  0  0  0
 14 38  1  0  0  0  0
 14 39  1  0  0  0  0
 15 40  1  0  0  0  0
 15 41  1  0  0  0  0
 16 42  1  0  0  0  0
 16 43  1  0  0  0  0
M  END
> <pdb_id>
4YO8

> <uniprot_id>
Q9ZMY2

> <usmiles>
OCN(CC=1c2ncnc(N)c2NC1)CCCCCC

$$$$
4F7_B_803
          07192416573D 1   1.00000     0.00000     0
            
 39 42  0  0  0  0            999 V2000
   20.7842   -5.4995   23.9462 N   0  0  0  0  0  0  0  0  0  0  0  0
   17.1710   -2.0977   19.6890 N   0  0  0  0  0  0  0  0  0  0  0  0
   22.4369   -4.7685   22.7713 N   0  0  0  0  0  0  0  0  0  0  0  0
   19.4356   -3.3452   18.7603 N   0  0  0  0  0  0  0  0  0  0  0  0
   26.8854   -4.6339   25.1069 C   0  0  0  0  0  0  0  0  0  0  0  0
   16.3245   -2.4783   16.1423 C   0  0  0  0  0  0  0  0  0  0  0  0
   17.4743   -3.1208   15.6607 C   0  0  0  0  0  0  0  0  0  0  0  0
   26.5056   -4.3297   23.8017 C   0  0  0  0  0  0  0  0  0  0  0  0
   25.9577   -5.1121   26.0304 C   0  0  0  0  0  0  0  0  0  0  0  0
   18.1518   -2.3822   20.5302 C   0  0  0  0  0  0  0  0  0  0  0  0
   21.8795   -5.5723   24.6922 C   0  0  0  0  0  0  0  0  0  0  0  0
   16.2234   -2.1351   17.4994 C   0  0  0  0  0  0  0  0  0  0  0  0
   18.5260   -3.4150   16.5431 C   0  0  0  0  0  0  0  0  0  0  0  0
   25.1680   -4.4972   23.4358 C   0  0  0  0  0  0  0  0  0  0  0  0
   24.6251   -5.2868   25.6546 C   0  0  0  0  0  0  0  0  0  0  0  0
   20.2314   -4.7487   21.5686 C   0  0  0  0  0  0  0  0  0  0  0  0
   20.4411   -3.3331   21.0243 C   0  0  0  0  0  0  0  0  0  0  0  0
   21.1325   -5.0093   22.7574 C   0  0  0  0  0  0  0  0  0  0  0  0
   19.3146   -3.0046   20.0594 C   0  0  0  0  0  0  0  0  0  0  0  0
   17.2700   -2.4293   18.3848 C   0  0  0  0  0  0  0  0  0  0  0  0
   22.9088   -5.1233   23.9593 C   0  0  0  0  0  0  0  0  0  0  0  0
   18.4248   -3.0718   17.9032 C   0  0  0  0  0  0  0  0  0  0  0  0
   24.2353   -4.9854   24.3484 C   0  0  0  0  0  0  0  0  0  0  0  0
   19.8618   -5.7653   24.2265 H   0  0  0  0  0  0  0  0  0  0  0  0
   27.8375   -4.5075   25.3853 H   0  0  0  0  0  0  0  0  0  0  0  0
   15.5743   -2.2641   15.5168 H   0  0  0  0  0  0  0  0  0  0  0  0
   17.5447   -3.3680   14.6943 H   0  0  0  0  0  0  0  0  0  0  0  0
   27.1775   -3.9977   23.1396 H   0  0  0  0  0  0  0  0  0  0  0  0
   26.2469   -5.3300   26.9625 H   0  0  0  0  0  0  0  0  0  0  0  0
   18.0630   -2.1535   21.4996 H   0  0  0  0  0  0  0  0  0  0  0  0
   21.9286   -5.9035   25.6345 H   0  0  0  0  0  0  0  0  0  0  0  0
   15.4003   -1.6783   17.8368 H   0  0  0  0  0  0  0  0  0  0  0  0
   19.3493   -3.8699   16.2036 H   0  0  0  0  0  0  0  0  0  0  0  0
   24.8765   -4.2641   22.5081 H   0  0  0  0  0  0  0  0  0  0  0  0
   23.9551   -5.6249   26.3154 H   0  0  0  0  0  0  0  0  0  0  0  0
   20.4397   -5.4106   20.8485 H   0  0  0  0  0  0  0  0  0  0  0  0
   19.2779   -4.8529   21.8514 H   0  0  0  0  0  0  0  0  0  0  0  0
   21.3178   -3.2838   20.5460 H   0  0  0  0  0  0  0  0  0  0  0  0
   20.4367   -2.6787   21.7805 H   0  0  0  0  0  0  0  0  0  0  0  0
  1 11  1  0  0  0  0
  1 18  1  0  0  0  0
  2 10  2  0  0  0  0
  2 20  1  0  0  0  0
  3 18  2  0  0  0  0
  3 21  1  0  0  0  0
  4 19  2  0  0  0  0
  4 22  1  0  0  0  0
  5  8  2  0  0  0  0
  5  9  1  0  0  0  0
  6  7  2  0  0  0  0
  6 12  1  0  0  0  0
  7 13  1  0  0  0  0
  8 14  1  0  0  0  0
  9 15  2  0  0  0  0
 10 19  1  0  0  0  0
 11 21  2  0  0  0  0
 12 20  2  0  0  0  0
 13 22  2  0  0  0  0
 14 23  2  0  0  0  0
 15 23  1  0  0  0  0
 16 17  1  0  0  0  0
 16 18  1  0  0  0  0
 17 19  1  0  0  0  0
 20 22  1  0  0  0  0
 21 23  1  0  0  0  0
  1 24  1  0  0  0  0
  5 25  1  0  0  0  0
  6 26  1  0  0  0  0
  7 27  1  0  0  0  0
  8 28  1  0  0  0  0
  9 29  1  0  0  0  0
 10 30  1  0  0  0  0
 11 31  1  0  0  0  0
 12 32  1  0  0  0  0
 13 33  1  0  0  0  0
 14 34  1  0  0  0  0
 15 35  1  0  0  0  0
 16 36  1  0  0  0  0
 16 37  1  0  0  0  0
 17 38  1  0  0  0  0
 17 39  1  0  0  0  0
M  END
> <pdb_id>
4YQH

> <uniprot_id>
Q9Y233

> <usmiles>
n1c2c(ncc1CCC3=NC(c4ccccc4)=CN3)cccc2

$$$$
4F8_A_1164
          07192422023D 1   1.00000     0.00000     0
            
 25 26  0  0  0  0            999 V2000
   39.1009  -29.2311  -15.7532 O   0  0  0  0  0  0  0  0  0  0  0  0
   38.3738  -28.3776  -13.9546 O   0  0  0  0  0  0  0  0  0  0  0  0
   40.1677  -27.5794  -17.6827 O   0  0  0  0  0  0  0  0  0  0  0  0
   39.1542  -26.8276  -19.4086 O   0  0  0  0  0  0  0  0  0  0  0  0
   36.4687  -26.8088  -15.6444 N   0  0  0  0  0  0  0  0  0  0  0  0
   36.9261  -25.9619  -17.6455 N   0  0  0  0  0  0  0  0  0  0  0  0
   32.3064  -23.9811  -16.3760 C   0  0  0  0  0  0  0  0  0  0  0  0
   32.8100  -24.4035  -17.6131 C   0  0  0  0  0  0  0  0  0  0  0  0
   33.0752  -24.2196  -15.2372 C   0  0  0  0  0  0  0  0  0  0  0  0
   34.0469  -25.0515  -17.6800 C   0  0  0  0  0  0  0  0  0  0  0  0
   34.3193  -24.8617  -15.3086 C   0  0  0  0  0  0  0  0  0  0  0  0
   38.4483  -28.3518  -15.1913 C   0  0  0  0  0  0  0  0  0  0  0  0
   39.1492  -27.0957  -18.1946 C   0  0  0  0  0  0  0  0  0  0  0  0
   36.0424  -25.9479  -16.6106 C   0  0  0  0  0  0  0  0  0  0  0  0
   37.6359  -27.3287  -16.0354 C   0  0  0  0  0  0  0  0  0  0  0  0
   37.9129  -26.8035  -17.3152 C   0  0  0  0  0  0  0  0  0  0  0  0
   34.8254  -25.2609  -16.5304 C   0  0  0  0  0  0  0  0  0  0  0  0
   39.1788  -29.2361  -16.7501 H   0  0  0  0  0  0  0  0  0  0  0  0
   40.1804  -27.8008  -16.7076 H   0  0  0  0  0  0  0  0  0  0  0  0
   35.9909  -27.0156  -14.7907 H   0  0  0  0  0  0  0  0  0  0  0  0
   31.4207  -23.5215  -16.3114 H   0  0  0  0  0  0  0  0  0  0  0  0
   32.2846  -24.2415  -18.4485 H   0  0  0  0  0  0  0  0  0  0  0  0
   32.7299  -23.9248  -14.3462 H   0  0  0  0  0  0  0  0  0  0  0  0
   34.3843  -25.3726  -18.5649 H   0  0  0  0  0  0  0  0  0  0  0  0
   34.8418  -25.0312  -14.4730 H   0  0  0  0  0  0  0  0  0  0  0  0
  1 12  1  0  0  0  0
  2 12  2  0  0  0  0
  3 13  1  0  0  0  0
  4 13  2  0  0  0  0
  5 14  1  0  0  0  0
  5 15  1  0  0  0  0
  6 14  2  0  0  0  0
  6 16  1  0  0  0  0
  7  8  2  0  0  0  0
  7  9  1  0  0  0  0
  8 10  1  0  0  0  0
  9 11  2  0  0  0  0
 10 17  2  0  0  0  0
 11 17  1  0  0  0  0
 12 15  1  0  0  0  0
 13 16  1  0  0  0  0
 14 17  1  0  0  0  0
 15 16  2  0  0  0  0
  1 18  1  0  0  0  0
  3 19  1  0  0  0  0
  5 20  1  0  0  0  0
  7 21  1  0  0  0  0
  8 22  1  0  0  0  0
  9 23  1  0  0  0  0
 10 24  1  0  0  0  0
 11 25  1  0  0  0  0
M  END
> <pdb_id>
2XP7

> <uniprot_id>
Q13526

> <usmiles>
O=C(O)C=1N=C(NC1C(=O)O)c2ccccc2

$$$$
4FD_A_301
          07192415533D 1   1.00000     0.00000     0
            
 30 31  0  0  0  0            999 V2000
   45.7810    1.3686    6.5224 O   0  0  0  0  0  0  0  0  0  0  0  0
   46.9877    3.2829    6.0070 N   0  0  0  0  0  0  0  0  0  0  0  0
   42.1284    5.9535    8.7087 N   0  0  0  0  0  0  0  0  0  0  0  0
   43.8807    5.5834    7.1765 N   0  0  0  0  0  0  0  0  0  0  0  0
   44.3848    6.7746   12.9584 C   0  0  0  0  0  0  0  0  0  0  0  0
   44.0889    5.4364   12.8719 C   0  0  0  0  0  0  0  0  0  0  0  0
   43.8159    7.6638   12.0784 C   0  0  0  0  0  0  0  0  0  0  0  0
   41.7175    5.3931    9.9773 C   0  0  0  0  0  0  0  0  0  0  0  0
   44.7816    4.7348    6.6818 C   0  0  0  0  0  0  0  0  0  0  0  0
   43.2227    4.9856   11.9057 C   0  0  0  0  0  0  0  0  0  0  0  0
   42.9494    7.2116   11.1123 C   0  0  0  0  0  0  0  0  0  0  0  0
   43.1817    3.8261    8.6381 C   0  0  0  0  0  0  0  0  0  0  0  0
   44.1146    2.9588    8.1210 C   0  0  0  0  0  0  0  0  0  0  0  0
   45.9329    2.5811    6.5244 C   0  0  0  0  0  0  0  0  0  0  0  0
   43.0958    5.1114    8.1499 C   0  0  0  0  0  0  0  0  0  0  0  0
   42.6521    5.8738   11.0258 C   0  0  0  0  0  0  0  0  0  0  0  0
   44.9208    3.4440    7.1232 C   0  0  0  0  0  0  0  0  0  0  0  0
   47.0023    4.2810    6.0679 H   0  0  0  0  0  0  0  0  0  0  0  0
   47.7438    2.7977    5.5679 H   0  0  0  0  0  0  0  0  0  0  0  0
   41.7808    6.7979    8.3010 H   0  0  0  0  0  0  0  0  0  0  0  0
   45.0149    7.1024   13.6623 H   0  0  0  0  0  0  0  0  0  0  0  0
   44.5038    4.7901   13.5123 H   0  0  0  0  0  0  0  0  0  0  0  0
   44.0321    8.6381   12.1410 H   0  0  0  0  0  0  0  0  0  0  0  0
   41.7465    4.3946    9.9308 H   0  0  0  0  0  0  0  0  0  0  0  0
   40.7870    5.6900   10.1922 H   0  0  0  0  0  0  0  0  0  0  0  0
   45.3861    5.0553    5.9525 H   0  0  0  0  0  0  0  0  0  0  0  0
   43.0074    4.0111   11.8425 H   0  0  0  0  0  0  0  0  0  0  0  0
   42.5348    7.8577   10.4715 H   0  0  0  0  0  0  0  0  0  0  0  0
   42.5670    3.5246    9.3669 H   0  0  0  0  0  0  0  0  0  0  0  0
   44.2010    2.0205    8.4559 H   0  0  0  0  0  0  0  0  0  0  0  0
  1 14  2  0  0  0  0
  2 14  1  0  0  0  0
  3  8  1  0  0  0  0
  3 15  1  0  0  0  0
  4  9  1  0  0  0  0
  4 15  2  0  0  0  0
  5  6  2  0  0  0  0
  5  7  1  0  0  0  0
  6 10  1  0  0  0  0
  7 11  2  0  0  0  0
  8 16  1  0  0  0  0
  9 17  2  0  0  0  0
 10 16  2  0  0  0  0
 11 16  1  0  0  0  0
 12 13  2  0  0  0  0
 12 15  1  0  0  0  0
 13 17  1  0  0  0  0
 14 17  1  0  0  0  0
  2 18  1  0  0  0  0
  2 19  1  0  0  0  0
  3 20  1  0  0  0  0
  5 21  1  0  0  0  0
  6 22  1  0  0  0  0
  7 23  1  0  0  0  0
  8 24  1  0  0  0  0
  8 25  1  0  0  0  0
  9 26  1  0  0  0  0
 10 27  1  0  0  0  0
 11 28  1  0  0  0  0
 12 29  1  0  0  0  0
 13 30  1  0  0  0  0
M  END
> <pdb_id>
4YPW

> <uniprot_id>
P43912

> <usmiles>
O=C(N)c1cnc(NCc2ccccc2)cc1

$$$$
4FF_A_1165
          07192422023D 1   1.00000     0.00000     0
            
 25 26  0  0  0  0            999 V2000
   38.3009  -28.4799  -13.8721 O   0  0  0  0  0  0  0  0  0  0  0  0
   39.6211  -28.4868  -15.5574 O   0  0  0  0  0  0  0  0  0  0  0  0
   36.9042  -25.8136  -17.4828 N   0  0  0  0  0  0  0  0  0  0  0  0
   36.4675  -26.6879  -15.5034 N   0  0  0  0  0  0  0  0  0  0  0  0
   39.2190  -26.8790  -18.0135 C   0  0  0  0  0  0  0  0  0  0  0  0
   32.2309  -23.9059  -16.2579 C   0  0  0  0  0  0  0  0  0  0  0  0
   32.8299  -24.1304  -17.5112 C   0  0  0  0  0  0  0  0  0  0  0  0
   32.8547  -24.3420  -15.0697 C   0  0  0  0  0  0  0  0  0  0  0  0
   34.0800  -24.7861  -17.5495 C   0  0  0  0  0  0  0  0  0  0  0  0
   34.1196  -24.9753  -15.1437 C   0  0  0  0  0  0  0  0  0  0  0  0
   38.5647  -28.1219  -15.0420 C   0  0  0  0  0  0  0  0  0  0  0  0
   35.9891  -25.8525  -16.4568 C   0  0  0  0  0  0  0  0  0  0  0  0
   37.9441  -26.6008  -17.1350 C   0  0  0  0  0  0  0  0  0  0  0  0
   37.6544  -27.1387  -15.8723 C   0  0  0  0  0  0  0  0  0  0  0  0
   34.7452  -25.1986  -16.3774 C   0  0  0  0  0  0  0  0  0  0  0  0
   37.4460  -28.1906  -13.4414 H   0  0  0  0  0  0  0  0  0  0  0  0
   35.9967  -26.9261  -14.6539 H   0  0  0  0  0  0  0  0  0  0  0  0
   39.8344  -27.4953  -17.5220 H   0  0  0  0  0  0  0  0  0  0  0  0
   38.9432  -27.3020  -18.8767 H   0  0  0  0  0  0  0  0  0  0  0  0
   39.6898  -26.0168  -18.2002 H   0  0  0  0  0  0  0  0  0  0  0  0
   31.3521  -23.4314  -16.2087 H   0  0  0  0  0  0  0  0  0  0  0  0
   32.3814  -23.8329  -18.3540 H   0  0  0  0  0  0  0  0  0  0  0  0
   32.4087  -24.2054  -14.1852 H   0  0  0  0  0  0  0  0  0  0  0  0
   34.5068  -24.9633  -18.4363 H   0  0  0  0  0  0  0  0  0  0  0  0
   34.5734  -25.2676  -14.3019 H   0  0  0  0  0  0  0  0  0  0  0  0
  1 11  1  0  0  0  0
  2 11  2  0  0  0  0
  3 12  2  0  0  0  0
  3 13  1  0  0  0  0
  4 12  1  0  0  0  0
  4 14  1  0  0  0  0
  5 13  1  0  0  0  0
  6  7  2  0  0  0  0
  6  8  1  0  0  0  0
  7  9  1  0  0  0  0
  8 10  2  0  0  0  0
  9 15  2  0  0  0  0
 10 15  1  0  0  0  0
 11 14  1  0  0  0  0
 12 15  1  0  0  0  0
 13 14  2  0  0  0  0
  1 16  1  0  0  0  0
  4 17  1  0  0  0  0
  5 18  1  0  0  0  0
  5 19  1  0  0  0  0
  5 20  1  0  0  0  0
  6 21  1  0  0  0  0
  7 22  1  0  0  0  0
  8 23  1  0  0  0  0
  9 24  1  0  0  0  0
 10 25  1  0  0  0  0
M  END
> <pdb_id>
2XP5

> <uniprot_id>
Q13526

> <usmiles>
O=C(O)C=1NC(=NC1C)c2ccccc2

$$$$
4FG_A_301
          07192415533D 1   1.00000     0.00000     0
            
 17 17  0  0  0  0            999 V2000
   45.9126    1.3252    6.5050 O   0  0  0  0  0  0  0  0  0  0  0  0
   46.9995    3.1449    5.7356 N   0  0  0  0  0  0  0  0  0  0  0  0
   42.4406    6.1361    8.8815 N   0  0  0  0  0  0  0  0  0  0  0  0
   44.1174    5.6884    7.2930 N   0  0  0  0  0  0  0  0  0  0  0  0
   44.9533    4.7928    6.7442 C   0  0  0  0  0  0  0  0  0  0  0  0
   43.3082    3.8669    8.7847 C   0  0  0  0  0  0  0  0  0  0  0  0
   44.1849    2.9962    8.1784 C   0  0  0  0  0  0  0  0  0  0  0  0
   45.9866    2.5580    6.4563 C   0  0  0  0  0  0  0  0  0  0  0  0
   43.2893    5.2155    8.3233 C   0  0  0  0  0  0  0  0  0  0  0  0
   45.0284    3.4482    7.1423 C   0  0  0  0  0  0  0  0  0  0  0  0
   47.0682    4.1415    5.6899 H   0  0  0  0  0  0  0  0  0  0  0  0
   47.6677    2.5752    5.2570 H   0  0  0  0  0  0  0  0  0  0  0  0
   41.8240    5.8641    9.6203 H   0  0  0  0  0  0  0  0  0  0  0  0
   42.4381    7.0795    8.5500 H   0  0  0  0  0  0  0  0  0  0  0  0
   45.5574    5.1009    6.0092 H   0  0  0  0  0  0  0  0  0  0  0  0
   42.7057    3.5641    9.5231 H   0  0  0  0  0  0  0  0  0  0  0  0
   44.2239    2.0414    8.4730 H   0  0  0  0  0  0  0  0  0  0  0  0
  1  8  2  0  0  0  0
  2  8  1  0  0  0  0
  3  9  1  0  0  0  0
  4  5  1  0  0  0  0
  4  9  2  0  0  0  0
  5 10  2  0  0  0  0
  6  7  2  0  0  0  0
  6  9  1  0  0  0  0
  7 10  1  0  0  0  0
  8 10  1  0  0  0  0
  2 11  1  0  0  0  0
  2 12  1  0  0  0  0
  3 13  1  0  0  0  0
  3 14  1  0  0  0  0
  5 15  1  0  0  0  0
  6 16  1  0  0  0  0
  7 17  1  0  0  0  0
M  END
> <pdb_id>
4YPX

> <uniprot_id>
P43912

> <usmiles>
O=C(N)c1cnc(N)cc1

$$$$
4FH_A_303
          07192416293D 1   1.00000     0.00000     0
            
 16 16  0  0  0  0            999 V2000
   -6.2804    0.4802   17.0520 S   0  0  0  0  0  0  0  0  0  0  0  0
   -6.1406    5.5697   16.0239 F   0  0  0  0  0  0  0  0  0  0  0  0
   -4.4494    5.9084   14.7600 F   0  0  0  0  0  0  0  0  0  0  0  0
   -6.4118    5.5537   13.9662 F   0  0  0  0  0  0  0  0  0  0  0  0
   -4.6318   -0.3597   14.8192 O   0  5  0  0  0  0  0  0  0  0  0  0
   -4.8628    0.9561   14.8426 N   0  3  0  0  0  0  0  0  0  0  0  0
   -4.3257    1.7756   13.8484 C   0  0  0  0  0  0  0  0  0  0  0  0
   -4.5660    3.1553   13.8698 C   0  0  0  0  0  0  0  0  0  0  0  0
   -5.8704    2.9302   15.8527 C   0  0  0  0  0  0  0  0  0  0  0  0
   -5.6178    1.4925   15.8282 C   0  0  0  0  0  0  0  0  0  0  0  0
   -5.3523    3.7185   14.8954 C   0  0  0  0  0  0  0  0  0  0  0  0
   -5.6173    5.2462   14.9169 C   0  0  0  0  0  0  0  0  0  0  0  0
   -6.8387    0.8766   17.7808 H   0  0  0  0  0  0  0  0  0  0  0  0
   -3.7687    1.3771   13.1198 H   0  0  0  0  0  0  0  0  0  0  0  0
   -4.1796    3.7411   13.1573 H   0  0  0  0  0  0  0  0  0  0  0  0
   -6.4284    3.3280   16.5810 H   0  0  0  0  0  0  0  0  0  0  0  0
  1 10  1  0  0  0  0
  2 12  1  0  0  0  0
  3 12  1  0  0  0  0
  4 12  1  0  0  0  0
  5  6  1  0  0  0  0
  6  7  1  0  0  0  0
  6 10  2  0  0  0  0
  7  8  2  0  0  0  0
  8 11  1  0  0  0  0
  9 10  1  0  0  0  0
  9 11  2  0  0  0  0
 11 12  1  0  0  0  0
  1 13  1  0  0  0  0
  7 14  1  0  0  0  0
  8 15  1  0  0  0  0
  9 16  1  0  0  0  0
M  CHG  2   5  -1   6   1
M  END
> <pdb_id>
4Q87

> <uniprot_id>
P00918

> <usmiles>
Sc1[n+]([O-])ccc(c1)C(F)(F)F

$$$$
4FL_A_301
          07192415533D 1   1.00000     0.00000     0
            
 20 21  0  0  0  0            999 V2000
   45.8034    1.7392    6.4777 N   0  0  0  0  0  0  0  0  0  0  0  0
   42.5423    4.4140    9.4445 N   0  0  0  0  0  0  0  0  0  0  0  0
   43.4918    6.0311    8.1565 N   0  0  0  0  0  0  0  0  0  0  0  0
   45.0204    1.4118    7.5405 C   0  0  0  0  0  0  0  0  0  0  0  0
   45.8209    3.0422    6.0863 C   0  0  0  0  0  0  0  0  0  0  0  0
   41.9490    5.6287    9.8046 C   0  0  0  0  0  0  0  0  0  0  0  0
   42.5432    6.6039    9.0052 C   0  0  0  0  0  0  0  0  0  0  0  0
   44.2400    2.3441    8.2293 C   0  0  0  0  0  0  0  0  0  0  0  0
   45.0728    4.0394    6.7148 C   0  0  0  0  0  0  0  0  0  0  0  0
   43.4669    4.6919    8.4475 C   0  0  0  0  0  0  0  0  0  0  0  0
   44.2735    3.6694    7.7970 C   0  0  0  0  0  0  0  0  0  0  0  0
   46.3463    1.0476    6.0013 H   0  0  0  0  0  0  0  0  0  0  0  0
   42.3386    3.5151    9.8323 H   0  0  0  0  0  0  0  0  0  0  0  0
   44.0651    6.4967    7.4823 H   0  0  0  0  0  0  0  0  0  0  0  0
   45.0024    0.4589    7.8433 H   0  0  0  0  0  0  0  0  0  0  0  0
   46.3979    3.2981    5.3107 H   0  0  0  0  0  0  0  0  0  0  0  0
   41.2408    5.7691   10.4965 H   0  0  0  0  0  0  0  0  0  0  0  0
   42.3209    7.5784    9.0356 H   0  0  0  0  0  0  0  0  0  0  0  0
   43.6755    2.0696    9.0077 H   0  0  0  0  0  0  0  0  0  0  0  0
   45.1086    4.9878    6.3998 H   0  0  0  0  0  0  0  0  0  0  0  0
  1  4  1  0  0  0  0
  1  5  1  0  0  0  0
  2  6  1  0  0  0  0
  2 10  1  0  0  0  0
  3  7  1  0  0  0  0
  3 10  1  0  0  0  0
  4  8  2  0  0  0  0
  5  9  2  0  0  0  0
  6  7  2  0  0  0  0
  8 11  1  0  0  0  0
  9 11  1  0  0  0  0
 10 11  2  0  0  0  0
  1 12  1  0  0  0  0
  2 13  1  0  0  0  0
  3 14  1  0  0  0  0
  4 15  1  0  0  0  0
  5 16  1  0  0  0  0
  6 17  1  0  0  0  0
  7 18  1  0  0  0  0
  8 19  1  0  0  0  0
  9 20  1  0  0  0  0
M  END
> <pdb_id>
4YPZ

> <uniprot_id>
P43912

> <usmiles>
N1C(NC=C1)=C2C=CNC=C2

$$$$
4FM_A_301
          07192415533D 1   1.00000     0.00000     0
            
 26 27  0  0  0  0            999 V2000
   41.1996    6.1453   14.4836 Cl  0  0  0  0  0  0  0  0  0  0  0  0
   44.8307    5.4769    6.9696 O   0  0  0  0  0  0  0  0  0  0  0  0
   45.1516    0.9924    7.3764 O   0  0  0  0  0  0  0  0  0  0  0  0
   46.8095    3.6263    5.7515 N   0  0  0  0  0  0  0  0  0  0  0  0
   46.1534    1.4175    6.5344 N   0  0  0  0  0  0  0  0  0  0  0  0
   44.4072    1.9837    7.8340 N   0  0  0  0  0  0  0  0  0  0  0  0
   43.2575    4.5080    8.3408 N   0  0  0  0  0  0  0  0  0  0  0  0
   41.1676    6.9455   11.9504 C   0  0  0  0  0  0  0  0  0  0  0  0
   42.2905    4.8285   12.3831 C   0  0  0  0  0  0  0  0  0  0  0  0
   41.5018    6.8543   10.6056 C   0  0  0  0  0  0  0  0  0  0  0  0
   42.6261    4.7428   11.0066 C   0  0  0  0  0  0  0  0  0  0  0  0
   42.5866    5.7625    8.6756 C   0  0  0  0  0  0  0  0  0  0  0  0
   41.5826    5.9366   12.8037 C   0  0  0  0  0  0  0  0  0  0  0  0
   44.3501    4.4759    7.5128 C   0  0  0  0  0  0  0  0  0  0  0  0
   46.0365    2.7705    6.4584 C   0  0  0  0  0  0  0  0  0  0  0  0
   42.2258    5.7759   10.1350 C   0  0  0  0  0  0  0  0  0  0  0  0
   44.8899    3.1306    7.3081 C   0  0  0  0  0  0  0  0  0  0  0  0
   46.6150    4.6213    5.7802 H   0  0  0  0  0  0  0  0  0  0  0  0
   47.5827    3.2831    5.1905 H   0  0  0  0  0  0  0  0  0  0  0  0
   42.8853    3.6553    8.7462 H   0  0  0  0  0  0  0  0  0  0  0  0
   40.5943    7.7827   12.3446 H   0  0  0  0  0  0  0  0  0  0  0  0
   42.5796    4.0494   13.0871 H   0  0  0  0  0  0  0  0  0  0  0  0
   41.1901    7.6391    9.9189 H   0  0  0  0  0  0  0  0  0  0  0  0
   43.1862    3.8889   10.6290 H   0  0  0  0  0  0  0  0  0  0  0  0
   43.2172    6.6106    8.4133 H   0  0  0  0  0  0  0  0  0  0  0  0
   41.7007    5.8336    8.0460 H   0  0  0  0  0  0  0  0  0  0  0  0
  1 13  1  0  0  0  0
  2 14  2  0  0  0  0
  3  5  1  0  0  0  0
  3  6  1  0  0  0  0
  4 15  1  0  0  0  0
  4 18  1  0  0  0  0
  4 19  1  0  0  0  0
  5 15  2  0  0  0  0
  6 17  2  0  0  0  0
  7 12  1  0  0  0  0
  7 14  1  0  0  0  0
  7 20  1  0  0  0  0
  8 10  2  0  0  0  0
  8 13  1  0  0  0  0
  8 21  1  0  0  0  0
  9 11  1  0  0  0  0
  9 13  2  0  0  0  0
  9 22  1  0  0  0  0
 10 16  1  0  0  0  0
 10 23  1  0  0  0  0
 11 16  2  0  0  0  0
 11 24  1  0  0  0  0
 12 16  1  0  0  0  0
 12 25  1  0  0  0  0
 12 26  1  0  0  0  0
 14 17  1  0  0  0  0
 15 17  1  0  0  0  0
M  END
> <pdb_id>
4YQ0

> <uniprot_id>
P43912

> <usmiles>
Clc1ccc(cc1)CNC(=O)C2=NON=C2N

$$$$
4FN_A_301
          07192415533D 1   1.00000     0.00000     0
            
 63 66  0  0  0  0            999 V2000
   45.5310    8.1800    7.4660 O   0  0  0  0  0  0  0  0  0  0  0  0
   43.0290    4.1600    9.2410 O   0  0  0  0  0  0  0  0  0  0  0  0
   44.6350    0.6440    7.5990 O   0  0  0  0  0  0  0  0  0  0  0  0
   45.4850    0.9120    6.5730 N   0  0  0  0  0  0  0  0  0  0  0  0
   45.1870    8.7680    9.6630 N   0  0  0  0  0  0  0  0  0  0  0  0
   43.9570    6.2230    8.7160 N   0  0  0  0  0  0  0  0  0  0  0  0
   50.4770    6.6730    6.6020 C   0  0  0  0  0  0  0  0  0  0  0  0
   52.0490    8.4410    7.2680 C   0  0  0  0  0  0  0  0  0  0  0  0
   50.3970    8.8930    5.4660 C   0  0  0  0  0  0  0  0  0  0  0  0
   44.1280    1.7910    8.1280 C   0  0  0  0  0  0  0  0  0  0  0  0
   43.7350    8.5130    9.5480 C   0  0  0  0  0  0  0  0  0  0  0  0
   41.4470    6.8860   12.1030 C   0  0  0  0  0  0  0  0  0  0  0  0
   46.0950    4.4460    5.5930 C   0  0  0  0  0  0  0  0  0  0  0  0
   49.1960   10.0510    9.8260 C   0  0  0  0  0  0  0  0  0  0  0  0
   40.9840    7.5090   10.7940 C   0  0  0  0  0  0  0  0  0  0  0  0
   42.9320    7.0940   12.2940 C   0  0  0  0  0  0  0  0  0  0  0  0
   46.2570    3.0890    5.5160 C   0  0  0  0  0  0  0  0  0  0  0  0
   47.8580    9.7090    9.7380 C   0  0  0  0  0  0  0  0  0  0  0  0
   45.2460    5.0600    6.5700 C   0  0  0  0  0  0  0  0  0  0  0  0
   50.1020    9.5790    8.8740 C   0  0  0  0  0  0  0  0  0  0  0  0
   48.3330    8.4100    7.7380 C   0  0  0  0  0  0  0  0  0  0  0  0
   41.7400    6.9210    9.6080 C   0  0  0  0  0  0  0  0  0  0  0  0
   43.7220    6.4960   11.1340 C   0  0  0  0  0  0  0  0  0  0  0  0
   46.0010    8.5860    8.5290 C   0  0  0  0  0  0  0  0  0  0  0  0
   43.7750    4.8710    8.5600 C   0  0  0  0  0  0  0  0  0  0  0  0
   45.5400    2.2630    6.4340 C   0  0  0  0  0  0  0  0  0  0  0  0
   47.4380    8.8990    8.6900 C   0  0  0  0  0  0  0  0  0  0  0  0
   44.6750    2.8650    7.4260 C   0  0  0  0  0  0  0  0  0  0  0  0
   44.5690    4.2730    7.4710 C   0  0  0  0  0  0  0  0  0  0  0  0
   49.6860    8.7510    7.8270 C   0  0  0  0  0  0  0  0  0  0  0  0
   50.6270    8.1890    6.8080 C   0  0  0  0  0  0  0  0  0  0  0  0
   43.2700    7.0190    9.7590 C   0  0  0  0  0  0  0  0  0  0  0  0
   45.5840    9.0647   10.5316 H   0  0  0  0  0  0  0  0  0  0  0  0
   44.5841    6.6932    8.0950 H   0  0  0  0  0  0  0  0  0  0  0  0
   49.5469    6.4685    6.2969 H   0  0  0  0  0  0  0  0  0  0  0  0
   51.1301    6.3643    5.9105 H   0  0  0  0  0  0  0  0  0  0  0  0
   50.6565    6.2000    7.4646 H   0  0  0  0  0  0  0  0  0  0  0  0
   52.1838    9.4213    7.4127 H   0  0  0  0  0  0  0  0  0  0  0  0
   52.2139    7.9518    8.1245 H   0  0  0  0  0  0  0  0  0  0  0  0
   52.6875    8.1162    6.5703 H   0  0  0  0  0  0  0  0  0  0  0  0
   50.4921    9.8811    5.5873 H   0  0  0  0  0  0  0  0  0  0  0  0
   51.0719    8.5723    4.8014 H   0  0  0  0  0  0  0  0  0  0  0  0
   49.4770    8.6849    5.1338 H   0  0  0  0  0  0  0  0  0  0  0  0
   43.4784    1.8528    8.8858 H   0  0  0  0  0  0  0  0  0  0  0  0
   43.4473    8.7956    8.6329 H   0  0  0  0  0  0  0  0  0  0  0  0
   43.2713    9.0762   10.2320 H   0  0  0  0  0  0  0  0  0  0  0  0
   41.2516    5.9054   12.0877 H   0  0  0  0  0  0  0  0  0  0  0  0
   40.9550    7.3121   12.8621 H   0  0  0  0  0  0  0  0  0  0  0  0
   46.5860    5.0286    4.9453 H   0  0  0  0  0  0  0  0  0  0  0  0
   49.5142   10.6364   10.5717 H   0  0  0  0  0  0  0  0  0  0  0  0
   41.1447    8.4954   10.8271 H   0  0  0  0  0  0  0  0  0  0  0  0
   40.0063    7.3343   10.6771 H   0  0  0  0  0  0  0  0  0  0  0  0
   43.2170    6.6533   13.1452 H   0  0  0  0  0  0  0  0  0  0  0  0
   43.1206    8.0746   12.3469 H   0  0  0  0  0  0  0  0  0  0  0  0
   46.8642    2.6849    4.8319 H   0  0  0  0  0  0  0  0  0  0  0  0
   47.2036   10.0396   10.4180 H   0  0  0  0  0  0  0  0  0  0  0  0
   45.1465    6.0547    6.5963 H   0  0  0  0  0  0  0  0  0  0  0  0
   51.0655    9.8378    8.9423 H   0  0  0  0  0  0  0  0  0  0  0  0
   48.0094    7.8204    6.9980 H   0  0  0  0  0  0  0  0  0  0  0  0
   41.4694    7.4146    8.7815 H   0  0  0  0  0  0  0  0  0  0  0  0
   41.4901    5.9570    9.5174 H   0  0  0  0  0  0  0  0  0  0  0  0
   43.6069    5.5028   11.1497 H   0  0  0  0  0  0  0  0  0  0  0  0
   44.6883    6.7216   11.2579 H   0  0  0  0  0  0  0  0  0  0  0  0
  1 24  2  0  0  0  0
  2 25  2  0  0  0  0
  3  4  1  0  0  0  0
  3 10  1  0  0  0  0
  4 26  2  0  0  0  0
  5 11  1  0  0  0  0
  5 24  1  0  0  0  0
  6 25  1  0  0  0  0
  6 32  1  0  0  0  0
  7 31  1  0  0  0  0
  8 31  1  0  0  0  0
  9 31  1  0  0  0  0
 10 28  2  0  0  0  0
 11 32  1  0  0  0  0
 12 15  1  0  0  0  0
 12 16  1  0  0  0  0
 13 17  2  0  0  0  0
 13 19  1  0  0  0  0
 14 18  1  0  0  0  0
 14 20  2  0  0  0  0
 15 22  1  0  0  0  0
 16 23  1  0  0  0  0
 17 26  1  0  0  0  0
 18 27  2  0  0  0  0
 19 29  2  0  0  0  0
 20 30  1  0  0  0  0
 21 27  1  0  0  0  0
 21 30  2  0  0  0  0
 22 32  1  0  0  0  0
 23 32  1  0  0  0  0
 24 27  1  0  0  0  0
 25 29  1  0  0  0  0
 26 28  1  0  0  0  0
 28 29  1  0  0  0  0
 30 31  1  0  0  0  0
  5 33  1  0  0  0  0
  6 34  1  0  0  0  0
  7 35  1  0  0  0  0
  7 36  1  0  0  0  0
  7 37  1  0  0  0  0
  8 38  1  0  0  0  0
  8 39  1  0  0  0  0
  8 40  1  0  0  0  0
  9 41  1  0  0  0  0
  9 42  1  0  0  0  0
  9 43  1  0  0  0  0
 10 44  1  0  0  0  0
 11 45  1  0  0  0  0
 11 46  1  0  0  0  0
 12 47  1  0  0  0  0
 12 48  1  0  0  0  0
 13 49  1  0  0  0  0
 14 50  1  0  0  0  0
 15 51  1  0  0  0  0
 15 52  1  0  0  0  0
 16 53  1  0  0  0  0
 16 54  1  0  0  0  0
 17 55  1  0  0  0  0
 18 56  1  0  0  0  0
 19 57  1  0  0  0  0
 20 58  1  0  0  0  0
 21 59  1  0  0  0  0
 22 60  1  0  0  0  0
 22 61  1  0  0  0  0
 23 62  1  0  0  0  0
 23 63  1  0  0  0  0
M  END
> <pdb_id>
4YQ1

> <uniprot_id>
P43912

> <usmiles>
O=C(NCC1(NC(=O)C=2C=3C(=NOC3)C=CC2)CCCCC1)c4cc(ccc4)C(C)(C)C

$$$$
4FV_A_301
          07192415533D 1   1.00000     0.00000     0
            
 27 28  0  0  0  0            999 V2000
   44.8153    5.7806    6.9067 O   0  0  0  0  0  0  0  0  0  0  0  0
   41.1396    7.4374   11.7831 O   0  0  0  0  0  0  0  0  0  0  0  0
   44.8546    1.3685    7.6727 O   0  0  0  0  0  0  0  0  0  0  0  0
   46.6310    3.7533    5.8196 N   0  0  0  0  0  0  0  0  0  0  0  0
   45.8200    1.6377    6.7495 N   0  0  0  0  0  0  0  0  0  0  0  0
   44.2550    2.4674    8.1439 N   0  0  0  0  0  0  0  0  0  0  0  0
   43.7237    5.2131    8.8398 N   0  0  0  0  0  0  0  0  0  0  0  0
   43.1913    8.2733   10.8343 C   0  0  0  0  0  0  0  0  0  0  0  0
   44.1262    7.2198   10.2273 C   0  0  0  0  0  0  0  0  0  0  0  0
   41.8731    6.6037    9.6397 C   0  0  0  0  0  0  0  0  0  0  0  0
   44.4646    4.9317    7.7122 C   0  0  0  0  0  0  0  0  0  0  0  0
   45.8388    3.0007    6.6219 C   0  0  0  0  0  0  0  0  0  0  0  0
   44.8164    3.5187    7.5317 C   0  0  0  0  0  0  0  0  0  0  0  0
   41.7672    7.8194   10.5557 C   0  0  1  0  0  0  0  0  0  0  0  0
   43.3136    6.5965    9.1189 C   0  0  2  0  0  0  0  0  0  0  0  0
   40.9973    8.2745   12.2958 H   0  0  0  0  0  0  0  0  0  0  0  0
   46.5428    4.7647    5.8155 H   0  0  0  0  0  0  0  0  0  0  0  0
   47.3182    3.3144    5.2150 H   0  0  0  0  0  0  0  0  0  0  0  0
   43.4484    4.4860    9.4916 H   0  0  0  0  0  0  0  0  0  0  0  0
   43.3894    8.4196   11.8948 H   0  0  0  0  0  0  0  0  0  0  0  0
   43.3702    9.2488   10.3841 H   0  0  0  0  0  0  0  0  0  0  0  0
   44.4571    6.5006   10.9744 H   0  0  0  0  0  0  0  0  0  0  0  0
   45.0471    7.6666    9.8548 H   0  0  0  0  0  0  0  0  0  0  0  0
   41.6677    5.6927   10.2003 H   0  0  0  0  0  0  0  0  0  0  0  0
   41.1216    6.6032    8.8515 H   0  0  0  0  0  0  0  0  0  0  0  0
   41.1713    8.6027   10.0897 H   0  0  0  0  0  0  0  0  0  0  0  0
   43.3941    7.1776    8.2014 H   0  0  0  0  0  0  0  0  0  0  0  0
  1 11  2  0  0  0  0
  2 14  1  0  0  0  0
  2 16  1  0  0  0  0
  3  5  1  0  0  0  0
  3  6  1  0  0  0  0
  4 12  1  0  0  0  0
  4 17  1  0  0  0  0
  4 18  1  0  0  0  0
  5 12  2  0  0  0  0
  6 13  2  0  0  0  0
  7 11  1  0  0  0  0
  7 15  1  0  0  0  0
  7 19  1  0  0  0  0
  8  9  1  0  0  0  0
  8 14  1  0  0  0  0
  8 20  1  0  0  0  0
  8 21  1  0  0  0  0
  9 15  1  0  0  0  0
  9 22  1  0  0  0  0
  9 23  1  0  0  0  0
 10 14  1  0  0  0  0
 10 15  1  0  0  0  0
 10 24  1  0  0  0  0
 10 25  1  0  0  0  0
 11 13  1  0  0  0  0
 12 13  1  0  0  0  0
 14 26  1  0  0  0  0
 15 27  1  0  0  0  0
M  END
> <pdb_id>
4YQ8

> <uniprot_id>
P43912

> <usmiles>
O=C(N[C@H]1C[C@@H](O)CC1)C2=NON=C2N

$$$$
4FX_A_301
          07192415533D 1   1.00000     0.00000     0
            
 34 35  0  0  0  0            999 V2000
   45.8267    1.3558    6.6124 O   0  0  0  0  0  0  0  0  0  0  0  0
   43.2029    8.2668   10.5797 O   0  0  0  0  0  0  0  0  0  0  0  0
   47.0583    3.1057    5.7350 N   0  0  0  0  0  0  0  0  0  0  0  0
   43.9922    5.6487    7.2154 N   0  0  0  0  0  0  0  0  0  0  0  0
   42.2357    6.1966    8.7599 N   0  0  0  0  0  0  0  0  0  0  0  0
   44.0721    9.3491   10.6163 C   0  0  0  0  0  0  0  0  0  0  0  0
   44.8713    4.7912    6.6777 C   0  0  0  0  0  0  0  0  0  0  0  0
   41.6964    5.9435   10.0709 C   0  0  0  0  0  0  0  0  0  0  0  0
   44.5137    6.1373   13.2627 C   0  0  0  0  0  0  0  0  0  0  0  0
   43.7860    4.9716   13.0424 C   0  0  0  0  0  0  0  0  0  0  0  0
   44.3236    7.2438   12.4460 C   0  0  0  0  0  0  0  0  0  0  0  0
   43.2080    3.9519    8.7021 C   0  0  0  0  0  0  0  0  0  0  0  0
   42.8686    4.9096   12.0078 C   0  0  0  0  0  0  0  0  0  0  0  0
   44.1186    3.0381    8.1540 C   0  0  0  0  0  0  0  0  0  0  0  0
   45.9577    2.5666    6.4908 C   0  0  0  0  0  0  0  0  0  0  0  0
   43.1766    5.2525    8.2046 C   0  0  0  0  0  0  0  0  0  0  0  0
   43.4077    7.1805   11.4045 C   0  0  0  0  0  0  0  0  0  0  0  0
   44.9624    3.4743    7.1267 C   0  0  0  0  0  0  0  0  0  0  0  0
   42.6777    6.0134   11.1923 C   0  0  0  0  0  0  0  0  0  0  0  0
   47.1612    4.0957    5.6384 H   0  0  0  0  0  0  0  0  0  0  0  0
   47.7198    2.4901    5.3067 H   0  0  0  0  0  0  0  0  0  0  0  0
   41.9642    7.0095    8.2446 H   0  0  0  0  0  0  0  0  0  0  0  0
   43.7731   10.0392    9.9572 H   0  0  0  0  0  0  0  0  0  0  0  0
   44.0739    9.7442   11.5349 H   0  0  0  0  0  0  0  0  0  0  0  0
   44.9952    9.0433   10.3831 H   0  0  0  0  0  0  0  0  0  0  0  0
   45.4726    5.1016    5.9414 H   0  0  0  0  0  0  0  0  0  0  0  0
   41.2964    5.0270   10.0680 H   0  0  0  0  0  0  0  0  0  0  0  0
   40.9802    6.6192   10.2454 H   0  0  0  0  0  0  0  0  0  0  0  0
   45.1754    6.1780   14.0114 H   0  0  0  0  0  0  0  0  0  0  0  0
   43.9262    4.1770   13.6331 H   0  0  0  0  0  0  0  0  0  0  0  0
   44.8439    8.0824   12.6072 H   0  0  0  0  0  0  0  0  0  0  0  0
   42.5908    3.6745    9.4384 H   0  0  0  0  0  0  0  0  0  0  0  0
   42.3461    4.0718   11.8495 H   0  0  0  0  0  0  0  0  0  0  0  0
   44.1641    2.0971    8.4892 H   0  0  0  0  0  0  0  0  0  0  0  0
  1 15  2  0  0  0  0
  2  6  1  0  0  0  0
  2 17  1  0  0  0  0
  3 15  1  0  0  0  0
  4  7  1  0  0  0  0
  4 16  2  0  0  0  0
  5  8  1  0  0  0  0
  5 16  1  0  0  0  0
  7 18  2  0  0  0  0
  8 19  1  0  0  0  0
  9 10  2  0  0  0  0
  9 11  1  0  0  0  0
 10 13  1  0  0  0  0
 11 17  2  0  0  0  0
 12 14  2  0  0  0  0
 12 16  1  0  0  0  0
 13 19  2  0  0  0  0
 14 18  1  0  0  0  0
 15 18  1  0  0  0  0
 17 19  1  0  0  0  0
  3 20  1  0  0  0  0
  3 21  1  0  0  0  0
  5 22  1  0  0  0  0
  6 23  1  0  0  0  0
  6 24  1  0  0  0  0
  6 25  1  0  0  0  0
  7 26  1  0  0  0  0
  8 27  1  0  0  0  0
  8 28  1  0  0  0  0
  9 29  1  0  0  0  0
 10 30  1  0  0  0  0
 11 31  1  0  0  0  0
 12 32  1  0  0  0  0
 13 33  1  0  0  0  0
 14 34  1  0  0  0  0
M  END
> <pdb_id>
4YQ6

> <uniprot_id>
P43912

> <usmiles>
O=C(N)c1cnc(NCc2c(OC)cccc2)cc1

$$$$
4G0_A_301
          07192415533D 1   1.00000     0.00000     0
            
 38 39  0  0  0  0            999 V2000
   45.8815    1.2725    6.4410 O   0  0  0  0  0  0  0  0  0  0  0  0
   46.9650    3.0950    5.6053 N   0  0  0  0  0  0  0  0  0  0  0  0
   42.4647    6.0855    8.8630 N   0  0  0  0  0  0  0  0  0  0  0  0
   43.9371    5.5662    7.1577 N   0  0  0  0  0  0  0  0  0  0  0  0
   45.2374    8.7555   12.3219 N   0  0  0  0  0  0  0  0  0  0  0  0
   46.3009    9.0348   13.3021 C   0  0  0  0  0  0  0  0  0  0  0  0
   44.9009    9.8937   11.4522 C   0  0  0  0  0  0  0  0  0  0  0  0
   41.8604    5.8581   10.1770 C   0  0  0  0  0  0  0  0  0  0  0  0
   44.7937    4.7058    6.5992 C   0  0  0  0  0  0  0  0  0  0  0  0
   44.3041    5.2550   13.0525 C   0  0  0  0  0  0  0  0  0  0  0  0
   43.3698    3.7769    8.7569 C   0  0  0  0  0  0  0  0  0  0  0  0
   44.9518    6.4826   13.1214 C   0  0  0  0  0  0  0  0  0  0  0  0
   43.2888    5.0356   12.1150 C   0  0  0  0  0  0  0  0  0  0  0  0
   44.2626    2.9330    8.1339 C   0  0  0  0  0  0  0  0  0  0  0  0
   43.5650    7.3010   11.2941 C   0  0  0  0  0  0  0  0  0  0  0  0
   45.9562    2.4979    6.3678 C   0  0  0  0  0  0  0  0  0  0  0  0
   43.2190    5.1081    8.2509 C   0  0  0  0  0  0  0  0  0  0  0  0
   44.5896    7.5167   12.2452 C   0  0  0  0  0  0  0  0  0  0  0  0
   42.9277    6.0631   11.2364 C   0  0  0  0  0  0  0  0  0  0  0  0
   45.0004    3.3920    7.0359 C   0  0  0  0  0  0  0  0  0  0  0  0
   47.0241    4.0915    5.5469 H   0  0  0  0  0  0  0  0  0  0  0  0
   47.6272    2.5254    5.1183 H   0  0  0  0  0  0  0  0  0  0  0  0
   42.3282    6.9629    8.4029 H   0  0  0  0  0  0  0  0  0  0  0  0
   46.4706    8.2170   13.8520 H   0  0  0  0  0  0  0  0  0  0  0  0
   47.1386    9.2925   12.8207 H   0  0  0  0  0  0  0  0  0  0  0  0
   46.0154    9.7845   13.8991 H   0  0  0  0  0  0  0  0  0  0  0  0
   44.1752    9.6259   10.8185 H   0  0  0  0  0  0  0  0  0  0  0  0
   44.5879   10.6604   12.0128 H   0  0  0  0  0  0  0  0  0  0  0  0
   45.7111   10.1684   10.9343 H   0  0  0  0  0  0  0  0  0  0  0  0
   41.5074    4.9240   10.2294 H   0  0  0  0  0  0  0  0  0  0  0  0
   41.1122    6.5058   10.3214 H   0  0  0  0  0  0  0  0  0  0  0  0
   45.3247    5.0231    5.8135 H   0  0  0  0  0  0  0  0  0  0  0  0
   44.5662    4.5212   13.6792 H   0  0  0  0  0  0  0  0  0  0  0  0
   42.8386    3.4668    9.5453 H   0  0  0  0  0  0  0  0  0  0  0  0
   45.6759    6.6289   13.7954 H   0  0  0  0  0  0  0  0  0  0  0  0
   42.8247    4.1509   12.0732 H   0  0  0  0  0  0  0  0  0  0  0  0
   44.3833    1.9969    8.4643 H   0  0  0  0  0  0  0  0  0  0  0  0
   43.2995    8.0329   10.6665 H   0  0  0  0  0  0  0  0  0  0  0  0
  1 16  2  0  0  0  0
  2 16  1  0  0  0  0
  3  8  1  0  0  0  0
  3 17  1  0  0  0  0
  4  9  1  0  0  0  0
  4 17  2  0  0  0  0
  5  6  1  0  0  0  0
  5  7  1  0  0  0  0
  5 18  1  0  0  0  0
  8 19  1  0  0  0  0
  9 20  2  0  0  0  0
 10 12  1  0  0  0  0
 10 13  2  0  0  0  0
 11 14  2  0  0  0  0
 11 17  1  0  0  0  0
 12 18  2  0  0  0  0
 13 19  1  0  0  0  0
 14 20  1  0  0  0  0
 15 18  1  0  0  0  0
 15 19  2  0  0  0  0
 16 20  1  0  0  0  0
  2 21  1  0  0  0  0
  2 22  1  0  0  0  0
  3 23  1  0  0  0  0
  6 24  1  0  0  0  0
  6 25  1  0  0  0  0
  6 26  1  0  0  0  0
  7 27  1  0  0  0  0
  7 28  1  0  0  0  0
  7 29  1  0  0  0  0
  8 30  1  0  0  0  0
  8 31  1  0  0  0  0
  9 32  1  0  0  0  0
 10 33  1  0  0  0  0
 11 34  1  0  0  0  0
 12 35  1  0  0  0  0
 13 36  1  0  0  0  0
 14 37  1  0  0  0  0
 15 38  1  0  0  0  0
M  END
> <pdb_id>
4YQ5

> <uniprot_id>
P43912

> <usmiles>
O=C(N)c1cnc(NCc2cc(N(C)C)ccc2)cc1

$$$$
4G1_A_301
          07192415533D 1   1.00000     0.00000     0
            
 51 54  0  0  0  0            999 V2000
   45.3127    8.3913    7.5702 O   0  0  0  0  0  0  0  0  0  0  0  0
   42.9800    4.3182    9.5272 O   0  0  0  0  0  0  0  0  0  0  0  0
   44.6376    0.8152    7.6761 O   0  0  0  0  0  0  0  0  0  0  0  0
   45.3845    1.1293    6.6145 N   0  0  0  0  0  0  0  0  0  0  0  0
   45.0448    8.8810    9.7879 N   0  0  0  0  0  0  0  0  0  0  0  0
   43.7946    6.3970    8.9274 N   0  0  0  0  0  0  0  0  0  0  0  0
   50.3736    7.9615    6.9093 C   0  0  0  0  0  0  0  0  0  0  0  0
   44.1430    1.9317    8.2789 C   0  0  0  0  0  0  0  0  0  0  0  0
   43.5855    8.6896    9.7218 C   0  0  0  0  0  0  0  0  0  0  0  0
   45.8253    4.6809    5.6859 C   0  0  0  0  0  0  0  0  0  0  0  0
   49.1597    9.8585    9.9521 C   0  0  0  0  0  0  0  0  0  0  0  0
   42.2958    6.2229   12.0586 C   0  0  0  0  0  0  0  0  0  0  0  0
   41.1509    6.8782   11.3596 C   0  0  0  0  0  0  0  0  0  0  0  0
   46.0127    3.3447    5.5496 C   0  0  0  0  0  0  0  0  0  0  0  0
   50.0093    9.3102    8.9968 C   0  0  0  0  0  0  0  0  0  0  0  0
   47.7872    9.6723    9.8614 C   0  0  0  0  0  0  0  0  0  0  0  0
   45.0347    5.2424    6.7528 C   0  0  0  0  0  0  0  0  0  0  0  0
   48.1161    8.3838    7.8411 C   0  0  0  0  0  0  0  0  0  0  0  0
   43.5562    6.7509   11.3922 C   0  0  0  0  0  0  0  0  0  0  0  0
   41.6004    7.0845    9.9212 C   0  0  0  0  0  0  0  0  0  0  0  0
   45.8194    8.7122    8.6462 C   0  0  0  0  0  0  0  0  0  0  0  0
   43.6624    5.0206    8.7993 C   0  0  0  0  0  0  0  0  0  0  0  0
   45.3871    2.4831    6.5056 C   0  0  0  0  0  0  0  0  0  0  0  0
   49.4877    8.5695    7.9398 C   0  0  0  0  0  0  0  0  0  0  0  0
   47.2757    8.9340    8.8023 C   0  0  0  0  0  0  0  0  0  0  0  0
   44.5880    3.0374    7.5786 C   0  0  0  0  0  0  0  0  0  0  0  0
   44.4373    4.4456    7.6755 C   0  0  0  0  0  0  0  0  0  0  0  0
   43.1411    7.2108    9.9729 C   0  0  0  0  0  0  0  0  0  0  0  0
   45.4778    9.1321   10.6537 H   0  0  0  0  0  0  0  0  0  0  0  0
   44.3738    6.8714    8.2644 H   0  0  0  0  0  0  0  0  0  0  0  0
   49.8170    7.4725    6.2377 H   0  0  0  0  0  0  0  0  0  0  0  0
   50.8939    8.6815    6.4502 H   0  0  0  0  0  0  0  0  0  0  0  0
   51.0051    7.3220    7.3479 H   0  0  0  0  0  0  0  0  0  0  0  0
   43.5578    1.9488    9.0896 H   0  0  0  0  0  0  0  0  0  0  0  0
   43.2704    8.9655    8.8137 H   0  0  0  0  0  0  0  0  0  0  0  0
   43.1578    9.2710   10.4139 H   0  0  0  0  0  0  0  0  0  0  0  0
   46.2501    5.2981    5.0236 H   0  0  0  0  0  0  0  0  0  0  0  0
   49.5400   10.3901   10.7089 H   0  0  0  0  0  0  0  0  0  0  0  0
   42.2406    5.2295   11.9585 H   0  0  0  0  0  0  0  0  0  0  0  0
   42.2912    6.4608   13.0299 H   0  0  0  0  0  0  0  0  0  0  0  0
   40.9400    7.7572   11.7871 H   0  0  0  0  0  0  0  0  0  0  0  0
   40.3427    6.2901   11.3901 H   0  0  0  0  0  0  0  0  0  0  0  0
   46.5693    2.9741    4.8061 H   0  0  0  0  0  0  0  0  0  0  0  0
   50.9971    9.4484    9.0695 H   0  0  0  0  0  0  0  0  0  0  0  0
   47.1756   10.0641   10.5488 H   0  0  0  0  0  0  0  0  0  0  0  0
   44.9247    6.2344    6.8142 H   0  0  0  0  0  0  0  0  0  0  0  0
   47.7338    7.8567    7.0821 H   0  0  0  0  0  0  0  0  0  0  0  0
   44.2451    6.0284   11.3339 H   0  0  0  0  0  0  0  0  0  0  0  0
   43.9249    7.5219   11.9116 H   0  0  0  0  0  0  0  0  0  0  0  0
   41.1953    7.9184    9.5463 H   0  0  0  0  0  0  0  0  0  0  0  0
   41.3341    6.3023    9.3579 H   0  0  0  0  0  0  0  0  0  0  0  0
  1 21  2  0  0  0  0
  2 22  2  0  0  0  0
  3  4  1  0  0  0  0
  3  8  1  0  0  0  0
  4 23  2  0  0  0  0
  5  9  1  0  0  0  0
  5 21  1  0  0  0  0
  6 22  1  0  0  0  0
  6 28  1  0  0  0  0
  7 24  1  0  0  0  0
  8 26  2  0  0  0  0
  9 28  1  0  0  0  0
 10 14  2  0  0  0  0
 10 17  1  0  0  0  0
 11 15  2  0  0  0  0
 11 16  1  0  0  0  0
 12 13  1  0  0  0  0
 12 19  1  0  0  0  0
 13 20  1  0  0  0  0
 14 23  1  0  0  0  0
 15 24  1  0  0  0  0
 16 25  2  0  0  0  0
 17 27  2  0  0  0  0
 18 24  2  0  0  0  0
 18 25  1  0  0  0  0
 19 28  1  0  0  0  0
 20 28  1  0  0  0  0
 21 25  1  0  0  0  0
 22 27  1  0  0  0  0
 23 26  1  0  0  0  0
 26 27  1  0  0  0  0
  5 29  1  0  0  0  0
  6 30  1  0  0  0  0
  7 31  1  0  0  0  0
  7 32  1  0  0  0  0
  7 33  1  0  0  0  0
  8 34  1  0  0  0  0
  9 35  1  0  0  0  0
  9 36  1  0  0  0  0
 10 37  1  0  0  0  0
 11 38  1  0  0  0  0
 12 39  1  0  0  0  0
 12 40  1  0  0  0  0
 13 41  1  0  0  0  0
 13 42  1  0  0  0  0
 14 43  1  0  0  0  0
 15 44  1  0  0  0  0
 16 45  1  0  0  0  0
 17 46  1  0  0  0  0
 18 47  1  0  0  0  0
 19 48  1  0  0  0  0
 19 49  1  0  0  0  0
 20 50  1  0  0  0  0
 20 51  1  0  0  0  0
M  END
> <pdb_id>
4YQ3

> <uniprot_id>
P43912

> <usmiles>
O=C(NCC1(NC(=O)C=2C=3C(=NOC3)C=CC2)CCCC1)c4cc(ccc4)C

$$$$
4G3_A_301
          07192415533D 1   1.00000     0.00000     0
            
 31 32  0  0  0  0            999 V2000
   45.8451    1.3285    6.5080 O   0  0  0  0  0  0  0  0  0  0  0  0
   45.0057    8.6276   12.2704 O   0  0  0  0  0  0  0  0  0  0  0  0
   46.9487    3.1825    5.7693 N   0  0  0  0  0  0  0  0  0  0  0  0
   42.3745    6.0752    8.8463 N   0  0  0  0  0  0  0  0  0  0  0  0
   43.8693    5.5932    7.1823 N   0  0  0  0  0  0  0  0  0  0  0  0
   44.0392    5.2103   13.0718 C   0  0  0  0  0  0  0  0  0  0  0  0
   41.6846    5.8395   10.1248 C   0  0  0  0  0  0  0  0  0  0  0  0
   44.7309    4.7487    6.6231 C   0  0  0  0  0  0  0  0  0  0  0  0
   44.7288    6.4128   13.1554 C   0  0  0  0  0  0  0  0  0  0  0  0
   43.0309    5.0243   12.1155 C   0  0  0  0  0  0  0  0  0  0  0  0
   43.3292    3.8363    8.8472 C   0  0  0  0  0  0  0  0  0  0  0  0
   44.2229    2.9930    8.2038 C   0  0  0  0  0  0  0  0  0  0  0  0
   43.3458    7.2805   11.3070 C   0  0  0  0  0  0  0  0  0  0  0  0
   45.9100    2.5619    6.4470 C   0  0  0  0  0  0  0  0  0  0  0  0
   44.3750    7.4348   12.2773 C   0  0  0  0  0  0  0  0  0  0  0  0
   43.1738    5.1336    8.2989 C   0  0  0  0  0  0  0  0  0  0  0  0
   42.7001    6.0580   11.2305 C   0  0  0  0  0  0  0  0  0  0  0  0
   44.9376    3.4486    7.0911 C   0  0  0  0  0  0  0  0  0  0  0  0
   44.7244    9.3382   11.6255 H   0  0  0  0  0  0  0  0  0  0  0  0
   46.9917    4.1806    5.7260 H   0  0  0  0  0  0  0  0  0  0  0  0
   47.6547    2.6318    5.3240 H   0  0  0  0  0  0  0  0  0  0  0  0
   42.2494    6.9479    8.3743 H   0  0  0  0  0  0  0  0  0  0  0  0
   44.2648    4.4673   13.7019 H   0  0  0  0  0  0  0  0  0  0  0  0
   41.3374    4.9023   10.1589 H   0  0  0  0  0  0  0  0  0  0  0  0
   40.9239    6.4806   10.2268 H   0  0  0  0  0  0  0  0  0  0  0  0
   45.2555    5.0588    5.8303 H   0  0  0  0  0  0  0  0  0  0  0  0
   45.4586    6.5413   13.8268 H   0  0  0  0  0  0  0  0  0  0  0  0
   42.5464    4.1509   12.0652 H   0  0  0  0  0  0  0  0  0  0  0  0
   42.8204    3.5436    9.6568 H   0  0  0  0  0  0  0  0  0  0  0  0
   44.3563    2.0591    8.5355 H   0  0  0  0  0  0  0  0  0  0  0  0
   43.0960    8.0331   10.6979 H   0  0  0  0  0  0  0  0  0  0  0  0
  1 14  2  0  0  0  0
  2 15  1  0  0  0  0
  3 14  1  0  0  0  0
  4  7  1  0  0  0  0
  4 16  1  0  0  0  0
  5  8  1  0  0  0  0
  5 16  2  0  0  0  0
  6  9  1  0  0  0  0
  6 10  2  0  0  0  0
  7 17  1  0  0  0  0
  8 18  2  0  0  0  0
  9 15  2  0  0  0  0
 10 17  1  0  0  0  0
 11 12  2  0  0  0  0
 11 16  1  0  0  0  0
 12 18  1  0  0  0  0
 13 15  1  0  0  0  0
 13 17  2  0  0  0  0
 14 18  1  0  0  0  0
  2 19  1  0  0  0  0
  3 20  1  0  0  0  0
  3 21  1  0  0  0  0
  4 22  1  0  0  0  0
  6 23  1  0  0  0  0
  7 24  1  0  0  0  0
  7 25  1  0  0  0  0
  8 26  1  0  0  0  0
  9 27  1  0  0  0  0
 10 28  1  0  0  0  0
 11 29  1  0  0  0  0
 12 30  1  0  0  0  0
 13 31  1  0  0  0  0
M  END
> <pdb_id>
4YQ4

> <uniprot_id>
P43912

> <usmiles>
O=C(N)c1cnc(NCc2cc(O)ccc2)cc1

$$$$
4GM_A_301
          07192415533D 1   1.00000     0.00000     0
            
 31 32  0  0  0  0            999 V2000
   45.8477    1.3361    6.4682 O   0  0  0  0  0  0  0  0  0  0  0  0
   42.3352    4.1771   12.4199 O   0  0  0  0  0  0  0  0  0  0  0  0
   46.9937    3.1458    5.6972 N   0  0  0  0  0  0  0  0  0  0  0  0
   43.9287    5.6364    7.2609 N   0  0  0  0  0  0  0  0  0  0  0  0
   42.3336    6.0793    8.9239 N   0  0  0  0  0  0  0  0  0  0  0  0
   44.8053    6.8091   12.9301 C   0  0  0  0  0  0  0  0  0  0  0  0
   44.4399    7.6718   11.9009 C   0  0  0  0  0  0  0  0  0  0  0  0
   44.8203    4.7921    6.6986 C   0  0  0  0  0  0  0  0  0  0  0  0
   41.6516    5.7790   10.2088 C   0  0  0  0  0  0  0  0  0  0  0  0
   44.1239    5.6185   13.1267 C   0  0  0  0  0  0  0  0  0  0  0  0
   43.3906    7.3473   11.0499 C   0  0  0  0  0  0  0  0  0  0  0  0
   43.3415    3.8207    8.8016 C   0  0  0  0  0  0  0  0  0  0  0  0
   44.2665    2.9901    8.1791 C   0  0  0  0  0  0  0  0  0  0  0  0
   45.9614    2.5686    6.4310 C   0  0  0  0  0  0  0  0  0  0  0  0
   43.0669    5.3021   12.2738 C   0  0  0  0  0  0  0  0  0  0  0  0
   43.1725    5.1461    8.3266 C   0  0  0  0  0  0  0  0  0  0  0  0
   45.0227    3.4674    7.1087 C   0  0  0  0  0  0  0  0  0  0  0  0
   42.6981    6.1543   11.2165 C   0  0  0  0  0  0  0  0  0  0  0  0
   41.5842    3.9835   11.7886 H   0  0  0  0  0  0  0  0  0  0  0  0
   47.0886    4.1407    5.6648 H   0  0  0  0  0  0  0  0  0  0  0  0
   47.6406    2.5655    5.2023 H   0  0  0  0  0  0  0  0  0  0  0  0
   42.1871    6.9647    8.4828 H   0  0  0  0  0  0  0  0  0  0  0  0
   45.5659    7.0504   13.5327 H   0  0  0  0  0  0  0  0  0  0  0  0
   44.9357    8.5307   11.7730 H   0  0  0  0  0  0  0  0  0  0  0  0
   45.3729    5.1351    5.9391 H   0  0  0  0  0  0  0  0  0  0  0  0
   41.4144    4.8098   10.2758 H   0  0  0  0  0  0  0  0  0  0  0  0
   40.8262    6.3326   10.3195 H   0  0  0  0  0  0  0  0  0  0  0  0
   44.3853    4.9980   13.8661 H   0  0  0  0  0  0  0  0  0  0  0  0
   43.1329    7.9746   10.3149 H   0  0  0  0  0  0  0  0  0  0  0  0
   42.8019    3.4875    9.5748 H   0  0  0  0  0  0  0  0  0  0  0  0
   44.3897    2.0507    8.4989 H   0  0  0  0  0  0  0  0  0  0  0  0
  1 14  2  0  0  0  0
  2 15  1  0  0  0  0
  3 14  1  0  0  0  0
  4  8  1  0  0  0  0
  4 16  2  0  0  0  0
  5  9  1  0  0  0  0
  5 16  1  0  0  0  0
  6  7  2  0  0  0  0
  6 10  1  0  0  0  0
  7 11  1  0  0  0  0
  8 17  2  0  0  0  0
  9 18  1  0  0  0  0
 10 15  2  0  0  0  0
 11 18  2  0  0  0  0
 12 13  2  0  0  0  0
 12 16  1  0  0  0  0
 13 17  1  0  0  0  0
 14 17  1  0  0  0  0
 15 18  1  0  0  0  0
  2 19  1  0  0  0  0
  3 20  1  0  0  0  0
  3 21  1  0  0  0  0
  5 22  1  0  0  0  0
  6 23  1  0  0  0  0
  7 24  1  0  0  0  0
  8 25  1  0  0  0  0
  9 26  1  0  0  0  0
  9 27  1  0  0  0  0
 10 28  1  0  0  0  0
 11 29  1  0  0  0  0
 12 30  1  0  0  0  0
 13 31  1  0  0  0  0
M  END
> <pdb_id>
4YQB

> <uniprot_id>
P43912

> <usmiles>
O=C(N)c1cnc(NCc2c(O)cccc2)cc1

$$$$
4GO_A_301
          07192415533D 1   1.00000     0.00000     0
            
 30 31  0  0  0  0            999 V2000
   45.9561    1.3028    6.4403 O   0  0  0  0  0  0  0  0  0  0  0  0
   46.9535    3.1650    5.5939 N   0  0  0  0  0  0  0  0  0  0  0  0
   44.2015    5.6459    7.4863 N   0  0  0  0  0  0  0  0  0  0  0  0
   42.7606    6.0297    9.2498 N   0  0  0  0  0  0  0  0  0  0  0  0
   43.2413    6.3445   12.3860 C   0  0  0  0  0  0  0  0  0  0  0  0
   42.3687    7.5231   11.9856 C   0  0  0  0  0  0  0  0  0  0  0  0
   44.9833    4.7761    6.8422 C   0  0  0  0  0  0  0  0  0  0  0  0
   42.7446    5.1378   11.6136 C   0  0  0  0  0  0  0  0  0  0  0  0
   41.3512    7.0149   10.9714 C   0  0  0  0  0  0  0  0  0  0  0  0
   43.4511    3.6620    8.8452 C   0  0  0  0  0  0  0  0  0  0  0  0
   44.2953    2.8332    8.1072 C   0  0  0  0  0  0  0  0  0  0  0  0
   46.0120    2.5417    6.3945 C   0  0  0  0  0  0  0  0  0  0  0  0
   43.4256    5.0814    8.5352 C   0  0  0  0  0  0  0  0  0  0  0  0
   41.9412    5.7257   10.4520 C   0  0  0  0  0  0  0  0  0  0  0  0
   45.0878    3.4106    7.1024 C   0  0  0  0  0  0  0  0  0  0  0  0
   46.9972    4.1634    5.5581 H   0  0  0  0  0  0  0  0  0  0  0  0
   47.5900    2.6169    5.0513 H   0  0  0  0  0  0  0  0  0  0  0  0
   42.8268    6.9814    8.9501 H   0  0  0  0  0  0  0  0  0  0  0  0
   43.1631    6.1783   13.3690 H   0  0  0  0  0  0  0  0  0  0  0  0
   44.1962    6.5305   12.1543 H   0  0  0  0  0  0  0  0  0  0  0  0
   42.9313    8.2406   11.5749 H   0  0  0  0  0  0  0  0  0  0  0  0
   41.8976    7.8876   12.7888 H   0  0  0  0  0  0  0  0  0  0  0  0
   45.5485    5.1393    6.1016 H   0  0  0  0  0  0  0  0  0  0  0  0
   42.1627    4.5646   12.1906 H   0  0  0  0  0  0  0  0  0  0  0  0
   43.5130    4.5962   11.2728 H   0  0  0  0  0  0  0  0  0  0  0  0
   41.2341    7.6739   10.2285 H   0  0  0  0  0  0  0  0  0  0  0  0
   40.4686    6.8473   11.4106 H   0  0  0  0  0  0  0  0  0  0  0  0
   42.8756    3.2876    9.5723 H   0  0  0  0  0  0  0  0  0  0  0  0
   44.3353    1.8507    8.2892 H   0  0  0  0  0  0  0  0  0  0  0  0
   41.2041    5.0971   10.2037 H   0  0  0  0  0  0  0  0  0  0  0  0
  1 12  2  0  0  0  0
  2 12  1  0  0  0  0
  3  7  1  0  0  0  0
  3 13  2  0  0  0  0
  4 13  1  0  0  0  0
  4 14  1  0  0  0  0
  5  6  1  0  0  0  0
  5  8  1  0  0  0  0
  6  9  1  0  0  0  0
  7 15  2  0  0  0  0
  8 14  1  0  0  0  0
  9 14  1  0  0  0  0
 10 11  2  0  0  0  0
 10 13  1  0  0  0  0
 11 15  1  0  0  0  0
 12 15  1  0  0  0  0
  2 16  1  0  0  0  0
  2 17  1  0  0  0  0
  4 18  1  0  0  0  0
  5 19  1  0  0  0  0
  5 20  1  0  0  0  0
  6 21  1  0  0  0  0
  6 22  1  0  0  0  0
  7 23  1  0  0  0  0
  8 24  1  0  0  0  0
  8 25  1  0  0  0  0
  9 26  1  0  0  0  0
  9 27  1  0  0  0  0
 10 28  1  0  0  0  0
 11 29  1  0  0  0  0
 14 30  1  0  0  0  0
M  END
> <pdb_id>
4YQ9

> <uniprot_id>
P43912

> <usmiles>
O=C(N)c1cnc(NC2CCCC2)cc1

$$$$
4GS_A_301
          07192415533D 1   1.00000     0.00000     0
            
 28 29  0  0  0  0            999 V2000
   44.7830    5.8495    6.8949 O   0  0  0  0  0  0  0  0  0  0  0  0
   44.9565    1.4605    7.7255 O   0  0  0  0  0  0  0  0  0  0  0  0
   46.6193    3.9009    5.8491 N   0  0  0  0  0  0  0  0  0  0  0  0
   45.9592    1.7764    6.7812 N   0  0  0  0  0  0  0  0  0  0  0  0
   44.2682    2.6075    8.1738 N   0  0  0  0  0  0  0  0  0  0  0  0
   42.5834    8.5703   11.1258 N   0  0  0  0  0  0  0  0  0  0  0  0
   43.6542    5.2315    8.7891 N   0  0  0  0  0  0  0  0  0  0  0  0
   43.7801    8.6524   10.3035 C   0  0  0  0  0  0  0  0  0  0  0  0
   41.5544    7.9806   10.2816 C   0  0  0  0  0  0  0  0  0  0  0  0
   44.2358    7.2564    9.9442 C   0  0  0  0  0  0  0  0  0  0  0  0
   41.9684    6.5819    9.8520 C   0  0  0  0  0  0  0  0  0  0  0  0
   44.4264    4.9753    7.6669 C   0  0  0  0  0  0  0  0  0  0  0  0
   45.8763    3.1014    6.6513 C   0  0  0  0  0  0  0  0  0  0  0  0
   43.2312    6.6072    9.0190 C   0  0  0  0  0  0  0  0  0  0  0  0
   44.8446    3.6082    7.4994 C   0  0  0  0  0  0  0  0  0  0  0  0
   46.4602    4.8881    5.8413 H   0  0  0  0  0  0  0  0  0  0  0  0
   47.3270    3.5039    5.2647 H   0  0  0  0  0  0  0  0  0  0  0  0
   42.3052    9.4826   11.4262 H   0  0  0  0  0  0  0  0  0  0  0  0
   43.3965    4.4984    9.4186 H   0  0  0  0  0  0  0  0  0  0  0  0
   44.5034    9.1195   10.8121 H   0  0  0  0  0  0  0  0  0  0  0  0
   43.5770    9.1630    9.4680 H   0  0  0  0  0  0  0  0  0  0  0  0
   41.4252    8.5510    9.4705 H   0  0  0  0  0  0  0  0  0  0  0  0
   40.6966    7.9291   10.7930 H   0  0  0  0  0  0  0  0  0  0  0  0
   44.3196    6.7104   10.7778 H   0  0  0  0  0  0  0  0  0  0  0  0
   45.1239    7.3052    9.4871 H   0  0  0  0  0  0  0  0  0  0  0  0
   41.2310    6.1767    9.3116 H   0  0  0  0  0  0  0  0  0  0  0  0
   42.1285    6.0258   10.6675 H   0  0  0  0  0  0  0  0  0  0  0  0
   43.1144    7.1168    8.1665 H   0  0  0  0  0  0  0  0  0  0  0  0
  1 12  2  0  0  0  0
  2  4  1  0  0  0  0
  2  5  1  0  0  0  0
  3 13  1  0  0  0  0
  4 13  2  0  0  0  0
  5 15  2  0  0  0  0
  6  8  1  0  0  0  0
  6  9  1  0  0  0  0
  7 12  1  0  0  0  0
  7 14  1  0  0  0  0
  8 10  1  0  0  0  0
  9 11  1  0  0  0  0
 10 14  1  0  0  0  0
 11 14  1  0  0  0  0
 12 15  1  0  0  0  0
 13 15  1  0  0  0  0
  3 16  1  0  0  0  0
  3 17  1  0  0  0  0
  6 18  1  0  0  0  0
  7 19  1  0  0  0  0
  8 20  1  0  0  0  0
  8 21  1  0  0  0  0
  9 22  1  0  0  0  0
  9 23  1  0  0  0  0
 10 24  1  0  0  0  0
 10 25  1  0  0  0  0
 11 26  1  0  0  0  0
 11 27  1  0  0  0  0
 14 28  1  0  0  0  0
M  END
> <pdb_id>
4YQK

> <uniprot_id>
P43912

> <usmiles>
O=C(NC1CCNCC1)C2=NON=C2N

$$$$
4GT_A_301
          07192415533D 1   1.00000     0.00000     0
            
 31 32  0  0  0  0            999 V2000
   45.7953    1.5284    6.4703 O   0  0  0  0  0  0  0  0  0  0  0  0
   46.8642    3.3060    5.3932 N   0  0  0  0  0  0  0  0  0  0  0  0
   43.9675    1.8145    8.4665 N   0  0  0  0  0  0  0  0  0  0  0  0
   44.2481    5.9501    7.4521 N   0  0  0  0  0  0  0  0  0  0  0  0
   43.3477    4.1204    8.7574 N   0  0  0  0  0  0  0  0  0  0  0  0
   42.6615    6.3581    9.1957 N   0  0  0  0  0  0  0  0  0  0  0  0
   42.8887    6.5992   12.4802 C   0  0  0  0  0  0  0  0  0  0  0  0
   41.6624    7.4470   12.2208 C   0  0  0  0  0  0  0  0  0  0  0  0
   45.0141    5.0738    6.7715 C   0  0  0  0  0  0  0  0  0  0  0  0
   42.8764    5.4986   11.4459 C   0  0  0  0  0  0  0  0  0  0  0  0
   41.2210    7.1582   10.8278 C   0  0  0  0  0  0  0  0  0  0  0  0
   45.8709    2.7525    6.2902 C   0  0  0  0  0  0  0  0  0  0  0  0
   43.4602    5.4371    8.4645 C   0  0  0  0  0  0  0  0  0  0  0  0
   44.0710    3.2147    8.1128 C   0  0  0  0  0  0  0  0  0  0  0  0
   41.9362    5.9474   10.3749 C   0  0  0  0  0  0  0  0  0  0  0  0
   44.9549    3.7086    7.0676 C   0  0  0  0  0  0  0  0  0  0  0  0
   46.9170    4.2949    5.2546 H   0  0  0  0  0  0  0  0  0  0  0  0
   47.4972    2.6992    4.9124 H   0  0  0  0  0  0  0  0  0  0  0  0
   44.5142    1.1339    7.9787 H   0  0  0  0  0  0  0  0  0  0  0  0
   43.3494    1.5281    9.1985 H   0  0  0  0  0  0  0  0  0  0  0  0
   42.6009    7.3076    8.8879 H   0  0  0  0  0  0  0  0  0  0  0  0
   42.8505    6.2091   13.4002 H   0  0  0  0  0  0  0  0  0  0  0  0
   43.7168    7.1519   12.3866 H   0  0  0  0  0  0  0  0  0  0  0  0
   41.8887    8.4165   12.3154 H   0  0  0  0  0  0  0  0  0  0  0  0
   40.9374    7.2094   12.8672 H   0  0  0  0  0  0  0  0  0  0  0  0
   45.6268    5.4015    6.0523 H   0  0  0  0  0  0  0  0  0  0  0  0
   42.5560    4.6433   11.8530 H   0  0  0  0  0  0  0  0  0  0  0  0
   43.7933    5.3658   11.0696 H   0  0  0  0  0  0  0  0  0  0  0  0
   41.4452    7.9295   10.2322 H   0  0  0  0  0  0  0  0  0  0  0  0
   40.2340    6.9983   10.8091 H   0  0  0  0  0  0  0  0  0  0  0  0
   41.2871    5.2203   10.1514 H   0  0  0  0  0  0  0  0  0  0  0  0
  1 12  2  0  0  0  0
  2 12  1  0  0  0  0
  3 14  1  0  0  0  0
  4  9  1  0  0  0  0
  4 13  2  0  0  0  0
  5 13  1  0  0  0  0
  5 14  2  0  0  0  0
  6 13  1  0  0  0  0
  6 15  1  0  0  0  0
  7  8  1  0  0  0  0
  7 10  1  0  0  0  0
  8 11  1  0  0  0  0
  9 16  2  0  0  0  0
 10 15  1  0  0  0  0
 11 15  1  0  0  0  0
 12 16  1  0  0  0  0
 14 16  1  0  0  0  0
  2 17  1  0  0  0  0
  2 18  1  0  0  0  0
  3 19  1  0  0  0  0
  3 20  1  0  0  0  0
  6 21  1  0  0  0  0
  7 22  1  0  0  0  0
  7 23  1  0  0  0  0
  8 24  1  0  0  0  0
  8 25  1  0  0  0  0
  9 26  1  0  0  0  0
 10 27  1  0  0  0  0
 10 28  1  0  0  0  0
 11 29  1  0  0  0  0
 11 30  1  0  0  0  0
 15 31  1  0  0  0  0
M  END
> <pdb_id>
4YQJ

> <uniprot_id>
P43912

> <usmiles>
O=C(N)c1c(nc(nc1)NC2CCCC2)N

$$$$
4GX_A_301
          07192415533D 1   1.00000     0.00000     0
            
 37 39  0  0  0  0            999 V2000
   44.7650    5.4578    6.7970 O   0  0  0  0  0  0  0  0  0  0  0  0
   45.0200    1.0631    7.4400 O   0  0  0  0  0  0  0  0  0  0  0  0
   46.7669    3.6708    5.8602 N   0  0  0  0  0  0  0  0  0  0  0  0
   46.0342    1.4660    6.6256 N   0  0  0  0  0  0  0  0  0  0  0  0
   44.2871    2.0765    7.8881 N   0  0  0  0  0  0  0  0  0  0  0  0
   44.0043    5.5689   13.6815 N   0  0  0  0  0  0  0  0  0  0  0  0
   42.5795    5.9237   11.0553 N   0  0  0  0  0  0  0  0  0  0  0  0
   43.3186    4.9191    8.4986 N   0  0  0  0  0  0  0  0  0  0  0  0
   45.2324    5.7315   14.2428 C   0  0  0  0  0  0  0  0  0  0  0  0
   43.0853    4.5614   10.7996 C   0  0  0  0  0  0  0  0  0  0  0  0
   42.9211    6.8576    9.9685 C   0  0  0  0  0  0  0  0  0  0  0  0
   42.6543    4.0529    9.4462 C   0  0  0  0  0  0  0  0  0  0  0  0
   42.7290    6.2250    8.6082 C   0  0  0  0  0  0  0  0  0  0  0  0
   45.9408    6.9482   14.1855 C   0  0  0  0  0  0  0  0  0  0  0  0
   45.3435    8.0255   13.5297 C   0  0  0  0  0  0  0  0  0  0  0  0
   42.1139    6.3530   12.3310 C   0  0  0  0  0  0  0  0  0  0  0  0
   44.0802    7.8807   12.9517 C   0  0  0  0  0  0  0  0  0  0  0  0
   44.3034    4.5974    7.5401 C   0  0  0  0  0  0  0  0  0  0  0  0
   45.9531    2.8212    6.5505 C   0  0  0  0  0  0  0  0  0  0  0  0
   43.4462    6.6335   13.0389 C   0  0  0  0  0  0  0  0  0  0  0  0
   44.7908    3.2078    7.3858 C   0  0  0  0  0  0  0  0  0  0  0  0
   46.5988    4.6562    5.8868 H   0  0  0  0  0  0  0  0  0  0  0  0
   47.5316    3.3082    5.3275 H   0  0  0  0  0  0  0  0  0  0  0  0
   45.6499    4.9555   14.7157 H   0  0  0  0  0  0  0  0  0  0  0  0
   42.7321    3.9465   11.5047 H   0  0  0  0  0  0  0  0  0  0  0  0
   44.0845    4.5738   10.8382 H   0  0  0  0  0  0  0  0  0  0  0  0
   43.8775    7.1328   10.0660 H   0  0  0  0  0  0  0  0  0  0  0  0
   42.3335    7.6638   10.0371 H   0  0  0  0  0  0  0  0  0  0  0  0
   42.9423    3.1038    9.3181 H   0  0  0  0  0  0  0  0  0  0  0  0
   41.6614    4.1164    9.3457 H   0  0  0  0  0  0  0  0  0  0  0  0
   41.7480    6.1459    8.4309 H   0  0  0  0  0  0  0  0  0  0  0  0
   43.1452    6.8196    7.9203 H   0  0  0  0  0  0  0  0  0  0  0  0
   46.8453    7.0372   14.6027 H   0  0  0  0  0  0  0  0  0  0  0  0
   45.8207    8.9026   13.4735 H   0  0  0  0  0  0  0  0  0  0  0  0
   41.5942    5.6352   12.7944 H   0  0  0  0  0  0  0  0  0  0  0  0
   41.5531    7.1779   12.2604 H   0  0  0  0  0  0  0  0  0  0  0  0
   43.6387    8.6481   12.4868 H   0  0  0  0  0  0  0  0  0  0  0  0
  1 18  2  0  0  0  0
  2  4  1  0  0  0  0
  2  5  1  0  0  0  0
  3 19  1  0  0  0  0
  4 19  2  0  0  0  0
  5 21  2  0  0  0  0
  6  9  2  0  0  0  0
  6 20  1  0  0  0  0
  7 10  1  0  0  0  0
  7 11  1  0  0  0  0
  7 16  1  0  0  0  0
  8 12  1  0  0  0  0
  8 13  1  0  0  0  0
  8 18  1  0  0  0  0
  9 14  1  0  0  0  0
 10 12  1  0  0  0  0
 11 13  1  0  0  0  0
 14 15  2  0  0  0  0
 15 17  1  0  0  0  0
 16 20  1  0  0  0  0
 17 20  2  0  0  0  0
 18 21  1  0  0  0  0
 19 21  1  0  0  0  0
  3 22  1  0  0  0  0
  3 23  1  0  0  0  0
  9 24  1  0  0  0  0
 10 25  1  0  0  0  0
 10 26  1  0  0  0  0
 11 27  1  0  0  0  0
 11 28  1  0  0  0  0
 12 29  1  0  0  0  0
 12 30  1  0  0  0  0
 13 31  1  0  0  0  0
 13 32  1  0  0  0  0
 14 33  1  0  0  0  0
 15 34  1  0  0  0  0
 16 35  1  0  0  0  0
 16 36  1  0  0  0  0
 17 37  1  0  0  0  0
M  END
> <pdb_id>
4YQI

> <uniprot_id>
P43912

> <usmiles>
O=C(N1CCN(Cc2ncccc2)CC1)C3=NON=C3N

$$$$
4H1_A_301
          07192415533D 1   1.00000     0.00000     0
            
 41 42  0  0  0  0            999 V2000
   46.0137    1.2502    6.5370 O   0  0  0  0  0  0  0  0  0  0  0  0
   45.9524   10.3365   11.8558 N   0  0  0  0  0  0  0  0  0  0  0  0
   47.0215    3.0675    5.5924 N   0  0  0  0  0  0  0  0  0  0  0  0
   42.1979    6.0027    8.6210 N   0  0  0  0  0  0  0  0  0  0  0  0
   43.8986    5.4593    6.9949 N   0  0  0  0  0  0  0  0  0  0  0  0
   45.0426    9.6341   10.9833 C   0  0  0  0  0  0  0  0  0  0  0  0
   43.8798    6.7178   13.2176 C   0  0  0  0  0  0  0  0  0  0  0  0
   41.8860    5.9739   10.0458 C   0  0  0  0  0  0  0  0  0  0  0  0
   44.7943    4.6046    6.5083 C   0  0  0  0  0  0  0  0  0  0  0  0
   44.1993    8.1367   12.8549 C   0  0  0  0  0  0  0  0  0  0  0  0
   42.7292    6.1736   12.4036 C   0  0  0  0  0  0  0  0  0  0  0  0
   43.2915    3.7927    8.6400 C   0  0  0  0  0  0  0  0  0  0  0  0
   44.2109    2.9142    8.1164 C   0  0  0  0  0  0  0  0  0  0  0  0
   43.4344    7.7785   10.6005 C   0  0  0  0  0  0  0  0  0  0  0  0
   46.0104    2.4638    6.3839 C   0  0  0  0  0  0  0  0  0  0  0  0
   43.1446    5.0664    8.0844 C   0  0  0  0  0  0  0  0  0  0  0  0
   44.6220    8.2275   11.3980 C   0  0  1  0  0  0  0  0  0  0  0  0
   43.0630    6.3610   10.9348 C   0  0  2  0  0  0  0  0  0  0  0  0
   44.9796    3.3294    7.0125 C   0  0  0  0  0  0  0  0  0  0  0  0
   46.1485   11.2402   11.4751 H   0  0  0  0  0  0  0  0  0  0  0  0
   45.5360   10.4386   12.7592 H   0  0  0  0  0  0  0  0  0  0  0  0
   47.0283    4.0587    5.4607 H   0  0  0  0  0  0  0  0  0  0  0  0
   47.7274    2.5016    5.1663 H   0  0  0  0  0  0  0  0  0  0  0  0
   41.7554    6.6702    8.0222 H   0  0  0  0  0  0  0  0  0  0  0  0
   45.4794    9.5649   10.0865 H   0  0  0  0  0  0  0  0  0  0  0  0
   44.2121   10.1860   10.9080 H   0  0  0  0  0  0  0  0  0  0  0  0
   43.6370    6.6788   14.1869 H   0  0  0  0  0  0  0  0  0  0  0  0
   44.6880    6.1523   13.0533 H   0  0  0  0  0  0  0  0  0  0  0  0
   41.5978    5.0474   10.2879 H   0  0  0  0  0  0  0  0  0  0  0  0
   41.1357    6.6121   10.2184 H   0  0  0  0  0  0  0  0  0  0  0  0
   45.3622    4.8984    5.7395 H   0  0  0  0  0  0  0  0  0  0  0  0
   44.9441    8.4657   13.4354 H   0  0  0  0  0  0  0  0  0  0  0  0
   43.3887    8.7044   12.9990 H   0  0  0  0  0  0  0  0  0  0  0  0
   41.8906    6.6704   12.6270 H   0  0  0  0  0  0  0  0  0  0  0  0
   42.6035    5.2015   12.6016 H   0  0  0  0  0  0  0  0  0  0  0  0
   42.7274    3.5197    9.4193 H   0  0  0  0  0  0  0  0  0  0  0  0
   44.3305    2.0028    8.5101 H   0  0  0  0  0  0  0  0  0  0  0  0
   43.6537    7.8377    9.6266 H   0  0  0  0  0  0  0  0  0  0  0  0
   42.6591    8.3762   10.8045 H   0  0  0  0  0  0  0  0  0  0  0  0
   45.3818    7.5975   11.2373 H   0  0  0  0  0  0  0  0  0  0  0  0
   43.8373    5.7699   10.7089 H   0  0  0  0  0  0  0  0  0  0  0  0
  1 15  2  0  0  0  0
  2  6  1  0  0  0  0
  3 15  1  0  0  0  0
  4  8  1  0  0  0  0
  4 16  1  0  0  0  0
  5  9  1  0  0  0  0
  5 16  2  0  0  0  0
  6 17  1  0  0  0  0
  7 10  1  0  0  0  0
  7 11  1  0  0  0  0
  8 18  1  0  0  0  0
  9 19  2  0  0  0  0
 10 17  1  0  0  0  0
 11 18  1  0  0  0  0
 12 13  2  0  0  0  0
 12 16  1  0  0  0  0
 13 19  1  0  0  0  0
 14 17  1  0  0  0  0
 14 18  1  0  0  0  0
 15 19  1  0  0  0  0
  2 20  1  0  0  0  0
  2 21  1  0  0  0  0
  3 22  1  0  0  0  0
  3 23  1  0  0  0  0
  4 24  1  0  0  0  0
  6 25  1  0  0  0  0
  6 26  1  0  0  0  0
  7 27  1  0  0  0  0
  7 28  1  0  0  0  0
  8 29  1  0  0  0  0
  8 30  1  0  0  0  0
  9 31  1  0  0  0  0
 10 32  1  0  0  0  0
 10 33  1  0  0  0  0
 11 34  1  0  0  0  0
 11 35  1  0  0  0  0
 12 36  1  0  0  0  0
 13 37  1  0  0  0  0
 14 38  1  0  0  0  0
 14 39  1  0  0  0  0
 17 40  1  0  0  0  0
 18 41  1  0  0  0  0
M  END
> <pdb_id>
4YQO

> <uniprot_id>
P43912

> <usmiles>
O=C(N)c1cnc(NC[C@H]2C[C@@H](CN)CCC2)cc1

$$$$
4H3_A_301
          07192415533D 1   1.00000     0.00000     0
            
 35 36  0  0  0  0            999 V2000
   43.4371    8.4607   11.6921 O   0  0  0  0  0  0  0  0  0  0  0  0
   45.5440    1.1582    6.6727 O   0  0  0  0  0  0  0  0  0  0  0  0
   42.5492    4.8412   13.3414 O   0  0  0  0  0  0  0  0  0  0  0  0
   46.7289    2.8622    5.6311 N   0  0  0  0  0  0  0  0  0  0  0  0
   44.4126    5.6673    7.3080 N   0  0  0  0  0  0  0  0  0  0  0  0
   42.9157    6.3276    9.0090 N   0  0  0  0  0  0  0  0  0  0  0  0
   42.3193    8.1969   12.5239 C   0  0  0  0  0  0  0  0  0  0  0  0
   45.0825    4.6686    6.7321 C   0  0  0  0  0  0  0  0  0  0  0  0
   43.5351    4.0486    8.8330 C   0  0  0  0  0  0  0  0  0  0  0  0
   44.2303    3.0279    8.2312 C   0  0  0  0  0  0  0  0  0  0  0  0
   43.1823    5.1298   11.0747 C   0  0  0  0  0  0  0  0  0  0  0  0
   41.3565    6.7256   10.7929 C   0  0  0  0  0  0  0  0  0  0  0  0
   45.7813    2.3394    6.4699 C   0  0  0  0  0  0  0  0  0  0  0  0
   42.9545    5.8163   12.3966 C   0  0  1  0  0  0  0  0  0  0  0  0
   43.6486    5.3341    8.3527 C   0  0  0  0  0  0  0  0  0  0  0  0
   42.1921    5.6895   10.0850 C   0  0  1  0  0  0  0  0  0  0  0  0
   41.8292    6.8030   12.2222 C   0  0  1  0  0  0  0  0  0  0  0  0
   45.0144    3.3681    7.1599 C   0  0  0  0  0  0  0  0  0  0  0  0
   43.7792    9.3822   11.8757 H   0  0  0  0  0  0  0  0  0  0  0  0
   42.3931    5.2794   14.2266 H   0  0  0  0  0  0  0  0  0  0  0  0
   46.8306    3.8535    5.5476 H   0  0  0  0  0  0  0  0  0  0  0  0
   47.3193    2.2527    5.1019 H   0  0  0  0  0  0  0  0  0  0  0  0
   42.8959    7.3000    8.7767 H   0  0  0  0  0  0  0  0  0  0  0  0
   41.5937    8.8592   12.3368 H   0  0  0  0  0  0  0  0  0  0  0  0
   42.5892    8.2608   13.4847 H   0  0  0  0  0  0  0  0  0  0  0  0
   45.6651    4.8794    5.9471 H   0  0  0  0  0  0  0  0  0  0  0  0
   42.9472    3.8582    9.6192 H   0  0  0  0  0  0  0  0  0  0  0  0
   44.1673    2.0849    8.5580 H   0  0  0  0  0  0  0  0  0  0  0  0
   43.0426    4.1447   11.1750 H   0  0  0  0  0  0  0  0  0  0  0  0
   44.1146    5.3036   10.7578 H   0  0  0  0  0  0  0  0  0  0  0  0
   40.3927    6.4603   10.7675 H   0  0  0  0  0  0  0  0  0  0  0  0
   41.4693    7.6145   10.3490 H   0  0  0  0  0  0  0  0  0  0  0  0
   43.7864    6.2797   12.7020 H   0  0  0  0  0  0  0  0  0  0  0  0
   41.6097    4.9599    9.7266 H   0  0  0  0  0  0  0  0  0  0  0  0
   41.0775    6.5692   12.8389 H   0  0  0  0  0  0  0  0  0  0  0  0
  1  7  1  0  0  0  0
  2 13  2  0  0  0  0
  3 14  1  0  0  0  0
  4 13  1  0  0  0  0
  5  8  1  0  0  0  0
  5 15  2  0  0  0  0
  6 15  1  0  0  0  0
  6 16  1  0  0  0  0
  7 17  1  0  0  0  0
  8 18  2  0  0  0  0
  9 10  2  0  0  0  0
  9 15  1  0  0  0  0
 10 18  1  0  0  0  0
 11 14  1  0  0  0  0
 11 16  1  0  0  0  0
 12 16  1  0  0  0  0
 12 17  1  0  0  0  0
 13 18  1  0  0  0  0
 14 17  1  0  0  0  0
  1 19  1  0  0  0  0
  3 20  1  0  0  0  0
  4 21  1  0  0  0  0
  4 22  1  0  0  0  0
  6 23  1  0  0  0  0
  7 24  1  0  0  0  0
  7 25  1  0  0  0  0
  8 26  1  0  0  0  0
  9 27  1  0  0  0  0
 10 28  1  0  0  0  0
 11 29  1  0  0  0  0
 11 30  1  0  0  0  0
 12 31  1  0  0  0  0
 12 32  1  0  0  0  0
 14 33  1  0  0  0  0
 16 34  1  0  0  0  0
 17 35  1  0  0  0  0
M  END
> <pdb_id>
4YQN

> <uniprot_id>
P43912

> <usmiles>
O=C(N)c1cnc(N[C@@H]2C[C@@H]([C@@H](O)C2)CO)cc1

$$$$
4H7_A_301
          07192415533D 1   1.00000     0.00000     0
            
 47 49  0  0  0  0            999 V2000
   46.0844    1.4266    6.3858 O   0  0  0  0  0  0  0  0  0  0  0  0
   47.1645    3.2443    5.5549 N   0  0  0  0  0  0  0  0  0  0  0  0
   44.3010    5.8167    7.1470 N   0  0  0  0  0  0  0  0  0  0  0  0
   42.7508    6.3094    8.7647 N   0  0  0  0  0  0  0  0  0  0  0  0
   44.4147   10.6902   10.7097 N   0  0  0  0  0  0  0  0  0  0  0  0
   43.9056    7.9949   11.2491 N   0  0  0  0  0  0  0  0  0  0  0  0
   44.5116   12.0248   10.1138 C   0  0  0  0  0  0  0  0  0  0  0  0
   45.1264    4.9282    6.5790 C   0  0  0  0  0  0  0  0  0  0  0  0
   44.4410    5.0151   13.2659 C   0  0  0  0  0  0  0  0  0  0  0  0
   43.4937    4.1240   12.7688 C   0  0  0  0  0  0  0  0  0  0  0  0
   44.5609    6.2761   12.7144 C   0  0  0  0  0  0  0  0  0  0  0  0
   42.6782    4.4963   11.7138 C   0  0  0  0  0  0  0  0  0  0  0  0
   43.5059    3.9542    8.5830 C   0  0  0  0  0  0  0  0  0  0  0  0
   44.3747    3.0844    7.9557 C   0  0  0  0  0  0  0  0  0  0  0  0
   41.9056    6.0633    9.9425 C   0  0  0  0  0  0  0  0  0  0  0  0
   43.0222   10.3096   10.9078 C   0  0  0  0  0  0  0  0  0  0  0  0
   45.0632    9.6998    9.8633 C   0  0  0  0  0  0  0  0  0  0  0  0
   42.9230    9.0078   11.6749 C   0  0  0  0  0  0  0  0  0  0  0  0
   45.1630    8.3711   10.5709 C   0  0  0  0  0  0  0  0  0  0  0  0
   46.1568    2.6591    6.2926 C   0  0  0  0  0  0  0  0  0  0  0  0
   43.4963    5.3298    8.1667 C   0  0  0  0  0  0  0  0  0  0  0  0
   43.7315    6.6652   11.6533 C   0  0  0  0  0  0  0  0  0  0  0  0
   45.2106    3.5751    6.9399 C   0  0  0  0  0  0  0  0  0  0  0  0
   42.7854    5.7646   11.1291 C   0  0  0  0  0  0  0  0  0  0  0  0
   47.2308    4.2541    5.4774 H   0  0  0  0  0  0  0  0  0  0  0  0
   47.8704    2.7009    5.0683 H   0  0  0  0  0  0  0  0  0  0  0  0
   42.7806    7.2497    8.3830 H   0  0  0  0  0  0  0  0  0  0  0  0
   44.0123   12.7591   10.7445 H   0  0  0  0  0  0  0  0  0  0  0  0
   45.5594   12.3182   10.0693 H   0  0  0  0  0  0  0  0  0  0  0  0
   44.1103   12.1439    9.1090 H   0  0  0  0  0  0  0  0  0  0  0  0
   45.7449    5.3520    5.7890 H   0  0  0  0  0  0  0  0  0  0  0  0
   45.0879    4.7178   14.0898 H   0  0  0  0  0  0  0  0  0  0  0  0
   43.3929    3.1340   13.2103 H   0  0  0  0  0  0  0  0  0  0  0  0
   45.3027    6.9704   13.1076 H   0  0  0  0  0  0  0  0  0  0  0  0
   41.9437    3.7862   11.3367 H   0  0  0  0  0  0  0  0  0  0  0  0
   42.8557    3.5783    9.3721 H   0  0  0  0  0  0  0  0  0  0  0  0
   44.4136    2.0345    8.2425 H   0  0  0  0  0  0  0  0  0  0  0  0
   41.2562    6.9158   10.1386 H   0  0  0  0  0  0  0  0  0  0  0  0
   41.2324    5.2281    9.7552 H   0  0  0  0  0  0  0  0  0  0  0  0
   42.3893   11.0706   11.3639 H   0  0  0  0  0  0  0  0  0  0  0  0
   42.6014   10.1794    9.9116 H   0  0  0  0  0  0  0  0  0  0  0  0
   46.0526   10.0189    9.5372 H   0  0  0  0  0  0  0  0  0  0  0  0
   44.5033    9.6378    8.9313 H   0  0  0  0  0  0  0  0  0  0  0  0
   43.0517    9.2009   12.7386 H   0  0  0  0  0  0  0  0  0  0  0  0
   41.9132    8.6023   11.6194 H   0  0  0  0  0  0  0  0  0  0  0  0
   45.9662    8.3984   11.3067 H   0  0  0  0  0  0  0  0  0  0  0  0
   45.4791    7.5848    9.8876 H   0  0  0  0  0  0  0  0  0  0  0  0
  1 20  2  0  0  0  0
  2 20  1  0  0  0  0
  2 25  1  0  0  0  0
  2 26  1  0  0  0  0
  3  8  1  0  0  0  0
  3 21  2  0  0  0  0
  4 15  1  0  0  0  0
  4 21  1  0  0  0  0
  4 27  1  0  0  0  0
  5  7  1  0  0  0  0
  5 16  1  0  0  0  0
  5 17  1  0  0  0  0
  6 18  1  0  0  0  0
  6 19  1  0  0  0  0
  6 22  1  0  0  0  0
  7 28  1  0  0  0  0
  7 29  1  0  0  0  0
  7 30  1  0  0  0  0
  8 23  2  0  0  0  0
  8 31  1  0  0  0  0
  9 10  2  0  0  0  0
  9 11  1  0  0  0  0
  9 32  1  0  0  0  0
 10 12  1  0  0  0  0
 10 33  1  0  0  0  0
 11 22  2  0  0  0  0
 11 34  1  0  0  0  0
 12 24  2  0  0  0  0
 12 35  1  0  0  0  0
 13 14  2  0  0  0  0
 13 21  1  0  0  0  0
 13 36  1  0  0  0  0
 14 23  1  0  0  0  0
 14 37  1  0  0  0  0
 15 24  1  0  0  0  0
 15 38  1  0  0  0  0
 15 39  1  0  0  0  0
 16 18  1  0  0  0  0
 16 40  1  0  0  0  0
 16 41  1  0  0  0  0
 17 19  1  0  0  0  0
 17 42  1  0  0  0  0
 17 43  1  0  0  0  0
 18 44  1  0  0  0  0
 18 45  1  0  0  0  0
 19 46  1  0  0  0  0
 19 47  1  0  0  0  0
 20 23  1  0  0  0  0
 22 24  1  0  0  0  0
M  END
> <pdb_id>
4YQQ

> <uniprot_id>
P43912

> <usmiles>
O=C(N)c1cnc(NCc2c(N3CCN(CC3)C)cccc2)cc1

$$$$
4H8_A_301
          07192415533D 1   1.00000     0.00000     0
            
 33 33  0  0  0  0            999 V2000
   45.8609    1.5017    6.5951 O   0  0  0  0  0  0  0  0  0  0  0  0
   46.8356    3.3048    5.5591 N   0  0  0  0  0  0  0  0  0  0  0  0
   44.0101    1.9506    8.3829 N   0  0  0  0  0  0  0  0  0  0  0  0
   44.2875    5.9099    7.3027 N   0  0  0  0  0  0  0  0  0  0  0  0
   42.6640    6.4754    8.8837 N   0  0  0  0  0  0  0  0  0  0  0  0
   43.3304    4.1962    8.6270 N   0  0  0  0  0  0  0  0  0  0  0  0
   43.0075    7.9556   11.2817 C   0  0  0  0  0  0  0  0  0  0  0  0
   41.6343    6.2877   12.4763 C   0  0  0  0  0  0  0  0  0  0  0  0
   43.8258    5.6413   11.5842 C   0  0  0  0  0  0  0  0  0  0  0  0
   45.0525    4.9935    6.7086 C   0  0  0  0  0  0  0  0  0  0  0  0
   41.9281    6.0526   10.0635 C   0  0  0  0  0  0  0  0  0  0  0  0
   45.8958    2.7055    6.3628 C   0  0  0  0  0  0  0  0  0  0  0  0
   43.4497    5.4797    8.2658 C   0  0  0  0  0  0  0  0  0  0  0  0
   44.1098    3.2918    8.0196 C   0  0  0  0  0  0  0  0  0  0  0  0
   45.0008    3.6623    7.0297 C   0  0  0  0  0  0  0  0  0  0  0  0
   42.6077    6.4978   11.3427 C   0  0  0  0  0  0  0  0  0  0  0  0
   46.8087    4.2932    5.4098 H   0  0  0  0  0  0  0  0  0  0  0  0
   47.5465    2.7525    5.1236 H   0  0  0  0  0  0  0  0  0  0  0  0
   44.5872    1.2672    7.9358 H   0  0  0  0  0  0  0  0  0  0  0  0
   43.3613    1.6713    9.0907 H   0  0  0  0  0  0  0  0  0  0  0  0
   42.6166    7.4106    8.5329 H   0  0  0  0  0  0  0  0  0  0  0  0
   43.6525    8.0932   10.5300 H   0  0  0  0  0  0  0  0  0  0  0  0
   42.1946    8.5181   11.1306 H   0  0  0  0  0  0  0  0  0  0  0  0
   43.4396    8.2192   12.1442 H   0  0  0  0  0  0  0  0  0  0  0  0
   41.3711    5.3238   12.5153 H   0  0  0  0  0  0  0  0  0  0  0  0
   42.0658    6.5506   13.3393 H   0  0  0  0  0  0  0  0  0  0  0  0
   40.8209    6.8496   12.3257 H   0  0  0  0  0  0  0  0  0  0  0  0
   43.5546    4.6796   11.6234 H   0  0  0  0  0  0  0  0  0  0  0  0
   44.4792    5.7732   10.8387 H   0  0  0  0  0  0  0  0  0  0  0  0
   44.2511    5.9033   12.4505 H   0  0  0  0  0  0  0  0  0  0  0  0
   45.6911    5.2902    5.9985 H   0  0  0  0  0  0  0  0  0  0  0  0
   41.8619    5.0548   10.0629 H   0  0  0  0  0  0  0  0  0  0  0  0
   41.0100    6.4476   10.0307 H   0  0  0  0  0  0  0  0  0  0  0  0
  1 12  2  0  0  0  0
  2 12  1  0  0  0  0
  3 14  1  0  0  0  0
  4 10  1  0  0  0  0
  4 13  2  0  0  0  0
  5 11  1  0  0  0  0
  5 13  1  0  0  0  0
  6 13  1  0  0  0  0
  6 14  2  0  0  0  0
  7 16  1  0  0  0  0
  8 16  1  0  0  0  0
  9 16  1  0  0  0  0
 10 15  2  0  0  0  0
 11 16  1  0  0  0  0
 12 15  1  0  0  0  0
 14 15  1  0  0  0  0
  2 17  1  0  0  0  0
  2 18  1  0  0  0  0
  3 19  1  0  0  0  0
  3 20  1  0  0  0  0
  5 21  1  0  0  0  0
  7 22  1  0  0  0  0
  7 23  1  0  0  0  0
  7 24  1  0  0  0  0
  8 25  1  0  0  0  0
  8 26  1  0  0  0  0
  8 27  1  0  0  0  0
  9 28  1  0  0  0  0
  9 29  1  0  0  0  0
  9 30  1  0  0  0  0
 10 31  1  0  0  0  0
 11 32  1  0  0  0  0
 11 33  1  0  0  0  0
M  END
> <pdb_id>
4YQT

> <uniprot_id>
P43912

> <usmiles>
O=C(N)c1c(nc(nc1)NCC(C)(C)C)N

$$$$
4H9_A_301
          07192415533D 1   1.00000     0.00000     0
            
 26 27  0  0  0  0            999 V2000
   44.7728    5.3339    6.8403 O   0  0  0  0  0  0  0  0  0  0  0  0
   41.3381    5.9476   11.9108 O   0  0  0  0  0  0  0  0  0  0  0  0
   46.4318    3.6874    5.4728 N   0  0  0  0  0  0  0  0  0  0  0  0
   44.6891    2.0345    8.0248 N   0  0  0  0  0  0  0  0  0  0  0  0
   46.2067    1.4813    6.4387 N   0  0  0  0  0  0  0  0  0  0  0  0
   45.0241    3.1178    7.3018 N   0  0  0  0  0  0  0  0  0  0  0  0
   41.0925    7.3572   11.9567 C   0  0  0  0  0  0  0  0  0  0  0  0
   45.4322    1.0689    7.4775 C   0  0  0  0  0  0  0  0  0  0  0  0
   42.5404    4.3136   10.7498 C   0  0  0  0  0  0  0  0  0  0  0  0
   42.4266    6.5270    9.7890 C   0  0  0  0  0  0  0  0  0  0  0  0
   43.3122    3.8586    9.7028 C   0  0  0  0  0  0  0  0  0  0  0  0
   43.2073    6.0746    8.7417 C   0  0  0  0  0  0  0  0  0  0  0  0
   45.9435    2.7693    6.3424 C   0  0  0  0  0  0  0  0  0  0  0  0
   44.4744    4.3832    7.5596 C   0  0  0  0  0  0  0  0  0  0  0  0
   42.1055    5.6248   10.7947 C   0  0  0  0  0  0  0  0  0  0  0  0
   43.6264    4.7510    8.7041 C   0  0  0  0  0  0  0  0  0  0  0  0
   46.2894    4.6635    5.7218 H   0  0  0  0  0  0  0  0  0  0  0  0
   47.3976    3.5558    5.1765 H   0  0  0  0  0  0  0  0  0  0  0  0
   40.4701    7.5876   12.8240 H   0  0  0  0  0  0  0  0  0  0  0  0
   42.0447    7.8884   12.0376 H   0  0  0  0  0  0  0  0  0  0  0  0
   40.5775    7.6653   11.0435 H   0  0  0  0  0  0  0  0  0  0  0  0
   45.3950    0.0496    7.8351 H   0  0  0  0  0  0  0  0  0  0  0  0
   42.2713    3.6341   11.5504 H   0  0  0  0  0  0  0  0  0  0  0  0
   42.0879    7.5552    9.8303 H   0  0  0  0  0  0  0  0  0  0  0  0
   43.6580    2.8324    9.6653 H   0  0  0  0  0  0  0  0  0  0  0  0
   43.4854    6.7522    7.9423 H   0  0  0  0  0  0  0  0  0  0  0  0
  1 14  2  0  0  0  0
  2  7  1  0  0  0  0
  2 15  1  0  0  0  0
  3 13  1  0  0  0  0
  3 17  1  0  0  0  0
  3 18  1  0  0  0  0
  4  6  1  0  0  0  0
  4  8  2  0  0  0  0
  5  8  1  0  0  0  0
  5 13  2  0  0  0  0
  6 13  1  0  0  0  0
  6 14  1  0  0  0  0
  7 19  1  0  0  0  0
  7 20  1  0  0  0  0
  7 21  1  0  0  0  0
  8 22  1  0  0  0  0
  9 11  1  0  0  0  0
  9 15  2  0  0  0  0
  9 23  1  0  0  0  0
 10 12  2  0  0  0  0
 10 15  1  0  0  0  0
 10 24  1  0  0  0  0
 11 16  2  0  0  0  0
 11 25  1  0  0  0  0
 12 16  1  0  0  0  0
 12 26  1  0  0  0  0
 14 16  1  0  0  0  0
M  END
> <pdb_id>
4YQS

> <uniprot_id>
P43912

> <usmiles>
O=C(N1N=CN=C1N)c2ccc(OC)cc2

$$$$
4HC_B_1201
          07192421073D 1   1.00000     0.00000     0
            
 18 19  0  0  0  0            999 V2000
   63.2680   34.7390   20.0740 O   0  0  0  0  0  0  0  0  0  0  0  0
   64.2960   30.3670   19.1730 O   0  0  0  0  0  0  0  0  0  0  0  0
   63.5910   33.3900   21.8550 O   0  0  0  0  0  0  0  0  0  0  0  0
   64.3960   30.7000   24.1810 C   0  0  0  0  0  0  0  0  0  0  0  0
   64.5640   29.6380   23.2960 C   0  0  0  0  0  0  0  0  0  0  0  0
   63.8670   31.8920   23.7150 C   0  0  0  0  0  0  0  0  0  0  0  0
   64.4610   29.8500   21.9210 C   0  0  0  0  0  0  0  0  0  0  0  0
   63.6510   32.5800   19.5990 C   0  0  0  0  0  0  0  0  0  0  0  0
   63.4890   33.6150   20.4940 C   0  0  0  0  0  0  0  0  0  0  0  0
   64.0240   31.3450   20.0660 C   0  0  0  0  0  0  0  0  0  0  0  0
   63.8590   32.1250   22.3410 C   0  0  0  0  0  0  0  0  0  0  0  0
   64.1150   31.1060   21.4420 C   0  0  0  0  0  0  0  0  0  0  0  0
   64.5695   29.4599   19.4928 H   0  0  0  0  0  0  0  0  0  0  0  0
   64.6544   30.6030   25.1421 H   0  0  0  0  0  0  0  0  0  0  0  0
   64.7588   28.7220   23.6467 H   0  0  0  0  0  0  0  0  0  0  0  0
   63.4988   32.5707   24.3505 H   0  0  0  0  0  0  0  0  0  0  0  0
   64.6357   29.1001   21.2830 H   0  0  0  0  0  0  0  0  0  0  0  0
   63.4987   32.7271   18.6217 H   0  0  0  0  0  0  0  0  0  0  0  0
  1  9  2  0  0  0  0
  2 10  1  0  0  0  0
  3  9  1  0  0  0  0
  3 11  1  0  0  0  0
  4  5  2  0  0  0  0
  4  6  1  0  0  0  0
  5  7  1  0  0  0  0
  6 11  2  0  0  0  0
  7 12  2  0  0  0  0
  8  9  1  0  0  0  0
  8 10  2  0  0  0  0
 10 12  1  0  0  0  0
 11 12  1  0  0  0  0
  2 13  1  0  0  0  0
  4 14  1  0  0  0  0
  5 15  1  0  0  0  0
  6 16  1  0  0  0  0
  7 17  1  0  0  0  0
  8 18  1  0  0  0  0
M  END
> <pdb_id>
1V5Y

> <uniprot_id>
P46072

> <usmiles>
O=C1Oc2c(cccc2)C(O)=C1

$$$$
4HQ_A_301
          07192415533D 1   1.00000     0.00000     0
            
 28 29  0  0  0  0            999 V2000
   44.7900    5.6316    6.9549 O   0  0  0  0  0  0  0  0  0  0  0  0
   44.8181    1.2391    7.5110 O   0  0  0  0  0  0  0  0  0  0  0  0
   46.7767    3.7715    6.0357 N   0  0  0  0  0  0  0  0  0  0  0  0
   45.8886    1.5876    6.7008 N   0  0  0  0  0  0  0  0  0  0  0  0
   44.1804    2.3013    7.9821 N   0  0  0  0  0  0  0  0  0  0  0  0
   42.2532    6.1052   11.1170 N   0  0  0  0  0  0  0  0  0  0  0  0
   43.5975    5.1918    8.8112 N   0  0  0  0  0  0  0  0  0  0  0  0
   42.0301    6.6249   12.4432 C   0  0  0  0  0  0  0  0  0  0  0  0
   43.0838    7.0155   10.3442 C   0  0  0  0  0  0  0  0  0  0  0  0
   42.8953    4.7980   11.1813 C   0  0  0  0  0  0  0  0  0  0  0  0
   43.1465    6.5789    8.9103 C   0  0  0  0  0  0  0  0  0  0  0  0
   43.0659    4.2129    9.8053 C   0  0  0  0  0  0  0  0  0  0  0  0
   44.4081    4.8006    7.7341 C   0  0  0  0  0  0  0  0  0  0  0  0
   45.9050    2.9552    6.6788 C   0  0  0  0  0  0  0  0  0  0  0  0
   44.7708    3.4028    7.5244 C   0  0  0  0  0  0  0  0  0  0  0  0
   46.6836    4.7796    6.1117 H   0  0  0  0  0  0  0  0  0  0  0  0
   47.5268    3.3805    5.4751 H   0  0  0  0  0  0  0  0  0  0  0  0
   41.7316    5.9033   13.2022 H   0  0  0  0  0  0  0  0  0  0  0  0
   42.9201    7.1237   12.8237 H   0  0  0  0  0  0  0  0  0  0  0  0
   41.2526    7.3869   12.4108 H   0  0  0  0  0  0  0  0  0  0  0  0
   44.0681    7.0307   10.8098 H   0  0  0  0  0  0  0  0  0  0  0  0
   42.7590    8.0532   10.4032 H   0  0  0  0  0  0  0  0  0  0  0  0
   42.4354    4.0768   11.8538 H   0  0  0  0  0  0  0  0  0  0  0  0
   43.8787    4.9663   11.6187 H   0  0  0  0  0  0  0  0  0  0  0  0
   42.1937    6.7163    8.4000 H   0  0  0  0  0  0  0  0  0  0  0  0
   43.8199    7.2311    8.3566 H   0  0  0  0  0  0  0  0  0  0  0  0
   43.7149    3.3382    9.8256 H   0  0  0  0  0  0  0  0  0  0  0  0
   42.1084    3.8256    9.4599 H   0  0  0  0  0  0  0  0  0  0  0  0
  1 13  2  0  0  0  0
  2  4  1  0  0  0  0
  2  5  1  0  0  0  0
  3 14  1  0  0  0  0
  3 16  1  0  0  0  0
  3 17  1  0  0  0  0
  4 14  2  0  0  0  0
  5 15  2  0  0  0  0
  6  8  1  0  0  0  0
  6  9  1  0  0  0  0
  6 10  1  0  0  0  0
  7 11  1  0  0  0  0
  7 12  1  0  0  0  0
  7 13  1  0  0  0  0
  8 18  1  0  0  0  0
  8 19  1  0  0  0  0
  8 20  1  0  0  0  0
  9 11  1  0  0  0  0
  9 21  1  0  0  0  0
  9 22  1  0  0  0  0
 10 12  1  0  0  0  0
 10 23  1  0  0  0  0
 10 24  1  0  0  0  0
 11 25  1  0  0  0  0
 11 26  1  0  0  0  0
 12 27  1  0  0  0  0
 12 28  1  0  0  0  0
 13 15  1  0  0  0  0
 14 15  1  0  0  0  0
M  END
> <pdb_id>
4YQR

> <uniprot_id>
P43912

> <usmiles>
O=C(N1CCN(CC1)C)C2=NON=C2N

$$$$
4I5_A_403
          07202409213D 1   1.00000     0.00000     0
            
 33 35  0  0  0  0            999 V2000
  -18.6960  -13.0130   28.3190 Cl  0  0  0  0  0  0  0  0  0  0  0  0
  -13.7770  -12.7080   21.8670 O   0  0  0  0  0  0  0  0  0  0  0  0
  -12.0820  -11.3770   21.2200 N   0  0  0  0  0  0  0  0  0  0  0  0
  -13.7210  -12.7990   25.2620 N   0  0  0  0  0  0  0  0  0  0  0  0
  -14.1070   -8.9750   22.8450 C   0  0  0  0  0  0  0  0  0  0  0  0
  -15.3440   -8.8960   23.7130 C   0  0  0  0  0  0  0  0  0  0  0  0
  -16.2620  -14.0040   27.7060 C   0  0  0  0  0  0  0  0  0  0  0  0
  -15.0480  -13.9930   27.0370 C   0  0  0  0  0  0  0  0  0  0  0  0
  -12.9110   -9.6500   23.4790 C   0  0  0  0  0  0  0  0  0  0  0  0
  -16.0690  -10.2250   23.9380 C   0  0  0  0  0  0  0  0  0  0  0  0
  -17.0360  -12.1280   26.3840 C   0  0  0  0  0  0  0  0  0  0  0  0
  -12.9590  -11.8130   22.1090 C   0  0  0  0  0  0  0  0  0  0  0  0
  -17.2250  -13.0630   27.3880 C   0  0  0  0  0  0  0  0  0  0  0  0
  -14.8350  -13.0420   26.0460 C   0  0  0  0  0  0  0  0  0  0  0  0
  -14.0000  -11.7300   24.4300 C   0  0  0  0  0  0  0  0  0  0  0  0
  -12.8990  -11.1900   23.5310 C   0  0  2  0  0  0  0  0  0  0  0  0
  -15.2740  -11.2930   24.6420 C   0  0  0  0  0  0  0  0  0  0  0  0
  -15.8250  -12.1100   25.6950 C   0  0  0  0  0  0  0  0  0  0  0  0
  -11.4407  -10.6500   21.4653 H   0  0  0  0  0  0  0  0  0  0  0  0
  -12.0603  -11.7744   20.3026 H   0  0  0  0  0  0  0  0  0  0  0  0
  -12.8614  -13.3090   25.2919 H   0  0  0  0  0  0  0  0  0  0  0  0
  -13.8413   -8.0423   22.6010 H   0  0  0  0  0  0  0  0  0  0  0  0
  -14.3437   -9.4818   22.0161 H   0  0  0  0  0  0  0  0  0  0  0  0
  -15.9858   -8.2631   23.2799 H   0  0  0  0  0  0  0  0  0  0  0  0
  -15.0728   -8.5367   24.6059 H   0  0  0  0  0  0  0  0  0  0  0  0
  -16.4405  -14.6875   28.4137 H   0  0  0  0  0  0  0  0  0  0  0  0
  -14.3369  -14.6586   27.2637 H   0  0  0  0  0  0  0  0  0  0  0  0
  -12.8462   -9.3193   24.4205 H   0  0  0  0  0  0  0  0  0  0  0  0
  -12.1008   -9.3625   22.9682 H   0  0  0  0  0  0  0  0  0  0  0  0
  -16.3393  -10.5825   23.0440 H   0  0  0  0  0  0  0  0  0  0  0  0
  -16.8861  -10.0404   24.4841 H   0  0  0  0  0  0  0  0  0  0  0  0
  -17.7584  -11.4750   26.1567 H   0  0  0  0  0  0  0  0  0  0  0  0
  -12.0269  -11.4643   23.9362 H   0  0  0  0  0  0  0  0  0  0  0  0
  1 13  1  0  0  0  0
  2 12  2  0  0  0  0
  3 12  1  0  0  0  0
  4 14  1  0  0  0  0
  4 15  1  0  0  0  0
  5  6  1  0  0  0  0
  5  9  1  0  0  0  0
  6 10  1  0  0  0  0
  7  8  1  0  0  0  0
  7 13  2  0  0  0  0
  8 14  2  0  0  0  0
  9 16  1  0  0  0  0
 10 17  1  0  0  0  0
 11 13  1  0  0  0  0
 11 18  2  0  0  0  0
 12 16  1  0  0  0  0
 14 18  1  0  0  0  0
 15 16  1  0  0  0  0
 15 17  2  0  0  0  0
 17 18  1  0  0  0  0
  3 19  1  0  0  0  0
  3 20  1  0  0  0  0
  4 21  1  0  0  0  0
  5 22  1  0  0  0  0
  5 23  1  0  0  0  0
  6 24  1  0  0  0  0
  6 25  1  0  0  0  0
  7 26  1  0  0  0  0
  8 27  1  0  0  0  0
  9 28  1  0  0  0  0
  9 29  1  0  0  0  0
 10 30  1  0  0  0  0
 10 31  1  0  0  0  0
 11 32  1  0  0  0  0
 16 33  1  0  0  0  0
M  END
> <pdb_id>
5D7Q

> <uniprot_id>
Q8IXJ6

> <usmiles>
Clc1cc2c(NC3=C2CCCC[C@@H]3C(=O)N)cc1

$$$$
4I8_A_1201
          07192420223D 1   1.00000     0.00000     0
            
 21 22  0  0  0  0            999 V2000
   12.0516   18.5186    8.2877 O   0  0  0  0  0  0  0  0  0  0  0  0
    6.0654   14.0434    8.7746 O   0  0  0  0  0  0  0  0  0  0  0  0
    7.3710   12.1720    9.0583 O   0  0  0  0  0  0  0  0  0  0  0  0
    9.9999   17.4667    8.3638 O   0  0  0  0  0  0  0  0  0  0  0  0
   11.8400   16.3112    8.7049 N   0  0  0  0  0  0  0  0  0  0  0  0
    6.1937   11.3746    8.9430 C   0  0  0  0  0  0  0  0  0  0  0  0
   10.7586   14.1883    9.0528 C   0  0  0  0  0  0  0  0  0  0  0  0
    9.5477   13.5220    9.1063 C   0  0  0  0  0  0  0  0  0  0  0  0
    8.4536   15.5910    8.6357 C   0  0  0  0  0  0  0  0  0  0  0  0
   11.3605   17.5138    8.4399 C   0  0  0  0  0  0  0  0  0  0  0  0
    7.1701   13.5166    8.9406 C   0  0  0  0  0  0  0  0  0  0  0  0
    9.6553   16.1802    8.5945 C   0  0  0  0  0  0  0  0  0  0  0  0
   10.7890   15.4912    8.8024 C   0  0  0  0  0  0  0  0  0  0  0  0
    8.3731   14.2262    8.8991 C   0  0  0  0  0  0  0  0  0  0  0  0
   13.0469   18.4569    8.3621 H   0  0  0  0  0  0  0  0  0  0  0  0
    6.4342   10.4090    9.0414 H   0  0  0  0  0  0  0  0  0  0  0  0
    5.5456   11.6314    9.6600 H   0  0  0  0  0  0  0  0  0  0  0  0
    5.7760   11.5246    8.0469 H   0  0  0  0  0  0  0  0  0  0  0  0
   11.6115   13.6882    9.2028 H   0  0  0  0  0  0  0  0  0  0  0  0
    9.5205   12.5399    9.2930 H   0  0  0  0  0  0  0  0  0  0  0  0
    7.6231   16.1255    8.4791 H   0  0  0  0  0  0  0  0  0  0  0  0
  1 10  1  0  0  0  0
  2 11  2  0  0  0  0
  3  6  1  0  0  0  0
  3 11  1  0  0  0  0
  4 10  1  0  0  0  0
  4 12  1  0  0  0  0
  5 10  2  0  0  0  0
  5 13  1  0  0  0  0
  7  8  1  0  0  0  0
  7 13  2  0  0  0  0
  8 14  2  0  0  0  0
  9 12  2  0  0  0  0
  9 14  1  0  0  0  0
 11 14  1  0  0  0  0
 12 13  1  0  0  0  0
  1 15  1  0  0  0  0
  6 16  1  0  0  0  0
  6 17  1  0  0  0  0
  6 18  1  0  0  0  0
  7 19  1  0  0  0  0
  8 20  1  0  0  0  0
  9 21  1  0  0  0  0
M  END
> <pdb_id>
5MPZ

> <uniprot_id>
Q92793

> <usmiles>
O=C(OC)c1cc2OC(O)=Nc2cc1

$$$$
4J8_A_303
          07192416293D 1   1.00000     0.00000     0
            
 20 20  0  0  0  0            999 V2000
   -5.9009    0.9450   16.8277 S   0  0  0  0  0  0  0  0  0  0  0  0
   -7.3232    0.9935   16.6931 O   0  0  0  0  0  0  0  0  0  0  0  0
   -5.3584    1.0742   18.1573 O   0  0  0  0  0  0  0  0  0  0  0  0
   -5.3712   -0.4177   16.1971 N   0  0  0  0  0  0  0  0  0  0  0  0
   -3.6411    5.6248   13.6889 C   0  0  0  0  0  0  0  0  0  0  0  0
   -3.9044    2.3073   15.5341 C   0  0  0  0  0  0  0  0  0  0  0  0
   -6.0797    3.3318   15.4938 C   0  0  0  0  0  0  0  0  0  0  0  0
   -3.3993    3.3855   14.8238 C   0  0  0  0  0  0  0  0  0  0  0  0
   -5.5495    4.4002   14.7866 C   0  0  0  0  0  0  0  0  0  0  0  0
   -5.2467    2.2894   15.8706 C   0  0  0  0  0  0  0  0  0  0  0  0
   -4.2055    4.4481   14.4431 C   0  0  0  0  0  0  0  0  0  0  0  0
   -4.3761   -0.4616   16.2862 H   0  0  0  0  0  0  0  0  0  0  0  0
   -5.7835   -1.1906   16.6793 H   0  0  0  0  0  0  0  0  0  0  0  0
   -4.3705    6.2838   13.5051 H   0  0  0  0  0  0  0  0  0  0  0  0
   -2.9279    6.0613   14.2374 H   0  0  0  0  0  0  0  0  0  0  0  0
   -3.2506    5.3100   12.8238 H   0  0  0  0  0  0  0  0  0  0  0  0
   -3.3060    1.5516   15.8001 H   0  0  0  0  0  0  0  0  0  0  0  0
   -7.0514    3.3133   15.7294 H   0  0  0  0  0  0  0  0  0  0  0  0
   -2.4296    3.3975   14.5799 H   0  0  0  0  0  0  0  0  0  0  0  0
   -6.1494    5.1538   14.5178 H   0  0  0  0  0  0  0  0  0  0  0  0
  1  2  2  0  0  0  0
  1  3  2  0  0  0  0
  1  4  1  0  0  0  0
  1 10  1  0  0  0  0
  5 11  1  0  0  0  0
  6  8  1  0  0  0  0
  6 10  2  0  0  0  0
  7  9  2  0  0  0  0
  7 10  1  0  0  0  0
  8 11  2  0  0  0  0
  9 11  1  0  0  0  0
  4 12  1  0  0  0  0
  4 13  1  0  0  0  0
  5 14  1  0  0  0  0
  5 15  1  0  0  0  0
  5 16  1  0  0  0  0
  6 17  1  0  0  0  0
  7 18  1  0  0  0  0
  8 19  1  0  0  0  0
  9 20  1  0  0  0  0
M  END
> <pdb_id>
4YXI

> <uniprot_id>
P00918

> <usmiles>
S(=O)(=O)(N)c1ccc(cc1)C

$$$$
4J8_A_303
          07212402173D 1   1.00000     0.00000     0
            
 20 20  0  0  0  0            999 V2000
   14.1801    0.7018   83.8055 S   0  0  0  0  0  0  0  0  0  0  0  0
   13.2975   -0.3992   84.0566 O   0  0  0  0  0  0  0  0  0  0  0  0
   13.6261    1.9466   83.3731 O   0  0  0  0  0  0  0  0  0  0  0  0
   14.9623    0.9755   85.1728 N   0  0  0  0  0  0  0  0  0  0  0  0
   18.1331   -1.0508   79.5831 C   0  0  0  0  0  0  0  0  0  0  0  0
   15.8966    1.1405   81.7377 C   0  0  0  0  0  0  0  0  0  0  0  0
   15.6434   -1.1388   82.4556 C   0  0  0  0  0  0  0  0  0  0  0  0
   16.8029    0.7334   80.7758 C   0  0  0  0  0  0  0  0  0  0  0  0
   16.5524   -1.5278   81.4910 C   0  0  0  0  0  0  0  0  0  0  0  0
   15.3184    0.2010   82.5715 C   0  0  0  0  0  0  0  0  0  0  0  0
   17.1588   -0.6038   80.6458 C   0  0  0  0  0  0  0  0  0  0  0  0
   15.5946    1.7401   85.0478 H   0  0  0  0  0  0  0  0  0  0  0  0
   14.3060    1.2000   85.8931 H   0  0  0  0  0  0  0  0  0  0  0  0
   18.2634   -2.0403   79.6454 H   0  0  0  0  0  0  0  0  0  0  0  0
   17.7714   -0.8184   78.6803 H   0  0  0  0  0  0  0  0  0  0  0  0
   19.0099   -0.5898   79.7197 H   0  0  0  0  0  0  0  0  0  0  0  0
   15.6609    2.1080   81.8297 H   0  0  0  0  0  0  0  0  0  0  0  0
   15.2262   -1.8161   83.0616 H   0  0  0  0  0  0  0  0  0  0  0  0
   17.2087    1.4122   80.1638 H   0  0  0  0  0  0  0  0  0  0  0  0
   16.7802   -2.4971   81.3978 H   0  0  0  0  0  0  0  0  0  0  0  0
  1  2  2  0  0  0  0
  1  3  2  0  0  0  0
  1  4  1  0  0  0  0
  1 10  1  0  0  0  0
  5 11  1  0  0  0  0
  6  8  1  0  0  0  0
  6 10  2  0  0  0  0
  7  9  2  0  0  0  0
  7 10  1  0  0  0  0
  8 11  2  0  0  0  0
  9 11  1  0  0  0  0
  4 12  1  0  0  0  0
  4 13  1  0  0  0  0
  5 14  1  0  0  0  0
  5 15  1  0  0  0  0
  5 16  1  0  0  0  0
  6 17  1  0  0  0  0
  7 18  1  0  0  0  0
  8 19  1  0  0  0  0
  9 20  1  0  0  0  0
M  END
> <pdb_id>
7OYP

> <uniprot_id>
P00918

> <usmiles>
S(=O)(=O)(N)c1ccc(cc1)C

$$$$
4JE_A_304
          07212402173D 1   1.00000     0.00000     0
            
 26 26  0  0  0  0            999 V2000
   14.2267    0.6826   83.7900 S   0  0  0  0  0  0  0  0  0  0  0  0
   13.5995    1.9044   83.3801 O   0  0  0  0  0  0  0  0  0  0  0  0
   13.4080   -0.4579   84.0684 O   0  0  0  0  0  0  0  0  0  0  0  0
   15.0614    1.0058   85.1174 N   0  0  0  0  0  0  0  0  0  0  0  0
   18.8360   -0.6949   77.0090 C   0  0  0  0  0  0  0  0  0  0  0  0
   17.8117   -0.3204   78.0627 C   0  0  0  0  0  0  0  0  0  0  0  0
   18.1425   -0.8721   79.4354 C   0  0  0  0  0  0  0  0  0  0  0  0
   15.8924    1.1989   81.6870 C   0  0  0  0  0  0  0  0  0  0  0  0
   15.7101   -1.1050   82.3430 C   0  0  0  0  0  0  0  0  0  0  0  0
   16.7868    0.8372   80.6975 C   0  0  0  0  0  0  0  0  0  0  0  0
   16.6085   -1.4478   81.3497 C   0  0  0  0  0  0  0  0  0  0  0  0
   15.3566    0.2233   82.5102 C   0  0  0  0  0  0  0  0  0  0  0  0
   17.1583   -0.4861   80.5143 C   0  0  0  0  0  0  0  0  0  0  0  0
   15.5159    0.1741   85.4361 H   0  0  0  0  0  0  0  0  0  0  0  0
   15.7477    1.7051   84.9176 H   0  0  0  0  0  0  0  0  0  0  0  0
   18.5662   -0.3051   76.1285 H   0  0  0  0  0  0  0  0  0  0  0  0
   19.7315   -0.3359   77.2721 H   0  0  0  0  0  0  0  0  0  0  0  0
   18.8857   -1.6907   76.9315 H   0  0  0  0  0  0  0  0  0  0  0  0
   16.9210   -0.6780   77.7821 H   0  0  0  0  0  0  0  0  0  0  0  0
   17.7667    0.6767   78.1228 H   0  0  0  0  0  0  0  0  0  0  0  0
   19.0456   -0.5336   79.6997 H   0  0  0  0  0  0  0  0  0  0  0  0
   18.1652   -1.8700   79.3748 H   0  0  0  0  0  0  0  0  0  0  0  0
   15.6344    2.1576   81.8074 H   0  0  0  0  0  0  0  0  0  0  0  0
   15.3193   -1.8097   82.9352 H   0  0  0  0  0  0  0  0  0  0  0  0
   17.1729    1.5424   80.1029 H   0  0  0  0  0  0  0  0  0  0  0  0
   16.8669   -2.4065   81.2311 H   0  0  0  0  0  0  0  0  0  0  0  0
  1  2  2  0  0  0  0
  1  3  2  0  0  0  0
  1  4  1  0  0  0  0
  1 12  1  0  0  0  0
  5  6  1  0  0  0  0
  6  7  1  0  0  0  0
  7 13  1  0  0  0  0
  8 10  2  0  0  0  0
  8 12  1  0  0  0  0
  9 11  1  0  0  0  0
  9 12  2  0  0  0  0
 10 13  1  0  0  0  0
 11 13  2  0  0  0  0
  4 14  1  0  0  0  0
  4 15  1  0  0  0  0
  5 16  1  0  0  0  0
  5 17  1  0  0  0  0
  5 18  1  0  0  0  0
  6 19  1  0  0  0  0
  6 20  1  0  0  0  0
  7 21  1  0  0  0  0
  7 22  1  0  0  0  0
  8 23  1  0  0  0  0
  9 24  1  0  0  0  0
 10 25  1  0  0  0  0
 11 26  1  0  0  0  0
M  END
> <pdb_id>
4YXU

> <uniprot_id>
P00918

> <usmiles>
S(=O)(=O)(N)c1ccc(cc1)CCC

$$$$
4K0_A_2345
          07202415303D 1   1.00000     0.00000     0
            
 39 43  0  0  0  0            999 V2000
   -9.5177  -13.8188   13.8372 N   0  0  0  0  0  0  0  0  0  0  0  0
   -0.9566  -14.2236   20.5793 N   0  0  0  0  0  0  0  0  0  0  0  0
   -0.0598  -14.2421   19.6318 N   0  0  0  0  0  0  0  0  0  0  0  0
   -2.9846  -14.0807   17.8322 N   0  0  0  0  0  0  0  0  0  0  0  0
   -0.4880  -18.4453   14.4956 N   0  0  0  0  0  0  0  0  0  0  0  0
   -3.3371  -14.1246   20.6727 N   0  0  0  0  0  0  0  0  0  0  0  0
    1.0345  -17.7065   16.2611 N   0  0  0  0  0  0  0  0  0  0  0  0
   -1.9963  -14.1398   18.6775 N   0  0  0  0  0  0  0  0  0  0  0  0
   -1.5547  -18.0433   13.7183 C   0  0  0  0  0  0  0  0  0  0  0  0
   -8.6471  -13.8413   14.6030 C   0  0  0  0  0  0  0  0  0  0  0  0
   -4.4033  -14.0630   19.8048 C   0  0  0  0  0  0  0  0  0  0  0  0
    1.2048  -16.5417   16.9957 C   0  0  0  0  0  0  0  0  0  0  0  0
   -2.1528  -16.7434   13.8189 C   0  0  0  0  0  0  0  0  0  0  0  0
   -1.6182  -15.8084   14.7743 C   0  0  0  0  0  0  0  0  0  0  0  0
   -6.2460  -13.9991   15.0692 C   0  0  0  0  0  0  0  0  0  0  0  0
   -7.8505  -13.8097   16.9325 C   0  0  0  0  0  0  0  0  0  0  0  0
   -5.1649  -14.0460   16.0037 C   0  0  0  0  0  0  0  0  0  0  0  0
   -6.7698  -13.8581   17.8726 C   0  0  0  0  0  0  0  0  0  0  0  0
    0.0871  -14.1927   17.1343 C   0  0  0  0  0  0  0  0  0  0  0  0
   -2.1325  -14.1625   20.0521 C   0  0  0  0  0  0  0  0  0  0  0  0
   -0.0091  -17.5329   15.3913 C   0  0  0  0  0  0  0  0  0  0  0  0
   -0.6405  -14.1926   18.4741 C   0  0  0  0  0  0  0  0  0  0  0  0
   -4.2396  -14.0394   18.3674 C   0  0  0  0  0  0  0  0  0  0  0  0
   -7.5944  -13.8816   15.5239 C   0  0  0  0  0  0  0  0  0  0  0  0
    0.2569  -15.6083   16.5910 C   0  0  0  0  0  0  0  0  0  0  0  0
   -5.4052  -13.9774   17.4220 C   0  0  0  0  0  0  0  0  0  0  0  0
   -0.5126  -16.2478   15.5678 C   0  0  0  0  0  0  0  0  0  0  0  0
    1.5840  -18.5370   16.3520 H   0  0  0  0  0  0  0  0  0  0  0  0
   -1.9288  -18.6891   13.0527 H   0  0  0  0  0  0  0  0  0  0  0  0
   -5.3286  -14.0334   20.1829 H   0  0  0  0  0  0  0  0  0  0  0  0
    1.8976  -16.3968   17.7021 H   0  0  0  0  0  0  0  0  0  0  0  0
   -2.9259  -16.4915   13.2369 H   0  0  0  0  0  0  0  0  0  0  0  0
   -2.0033  -14.8915   14.8786 H   0  0  0  0  0  0  0  0  0  0  0  0
   -6.0561  -14.0489   14.0887 H   0  0  0  0  0  0  0  0  0  0  0  0
   -8.7908  -13.7249   17.2620 H   0  0  0  0  0  0  0  0  0  0  0  0
   -4.2268  -14.1279   15.6671 H   0  0  0  0  0  0  0  0  0  0  0  0
   -6.9643  -13.8087   18.8522 H   0  0  0  0  0  0  0  0  0  0  0  0
    0.9901  -13.7802   17.2547 H   0  0  0  0  0  0  0  0  0  0  0  0
   -0.4407  -13.6537   16.4778 H   0  0  0  0  0  0  0  0  0  0  0  0
  1 10  3  0  0  0  0
  2  3  1  0  0  0  0
  2 20  2  0  0  0  0
  3 22  2  0  0  0  0
  4  8  1  0  0  0  0
  4 23  2  0  0  0  0
  5  9  2  0  0  0  0
  5 21  1  0  0  0  0
  6 11  2  0  0  0  0
  6 20  1  0  0  0  0
  7 12  1  0  0  0  0
  7 21  1  0  0  0  0
  8 20  1  0  0  0  0
  8 22  1  0  0  0  0
  9 13  1  0  0  0  0
 10 24  1  0  0  0  0
 11 23  1  0  0  0  0
 12 25  2  0  0  0  0
 13 14  2  0  0  0  0
 14 27  1  0  0  0  0
 15 17  1  0  0  0  0
 15 24  2  0  0  0  0
 16 18  2  0  0  0  0
 16 24  1  0  0  0  0
 17 26  2  0  0  0  0
 18 26  1  0  0  0  0
 19 22  1  0  0  0  0
 19 25  1  0  0  0  0
 21 27  2  0  0  0  0
 23 26  1  0  0  0  0
 25 27  1  0  0  0  0
  7 28  1  0  0  0  0
  9 29  1  0  0  0  0
 11 30  1  0  0  0  0
 12 31  1  0  0  0  0
 13 32  1  0  0  0  0
 14 33  1  0  0  0  0
 15 34  1  0  0  0  0
 16 35  1  0  0  0  0
 17 36  1  0  0  0  0
 18 37  1  0  0  0  0
 19 38  1  0  0  0  0
 19 39  1  0  0  0  0
M  END
> <pdb_id>
4AOI

> <uniprot_id>
P08581

> <usmiles>
N#Cc1ccc(cc1)C2=NN3C(=NN=C3CC=4c5c(nccc5)NC4)N=C2

$$$$
4KB_A_302
          07192416293D 1   1.00000     0.00000     0
            
 40 42  0  0  0  0            999 V2000
   -5.9619    0.9828   16.8892 S   0  0  0  0  0  0  0  0  0  0  0  0
   -7.3680    1.0351   16.8711 O   0  0  0  0  0  0  0  0  0  0  0  0
   -5.3636    1.2218   18.1590 O   0  0  0  0  0  0  0  0  0  0  0  0
   -5.5517    5.8473   12.4893 O   0  0  0  0  0  0  0  0  0  0  0  0
   -1.8172   11.6466   11.2355 O   0  0  0  0  0  0  0  0  0  0  0  0
   -0.6530   11.8115   13.8821 O   0  0  0  0  0  0  0  0  0  0  0  0
   -5.3905   -0.3477   16.2764 N   0  0  0  0  0  0  0  0  0  0  0  0
   -3.3517    6.1321   13.1248 N   0  0  0  0  0  0  0  0  0  0  0  0
   -2.3066    5.9806   14.0577 C   0  0  0  0  0  0  0  0  0  0  0  0
   -3.1281    7.0922   12.0411 C   0  0  0  0  0  0  0  0  0  0  0  0
   -1.9878    7.2701   14.7598 C   0  0  0  0  0  0  0  0  0  0  0  0
   -4.3010    2.2884   15.1136 C   0  0  0  0  0  0  0  0  0  0  0  0
   -6.2932    3.4021   15.7154 C   0  0  0  0  0  0  0  0  0  0  0  0
   -3.9671    3.3516   14.2617 C   0  0  0  0  0  0  0  0  0  0  0  0
   -5.9581    4.4634   14.9075 C   0  0  0  0  0  0  0  0  0  0  0  0
   -2.4576    9.3829   11.6793 C   0  0  0  0  0  0  0  0  0  0  0  0
   -1.3175    9.5878   14.2729 C   0  0  0  0  0  0  0  0  0  0  0  0
   -5.4705    2.2721   15.8640 C   0  0  0  0  0  0  0  0  0  0  0  0
   -4.5668    5.5727   13.2214 C   0  0  0  0  0  0  0  0  0  0  0  0
   -1.8551   10.5597   12.1058 C   0  0  0  0  0  0  0  0  0  0  0  0
   -1.2816   10.6727   13.3886 C   0  0  0  0  0  0  0  0  0  0  0  0
   -4.8276    4.4456   14.1602 C   0  0  0  0  0  0  0  0  0  0  0  0
   -2.4845    8.3110   12.5626 C   0  0  0  0  0  0  0  0  0  0  0  0
   -1.9330    8.4090   13.8384 C   0  0  0  0  0  0  0  0  0  0  0  0
   -1.3881   12.5028   11.5232 H   0  0  0  0  0  0  0  0  0  0  0  0
   -0.5846   12.6311   13.3132 H   0  0  0  0  0  0  0  0  0  0  0  0
   -4.3914   -0.3304   16.3151 H   0  0  0  0  0  0  0  0  0  0  0  0
   -5.7309   -1.1289   16.7997 H   0  0  0  0  0  0  0  0  0  0  0  0
   -1.4887    5.6635   13.5776 H   0  0  0  0  0  0  0  0  0  0  0  0
   -2.5780    5.3006   14.7389 H   0  0  0  0  0  0  0  0  0  0  0  0
   -4.0061    7.3337   11.6279 H   0  0  0  0  0  0  0  0  0  0  0  0
   -2.5371    6.6771   11.3494 H   0  0  0  0  0  0  0  0  0  0  0  0
   -1.1000    7.1791   15.2111 H   0  0  0  0  0  0  0  0  0  0  0  0
   -2.6940    7.4455   15.4457 H   0  0  0  0  0  0  0  0  0  0  0  0
   -3.6738    1.5127   15.1835 H   0  0  0  0  0  0  0  0  0  0  0  0
   -7.1573    3.4357   16.2176 H   0  0  0  0  0  0  0  0  0  0  0  0
   -3.1195    3.3259   13.7316 H   0  0  0  0  0  0  0  0  0  0  0  0
   -6.5589    5.2619   14.8708 H   0  0  0  0  0  0  0  0  0  0  0  0
   -2.8588    9.3097   10.7662 H   0  0  0  0  0  0  0  0  0  0  0  0
   -0.9159    9.6535   15.1864 H   0  0  0  0  0  0  0  0  0  0  0  0
  1  2  2  0  0  0  0
  1  3  2  0  0  0  0
  1  7  1  0  0  0  0
  1 18  1  0  0  0  0
  4 19  2  0  0  0  0
  5 20  1  0  0  0  0
  6 21  1  0  0  0  0
  8  9  1  0  0  0  0
  8 10  1  0  0  0  0
  8 19  1  0  0  0  0
  9 11  1  0  0  0  0
 10 23  1  0  0  0  0
 11 24  1  0  0  0  0
 12 14  2  0  0  0  0
 12 18  1  0  0  0  0
 13 15  1  0  0  0  0
 13 18  2  0  0  0  0
 14 22  1  0  0  0  0
 15 22  2  0  0  0  0
 16 20  2  0  0  0  0
 16 23  1  0  0  0  0
 17 21  2  0  0  0  0
 17 24  1  0  0  0  0
 19 22  1  0  0  0  0
 20 21  1  0  0  0  0
 23 24  2  0  0  0  0
  5 25  1  0  0  0  0
  6 26  1  0  0  0  0
  7 27  1  0  0  0  0
  7 28  1  0  0  0  0
  9 29  1  0  0  0  0
  9 30  1  0  0  0  0
 10 31  1  0  0  0  0
 10 32  1  0  0  0  0
 11 33  1  0  0  0  0
 11 34  1  0  0  0  0
 12 35  1  0  0  0  0
 13 36  1  0  0  0  0
 14 37  1  0  0  0  0
 15 38  1  0  0  0  0
 16 39  1  0  0  0  0
 17 40  1  0  0  0  0
M  END
> <pdb_id>
4Z1K

> <uniprot_id>
P00918

> <usmiles>
S(=O)(=O)(N)c1ccc(cc1)C(=O)N2Cc3c(cc(O)c(O)c3)CC2

$$$$
4KC_A_302
          07192416293D 1   1.00000     0.00000     0
            
 38 40  0  0  0  0            999 V2000
   -5.9423    1.0140   16.8641 S   0  0  0  0  0  0  0  0  0  0  0  0
   -7.4154    1.0466   16.8680 O   0  0  0  0  0  0  0  0  0  0  0  0
   -5.3013    1.2515   18.1101 O   0  0  0  0  0  0  0  0  0  0  0  0
   -5.6657    5.9436   12.4479 O   0  0  0  0  0  0  0  0  0  0  0  0
   -5.3607   -0.3444   16.2336 N   0  0  0  0  0  0  0  0  0  0  0  0
   -3.4435    6.1405   12.9747 N   0  0  0  0  0  0  0  0  0  0  0  0
   -2.3569    5.9970   13.9101 C   0  0  0  0  0  0  0  0  0  0  0  0
   -3.2111    7.1372   11.9486 C   0  0  0  0  0  0  0  0  0  0  0  0
   -1.8285   10.6631   12.3076 C   0  0  0  0  0  0  0  0  0  0  0  0
   -1.3121   10.6846   13.6292 C   0  0  0  0  0  0  0  0  0  0  0  0
   -2.1088    7.2255   14.7546 C   0  0  0  0  0  0  0  0  0  0  0  0
   -4.3826    2.2666   14.9551 C   0  0  0  0  0  0  0  0  0  0  0  0
   -6.3137    3.4509   15.7234 C   0  0  0  0  0  0  0  0  0  0  0  0
   -2.4389    9.5197   11.7550 C   0  0  0  0  0  0  0  0  0  0  0  0
   -1.4049    9.5397   14.4312 C   0  0  0  0  0  0  0  0  0  0  0  0
   -4.0659    3.3206   14.0877 C   0  0  0  0  0  0  0  0  0  0  0  0
   -6.0239    4.5110   14.8950 C   0  0  0  0  0  0  0  0  0  0  0  0
   -5.5044    2.2958   15.8050 C   0  0  0  0  0  0  0  0  0  0  0  0
   -4.6765    5.5806   13.1288 C   0  0  0  0  0  0  0  0  0  0  0  0
   -2.5297    8.3598   12.5510 C   0  0  0  0  0  0  0  0  0  0  0  0
   -4.9180    4.4548   14.0742 C   0  0  0  0  0  0  0  0  0  0  0  0
   -2.0282    8.3973   13.8876 C   0  0  0  0  0  0  0  0  0  0  0  0
   -4.3612   -0.3196   16.2529 H   0  0  0  0  0  0  0  0  0  0  0  0
   -5.6852   -1.1253   16.7674 H   0  0  0  0  0  0  0  0  0  0  0  0
   -1.5234    5.7950   13.3957 H   0  0  0  0  0  0  0  0  0  0  0  0
   -2.5656    5.2326   14.5201 H   0  0  0  0  0  0  0  0  0  0  0  0
   -4.0860    7.4099   11.5482 H   0  0  0  0  0  0  0  0  0  0  0  0
   -2.6254    6.7491   11.2371 H   0  0  0  0  0  0  0  0  0  0  0  0
   -1.7567   11.4890   11.7485 H   0  0  0  0  0  0  0  0  0  0  0  0
   -0.8833   11.5142   13.9869 H   0  0  0  0  0  0  0  0  0  0  0  0
   -1.2491    7.1196   15.2542 H   0  0  0  0  0  0  0  0  0  0  0  0
   -2.8599    7.3416   15.4045 H   0  0  0  0  0  0  0  0  0  0  0  0
   -3.7885    1.4624   14.9710 H   0  0  0  0  0  0  0  0  0  0  0  0
   -7.1340    3.5005   16.2932 H   0  0  0  0  0  0  0  0  0  0  0  0
   -2.7985    9.5307   10.8219 H   0  0  0  0  0  0  0  0  0  0  0  0
   -1.0397    9.5327   15.3621 H   0  0  0  0  0  0  0  0  0  0  0  0
   -3.2618    3.2746   13.4948 H   0  0  0  0  0  0  0  0  0  0  0  0
   -6.6133    5.3188   14.8886 H   0  0  0  0  0  0  0  0  0  0  0  0
  1  2  2  0  0  0  0
  1  3  2  0  0  0  0
  1  5  1  0  0  0  0
  1 18  1  0  0  0  0
  4 19  2  0  0  0  0
  6  7  1  0  0  0  0
  6  8  1  0  0  0  0
  6 19  1  0  0  0  0
  7 11  1  0  0  0  0
  8 20  1  0  0  0  0
  9 10  2  0  0  0  0
  9 14  1  0  0  0  0
 10 15  1  0  0  0  0
 11 22  1  0  0  0  0
 12 16  2  0  0  0  0
 12 18  1  0  0  0  0
 13 17  1  0  0  0  0
 13 18  2  0  0  0  0
 14 20  2  0  0  0  0
 15 22  2  0  0  0  0
 16 21  1  0  0  0  0
 17 21  2  0  0  0  0
 19 21  1  0  0  0  0
 20 22  1  0  0  0  0
  5 23  1  0  0  0  0
  5 24  1  0  0  0  0
  7 25  1  0  0  0  0
  7 26  1  0  0  0  0
  8 27  1  0  0  0  0
  8 28  1  0  0  0  0
  9 29  1  0  0  0  0
 10 30  1  0  0  0  0
 11 31  1  0  0  0  0
 11 32  1  0  0  0  0
 12 33  1  0  0  0  0
 13 34  1  0  0  0  0
 14 35  1  0  0  0  0
 15 36  1  0  0  0  0
 16 37  1  0  0  0  0
 17 38  1  0  0  0  0
M  END
> <pdb_id>
4Z1J

> <uniprot_id>
P00918

> <usmiles>
S(=O)(=O)(N)c1ccc(cc1)C(=O)N2Cc3c(cccc3)CC2

$$$$
4L6_A_705
          07202413473D 1   1.00000     0.00000     0
            
 38 41  0  0  0  0            999 V2000
   95.8863  107.7665  -13.6135 O   0  0  0  0  0  0  0  0  0  0  0  0
   96.4139  107.6002  -11.4387 N   0  0  0  0  0  0  0  0  0  0  0  0
   95.0993  110.1746  -14.5897 N   0  0  0  0  0  0  0  0  0  0  0  0
  100.3523  116.0549   -7.6546 N   0  0  0  0  0  0  0  0  0  0  0  0
  100.2539  115.8424   -9.0298 N   0  0  0  0  0  0  0  0  0  0  0  0
   96.7810  110.2933  -11.3358 N   0  0  0  0  0  0  0  0  0  0  0  0
   96.8754  111.5566  -11.0966 N   0  0  0  0  0  0  0  0  0  0  0  0
   95.0764  113.5803   -9.0200 C   0  0  0  0  0  0  0  0  0  0  0  0
   99.2630  115.6592   -7.0499 C   0  0  0  0  0  0  0  0  0  0  0  0
   95.3584  114.3308  -13.7361 C   0  0  0  0  0  0  0  0  0  0  0  0
   95.2683  112.9975  -14.0642 C   0  0  0  0  0  0  0  0  0  0  0  0
   95.9599  114.7618  -12.5594 C   0  0  0  0  0  0  0  0  0  0  0  0
   98.4005  114.8518  -10.4494 C   0  0  0  0  0  0  0  0  0  0  0  0
   97.0688  114.5911   -7.9615 C   0  0  0  0  0  0  0  0  0  0  0  0
   96.1754  108.3214  -12.5594 C   0  0  0  0  0  0  0  0  0  0  0  0
   95.6960  110.6443  -13.4341 C   0  0  0  0  0  0  0  0  0  0  0  0
   99.0228  115.2726   -9.2783 C   0  0  0  0  0  0  0  0  0  0  0  0
   96.2270  109.7910  -12.4505 C   0  0  0  0  0  0  0  0  0  0  0  0
   96.3938  112.4660  -11.9532 C   0  0  0  0  0  0  0  0  0  0  0  0
   96.4696  114.1752   -9.1223 C   0  0  0  0  0  0  0  0  0  0  0  0
   98.3658  115.1469   -8.0282 C   0  0  0  0  0  0  0  0  0  0  0  0
   95.7798  112.0465  -13.1594 C   0  0  0  0  0  0  0  0  0  0  0  0
   96.4897  113.8513  -11.6480 C   0  0  0  0  0  0  0  0  0  0  0  0
   97.1286  114.3003  -10.3773 C   0  0  0  0  0  0  0  0  0  0  0  0
   96.6488  108.0654  -10.5853 H   0  0  0  0  0  0  0  0  0  0  0  0
   96.3551  106.6022  -11.4644 H   0  0  0  0  0  0  0  0  0  0  0  0
   94.7353  110.8191  -15.2620 H   0  0  0  0  0  0  0  0  0  0  0  0
   95.0319  109.1903  -14.7531 H   0  0  0  0  0  0  0  0  0  0  0  0
  100.9505  116.0634   -9.7125 H   0  0  0  0  0  0  0  0  0  0  0  0
   94.7574  113.3199   -9.9313 H   0  0  0  0  0  0  0  0  0  0  0  0
   95.1016  112.7718   -8.4320 H   0  0  0  0  0  0  0  0  0  0  0  0
   94.4527  114.2573   -8.6293 H   0  0  0  0  0  0  0  0  0  0  0  0
   99.0896  115.7083   -6.0663 H   0  0  0  0  0  0  0  0  0  0  0  0
   94.9793  115.0108  -14.3637 H   0  0  0  0  0  0  0  0  0  0  0  0
   94.8491  112.7101  -14.9255 H   0  0  0  0  0  0  0  0  0  0  0  0
   96.0132  115.7411  -12.3641 H   0  0  0  0  0  0  0  0  0  0  0  0
   98.8632  114.9453  -11.3310 H   0  0  0  0  0  0  0  0  0  0  0  0
   96.5968  114.5027   -7.0844 H   0  0  0  0  0  0  0  0  0  0  0  0
  1 15  2  0  0  0  0
  2 15  1  0  0  0  0
  3 16  1  0  0  0  0
  4  5  1  0  0  0  0
  4  9  2  0  0  0  0
  5 17  1  0  0  0  0
  6  7  1  0  0  0  0
  6 18  2  0  0  0  0
  7 19  2  0  0  0  0
  8 20  1  0  0  0  0
  9 21  1  0  0  0  0
 10 11  2  0  0  0  0
 10 12  1  0  0  0  0
 11 22  1  0  0  0  0
 12 23  2  0  0  0  0
 13 17  2  0  0  0  0
 13 24  1  0  0  0  0
 14 20  1  0  0  0  0
 14 21  2  0  0  0  0
 15 18  1  0  0  0  0
 16 18  1  0  0  0  0
 16 22  2  0  0  0  0
 17 21  1  0  0  0  0
 19 22  1  0  0  0  0
 19 23  1  0  0  0  0
 20 24  2  0  0  0  0
 23 24  1  0  0  0  0
  2 25  1  0  0  0  0
  2 26  1  0  0  0  0
  3 27  1  0  0  0  0
  3 28  1  0  0  0  0
  5 29  1  0  0  0  0
  8 30  1  0  0  0  0
  8 31  1  0  0  0  0
  8 32  1  0  0  0  0
  9 33  1  0  0  0  0
 10 34  1  0  0  0  0
 11 35  1  0  0  0  0
 12 36  1  0  0  0  0
 13 37  1  0  0  0  0
 14 38  1  0  0  0  0
M  END
> <pdb_id>
4Z3V

> <uniprot_id>
Q06187

> <usmiles>
O=C(N)c1nnc2c(c1N)cccc2c3c(cc4c(NN=C4)c3)C

$$$$
4L7_A_1351
          07192421293D 1   1.00000     0.00000     0
            
 38 41  0  0  0  0            999 V2000
   14.3523   14.3441   -0.7358 Br  0  0  0  0  0  0  0  0  0  0  0  0
   12.7571   13.1205    1.6546 S   0  0  0  0  0  0  0  0  0  0  0  0
    3.4180   10.4982    4.6835 O   0  0  0  0  0  0  0  0  0  0  0  0
   10.9952   11.7542    3.6570 O   0  0  0  0  0  0  0  0  0  0  0  0
    5.5382    9.6817    1.2979 N   0  0  0  0  0  0  0  0  0  0  0  0
   11.1802    7.3389    3.1312 N   0  0  0  0  0  0  0  0  0  0  0  0
    3.5273   10.1819    2.4378 N   0  0  0  0  0  0  0  0  0  0  0  0
    4.2402    9.8764    1.3262 C   0  0  0  0  0  0  0  0  0  0  0  0
   13.1836   11.7151   -0.4615 C   0  0  0  0  0  0  0  0  0  0  0  0
   12.3881   10.9101    0.3914 C   0  0  0  0  0  0  0  0  0  0  0  0
    7.6368   10.0682    4.8923 C   0  0  0  0  0  0  0  0  0  0  0  0
    6.2767   10.3172    4.8858 C   0  0  0  0  0  0  0  0  0  0  0  0
    7.5937    9.6044    2.5386 C   0  0  0  0  0  0  0  0  0  0  0  0
   11.7795    8.5803    2.6764 C   0  0  0  0  0  0  0  0  0  0  0  0
    9.8851    7.6996    3.7278 C   0  0  0  0  0  0  0  0  0  0  0  0
   13.4420   12.9209    0.0812 C   0  0  0  0  0  0  0  0  0  0  0  0
   12.0556   11.5283    1.5790 C   0  0  0  0  0  0  0  0  0  0  0  0
    4.0940   10.3340    3.6722 C   0  0  0  0  0  0  0  0  0  0  0  0
   11.2251   11.0533    2.6874 C   0  0  0  0  0  0  0  0  0  0  0  0
    6.2159    9.8350    2.5171 C   0  0  0  0  0  0  0  0  0  0  0  0
    8.3061    9.6914    3.7326 C   0  0  0  0  0  0  0  0  0  0  0  0
    5.5523   10.1746    3.7017 C   0  0  0  0  0  0  0  0  0  0  0  0
   10.6671    9.6452    2.5979 C   0  0  2  0  0  0  0  0  0  0  0  0
    9.7500    9.2342    3.7936 C   0  0  2  0  0  0  0  0  0  0  0  0
   11.0910    6.6558    2.3851 H   0  0  0  0  0  0  0  0  0  0  0  0
    2.5230   10.3064    2.3616 H   0  0  0  0  0  0  0  0  0  0  0  0
    3.7101    9.7826    0.3799 H   0  0  0  0  0  0  0  0  0  0  0  0
   13.5355   11.3831   -1.4366 H   0  0  0  0  0  0  0  0  0  0  0  0
   12.0841    9.9037    0.1081 H   0  0  0  0  0  0  0  0  0  0  0  0
    8.1902   10.1703    5.8246 H   0  0  0  0  0  0  0  0  0  0  0  0
    5.7696   10.6237    5.7991 H   0  0  0  0  0  0  0  0  0  0  0  0
    8.1008    9.3559    1.6074 H   0  0  0  0  0  0  0  0  0  0  0  0
   12.2334    8.4149    1.7004 H   0  0  0  0  0  0  0  0  0  0  0  0
   12.5948    8.9428    3.3007 H   0  0  0  0  0  0  0  0  0  0  0  0
    9.0928    7.2492    3.1312 H   0  0  0  0  0  0  0  0  0  0  0  0
    9.7331    7.2881    4.7243 H   0  0  0  0  0  0  0  0  0  0  0  0
   10.1172    9.5280    1.6655 H   0  0  0  0  0  0  0  0  0  0  0  0
   10.1655    9.5653    4.7445 H   0  0  0  0  0  0  0  0  0  0  0  0
  1 16  1  0  0  0  0
  2 16  1  0  0  0  0
  2 17  1  0  0  0  0
  3 18  2  0  0  0  0
  4 19  2  0  0  0  0
  5  8  2  0  0  0  0
  5 20  1  0  0  0  0
  6 14  1  0  0  0  0
  6 15  1  0  0  0  0
  6 25  1  0  0  0  0
  7  8  1  0  0  0  0
  7 18  1  0  0  0  0
  7 26  1  0  0  0  0
  8 27  1  0  0  0  0
  9 10  1  0  0  0  0
  9 16  2  0  0  0  0
  9 28  1  0  0  0  0
 10 17  2  0  0  0  0
 10 29  1  0  0  0  0
 11 12  1  0  0  0  0
 11 21  2  0  0  0  0
 11 30  1  0  0  0  0
 12 22  2  0  0  0  0
 12 31  1  0  0  0  0
 13 20  2  0  0  0  0
 13 21  1  0  0  0  0
 13 32  1  0  0  0  0
 14 23  1  0  0  0  0
 14 33  1  0  0  0  0
 14 34  1  0  0  0  0
 15 24  1  0  0  0  0
 15 35  1  0  0  0  0
 15 36  1  0  0  0  0
 17 19  1  0  0  0  0
 18 22  1  0  0  0  0
 19 23  1  0  0  0  0
 20 22  1  0  0  0  0
 21 24  1  0  0  0  0
 23 24  1  0  0  0  0
 23 37  1  0  0  0  0
 24 38  1  0  0  0  0
M  END
> <pdb_id>
4UJA

> <uniprot_id>
P17612

> <usmiles>
BrC=1SC(C(=O)[C@@H]2[C@@H](c3cc4N=CNC(=O)c4cc3)CNC2)=CC1

$$$$
4L7_E_401
          07202403383D 1   1.00000     0.00000     0
            
 38 41  0  0  0  0            999 V2000
   77.1091   96.4265   33.2759 Br  0  0  0  0  0  0  0  0  0  0  0  0
   77.5836   95.9333   30.2245 S   0  0  0  0  0  0  0  0  0  0  0  0
   75.7150   89.7216   22.1249 O   0  0  0  0  0  0  0  0  0  0  0  0
   77.6170   95.3826   27.2526 O   0  0  0  0  0  0  0  0  0  0  0  0
   73.3822   91.0751   25.2060 N   0  0  0  0  0  0  0  0  0  0  0  0
   74.2150   97.4567   25.3394 N   0  0  0  0  0  0  0  0  0  0  0  0
   73.9746   89.4288   23.5856 N   0  0  0  0  0  0  0  0  0  0  0  0
   73.2242   89.8878   24.6153 C   0  0  0  0  0  0  0  0  0  0  0  0
   75.1958   96.2755   31.1220 C   0  0  0  0  0  0  0  0  0  0  0  0
   75.0642   96.0507   29.7396 C   0  0  0  0  0  0  0  0  0  0  0  0
   76.5025   93.5268   23.9000 C   0  0  0  0  0  0  0  0  0  0  0  0
   76.3341   92.2885   23.3057 C   0  0  0  0  0  0  0  0  0  0  0  0
   74.5947   93.1423   25.3018 C   0  0  0  0  0  0  0  0  0  0  0  0
   74.8119   97.2328   26.6664 C   0  0  0  0  0  0  0  0  0  0  0  0
   74.4090   96.2371   24.5819 C   0  0  0  0  0  0  0  0  0  0  0  0
   76.4782   96.2329   31.5221 C   0  0  0  0  0  0  0  0  0  0  0  0
   76.2513   95.8506   29.0950 C   0  0  0  0  0  0  0  0  0  0  0  0
   75.0395   90.1595   23.0545 C   0  0  0  0  0  0  0  0  0  0  0  0
   76.5041   95.6480   27.6674 C   0  0  0  0  0  0  0  0  0  0  0  0
   74.4205   91.8823   24.7211 C   0  0  0  0  0  0  0  0  0  0  0  0
   75.6051   93.9935   24.8541 C   0  0  0  0  0  0  0  0  0  0  0  0
   75.2765   91.4688   23.6908 C   0  0  0  0  0  0  0  0  0  0  0  0
   75.3136   95.7776   26.7286 C   0  0  2  0  0  0  0  0  0  0  0  0
   75.5911   95.4615   25.2290 C   0  0  2  0  0  0  0  0  0  0  0  0
   73.2355   97.7115   25.4072 H   0  0  0  0  0  0  0  0  0  0  0  0
   73.7547   88.5300   23.1691 H   0  0  0  0  0  0  0  0  0  0  0  0
   72.4439   89.2413   25.0149 H   0  0  0  0  0  0  0  0  0  0  0  0
   74.3485   96.5000   31.7670 H   0  0  0  0  0  0  0  0  0  0  0  0
   74.0822   96.0421   29.2723 H   0  0  0  0  0  0  0  0  0  0  0  0
   77.3576   94.1396   23.6164 H   0  0  0  0  0  0  0  0  0  0  0  0
   77.0302   91.9442   22.5436 H   0  0  0  0  0  0  0  0  0  0  0  0
   73.9150   93.4164   26.1064 H   0  0  0  0  0  0  0  0  0  0  0  0
   74.0716   97.4417   27.4355 H   0  0  0  0  0  0  0  0  0  0  0  0
   75.6343   97.9061   26.9069 H   0  0  0  0  0  0  0  0  0  0  0  0
   73.4784   95.6726   24.5974 H   0  0  0  0  0  0  0  0  0  0  0  0
   74.6120   96.4122   23.5261 H   0  0  0  0  0  0  0  0  0  0  0  0
   74.5123   95.1482   27.1055 H   0  0  0  0  0  0  0  0  0  0  0  0
   76.5224   95.9109   24.8877 H   0  0  0  0  0  0  0  0  0  0  0  0
  1 16  1  0  0  0  0
  2 16  1  0  0  0  0
  2 17  1  0  0  0  0
  3 18  2  0  0  0  0
  4 19  2  0  0  0  0
  5  8  2  0  0  0  0
  5 20  1  0  0  0  0
  6 14  1  0  0  0  0
  6 15  1  0  0  0  0
  6 25  1  0  0  0  0
  7  8  1  0  0  0  0
  7 18  1  0  0  0  0
  7 26  1  0  0  0  0
  8 27  1  0  0  0  0
  9 10  1  0  0  0  0
  9 16  2  0  0  0  0
  9 28  1  0  0  0  0
 10 17  2  0  0  0  0
 10 29  1  0  0  0  0
 11 12  1  0  0  0  0
 11 21  2  0  0  0  0
 11 30  1  0  0  0  0
 12 22  2  0  0  0  0
 12 31  1  0  0  0  0
 13 20  2  0  0  0  0
 13 21  1  0  0  0  0
 13 32  1  0  0  0  0
 14 23  1  0  0  0  0
 14 33  1  0  0  0  0
 14 34  1  0  0  0  0
 15 24  1  0  0  0  0
 15 35  1  0  0  0  0
 15 36  1  0  0  0  0
 17 19  1  0  0  0  0
 18 22  1  0  0  0  0
 19 23  1  0  0  0  0
 20 22  1  0  0  0  0
 21 24  1  0  0  0  0
 23 24  1  0  0  0  0
 23 37  1  0  0  0  0
 24 38  1  0  0  0  0
M  END
> <pdb_id>
4Z83

> <uniprot_id>
P00517

> <usmiles>
BrC=1SC(C(=O)[C@@H]2[C@@H](c3cc4N=CNC(=O)c4cc3)CNC2)=CC1

$$$$
4LK_A_1003
          07192416573D 1   1.00000     0.00000     0
            
 51 55  0  0  0  0            999 V2000
   16.3587   -4.2503   23.7293 F   0  0  0  0  0  0  0  0  0  0  0  0
   12.9043   -2.9451   26.5777 O   0  0  0  0  0  0  0  0  0  0  0  0
   19.2211   -3.6158   18.4013 O   0  0  0  0  0  0  0  0  0  0  0  0
   20.3268   -4.3365   20.8690 O   0  0  0  0  0  0  0  0  0  0  0  0
   11.8476   -0.9883   27.0952 O   0  0  0  0  0  0  0  0  0  0  0  0
   15.5274   -1.1757   16.5256 N   0  0  0  0  0  0  0  0  0  0  0  0
   16.6343   -2.2674   20.3954 N   0  0  0  0  0  0  0  0  0  0  0  0
   17.1342   -2.5762   21.6185 N   0  0  0  0  0  0  0  0  0  0  0  0
   15.9510   -1.2376   17.7984 N   0  0  0  0  0  0  0  0  0  0  0  0
   13.5249   -0.9100   25.6182 N   0  0  0  0  0  0  0  0  0  0  0  0
   20.5622   -4.7494   22.2231 C   0  0  0  0  0  0  0  0  0  0  0  0
   11.9470    0.3777   26.6845 C   0  0  0  0  0  0  0  0  0  0  0  0
   16.1121   -2.2266   15.9461 C   0  0  0  0  0  0  0  0  0  0  0  0
   13.0723    0.4509   25.6783 C   0  0  0  0  0  0  0  0  0  0  0  0
   18.3277   -3.2459   21.7806 C   0  0  0  0  0  0  0  0  0  0  0  0
   15.1335    1.9133   20.3429 C   0  0  0  0  0  0  0  0  0  0  0  0
   16.3850    1.7966   19.7712 C   0  0  0  0  0  0  0  0  0  0  0  0
   14.1579    0.9791   20.0678 C   0  0  0  0  0  0  0  0  0  0  0  0
   16.8974   -2.9654   16.8585 C   0  0  0  0  0  0  0  0  0  0  0  0
   16.6668    0.7516   18.9204 C   0  0  0  0  0  0  0  0  0  0  0  0
   14.4267   -0.0729   19.2210 C   0  0  0  0  0  0  0  0  0  0  0  0
   14.8372   -0.4727   23.6278 C   0  0  0  0  0  0  0  0  0  0  0  0
   15.7324   -0.8855   22.6615 C   0  0  0  0  0  0  0  0  0  0  0  0
   14.9913   -2.6016   24.6655 C   0  0  0  0  0  0  0  0  0  0  0  0
   12.7846   -1.7381   26.4301 C   0  0  0  0  0  0  0  0  0  0  0  0
   15.8766   -3.0025   23.6852 C   0  0  0  0  0  0  0  0  0  0  0  0
   18.6257   -3.3189   19.4278 C   0  0  0  0  0  0  0  0  0  0  0  0
   19.1220   -3.6517   20.7799 C   0  0  0  0  0  0  0  0  0  0  0  0
   17.3169   -2.5962   19.3403 C   0  0  0  0  0  0  0  0  0  0  0  0
   15.6801   -0.1706   18.6583 C   0  0  0  0  0  0  0  0  0  0  0  0
   14.4491   -1.3358   24.6342 C   0  0  0  0  0  0  0  0  0  0  0  0
   16.2687   -2.1584   22.6648 C   0  0  0  0  0  0  0  0  0  0  0  0
   16.7782   -2.2954   18.0550 C   0  0  0  0  0  0  0  0  0  0  0  0
   21.4315   -5.2409   22.2753 H   0  0  0  0  0  0  0  0  0  0  0  0
   20.5982   -3.9446   22.8155 H   0  0  0  0  0  0  0  0  0  0  0  0
   19.8210   -5.3504   22.5219 H   0  0  0  0  0  0  0  0  0  0  0  0
   12.1508    0.9597   27.4717 H   0  0  0  0  0  0  0  0  0  0  0  0
   11.0895    0.6740   26.2641 H   0  0  0  0  0  0  0  0  0  0  0  0
   16.0066   -2.4628   14.9802 H   0  0  0  0  0  0  0  0  0  0  0  0
   12.7407    0.7611   24.7873 H   0  0  0  0  0  0  0  0  0  0  0  0
   13.7999    1.0601   25.9936 H   0  0  0  0  0  0  0  0  0  0  0  0
   18.6235   -3.4441   22.7151 H   0  0  0  0  0  0  0  0  0  0  0  0
   14.9346    2.6767   20.9575 H   0  0  0  0  0  0  0  0  0  0  0  0
   17.0905    2.4749   19.9763 H   0  0  0  0  0  0  0  0  0  0  0  0
   13.2528    1.0655   20.4842 H   0  0  0  0  0  0  0  0  0  0  0  0
   17.4252   -3.7947   16.6751 H   0  0  0  0  0  0  0  0  0  0  0  0
   17.5706    0.6647   18.5014 H   0  0  0  0  0  0  0  0  0  0  0  0
   13.7238   -0.7545   19.0179 H   0  0  0  0  0  0  0  0  0  0  0  0
   14.4676    0.4561   23.5991 H   0  0  0  0  0  0  0  0  0  0  0  0
   15.9996   -0.2464   21.9404 H   0  0  0  0  0  0  0  0  0  0  0  0
   14.7428   -3.2322   25.4007 H   0  0  0  0  0  0  0  0  0  0  0  0
  1 26  1  0  0  0  0
  2 25  2  0  0  0  0
  3 27  2  0  0  0  0
  4 11  1  0  0  0  0
  4 28  1  0  0  0  0
  5 12  1  0  0  0  0
  5 25  1  0  0  0  0
  6  9  1  0  0  0  0
  6 13  2  0  0  0  0
  7  8  1  0  0  0  0
  7 29  2  0  0  0  0
  8 15  1  0  0  0  0
  8 32  1  0  0  0  0
  9 30  1  0  0  0  0
  9 33  1  0  0  0  0
 10 14  1  0  0  0  0
 10 25  1  0  0  0  0
 10 31  1  0  0  0  0
 12 14  1  0  0  0  0
 13 19  1  0  0  0  0
 15 28  2  0  0  0  0
 16 17  2  0  0  0  0
 16 18  1  0  0  0  0
 17 20  1  0  0  0  0
 18 21  2  0  0  0  0
 19 33  2  0  0  0  0
 20 30  2  0  0  0  0
 21 30  1  0  0  0  0
 22 23  1  0  0  0  0
 22 31  2  0  0  0  0
 23 32  2  0  0  0  0
 24 26  2  0  0  0  0
 24 31  1  0  0  0  0
 26 32  1  0  0  0  0
 27 28  1  0  0  0  0
 27 29  1  0  0  0  0
 29 33  1  0  0  0  0
 11 34  1  0  0  0  0
 11 35  1  0  0  0  0
 11 36  1  0  0  0  0
 12 37  1  0  0  0  0
 12 38  1  0  0  0  0
 13 39  1  0  0  0  0
 14 40  1  0  0  0  0
 14 41  1  0  0  0  0
 15 42  1  0  0  0  0
 16 43  1  0  0  0  0
 17 44  1  0  0  0  0
 18 45  1  0  0  0  0
 19 46  1  0  0  0  0
 20 47  1  0  0  0  0
 21 48  1  0  0  0  0
 22 49  1  0  0  0  0
 23 50  1  0  0  0  0
 24 51  1  0  0  0  0
M  END
> <pdb_id>
5AXP

> <uniprot_id>
Q9Y233

> <usmiles>
Fc1c(N2N=C(C(=O)C(OC)=C2)C=3N(N=CC3)c4ccccc4)ccc(N5C(=O)OCC5)c1

$$$$
4LP_A_1003
          07192416573D 1   1.00000     0.00000     0
            
 63 68  0  0  0  0            999 V2000
   17.0950   -4.3860   23.8480 F   0  0  0  0  0  0  0  0  0  0  0  0
   14.4890   -2.4070   28.1470 O   0  0  0  0  0  0  0  0  0  0  0  0
   19.3740   -3.6740   18.2810 O   0  0  0  0  0  0  0  0  0  0  0  0
   20.5860   -4.4320   20.6600 O   0  0  0  0  0  0  0  0  0  0  0  0
   15.5110   -1.2570   16.6320 N   0  0  0  0  0  0  0  0  0  0  0  0
   16.8760   -2.3610   20.4190 N   0  0  0  0  0  0  0  0  0  0  0  0
   17.4500   -2.7080   21.5990 N   0  0  0  0  0  0  0  0  0  0  0  0
   15.9970   -1.3330   17.8850 N   0  0  0  0  0  0  0  0  0  0  0  0
   14.8230   -1.1760   26.1740 N   0  0  0  0  0  0  0  0  0  0  0  0
   20.8790   -4.8070   22.0070 C   0  0  0  0  0  0  0  0  0  0  0  0
   16.9200   -3.7740   26.9800 C   0  0  0  0  0  0  0  0  0  0  0  0
   14.7400   -4.5610   26.0780 C   0  0  0  0  0  0  0  0  0  0  0  0
   16.1000   -2.2770   15.9960 C   0  0  0  0  0  0  0  0  0  0  0  0
   18.6430   -3.3710   21.6840 C   0  0  0  0  0  0  0  0  0  0  0  0
   14.0650    0.0270   26.4170 C   0  0  0  0  0  0  0  0  0  0  0  0
   15.2680    1.7850   20.4900 C   0  0  0  0  0  0  0  0  0  0  0  0
   14.3470    0.7660   20.3710 C   0  0  0  0  0  0  0  0  0  0  0  0
   16.4340    1.7680   19.7540 C   0  0  0  0  0  0  0  0  0  0  0  0
   16.9560   -3.0030   16.8560 C   0  0  0  0  0  0  0  0  0  0  0  0
   14.5870   -0.2780   19.5040 C   0  0  0  0  0  0  0  0  0  0  0  0
   16.6860    0.7280   18.8840 C   0  0  0  0  0  0  0  0  0  0  0  0
   16.2270   -1.0320   22.7780 C   0  0  0  0  0  0  0  0  0  0  0  0
   15.5580   -0.5490   23.8850 C   0  0  0  0  0  0  0  0  0  0  0  0
   11.7770   -1.0060   26.8010 C   0  0  0  0  0  0  0  0  0  0  0  0
   11.5580    0.4750   26.6960 C   0  0  0  0  0  0  0  0  0  0  0  0
   16.5980   -3.1430   23.8440 C   0  0  0  0  0  0  0  0  0  0  0  0
   14.9170   -2.2850   27.0070 C   0  0  0  0  0  0  0  0  0  0  0  0
   18.8080   -3.3990   19.3300 C   0  0  0  0  0  0  0  0  0  0  0  0
   19.3800   -3.7550   20.6390 C   0  0  0  0  0  0  0  0  0  0  0  0
   17.4940   -2.6790   19.3250 C   0  0  0  0  0  0  0  0  0  0  0  0
   15.7550   -0.2800   18.7740 C   0  0  0  0  0  0  0  0  0  0  0  0
   16.7490   -2.3120   22.7480 C   0  0  0  0  0  0  0  0  0  0  0  0
   16.8790   -2.3630   18.0710 C   0  0  0  0  0  0  0  0  0  0  0  0
   15.4380   -1.4080   24.9530 C   0  0  0  0  0  0  0  0  0  0  0  0
   12.6750   -0.1690   25.9300 C   0  0  0  0  0  0  0  0  0  0  0  0
   15.9340   -2.6800   24.9520 C   0  0  0  0  0  0  0  0  0  0  0  0
   15.6530   -3.3680   26.2480 C   0  0  0  0  0  0  0  0  0  0  0  0
   21.7498   -5.2978   22.0345 H   0  0  0  0  0  0  0  0  0  0  0  0
   20.9406   -3.9866   22.5755 H   0  0  0  0  0  0  0  0  0  0  0  0
   20.1516   -5.3991   22.3539 H   0  0  0  0  0  0  0  0  0  0  0  0
   17.5141   -2.9765   27.0855 H   0  0  0  0  0  0  0  0  0  0  0  0
   16.6828   -4.1346   27.8820 H   0  0  0  0  0  0  0  0  0  0  0  0
   17.3975   -4.4782   26.4545 H   0  0  0  0  0  0  0  0  0  0  0  0
   13.9106   -4.2799   25.5952 H   0  0  0  0  0  0  0  0  0  0  0  0
   15.2101   -5.2679   25.5494 H   0  0  0  0  0  0  0  0  0  0  0  0
   14.4954   -4.9243   26.9770 H   0  0  0  0  0  0  0  0  0  0  0  0
   15.9528   -2.4982   15.0319 H   0  0  0  0  0  0  0  0  0  0  0  0
   18.9894   -3.5843   22.5975 H   0  0  0  0  0  0  0  0  0  0  0  0
   14.4859    0.7923   25.9300 H   0  0  0  0  0  0  0  0  0  0  0  0
   14.0520    0.2225   27.3976 H   0  0  0  0  0  0  0  0  0  0  0  0
   15.0887    2.5438   21.1161 H   0  0  0  0  0  0  0  0  0  0  0  0
   13.5066    0.7844   20.9127 H   0  0  0  0  0  0  0  0  0  0  0  0
   17.0972    2.5101   19.8511 H   0  0  0  0  0  0  0  0  0  0  0  0
   17.5013   -3.8100   16.6291 H   0  0  0  0  0  0  0  0  0  0  0  0
   13.9248   -1.0210   19.4066 H   0  0  0  0  0  0  0  0  0  0  0  0
   17.5276    0.7066   18.3443 H   0  0  0  0  0  0  0  0  0  0  0  0
   16.3367   -0.4416   21.9784 H   0  0  0  0  0  0  0  0  0  0  0  0
   15.1805    0.3767   23.9092 H   0  0  0  0  0  0  0  0  0  0  0  0
   11.1245   -1.6391   26.3846 H   0  0  0  0  0  0  0  0  0  0  0  0
   12.1293   -1.4008   27.6495 H   0  0  0  0  0  0  0  0  0  0  0  0
   11.7632    1.0667   27.4756 H   0  0  0  0  0  0  0  0  0  0  0  0
   10.7583    0.8285   26.2106 H   0  0  0  0  0  0  0  0  0  0  0  0
   12.5520   -0.2556   24.9414 H   0  0  0  0  0  0  0  0  0  0  0  0
  1 26  1  0  0  0  0
  2 27  2  0  0  0  0
  3 28  2  0  0  0  0
  4 10  1  0  0  0  0
  4 29  1  0  0  0  0
  5  8  1  0  0  0  0
  5 13  2  0  0  0  0
  6  7  1  0  0  0  0
  6 30  2  0  0  0  0
  7 14  1  0  0  0  0
  7 32  1  0  0  0  0
  8 31  1  0  0  0  0
  8 33  1  0  0  0  0
  9 15  1  0  0  0  0
  9 27  1  0  0  0  0
  9 34  1  0  0  0  0
 11 37  1  0  0  0  0
 12 37  1  0  0  0  0
 13 19  1  0  0  0  0
 14 29  2  0  0  0  0
 15 35  1  0  0  0  0
 16 17  2  0  0  0  0
 16 18  1  0  0  0  0
 17 20  1  0  0  0  0
 18 21  2  0  0  0  0
 19 33  2  0  0  0  0
 20 31  2  0  0  0  0
 21 31  1  0  0  0  0
 22 23  1  0  0  0  0
 22 32  2  0  0  0  0
 23 34  2  0  0  0  0
 24 25  1  0  0  0  0
 24 35  1  0  0  0  0
 25 35  1  0  0  0  0
 26 32  1  0  0  0  0
 26 36  2  0  0  0  0
 27 37  1  0  0  0  0
 28 29  1  0  0  0  0
 28 30  1  0  0  0  0
 30 33  1  0  0  0  0
 34 36  1  0  0  0  0
 36 37  1  0  0  0  0
 10 38  1  0  0  0  0
 10 39  1  0  0  0  0
 10 40  1  0  0  0  0
 11 41  1  0  0  0  0
 11 42  1  0  0  0  0
 11 43  1  0  0  0  0
 12 44  1  0  0  0  0
 12 45  1  0  0  0  0
 12 46  1  0  0  0  0
 13 47  1  0  0  0  0
 14 48  1  0  0  0  0
 15 49  1  0  0  0  0
 15 50  1  0  0  0  0
 16 51  1  0  0  0  0
 17 52  1  0  0  0  0
 18 53  1  0  0  0  0
 19 54  1  0  0  0  0
 20 55  1  0  0  0  0
 21 56  1  0  0  0  0
 22 57  1  0  0  0  0
 23 58  1  0  0  0  0
 24 59  1  0  0  0  0
 24 60  1  0  0  0  0
 25 61  1  0  0  0  0
 25 62  1  0  0  0  0
 35 63  1  0  0  0  0
M  END
> <pdb_id>
5AXQ

> <uniprot_id>
Q9Y233

> <usmiles>
Fc1c(N2N=C(C(=O)C(OC)=C2)C=3N(N=CC3)c4ccccc4)ccc5N(C(=O)C(c15)(C)C)CC6CC6

$$$$
4M7_C_400
          07202413553D 1   1.00000     0.00000     0
            
 54 58  0  0  0  0            999 V2000
    6.5643    1.3997  103.2066 S   0  0  0  0  0  0  0  0  0  0  0  0
    6.6099   -0.0636  102.8987 O   0  0  0  0  0  0  0  0  0  0  0  0
    2.8557    1.7756   97.5169 O   0  0  0  0  0  0  0  0  0  0  0  0
    1.9666    2.4384   99.4055 O   0  0  0  0  0  0  0  0  0  0  0  0
    7.9973    3.4718   96.2051 O   0  0  0  0  0  0  0  0  0  0  0  0
    4.8061    2.0058  100.5114 N   0  0  0  0  0  0  0  0  0  0  0  0
    4.9622    1.8344  103.8187 C   0  0  0  0  0  0  0  0  0  0  0  0
    7.0933    2.4161   96.1692 C   0  0  0  0  0  0  0  0  0  0  0  0
    4.0739    1.2151  101.5142 C   0  0  0  0  0  0  0  0  0  0  0  0
    3.8688    1.9781  102.7985 C   0  0  0  0  0  0  0  0  0  0  0  0
    5.6540    2.8621   96.1672 C   0  0  0  0  0  0  0  0  0  0  0  0
   11.8983    6.5309   95.3553 C   0  0  0  0  0  0  0  0  0  0  0  0
   10.5167    6.7458   95.4979 C   0  0  0  0  0  0  0  0  0  0  0  0
   11.2515    1.7661   96.0285 C   0  0  0  0  0  0  0  0  0  0  0  0
    8.6865    3.5978  100.4833 C   0  0  0  0  0  0  0  0  0  0  0  0
    8.3057    2.8742  101.6403 C   0  0  0  0  0  0  0  0  0  0  0  0
    9.8731    1.9737   96.1628 C   0  0  0  0  0  0  0  0  0  0  0  0
   12.4264    5.2416   95.4555 C   0  0  0  0  0  0  0  0  0  0  0  0
   12.0856    2.8498   95.7929 C   0  0  0  0  0  0  0  0  0  0  0  0
    9.6657    5.6712   95.7339 C   0  0  0  0  0  0  0  0  0  0  0  0
    5.2945    3.8122   97.2836 C   0  0  0  0  0  0  0  0  0  0  0  0
    7.7752    3.7394   99.4355 C   0  0  0  0  0  0  0  0  0  0  0  0
    2.9836    2.1880   98.7046 C   0  0  0  0  0  0  0  0  0  0  0  0
    7.0135    2.3027  101.7149 C   0  0  0  0  0  0  0  0  0  0  0  0
    9.3543    3.2558   96.0594 C   0  0  0  0  0  0  0  0  0  0  0  0
    4.3484    2.4384   99.2769 C   0  0  0  0  0  0  0  0  0  0  0  0
    6.0925    2.4434  100.6830 C   0  0  0  0  0  0  0  0  0  0  0  0
   11.5610    4.1501   95.6864 C   0  0  0  0  0  0  0  0  0  0  0  0
   10.2017    4.3620   95.8229 C   0  0  0  0  0  0  0  0  0  0  0  0
    5.3671    3.1765   98.6480 C   0  0  0  0  0  0  0  0  0  0  0  0
    6.4942    3.1806   99.5281 C   0  0  0  0  0  0  0  0  0  0  0  0
    3.6666    1.5787   96.9659 H   0  0  0  0  0  0  0  0  0  0  0  0
    5.0472    2.7082  104.2975 H   0  0  0  0  0  0  0  0  0  0  0  0
    4.6821    1.1255  104.4660 H   0  0  0  0  0  0  0  0  0  0  0  0
    7.2459    1.8405   96.9726 H   0  0  0  0  0  0  0  0  0  0  0  0
    7.2613    1.8827   95.3402 H   0  0  0  0  0  0  0  0  0  0  0  0
    4.5941    0.3842  101.7122 H   0  0  0  0  0  0  0  0  0  0  0  0
    3.1802    0.9676  101.1399 H   0  0  0  0  0  0  0  0  0  0  0  0
    3.7859    2.9482  102.5705 H   0  0  0  0  0  0  0  0  0  0  0  0
    3.0167    1.6592  103.2135 H   0  0  0  0  0  0  0  0  0  0  0  0
    5.0750    2.0509   96.2482 H   0  0  0  0  0  0  0  0  0  0  0  0
    5.4691    3.3181   95.2966 H   0  0  0  0  0  0  0  0  0  0  0  0
   12.5066    7.3053   95.1813 H   0  0  0  0  0  0  0  0  0  0  0  0
   10.1453    7.6717   95.4295 H   0  0  0  0  0  0  0  0  0  0  0  0
   11.6317    0.8441   96.1018 H   0  0  0  0  0  0  0  0  0  0  0  0
    9.5986    4.0027  100.4180 H   0  0  0  0  0  0  0  0  0  0  0  0
    8.9468    2.7680  102.4004 H   0  0  0  0  0  0  0  0  0  0  0  0
    9.2640    1.1991   96.3330 H   0  0  0  0  0  0  0  0  0  0  0  0
   13.4110    5.0926   95.3644 H   0  0  0  0  0  0  0  0  0  0  0  0
   13.0704    2.7045   95.6979 H   0  0  0  0  0  0  0  0  0  0  0  0
    8.6828    5.8212   95.8401 H   0  0  0  0  0  0  0  0  0  0  0  0
    4.3615    4.1398   97.1344 H   0  0  0  0  0  0  0  0  0  0  0  0
    5.9275    4.5860   97.2590 H   0  0  0  0  0  0  0  0  0  0  0  0
    8.0388    4.2434   98.6130 H   0  0  0  0  0  0  0  0  0  0  0  0
  1  2  2  0  0  0  0
  1  7  1  0  0  0  0
  1 24  1  0  0  0  0
  3 23  1  0  0  0  0
  4 23  2  0  0  0  0
  5  8  1  0  0  0  0
  5 25  1  0  0  0  0
  6  9  1  0  0  0  0
  6 26  1  0  0  0  0
  6 27  1  0  0  0  0
  7 10  1  0  0  0  0
  8 11  1  0  0  0  0
  9 10  1  0  0  0  0
 11 21  1  0  0  0  0
 12 13  2  0  0  0  0
 12 18  1  0  0  0  0
 13 20  1  0  0  0  0
 14 17  1  0  0  0  0
 14 19  2  0  0  0  0
 15 16  1  0  0  0  0
 15 22  2  0  0  0  0
 16 24  2  0  0  0  0
 17 25  2  0  0  0  0
 18 28  2  0  0  0  0
 19 28  1  0  0  0  0
 20 29  2  0  0  0  0
 21 30  1  0  0  0  0
 22 31  1  0  0  0  0
 23 26  1  0  0  0  0
 24 27  1  0  0  0  0
 25 29  1  0  0  0  0
 26 30  2  0  0  0  0
 27 31  2  0  0  0  0
 28 29  1  0  0  0  0
 30 31  1  0  0  0  0
  3 32  1  0  0  0  0
  7 33  1  0  0  0  0
  7 34  1  0  0  0  0
  8 35  1  0  0  0  0
  8 36  1  0  0  0  0
  9 37  1  0  0  0  0
  9 38  1  0  0  0  0
 10 39  1  0  0  0  0
 10 40  1  0  0  0  0
 11 41  1  0  0  0  0
 11 42  1  0  0  0  0
 12 43  1  0  0  0  0
 13 44  1  0  0  0  0
 14 45  1  0  0  0  0
 15 46  1  0  0  0  0
 16 47  1  0  0  0  0
 17 48  1  0  0  0  0
 18 49  1  0  0  0  0
 19 50  1  0  0  0  0
 20 51  1  0  0  0  0
 21 52  1  0  0  0  0
 21 53  1  0  0  0  0
 22 54  1  0  0  0  0
M  END
> <pdb_id>
4ZBF

> <uniprot_id>
Q07820

> <usmiles>
S1(=O)c2c3N(C(C(=O)O)=C(c3ccc2)CCCOc4c5c(ccc4)cccc5)CCC1

$$$$
4MR_A_501
          07202408383D 1   1.00000     0.00000     0
            
 56 60  0  0  0  0            999 V2000
   28.0940    9.2320   46.4250 O   0  0  0  0  0  0  0  0  0  0  0  0
   24.1640    8.3490   48.5170 O   0  0  0  0  0  0  0  0  0  0  0  0
   27.7120   10.4750   50.7760 O   0  0  0  0  0  0  0  0  0  0  0  0
   26.4810    4.0500   52.2440 O   0  0  0  0  0  0  0  0  0  0  0  0
   22.9330   13.4980   53.8030 N   0  0  0  0  0  0  0  0  0  0  0  0
   22.0650   14.1210   51.7430 N   0  0  0  0  0  0  0  0  0  0  0  0
   26.1050    8.7850   47.4300 N   0  0  0  0  0  0  0  0  0  0  0  0
   27.9170    9.9130   48.5910 N   0  0  0  0  0  0  0  0  0  0  0  0
   23.7330   12.3530   51.8210 N   0  0  0  0  0  0  0  0  0  0  0  0
   24.8460   10.0420   50.6040 N   0  0  0  0  0  0  0  0  0  0  0  0
   22.3640   14.5350   54.3920 C   0  0  0  0  0  0  0  0  0  0  0  0
   21.4720   15.1730   52.2800 C   0  0  0  0  0  0  0  0  0  0  0  0
   24.0490   11.1690   52.6350 C   0  0  0  0  0  0  0  0  0  0  0  0
   23.3320   11.9760   50.4560 C   0  0  0  0  0  0  0  0  0  0  0  0
   25.2150   10.4270   51.9770 C   0  0  0  0  0  0  0  0  0  0  0  0
   24.4940   11.2250   49.7990 C   0  0  0  0  0  0  0  0  0  0  0  0
   21.6060   15.4270   53.6410 C   0  0  0  0  0  0  0  0  0  0  0  0
   23.3550    1.4510   53.0330 C   0  0  0  0  0  0  0  0  0  0  0  0
   23.3520    2.1920   51.8540 C   0  0  0  0  0  0  0  0  0  0  0  0
   24.3650    1.6440   53.9700 C   0  0  0  0  0  0  0  0  0  0  0  0
   24.3640    3.1140   51.6060 C   0  0  0  0  0  0  0  0  0  0  0  0
   25.3680    2.5780   53.7270 C   0  0  0  0  0  0  0  0  0  0  0  0
   27.3610    5.8710   51.0260 C   0  0  0  0  0  0  0  0  0  0  0  0
   25.1400    6.0340   51.9220 C   0  0  0  0  0  0  0  0  0  0  0  0
   27.2710    7.1840   50.5720 C   0  0  0  0  0  0  0  0  0  0  0  0
   25.0480    7.3430   51.4580 C   0  0  0  0  0  0  0  0  0  0  0  0
   27.3870    9.3460   47.4250 C   0  0  0  0  0  0  0  0  0  0  0  0
   25.3350    8.7180   48.5970 C   0  0  0  0  0  0  0  0  0  0  0  0
   27.1920    9.9560   49.7890 C   0  0  0  0  0  0  0  0  0  0  0  0
   22.8080   13.2840   52.4840 C   0  0  0  0  0  0  0  0  0  0  0  0
   25.3760    3.3110   52.5430 C   0  0  0  0  0  0  0  0  0  0  0  0
   26.2940    5.2850   51.7000 C   0  0  0  0  0  0  0  0  0  0  0  0
   26.1080    7.9250   50.7670 C   0  0  0  0  0  0  0  0  0  0  0  0
   25.8670    9.2010   49.9510 C   0  0  0  0  0  0  0  0  0  0  0  0
   25.7290    8.4224   46.5773 H   0  0  0  0  0  0  0  0  0  0  0  0
   28.8395   10.2982   48.5676 H   0  0  0  0  0  0  0  0  0  0  0  0
   22.4781   14.6780   55.3751 H   0  0  0  0  0  0  0  0  0  0  0  0
   20.9271   15.7862   51.7080 H   0  0  0  0  0  0  0  0  0  0  0  0
   23.2505   10.5689   52.6823 H   0  0  0  0  0  0  0  0  0  0  0  0
   24.3076   11.4532   53.5582 H   0  0  0  0  0  0  0  0  0  0  0  0
   23.1196   12.7979   49.9275 H   0  0  0  0  0  0  0  0  0  0  0  0
   22.5259   11.3854   50.4921 H   0  0  0  0  0  0  0  0  0  0  0  0
   26.0167   11.0241   51.9508 H   0  0  0  0  0  0  0  0  0  0  0  0
   25.4280    9.6060   52.5067 H   0  0  0  0  0  0  0  0  0  0  0  0
   24.2237   10.9332   48.8815 H   0  0  0  0  0  0  0  0  0  0  0  0
   25.2870   11.8310   49.7359 H   0  0  0  0  0  0  0  0  0  0  0  0
   21.1727   16.2226   54.0644 H   0  0  0  0  0  0  0  0  0  0  0  0
   22.6326    0.7815   53.2058 H   0  0  0  0  0  0  0  0  0  0  0  0
   22.6210    2.0612   51.1843 H   0  0  0  0  0  0  0  0  0  0  0  0
   24.3704    1.1124   54.8170 H   0  0  0  0  0  0  0  0  0  0  0  0
   24.3650    3.6364   50.7533 H   0  0  0  0  0  0  0  0  0  0  0  0
   26.0870    2.7235   54.4066 H   0  0  0  0  0  0  0  0  0  0  0  0
   28.1971    5.3461   50.8668 H   0  0  0  0  0  0  0  0  0  0  0  0
   24.3725    5.6281   52.4182 H   0  0  0  0  0  0  0  0  0  0  0  0
   28.0493    7.5993   50.1011 H   0  0  0  0  0  0  0  0  0  0  0  0
   24.2141    7.8699   51.6221 H   0  0  0  0  0  0  0  0  0  0  0  0
  1 27  2  0  0  0  0
  2 28  2  0  0  0  0
  3 29  2  0  0  0  0
  4 31  1  0  0  0  0
  4 32  1  0  0  0  0
  5 11  2  0  0  0  0
  5 30  1  0  0  0  0
  6 12  1  0  0  0  0
  6 30  2  0  0  0  0
  7 27  1  0  0  0  0
  7 28  1  0  0  0  0
  8 27  1  0  0  0  0
  8 29  1  0  0  0  0
  9 13  1  0  0  0  0
  9 14  1  0  0  0  0
  9 30  1  0  0  0  0
 10 15  1  0  0  0  0
 10 16  1  0  0  0  0
 10 34  1  0  0  0  0
 11 17  1  0  0  0  0
 12 17  2  0  0  0  0
 13 15  1  0  0  0  0
 14 16  1  0  0  0  0
 18 19  2  0  0  0  0
 18 20  1  0  0  0  0
 19 21  1  0  0  0  0
 20 22  2  0  0  0  0
 21 31  2  0  0  0  0
 22 31  1  0  0  0  0
 23 25  2  0  0  0  0
 23 32  1  0  0  0  0
 24 26  1  0  0  0  0
 24 32  2  0  0  0  0
 25 33  1  0  0  0  0
 26 33  2  0  0  0  0
 28 34  1  0  0  0  0
 29 34  1  0  0  0  0
 33 34  1  0  0  0  0
  7 35  1  0  0  0  0
  8 36  1  0  0  0  0
 11 37  1  0  0  0  0
 12 38  1  0  0  0  0
 13 39  1  0  0  0  0
 13 40  1  0  0  0  0
 14 41  1  0  0  0  0
 14 42  1  0  0  0  0
 15 43  1  0  0  0  0
 15 44  1  0  0  0  0
 16 45  1  0  0  0  0
 16 46  1  0  0  0  0
 17 47  1  0  0  0  0
 18 48  1  0  0  0  0
 19 49  1  0  0  0  0
 20 50  1  0  0  0  0
 21 51  1  0  0  0  0
 22 52  1  0  0  0  0
 23 53  1  0  0  0  0
 24 54  1  0  0  0  0
 25 55  1  0  0  0  0
 26 56  1  0  0  0  0
M  END
> <pdb_id>
2OVX

> <uniprot_id>
P14780

> <usmiles>
O=C1NC(=O)C(N2CCN(c3ncccn3)CC2)(c4ccc(Oc5ccccc5)cc4)C(=O)N1

$$$$
4NC_A_403
          07212404053D 1   1.00000     0.00000     0
            
 16 16  0  0  0  0            999 V2000
   -3.9180  -11.4190  -14.8540 O   0  5  0  0  0  0  0  0  0  0  0  0
   -1.8810  -10.8480  -14.4790 O   0  0  0  0  0  0  0  0  0  0  0  0
   -0.8880  -16.2330  -17.4710 O   0  0  0  0  0  0  0  0  0  0  0  0
    0.8530  -14.6060  -16.2250 O   0  0  0  0  0  0  0  0  0  0  0  0
   -2.7090  -11.6040  -14.9450 N   0  3  0  0  0  0  0  0  0  0  0  0
   -2.7170  -14.7540  -16.9310 C   0  0  0  0  0  0  0  0  0  0  0  0
   -3.1550  -13.5930  -16.3220 C   0  0  0  0  0  0  0  0  0  0  0  0
   -0.8910  -13.0800  -15.6550 C   0  0  0  0  0  0  0  0  0  0  0  0
   -1.3640  -15.0940  -16.8940 C   0  0  0  0  0  0  0  0  0  0  0  0
   -0.4580  -14.2500  -16.2520 C   0  0  0  0  0  0  0  0  0  0  0  0
   -2.2500  -12.7810  -15.6920 C   0  0  0  0  0  0  0  0  0  0  0  0
    0.0880  -16.4462  -17.4258 H   0  0  0  0  0  0  0  0  0  0  0  0
    1.1495  -15.4554  -16.6616 H   0  0  0  0  0  0  0  0  0  0  0  0
   -3.3697  -15.3504  -17.3982 H   0  0  0  0  0  0  0  0  0  0  0  0
   -4.1244  -13.3481  -16.3413 H   0  0  0  0  0  0  0  0  0  0  0  0
   -0.2432  -12.4635  -15.2074 H   0  0  0  0  0  0  0  0  0  0  0  0
  1  5  1  0  0  0  0
  2  5  2  0  0  0  0
  3  9  1  0  0  0  0
  4 10  1  0  0  0  0
  5 11  1  0  0  0  0
  6  7  1  0  0  0  0
  6  9  2  0  0  0  0
  7 11  2  0  0  0  0
  8 10  2  0  0  0  0
  8 11  1  0  0  0  0
  9 10  1  0  0  0  0
  3 12  1  0  0  0  0
  4 13  1  0  0  0  0
  6 14  1  0  0  0  0
  7 15  1  0  0  0  0
  8 16  1  0  0  0  0
M  CHG  2   1  -1   5   1
M  END
> <pdb_id>
6SDN

> <uniprot_id>
Q8WS26

> <usmiles>
[O-][N+](=O)c1cc(O)c(O)cc1

$$$$
4NC_A_707
          07202416113D 1   1.00000     0.00000     0
            
 16 16  0  0  0  0            999 V2000
    2.7350    9.7130   14.9470 O   0  5  0  0  0  0  0  0  0  0  0  0
    1.3960    8.9190   16.4260 O   0  0  0  0  0  0  0  0  0  0  0  0
    5.5300   11.6990   20.1220 O   0  0  0  0  0  0  0  0  0  0  0  0
    3.7210    9.9990   20.8130 O   0  0  0  0  0  0  0  0  0  0  0  0
    2.4080    9.5390   16.1040 N   0  3  0  0  0  0  0  0  0  0  0  0
    4.9690   11.5760   17.7930 C   0  0  0  0  0  0  0  0  0  0  0  0
    4.2170   11.0210   16.7940 C   0  0  0  0  0  0  0  0  0  0  0  0
    3.0190    9.7160   18.4700 C   0  0  0  0  0  0  0  0  0  0  0  0
    4.7830   11.1940   19.1110 C   0  0  0  0  0  0  0  0  0  0  0  0
    3.7950   10.2710   19.4730 C   0  0  0  0  0  0  0  0  0  0  0  0
    3.2230   10.1140   17.1510 C   0  0  0  0  0  0  0  0  0  0  0  0
    5.3670   11.3994   21.0620 H   0  0  0  0  0  0  0  0  0  0  0  0
    4.3353   10.4621   21.4519 H   0  0  0  0  0  0  0  0  0  0  0  0
    5.6594   12.2640   17.5694 H   0  0  0  0  0  0  0  0  0  0  0  0
    4.3765   11.2596   15.8361 H   0  0  0  0  0  0  0  0  0  0  0  0
    2.3192    9.0364   18.6902 H   0  0  0  0  0  0  0  0  0  0  0  0
  1  5  1  0  0  0  0
  2  5  2  0  0  0  0
  3  9  1  0  0  0  0
  4 10  1  0  0  0  0
  5 11  1  0  0  0  0
  6  7  1  0  0  0  0
  6  9  2  0  0  0  0
  7 11  2  0  0  0  0
  8 10  2  0  0  0  0
  8 11  1  0  0  0  0
  9 10  1  0  0  0  0
  3 12  1  0  0  0  0
  4 13  1  0  0  0  0
  6 14  1  0  0  0  0
  7 15  1  0  0  0  0
  8 16  1  0  0  0  0
M  CHG  2   1  -1   5   1
M  END
> <pdb_id>
6ZE6

> <uniprot_id>
nan

> <usmiles>
[O-][N+](=O)c1cc(O)c(O)cc1

$$$$
4NC_B_1542
          07192418323D 1   1.00000     0.00000     0
            
 16 16  0  0  0  0            999 V2000
   13.3347  -13.2935   44.2896 O   0  5  0  0  0  0  0  0  0  0  0  0
   14.3834  -13.4331   42.3925 O   0  0  0  0  0  0  0  0  0  0  0  0
    8.4566  -12.8970   40.3073 O   0  0  0  0  0  0  0  0  0  0  0  0
    8.5088  -13.8682   42.8860 O   0  0  0  0  0  0  0  0  0  0  0  0
   13.3172  -13.3313   43.0456 N   0  3  0  0  0  0  0  0  0  0  0  0
   10.8353  -12.6346   40.3555 C   0  0  0  0  0  0  0  0  0  0  0  0
   12.0350  -12.7390   41.0358 C   0  0  0  0  0  0  0  0  0  0  0  0
   10.8816  -13.6059   42.9502 C   0  0  0  0  0  0  0  0  0  0  0  0
    9.6573  -13.0114   40.9776 C   0  0  0  0  0  0  0  0  0  0  0  0
    9.6869  -13.4975   42.2690 C   0  0  0  0  0  0  0  0  0  0  0  0
   12.0526  -13.2262   42.3311 C   0  0  0  0  0  0  0  0  0  0  0  0
    7.6054  -13.1689   40.7562 H   0  0  0  0  0  0  0  0  0  0  0  0
    7.6412  -13.7908   42.3948 H   0  0  0  0  0  0  0  0  0  0  0  0
   10.8189  -12.2883   39.4176 H   0  0  0  0  0  0  0  0  0  0  0  0
   12.8879  -12.4631   40.5926 H   0  0  0  0  0  0  0  0  0  0  0  0
   10.8976  -13.9574   43.8863 H   0  0  0  0  0  0  0  0  0  0  0  0
  1  5  1  0  0  0  0
  2  5  2  0  0  0  0
  3  9  1  0  0  0  0
  4 10  1  0  0  0  0
  5 11  1  0  0  0  0
  6  7  1  0  0  0  0
  6  9  2  0  0  0  0
  7 11  2  0  0  0  0
  8 10  2  0  0  0  0
  8 11  1  0  0  0  0
  9 10  1  0  0  0  0
  3 12  1  0  0  0  0
  4 13  1  0  0  0  0
  6 14  1  0  0  0  0
  7 15  1  0  0  0  0
  8 16  1  0  0  0  0
M  CHG  2   1  -1   5   1
M  END
> <pdb_id>
2BUU

> <uniprot_id>
P20371

> <usmiles>
[O-][N+](=O)c1cc(O)c(O)cc1

$$$$
4NC_B_202
          07202417443D 1   1.00000     0.00000     0
            
 16 16  0  0  0  0            999 V2000
    6.9257   -2.2854   16.4813 O   0  0  0  0  0  0  0  0  0  0  0  0
    5.2781   -0.8099   16.9286 O   0  5  0  0  0  0  0  0  0  0  0  0
    5.0787   -1.1406   10.5706 O   0  0  0  0  0  0  0  0  0  0  0  0
    4.0149    0.7562   12.3339 O   0  0  0  0  0  0  0  0  0  0  0  0
    6.0360   -1.5544   16.0659 N   0  3  0  0  0  0  0  0  0  0  0  0
    6.0791   -2.2906   12.4470 C   0  0  0  0  0  0  0  0  0  0  0  0
    6.3246   -2.4009   13.8071 C   0  0  0  0  0  0  0  0  0  0  0  0
    5.0337   -0.4084   14.1945 C   0  0  0  0  0  0  0  0  0  0  0  0
    5.3180   -1.2450   11.9547 C   0  0  0  0  0  0  0  0  0  0  0  0
    4.7923   -0.3050   12.8284 C   0  0  0  0  0  0  0  0  0  0  0  0
    5.7950   -1.4590   14.6768 C   0  0  0  0  0  0  0  0  0  0  0  0
    4.5289   -0.3854   10.2138 H   0  0  0  0  0  0  0  0  0  0  0  0
    3.8399    0.8329   11.3524 H   0  0  0  0  0  0  0  0  0  0  0  0
    6.4545   -2.9711   11.8176 H   0  0  0  0  0  0  0  0  0  0  0  0
    6.8799   -3.1546   14.1588 H   0  0  0  0  0  0  0  0  0  0  0  0
    4.6594    0.2722   14.8243 H   0  0  0  0  0  0  0  0  0  0  0  0
  1  5  2  0  0  0  0
  2  5  1  0  0  0  0
  3  9  1  0  0  0  0
  4 10  1  0  0  0  0
  5 11  1  0  0  0  0
  6  7  1  0  0  0  0
  6  9  2  0  0  0  0
  7 11  2  0  0  0  0
  8 10  2  0  0  0  0
  8 11  1  0  0  0  0
  9 10  1  0  0  0  0
  3 12  1  0  0  0  0
  4 13  1  0  0  0  0
  6 14  1  0  0  0  0
  7 15  1  0  0  0  0
  8 16  1  0  0  0  0
M  CHG  2   2  -1   5   1
M  END
> <pdb_id>
5CHR

> <uniprot_id>
Q9NAV7

> <usmiles>
[O-][N+](=O)c1cc(O)c(O)cc1

$$$$
4NC_B_999
          07192417113D 1   1.00000     0.00000     0
            
 16 16  0  0  0  0            999 V2000
   12.7068  -16.5563   39.1036 O   0  5  0  0  0  0  0  0  0  0  0  0
   14.1723  -15.3546   40.0816 O   0  0  0  0  0  0  0  0  0  0  0  0
    8.8927  -12.2406   41.7285 O   0  0  0  0  0  0  0  0  0  0  0  0
    8.2700  -14.4018   40.1941 O   0  0  0  0  0  0  0  0  0  0  0  0
   12.9679  -15.5699   39.8240 N   0  3  0  0  0  0  0  0  0  0  0  0
   11.2246  -12.7921   41.5734 C   0  0  0  0  0  0  0  0  0  0  0  0
   12.2311  -13.6131   41.1117 C   0  0  0  0  0  0  0  0  0  0  0  0
   10.5969  -14.9844   40.0090 C   0  0  0  0  0  0  0  0  0  0  0  0
    9.9093  -13.0607   41.2609 C   0  0  0  0  0  0  0  0  0  0  0  0
    9.6034  -14.1553   40.4827 C   0  0  0  0  0  0  0  0  0  0  0  0
   11.9133  -14.7088   40.3265 C   0  0  0  0  0  0  0  0  0  0  0  0
    7.9411  -12.4425   41.4971 H   0  0  0  0  0  0  0  0  0  0  0  0
    7.5610  -13.7904   40.5455 H   0  0  0  0  0  0  0  0  0  0  0  0
   11.4498  -11.9979   42.1377 H   0  0  0  0  0  0  0  0  0  0  0  0
   13.1846  -13.4189   41.3423 H   0  0  0  0  0  0  0  0  0  0  0  0
   10.3681  -15.7759   39.4424 H   0  0  0  0  0  0  0  0  0  0  0  0
  1  5  1  0  0  0  0
  2  5  2  0  0  0  0
  3  9  1  0  0  0  0
  4 10  1  0  0  0  0
  5 11  1  0  0  0  0
  6  7  1  0  0  0  0
  6  9  2  0  0  0  0
  7 11  2  0  0  0  0
  8 10  2  0  0  0  0
  8 11  1  0  0  0  0
  9 10  1  0  0  0  0
  3 12  1  0  0  0  0
  4 13  1  0  0  0  0
  6 14  1  0  0  0  0
  7 15  1  0  0  0  0
  8 16  1  0  0  0  0
M  CHG  2   1  -1   5   1
M  END
> <pdb_id>
1EOC

> <uniprot_id>
P20371

> <usmiles>
[O-][N+](=O)c1cc(O)c(O)cc1

$$$$
4NC_C_403
          07192416203D 1   1.00000     0.00000     0
            
 16 16  0  0  0  0            999 V2000
    6.1836   39.9794   36.7664 O   0  5  0  0  0  0  0  0  0  0  0  0
    3.8262   40.6720   36.2453 O   0  0  0  0  0  0  0  0  0  0  0  0
    3.2958   34.3816   36.4364 O   0  0  0  0  0  0  0  0  0  0  0  0
    1.4989   36.3325   36.4174 O   0  0  0  0  0  0  0  0  0  0  0  0
    4.8604   39.6698   36.8420 N   0  3  0  0  0  0  0  0  0  0  0  0
    5.1083   35.9505   36.8099 C   0  0  0  0  0  0  0  0  0  0  0  0
    5.4501   37.3152   36.9684 C   0  0  0  0  0  0  0  0  0  0  0  0
    3.1127   38.0367   36.8784 C   0  0  0  0  0  0  0  0  0  0  0  0
    3.7867   35.6150   36.7036 C   0  0  0  0  0  0  0  0  0  0  0  0
    2.7598   36.7061   36.6619 C   0  0  0  0  0  0  0  0  0  0  0  0
    4.4912   38.3352   36.9886 C   0  0  0  0  0  0  0  0  0  0  0  0
    2.3078   34.2383   36.3790 H   0  0  0  0  0  0  0  0  0  0  0  0
    1.2835   35.3676   36.2668 H   0  0  0  0  0  0  0  0  0  0  0  0
    5.8181   35.2469   36.7764 H   0  0  0  0  0  0  0  0  0  0  0  0
    6.4143   37.5602   37.0700 H   0  0  0  0  0  0  0  0  0  0  0  0
    2.4186   38.7527   36.9529 H   0  0  0  0  0  0  0  0  0  0  0  0
  1  5  1  0  0  0  0
  2  5  2  0  0  0  0
  3  9  1  0  0  0  0
  4 10  1  0  0  0  0
  5 11  1  0  0  0  0
  6  7  1  0  0  0  0
  6  9  2  0  0  0  0
  7 11  2  0  0  0  0
  8 10  2  0  0  0  0
  8 11  1  0  0  0  0
  9 10  1  0  0  0  0
  3 12  1  0  0  0  0
  4 13  1  0  0  0  0
  6 14  1  0  0  0  0
  7 15  1  0  0  0  0
  8 16  1  0  0  0  0
M  CHG  2   1  -1   5   1
M  END
> <pdb_id>
4Z6U

> <uniprot_id>
Q45135

> <usmiles>
[O-][N+](=O)c1cc(O)c(O)cc1

$$$$
4NG_A_501
          07192416223D 1   1.00000     0.00000     0
            
 20 20  0  0  0  0            999 V2000
   74.3440  110.6210  -92.6940 P   0  0  0  0  0  0  0  0  0  0  0  0
   75.1320  110.6210  -91.2800 O   0  0  0  0  0  0  0  0  0  0  0  0
   74.7770  109.2440  -93.4260 O   0  0  0  0  0  0  0  0  0  0  0  0
   72.8790  110.7710  -92.5480 O   0  0  0  0  0  0  0  0  0  0  0  0
   78.5290  112.6550  -92.6310 O   0  0  0  0  0  0  0  0  0  0  0  0
   76.5500  114.8110  -92.1710 O   0  0  0  0  0  0  0  0  0  0  0  0
   77.0780  110.9720  -94.3950 O   0  0  0  0  0  0  0  0  0  0  0  0
   77.1240  112.6030  -92.8340 N   0  0  0  0  0  0  0  0  0  0  0  0
   74.8850  113.2840  -92.9890 C   0  0  0  0  0  0  0  0  0  0  0  0
   76.1260  113.4460  -92.1400 C   0  0  2  0  0  0  0  0  0  0  0  0
   75.1120  111.9520  -93.6760 C   0  0  1  0  0  0  0  0  0  0  0  0
   76.4960  111.7880  -93.6810 C   0  0  0  0  0  0  0  0  0  0  0  0
   74.9066  111.4528  -90.7728 H   0  0  0  0  0  0  0  0  0  0  0  0
   74.3210  109.1807  -94.3137 H   0  0  0  0  0  0  0  0  0  0  0  0
   78.7410  113.3500  -91.9440 H   0  0  0  0  0  0  0  0  0  0  0  0
   75.8751  115.3804  -91.7018 H   0  0  0  0  0  0  0  0  0  0  0  0
   74.8076  114.0241  -93.6570 H   0  0  0  0  0  0  0  0  0  0  0  0
   74.0621  113.2598  -92.4214 H   0  0  0  0  0  0  0  0  0  0  0  0
   75.9712  113.1326  -91.2031 H   0  0  0  0  0  0  0  0  0  0  0  0
   74.7497  111.9637  -94.6080 H   0  0  0  0  0  0  0  0  0  0  0  0
  1  2  1  0  0  0  0
  1  3  1  0  0  0  0
  1  4  2  0  0  0  0
  1 11  1  0  0  0  0
  5  8  1  0  0  0  0
  6 10  1  0  0  0  0
  7 12  2  0  0  0  0
  8 10  1  0  0  0  0
  8 12  1  0  0  0  0
  9 10  1  0  0  0  0
  9 11  1  0  0  0  0
 11 12  1  0  0  0  0
  2 13  1  0  0  0  0
  3 14  1  0  0  0  0
  5 15  1  0  0  0  0
  6 16  1  0  0  0  0
  9 17  1  0  0  0  0
  9 18  1  0  0  0  0
 10 19  1  0  0  0  0
 11 20  1  0  0  0  0
M  END
> <pdb_id>
4ZCW

> <uniprot_id>
P09104

> <usmiles>
P(=O)(O)(O)[C@@H]1C(=O)N(O)[C@@H](O)C1

$$$$
4NZ_A_308
          07192416293D 1   1.00000     0.00000     0
            
 19 19  0  0  0  0            999 V2000
   -5.9235    0.9103   16.8703 S   0  0  0  0  0  0  0  0  0  0  0  0
   -5.4068    1.0448   18.2106 O   0  0  0  0  0  0  0  0  0  0  0  0
   -7.3645    0.9970   16.7152 O   0  0  0  0  0  0  0  0  0  0  0  0
   -4.3015    6.5372   13.7148 O   0  5  0  0  0  0  0  0  0  0  0  0
   -2.3553    5.6197   13.8557 O   0  0  0  0  0  0  0  0  0  0  0  0
   -5.3759   -0.4006   16.2074 N   0  0  0  0  0  0  0  0  0  0  0  0
   -3.5678    5.6091   14.0259 N   0  3  0  0  0  0  0  0  0  0  0  0
   -6.0743    3.3456   15.5892 C   0  0  0  0  0  0  0  0  0  0  0  0
   -3.8904    2.3150   15.7032 C   0  0  0  0  0  0  0  0  0  0  0  0
   -5.5180    4.4379   14.9365 C   0  0  0  0  0  0  0  0  0  0  0  0
   -3.3391    3.4082   15.0555 C   0  0  0  0  0  0  0  0  0  0  0  0
   -5.2586    2.2833   15.9626 C   0  0  0  0  0  0  0  0  0  0  0  0
   -4.1617    4.4485   14.6829 C   0  0  0  0  0  0  0  0  0  0  0  0
   -5.7407   -0.4825   15.2799 H   0  0  0  0  0  0  0  0  0  0  0  0
   -4.3773   -0.3635   16.1707 H   0  0  0  0  0  0  0  0  0  0  0  0
   -7.0539    3.3233   15.7892 H   0  0  0  0  0  0  0  0  0  0  0  0
   -3.3086    1.5516   15.9835 H   0  0  0  0  0  0  0  0  0  0  0  0
   -6.0924    5.2062   14.6542 H   0  0  0  0  0  0  0  0  0  0  0  0
   -2.3587    3.4418   14.8612 H   0  0  0  0  0  0  0  0  0  0  0  0
  1  2  2  0  0  0  0
  1  3  2  0  0  0  0
  1  6  1  0  0  0  0
  1 12  1  0  0  0  0
  4  7  1  0  0  0  0
  5  7  2  0  0  0  0
  7 13  1  0  0  0  0
  8 10  1  0  0  0  0
  8 12  2  0  0  0  0
  9 11  2  0  0  0  0
  9 12  1  0  0  0  0
 10 13  2  0  0  0  0
 11 13  1  0  0  0  0
  6 14  1  0  0  0  0
  6 15  1  0  0  0  0
  8 16  1  0  0  0  0
  9 17  1  0  0  0  0
 10 18  1  0  0  0  0
 11 19  1  0  0  0  0
M  CHG  2   4  -1   7   1
M  END
> <pdb_id>
6RH4

> <uniprot_id>
P00918

> <usmiles>
S(=O)(=O)(N)c1ccc([N+]([O-])=O)cc1

$$$$
4O6_A_303
          07192422073D 1   1.00000     0.00000     0
            
 53 55  0  0  0  0            999 V2000
   42.3629   28.7902   12.1137 Cl  0  0  0  0  0  0  0  0  0  0  0  0
   34.3222   27.6111   14.9375 S   0  0  0  0  0  0  0  0  0  0  0  0
   33.7220   28.2390   13.7952 O   0  0  0  0  0  0  0  0  0  0  0  0
   33.9183   26.2869   15.3196 O   0  0  0  0  0  0  0  0  0  0  0  0
   34.0988   32.4127   19.9429 O   0  0  0  0  0  0  0  0  0  0  0  0
   36.2744   30.1611   17.1874 O   0  0  0  0  0  0  0  0  0  0  0  0
   37.9347   34.2536   22.3203 O   0  0  0  0  0  0  0  0  0  0  0  0
   33.9970   28.5671   16.2102 N   0  0  0  0  0  0  0  0  0  0  0  0
   36.1979   32.9693   20.4905 N   0  0  0  0  0  0  0  0  0  0  0  0
   34.7475   31.8595   17.3283 N   0  0  0  0  0  0  0  0  0  0  0  0
   35.4135   34.2417   17.6010 C   0  0  0  0  0  0  0  0  0  0  0  0
   36.0688   27.6041   14.7001 C   0  0  0  0  0  0  0  0  0  0  0  0
   38.0681   34.4793   20.9254 C   0  0  0  0  0  0  0  0  0  0  0  0
   36.5575   34.0723   22.6457 C   0  0  0  0  0  0  0  0  0  0  0  0
   37.5875   33.2952   20.1303 C   0  0  0  0  0  0  0  0  0  0  0  0
   35.9695   32.8740   21.9438 C   0  0  0  0  0  0  0  0  0  0  0  0
   33.3942   32.1607   16.8161 C   0  0  0  0  0  0  0  0  0  0  0  0
   39.6996   28.9211   11.6607 C   0  0  0  0  0  0  0  0  0  0  0  0
   40.3807   27.9132   13.7360 C   0  0  0  0  0  0  0  0  0  0  0  0
   36.5926   27.8761   13.5090 C   0  0  0  0  0  0  0  0  0  0  0  0
   32.8293   30.7844   16.5033 C   0  0  0  0  0  0  0  0  0  0  0  0
   38.3716   28.7100   11.9995 C   0  0  0  0  0  0  0  0  0  0  0  0
   39.0486   27.6966   14.0613 C   0  0  0  0  0  0  0  0  0  0  0  0
   40.6881   28.5230   12.5352 C   0  0  0  0  0  0  0  0  0  0  0  0
   35.2266   32.7040   19.5926 C   0  0  0  0  0  0  0  0  0  0  0  0
   35.1887   30.6461   16.9262 C   0  0  0  0  0  0  0  0  0  0  0  0
   34.0880   30.0222   16.0725 C   0  0  1  0  0  0  0  0  0  0  0  0
   35.5649   32.8111   18.1004 C   0  0  1  0  0  0  0  0  0  0  0  0
   38.0147   28.0907   13.2001 C   0  0  0  0  0  0  0  0  0  0  0  0
   34.6310   28.3054   16.9379 H   0  0  0  0  0  0  0  0  0  0  0  0
   35.9845   34.8495   18.1529 H   0  0  0  0  0  0  0  0  0  0  0  0
   35.7000   34.2929   16.6443 H   0  0  0  0  0  0  0  0  0  0  0  0
   34.4568   34.5221   17.6780 H   0  0  0  0  0  0  0  0  0  0  0  0
   36.6719   27.3934   15.4695 H   0  0  0  0  0  0  0  0  0  0  0  0
   39.0311   34.6448   20.7131 H   0  0  0  0  0  0  0  0  0  0  0  0
   37.5282   35.2821   20.6724 H   0  0  0  0  0  0  0  0  0  0  0  0
   36.0498   34.8892   22.3718 H   0  0  0  0  0  0  0  0  0  0  0  0
   36.4726   33.9428   23.6336 H   0  0  0  0  0  0  0  0  0  0  0  0
   37.6336   33.5118   19.1551 H   0  0  0  0  0  0  0  0  0  0  0  0
   38.1723   32.5077   20.3249 H   0  0  0  0  0  0  0  0  0  0  0  0
   36.4024   32.0425   22.2920 H   0  0  0  0  0  0  0  0  0  0  0  0
   34.9861   32.8372   22.1215 H   0  0  0  0  0  0  0  0  0  0  0  0
   33.4398   32.7257   15.9923 H   0  0  0  0  0  0  0  0  0  0  0  0
   32.8434   32.6258   17.5092 H   0  0  0  0  0  0  0  0  0  0  0  0
   39.9373   29.3568   10.7926 H   0  0  0  0  0  0  0  0  0  0  0  0
   41.1077   27.6317   14.3623 H   0  0  0  0  0  0  0  0  0  0  0  0
   35.9531   27.9417   12.7430 H   0  0  0  0  0  0  0  0  0  0  0  0
   32.1572   30.8257   15.7640 H   0  0  0  0  0  0  0  0  0  0  0  0
   32.4108   30.3699   17.3114 H   0  0  0  0  0  0  0  0  0  0  0  0
   37.6533   29.0077   11.3706 H   0  0  0  0  0  0  0  0  0  0  0  0
   38.8219   27.2506   14.9271 H   0  0  0  0  0  0  0  0  0  0  0  0
   34.2734   30.2368   15.1136 H   0  0  0  0  0  0  0  0  0  0  0  0
   36.5235   32.5498   17.9869 H   0  0  0  0  0  0  0  0  0  0  0  0
  1 24  1  0  0  0  0
  2  3  2  0  0  0  0
  2  4  2  0  0  0  0
  2  8  1  0  0  0  0
  2 12  1  0  0  0  0
  5 25  2  0  0  0  0
  6 26  2  0  0  0  0
  7 13  1  0  0  0  0
  7 14  1  0  0  0  0
  8 27  1  0  0  0  0
  9 15  1  0  0  0  0
  9 16  1  0  0  0  0
  9 25  1  0  0  0  0
 10 17  1  0  0  0  0
 10 26  1  0  0  0  0
 10 28  1  0  0  0  0
 11 28  1  0  0  0  0
 12 20  2  0  0  0  0
 13 15  1  0  0  0  0
 14 16  1  0  0  0  0
 17 21  1  0  0  0  0
 18 22  1  0  0  0  0
 18 24  2  0  0  0  0
 19 23  2  0  0  0  0
 19 24  1  0  0  0  0
 20 29  1  0  0  0  0
 21 27  1  0  0  0  0
 22 29  2  0  0  0  0
 23 29  1  0  0  0  0
 25 28  1  0  0  0  0
 26 27  1  0  0  0  0
  8 30  1  0  0  0  0
 11 31  1  0  0  0  0
 11 32  1  0  0  0  0
 11 33  1  0  0  0  0
 12 34  1  0  0  0  0
 13 35  1  0  0  0  0
 13 36  1  0  0  0  0
 14 37  1  0  0  0  0
 14 38  1  0  0  0  0
 15 39  1  0  0  0  0
 15 40  1  0  0  0  0
 16 41  1  0  0  0  0
 16 42  1  0  0  0  0
 17 43  1  0  0  0  0
 17 44  1  0  0  0  0
 18 45  1  0  0  0  0
 19 46  1  0  0  0  0
 20 47  1  0  0  0  0
 21 48  1  0  0  0  0
 21 49  1  0  0  0  0
 22 50  1  0  0  0  0
 23 51  1  0  0  0  0
 27 52  1  0  0  0  0
 28 53  1  0  0  0  0
M  END
> <pdb_id>
4Y79

> <uniprot_id>
P00742

> <usmiles>
Clc1ccc(cc1)/C=C/S(=O)(=O)N[C@@H]2C(=O)N([C@H](C(=O)N3CCOCC3)C)CC2

$$$$
4P5_C_402
          07202413043D 1   1.00000     0.00000     0
            
 16 17  0  0  0  0            999 V2000
    3.0165  -72.3083   27.2583 O   0  0  0  0  0  0  0  0  0  0  0  0
    4.4047  -72.5761   25.7086 O   0  0  0  0  0  0  0  0  0  0  0  0
    5.5351  -75.6523   30.4307 O   0  0  0  0  0  0  0  0  0  0  0  0
    5.9167  -74.1920   27.3167 N   0  0  0  0  0  0  0  0  0  0  0  0
    6.8139  -76.2620   30.0136 C   0  0  0  0  0  0  0  0  0  0  0  0
    7.2644  -75.8629   28.7753 C   0  0  0  0  0  0  0  0  0  0  0  0
    4.2110  -74.0091   28.9572 C   0  0  0  0  0  0  0  0  0  0  0  0
    4.0439  -72.7795   26.8270 C   0  0  0  0  0  0  0  0  0  0  0  0
    5.2235  -74.8320   29.3838 C   0  0  0  0  0  0  0  0  0  0  0  0
    6.2071  -74.9480   28.3699 C   0  0  0  0  0  0  0  0  0  0  0  0
    4.7458  -73.6540   27.6794 C   0  0  0  0  0  0  0  0  0  0  0  0
    2.7376  -72.4951   28.2003 H   0  0  0  0  0  0  0  0  0  0  0  0
    6.4371  -74.0594   26.4731 H   0  0  0  0  0  0  0  0  0  0  0  0
    7.3130  -76.9131   30.5854 H   0  0  0  0  0  0  0  0  0  0  0  0
    8.0946  -76.1298   28.2859 H   0  0  0  0  0  0  0  0  0  0  0  0
    3.3581  -73.7397   29.4043 H   0  0  0  0  0  0  0  0  0  0  0  0
  1  8  1  0  0  0  0
  2  8  2  0  0  0  0
  3  5  1  0  0  0  0
  3  9  1  0  0  0  0
  4 10  1  0  0  0  0
  4 11  1  0  0  0  0
  5  6  2  0  0  0  0
  6 10  1  0  0  0  0
  7  9  1  0  0  0  0
  7 11  2  0  0  0  0
  8 11  1  0  0  0  0
  9 10  2  0  0  0  0
  1 12  1  0  0  0  0
  4 13  1  0  0  0  0
  5 14  1  0  0  0  0
  6 15  1  0  0  0  0
  7 16  1  0  0  0  0
M  END
> <pdb_id>
3CUK

> <uniprot_id>
P14920

> <usmiles>
O=C(O)C=1NC2=C(OC=C2)C1

$$$$
4PG_U_300
          07202413303D 1   1.00000     0.00000     0
            
 34 35  0  0  0  0            999 V2000
  -25.5467  -16.2995   -5.1267 O   0  0  0  0  0  0  0  0  0  0  0  0
  -32.7961  -20.6967   -1.5550 N   0  0  0  0  0  0  0  0  0  0  0  0
  -32.2563  -20.7743   -3.6828 N   0  0  0  0  0  0  0  0  0  0  0  0
  -31.3120  -19.2477   -2.2371 N   0  0  0  0  0  0  0  0  0  0  0  0
  -26.4592  -11.6269   -3.2734 C   0  0  0  0  0  0  0  0  0  0  0  0
  -25.2886  -12.4437   -3.3028 C   0  0  0  0  0  0  0  0  0  0  0  0
  -27.6694  -12.1045   -3.8428 C   0  0  0  0  0  0  0  0  0  0  0  0
  -25.3330  -13.7342   -3.9026 C   0  0  0  0  0  0  0  0  0  0  0  0
  -27.7156  -13.3970   -4.4439 C   0  0  0  0  0  0  0  0  0  0  0  0
  -30.8895  -18.1361   -4.3731 C   0  0  0  0  0  0  0  0  0  0  0  0
  -29.1677  -18.1923   -2.6191 C   0  0  0  0  0  0  0  0  0  0  0  0
  -30.0215  -17.3946   -5.2142 C   0  0  0  0  0  0  0  0  0  0  0  0
  -28.2899  -17.4448   -3.4655 C   0  0  0  0  0  0  0  0  0  0  0  0
  -27.8143  -16.2195   -5.7506 C   0  0  0  0  0  0  0  0  0  0  0  0
  -32.1050  -20.2392   -2.5269 C   0  0  0  0  0  0  0  0  0  0  0  0
  -26.5675  -15.6217   -5.1170 C   0  0  0  0  0  0  0  0  0  0  0  0
  -30.4679  -18.5419   -3.0654 C   0  0  0  0  0  0  0  0  0  0  0  0
  -28.7127  -17.0346   -4.7810 C   0  0  0  0  0  0  0  0  0  0  0  0
  -26.5449  -14.2301   -4.4791 C   0  0  0  0  0  0  0  0  0  0  0  0
  -32.6995  -20.2996   -0.6423 H   0  0  0  0  0  0  0  0  0  0  0  0
  -33.4337  -21.4520   -1.7067 H   0  0  0  0  0  0  0  0  0  0  0  0
  -31.7289  -20.4373   -4.4627 H   0  0  0  0  0  0  0  0  0  0  0  0
  -31.3166  -18.9585   -1.2798 H   0  0  0  0  0  0  0  0  0  0  0  0
  -26.4270  -10.7202   -2.8527 H   0  0  0  0  0  0  0  0  0  0  0  0
  -24.4361  -12.1089   -2.9015 H   0  0  0  0  0  0  0  0  0  0  0  0
  -28.4902  -11.5337   -3.8222 H   0  0  0  0  0  0  0  0  0  0  0  0
  -24.5085  -14.2998   -3.9211 H   0  0  0  0  0  0  0  0  0  0  0  0
  -28.5705  -13.7267   -4.8447 H   0  0  0  0  0  0  0  0  0  0  0  0
  -31.8045  -18.3780   -4.6958 H   0  0  0  0  0  0  0  0  0  0  0  0
  -28.8632  -18.4700   -1.7080 H   0  0  0  0  0  0  0  0  0  0  0  0
  -30.3323  -17.1205   -6.1243 H   0  0  0  0  0  0  0  0  0  0  0  0
  -27.3747  -17.2047   -3.1417 H   0  0  0  0  0  0  0  0  0  0  0  0
  -27.5260  -16.8263   -6.4914 H   0  0  0  0  0  0  0  0  0  0  0  0
  -28.3612  -15.4713   -6.1263 H   0  0  0  0  0  0  0  0  0  0  0  0
  1 16  2  0  0  0  0
  2 15  1  0  0  0  0
  3 15  2  0  0  0  0
  4 15  1  0  0  0  0
  4 17  1  0  0  0  0
  5  6  2  0  0  0  0
  5  7  1  0  0  0  0
  6  8  1  0  0  0  0
  7  9  2  0  0  0  0
  8 19  2  0  0  0  0
  9 19  1  0  0  0  0
 10 12  2  0  0  0  0
 10 17  1  0  0  0  0
 11 13  1  0  0  0  0
 11 17  2  0  0  0  0
 12 18  1  0  0  0  0
 13 18  2  0  0  0  0
 14 16  1  0  0  0  0
 14 18  1  0  0  0  0
 16 19  1  0  0  0  0
  2 20  1  0  0  0  0
  2 21  1  0  0  0  0
  3 22  1  0  0  0  0
  4 23  1  0  0  0  0
  5 24  1  0  0  0  0
  6 25  1  0  0  0  0
  7 26  1  0  0  0  0
  8 27  1  0  0  0  0
  9 28  1  0  0  0  0
 10 29  1  0  0  0  0
 11 30  1  0  0  0  0
 12 31  1  0  0  0  0
 13 32  1  0  0  0  0
 14 33  1  0  0  0  0
 14 34  1  0  0  0  0
M  END
> <pdb_id>
2R2W

> <uniprot_id>
Q5SWW9

> <usmiles>
O=C(c1ccccc1)Cc2ccc(NC(=N)N)cc2

$$$$
4Q4_B_601
          07202408163D 1   1.00000     0.00000     0
            
 55 58  0  0  0  0            999 V2000
   17.7300   20.4540    9.1810 Cl  0  0  0  0  0  0  0  0  0  0  0  0
   20.5460   20.8750    7.7690 Cl  0  0  0  0  0  0  0  0  0  0  0  0
   19.9580   21.8800    1.3220 O   0  0  0  0  0  0  0  0  0  0  0  0
   28.5470   21.7830    1.7500 O   0  0  0  0  0  0  0  0  0  0  0  0
   27.9400   23.1750    4.4920 N   0  0  0  0  0  0  0  0  0  0  0  0
   22.8160   19.7380    4.1930 N   0  0  0  0  0  0  0  0  0  0  0  0
   20.4890   20.9630    3.7470 N   0  0  0  0  0  0  0  0  0  0  0  0
   23.9080   20.7880    2.3700 N   0  0  0  0  0  0  0  0  0  0  0  0
   30.2900   22.0090    3.6300 C   0  0  0  0  0  0  0  0  0  0  0  0
   22.0210   18.4390    6.1070 C   0  0  0  0  0  0  0  0  0  0  0  0
   21.2200   22.2320    1.8250 C   0  0  0  0  0  0  0  0  0  0  0  0
   27.2540   21.5720    1.6550 C   0  0  0  0  0  0  0  0  0  0  0  0
   24.9970   19.7230    2.4140 C   0  0  0  0  0  0  0  0  0  0  0  0
   24.5340   22.1650    2.1160 C   0  0  0  0  0  0  0  0  0  0  0  0
   16.9370   19.2930    5.4350 C   0  0  0  0  0  0  0  0  0  0  0  0
   16.8110   19.6020    6.7820 C   0  0  0  0  0  0  0  0  0  0  0  0
   18.1650   19.4660    4.8220 C   0  0  0  0  0  0  0  0  0  0  0  0
   26.2390   20.0620    3.2300 C   0  0  0  0  0  0  0  0  0  0  0  0
   25.7210   22.4700    3.0140 C   0  0  0  0  0  0  0  0  0  0  0  0
   17.9100   20.0730    7.4680 C   0  0  0  0  0  0  0  0  0  0  0  0
   19.1430   20.2490    6.8520 C   0  0  0  0  0  0  0  0  0  0  0  0
   28.9800   21.3550    3.2410 C   0  0  1  0  0  0  0  0  0  0  0  0
   22.7200   20.5870    3.1770 C   0  0  0  0  0  0  0  0  0  0  0  0
   21.7960   19.4700    4.9870 C   0  0  0  0  0  0  0  0  0  0  0  0
   27.9650   21.6920    4.0060 C   0  0  2  0  0  0  0  0  0  0  0  0
   21.5010   21.2310    2.9460 C   0  0  0  0  0  0  0  0  0  0  0  0
   20.5800   20.1080    4.7470 C   0  0  0  0  0  0  0  0  0  0  0  0
   19.2740   19.9240    5.5290 C   0  0  0  0  0  0  0  0  0  0  0  0
   26.7340   21.4360    3.1090 C   0  0  0  0  0  0  0  0  0  0  0  0
   19.7105   22.5010    0.5783 H   0  0  0  0  0  0  0  0  0  0  0  0
   27.1329   23.3251    5.0630 H   0  0  0  0  0  0  0  0  0  0  0  0
   28.7649   23.3653    5.0243 H   0  0  0  0  0  0  0  0  0  0  0  0
   30.5394   21.7300    4.5574 H   0  0  0  0  0  0  0  0  0  0  0  0
   31.0064   21.7253    2.9926 H   0  0  0  0  0  0  0  0  0  0  0  0
   30.1889   23.0033    3.5968 H   0  0  0  0  0  0  0  0  0  0  0  0
   21.1773   18.3280    6.6323 H   0  0  0  0  0  0  0  0  0  0  0  0
   22.2811   17.5612    5.7047 H   0  0  0  0  0  0  0  0  0  0  0  0
   22.7507   18.7578    6.7119 H   0  0  0  0  0  0  0  0  0  0  0  0
   21.2061   23.1652    2.1841 H   0  0  0  0  0  0  0  0  0  0  0  0
   21.9147   22.1605    1.1093 H   0  0  0  0  0  0  0  0  0  0  0  0
   27.0760   20.7320    1.1425 H   0  0  0  0  0  0  0  0  0  0  0  0
   26.8092   22.3421    1.1977 H   0  0  0  0  0  0  0  0  0  0  0  0
   25.2887   19.5462    1.4740 H   0  0  0  0  0  0  0  0  0  0  0  0
   24.5958   18.8925    2.8003 H   0  0  0  0  0  0  0  0  0  0  0  0
   23.8345   22.8631    2.2690 H   0  0  0  0  0  0  0  0  0  0  0  0
   24.8398   22.2024    1.1646 H   0  0  0  0  0  0  0  0  0  0  0  0
   16.1534   18.9511    4.9163 H   0  0  0  0  0  0  0  0  0  0  0  0
   15.9345   19.4845    7.2489 H   0  0  0  0  0  0  0  0  0  0  0  0
   18.2586   19.2573    3.8485 H   0  0  0  0  0  0  0  0  0  0  0  0
   26.9721   19.4465    2.9408 H   0  0  0  0  0  0  0  0  0  0  0  0
   26.0262   19.8975    4.1931 H   0  0  0  0  0  0  0  0  0  0  0  0
   25.3710   22.6399    3.9352 H   0  0  0  0  0  0  0  0  0  0  0  0
   26.1616   23.2979    2.6668 H   0  0  0  0  0  0  0  0  0  0  0  0
   29.0927   20.3619    3.2724 H   0  0  0  0  0  0  0  0  0  0  0  0
   27.9304   21.0828    4.7983 H   0  0  0  0  0  0  0  0  0  0  0  0
  1 20  1  0  0  0  0
  2 21  1  0  0  0  0
  3 11  1  0  0  0  0
  4 12  1  0  0  0  0
  4 22  1  0  0  0  0
  5 25  1  0  0  0  0
  6 23  2  0  0  0  0
  6 24  1  0  0  0  0
  7 26  2  0  0  0  0
  7 27  1  0  0  0  0
  8 13  1  0  0  0  0
  8 14  1  0  0  0  0
  8 23  1  0  0  0  0
  9 22  1  0  0  0  0
 10 24  1  0  0  0  0
 11 26  1  0  0  0  0
 12 29  1  0  0  0  0
 13 18  1  0  0  0  0
 14 19  1  0  0  0  0
 15 16  2  0  0  0  0
 15 17  1  0  0  0  0
 16 20  1  0  0  0  0
 17 28  2  0  0  0  0
 18 29  1  0  0  0  0
 19 29  1  0  0  0  0
 20 21  2  0  0  0  0
 21 28  1  0  0  0  0
 22 25  1  0  0  0  0
 23 26  1  0  0  0  0
 24 27  2  0  0  0  0
 25 29  1  0  0  0  0
 27 28  1  0  0  0  0
  3 30  1  0  0  0  0
  5 31  1  0  0  0  0
  5 32  1  0  0  0  0
  9 33  1  0  0  0  0
  9 34  1  0  0  0  0
  9 35  1  0  0  0  0
 10 36  1  0  0  0  0
 10 37  1  0  0  0  0
 10 38  1  0  0  0  0
 11 39  1  0  0  0  0
 11 40  1  0  0  0  0
 12 41  1  0  0  0  0
 12 42  1  0  0  0  0
 13 43  1  0  0  0  0
 13 44  1  0  0  0  0
 14 45  1  0  0  0  0
 14 46  1  0  0  0  0
 15 47  1  0  0  0  0
 16 48  1  0  0  0  0
 17 49  1  0  0  0  0
 18 50  1  0  0  0  0
 18 51  1  0  0  0  0
 19 52  1  0  0  0  0
 19 53  1  0  0  0  0
 22 54  1  0  0  0  0
 25 55  1  0  0  0  0
M  END
> <pdb_id>
7RCT

> <uniprot_id>
Q06124

> <usmiles>
Clc1c(Cl)cccc1c2nc(c(nc2C)N3CCC4([C@H](N)[C@@H](OC4)C)CC3)CO

$$$$
4QF_A_501
          07202405583D 1   1.00000     0.00000     0
            
 66 70  0  0  0  0            999 V2000
   71.6336   48.5128   12.6965 F   0  0  0  0  0  0  0  0  0  0  0  0
   67.8243   44.8156   12.9197 O   0  0  0  0  0  0  0  0  0  0  0  0
   66.0054   45.2100   11.6054 N   0  0  0  0  0  0  0  0  0  0  0  0
   64.5660   45.9908    9.8719 N   0  0  0  0  0  0  0  0  0  0  0  0
   68.1757   48.2039    7.7916 N   0  0  0  0  0  0  0  0  0  0  0  0
   67.9588   46.0400   10.9242 N   0  0  0  0  0  0  0  0  0  0  0  0
   67.6208   50.2628    9.0813 C   0  0  0  0  0  0  0  0  0  0  0  0
   68.3325   46.7011    7.7315 C   0  0  0  0  0  0  0  0  0  0  0  0
   69.2259   48.9155    6.9689 C   0  0  0  0  0  0  0  0  0  0  0  0
   60.4262   45.1865   10.7282 C   0  0  0  0  0  0  0  0  0  0  0  0
   73.2671   48.2659    8.2181 C   0  0  0  0  0  0  0  0  0  0  0  0
   61.1954   44.2016    9.8543 C   0  0  0  0  0  0  0  0  0  0  0  0
   61.3177   45.7401   11.8330 C   0  0  0  0  0  0  0  0  0  0  0  0
   72.5362   49.2945    8.7792 C   0  0  0  0  0  0  0  0  0  0  0  0
   72.7128   47.4593    7.2351 C   0  0  0  0  0  0  0  0  0  0  0  0
   71.6107   45.6756   10.4567 C   0  0  0  0  0  0  0  0  0  0  0  0
   72.0922   46.7100   11.2437 C   0  0  0  0  0  0  0  0  0  0  0  0
   62.4747   44.8366    9.2924 C   0  0  0  0  0  0  0  0  0  0  0  0
   62.5877   46.3832   11.2605 C   0  0  0  0  0  0  0  0  0  0  0  0
   70.2537   45.4464   10.3505 C   0  0  0  0  0  0  0  0  0  0  0  0
   71.2270   49.4952    8.3712 C   0  0  0  0  0  0  0  0  0  0  0  0
   71.4122   47.6847    6.8208 C   0  0  0  0  0  0  0  0  0  0  0  0
   67.2800   45.9317    8.5191 C   0  0  0  0  0  0  0  0  0  0  0  0
   69.8342   47.2984   11.7977 C   0  0  0  0  0  0  0  0  0  0  0  0
   66.8197   48.0377    9.8742 C   0  0  0  0  0  0  0  0  0  0  0  0
   67.3246   45.3060   11.9142 C   0  0  0  0  0  0  0  0  0  0  0  0
   71.1923   47.5155   11.9065 C   0  0  0  0  0  0  0  0  0  0  0  0
   65.7944   45.8718   10.5057 C   0  0  0  0  0  0  0  0  0  0  0  0
   63.3560   45.3785   10.4128 C   0  0  0  0  0  0  0  0  0  0  0  0
   67.9353   48.7814    9.1559 C   0  0  1  0  0  0  0  0  0  0  0  0
   69.3542   46.2751   11.0007 C   0  0  0  0  0  0  0  0  0  0  0  0
   70.6549   48.6951    7.3971 C   0  0  0  0  0  0  0  0  0  0  0  0
   67.0320   46.5209    9.9029 C   0  0  2  0  0  0  0  0  0  0  0  0
   64.5076   46.5110    9.0198 H   0  0  0  0  0  0  0  0  0  0  0  0
   67.4660   50.6175   10.0034 H   0  0  0  0  0  0  0  0  0  0  0  0
   68.3898   50.7461    8.6629 H   0  0  0  0  0  0  0  0  0  0  0  0
   66.7992   50.4017    8.5285 H   0  0  0  0  0  0  0  0  0  0  0  0
   69.2327   46.4648    8.0972 H   0  0  0  0  0  0  0  0  0  0  0  0
   68.2768   46.4180    6.7740 H   0  0  0  0  0  0  0  0  0  0  0  0
   69.0394   49.8968    7.0156 H   0  0  0  0  0  0  0  0  0  0  0  0
   69.1376   48.6040    6.0228 H   0  0  0  0  0  0  0  0  0  0  0  0
   59.6452   44.7179   11.1411 H   0  0  0  0  0  0  0  0  0  0  0  0
   60.0996   45.9424   10.1608 H   0  0  0  0  0  0  0  0  0  0  0  0
   74.2050   48.1010    8.5234 H   0  0  0  0  0  0  0  0  0  0  0  0
   60.6120   43.9163    9.0939 H   0  0  0  0  0  0  0  0  0  0  0  0
   61.4420   43.4029   10.4031 H   0  0  0  0  0  0  0  0  0  0  0  0
   61.5789   44.9934   12.4447 H   0  0  0  0  0  0  0  0  0  0  0  0
   60.8078   46.4296   12.3473 H   0  0  0  0  0  0  0  0  0  0  0  0
   72.9468   49.8876    9.4718 H   0  0  0  0  0  0  0  0  0  0  0  0
   73.2497   46.7199    6.8287 H   0  0  0  0  0  0  0  0  0  0  0  0
   72.2524   45.0901    9.9613 H   0  0  0  0  0  0  0  0  0  0  0  0
   73.0758   46.8689   11.3289 H   0  0  0  0  0  0  0  0  0  0  0  0
   62.2252   45.5875    8.6808 H   0  0  0  0  0  0  0  0  0  0  0  0
   62.9849   44.1454    8.7807 H   0  0  0  0  0  0  0  0  0  0  0  0
   63.1690   46.6916   12.0135 H   0  0  0  0  0  0  0  0  0  0  0  0
   62.3334   47.1665   10.6933 H   0  0  0  0  0  0  0  0  0  0  0  0
   69.9190   44.6798    9.8025 H   0  0  0  0  0  0  0  0  0  0  0  0
   70.6881   50.2282    8.7863 H   0  0  0  0  0  0  0  0  0  0  0  0
   71.0148   47.1156    6.1009 H   0  0  0  0  0  0  0  0  0  0  0  0
   67.5875   44.9860    8.6246 H   0  0  0  0  0  0  0  0  0  0  0  0
   66.4217   45.9478    8.0062 H   0  0  0  0  0  0  0  0  0  0  0  0
   69.1946   47.8830   12.2969 H   0  0  0  0  0  0  0  0  0  0  0  0
   65.9566   48.2297    9.4070 H   0  0  0  0  0  0  0  0  0  0  0  0
   66.7701   48.3703   10.8160 H   0  0  0  0  0  0  0  0  0  0  0  0
   63.6254   44.6140   10.9985 H   0  0  0  0  0  0  0  0  0  0  0  0
   68.7735   48.6706    9.6898 H   0  0  0  0  0  0  0  0  0  0  0  0
  1 27  1  0  0  0  0
  2 26  2  0  0  0  0
  3 26  1  0  0  0  0
  3 28  2  0  0  0  0
  4 28  1  0  0  0  0
  4 29  1  0  0  0  0
  5  8  1  0  0  0  0
  5  9  1  0  0  0  0
  5 30  1  0  0  0  0
  6 26  1  0  0  0  0
  6 31  1  0  0  0  0
  6 33  1  0  0  0  0
  7 30  1  0  0  0  0
  8 23  1  0  0  0  0
  9 32  1  0  0  0  0
 10 12  1  0  0  0  0
 10 13  1  0  0  0  0
 11 14  2  0  0  0  0
 11 15  1  0  0  0  0
 12 18  1  0  0  0  0
 13 19  1  0  0  0  0
 14 21  1  0  0  0  0
 15 22  2  0  0  0  0
 16 17  2  0  0  0  0
 16 20  1  0  0  0  0
 17 27  1  0  0  0  0
 18 29  1  0  0  0  0
 19 29  1  0  0  0  0
 20 31  2  0  0  0  0
 21 32  2  0  0  0  0
 22 32  1  0  0  0  0
 23 33  1  0  0  0  0
 24 27  2  0  0  0  0
 24 31  1  0  0  0  0
 25 30  1  0  0  0  0
 25 33  1  0  0  0  0
 28 33  1  0  0  0  0
  4 34  1  0  0  0  0
  7 35  1  0  0  0  0
  7 36  1  0  0  0  0
  7 37  1  0  0  0  0
  8 38  1  0  0  0  0
  8 39  1  0  0  0  0
  9 40  1  0  0  0  0
  9 41  1  0  0  0  0
 10 42  1  0  0  0  0
 10 43  1  0  0  0  0
 11 44  1  0  0  0  0
 12 45  1  0  0  0  0
 12 46  1  0  0  0  0
 13 47  1  0  0  0  0
 13 48  1  0  0  0  0
 14 49  1  0  0  0  0
 15 50  1  0  0  0  0
 16 51  1  0  0  0  0
 17 52  1  0  0  0  0
 18 53  1  0  0  0  0
 18 54  1  0  0  0  0
 19 55  1  0  0  0  0
 19 56  1  0  0  0  0
 20 57  1  0  0  0  0
 21 58  1  0  0  0  0
 22 59  1  0  0  0  0
 23 60  1  0  0  0  0
 23 61  1  0  0  0  0
 24 62  1  0  0  0  0
 25 63  1  0  0  0  0
 25 64  1  0  0  0  0
 29 65  1  0  0  0  0
 30 66  1  0  0  0  0
M  END
> <pdb_id>
4ZPG

> <uniprot_id>
P56817

> <usmiles>
Fc1cc(N2C(=O)N=C(NC3CCCCC3)[C@@]24C[C@@H](N(Cc5ccccc5)CC4)C)ccc1

$$$$
4QG_A_400
          07202405063D 1   1.00000     0.00000     0
            
 32 34  0  0  0  0            999 V2000
  -19.6715   -9.1835   29.4495 Cl  0  0  0  0  0  0  0  0  0  0  0  0
  -12.5368    1.7865   27.7357 O   0  0  0  0  0  0  0  0  0  0  0  0
  -15.3029   -4.1125   30.4477 O   0  0  0  0  0  0  0  0  0  0  0  0
  -12.7685    2.7554   29.7228 N   0  0  0  0  0  0  0  0  0  0  0  0
  -13.9422   -4.0804   32.1271 N   0  0  0  0  0  0  0  0  0  0  0  0
  -14.6381   -5.2281   32.2017 C   0  0  0  0  0  0  0  0  0  0  0  0
  -17.8965   -8.1553   31.2199 C   0  0  0  0  0  0  0  0  0  0  0  0
  -18.0420   -7.0623   29.0703 C   0  0  0  0  0  0  0  0  0  0  0  0
  -12.8507    0.0415   30.8304 C   0  0  0  0  0  0  0  0  0  0  0  0
  -13.8061   -0.5801   28.6793 C   0  0  0  0  0  0  0  0  0  0  0  0
  -16.9277   -7.2530   31.6343 C   0  0  0  0  0  0  0  0  0  0  0  0
  -17.0779   -6.1567   29.4678 C   0  0  0  0  0  0  0  0  0  0  0  0
  -13.2270   -1.1746   31.3559 C   0  0  0  0  0  0  0  0  0  0  0  0
  -14.1722   -1.7953   29.2011 C   0  0  0  0  0  0  0  0  0  0  0  0
  -18.4499   -8.0587   29.9478 C   0  0  0  0  0  0  0  0  0  0  0  0
  -12.7783    1.6704   28.9230 C   0  0  0  0  0  0  0  0  0  0  0  0
  -14.3358   -3.4146   31.0566 C   0  0  0  0  0  0  0  0  0  0  0  0
  -15.5034   -5.2453   31.1415 C   0  0  0  0  0  0  0  0  0  0  0  0
  -13.1395    0.3510   29.4883 C   0  0  0  0  0  0  0  0  0  0  0  0
  -13.8802   -2.1106   30.5424 C   0  0  0  0  0  0  0  0  0  0  0  0
  -16.5036   -6.2557   30.7471 C   0  0  0  0  0  0  0  0  0  0  0  0
  -12.9670    2.6594   30.6982 H   0  0  0  0  0  0  0  0  0  0  0  0
  -12.5627    3.6563   29.3407 H   0  0  0  0  0  0  0  0  0  0  0  0
  -14.5417   -5.9365   32.9008 H   0  0  0  0  0  0  0  0  0  0  0  0
  -18.1987   -8.8795   31.8397 H   0  0  0  0  0  0  0  0  0  0  0  0
  -18.4438   -7.0010   28.1566 H   0  0  0  0  0  0  0  0  0  0  0  0
  -12.3713    0.7060   31.4036 H   0  0  0  0  0  0  0  0  0  0  0  0
  -14.0137   -0.3596   27.7263 H   0  0  0  0  0  0  0  0  0  0  0  0
  -16.5377   -7.3138   32.5531 H   0  0  0  0  0  0  0  0  0  0  0  0
  -16.7882   -5.4300   28.8451 H   0  0  0  0  0  0  0  0  0  0  0  0
  -13.0350   -1.3889   32.3136 H   0  0  0  0  0  0  0  0  0  0  0  0
  -14.6488   -2.4604   28.6262 H   0  0  0  0  0  0  0  0  0  0  0  0
  1 15  1  0  0  0  0
  2 16  2  0  0  0  0
  3 17  1  0  0  0  0
  3 18  1  0  0  0  0
  4 16  1  0  0  0  0
  5  6  1  0  0  0  0
  5 17  2  0  0  0  0
  6 18  2  0  0  0  0
  7 11  1  0  0  0  0
  7 15  2  0  0  0  0
  8 12  2  0  0  0  0
  8 15  1  0  0  0  0
  9 13  1  0  0  0  0
  9 19  2  0  0  0  0
 10 14  2  0  0  0  0
 10 19  1  0  0  0  0
 11 21  2  0  0  0  0
 12 21  1  0  0  0  0
 13 20  2  0  0  0  0
 14 20  1  0  0  0  0
 16 19  1  0  0  0  0
 17 20  1  0  0  0  0
 18 21  1  0  0  0  0
  4 22  1  0  0  0  0
  4 23  1  0  0  0  0
  6 24  1  0  0  0  0
  7 25  1  0  0  0  0
  8 26  1  0  0  0  0
  9 27  1  0  0  0  0
 10 28  1  0  0  0  0
 11 29  1  0  0  0  0
 12 30  1  0  0  0  0
 13 31  1  0  0  0  0
 14 32  1  0  0  0  0
M  END
> <pdb_id>
4ZP5

> <uniprot_id>
O95819

> <usmiles>
Clc1ccc(cc1)C=2OC(=NC2)c3ccc(cc3)C(=O)N

$$$$
4QR_A_301
          07202407183D 1   1.00000     0.00000     0
            
 49 52  0  0  0  0            999 V2000
   24.9114   19.3335   -2.2482 Cl  0  0  0  0  0  0  0  0  0  0  0  0
   27.1197   20.0195   -4.6864 Cl  0  0  0  0  0  0  0  0  0  0  0  0
   32.6186   18.2352   -4.8646 S   0  0  0  0  0  0  0  0  0  0  0  0
   27.6298   19.4276  -13.4936 O   0  0  0  0  0  0  0  0  0  0  0  0
   28.3728   18.2230  -11.7932 O   0  0  0  0  0  0  0  0  0  0  0  0
   37.5267   19.5182   -6.8134 O   0  0  0  0  0  0  0  0  0  0  0  0
   37.1552   20.4914   -8.8159 O   0  0  0  0  0  0  0  0  0  0  0  0
   30.6006   17.1084   -3.3921 O   0  0  0  0  0  0  0  0  0  0  0  0
   32.1695   20.5436   -9.2428 O   0  0  0  0  0  0  0  0  0  0  0  0
   29.8997   18.3302   -5.1530 N   0  0  0  0  0  0  0  0  0  0  0  0
   31.2092   19.2702   -6.8151 N   0  0  0  0  0  0  0  0  0  0  0  0
   28.0940   17.1817   -2.2173 N   0  0  0  0  0  0  0  0  0  0  0  0
   26.2612   16.9026   -0.5335 C   0  0  0  0  0  0  0  0  0  0  0  0
   31.1596   21.4886   -8.9598 C   0  0  0  0  0  0  0  0  0  0  0  0
   29.0222   22.9569  -11.6928 C   0  0  0  0  0  0  0  0  0  0  0  0
   29.8782   22.8621  -10.6047 C   0  0  0  0  0  0  0  0  0  0  0  0
   28.5231   21.8135  -12.2906 C   0  0  0  0  0  0  0  0  0  0  0  0
   34.8175   19.0933   -6.4003 C   0  0  0  0  0  0  0  0  0  0  0  0
   34.3729   20.2463   -8.4650 C   0  0  0  0  0  0  0  0  0  0  0  0
   29.7287   20.4682  -10.7317 C   0  0  0  0  0  0  0  0  0  0  0  0
   31.1284   18.6590   -5.6731 C   0  0  0  0  0  0  0  0  0  0  0  0
   28.2736   19.3067  -12.4371 C   0  0  0  0  0  0  0  0  0  0  0  0
   36.7660   19.9101   -7.7527 C   0  0  0  0  0  0  0  0  0  0  0  0
   26.3938   18.5301   -2.5010 C   0  0  0  0  0  0  0  0  0  0  0  0
   27.3293   18.8133   -3.4937 C   0  0  0  0  0  0  0  0  0  0  0  0
   33.4514   18.9671   -6.2026 C   0  0  0  0  0  0  0  0  0  0  0  0
   29.7205   17.7637   -3.9486 C   0  0  0  0  0  0  0  0  0  0  0  0
   33.0080   20.1062   -8.2671 C   0  0  0  0  0  0  0  0  0  0  0  0
   26.8761   17.5386   -1.7284 C   0  0  0  0  0  0  0  0  0  0  0  0
   28.4076   17.9543   -3.3128 C   0  0  0  0  0  0  0  0  0  0  0  0
   32.5284   19.4511   -7.1447 C   0  0  0  0  0  0  0  0  0  0  0  0
   30.2648   21.6110  -10.1485 C   0  0  0  0  0  0  0  0  0  0  0  0
   28.8746   20.5580  -11.8273 C   0  0  0  0  0  0  0  0  0  0  0  0
   35.2813   19.7313   -7.5520 C   0  0  0  0  0  0  0  0  0  0  0  0
   27.5898   20.3133  -13.9561 H   0  0  0  0  0  0  0  0  0  0  0  0
   37.1375   19.0683   -6.0096 H   0  0  0  0  0  0  0  0  0  0  0  0
   29.0891   18.5246   -5.7054 H   0  0  0  0  0  0  0  0  0  0  0  0
   28.6763   16.4634   -1.8368 H   0  0  0  0  0  0  0  0  0  0  0  0
   25.3696   17.3191   -0.3559 H   0  0  0  0  0  0  0  0  0  0  0  0
   26.1445   15.9235   -0.7001 H   0  0  0  0  0  0  0  0  0  0  0  0
   26.8559   17.0373    0.2590 H   0  0  0  0  0  0  0  0  0  0  0  0
   31.5761   22.3756   -8.7605 H   0  0  0  0  0  0  0  0  0  0  0  0
   30.6277   21.1849   -8.1693 H   0  0  0  0  0  0  0  0  0  0  0  0
   28.7649   23.8561  -12.0466 H   0  0  0  0  0  0  0  0  0  0  0  0
   30.2134   23.6891  -10.1534 H   0  0  0  0  0  0  0  0  0  0  0  0
   27.8996   21.8955  -13.0682 H   0  0  0  0  0  0  0  0  0  0  0  0
   35.4624   18.7322   -5.7267 H   0  0  0  0  0  0  0  0  0  0  0  0
   34.7071   20.7250   -9.2769 H   0  0  0  0  0  0  0  0  0  0  0  0
   29.9598   19.5695  -10.3589 H   0  0  0  0  0  0  0  0  0  0  0  0
  1 24  1  0  0  0  0
  2 25  1  0  0  0  0
  3 21  1  0  0  0  0
  3 26  1  0  0  0  0
  4 22  1  0  0  0  0
  5 22  2  0  0  0  0
  6 23  1  0  0  0  0
  7 23  2  0  0  0  0
  8 27  2  0  0  0  0
  9 14  1  0  0  0  0
  9 28  1  0  0  0  0
 10 21  1  0  0  0  0
 10 27  1  0  0  0  0
 11 21  2  0  0  0  0
 11 31  1  0  0  0  0
 12 29  1  0  0  0  0
 12 30  1  0  0  0  0
 13 29  1  0  0  0  0
 14 32  1  0  0  0  0
 15 16  2  0  0  0  0
 15 17  1  0  0  0  0
 16 32  1  0  0  0  0
 17 33  2  0  0  0  0
 18 26  1  0  0  0  0
 18 34  2  0  0  0  0
 19 28  2  0  0  0  0
 19 34  1  0  0  0  0
 20 32  2  0  0  0  0
 20 33  1  0  0  0  0
 22 33  1  0  0  0  0
 23 34  1  0  0  0  0
 24 25  1  0  0  0  0
 24 29  2  0  0  0  0
 25 30  2  0  0  0  0
 26 31  2  0  0  0  0
 27 30  1  0  0  0  0
 28 31  1  0  0  0  0
  4 35  1  0  0  0  0
  6 36  1  0  0  0  0
 10 37  1  0  0  0  0
 12 38  1  0  0  0  0
 13 39  1  0  0  0  0
 13 40  1  0  0  0  0
 13 41  1  0  0  0  0
 14 42  1  0  0  0  0
 14 43  1  0  0  0  0
 15 44  1  0  0  0  0
 16 45  1  0  0  0  0
 17 46  1  0  0  0  0
 18 47  1  0  0  0  0
 19 48  1  0  0  0  0
 20 49  1  0  0  0  0
M  END
> <pdb_id>
7P2W

> <uniprot_id>
P0AES6

> <usmiles>
ClC=1C(Cl)=C(NC1C(=O)NC=2Sc3c(N2)c(OCc4cc(ccc4)C(=O)O)cc(c3)C(=O)O)C

$$$$
4R3_A_302
          07202407183D 1   1.00000     0.00000     0
            
 33 35  0  0  0  0            999 V2000
   24.8726   19.4871   -2.0621 Cl  0  0  0  0  0  0  0  0  0  0  0  0
   27.1083   20.2629   -4.4487 Cl  0  0  0  0  0  0  0  0  0  0  0  0
   32.5340   18.2896   -4.9080 S   0  0  0  0  0  0  0  0  0  0  0  0
   37.4456   19.3536   -7.0291 O   0  0  0  0  0  0  0  0  0  0  0  0
   37.0969   20.3819   -8.9490 O   0  0  0  0  0  0  0  0  0  0  0  0
   30.4976   17.1819   -3.4968 O   0  0  0  0  0  0  0  0  0  0  0  0
   34.7529   21.1782   -9.4780 O   0  0  0  0  0  0  0  0  0  0  0  0
   29.8402   18.7179   -5.0189 N   0  0  0  0  0  0  0  0  0  0  0  0
   31.1549   19.5986   -6.7002 N   0  0  0  0  0  0  0  0  0  0  0  0
   28.0138   17.2534   -2.1913 N   0  0  0  0  0  0  0  0  0  0  0  0
   26.2503   16.8537   -0.4764 C   0  0  0  0  0  0  0  0  0  0  0  0
   32.9223   20.4146   -8.1807 C   0  0  0  0  0  0  0  0  0  0  0  0
   34.7495   19.1212   -6.4511 C   0  0  0  0  0  0  0  0  0  0  0  0
   31.0672   18.9277   -5.5981 C   0  0  0  0  0  0  0  0  0  0  0  0
   36.6905   19.8919   -7.8290 C   0  0  0  0  0  0  0  0  0  0  0  0
   26.3641   18.6720   -2.3394 C   0  0  0  0  0  0  0  0  0  0  0  0
   27.3013   18.9785   -3.3354 C   0  0  0  0  0  0  0  0  0  0  0  0
   29.6351   17.9398   -3.9194 C   0  0  0  0  0  0  0  0  0  0  0  0
   33.3905   19.0713   -6.2180 C   0  0  0  0  0  0  0  0  0  0  0  0
   34.3020   20.4672   -8.4227 C   0  0  0  0  0  0  0  0  0  0  0  0
   26.8216   17.5997   -1.6404 C   0  0  0  0  0  0  0  0  0  0  0  0
   32.4843   19.7331   -7.0506 C   0  0  0  0  0  0  0  0  0  0  0  0
   28.3306   18.1019   -3.2213 C   0  0  0  0  0  0  0  0  0  0  0  0
   35.2134   19.8201   -7.5616 C   0  0  0  0  0  0  0  0  0  0  0  0
   37.0861   18.9869   -6.1710 H   0  0  0  0  0  0  0  0  0  0  0  0
   35.7339   21.2267   -9.6657 H   0  0  0  0  0  0  0  0  0  0  0  0
   29.0460   19.1649   -5.4305 H   0  0  0  0  0  0  0  0  0  0  0  0
   28.5808   16.4874   -1.8886 H   0  0  0  0  0  0  0  0  0  0  0  0
   25.3729   17.2587   -0.2191 H   0  0  0  0  0  0  0  0  0  0  0  0
   26.1140   15.8958   -0.7289 H   0  0  0  0  0  0  0  0  0  0  0  0
   26.8821   16.9080    0.2968 H   0  0  0  0  0  0  0  0  0  0  0  0
   32.2731   20.8537   -8.8017 H   0  0  0  0  0  0  0  0  0  0  0  0
   35.3893   18.6636   -5.8336 H   0  0  0  0  0  0  0  0  0  0  0  0
  1 16  1  0  0  0  0
  2 17  1  0  0  0  0
  3 14  1  0  0  0  0
  3 19  1  0  0  0  0
  4 15  1  0  0  0  0
  5 15  2  0  0  0  0
  6 18  2  0  0  0  0
  7 20  1  0  0  0  0
  8 14  1  0  0  0  0
  8 18  1  0  0  0  0
  9 14  2  0  0  0  0
  9 22  1  0  0  0  0
 10 21  1  0  0  0  0
 10 23  1  0  0  0  0
 11 21  1  0  0  0  0
 12 20  2  0  0  0  0
 12 22  1  0  0  0  0
 13 19  1  0  0  0  0
 13 24  2  0  0  0  0
 15 24  1  0  0  0  0
 16 17  1  0  0  0  0
 16 21  2  0  0  0  0
 17 23  2  0  0  0  0
 18 23  1  0  0  0  0
 19 22  2  0  0  0  0
 20 24  1  0  0  0  0
  4 25  1  0  0  0  0
  7 26  1  0  0  0  0
  8 27  1  0  0  0  0
 10 28  1  0  0  0  0
 11 29  1  0  0  0  0
 11 30  1  0  0  0  0
 11 31  1  0  0  0  0
 12 32  1  0  0  0  0
 13 33  1  0  0  0  0
M  END
> <pdb_id>
7P2N

> <uniprot_id>
P0AES6

> <usmiles>
ClC=1C(Cl)=C(NC1C(=O)NC=2Sc3c(N2)cc(O)c(c3)C(=O)O)C

$$$$
4R9_D_201
          07192422123D 1   1.00000     0.00000     0
            
 26 26  0  0  0  0            999 V2000
   11.8071   13.4870   63.9806 O   0  0  0  0  0  0  0  0  0  0  0  0
   11.9194   12.2945   66.3884 O   0  0  0  0  0  0  0  0  0  0  0  0
   12.9778   13.2788   64.6949 N   0  0  0  0  0  0  0  0  0  0  0  0
   11.3541   17.2814   71.2570 C   0  0  0  0  0  0  0  0  0  0  0  0
   12.4632   17.7915   70.6118 C   0  0  0  0  0  0  0  0  0  0  0  0
   10.7912   16.1043   70.8045 C   0  0  0  0  0  0  0  0  0  0  0  0
   13.6776   13.9593   68.0478 C   0  0  0  0  0  0  0  0  0  0  0  0
   14.1123   13.1763   66.8072 C   0  0  0  0  0  0  0  0  0  0  0  0
   12.9994   17.1274   69.5105 C   0  0  0  0  0  0  0  0  0  0  0  0
   11.3036   15.4662   69.6872 C   0  0  0  0  0  0  0  0  0  0  0  0
   12.9549   15.2832   67.7752 C   0  0  0  0  0  0  0  0  0  0  0  0
   12.9199   12.8514   65.9297 C   0  0  0  0  0  0  0  0  0  0  0  0
   12.4031   15.9779   69.0063 C   0  0  0  0  0  0  0  0  0  0  0  0
   12.0307   13.8110   63.0613 H   0  0  0  0  0  0  0  0  0  0  0  0
   13.8641   13.4551   64.2667 H   0  0  0  0  0  0  0  0  0  0  0  0
   10.9626   17.7592   72.0435 H   0  0  0  0  0  0  0  0  0  0  0  0
   12.8827   18.6395   70.9357 H   0  0  0  0  0  0  0  0  0  0  0  0
   10.0088   15.7102   71.2866 H   0  0  0  0  0  0  0  0  0  0  0  0
   14.4954   14.1605   68.5870 H   0  0  0  0  0  0  0  0  0  0  0  0
   13.0626   13.3769   68.5795 H   0  0  0  0  0  0  0  0  0  0  0  0
   14.5499   12.3241   67.0942 H   0  0  0  0  0  0  0  0  0  0  0  0
   14.7639   13.7260   66.2844 H   0  0  0  0  0  0  0  0  0  0  0  0
   13.8266   17.4837   69.0760 H   0  0  0  0  0  0  0  0  0  0  0  0
   10.8754   14.6222   69.3642 H   0  0  0  0  0  0  0  0  0  0  0  0
   12.1924   15.0985   67.1552 H   0  0  0  0  0  0  0  0  0  0  0  0
   13.6017   15.9042   67.3323 H   0  0  0  0  0  0  0  0  0  0  0  0
  1  3  1  0  0  0  0
  2 12  2  0  0  0  0
  3 12  1  0  0  0  0
  4  5  2  0  0  0  0
  4  6  1  0  0  0  0
  5  9  1  0  0  0  0
  6 10  2  0  0  0  0
  7  8  1  0  0  0  0
  7 11  1  0  0  0  0
  8 12  1  0  0  0  0
  9 13  2  0  0  0  0
 10 13  1  0  0  0  0
 11 13  1  0  0  0  0
  1 14  1  0  0  0  0
  3 15  1  0  0  0  0
  4 16  1  0  0  0  0
  5 17  1  0  0  0  0
  6 18  1  0  0  0  0
  7 19  1  0  0  0  0
  7 20  1  0  0  0  0
  8 21  1  0  0  0  0
  8 22  1  0  0  0  0
  9 23  1  0  0  0  0
 10 24  1  0  0  0  0
 11 25  1  0  0  0  0
 11 26  1  0  0  0  0
M  END
> <pdb_id>
7FJH

> <uniprot_id>
Q05097

> <usmiles>
O=C(NO)CCCc1ccccc1

$$$$
4RC_B_801
          07192416263D 1   1.00000     0.00000     0
            
 46 49  0  0  0  0            999 V2000
  -41.6840   17.0823    7.0016 Cl  0  0  0  0  0  0  0  0  0  0  0  0
  -36.9156   14.6312    7.1985 Cl  0  0  0  0  0  0  0  0  0  0  0  0
  -45.9563   17.9796   16.4645 F   0  0  0  0  0  0  0  0  0  0  0  0
  -42.8836   13.5617   12.0638 N   0  0  0  0  0  0  0  0  0  0  0  0
  -41.6944   11.4883    8.5741 N   0  0  0  0  0  0  0  0  0  0  0  0
  -38.5383   12.0890    7.2248 N   0  0  0  0  0  0  0  0  0  0  0  0
  -45.3778   16.2652   15.0242 N   0  0  0  0  0  0  0  0  0  0  0  0
  -44.4254   14.6642   13.4336 N   0  0  0  0  0  0  0  0  0  0  0  0
  -42.2702   15.2403   13.6021 N   0  0  0  0  0  0  0  0  0  0  0  0
  -43.8546   12.6872   11.4235 C   0  0  0  0  0  0  0  0  0  0  0  0
  -42.8710   12.1483    9.1482 C   0  0  0  0  0  0  0  0  0  0  0  0
  -39.1548   10.7616    7.2328 C   0  0  0  0  0  0  0  0  0  0  0  0
  -43.1678   11.6610   10.5465 C   0  0  0  0  0  0  0  0  0  0  0  0
  -40.5247   10.7818    6.5742 C   0  0  0  0  0  0  0  0  0  0  0  0
  -43.6655   17.7982   15.9619 C   0  0  0  0  0  0  0  0  0  0  0  0
  -42.6833   17.0957   15.2873 C   0  0  0  0  0  0  0  0  0  0  0  0
  -39.3793   15.6907    7.0875 C   0  0  0  0  0  0  0  0  0  0  0  0
  -41.4119   14.3961    7.0667 C   0  0  0  0  0  0  0  0  0  0  0  0
  -40.7548   15.6118    7.0484 C   0  0  0  0  0  0  0  0  0  0  0  0
  -44.9565   17.3482   15.8056 C   0  0  0  0  0  0  0  0  0  0  0  0
  -43.1579   14.4665   13.0057 C   0  0  0  0  0  0  0  0  0  0  0  0
  -38.6528   14.5171    7.1463 C   0  0  0  0  0  0  0  0  0  0  0  0
  -44.3692   15.6580   14.3843 C   0  0  0  0  0  0  0  0  0  0  0  0
  -41.4079   11.8686    7.1823 C   0  0  2  0  0  0  0  0  0  0  0  0
  -43.0235   16.0061   14.4862 C   0  0  0  0  0  0  0  0  0  0  0  0
  -39.2758   13.2606    7.1700 C   0  0  0  0  0  0  0  0  0  0  0  0
  -40.6814   13.2035    7.1346 C   0  0  0  0  0  0  0  0  0  0  0  0
  -41.9304   13.4776   11.7734 H   0  0  0  0  0  0  0  0  0  0  0  0
  -41.8432   10.4999    8.6048 H   0  0  0  0  0  0  0  0  0  0  0  0
  -37.5410   12.1532    7.2604 H   0  0  0  0  0  0  0  0  0  0  0  0
  -45.2439   14.1825   13.1205 H   0  0  0  0  0  0  0  0  0  0  0  0
  -44.4699   13.2389   10.8605 H   0  0  0  0  0  0  0  0  0  0  0  0
  -44.3826   12.2136   12.1285 H   0  0  0  0  0  0  0  0  0  0  0  0
  -43.6623   11.9607    8.5663 H   0  0  0  0  0  0  0  0  0  0  0  0
  -42.7056   13.1341    9.1783 H   0  0  0  0  0  0  0  0  0  0  0  0
  -39.2534   10.4544    8.1794 H   0  0  0  0  0  0  0  0  0  0  0  0
  -38.5643   10.1257    6.7359 H   0  0  0  0  0  0  0  0  0  0  0  0
  -43.7594   10.8574   10.4805 H   0  0  0  0  0  0  0  0  0  0  0  0
  -42.3040   11.4044   10.9801 H   0  0  0  0  0  0  0  0  0  0  0  0
  -40.9635    9.8927    6.7047 H   0  0  0  0  0  0  0  0  0  0  0  0
  -40.4149   10.9589    5.5962 H   0  0  0  0  0  0  0  0  0  0  0  0
  -43.4491   18.5905   16.5323 H   0  0  0  0  0  0  0  0  0  0  0  0
  -41.7257   17.3702   15.3745 H   0  0  0  0  0  0  0  0  0  0  0  0
  -38.9176   16.5777    7.0737 H   0  0  0  0  0  0  0  0  0  0  0  0
  -42.4109   14.3681    7.0315 H   0  0  0  0  0  0  0  0  0  0  0  0
  -42.2635   11.9330    6.6686 H   0  0  0  0  0  0  0  0  0  0  0  0
  1 19  1  0  0  0  0
  2 22  1  0  0  0  0
  3 20  1  0  0  0  0
  4 10  1  0  0  0  0
  4 21  1  0  0  0  0
  5 11  1  0  0  0  0
  5 24  1  0  0  0  0
  6 12  1  0  0  0  0
  6 26  1  0  0  0  0
  7 20  1  0  0  0  0
  7 23  2  0  0  0  0
  8 21  1  0  0  0  0
  8 23  1  0  0  0  0
  9 21  2  0  0  0  0
  9 25  1  0  0  0  0
 10 13  1  0  0  0  0
 11 13  1  0  0  0  0
 12 14  1  0  0  0  0
 14 24  1  0  0  0  0
 15 16  1  0  0  0  0
 15 20  2  0  0  0  0
 16 25  2  0  0  0  0
 17 19  2  0  0  0  0
 17 22  1  0  0  0  0
 18 19  1  0  0  0  0
 18 27  2  0  0  0  0
 22 26  2  0  0  0  0
 23 25  1  0  0  0  0
 24 27  1  0  0  0  0
 26 27  1  0  0  0  0
  4 28  1  0  0  0  0
  5 29  1  0  0  0  0
  6 30  1  0  0  0  0
  8 31  1  0  0  0  0
 10 32  1  0  0  0  0
 10 33  1  0  0  0  0
 11 34  1  0  0  0  0
 11 35  1  0  0  0  0
 12 36  1  0  0  0  0
 12 37  1  0  0  0  0
 13 38  1  0  0  0  0
 13 39  1  0  0  0  0
 14 40  1  0  0  0  0
 14 41  1  0  0  0  0
 15 42  1  0  0  0  0
 16 43  1  0  0  0  0
 17 44  1  0  0  0  0
 18 45  1  0  0  0  0
 24 46  1  0  0  0  0
M  END
> <pdb_id>
4ZT7

> <uniprot_id>
Q38C91

> <usmiles>
Clc1c2NCC[C@@H](NCCCNC3=Nc4c(nc(F)cc4)N3)c2cc(Cl)c1

$$$$
4RD_B_802
          07192416263D 1   1.00000     0.00000     0
            
 45 48  0  0  0  0            999 V2000
  -41.6180   17.1340    7.0300 Cl  0  0  0  0  0  0  0  0  0  0  0  0
  -36.8210   14.7300    7.0190 Cl  0  0  0  0  0  0  0  0  0  0  0  0
  -45.8980   17.9050   16.4350 F   0  0  0  0  0  0  0  0  0  0  0  0
  -38.4140   12.2280    7.0560 O   0  0  0  0  0  0  0  0  0  0  0  0
  -42.9110   13.4610   12.0490 N   0  0  0  0  0  0  0  0  0  0  0  0
  -41.7470   11.5240    8.4890 N   0  0  0  0  0  0  0  0  0  0  0  0
  -45.3550   16.2200   14.9820 N   0  0  0  0  0  0  0  0  0  0  0  0
  -44.4440   14.6000   13.4140 N   0  0  0  0  0  0  0  0  0  0  0  0
  -42.2660   15.1650   13.5180 N   0  0  0  0  0  0  0  0  0  0  0  0
  -39.0120   10.9120    7.0950 C   0  0  0  0  0  0  0  0  0  0  0  0
  -43.9200   12.6290   11.4090 C   0  0  0  0  0  0  0  0  0  0  0  0
  -42.7380   12.3570    9.1820 C   0  0  0  0  0  0  0  0  0  0  0  0
  -43.3070   11.6780   10.4050 C   0  0  0  0  0  0  0  0  0  0  0  0
  -43.6250   17.7310   15.8730 C   0  0  0  0  0  0  0  0  0  0  0  0
  -40.4230   10.8540    6.5550 C   0  0  0  0  0  0  0  0  0  0  0  0
  -42.6430   17.0480   15.1820 C   0  0  0  0  0  0  0  0  0  0  0  0
  -39.3040   15.7730    7.0480 C   0  0  0  0  0  0  0  0  0  0  0  0
  -41.3260   14.4620    7.0830 C   0  0  0  0  0  0  0  0  0  0  0  0
  -44.9150   17.2830   15.7440 C   0  0  0  0  0  0  0  0  0  0  0  0
  -40.6770   15.6790    7.0590 C   0  0  0  0  0  0  0  0  0  0  0  0
  -38.5650   14.6100    7.0520 C   0  0  0  0  0  0  0  0  0  0  0  0
  -43.1830   14.3840   12.9760 C   0  0  0  0  0  0  0  0  0  0  0  0
  -44.3580   15.6150   14.3280 C   0  0  0  0  0  0  0  0  0  0  0  0
  -39.1920   13.3560    7.0820 C   0  0  0  0  0  0  0  0  0  0  0  0
  -41.3180   11.9390    7.1450 C   0  0  2  0  0  0  0  0  0  0  0  0
  -43.0030   15.9610   14.3890 C   0  0  0  0  0  0  0  0  0  0  0  0
  -40.5930   13.2750    7.1060 C   0  0  0  0  0  0  0  0  0  0  0  0
  -41.9567   13.3339   11.7784 H   0  0  0  0  0  0  0  0  0  0  0  0
  -42.1346   10.6058    8.4075 H   0  0  0  0  0  0  0  0  0  0  0  0
  -45.2713   14.1164   13.1281 H   0  0  0  0  0  0  0  0  0  0  0  0
  -39.0276   10.6031    8.0460 H   0  0  0  0  0  0  0  0  0  0  0  0
  -38.4434   10.2934    6.5528 H   0  0  0  0  0  0  0  0  0  0  0  0
  -44.5754   13.2193   10.9378 H   0  0  0  0  0  0  0  0  0  0  0  0
  -44.3945   12.0976   12.1108 H   0  0  0  0  0  0  0  0  0  0  0  0
  -43.4860   12.5592    8.5498 H   0  0  0  0  0  0  0  0  0  0  0  0
  -42.2995   13.2105    9.4634 H   0  0  0  0  0  0  0  0  0  0  0  0
  -44.0140   11.0362   10.1078 H   0  0  0  0  0  0  0  0  0  0  0  0
  -42.5698   11.1759   10.8572 H   0  0  0  0  0  0  0  0  0  0  0  0
  -43.4041   18.5211   16.4448 H   0  0  0  0  0  0  0  0  0  0  0  0
  -40.8143    9.9604    6.7751 H   0  0  0  0  0  0  0  0  0  0  0  0
  -40.3916   10.9688    5.5621 H   0  0  0  0  0  0  0  0  0  0  0  0
  -41.6861   17.3303   15.2502 H   0  0  0  0  0  0  0  0  0  0  0  0
  -38.8528   16.6653    7.0373 H   0  0  0  0  0  0  0  0  0  0  0  0
  -42.3255   14.4304    7.0839 H   0  0  0  0  0  0  0  0  0  0  0  0
  -42.1329   12.0132    6.5701 H   0  0  0  0  0  0  0  0  0  0  0  0
  1 20  1  0  0  0  0
  2 21  1  0  0  0  0
  3 19  1  0  0  0  0
  4 10  1  0  0  0  0
  4 24  1  0  0  0  0
  5 11  1  0  0  0  0
  5 22  1  0  0  0  0
  6 12  1  0  0  0  0
  6 25  1  0  0  0  0
  7 19  1  0  0  0  0
  7 23  2  0  0  0  0
  8 22  1  0  0  0  0
  8 23  1  0  0  0  0
  9 22  2  0  0  0  0
  9 26  1  0  0  0  0
 10 15  1  0  0  0  0
 11 13  1  0  0  0  0
 12 13  1  0  0  0  0
 14 16  1  0  0  0  0
 14 19  2  0  0  0  0
 15 25  1  0  0  0  0
 16 26  2  0  0  0  0
 17 20  2  0  0  0  0
 17 21  1  0  0  0  0
 18 20  1  0  0  0  0
 18 27  2  0  0  0  0
 21 24  2  0  0  0  0
 23 26  1  0  0  0  0
 24 27  1  0  0  0  0
 25 27  1  0  0  0  0
  5 28  1  0  0  0  0
  6 29  1  0  0  0  0
  8 30  1  0  0  0  0
 10 31  1  0  0  0  0
 10 32  1  0  0  0  0
 11 33  1  0  0  0  0
 11 34  1  0  0  0  0
 12 35  1  0  0  0  0
 12 36  1  0  0  0  0
 13 37  1  0  0  0  0
 13 38  1  0  0  0  0
 14 39  1  0  0  0  0
 15 40  1  0  0  0  0
 15 41  1  0  0  0  0
 16 42  1  0  0  0  0
 17 43  1  0  0  0  0
 18 44  1  0  0  0  0
 25 45  1  0  0  0  0
M  END
> <pdb_id>
4ZT6

> <uniprot_id>
Q38C91

> <usmiles>
Clc1c2OCC[C@@H](NCCCNC3=Nc4c(nc(F)cc4)N3)c2cc(Cl)c1

$$$$
4RI_A_201
          07202413363D 1   1.00000     0.00000     0
            
 42 43  0  0  0  0            999 V2000
   18.4871    7.5407    4.9249 N   0  0  0  0  0  0  0  0  0  0  0  0
   18.9263    8.1567    0.2665 N   0  0  0  0  0  0  0  0  0  0  0  0
   18.6972    7.8218    2.5835 N   0  0  0  0  0  0  0  0  0  0  0  0
   17.2540    6.1637    3.4858 N   0  0  0  0  0  0  0  0  0  0  0  0
   11.9333    5.7957   -1.4172 C   0  0  0  0  0  0  0  0  0  0  0  0
   12.5671    6.4210   -0.1724 C   0  0  0  0  0  0  0  0  0  0  0  0
   13.3555    5.3531    0.5799 C   0  0  0  0  0  0  0  0  0  0  0  0
   13.8154    5.9797    1.8967 C   0  0  0  0  0  0  0  0  0  0  0  0
   16.2979    5.5273   -2.9437 C   0  0  0  0  0  0  0  0  0  0  0  0
   14.5522    4.9583    2.7592 C   0  0  0  0  0  0  0  0  0  0  0  0
   17.0883    4.6753   -2.3109 C   0  0  0  0  0  0  0  0  0  0  0  0
   15.7941    6.7780   -2.2473 C   0  0  0  0  0  0  0  0  0  0  0  0
   15.9093    4.6381    2.1340 C   0  0  0  0  0  0  0  0  0  0  0  0
   17.5138    4.9520   -0.8724 C   0  0  0  0  0  0  0  0  0  0  0  0
   16.1541    7.0191   -1.0058 C   0  0  0  0  0  0  0  0  0  0  0  0
   18.1319    7.1522    3.5754 C   0  0  0  0  0  0  0  0  0  0  0  0
   18.3393    7.4538    1.3729 C   0  0  0  0  0  0  0  0  0  0  0  0
   16.9039    5.7920    2.2661 C   0  0  0  0  0  0  0  0  0  0  0  0
   17.0593    6.0486   -0.2705 C   0  0  0  0  0  0  0  0  0  0  0  0
   17.4419    6.4159    1.1668 C   0  0  0  0  0  0  0  0  0  0  0  0
   18.0843    7.0623    5.7053 H   0  0  0  0  0  0  0  0  0  0  0  0
   19.1350    8.2872    5.0762 H   0  0  0  0  0  0  0  0  0  0  0  0
   18.6812    7.9081   -0.6706 H   0  0  0  0  0  0  0  0  0  0  0  0
   19.5801    8.8948    0.4332 H   0  0  0  0  0  0  0  0  0  0  0  0
   11.4153    6.4926   -1.9133 H   0  0  0  0  0  0  0  0  0  0  0  0
   12.6515    5.4299   -2.0090 H   0  0  0  0  0  0  0  0  0  0  0  0
   11.3187    5.0561   -1.1426 H   0  0  0  0  0  0  0  0  0  0  0  0
   11.8495    6.7865    0.4205 H   0  0  0  0  0  0  0  0  0  0  0  0
   13.1823    7.1603   -0.4459 H   0  0  0  0  0  0  0  0  0  0  0  0
   14.1478    5.0677    0.0405 H   0  0  0  0  0  0  0  0  0  0  0  0
   12.7732    4.5608    0.7617 H   0  0  0  0  0  0  0  0  0  0  0  0
   13.0165    6.3143    2.3964 H   0  0  0  0  0  0  0  0  0  0  0  0
   14.4290    6.7441    1.6986 H   0  0  0  0  0  0  0  0  0  0  0  0
   16.0300    5.3453   -3.8898 H   0  0  0  0  0  0  0  0  0  0  0  0
   14.0087    4.1211    2.8202 H   0  0  0  0  0  0  0  0  0  0  0  0
   14.6890    5.3343    3.6757 H   0  0  0  0  0  0  0  0  0  0  0  0
   17.4069    3.8494   -2.7761 H   0  0  0  0  0  0  0  0  0  0  0  0
   15.1923    7.4146   -2.7294 H   0  0  0  0  0  0  0  0  0  0  0  0
   15.7759    4.4398    1.1630 H   0  0  0  0  0  0  0  0  0  0  0  0
   16.2900    3.8333    2.5894 H   0  0  0  0  0  0  0  0  0  0  0  0
   18.1226    4.3215   -0.3909 H   0  0  0  0  0  0  0  0  0  0  0  0
   15.8300    7.8451   -0.5447 H   0  0  0  0  0  0  0  0  0  0  0  0
  1 16  1  0  0  0  0
  2 17  1  0  0  0  0
  3 16  2  0  0  0  0
  3 17  1  0  0  0  0
  4 16  1  0  0  0  0
  4 18  2  0  0  0  0
  5  6  1  0  0  0  0
  6  7  1  0  0  0  0
  7  8  1  0  0  0  0
  8 10  1  0  0  0  0
  9 11  2  0  0  0  0
  9 12  1  0  0  0  0
 10 13  1  0  0  0  0
 11 14  1  0  0  0  0
 12 15  2  0  0  0  0
 13 18  1  0  0  0  0
 14 19  2  0  0  0  0
 15 19  1  0  0  0  0
 17 20  2  0  0  0  0
 18 20  1  0  0  0  0
 19 20  1  0  0  0  0
  1 21  1  0  0  0  0
  1 22  1  0  0  0  0
  2 23  1  0  0  0  0
  2 24  1  0  0  0  0
  5 25  1  0  0  0  0
  5 26  1  0  0  0  0
  5 27  1  0  0  0  0
  6 28  1  0  0  0  0
  6 29  1  0  0  0  0
  7 30  1  0  0  0  0
  7 31  1  0  0  0  0
  8 32  1  0  0  0  0
  8 33  1  0  0  0  0
  9 34  1  0  0  0  0
 10 35  1  0  0  0  0
 10 36  1  0  0  0  0
 11 37  1  0  0  0  0
 12 38  1  0  0  0  0
 13 39  1  0  0  0  0
 13 40  1  0  0  0  0
 14 41  1  0  0  0  0
 15 42  1  0  0  0  0
M  END
> <pdb_id>
7XI7

> <uniprot_id>
P00374

> <usmiles>
n1c(nc(c(c1N)c2ccccc2)CCCCCC)N

$$$$
4RN_B_806
          07192416263D 1   1.00000     0.00000     0
            
 43 45  0  0  0  0            999 V2000
  -41.5829   17.4834    7.0599 Cl  0  0  0  0  0  0  0  0  0  0  0  0
  -36.8484   14.9149    7.2479 Cl  0  0  0  0  0  0  0  0  0  0  0  0
  -41.8061   11.8572    8.5462 N   0  0  0  0  0  0  0  0  0  0  0  0
  -43.0100   13.5780   12.1292 N   0  0  0  0  0  0  0  0  0  0  0  0
  -45.3931   16.3389   15.1179 N   0  0  0  0  0  0  0  0  0  0  0  0
  -44.5263   14.6832   13.5528 N   0  0  0  0  0  0  0  0  0  0  0  0
  -42.4008   15.2915   13.6615 N   0  0  0  0  0  0  0  0  0  0  0  0
  -44.5104   10.7542   10.0882 C   0  0  0  0  0  0  0  0  0  0  0  0
  -45.0474   17.4102   15.8490 C   0  0  0  0  0  0  0  0  0  0  0  0
  -42.9841   12.5364    9.1031 C   0  0  0  0  0  0  0  0  0  0  0  0
  -41.3991   12.3109    7.2119 C   0  0  0  0  0  0  0  0  0  0  0  0
  -43.9934   12.7095   11.5041 C   0  0  0  0  0  0  0  0  0  0  0  0
  -43.7477   17.8699   15.9733 C   0  0  0  0  0  0  0  0  0  0  0  0
  -42.7304   17.1913   15.3209 C   0  0  0  0  0  0  0  0  0  0  0  0
  -39.2956   16.0741    7.2008 C   0  0  0  0  0  0  0  0  0  0  0  0
  -41.3529   14.8109    7.1569 C   0  0  0  0  0  0  0  0  0  0  0  0
  -39.2520   13.6592    7.2790 C   0  0  0  0  0  0  0  0  0  0  0  0
  -43.3075   14.4722   13.0795 C   0  0  0  0  0  0  0  0  0  0  0  0
  -40.6733   16.0093    7.1519 C   0  0  0  0  0  0  0  0  0  0  0  0
  -38.6023   14.8795    7.2519 C   0  0  0  0  0  0  0  0  0  0  0  0
  -44.3980   15.6983   14.4753 C   0  0  0  0  0  0  0  0  0  0  0  0
  -43.0840   16.0820   14.5658 C   0  0  0  0  0  0  0  0  0  0  0  0
  -43.4214   11.7747   10.4075 C   0  0  1  0  0  0  0  0  0  0  0  0
  -40.6458   13.6194    7.2240 C   0  0  0  0  0  0  0  0  0  0  0  0
  -42.0089   10.8795    8.4924 H   0  0  0  0  0  0  0  0  0  0  0  0
  -42.0578   13.5033   11.8327 H   0  0  0  0  0  0  0  0  0  0  0  0
  -45.3656   14.2050   13.2942 H   0  0  0  0  0  0  0  0  0  0  0  0
  -44.7777   10.2787   10.9264 H   0  0  0  0  0  0  0  0  0  0  0  0
  -45.3051   11.2240    9.7037 H   0  0  0  0  0  0  0  0  0  0  0  0
  -44.1621   10.0914    9.4254 H   0  0  0  0  0  0  0  0  0  0  0  0
  -45.7703   17.9047   16.3315 H   0  0  0  0  0  0  0  0  0  0  0  0
  -43.7296   12.5217    8.4368 H   0  0  0  0  0  0  0  0  0  0  0  0
  -42.7546   13.4839    9.3256 H   0  0  0  0  0  0  0  0  0  0  0  0
  -42.2199   12.4235    6.6520 H   0  0  0  0  0  0  0  0  0  0  0  0
  -40.8116   11.6112    6.8054 H   0  0  0  0  0  0  0  0  0  0  0  0
  -44.6980   13.2843   11.0880 H   0  0  0  0  0  0  0  0  0  0  0  0
  -44.4050   12.1405   12.2160 H   0  0  0  0  0  0  0  0  0  0  0  0
  -43.5458   18.6789   16.5253 H   0  0  0  0  0  0  0  0  0  0  0  0
  -41.7785   17.4896   15.3915 H   0  0  0  0  0  0  0  0  0  0  0  0
  -38.8170   16.9521    7.1994 H   0  0  0  0  0  0  0  0  0  0  0  0
  -42.3519   14.8001    7.1124 H   0  0  0  0  0  0  0  0  0  0  0  0
  -38.7263   12.8105    7.3377 H   0  0  0  0  0  0  0  0  0  0  0  0
  -42.6281   11.2921   10.7788 H   0  0  0  0  0  0  0  0  0  0  0  0
  1 19  1  0  0  0  0
  2 20  1  0  0  0  0
  3 10  1  0  0  0  0
  3 11  1  0  0  0  0
  4 12  1  0  0  0  0
  4 18  1  0  0  0  0
  5  9  1  0  0  0  0
  5 21  2  0  0  0  0
  6 18  1  0  0  0  0
  6 21  1  0  0  0  0
  7 18  2  0  0  0  0
  7 22  1  0  0  0  0
  8 23  1  0  0  0  0
  9 13  2  0  0  0  0
 10 23  1  0  0  0  0
 11 24  1  0  0  0  0
 12 23  1  0  0  0  0
 13 14  1  0  0  0  0
 14 22  2  0  0  0  0
 15 19  2  0  0  0  0
 15 20  1  0  0  0  0
 16 19  1  0  0  0  0
 16 24  2  0  0  0  0
 17 20  2  0  0  0  0
 17 24  1  0  0  0  0
 21 22  1  0  0  0  0
  3 25  1  0  0  0  0
  4 26  1  0  0  0  0
  6 27  1  0  0  0  0
  8 28  1  0  0  0  0
  8 29  1  0  0  0  0
  8 30  1  0  0  0  0
  9 31  1  0  0  0  0
 10 32  1  0  0  0  0
 10 33  1  0  0  0  0
 11 34  1  0  0  0  0
 11 35  1  0  0  0  0
 12 36  1  0  0  0  0
 12 37  1  0  0  0  0
 13 38  1  0  0  0  0
 14 39  1  0  0  0  0
 15 40  1  0  0  0  0
 16 41  1  0  0  0  0
 17 42  1  0  0  0  0
 23 43  1  0  0  0  0
M  END
> <pdb_id>
4ZT5

> <uniprot_id>
Q38C91

> <usmiles>
Clc1cc(Cl)cc(c1)CNC[C@@H](CNC2=Nc3c(nccc3)N2)C

$$$$
4RO_B_803
          07192416263D 1   1.00000     0.00000     0
            
 40 42  0  0  0  0            999 V2000
  -37.0289   14.6564    7.2395 Cl  0  0  0  0  0  0  0  0  0  0  0  0
  -41.6085   17.5022    7.2560 Cl  0  0  0  0  0  0  0  0  0  0  0  0
  -45.3028   11.7892    9.7048 F   0  0  0  0  0  0  0  0  0  0  0  0
  -44.9256   13.9220    9.9099 F   0  0  0  0  0  0  0  0  0  0  0  0
  -43.0268   12.4358    8.0308 N   0  0  0  0  0  0  0  0  0  0  0  0
  -45.6057   16.3548   15.1802 N   0  0  0  0  0  0  0  0  0  0  0  0
  -43.2000   13.4272   12.3075 N   0  0  0  0  0  0  0  0  0  0  0  0
  -44.7442   14.6407   13.6793 N   0  0  0  0  0  0  0  0  0  0  0  0
  -42.5992   15.2298   13.6423 N   0  0  0  0  0  0  0  0  0  0  0  0
  -45.2200   17.4418   15.8649 C   0  0  0  0  0  0  0  0  0  0  0  0
  -43.9130   17.9041   15.9037 C   0  0  0  0  0  0  0  0  0  0  0  0
  -41.7208   12.3106    7.3549 C   0  0  0  0  0  0  0  0  0  0  0  0
  -42.9256   12.4974    9.4911 C   0  0  0  0  0  0  0  0  0  0  0  0
  -44.1573   12.4973   11.7296 C   0  0  0  0  0  0  0  0  0  0  0  0
  -42.9323   17.2150   15.2054 C   0  0  0  0  0  0  0  0  0  0  0  0
  -39.4105   15.9541    7.1910 C   0  0  0  0  0  0  0  0  0  0  0  0
  -39.5086   13.5415    7.3061 C   0  0  0  0  0  0  0  0  0  0  0  0
  -41.5424   14.8189    7.2362 C   0  0  0  0  0  0  0  0  0  0  0  0
  -38.7867   14.7219    7.2444 C   0  0  0  0  0  0  0  0  0  0  0  0
  -40.7914   15.9742    7.2034 C   0  0  0  0  0  0  0  0  0  0  0  0
  -43.5115   14.3879   13.1840 C   0  0  0  0  0  0  0  0  0  0  0  0
  -44.6295   15.7238   14.5129 C   0  0  0  0  0  0  0  0  0  0  0  0
  -40.9055   13.5836    7.2956 C   0  0  0  0  0  0  0  0  0  0  0  0
  -43.3094   16.0809   14.4867 C   0  0  0  0  0  0  0  0  0  0  0  0
  -44.3752   12.6901   10.1809 C   0  0  0  0  0  0  0  0  0  0  0  0
  -43.5873   11.6449    7.7854 H   0  0  0  0  0  0  0  0  0  0  0  0
  -42.2429   13.3423   12.0303 H   0  0  0  0  0  0  0  0  0  0  0  0
  -41.6221   15.2506   13.4307 H   0  0  0  0  0  0  0  0  0  0  0  0
  -45.9145   17.9477   16.3766 H   0  0  0  0  0  0  0  0  0  0  0  0
  -43.6807   18.7232   16.4282 H   0  0  0  0  0  0  0  0  0  0  0  0
  -41.8851   12.0038    6.4175 H   0  0  0  0  0  0  0  0  0  0  0  0
  -41.1845   11.6215    7.8421 H   0  0  0  0  0  0  0  0  0  0  0  0
  -42.3410   13.2684    9.7436 H   0  0  0  0  0  0  0  0  0  0  0  0
  -42.5182   11.6471    9.8242 H   0  0  0  0  0  0  0  0  0  0  0  0
  -45.0362   12.6230   12.1897 H   0  0  0  0  0  0  0  0  0  0  0  0
  -43.8281   11.5665   11.8882 H   0  0  0  0  0  0  0  0  0  0  0  0
  -41.9810   17.5231   15.2171 H   0  0  0  0  0  0  0  0  0  0  0  0
  -38.8808   16.8011    7.1449 H   0  0  0  0  0  0  0  0  0  0  0  0
  -39.0327   12.6636    7.3578 H   0  0  0  0  0  0  0  0  0  0  0  0
  -42.5410   14.8686    7.2174 H   0  0  0  0  0  0  0  0  0  0  0  0
  1 19  1  0  0  0  0
  2 20  1  0  0  0  0
  3 25  1  0  0  0  0
  4 25  1  0  0  0  0
  5 12  1  0  0  0  0
  5 13  1  0  0  0  0
  6 10  2  0  0  0  0
  6 22  1  0  0  0  0
  7 14  1  0  0  0  0
  7 21  1  0  0  0  0
  8 21  2  0  0  0  0
  8 22  1  0  0  0  0
  9 21  1  0  0  0  0
  9 24  1  0  0  0  0
 10 11  1  0  0  0  0
 11 15  2  0  0  0  0
 12 23  1  0  0  0  0
 13 25  1  0  0  0  0
 14 25  1  0  0  0  0
 15 24  1  0  0  0  0
 16 19  2  0  0  0  0
 16 20  1  0  0  0  0
 17 19  1  0  0  0  0
 17 23  2  0  0  0  0
 18 20  2  0  0  0  0
 18 23  1  0  0  0  0
 22 24  2  0  0  0  0
  5 26  1  0  0  0  0
  7 27  1  0  0  0  0
  9 28  1  0  0  0  0
 10 29  1  0  0  0  0
 11 30  1  0  0  0  0
 12 31  1  0  0  0  0
 12 32  1  0  0  0  0
 13 33  1  0  0  0  0
 13 34  1  0  0  0  0
 14 35  1  0  0  0  0
 14 36  1  0  0  0  0
 15 37  1  0  0  0  0
 16 38  1  0  0  0  0
 17 39  1  0  0  0  0
 18 40  1  0  0  0  0
M  END
> <pdb_id>
4ZT4

> <uniprot_id>
Q38C91

> <usmiles>
Clc1cc(Cl)cc(c1)CNCC(F)(F)CNC2=Nc3ncccc3N2

$$$$
4RU_A_705
          07202413473D 1   1.00000     0.00000     0
            
 22 23  0  0  0  0            999 V2000
   95.9733  107.4876  -13.7863 O   0  0  0  0  0  0  0  0  0  0  0  0
   96.3566  107.5448  -11.5722 N   0  0  0  0  0  0  0  0  0  0  0  0
   95.2362  109.7562  -15.0520 N   0  0  0  0  0  0  0  0  0  0  0  0
   97.0970  111.5115  -11.7437 N   0  0  0  0  0  0  0  0  0  0  0  0
   96.8905  110.2348  -11.7988 N   0  0  0  0  0  0  0  0  0  0  0  0
   96.4958  114.5023  -13.7468 C   0  0  0  0  0  0  0  0  0  0  0  0
   95.8751  113.9829  -14.8873 C   0  0  0  0  0  0  0  0  0  0  0  0
   96.9006  113.7122  -12.7007 C   0  0  0  0  0  0  0  0  0  0  0  0
   95.6508  112.6280  -14.9594 C   0  0  0  0  0  0  0  0  0  0  0  0
   96.1793  108.1528  -12.7680 C   0  0  0  0  0  0  0  0  0  0  0  0
   95.8581  110.3612  -13.9689 C   0  0  0  0  0  0  0  0  0  0  0  0
   96.6916  112.3150  -12.7536 C   0  0  0  0  0  0  0  0  0  0  0  0
   96.3021  109.6264  -12.8458 C   0  0  0  0  0  0  0  0  0  0  0  0
   96.0631  111.7764  -13.9143 C   0  0  0  0  0  0  0  0  0  0  0  0
   96.5230  108.0928  -10.7524 H   0  0  0  0  0  0  0  0  0  0  0  0
   96.3212  106.5475  -11.5082 H   0  0  0  0  0  0  0  0  0  0  0  0
   94.9355  110.3092  -15.8290 H   0  0  0  0  0  0  0  0  0  0  0  0
   95.0886  108.7671  -15.0554 H   0  0  0  0  0  0  0  0  0  0  0  0
   96.6508  115.4886  -13.6916 H   0  0  0  0  0  0  0  0  0  0  0  0
   95.5995  114.5855  -15.6363 H   0  0  0  0  0  0  0  0  0  0  0  0
   97.3422  114.1235  -11.9033 H   0  0  0  0  0  0  0  0  0  0  0  0
   95.1913  112.2435  -15.7601 H   0  0  0  0  0  0  0  0  0  0  0  0
  1 10  2  0  0  0  0
  2 10  1  0  0  0  0
  3 11  1  0  0  0  0
  4  5  1  0  0  0  0
  4 12  2  0  0  0  0
  5 13  2  0  0  0  0
  6  7  1  0  0  0  0
  6  8  2  0  0  0  0
  7  9  2  0  0  0  0
  8 12  1  0  0  0  0
  9 14  1  0  0  0  0
 10 13  1  0  0  0  0
 11 13  1  0  0  0  0
 11 14  2  0  0  0  0
 12 14  1  0  0  0  0
  2 15  1  0  0  0  0
  2 16  1  0  0  0  0
  3 17  1  0  0  0  0
  3 18  1  0  0  0  0
  6 19  1  0  0  0  0
  7 20  1  0  0  0  0
  8 21  1  0  0  0  0
  9 22  1  0  0  0  0
M  END
> <pdb_id>
4ZLY

> <uniprot_id>
Q06187

> <usmiles>
O=C(N)c1nnc2c(c1N)cccc2

$$$$
4S9_A_1101
          07212402543D 1   1.00000     0.00000     0
            
 37 37  0  0  0  0            999 V2000
  162.8845  228.8331   17.8566 Br  0  0  0  0  0  0  0  0  0  0  0  0
  164.2573  229.9898    9.7284 O   0  0  0  0  0  0  0  0  0  0  0  0
  168.8118  228.0850   11.3691 O   0  0  0  0  0  0  0  0  0  0  0  0
  163.8091  227.7789   10.8784 O   0  0  0  0  0  0  0  0  0  0  0  0
  167.2563  226.5088   10.7347 O   0  0  0  0  0  0  0  0  0  0  0  0
  165.1223  229.5337   10.8010 N   0  0  0  0  0  0  0  0  0  0  0  0
  166.9101  228.1475   12.4309 N   0  0  0  0  0  0  0  0  0  0  0  0
  167.1673  224.9708    8.9699 C   0  0  0  0  0  0  0  0  0  0  0  0
  168.1629  227.1590    8.5403 C   0  0  0  0  0  0  0  0  0  0  0  0
  169.3505  225.5492   10.0026 C   0  0  0  0  0  0  0  0  0  0  0  0
  164.2477  227.2963   15.9251 C   0  0  0  0  0  0  0  0  0  0  0  0
  163.7614  229.5640   15.2273 C   0  0  0  0  0  0  0  0  0  0  0  0
  164.8531  227.0526   14.7027 C   0  0  0  0  0  0  0  0  0  0  0  0
  164.3719  229.3272   14.0030 C   0  0  0  0  0  0  0  0  0  0  0  0
  167.7136  227.5917   11.5199 C   0  0  0  0  0  0  0  0  0  0  0  0
  163.7116  228.5402   16.1635 C   0  0  0  0  0  0  0  0  0  0  0  0
  164.7792  228.3596   11.3307 C   0  0  0  0  0  0  0  0  0  0  0  0
  165.5665  227.7341   12.4523 C   0  0  2  0  0  0  0  0  0  0  0  0
  164.9150  228.0674   13.7637 C   0  0  0  0  0  0  0  0  0  0  0  0
  167.9856  226.0835    9.5966 C   0  0  0  0  0  0  0  0  0  0  0  0
  164.5835  230.8723    9.3896 H   0  0  0  0  0  0  0  0  0  0  0  0
  165.9126  230.0584   11.1174 H   0  0  0  0  0  0  0  0  0  0  0  0
  167.2518  228.8327   13.0741 H   0  0  0  0  0  0  0  0  0  0  0  0
  167.6373  224.6293    8.1559 H   0  0  0  0  0  0  0  0  0  0  0  0
  167.0576  224.2263    9.6284 H   0  0  0  0  0  0  0  0  0  0  0  0
  166.2677  225.3232    8.7122 H   0  0  0  0  0  0  0  0  0  0  0  0
  168.6840  226.7883    7.7715 H   0  0  0  0  0  0  0  0  0  0  0  0
  167.2657  227.4623    8.2196 H   0  0  0  0  0  0  0  0  0  0  0  0
  168.6560  227.9348    8.9340 H   0  0  0  0  0  0  0  0  0  0  0  0
  169.8492  225.2546    9.1874 H   0  0  0  0  0  0  0  0  0  0  0  0
  169.8661  226.2697   10.4664 H   0  0  0  0  0  0  0  0  0  0  0  0
  169.2338  224.7720   10.6210 H   0  0  0  0  0  0  0  0  0  0  0  0
  164.2014  226.5803   16.6217 H   0  0  0  0  0  0  0  0  0  0  0  0
  163.3636  230.4584   15.4317 H   0  0  0  0  0  0  0  0  0  0  0  0
  165.2412  226.1532   14.5013 H   0  0  0  0  0  0  0  0  0  0  0  0
  164.4205  230.0452   13.3087 H   0  0  0  0  0  0  0  0  0  0  0  0
  165.5430  226.7413   12.3349 H   0  0  0  0  0  0  0  0  0  0  0  0
  1 16  1  0  0  0  0
  2  6  1  0  0  0  0
  3 15  2  0  0  0  0
  4 17  2  0  0  0  0
  5 15  1  0  0  0  0
  5 20  1  0  0  0  0
  6 17  1  0  0  0  0
  7 15  1  0  0  0  0
  7 18  1  0  0  0  0
  8 20  1  0  0  0  0
  9 20  1  0  0  0  0
 10 20  1  0  0  0  0
 11 13  2  0  0  0  0
 11 16  1  0  0  0  0
 12 14  1  0  0  0  0
 12 16  2  0  0  0  0
 13 19  1  0  0  0  0
 14 19  2  0  0  0  0
 17 18  1  0  0  0  0
 18 19  1  0  0  0  0
  2 21  1  0  0  0  0
  6 22  1  0  0  0  0
  7 23  1  0  0  0  0
  8 24  1  0  0  0  0
  8 25  1  0  0  0  0
  8 26  1  0  0  0  0
  9 27  1  0  0  0  0
  9 28  1  0  0  0  0
  9 29  1  0  0  0  0
 10 30  1  0  0  0  0
 10 31  1  0  0  0  0
 10 32  1  0  0  0  0
 11 33  1  0  0  0  0
 12 34  1  0  0  0  0
 13 35  1  0  0  0  0
 14 36  1  0  0  0  0
 18 37  1  0  0  0  0
M  END
> <pdb_id>
4ZW3

> <uniprot_id>
O96935

> <usmiles>
Brc1ccc(cc1)[C@H](NC(=O)OC(C)(C)C)C(=O)NO

$$$$
4SV_A_1342
          07202410153D 1   1.00000     0.00000     0
            
 16 16  0  0  0  0            999 V2000
   11.1389    0.2697   18.0378 O   0  0  0  0  0  0  0  0  0  0  0  0
   12.5702    1.9433   17.5417 O   0  0  0  0  0  0  0  0  0  0  0  0
   11.4424    4.1974   16.8112 N   0  0  0  0  0  0  0  0  0  0  0  0
    8.1890    4.3098   18.4514 N   0  0  0  0  0  0  0  0  0  0  0  0
    8.1273    3.0664   18.9449 C   0  0  0  0  0  0  0  0  0  0  0  0
    9.2917    4.6248   17.7616 C   0  0  0  0  0  0  0  0  0  0  0  0
    9.1353    2.1160   18.7735 C   0  0  0  0  0  0  0  0  0  0  0  0
   11.3722    1.4567   17.8716 C   0  0  0  0  0  0  0  0  0  0  0  0
   10.3587    3.7744   17.5272 C   0  0  0  0  0  0  0  0  0  0  0  0
   10.2791    2.4630   18.0557 C   0  0  0  0  0  0  0  0  0  0  0  0
   10.2170   -0.0289   18.2846 H   0  0  0  0  0  0  0  0  0  0  0  0
   12.2077    3.5748   16.6478 H   0  0  0  0  0  0  0  0  0  0  0  0
   11.4705    5.1296   16.4504 H   0  0  0  0  0  0  0  0  0  0  0  0
    7.3143    2.8043   19.4648 H   0  0  0  0  0  0  0  0  0  0  0  0
    9.3496    5.5494   17.3849 H   0  0  0  0  0  0  0  0  0  0  0  0
    9.0384    1.1989   19.1603 H   0  0  0  0  0  0  0  0  0  0  0  0
  1  8  1  0  0  0  0
  2  8  2  0  0  0  0
  3  9  1  0  0  0  0
  4  5  2  0  0  0  0
  4  6  1  0  0  0  0
  5  7  1  0  0  0  0
  6  9  2  0  0  0  0
  7 10  2  0  0  0  0
  8 10  1  0  0  0  0
  9 10  1  0  0  0  0
  1 11  1  0  0  0  0
  3 12  1  0  0  0  0
  3 13  1  0  0  0  0
  5 14  1  0  0  0  0
  6 15  1  0  0  0  0
  7 16  1  0  0  0  0
M  END
> <pdb_id>
5FP9

> <uniprot_id>
Q6B0I6

> <usmiles>
O=C(O)c1c(N)cncc1

$$$$
4SY_A_1101
          07212402543D 1   1.00000     0.00000     0
            
 47 48  0  0  0  0            999 V2000
  164.2949  229.9940    9.6463 O   0  0  0  0  0  0  0  0  0  0  0  0
  168.8924  228.1313   11.2174 O   0  0  0  0  0  0  0  0  0  0  0  0
  163.6368  227.7793   10.9398 O   0  0  0  0  0  0  0  0  0  0  0  0
  167.2949  226.5934   10.5375 O   0  0  0  0  0  0  0  0  0  0  0  0
  165.1282  229.4036   10.6732 N   0  0  0  0  0  0  0  0  0  0  0  0
  162.6561  228.6335   19.7091 N   0  0  0  0  0  0  0  0  0  0  0  0
  166.9210  228.1364   12.2705 N   0  0  0  0  0  0  0  0  0  0  0  0
  163.6824  229.5593   19.7806 N   0  0  0  0  0  0  0  0  0  0  0  0
  164.0453  230.3901   20.9324 C   0  0  0  0  0  0  0  0  0  0  0  0
  167.2147  224.9968    8.7372 C   0  0  0  0  0  0  0  0  0  0  0  0
  168.2818  227.1929    8.3740 C   0  0  0  0  0  0  0  0  0  0  0  0
  169.4599  225.5222    9.8380 C   0  0  0  0  0  0  0  0  0  0  0  0
  162.6579  228.0584   18.4419 C   0  0  0  0  0  0  0  0  0  0  0  0
  164.3374  229.5714   18.5625 C   0  0  0  0  0  0  0  0  0  0  0  0
  164.7308  229.2345   14.1160 C   0  0  0  0  0  0  0  0  0  0  0  0
  164.9626  226.8674   14.6208 C   0  0  0  0  0  0  0  0  0  0  0  0
  164.2754  229.4534   15.4108 C   0  0  0  0  0  0  0  0  0  0  0  0
  164.5132  227.0873   15.9147 C   0  0  0  0  0  0  0  0  0  0  0  0
  167.8122  227.5693   11.4359 C   0  0  0  0  0  0  0  0  0  0  0  0
  164.7092  228.2884   11.2749 C   0  0  0  0  0  0  0  0  0  0  0  0
  165.5642  227.6548   12.3406 C   0  0  2  0  0  0  0  0  0  0  0  0
  163.6984  228.6508   17.7272 C   0  0  0  0  0  0  0  0  0  0  0  0
  165.0557  227.9349   13.7323 C   0  0  0  0  0  0  0  0  0  0  0  0
  164.1583  228.3819   16.2901 C   0  0  0  0  0  0  0  0  0  0  0  0
  168.0743  226.1222    9.3884 C   0  0  0  0  0  0  0  0  0  0  0  0
  164.7369  230.8176    9.2910 H   0  0  0  0  0  0  0  0  0  0  0  0
  166.0000  229.8231   10.9262 H   0  0  0  0  0  0  0  0  0  0  0  0
  167.2039  228.9014   12.8491 H   0  0  0  0  0  0  0  0  0  0  0  0
  164.8279  230.9656   20.6950 H   0  0  0  0  0  0  0  0  0  0  0  0
  163.2696  230.9691   21.1833 H   0  0  0  0  0  0  0  0  0  0  0  0
  164.2860  229.8022   21.7047 H   0  0  0  0  0  0  0  0  0  0  0  0
  167.6944  224.6299    7.9402 H   0  0  0  0  0  0  0  0  0  0  0  0
  167.0647  224.2651    9.4020 H   0  0  0  0  0  0  0  0  0  0  0  0
  166.3335  225.3735    8.4516 H   0  0  0  0  0  0  0  0  0  0  0  0
  168.8159  226.8297    7.6105 H   0  0  0  0  0  0  0  0  0  0  0  0
  167.3950  227.5110    8.0390 H   0  0  0  0  0  0  0  0  0  0  0  0
  168.7740  227.9567    8.7916 H   0  0  0  0  0  0  0  0  0  0  0  0
  169.9653  225.2110    9.0331 H   0  0  0  0  0  0  0  0  0  0  0  0
  169.9893  226.2253   10.3127 H   0  0  0  0  0  0  0  0  0  0  0  0
  169.3046  224.7495   10.4534 H   0  0  0  0  0  0  0  0  0  0  0  0
  162.0319  227.3539   18.1074 H   0  0  0  0  0  0  0  0  0  0  0  0
  165.1264  230.1370   18.3226 H   0  0  0  0  0  0  0  0  0  0  0  0
  164.8233  229.9945   13.4727 H   0  0  0  0  0  0  0  0  0  0  0  0
  165.2184  225.9462   14.3277 H   0  0  0  0  0  0  0  0  0  0  0  0
  164.0331  230.3767   15.7088 H   0  0  0  0  0  0  0  0  0  0  0  0
  164.4452  226.3313   16.5658 H   0  0  0  0  0  0  0  0  0  0  0  0
  165.5701  226.6652   12.1972 H   0  0  0  0  0  0  0  0  0  0  0  0
  1  5  1  0  0  0  0
  2 19  2  0  0  0  0
  3 20  2  0  0  0  0
  4 19  1  0  0  0  0
  4 25  1  0  0  0  0
  5 20  1  0  0  0  0
  6  8  1  0  0  0  0
  6 13  2  0  0  0  0
  7 19  1  0  0  0  0
  7 21  1  0  0  0  0
  8  9  1  0  0  0  0
  8 14  1  0  0  0  0
 10 25  1  0  0  0  0
 11 25  1  0  0  0  0
 12 25  1  0  0  0  0
 13 22  1  0  0  0  0
 14 22  2  0  0  0  0
 15 17  2  0  0  0  0
 15 23  1  0  0  0  0
 16 18  1  0  0  0  0
 16 23  2  0  0  0  0
 17 24  1  0  0  0  0
 18 24  2  0  0  0  0
 20 21  1  0  0  0  0
 21 23  1  0  0  0  0
 22 24  1  0  0  0  0
  1 26  1  0  0  0  0
  5 27  1  0  0  0  0
  7 28  1  0  0  0  0
  9 29  1  0  0  0  0
  9 30  1  0  0  0  0
  9 31  1  0  0  0  0
 10 32  1  0  0  0  0
 10 33  1  0  0  0  0
 10 34  1  0  0  0  0
 11 35  1  0  0  0  0
 11 36  1  0  0  0  0
 11 37  1  0  0  0  0
 12 38  1  0  0  0  0
 12 39  1  0  0  0  0
 12 40  1  0  0  0  0
 13 41  1  0  0  0  0
 14 42  1  0  0  0  0
 15 43  1  0  0  0  0
 16 44  1  0  0  0  0
 17 45  1  0  0  0  0
 18 46  1  0  0  0  0
 21 47  1  0  0  0  0
M  END
> <pdb_id>
4ZW6

> <uniprot_id>
O96935

> <usmiles>
O=C(OC(C)(C)C)N[C@@H](c1ccc(cc1)C=2C=NN(C2)C)C(=O)NO

$$$$
4T6_A_601
          07202413423D 1   1.00000     0.00000     0
            
 44 48  0  0  0  0            999 V2000
   16.2413  -14.1929   11.5509 Cl  0  0  0  0  0  0  0  0  0  0  0  0
   16.9191  -17.6336   17.4271 N   0  0  0  0  0  0  0  0  0  0  0  0
   17.9827  -17.7845   16.5481 N   0  0  0  0  0  0  0  0  0  0  0  0
   11.5394  -14.5479   16.1999 N   0  0  0  0  0  0  0  0  0  0  0  0
   17.6250  -10.1526   13.9469 N   0  0  0  0  0  0  0  0  0  0  0  0
   17.9731  -11.6478   12.4092 N   0  0  0  0  0  0  0  0  0  0  0  0
   12.5672  -14.1747   14.1232 N   0  0  0  0  0  0  0  0  0  0  0  0
   13.6982  -15.3537   15.8249 N   0  0  0  0  0  0  0  0  0  0  0  0
   14.8582  -16.5147   17.5354 N   0  0  0  0  0  0  0  0  0  0  0  0
   18.4493  -10.5608   12.9402 C   0  0  0  0  0  0  0  0  0  0  0  0
   11.5147  -15.0519   17.4377 C   0  0  0  0  0  0  0  0  0  0  0  0
   13.7503  -14.2348   13.2472 C   0  0  0  0  0  0  0  0  0  0  0  0
   12.6275  -15.7373   17.9072 C   0  0  0  0  0  0  0  0  0  0  0  0
   15.3898  -11.1088   14.7876 C   0  0  0  0  0  0  0  0  0  0  0  0
   14.4908  -12.1433   14.5477 C   0  0  0  0  0  0  0  0  0  0  0  0
   18.1991  -16.9039   12.8454 C   0  0  0  0  0  0  0  0  0  0  0  0
   18.8867  -15.7058   13.5162 C   0  0  0  0  0  0  0  0  0  0  0  0
   16.5142  -16.4876   15.5848 C   0  0  0  0  0  0  0  0  0  0  0  0
   12.6054  -14.6947   15.4109 C   0  0  0  0  0  0  0  0  0  0  0  0
   16.0362  -16.8568   16.8619 C   0  0  0  0  0  0  0  0  0  0  0  0
   13.7504  -15.8541   17.0586 C   0  0  0  0  0  0  0  0  0  0  0  0
   15.8845  -13.0167   12.7797 C   0  0  0  0  0  0  0  0  0  0  0  0
   17.7239  -17.0854   15.4265 C   0  0  0  0  0  0  0  0  0  0  0  0
   16.5504  -11.0240   14.0033 C   0  0  0  0  0  0  0  0  0  0  0  0
   16.7962  -11.9759   12.9974 C   0  0  0  0  0  0  0  0  0  0  0  0
   14.7307  -13.1064   13.5487 C   0  0  0  0  0  0  0  0  0  0  0  0
   18.7049  -17.0193   14.2758 C   0  0  0  0  0  0  0  0  0  0  0  0
   16.8428  -18.0476   18.3342 H   0  0  0  0  0  0  0  0  0  0  0  0
   17.7712   -9.3616   14.5410 H   0  0  0  0  0  0  0  0  0  0  0  0
   11.7250  -13.7537   13.7862 H   0  0  0  0  0  0  0  0  0  0  0  0
   14.8162  -16.7884   18.4963 H   0  0  0  0  0  0  0  0  0  0  0  0
   19.2881  -10.0969   12.6552 H   0  0  0  0  0  0  0  0  0  0  0  0
   10.7074  -14.9371   18.0167 H   0  0  0  0  0  0  0  0  0  0  0  0
   13.4532  -14.1608   12.2952 H   0  0  0  0  0  0  0  0  0  0  0  0
   14.2118  -15.1111   13.3852 H   0  0  0  0  0  0  0  0  0  0  0  0
   12.6336  -16.1382   18.8233 H   0  0  0  0  0  0  0  0  0  0  0  0
   15.2119  -10.4371   15.5067 H   0  0  0  0  0  0  0  0  0  0  0  0
   13.6568  -12.2042   15.0961 H   0  0  0  0  0  0  0  0  0  0  0  0
   18.6619  -17.3987   12.1099 H   0  0  0  0  0  0  0  0  0  0  0  0
   17.2162  -16.8786   12.6631 H   0  0  0  0  0  0  0  0  0  0  0  0
   18.3523  -14.9004   13.7727 H   0  0  0  0  0  0  0  0  0  0  0  0
   19.7981  -15.4205   13.2195 H   0  0  0  0  0  0  0  0  0  0  0  0
   16.0505  -15.8983   14.9232 H   0  0  0  0  0  0  0  0  0  0  0  0
   19.5358  -17.5634   14.3918 H   0  0  0  0  0  0  0  0  0  0  0  0
  1 22  1  0  0  0  0
  2  3  1  0  0  0  0
  2 20  1  0  0  0  0
  3 23  2  0  0  0  0
  4 11  1  0  0  0  0
  4 19  2  0  0  0  0
  5 10  1  0  0  0  0
  5 24  1  0  0  0  0
  6 10  2  0  0  0  0
  6 25  1  0  0  0  0
  7 12  1  0  0  0  0
  7 19  1  0  0  0  0
  8 19  1  0  0  0  0
  8 21  2  0  0  0  0
  9 20  1  0  0  0  0
  9 21  1  0  0  0  0
 11 13  2  0  0  0  0
 12 26  1  0  0  0  0
 13 21  1  0  0  0  0
 14 15  1  0  0  0  0
 14 24  2  0  0  0  0
 15 26  2  0  0  0  0
 16 17  1  0  0  0  0
 16 27  1  0  0  0  0
 17 27  1  0  0  0  0
 18 20  2  0  0  0  0
 18 23  1  0  0  0  0
 22 25  2  0  0  0  0
 22 26  1  0  0  0  0
 23 27  1  0  0  0  0
 24 25  1  0  0  0  0
  2 28  1  0  0  0  0
  5 29  1  0  0  0  0
  7 30  1  0  0  0  0
  9 31  1  0  0  0  0
 10 32  1  0  0  0  0
 11 33  1  0  0  0  0
 12 34  1  0  0  0  0
 12 35  1  0  0  0  0
 13 36  1  0  0  0  0
 14 37  1  0  0  0  0
 15 38  1  0  0  0  0
 16 39  1  0  0  0  0
 16 40  1  0  0  0  0
 17 41  1  0  0  0  0
 17 42  1  0  0  0  0
 18 43  1  0  0  0  0
 27 44  1  0  0  0  0
M  END
> <pdb_id>
4ZY6

> <uniprot_id>
Q13153

> <usmiles>
Clc1c2N=CNc2ccc1CNc3nc(NC=4NN=C(C4)C5CC5)ccn3

$$$$
4TL_A_1008
          07212402553D 1   1.00000     0.00000     0
            
 46 47  0  0  0  0            999 V2000
  182.7483   33.6319  -36.9909 F   0  0  0  0  0  0  0  0  0  0  0  0
  183.6858   32.4294  -41.5283 F   0  0  0  0  0  0  0  0  0  0  0  0
  184.4169   32.5565  -38.7839 F   0  0  0  0  0  0  0  0  0  0  0  0
  175.4375   39.4500  -43.4618 O   0  0  0  0  0  0  0  0  0  0  0  0
  175.9982   38.3985  -41.0769 O   0  0  0  0  0  0  0  0  0  0  0  0
  174.0922   33.8503  -41.3778 O   0  0  0  0  0  0  0  0  0  0  0  0
  175.3423   38.0274  -43.1703 N   0  0  0  0  0  0  0  0  0  0  0  0
  174.4590   35.9504  -40.7280 N   0  0  0  0  0  0  0  0  0  0  0  0
  171.5684   33.7596  -40.3127 C   0  0  0  0  0  0  0  0  0  0  0  0
  173.0464   34.1330  -38.3694 C   0  0  0  0  0  0  0  0  0  0  0  0
  171.9811   36.0493  -39.5157 C   0  0  0  0  0  0  0  0  0  0  0  0
  177.9077   35.5174  -42.1088 C   0  0  0  0  0  0  0  0  0  0  0  0
  177.0780   35.1373  -39.8844 C   0  0  0  0  0  0  0  0  0  0  0  0
  179.1523   35.0307  -41.7459 C   0  0  0  0  0  0  0  0  0  0  0  0
  178.3216   34.6487  -39.5204 C   0  0  0  0  0  0  0  0  0  0  0  0
  181.0577   34.1152  -38.7255 C   0  0  0  0  0  0  0  0  0  0  0  0
  181.6456   33.4494  -41.0403 C   0  0  0  0  0  0  0  0  0  0  0  0
  175.6484   37.5955  -41.9446 C   0  0  0  0  0  0  0  0  0  0  0  0
  173.7746   34.8000  -40.6607 C   0  0  0  0  0  0  0  0  0  0  0  0
  182.3962   33.5745  -38.2803 C   0  0  0  0  0  0  0  0  0  0  0  0
  182.8412   32.9680  -40.6403 C   0  0  0  0  0  0  0  0  0  0  0  0
  183.2353   33.0357  -39.1833 C   0  0  0  0  0  0  0  0  0  0  0  0
  175.5381   36.1168  -41.6418 C   0  0  1  0  0  0  0  0  0  0  0  0
  176.8749   35.5752  -41.1835 C   0  0  0  0  0  0  0  0  0  0  0  0
  179.3554   34.5973  -40.4460 C   0  0  0  0  0  0  0  0  0  0  0  0
  180.7032   34.0565  -40.0233 C   0  0  0  0  0  0  0  0  0  0  0  0
  172.6031   34.6826  -39.7068 C   0  0  0  0  0  0  0  0  0  0  0  0
  175.1779   39.6134  -44.4136 H   0  0  0  0  0  0  0  0  0  0  0  0
  175.0520   37.3829  -43.8776 H   0  0  0  0  0  0  0  0  0  0  0  0
  174.2068   36.7067  -40.1245 H   0  0  0  0  0  0  0  0  0  0  0  0
  171.2751   34.1226  -41.1971 H   0  0  0  0  0  0  0  0  0  0  0  0
  171.9663   32.8511  -40.4407 H   0  0  0  0  0  0  0  0  0  0  0  0
  170.7802   33.6951  -39.7008 H   0  0  0  0  0  0  0  0  0  0  0  0
  173.7302   34.7427  -37.9686 H   0  0  0  0  0  0  0  0  0  0  0  0
  172.2580   34.0684  -37.7576 H   0  0  0  0  0  0  0  0  0  0  0  0
  173.4441   33.2245  -38.4976 H   0  0  0  0  0  0  0  0  0  0  0  0
  172.6557   36.6695  -39.1153 H   0  0  0  0  0  0  0  0  0  0  0  0
  171.6837   36.4069  -40.4009 H   0  0  0  0  0  0  0  0  0  0  0  0
  171.1931   35.9744  -38.9046 H   0  0  0  0  0  0  0  0  0  0  0  0
  177.7517   35.8300  -43.0458 H   0  0  0  0  0  0  0  0  0  0  0  0
  176.3343   35.1739  -39.2168 H   0  0  0  0  0  0  0  0  0  0  0  0
  179.8953   34.9926  -42.4140 H   0  0  0  0  0  0  0  0  0  0  0  0
  178.4761   34.3308  -38.5850 H   0  0  0  0  0  0  0  0  0  0  0  0
  180.4339   34.5174  -38.0554 H   0  0  0  0  0  0  0  0  0  0  0  0
  181.3834   33.4051  -42.0043 H   0  0  0  0  0  0  0  0  0  0  0  0
  175.2939   35.6486  -42.4910 H   0  0  0  0  0  0  0  0  0  0  0  0
  1 20  1  0  0  0  0
  2 21  1  0  0  0  0
  3 22  1  0  0  0  0
  4  7  1  0  0  0  0
  5 18  2  0  0  0  0
  6 19  2  0  0  0  0
  7 18  1  0  0  0  0
  8 19  1  0  0  0  0
  8 23  1  0  0  0  0
  9 27  1  0  0  0  0
 10 27  1  0  0  0  0
 11 27  1  0  0  0  0
 12 14  2  0  0  0  0
 12 24  1  0  0  0  0
 13 15  1  0  0  0  0
 13 24  2  0  0  0  0
 14 25  1  0  0  0  0
 15 25  2  0  0  0  0
 16 20  1  0  0  0  0
 16 26  2  0  0  0  0
 17 21  2  0  0  0  0
 17 26  1  0  0  0  0
 18 23  1  0  0  0  0
 19 27  1  0  0  0  0
 20 22  2  0  0  0  0
 21 22  1  0  0  0  0
 23 24  1  0  0  0  0
 25 26  1  0  0  0  0
  4 28  1  0  0  0  0
  7 29  1  0  0  0  0
  8 30  1  0  0  0  0
  9 31  1  0  0  0  0
  9 32  1  0  0  0  0
  9 33  1  0  0  0  0
 10 34  1  0  0  0  0
 10 35  1  0  0  0  0
 10 36  1  0  0  0  0
 11 37  1  0  0  0  0
 11 38  1  0  0  0  0
 11 39  1  0  0  0  0
 12 40  1  0  0  0  0
 13 41  1  0  0  0  0
 14 42  1  0  0  0  0
 15 43  1  0  0  0  0
 16 44  1  0  0  0  0
 17 45  1  0  0  0  0
 23 46  1  0  0  0  0
M  END
> <pdb_id>
4ZY2

> <uniprot_id>
nan

> <usmiles>
Fc1c(F)cc(c2ccc(cc2)[C@@H](NC(=O)C(C)(C)C)C(=O)NO)cc1F

$$$$
4TL_A_1101
          07212402543D 1   1.00000     0.00000     0
            
 46 47  0  0  0  0            999 V2000
  161.5185  228.1054   20.1568 F   0  0  0  0  0  0  0  0  0  0  0  0
  165.3963  230.7766   20.3673 F   0  0  0  0  0  0  0  0  0  0  0  0
  163.3116  229.8370   21.5722 F   0  0  0  0  0  0  0  0  0  0  0  0
  164.2937  230.0904    9.6565 O   0  0  0  0  0  0  0  0  0  0  0  0
  164.0057  227.6631   10.8627 O   0  0  0  0  0  0  0  0  0  0  0  0
  168.5567  227.7092   11.9955 O   0  0  0  0  0  0  0  0  0  0  0  0
  165.0956  229.6438   10.7007 N   0  0  0  0  0  0  0  0  0  0  0  0
  166.4435  226.8736   11.9077 N   0  0  0  0  0  0  0  0  0  0  0  0
  169.8082  225.4907   10.9619 C   0  0  0  0  0  0  0  0  0  0  0  0
  167.5602  224.3608   11.0219 C   0  0  0  0  0  0  0  0  0  0  0  0
  168.0914  226.1646    9.3382 C   0  0  0  0  0  0  0  0  0  0  0  0
  164.9646  229.4593   14.1165 C   0  0  0  0  0  0  0  0  0  0  0  0
  165.1173  227.0841   14.5222 C   0  0  0  0  0  0  0  0  0  0  0  0
  164.4865  229.6662   15.4002 C   0  0  0  0  0  0  0  0  0  0  0  0
  164.6252  227.2769   15.8107 C   0  0  0  0  0  0  0  0  0  0  0  0
  162.7963  228.2576   18.2071 C   0  0  0  0  0  0  0  0  0  0  0  0
  164.7774  229.6701   18.2712 C   0  0  0  0  0  0  0  0  0  0  0  0
  164.8187  228.4886   11.2718 C   0  0  0  0  0  0  0  0  0  0  0  0
  167.7691  226.8424   11.6484 C   0  0  0  0  0  0  0  0  0  0  0  0
  162.5803  228.6097   19.5552 C   0  0  0  0  0  0  0  0  0  0  0  0
  164.5635  229.9852   19.6172 C   0  0  0  0  0  0  0  0  0  0  0  0
  163.4655  229.4606   20.2482 C   0  0  0  0  0  0  0  0  0  0  0  0
  165.7977  228.1120   12.3901 C   0  0  1  0  0  0  0  0  0  0  0  0
  165.2580  228.1778   13.6743 C   0  0  0  0  0  0  0  0  0  0  0  0
  164.2899  228.5595   16.2434 C   0  0  0  0  0  0  0  0  0  0  0  0
  163.9003  228.8083   17.5652 C   0  0  0  0  0  0  0  0  0  0  0  0
  168.3014  225.6731   10.7873 C   0  0  0  0  0  0  0  0  0  0  0  0
  164.6302  230.9745    9.3324 H   0  0  0  0  0  0  0  0  0  0  0  0
  165.8715  230.1914   11.0140 H   0  0  0  0  0  0  0  0  0  0  0  0
  165.8934  226.0496   11.7716 H   0  0  0  0  0  0  0  0  0  0  0  0
  170.2702  226.3632   10.8031 H   0  0  0  0  0  0  0  0  0  0  0  0
  170.0004  225.1760   11.8914 H   0  0  0  0  0  0  0  0  0  0  0  0
  170.1403  224.8134   10.3053 H   0  0  0  0  0  0  0  0  0  0  0  0
  166.5782  224.5065   10.9019 H   0  0  0  0  0  0  0  0  0  0  0  0
  167.8782  223.6764   10.3657 H   0  0  0  0  0  0  0  0  0  0  0  0
  167.7383  224.0390   11.9518 H   0  0  0  0  0  0  0  0  0  0  0  0
  167.1150  226.3006    9.1705 H   0  0  0  0  0  0  0  0  0  0  0  0
  168.5759  227.0293    9.2059 H   0  0  0  0  0  0  0  0  0  0  0  0
  168.4473  225.4820    8.6998 H   0  0  0  0  0  0  0  0  0  0  0  0
  165.0990  230.2389   13.5047 H   0  0  0  0  0  0  0  0  0  0  0  0
  165.3672  226.1678   14.2094 H   0  0  0  0  0  0  0  0  0  0  0  0
  164.2840  230.5909   15.7224 H   0  0  0  0  0  0  0  0  0  0  0  0
  164.5124  226.4961   16.4252 H   0  0  0  0  0  0  0  0  0  0  0  0
  162.1776  227.6340   17.7293 H   0  0  0  0  0  0  0  0  0  0  0  0
  165.5660  230.0611   17.7966 H   0  0  0  0  0  0  0  0  0  0  0  0
  166.5119  228.8116   12.3654 H   0  0  0  0  0  0  0  0  0  0  0  0
  1 20  1  0  0  0  0
  2 21  1  0  0  0  0
  3 22  1  0  0  0  0
  4  7  1  0  0  0  0
  5 18  2  0  0  0  0
  6 19  2  0  0  0  0
  7 18  1  0  0  0  0
  8 19  1  0  0  0  0
  8 23  1  0  0  0  0
  9 27  1  0  0  0  0
 10 27  1  0  0  0  0
 11 27  1  0  0  0  0
 12 14  2  0  0  0  0
 12 24  1  0  0  0  0
 13 15  1  0  0  0  0
 13 24  2  0  0  0  0
 14 25  1  0  0  0  0
 15 25  2  0  0  0  0
 16 20  2  0  0  0  0
 16 26  1  0  0  0  0
 17 21  1  0  0  0  0
 17 26  2  0  0  0  0
 18 23  1  0  0  0  0
 19 27  1  0  0  0  0
 20 22  1  0  0  0  0
 21 22  2  0  0  0  0
 23 24  1  0  0  0  0
 25 26  1  0  0  0  0
  4 28  1  0  0  0  0
  7 29  1  0  0  0  0
  8 30  1  0  0  0  0
  9 31  1  0  0  0  0
  9 32  1  0  0  0  0
  9 33  1  0  0  0  0
 10 34  1  0  0  0  0
 10 35  1  0  0  0  0
 10 36  1  0  0  0  0
 11 37  1  0  0  0  0
 11 38  1  0  0  0  0
 11 39  1  0  0  0  0
 12 40  1  0  0  0  0
 13 41  1  0  0  0  0
 14 42  1  0  0  0  0
 15 43  1  0  0  0  0
 16 44  1  0  0  0  0
 17 45  1  0  0  0  0
 23 46  1  0  0  0  0
M  END
> <pdb_id>
4ZX4

> <uniprot_id>
O96935

> <usmiles>
Fc1c(F)cc(c2ccc(cc2)[C@@H](NC(=O)C(C)(C)C)C(=O)NO)cc1F

$$$$
4TM_A_1102
          07212402543D 1   1.00000     0.00000     0
            
 43 44  0  0  0  0            999 V2000
  163.0976  226.5980   19.6743 S   0  0  0  0  0  0  0  0  0  0  0  0
  164.2332  230.2303    9.6833 O   0  0  0  0  0  0  0  0  0  0  0  0
  163.8098  227.8388   10.9109 O   0  0  0  0  0  0  0  0  0  0  0  0
  168.5080  227.8823   11.7608 O   0  0  0  0  0  0  0  0  0  0  0  0
  165.1134  229.6841   10.6821 N   0  0  0  0  0  0  0  0  0  0  0  0
  166.4659  226.9355   11.5613 N   0  0  0  0  0  0  0  0  0  0  0  0
  167.5652  224.6161   10.4583 C   0  0  0  0  0  0  0  0  0  0  0  0
  168.1085  226.5066    8.9009 C   0  0  0  0  0  0  0  0  0  0  0  0
  169.8327  225.6922   10.4934 C   0  0  0  0  0  0  0  0  0  0  0  0
  162.3975  228.0537   19.2927 C   0  0  0  0  0  0  0  0  0  0  0  0
  163.9004  226.3527   18.1851 C   0  0  0  0  0  0  0  0  0  0  0  0
  162.8049  228.3360   18.0250 C   0  0  0  0  0  0  0  0  0  0  0  0
  165.5073  226.6838   14.3692 C   0  0  0  0  0  0  0  0  0  0  0  0
  164.3862  228.7915   14.1054 C   0  0  0  0  0  0  0  0  0  0  0  0
  164.9468  226.5818   15.6455 C   0  0  0  0  0  0  0  0  0  0  0  0
  163.8187  228.6854   15.3865 C   0  0  0  0  0  0  0  0  0  0  0  0
  164.7638  228.5301   11.2598 C   0  0  0  0  0  0  0  0  0  0  0  0
  167.7809  227.0050   11.2966 C   0  0  0  0  0  0  0  0  0  0  0  0
  165.7771  228.0192   12.2930 C   0  0  1  0  0  0  0  0  0  0  0  0
  163.6019  227.4198   17.4200 C   0  0  0  0  0  0  0  0  0  0  0  0
  165.2177  227.7992   13.5806 C   0  0  0  0  0  0  0  0  0  0  0  0
  164.0995  227.5600   16.1709 C   0  0  0  0  0  0  0  0  0  0  0  0
  168.3298  225.9392   10.3146 C   0  0  0  0  0  0  0  0  0  0  0  0
  164.6132  231.0881    9.3373 H   0  0  0  0  0  0  0  0  0  0  0  0
  165.9595  230.1527   10.9360 H   0  0  0  0  0  0  0  0  0  0  0  0
  165.9446  226.1377   11.2583 H   0  0  0  0  0  0  0  0  0  0  0  0
  167.7083  224.2465   11.3764 H   0  0  0  0  0  0  0  0  0  0  0  0
  166.5892  224.7776   10.3123 H   0  0  0  0  0  0  0  0  0  0  0  0
  167.9000  223.9623    9.7798 H   0  0  0  0  0  0  0  0  0  0  0  0
  168.6062  227.3688    8.8061 H   0  0  0  0  0  0  0  0  0  0  0  0
  168.4431  225.8522    8.2229 H   0  0  0  0  0  0  0  0  0  0  0  0
  167.1323  226.6676    8.7554 H   0  0  0  0  0  0  0  0  0  0  0  0
  170.3261  226.5569   10.3989 H   0  0  0  0  0  0  0  0  0  0  0  0
  170.0019  225.3094   11.4016 H   0  0  0  0  0  0  0  0  0  0  0  0
  170.1501  225.0494    9.7962 H   0  0  0  0  0  0  0  0  0  0  0  0
  161.8008  228.6078   19.8732 H   0  0  0  0  0  0  0  0  0  0  0  0
  164.4753  225.5743   17.9331 H   0  0  0  0  0  0  0  0  0  0  0  0
  162.5299  229.1785   17.5617 H   0  0  0  0  0  0  0  0  0  0  0  0
  166.1102  225.9646   14.0240 H   0  0  0  0  0  0  0  0  0  0  0  0
  164.1890  229.6014   13.5530 H   0  0  0  0  0  0  0  0  0  0  0  0
  165.1602  225.7794   16.2027 H   0  0  0  0  0  0  0  0  0  0  0  0
  163.2200  229.4067   15.7347 H   0  0  0  0  0  0  0  0  0  0  0  0
  166.4508  228.7497   12.4049 H   0  0  0  0  0  0  0  0  0  0  0  0
  1 10  1  0  0  0  0
  1 11  1  0  0  0  0
  2  5  1  0  0  0  0
  3 17  2  0  0  0  0
  4 18  2  0  0  0  0
  5 17  1  0  0  0  0
  6 18  1  0  0  0  0
  6 19  1  0  0  0  0
  7 23  1  0  0  0  0
  8 23  1  0  0  0  0
  9 23  1  0  0  0  0
 10 12  2  0  0  0  0
 11 20  2  0  0  0  0
 12 20  1  0  0  0  0
 13 15  1  0  0  0  0
 13 21  2  0  0  0  0
 14 16  2  0  0  0  0
 14 21  1  0  0  0  0
 15 22  2  0  0  0  0
 16 22  1  0  0  0  0
 17 19  1  0  0  0  0
 18 23  1  0  0  0  0
 19 21  1  0  0  0  0
 20 22  1  0  0  0  0
  2 24  1  0  0  0  0
  5 25  1  0  0  0  0
  6 26  1  0  0  0  0
  7 27  1  0  0  0  0
  7 28  1  0  0  0  0
  7 29  1  0  0  0  0
  8 30  1  0  0  0  0
  8 31  1  0  0  0  0
  8 32  1  0  0  0  0
  9 33  1  0  0  0  0
  9 34  1  0  0  0  0
  9 35  1  0  0  0  0
 10 36  1  0  0  0  0
 11 37  1  0  0  0  0
 12 38  1  0  0  0  0
 13 39  1  0  0  0  0
 14 40  1  0  0  0  0
 15 41  1  0  0  0  0
 16 42  1  0  0  0  0
 19 43  1  0  0  0  0
M  END
> <pdb_id>
4ZX5

> <uniprot_id>
O96935

> <usmiles>
S1C=C(c2ccc(cc2)[C@@H](NC(=O)C(C)(C)C)C(=O)NO)C=C1

$$$$
4TM_I_1001
          07212402553D 1   1.00000     0.00000     0
            
 43 44  0  0  0  0            999 V2000
  182.9827   33.4523  -39.3013 S   0  0  0  0  0  0  0  0  0  0  0  0
  175.5392   39.2054  -43.5827 O   0  0  0  0  0  0  0  0  0  0  0  0
  176.0853   38.3900  -41.0404 O   0  0  0  0  0  0  0  0  0  0  0  0
  174.1267   33.8329  -41.1697 O   0  0  0  0  0  0  0  0  0  0  0  0
  175.5728   37.8231  -43.1852 N   0  0  0  0  0  0  0  0  0  0  0  0
  174.8467   35.8780  -40.4869 N   0  0  0  0  0  0  0  0  0  0  0  0
  172.8846   36.2380  -38.7345 C   0  0  0  0  0  0  0  0  0  0  0  0
  171.7006   34.3196  -39.7774 C   0  0  0  0  0  0  0  0  0  0  0  0
  173.5275   33.9012  -38.1319 C   0  0  0  0  0  0  0  0  0  0  0  0
  182.9601   33.1454  -40.9271 C   0  0  0  0  0  0  0  0  0  0  0  0
  181.4596   34.1201  -39.1876 C   0  0  0  0  0  0  0  0  0  0  0  0
  181.7613   33.5683  -41.3709 C   0  0  0  0  0  0  0  0  0  0  0  0
  177.5144   35.2810  -39.9391 C   0  0  0  0  0  0  0  0  0  0  0  0
  178.0421   35.3338  -42.2761 C   0  0  0  0  0  0  0  0  0  0  0  0
  178.7965   34.7929  -39.6719 C   0  0  0  0  0  0  0  0  0  0  0  0
  179.3215   34.8460  -42.0073 C   0  0  0  0  0  0  0  0  0  0  0  0
  175.8645   37.5427  -41.9061 C   0  0  0  0  0  0  0  0  0  0  0  0
  174.0636   34.7932  -40.4018 C   0  0  0  0  0  0  0  0  0  0  0  0
  175.8416   36.0519  -41.5620 C   0  0  1  0  0  0  0  0  0  0  0  0
  180.9443   34.0988  -40.4279 C   0  0  0  0  0  0  0  0  0  0  0  0
  177.1286   35.5585  -41.2481 C   0  0  0  0  0  0  0  0  0  0  0  0
  179.7123   34.5695  -40.6983 C   0  0  0  0  0  0  0  0  0  0  0  0
  173.0497   34.8117  -39.2564 C   0  0  0  0  0  0  0  0  0  0  0  0
  175.3110   39.2674  -44.5544 H   0  0  0  0  0  0  0  0  0  0  0  0
  175.3845   37.0933  -43.8425 H   0  0  0  0  0  0  0  0  0  0  0  0
  174.7529   36.5954  -39.7965 H   0  0  0  0  0  0  0  0  0  0  0  0
  173.7626   36.5708  -38.3905 H   0  0  0  0  0  0  0  0  0  0  0  0
  172.5712   36.8303  -39.4767 H   0  0  0  0  0  0  0  0  0  0  0  0
  172.2119   36.2464  -37.9946 H   0  0  0  0  0  0  0  0  0  0  0  0
  171.7969   33.3858  -40.1220 H   0  0  0  0  0  0  0  0  0  0  0  0
  171.0313   34.3334  -39.0345 H   0  0  0  0  0  0  0  0  0  0  0  0
  171.3906   34.9174  -40.5166 H   0  0  0  0  0  0  0  0  0  0  0  0
  173.6336   32.9696  -38.4796 H   0  0  0  0  0  0  0  0  0  0  0  0
  174.4065   34.2304  -37.7870 H   0  0  0  0  0  0  0  0  0  0  0  0
  172.8559   33.9060  -37.3910 H   0  0  0  0  0  0  0  0  0  0  0  0
  183.6896   32.7298  -41.4703 H   0  0  0  0  0  0  0  0  0  0  0  0
  181.0175   34.4674  -38.3606 H   0  0  0  0  0  0  0  0  0  0  0  0
  181.4918   33.4960  -42.3312 H   0  0  0  0  0  0  0  0  0  0  0  0
  176.8719   35.4315  -39.1877 H   0  0  0  0  0  0  0  0  0  0  0  0
  177.7766   35.5250  -43.2211 H   0  0  0  0  0  0  0  0  0  0  0  0
  179.0615   34.6004  -38.7270 H   0  0  0  0  0  0  0  0  0  0  0  0
  179.9627   34.6937  -42.7594 H   0  0  0  0  0  0  0  0  0  0  0  0
  175.5123   35.5574  -42.3663 H   0  0  0  0  0  0  0  0  0  0  0  0
  1 10  1  0  0  0  0
  1 11  1  0  0  0  0
  2  5  1  0  0  0  0
  3 17  2  0  0  0  0
  4 18  2  0  0  0  0
  5 17  1  0  0  0  0
  6 18  1  0  0  0  0
  6 19  1  0  0  0  0
  7 23  1  0  0  0  0
  8 23  1  0  0  0  0
  9 23  1  0  0  0  0
 10 12  2  0  0  0  0
 11 20  2  0  0  0  0
 12 20  1  0  0  0  0
 13 15  1  0  0  0  0
 13 21  2  0  0  0  0
 14 16  2  0  0  0  0
 14 21  1  0  0  0  0
 15 22  2  0  0  0  0
 16 22  1  0  0  0  0
 17 19  1  0  0  0  0
 18 23  1  0  0  0  0
 19 21  1  0  0  0  0
 20 22  1  0  0  0  0
  2 24  1  0  0  0  0
  5 25  1  0  0  0  0
  6 26  1  0  0  0  0
  7 27  1  0  0  0  0
  7 28  1  0  0  0  0
  7 29  1  0  0  0  0
  8 30  1  0  0  0  0
  8 31  1  0  0  0  0
  8 32  1  0  0  0  0
  9 33  1  0  0  0  0
  9 34  1  0  0  0  0
  9 35  1  0  0  0  0
 10 36  1  0  0  0  0
 11 37  1  0  0  0  0
 12 38  1  0  0  0  0
 13 39  1  0  0  0  0
 14 40  1  0  0  0  0
 15 41  1  0  0  0  0
 16 42  1  0  0  0  0
 19 43  1  0  0  0  0
M  END
> <pdb_id>
4ZY0

> <uniprot_id>
nan

> <usmiles>
S1C=C(c2ccc(cc2)[C@@H](NC(=O)C(C)(C)C)C(=O)NO)C=C1

$$$$
4U7_A_551
          07202415503D 1   1.00000     0.00000     0
            
 31 30  0  0  0  0            999 V2000
  -20.6091   18.7938  -11.5698 F   0  0  0  0  0  0  0  0  0  0  0  0
  -22.7941   18.6828  -11.7475 F   0  0  0  0  0  0  0  0  0  0  0  0
  -20.2347   15.6702  -10.9590 O   0  0  0  0  0  0  0  0  0  0  0  0
  -19.6430   15.6328  -13.0641 O   0  0  0  0  0  0  0  0  0  0  0  0
  -26.6680   13.6372  -13.5920 O   0  0  0  0  0  0  0  0  0  0  0  0
  -26.2221   11.6467  -12.6859 O   0  0  0  0  0  0  0  0  0  0  0  0
  -27.1836   13.1914  -11.4445 O   0  0  0  0  0  0  0  0  0  0  0  0
  -21.2709   17.4272  -13.8285 N   0  0  0  0  0  0  0  0  0  0  0  0
  -23.4856   15.6015  -11.3375 C   0  0  0  0  0  0  0  0  0  0  0  0
  -24.8186   14.9314  -11.4815 C   0  0  0  0  0  0  0  0  0  0  0  0
  -22.8451   16.1042  -12.5911 C   0  0  0  0  0  0  0  0  0  0  0  0
  -24.9073   13.5383  -12.0451 C   0  0  0  0  0  0  0  0  0  0  0  0
  -21.6765   17.9953  -11.5659 C   0  0  0  0  0  0  0  0  0  0  0  0
  -20.4275   16.0060  -12.1590 C   0  0  0  0  0  0  0  0  0  0  0  0
  -21.5681   16.8773  -12.5408 C   0  0  2  0  0  0  0  0  0  0  0  0
  -26.2440   13.0079  -12.4414 B   0  5  0  0  0  0  0  0  0  0  0  0
  -20.8675   15.9743  -10.2468 H   0  0  0  0  0  0  0  0  0  0  0  0
  -26.6928   14.6255  -13.4415 H   0  0  0  0  0  0  0  0  0  0  0  0
  -25.9169   11.1653  -11.8643 H   0  0  0  0  0  0  0  0  0  0  0  0
  -26.8769   12.7351  -10.6092 H   0  0  0  0  0  0  0  0  0  0  0  0
  -20.4148   17.9418  -13.7816 H   0  0  0  0  0  0  0  0  0  0  0  0
  -21.1787   16.6865  -14.4940 H   0  0  0  0  0  0  0  0  0  0  0  0
  -22.8592   14.9426  -10.9209 H   0  0  0  0  0  0  0  0  0  0  0  0
  -23.6042   16.3824  -10.7242 H   0  0  0  0  0  0  0  0  0  0  0  0
  -25.3731   15.5171  -12.0727 H   0  0  0  0  0  0  0  0  0  0  0  0
  -25.2251   14.8992  -10.5684 H   0  0  0  0  0  0  0  0  0  0  0  0
  -23.5178   16.6936  -13.0385 H   0  0  0  0  0  0  0  0  0  0  0  0
  -22.6709   15.3029  -13.1635 H   0  0  0  0  0  0  0  0  0  0  0  0
  -24.5377   12.9174  -11.3537 H   0  0  0  0  0  0  0  0  0  0  0  0
  -24.3277   13.5132  -12.8596 H   0  0  0  0  0  0  0  0  0  0  0  0
  -21.7308   17.5848  -10.6557 H   0  0  0  0  0  0  0  0  0  0  0  0
  1 13  1  0  0  0  0
  2 13  1  0  0  0  0
  3 14  1  0  0  0  0
  4 14  2  0  0  0  0
  5 16  1  0  0  0  0
  6 16  1  0  0  0  0
  7 16  1  0  0  0  0
  8 15  1  0  0  0  0
  9 10  1  0  0  0  0
  9 11  1  0  0  0  0
 10 12  1  0  0  0  0
 11 15  1  0  0  0  0
 12 16  1  0  0  0  0
 13 15  1  0  0  0  0
 14 15  1  0  0  0  0
  3 17  1  0  0  0  0
  5 18  1  0  0  0  0
  6 19  1  0  0  0  0
  7 20  1  0  0  0  0
  8 21  1  0  0  0  0
  8 22  1  0  0  0  0
  9 23  1  0  0  0  0
  9 24  1  0  0  0  0
 10 25  1  0  0  0  0
 10 26  1  0  0  0  0
 11 27  1  0  0  0  0
 11 28  1  0  0  0  0
 12 29  1  0  0  0  0
 12 30  1  0  0  0  0
 13 31  1  0  0  0  0
M  CHG  1  16  -1
M  END
> <pdb_id>
3SKK

> <uniprot_id>
P05089

> <usmiles>
FC(F)[C@@](N)(C(=O)O)CCCC[B-](O)(O)O

$$$$
4UE_B_306
          07202412413D 1   1.00000     0.00000     0
            
 35 37  0  0  0  0            999 V2000
   23.4094    1.2941   62.1563 O   0  0  0  0  0  0  0  0  0  0  0  0
   22.2438    0.8050   60.3509 O   0  0  0  0  0  0  0  0  0  0  0  0
   31.6886   -3.3141   59.9668 N   0  0  0  0  0  0  0  0  0  0  0  0
   24.5670   -0.5131   59.2872 N   0  0  0  0  0  0  0  0  0  0  0  0
   30.7517   -2.4581   58.1972 N   0  0  0  0  0  0  0  0  0  0  0  0
   30.5614   -1.9670   56.8222 C   0  0  0  0  0  0  0  0  0  0  0  0
   20.1701    0.2019   61.5026 C   0  0  0  0  0  0  0  0  0  0  0  0
   21.1228    1.3436   61.1117 C   0  0  0  0  0  0  0  0  0  0  0  0
   31.8925   -2.9868   58.7096 C   0  0  0  0  0  0  0  0  0  0  0  0
   30.4250   -3.0185   60.3065 C   0  0  0  0  0  0  0  0  0  0  0  0
   26.3140   -1.8045   57.9930 C   0  0  0  0  0  0  0  0  0  0  0  0
   27.6022   -2.2552   58.0425 C   0  0  0  0  0  0  0  0  0  0  0  0
   25.7709   -0.0637   61.1036 C   0  0  0  0  0  0  0  0  0  0  0  0
   27.9051   -1.2727   60.2317 C   0  0  0  0  0  0  0  0  0  0  0  0
   23.3907    0.7822   61.0532 C   0  0  0  0  0  0  0  0  0  0  0  0
   24.5591    0.0998   60.5108 C   0  0  0  0  0  0  0  0  0  0  0  0
   25.7917   -1.0778   59.0638 C   0  0  0  0  0  0  0  0  0  0  0  0
   29.8051   -2.4942   59.2076 C   0  0  0  0  0  0  0  0  0  0  0  0
   28.4075   -2.0047   59.1578 C   0  0  0  0  0  0  0  0  0  0  0  0
   26.5826   -0.8065   60.1961 C   0  0  0  0  0  0  0  0  0  0  0  0
   23.7944   -0.5433   58.6531 H   0  0  0  0  0  0  0  0  0  0  0  0
   29.6257   -1.6310   56.7147 H   0  0  0  0  0  0  0  0  0  0  0  0
   31.2054   -1.2235   56.6417 H   0  0  0  0  0  0  0  0  0  0  0  0
   30.7240   -2.7130   56.1763 H   0  0  0  0  0  0  0  0  0  0  0  0
   19.4018    0.5727   62.0243 H   0  0  0  0  0  0  0  0  0  0  0  0
   19.8272   -0.2440   60.6758 H   0  0  0  0  0  0  0  0  0  0  0  0
   20.6615   -0.4656   62.0619 H   0  0  0  0  0  0  0  0  0  0  0  0
   20.6309    2.0110   60.5526 H   0  0  0  0  0  0  0  0  0  0  0  0
   21.4652    1.7894   61.9388 H   0  0  0  0  0  0  0  0  0  0  0  0
   32.7506   -3.1080   58.2106 H   0  0  0  0  0  0  0  0  0  0  0  0
   30.0099   -3.1573   61.2056 H   0  0  0  0  0  0  0  0  0  0  0  0
   25.7466   -1.9948   57.1918 H   0  0  0  0  0  0  0  0  0  0  0  0
   27.9745   -2.7711   57.2710 H   0  0  0  0  0  0  0  0  0  0  0  0
   26.0422    0.2730   62.0053 H   0  0  0  0  0  0  0  0  0  0  0  0
   28.4845   -1.0808   61.0238 H   0  0  0  0  0  0  0  0  0  0  0  0
  1 15  2  0  0  0  0
  2  8  1  0  0  0  0
  2 15  1  0  0  0  0
  3  9  2  0  0  0  0
  3 10  1  0  0  0  0
  4 16  1  0  0  0  0
  4 17  1  0  0  0  0
  5  6  1  0  0  0  0
  5  9  1  0  0  0  0
  5 18  1  0  0  0  0
  7  8  1  0  0  0  0
 10 18  2  0  0  0  0
 11 12  1  0  0  0  0
 11 17  2  0  0  0  0
 12 19  2  0  0  0  0
 13 16  2  0  0  0  0
 13 20  1  0  0  0  0
 14 19  1  0  0  0  0
 14 20  2  0  0  0  0
 15 16  1  0  0  0  0
 17 20  1  0  0  0  0
 18 19  1  0  0  0  0
  4 21  1  0  0  0  0
  6 22  1  0  0  0  0
  6 23  1  0  0  0  0
  6 24  1  0  0  0  0
  7 25  1  0  0  0  0
  7 26  1  0  0  0  0
  7 27  1  0  0  0  0
  8 28  1  0  0  0  0
  8 29  1  0  0  0  0
  9 30  1  0  0  0  0
 10 31  1  0  0  0  0
 11 32  1  0  0  0  0
 12 33  1  0  0  0  0
 13 34  1  0  0  0  0
 14 35  1  0  0  0  0
M  END
> <pdb_id>
5BOY

> <uniprot_id>
P45452

> <usmiles>
O=C(OCC)C=1Nc2c(cc(cc2)C=3N(C=NC3)C)C1

$$$$
4UM_B_301
          07202412413D 1   1.00000     0.00000     0
            
 29 30  0  0  0  0            999 V2000
   23.0436    1.3365   62.0275 O   0  0  0  0  0  0  0  0  0  0  0  0
   30.3442   -2.4122   58.4516 O   0  0  0  0  0  0  0  0  0  0  0  0
   21.9964    0.5504   60.2124 O   0  0  0  0  0  0  0  0  0  0  0  0
   30.1098   -2.9640   60.5928 N   0  0  0  0  0  0  0  0  0  0  0  0
   24.4562   -0.4125   59.2296 N   0  0  0  0  0  0  0  0  0  0  0  0
   19.9250   -0.0843   61.3525 C   0  0  0  0  0  0  0  0  0  0  0  0
   20.7544    1.0675   60.7698 C   0  0  0  0  0  0  0  0  0  0  0  0
   26.3168   -1.5784   58.0067 C   0  0  0  0  0  0  0  0  0  0  0  0
   27.5799   -2.0504   58.1456 C   0  0  0  0  0  0  0  0  0  0  0  0
   25.4670   -0.1604   61.2057 C   0  0  0  0  0  0  0  0  0  0  0  0
   27.6671   -1.3084   60.4569 C   0  0  0  0  0  0  0  0  0  0  0  0
   23.0944    0.7134   60.9749 C   0  0  0  0  0  0  0  0  0  0  0  0
   29.6366   -2.4555   59.4391 C   0  0  0  0  0  0  0  0  0  0  0  0
   24.3252    0.0759   60.5040 C   0  0  0  0  0  0  0  0  0  0  0  0
   25.6948   -0.9629   59.0891 C   0  0  0  0  0  0  0  0  0  0  0  0
   28.2701   -1.9141   59.3594 C   0  0  0  0  0  0  0  0  0  0  0  0
   26.3658   -0.8199   60.3247 C   0  0  0  0  0  0  0  0  0  0  0  0
   29.5235   -2.9973   61.4022 H   0  0  0  0  0  0  0  0  0  0  0  0
   31.0474   -3.3083   60.6402 H   0  0  0  0  0  0  0  0  0  0  0  0
   23.7553   -0.3713   58.5175 H   0  0  0  0  0  0  0  0  0  0  0  0
   19.0739    0.2772   61.7334 H   0  0  0  0  0  0  0  0  0  0  0  0
   19.7136   -0.7420   60.6295 H   0  0  0  0  0  0  0  0  0  0  0  0
   20.4467   -0.5388   62.0745 H   0  0  0  0  0  0  0  0  0  0  0  0
   20.2309    1.5215   60.0488 H   0  0  0  0  0  0  0  0  0  0  0  0
   20.9640    1.7247   61.4937 H   0  0  0  0  0  0  0  0  0  0  0  0
   25.8364   -1.6716   57.1346 H   0  0  0  0  0  0  0  0  0  0  0  0
   28.0257   -2.5017   57.3726 H   0  0  0  0  0  0  0  0  0  0  0  0
   25.6405    0.0837   62.1598 H   0  0  0  0  0  0  0  0  0  0  0  0
   28.1567   -1.2243   61.3248 H   0  0  0  0  0  0  0  0  0  0  0  0
  1 12  2  0  0  0  0
  2 13  2  0  0  0  0
  3  7  1  0  0  0  0
  3 12  1  0  0  0  0
  4 13  1  0  0  0  0
  5 14  1  0  0  0  0
  5 15  1  0  0  0  0
  6  7  1  0  0  0  0
  8  9  1  0  0  0  0
  8 15  2  0  0  0  0
  9 16  2  0  0  0  0
 10 14  2  0  0  0  0
 10 17  1  0  0  0  0
 11 16  1  0  0  0  0
 11 17  2  0  0  0  0
 12 14  1  0  0  0  0
 13 16  1  0  0  0  0
 15 17  1  0  0  0  0
  4 18  1  0  0  0  0
  4 19  1  0  0  0  0
  5 20  1  0  0  0  0
  6 21  1  0  0  0  0
  6 22  1  0  0  0  0
  6 23  1  0  0  0  0
  7 24  1  0  0  0  0
  7 25  1  0  0  0  0
  8 26  1  0  0  0  0
  9 27  1  0  0  0  0
 10 28  1  0  0  0  0
 11 29  1  0  0  0  0
M  END
> <pdb_id>
5BOT

> <uniprot_id>
P45452

> <usmiles>
O=C(OCC)C=1Nc2c(cc(cc2)C(=O)N)C1

$$$$
4UP_A_301
          07202413303D 1   1.00000     0.00000     0
            
 38 41  0  0  0  0            999 V2000
  -25.0727  -14.2689   -2.0139 O   0  0  0  0  0  0  0  0  0  0  0  0
  -32.0879  -20.7660   -4.2570 N   0  0  0  0  0  0  0  0  0  0  0  0
  -32.1368  -20.5596   -1.8927 N   0  0  0  0  0  0  0  0  0  0  0  0
  -25.4375   -9.2291   -3.1611 C   0  0  0  0  0  0  0  0  0  0  0  0
  -26.5060   -9.5491   -2.2886 C   0  0  0  0  0  0  0  0  0  0  0  0
  -24.5701  -10.2329   -3.6356 C   0  0  0  0  0  0  0  0  0  0  0  0
  -26.7212  -10.8848   -1.9069 C   0  0  0  0  0  0  0  0  0  0  0  0
  -24.7690  -11.5786   -3.2493 C   0  0  0  0  0  0  0  0  0  0  0  0
  -30.5558  -18.4726   -4.6132 C   0  0  0  0  0  0  0  0  0  0  0  0
  -27.1877  -16.2191   -1.4953 C   0  0  0  0  0  0  0  0  0  0  0  0
  -29.6004  -17.4866   -4.8153 C   0  0  0  0  0  0  0  0  0  0  0  0
  -28.1284  -17.2133   -1.3041 C   0  0  0  0  0  0  0  0  0  0  0  0
  -29.9336  -18.6744   -2.2224 C   0  0  0  0  0  0  0  0  0  0  0  0
  -27.7955  -16.0387   -3.9038 C   0  0  0  0  0  0  0  0  0  0  0  0
  -31.7272  -20.2037   -3.1724 C   0  0  0  0  0  0  0  0  0  0  0  0
  -26.1577  -13.3174   -1.9937 C   0  0  2  0  0  0  0  0  0  0  0  0
  -26.0947  -14.4543   -3.0015 C   0  0  2  0  0  0  0  0  0  0  0  0
  -25.8590  -11.9032   -2.3944 C   0  0  0  0  0  0  0  0  0  0  0  0
  -30.7183  -19.0844   -3.3039 C   0  0  0  0  0  0  0  0  0  0  0  0
  -27.0303  -15.6141   -2.8131 C   0  0  0  0  0  0  0  0  0  0  0  0
  -28.9425  -17.6579   -2.4109 C   0  0  0  0  0  0  0  0  0  0  0  0
  -28.7721  -17.0657   -3.7226 C   0  0  0  0  0  0  0  0  0  0  0  0
  -31.7362  -20.4352   -5.1327 H   0  0  0  0  0  0  0  0  0  0  0  0
  -32.7229  -21.5381   -4.2328 H   0  0  0  0  0  0  0  0  0  0  0  0
  -31.7958  -20.0543   -1.1000 H   0  0  0  0  0  0  0  0  0  0  0  0
  -25.2970   -8.2802   -3.4436 H   0  0  0  0  0  0  0  0  0  0  0  0
  -27.1060   -8.8267   -1.9449 H   0  0  0  0  0  0  0  0  0  0  0  0
  -23.8142   -9.9939   -4.2451 H   0  0  0  0  0  0  0  0  0  0  0  0
  -27.4775  -11.1170   -1.2952 H   0  0  0  0  0  0  0  0  0  0  0  0
  -24.1504  -12.2943   -3.5735 H   0  0  0  0  0  0  0  0  0  0  0  0
  -31.1366  -18.7644   -5.3731 H   0  0  0  0  0  0  0  0  0  0  0  0
  -26.6167  -15.9155   -0.7326 H   0  0  0  0  0  0  0  0  0  0  0  0
  -29.4899  -17.0716   -5.7184 H   0  0  0  0  0  0  0  0  0  0  0  0
  -28.2452  -17.6245   -0.4001 H   0  0  0  0  0  0  0  0  0  0  0  0
  -30.0635  -19.0887   -1.3216 H   0  0  0  0  0  0  0  0  0  0  0  0
  -27.6601  -15.6262   -4.8046 H   0  0  0  0  0  0  0  0  0  0  0  0
  -26.8202  -13.4289   -1.2531 H   0  0  0  0  0  0  0  0  0  0  0  0
  -25.8620  -14.2104   -3.9430 H   0  0  0  0  0  0  0  0  0  0  0  0
  1 16  1  0  0  0  0
  1 17  1  0  0  0  0
  2 15  1  0  0  0  0
  3 15  2  0  0  0  0
  4  5  2  0  0  0  0
  4  6  1  0  0  0  0
  5  7  1  0  0  0  0
  6  8  2  0  0  0  0
  7 18  2  0  0  0  0
  8 18  1  0  0  0  0
  9 11  1  0  0  0  0
  9 19  2  0  0  0  0
 10 12  2  0  0  0  0
 10 20  1  0  0  0  0
 11 22  2  0  0  0  0
 12 21  1  0  0  0  0
 13 19  1  0  0  0  0
 13 21  2  0  0  0  0
 14 20  2  0  0  0  0
 14 22  1  0  0  0  0
 15 19  1  0  0  0  0
 16 17  1  0  0  0  0
 16 18  1  0  0  0  0
 17 20  1  0  0  0  0
 21 22  1  0  0  0  0
  2 23  1  0  0  0  0
  2 24  1  0  0  0  0
  3 25  1  0  0  0  0
  4 26  1  0  0  0  0
  5 27  1  0  0  0  0
  6 28  1  0  0  0  0
  7 29  1  0  0  0  0
  8 30  1  0  0  0  0
  9 31  1  0  0  0  0
 10 32  1  0  0  0  0
 11 33  1  0  0  0  0
 12 34  1  0  0  0  0
 13 35  1  0  0  0  0
 14 36  1  0  0  0  0
 16 37  1  0  0  0  0
 17 38  1  0  0  0  0
M  END
> <pdb_id>
4FUB

> <uniprot_id>
P00749

> <usmiles>
O1[C@@H](c2cc3c(cc(cc3)C(=N)N)cc2)[C@@H]1c4ccccc4

$$$$
4UT_B_801
          07202401443D 1   1.00000     0.00000     0
            
 63 67  0  0  0  0            999 V2000
  -50.6713   23.9456   -7.2867 O   0  0  0  0  0  0  0  0  0  0  0  0
  -44.8130   25.7351    0.5836 O   0  0  0  0  0  0  0  0  0  0  0  0
  -52.2765   25.1072   -3.5273 N   0  0  0  0  0  0  0  0  0  0  0  0
  -51.4172   25.5378   -2.6070 N   0  0  0  0  0  0  0  0  0  0  0  0
  -52.3597   24.2434   -5.7482 N   0  0  0  0  0  0  0  0  0  0  0  0
  -57.5992   22.0407  -12.9506 N   0  0  0  0  0  0  0  0  0  0  0  0
  -55.6597   22.2363  -10.8910 N   0  0  0  0  0  0  0  0  0  0  0  0
  -43.8885   26.5208    1.2807 C   0  0  0  0  0  0  0  0  0  0  0  0
  -59.4884   21.6806  -14.1971 C   0  0  0  0  0  0  0  0  0  0  0  0
  -58.1306   21.2139  -13.7157 C   0  0  0  0  0  0  0  0  0  0  0  0
  -57.9208   21.7257  -11.6301 C   0  0  0  0  0  0  0  0  0  0  0  0
  -56.2372   22.0122  -13.1987 C   0  0  0  0  0  0  0  0  0  0  0  0
  -56.9974   22.3113  -10.5705 C   0  0  0  0  0  0  0  0  0  0  0  0
  -55.4489   22.7492  -12.1437 C   0  0  0  0  0  0  0  0  0  0  0  0
  -44.4143   27.1736   -2.7759 C   0  0  0  0  0  0  0  0  0  0  0  0
  -44.1440   26.8375   -1.4616 C   0  0  0  0  0  0  0  0  0  0  0  0
  -45.6069   26.7658   -3.3663 C   0  0  0  0  0  0  0  0  0  0  0  0
  -53.3757   22.7399  -10.2829 C   0  0  0  0  0  0  0  0  0  0  0  0
  -55.1208   22.9196   -8.6324 C   0  0  0  0  0  0  0  0  0  0  0  0
  -52.4335   23.1388   -9.3464 C   0  0  0  0  0  0  0  0  0  0  0  0
  -54.1809   23.3260   -7.6997 C   0  0  0  0  0  0  0  0  0  0  0  0
  -47.7788   25.1373   -4.5709 C   0  0  0  0  0  0  0  0  0  0  0  0
  -49.0134   24.8013   -5.1458 C   0  0  0  0  0  0  0  0  0  0  0  0
  -46.2662   25.6835   -1.3349 C   0  0  0  0  0  0  0  0  0  0  0  0
  -48.9071   25.8068   -2.5434 C   0  0  0  0  0  0  0  0  0  0  0  0
  -51.8511   23.8763   -7.0170 C   0  0  0  0  0  0  0  0  0  0  0  0
  -51.6262   24.7298   -4.6297 C   0  0  0  0  0  0  0  0  0  0  0  0
  -45.0759   26.0907   -0.7418 C   0  0  0  0  0  0  0  0  0  0  0  0
  -50.1558   25.4515   -3.1337 C   0  0  0  0  0  0  0  0  0  0  0  0
  -54.7154   22.6226   -9.9226 C   0  0  0  0  0  0  0  0  0  0  0  0
  -52.8423   23.4245   -8.0513 C   0  0  0  0  0  0  0  0  0  0  0  0
  -46.5276   26.0139   -2.6506 C   0  0  0  0  0  0  0  0  0  0  0  0
  -47.7283   25.6379   -3.2605 C   0  0  0  0  0  0  0  0  0  0  0  0
  -50.2278   24.9481   -4.4106 C   0  0  0  0  0  0  0  0  0  0  0  0
  -51.6512   25.8665   -1.6921 H   0  0  0  0  0  0  0  0  0  0  0  0
  -53.3475   24.1504   -5.6234 H   0  0  0  0  0  0  0  0  0  0  0  0
  -43.7865   26.1689    2.2112 H   0  0  0  0  0  0  0  0  0  0  0  0
  -43.0048   26.4891    0.8136 H   0  0  0  0  0  0  0  0  0  0  0  0
  -44.2134   27.4659    1.3155 H   0  0  0  0  0  0  0  0  0  0  0  0
  -59.8807   20.9918  -14.8067 H   0  0  0  0  0  0  0  0  0  0  0  0
  -60.0928   21.8136  -13.4116 H   0  0  0  0  0  0  0  0  0  0  0  0
  -59.3882   22.5444  -14.6907 H   0  0  0  0  0  0  0  0  0  0  0  0
  -58.2406   20.3473  -13.2290 H   0  0  0  0  0  0  0  0  0  0  0  0
  -57.5359   21.0781  -14.5081 H   0  0  0  0  0  0  0  0  0  0  0  0
  -57.9024   20.7302  -11.5381 H   0  0  0  0  0  0  0  0  0  0  0  0
  -58.8460   22.0601  -11.4507 H   0  0  0  0  0  0  0  0  0  0  0  0
  -56.0628   22.4378  -14.0867 H   0  0  0  0  0  0  0  0  0  0  0  0
  -55.9338   21.0596  -13.2204 H   0  0  0  0  0  0  0  0  0  0  0  0
  -57.2366   23.2737  -10.4417 H   0  0  0  0  0  0  0  0  0  0  0  0
  -57.1444   21.8140   -9.7154 H   0  0  0  0  0  0  0  0  0  0  0  0
  -54.4753   22.6794  -12.3610 H   0  0  0  0  0  0  0  0  0  0  0  0
  -55.7235   23.7107  -12.1488 H   0  0  0  0  0  0  0  0  0  0  0  0
  -43.7534   27.7093   -3.3015 H   0  0  0  0  0  0  0  0  0  0  0  0
  -43.2887   27.1272   -1.0319 H   0  0  0  0  0  0  0  0  0  0  0  0
  -45.8018   27.0168   -4.3144 H   0  0  0  0  0  0  0  0  0  0  0  0
  -53.0919   22.5359  -11.2199 H   0  0  0  0  0  0  0  0  0  0  0  0
  -56.0842   22.8413   -8.3761 H   0  0  0  0  0  0  0  0  0  0  0  0
  -51.4700   23.2196   -9.6017 H   0  0  0  0  0  0  0  0  0  0  0  0
  -54.4685   23.5495   -6.7684 H   0  0  0  0  0  0  0  0  0  0  0  0
  -46.9349   25.0202   -5.0944 H   0  0  0  0  0  0  0  0  0  0  0  0
  -49.0430   24.4542   -6.0832 H   0  0  0  0  0  0  0  0  0  0  0  0
  -46.9316   25.1527   -0.8100 H   0  0  0  0  0  0  0  0  0  0  0  0
  -48.8796   26.1769   -1.6148 H   0  0  0  0  0  0  0  0  0  0  0  0
  1 26  2  0  0  0  0
  2  8  1  0  0  0  0
  2 28  1  0  0  0  0
  3  4  1  0  0  0  0
  3 27  2  0  0  0  0
  4 29  1  0  0  0  0
  5 26  1  0  0  0  0
  5 27  1  0  0  0  0
  6 10  1  0  0  0  0
  6 11  1  0  0  0  0
  6 12  1  0  0  0  0
  7 13  1  0  0  0  0
  7 14  1  0  0  0  0
  7 30  1  0  0  0  0
  9 10  1  0  0  0  0
 11 13  1  0  0  0  0
 12 14  1  0  0  0  0
 15 16  2  0  0  0  0
 15 17  1  0  0  0  0
 16 28  1  0  0  0  0
 17 32  2  0  0  0  0
 18 20  1  0  0  0  0
 18 30  2  0  0  0  0
 19 21  2  0  0  0  0
 19 30  1  0  0  0  0
 20 31  2  0  0  0  0
 21 31  1  0  0  0  0
 22 23  1  0  0  0  0
 22 33  2  0  0  0  0
 23 34  2  0  0  0  0
 24 28  2  0  0  0  0
 24 32  1  0  0  0  0
 25 29  2  0  0  0  0
 25 33  1  0  0  0  0
 26 31  1  0  0  0  0
 27 34  1  0  0  0  0
 29 34  1  0  0  0  0
 32 33  1  0  0  0  0
  4 35  1  0  0  0  0
  5 36  1  0  0  0  0
  8 37  1  0  0  0  0
  8 38  1  0  0  0  0
  8 39  1  0  0  0  0
  9 40  1  0  0  0  0
  9 41  1  0  0  0  0
  9 42  1  0  0  0  0
 10 43  1  0  0  0  0
 10 44  1  0  0  0  0
 11 45  1  0  0  0  0
 11 46  1  0  0  0  0
 12 47  1  0  0  0  0
 12 48  1  0  0  0  0
 13 49  1  0  0  0  0
 13 50  1  0  0  0  0
 14 51  1  0  0  0  0
 14 52  1  0  0  0  0
 15 53  1  0  0  0  0
 16 54  1  0  0  0  0
 17 55  1  0  0  0  0
 18 56  1  0  0  0  0
 19 57  1  0  0  0  0
 20 58  1  0  0  0  0
 21 59  1  0  0  0  0
 22 60  1  0  0  0  0
 23 61  1  0  0  0  0
 24 62  1  0  0  0  0
 25 63  1  0  0  0  0
M  END
> <pdb_id>
4ZSA

> <uniprot_id>
P11362

> <usmiles>
O=C(NC1=NNc2c1ccc(c3cc(OC)ccc3)c2)c4ccc(N5CCN(CC5)CC)cc4

$$$$
4V8_A_401
          07212404193D 1   1.00000     0.00000     0
            
 50 54  0  0  0  0            999 V2000
    3.7242    7.2383   46.2886 O   0  0  0  0  0  0  0  0  0  0  0  0
   11.7335    5.2904   44.2827 N   0  0  0  0  0  0  0  0  0  0  0  0
   12.3500    6.1164   43.4132 N   0  0  0  0  0  0  0  0  0  0  0  0
   12.9764   10.3058   40.6237 N   0  0  0  0  0  0  0  0  0  0  0  0
    4.3503    8.8660   44.7863 N   0  0  0  0  0  0  0  0  0  0  0  0
    8.2392    7.3513   45.0778 N   0  0  0  0  0  0  0  0  0  0  0  0
   13.8823    9.4608   41.1629 C   0  0  0  0  0  0  0  0  0  0  0  0
   11.6445   10.1882   40.8419 C   0  0  0  0  0  0  0  0  0  0  0  0
    5.3533    9.3760   44.0232 C   0  0  0  0  0  0  0  0  0  0  0  0
    8.6905    6.3681   46.0946 C   0  0  0  0  0  0  0  0  0  0  0  0
    2.6148   12.0947   48.2473 C   0  0  0  0  0  0  0  0  0  0  0  0
    1.5468   11.2882   47.8071 C   0  0  0  0  0  0  0  0  0  0  0  0
    3.8332   12.0891   47.5381 C   0  0  0  0  0  0  0  0  0  0  0  0
    3.0470    9.5493   44.7038 C   0  0  0  0  0  0  0  0  0  0  0  0
    9.2569    7.8937   44.1642 C   0  0  0  0  0  0  0  0  0  0  0  0
    9.5934    5.2152   45.5767 C   0  0  0  0  0  0  0  0  0  0  0  0
    6.5984    8.8926   44.0775 C   0  0  0  0  0  0  0  0  0  0  0  0
   13.4492    8.4164   41.9854 C   0  0  0  0  0  0  0  0  0  0  0  0
   11.1656    9.1697   41.6779 C   0  0  0  0  0  0  0  0  0  0  0  0
    1.6934   10.4770   46.6643 C   0  0  0  0  0  0  0  0  0  0  0  0
    3.9661   11.2728   46.3924 C   0  0  0  0  0  0  0  0  0  0  0  0
    5.9320    7.2102   45.6655 C   0  0  0  0  0  0  0  0  0  0  0  0
    4.5650    7.7642   45.5758 C   0  0  0  0  0  0  0  0  0  0  0  0
   10.6000    5.8097   44.6274 C   0  0  0  0  0  0  0  0  0  0  0  0
    6.9764    7.7642   44.9846 C   0  0  0  0  0  0  0  0  0  0  0  0
    2.9043   10.4591   45.9369 C   0  0  0  0  0  0  0  0  0  0  0  0
   11.6488    7.1447   43.1787 C   0  0  0  0  0  0  0  0  0  0  0  0
   12.0776    8.2691   42.2570 C   0  0  0  0  0  0  0  0  0  0  0  0
   10.4454    6.9884   43.9940 C   0  0  0  0  0  0  0  0  0  0  0  0
   12.0947    4.4168   44.6087 H   0  0  0  0  0  0  0  0  0  0  0  0
   14.8570    9.5817   40.9748 H   0  0  0  0  0  0  0  0  0  0  0  0
   11.0062   10.8247   40.4089 H   0  0  0  0  0  0  0  0  0  0  0  0
    5.1538   10.1348   43.4032 H   0  0  0  0  0  0  0  0  0  0  0  0
    7.8763    5.9576   46.5052 H   0  0  0  0  0  0  0  0  0  0  0  0
    9.2021    6.8658   46.7950 H   0  0  0  0  0  0  0  0  0  0  0  0
    2.5091   12.6686   49.0593 H   0  0  0  0  0  0  0  0  0  0  0  0
    0.6811   11.2915   48.3076 H   0  0  0  0  0  0  0  0  0  0  0  0
    4.5969   12.6580   47.8432 H   0  0  0  0  0  0  0  0  0  0  0  0
    2.3100    8.8734   44.6944 H   0  0  0  0  0  0  0  0  0  0  0  0
    3.0051   10.0998   43.8700 H   0  0  0  0  0  0  0  0  0  0  0  0
    9.5745    8.7699   44.5268 H   0  0  0  0  0  0  0  0  0  0  0  0
    8.8358    8.0367   43.2685 H   0  0  0  0  0  0  0  0  0  0  0  0
    9.0366    4.5351   45.0999 H   0  0  0  0  0  0  0  0  0  0  0  0
   10.0648    4.7812   46.3444 H   0  0  0  0  0  0  0  0  0  0  0  0
    7.3005    9.2985   43.4924 H   0  0  0  0  0  0  0  0  0  0  0  0
   14.1111    7.7779   42.3782 H   0  0  0  0  0  0  0  0  0  0  0  0
   10.1861    9.0845   41.8605 H   0  0  0  0  0  0  0  0  0  0  0  0
    0.9295    9.9058   46.3640 H   0  0  0  0  0  0  0  0  0  0  0  0
    4.8320   11.2709   45.8921 H   0  0  0  0  0  0  0  0  0  0  0  0
    6.0958    6.4084   46.2401 H   0  0  0  0  0  0  0  0  0  0  0  0
  1 23  2  0  0  0  0
  2  3  1  0  0  0  0
  2 24  1  0  0  0  0
  3 27  2  0  0  0  0
  4  7  2  0  0  0  0
  4  8  1  0  0  0  0
  5  9  1  0  0  0  0
  5 14  1  0  0  0  0
  5 23  1  0  0  0  0
  6 10  1  0  0  0  0
  6 15  1  0  0  0  0
  6 25  1  0  0  0  0
  7 18  1  0  0  0  0
  8 19  2  0  0  0  0
  9 17  2  0  0  0  0
 10 16  1  0  0  0  0
 11 12  2  0  0  0  0
 11 13  1  0  0  0  0
 12 20  1  0  0  0  0
 13 21  2  0  0  0  0
 14 26  1  0  0  0  0
 15 29  1  0  0  0  0
 16 24  1  0  0  0  0
 17 25  1  0  0  0  0
 18 28  2  0  0  0  0
 19 28  1  0  0  0  0
 20 26  2  0  0  0  0
 21 26  1  0  0  0  0
 22 23  1  0  0  0  0
 22 25  2  0  0  0  0
 24 29  2  0  0  0  0
 27 28  1  0  0  0  0
 27 29  1  0  0  0  0
  2 30  1  0  0  0  0
  7 31  1  0  0  0  0
  8 32  1  0  0  0  0
  9 33  1  0  0  0  0
 10 34  1  0  0  0  0
 10 35  1  0  0  0  0
 11 36  1  0  0  0  0
 12 37  1  0  0  0  0
 13 38  1  0  0  0  0
 14 39  1  0  0  0  0
 14 40  1  0  0  0  0
 15 41  1  0  0  0  0
 15 42  1  0  0  0  0
 16 43  1  0  0  0  0
 16 44  1  0  0  0  0
 17 45  1  0  0  0  0
 18 46  1  0  0  0  0
 19 47  1  0  0  0  0
 20 48  1  0  0  0  0
 21 49  1  0  0  0  0
 22 50  1  0  0  0  0
M  END
> <pdb_id>
5BUE

> <uniprot_id>
P28482

> <usmiles>
O=C1N(C=CC(N2CC=3C(=NNC3CC2)c4ccncc4)=C1)Cc5ccccc5

$$$$
4V9_A_402
          07212404193D 1   1.00000     0.00000     0
            
 37 40  0  0  0  0            999 V2000
   13.6373   10.9520   39.7242 F   0  0  0  0  0  0  0  0  0  0  0  0
   11.4189    5.4275   44.5904 N   0  0  0  0  0  0  0  0  0  0  0  0
   12.2037    6.1196   43.7080 N   0  0  0  0  0  0  0  0  0  0  0  0
    5.7173    7.7562   45.3557 N   0  0  0  0  0  0  0  0  0  0  0  0
    7.9702    7.7743   44.7941 N   0  0  0  0  0  0  0  0  0  0  0  0
    4.4589    8.1802   45.1374 C   0  0  0  0  0  0  0  0  0  0  0  0
    8.2885    6.9755   45.9865 C   0  0  0  0  0  0  0  0  0  0  0  0
    4.1054    9.0371   44.1118 C   0  0  0  0  0  0  0  0  0  0  0  0
    5.1018    9.4997   43.2767 C   0  0  0  0  0  0  0  0  0  0  0  0
    9.1188    8.1812   43.9223 C   0  0  0  0  0  0  0  0  0  0  0  0
    9.0877    5.7048   45.6972 C   0  0  0  0  0  0  0  0  0  0  0  0
    6.4152    9.0929   43.4660 C   0  0  0  0  0  0  0  0  0  0  0  0
   11.7512    9.9960   40.7735 C   0  0  0  0  0  0  0  0  0  0  0  0
   13.9693    9.2294   41.2927 C   0  0  0  0  0  0  0  0  0  0  0  0
   11.2311    9.0674   41.6591 C   0  0  0  0  0  0  0  0  0  0  0  0
   13.4392    8.2936   42.1637 C   0  0  0  0  0  0  0  0  0  0  0  0
   13.1103   10.0530   40.6194 C   0  0  0  0  0  0  0  0  0  0  0  0
    6.6782    8.2086   44.5244 C   0  0  0  0  0  0  0  0  0  0  0  0
   10.2204    6.0736   44.7940 C   0  0  0  0  0  0  0  0  0  0  0  0
   11.5274    7.2094   43.3288 C   0  0  0  0  0  0  0  0  0  0  0  0
   12.0678    8.2039   42.3688 C   0  0  0  0  0  0  0  0  0  0  0  0
   10.2555    7.2078   43.9951 C   0  0  0  0  0  0  0  0  0  0  0  0
   11.6810    4.5677   45.0286 H   0  0  0  0  0  0  0  0  0  0  0  0
    3.7390    7.8572   45.7517 H   0  0  0  0  0  0  0  0  0  0  0  0
    7.4296    6.7121   46.4256 H   0  0  0  0  0  0  0  0  0  0  0  0
    8.8217    7.5451   46.6120 H   0  0  0  0  0  0  0  0  0  0  0  0
    3.1538    9.3140   43.9787 H   0  0  0  0  0  0  0  0  0  0  0  0
    4.8770   10.1297   42.5333 H   0  0  0  0  0  0  0  0  0  0  0  0
    9.4446    9.0796   44.2169 H   0  0  0  0  0  0  0  0  0  0  0  0
    8.8014    8.2358   42.9756 H   0  0  0  0  0  0  0  0  0  0  0  0
    8.5019    5.0290   45.2498 H   0  0  0  0  0  0  0  0  0  0  0  0
    9.4432    5.3247   46.5510 H   0  0  0  0  0  0  0  0  0  0  0  0
    7.1487    9.4183   42.8693 H   0  0  0  0  0  0  0  0  0  0  0  0
   11.1502   10.6086   40.2603 H   0  0  0  0  0  0  0  0  0  0  0  0
   14.9576    9.3016   41.1588 H   0  0  0  0  0  0  0  0  0  0  0  0
   10.2415    9.0143   41.7923 H   0  0  0  0  0  0  0  0  0  0  0  0
   14.0521    7.6729   42.6526 H   0  0  0  0  0  0  0  0  0  0  0  0
  1 17  1  0  0  0  0
  2  3  1  0  0  0  0
  2 19  1  0  0  0  0
  3 20  2  0  0  0  0
  4  6  2  0  0  0  0
  4 18  1  0  0  0  0
  5  7  1  0  0  0  0
  5 10  1  0  0  0  0
  5 18  1  0  0  0  0
  6  8  1  0  0  0  0
  7 11  1  0  0  0  0
  8  9  2  0  0  0  0
  9 12  1  0  0  0  0
 10 22  1  0  0  0  0
 11 19  1  0  0  0  0
 12 18  2  0  0  0  0
 13 15  1  0  0  0  0
 13 17  2  0  0  0  0
 14 16  2  0  0  0  0
 14 17  1  0  0  0  0
 15 21  2  0  0  0  0
 16 21  1  0  0  0  0
 19 22  2  0  0  0  0
 20 21  1  0  0  0  0
 20 22  1  0  0  0  0
  2 23  1  0  0  0  0
  6 24  1  0  0  0  0
  7 25  1  0  0  0  0
  7 26  1  0  0  0  0
  8 27  1  0  0  0  0
  9 28  1  0  0  0  0
 10 29  1  0  0  0  0
 10 30  1  0  0  0  0
 11 31  1  0  0  0  0
 11 32  1  0  0  0  0
 12 33  1  0  0  0  0
 13 34  1  0  0  0  0
 14 35  1  0  0  0  0
 15 36  1  0  0  0  0
 16 37  1  0  0  0  0
M  END
> <pdb_id>
5BUI

> <uniprot_id>
P28482

> <usmiles>
Fc1ccc(cc1)C2=NNC3=C2CN(c4ncccc4)CC3

$$$$
4VB_A_401
          07212404193D 1   1.00000     0.00000     0
            
 37 40  0  0  0  0            999 V2000
    3.5363    6.7701   46.2014 O   0  0  0  0  0  0  0  0  0  0  0  0
   11.5958    5.4849   44.5116 N   0  0  0  0  0  0  0  0  0  0  0  0
   12.2679    6.2446   43.6126 N   0  0  0  0  0  0  0  0  0  0  0  0
   12.8514   10.3397   40.6257 N   0  0  0  0  0  0  0  0  0  0  0  0
    4.0568    8.3455   44.6792 N   0  0  0  0  0  0  0  0  0  0  0  0
    8.1451    7.6423   45.1492 N   0  0  0  0  0  0  0  0  0  0  0  0
   11.5507   10.1595   40.8809 C   0  0  0  0  0  0  0  0  0  0  0  0
   13.7054    9.5337   41.2593 C   0  0  0  0  0  0  0  0  0  0  0  0
    4.9413    9.0595   43.9415 C   0  0  0  0  0  0  0  0  0  0  0  0
    8.7136    6.9402   46.3092 C   0  0  0  0  0  0  0  0  0  0  0  0
    9.1039    8.1148   44.1481 C   0  0  0  0  0  0  0  0  0  0  0  0
    6.2708    8.8575   44.0503 C   0  0  0  0  0  0  0  0  0  0  0  0
   11.0631    9.2040   41.7493 C   0  0  0  0  0  0  0  0  0  0  0  0
   13.3177    8.5424   42.1399 C   0  0  0  0  0  0  0  0  0  0  0  0
    9.3825    5.6543   45.8628 C   0  0  0  0  0  0  0  0  0  0  0  0
    5.8192    7.1060   45.6521 C   0  0  0  0  0  0  0  0  0  0  0  0
    4.4174    7.3544   45.5526 C   0  0  0  0  0  0  0  0  0  0  0  0
   10.4039    6.0722   44.8581 C   0  0  0  0  0  0  0  0  0  0  0  0
    6.7577    7.8520   44.9399 C   0  0  0  0  0  0  0  0  0  0  0  0
   11.5263    7.3214   43.3504 C   0  0  0  0  0  0  0  0  0  0  0  0
   11.9635    8.3731   42.4063 C   0  0  0  0  0  0  0  0  0  0  0  0
   10.3168    7.2401   44.1199 C   0  0  0  0  0  0  0  0  0  0  0  0
   11.9243    4.6129   44.8744 H   0  0  0  0  0  0  0  0  0  0  0  0
    3.0839    8.5545   44.5800 H   0  0  0  0  0  0  0  0  0  0  0  0
   10.8932   10.7517   40.4151 H   0  0  0  0  0  0  0  0  0  0  0  0
   14.6830    9.6541   41.0866 H   0  0  0  0  0  0  0  0  0  0  0  0
    4.6016    9.7504   43.3034 H   0  0  0  0  0  0  0  0  0  0  0  0
    7.9826    6.7253   46.9568 H   0  0  0  0  0  0  0  0  0  0  0  0
    9.3899    7.5281   46.7529 H   0  0  0  0  0  0  0  0  0  0  0  0
    9.3789    9.0495   44.3731 H   0  0  0  0  0  0  0  0  0  0  0  0
    8.6699    8.1027   43.2472 H   0  0  0  0  0  0  0  0  0  0  0  0
    6.9100    9.4073   43.5126 H   0  0  0  0  0  0  0  0  0  0  0  0
   10.0794    9.1109   41.9031 H   0  0  0  0  0  0  0  0  0  0  0  0
   13.9994    7.9566   42.5783 H   0  0  0  0  0  0  0  0  0  0  0  0
    8.7140    5.0374   45.4473 H   0  0  0  0  0  0  0  0  0  0  0  0
    9.8195    5.1989   46.6384 H   0  0  0  0  0  0  0  0  0  0  0  0
    6.1390    6.3729   46.2523 H   0  0  0  0  0  0  0  0  0  0  0  0
  1 17  2  0  0  0  0
  2  3  1  0  0  0  0
  2 18  1  0  0  0  0
  3 20  2  0  0  0  0
  4  7  2  0  0  0  0
  4  8  1  0  0  0  0
  5  9  1  0  0  0  0
  5 17  1  0  0  0  0
  6 10  1  0  0  0  0
  6 11  1  0  0  0  0
  6 19  1  0  0  0  0
  7 13  1  0  0  0  0
  8 14  2  0  0  0  0
  9 12  2  0  0  0  0
 10 15  1  0  0  0  0
 11 22  1  0  0  0  0
 12 19  1  0  0  0  0
 13 21  2  0  0  0  0
 14 21  1  0  0  0  0
 15 18  1  0  0  0  0
 16 17  1  0  0  0  0
 16 19  2  0  0  0  0
 18 22  2  0  0  0  0
 20 21  1  0  0  0  0
 20 22  1  0  0  0  0
  2 23  1  0  0  0  0
  5 24  1  0  0  0  0
  7 25  1  0  0  0  0
  8 26  1  0  0  0  0
  9 27  1  0  0  0  0
 10 28  1  0  0  0  0
 10 29  1  0  0  0  0
 11 30  1  0  0  0  0
 11 31  1  0  0  0  0
 12 32  1  0  0  0  0
 13 33  1  0  0  0  0
 14 34  1  0  0  0  0
 15 35  1  0  0  0  0
 15 36  1  0  0  0  0
 16 37  1  0  0  0  0
M  END
> <pdb_id>
5BUJ

> <uniprot_id>
P28482

> <usmiles>
O=C1NC=CC(N2CC=3C(=NNC3CC2)c4ccncc4)=C1

$$$$
4VR_A_402
          07192417023D 1   1.00000     0.00000     0
            
 38 40  0  0  0  0            999 V2000
  -12.9878   49.4819   18.8266 Br  0  0  0  0  0  0  0  0  0  0  0  0
   -7.9474   42.0008   25.8599 O   0  0  0  0  0  0  0  0  0  0  0  0
   -9.5659   43.0556   23.8005 N   0  0  0  0  0  0  0  0  0  0  0  0
  -10.9694   44.0170   22.1113 N   0  0  0  0  0  0  0  0  0  0  0  0
   -9.6099   42.1515   21.6950 N   0  0  0  0  0  0  0  0  0  0  0  0
   -8.0246   40.3609   22.1398 N   0  0  0  0  0  0  0  0  0  0  0  0
   -8.7253   41.9800   23.7088 N   0  0  0  0  0  0  0  0  0  0  0  0
   -4.4248   40.1051   22.1535 C   0  0  0  0  0  0  0  0  0  0  0  0
  -11.3897   45.1606   22.9334 C   0  0  0  0  0  0  0  0  0  0  0  0
   -5.3224   38.9811   21.6863 C   0  0  0  0  0  0  0  0  0  0  0  0
   -6.3912   38.6086   22.7084 C   0  0  0  0  0  0  0  0  0  0  0  0
  -11.2156   47.8808   20.4087 C   0  0  0  0  0  0  0  0  0  0  0  0
  -13.5253   47.4231   20.8004 C   0  0  0  0  0  0  0  0  0  0  0  0
  -10.8490   46.9265   21.3327 C   0  0  0  0  0  0  0  0  0  0  0  0
  -13.1686   46.4527   21.7245 C   0  0  0  0  0  0  0  0  0  0  0  0
   -7.1542   40.3243   24.3336 C   0  0  0  0  0  0  0  0  0  0  0  0
  -10.0648   43.1139   22.5713 C   0  0  0  0  0  0  0  0  0  0  0  0
   -8.7846   41.4601   22.4592 C   0  0  0  0  0  0  0  0  0  0  0  0
   -7.9422   41.4874   24.7441 C   0  0  0  0  0  0  0  0  0  0  0  0
  -12.5443   48.1332   20.1325 C   0  0  0  0  0  0  0  0  0  0  0  0
   -7.1954   39.7916   23.1079 C   0  0  0  0  0  0  0  0  0  0  0  0
  -11.8310   46.2164   21.9876 C   0  0  0  0  0  0  0  0  0  0  0  0
  -11.3564   43.9015   21.1965 H   0  0  0  0  0  0  0  0  0  0  0  0
   -8.0653   39.9711   21.2198 H   0  0  0  0  0  0  0  0  0  0  0  0
   -3.7466   40.3058   21.4467 H   0  0  0  0  0  0  0  0  0  0  0  0
   -4.9759   40.9211   22.3281 H   0  0  0  0  0  0  0  0  0  0  0  0
   -3.9586   39.8315   22.9948 H   0  0  0  0  0  0  0  0  0  0  0  0
  -10.6239   45.4893   23.4861 H   0  0  0  0  0  0  0  0  0  0  0  0
  -12.1446   44.8962   23.5336 H   0  0  0  0  0  0  0  0  0  0  0  0
   -4.7575   38.1754   21.5077 H   0  0  0  0  0  0  0  0  0  0  0  0
   -5.7749   39.2650   20.8409 H   0  0  0  0  0  0  0  0  0  0  0  0
   -5.9470   38.2282   23.5196 H   0  0  0  0  0  0  0  0  0  0  0  0
   -6.9987   37.9224   22.3084 H   0  0  0  0  0  0  0  0  0  0  0  0
  -10.5070   48.3994   19.9301 H   0  0  0  0  0  0  0  0  0  0  0  0
  -14.4906   47.6092   20.6172 H   0  0  0  0  0  0  0  0  0  0  0  0
   -9.8834   46.7519   21.5252 H   0  0  0  0  0  0  0  0  0  0  0  0
  -13.8746   45.9263   22.1983 H   0  0  0  0  0  0  0  0  0  0  0  0
   -6.5495   39.9033   25.0096 H   0  0  0  0  0  0  0  0  0  0  0  0
  1 20  1  0  0  0  0
  2 19  2  0  0  0  0
  3  7  1  0  0  0  0
  3 17  2  0  0  0  0
  4  9  1  0  0  0  0
  4 17  1  0  0  0  0
  5 17  1  0  0  0  0
  5 18  2  0  0  0  0
  6 18  1  0  0  0  0
  6 21  1  0  0  0  0
  7 18  1  0  0  0  0
  7 19  1  0  0  0  0
  8 10  1  0  0  0  0
  9 22  1  0  0  0  0
 10 11  1  0  0  0  0
 11 21  1  0  0  0  0
 12 14  2  0  0  0  0
 12 20  1  0  0  0  0
 13 15  1  0  0  0  0
 13 20  2  0  0  0  0
 14 22  1  0  0  0  0
 15 22  2  0  0  0  0
 16 19  1  0  0  0  0
 16 21  2  0  0  0  0
  4 23  1  0  0  0  0
  6 24  1  0  0  0  0
  8 25  1  0  0  0  0
  8 26  1  0  0  0  0
  8 27  1  0  0  0  0
  9 28  1  0  0  0  0
  9 29  1  0  0  0  0
 10 30  1  0  0  0  0
 10 31  1  0  0  0  0
 11 32  1  0  0  0  0
 11 33  1  0  0  0  0
 12 34  1  0  0  0  0
 13 35  1  0  0  0  0
 14 36  1  0  0  0  0
 15 37  1  0  0  0  0
 16 38  1  0  0  0  0
M  END
> <pdb_id>
5BWU

> <uniprot_id>
O15382

> <usmiles>
Brc1ccc(cc1)CNC2=NN3C(=N2)NC(=CC3=O)CCC

$$$$
4VT_A_402
          07192417023D 1   1.00000     0.00000     0
            
 29 31  0  0  0  0            999 V2000
   -9.1533   42.6572   25.8464 O   0  0  0  0  0  0  0  0  0  0  0  0
  -10.6099   42.0110   19.0724 N   0  0  0  0  0  0  0  0  0  0  0  0
  -10.4563   43.4822   23.6485 N   0  0  0  0  0  0  0  0  0  0  0  0
   -8.6701   40.7455   22.3523 N   0  0  0  0  0  0  0  0  0  0  0  0
   -9.6159   42.4234   23.6670 N   0  0  0  0  0  0  0  0  0  0  0  0
  -10.4940   42.2660   20.2017 C   0  0  0  0  0  0  0  0  0  0  0  0
  -10.8724   43.5416   22.3729 C   0  0  0  0  0  0  0  0  0  0  0  0
   -3.3883   40.6948   21.8781 C   0  0  0  0  0  0  0  0  0  0  0  0
   -4.3807   40.3674   20.9681 C   0  0  0  0  0  0  0  0  0  0  0  0
   -3.5967   40.4952   23.2290 C   0  0  0  0  0  0  0  0  0  0  0  0
   -5.5764   39.8385   21.4069 C   0  0  0  0  0  0  0  0  0  0  0  0
   -4.7936   39.9702   23.6648 C   0  0  0  0  0  0  0  0  0  0  0  0
   -8.1200   40.8834   24.6349 C   0  0  0  0  0  0  0  0  0  0  0  0
   -7.0745   39.0950   23.2443 C   0  0  0  0  0  0  0  0  0  0  0  0
   -8.9718   42.0321   24.8192 C   0  0  0  0  0  0  0  0  0  0  0  0
   -9.4918   41.8175   22.4544 C   0  0  0  0  0  0  0  0  0  0  0  0
   -7.9843   40.2671   23.4542 C   0  0  0  0  0  0  0  0  0  0  0  0
   -5.7787   39.6330   22.7568 C   0  0  0  0  0  0  0  0  0  0  0  0
  -10.2960   42.5325   21.5896 C   0  0  0  0  0  0  0  0  0  0  0  0
   -8.5575   40.2933   21.4675 H   0  0  0  0  0  0  0  0  0  0  0  0
  -11.5156   44.2233   22.0243 H   0  0  0  0  0  0  0  0  0  0  0  0
   -2.5213   41.0757   21.5569 H   0  0  0  0  0  0  0  0  0  0  0  0
   -4.2294   40.5150   19.9907 H   0  0  0  0  0  0  0  0  0  0  0  0
   -2.8821   40.7308   23.8877 H   0  0  0  0  0  0  0  0  0  0  0  0
   -6.2935   39.6049   20.7502 H   0  0  0  0  0  0  0  0  0  0  0  0
   -4.9500   39.8326   24.6428 H   0  0  0  0  0  0  0  0  0  0  0  0
   -7.6102   40.5330   25.4205 H   0  0  0  0  0  0  0  0  0  0  0  0
   -7.4657   38.4738   22.5653 H   0  0  0  0  0  0  0  0  0  0  0  0
   -6.9407   38.6054   24.1060 H   0  0  0  0  0  0  0  0  0  0  0  0
  1 15  2  0  0  0  0
  2  6  3  0  0  0  0
  3  5  1  0  0  0  0
  3  7  2  0  0  0  0
  4 16  1  0  0  0  0
  4 17  1  0  0  0  0
  5 15  1  0  0  0  0
  5 16  1  0  0  0  0
  6 19  1  0  0  0  0
  7 19  1  0  0  0  0
  8  9  2  0  0  0  0
  8 10  1  0  0  0  0
  9 11  1  0  0  0  0
 10 12  2  0  0  0  0
 11 18  2  0  0  0  0
 12 18  1  0  0  0  0
 13 15  1  0  0  0  0
 13 17  2  0  0  0  0
 14 17  1  0  0  0  0
 14 18  1  0  0  0  0
 16 19  2  0  0  0  0
  4 20  1  0  0  0  0
  7 21  1  0  0  0  0
  8 22  1  0  0  0  0
  9 23  1  0  0  0  0
 10 24  1  0  0  0  0
 11 25  1  0  0  0  0
 12 26  1  0  0  0  0
 13 27  1  0  0  0  0
 14 28  1  0  0  0  0
 14 29  1  0  0  0  0
M  END
> <pdb_id>
5BWR

> <uniprot_id>
O15382

> <usmiles>
O=C1N2N=CC(C#N)=C2NC(=C1)Cc3ccccc3

$$$$
4VU_D_301
          07192417013D 1   1.00000     0.00000     0
            
 30 32  0  0  0  0            999 V2000
   37.1470   24.4640   14.5110 N   0  0  0  0  0  0  0  0  0  0  0  0
   37.2680   23.6170    9.8870 N   0  0  0  0  0  0  0  0  0  0  0  0
   38.3320   25.0310   14.5100 C   0  0  0  0  0  0  0  0  0  0  0  0
   36.6320   24.2970   13.3090 C   0  0  0  0  0  0  0  0  0  0  0  0
   38.9950   25.4290   13.3910 C   0  0  0  0  0  0  0  0  0  0  0  0
   38.4270   25.2420   12.1730 C   0  0  0  0  0  0  0  0  0  0  0  0
   36.3320   22.9640    9.0080 C   0  0  0  0  0  0  0  0  0  0  0  0
   38.1400   24.4430    9.0780 C   0  0  0  0  0  0  0  0  0  0  0  0
   35.3000   23.9940    8.7440 C   0  0  0  0  0  0  0  0  0  0  0  0
   37.2770   25.1070    8.0820 C   0  0  0  0  0  0  0  0  0  0  0  0
   36.2320   25.6880   10.1220 C   0  0  0  0  0  0  0  0  0  0  0  0
   37.2090   24.6580   12.1260 C   0  0  0  0  0  0  0  0  0  0  0  0
   36.5110   24.4160   10.8420 C   0  0  2  0  0  0  0  0  0  0  0  0
   35.9730   25.3160    8.7140 C   0  0  0  0  0  0  0  0  0  0  0  0
   38.7730   25.1750   15.4820 H   0  0  0  0  0  0  0  0  0  0  0  0
   35.6600   23.8360   13.3060 H   0  0  0  0  0  0  0  0  0  0  0  0
   39.9680   25.8880   13.4720 H   0  0  0  0  0  0  0  0  0  0  0  0
   38.9230   25.5440   11.2660 H   0  0  0  0  0  0  0  0  0  0  0  0
   36.8750   22.6700    8.1130 H   0  0  0  0  0  0  0  0  0  0  0  0
   35.9370   22.0990    9.5350 H   0  0  0  0  0  0  0  0  0  0  0  0
   38.8690   23.7900    8.6070 H   0  0  0  0  0  0  0  0  0  0  0  0
   38.6200   25.1510    9.7470 H   0  0  0  0  0  0  0  0  0  0  0  0
   34.8080   23.7940    7.7930 H   0  0  0  0  0  0  0  0  0  0  0  0
   34.5550   23.9800    9.5370 H   0  0  0  0  0  0  0  0  0  0  0  0
   37.1680   24.4670    7.2100 H   0  0  0  0  0  0  0  0  0  0  0  0
   37.7010   26.0620    7.7790 H   0  0  0  0  0  0  0  0  0  0  0  0
   37.0960   26.3480   10.1830 H   0  0  0  0  0  0  0  0  0  0  0  0
   35.3730   26.1940   10.5550 H   0  0  0  0  0  0  0  0  0  0  0  0
   35.5890   23.8730   11.0220 H   0  0  0  0  0  0  0  0  0  0  0  0
   35.3870   26.0600    8.1840 H   0  0  0  0  0  0  0  0  0  0  0  0
  1  3  2  0  0  0  0
  1  4  1  0  0  0  0
  2  7  1  0  0  0  0
  2  8  1  0  0  0  0
  2 13  1  0  0  0  0
  3  5  1  0  0  0  0
  3 15  1  0  0  0  0
  4 12  2  0  0  0  0
  4 16  1  0  0  0  0
  5  6  2  0  0  0  0
  5 17  1  0  0  0  0
  6 12  1  0  0  0  0
  6 18  1  0  0  0  0
  7  9  1  0  0  0  0
  7 19  1  0  0  0  0
  7 20  1  0  0  0  0
  8 10  1  0  0  0  0
  8 21  1  0  0  0  0
  8 22  1  0  0  0  0
  9 14  1  0  0  0  0
  9 23  1  0  0  0  0
  9 24  1  0  0  0  0
 10 14  1  0  0  0  0
 10 25  1  0  0  0  0
 10 26  1  0  0  0  0
 11 13  1  0  0  0  0
 11 14  1  0  0  0  0
 11 27  1  0  0  0  0
 11 28  1  0  0  0  0
 12 13  1  0  0  0  0
 13 29  1  0  0  0  0
 14 30  1  0  0  0  0
M  END
> <pdb_id>
5BW2

> <uniprot_id>
Q8WSF8

> <usmiles>
n1cc(ccc1)[C@@H]2N3CCC(C2)CC3

$$$$
4W1_A_401
          07192421293D 1   1.00000     0.00000     0
            
 19 20  0  0  0  0            999 V2000
    6.5918   10.1059    1.5891 S   0  0  0  0  0  0  0  0  0  0  0  0
    8.5399    8.7467    5.4902 O   0  0  0  0  0  0  0  0  0  0  0  0
    7.8464   10.1007    2.6894 C   0  0  0  0  0  0  0  0  0  0  0  0
    8.1498   10.0921    5.1794 C   0  0  0  0  0  0  0  0  0  0  0  0
    3.1794   10.0949    3.6779 C   0  0  0  0  0  0  0  0  0  0  0  0
    3.7478   10.0978    4.9542 C   0  0  0  0  0  0  0  0  0  0  0  0
    4.0205   10.0968    2.5653 C   0  0  0  0  0  0  0  0  0  0  0  0
    5.1414   10.0972    5.0570 C   0  0  0  0  0  0  0  0  0  0  0  0
    5.3508   10.1008    2.7308 C   0  0  0  0  0  0  0  0  0  0  0  0
    7.2826   10.0982    3.9092 C   0  0  0  0  0  0  0  0  0  0  0  0
    5.9256   10.0996    3.9620 C   0  0  0  0  0  0  0  0  0  0  0  0
    9.1035    8.7454    6.3163 H   0  0  0  0  0  0  0  0  0  0  0  0
    8.8247   10.0996    2.4820 H   0  0  0  0  0  0  0  0  0  0  0  0
    8.9665   10.6486    5.0273 H   0  0  0  0  0  0  0  0  0  0  0  0
    7.6255   10.4710    5.9420 H   0  0  0  0  0  0  0  0  0  0  0  0
    2.1859   10.0915    3.5640 H   0  0  0  0  0  0  0  0  0  0  0  0
    3.1727   10.1003    5.7723 H   0  0  0  0  0  0  0  0  0  0  0  0
    3.6311   10.0952    1.6442 H   0  0  0  0  0  0  0  0  0  0  0  0
    5.5654   10.0949    5.9627 H   0  0  0  0  0  0  0  0  0  0  0  0
  1  3  1  0  0  0  0
  1  9  1  0  0  0  0
  2  4  1  0  0  0  0
  3 10  2  0  0  0  0
  4 10  1  0  0  0  0
  5  6  2  0  0  0  0
  5  7  1  0  0  0  0
  6  8  1  0  0  0  0
  7  9  2  0  0  0  0
  8 11  2  0  0  0  0
  9 11  1  0  0  0  0
 10 11  1  0  0  0  0
  2 12  1  0  0  0  0
  3 13  1  0  0  0  0
  4 14  1  0  0  0  0
  4 15  1  0  0  0  0
  5 16  1  0  0  0  0
  6 17  1  0  0  0  0
  7 18  1  0  0  0  0
  8 19  1  0  0  0  0
M  END
> <pdb_id>
5BX7

> <uniprot_id>
P17612

> <usmiles>
S1c2c(cccc2)C(=C1)CO

$$$$
4W4_A_402
          07192417023D 1   1.00000     0.00000     0
            
 43 45  0  0  0  0            999 V2000
  -12.8770   49.5420   19.0280 Cl  0  0  0  0  0  0  0  0  0  0  0  0
   -9.6920   46.5760   21.5820 F   0  0  0  0  0  0  0  0  0  0  0  0
   -8.4310   41.9470   25.8140 O   0  0  0  0  0  0  0  0  0  0  0  0
  -10.6000   41.6570   19.1760 N   0  0  0  0  0  0  0  0  0  0  0  0
   -9.9680   42.9300   23.7370 N   0  0  0  0  0  0  0  0  0  0  0  0
  -11.3980   44.0250   22.2120 N   0  0  0  0  0  0  0  0  0  0  0  0
   -8.3620   40.2260   22.1030 N   0  0  0  0  0  0  0  0  0  0  0  0
   -9.1240   41.8390   23.6310 N   0  0  0  0  0  0  0  0  0  0  0  0
   -3.7040   40.7880   21.6010 C   0  0  0  0  0  0  0  0  0  0  0  0
  -10.3350   41.8440   20.2860 C   0  0  0  0  0  0  0  0  0  0  0  0
  -11.6140   45.2460   23.0300 C   0  0  0  0  0  0  0  0  0  0  0  0
   -4.6710   40.1670   22.6010 C   0  0  0  0  0  0  0  0  0  0  0  0
   -5.4760   39.0270   21.9680 C   0  0  0  0  0  0  0  0  0  0  0  0
  -13.5350   47.7430   20.9060 C   0  0  0  0  0  0  0  0  0  0  0  0
   -6.7110   38.5580   22.7300 C   0  0  0  0  0  0  0  0  0  0  0  0
  -13.2530   46.7650   21.8310 C   0  0  0  0  0  0  0  0  0  0  0  0
  -11.2050   47.9470   20.4480 C   0  0  0  0  0  0  0  0  0  0  0  0
   -7.5690   40.2390   24.3380 C   0  0  0  0  0  0  0  0  0  0  0  0
  -12.5080   48.3350   20.2080 C   0  0  0  0  0  0  0  0  0  0  0  0
   -8.3850   41.3950   24.7160 C   0  0  0  0  0  0  0  0  0  0  0  0
  -10.9550   46.9580   21.3710 C   0  0  0  0  0  0  0  0  0  0  0  0
  -10.4990   43.0500   22.5200 C   0  0  0  0  0  0  0  0  0  0  0  0
   -9.1340   41.2950   22.3850 C   0  0  0  0  0  0  0  0  0  0  0  0
   -7.5650   39.6850   23.1220 C   0  0  0  0  0  0  0  0  0  0  0  0
  -11.9650   46.3500   22.0830 C   0  0  0  0  0  0  0  0  0  0  0  0
  -10.0080   42.0510   21.6420 C   0  0  0  0  0  0  0  0  0  0  0  0
  -11.9469   43.9122   21.3838 H   0  0  0  0  0  0  0  0  0  0  0  0
   -8.3579   39.8272   21.1860 H   0  0  0  0  0  0  0  0  0  0  0  0
   -3.1954   41.5265   22.0437 H   0  0  0  0  0  0  0  0  0  0  0  0
   -3.0649   40.0901   21.2778 H   0  0  0  0  0  0  0  0  0  0  0  0
   -4.2170   41.1551   20.8251 H   0  0  0  0  0  0  0  0  0  0  0  0
  -10.7797   45.4757   23.5313 H   0  0  0  0  0  0  0  0  0  0  0  0
  -12.3617   45.0980   23.6773 H   0  0  0  0  0  0  0  0  0  0  0  0
   -5.3032   40.8719   22.9228 H   0  0  0  0  0  0  0  0  0  0  0  0
   -4.1510   39.8069   23.3755 H   0  0  0  0  0  0  0  0  0  0  0  0
   -4.8643   38.2421   21.8692 H   0  0  0  0  0  0  0  0  0  0  0  0
   -5.7751   39.3324   21.0640 H   0  0  0  0  0  0  0  0  0  0  0  0
  -14.4811   48.0221   20.7418 H   0  0  0  0  0  0  0  0  0  0  0  0
   -6.4188   38.0708   23.5530 H   0  0  0  0  0  0  0  0  0  0  0  0
   -7.2373   37.9400   22.1459 H   0  0  0  0  0  0  0  0  0  0  0  0
  -14.0061   46.3428   22.3355 H   0  0  0  0  0  0  0  0  0  0  0  0
  -10.4503   48.3806   19.9557 H   0  0  0  0  0  0  0  0  0  0  0  0
   -6.9757   39.8379   25.0359 H   0  0  0  0  0  0  0  0  0  0  0  0
  1 19  1  0  0  0  0
  2 21  1  0  0  0  0
  3 20  2  0  0  0  0
  4 10  3  0  0  0  0
  5  8  1  0  0  0  0
  5 22  2  0  0  0  0
  6 11  1  0  0  0  0
  6 22  1  0  0  0  0
  7 23  1  0  0  0  0
  7 24  1  0  0  0  0
  8 20  1  0  0  0  0
  8 23  1  0  0  0  0
  9 12  1  0  0  0  0
 10 26  1  0  0  0  0
 11 25  1  0  0  0  0
 12 13  1  0  0  0  0
 13 15  1  0  0  0  0
 14 16  2  0  0  0  0
 14 19  1  0  0  0  0
 15 24  1  0  0  0  0
 16 25  1  0  0  0  0
 17 19  2  0  0  0  0
 17 21  1  0  0  0  0
 18 20  1  0  0  0  0
 18 24  2  0  0  0  0
 21 25  2  0  0  0  0
 22 26  1  0  0  0  0
 23 26  2  0  0  0  0
  6 27  1  0  0  0  0
  7 28  1  0  0  0  0
  9 29  1  0  0  0  0
  9 30  1  0  0  0  0
  9 31  1  0  0  0  0
 11 32  1  0  0  0  0
 11 33  1  0  0  0  0
 12 34  1  0  0  0  0
 12 35  1  0  0  0  0
 13 36  1  0  0  0  0
 13 37  1  0  0  0  0
 14 38  1  0  0  0  0
 15 39  1  0  0  0  0
 15 40  1  0  0  0  0
 16 41  1  0  0  0  0
 17 42  1  0  0  0  0
 18 43  1  0  0  0  0
M  END
> <pdb_id>
5BWX

> <uniprot_id>
O15382

> <usmiles>
Clc1cc(F)c(cc1)CNC2=NN3C(=O)C=C(NC3=C2C#N)CCCC

$$$$
4WA_A_302
          07192416293D 1   1.00000     0.00000     0
            
 33 34  0  0  0  0            999 V2000
   -5.8953    0.9574   16.8912 S   0  0  0  0  0  0  0  0  0  0  0  0
   -7.3332    1.0006   16.7672 O   0  0  0  0  0  0  0  0  0  0  0  0
   -5.3662    1.0434   18.2204 O   0  0  0  0  0  0  0  0  0  0  0  0
   -5.2114   -0.3302   16.2233 N   0  0  0  0  0  0  0  0  0  0  0  0
    0.7849   10.4865   13.2638 N   0  0  0  0  0  0  0  0  0  0  0  0
   -3.5501    5.6808   14.2545 N   0  0  0  0  0  0  0  0  0  0  0  0
   -2.2628    5.7670   13.7941 N   0  0  0  0  0  0  0  0  0  0  0  0
   -3.8120    2.3329   15.7227 C   0  0  0  0  0  0  0  0  0  0  0  0
   -6.0093    3.3779   15.6433 C   0  0  0  0  0  0  0  0  0  0  0  0
   -1.0324    9.2410   14.3521 C   0  0  0  0  0  0  0  0  0  0  0  0
    0.2591    8.1765   12.6170 C   0  0  0  0  0  0  0  0  0  0  0  0
   -3.2709    3.4352   15.0520 C   0  0  0  0  0  0  0  0  0  0  0  0
   -5.4632    4.4631   14.9336 C   0  0  0  0  0  0  0  0  0  0  0  0
   -1.8101    8.0721   14.4989 C   0  0  0  0  0  0  0  0  0  0  0  0
   -0.5126    7.0086   12.7648 C   0  0  0  0  0  0  0  0  0  0  0  0
   -5.2071    2.2579   15.9060 C   0  0  0  0  0  0  0  0  0  0  0  0
    0.0032    9.3037   13.4116 C   0  0  0  0  0  0  0  0  0  0  0  0
   -4.0989    4.4646   14.5945 C   0  0  0  0  0  0  0  0  0  0  0  0
   -1.5762    6.9419   13.6882 C   0  0  0  0  0  0  0  0  0  0  0  0
   -4.2206   -0.2856   16.3515 H   0  0  0  0  0  0  0  0  0  0  0  0
   -5.5666   -1.1586   16.6564 H   0  0  0  0  0  0  0  0  0  0  0  0
    1.5216   10.5178   12.5883 H   0  0  0  0  0  0  0  0  0  0  0  0
    0.5966   11.2850   13.8357 H   0  0  0  0  0  0  0  0  0  0  0  0
   -4.0985    6.5122   14.3448 H   0  0  0  0  0  0  0  0  0  0  0  0
   -1.8010    4.9232   13.5207 H   0  0  0  0  0  0  0  0  0  0  0  0
   -3.2162    1.6075   16.0677 H   0  0  0  0  0  0  0  0  0  0  0  0
   -6.9585    3.4049   15.9568 H   0  0  0  0  0  0  0  0  0  0  0  0
   -1.2238   10.0357   14.9281 H   0  0  0  0  0  0  0  0  0  0  0  0
    0.9952    8.2028   11.9405 H   0  0  0  0  0  0  0  0  0  0  0  0
   -2.2841    3.4871   14.8986 H   0  0  0  0  0  0  0  0  0  0  0  0
   -6.0450    5.2327   14.6706 H   0  0  0  0  0  0  0  0  0  0  0  0
   -2.5359    8.0451   15.1862 H   0  0  0  0  0  0  0  0  0  0  0  0
   -0.3020    6.2089   12.2026 H   0  0  0  0  0  0  0  0  0  0  0  0
  1  2  2  0  0  0  0
  1  3  2  0  0  0  0
  1  4  1  0  0  0  0
  1 16  1  0  0  0  0
  5 17  1  0  0  0  0
  6  7  1  0  0  0  0
  6 18  1  0  0  0  0
  7 19  1  0  0  0  0
  8 12  1  0  0  0  0
  8 16  2  0  0  0  0
  9 13  2  0  0  0  0
  9 16  1  0  0  0  0
 10 14  1  0  0  0  0
 10 17  2  0  0  0  0
 11 15  2  0  0  0  0
 11 17  1  0  0  0  0
 12 18  2  0  0  0  0
 13 18  1  0  0  0  0
 14 19  2  0  0  0  0
 15 19  1  0  0  0  0
  4 20  1  0  0  0  0
  4 21  1  0  0  0  0
  5 22  1  0  0  0  0
  5 23  1  0  0  0  0
  6 24  1  0  0  0  0
  7 25  1  0  0  0  0
  8 26  1  0  0  0  0
  9 27  1  0  0  0  0
 10 28  1  0  0  0  0
 11 29  1  0  0  0  0
 12 30  1  0  0  0  0
 13 31  1  0  0  0  0
 14 32  1  0  0  0  0
 15 33  1  0  0  0  0
M  END
> <pdb_id>
5T75

> <uniprot_id>
P00918

> <usmiles>
S(=O)(=O)(N)c1ccc(NNc2ccc(N)cc2)cc1

$$$$
4WF_B_400
          07192422273D 1   1.00000     0.00000     0
            
 28 29  0  0  0  0            999 V2000
   36.2524  -19.6577   54.9054 O   0  0  0  0  0  0  0  0  0  0  0  0
   32.6829  -17.2420   56.3247 O   0  0  0  0  0  0  0  0  0  0  0  0
   33.2673  -21.6140   57.9294 O   0  0  0  0  0  0  0  0  0  0  0  0
   31.7728  -19.2937   57.9204 N   0  0  0  0  0  0  0  0  0  0  0  0
   34.4742  -18.4469   55.6061 N   0  0  0  0  0  0  0  0  0  0  0  0
   34.8269  -20.6843   56.3802 N   0  0  0  0  0  0  0  0  0  0  0  0
   35.6342  -21.9280   56.4424 C   0  0  0  0  0  0  0  0  0  0  0  0
   34.7518  -25.1550   53.7679 C   0  0  0  0  0  0  0  0  0  0  0  0
   34.2954  -23.8745   53.4727 C   0  0  0  0  0  0  0  0  0  0  0  0
   35.5033  -25.3816   54.9201 C   0  0  0  0  0  0  0  0  0  0  0  0
   34.5706  -22.7992   54.3068 C   0  0  0  0  0  0  0  0  0  0  0  0
   35.7684  -24.3104   55.7682 C   0  0  0  0  0  0  0  0  0  0  0  0
   35.2325  -19.6076   55.5996 C   0  0  0  0  0  0  0  0  0  0  0  0
   33.3079  -18.3137   56.3745 C   0  0  0  0  0  0  0  0  0  0  0  0
   33.6536  -20.5583   57.1756 C   0  0  0  0  0  0  0  0  0  0  0  0
   32.8914  -19.3854   57.1711 C   0  0  0  0  0  0  0  0  0  0  0  0
   35.2940  -23.0317   55.4719 C   0  0  0  0  0  0  0  0  0  0  0  0
   32.4463  -21.5497   58.4966 H   0  0  0  0  0  0  0  0  0  0  0  0
   31.4850  -20.0665   58.4860 H   0  0  0  0  0  0  0  0  0  0  0  0
   31.2316  -18.4528   57.9100 H   0  0  0  0  0  0  0  0  0  0  0  0
   34.7696  -17.6758   55.0420 H   0  0  0  0  0  0  0  0  0  0  0  0
   35.5382  -22.3010   57.3652 H   0  0  0  0  0  0  0  0  0  0  0  0
   36.5882  -21.6735   56.2833 H   0  0  0  0  0  0  0  0  0  0  0  0
   34.5406  -25.9143   53.1525 H   0  0  0  0  0  0  0  0  0  0  0  0
   33.7580  -23.7253   52.6427 H   0  0  0  0  0  0  0  0  0  0  0  0
   35.8453  -26.2968   55.1333 H   0  0  0  0  0  0  0  0  0  0  0  0
   34.2560  -21.8787   54.0753 H   0  0  0  0  0  0  0  0  0  0  0  0
   36.3049  -24.4585   56.5990 H   0  0  0  0  0  0  0  0  0  0  0  0
  1 13  2  0  0  0  0
  2 14  2  0  0  0  0
  3 15  1  0  0  0  0
  4 16  1  0  0  0  0
  5 13  1  0  0  0  0
  5 14  1  0  0  0  0
  6  7  1  0  0  0  0
  6 13  1  0  0  0  0
  6 15  1  0  0  0  0
  7 17  1  0  0  0  0
  8  9  2  0  0  0  0
  8 10  1  0  0  0  0
  9 11  1  0  0  0  0
 10 12  2  0  0  0  0
 11 17  2  0  0  0  0
 12 17  1  0  0  0  0
 14 16  1  0  0  0  0
 15 16  2  0  0  0  0
  3 18  1  0  0  0  0
  4 19  1  0  0  0  0
  4 20  1  0  0  0  0
  5 21  1  0  0  0  0
  7 22  1  0  0  0  0
  7 23  1  0  0  0  0
  8 24  1  0  0  0  0
  9 25  1  0  0  0  0
 10 26  1  0  0  0  0
 11 27  1  0  0  0  0
 12 28  1  0  0  0  0
M  END
> <pdb_id>
3ZLL

> <uniprot_id>
G3XCK4

> <usmiles>
O=C1N(C(O)=C(N)C(=O)N1)Cc2ccccc2

$$$$
4WL_A_360
          07202413043D 1   1.00000     0.00000     0
            
 16 17  0  0  0  0            999 V2000
    5.4027  -75.7659   30.6282 S   0  0  0  0  0  0  0  0  0  0  0  0
    4.3903  -72.8146   25.2941 O   0  0  0  0  0  0  0  0  0  0  0  0
    2.8094  -72.3996   26.7492 O   0  0  0  0  0  0  0  0  0  0  0  0
    5.7647  -74.4633   27.1684 N   0  0  0  0  0  0  0  0  0  0  0  0
    6.8943  -76.4534   30.0056 C   0  0  0  0  0  0  0  0  0  0  0  0
    7.0940  -76.0098   28.6832 C   0  0  0  0  0  0  0  0  0  0  0  0
    4.0967  -74.1097   28.7339 C   0  0  0  0  0  0  0  0  0  0  0  0
    3.8855  -72.9512   26.4336 C   0  0  0  0  0  0  0  0  0  0  0  0
    5.0625  -74.9792   29.1961 C   0  0  0  0  0  0  0  0  0  0  0  0
    6.0344  -75.1674   28.3221 C   0  0  0  0  0  0  0  0  0  0  0  0
    4.5746  -73.8263   27.4266 C   0  0  0  0  0  0  0  0  0  0  0  0
    5.2530  -73.2690   25.0717 H   0  0  0  0  0  0  0  0  0  0  0  0
    6.3116  -74.4247   26.3321 H   0  0  0  0  0  0  0  0  0  0  0  0
    7.5053  -77.0634   30.5101 H   0  0  0  0  0  0  0  0  0  0  0  0
    7.8664  -76.2561   28.0977 H   0  0  0  0  0  0  0  0  0  0  0  0
    3.2779  -73.7694   29.1962 H   0  0  0  0  0  0  0  0  0  0  0  0
  1  5  1  0  0  0  0
  1  9  1  0  0  0  0
  2  8  1  0  0  0  0
  3  8  2  0  0  0  0
  4 10  1  0  0  0  0
  4 11  1  0  0  0  0
  5  6  2  0  0  0  0
  6 10  1  0  0  0  0
  7  9  1  0  0  0  0
  7 11  2  0  0  0  0
  8 11  1  0  0  0  0
  9 10  2  0  0  0  0
  2 12  1  0  0  0  0
  4 13  1  0  0  0  0
  5 14  1  0  0  0  0
  6 15  1  0  0  0  0
  7 16  1  0  0  0  0
M  END
> <pdb_id>
3ZNN

> <uniprot_id>
P14920

> <usmiles>
S1C2=C(NC(C(=O)O)=C2)C=C1

$$$$
4X2_A_302
          07202405513D 1   1.00000     0.00000     0
            
 36 37  0  0  0  0            999 V2000
   17.9788  -15.2979  -64.5424 P   0  0  0  0  0  0  0  0  0  0  0  0
   18.2812  -13.8607  -64.1743 O   0  0  0  0  0  0  0  0  0  0  0  0
   19.0682  -15.8152  -65.4397 O   0  0  0  0  0  0  0  0  0  0  0  0
   16.6502  -15.3482  -65.2706 O   0  0  0  0  0  0  0  0  0  0  0  0
   15.6569  -20.2948  -60.8258 O   0  0  0  0  0  0  0  0  0  0  0  0
   23.6519  -20.4842  -58.9502 O   0  0  0  0  0  0  0  0  0  0  0  0
   18.0049  -18.5557  -62.1704 O   0  0  0  0  0  0  0  0  0  0  0  0
   21.8833  -22.0483  -58.6170 N   0  0  0  0  0  0  0  0  0  0  0  0
   20.0135  -22.1605  -60.0118 N   0  0  0  0  0  0  0  0  0  0  0  0
   21.9104  -19.5738  -61.3977 N   0  0  0  0  0  0  0  0  0  0  0  0
   19.9894  -20.4976  -61.9088 N   0  0  0  0  0  0  0  0  0  0  0  0
   17.8912  -16.3095  -63.0020 C   0  0  0  0  0  0  0  0  0  0  0  0
   20.7096  -22.5778  -58.9726 C   0  0  0  0  0  0  0  0  0  0  0  0
   17.0894  -20.3027  -60.8025 C   0  0  0  0  0  0  0  0  0  0  0  0
   17.5333  -17.7862  -63.2603 C   0  0  0  0  0  0  0  0  0  0  0  0
   20.8680  -19.5684  -62.2546 C   0  0  0  0  0  0  0  0  0  0  0  0
   18.7372  -20.7991  -62.6049 C   0  0  0  0  0  0  0  0  0  0  0  0
   22.3997  -21.0500  -59.3265 C   0  0  0  0  0  0  0  0  0  0  0  0
   17.5877  -19.8842  -62.1800 C   0  0  2  0  0  0  0  0  0  0  0  0
   20.4688  -21.1485  -60.7888 C   0  0  0  0  0  0  0  0  0  0  0  0
   21.6945  -20.5474  -60.4698 C   0  0  0  0  0  0  0  0  0  0  0  0
   17.5595  -13.5107  -63.5770 H   0  0  0  0  0  0  0  0  0  0  0  0
   18.8740  -16.7646  -65.6864 H   0  0  0  0  0  0  0  0  0  0  0  0
   15.3075  -20.5672  -59.9293 H   0  0  0  0  0  0  0  0  0  0  0  0
   22.3720  -22.4020  -57.8195 H   0  0  0  0  0  0  0  0  0  0  0  0
   17.1951  -15.9147  -62.4024 H   0  0  0  0  0  0  0  0  0  0  0  0
   18.7815  -16.2737  -62.5480 H   0  0  0  0  0  0  0  0  0  0  0  0
   20.3407  -23.3277  -58.4236 H   0  0  0  0  0  0  0  0  0  0  0  0
   17.4199  -21.2217  -60.5874 H   0  0  0  0  0  0  0  0  0  0  0  0
   17.4208  -19.6593  -60.1124 H   0  0  0  0  0  0  0  0  0  0  0  0
   16.5413  -17.8847  -63.3395 H   0  0  0  0  0  0  0  0  0  0  0  0
   17.9676  -18.0963  -64.1060 H   0  0  0  0  0  0  0  0  0  0  0  0
   20.7726  -18.9527  -63.0368 H   0  0  0  0  0  0  0  0  0  0  0  0
   18.4819  -21.7456  -62.4077 H   0  0  0  0  0  0  0  0  0  0  0  0
   18.8844  -20.6915  -63.5882 H   0  0  0  0  0  0  0  0  0  0  0  0
   16.8394  -19.9817  -62.8362 H   0  0  0  0  0  0  0  0  0  0  0  0
  1  2  1  0  0  0  0
  1  3  1  0  0  0  0
  1  4  2  0  0  0  0
  1 12  1  0  0  0  0
  5 14  1  0  0  0  0
  6 18  2  0  0  0  0
  7 15  1  0  0  0  0
  7 19  1  0  0  0  0
  8 13  1  0  0  0  0
  8 18  1  0  0  0  0
  9 13  2  0  0  0  0
  9 20  1  0  0  0  0
 10 16  2  0  0  0  0
 10 21  1  0  0  0  0
 11 16  1  0  0  0  0
 11 17  1  0  0  0  0
 11 20  1  0  0  0  0
 12 15  1  0  0  0  0
 14 19  1  0  0  0  0
 17 19  1  0  0  0  0
 18 21  1  0  0  0  0
 20 21  2  0  0  0  0
  2 22  1  0  0  0  0
  3 23  1  0  0  0  0
  5 24  1  0  0  0  0
  8 25  1  0  0  0  0
 12 26  1  0  0  0  0
 12 27  1  0  0  0  0
 13 28  1  0  0  0  0
 14 29  1  0  0  0  0
 14 30  1  0  0  0  0
 15 31  1  0  0  0  0
 15 32  1  0  0  0  0
 16 33  1  0  0  0  0
 17 34  1  0  0  0  0
 17 35  1  0  0  0  0
 19 36  1  0  0  0  0
M  END
> <pdb_id>
5BRN

> <uniprot_id>
P00492

> <usmiles>
P(=O)(O)(O)CCO[C@H](CO)CN1C=2N=CNC(=O)C2N=C1

$$$$
4XS_A_803
          07192416573D 1   1.00000     0.00000     0
            
 20 21  0  0  0  0            999 V2000
   18.7327   -4.1507   16.3143 Cl  0  0  0  0  0  0  0  0  0  0  0  0
   15.2162   -0.8257   18.8777 Cl  0  0  0  0  0  0  0  0  0  0  0  0
   18.8963   -3.2756   18.7389 N   0  0  0  0  0  0  0  0  0  0  0  0
   17.3250   -1.8613   19.7673 N   0  0  0  0  0  0  0  0  0  0  0  0
   16.1647   -2.5406   16.1475 C   0  0  0  0  0  0  0  0  0  0  0  0
   20.2525   -3.6813   21.4803 C   0  0  0  0  0  0  0  0  0  0  0  0
   20.7934   -2.3879   20.8647 C   0  0  0  0  0  0  0  0  0  0  0  0
   18.1138   -3.2146   17.6372 C   0  0  0  0  0  0  0  0  0  0  0  0
   16.6149   -1.8295   18.6218 C   0  0  0  0  0  0  0  0  0  0  0  0
   18.4869   -2.5742   19.8165 C   0  0  0  0  0  0  0  0  0  0  0  0
   19.2934   -2.5599   21.0878 C   0  0  0  0  0  0  0  0  0  0  0  0
   16.9279   -2.5081   17.4464 C   0  0  0  0  0  0  0  0  0  0  0  0
   15.3488   -1.9677   16.2258 H   0  0  0  0  0  0  0  0  0  0  0  0
   16.7456   -2.1945   15.4108 H   0  0  0  0  0  0  0  0  0  0  0  0
   15.8932   -3.4813   15.9438 H   0  0  0  0  0  0  0  0  0  0  0  0
   20.4178   -3.8832   22.4457 H   0  0  0  0  0  0  0  0  0  0  0  0
   20.2704   -4.5315   20.9541 H   0  0  0  0  0  0  0  0  0  0  0  0
   21.1648   -2.3930   19.9363 H   0  0  0  0  0  0  0  0  0  0  0  0
   21.3122   -1.7447   21.4278 H   0  0  0  0  0  0  0  0  0  0  0  0
   18.9031   -2.0361   21.8449 H   0  0  0  0  0  0  0  0  0  0  0  0
  1  8  1  0  0  0  0
  2  9  1  0  0  0  0
  3  8  2  0  0  0  0
  3 10  1  0  0  0  0
  4  9  1  0  0  0  0
  4 10  2  0  0  0  0
  5 12  1  0  0  0  0
  6  7  1  0  0  0  0
  6 11  1  0  0  0  0
  7 11  1  0  0  0  0
  8 12  1  0  0  0  0
  9 12  2  0  0  0  0
 10 11  1  0  0  0  0
  5 13  1  0  0  0  0
  5 14  1  0  0  0  0
  5 15  1  0  0  0  0
  6 16  1  0  0  0  0
  6 17  1  0  0  0  0
  7 18  1  0  0  0  0
  7 19  1  0  0  0  0
 11 20  1  0  0  0  0
M  END
> <pdb_id>
5C1W

> <uniprot_id>
Q9Y233

> <usmiles>
Clc1nc(nc(Cl)c1C)C2CC2

$$$$
4XV_A_803
          07192416573D 1   1.00000     0.00000     0
            
 22 23  0  0  0  0            999 V2000
   18.6950   -4.2361   16.3729 Cl  0  0  0  0  0  0  0  0  0  0  0  0
   15.5453   -0.9061   18.6262 N   0  0  0  0  0  0  0  0  0  0  0  0
   18.8950   -3.3386   18.7560 N   0  0  0  0  0  0  0  0  0  0  0  0
   17.4022   -1.7982   19.7520 N   0  0  0  0  0  0  0  0  0  0  0  0
   16.2788   -2.4884   16.2089 C   0  0  0  0  0  0  0  0  0  0  0  0
   20.7636   -2.5605   21.0114 C   0  0  0  0  0  0  0  0  0  0  0  0
   20.0581   -3.8328   21.3897 C   0  0  0  0  0  0  0  0  0  0  0  0
   18.1465   -3.2635   17.6602 C   0  0  0  0  0  0  0  0  0  0  0  0
   16.6799   -1.7414   18.6211 C   0  0  0  0  0  0  0  0  0  0  0  0
   18.4919   -2.5845   19.7836 C   0  0  0  0  0  0  0  0  0  0  0  0
   17.0228   -2.4840   17.5089 C   0  0  0  0  0  0  0  0  0  0  0  0
   19.2636   -2.6089   21.0323 C   0  0  0  0  0  0  0  0  0  0  0  0
   14.9761   -0.8310   17.8075 H   0  0  0  0  0  0  0  0  0  0  0  0
   15.3093   -0.3884   19.4486 H   0  0  0  0  0  0  0  0  0  0  0  0
   15.4945   -1.8712   16.2716 H   0  0  0  0  0  0  0  0  0  0  0  0
   16.8864   -2.1820   15.4761 H   0  0  0  0  0  0  0  0  0  0  0  0
   15.9589   -3.4150   16.0111 H   0  0  0  0  0  0  0  0  0  0  0  0
   21.2497   -2.4986   20.1397 H   0  0  0  0  0  0  0  0  0  0  0  0
   21.2567   -2.0367   21.7060 H   0  0  0  0  0  0  0  0  0  0  0  0
   20.0814   -4.1553   22.3360 H   0  0  0  0  0  0  0  0  0  0  0  0
   20.0744   -4.6172   20.7697 H   0  0  0  0  0  0  0  0  0  0  0  0
   18.8349   -2.1409   21.8051 H   0  0  0  0  0  0  0  0  0  0  0  0
  1  8  1  0  0  0  0
  2  9  1  0  0  0  0
  3  8  1  0  0  0  0
  3 10  2  0  0  0  0
  4  9  2  0  0  0  0
  4 10  1  0  0  0  0
  5 11  1  0  0  0  0
  6  7  1  0  0  0  0
  6 12  1  0  0  0  0
  7 12  1  0  0  0  0
  8 11  2  0  0  0  0
  9 11  1  0  0  0  0
 10 12  1  0  0  0  0
  2 13  1  0  0  0  0
  2 14  1  0  0  0  0
  5 15  1  0  0  0  0
  5 16  1  0  0  0  0
  5 17  1  0  0  0  0
  6 18  1  0  0  0  0
  6 19  1  0  0  0  0
  7 20  1  0  0  0  0
  7 21  1  0  0  0  0
 12 22  1  0  0  0  0
M  END
> <pdb_id>
5C28

> <uniprot_id>
Q9Y233

> <usmiles>
Clc1nc(nc(N)c1C)C2CC2

$$$$
4XW_A_501
          07202409333D 1   1.00000     0.00000     0
            
 56 56  0  0  0  0            999 V2000
  -20.9007   -9.9269  -30.2767 O   0  0  0  0  0  0  0  0  0  0  0  0
  -18.5853  -10.2404  -29.6364 O   0  0  0  0  0  0  0  0  0  0  0  0
  -17.5984   -1.3884  -27.4108 C   0  0  0  0  0  0  0  0  0  0  0  0
  -19.3656   -7.0930  -30.8437 C   0  0  0  0  0  0  0  0  0  0  0  0
  -17.1841   -1.6853  -32.5195 C   0  0  0  0  0  0  0  0  0  0  0  0
  -21.2161    0.5116  -31.2064 C   0  0  0  0  0  0  0  0  0  0  0  0
  -19.4774    2.1816  -30.6083 C   0  0  0  0  0  0  0  0  0  0  0  0
  -18.7238   -4.7495  -28.9517 C   0  0  0  0  0  0  0  0  0  0  0  0
  -19.6706    0.7634  -34.0932 C   0  0  0  0  0  0  0  0  0  0  0  0
  -18.2423   -3.7536  -27.8798 C   0  0  0  0  0  0  0  0  0  0  0  0
  -18.7640   -6.0879  -28.6301 C   0  0  0  0  0  0  0  0  0  0  0  0
  -19.1132   -0.6015  -33.7750 C   0  0  0  0  0  0  0  0  0  0  0  0
  -18.4996   -1.9927  -29.7354 C   0  0  0  0  0  0  0  0  0  0  0  0
  -18.7231   -0.6538  -29.9768 C   0  0  0  0  0  0  0  0  0  0  0  0
  -19.8935   -8.3359  -28.6613 C   0  0  0  0  0  0  0  0  0  0  0  0
  -19.9034    1.7067  -32.9281 C   0  0  0  0  0  0  0  0  0  0  0  0
  -19.8177   -9.6347  -29.4665 C   0  0  0  0  0  0  0  0  0  0  0  0
  -18.4913   -2.2922  -28.2347 C   0  0  2  0  0  0  0  0  0  0  0  0
  -19.7219   -7.0101  -29.3893 C   0  0  2  0  0  0  0  0  0  0  0  0
  -18.1056   -0.4835  -32.6732 C   0  0  1  0  0  0  0  0  0  0  0  0
  -18.6909    0.0872  -31.3716 C   0  0  1  0  0  0  0  0  0  0  0  0
  -19.8538    1.0797  -31.5551 C   0  0  0  0  0  0  0  0  0  0  0  0
  -21.7768   -9.4694  -30.1246 H   0  0  0  0  0  0  0  0  0  0  0  0
  -17.7734   -0.4346  -27.6548 H   0  0  0  0  0  0  0  0  0  0  0  0
  -17.7918   -1.5247  -26.4392 H   0  0  0  0  0  0  0  0  0  0  0  0
  -16.6405   -1.6091  -27.5942 H   0  0  0  0  0  0  0  0  0  0  0  0
  -20.0080   -7.7010  -31.3102 H   0  0  0  0  0  0  0  0  0  0  0  0
  -19.4139   -6.1810  -31.2513 H   0  0  0  0  0  0  0  0  0  0  0  0
  -18.4373   -7.4521  -30.9396 H   0  0  0  0  0  0  0  0  0  0  0  0
  -16.5473   -1.5228  -31.7659 H   0  0  0  0  0  0  0  0  0  0  0  0
  -17.7294   -2.5007  -32.3252 H   0  0  0  0  0  0  0  0  0  0  0  0
  -16.6703   -1.8219  -33.3665 H   0  0  0  0  0  0  0  0  0  0  0  0
  -21.4466   -0.2196  -31.8485 H   0  0  0  0  0  0  0  0  0  0  0  0
  -21.1960    0.1445  -30.2764 H   0  0  0  0  0  0  0  0  0  0  0  0
  -21.9038    1.2352  -31.2644 H   0  0  0  0  0  0  0  0  0  0  0  0
  -18.5778    2.5411  -30.8559 H   0  0  0  0  0  0  0  0  0  0  0  0
  -20.1558    2.9143  -30.6630 H   0  0  0  0  0  0  0  0  0  0  0  0
  -19.4480    1.8236  -29.6750 H   0  0  0  0  0  0  0  0  0  0  0  0
  -19.0003   -4.4320  -29.8588 H   0  0  0  0  0  0  0  0  0  0  0  0
  -20.5489    0.6300  -34.5523 H   0  0  0  0  0  0  0  0  0  0  0  0
  -19.0318    1.2106  -34.7192 H   0  0  0  0  0  0  0  0  0  0  0  0
  -17.2592   -3.8825  -27.7497 H   0  0  0  0  0  0  0  0  0  0  0  0
  -18.7210   -3.9556  -27.0253 H   0  0  0  0  0  0  0  0  0  0  0  0
  -18.1748   -6.4531  -27.9093 H   0  0  0  0  0  0  0  0  0  0  0  0
  -18.6740   -0.9806  -34.5895 H   0  0  0  0  0  0  0  0  0  0  0  0
  -19.8554   -1.2056  -33.4849 H   0  0  0  0  0  0  0  0  0  0  0  0
  -18.3609   -2.6795  -30.4488 H   0  0  0  0  0  0  0  0  0  0  0  0
  -18.9289   -0.0876  -29.1786 H   0  0  0  0  0  0  0  0  0  0  0  0
  -19.1800   -8.3816  -27.9621 H   0  0  0  0  0  0  0  0  0  0  0  0
  -20.7910   -8.3152  -28.2208 H   0  0  0  0  0  0  0  0  0  0  0  0
  -20.8064    2.1205  -33.0440 H   0  0  0  0  0  0  0  0  0  0  0  0
  -19.2029    2.4193  -32.9655 H   0  0  0  0  0  0  0  0  0  0  0  0
  -19.4215   -2.0997  -27.9223 H   0  0  0  0  0  0  0  0  0  0  0  0
  -20.6155   -6.5627  -29.3535 H   0  0  0  0  0  0  0  0  0  0  0  0
  -17.4942    0.2408  -32.9920 H   0  0  0  0  0  0  0  0  0  0  0  0
  -17.9688    0.7480  -31.1668 H   0  0  0  0  0  0  0  0  0  0  0  0
  1 17  1  0  0  0  0
  2 17  2  0  0  0  0
  3 18  1  0  0  0  0
  4 19  1  0  0  0  0
  5 20  1  0  0  0  0
  6 22  1  0  0  0  0
  7 22  1  0  0  0  0
  8 10  1  0  0  0  0
  8 11  2  0  0  0  0
  9 12  1  0  0  0  0
  9 16  1  0  0  0  0
 10 18  1  0  0  0  0
 11 19  1  0  0  0  0
 12 20  1  0  0  0  0
 13 14  2  0  0  0  0
 13 18  1  0  0  0  0
 14 21  1  0  0  0  0
 15 17  1  0  0  0  0
 15 19  1  0  0  0  0
 16 22  1  0  0  0  0
 20 21  1  0  0  0  0
 21 22  1  0  0  0  0
  1 23  1  0  0  0  0
  3 24  1  0  0  0  0
  3 25  1  0  0  0  0
  3 26  1  0  0  0  0
  4 27  1  0  0  0  0
  4 28  1  0  0  0  0
  4 29  1  0  0  0  0
  5 30  1  0  0  0  0
  5 31  1  0  0  0  0
  5 32  1  0  0  0  0
  6 33  1  0  0  0  0
  6 34  1  0  0  0  0
  6 35  1  0  0  0  0
  7 36  1  0  0  0  0
  7 37  1  0  0  0  0
  7 38  1  0  0  0  0
  8 39  1  0  0  0  0
  9 40  1  0  0  0  0
  9 41  1  0  0  0  0
 10 42  1  0  0  0  0
 10 43  1  0  0  0  0
 11 44  1  0  0  0  0
 12 45  1  0  0  0  0
 12 46  1  0  0  0  0
 13 47  1  0  0  0  0
 14 48  1  0  0  0  0
 15 49  1  0  0  0  0
 15 50  1  0  0  0  0
 16 51  1  0  0  0  0
 16 52  1  0  0  0  0
 18 53  1  0  0  0  0
 19 54  1  0  0  0  0
 20 55  1  0  0  0  0
 21 56  1  0  0  0  0
M  END
> <pdb_id>
4ZSH

> <uniprot_id>
P19793

> <usmiles>
O=C(O)C[C@@H](/C=C/C[C@H](/C=C/[C@@H]1C(CCC[C@@H]1C)(C)C)C)C

$$$$
4XY_A_803
          07192416573D 1   1.00000     0.00000     0
            
 31 32  0  0  0  0            999 V2000
   18.6463   -4.0403   16.2566 Cl  0  0  0  0  0  0  0  0  0  0  0  0
   15.4436   -0.8226   18.4651 N   0  0  0  0  0  0  0  0  0  0  0  0
   18.7444   -3.2686   18.6660 N   0  0  0  0  0  0  0  0  0  0  0  0
   17.2610   -1.7627   19.6915 N   0  0  0  0  0  0  0  0  0  0  0  0
   15.7637    2.1799   20.6437 C   0  0  0  0  0  0  0  0  0  0  0  0
   16.1254   -2.2158   16.0486 C   0  0  0  0  0  0  0  0  0  0  0  0
   14.9916    0.0140   19.5881 C   0  0  0  0  0  0  0  0  0  0  0  0
   15.8996    1.2401   19.4467 C   0  0  0  0  0  0  0  0  0  0  0  0
   20.6361   -2.6438   21.0434 C   0  0  0  0  0  0  0  0  0  0  0  0
   19.8882   -3.9270   21.4144 C   0  0  0  0  0  0  0  0  0  0  0  0
   18.0278   -3.0919   17.5498 C   0  0  0  0  0  0  0  0  0  0  0  0
   16.5263   -1.6312   18.5442 C   0  0  0  0  0  0  0  0  0  0  0  0
   18.3553   -2.5620   19.7484 C   0  0  0  0  0  0  0  0  0  0  0  0
   19.1021   -2.6592   21.0567 C   0  0  0  0  0  0  0  0  0  0  0  0
   16.8858   -2.3112   17.3647 C   0  0  0  0  0  0  0  0  0  0  0  0
   14.9296   -0.7925   17.6078 H   0  0  0  0  0  0  0  0  0  0  0  0
   16.3678    2.9671   20.5197 H   0  0  0  0  0  0  0  0  0  0  0  0
   14.8170    2.4941   20.7150 H   0  0  0  0  0  0  0  0  0  0  0  0
   16.0173    1.6935   21.4798 H   0  0  0  0  0  0  0  0  0  0  0  0
   15.3459   -1.5990   16.1580 H   0  0  0  0  0  0  0  0  0  0  0  0
   16.7331   -1.8621   15.3375 H   0  0  0  0  0  0  0  0  0  0  0  0
   15.7981   -3.1235   15.7862 H   0  0  0  0  0  0  0  0  0  0  0  0
   15.1332   -0.4454   20.4650 H   0  0  0  0  0  0  0  0  0  0  0  0
   14.0274    0.2615   19.4933 H   0  0  0  0  0  0  0  0  0  0  0  0
   16.8495    0.9348   19.3797 H   0  0  0  0  0  0  0  0  0  0  0  0
   15.6492    1.7354   18.6149 H   0  0  0  0  0  0  0  0  0  0  0  0
   21.1278   -2.5853   20.1746 H   0  0  0  0  0  0  0  0  0  0  0  0
   21.1371   -2.1367   21.7447 H   0  0  0  0  0  0  0  0  0  0  0  0
   19.9007   -4.2578   22.3580 H   0  0  0  0  0  0  0  0  0  0  0  0
   19.8915   -4.7064   20.7878 H   0  0  0  0  0  0  0  0  0  0  0  0
   18.6761   -2.1876   21.8288 H   0  0  0  0  0  0  0  0  0  0  0  0
  1 11  1  0  0  0  0
  2  7  1  0  0  0  0
  2 12  1  0  0  0  0
  3 11  1  0  0  0  0
  3 13  2  0  0  0  0
  4 12  2  0  0  0  0
  4 13  1  0  0  0  0
  5  8  1  0  0  0  0
  6 15  1  0  0  0  0
  7  8  1  0  0  0  0
  9 10  1  0  0  0  0
  9 14  1  0  0  0  0
 10 14  1  0  0  0  0
 11 15  2  0  0  0  0
 12 15  1  0  0  0  0
 13 14  1  0  0  0  0
  2 16  1  0  0  0  0
  5 17  1  0  0  0  0
  5 18  1  0  0  0  0
  5 19  1  0  0  0  0
  6 20  1  0  0  0  0
  6 21  1  0  0  0  0
  6 22  1  0  0  0  0
  7 23  1  0  0  0  0
  7 24  1  0  0  0  0
  8 25  1  0  0  0  0
  8 26  1  0  0  0  0
  9 27  1  0  0  0  0
  9 28  1  0  0  0  0
 10 29  1  0  0  0  0
 10 30  1  0  0  0  0
 14 31  1  0  0  0  0
M  END
> <pdb_id>
5C29

> <uniprot_id>
Q9Y233

> <usmiles>
Clc1nc(nc(NCCC)c1C)C2CC2

$$$$
4Y1_B_803
          07192416573D 1   1.00000     0.00000     0
            
 46 48  0  0  0  0            999 V2000
   18.9733   -3.9796   16.0688 Cl  0  0  0  0  0  0  0  0  0  0  0  0
   17.1794    1.3042   18.9659 S   0  0  0  0  0  0  0  0  0  0  0  0
   18.7139   -2.9094   20.8707 O   0  0  0  0  0  0  0  0  0  0  0  0
   19.5553   -5.8288   23.6104 N   0  0  0  0  0  0  0  0  0  0  0  0
   15.3383   -1.0878   18.2073 N   0  0  0  0  0  0  0  0  0  0  0  0
   18.7904   -3.4012   18.5612 N   0  0  0  0  0  0  0  0  0  0  0  0
   16.4895    2.7007   21.0002 N   0  0  0  0  0  0  0  0  0  0  0  0
   17.0823   -2.0537   19.5488 N   0  0  0  0  0  0  0  0  0  0  0  0
   18.5492    3.5168   19.9006 C   0  0  0  0  0  0  0  0  0  0  0  0
   14.4680    1.6680   21.8502 C   0  0  0  0  0  0  0  0  0  0  0  0
   16.4186   -2.2770   15.8635 C   0  0  0  0  0  0  0  0  0  0  0  0
   19.7590   -3.8738   20.9388 C   0  0  0  0  0  0  0  0  0  0  0  0
   18.6761   -6.4359   24.4206 C   0  0  0  0  0  0  0  0  0  0  0  0
   14.9588   -0.3486   19.4024 C   0  0  0  0  0  0  0  0  0  0  0  0
   17.5328   -5.8469   24.9170 C   0  0  0  0  0  0  0  0  0  0  0  0
   17.2691   -4.5415   24.5584 C   0  0  0  0  0  0  0  0  0  0  0  0
   20.2541   -3.8878   22.3690 C   0  0  0  0  0  0  0  0  0  0  0  0
   18.1540   -3.8869   23.7274 C   0  0  0  0  0  0  0  0  0  0  0  0
   17.4030    2.6040   20.0614 C   0  0  0  0  0  0  0  0  0  0  0  0
   18.1816   -3.2043   17.3884 C   0  0  0  0  0  0  0  0  0  0  0  0
   18.1885   -2.8024   19.5951 C   0  0  0  0  0  0  0  0  0  0  0  0
   15.7622    0.8316   19.8142 C   0  0  0  0  0  0  0  0  0  0  0  0
   16.5001   -1.8777   18.3512 C   0  0  0  0  0  0  0  0  0  0  0  0
   19.2741   -4.5618   23.2755 C   0  0  0  0  0  0  0  0  0  0  0  0
   15.5624    1.7009   20.8688 C   0  0  0  0  0  0  0  0  0  0  0  0
   17.0361   -2.4552   17.2141 C   0  0  0  0  0  0  0  0  0  0  0  0
   14.8188   -1.0402   17.3541 H   0  0  0  0  0  0  0  0  0  0  0  0
   18.5259    4.2111   20.6200 H   0  0  0  0  0  0  0  0  0  0  0  0
   19.4010    2.9971   19.9665 H   0  0  0  0  0  0  0  0  0  0  0  0
   18.4984    3.9615   19.0064 H   0  0  0  0  0  0  0  0  0  0  0  0
   13.8625    0.8981   21.6485 H   0  0  0  0  0  0  0  0  0  0  0  0
   14.8475    1.5617   22.7692 H   0  0  0  0  0  0  0  0  0  0  0  0
   13.9497    2.5217   21.8003 H   0  0  0  0  0  0  0  0  0  0  0  0
   15.6015   -1.7060   15.9433 H   0  0  0  0  0  0  0  0  0  0  0  0
   17.0754   -1.8356   15.2523 H   0  0  0  0  0  0  0  0  0  0  0  0
   16.1659   -3.1705   15.4921 H   0  0  0  0  0  0  0  0  0  0  0  0
   20.5024   -3.6192   20.3203 H   0  0  0  0  0  0  0  0  0  0  0  0
   19.4104   -4.7766   20.6870 H   0  0  0  0  0  0  0  0  0  0  0  0
   18.8629   -7.3825   24.6833 H   0  0  0  0  0  0  0  0  0  0  0  0
   14.9797   -0.9958   20.1644 H   0  0  0  0  0  0  0  0  0  0  0  0
   14.0218   -0.0288   19.2622 H   0  0  0  0  0  0  0  0  0  0  0  0
   16.9133   -6.3509   25.5188 H   0  0  0  0  0  0  0  0  0  0  0  0
   16.4500   -4.0774   24.8953 H   0  0  0  0  0  0  0  0  0  0  0  0
   20.3882   -2.9458   22.6767 H   0  0  0  0  0  0  0  0  0  0  0  0
   21.1247   -4.3783   22.4077 H   0  0  0  0  0  0  0  0  0  0  0  0
   17.9885   -2.9388   23.4556 H   0  0  0  0  0  0  0  0  0  0  0  0
  1 20  1  0  0  0  0
  2 19  1  0  0  0  0
  2 22  1  0  0  0  0
  3 12  1  0  0  0  0
  3 21  1  0  0  0  0
  4 13  2  0  0  0  0
  4 24  1  0  0  0  0
  5 14  1  0  0  0  0
  5 23  1  0  0  0  0
  6 20  1  0  0  0  0
  6 21  2  0  0  0  0
  7 19  2  0  0  0  0
  7 25  1  0  0  0  0
  8 21  1  0  0  0  0
  8 23  2  0  0  0  0
  9 19  1  0  0  0  0
 10 25  1  0  0  0  0
 11 26  1  0  0  0  0
 12 17  1  0  0  0  0
 13 15  1  0  0  0  0
 14 22  1  0  0  0  0
 15 16  2  0  0  0  0
 16 18  1  0  0  0  0
 17 24  1  0  0  0  0
 18 24  2  0  0  0  0
 20 26  2  0  0  0  0
 22 25  2  0  0  0  0
 23 26  1  0  0  0  0
  5 27  1  0  0  0  0
  9 28  1  0  0  0  0
  9 29  1  0  0  0  0
  9 30  1  0  0  0  0
 10 31  1  0  0  0  0
 10 32  1  0  0  0  0
 10 33  1  0  0  0  0
 11 34  1  0  0  0  0
 11 35  1  0  0  0  0
 11 36  1  0  0  0  0
 12 37  1  0  0  0  0
 12 38  1  0  0  0  0
 13 39  1  0  0  0  0
 14 40  1  0  0  0  0
 14 41  1  0  0  0  0
 15 42  1  0  0  0  0
 16 43  1  0  0  0  0
 17 44  1  0  0  0  0
 17 45  1  0  0  0  0
 18 46  1  0  0  0  0
M  END
> <pdb_id>
5C2E

> <uniprot_id>
Q9Y233

> <usmiles>
Clc1nc(OCCc2ncccc2)nc(NCC=3SC(=NC3C)C)c1C

$$$$
4Y2_B_803
          07192416573D 1   1.00000     0.00000     0
            
 37 39  0  0  0  0            999 V2000
   18.9654   -4.1043   16.0864 Cl  0  0  0  0  0  0  0  0  0  0  0  0
   17.3151    1.2197   19.0609 S   0  0  0  0  0  0  0  0  0  0  0  0
   15.4111   -1.2687   18.4030 N   0  0  0  0  0  0  0  0  0  0  0  0
   18.8984   -3.4730   18.5495 N   0  0  0  0  0  0  0  0  0  0  0  0
   16.5820    2.6773   21.0352 N   0  0  0  0  0  0  0  0  0  0  0  0
   17.2744   -2.1600   19.6422 N   0  0  0  0  0  0  0  0  0  0  0  0
   18.6344    3.5119   19.9360 C   0  0  0  0  0  0  0  0  0  0  0  0
   14.5633    1.6068   21.9148 C   0  0  0  0  0  0  0  0  0  0  0  0
   16.3376   -2.4801   15.9949 C   0  0  0  0  0  0  0  0  0  0  0  0
   15.0970   -0.4637   19.5745 C   0  0  0  0  0  0  0  0  0  0  0  0
   20.0148   -4.3105   21.0965 C   0  0  0  0  0  0  0  0  0  0  0  0
   20.6722   -2.9803   20.8807 C   0  0  0  0  0  0  0  0  0  0  0  0
   17.5110    2.5678   20.1113 C   0  0  0  0  0  0  0  0  0  0  0  0
   18.2119   -3.3189   17.4214 C   0  0  0  0  0  0  0  0  0  0  0  0
   16.5945   -2.0234   18.4864 C   0  0  0  0  0  0  0  0  0  0  0  0
   18.4012   -2.8898   19.6423 C   0  0  0  0  0  0  0  0  0  0  0  0
   15.8895    0.7551   19.9134 C   0  0  0  0  0  0  0  0  0  0  0  0
   15.6691    1.6493   20.9366 C   0  0  0  0  0  0  0  0  0  0  0  0
   17.0396   -2.6098   17.3146 C   0  0  0  0  0  0  0  0  0  0  0  0
   19.1712   -3.0747   20.8948 C   0  0  0  0  0  0  0  0  0  0  0  0
   14.8246   -1.2840   17.5932 H   0  0  0  0  0  0  0  0  0  0  0  0
   18.5827    4.2251   20.6351 H   0  0  0  0  0  0  0  0  0  0  0  0
   19.5004    3.0199   20.0251 H   0  0  0  0  0  0  0  0  0  0  0  0
   18.5803    3.9297   19.0290 H   0  0  0  0  0  0  0  0  0  0  0  0
   13.9821    0.8150   21.7267 H   0  0  0  0  0  0  0  0  0  0  0  0
   14.9384    1.5329   22.8389 H   0  0  0  0  0  0  0  0  0  0  0  0
   14.0207    2.4435   21.8412 H   0  0  0  0  0  0  0  0  0  0  0  0
   15.5083   -1.9335   16.1108 H   0  0  0  0  0  0  0  0  0  0  0  0
   16.9434   -2.0316   15.3378 H   0  0  0  0  0  0  0  0  0  0  0  0
   16.0933   -3.3889   15.6567 H   0  0  0  0  0  0  0  0  0  0  0  0
   15.1651   -1.0740   20.3637 H   0  0  0  0  0  0  0  0  0  0  0  0
   14.1493   -0.1638   19.4659 H   0  0  0  0  0  0  0  0  0  0  0  0
   20.0542   -4.7480   21.9948 H   0  0  0  0  0  0  0  0  0  0  0  0
   20.0555   -5.0100   20.3830 H   0  0  0  0  0  0  0  0  0  0  0  0
   21.1525   -2.7942   20.0237 H   0  0  0  0  0  0  0  0  0  0  0  0
   21.1512   -2.5321   21.6355 H   0  0  0  0  0  0  0  0  0  0  0  0
   18.7310   -2.7214   21.7203 H   0  0  0  0  0  0  0  0  0  0  0  0
  1 14  1  0  0  0  0
  2 13  1  0  0  0  0
  2 17  1  0  0  0  0
  3 10  1  0  0  0  0
  3 15  1  0  0  0  0
  4 14  1  0  0  0  0
  4 16  2  0  0  0  0
  5 13  2  0  0  0  0
  5 18  1  0  0  0  0
  6 15  2  0  0  0  0
  6 16  1  0  0  0  0
  7 13  1  0  0  0  0
  8 18  1  0  0  0  0
  9 19  1  0  0  0  0
 10 17  1  0  0  0  0
 11 12  1  0  0  0  0
 11 20  1  0  0  0  0
 12 20  1  0  0  0  0
 14 19  2  0  0  0  0
 15 19  1  0  0  0  0
 16 20  1  0  0  0  0
 17 18  2  0  0  0  0
  3 21  1  0  0  0  0
  7 22  1  0  0  0  0
  7 23  1  0  0  0  0
  7 24  1  0  0  0  0
  8 25  1  0  0  0  0
  8 26  1  0  0  0  0
  8 27  1  0  0  0  0
  9 28  1  0  0  0  0
  9 29  1  0  0  0  0
  9 30  1  0  0  0  0
 10 31  1  0  0  0  0
 10 32  1  0  0  0  0
 11 33  1  0  0  0  0
 11 34  1  0  0  0  0
 12 35  1  0  0  0  0
 12 36  1  0  0  0  0
 20 37  1  0  0  0  0
M  END
> <pdb_id>
5C2A

> <uniprot_id>
Q9Y233

> <usmiles>
Clc1nc(nc(NCC=2SC(=NC2C)C)c1C)C3CC3

$$$$
4Y5_A_601
          07192417083D 1   1.00000     0.00000     0
            
 43 46  0  0  0  0            999 V2000
  -35.6642   20.6167   30.8699 Cl  0  0  0  0  0  0  0  0  0  0  0  0
  -36.9978   27.2388   31.3732 F   0  0  0  0  0  0  0  0  0  0  0  0
  -37.6832   26.6902   33.9190 F   0  0  0  0  0  0  0  0  0  0  0  0
  -41.1565   19.8385   32.1162 F   0  0  0  0  0  0  0  0  0  0  0  0
  -40.4902   21.5979   33.1082 F   0  0  0  0  0  0  0  0  0  0  0  0
  -40.9624   19.8544   34.2342 F   0  0  0  0  0  0  0  0  0  0  0  0
  -33.9721   27.8994   36.9479 O   0  0  0  0  0  0  0  0  0  0  0  0
  -32.5022   26.2410   36.8120 O   0  0  0  0  0  0  0  0  0  0  0  0
  -39.2446   21.2372   30.1623 O   0  0  0  0  0  0  0  0  0  0  0  0
  -37.3309   23.0318   32.5482 N   0  0  0  0  0  0  0  0  0  0  0  0
  -38.0818   22.7797   31.3945 N   0  0  0  0  0  0  0  0  0  0  0  0
  -38.9015   25.4448   28.8942 C   0  0  0  0  0  0  0  0  0  0  0  0
  -37.2463   18.2180   33.6357 C   0  0  0  0  0  0  0  0  0  0  0  0
  -36.3660   18.7885   32.7278 C   0  0  0  0  0  0  0  0  0  0  0  0
  -38.2631   26.4858   29.5540 C   0  0  0  0  0  0  0  0  0  0  0  0
  -38.8912   24.1621   29.4231 C   0  0  0  0  0  0  0  0  0  0  0  0
  -34.1448   24.8840   34.9165 C   0  0  0  0  0  0  0  0  0  0  0  0
  -38.5376   18.7099   33.7651 C   0  0  0  0  0  0  0  0  0  0  0  0
  -34.9888   24.2725   34.0011 C   0  0  0  0  0  0  0  0  0  0  0  0
  -35.6935   26.7182   35.1372 C   0  0  0  0  0  0  0  0  0  0  0  0
  -33.5848   26.7981   36.4908 C   0  0  0  0  0  0  0  0  0  0  0  0
  -36.7900   19.8619   31.9515 C   0  0  0  0  0  0  0  0  0  0  0  0
  -37.6151   26.2182   30.7410 C   0  0  0  0  0  0  0  0  0  0  0  0
  -36.5103   26.0910   34.2285 C   0  0  0  0  0  0  0  0  0  0  0  0
  -38.5406   21.4777   31.1345 C   0  0  0  0  0  0  0  0  0  0  0  0
  -37.0201   24.3175   32.5099 C   0  0  0  0  0  0  0  0  0  0  0  0
  -38.2363   23.9266   30.6309 C   0  0  0  0  0  0  0  0  0  0  0  0
  -34.4851   26.1165   35.4884 C   0  0  0  0  0  0  0  0  0  0  0  0
  -36.1936   24.8830   33.6148 C   0  0  0  0  0  0  0  0  0  0  0  0
  -38.9737   19.7750   32.9769 C   0  0  0  0  0  0  0  0  0  0  0  0
  -37.5644   24.9562   31.3275 C   0  0  0  0  0  0  0  0  0  0  0  0
  -38.0887   20.3585   32.0469 C   0  0  0  0  0  0  0  0  0  0  0  0
  -40.3928   20.2548   33.1126 C   0  0  0  0  0  0  0  0  0  0  0  0
  -34.8448   28.2857   36.6492 H   0  0  0  0  0  0  0  0  0  0  0  0
  -39.3730   25.6208   28.0300 H   0  0  0  0  0  0  0  0  0  0  0  0
  -36.9487   17.4479   34.2000 H   0  0  0  0  0  0  0  0  0  0  0  0
  -35.4366   18.4320   32.6327 H   0  0  0  0  0  0  0  0  0  0  0  0
  -38.2730   27.4115   29.1759 H   0  0  0  0  0  0  0  0  0  0  0  0
  -39.3490   23.4140   28.9427 H   0  0  0  0  0  0  0  0  0  0  0  0
  -33.2852   24.4407   35.1706 H   0  0  0  0  0  0  0  0  0  0  0  0
  -39.1609   18.2971   34.4292 H   0  0  0  0  0  0  0  0  0  0  0  0
  -34.7367   23.3867   33.6116 H   0  0  0  0  0  0  0  0  0  0  0  0
  -35.9610   27.5931   35.5409 H   0  0  0  0  0  0  0  0  0  0  0  0
  1 22  1  0  0  0  0
  2 23  1  0  0  0  0
  3 24  1  0  0  0  0
  4 33  1  0  0  0  0
  5 33  1  0  0  0  0
  6 33  1  0  0  0  0
  7 21  1  0  0  0  0
  8 21  2  0  0  0  0
  9 25  2  0  0  0  0
 10 11  1  0  0  0  0
 10 26  2  0  0  0  0
 11 25  1  0  0  0  0
 11 27  1  0  0  0  0
 12 15  2  0  0  0  0
 12 16  1  0  0  0  0
 13 14  2  0  0  0  0
 13 18  1  0  0  0  0
 14 22  1  0  0  0  0
 15 23  1  0  0  0  0
 16 27  2  0  0  0  0
 17 19  1  0  0  0  0
 17 28  2  0  0  0  0
 18 30  2  0  0  0  0
 19 29  2  0  0  0  0
 20 24  2  0  0  0  0
 20 28  1  0  0  0  0
 21 28  1  0  0  0  0
 22 32  2  0  0  0  0
 23 31  2  0  0  0  0
 24 29  1  0  0  0  0
 25 32  1  0  0  0  0
 26 29  1  0  0  0  0
 26 31  1  0  0  0  0
 27 31  1  0  0  0  0
 30 32  1  0  0  0  0
 30 33  1  0  0  0  0
  7 34  1  0  0  0  0
 12 35  1  0  0  0  0
 13 36  1  0  0  0  0
 14 37  1  0  0  0  0
 15 38  1  0  0  0  0
 16 39  1  0  0  0  0
 17 40  1  0  0  0  0
 18 41  1  0  0  0  0
 19 42  1  0  0  0  0
 20 43  1  0  0  0  0
M  END
> <pdb_id>
5C4S

> <uniprot_id>
P51449

> <usmiles>
Clc1c(c(ccc1)C(F)(F)F)C(=O)N2N=C(c3c(F)cccc23)c4c(F)cc(cc4)C(=O)O

$$$$
4Y6_A_601
          07192417083D 1   1.00000     0.00000     0
            
 50 53  0  0  0  0            999 V2000
  -35.4564   20.8811   31.2391 Cl  0  0  0  0  0  0  0  0  0  0  0  0
  -36.9842   27.3330   31.7390 F   0  0  0  0  0  0  0  0  0  0  0  0
  -41.0855   19.7939   33.8619 F   0  0  0  0  0  0  0  0  0  0  0  0
  -41.1424   19.8833   31.7384 F   0  0  0  0  0  0  0  0  0  0  0  0
  -40.5330   21.5899   32.8273 F   0  0  0  0  0  0  0  0  0  0  0  0
  -32.5611   26.2680   37.1591 O   0  0  0  0  0  0  0  0  0  0  0  0
  -34.4749   27.2036   37.7911 O   0  0  0  0  0  0  0  0  0  0  0  0
  -39.0148   21.3656   30.0112 O   0  0  0  0  0  0  0  0  0  0  0  0
  -37.2645   23.0340   32.5641 N   0  0  0  0  0  0  0  0  0  0  0  0
  -37.9774   22.8626   31.3972 N   0  0  0  0  0  0  0  0  0  0  0  0
  -33.6098   26.8556   34.5681 C   0  0  0  0  0  0  0  0  0  0  0  0
  -38.8574   25.6970   29.1344 C   0  0  0  0  0  0  0  0  0  0  0  0
  -37.3377   18.1969   33.4831 C   0  0  0  0  0  0  0  0  0  0  0  0
  -36.3615   18.8624   32.7579 C   0  0  0  0  0  0  0  0  0  0  0  0
  -38.2504   26.6959   29.8812 C   0  0  0  0  0  0  0  0  0  0  0  0
  -38.8197   24.3769   29.5530 C   0  0  0  0  0  0  0  0  0  0  0  0
  -38.6498   18.6494   33.4758 C   0  0  0  0  0  0  0  0  0  0  0  0
  -36.5662   25.9363   34.4235 C   0  0  0  0  0  0  0  0  0  0  0  0
  -34.9957   24.0099   34.2365 C   0  0  0  0  0  0  0  0  0  0  0  0
  -35.8711   26.4877   35.6332 C   0  0  0  0  0  0  0  0  0  0  0  0
  -34.2364   24.5667   35.4663 C   0  0  0  0  0  0  0  0  0  0  0  0
  -33.7587   26.5622   36.9965 C   0  0  0  0  0  0  0  0  0  0  0  0
  -36.7131   19.9768   32.0162 C   0  0  0  0  0  0  0  0  0  0  0  0
  -37.5923   26.3508   31.0398 C   0  0  0  0  0  0  0  0  0  0  0  0
  -38.3882   21.5716   31.0395 C   0  0  0  0  0  0  0  0  0  0  0  0
  -36.9713   24.3258   32.6535 C   0  0  0  0  0  0  0  0  0  0  0  0
  -38.1577   24.0635   30.7384 C   0  0  0  0  0  0  0  0  0  0  0  0
  -36.1977   24.8277   33.7902 C   0  0  0  0  0  0  0  0  0  0  0  0
  -37.5127   25.0479   31.5270 C   0  0  0  0  0  0  0  0  0  0  0  0
  -38.0318   20.4258   31.9552 C   0  0  0  0  0  0  0  0  0  0  0  0
  -39.0117   19.7651   32.7285 C   0  0  0  0  0  0  0  0  0  0  0  0
  -40.4354   20.2495   32.7922 C   0  0  0  0  0  0  0  0  0  0  0  0
  -34.3796   26.0952   35.6627 C   0  0  1  0  0  0  0  0  0  0  0  0
  -32.0744   25.7477   36.4574 H   0  0  0  0  0  0  0  0  0  0  0  0
  -32.6450   26.5939   34.5962 H   0  0  0  0  0  0  0  0  0  0  0  0
  -33.9912   26.6271   33.6724 H   0  0  0  0  0  0  0  0  0  0  0  0
  -33.6929   27.8398   34.7246 H   0  0  0  0  0  0  0  0  0  0  0  0
  -39.3277   25.9325   28.2839 H   0  0  0  0  0  0  0  0  0  0  0  0
  -37.0949   17.3856   34.0149 H   0  0  0  0  0  0  0  0  0  0  0  0
  -35.4146   18.5411   32.7705 H   0  0  0  0  0  0  0  0  0  0  0  0
  -38.2904   27.6497   29.5833 H   0  0  0  0  0  0  0  0  0  0  0  0
  -39.2606   23.6601   29.0128 H   0  0  0  0  0  0  0  0  0  0  0  0
  -39.3422   18.1681   34.0134 H   0  0  0  0  0  0  0  0  0  0  0  0
  -37.3579   26.4352   34.0709 H   0  0  0  0  0  0  0  0  0  0  0  0
  -35.3147   23.0891   34.4613 H   0  0  0  0  0  0  0  0  0  0  0  0
  -34.3530   23.9626   33.4719 H   0  0  0  0  0  0  0  0  0  0  0  0
  -36.3166   26.1301   36.4540 H   0  0  0  0  0  0  0  0  0  0  0  0
  -35.9437   27.4850   35.6222 H   0  0  0  0  0  0  0  0  0  0  0  0
  -33.2653   24.3543   35.3576 H   0  0  0  0  0  0  0  0  0  0  0  0
  -34.5878   24.1113   36.2843 H   0  0  0  0  0  0  0  0  0  0  0  0
  1 23  1  0  0  0  0
  2 24  1  0  0  0  0
  3 32  1  0  0  0  0
  4 32  1  0  0  0  0
  5 32  1  0  0  0  0
  6 22  1  0  0  0  0
  7 22  2  0  0  0  0
  8 25  2  0  0  0  0
  9 10  1  0  0  0  0
  9 26  2  0  0  0  0
 10 25  1  0  0  0  0
 10 27  1  0  0  0  0
 11 33  1  0  0  0  0
 12 15  2  0  0  0  0
 12 16  1  0  0  0  0
 13 14  2  0  0  0  0
 13 17  1  0  0  0  0
 14 23  1  0  0  0  0
 15 24  1  0  0  0  0
 16 27  2  0  0  0  0
 17 31  2  0  0  0  0
 18 20  1  0  0  0  0
 18 28  2  0  0  0  0
 19 21  1  0  0  0  0
 19 28  1  0  0  0  0
 20 33  1  0  0  0  0
 21 33  1  0  0  0  0
 22 33  1  0  0  0  0
 23 30  2  0  0  0  0
 24 29  2  0  0  0  0
 25 30  1  0  0  0  0
 26 28  1  0  0  0  0
 26 29  1  0  0  0  0
 27 29  1  0  0  0  0
 30 31  1  0  0  0  0
 31 32  1  0  0  0  0
  6 34  1  0  0  0  0
 11 35  1  0  0  0  0
 11 36  1  0  0  0  0
 11 37  1  0  0  0  0
 12 38  1  0  0  0  0
 13 39  1  0  0  0  0
 14 40  1  0  0  0  0
 15 41  1  0  0  0  0
 16 42  1  0  0  0  0
 17 43  1  0  0  0  0
 18 44  1  0  0  0  0
 19 45  1  0  0  0  0
 19 46  1  0  0  0  0
 20 47  1  0  0  0  0
 20 48  1  0  0  0  0
 21 49  1  0  0  0  0
 21 50  1  0  0  0  0
M  END
> <pdb_id>
5C4T

> <uniprot_id>
P51449

> <usmiles>
Clc1c(c(ccc1)C(F)(F)F)C(=O)N2N=C(c3c(F)cccc23)C4=CC[C@@](C(=O)O)(CC4)C

$$$$
4Y7_A_601
          07192417083D 1   1.00000     0.00000     0
            
 43 46  0  0  0  0            999 V2000
  -35.6210   20.5950   30.8090 Cl  0  0  0  0  0  0  0  0  0  0  0  0
  -34.5690   23.0510   33.5520 F   0  0  0  0  0  0  0  0  0  0  0  0
  -40.4500   21.5580   33.0790 F   0  0  0  0  0  0  0  0  0  0  0  0
  -40.9450   19.7550   34.1200 F   0  0  0  0  0  0  0  0  0  0  0  0
  -41.1920   19.8900   32.0160 F   0  0  0  0  0  0  0  0  0  0  0  0
  -32.4690   26.2150   36.7530 O   0  0  0  0  0  0  0  0  0  0  0  0
  -33.8840   27.9130   36.8390 O   0  0  0  0  0  0  0  0  0  0  0  0
  -39.2290   21.3530   30.0960 O   0  0  0  0  0  0  0  0  0  0  0  0
  -36.0370   27.9310   35.4120 O   0  0  0  0  0  0  0  0  0  0  0  0
  -37.0160   23.0110   32.3290 N   0  0  0  0  0  0  0  0  0  0  0  0
  -37.6440   26.2980   30.9490 N   0  0  0  0  0  0  0  0  0  0  0  0
  -37.9570   22.7930   31.3260 N   0  0  0  0  0  0  0  0  0  0  0  0
  -38.3480   26.5700   29.8370 C   0  0  0  0  0  0  0  0  0  0  0  0
  -39.0280   25.6090   29.1010 C   0  0  0  0  0  0  0  0  0  0  0  0
  -37.2960   18.0950   33.4050 C   0  0  0  0  0  0  0  0  0  0  0  0
  -36.3990   18.6910   32.5330 C   0  0  0  0  0  0  0  0  0  0  0  0
  -39.0040   24.2900   29.5340 C   0  0  0  0  0  0  0  0  0  0  0  0
  -38.5760   18.6070   33.5460 C   0  0  0  0  0  0  0  0  0  0  0  0
  -34.2010   24.7890   35.0480 C   0  0  0  0  0  0  0  0  0  0  0  0
  -36.3310   26.1710   33.9130 C   0  0  0  0  0  0  0  0  0  0  0  0
  -33.5590   26.7710   36.4540 C   0  0  0  0  0  0  0  0  0  0  0  0
  -36.7920   19.8080   31.8100 C   0  0  0  0  0  0  0  0  0  0  0  0
  -34.9670   24.2330   34.0590 C   0  0  0  0  0  0  0  0  0  0  0  0
  -38.4860   21.5150   31.0520 C   0  0  0  0  0  0  0  0  0  0  0  0
  -35.5990   26.7430   34.9390 C   0  0  0  0  0  0  0  0  0  0  0  0
  -36.8030   24.3200   32.3310 C   0  0  0  0  0  0  0  0  0  0  0  0
  -37.6040   25.0150   31.3570 C   0  0  0  0  0  0  0  0  0  0  0  0
  -38.2930   23.9770   30.6890 C   0  0  0  0  0  0  0  0  0  0  0  0
  -34.4800   26.0800   35.4810 C   0  0  0  0  0  0  0  0  0  0  0  0
  -35.9950   24.9060   33.4260 C   0  0  0  0  0  0  0  0  0  0  0  0
  -38.9830   19.7190   32.8080 C   0  0  0  0  0  0  0  0  0  0  0  0
  -38.0810   20.3350   31.9110 C   0  0  0  0  0  0  0  0  0  0  0  0
  -40.3860   20.2270   33.0070 C   0  0  0  0  0  0  0  0  0  0  0  0
  -32.2663   25.2967   36.4128 H   0  0  0  0  0  0  0  0  0  0  0  0
  -35.5439   28.3866   36.1531 H   0  0  0  0  0  0  0  0  0  0  0  0
  -38.3841   27.5183   29.5218 H   0  0  0  0  0  0  0  0  0  0  0  0
  -39.5270   25.8627   28.2724 H   0  0  0  0  0  0  0  0  0  0  0  0
  -37.0188   17.2930   33.9341 H   0  0  0  0  0  0  0  0  0  0  0  0
  -35.4768   18.3194   32.4258 H   0  0  0  0  0  0  0  0  0  0  0  0
  -39.4885   23.5781   29.0255 H   0  0  0  0  0  0  0  0  0  0  0  0
  -39.2144   18.1751   34.1831 H   0  0  0  0  0  0  0  0  0  0  0  0
  -33.4482   24.2715   35.4549 H   0  0  0  0  0  0  0  0  0  0  0  0
  -37.1048   26.6663   33.5182 H   0  0  0  0  0  0  0  0  0  0  0  0
  1 22  1  0  0  0  0
  2 23  1  0  0  0  0
  3 33  1  0  0  0  0
  4 33  1  0  0  0  0
  5 33  1  0  0  0  0
  6 21  1  0  0  0  0
  7 21  2  0  0  0  0
  8 24  2  0  0  0  0
  9 25  1  0  0  0  0
 10 12  1  0  0  0  0
 10 26  2  0  0  0  0
 11 13  1  0  0  0  0
 11 27  2  0  0  0  0
 12 24  1  0  0  0  0
 12 28  1  0  0  0  0
 13 14  2  0  0  0  0
 14 17  1  0  0  0  0
 15 16  2  0  0  0  0
 15 18  1  0  0  0  0
 16 22  1  0  0  0  0
 17 28  2  0  0  0  0
 18 31  2  0  0  0  0
 19 23  1  0  0  0  0
 19 29  2  0  0  0  0
 20 25  2  0  0  0  0
 20 30  1  0  0  0  0
 21 29  1  0  0  0  0
 22 32  2  0  0  0  0
 23 30  2  0  0  0  0
 24 32  1  0  0  0  0
 25 29  1  0  0  0  0
 26 27  1  0  0  0  0
 26 30  1  0  0  0  0
 27 28  1  0  0  0  0
 31 32  1  0  0  0  0
 31 33  1  0  0  0  0
  6 34  1  0  0  0  0
  9 35  1  0  0  0  0
 13 36  1  0  0  0  0
 14 37  1  0  0  0  0
 15 38  1  0  0  0  0
 16 39  1  0  0  0  0
 17 40  1  0  0  0  0
 18 41  1  0  0  0  0
 19 42  1  0  0  0  0
 20 43  1  0  0  0  0
M  END
> <pdb_id>
5C4U

> <uniprot_id>
P51449

> <usmiles>
Clc1c(c(ccc1)C(F)(F)F)C(=O)N2N=C(c3ncccc23)c4c(F)cc(c(O)c4)C(=O)O

$$$$
4YC_A_402
          07202409073D 1   1.00000     0.00000     0
            
 47 49  0  0  0  0            999 V2000
  -10.5297  -20.8401   -8.2871 Cl  0  0  0  0  0  0  0  0  0  0  0  0
  -13.9881  -19.1927   -4.8104 O   0  0  0  0  0  0  0  0  0  0  0  0
  -14.9428  -19.1127   -0.5171 N   0  3  0  0  0  0  0  0  0  0  0  0
  -16.1704  -18.7422   -3.0821 N   0  0  0  0  0  0  0  0  0  0  0  0
  -15.1809  -18.9830   -6.7384 N   0  0  0  0  0  0  0  0  0  0  0  0
  -15.3735  -21.5451   -0.5855 C   0  0  0  0  0  0  0  0  0  0  0  0
  -17.0353  -19.4171   -9.8427 C   0  0  0  0  0  0  0  0  0  0  0  0
  -16.0915  -17.1843   -9.3324 C   0  0  0  0  0  0  0  0  0  0  0  0
  -12.6003  -20.0404   -9.8275 C   0  0  0  0  0  0  0  0  0  0  0  0
  -13.8775  -19.5381  -10.0367 C   0  0  0  0  0  0  0  0  0  0  0  0
  -12.9140  -19.8874   -7.4466 C   0  0  0  0  0  0  0  0  0  0  0  0
  -15.3172  -17.7550   -0.9946 C   0  0  0  0  0  0  0  0  0  0  0  0
  -15.2920  -17.7092   -2.5143 C   0  0  0  0  0  0  0  0  0  0  0  0
  -16.3055  -18.6569   -4.5456 C   0  0  0  0  0  0  0  0  0  0  0  0
  -15.7871  -20.0808   -2.6114 C   0  0  0  0  0  0  0  0  0  0  0  0
  -16.4767  -18.8207   -7.4487 C   0  0  0  0  0  0  0  0  0  0  0  0
  -15.0573  -18.9669   -5.3603 C   0  0  0  0  0  0  0  0  0  0  0  0
  -12.1326  -20.2096   -8.5395 C   0  0  0  0  0  0  0  0  0  0  0  0
  -14.1891  -19.3860   -7.6647 C   0  0  0  0  0  0  0  0  0  0  0  0
  -14.6738  -19.2099   -8.9538 C   0  0  0  0  0  0  0  0  0  0  0  0
  -15.8279  -20.1827   -1.0900 C   0  0  2  0  0  0  0  0  0  0  0  0
  -16.0854  -18.6519   -8.9296 C   0  0  0  0  0  0  0  0  0  0  0  0
  -14.0716  -19.2827   -0.7649 H   0  0  0  0  0  0  0  0  0  0  0  0
  -14.9869  -19.1346    0.3828 H   0  0  0  0  0  0  0  0  0  0  0  0
  -15.7200  -22.2425   -1.1750 H   0  0  0  0  0  0  0  0  0  0  0  0
  -14.3972  -21.5810   -0.5785 H   0  0  0  0  0  0  0  0  0  0  0  0
  -15.7119  -21.6869    0.3196 H   0  0  0  0  0  0  0  0  0  0  0  0
  -16.6629  -19.4531  -10.7458 H   0  0  0  0  0  0  0  0  0  0  0  0
  -17.9012  -18.9654   -9.8670 H   0  0  0  0  0  0  0  0  0  0  0  0
  -17.1537  -20.3240   -9.5054 H   0  0  0  0  0  0  0  0  0  0  0  0
  -15.8027  -17.0987  -10.2618 H   0  0  0  0  0  0  0  0  0  0  0  0
  -16.9938  -16.8226   -9.2383 H   0  0  0  0  0  0  0  0  0  0  0  0
  -15.4807  -16.6841   -8.7561 H   0  0  0  0  0  0  0  0  0  0  0  0
  -12.0537  -20.2654  -10.5618 H   0  0  0  0  0  0  0  0  0  0  0  0
  -14.2020  -19.4206  -10.9150 H   0  0  0  0  0  0  0  0  0  0  0  0
  -12.5854  -20.0068   -6.5743 H   0  0  0  0  0  0  0  0  0  0  0  0
  -16.2137  -17.5316   -0.6724 H   0  0  0  0  0  0  0  0  0  0  0  0
  -14.6894  -17.0983   -0.6343 H   0  0  0  0  0  0  0  0  0  0  0  0
  -14.3800  -17.8486   -2.8260 H   0  0  0  0  0  0  0  0  0  0  0  0
  -15.5875  -16.8282   -2.8179 H   0  0  0  0  0  0  0  0  0  0  0  0
  -17.0126  -19.2746   -4.8226 H   0  0  0  0  0  0  0  0  0  0  0  0
  -16.6042  -17.7503   -4.7740 H   0  0  0  0  0  0  0  0  0  0  0  0
  -16.3959  -20.7423   -2.9947 H   0  0  0  0  0  0  0  0  0  0  0  0
  -14.8877  -20.2863   -2.9195 H   0  0  0  0  0  0  0  0  0  0  0  0
  -17.0418  -19.6110   -7.3228 H   0  0  0  0  0  0  0  0  0  0  0  0
  -16.9558  -18.0317   -7.1209 H   0  0  0  0  0  0  0  0  0  0  0  0
  -16.7421  -20.0074   -0.7751 H   0  0  0  0  0  0  0  0  0  0  0  0
  1 18  1  0  0  0  0
  2 17  2  0  0  0  0
  3 12  1  0  0  0  0
  3 21  1  0  0  0  0
  3 23  1  0  0  0  0
  3 24  1  0  0  0  0
  4 13  1  0  0  0  0
  4 14  1  0  0  0  0
  4 15  1  0  0  0  0
  5 16  1  0  0  0  0
  5 17  1  0  0  0  0
  5 19  1  0  0  0  0
  6 21  1  0  0  0  0
  6 25  1  0  0  0  0
  6 26  1  0  0  0  0
  6 27  1  0  0  0  0
  7 22  1  0  0  0  0
  7 28  1  0  0  0  0
  7 29  1  0  0  0  0
  7 30  1  0  0  0  0
  8 22  1  0  0  0  0
  8 31  1  0  0  0  0
  8 32  1  0  0  0  0
  8 33  1  0  0  0  0
  9 10  1  0  0  0  0
  9 18  2  0  0  0  0
  9 34  1  0  0  0  0
 10 20  2  0  0  0  0
 10 35  1  0  0  0  0
 11 18  1  0  0  0  0
 11 19  2  0  0  0  0
 11 36  1  0  0  0  0
 12 13  1  0  0  0  0
 12 37  1  0  0  0  0
 12 38  1  0  0  0  0
 13 39  1  0  0  0  0
 13 40  1  0  0  0  0
 14 17  1  0  0  0  0
 14 41  1  0  0  0  0
 14 42  1  0  0  0  0
 15 21  1  0  0  0  0
 15 43  1  0  0  0  0
 15 44  1  0  0  0  0
 16 22  1  0  0  0  0
 16 45  1  0  0  0  0
 16 46  1  0  0  0  0
 19 20  1  0  0  0  0
 20 22  1  0  0  0  0
 21 47  1  0  0  0  0
M  CHG  1   3   1
M  END
> <pdb_id>
5C7C

> <uniprot_id>
P98170

> <usmiles>
Clc1cc2N(C(=O)CN3C[C@H]([NH2+]CC3)C)CC(c2cc1)(C)C

$$$$
4YL_A_402
          07202409073D 1   1.00000     0.00000     0
            
 53 55  0  0  0  0            999 V2000
  -10.6000  -20.6250   -8.5160 Cl  0  0  0  0  0  0  0  0  0  0  0  0
  -14.0370  -19.2760   -4.8440 O   0  0  0  0  0  0  0  0  0  0  0  0
  -15.2750  -16.0790   -4.3810 O   0  0  0  0  0  0  0  0  0  0  0  0
  -12.6610  -19.8400   -9.9000 N   0  0  0  0  0  0  0  0  0  0  0  0
  -15.0450  -19.0920   -0.5260 N   0  3  0  0  0  0  0  0  0  0  0  0
  -16.1740  -18.8280   -3.1100 N   0  0  0  0  0  0  0  0  0  0  0  0
  -15.2060  -18.8860   -6.7550 N   0  0  0  0  0  0  0  0  0  0  0  0
  -13.8820  -15.7320   -4.4030 C   0  0  0  0  0  0  0  0  0  0  0  0
  -15.3810  -21.5370   -0.5180 C   0  0  0  0  0  0  0  0  0  0  0  0
  -17.0770  -19.3220   -9.8350 C   0  0  0  0  0  0  0  0  0  0  0  0
  -16.1580  -17.0660   -9.3660 C   0  0  0  0  0  0  0  0  0  0  0  0
  -13.8990  -19.3700  -10.0560 C   0  0  0  0  0  0  0  0  0  0  0  0
  -12.9400  -19.7420   -7.5210 C   0  0  0  0  0  0  0  0  0  0  0  0
  -15.7930  -16.3060   -3.0610 C   0  0  0  0  0  0  0  0  0  0  0  0
  -15.4720  -17.7580   -1.0290 C   0  0  0  0  0  0  0  0  0  0  0  0
  -16.3690  -18.8440   -4.5680 C   0  0  0  0  0  0  0  0  0  0  0  0
  -15.8410  -20.1610   -2.5910 C   0  0  0  0  0  0  0  0  0  0  0  0
  -16.5030  -18.6800   -7.4540 C   0  0  0  0  0  0  0  0  0  0  0  0
  -12.2210  -20.0110   -8.6630 C   0  0  0  0  0  0  0  0  0  0  0  0
  -15.1030  -19.0220   -5.3890 C   0  0  0  0  0  0  0  0  0  0  0  0
  -14.2190  -19.2560   -7.6970 C   0  0  0  0  0  0  0  0  0  0  0  0
  -14.7110  -19.0660   -8.9780 C   0  0  0  0  0  0  0  0  0  0  0  0
  -15.8850  -20.2120   -1.0670 C   0  0  2  0  0  0  0  0  0  0  0  0
  -15.3890  -17.6990   -2.5520 C   0  0  1  0  0  0  0  0  0  0  0  0
  -16.1290  -18.5280   -8.9420 C   0  0  0  0  0  0  0  0  0  0  0  0
  -14.1650  -19.2310   -0.7730 H   0  0  0  0  0  0  0  0  0  0  0  0
  -15.0810  -19.0950    0.3730 H   0  0  0  0  0  0  0  0  0  0  0  0
  -13.6480  -15.3830   -5.2860 H   0  0  0  0  0  0  0  0  0  0  0  0
  -13.3460  -16.5250   -4.2150 H   0  0  0  0  0  0  0  0  0  0  0  0
  -13.7040  -15.0510   -3.7270 H   0  0  0  0  0  0  0  0  0  0  0  0
  -15.5990  -22.2530   -1.1460 H   0  0  0  0  0  0  0  0  0  0  0  0
  -14.4130  -21.4930   -0.3980 H   0  0  0  0  0  0  0  0  0  0  0  0
  -15.8080  -21.7160    0.3410 H   0  0  0  0  0  0  0  0  0  0  0  0
  -16.7550  -19.2970  -10.7570 H   0  0  0  0  0  0  0  0  0  0  0  0
  -17.9710  -18.9310   -9.7930 H   0  0  0  0  0  0  0  0  0  0  0  0
  -17.1150  -20.2500   -9.5300 H   0  0  0  0  0  0  0  0  0  0  0  0
  -15.7970  -16.9800  -10.2700 H   0  0  0  0  0  0  0  0  0  0  0  0
  -17.0780  -16.7390   -9.3520 H   0  0  0  0  0  0  0  0  0  0  0  0
  -15.6160  -16.5360   -8.7490 H   0  0  0  0  0  0  0  0  0  0  0  0
  -14.2250  -19.2440  -10.9310 H   0  0  0  0  0  0  0  0  0  0  0  0
  -12.5750  -19.8830   -6.6670 H   0  0  0  0  0  0  0  0  0  0  0  0
  -16.7720  -16.2340   -3.0760 H   0  0  0  0  0  0  0  0  0  0  0  0
  -15.4480  -15.6200   -2.4490 H   0  0  0  0  0  0  0  0  0  0  0  0
  -16.3920  -17.5910   -0.7420 H   0  0  0  0  0  0  0  0  0  0  0  0
  -14.8940  -17.0740   -0.6410 H   0  0  0  0  0  0  0  0  0  0  0  0
  -16.7970  -18.0070   -4.8340 H   0  0  0  0  0  0  0  0  0  0  0  0
  -16.9840  -19.5730   -4.7900 H   0  0  0  0  0  0  0  0  0  0  0  0
  -16.4740  -20.8130   -2.9510 H   0  0  0  0  0  0  0  0  0  0  0  0
  -14.9490  -20.4100   -2.8920 H   0  0  0  0  0  0  0  0  0  0  0  0
  -17.0940  -19.4490   -7.3180 H   0  0  0  0  0  0  0  0  0  0  0  0
  -16.9510  -17.8740   -7.1220 H   0  0  0  0  0  0  0  0  0  0  0  0
  -16.8070  -20.0630   -0.7620 H   0  0  0  0  0  0  0  0  0  0  0  0
  -14.4500  -17.8410   -2.7940 H   0  0  0  0  0  0  0  0  0  0  0  0
  1 19  1  0  0  0  0
  2 20  2  0  0  0  0
  3  8  1  0  0  0  0
  3 14  1  0  0  0  0
  4 12  1  0  0  0  0
  4 19  2  0  0  0  0
  5 15  1  0  0  0  0
  5 23  1  0  0  0  0
  5 26  1  0  0  0  0
  5 27  1  0  0  0  0
  6 16  1  0  0  0  0
  6 17  1  0  0  0  0
  6 24  1  0  0  0  0
  7 18  1  0  0  0  0
  7 20  1  0  0  0  0
  7 21  1  0  0  0  0
  8 28  1  0  0  0  0
  8 29  1  0  0  0  0
  8 30  1  0  0  0  0
  9 23  1  0  0  0  0
  9 31  1  0  0  0  0
  9 32  1  0  0  0  0
  9 33  1  0  0  0  0
 10 25  1  0  0  0  0
 10 34  1  0  0  0  0
 10 35  1  0  0  0  0
 10 36  1  0  0  0  0
 11 25  1  0  0  0  0
 11 37  1  0  0  0  0
 11 38  1  0  0  0  0
 11 39  1  0  0  0  0
 12 22  2  0  0  0  0
 12 40  1  0  0  0  0
 13 19  1  0  0  0  0
 13 21  2  0  0  0  0
 13 41  1  0  0  0  0
 14 24  1  0  0  0  0
 14 42  1  0  0  0  0
 14 43  1  0  0  0  0
 15 24  1  0  0  0  0
 15 44  1  0  0  0  0
 15 45  1  0  0  0  0
 16 20  1  0  0  0  0
 16 46  1  0  0  0  0
 16 47  1  0  0  0  0
 17 23  1  0  0  0  0
 17 48  1  0  0  0  0
 17 49  1  0  0  0  0
 18 25  1  0  0  0  0
 18 50  1  0  0  0  0
 18 51  1  0  0  0  0
 21 22  1  0  0  0  0
 22 25  1  0  0  0  0
 23 52  1  0  0  0  0
 24 53  1  0  0  0  0
M  CHG  1   5   1
M  END
> <pdb_id>
5C84

> <uniprot_id>
P98170

> <usmiles>
Clc1ncc2c(N(C(=O)CN3[C@@H](COC)C[NH2+][C@@H](C3)C)CC2(C)C)c1

$$$$
4YR_B_1101
          07202406393D 1   1.00000     0.00000     0
            
 57 61  0  0  0  0            999 V2000
   12.5425   -5.1284  -12.4696 F   0  0  0  0  0  0  0  0  0  0  0  0
   11.4803   -5.1516   -5.6431 O   0  0  0  0  0  0  0  0  0  0  0  0
    9.0752   -1.3524   -4.4613 O   0  0  0  0  0  0  0  0  0  0  0  0
   12.8529   -2.2351  -10.0002 O   0  0  0  0  0  0  0  0  0  0  0  0
   10.2555   -3.2736   -5.0985 N   0  0  0  0  0  0  0  0  0  0  0  0
   14.3997   -3.9690  -10.5737 N   0  0  0  0  0  0  0  0  0  0  0  0
   17.6931   -3.5342  -10.0875 N   0  0  0  0  0  0  0  0  0  0  0  0
    9.5483   -4.6246   -6.8948 N   0  0  0  0  0  0  0  0  0  0  0  0
   17.3144   -4.5233  -11.0974 C   0  0  0  0  0  0  0  0  0  0  0  0
   16.4505   -3.0728   -9.4737 C   0  0  0  0  0  0  0  0  0  0  0  0
   18.5908   -4.1444   -9.0862 C   0  0  0  0  0  0  0  0  0  0  0  0
    9.7957   -5.8683   -7.7189 C   0  0  0  0  0  0  0  0  0  0  0  0
    6.4821   -3.1524   -8.3083 C   0  0  0  0  0  0  0  0  0  0  0  0
    6.3010   -2.0371   -7.5025 C   0  0  0  0  0  0  0  0  0  0  0  0
   16.3654   -3.7045  -11.8726 C   0  0  0  0  0  0  0  0  0  0  0  0
    7.5454   -4.0178   -8.1206 C   0  0  0  0  0  0  0  0  0  0  0  0
   10.8802   -6.2466  -11.1927 C   0  0  0  0  0  0  0  0  0  0  0  0
    7.2161   -1.7886   -6.4852 C   0  0  0  0  0  0  0  0  0  0  0  0
   10.1970   -6.4167   -9.9913 C   0  0  0  0  0  0  0  0  0  0  0  0
   20.0655   -5.8719  -10.4372 C   0  0  0  0  0  0  0  0  0  0  0  0
   20.7981   -5.4886   -9.1598 C   0  0  0  0  0  0  0  0  0  0  0  0
   11.5166   -4.6666   -8.9819 C   0  0  0  0  0  0  0  0  0  0  0  0
   10.4114   -4.3471   -5.8859 C   0  0  0  0  0  0  0  0  0  0  0  0
    9.2296   -2.4351   -5.2675 C   0  0  0  0  0  0  0  0  0  0  0  0
   13.1911   -3.5254  -10.2666 C   0  0  0  0  0  0  0  0  0  0  0  0
   11.8852   -5.2881  -11.2908 C   0  0  0  0  0  0  0  0  0  0  0  0
   15.5601   -3.1002  -10.7436 C   0  0  1  0  0  0  0  0  0  0  0  0
    8.4800   -3.7938   -7.1049 C   0  0  0  0  0  0  0  0  0  0  0  0
   19.8827   -4.4742   -9.8306 C   0  0  0  0  0  0  0  0  0  0  0  0
   10.4970   -5.6253   -8.8754 C   0  0  0  0  0  0  0  0  0  0  0  0
    8.2989   -2.6584   -6.2842 C   0  0  0  0  0  0  0  0  0  0  0  0
   12.1978   -4.4922  -10.1823 C   0  0  0  0  0  0  0  0  0  0  0  0
   10.9192   -3.0972   -4.3716 H   0  0  0  0  0  0  0  0  0  0  0  0
   14.5247   -4.9536  -10.6960 H   0  0  0  0  0  0  0  0  0  0  0  0
   16.8747   -5.3247  -10.6918 H   0  0  0  0  0  0  0  0  0  0  0  0
   18.0959   -4.8152  -11.6487 H   0  0  0  0  0  0  0  0  0  0  0  0
   16.5358   -2.1530   -9.0906 H   0  0  0  0  0  0  0  0  0  0  0  0
   16.1216   -3.6991   -8.7669 H   0  0  0  0  0  0  0  0  0  0  0  0
   18.1815   -4.9773   -8.7135 H   0  0  0  0  0  0  0  0  0  0  0  0
   18.7719   -3.5005   -8.3429 H   0  0  0  0  0  0  0  0  0  0  0  0
    8.9121   -6.2685   -7.9619 H   0  0  0  0  0  0  0  0  0  0  0  0
   10.3148   -6.5183   -7.1639 H   0  0  0  0  0  0  0  0  0  0  0  0
    5.8282   -3.3352   -9.0425 H   0  0  0  0  0  0  0  0  0  0  0  0
    5.5260   -1.4228   -7.6509 H   0  0  0  0  0  0  0  0  0  0  0  0
   15.7975   -4.2649  -12.4754 H   0  0  0  0  0  0  0  0  0  0  0  0
   16.8333   -3.0040  -12.4115 H   0  0  0  0  0  0  0  0  0  0  0  0
    7.6467   -4.8129   -8.7186 H   0  0  0  0  0  0  0  0  0  0  0  0
   10.6493   -6.8125  -11.9843 H   0  0  0  0  0  0  0  0  0  0  0  0
    7.1022   -0.9887   -5.8959 H   0  0  0  0  0  0  0  0  0  0  0  0
    9.4826   -7.1132   -9.9244 H   0  0  0  0  0  0  0  0  0  0  0  0
   19.3163   -6.5334  -10.4054 H   0  0  0  0  0  0  0  0  0  0  0  0
   20.5736   -5.9845  -11.2911 H   0  0  0  0  0  0  0  0  0  0  0  0
   21.7887   -5.3527   -9.1747 H   0  0  0  0  0  0  0  0  0  0  0  0
   20.5314   -5.9016   -8.2890 H   0  0  0  0  0  0  0  0  0  0  0  0
   11.7550   -4.1051   -8.1895 H   0  0  0  0  0  0  0  0  0  0  0  0
   15.2681   -2.1741  -10.9827 H   0  0  0  0  0  0  0  0  0  0  0  0
   20.3285   -3.7175  -10.3089 H   0  0  0  0  0  0  0  0  0  0  0  0
  1 26  1  0  0  0  0
  2 23  2  0  0  0  0
  3 24  2  0  0  0  0
  4 25  2  0  0  0  0
  5 23  1  0  0  0  0
  5 24  1  0  0  0  0
  6 25  1  0  0  0  0
  6 27  1  0  0  0  0
  7  9  1  0  0  0  0
  7 10  1  0  0  0  0
  7 11  1  0  0  0  0
  8 12  1  0  0  0  0
  8 23  1  0  0  0  0
  8 28  1  0  0  0  0
  9 15  1  0  0  0  0
 10 27  1  0  0  0  0
 11 29  1  0  0  0  0
 12 30  1  0  0  0  0
 13 14  2  0  0  0  0
 13 16  1  0  0  0  0
 14 18  1  0  0  0  0
 15 27  1  0  0  0  0
 16 28  2  0  0  0  0
 17 19  1  0  0  0  0
 17 26  2  0  0  0  0
 18 31  2  0  0  0  0
 19 30  2  0  0  0  0
 20 21  1  0  0  0  0
 20 29  1  0  0  0  0
 21 29  1  0  0  0  0
 22 30  1  0  0  0  0
 22 32  2  0  0  0  0
 24 31  1  0  0  0  0
 25 32  1  0  0  0  0
 26 32  1  0  0  0  0
 28 31  1  0  0  0  0
  5 33  1  0  0  0  0
  6 34  1  0  0  0  0
  9 35  1  0  0  0  0
  9 36  1  0  0  0  0
 10 37  1  0  0  0  0
 10 38  1  0  0  0  0
 11 39  1  0  0  0  0
 11 40  1  0  0  0  0
 12 41  1  0  0  0  0
 12 42  1  0  0  0  0
 13 43  1  0  0  0  0
 14 44  1  0  0  0  0
 15 45  1  0  0  0  0
 15 46  1  0  0  0  0
 16 47  1  0  0  0  0
 17 48  1  0  0  0  0
 18 49  1  0  0  0  0
 19 50  1  0  0  0  0
 20 51  1  0  0  0  0
 20 52  1  0  0  0  0
 21 53  1  0  0  0  0
 21 54  1  0  0  0  0
 22 55  1  0  0  0  0
 27 56  1  0  0  0  0
 29 57  1  0  0  0  0
M  END
> <pdb_id>
5WRY

> <uniprot_id>
P09874

> <usmiles>
Fc1c(cc(cc1)CN2c3c(cccc3)C(=O)NC2=O)C(=O)N[C@H]4CN(CC5CC5)CC4

$$$$
4ZA_A_803
          07202413413D 1   1.00000     0.00000     0
            
 16 17  0  0  0  0            999 V2000
   30.8165   76.2752   61.2628 S   0  0  0  0  0  0  0  0  0  0  0  0
   34.7428   77.2723   65.2060 O   0  0  0  0  0  0  0  0  0  0  0  0
   35.0552   79.3962   64.5811 O   0  0  0  0  0  0  0  0  0  0  0  0
   32.7391   76.9931   63.1963 N   0  0  0  0  0  0  0  0  0  0  0  0
   30.7093   77.5227   60.0408 C   0  0  0  0  0  0  0  0  0  0  0  0
   31.5585   78.5408   60.2551 C   0  0  0  0  0  0  0  0  0  0  0  0
   33.3112   78.9322   62.2314 C   0  0  0  0  0  0  0  0  0  0  0  0
   34.5488   78.2673   64.4725 C   0  0  0  0  0  0  0  0  0  0  0  0
   31.9927   77.1358   62.0761 C   0  0  0  0  0  0  0  0  0  0  0  0
   33.5647   78.0913   63.3150 C   0  0  0  0  0  0  0  0  0  0  0  0
   32.3173   78.3407   61.4396 C   0  0  0  0  0  0  0  0  0  0  0  0
   34.2726   76.4107   65.0147 H   0  0  0  0  0  0  0  0  0  0  0  0
   32.6986   76.2213   63.8309 H   0  0  0  0  0  0  0  0  0  0  0  0
   30.0812   77.4818   59.2637 H   0  0  0  0  0  0  0  0  0  0  0  0
   31.6457   79.3378   59.6574 H   0  0  0  0  0  0  0  0  0  0  0  0
   33.7612   79.8068   62.0504 H   0  0  0  0  0  0  0  0  0  0  0  0
  1  5  1  0  0  0  0
  1  9  1  0  0  0  0
  2  8  1  0  0  0  0
  3  8  2  0  0  0  0
  4  9  1  0  0  0  0
  4 10  1  0  0  0  0
  5  6  2  0  0  0  0
  6 11  1  0  0  0  0
  7 10  2  0  0  0  0
  7 11  1  0  0  0  0
  8 10  1  0  0  0  0
  9 11  2  0  0  0  0
  2 12  1  0  0  0  0
  4 13  1  0  0  0  0
  5 14  1  0  0  0  0
  6 15  1  0  0  0  0
  7 16  1  0  0  0  0
M  END
> <pdb_id>
5CAH

> <uniprot_id>
P9WK17

> <usmiles>
S1C=2NC(C(=O)O)=CC2C=C1

$$$$
4ZL_A_201
          07202407013D 1   1.00000     0.00000     0
            
 33 33  0  0  0  0            999 V2000
    3.6894   17.9727   16.8649 O   0  0  0  0  0  0  0  0  0  0  0  0
    4.9954   20.3145   19.8436 O   0  0  0  0  0  0  0  0  0  0  0  0
    6.3281   21.1260   18.1646 O   0  0  0  0  0  0  0  0  0  0  0  0
    3.0237   20.0069   17.9506 N   0  0  0  0  0  0  0  0  0  0  0  0
    2.0331   18.1272   18.5727 N   0  0  0  0  0  0  0  0  0  0  0  0
    8.7211   21.7510   18.3618 C   0  0  0  0  0  0  0  0  0  0  0  0
    7.4837   21.2576   19.0386 C   0  0  0  0  0  0  0  0  0  0  0  0
    4.1534   20.7637   17.5102 C   0  0  0  0  0  0  0  0  0  0  0  0
    1.7199   16.6547   18.2540 C   0  0  0  0  0  0  0  0  0  0  0  0
   -0.0751   15.5697   22.2436 C   0  0  0  0  0  0  0  0  0  0  0  0
    1.2729   16.0484   22.1795 C   0  0  0  0  0  0  0  0  0  0  0  0
   -0.7330   15.3549   20.9886 C   0  0  0  0  0  0  0  0  0  0  0  0
    1.8741   16.4913   20.9526 C   0  0  0  0  0  0  0  0  0  0  0  0
   -0.0900   15.7438   19.7861 C   0  0  0  0  0  0  0  0  0  0  0  0
    3.0267   18.6218   17.7654 C   0  0  0  0  0  0  0  0  0  0  0  0
    5.1856   20.5613   18.6208 C   0  0  0  0  0  0  0  0  0  0  0  0
    1.1567   16.3413   19.7136 C   0  0  0  0  0  0  0  0  0  0  0  0
    2.2448   20.4606   18.3836 H   0  0  0  0  0  0  0  0  0  0  0  0
    1.5694   18.6588   19.2814 H   0  0  0  0  0  0  0  0  0  0  0  0
    9.4638   21.8126   19.0286 H   0  0  0  0  0  0  0  0  0  0  0  0
    8.9787   21.1157   17.6337 H   0  0  0  0  0  0  0  0  0  0  0  0
    8.5490   22.6548   17.9701 H   0  0  0  0  0  0  0  0  0  0  0  0
    7.6805   20.3600   19.4331 H   0  0  0  0  0  0  0  0  0  0  0  0
    7.2508   21.8992   19.7695 H   0  0  0  0  0  0  0  0  0  0  0  0
    3.9185   21.7310   17.4145 H   0  0  0  0  0  0  0  0  0  0  0  0
    4.4966   20.4161   16.6377 H   0  0  0  0  0  0  0  0  0  0  0  0
    2.5329   16.1204   18.0227 H   0  0  0  0  0  0  0  0  0  0  0  0
    1.0333   16.5449   17.5352 H   0  0  0  0  0  0  0  0  0  0  0  0
   -0.5321   15.3949   23.1158 H   0  0  0  0  0  0  0  0  0  0  0  0
    1.8152   16.0754   23.0193 H   0  0  0  0  0  0  0  0  0  0  0  0
   -1.6394   14.9335   20.9611 H   0  0  0  0  0  0  0  0  0  0  0  0
    2.7860   16.9017   20.9590 H   0  0  0  0  0  0  0  0  0  0  0  0
   -0.5728   15.5740   18.9270 H   0  0  0  0  0  0  0  0  0  0  0  0
  1 15  2  0  0  0  0
  2 16  2  0  0  0  0
  3  7  1  0  0  0  0
  3 16  1  0  0  0  0
  4  8  1  0  0  0  0
  4 15  1  0  0  0  0
  5  9  1  0  0  0  0
  5 15  1  0  0  0  0
  6  7  1  0  0  0  0
  8 16  1  0  0  0  0
  9 17  1  0  0  0  0
 10 11  2  0  0  0  0
 10 12  1  0  0  0  0
 11 13  1  0  0  0  0
 12 14  2  0  0  0  0
 13 17  2  0  0  0  0
 14 17  1  0  0  0  0
  4 18  1  0  0  0  0
  5 19  1  0  0  0  0
  6 20  1  0  0  0  0
  6 21  1  0  0  0  0
  6 22  1  0  0  0  0
  7 23  1  0  0  0  0
  7 24  1  0  0  0  0
  8 25  1  0  0  0  0
  8 26  1  0  0  0  0
  9 27  1  0  0  0  0
  9 28  1  0  0  0  0
 10 29  1  0  0  0  0
 11 30  1  0  0  0  0
 12 31  1  0  0  0  0
 13 32  1  0  0  0  0
 14 33  1  0  0  0  0
M  END
> <pdb_id>
5CBT

> <uniprot_id>
P30405

> <usmiles>
O=C(NCc1ccccc1)NCC(=O)OCC

$$$$
4ZQ_A_1102
          07202409083D 1   1.00000     0.00000     0
            
 59 62  0  0  0  0            999 V2000
  -51.4739   -0.8868  -28.5796 F   0  0  0  0  0  0  0  0  0  0  0  0
  -48.7595   -0.1336  -21.3124 F   0  0  0  0  0  0  0  0  0  0  0  0
  -48.8177   -2.0721  -22.4824 F   0  0  0  0  0  0  0  0  0  0  0  0
  -50.1807   -0.3475  -23.0412 F   0  0  0  0  0  0  0  0  0  0  0  0
  -50.6199   -2.2364  -17.8831 O   0  0  0  0  0  0  0  0  0  0  0  0
  -49.4195   -2.5529  -27.8934 O   0  0  0  0  0  0  0  0  0  0  0  0
  -55.2374   -0.4445  -26.6300 N   0  0  0  0  0  0  0  0  0  0  0  0
  -54.3307    2.2050  -21.0095 N   0  0  0  0  0  0  0  0  0  0  0  0
  -53.9359    0.1872  -24.8227 N   0  0  0  0  0  0  0  0  0  0  0  0
  -54.6862    1.8076  -23.2617 N   0  0  0  0  0  0  0  0  0  0  0  0
  -51.9903    0.7319  -18.6157 N   0  0  0  0  0  0  0  0  0  0  0  0
  -53.0835   -1.4297  -26.2908 N   0  0  0  0  0  0  0  0  0  0  0  0
  -51.3520   -0.5141  -20.2992 N   0  0  0  0  0  0  0  0  0  0  0  0
  -48.5857   -3.7123  -27.7841 C   0  0  0  0  0  0  0  0  0  0  0  0
  -50.0533   -0.2337  -16.6724 C   0  0  0  0  0  0  0  0  0  0  0  0
  -51.5475   -2.6800  -21.5919 C   0  0  0  0  0  0  0  0  0  0  0  0
  -56.2006    0.4132  -26.2947 C   0  0  0  0  0  0  0  0  0  0  0  0
  -53.7347    2.0786  -19.8367 C   0  0  0  0  0  0  0  0  0  0  0  0
  -52.1015   -1.9115  -25.2887 C   0  0  0  0  0  0  0  0  0  0  0  0
  -53.1572   -2.1622  -27.5747 C   0  0  0  0  0  0  0  0  0  0  0  0
  -56.0457    1.1951  -25.1510 C   0  0  0  0  0  0  0  0  0  0  0  0
  -50.6908   -1.9081  -25.9286 C   0  0  0  0  0  0  0  0  0  0  0  0
  -52.9793    0.5332  -22.0148 C   0  0  0  0  0  0  0  0  0  0  0  0
  -54.1257   -0.5884  -25.8915 C   0  0  0  0  0  0  0  0  0  0  0  0
  -51.7748   -2.2006  -28.2315 C   0  0  2  0  0  0  0  0  0  0  0  0
  -50.1717   -0.8941  -18.0504 C   0  0  2  0  0  0  0  0  0  0  0  0
  -54.0032    1.4857  -22.0836 C   0  0  0  0  0  0  0  0  0  0  0  0
  -54.8660    1.0429  -24.4045 C   0  0  0  0  0  0  0  0  0  0  0  0
  -51.1696   -0.2121  -18.9708 C   0  0  0  0  0  0  0  0  0  0  0  0
  -50.6889   -2.7061  -27.2554 C   0  0  1  0  0  0  0  0  0  0  0  0
  -52.7418    1.1134  -19.6688 C   0  0  0  0  0  0  0  0  0  0  0  0
  -50.6341   -1.5721  -21.0351 C   0  0  1  0  0  0  0  0  0  0  0  0
  -52.3458    0.3206  -20.7799 C   0  0  0  0  0  0  0  0  0  0  0  0
  -49.5827   -1.0252  -21.9885 C   0  0  0  0  0  0  0  0  0  0  0  0
  -50.6999   -2.6751  -18.7782 H   0  0  0  0  0  0  0  0  0  0  0  0
  -55.1030    2.7164  -23.2825 H   0  0  0  0  0  0  0  0  0  0  0  0
  -47.7163   -3.5425  -28.2482 H   0  0  0  0  0  0  0  0  0  0  0  0
  -48.4151   -3.9105  -26.8189 H   0  0  0  0  0  0  0  0  0  0  0  0
  -49.0434   -4.4933  -28.2090 H   0  0  0  0  0  0  0  0  0  0  0  0
  -49.7391    0.7095  -16.7807 H   0  0  0  0  0  0  0  0  0  0  0  0
  -50.9466   -0.2378  -16.2229 H   0  0  0  0  0  0  0  0  0  0  0  0
  -49.3970   -0.7417  -16.1146 H   0  0  0  0  0  0  0  0  0  0  0  0
  -50.9930   -3.3574  -22.0753 H   0  0  0  0  0  0  0  0  0  0  0  0
  -52.0322   -3.1228  -20.8376 H   0  0  0  0  0  0  0  0  0  0  0  0
  -52.2102   -2.2791  -22.2244 H   0  0  0  0  0  0  0  0  0  0  0  0
  -57.0239    0.4950  -26.8563 H   0  0  0  0  0  0  0  0  0  0  0  0
  -53.9940    2.6713  -19.0742 H   0  0  0  0  0  0  0  0  0  0  0  0
  -52.3394   -2.8404  -25.0050 H   0  0  0  0  0  0  0  0  0  0  0  0
  -52.1105   -1.3071  -24.4921 H   0  0  0  0  0  0  0  0  0  0  0  0
  -53.8013   -1.6997  -28.1841 H   0  0  0  0  0  0  0  0  0  0  0  0
  -53.4705   -3.0967  -27.4059 H   0  0  0  0  0  0  0  0  0  0  0  0
  -56.7527    1.8444  -24.8708 H   0  0  0  0  0  0  0  0  0  0  0  0
  -50.0414   -2.3260  -25.2933 H   0  0  0  0  0  0  0  0  0  0  0  0
  -50.4164   -0.9643  -26.1129 H   0  0  0  0  0  0  0  0  0  0  0  0
  -52.7057    0.0165  -22.8261 H   0  0  0  0  0  0  0  0  0  0  0  0
  -51.7979   -2.7765  -29.0487 H   0  0  0  0  0  0  0  0  0  0  0  0
  -49.2730   -0.9009  -18.4888 H   0  0  0  0  0  0  0  0  0  0  0  0
  -50.8456   -3.6740  -27.0591 H   0  0  0  0  0  0  0  0  0  0  0  0
  -50.0992   -2.0350  -20.3283 H   0  0  0  0  0  0  0  0  0  0  0  0
  1 25  1  0  0  0  0
  2 34  1  0  0  0  0
  3 34  1  0  0  0  0
  4 34  1  0  0  0  0
  5 26  1  0  0  0  0
  6 14  1  0  0  0  0
  6 30  1  0  0  0  0
  7 17  2  0  0  0  0
  7 24  1  0  0  0  0
  8 18  1  0  0  0  0
  8 27  2  0  0  0  0
  9 24  2  0  0  0  0
  9 28  1  0  0  0  0
 10 27  1  0  0  0  0
 10 28  1  0  0  0  0
 11 29  2  0  0  0  0
 11 31  1  0  0  0  0
 12 19  1  0  0  0  0
 12 20  1  0  0  0  0
 12 24  1  0  0  0  0
 13 29  1  0  0  0  0
 13 32  1  0  0  0  0
 13 33  1  0  0  0  0
 15 26  1  0  0  0  0
 16 32  1  0  0  0  0
 17 21  1  0  0  0  0
 18 31  2  0  0  0  0
 19 22  1  0  0  0  0
 20 25  1  0  0  0  0
 21 28  2  0  0  0  0
 22 30  1  0  0  0  0
 23 27  1  0  0  0  0
 23 33  2  0  0  0  0
 25 30  1  0  0  0  0
 26 29  1  0  0  0  0
 31 33  1  0  0  0  0
 32 34  1  0  0  0  0
  5 35  1  0  0  0  0
 10 36  1  0  0  0  0
 14 37  1  0  0  0  0
 14 38  1  0  0  0  0
 14 39  1  0  0  0  0
 15 40  1  0  0  0  0
 15 41  1  0  0  0  0
 15 42  1  0  0  0  0
 16 43  1  0  0  0  0
 16 44  1  0  0  0  0
 16 45  1  0  0  0  0
 17 46  1  0  0  0  0
 18 47  1  0  0  0  0
 19 48  1  0  0  0  0
 19 49  1  0  0  0  0
 20 50  1  0  0  0  0
 20 51  1  0  0  0  0
 21 52  1  0  0  0  0
 22 53  1  0  0  0  0
 22 54  1  0  0  0  0
 23 55  1  0  0  0  0
 25 56  1  0  0  0  0
 26 57  1  0  0  0  0
 30 58  1  0  0  0  0
 32 59  1  0  0  0  0
M  END
> <pdb_id>
5CAS

> <uniprot_id>
P00533

> <usmiles>
FC(F)(F)[C@@H](N1c2c(N=C1[C@H](O)C)cnc(Nc3nc(ncc3)N4C[C@@H](F)[C@@H](OC)CC4)c2)C

$$$$
4ZR_A_1102
          07202409083D 1   1.00000     0.00000     0
            
 59 62  0  0  0  0            999 V2000
  -50.3550   -0.5590  -26.4610 F   0  0  0  0  0  0  0  0  0  0  0  0
  -50.1770   -0.3040  -23.0390 F   0  0  0  0  0  0  0  0  0  0  0  0
  -48.8080   -0.1400  -21.2550 F   0  0  0  0  0  0  0  0  0  0  0  0
  -48.8150   -2.0260  -22.5250 F   0  0  0  0  0  0  0  0  0  0  0  0
  -50.5880   -2.2060  -17.8730 O   0  0  0  0  0  0  0  0  0  0  0  0
  -49.4770   -2.6730  -28.0180 O   0  0  0  0  0  0  0  0  0  0  0  0
  -55.2910   -0.4890  -26.6260 N   0  0  0  0  0  0  0  0  0  0  0  0
  -54.2970    2.2230  -21.0590 N   0  0  0  0  0  0  0  0  0  0  0  0
  -53.9610    0.1750  -24.8650 N   0  0  0  0  0  0  0  0  0  0  0  0
  -54.6860    1.7850  -23.2900 N   0  0  0  0  0  0  0  0  0  0  0  0
  -51.9920    0.7190  -18.6640 N   0  0  0  0  0  0  0  0  0  0  0  0
  -53.0950   -1.4080  -26.3760 N   0  0  0  0  0  0  0  0  0  0  0  0
  -51.3960   -0.5730  -20.3300 N   0  0  0  0  0  0  0  0  0  0  0  0
  -48.5890   -3.7410  -27.6710 C   0  0  0  0  0  0  0  0  0  0  0  0
  -50.1140   -0.1730  -16.7040 C   0  0  0  0  0  0  0  0  0  0  0  0
  -51.5250   -2.7360  -21.6940 C   0  0  0  0  0  0  0  0  0  0  0  0
  -56.2620    0.3410  -26.2460 C   0  0  0  0  0  0  0  0  0  0  0  0
  -53.7210    2.0750  -19.8810 C   0  0  0  0  0  0  0  0  0  0  0  0
  -53.1940   -2.1540  -27.6530 C   0  0  0  0  0  0  0  0  0  0  0  0
  -52.0740   -1.8560  -25.3980 C   0  0  0  0  0  0  0  0  0  0  0  0
  -56.1110    1.1230  -25.1090 C   0  0  0  0  0  0  0  0  0  0  0  0
  -51.8190   -2.2230  -28.3440 C   0  0  0  0  0  0  0  0  0  0  0  0
  -53.0030    0.4930  -22.0470 C   0  0  0  0  0  0  0  0  0  0  0  0
  -54.1490   -0.5950  -25.9380 C   0  0  0  0  0  0  0  0  0  0  0  0
  -50.6940   -1.8630  -26.0800 C   0  0  1  0  0  0  0  0  0  0  0  0
  -50.1770   -0.8640  -18.0690 C   0  0  2  0  0  0  0  0  0  0  0  0
  -53.9950    1.4740  -22.1210 C   0  0  0  0  0  0  0  0  0  0  0  0
  -54.8980    1.0050  -24.4110 C   0  0  0  0  0  0  0  0  0  0  0  0
  -51.1770   -0.2280  -19.0130 C   0  0  0  0  0  0  0  0  0  0  0  0
  -50.7440   -2.7320  -27.3600 C   0  0  2  0  0  0  0  0  0  0  0  0
  -52.7440    1.0990  -19.7160 C   0  0  0  0  0  0  0  0  0  0  0  0
  -50.6690   -1.6110  -21.0870 C   0  0  1  0  0  0  0  0  0  0  0  0
  -52.3640    0.2850  -20.8170 C   0  0  0  0  0  0  0  0  0  0  0  0
  -49.6030   -1.0120  -21.9970 C   0  0  0  0  0  0  0  0  0  0  0  0
  -50.6345   -2.6727  -18.7562 H   0  0  0  0  0  0  0  0  0  0  0  0
  -55.0847    2.7015  -23.3226 H   0  0  0  0  0  0  0  0  0  0  0  0
  -47.7278   -3.6331  -28.1676 H   0  0  0  0  0  0  0  0  0  0  0  0
  -48.4113   -3.7204  -26.6871 H   0  0  0  0  0  0  0  0  0  0  0  0
  -49.0077   -4.6155  -27.9158 H   0  0  0  0  0  0  0  0  0  0  0  0
  -49.8250    0.7768  -16.8242 H   0  0  0  0  0  0  0  0  0  0  0  0
  -51.0181   -0.1949  -16.2773 H   0  0  0  0  0  0  0  0  0  0  0  0
  -49.4577   -0.6496  -16.1191 H   0  0  0  0  0  0  0  0  0  0  0  0
  -50.9338   -3.3788  -22.1811 H   0  0  0  0  0  0  0  0  0  0  0  0
  -52.0100   -3.2169  -20.9636 H   0  0  0  0  0  0  0  0  0  0  0  0
  -52.1876   -2.3435  -22.3319 H   0  0  0  0  0  0  0  0  0  0  0  0
  -57.1037    0.4008  -26.7827 H   0  0  0  0  0  0  0  0  0  0  0  0
  -53.9847    2.6595  -19.1136 H   0  0  0  0  0  0  0  0  0  0  0  0
  -53.8427   -1.6898  -28.2561 H   0  0  0  0  0  0  0  0  0  0  0  0
  -53.5165   -3.0823  -27.4679 H   0  0  0  0  0  0  0  0  0  0  0  0
  -52.2957   -2.7781  -25.0808 H   0  0  0  0  0  0  0  0  0  0  0  0
  -52.0593   -1.2299  -24.6184 H   0  0  0  0  0  0  0  0  0  0  0  0
  -56.8332    1.7423  -24.8009 H   0  0  0  0  0  0  0  0  0  0  0  0
  -51.5658   -1.3103  -28.6647 H   0  0  0  0  0  0  0  0  0  0  0  0
  -51.8734   -2.8470  -29.1235 H   0  0  0  0  0  0  0  0  0  0  0  0
  -52.7551   -0.0471  -22.8513 H   0  0  0  0  0  0  0  0  0  0  0  0
  -50.0054   -2.2235  -25.4508 H   0  0  0  0  0  0  0  0  0  0  0  0
  -49.2697   -0.8525  -18.4893 H   0  0  0  0  0  0  0  0  0  0  0  0
  -50.9445   -3.6793  -27.1103 H   0  0  0  0  0  0  0  0  0  0  0  0
  -50.1356   -2.0800  -20.3831 H   0  0  0  0  0  0  0  0  0  0  0  0
  1 25  1  0  0  0  0
  2 34  1  0  0  0  0
  3 34  1  0  0  0  0
  4 34  1  0  0  0  0
  5 26  1  0  0  0  0
  6 14  1  0  0  0  0
  6 30  1  0  0  0  0
  7 17  2  0  0  0  0
  7 24  1  0  0  0  0
  8 18  1  0  0  0  0
  8 27  2  0  0  0  0
  9 24  2  0  0  0  0
  9 28  1  0  0  0  0
 10 27  1  0  0  0  0
 10 28  1  0  0  0  0
 11 29  2  0  0  0  0
 11 31  1  0  0  0  0
 12 19  1  0  0  0  0
 12 20  1  0  0  0  0
 12 24  1  0  0  0  0
 13 29  1  0  0  0  0
 13 32  1  0  0  0  0
 13 33  1  0  0  0  0
 15 26  1  0  0  0  0
 16 32  1  0  0  0  0
 17 21  1  0  0  0  0
 18 31  2  0  0  0  0
 19 22  1  0  0  0  0
 20 25  1  0  0  0  0
 21 28  2  0  0  0  0
 22 30  1  0  0  0  0
 23 27  1  0  0  0  0
 23 33  2  0  0  0  0
 25 30  1  0  0  0  0
 26 29  1  0  0  0  0
 31 33  1  0  0  0  0
 32 34  1  0  0  0  0
  5 35  1  0  0  0  0
 10 36  1  0  0  0  0
 14 37  1  0  0  0  0
 14 38  1  0  0  0  0
 14 39  1  0  0  0  0
 15 40  1  0  0  0  0
 15 41  1  0  0  0  0
 15 42  1  0  0  0  0
 16 43  1  0  0  0  0
 16 44  1  0  0  0  0
 16 45  1  0  0  0  0
 17 46  1  0  0  0  0
 18 47  1  0  0  0  0
 19 48  1  0  0  0  0
 19 49  1  0  0  0  0
 20 50  1  0  0  0  0
 20 51  1  0  0  0  0
 21 52  1  0  0  0  0
 22 53  1  0  0  0  0
 22 54  1  0  0  0  0
 23 55  1  0  0  0  0
 25 56  1  0  0  0  0
 26 57  1  0  0  0  0
 30 58  1  0  0  0  0
 32 59  1  0  0  0  0
M  END
> <pdb_id>
5CAU

> <uniprot_id>
P00533

> <usmiles>
FC(F)(F)[C@@H](N1c2c(N=C1[C@H](O)C)cnc(Nc3nc(ncc3)N4C[C@H](F)[C@H](OC)CC4)c2)C

$$$$
4ZW_A_505
          07202411513D 1   1.00000     0.00000     0
            
 36 38  0  0  0  0            999 V2000
   12.7774    9.5183   16.5199 O   0  0  0  0  0  0  0  0  0  0  0  0
   17.7888    4.2604   14.2845 O   0  0  0  0  0  0  0  0  0  0  0  0
   21.3145    0.4016   15.4548 N   0  0  0  0  0  0  0  0  0  0  0  0
   18.6376    3.5888   16.2235 N   0  0  0  0  0  0  0  0  0  0  0  0
   13.6736    7.6130   17.4936 N   0  0  0  0  0  0  0  0  0  0  0  0
   20.1950    0.5768   14.5200 C   0  0  0  0  0  0  0  0  0  0  0  0
   21.9119    1.6568   15.8745 C   0  0  0  0  0  0  0  0  0  0  0  0
   19.1059    1.4545   15.0973 C   0  0  0  0  0  0  0  0  0  0  0  0
   20.8520    2.5406   16.5213 C   0  0  0  0  0  0  0  0  0  0  0  0
   14.9752    5.5139   17.8675 C   0  0  0  0  0  0  0  0  0  0  0  0
   16.0007    4.7430   17.3177 C   0  0  0  0  0  0  0  0  0  0  0  0
   14.6987    8.3685   15.5530 C   0  0  0  0  0  0  0  0  0  0  0  0
   16.3382    6.3245   15.5092 C   0  0  0  0  0  0  0  0  0  0  0  0
   13.6068    8.6333   16.5575 C   0  0  0  0  0  0  0  0  0  0  0  0
   17.7629    4.3420   15.5226 C   0  0  0  0  0  0  0  0  0  0  0  0
   19.6838    2.7666   15.5719 C   0  0  0  0  0  0  0  0  0  0  0  0
   14.6646    6.6882   17.1726 C   0  0  0  0  0  0  0  0  0  0  0  0
   16.7131    5.1572   16.1830 C   0  0  0  0  0  0  0  0  0  0  0  0
   15.3384    7.1167   16.0395 C   0  0  0  0  0  0  0  0  0  0  0  0
   22.0179   -0.1513   15.0081 H   0  0  0  0  0  0  0  0  0  0  0  0
   18.5767    3.5859   17.2217 H   0  0  0  0  0  0  0  0  0  0  0  0
   13.0840    7.5489   18.2988 H   0  0  0  0  0  0  0  0  0  0  0  0
   19.8080   -0.3206   14.3081 H   0  0  0  0  0  0  0  0  0  0  0  0
   20.5383    0.9983   13.6807 H   0  0  0  0  0  0  0  0  0  0  0  0
   22.2944    2.1254   15.0782 H   0  0  0  0  0  0  0  0  0  0  0  0
   22.6400    1.4737   16.5351 H   0  0  0  0  0  0  0  0  0  0  0  0
   18.6784    0.9842   15.8694 H   0  0  0  0  0  0  0  0  0  0  0  0
   18.4184    1.6326   14.3933 H   0  0  0  0  0  0  0  0  0  0  0  0
   21.2595    3.4232   16.7556 H   0  0  0  0  0  0  0  0  0  0  0  0
   20.5176    2.0966   17.3526 H   0  0  0  0  0  0  0  0  0  0  0  0
   14.4946    5.2449   18.7022 H   0  0  0  0  0  0  0  0  0  0  0  0
   16.2342    3.8698   17.7453 H   0  0  0  0  0  0  0  0  0  0  0  0
   15.3570    9.1211   15.5368 H   0  0  0  0  0  0  0  0  0  0  0  0
   14.3166    8.2401   14.6379 H   0  0  0  0  0  0  0  0  0  0  0  0
   16.7884    6.5822   14.6543 H   0  0  0  0  0  0  0  0  0  0  0  0
   20.0217    3.2659   14.7741 H   0  0  0  0  0  0  0  0  0  0  0  0
  1 14  2  0  0  0  0
  2 15  2  0  0  0  0
  3  6  1  0  0  0  0
  3  7  1  0  0  0  0
  4 15  1  0  0  0  0
  4 16  1  0  0  0  0
  5 14  1  0  0  0  0
  5 17  1  0  0  0  0
  6  8  1  0  0  0  0
  7  9  1  0  0  0  0
  8 16  1  0  0  0  0
  9 16  1  0  0  0  0
 10 11  1  0  0  0  0
 10 17  2  0  0  0  0
 11 18  2  0  0  0  0
 12 14  1  0  0  0  0
 12 19  1  0  0  0  0
 13 18  1  0  0  0  0
 13 19  2  0  0  0  0
 15 18  1  0  0  0  0
 17 19  1  0  0  0  0
  3 20  1  0  0  0  0
  4 21  1  0  0  0  0
  5 22  1  0  0  0  0
  6 23  1  0  0  0  0
  6 24  1  0  0  0  0
  7 25  1  0  0  0  0
  7 26  1  0  0  0  0
  8 27  1  0  0  0  0
  8 28  1  0  0  0  0
  9 29  1  0  0  0  0
  9 30  1  0  0  0  0
 10 31  1  0  0  0  0
 11 32  1  0  0  0  0
 12 33  1  0  0  0  0
 12 34  1  0  0  0  0
 13 35  1  0  0  0  0
 16 36  1  0  0  0  0
M  END
> <pdb_id>
5CCL

> <uniprot_id>
Q9H7B4

> <usmiles>
O=C(NC1CCNCC1)c2cc3c(NC(=O)C3)cc2

$$$$
50H_A_701
          07192419173D 1   1.00000     0.00000     0
            
 48 51  0  0  0  0            999 V2000
    2.1493    5.9556    9.6219 O   0  0  0  0  0  0  0  0  0  0  0  0
   -4.0570   -2.4781   15.0847 O   0  0  0  0  0  0  0  0  0  0  0  0
   -3.0442   -0.4383   13.7105 O   0  0  0  0  0  0  0  0  0  0  0  0
    4.1928    5.0632   10.2065 N   0  0  0  0  0  0  0  0  0  0  0  0
    4.1979   -1.0357   16.1348 N   0  0  0  0  0  0  0  0  0  0  0  0
    1.4515   -1.5159   15.4271 N   0  0  0  0  0  0  0  0  0  0  0  0
    1.8224    0.1696   13.7679 N   0  0  0  0  0  0  0  0  0  0  0  0
    4.4065    0.4855   14.5358 N   0  0  0  0  0  0  0  0  0  0  0  0
   -4.6240   -3.0241   16.2770 C   0  0  0  0  0  0  0  0  0  0  0  0
   -2.3612    0.4510   12.8286 C   0  0  0  0  0  0  0  0  0  0  0  0
    5.4753   -0.5225   16.1207 C   0  0  0  0  0  0  0  0  0  0  0  0
    5.6277    0.4290   15.1371 C   0  0  0  0  0  0  0  0  0  0  0  0
    3.9416    1.2724   13.5242 C   0  0  0  0  0  0  0  0  0  0  0  0
    0.2693    2.4081   10.5907 C   0  0  0  0  0  0  0  0  0  0  0  0
   -1.8504   -3.0418   15.9808 C   0  0  0  0  0  0  0  0  0  0  0  0
    0.9185    3.5270   10.1191 C   0  0  0  0  0  0  0  0  0  0  0  0
    0.8671    1.6349   11.5695 C   0  0  0  0  0  0  0  0  0  0  0  0
   -0.4954   -2.7664   16.0324 C   0  0  0  0  0  0  0  0  0  0  0  0
   -0.7862   -0.9366   14.5332 C   0  0  0  0  0  0  0  0  0  0  0  0
    2.7543    3.0793   11.6261 C   0  0  0  0  0  0  0  0  0  0  0  0
    2.8219    5.0552   10.1065 C   0  0  0  0  0  0  0  0  0  0  0  0
    2.2288   -0.5728   14.7639 C   0  0  0  0  0  0  0  0  0  0  0  0
   -2.6785   -2.2481   15.2040 C   0  0  0  0  0  0  0  0  0  0  0  0
   -2.1474   -1.1990   14.4716 C   0  0  0  0  0  0  0  0  0  0  0  0
    3.5847   -0.4018   15.1605 C   0  0  0  0  0  0  0  0  0  0  0  0
    0.0568   -1.7191   15.3101 C   0  0  0  0  0  0  0  0  0  0  0  0
    2.6638    1.0940   13.1605 C   0  0  0  0  0  0  0  0  0  0  0  0
    2.1586    3.8476   10.6332 C   0  0  0  0  0  0  0  0  0  0  0  0
    2.1002    1.9523   12.1025 C   0  0  0  0  0  0  0  0  0  0  0  0
    4.6687    4.2855   10.6171 H   0  0  0  0  0  0  0  0  0  0  0  0
    4.7141    5.8468    9.8687 H   0  0  0  0  0  0  0  0  0  0  0  0
    1.9348   -2.1207   16.0602 H   0  0  0  0  0  0  0  0  0  0  0  0
   -5.6042   -3.1700   16.1435 H   0  0  0  0  0  0  0  0  0  0  0  0
   -4.1827   -3.8967   16.4867 H   0  0  0  0  0  0  0  0  0  0  0  0
   -4.4819   -2.3880   17.0354 H   0  0  0  0  0  0  0  0  0  0  0  0
   -3.0293    0.9769   12.3023 H   0  0  0  0  0  0  0  0  0  0  0  0
   -1.7904    1.0757   13.3615 H   0  0  0  0  0  0  0  0  0  0  0  0
   -1.7850   -0.0762   12.2040 H   0  0  0  0  0  0  0  0  0  0  0  0
    6.2019   -0.8054   16.7468 H   0  0  0  0  0  0  0  0  0  0  0  0
    6.4471    0.9575   14.9151 H   0  0  0  0  0  0  0  0  0  0  0  0
    4.5252    1.9494   13.0756 H   0  0  0  0  0  0  0  0  0  0  0  0
   -0.6279    2.1562   10.2280 H   0  0  0  0  0  0  0  0  0  0  0  0
   -2.2290   -3.8078   16.5002 H   0  0  0  0  0  0  0  0  0  0  0  0
    0.4978    4.0988    9.4148 H   0  0  0  0  0  0  0  0  0  0  0  0
    0.3910    0.8206   11.9014 H   0  0  0  0  0  0  0  0  0  0  0  0
    0.0982   -3.3344   16.6025 H   0  0  0  0  0  0  0  0  0  0  0  0
   -0.4073   -0.1730   14.0104 H   0  0  0  0  0  0  0  0  0  0  0  0
    3.6476    3.3367   11.9944 H   0  0  0  0  0  0  0  0  0  0  0  0
  1 21  2  0  0  0  0
  2  9  1  0  0  0  0
  2 23  1  0  0  0  0
  3 10  1  0  0  0  0
  3 24  1  0  0  0  0
  4 21  1  0  0  0  0
  5 11  1  0  0  0  0
  5 25  2  0  0  0  0
  6 22  1  0  0  0  0
  6 26  1  0  0  0  0
  7 22  2  0  0  0  0
  7 27  1  0  0  0  0
  8 12  1  0  0  0  0
  8 13  1  0  0  0  0
  8 25  1  0  0  0  0
 11 12  2  0  0  0  0
 13 27  2  0  0  0  0
 14 16  1  0  0  0  0
 14 17  2  0  0  0  0
 15 18  1  0  0  0  0
 15 23  2  0  0  0  0
 16 28  2  0  0  0  0
 17 29  1  0  0  0  0
 18 26  2  0  0  0  0
 19 24  2  0  0  0  0
 19 26  1  0  0  0  0
 20 28  1  0  0  0  0
 20 29  2  0  0  0  0
 21 28  1  0  0  0  0
 22 25  1  0  0  0  0
 23 24  1  0  0  0  0
 27 29  1  0  0  0  0
  4 30  1  0  0  0  0
  4 31  1  0  0  0  0
  6 32  1  0  0  0  0
  9 33  1  0  0  0  0
  9 34  1  0  0  0  0
  9 35  1  0  0  0  0
 10 36  1  0  0  0  0
 10 37  1  0  0  0  0
 10 38  1  0  0  0  0
 11 39  1  0  0  0  0
 12 40  1  0  0  0  0
 13 41  1  0  0  0  0
 14 42  1  0  0  0  0
 15 43  1  0  0  0  0
 16 44  1  0  0  0  0
 17 45  1  0  0  0  0
 18 46  1  0  0  0  0
 19 47  1  0  0  0  0
 20 48  1  0  0  0  0
M  END
> <pdb_id>
5C26

> <uniprot_id>
P43405

> <usmiles>
O=C(N)c1cc(ccc1)C=2N=C(Nc3cc(OC)c(OC)cc3)C4=NC=CN4C2

$$$$
50Q_A_1225
          07192420423D 1   1.00000     0.00000     0
            
 25 26  0  0  0  0            999 V2000
   74.5265   30.8933   24.8565 Cl  0  0  0  0  0  0  0  0  0  0  0  0
   72.1920   29.5226   23.6836 Cl  0  0  0  0  0  0  0  0  0  0  0  0
   64.7163   34.0138   24.3363 O   0  0  0  0  0  0  0  0  0  0  0  0
   66.9113   32.0181   28.1136 O   0  0  0  0  0  0  0  0  0  0  0  0
   69.4518   33.8675   24.5764 O   0  0  0  0  0  0  0  0  0  0  0  0
   72.9452   33.1274   25.3023 C   0  0  0  0  0  0  0  0  0  0  0  0
   71.7253   33.7678   25.2007 C   0  0  0  0  0  0  0  0  0  0  0  0
   65.7703   32.9968   26.2539 C   0  0  0  0  0  0  0  0  0  0  0  0
   67.0817   33.8862   24.4566 C   0  0  0  0  0  0  0  0  0  0  0  0
   68.1878   32.8938   26.3690 C   0  0  0  0  0  0  0  0  0  0  0  0
   70.6728   31.8264   24.1629 C   0  0  0  0  0  0  0  0  0  0  0  0
   65.8398   33.6166   25.0063 C   0  0  0  0  0  0  0  0  0  0  0  0
   66.9548   32.6243   26.9146 C   0  0  0  0  0  0  0  0  0  0  0  0
   72.9976   31.8196   24.8218 C   0  0  0  0  0  0  0  0  0  0  0  0
   71.9029   31.1920   24.2682 C   0  0  0  0  0  0  0  0  0  0  0  0
   70.6116   33.1433   24.6485 C   0  0  0  0  0  0  0  0  0  0  0  0
   68.2428   33.5368   25.1397 C   0  0  0  0  0  0  0  0  0  0  0  0
   64.7969   34.4560   23.4430 H   0  0  0  0  0  0  0  0  0  0  0  0
   67.7603   31.7580   28.5734 H   0  0  0  0  0  0  0  0  0  0  0  0
   73.7460   33.5768   25.6983 H   0  0  0  0  0  0  0  0  0  0  0  0
   71.6404   34.7069   25.5337 H   0  0  0  0  0  0  0  0  0  0  0  0
   64.8819   32.8180   26.6769 H   0  0  0  0  0  0  0  0  0  0  0  0
   67.1446   34.3339   23.5646 H   0  0  0  0  0  0  0  0  0  0  0  0
   69.0263   32.6325   26.8471 H   0  0  0  0  0  0  0  0  0  0  0  0
   69.8760   31.3723   23.7643 H   0  0  0  0  0  0  0  0  0  0  0  0
  1 14  1  0  0  0  0
  2 15  1  0  0  0  0
  3 12  1  0  0  0  0
  4 13  1  0  0  0  0
  5 16  1  0  0  0  0
  5 17  1  0  0  0  0
  6  7  2  0  0  0  0
  6 14  1  0  0  0  0
  7 16  1  0  0  0  0
  8 12  2  0  0  0  0
  8 13  1  0  0  0  0
  9 12  1  0  0  0  0
  9 17  2  0  0  0  0
 10 13  2  0  0  0  0
 10 17  1  0  0  0  0
 11 15  1  0  0  0  0
 11 16  2  0  0  0  0
 14 15  2  0  0  0  0
  3 18  1  0  0  0  0
  4 19  1  0  0  0  0
  6 20  1  0  0  0  0
  7 21  1  0  0  0  0
  8 22  1  0  0  0  0
  9 23  1  0  0  0  0
 10 24  1  0  0  0  0
 11 25  1  0  0  0  0
M  END
> <pdb_id>
4BQG

> <uniprot_id>
Q2VPJ6

> <usmiles>
Clc1c(Cl)ccc(Oc2cc(O)cc(O)c2)c1

$$$$
512_A_800
          07202400393D 1   1.00000     0.00000     0
            
 19 19  0  0  0  0            999 V2000
   46.8549   12.3200    3.6565 Br  0  0  0  0  0  0  0  0  0  0  0  0
   44.5523   14.3773    0.5795 S   0  0  0  0  0  0  0  0  0  0  0  0
   48.8536   17.7357    5.0244 O   0  0  0  0  0  0  0  0  0  0  0  0
   46.9732   17.1388    6.0387 O   0  0  0  0  0  0  0  0  0  0  0  0
   43.7874   17.1413    0.6340 O   0  0  0  0  0  0  0  0  0  0  0  0
   44.7030   17.6441    2.6098 O   0  0  0  0  0  0  0  0  0  0  0  0
   46.1684   15.4444    4.0548 O   0  0  0  0  0  0  0  0  0  0  0  0
   45.3343   13.0587    1.3102 C   0  0  0  0  0  0  0  0  0  0  0  0
   47.3975   16.1811    3.8790 C   0  0  0  0  0  0  0  0  0  0  0  0
   47.6965   17.0597    5.0957 C   0  0  0  0  0  0  0  0  0  0  0  0
   45.8919   13.4839    2.5365 C   0  0  0  0  0  0  0  0  0  0  0  0
   44.4789   16.8289    1.7467 C   0  0  0  0  0  0  0  0  0  0  0  0
   44.9065   15.4986    1.8138 C   0  0  0  0  0  0  0  0  0  0  0  0
   45.6599   14.8559    2.8347 C   0  0  0  0  0  0  0  0  0  0  0  0
   49.4365   17.6454    4.2169 H   0  0  0  0  0  0  0  0  0  0  0  0
   43.6185   16.4435   -0.0622 H   0  0  0  0  0  0  0  0  0  0  0  0
   45.3907   12.1337    0.9343 H   0  0  0  0  0  0  0  0  0  0  0  0
   47.3162   16.7623    3.0693 H   0  0  0  0  0  0  0  0  0  0  0  0
   48.1496   15.5346    3.7511 H   0  0  0  0  0  0  0  0  0  0  0  0
  1 11  1  0  0  0  0
  2  8  1  0  0  0  0
  2 13  1  0  0  0  0
  3 10  1  0  0  0  0
  4 10  2  0  0  0  0
  5 12  1  0  0  0  0
  6 12  2  0  0  0  0
  7  9  1  0  0  0  0
  7 14  1  0  0  0  0
  8 11  2  0  0  0  0
  9 10  1  0  0  0  0
 11 14  1  0  0  0  0
 12 13  1  0  0  0  0
 13 14  2  0  0  0  0
  3 15  1  0  0  0  0
  5 16  1  0  0  0  0
  8 17  1  0  0  0  0
  9 18  1  0  0  0  0
  9 19  1  0  0  0  0
M  END
> <pdb_id>
2HB1

> <uniprot_id>
P18031

> <usmiles>
BrC=1C(OCC(=O)O)=C(SC1)C(=O)O

$$$$
513_A_1252
          07192419343D 1   1.00000     0.00000     0
            
 20 21  0  0  0  0            999 V2000
   49.0816   23.7564   52.5717 Br  0  0  0  0  0  0  0  0  0  0  0  0
   45.2409   19.9808   49.2727 S   0  0  0  0  0  0  0  0  0  0  0  0
   46.2972   17.2538   52.7867 N   0  0  0  0  0  0  0  0  0  0  0  0
   45.4478   18.8921   50.5550 C   0  0  0  0  0  0  0  0  0  0  0  0
   46.6032   18.6670   52.8455 C   0  0  0  0  0  0  0  0  0  0  0  0
   47.4071   23.1844   50.4251 C   0  0  0  0  0  0  0  0  0  0  0  0
   46.5655   22.4557   49.6083 C   0  0  0  0  0  0  0  0  0  0  0  0
   47.5052   21.3908   52.1226 C   0  0  0  0  0  0  0  0  0  0  0  0
   47.8882   22.6688   51.6138 C   0  0  0  0  0  0  0  0  0  0  0  0
   46.2105   21.1719   50.0648 C   0  0  0  0  0  0  0  0  0  0  0  0
   46.2059   19.3734   51.5999 C   0  0  0  0  0  0  0  0  0  0  0  0
   46.6476   20.6643   51.2752 C   0  0  0  0  0  0  0  0  0  0  0  0
   46.5788   16.8159   53.6405 H   0  0  0  0  0  0  0  0  0  0  0  0
   45.3132   17.1309   52.6577 H   0  0  0  0  0  0  0  0  0  0  0  0
   45.0515   17.9739   50.5533 H   0  0  0  0  0  0  0  0  0  0  0  0
   47.5877   18.7790   52.9805 H   0  0  0  0  0  0  0  0  0  0  0  0
   46.1127   19.0719   53.6171 H   0  0  0  0  0  0  0  0  0  0  0  0
   47.6751   24.1077   50.1499 H   0  0  0  0  0  0  0  0  0  0  0  0
   46.2269   22.8196   48.7405 H   0  0  0  0  0  0  0  0  0  0  0  0
   47.8193   21.0418   53.0055 H   0  0  0  0  0  0  0  0  0  0  0  0
  1  9  1  0  0  0  0
  2  4  1  0  0  0  0
  2 10  1  0  0  0  0
  3  5  1  0  0  0  0
  4 11  2  0  0  0  0
  5 11  1  0  0  0  0
  6  7  1  0  0  0  0
  6  9  2  0  0  0  0
  7 10  2  0  0  0  0
  8  9  1  0  0  0  0
  8 12  2  0  0  0  0
 10 12  1  0  0  0  0
 11 12  1  0  0  0  0
  3 13  1  0  0  0  0
  3 14  1  0  0  0  0
  4 15  1  0  0  0  0
  5 16  1  0  0  0  0
  5 17  1  0  0  0  0
  6 18  1  0  0  0  0
  7 19  1  0  0  0  0
  8 20  1  0  0  0  0
M  END
> <pdb_id>
4ABF

> <uniprot_id>
P00760

> <usmiles>
Brc1cc2c(SC=C2CN)cc1

$$$$
517_A_501
          07202403043D 1   1.00000     0.00000     0
            
 35 37  0  0  0  0            999 V2000
   78.2114   17.5265   10.4450 O   0  0  0  0  0  0  0  0  0  0  0  0
   85.0217   13.2914   13.1414 O   0  0  0  0  0  0  0  0  0  0  0  0
   78.4868   19.6699   10.9754 N   0  0  0  0  0  0  0  0  0  0  0  0
   86.8550   14.6771   13.7219 N   0  0  0  0  0  0  0  0  0  0  0  0
   80.1200   18.1868   11.5235 N   0  0  0  0  0  0  0  0  0  0  0  0
   82.9713   13.5336   12.2449 N   0  0  0  0  0  0  0  0  0  0  0  0
   84.6925   17.8108   13.6179 C   0  0  0  0  0  0  0  0  0  0  0  0
   88.0975   14.7121   14.2002 C   0  0  0  0  0  0  0  0  0  0  0  0
   88.3582   15.9578   14.5704 C   0  0  0  0  0  0  0  0  0  0  0  0
   87.2798   16.6944   14.3229 C   0  0  0  0  0  0  0  0  0  0  0  0
   80.1592   15.7709   11.2621 C   0  0  0  0  0  0  0  0  0  0  0  0
   80.8445   14.5601   11.4368 C   0  0  0  0  0  0  0  0  0  0  0  0
   82.0362   16.9736   12.2275 C   0  0  0  0  0  0  0  0  0  0  0  0
   78.8975   18.4082   10.9749 C   0  0  0  0  0  0  0  0  0  0  0  0
   84.0928   14.0126   12.7778 C   0  0  0  0  0  0  0  0  0  0  0  0
   80.7503   16.9918   11.6547 C   0  0  0  0  0  0  0  0  0  0  0  0
   86.3343   15.9038   13.7961 C   0  0  0  0  0  0  0  0  0  0  0  0
   82.1294   14.5461   12.0027 C   0  0  0  0  0  0  0  0  0  0  0  0
   85.0240   16.3163   13.4223 C   0  0  0  0  0  0  0  0  0  0  0  0
   82.7392   15.7575   12.4034 C   0  0  0  0  0  0  0  0  0  0  0  0
   84.0125   15.4088   12.9020 C   0  0  0  0  0  0  0  0  0  0  0  0
   79.0467   20.3778   11.4058 H   0  0  0  0  0  0  0  0  0  0  0  0
   77.6172   19.9128   10.5454 H   0  0  0  0  0  0  0  0  0  0  0  0
   86.3896   13.8666   13.3664 H   0  0  0  0  0  0  0  0  0  0  0  0
   80.6076   18.9894   11.8673 H   0  0  0  0  0  0  0  0  0  0  0  0
   82.7865   12.5692   12.0553 H   0  0  0  0  0  0  0  0  0  0  0  0
   83.7526   17.9850   13.3243 H   0  0  0  0  0  0  0  0  0  0  0  0
   84.7898   18.0501   14.5839 H   0  0  0  0  0  0  0  0  0  0  0  0
   85.3204   18.3657   13.0722 H   0  0  0  0  0  0  0  0  0  0  0  0
   88.7235   13.9352   14.2680 H   0  0  0  0  0  0  0  0  0  0  0  0
   89.2158   16.2859   14.9664 H   0  0  0  0  0  0  0  0  0  0  0  0
   87.1891   17.6744   14.5000 H   0  0  0  0  0  0  0  0  0  0  0  0
   79.2451   15.7698   10.8566 H   0  0  0  0  0  0  0  0  0  0  0  0
   80.4155   13.7013   11.1567 H   0  0  0  0  0  0  0  0  0  0  0  0
   82.4595   17.8329   12.5146 H   0  0  0  0  0  0  0  0  0  0  0  0
  1 14  2  0  0  0  0
  2 15  2  0  0  0  0
  3 14  1  0  0  0  0
  4  8  1  0  0  0  0
  4 17  1  0  0  0  0
  5 14  1  0  0  0  0
  5 16  1  0  0  0  0
  6 15  1  0  0  0  0
  6 18  1  0  0  0  0
  7 19  1  0  0  0  0
  8  9  2  0  0  0  0
  9 10  1  0  0  0  0
 10 17  2  0  0  0  0
 11 12  1  0  0  0  0
 11 16  2  0  0  0  0
 12 18  2  0  0  0  0
 13 16  1  0  0  0  0
 13 20  2  0  0  0  0
 15 21  1  0  0  0  0
 17 19  1  0  0  0  0
 18 20  1  0  0  0  0
 19 21  2  0  0  0  0
 20 21  1  0  0  0  0
  3 22  1  0  0  0  0
  3 23  1  0  0  0  0
  4 24  1  0  0  0  0
  5 25  1  0  0  0  0
  6 26  1  0  0  0  0
  7 27  1  0  0  0  0
  7 28  1  0  0  0  0
  7 29  1  0  0  0  0
  8 30  1  0  0  0  0
  9 31  1  0  0  0  0
 10 32  1  0  0  0  0
 11 33  1  0  0  0  0
 12 34  1  0  0  0  0
 13 35  1  0  0  0  0
M  END
> <pdb_id>
2PE1

> <uniprot_id>
O15530

> <usmiles>
O=C(Nc1cc\2c(NC(=O)/C2=C(\C=3NC=CC3)/C)cc1)N

$$$$
51J_A_266
          07192416293D 1   1.00000     0.00000     0
            
 33 33  0  0  0  0            999 V2000
   -5.8566    1.0438   16.7430 S   0  0  0  0  0  0  0  0  0  0  0  0
   -5.5818    5.5852   13.8931 S   0  0  0  0  0  0  0  0  0  0  0  0
   -7.2827    1.3654   16.8450 O   0  0  0  0  0  0  0  0  0  0  0  0
   -5.0179    1.4363   17.8233 O   0  0  0  0  0  0  0  0  0  0  0  0
   -6.2061    6.0021   15.1126 O   0  0  0  0  0  0  0  0  0  0  0  0
   -6.2668    5.8668   12.7038 O   0  0  0  0  0  0  0  0  0  0  0  0
   -4.5437    3.4055   10.6005 O   0  0  0  0  0  0  0  0  0  0  0  0
   -3.3004    4.8404   11.6847 O   0  0  0  0  0  0  0  0  0  0  0  0
   -5.6625   -0.5024   16.5211 N   0  0  0  0  0  0  0  0  0  0  0  0
   -4.1876    6.4225   13.7809 N   0  0  0  0  0  0  0  0  0  0  0  0
   -0.8072    9.6494   14.8843 C   0  0  0  0  0  0  0  0  0  0  0  0
   -3.3557    6.4683   14.9761 C   0  0  0  0  0  0  0  0  0  0  0  0
   -1.7034    8.5092   14.9218 C   0  0  0  0  0  0  0  0  0  0  0  0
   -2.4344    7.5926   14.9465 C   0  0  0  0  0  0  0  0  0  0  0  0
   -4.6253    1.2169   14.3079 C   0  0  0  0  0  0  0  0  0  0  0  0
   -4.2455    1.8897   13.1668 C   0  0  0  0  0  0  0  0  0  0  0  0
   -5.6249    3.2268   15.1316 C   0  0  0  0  0  0  0  0  0  0  0  0
   -4.0632    3.8650   11.6641 C   0  0  0  0  0  0  0  0  0  0  0  0
   -5.3054    1.8696   15.3577 C   0  0  0  0  0  0  0  0  0  0  0  0
   -5.2154    3.9658   13.9908 C   0  0  0  0  0  0  0  0  0  0  0  0
   -4.4630    3.2403   12.9525 C   0  0  0  0  0  0  0  0  0  0  0  0
   -5.1562    2.6156   10.6288 H   0  0  0  0  0  0  0  0  0  0  0  0
   -4.6865   -0.7094   16.4532 H   0  0  0  0  0  0  0  0  0  0  0  0
   -6.0563   -1.0019   17.2927 H   0  0  0  0  0  0  0  0  0  0  0  0
   -4.4181    7.3641   13.5355 H   0  0  0  0  0  0  0  0  0  0  0  0
    0.0230    9.4379   15.4001 H   0  0  0  0  0  0  0  0  0  0  0  0
   -0.5670    9.8535   13.9353 H   0  0  0  0  0  0  0  0  0  0  0  0
   -1.2598   10.4426   15.2916 H   0  0  0  0  0  0  0  0  0  0  0  0
   -2.8299    5.6199   15.0379 H   0  0  0  0  0  0  0  0  0  0  0  0
   -3.9459    6.5539   15.7788 H   0  0  0  0  0  0  0  0  0  0  0  0
   -4.4138    0.2433   14.3939 H   0  0  0  0  0  0  0  0  0  0  0  0
   -3.7838    1.3698   12.4481 H   0  0  0  0  0  0  0  0  0  0  0  0
   -6.1758    3.6981   15.8204 H   0  0  0  0  0  0  0  0  0  0  0  0
  1  3  2  0  0  0  0
  1  4  2  0  0  0  0
  1  9  1  0  0  0  0
  1 19  1  0  0  0  0
  2  5  2  0  0  0  0
  2  6  2  0  0  0  0
  2 10  1  0  0  0  0
  2 20  1  0  0  0  0
  7 18  1  0  0  0  0
  8 18  2  0  0  0  0
 10 12  1  0  0  0  0
 11 13  1  0  0  0  0
 12 14  1  0  0  0  0
 13 14  3  0  0  0  0
 15 16  2  0  0  0  0
 15 19  1  0  0  0  0
 16 21  1  0  0  0  0
 17 19  2  0  0  0  0
 17 20  1  0  0  0  0
 18 21  1  0  0  0  0
 20 21  2  0  0  0  0
  7 22  1  0  0  0  0
  9 23  1  0  0  0  0
  9 24  1  0  0  0  0
 10 25  1  0  0  0  0
 11 26  1  0  0  0  0
 11 27  1  0  0  0  0
 11 28  1  0  0  0  0
 12 29  1  0  0  0  0
 12 30  1  0  0  0  0
 15 31  1  0  0  0  0
 16 32  1  0  0  0  0
 17 33  1  0  0  0  0
M  END
> <pdb_id>
5AML

> <uniprot_id>
P00918

> <usmiles>
S(=O)(=O)(NCC#CC)c1c(ccc(S(=O)(=O)N)c1)C(=O)O

$$$$
51X_A_201
          07202408113D 1   1.00000     0.00000     0
            
 22 23  0  0  0  0            999 V2000
    7.5728  -22.7614  -28.6256 O   0  0  0  0  0  0  0  0  0  0  0  0
    5.9372  -21.6872  -27.6823 O   0  0  0  0  0  0  0  0  0  0  0  0
    9.7981  -21.2503  -27.4136 O   0  0  0  0  0  0  0  0  0  0  0  0
    8.6961  -24.9839  -25.5248 O   0  0  0  0  0  0  0  0  0  0  0  0
    8.9442  -22.9226  -26.3800 N   0  0  0  0  0  0  0  0  0  0  0  0
   13.3202  -24.0837  -27.6683 C   0  0  0  0  0  0  0  0  0  0  0  0
   12.9597  -25.2428  -26.9891 C   0  0  0  0  0  0  0  0  0  0  0  0
   12.4236  -22.9936  -27.7112 C   0  0  0  0  0  0  0  0  0  0  0  0
   11.6661  -25.3631  -26.4142 C   0  0  0  0  0  0  0  0  0  0  0  0
    7.6376  -22.3765  -26.2238 C   0  0  0  0  0  0  0  0  0  0  0  0
    7.0337  -22.2230  -27.6180 C   0  0  0  0  0  0  0  0  0  0  0  0
    9.9217  -22.2901  -27.0204 C   0  0  0  0  0  0  0  0  0  0  0  0
    9.3517  -24.1817  -26.0391 C   0  0  0  0  0  0  0  0  0  0  0  0
   11.1633  -23.1583  -27.1638 C   0  0  0  0  0  0  0  0  0  0  0  0
   10.8009  -24.4042  -26.5197 C   0  0  0  0  0  0  0  0  0  0  0  0
   14.1920  -23.9782  -27.9748 H   0  0  0  0  0  0  0  0  0  0  0  0
   13.5596  -25.9512  -26.9308 H   0  0  0  0  0  0  0  0  0  0  0  0
   12.6630  -22.1960  -28.1250 H   0  0  0  0  0  0  0  0  0  0  0  0
   11.4096  -26.1700  -26.0299 H   0  0  0  0  0  0  0  0  0  0  0  0
    7.6919  -21.5100  -25.7909 H   0  0  0  0  0  0  0  0  0  0  0  0
    7.0905  -22.9762  -25.6924 H   0  0  0  0  0  0  0  0  0  0  0  0
    8.4714  -23.1921  -28.5415 H   0  0  0  0  0  0  0  0  0  0  0  0
  1 11  1  0  0  0  0
  2 11  2  0  0  0  0
  3 12  2  0  0  0  0
  4 13  2  0  0  0  0
  5 10  1  0  0  0  0
  5 12  1  0  0  0  0
  5 13  1  0  0  0  0
  6  7  2  0  0  0  0
  6  8  1  0  0  0  0
  6 16  1  0  0  0  0
  7  9  1  0  0  0  0
  7 17  1  0  0  0  0
  8 14  2  0  0  0  0
  8 18  1  0  0  0  0
  9 15  2  0  0  0  0
  9 19  1  0  0  0  0
 10 11  1  0  0  0  0
 10 20  1  0  0  0  0
 10 21  1  0  0  0  0
 12 14  1  0  0  0  0
 13 15  1  0  0  0  0
 14 15  1  0  0  0  0
  1 22  1  0  0  0  0
M  END
> <pdb_id>
5RSN

> <uniprot_id>
P0DTD1

> <usmiles>
O=C1N(C(=O)c2c1cccc2)CC(=O)O

$$$$
52B_A_701
          07202404183D 1   1.00000     0.00000     0
            
 24 25  0  0  0  0            999 V2000
   28.3866   20.2081   18.4477 Cl  0  0  0  0  0  0  0  0  0  0  0  0
   23.5812   21.9187   17.1840 Cl  0  0  0  0  0  0  0  0  0  0  0  0
   23.7415   23.4133   12.9445 F   0  0  0  0  0  0  0  0  0  0  0  0
   25.6277   22.3965   13.2149 F   0  0  0  0  0  0  0  0  0  0  0  0
   25.5427   24.2785   12.0532 F   0  0  0  0  0  0  0  0  0  0  0  0
   26.3552   26.7612   13.1231 O   0  0  0  0  0  0  0  0  0  0  0  0
   28.4293   26.4389   13.9849 O   0  0  0  0  0  0  0  0  0  0  0  0
   24.8383   23.7867   15.5725 O   0  0  0  0  0  0  0  0  0  0  0  0
   26.0998   21.1968   17.6806 C   0  0  0  0  0  0  0  0  0  0  0  0
   28.0085   22.2967   16.7160 C   0  0  0  0  0  0  0  0  0  0  0  0
   27.6490   24.2241   15.1981 C   0  0  0  0  0  0  0  0  0  0  0  0
   27.4509   21.3272   17.5283 C   0  0  0  0  0  0  0  0  0  0  0  0
   25.2805   22.0399   16.9992 C   0  0  0  0  0  0  0  0  0  0  0  0
   27.2278   26.1239   13.7699 C   0  0  0  0  0  0  0  0  0  0  0  0
   25.8012   23.0074   16.1816 C   0  0  0  0  0  0  0  0  0  0  0  0
   25.3035   24.4606   14.3948 C   0  0  1  0  0  0  0  0  0  0  0  0
   27.1663   23.1427   16.0195 C   0  0  0  0  0  0  0  0  0  0  0  0
   26.7288   24.8831   14.4929 C   0  0  0  0  0  0  0  0  0  0  0  0
   25.0601   23.6282   13.1497 C   0  0  0  0  0  0  0  0  0  0  0  0
   25.4312   26.3902   13.0307 H   0  0  0  0  0  0  0  0  0  0  0  0
   25.7206   20.4939   18.2823 H   0  0  0  0  0  0  0  0  0  0  0  0
   29.0013   22.3842   16.6339 H   0  0  0  0  0  0  0  0  0  0  0  0
   28.6184   24.4665   15.1593 H   0  0  0  0  0  0  0  0  0  0  0  0
   24.7580   25.2934   14.3004 H   0  0  0  0  0  0  0  0  0  0  0  0
  1 12  1  0  0  0  0
  2 13  1  0  0  0  0
  3 19  1  0  0  0  0
  4 19  1  0  0  0  0
  5 19  1  0  0  0  0
  6 14  1  0  0  0  0
  7 14  2  0  0  0  0
  8 15  1  0  0  0  0
  8 16  1  0  0  0  0
  9 12  2  0  0  0  0
  9 13  1  0  0  0  0
 10 12  1  0  0  0  0
 10 17  2  0  0  0  0
 11 17  1  0  0  0  0
 11 18  2  0  0  0  0
 13 15  2  0  0  0  0
 14 18  1  0  0  0  0
 15 17  1  0  0  0  0
 16 18  1  0  0  0  0
 16 19  1  0  0  0  0
  6 20  1  0  0  0  0
  9 21  1  0  0  0  0
 10 22  1  0  0  0  0
 11 23  1  0  0  0  0
 16 24  1  0  0  0  0
M  END
> <pdb_id>
3LN0

> <uniprot_id>
Q05769

> <usmiles>
Clc1c2O[C@@H](C(C(=O)O)=Cc2cc(Cl)c1)C(F)(F)F

$$$$
537_A_401
          07202403043D 1   1.00000     0.00000     0
            
 25 28  0  0  0  0            999 V2000
   83.4965   18.4709   13.2745 O   0  0  0  0  0  0  0  0  0  0  0  0
   83.0775   12.8785   12.1563 N   0  0  0  0  0  0  0  0  0  0  0  0
   84.3600   13.1527   12.7206 N   0  0  0  0  0  0  0  0  0  0  0  0
   87.3532   17.0232   14.4007 C   0  0  0  0  0  0  0  0  0  0  0  0
   87.6498   15.6880   14.3019 C   0  0  0  0  0  0  0  0  0  0  0  0
   80.6490   15.6749   11.7538 C   0  0  0  0  0  0  0  0  0  0  0  0
   80.9888   14.3039   11.6468 C   0  0  0  0  0  0  0  0  0  0  0  0
   86.1313   17.5511   14.0419 C   0  0  0  0  0  0  0  0  0  0  0  0
   86.6890   14.8138   13.8241 C   0  0  0  0  0  0  0  0  0  0  0  0
   81.5235   16.6448   12.2403 C   0  0  0  0  0  0  0  0  0  0  0  0
   83.7939   17.2461   13.1671 C   0  0  0  0  0  0  0  0  0  0  0  0
   82.2726   13.9756   12.0888 C   0  0  0  0  0  0  0  0  0  0  0  0
   84.4361   14.4817   12.9729 C   0  0  0  0  0  0  0  0  0  0  0  0
   85.1239   16.7260   13.5656 C   0  0  0  0  0  0  0  0  0  0  0  0
   82.7899   16.3148   12.6649 C   0  0  0  0  0  0  0  0  0  0  0  0
   85.4564   15.2876   13.4625 C   0  0  0  0  0  0  0  0  0  0  0  0
   83.1553   14.9913   12.5868 C   0  0  0  0  0  0  0  0  0  0  0  0
   82.7978   11.9713   11.8419 H   0  0  0  0  0  0  0  0  0  0  0  0
   88.0562   17.6429   14.7495 H   0  0  0  0  0  0  0  0  0  0  0  0
   88.5511   15.3493   14.5723 H   0  0  0  0  0  0  0  0  0  0  0  0
   79.7352   15.9614   11.4657 H   0  0  0  0  0  0  0  0  0  0  0  0
   80.3560   13.6211   11.2816 H   0  0  0  0  0  0  0  0  0  0  0  0
   85.9706   18.5346   14.1256 H   0  0  0  0  0  0  0  0  0  0  0  0
   86.8946   13.8385   13.7432 H   0  0  0  0  0  0  0  0  0  0  0  0
   81.2251   17.5983   12.2815 H   0  0  0  0  0  0  0  0  0  0  0  0
  1 11  2  0  0  0  0
  2  3  1  0  0  0  0
  2 12  1  0  0  0  0
  3 13  2  0  0  0  0
  4  5  2  0  0  0  0
  4  8  1  0  0  0  0
  5  9  1  0  0  0  0
  6  7  1  0  0  0  0
  6 10  2  0  0  0  0
  7 12  2  0  0  0  0
  8 14  2  0  0  0  0
  9 16  2  0  0  0  0
 10 15  1  0  0  0  0
 11 14  1  0  0  0  0
 11 15  1  0  0  0  0
 12 17  1  0  0  0  0
 13 16  1  0  0  0  0
 13 17  1  0  0  0  0
 14 16  1  0  0  0  0
 15 17  2  0  0  0  0
  2 18  1  0  0  0  0
  4 19  1  0  0  0  0
  5 20  1  0  0  0  0
  6 21  1  0  0  0  0
  7 22  1  0  0  0  0
  8 23  1  0  0  0  0
  9 24  1  0  0  0  0
 10 25  1  0  0  0  0
M  END
> <pdb_id>
5LVL

> <uniprot_id>
O15530

> <usmiles>
O=C1c2c3c(NN=C3c4c1cccc4)ccc2

$$$$
53Z_A_301
          07202407013D 1   1.00000     0.00000     0
            
 40 41  0  0  0  0            999 V2000
    3.3682   17.8600   16.8691 O   0  0  0  0  0  0  0  0  0  0  0  0
    4.8558   20.4202   19.9109 O   0  0  0  0  0  0  0  0  0  0  0  0
    0.4905   14.8401   23.5123 N   0  0  0  0  0  0  0  0  0  0  0  0
    3.0527   19.7047   18.0674 N   0  0  0  0  0  0  0  0  0  0  0  0
    1.5955   18.1046   18.2981 N   0  0  0  0  0  0  0  0  0  0  0  0
    6.3880   20.9882   18.4437 N   0  0  0  0  0  0  0  0  0  0  0  0
    4.2588   20.3073   17.5429 C   0  0  0  0  0  0  0  0  0  0  0  0
    0.9175   16.8207   18.1665 C   0  0  0  0  0  0  0  0  0  0  0  0
    7.4964   21.3364   19.2647 C   0  0  0  0  0  0  0  0  0  0  0  0
    7.0392   21.2205   17.1929 C   0  0  0  0  0  0  0  0  0  0  0  0
    8.7809   21.1486   18.4608 C   0  0  0  0  0  0  0  0  0  0  0  0
    8.1726   22.2148   17.4282 C   0  0  0  0  0  0  0  0  0  0  0  0
    1.6999   16.0662   21.8691 C   0  0  0  0  0  0  0  0  0  0  0  0
   -0.3947   15.0533   21.3099 C   0  0  0  0  0  0  0  0  0  0  0  0
    1.8114   16.5542   20.5662 C   0  0  0  0  0  0  0  0  0  0  0  0
   -0.2862   15.5403   20.0091 C   0  0  0  0  0  0  0  0  0  0  0  0
    2.7318   18.4845   17.7259 C   0  0  0  0  0  0  0  0  0  0  0  0
    5.1810   20.5855   18.7255 C   0  0  0  0  0  0  0  0  0  0  0  0
    0.5966   15.3126   22.2544 C   0  0  0  0  0  0  0  0  0  0  0  0
    0.8211   16.2929   19.6207 C   0  0  0  0  0  0  0  0  0  0  0  0
   -0.3078   14.2993   23.7776 H   0  0  0  0  0  0  0  0  0  0  0  0
    1.2100   15.0304   24.1802 H   0  0  0  0  0  0  0  0  0  0  0  0
    2.4651   20.2211   18.6904 H   0  0  0  0  0  0  0  0  0  0  0  0
    1.1524   18.7788   18.8891 H   0  0  0  0  0  0  0  0  0  0  0  0
    4.0376   21.1621   17.0735 H   0  0  0  0  0  0  0  0  0  0  0  0
    4.7034   19.6809   16.9027 H   0  0  0  0  0  0  0  0  0  0  0  0
    1.4499   16.1950   17.5964 H   0  0  0  0  0  0  0  0  0  0  0  0
    0.0068   16.9391   17.7708 H   0  0  0  0  0  0  0  0  0  0  0  0
    7.5155   20.7463   20.0719 H   0  0  0  0  0  0  0  0  0  0  0  0
    7.4157   22.2910   19.5515 H   0  0  0  0  0  0  0  0  0  0  0  0
    6.3869   21.5987   16.5360 H   0  0  0  0  0  0  0  0  0  0  0  0
    7.4093   20.3618   16.8385 H   0  0  0  0  0  0  0  0  0  0  0  0
    8.9133   20.2302   18.0880 H   0  0  0  0  0  0  0  0  0  0  0  0
    9.6154   21.4428   18.9265 H   0  0  0  0  0  0  0  0  0  0  0  0
    7.8905   23.0818   17.8390 H   0  0  0  0  0  0  0  0  0  0  0  0
    8.7440   22.3956   16.6277 H   0  0  0  0  0  0  0  0  0  0  0  0
    2.4218   16.2607   22.5331 H   0  0  0  0  0  0  0  0  0  0  0  0
   -1.1939   14.5109   21.5690 H   0  0  0  0  0  0  0  0  0  0  0  0
    2.6105   17.0972   20.3083 H   0  0  0  0  0  0  0  0  0  0  0  0
   -1.0104   15.3478   19.3469 H   0  0  0  0  0  0  0  0  0  0  0  0
  1 17  2  0  0  0  0
  2 18  2  0  0  0  0
  3 19  1  0  0  0  0
  4  7  1  0  0  0  0
  4 17  1  0  0  0  0
  5  8  1  0  0  0  0
  5 17  1  0  0  0  0
  6  9  1  0  0  0  0
  6 10  1  0  0  0  0
  6 18  1  0  0  0  0
  7 18  1  0  0  0  0
  8 20  1  0  0  0  0
  9 11  1  0  0  0  0
 10 12  1  0  0  0  0
 11 12  1  0  0  0  0
 13 15  1  0  0  0  0
 13 19  2  0  0  0  0
 14 16  2  0  0  0  0
 14 19  1  0  0  0  0
 15 20  2  0  0  0  0
 16 20  1  0  0  0  0
  3 21  1  0  0  0  0
  3 22  1  0  0  0  0
  4 23  1  0  0  0  0
  5 24  1  0  0  0  0
  7 25  1  0  0  0  0
  7 26  1  0  0  0  0
  8 27  1  0  0  0  0
  8 28  1  0  0  0  0
  9 29  1  0  0  0  0
  9 30  1  0  0  0  0
 10 31  1  0  0  0  0
 10 32  1  0  0  0  0
 11 33  1  0  0  0  0
 11 34  1  0  0  0  0
 12 35  1  0  0  0  0
 12 36  1  0  0  0  0
 13 37  1  0  0  0  0
 14 38  1  0  0  0  0
 15 39  1  0  0  0  0
 16 40  1  0  0  0  0
M  END
> <pdb_id>
4J58

> <uniprot_id>
P30405

> <usmiles>
O=C(NCc1ccc(N)cc1)NCC(=O)N2CCCC2

$$$$
54G_A_201
          07202408113D 1   1.00000     0.00000     0
            
 19 19  0  0  0  0            999 V2000
    5.1733  -19.9881  -26.8927 O   0  0  0  0  0  0  0  0  0  0  0  0
    6.5351  -20.8555  -25.5875 O   0  0  0  0  0  0  0  0  0  0  0  0
    8.6017  -19.7161  -24.8192 O   0  0  0  0  0  0  0  0  0  0  0  0
    6.8476  -14.9881  -27.1476 C   0  0  0  0  0  0  0  0  0  0  0  0
    8.8865  -17.4145  -25.2909 C   0  0  0  0  0  0  0  0  0  0  0  0
    8.4470  -16.2660  -25.8603 C   0  0  0  0  0  0  0  0  0  0  0  0
    6.5767  -17.4365  -26.6874 C   0  0  0  0  0  0  0  0  0  0  0  0
    6.2086  -19.8813  -26.2271 C   0  0  0  0  0  0  0  0  0  0  0  0
    8.1539  -18.5612  -25.4319 C   0  0  0  0  0  0  0  0  0  0  0  0
    7.3051  -16.2881  -26.5631 C   0  0  0  0  0  0  0  0  0  0  0  0
    6.9885  -18.5949  -26.1479 C   0  0  0  0  0  0  0  0  0  0  0  0
    8.7999  -20.2924  -25.4116 H   0  0  0  0  0  0  0  0  0  0  0  0
    6.2429  -15.1603  -27.8865 H   0  0  0  0  0  0  0  0  0  0  0  0
    6.3881  -14.4719  -26.4673 H   0  0  0  0  0  0  0  0  0  0  0  0
    7.6155  -14.4891  -27.4679 H   0  0  0  0  0  0  0  0  0  0  0  0
    9.6066  -17.4682  -24.7485 H   0  0  0  0  0  0  0  0  0  0  0  0
    8.9251  -15.4746  -25.7586 H   0  0  0  0  0  0  0  0  0  0  0  0
    5.7880  -17.4207  -27.1798 H   0  0  0  0  0  0  0  0  0  0  0  0
    4.8508  -19.2178  -27.4427 H   0  0  0  0  0  0  0  0  0  0  0  0
  1  8  1  0  0  0  0
  2  8  2  0  0  0  0
  3  9  1  0  0  0  0
  3 12  1  0  0  0  0
  4 10  1  0  0  0  0
  4 13  1  0  0  0  0
  4 14  1  0  0  0  0
  4 15  1  0  0  0  0
  5  6  1  0  0  0  0
  5  9  2  0  0  0  0
  5 16  1  0  0  0  0
  6 10  2  0  0  0  0
  6 17  1  0  0  0  0
  7 10  1  0  0  0  0
  7 11  2  0  0  0  0
  7 18  1  0  0  0  0
  8 11  1  0  0  0  0
  9 11  1  0  0  0  0
  1 19  1  0  0  0  0
M  END
> <pdb_id>
5RT9

> <uniprot_id>
P0DTD1

> <usmiles>
O=C(O)c1c(O)ccc(c1)C

$$$$
54G_B_403
          07202401373D 1   1.00000     0.00000     0
            
 19 19  0  0  0  0            999 V2000
   22.2978  -36.8106   15.2804 O   0  0  0  0  0  0  0  0  0  0  0  0
   22.0229  -37.1121   13.1053 O   0  0  0  0  0  0  0  0  0  0  0  0
   22.6452  -34.4569   16.2663 O   0  0  0  0  0  0  0  0  0  0  0  0
   23.0721  -32.5528   10.9287 C   0  0  0  0  0  0  0  0  0  0  0  0
   22.9894  -32.6956   14.7295 C   0  0  0  0  0  0  0  0  0  0  0  0
   23.0675  -32.2211   13.4301 C   0  0  0  0  0  0  0  0  0  0  0  0
   22.7559  -34.4297   12.5854 C   0  0  0  0  0  0  0  0  0  0  0  0
   22.2846  -36.3747   14.1344 C   0  0  0  0  0  0  0  0  0  0  0  0
   22.7848  -34.0492   14.9707 C   0  0  0  0  0  0  0  0  0  0  0  0
   22.9651  -33.0772   12.3417 C   0  0  0  0  0  0  0  0  0  0  0  0
   22.6461  -34.9383   13.8858 C   0  0  0  0  0  0  0  0  0  0  0  0
   22.5059  -36.2007   16.0450 H   0  0  0  0  0  0  0  0  0  0  0  0
   22.4968  -35.4240   16.4729 H   0  0  0  0  0  0  0  0  0  0  0  0
   22.9747  -33.3107   10.2836 H   0  0  0  0  0  0  0  0  0  0  0  0
   22.3485  -31.8819   10.7665 H   0  0  0  0  0  0  0  0  0  0  0  0
   23.9638  -32.1188   10.8009 H   0  0  0  0  0  0  0  0  0  0  0  0
   23.0807  -32.0615   15.4973 H   0  0  0  0  0  0  0  0  0  0  0  0
   23.2002  -31.2425   13.2729 H   0  0  0  0  0  0  0  0  0  0  0  0
   22.6816  -35.0572   11.8104 H   0  0  0  0  0  0  0  0  0  0  0  0
  1  8  1  0  0  0  0
  2  8  2  0  0  0  0
  3  9  1  0  0  0  0
  4 10  1  0  0  0  0
  5  6  1  0  0  0  0
  5  9  2  0  0  0  0
  6 10  2  0  0  0  0
  7 10  1  0  0  0  0
  7 11  2  0  0  0  0
  8 11  1  0  0  0  0
  9 11  1  0  0  0  0
  1 12  1  0  0  0  0
  3 13  1  0  0  0  0
  4 14  1  0  0  0  0
  4 15  1  0  0  0  0
  4 16  1  0  0  0  0
  5 17  1  0  0  0  0
  6 18  1  0  0  0  0
  7 19  1  0  0  0  0
M  END
> <pdb_id>
5CU2

> <uniprot_id>
P68400

> <usmiles>
O=C(O)c1c(O)ccc(c1)C

$$$$
550_B_1
          07202412373D 1   1.00000     0.00000     0
            
 55 58  0  0  0  0            999 V2000
   51.2836   36.0075   40.2845 O   0  0  0  0  0  0  0  0  0  0  0  0
   47.4205   31.6265   39.4319 O   0  0  0  0  0  0  0  0  0  0  0  0
   51.8400   33.8731   39.2140 O   0  0  0  0  0  0  0  0  0  0  0  0
   48.6733   29.7481   39.9191 O   0  0  0  0  0  0  0  0  0  0  0  0
   50.1360   31.7827   45.6480 O   0  0  0  0  0  0  0  0  0  0  0  0
   50.1851   35.2239   39.8452 N   0  0  0  0  0  0  0  0  0  0  0  0
   51.1560   26.9861   47.2274 N   0  0  0  0  0  0  0  0  0  0  0  0
   47.5121   28.9754   40.2413 C   0  0  0  0  0  0  0  0  0  0  0  0
   53.6122   27.0111   47.3126 C   0  0  0  0  0  0  0  0  0  0  0  0
   51.0916   31.2801   46.5471 C   0  0  0  0  0  0  0  0  0  0  0  0
   47.5156   27.4754   47.0999 C   0  0  0  0  0  0  0  0  0  0  0  0
   47.4171   28.8616   46.8635 C   0  0  0  0  0  0  0  0  0  0  0  0
   51.3534   30.8362   43.8177 C   0  0  0  0  0  0  0  0  0  0  0  0
   49.5071   32.3670   43.3512 C   0  0  0  0  0  0  0  0  0  0  0  0
   48.7864   26.8810   47.2243 C   0  0  0  0  0  0  0  0  0  0  0  0
   51.6119   30.7228   42.4395 C   0  0  0  0  0  0  0  0  0  0  0  0
   49.7316   32.2226   41.9969 C   0  0  0  0  0  0  0  0  0  0  0  0
   48.5763   29.6545   46.7542 C   0  0  0  0  0  0  0  0  0  0  0  0
   52.2708   29.0916   46.9145 C   0  0  0  0  0  0  0  0  0  0  0  0
   51.0222   31.2428   40.0474 C   0  0  0  0  0  0  0  0  0  0  0  0
   50.0312   32.0715   37.7511 C   0  0  0  0  0  0  0  0  0  0  0  0
   48.4955   31.0262   39.5426 C   0  0  0  0  0  0  0  0  0  0  0  0
   50.6375   34.1306   39.2421 C   0  0  0  0  0  0  0  0  0  0  0  0
   50.3144   31.6760   44.2801 C   0  0  0  0  0  0  0  0  0  0  0  0
   52.2763   27.7209   47.1461 C   0  0  0  0  0  0  0  0  0  0  0  0
   49.9599   27.6249   47.1144 C   0  0  0  0  0  0  0  0  0  0  0  0
   50.7895   31.3880   41.5456 C   0  0  0  0  0  0  0  0  0  0  0  0
   51.0418   29.7771   46.7650 C   0  0  0  0  0  0  0  0  0  0  0  0
   49.8494   29.0310   46.8677 C   0  0  0  0  0  0  0  0  0  0  0  0
   49.6184   33.1810   38.7274 C   0  0  2  0  0  0  0  0  0  0  0  0
   49.8181   31.7355   39.2042 C   0  0  1  0  0  0  0  0  0  0  0  0
   50.9448   36.8313   40.7389 H   0  0  0  0  0  0  0  0  0  0  0  0
   49.2210   35.4583   39.9702 H   0  0  0  0  0  0  0  0  0  0  0  0
   47.7889   28.0507   40.5027 H   0  0  0  0  0  0  0  0  0  0  0  0
   47.0261   29.4054   41.0021 H   0  0  0  0  0  0  0  0  0  0  0  0
   46.9100   28.9302   39.4441 H   0  0  0  0  0  0  0  0  0  0  0  0
   54.3552   27.6752   47.2293 H   0  0  0  0  0  0  0  0  0  0  0  0
   53.6503   26.5795   48.2139 H   0  0  0  0  0  0  0  0  0  0  0  0
   53.7089   26.3121   46.6040 H   0  0  0  0  0  0  0  0  0  0  0  0
   50.9506   31.7264   47.4309 H   0  0  0  0  0  0  0  0  0  0  0  0
   51.9990   31.5128   46.1973 H   0  0  0  0  0  0  0  0  0  0  0  0
   46.6891   26.9180   47.1789 H   0  0  0  0  0  0  0  0  0  0  0  0
   46.5162   29.2860   46.7724 H   0  0  0  0  0  0  0  0  0  0  0  0
   51.9065   30.3211   44.4725 H   0  0  0  0  0  0  0  0  0  0  0  0
   48.7715   32.9622   43.6747 H   0  0  0  0  0  0  0  0  0  0  0  0
   48.8484   25.8978   47.3962 H   0  0  0  0  0  0  0  0  0  0  0  0
   52.3777   30.1704   42.1104 H   0  0  0  0  0  0  0  0  0  0  0  0
   49.1531   32.7024   41.3372 H   0  0  0  0  0  0  0  0  0  0  0  0
   48.5052   30.6398   46.5993 H   0  0  0  0  0  0  0  0  0  0  0  0
   53.1341   29.5926   46.8536 H   0  0  0  0  0  0  0  0  0  0  0  0
   51.1839   30.2778   39.8408 H   0  0  0  0  0  0  0  0  0  0  0  0
   51.8290   31.7773   39.7957 H   0  0  0  0  0  0  0  0  0  0  0  0
   50.9548   32.0630   37.3678 H   0  0  0  0  0  0  0  0  0  0  0  0
   49.3820   31.7455   37.0638 H   0  0  0  0  0  0  0  0  0  0  0  0
   48.6773   33.5134   38.6661 H   0  0  0  0  0  0  0  0  0  0  0  0
  1  6  1  0  0  0  0
  2 22  2  0  0  0  0
  3 23  2  0  0  0  0
  4  8  1  0  0  0  0
  4 22  1  0  0  0  0
  5 10  1  0  0  0  0
  5 24  1  0  0  0  0
  6 23  1  0  0  0  0
  7 25  2  0  0  0  0
  7 26  1  0  0  0  0
  9 25  1  0  0  0  0
 10 28  1  0  0  0  0
 11 12  2  0  0  0  0
 11 15  1  0  0  0  0
 12 18  1  0  0  0  0
 13 16  2  0  0  0  0
 13 24  1  0  0  0  0
 14 17  1  0  0  0  0
 14 24  2  0  0  0  0
 15 26  2  0  0  0  0
 16 27  1  0  0  0  0
 17 27  2  0  0  0  0
 18 29  2  0  0  0  0
 19 25  1  0  0  0  0
 19 28  2  0  0  0  0
 20 27  1  0  0  0  0
 20 31  1  0  0  0  0
 21 30  1  0  0  0  0
 21 31  1  0  0  0  0
 22 31  1  0  0  0  0
 23 30  1  0  0  0  0
 26 29  1  0  0  0  0
 28 29  1  0  0  0  0
 30 31  1  0  0  0  0
  1 32  1  0  0  0  0
  6 33  1  0  0  0  0
  8 34  1  0  0  0  0
  8 35  1  0  0  0  0
  8 36  1  0  0  0  0
  9 37  1  0  0  0  0
  9 38  1  0  0  0  0
  9 39  1  0  0  0  0
 10 40  1  0  0  0  0
 10 41  1  0  0  0  0
 11 42  1  0  0  0  0
 12 43  1  0  0  0  0
 13 44  1  0  0  0  0
 14 45  1  0  0  0  0
 15 46  1  0  0  0  0
 16 47  1  0  0  0  0
 17 48  1  0  0  0  0
 18 49  1  0  0  0  0
 19 50  1  0  0  0  0
 20 51  1  0  0  0  0
 20 52  1  0  0  0  0
 21 53  1  0  0  0  0
 21 54  1  0  0  0  0
 30 55  1  0  0  0  0
M  END
> <pdb_id>
3EDZ

> <uniprot_id>
P78536

> <usmiles>
O=C(OC)[C@@]1([C@@H](C(=O)NO)C1)Cc2ccc(OCc3c4c(nc(c3)C)cccc4)cc2

$$$$
553_B_553
          07202403123D 1   1.00000     0.00000     0
            
 34 36  0  0  0  0            999 V2000
   36.1998    5.7000   29.3165 F   0  0  0  0  0  0  0  0  0  0  0  0
   36.0388   11.8046   31.5922 O   0  0  0  0  0  0  0  0  0  0  0  0
   42.1976    6.6268   35.7564 N   0  0  0  0  0  0  0  0  0  0  0  0
   41.3126    8.4391   37.0114 N   0  0  0  0  0  0  0  0  0  0  0  0
   36.4252   10.1713   30.0384 N   0  0  0  0  0  0  0  0  0  0  0  0
   40.6522    8.0476   34.7943 N   0  0  0  0  0  0  0  0  0  0  0  0
   38.9110    8.4159   32.7895 N   0  0  0  0  0  0  0  0  0  0  0  0
   35.5075    6.7156   29.9517 C   0  0  0  0  0  0  0  0  0  0  0  0
   40.5058    9.5319   37.1055 C   0  0  0  0  0  0  0  0  0  0  0  0
   37.2373    9.0559   29.5329 C   0  0  0  0  0  0  0  0  0  0  0  0
   36.3278    7.3236   31.0992 C   0  0  0  0  0  0  0  0  0  0  0  0
   39.7383    9.9070   36.0006 C   0  0  0  0  0  0  0  0  0  0  0  0
   38.2133   10.5465   33.3155 C   0  0  0  0  0  0  0  0  0  0  0  0
   41.3934    7.7038   35.8699 C   0  0  0  0  0  0  0  0  0  0  0  0
   36.6476   10.7993   31.2148 C   0  0  0  0  0  0  0  0  0  0  0  0
   39.8621    9.1495   34.8201 C   0  0  0  0  0  0  0  0  0  0  0  0
   39.0175    9.4569   33.6381 C   0  0  0  0  0  0  0  0  0  0  0  0
   38.0632    8.7851   31.8135 C   0  0  0  0  0  0  0  0  0  0  0  0
   37.5930    8.0371   30.6274 C   0  0  2  0  0  0  0  0  0  0  0  0
   37.6198   10.1565   32.1355 C   0  0  0  0  0  0  0  0  0  0  0  0
   42.2276    6.1132   34.8989 H   0  0  0  0  0  0  0  0  0  0  0  0
   42.7639    6.3419   36.5299 H   0  0  0  0  0  0  0  0  0  0  0  0
   35.6598   10.4857   29.4768 H   0  0  0  0  0  0  0  0  0  0  0  0
   39.3754    7.5340   32.8703 H   0  0  0  0  0  0  0  0  0  0  0  0
   34.6552    6.3458   30.3218 H   0  0  0  0  0  0  0  0  0  0  0  0
   35.2987    7.4322   29.2862 H   0  0  0  0  0  0  0  0  0  0  0  0
   40.4634   10.0589   37.9543 H   0  0  0  0  0  0  0  0  0  0  0  0
   38.0849    9.4246   29.1514 H   0  0  0  0  0  0  0  0  0  0  0  0
   36.7244    8.5870   28.8139 H   0  0  0  0  0  0  0  0  0  0  0  0
   36.5923    6.5889   31.7239 H   0  0  0  0  0  0  0  0  0  0  0  0
   35.7539    7.9833   31.5844 H   0  0  0  0  0  0  0  0  0  0  0  0
   39.1189   10.6907   36.0465 H   0  0  0  0  0  0  0  0  0  0  0  0
   38.0953   11.4031   33.8178 H   0  0  0  0  0  0  0  0  0  0  0  0
   38.2823    7.3860   30.3098 H   0  0  0  0  0  0  0  0  0  0  0  0
  1  8  1  0  0  0  0
  2 15  2  0  0  0  0
  3 14  1  0  0  0  0
  4  9  1  0  0  0  0
  4 14  2  0  0  0  0
  5 10  1  0  0  0  0
  5 15  1  0  0  0  0
  6 14  1  0  0  0  0
  6 16  2  0  0  0  0
  7 17  1  0  0  0  0
  7 18  1  0  0  0  0
  8 11  1  0  0  0  0
  9 12  2  0  0  0  0
 10 19  1  0  0  0  0
 11 19  1  0  0  0  0
 12 16  1  0  0  0  0
 13 17  2  0  0  0  0
 13 20  1  0  0  0  0
 15 20  1  0  0  0  0
 16 17  1  0  0  0  0
 18 19  1  0  0  0  0
 18 20  2  0  0  0  0
  3 21  1  0  0  0  0
  3 22  1  0  0  0  0
  5 23  1  0  0  0  0
  7 24  1  0  0  0  0
  8 25  1  0  0  0  0
  8 26  1  0  0  0  0
  9 27  1  0  0  0  0
 10 28  1  0  0  0  0
 10 29  1  0  0  0  0
 11 30  1  0  0  0  0
 11 31  1  0  0  0  0
 12 32  1  0  0  0  0
 13 33  1  0  0  0  0
 19 34  1  0  0  0  0
M  END
> <pdb_id>
3DU8

> <uniprot_id>
P49841

> <usmiles>
FCC[C@@H]1C=2NC(c3nc(ncc3)N)=CC2C(=O)NC1

$$$$
55D_B_301
          07202413493D 1   1.00000     0.00000     0
            
 26 26  0  0  0  0            999 V2000
  -11.8067  -17.2848  -29.0165 S   0  0  0  0  0  0  0  0  0  0  0  0
  -14.2691  -18.4877  -32.5598 O   0  0  0  0  0  0  0  0  0  0  0  0
   -9.8496  -18.9858  -30.4212 O   0  0  0  0  0  0  0  0  0  0  0  0
  -15.8687  -17.1492  -31.9298 N   0  0  0  0  0  0  0  0  0  0  0  0
  -11.9759  -18.8001  -31.2775 N   0  0  0  0  0  0  0  0  0  0  0  0
   -8.8325  -22.1583  -33.1605 C   0  0  0  0  0  0  0  0  0  0  0  0
  -13.1399  -16.3887  -28.5091 C   0  0  0  0  0  0  0  0  0  0  0  0
   -8.9988  -20.8849  -32.3415 C   0  0  0  0  0  0  0  0  0  0  0  0
  -14.1683  -16.5051  -29.4549 C   0  0  0  0  0  0  0  0  0  0  0  0
  -10.4622  -20.4225  -32.2822 C   0  0  0  0  0  0  0  0  0  0  0  0
  -12.5411  -17.8709  -30.4199 C   0  0  0  0  0  0  0  0  0  0  0  0
  -14.6386  -17.7054  -31.7154 C   0  0  0  0  0  0  0  0  0  0  0  0
  -10.6897  -19.3350  -31.2409 C   0  0  0  0  0  0  0  0  0  0  0  0
  -13.8274  -17.3389  -30.5625 C   0  0  0  0  0  0  0  0  0  0  0  0
  -16.2418  -16.4927  -31.2741 H   0  0  0  0  0  0  0  0  0  0  0  0
  -16.3956  -17.3988  -32.7422 H   0  0  0  0  0  0  0  0  0  0  0  0
  -12.5649  -19.1283  -32.0160 H   0  0  0  0  0  0  0  0  0  0  0  0
   -7.8683  -22.4231  -33.1730 H   0  0  0  0  0  0  0  0  0  0  0  0
   -9.3742  -22.8918  -32.7499 H   0  0  0  0  0  0  0  0  0  0  0  0
   -9.1458  -21.9962  -34.0962 H   0  0  0  0  0  0  0  0  0  0  0  0
  -13.1900  -15.8562  -27.6641 H   0  0  0  0  0  0  0  0  0  0  0  0
   -8.4484  -20.1604  -32.7566 H   0  0  0  0  0  0  0  0  0  0  0  0
   -8.6768  -21.0561  -31.4103 H   0  0  0  0  0  0  0  0  0  0  0  0
  -15.0534  -16.0490  -29.3628 H   0  0  0  0  0  0  0  0  0  0  0  0
  -11.0377  -21.2084  -32.0559 H   0  0  0  0  0  0  0  0  0  0  0  0
  -10.7224  -20.0664  -33.1797 H   0  0  0  0  0  0  0  0  0  0  0  0
  1  7  1  0  0  0  0
  1 11  1  0  0  0  0
  2 12  2  0  0  0  0
  3 13  2  0  0  0  0
  4 12  1  0  0  0  0
  5 11  1  0  0  0  0
  5 13  1  0  0  0  0
  6  8  1  0  0  0  0
  7  9  2  0  0  0  0
  8 10  1  0  0  0  0
  9 14  1  0  0  0  0
 10 13  1  0  0  0  0
 11 14  2  0  0  0  0
 12 14  1  0  0  0  0
  4 15  1  0  0  0  0
  4 16  1  0  0  0  0
  5 17  1  0  0  0  0
  6 18  1  0  0  0  0
  6 19  1  0  0  0  0
  6 20  1  0  0  0  0
  7 21  1  0  0  0  0
  8 22  1  0  0  0  0
  8 23  1  0  0  0  0
  9 24  1  0  0  0  0
 10 25  1  0  0  0  0
 10 26  1  0  0  0  0
M  END
> <pdb_id>
5CTW

> <uniprot_id>
P0A0K8

> <usmiles>
S1C(NC(=O)CCC)=C(C(=O)N)C=C1

$$$$
55U_A_703
          07192419173D 1   1.00000     0.00000     0
            
 47 49  0  0  0  0            999 V2000
    0.6526    5.8682   13.8066 N   0  0  0  0  0  0  0  0  0  0  0  0
    2.3572    1.9576   12.7357 N   0  0  0  0  0  0  0  0  0  0  0  0
    4.5686   -0.7606   16.2002 N   0  0  0  0  0  0  0  0  0  0  0  0
    1.2792    0.2993   13.9399 N   0  0  0  0  0  0  0  0  0  0  0  0
   -4.1021   -2.8652   15.3869 N   0  0  0  0  0  0  0  0  0  0  0  0
   -5.2408   -2.4075   14.6005 C   0  0  0  0  0  0  0  0  0  0  0  0
   -4.3687   -3.7118   16.5434 C   0  0  0  0  0  0  0  0  0  0  0  0
    0.9906    4.4490   13.6807 C   0  0  0  0  0  0  0  0  0  0  0  0
    1.5981    2.7335   11.7818 C   0  0  0  0  0  0  0  0  0  0  0  0
    5.7871   -0.1322   16.0438 C   0  0  0  0  0  0  0  0  0  0  0  0
    0.6799    3.8221   12.3247 C   0  0  0  0  0  0  0  0  0  0  0  0
    5.9265    0.8536   15.0680 C   0  0  0  0  0  0  0  0  0  0  0  0
    4.8498    1.1796   14.2771 C   0  0  0  0  0  0  0  0  0  0  0  0
   -2.5193   -1.2234   14.2968 C   0  0  0  0  0  0  0  0  0  0  0  0
   -1.6710   -2.8960   15.8471 C   0  0  0  0  0  0  0  0  0  0  0  0
   -1.2259   -0.6652   14.2257 C   0  0  0  0  0  0  0  0  0  0  0  0
   -0.3854   -2.3421   15.7765 C   0  0  0  0  0  0  0  0  0  0  0  0
    2.2473   -1.0281   15.6705 C   0  0  0  0  0  0  0  0  0  0  0  0
    2.4646    0.9325   13.7469 C   0  0  0  0  0  0  0  0  0  0  0  0
    3.4813   -0.4453   15.4192 C   0  0  0  0  0  0  0  0  0  0  0  0
    1.1353   -0.6944   14.8605 C   0  0  0  0  0  0  0  0  0  0  0  0
   -2.7554   -2.3202   15.1581 C   0  0  0  0  0  0  0  0  0  0  0  0
   -0.1571   -1.2115   14.9847 C   0  0  0  0  0  0  0  0  0  0  0  0
    3.6112    0.5523   14.4598 C   0  0  0  0  0  0  0  0  0  0  0  0
    0.8910    6.1875   14.7238 H   0  0  0  0  0  0  0  0  0  0  0  0
    1.1641    6.3942   13.1272 H   0  0  0  0  0  0  0  0  0  0  0  0
    3.2876    2.3146   12.6528 H   0  0  0  0  0  0  0  0  0  0  0  0
   -4.9167   -1.8400   13.8435 H   0  0  0  0  0  0  0  0  0  0  0  0
   -5.7342   -3.1977   14.2371 H   0  0  0  0  0  0  0  0  0  0  0  0
   -5.8528   -1.8707   15.1812 H   0  0  0  0  0  0  0  0  0  0  0  0
   -3.5053   -3.9507   16.9877 H   0  0  0  0  0  0  0  0  0  0  0  0
   -4.9512   -3.2191   17.1899 H   0  0  0  0  0  0  0  0  0  0  0  0
   -4.8325   -4.5462   16.2458 H   0  0  0  0  0  0  0  0  0  0  0  0
    0.4789    3.9466   14.3777 H   0  0  0  0  0  0  0  0  0  0  0  0
    1.9710    4.3488   13.8500 H   0  0  0  0  0  0  0  0  0  0  0  0
    1.0300    2.0953   11.2622 H   0  0  0  0  0  0  0  0  0  0  0  0
    2.2524    3.1739   11.1669 H   0  0  0  0  0  0  0  0  0  0  0  0
    6.5621   -0.3815   16.6245 H   0  0  0  0  0  0  0  0  0  0  0  0
    0.6769    4.5636   11.6537 H   0  0  0  0  0  0  0  0  0  0  0  0
   -0.2364    3.4267   12.3886 H   0  0  0  0  0  0  0  0  0  0  0  0
    6.8024    1.3199   14.9442 H   0  0  0  0  0  0  0  0  0  0  0  0
    4.9525    1.8725   13.5634 H   0  0  0  0  0  0  0  0  0  0  0  0
   -3.2624   -0.8473   13.7434 H   0  0  0  0  0  0  0  0  0  0  0  0
   -1.8211   -3.7168   16.3982 H   0  0  0  0  0  0  0  0  0  0  0  0
   -1.0597    0.1240   13.6344 H   0  0  0  0  0  0  0  0  0  0  0  0
    0.3667   -2.7541   16.2908 H   0  0  0  0  0  0  0  0  0  0  0  0
    2.1440   -1.6811   16.4208 H   0  0  0  0  0  0  0  0  0  0  0  0
  1  8  1  0  0  0  0
  2  9  1  0  0  0  0
  2 19  1  0  0  0  0
  3 10  1  0  0  0  0
  3 20  2  0  0  0  0
  4 19  2  0  0  0  0
  4 21  1  0  0  0  0
  5  6  1  0  0  0  0
  5  7  1  0  0  0  0
  5 22  1  0  0  0  0
  8 11  1  0  0  0  0
  9 11  1  0  0  0  0
 10 12  2  0  0  0  0
 12 13  1  0  0  0  0
 13 24  2  0  0  0  0
 14 16  1  0  0  0  0
 14 22  2  0  0  0  0
 15 17  2  0  0  0  0
 15 22  1  0  0  0  0
 16 23  2  0  0  0  0
 17 23  1  0  0  0  0
 18 20  1  0  0  0  0
 18 21  2  0  0  0  0
 19 24  1  0  0  0  0
 20 24  1  0  0  0  0
 21 23  1  0  0  0  0
  1 25  1  0  0  0  0
  1 26  1  0  0  0  0
  2 27  1  0  0  0  0
  6 28  1  0  0  0  0
  6 29  1  0  0  0  0
  6 30  1  0  0  0  0
  7 31  1  0  0  0  0
  7 32  1  0  0  0  0
  7 33  1  0  0  0  0
  8 34  1  0  0  0  0
  8 35  1  0  0  0  0
  9 36  1  0  0  0  0
  9 37  1  0  0  0  0
 10 38  1  0  0  0  0
 11 39  1  0  0  0  0
 11 40  1  0  0  0  0
 12 41  1  0  0  0  0
 13 42  1  0  0  0  0
 14 43  1  0  0  0  0
 15 44  1  0  0  0  0
 16 45  1  0  0  0  0
 17 46  1  0  0  0  0
 18 47  1  0  0  0  0
M  END
> <pdb_id>
5CXZ

> <uniprot_id>
P43405

> <usmiles>
n1c(NCCCN)c2c(nccc2)cc1c3ccc(N(C)C)cc3

$$$$
564_A_450
          07192417143D 1   1.00000     0.00000     0
            
 55 58  0  0  0  0            999 V2000
   34.0994   18.1230   89.6674 O   0  0  0  0  0  0  0  0  0  0  0  0
   34.2490   19.4614   87.9151 O   0  0  0  0  0  0  0  0  0  0  0  0
   39.4625   12.8345   84.5686 O   0  0  0  0  0  0  0  0  0  0  0  0
   44.7929   16.8909   81.6057 C   0  0  0  0  0  0  0  0  0  0  0  0
   45.9716   15.0913   82.8817 C   0  0  0  0  0  0  0  0  0  0  0  0
   42.1680   13.3510   79.7853 C   0  0  0  0  0  0  0  0  0  0  0  0
   43.1260   11.5921   81.2968 C   0  0  0  0  0  0  0  0  0  0  0  0
   35.5456   16.1270   88.5058 C   0  0  0  0  0  0  0  0  0  0  0  0
   38.8185   16.3474   84.6505 C   0  0  0  0  0  0  0  0  0  0  0  0
   36.4353   15.2318   87.9230 C   0  0  0  0  0  0  0  0  0  0  0  0
   37.9568   17.2637   85.2154 C   0  0  0  0  0  0  0  0  0  0  0  0
   41.9028   15.4275   84.2697 C   0  0  0  0  0  0  0  0  0  0  0  0
   43.0516   15.7516   83.6696 C   0  0  0  0  0  0  0  0  0  0  0  0
   36.2752   17.8251   86.8861 C   0  0  0  0  0  0  0  0  0  0  0  0
   38.1359   14.6796   86.2063 C   0  0  0  0  0  0  0  0  0  0  0  0
   41.5369   13.6151   82.7631 C   0  0  0  0  0  0  0  0  0  0  0  0
   44.9504   14.7946   80.5420 C   0  0  0  0  0  0  0  0  0  0  0  0
   44.5603   13.3738   80.4818 C   0  0  0  0  0  0  0  0  0  0  0  0
   34.5456   18.3891   88.5897 C   0  0  0  0  0  0  0  0  0  0  0  0
   39.8599   14.0305   84.5057 C   0  0  0  0  0  0  0  0  0  0  0  0
   35.4705   17.4562   87.9669 C   0  0  0  0  0  0  0  0  0  0  0  0
   38.9457   15.0225   85.1295 C   0  0  0  0  0  0  0  0  0  0  0  0
   41.0977   14.3750   83.8618 C   0  0  0  0  0  0  0  0  0  0  0  0
   37.1590   16.8948   86.3102 C   0  0  0  0  0  0  0  0  0  0  0  0
   37.2431   15.5987   86.8152 C   0  0  0  0  0  0  0  0  0  0  0  0
   43.4827   14.9987   82.5799 C   0  0  0  0  0  0  0  0  0  0  0  0
   42.7290   13.9185   82.1141 C   0  0  0  0  0  0  0  0  0  0  0  0
   44.8193   15.4027   81.9143 C   0  0  0  0  0  0  0  0  0  0  0  0
   43.1478   13.0586   80.9312 C   0  0  0  0  0  0  0  0  0  0  0  0
   34.3737   17.2785   90.1275 H   0  0  0  0  0  0  0  0  0  0  0  0
   44.0413   17.0874   80.9760 H   0  0  0  0  0  0  0  0  0  0  0  0
   44.6607   17.4048   82.4533 H   0  0  0  0  0  0  0  0  0  0  0  0
   45.6593   17.1594   81.1848 H   0  0  0  0  0  0  0  0  0  0  0  0
   45.9840   14.1114   83.0809 H   0  0  0  0  0  0  0  0  0  0  0  0
   46.8398   15.3572   82.4626 H   0  0  0  0  0  0  0  0  0  0  0  0
   45.8411   15.6026   83.7311 H   0  0  0  0  0  0  0  0  0  0  0  0
   42.1990   14.3249   79.5605 H   0  0  0  0  0  0  0  0  0  0  0  0
   42.4258   12.8150   78.9814 H   0  0  0  0  0  0  0  0  0  0  0  0
   41.2412   13.1034   80.0678 H   0  0  0  0  0  0  0  0  0  0  0  0
   43.7700   11.4251   82.0433 H   0  0  0  0  0  0  0  0  0  0  0  0
   42.2045   11.3348   81.5876 H   0  0  0  0  0  0  0  0  0  0  0  0
   43.3891   11.0463   80.5012 H   0  0  0  0  0  0  0  0  0  0  0  0
   34.9737   15.8530   89.2790 H   0  0  0  0  0  0  0  0  0  0  0  0
   39.3761   16.6310   83.8704 H   0  0  0  0  0  0  0  0  0  0  0  0
   36.5079   14.3059   88.2936 H   0  0  0  0  0  0  0  0  0  0  0  0
   37.9001   18.1910   84.8453 H   0  0  0  0  0  0  0  0  0  0  0  0
   41.6080   15.9728   85.0544 H   0  0  0  0  0  0  0  0  0  0  0  0
   43.5947   16.5242   83.9984 H   0  0  0  0  0  0  0  0  0  0  0  0
   36.2226   18.7543   86.5205 H   0  0  0  0  0  0  0  0  0  0  0  0
   38.1847   13.7478   86.5661 H   0  0  0  0  0  0  0  0  0  0  0  0
   40.9840   12.8455   82.4438 H   0  0  0  0  0  0  0  0  0  0  0  0
   44.3679   15.3086   79.9124 H   0  0  0  0  0  0  0  0  0  0  0  0
   45.9044   14.8724   80.2524 H   0  0  0  0  0  0  0  0  0  0  0  0
   45.1897   12.8578   81.0629 H   0  0  0  0  0  0  0  0  0  0  0  0
   44.6561   13.0692   79.5341 H   0  0  0  0  0  0  0  0  0  0  0  0
  1 19  1  0  0  0  0
  2 19  2  0  0  0  0
  3 20  2  0  0  0  0
  4 28  1  0  0  0  0
  5 28  1  0  0  0  0
  6 29  1  0  0  0  0
  7 29  1  0  0  0  0
  8 10  1  0  0  0  0
  8 21  2  0  0  0  0
  9 11  2  0  0  0  0
  9 22  1  0  0  0  0
 10 25  2  0  0  0  0
 11 24  1  0  0  0  0
 12 13  1  0  0  0  0
 12 23  2  0  0  0  0
 13 26  2  0  0  0  0
 14 21  1  0  0  0  0
 14 24  2  0  0  0  0
 15 22  2  0  0  0  0
 15 25  1  0  0  0  0
 16 23  1  0  0  0  0
 16 27  2  0  0  0  0
 17 18  1  0  0  0  0
 17 28  1  0  0  0  0
 18 29  1  0  0  0  0
 19 21  1  0  0  0  0
 20 22  1  0  0  0  0
 20 23  1  0  0  0  0
 24 25  1  0  0  0  0
 26 27  1  0  0  0  0
 26 28  1  0  0  0  0
 27 29  1  0  0  0  0
  1 30  1  0  0  0  0
  4 31  1  0  0  0  0
  4 32  1  0  0  0  0
  4 33  1  0  0  0  0
  5 34  1  0  0  0  0
  5 35  1  0  0  0  0
  5 36  1  0  0  0  0
  6 37  1  0  0  0  0
  6 38  1  0  0  0  0
  6 39  1  0  0  0  0
  7 40  1  0  0  0  0
  7 41  1  0  0  0  0
  7 42  1  0  0  0  0
  8 43  1  0  0  0  0
  9 44  1  0  0  0  0
 10 45  1  0  0  0  0
 11 46  1  0  0  0  0
 12 47  1  0  0  0  0
 13 48  1  0  0  0  0
 14 49  1  0  0  0  0
 15 50  1  0  0  0  0
 16 51  1  0  0  0  0
 17 52  1  0  0  0  0
 17 53  1  0  0  0  0
 18 54  1  0  0  0  0
 18 55  1  0  0  0  0
M  END
> <pdb_id>
1FCY

> <uniprot_id>
P13631

> <usmiles>
O=C(O)c1cc2c(cc(cc2)C(=O)c3cc4c(cc3)C(CCC4(C)C)(C)C)cc1

$$$$
56N_D_202
          07192422123D 1   1.00000     0.00000     0
            
 34 35  0  0  0  0            999 V2000
   15.6299   15.4660   63.4096 O   0  0  0  0  0  0  0  0  0  0  0  0
   12.3225   13.9828   68.5670 O   0  0  0  0  0  0  0  0  0  0  0  0
   11.8743   11.9124   66.5851 O   0  0  0  0  0  0  0  0  0  0  0  0
   12.1312   13.2735   64.3164 O   0  0  0  0  0  0  0  0  0  0  0  0
   13.3611   16.3370   67.5668 O   0  0  0  0  0  0  0  0  0  0  0  0
   13.9443   15.2812   65.6039 O   0  0  0  0  0  0  0  0  0  0  0  0
   14.6303   14.4642   63.4696 C   0  0  0  0  0  0  0  0  0  0  0  0
   16.4592   18.8701   68.7406 C   0  0  0  0  0  0  0  0  0  0  0  0
   16.7802   17.5825   68.3170 C   0  0  0  0  0  0  0  0  0  0  0  0
   15.1412   19.2925   68.7681 C   0  0  0  0  0  0  0  0  0  0  0  0
   15.7693   16.7157   67.9197 C   0  0  0  0  0  0  0  0  0  0  0  0
   14.1340   18.4309   68.3734 C   0  0  0  0  0  0  0  0  0  0  0  0
   13.7283   15.1185   66.9897 C   0  0  2  0  0  0  0  0  0  0  0  0
   14.4428   17.1481   67.9510 C   0  0  0  0  0  0  0  0  0  0  0  0
   12.5863   14.1407   67.1818 C   0  0  1  0  0  0  0  0  0  0  0  0
   12.9558   12.8267   66.5227 C   0  0  2  0  0  0  0  0  0  0  0  0
   13.3209   13.0311   65.0647 C   0  0  2  0  0  0  0  0  0  0  0  0
   14.3639   14.1281   64.9183 C   0  0  2  0  0  0  0  0  0  0  0  0
   15.8141   15.6962   62.4540 H   0  0  0  0  0  0  0  0  0  0  0  0
   11.5689   13.3374   68.6913 H   0  0  0  0  0  0  0  0  0  0  0  0
   12.1379   11.0537   66.1457 H   0  0  0  0  0  0  0  0  0  0  0  0
   12.3648   13.4092   63.3536 H   0  0  0  0  0  0  0  0  0  0  0  0
   14.9446   13.6466   62.9872 H   0  0  0  0  0  0  0  0  0  0  0  0
   13.7909   14.8010   63.0430 H   0  0  0  0  0  0  0  0  0  0  0  0
   17.1863   19.4940   69.0271 H   0  0  0  0  0  0  0  0  0  0  0  0
   17.7342   17.2832   68.2989 H   0  0  0  0  0  0  0  0  0  0  0  0
   14.9179   20.2184   69.0725 H   0  0  0  0  0  0  0  0  0  0  0  0
   15.9906   15.7897   67.6138 H   0  0  0  0  0  0  0  0  0  0  0  0
   13.1813   18.7343   68.3930 H   0  0  0  0  0  0  0  0  0  0  0  0
   14.5567   14.7681   67.4268 H   0  0  0  0  0  0  0  0  0  0  0  0
   11.7691   14.5068   66.7369 H   0  0  0  0  0  0  0  0  0  0  0  0
   13.7408   12.4333   67.0013 H   0  0  0  0  0  0  0  0  0  0  0  0
   13.7243   12.1799   64.7290 H   0  0  0  0  0  0  0  0  0  0  0  0
   15.2174   13.8090   65.3303 H   0  0  0  0  0  0  0  0  0  0  0  0
  1  7  1  0  0  0  0
  2 15  1  0  0  0  0
  3 16  1  0  0  0  0
  4 17  1  0  0  0  0
  5 13  1  0  0  0  0
  5 14  1  0  0  0  0
  6 13  1  0  0  0  0
  6 18  1  0  0  0  0
  7 18  1  0  0  0  0
  8  9  2  0  0  0  0
  8 10  1  0  0  0  0
  9 11  1  0  0  0  0
 10 12  2  0  0  0  0
 11 14  2  0  0  0  0
 12 14  1  0  0  0  0
 13 15  1  0  0  0  0
 15 16  1  0  0  0  0
 16 17  1  0  0  0  0
 17 18  1  0  0  0  0
  1 19  1  0  0  0  0
  2 20  1  0  0  0  0
  3 21  1  0  0  0  0
  4 22  1  0  0  0  0
  7 23  1  0  0  0  0
  7 24  1  0  0  0  0
  8 25  1  0  0  0  0
  9 26  1  0  0  0  0
 10 27  1  0  0  0  0
 11 28  1  0  0  0  0
 12 29  1  0  0  0  0
 13 30  1  0  0  0  0
 15 31  1  0  0  0  0
 16 32  1  0  0  0  0
 17 33  1  0  0  0  0
 18 34  1  0  0  0  0
M  END
> <pdb_id>
5D21

> <uniprot_id>
nan

> <usmiles>
O(c1ccccc1)[C@@H]2O[C@@H]([C@H](O)[C@H](O)[C@H]2O)CO

$$$$
571_A_1501
          07192418053D 1   1.00000     0.00000     0
            
 60 64  0  0  0  0            999 V2000
    3.8400   18.0920    7.0360 O   0  0  0  0  0  0  0  0  0  0  0  0
    7.3130   13.0450    9.2030 O   0  0  0  0  0  0  0  0  0  0  0  0
    9.1010   14.3230    7.7080 O   0  0  0  0  0  0  0  0  0  0  0  0
    1.7790   15.9590    9.9250 N   0  0  0  0  0  0  0  0  0  0  0  0
    2.3810   14.7560   10.3330 N   0  0  0  0  0  0  0  0  0  0  0  0
    2.2720   17.9350    8.6380 N   0  0  0  0  0  0  0  0  0  0  0  0
    0.9430   26.6050    5.9270 N   0  0  0  0  0  0  0  0  0  0  0  0
    5.6430   14.5890    9.0590 N   0  0  0  0  0  0  0  0  0  0  0  0
    1.1200   23.7830    6.0910 N   0  0  0  0  0  0  0  0  0  0  0  0
    0.4420   27.9150    5.6210 C   0  0  0  0  0  0  0  0  0  0  0  0
    1.8540   25.9520    4.9950 C   0  0  0  0  0  0  0  0  0  0  0  0
    0.5440   25.9700    7.1580 C   0  0  0  0  0  0  0  0  0  0  0  0
    1.6000   24.4180    4.8520 C   0  0  0  0  0  0  0  0  0  0  0  0
    0.1620   24.4930    6.9420 C   0  0  0  0  0  0  0  0  0  0  0  0
    4.6820   13.7800    9.8980 C   0  0  0  0  0  0  0  0  0  0  0  0
    5.1280   15.8840    8.5550 C   0  0  0  0  0  0  0  0  0  0  0  0
    9.2020   18.3150   10.7710 C   0  0  0  0  0  0  0  0  0  0  0  0
    8.8760   18.5790    9.4090 C   0  0  0  0  0  0  0  0  0  0  0  0
    9.1440   16.9880   11.2660 C   0  0  0  0  0  0  0  0  0  0  0  0
    8.4860   17.5180    8.5450 C   0  0  0  0  0  0  0  0  0  0  0  0
    8.7610   15.9350   10.4100 C   0  0  0  0  0  0  0  0  0  0  0  0
    2.8580   22.0440    6.0740 C   0  0  0  0  0  0  0  0  0  0  0  0
    0.7120   21.6420    7.2500 C   0  0  0  0  0  0  0  0  0  0  0  0
    3.2920   20.7510    6.4610 C   0  0  0  0  0  0  0  0  0  0  0  0
    1.1510   20.3610    7.6320 C   0  0  0  0  0  0  0  0  0  0  0  0
    2.8910   18.5990    7.6350 C   0  0  0  0  0  0  0  0  0  0  0  0
    2.5990   16.6350    9.2050 C   0  0  0  0  0  0  0  0  0  0  0  0
    6.9540   14.1570    8.8070 C   0  0  0  0  0  0  0  0  0  0  0  0
    7.9790   15.0640    8.1000 C   0  0  1  0  0  0  0  0  0  0  0  0
    3.5600   14.7400    9.8430 C   0  0  0  0  0  0  0  0  0  0  0  0
    1.5650   22.5010    6.4650 C   0  0  0  0  0  0  0  0  0  0  0  0
    2.4380   19.9130    7.2410 C   0  0  0  0  0  0  0  0  0  0  0  0
    8.4280   16.1920    9.0410 C   0  0  0  0  0  0  0  0  0  0  0  0
    3.7930   15.8220    9.1470 C   0  0  0  0  0  0  0  0  0  0  0  0
    9.7555   14.9256    7.2514 H   0  0  0  0  0  0  0  0  0  0  0  0
    1.9641   14.0460   10.9005 H   0  0  0  0  0  0  0  0  0  0  0  0
    1.4848   18.3992    9.0440 H   0  0  0  0  0  0  0  0  0  0  0  0
   -0.1653   28.2195    6.3549 H   0  0  0  0  0  0  0  0  0  0  0  0
    1.2073   28.5530    5.5354 H   0  0  0  0  0  0  0  0  0  0  0  0
   -0.0650   27.8851    4.7596 H   0  0  0  0  0  0  0  0  0  0  0  0
    2.7903   26.0895    5.3180 H   0  0  0  0  0  0  0  0  0  0  0  0
    1.7458   26.3764    4.0960 H   0  0  0  0  0  0  0  0  0  0  0  0
   -0.2450   26.4570    7.5326 H   0  0  0  0  0  0  0  0  0  0  0  0
    1.3033   26.0164    7.8071 H   0  0  0  0  0  0  0  0  0  0  0  0
    0.9147   24.2761    4.1377 H   0  0  0  0  0  0  0  0  0  0  0  0
    2.4574   23.9791    4.5832 H   0  0  0  0  0  0  0  0  0  0  0  0
    0.1252   24.0381    7.8318 H   0  0  0  0  0  0  0  0  0  0  0  0
   -0.7394   24.4549    6.5107 H   0  0  0  0  0  0  0  0  0  0  0  0
    4.7745   12.8894   10.3433 H   0  0  0  0  0  0  0  0  0  0  0  0
    5.5601   16.5837    7.9860 H   0  0  0  0  0  0  0  0  0  0  0  0
    9.4711   19.0643   11.3762 H   0  0  0  0  0  0  0  0  0  0  0  0
    8.9216   19.5146    9.0588 H   0  0  0  0  0  0  0  0  0  0  0  0
    9.3743   16.7990   12.2206 H   0  0  0  0  0  0  0  0  0  0  0  0
    8.2536   17.7075    7.5910 H   0  0  0  0  0  0  0  0  0  0  0  0
    8.7215   14.9999   10.7622 H   0  0  0  0  0  0  0  0  0  0  0  0
    3.4556   22.6326    5.5296 H   0  0  0  0  0  0  0  0  0  0  0  0
   -0.1961   21.9588    7.5240 H   0  0  0  0  0  0  0  0  0  0  0  0
    4.1971   20.4253    6.1875 H   0  0  0  0  0  0  0  0  0  0  0  0
    0.5576   19.7689    8.1772 H   0  0  0  0  0  0  0  0  0  0  0  0
    7.5540   15.4658    7.2889 H   0  0  0  0  0  0  0  0  0  0  0  0
  1 26  2  0  0  0  0
  2 28  2  0  0  0  0
  3 29  1  0  0  0  0
  4  5  1  0  0  0  0
  4 27  2  0  0  0  0
  5 30  1  0  0  0  0
  6 26  1  0  0  0  0
  6 27  1  0  0  0  0
  7 10  1  0  0  0  0
  7 11  1  0  0  0  0
  7 12  1  0  0  0  0
  8 15  1  0  0  0  0
  8 16  1  0  0  0  0
  8 28  1  0  0  0  0
  9 13  1  0  0  0  0
  9 14  1  0  0  0  0
  9 31  1  0  0  0  0
 11 13  1  0  0  0  0
 12 14  1  0  0  0  0
 15 30  2  0  0  0  0
 16 34  2  0  0  0  0
 17 18  2  0  0  0  0
 17 19  1  0  0  0  0
 18 20  1  0  0  0  0
 19 21  2  0  0  0  0
 20 33  2  0  0  0  0
 21 33  1  0  0  0  0
 22 24  1  0  0  0  0
 22 31  2  0  0  0  0
 23 25  2  0  0  0  0
 23 31  1  0  0  0  0
 24 32  2  0  0  0  0
 25 32  1  0  0  0  0
 26 32  1  0  0  0  0
 27 34  1  0  0  0  0
 28 29  1  0  0  0  0
 29 33  1  0  0  0  0
 30 34  1  0  0  0  0
  3 35  1  0  0  0  0
  5 36  1  0  0  0  0
  6 37  1  0  0  0  0
 10 38  1  0  0  0  0
 10 39  1  0  0  0  0
 10 40  1  0  0  0  0
 11 41  1  0  0  0  0
 11 42  1  0  0  0  0
 12 43  1  0  0  0  0
 12 44  1  0  0  0  0
 13 45  1  0  0  0  0
 13 46  1  0  0  0  0
 14 47  1  0  0  0  0
 14 48  1  0  0  0  0
 15 49  1  0  0  0  0
 16 50  1  0  0  0  0
 17 51  1  0  0  0  0
 18 52  1  0  0  0  0
 19 53  1  0  0  0  0
 20 54  1  0  0  0  0
 21 55  1  0  0  0  0
 22 56  1  0  0  0  0
 23 57  1  0  0  0  0
 24 58  1  0  0  0  0
 25 59  1  0  0  0  0
 29 60  1  0  0  0  0
M  END
> <pdb_id>
2XBA

> <uniprot_id>
Q9UM73

> <usmiles>
O=C(NC1=NNC=2C1=CN(C(=O)[C@H](O)c3ccccc3)C2)c4ccc(N5CCN(CC5)C)cc4

$$$$
57L_C_2301
          07202409163D 1   1.00000     0.00000     0
            
 65 68  0  0  0  0            999 V2000
   23.9930  -17.7600  -55.6980 O   0  0  0  0  0  0  0  0  0  0  0  0
   29.2410  -21.1360  -61.7740 O   0  0  0  0  0  0  0  0  0  0  0  0
   21.9520  -18.3540  -56.4990 O   0  0  0  0  0  0  0  0  0  0  0  0
   26.7870  -17.3160  -66.7690 N   0  0  0  0  0  0  0  0  0  0  0  0
   27.8770  -16.8210  -66.1050 N   0  0  0  0  0  0  0  0  0  0  0  0
   27.1970  -20.5360  -60.9640 N   0  0  0  0  0  0  0  0  0  0  0  0
   23.8090  -19.4860  -57.2210 N   0  0  0  0  0  0  0  0  0  0  0  0
   30.1960  -16.3960  -64.1290 C   0  0  0  0  0  0  0  0  0  0  0  0
   25.5290  -20.8210  -56.0670 C   0  0  0  0  0  0  0  0  0  0  0  0
   19.2870  -18.5390  -55.4110 C   0  0  0  0  0  0  0  0  0  0  0  0
   19.3260  -16.0510  -55.2780 C   0  0  0  0  0  0  0  0  0  0  0  0
   19.5600  -17.1810  -57.4850 C   0  0  0  0  0  0  0  0  0  0  0  0
   26.3130  -18.3500  -66.0430 C   0  0  0  0  0  0  0  0  0  0  0  0
   29.1480  -18.3690  -62.9730 C   0  0  0  0  0  0  0  0  0  0  0  0
   27.1270  -19.4560  -63.8230 C   0  0  0  0  0  0  0  0  0  0  0  0
   21.4190  -17.2540  -55.7770 C   0  0  0  0  0  0  0  0  0  0  0  0
   26.0230  -19.6590  -60.9840 C   0  0  0  0  0  0  0  0  0  0  0  0
   27.0660  -21.7050  -60.0920 C   0  0  0  0  0  0  0  0  0  0  0  0
   23.0630  -20.2840  -58.2030 C   0  0  0  0  0  0  0  0  0  0  0  0
   25.6650  -19.2190  -59.5680 C   0  0  0  0  0  0  0  0  0  0  0  0
   26.7020  -21.2880  -58.6680 C   0  0  0  0  0  0  0  0  0  0  0  0
   24.1460  -21.1210  -58.9150 C   0  0  0  0  0  0  0  0  0  0  0  0
   23.3090  -18.4830  -56.4210 C   0  0  0  0  0  0  0  0  0  0  0  0
   28.2600  -20.4020  -61.8510 C   0  0  0  0  0  0  0  0  0  0  0  0
   28.1290  -17.5380  -64.9400 C   0  0  0  0  0  0  0  0  0  0  0  0
   29.1520  -17.4370  -63.9840 C   0  0  0  0  0  0  0  0  0  0  0  0
   27.1240  -18.5370  -64.8690 C   0  0  0  0  0  0  0  0  0  0  0  0
   28.1450  -19.3600  -62.9000 C   0  0  0  0  0  0  0  0  0  0  0  0
   25.2450  -19.8260  -57.1900 C   0  0  1  0  0  0  0  0  0  0  0  0
   19.8960  -17.2720  -55.9990 C   0  0  0  0  0  0  0  0  0  0  0  0
   25.4700  -20.4000  -58.6160 C   0  0  0  0  0  0  0  0  0  0  0  0
   28.3940  -16.0340  -66.4760 H   0  0  0  0  0  0  0  0  0  0  0  0
   30.8690  -16.6200  -64.9710 H   0  0  0  0  0  0  0  0  0  0  0  0
   29.7670  -15.4000  -64.3150 H   0  0  0  0  0  0  0  0  0  0  0  0
   30.8310  -16.3000  -63.2350 H   0  0  0  0  0  0  0  0  0  0  0  0
   25.0570  -21.8010  -56.2250 H   0  0  0  0  0  0  0  0  0  0  0  0
   26.6070  -20.9870  -55.9300 H   0  0  0  0  0  0  0  0  0  0  0  0
   25.1510  -20.4520  -55.1020 H   0  0  0  0  0  0  0  0  0  0  0  0
   19.6770  -19.4490  -55.8900 H   0  0  0  0  0  0  0  0  0  0  0  0
   18.1940  -18.5630  -55.5310 H   0  0  0  0  0  0  0  0  0  0  0  0
   19.4870  -18.6370  -54.3340 H   0  0  0  0  0  0  0  0  0  0  0  0
   19.7050  -15.1060  -55.6930 H   0  0  0  0  0  0  0  0  0  0  0  0
   18.2300  -16.0080  -55.3530 H   0  0  0  0  0  0  0  0  0  0  0  0
   19.5660  -16.0460  -54.2040 H   0  0  0  0  0  0  0  0  0  0  0  0
   19.9060  -18.0600  -58.0470 H   0  0  0  0  0  0  0  0  0  0  0  0
   20.0140  -16.2990  -57.9610 H   0  0  0  0  0  0  0  0  0  0  0  0
   18.4760  -17.1090  -57.6530 H   0  0  0  0  0  0  0  0  0  0  0  0
   25.4460  -18.9310  -66.3440 H   0  0  0  0  0  0  0  0  0  0  0  0
   29.9370  -18.3660  -62.2130 H   0  0  0  0  0  0  0  0  0  0  0  0
   26.3590  -20.2330  -63.7720 H   0  0  0  0  0  0  0  0  0  0  0  0
   21.8680  -16.3000  -56.1340 H   0  0  0  0  0  0  0  0  0  0  0  0
   21.6670  -17.3350  -54.6960 H   0  0  0  0  0  0  0  0  0  0  0  0
   26.1930  -18.7450  -61.6000 H   0  0  0  0  0  0  0  0  0  0  0  0
   25.1650  -20.1830  -61.4720 H   0  0  0  0  0  0  0  0  0  0  0  0
   26.2800  -22.3890  -60.4960 H   0  0  0  0  0  0  0  0  0  0  0  0
   28.0030  -22.3090  -60.0800 H   0  0  0  0  0  0  0  0  0  0  0  0
   22.5030  -19.6260  -58.9050 H   0  0  0  0  0  0  0  0  0  0  0  0
   22.2870  -20.9150  -57.7150 H   0  0  0  0  0  0  0  0  0  0  0  0
   24.7580  -18.5780  -59.6040 H   0  0  0  0  0  0  0  0  0  0  0  0
   26.4700  -18.5540  -59.1870 H   0  0  0  0  0  0  0  0  0  0  0  0
   27.5620  -20.7600  -58.2010 H   0  0  0  0  0  0  0  0  0  0  0  0
   26.5620  -22.2090  -58.0650 H   0  0  0  0  0  0  0  0  0  0  0  0
   23.9370  -21.2240  -59.9950 H   0  0  0  0  0  0  0  0  0  0  0  0
   24.1590  -22.1630  -58.5370 H   0  0  0  0  0  0  0  0  0  0  0  0
   25.8640  -18.9070  -57.0060 H   0  0  0  0  0  0  0  0  0  0  0  0
  1 23  2  0  0  0  0
  2 24  2  0  0  0  0
  3 16  1  0  0  0  0
  3 23  1  0  0  0  0
  4  5  1  0  0  0  0
  4 13  2  0  0  0  0
  5 25  1  0  0  0  0
  5 32  1  0  0  0  0
  6 17  1  0  0  0  0
  6 18  1  0  0  0  0
  6 24  1  0  0  0  0
  7 19  1  0  0  0  0
  7 23  1  0  0  0  0
  7 29  1  0  0  0  0
  8 26  1  0  0  0  0
  8 33  1  0  0  0  0
  8 34  1  0  0  0  0
  8 35  1  0  0  0  0
  9 29  1  0  0  0  0
  9 36  1  0  0  0  0
  9 37  1  0  0  0  0
  9 38  1  0  0  0  0
 10 30  1  0  0  0  0
 10 39  1  0  0  0  0
 10 40  1  0  0  0  0
 10 41  1  0  0  0  0
 11 30  1  0  0  0  0
 11 42  1  0  0  0  0
 11 43  1  0  0  0  0
 11 44  1  0  0  0  0
 12 30  1  0  0  0  0
 12 45  1  0  0  0  0
 12 46  1  0  0  0  0
 12 47  1  0  0  0  0
 13 27  1  0  0  0  0
 13 48  1  0  0  0  0
 14 26  1  0  0  0  0
 14 28  2  0  0  0  0
 14 49  1  0  0  0  0
 15 27  2  0  0  0  0
 15 28  1  0  0  0  0
 15 50  1  0  0  0  0
 16 30  1  0  0  0  0
 16 51  1  0  0  0  0
 16 52  1  0  0  0  0
 17 20  1  0  0  0  0
 17 53  1  0  0  0  0
 17 54  1  0  0  0  0
 18 21  1  0  0  0  0
 18 55  1  0  0  0  0
 18 56  1  0  0  0  0
 19 22  1  0  0  0  0
 19 57  1  0  0  0  0
 19 58  1  0  0  0  0
 20 31  1  0  0  0  0
 20 59  1  0  0  0  0
 20 60  1  0  0  0  0
 21 31  1  0  0  0  0
 21 61  1  0  0  0  0
 21 62  1  0  0  0  0
 22 31  1  0  0  0  0
 22 63  1  0  0  0  0
 22 64  1  0  0  0  0
 24 28  1  0  0  0  0
 25 26  2  0  0  0  0
 25 27  1  0  0  0  0
 29 31  1  0  0  0  0
 29 65  1  0  0  0  0
M  END
> <pdb_id>
5CTE

> <uniprot_id>
Q00955

> <usmiles>
O=C(OCC(C)(C)C)N1[C@H](C2(CC1)CCN(C(=O)c3cc4c(NN=C4)c(c3)C)CC2)C

$$$$
57N_B_1102
          07202416103D 1   1.00000     0.00000     0
            
 40 43  0  0  0  0            999 V2000
  -19.4420  -16.1960    9.1780 S   0  0  0  0  0  0  0  0  0  0  0  0
  -18.6160  -15.6770   11.8670 O   0  0  0  0  0  0  0  0  0  0  0  0
  -14.8990  -15.5240   13.0050 O   0  0  0  0  0  0  0  0  0  0  0  0
  -18.0810  -14.6750    7.7750 N   0  0  0  0  0  0  0  0  0  0  0  0
  -17.7820  -14.2820   10.2390 N   0  0  0  0  0  0  0  0  0  0  0  0
  -17.0220  -14.8970   13.7680 N   0  0  0  0  0  0  0  0  0  0  0  0
  -19.6460  -16.4470    7.6110 C   0  0  0  0  0  0  0  0  0  0  0  0
  -18.8380  -15.5480    6.8660 C   0  0  0  0  0  0  0  0  0  0  0  0
  -17.8330  -15.3420   14.8820 C   0  0  0  0  0  0  0  0  0  0  0  0
  -20.2550  -11.0660   14.2030 C   0  0  0  0  0  0  0  0  0  0  0  0
  -20.6220  -12.0000   13.2470 C   0  0  0  0  0  0  0  0  0  0  0  0
  -18.9590  -11.0490   14.6960 C   0  0  0  0  0  0  0  0  0  0  0  0
  -16.3990  -18.1030   17.2600 C   0  0  0  0  0  0  0  0  0  0  0  0
  -15.1770  -18.2800   16.6030 C   0  0  0  0  0  0  0  0  0  0  0  0
  -17.3290  -17.1800   16.7850 C   0  0  0  0  0  0  0  0  0  0  0  0
  -19.6860  -12.9150   12.7890 C   0  0  0  0  0  0  0  0  0  0  0  0
  -18.0260  -11.9610   14.2370 C   0  0  0  0  0  0  0  0  0  0  0  0
  -14.8850  -17.5270   15.4670 C   0  0  0  0  0  0  0  0  0  0  0  0
  -18.3590  -14.9830    9.1050 C   0  0  0  0  0  0  0  0  0  0  0  0
  -17.9830  -14.7080   11.6130 C   0  0  0  0  0  0  0  0  0  0  0  0
  -15.7860  -15.6430   13.7800 C   0  0  0  0  0  0  0  0  0  0  0  0
  -17.3680  -13.9120   12.7630 C   0  0  1  0  0  0  0  0  0  0  0  0
  -17.0340  -16.4220   15.6400 C   0  0  0  0  0  0  0  0  0  0  0  0
  -18.3890  -12.9010   13.2840 C   0  0  0  0  0  0  0  0  0  0  0  0
  -15.8220  -16.5960   14.9900 C   0  0  0  0  0  0  0  0  0  0  0  0
  -17.2224  -13.4714   10.0663 H   0  0  0  0  0  0  0  0  0  0  0  0
  -20.2532  -17.1357    7.2147 H   0  0  0  0  0  0  0  0  0  0  0  0
  -18.7907  -15.5136    5.8677 H   0  0  0  0  0  0  0  0  0  0  0  0
  -18.6923  -15.7271   14.5455 H   0  0  0  0  0  0  0  0  0  0  0  0
  -18.0281  -14.5726   15.4903 H   0  0  0  0  0  0  0  0  0  0  0  0
  -20.9254  -10.4037   14.5376 H   0  0  0  0  0  0  0  0  0  0  0  0
  -21.5559  -12.0140   12.8897 H   0  0  0  0  0  0  0  0  0  0  0  0
  -18.6978  -10.3744   15.3864 H   0  0  0  0  0  0  0  0  0  0  0  0
  -16.6068  -18.6423   18.0760 H   0  0  0  0  0  0  0  0  0  0  0  0
  -14.5145  -18.9451   16.9474 H   0  0  0  0  0  0  0  0  0  0  0  0
  -18.2021  -17.0580   17.2571 H   0  0  0  0  0  0  0  0  0  0  0  0
  -19.9469  -13.5891   12.0979 H   0  0  0  0  0  0  0  0  0  0  0  0
  -17.0912  -11.9427   14.5917 H   0  0  0  0  0  0  0  0  0  0  0  0
  -14.0125  -17.6491   14.9939 H   0  0  0  0  0  0  0  0  0  0  0  0
  -16.5450  -13.4379   12.4501 H   0  0  0  0  0  0  0  0  0  0  0  0
  1  7  1  0  0  0  0
  1 19  1  0  0  0  0
  2 20  2  0  0  0  0
  3 21  2  0  0  0  0
  4  8  1  0  0  0  0
  4 19  2  0  0  0  0
  5 19  1  0  0  0  0
  5 20  1  0  0  0  0
  6  9  1  0  0  0  0
  6 21  1  0  0  0  0
  6 22  1  0  0  0  0
  7  8  2  0  0  0  0
  9 23  1  0  0  0  0
 10 11  2  0  0  0  0
 10 12  1  0  0  0  0
 11 16  1  0  0  0  0
 12 17  2  0  0  0  0
 13 14  2  0  0  0  0
 13 15  1  0  0  0  0
 14 18  1  0  0  0  0
 15 23  2  0  0  0  0
 16 24  2  0  0  0  0
 17 24  1  0  0  0  0
 18 25  2  0  0  0  0
 20 22  1  0  0  0  0
 21 25  1  0  0  0  0
 22 24  1  0  0  0  0
 23 25  1  0  0  0  0
  5 26  1  0  0  0  0
  7 27  1  0  0  0  0
  8 28  1  0  0  0  0
  9 29  1  0  0  0  0
  9 30  1  0  0  0  0
 10 31  1  0  0  0  0
 11 32  1  0  0  0  0
 12 33  1  0  0  0  0
 13 34  1  0  0  0  0
 14 35  1  0  0  0  0
 15 36  1  0  0  0  0
 16 37  1  0  0  0  0
 17 38  1  0  0  0  0
 18 39  1  0  0  0  0
 22 40  1  0  0  0  0
M  END
> <pdb_id>
6Z4D

> <uniprot_id>
P00533

> <usmiles>
S1C(=NC=C1)NC(=O)[C@H](N2C(=O)c3c(cccc3)C2)c4ccccc4

$$$$
57P_A_201
          07202409203D 1   1.00000     0.00000     0
            
 52 56  0  0  0  0            999 V2000
    6.3573    5.0669   16.2388 O   0  0  0  0  0  0  0  0  0  0  0  0
    6.8435    5.9905   14.3488 O   0  0  0  0  0  0  0  0  0  0  0  0
    5.7124    8.0482   17.2655 N   0  0  0  0  0  0  0  0  0  0  0  0
    6.8305    8.4890   16.3813 C   0  0  0  0  0  0  0  0  0  0  0  0
    2.9768    8.4186   12.9673 C   0  0  0  0  0  0  0  0  0  0  0  0
   -0.1783    5.4045   18.2822 C   0  0  0  0  0  0  0  0  0  0  0  0
    3.3683    9.4740   13.8142 C   0  0  0  0  0  0  0  0  0  0  0  0
    2.9909    7.0706   13.4533 C   0  0  0  0  0  0  0  0  0  0  0  0
    0.9475    4.7712   18.8652 C   0  0  0  0  0  0  0  0  0  0  0  0
   -0.0297    6.6550   17.6162 C   0  0  0  0  0  0  0  0  0  0  0  0
    7.6737    7.1970   16.2809 C   0  0  0  0  0  0  0  0  0  0  0  0
    3.8619    9.1614   15.1043 C   0  0  0  0  0  0  0  0  0  0  0  0
    3.4932    6.7721   14.7425 C   0  0  0  0  0  0  0  0  0  0  0  0
    2.2338    5.3876   18.7713 C   0  0  0  0  0  0  0  0  0  0  0  0
    1.2340    7.2333   17.4801 C   0  0  0  0  0  0  0  0  0  0  0  0
    7.0154    8.0483   19.4266 C   0  0  0  0  0  0  0  0  0  0  0  0
    6.8376    7.7169   20.7742 C   0  0  0  0  0  0  0  0  0  0  0  0
    5.5220    8.2047   23.2225 C   0  0  0  0  0  0  0  0  0  0  0  0
    6.5884    7.2076   23.6390 C   0  0  0  0  0  0  0  0  0  0  0  0
    4.5378    6.9780   20.4882 C   0  0  0  0  0  0  0  0  0  0  0  0
    6.9853    5.9875   15.6319 C   0  0  0  0  0  0  0  0  0  0  0  0
    5.9181    7.8500   18.5896 C   0  0  0  0  0  0  0  0  0  0  0  0
    4.4563    7.6891   16.9043 C   0  0  0  0  0  0  0  0  0  0  0  0
    3.9043    7.8273   15.5332 C   0  0  0  0  0  0  0  0  0  0  0  0
    5.3917    6.8038   22.7740 C   0  0  0  0  0  0  0  0  0  0  0  0
    5.6267    7.1862   21.3064 C   0  0  0  0  0  0  0  0  0  0  0  0
    2.3306    6.6251   18.1086 C   0  0  0  0  0  0  0  0  0  0  0  0
    4.6656    7.2534   19.1515 C   0  0  0  0  0  0  0  0  0  0  0  0
    3.7285    7.1624   18.0402 C   0  0  0  0  0  0  0  0  0  0  0  0
    6.4147    4.9949   17.2346 H   0  0  0  0  0  0  0  0  0  0  0  0
    7.3523    9.2342   16.7965 H   0  0  0  0  0  0  0  0  0  0  0  0
    6.4949    8.7766   15.4842 H   0  0  0  0  0  0  0  0  0  0  0  0
    2.6896    8.6097   12.0287 H   0  0  0  0  0  0  0  0  0  0  0  0
   -1.0785    4.9728   18.3383 H   0  0  0  0  0  0  0  0  0  0  0  0
    3.2991   10.4243   13.5107 H   0  0  0  0  0  0  0  0  0  0  0  0
    2.6420    6.3328   12.8754 H   0  0  0  0  0  0  0  0  0  0  0  0
    0.8426    3.8974   19.3400 H   0  0  0  0  0  0  0  0  0  0  0  0
   -0.8333    7.1202   17.2449 H   0  0  0  0  0  0  0  0  0  0  0  0
    7.9415    6.9346   17.2080 H   0  0  0  0  0  0  0  0  0  0  0  0
    8.4912    7.4070   15.7447 H   0  0  0  0  0  0  0  0  0  0  0  0
    4.1799    9.8917   15.7089 H   0  0  0  0  0  0  0  0  0  0  0  0
    3.5486    5.8288   15.0698 H   0  0  0  0  0  0  0  0  0  0  0  0
    3.0426    4.9514   19.1656 H   0  0  0  0  0  0  0  0  0  0  0  0
    1.3552    8.0681   16.9430 H   0  0  0  0  0  0  0  0  0  0  0  0
    7.8826    8.4079   19.0823 H   0  0  0  0  0  0  0  0  0  0  0  0
    7.6042    7.8606   21.4000 H   0  0  0  0  0  0  0  0  0  0  0  0
    5.7431    8.9196   22.5591 H   0  0  0  0  0  0  0  0  0  0  0  0
    4.8885    8.5682   23.9055 H   0  0  0  0  0  0  0  0  0  0  0  0
    6.6508    6.9022   24.5892 H   0  0  0  0  0  0  0  0  0  0  0  0
    7.5054    7.2537   23.2428 H   0  0  0  0  0  0  0  0  0  0  0  0
    3.6755    6.6345   20.8604 H   0  0  0  0  0  0  0  0  0  0  0  0
    4.6668    6.1863   23.0794 H   0  0  0  0  0  0  0  0  0  0  0  0
  1 21  1  0  0  0  0
  2 21  2  0  0  0  0
  3  4  1  0  0  0  0
  3 22  1  0  0  0  0
  3 23  1  0  0  0  0
  4 11  1  0  0  0  0
  5  7  2  0  0  0  0
  5  8  1  0  0  0  0
  6  9  2  0  0  0  0
  6 10  1  0  0  0  0
  7 12  1  0  0  0  0
  8 13  2  0  0  0  0
  9 14  1  0  0  0  0
 10 15  2  0  0  0  0
 11 21  1  0  0  0  0
 12 24  2  0  0  0  0
 13 24  1  0  0  0  0
 14 27  2  0  0  0  0
 15 27  1  0  0  0  0
 16 17  1  0  0  0  0
 16 22  2  0  0  0  0
 17 26  2  0  0  0  0
 18 19  1  0  0  0  0
 18 25  1  0  0  0  0
 19 25  1  0  0  0  0
 20 26  1  0  0  0  0
 20 28  2  0  0  0  0
 22 28  1  0  0  0  0
 23 24  1  0  0  0  0
 23 29  2  0  0  0  0
 25 26  1  0  0  0  0
 27 29  1  0  0  0  0
 28 29  1  0  0  0  0
  1 30  1  0  0  0  0
  4 31  1  0  0  0  0
  4 32  1  0  0  0  0
  5 33  1  0  0  0  0
  6 34  1  0  0  0  0
  7 35  1  0  0  0  0
  8 36  1  0  0  0  0
  9 37  1  0  0  0  0
 10 38  1  0  0  0  0
 11 39  1  0  0  0  0
 11 40  1  0  0  0  0
 12 41  1  0  0  0  0
 13 42  1  0  0  0  0
 14 43  1  0  0  0  0
 15 44  1  0  0  0  0
 16 45  1  0  0  0  0
 17 46  1  0  0  0  0
 18 47  1  0  0  0  0
 18 48  1  0  0  0  0
 19 49  1  0  0  0  0
 19 50  1  0  0  0  0
 20 51  1  0  0  0  0
 25 52  1  0  0  0  0
M  END
> <pdb_id>
5D45

> <uniprot_id>
P15090

> <usmiles>
O=C(O)CCN1c2c(cc(cc2)C3CC3)C(c4ccccc4)=C1c5ccccc5

$$$$
57U_B_301
          07202413493D 1   1.00000     0.00000     0
            
 32 33  0  0  0  0            999 V2000
  -13.0105  -17.3432  -30.7444 S   0  0  0  0  0  0  0  0  0  0  0  0
  -10.6896  -20.1000  -33.5269 O   0  0  0  0  0  0  0  0  0  0  0  0
  -15.5150  -16.2348  -30.1704 O   0  0  0  0  0  0  0  0  0  0  0  0
  -17.2568  -15.9536  -31.5613 N   0  0  0  0  0  0  0  0  0  0  0  0
   -9.5301  -19.5120  -31.1676 N   0  0  0  0  0  0  0  0  0  0  0  0
  -15.3828  -17.1771  -32.1942 N   0  0  0  0  0  0  0  0  0  0  0  0
  -13.7872  -18.8349  -32.7244 N   0  0  0  0  0  0  0  0  0  0  0  0
  -19.5320  -15.6534  -30.6073 C   0  0  0  0  0  0  0  0  0  0  0  0
  -18.1396  -15.1151  -30.7573 C   0  0  0  0  0  0  0  0  0  0  0  0
  -11.9652  -20.5523  -33.1134 C   0  0  0  0  0  0  0  0  0  0  0  0
   -8.5018  -19.4861  -30.2712 C   0  0  0  0  0  0  0  0  0  0  0  0
   -8.9560  -18.8599  -29.0916 C   0  0  0  0  0  0  0  0  0  0  0  0
  -10.2925  -18.4874  -29.2565 C   0  0  0  0  0  0  0  0  0  0  0  0
  -14.1561  -17.7722  -31.9758 C   0  0  0  0  0  0  0  0  0  0  0  0
  -16.0317  -16.4285  -31.2646 C   0  0  0  0  0  0  0  0  0  0  0  0
  -11.9618  -18.6475  -31.2107 C   0  0  0  0  0  0  0  0  0  0  0  0
  -12.5592  -19.3663  -32.3828 C   0  0  0  0  0  0  0  0  0  0  0  0
  -10.6095  -18.9051  -30.5484 C   0  0  0  0  0  0  0  0  0  0  0  0
  -10.2218  -20.8307  -34.0240 H   0  0  0  0  0  0  0  0  0  0  0  0
  -17.6114  -16.2123  -32.4598 H   0  0  0  0  0  0  0  0  0  0  0  0
   -9.5084  -19.8945  -32.0913 H   0  0  0  0  0  0  0  0  0  0  0  0
  -15.8175  -17.3042  -33.0858 H   0  0  0  0  0  0  0  0  0  0  0  0
  -20.0731  -15.0266  -30.0466 H   0  0  0  0  0  0  0  0  0  0  0  0
  -19.9540  -15.7424  -31.5095 H   0  0  0  0  0  0  0  0  0  0  0  0
  -19.4970  -16.5499  -30.1657 H   0  0  0  0  0  0  0  0  0  0  0  0
  -18.1963  -14.2150  -31.1894 H   0  0  0  0  0  0  0  0  0  0  0  0
  -17.7394  -15.0225  -29.8456 H   0  0  0  0  0  0  0  0  0  0  0  0
  -11.8818  -21.3398  -32.5029 H   0  0  0  0  0  0  0  0  0  0  0  0
  -12.5268  -20.8005  -33.9028 H   0  0  0  0  0  0  0  0  0  0  0  0
   -7.5827  -19.8492  -30.4243 H   0  0  0  0  0  0  0  0  0  0  0  0
   -8.4088  -18.7070  -28.2687 H   0  0  0  0  0  0  0  0  0  0  0  0
  -10.8866  -18.0260  -28.5976 H   0  0  0  0  0  0  0  0  0  0  0  0
  1 14  1  0  0  0  0
  1 16  1  0  0  0  0
  2 10  1  0  0  0  0
  3 15  2  0  0  0  0
  4  9  1  0  0  0  0
  4 15  1  0  0  0  0
  5 11  1  0  0  0  0
  5 18  1  0  0  0  0
  6 14  1  0  0  0  0
  6 15  1  0  0  0  0
  7 14  2  0  0  0  0
  7 17  1  0  0  0  0
  8  9  1  0  0  0  0
 10 17  1  0  0  0  0
 11 12  2  0  0  0  0
 12 13  1  0  0  0  0
 13 18  2  0  0  0  0
 16 17  2  0  0  0  0
 16 18  1  0  0  0  0
  2 19  1  0  0  0  0
  4 20  1  0  0  0  0
  5 21  1  0  0  0  0
  6 22  1  0  0  0  0
  8 23  1  0  0  0  0
  8 24  1  0  0  0  0
  8 25  1  0  0  0  0
  9 26  1  0  0  0  0
  9 27  1  0  0  0  0
 10 28  1  0  0  0  0
 10 29  1  0  0  0  0
 11 30  1  0  0  0  0
 12 31  1  0  0  0  0
 13 32  1  0  0  0  0
M  END
> <pdb_id>
5D6P

> <uniprot_id>
P0A0K8

> <usmiles>
S1C(=NC(=C1C=2NC=CC2)CO)NC(=O)NCC

$$$$
57W_B_303
          07202413493D 1   1.00000     0.00000     0
            
 45 48  0  0  0  0            999 V2000
  -15.8111  -15.9145  -29.6552 O   0  0  0  0  0  0  0  0  0  0  0  0
   -9.3234  -23.2319  -33.3464 N   0  0  0  0  0  0  0  0  0  0  0  0
  -17.3197  -16.3634  -31.2742 N   0  0  0  0  0  0  0  0  0  0  0  0
  -11.1233  -15.6459  -28.5374 N   0  0  0  0  0  0  0  0  0  0  0  0
  -13.2229  -19.2527  -32.5638 N   0  0  0  0  0  0  0  0  0  0  0  0
  -15.2132  -17.2290  -31.4440 N   0  0  0  0  0  0  0  0  0  0  0  0
  -11.8834  -17.1607  -30.0884 N   0  0  0  0  0  0  0  0  0  0  0  0
  -19.6272  -15.9852  -30.7753 C   0  0  0  0  0  0  0  0  0  0  0  0
  -18.2709  -15.3431  -30.7635 C   0  0  0  0  0  0  0  0  0  0  0  0
   -8.0914  -22.8371  -33.4404 C   0  0  0  0  0  0  0  0  0  0  0  0
  -10.1454  -14.9693  -27.7326 C   0  0  0  0  0  0  0  0  0  0  0  0
  -10.1913  -22.2308  -33.0068 C   0  0  0  0  0  0  0  0  0  0  0  0
  -12.2134  -20.0649  -32.8724 C   0  0  0  0  0  0  0  0  0  0  0  0
  -13.1230  -16.6345  -30.0512 C   0  0  0  0  0  0  0  0  0  0  0  0
   -8.8584  -15.4787  -27.7179 C   0  0  0  0  0  0  0  0  0  0  0  0
   -7.6484  -21.5630  -33.2137 C   0  0  0  0  0  0  0  0  0  0  0  0
   -8.5450  -16.4868  -28.5187 C   0  0  0  0  0  0  0  0  0  0  0  0
   -9.5272  -17.0595  -29.3599 C   0  0  0  0  0  0  0  0  0  0  0  0
   -8.5018  -20.5427  -32.7873 C   0  0  0  0  0  0  0  0  0  0  0  0
  -10.6725  -19.0535  -31.3442 C   0  0  0  0  0  0  0  0  0  0  0  0
  -16.1192  -16.5004  -30.7375 C   0  0  0  0  0  0  0  0  0  0  0  0
  -10.8079  -16.6550  -29.3393 C   0  0  0  0  0  0  0  0  0  0  0  0
  -13.8532  -17.2598  -31.0461 C   0  0  0  0  0  0  0  0  0  0  0  0
  -12.9994  -18.3016  -31.6454 C   0  0  0  0  0  0  0  0  0  0  0  0
  -11.7236  -18.2108  -30.9796 C   0  0  0  0  0  0  0  0  0  0  0  0
   -9.8581  -20.9645  -32.7098 C   0  0  0  0  0  0  0  0  0  0  0  0
  -10.9232  -20.0126  -32.3235 C   0  0  0  0  0  0  0  0  0  0  0  0
  -17.5910  -16.9544  -32.0340 H   0  0  0  0  0  0  0  0  0  0  0  0
  -15.5082  -17.7454  -32.2480 H   0  0  0  0  0  0  0  0  0  0  0  0
  -20.3072  -15.3342  -30.4379 H   0  0  0  0  0  0  0  0  0  0  0  0
  -19.8597  -16.2558  -31.7095 H   0  0  0  0  0  0  0  0  0  0  0  0
  -19.6186  -16.7934  -30.1865 H   0  0  0  0  0  0  0  0  0  0  0  0
  -18.2646  -14.5372  -31.3555 H   0  0  0  0  0  0  0  0  0  0  0  0
  -18.0234  -15.0747  -29.8325 H   0  0  0  0  0  0  0  0  0  0  0  0
   -7.4092  -23.5206  -33.7000 H   0  0  0  0  0  0  0  0  0  0  0  0
  -10.3860  -14.1574  -27.2006 H   0  0  0  0  0  0  0  0  0  0  0  0
  -11.1634  -22.4633  -32.9771 H   0  0  0  0  0  0  0  0  0  0  0  0
  -12.3904  -20.7739  -33.5549 H   0  0  0  0  0  0  0  0  0  0  0  0
  -13.4521  -15.9279  -29.4249 H   0  0  0  0  0  0  0  0  0  0  0  0
   -8.1696  -15.0884  -27.1069 H   0  0  0  0  0  0  0  0  0  0  0  0
   -6.6810  -21.3549  -33.3581 H   0  0  0  0  0  0  0  0  0  0  0  0
   -7.6110  -16.8438  -28.5284 H   0  0  0  0  0  0  0  0  0  0  0  0
   -9.2598  -17.7885  -29.9900 H   0  0  0  0  0  0  0  0  0  0  0  0
   -8.1936  -19.6185  -32.5616 H   0  0  0  0  0  0  0  0  0  0  0  0
   -9.7716  -18.9719  -30.9179 H   0  0  0  0  0  0  0  0  0  0  0  0
  1 21  2  0  0  0  0
  2 10  2  0  0  0  0
  2 12  1  0  0  0  0
  3  9  1  0  0  0  0
  3 21  1  0  0  0  0
  4 11  1  0  0  0  0
  4 22  2  0  0  0  0
  5 13  1  0  0  0  0
  5 24  2  0  0  0  0
  6 21  1  0  0  0  0
  6 23  1  0  0  0  0
  7 14  1  0  0  0  0
  7 22  1  0  0  0  0
  7 25  1  0  0  0  0
  8  9  1  0  0  0  0
 10 16  1  0  0  0  0
 11 15  2  0  0  0  0
 12 26  2  0  0  0  0
 13 27  2  0  0  0  0
 14 23  2  0  0  0  0
 15 17  1  0  0  0  0
 16 19  2  0  0  0  0
 17 18  2  0  0  0  0
 18 22  1  0  0  0  0
 19 26  1  0  0  0  0
 20 25  2  0  0  0  0
 20 27  1  0  0  0  0
 23 24  1  0  0  0  0
 24 25  1  0  0  0  0
 26 27  1  0  0  0  0
  3 28  1  0  0  0  0
  6 29  1  0  0  0  0
  8 30  1  0  0  0  0
  8 31  1  0  0  0  0
  8 32  1  0  0  0  0
  9 33  1  0  0  0  0
  9 34  1  0  0  0  0
 10 35  1  0  0  0  0
 11 36  1  0  0  0  0
 12 37  1  0  0  0  0
 13 38  1  0  0  0  0
 14 39  1  0  0  0  0
 15 40  1  0  0  0  0
 16 41  1  0  0  0  0
 17 42  1  0  0  0  0
 18 43  1  0  0  0  0
 19 44  1  0  0  0  0
 20 45  1  0  0  0  0
M  END
> <pdb_id>
5D7C

> <uniprot_id>
P0A0K8

> <usmiles>
O=C(NC=1c2ncc(c3cnccc3)cc2N(c4ncccc4)C1)NCC

$$$$
57X_B_308
          07202413493D 1   1.00000     0.00000     0
            
 39 42  0  0  0  0            999 V2000
  -12.0270  -20.1074  -32.5250 S   0  0  0  0  0  0  0  0  0  0  0  0
  -16.0610  -14.3487  -28.4673 O   0  0  0  0  0  0  0  0  0  0  0  0
  -15.4261  -17.2620  -32.1260 N   0  0  0  0  0  0  0  0  0  0  0  0
  -14.3856  -18.0926  -32.5436 N   0  0  0  0  0  0  0  0  0  0  0  0
   -9.3237  -23.5744  -33.3178 N   0  0  0  0  0  0  0  0  0  0  0  0
   -9.9659  -19.2627  -31.3884 N   0  0  0  0  0  0  0  0  0  0  0  0
  -15.8708  -15.6731  -30.3065 N   0  0  0  0  0  0  0  0  0  0  0  0
  -19.6238  -15.9423  -30.9328 C   0  0  0  0  0  0  0  0  0  0  0  0
   -7.9846  -23.4800  -33.2089 C   0  0  0  0  0  0  0  0  0  0  0  0
  -10.0247  -22.5143  -32.9312 C   0  0  0  0  0  0  0  0  0  0  0  0
  -10.9708  -18.3472  -31.0680 C   0  0  0  0  0  0  0  0  0  0  0  0
  -17.1897  -15.2539  -30.8080 C   0  0  0  0  0  0  0  0  0  0  0  0
  -18.1730  -16.3433  -30.4817 C   0  0  0  0  0  0  0  0  0  0  0  0
   -7.3809  -22.3146  -32.8713 C   0  0  0  0  0  0  0  0  0  0  0  0
  -14.0642  -15.6093  -28.6376 C   0  0  0  0  0  0  0  0  0  0  0  0
   -8.1280  -21.1815  -32.4867 C   0  0  0  0  0  0  0  0  0  0  0  0
  -13.2844  -16.4607  -29.4026 C   0  0  0  0  0  0  0  0  0  0  0  0
  -10.2921  -20.2321  -32.2148 C   0  0  0  0  0  0  0  0  0  0  0  0
  -15.3650  -15.1631  -29.1121 C   0  0  0  0  0  0  0  0  0  0  0  0
  -12.1566  -18.6849  -31.6940 C   0  0  0  0  0  0  0  0  0  0  0  0
  -15.1158  -16.5774  -30.9934 C   0  0  0  0  0  0  0  0  0  0  0  0
  -13.4566  -17.9600  -31.5718 C   0  0  0  0  0  0  0  0  0  0  0  0
   -9.4719  -21.3380  -32.5796 C   0  0  0  0  0  0  0  0  0  0  0  0
  -13.8390  -17.0077  -30.5488 C   0  0  0  0  0  0  0  0  0  0  0  0
  -16.3000  -17.1798  -32.6051 H   0  0  0  0  0  0  0  0  0  0  0  0
  -20.2593  -16.6804  -30.7062 H   0  0  0  0  0  0  0  0  0  0  0  0
  -19.9011  -15.1064  -30.4591 H   0  0  0  0  0  0  0  0  0  0  0  0
  -19.6342  -15.7849  -31.9203 H   0  0  0  0  0  0  0  0  0  0  0  0
   -7.4225  -24.2889  -33.3812 H   0  0  0  0  0  0  0  0  0  0  0  0
  -11.0209  -22.5946  -32.8995 H   0  0  0  0  0  0  0  0  0  0  0  0
  -10.8494  -17.5562  -30.4683 H   0  0  0  0  0  0  0  0  0  0  0  0
  -17.1495  -15.1171  -31.7977 H   0  0  0  0  0  0  0  0  0  0  0  0
  -17.4669  -14.4015  -30.3647 H   0  0  0  0  0  0  0  0  0  0  0  0
  -17.9026  -17.1813  -30.9557 H   0  0  0  0  0  0  0  0  0  0  0  0
  -18.1695  -16.5028  -29.4945 H   0  0  0  0  0  0  0  0  0  0  0  0
   -6.3829  -22.2565  -32.8955 H   0  0  0  0  0  0  0  0  0  0  0  0
  -13.7291  -15.2976  -27.7485 H   0  0  0  0  0  0  0  0  0  0  0  0
   -7.7020  -20.3334  -32.1718 H   0  0  0  0  0  0  0  0  0  0  0  0
  -12.3451  -16.6752  -29.1347 H   0  0  0  0  0  0  0  0  0  0  0  0
  1 18  1  0  0  0  0
  1 20  1  0  0  0  0
  2 19  2  0  0  0  0
  3  4  1  0  0  0  0
  3 21  1  0  0  0  0
  4 22  2  0  0  0  0
  5  9  2  0  0  0  0
  5 10  1  0  0  0  0
  6 11  1  0  0  0  0
  6 18  2  0  0  0  0
  7 12  1  0  0  0  0
  7 19  1  0  0  0  0
  7 21  1  0  0  0  0
  8 13  1  0  0  0  0
  9 14  1  0  0  0  0
 10 23  2  0  0  0  0
 11 20  2  0  0  0  0
 12 13  1  0  0  0  0
 14 16  2  0  0  0  0
 15 17  2  0  0  0  0
 15 19  1  0  0  0  0
 16 23  1  0  0  0  0
 17 24  1  0  0  0  0
 18 23  1  0  0  0  0
 20 22  1  0  0  0  0
 21 24  2  0  0  0  0
 22 24  1  0  0  0  0
  3 25  1  0  0  0  0
  8 26  1  0  0  0  0
  8 27  1  0  0  0  0
  8 28  1  0  0  0  0
  9 29  1  0  0  0  0
 10 30  1  0  0  0  0
 11 31  1  0  0  0  0
 12 32  1  0  0  0  0
 12 33  1  0  0  0  0
 13 34  1  0  0  0  0
 13 35  1  0  0  0  0
 14 36  1  0  0  0  0
 15 37  1  0  0  0  0
 16 38  1  0  0  0  0
 17 39  1  0  0  0  0
M  END
> <pdb_id>
5D7D

> <uniprot_id>
P0A0K8

> <usmiles>
S1C(=NC=C1C2=NNC=3N(C(=O)C=CC32)CCC)c4cnccc4

$$$$
58G_A_301
          07192415533D 1   1.00000     0.00000     0
            
 40 42  0  0  0  0            999 V2000
   45.7356    1.2874    6.5262 O   0  0  0  0  0  0  0  0  0  0  0  0
   46.8307    3.0994    5.6472 N   0  0  0  0  0  0  0  0  0  0  0  0
   43.4453    3.8206    8.8889 N   0  0  0  0  0  0  0  0  0  0  0  0
   42.6372    6.0568    9.1790 N   0  0  0  0  0  0  0  0  0  0  0  0
   46.8262    8.0978   12.1373 C   0  0  0  0  0  0  0  0  0  0  0  0
   45.8127    8.5388   11.3276 C   0  0  0  0  0  0  0  0  0  0  0  0
   46.6059    7.0840   13.0379 C   0  0  0  0  0  0  0  0  0  0  0  0
   44.2421    3.0119    8.1891 C   0  0  0  0  0  0  0  0  0  0  0  0
   44.5709    7.9624   11.4237 C   0  0  0  0  0  0  0  0  0  0  0  0
   45.3623    6.5103   13.1256 C   0  0  0  0  0  0  0  0  0  0  0  0
   44.1847    5.5842    7.4868 C   0  0  0  0  0  0  0  0  0  0  0  0
   41.1635    6.7036   10.9059 C   0  0  0  0  0  0  0  0  0  0  0  0
   44.9993    4.7428    6.7751 C   0  0  0  0  0  0  0  0  0  0  0  0
   42.0033    7.3514   11.9705 C   0  0  0  0  0  0  0  0  0  0  0  0
   42.9636    5.2015   11.4158 C   0  0  0  0  0  0  0  0  0  0  0  0
   45.8848    2.4873    6.4153 C   0  0  0  0  0  0  0  0  0  0  0  0
   43.4268    5.1039    8.5286 C   0  0  0  0  0  0  0  0  0  0  0  0
   41.9619    5.5579   10.3499 C   0  0  2  0  0  0  0  0  0  0  0  0
   45.0242    3.4261    7.1416 C   0  0  0  0  0  0  0  0  0  0  0  0
   44.3448    6.9506   12.3179 C   0  0  0  0  0  0  0  0  0  0  0  0
   43.0073    6.3319   12.4070 C   0  0  1  0  0  0  0  0  0  0  0  0
   46.8801    4.0977    5.6160 H   0  0  0  0  0  0  0  0  0  0  0  0
   47.4750    2.5500    5.1152 H   0  0  0  0  0  0  0  0  0  0  0  0
   42.5489    7.0005    8.8600 H   0  0  0  0  0  0  0  0  0  0  0  0
   47.7320    8.5165   12.0724 H   0  0  0  0  0  0  0  0  0  0  0  0
   45.9766    9.2754   10.6714 H   0  0  0  0  0  0  0  0  0  0  0  0
   47.3485    6.7654   13.6269 H   0  0  0  0  0  0  0  0  0  0  0  0
   44.2709    2.0452    8.4435 H   0  0  0  0  0  0  0  0  0  0  0  0
   43.8271    8.2831   10.8373 H   0  0  0  0  0  0  0  0  0  0  0  0
   45.1979    5.7710   13.7787 H   0  0  0  0  0  0  0  0  0  0  0  0
   44.1413    6.5540    7.2469 H   0  0  0  0  0  0  0  0  0  0  0  0
   40.9589    7.3625   10.1820 H   0  0  0  0  0  0  0  0  0  0  0  0
   40.3089    6.3665   11.3010 H   0  0  0  0  0  0  0  0  0  0  0  0
   45.5552    5.0798    6.0153 H   0  0  0  0  0  0  0  0  0  0  0  0
   41.4301    7.6234   12.7435 H   0  0  0  0  0  0  0  0  0  0  0  0
   42.4678    8.1561   11.6007 H   0  0  0  0  0  0  0  0  0  0  0  0
   43.8664    5.0752   11.0047 H   0  0  0  0  0  0  0  0  0  0  0  0
   42.6854    4.3578   11.8748 H   0  0  0  0  0  0  0  0  0  0  0  0
   41.3749    4.7795   10.1273 H   0  0  0  0  0  0  0  0  0  0  0  0
   42.8175    6.0092   13.3343 H   0  0  0  0  0  0  0  0  0  0  0  0
  1 16  2  0  0  0  0
  2 16  1  0  0  0  0
  3  8  1  0  0  0  0
  3 17  2  0  0  0  0
  4 17  1  0  0  0  0
  4 18  1  0  0  0  0
  5  6  2  0  0  0  0
  5  7  1  0  0  0  0
  6  9  1  0  0  0  0
  7 10  2  0  0  0  0
  8 19  2  0  0  0  0
  9 20  2  0  0  0  0
 10 20  1  0  0  0  0
 11 13  2  0  0  0  0
 11 17  1  0  0  0  0
 12 14  1  0  0  0  0
 12 18  1  0  0  0  0
 13 19  1  0  0  0  0
 14 21  1  0  0  0  0
 15 18  1  0  0  0  0
 15 21  1  0  0  0  0
 16 19  1  0  0  0  0
 20 21  1  0  0  0  0
  2 22  1  0  0  0  0
  2 23  1  0  0  0  0
  4 24  1  0  0  0  0
  5 25  1  0  0  0  0
  6 26  1  0  0  0  0
  7 27  1  0  0  0  0
  8 28  1  0  0  0  0
  9 29  1  0  0  0  0
 10 30  1  0  0  0  0
 11 31  1  0  0  0  0
 12 32  1  0  0  0  0
 12 33  1  0  0  0  0
 13 34  1  0  0  0  0
 14 35  1  0  0  0  0
 14 36  1  0  0  0  0
 15 37  1  0  0  0  0
 15 38  1  0  0  0  0
 18 39  1  0  0  0  0
 21 40  1  0  0  0  0
M  END
> <pdb_id>
5D9F

> <uniprot_id>
P43912

> <usmiles>
O=C(N)c1cnc(N[C@H]2C[C@@H](c3ccccc3)CC2)cc1

$$$$
58T_A_1158
          07192416543D 1   1.00000     0.00000     0
            
 45 48  0  0  0  0            999 V2000
   18.5991   21.3259    3.8316 O   0  0  0  0  0  0  0  0  0  0  0  0
   11.5186   20.7424    4.9002 O   0  0  0  0  0  0  0  0  0  0  0  0
   12.7755   17.9985    5.2810 O   0  0  0  0  0  0  0  0  0  0  0  0
   12.0449   23.7037    4.7156 O   0  0  0  0  0  0  0  0  0  0  0  0
   16.8515   17.5053    7.3009 N   0  0  0  0  0  0  0  0  0  0  0  0
   14.8234   17.7729    6.2088 N   0  0  0  0  0  0  0  0  0  0  0  0
   17.7967   19.7257    5.2977 N   0  0  0  0  0  0  0  0  0  0  0  0
   14.4077   19.3274    4.4100 N   0  0  0  0  0  0  0  0  0  0  0  0
   16.3983   20.6340    3.8549 N   0  0  0  0  0  0  0  0  0  0  0  0
   16.4174   16.3673    8.0716 C   0  0  0  0  0  0  0  0  0  0  0  0
   10.8886   19.4634    5.0420 C   0  0  0  0  0  0  0  0  0  0  0  0
   10.9084   21.7942    5.6089 C   0  0  0  0  0  0  0  0  0  0  0  0
   11.7607   18.4469    4.3469 C   0  0  0  0  0  0  0  0  0  0  0  0
   11.9619   22.8327    5.8603 C   0  0  0  0  0  0  0  0  0  0  0  0
   15.9328   21.4064    2.6972 C   0  0  0  0  0  0  0  0  0  0  0  0
   14.6593   24.9666    2.5372 C   0  0  0  0  0  0  0  0  0  0  0  0
   13.5233   24.9055    3.3245 C   0  0  0  0  0  0  0  0  0  0  0  0
   15.4283   23.8368    2.3299 C   0  0  0  0  0  0  0  0  0  0  0  0
   13.9753   22.5853    3.7492 C   0  0  0  0  0  0  0  0  0  0  0  0
   17.7026   20.6559    4.3007 C   0  0  0  0  0  0  0  0  0  0  0  0
   14.0538   18.3914    5.2864 C   0  0  0  0  0  0  0  0  0  0  0  0
   16.0960   18.1068    6.3716 C   0  0  0  0  0  0  0  0  0  0  0  0
   13.1843   23.7088    3.9276 C   0  0  0  0  0  0  0  0  0  0  0  0
   15.6952   19.6863    4.5536 C   0  0  0  0  0  0  0  0  0  0  0  0
   16.5756   19.1194    5.5036 C   0  0  0  0  0  0  0  0  0  0  0  0
   15.1233   22.6485    2.9698 C   0  0  0  0  0  0  0  0  0  0  0  0
   17.7687   17.8666    7.4691 H   0  0  0  0  0  0  0  0  0  0  0  0
   18.6320   19.5149    5.8054 H   0  0  0  0  0  0  0  0  0  0  0  0
   17.1457   16.0923    8.6993 H   0  0  0  0  0  0  0  0  0  0  0  0
   15.6008   16.6110    8.5949 H   0  0  0  0  0  0  0  0  0  0  0  0
   16.2045   15.6090    7.4554 H   0  0  0  0  0  0  0  0  0  0  0  0
    9.9822   19.4809    4.6199 H   0  0  0  0  0  0  0  0  0  0  0  0
   10.8007   19.2319    6.0109 H   0  0  0  0  0  0  0  0  0  0  0  0
   10.5463   21.4567    6.4778 H   0  0  0  0  0  0  0  0  0  0  0  0
   10.1645   22.1855    5.0672 H   0  0  0  0  0  0  0  0  0  0  0  0
   11.2046   17.6692    4.0535 H   0  0  0  0  0  0  0  0  0  0  0  0
   12.1965   18.8646    3.5496 H   0  0  0  0  0  0  0  0  0  0  0  0
   11.7199   23.3663    6.6707 H   0  0  0  0  0  0  0  0  0  0  0  0
   12.8446   22.3862    6.0065 H   0  0  0  0  0  0  0  0  0  0  0  0
   15.3692   20.7982    2.1383 H   0  0  0  0  0  0  0  0  0  0  0  0
   16.7408   21.6835    2.1774 H   0  0  0  0  0  0  0  0  0  0  0  0
   14.9258   25.8334    2.1155 H   0  0  0  0  0  0  0  0  0  0  0  0
   12.9543   25.7173    3.4557 H   0  0  0  0  0  0  0  0  0  0  0  0
   16.2129   23.8786    1.7112 H   0  0  0  0  0  0  0  0  0  0  0  0
   13.7178   21.7227    4.1847 H   0  0  0  0  0  0  0  0  0  0  0  0
  1 20  2  0  0  0  0
  2 11  1  0  0  0  0
  2 12  1  0  0  0  0
  3 13  1  0  0  0  0
  3 21  1  0  0  0  0
  4 14  1  0  0  0  0
  4 23  1  0  0  0  0
  5 10  1  0  0  0  0
  5 22  1  0  0  0  0
  6 21  2  0  0  0  0
  6 22  1  0  0  0  0
  7 20  1  0  0  0  0
  7 25  1  0  0  0  0
  8 21  1  0  0  0  0
  8 24  2  0  0  0  0
  9 15  1  0  0  0  0
  9 20  1  0  0  0  0
  9 24  1  0  0  0  0
 11 13  1  0  0  0  0
 12 14  1  0  0  0  0
 15 26  1  0  0  0  0
 16 17  2  0  0  0  0
 16 18  1  0  0  0  0
 17 23  1  0  0  0  0
 18 26  2  0  0  0  0
 19 23  2  0  0  0  0
 19 26  1  0  0  0  0
 22 25  2  0  0  0  0
 24 25  1  0  0  0  0
  5 27  1  0  0  0  0
  7 28  1  0  0  0  0
 10 29  1  0  0  0  0
 10 30  1  0  0  0  0
 10 31  1  0  0  0  0
 11 32  1  0  0  0  0
 11 33  1  0  0  0  0
 12 34  1  0  0  0  0
 12 35  1  0  0  0  0
 13 36  1  0  0  0  0
 13 37  1  0  0  0  0
 14 38  1  0  0  0  0
 14 39  1  0  0  0  0
 15 40  1  0  0  0  0
 15 41  1  0  0  0  0
 16 42  1  0  0  0  0
 17 43  1  0  0  0  0
 18 44  1  0  0  0  0
 19 45  1  0  0  0  0
M  END
> <pdb_id>
5ANU

> <uniprot_id>
P36639

> <usmiles>
O=C1N2c3nc(OCCOCCOc4cc(ccc4)C2)nc(NC)c3N1

$$$$
594_A_301
          07192415263D 1   1.00000     0.00000     0
            
 65 69  0  0  0  0            999 V2000
   -3.4907   -8.6397   15.6217 S   0  0  0  0  0  0  0  0  0  0  0  0
   -4.1236   -4.9313    6.4104 S   0  0  0  0  0  0  0  0  0  0  0  0
   -2.8593    1.4574    9.7547 F   0  0  0  0  0  0  0  0  0  0  0  0
   -5.3056   -5.3402    5.7039 O   0  0  0  0  0  0  0  0  0  0  0  0
   -3.0442   -4.7504    5.4808 O   0  0  0  0  0  0  0  0  0  0  0  0
    0.9770   -8.9561   14.4950 O   0  0  0  0  0  0  0  0  0  0  0  0
   -5.7388   -5.9731    8.4826 O   0  0  0  0  0  0  0  0  0  0  0  0
   -1.8256   -0.0399    7.2338 O   0  0  0  0  0  0  0  0  0  0  0  0
   -4.4017   -3.6185    7.1576 O   0  0  0  0  0  0  0  0  0  0  0  0
   -4.9157   -1.1836    8.6043 O   0  0  0  0  0  0  0  0  0  0  0  0
   -6.3154   -1.1379   15.0154 N   0  0  0  0  0  0  0  0  0  0  0  0
   -3.7293   -6.0429    7.4933 N   0  0  0  0  0  0  0  0  0  0  0  0
   -7.9028   -0.9145   13.3010 N   0  0  0  0  0  0  0  0  0  0  0  0
   -7.2594   -0.4471   11.1059 N   0  0  0  0  0  0  0  0  0  0  0  0
   -4.2661   -0.5868   12.8768 N   0  0  0  0  0  0  0  0  0  0  0  0
   -0.5403  -10.3936   15.3356 N   0  0  0  0  0  0  0  0  0  0  0  0
   -1.0445   -9.2918   13.5215 N   0  0  0  0  0  0  0  0  0  0  0  0
   -4.8339   -0.2159   10.7825 N   0  0  0  0  0  0  0  0  0  0  0  0
   -2.7018  -10.0536   16.2978 C   0  0  0  0  0  0  0  0  0  0  0  0
   -8.2088   -0.6910   12.0164 C   0  0  0  0  0  0  0  0  0  0  0  0
   -3.3385   -2.8449    7.7125 C   0  0  0  0  0  0  0  0  0  0  0  0
   -3.8002   -0.3196   11.6357 C   0  0  0  0  0  0  0  0  0  0  0  0
   -3.6335   -8.3373   11.5657 C   0  0  0  0  0  0  0  0  0  0  0  0
   -3.9481   -7.1674   10.6412 C   0  0  0  0  0  0  0  0  0  0  0  0
   -3.3517   -7.8875   12.9951 C   0  0  0  0  0  0  0  0  0  0  0  0
   -4.2340   -7.6553    9.2237 C   0  0  0  0  0  0  0  0  0  0  0  0
   -3.4631   -9.0904   13.9228 C   0  0  1  0  0  0  0  0  0  0  0  0
   -0.1139   -9.5068   14.4480 C   0  0  0  0  0  0  0  0  0  0  0  0
   -4.6366   -6.4836    8.3601 C   0  0  0  0  0  0  0  0  0  0  0  0
   -3.5189    0.7115    8.8125 C   0  0  1  0  0  0  0  0  0  0  0  0
   -2.6972   -0.4493    8.2887 C   0  0  1  0  0  0  0  0  0  0  0  0
   -4.8037    0.0574    9.3177 C   0  0  1  0  0  0  0  0  0  0  0  0
   -6.6164   -0.9073   13.7149 C   0  0  0  0  0  0  0  0  0  0  0  0
   -3.7714   -1.3850    7.7611 C   0  0  2  0  0  0  0  0  0  0  0  0
   -5.9560   -0.4308   11.4719 C   0  0  0  0  0  0  0  0  0  0  0  0
   -1.9421  -10.6907   15.1452 C   0  0  1  0  0  0  0  0  0  0  0  0
   -2.2640  -10.0250   13.8056 C   0  0  2  0  0  0  0  0  0  0  0  0
   -5.6110   -0.6594   12.7905 C   0  0  0  0  0  0  0  0  0  0  0  0
   -1.2994   -0.8269    6.9117 H   0  0  0  0  0  0  0  0  0  0  0  0
   -5.3618   -1.1315   15.3167 H   0  0  0  0  0  0  0  0  0  0  0  0
   -7.0467   -1.3145   15.6742 H   0  0  0  0  0  0  0  0  0  0  0  0
   -2.7982   -6.4069    7.5179 H   0  0  0  0  0  0  0  0  0  0  0  0
    0.0330  -10.8038   16.0448 H   0  0  0  0  0  0  0  0  0  0  0  0
   -0.9189   -8.6978   12.7270 H   0  0  0  0  0  0  0  0  0  0  0  0
   -3.3807  -10.6908   16.6626 H   0  0  0  0  0  0  0  0  0  0  0  0
   -2.0707   -9.7861   17.0260 H   0  0  0  0  0  0  0  0  0  0  0  0
   -9.1674   -0.7067   11.7319 H   0  0  0  0  0  0  0  0  0  0  0  0
   -2.5227   -2.9352    7.1413 H   0  0  0  0  0  0  0  0  0  0  0  0
   -3.1351   -3.1666    8.6373 H   0  0  0  0  0  0  0  0  0  0  0  0
   -2.8364   -0.2153   11.3906 H   0  0  0  0  0  0  0  0  0  0  0  0
   -2.8290   -8.8167   11.2151 H   0  0  0  0  0  0  0  0  0  0  0  0
   -4.4158   -8.9603   11.5732 H   0  0  0  0  0  0  0  0  0  0  0  0
   -3.1651   -6.5457   10.6218 H   0  0  0  0  0  0  0  0  0  0  0  0
   -4.7505   -6.6821   10.9886 H   0  0  0  0  0  0  0  0  0  0  0  0
   -4.0177   -7.1923   13.2655 H   0  0  0  0  0  0  0  0  0  0  0  0
   -2.4294   -7.5051   13.0508 H   0  0  0  0  0  0  0  0  0  0  0  0
   -4.9767   -8.3246    9.2449 H   0  0  0  0  0  0  0  0  0  0  0  0
   -3.4120   -8.0813    8.8456 H   0  0  0  0  0  0  0  0  0  0  0  0
   -4.2969   -9.5974   13.7041 H   0  0  0  0  0  0  0  0  0  0  0  0
   -3.7496    1.3073    8.0432 H   0  0  0  0  0  0  0  0  0  0  0  0
   -2.1813   -0.8817    9.0283 H   0  0  0  0  0  0  0  0  0  0  0  0
   -5.5806    0.6404    9.0798 H   0  0  0  0  0  0  0  0  0  0  0  0
   -4.0104   -1.0974    6.8337 H   0  0  0  0  0  0  0  0  0  0  0  0
   -2.1016  -11.6772   15.1073 H   0  0  0  0  0  0  0  0  0  0  0  0
   -2.4276  -10.7167   13.1022 H   0  0  0  0  0  0  0  0  0  0  0  0
  1 19  1  0  0  0  0
  1 27  1  0  0  0  0
  2  4  2  0  0  0  0
  2  5  2  0  0  0  0
  2  9  1  0  0  0  0
  2 12  1  0  0  0  0
  3 30  1  0  0  0  0
  6 28  2  0  0  0  0
  7 29  2  0  0  0  0
  8 31  1  0  0  0  0
  9 21  1  0  0  0  0
 10 32  1  0  0  0  0
 10 34  1  0  0  0  0
 11 33  1  0  0  0  0
 12 29  1  0  0  0  0
 13 20  1  0  0  0  0
 13 33  2  0  0  0  0
 14 20  2  0  0  0  0
 14 35  1  0  0  0  0
 15 22  2  0  0  0  0
 15 38  1  0  0  0  0
 16 28  1  0  0  0  0
 16 36  1  0  0  0  0
 17 28  1  0  0  0  0
 17 37  1  0  0  0  0
 18 22  1  0  0  0  0
 18 32  1  0  0  0  0
 18 35  1  0  0  0  0
 19 36  1  0  0  0  0
 21 34  1  0  0  0  0
 23 24  1  0  0  0  0
 23 25  1  0  0  0  0
 24 26  1  0  0  0  0
 25 27  1  0  0  0  0
 26 29  1  0  0  0  0
 27 37  1  0  0  0  0
 30 31  1  0  0  0  0
 30 32  1  0  0  0  0
 31 34  1  0  0  0  0
 33 38  1  0  0  0  0
 35 38  2  0  0  0  0
 36 37  1  0  0  0  0
  8 39  1  0  0  0  0
 11 40  1  0  0  0  0
 11 41  1  0  0  0  0
 12 42  1  0  0  0  0
 16 43  1  0  0  0  0
 17 44  1  0  0  0  0
 19 45  1  0  0  0  0
 19 46  1  0  0  0  0
 20 47  1  0  0  0  0
 21 48  1  0  0  0  0
 21 49  1  0  0  0  0
 22 50  1  0  0  0  0
 23 51  1  0  0  0  0
 23 52  1  0  0  0  0
 24 53  1  0  0  0  0
 24 54  1  0  0  0  0
 25 55  1  0  0  0  0
 25 56  1  0  0  0  0
 26 57  1  0  0  0  0
 26 58  1  0  0  0  0
 27 59  1  0  0  0  0
 30 60  1  0  0  0  0
 31 61  1  0  0  0  0
 32 62  1  0  0  0  0
 34 63  1  0  0  0  0
 36 64  1  0  0  0  0
 37 65  1  0  0  0  0
M  END
> <pdb_id>
4XTZ

> <uniprot_id>
nan

> <usmiles>
S(=O)(=O)(OC[C@H]1O[C@@H](N2c3ncnc(N)c3N=C2)[C@@H](F)[C@@H]1O)NC(=O)CCCC[C@@H]4SC[C@@H]5NC(=O)N[C@@H]54

$$$$
59K_A_601
          07202405373D 1   1.00000     0.00000     0
            
 41 44  0  0  0  0            999 V2000
   10.6573   15.0592   13.4108 S   0  0  0  0  0  0  0  0  0  0  0  0
   14.7843    6.6785   13.0915 S   0  0  0  0  0  0  0  0  0  0  0  0
   17.7720    6.3826   12.0430 F   0  0  0  0  0  0  0  0  0  0  0  0
   17.7775    8.3070   11.0400 F   0  0  0  0  0  0  0  0  0  0  0  0
   19.3146    7.8391   12.4993 F   0  0  0  0  0  0  0  0  0  0  0  0
    9.9166   15.0051   10.9445 N   0  0  0  0  0  0  0  0  0  0  0  0
    9.1361   16.0171   11.5692 N   0  0  0  0  0  0  0  0  0  0  0  0
   12.2454    6.7443   12.1986 N   0  0  0  0  0  0  0  0  0  0  0  0
   11.2960    8.7156   11.3691 N   0  0  0  0  0  0  0  0  0  0  0  0
   11.5795   13.4368   11.4842 N   0  0  0  0  0  0  0  0  0  0  0  0
   12.4303   10.6849   11.2752 N   0  0  0  0  0  0  0  0  0  0  0  0
    8.7143   17.1560   13.7984 C   0  0  0  0  0  0  0  0  0  0  0  0
   11.1350    7.3885   11.6988 C   0  0  0  0  0  0  0  0  0  0  0  0
   11.5020   12.7336   10.2236 C   0  0  0  0  0  0  0  0  0  0  0  0
   12.4597   12.8930   12.4747 C   0  0  0  0  0  0  0  0  0  0  0  0
   11.2921   11.2443   10.4905 C   0  0  0  0  0  0  0  0  0  0  0  0
   13.3007   11.7002   11.9256 C   0  0  0  0  0  0  0  0  0  0  0  0
   14.8284    9.1058   12.4114 C   0  0  0  0  0  0  0  0  0  0  0  0
   17.1509    8.3081   13.3232 C   0  0  0  0  0  0  0  0  0  0  0  0
   10.7594   14.4250   11.8129 C   0  0  0  0  0  0  0  0  0  0  0  0
    9.4161   16.1503   12.8842 C   0  0  0  0  0  0  0  0  0  0  0  0
   13.3937    7.3744   12.4153 C   0  0  0  0  0  0  0  0  0  0  0  0
   15.6787    8.1657   12.9137 C   0  0  0  0  0  0  0  0  0  0  0  0
   12.4673    9.3607   11.5908 C   0  0  0  0  0  0  0  0  0  0  0  0
   13.5446    8.7006   12.1235 C   0  0  0  0  0  0  0  0  0  0  0  0
   18.0309    7.6958   12.1988 C   0  0  0  0  0  0  0  0  0  0  0  0
    8.0395   17.6719   13.2706 H   0  0  0  0  0  0  0  0  0  0  0  0
    8.2548   16.6679   14.5404 H   0  0  0  0  0  0  0  0  0  0  0  0
    9.3898   17.7858   14.1818 H   0  0  0  0  0  0  0  0  0  0  0  0
   10.2602    6.9182   11.5819 H   0  0  0  0  0  0  0  0  0  0  0  0
   12.3525   12.8654    9.7144 H   0  0  0  0  0  0  0  0  0  0  0  0
   10.7350   13.0888    9.6892 H   0  0  0  0  0  0  0  0  0  0  0  0
   11.9141   12.5726   13.2491 H   0  0  0  0  0  0  0  0  0  0  0  0
   13.0831   13.6123   12.7810 H   0  0  0  0  0  0  0  0  0  0  0  0
   10.4447   11.1194   11.0064 H   0  0  0  0  0  0  0  0  0  0  0  0
   11.2256   10.7605    9.6179 H   0  0  0  0  0  0  0  0  0  0  0  0
   13.9573   12.0451   11.2549 H   0  0  0  0  0  0  0  0  0  0  0  0
   13.7925   11.2713   12.6834 H   0  0  0  0  0  0  0  0  0  0  0  0
   15.1245   10.0487   12.2587 H   0  0  0  0  0  0  0  0  0  0  0  0
   17.3119    7.8211   14.1816 H   0  0  0  0  0  0  0  0  0  0  0  0
   17.3772    9.2751   13.4410 H   0  0  0  0  0  0  0  0  0  0  0  0
  1 20  1  0  0  0  0
  1 21  1  0  0  0  0
  2 22  1  0  0  0  0
  2 23  1  0  0  0  0
  3 26  1  0  0  0  0
  4 26  1  0  0  0  0
  5 26  1  0  0  0  0
  6  7  1  0  0  0  0
  6 20  2  0  0  0  0
  7 21  2  0  0  0  0
  8 13  2  0  0  0  0
  8 22  1  0  0  0  0
  9 13  1  0  0  0  0
  9 24  2  0  0  0  0
 10 14  1  0  0  0  0
 10 15  1  0  0  0  0
 10 20  1  0  0  0  0
 11 16  1  0  0  0  0
 11 17  1  0  0  0  0
 11 24  1  0  0  0  0
 12 21  1  0  0  0  0
 14 16  1  0  0  0  0
 15 17  1  0  0  0  0
 18 23  2  0  0  0  0
 18 25  1  0  0  0  0
 19 23  1  0  0  0  0
 19 26  1  0  0  0  0
 22 25  2  0  0  0  0
 24 25  1  0  0  0  0
 12 27  1  0  0  0  0
 12 28  1  0  0  0  0
 12 29  1  0  0  0  0
 13 30  1  0  0  0  0
 14 31  1  0  0  0  0
 14 32  1  0  0  0  0
 15 33  1  0  0  0  0
 15 34  1  0  0  0  0
 16 35  1  0  0  0  0
 16 36  1  0  0  0  0
 17 37  1  0  0  0  0
 17 38  1  0  0  0  0
 18 39  1  0  0  0  0
 19 40  1  0  0  0  0
 19 41  1  0  0  0  0
M  END
> <pdb_id>
5DD9

> <uniprot_id>
O00255

> <usmiles>
S1c2ncnc(N3CCN(C=4SC(=NN4)C)CC3)c2C=C1CC(F)(F)F

$$$$
59Q_A_601
          07202405373D 1   1.00000     0.00000     0
            
 41 44  0  0  0  0            999 V2000
   10.7449   15.2018   13.2231 S   0  0  0  0  0  0  0  0  0  0  0  0
   14.8138    6.7528   13.0637 S   0  0  0  0  0  0  0  0  0  0  0  0
    9.9082   18.3262   13.8291 F   0  0  0  0  0  0  0  0  0  0  0  0
    8.6256   16.7534   14.8405 F   0  0  0  0  0  0  0  0  0  0  0  0
   19.2745    7.8507   12.4053 F   0  0  0  0  0  0  0  0  0  0  0  0
   17.8059    6.4777   12.0002 F   0  0  0  0  0  0  0  0  0  0  0  0
   17.8069    8.2465   11.0751 F   0  0  0  0  0  0  0  0  0  0  0  0
    9.9650   15.0244   10.9190 N   0  0  0  0  0  0  0  0  0  0  0  0
    9.2878   16.0236   11.4629 N   0  0  0  0  0  0  0  0  0  0  0  0
   12.3035    6.7917   12.2284 N   0  0  0  0  0  0  0  0  0  0  0  0
   11.3420    8.7226   11.3825 N   0  0  0  0  0  0  0  0  0  0  0  0
   11.6162   13.4208   11.4481 N   0  0  0  0  0  0  0  0  0  0  0  0
   12.3956   10.7004   11.2458 N   0  0  0  0  0  0  0  0  0  0  0  0
   11.1832    7.4084   11.7357 C   0  0  0  0  0  0  0  0  0  0  0  0
   12.6701   12.9270   12.3662 C   0  0  0  0  0  0  0  0  0  0  0  0
   11.4045   12.7148   10.1585 C   0  0  0  0  0  0  0  0  0  0  0  0
   13.3674   11.6768   11.8011 C   0  0  0  0  0  0  0  0  0  0  0  0
   11.3226   11.1912   10.3496 C   0  0  0  0  0  0  0  0  0  0  0  0
   14.8395    9.1282   12.3713 C   0  0  0  0  0  0  0  0  0  0  0  0
   17.1257    8.3255   13.2411 C   0  0  0  0  0  0  0  0  0  0  0  0
   10.8262   14.4545   11.7673 C   0  0  0  0  0  0  0  0  0  0  0  0
    9.0004   17.3176   13.6213 C   0  0  0  0  0  0  0  0  0  0  0  0
    9.6135   16.2416   12.7393 C   0  0  0  0  0  0  0  0  0  0  0  0
   13.4424    7.4182   12.4144 C   0  0  0  0  0  0  0  0  0  0  0  0
   15.6408    8.1625   12.8741 C   0  0  0  0  0  0  0  0  0  0  0  0
   12.4818    9.3852   11.5884 C   0  0  0  0  0  0  0  0  0  0  0  0
   13.5720    8.7285   12.0981 C   0  0  0  0  0  0  0  0  0  0  0  0
   18.0230    7.7080   12.1406 C   0  0  0  0  0  0  0  0  0  0  0  0
   10.3093    6.9317   11.6404 H   0  0  0  0  0  0  0  0  0  0  0  0
   12.2536   12.6975   13.2459 H   0  0  0  0  0  0  0  0  0  0  0  0
   13.3508   13.6477   12.4976 H   0  0  0  0  0  0  0  0  0  0  0  0
   12.1668   12.9238    9.5459 H   0  0  0  0  0  0  0  0  0  0  0  0
   10.5504   13.0363    9.7497 H   0  0  0  0  0  0  0  0  0  0  0  0
   13.9940   11.9575   11.0741 H   0  0  0  0  0  0  0  0  0  0  0  0
   13.8843   11.2360   12.5349 H   0  0  0  0  0  0  0  0  0  0  0  0
   10.4349   10.9605   10.7481 H   0  0  0  0  0  0  0  0  0  0  0  0
   11.4138   10.7462    9.4588 H   0  0  0  0  0  0  0  0  0  0  0  0
   15.1560   10.0636   12.2132 H   0  0  0  0  0  0  0  0  0  0  0  0
   17.3034    7.8628   14.1096 H   0  0  0  0  0  0  0  0  0  0  0  0
   17.3380    9.2984   13.3322 H   0  0  0  0  0  0  0  0  0  0  0  0
    8.1907   17.6917   13.1692 H   0  0  0  0  0  0  0  0  0  0  0  0
  1 21  1  0  0  0  0
  1 23  1  0  0  0  0
  2 24  1  0  0  0  0
  2 25  1  0  0  0  0
  3 22  1  0  0  0  0
  4 22  1  0  0  0  0
  5 28  1  0  0  0  0
  6 28  1  0  0  0  0
  7 28  1  0  0  0  0
  8  9  1  0  0  0  0
  8 21  2  0  0  0  0
  9 23  2  0  0  0  0
 10 14  2  0  0  0  0
 10 24  1  0  0  0  0
 11 14  1  0  0  0  0
 11 26  2  0  0  0  0
 12 15  1  0  0  0  0
 12 16  1  0  0  0  0
 12 21  1  0  0  0  0
 13 17  1  0  0  0  0
 13 18  1  0  0  0  0
 13 26  1  0  0  0  0
 15 17  1  0  0  0  0
 16 18  1  0  0  0  0
 19 25  2  0  0  0  0
 19 27  1  0  0  0  0
 20 25  1  0  0  0  0
 20 28  1  0  0  0  0
 22 23  1  0  0  0  0
 24 27  2  0  0  0  0
 26 27  1  0  0  0  0
 14 29  1  0  0  0  0
 15 30  1  0  0  0  0
 15 31  1  0  0  0  0
 16 32  1  0  0  0  0
 16 33  1  0  0  0  0
 17 34  1  0  0  0  0
 17 35  1  0  0  0  0
 18 36  1  0  0  0  0
 18 37  1  0  0  0  0
 19 38  1  0  0  0  0
 20 39  1  0  0  0  0
 20 40  1  0  0  0  0
 22 41  1  0  0  0  0
M  END
> <pdb_id>
5DDB

> <uniprot_id>
O00255

> <usmiles>
S1c2ncnc(N3CCN(C=4SC(=NN4)C(F)F)CC3)c2C=C1CC(F)(F)F

$$$$
59V_A_601
          07202405373D 1   1.00000     0.00000     0
            
 41 44  0  0  0  0            999 V2000
   10.8467   15.1436   13.3412 S   0  0  0  0  0  0  0  0  0  0  0  0
   14.7711    6.7892   12.9969 S   0  0  0  0  0  0  0  0  0  0  0  0
   17.8159    8.2562   10.9227 F   0  0  0  0  0  0  0  0  0  0  0  0
   19.3090    7.8229   12.4367 F   0  0  0  0  0  0  0  0  0  0  0  0
   17.7275    6.3922   12.0311 F   0  0  0  0  0  0  0  0  0  0  0  0
   10.0972   18.2280   14.0564 F   0  0  0  0  0  0  0  0  0  0  0  0
    8.1030   17.8337   13.2875 F   0  0  0  0  0  0  0  0  0  0  0  0
    8.8506   16.7171   14.9948 F   0  0  0  0  0  0  0  0  0  0  0  0
   10.0792   15.1807   10.9703 N   0  0  0  0  0  0  0  0  0  0  0  0
    9.4499   16.1559   11.6009 N   0  0  0  0  0  0  0  0  0  0  0  0
   12.2450    6.8081   12.1953 N   0  0  0  0  0  0  0  0  0  0  0  0
   11.3604    8.7476   11.3933 N   0  0  0  0  0  0  0  0  0  0  0  0
   11.6574   13.4645   11.4107 N   0  0  0  0  0  0  0  0  0  0  0  0
   12.4224   10.7489   11.2601 N   0  0  0  0  0  0  0  0  0  0  0  0
   11.1473    7.4397   11.7109 C   0  0  0  0  0  0  0  0  0  0  0  0
   12.4826   12.9158   12.4206 C   0  0  0  0  0  0  0  0  0  0  0  0
   11.4388   12.7182   10.2102 C   0  0  0  0  0  0  0  0  0  0  0  0
   13.2957   11.7801   11.8524 C   0  0  0  0  0  0  0  0  0  0  0  0
   11.3185   11.2343   10.4397 C   0  0  0  0  0  0  0  0  0  0  0  0
   14.8353    9.1516   12.3579 C   0  0  0  0  0  0  0  0  0  0  0  0
   17.1255    8.3382   13.2182 C   0  0  0  0  0  0  0  0  0  0  0  0
   10.9084   14.5104   11.7700 C   0  0  0  0  0  0  0  0  0  0  0  0
   13.4025    7.4362   12.3804 C   0  0  0  0  0  0  0  0  0  0  0  0
    9.7639   16.2535   12.8986 C   0  0  0  0  0  0  0  0  0  0  0  0
   15.6325    8.1824   12.8454 C   0  0  0  0  0  0  0  0  0  0  0  0
   12.4981    9.4228   11.5899 C   0  0  0  0  0  0  0  0  0  0  0  0
   13.5675    8.7514   12.0864 C   0  0  0  0  0  0  0  0  0  0  0  0
   18.0298    7.6844   12.1033 C   0  0  0  0  0  0  0  0  0  0  0  0
    9.1825   17.2856   13.8402 C   0  0  0  0  0  0  0  0  0  0  0  0
   10.2627    6.9874   11.5971 H   0  0  0  0  0  0  0  0  0  0  0  0
   11.9116   12.5745   13.1672 H   0  0  0  0  0  0  0  0  0  0  0  0
   13.0977   13.6235   12.7680 H   0  0  0  0  0  0  0  0  0  0  0  0
   12.2072   12.8817    9.5914 H   0  0  0  0  0  0  0  0  0  0  0  0
   10.5937   13.0424    9.7852 H   0  0  0  0  0  0  0  0  0  0  0  0
   13.9063   12.1369   11.1453 H   0  0  0  0  0  0  0  0  0  0  0  0
   13.8382   11.3681   12.5844 H   0  0  0  0  0  0  0  0  0  0  0  0
   10.4545   11.0430   10.9053 H   0  0  0  0  0  0  0  0  0  0  0  0
   11.3332   10.7634    9.5576 H   0  0  0  0  0  0  0  0  0  0  0  0
   15.1513   10.0885   12.2082 H   0  0  0  0  0  0  0  0  0  0  0  0
   17.2977    7.8847   14.0927 H   0  0  0  0  0  0  0  0  0  0  0  0
   17.3476    9.3100   13.2973 H   0  0  0  0  0  0  0  0  0  0  0  0
  1 22  1  0  0  0  0
  1 24  1  0  0  0  0
  2 23  1  0  0  0  0
  2 25  1  0  0  0  0
  3 28  1  0  0  0  0
  4 28  1  0  0  0  0
  5 28  1  0  0  0  0
  6 29  1  0  0  0  0
  7 29  1  0  0  0  0
  8 29  1  0  0  0  0
  9 10  1  0  0  0  0
  9 22  2  0  0  0  0
 10 24  2  0  0  0  0
 11 15  2  0  0  0  0
 11 23  1  0  0  0  0
 12 15  1  0  0  0  0
 12 26  2  0  0  0  0
 13 16  1  0  0  0  0
 13 17  1  0  0  0  0
 13 22  1  0  0  0  0
 14 18  1  0  0  0  0
 14 19  1  0  0  0  0
 14 26  1  0  0  0  0
 16 18  1  0  0  0  0
 17 19  1  0  0  0  0
 20 25  2  0  0  0  0
 20 27  1  0  0  0  0
 21 25  1  0  0  0  0
 21 28  1  0  0  0  0
 23 27  2  0  0  0  0
 24 29  1  0  0  0  0
 26 27  1  0  0  0  0
 15 30  1  0  0  0  0
 16 31  1  0  0  0  0
 16 32  1  0  0  0  0
 17 33  1  0  0  0  0
 17 34  1  0  0  0  0
 18 35  1  0  0  0  0
 18 36  1  0  0  0  0
 19 37  1  0  0  0  0
 19 38  1  0  0  0  0
 20 39  1  0  0  0  0
 21 40  1  0  0  0  0
 21 41  1  0  0  0  0
M  END
> <pdb_id>
5DDC

> <uniprot_id>
O00255

> <usmiles>
S1c2ncnc(N3CCN(C=4SC(=NN4)C(F)(F)F)CC3)c2C=C1CC(F)(F)F

$$$$
59X_A_601
          07202405373D 1   1.00000     0.00000     0
            
 47 50  0  0  0  0            999 V2000
   14.7418    6.7438   13.0005 S   0  0  0  0  0  0  0  0  0  0  0  0
   11.0609   15.3193   13.3791 S   0  0  0  0  0  0  0  0  0  0  0  0
   17.8193    6.6507   11.9492 F   0  0  0  0  0  0  0  0  0  0  0  0
   12.2333    6.7956   12.1291 N   0  0  0  0  0  0  0  0  0  0  0  0
   11.3314    8.8046   11.3147 N   0  0  0  0  0  0  0  0  0  0  0  0
   10.1753   15.2632   11.0487 N   0  0  0  0  0  0  0  0  0  0  0  0
   11.5556   13.3866   11.6017 N   0  0  0  0  0  0  0  0  0  0  0  0
   12.4507   10.7501   11.2145 N   0  0  0  0  0  0  0  0  0  0  0  0
    9.0029   17.0281   14.0331 C   0  0  0  0  0  0  0  0  0  0  0  0
   11.0223   17.9793   12.8288 C   0  0  0  0  0  0  0  0  0  0  0  0
   11.1792    7.4729   11.6091 C   0  0  0  0  0  0  0  0  0  0  0  0
   18.0111    7.9687   12.0768 C   0  0  0  0  0  0  0  0  0  0  0  0
   11.3166   12.7287   10.2186 C   0  0  0  0  0  0  0  0  0  0  0  0
   12.4174   12.7115   12.5890 C   0  0  0  0  0  0  0  0  0  0  0  0
   11.2796   11.2558   10.4396 C   0  0  0  0  0  0  0  0  0  0  0  0
   13.3828   11.8060   11.8113 C   0  0  0  0  0  0  0  0  0  0  0  0
    9.5430   16.5322   11.6279 C   0  0  0  0  0  0  0  0  0  0  0  0
   17.1332    8.4196   13.2687 C   0  0  0  0  0  0  0  0  0  0  0  0
   14.8564    9.1285   12.3435 C   0  0  0  0  0  0  0  0  0  0  0  0
   10.9569   14.5551   11.8943 C   0  0  0  0  0  0  0  0  0  0  0  0
   13.3935    7.4117   12.3230 C   0  0  0  0  0  0  0  0  0  0  0  0
   15.6609    8.1866   12.8453 C   0  0  0  0  0  0  0  0  0  0  0  0
   12.4976    9.4339   11.5365 C   0  0  0  0  0  0  0  0  0  0  0  0
   13.5757    8.7266   12.0546 C   0  0  0  0  0  0  0  0  0  0  0  0
   10.1007   16.7584   12.9638 C   0  0  0  0  0  0  0  0  0  0  0  0
    8.4793   17.8403   13.7757 H   0  0  0  0  0  0  0  0  0  0  0  0
    8.3899   16.2399   14.0877 H   0  0  0  0  0  0  0  0  0  0  0  0
    9.4339   17.1776   14.9230 H   0  0  0  0  0  0  0  0  0  0  0  0
   10.4769   18.7844   12.5955 H   0  0  0  0  0  0  0  0  0  0  0  0
   11.4956   18.1371   13.6954 H   0  0  0  0  0  0  0  0  0  0  0  0
   11.6944   17.8115   12.1076 H   0  0  0  0  0  0  0  0  0  0  0  0
   10.3081    7.0106   11.4435 H   0  0  0  0  0  0  0  0  0  0  0  0
   17.7313    8.4422   11.2416 H   0  0  0  0  0  0  0  0  0  0  0  0
   18.9743    8.1624   12.2629 H   0  0  0  0  0  0  0  0  0  0  0  0
   12.0604   12.9639    9.5929 H   0  0  0  0  0  0  0  0  0  0  0  0
   10.4473   13.0407    9.8351 H   0  0  0  0  0  0  0  0  0  0  0  0
   11.8594   12.1621   13.2109 H   0  0  0  0  0  0  0  0  0  0  0  0
   12.9322   13.3894   13.1138 H   0  0  0  0  0  0  0  0  0  0  0  0
   10.4446   11.0302   10.9414 H   0  0  0  0  0  0  0  0  0  0  0  0
   11.2666   10.8007    9.5492 H   0  0  0  0  0  0  0  0  0  0  0  0
   13.8556   12.3164   11.0931 H   0  0  0  0  0  0  0  0  0  0  0  0
   14.0558   11.3886   12.4219 H   0  0  0  0  0  0  0  0  0  0  0  0
    8.5516   16.4171   11.6908 H   0  0  0  0  0  0  0  0  0  0  0  0
    9.7512   17.3126   11.0384 H   0  0  0  0  0  0  0  0  0  0  0  0
   17.2871    9.3882   13.4640 H   0  0  0  0  0  0  0  0  0  0  0  0
   17.3488    7.8774   14.0808 H   0  0  0  0  0  0  0  0  0  0  0  0
   15.1674   10.0662   12.1882 H   0  0  0  0  0  0  0  0  0  0  0  0
  1 21  1  0  0  0  0
  1 22  1  0  0  0  0
  2 20  1  0  0  0  0
  2 25  1  0  0  0  0
  3 12  1  0  0  0  0
  4 11  2  0  0  0  0
  4 21  1  0  0  0  0
  5 11  1  0  0  0  0
  5 23  2  0  0  0  0
  6 17  1  0  0  0  0
  6 20  2  0  0  0  0
  7 13  1  0  0  0  0
  7 14  1  0  0  0  0
  7 20  1  0  0  0  0
  8 15  1  0  0  0  0
  8 16  1  0  0  0  0
  8 23  1  0  0  0  0
  9 25  1  0  0  0  0
 10 25  1  0  0  0  0
 12 18  1  0  0  0  0
 13 15  1  0  0  0  0
 14 16  1  0  0  0  0
 17 25  1  0  0  0  0
 18 22  1  0  0  0  0
 19 22  2  0  0  0  0
 19 24  1  0  0  0  0
 21 24  2  0  0  0  0
 23 24  1  0  0  0  0
  9 26  1  0  0  0  0
  9 27  1  0  0  0  0
  9 28  1  0  0  0  0
 10 29  1  0  0  0  0
 10 30  1  0  0  0  0
 10 31  1  0  0  0  0
 11 32  1  0  0  0  0
 12 33  1  0  0  0  0
 12 34  1  0  0  0  0
 13 35  1  0  0  0  0
 13 36  1  0  0  0  0
 14 37  1  0  0  0  0
 14 38  1  0  0  0  0
 15 39  1  0  0  0  0
 15 40  1  0  0  0  0
 16 41  1  0  0  0  0
 16 42  1  0  0  0  0
 17 43  1  0  0  0  0
 17 44  1  0  0  0  0
 18 45  1  0  0  0  0
 18 46  1  0  0  0  0
 19 47  1  0  0  0  0
M  END
> <pdb_id>
5DDD

> <uniprot_id>
O00255

> <usmiles>
S1c2ncnc(N3CCN(C=4SC(CN4)(C)C)CC3)c2C=C1CCF

$$$$
5A0_A_601
          07202405373D 1   1.00000     0.00000     0
            
 47 50  0  0  0  0            999 V2000
   14.7040    6.7525   12.9064 S   0  0  0  0  0  0  0  0  0  0  0  0
   10.9910   15.3823   13.3384 S   0  0  0  0  0  0  0  0  0  0  0  0
   17.5831    6.2043   11.9430 F   0  0  0  0  0  0  0  0  0  0  0  0
   19.1519    7.7863   12.3007 F   0  0  0  0  0  0  0  0  0  0  0  0
   12.1546    6.8305   12.1279 N   0  0  0  0  0  0  0  0  0  0  0  0
   10.1189   15.3419   11.0289 N   0  0  0  0  0  0  0  0  0  0  0  0
   11.2081    8.8163   11.3432 N   0  0  0  0  0  0  0  0  0  0  0  0
   11.5654   13.5660   11.5808 N   0  0  0  0  0  0  0  0  0  0  0  0
   12.3042   10.7962   11.2261 N   0  0  0  0  0  0  0  0  0  0  0  0
    9.0146   17.0890   13.9586 C   0  0  0  0  0  0  0  0  0  0  0  0
   11.0410   18.0122   12.8046 C   0  0  0  0  0  0  0  0  0  0  0  0
   11.0456    7.4840   11.6451 C   0  0  0  0  0  0  0  0  0  0  0  0
   12.3780   12.8843   12.5536 C   0  0  0  0  0  0  0  0  0  0  0  0
   11.4248   12.9100   10.2706 C   0  0  0  0  0  0  0  0  0  0  0  0
   13.1801   11.7526   11.8660 C   0  0  0  0  0  0  0  0  0  0  0  0
   11.2054   11.4160   10.4575 C   0  0  0  0  0  0  0  0  0  0  0  0
    9.4808   16.5261   11.6023 C   0  0  0  0  0  0  0  0  0  0  0  0
   16.9250    8.1913   13.1635 C   0  0  0  0  0  0  0  0  0  0  0  0
   14.7362    9.0759   12.2974 C   0  0  0  0  0  0  0  0  0  0  0  0
   10.9175   14.6805   11.8816 C   0  0  0  0  0  0  0  0  0  0  0  0
   17.8193    7.5619   12.0230 C   0  0  0  0  0  0  0  0  0  0  0  0
   13.3031    7.4402   12.3091 C   0  0  0  0  0  0  0  0  0  0  0  0
   15.4714    8.0573   12.7872 C   0  0  0  0  0  0  0  0  0  0  0  0
   12.3696    9.4591   11.5312 C   0  0  0  0  0  0  0  0  0  0  0  0
   13.4476    8.7566   12.0263 C   0  0  0  0  0  0  0  0  0  0  0  0
   10.0946   16.8093   12.9071 C   0  0  0  0  0  0  0  0  0  0  0  0
    8.5049   17.9104   13.7025 H   0  0  0  0  0  0  0  0  0  0  0  0
    8.3889   16.3106   14.0090 H   0  0  0  0  0  0  0  0  0  0  0  0
    9.4456   17.2286   14.8501 H   0  0  0  0  0  0  0  0  0  0  0  0
   10.5180   18.8276   12.5565 H   0  0  0  0  0  0  0  0  0  0  0  0
   11.4897   18.1594   13.6861 H   0  0  0  0  0  0  0  0  0  0  0  0
   11.7323   17.8337   12.1044 H   0  0  0  0  0  0  0  0  0  0  0  0
   10.1701    7.0172   11.5203 H   0  0  0  0  0  0  0  0  0  0  0  0
   11.7900   12.4920   13.2610 H   0  0  0  0  0  0  0  0  0  0  0  0
   13.0126   13.5349   12.9706 H   0  0  0  0  0  0  0  0  0  0  0  0
   12.2562   13.0582    9.7352 H   0  0  0  0  0  0  0  0  0  0  0  0
   10.6423   13.3016    9.7865 H   0  0  0  0  0  0  0  0  0  0  0  0
   13.7825   12.1540   11.1761 H   0  0  0  0  0  0  0  0  0  0  0  0
   13.7302   11.2796   12.5543 H   0  0  0  0  0  0  0  0  0  0  0  0
   10.3457   11.2732   10.9478 H   0  0  0  0  0  0  0  0  0  0  0  0
   11.1527   10.9810    9.5586 H   0  0  0  0  0  0  0  0  0  0  0  0
    8.5024   16.3566   11.7207 H   0  0  0  0  0  0  0  0  0  0  0  0
    9.6123   17.3075   10.9923 H   0  0  0  0  0  0  0  0  0  0  0  0
   17.1542    9.1586   13.2723 H   0  0  0  0  0  0  0  0  0  0  0  0
   17.0932    7.7101   14.0238 H   0  0  0  0  0  0  0  0  0  0  0  0
   15.1108    9.9908   12.1468 H   0  0  0  0  0  0  0  0  0  0  0  0
   17.5880    7.9891   11.1489 H   0  0  0  0  0  0  0  0  0  0  0  0
  1 22  1  0  0  0  0
  1 23  1  0  0  0  0
  2 20  1  0  0  0  0
  2 26  1  0  0  0  0
  3 21  1  0  0  0  0
  4 21  1  0  0  0  0
  5 12  2  0  0  0  0
  5 22  1  0  0  0  0
  6 17  1  0  0  0  0
  6 20  2  0  0  0  0
  7 12  1  0  0  0  0
  7 24  2  0  0  0  0
  8 13  1  0  0  0  0
  8 14  1  0  0  0  0
  8 20  1  0  0  0  0
  9 15  1  0  0  0  0
  9 16  1  0  0  0  0
  9 24  1  0  0  0  0
 10 26  1  0  0  0  0
 11 26  1  0  0  0  0
 13 15  1  0  0  0  0
 14 16  1  0  0  0  0
 17 26  1  0  0  0  0
 18 21  1  0  0  0  0
 18 23  1  0  0  0  0
 19 23  2  0  0  0  0
 19 25  1  0  0  0  0
 22 25  2  0  0  0  0
 24 25  1  0  0  0  0
 10 27  1  0  0  0  0
 10 28  1  0  0  0  0
 10 29  1  0  0  0  0
 11 30  1  0  0  0  0
 11 31  1  0  0  0  0
 11 32  1  0  0  0  0
 12 33  1  0  0  0  0
 13 34  1  0  0  0  0
 13 35  1  0  0  0  0
 14 36  1  0  0  0  0
 14 37  1  0  0  0  0
 15 38  1  0  0  0  0
 15 39  1  0  0  0  0
 16 40  1  0  0  0  0
 16 41  1  0  0  0  0
 17 42  1  0  0  0  0
 17 43  1  0  0  0  0
 18 44  1  0  0  0  0
 18 45  1  0  0  0  0
 19 46  1  0  0  0  0
 21 47  1  0  0  0  0
M  END
> <pdb_id>
5DDE

> <uniprot_id>
O00255

> <usmiles>
S1c2ncnc(N3CCN(C=4SC(CN4)(C)C)CC3)c2C=C1CC(F)F

$$$$
5AB_A_551
          07202415503D 1   1.00000     0.00000     0
            
 31 30  0  0  0  0            999 V2000
  -20.0283   15.7087  -10.9127 O   0  0  0  0  0  0  0  0  0  0  0  0
  -19.4954   15.6996  -13.1047 O   0  0  0  0  0  0  0  0  0  0  0  0
  -26.5889   13.5975  -13.5775 O   0  0  0  0  0  0  0  0  0  0  0  0
  -26.3375   11.6444  -12.5164 O   0  0  0  0  0  0  0  0  0  0  0  0
  -27.1134   13.4013  -11.4075 O   0  0  0  0  0  0  0  0  0  0  0  0
  -21.4085   17.4325  -13.6494 N   0  0  0  0  0  0  0  0  0  0  0  0
  -20.9523   18.4889  -11.5093 C   0  0  0  0  0  0  0  0  0  0  0  0
  -23.1494   15.3087  -12.2015 C   0  0  0  0  0  0  0  0  0  0  0  0
  -24.5300   14.8203  -11.7470 C   0  0  0  0  0  0  0  0  0  0  0  0
  -22.6495   16.6658  -11.6908 C   0  0  0  0  0  0  0  0  0  0  0  0
  -24.9130   13.3700  -12.0534 C   0  0  0  0  0  0  0  0  0  0  0  0
  -20.2213   16.1603  -11.9932 C   0  0  0  0  0  0  0  0  0  0  0  0
  -21.3182   17.1946  -12.2184 C   0  0  1  0  0  0  0  0  0  0  0  0
  -26.2297   13.0126  -12.3836 B   0  5  0  0  0  0  0  0  0  0  0  0
  -20.5514   16.0449  -10.1295 H   0  0  0  0  0  0  0  0  0  0  0  0
  -26.5157   14.5916  -13.4970 H   0  0  0  0  0  0  0  0  0  0  0  0
  -26.0795   11.2047  -11.6561 H   0  0  0  0  0  0  0  0  0  0  0  0
  -26.8568   12.9790  -10.5381 H   0  0  0  0  0  0  0  0  0  0  0  0
  -21.6492   16.5805  -14.1144 H   0  0  0  0  0  0  0  0  0  0  0  0
  -22.1116   18.1205  -13.8292 H   0  0  0  0  0  0  0  0  0  0  0  0
  -20.8905   18.3237  -10.5250 H   0  0  0  0  0  0  0  0  0  0  0  0
  -20.0706   18.8170  -11.8483 H   0  0  0  0  0  0  0  0  0  0  0  0
  -21.6553   19.1773  -11.6883 H   0  0  0  0  0  0  0  0  0  0  0  0
  -23.1673   15.3574  -13.2002 H   0  0  0  0  0  0  0  0  0  0  0  0
  -22.4831   14.6210  -11.9132 H   0  0  0  0  0  0  0  0  0  0  0  0
  -25.2121   15.4071  -12.1834 H   0  0  0  0  0  0  0  0  0  0  0  0
  -24.5755   14.9371  -10.7549 H   0  0  0  0  0  0  0  0  0  0  0  0
  -22.5664   16.5952  -10.6967 H   0  0  0  0  0  0  0  0  0  0  0  0
  -23.3483   17.3434  -11.9196 H   0  0  0  0  0  0  0  0  0  0  0  0
  -24.6711   12.8371  -11.2426 H   0  0  0  0  0  0  0  0  0  0  0  0
  -24.3418   13.0841  -12.8228 H   0  0  0  0  0  0  0  0  0  0  0  0
  1 12  1  0  0  0  0
  2 12  2  0  0  0  0
  3 14  1  0  0  0  0
  4 14  1  0  0  0  0
  5 14  1  0  0  0  0
  6 13  1  0  0  0  0
  7 13  1  0  0  0  0
  8  9  1  0  0  0  0
  8 10  1  0  0  0  0
  9 11  1  0  0  0  0
 10 13  1  0  0  0  0
 11 14  1  0  0  0  0
 12 13  1  0  0  0  0
  1 15  1  0  0  0  0
  3 16  1  0  0  0  0
  4 17  1  0  0  0  0
  5 18  1  0  0  0  0
  6 19  1  0  0  0  0
  6 20  1  0  0  0  0
  7 21  1  0  0  0  0
  7 22  1  0  0  0  0
  7 23  1  0  0  0  0
  8 24  1  0  0  0  0
  8 25  1  0  0  0  0
  9 26  1  0  0  0  0
  9 27  1  0  0  0  0
 10 28  1  0  0  0  0
 10 29  1  0  0  0  0
 11 30  1  0  0  0  0
 11 31  1  0  0  0  0
M  CHG  1  14  -1
M  END
> <pdb_id>
3SJT

> <uniprot_id>
P05089

> <usmiles>
O=C(O)[C@@](N)(CCCC[B-](O)(O)O)C

$$$$
5AY_A_803
          07192416573D 1   1.00000     0.00000     0
            
 49 53  0  0  0  0            999 V2000
   19.0730   -2.8680   21.0455 O   0  0  0  0  0  0  0  0  0  0  0  0
   16.7803   -2.5051   16.1444 N   0  0  0  0  0  0  0  0  0  0  0  0
   16.4746    2.9453   20.9640 N   0  0  0  0  0  0  0  0  0  0  0  0
   23.8109   -4.5928   23.0154 N   0  0  0  0  0  0  0  0  0  0  0  0
   15.6135   -0.8390   18.2806 N   0  0  0  0  0  0  0  0  0  0  0  0
   18.9787   -3.4483   18.7656 N   0  0  0  0  0  0  0  0  0  0  0  0
   17.3011    2.7185   19.9400 N   0  0  0  0  0  0  0  0  0  0  0  0
   17.2486   -2.4618   17.5002 N   0  0  0  0  0  0  0  0  0  0  0  0
   18.4190    3.6122   19.6929 C   0  0  0  0  0  0  0  0  0  0  0  0
   20.1082   -3.8381   21.0539 C   0  0  0  0  0  0  0  0  0  0  0  0
   17.5787   -3.3698   15.4484 C   0  0  0  0  0  0  0  0  0  0  0  0
   24.9858   -4.5677   23.6679 C   0  0  0  0  0  0  0  0  0  0  0  0
   15.5849    1.9468   20.9108 C   0  0  0  0  0  0  0  0  0  0  0  0
   15.1075   -0.1302   19.4429 C   0  0  0  0  0  0  0  0  0  0  0  0
   16.9775    1.6119   19.2146 C   0  0  0  0  0  0  0  0  0  0  0  0
   25.1413   -5.0349   24.9564 C   0  0  0  0  0  0  0  0  0  0  0  0
   24.0133   -5.5354   25.5690 C   0  0  0  0  0  0  0  0  0  0  0  0
   18.5526   -3.8627   16.3237 C   0  0  0  0  0  0  0  0  0  0  0  0
   22.7992   -5.5587   24.9098 C   0  0  0  0  0  0  0  0  0  0  0  0
   17.4130   -1.8639   19.7661 C   0  0  0  0  0  0  0  0  0  0  0  0
   20.0812   -4.6805   23.4365 C   0  0  0  0  0  0  0  0  0  0  0  0
   18.4793   -2.7450   19.7957 C   0  0  0  0  0  0  0  0  0  0  0  0
   16.7183   -1.6614   18.5855 C   0  0  0  0  0  0  0  0  0  0  0  0
   18.3376   -3.2856   17.5966 C   0  0  0  0  0  0  0  0  0  0  0  0
   22.7070   -5.0719   23.6181 C   0  0  0  0  0  0  0  0  0  0  0  0
   15.8608    1.0786   19.8274 C   0  0  0  0  0  0  0  0  0  0  0  0
   20.7544   -3.8422   22.3831 C   0  0  1  0  0  0  0  0  0  0  0  0
   21.4131   -5.1007   22.8709 C   0  0  2  0  0  0  0  0  0  0  0  0
   15.2217   -0.7533   17.3645 H   0  0  0  0  0  0  0  0  0  0  0  0
   18.9288    3.2950   18.8932 H   0  0  0  0  0  0  0  0  0  0  0  0
   18.0761    4.5363   19.5246 H   0  0  0  0  0  0  0  0  0  0  0  0
   19.0218    3.6204   20.4907 H   0  0  0  0  0  0  0  0  0  0  0  0
   20.7848   -3.6123   20.3531 H   0  0  0  0  0  0  0  0  0  0  0  0
   19.7224   -4.7414   20.8661 H   0  0  0  0  0  0  0  0  0  0  0  0
   17.4832   -3.6084   14.4820 H   0  0  0  0  0  0  0  0  0  0  0  0
   25.7844   -4.1928   23.1972 H   0  0  0  0  0  0  0  0  0  0  0  0
   14.8259    1.8297   21.5514 H   0  0  0  0  0  0  0  0  0  0  0  0
   15.1209   -0.7613   20.2185 H   0  0  0  0  0  0  0  0  0  0  0  0
   14.1646    0.1424   19.2513 H   0  0  0  0  0  0  0  0  0  0  0  0
   17.4500    1.2593   18.4068 H   0  0  0  0  0  0  0  0  0  0  0  0
   26.0263   -5.0115   25.4214 H   0  0  0  0  0  0  0  0  0  0  0  0
   24.0740   -5.8864   26.5034 H   0  0  0  0  0  0  0  0  0  0  0  0
   19.2764   -4.5117   16.0894 H   0  0  0  0  0  0  0  0  0  0  0  0
   21.9887   -5.9268   25.3654 H   0  0  0  0  0  0  0  0  0  0  0  0
   17.1445   -1.3742   20.5957 H   0  0  0  0  0  0  0  0  0  0  0  0
   19.2561   -5.1988   23.2118 H   0  0  0  0  0  0  0  0  0  0  0  0
   20.0197   -4.3473   24.3774 H   0  0  0  0  0  0  0  0  0  0  0  0
   21.1572   -2.9791   22.6877 H   0  0  0  0  0  0  0  0  0  0  0  0
   21.3468   -5.8594   22.2228 H   0  0  0  0  0  0  0  0  0  0  0  0
  1 10  1  0  0  0  0
  1 22  1  0  0  0  0
  2  8  1  0  0  0  0
  2 11  2  0  0  0  0
  3  7  1  0  0  0  0
  3 13  2  0  0  0  0
  4 12  2  0  0  0  0
  4 25  1  0  0  0  0
  5 14  1  0  0  0  0
  5 23  1  0  0  0  0
  6 22  2  0  0  0  0
  6 24  1  0  0  0  0
  7  9  1  0  0  0  0
  7 15  1  0  0  0  0
  8 23  1  0  0  0  0
  8 24  1  0  0  0  0
 10 27  1  0  0  0  0
 11 18  1  0  0  0  0
 12 16  1  0  0  0  0
 13 26  1  0  0  0  0
 14 26  1  0  0  0  0
 15 26  2  0  0  0  0
 16 17  2  0  0  0  0
 17 19  1  0  0  0  0
 18 24  2  0  0  0  0
 19 25  2  0  0  0  0
 20 22  1  0  0  0  0
 20 23  2  0  0  0  0
 21 27  1  0  0  0  0
 21 28  1  0  0  0  0
 25 28  1  0  0  0  0
 27 28  1  0  0  0  0
  5 29  1  0  0  0  0
  9 30  1  0  0  0  0
  9 31  1  0  0  0  0
  9 32  1  0  0  0  0
 10 33  1  0  0  0  0
 10 34  1  0  0  0  0
 11 35  1  0  0  0  0
 12 36  1  0  0  0  0
 13 37  1  0  0  0  0
 14 38  1  0  0  0  0
 14 39  1  0  0  0  0
 15 40  1  0  0  0  0
 16 41  1  0  0  0  0
 17 42  1  0  0  0  0
 18 43  1  0  0  0  0
 19 44  1  0  0  0  0
 20 45  1  0  0  0  0
 21 46  1  0  0  0  0
 21 47  1  0  0  0  0
 27 48  1  0  0  0  0
 28 49  1  0  0  0  0
M  END
> <pdb_id>
5DH5

> <uniprot_id>
Q9Y233

> <usmiles>
O(C1=NC=2N(N=CC2)C(NCC=3C=NN(C3)C)=C1)C[C@@H]4[C@@H](c5ncccc5)C4

$$$$
5B1_A_1
          07202414163D 1   1.00000     0.00000     0
            
 17 18  0  0  0  0            999 V2000
   53.4060   -8.5721   28.8060 Br  0  0  0  0  0  0  0  0  0  0  0  0
   51.1909  -12.0877   32.9610 N   0  0  0  0  0  0  0  0  0  0  0  0
   49.1804  -12.3045   31.7605 N   0  0  0  0  0  0  0  0  0  0  0  0
   48.7463  -11.8143   30.5843 N   0  0  0  0  0  0  0  0  0  0  0  0
   50.7424   -9.5645   28.3977 C   0  0  0  0  0  0  0  0  0  0  0  0
   49.5971  -10.3018   28.7397 C   0  0  0  0  0  0  0  0  0  0  0  0
   51.8894  -10.2531   30.4673 C   0  0  0  0  0  0  0  0  0  0  0  0
   51.8551   -9.5566   29.2554 C   0  0  0  0  0  0  0  0  0  0  0  0
   50.3998  -11.8232   31.9086 C   0  0  0  0  0  0  0  0  0  0  0  0
   49.6494  -11.0025   29.9578 C   0  0  0  0  0  0  0  0  0  0  0  0
   50.7560  -10.9943   30.8175 C   0  0  0  0  0  0  0  0  0  0  0  0
   52.1067  -11.6891   33.0107 H   0  0  0  0  0  0  0  0  0  0  0  0
   50.8642  -12.6831   33.6950 H   0  0  0  0  0  0  0  0  0  0  0  0
   47.8457  -12.0249   30.2041 H   0  0  0  0  0  0  0  0  0  0  0  0
   50.7659   -9.0449   27.5436 H   0  0  0  0  0  0  0  0  0  0  0  0
   48.7899  -10.3272   28.1501 H   0  0  0  0  0  0  0  0  0  0  0  0
   52.6935  -10.2226   31.0611 H   0  0  0  0  0  0  0  0  0  0  0  0
  1  8  1  0  0  0  0
  2  9  1  0  0  0  0
  3  4  1  0  0  0  0
  3  9  2  0  0  0  0
  4 10  1  0  0  0  0
  5  6  1  0  0  0  0
  5  8  2  0  0  0  0
  6 10  2  0  0  0  0
  7  8  1  0  0  0  0
  7 11  2  0  0  0  0
  9 11  1  0  0  0  0
 10 11  1  0  0  0  0
  2 12  1  0  0  0  0
  2 13  1  0  0  0  0
  4 14  1  0  0  0  0
  5 15  1  0  0  0  0
  6 16  1  0  0  0  0
  7 17  1  0  0  0  0
M  END
> <pdb_id>
3E62

> <uniprot_id>
O60674

> <usmiles>
Brc1cc2c(NN=C2N)cc1

$$$$
5B2_A_1
          07202414163D 1   1.00000     0.00000     0
            
 27 29  0  0  0  0            999 V2000
   51.1719  -12.1813   32.9035 N   0  0  0  0  0  0  0  0  0  0  0  0
   49.2008  -12.2459   31.6269 N   0  0  0  0  0  0  0  0  0  0  0  0
   48.8449  -11.6744   30.4607 N   0  0  0  0  0  0  0  0  0  0  0  0
   55.8532   -7.4270   28.4816 C   0  0  0  0  0  0  0  0  0  0  0  0
   55.3460   -7.4571   29.7829 C   0  0  0  0  0  0  0  0  0  0  0  0
   55.1731   -8.0701   27.4468 C   0  0  0  0  0  0  0  0  0  0  0  0
   54.1561   -8.1485   30.0407 C   0  0  0  0  0  0  0  0  0  0  0  0
   53.9715   -8.7594   27.7006 C   0  0  0  0  0  0  0  0  0  0  0  0
   49.8648  -10.1543   28.7104 C   0  0  0  0  0  0  0  0  0  0  0  0
   51.0685   -9.4712   28.4393 C   0  0  0  0  0  0  0  0  0  0  0  0
   52.0943  -10.2896   30.4879 C   0  0  0  0  0  0  0  0  0  0  0  0
   50.4439  -11.8270   31.8315 C   0  0  0  0  0  0  0  0  0  0  0  0
   49.8278  -10.8984   29.8988 C   0  0  0  0  0  0  0  0  0  0  0  0
   53.4401   -8.8055   29.0078 C   0  0  0  0  0  0  0  0  0  0  0  0
   52.1872   -9.5264   29.3035 C   0  0  0  0  0  0  0  0  0  0  0  0
   50.9023  -10.9849   30.7851 C   0  0  0  0  0  0  0  0  0  0  0  0
   52.1049  -11.8374   33.0102 H   0  0  0  0  0  0  0  0  0  0  0  0
   50.7810  -12.7890   33.5948 H   0  0  0  0  0  0  0  0  0  0  0  0
   47.9460  -11.8037   30.0420 H   0  0  0  0  0  0  0  0  0  0  0  0
   56.7071   -6.9427   28.2910 H   0  0  0  0  0  0  0  0  0  0  0  0
   55.8284   -6.9892   30.5234 H   0  0  0  0  0  0  0  0  0  0  0  0
   55.5417   -8.0412   26.5176 H   0  0  0  0  0  0  0  0  0  0  0  0
   53.8026   -8.1798   30.9756 H   0  0  0  0  0  0  0  0  0  0  0  0
   53.4928   -9.2180   26.9520 H   0  0  0  0  0  0  0  0  0  0  0  0
   49.0817  -10.1106   28.0901 H   0  0  0  0  0  0  0  0  0  0  0  0
   51.1338   -8.9264   27.6033 H   0  0  0  0  0  0  0  0  0  0  0  0
   52.8717  -10.3374   31.1151 H   0  0  0  0  0  0  0  0  0  0  0  0
  1 12  1  0  0  0  0
  2  3  1  0  0  0  0
  2 12  2  0  0  0  0
  3 13  1  0  0  0  0
  4  5  2  0  0  0  0
  4  6  1  0  0  0  0
  5  7  1  0  0  0  0
  6  8  2  0  0  0  0
  7 14  2  0  0  0  0
  8 14  1  0  0  0  0
  9 10  1  0  0  0  0
  9 13  2  0  0  0  0
 10 15  2  0  0  0  0
 11 15  1  0  0  0  0
 11 16  2  0  0  0  0
 12 16  1  0  0  0  0
 13 16  1  0  0  0  0
 14 15  1  0  0  0  0
  1 17  1  0  0  0  0
  1 18  1  0  0  0  0
  3 19  1  0  0  0  0
  4 20  1  0  0  0  0
  5 21  1  0  0  0  0
  6 22  1  0  0  0  0
  7 23  1  0  0  0  0
  8 24  1  0  0  0  0
  9 25  1  0  0  0  0
 10 26  1  0  0  0  0
 11 27  1  0  0  0  0
M  END
> <pdb_id>
3E63

> <uniprot_id>
O60674

> <usmiles>
N=1Nc2c(cc(c3ccccc3)cc2)C1N

$$$$
5B9_F_403
          07202404053D 1   1.00000     0.00000     0
            
 35 37  0  0  0  0            999 V2000
    8.2030   74.7508   26.8324 O   0  0  0  0  0  0  0  0  0  0  0  0
    6.0996   74.2466   26.3558 O   0  0  0  0  0  0  0  0  0  0  0  0
    4.6752   73.3700   28.5366 O   0  0  0  0  0  0  0  0  0  0  0  0
    3.7002   73.8320   29.5051 C   0  0  0  0  0  0  0  0  0  0  0  0
    7.0943   70.9682   30.1104 C   0  0  0  0  0  0  0  0  0  0  0  0
    4.7206   79.0000   29.1206 C   0  0  0  0  0  0  0  0  0  0  0  0
    8.2708   71.2902   29.4153 C   0  0  0  0  0  0  0  0  0  0  0  0
    5.5053   77.8832   29.4496 C   0  0  0  0  0  0  0  0  0  0  0  0
    0.8341   76.1529   28.3923 C   0  0  0  0  0  0  0  0  0  0  0  0
    5.8917   71.6371   29.8165 C   0  0  0  0  0  0  0  0  0  0  0  0
    3.3735   78.8466   28.7574 C   0  0  0  0  0  0  0  0  0  0  0  0
    1.5951   75.0208   28.7220 C   0  0  0  0  0  0  0  0  0  0  0  0
    1.4415   77.4161   28.3786 C   0  0  0  0  0  0  0  0  0  0  0  0
    8.2545   72.2941   28.4270 C   0  0  0  0  0  0  0  0  0  0  0  0
    4.9290   76.6002   29.4538 C   0  0  0  0  0  0  0  0  0  0  0  0
    7.0875   74.0435   27.0449 C   0  0  0  0  0  0  0  0  0  0  0  0
    5.8624   72.6631   28.8382 C   0  0  0  0  0  0  0  0  0  0  0  0
    2.9423   75.1305   29.1156 C   0  0  0  0  0  0  0  0  0  0  0  0
    2.7894   77.5577   28.7739 C   0  0  0  0  0  0  0  0  0  0  0  0
    7.0577   72.9801   28.1348 C   0  0  0  0  0  0  0  0  0  0  0  0
    3.5599   76.4119   29.1195 C   0  0  0  0  0  0  0  0  0  0  0  0
    9.0136   74.5871   27.3947 H   0  0  0  0  0  0  0  0  0  0  0  0
    4.1772   73.9995   30.3679 H   0  0  0  0  0  0  0  0  0  0  0  0
    3.0243   73.1063   29.6333 H   0  0  0  0  0  0  0  0  0  0  0  0
    7.1110   70.2609   30.8170 H   0  0  0  0  0  0  0  0  0  0  0  0
    5.1255   79.9140   29.1453 H   0  0  0  0  0  0  0  0  0  0  0  0
    9.1213   70.8064   29.6219 H   0  0  0  0  0  0  0  0  0  0  0  0
    6.4714   77.9996   29.6802 H   0  0  0  0  0  0  0  0  0  0  0  0
   -0.1359   76.0590   28.1685 H   0  0  0  0  0  0  0  0  0  0  0  0
    5.0529   71.3875   30.3003 H   0  0  0  0  0  0  0  0  0  0  0  0
    2.8304   79.6423   28.4890 H   0  0  0  0  0  0  0  0  0  0  0  0
    1.1710   74.1163   28.6763 H   0  0  0  0  0  0  0  0  0  0  0  0
    0.9193   78.2180   28.0884 H   0  0  0  0  0  0  0  0  0  0  0  0
    9.0932   72.5207   27.9319 H   0  0  0  0  0  0  0  0  0  0  0  0
    5.4904   75.8088   29.6955 H   0  0  0  0  0  0  0  0  0  0  0  0
  1 16  1  0  0  0  0
  2 16  2  0  0  0  0
  3  4  1  0  0  0  0
  3 17  1  0  0  0  0
  4 18  1  0  0  0  0
  5  7  2  0  0  0  0
  5 10  1  0  0  0  0
  6  8  2  0  0  0  0
  6 11  1  0  0  0  0
  7 14  1  0  0  0  0
  8 15  1  0  0  0  0
  9 12  1  0  0  0  0
  9 13  2  0  0  0  0
 10 17  2  0  0  0  0
 11 19  2  0  0  0  0
 12 18  2  0  0  0  0
 13 19  1  0  0  0  0
 14 20  2  0  0  0  0
 15 21  2  0  0  0  0
 16 20  1  0  0  0  0
 17 20  1  0  0  0  0
 18 21  1  0  0  0  0
 19 21  1  0  0  0  0
  1 22  1  0  0  0  0
  4 23  1  0  0  0  0
  4 24  1  0  0  0  0
  5 25  1  0  0  0  0
  6 26  1  0  0  0  0
  7 27  1  0  0  0  0
  8 28  1  0  0  0  0
  9 29  1  0  0  0  0
 10 30  1  0  0  0  0
 11 31  1  0  0  0  0
 12 32  1  0  0  0  0
 13 33  1  0  0  0  0
 14 34  1  0  0  0  0
 15 35  1  0  0  0  0
M  END
> <pdb_id>
5DIQ

> <uniprot_id>
P14324

> <usmiles>
O=C(O)c1c(OCc2c3c(ccc2)cccc3)cccc1

$$$$
5BE_A_298
          07202402503D 1   1.00000     0.00000     0
            
 56 59  0  0  0  0            999 V2000
    6.0621    6.7730   17.3975 O   0  0  0  0  0  0  0  0  0  0  0  0
    5.6010   10.3382   19.5459 N   0  0  0  0  0  0  0  0  0  0  0  0
    4.3923   10.2182   19.8565 N   0  0  0  0  0  0  0  0  0  0  0  0
    3.8717    6.4153   17.6386 N   0  0  0  0  0  0  0  0  0  0  0  0
    1.9669    7.5023   19.0489 N   0  0  0  0  0  0  0  0  0  0  0  0
    1.7060    9.3212   20.2471 N   0  0  0  0  0  0  0  0  0  0  0  0
    2.6206    3.6787   14.5831 N   0  0  0  0  0  0  0  0  0  0  0  0
    2.4824    2.5374   13.6112 C   0  0  0  0  0  0  0  0  0  0  0  0
    7.4003    9.0573   18.3173 C   0  0  0  0  0  0  0  0  0  0  0  0
   -3.0562    7.5661   22.9386 C   0  0  0  0  0  0  0  0  0  0  0  0
   -4.2598    8.3778   20.8084 C   0  0  0  0  0  0  0  0  0  0  0  0
    3.8131    4.5242   14.2824 C   0  0  0  0  0  0  0  0  0  0  0  0
    2.6851    3.1217   15.9519 C   0  0  0  0  0  0  0  0  0  0  0  0
    3.8347    5.6878   15.2715 C   0  0  0  0  0  0  0  0  0  0  0  0
    2.6853    4.2824   17.0207 C   0  0  0  0  0  0  0  0  0  0  0  0
   -0.3559    6.6073   19.4080 C   0  0  0  0  0  0  0  0  0  0  0  0
   -1.5552    6.8848   20.0896 C   0  0  0  0  0  0  0  0  0  0  0  0
   -0.6140    8.9059   20.9782 C   0  0  0  0  0  0  0  0  0  0  0  0
    4.9756    7.0855   17.9019 C   0  0  0  0  0  0  0  0  0  0  0  0
    2.5589    8.6169   19.5112 C   0  0  0  0  0  0  0  0  0  0  0  0
    5.9767    9.2652   18.8467 C   0  0  0  0  0  0  0  0  0  0  0  0
    3.8839    5.2184   16.7515 C   0  0  0  0  0  0  0  0  0  0  0  0
    0.7253    7.4980   19.5319 C   0  0  0  0  0  0  0  0  0  0  0  0
    0.5752    8.6501   20.2897 C   0  0  0  0  0  0  0  0  0  0  0  0
    3.8770    9.0656   19.3385 C   0  0  0  0  0  0  0  0  0  0  0  0
   -2.9716    8.4266   21.6471 C   0  0  0  0  0  0  0  0  0  0  0  0
   -1.6806    8.0333   20.8792 C   0  0  0  0  0  0  0  0  0  0  0  0
    4.8984    8.3951   18.7147 C   0  0  0  0  0  0  0  0  0  0  0  0
    6.1881   11.1121   19.7833 H   0  0  0  0  0  0  0  0  0  0  0  0
    3.0079    6.7165   18.0426 H   0  0  0  0  0  0  0  0  0  0  0  0
    2.3790    6.8099   18.4567 H   0  0  0  0  0  0  0  0  0  0  0  0
    1.6747    1.9962   13.8453 H   0  0  0  0  0  0  0  0  0  0  0  0
    2.3841    2.8991   12.6841 H   0  0  0  0  0  0  0  0  0  0  0  0
    3.2966    1.9587   13.6587 H   0  0  0  0  0  0  0  0  0  0  0  0
    7.4494    8.1881   17.8254 H   0  0  0  0  0  0  0  0  0  0  0  0
    7.6380    9.8051   17.6974 H   0  0  0  0  0  0  0  0  0  0  0  0
    8.0423    9.0431   19.0840 H   0  0  0  0  0  0  0  0  0  0  0  0
   -2.1950    7.6351   23.4422 H   0  0  0  0  0  0  0  0  0  0  0  0
   -3.8051    7.8982   23.5120 H   0  0  0  0  0  0  0  0  0  0  0  0
   -3.2228    6.6112   22.6927 H   0  0  0  0  0  0  0  0  0  0  0  0
   -4.1488    8.9468   19.9935 H   0  0  0  0  0  0  0  0  0  0  0  0
   -4.4430    7.4339   20.5334 H   0  0  0  0  0  0  0  0  0  0  0  0
   -5.0253    8.7209   21.3528 H   0  0  0  0  0  0  0  0  0  0  0  0
    3.7523    4.8752   13.3480 H   0  0  0  0  0  0  0  0  0  0  0  0
    4.6468    3.9808   14.3806 H   0  0  0  0  0  0  0  0  0  0  0  0
    3.5227    2.5842   16.0494 H   0  0  0  0  0  0  0  0  0  0  0  0
    1.8915    2.5330   16.1054 H   0  0  0  0  0  0  0  0  0  0  0  0
    3.0095    6.2365   15.1375 H   0  0  0  0  0  0  0  0  0  0  0  0
    4.6417    6.2490   15.0872 H   0  0  0  0  0  0  0  0  0  0  0  0
    2.7646    3.8925   17.9382 H   0  0  0  0  0  0  0  0  0  0  0  0
    1.8333    4.8012   16.9516 H   0  0  0  0  0  0  0  0  0  0  0  0
   -0.2734    5.7867   18.8424 H   0  0  0  0  0  0  0  0  0  0  0  0
   -2.3268    6.2540   20.0089 H   0  0  0  0  0  0  0  0  0  0  0  0
   -0.6933    9.7253   21.5459 H   0  0  0  0  0  0  0  0  0  0  0  0
    4.7322    4.7111   16.9029 H   0  0  0  0  0  0  0  0  0  0  0  0
   -2.8545    9.3755   21.9404 H   0  0  0  0  0  0  0  0  0  0  0  0
  1 19  2  0  0  0  0
  2  3  1  0  0  0  0
  2 21  1  0  0  0  0
  3 25  2  0  0  0  0
  4 19  1  0  0  0  0
  4 22  1  0  0  0  0
  5 20  1  0  0  0  0
  5 23  1  0  0  0  0
  6 20  2  0  0  0  0
  6 24  1  0  0  0  0
  7  8  1  0  0  0  0
  7 12  1  0  0  0  0
  7 13  1  0  0  0  0
  9 21  1  0  0  0  0
 10 26  1  0  0  0  0
 11 26  1  0  0  0  0
 12 14  1  0  0  0  0
 13 15  1  0  0  0  0
 14 22  1  0  0  0  0
 15 22  1  0  0  0  0
 16 17  1  0  0  0  0
 16 23  2  0  0  0  0
 17 27  2  0  0  0  0
 18 24  2  0  0  0  0
 18 27  1  0  0  0  0
 19 28  1  0  0  0  0
 20 25  1  0  0  0  0
 21 28  2  0  0  0  0
 23 24  1  0  0  0  0
 25 28  1  0  0  0  0
 26 27  1  0  0  0  0
  2 29  1  0  0  0  0
  4 30  1  0  0  0  0
  5 31  1  0  0  0  0
  8 32  1  0  0  0  0
  8 33  1  0  0  0  0
  8 34  1  0  0  0  0
  9 35  1  0  0  0  0
  9 36  1  0  0  0  0
  9 37  1  0  0  0  0
 10 38  1  0  0  0  0
 10 39  1  0  0  0  0
 10 40  1  0  0  0  0
 11 41  1  0  0  0  0
 11 42  1  0  0  0  0
 11 43  1  0  0  0  0
 12 44  1  0  0  0  0
 12 45  1  0  0  0  0
 13 46  1  0  0  0  0
 13 47  1  0  0  0  0
 14 48  1  0  0  0  0
 14 49  1  0  0  0  0
 15 50  1  0  0  0  0
 15 51  1  0  0  0  0
 16 52  1  0  0  0  0
 17 53  1  0  0  0  0
 18 54  1  0  0  0  0
 22 55  1  0  0  0  0
 26 56  1  0  0  0  0
M  END
> <pdb_id>
3NLB

> <uniprot_id>
O14757

> <usmiles>
O=C(NC1CCN(CC1)C)C=2C(=NNC2C)C3=Nc4c(N3)ccc(c4)C(C)C

$$$$
5BX_A_404
          07202409243D 1   1.00000     0.00000     0
            
 34 36  0  0  0  0            999 V2000
    6.9400   21.0980   95.6640 O   0  0  0  0  0  0  0  0  0  0  0  0
    9.3710   20.9170   98.1570 O   0  0  0  0  0  0  0  0  0  0  0  0
    8.3500   19.5470   96.6240 N   0  0  0  0  0  0  0  0  0  0  0  0
   10.2100   18.5800   98.0740 N   0  0  0  0  0  0  0  0  0  0  0  0
   10.5070   24.5640   99.8660 N   0  0  0  0  0  0  0  0  0  0  0  0
   10.1890   17.1910   97.4980 C   0  0  0  0  0  0  0  0  0  0  0  0
    9.7060   22.8080   95.8130 C   0  0  0  0  0  0  0  0  0  0  0  0
   10.3250   23.4730   99.0540 C   0  0  0  0  0  0  0  0  0  0  0  0
    8.5350   27.7970   99.4130 C   0  0  0  0  0  0  0  0  0  0  0  0
    7.7590   27.3580   98.2680 C   0  0  0  0  0  0  0  0  0  0  0  0
    9.4650   26.9340   99.9920 C   0  0  0  0  0  0  0  0  0  0  0  0
    7.9400   26.0440   97.7650 C   0  0  0  0  0  0  0  0  0  0  0  0
    9.3460   19.6140   97.6290 C   0  0  0  0  0  0  0  0  0  0  0  0
    7.7550   20.7740   96.5100 C   0  0  0  0  0  0  0  0  0  0  0  0
    9.6560   25.6030   99.4720 C   0  0  0  0  0  0  0  0  0  0  0  0
    9.3180   23.8100   98.1110 C   0  0  0  0  0  0  0  0  0  0  0  0
    8.8990   25.1650   98.3700 C   0  0  0  0  0  0  0  0  0  0  0  0
    8.3020   21.6210   97.5910 C   0  0  2  0  0  0  0  0  0  0  0  0
    8.7780   22.9190   96.9920 C   0  0  2  0  0  0  0  0  0  0  0  0
   10.7930   18.7620   98.7150 H   0  0  0  0  0  0  0  0  0  0  0  0
   11.0950   24.6060  100.5620 H   0  0  0  0  0  0  0  0  0  0  0  0
   10.4630   17.2230   96.5420 H   0  0  0  0  0  0  0  0  0  0  0  0
    9.3720   16.8620   97.5590 H   0  0  0  0  0  0  0  0  0  0  0  0
   10.8210   16.6090   98.0070 H   0  0  0  0  0  0  0  0  0  0  0  0
    9.2180   22.8840   95.0250 H   0  0  0  0  0  0  0  0  0  0  0  0
   10.1680   21.9190   95.8360 H   0  0  0  0  0  0  0  0  0  0  0  0
   10.3900   23.5420   95.8540 H   0  0  0  0  0  0  0  0  0  0  0  0
   10.7830   22.6350   99.1200 H   0  0  0  0  0  0  0  0  0  0  0  0
    8.4220   28.6650   99.7560 H   0  0  0  0  0  0  0  0  0  0  0  0
    7.1410   27.9190   97.8870 H   0  0  0  0  0  0  0  0  0  0  0  0
   10.0060   27.2420  100.7750 H   0  0  0  0  0  0  0  0  0  0  0  0
    7.3820   25.7200   96.9480 H   0  0  0  0  0  0  0  0  0  0  0  0
    7.4340   21.5820   98.0530 H   0  0  0  0  0  0  0  0  0  0  0  0
    7.9920   23.3600   96.6550 H   0  0  0  0  0  0  0  0  0  0  0  0
  1 14  2  0  0  0  0
  2 13  1  0  0  0  0
  2 18  1  0  0  0  0
  3 13  2  0  0  0  0
  3 14  1  0  0  0  0
  4  6  1  0  0  0  0
  4 13  1  0  0  0  0
  4 20  1  0  0  0  0
  5  8  1  0  0  0  0
  5 15  1  0  0  0  0
  5 21  1  0  0  0  0
  6 22  1  0  0  0  0
  6 23  1  0  0  0  0
  6 24  1  0  0  0  0
  7 19  1  0  0  0  0
  7 25  1  0  0  0  0
  7 26  1  0  0  0  0
  7 27  1  0  0  0  0
  8 16  2  0  0  0  0
  8 28  1  0  0  0  0
  9 10  2  0  0  0  0
  9 11  1  0  0  0  0
  9 29  1  0  0  0  0
 10 12  1  0  0  0  0
 10 30  1  0  0  0  0
 11 15  2  0  0  0  0
 11 31  1  0  0  0  0
 12 17  2  0  0  0  0
 12 32  1  0  0  0  0
 14 18  1  0  0  0  0
 15 17  1  0  0  0  0
 16 17  1  0  0  0  0
 16 19  1  0  0  0  0
 18 19  1  0  0  0  0
 18 33  1  0  0  0  0
 19 34  1  0  0  0  0
M  END
> <pdb_id>
5DK4

> <uniprot_id>
P00953

> <usmiles>
O=C1N=C(O[C@H]1[C@@H](C=2c3c(NC2)cccc3)C)NC

$$$$
5C0_B_1505
          07202416373D 1   1.00000     0.00000     0
            
 49 53  0  0  0  0            999 V2000
   -7.2666   -3.2849   24.2924 O   0  0  0  0  0  0  0  0  0  0  0  0
   -4.8764   -2.7047   24.1088 O   0  0  0  0  0  0  0  0  0  0  0  0
  -14.7719   -0.7122   26.6631 N   0  0  0  0  0  0  0  0  0  0  0  0
  -13.6821   -2.8548   26.5648 N   0  0  0  0  0  0  0  0  0  0  0  0
  -14.4810    0.8785   25.0242 N   0  0  0  0  0  0  0  0  0  0  0  0
  -11.2847   -2.7872   23.8034 N   0  0  0  0  0  0  0  0  0  0  0  0
  -14.4765   -1.9337   27.1141 C   0  0  0  0  0  0  0  0  0  0  0  0
   -9.9880   -2.7722   24.0252 C   0  0  0  0  0  0  0  0  0  0  0  0
   -4.5412    0.0580   21.7098 C   0  0  0  0  0  0  0  0  0  0  0  0
   -5.8521    0.3869   21.5144 C   0  0  0  0  0  0  0  0  0  0  0  0
   -9.0586   -1.9832   23.4372 C   0  0  0  0  0  0  0  0  0  0  0  0
  -15.1097    3.2422   25.6051 C   0  0  0  0  0  0  0  0  0  0  0  0
  -14.8023    2.5401   26.8680 C   0  0  0  0  0  0  0  0  0  0  0  0
   -4.2099   -1.0142   22.5352 C   0  0  0  0  0  0  0  0  0  0  0  0
  -13.0840   -3.1170   22.3582 C   0  0  0  0  0  0  0  0  0  0  0  0
  -13.1579   -4.1322   23.5384 C   0  0  0  0  0  0  0  0  0  0  0  0
   -6.8680   -0.3630   22.0992 C   0  0  0  0  0  0  0  0  0  0  0  0
  -12.7412   -0.8693   23.4645 C   0  0  0  0  0  0  0  0  0  0  0  0
  -14.1783   -0.3401   25.5070 C   0  0  0  0  0  0  0  0  0  0  0  0
  -15.3636    1.8017   25.7315 C   0  0  0  0  0  0  0  0  0  0  0  0
   -7.6330   -2.2810   23.6091 C   0  0  0  0  0  0  0  0  0  0  0  0
   -5.2189   -1.7471   23.1792 C   0  0  0  0  0  0  0  0  0  0  0  0
  -12.0602   -2.0586   22.7975 C   0  0  1  0  0  0  0  0  0  0  0  0
  -13.0979   -2.5147   25.4070 C   0  0  0  0  0  0  0  0  0  0  0  0
  -12.2160   -3.5762   24.6150 C   0  0  2  0  0  0  0  0  0  0  0  0
   -6.5708   -1.4422   22.9479 C   0  0  0  0  0  0  0  0  0  0  0  0
  -13.3178   -1.2206   24.8147 C   0  0  0  0  0  0  0  0  0  0  0  0
   -5.5904   -3.2304   24.5714 H   0  0  0  0  0  0  0  0  0  0  0  0
  -14.0875    1.1620   24.1497 H   0  0  0  0  0  0  0  0  0  0  0  0
  -14.9077   -2.1928   27.9783 H   0  0  0  0  0  0  0  0  0  0  0  0
   -9.6494   -3.4195   24.7081 H   0  0  0  0  0  0  0  0  0  0  0  0
   -3.8202    0.5861   21.2612 H   0  0  0  0  0  0  0  0  0  0  0  0
   -6.0846    1.1752   20.9448 H   0  0  0  0  0  0  0  0  0  0  0  0
   -9.3436   -1.1987   22.8865 H   0  0  0  0  0  0  0  0  0  0  0  0
  -14.3672    3.5704   25.0212 H   0  0  0  0  0  0  0  0  0  0  0  0
  -15.8757    3.8837   25.5625 H   0  0  0  0  0  0  0  0  0  0  0  0
  -15.3598    2.7062   27.6814 H   0  0  0  0  0  0  0  0  0  0  0  0
  -13.8514    2.3929   27.1401 H   0  0  0  0  0  0  0  0  0  0  0  0
   -3.2505   -1.2625   22.6692 H   0  0  0  0  0  0  0  0  0  0  0  0
  -13.9775   -2.6962   22.2015 H   0  0  0  0  0  0  0  0  0  0  0  0
  -12.7793   -3.5733   21.5221 H   0  0  0  0  0  0  0  0  0  0  0  0
  -12.8536   -5.0371   23.2409 H   0  0  0  0  0  0  0  0  0  0  0  0
  -14.0925   -4.1934   23.8891 H   0  0  0  0  0  0  0  0  0  0  0  0
   -7.8226   -0.1305   21.9127 H   0  0  0  0  0  0  0  0  0  0  0  0
  -13.4809   -0.5491   22.8726 H   0  0  0  0  0  0  0  0  0  0  0  0
  -12.0687   -0.1387   23.5826 H   0  0  0  0  0  0  0  0  0  0  0  0
  -16.3214    1.5257   25.8117 H   0  0  0  0  0  0  0  0  0  0  0  0
  -11.4847   -1.7681   22.0330 H   0  0  0  0  0  0  0  0  0  0  0  0
  -11.7833   -4.2708   25.1897 H   0  0  0  0  0  0  0  0  0  0  0  0
  1 21  2  0  0  0  0
  2 22  1  0  0  0  0
  3  7  2  0  0  0  0
  3 19  1  0  0  0  0
  4  7  1  0  0  0  0
  4 24  2  0  0  0  0
  5 19  1  0  0  0  0
  5 20  1  0  0  0  0
  6  8  1  0  0  0  0
  6 23  1  0  0  0  0
  6 25  1  0  0  0  0
  8 11  2  0  0  0  0
  9 10  2  0  0  0  0
  9 14  1  0  0  0  0
 10 17  1  0  0  0  0
 11 21  1  0  0  0  0
 12 13  1  0  0  0  0
 12 20  1  0  0  0  0
 13 20  1  0  0  0  0
 14 22  2  0  0  0  0
 15 16  1  0  0  0  0
 15 23  1  0  0  0  0
 16 25  1  0  0  0  0
 17 26  2  0  0  0  0
 18 23  1  0  0  0  0
 18 27  1  0  0  0  0
 19 27  2  0  0  0  0
 21 26  1  0  0  0  0
 22 26  1  0  0  0  0
 24 25  1  0  0  0  0
 24 27  1  0  0  0  0
  2 28  1  0  0  0  0
  5 29  1  0  0  0  0
  7 30  1  0  0  0  0
  8 31  1  0  0  0  0
  9 32  1  0  0  0  0
 10 33  1  0  0  0  0
 11 34  1  0  0  0  0
 12 35  1  0  0  0  0
 12 36  1  0  0  0  0
 13 37  1  0  0  0  0
 13 38  1  0  0  0  0
 14 39  1  0  0  0  0
 15 40  1  0  0  0  0
 15 41  1  0  0  0  0
 16 42  1  0  0  0  0
 16 43  1  0  0  0  0
 17 44  1  0  0  0  0
 18 45  1  0  0  0  0
 18 46  1  0  0  0  0
 20 47  1  0  0  0  0
 23 48  1  0  0  0  0
 25 49  1  0  0  0  0
M  END
> <pdb_id>
5DKH

> <uniprot_id>
P51531

> <usmiles>
O=C(c1c(O)cccc1)/C=C/N2[C@H]3c4ncnc(NC5CC5)c4C[C@@H]2CC3

$$$$
5C1_A_1265
          07192422123D 1   1.00000     0.00000     0
            
 23 24  0  0  0  0            999 V2000
   11.5268   -1.5601   -1.0504 Cl  0  0  0  0  0  0  0  0  0  0  0  0
    8.8060   -0.2578    4.3656 O   0  0  0  0  0  0  0  0  0  0  0  0
    6.8886    0.2074    2.5778 O   0  0  0  0  0  0  0  0  0  0  0  0
    9.5873    0.3198    0.3027 O   0  0  0  0  0  0  0  0  0  0  0  0
    9.1114   -0.0637    3.1060 N   0  0  0  0  0  0  0  0  0  0  0  0
    7.6832    0.9751   -0.1633 N   0  0  0  0  0  0  0  0  0  0  0  0
    8.2817    1.2000   -1.2375 C   0  0  0  0  0  0  0  0  0  0  0  0
   13.0686    1.1165   -3.4127 C   0  0  0  0  0  0  0  0  0  0  0  0
   12.1476    2.1511   -3.4355 C   0  0  0  0  0  0  0  0  0  0  0  0
   12.8644   -0.0670   -2.7571 C   0  0  0  0  0  0  0  0  0  0  0  0
   11.0186    2.0372   -2.6709 C   0  0  0  0  0  0  0  0  0  0  0  0
    8.0537    0.1519    2.1856 C   0  0  0  0  0  0  0  0  0  0  0  0
   11.7098   -0.1553   -1.9961 C   0  0  0  0  0  0  0  0  0  0  0  0
    8.3918    0.4524    0.7816 C   0  0  0  0  0  0  0  0  0  0  0  0
    9.5651    0.8103   -1.0617 C   0  0  0  0  0  0  0  0  0  0  0  0
   10.7289    0.8523   -1.9971 C   0  0  0  0  0  0  0  0  0  0  0  0
    9.6436   -0.3949    4.8944 H   0  0  0  0  0  0  0  0  0  0  0  0
   10.0640   -0.0674    2.8021 H   0  0  0  0  0  0  0  0  0  0  0  0
    7.8871    1.5929   -2.0681 H   0  0  0  0  0  0  0  0  0  0  0  0
   13.9312    1.2417   -3.9029 H   0  0  0  0  0  0  0  0  0  0  0  0
   12.3043    2.9628   -3.9982 H   0  0  0  0  0  0  0  0  0  0  0  0
   13.5123   -0.8258   -2.8234 H   0  0  0  0  0  0  0  0  0  0  0  0
   10.3936    2.8140   -2.5946 H   0  0  0  0  0  0  0  0  0  0  0  0
  1 13  1  0  0  0  0
  2  5  1  0  0  0  0
  3 12  2  0  0  0  0
  4 14  1  0  0  0  0
  4 15  1  0  0  0  0
  5 12  1  0  0  0  0
  6  7  1  0  0  0  0
  6 14  2  0  0  0  0
  7 15  2  0  0  0  0
  8  9  2  0  0  0  0
  8 10  1  0  0  0  0
  9 11  1  0  0  0  0
 10 13  2  0  0  0  0
 11 16  2  0  0  0  0
 12 14  1  0  0  0  0
 13 16  1  0  0  0  0
 15 16  1  0  0  0  0
  2 17  1  0  0  0  0
  5 18  1  0  0  0  0
  7 19  1  0  0  0  0
  8 20  1  0  0  0  0
  9 21  1  0  0  0  0
 10 22  1  0  0  0  0
 11 23  1  0  0  0  0
M  END
> <pdb_id>
4A6W

> <uniprot_id>
C6EAB7

> <usmiles>
Clc1c(cccc1)C=2OC(=NC2)C(=O)NO

$$$$
5CA_A_418
          07202401103D 1   1.00000     0.00000     0
            
 44 46  0  0  0  0            999 V2000
   34.2683   30.0759   -4.5072 S   0  0  0  0  0  0  0  0  0  0  0  0
   27.8660   30.5592   -5.1363 S   0  0  0  0  0  0  0  0  0  0  0  0
   27.4596   30.7017   -6.5454 O   0  0  0  0  0  0  0  0  0  0  0  0
   27.1589   31.4753   -4.1944 O   0  0  0  0  0  0  0  0  0  0  0  0
   30.1053   29.2971   -6.5931 O   0  0  0  0  0  0  0  0  0  0  0  0
   28.9347   25.0086   -6.1674 O   0  0  0  0  0  0  0  0  0  0  0  0
   29.8056   25.3679   -3.4671 O   0  0  0  0  0  0  0  0  0  0  0  0
   27.6408   29.1548   -4.6886 O   0  0  0  0  0  0  0  0  0  0  0  0
   26.7762   26.5669   -3.5991 O   0  0  0  0  0  0  0  0  0  0  0  0
   21.5496   25.0946   -7.4151 N   0  0  0  0  0  0  0  0  0  0  0  0
   31.8346   31.8173   -4.5303 N   0  0  0  0  0  0  0  0  0  0  0  0
   29.4133   30.7390   -4.9517 N   0  0  0  0  0  0  0  0  0  0  0  0
   22.4128   23.4529   -5.8435 N   0  0  0  0  0  0  0  0  0  0  0  0
   24.6419   23.6707   -4.7809 N   0  0  0  0  0  0  0  0  0  0  0  0
   24.2450   26.6266   -6.9592 N   0  0  0  0  0  0  0  0  0  0  0  0
   25.8405   25.8295   -5.5780 N   0  0  0  0  0  0  0  0  0  0  0  0
   32.7017   29.4474   -5.1509 C   0  0  0  0  0  0  0  0  0  0  0  0
   27.9657   28.7077   -3.3116 C   0  0  0  0  0  0  0  0  0  0  0  0
   23.4356   22.9766   -4.9763 C   0  0  0  0  0  0  0  0  0  0  0  0
   25.4827   26.8126   -6.4294 C   0  0  0  0  0  0  0  0  0  0  0  0
   30.3059   30.1256   -5.6829 C   0  0  0  0  0  0  0  0  0  0  0  0
   28.3857   26.0000   -5.3416 C   0  0  2  0  0  0  0  0  0  0  0  0
   28.9958   26.2314   -4.0622 C   0  0  0  0  0  0  0  0  0  0  0  0
   26.9811   25.6434   -4.7632 C   0  0  1  0  0  0  0  0  0  0  0  0
   27.9575   27.2865   -3.6139 C   0  0  0  0  0  0  0  0  0  0  0  0
   22.4829   24.6531   -6.5664 C   0  0  0  0  0  0  0  0  0  0  0  0
   31.6077   30.4483   -5.0520 C   0  0  0  0  0  0  0  0  0  0  0  0
   24.7815   24.9124   -5.5186 C   0  0  0  0  0  0  0  0  0  0  0  0
   23.7760   25.4067   -6.4048 C   0  0  0  0  0  0  0  0  0  0  0  0
   34.9716   29.3704   -4.5945 H   0  0  0  0  0  0  0  0  0  0  0  0
   28.4130   24.9577   -7.0190 H   0  0  0  0  0  0  0  0  0  0  0  0
   30.2004   25.5860   -2.5746 H   0  0  0  0  0  0  0  0  0  0  0  0
   21.6783   25.9643   -7.8916 H   0  0  0  0  0  0  0  0  0  0  0  0
   20.7225   24.5553   -7.5735 H   0  0  0  0  0  0  0  0  0  0  0  0
   31.0743   32.4649   -4.4781 H   0  0  0  0  0  0  0  0  0  0  0  0
   29.7345   31.3575   -4.2345 H   0  0  0  0  0  0  0  0  0  0  0  0
   32.4423   28.6351   -4.6284 H   0  0  0  0  0  0  0  0  0  0  0  0
   32.8251   29.2002   -6.1119 H   0  0  0  0  0  0  0  0  0  0  0  0
   27.2661   28.9659   -2.6454 H   0  0  0  0  0  0  0  0  0  0  0  0
   28.8588   29.0320   -2.9998 H   0  0  0  0  0  0  0  0  0  0  0  0
   23.2906   22.1162   -4.4879 H   0  0  0  0  0  0  0  0  0  0  0  0
   26.0660   27.5951   -6.6474 H   0  0  0  0  0  0  0  0  0  0  0  0
   28.3303   26.8617   -5.8459 H   0  0  0  0  0  0  0  0  0  0  0  0
   26.9949   24.6999   -4.4322 H   0  0  0  0  0  0  0  0  0  0  0  0
  1 17  1  0  0  0  0
  2  3  2  0  0  0  0
  2  4  2  0  0  0  0
  2  8  1  0  0  0  0
  2 12  1  0  0  0  0
  5 21  2  0  0  0  0
  6 22  1  0  0  0  0
  7 23  1  0  0  0  0
  8 18  1  0  0  0  0
  9 24  1  0  0  0  0
  9 25  1  0  0  0  0
 10 26  1  0  0  0  0
 11 27  2  0  0  0  0
 12 21  1  0  0  0  0
 13 19  1  0  0  0  0
 13 26  2  0  0  0  0
 14 19  2  0  0  0  0
 14 28  1  0  0  0  0
 15 20  2  0  0  0  0
 15 29  1  0  0  0  0
 16 20  1  0  0  0  0
 16 24  1  0  0  0  0
 16 28  1  0  0  0  0
 17 27  1  0  0  0  0
 18 25  1  0  0  0  0
 21 27  1  0  0  0  0
 22 23  1  0  0  0  0
 22 24  1  0  0  0  0
 23 25  2  0  0  0  0
 26 29  1  0  0  0  0
 28 29  2  0  0  0  0
  1 30  1  0  0  0  0
  6 31  1  0  0  0  0
  7 32  1  0  0  0  0
 10 33  1  0  0  0  0
 10 34  1  0  0  0  0
 11 35  1  0  0  0  0
 12 36  1  0  0  0  0
 17 37  1  0  0  0  0
 17 38  1  0  0  0  0
 18 39  1  0  0  0  0
 18 40  1  0  0  0  0
 19 41  1  0  0  0  0
 20 42  1  0  0  0  0
 22 43  1  0  0  0  0
 24 44  1  0  0  0  0
M  END
> <pdb_id>
3C8Z

> <uniprot_id>
A0QZY0

> <usmiles>
S(=O)(=O)(OCC=1O[C@@H](N2c3ncnc(N)c3N=C2)[C@H](O)C1O)NC(=O)C(=N)CS

$$$$
5CA_B_416
          07202401103D 1   1.00000     0.00000     0
            
 46 48  0  0  0  0            999 V2000
   34.2980   30.0430   -4.4380 S   0  0  0  0  0  0  0  0  0  0  0  0
   27.9100   30.5740   -5.0990 S   0  0  0  0  0  0  0  0  0  0  0  0
   27.4240   30.7200   -6.4880 O   0  0  0  0  0  0  0  0  0  0  0  0
   27.2520   31.4570   -4.1220 O   0  0  0  0  0  0  0  0  0  0  0  0
   30.1840   29.3080   -6.4980 O   0  0  0  0  0  0  0  0  0  0  0  0
   28.7460   25.0510   -6.1100 O   0  0  0  0  0  0  0  0  0  0  0  0
   29.7670   25.3430   -3.5790 O   0  0  0  0  0  0  0  0  0  0  0  0
   27.6980   29.1780   -4.6420 O   0  0  0  0  0  0  0  0  0  0  0  0
   26.8970   26.5390   -3.5130 O   0  0  0  0  0  0  0  0  0  0  0  0
   21.4610   25.0820   -7.3380 N   0  0  0  0  0  0  0  0  0  0  0  0
   31.8590   31.8600   -4.4350 N   0  0  0  0  0  0  0  0  0  0  0  0
   29.4620   30.8400   -4.9410 N   0  0  0  0  0  0  0  0  0  0  0  0
   22.4090   23.4470   -5.8850 N   0  0  0  0  0  0  0  0  0  0  0  0
   24.6100   23.6350   -4.8130 N   0  0  0  0  0  0  0  0  0  0  0  0
   24.1730   26.7220   -6.7860 N   0  0  0  0  0  0  0  0  0  0  0  0
   25.7980   25.8760   -5.5070 N   0  0  0  0  0  0  0  0  0  0  0  0
   32.6810   29.4630   -5.0600 C   0  0  0  0  0  0  0  0  0  0  0  0
   28.0560   28.7800   -3.2780 C   0  0  0  0  0  0  0  0  0  0  0  0
   23.4250   22.9440   -5.0520 C   0  0  0  0  0  0  0  0  0  0  0  0
   25.3760   26.9110   -6.2790 C   0  0  0  0  0  0  0  0  0  0  0  0
   30.3680   30.1960   -5.6520 C   0  0  0  0  0  0  0  0  0  0  0  0
   28.2840   26.1910   -5.3840 C   0  0  2  0  0  0  0  0  0  0  0  0
   28.9900   26.4320   -4.1200 C   0  0  1  0  0  0  0  0  0  0  0  0
   26.9370   25.7800   -4.7220 C   0  0  1  0  0  0  0  0  0  0  0  0
   28.0840   27.3370   -3.4140 C   0  0  2  0  0  0  0  0  0  0  0  0
   22.4480   24.6880   -6.5240 C   0  0  0  0  0  0  0  0  0  0  0  0
   31.6680   30.5790   -5.1010 C   0  0  0  0  0  0  0  0  0  0  0  0
   24.7590   24.9340   -5.4940 C   0  0  0  0  0  0  0  0  0  0  0  0
   23.7170   25.4420   -6.3600 C   0  0  0  0  0  0  0  0  0  0  0  0
   34.9433   29.2792   -4.4243 H   0  0  0  0  0  0  0  0  0  0  0  0
   28.2174   24.9564   -6.9536 H   0  0  0  0  0  0  0  0  0  0  0  0
   30.1951   25.6321   -2.7228 H   0  0  0  0  0  0  0  0  0  0  0  0
   21.5086   25.9749   -7.7858 H   0  0  0  0  0  0  0  0  0  0  0  0
   20.6761   24.4835   -7.4983 H   0  0  0  0  0  0  0  0  0  0  0  0
   31.1527   32.5653   -4.4957 H   0  0  0  0  0  0  0  0  0  0  0  0
   29.7678   31.5223   -4.2769 H   0  0  0  0  0  0  0  0  0  0  0  0
   32.3425   28.7397   -4.4581 H   0  0  0  0  0  0  0  0  0  0  0  0
   32.8004   29.0993   -5.9838 H   0  0  0  0  0  0  0  0  0  0  0  0
   27.3665   29.0739   -2.6160 H   0  0  0  0  0  0  0  0  0  0  0  0
   28.9494   29.1419   -3.0116 H   0  0  0  0  0  0  0  0  0  0  0  0
   23.2908   22.0550   -4.6142 H   0  0  0  0  0  0  0  0  0  0  0  0
   25.9216   27.7323   -6.4459 H   0  0  0  0  0  0  0  0  0  0  0  0
   28.2068   27.0109   -5.9513 H   0  0  0  0  0  0  0  0  0  0  0  0
   29.7096   27.0617   -4.4127 H   0  0  0  0  0  0  0  0  0  0  0  0
   27.0259   24.8197   -4.4577 H   0  0  0  0  0  0  0  0  0  0  0  0
   28.3420   27.1042   -2.4763 H   0  0  0  0  0  0  0  0  0  0  0  0
  1 17  1  0  0  0  0
  2  3  2  0  0  0  0
  2  4  2  0  0  0  0
  2  8  1  0  0  0  0
  2 12  1  0  0  0  0
  5 21  2  0  0  0  0
  6 22  1  0  0  0  0
  7 23  1  0  0  0  0
  8 18  1  0  0  0  0
  9 24  1  0  0  0  0
  9 25  1  0  0  0  0
 10 26  1  0  0  0  0
 11 27  2  0  0  0  0
 12 21  1  0  0  0  0
 13 19  1  0  0  0  0
 13 26  2  0  0  0  0
 14 19  2  0  0  0  0
 14 28  1  0  0  0  0
 15 20  2  0  0  0  0
 15 29  1  0  0  0  0
 16 20  1  0  0  0  0
 16 24  1  0  0  0  0
 16 28  1  0  0  0  0
 17 27  1  0  0  0  0
 18 25  1  0  0  0  0
 21 27  1  0  0  0  0
 22 23  1  0  0  0  0
 22 24  1  0  0  0  0
 23 25  1  0  0  0  0
 26 29  1  0  0  0  0
 28 29  2  0  0  0  0
  1 30  1  0  0  0  0
  6 31  1  0  0  0  0
  7 32  1  0  0  0  0
 10 33  1  0  0  0  0
 10 34  1  0  0  0  0
 11 35  1  0  0  0  0
 12 36  1  0  0  0  0
 17 37  1  0  0  0  0
 17 38  1  0  0  0  0
 18 39  1  0  0  0  0
 18 40  1  0  0  0  0
 19 41  1  0  0  0  0
 20 42  1  0  0  0  0
 22 43  1  0  0  0  0
 23 44  1  0  0  0  0
 24 45  1  0  0  0  0
 25 46  1  0  0  0  0
M  END
> <pdb_id>
3C8Z

> <uniprot_id>
A0QZY0

> <usmiles>
S(=O)(=O)(OC[C@H]1O[C@@H](N2c3ncnc(N)c3N=C2)[C@H](O)[C@@H]1O)NC(=O)C(=N)CS

$$$$
5CN_A_1000
          07202412313D 1   1.00000     0.00000     0
            
 46 48  0  0  0  0            999 V2000
    3.3884   30.6193   11.4423 O   0  0  0  0  0  0  0  0  0  0  0  0
    7.4624   26.8965    9.3581 O   0  0  0  0  0  0  0  0  0  0  0  0
    6.8968   25.3516    6.1730 O   0  0  0  0  0  0  0  0  0  0  0  0
    6.6556   23.5120    3.3079 N   0  0  0  0  0  0  0  0  0  0  0  0
    6.1823   27.5271    7.5084 N   0  0  0  0  0  0  0  0  0  0  0  0
    4.8783   29.0187    5.4093 N   0  0  0  0  0  0  0  0  0  0  0  0
    5.2072   27.7880    1.2327 C   0  0  0  0  0  0  0  0  0  0  0  0
    4.6540   30.9667   10.8786 C   0  0  0  0  0  0  0  0  0  0  0  0
    6.9839   23.8106    4.3796 C   0  0  0  0  0  0  0  0  0  0  0  0
    6.1886   29.2129    4.7037 C   0  0  0  0  0  0  0  0  0  0  0  0
    3.6071   28.6898    4.6810 C   0  0  0  0  0  0  0  0  0  0  0  0
    8.2403   23.5962    6.5961 C   0  0  0  0  0  0  0  0  0  0  0  0
    8.2622   24.4606    7.7278 C   0  0  0  0  0  0  0  0  0  0  0  0
    6.2939   28.4320    3.3839 C   0  0  0  0  0  0  0  0  0  0  0  0
    3.8416   27.9596    3.3393 C   0  0  0  0  0  0  0  0  0  0  0  0
    4.0593   30.5867    7.0970 C   0  0  0  0  0  0  0  0  0  0  0  0
    4.0053   31.0914    8.4228 C   0  0  0  0  0  0  0  0  0  0  0  0
    5.4587   29.2588    9.1760 C   0  0  0  0  0  0  0  0  0  0  0  0
    7.0524   26.7061    8.2093 C   0  0  0  0  0  0  0  0  0  0  0  0
    7.3935   24.1891    5.6823 C   0  0  0  0  0  0  0  0  0  0  0  0
    7.4279   25.5247    7.4357 C   0  0  0  0  0  0  0  0  0  0  0  0
    5.5187   28.7320    7.8412 C   0  0  0  0  0  0  0  0  0  0  0  0
    4.8110   29.4095    6.7722 C   0  0  0  0  0  0  0  0  0  0  0  0
    5.0238   28.5431    2.5465 C   0  0  0  0  0  0  0  0  0  0  0  0
    4.7060   30.4349    9.4738 C   0  0  0  0  0  0  0  0  0  0  0  0
    3.3345   30.9652   12.3790 H   0  0  0  0  0  0  0  0  0  0  0  0
    5.9841   27.2033    6.5832 H   0  0  0  0  0  0  0  0  0  0  0  0
    4.3731   27.8627    0.6861 H   0  0  0  0  0  0  0  0  0  0  0  0
    5.9741   28.1820    0.7261 H   0  0  0  0  0  0  0  0  0  0  0  0
    5.3944   26.8248    1.4252 H   0  0  0  0  0  0  0  0  0  0  0  0
    5.3891   30.5604   11.4215 H   0  0  0  0  0  0  0  0  0  0  0  0
    4.7581   31.9612   10.8679 H   0  0  0  0  0  0  0  0  0  0  0  0
    6.9233   28.9098    5.3106 H   0  0  0  0  0  0  0  0  0  0  0  0
    6.3003   30.1867    4.5054 H   0  0  0  0  0  0  0  0  0  0  0  0
    3.1173   29.5420    4.4971 H   0  0  0  0  0  0  0  0  0  0  0  0
    3.0480   28.1039    5.2676 H   0  0  0  0  0  0  0  0  0  0  0  0
    8.7372   22.7354    6.4863 H   0  0  0  0  0  0  0  0  0  0  0  0
    8.7811   24.3245    8.5717 H   0  0  0  0  0  0  0  0  0  0  0  0
    6.4591   27.4681    3.5923 H   0  0  0  0  0  0  0  0  0  0  0  0
    7.0611   28.7950    2.8552 H   0  0  0  0  0  0  0  0  0  0  0  0
    3.0139   28.0373    2.7835 H   0  0  0  0  0  0  0  0  0  0  0  0
    4.0272   26.9952    3.5277 H   0  0  0  0  0  0  0  0  0  0  0  0
    3.5614   31.0633    6.3725 H   0  0  0  0  0  0  0  0  0  0  0  0
    3.4713   31.9136    8.6198 H   0  0  0  0  0  0  0  0  0  0  0  0
    5.9531   28.7933    9.9101 H   0  0  0  0  0  0  0  0  0  0  0  0
    4.8435   29.5067    2.3492 H   0  0  0  0  0  0  0  0  0  0  0  0
  1  8  1  0  0  0  0
  2 19  2  0  0  0  0
  3 20  1  0  0  0  0
  3 21  1  0  0  0  0
  4  9  3  0  0  0  0
  5 19  1  0  0  0  0
  5 22  1  0  0  0  0
  6 10  1  0  0  0  0
  6 11  1  0  0  0  0
  6 23  1  0  0  0  0
  7 24  1  0  0  0  0
  8 25  1  0  0  0  0
  9 20  1  0  0  0  0
 10 14  1  0  0  0  0
 11 15  1  0  0  0  0
 12 13  1  0  0  0  0
 12 20  2  0  0  0  0
 13 21  2  0  0  0  0
 14 24  1  0  0  0  0
 15 24  1  0  0  0  0
 16 17  1  0  0  0  0
 16 23  2  0  0  0  0
 17 25  2  0  0  0  0
 18 22  2  0  0  0  0
 18 25  1  0  0  0  0
 19 21  1  0  0  0  0
 22 23  1  0  0  0  0
  1 26  1  0  0  0  0
  5 27  1  0  0  0  0
  7 28  1  0  0  0  0
  7 29  1  0  0  0  0
  7 30  1  0  0  0  0
  8 31  1  0  0  0  0
  8 32  1  0  0  0  0
 10 33  1  0  0  0  0
 10 34  1  0  0  0  0
 11 35  1  0  0  0  0
 11 36  1  0  0  0  0
 12 37  1  0  0  0  0
 13 38  1  0  0  0  0
 14 39  1  0  0  0  0
 14 40  1  0  0  0  0
 15 41  1  0  0  0  0
 15 42  1  0  0  0  0
 16 43  1  0  0  0  0
 17 44  1  0  0  0  0
 18 45  1  0  0  0  0
 24 46  1  0  0  0  0
M  END
> <pdb_id>
2I0Y

> <uniprot_id>
P07333

> <usmiles>
O=C(Nc1c(N2CCC(CC2)C)ccc(c1)CO)C=3OC(C#N)=CC3

$$$$
5DE_B_1003
          07202412153D 1   1.00000     0.00000     0
            
 36 37  0  0  0  0            999 V2000
   43.8752   46.6367   66.3932 O   0  0  0  0  0  0  0  0  0  0  0  0
   43.1736   46.0711   64.3329 O   0  0  0  0  0  0  0  0  0  0  0  0
   50.5434   45.2141   59.0607 N   0  0  0  0  0  0  0  0  0  0  0  0
   47.7656   46.6737   64.5971 N   0  0  0  0  0  0  0  0  0  0  0  0
   47.3534   46.0455   63.4924 N   0  0  0  0  0  0  0  0  0  0  0  0
   40.8848   45.3681   63.7475 C   0  0  0  0  0  0  0  0  0  0  0  0
   46.8150   47.5483   66.7475 C   0  0  0  0  0  0  0  0  0  0  0  0
   45.1865   45.1787   62.4273 C   0  0  0  0  0  0  0  0  0  0  0  0
   41.8022   46.0714   64.7772 C   0  0  0  0  0  0  0  0  0  0  0  0
   49.6613   44.3820   61.1548 C   0  0  0  0  0  0  0  0  0  0  0  0
   49.0560   46.5729   60.3344 C   0  0  0  0  0  0  0  0  0  0  0  0
   48.8640   44.5665   62.2993 C   0  0  0  0  0  0  0  0  0  0  0  0
   48.2629   46.7579   61.4709 C   0  0  0  0  0  0  0  0  0  0  0  0
   44.1270   46.3522   65.2371 C   0  0  0  0  0  0  0  0  0  0  0  0
   49.7685   45.3769   60.1661 C   0  0  0  0  0  0  0  0  0  0  0  0
   46.6982   46.8676   65.3844 C   0  0  0  0  0  0  0  0  0  0  0  0
   46.0209   45.8501   63.5248 C   0  0  0  0  0  0  0  0  0  0  0  0
   48.1547   45.7614   62.4511 C   0  0  0  0  0  0  0  0  0  0  0  0
   45.5599   46.3443   64.7462 C   0  0  0  0  0  0  0  0  0  0  0  0
   50.5976   45.9414   58.3766 H   0  0  0  0  0  0  0  0  0  0  0  0
   51.0590   44.3670   58.9319 H   0  0  0  0  0  0  0  0  0  0  0  0
   39.9411   45.3815   64.0780 H   0  0  0  0  0  0  0  0  0  0  0  0
   40.9380   45.8475   62.8715 H   0  0  0  0  0  0  0  0  0  0  0  0
   41.1827   44.4210   63.6278 H   0  0  0  0  0  0  0  0  0  0  0  0
   45.9121   47.5965   67.1745 H   0  0  0  0  0  0  0  0  0  0  0  0
   47.4322   47.0211   67.3316 H   0  0  0  0  0  0  0  0  0  0  0  0
   47.1773   48.4727   66.6285 H   0  0  0  0  0  0  0  0  0  0  0  0
   44.2253   45.1616   62.7028 H   0  0  0  0  0  0  0  0  0  0  0  0
   45.2799   45.6939   61.5754 H   0  0  0  0  0  0  0  0  0  0  0  0
   45.5100   44.2428   62.2881 H   0  0  0  0  0  0  0  0  0  0  0  0
   41.4969   47.0163   64.8952 H   0  0  0  0  0  0  0  0  0  0  0  0
   41.7416   45.5899   65.6515 H   0  0  0  0  0  0  0  0  0  0  0  0
   50.1629   43.5244   61.0417 H   0  0  0  0  0  0  0  0  0  0  0  0
   49.1151   47.2925   59.6425 H   0  0  0  0  0  0  0  0  0  0  0  0
   48.8055   43.8514   62.9958 H   0  0  0  0  0  0  0  0  0  0  0  0
   47.7637   47.6166   61.5866 H   0  0  0  0  0  0  0  0  0  0  0  0
  1 14  2  0  0  0  0
  2  9  1  0  0  0  0
  2 14  1  0  0  0  0
  3 15  1  0  0  0  0
  4  5  1  0  0  0  0
  4 16  2  0  0  0  0
  5 17  1  0  0  0  0
  5 18  1  0  0  0  0
  6  9  1  0  0  0  0
  7 16  1  0  0  0  0
  8 17  1  0  0  0  0
 10 12  1  0  0  0  0
 10 15  2  0  0  0  0
 11 13  2  0  0  0  0
 11 15  1  0  0  0  0
 12 18  2  0  0  0  0
 13 18  1  0  0  0  0
 14 19  1  0  0  0  0
 16 19  1  0  0  0  0
 17 19  2  0  0  0  0
  3 20  1  0  0  0  0
  3 21  1  0  0  0  0
  6 22  1  0  0  0  0
  6 23  1  0  0  0  0
  6 24  1  0  0  0  0
  7 25  1  0  0  0  0
  7 26  1  0  0  0  0
  7 27  1  0  0  0  0
  8 28  1  0  0  0  0
  8 29  1  0  0  0  0
  8 30  1  0  0  0  0
  9 31  1  0  0  0  0
  9 32  1  0  0  0  0
 10 33  1  0  0  0  0
 11 34  1  0  0  0  0
 12 35  1  0  0  0  0
 13 36  1  0  0  0  0
M  END
> <pdb_id>
1Y2E

> <uniprot_id>
Q08499

> <usmiles>
O=C(OCC)C=1C(=NN(c2ccc(N)cc2)C1C)C

$$$$
5DL_A_303
          07202409423D 1   1.00000     0.00000     0
            
 23 23  0  0  0  0            999 V2000
  -40.4422  -23.7223   11.0808 P   0  0  0  0  0  0  0  0  0  0  0  0
  -38.9689  -23.4557   11.2601 O   0  0  0  0  0  0  0  0  0  0  0  0
  -40.6799  -24.5168    9.8262 O   0  0  0  0  0  0  0  0  0  0  0  0
  -41.0232  -24.3508   12.3368 O   0  0  0  0  0  0  0  0  0  0  0  0
  -41.8172  -20.1442    9.5570 O   0  0  0  0  0  0  0  0  0  0  0  0
  -39.6455  -19.1221    7.9280 N   0  0  0  0  0  0  0  0  0  0  0  0
  -38.5331  -19.9269    6.1525 N   0  0  0  0  0  0  0  0  0  0  0  0
  -39.3402  -20.4372    8.1055 N   0  0  0  0  0  0  0  0  0  0  0  0
  -39.1346  -18.8579    6.7194 C   0  0  0  0  0  0  0  0  0  0  0  0
  -41.2947  -22.1059   10.9236 C   0  0  0  0  0  0  0  0  0  0  0  0
  -38.6693  -20.9091    7.0418 C   0  0  0  0  0  0  0  0  0  0  0  0
  -39.6760  -21.1756    9.3015 C   0  0  0  0  0  0  0  0  0  0  0  0
  -41.1226  -21.4037    9.5679 C   0  0  2  0  0  0  0  0  0  0  0  0
  -38.8252  -22.9273   12.0969 H   0  0  0  0  0  0  0  0  0  0  0  0
  -41.6596  -24.6864    9.7197 H   0  0  0  0  0  0  0  0  0  0  0  0
  -41.6937  -19.7031    8.6681 H   0  0  0  0  0  0  0  0  0  0  0  0
  -39.1921  -17.9611    6.2808 H   0  0  0  0  0  0  0  0  0  0  0  0
  -40.9391  -21.4983   11.6338 H   0  0  0  0  0  0  0  0  0  0  0  0
  -42.2722  -22.2560   11.0721 H   0  0  0  0  0  0  0  0  0  0  0  0
  -38.3285  -21.8431    6.9352 H   0  0  0  0  0  0  0  0  0  0  0  0
  -39.3005  -20.6746   10.0813 H   0  0  0  0  0  0  0  0  0  0  0  0
  -39.2357  -22.0712    9.2374 H   0  0  0  0  0  0  0  0  0  0  0  0
  -41.4977  -21.9885    8.8486 H   0  0  0  0  0  0  0  0  0  0  0  0
  1  2  1  0  0  0  0
  1  3  1  0  0  0  0
  1  4  2  0  0  0  0
  1 10  1  0  0  0  0
  5 13  1  0  0  0  0
  6  8  1  0  0  0  0
  6  9  2  0  0  0  0
  7  9  1  0  0  0  0
  7 11  2  0  0  0  0
  8 11  1  0  0  0  0
  8 12  1  0  0  0  0
 10 13  1  0  0  0  0
 12 13  1  0  0  0  0
  2 14  1  0  0  0  0
  3 15  1  0  0  0  0
  5 16  1  0  0  0  0
  9 17  1  0  0  0  0
 10 18  1  0  0  0  0
 10 19  1  0  0  0  0
 11 20  1  0  0  0  0
 12 21  1  0  0  0  0
 12 22  1  0  0  0  0
 13 23  1  0  0  0  0
M  END
> <pdb_id>
5EL9

> <uniprot_id>
O23346

> <usmiles>
P(=O)(O)(O)C[C@@H](O)CN1N=CN=C1

$$$$
5DX_B_301
          07202416593D 1   1.00000     0.00000     0
            
 37 38  0  0  0  0            999 V2000
  -15.1255   19.7895  -46.3647 Br  0  0  0  0  0  0  0  0  0  0  0  0
  -10.5602   14.2851  -51.3166 O   0  0  0  0  0  0  0  0  0  0  0  0
  -11.0249   15.8157  -52.7809 O   0  0  0  0  0  0  0  0  0  0  0  0
   -8.4269   21.0692  -54.2909 O   0  0  0  0  0  0  0  0  0  0  0  0
   -9.9729   22.3431  -53.3182 O   0  0  0  0  0  0  0  0  0  0  0  0
   -8.8987   15.9072  -49.8946 N   0  0  0  0  0  0  0  0  0  0  0  0
  -10.1109   20.9315  -51.1047 N   0  0  0  0  0  0  0  0  0  0  0  0
  -10.1895   19.9753  -50.2100 N   0  0  0  0  0  0  0  0  0  0  0  0
  -13.5776   20.7559  -48.6752 C   0  0  0  0  0  0  0  0  0  0  0  0
  -12.3864   18.9044  -47.1667 C   0  0  0  0  0  0  0  0  0  0  0  0
  -12.4013   20.8038  -49.5928 C   0  0  0  0  0  0  0  0  0  0  0  0
  -11.1916   18.9618  -48.0779 C   0  0  0  0  0  0  0  0  0  0  0  0
  -10.0494   17.7629  -50.9529 C   0  0  0  0  0  0  0  0  0  0  0  0
   -8.4477   19.5074  -51.7256 C   0  0  0  0  0  0  0  0  0  0  0  0
  -10.3543   15.4506  -51.7855 C   0  0  0  0  0  0  0  0  0  0  0  0
   -9.2570   21.3054  -53.3651 C   0  0  0  0  0  0  0  0  0  0  0  0
  -13.5515   19.8165  -47.4853 C   0  0  0  0  0  0  0  0  0  0  0  0
   -9.3377   16.4133  -51.1714 C   0  0  2  0  0  0  0  0  0  0  0  0
   -9.4378   20.3283  -52.2196 C   0  0  2  0  0  0  0  0  0  0  0  0
  -11.2361   19.9119  -49.2515 C   0  0  0  0  0  0  0  0  0  0  0  0
   -9.1923   18.8648  -50.5373 C   0  0  1  0  0  0  0  0  0  0  0  0
  -10.0408   13.9662  -50.5237 H   0  0  0  0  0  0  0  0  0  0  0  0
   -7.8861   20.2283  -54.2751 H   0  0  0  0  0  0  0  0  0  0  0  0
   -8.4351   15.0308  -50.0249 H   0  0  0  0  0  0  0  0  0  0  0  0
   -8.2665   16.5598  -49.4769 H   0  0  0  0  0  0  0  0  0  0  0  0
   -9.5845   21.7043  -50.7503 H   0  0  0  0  0  0  0  0  0  0  0  0
  -14.3740   21.3369  -48.8433 H   0  0  0  0  0  0  0  0  0  0  0  0
  -12.4103   18.2872  -46.3803 H   0  0  0  0  0  0  0  0  0  0  0  0
  -12.3873   21.3995  -50.3959 H   0  0  0  0  0  0  0  0  0  0  0  0
  -10.3901   18.3872  -47.9117 H   0  0  0  0  0  0  0  0  0  0  0  0
  -10.7469   17.6326  -50.2483 H   0  0  0  0  0  0  0  0  0  0  0  0
  -10.4888   18.0220  -51.8130 H   0  0  0  0  0  0  0  0  0  0  0  0
   -7.6501   20.0296  -51.4239 H   0  0  0  0  0  0  0  0  0  0  0  0
   -8.1638   18.8238  -52.3979 H   0  0  0  0  0  0  0  0  0  0  0  0
   -8.5566   16.5293  -51.7849 H   0  0  0  0  0  0  0  0  0  0  0  0
  -10.1146   19.6830  -52.5738 H   0  0  0  0  0  0  0  0  0  0  0  0
   -8.5919   18.6330  -49.7720 H   0  0  0  0  0  0  0  0  0  0  0  0
  1 17  1  0  0  0  0
  2 15  1  0  0  0  0
  3 15  2  0  0  0  0
  4 16  1  0  0  0  0
  5 16  2  0  0  0  0
  6 18  1  0  0  0  0
  7  8  1  0  0  0  0
  7 19  1  0  0  0  0
  8 20  1  0  0  0  0
  8 21  1  0  0  0  0
  9 11  1  0  0  0  0
  9 17  2  0  0  0  0
 10 12  2  0  0  0  0
 10 17  1  0  0  0  0
 11 20  2  0  0  0  0
 12 20  1  0  0  0  0
 13 18  1  0  0  0  0
 13 21  1  0  0  0  0
 14 19  1  0  0  0  0
 14 21  1  0  0  0  0
 15 18  1  0  0  0  0
 16 19  1  0  0  0  0
  2 22  1  0  0  0  0
  4 23  1  0  0  0  0
  6 24  1  0  0  0  0
  6 25  1  0  0  0  0
  7 26  1  0  0  0  0
  9 27  1  0  0  0  0
 10 28  1  0  0  0  0
 11 29  1  0  0  0  0
 12 30  1  0  0  0  0
 13 31  1  0  0  0  0
 13 32  1  0  0  0  0
 14 33  1  0  0  0  0
 14 34  1  0  0  0  0
 18 35  1  0  0  0  0
 19 36  1  0  0  0  0
 21 37  1  0  0  0  0
M  END
> <pdb_id>
5VIJ

> <uniprot_id>
P35439

> <usmiles>
Brc1ccc(N2N[C@@H](C(=O)O)C[C@@H]2C[C@@H](N)C(=O)O)cc1

$$$$
5DY_B_301
          07202416593D 1   1.00000     0.00000     0
            
 44 45  0  0  0  0            999 V2000
  -16.3814   17.3407  -47.4604 F   0  0  0  0  0  0  0  0  0  0  0  0
  -10.4652   14.5003  -51.3335 O   0  0  0  0  0  0  0  0  0  0  0  0
  -10.9793   16.0594  -52.7680 O   0  0  0  0  0  0  0  0  0  0  0  0
   -8.6104   21.1601  -54.0247 O   0  0  0  0  0  0  0  0  0  0  0  0
  -10.4720   22.2333  -53.3863 O   0  0  0  0  0  0  0  0  0  0  0  0
   -8.8409   16.0537  -49.8228 N   0  0  0  0  0  0  0  0  0  0  0  0
  -10.3695   21.1296  -50.7539 N   0  0  0  0  0  0  0  0  0  0  0  0
  -10.5442   20.0863  -49.9474 N   0  0  0  0  0  0  0  0  0  0  0  0
  -16.5142   18.3757  -48.3505 C   0  0  0  0  0  0  0  0  0  0  0  0
  -16.4862   19.7187  -47.5979 C   0  0  0  0  0  0  0  0  0  0  0  0
  -15.3523   19.7832  -46.5719 C   0  0  0  0  0  0  0  0  0  0  0  0
  -11.5504   19.1517  -47.7540 C   0  0  0  0  0  0  0  0  0  0  0  0
  -12.8661   20.6979  -49.4860 C   0  0  0  0  0  0  0  0  0  0  0  0
  -12.8047   19.0768  -46.9111 C   0  0  0  0  0  0  0  0  0  0  0  0
  -14.0962   20.6099  -48.6395 C   0  0  0  0  0  0  0  0  0  0  0  0
  -10.2899   17.8430  -50.6333 C   0  0  0  0  0  0  0  0  0  0  0  0
   -8.7852   19.5825  -51.5391 C   0  0  0  0  0  0  0  0  0  0  0  0
  -10.3397   15.6814  -51.7434 C   0  0  0  0  0  0  0  0  0  0  0  0
   -9.5440   21.4000  -53.1866 C   0  0  0  0  0  0  0  0  0  0  0  0
   -9.4136   16.6526  -51.0151 C   0  0  2  0  0  0  0  0  0  0  0  0
   -9.5510   20.6680  -51.8636 C   0  0  0  0  0  0  0  0  0  0  0  0
  -11.6303   19.9639  -49.0352 C   0  0  0  0  0  0  0  0  0  0  0  0
   -9.5271   19.0028  -50.2806 C   0  0  1  0  0  0  0  0  0  0  0  0
  -14.0584   19.8095  -47.3606 C   0  0  0  0  0  0  0  0  0  0  0  0
   -9.9625   14.1958  -50.5244 H   0  0  0  0  0  0  0  0  0  0  0  0
   -7.9034   20.4873  -53.8066 H   0  0  0  0  0  0  0  0  0  0  0  0
   -8.2690   15.2755  -50.0824 H   0  0  0  0  0  0  0  0  0  0  0  0
   -8.2835   16.7319  -49.3439 H   0  0  0  0  0  0  0  0  0  0  0  0
  -10.7311   22.0526  -50.6225 H   0  0  0  0  0  0  0  0  0  0  0  0
  -17.3834   18.2859  -48.8367 H   0  0  0  0  0  0  0  0  0  0  0  0
  -15.7605   18.3475  -49.0071 H   0  0  0  0  0  0  0  0  0  0  0  0
  -17.3577   19.8397  -47.1227 H   0  0  0  0  0  0  0  0  0  0  0  0
  -16.3628   20.4569  -48.2611 H   0  0  0  0  0  0  0  0  0  0  0  0
  -15.3782   18.9793  -45.9776 H   0  0  0  0  0  0  0  0  0  0  0  0
  -15.4353   20.6109  -46.0169 H   0  0  0  0  0  0  0  0  0  0  0  0
  -10.7078   18.6879  -47.4803 H   0  0  0  0  0  0  0  0  0  0  0  0
  -12.8642   21.2317  -50.3316 H   0  0  0  0  0  0  0  0  0  0  0  0
  -12.8088   18.5480  -46.0624 H   0  0  0  0  0  0  0  0  0  0  0  0
  -14.9354   21.0768  -48.9183 H   0  0  0  0  0  0  0  0  0  0  0  0
  -10.8578   17.5842  -49.8519 H   0  0  0  0  0  0  0  0  0  0  0  0
  -10.8763   18.0705  -51.4107 H   0  0  0  0  0  0  0  0  0  0  0  0
   -7.9598   19.2426  -51.9897 H   0  0  0  0  0  0  0  0  0  0  0  0
   -8.6835   16.9514  -51.6296 H   0  0  0  0  0  0  0  0  0  0  0  0
   -8.9009   18.8263  -49.5211 H   0  0  0  0  0  0  0  0  0  0  0  0
  1  9  1  0  0  0  0
  2 18  1  0  0  0  0
  3 18  2  0  0  0  0
  4 19  1  0  0  0  0
  5 19  2  0  0  0  0
  6 20  1  0  0  0  0
  7  8  1  0  0  0  0
  7 21  1  0  0  0  0
  8 22  1  0  0  0  0
  8 23  1  0  0  0  0
  9 10  1  0  0  0  0
 10 11  1  0  0  0  0
 11 24  1  0  0  0  0
 12 14  1  0  0  0  0
 12 22  2  0  0  0  0
 13 15  2  0  0  0  0
 13 22  1  0  0  0  0
 14 24  2  0  0  0  0
 15 24  1  0  0  0  0
 16 20  1  0  0  0  0
 16 23  1  0  0  0  0
 17 21  2  0  0  0  0
 17 23  1  0  0  0  0
 18 20  1  0  0  0  0
 19 21  1  0  0  0  0
  2 25  1  0  0  0  0
  4 26  1  0  0  0  0
  6 27  1  0  0  0  0
  6 28  1  0  0  0  0
  7 29  1  0  0  0  0
  9 30  1  0  0  0  0
  9 31  1  0  0  0  0
 10 32  1  0  0  0  0
 10 33  1  0  0  0  0
 11 34  1  0  0  0  0
 11 35  1  0  0  0  0
 12 36  1  0  0  0  0
 13 37  1  0  0  0  0
 14 38  1  0  0  0  0
 15 39  1  0  0  0  0
 16 40  1  0  0  0  0
 16 41  1  0  0  0  0
 17 42  1  0  0  0  0
 20 43  1  0  0  0  0
 23 44  1  0  0  0  0
M  END
> <pdb_id>
5VII

> <uniprot_id>
P35439

> <usmiles>
FCCCc1ccc(N2NC(C(=O)O)=C[C@@H]2C[C@@H](N)C(=O)O)cc1

$$$$
5DZ_B_301
          07202416593D 1   1.00000     0.00000     0
            
 35 36  0  0  0  0            999 V2000
  -14.2082   19.4562  -45.9423 F   0  0  0  0  0  0  0  0  0  0  0  0
  -10.5235   14.4605  -51.3655 O   0  0  0  0  0  0  0  0  0  0  0  0
  -10.9943   15.9252  -52.9246 O   0  0  0  0  0  0  0  0  0  0  0  0
   -8.8252   21.2112  -54.4683 O   0  0  0  0  0  0  0  0  0  0  0  0
  -10.4816   22.3006  -53.5407 O   0  0  0  0  0  0  0  0  0  0  0  0
   -8.5587   15.8910  -50.2807 N   0  0  0  0  0  0  0  0  0  0  0  0
  -10.0280   21.1008  -50.9377 N   0  0  0  0  0  0  0  0  0  0  0  0
  -10.2606   20.0286  -50.1927 N   0  0  0  0  0  0  0  0  0  0  0  0
  -13.6811   20.2542  -48.2454 C   0  0  0  0  0  0  0  0  0  0  0  0
  -11.8624   19.0757  -46.7172 C   0  0  0  0  0  0  0  0  0  0  0  0
  -12.6414   20.4062  -49.3552 C   0  0  0  0  0  0  0  0  0  0  0  0
  -10.8298   19.2302  -47.8220 C   0  0  0  0  0  0  0  0  0  0  0  0
  -10.1020   17.7117  -50.7323 C   0  0  0  0  0  0  0  0  0  0  0  0
   -8.9639   19.3886  -52.1351 C   0  0  0  0  0  0  0  0  0  0  0  0
  -10.3360   15.5857  -51.9048 C   0  0  0  0  0  0  0  0  0  0  0  0
   -9.5582   21.4489  -53.4710 C   0  0  0  0  0  0  0  0  0  0  0  0
  -13.2825   19.5871  -46.9305 C   0  0  0  0  0  0  0  0  0  0  0  0
   -9.3142   16.5541  -51.3253 C   0  0  2  0  0  0  0  0  0  0  0  0
   -9.3213   20.7054  -52.1610 C   0  0  0  0  0  0  0  0  0  0  0  0
  -11.2240   19.8935  -49.1289 C   0  0  0  0  0  0  0  0  0  0  0  0
   -9.3410   18.9198  -50.7016 C   0  0  1  0  0  0  0  0  0  0  0  0
   -9.9965   14.1997  -50.5566 H   0  0  0  0  0  0  0  0  0  0  0  0
   -8.0943   20.5321  -54.4010 H   0  0  0  0  0  0  0  0  0  0  0  0
   -8.0421   15.1306  -50.6743 H   0  0  0  0  0  0  0  0  0  0  0  0
   -7.9260   16.5426  -49.8621 H   0  0  0  0  0  0  0  0  0  0  0  0
  -10.2935   22.0356  -50.7018 H   0  0  0  0  0  0  0  0  0  0  0  0
  -14.6141   20.5885  -48.3789 H   0  0  0  0  0  0  0  0  0  0  0  0
  -11.6109   18.6398  -45.8531 H   0  0  0  0  0  0  0  0  0  0  0  0
  -12.8890   20.8384  -50.2224 H   0  0  0  0  0  0  0  0  0  0  0  0
   -9.8965   18.8968  -47.6885 H   0  0  0  0  0  0  0  0  0  0  0  0
  -10.3689   17.4750  -49.7981 H   0  0  0  0  0  0  0  0  0  0  0  0
  -10.9216   17.8609  -51.2854 H   0  0  0  0  0  0  0  0  0  0  0  0
   -8.5534   18.8488  -52.8701 H   0  0  0  0  0  0  0  0  0  0  0  0
   -8.7005   16.8828  -52.0432 H   0  0  0  0  0  0  0  0  0  0  0  0
   -8.5301   18.8252  -50.1240 H   0  0  0  0  0  0  0  0  0  0  0  0
  1 17  1  0  0  0  0
  2 15  1  0  0  0  0
  3 15  2  0  0  0  0
  4 16  1  0  0  0  0
  5 16  2  0  0  0  0
  6 18  1  0  0  0  0
  7  8  1  0  0  0  0
  7 19  1  0  0  0  0
  8 20  1  0  0  0  0
  8 21  1  0  0  0  0
  9 11  2  0  0  0  0
  9 17  1  0  0  0  0
 10 12  1  0  0  0  0
 10 17  2  0  0  0  0
 11 20  1  0  0  0  0
 12 20  2  0  0  0  0
 13 18  1  0  0  0  0
 13 21  1  0  0  0  0
 14 19  2  0  0  0  0
 14 21  1  0  0  0  0
 15 18  1  0  0  0  0
 16 19  1  0  0  0  0
  2 22  1  0  0  0  0
  4 23  1  0  0  0  0
  6 24  1  0  0  0  0
  6 25  1  0  0  0  0
  7 26  1  0  0  0  0
  9 27  1  0  0  0  0
 10 28  1  0  0  0  0
 11 29  1  0  0  0  0
 12 30  1  0  0  0  0
 13 31  1  0  0  0  0
 13 32  1  0  0  0  0
 14 33  1  0  0  0  0
 18 34  1  0  0  0  0
 21 35  1  0  0  0  0
M  END
> <pdb_id>
5VIH

> <uniprot_id>
Q00959

> <usmiles>
Fc1ccc(N2NC(C(=O)O)=C[C@@H]2C[C@@H](N)C(=O)O)cc1

$$$$
5E0_B_301
          07202416593D 1   1.00000     0.00000     0
            
 37 38  0  0  0  0            999 V2000
  -10.5793   14.5475  -51.6355 O   0  0  0  0  0  0  0  0  0  0  0  0
  -11.0090   16.3454  -52.8100 O   0  0  0  0  0  0  0  0  0  0  0  0
  -10.7273   22.5410  -53.2024 O   0  0  0  0  0  0  0  0  0  0  0  0
   -8.9698   21.4738  -53.9665 O   0  0  0  0  0  0  0  0  0  0  0  0
   -8.9270   15.8930  -49.9788 N   0  0  0  0  0  0  0  0  0  0  0  0
  -10.4799   21.0333  -50.7251 N   0  0  0  0  0  0  0  0  0  0  0  0
  -10.5785   19.9861  -49.9431 N   0  0  0  0  0  0  0  0  0  0  0  0
  -13.4661   19.3595  -46.6571 C   0  0  0  0  0  0  0  0  0  0  0  0
  -12.0465   18.8482  -46.5171 C   0  0  0  0  0  0  0  0  0  0  0  0
  -13.8789   20.1312  -47.8658 C   0  0  0  0  0  0  0  0  0  0  0  0
  -11.0790   19.0562  -47.6172 C   0  0  0  0  0  0  0  0  0  0  0  0
  -12.9055   20.3487  -48.9870 C   0  0  0  0  0  0  0  0  0  0  0  0
  -10.3108   17.7405  -50.6323 C   0  0  0  0  0  0  0  0  0  0  0  0
   -9.1180   19.5838  -51.7951 C   0  0  0  0  0  0  0  0  0  0  0  0
  -10.3843   15.7672  -51.8920 C   0  0  0  0  0  0  0  0  0  0  0  0
   -9.9157   21.5765  -53.1335 C   0  0  0  0  0  0  0  0  0  0  0  0
   -9.4109   16.6263  -51.0893 C   0  0  2  0  0  0  0  0  0  0  0  0
  -10.0667   20.5340  -52.0165 C   0  0  2  0  0  0  0  0  0  0  0  0
  -11.5198   19.8004  -48.8444 C   0  0  0  0  0  0  0  0  0  0  0  0
   -9.5775   18.9589  -50.4489 C   0  0  1  0  0  0  0  0  0  0  0  0
  -10.0700   14.1041  -50.8980 H   0  0  0  0  0  0  0  0  0  0  0  0
  -11.4728   22.6154  -52.5401 H   0  0  0  0  0  0  0  0  0  0  0  0
   -8.3310   15.1569  -50.2996 H   0  0  0  0  0  0  0  0  0  0  0  0
   -8.4103   16.5019  -49.3769 H   0  0  0  0  0  0  0  0  0  0  0  0
   -9.7987   21.6713  -50.3659 H   0  0  0  0  0  0  0  0  0  0  0  0
  -14.1319   19.1782  -45.9333 H   0  0  0  0  0  0  0  0  0  0  0  0
  -11.7645   18.3719  -45.6842 H   0  0  0  0  0  0  0  0  0  0  0  0
  -14.8048   20.5036  -47.9287 H   0  0  0  0  0  0  0  0  0  0  0  0
  -10.1451   18.7061  -47.5443 H   0  0  0  0  0  0  0  0  0  0  0  0
  -13.1761   20.8482  -49.8100 H   0  0  0  0  0  0  0  0  0  0  0  0
  -10.7352   17.4817  -49.7646 H   0  0  0  0  0  0  0  0  0  0  0  0
  -11.0216   17.8882  -51.3200 H   0  0  0  0  0  0  0  0  0  0  0  0
   -8.2091   19.9926  -51.7124 H   0  0  0  0  0  0  0  0  0  0  0  0
   -9.1115   18.9020  -52.5266 H   0  0  0  0  0  0  0  0  0  0  0  0
   -8.6635   16.9669  -51.6597 H   0  0  0  0  0  0  0  0  0  0  0  0
  -10.8569   19.9981  -52.3140 H   0  0  0  0  0  0  0  0  0  0  0  0
   -8.8137   18.8408  -49.8143 H   0  0  0  0  0  0  0  0  0  0  0  0
  1 15  1  0  0  0  0
  2 15  2  0  0  0  0
  3 16  1  0  0  0  0
  4 16  2  0  0  0  0
  5 17  1  0  0  0  0
  6  7  1  0  0  0  0
  6 18  1  0  0  0  0
  7 19  1  0  0  0  0
  7 20  1  0  0  0  0
  8  9  2  0  0  0  0
  8 10  1  0  0  0  0
  9 11  1  0  0  0  0
 10 12  2  0  0  0  0
 11 19  2  0  0  0  0
 12 19  1  0  0  0  0
 13 17  1  0  0  0  0
 13 20  1  0  0  0  0
 14 18  1  0  0  0  0
 14 20  1  0  0  0  0
 15 17  1  0  0  0  0
 16 18  1  0  0  0  0
  1 21  1  0  0  0  0
  3 22  1  0  0  0  0
  5 23  1  0  0  0  0
  5 24  1  0  0  0  0
  6 25  1  0  0  0  0
  8 26  1  0  0  0  0
  9 27  1  0  0  0  0
 10 28  1  0  0  0  0
 11 29  1  0  0  0  0
 12 30  1  0  0  0  0
 13 31  1  0  0  0  0
 13 32  1  0  0  0  0
 14 33  1  0  0  0  0
 14 34  1  0  0  0  0
 17 35  1  0  0  0  0
 18 36  1  0  0  0  0
 20 37  1  0  0  0  0
M  END
> <pdb_id>
5DEX

> <uniprot_id>
Q00959

> <usmiles>
O=C(O)[C@@H]1NN(c2ccccc2)[C@H](C1)C[C@@H](N)C(=O)O

$$$$
5E5_A_401
          07192419233D 1   1.00000     0.00000     0
            
 26 28  0  0  0  0            999 V2000
  -21.2132   39.8583    1.3114 N   0  0  0  0  0  0  0  0  0  0  0  0
  -20.6092   39.3531    2.4758 N   0  0  0  0  0  0  0  0  0  0  0  0
  -16.0126   33.4548    0.7503 N   0  0  0  0  0  0  0  0  0  0  0  0
  -18.2054   36.5754    2.1989 N   0  0  0  0  0  0  0  0  0  0  0  0
  -21.2359   39.4884   -1.1558 C   0  0  0  0  0  0  0  0  0  0  0  0
  -15.7320   33.3459   -0.5423 C   0  0  0  0  0  0  0  0  0  0  0  0
  -16.8085   34.4051    1.2085 C   0  0  0  0  0  0  0  0  0  0  0  0
  -18.9241   37.4860    2.8143 C   0  0  0  0  0  0  0  0  0  0  0  0
  -16.2510   34.2386   -1.4725 C   0  0  0  0  0  0  0  0  0  0  0  0
  -17.0955   35.2588   -1.0396 C   0  0  0  0  0  0  0  0  0  0  0  0
  -19.0811   37.1954    0.0738 C   0  0  0  0  0  0  0  0  0  0  0  0
  -20.7983   39.1901    0.2648 C   0  0  0  0  0  0  0  0  0  0  0  0
  -19.7718   38.3293    2.1050 C   0  0  0  0  0  0  0  0  0  0  0  0
  -18.2562   36.4020    0.8813 C   0  0  0  0  0  0  0  0  0  0  0  0
  -17.3816   35.3367    0.3320 C   0  0  0  0  0  0  0  0  0  0  0  0
  -19.8706   38.1927    0.6950 C   0  0  0  0  0  0  0  0  0  0  0  0
  -20.7619   39.6807    3.4082 H   0  0  0  0  0  0  0  0  0  0  0  0
  -20.7897   38.8500   -1.7830 H   0  0  0  0  0  0  0  0  0  0  0  0
  -22.2282   39.3871   -1.2272 H   0  0  0  0  0  0  0  0  0  0  0  0
  -20.9784   40.4248   -1.3942 H   0  0  0  0  0  0  0  0  0  0  0  0
  -15.1350   32.6064   -0.8533 H   0  0  0  0  0  0  0  0  0  0  0  0
  -17.0034   34.4598    2.1878 H   0  0  0  0  0  0  0  0  0  0  0  0
  -18.8607   37.5743    3.8083 H   0  0  0  0  0  0  0  0  0  0  0  0
  -16.0209   34.1497   -2.4416 H   0  0  0  0  0  0  0  0  0  0  0  0
  -17.4853   35.9148   -1.6859 H   0  0  0  0  0  0  0  0  0  0  0  0
  -19.1115   37.0606   -0.9167 H   0  0  0  0  0  0  0  0  0  0  0  0
  1  2  1  0  0  0  0
  1 12  2  0  0  0  0
  2 13  1  0  0  0  0
  3  6  2  0  0  0  0
  3  7  1  0  0  0  0
  4  8  1  0  0  0  0
  4 14  2  0  0  0  0
  5 12  1  0  0  0  0
  6  9  1  0  0  0  0
  7 15  2  0  0  0  0
  8 13  2  0  0  0  0
  9 10  2  0  0  0  0
 10 15  1  0  0  0  0
 11 14  1  0  0  0  0
 11 16  2  0  0  0  0
 12 16  1  0  0  0  0
 13 16  1  0  0  0  0
 14 15  1  0  0  0  0
  2 17  1  0  0  0  0
  5 18  1  0  0  0  0
  5 19  1  0  0  0  0
  5 20  1  0  0  0  0
  6 21  1  0  0  0  0
  7 22  1  0  0  0  0
  8 23  1  0  0  0  0
  9 24  1  0  0  0  0
 10 25  1  0  0  0  0
 11 26  1  0  0  0  0
M  END
> <pdb_id>
5DHJ

> <uniprot_id>
P11309

> <usmiles>
n1c(c2cnccc2)cc3c(NN=C3C)c1

$$$$
5E6_A_401
          07192419233D 1   1.00000     0.00000     0
            
 52 56  0  0  0  0            999 V2000
  -15.5875   37.1069   -5.9448 N   0  0  0  0  0  0  0  0  0  0  0  0
  -21.0618   39.5753    1.5596 N   0  0  0  0  0  0  0  0  0  0  0  0
  -15.7711   33.3953    1.2662 N   0  0  0  0  0  0  0  0  0  0  0  0
  -18.0809   36.4373    2.6448 N   0  0  0  0  0  0  0  0  0  0  0  0
  -19.5463   38.2350   -3.9683 N   0  0  0  0  0  0  0  0  0  0  0  0
  -20.1662   38.6548   -1.8008 N   0  0  0  0  0  0  0  0  0  0  0  0
  -20.5437   39.0871    2.7077 N   0  0  0  0  0  0  0  0  0  0  0  0
  -15.4191   33.3139    0.0196 C   0  0  0  0  0  0  0  0  0  0  0  0
  -16.5754   34.3049    1.6929 C   0  0  0  0  0  0  0  0  0  0  0  0
  -18.8642   37.3021    3.1856 C   0  0  0  0  0  0  0  0  0  0  0  0
  -15.9018   34.1888   -0.9103 C   0  0  0  0  0  0  0  0  0  0  0  0
  -18.9233   35.4902   -5.0429 C   0  0  0  0  0  0  0  0  0  0  0  0
  -22.1350   40.2911   -2.5379 C   0  0  0  0  0  0  0  0  0  0  0  0
  -21.3745   39.6738   -3.4788 C   0  0  0  0  0  0  0  0  0  0  0  0
  -17.5069   35.6050   -5.5599 C   0  0  0  0  0  0  0  0  0  0  0  0
  -18.9055   35.9071   -3.5947 C   0  0  0  0  0  0  0  0  0  0  0  0
  -21.8679   40.0653   -1.2178 C   0  0  0  0  0  0  0  0  0  0  0  0
  -16.7578   35.1688   -0.5058 C   0  0  0  0  0  0  0  0  0  0  0  0
  -17.1351   37.6076   -4.1342 C   0  0  0  0  0  0  0  0  0  0  0  0
  -18.7982   37.0315    0.5268 C   0  0  0  0  0  0  0  0  0  0  0  0
  -20.3655   38.8505   -3.0556 C   0  0  0  0  0  0  0  0  0  0  0  0
  -16.9846   37.0367   -5.5257 C   0  0  1  0  0  0  0  0  0  0  0  0
  -18.4993   37.3561   -3.5019 C   0  0  1  0  0  0  0  0  0  0  0  0
  -18.0276   36.2584    1.3550 C   0  0  0  0  0  0  0  0  0  0  0  0
  -19.6660   38.1197    2.4383 C   0  0  0  0  0  0  0  0  0  0  0  0
  -20.8713   39.2102   -0.8687 C   0  0  0  0  0  0  0  0  0  0  0  0
  -20.5656   38.9618    0.5546 C   0  0  0  0  0  0  0  0  0  0  0  0
  -17.1144   35.2307    0.8297 C   0  0  0  0  0  0  0  0  0  0  0  0
  -19.6387   37.9813    1.0724 C   0  0  0  0  0  0  0  0  0  0  0  0
  -20.7705   39.3984    3.5908 H   0  0  0  0  0  0  0  0  0  0  0  0
  -15.2767   38.0568   -5.9111 H   0  0  0  0  0  0  0  0  0  0  0  0
  -15.0270   36.5508   -5.3312 H   0  0  0  0  0  0  0  0  0  0  0  0
  -19.6731   38.3935   -4.9474 H   0  0  0  0  0  0  0  0  0  0  0  0
  -14.7826   32.5970   -0.2648 H   0  0  0  0  0  0  0  0  0  0  0  0
  -16.8115   34.3391    2.6640 H   0  0  0  0  0  0  0  0  0  0  0  0
  -18.8875   37.3790    4.1824 H   0  0  0  0  0  0  0  0  0  0  0  0
  -15.6323   34.1121   -1.8702 H   0  0  0  0  0  0  0  0  0  0  0  0
  -19.2417   34.5457   -5.1234 H   0  0  0  0  0  0  0  0  0  0  0  0
  -19.5282   36.0915   -5.5649 H   0  0  0  0  0  0  0  0  0  0  0  0
  -22.8794   40.9019   -2.8078 H   0  0  0  0  0  0  0  0  0  0  0  0
  -21.5467   39.8165   -4.4534 H   0  0  0  0  0  0  0  0  0  0  0  0
  -17.4834   35.2781   -6.5047 H   0  0  0  0  0  0  0  0  0  0  0  0
  -16.9123   35.0335   -4.9945 H   0  0  0  0  0  0  0  0  0  0  0  0
  -18.2503   35.3431   -3.0922 H   0  0  0  0  0  0  0  0  0  0  0  0
  -19.8173   35.7894   -3.2014 H   0  0  0  0  0  0  0  0  0  0  0  0
  -22.4035   40.5274   -0.5110 H   0  0  0  0  0  0  0  0  0  0  0  0
  -17.1212   35.8305   -1.1615 H   0  0  0  0  0  0  0  0  0  0  0  0
  -16.9889   38.5957   -4.1828 H   0  0  0  0  0  0  0  0  0  0  0  0
  -16.4369   37.1958   -3.5487 H   0  0  0  0  0  0  0  0  0  0  0  0
  -18.7523   36.9088   -0.4646 H   0  0  0  0  0  0  0  0  0  0  0  0
  -17.5319   37.5884   -6.1550 H   0  0  0  0  0  0  0  0  0  0  0  0
  -18.3909   37.5499   -2.5269 H   0  0  0  0  0  0  0  0  0  0  0  0
  1 22  1  0  0  0  0
  2  7  1  0  0  0  0
  2 27  2  0  0  0  0
  3  8  2  0  0  0  0
  3  9  1  0  0  0  0
  4 10  1  0  0  0  0
  4 24  2  0  0  0  0
  5 21  1  0  0  0  0
  5 23  1  0  0  0  0
  6 21  1  0  0  0  0
  6 26  2  0  0  0  0
  7 25  1  0  0  0  0
  7 30  1  0  0  0  0
  8 11  1  0  0  0  0
  9 28  2  0  0  0  0
 10 25  2  0  0  0  0
 11 18  2  0  0  0  0
 12 15  1  0  0  0  0
 12 16  1  0  0  0  0
 13 14  1  0  0  0  0
 13 17  2  0  0  0  0
 14 21  2  0  0  0  0
 15 22  1  0  0  0  0
 16 23  1  0  0  0  0
 17 26  1  0  0  0  0
 18 28  1  0  0  0  0
 19 22  1  0  0  0  0
 19 23  1  0  0  0  0
 20 24  1  0  0  0  0
 20 29  2  0  0  0  0
 24 28  1  0  0  0  0
 25 29  1  0  0  0  0
 26 27  1  0  0  0  0
 27 29  1  0  0  0  0
  1 31  1  0  0  0  0
  1 32  1  0  0  0  0
  5 33  1  0  0  0  0
  8 34  1  0  0  0  0
  9 35  1  0  0  0  0
 10 36  1  0  0  0  0
 11 37  1  0  0  0  0
 12 38  1  0  0  0  0
 12 39  1  0  0  0  0
 13 40  1  0  0  0  0
 14 41  1  0  0  0  0
 15 42  1  0  0  0  0
 15 43  1  0  0  0  0
 16 44  1  0  0  0  0
 16 45  1  0  0  0  0
 17 46  1  0  0  0  0
 18 47  1  0  0  0  0
 19 48  1  0  0  0  0
 19 49  1  0  0  0  0
 20 50  1  0  0  0  0
 22 51  1  0  0  0  0
 23 52  1  0  0  0  0
M  END
> <pdb_id>
5DIA

> <uniprot_id>
P11309

> <usmiles>
n1c(N[C@@H]2C[C@@H](N)CCC2)cccc1C3=NNc4c3cc(nc4)c5cnccc5

$$$$
5EF_C_302
          07192419453D 1   1.00000     0.00000     0
            
 46 48  0  0  0  0            999 V2000
    6.6908    7.7819  -36.4273 S   0  0  0  0  0  0  0  0  0  0  0  0
    5.3455   12.0816  -40.9619 S   0  0  0  0  0  0  0  0  0  0  0  0
    7.8085    8.0998  -39.3737 F   0  0  0  0  0  0  0  0  0  0  0  0
    7.0537    9.9421  -41.1545 F   0  0  0  0  0  0  0  0  0  0  0  0
    4.7864    9.9770  -36.2048 F   0  0  0  0  0  0  0  0  0  0  0  0
    5.4343    7.0736  -36.0555 O   0  0  0  0  0  0  0  0  0  0  0  0
    7.4706    8.3815  -35.2877 O   0  0  0  0  0  0  0  0  0  0  0  0
    4.2736   13.1582  -40.5437 O   0  0  0  0  0  0  0  0  0  0  0  0
    4.7134   11.1437  -42.0404 O   0  0  0  0  0  0  0  0  0  0  0  0
    7.1114   15.1239  -39.9010 O   0  0  0  0  0  0  0  0  0  0  0  0
    7.6869    6.5222  -37.0636 N   0  0  0  0  0  0  0  0  0  0  0  0
    3.9961   11.9548  -37.9139 N   0  0  0  0  0  0  0  0  0  0  0  0
    6.7800   13.1587  -41.3143 C   0  0  0  0  0  0  0  0  0  0  0  0
    7.3109   13.7202  -39.9804 C   0  0  0  0  0  0  0  0  0  0  0  0
    1.0317   15.4182  -36.1127 C   0  0  0  0  0  0  0  0  0  0  0  0
    0.6489   14.1187  -36.5569 C   0  0  0  0  0  0  0  0  0  0  0  0
    5.2843   13.8394  -36.8705 C   0  0  0  0  0  0  0  0  0  0  0  0
    2.3814   15.7868  -35.8996 C   0  0  0  0  0  0  0  0  0  0  0  0
    4.8379   15.0182  -35.9641 C   0  0  0  0  0  0  0  0  0  0  0  0
    1.6888   13.1522  -36.7697 C   0  0  0  0  0  0  0  0  0  0  0  0
    6.3045    9.0217  -37.6920 C   0  0  0  0  0  0  0  0  0  0  0  0
    5.5609   10.9238  -39.5975 C   0  0  0  0  0  0  0  0  0  0  0  0
    6.8611    9.0158  -38.9777 C   0  0  0  0  0  0  0  0  0  0  0  0
    6.5193    9.9665  -39.8939 C   0  0  0  0  0  0  0  0  0  0  0  0
    5.3660   10.0084  -37.3869 C   0  0  0  0  0  0  0  0  0  0  0  0
    4.2442   12.7416  -36.6784 C   0  0  1  0  0  0  0  0  0  0  0  0
    3.3783   14.8273  -36.1179 C   0  0  0  0  0  0  0  0  0  0  0  0
    4.9385   10.9506  -38.3301 C   0  0  0  0  0  0  0  0  0  0  0  0
    3.0163   13.5497  -36.5109 C   0  0  0  0  0  0  0  0  0  0  0  0
    7.4637   15.4618  -39.0282 H   0  0  0  0  0  0  0  0  0  0  0  0
    8.5672    6.9038  -37.3457 H   0  0  0  0  0  0  0  0  0  0  0  0
    7.8349    5.8269  -36.3604 H   0  0  0  0  0  0  0  0  0  0  0  0
    3.1733   12.1234  -38.4567 H   0  0  0  0  0  0  0  0  0  0  0  0
    6.4981   13.9118  -41.9088 H   0  0  0  0  0  0  0  0  0  0  0  0
    7.4972   12.6280  -41.7660 H   0  0  0  0  0  0  0  0  0  0  0  0
    6.8276   13.2784  -39.2246 H   0  0  0  0  0  0  0  0  0  0  0  0
    8.2891   13.5249  -39.9101 H   0  0  0  0  0  0  0  0  0  0  0  0
    0.3171   16.0973  -35.9448 H   0  0  0  0  0  0  0  0  0  0  0  0
   -0.3113   13.8883  -36.7148 H   0  0  0  0  0  0  0  0  0  0  0  0
    6.1885   13.5129  -36.5951 H   0  0  0  0  0  0  0  0  0  0  0  0
    5.3114   14.1283  -37.8274 H   0  0  0  0  0  0  0  0  0  0  0  0
    2.6179   16.7111  -35.6000 H   0  0  0  0  0  0  0  0  0  0  0  0
    5.1458   15.9042  -36.3106 H   0  0  0  0  0  0  0  0  0  0  0  0
    5.1398   14.9074  -35.0172 H   0  0  0  0  0  0  0  0  0  0  0  0
    1.4788   12.2287  -37.0906 H   0  0  0  0  0  0  0  0  0  0  0  0
    4.4361   12.1634  -35.8854 H   0  0  0  0  0  0  0  0  0  0  0  0
  1  6  2  0  0  0  0
  1  7  2  0  0  0  0
  1 11  1  0  0  0  0
  1 21  1  0  0  0  0
  2  8  2  0  0  0  0
  2  9  2  0  0  0  0
  2 13  1  0  0  0  0
  2 22  1  0  0  0  0
  3 23  1  0  0  0  0
  4 24  1  0  0  0  0
  5 25  1  0  0  0  0
 10 14  1  0  0  0  0
 12 26  1  0  0  0  0
 12 28  1  0  0  0  0
 13 14  1  0  0  0  0
 15 16  2  0  0  0  0
 15 18  1  0  0  0  0
 16 20  1  0  0  0  0
 17 19  1  0  0  0  0
 17 26  1  0  0  0  0
 18 27  2  0  0  0  0
 19 27  1  0  0  0  0
 20 29  2  0  0  0  0
 21 23  2  0  0  0  0
 21 25  1  0  0  0  0
 22 24  2  0  0  0  0
 22 28  1  0  0  0  0
 23 24  1  0  0  0  0
 25 28  2  0  0  0  0
 26 29  1  0  0  0  0
 27 29  1  0  0  0  0
 10 30  1  0  0  0  0
 11 31  1  0  0  0  0
 11 32  1  0  0  0  0
 12 33  1  0  0  0  0
 13 34  1  0  0  0  0
 13 35  1  0  0  0  0
 14 36  1  0  0  0  0
 14 37  1  0  0  0  0
 15 38  1  0  0  0  0
 16 39  1  0  0  0  0
 17 40  1  0  0  0  0
 17 41  1  0  0  0  0
 18 42  1  0  0  0  0
 19 43  1  0  0  0  0
 19 44  1  0  0  0  0
 20 45  1  0  0  0  0
 26 46  1  0  0  0  0
M  END
> <pdb_id>
5LLO

> <uniprot_id>
O43570

> <usmiles>
S(=O)(=O)(N)c1c(F)c(F)c(S(=O)(=O)CCO)c(N[C@@H]2c3c(cccc3)CC2)c1F

$$$$
5EM_A_303
          07202407423D 1   1.00000     0.00000     0
            
 51 52  0  0  0  0            999 V2000
   22.0089   -7.8782   -7.3179 O   0  0  0  0  0  0  0  0  0  0  0  0
   22.2152  -10.3189   -8.1263 O   0  0  0  0  0  0  0  0  0  0  0  0
   27.0427  -10.7912   -7.3773 O   0  0  0  0  0  0  0  0  0  0  0  0
   29.1108  -24.3316    0.8609 N   0  0  0  0  0  0  0  0  0  0  0  0
   25.9600  -10.7253  -10.4799 N   0  0  0  0  0  0  0  0  0  0  0  0
   23.2208   -8.3336   -7.6330 N   0  0  0  0  0  0  0  0  0  0  0  0
   24.8470  -11.4062   -7.7660 N   0  0  0  0  0  0  0  0  0  0  0  0
   23.7593  -11.7366  -10.3885 C   0  0  0  0  0  0  0  0  0  0  0  0
   24.0295   -9.3132  -10.7344 C   0  0  0  0  0  0  0  0  0  0  0  0
   27.1581  -18.6926   -2.6812 C   0  0  0  0  0  0  0  0  0  0  0  0
   26.9382  -17.4406   -3.4126 C   0  0  0  0  0  0  0  0  0  0  0  0
   27.4355  -23.1960   -0.5435 C   0  0  0  0  0  0  0  0  0  0  0  0
   29.5965  -22.0117    0.0760 C   0  0  0  0  0  0  0  0  0  0  0  0
   27.4625  -19.6816   -2.0775 C   0  0  0  0  0  0  0  0  0  0  0  0
   26.8204  -16.4034   -4.0188 C   0  0  0  0  0  0  0  0  0  0  0  0
   27.0206  -22.0388   -1.2876 C   0  0  0  0  0  0  0  0  0  0  0  0
   29.1894  -20.8579   -0.6512 C   0  0  0  0  0  0  0  0  0  0  0  0
   27.6863  -14.1448   -4.7434 C   0  0  0  0  0  0  0  0  0  0  0  0
   25.4728  -15.0013   -5.5423 C   0  0  0  0  0  0  0  0  0  0  0  0
   27.5002  -12.9326   -5.5098 C   0  0  0  0  0  0  0  0  0  0  0  0
   25.2935  -13.7634   -6.2956 C   0  0  0  0  0  0  0  0  0  0  0  0
   23.2703   -9.6556   -8.0903 C   0  0  0  0  0  0  0  0  0  0  0  0
   26.1115  -11.5379   -7.1075 C   0  0  0  0  0  0  0  0  0  0  0  0
   28.6994  -23.1876    0.1277 C   0  0  0  0  0  0  0  0  0  0  0  0
   24.6012  -10.2161   -8.5427 C   0  0  2  0  0  0  0  0  0  0  0  0
   27.9019  -20.8896   -1.3185 C   0  0  0  0  0  0  0  0  0  0  0  0
   26.6541  -15.1310   -4.7659 C   0  0  0  0  0  0  0  0  0  0  0  0
   26.3028  -12.7735   -6.2791 C   0  0  0  0  0  0  0  0  0  0  0  0
   24.5929  -10.5277  -10.0473 C   0  0  0  0  0  0  0  0  0  0  0  0
   22.0798   -6.9313   -7.0043 H   0  0  0  0  0  0  0  0  0  0  0  0
   29.9926  -24.3328    1.3324 H   0  0  0  0  0  0  0  0  0  0  0  0
   28.5187  -25.1362    0.9059 H   0  0  0  0  0  0  0  0  0  0  0  0
   26.5029   -9.9179  -10.2485 H   0  0  0  0  0  0  0  0  0  0  0  0
   26.3425  -11.5269  -10.0204 H   0  0  0  0  0  0  0  0  0  0  0  0
   24.0411   -7.7681   -7.5483 H   0  0  0  0  0  0  0  0  0  0  0  0
   24.1521  -12.1211   -7.6894 H   0  0  0  0  0  0  0  0  0  0  0  0
   22.8179  -11.5888  -10.0853 H   0  0  0  0  0  0  0  0  0  0  0  0
   23.7720  -11.8817  -11.3779 H   0  0  0  0  0  0  0  0  0  0  0  0
   24.1352  -12.5412   -9.9288 H   0  0  0  0  0  0  0  0  0  0  0  0
   23.0846   -9.1715  -10.4393 H   0  0  0  0  0  0  0  0  0  0  0  0
   24.5771   -8.5111  -10.4957 H   0  0  0  0  0  0  0  0  0  0  0  0
   24.0525   -9.4498  -11.7247 H   0  0  0  0  0  0  0  0  0  0  0  0
   26.8451  -24.0016   -0.4950 H   0  0  0  0  0  0  0  0  0  0  0  0
   30.4787  -22.0277    0.5465 H   0  0  0  0  0  0  0  0  0  0  0  0
   26.1457  -22.0272   -1.7718 H   0  0  0  0  0  0  0  0  0  0  0  0
   29.7744  -20.0484   -0.7006 H   0  0  0  0  0  0  0  0  0  0  0  0
   28.5195  -14.2890   -4.2094 H   0  0  0  0  0  0  0  0  0  0  0  0
   24.7891  -15.7304   -5.5722 H   0  0  0  0  0  0  0  0  0  0  0  0
   28.1976  -12.2159   -5.5027 H   0  0  0  0  0  0  0  0  0  0  0  0
   24.4569  -13.6159   -6.8232 H   0  0  0  0  0  0  0  0  0  0  0  0
   25.3195   -9.5471   -8.3516 H   0  0  0  0  0  0  0  0  0  0  0  0
  1  6  1  0  0  0  0
  2 22  2  0  0  0  0
  3 23  2  0  0  0  0
  4 24  1  0  0  0  0
  5 29  1  0  0  0  0
  6 22  1  0  0  0  0
  7 23  1  0  0  0  0
  7 25  1  0  0  0  0
  8 29  1  0  0  0  0
  9 29  1  0  0  0  0
 10 11  1  0  0  0  0
 10 14  3  0  0  0  0
 11 15  3  0  0  0  0
 12 16  1  0  0  0  0
 12 24  2  0  0  0  0
 13 17  2  0  0  0  0
 13 24  1  0  0  0  0
 14 26  1  0  0  0  0
 15 27  1  0  0  0  0
 16 26  2  0  0  0  0
 17 26  1  0  0  0  0
 18 20  1  0  0  0  0
 18 27  2  0  0  0  0
 19 21  2  0  0  0  0
 19 27  1  0  0  0  0
 20 28  2  0  0  0  0
 21 28  1  0  0  0  0
 22 25  1  0  0  0  0
 23 28  1  0  0  0  0
 25 29  1  0  0  0  0
  1 30  1  0  0  0  0
  4 31  1  0  0  0  0
  4 32  1  0  0  0  0
  5 33  1  0  0  0  0
  5 34  1  0  0  0  0
  6 35  1  0  0  0  0
  7 36  1  0  0  0  0
  8 37  1  0  0  0  0
  8 38  1  0  0  0  0
  8 39  1  0  0  0  0
  9 40  1  0  0  0  0
  9 41  1  0  0  0  0
  9 42  1  0  0  0  0
 12 43  1  0  0  0  0
 13 44  1  0  0  0  0
 16 45  1  0  0  0  0
 17 46  1  0  0  0  0
 18 47  1  0  0  0  0
 19 48  1  0  0  0  0
 20 49  1  0  0  0  0
 21 50  1  0  0  0  0
 25 51  1  0  0  0  0
M  END
> <pdb_id>
5DRQ

> <uniprot_id>
P47205

> <usmiles>
O=C(N[C@H](C(=O)NO)C(N)(C)C)c1ccc(C#CC#Cc2ccc(N)cc2)cc1

$$$$
5EW_A_1002
          07192420013D 1   1.00000     0.00000     0
            
 59 63  0  0  0  0            999 V2000
   35.8554  -10.5824    9.1530 Cl  0  0  0  0  0  0  0  0  0  0  0  0
   32.7285  -10.3939   14.7238 O   0  0  0  0  0  0  0  0  0  0  0  0
   37.5670   -9.2737   13.6370 N   0  0  0  0  0  0  0  0  0  0  0  0
   38.3479   -5.4074   12.5689 N   0  0  0  0  0  0  0  0  0  0  0  0
   34.6194  -11.7817   11.1681 N   0  0  0  0  0  0  0  0  0  0  0  0
   37.0922   -7.3353   12.3623 N   0  0  0  0  0  0  0  0  0  0  0  0
   36.6211   -5.4729   10.9430 N   0  0  0  0  0  0  0  0  0  0  0  0
   30.6372  -11.0805   15.3843 N   0  0  0  0  0  0  0  0  0  0  0  0
   33.2788   -8.8436    9.3943 N   0  0  0  0  0  0  0  0  0  0  0  0
   36.3793  -10.0125   13.2414 C   0  0  0  0  0  0  0  0  0  0  0  0
   30.8244  -10.6029   16.7694 C   0  0  0  0  0  0  0  0  0  0  0  0
   31.3509   -9.8417    8.0511 C   0  0  0  0  0  0  0  0  0  0  0  0
   29.9351  -12.5711   11.3649 C   0  0  0  0  0  0  0  0  0  0  0  0
   39.1072   -5.9515   13.5455 C   0  0  0  0  0  0  0  0  0  0  0  0
   33.6514  -12.0253   12.0679 C   0  0  0  0  0  0  0  0  0  0  0  0
   29.4641  -11.6960   15.0470 C   0  0  0  0  0  0  0  0  0  0  0  0
   38.8804   -7.2661   13.9452 C   0  0  0  0  0  0  0  0  0  0  0  0
   35.0765   -5.1079    9.1939 C   0  0  0  0  0  0  0  0  0  0  0  0
   29.2430  -12.1751   13.8064 C   0  0  0  0  0  0  0  0  0  0  0  0
   34.0429   -5.5003    8.3410 C   0  0  0  0  0  0  0  0  0  0  0  0
   35.0702   -7.3024   10.3004 C   0  0  0  0  0  0  0  0  0  0  0  0
   32.3409   -7.5201    7.9135 C   0  0  0  0  0  0  0  0  0  0  0  0
   32.4147  -10.1365   11.1940 C   0  0  0  0  0  0  0  0  0  0  0  0
   37.3463   -6.0798   11.9463 C   0  0  0  0  0  0  0  0  0  0  0  0
   34.5280  -10.7681   10.2757 C   0  0  0  0  0  0  0  0  0  0  0  0
   37.8163   -7.9608   13.3410 C   0  0  0  0  0  0  0  0  0  0  0  0
   31.6406  -10.9150   14.4625 C   0  0  0  0  0  0  0  0  0  0  0  0
   35.6168   -5.9915   10.1623 C   0  0  0  0  0  0  0  0  0  0  0  0
   32.3145   -8.7375    8.4725 C   0  0  0  0  0  0  0  0  0  0  0  0
   33.4183   -9.9103   10.2521 C   0  0  0  0  0  0  0  0  0  0  0  0
   33.9721   -7.6695    9.4910 C   0  0  0  0  0  0  0  0  0  0  0  0
   30.2597  -12.0282   12.7478 C   0  0  0  0  0  0  0  0  0  0  0  0
   33.4829   -6.7761    8.5406 C   0  0  0  0  0  0  0  0  0  0  0  0
   32.5287  -11.1906   12.0969 C   0  0  0  0  0  0  0  0  0  0  0  0
   31.4177  -11.4088   13.0862 C   0  0  0  0  0  0  0  0  0  0  0  0
   38.2578   -9.7642   14.1682 H   0  0  0  0  0  0  0  0  0  0  0  0
   36.8602   -4.5198   10.7573 H   0  0  0  0  0  0  0  0  0  0  0  0
   36.4415  -10.9507   13.5819 H   0  0  0  0  0  0  0  0  0  0  0  0
   35.5687   -9.5712   13.6264 H   0  0  0  0  0  0  0  0  0  0  0  0
   36.3106  -10.0238   12.2438 H   0  0  0  0  0  0  0  0  0  0  0  0
   31.7258  -10.1789   16.8569 H   0  0  0  0  0  0  0  0  0  0  0  0
   30.1172   -9.9308   16.9887 H   0  0  0  0  0  0  0  0  0  0  0  0
   30.7569  -11.3757   17.4005 H   0  0  0  0  0  0  0  0  0  0  0  0
   30.7336   -9.4940    7.3454 H   0  0  0  0  0  0  0  0  0  0  0  0
   31.8694  -10.6160    7.6884 H   0  0  0  0  0  0  0  0  0  0  0  0
   30.8179  -10.1391    8.8432 H   0  0  0  0  0  0  0  0  0  0  0  0
   30.7073  -12.4045   10.7517 H   0  0  0  0  0  0  0  0  0  0  0  0
   29.7631  -13.5544   11.4248 H   0  0  0  0  0  0  0  0  0  0  0  0
   29.1215  -12.1115   11.0088 H   0  0  0  0  0  0  0  0  0  0  0  0
   39.8290   -5.4123   13.9794 H   0  0  0  0  0  0  0  0  0  0  0  0
   33.7322  -12.7907   12.7064 H   0  0  0  0  0  0  0  0  0  0  0  0
   28.7499  -11.7936   15.7401 H   0  0  0  0  0  0  0  0  0  0  0  0
   39.4545   -7.7017   14.6384 H   0  0  0  0  0  0  0  0  0  0  0  0
   35.4446   -4.1811    9.1199 H   0  0  0  0  0  0  0  0  0  0  0  0
   28.3793  -12.6356   13.6014 H   0  0  0  0  0  0  0  0  0  0  0  0
   33.7127   -4.8970    7.6151 H   0  0  0  0  0  0  0  0  0  0  0  0
   35.4573   -7.9491   10.9577 H   0  0  0  0  0  0  0  0  0  0  0  0
   31.7182   -7.1735    7.2120 H   0  0  0  0  0  0  0  0  0  0  0  0
   31.6120   -9.5407   11.2210 H   0  0  0  0  0  0  0  0  0  0  0  0
  1 25  1  0  0  0  0
  2 27  2  0  0  0  0
  3 10  1  0  0  0  0
  3 26  1  0  0  0  0
  4 14  1  0  0  0  0
  4 24  2  0  0  0  0
  5 15  2  0  0  0  0
  5 25  1  0  0  0  0
  6 24  1  0  0  0  0
  6 26  2  0  0  0  0
  7 24  1  0  0  0  0
  7 28  1  0  0  0  0
  8 11  1  0  0  0  0
  8 16  1  0  0  0  0
  8 27  1  0  0  0  0
  9 29  1  0  0  0  0
  9 30  1  0  0  0  0
  9 31  1  0  0  0  0
 12 29  1  0  0  0  0
 13 32  1  0  0  0  0
 14 17  2  0  0  0  0
 15 34  1  0  0  0  0
 16 19  2  0  0  0  0
 17 26  1  0  0  0  0
 18 20  1  0  0  0  0
 18 28  2  0  0  0  0
 19 32  1  0  0  0  0
 20 33  2  0  0  0  0
 21 28  1  0  0  0  0
 21 31  2  0  0  0  0
 22 29  2  0  0  0  0
 22 33  1  0  0  0  0
 23 30  1  0  0  0  0
 23 34  2  0  0  0  0
 25 30  2  0  0  0  0
 27 35  1  0  0  0  0
 31 33  1  0  0  0  0
 32 35  2  0  0  0  0
 34 35  1  0  0  0  0
  3 36  1  0  0  0  0
  7 37  1  0  0  0  0
 10 38  1  0  0  0  0
 10 39  1  0  0  0  0
 10 40  1  0  0  0  0
 11 41  1  0  0  0  0
 11 42  1  0  0  0  0
 11 43  1  0  0  0  0
 12 44  1  0  0  0  0
 12 45  1  0  0  0  0
 12 46  1  0  0  0  0
 13 47  1  0  0  0  0
 13 48  1  0  0  0  0
 13 49  1  0  0  0  0
 14 50  1  0  0  0  0
 15 51  1  0  0  0  0
 16 52  1  0  0  0  0
 17 53  1  0  0  0  0
 18 54  1  0  0  0  0
 19 55  1  0  0  0  0
 20 56  1  0  0  0  0
 21 57  1  0  0  0  0
 22 58  1  0  0  0  0
 23 59  1  0  0  0  0
M  END
> <pdb_id>
5DSX

> <uniprot_id>
Q8TEK3

> <usmiles>
Clc1ncc(cc1N2c3c(ccc(Nc4nc(NC)ccn4)c3)C=C2C)C=5C(=O)N(C=CC5C)C

$$$$
5FI_A_401
          07202400003D 1   1.00000     0.00000     0
            
 49 52  0  0  0  0            999 V2000
   13.4518   -4.6874    8.1073 F   0  0  0  0  0  0  0  0  0  0  0  0
   15.0890   -5.3589    6.9228 F   0  0  0  0  0  0  0  0  0  0  0  0
   13.1783   -6.1825    6.5385 F   0  0  0  0  0  0  0  0  0  0  0  0
    7.2439  -13.5584   15.2179 N   0  0  0  0  0  0  0  0  0  0  0  0
    9.4801  -13.2555   15.0919 N   0  0  0  0  0  0  0  0  0  0  0  0
   15.2074   -9.8325   11.1574 N   0  0  0  0  0  0  0  0  0  0  0  0
   13.8857  -10.3451    9.5321 N   0  0  0  0  0  0  0  0  0  0  0  0
   13.1790  -12.5155   11.8690 N   0  0  0  0  0  0  0  0  0  0  0  0
   10.6754  -12.7043   13.1280 N   0  0  0  0  0  0  0  0  0  0  0  0
    7.9348  -11.1312   11.4117 C   0  0  0  0  0  0  0  0  0  0  0  0
    8.4094  -13.5479   15.7974 C   0  0  0  0  0  0  0  0  0  0  0  0
    7.1024  -13.2688   13.9308 C   0  0  0  0  0  0  0  0  0  0  0  0
   12.9964  -11.6830   13.0703 C   0  0  0  0  0  0  0  0  0  0  0  0
   11.9988  -12.5206   10.9964 C   0  0  0  0  0  0  0  0  0  0  0  0
   11.8357  -12.2222   13.9320 C   0  0  0  0  0  0  0  0  0  0  0  0
   10.8657  -13.2270   11.7240 C   0  0  0  0  0  0  0  0  0  0  0  0
   14.4179  -12.2446   11.1324 C   0  0  0  0  0  0  0  0  0  0  0  0
    7.8993  -12.6322   11.6692 C   0  0  0  0  0  0  0  0  0  0  0  0
   15.5430   -7.4448   10.5491 C   0  0  0  0  0  0  0  0  0  0  0  0
   15.1913   -6.4885    9.6032 C   0  0  0  0  0  0  0  0  0  0  0  0
   13.8416   -8.1173    8.4383 C   0  0  0  0  0  0  0  0  0  0  0  0
   14.4992  -10.8052   10.6053 C   0  0  0  0  0  0  0  0  0  0  0  0
    9.4467  -12.9381   13.7739 C   0  0  0  0  0  0  0  0  0  0  0  0
   15.0454   -8.7447   10.4266 C   0  0  0  0  0  0  0  0  0  0  0  0
   14.2032   -9.0722    9.3848 C   0  0  0  0  0  0  0  0  0  0  0  0
    8.2032  -12.9419   13.1432 C   0  0  0  0  0  0  0  0  0  0  0  0
   14.3422   -6.8220    8.5481 C   0  0  0  0  0  0  0  0  0  0  0  0
   13.9839   -5.7363    7.5037 C   0  0  0  0  0  0  0  0  0  0  0  0
   15.7667   -9.9083   11.9829 H   0  0  0  0  0  0  0  0  0  0  0  0
    7.7346  -10.9535   10.4482 H   0  0  0  0  0  0  0  0  0  0  0  0
    7.2504  -10.6787   11.9833 H   0  0  0  0  0  0  0  0  0  0  0  0
    8.8427  -10.7761   11.6345 H   0  0  0  0  0  0  0  0  0  0  0  0
    8.4900  -13.7605   16.7712 H   0  0  0  0  0  0  0  0  0  0  0  0
    6.1909  -13.2856   13.5199 H   0  0  0  0  0  0  0  0  0  0  0  0
   12.7911  -10.7447   12.7921 H   0  0  0  0  0  0  0  0  0  0  0  0
   13.8387  -11.6942   13.6092 H   0  0  0  0  0  0  0  0  0  0  0  0
   12.2088  -13.0055   10.1474 H   0  0  0  0  0  0  0  0  0  0  0  0
   11.7305  -11.5806   10.7859 H   0  0  0  0  0  0  0  0  0  0  0  0
   12.1772  -12.9832   14.4836 H   0  0  0  0  0  0  0  0  0  0  0  0
   11.5209  -11.4888   14.5345 H   0  0  0  0  0  0  0  0  0  0  0  0
   10.0183  -13.0889   11.2114 H   0  0  0  0  0  0  0  0  0  0  0  0
   11.0722  -14.2044   11.7695 H   0  0  0  0  0  0  0  0  0  0  0  0
   14.4705  -12.8720   10.3555 H   0  0  0  0  0  0  0  0  0  0  0  0
   15.1933  -12.4047   11.7433 H   0  0  0  0  0  0  0  0  0  0  0  0
    8.5830  -13.0797   11.0927 H   0  0  0  0  0  0  0  0  0  0  0  0
    6.9907  -12.9822   11.4415 H   0  0  0  0  0  0  0  0  0  0  0  0
   16.1461   -7.2047   11.3097 H   0  0  0  0  0  0  0  0  0  0  0  0
   15.5485   -5.5576    9.6797 H   0  0  0  0  0  0  0  0  0  0  0  0
   13.2280   -8.3591    7.6866 H   0  0  0  0  0  0  0  0  0  0  0  0
  1 28  1  0  0  0  0
  2 28  1  0  0  0  0
  3 28  1  0  0  0  0
  4 11  2  0  0  0  0
  4 12  1  0  0  0  0
  5 11  1  0  0  0  0
  5 23  2  0  0  0  0
  6 22  1  0  0  0  0
  6 24  1  0  0  0  0
  7 22  2  0  0  0  0
  7 25  1  0  0  0  0
  8 13  1  0  0  0  0
  8 14  1  0  0  0  0
  8 17  1  0  0  0  0
  9 15  1  0  0  0  0
  9 16  1  0  0  0  0
  9 23  1  0  0  0  0
 10 18  1  0  0  0  0
 12 26  2  0  0  0  0
 13 15  1  0  0  0  0
 14 16  1  0  0  0  0
 17 22  1  0  0  0  0
 18 26  1  0  0  0  0
 19 20  1  0  0  0  0
 19 24  2  0  0  0  0
 20 27  2  0  0  0  0
 21 25  2  0  0  0  0
 21 27  1  0  0  0  0
 23 26  1  0  0  0  0
 24 25  1  0  0  0  0
 27 28  1  0  0  0  0
  6 29  1  0  0  0  0
 10 30  1  0  0  0  0
 10 31  1  0  0  0  0
 10 32  1  0  0  0  0
 11 33  1  0  0  0  0
 12 34  1  0  0  0  0
 13 35  1  0  0  0  0
 13 36  1  0  0  0  0
 14 37  1  0  0  0  0
 14 38  1  0  0  0  0
 15 39  1  0  0  0  0
 15 40  1  0  0  0  0
 16 41  1  0  0  0  0
 16 42  1  0  0  0  0
 17 43  1  0  0  0  0
 17 44  1  0  0  0  0
 18 45  1  0  0  0  0
 18 46  1  0  0  0  0
 19 47  1  0  0  0  0
 20 48  1  0  0  0  0
 21 49  1  0  0  0  0
M  END
> <pdb_id>
4L3J

> <uniprot_id>
Q7Z721

> <usmiles>
FC(F)(F)c1cc2N=C(Nc2cc1)CN3CCN(c4ncncc4CC)CC3

$$$$
5G9_A_601
          07202405313D 1   1.00000     0.00000     0
            
 34 37  0  0  0  0            999 V2000
   23.9698  -20.8972   -0.3939 Cl  0  0  0  0  0  0  0  0  0  0  0  0
   17.8610  -18.5268    3.3059 S   0  0  0  0  0  0  0  0  0  0  0  0
   19.7971  -16.6687    3.5303 N   0  0  0  0  0  0  0  0  0  0  0  0
   14.5263  -23.9336    1.9885 N   0  0  0  0  0  0  0  0  0  0  0  0
   20.0267  -18.3277    1.9046 N   0  0  0  0  0  0  0  0  0  0  0  0
   16.0437  -20.5816    2.1989 N   0  0  0  0  0  0  0  0  0  0  0  0
   13.2479  -23.5733    2.0684 C   0  0  0  0  0  0  0  0  0  0  0  0
   12.8037  -22.2593    2.2231 C   0  0  0  0  0  0  0  0  0  0  0  0
   20.2185  -21.6782   -1.4879 C   0  0  0  0  0  0  0  0  0  0  0  0
   21.6054  -21.6640   -1.4501 C   0  0  0  0  0  0  0  0  0  0  0  0
   13.7288  -21.2574    2.2777 C   0  0  0  0  0  0  0  0  0  0  0  0
   16.8412  -23.2556    1.9697 C   0  0  0  0  0  0  0  0  0  0  0  0
   17.7658  -22.2583    1.9923 C   0  0  0  0  0  0  0  0  0  0  0  0
   19.4814  -21.0078   -0.5208 C   0  0  0  0  0  0  0  0  0  0  0  0
   21.5205  -20.3333    0.5582 C   0  0  0  0  0  0  0  0  0  0  0  0
   19.3498  -17.7349    2.8571 C   0  0  0  0  0  0  0  0  0  0  0  0
   22.2335  -20.9829   -0.4259 C   0  0  0  0  0  0  0  0  0  0  0  0
   18.2258  -19.7834    2.1411 C   0  0  0  0  0  0  0  0  0  0  0  0
   15.4726  -22.9366    2.0578 C   0  0  0  0  0  0  0  0  0  0  0  0
   17.3197  -20.9373    2.0930 C   0  0  0  0  0  0  0  0  0  0  0  0
   15.0973  -21.5805    2.1877 C   0  0  0  0  0  0  0  0  0  0  0  0
   19.4069  -19.4939    1.4991 C   0  0  0  0  0  0  0  0  0  0  0  0
   20.1296  -20.3246    0.5121 C   0  0  0  0  0  0  0  0  0  0  0  0
   20.6526  -16.2283    3.2581 H   0  0  0  0  0  0  0  0  0  0  0  0
   19.2759  -16.3122    4.3057 H   0  0  0  0  0  0  0  0  0  0  0  0
   12.5572  -24.2944    2.0137 H   0  0  0  0  0  0  0  0  0  0  0  0
   11.8270  -22.0559    2.2927 H   0  0  0  0  0  0  0  0  0  0  0  0
   19.7466  -22.1746   -2.2165 H   0  0  0  0  0  0  0  0  0  0  0  0
   22.1395  -22.1375   -2.1505 H   0  0  0  0  0  0  0  0  0  0  0  0
   13.4390  -20.3059    2.3803 H   0  0  0  0  0  0  0  0  0  0  0  0
   17.1315  -24.2093    1.8910 H   0  0  0  0  0  0  0  0  0  0  0  0
   18.7426  -22.4654    1.9382 H   0  0  0  0  0  0  0  0  0  0  0  0
   18.4823  -21.0137   -0.5635 H   0  0  0  0  0  0  0  0  0  0  0  0
   22.0008  -19.8698    1.3028 H   0  0  0  0  0  0  0  0  0  0  0  0
  1 17  1  0  0  0  0
  2 16  1  0  0  0  0
  2 18  1  0  0  0  0
  3 16  1  0  0  0  0
  4  7  2  0  0  0  0
  4 19  1  0  0  0  0
  5 16  2  0  0  0  0
  5 22  1  0  0  0  0
  6 20  1  0  0  0  0
  6 21  2  0  0  0  0
  7  8  1  0  0  0  0
  8 11  2  0  0  0  0
  9 10  2  0  0  0  0
  9 14  1  0  0  0  0
 10 17  1  0  0  0  0
 11 21  1  0  0  0  0
 12 13  1  0  0  0  0
 12 19  2  0  0  0  0
 13 20  2  0  0  0  0
 14 23  2  0  0  0  0
 15 17  2  0  0  0  0
 15 23  1  0  0  0  0
 18 20  1  0  0  0  0
 18 22  2  0  0  0  0
 19 21  1  0  0  0  0
 22 23  1  0  0  0  0
  3 24  1  0  0  0  0
  3 25  1  0  0  0  0
  7 26  1  0  0  0  0
  8 27  1  0  0  0  0
  9 28  1  0  0  0  0
 10 29  1  0  0  0  0
 11 30  1  0  0  0  0
 12 31  1  0  0  0  0
 13 32  1  0  0  0  0
 14 33  1  0  0  0  0
 15 34  1  0  0  0  0
M  END
> <pdb_id>
5T6K

> <uniprot_id>
Q9BJF5

> <usmiles>
Clc1cc(ccc1)C=2N=C(SC2c3nc4c(nccc4)cc3)N

$$$$
5H1_A_1351
          07202413533D 1   1.00000     0.00000     0
            
 17 18  0  0  0  0            999 V2000
   22.8620    8.2848   -4.0952 O   0  0  0  0  0  0  0  0  0  0  0  0
   19.3080    5.2922   -1.2759 N   0  0  0  0  0  0  0  0  0  0  0  0
   18.5075    6.2730   -0.8596 C   0  0  0  0  0  0  0  0  0  0  0  0
   22.2420    6.1024   -3.3776 C   0  0  0  0  0  0  0  0  0  0  0  0
   18.9638    7.4374   -1.3223 C   0  0  0  0  0  0  0  0  0  0  0  0
   21.3712    5.2778   -2.6772 C   0  0  0  0  0  0  0  0  0  0  0  0
   20.9232    8.0253   -2.7377 C   0  0  0  0  0  0  0  0  0  0  0  0
   22.0150    7.4757   -3.4090 C   0  0  0  0  0  0  0  0  0  0  0  0
   20.2806    5.8319   -2.0079 C   0  0  0  0  0  0  0  0  0  0  0  0
   20.0587    7.1996   -2.0377 C   0  0  0  0  0  0  0  0  0  0  0  0
   22.7012    9.2715   -4.1194 H   0  0  0  0  0  0  0  0  0  0  0  0
   19.1974    4.3191   -1.0735 H   0  0  0  0  0  0  0  0  0  0  0  0
   17.6938    6.1546   -0.2905 H   0  0  0  0  0  0  0  0  0  0  0  0
   23.0280    5.7119   -3.8569 H   0  0  0  0  0  0  0  0  0  0  0  0
   18.5532    8.3345   -1.1593 H   0  0  0  0  0  0  0  0  0  0  0  0
   21.5259    4.2901   -2.6528 H   0  0  0  0  0  0  0  0  0  0  0  0
   20.7648    9.0124   -2.7616 H   0  0  0  0  0  0  0  0  0  0  0  0
  1  8  1  0  0  0  0
  2  3  1  0  0  0  0
  2  9  1  0  0  0  0
  3  5  2  0  0  0  0
  4  6  1  0  0  0  0
  4  8  2  0  0  0  0
  5 10  1  0  0  0  0
  6  9  2  0  0  0  0
  7  8  1  0  0  0  0
  7 10  2  0  0  0  0
  9 10  1  0  0  0  0
  1 11  1  0  0  0  0
  2 12  1  0  0  0  0
  3 13  1  0  0  0  0
  4 14  1  0  0  0  0
  5 15  1  0  0  0  0
  6 16  1  0  0  0  0
  7 17  1  0  0  0  0
M  END
> <pdb_id>
4B3C

> <uniprot_id>
O74036

> <usmiles>
Oc1cc2c(NC=C2)cc1

$$$$
5H3_A_503
          07192423083D 1   1.00000     0.00000     0
            
 45 47  0  0  0  0            999 V2000
    6.8786   10.2318   29.9334 S   0  0  0  0  0  0  0  0  0  0  0  0
   17.7315   15.1274   39.8711 F   0  0  0  0  0  0  0  0  0  0  0  0
    5.4070   12.1191   31.8215 N   0  0  0  0  0  0  0  0  0  0  0  0
   12.1298   14.1472   35.8649 N   0  0  0  0  0  0  0  0  0  0  0  0
    7.3737   12.6258   32.9118 N   0  0  0  0  0  0  0  0  0  0  0  0
    8.1165   10.1395   28.7137 C   0  0  0  0  0  0  0  0  0  0  0  0
   12.9983   15.1428   36.4582 C   0  0  0  0  0  0  0  0  0  0  0  0
   11.6462   14.4684   34.5307 C   0  0  0  0  0  0  0  0  0  0  0  0
    8.9475   11.2561   28.9005 C   0  0  0  0  0  0  0  0  0  0  0  0
   15.4931   17.8273   38.8665 C   0  0  0  0  0  0  0  0  0  0  0  0
   10.7198   11.0481   33.2285 C   0  0  0  0  0  0  0  0  0  0  0  0
    8.6246   12.1391   29.9541 C   0  0  0  0  0  0  0  0  0  0  0  0
   13.2718   14.8322   37.9252 C   0  0  0  0  0  0  0  0  0  0  0  0
   16.6201   17.1773   39.3631 C   0  0  0  0  0  0  0  0  0  0  0  0
    9.3672   11.2238   32.9420 C   0  0  0  0  0  0  0  0  0  0  0  0
   11.4764   12.1016   33.7415 C   0  0  0  0  0  0  0  0  0  0  0  0
   14.4047   17.0692   38.4005 C   0  0  0  0  0  0  0  0  0  0  0  0
   15.5642   15.0223   38.9206 C   0  0  0  0  0  0  0  0  0  0  0  0
    9.5019   13.4945   33.6824 C   0  0  0  0  0  0  0  0  0  0  0  0
    7.4956   11.6979   30.6373 C   0  0  0  0  0  0  0  0  0  0  0  0
   16.6486   15.7754   39.3926 C   0  0  0  0  0  0  0  0  0  0  0  0
    6.7311   12.1677   31.8375 C   0  0  0  0  0  0  0  0  0  0  0  0
    8.7263   12.4540   33.1574 C   0  0  0  0  0  0  0  0  0  0  0  0
   10.8455   13.3168   33.9810 C   0  0  0  0  0  0  0  0  0  0  0  0
   14.4393   15.6672   38.4250 C   0  0  0  0  0  0  0  0  0  0  0  0
    4.9290   11.7748   31.0134 H   0  0  0  0  0  0  0  0  0  0  0  0
   11.3366   14.0319   36.4628 H   0  0  0  0  0  0  0  0  0  0  0  0
    6.8401   13.1305   33.5905 H   0  0  0  0  0  0  0  0  0  0  0  0
    8.2166    9.4300   28.0161 H   0  0  0  0  0  0  0  0  0  0  0  0
   12.5606   16.0394   36.3907 H   0  0  0  0  0  0  0  0  0  0  0  0
   13.8657   15.1571   35.9606 H   0  0  0  0  0  0  0  0  0  0  0  0
   12.4257   14.6462   33.9300 H   0  0  0  0  0  0  0  0  0  0  0  0
   11.0674   15.2826   34.5755 H   0  0  0  0  0  0  0  0  0  0  0  0
    9.7378   11.4196   28.3100 H   0  0  0  0  0  0  0  0  0  0  0  0
   15.4583   18.8263   38.8415 H   0  0  0  0  0  0  0  0  0  0  0  0
   11.1507   10.1606   33.0652 H   0  0  0  0  0  0  0  0  0  0  0  0
    9.1371   12.9679   30.1784 H   0  0  0  0  0  0  0  0  0  0  0  0
   13.4932   13.8619   38.0224 H   0  0  0  0  0  0  0  0  0  0  0  0
   12.4577   15.0442   38.4658 H   0  0  0  0  0  0  0  0  0  0  0  0
   17.4017   17.7052   39.6955 H   0  0  0  0  0  0  0  0  0  0  0  0
    8.8415   10.4564   32.5748 H   0  0  0  0  0  0  0  0  0  0  0  0
   12.4510   11.9852   33.9328 H   0  0  0  0  0  0  0  0  0  0  0  0
   13.5944   17.5362   38.0465 H   0  0  0  0  0  0  0  0  0  0  0  0
   15.6011   14.0232   38.9409 H   0  0  0  0  0  0  0  0  0  0  0  0
    9.0784   14.3855   33.8459 H   0  0  0  0  0  0  0  0  0  0  0  0
  1  6  1  0  0  0  0
  1 20  1  0  0  0  0
  2 21  1  0  0  0  0
  3 22  2  0  0  0  0
  4  7  1  0  0  0  0
  4  8  1  0  0  0  0
  5 22  1  0  0  0  0
  5 23  1  0  0  0  0
  6  9  2  0  0  0  0
  7 13  1  0  0  0  0
  8 24  1  0  0  0  0
  9 12  1  0  0  0  0
 10 14  2  0  0  0  0
 10 17  1  0  0  0  0
 11 15  2  0  0  0  0
 11 16  1  0  0  0  0
 12 20  2  0  0  0  0
 13 25  1  0  0  0  0
 14 21  1  0  0  0  0
 15 23  1  0  0  0  0
 16 24  2  0  0  0  0
 17 25  2  0  0  0  0
 18 21  2  0  0  0  0
 18 25  1  0  0  0  0
 19 23  2  0  0  0  0
 19 24  1  0  0  0  0
 20 22  1  0  0  0  0
  3 26  1  0  0  0  0
  4 27  1  0  0  0  0
  5 28  1  0  0  0  0
  6 29  1  0  0  0  0
  7 30  1  0  0  0  0
  7 31  1  0  0  0  0
  8 32  1  0  0  0  0
  8 33  1  0  0  0  0
  9 34  1  0  0  0  0
 10 35  1  0  0  0  0
 11 36  1  0  0  0  0
 12 37  1  0  0  0  0
 13 38  1  0  0  0  0
 13 39  1  0  0  0  0
 14 40  1  0  0  0  0
 15 41  1  0  0  0  0
 16 42  1  0  0  0  0
 17 43  1  0  0  0  0
 18 44  1  0  0  0  0
 19 45  1  0  0  0  0
M  END
> <pdb_id>
4KCR

> <uniprot_id>
P29473

> <usmiles>
S1C(C(=N)Nc2cc(ccc2)CNCCc3cc(F)ccc3)=CC=C1

$$$$
5H3_B_503
          07192423083D 1   1.00000     0.00000     0
            
 45 47  0  0  0  0            999 V2000
    6.7793   10.1815   29.9529 S   0  0  0  0  0  0  0  0  0  0  0  0
   17.8228   15.4443   39.5252 F   0  0  0  0  0  0  0  0  0  0  0  0
    5.3337   12.0645   31.8325 N   0  0  0  0  0  0  0  0  0  0  0  0
   12.0774   14.1716   35.7705 N   0  0  0  0  0  0  0  0  0  0  0  0
    7.3400   12.6910   32.8346 N   0  0  0  0  0  0  0  0  0  0  0  0
    8.0764   10.0972   28.7937 C   0  0  0  0  0  0  0  0  0  0  0  0
   13.1797   14.9654   36.2933 C   0  0  0  0  0  0  0  0  0  0  0  0
   11.5238   14.5403   34.4879 C   0  0  0  0  0  0  0  0  0  0  0  0
    8.9235   11.2024   29.0006 C   0  0  0  0  0  0  0  0  0  0  0  0
   15.1819   17.8978   38.9498 C   0  0  0  0  0  0  0  0  0  0  0  0
   10.6377   11.0624   33.2731 C   0  0  0  0  0  0  0  0  0  0  0  0
    8.6009   12.0853   30.0293 C   0  0  0  0  0  0  0  0  0  0  0  0
   13.3206   14.7470   37.7996 C   0  0  0  0  0  0  0  0  0  0  0  0
   16.4204   17.3483   39.3066 C   0  0  0  0  0  0  0  0  0  0  0  0
    9.2863   11.2407   32.9438 C   0  0  0  0  0  0  0  0  0  0  0  0
   11.3780   12.1231   33.7876 C   0  0  0  0  0  0  0  0  0  0  0  0
   14.1769   17.0389   38.4704 C   0  0  0  0  0  0  0  0  0  0  0  0
   15.6460   15.1075   38.6894 C   0  0  0  0  0  0  0  0  0  0  0  0
    9.4189   13.5530   33.6184 C   0  0  0  0  0  0  0  0  0  0  0  0
    7.4286   11.6380   30.6541 C   0  0  0  0  0  0  0  0  0  0  0  0
   16.6401   15.9646   39.1754 C   0  0  0  0  0  0  0  0  0  0  0  0
    6.6588   12.1477   31.8126 C   0  0  0  0  0  0  0  0  0  0  0  0
    8.6613   12.4811   33.1262 C   0  0  0  0  0  0  0  0  0  0  0  0
   10.7570   13.3689   33.9502 C   0  0  0  0  0  0  0  0  0  0  0  0
   14.4056   15.6545   38.3378 C   0  0  0  0  0  0  0  0  0  0  0  0
    4.8467   11.6560   31.0605 H   0  0  0  0  0  0  0  0  0  0  0  0
    4.8228   12.4102   32.6196 H   0  0  0  0  0  0  0  0  0  0  0  0
   11.3351   14.2174   36.4390 H   0  0  0  0  0  0  0  0  0  0  0  0
    8.1984    9.3866   28.1008 H   0  0  0  0  0  0  0  0  0  0  0  0
   13.0031   15.9334   36.1150 H   0  0  0  0  0  0  0  0  0  0  0  0
   14.0278   14.6922   35.8393 H   0  0  0  0  0  0  0  0  0  0  0  0
   12.2621   14.7790   33.8571 H   0  0  0  0  0  0  0  0  0  0  0  0
   10.9118   15.3236   34.5965 H   0  0  0  0  0  0  0  0  0  0  0  0
    9.7302   11.3491   28.4281 H   0  0  0  0  0  0  0  0  0  0  0  0
   15.0161   18.8804   39.0343 H   0  0  0  0  0  0  0  0  0  0  0  0
   11.0706   10.1711   33.1380 H   0  0  0  0  0  0  0  0  0  0  0  0
    9.1198   12.9026   30.2801 H   0  0  0  0  0  0  0  0  0  0  0  0
   13.5639   13.7936   37.9775 H   0  0  0  0  0  0  0  0  0  0  0  0
   12.4536   14.9595   38.2504 H   0  0  0  0  0  0  0  0  0  0  0  0
   17.1481   17.9393   39.6546 H   0  0  0  0  0  0  0  0  0  0  0  0
    8.7625   10.4732   32.5744 H   0  0  0  0  0  0  0  0  0  0  0  0
   12.3383   11.9980   34.0373 H   0  0  0  0  0  0  0  0  0  0  0  0
   13.2856   17.4164   38.2194 H   0  0  0  0  0  0  0  0  0  0  0  0
   15.8175   14.1268   38.5954 H   0  0  0  0  0  0  0  0  0  0  0  0
    8.9962   14.4522   33.7313 H   0  0  0  0  0  0  0  0  0  0  0  0
  1  6  1  0  0  0  0
  1 20  1  0  0  0  0
  2 21  1  0  0  0  0
  3 22  1  0  0  0  0
  4  7  1  0  0  0  0
  4  8  1  0  0  0  0
  5 22  2  0  0  0  0
  5 23  1  0  0  0  0
  6  9  2  0  0  0  0
  7 13  1  0  0  0  0
  8 24  1  0  0  0  0
  9 12  1  0  0  0  0
 10 14  2  0  0  0  0
 10 17  1  0  0  0  0
 11 15  1  0  0  0  0
 11 16  2  0  0  0  0
 12 20  2  0  0  0  0
 13 25  1  0  0  0  0
 14 21  1  0  0  0  0
 15 23  2  0  0  0  0
 16 24  1  0  0  0  0
 17 25  2  0  0  0  0
 18 21  2  0  0  0  0
 18 25  1  0  0  0  0
 19 23  1  0  0  0  0
 19 24  2  0  0  0  0
 20 22  1  0  0  0  0
  3 26  1  0  0  0  0
  3 27  1  0  0  0  0
  4 28  1  0  0  0  0
  6 29  1  0  0  0  0
  7 30  1  0  0  0  0
  7 31  1  0  0  0  0
  8 32  1  0  0  0  0
  8 33  1  0  0  0  0
  9 34  1  0  0  0  0
 10 35  1  0  0  0  0
 11 36  1  0  0  0  0
 12 37  1  0  0  0  0
 13 38  1  0  0  0  0
 13 39  1  0  0  0  0
 14 40  1  0  0  0  0
 15 41  1  0  0  0  0
 16 42  1  0  0  0  0
 17 43  1  0  0  0  0
 18 44  1  0  0  0  0
 19 45  1  0  0  0  0
M  END
> <pdb_id>
4KCR

> <uniprot_id>
P29473

> <usmiles>
S1C(C(=Nc2cc(ccc2)CNCCc3cc(F)ccc3)N)=CC=C1

$$$$
5H5_A_1101
          07202409293D 1   1.00000     0.00000     0
            
 50 53  0  0  0  0            999 V2000
  -22.0030   15.3680   31.8240 O   0  0  0  0  0  0  0  0  0  0  0  0
  -14.7570   15.7890   29.7010 O   0  0  0  0  0  0  0  0  0  0  0  0
  -18.6620   16.3320   32.2980 O   0  0  0  0  0  0  0  0  0  0  0  0
  -20.8830   16.9490   30.7480 N   0  0  0  0  0  0  0  0  0  0  0  0
  -16.3440    8.4330   25.4680 N   0  0  0  0  0  0  0  0  0  0  0  0
  -14.8600    9.9660   25.3250 N   0  0  0  0  0  0  0  0  0  0  0  0
  -16.2950   12.1750   27.9360 N   0  0  0  0  0  0  0  0  0  0  0  0
  -16.6370    9.4220   26.4210 N   0  0  0  0  0  0  0  0  0  0  0  0
  -14.6000   13.5060   27.7720 N   0  0  0  0  0  0  0  0  0  0  0  0
  -20.2950   16.8850   34.0170 C   0  0  0  0  0  0  0  0  0  0  0  0
  -17.7190    8.1050   28.1920 C   0  0  0  0  0  0  0  0  0  0  0  0
  -19.0700    9.3280   26.5000 C   0  0  0  0  0  0  0  0  0  0  0  0
  -15.2660    8.8040   24.8360 C   0  0  0  0  0  0  0  0  0  0  0  0
  -14.3530   15.9060   28.3420 C   0  0  0  0  0  0  0  0  0  0  0  0
  -13.6640   14.6120   27.9530 C   0  0  0  0  0  0  0  0  0  0  0  0
  -14.4050   12.4630   26.9250 C   0  0  0  0  0  0  0  0  0  0  0  0
  -18.5140   14.4200   30.7710 C   0  0  0  0  0  0  0  0  0  0  0  0
  -17.7880   13.7170   29.8350 C   0  0  0  0  0  0  0  0  0  0  0  0
  -16.7250   16.0100   30.9710 C   0  0  0  0  0  0  0  0  0  0  0  0
  -21.0250   16.0860   31.7730 C   0  0  0  0  0  0  0  0  0  0  0  0
  -19.9520   15.9740   32.8340 C   0  0  1  0  0  0  0  0  0  0  0  0
  -17.9960   15.5810   31.3580 C   0  0  0  0  0  0  0  0  0  0  0  0
  -15.9770   15.3150   30.0290 C   0  0  0  0  0  0  0  0  0  0  0  0
  -15.6690   10.3700   26.2800 C   0  0  0  0  0  0  0  0  0  0  0  0
  -15.8180   13.2900   28.4110 C   0  0  0  0  0  0  0  0  0  0  0  0
  -17.7900    9.3700   27.3350 C   0  0  0  0  0  0  0  0  0  0  0  0
  -15.4750   11.6310   27.0290 C   0  0  0  0  0  0  0  0  0  0  0  0
  -16.5140   14.1300   29.4360 C   0  0  0  0  0  0  0  0  0  0  0  0
  -20.0794   17.5423   30.7016 H   0  0  0  0  0  0  0  0  0  0  0  0
  -21.5812   16.9962   30.0337 H   0  0  0  0  0  0  0  0  0  0  0  0
  -21.1901   16.6319   34.3841 H   0  0  0  0  0  0  0  0  0  0  0  0
  -19.6011   16.7815   34.7296 H   0  0  0  0  0  0  0  0  0  0  0  0
  -20.3177   17.8363   33.7095 H   0  0  0  0  0  0  0  0  0  0  0  0
  -18.5047    8.0765   28.8099 H   0  0  0  0  0  0  0  0  0  0  0  0
  -17.7316    7.2997   27.5993 H   0  0  0  0  0  0  0  0  0  0  0  0
  -16.8742    8.1119   28.7271 H   0  0  0  0  0  0  0  0  0  0  0  0
  -19.8634    9.2924   27.1077 H   0  0  0  0  0  0  0  0  0  0  0  0
  -19.1232   10.1479   25.9300 H   0  0  0  0  0  0  0  0  0  0  0  0
  -19.0606    8.5162   25.9161 H   0  0  0  0  0  0  0  0  0  0  0  0
  -14.8183    8.2942   24.1014 H   0  0  0  0  0  0  0  0  0  0  0  0
  -13.7198   16.6732   28.2397 H   0  0  0  0  0  0  0  0  0  0  0  0
  -15.1529   16.0542   27.7604 H   0  0  0  0  0  0  0  0  0  0  0  0
  -13.1713   14.7575   27.0950 H   0  0  0  0  0  0  0  0  0  0  0  0
  -13.0146   14.3667   28.6728 H   0  0  0  0  0  0  0  0  0  0  0  0
  -13.6130   12.3301   26.3291 H   0  0  0  0  0  0  0  0  0  0  0  0
  -19.4229   14.0970   31.0348 H   0  0  0  0  0  0  0  0  0  0  0  0
  -18.1821   12.8913   29.4313 H   0  0  0  0  0  0  0  0  0  0  0  0
  -16.3437   16.8380   31.3821 H   0  0  0  0  0  0  0  0  0  0  0  0
  -19.9154   15.0280   33.1562 H   0  0  0  0  0  0  0  0  0  0  0  0
  -17.7943   10.1789   27.9229 H   0  0  0  0  0  0  0  0  0  0  0  0
  1 20  2  0  0  0  0
  2 14  1  0  0  0  0
  2 23  1  0  0  0  0
  3 21  1  0  0  0  0
  3 22  1  0  0  0  0
  4 20  1  0  0  0  0
  5  8  1  0  0  0  0
  5 13  2  0  0  0  0
  6 13  1  0  0  0  0
  6 24  2  0  0  0  0
  7 25  2  0  0  0  0
  7 27  1  0  0  0  0
  8 24  1  0  0  0  0
  8 26  1  0  0  0  0
  9 15  1  0  0  0  0
  9 16  1  0  0  0  0
  9 25  1  0  0  0  0
 10 21  1  0  0  0  0
 11 26  1  0  0  0  0
 12 26  1  0  0  0  0
 14 15  1  0  0  0  0
 16 27  2  0  0  0  0
 17 18  1  0  0  0  0
 17 22  2  0  0  0  0
 18 28  2  0  0  0  0
 19 22  1  0  0  0  0
 19 23  2  0  0  0  0
 20 21  1  0  0  0  0
 23 28  1  0  0  0  0
 24 27  1  0  0  0  0
 25 28  1  0  0  0  0
  4 29  1  0  0  0  0
  4 30  1  0  0  0  0
 10 31  1  0  0  0  0
 10 32  1  0  0  0  0
 10 33  1  0  0  0  0
 11 34  1  0  0  0  0
 11 35  1  0  0  0  0
 11 36  1  0  0  0  0
 12 37  1  0  0  0  0
 12 38  1  0  0  0  0
 12 39  1  0  0  0  0
 13 40  1  0  0  0  0
 14 41  1  0  0  0  0
 14 42  1  0  0  0  0
 15 43  1  0  0  0  0
 15 44  1  0  0  0  0
 16 45  1  0  0  0  0
 17 46  1  0  0  0  0
 18 47  1  0  0  0  0
 19 48  1  0  0  0  0
 21 49  1  0  0  0  0
 26 50  1  0  0  0  0
M  END
> <pdb_id>
5DXT

> <uniprot_id>
P42336

> <usmiles>
O=C(N)[C@@H](Oc1cc2OCCN3C(=NC(C4=NC=NN4C(C)C)=C3)c2cc1)C

$$$$
5JL_A_801
          07202409213D 1   1.00000     0.00000     0
            
 16 17  0  0  0  0            999 V2000
    8.6390  -13.3384    6.2452 S   0  0  0  0  0  0  0  0  0  0  0  0
    3.8879   -7.9942    2.9798 S   0  0  0  0  0  0  0  0  0  0  0  0
    7.0528  -12.5288    1.6053 O   0  0  0  0  0  0  0  0  0  0  0  0
    7.7511  -12.8615    3.7087 N   0  0  0  0  0  0  0  0  0  0  0  0
    6.9600  -11.3701    5.4168 N   0  0  0  0  0  0  0  0  0  0  0  0
    5.4476   -9.6151    4.5553 N   0  0  0  0  0  0  0  0  0  0  0  0
    5.4812  -10.2297    2.4669 N   0  0  0  0  0  0  0  0  0  0  0  0
    7.7294  -12.4730    5.0499 C   0  0  0  0  0  0  0  0  0  0  0  0
    4.9903   -9.3458    3.3408 C   0  0  0  0  0  0  0  0  0  0  0  0
    7.0048  -12.1396    2.7737 C   0  0  0  0  0  0  0  0  0  0  0  0
    6.2351  -10.6841    4.4383 C   0  0  0  0  0  0  0  0  0  0  0  0
    6.2678  -11.0750    3.1518 C   0  0  0  0  0  0  0  0  0  0  0  0
    8.2956  -13.6490    3.4202 H   0  0  0  0  0  0  0  0  0  0  0  0
    6.9269  -11.0727    6.3709 H   0  0  0  0  0  0  0  0  0  0  0  0
    5.2418   -9.1139    5.3958 H   0  0  0  0  0  0  0  0  0  0  0  0
    5.2967  -10.2565    1.4845 H   0  0  0  0  0  0  0  0  0  0  0  0
  1  8  2  0  0  0  0
  2  9  2  0  0  0  0
  3 10  2  0  0  0  0
  4  8  1  0  0  0  0
  4 10  1  0  0  0  0
  5  8  1  0  0  0  0
  5 11  1  0  0  0  0
  6  9  1  0  0  0  0
  6 11  1  0  0  0  0
  7  9  1  0  0  0  0
  7 12  1  0  0  0  0
 10 12  1  0  0  0  0
 11 12  2  0  0  0  0
  4 13  1  0  0  0  0
  5 14  1  0  0  0  0
  6 15  1  0  0  0  0
  7 16  1  0  0  0  0
M  END
> <pdb_id>
5E3D

> <uniprot_id>
P55201

> <usmiles>
S=C1NC(=O)C=2NC(=S)NC2N1

$$$$
5JT_A_402
          07192420013D 1   1.00000     0.00000     0
            
 31 33  0  0  0  0            999 V2000
   36.5041   -2.1215   21.0296 N   0  0  0  0  0  0  0  0  0  0  0  0
   35.9148    4.4231   18.2923 N   0  0  0  0  0  0  0  0  0  0  0  0
   36.3566    2.1132   18.3739 N   0  0  0  0  0  0  0  0  0  0  0  0
   33.6253    5.0470   18.9094 N   0  0  0  0  0  0  0  0  0  0  0  0
   34.7689    0.4709   18.9206 N   0  0  0  0  0  0  0  0  0  0  0  0
   36.7684    3.3861   18.1191 C   0  0  0  0  0  0  0  0  0  0  0  0
   32.5188    4.4301   19.2432 C   0  0  0  0  0  0  0  0  0  0  0  0
   33.4106   -0.0916   18.8718 C   0  0  0  0  0  0  0  0  0  0  0  0
   33.0467   -0.4305   20.3537 C   0  0  0  0  0  0  0  0  0  0  0  0
   35.8246   -0.4775   19.3067 C   0  0  0  0  0  0  0  0  0  0  0  0
   32.7306    3.1059   19.2582 C   0  0  0  0  0  0  0  0  0  0  0  0
   34.0678   -1.4666   20.9262 C   0  0  0  0  0  0  0  0  0  0  0  0
   35.5583   -1.0136   20.7452 C   0  0  1  0  0  0  0  0  0  0  0  0
   34.6301    4.1847   18.6654 C   0  0  0  0  0  0  0  0  0  0  0  0
   35.0755    1.7912   18.7220 C   0  0  0  0  0  0  0  0  0  0  0  0
   34.1793    2.8845   18.8800 C   0  0  0  0  0  0  0  0  0  0  0  0
   36.3397   -2.4717   21.9518 H   0  0  0  0  0  0  0  0  0  0  0  0
   36.3669   -2.8559   20.3649 H   0  0  0  0  0  0  0  0  0  0  0  0
   33.7132    6.0410   18.8436 H   0  0  0  0  0  0  0  0  0  0  0  0
   37.7022    3.5552   17.8038 H   0  0  0  0  0  0  0  0  0  0  0  0
   31.6499    4.8778   19.4544 H   0  0  0  0  0  0  0  0  0  0  0  0
   33.3947   -0.9187   18.3099 H   0  0  0  0  0  0  0  0  0  0  0  0
   32.7683    0.5776   18.4982 H   0  0  0  0  0  0  0  0  0  0  0  0
   32.1255   -0.8180   20.3890 H   0  0  0  0  0  0  0  0  0  0  0  0
   33.0782    0.4048   20.9026 H   0  0  0  0  0  0  0  0  0  0  0  0
   36.7105   -0.0140   19.2847 H   0  0  0  0  0  0  0  0  0  0  0  0
   35.8331   -1.2435   18.6640 H   0  0  0  0  0  0  0  0  0  0  0  0
   32.0586    2.3987   19.4777 H   0  0  0  0  0  0  0  0  0  0  0  0
   33.9388   -2.3378   20.4525 H   0  0  0  0  0  0  0  0  0  0  0  0
   33.8869   -1.5879   21.9022 H   0  0  0  0  0  0  0  0  0  0  0  0
   35.7404   -0.2737   21.3928 H   0  0  0  0  0  0  0  0  0  0  0  0
  1 13  1  0  0  0  0
  2  6  2  0  0  0  0
  2 14  1  0  0  0  0
  3  6  1  0  0  0  0
  3 15  2  0  0  0  0
  4  7  1  0  0  0  0
  4 14  1  0  0  0  0
  5  8  1  0  0  0  0
  5 10  1  0  0  0  0
  5 15  1  0  0  0  0
  7 11  2  0  0  0  0
  8  9  1  0  0  0  0
  9 12  1  0  0  0  0
 10 13  1  0  0  0  0
 11 16  1  0  0  0  0
 12 13  1  0  0  0  0
 14 16  2  0  0  0  0
 15 16  1  0  0  0  0
  1 17  1  0  0  0  0
  1 18  1  0  0  0  0
  4 19  1  0  0  0  0
  6 20  1  0  0  0  0
  7 21  1  0  0  0  0
  8 22  1  0  0  0  0
  8 23  1  0  0  0  0
  9 24  1  0  0  0  0
  9 25  1  0  0  0  0
 10 26  1  0  0  0  0
 10 27  1  0  0  0  0
 11 28  1  0  0  0  0
 12 29  1  0  0  0  0
 12 30  1  0  0  0  0
 13 31  1  0  0  0  0
M  END
> <pdb_id>
5MW3

> <uniprot_id>
Q8TEK3

> <usmiles>
n1c(N2C[C@H](N)CCC2)c3c(nc1)NC=C3

$$$$
5JU_A_401
          07192420013D 1   1.00000     0.00000     0
            
 81 86  0  0  0  0            999 V2000
   31.2740  -10.0010    8.0490 Cl  0  0  0  0  0  0  0  0  0  0  0  0
   32.3890   -7.2750    7.5700 S   0  0  0  0  0  0  0  0  0  0  0  0
   36.9230   -7.1780   12.5230 O   0  0  0  0  0  0  0  0  0  0  0  0
   38.6260   -6.6240   16.2260 O   0  0  0  0  0  0  0  0  0  0  0  0
   35.7730    4.4050   18.3830 N   0  0  0  0  0  0  0  0  0  0  0  0
   37.1020   -5.2780   15.1750 N   0  0  0  0  0  0  0  0  0  0  0  0
   33.5600    5.0920   19.1610 N   0  0  0  0  0  0  0  0  0  0  0  0
   36.1500    2.0870   18.4770 N   0  0  0  0  0  0  0  0  0  0  0  0
   38.4530   -5.5670   12.7680 N   0  0  0  0  0  0  0  0  0  0  0  0
   35.0980  -11.8890   10.9650 N   0  0  0  0  0  0  0  0  0  0  0  0
   36.9840   -5.5540   10.9590 N   0  0  0  0  0  0  0  0  0  0  0  0
   36.5080   -2.8370   19.5360 N   0  0  0  0  0  0  0  0  0  0  0  0
   34.5590    0.4710   19.1430 N   0  0  0  0  0  0  0  0  0  0  0  0
   37.1810   -3.5740   20.6440 C   0  0  0  0  0  0  0  0  0  0  0  0
   36.0480  -10.6160    9.0750 C   0  0  0  0  0  0  0  0  0  0  0  0
   36.5720    3.3410   18.1680 C   0  0  0  0  0  0  0  0  0  0  0  0
   36.2470   -5.0600   16.3360 C   0  0  0  0  0  0  0  0  0  0  0  0
   34.2240  -12.1950   11.9440 C   0  0  0  0  0  0  0  0  0  0  0  0
   32.4820    4.5080   19.6190 C   0  0  0  0  0  0  0  0  0  0  0  0
   39.0290   -6.2070   13.9580 C   0  0  0  0  0  0  0  0  0  0  0  0
   35.9470   -3.7310   18.4780 C   0  0  0  0  0  0  0  0  0  0  0  0
   33.2280    0.0740   19.6530 C   0  0  0  0  0  0  0  0  0  0  0  0
   35.4940   -0.6190   18.7760 C   0  0  0  0  0  0  0  0  0  0  0  0
   36.9320   -4.1050   17.3560 C   0  0  0  0  0  0  0  0  0  0  0  0
   33.0340  -11.4610   12.0690 C   0  0  0  0  0  0  0  0  0  0  0  0
   33.3670   -0.8690   20.8780 C   0  0  0  0  0  0  0  0  0  0  0  0
   32.6620    3.1770   19.6650 C   0  0  0  0  0  0  0  0  0  0  0  0
   34.2860   -5.3870    8.3680 C   0  0  0  0  0  0  0  0  0  0  0  0
   34.2150   -2.0980   20.4620 C   0  0  0  0  0  0  0  0  0  0  0  0
   32.8020  -10.3820   11.2040 C   0  0  0  0  0  0  0  0  0  0  0  0
   35.3550   -5.0300    9.2110 C   0  0  0  0  0  0  0  0  0  0  0  0
   35.3210   -7.2570   10.2460 C   0  0  0  0  0  0  0  0  0  0  0  0
   32.4990   -8.7940    8.3830 C   0  0  0  0  0  0  0  0  0  0  0  0
   37.4250   -6.1490   12.0990 C   0  0  0  0  0  0  0  0  0  0  0  0
   38.2190   -6.0550   15.2180 C   0  0  0  0  0  0  0  0  0  0  0  0
   34.5190    4.1950   18.8510 C   0  0  0  0  0  0  0  0  0  0  0  0
   33.7440   -6.6790    8.5070 C   0  0  0  0  0  0  0  0  0  0  0  0
   34.9100    1.7930   18.9620 C   0  0  0  0  0  0  0  0  0  0  0  0
   34.9180  -10.8550   10.1050 C   0  0  0  0  0  0  0  0  0  0  0  0
   35.8720   -5.9560   10.1500 C   0  0  0  0  0  0  0  0  0  0  0  0
   35.6320   -1.6780   19.9210 C   0  0  1  0  0  0  0  0  0  0  0  0
   34.0560    2.9080   19.1400 C   0  0  0  0  0  0  0  0  0  0  0  0
   34.2270   -7.5780    9.4430 C   0  0  0  0  0  0  0  0  0  0  0  0
   33.7330  -10.0820   10.2000 C   0  0  0  0  0  0  0  0  0  0  0  0
   33.4400   -8.8700    9.3330 C   0  0  0  0  0  0  0  0  0  0  0  0
   36.8575   -4.8382   14.3108 H   0  0  0  0  0  0  0  0  0  0  0  0
   33.6605    6.0812   19.0540 H   0  0  0  0  0  0  0  0  0  0  0  0
   38.8215   -4.6944   12.4476 H   0  0  0  0  0  0  0  0  0  0  0  0
   37.4907   -4.7484   10.6518 H   0  0  0  0  0  0  0  0  0  0  0  0
   37.5320   -2.9202   21.3143 H   0  0  0  0  0  0  0  0  0  0  0  0
   36.5235   -4.1842   21.0861 H   0  0  0  0  0  0  0  0  0  0  0  0
   37.9388   -4.1119   20.2746 H   0  0  0  0  0  0  0  0  0  0  0  0
   35.8121   -9.8352    8.4965 H   0  0  0  0  0  0  0  0  0  0  0  0
   36.9038  -10.4274    9.5568 H   0  0  0  0  0  0  0  0  0  0  0  0
   36.1584  -11.4310    8.5061 H   0  0  0  0  0  0  0  0  0  0  0  0
   37.4829    3.4756   17.7779 H   0  0  0  0  0  0  0  0  0  0  0  0
   36.0662   -5.9379   16.7794 H   0  0  0  0  0  0  0  0  0  0  0  0
   35.3838   -4.6542   16.0357 H   0  0  0  0  0  0  0  0  0  0  0  0
   34.4223  -12.9418   12.5788 H   0  0  0  0  0  0  0  0  0  0  0  0
   31.6462    4.9829   19.8945 H   0  0  0  0  0  0  0  0  0  0  0  0
   39.9312   -5.8070   14.1192 H   0  0  0  0  0  0  0  0  0  0  0  0
   39.1266   -7.1839   13.7681 H   0  0  0  0  0  0  0  0  0  0  0  0
   35.1644   -3.2674   18.0625 H   0  0  0  0  0  0  0  0  0  0  0  0
   35.6399   -4.5759   18.9160 H   0  0  0  0  0  0  0  0  0  0  0  0
   32.7275   -0.4005   18.9289 H   0  0  0  0  0  0  0  0  0  0  0  0
   32.7234    0.8933   19.9253 H   0  0  0  0  0  0  0  0  0  0  0  0
   36.3939   -0.2245   18.5900 H   0  0  0  0  0  0  0  0  0  0  0  0
   35.1532   -1.0744   17.9535 H   0  0  0  0  0  0  0  0  0  0  0  0
   37.2263   -3.2739   16.8842 H   0  0  0  0  0  0  0  0  0  0  0  0
   37.7276   -4.5621   17.7536 H   0  0  0  0  0  0  0  0  0  0  0  0
   32.3600  -11.7046   12.7664 H   0  0  0  0  0  0  0  0  0  0  0  0
   32.4611   -1.1700   21.1760 H   0  0  0  0  0  0  0  0  0  0  0  0
   33.8202   -0.3846   21.6263 H   0  0  0  0  0  0  0  0  0  0  0  0
   32.0027    2.4962   19.9842 H   0  0  0  0  0  0  0  0  0  0  0  0
   33.9235   -4.7445    7.6929 H   0  0  0  0  0  0  0  0  0  0  0  0
   33.7299   -2.5973   19.7441 H   0  0  0  0  0  0  0  0  0  0  0  0
   34.3357   -2.6916   21.2576 H   0  0  0  0  0  0  0  0  0  0  0  0
   31.9751   -9.8284   11.3031 H   0  0  0  0  0  0  0  0  0  0  0  0
   35.7529   -4.1149    9.1465 H   0  0  0  0  0  0  0  0  0  0  0  0
   35.7079   -7.9306   10.8757 H   0  0  0  0  0  0  0  0  0  0  0  0
   36.0951   -1.2152   20.6769 H   0  0  0  0  0  0  0  0  0  0  0  0
  1 33  1  0  0  0  0
  2 33  1  0  0  0  0
  2 37  1  0  0  0  0
  3 34  2  0  0  0  0
  4 35  2  0  0  0  0
  5 16  2  0  0  0  0
  5 36  1  0  0  0  0
  6 17  1  0  0  0  0
  6 35  1  0  0  0  0
  7 19  1  0  0  0  0
  7 36  1  0  0  0  0
  8 16  1  0  0  0  0
  8 38  2  0  0  0  0
  9 20  1  0  0  0  0
  9 34  1  0  0  0  0
 10 18  2  0  0  0  0
 10 39  1  0  0  0  0
 11 34  1  0  0  0  0
 11 40  1  0  0  0  0
 12 14  1  0  0  0  0
 12 21  1  0  0  0  0
 12 41  1  0  0  0  0
 13 22  1  0  0  0  0
 13 23  1  0  0  0  0
 13 38  1  0  0  0  0
 15 39  1  0  0  0  0
 17 24  1  0  0  0  0
 18 25  1  0  0  0  0
 19 27  2  0  0  0  0
 20 35  1  0  0  0  0
 21 24  1  0  0  0  0
 22 26  1  0  0  0  0
 23 41  1  0  0  0  0
 25 30  2  0  0  0  0
 26 29  1  0  0  0  0
 27 42  1  0  0  0  0
 28 31  1  0  0  0  0
 28 37  2  0  0  0  0
 29 41  1  0  0  0  0
 30 44  1  0  0  0  0
 31 40  2  0  0  0  0
 32 40  1  0  0  0  0
 32 43  2  0  0  0  0
 33 45  2  0  0  0  0
 36 42  2  0  0  0  0
 37 43  1  0  0  0  0
 38 42  1  0  0  0  0
 39 44  2  0  0  0  0
 43 45  1  0  0  0  0
 44 45  1  0  0  0  0
  6 46  1  0  0  0  0
  7 47  1  0  0  0  0
  9 48  1  0  0  0  0
 11 49  1  0  0  0  0
 14 50  1  0  0  0  0
 14 51  1  0  0  0  0
 14 52  1  0  0  0  0
 15 53  1  0  0  0  0
 15 54  1  0  0  0  0
 15 55  1  0  0  0  0
 16 56  1  0  0  0  0
 17 57  1  0  0  0  0
 17 58  1  0  0  0  0
 18 59  1  0  0  0  0
 19 60  1  0  0  0  0
 20 61  1  0  0  0  0
 20 62  1  0  0  0  0
 21 63  1  0  0  0  0
 21 64  1  0  0  0  0
 22 65  1  0  0  0  0
 22 66  1  0  0  0  0
 23 67  1  0  0  0  0
 23 68  1  0  0  0  0
 24 69  1  0  0  0  0
 24 70  1  0  0  0  0
 25 71  1  0  0  0  0
 26 72  1  0  0  0  0
 26 73  1  0  0  0  0
 27 74  1  0  0  0  0
 28 75  1  0  0  0  0
 29 76  1  0  0  0  0
 29 77  1  0  0  0  0
 30 78  1  0  0  0  0
 31 79  1  0  0  0  0
 32 80  1  0  0  0  0
 41 81  1  0  0  0  0
M  END
> <pdb_id>
5MW4

> <uniprot_id>
Q8TEK3

> <usmiles>
ClC=1Sc2c(cc(NC(=O)NCC(=O)NCCCN([C@H]3CN(c4ncnc5NC=Cc45)CCC3)C)cc2)C1c6c(nccc6)C

$$$$
5L0_B_301
          07202405143D 1   1.00000     0.00000     0
            
 47 51  0  0  0  0            999 V2000
   -2.7749   11.6579   11.2974 O   0  0  0  0  0  0  0  0  0  0  0  0
    2.0432   17.7521   16.2675 O   0  0  0  0  0  0  0  0  0  0  0  0
    5.3922   11.3735    8.6667 N   0  0  0  0  0  0  0  0  0  0  0  0
    1.2122   15.7977   14.5848 N   0  0  0  0  0  0  0  0  0  0  0  0
    3.5134   12.3354    9.3991 N   0  0  0  0  0  0  0  0  0  0  0  0
   -0.3856   13.2134   11.6278 N   0  0  0  0  0  0  0  0  0  0  0  0
   -2.1044   10.9883    9.0908 C   0  0  0  0  0  0  0  0  0  0  0  0
    0.9437   17.0084   16.7456 C   0  0  0  0  0  0  0  0  0  0  0  0
    3.1367   16.9762   15.8768 C   0  0  0  0  0  0  0  0  0  0  0  0
    4.4109   10.4394    8.8203 C   0  0  0  0  0  0  0  0  0  0  0  0
    0.2456   16.6020   15.4872 C   0  0  0  0  0  0  0  0  0  0  0  0
    2.6762   16.2206   14.5707 C   0  0  0  0  0  0  0  0  0  0  0  0
    3.2820   11.0156    9.2241 C   0  0  0  0  0  0  0  0  0  0  0  0
   -1.1463   13.5948   12.7341 C   0  0  0  0  0  0  0  0  0  0  0  0
    4.6720   14.7874    9.4813 C   0  0  0  0  0  0  0  0  0  0  0  0
   -0.6464   14.4180   13.7380 C   0  0  0  0  0  0  0  0  0  0  0  0
    5.4280   13.7139    9.1026 C   0  0  0  0  0  0  0  0  0  0  0  0
    3.3137   14.5802    9.8794 C   0  0  0  0  0  0  0  0  0  0  0  0
    1.4155   14.4686   12.4908 C   0  0  0  0  0  0  0  0  0  0  0  0
    0.4082   12.3655    9.7021 C   0  0  0  0  0  0  0  0  0  0  0  0
   -1.9144   11.7428   10.3818 C   0  0  0  0  0  0  0  0  0  0  0  0
    4.8586   12.5072    8.9988 C   0  0  0  0  0  0  0  0  0  0  0  0
    0.7019   14.8985   13.6387 C   0  0  0  0  0  0  0  0  0  0  0  0
   -0.7024   12.3958   10.5501 C   0  0  0  0  0  0  0  0  0  0  0  0
    2.7308   13.3445    9.8224 C   0  0  0  0  0  0  0  0  0  0  0  0
    0.9384   13.6357   11.4913 C   0  0  0  0  0  0  0  0  0  0  0  0
    1.4024   13.1708   10.2821 C   0  0  0  0  0  0  0  0  0  0  0  0
   -1.3321   11.1695    8.4820 H   0  0  0  0  0  0  0  0  0  0  0  0
   -2.1555   10.0081    9.2819 H   0  0  0  0  0  0  0  0  0  0  0  0
   -2.9519   11.2869    8.6519 H   0  0  0  0  0  0  0  0  0  0  0  0
    0.3505   17.5719   17.3206 H   0  0  0  0  0  0  0  0  0  0  0  0
    1.2477   16.2086   17.2632 H   0  0  0  0  0  0  0  0  0  0  0  0
    3.3737   16.3209   16.5939 H   0  0  0  0  0  0  0  0  0  0  0  0
    3.9264   17.5584   15.6831 H   0  0  0  0  0  0  0  0  0  0  0  0
    4.5239    9.4599    8.6532 H   0  0  0  0  0  0  0  0  0  0  0  0
   -0.5451   16.0339   15.7154 H   0  0  0  0  0  0  0  0  0  0  0  0
   -0.0609   17.4193   14.9993 H   0  0  0  0  0  0  0  0  0  0  0  0
    2.8211   16.8269   13.7888 H   0  0  0  0  0  0  0  0  0  0  0  0
    3.2395   15.4011   14.4661 H   0  0  0  0  0  0  0  0  0  0  0  0
    2.4093   10.5506    9.3730 H   0  0  0  0  0  0  0  0  0  0  0  0
   -2.0869   13.2635   12.8080 H   0  0  0  0  0  0  0  0  0  0  0  0
    5.0638   15.7074    9.4802 H   0  0  0  0  0  0  0  0  0  0  0  0
   -1.2188   14.6714   14.5178 H   0  0  0  0  0  0  0  0  0  0  0  0
    6.4013   13.8293    8.9041 H   0  0  0  0  0  0  0  0  0  0  0  0
    2.7775   15.3579   10.2075 H   0  0  0  0  0  0  0  0  0  0  0  0
    2.3544   14.7987   12.3933 H   0  0  0  0  0  0  0  0  0  0  0  0
    0.4816   11.8629    8.8407 H   0  0  0  0  0  0  0  0  0  0  0  0
  1 21  2  0  0  0  0
  2  8  1  0  0  0  0
  2  9  1  0  0  0  0
  3 10  1  0  0  0  0
  3 22  2  0  0  0  0
  4 11  1  0  0  0  0
  4 12  1  0  0  0  0
  4 23  1  0  0  0  0
  5 13  1  0  0  0  0
  5 22  1  0  0  0  0
  5 25  1  0  0  0  0
  6 14  1  0  0  0  0
  6 24  1  0  0  0  0
  6 26  1  0  0  0  0
  7 21  1  0  0  0  0
  8 11  1  0  0  0  0
  9 12  1  0  0  0  0
 10 13  2  0  0  0  0
 14 16  2  0  0  0  0
 15 17  2  0  0  0  0
 15 18  1  0  0  0  0
 16 23  1  0  0  0  0
 17 22  1  0  0  0  0
 18 25  2  0  0  0  0
 19 23  2  0  0  0  0
 19 26  1  0  0  0  0
 20 24  2  0  0  0  0
 20 27  1  0  0  0  0
 21 24  1  0  0  0  0
 25 27  1  0  0  0  0
 26 27  2  0  0  0  0
  7 28  1  0  0  0  0
  7 29  1  0  0  0  0
  7 30  1  0  0  0  0
  8 31  1  0  0  0  0
  8 32  1  0  0  0  0
  9 33  1  0  0  0  0
  9 34  1  0  0  0  0
 10 35  1  0  0  0  0
 11 36  1  0  0  0  0
 11 37  1  0  0  0  0
 12 38  1  0  0  0  0
 12 39  1  0  0  0  0
 13 40  1  0  0  0  0
 14 41  1  0  0  0  0
 15 42  1  0  0  0  0
 16 43  1  0  0  0  0
 17 44  1  0  0  0  0
 18 45  1  0  0  0  0
 19 46  1  0  0  0  0
 20 47  1  0  0  0  0
M  END
> <pdb_id>
5E9V

> <uniprot_id>
Q9H8M2

> <usmiles>
O=C(C=1N2C(=C(C=3N4C(=NC=C4)C=CC3)C1)C=C(N5CCOCC5)C=C2)C

$$$$
5L2_A_302
          07192416293D 1   1.00000     0.00000     0
            
 53 54  0  0  0  0            999 V2000
   -5.6870    1.0490   16.4810 S   0  0  0  0  0  0  0  0  0  0  0  0
   -2.8810    5.7780   13.5760 S   0  0  0  0  0  0  0  0  0  0  0  0
   -4.7970    1.5760   17.5790 O   0  0  0  0  0  0  0  0  0  0  0  0
   -7.1810    1.3700   16.6650 O   0  0  0  0  0  0  0  0  0  0  0  0
   -1.8170    5.8150   14.6920 O   0  0  0  0  0  0  0  0  0  0  0  0
   -3.4730    7.1430   13.1820 O   0  0  0  0  0  0  0  0  0  0  0  0
   -3.2210    0.2870    9.8670 O   0  0  0  0  0  0  0  0  0  0  0  0
   -6.6220    5.8290   14.1980 O   0  0  0  0  0  0  0  0  0  0  0  0
   -0.8440    7.3450   11.6640 O   0  0  0  0  0  0  0  0  0  0  0  0
    1.0560    5.8550   10.1590 O   0  0  0  0  0  0  0  0  0  0  0  0
    0.1590    3.4160    9.3270 O   0  0  0  0  0  0  0  0  0  0  0  0
   -4.9830    1.7090   15.0960 O   0  0  0  0  0  0  0  0  0  0  0  0
   -6.4760    6.3960   12.0660 O   0  0  0  0  0  0  0  0  0  0  0  0
   -2.6110    1.3990   11.7020 O   0  0  0  0  0  0  0  0  0  0  0  0
   -2.1550    3.8720   12.0900 O   0  0  0  0  0  0  0  0  0  0  0  0
   -5.2550   -0.4960   16.4730 N   0  0  0  0  0  0  0  0  0  0  0  0
   -3.9370    4.9210   13.9680 N   0  0  0  0  0  0  0  0  0  0  0  0
   -7.3360    7.4680   12.1820 C   0  0  0  0  0  0  0  0  0  0  0  0
   -4.4310   -0.2420   11.8440 C   0  0  0  0  0  0  0  0  0  0  0  0
   -1.3690    1.7160   11.1600 C   0  0  0  0  0  0  0  0  0  0  0  0
   -3.7270    3.9060   14.5620 C   0  0  0  0  0  0  0  0  0  0  0  0
   -5.5250    3.2560   13.4790 C   0  0  0  0  0  0  0  0  0  0  0  0
   -2.1120    5.2750   11.9850 C   0  0  2  0  0  0  0  0  0  0  0  0
   -3.3830    0.4860   11.0030 C   0  0  0  0  0  0  0  0  0  0  0  0
   -6.1490    5.6680   13.1830 C   0  0  0  0  0  0  0  0  0  0  0  0
   -0.7750    5.8950   11.9330 C   0  0  1  0  0  0  0  0  0  0  0  0
    0.1990    5.1520   11.0810 C   0  0  1  0  0  0  0  0  0  0  0  0
   -0.0080    3.7460   10.6720 C   0  0  1  0  0  0  0  0  0  0  0  0
   -5.1730    3.1400   14.5860 C   0  0  1  0  0  0  0  0  0  0  0  0
   -1.1050    3.0430   11.4630 C   0  0  0  0  0  0  0  0  0  0  0  0
   -5.0470    4.6570   13.0340 C   0  0  1  0  0  0  0  0  0  0  0  0
    0.0812    7.7235   11.6373 H   0  0  0  0  0  0  0  0  0  0  0  0
    1.6372    5.1988    9.6777 H   0  0  0  0  0  0  0  0  0  0  0  0
   -0.0119    2.4390    9.1998 H   0  0  0  0  0  0  0  0  0  0  0  0
   -5.7776   -0.9846   15.7744 H   0  0  0  0  0  0  0  0  0  0  0  0
   -4.2785   -0.5680   16.2700 H   0  0  0  0  0  0  0  0  0  0  0  0
   -7.4694    7.8870   11.2839 H   0  0  0  0  0  0  0  0  0  0  0  0
   -8.2161    7.1524   12.5366 H   0  0  0  0  0  0  0  0  0  0  0  0
   -6.9460    8.1418   12.8096 H   0  0  0  0  0  0  0  0  0  0  0  0
   -4.3901    0.0886   12.7869 H   0  0  0  0  0  0  0  0  0  0  0  0
   -5.3409   -0.0660   11.4683 H   0  0  0  0  0  0  0  0  0  0  0  0
   -4.2478   -1.2249   11.8272 H   0  0  0  0  0  0  0  0  0  0  0  0
   -0.7745    1.0984   10.6451 H   0  0  0  0  0  0  0  0  0  0  0  0
   -3.4135    4.0988   15.4918 H   0  0  0  0  0  0  0  0  0  0  0  0
   -3.0420    3.3536   14.0871 H   0  0  0  0  0  0  0  0  0  0  0  0
   -6.5213    3.1927   13.4213 H   0  0  0  0  0  0  0  0  0  0  0  0
   -5.1123    2.5482   12.9057 H   0  0  0  0  0  0  0  0  0  0  0  0
   -2.6699    5.5843   11.2149 H   0  0  0  0  0  0  0  0  0  0  0  0
   -0.4169    5.8198   12.8637 H   0  0  0  0  0  0  0  0  0  0  0  0
    0.8844    4.9806   11.7887 H   0  0  0  0  0  0  0  0  0  0  0  0
    0.8051    3.3188   11.0675 H   0  0  0  0  0  0  0  0  0  0  0  0
   -5.8014    3.6300   15.1902 H   0  0  0  0  0  0  0  0  0  0  0  0
   -4.7158    4.6332   12.0907 H   0  0  0  0  0  0  0  0  0  0  0  0
  1  3  2  0  0  0  0
  1  4  2  0  0  0  0
  1 12  1  0  0  0  0
  1 16  1  0  0  0  0
  2  5  2  0  0  0  0
  2  6  2  0  0  0  0
  2 17  1  0  0  0  0
  2 23  1  0  0  0  0
  7 24  2  0  0  0  0
  8 25  2  0  0  0  0
  9 26  1  0  0  0  0
 10 27  1  0  0  0  0
 11 28  1  0  0  0  0
 12 29  1  0  0  0  0
 13 18  1  0  0  0  0
 13 25  1  0  0  0  0
 14 20  1  0  0  0  0
 14 24  1  0  0  0  0
 15 23  1  0  0  0  0
 15 30  1  0  0  0  0
 17 21  1  0  0  0  0
 17 31  1  0  0  0  0
 19 24  1  0  0  0  0
 20 30  2  0  0  0  0
 21 29  1  0  0  0  0
 22 29  1  0  0  0  0
 22 31  1  0  0  0  0
 23 26  1  0  0  0  0
 25 31  1  0  0  0  0
 26 27  1  0  0  0  0
 27 28  1  0  0  0  0
 28 30  1  0  0  0  0
  9 32  1  0  0  0  0
 10 33  1  0  0  0  0
 11 34  1  0  0  0  0
 16 35  1  0  0  0  0
 16 36  1  0  0  0  0
 18 37  1  0  0  0  0
 18 38  1  0  0  0  0
 18 39  1  0  0  0  0
 19 40  1  0  0  0  0
 19 41  1  0  0  0  0
 19 42  1  0  0  0  0
 20 43  1  0  0  0  0
 21 44  1  0  0  0  0
 21 45  1  0  0  0  0
 22 46  1  0  0  0  0
 22 47  1  0  0  0  0
 23 48  1  0  0  0  0
 26 49  1  0  0  0  0
 27 50  1  0  0  0  0
 28 51  1  0  0  0  0
 29 52  1  0  0  0  0
 31 53  1  0  0  0  0
M  END
> <pdb_id>
4ZX0

> <uniprot_id>
P00918

> <usmiles>
S(=O)(=O)(O[C@H]1CN(S(=O)(=O)[C@@H]2O/C(=C\OC(=O)C)/[C@@H](O)[C@@H](O)[C@H]2O)[C@H](C(=O)OC)C1)N

$$$$
5L4_A_601
          07202409323D 1   1.00000     0.00000     0
            
 55 58  0  0  0  0            999 V2000
   14.3900   -2.5160   10.0870 O   0  0  0  0  0  0  0  0  0  0  0  0
   13.6220   -1.2300   -1.8910 O   0  0  0  0  0  0  0  0  0  0  0  0
   16.4860    1.1210    4.5190 O   0  0  0  0  0  0  0  0  0  0  0  0
   11.6800   -2.8090    9.7680 N   0  0  0  0  0  0  0  0  0  0  0  0
   18.5920   -1.9000   10.4960 N   0  0  0  0  0  0  0  0  0  0  0  0
   10.9100   -2.5980    7.6140 N   0  0  0  0  0  0  0  0  0  0  0  0
   13.4620   -1.9400    6.6970 N   0  0  0  0  0  0  0  0  0  0  0  0
   15.6060   -1.8450    8.2720 N   0  0  0  0  0  0  0  0  0  0  0  0
   17.3550   -0.3480    6.7930 N   0  0  0  0  0  0  0  0  0  0  0  0
   19.4600   -1.2640    9.6930 C   0  0  0  0  0  0  0  0  0  0  0  0
   17.3420   -2.0960   10.0410 C   0  0  0  0  0  0  0  0  0  0  0  0
   11.1210   -2.2480    6.3480 C   0  0  0  0  0  0  0  0  0  0  0  0
   19.1260   -0.7440    8.4530 C   0  0  0  0  0  0  0  0  0  0  0  0
   14.1930   -1.0530    2.6290 C   0  0  0  0  0  0  0  0  0  0  0  0
   11.8490   -0.8870    2.2490 C   0  0  0  0  0  0  0  0  0  0  0  0
   13.9540   -1.4640    3.9350 C   0  0  0  0  0  0  0  0  0  0  0  0
   11.6020   -1.2800    3.5540 C   0  0  0  0  0  0  0  0  0  0  0  0
   13.6030   -1.5860   -0.5520 C   0  0  0  0  0  0  0  0  0  0  0  0
   15.6770    1.0060    5.7420 C   0  0  0  0  0  0  0  0  0  0  0  0
   17.4610    0.0500    4.3620 C   0  0  0  0  0  0  0  0  0  0  0  0
   16.5260    0.8510    6.9490 C   0  0  0  0  0  0  0  0  0  0  0  0
   18.2510   -0.2730    5.6330 C   0  0  0  0  0  0  0  0  0  0  0  0
   13.4080   -0.3770    0.3370 C   0  0  0  0  0  0  0  0  0  0  0  0
   14.4720   -2.2220    8.8930 C   0  0  0  0  0  0  0  0  0  0  0  0
   11.9500   -2.5930    8.4750 C   0  0  0  0  0  0  0  0  0  0  0  0
   12.3990   -1.9200    5.8630 C   0  0  0  0  0  0  0  0  0  0  0  0
   16.9160   -1.6600    8.7740 C   0  0  0  0  0  0  0  0  0  0  0  0
   13.2610   -2.2590    7.9990 C   0  0  0  0  0  0  0  0  0  0  0  0
   13.1460   -0.7630    1.7690 C   0  0  0  0  0  0  0  0  0  0  0  0
   17.8260   -0.9410    7.9860 C   0  0  0  0  0  0  0  0  0  0  0  0
   12.6520   -1.5570    4.4410 C   0  0  0  0  0  0  0  0  0  0  0  0
   14.5610   -0.9990   -2.1170 H   0  0  0  0  0  0  0  0  0  0  0  0
   10.7350   -3.0270   10.0690 H   0  0  0  0  0  0  0  0  0  0  0  0
   12.4010   -2.7610   10.4790 H   0  0  0  0  0  0  0  0  0  0  0  0
   15.5290   -1.7430    7.2650 H   0  0  0  0  0  0  0  0  0  0  0  0
   20.4930   -1.2540   10.0330 H   0  0  0  0  0  0  0  0  0  0  0  0
   16.7310   -2.6360   10.7620 H   0  0  0  0  0  0  0  0  0  0  0  0
   10.2230   -2.2500    5.7360 H   0  0  0  0  0  0  0  0  0  0  0  0
   19.8710   -0.1950    7.8790 H   0  0  0  0  0  0  0  0  0  0  0  0
   15.2220   -0.9330    2.2950 H   0  0  0  0  0  0  0  0  0  0  0  0
   11.0130   -0.6790    1.5840 H   0  0  0  0  0  0  0  0  0  0  0  0
   14.8050   -1.7860    4.5320 H   0  0  0  0  0  0  0  0  0  0  0  0
   10.5620   -1.4350    3.8310 H   0  0  0  0  0  0  0  0  0  0  0  0
   12.8360   -2.3290   -0.3410 H   0  0  0  0  0  0  0  0  0  0  0  0
   14.5550   -2.0700   -0.3350 H   0  0  0  0  0  0  0  0  0  0  0  0
   15.0670    0.1190    5.5940 H   0  0  0  0  0  0  0  0  0  0  0  0
   14.9830    1.8400    5.8220 H   0  0  0  0  0  0  0  0  0  0  0  0
   18.1260    0.2720    3.5280 H   0  0  0  0  0  0  0  0  0  0  0  0
   16.8560   -0.7990    4.0480 H   0  0  0  0  0  0  0  0  0  0  0  0
   17.1780    1.7150    7.0570 H   0  0  0  0  0  0  0  0  0  0  0  0
   15.9210    0.8430    7.8530 H   0  0  0  0  0  0  0  0  0  0  0  0
   18.7620   -1.2280    5.5180 H   0  0  0  0  0  0  0  0  0  0  0  0
   19.0490    0.4580    5.7530 H   0  0  0  0  0  0  0  0  0  0  0  0
   12.5740    0.2250   -0.0190 H   0  0  0  0  0  0  0  0  0  0  0  0
   14.2790    0.2730    0.2610 H   0  0  0  0  0  0  0  0  0  0  0  0
  1 24  2  0  0  0  0
  2 18  1  0  0  0  0
  2 32  1  0  0  0  0
  3 19  1  0  0  0  0
  3 20  1  0  0  0  0
  4 25  1  0  0  0  0
  4 33  1  0  0  0  0
  4 34  1  0  0  0  0
  5 10  2  0  0  0  0
  5 11  1  0  0  0  0
  6 12  1  0  0  0  0
  6 25  2  0  0  0  0
  7 26  1  0  0  0  0
  7 28  2  0  0  0  0
  8 24  1  0  0  0  0
  8 27  1  0  0  0  0
  8 35  1  0  0  0  0
  9 21  1  0  0  0  0
  9 22  1  0  0  0  0
  9 30  1  0  0  0  0
 10 13  1  0  0  0  0
 10 36  1  0  0  0  0
 11 27  2  0  0  0  0
 11 37  1  0  0  0  0
 12 26  2  0  0  0  0
 12 38  1  0  0  0  0
 13 30  2  0  0  0  0
 13 39  1  0  0  0  0
 14 16  1  0  0  0  0
 14 29  2  0  0  0  0
 14 40  1  0  0  0  0
 15 17  2  0  0  0  0
 15 29  1  0  0  0  0
 15 41  1  0  0  0  0
 16 31  2  0  0  0  0
 16 42  1  0  0  0  0
 17 31  1  0  0  0  0
 17 43  1  0  0  0  0
 18 23  1  0  0  0  0
 18 44  1  0  0  0  0
 18 45  1  0  0  0  0
 19 21  1  0  0  0  0
 19 46  1  0  0  0  0
 19 47  1  0  0  0  0
 20 22  1  0  0  0  0
 20 48  1  0  0  0  0
 20 49  1  0  0  0  0
 21 50  1  0  0  0  0
 21 51  1  0  0  0  0
 22 52  1  0  0  0  0
 22 53  1  0  0  0  0
 23 29  1  0  0  0  0
 23 54  1  0  0  0  0
 23 55  1  0  0  0  0
 24 28  1  0  0  0  0
 25 28  1  0  0  0  0
 26 31  1  0  0  0  0
 27 30  1  0  0  0  0
M  END
> <pdb_id>
5E91

> <uniprot_id>
P37173

> <usmiles>
O=C(Nc1c(N2CCOCC2)ccnc1)c3nc(c4ccc(cc4)CCO)cnc3N

$$$$
5LC_A_500
          07192420423D 1   1.00000     0.00000     0
            
 49 50  0  0  0  0            999 V2000
   21.9969   40.2139   35.2566 O   0  0  0  0  0  0  0  0  0  0  0  0
   24.6761   37.7253   27.0753 O   0  0  0  0  0  0  0  0  0  0  0  0
   20.3086   35.4098   32.1384 O   0  0  0  0  0  0  0  0  0  0  0  0
   19.6997   35.1612   29.2978 O   0  0  0  0  0  0  0  0  0  0  0  0
   20.3626   38.0773   32.0343 O   0  0  0  0  0  0  0  0  0  0  0  0
   21.3873   37.1024   29.6907 O   0  0  0  0  0  0  0  0  0  0  0  0
   21.4139   40.1986   33.0853 N   0  0  0  0  0  0  0  0  0  0  0  0
   23.5131   38.4370   28.9008 N   0  0  0  0  0  0  0  0  0  0  0  0
   22.0763   41.4639   32.8304 C   0  0  0  0  0  0  0  0  0  0  0  0
   24.2652   39.6820   29.1386 C   0  0  0  0  0  0  0  0  0  0  0  0
   21.9494   41.9193   31.4053 C   0  0  0  0  0  0  0  0  0  0  0  0
   23.7283   40.4857   30.3278 C   0  0  0  0  0  0  0  0  0  0  0  0
   22.3165   40.9586   30.2832 C   0  0  0  0  0  0  0  0  0  0  0  0
   21.4638   36.0283   35.4715 C   0  0  0  0  0  0  0  0  0  0  0  0
   22.0534   34.4316   26.6680 C   0  0  0  0  0  0  0  0  0  0  0  0
   20.9778   35.3587   34.3855 C   0  0  0  0  0  0  0  0  0  0  0  0
   21.0032   34.2587   27.5331 C   0  0  0  0  0  0  0  0  0  0  0  0
   21.5580   37.3826   35.4386 C   0  0  0  0  0  0  0  0  0  0  0  0
   22.9451   35.4628   26.7610 C   0  0  0  0  0  0  0  0  0  0  0  0
   21.5239   39.5980   34.2922 C   0  0  0  0  0  0  0  0  0  0  0  0
   23.7602   37.5472   27.9002 C   0  0  0  0  0  0  0  0  0  0  0  0
   20.7266   36.0879   33.2193 C   0  0  0  0  0  0  0  0  0  0  0  0
   20.7487   35.2285   28.4678 C   0  0  0  0  0  0  0  0  0  0  0  0
   20.7011   37.4458   33.2045 C   0  0  0  0  0  0  0  0  0  0  0  0
   21.6998   36.2504   28.6616 C   0  0  0  0  0  0  0  0  0  0  0  0
   21.2419   38.1309   34.3350 C   0  0  0  0  0  0  0  0  0  0  0  0
   22.7967   36.3983   27.7965 C   0  0  0  0  0  0  0  0  0  0  0  0
   20.1186   35.8963   31.2856 H   0  0  0  0  0  0  0  0  0  0  0  0
   19.5448   35.8873   29.9677 H   0  0  0  0  0  0  0  0  0  0  0  0
   20.3358   39.0762   31.9948 H   0  0  0  0  0  0  0  0  0  0  0  0
   21.9970   37.8634   29.9124 H   0  0  0  0  0  0  0  0  0  0  0  0
   20.8722   39.7675   32.3637 H   0  0  0  0  0  0  0  0  0  0  0  0
   22.7601   38.2289   29.5250 H   0  0  0  0  0  0  0  0  0  0  0  0
   23.0474   41.3639   33.0471 H   0  0  0  0  0  0  0  0  0  0  0  0
   21.6722   42.1598   33.4240 H   0  0  0  0  0  0  0  0  0  0  0  0
   24.2088   40.2505   28.3178 H   0  0  0  0  0  0  0  0  0  0  0  0
   25.2210   39.4482   29.3170 H   0  0  0  0  0  0  0  0  0  0  0  0
   22.5330   42.7248   31.3029 H   0  0  0  0  0  0  0  0  0  0  0  0
   20.9940   42.1799   31.2658 H   0  0  0  0  0  0  0  0  0  0  0  0
   24.3082   41.2947   30.4239 H   0  0  0  0  0  0  0  0  0  0  0  0
   23.8219   39.9101   31.1401 H   0  0  0  0  0  0  0  0  0  0  0  0
   22.1680   41.4232   29.4103 H   0  0  0  0  0  0  0  0  0  0  0  0
   21.7159   40.1613   30.3429 H   0  0  0  0  0  0  0  0  0  0  0  0
   21.7490   35.5242   36.2867 H   0  0  0  0  0  0  0  0  0  0  0  0
   22.1730   33.7675   25.9299 H   0  0  0  0  0  0  0  0  0  0  0  0
   20.8061   34.3743   34.4231 H   0  0  0  0  0  0  0  0  0  0  0  0
   20.4327   33.4389   27.4828 H   0  0  0  0  0  0  0  0  0  0  0  0
   21.8736   37.8572   36.2602 H   0  0  0  0  0  0  0  0  0  0  0  0
   23.6917   35.5495   26.1014 H   0  0  0  0  0  0  0  0  0  0  0  0
  1 20  2  0  0  0  0
  2 21  2  0  0  0  0
  3 22  1  0  0  0  0
  4 23  1  0  0  0  0
  5 24  1  0  0  0  0
  6 25  1  0  0  0  0
  7  9  1  0  0  0  0
  7 20  1  0  0  0  0
  8 10  1  0  0  0  0
  8 21  1  0  0  0  0
  9 11  1  0  0  0  0
 10 12  1  0  0  0  0
 11 13  1  0  0  0  0
 12 13  1  0  0  0  0
 14 16  2  0  0  0  0
 14 18  1  0  0  0  0
 15 17  2  0  0  0  0
 15 19  1  0  0  0  0
 16 22  1  0  0  0  0
 17 23  1  0  0  0  0
 18 26  2  0  0  0  0
 19 27  2  0  0  0  0
 20 26  1  0  0  0  0
 21 27  1  0  0  0  0
 22 24  2  0  0  0  0
 23 25  2  0  0  0  0
 24 26  1  0  0  0  0
 25 27  1  0  0  0  0
  3 28  1  0  0  0  0
  4 29  1  0  0  0  0
  5 30  1  0  0  0  0
  6 31  1  0  0  0  0
  7 32  1  0  0  0  0
  8 33  1  0  0  0  0
  9 34  1  0  0  0  0
  9 35  1  0  0  0  0
 10 36  1  0  0  0  0
 10 37  1  0  0  0  0
 11 38  1  0  0  0  0
 11 39  1  0  0  0  0
 12 40  1  0  0  0  0
 12 41  1  0  0  0  0
 13 42  1  0  0  0  0
 13 43  1  0  0  0  0
 14 44  1  0  0  0  0
 15 45  1  0  0  0  0
 16 46  1  0  0  0  0
 17 47  1  0  0  0  0
 18 48  1  0  0  0  0
 19 49  1  0  0  0  0
M  END
> <pdb_id>
5A5D

> <uniprot_id>
Q0P8Q4

> <usmiles>
O=C(NCCCCCNC(=O)c1c(O)c(O)ccc1)c2c(O)c(O)ccc2

$$$$
5LD_A_303
          07202409423D 1   1.00000     0.00000     0
            
 23 23  0  0  0  0            999 V2000
  -40.4800  -23.6580   11.0740 P   0  0  0  0  0  0  0  0  0  0  0  0
  -41.0200  -24.3020   12.3270 O   0  0  0  0  0  0  0  0  0  0  0  0
  -39.0110  -23.2910   11.2320 O   0  0  0  0  0  0  0  0  0  0  0  0
  -40.6630  -24.4680    9.8230 O   0  0  0  0  0  0  0  0  0  0  0  0
  -41.7560  -19.8980   10.0310 O   0  0  0  0  0  0  0  0  0  0  0  0
  -39.8440  -19.3260    7.9170 N   0  0  0  0  0  0  0  0  0  0  0  0
  -38.4990  -20.0050    6.3010 N   0  0  0  0  0  0  0  0  0  0  0  0
  -39.9690  -20.6970    7.7070 N   0  0  0  0  0  0  0  0  0  0  0  0
  -38.9140  -18.9460    7.0170 C   0  0  0  0  0  0  0  0  0  0  0  0
  -41.4630  -22.1360   10.9120 C   0  0  0  0  0  0  0  0  0  0  0  0
  -39.1500  -21.0750    6.7360 C   0  0  0  0  0  0  0  0  0  0  0  0
  -40.9440  -21.4760    8.4910 C   0  0  0  0  0  0  0  0  0  0  0  0
  -40.9370  -21.0850    9.9450 C   0  0  1  0  0  0  0  0  0  0  0  0
  -41.9842  -24.5318   12.1947 H   0  0  0  0  0  0  0  0  0  0  0  0
  -38.6807  -22.8672   10.3886 H   0  0  0  0  0  0  0  0  0  0  0  0
  -41.4102  -19.2076    9.3955 H   0  0  0  0  0  0  0  0  0  0  0  0
  -38.5810  -18.0104    6.8993 H   0  0  0  0  0  0  0  0  0  0  0  0
  -41.5204  -21.7141   11.8168 H   0  0  0  0  0  0  0  0  0  0  0  0
  -42.3789  -22.3973   10.6073 H   0  0  0  0  0  0  0  0  0  0  0  0
  -39.0416  -22.0072    6.3907 H   0  0  0  0  0  0  0  0  0  0  0  0
  -40.7167  -22.4470    8.4164 H   0  0  0  0  0  0  0  0  0  0  0  0
  -41.8584  -21.3181    8.1183 H   0  0  0  0  0  0  0  0  0  0  0  0
  -40.0018  -20.8480   10.2080 H   0  0  0  0  0  0  0  0  0  0  0  0
  1  2  1  0  0  0  0
  1  3  1  0  0  0  0
  1  4  2  0  0  0  0
  1 10  1  0  0  0  0
  5 13  1  0  0  0  0
  6  8  1  0  0  0  0
  6  9  2  0  0  0  0
  7  9  1  0  0  0  0
  7 11  2  0  0  0  0
  8 11  1  0  0  0  0
  8 12  1  0  0  0  0
 10 13  1  0  0  0  0
 12 13  1  0  0  0  0
  2 14  1  0  0  0  0
  3 15  1  0  0  0  0
  5 16  1  0  0  0  0
  9 17  1  0  0  0  0
 10 18  1  0  0  0  0
 10 19  1  0  0  0  0
 11 20  1  0  0  0  0
 12 21  1  0  0  0  0
 12 22  1  0  0  0  0
 13 23  1  0  0  0  0
M  END
> <pdb_id>
5ELW

> <uniprot_id>
O23346

> <usmiles>
P(=O)(O)(O)C[C@H](O)CN1N=CN=C1

$$$$
5LI_P_205
          07202403373D 1   1.00000     0.00000     0
            
 27 27  0  0  0  0            999 V2000
   26.1528   -3.3449   10.5453 Cl  0  0  0  0  0  0  0  0  0  0  0  0
   27.0575   -2.6417    7.6132 Cl  0  0  0  0  0  0  0  0  0  0  0  0
   30.8599   -3.9557    4.1842 O   0  0  0  0  0  0  0  0  0  0  0  0
   30.7037   -1.5240    5.3257 O   0  0  0  0  0  0  0  0  0  0  0  0
   25.9042   -4.3901    4.8125 O   0  0  0  0  0  0  0  0  0  0  0  0
   27.8977   -5.4002    5.2846 N   0  0  0  0  0  0  0  0  0  0  0  0
   29.6648   -3.2243    4.1684 N   0  0  0  0  0  0  0  0  0  0  0  0
   29.7203   -2.0061    4.7862 C   0  0  0  0  0  0  0  0  0  0  0  0
   28.3695   -5.2761    3.9265 C   0  0  0  0  0  0  0  0  0  0  0  0
   28.5314   -3.8264    3.5121 C   0  0  0  0  0  0  0  0  0  0  0  0
   25.3575   -6.6794    8.6184 C   0  0  0  0  0  0  0  0  0  0  0  0
   25.4880   -5.7280    9.6050 C   0  0  0  0  0  0  0  0  0  0  0  0
   25.7453   -6.4003    7.3308 C   0  0  0  0  0  0  0  0  0  0  0  0
   26.6586   -4.9301    5.6107 C   0  0  0  0  0  0  0  0  0  0  0  0
   26.0114   -4.4988    9.2800 C   0  0  0  0  0  0  0  0  0  0  0  0
   26.4040   -4.2016    7.9912 C   0  0  0  0  0  0  0  0  0  0  0  0
   26.2646   -5.1649    7.0147 C   0  0  0  0  0  0  0  0  0  0  0  0
   30.7239   -4.8267    3.7122 H   0  0  0  0  0  0  0  0  0  0  0  0
   28.4741   -5.8272    5.9813 H   0  0  0  0  0  0  0  0  0  0  0  0
   28.8815   -1.4619    4.7971 H   0  0  0  0  0  0  0  0  0  0  0  0
   27.7117   -5.7153    3.3147 H   0  0  0  0  0  0  0  0  0  0  0  0
   29.2547   -5.7349    3.8489 H   0  0  0  0  0  0  0  0  0  0  0  0
   28.6655   -3.7824    2.5222 H   0  0  0  0  0  0  0  0  0  0  0  0
   27.7044   -3.3214    3.7593 H   0  0  0  0  0  0  0  0  0  0  0  0
   24.9787   -7.5778    8.8404 H   0  0  0  0  0  0  0  0  0  0  0  0
   25.2064   -5.9279   10.5435 H   0  0  0  0  0  0  0  0  0  0  0  0
   25.6501   -7.0971    6.6199 H   0  0  0  0  0  0  0  0  0  0  0  0
  1 15  1  0  0  0  0
  2 16  1  0  0  0  0
  3  7  1  0  0  0  0
  4  8  2  0  0  0  0
  5 14  2  0  0  0  0
  6  9  1  0  0  0  0
  6 14  1  0  0  0  0
  7  8  1  0  0  0  0
  7 10  1  0  0  0  0
  9 10  1  0  0  0  0
 11 12  2  0  0  0  0
 11 13  1  0  0  0  0
 12 15  1  0  0  0  0
 13 17  2  0  0  0  0
 14 17  1  0  0  0  0
 15 16  2  0  0  0  0
 16 17  1  0  0  0  0
  3 18  1  0  0  0  0
  6 19  1  0  0  0  0
  8 20  1  0  0  0  0
  9 21  1  0  0  0  0
  9 22  1  0  0  0  0
 10 23  1  0  0  0  0
 10 24  1  0  0  0  0
 11 25  1  0  0  0  0
 12 26  1  0  0  0  0
 13 27  1  0  0  0  0
M  END
> <pdb_id>
3SW8

> <uniprot_id>
Q939R9

> <usmiles>
Clc1c(Cl)cccc1C(=O)NCCN(O)C=O

$$$$
5LK_A_1
          07202400393D 1   1.00000     0.00000     0
            
 54 58  0  0  0  0            999 V2000
   17.9535   36.9408    5.3750 O   0  0  0  0  0  0  0  0  0  0  0  0
   22.6035   38.6940    9.4393 N   0  0  0  0  0  0  0  0  0  0  0  0
   25.2529   38.7200   10.0661 N   0  0  0  0  0  0  0  0  0  0  0  0
   25.2107   36.0481    7.7503 N   0  0  0  0  0  0  0  0  0  0  0  0
   24.6387   37.8306    9.2353 N   0  0  0  0  0  0  0  0  0  0  0  0
   33.7200   38.2416   11.8865 N   0  0  0  0  0  0  0  0  0  0  0  0
   31.7660   37.2654    9.8943 N   0  0  0  0  0  0  0  0  0  0  0  0
   35.0171   38.7933   12.3692 C   0  0  0  0  0  0  0  0  0  0  0  0
   26.5071   38.5137   10.1308 C   0  0  0  0  0  0  0  0  0  0  0  0
   24.0178   35.9847    7.2869 C   0  0  0  0  0  0  0  0  0  0  0  0
   33.1136   39.1529   10.8778 C   0  0  0  0  0  0  0  0  0  0  0  0
   33.8125   36.8461   11.3932 C   0  0  0  0  0  0  0  0  0  0  0  0
   31.7089   38.6445   10.4288 C   0  0  0  0  0  0  0  0  0  0  0  0
   32.4352   36.3563   10.8630 C   0  0  0  0  0  0  0  0  0  0  0  0
   29.5261   35.1131    7.7963 C   0  0  0  0  0  0  0  0  0  0  0  0
   20.1208   37.8986    5.7016 C   0  0  0  0  0  0  0  0  0  0  0  0
   19.4797   35.8750    6.9446 C   0  0  0  0  0  0  0  0  0  0  0  0
   30.6551   35.6592    8.4101 C   0  0  0  0  0  0  0  0  0  0  0  0
   28.2606   35.6628    8.0682 C   0  0  0  0  0  0  0  0  0  0  0  0
   21.3633   37.8713    6.3197 C   0  0  0  0  0  0  0  0  0  0  0  0
   20.7257   35.8632    7.5794 C   0  0  0  0  0  0  0  0  0  0  0  0
   29.2933   37.2833    9.5442 C   0  0  0  0  0  0  0  0  0  0  0  0
   19.1858   36.8979    6.0101 C   0  0  0  0  0  0  0  0  0  0  0  0
   23.3868   37.7960    8.8589 C   0  0  0  0  0  0  0  0  0  0  0  0
   25.5648   37.0673    8.7118 C   0  0  0  0  0  0  0  0  0  0  0  0
   30.5679   36.7506    9.2810 C   0  0  0  0  0  0  0  0  0  0  0  0
   21.6566   36.8616    7.2638 C   0  0  0  0  0  0  0  0  0  0  0  0
   28.1295   36.7492    8.9489 C   0  0  0  0  0  0  0  0  0  0  0  0
   23.0335   36.9459    7.8556 C   0  0  0  0  0  0  0  0  0  0  0  0
   26.7755   37.3749    9.2295 C   0  0  0  0  0  0  0  0  0  0  0  0
   17.2649   36.2431    5.5721 H   0  0  0  0  0  0  0  0  0  0  0  0
   21.6317   38.7346    9.2068 H   0  0  0  0  0  0  0  0  0  0  0  0
   22.9842   39.3309   10.1096 H   0  0  0  0  0  0  0  0  0  0  0  0
   35.4128   38.1718   13.0454 H   0  0  0  0  0  0  0  0  0  0  0  0
   35.6458   38.8904   11.5977 H   0  0  0  0  0  0  0  0  0  0  0  0
   34.8634   39.6880   12.7886 H   0  0  0  0  0  0  0  0  0  0  0  0
   27.1736   39.0187   10.6791 H   0  0  0  0  0  0  0  0  0  0  0  0
   23.7616   35.3247    6.5807 H   0  0  0  0  0  0  0  0  0  0  0  0
   33.7136   39.2007   10.0792 H   0  0  0  0  0  0  0  0  0  0  0  0
   33.0179   40.0644   11.2778 H   0  0  0  0  0  0  0  0  0  0  0  0
   34.1056   36.2522   12.1424 H   0  0  0  0  0  0  0  0  0  0  0  0
   34.4829   36.8039   10.6524 H   0  0  0  0  0  0  0  0  0  0  0  0
   31.0923   38.6610   11.2159 H   0  0  0  0  0  0  0  0  0  0  0  0
   31.3572   39.2527    9.7171 H   0  0  0  0  0  0  0  0  0  0  0  0
   32.5735   35.4739   10.4134 H   0  0  0  0  0  0  0  0  0  0  0  0
   31.8264   36.2389   11.6476 H   0  0  0  0  0  0  0  0  0  0  0  0
   29.6165   34.3390    7.1697 H   0  0  0  0  0  0  0  0  0  0  0  0
   19.8951   38.6199    5.0468 H   0  0  0  0  0  0  0  0  0  0  0  0
   18.8026   35.1679    7.1485 H   0  0  0  0  0  0  0  0  0  0  0  0
   31.5518   35.2586    8.2218 H   0  0  0  0  0  0  0  0  0  0  0  0
   27.4479   35.2773    7.6314 H   0  0  0  0  0  0  0  0  0  0  0  0
   22.0492   38.5643    6.0975 H   0  0  0  0  0  0  0  0  0  0  0  0
   20.9487   35.1536    8.2478 H   0  0  0  0  0  0  0  0  0  0  0  0
   29.2089   38.0599   10.1686 H   0  0  0  0  0  0  0  0  0  0  0  0
  1 23  1  0  0  0  0
  2 24  1  0  0  0  0
  3  5  1  0  0  0  0
  3  9  2  0  0  0  0
  4 10  2  0  0  0  0
  4 25  1  0  0  0  0
  5 24  1  0  0  0  0
  5 25  1  0  0  0  0
  6  8  1  0  0  0  0
  6 11  1  0  0  0  0
  6 12  1  0  0  0  0
  7 13  1  0  0  0  0
  7 14  1  0  0  0  0
  7 26  1  0  0  0  0
  9 30  1  0  0  0  0
 10 29  1  0  0  0  0
 11 13  1  0  0  0  0
 12 14  1  0  0  0  0
 15 18  2  0  0  0  0
 15 19  1  0  0  0  0
 16 20  1  0  0  0  0
 16 23  2  0  0  0  0
 17 21  2  0  0  0  0
 17 23  1  0  0  0  0
 18 26  1  0  0  0  0
 19 28  2  0  0  0  0
 20 27  2  0  0  0  0
 21 27  1  0  0  0  0
 22 26  2  0  0  0  0
 22 28  1  0  0  0  0
 24 29  2  0  0  0  0
 25 30  2  0  0  0  0
 27 29  1  0  0  0  0
 28 30  1  0  0  0  0
  1 31  1  0  0  0  0
  2 32  1  0  0  0  0
  2 33  1  0  0  0  0
  8 34  1  0  0  0  0
  8 35  1  0  0  0  0
  8 36  1  0  0  0  0
  9 37  1  0  0  0  0
 10 38  1  0  0  0  0
 11 39  1  0  0  0  0
 11 40  1  0  0  0  0
 12 41  1  0  0  0  0
 12 42  1  0  0  0  0
 13 43  1  0  0  0  0
 13 44  1  0  0  0  0
 14 45  1  0  0  0  0
 14 46  1  0  0  0  0
 15 47  1  0  0  0  0
 16 48  1  0  0  0  0
 17 49  1  0  0  0  0
 18 50  1  0  0  0  0
 19 51  1  0  0  0  0
 20 52  1  0  0  0  0
 21 53  1  0  0  0  0
 22 54  1  0  0  0  0
M  END
> <pdb_id>
3MPM

> <uniprot_id>
P06239

> <usmiles>
Oc1ccc(cc1)C2=C(N3N=CC(c4cc(N5CCN(CC5)C)ccc4)=C3N=C2)N

$$$$
5LO_A_501
          07202409333D 1   1.00000     0.00000     0
            
 57 61  0  0  0  0            999 V2000
  -18.9480   -9.6010  -29.3960 O   0  0  0  0  0  0  0  0  0  0  0  0
  -20.3530   -9.0490  -30.9570 O   0  0  0  0  0  0  0  0  0  0  0  0
  -19.8060   -1.3400  -27.9250 O   0  0  0  0  0  0  0  0  0  0  0  0
  -19.3790    2.5490  -31.5110 C   0  0  0  0  0  0  0  0  0  0  0  0
  -21.2000    1.2680  -32.6520 C   0  0  0  0  0  0  0  0  0  0  0  0
  -17.9380   -2.2370  -34.1510 C   0  0  0  0  0  0  0  0  0  0  0  0
  -16.3780   -0.4640  -33.3510 C   0  0  0  0  0  0  0  0  0  0  0  0
  -16.5840   -2.6140  -27.6230 C   0  0  0  0  0  0  0  0  0  0  0  0
  -17.8560   -2.1820  -26.6880 C   0  0  0  0  0  0  0  0  0  0  0  0
  -19.2730   -6.2680  -30.7830 C   0  0  0  0  0  0  0  0  0  0  0  0
  -18.9620   -6.8000  -28.4620 C   0  0  0  0  0  0  0  0  0  0  0  0
  -18.9990   -4.9190  -30.5110 C   0  0  0  0  0  0  0  0  0  0  0  0
  -18.6990   -5.4640  -28.2030 C   0  0  0  0  0  0  0  0  0  0  0  0
  -16.9860   -3.6690  -28.3420 C   0  0  0  0  0  0  0  0  0  0  0  0
  -18.9100    1.4330  -33.6590 C   0  0  0  0  0  0  0  0  0  0  0  0
  -18.6430    0.1040  -34.3460 C   0  0  0  0  0  0  0  0  0  0  0  0
  -19.7900    0.0560  -30.1780 C   0  0  0  0  0  0  0  0  0  0  0  0
  -18.0650   -1.9800  -31.1700 C   0  0  0  0  0  0  0  0  0  0  0  0
  -19.5390   -8.7010  -30.0530 C   0  0  0  0  0  0  0  0  0  0  0  0
  -19.4360   -1.0130  -29.3600 C   0  0  0  0  0  0  0  0  0  0  0  0
  -18.9650   -2.4240  -27.4850 C   0  0  2  0  0  0  0  0  0  0  0  0
  -19.2530   -7.2180  -29.7650 C   0  0  0  0  0  0  0  0  0  0  0  0
  -18.6780   -4.4930  -29.2170 C   0  0  0  0  0  0  0  0  0  0  0  0
  -18.6330   -2.0640  -29.8860 C   0  0  0  0  0  0  0  0  0  0  0  0
  -19.2870    0.1060  -31.5100 C   0  0  0  0  0  0  0  0  0  0  0  0
  -18.4400   -0.9060  -32.0170 C   0  0  0  0  0  0  0  0  0  0  0  0
  -19.6950    1.3160  -32.3630 C   0  0  0  0  0  0  0  0  0  0  0  0
  -17.8710   -0.8630  -33.4610 C   0  0  0  0  0  0  0  0  0  0  0  0
  -18.3790   -3.0040  -28.7610 C   0  0  2  0  0  0  0  0  0  0  0  0
  -18.3001   -9.3510  -28.6765 H   0  0  0  0  0  0  0  0  0  0  0  0
  -18.3975    2.5810  -31.3221 H   0  0  0  0  0  0  0  0  0  0  0  0
  -19.6503    3.3745  -32.0058 H   0  0  0  0  0  0  0  0  0  0  0  0
  -19.8829    2.4965  -30.6488 H   0  0  0  0  0  0  0  0  0  0  0  0
  -21.4071    0.4632  -33.2083 H   0  0  0  0  0  0  0  0  0  0  0  0
  -21.7035    1.2157  -31.7896 H   0  0  0  0  0  0  0  0  0  0  0  0
  -21.4709    2.0938  -33.1466 H   0  0  0  0  0  0  0  0  0  0  0  0
  -18.8930   -2.5211  -34.2360 H   0  0  0  0  0  0  0  0  0  0  0  0
  -17.5269   -2.1737  -35.0604 H   0  0  0  0  0  0  0  0  0  0  0  0
  -17.4376   -2.9089  -33.6050 H   0  0  0  0  0  0  0  0  0  0  0  0
  -16.3033    0.4279  -32.9050 H   0  0  0  0  0  0  0  0  0  0  0  0
  -15.8889   -1.1488  -32.8108 H   0  0  0  0  0  0  0  0  0  0  0  0
  -15.9781   -0.4136  -34.2662 H   0  0  0  0  0  0  0  0  0  0  0  0
  -15.6851   -2.1767  -27.6514 H   0  0  0  0  0  0  0  0  0  0  0  0
  -17.8016   -1.2145  -26.4410 H   0  0  0  0  0  0  0  0  0  0  0  0
  -17.8893   -2.7369  -25.8568 H   0  0  0  0  0  0  0  0  0  0  0  0
  -19.4851   -6.5504  -31.7186 H   0  0  0  0  0  0  0  0  0  0  0  0
  -18.9437   -7.4661  -27.7164 H   0  0  0  0  0  0  0  0  0  0  0  0
  -19.0337   -4.2508  -31.2541 H   0  0  0  0  0  0  0  0  0  0  0  0
  -18.5179   -5.1818  -27.2609 H   0  0  0  0  0  0  0  0  0  0  0  0
  -16.5666   -4.5540  -28.5443 H   0  0  0  0  0  0  0  0  0  0  0  0
  -19.4274    2.0131  -34.2881 H   0  0  0  0  0  0  0  0  0  0  0  0
  -18.0306    1.8634  -33.4555 H   0  0  0  0  0  0  0  0  0  0  0  0
  -18.1119    0.2729  -35.1763 H   0  0  0  0  0  0  0  0  0  0  0  0
  -19.5187   -0.3130  -34.5895 H   0  0  0  0  0  0  0  0  0  0  0  0
  -20.3894    0.7794  -29.8353 H   0  0  0  0  0  0  0  0  0  0  0  0
  -17.4074   -2.6664  -31.4806 H   0  0  0  0  0  0  0  0  0  0  0  0
  -19.5348   -3.1183  -27.0453 H   0  0  0  0  0  0  0  0  0  0  0  0
  1 19  1  0  0  0  0
  2 19  2  0  0  0  0
  3 20  1  0  0  0  0
  3 21  1  0  0  0  0
  4 27  1  0  0  0  0
  5 27  1  0  0  0  0
  6 28  1  0  0  0  0
  7 28  1  0  0  0  0
  8  9  1  0  0  0  0
  8 14  2  0  0  0  0
  9 21  1  0  0  0  0
 10 12  1  0  0  0  0
 10 22  2  0  0  0  0
 11 13  2  0  0  0  0
 11 22  1  0  0  0  0
 12 23  2  0  0  0  0
 13 23  1  0  0  0  0
 14 29  1  0  0  0  0
 15 16  1  0  0  0  0
 15 27  1  0  0  0  0
 16 28  1  0  0  0  0
 17 20  2  0  0  0  0
 17 25  1  0  0  0  0
 18 24  2  0  0  0  0
 18 26  1  0  0  0  0
 19 22  1  0  0  0  0
 20 24  1  0  0  0  0
 21 29  1  0  0  0  0
 23 29  1  0  0  0  0
 24 29  1  0  0  0  0
 25 26  2  0  0  0  0
 25 27  1  0  0  0  0
 26 28  1  0  0  0  0
  1 30  1  0  0  0  0
  4 31  1  0  0  0  0
  4 32  1  0  0  0  0
  4 33  1  0  0  0  0
  5 34  1  0  0  0  0
  5 35  1  0  0  0  0
  5 36  1  0  0  0  0
  6 37  1  0  0  0  0
  6 38  1  0  0  0  0
  6 39  1  0  0  0  0
  7 40  1  0  0  0  0
  7 41  1  0  0  0  0
  7 42  1  0  0  0  0
  8 43  1  0  0  0  0
  9 44  1  0  0  0  0
  9 45  1  0  0  0  0
 10 46  1  0  0  0  0
 11 47  1  0  0  0  0
 12 48  1  0  0  0  0
 13 49  1  0  0  0  0
 14 50  1  0  0  0  0
 15 51  1  0  0  0  0
 15 52  1  0  0  0  0
 16 53  1  0  0  0  0
 16 54  1  0  0  0  0
 17 55  1  0  0  0  0
 18 56  1  0  0  0  0
 21 57  1  0  0  0  0
M  END
> <pdb_id>
5EC9

> <uniprot_id>
P19793

> <usmiles>
O=C(O)c1ccc(cc1)[C@]23c4c(O[C@@H]3CC=C2)cc5c(c4)C(CCC5(C)C)(C)C

$$$$
5M2_A_802
          07202413413D 1   1.00000     0.00000     0
            
 31 32  0  0  0  0            999 V2000
   39.2263   81.6306   63.6646 O   0  0  0  0  0  0  0  0  0  0  0  0
   37.8460   81.1098   65.4150 O   0  0  0  0  0  0  0  0  0  0  0  0
   37.1136   82.0784   61.9885 O   0  0  0  0  0  0  0  0  0  0  0  0
   35.5990   80.0420   61.0870 O   0  0  0  0  0  0  0  0  0  0  0  0
   31.9471   75.4815   63.1220 N   0  0  0  0  0  0  0  0  0  0  0  0
   32.5926   79.3657   60.8057 C   0  0  0  0  0  0  0  0  0  0  0  0
   30.8578   75.7598   62.1451 C   0  0  0  0  0  0  0  0  0  0  0  0
   31.0965   76.8754   61.5123 C   0  0  0  0  0  0  0  0  0  0  0  0
   33.9855   76.6390   63.7738 C   0  0  0  0  0  0  0  0  0  0  0  0
   34.6908   77.7187   63.4986 C   0  0  0  0  0  0  0  0  0  0  0  0
   35.6204   80.5298   63.3576 C   0  0  0  0  0  0  0  0  0  0  0  0
   38.0942   81.4315   64.2075 C   0  0  0  0  0  0  0  0  0  0  0  0
   36.8521   81.5363   63.2426 C   0  0  1  0  0  0  0  0  0  0  0  0
   35.1946   79.8023   62.3515 C   0  0  0  0  0  0  0  0  0  0  0  0
   32.8103   76.4482   63.0606 C   0  0  0  0  0  0  0  0  0  0  0  0
   33.0571   78.4397   61.8015 C   0  0  0  0  0  0  0  0  0  0  0  0
   34.3004   78.6392   62.5657 C   0  0  0  0  0  0  0  0  0  0  0  0
   32.3611   77.4003   62.0371 C   0  0  0  0  0  0  0  0  0  0  0  0
   39.2802   81.8805   62.6978 H   0  0  0  0  0  0  0  0  0  0  0  0
   37.9037   82.6886   62.0473 H   0  0  0  0  0  0  0  0  0  0  0  0
   35.2601   79.4735   60.3375 H   0  0  0  0  0  0  0  0  0  0  0  0
   32.0035   74.6846   63.7234 H   0  0  0  0  0  0  0  0  0  0  0  0
   31.7338   79.0332   60.4160 H   0  0  0  0  0  0  0  0  0  0  0  0
   32.4434   80.2606   61.2263 H   0  0  0  0  0  0  0  0  0  0  0  0
   33.2775   79.4478   60.0816 H   0  0  0  0  0  0  0  0  0  0  0  0
   30.0595   75.1763   61.9958 H   0  0  0  0  0  0  0  0  0  0  0  0
   30.5261   77.2927   60.8048 H   0  0  0  0  0  0  0  0  0  0  0  0
   34.2851   75.9845   64.4679 H   0  0  0  0  0  0  0  0  0  0  0  0
   35.5468   77.8707   63.9927 H   0  0  0  0  0  0  0  0  0  0  0  0
   35.1508   80.4493   64.2368 H   0  0  0  0  0  0  0  0  0  0  0  0
   36.4192   82.3375   63.6557 H   0  0  0  0  0  0  0  0  0  0  0  0
  1 12  1  0  0  0  0
  2 12  2  0  0  0  0
  3 13  1  0  0  0  0
  4 14  1  0  0  0  0
  5  7  1  0  0  0  0
  5 15  1  0  0  0  0
  6 16  1  0  0  0  0
  7  8  2  0  0  0  0
  8 18  1  0  0  0  0
  9 10  2  0  0  0  0
  9 15  1  0  0  0  0
 10 17  1  0  0  0  0
 11 13  1  0  0  0  0
 11 14  2  0  0  0  0
 12 13  1  0  0  0  0
 14 17  1  0  0  0  0
 15 18  2  0  0  0  0
 16 17  2  0  0  0  0
 16 18  1  0  0  0  0
  1 19  1  0  0  0  0
  3 20  1  0  0  0  0
  4 21  1  0  0  0  0
  5 22  1  0  0  0  0
  6 23  1  0  0  0  0
  6 24  1  0  0  0  0
  6 25  1  0  0  0  0
  7 26  1  0  0  0  0
  8 27  1  0  0  0  0
  9 28  1  0  0  0  0
 10 29  1  0  0  0  0
 11 30  1  0  0  0  0
 13 31  1  0  0  0  0
M  END
> <pdb_id>
5ECV

> <uniprot_id>
P9WK17

> <usmiles>
O=C(O)[C@@H](O)/C=C(\O)/c1c(c2c(NC=C2)cc1)C

$$$$
5M5_A_501
          07202416463D 1   1.00000     0.00000     0
            
 56 59  0  0  0  0            999 V2000
   79.1036   46.5440   52.0825 O   0  0  0  0  0  0  0  0  0  0  0  0
   84.6287   51.6862   56.9855 O   0  0  0  0  0  0  0  0  0  0  0  0
   83.2660   47.1037   56.6036 N   0  0  0  0  0  0  0  0  0  0  0  0
   85.3139   49.6733   57.9660 N   0  0  0  0  0  0  0  0  0  0  0  0
   84.2805   53.5737   55.3836 N   0  0  0  0  0  0  0  0  0  0  0  0
   83.3123   53.7815   54.4270 N   0  0  0  0  0  0  0  0  0  0  0  0
   81.2777   52.8061   53.3992 C   0  0  0  0  0  0  0  0  0  0  0  0
   79.7312   51.4306   56.0982 C   0  0  0  0  0  0  0  0  0  0  0  0
   81.2067   51.0932   58.0417 C   0  0  0  0  0  0  0  0  0  0  0  0
   79.2498   47.0737   53.3659 C   0  0  0  0  0  0  0  0  0  0  0  0
   83.2502   48.2296   56.6062 C   0  0  0  0  0  0  0  0  0  0  0  0
   85.3707   48.4369   49.0949 C   0  0  0  0  0  0  0  0  0  0  0  0
   84.0845   48.3129   48.8549 C   0  0  0  0  0  0  0  0  0  0  0  0
   85.8627   48.6892   50.5193 C   0  0  0  0  0  0  0  0  0  0  0  0
   83.0763   48.4332   49.9940 C   0  0  0  0  0  0  0  0  0  0  0  0
   84.9922   48.7916   51.5031 C   0  0  0  0  0  0  0  0  0  0  0  0
   81.3924   47.9462   52.3463 C   0  0  0  0  0  0  0  0  0  0  0  0
   80.7394   48.7715   54.4885 C   0  0  0  0  0  0  0  0  0  0  0  0
   82.7544   49.5807   53.4764 C   0  0  0  0  0  0  0  0  0  0  0  0
   84.2320   50.4860   57.3983 C   0  0  2  0  0  0  0  0  0  0  0  0
   83.9581   52.3165   55.9878 C   0  0  0  0  0  0  0  0  0  0  0  0
   82.4461   52.7921   54.3943 C   0  0  0  0  0  0  0  0  0  0  0  0
   80.5019   47.9545   53.4016 C   0  0  0  0  0  0  0  0  0  0  0  0
   80.8833   50.5723   56.6455 C   0  0  0  0  0  0  0  0  0  0  0  0
   83.4935   48.6812   51.2157 C   0  0  0  0  0  0  0  0  0  0  0  0
   82.5122   48.7624   52.3823 C   0  0  0  0  0  0  0  0  0  0  0  0
   81.8540   49.6006   54.5366 C   0  0  0  0  0  0  0  0  0  0  0  0
   83.2457   49.7462   56.5379 C   0  0  0  0  0  0  0  0  0  0  0  0
   82.7197   51.8555   55.2921 C   0  0  0  0  0  0  0  0  0  0  0  0
   82.1250   50.4729   55.7355 C   0  0  2  0  0  0  0  0  0  0  0  0
   78.2873   45.9671   52.0510 H   0  0  0  0  0  0  0  0  0  0  0  0
   83.4693   46.6085   55.7590 H   0  0  0  0  0  0  0  0  0  0  0  0
   84.9494   48.7882   58.2551 H   0  0  0  0  0  0  0  0  0  0  0  0
   86.0227   49.5323   57.2749 H   0  0  0  0  0  0  0  0  0  0  0  0
   83.2725   54.5841   53.8318 H   0  0  0  0  0  0  0  0  0  0  0  0
   80.7281   51.9792   53.5188 H   0  0  0  0  0  0  0  0  0  0  0  0
   80.7085   53.6114   53.5648 H   0  0  0  0  0  0  0  0  0  0  0  0
   81.6351   52.8367   52.4658 H   0  0  0  0  0  0  0  0  0  0  0  0
   79.4896   51.1178   55.1796 H   0  0  0  0  0  0  0  0  0  0  0  0
   78.9367   51.3445   56.6993 H   0  0  0  0  0  0  0  0  0  0  0  0
   80.0178   52.3879   56.0596 H   0  0  0  0  0  0  0  0  0  0  0  0
   81.9551   50.5573   58.4324 H   0  0  0  0  0  0  0  0  0  0  0  0
   81.4791   52.0537   57.9843 H   0  0  0  0  0  0  0  0  0  0  0  0
   80.3980   51.0103   58.6240 H   0  0  0  0  0  0  0  0  0  0  0  0
   79.3444   46.3295   54.0271 H   0  0  0  0  0  0  0  0  0  0  0  0
   78.4465   47.6234   53.5954 H   0  0  0  0  0  0  0  0  0  0  0  0
   86.0280   48.3661   48.3446 H   0  0  0  0  0  0  0  0  0  0  0  0
   83.7657   48.1392   47.9232 H   0  0  0  0  0  0  0  0  0  0  0  0
   86.8415   48.7763   50.7042 H   0  0  0  0  0  0  0  0  0  0  0  0
   82.0992   48.3235   49.8114 H   0  0  0  0  0  0  0  0  0  0  0  0
   85.3115   48.9417   52.4388 H   0  0  0  0  0  0  0  0  0  0  0  0
   81.2298   47.3529   51.5579 H   0  0  0  0  0  0  0  0  0  0  0  0
   80.0977   48.7668   55.2554 H   0  0  0  0  0  0  0  0  0  0  0  0
   83.5732   50.1541   53.5027 H   0  0  0  0  0  0  0  0  0  0  0  0
   83.6858   50.7081   58.2060 H   0  0  0  0  0  0  0  0  0  0  0  0
   80.5281   49.6441   56.7559 H   0  0  0  0  0  0  0  0  0  0  0  0
  1 10  1  0  0  0  0
  2 20  1  0  0  0  0
  2 21  1  0  0  0  0
  3 11  2  0  0  0  0
  4 20  1  0  0  0  0
  5  6  1  0  0  0  0
  5 21  2  0  0  0  0
  6 22  1  0  0  0  0
  7 22  1  0  0  0  0
  8 24  1  0  0  0  0
  9 24  1  0  0  0  0
 10 23  1  0  0  0  0
 11 28  2  0  0  0  0
 12 13  2  0  0  0  0
 12 14  1  0  0  0  0
 13 15  1  0  0  0  0
 14 16  2  0  0  0  0
 15 25  2  0  0  0  0
 16 25  1  0  0  0  0
 17 23  2  0  0  0  0
 17 26  1  0  0  0  0
 18 23  1  0  0  0  0
 18 27  2  0  0  0  0
 19 26  2  0  0  0  0
 19 27  1  0  0  0  0
 20 28  1  0  0  0  0
 21 29  1  0  0  0  0
 22 29  2  0  0  0  0
 24 30  1  0  0  0  0
 25 26  1  0  0  0  0
 27 30  1  0  0  0  0
 28 30  1  0  0  0  0
 29 30  1  0  0  0  0
  1 31  1  0  0  0  0
  3 32  1  0  0  0  0
  4 33  1  0  0  0  0
  4 34  1  0  0  0  0
  6 35  1  0  0  0  0
  7 36  1  0  0  0  0
  7 37  1  0  0  0  0
  7 38  1  0  0  0  0
  8 39  1  0  0  0  0
  8 40  1  0  0  0  0
  8 41  1  0  0  0  0
  9 42  1  0  0  0  0
  9 43  1  0  0  0  0
  9 44  1  0  0  0  0
 10 45  1  0  0  0  0
 10 46  1  0  0  0  0
 12 47  1  0  0  0  0
 13 48  1  0  0  0  0
 14 49  1  0  0  0  0
 15 50  1  0  0  0  0
 16 51  1  0  0  0  0
 17 52  1  0  0  0  0
 18 53  1  0  0  0  0
 19 54  1  0  0  0  0
 20 55  1  0  0  0  0
 24 56  1  0  0  0  0
M  END
> <pdb_id>
7X5N

> <uniprot_id>
nan

> <usmiles>
O1C2=NNC(=C2[C@@](c3cc(c4ccccc4)cc(c3)CO)(C(=C=N)[C@H]1N)C(C)C)C

$$$$
5M5_B_501
          07202416463D 1   1.00000     0.00000     0
            
 54 57  0  0  0  0            999 V2000
   79.1600   46.2420   52.4090 O   0  0  0  0  0  0  0  0  0  0  0  0
   84.6690   51.6270   57.0610 O   0  0  0  0  0  0  0  0  0  0  0  0
   83.1710   47.0370   56.6510 N   0  0  0  0  0  0  0  0  0  0  0  0
   85.2690   49.6390   58.1180 N   0  0  0  0  0  0  0  0  0  0  0  0
   84.3050   53.5770   55.5370 N   0  0  0  0  0  0  0  0  0  0  0  0
   83.3200   53.8290   54.6050 N   0  0  0  0  0  0  0  0  0  0  0  0
   81.3040   52.8770   53.5400 C   0  0  0  0  0  0  0  0  0  0  0  0
   79.7880   51.3280   56.2160 C   0  0  0  0  0  0  0  0  0  0  0  0
   81.4280   51.1850   58.0810 C   0  0  0  0  0  0  0  0  0  0  0  0
   79.1920   47.2040   53.4100 C   0  0  0  0  0  0  0  0  0  0  0  0
   83.2490   48.1570   56.5780 C   0  0  0  0  0  0  0  0  0  0  0  0
   85.4350   48.8720   49.1210 C   0  0  0  0  0  0  0  0  0  0  0  0
   84.1580   48.7050   48.8540 C   0  0  0  0  0  0  0  0  0  0  0  0
   85.8870   49.0500   50.5630 C   0  0  0  0  0  0  0  0  0  0  0  0
   83.1230   48.6930   49.9780 C   0  0  0  0  0  0  0  0  0  0  0  0
   84.9910   49.0440   51.5260 C   0  0  0  0  0  0  0  0  0  0  0  0
   81.3730   48.0300   52.3140 C   0  0  0  0  0  0  0  0  0  0  0  0
   80.7710   48.7990   54.4980 C   0  0  0  0  0  0  0  0  0  0  0  0
   82.7800   49.6070   53.4910 C   0  0  0  0  0  0  0  0  0  0  0  0
   84.5300   50.3210   57.0770 C   0  0  0  0  0  0  0  0  0  0  0  0
   84.0040   52.3040   56.1020 C   0  0  0  0  0  0  0  0  0  0  0  0
   82.4720   52.8270   54.5360 C   0  0  0  0  0  0  0  0  0  0  0  0
   80.4890   48.0250   53.3870 C   0  0  0  0  0  0  0  0  0  0  0  0
   81.0010   50.5480   56.7490 C   0  0  0  0  0  0  0  0  0  0  0  0
   83.5130   48.8530   51.2170 C   0  0  0  0  0  0  0  0  0  0  0  0
   82.5090   48.8320   52.3710 C   0  0  0  0  0  0  0  0  0  0  0  0
   81.8990   49.6070   54.5610 C   0  0  0  0  0  0  0  0  0  0  0  0
   83.3070   49.6750   56.5660 C   0  0  0  0  0  0  0  0  0  0  0  0
   82.7710   51.8530   55.3870 C   0  0  0  0  0  0  0  0  0  0  0  0
   82.2080   50.4420   55.7830 C   0  0  2  0  0  0  0  0  0  0  0  0
   78.3004   45.7338   52.4624 H   0  0  0  0  0  0  0  0  0  0  0  0
   85.2166   48.6436   58.1983 H   0  0  0  0  0  0  0  0  0  0  0  0
   85.8320   50.1632   58.7569 H   0  0  0  0  0  0  0  0  0  0  0  0
   83.2591   54.6622   54.0555 H   0  0  0  0  0  0  0  0  0  0  0  0
   80.7620   52.0404   53.6195 H   0  0  0  0  0  0  0  0  0  0  0  0
   80.7271   53.6684   53.7423 H   0  0  0  0  0  0  0  0  0  0  0  0
   81.6624   52.9548   52.6097 H   0  0  0  0  0  0  0  0  0  0  0  0
   79.4916   50.9306   55.3476 H   0  0  0  0  0  0  0  0  0  0  0  0
   79.0409   51.2760   56.8787 H   0  0  0  0  0  0  0  0  0  0  0  0
   80.0426   52.2847   56.0751 H   0  0  0  0  0  0  0  0  0  0  0  0
   82.2176   50.6931   58.4478 H   0  0  0  0  0  0  0  0  0  0  0  0
   81.6730   52.1426   57.9292 H   0  0  0  0  0  0  0  0  0  0  0  0
   80.6712   51.1338   58.7327 H   0  0  0  0  0  0  0  0  0  0  0  0
   79.1155   46.7482   54.2968 H   0  0  0  0  0  0  0  0  0  0  0  0
   78.4169   47.8235   53.2857 H   0  0  0  0  0  0  0  0  0  0  0  0
   86.1059   48.8819   48.3796 H   0  0  0  0  0  0  0  0  0  0  0  0
   83.8617   48.5848   47.9065 H   0  0  0  0  0  0  0  0  0  0  0  0
   86.8565   49.1705   50.7766 H   0  0  0  0  0  0  0  0  0  0  0  0
   82.1538   48.5637   49.7682 H   0  0  0  0  0  0  0  0  0  0  0  0
   85.2849   49.1666   52.4739 H   0  0  0  0  0  0  0  0  0  0  0  0
   81.1945   47.4633   51.5097 H   0  0  0  0  0  0  0  0  0  0  0  0
   80.1453   48.7763   55.2777 H   0  0  0  0  0  0  0  0  0  0  0  0
   83.6096   50.1643   53.5255 H   0  0  0  0  0  0  0  0  0  0  0  0
   80.6942   49.6171   56.9475 H   0  0  0  0  0  0  0  0  0  0  0  0
  1 10  1  0  0  0  0
  2 20  1  0  0  0  0
  2 21  1  0  0  0  0
  3 11  3  0  0  0  0
  4 20  1  0  0  0  0
  5  6  1  0  0  0  0
  5 21  2  0  0  0  0
  6 22  1  0  0  0  0
  7 22  1  0  0  0  0
  8 24  1  0  0  0  0
  9 24  1  0  0  0  0
 10 23  1  0  0  0  0
 11 28  1  0  0  0  0
 12 13  2  0  0  0  0
 12 14  1  0  0  0  0
 13 15  1  0  0  0  0
 14 16  2  0  0  0  0
 15 25  2  0  0  0  0
 16 25  1  0  0  0  0
 17 23  2  0  0  0  0
 17 26  1  0  0  0  0
 18 23  1  0  0  0  0
 18 27  2  0  0  0  0
 19 26  2  0  0  0  0
 19 27  1  0  0  0  0
 20 28  2  0  0  0  0
 21 29  1  0  0  0  0
 22 29  2  0  0  0  0
 24 30  1  0  0  0  0
 25 26  1  0  0  0  0
 27 30  1  0  0  0  0
 28 30  1  0  0  0  0
 29 30  1  0  0  0  0
  1 31  1  0  0  0  0
  4 32  1  0  0  0  0
  4 33  1  0  0  0  0
  6 34  1  0  0  0  0
  7 35  1  0  0  0  0
  7 36  1  0  0  0  0
  7 37  1  0  0  0  0
  8 38  1  0  0  0  0
  8 39  1  0  0  0  0
  8 40  1  0  0  0  0
  9 41  1  0  0  0  0
  9 42  1  0  0  0  0
  9 43  1  0  0  0  0
 10 44  1  0  0  0  0
 10 45  1  0  0  0  0
 12 46  1  0  0  0  0
 13 47  1  0  0  0  0
 14 48  1  0  0  0  0
 15 49  1  0  0  0  0
 16 50  1  0  0  0  0
 17 51  1  0  0  0  0
 18 52  1  0  0  0  0
 19 53  1  0  0  0  0
 24 54  1  0  0  0  0
M  END
> <pdb_id>
7X5N

> <uniprot_id>
nan

> <usmiles>
O1C2=NNC(=C2[C@@](c3cc(c4ccccc4)cc(c3)CO)(C(C#N)=C1N)C(C)C)C

$$$$
5M8_A_201
          07202409203D 1   1.00000     0.00000     0
            
 33 35  0  0  0  0            999 V2000
    3.1067    6.0273   24.5722 Cl  0  0  0  0  0  0  0  0  0  0  0  0
    4.0774    7.8511   16.4244 O   0  0  0  0  0  0  0  0  0  0  0  0
    4.7898    5.7646   16.6554 O   0  0  0  0  0  0  0  0  0  0  0  0
    6.4916    7.9994   20.2553 N   0  0  0  0  0  0  0  0  0  0  0  0
    7.0418    8.3446   17.8230 C   0  0  0  0  0  0  0  0  0  0  0  0
    0.4857    4.5478   18.5543 C   0  0  0  0  0  0  0  0  0  0  0  0
    1.5862    3.8840   19.0701 C   0  0  0  0  0  0  0  0  0  0  0  0
    0.5351    5.9346   18.3774 C   0  0  0  0  0  0  0  0  0  0  0  0
    5.2424    7.2806   23.6412 C   0  0  0  0  0  0  0  0  0  0  0  0
    6.0085    7.7103   22.6327 C   0  0  0  0  0  0  0  0  0  0  0  0
    2.7567    4.5884   19.3324 C   0  0  0  0  0  0  0  0  0  0  0  0
    1.6891    6.6548   18.7064 C   0  0  0  0  0  0  0  0  0  0  0  0
    3.6616    6.4274   21.9840 C   0  0  0  0  0  0  0  0  0  0  0  0
    4.6004    7.0061   17.1397 C   0  0  0  0  0  0  0  0  0  0  0  0
    4.0476    6.6088   23.3115 C   0  0  0  0  0  0  0  0  0  0  0  0
    6.1709    7.8402   18.9518 C   0  0  0  0  0  0  0  0  0  0  0  0
    5.6758    7.5389   21.2770 C   0  0  0  0  0  0  0  0  0  0  0  0
    2.8551    5.9961   19.1923 C   0  0  0  0  0  0  0  0  0  0  0  0
    4.4506    6.8635   20.9148 C   0  0  0  0  0  0  0  0  0  0  0  0
    4.9625    7.1501   18.5549 C   0  0  0  0  0  0  0  0  0  0  0  0
    4.1242    6.6921   19.5412 C   0  0  0  0  0  0  0  0  0  0  0  0
    3.9304    8.7777   16.7707 H   0  0  0  0  0  0  0  0  0  0  0  0
    6.6154    8.1196   16.9469 H   0  0  0  0  0  0  0  0  0  0  0  0
    7.1445    9.3364   17.8988 H   0  0  0  0  0  0  0  0  0  0  0  0
    7.9414    7.9112   17.8768 H   0  0  0  0  0  0  0  0  0  0  0  0
   -0.3395    4.0387   18.3097 H   0  0  0  0  0  0  0  0  0  0  0  0
    1.5396    2.9021   19.2533 H   0  0  0  0  0  0  0  0  0  0  0  0
   -0.2618    6.4160   18.0124 H   0  0  0  0  0  0  0  0  0  0  0  0
    5.5073    7.4302   24.5938 H   0  0  0  0  0  0  0  0  0  0  0  0
    6.8637    8.1788   22.8544 H   0  0  0  0  0  0  0  0  0  0  0  0
    3.5637    4.0800   19.6327 H   0  0  0  0  0  0  0  0  0  0  0  0
    1.6954    7.6489   18.5985 H   0  0  0  0  0  0  0  0  0  0  0  0
    2.7931    5.9711   21.7902 H   0  0  0  0  0  0  0  0  0  0  0  0
  1 15  1  0  0  0  0
  2 14  1  0  0  0  0
  3 14  2  0  0  0  0
  4 16  2  0  0  0  0
  4 17  1  0  0  0  0
  5 16  1  0  0  0  0
  6  7  2  0  0  0  0
  6  8  1  0  0  0  0
  7 11  1  0  0  0  0
  8 12  2  0  0  0  0
  9 10  1  0  0  0  0
  9 15  2  0  0  0  0
 10 17  2  0  0  0  0
 11 18  2  0  0  0  0
 12 18  1  0  0  0  0
 13 15  1  0  0  0  0
 13 19  2  0  0  0  0
 14 20  1  0  0  0  0
 16 20  1  0  0  0  0
 17 19  1  0  0  0  0
 18 21  1  0  0  0  0
 19 21  1  0  0  0  0
 20 21  2  0  0  0  0
  2 22  1  0  0  0  0
  5 23  1  0  0  0  0
  5 24  1  0  0  0  0
  5 25  1  0  0  0  0
  6 26  1  0  0  0  0
  7 27  1  0  0  0  0
  8 28  1  0  0  0  0
  9 29  1  0  0  0  0
 10 30  1  0  0  0  0
 11 31  1  0  0  0  0
 12 32  1  0  0  0  0
 13 33  1  0  0  0  0
M  END
> <pdb_id>
5EDB

> <uniprot_id>
P15090

> <usmiles>
Clc1cc2c(nc(c(c2c3ccccc3)C(=O)O)C)cc1

$$$$
5M8_F_204
          07202405553D 1   1.00000     0.00000     0
            
 33 35  0  0  0  0            999 V2000
   10.2860   34.0520  -11.5740 Cl  0  0  0  0  0  0  0  0  0  0  0  0
   12.7800   29.8480  -18.4390 O   0  0  0  0  0  0  0  0  0  0  0  0
   11.3180   28.4370  -17.5880 O   0  0  0  0  0  0  0  0  0  0  0  0
   13.6640   29.8070  -13.9840 N   0  0  0  0  0  0  0  0  0  0  0  0
   14.2970   28.3400  -15.8640 C   0  0  0  0  0  0  0  0  0  0  0  0
    8.3740   32.5190  -17.8980 C   0  0  0  0  0  0  0  0  0  0  0  0
    8.1140   31.5320  -16.9480 C   0  0  0  0  0  0  0  0  0  0  0  0
    9.6780   32.9840  -18.0830 C   0  0  0  0  0  0  0  0  0  0  0  0
   12.2880   32.2380  -11.5690 C   0  0  0  0  0  0  0  0  0  0  0  0
   13.0740   31.2560  -12.1250 C   0  0  0  0  0  0  0  0  0  0  0  0
    9.1600   31.0110  -16.1840 C   0  0  0  0  0  0  0  0  0  0  0  0
   10.7270   32.4700  -17.3240 C   0  0  0  0  0  0  0  0  0  0  0  0
   10.9700   32.3890  -13.5980 C   0  0  0  0  0  0  0  0  0  0  0  0
   12.2110   29.4400  -17.4160 C   0  0  0  0  0  0  0  0  0  0  0  0
   11.2250   32.8200  -12.3050 C   0  0  0  0  0  0  0  0  0  0  0  0
   13.4420   29.3990  -15.2290 C   0  0  0  0  0  0  0  0  0  0  0  0
   12.8380   30.7860  -13.4600 C   0  0  0  0  0  0  0  0  0  0  0  0
   10.4650   31.4860  -16.3550 C   0  0  0  0  0  0  0  0  0  0  0  0
   11.7620   31.3730  -14.1960 C   0  0  0  0  0  0  0  0  0  0  0  0
   12.3710   29.9360  -16.0370 C   0  0  0  0  0  0  0  0  0  0  0  0
   11.5520   30.9250  -15.5390 C   0  0  0  0  0  0  0  0  0  0  0  0
   13.4505   30.5873  -18.3771 H   0  0  0  0  0  0  0  0  0  0  0  0
   13.9781   28.1687  -16.7962 H   0  0  0  0  0  0  0  0  0  0  0  0
   15.2476   28.6494  -15.8885 H   0  0  0  0  0  0  0  0  0  0  0  0
   14.2346   27.4967  -15.3301 H   0  0  0  0  0  0  0  0  0  0  0  0
    7.6269   32.8939  -18.4468 H   0  0  0  0  0  0  0  0  0  0  0  0
    7.1809   31.1982  -16.8143 H   0  0  0  0  0  0  0  0  0  0  0  0
    9.8601   33.6916  -18.7658 H   0  0  0  0  0  0  0  0  0  0  0  0
   12.4683   32.5452  -10.6346 H   0  0  0  0  0  0  0  0  0  0  0  0
   13.8221   30.8631  -11.5902 H   0  0  0  0  0  0  0  0  0  0  0  0
    8.9756   30.2946  -15.5111 H   0  0  0  0  0  0  0  0  0  0  0  0
   11.6604   32.7989  -17.4676 H   0  0  0  0  0  0  0  0  0  0  0  0
   10.2191   32.7987  -14.1159 H   0  0  0  0  0  0  0  0  0  0  0  0
  1 15  1  0  0  0  0
  2 14  1  0  0  0  0
  3 14  2  0  0  0  0
  4 16  2  0  0  0  0
  4 17  1  0  0  0  0
  5 16  1  0  0  0  0
  6  7  2  0  0  0  0
  6  8  1  0  0  0  0
  7 11  1  0  0  0  0
  8 12  2  0  0  0  0
  9 10  1  0  0  0  0
  9 15  2  0  0  0  0
 10 17  2  0  0  0  0
 11 18  2  0  0  0  0
 12 18  1  0  0  0  0
 13 15  1  0  0  0  0
 13 19  2  0  0  0  0
 14 20  1  0  0  0  0
 16 20  1  0  0  0  0
 17 19  1  0  0  0  0
 18 21  1  0  0  0  0
 19 21  1  0  0  0  0
 20 21  2  0  0  0  0
  2 22  1  0  0  0  0
  5 23  1  0  0  0  0
  5 24  1  0  0  0  0
  5 25  1  0  0  0  0
  6 26  1  0  0  0  0
  7 27  1  0  0  0  0
  8 28  1  0  0  0  0
  9 29  1  0  0  0  0
 10 30  1  0  0  0  0
 11 31  1  0  0  0  0
 12 32  1  0  0  0  0
 13 33  1  0  0  0  0
M  END
> <pdb_id>
5HZ9

> <uniprot_id>
P05413

> <usmiles>
Clc1cc2c(nc(c(c2c3ccccc3)C(=O)O)C)cc1

$$$$
5MF_B_803
          07192416573D 1   1.00000     0.00000     0
            
 49 52  0  0  0  0            999 V2000
   22.5025   -5.6647   24.6389 N   0  0  0  0  0  0  0  0  0  0  0  0
   19.7541   -3.5452   19.0200 N   0  0  0  0  0  0  0  0  0  0  0  0
   17.2186   -2.7232   16.6033 N   0  0  0  0  0  0  0  0  0  0  0  0
   22.9770   -4.7163   22.6105 N   0  0  0  0  0  0  0  0  0  0  0  0
   18.3613   -2.4214   20.4492 N   0  0  0  0  0  0  0  0  0  0  0  0
   21.3696   -5.6320   23.8992 N   0  0  0  0  0  0  0  0  0  0  0  0
   18.6603   -3.1035   18.3691 N   0  0  0  0  0  0  0  0  0  0  0  0
   24.7688   -4.9274   24.2373 N   0  0  0  0  0  0  0  0  0  0  0  0
   20.0684   -6.1437   24.4643 C   0  0  0  0  0  0  0  0  0  0  0  0
   15.4946   -1.4997   21.0584 C   0  0  0  0  0  0  0  0  0  0  0  0
   19.2547   -3.9817   16.0815 C   0  0  0  0  0  0  0  0  0  0  0  0
   25.8624   -4.6399   23.2928 C   0  0  0  0  0  0  0  0  0  0  0  0
   25.2110   -5.6208   25.4331 C   0  0  0  0  0  0  0  0  0  0  0  0
   16.3775   -2.0307   17.4480 C   0  0  0  0  0  0  0  0  0  0  0  0
   27.1249   -4.8006   24.1316 C   0  0  0  0  0  0  0  0  0  0  0  0
   26.7166   -5.2953   25.5222 C   0  0  0  0  0  0  0  0  0  0  0  0
   15.5847   -1.0628   19.6021 C   0  0  0  0  0  0  0  0  0  0  0  0
   20.4868   -3.3602   21.3913 C   0  0  0  0  0  0  0  0  0  0  0  0
   20.6233   -4.8610   21.5749 C   0  0  0  0  0  0  0  0  0  0  0  0
   23.4640   -5.1162   23.8293 C   0  0  0  0  0  0  0  0  0  0  0  0
   19.5508   -3.1105   20.2735 C   0  0  0  0  0  0  0  0  0  0  0  0
   18.3368   -3.2508   17.0252 C   0  0  0  0  0  0  0  0  0  0  0  0
   21.6386   -5.0545   22.6709 C   0  0  0  0  0  0  0  0  0  0  0  0
   17.7882   -2.3958   19.2701 C   0  0  0  0  0  0  0  0  0  0  0  0
   16.5772   -1.8522   18.7801 C   0  0  0  0  0  0  0  0  0  0  0  0
   19.3451   -6.0409   23.7814 H   0  0  0  0  0  0  0  0  0  0  0  0
   20.1659   -7.1096   24.7038 H   0  0  0  0  0  0  0  0  0  0  0  0
   19.8312   -5.6197   25.2823 H   0  0  0  0  0  0  0  0  0  0  0  0
   14.8214   -0.9345   21.5350 H   0  0  0  0  0  0  0  0  0  0  0  0
   15.2152   -2.4589   21.1019 H   0  0  0  0  0  0  0  0  0  0  0  0
   16.3882   -1.3927   21.4943 H   0  0  0  0  0  0  0  0  0  0  0  0
   20.0539   -4.3126   16.5832 H   0  0  0  0  0  0  0  0  0  0  0  0
   18.7693   -4.7577   15.6785 H   0  0  0  0  0  0  0  0  0  0  0  0
   19.5503   -3.3603   15.3559 H   0  0  0  0  0  0  0  0  0  0  0  0
   25.7886   -3.7086   22.9361 H   0  0  0  0  0  0  0  0  0  0  0  0
   25.8556   -5.2895   22.5325 H   0  0  0  0  0  0  0  0  0  0  0  0
   25.0655   -6.6063   25.3462 H   0  0  0  0  0  0  0  0  0  0  0  0
   24.7263   -5.2821   26.2395 H   0  0  0  0  0  0  0  0  0  0  0  0
   15.5544   -1.6274   17.0483 H   0  0  0  0  0  0  0  0  0  0  0  0
   27.5936   -3.9207   24.2096 H   0  0  0  0  0  0  0  0  0  0  0  0
   27.7348   -5.4661   23.7012 H   0  0  0  0  0  0  0  0  0  0  0  0
   27.2354   -6.1148   25.7656 H   0  0  0  0  0  0  0  0  0  0  0  0
   26.8783   -4.5833   26.2056 H   0  0  0  0  0  0  0  0  0  0  0  0
   15.8538   -0.0999   19.5794 H   0  0  0  0  0  0  0  0  0  0  0  0
   14.6808   -1.1661   19.1869 H   0  0  0  0  0  0  0  0  0  0  0  0
   21.3798   -2.9632   21.1793 H   0  0  0  0  0  0  0  0  0  0  0  0
   20.1295   -2.9485   22.2296 H   0  0  0  0  0  0  0  0  0  0  0  0
   20.9409   -5.2872   20.7278 H   0  0  0  0  0  0  0  0  0  0  0  0
   19.7455   -5.2599   21.8400 H   0  0  0  0  0  0  0  0  0  0  0  0
  1  6  1  0  0  0  0
  1 20  2  0  0  0  0
  2  7  1  0  0  0  0
  2 21  2  0  0  0  0
  3 14  1  0  0  0  0
  3 22  2  0  0  0  0
  4 20  1  0  0  0  0
  4 23  2  0  0  0  0
  5 21  1  0  0  0  0
  5 24  2  0  0  0  0
  6  9  1  0  0  0  0
  6 23  1  0  0  0  0
  7 22  1  0  0  0  0
  7 24  1  0  0  0  0
  8 12  1  0  0  0  0
  8 13  1  0  0  0  0
  8 20  1  0  0  0  0
 10 17  1  0  0  0  0
 11 22  1  0  0  0  0
 12 15  1  0  0  0  0
 13 16  1  0  0  0  0
 14 25  2  0  0  0  0
 15 16  1  0  0  0  0
 17 25  1  0  0  0  0
 18 19  1  0  0  0  0
 18 21  1  0  0  0  0
 19 23  1  0  0  0  0
 24 25  1  0  0  0  0
  9 26  1  0  0  0  0
  9 27  1  0  0  0  0
  9 28  1  0  0  0  0
 10 29  1  0  0  0  0
 10 30  1  0  0  0  0
 10 31  1  0  0  0  0
 11 32  1  0  0  0  0
 11 33  1  0  0  0  0
 11 34  1  0  0  0  0
 12 35  1  0  0  0  0
 12 36  1  0  0  0  0
 13 37  1  0  0  0  0
 13 38  1  0  0  0  0
 14 39  1  0  0  0  0
 15 40  1  0  0  0  0
 15 41  1  0  0  0  0
 16 42  1  0  0  0  0
 16 43  1  0  0  0  0
 17 44  1  0  0  0  0
 17 45  1  0  0  0  0
 18 46  1  0  0  0  0
 18 47  1  0  0  0  0
 19 48  1  0  0  0  0
 19 49  1  0  0  0  0
M  END
> <pdb_id>
5EDH

> <uniprot_id>
Q9Y233

> <usmiles>
N=1N2C(=NC1CCC3=NC(=NN3C)N4CCCC4)C(=CN=C2C)CC

$$$$
5MI_A_1351
          07202413533D 1   1.00000     0.00000     0
            
 19 20  0  0  0  0            999 V2000
   19.0741    7.9468   -1.6583 N   0  0  0  0  0  0  0  0  0  0  0  0
   23.3156    5.0435   -3.8964 C   0  0  0  0  0  0  0  0  0  0  0  0
   18.4399    6.9374   -1.0606 C   0  0  0  0  0  0  0  0  0  0  0  0
   21.1449    8.0447   -3.0345 C   0  0  0  0  0  0  0  0  0  0  0  0
   19.1040    5.8066   -1.2778 C   0  0  0  0  0  0  0  0  0  0  0  0
   22.1663    7.2625   -3.5609 C   0  0  0  0  0  0  0  0  0  0  0  0
   21.1874    5.3078   -2.5483 C   0  0  0  0  0  0  0  0  0  0  0  0
   20.1457    7.4539   -2.2694 C   0  0  0  0  0  0  0  0  0  0  0  0
   22.1873    5.8960   -3.3167 C   0  0  0  0  0  0  0  0  0  0  0  0
   20.1643    6.0930   -2.0244 C   0  0  0  0  0  0  0  0  0  0  0  0
   18.7925    8.9063   -1.6482 H   0  0  0  0  0  0  0  0  0  0  0  0
   23.1832    4.0890   -3.6292 H   0  0  0  0  0  0  0  0  0  0  0  0
   23.3084    5.1145   -4.8938 H   0  0  0  0  0  0  0  0  0  0  0  0
   24.1936    5.3692   -3.5454 H   0  0  0  0  0  0  0  0  0  0  0  0
   17.5955    7.0186   -0.5310 H   0  0  0  0  0  0  0  0  0  0  0  0
   21.1289    9.0298   -3.2056 H   0  0  0  0  0  0  0  0  0  0  0  0
   18.8501    4.9006   -0.9390 H   0  0  0  0  0  0  0  0  0  0  0  0
   22.8848    7.6834   -4.1147 H   0  0  0  0  0  0  0  0  0  0  0  0
   21.2036    4.3235   -2.3730 H   0  0  0  0  0  0  0  0  0  0  0  0
  1  3  1  0  0  0  0
  1  8  1  0  0  0  0
  2  9  1  0  0  0  0
  3  5  2  0  0  0  0
  4  6  1  0  0  0  0
  4  8  2  0  0  0  0
  5 10  1  0  0  0  0
  6  9  2  0  0  0  0
  7  9  1  0  0  0  0
  7 10  2  0  0  0  0
  8 10  1  0  0  0  0
  1 11  1  0  0  0  0
  2 12  1  0  0  0  0
  2 13  1  0  0  0  0
  2 14  1  0  0  0  0
  3 15  1  0  0  0  0
  4 16  1  0  0  0  0
  5 17  1  0  0  0  0
  6 18  1  0  0  0  0
  7 19  1  0  0  0  0
M  END
> <pdb_id>
4B3D

> <uniprot_id>
O74036

> <usmiles>
N1c2c(cc(cc2)C)C=C1

$$$$
5MJ_A_201
          07212401333D 1   1.00000     0.00000     0
            
 45 47  0  0  0  0            999 V2000
  -13.9815  -16.8257  -22.6035 Cl  0  0  0  0  0  0  0  0  0  0  0  0
  -11.0054  -17.2286  -17.0262 O   0  0  0  0  0  0  0  0  0  0  0  0
  -16.6838  -23.3640  -23.3663 O   0  0  0  0  0  0  0  0  0  0  0  0
   -8.1514  -11.6488  -15.3312 O   0  0  0  0  0  0  0  0  0  0  0  0
  -11.3355  -15.2770  -18.1743 N   0  0  0  0  0  0  0  0  0  0  0  0
  -15.1356  -19.3205  -21.4982 N   0  0  0  0  0  0  0  0  0  0  0  0
   -8.1857  -10.2753  -15.6555 C   0  0  0  0  0  0  0  0  0  0  0  0
  -17.4502  -20.5053  -23.0230 C   0  0  0  0  0  0  0  0  0  0  0  0
  -14.5615  -22.8956  -22.2356 C   0  0  0  0  0  0  0  0  0  0  0  0
   -9.8499  -12.1164  -16.9603 C   0  0  0  0  0  0  0  0  0  0  0  0
   -8.8266  -13.8774  -15.8458 C   0  0  0  0  0  0  0  0  0  0  0  0
  -10.6070  -13.0604  -17.6351 C   0  0  0  0  0  0  0  0  0  0  0  0
   -9.5846  -14.8687  -16.5145 C   0  0  0  0  0  0  0  0  0  0  0  0
  -14.1295  -21.6136  -21.5003 C   0  0  0  0  0  0  0  0  0  0  0  0
  -13.9097  -19.2199  -19.3754 C   0  0  0  0  0  0  0  0  0  0  0  0
  -13.0235  -18.5370  -18.5446 C   0  0  0  0  0  0  0  0  0  0  0  0
  -12.7019  -16.7821  -20.1936 C   0  0  0  0  0  0  0  0  0  0  0  0
  -11.5037  -16.5870  -17.9660 C   0  0  0  0  0  0  0  0  0  0  0  0
  -13.6901  -17.4762  -20.9765 C   0  0  0  0  0  0  0  0  0  0  0  0
  -15.8834  -22.5542  -22.8274 C   0  0  0  0  0  0  0  0  0  0  0  0
   -8.9422  -12.5441  -16.0451 C   0  0  0  0  0  0  0  0  0  0  0  0
  -10.5067  -14.4404  -17.4290 C   0  0  0  0  0  0  0  0  0  0  0  0
  -14.2192  -18.6853  -20.6287 C   0  0  0  0  0  0  0  0  0  0  0  0
  -15.1626  -20.6192  -21.8428 C   0  0  0  0  0  0  0  0  0  0  0  0
  -12.4597  -17.3014  -18.9041 C   0  0  0  0  0  0  0  0  0  0  0  0
  -16.1908  -21.1361  -22.5458 C   0  0  0  0  0  0  0  0  0  0  0  0
  -11.8469  -14.8631  -18.9275 H   0  0  0  0  0  0  0  0  0  0  0  0
  -15.8420  -18.7389  -21.9016 H   0  0  0  0  0  0  0  0  0  0  0  0
   -7.5645   -9.7748  -15.0526 H   0  0  0  0  0  0  0  0  0  0  0  0
   -7.9009  -10.1500  -16.6059 H   0  0  0  0  0  0  0  0  0  0  0  0
   -9.1161   -9.9282  -15.5378 H   0  0  0  0  0  0  0  0  0  0  0  0
  -17.4738  -19.5482  -22.7342 H   0  0  0  0  0  0  0  0  0  0  0  0
  -17.4897  -20.5534  -24.0211 H   0  0  0  0  0  0  0  0  0  0  0  0
  -18.2338  -20.9901  -22.6347 H   0  0  0  0  0  0  0  0  0  0  0  0
  -14.6468  -23.6591  -21.5955 H   0  0  0  0  0  0  0  0  0  0  0  0
  -13.9039  -23.1322  -22.9508 H   0  0  0  0  0  0  0  0  0  0  0  0
   -9.9692  -11.1405  -17.1433 H   0  0  0  0  0  0  0  0  0  0  0  0
   -8.1535  -14.1866  -15.1740 H   0  0  0  0  0  0  0  0  0  0  0  0
  -11.2669  -12.7346  -18.3122 H   0  0  0  0  0  0  0  0  0  0  0  0
   -9.4512  -15.8416  -16.3258 H   0  0  0  0  0  0  0  0  0  0  0  0
  -13.2304  -21.3113  -21.8172 H   0  0  0  0  0  0  0  0  0  0  0  0
  -14.1007  -21.7663  -20.5125 H   0  0  0  0  0  0  0  0  0  0  0  0
  -14.3193  -20.0823  -19.0782 H   0  0  0  0  0  0  0  0  0  0  0  0
  -12.7805  -18.9402  -17.6623 H   0  0  0  0  0  0  0  0  0  0  0  0
  -12.2164  -15.9804  -20.5423 H   0  0  0  0  0  0  0  0  0  0  0  0
  1 19  1  0  0  0  0
  2 18  2  0  0  0  0
  3 20  2  0  0  0  0
  4  7  1  0  0  0  0
  4 21  1  0  0  0  0
  5 18  1  0  0  0  0
  5 22  1  0  0  0  0
  6 23  1  0  0  0  0
  6 24  1  0  0  0  0
  8 26  1  0  0  0  0
  9 14  1  0  0  0  0
  9 20  1  0  0  0  0
 10 12  1  0  0  0  0
 10 21  2  0  0  0  0
 11 13  2  0  0  0  0
 11 21  1  0  0  0  0
 12 22  2  0  0  0  0
 13 22  1  0  0  0  0
 14 24  1  0  0  0  0
 15 16  1  0  0  0  0
 15 23  2  0  0  0  0
 16 25  2  0  0  0  0
 17 19  2  0  0  0  0
 17 25  1  0  0  0  0
 18 25  1  0  0  0  0
 19 23  1  0  0  0  0
 20 26  1  0  0  0  0
 24 26  2  0  0  0  0
  5 27  1  0  0  0  0
  6 28  1  0  0  0  0
  7 29  1  0  0  0  0
  7 30  1  0  0  0  0
  7 31  1  0  0  0  0
  8 32  1  0  0  0  0
  8 33  1  0  0  0  0
  8 34  1  0  0  0  0
  9 35  1  0  0  0  0
  9 36  1  0  0  0  0
 10 37  1  0  0  0  0
 11 38  1  0  0  0  0
 12 39  1  0  0  0  0
 13 40  1  0  0  0  0
 14 41  1  0  0  0  0
 14 42  1  0  0  0  0
 15 43  1  0  0  0  0
 16 44  1  0  0  0  0
 17 45  1  0  0  0  0
M  END
> <pdb_id>
5ULA

> <uniprot_id>
O60885

> <usmiles>
Clc1c(NC2=C(C(=O)CC2)C)ccc(c1)C(=O)Nc3ccc(OC)cc3

$$$$
5NR_A_402
          07192415303D 1   1.00000     0.00000     0
            
 38 39  0  0  0  0            999 V2000
   50.8865  -25.6835    7.2924 N   0  0  0  0  0  0  0  0  0  0  0  0
   49.5940  -25.7288   10.8453 N   0  0  0  0  0  0  0  0  0  0  0  0
   49.9547  -25.3842    8.3896 C   0  0  0  0  0  0  0  0  0  0  0  0
   50.5112  -25.9306    9.6834 C   0  0  0  0  0  0  0  0  0  0  0  0
   49.4678  -24.2923   11.1504 C   0  0  0  0  0  0  0  0  0  0  0  0
   48.2898  -26.3983   10.6392 C   0  0  0  0  0  0  0  0  0  0  0  0
   45.7002  -20.1436   12.5612 C   0  0  0  0  0  0  0  0  0  0  0  0
   46.2138  -20.4903   11.3083 C   0  0  0  0  0  0  0  0  0  0  0  0
   45.3341  -21.1308   13.4471 C   0  0  0  0  0  0  0  0  0  0  0  0
   48.4485  -23.9933   12.2247 C   0  0  0  0  0  0  0  0  0  0  0  0
   47.5192  -26.3702   11.9252 C   0  0  0  0  0  0  0  0  0  0  0  0
   46.3592  -21.8060   10.9235 C   0  0  0  0  0  0  0  0  0  0  0  0
   45.4969  -22.4637   13.0626 C   0  0  0  0  0  0  0  0  0  0  0  0
   46.1475  -24.2844   11.4402 C   0  0  0  0  0  0  0  0  0  0  0  0
   47.2113  -24.9026   12.3335 C   0  0  0  0  0  0  0  0  0  0  0  0
   45.9758  -22.8039   11.8097 C   0  0  0  0  0  0  0  0  0  0  0  0
   50.5192  -25.3223    6.4353 H   0  0  0  0  0  0  0  0  0  0  0  0
   51.7715  -25.2581    7.4813 H   0  0  0  0  0  0  0  0  0  0  0  0
   49.0696  -25.8097    8.2010 H   0  0  0  0  0  0  0  0  0  0  0  0
   49.8387  -24.3941    8.4680 H   0  0  0  0  0  0  0  0  0  0  0  0
   50.6729  -26.9110    9.5717 H   0  0  0  0  0  0  0  0  0  0  0  0
   51.3772  -25.4698    9.8774 H   0  0  0  0  0  0  0  0  0  0  0  0
   49.1974  -23.8136   10.3151 H   0  0  0  0  0  0  0  0  0  0  0  0
   50.3580  -23.9538   11.4553 H   0  0  0  0  0  0  0  0  0  0  0  0
   48.4400  -27.3464   10.3589 H   0  0  0  0  0  0  0  0  0  0  0  0
   47.7748  -25.9183    9.9290 H   0  0  0  0  0  0  0  0  0  0  0  0
   45.5991  -19.1811   12.8130 H   0  0  0  0  0  0  0  0  0  0  0  0
   46.4829  -19.7650   10.6746 H   0  0  0  0  0  0  0  0  0  0  0  0
   44.9602  -20.8993   14.3453 H   0  0  0  0  0  0  0  0  0  0  0  0
   48.1183  -23.0624   12.0681 H   0  0  0  0  0  0  0  0  0  0  0  0
   48.9241  -24.0348   13.1034 H   0  0  0  0  0  0  0  0  0  0  0  0
   48.0600  -26.8067   12.6441 H   0  0  0  0  0  0  0  0  0  0  0  0
   46.6597  -26.8673   11.8063 H   0  0  0  0  0  0  0  0  0  0  0  0
   46.7329  -22.0369   10.0251 H   0  0  0  0  0  0  0  0  0  0  0  0
   45.2615  -23.1899   13.7085 H   0  0  0  0  0  0  0  0  0  0  0  0
   45.2802  -24.7646   11.5715 H   0  0  0  0  0  0  0  0  0  0  0  0
   46.4288  -24.3599   10.4836 H   0  0  0  0  0  0  0  0  0  0  0  0
   46.8851  -24.8922   13.2787 H   0  0  0  0  0  0  0  0  0  0  0  0
  1  3  1  0  0  0  0
  2  4  1  0  0  0  0
  2  5  1  0  0  0  0
  2  6  1  0  0  0  0
  3  4  1  0  0  0  0
  5 10  1  0  0  0  0
  6 11  1  0  0  0  0
  7  8  2  0  0  0  0
  7  9  1  0  0  0  0
  8 12  1  0  0  0  0
  9 13  2  0  0  0  0
 10 15  1  0  0  0  0
 11 15  1  0  0  0  0
 12 16  2  0  0  0  0
 13 16  1  0  0  0  0
 14 15  1  0  0  0  0
 14 16  1  0  0  0  0
  1 17  1  0  0  0  0
  1 18  1  0  0  0  0
  3 19  1  0  0  0  0
  3 20  1  0  0  0  0
  4 21  1  0  0  0  0
  4 22  1  0  0  0  0
  5 23  1  0  0  0  0
  5 24  1  0  0  0  0
  6 25  1  0  0  0  0
  6 26  1  0  0  0  0
  7 27  1  0  0  0  0
  8 28  1  0  0  0  0
  9 29  1  0  0  0  0
 10 30  1  0  0  0  0
 10 31  1  0  0  0  0
 11 32  1  0  0  0  0
 11 33  1  0  0  0  0
 12 34  1  0  0  0  0
 13 35  1  0  0  0  0
 14 36  1  0  0  0  0
 14 37  1  0  0  0  0
 15 38  1  0  0  0  0
M  END
> <pdb_id>
5EGS

> <uniprot_id>
Q96LA8

> <usmiles>
N1(CCN)CCC(Cc2ccccc2)CC1

$$$$
5O5_A_303
          07192416293D 1   1.00000     0.00000     0
            
 21 22  0  0  0  0            999 V2000
   -6.8113    5.8254   12.5935 Cl  0  0  0  0  0  0  0  0  0  0  0  0
   -5.7508    5.4498   15.4701 Cl  0  0  0  0  0  0  0  0  0  0  0  0
   -4.4034    0.6264   14.1488 O   0  0  0  0  0  0  0  0  0  0  0  0
   -6.6957    0.2384   17.5769 N   0  0  0  0  0  0  0  0  0  0  0  0
   -5.9352    1.0945   18.2312 N   0  0  0  0  0  0  0  0  0  0  0  0
   -6.0505   -0.1435   16.4594 N   0  0  0  0  0  0  0  0  0  0  0  0
   -4.8181    1.2956   17.5281 N   0  0  0  0  0  0  0  0  0  0  0  0
   -3.8153    0.4621   15.3984 C   0  0  0  0  0  0  0  0  0  0  0  0
   -5.4030    2.0757   12.5546 C   0  0  0  0  0  0  0  0  0  0  0  0
   -5.9831    3.2755   12.1829 C   0  0  0  0  0  0  0  0  0  0  0  0
   -5.0151    2.9544   14.7281 C   0  0  0  0  0  0  0  0  0  0  0  0
   -4.9350    1.8991   13.8396 C   0  0  0  0  0  0  0  0  0  0  0  0
   -6.0873    4.3176   13.0903 C   0  0  0  0  0  0  0  0  0  0  0  0
   -5.6102    4.1461   14.3534 C   0  0  0  0  0  0  0  0  0  0  0  0
   -4.8875    0.5195   16.4443 C   0  0  0  0  0  0  0  0  0  0  0  0
   -7.6010   -0.0748   17.8636 H   0  0  0  0  0  0  0  0  0  0  0  0
   -3.1512    1.1928   15.5567 H   0  0  0  0  0  0  0  0  0  0  0  0
   -3.3525   -0.4234   15.4389 H   0  0  0  0  0  0  0  0  0  0  0  0
   -5.3228    1.3338   11.8888 H   0  0  0  0  0  0  0  0  0  0  0  0
   -6.3300    3.3915   11.2522 H   0  0  0  0  0  0  0  0  0  0  0  0
   -4.6398    2.8560   15.6498 H   0  0  0  0  0  0  0  0  0  0  0  0
  1 13  1  0  0  0  0
  2 14  1  0  0  0  0
  3  8  1  0  0  0  0
  3 12  1  0  0  0  0
  4  5  1  0  0  0  0
  4  6  1  0  0  0  0
  5  7  2  0  0  0  0
  6 15  2  0  0  0  0
  7 15  1  0  0  0  0
  8 15  1  0  0  0  0
  9 10  2  0  0  0  0
  9 12  1  0  0  0  0
 10 13  1  0  0  0  0
 11 12  2  0  0  0  0
 11 14  1  0  0  0  0
 13 14  2  0  0  0  0
  4 16  1  0  0  0  0
  8 17  1  0  0  0  0
  8 18  1  0  0  0  0
  9 19  1  0  0  0  0
 10 20  1  0  0  0  0
 11 21  1  0  0  0  0
M  END
> <pdb_id>
5EH7

> <uniprot_id>
P00918

> <usmiles>
Clc1c(Cl)ccc(OCC=2N=NNN2)c1

$$$$
5OB_A_990
          07192421153D 1   1.00000     0.00000     0
            
 19 20  0  0  0  0            999 V2000
   60.6388   44.9834   14.5883 O   0  0  0  0  0  0  0  0  0  0  0  0
   57.3230   41.3166   12.1864 N   0  0  0  0  0  0  0  0  0  0  0  0
   56.8621   41.9929   14.2842 N   0  0  0  0  0  0  0  0  0  0  0  0
   60.0806   45.0579   15.8778 C   0  0  0  0  0  0  0  0  0  0  0  0
   56.4975   41.2091   13.2536 C   0  0  0  0  0  0  0  0  0  0  0  0
   60.2403   43.6669   12.5496 C   0  0  0  0  0  0  0  0  0  0  0  0
   59.4208   42.7267   11.9457 C   0  0  0  0  0  0  0  0  0  0  0  0
   58.8370   43.5904   14.5221 C   0  0  0  0  0  0  0  0  0  0  0  0
   59.9470   44.0927   13.8563 C   0  0  0  0  0  0  0  0  0  0  0  0
   58.3009   42.2375   12.6076 C   0  0  0  0  0  0  0  0  0  0  0  0
   58.0124   42.6644   13.8853 C   0  0  0  0  0  0  0  0  0  0  0  0
   57.2543   40.8505   11.3043 H   0  0  0  0  0  0  0  0  0  0  0  0
   60.5929   45.7197   16.4251 H   0  0  0  0  0  0  0  0  0  0  0  0
   59.1259   45.3482   15.8114 H   0  0  0  0  0  0  0  0  0  0  0  0
   60.1262   44.1589   16.3132 H   0  0  0  0  0  0  0  0  0  0  0  0
   55.6982   40.6085   13.2739 H   0  0  0  0  0  0  0  0  0  0  0  0
   61.0305   44.0378   12.0616 H   0  0  0  0  0  0  0  0  0  0  0  0
   59.6368   42.3977   11.0264 H   0  0  0  0  0  0  0  0  0  0  0  0
   58.6304   43.8912   15.4531 H   0  0  0  0  0  0  0  0  0  0  0  0
  1  4  1  0  0  0  0
  1  9  1  0  0  0  0
  2  5  1  0  0  0  0
  2 10  1  0  0  0  0
  3  5  2  0  0  0  0
  3 11  1  0  0  0  0
  6  7  1  0  0  0  0
  6  9  2  0  0  0  0
  7 10  2  0  0  0  0
  8  9  1  0  0  0  0
  8 11  2  0  0  0  0
 10 11  1  0  0  0  0
  2 12  1  0  0  0  0
  4 13  1  0  0  0  0
  4 14  1  0  0  0  0
  4 15  1  0  0  0  0
  5 16  1  0  0  0  0
  6 17  1  0  0  0  0
  7 18  1  0  0  0  0
  8 19  1  0  0  0  0
M  END
> <pdb_id>
1JHP

> <uniprot_id>
Q05603

> <usmiles>
O(c1cc2N=CNc2cc1)C

$$$$
5OB_B_301
          07212403353D 1   1.00000     0.00000     0
            
 19 20  0  0  0  0            999 V2000
  -23.3743   19.3441  -12.1237 O   0  0  0  0  0  0  0  0  0  0  0  0
  -19.0340   15.8003  -12.5804 N   0  0  0  0  0  0  0  0  0  0  0  0
  -18.5320   17.9885  -12.4484 N   0  0  0  0  0  0  0  0  0  0  0  0
  -22.9919   20.6173  -11.7562 C   0  0  0  0  0  0  0  0  0  0  0  0
  -17.9976   16.7438  -12.5591 C   0  0  0  0  0  0  0  0  0  0  0  0
  -22.6386   16.9930  -12.3306 C   0  0  0  0  0  0  0  0  0  0  0  0
  -21.6038   16.0441  -12.4372 C   0  0  0  0  0  0  0  0  0  0  0  0
  -20.9555   18.8336  -12.2797 C   0  0  0  0  0  0  0  0  0  0  0  0
  -22.3102   18.4068  -12.2392 C   0  0  0  0  0  0  0  0  0  0  0  0
  -20.2230   16.4783  -12.4775 C   0  0  0  0  0  0  0  0  0  0  0  0
  -19.9143   17.8709  -12.3920 C   0  0  0  0  0  0  0  0  0  0  0  0
  -18.9263   14.8091  -12.6571 H   0  0  0  0  0  0  0  0  0  0  0  0
  -23.7993   21.2047  -11.7000 H   0  0  0  0  0  0  0  0  0  0  0  0
  -22.5403   20.5854  -10.8645 H   0  0  0  0  0  0  0  0  0  0  0  0
  -22.3590   20.9850  -12.4374 H   0  0  0  0  0  0  0  0  0  0  0  0
  -17.0214   16.5346  -12.6161 H   0  0  0  0  0  0  0  0  0  0  0  0
  -23.5936   16.6965  -12.3178 H   0  0  0  0  0  0  0  0  0  0  0  0
  -21.8226   15.0696  -12.4851 H   0  0  0  0  0  0  0  0  0  0  0  0
  -20.7348   19.8076  -12.2295 H   0  0  0  0  0  0  0  0  0  0  0  0
  1  4  1  0  0  0  0
  1  9  1  0  0  0  0
  2  5  1  0  0  0  0
  2 10  1  0  0  0  0
  3  5  2  0  0  0  0
  3 11  1  0  0  0  0
  6  7  1  0  0  0  0
  6  9  2  0  0  0  0
  7 10  2  0  0  0  0
  8  9  1  0  0  0  0
  8 11  2  0  0  0  0
 10 11  1  0  0  0  0
  2 12  1  0  0  0  0
  4 13  1  0  0  0  0
  4 14  1  0  0  0  0
  4 15  1  0  0  0  0
  5 16  1  0  0  0  0
  6 17  1  0  0  0  0
  7 18  1  0  0  0  0
  8 19  1  0  0  0  0
M  END
> <pdb_id>
6QO6

> <uniprot_id>
B1MDI3

> <usmiles>
O(c1cc2N=CNc2cc1)C

$$$$
5OB_B_404
          07202417493D 1   1.00000     0.00000     0
            
 19 20  0  0  0  0            999 V2000
   12.3554    0.9453    9.2672 O   0  0  0  0  0  0  0  0  0  0  0  0
    6.8936    0.3842    9.5659 N   0  0  0  0  0  0  0  0  0  0  0  0
    7.6709    2.4627    9.4533 N   0  0  0  0  0  0  0  0  0  0  0  0
   13.0909    2.0827    9.7270 C   0  0  0  0  0  0  0  0  0  0  0  0
    6.5545    1.6991    9.5348 C   0  0  0  0  0  0  0  0  0  0  0  0
   10.5066   -0.5155    9.4121 C   0  0  0  0  0  0  0  0  0  0  0  0
    9.1367   -0.7822    9.4858 C   0  0  0  0  0  0  0  0  0  0  0  0
   10.1075    1.8797    9.3516 C   0  0  0  0  0  0  0  0  0  0  0  0
   10.9935    0.7934    9.3498 C   0  0  0  0  0  0  0  0  0  0  0  0
    8.2318    0.2749    9.4974 C   0  0  0  0  0  0  0  0  0  0  0  0
    8.7396    1.6599    9.4247 C   0  0  0  0  0  0  0  0  0  0  0  0
    6.2513   -0.3796    9.6294 H   0  0  0  0  0  0  0  0  0  0  0  0
   14.0652    1.9436    9.5495 H   0  0  0  0  0  0  0  0  0  0  0  0
   12.7774    2.9000    9.2436 H   0  0  0  0  0  0  0  0  0  0  0  0
   12.9444    2.1996   10.7093 H   0  0  0  0  0  0  0  0  0  0  0  0
    5.6192    2.0515    9.5673 H   0  0  0  0  0  0  0  0  0  0  0  0
   11.1532   -1.2783    9.4036 H   0  0  0  0  0  0  0  0  0  0  0  0
    8.8092   -1.7260    9.5300 H   0  0  0  0  0  0  0  0  0  0  0  0
   10.4616    2.8135    9.3002 H   0  0  0  0  0  0  0  0  0  0  0  0
  1  4  1  0  0  0  0
  1  9  1  0  0  0  0
  2  5  1  0  0  0  0
  2 10  1  0  0  0  0
  3  5  2  0  0  0  0
  3 11  1  0  0  0  0
  6  7  1  0  0  0  0
  6  9  2  0  0  0  0
  7 10  2  0  0  0  0
  8  9  1  0  0  0  0
  8 11  2  0  0  0  0
 10 11  1  0  0  0  0
  2 12  1  0  0  0  0
  4 13  1  0  0  0  0
  4 14  1  0  0  0  0
  4 15  1  0  0  0  0
  5 16  1  0  0  0  0
  6 17  1  0  0  0  0
  7 18  1  0  0  0  0
  8 19  1  0  0  0  0
M  END
> <pdb_id>
8I2A

> <uniprot_id>
P00954

> <usmiles>
O(c1cc2N=CNc2cc1)C

$$$$
5OD_A_601
          07202408163D 1   1.00000     0.00000     0
            
 42 44  0  0  0  0            999 V2000
   17.8333   20.2730    9.0695 Cl  0  0  0  0  0  0  0  0  0  0  0  0
   20.6547   20.6680    7.8869 Cl  0  0  0  0  0  0  0  0  0  0  0  0
   22.1096   18.2393    5.9960 N   0  0  0  0  0  0  0  0  0  0  0  0
   27.9966   22.9291    3.7517 N   0  0  0  0  0  0  0  0  0  0  0  0
   21.0459   21.1043    3.9810 N   0  0  0  0  0  0  0  0  0  0  0  0
   23.2519   19.5385    4.4583 N   0  0  0  0  0  0  0  0  0  0  0  0
   24.4962   20.7949    2.8713 N   0  0  0  0  0  0  0  0  0  0  0  0
   27.8504   21.8312    1.5961 C   0  0  0  0  0  0  0  0  0  0  0  0
   22.2011   21.3644    3.3445 C   0  0  0  0  0  0  0  0  0  0  0  0
   24.6359   21.9978    2.0227 C   0  0  0  0  0  0  0  0  0  0  0  0
   25.6535   19.9217    3.0027 C   0  0  0  0  0  0  0  0  0  0  0  0
   17.2725   19.2706    5.1818 C   0  0  0  0  0  0  0  0  0  0  0  0
   17.0300   19.5415    6.5449 C   0  0  0  0  0  0  0  0  0  0  0  0
   18.5603   19.4838    4.6514 C   0  0  0  0  0  0  0  0  0  0  0  0
   25.7568   22.8754    2.6383 C   0  0  0  0  0  0  0  0  0  0  0  0
   26.7875   20.7484    3.6854 C   0  0  0  0  0  0  0  0  0  0  0  0
   22.1034   19.2799    5.1308 C   0  0  0  0  0  0  0  0  0  0  0  0
   18.0979   19.9354    7.3780 C   0  0  0  0  0  0  0  0  0  0  0  0
   23.3286   20.5425    3.5342 C   0  0  0  0  0  0  0  0  0  0  0  0
   19.3847   20.1035    6.8520 C   0  0  0  0  0  0  0  0  0  0  0  0
   20.9701   20.0974    4.8931 C   0  0  0  0  0  0  0  0  0  0  0  0
   19.6245   19.8986    5.4898 C   0  0  0  0  0  0  0  0  0  0  0  0
   27.0902   22.1025    2.9251 C   0  0  0  0  0  0  0  0  0  0  0  0
   21.2837   18.0137    6.5127 H   0  0  0  0  0  0  0  0  0  0  0  0
   22.9402   17.6960    6.1187 H   0  0  0  0  0  0  0  0  0  0  0  0
   27.5557   23.1355    4.6252 H   0  0  0  0  0  0  0  0  0  0  0  0
   28.8463   22.4285    3.9172 H   0  0  0  0  0  0  0  0  0  0  0  0
   27.2803   21.2721    0.9941 H   0  0  0  0  0  0  0  0  0  0  0  0
   28.0570   22.7004    1.1468 H   0  0  0  0  0  0  0  0  0  0  0  0
   28.7028   21.3466    1.7925 H   0  0  0  0  0  0  0  0  0  0  0  0
   22.2603   22.1505    2.7292 H   0  0  0  0  0  0  0  0  0  0  0  0
   23.7747   22.5058    2.0063 H   0  0  0  0  0  0  0  0  0  0  0  0
   24.8836   21.7315    1.0912 H   0  0  0  0  0  0  0  0  0  0  0  0
   25.9524   19.6122    2.1000 H   0  0  0  0  0  0  0  0  0  0  0  0
   25.4214   19.1293    3.5668 H   0  0  0  0  0  0  0  0  0  0  0  0
   16.5364   18.9301    4.5968 H   0  0  0  0  0  0  0  0  0  0  0  0
   16.1064   19.4547    6.9184 H   0  0  0  0  0  0  0  0  0  0  0  0
   18.7246   19.3411    3.6753 H   0  0  0  0  0  0  0  0  0  0  0  0
   25.4214   23.2537    3.5010 H   0  0  0  0  0  0  0  0  0  0  0  0
   25.9566   23.6211    2.0026 H   0  0  0  0  0  0  0  0  0  0  0  0
   27.6212   20.1965    3.7023 H   0  0  0  0  0  0  0  0  0  0  0  0
   26.5097   20.9615    4.6221 H   0  0  0  0  0  0  0  0  0  0  0  0
  1 18  1  0  0  0  0
  2 20  1  0  0  0  0
  3 17  1  0  0  0  0
  4 23  1  0  0  0  0
  5  9  1  0  0  0  0
  5 21  2  0  0  0  0
  6 17  2  0  0  0  0
  6 19  1  0  0  0  0
  7 10  1  0  0  0  0
  7 11  1  0  0  0  0
  7 19  1  0  0  0  0
  8 23  1  0  0  0  0
  9 19  2  0  0  0  0
 10 15  1  0  0  0  0
 11 16  1  0  0  0  0
 12 13  2  0  0  0  0
 12 14  1  0  0  0  0
 13 18  1  0  0  0  0
 14 22  2  0  0  0  0
 15 23  1  0  0  0  0
 16 23  1  0  0  0  0
 17 21  1  0  0  0  0
 18 20  2  0  0  0  0
 20 22  1  0  0  0  0
 21 22  1  0  0  0  0
  3 24  1  0  0  0  0
  3 25  1  0  0  0  0
  4 26  1  0  0  0  0
  4 27  1  0  0  0  0
  8 28  1  0  0  0  0
  8 29  1  0  0  0  0
  8 30  1  0  0  0  0
  9 31  1  0  0  0  0
 10 32  1  0  0  0  0
 10 33  1  0  0  0  0
 11 34  1  0  0  0  0
 11 35  1  0  0  0  0
 12 36  1  0  0  0  0
 13 37  1  0  0  0  0
 14 38  1  0  0  0  0
 15 39  1  0  0  0  0
 15 40  1  0  0  0  0
 16 41  1  0  0  0  0
 16 42  1  0  0  0  0
M  END
> <pdb_id>
5EHR

> <uniprot_id>
Q06124

> <usmiles>
Clc1c(Cl)cccc1c2ncc(nc2N)N3CCC(N)(CC3)C

$$$$
5OG_A_804
          07212402463D 1   1.00000     0.00000     0
            
 36 37  0  0  0  0            999 V2000
  -39.7346   -7.3934   30.8450 S   0  0  0  0  0  0  0  0  0  0  0  0
  -40.2152   -6.9762   32.3653 O   0  0  0  0  0  0  0  0  0  0  0  0
  -39.5902   -8.9962   31.0710 O   0  0  0  0  0  0  0  0  0  0  0  0
  -46.7920  -10.9895   25.1594 O   0  0  0  0  0  0  0  0  0  0  0  0
  -44.1703  -11.0168   25.3894 O   0  0  0  0  0  0  0  0  0  0  0  0
  -38.2531   -6.8302   30.4961 N   0  0  0  0  0  0  0  0  0  0  0  0
  -46.1579   -9.9154   25.5619 N   0  0  0  0  0  0  0  0  0  0  0  0
  -36.8052   -6.2407   26.5856 C   0  0  0  0  0  0  0  0  0  0  0  0
  -36.6504   -7.4704   27.2064 C   0  0  0  0  0  0  0  0  0  0  0  0
  -37.4318   -5.2178   27.2644 C   0  0  0  0  0  0  0  0  0  0  0  0
  -42.1961   -5.4264   28.4073 C   0  0  0  0  0  0  0  0  0  0  0  0
  -41.2794   -5.7401   29.3835 C   0  0  0  0  0  0  0  0  0  0  0  0
  -44.0367   -8.7678   26.1355 C   0  0  0  0  0  0  0  0  0  0  0  0
  -37.1135   -7.6766   28.4848 C   0  0  0  0  0  0  0  0  0  0  0  0
  -37.9028   -5.4076   28.5444 C   0  0  0  0  0  0  0  0  0  0  0  0
  -42.7746   -6.4167   27.6238 C   0  0  0  0  0  0  0  0  0  0  0  0
  -43.0345   -8.8351   26.9933 C   0  0  0  0  0  0  0  0  0  0  0  0
  -41.5089   -8.0325   28.8086 C   0  0  0  0  0  0  0  0  0  0  0  0
  -40.9377   -7.0720   29.6100 C   0  0  0  0  0  0  0  0  0  0  0  0
  -44.7262  -10.0184   25.6531 C   0  0  0  0  0  0  0  0  0  0  0  0
  -37.7391   -6.6349   29.1969 C   0  0  0  0  0  0  0  0  0  0  0  0
  -42.4456   -7.7596   27.8055 C   0  0  0  0  0  0  0  0  0  0  0  0
  -47.7747  -10.8062   25.1332 H   0  0  0  0  0  0  0  0  0  0  0  0
  -37.6555   -6.6029   31.2651 H   0  0  0  0  0  0  0  0  0  0  0  0
  -46.6423   -9.0716   25.7927 H   0  0  0  0  0  0  0  0  0  0  0  0
  -36.4661   -6.0974   25.6559 H   0  0  0  0  0  0  0  0  0  0  0  0
  -36.1965   -8.2164   26.7190 H   0  0  0  0  0  0  0  0  0  0  0  0
  -37.5458   -4.3280   26.8224 H   0  0  0  0  0  0  0  0  0  0  0  0
  -42.4501   -4.4705   28.2594 H   0  0  0  0  0  0  0  0  0  0  0  0
  -40.8594   -5.0148   29.9289 H   0  0  0  0  0  0  0  0  0  0  0  0
  -44.3418   -7.8759   25.8018 H   0  0  0  0  0  0  0  0  0  0  0  0
  -37.0052   -8.5740   28.9125 H   0  0  0  0  0  0  0  0  0  0  0  0
  -38.3684   -4.6578   29.0145 H   0  0  0  0  0  0  0  0  0  0  0  0
  -43.4368   -6.1628   26.9188 H   0  0  0  0  0  0  0  0  0  0  0  0
  -42.6206   -9.7384   27.1056 H   0  0  0  0  0  0  0  0  0  0  0  0
  -41.2382   -8.9845   28.9514 H   0  0  0  0  0  0  0  0  0  0  0  0
  1  2  2  0  0  0  0
  1  3  2  0  0  0  0
  1  6  1  0  0  0  0
  1 19  1  0  0  0  0
  4  7  1  0  0  0  0
  5 20  2  0  0  0  0
  6 21  1  0  0  0  0
  7 20  1  0  0  0  0
  8  9  2  0  0  0  0
  8 10  1  0  0  0  0
  9 14  1  0  0  0  0
 10 15  2  0  0  0  0
 11 12  2  0  0  0  0
 11 16  1  0  0  0  0
 12 19  1  0  0  0  0
 13 17  2  0  0  0  0
 13 20  1  0  0  0  0
 14 21  2  0  0  0  0
 15 21  1  0  0  0  0
 16 22  2  0  0  0  0
 17 22  1  0  0  0  0
 18 19  2  0  0  0  0
 18 22  1  0  0  0  0
  4 23  1  0  0  0  0
  6 24  1  0  0  0  0
  7 25  1  0  0  0  0
  8 26  1  0  0  0  0
  9 27  1  0  0  0  0
 10 28  1  0  0  0  0
 11 29  1  0  0  0  0
 12 30  1  0  0  0  0
 13 31  1  0  0  0  0
 14 32  1  0  0  0  0
 15 33  1  0  0  0  0
 16 34  1  0  0  0  0
 17 35  1  0  0  0  0
 18 36  1  0  0  0  0
M  END
> <pdb_id>
5EEN

> <uniprot_id>
A7YT55

> <usmiles>
S(=O)(=O)(Nc1ccccc1)c2cc(ccc2)/C=C/C(=O)NO

$$$$
5OU_A_201
          07212401333D 1   1.00000     0.00000     0
            
 34 36  0  0  0  0            999 V2000
  -16.7390  -21.6351  -14.0287 Cl  0  0  0  0  0  0  0  0  0  0  0  0
  -14.0025  -25.0397  -19.7882 O   0  0  0  0  0  0  0  0  0  0  0  0
  -16.6441  -23.6895  -23.1128 O   0  0  0  0  0  0  0  0  0  0  0  0
  -14.4879  -20.4509  -20.6722 N   0  0  0  0  0  0  0  0  0  0  0  0
  -15.3013  -24.3338  -21.4105 N   0  0  0  0  0  0  0  0  0  0  0  0
  -15.8937  -20.8131  -22.3268 N   0  0  0  0  0  0  0  0  0  0  0  0
  -14.1155  -22.8089  -20.1109 N   0  0  0  0  0  0  0  0  0  0  0  0
  -18.2464  -20.6111  -22.9065 C   0  0  0  0  0  0  0  0  0  0  0  0
  -15.2505  -19.8787  -21.5926 C   0  0  0  0  0  0  0  0  0  0  0  0
  -16.8226  -20.5633  -23.4352 C   0  0  0  0  0  0  0  0  0  0  0  0
  -13.2473  -22.4796  -18.9693 C   0  0  0  0  0  0  0  0  0  0  0  0
  -15.3357  -20.8785  -16.3341 C   0  0  0  0  0  0  0  0  0  0  0  0
  -15.2489  -23.1908  -15.8505 C   0  0  0  0  0  0  0  0  0  0  0  0
  -14.5380  -21.0216  -17.4665 C   0  0  0  0  0  0  0  0  0  0  0  0
  -14.4252  -23.3695  -17.0072 C   0  0  0  0  0  0  0  0  0  0  0  0
  -14.4340  -24.0605  -20.3669 C   0  0  0  0  0  0  0  0  0  0  0  0
  -15.8704  -23.2908  -22.1905 C   0  0  0  0  0  0  0  0  0  0  0  0
  -15.7043  -21.9229  -15.5208 C   0  0  0  0  0  0  0  0  0  0  0  0
  -14.6629  -21.7916  -20.8165 C   0  0  0  0  0  0  0  0  0  0  0  0
  -15.5555  -22.0304  -21.8515 C   0  0  0  0  0  0  0  0  0  0  0  0
  -14.0466  -22.2784  -17.7988 C   0  0  0  0  0  0  0  0  0  0  0  0
  -15.5321  -25.2840  -21.6198 H   0  0  0  0  0  0  0  0  0  0  0  0
  -18.8862  -20.4418  -23.6562 H   0  0  0  0  0  0  0  0  0  0  0  0
  -18.4256  -21.5127  -22.5126 H   0  0  0  0  0  0  0  0  0  0  0  0
  -18.3644  -19.9105  -22.2028 H   0  0  0  0  0  0  0  0  0  0  0  0
  -15.3380  -18.8915  -21.7256 H   0  0  0  0  0  0  0  0  0  0  0  0
  -16.7021  -21.2641  -24.1382 H   0  0  0  0  0  0  0  0  0  0  0  0
  -16.6409  -19.6619  -23.8284 H   0  0  0  0  0  0  0  0  0  0  0  0
  -12.7360  -21.6441  -19.1705 H   0  0  0  0  0  0  0  0  0  0  0  0
  -12.6077  -23.2316  -18.8100 H   0  0  0  0  0  0  0  0  0  0  0  0
  -15.6593  -19.9620  -16.0990 H   0  0  0  0  0  0  0  0  0  0  0  0
  -15.4949  -23.9764  -15.2828 H   0  0  0  0  0  0  0  0  0  0  0  0
  -14.3210  -20.2280  -18.0348 H   0  0  0  0  0  0  0  0  0  0  0  0
  -14.1152  -24.2877  -17.2537 H   0  0  0  0  0  0  0  0  0  0  0  0
  1 18  1  0  0  0  0
  2 16  2  0  0  0  0
  3 17  2  0  0  0  0
  4  9  2  0  0  0  0
  4 19  1  0  0  0  0
  5 16  1  0  0  0  0
  5 17  1  0  0  0  0
  6  9  1  0  0  0  0
  6 10  1  0  0  0  0
  6 20  1  0  0  0  0
  7 11  1  0  0  0  0
  7 16  1  0  0  0  0
  7 19  1  0  0  0  0
  8 10  1  0  0  0  0
 11 21  1  0  0  0  0
 12 14  2  0  0  0  0
 12 18  1  0  0  0  0
 13 15  1  0  0  0  0
 13 18  2  0  0  0  0
 14 21  1  0  0  0  0
 15 21  2  0  0  0  0
 17 20  1  0  0  0  0
 19 20  2  0  0  0  0
  5 22  1  0  0  0  0
  8 23  1  0  0  0  0
  8 24  1  0  0  0  0
  8 25  1  0  0  0  0
  9 26  1  0  0  0  0
 10 27  1  0  0  0  0
 10 28  1  0  0  0  0
 11 29  1  0  0  0  0
 11 30  1  0  0  0  0
 12 31  1  0  0  0  0
 13 32  1  0  0  0  0
 14 33  1  0  0  0  0
 15 34  1  0  0  0  0
M  END
> <pdb_id>
5EIS

> <uniprot_id>
O60885

> <usmiles>
Clc1ccc(cc1)CN2C(=O)NC(=O)C=3N(C=NC23)CC

$$$$
5P3_A_350
          07202404183D 1   1.00000     0.00000     0
            
 26 27  0  0  0  0            999 V2000
    3.8570   -8.2170   18.3900 Cl  0  0  0  0  0  0  0  0  0  0  0  0
    7.2170   -2.8320   18.0120 O   0  0  0  0  0  0  0  0  0  0  0  0
    6.3090   -3.8370   19.8020 O   0  0  0  0  0  0  0  0  0  0  0  0
    5.1910   -5.9540   19.7500 O   0  0  0  0  0  0  0  0  0  0  0  0
    6.0370   -6.2760   11.3970 C   0  0  0  0  0  0  0  0  0  0  0  0
    4.8280   -6.6730   11.9310 C   0  0  0  0  0  0  0  0  0  0  0  0
    7.0390   -5.7780   12.2230 C   0  0  0  0  0  0  0  0  0  0  0  0
    4.5560   -6.5420   13.2830 C   0  0  0  0  0  0  0  0  0  0  0  0
    6.7490   -5.5800   13.5670 C   0  0  0  0  0  0  0  0  0  0  0  0
    4.7670   -6.8890   16.2250 C   0  0  0  0  0  0  0  0  0  0  0  0
    6.0070   -4.8580   16.3260 C   0  0  0  0  0  0  0  0  0  0  0  0
    6.5730   -3.7760   18.5770 C   0  0  0  0  0  0  0  0  0  0  0  0
    4.6880   -6.9150   17.6120 C   0  0  0  0  0  0  0  0  0  0  0  0
    5.2830   -5.9330   18.3790 C   0  0  0  0  0  0  0  0  0  0  0  0
    5.5420   -5.9470   14.1290 C   0  0  0  0  0  0  0  0  0  0  0  0
    5.4260   -5.8470   15.5460 C   0  0  0  0  0  0  0  0  0  0  0  0
    5.9630   -4.9000   17.7230 C   0  0  0  0  0  0  0  0  0  0  0  0
    7.3848   -2.8611   17.0266 H   0  0  0  0  0  0  0  0  0  0  0  0
    5.6275   -5.2355   20.2915 H   0  0  0  0  0  0  0  0  0  0  0  0
    6.1933   -6.3467   10.4118 H   0  0  0  0  0  0  0  0  0  0  0  0
    4.1325   -7.0641   11.3283 H   0  0  0  0  0  0  0  0  0  0  0  0
    7.9460   -5.5676   11.8583 H   0  0  0  0  0  0  0  0  0  0  0  0
    3.6854   -6.8581   13.6601 H   0  0  0  0  0  0  0  0  0  0  0  0
    7.4412   -5.1551   14.1504 H   0  0  0  0  0  0  0  0  0  0  0  0
    4.3463   -7.6270   15.6975 H   0  0  0  0  0  0  0  0  0  0  0  0
    6.4701   -4.0939   15.8769 H   0  0  0  0  0  0  0  0  0  0  0  0
  1 13  1  0  0  0  0
  2 12  1  0  0  0  0
  3 12  2  0  0  0  0
  4 14  1  0  0  0  0
  5  6  2  0  0  0  0
  5  7  1  0  0  0  0
  6  8  1  0  0  0  0
  7  9  2  0  0  0  0
  8 15  2  0  0  0  0
  9 15  1  0  0  0  0
 10 13  1  0  0  0  0
 10 16  2  0  0  0  0
 11 16  1  0  0  0  0
 11 17  2  0  0  0  0
 12 17  1  0  0  0  0
 13 14  2  0  0  0  0
 14 17  1  0  0  0  0
 15 16  1  0  0  0  0
  2 18  1  0  0  0  0
  4 19  1  0  0  0  0
  5 20  1  0  0  0  0
  6 21  1  0  0  0  0
  7 22  1  0  0  0  0
  8 23  1  0  0  0  0
  9 24  1  0  0  0  0
 10 25  1  0  0  0  0
 11 26  1  0  0  0  0
M  END
> <pdb_id>
3NTY

> <uniprot_id>
Q04828

> <usmiles>
Clc1c(O)c(cc(c2ccccc2)c1)C(=O)O

$$$$
5P8_A_2402
          07192422563D 1   1.00000     0.00000     0
            
 49 52  0  0  0  0            999 V2000
  -34.6403  -17.6078   64.3740 F   0  0  0  0  0  0  0  0  0  0  0  0
  -33.2521  -17.7567   58.2429 O   0  0  0  0  0  0  0  0  0  0  0  0
  -30.7693  -15.6197   61.4736 O   0  0  0  0  0  0  0  0  0  0  0  0
  -24.9184  -20.2196   59.9291 N   0  0  0  0  0  0  0  0  0  0  0  0
  -28.6524  -15.0253   63.1571 N   0  0  0  0  0  0  0  0  0  0  0  0
  -29.3361  -21.7864   59.0271 N   0  0  0  0  0  0  0  0  0  0  0  0
  -27.5603  -17.0556   62.5478 N   0  0  0  0  0  0  0  0  0  0  0  0
  -27.9992  -21.7441   59.0309 N   0  0  0  0  0  0  0  0  0  0  0  0
  -31.8412  -19.5580   58.8430 N   0  0  0  0  0  0  0  0  0  0  0  0
  -27.2818  -22.8168   58.3625 C   0  0  0  0  0  0  0  0  0  0  0  0
  -31.4787  -19.7701   57.4299 C   0  0  0  0  0  0  0  0  0  0  0  0
  -32.6684  -14.5325   60.4816 C   0  0  0  0  0  0  0  0  0  0  0  0
  -26.0515  -20.4214   59.8102 C   0  0  0  0  0  0  0  0  0  0  0  0
  -27.5320  -18.2351   61.8305 C   0  0  0  0  0  0  0  0  0  0  0  0
  -31.2163  -20.4809   59.8577 C   0  0  0  0  0  0  0  0  0  0  0  0
  -34.5438  -18.9628   62.4371 C   0  0  0  0  0  0  0  0  0  0  0  0
  -34.0660  -19.1620   61.1255 C   0  0  0  0  0  0  0  0  0  0  0  0
  -33.3538  -16.8057   62.5526 C   0  0  0  0  0  0  0  0  0  0  0  0
  -29.6232  -17.7413   60.8416 C   0  0  0  0  0  0  0  0  0  0  0  0
  -34.1862  -17.7919   63.1363 C   0  0  0  0  0  0  0  0  0  0  0  0
  -32.7650  -18.4911   59.1101 C   0  0  0  0  0  0  0  0  0  0  0  0
  -28.6381  -16.2103   62.4129 C   0  0  0  0  0  0  0  0  0  0  0  0
  -31.9288  -15.8723   60.6185 C   0  0  2  0  0  0  0  0  0  0  0  0
  -29.7156  -16.5219   61.5495 C   0  0  0  0  0  0  0  0  0  0  0  0
  -29.7185  -20.6971   59.7001 C   0  0  0  0  0  0  0  0  0  0  0  0
  -27.4646  -20.6576   59.6878 C   0  0  0  0  0  0  0  0  0  0  0  0
  -28.5494  -18.6430   60.9464 C   0  0  0  0  0  0  0  0  0  0  0  0
  -33.2196  -18.1835   60.5059 C   0  0  0  0  0  0  0  0  0  0  0  0
  -32.8441  -16.9703   61.2163 C   0  0  0  0  0  0  0  0  0  0  0  0
  -28.5711  -19.9137   60.1617 C   0  0  0  0  0  0  0  0  0  0  0  0
  -29.4238  -14.3940   63.0773 H   0  0  0  0  0  0  0  0  0  0  0  0
  -27.8912  -14.8098   63.7687 H   0  0  0  0  0  0  0  0  0  0  0  0
  -26.2974  -22.6598   58.4423 H   0  0  0  0  0  0  0  0  0  0  0  0
  -27.5157  -23.6906   58.7890 H   0  0  0  0  0  0  0  0  0  0  0  0
  -27.5386  -22.8382   57.3963 H   0  0  0  0  0  0  0  0  0  0  0  0
  -31.9544  -19.1003   56.8597 H   0  0  0  0  0  0  0  0  0  0  0  0
  -30.4909  -19.6606   57.3192 H   0  0  0  0  0  0  0  0  0  0  0  0
  -31.7450  -20.6932   57.1524 H   0  0  0  0  0  0  0  0  0  0  0  0
  -33.4741  -14.6542   59.9020 H   0  0  0  0  0  0  0  0  0  0  0  0
  -32.9532  -14.2150   61.3860 H   0  0  0  0  0  0  0  0  0  0  0  0
  -32.0591  -13.8562   60.0676 H   0  0  0  0  0  0  0  0  0  0  0  0
  -26.7411  -18.8362   61.9458 H   0  0  0  0  0  0  0  0  0  0  0  0
  -31.6667  -21.3708   59.7855 H   0  0  0  0  0  0  0  0  0  0  0  0
  -31.3796  -20.0975   60.7667 H   0  0  0  0  0  0  0  0  0  0  0  0
  -35.1320  -19.6470   62.8683 H   0  0  0  0  0  0  0  0  0  0  0  0
  -34.3185  -19.9899   60.6246 H   0  0  0  0  0  0  0  0  0  0  0  0
  -33.1174  -15.9861   63.0745 H   0  0  0  0  0  0  0  0  0  0  0  0
  -30.3726  -17.9792   60.2238 H   0  0  0  0  0  0  0  0  0  0  0  0
  -31.6125  -16.1653   59.7162 H   0  0  0  0  0  0  0  0  0  0  0  0
  1 20  1  0  0  0  0
  2 21  2  0  0  0  0
  3 23  1  0  0  0  0
  3 24  1  0  0  0  0
  4 13  3  0  0  0  0
  5 22  1  0  0  0  0
  6  8  1  0  0  0  0
  6 25  2  0  0  0  0
  7 14  1  0  0  0  0
  7 22  2  0  0  0  0
  8 10  1  0  0  0  0
  8 26  1  0  0  0  0
  9 11  1  0  0  0  0
  9 15  1  0  0  0  0
  9 21  1  0  0  0  0
 12 23  1  0  0  0  0
 13 26  1  0  0  0  0
 14 27  2  0  0  0  0
 15 25  1  0  0  0  0
 16 17  1  0  0  0  0
 16 20  2  0  0  0  0
 17 28  2  0  0  0  0
 18 20  1  0  0  0  0
 18 29  2  0  0  0  0
 19 24  2  0  0  0  0
 19 27  1  0  0  0  0
 21 28  1  0  0  0  0
 22 24  1  0  0  0  0
 23 29  1  0  0  0  0
 25 30  1  0  0  0  0
 26 30  2  0  0  0  0
 27 30  1  0  0  0  0
 28 29  1  0  0  0  0
  5 31  1  0  0  0  0
  5 32  1  0  0  0  0
 10 33  1  0  0  0  0
 10 34  1  0  0  0  0
 10 35  1  0  0  0  0
 11 36  1  0  0  0  0
 11 37  1  0  0  0  0
 11 38  1  0  0  0  0
 12 39  1  0  0  0  0
 12 40  1  0  0  0  0
 12 41  1  0  0  0  0
 14 42  1  0  0  0  0
 15 43  1  0  0  0  0
 15 44  1  0  0  0  0
 16 45  1  0  0  0  0
 17 46  1  0  0  0  0
 18 47  1  0  0  0  0
 19 48  1  0  0  0  0
 23 49  1  0  0  0  0
M  END
> <pdb_id>
4CLJ

> <uniprot_id>
Q9UM73

> <usmiles>
Fc1cc2c(cc1)C(=O)N(CC3=NN(C(C#N)=C3c4cnc(N)c(O[C@@H]2C)c4)C)C

$$$$
5P8_A_2402
          07192418053D 1   1.00000     0.00000     0
            
 49 52  0  0  0  0            999 V2000
    9.0865   16.6322   12.0519 F   0  0  0  0  0  0  0  0  0  0  0  0
    7.7167   16.6557    5.9188 O   0  0  0  0  0  0  0  0  0  0  0  0
    5.1786   14.6414    9.1448 O   0  0  0  0  0  0  0  0  0  0  0  0
   -0.5508   19.3947    7.5217 N   0  0  0  0  0  0  0  0  0  0  0  0
    3.0398   14.1207   10.8074 N   0  0  0  0  0  0  0  0  0  0  0  0
    3.9051   20.8212    6.6012 N   0  0  0  0  0  0  0  0  0  0  0  0
    1.9983   16.1807   10.1669 N   0  0  0  0  0  0  0  0  0  0  0  0
    2.5700   20.8154    6.6063 N   0  0  0  0  0  0  0  0  0  0  0  0
    6.3479   18.5117    6.4587 N   0  0  0  0  0  0  0  0  0  0  0  0
    1.8785   21.8997    5.9263 C   0  0  0  0  0  0  0  0  0  0  0  0
    5.9908   18.6975    5.0395 C   0  0  0  0  0  0  0  0  0  0  0  0
    7.0804   13.4897    8.2272 C   0  0  0  0  0  0  0  0  0  0  0  0
    0.5883   19.5551    7.4011 C   0  0  0  0  0  0  0  0  0  0  0  0
    2.0050   17.3486    9.4366 C   0  0  0  0  0  0  0  0  0  0  0  0
    5.7453   19.4784    7.4481 C   0  0  0  0  0  0  0  0  0  0  0  0
    9.0134   17.9433   10.0851 C   0  0  0  0  0  0  0  0  0  0  0  0
    8.5448   18.1230    8.7656 C   0  0  0  0  0  0  0  0  0  0  0  0
    7.7981   15.8095   10.2323 C   0  0  0  0  0  0  0  0  0  0  0  0
    4.0921   16.7939    8.4672 C   0  0  0  0  0  0  0  0  0  0  0  0
    8.6392   16.7951   10.8030 C   0  0  0  0  0  0  0  0  0  0  0  0
    7.2448   17.4258    6.7576 C   0  0  0  0  0  0  0  0  0  0  0  0
    3.0568   15.3038   10.0480 C   0  0  0  0  0  0  0  0  0  0  0  0
    6.3662   14.8470    8.3065 C   0  0  2  0  0  0  0  0  0  0  0  0
    4.1492   15.5750    9.1954 C   0  0  0  0  0  0  0  0  0  0  0  0
    4.2568   19.7309    7.2874 C   0  0  0  0  0  0  0  0  0  0  0  0
    2.0068   19.7486    7.2763 C   0  0  0  0  0  0  0  0  0  0  0  0
    3.0394   17.7211    8.5552 C   0  0  0  0  0  0  0  0  0  0  0  0
    7.6891   17.1424    8.1602 C   0  0  0  0  0  0  0  0  0  0  0  0
    7.2957   15.9508    8.8882 C   0  0  0  0  0  0  0  0  0  0  0  0
    3.0917   18.9829    7.7565 C   0  0  0  0  0  0  0  0  0  0  0  0
    3.7964   13.4705   10.7372 H   0  0  0  0  0  0  0  0  0  0  0  0
    2.2712   13.9293   11.4178 H   0  0  0  0  0  0  0  0  0  0  0  0
    0.8906   21.7690    6.0094 H   0  0  0  0  0  0  0  0  0  0  0  0
    2.1355   22.7719    6.3425 H   0  0  0  0  0  0  0  0  0  0  0  0
    2.1341   21.9036    4.9595 H   0  0  0  0  0  0  0  0  0  0  0  0
    6.4487   18.0013    4.4867 H   0  0  0  0  0  0  0  0  0  0  0  0
    5.0004   18.6110    4.9310 H   0  0  0  0  0  0  0  0  0  0  0  0
    6.2810   19.6060    4.7389 H   0  0  0  0  0  0  0  0  0  0  0  0
    7.9015   13.5775    7.6632 H   0  0  0  0  0  0  0  0  0  0  0  0
    7.3380   13.1943    9.1472 H   0  0  0  0  0  0  0  0  0  0  0  0
    6.4667   12.8135    7.8195 H   0  0  0  0  0  0  0  0  0  0  0  0
    1.2282   17.9701    9.5381 H   0  0  0  0  0  0  0  0  0  0  0  0
    6.2189   20.3538    7.3519 H   0  0  0  0  0  0  0  0  0  0  0  0
    5.8992   19.1153    8.3671 H   0  0  0  0  0  0  0  0  0  0  0  0
    9.6077   18.6286   10.5060 H   0  0  0  0  0  0  0  0  0  0  0  0
    8.8104   18.9377    8.2501 H   0  0  0  0  0  0  0  0  0  0  0  0
    7.5488   15.0036   10.7693 H   0  0  0  0  0  0  0  0  0  0  0  0
    4.8510   17.0061    7.8515 H   0  0  0  0  0  0  0  0  0  0  0  0
    6.0749   15.1163    7.3885 H   0  0  0  0  0  0  0  0  0  0  0  0
  1 20  1  0  0  0  0
  2 21  2  0  0  0  0
  3 23  1  0  0  0  0
  3 24  1  0  0  0  0
  4 13  3  0  0  0  0
  5 22  1  0  0  0  0
  6  8  1  0  0  0  0
  6 25  2  0  0  0  0
  7 14  1  0  0  0  0
  7 22  2  0  0  0  0
  8 10  1  0  0  0  0
  8 26  1  0  0  0  0
  9 11  1  0  0  0  0
  9 15  1  0  0  0  0
  9 21  1  0  0  0  0
 12 23  1  0  0  0  0
 13 26  1  0  0  0  0
 14 27  2  0  0  0  0
 15 25  1  0  0  0  0
 16 17  1  0  0  0  0
 16 20  2  0  0  0  0
 17 28  2  0  0  0  0
 18 20  1  0  0  0  0
 18 29  2  0  0  0  0
 19 24  2  0  0  0  0
 19 27  1  0  0  0  0
 21 28  1  0  0  0  0
 22 24  1  0  0  0  0
 23 29  1  0  0  0  0
 25 30  1  0  0  0  0
 26 30  2  0  0  0  0
 27 30  1  0  0  0  0
 28 29  1  0  0  0  0
  5 31  1  0  0  0  0
  5 32  1  0  0  0  0
 10 33  1  0  0  0  0
 10 34  1  0  0  0  0
 10 35  1  0  0  0  0
 11 36  1  0  0  0  0
 11 37  1  0  0  0  0
 11 38  1  0  0  0  0
 12 39  1  0  0  0  0
 12 40  1  0  0  0  0
 12 41  1  0  0  0  0
 14 42  1  0  0  0  0
 15 43  1  0  0  0  0
 15 44  1  0  0  0  0
 16 45  1  0  0  0  0
 17 46  1  0  0  0  0
 18 47  1  0  0  0  0
 19 48  1  0  0  0  0
 23 49  1  0  0  0  0
M  END
> <pdb_id>
5A9U

> <uniprot_id>
Q9UM73

> <usmiles>
Fc1cc2c(cc1)C(=O)N(CC3=NN(C(C#N)=C3c4cnc(N)c(O[C@@H]2C)c4)C)C

$$$$
5PX_A_312
          07202410513D 1   1.00000     0.00000     0
            
 28 30  0  0  0  0            999 V2000
   33.7727  167.2781  -30.5604 S   0  0  0  0  0  0  0  0  0  0  0  0
   35.0154  166.5505  -30.3530 O   0  0  0  0  0  0  0  0  0  0  0  0
   32.9148  166.9695  -31.6859 O   0  0  0  0  0  0  0  0  0  0  0  0
   30.7379  164.4906  -27.5598 O   0  0  0  0  0  0  0  0  0  0  0  0
   34.1199  168.8972  -30.5857 N   0  0  0  0  0  0  0  0  0  0  0  0
   33.6646  169.2243  -28.2296 N   0  0  0  0  0  0  0  0  0  0  0  0
   34.6404  169.3786  -29.3143 C   0  0  0  0  0  0  0  0  0  0  0  0
   31.4615  166.5949  -26.6985 C   0  0  0  0  0  0  0  0  0  0  0  0
   32.4398  171.0343  -26.8121 C   0  0  0  0  0  0  0  0  0  0  0  0
   33.6084  171.7037  -27.4728 C   0  0  0  0  0  0  0  0  0  0  0  0
   32.2092  167.7640  -26.8924 C   0  0  0  0  0  0  0  0  0  0  0  0
   32.1501  165.8530  -28.8908 C   0  0  0  0  0  0  0  0  0  0  0  0
   32.8809  167.0362  -29.0635 C   0  0  0  0  0  0  0  0  0  0  0  0
   31.4528  165.6398  -27.7124 C   0  0  0  0  0  0  0  0  0  0  0  0
   33.6769  170.2332  -27.1548 C   0  0  0  0  0  0  0  0  0  0  0  0
   32.9365  168.0281  -28.0760 C   0  0  0  0  0  0  0  0  0  0  0  0
   30.7318  163.8051  -28.2878 H   0  0  0  0  0  0  0  0  0  0  0  0
   33.2831  169.4008  -30.8003 H   0  0  0  0  0  0  0  0  0  0  0  0
   34.8717  170.3472  -29.4056 H   0  0  0  0  0  0  0  0  0  0  0  0
   35.4637  168.8595  -29.0847 H   0  0  0  0  0  0  0  0  0  0  0  0
   30.9470  166.4498  -25.8534 H   0  0  0  0  0  0  0  0  0  0  0  0
   31.5924  170.8888  -27.3229 H   0  0  0  0  0  0  0  0  0  0  0  0
   32.2228  171.2353  -25.8568 H   0  0  0  0  0  0  0  0  0  0  0  0
   34.1686  172.3522  -26.9575 H   0  0  0  0  0  0  0  0  0  0  0  0
   33.5382  172.0058  -28.4235 H   0  0  0  0  0  0  0  0  0  0  0  0
   32.2294  168.4436  -26.1591 H   0  0  0  0  0  0  0  0  0  0  0  0
   32.1317  165.1646  -29.6159 H   0  0  0  0  0  0  0  0  0  0  0  0
   34.2545  170.0020  -26.3719 H   0  0  0  0  0  0  0  0  0  0  0  0
  1  2  2  0  0  0  0
  1  3  2  0  0  0  0
  1  5  1  0  0  0  0
  1 13  1  0  0  0  0
  4 14  1  0  0  0  0
  5  7  1  0  0  0  0
  6  7  1  0  0  0  0
  6 15  1  0  0  0  0
  6 16  1  0  0  0  0
  8 11  1  0  0  0  0
  8 14  2  0  0  0  0
  9 10  1  0  0  0  0
  9 15  1  0  0  0  0
 10 15  1  0  0  0  0
 11 16  2  0  0  0  0
 12 13  2  0  0  0  0
 12 14  1  0  0  0  0
 13 16  1  0  0  0  0
  4 17  1  0  0  0  0
  5 18  1  0  0  0  0
  7 19  1  0  0  0  0
  7 20  1  0  0  0  0
  8 21  1  0  0  0  0
  9 22  1  0  0  0  0
  9 23  1  0  0  0  0
 10 24  1  0  0  0  0
 10 25  1  0  0  0  0
 11 26  1  0  0  0  0
 12 27  1  0  0  0  0
 15 28  1  0  0  0  0
M  END
> <pdb_id>
5ELV

> <uniprot_id>
P19491

> <usmiles>
S1(=O)(=O)NCN(c2c1cc(O)cc2)C3CC3

$$$$
5Q1_A_818
          07202412173D 1   1.00000     0.00000     0
            
 35 35  0  0  0  0            999 V2000
   16.7349   42.4920   44.6095 O   0  0  0  0  0  0  0  0  0  0  0  0
   25.2776   44.2991   38.6721 O   0  0  0  0  0  0  0  0  0  0  0  0
   25.9173   42.7415   40.1436 O   0  0  0  0  0  0  0  0  0  0  0  0
   19.9878   45.1405   46.5091 O   0  0  0  0  0  0  0  0  0  0  0  0
   19.5982   47.1475   45.4779 O   0  0  0  0  0  0  0  0  0  0  0  0
   18.4866   42.9304   42.6551 O   0  0  0  0  0  0  0  0  0  0  0  0
   17.0730   43.7845   44.2089 N   0  0  0  0  0  0  0  0  0  0  0  0
   18.2802   45.4387   42.9846 C   0  0  0  0  0  0  0  0  0  0  0  0
   22.8664   46.0996   41.7053 C   0  0  0  0  0  0  0  0  0  0  0  0
   23.5317   44.2739   43.1796 C   0  0  0  0  0  0  0  0  0  0  0  0
   19.7790   45.8519   42.9820 C   0  0  0  0  0  0  0  0  0  0  0  0
   23.6311   45.5645   40.6487 C   0  0  0  0  0  0  0  0  0  0  0  0
   24.3335   43.7688   42.1299 C   0  0  0  0  0  0  0  0  0  0  0  0
   22.0108   46.0325   44.0880 C   0  0  0  0  0  0  0  0  0  0  0  0
   25.2581   43.7618   39.7970 C   0  0  0  0  0  0  0  0  0  0  0  0
   19.9921   45.9427   45.5203 C   0  0  0  0  0  0  0  0  0  0  0  0
   17.9913   43.9391   43.2640 C   0  0  0  0  0  0  0  0  0  0  0  0
   22.8341   45.4483   42.9352 C   0  0  0  0  0  0  0  0  0  0  0  0
   24.3728   44.4141   40.9070 C   0  0  0  0  0  0  0  0  0  0  0  0
   20.5929   45.3880   44.1913 C   0  0  1  0  0  0  0  0  0  0  0  0
   16.0352   42.5364   45.3226 H   0  0  0  0  0  0  0  0  0  0  0  0
   24.7171   45.1080   38.4946 H   0  0  0  0  0  0  0  0  0  0  0  0
   20.3325   44.2083   46.3982 H   0  0  0  0  0  0  0  0  0  0  0  0
   16.6318   44.5792   44.6257 H   0  0  0  0  0  0  0  0  0  0  0  0
   17.8991   45.6622   42.0875 H   0  0  0  0  0  0  0  0  0  0  0  0
   17.8152   45.9766   43.6877 H   0  0  0  0  0  0  0  0  0  0  0  0
   22.3487   46.9447   41.5716 H   0  0  0  0  0  0  0  0  0  0  0  0
   23.4701   43.8048   44.0606 H   0  0  0  0  0  0  0  0  0  0  0  0
   19.8231   46.8503   42.9457 H   0  0  0  0  0  0  0  0  0  0  0  0
   20.2024   45.4695   42.1607 H   0  0  0  0  0  0  0  0  0  0  0  0
   23.6407   45.9953   39.7463 H   0  0  0  0  0  0  0  0  0  0  0  0
   24.8751   42.9404   42.2725 H   0  0  0  0  0  0  0  0  0  0  0  0
   21.9068   47.0163   43.9423 H   0  0  0  0  0  0  0  0  0  0  0  0
   22.4998   45.8724   44.9455 H   0  0  0  0  0  0  0  0  0  0  0  0
   20.6557   44.3904   44.2174 H   0  0  0  0  0  0  0  0  0  0  0  0
  1  7  1  0  0  0  0
  2 15  1  0  0  0  0
  3 15  2  0  0  0  0
  4 16  1  0  0  0  0
  5 16  2  0  0  0  0
  6 17  2  0  0  0  0
  7 17  1  0  0  0  0
  8 11  1  0  0  0  0
  8 17  1  0  0  0  0
  9 12  1  0  0  0  0
  9 18  2  0  0  0  0
 10 13  2  0  0  0  0
 10 18  1  0  0  0  0
 11 20  1  0  0  0  0
 12 19  2  0  0  0  0
 13 19  1  0  0  0  0
 14 18  1  0  0  0  0
 14 20  1  0  0  0  0
 15 19  1  0  0  0  0
 16 20  1  0  0  0  0
  1 21  1  0  0  0  0
  2 22  1  0  0  0  0
  4 23  1  0  0  0  0
  7 24  1  0  0  0  0
  8 25  1  0  0  0  0
  8 26  1  0  0  0  0
  9 27  1  0  0  0  0
 10 28  1  0  0  0  0
 11 29  1  0  0  0  0
 11 30  1  0  0  0  0
 12 31  1  0  0  0  0
 13 32  1  0  0  0  0
 14 33  1  0  0  0  0
 14 34  1  0  0  0  0
 20 35  1  0  0  0  0
M  END
> <pdb_id>
5D29

> <uniprot_id>
Q04609

> <usmiles>
O=C(O)c1ccc(cc1)C[C@@H](C(=O)O)CCC(=O)NO

$$$$
5Q6_A_302
          07202416133D 1   1.00000     0.00000     0
            
 36 38  0  0  0  0            999 V2000
   -4.1452   28.6000  -15.1069 F   0  0  0  0  0  0  0  0  0  0  0  0
   -1.4532   28.6636  -14.7835 O   0  0  0  0  0  0  0  0  0  0  0  0
   -7.7292   34.9548  -12.2669 O   0  0  0  0  0  0  0  0  0  0  0  0
   -8.7004   33.0640  -13.9334 O   0  0  0  0  0  0  0  0  0  0  0  0
   -9.1004   30.6027  -14.3693 O   0  0  0  0  0  0  0  0  0  0  0  0
   -6.4685   28.8063  -13.2237 N   0  0  0  0  0  0  0  0  0  0  0  0
   -2.4960   27.0328  -11.6954 C   0  0  0  0  0  0  0  0  0  0  0  0
   -7.2331   31.9764  -10.2376 C   0  0  0  0  0  0  0  0  0  0  0  0
   -8.0587   26.5333  -13.3382 C   0  0  0  0  0  0  0  0  0  0  0  0
   -1.6788   27.5908  -12.6642 C   0  0  0  0  0  0  0  0  0  0  0  0
   -7.3022   33.3117  -10.5918 C   0  0  0  0  0  0  0  0  0  0  0  0
   -8.6340   27.7897  -13.3983 C   0  0  0  0  0  0  0  0  0  0  0  0
   -6.6888   26.4169  -13.2194 C   0  0  0  0  0  0  0  0  0  0  0  0
   -7.5909   30.9895  -11.1446 C   0  0  0  0  0  0  0  0  0  0  0  0
   -3.8699   27.0052  -11.8711 C   0  0  0  0  0  0  0  0  0  0  0  0
   -2.2374   28.1203  -13.8217 C   0  0  0  0  0  0  0  0  0  0  0  0
   -7.7269   33.6701  -11.8639 C   0  0  0  0  0  0  0  0  0  0  0  0
   -3.6134   28.0847  -13.9854 C   0  0  0  0  0  0  0  0  0  0  0  0
   -8.1256   32.6894  -12.7690 C   0  0  0  0  0  0  0  0  0  0  0  0
   -8.3727   30.2908  -13.4276 C   0  0  0  0  0  0  0  0  0  0  0  0
   -7.8036   28.8984  -13.3375 C   0  0  0  0  0  0  0  0  0  0  0  0
   -5.9210   27.5761  -13.1617 C   0  0  0  0  0  0  0  0  0  0  0  0
   -8.0337   31.3300  -12.4207 C   0  0  0  0  0  0  0  0  0  0  0  0
   -4.4435   27.5408  -13.0247 C   0  0  0  0  0  0  0  0  0  0  0  0
   -1.8671   29.0413  -15.6118 H   0  0  0  0  0  0  0  0  0  0  0  0
   -8.0396   35.1893  -13.1881 H   0  0  0  0  0  0  0  0  0  0  0  0
   -8.9917   32.3710  -14.5928 H   0  0  0  0  0  0  0  0  0  0  0  0
   -2.0926   26.6480  -10.8652 H   0  0  0  0  0  0  0  0  0  0  0  0
   -6.9233   31.7208   -9.3218 H   0  0  0  0  0  0  0  0  0  0  0  0
   -8.6317   25.7148  -13.3806 H   0  0  0  0  0  0  0  0  0  0  0  0
   -0.6879   27.6129  -12.5311 H   0  0  0  0  0  0  0  0  0  0  0  0
   -7.0464   34.0183   -9.9320 H   0  0  0  0  0  0  0  0  0  0  0  0
   -9.6247   27.8959  -13.4835 H   0  0  0  0  0  0  0  0  0  0  0  0
   -6.2560   25.5165  -13.1755 H   0  0  0  0  0  0  0  0  0  0  0  0
   -7.5305   30.0269  -10.8804 H   0  0  0  0  0  0  0  0  0  0  0  0
   -4.4534   26.5994  -11.1677 H   0  0  0  0  0  0  0  0  0  0  0  0
  1 18  1  0  0  0  0
  2 16  1  0  0  0  0
  3 17  1  0  0  0  0
  4 19  1  0  0  0  0
  5 20  2  0  0  0  0
  6 21  2  0  0  0  0
  6 22  1  0  0  0  0
  7 10  1  0  0  0  0
  7 15  2  0  0  0  0
  8 11  1  0  0  0  0
  8 14  2  0  0  0  0
  9 12  2  0  0  0  0
  9 13  1  0  0  0  0
 10 16  2  0  0  0  0
 11 17  2  0  0  0  0
 12 21  1  0  0  0  0
 13 22  2  0  0  0  0
 14 23  1  0  0  0  0
 15 24  1  0  0  0  0
 16 18  1  0  0  0  0
 17 19  1  0  0  0  0
 18 24  2  0  0  0  0
 19 23  2  0  0  0  0
 20 21  1  0  0  0  0
 20 23  1  0  0  0  0
 22 24  1  0  0  0  0
  2 25  1  0  0  0  0
  3 26  1  0  0  0  0
  4 27  1  0  0  0  0
  7 28  1  0  0  0  0
  8 29  1  0  0  0  0
  9 30  1  0  0  0  0
 10 31  1  0  0  0  0
 11 32  1  0  0  0  0
 12 33  1  0  0  0  0
 13 34  1  0  0  0  0
 14 35  1  0  0  0  0
 15 36  1  0  0  0  0
M  END
> <pdb_id>
5EN4

> <uniprot_id>
Q9BPX1

> <usmiles>
Fc1c(O)cccc1c2nc(ccc2)C(=O)c3c(O)c(O)ccc3

$$$$
5QM_D_1334
          07202406023D 1   1.00000     0.00000     0
            
 23 24  0  0  0  0            999 V2000
   -8.0633   -5.8656    8.5256 O   0  0  0  0  0  0  0  0  0  0  0  0
   -4.2272   -7.3470    0.3598 N   0  0  0  0  0  0  0  0  0  0  0  0
   -8.0255   -7.2099    6.5237 C   0  0  0  0  0  0  0  0  0  0  0  0
   -7.3759   -7.6281    5.6118 C   0  0  0  0  0  0  0  0  0  0  0  0
   -3.8872   -8.6348    0.3122 C   0  0  0  0  0  0  0  0  0  0  0  0
   -4.9462   -6.8994    1.3950 C   0  0  0  0  0  0  0  0  0  0  0  0
   -4.2550   -9.5488    1.2835 C   0  0  0  0  0  0  0  0  0  0  0  0
   -6.2063   -9.4707    4.4847 C   0  0  0  0  0  0  0  0  0  0  0  0
   -5.4424   -9.9655    3.4379 C   0  0  0  0  0  0  0  0  0  0  0  0
   -6.1923   -7.2801    3.4896 C   0  0  0  0  0  0  0  0  0  0  0  0
   -8.8233   -6.6961    7.6436 C   0  0  0  0  0  0  0  0  0  0  0  0
   -6.5948   -8.1298    4.5155 C   0  0  0  0  0  0  0  0  0  0  0  0
   -5.4096   -7.7411    2.4271 C   0  0  0  0  0  0  0  0  0  0  0  0
   -5.0363   -9.1120    2.3844 C   0  0  0  0  0  0  0  0  0  0  0  0
   -8.4972   -5.7584    9.2596 H   0  0  0  0  0  0  0  0  0  0  0  0
   -3.3672   -8.9299   -0.4133 H   0  0  0  0  0  0  0  0  0  0  0  0
   -5.2048   -5.9988    1.3986 H   0  0  0  0  0  0  0  0  0  0  0  0
   -3.9821  -10.4515    1.2191 H   0  0  0  0  0  0  0  0  0  0  0  0
   -6.4887  -10.0510    5.1738 H   0  0  0  0  0  0  0  0  0  0  0  0
   -5.2118  -10.8815    3.4141 H   0  0  0  0  0  0  0  0  0  0  0  0
   -6.4170   -6.3684    3.5318 H   0  0  0  0  0  0  0  0  0  0  0  0
   -9.1915   -7.4479    8.1500 H   0  0  0  0  0  0  0  0  0  0  0  0
   -9.5811   -6.1814    7.2921 H   0  0  0  0  0  0  0  0  0  0  0  0
  1 11  1  0  0  0  0
  1 15  1  0  0  0  0
  2  5  2  0  0  0  0
  2  6  1  0  0  0  0
  3  4  3  0  0  0  0
  3 11  1  0  0  0  0
  4 12  1  0  0  0  0
  5  7  1  0  0  0  0
  5 16  1  0  0  0  0
  6 13  2  0  0  0  0
  6 17  1  0  0  0  0
  7 14  2  0  0  0  0
  7 18  1  0  0  0  0
  8  9  2  0  0  0  0
  8 12  1  0  0  0  0
  8 19  1  0  0  0  0
  9 14  1  0  0  0  0
  9 20  1  0  0  0  0
 10 12  2  0  0  0  0
 10 13  1  0  0  0  0
 10 21  1  0  0  0  0
 11 22  1  0  0  0  0
 11 23  1  0  0  0  0
 13 14  1  0  0  0  0
M  END
> <pdb_id>
4UMP

> <uniprot_id>
Q14680

> <usmiles>
OCC#Cc1cc2c(ccnc2)cc1

$$$$
5QQ_A_1401
          07202415303D 1   1.00000     0.00000     0
            
 40 44  0  0  0  0            999 V2000
   -8.9341  -13.5345   15.2941 F   0  0  0  0  0  0  0  0  0  0  0  0
    1.0077  -13.3321   17.3153 F   0  0  0  0  0  0  0  0  0  0  0  0
   -0.9320  -12.6293   16.5758 F   0  0  0  0  0  0  0  0  0  0  0  0
   -1.0691  -14.0490   20.7489 N   0  0  0  0  0  0  0  0  0  0  0  0
   -0.1759  -13.9183   19.7353 N   0  0  0  0  0  0  0  0  0  0  0  0
   -3.3091  -13.7741   18.0449 N   0  0  0  0  0  0  0  0  0  0  0  0
   -3.5769  -14.1000   20.7695 N   0  0  0  0  0  0  0  0  0  0  0  0
   -0.6484  -18.3768   14.1035 N   0  0  0  0  0  0  0  0  0  0  0  0
   -2.1994  -13.8502   18.8681 N   0  0  0  0  0  0  0  0  0  0  0  0
   -1.4592  -18.4618   13.0237 C   0  0  0  0  0  0  0  0  0  0  0  0
   -4.6798  -14.0273   19.9861 C   0  0  0  0  0  0  0  0  0  0  0  0
   -2.2424  -17.3707   12.6345 C   0  0  0  0  0  0  0  0  0  0  0  0
   -8.0323  -13.6040   17.4747 C   0  0  0  0  0  0  0  0  0  0  0  0
   -6.5897  -13.7169   15.5608 C   0  0  0  0  0  0  0  0  0  0  0  0
   -2.1971  -16.1840   13.3658 C   0  0  0  0  0  0  0  0  0  0  0  0
    0.2944  -17.1762   15.9833 C   0  0  0  0  0  0  0  0  0  0  0  0
   -6.9270  -13.6949   18.3088 C   0  0  0  0  0  0  0  0  0  0  0  0
   -5.4848  -13.7974   16.3944 C   0  0  0  0  0  0  0  0  0  0  0  0
    0.3679  -16.0044   16.7321 C   0  0  0  0  0  0  0  0  0  0  0  0
   -1.2424  -14.9308   15.2731 C   0  0  0  0  0  0  0  0  0  0  0  0
   -2.3321  -14.0007   20.1927 C   0  0  0  0  0  0  0  0  0  0  0  0
   -7.8624  -13.6169   16.1019 C   0  0  0  0  0  0  0  0  0  0  0  0
   -0.8597  -13.8052   18.5810 C   0  0  0  0  0  0  0  0  0  0  0  0
   -4.5363  -13.8655   18.5962 C   0  0  0  0  0  0  0  0  0  0  0  0
   -0.5658  -17.2197   14.8472 C   0  0  0  0  0  0  0  0  0  0  0  0
   -5.6563  -13.7867   17.7687 C   0  0  0  0  0  0  0  0  0  0  0  0
   -1.3263  -16.1253   14.5037 C   0  0  0  0  0  0  0  0  0  0  0  0
   -0.3953  -14.8900   16.3793 C   0  0  0  0  0  0  0  0  0  0  0  0
   -0.2877  -13.6262   17.1957 C   0  0  0  0  0  0  0  0  0  0  0  0
   -1.4987  -19.3123   12.4993 H   0  0  0  0  0  0  0  0  0  0  0  0
   -5.5909  -14.0883   20.3937 H   0  0  0  0  0  0  0  0  0  0  0  0
   -2.8348  -17.4413   11.8320 H   0  0  0  0  0  0  0  0  0  0  0  0
   -8.9498  -13.5293   17.8653 H   0  0  0  0  0  0  0  0  0  0  0  0
   -6.4686  -13.7311   14.5682 H   0  0  0  0  0  0  0  0  0  0  0  0
   -2.7557  -15.3968   13.1043 H   0  0  0  0  0  0  0  0  0  0  0  0
    0.8374  -17.9761   16.2389 H   0  0  0  0  0  0  0  0  0  0  0  0
   -7.0489  -13.6941   19.3013 H   0  0  0  0  0  0  0  0  0  0  0  0
   -4.5663  -13.8629   16.0043 H   0  0  0  0  0  0  0  0  0  0  0  0
    0.9716  -15.9609   17.5281 H   0  0  0  0  0  0  0  0  0  0  0  0
   -1.7853  -14.1293   15.0226 H   0  0  0  0  0  0  0  0  0  0  0  0
  1 22  1  0  0  0  0
  2 29  1  0  0  0  0
  3 29  1  0  0  0  0
  4  5  1  0  0  0  0
  4 21  2  0  0  0  0
  5 23  2  0  0  0  0
  6  9  1  0  0  0  0
  6 24  2  0  0  0  0
  7 11  2  0  0  0  0
  7 21  1  0  0  0  0
  8 10  2  0  0  0  0
  8 25  1  0  0  0  0
  9 21  1  0  0  0  0
  9 23  1  0  0  0  0
 10 12  1  0  0  0  0
 11 24  1  0  0  0  0
 12 15  2  0  0  0  0
 13 17  1  0  0  0  0
 13 22  2  0  0  0  0
 14 18  2  0  0  0  0
 14 22  1  0  0  0  0
 15 27  1  0  0  0  0
 16 19  1  0  0  0  0
 16 25  2  0  0  0  0
 17 26  2  0  0  0  0
 18 26  1  0  0  0  0
 19 28  2  0  0  0  0
 20 27  2  0  0  0  0
 20 28  1  0  0  0  0
 23 29  1  0  0  0  0
 24 26  1  0  0  0  0
 25 27  1  0  0  0  0
 28 29  1  0  0  0  0
 10 30  1  0  0  0  0
 11 31  1  0  0  0  0
 12 32  1  0  0  0  0
 13 33  1  0  0  0  0
 14 34  1  0  0  0  0
 15 35  1  0  0  0  0
 16 36  1  0  0  0  0
 17 37  1  0  0  0  0
 18 38  1  0  0  0  0
 19 39  1  0  0  0  0
 20 40  1  0  0  0  0
M  END
> <pdb_id>
5EOB

> <uniprot_id>
P08581

> <usmiles>
Fc1ccc(cc1)C2=NN3C(=NN=C3C(F)(F)c4cc5c(nccc5)cc4)N=C2

$$$$
5QR_A_1201
          07192420223D 1   1.00000     0.00000     0
            
 32 33  0  0  0  0            999 V2000
   14.5306    9.3663    7.2463 O   0  0  0  0  0  0  0  0  0  0  0  0
   16.0730    8.4368    8.3215 O   0  0  0  0  0  0  0  0  0  0  0  0
   12.0993   13.2702    8.9305 O   0  0  0  0  0  0  0  0  0  0  0  0
    5.9562   14.3833    8.9667 O   0  0  0  0  0  0  0  0  0  0  0  0
   11.4794   11.5037   10.3522 N   0  0  0  0  0  0  0  0  0  0  0  0
    7.4357   12.7649    9.1879 N   0  0  0  0  0  0  0  0  0  0  0  0
    6.3940   11.7031    9.1290 C   0  0  0  0  0  0  0  0  0  0  0  0
    8.6891   12.3487    9.3164 C   0  0  0  0  0  0  0  0  0  0  0  0
   14.3165    9.7522   12.0209 C   0  0  0  0  0  0  0  0  0  0  0  0
   13.1638   10.4714   11.8917 C   0  0  0  0  0  0  0  0  0  0  0  0
    8.1879   14.9686    9.1468 C   0  0  0  0  0  0  0  0  0  0  0  0
   14.8961    9.2451   10.8796 C   0  0  0  0  0  0  0  0  0  0  0  0
    9.5183   14.5737    9.2560 C   0  0  0  0  0  0  0  0  0  0  0  0
   13.2382   10.2806    9.5315 C   0  0  0  0  0  0  0  0  0  0  0  0
   14.9919    9.0597    8.3418 C   0  0  0  0  0  0  0  0  0  0  0  0
   11.2743   12.6544    9.4900 C   0  0  0  0  0  0  0  0  0  0  0  0
    7.0998   14.0432    9.0910 C   0  0  0  0  0  0  0  0  0  0  0  0
   12.7184   10.7253   10.6211 C   0  0  0  0  0  0  0  0  0  0  0  0
    9.7910   13.2285    9.3818 C   0  0  0  0  0  0  0  0  0  0  0  0
   14.3796    9.4848    9.6447 C   0  0  0  0  0  0  0  0  0  0  0  0
   13.6666    9.8667    7.1898 H   0  0  0  0  0  0  0  0  0  0  0  0
   10.6650   11.1869   10.8384 H   0  0  0  0  0  0  0  0  0  0  0  0
    5.4927   12.1254    9.0324 H   0  0  0  0  0  0  0  0  0  0  0  0
    6.5689   11.1077    8.3448 H   0  0  0  0  0  0  0  0  0  0  0  0
    6.4206   11.1630    9.9701 H   0  0  0  0  0  0  0  0  0  0  0  0
    8.8612   11.3651    9.3695 H   0  0  0  0  0  0  0  0  0  0  0  0
   14.7283    9.5979   12.9190 H   0  0  0  0  0  0  0  0  0  0  0  0
   12.6639   10.8001   12.6929 H   0  0  0  0  0  0  0  0  0  0  0  0
    7.9835   15.9466    9.1053 H   0  0  0  0  0  0  0  0  0  0  0  0
   15.7202    8.6847   10.9611 H   0  0  0  0  0  0  0  0  0  0  0  0
   10.2565   15.2481    9.2435 H   0  0  0  0  0  0  0  0  0  0  0  0
   12.8407   10.4962    8.6396 H   0  0  0  0  0  0  0  0  0  0  0  0
  1 15  1  0  0  0  0
  2 15  2  0  0  0  0
  3 16  2  0  0  0  0
  4 17  2  0  0  0  0
  5 16  1  0  0  0  0
  5 18  1  0  0  0  0
  6  7  1  0  0  0  0
  6  8  1  0  0  0  0
  6 17  1  0  0  0  0
  8 19  2  0  0  0  0
  9 10  2  0  0  0  0
  9 12  1  0  0  0  0
 10 18  1  0  0  0  0
 11 13  2  0  0  0  0
 11 17  1  0  0  0  0
 12 20  2  0  0  0  0
 13 19  1  0  0  0  0
 14 18  2  0  0  0  0
 14 20  1  0  0  0  0
 15 20  1  0  0  0  0
 16 19  1  0  0  0  0
  1 21  1  0  0  0  0
  5 22  1  0  0  0  0
  7 23  1  0  0  0  0
  7 24  1  0  0  0  0
  7 25  1  0  0  0  0
  8 26  1  0  0  0  0
  9 27  1  0  0  0  0
 10 28  1  0  0  0  0
 11 29  1  0  0  0  0
 12 30  1  0  0  0  0
 13 31  1  0  0  0  0
 14 32  1  0  0  0  0
M  END
> <pdb_id>
5EP7

> <uniprot_id>
Q92793

> <usmiles>
O=C(O)c1cc(NC(=O)C2=CN(C(=O)C=C2)C)ccc1

$$$$
5QU_A_503
          07202405583D 1   1.00000     0.00000     0
            
 45 48  0  0  0  0            999 V2000
   66.9160   46.7210    8.1828 S   0  0  0  0  0  0  0  0  0  0  0  0
   70.5504   50.7189   10.0727 F   0  0  0  0  0  0  0  0  0  0  0  0
   73.9381   48.6714    7.5714 F   0  0  0  0  0  0  0  0  0  0  0  0
   67.6234   45.0555   12.5679 O   0  0  0  0  0  0  0  0  0  0  0  0
   65.8061   48.2233    6.2724 N   0  0  0  0  0  0  0  0  0  0  0  0
   66.3523   45.6589   12.6157 N   0  0  0  0  0  0  0  0  0  0  0  0
   73.3037   45.3955    5.1119 N   0  0  0  0  0  0  0  0  0  0  0  0
   71.9524   46.6042    3.6132 N   0  0  0  0  0  0  0  0  0  0  0  0
   67.6151   49.0802    7.2868 N   0  0  0  0  0  0  0  0  0  0  0  0
   69.6773   45.1009   11.1473 C   0  0  0  0  0  0  0  0  0  0  0  0
   65.0274   47.3319   11.2875 C   0  0  0  0  0  0  0  0  0  0  0  0
   72.8071   45.5854    3.8670 C   0  0  0  0  0  0  0  0  0  0  0  0
   72.9553   46.2145    6.1342 C   0  0  0  0  0  0  0  0  0  0  0  0
   71.5794   47.4521    4.5991 C   0  0  0  0  0  0  0  0  0  0  0  0
   72.2013   49.6878    8.8128 C   0  0  0  0  0  0  0  0  0  0  0  0
   67.9421   48.6780    9.7773 C   0  0  0  0  0  0  0  0  0  0  0  0
   70.3196   48.3980    7.2633 C   0  0  0  0  0  0  0  0  0  0  0  0
   66.6502   48.2318    7.3141 C   0  0  0  0  0  0  0  0  0  0  0  0
   67.9098   47.1537    9.6081 C   0  0  1  0  0  0  0  0  0  0  0  0
   70.8466   49.8903    9.0652 C   0  0  0  0  0  0  0  0  0  0  0  0
   72.6266   48.8444    7.7883 C   0  0  0  0  0  0  0  0  0  0  0  0
   68.2738   45.5088   11.5387 C   0  0  0  0  0  0  0  0  0  0  0  0
   66.2610   46.5002   11.5654 C   0  0  0  0  0  0  0  0  0  0  0  0
   68.3937   49.4064    8.4976 C   0  0  1  0  0  0  0  0  0  0  0  0
   72.0777   47.2735    5.8919 C   0  0  0  0  0  0  0  0  0  0  0  0
   69.8873   49.2455    8.2848 C   0  0  0  0  0  0  0  0  0  0  0  0
   71.6742   48.1895    7.0020 C   0  0  0  0  0  0  0  0  0  0  0  0
   67.4684   46.4270   10.8650 C   0  0  0  0  0  0  0  0  0  0  0  0
   65.6354   49.0651    5.7604 H   0  0  0  0  0  0  0  0  0  0  0  0
   65.3473   47.3751    6.0076 H   0  0  0  0  0  0  0  0  0  0  0  0
   69.9485   45.5920   10.3194 H   0  0  0  0  0  0  0  0  0  0  0  0
   70.3087   45.3249   11.8896 H   0  0  0  0  0  0  0  0  0  0  0  0
   69.7022   44.1164   10.9740 H   0  0  0  0  0  0  0  0  0  0  0  0
   65.1740   47.8811   10.4648 H   0  0  0  0  0  0  0  0  0  0  0  0
   64.2423   46.7280   11.1497 H   0  0  0  0  0  0  0  0  0  0  0  0
   64.8508   47.9361   12.0645 H   0  0  0  0  0  0  0  0  0  0  0  0
   73.0742   44.9673    3.1277 H   0  0  0  0  0  0  0  0  0  0  0  0
   73.3226   46.0621    7.0517 H   0  0  0  0  0  0  0  0  0  0  0  0
   70.9495   48.2037    4.4033 H   0  0  0  0  0  0  0  0  0  0  0  0
   72.8811   50.1562    9.3772 H   0  0  0  0  0  0  0  0  0  0  0  0
   68.5768   48.9049   10.5160 H   0  0  0  0  0  0  0  0  0  0  0  0
   67.0241   48.9930   10.0182 H   0  0  0  0  0  0  0  0  0  0  0  0
   69.6387   47.9268    6.7026 H   0  0  0  0  0  0  0  0  0  0  0  0
   68.8458   46.8604    9.4131 H   0  0  0  0  0  0  0  0  0  0  0  0
   68.2433   50.3803    8.6675 H   0  0  0  0  0  0  0  0  0  0  0  0
  1 18  1  0  0  0  0
  1 19  1  0  0  0  0
  2 20  1  0  0  0  0
  3 21  1  0  0  0  0
  4  6  1  0  0  0  0
  4 22  1  0  0  0  0
  5 18  1  0  0  0  0
  6 23  2  0  0  0  0
  7 12  2  0  0  0  0
  7 13  1  0  0  0  0
  8 12  1  0  0  0  0
  8 14  2  0  0  0  0
  9 18  2  0  0  0  0
  9 24  1  0  0  0  0
 10 22  1  0  0  0  0
 11 23  1  0  0  0  0
 13 25  2  0  0  0  0
 14 25  1  0  0  0  0
 15 20  2  0  0  0  0
 15 21  1  0  0  0  0
 16 19  1  0  0  0  0
 16 24  1  0  0  0  0
 17 26  2  0  0  0  0
 17 27  1  0  0  0  0
 19 28  1  0  0  0  0
 20 26  1  0  0  0  0
 21 27  2  0  0  0  0
 22 28  2  0  0  0  0
 23 28  1  0  0  0  0
 24 26  1  0  0  0  0
 25 27  1  0  0  0  0
  5 29  1  0  0  0  0
  5 30  1  0  0  0  0
 10 31  1  0  0  0  0
 10 32  1  0  0  0  0
 10 33  1  0  0  0  0
 11 34  1  0  0  0  0
 11 35  1  0  0  0  0
 11 36  1  0  0  0  0
 12 37  1  0  0  0  0
 13 38  1  0  0  0  0
 14 39  1  0  0  0  0
 15 40  1  0  0  0  0
 16 41  1  0  0  0  0
 16 42  1  0  0  0  0
 17 43  1  0  0  0  0
 19 44  1  0  0  0  0
 24 45  1  0  0  0  0
M  END
> <pdb_id>
5ENM

> <uniprot_id>
P56817

> <usmiles>
S1C(=N[C@H](c2c(F)cc(F)c(c3cncnc3)c2)C[C@H]1C4=C(ON=C4C)C)N

$$$$
5QV_A_503
          07202405583D 1   1.00000     0.00000     0
            
 48 51  0  0  0  0            999 V2000
   66.9332   46.8231    8.2914 S   0  0  0  0  0  0  0  0  0  0  0  0
   73.9402   48.1240    7.8384 F   0  0  0  0  0  0  0  0  0  0  0  0
   70.6750   50.1523   10.5311 F   0  0  0  0  0  0  0  0  0  0  0  0
   67.1968   45.2635   12.7917 O   0  0  0  0  0  0  0  0  0  0  0  0
   66.0821   48.2936    6.2244 N   0  0  0  0  0  0  0  0  0  0  0  0
   65.9459   45.8906   12.6384 N   0  0  0  0  0  0  0  0  0  0  0  0
   73.0437   45.4181    4.8443 N   0  0  0  0  0  0  0  0  0  0  0  0
   71.9170   47.0060    3.5229 N   0  0  0  0  0  0  0  0  0  0  0  0
   67.7122   49.2363    7.4990 N   0  0  0  0  0  0  0  0  0  0  0  0
   69.4099   45.2004   11.6527 C   0  0  0  0  0  0  0  0  0  0  0  0
   64.8499   47.5247   11.0395 C   0  0  0  0  0  0  0  0  0  0  0  0
   68.3715   50.9650    9.0044 C   0  0  0  0  0  0  0  0  0  0  0  0
   72.6305   45.8603    3.6340 C   0  0  0  0  0  0  0  0  0  0  0  0
   72.7471   46.1141    5.9667 C   0  0  0  0  0  0  0  0  0  0  0  0
   71.6019   47.7356    4.6184 C   0  0  0  0  0  0  0  0  0  0  0  0
   72.2970   49.1448    9.1915 C   0  0  0  0  0  0  0  0  0  0  0  0
   70.3419   48.4060    7.3429 C   0  0  0  0  0  0  0  0  0  0  0  0
   67.9340   48.7486    9.9389 C   0  0  0  0  0  0  0  0  0  0  0  0
   66.8618   48.2907    7.3150 C   0  0  0  0  0  0  0  0  0  0  0  0
   67.8603   47.2257    9.7770 C   0  0  1  0  0  0  0  0  0  0  0  0
   72.6529   48.4413    8.0450 C   0  0  0  0  0  0  0  0  0  0  0  0
   70.9626   49.4794    9.4122 C   0  0  0  0  0  0  0  0  0  0  0  0
   67.9783   45.6545   11.8331 C   0  0  0  0  0  0  0  0  0  0  0  0
   65.9998   46.6788   11.5443 C   0  0  0  0  0  0  0  0  0  0  0  0
   72.0214   47.3032    5.8777 C   0  0  0  0  0  0  0  0  0  0  0  0
   71.6765   48.0702    7.1133 C   0  0  0  0  0  0  0  0  0  0  0  0
   67.2887   46.5439   11.0095 C   0  0  0  0  0  0  0  0  0  0  0  0
   69.9731   49.1185    8.4851 C   0  0  0  0  0  0  0  0  0  0  0  0
   68.5036   49.4685    8.7137 C   0  0  1  0  0  0  0  0  0  0  0  0
   66.0238   49.1127    5.6537 H   0  0  0  0  0  0  0  0  0  0  0  0
   65.5589   47.4767    5.9816 H   0  0  0  0  0  0  0  0  0  0  0  0
   69.8000   45.6408   10.8441 H   0  0  0  0  0  0  0  0  0  0  0  0
   69.9438   45.4526   12.4598 H   0  0  0  0  0  0  0  0  0  0  0  0
   69.4324   44.2076   11.5351 H   0  0  0  0  0  0  0  0  0  0  0  0
   65.1344   48.0171   10.2170 H   0  0  0  0  0  0  0  0  0  0  0  0
   64.0722   46.9346   10.8225 H   0  0  0  0  0  0  0  0  0  0  0  0
   64.5837   48.1809   11.7456 H   0  0  0  0  0  0  0  0  0  0  0  0
   68.8922   51.1919    9.8274 H   0  0  0  0  0  0  0  0  0  0  0  0
   68.7277   51.4877    8.2298 H   0  0  0  0  0  0  0  0  0  0  0  0
   67.4083   51.1933    9.1458 H   0  0  0  0  0  0  0  0  0  0  0  0
   72.8544   45.3354    2.8128 H   0  0  0  0  0  0  0  0  0  0  0  0
   73.0476   45.7767    6.8589 H   0  0  0  0  0  0  0  0  0  0  0  0
   71.0720   48.5786    4.5264 H   0  0  0  0  0  0  0  0  0  0  0  0
   72.9968   49.4094    9.8550 H   0  0  0  0  0  0  0  0  0  0  0  0
   69.6424   48.1334    6.6824 H   0  0  0  0  0  0  0  0  0  0  0  0
   68.5157   48.9551   10.7256 H   0  0  0  0  0  0  0  0  0  0  0  0
   67.0107   49.0936   10.1073 H   0  0  0  0  0  0  0  0  0  0  0  0
   68.7937   46.8896    9.6512 H   0  0  0  0  0  0  0  0  0  0  0  0
  1 19  1  0  0  0  0
  1 20  1  0  0  0  0
  2 21  1  0  0  0  0
  3 22  1  0  0  0  0
  4  6  1  0  0  0  0
  4 23  1  0  0  0  0
  5 19  1  0  0  0  0
  6 24  2  0  0  0  0
  7 13  2  0  0  0  0
  7 14  1  0  0  0  0
  8 13  1  0  0  0  0
  8 15  2  0  0  0  0
  9 19  2  0  0  0  0
  9 29  1  0  0  0  0
 10 23  1  0  0  0  0
 11 24  1  0  0  0  0
 12 29  1  0  0  0  0
 14 25  2  0  0  0  0
 15 25  1  0  0  0  0
 16 21  2  0  0  0  0
 16 22  1  0  0  0  0
 17 26  2  0  0  0  0
 17 28  1  0  0  0  0
 18 20  1  0  0  0  0
 18 29  1  0  0  0  0
 20 27  1  0  0  0  0
 21 26  1  0  0  0  0
 22 28  2  0  0  0  0
 23 27  2  0  0  0  0
 24 27  1  0  0  0  0
 25 26  1  0  0  0  0
 28 29  1  0  0  0  0
  5 30  1  0  0  0  0
  5 31  1  0  0  0  0
 10 32  1  0  0  0  0
 10 33  1  0  0  0  0
 10 34  1  0  0  0  0
 11 35  1  0  0  0  0
 11 36  1  0  0  0  0
 11 37  1  0  0  0  0
 12 38  1  0  0  0  0
 12 39  1  0  0  0  0
 12 40  1  0  0  0  0
 13 41  1  0  0  0  0
 14 42  1  0  0  0  0
 15 43  1  0  0  0  0
 16 44  1  0  0  0  0
 17 45  1  0  0  0  0
 18 46  1  0  0  0  0
 18 47  1  0  0  0  0
 20 48  1  0  0  0  0
M  END
> <pdb_id>
5ENK

> <uniprot_id>
P56817

> <usmiles>
S1C(=N[C@](c2c(F)cc(F)c(c3cncnc3)c2)(C[C@H]1C4=C(ON=C4C)C)C)N

$$$$
5QX_A_801
          07202409213D 1   1.00000     0.00000     0
            
 22 23  0  0  0  0            999 V2000
    6.9014  -12.9007    1.5918 O   0  0  0  0  0  0  0  0  0  0  0  0
    8.5860  -12.5620    4.7010 N   0  0  0  0  0  0  0  0  0  0  0  0
    6.3656  -11.6851    3.3548 N   0  0  0  0  0  0  0  0  0  0  0  0
    5.0763  -11.3648    2.7148 C   0  0  0  0  0  0  0  0  0  0  0  0
    8.4693  -12.8255    3.2486 C   0  0  0  0  0  0  0  0  0  0  0  0
    7.1193  -10.2600    7.1522 C   0  0  0  0  0  0  0  0  0  0  0  0
    6.0013   -9.8243    6.4485 C   0  0  0  0  0  0  0  0  0  0  0  0
    7.9865  -11.1764    6.5752 C   0  0  0  0  0  0  0  0  0  0  0  0
    5.7476  -10.3022    5.1678 C   0  0  0  0  0  0  0  0  0  0  0  0
    7.2221  -12.4884    2.7108 C   0  0  0  0  0  0  0  0  0  0  0  0
    7.7288  -11.6461    5.2915 C   0  0  0  0  0  0  0  0  0  0  0  0
    6.6177  -11.2096    4.5852 C   0  0  0  0  0  0  0  0  0  0  0  0
    9.2738  -13.0383    5.2486 H   0  0  0  0  0  0  0  0  0  0  0  0
    4.5492  -10.7597    3.3115 H   0  0  0  0  0  0  0  0  0  0  0  0
    5.2423  -10.9088    1.8404 H   0  0  0  0  0  0  0  0  0  0  0  0
    4.5630  -12.2087    2.5585 H   0  0  0  0  0  0  0  0  0  0  0  0
    8.6271  -13.8004    3.0916 H   0  0  0  0  0  0  0  0  0  0  0  0
    9.1710  -12.2936    2.7746 H   0  0  0  0  0  0  0  0  0  0  0  0
    7.2977   -9.9130    8.0730 H   0  0  0  0  0  0  0  0  0  0  0  0
    5.3770   -9.1640    6.8659 H   0  0  0  0  0  0  0  0  0  0  0  0
    8.7896  -11.4965    7.0777 H   0  0  0  0  0  0  0  0  0  0  0  0
    4.9389   -9.9917    4.6681 H   0  0  0  0  0  0  0  0  0  0  0  0
  1 10  2  0  0  0  0
  2  5  1  0  0  0  0
  2 11  1  0  0  0  0
  3  4  1  0  0  0  0
  3 10  1  0  0  0  0
  3 12  1  0  0  0  0
  5 10  1  0  0  0  0
  6  7  2  0  0  0  0
  6  8  1  0  0  0  0
  7  9  1  0  0  0  0
  8 11  2  0  0  0  0
  9 12  2  0  0  0  0
 11 12  1  0  0  0  0
  2 13  1  0  0  0  0
  4 14  1  0  0  0  0
  4 15  1  0  0  0  0
  4 16  1  0  0  0  0
  5 17  1  0  0  0  0
  5 18  1  0  0  0  0
  6 19  1  0  0  0  0
  7 20  1  0  0  0  0
  8 21  1  0  0  0  0
  9 22  1  0  0  0  0
M  END
> <pdb_id>
5EPS

> <uniprot_id>
P55201

> <usmiles>
O=C1N(c2c(NC1)cccc2)C

$$$$
5RM_A_1003
          07202412153D 1   1.00000     0.00000     0
            
 38 39  0  0  0  0            999 V2000
   50.5601   45.3182   64.3476 O   0  0  0  0  0  0  0  0  0  0  0  0
   42.5730   46.0320   64.6630 O   0  0  0  0  0  0  0  0  0  0  0  0
   44.7040   46.9107   66.0912 O   0  0  0  0  0  0  0  0  0  0  0  0
   48.7495   46.2256   63.2538 O   0  0  0  0  0  0  0  0  0  0  0  0
   49.2444   44.0618   62.9204 N   0  0  0  0  0  0  0  0  0  0  0  0
   41.3585   45.5367   64.0845 C   0  0  0  0  0  0  0  0  0  0  0  0
   44.9486   46.2859   68.9219 C   0  0  0  0  0  0  0  0  0  0  0  0
   47.8152   46.7509   61.1541 C   0  0  0  0  0  0  0  0  0  0  0  0
   45.7377   47.4692   66.9030 C   0  0  0  0  0  0  0  0  0  0  0  0
   45.2122   47.6483   68.3260 C   0  0  0  0  0  0  0  0  0  0  0  0
   48.1945   44.3509   61.9618 C   0  0  0  0  0  0  0  0  0  0  0  0
   43.9886   45.4180   62.7976 C   0  0  0  0  0  0  0  0  0  0  0  0
   45.2646   45.3691   62.2398 C   0  0  0  0  0  0  0  0  0  0  0  0
   46.1824   46.3430   64.2360 C   0  0  0  0  0  0  0  0  0  0  0  0
   49.5306   45.1124   63.7073 C   0  0  0  0  0  0  0  0  0  0  0  0
   43.8074   45.9569   64.0744 C   0  0  0  0  0  0  0  0  0  0  0  0
   44.9118   46.4122   64.8081 C   0  0  0  0  0  0  0  0  0  0  0  0
   46.3788   45.8188   62.9577 C   0  0  0  0  0  0  0  0  0  0  0  0
   47.7594   45.7766   62.3366 C   0  0  1  0  0  0  0  0  0  0  0  0
   49.7050   43.1768   62.9881 H   0  0  0  0  0  0  0  0  0  0  0  0
   40.5967   45.7112   64.7084 H   0  0  0  0  0  0  0  0  0  0  0  0
   41.1900   46.0006   63.2148 H   0  0  0  0  0  0  0  0  0  0  0  0
   41.4415   44.5527   63.9268 H   0  0  0  0  0  0  0  0  0  0  0  0
   44.6038   46.3912   69.8547 H   0  0  0  0  0  0  0  0  0  0  0  0
   44.2691   45.8054   68.3676 H   0  0  0  0  0  0  0  0  0  0  0  0
   45.7984   45.7591   68.9382 H   0  0  0  0  0  0  0  0  0  0  0  0
   47.1358   46.4845   60.4704 H   0  0  0  0  0  0  0  0  0  0  0  0
   47.6189   47.6771   61.4758 H   0  0  0  0  0  0  0  0  0  0  0  0
   48.7273   46.7264   60.7448 H   0  0  0  0  0  0  0  0  0  0  0  0
   46.0117   48.3569   66.5328 H   0  0  0  0  0  0  0  0  0  0  0  0
   46.5261   46.8541   66.9118 H   0  0  0  0  0  0  0  0  0  0  0  0
   45.8929   48.1305   68.8775 H   0  0  0  0  0  0  0  0  0  0  0  0
   44.3635   48.1768   68.3069 H   0  0  0  0  0  0  0  0  0  0  0  0
   47.4349   43.7075   62.0570 H   0  0  0  0  0  0  0  0  0  0  0  0
   48.5445   44.3173   61.0256 H   0  0  0  0  0  0  0  0  0  0  0  0
   43.2042   45.0682   62.2855 H   0  0  0  0  0  0  0  0  0  0  0  0
   45.3858   45.0082   61.3151 H   0  0  0  0  0  0  0  0  0  0  0  0
   46.9702   46.6766   64.7536 H   0  0  0  0  0  0  0  0  0  0  0  0
  1 15  2  0  0  0  0
  2  6  1  0  0  0  0
  2 16  1  0  0  0  0
  3  9  1  0  0  0  0
  3 17  1  0  0  0  0
  4 15  1  0  0  0  0
  4 19  1  0  0  0  0
  5 11  1  0  0  0  0
  5 15  1  0  0  0  0
  7 10  1  0  0  0  0
  8 19  1  0  0  0  0
  9 10  1  0  0  0  0
 11 19  1  0  0  0  0
 12 13  2  0  0  0  0
 12 16  1  0  0  0  0
 13 18  1  0  0  0  0
 14 17  1  0  0  0  0
 14 18  2  0  0  0  0
 16 17  2  0  0  0  0
 18 19  1  0  0  0  0
  5 20  1  0  0  0  0
  6 21  1  0  0  0  0
  6 22  1  0  0  0  0
  6 23  1  0  0  0  0
  7 24  1  0  0  0  0
  7 25  1  0  0  0  0
  7 26  1  0  0  0  0
  8 27  1  0  0  0  0
  8 28  1  0  0  0  0
  8 29  1  0  0  0  0
  9 30  1  0  0  0  0
  9 31  1  0  0  0  0
 10 32  1  0  0  0  0
 10 33  1  0  0  0  0
 11 34  1  0  0  0  0
 11 35  1  0  0  0  0
 12 36  1  0  0  0  0
 13 37  1  0  0  0  0
 14 38  1  0  0  0  0
M  END
> <pdb_id>
1XM6

> <uniprot_id>
Q07343

> <usmiles>
O=C1O[C@](c2cc(OCCC)c(OC)cc2)(CN1)C

$$$$
5RO_A_801
          07202409213D 1   1.00000     0.00000     0
            
 24 25  0  0  0  0            999 V2000
    7.0183  -13.0817    1.7234 O   0  0  0  0  0  0  0  0  0  0  0  0
    8.1099  -11.6365    5.7513 N   0  0  0  0  0  0  0  0  0  0  0  0
    9.1312  -13.9029    2.5555 C   0  0  0  0  0  0  0  0  0  0  0  0
    6.5463   -9.6511    7.1798 C   0  0  0  0  0  0  0  0  0  0  0  0
    8.5385  -12.4696    4.8091 C   0  0  0  0  0  0  0  0  0  0  0  0
    4.8779  -10.0349    3.9416 C   0  0  0  0  0  0  0  0  0  0  0  0
    5.1514   -9.5738    5.2218 C   0  0  0  0  0  0  0  0  0  0  0  0
    5.7153  -10.9913    3.3791 C   0  0  0  0  0  0  0  0  0  0  0  0
    7.8483  -13.0713    2.6400 C   0  0  0  0  0  0  0  0  0  0  0  0
    7.0202  -11.0130    5.3057 C   0  0  0  0  0  0  0  0  0  0  0  0
    6.2498  -10.0953    5.8915 C   0  0  0  0  0  0  0  0  0  0  0  0
    7.7064  -12.3600    3.7725 C   0  0  0  0  0  0  0  0  0  0  0  0
    6.7604  -11.4620    4.0655 C   0  0  0  0  0  0  0  0  0  0  0  0
    8.5347  -11.5001    6.6463 H   0  0  0  0  0  0  0  0  0  0  0  0
    9.6728  -13.7655    3.3848 H   0  0  0  0  0  0  0  0  0  0  0  0
    8.8958  -14.8708    2.4676 H   0  0  0  0  0  0  0  0  0  0  0  0
    9.6628  -13.6155    1.7587 H   0  0  0  0  0  0  0  0  0  0  0  0
    7.3614  -10.1232    7.5157 H   0  0  0  0  0  0  0  0  0  0  0  0
    6.7154   -8.6657    7.1620 H   0  0  0  0  0  0  0  0  0  0  0  0
    5.7749   -9.8461    7.7855 H   0  0  0  0  0  0  0  0  0  0  0  0
    9.3374  -13.0682    4.8666 H   0  0  0  0  0  0  0  0  0  0  0  0
    4.0916   -9.6849    3.4324 H   0  0  0  0  0  0  0  0  0  0  0  0
    4.5709   -8.8823    5.6516 H   0  0  0  0  0  0  0  0  0  0  0  0
    5.5345  -11.3290    2.4553 H   0  0  0  0  0  0  0  0  0  0  0  0
  1  9  2  0  0  0  0
  2  5  1  0  0  0  0
  2 10  1  0  0  0  0
  3  9  1  0  0  0  0
  4 11  1  0  0  0  0
  5 12  2  0  0  0  0
  6  7  2  0  0  0  0
  6  8  1  0  0  0  0
  7 11  1  0  0  0  0
  8 13  2  0  0  0  0
  9 12  1  0  0  0  0
 10 11  2  0  0  0  0
 10 13  1  0  0  0  0
 12 13  1  0  0  0  0
  2 14  1  0  0  0  0
  3 15  1  0  0  0  0
  3 16  1  0  0  0  0
  3 17  1  0  0  0  0
  4 18  1  0  0  0  0
  4 19  1  0  0  0  0
  4 20  1  0  0  0  0
  5 21  1  0  0  0  0
  6 22  1  0  0  0  0
  7 23  1  0  0  0  0
  8 24  1  0  0  0  0
M  END
> <pdb_id>
5ETB

> <uniprot_id>
P55201

> <usmiles>
O=C(C=1c2c(NC1)c(ccc2)C)C

$$$$
5RU_A_202
          07202409463D 1   1.00000     0.00000     0
            
 30 32  0  0  0  0            999 V2000
   -7.1885   23.7722  -18.5117 S   0  0  0  0  0  0  0  0  0  0  0  0
  -11.1642   23.7819  -17.2271 F   0  0  0  0  0  0  0  0  0  0  0  0
   -9.4202   18.4241  -18.4119 O   0  0  0  0  0  0  0  0  0  0  0  0
  -12.3828   19.6755  -21.6657 N   0  0  0  0  0  0  0  0  0  0  0  0
   -9.1490   22.6861  -20.0636 N   0  0  0  0  0  0  0  0  0  0  0  0
   -8.2781   21.2832  -18.5864 N   0  0  0  0  0  0  0  0  0  0  0  0
  -10.8585   19.1286  -20.0386 N   0  0  0  0  0  0  0  0  0  0  0  0
  -10.8551   21.2781  -21.0294 N   0  0  0  0  0  0  0  0  0  0  0  0
   -8.3981   24.4008  -17.1057 C   0  0  0  0  0  0  0  0  0  0  0  0
  -11.6198   27.1477  -18.3387 C   0  0  0  0  0  0  0  0  0  0  0  0
  -10.3258   27.6031  -18.2831 C   0  0  0  0  0  0  0  0  0  0  0  0
  -11.8731   25.8540  -17.9598 C   0  0  0  0  0  0  0  0  0  0  0  0
   -9.3260   26.7506  -17.8696 C   0  0  0  0  0  0  0  0  0  0  0  0
   -8.2436   22.5376  -19.0743 C   0  0  0  0  0  0  0  0  0  0  0  0
  -10.8385   25.0248  -17.5552 C   0  0  0  0  0  0  0  0  0  0  0  0
  -11.3439   20.0526  -20.9112 C   0  0  0  0  0  0  0  0  0  0  0  0
   -9.7919   19.3876  -19.1994 C   0  0  0  0  0  0  0  0  0  0  0  0
   -9.8173   21.5179  -20.1932 C   0  0  0  0  0  0  0  0  0  0  0  0
   -9.5301   25.4254  -17.4978 C   0  0  0  0  0  0  0  0  0  0  0  0
   -9.2822   20.6402  -19.2705 C   0  0  0  0  0  0  0  0  0  0  0  0
  -12.7802   20.3144  -22.3244 H   0  0  0  0  0  0  0  0  0  0  0  0
  -12.7617   18.7550  -21.5708 H   0  0  0  0  0  0  0  0  0  0  0  0
   -9.2990   23.5133  -20.6050 H   0  0  0  0  0  0  0  0  0  0  0  0
  -11.2903   18.2273  -20.0032 H   0  0  0  0  0  0  0  0  0  0  0  0
   -7.8350   24.8361  -16.4033 H   0  0  0  0  0  0  0  0  0  0  0  0
   -8.8483   23.5953  -16.7203 H   0  0  0  0  0  0  0  0  0  0  0  0
  -12.3599   27.7448  -18.6481 H   0  0  0  0  0  0  0  0  0  0  0  0
  -10.1110   28.5452  -18.5406 H   0  0  0  0  0  0  0  0  0  0  0  0
  -12.8107   25.5066  -17.9755 H   0  0  0  0  0  0  0  0  0  0  0  0
   -8.3925   27.1075  -17.8343 H   0  0  0  0  0  0  0  0  0  0  0  0
  1  9  1  0  0  0  0
  1 14  1  0  0  0  0
  2 15  1  0  0  0  0
  3 17  2  0  0  0  0
  4 16  1  0  0  0  0
  5 14  1  0  0  0  0
  5 18  1  0  0  0  0
  6 14  2  0  0  0  0
  6 20  1  0  0  0  0
  7 16  1  0  0  0  0
  7 17  1  0  0  0  0
  8 16  2  0  0  0  0
  8 18  1  0  0  0  0
  9 19  1  0  0  0  0
 10 11  2  0  0  0  0
 10 12  1  0  0  0  0
 11 13  1  0  0  0  0
 12 15  2  0  0  0  0
 13 19  2  0  0  0  0
 15 19  1  0  0  0  0
 17 20  1  0  0  0  0
 18 20  2  0  0  0  0
  4 21  1  0  0  0  0
  4 22  1  0  0  0  0
  5 23  1  0  0  0  0
  7 24  1  0  0  0  0
  9 25  1  0  0  0  0
  9 26  1  0  0  0  0
 10 27  1  0  0  0  0
 11 28  1  0  0  0  0
 12 29  1  0  0  0  0
 13 30  1  0  0  0  0
M  END
> <pdb_id>
5ETK

> <uniprot_id>
P26281

> <usmiles>
S(C1=NC=2C(=O)NC(=NC2N1)N)Cc3c(F)cccc3

$$$$
5RW_A_201
          07202409463D 1   1.00000     0.00000     0
            
 30 32  0  0  0  0            999 V2000
   -7.0399   23.6995  -18.5970 S   0  0  0  0  0  0  0  0  0  0  0  0
  -12.8198   27.5351  -17.9210 F   0  0  0  0  0  0  0  0  0  0  0  0
   -9.3124   18.4066  -18.3472 O   0  0  0  0  0  0  0  0  0  0  0  0
  -12.3696   19.6654  -21.7578 N   0  0  0  0  0  0  0  0  0  0  0  0
   -9.1047   22.6251  -20.0951 N   0  0  0  0  0  0  0  0  0  0  0  0
   -8.1982   21.2232  -18.6278 N   0  0  0  0  0  0  0  0  0  0  0  0
  -10.8302   19.1436  -20.0632 N   0  0  0  0  0  0  0  0  0  0  0  0
  -10.8514   21.2748  -21.1116 N   0  0  0  0  0  0  0  0  0  0  0  0
   -8.1188   24.4050  -17.2974 C   0  0  0  0  0  0  0  0  0  0  0  0
  -10.4905   27.3666  -17.9187 C   0  0  0  0  0  0  0  0  0  0  0  0
  -11.7835   25.4434  -17.4878 C   0  0  0  0  0  0  0  0  0  0  0  0
   -9.3555   26.5953  -17.7742 C   0  0  0  0  0  0  0  0  0  0  0  0
  -10.6415   24.6672  -17.3582 C   0  0  0  0  0  0  0  0  0  0  0  0
   -8.1560   22.4396  -19.1169 C   0  0  0  0  0  0  0  0  0  0  0  0
  -11.7149   26.7776  -17.7726 C   0  0  0  0  0  0  0  0  0  0  0  0
  -11.3104   20.0783  -20.9779 C   0  0  0  0  0  0  0  0  0  0  0  0
   -9.7346   19.2824  -19.1458 C   0  0  0  0  0  0  0  0  0  0  0  0
   -9.8050   21.4603  -20.2283 C   0  0  0  0  0  0  0  0  0  0  0  0
   -9.3910   25.2514  -17.5033 C   0  0  0  0  0  0  0  0  0  0  0  0
   -9.2434   20.6053  -19.2980 C   0  0  0  0  0  0  0  0  0  0  0  0
  -12.7636   20.2865  -22.4354 H   0  0  0  0  0  0  0  0  0  0  0  0
  -12.7440   18.7449  -21.6460 H   0  0  0  0  0  0  0  0  0  0  0  0
   -9.2552   23.4648  -20.6168 H   0  0  0  0  0  0  0  0  0  0  0  0
  -11.3088   18.2658  -20.0431 H   0  0  0  0  0  0  0  0  0  0  0  0
   -7.5144   24.9792  -16.7451 H   0  0  0  0  0  0  0  0  0  0  0  0
   -8.4177   23.6188  -16.7565 H   0  0  0  0  0  0  0  0  0  0  0  0
  -10.4182   28.3419  -18.1272 H   0  0  0  0  0  0  0  0  0  0  0  0
  -12.6797   25.0156  -17.3697 H   0  0  0  0  0  0  0  0  0  0  0  0
   -8.4640   27.0377  -17.8717 H   0  0  0  0  0  0  0  0  0  0  0  0
  -10.7188   23.6899  -17.1610 H   0  0  0  0  0  0  0  0  0  0  0  0
  1  9  1  0  0  0  0
  1 14  1  0  0  0  0
  2 15  1  0  0  0  0
  3 17  2  0  0  0  0
  4 16  1  0  0  0  0
  5 14  1  0  0  0  0
  5 18  1  0  0  0  0
  6 14  2  0  0  0  0
  6 20  1  0  0  0  0
  7 16  1  0  0  0  0
  7 17  1  0  0  0  0
  8 16  2  0  0  0  0
  8 18  1  0  0  0  0
  9 19  1  0  0  0  0
 10 12  2  0  0  0  0
 10 15  1  0  0  0  0
 11 13  1  0  0  0  0
 11 15  2  0  0  0  0
 12 19  1  0  0  0  0
 13 19  2  0  0  0  0
 17 20  1  0  0  0  0
 18 20  2  0  0  0  0
  4 21  1  0  0  0  0
  4 22  1  0  0  0  0
  5 23  1  0  0  0  0
  7 24  1  0  0  0  0
  9 25  1  0  0  0  0
  9 26  1  0  0  0  0
 10 27  1  0  0  0  0
 11 28  1  0  0  0  0
 12 29  1  0  0  0  0
 13 30  1  0  0  0  0
M  END
> <pdb_id>
5ETM

> <uniprot_id>
P26281

> <usmiles>
S(C1=NC=2C(=O)NC(=NC2N1)N)Cc3ccc(F)cc3

$$$$
5RW_B_202
          07202409473D 1   1.00000     0.00000     0
            
 30 32  0  0  0  0            999 V2000
   30.3604    2.6267  -20.8157 S   0  0  0  0  0  0  0  0  0  0  0  0
   33.0194    7.4481  -24.7369 F   0  0  0  0  0  0  0  0  0  0  0  0
   25.7816    4.1407  -24.0662 O   0  0  0  0  0  0  0  0  0  0  0  0
   25.2820    7.9048  -21.5296 N   0  0  0  0  0  0  0  0  0  0  0  0
   28.7372    4.8424  -20.6349 N   0  0  0  0  0  0  0  0  0  0  0  0
   28.2272    3.4474  -22.3023 N   0  0  0  0  0  0  0  0  0  0  0  0
   25.6310    6.0035  -22.7597 N   0  0  0  0  0  0  0  0  0  0  0  0
   27.0741    6.5240  -20.9561 N   0  0  0  0  0  0  0  0  0  0  0  0
   31.8085    3.9793  -20.4474 C   0  0  0  0  0  0  0  0  0  0  0  0
   33.1829    5.3415  -23.7619 C   0  0  0  0  0  0  0  0  0  0  0  0
   32.0481    7.1047  -22.6326 C   0  0  0  0  0  0  0  0  0  0  0  0
   32.8638    4.5253  -22.6876 C   0  0  0  0  0  0  0  0  0  0  0  0
   31.7770    6.2786  -21.5615 C   0  0  0  0  0  0  0  0  0  0  0  0
   29.0258    3.6636  -21.2783 C   0  0  0  0  0  0  0  0  0  0  0  0
   32.7422    6.6371  -23.6927 C   0  0  0  0  0  0  0  0  0  0  0  0
   26.0228    6.8104  -21.7162 C   0  0  0  0  0  0  0  0  0  0  0  0
   26.2365    4.8210  -23.1071 C   0  0  0  0  0  0  0  0  0  0  0  0
   27.6566    5.3744  -21.2504 C   0  0  0  0  0  0  0  0  0  0  0  0
   32.1799    4.9489  -21.5815 C   0  0  0  0  0  0  0  0  0  0  0  0
   27.3641    4.5217  -22.2653 C   0  0  0  0  0  0  0  0  0  0  0  0
   25.5057    8.5399  -20.7902 H   0  0  0  0  0  0  0  0  0  0  0  0
   24.5034    8.0897  -22.1291 H   0  0  0  0  0  0  0  0  0  0  0  0
   29.2321    5.2331  -19.8588 H   0  0  0  0  0  0  0  0  0  0  0  0
   24.8473    6.3001  -23.3054 H   0  0  0  0  0  0  0  0  0  0  0  0
   32.6357    3.4734  -20.2030 H   0  0  0  0  0  0  0  0  0  0  0  0
   31.5121    4.5304  -19.6674 H   0  0  0  0  0  0  0  0  0  0  0  0
   33.7060    5.0034  -24.5442 H   0  0  0  0  0  0  0  0  0  0  0  0
   31.7298    8.0527  -22.6240 H   0  0  0  0  0  0  0  0  0  0  0  0
   33.1512    3.5682  -22.7237 H   0  0  0  0  0  0  0  0  0  0  0  0
   31.2881    6.6384  -20.7668 H   0  0  0  0  0  0  0  0  0  0  0  0
  1  9  1  0  0  0  0
  1 14  1  0  0  0  0
  2 15  1  0  0  0  0
  3 17  2  0  0  0  0
  4 16  1  0  0  0  0
  5 14  1  0  0  0  0
  5 18  1  0  0  0  0
  6 14  2  0  0  0  0
  6 20  1  0  0  0  0
  7 16  1  0  0  0  0
  7 17  1  0  0  0  0
  8 16  2  0  0  0  0
  8 18  1  0  0  0  0
  9 19  1  0  0  0  0
 10 12  2  0  0  0  0
 10 15  1  0  0  0  0
 11 13  1  0  0  0  0
 11 15  2  0  0  0  0
 12 19  1  0  0  0  0
 13 19  2  0  0  0  0
 17 20  1  0  0  0  0
 18 20  2  0  0  0  0
  4 21  1  0  0  0  0
  4 22  1  0  0  0  0
  5 23  1  0  0  0  0
  7 24  1  0  0  0  0
  9 25  1  0  0  0  0
  9 26  1  0  0  0  0
 10 27  1  0  0  0  0
 11 28  1  0  0  0  0
 12 29  1  0  0  0  0
 13 30  1  0  0  0  0
M  END
> <pdb_id>
5ETR

> <uniprot_id>
nan

> <usmiles>
S(C1=NC=2C(=O)NC(=NC2N1)N)Cc3ccc(F)cc3

$$$$
5RX_A_202
          07202409473D 1   1.00000     0.00000     0
            
 30 32  0  0  0  0            999 V2000
   33.4369    7.5961  -24.7826 Cl  0  0  0  0  0  0  0  0  0  0  0  0
   30.3932    2.5777  -20.8777 S   0  0  0  0  0  0  0  0  0  0  0  0
   25.8664    4.1538  -24.1707 O   0  0  0  0  0  0  0  0  0  0  0  0
   25.3184    7.9006  -21.5851 N   0  0  0  0  0  0  0  0  0  0  0  0
   28.7889    4.7807  -20.6965 N   0  0  0  0  0  0  0  0  0  0  0  0
   25.6794    6.0057  -22.8274 N   0  0  0  0  0  0  0  0  0  0  0  0
   28.2384    3.4162  -22.3991 N   0  0  0  0  0  0  0  0  0  0  0  0
   27.0981    6.5086  -20.9700 N   0  0  0  0  0  0  0  0  0  0  0  0
   31.8049    3.6953  -20.4075 C   0  0  0  0  0  0  0  0  0  0  0  0
   33.3256    5.1391  -23.5790 C   0  0  0  0  0  0  0  0  0  0  0  0
   32.2497    6.9019  -22.4188 C   0  0  0  0  0  0  0  0  0  0  0  0
   32.9561    4.2505  -22.5785 C   0  0  0  0  0  0  0  0  0  0  0  0
   31.8863    6.0122  -21.4196 C   0  0  0  0  0  0  0  0  0  0  0  0
   32.9735    6.4740  -23.5129 C   0  0  0  0  0  0  0  0  0  0  0  0
   29.0676    3.6173  -21.3780 C   0  0  0  0  0  0  0  0  0  0  0  0
   26.0888    6.7920  -21.7476 C   0  0  0  0  0  0  0  0  0  0  0  0
   26.2672    4.8184  -23.2191 C   0  0  0  0  0  0  0  0  0  0  0  0
   27.7088    5.3438  -21.3259 C   0  0  0  0  0  0  0  0  0  0  0  0
   32.2285    4.6747  -21.4834 C   0  0  0  0  0  0  0  0  0  0  0  0
   27.3891    4.4956  -22.3620 C   0  0  0  0  0  0  0  0  0  0  0  0
   25.5149    8.5417  -20.8432 H   0  0  0  0  0  0  0  0  0  0  0  0
   24.5553    8.0748  -22.2074 H   0  0  0  0  0  0  0  0  0  0  0  0
   29.2764    5.1424  -19.9019 H   0  0  0  0  0  0  0  0  0  0  0  0
   24.8971    6.3285  -23.3601 H   0  0  0  0  0  0  0  0  0  0  0  0
   32.5927    3.1224  -20.1812 H   0  0  0  0  0  0  0  0  0  0  0  0
   31.5310    4.2192  -19.6009 H   0  0  0  0  0  0  0  0  0  0  0  0
   33.8551    4.8081  -24.3601 H   0  0  0  0  0  0  0  0  0  0  0  0
   31.9846    7.8634  -22.3459 H   0  0  0  0  0  0  0  0  0  0  0  0
   33.2205    3.2889  -22.6516 H   0  0  0  0  0  0  0  0  0  0  0  0
   31.3645    6.3459  -20.6345 H   0  0  0  0  0  0  0  0  0  0  0  0
  1 14  1  0  0  0  0
  2  9  1  0  0  0  0
  2 15  1  0  0  0  0
  3 17  2  0  0  0  0
  4 16  1  0  0  0  0
  5 15  1  0  0  0  0
  5 18  1  0  0  0  0
  6 16  1  0  0  0  0
  6 17  1  0  0  0  0
  7 15  2  0  0  0  0
  7 20  1  0  0  0  0
  8 16  2  0  0  0  0
  8 18  1  0  0  0  0
  9 19  1  0  0  0  0
 10 12  2  0  0  0  0
 10 14  1  0  0  0  0
 11 13  1  0  0  0  0
 11 14  2  0  0  0  0
 12 19  1  0  0  0  0
 13 19  2  0  0  0  0
 17 20  1  0  0  0  0
 18 20  2  0  0  0  0
  4 21  1  0  0  0  0
  4 22  1  0  0  0  0
  5 23  1  0  0  0  0
  6 24  1  0  0  0  0
  9 25  1  0  0  0  0
  9 26  1  0  0  0  0
 10 27  1  0  0  0  0
 11 28  1  0  0  0  0
 12 29  1  0  0  0  0
 13 30  1  0  0  0  0
M  END
> <pdb_id>
5ETS

> <uniprot_id>
nan

> <usmiles>
Clc1ccc(cc1)CSC2=NC=3C(=O)NC(=NC3N2)N

$$$$
5RY_B_202
          07202409473D 1   1.00000     0.00000     0
            
 31 33  0  0  0  0            999 V2000
   30.0320    2.4160  -20.8330 S   0  0  0  0  0  0  0  0  0  0  0  0
   33.5440    3.0400  -22.4470 F   0  0  0  0  0  0  0  0  0  0  0  0
   25.6870    4.3220  -24.2620 O   0  0  0  0  0  0  0  0  0  0  0  0
   33.3570    7.9750  -25.2860 N   0  0  0  0  0  0  0  0  0  0  0  0
   25.3110    7.9790  -21.5440 N   0  0  0  0  0  0  0  0  0  0  0  0
   28.5820    4.6770  -20.6600 N   0  0  0  0  0  0  0  0  0  0  0  0
   25.5970    6.1370  -22.8420 N   0  0  0  0  0  0  0  0  0  0  0  0
   27.9830    3.4240  -22.4280 N   0  0  0  0  0  0  0  0  0  0  0  0
   27.0300    6.5010  -20.9630 N   0  0  0  0  0  0  0  0  0  0  0  0
   31.6790    3.5370  -20.2330 C   0  0  0  0  0  0  0  0  0  0  0  0
   33.1320    7.3010  -24.3760 C   0  0  0  0  0  0  0  0  0  0  0  0
   32.0730    6.8120  -22.2990 C   0  0  0  0  0  0  0  0  0  0  0  0
   31.7320    5.9260  -21.2980 C   0  0  0  0  0  0  0  0  0  0  0  0
   33.3320    5.1240  -23.3600 C   0  0  0  0  0  0  0  0  0  0  0  0
   28.8040    3.5450  -21.4150 C   0  0  0  0  0  0  0  0  0  0  0  0
   33.0050    4.2830  -22.3100 C   0  0  0  0  0  0  0  0  0  0  0  0
   26.0450    6.8710  -21.7230 C   0  0  0  0  0  0  0  0  0  0  0  0
   26.1350    4.9360  -23.2520 C   0  0  0  0  0  0  0  0  0  0  0  0
   27.5680    5.3340  -21.3070 C   0  0  0  0  0  0  0  0  0  0  0  0
   32.8510    6.3950  -23.3490 C   0  0  0  0  0  0  0  0  0  0  0  0
   32.1760    4.6030  -21.2540 C   0  0  0  0  0  0  0  0  0  0  0  0
   27.2130    4.5700  -22.3880 C   0  0  0  0  0  0  0  0  0  0  0  0
   25.5162    8.5976  -20.7855 H   0  0  0  0  0  0  0  0  0  0  0  0
   24.5585    8.1866  -22.1690 H   0  0  0  0  0  0  0  0  0  0  0  0
   29.0559    4.9568  -19.8251 H   0  0  0  0  0  0  0  0  0  0  0  0
   24.8381    6.5136  -23.3733 H   0  0  0  0  0  0  0  0  0  0  0  0
   32.4335    2.9049  -20.0565 H   0  0  0  0  0  0  0  0  0  0  0  0
   31.4365    4.0112  -19.3867 H   0  0  0  0  0  0  0  0  0  0  0  0
   31.7529    7.7585  -22.2591 H   0  0  0  0  0  0  0  0  0  0  0  0
   31.1344    6.2489  -20.5641 H   0  0  0  0  0  0  0  0  0  0  0  0
   33.9098    4.8031  -24.1105 H   0  0  0  0  0  0  0  0  0  0  0  0
  1 10  1  0  0  0  0
  1 15  1  0  0  0  0
  2 16  1  0  0  0  0
  3 18  2  0  0  0  0
  4 11  3  0  0  0  0
  5 17  1  0  0  0  0
  6 15  1  0  0  0  0
  6 19  1  0  0  0  0
  7 17  1  0  0  0  0
  7 18  1  0  0  0  0
  8 15  2  0  0  0  0
  8 22  1  0  0  0  0
  9 17  2  0  0  0  0
  9 19  1  0  0  0  0
 10 21  1  0  0  0  0
 11 20  1  0  0  0  0
 12 13  1  0  0  0  0
 12 20  2  0  0  0  0
 13 21  2  0  0  0  0
 14 16  2  0  0  0  0
 14 20  1  0  0  0  0
 16 21  1  0  0  0  0
 18 22  1  0  0  0  0
 19 22  2  0  0  0  0
  5 23  1  0  0  0  0
  5 24  1  0  0  0  0
  6 25  1  0  0  0  0
  7 26  1  0  0  0  0
 10 27  1  0  0  0  0
 10 28  1  0  0  0  0
 12 29  1  0  0  0  0
 13 30  1  0  0  0  0
 14 31  1  0  0  0  0
M  END
> <pdb_id>
5ETT

> <uniprot_id>
nan

> <usmiles>
S(C1=NC=2C(=O)NC(=NC2N1)N)Cc3c(F)cc(C#N)cc3

$$$$
5RZ_A_209
          07202409463D 1   1.00000     0.00000     0
            
 32 34  0  0  0  0            999 V2000
  -13.2060   28.9810  -17.8290 Br  0  0  0  0  0  0  0  0  0  0  0  0
   -7.0350   23.7220  -18.6510 S   0  0  0  0  0  0  0  0  0  0  0  0
   -9.2610   18.3560  -18.4620 O   0  0  0  0  0  0  0  0  0  0  0  0
  -10.0520   23.0620  -16.8990 O   0  0  0  0  0  0  0  0  0  0  0  0
  -12.2970   19.6190  -21.6400 N   0  0  0  0  0  0  0  0  0  0  0  0
  -10.7360   19.0550  -20.0560 N   0  0  0  0  0  0  0  0  0  0  0  0
   -9.0020   22.6030  -20.1370 N   0  0  0  0  0  0  0  0  0  0  0  0
   -8.0400   21.1810  -18.7150 N   0  0  0  0  0  0  0  0  0  0  0  0
  -10.7390   21.2050  -21.0470 N   0  0  0  0  0  0  0  0  0  0  0  0
   -7.9200   24.1440  -17.0390 C   0  0  0  0  0  0  0  0  0  0  0  0
  -10.6240   27.7490  -18.0610 C   0  0  0  0  0  0  0  0  0  0  0  0
  -12.4030   26.3280  -17.3350 C   0  0  0  0  0  0  0  0  0  0  0  0
   -9.7430   26.6860  -17.9210 C   0  0  0  0  0  0  0  0  0  0  0  0
  -11.5570   25.2910  -17.2380 C   0  0  0  0  0  0  0  0  0  0  0  0
  -11.9670   27.5960  -17.7240 C   0  0  0  0  0  0  0  0  0  0  0  0
   -8.0850   22.4470  -19.1750 C   0  0  0  0  0  0  0  0  0  0  0  0
  -11.2430   19.9780  -20.9090 C   0  0  0  0  0  0  0  0  0  0  0  0
   -9.6480   19.2690  -19.2340 C   0  0  0  0  0  0  0  0  0  0  0  0
   -9.4040   24.0830  -17.1920 C   0  0  0  0  0  0  0  0  0  0  0  0
   -9.6810   21.4230  -20.2600 C   0  0  0  0  0  0  0  0  0  0  0  0
  -10.2150   25.4160  -17.5220 C   0  0  0  0  0  0  0  0  0  0  0  0
   -9.1070   20.5510  -19.3520 C   0  0  0  0  0  0  0  0  0  0  0  0
  -12.7041   20.2679  -22.2828 H   0  0  0  0  0  0  0  0  0  0  0  0
  -12.6812   18.7005  -21.5461 H   0  0  0  0  0  0  0  0  0  0  0  0
  -11.1795   18.1595  -20.0197 H   0  0  0  0  0  0  0  0  0  0  0  0
   -9.1619   23.4337  -20.6702 H   0  0  0  0  0  0  0  0  0  0  0  0
   -7.6607   25.0684  -16.7592 H   0  0  0  0  0  0  0  0  0  0  0  0
   -7.6396   23.4916  -16.3349 H   0  0  0  0  0  0  0  0  0  0  0  0
  -10.2936   28.6279  -18.4050 H   0  0  0  0  0  0  0  0  0  0  0  0
  -13.3704   26.1891  -17.1233 H   0  0  0  0  0  0  0  0  0  0  0  0
   -8.7690   26.8199  -18.1035 H   0  0  0  0  0  0  0  0  0  0  0  0
  -11.9113   24.4010  -16.9510 H   0  0  0  0  0  0  0  0  0  0  0  0
  1 15  1  0  0  0  0
  2 10  1  0  0  0  0
  2 16  1  0  0  0  0
  3 18  2  0  0  0  0
  4 19  2  0  0  0  0
  5 17  1  0  0  0  0
  6 17  1  0  0  0  0
  6 18  1  0  0  0  0
  7 16  1  0  0  0  0
  7 20  1  0  0  0  0
  8 16  2  0  0  0  0
  8 22  1  0  0  0  0
  9 17  2  0  0  0  0
  9 20  1  0  0  0  0
 10 19  1  0  0  0  0
 11 13  1  0  0  0  0
 11 15  2  0  0  0  0
 12 14  2  0  0  0  0
 12 15  1  0  0  0  0
 13 21  2  0  0  0  0
 14 21  1  0  0  0  0
 18 22  1  0  0  0  0
 19 21  1  0  0  0  0
 20 22  2  0  0  0  0
  5 23  1  0  0  0  0
  5 24  1  0  0  0  0
  6 25  1  0  0  0  0
  7 26  1  0  0  0  0
 10 27  1  0  0  0  0
 10 28  1  0  0  0  0
 11 29  1  0  0  0  0
 12 30  1  0  0  0  0
 13 31  1  0  0  0  0
 14 32  1  0  0  0  0
M  END
> <pdb_id>
5ETP

> <uniprot_id>
P26281

> <usmiles>
Brc1ccc(cc1)C(=O)CSC2=NC=3C(=O)NC(=NC3N2)N

$$$$
5SZ_A_1401
          07202415303D 1   1.00000     0.00000     0
            
 44 48  0  0  0  0            999 V2000
   -3.6336  -14.7430   21.8018 F   0  0  0  0  0  0  0  0  0  0  0  0
   -1.9324  -13.9548   14.7507 O   0  0  0  0  0  0  0  0  0  0  0  0
   -5.6576  -13.3435   16.2292 O   0  0  0  0  0  0  0  0  0  0  0  0
   -6.9860  -13.1570   15.7938 N   0  0  0  0  0  0  0  0  0  0  0  0
   -1.0681  -14.3583   20.3827 N   0  0  0  0  0  0  0  0  0  0  0  0
   -0.2280  -14.1360   19.4799 N   0  0  0  0  0  0  0  0  0  0  0  0
   -0.5037  -18.3456   14.0559 N   0  0  0  0  0  0  0  0  0  0  0  0
   -0.3612  -14.7918   16.1821 N   0  0  0  0  0  0  0  0  0  0  0  0
   -2.2258  -13.9555   18.5649 N   0  0  0  0  0  0  0  0  0  0  0  0
   -9.2895  -13.3276   16.8015 C   0  0  0  0  0  0  0  0  0  0  0  0
    1.2070  -13.1376   17.2138 C   0  0  0  0  0  0  0  0  0  0  0  0
   -1.2957  -18.4837   12.9996 C   0  0  0  0  0  0  0  0  0  0  0  0
    0.4303  -15.9042   16.5498 C   0  0  0  0  0  0  0  0  0  0  0  0
   -3.3510  -13.7766   17.7602 C   0  0  0  0  0  0  0  0  0  0  0  0
   -2.1091  -17.4398   12.5740 C   0  0  0  0  0  0  0  0  0  0  0  0
    0.3769  -17.0897   15.8306 C   0  0  0  0  0  0  0  0  0  0  0  0
   -2.0951  -16.2299   13.2637 C   0  0  0  0  0  0  0  0  0  0  0  0
   -7.0407  -13.7347   17.9230 C   0  0  0  0  0  0  0  0  0  0  0  0
   -4.7068  -14.2574   19.6978 C   0  0  0  0  0  0  0  0  0  0  0  0
   -1.2186  -14.9011   15.0817 C   0  0  0  0  0  0  0  0  0  0  0  0
   -3.5675  -14.4301   20.4836 C   0  0  0  0  0  0  0  0  0  0  0  0
   -2.3139  -14.2669   19.9099 C   0  0  0  0  0  0  0  0  0  0  0  0
   -0.8724  -13.8763   18.3425 C   0  0  0  0  0  0  0  0  0  0  0  0
   -7.7644  -13.4140   16.8443 C   0  0  0  0  0  0  0  0  0  0  0  0
   -5.7497  -13.7250   17.5554 C   0  0  0  0  0  0  0  0  0  0  0  0
   -0.4615  -17.1915   14.7349 C   0  0  0  0  0  0  0  0  0  0  0  0
   -0.2667  -13.5553   16.9888 C   0  0  2  0  0  0  0  0  0  0  0  0
   -4.6149  -13.9444   18.3342 C   0  0  0  0  0  0  0  0  0  0  0  0
   -1.2628  -16.1007   14.3611 C   0  0  0  0  0  0  0  0  0  0  0  0
   -9.6619  -13.5616   17.6996 H   0  0  0  0  0  0  0  0  0  0  0  0
   -9.5640  -12.3971   16.5589 H   0  0  0  0  0  0  0  0  0  0  0  0
   -9.6405  -13.9676   16.1180 H   0  0  0  0  0  0  0  0  0  0  0  0
    1.2366  -12.3009   17.7607 H   0  0  0  0  0  0  0  0  0  0  0  0
    1.6907  -13.8682   17.6958 H   0  0  0  0  0  0  0  0  0  0  0  0
    1.6457  -12.9739   16.3302 H   0  0  0  0  0  0  0  0  0  0  0  0
   -1.3074  -19.3515   12.5027 H   0  0  0  0  0  0  0  0  0  0  0  0
    1.0382  -15.8355   17.3408 H   0  0  0  0  0  0  0  0  0  0  0  0
   -3.2560  -13.5339   16.7947 H   0  0  0  0  0  0  0  0  0  0  0  0
   -2.7012  -17.5570   11.7767 H   0  0  0  0  0  0  0  0  0  0  0  0
    0.9427  -17.8678   16.1033 H   0  0  0  0  0  0  0  0  0  0  0  0
   -2.6752  -15.4696   12.9714 H   0  0  0  0  0  0  0  0  0  0  0  0
   -7.3957  -13.9431   18.8344 H   0  0  0  0  0  0  0  0  0  0  0  0
   -5.6094  -14.3591   20.1162 H   0  0  0  0  0  0  0  0  0  0  0  0
   -0.7739  -12.8143   16.5486 H   0  0  0  0  0  0  0  0  0  0  0  0
  1 21  1  0  0  0  0
  2 20  2  0  0  0  0
  3  4  1  0  0  0  0
  3 25  1  0  0  0  0
  4 24  2  0  0  0  0
  5  6  1  0  0  0  0
  5 22  2  0  0  0  0
  6 23  2  0  0  0  0
  7 12  1  0  0  0  0
  7 26  2  0  0  0  0
  8 13  1  0  0  0  0
  8 20  1  0  0  0  0
  8 27  1  0  0  0  0
  9 14  1  0  0  0  0
  9 22  1  0  0  0  0
  9 23  1  0  0  0  0
 10 24  1  0  0  0  0
 11 27  1  0  0  0  0
 12 15  2  0  0  0  0
 13 16  2  0  0  0  0
 14 28  2  0  0  0  0
 15 17  1  0  0  0  0
 16 26  1  0  0  0  0
 17 29  2  0  0  0  0
 18 24  1  0  0  0  0
 18 25  2  0  0  0  0
 19 21  2  0  0  0  0
 19 28  1  0  0  0  0
 20 29  1  0  0  0  0
 21 22  1  0  0  0  0
 23 27  1  0  0  0  0
 25 28  1  0  0  0  0
 26 29  1  0  0  0  0
 10 30  1  0  0  0  0
 10 31  1  0  0  0  0
 10 32  1  0  0  0  0
 11 33  1  0  0  0  0
 11 34  1  0  0  0  0
 11 35  1  0  0  0  0
 12 36  1  0  0  0  0
 13 37  1  0  0  0  0
 14 38  1  0  0  0  0
 15 39  1  0  0  0  0
 16 40  1  0  0  0  0
 17 41  1  0  0  0  0
 18 42  1  0  0  0  0
 19 43  1  0  0  0  0
 27 44  1  0  0  0  0
M  END
> <pdb_id>
5EYC

> <uniprot_id>
P08581

> <usmiles>
FC=1C2=NN=C(N2C=C(C=3ON=C(C3)C)C1)[C@H](N4C(=O)c5c(nccc5)C=C4)C

$$$$
5T1_A_1401
          07202415303D 1   1.00000     0.00000     0
            
 56 60  0  0  0  0            999 V2000
   -3.6930  -14.7645   21.7205 F   0  0  0  0  0  0  0  0  0  0  0  0
   -1.9548  -14.0882   14.7746 O   0  0  0  0  0  0  0  0  0  0  0  0
   -5.7579  -19.1871   11.9757 O   0  0  0  0  0  0  0  0  0  0  0  0
   -2.9686  -17.8553   11.6546 O   0  0  0  0  0  0  0  0  0  0  0  0
   -1.1103  -14.3679   20.3400 N   0  0  0  0  0  0  0  0  0  0  0  0
   -0.2700  -14.1464   19.4438 N   0  0  0  0  0  0  0  0  0  0  0  0
   -6.9855  -13.5162   15.6858 N   0  0  0  0  0  0  0  0  0  0  0  0
   -0.4708  -18.4888   14.1721 N   0  0  0  0  0  0  0  0  0  0  0  0
   -7.7183  -13.5312   16.6833 N   0  0  0  0  0  0  0  0  0  0  0  0
   -0.3646  -14.8711   16.1855 N   0  0  0  0  0  0  0  0  0  0  0  0
   -2.2526  -14.0087   18.5157 N   0  0  0  0  0  0  0  0  0  0  0  0
   -7.0719  -19.5318   11.4806 C   0  0  0  0  0  0  0  0  0  0  0  0
   -9.1880  -13.3631   16.6153 C   0  0  0  0  0  0  0  0  0  0  0  0
    1.1849  -13.1738   17.1182 C   0  0  0  0  0  0  0  0  0  0  0  0
   -4.8030  -19.1706   10.8894 C   0  0  0  0  0  0  0  0  0  0  0  0
   -3.4014  -19.2116   11.4673 C   0  0  0  0  0  0  0  0  0  0  0  0
   -1.2864  -18.6850   13.1406 C   0  0  0  0  0  0  0  0  0  0  0  0
   -5.7333  -13.6949   16.1052 C   0  0  0  0  0  0  0  0  0  0  0  0
    0.4699  -15.9491   16.5764 C   0  0  0  0  0  0  0  0  0  0  0  0
   -7.0263  -13.7138   17.8119 C   0  0  0  0  0  0  0  0  0  0  0  0
   -3.3711  -13.8524   17.7066 C   0  0  0  0  0  0  0  0  0  0  0  0
    0.4288  -17.1594   15.8927 C   0  0  0  0  0  0  0  0  0  0  0  0
   -4.7512  -14.3284   19.6244 C   0  0  0  0  0  0  0  0  0  0  0  0
   -2.1184  -16.4379   13.3561 C   0  0  0  0  0  0  0  0  0  0  0  0
   -1.2248  -15.0225   15.1107 C   0  0  0  0  0  0  0  0  0  0  0  0
   -3.6128  -14.4650   20.4148 C   0  0  0  0  0  0  0  0  0  0  0  0
   -2.1340  -17.6721   12.7091 C   0  0  0  0  0  0  0  0  0  0  0  0
   -2.3500  -14.2989   19.8552 C   0  0  0  0  0  0  0  0  0  0  0  0
   -0.8998  -13.9049   18.3011 C   0  0  0  0  0  0  0  0  0  0  0  0
   -0.4366  -17.3123   14.8225 C   0  0  0  0  0  0  0  0  0  0  0  0
   -0.2830  -13.6047   16.9419 C   0  0  2  0  0  0  0  0  0  0  0  0
   -5.7553  -13.8407   17.4390 C   0  0  0  0  0  0  0  0  0  0  0  0
   -4.6423  -14.0178   18.2607 C   0  0  0  0  0  0  0  0  0  0  0  0
   -1.2643  -16.2513   14.4328 C   0  0  0  0  0  0  0  0  0  0  0  0
   -7.7226  -19.5399   12.2399 H   0  0  0  0  0  0  0  0  0  0  0  0
   -7.3602  -18.8564   10.8018 H   0  0  0  0  0  0  0  0  0  0  0  0
   -7.0418  -20.4375   11.0577 H   0  0  0  0  0  0  0  0  0  0  0  0
   -9.5718  -13.4092   17.5376 H   0  0  0  0  0  0  0  0  0  0  0  0
   -9.4035  -12.4753   16.2087 H   0  0  0  0  0  0  0  0  0  0  0  0
   -9.5811  -14.0912   16.0539 H   0  0  0  0  0  0  0  0  0  0  0  0
    1.2212  -12.3163   17.6314 H   0  0  0  0  0  0  0  0  0  0  0  0
    1.6827  -13.8826   17.6179 H   0  0  0  0  0  0  0  0  0  0  0  0
    1.6039  -13.0425   16.2198 H   0  0  0  0  0  0  0  0  0  0  0  0
   -4.9202  -18.3355   10.3520 H   0  0  0  0  0  0  0  0  0  0  0  0
   -4.9478  -19.9675   10.3030 H   0  0  0  0  0  0  0  0  0  0  0  0
   -3.4083  -19.6916   12.3446 H   0  0  0  0  0  0  0  0  0  0  0  0
   -2.7856  -19.6817   10.8350 H   0  0  0  0  0  0  0  0  0  0  0  0
   -1.2899  -19.5682   12.6718 H   0  0  0  0  0  0  0  0  0  0  0  0
   -4.9183  -13.7167   15.5262 H   0  0  0  0  0  0  0  0  0  0  0  0
    1.0933  -15.8380   17.3503 H   0  0  0  0  0  0  0  0  0  0  0  0
   -7.3885  -13.7480   18.7434 H   0  0  0  0  0  0  0  0  0  0  0  0
   -3.2671  -13.6241   16.7385 H   0  0  0  0  0  0  0  0  0  0  0  0
    1.0209  -17.9152   16.1724 H   0  0  0  0  0  0  0  0  0  0  0  0
   -5.6553  -14.4529   20.0330 H   0  0  0  0  0  0  0  0  0  0  0  0
   -2.7151  -15.6968   13.0482 H   0  0  0  0  0  0  0  0  0  0  0  0
   -0.8018  -12.8880   16.4759 H   0  0  0  0  0  0  0  0  0  0  0  0
  1 26  1  0  0  0  0
  2 25  2  0  0  0  0
  3 12  1  0  0  0  0
  3 15  1  0  0  0  0
  4 16  1  0  0  0  0
  4 27  1  0  0  0  0
  5  6  1  0  0  0  0
  5 28  2  0  0  0  0
  6 29  2  0  0  0  0
  7  9  1  0  0  0  0
  7 18  2  0  0  0  0
  8 17  1  0  0  0  0
  8 30  2  0  0  0  0
  9 13  1  0  0  0  0
  9 20  1  0  0  0  0
 10 19  1  0  0  0  0
 10 25  1  0  0  0  0
 10 31  1  0  0  0  0
 11 21  1  0  0  0  0
 11 28  1  0  0  0  0
 11 29  1  0  0  0  0
 14 31  1  0  0  0  0
 15 16  1  0  0  0  0
 17 27  2  0  0  0  0
 18 32  1  0  0  0  0
 19 22  2  0  0  0  0
 20 32  2  0  0  0  0
 21 33  2  0  0  0  0
 22 30  1  0  0  0  0
 23 26  2  0  0  0  0
 23 33  1  0  0  0  0
 24 27  1  0  0  0  0
 24 34  2  0  0  0  0
 25 34  1  0  0  0  0
 26 28  1  0  0  0  0
 29 31  1  0  0  0  0
 30 34  1  0  0  0  0
 32 33  1  0  0  0  0
 12 35  1  0  0  0  0
 12 36  1  0  0  0  0
 12 37  1  0  0  0  0
 13 38  1  0  0  0  0
 13 39  1  0  0  0  0
 13 40  1  0  0  0  0
 14 41  1  0  0  0  0
 14 42  1  0  0  0  0
 14 43  1  0  0  0  0
 15 44  1  0  0  0  0
 15 45  1  0  0  0  0
 16 46  1  0  0  0  0
 16 47  1  0  0  0  0
 17 48  1  0  0  0  0
 18 49  1  0  0  0  0
 19 50  1  0  0  0  0
 20 51  1  0  0  0  0
 21 52  1  0  0  0  0
 22 53  1  0  0  0  0
 23 54  1  0  0  0  0
 24 55  1  0  0  0  0
 31 56  1  0  0  0  0
M  END
> <pdb_id>
5EYD

> <uniprot_id>
P08581

> <usmiles>
FC=1C2=NN=C(N2C=C(C=3C=NN(C3)C)C1)[C@H](N4C(=O)c5c(ncc(OCCOC)c5)C=C4)C

$$$$
5T4_A_301
          07192423263D 1   1.00000     0.00000     0
            
 44 46  0  0  0  0            999 V2000
   28.0874  -13.6518   -8.2619 O   0  0  0  0  0  0  0  0  0  0  0  0
   30.0858   -7.4719   -2.8751 N   0  0  0  0  0  0  0  0  0  0  0  0
   28.3086   -6.5225   -4.1745 N   0  0  0  0  0  0  0  0  0  0  0  0
   28.0724  -13.3019   -6.0510 N   0  0  0  0  0  0  0  0  0  0  0  0
   29.0160  -15.2381   -6.8771 N   0  0  0  0  0  0  0  0  0  0  0  0
   28.1507   -8.8183   -3.5408 N   0  0  0  0  0  0  0  0  0  0  0  0
   30.7606   -6.2659   -2.8980 C   0  0  0  0  0  0  0  0  0  0  0  0
   28.9071   -5.3074   -4.2201 C   0  0  0  0  0  0  0  0  0  0  0  0
   27.5107  -11.9588   -6.2011 C   0  0  0  0  0  0  0  0  0  0  0  0
   29.5500  -16.1388   -7.9110 C   0  0  0  0  0  0  0  0  0  0  0  0
   29.4408  -15.6847   -5.5872 C   0  0  0  0  0  0  0  0  0  0  0  0
   26.7809   -8.8033   -4.0943 C   0  0  0  0  0  0  0  0  0  0  0  0
   28.8657  -10.0047   -3.0697 C   0  0  0  0  0  0  0  0  0  0  0  0
   30.1470   -5.1915   -3.5931 C   0  0  0  0  0  0  0  0  0  0  0  0
   30.5271  -17.0544   -7.2210 C   0  0  0  0  0  0  0  0  0  0  0  0
   30.0437  -17.0664   -5.7719 C   0  0  0  0  0  0  0  0  0  0  0  0
   26.7741   -9.7811   -5.2856 C   0  0  0  0  0  0  0  0  0  0  0  0
   28.9748  -10.8735   -4.3420 C   0  0  0  0  0  0  0  0  0  0  0  0
   28.3458  -14.0818   -7.1067 C   0  0  0  0  0  0  0  0  0  0  0  0
   28.8969   -7.5556   -3.5416 C   0  0  0  0  0  0  0  0  0  0  0  0
   27.5373  -11.1089   -4.9372 C   0  0  0  0  0  0  0  0  0  0  0  0
   28.2581  -13.6489   -5.1318 H   0  0  0  0  0  0  0  0  0  0  0  0
   31.6445   -6.1551   -2.4436 H   0  0  0  0  0  0  0  0  0  0  0  0
   28.4795   -4.5303   -4.6819 H   0  0  0  0  0  0  0  0  0  0  0  0
   26.5590  -12.0508   -6.4939 H   0  0  0  0  0  0  0  0  0  0  0  0
   28.0322  -11.4810   -6.9081 H   0  0  0  0  0  0  0  0  0  0  0  0
   30.0147  -15.6110   -8.6220 H   0  0  0  0  0  0  0  0  0  0  0  0
   28.8093  -16.6708   -8.3213 H   0  0  0  0  0  0  0  0  0  0  0  0
   28.6591  -15.7315   -4.9654 H   0  0  0  0  0  0  0  0  0  0  0  0
   30.1257  -15.0581   -5.2153 H   0  0  0  0  0  0  0  0  0  0  0  0
   26.5440   -7.8822   -4.4031 H   0  0  0  0  0  0  0  0  0  0  0  0
   26.1254   -9.1011   -3.4003 H   0  0  0  0  0  0  0  0  0  0  0  0
   28.3481  -10.4763   -2.3559 H   0  0  0  0  0  0  0  0  0  0  0  0
   29.7713   -9.7635   -2.7207 H   0  0  0  0  0  0  0  0  0  0  0  0
   30.6244   -4.3137   -3.6350 H   0  0  0  0  0  0  0  0  0  0  0  0
   31.4585  -16.6958   -7.2840 H   0  0  0  0  0  0  0  0  0  0  0  0
   30.4961  -17.9727   -7.6156 H   0  0  0  0  0  0  0  0  0  0  0  0
   29.3558  -17.7783   -5.6306 H   0  0  0  0  0  0  0  0  0  0  0  0
   30.8068  -17.2104   -5.1419 H   0  0  0  0  0  0  0  0  0  0  0  0
   27.2191   -9.3450   -6.0677 H   0  0  0  0  0  0  0  0  0  0  0  0
   25.8274  -10.0014   -5.5209 H   0  0  0  0  0  0  0  0  0  0  0  0
   29.3886  -11.7540   -4.1106 H   0  0  0  0  0  0  0  0  0  0  0  0
   29.5436  -10.4053   -5.0183 H   0  0  0  0  0  0  0  0  0  0  0  0
   27.0010  -11.5887   -4.2428 H   0  0  0  0  0  0  0  0  0  0  0  0
  1 19  2  0  0  0  0
  2  7  2  0  0  0  0
  2 20  1  0  0  0  0
  3  8  1  0  0  0  0
  3 20  2  0  0  0  0
  4  9  1  0  0  0  0
  4 19  1  0  0  0  0
  5 10  1  0  0  0  0
  5 11  1  0  0  0  0
  5 19  1  0  0  0  0
  6 12  1  0  0  0  0
  6 13  1  0  0  0  0
  6 20  1  0  0  0  0
  7 14  1  0  0  0  0
  8 14  2  0  0  0  0
  9 21  1  0  0  0  0
 10 15  1  0  0  0  0
 11 16  1  0  0  0  0
 12 17  1  0  0  0  0
 13 18  1  0  0  0  0
 15 16  1  0  0  0  0
 17 21  1  0  0  0  0
 18 21  1  0  0  0  0
  4 22  1  0  0  0  0
  7 23  1  0  0  0  0
  8 24  1  0  0  0  0
  9 25  1  0  0  0  0
  9 26  1  0  0  0  0
 10 27  1  0  0  0  0
 10 28  1  0  0  0  0
 11 29  1  0  0  0  0
 11 30  1  0  0  0  0
 12 31  1  0  0  0  0
 12 32  1  0  0  0  0
 13 33  1  0  0  0  0
 13 34  1  0  0  0  0
 14 35  1  0  0  0  0
 15 36  1  0  0  0  0
 15 37  1  0  0  0  0
 16 38  1  0  0  0  0
 16 39  1  0  0  0  0
 17 40  1  0  0  0  0
 17 41  1  0  0  0  0
 18 42  1  0  0  0  0
 18 43  1  0  0  0  0
 21 44  1  0  0  0  0
M  END
> <pdb_id>
5EZG

> <uniprot_id>
P9WMC0

> <usmiles>
O=C(N1CCCC1)NCC2CCN(c3ncccn3)CC2

$$$$
5T5_A_501
          07202405583D 1   1.00000     0.00000     0
            
 44 47  0  0  0  0            999 V2000
   70.9312   45.9099    2.4290 Cl  0  0  0  0  0  0  0  0  0  0  0  0
   64.3674   53.5909   12.5335 F   0  0  0  0  0  0  0  0  0  0  0  0
   64.6263   51.3964   12.9769 F   0  0  0  0  0  0  0  0  0  0  0  0
   72.4763   48.4338    8.0310 O   0  0  0  0  0  0  0  0  0  0  0  0
   66.9787   47.1680    8.0254 O   0  0  0  0  0  0  0  0  0  0  0  0
   66.4981   52.7076   12.4568 O   0  0  0  0  0  0  0  0  0  0  0  0
   65.8131   48.1894    6.1311 N   0  0  0  0  0  0  0  0  0  0  0  0
   73.5631   45.4961    5.3997 N   0  0  0  0  0  0  0  0  0  0  0  0
   67.5481   49.1988    7.3136 N   0  0  0  0  0  0  0  0  0  0  0  0
   67.9184   47.5957    9.0205 C   0  0  0  0  0  0  0  0  0  0  0  0
   72.9065   45.3286    4.2401 C   0  0  0  0  0  0  0  0  0  0  0  0
   73.1951   46.3898    6.3126 C   0  0  0  0  0  0  0  0  0  0  0  0
   68.2747   51.4380   11.4912 C   0  0  0  0  0  0  0  0  0  0  0  0
   66.0553   51.2598   10.5766 C   0  0  0  0  0  0  0  0  0  0  0  0
   68.7243   50.5338   10.5377 C   0  0  0  0  0  0  0  0  0  0  0  0
   66.5139   50.3607    9.6221 C   0  0  0  0  0  0  0  0  0  0  0  0
   71.3809   47.0560    4.8898 C   0  0  0  0  0  0  0  0  0  0  0  0
   70.3353   50.2610    7.5449 C   0  0  0  0  0  0  0  0  0  0  0  0
   65.1989   52.6417   13.0786 C   0  0  0  0  0  0  0  0  0  0  0  0
   71.8041   46.1273    3.9692 C   0  0  0  0  0  0  0  0  0  0  0  0
   66.7549   48.2374    7.0896 C   0  0  0  0  0  0  0  0  0  0  0  0
   71.6980   48.1807    7.1259 C   0  0  0  0  0  0  0  0  0  0  0  0
   66.9386   51.8066   11.5141 C   0  0  0  0  0  0  0  0  0  0  0  0
   72.0890   47.1872    6.0887 C   0  0  0  0  0  0  0  0  0  0  0  0
   70.3634   48.8374    7.0206 C   0  0  1  0  0  0  0  0  0  0  0  0
   67.8531   49.9910    9.5893 C   0  0  0  0  0  0  0  0  0  0  0  0
   69.8431   49.1098    8.4193 C   0  0  2  0  0  0  0  0  0  0  0  0
   68.3212   49.0006    8.5502 C   0  0  2  0  0  0  0  0  0  0  0  0
   65.6975   48.9602    5.5046 H   0  0  0  0  0  0  0  0  0  0  0  0
   65.2283   47.3828    6.0447 H   0  0  0  0  0  0  0  0  0  0  0  0
   68.7112   46.9869    9.0488 H   0  0  0  0  0  0  0  0  0  0  0  0
   67.4917   47.6296    9.9243 H   0  0  0  0  0  0  0  0  0  0  0  0
   73.2073   44.6387    3.5817 H   0  0  0  0  0  0  0  0  0  0  0  0
   73.7178   46.4848    7.1598 H   0  0  0  0  0  0  0  0  0  0  0  0
   68.9125   51.8218   12.1589 H   0  0  0  0  0  0  0  0  0  0  0  0
   65.0892   51.5176   10.5938 H   0  0  0  0  0  0  0  0  0  0  0  0
   69.6879   50.2667   10.5296 H   0  0  0  0  0  0  0  0  0  0  0  0
   65.8762   49.9769    8.9542 H   0  0  0  0  0  0  0  0  0  0  0  0
   70.5813   47.6275    4.7057 H   0  0  0  0  0  0  0  0  0  0  0  0
   69.6827   50.9197    7.1704 H   0  0  0  0  0  0  0  0  0  0  0  0
   71.1903   50.7292    7.7682 H   0  0  0  0  0  0  0  0  0  0  0  0
   65.3109   52.8512   14.0500 H   0  0  0  0  0  0  0  0  0  0  0  0
   69.7286   48.5607    6.2992 H   0  0  0  0  0  0  0  0  0  0  0  0
   70.4067   48.8311    9.1969 H   0  0  0  0  0  0  0  0  0  0  0  0
  1 20  1  0  0  0  0
  2 19  1  0  0  0  0
  3 19  1  0  0  0  0
  4 22  2  0  0  0  0
  5 10  1  0  0  0  0
  5 21  1  0  0  0  0
  6 19  1  0  0  0  0
  6 23  1  0  0  0  0
  7 21  1  0  0  0  0
  8 11  2  0  0  0  0
  8 12  1  0  0  0  0
  9 21  2  0  0  0  0
  9 28  1  0  0  0  0
 10 28  1  0  0  0  0
 11 20  1  0  0  0  0
 12 24  2  0  0  0  0
 13 15  2  0  0  0  0
 13 23  1  0  0  0  0
 14 16  1  0  0  0  0
 14 23  2  0  0  0  0
 15 26  1  0  0  0  0
 16 26  2  0  0  0  0
 17 20  2  0  0  0  0
 17 24  1  0  0  0  0
 18 25  1  0  0  0  0
 18 27  1  0  0  0  0
 22 24  1  0  0  0  0
 22 25  1  0  0  0  0
 25 27  1  0  0  0  0
 26 28  1  0  0  0  0
 27 28  1  0  0  0  0
  7 29  1  0  0  0  0
  7 30  1  0  0  0  0
 10 31  1  0  0  0  0
 10 32  1  0  0  0  0
 11 33  1  0  0  0  0
 12 34  1  0  0  0  0
 13 35  1  0  0  0  0
 14 36  1  0  0  0  0
 15 37  1  0  0  0  0
 16 38  1  0  0  0  0
 17 39  1  0  0  0  0
 18 40  1  0  0  0  0
 18 41  1  0  0  0  0
 19 42  1  0  0  0  0
 25 43  1  0  0  0  0
 27 44  1  0  0  0  0
M  END
> <pdb_id>
5EZX

> <uniprot_id>
P56817

> <usmiles>
Clc1cncc(c1)C(=O)[C@H]2[C@H]([C@]3(N=C(OC3)N)c4ccc(OC(F)F)cc4)C2

$$$$
5T7_A_504
          07202405583D 1   1.00000     0.00000     0
            
 44 47  0  0  0  0            999 V2000
   71.3917   44.6320    0.0112 Cl  0  0  0  0  0  0  0  0  0  0  0  0
   68.5851   48.2755   10.7934 F   0  0  0  0  0  0  0  0  0  0  0  0
   66.3770   48.5504   10.3750 F   0  0  0  0  0  0  0  0  0  0  0  0
   72.1095   48.6268    7.5498 O   0  0  0  0  0  0  0  0  0  0  0  0
   66.5687   47.1882    8.0297 O   0  0  0  0  0  0  0  0  0  0  0  0
   65.6371   48.3793    6.2980 N   0  0  0  0  0  0  0  0  0  0  0  0
   70.9916   46.5415    3.3911 N   0  0  0  0  0  0  0  0  0  0  0  0
   71.1529   47.5199    5.8514 N   0  0  0  0  0  0  0  0  0  0  0  0
   67.0500   49.4667    7.7187 N   0  0  0  0  0  0  0  0  0  0  0  0
   67.6453   50.8781    9.6114 C   0  0  0  0  0  0  0  0  0  0  0  0
   67.6934   47.0901    8.9429 C   0  0  0  0  0  0  0  0  0  0  0  0
   70.8071   46.0717    2.1892 C   0  0  0  0  0  0  0  0  0  0  0  0
   74.2654   45.5172    5.6369 C   0  0  0  0  0  0  0  0  0  0  0  0
   73.2947   46.3717    6.1766 C   0  0  0  0  0  0  0  0  0  0  0  0
   74.1595   44.9949    4.3798 C   0  0  0  0  0  0  0  0  0  0  0  0
   72.8606   44.8306    2.2821 C   0  0  0  0  0  0  0  0  0  0  0  0
   69.8604   50.5583    7.3747 C   0  0  0  0  0  0  0  0  0  0  0  0
   71.7288   45.2210    1.6013 C   0  0  0  0  0  0  0  0  0  0  0  0
   66.4491   48.3668    7.3968 C   0  0  0  0  0  0  0  0  0  0  0  0
   71.1281   48.3888    6.8571 C   0  0  0  0  0  0  0  0  0  0  0  0
   72.1981   46.7187    5.4084 C   0  0  0  0  0  0  0  0  0  0  0  0
   72.0629   46.1916    4.1227 C   0  0  0  0  0  0  0  0  0  0  0  0
   73.0385   45.3274    3.5933 C   0  0  0  0  0  0  0  0  0  0  0  0
   69.8045   49.0582    7.0813 C   0  0  1  0  0  0  0  0  0  0  0  0
   69.4146   49.5718    8.4576 C   0  0  2  0  0  0  0  0  0  0  0  0
   67.6317   48.3677    9.7780 C   0  0  0  0  0  0  0  0  0  0  0  0
   67.9440   49.5709    8.8781 C   0  0  2  0  0  0  0  0  0  0  0  0
   65.5061   49.2262    5.7826 H   0  0  0  0  0  0  0  0  0  0  0  0
   65.1737   47.5415    6.0092 H   0  0  0  0  0  0  0  0  0  0  0  0
   70.2977   47.4301    5.3411 H   0  0  0  0  0  0  0  0  0  0  0  0
   68.2488   50.9609   10.4045 H   0  0  0  0  0  0  0  0  0  0  0  0
   67.7989   51.6494    8.9937 H   0  0  0  0  0  0  0  0  0  0  0  0
   66.6927   50.8794    9.9158 H   0  0  0  0  0  0  0  0  0  0  0  0
   68.5546   47.0414    8.4369 H   0  0  0  0  0  0  0  0  0  0  0  0
   67.6037   46.2831    9.5266 H   0  0  0  0  0  0  0  0  0  0  0  0
   69.9849   46.3302    1.6822 H   0  0  0  0  0  0  0  0  0  0  0  0
   75.0634   45.2818    6.1917 H   0  0  0  0  0  0  0  0  0  0  0  0
   73.3937   46.7264    7.1063 H   0  0  0  0  0  0  0  0  0  0  0  0
   74.8671   44.3853    4.0224 H   0  0  0  0  0  0  0  0  0  0  0  0
   73.5317   44.2182    1.8641 H   0  0  0  0  0  0  0  0  0  0  0  0
   69.1953   51.1761    6.9551 H   0  0  0  0  0  0  0  0  0  0  0  0
   70.7433   51.0214    7.4513 H   0  0  0  0  0  0  0  0  0  0  0  0
   69.0527   48.7523    6.4971 H   0  0  0  0  0  0  0  0  0  0  0  0
   70.0756   49.4010    9.1884 H   0  0  0  0  0  0  0  0  0  0  0  0
  1 18  1  0  0  0  0
  2 26  1  0  0  0  0
  3 26  1  0  0  0  0
  4 20  2  0  0  0  0
  5 11  1  0  0  0  0
  5 19  1  0  0  0  0
  6 19  1  0  0  0  0
  7 12  1  0  0  0  0
  7 22  2  0  0  0  0
  8 20  1  0  0  0  0
  8 21  1  0  0  0  0
  9 19  2  0  0  0  0
  9 27  1  0  0  0  0
 10 27  1  0  0  0  0
 11 26  1  0  0  0  0
 12 18  2  0  0  0  0
 13 14  1  0  0  0  0
 13 15  2  0  0  0  0
 14 21  2  0  0  0  0
 15 23  1  0  0  0  0
 16 18  1  0  0  0  0
 16 23  2  0  0  0  0
 17 24  1  0  0  0  0
 17 25  1  0  0  0  0
 20 24  1  0  0  0  0
 21 22  1  0  0  0  0
 22 23  1  0  0  0  0
 24 25  1  0  0  0  0
 25 27  1  0  0  0  0
 26 27  1  0  0  0  0
  6 28  1  0  0  0  0
  6 29  1  0  0  0  0
  8 30  1  0  0  0  0
 10 31  1  0  0  0  0
 10 32  1  0  0  0  0
 10 33  1  0  0  0  0
 11 34  1  0  0  0  0
 11 35  1  0  0  0  0
 12 36  1  0  0  0  0
 13 37  1  0  0  0  0
 14 38  1  0  0  0  0
 15 39  1  0  0  0  0
 16 40  1  0  0  0  0
 17 41  1  0  0  0  0
 17 42  1  0  0  0  0
 24 43  1  0  0  0  0
 25 44  1  0  0  0  0
M  END
> <pdb_id>
5F01

> <uniprot_id>
P56817

> <usmiles>
Clc1cnc2c(NC(=O)[C@H]3[C@H]([C@]4(N=C(OCC4(F)F)N)C)C3)cccc2c1

$$$$
5T8_A_504
          07202405583D 1   1.00000     0.00000     0
            
 45 48  0  0  0  0            999 V2000
   71.4022   44.5596    0.0679 Cl  0  0  0  0  0  0  0  0  0  0  0  0
   67.4297   47.1833    9.1841 O   0  0  0  0  0  0  0  0  0  0  0  0
   65.3778   48.3674    6.3098 N   0  0  0  0  0  0  0  0  0  0  0  0
   70.9488   46.7785    3.2498 N   0  0  0  0  0  0  0  0  0  0  0  0
   71.0805   48.0372    5.6322 N   0  0  0  0  0  0  0  0  0  0  0  0
   66.8239   49.4533    7.6911 N   0  0  0  0  0  0  0  0  0  0  0  0
   67.4830   50.9210    9.5326 C   0  0  0  0  0  0  0  0  0  0  0  0
   66.3406   47.1029    8.2235 C   0  0  0  0  0  0  0  0  0  0  0  0
   67.4607   48.4454    9.8727 C   0  0  0  0  0  0  0  0  0  0  0  0
   70.7850   46.2006    2.0917 C   0  0  0  0  0  0  0  0  0  0  0  0
   71.4832   49.8955    8.7712 C   0  0  0  0  0  0  0  0  0  0  0  0
   74.1219   45.9371    5.7002 C   0  0  0  0  0  0  0  0  0  0  0  0
   71.8252   49.2366    7.6078 C   0  0  0  0  0  0  0  0  0  0  0  0
   73.1749   46.8688    6.1254 C   0  0  0  0  0  0  0  0  0  0  0  0
   74.0423   45.3009    4.4907 C   0  0  0  0  0  0  0  0  0  0  0  0
   70.1564   49.9985    9.1558 C   0  0  0  0  0  0  0  0  0  0  0  0
   72.7944   44.9362    2.3795 C   0  0  0  0  0  0  0  0  0  0  0  0
   69.4779   48.8072    7.2284 C   0  0  0  0  0  0  0  0  0  0  0  0
   71.6916   45.2690    1.6238 C   0  0  0  0  0  0  0  0  0  0  0  0
   66.1985   48.3658    7.4130 C   0  0  0  0  0  0  0  0  0  0  0  0
   70.8041   48.6869    6.8345 C   0  0  0  0  0  0  0  0  0  0  0  0
   72.0989   47.1506    5.2988 C   0  0  0  0  0  0  0  0  0  0  0  0
   71.9828   46.5056    4.0493 C   0  0  0  0  0  0  0  0  0  0  0  0
   72.9592   45.5746    3.6392 C   0  0  0  0  0  0  0  0  0  0  0  0
   69.1490   49.4541    8.3908 C   0  0  0  0  0  0  0  0  0  0  0  0
   67.7173   49.5682    8.8481 C   0  0  1  0  0  0  0  0  0  0  0  0
   64.8739   47.5404    6.0603 H   0  0  0  0  0  0  0  0  0  0  0  0
   65.2848   49.1955    5.7570 H   0  0  0  0  0  0  0  0  0  0  0  0
   70.4433   48.2419    4.8892 H   0  0  0  0  0  0  0  0  0  0  0  0
   68.0902   51.0044   10.3228 H   0  0  0  0  0  0  0  0  0  0  0  0
   67.6742   51.6594    8.8859 H   0  0  0  0  0  0  0  0  0  0  0  0
   66.5318   50.9811    9.8354 H   0  0  0  0  0  0  0  0  0  0  0  0
   65.4869   46.9404    8.7181 H   0  0  0  0  0  0  0  0  0  0  0  0
   66.5160   46.3396    7.6016 H   0  0  0  0  0  0  0  0  0  0  0  0
   68.1933   48.4384   10.5533 H   0  0  0  0  0  0  0  0  0  0  0  0
   66.5841   48.6007   10.3282 H   0  0  0  0  0  0  0  0  0  0  0  0
   69.9897   46.4360    1.5331 H   0  0  0  0  0  0  0  0  0  0  0  0
   72.1981   50.3015    9.3404 H   0  0  0  0  0  0  0  0  0  0  0  0
   74.8905   45.7251    6.3037 H   0  0  0  0  0  0  0  0  0  0  0  0
   72.7814   49.1556    7.3267 H   0  0  0  0  0  0  0  0  0  0  0  0
   73.2707   47.3250    7.0102 H   0  0  0  0  0  0  0  0  0  0  0  0
   74.7481   44.6479    4.2161 H   0  0  0  0  0  0  0  0  0  0  0  0
   69.9261   50.4763   10.0036 H   0  0  0  0  0  0  0  0  0  0  0  0
   73.4596   44.2652    2.0516 H   0  0  0  0  0  0  0  0  0  0  0  0
   68.7551   48.4176    6.6576 H   0  0  0  0  0  0  0  0  0  0  0  0
  1 19  1  0  0  0  0
  2  8  1  0  0  0  0
  2  9  1  0  0  0  0
  3 20  1  0  0  0  0
  4 10  2  0  0  0  0
  4 23  1  0  0  0  0
  5 21  1  0  0  0  0
  5 22  1  0  0  0  0
  6 20  2  0  0  0  0
  6 26  1  0  0  0  0
  7 26  1  0  0  0  0
  8 20  1  0  0  0  0
  9 26  1  0  0  0  0
 10 19  1  0  0  0  0
 11 13  2  0  0  0  0
 11 16  1  0  0  0  0
 12 14  2  0  0  0  0
 12 15  1  0  0  0  0
 13 21  1  0  0  0  0
 14 22  1  0  0  0  0
 15 24  2  0  0  0  0
 16 25  2  0  0  0  0
 17 19  2  0  0  0  0
 17 24  1  0  0  0  0
 18 21  2  0  0  0  0
 18 25  1  0  0  0  0
 22 23  2  0  0  0  0
 23 24  1  0  0  0  0
 25 26  1  0  0  0  0
  3 27  1  0  0  0  0
  3 28  1  0  0  0  0
  5 29  1  0  0  0  0
  7 30  1  0  0  0  0
  7 31  1  0  0  0  0
  7 32  1  0  0  0  0
  8 33  1  0  0  0  0
  8 34  1  0  0  0  0
  9 35  1  0  0  0  0
  9 36  1  0  0  0  0
 10 37  1  0  0  0  0
 11 38  1  0  0  0  0
 12 39  1  0  0  0  0
 13 40  1  0  0  0  0
 14 41  1  0  0  0  0
 15 42  1  0  0  0  0
 16 43  1  0  0  0  0
 17 44  1  0  0  0  0
 18 45  1  0  0  0  0
M  END
> <pdb_id>
5F00

> <uniprot_id>
P56817

> <usmiles>
Clc1cnc2c(Nc3cc(ccc3)[C@]4(N=C(N)COC4)C)cccc2c1

$$$$
5TF_A_1
          07202415303D 1   1.00000     0.00000     0
            
 43 46  0  0  0  0            999 V2000
   -1.0918  -14.1522   20.5973 N   0  0  0  0  0  0  0  0  0  0  0  0
   -0.1312  -14.1157   19.6063 N   0  0  0  0  0  0  0  0  0  0  0  0
   -3.0762  -14.2040   17.6818 N   0  0  0  0  0  0  0  0  0  0  0  0
   -0.3877  -18.4574   14.5591 N   0  0  0  0  0  0  0  0  0  0  0  0
    1.0115  -17.5899   16.3373 N   0  0  0  0  0  0  0  0  0  0  0  0
   -5.4027  -14.2796   17.2630 N   0  0  0  0  0  0  0  0  0  0  0  0
   -2.0994  -14.1757   18.6381 N   0  0  0  0  0  0  0  0  0  0  0  0
   -6.5763  -15.1164   15.2950 C   0  0  0  0  0  0  0  0  0  0  0  0
   -5.0601  -13.1276   15.1456 C   0  0  0  0  0  0  0  0  0  0  0  0
    1.1615  -13.2550   17.0616 C   0  0  0  0  0  0  0  0  0  0  0  0
   -1.4395  -18.1046   13.7401 C   0  0  0  0  0  0  0  0  0  0  0  0
    1.1167  -16.4193   17.0430 C   0  0  0  0  0  0  0  0  0  0  0  0
   -2.0988  -16.8585   13.7557 C   0  0  0  0  0  0  0  0  0  0  0  0
   -4.6303  -14.2669   19.6176 C   0  0  0  0  0  0  0  0  0  0  0  0
   -3.5994  -14.2367   20.4954 C   0  0  0  0  0  0  0  0  0  0  0  0
   -1.6528  -15.8805   14.6841 C   0  0  0  0  0  0  0  0  0  0  0  0
   -4.3260  -14.2479   18.1306 C   0  0  0  0  0  0  0  0  0  0  0  0
   -2.2650  -14.1892   20.0104 C   0  0  0  0  0  0  0  0  0  0  0  0
   -0.0019  -17.4792   15.4315 C   0  0  0  0  0  0  0  0  0  0  0  0
   -5.2952  -14.4711   15.8179 C   0  0  0  0  0  0  0  0  0  0  0  0
   -0.7408  -14.1308   18.4327 C   0  0  0  0  0  0  0  0  0  0  0  0
   -0.1141  -14.1020   17.0698 C   0  0  2  0  0  0  0  0  0  0  0  0
    0.1509  -15.5182   16.5886 C   0  0  0  0  0  0  0  0  0  0  0  0
   -0.5646  -16.1955   15.5586 C   0  0  0  0  0  0  0  0  0  0  0  0
    1.5869  -18.3975   16.4663 H   0  0  0  0  0  0  0  0  0  0  0  0
   -6.3171  -14.1635   17.6508 H   0  0  0  0  0  0  0  0  0  0  0  0
   -6.5038  -15.2479   14.3064 H   0  0  0  0  0  0  0  0  0  0  0  0
   -6.7092  -16.0019   15.7402 H   0  0  0  0  0  0  0  0  0  0  0  0
   -7.3549  -14.5220   15.4960 H   0  0  0  0  0  0  0  0  0  0  0  0
   -4.9865  -13.2580   14.1569 H   0  0  0  0  0  0  0  0  0  0  0  0
   -5.8261  -12.5165   15.3451 H   0  0  0  0  0  0  0  0  0  0  0  0
   -4.2132  -12.7248   15.4928 H   0  0  0  0  0  0  0  0  0  0  0  0
    1.5555  -13.2547   16.1425 H   0  0  0  0  0  0  0  0  0  0  0  0
    0.9407  -12.3173   17.3300 H   0  0  0  0  0  0  0  0  0  0  0  0
    1.8213  -13.6399   17.7070 H   0  0  0  0  0  0  0  0  0  0  0  0
   -1.7601  -18.7867   13.0829 H   0  0  0  0  0  0  0  0  0  0  0  0
    1.7805  -16.2388   17.7689 H   0  0  0  0  0  0  0  0  0  0  0  0
   -2.8573  -16.6691   13.1321 H   0  0  0  0  0  0  0  0  0  0  0  0
   -5.5752  -14.3010   19.9432 H   0  0  0  0  0  0  0  0  0  0  0  0
   -3.7766  -14.2479   21.4795 H   0  0  0  0  0  0  0  0  0  0  0  0
   -2.0934  -14.9837   14.7262 H   0  0  0  0  0  0  0  0  0  0  0  0
   -4.5216  -15.0744   15.6239 H   0  0  0  0  0  0  0  0  0  0  0  0
   -0.7669  -13.6806   16.4403 H   0  0  0  0  0  0  0  0  0  0  0  0
  1  2  1  0  0  0  0
  1 18  2  0  0  0  0
  2 21  2  0  0  0  0
  3  7  1  0  0  0  0
  3 17  2  0  0  0  0
  4 11  2  0  0  0  0
  4 19  1  0  0  0  0
  5 12  1  0  0  0  0
  5 19  1  0  0  0  0
  6 17  1  0  0  0  0
  6 20  1  0  0  0  0
  7 18  1  0  0  0  0
  7 21  1  0  0  0  0
  8 20  1  0  0  0  0
  9 20  1  0  0  0  0
 10 22  1  0  0  0  0
 11 13  1  0  0  0  0
 12 23  2  0  0  0  0
 13 16  2  0  0  0  0
 14 15  2  0  0  0  0
 14 17  1  0  0  0  0
 15 18  1  0  0  0  0
 16 24  1  0  0  0  0
 19 24  2  0  0  0  0
 21 22  1  0  0  0  0
 22 23  1  0  0  0  0
 23 24  1  0  0  0  0
  5 25  1  0  0  0  0
  6 26  1  0  0  0  0
  8 27  1  0  0  0  0
  8 28  1  0  0  0  0
  8 29  1  0  0  0  0
  9 30  1  0  0  0  0
  9 31  1  0  0  0  0
  9 32  1  0  0  0  0
 10 33  1  0  0  0  0
 10 34  1  0  0  0  0
 10 35  1  0  0  0  0
 11 36  1  0  0  0  0
 12 37  1  0  0  0  0
 13 38  1  0  0  0  0
 14 39  1  0  0  0  0
 15 40  1  0  0  0  0
 16 41  1  0  0  0  0
 20 42  1  0  0  0  0
 22 43  1  0  0  0  0
M  END
> <pdb_id>
3ZCL

> <uniprot_id>
P08581

> <usmiles>
n1c2NC=C(c2ccc1)[C@@H](C3=NN=C4N3N=C(NC(C)C)C=C4)C

$$$$
5TO_A_301
          07192423263D 1   1.00000     0.00000     0
            
 35 36  0  0  0  0            999 V2000
   28.2242  -13.9199   -8.1361 O   0  0  0  0  0  0  0  0  0  0  0  0
   29.3588  -15.2571   -6.7563 N   0  0  0  0  0  0  0  0  0  0  0  0
   29.7237  -16.2945   -7.7919 C   0  0  0  0  0  0  0  0  0  0  0  0
   29.9341  -15.6247   -5.4116 C   0  0  0  0  0  0  0  0  0  0  0  0
   30.5443  -17.3975   -7.1487 C   0  0  0  0  0  0  0  0  0  0  0  0
   30.3405  -17.0895   -5.6498 C   0  0  0  0  0  0  0  0  0  0  0  0
   27.0241   -8.7938   -4.3260 C   0  0  0  0  0  0  0  0  0  0  0  0
   28.0246   -9.4798   -3.3728 C   0  0  0  0  0  0  0  0  0  0  0  0
   27.0097   -9.6504   -5.6024 C   0  0  0  0  0  0  0  0  0  0  0  0
   28.4603  -10.7777   -4.0648 C   0  0  0  0  0  0  0  0  0  0  0  0
   28.4799  -13.1679   -5.8350 C   0  0  0  0  0  0  0  0  0  0  0  0
   27.8367  -11.8451   -6.2660 C   0  0  0  0  0  0  0  0  0  0  0  0
   28.6499  -14.1755   -6.9651 C   0  0  0  0  0  0  0  0  0  0  0  0
   27.3739  -11.0131   -5.0788 C   0  0  0  0  0  0  0  0  0  0  0  0
   30.2585  -15.8639   -8.5189 H   0  0  0  0  0  0  0  0  0  0  0  0
   28.8885  -16.6850   -8.1790 H   0  0  0  0  0  0  0  0  0  0  0  0
   29.2495  -15.5477   -4.6868 H   0  0  0  0  0  0  0  0  0  0  0  0
   30.7255  -15.0573   -5.1842 H   0  0  0  0  0  0  0  0  0  0  0  0
   31.5082  -17.3354   -7.4076 H   0  0  0  0  0  0  0  0  0  0  0  0
   30.1926  -18.3026   -7.3877 H   0  0  0  0  0  0  0  0  0  0  0  0
   29.6217  -17.6860   -5.2926 H   0  0  0  0  0  0  0  0  0  0  0  0
   31.1956  -17.2703   -5.1640 H   0  0  0  0  0  0  0  0  0  0  0  0
   27.3237   -7.8628   -4.5344 H   0  0  0  0  0  0  0  0  0  0  0  0
   26.1132   -8.7666   -3.9143 H   0  0  0  0  0  0  0  0  0  0  0  0
   27.5847   -9.6847   -2.4985 H   0  0  0  0  0  0  0  0  0  0  0  0
   28.8157   -8.8882   -3.2174 H   0  0  0  0  0  0  0  0  0  0  0  0
   27.6846   -9.3247   -6.2646 H   0  0  0  0  0  0  0  0  0  0  0  0
   26.1034   -9.6552   -6.0250 H   0  0  0  0  0  0  0  0  0  0  0  0
   28.5095  -11.5328   -3.4110 H   0  0  0  0  0  0  0  0  0  0  0  0
   29.3481  -10.6648   -4.5110 H   0  0  0  0  0  0  0  0  0  0  0  0
   27.9043  -13.5816   -5.1296 H   0  0  0  0  0  0  0  0  0  0  0  0
   29.3826  -12.9685   -5.4539 H   0  0  0  0  0  0  0  0  0  0  0  0
   27.0467  -12.0456   -6.8454 H   0  0  0  0  0  0  0  0  0  0  0  0
   28.5068  -11.3167   -6.7871 H   0  0  0  0  0  0  0  0  0  0  0  0
   26.5811  -11.4404   -4.6442 H   0  0  0  0  0  0  0  0  0  0  0  0
  1 13  2  0  0  0  0
  2  3  1  0  0  0  0
  2  4  1  0  0  0  0
  2 13  1  0  0  0  0
  3  5  1  0  0  0  0
  4  6  1  0  0  0  0
  5  6  1  0  0  0  0
  7  8  1  0  0  0  0
  7  9  1  0  0  0  0
  8 10  1  0  0  0  0
  9 14  1  0  0  0  0
 10 14  1  0  0  0  0
 11 12  1  0  0  0  0
 11 13  1  0  0  0  0
 12 14  1  0  0  0  0
  3 15  1  0  0  0  0
  3 16  1  0  0  0  0
  4 17  1  0  0  0  0
  4 18  1  0  0  0  0
  5 19  1  0  0  0  0
  5 20  1  0  0  0  0
  6 21  1  0  0  0  0
  6 22  1  0  0  0  0
  7 23  1  0  0  0  0
  7 24  1  0  0  0  0
  8 25  1  0  0  0  0
  8 26  1  0  0  0  0
  9 27  1  0  0  0  0
  9 28  1  0  0  0  0
 10 29  1  0  0  0  0
 10 30  1  0  0  0  0
 11 31  1  0  0  0  0
 11 32  1  0  0  0  0
 12 33  1  0  0  0  0
 12 34  1  0  0  0  0
 14 35  1  0  0  0  0
M  END
> <pdb_id>
5F1J

> <uniprot_id>
P9WMC0

> <usmiles>
O=C(N1CCCC1)CCC2CCCC2

$$$$
5TU_B_201
          07202405143D 1   1.00000     0.00000     0
            
 32 33  0  0  0  0            999 V2000
    6.5141   15.7039    8.3583 O   0  0  0  0  0  0  0  0  0  0  0  0
   -2.6761   11.6374   11.6488 O   0  0  0  0  0  0  0  0  0  0  0  0
    7.0140   13.5831    7.9325 N   0  0  0  0  0  0  0  0  0  0  0  0
   -1.2011   11.8794    9.8587 N   0  0  0  0  0  0  0  0  0  0  0  0
   -2.1061   11.2112    8.9175 C   0  0  0  0  0  0  0  0  0  0  0  0
   -0.9602   12.9750   13.5749 C   0  0  0  0  0  0  0  0  0  0  0  0
   -0.0143   12.3354    9.4106 C   0  0  0  0  0  0  0  0  0  0  0  0
    4.1758   14.8879    9.8332 C   0  0  0  0  0  0  0  0  0  0  0  0
    4.1413   13.0401    8.2665 C   0  0  0  0  0  0  0  0  0  0  0  0
    2.9024   14.5286   10.2861 C   0  0  0  0  0  0  0  0  0  0  0  0
    2.8702   12.6784    8.7257 C   0  0  0  0  0  0  0  0  0  0  0  0
    0.5927   13.1862   11.6058 C   0  0  0  0  0  0  0  0  0  0  0  0
    6.1745   14.5321    8.3434 C   0  0  0  0  0  0  0  0  0  0  0  0
   -1.5777   12.0546   11.2149 C   0  0  0  0  0  0  0  0  0  0  0  0
   -0.6241   12.7483   12.1244 C   0  0  0  0  0  0  0  0  0  0  0  0
    4.7971   14.1469    8.8196 C   0  0  0  0  0  0  0  0  0  0  0  0
    0.8960   13.0046   10.2467 C   0  0  0  0  0  0  0  0  0  0  0  0
    2.2332   13.4319    9.7242 C   0  0  0  0  0  0  0  0  0  0  0  0
    6.7225   12.6265    7.9255 H   0  0  0  0  0  0  0  0  0  0  0  0
    7.9357   13.8271    7.6311 H   0  0  0  0  0  0  0  0  0  0  0  0
   -2.9386   10.9325    9.3963 H   0  0  0  0  0  0  0  0  0  0  0  0
   -2.3421   11.8413    8.1777 H   0  0  0  0  0  0  0  0  0  0  0  0
   -1.6545   10.4043    8.5367 H   0  0  0  0  0  0  0  0  0  0  0  0
   -1.8658   12.5983   13.7700 H   0  0  0  0  0  0  0  0  0  0  0  0
   -0.2794   12.5210   14.1497 H   0  0  0  0  0  0  0  0  0  0  0  0
   -0.9586   13.9561   13.7680 H   0  0  0  0  0  0  0  0  0  0  0  0
    0.2267   12.1926    8.4506 H   0  0  0  0  0  0  0  0  0  0  0  0
    4.6439   15.6756   10.2337 H   0  0  0  0  0  0  0  0  0  0  0  0
    4.5816   12.5082    7.5431 H   0  0  0  0  0  0  0  0  0  0  0  0
    2.4665   15.0567   11.0149 H   0  0  0  0  0  0  0  0  0  0  0  0
    2.4122   11.8775    8.3400 H   0  0  0  0  0  0  0  0  0  0  0  0
    1.2555   13.6336   12.2063 H   0  0  0  0  0  0  0  0  0  0  0  0
  1 13  2  0  0  0  0
  2 14  2  0  0  0  0
  3 13  1  0  0  0  0
  4  5  1  0  0  0  0
  4  7  1  0  0  0  0
  4 14  1  0  0  0  0
  6 15  1  0  0  0  0
  7 17  2  0  0  0  0
  8 10  1  0  0  0  0
  8 16  2  0  0  0  0
  9 11  2  0  0  0  0
  9 16  1  0  0  0  0
 10 18  2  0  0  0  0
 11 18  1  0  0  0  0
 12 15  2  0  0  0  0
 12 17  1  0  0  0  0
 13 16  1  0  0  0  0
 14 15  1  0  0  0  0
 17 18  1  0  0  0  0
  3 19  1  0  0  0  0
  3 20  1  0  0  0  0
  5 21  1  0  0  0  0
  5 22  1  0  0  0  0
  5 23  1  0  0  0  0
  6 24  1  0  0  0  0
  6 25  1  0  0  0  0
  6 26  1  0  0  0  0
  7 27  1  0  0  0  0
  8 28  1  0  0  0  0
  9 29  1  0  0  0  0
 10 30  1  0  0  0  0
 11 31  1  0  0  0  0
 12 32  1  0  0  0  0
M  END
> <pdb_id>
5F25

> <uniprot_id>
Q9H8M2

> <usmiles>
O=C(N)c1ccc(cc1)C2=CN(C(=O)C(=C2)C)C

$$$$
5TY_A_201
          07202405143D 1   1.00000     0.00000     0
            
 27 28  0  0  0  0            999 V2000
   -2.5181   11.6870   11.4887 O   0  0  0  0  0  0  0  0  0  0  0  0
   -0.2422   14.2823   14.0262 N   0  0  0  0  0  0  0  0  0  0  0  0
    1.3311   14.4203   12.2052 N   0  0  0  0  0  0  0  0  0  0  0  0
    1.6682   15.5553   14.1893 N   0  0  0  0  0  0  0  0  0  0  0  0
   -0.9546   11.9023    9.8555 N   0  0  0  0  0  0  0  0  0  0  0  0
    2.9051   16.1160   13.6620 C   0  0  0  0  0  0  0  0  0  0  0  0
    1.2905   15.9488   15.5386 C   0  0  0  0  0  0  0  0  0  0  0  0
   -1.7461   11.0268    8.9901 C   0  0  0  0  0  0  0  0  0  0  0  0
   -0.9768   13.4485   13.2802 C   0  0  0  0  0  0  0  0  0  0  0  0
    0.2272   12.4292    9.3976 C   0  0  0  0  0  0  0  0  0  0  0  0
    0.9930   13.2240   10.1467 C   0  0  0  0  0  0  0  0  0  0  0  0
    0.8931   14.7310   13.4503 C   0  0  0  0  0  0  0  0  0  0  0  0
   -1.4611   12.1749   11.1288 C   0  0  0  0  0  0  0  0  0  0  0  0
    0.5486   13.5933   11.4813 C   0  0  0  0  0  0  0  0  0  0  0  0
   -0.6518   13.0664   11.9788 C   0  0  0  0  0  0  0  0  0  0  0  0
    3.0569   15.7747   12.7344 H   0  0  0  0  0  0  0  0  0  0  0  0
    2.8375   17.1136   13.6433 H   0  0  0  0  0  0  0  0  0  0  0  0
    3.6699   15.8446   14.2464 H   0  0  0  0  0  0  0  0  0  0  0  0
    0.4306   15.5031   15.7874 H   0  0  0  0  0  0  0  0  0  0  0  0
    2.0068   15.6725   16.1793 H   0  0  0  0  0  0  0  0  0  0  0  0
    1.1745   16.9414   15.5762 H   0  0  0  0  0  0  0  0  0  0  0  0
   -2.5697   10.7339    9.4759 H   0  0  0  0  0  0  0  0  0  0  0  0
   -2.0064   11.5234    8.1620 H   0  0  0  0  0  0  0  0  0  0  0  0
   -1.2031   10.2248    8.7411 H   0  0  0  0  0  0  0  0  0  0  0  0
   -1.8130   13.0753   13.6821 H   0  0  0  0  0  0  0  0  0  0  0  0
    0.5250   12.2092    8.4687 H   0  0  0  0  0  0  0  0  0  0  0  0
    1.8650   13.5629    9.7937 H   0  0  0  0  0  0  0  0  0  0  0  0
  1 13  2  0  0  0  0
  2  9  1  0  0  0  0
  2 12  2  0  0  0  0
  3 12  1  0  0  0  0
  3 14  2  0  0  0  0
  4  6  1  0  0  0  0
  4  7  1  0  0  0  0
  4 12  1  0  0  0  0
  5  8  1  0  0  0  0
  5 10  1  0  0  0  0
  5 13  1  0  0  0  0
  9 15  2  0  0  0  0
 10 11  2  0  0  0  0
 11 14  1  0  0  0  0
 13 15  1  0  0  0  0
 14 15  1  0  0  0  0
  6 16  1  0  0  0  0
  6 17  1  0  0  0  0
  6 18  1  0  0  0  0
  7 19  1  0  0  0  0
  7 20  1  0  0  0  0
  7 21  1  0  0  0  0
  8 22  1  0  0  0  0
  8 23  1  0  0  0  0
  8 24  1  0  0  0  0
  9 25  1  0  0  0  0
 10 26  1  0  0  0  0
 11 27  1  0  0  0  0
M  END
> <pdb_id>
5F2P

> <uniprot_id>
Q9H8M2

> <usmiles>
O=C1N(C=Cc2nc(ncc21)N(C)C)C

$$$$
5TZ_D_403
          07202411573D 1   1.00000     0.00000     0
            
 22 23  0  0  0  0            999 V2000
   -7.6736  101.4998   20.7812 S   0  0  0  0  0  0  0  0  0  0  0  0
   -1.8641  100.1296   15.1391 O   0  0  0  0  0  0  0  0  0  0  0  0
   -3.3317   98.7786   16.0624 O   0  0  0  0  0  0  0  0  0  0  0  0
   -7.8736  104.1575   21.1498 N   0  0  0  0  0  0  0  0  0  0  0  0
   -5.2708  103.2926   16.9055 N   0  0  0  0  0  0  0  0  0  0  0  0
   -6.6110  103.3698   19.3318 N   0  0  0  0  0  0  0  0  0  0  0  0
   -6.7334  101.0487   19.4076 C   0  0  0  0  0  0  0  0  0  0  0  0
   -4.3469  103.3576   15.9336 C   0  0  0  0  0  0  0  0  0  0  0  0
   -3.5356  102.2987   15.5755 C   0  0  0  0  0  0  0  0  0  0  0  0
   -4.6420  100.9961   17.2461 C   0  0  0  0  0  0  0  0  0  0  0  0
   -7.3647  103.1760   20.3978 C   0  0  0  0  0  0  0  0  0  0  0  0
   -2.9011   99.8930   15.8610 C   0  0  0  0  0  0  0  0  0  0  0  0
   -6.2471  102.1391   18.7598 C   0  0  0  0  0  0  0  0  0  0  0  0
   -5.3849  102.1278   17.5674 C   0  0  0  0  0  0  0  0  0  0  0  0
   -3.7080  101.0828   16.2228 C   0  0  0  0  0  0  0  0  0  0  0  0
   -1.5517  101.0701   15.0058 H   0  0  0  0  0  0  0  0  0  0  0  0
   -7.6882  105.1124   20.9180 H   0  0  0  0  0  0  0  0  0  0  0  0
   -8.4397  103.9366   21.9441 H   0  0  0  0  0  0  0  0  0  0  0  0
   -6.5674  100.1042   19.1240 H   0  0  0  0  0  0  0  0  0  0  0  0
   -4.2401  104.2214   15.4412 H   0  0  0  0  0  0  0  0  0  0  0  0
   -2.8395  102.4055   14.8656 H   0  0  0  0  0  0  0  0  0  0  0  0
   -4.7781  100.1383   17.7418 H   0  0  0  0  0  0  0  0  0  0  0  0
  1  7  1  0  0  0  0
  1 11  1  0  0  0  0
  2 12  1  0  0  0  0
  3 12  2  0  0  0  0
  4 11  1  0  0  0  0
  5  8  2  0  0  0  0
  5 14  1  0  0  0  0
  6 11  2  0  0  0  0
  6 13  1  0  0  0  0
  7 13  2  0  0  0  0
  8  9  1  0  0  0  0
  9 15  2  0  0  0  0
 10 14  2  0  0  0  0
 10 15  1  0  0  0  0
 12 15  1  0  0  0  0
 13 14  1  0  0  0  0
  2 16  1  0  0  0  0
  4 17  1  0  0  0  0
  4 18  1  0  0  0  0
  7 19  1  0  0  0  0
  8 20  1  0  0  0  0
  9 21  1  0  0  0  0
 10 22  1  0  0  0  0
M  END
> <pdb_id>
5F2S

> <uniprot_id>
O75164

> <usmiles>
S1C(=NC(c2nccc(c2)C(=O)O)=C1)N

$$$$
5US_A_201
          07202405373D 1   1.00000     0.00000     0
            
 54 56  0  0  0  0            999 V2000
   13.5753   23.7731  -18.6746 O   0  0  0  0  0  0  0  0  0  0  0  0
   13.9990   13.5786  -13.5248 O   0  0  0  0  0  0  0  0  0  0  0  0
   10.5126   11.4914  -14.8716 O   0  0  0  0  0  0  0  0  0  0  0  0
    9.2337   12.0407  -12.4215 O   0  0  0  0  0  0  0  0  0  0  0  0
   11.1252   13.7509  -11.3144 O   0  0  0  0  0  0  0  0  0  0  0  0
    9.5779   14.8719  -15.2621 O   0  0  0  0  0  0  0  0  0  0  0  0
   11.7177   14.1120  -14.8974 O   0  0  0  0  0  0  0  0  0  0  0  0
   14.7000   21.7666  -18.8852 N   0  0  0  0  0  0  0  0  0  0  0  0
   14.7650   20.3328  -18.8686 C   0  0  0  0  0  0  0  0  0  0  0  0
    8.1554   17.0987  -14.3728 C   0  0  0  0  0  0  0  0  0  0  0  0
    9.6552   22.3439  -18.2116 C   0  0  0  0  0  0  0  0  0  0  0  0
   10.8921   22.8165  -18.5007 C   0  0  0  0  0  0  0  0  0  0  0  0
    9.5070   20.9270  -17.6537 C   0  0  0  0  0  0  0  0  0  0  0  0
   10.8960   16.3156  -16.8380 C   0  0  0  0  0  0  0  0  0  0  0  0
   11.1486   17.6247  -17.3808 C   0  0  0  0  0  0  0  0  0  0  0  0
    9.4750   18.4747  -15.9511 C   0  0  0  0  0  0  0  0  0  0  0  0
   11.9685   20.6984  -17.7871 C   0  0  0  0  0  0  0  0  0  0  0  0
   13.2496   14.7705  -13.1911 C   0  0  0  0  0  0  0  0  0  0  0  0
   13.4869   22.5478  -18.6234 C   0  0  0  0  0  0  0  0  0  0  0  0
    9.9191   16.1155  -15.8454 C   0  0  0  0  0  0  0  0  0  0  0  0
    9.2144   17.2301  -15.4260 C   0  0  0  0  0  0  0  0  0  0  0  0
   12.1100   21.9622  -18.2880 C   0  0  0  0  0  0  0  0  0  0  0  0
   10.5949   20.1753  -17.4513 C   0  0  0  0  0  0  0  0  0  0  0  0
   10.4079   18.7471  -16.9103 C   0  0  0  0  0  0  0  0  0  0  0  0
   10.4469   13.8025  -15.4549 C   0  0  1  0  0  0  0  0  0  0  0  0
    9.7951   12.7036  -14.6572 C   0  0  2  0  0  0  0  0  0  0  0  0
    9.7888   13.1064  -13.2024 C   0  0  2  0  0  0  0  0  0  0  0  0
   11.1798   13.4163  -12.7092 C   0  0  1  0  0  0  0  0  0  0  0  0
   11.7873   14.5217  -13.5494 C   0  0  2  0  0  0  0  0  0  0  0  0
   14.7541   13.5461  -13.0240 H   0  0  0  0  0  0  0  0  0  0  0  0
   10.0840   10.8258  -14.4905 H   0  0  0  0  0  0  0  0  0  0  0  0
    9.5903   11.2688  -12.6773 H   0  0  0  0  0  0  0  0  0  0  0  0
   11.2532   14.6331  -11.2129 H   0  0  0  0  0  0  0  0  0  0  0  0
   15.4656   22.2235  -19.0772 H   0  0  0  0  0  0  0  0  0  0  0  0
   14.7536   20.0159  -17.9431 H   0  0  0  0  0  0  0  0  0  0  0  0
   15.5959   20.0372  -19.3082 H   0  0  0  0  0  0  0  0  0  0  0  0
   13.9962   19.9669  -19.3477 H   0  0  0  0  0  0  0  0  0  0  0  0
    8.4449   17.5583  -13.5540 H   0  0  0  0  0  0  0  0  0  0  0  0
    8.0151   16.1516  -14.1771 H   0  0  0  0  0  0  0  0  0  0  0  0
    7.3206   17.4857  -14.6988 H   0  0  0  0  0  0  0  0  0  0  0  0
    8.8706   22.9003  -18.3534 H   0  0  0  0  0  0  0  0  0  0  0  0
   10.9903   23.6898  -18.8420 H   0  0  0  0  0  0  0  0  0  0  0  0
    8.6419   20.5818  -17.4476 H   0  0  0  0  0  0  0  0  0  0  0  0
   11.4169   15.5425  -17.1704 H   0  0  0  0  0  0  0  0  0  0  0  0
   11.8354   17.7450  -18.0738 H   0  0  0  0  0  0  0  0  0  0  0  0
    8.9375   19.2318  -15.6133 H   0  0  0  0  0  0  0  0  0  0  0  0
   12.7436   20.1458  -17.6437 H   0  0  0  0  0  0  0  0  0  0  0  0
   13.3288   14.9550  -12.2232 H   0  0  0  0  0  0  0  0  0  0  0  0
   13.5898   15.5289  -13.7006 H   0  0  0  0  0  0  0  0  0  0  0  0
   10.5165   13.5644  -16.4044 H   0  0  0  0  0  0  0  0  0  0  0  0
    8.8929   12.5914  -14.9551 H   0  0  0  0  0  0  0  0  0  0  0  0
    9.2232   13.9112  -13.0952 H   0  0  0  0  0  0  0  0  0  0  0  0
   11.7381   12.6008  -12.8125 H   0  0  0  0  0  0  0  0  0  0  0  0
   11.2755   15.3430  -13.4292 H   0  0  0  0  0  0  0  0  0  0  0  0
  1 19  2  0  0  0  0
  2 18  1  0  0  0  0
  2 30  1  0  0  0  0
  3 26  1  0  0  0  0
  3 31  1  0  0  0  0
  4 27  1  0  0  0  0
  4 32  1  0  0  0  0
  5 28  1  0  0  0  0
  5 33  1  0  0  0  0
  6 20  1  0  0  0  0
  6 25  1  0  0  0  0
  7 25  1  0  0  0  0
  7 29  1  0  0  0  0
  8  9  1  0  0  0  0
  8 19  1  0  0  0  0
  8 34  1  0  0  0  0
  9 35  1  0  0  0  0
  9 36  1  0  0  0  0
  9 37  1  0  0  0  0
 10 21  1  0  0  0  0
 10 38  1  0  0  0  0
 10 39  1  0  0  0  0
 10 40  1  0  0  0  0
 11 12  1  0  0  0  0
 11 13  2  0  0  0  0
 11 41  1  0  0  0  0
 12 22  2  0  0  0  0
 12 42  1  0  0  0  0
 13 23  1  0  0  0  0
 13 43  1  0  0  0  0
 14 15  2  0  0  0  0
 14 20  1  0  0  0  0
 14 44  1  0  0  0  0
 15 24  1  0  0  0  0
 15 45  1  0  0  0  0
 16 21  1  0  0  0  0
 16 24  2  0  0  0  0
 16 46  1  0  0  0  0
 17 22  1  0  0  0  0
 17 23  2  0  0  0  0
 17 47  1  0  0  0  0
 18 29  1  0  0  0  0
 18 48  1  0  0  0  0
 18 49  1  0  0  0  0
 19 22  1  0  0  0  0
 20 21  2  0  0  0  0
 23 24  1  0  0  0  0
 25 26  1  0  0  0  0
 25 50  1  0  0  0  0
 26 27  1  0  0  0  0
 26 51  1  0  0  0  0
 27 28  1  0  0  0  0
 27 52  1  0  0  0  0
 28 29  1  0  0  0  0
 28 53  1  0  0  0  0
 29 54  1  0  0  0  0
M  END
> <pdb_id>
5F3F

> <uniprot_id>
P08191

> <usmiles>
O=C(NC)c1cc(c2cc(c(O[C@H]3O[C@@H]([C@@H](O)[C@H](O)[C@@H]3O)CO)cc2)C)ccc1

$$$$
5V5_A_1003
          07202406303D 1   1.00000     0.00000     0
            
 29 30  0  0  0  0            999 V2000
   28.6703  178.6491   18.8277 S   0  0  0  0  0  0  0  0  0  0  0  0
   25.2141  173.1828   19.6622 O   0  0  0  0  0  0  0  0  0  0  0  0
   24.4126  172.3321   17.8127 O   0  0  0  0  0  0  0  0  0  0  0  0
   30.3562  176.5622   19.8836 O   0  0  0  0  0  0  0  0  0  0  0  0
   31.4402  176.2728   20.7694 C   0  0  0  0  0  0  0  0  0  0  0  0
   28.2901  179.8146   17.6042 C   0  0  0  0  0  0  0  0  0  0  0  0
   27.8179  179.0891   16.5177 C   0  0  0  0  0  0  0  0  0  0  0  0
   27.7968  177.6918   16.6396 C   0  0  0  0  0  0  0  0  0  0  0  0
   29.5926  174.2592   19.9199 C   0  0  0  0  0  0  0  0  0  0  0  0
   28.7003  173.2974   19.4547 C   0  0  0  0  0  0  0  0  0  0  0  0
   26.7692  172.5279   17.9978 C   0  0  0  0  0  0  0  0  0  0  0  0
   27.5550  174.9063   18.0489 C   0  0  0  0  0  0  0  0  0  0  0  0
   25.3681  172.6986   18.5247 C   0  0  0  0  0  0  0  0  0  0  0  0
   28.2346  177.2688   17.8864 C   0  0  0  0  0  0  0  0  0  0  0  0
   29.4750  175.5887   19.4733 C   0  0  0  0  0  0  0  0  0  0  0  0
   27.7069  173.6092   18.5169 C   0  0  0  0  0  0  0  0  0  0  0  0
   28.4087  175.9160   18.4825 C   0  0  0  0  0  0  0  0  0  0  0  0
   26.0103  173.4634   20.1982 H   0  0  0  0  0  0  0  0  0  0  0  0
   31.9601  177.1089   20.9443 H   0  0  0  0  0  0  0  0  0  0  0  0
   31.0800  175.9176   21.6320 H   0  0  0  0  0  0  0  0  0  0  0  0
   32.0388  175.5893   20.3515 H   0  0  0  0  0  0  0  0  0  0  0  0
   28.3902  180.8076   17.6672 H   0  0  0  0  0  0  0  0  0  0  0  0
   27.5060  179.5439   15.6835 H   0  0  0  0  0  0  0  0  0  0  0  0
   27.5006  177.0725   15.9125 H   0  0  0  0  0  0  0  0  0  0  0  0
   30.3123  174.0072   20.5669 H   0  0  0  0  0  0  0  0  0  0  0  0
   28.7700  172.3609   19.7983 H   0  0  0  0  0  0  0  0  0  0  0  0
   26.7466  172.5719   16.9990 H   0  0  0  0  0  0  0  0  0  0  0  0
   27.1157  171.6347   18.2843 H   0  0  0  0  0  0  0  0  0  0  0  0
   26.8275  175.1170   17.3959 H   0  0  0  0  0  0  0  0  0  0  0  0
  1  6  1  0  0  0  0
  1 14  1  0  0  0  0
  2 13  1  0  0  0  0
  3 13  2  0  0  0  0
  4  5  1  0  0  0  0
  4 15  1  0  0  0  0
  6  7  2  0  0  0  0
  7  8  1  0  0  0  0
  8 14  2  0  0  0  0
  9 10  1  0  0  0  0
  9 15  2  0  0  0  0
 10 16  2  0  0  0  0
 11 13  1  0  0  0  0
 11 16  1  0  0  0  0
 12 16  1  0  0  0  0
 12 17  2  0  0  0  0
 14 17  1  0  0  0  0
 15 17  1  0  0  0  0
  2 18  1  0  0  0  0
  5 19  1  0  0  0  0
  5 20  1  0  0  0  0
  5 21  1  0  0  0  0
  6 22  1  0  0  0  0
  7 23  1  0  0  0  0
  8 24  1  0  0  0  0
  9 25  1  0  0  0  0
 10 26  1  0  0  0  0
 11 27  1  0  0  0  0
 11 28  1  0  0  0  0
 12 29  1  0  0  0  0
M  END
> <pdb_id>
5F3Z

> <uniprot_id>
Q6DLV0

> <usmiles>
S1C(c2c(OC)ccc(c2)CC(=O)O)=CC=C1

$$$$
5V6_A_1003
          07202406303D 1   1.00000     0.00000     0
            
 29 30  0  0  0  0            999 V2000
   28.0069  179.4103   16.3735 S   0  0  0  0  0  0  0  0  0  0  0  0
   24.6177  172.2319   17.8099 O   0  0  0  0  0  0  0  0  0  0  0  0
   25.3725  173.1796   19.6249 O   0  0  0  0  0  0  0  0  0  0  0  0
   30.4280  176.7340   19.9050 O   0  0  0  0  0  0  0  0  0  0  0  0
   31.5377  176.4386   20.7584 C   0  0  0  0  0  0  0  0  0  0  0  0
   28.4949  179.8471   17.9632 C   0  0  0  0  0  0  0  0  0  0  0  0
   28.0306  177.6907   16.5756 C   0  0  0  0  0  0  0  0  0  0  0  0
   28.6263  178.6411   18.6408 C   0  0  0  0  0  0  0  0  0  0  0  0
   29.7003  174.4120   19.9263 C   0  0  0  0  0  0  0  0  0  0  0  0
   28.8471  173.4200   19.4366 C   0  0  0  0  0  0  0  0  0  0  0  0
   26.9598  172.6105   17.9677 C   0  0  0  0  0  0  0  0  0  0  0  0
   27.6957  175.0339   18.0152 C   0  0  0  0  0  0  0  0  0  0  0  0
   25.5543  172.6837   18.5017 C   0  0  0  0  0  0  0  0  0  0  0  0
   29.5786  175.7450   19.4646 C   0  0  0  0  0  0  0  0  0  0  0  0
   27.8430  173.7269   18.5064 C   0  0  0  0  0  0  0  0  0  0  0  0
   28.3799  177.4575   17.9119 C   0  0  0  0  0  0  0  0  0  0  0  0
   28.5243  176.0753   18.4686 C   0  0  0  0  0  0  0  0  0  0  0  0
   24.8053  171.8401   16.9092 H   0  0  0  0  0  0  0  0  0  0  0  0
   32.0315  177.2827   20.9672 H   0  0  0  0  0  0  0  0  0  0  0  0
   31.2052  176.0281   21.6075 H   0  0  0  0  0  0  0  0  0  0  0  0
   32.1520  175.7985   20.2969 H   0  0  0  0  0  0  0  0  0  0  0  0
   28.6502  180.7676   18.3217 H   0  0  0  0  0  0  0  0  0  0  0  0
   27.8341  177.0018   15.8779 H   0  0  0  0  0  0  0  0  0  0  0  0
   28.8851  178.6127   19.6063 H   0  0  0  0  0  0  0  0  0  0  0  0
   30.3982  174.1802   20.6039 H   0  0  0  0  0  0  0  0  0  0  0  0
   28.9536  172.4777   19.7538 H   0  0  0  0  0  0  0  0  0  0  0  0
   26.9286  172.6783   16.9705 H   0  0  0  0  0  0  0  0  0  0  0  0
   27.3577  171.7312   18.2297 H   0  0  0  0  0  0  0  0  0  0  0  0
   26.9909  175.2270   17.3327 H   0  0  0  0  0  0  0  0  0  0  0  0
  1  6  1  0  0  0  0
  1  7  1  0  0  0  0
  2 13  1  0  0  0  0
  3 13  2  0  0  0  0
  4  5  1  0  0  0  0
  4 14  1  0  0  0  0
  6  8  2  0  0  0  0
  7 16  2  0  0  0  0
  8 16  1  0  0  0  0
  9 10  1  0  0  0  0
  9 14  2  0  0  0  0
 10 15  2  0  0  0  0
 11 13  1  0  0  0  0
 11 15  1  0  0  0  0
 12 15  1  0  0  0  0
 12 17  2  0  0  0  0
 14 17  1  0  0  0  0
 16 17  1  0  0  0  0
  2 18  1  0  0  0  0
  5 19  1  0  0  0  0
  5 20  1  0  0  0  0
  5 21  1  0  0  0  0
  6 22  1  0  0  0  0
  7 23  1  0  0  0  0
  8 24  1  0  0  0  0
  9 25  1  0  0  0  0
 10 26  1  0  0  0  0
 11 27  1  0  0  0  0
 11 28  1  0  0  0  0
 12 29  1  0  0  0  0
M  END
> <pdb_id>
5F41

> <uniprot_id>
Q6DLV0

> <usmiles>
S1C=C(c2c(OC)ccc(c2)CC(=O)O)C=C1

$$$$
5V7_C_403
          07202411573D 1   1.00000     0.00000     0
            
 24 26  0  0  0  0            999 V2000
   -7.5654  101.5082   20.7338 S   0  0  0  0  0  0  0  0  0  0  0  0
   -1.9761  100.3279   14.7081 O   0  0  0  0  0  0  0  0  0  0  0  0
   -7.9855  104.1564   20.9145 N   0  0  0  0  0  0  0  0  0  0  0  0
   -3.1164   99.0389   16.1536 N   0  0  0  0  0  0  0  0  0  0  0  0
   -4.8343   99.8553   17.5662 N   0  0  0  0  0  0  0  0  0  0  0  0
   -5.3552  103.3830   16.8402 N   0  0  0  0  0  0  0  0  0  0  0  0
   -6.7633  103.3372   19.0920 N   0  0  0  0  0  0  0  0  0  0  0  0
   -6.6545  101.0404   19.3623 C   0  0  0  0  0  0  0  0  0  0  0  0
   -4.0640   98.8927   17.1107 C   0  0  0  0  0  0  0  0  0  0  0  0
   -4.4441  103.5728   15.8750 C   0  0  0  0  0  0  0  0  0  0  0  0
   -3.5825  102.5982   15.4171 C   0  0  0  0  0  0  0  0  0  0  0  0
   -7.4362  103.1665   20.2071 C   0  0  0  0  0  0  0  0  0  0  0  0
   -2.8635  100.2227   15.5453 C   0  0  0  0  0  0  0  0  0  0  0  0
   -6.3085  102.1177   18.6145 C   0  0  0  0  0  0  0  0  0  0  0  0
   -5.4490  102.1776   17.4257 C   0  0  0  0  0  0  0  0  0  0  0  0
   -4.6478  101.1043   16.9955 C   0  0  0  0  0  0  0  0  0  0  0  0
   -3.7004  101.3375   15.9902 C   0  0  0  0  0  0  0  0  0  0  0  0
   -7.9027  105.1018   20.5994 H   0  0  0  0  0  0  0  0  0  0  0  0
   -8.4798  103.9525   21.7596 H   0  0  0  0  0  0  0  0  0  0  0  0
   -2.5806   98.2386   15.8846 H   0  0  0  0  0  0  0  0  0  0  0  0
   -6.4095  100.0964   19.1412 H   0  0  0  0  0  0  0  0  0  0  0  0
   -4.1871   97.9804   17.5014 H   0  0  0  0  0  0  0  0  0  0  0  0
   -4.3855  104.4807   15.4600 H   0  0  0  0  0  0  0  0  0  0  0  0
   -2.9052  102.7894   14.7066 H   0  0  0  0  0  0  0  0  0  0  0  0
  1  8  1  0  0  0  0
  1 12  1  0  0  0  0
  2 13  2  0  0  0  0
  3 12  1  0  0  0  0
  4  9  1  0  0  0  0
  4 13  1  0  0  0  0
  5  9  2  0  0  0  0
  5 16  1  0  0  0  0
  6 10  2  0  0  0  0
  6 15  1  0  0  0  0
  7 12  2  0  0  0  0
  7 14  1  0  0  0  0
  8 14  2  0  0  0  0
 10 11  1  0  0  0  0
 11 17  2  0  0  0  0
 13 17  1  0  0  0  0
 14 15  1  0  0  0  0
 15 16  2  0  0  0  0
 16 17  1  0  0  0  0
  3 18  1  0  0  0  0
  3 19  1  0  0  0  0
  4 20  1  0  0  0  0
  8 21  1  0  0  0  0
  9 22  1  0  0  0  0
 10 23  1  0  0  0  0
 11 24  1  0  0  0  0
M  END
> <pdb_id>
5F32

> <uniprot_id>
O75164

> <usmiles>
S1C(=NC(c2nccc3c2N=CNC3=O)=C1)N

$$$$
5W4_A_201
          07212401333D 1   1.00000     0.00000     0
            
 42 45  0  0  0  0            999 V2000
  -12.5283  -17.4336  -17.9817 O   0  0  0  0  0  0  0  0  0  0  0  0
  -16.2673  -23.4085  -23.2455 O   0  0  0  0  0  0  0  0  0  0  0  0
  -17.3105  -22.4248  -23.3883 N   0  0  0  0  0  0  0  0  0  0  0  0
  -12.7297  -19.6094  -17.1972 N   0  0  0  0  0  0  0  0  0  0  0  0
  -11.9002  -19.5173  -16.0006 C   0  0  0  0  0  0  0  0  0  0  0  0
  -14.2075  -23.7918  -22.0483 C   0  0  0  0  0  0  0  0  0  0  0  0
  -17.7907  -20.1808  -22.5994 C   0  0  0  0  0  0  0  0  0  0  0  0
  -16.5109  -22.2296  -14.8885 C   0  0  0  0  0  0  0  0  0  0  0  0
  -15.4748  -23.0622  -15.2450 C   0  0  0  0  0  0  0  0  0  0  0  0
  -16.5359  -20.9355  -15.3550 C   0  0  0  0  0  0  0  0  0  0  0  0
  -14.4798  -22.6138  -16.0964 C   0  0  0  0  0  0  0  0  0  0  0  0
  -15.5468  -20.4858  -16.2100 C   0  0  0  0  0  0  0  0  0  0  0  0
  -14.7827  -19.4340  -21.3433 C   0  0  0  0  0  0  0  0  0  0  0  0
  -14.0946  -18.6394  -20.4416 C   0  0  0  0  0  0  0  0  0  0  0  0
  -14.5455  -21.3251  -19.8706 C   0  0  0  0  0  0  0  0  0  0  0  0
  -12.8967  -18.5748  -18.1176 C   0  0  0  0  0  0  0  0  0  0  0  0
  -15.3366  -22.9051  -22.4189 C   0  0  0  0  0  0  0  0  0  0  0  0
  -16.9401  -21.4043  -22.6701 C   0  0  0  0  0  0  0  0  0  0  0  0
  -13.4751  -20.7815  -17.5401 C   0  0  1  0  0  0  0  0  0  0  0  0
  -14.5159  -21.3241  -16.5991 C   0  0  0  0  0  0  0  0  0  0  0  0
  -15.0036  -20.7939  -21.0723 C   0  0  0  0  0  0  0  0  0  0  0  0
  -13.6482  -19.1879  -19.2412 C   0  0  0  0  0  0  0  0  0  0  0  0
  -13.8938  -20.5117  -18.9549 C   0  0  0  0  0  0  0  0  0  0  0  0
  -15.7172  -21.6602  -22.0302 C   0  0  0  0  0  0  0  0  0  0  0  0
  -11.9388  -20.3826  -15.5008 H   0  0  0  0  0  0  0  0  0  0  0  0
  -10.9546  -19.3266  -16.2644 H   0  0  0  0  0  0  0  0  0  0  0  0
  -12.2385  -18.7796  -15.4164 H   0  0  0  0  0  0  0  0  0  0  0  0
  -13.5881  -23.3035  -21.4335 H   0  0  0  0  0  0  0  0  0  0  0  0
  -14.5605  -24.6063  -21.5880 H   0  0  0  0  0  0  0  0  0  0  0  0
  -13.7123  -24.0635  -22.8736 H   0  0  0  0  0  0  0  0  0  0  0  0
  -17.3535  -19.5046  -22.0065 H   0  0  0  0  0  0  0  0  0  0  0  0
  -17.9011  -19.7980  -23.5166 H   0  0  0  0  0  0  0  0  0  0  0  0
  -18.6879  -20.4195  -22.2277 H   0  0  0  0  0  0  0  0  0  0  0  0
  -17.2418  -22.5635  -14.2933 H   0  0  0  0  0  0  0  0  0  0  0  0
  -15.4406  -23.9955  -14.8875 H   0  0  0  0  0  0  0  0  0  0  0  0
  -17.2715  -20.3185  -15.0750 H   0  0  0  0  0  0  0  0  0  0  0  0
  -13.7301  -23.2251  -16.3501 H   0  0  0  0  0  0  0  0  0  0  0  0
  -15.5763  -19.5460  -16.5507 H   0  0  0  0  0  0  0  0  0  0  0  0
  -15.1251  -19.0360  -22.1944 H   0  0  0  0  0  0  0  0  0  0  0  0
  -13.9191  -17.6775  -20.6509 H   0  0  0  0  0  0  0  0  0  0  0  0
  -14.6860  -22.2940  -19.6669 H   0  0  0  0  0  0  0  0  0  0  0  0
  -12.7911  -21.5076  -17.6104 H   0  0  0  0  0  0  0  0  0  0  0  0
  1 16  2  0  0  0  0
  2  3  1  0  0  0  0
  2 17  1  0  0  0  0
  3 18  2  0  0  0  0
  4  5  1  0  0  0  0
  4 16  1  0  0  0  0
  4 19  1  0  0  0  0
  6 17  1  0  0  0  0
  7 18  1  0  0  0  0
  8  9  2  0  0  0  0
  8 10  1  0  0  0  0
  9 11  1  0  0  0  0
 10 12  2  0  0  0  0
 11 20  2  0  0  0  0
 12 20  1  0  0  0  0
 13 14  1  0  0  0  0
 13 21  2  0  0  0  0
 14 22  2  0  0  0  0
 15 21  1  0  0  0  0
 15 23  2  0  0  0  0
 16 22  1  0  0  0  0
 17 24  2  0  0  0  0
 18 24  1  0  0  0  0
 19 20  1  0  0  0  0
 19 23  1  0  0  0  0
 21 24  1  0  0  0  0
 22 23  1  0  0  0  0
  5 25  1  0  0  0  0
  5 26  1  0  0  0  0
  5 27  1  0  0  0  0
  6 28  1  0  0  0  0
  6 29  1  0  0  0  0
  6 30  1  0  0  0  0
  7 31  1  0  0  0  0
  7 32  1  0  0  0  0
  7 33  1  0  0  0  0
  8 34  1  0  0  0  0
  9 35  1  0  0  0  0
 10 36  1  0  0  0  0
 11 37  1  0  0  0  0
 12 38  1  0  0  0  0
 13 39  1  0  0  0  0
 14 40  1  0  0  0  0
 15 41  1  0  0  0  0
 19 42  1  0  0  0  0
M  END
> <pdb_id>
5FBX

> <uniprot_id>
O60885

> <usmiles>
O=C1N([C@H](c2c1ccc(c2)C3=C(ON=C3C)C)c4ccccc4)C

$$$$
5WN_A_302
          07192416293D 1   1.00000     0.00000     0
            
 25 26  0  0  0  0            999 V2000
   -6.1088    5.6850   13.9396 S   0  0  0  0  0  0  0  0  0  0  0  0
   -5.5408    0.8696   16.7731 S   0  0  0  0  0  0  0  0  0  0  0  0
   -6.8234    1.3094   16.3133 O   0  0  0  0  0  0  0  0  0  0  0  0
   -5.2632    0.8161   18.1739 O   0  0  0  0  0  0  0  0  0  0  0  0
   -5.2438   -0.5884   16.1612 N   0  0  0  0  0  0  0  0  0  0  0  0
   -4.4135    1.8568   16.1726 N   0  0  0  0  0  0  0  0  0  0  0  0
   -6.0573    4.0135   14.3783 C   0  0  0  0  0  0  0  0  0  0  0  0
   -2.1984    6.6738   13.2592 C   0  0  0  0  0  0  0  0  0  0  0  0
   -1.6095    5.4164   13.5347 C   0  0  0  0  0  0  0  0  0  0  0  0
   -4.5386    2.0432   14.7357 C   0  0  0  0  0  0  0  0  0  0  0  0
   -3.6081    6.8496   13.3618 C   0  0  0  0  0  0  0  0  0  0  0  0
   -2.3783    4.3220   13.9076 C   0  0  0  0  0  0  0  0  0  0  0  0
   -4.3889    5.7311   13.7436 C   0  0  0  0  0  0  0  0  0  0  0  0
   -4.8282    3.4803   14.3885 C   0  0  0  0  0  0  0  0  0  0  0  0
   -3.8139    4.4516   14.0249 C   0  0  0  0  0  0  0  0  0  0  0  0
   -4.3494   -0.9062   16.4760 H   0  0  0  0  0  0  0  0  0  0  0  0
   -5.9504   -1.2276   16.4648 H   0  0  0  0  0  0  0  0  0  0  0  0
   -3.5123    1.4697   16.3678 H   0  0  0  0  0  0  0  0  0  0  0  0
   -6.8772    3.4880   14.6057 H   0  0  0  0  0  0  0  0  0  0  0  0
   -1.6204    7.4444   12.9906 H   0  0  0  0  0  0  0  0  0  0  0  0
   -0.6176    5.3140   13.4590 H   0  0  0  0  0  0  0  0  0  0  0  0
   -5.2853    1.4704   14.3976 H   0  0  0  0  0  0  0  0  0  0  0  0
   -3.6830    1.7689   14.2967 H   0  0  0  0  0  0  0  0  0  0  0  0
   -4.0331    7.7343   13.1703 H   0  0  0  0  0  0  0  0  0  0  0  0
   -1.9390    3.4435   14.0953 H   0  0  0  0  0  0  0  0  0  0  0  0
  1  7  1  0  0  0  0
  1 13  1  0  0  0  0
  2  3  2  0  0  0  0
  2  4  2  0  0  0  0
  2  5  1  0  0  0  0
  2  6  1  0  0  0  0
  6 10  1  0  0  0  0
  7 14  2  0  0  0  0
  8  9  2  0  0  0  0
  8 11  1  0  0  0  0
  9 12  1  0  0  0  0
 10 14  1  0  0  0  0
 11 13  2  0  0  0  0
 12 15  2  0  0  0  0
 13 15  1  0  0  0  0
 14 15  1  0  0  0  0
  5 16  1  0  0  0  0
  5 17  1  0  0  0  0
  6 18  1  0  0  0  0
  7 19  1  0  0  0  0
  8 20  1  0  0  0  0
  9 21  1  0  0  0  0
 10 22  1  0  0  0  0
 10 23  1  0  0  0  0
 11 24  1  0  0  0  0
 12 25  1  0  0  0  0
M  END
> <pdb_id>
5FDC

> <uniprot_id>
P00918

> <usmiles>
S(=O)(=O)(NCC=1c2c(SC1)cccc2)N

$$$$
5WU_A_902
          07192419583D 1   1.00000     0.00000     0
            
 28 29  0  0  0  0            999 V2000
  -18.3495   -7.1422   15.6780 O   0  0  0  0  0  0  0  0  0  0  0  0
  -21.4129   -5.1895   10.2143 O   0  0  0  0  0  0  0  0  0  0  0  0
  -19.9764   -4.1788   14.1355 N   0  0  0  0  0  0  0  0  0  0  0  0
  -18.7914   -4.7792   13.8797 N   0  0  0  0  0  0  0  0  0  0  0  0
  -22.1193   -3.9134   13.0470 C   0  0  0  0  0  0  0  0  0  0  0  0
  -18.2565   -5.7680   16.0949 C   0  0  0  0  0  0  0  0  0  0  0  0
  -17.8101   -4.8507   14.9633 C   0  0  0  0  0  0  0  0  0  0  0  0
  -17.8285   -5.9790   10.3993 C   0  0  0  0  0  0  0  0  0  0  0  0
  -19.2723   -6.2343    9.9358 C   0  0  0  0  0  0  0  0  0  0  0  0
  -17.6575   -6.0794   11.9330 C   0  0  0  0  0  0  0  0  0  0  0  0
  -20.6998   -4.3679   13.0574 C   0  0  0  0  0  0  0  0  0  0  0  0
  -20.3074   -5.4505   10.7021 C   0  0  0  0  0  0  0  0  0  0  0  0
  -18.7426   -5.3239   12.6310 C   0  0  0  0  0  0  0  0  0  0  0  0
  -19.9678   -5.0645   12.0577 C   0  0  0  0  0  0  0  0  0  0  0  0
  -18.6446   -7.7054   16.4498 H   0  0  0  0  0  0  0  0  0  0  0  0
  -22.5315   -4.1276   12.1615 H   0  0  0  0  0  0  0  0  0  0  0  0
  -22.6246   -4.3818   13.7719 H   0  0  0  0  0  0  0  0  0  0  0  0
  -22.1543   -2.9259   13.2008 H   0  0  0  0  0  0  0  0  0  0  0  0
  -17.5953   -5.7025   16.8422 H   0  0  0  0  0  0  0  0  0  0  0  0
  -19.1544   -5.4680   16.4171 H   0  0  0  0  0  0  0  0  0  0  0  0
  -17.6713   -3.9314   15.3315 H   0  0  0  0  0  0  0  0  0  0  0  0
  -16.9475   -5.1951   14.5927 H   0  0  0  0  0  0  0  0  0  0  0  0
  -17.5583   -5.0612   10.1082 H   0  0  0  0  0  0  0  0  0  0  0  0
  -17.2314   -6.6550    9.9675 H   0  0  0  0  0  0  0  0  0  0  0  0
  -19.4705   -7.2083   10.0450 H   0  0  0  0  0  0  0  0  0  0  0  0
  -19.3413   -5.9863    8.9695 H   0  0  0  0  0  0  0  0  0  0  0  0
  -16.7709   -5.6957   12.1912 H   0  0  0  0  0  0  0  0  0  0  0  0
  -17.6972   -7.0404   12.2065 H   0  0  0  0  0  0  0  0  0  0  0  0
  1  6  1  0  0  0  0
  2 12  2  0  0  0  0
  3  4  1  0  0  0  0
  3 11  2  0  0  0  0
  4  7  1  0  0  0  0
  4 13  1  0  0  0  0
  5 11  1  0  0  0  0
  6  7  1  0  0  0  0
  8  9  1  0  0  0  0
  8 10  1  0  0  0  0
  9 12  1  0  0  0  0
 10 13  1  0  0  0  0
 11 14  1  0  0  0  0
 12 14  1  0  0  0  0
 13 14  2  0  0  0  0
  1 15  1  0  0  0  0
  5 16  1  0  0  0  0
  5 17  1  0  0  0  0
  5 18  1  0  0  0  0
  6 19  1  0  0  0  0
  6 20  1  0  0  0  0
  7 21  1  0  0  0  0
  7 22  1  0  0  0  0
  8 23  1  0  0  0  0
  8 24  1  0  0  0  0
  9 25  1  0  0  0  0
  9 26  1  0  0  0  0
 10 27  1  0  0  0  0
 10 28  1  0  0  0  0
M  END
> <pdb_id>
5FE7

> <uniprot_id>
Q92831

> <usmiles>
O=C1C=2C(=NN(C2CCC1)CCO)C

$$$$
5XG_A_401
          07202410013D 1   1.00000     0.00000     0
            
 49 53  0  0  0  0            999 V2000
   -6.4980  -24.8710  148.4650 Cl  0  0  0  0  0  0  0  0  0  0  0  0
   -1.1740  -23.4640  148.8830 O   0  0  0  0  0  0  0  0  0  0  0  0
   -3.2250  -21.6560  139.2990 N   0  0  0  0  0  0  0  0  0  0  0  0
   -4.3030  -20.0710  140.8020 N   0  0  0  0  0  0  0  0  0  0  0  0
   -5.1060  -20.1100  141.9400 N   0  0  0  0  0  0  0  0  0  0  0  0
   -8.6100  -25.4180  145.2040 N   0  0  0  0  0  0  0  0  0  0  0  0
   -0.7810  -21.3210  148.2030 N   0  0  0  0  0  0  0  0  0  0  0  0
   -5.0650  -23.4340  146.1510 N   0  0  0  0  0  0  0  0  0  0  0  0
   -1.3750  -20.3710  147.2560 C   0  0  0  0  0  0  0  0  0  0  0  0
   -8.1570  -25.4300  146.4450 C   0  0  0  0  0  0  0  0  0  0  0  0
   -7.9610  -24.7850  144.2380 C   0  0  0  0  0  0  0  0  0  0  0  0
   -3.7960  -23.8040  145.4930 C   0  0  0  0  0  0  0  0  0  0  0  0
   -5.1030  -22.2840  147.0780 C   0  0  0  0  0  0  0  0  0  0  0  0
   -5.3560  -24.1970  142.4460 C   0  0  0  0  0  0  0  0  0  0  0  0
   -4.6620  -23.6240  141.4210 C   0  0  0  0  0  0  0  0  0  0  0  0
   -2.2600  -21.2260  146.3130 C   0  0  0  0  0  0  0  0  0  0  0  0
   -2.6090  -23.7510  146.4420 C   0  0  0  0  0  0  0  0  0  0  0  0
   -3.8760  -22.2470  147.9970 C   0  0  0  0  0  0  0  0  0  0  0  0
   -6.0270  -22.0240  143.3250 C   0  0  0  0  0  0  0  0  0  0  0  0
   -1.4430  -22.4960  148.1980 C   0  0  0  0  0  0  0  0  0  0  0  0
   -6.9900  -24.7910  146.8030 C   0  0  0  0  0  0  0  0  0  0  0  0
   -4.0010  -21.3190  140.4010 C   0  0  0  0  0  0  0  0  0  0  0  0
   -5.3150  -21.3730  142.2840 C   0  0  0  0  0  0  0  0  0  0  0  0
   -6.0560  -23.4110  143.3870 C   0  0  0  0  0  0  0  0  0  0  0  0
   -6.2510  -24.1100  145.8270 C   0  0  0  0  0  0  0  0  0  0  0  0
   -6.7710  -24.1050  144.4950 C   0  0  0  0  0  0  0  0  0  0  0  0
   -4.6050  -22.2100  141.2920 C   0  0  0  0  0  0  0  0  0  0  0  0
   -2.5800  -22.4370  147.2190 C   0  0  0  0  0  0  0  0  0  0  0  0
   -3.0562  -22.6174  139.0815 H   0  0  0  0  0  0  0  0  0  0  0  0
   -2.8352  -20.9372  138.7233 H   0  0  0  0  0  0  0  0  0  0  0  0
   -5.4675  -19.3114  142.4212 H   0  0  0  0  0  0  0  0  0  0  0  0
    0.0126  -21.1228  148.7782 H   0  0  0  0  0  0  0  0  0  0  0  0
   -0.6606  -19.9029  146.7359 H   0  0  0  0  0  0  0  0  0  0  0  0
   -1.9312  -19.6958  147.7406 H   0  0  0  0  0  0  0  0  0  0  0  0
   -8.6771  -25.9179  147.1461 H   0  0  0  0  0  0  0  0  0  0  0  0
   -8.3307  -24.7950  143.3089 H   0  0  0  0  0  0  0  0  0  0  0  0
   -3.6304  -23.1706  144.7371 H   0  0  0  0  0  0  0  0  0  0  0  0
   -3.8795  -24.7344  145.1360 H   0  0  0  0  0  0  0  0  0  0  0  0
   -5.9266  -22.3504  147.6413 H   0  0  0  0  0  0  0  0  0  0  0  0
   -5.1319  -21.4392  146.5436 H   0  0  0  0  0  0  0  0  0  0  0  0
   -5.3692  -25.1932  142.5326 H   0  0  0  0  0  0  0  0  0  0  0  0
   -4.1902  -24.2028  140.7559 H   0  0  0  0  0  0  0  0  0  0  0  0
   -1.7599  -21.5038  145.4928 H   0  0  0  0  0  0  0  0  0  0  0  0
   -3.0910  -20.7373  146.0472 H   0  0  0  0  0  0  0  0  0  0  0  0
   -1.7646  -23.8356  145.9129 H   0  0  0  0  0  0  0  0  0  0  0  0
   -2.6746  -24.5108  147.0888 H   0  0  0  0  0  0  0  0  0  0  0  0
   -3.9569  -22.9781  148.6745 H   0  0  0  0  0  0  0  0  0  0  0  0
   -3.8471  -21.3626  148.4628 H   0  0  0  0  0  0  0  0  0  0  0  0
   -6.5084  -21.4832  144.0147 H   0  0  0  0  0  0  0  0  0  0  0  0
  1 21  1  0  0  0  0
  2 20  2  0  0  0  0
  3 22  1  0  0  0  0
  4  5  1  0  0  0  0
  4 22  2  0  0  0  0
  5 23  1  0  0  0  0
  6 10  2  0  0  0  0
  6 11  1  0  0  0  0
  7  9  1  0  0  0  0
  7 20  1  0  0  0  0
  8 12  1  0  0  0  0
  8 13  1  0  0  0  0
  8 25  1  0  0  0  0
  9 16  1  0  0  0  0
 10 21  1  0  0  0  0
 11 26  2  0  0  0  0
 12 17  1  0  0  0  0
 13 18  1  0  0  0  0
 14 15  1  0  0  0  0
 14 24  2  0  0  0  0
 15 27  2  0  0  0  0
 16 28  1  0  0  0  0
 17 28  1  0  0  0  0
 18 28  1  0  0  0  0
 19 23  2  0  0  0  0
 19 24  1  0  0  0  0
 20 28  1  0  0  0  0
 21 25  2  0  0  0  0
 22 27  1  0  0  0  0
 23 27  1  0  0  0  0
 24 26  1  0  0  0  0
 25 26  1  0  0  0  0
  3 29  1  0  0  0  0
  3 30  1  0  0  0  0
  5 31  1  0  0  0  0
  7 32  1  0  0  0  0
  9 33  1  0  0  0  0
  9 34  1  0  0  0  0
 10 35  1  0  0  0  0
 11 36  1  0  0  0  0
 12 37  1  0  0  0  0
 12 38  1  0  0  0  0
 13 39  1  0  0  0  0
 13 40  1  0  0  0  0
 14 41  1  0  0  0  0
 15 42  1  0  0  0  0
 16 43  1  0  0  0  0
 16 44  1  0  0  0  0
 17 45  1  0  0  0  0
 17 46  1  0  0  0  0
 18 47  1  0  0  0  0
 18 48  1  0  0  0  0
 19 49  1  0  0  0  0
M  END
> <pdb_id>
5FGK

> <uniprot_id>
P49336

> <usmiles>
Clc1c(N2CCC3(C(=O)NCC3)CC2)c(c4cc5NN=C(N)c5cc4)cnc1

$$$$
5XK_A_801
          07202410023D 1   1.00000     0.00000     0
            
 40 42  0  0  0  0            999 V2000
   11.8688   26.1327   25.3265 Cl  0  0  0  0  0  0  0  0  0  0  0  0
   12.4371   28.5666   23.8783 O   0  0  0  0  0  0  0  0  0  0  0  0
   13.1918   28.6754   21.7459 N   0  0  0  0  0  0  0  0  0  0  0  0
   14.2719   26.7889   20.8153 N   0  0  0  0  0  0  0  0  0  0  0  0
   12.1113   29.4233   16.5816 C   0  0  0  0  0  0  0  0  0  0  0  0
   16.2014   31.6554   18.5402 C   0  0  0  0  0  0  0  0  0  0  0  0
   14.8619   26.3432   19.5541 C   0  0  0  0  0  0  0  0  0  0  0  0
   14.0905   23.8336   22.9843 C   0  0  0  0  0  0  0  0  0  0  0  0
   12.8264   30.7086   16.9737 C   0  0  0  0  0  0  0  0  0  0  0  0
   14.7979   31.8323   18.0404 C   0  0  0  0  0  0  0  0  0  0  0  0
   13.3863   24.3550   24.0626 C   0  0  0  0  0  0  0  0  0  0  0  0
   14.9353   27.6192   18.7306 C   0  0  0  0  0  0  0  0  0  0  0  0
   14.3935   24.6329   21.9060 C   0  0  0  0  0  0  0  0  0  0  0  0
   13.8251   29.8676   19.0761 C   0  0  0  0  0  0  0  0  0  0  0  0
   12.8955   27.9735   22.9085 C   0  0  0  0  0  0  0  0  0  0  0  0
   12.9712   25.6751   24.0444 C   0  0  0  0  0  0  0  0  0  0  0  0
   13.8336   28.0946   20.7718 C   0  0  0  0  0  0  0  0  0  0  0  0
   14.0022   25.9649   21.9090 C   0  0  0  0  0  0  0  0  0  0  0  0
   14.1019   30.4858   17.7403 C   0  0  0  0  0  0  0  0  0  0  0  0
   14.1654   28.6537   19.4960 C   0  0  0  0  0  0  0  0  0  0  0  0
   13.2847   26.5433   22.9798 C   0  0  0  0  0  0  0  0  0  0  0  0
   11.2767   29.6465   16.0779 H   0  0  0  0  0  0  0  0  0  0  0  0
   12.7118   28.8708   16.0035 H   0  0  0  0  0  0  0  0  0  0  0  0
   11.8756   28.9082   17.4057 H   0  0  0  0  0  0  0  0  0  0  0  0
   16.6070   32.5518   18.7192 H   0  0  0  0  0  0  0  0  0  0  0  0
   16.1894   31.1203   19.3850 H   0  0  0  0  0  0  0  0  0  0  0  0
   16.7432   31.1762   17.8498 H   0  0  0  0  0  0  0  0  0  0  0  0
   14.2812   25.6621   19.1081 H   0  0  0  0  0  0  0  0  0  0  0  0
   15.7734   25.9591   19.7012 H   0  0  0  0  0  0  0  0  0  0  0  0
   14.3775   22.8757   22.9918 H   0  0  0  0  0  0  0  0  0  0  0  0
   12.2084   31.2523   17.5416 H   0  0  0  0  0  0  0  0  0  0  0  0
   13.0445   31.2149   16.1394 H   0  0  0  0  0  0  0  0  0  0  0  0
   14.8227   32.3746   17.2006 H   0  0  0  0  0  0  0  0  0  0  0  0
   14.2689   32.3187   18.7358 H   0  0  0  0  0  0  0  0  0  0  0  0
   13.1796   23.7766   24.8517 H   0  0  0  0  0  0  0  0  0  0  0  0
   14.5235   27.4756   17.8308 H   0  0  0  0  0  0  0  0  0  0  0  0
   15.8868   27.9064   18.6198 H   0  0  0  0  0  0  0  0  0  0  0  0
   14.8924   24.2568   21.1252 H   0  0  0  0  0  0  0  0  0  0  0  0
   13.3249   30.4358   19.7295 H   0  0  0  0  0  0  0  0  0  0  0  0
   14.7153   29.8966   17.2144 H   0  0  0  0  0  0  0  0  0  0  0  0
  1 16  1  0  0  0  0
  2 15  2  0  0  0  0
  3 15  1  0  0  0  0
  3 17  2  0  0  0  0
  4  7  1  0  0  0  0
  4 17  1  0  0  0  0
  4 18  1  0  0  0  0
  5  9  1  0  0  0  0
  6 10  1  0  0  0  0
  7 12  1  0  0  0  0
  8 11  2  0  0  0  0
  8 13  1  0  0  0  0
  9 19  1  0  0  0  0
 10 19  1  0  0  0  0
 11 16  1  0  0  0  0
 12 20  1  0  0  0  0
 13 18  2  0  0  0  0
 14 19  1  0  0  0  0
 14 20  2  0  0  0  0
 15 21  1  0  0  0  0
 16 21  2  0  0  0  0
 17 20  1  0  0  0  0
 18 21  1  0  0  0  0
  5 22  1  0  0  0  0
  5 23  1  0  0  0  0
  5 24  1  0  0  0  0
  6 25  1  0  0  0  0
  6 26  1  0  0  0  0
  6 27  1  0  0  0  0
  7 28  1  0  0  0  0
  7 29  1  0  0  0  0
  8 30  1  0  0  0  0
  9 31  1  0  0  0  0
  9 32  1  0  0  0  0
 10 33  1  0  0  0  0
 10 34  1  0  0  0  0
 11 35  1  0  0  0  0
 12 36  1  0  0  0  0
 12 37  1  0  0  0  0
 13 38  1  0  0  0  0
 14 39  1  0  0  0  0
 19 40  1  0  0  0  0
M  END
> <pdb_id>
5FH8

> <uniprot_id>
Q86U86

> <usmiles>
Clc1c2c(N3C(=NC2=O)/C(=C/C(CC)CC)/CC3)ccc1

$$$$
5XL_B_801
          07202410023D 1   1.00000     0.00000     0
            
 33 35  0  0  0  0            999 V2000
   11.9372   26.3036   25.3951 Cl  0  0  0  0  0  0  0  0  0  0  0  0
   12.4595   28.8523   24.0729 O   0  0  0  0  0  0  0  0  0  0  0  0
   13.1528   29.0514   21.9059 N   0  0  0  0  0  0  0  0  0  0  0  0
   14.0939   31.1921   18.3375 N   0  0  0  0  0  0  0  0  0  0  0  0
   14.0968   27.1826   20.8358 N   0  0  0  0  0  0  0  0  0  0  0  0
   14.5696   30.6764   17.0028 C   0  0  0  0  0  0  0  0  0  0  0  0
   13.9084   32.6137   18.3482 C   0  0  0  0  0  0  0  0  0  0  0  0
   14.6562   26.7633   19.5417 C   0  0  0  0  0  0  0  0  0  0  0  0
   13.8628   30.4185   19.3927 C   0  0  0  0  0  0  0  0  0  0  0  0
   14.0927   24.1416   22.8728 C   0  0  0  0  0  0  0  0  0  0  0  0
   14.6083   28.0191   18.6971 C   0  0  0  0  0  0  0  0  0  0  0  0
   13.4017   24.5873   23.9848 C   0  0  0  0  0  0  0  0  0  0  0  0
   14.3416   24.9950   21.8249 C   0  0  0  0  0  0  0  0  0  0  0  0
   12.8882   28.2934   23.0455 C   0  0  0  0  0  0  0  0  0  0  0  0
   12.9489   25.9033   24.0370 C   0  0  0  0  0  0  0  0  0  0  0  0
   13.7338   28.5062   20.8368 C   0  0  0  0  0  0  0  0  0  0  0  0
   13.8985   26.3129   21.8912 C   0  0  0  0  0  0  0  0  0  0  0  0
   14.0399   29.0939   19.5856 C   0  0  0  0  0  0  0  0  0  0  0  0
   13.2360   26.8404   23.0234 C   0  0  0  0  0  0  0  0  0  0  0  0
   14.6823   29.6839   17.0500 H   0  0  0  0  0  0  0  0  0  0  0  0
   13.8962   30.9023   16.2989 H   0  0  0  0  0  0  0  0  0  0  0  0
   15.4458   31.1009   16.7745 H   0  0  0  0  0  0  0  0  0  0  0  0
   13.5939   32.9020   19.2526 H   0  0  0  0  0  0  0  0  0  0  0  0
   14.7758   33.0646   18.1375 H   0  0  0  0  0  0  0  0  0  0  0  0
   13.2262   32.8660   17.6619 H   0  0  0  0  0  0  0  0  0  0  0  0
   14.1015   26.0386   19.1328 H   0  0  0  0  0  0  0  0  0  0  0  0
   15.5974   26.4426   19.6485 H   0  0  0  0  0  0  0  0  0  0  0  0
   13.4918   30.9034   20.1847 H   0  0  0  0  0  0  0  0  0  0  0  0
   14.4124   23.1950   22.8312 H   0  0  0  0  0  0  0  0  0  0  0  0
   14.0205   27.8798   17.9002 H   0  0  0  0  0  0  0  0  0  0  0  0
   15.5277   28.2692   18.3935 H   0  0  0  0  0  0  0  0  0  0  0  0
   13.2278   23.9664   24.7492 H   0  0  0  0  0  0  0  0  0  0  0  0
   14.8381   24.6711   21.0196 H   0  0  0  0  0  0  0  0  0  0  0  0
  1 15  1  0  0  0  0
  2 14  2  0  0  0  0
  3 14  1  0  0  0  0
  3 16  2  0  0  0  0
  4  6  1  0  0  0  0
  4  7  1  0  0  0  0
  4  9  1  0  0  0  0
  5  8  1  0  0  0  0
  5 16  1  0  0  0  0
  5 17  1  0  0  0  0
  8 11  1  0  0  0  0
  9 18  2  0  0  0  0
 10 12  2  0  0  0  0
 10 13  1  0  0  0  0
 11 18  1  0  0  0  0
 12 15  1  0  0  0  0
 13 17  2  0  0  0  0
 14 19  1  0  0  0  0
 15 19  2  0  0  0  0
 16 18  1  0  0  0  0
 17 19  1  0  0  0  0
  6 20  1  0  0  0  0
  6 21  1  0  0  0  0
  6 22  1  0  0  0  0
  7 23  1  0  0  0  0
  7 24  1  0  0  0  0
  7 25  1  0  0  0  0
  8 26  1  0  0  0  0
  8 27  1  0  0  0  0
  9 28  1  0  0  0  0
 10 29  1  0  0  0  0
 11 30  1  0  0  0  0
 11 31  1  0  0  0  0
 12 32  1  0  0  0  0
 13 33  1  0  0  0  0
M  END
> <pdb_id>
5FH7

> <uniprot_id>
Q86U86

> <usmiles>
Clc1c2c(N3C(=NC2=O)/C(=C/N(C)C)/CC3)ccc1

$$$$
5XM_A_801
          07202410023D 1   1.00000     0.00000     0
            
 42 45  0  0  0  0            999 V2000
   12.3250   28.4700   24.2910 O   0  0  0  0  0  0  0  0  0  0  0  0
   13.1190   28.7980   22.1950 N   0  0  0  0  0  0  0  0  0  0  0  0
   14.1670   30.5850   18.3670 N   0  0  0  0  0  0  0  0  0  0  0  0
   14.1170   26.9550   21.1340 N   0  0  0  0  0  0  0  0  0  0  0  0
   15.6060   30.9060   18.2840 C   0  0  0  0  0  0  0  0  0  0  0  0
   13.3900   31.8190   18.1390 C   0  0  0  0  0  0  0  0  0  0  0  0
   14.6840   26.7270   19.7930 C   0  0  0  0  0  0  0  0  0  0  0  0
   15.9870   31.5500   16.9610 C   0  0  0  0  0  0  0  0  0  0  0  0
   13.7510   32.4830   16.7990 C   0  0  0  0  0  0  0  0  0  0  0  0
   15.2140   32.8400   16.7800 C   0  0  0  0  0  0  0  0  0  0  0  0
   13.9240   23.9470   23.1930 C   0  0  0  0  0  0  0  0  0  0  0  0
   13.2990   24.4850   24.3130 C   0  0  0  0  0  0  0  0  0  0  0  0
   13.8260   30.0240   19.5390 C   0  0  0  0  0  0  0  0  0  0  0  0
   14.1970   24.7770   22.1020 C   0  0  0  0  0  0  0  0  0  0  0  0
   15.3290   28.0610   19.7670 C   0  0  0  0  0  0  0  0  0  0  0  0
   12.9490   25.8290   24.3550 C   0  0  0  0  0  0  0  0  0  0  0  0
   12.8740   27.9900   23.3060 C   0  0  0  0  0  0  0  0  0  0  0  0
   13.8130   28.2770   21.1110 C   0  0  0  0  0  0  0  0  0  0  0  0
   13.8450   26.1320   22.1350 C   0  0  0  0  0  0  0  0  0  0  0  0
   14.1660   28.7750   19.9190 C   0  0  1  0  0  0  0  0  0  0  0  0
   13.2230   26.6470   23.2670 C   0  0  0  0  0  0  0  0  0  0  0  0
   16.1292   30.0605   18.3909 H   0  0  0  0  0  0  0  0  0  0  0  0
   15.8365   31.5366   19.0251 H   0  0  0  0  0  0  0  0  0  0  0  0
   13.5798   32.4625   18.8805 H   0  0  0  0  0  0  0  0  0  0  0  0
   12.4161   31.5921   18.1357 H   0  0  0  0  0  0  0  0  0  0  0  0
   13.9913   26.6047   19.0823 H   0  0  0  0  0  0  0  0  0  0  0  0
   15.3346   25.9684   19.7584 H   0  0  0  0  0  0  0  0  0  0  0  0
   15.7696   30.9243   16.2119 H   0  0  0  0  0  0  0  0  0  0  0  0
   16.9675   31.7466   16.9572 H   0  0  0  0  0  0  0  0  0  0  0  0
   13.2058   33.3133   16.6831 H   0  0  0  0  0  0  0  0  0  0  0  0
   13.5550   31.8485   16.0514 H   0  0  0  0  0  0  0  0  0  0  0  0
   15.4528   33.2637   15.9063 H   0  0  0  0  0  0  0  0  0  0  0  0
   15.4228   33.4729   17.5255 H   0  0  0  0  0  0  0  0  0  0  0  0
   14.1747   22.9792   23.1686 H   0  0  0  0  0  0  0  0  0  0  0  0
   13.0992   23.8976   25.0973 H   0  0  0  0  0  0  0  0  0  0  0  0
   12.8268   30.0506   19.5684 H   0  0  0  0  0  0  0  0  0  0  0  0
   14.1965   30.6290   20.2438 H   0  0  0  0  0  0  0  0  0  0  0  0
   14.6469   24.4005   21.2921 H   0  0  0  0  0  0  0  0  0  0  0  0
   15.7908   28.2517   18.9007 H   0  0  0  0  0  0  0  0  0  0  0  0
   15.9692   28.1970   20.5230 H   0  0  0  0  0  0  0  0  0  0  0  0
   12.5014   26.2058   25.1659 H   0  0  0  0  0  0  0  0  0  0  0  0
   13.5605   28.2446   19.3256 H   0  0  0  0  0  0  0  0  0  0  0  0
  1 17  2  0  0  0  0
  2 17  1  0  0  0  0
  2 18  2  0  0  0  0
  3  5  1  0  0  0  0
  3  6  1  0  0  0  0
  3 13  1  0  0  0  0
  4  7  1  0  0  0  0
  4 18  1  0  0  0  0
  4 19  1  0  0  0  0
  5  8  1  0  0  0  0
  6  9  1  0  0  0  0
  7 15  1  0  0  0  0
  8 10  1  0  0  0  0
  9 10  1  0  0  0  0
 11 12  2  0  0  0  0
 11 14  1  0  0  0  0
 12 16  1  0  0  0  0
 13 20  1  0  0  0  0
 14 19  2  0  0  0  0
 15 20  1  0  0  0  0
 16 21  2  0  0  0  0
 17 21  1  0  0  0  0
 18 20  1  0  0  0  0
 19 21  1  0  0  0  0
  5 22  1  0  0  0  0
  5 23  1  0  0  0  0
  6 24  1  0  0  0  0
  6 25  1  0  0  0  0
  7 26  1  0  0  0  0
  7 27  1  0  0  0  0
  8 28  1  0  0  0  0
  8 29  1  0  0  0  0
  9 30  1  0  0  0  0
  9 31  1  0  0  0  0
 10 32  1  0  0  0  0
 10 33  1  0  0  0  0
 11 34  1  0  0  0  0
 12 35  1  0  0  0  0
 13 36  1  0  0  0  0
 13 37  1  0  0  0  0
 14 38  1  0  0  0  0
 15 39  1  0  0  0  0
 15 40  1  0  0  0  0
 16 41  1  0  0  0  0
 20 42  1  0  0  0  0
M  END
> <pdb_id>
5FH6

> <uniprot_id>
Q86U86

> <usmiles>
O=C1N=C2N(c3c1cccc3)CC[C@@H]2CN4CCCCC4

$$$$
5XV_A_1102
          07202409293D 1   1.00000     0.00000     0
            
 42 44  0  0  0  0            999 V2000
  -18.2366    6.3122   27.8083 F   0  0  0  0  0  0  0  0  0  0  0  0
  -17.0100    7.6233   29.1158 F   0  0  0  0  0  0  0  0  0  0  0  0
  -19.1844    7.4478   29.4741 F   0  0  0  0  0  0  0  0  0  0  0  0
  -18.9105   15.9608   31.8458 O   0  0  0  0  0  0  0  0  0  0  0  0
  -17.7158    8.6049   26.4695 O   0  0  0  0  0  0  0  0  0  0  0  0
  -15.9330    8.0607   24.4886 N   0  0  0  0  0  0  0  0  0  0  0  0
  -14.7472   10.0119   25.0272 N   0  0  0  0  0  0  0  0  0  0  0  0
  -16.4842   10.5626   27.0403 N   0  0  0  0  0  0  0  0  0  0  0  0
  -15.0508   15.8059   29.9699 N   0  0  0  0  0  0  0  0  0  0  0  0
  -16.7638   16.6859   31.5170 N   0  0  0  0  0  0  0  0  0  0  0  0
  -16.1114   14.2077   29.1662 N   0  0  0  0  0  0  0  0  0  0  0  0
  -18.2315   17.7697   33.1209 C   0  0  0  0  0  0  0  0  0  0  0  0
  -20.0239    8.5615   27.1205 C   0  0  0  0  0  0  0  0  0  0  0  0
  -14.5523   11.0809   25.8204 C   0  0  0  0  0  0  0  0  0  0  0  0
  -16.9365   14.7288   30.0306 C   0  0  0  0  0  0  0  0  0  0  0  0
  -16.3242   13.1260   28.4522 C   0  0  0  0  0  0  0  0  0  0  0  0
  -13.8661   14.5060   28.3102 C   0  0  0  0  0  0  0  0  0  0  0  0
  -14.0315   13.3896   27.6156 C   0  0  0  0  0  0  0  0  0  0  0  0
  -17.9834   16.7141   32.0908 C   0  0  0  0  0  0  0  0  0  0  0  0
  -16.6685    9.4690   26.2741 C   0  0  0  0  0  0  0  0  0  0  0  0
  -15.7888    9.1831   25.2276 C   0  0  0  0  0  0  0  0  0  0  0  0
  -16.3459   15.8053   30.5885 C   0  0  0  0  0  0  0  0  0  0  0  0
  -14.9984   14.8771   29.1647 C   0  0  0  0  0  0  0  0  0  0  0  0
  -15.4374   11.3866   26.8593 C   0  0  0  0  0  0  0  0  0  0  0  0
  -15.3041   12.6270   27.6911 C   0  0  0  0  0  0  0  0  0  0  0  0
  -18.5599    8.6677   27.6218 C   0  0  1  0  0  0  0  0  0  0  0  0
  -18.2240    7.4690   28.5257 C   0  0  0  0  0  0  0  0  0  0  0  0
  -16.8521    7.6171   24.3753 H   0  0  0  0  0  0  0  0  0  0  0  0
  -15.1087    7.6163   24.0605 H   0  0  0  0  0  0  0  0  0  0  0  0
  -16.0780   17.3511   31.8124 H   0  0  0  0  0  0  0  0  0  0  0  0
  -17.3528   18.4106   33.2645 H   0  0  0  0  0  0  0  0  0  0  0  0
  -19.0686   18.3921   32.7854 H   0  0  0  0  0  0  0  0  0  0  0  0
  -18.5091   17.3025   34.0777 H   0  0  0  0  0  0  0  0  0  0  0  0
  -20.3090    9.4426   26.5364 H   0  0  0  0  0  0  0  0  0  0  0  0
  -20.7393    8.4720   27.9477 H   0  0  0  0  0  0  0  0  0  0  0  0
  -20.1133    7.6857   26.4603 H   0  0  0  0  0  0  0  0  0  0  0  0
  -13.7277   11.7163   25.5703 H   0  0  0  0  0  0  0  0  0  0  0  0
  -17.9371   14.3487   30.2288 H   0  0  0  0  0  0  0  0  0  0  0  0
  -17.2766   12.6227   28.5813 H   0  0  0  0  0  0  0  0  0  0  0  0
  -12.9408   15.0857   28.2878 H   0  0  0  0  0  0  0  0  0  0  0  0
  -13.1905   13.1145   26.9963 H   0  0  0  0  0  0  0  0  0  0  0  0
  -18.3960    9.5685   28.2268 H   0  0  0  0  0  0  0  0  0  0  0  0
  1 27  1  0  0  0  0
  2 27  1  0  0  0  0
  3 27  1  0  0  0  0
  4 19  2  0  0  0  0
  5 20  1  0  0  0  0
  5 26  1  0  0  0  0
  6 21  1  0  0  0  0
  6 28  1  0  0  0  0
  6 29  1  0  0  0  0
  7 14  2  0  0  0  0
  7 21  1  0  0  0  0
  8 20  1  0  0  0  0
  8 24  2  0  0  0  0
  9 22  1  0  0  0  0
  9 23  2  0  0  0  0
 10 19  1  0  0  0  0
 10 22  1  0  0  0  0
 10 30  1  0  0  0  0
 11 15  1  0  0  0  0
 11 16  1  0  0  0  0
 11 23  1  0  0  0  0
 12 19  1  0  0  0  0
 12 31  1  0  0  0  0
 12 32  1  0  0  0  0
 12 33  1  0  0  0  0
 13 26  1  0  0  0  0
 13 34  1  0  0  0  0
 13 35  1  0  0  0  0
 13 36  1  0  0  0  0
 14 24  1  0  0  0  0
 14 37  1  0  0  0  0
 15 22  2  0  0  0  0
 15 38  1  0  0  0  0
 16 25  2  0  0  0  0
 16 39  1  0  0  0  0
 17 18  2  0  0  0  0
 17 23  1  0  0  0  0
 17 40  1  0  0  0  0
 18 25  1  0  0  0  0
 18 41  1  0  0  0  0
 20 21  2  0  0  0  0
 24 25  1  0  0  0  0
 26 27  1  0  0  0  0
 26 42  1  0  0  0  0
M  END
> <pdb_id>
5FI4

> <uniprot_id>
P42336

> <usmiles>
FC(F)(F)[C@@H](Oc1nc(cnc1N)C2=CN3C(=NC(NC(=O)C)=C3)C=C2)C

$$$$
5YC_B_303
          07202405583D 1   1.00000     0.00000     0
            
 37 39  0  0  0  0            999 V2000
   18.9981   99.5177   26.2067 S   0  0  0  0  0  0  0  0  0  0  0  0
   14.6632   99.0739   28.2190 O   0  0  0  0  0  0  0  0  0  0  0  0
   17.2780   98.2614   27.6408 N   0  0  0  0  0  0  0  0  0  0  0  0
   17.0047  101.2116   25.6739 N   0  0  0  0  0  0  0  0  0  0  0  0
   16.6347   99.3526   27.1251 N   0  0  0  0  0  0  0  0  0  0  0  0
   13.8822  103.0092   24.8775 N   0  0  0  0  0  0  0  0  0  0  0  0
   12.2120  103.9672   26.6246 C   0  0  0  0  0  0  0  0  0  0  0  0
   19.4610   97.1769   27.7087 C   0  0  0  0  0  0  0  0  0  0  0  0
   13.1792  104.2145   25.5083 C   0  0  0  0  0  0  0  0  0  0  0  0
   15.2923  102.8654   25.2119 C   0  0  0  0  0  0  0  0  0  0  0  0
   12.1065  100.7648   21.7593 C   0  0  0  0  0  0  0  0  0  0  0  0
   13.3909  100.4742   22.1782 C   0  0  0  0  0  0  0  0  0  0  0  0
   11.3831  101.7593   22.3938 C   0  0  0  0  0  0  0  0  0  0  0  0
   13.9669  101.1758   23.2285 C   0  0  0  0  0  0  0  0  0  0  0  0
   11.9522  102.4921   23.4229 C   0  0  0  0  0  0  0  0  0  0  0  0
   14.8658  100.9006   26.7097 C   0  0  0  0  0  0  0  0  0  0  0  0
   17.3835  100.1408   26.3038 C   0  0  0  0  0  0  0  0  0  0  0  0
   18.5077   98.2338   27.2605 C   0  0  0  0  0  0  0  0  0  0  0  0
   15.3019   99.7079   27.4004 C   0  0  0  0  0  0  0  0  0  0  0  0
   15.7100  101.5955   25.8978 C   0  0  0  0  0  0  0  0  0  0  0  0
   13.2687  102.2223   23.8408 C   0  0  0  0  0  0  0  0  0  0  0  0
   11.8327  104.8384   26.9361 H   0  0  0  0  0  0  0  0  0  0  0  0
   11.4718  103.3784   26.2999 H   0  0  0  0  0  0  0  0  0  0  0  0
   12.6857  103.5196   27.3830 H   0  0  0  0  0  0  0  0  0  0  0  0
   18.9865   96.5325   28.3083 H   0  0  0  0  0  0  0  0  0  0  0  0
   19.8177   96.6899   26.9115 H   0  0  0  0  0  0  0  0  0  0  0  0
   20.2179   97.6002   28.2068 H   0  0  0  0  0  0  0  0  0  0  0  0
   12.6774  104.6797   24.7791 H   0  0  0  0  0  0  0  0  0  0  0  0
   13.8913  104.8209   25.8622 H   0  0  0  0  0  0  0  0  0  0  0  0
   15.5381  103.6264   25.8124 H   0  0  0  0  0  0  0  0  0  0  0  0
   15.8117  102.9319   24.3600 H   0  0  0  0  0  0  0  0  0  0  0  0
   11.7006  100.2574   20.9992 H   0  0  0  0  0  0  0  0  0  0  0  0
   13.9100   99.7522   21.7207 H   0  0  0  0  0  0  0  0  0  0  0  0
   10.4441  101.9502   22.1079 H   0  0  0  0  0  0  0  0  0  0  0  0
   14.8827  100.9327   23.5482 H   0  0  0  0  0  0  0  0  0  0  0  0
   11.4257  103.2152   23.8701 H   0  0  0  0  0  0  0  0  0  0  0  0
   13.9264  101.2214   26.8303 H   0  0  0  0  0  0  0  0  0  0  0  0
  1 17  1  0  0  0  0
  1 18  1  0  0  0  0
  2 19  2  0  0  0  0
  3  5  1  0  0  0  0
  3 18  2  0  0  0  0
  4 17  2  0  0  0  0
  4 20  1  0  0  0  0
  5 17  1  0  0  0  0
  5 19  1  0  0  0  0
  6  9  1  0  0  0  0
  6 10  1  0  0  0  0
  6 21  1  0  0  0  0
  7  9  1  0  0  0  0
  8 18  1  0  0  0  0
 10 20  1  0  0  0  0
 11 12  2  0  0  0  0
 11 13  1  0  0  0  0
 12 14  1  0  0  0  0
 13 15  2  0  0  0  0
 14 21  2  0  0  0  0
 15 21  1  0  0  0  0
 16 19  1  0  0  0  0
 16 20  2  0  0  0  0
  7 22  1  0  0  0  0
  7 23  1  0  0  0  0
  7 24  1  0  0  0  0
  8 25  1  0  0  0  0
  8 26  1  0  0  0  0
  8 27  1  0  0  0  0
  9 28  1  0  0  0  0
  9 29  1  0  0  0  0
 10 30  1  0  0  0  0
 10 31  1  0  0  0  0
 11 32  1  0  0  0  0
 12 33  1  0  0  0  0
 13 34  1  0  0  0  0
 14 35  1  0  0  0  0
 15 36  1  0  0  0  0
 16 37  1  0  0  0  0
M  END
> <pdb_id>
5H8H

> <uniprot_id>
Q12879

> <usmiles>
S1C2=NC(=CC(=O)N2N=C1C)CN(c3ccccc3)CC

$$$$
5ZM_A_1554
          07202405383D 1   1.00000     0.00000     0
            
 33 35  0  0  0  0            999 V2000
   -7.1540    8.0527   25.3792 F   0  0  0  0  0  0  0  0  0  0  0  0
   -0.4597   13.6101   32.6292 O   0  0  0  0  0  0  0  0  0  0  0  0
   -1.0637   11.3342   32.2604 N   0  0  0  0  0  0  0  0  0  0  0  0
   -1.3208   13.6542   29.7172 C   0  0  0  0  0  0  0  0  0  0  0  0
   -3.1605   13.6370   31.5722 C   0  0  0  0  0  0  0  0  0  0  0  0
   -6.5591    9.5442   27.1374 C   0  0  0  0  0  0  0  0  0  0  0  0
   -4.9328    7.6953   26.5193 C   0  0  0  0  0  0  0  0  0  0  0  0
   -2.1212    9.3021   31.2664 C   0  0  0  0  0  0  0  0  0  0  0  0
   -5.7308   10.0266   28.1407 C   0  0  0  0  0  0  0  0  0  0  0  0
   -4.0128    8.0805   27.5058 C   0  0  0  0  0  0  0  0  0  0  0  0
   -2.9746    8.8480   30.2407 C   0  0  0  0  0  0  0  0  0  0  0  0
   -3.2932   11.1627   29.3757 C   0  0  0  0  0  0  0  0  0  0  0  0
   -6.1993    8.4150   26.3499 C   0  0  0  0  0  0  0  0  0  0  0  0
   -1.0513   12.7320   32.0215 C   0  0  0  0  0  0  0  0  0  0  0  0
   -1.8580   10.7073   31.3568 C   0  0  0  0  0  0  0  0  0  0  0  0
   -4.3740    9.2536   28.3409 C   0  0  0  0  0  0  0  0  0  0  0  0
   -3.5647    9.7262   29.3033 C   0  0  0  0  0  0  0  0  0  0  0  0
   -2.4195   11.6456   30.4413 C   0  0  0  0  0  0  0  0  0  0  0  0
   -1.9500   12.9742   30.8109 C   0  0  0  0  0  0  0  0  0  0  0  0
   -0.5584   10.8756   32.9914 H   0  0  0  0  0  0  0  0  0  0  0  0
   -0.5778   13.0901   29.3571 H   0  0  0  0  0  0  0  0  0  0  0  0
   -1.9935   13.8194   28.9960 H   0  0  0  0  0  0  0  0  0  0  0  0
   -0.9521   14.5276   30.0355 H   0  0  0  0  0  0  0  0  0  0  0  0
   -3.4714   13.0258   32.3001 H   0  0  0  0  0  0  0  0  0  0  0  0
   -2.8684   14.5069   31.9695 H   0  0  0  0  0  0  0  0  0  0  0  0
   -3.9098   13.7988   30.9301 H   0  0  0  0  0  0  0  0  0  0  0  0
   -7.4311   10.0018   26.9634 H   0  0  0  0  0  0  0  0  0  0  0  0
   -4.7223    6.9200   25.9239 H   0  0  0  0  0  0  0  0  0  0  0  0
   -1.7104    8.6603   31.9139 H   0  0  0  0  0  0  0  0  0  0  0  0
   -5.9801   10.8160   28.7015 H   0  0  0  0  0  0  0  0  0  0  0  0
   -3.1532    7.5876   27.6402 H   0  0  0  0  0  0  0  0  0  0  0  0
   -3.1696    7.8695   30.1737 H   0  0  0  0  0  0  0  0  0  0  0  0
   -3.6948   11.7957   28.7139 H   0  0  0  0  0  0  0  0  0  0  0  0
  1 13  1  0  0  0  0
  2 14  2  0  0  0  0
  3 14  1  0  0  0  0
  3 15  1  0  0  0  0
  4 19  1  0  0  0  0
  5 19  1  0  0  0  0
  6  9  2  0  0  0  0
  6 13  1  0  0  0  0
  7 10  1  0  0  0  0
  7 13  2  0  0  0  0
  8 11  1  0  0  0  0
  8 15  2  0  0  0  0
  9 16  1  0  0  0  0
 10 16  2  0  0  0  0
 11 17  2  0  0  0  0
 12 17  1  0  0  0  0
 12 18  2  0  0  0  0
 14 19  1  0  0  0  0
 15 18  1  0  0  0  0
 16 17  1  0  0  0  0
 18 19  1  0  0  0  0
  3 20  1  0  0  0  0
  4 21  1  0  0  0  0
  4 22  1  0  0  0  0
  4 23  1  0  0  0  0
  5 24  1  0  0  0  0
  5 25  1  0  0  0  0
  5 26  1  0  0  0  0
  6 27  1  0  0  0  0
  7 28  1  0  0  0  0
  8 29  1  0  0  0  0
  9 30  1  0  0  0  0
 10 31  1  0  0  0  0
 11 32  1  0  0  0  0
 12 33  1  0  0  0  0
M  END
> <pdb_id>
5ALN

> <uniprot_id>
P34913

> <usmiles>
Fc1ccc(c2cc3c(NC(=O)C3(C)C)cc2)cc1

$$$$
5ZO_A_202
          07192423593D 1   1.00000     0.00000     0
            
 38 40  0  0  0  0            999 V2000
   10.5515  -13.2365  -31.3035 S   0  0  0  0  0  0  0  0  0  0  0  0
   12.0759  -10.9226  -26.2807 O   0  0  0  0  0  0  0  0  0  0  0  0
   10.4137  -10.0532  -27.3402 O   0  0  0  0  0  0  0  0  0  0  0  0
    4.4695  -12.9324  -25.1606 O   0  0  0  0  0  0  0  0  0  0  0  0
   12.2795  -12.6668  -29.4453 N   0  0  0  0  0  0  0  0  0  0  0  0
    4.6575  -12.3912  -23.8535 C   0  0  0  0  0  0  0  0  0  0  0  0
   14.2262  -13.6235  -32.9934 C   0  0  0  0  0  0  0  0  0  0  0  0
   14.9963  -13.2874  -31.8816 C   0  0  0  0  0  0  0  0  0  0  0  0
   12.8488  -13.6472  -32.9187 C   0  0  0  0  0  0  0  0  0  0  0  0
   14.4074  -12.9624  -30.6731 C   0  0  0  0  0  0  0  0  0  0  0  0
    6.5565  -11.9533  -25.8573 C   0  0  0  0  0  0  0  0  0  0  0  0
    5.4849  -13.6542  -27.1882 C   0  0  0  0  0  0  0  0  0  0  0  0
    7.5839  -11.8881  -26.7773 C   0  0  0  0  0  0  0  0  0  0  0  0
    6.5178  -13.5729  -28.1039 C   0  0  0  0  0  0  0  0  0  0  0  0
   10.5964  -12.4725  -27.2246 C   0  0  0  0  0  0  0  0  0  0  0  0
    8.7051  -12.6265  -28.8831 C   0  0  0  0  0  0  0  0  0  0  0  0
   11.0734  -11.0448  -26.9289 C   0  0  0  0  0  0  0  0  0  0  0  0
   10.9960  -12.8146  -29.6560 C   0  0  0  0  0  0  0  0  0  0  0  0
   12.2421  -13.3013  -31.7084 C   0  0  0  0  0  0  0  0  0  0  0  0
    5.4989  -12.8428  -26.0601 C   0  0  0  0  0  0  0  0  0  0  0  0
   13.0112  -12.9694  -30.5808 C   0  0  0  0  0  0  0  0  0  0  0  0
    7.5946  -12.6899  -27.9237 C   0  0  0  0  0  0  0  0  0  0  0  0
   10.0268  -12.6559  -28.6286 C   0  0  0  0  0  0  0  0  0  0  0  0
   12.5733  -11.7332  -25.9715 H   0  0  0  0  0  0  0  0  0  0  0  0
    3.8276  -12.5294  -23.3130 H   0  0  0  0  0  0  0  0  0  0  0  0
    5.4254  -12.8525  -23.4090 H   0  0  0  0  0  0  0  0  0  0  0  0
    4.8512  -11.4126  -23.9226 H   0  0  0  0  0  0  0  0  0  0  0  0
   14.6777  -13.8503  -33.8564 H   0  0  0  0  0  0  0  0  0  0  0  0
   15.9933  -13.2811  -31.9591 H   0  0  0  0  0  0  0  0  0  0  0  0
   12.2976  -13.9058  -33.7119 H   0  0  0  0  0  0  0  0  0  0  0  0
   14.9691  -12.7268  -29.8799 H   0  0  0  0  0  0  0  0  0  0  0  0
    6.5695  -11.3656  -25.0484 H   0  0  0  0  0  0  0  0  0  0  0  0
    4.7311  -14.2942  -27.3371 H   0  0  0  0  0  0  0  0  0  0  0  0
    8.3393  -11.2520  -26.6203 H   0  0  0  0  0  0  0  0  0  0  0  0
    6.4975  -14.1576  -28.9148 H   0  0  0  0  0  0  0  0  0  0  0  0
    9.8853  -12.7102  -26.5629 H   0  0  0  0  0  0  0  0  0  0  0  0
   11.3732  -13.0927  -27.1165 H   0  0  0  0  0  0  0  0  0  0  0  0
    8.4469  -12.5520  -29.8464 H   0  0  0  0  0  0  0  0  0  0  0  0
  1 18  1  0  0  0  0
  1 19  1  0  0  0  0
  2 17  1  0  0  0  0
  3 17  2  0  0  0  0
  4  6  1  0  0  0  0
  4 20  1  0  0  0  0
  5 18  2  0  0  0  0
  5 21  1  0  0  0  0
  7  8  2  0  0  0  0
  7  9  1  0  0  0  0
  8 10  1  0  0  0  0
  9 19  2  0  0  0  0
 10 21  2  0  0  0  0
 11 13  2  0  0  0  0
 11 20  1  0  0  0  0
 12 14  1  0  0  0  0
 12 20  2  0  0  0  0
 13 22  1  0  0  0  0
 14 22  2  0  0  0  0
 15 17  1  0  0  0  0
 15 23  1  0  0  0  0
 16 22  1  0  0  0  0
 16 23  2  0  0  0  0
 18 23  1  0  0  0  0
 19 21  1  0  0  0  0
  2 24  1  0  0  0  0
  6 25  1  0  0  0  0
  6 26  1  0  0  0  0
  6 27  1  0  0  0  0
  7 28  1  0  0  0  0
  8 29  1  0  0  0  0
  9 30  1  0  0  0  0
 10 31  1  0  0  0  0
 11 32  1  0  0  0  0
 12 33  1  0  0  0  0
 13 34  1  0  0  0  0
 14 35  1  0  0  0  0
 15 36  1  0  0  0  0
 15 37  1  0  0  0  0
 16 38  1  0  0  0  0
M  END
> <pdb_id>
7WT0

> <uniprot_id>
Q04760

> <usmiles>
S1c2c(N=C1/C(=C/c3ccc(OC)cc3)/CC(=O)O)cccc2

$$$$
605_A_1521
          07212402213D 1   1.00000     0.00000     0
            
 44 46  0  0  0  0            999 V2000
   34.9057   46.9661   35.3241 F   0  0  0  0  0  0  0  0  0  0  0  0
   35.9361   52.0398   37.0058 F   0  0  0  0  0  0  0  0  0  0  0  0
   48.6668   52.2713   33.4796 O   0  0  0  0  0  0  0  0  0  0  0  0
   47.0218   53.7479   33.3262 N   0  0  0  0  0  0  0  0  0  0  0  0
   38.1959   51.5865   34.5297 N   0  0  0  0  0  0  0  0  0  0  0  0
   46.8620   51.0030   37.3748 C   0  0  0  0  0  0  0  0  0  0  0  0
   34.0677   49.1085   35.8944 C   0  0  0  0  0  0  0  0  0  0  0  0
   34.3538   50.4551   36.3613 C   0  0  0  0  0  0  0  0  0  0  0  0
   47.6271   51.5983   36.2862 C   0  0  0  0  0  0  0  0  0  0  0  0
   45.4154   50.8687   37.2798 C   0  0  0  0  0  0  0  0  0  0  0  0
   41.1724   49.8382   36.0991 C   0  0  0  0  0  0  0  0  0  0  0  0
   40.9758   52.1276   34.9837 C   0  0  0  0  0  0  0  0  0  0  0  0
   42.5486   50.0273   36.2840 C   0  0  0  0  0  0  0  0  0  0  0  0
   42.3930   52.3207   35.1797 C   0  0  0  0  0  0  0  0  0  0  0  0
   36.5439   48.5498   35.9958 C   0  0  0  0  0  0  0  0  0  0  0  0
   38.2348   50.3054   36.7240 C   0  0  0  0  0  0  0  0  0  0  0  0
   45.4780   51.9300   34.9945 C   0  0  0  0  0  0  0  0  0  0  0  0
   35.1742   48.1628   35.7417 C   0  0  0  0  0  0  0  0  0  0  0  0
   35.7127   50.8331   36.5983 C   0  0  0  0  0  0  0  0  0  0  0  0
   47.6039   52.6917   33.9077 C   0  0  0  0  0  0  0  0  0  0  0  0
   38.9144   50.4951   35.3015 C   0  0  2  0  0  0  0  0  0  0  0  0
   36.8100   49.9084   36.4697 C   0  0  0  0  0  0  0  0  0  0  0  0
   46.9217   52.0743   35.0625 C   0  0  0  0  0  0  0  0  0  0  0  0
   40.3415   50.8623   35.4518 C   0  0  0  0  0  0  0  0  0  0  0  0
   43.2148   51.2486   35.8450 C   0  0  0  0  0  0  0  0  0  0  0  0
   44.6910   51.3417   36.0670 C   0  0  0  0  0  0  0  0  0  0  0  0
   46.1510   54.0940   33.6753 H   0  0  0  0  0  0  0  0  0  0  0  0
   47.4579   54.1908   32.5428 H   0  0  0  0  0  0  0  0  0  0  0  0
   38.6278   51.7017   33.6351 H   0  0  0  0  0  0  0  0  0  0  0  0
   37.2368   51.3315   34.4065 H   0  0  0  0  0  0  0  0  0  0  0  0
   47.3357   50.6835   38.1955 H   0  0  0  0  0  0  0  0  0  0  0  0
   33.1304   48.8329   35.6811 H   0  0  0  0  0  0  0  0  0  0  0  0
   33.6116   51.1075   36.5144 H   0  0  0  0  0  0  0  0  0  0  0  0
   48.6204   51.6869   36.3600 H   0  0  0  0  0  0  0  0  0  0  0  0
   44.9045   50.4560   38.0339 H   0  0  0  0  0  0  0  0  0  0  0  0
   40.7475   48.9895   36.4141 H   0  0  0  0  0  0  0  0  0  0  0  0
   40.4259   52.8346   34.5390 H   0  0  0  0  0  0  0  0  0  0  0  0
   43.0857   49.3093   36.7266 H   0  0  0  0  0  0  0  0  0  0  0  0
   42.8291   53.1669   34.8736 H   0  0  0  0  0  0  0  0  0  0  0  0
   37.2929   47.9032   35.8510 H   0  0  0  0  0  0  0  0  0  0  0  0
   38.2675   51.1620   37.2389 H   0  0  0  0  0  0  0  0  0  0  0  0
   38.7059   49.5890   37.2386 H   0  0  0  0  0  0  0  0  0  0  0  0
   45.0041   52.2493   34.1738 H   0  0  0  0  0  0  0  0  0  0  0  0
   38.8496   49.6374   34.7915 H   0  0  0  0  0  0  0  0  0  0  0  0
  1 18  1  0  0  0  0
  2 19  1  0  0  0  0
  3 20  2  0  0  0  0
  4 20  1  0  0  0  0
  5 21  1  0  0  0  0
  6  9  2  0  0  0  0
  6 10  1  0  0  0  0
  7  8  2  0  0  0  0
  7 18  1  0  0  0  0
  8 19  1  0  0  0  0
  9 23  1  0  0  0  0
 10 26  2  0  0  0  0
 11 13  2  0  0  0  0
 11 24  1  0  0  0  0
 12 14  1  0  0  0  0
 12 24  2  0  0  0  0
 13 25  1  0  0  0  0
 14 25  2  0  0  0  0
 15 18  2  0  0  0  0
 15 22  1  0  0  0  0
 16 21  1  0  0  0  0
 16 22  1  0  0  0  0
 17 23  2  0  0  0  0
 17 26  1  0  0  0  0
 19 22  2  0  0  0  0
 20 23  1  0  0  0  0
 21 24  1  0  0  0  0
 25 26  1  0  0  0  0
  4 27  1  0  0  0  0
  4 28  1  0  0  0  0
  5 29  1  0  0  0  0
  5 30  1  0  0  0  0
  6 31  1  0  0  0  0
  7 32  1  0  0  0  0
  8 33  1  0  0  0  0
  9 34  1  0  0  0  0
 10 35  1  0  0  0  0
 11 36  1  0  0  0  0
 12 37  1  0  0  0  0
 13 38  1  0  0  0  0
 14 39  1  0  0  0  0
 15 40  1  0  0  0  0
 16 41  1  0  0  0  0
 16 42  1  0  0  0  0
 17 43  1  0  0  0  0
 21 44  1  0  0  0  0
M  END
> <pdb_id>
3D4L

> <uniprot_id>
P27487

> <usmiles>
Fc1c(cc(F)cc1)C[C@@H](N)c2ccc(c3cc(ccc3)C(=O)N)cc2

$$$$
60G_A_703
          07202410013D 1   1.00000     0.00000     0
            
 46 47  0  0  0  0            999 V2000
  181.1450   89.2390  233.4500 S   0  0  0  0  0  0  0  0  0  0  0  0
  179.9680   89.9850  233.0670 O   0  0  0  0  0  0  0  0  0  0  0  0
  181.5610   89.8790  234.6780 O   0  0  0  0  0  0  0  0  0  0  0  0
  180.1520   87.3840  231.5550 O   0  0  0  0  0  0  0  0  0  0  0  0
  183.3930   86.7480  231.0050 O   0  0  0  0  0  0  0  0  0  0  0  0
  183.8260   85.5500  232.8380 O   0  0  0  0  0  0  0  0  0  0  0  0
  180.8500   84.8450  237.5170 O   0  0  0  0  0  0  0  0  0  0  0  0
  178.1180   81.8170  234.9650 O   0  0  0  0  0  0  0  0  0  0  0  0
  180.6980   87.7010  233.7580 N   0  0  0  0  0  0  0  0  0  0  0  0
  179.7870   85.5730  232.8610 N   0  0  0  0  0  0  0  0  0  0  0  0
  180.3590   85.2500  235.2310 N   0  0  0  0  0  0  0  0  0  0  0  0
  179.0190   83.7320  234.0420 N   0  0  0  0  0  0  0  0  0  0  0  0
  183.3360   84.4100  232.2300 C   0  0  0  0  0  0  0  0  0  0  0  0
  180.9380   83.9250  238.5440 C   0  0  0  0  0  0  0  0  0  0  0  0
  177.4210   81.6560  233.7840 C   0  0  0  0  0  0  0  0  0  0  0  0
  182.3620   89.4320  232.1630 C   0  0  0  0  0  0  0  0  0  0  0  0
  185.7010   90.1660  233.8160 C   0  0  0  0  0  0  0  0  0  0  0  0
  186.2890   88.9100  233.8280 C   0  0  0  0  0  0  0  0  0  0  0  0
  184.4270   90.3190  233.2700 C   0  0  0  0  0  0  0  0  0  0  0  0
  185.6170   87.8240  233.2980 C   0  0  0  0  0  0  0  0  0  0  0  0
  179.4820   83.3080  236.2730 C   0  0  0  0  0  0  0  0  0  0  0  0
  180.2060   86.9150  232.6800 C   0  0  0  0  0  0  0  0  0  0  0  0
  183.6860   86.7580  232.1980 C   0  0  0  0  0  0  0  0  0  0  0  0
  179.7470   84.8520  234.0880 C   0  0  0  0  0  0  0  0  0  0  0  0
  180.2350   84.4760  236.3450 C   0  0  0  0  0  0  0  0  0  0  0  0
  178.8710   82.9490  235.0990 C   0  0  0  0  0  0  0  0  0  0  0  0
  183.7330   89.2280  232.7310 C   0  0  0  0  0  0  0  0  0  0  0  0
  184.3530   87.9700  232.7610 C   0  0  0  0  0  0  0  0  0  0  0  0
  180.7681   87.3209  234.6803 H   0  0  0  0  0  0  0  0  0  0  0  0
  179.4887   85.0821  232.0425 H   0  0  0  0  0  0  0  0  0  0  0  0
  183.5126   83.6182  232.8147 H   0  0  0  0  0  0  0  0  0  0  0  0
  182.3509   84.5057  232.0870 H   0  0  0  0  0  0  0  0  0  0  0  0
  183.7899   84.2811  231.3483 H   0  0  0  0  0  0  0  0  0  0  0  0
  181.4082   84.3393  239.3233 H   0  0  0  0  0  0  0  0  0  0  0  0
  180.0187   83.6446  238.8200 H   0  0  0  0  0  0  0  0  0  0  0  0
  181.4508   83.1252  238.2320 H   0  0  0  0  0  0  0  0  0  0  0  0
  176.9136   80.7947  233.8111 H   0  0  0  0  0  0  0  0  0  0  0  0
  176.7816   82.4160  233.6681 H   0  0  0  0  0  0  0  0  0  0  0  0
  178.0630   81.6406  233.0175 H   0  0  0  0  0  0  0  0  0  0  0  0
  182.2953   90.3523  231.7776 H   0  0  0  0  0  0  0  0  0  0  0  0
  182.1959   88.7568  231.4443 H   0  0  0  0  0  0  0  0  0  0  0  0
  186.1858   90.9541  234.1952 H   0  0  0  0  0  0  0  0  0  0  0  0
  187.2007   88.7896  234.2207 H   0  0  0  0  0  0  0  0  0  0  0  0
  184.0012   91.2238  233.2631 H   0  0  0  0  0  0  0  0  0  0  0  0
  186.0509   86.9231  233.3036 H   0  0  0  0  0  0  0  0  0  0  0  0
  179.3859   82.7275  237.0815 H   0  0  0  0  0  0  0  0  0  0  0  0
  1  2  2  0  0  0  0
  1  3  2  0  0  0  0
  1  9  1  0  0  0  0
  1 16  1  0  0  0  0
  4 22  2  0  0  0  0
  5 23  2  0  0  0  0
  6 13  1  0  0  0  0
  6 23  1  0  0  0  0
  7 14  1  0  0  0  0
  7 25  1  0  0  0  0
  8 15  1  0  0  0  0
  8 26  1  0  0  0  0
  9 22  1  0  0  0  0
 10 22  1  0  0  0  0
 10 24  1  0  0  0  0
 11 24  2  0  0  0  0
 11 25  1  0  0  0  0
 12 24  1  0  0  0  0
 12 26  2  0  0  0  0
 16 27  1  0  0  0  0
 17 18  2  0  0  0  0
 17 19  1  0  0  0  0
 18 20  1  0  0  0  0
 19 27  2  0  0  0  0
 20 28  2  0  0  0  0
 21 25  2  0  0  0  0
 21 26  1  0  0  0  0
 23 28  1  0  0  0  0
 27 28  1  0  0  0  0
  9 29  1  0  0  0  0
 10 30  1  0  0  0  0
 13 31  1  0  0  0  0
 13 32  1  0  0  0  0
 13 33  1  0  0  0  0
 14 34  1  0  0  0  0
 14 35  1  0  0  0  0
 14 36  1  0  0  0  0
 15 37  1  0  0  0  0
 15 38  1  0  0  0  0
 15 39  1  0  0  0  0
 16 40  1  0  0  0  0
 16 41  1  0  0  0  0
 17 42  1  0  0  0  0
 18 43  1  0  0  0  0
 19 44  1  0  0  0  0
 20 45  1  0  0  0  0
 21 46  1  0  0  0  0
M  END
> <pdb_id>
5FEM

> <uniprot_id>
P07342

> <usmiles>
S(=O)(=O)(NC(=O)Nc1nc(OC)cc(OC)n1)Cc2c(cccc2)C(=O)OC

$$$$
60G_A_705
          07212402443D 1   1.00000     0.00000     0
            
 46 47  0  0  0  0            999 V2000
   53.0550   59.3010   80.6850 S   0  0  0  0  0  0  0  0  0  0  0  0
   52.6060   58.0860   81.3260 O   0  0  0  0  0  0  0  0  0  0  0  0
   53.2050   60.3870   81.6680 O   0  0  0  0  0  0  0  0  0  0  0  0
   53.6540   57.4190   78.6850 O   0  0  0  0  0  0  0  0  0  0  0  0
   52.9030   59.8410   76.6280 O   0  0  0  0  0  0  0  0  0  0  0  0
   54.7310   61.1280   76.8070 O   0  0  0  0  0  0  0  0  0  0  0  0
   60.3010   56.6590   77.9490 O   0  0  0  0  0  0  0  0  0  0  0  0
   59.0530   60.5890   80.5490 O   0  0  0  0  0  0  0  0  0  0  0  0
   54.5820   59.0040   80.0600 N   0  0  0  0  0  0  0  0  0  0  0  0
   55.8990   57.6170   78.4880 N   0  0  0  0  0  0  0  0  0  0  0  0
   58.1360   57.3210   78.3320 N   0  0  0  0  0  0  0  0  0  0  0  0
   57.4500   59.1800   79.5490 N   0  0  0  0  0  0  0  0  0  0  0  0
   55.3510   60.3110   75.8350 C   0  0  0  0  0  0  0  0  0  0  0  0
   59.7410   55.4540   77.4820 C   0  0  0  0  0  0  0  0  0  0  0  0
   60.4220   60.8200   80.6840 C   0  0  0  0  0  0  0  0  0  0  0  0
   51.7650   59.6850   79.4330 C   0  0  0  0  0  0  0  0  0  0  0  0
   51.2750   63.4410   79.7690 C   0  0  0  0  0  0  0  0  0  0  0  0
   52.0460   63.9420   78.7260 C   0  0  0  0  0  0  0  0  0  0  0  0
   51.1800   62.0650   79.9980 C   0  0  0  0  0  0  0  0  0  0  0  0
   52.7410   63.0690   77.8890 C   0  0  0  0  0  0  0  0  0  0  0  0
   59.7660   58.6640   79.2720 C   0  0  0  0  0  0  0  0  0  0  0  0
   54.6390   57.9770   79.0630 C   0  0  0  0  0  0  0  0  0  0  0  0
   53.4190   60.7920   77.1260 C   0  0  0  0  0  0  0  0  0  0  0  0
   57.2040   58.1090   78.8180 C   0  0  0  0  0  0  0  0  0  0  0  0
   59.4060   57.5510   78.5190 C   0  0  0  0  0  0  0  0  0  0  0  0
   58.7400   59.4660   79.7870 C   0  0  0  0  0  0  0  0  0  0  0  0
   51.8710   61.1880   79.1490 C   0  0  0  0  0  0  0  0  0  0  0  0
   52.6460   61.6930   78.0980 C   0  0  0  0  0  0  0  0  0  0  0  0
   55.3927   59.5064   80.3608 H   0  0  0  0  0  0  0  0  0  0  0  0
   55.8644   56.9321   77.7602 H   0  0  0  0  0  0  0  0  0  0  0  0
   56.2848   60.6317   75.6765 H   0  0  0  0  0  0  0  0  0  0  0  0
   55.3738   59.3655   76.1597 H   0  0  0  0  0  0  0  0  0  0  0  0
   54.8331   60.3577   74.9808 H   0  0  0  0  0  0  0  0  0  0  0  0
   60.4614   54.8811   77.0910 H   0  0  0  0  0  0  0  0  0  0  0  0
   59.3072   54.9712   78.2427 H   0  0  0  0  0  0  0  0  0  0  0  0
   59.0568   55.6541   76.7807 H   0  0  0  0  0  0  0  0  0  0  0  0
   60.5688   61.6379   81.2403 H   0  0  0  0  0  0  0  0  0  0  0  0
   60.8506   60.0333   81.1283 H   0  0  0  0  0  0  0  0  0  0  0  0
   60.8281   60.9544   79.7801 H   0  0  0  0  0  0  0  0  0  0  0  0
   50.8581   59.4640   79.7918 H   0  0  0  0  0  0  0  0  0  0  0  0
   51.9288   59.1625   78.5962 H   0  0  0  0  0  0  0  0  0  0  0  0
   50.7809   64.0745   80.3644 H   0  0  0  0  0  0  0  0  0  0  0  0
   52.1023   64.9290   78.5758 H   0  0  0  0  0  0  0  0  0  0  0  0
   50.6289   61.7121   80.7541 H   0  0  0  0  0  0  0  0  0  0  0  0
   53.3037   63.4272   77.1440 H   0  0  0  0  0  0  0  0  0  0  0  0
   60.7268   58.8843   79.4402 H   0  0  0  0  0  0  0  0  0  0  0  0
  1  2  2  0  0  0  0
  1  3  2  0  0  0  0
  1  9  1  0  0  0  0
  1 16  1  0  0  0  0
  4 22  2  0  0  0  0
  5 23  2  0  0  0  0
  6 13  1  0  0  0  0
  6 23  1  0  0  0  0
  7 14  1  0  0  0  0
  7 25  1  0  0  0  0
  8 15  1  0  0  0  0
  8 26  1  0  0  0  0
  9 22  1  0  0  0  0
 10 22  1  0  0  0  0
 10 24  1  0  0  0  0
 11 24  2  0  0  0  0
 11 25  1  0  0  0  0
 12 24  1  0  0  0  0
 12 26  2  0  0  0  0
 16 27  1  0  0  0  0
 17 18  2  0  0  0  0
 17 19  1  0  0  0  0
 18 20  1  0  0  0  0
 19 27  2  0  0  0  0
 20 28  2  0  0  0  0
 21 25  2  0  0  0  0
 21 26  1  0  0  0  0
 23 28  1  0  0  0  0
 27 28  1  0  0  0  0
  9 29  1  0  0  0  0
 10 30  1  0  0  0  0
 13 31  1  0  0  0  0
 13 32  1  0  0  0  0
 13 33  1  0  0  0  0
 14 34  1  0  0  0  0
 14 35  1  0  0  0  0
 14 36  1  0  0  0  0
 15 37  1  0  0  0  0
 15 38  1  0  0  0  0
 15 39  1  0  0  0  0
 16 40  1  0  0  0  0
 16 41  1  0  0  0  0
 17 42  1  0  0  0  0
 18 43  1  0  0  0  0
 19 44  1  0  0  0  0
 20 45  1  0  0  0  0
 21 46  1  0  0  0  0
M  END
> <pdb_id>
6DEM

> <uniprot_id>
nan

> <usmiles>
S(=O)(=O)(NC(=O)Nc1nc(OC)cc(OC)n1)Cc2c(cccc2)C(=O)OC

$$$$
60K_A_303
          07192421083D 1   1.00000     0.00000     0
            
 37 39  0  0  0  0            999 V2000
    6.7804   23.8837    7.4320 S   0  0  0  0  0  0  0  0  0  0  0  0
    7.1113   23.3575    6.1407 O   0  0  0  0  0  0  0  0  0  0  0  0
    7.8205   24.5360    8.1418 O   0  0  0  0  0  0  0  0  0  0  0  0
   -4.2643   28.8269   11.2516 O   0  0  0  0  0  0  0  0  0  0  0  0
    1.9798   30.5873    6.1055 O   0  0  0  0  0  0  0  0  0  0  0  0
   -2.7894   27.1712   11.0289 O   0  0  0  0  0  0  0  0  0  0  0  0
    6.2611   22.6541    8.3300 N   0  0  0  0  0  0  0  0  0  0  0  0
    1.5134   28.0945    7.7271 N   0  0  0  0  0  0  0  0  0  0  0  0
    2.6637   28.0805    6.9622 N   0  0  0  0  0  0  0  0  0  0  0  0
    0.0640   31.2770    7.2326 N   0  0  0  0  0  0  0  0  0  0  0  0
    5.5722   25.9977    6.2586 C   0  0  0  0  0  0  0  0  0  0  0  0
    4.4088   25.0613    8.1385 C   0  0  0  0  0  0  0  0  0  0  0  0
    4.6411   27.0075    6.1887 C   0  0  0  0  0  0  0  0  0  0  0  0
    3.4914   26.0915    8.0795 C   0  0  0  0  0  0  0  0  0  0  0  0
   -1.9682   31.2745    8.7186 C   0  0  0  0  0  0  0  0  0  0  0  0
   -2.7319   30.4874    9.5645 C   0  0  0  0  0  0  0  0  0  0  0  0
   -1.2348   28.6173    9.2725 C   0  0  0  0  0  0  0  0  0  0  0  0
   -3.2212   28.3562   10.7847 C   0  0  0  0  0  0  0  0  0  0  0  0
    5.4659   25.0384    7.2447 C   0  0  0  0  0  0  0  0  0  0  0  0
    1.0462   30.4011    6.8912 C   0  0  0  0  0  0  0  0  0  0  0  0
    3.6052   27.0740    7.1060 C   0  0  0  0  0  0  0  0  0  0  0  0
   -0.8434   30.7094    8.1313 C   0  0  0  0  0  0  0  0  0  0  0  0
    0.7804   29.1516    7.6715 C   0  0  0  0  0  0  0  0  0  0  0  0
   -2.3841   29.1667    9.8433 C   0  0  0  0  0  0  0  0  0  0  0  0
   -0.4515   29.3871    8.4108 C   0  0  0  0  0  0  0  0  0  0  0  0
   -3.3546   26.6487   11.6561 H   0  0  0  0  0  0  0  0  0  0  0  0
    5.3799   22.1658    8.2115 H   0  0  0  0  0  0  0  0  0  0  0  0
    6.7791   22.2432    9.1002 H   0  0  0  0  0  0  0  0  0  0  0  0
    2.8966   28.7926    6.2779 H   0  0  0  0  0  0  0  0  0  0  0  0
   -0.0130   32.2312    6.8965 H   0  0  0  0  0  0  0  0  0  0  0  0
    6.3691   25.9514    5.5180 H   0  0  0  0  0  0  0  0  0  0  0  0
    4.2708   24.2572    8.8585 H   0  0  0  0  0  0  0  0  0  0  0  0
    4.6978   27.6989    5.3502 H   0  0  0  0  0  0  0  0  0  0  0  0
    2.7003   26.0959    8.8283 H   0  0  0  0  0  0  0  0  0  0  0  0
   -2.1942   32.3299    8.5870 H   0  0  0  0  0  0  0  0  0  0  0  0
   -3.6225   30.9270   10.0117 H   0  0  0  0  0  0  0  0  0  0  0  0
   -0.8924   27.5947    9.4194 H   0  0  0  0  0  0  0  0  0  0  0  0
  1  2  2  0  0  0  0
  1  3  2  0  0  0  0
  1  7  1  0  0  0  0
  1 19  1  0  0  0  0
  4 18  2  0  0  0  0
  5 20  2  0  0  0  0
  6 18  1  0  0  0  0
  6 26  1  0  0  0  0
  7 27  1  0  0  0  0
  7 28  1  0  0  0  0
  8  9  1  0  0  0  0
  8 23  2  0  0  0  0
  9 21  1  0  0  0  0
  9 29  1  0  0  0  0
 10 20  1  0  0  0  0
 10 22  1  0  0  0  0
 10 30  1  0  0  0  0
 11 13  1  0  0  0  0
 11 19  2  0  0  0  0
 11 31  1  0  0  0  0
 12 14  2  0  0  0  0
 12 19  1  0  0  0  0
 12 32  1  0  0  0  0
 13 21  2  0  0  0  0
 13 33  1  0  0  0  0
 14 21  1  0  0  0  0
 14 34  1  0  0  0  0
 15 16  1  0  0  0  0
 15 22  2  0  0  0  0
 15 35  1  0  0  0  0
 16 24  2  0  0  0  0
 16 36  1  0  0  0  0
 17 24  1  0  0  0  0
 17 25  2  0  0  0  0
 17 37  1  0  0  0  0
 18 24  1  0  0  0  0
 20 23  1  0  0  0  0
 22 25  1  0  0  0  0
 23 25  1  0  0  0  0
M  END
> <pdb_id>
4FKU

> <uniprot_id>
P24941

> <usmiles>
S(=O)(=O)(N)c1ccc(NN=C2c3c(NC2=O)ccc(c3)C(=O)O)cc1

$$$$
60S_B_502
          07202405583D 1   1.00000     0.00000     0
            
 48 51  0  0  0  0            999 V2000
   69.5186   48.9516    7.2529 S   0  0  0  0  0  0  0  0  0  0  0  0
   62.9511   54.0608   13.2239 F   0  0  0  0  0  0  0  0  0  0  0  0
   67.1656   46.3396   10.4913 O   0  0  0  0  0  0  0  0  0  0  0  0
   72.9050   48.1303    5.8793 N   0  0  0  0  0  0  0  0  0  0  0  0
   65.7324   48.1531    6.4966 N   0  0  0  0  0  0  0  0  0  0  0  0
   62.3349   51.4493   13.2688 N   0  0  0  0  0  0  0  0  0  0  0  0
   64.2863   51.0333   11.9451 N   0  0  0  0  0  0  0  0  0  0  0  0
   65.7101   52.8282   11.3114 N   0  0  0  0  0  0  0  0  0  0  0  0
   66.7812   49.5026    8.0643 N   0  0  0  0  0  0  0  0  0  0  0  0
   66.1882   50.6318   10.6543 N   0  0  0  0  0  0  0  0  0  0  0  0
   66.6334   47.2046    8.4289 N   0  0  0  0  0  0  0  0  0  0  0  0
   62.4338   50.0497   13.6875 C   0  0  0  0  0  0  0  0  0  0  0  0
   66.4114   45.8588    7.9166 C   0  0  0  0  0  0  0  0  0  0  0  0
   65.2848   55.1229   11.8939 C   0  0  0  0  0  0  0  0  0  0  0  0
   72.1416   48.5459    6.6442 C   0  0  0  0  0  0  0  0  0  0  0  0
   66.0362   49.2051   10.8981 C   0  0  0  0  0  0  0  0  0  0  0  0
   67.3315   51.0134    9.8558 C   0  0  0  0  0  0  0  0  0  0  0  0
   71.4369   49.5551    8.8262 C   0  0  0  0  0  0  0  0  0  0  0  0
   70.2440   49.8747    9.5289 C   0  0  0  0  0  0  0  0  0  0  0  0
   71.1934   49.0121    7.5797 C   0  0  0  0  0  0  0  0  0  0  0  0
   66.3684   48.2860    7.6176 C   0  0  0  0  0  0  0  0  0  0  0  0
   69.1027   49.5787    8.8091 C   0  0  0  0  0  0  0  0  0  0  0  0
   67.0490   47.3004    9.7421 C   0  0  0  0  0  0  0  0  0  0  0  0
   65.3667   51.5422   11.3283 C   0  0  0  0  0  0  0  0  0  0  0  0
   63.7757   53.2232   12.5928 C   0  0  0  0  0  0  0  0  0  0  0  0
   63.4862   51.8800   12.5922 C   0  0  0  0  0  0  0  0  0  0  0  0
   64.8905   53.6783   11.9332 C   0  0  0  0  0  0  0  0  0  0  0  0
   67.3113   48.6788   10.2772 C   0  0  1  0  0  0  0  0  0  0  0  0
   67.6830   49.6890    9.1907 C   0  0  2  0  0  0  0  0  0  0  0  0
   65.4403   47.2465    6.1919 H   0  0  0  0  0  0  0  0  0  0  0  0
   65.5337   48.9570    5.9361 H   0  0  0  0  0  0  0  0  0  0  0  0
   61.5400   52.0302   13.4444 H   0  0  0  0  0  0  0  0  0  0  0  0
   61.5956   49.7843   14.1640 H   0  0  0  0  0  0  0  0  0  0  0  0
   62.5578   49.4691   12.8828 H   0  0  0  0  0  0  0  0  0  0  0  0
   63.2154   49.9399   14.3015 H   0  0  0  0  0  0  0  0  0  0  0  0
   66.6489   45.1905    8.6215 H   0  0  0  0  0  0  0  0  0  0  0  0
   65.4491   45.7519    7.6666 H   0  0  0  0  0  0  0  0  0  0  0  0
   66.9838   45.7105    7.1102 H   0  0  0  0  0  0  0  0  0  0  0  0
   64.6059   55.6673   12.3865 H   0  0  0  0  0  0  0  0  0  0  0  0
   66.1798   55.2359   12.3255 H   0  0  0  0  0  0  0  0  0  0  0  0
   65.3321   55.4297   10.9433 H   0  0  0  0  0  0  0  0  0  0  0  0
   65.2254   48.8375   10.4427 H   0  0  0  0  0  0  0  0  0  0  0  0
   65.9907   49.0009   11.8760 H   0  0  0  0  0  0  0  0  0  0  0  0
   68.0817   51.3475   10.4263 H   0  0  0  0  0  0  0  0  0  0  0  0
   67.0905   51.7102    9.1802 H   0  0  0  0  0  0  0  0  0  0  0  0
   72.3541   49.7071    9.1944 H   0  0  0  0  0  0  0  0  0  0  0  0
   70.2320   50.2716   10.4466 H   0  0  0  0  0  0  0  0  0  0  0  0
   68.0341   48.6423   10.9673 H   0  0  0  0  0  0  0  0  0  0  0  0
  1 20  1  0  0  0  0
  1 22  1  0  0  0  0
  2 25  1  0  0  0  0
  3 23  2  0  0  0  0
  4 15  3  0  0  0  0
  5 21  1  0  0  0  0
  6 12  1  0  0  0  0
  6 26  1  0  0  0  0
  7 24  1  0  0  0  0
  7 26  2  0  0  0  0
  8 24  2  0  0  0  0
  8 27  1  0  0  0  0
  9 21  2  0  0  0  0
  9 29  1  0  0  0  0
 10 16  1  0  0  0  0
 10 17  1  0  0  0  0
 10 24  1  0  0  0  0
 11 13  1  0  0  0  0
 11 21  1  0  0  0  0
 11 23  1  0  0  0  0
 14 27  1  0  0  0  0
 15 20  1  0  0  0  0
 16 28  1  0  0  0  0
 17 29  1  0  0  0  0
 18 19  1  0  0  0  0
 18 20  2  0  0  0  0
 19 22  2  0  0  0  0
 22 29  1  0  0  0  0
 23 28  1  0  0  0  0
 25 26  1  0  0  0  0
 25 27  2  0  0  0  0
 28 29  1  0  0  0  0
  5 30  1  0  0  0  0
  5 31  1  0  0  0  0
  6 32  1  0  0  0  0
 12 33  1  0  0  0  0
 12 34  1  0  0  0  0
 12 35  1  0  0  0  0
 13 36  1  0  0  0  0
 13 37  1  0  0  0  0
 13 38  1  0  0  0  0
 14 39  1  0  0  0  0
 14 40  1  0  0  0  0
 14 41  1  0  0  0  0
 16 42  1  0  0  0  0
 16 43  1  0  0  0  0
 17 44  1  0  0  0  0
 17 45  1  0  0  0  0
 18 46  1  0  0  0  0
 19 47  1  0  0  0  0
 28 48  1  0  0  0  0
M  END
> <pdb_id>
5HE5

> <uniprot_id>
P56817

> <usmiles>
S1C(C#N)=CC=C1[C@@]23N=C(N(C(=O)[C@@H]2CN(c4nc(NC)c(F)c(n4)C)C3)C)N

$$$$
60Y_A_502
          07202405583D 1   1.00000     0.00000     0
            
 50 54  0  0  0  0            999 V2000
   70.4650   50.0528    9.6165 S   0  0  0  0  0  0  0  0  0  0  0  0
   63.1104   54.0966   13.0915 F   0  0  0  0  0  0  0  0  0  0  0  0
   67.4325   46.1950   10.2336 O   0  0  0  0  0  0  0  0  0  0  0  0
   70.5701   45.4047    2.6395 N   0  0  0  0  0  0  0  0  0  0  0  0
   65.6976   48.1481    6.4922 N   0  0  0  0  0  0  0  0  0  0  0  0
   64.5234   50.9759   12.0844 N   0  0  0  0  0  0  0  0  0  0  0  0
   65.8250   52.7814   11.1547 N   0  0  0  0  0  0  0  0  0  0  0  0
   66.8151   49.4602    7.9555 N   0  0  0  0  0  0  0  0  0  0  0  0
   66.2893   50.5826   10.6502 N   0  0  0  0  0  0  0  0  0  0  0  0
   66.5393   47.1325    8.3604 N   0  0  0  0  0  0  0  0  0  0  0  0
   66.0926   45.8134    7.8797 C   0  0  0  0  0  0  0  0  0  0  0  0
   71.6521   49.3888    8.5788 C   0  0  0  0  0  0  0  0  0  0  0  0
   71.1695   45.9038    3.4686 C   0  0  0  0  0  0  0  0  0  0  0  0
   63.7513   51.8763   12.7067 C   0  0  0  0  0  0  0  0  0  0  0  0
   65.0188   53.6538   11.7765 C   0  0  0  0  0  0  0  0  0  0  0  0
   66.1356   49.1393   10.8182 C   0  0  0  0  0  0  0  0  0  0  0  0
   73.9613   47.0724    5.6411 C   0  0  0  0  0  0  0  0  0  0  0  0
   67.3904   50.9583    9.7552 C   0  0  0  0  0  0  0  0  0  0  0  0
   73.2780   46.4228    4.6232 C   0  0  0  0  0  0  0  0  0  0  0  0
   73.2705   47.8415    6.5680 C   0  0  0  0  0  0  0  0  0  0  0  0
   69.6445   48.7296    7.5746 C   0  0  0  0  0  0  0  0  0  0  0  0
   71.1987   47.3420    5.4451 C   0  0  0  0  0  0  0  0  0  0  0  0
   66.3659   48.2543    7.5722 C   0  0  0  0  0  0  0  0  0  0  0  0
   63.9770   53.2045   12.5449 C   0  0  0  0  0  0  0  0  0  0  0  0
   69.1899   49.4181    8.6530 C   0  0  0  0  0  0  0  0  0  0  0  0
   67.1153   47.1963    9.6167 C   0  0  0  0  0  0  0  0  0  0  0  0
   65.5263   51.4804   11.3295 C   0  0  0  0  0  0  0  0  0  0  0  0
   71.8916   46.5609    4.5244 C   0  0  0  0  0  0  0  0  0  0  0  0
   71.1019   48.7020    7.5214 C   0  0  0  0  0  0  0  0  0  0  0  0
   71.8795   47.9768    6.4793 C   0  0  0  0  0  0  0  0  0  0  0  0
   67.4000   48.5753   10.1784 C   0  0  1  0  0  0  0  0  0  0  0  0
   67.7574   49.6282    9.0782 C   0  0  2  0  0  0  0  0  0  0  0  0
   65.3593   47.2538    6.1994 H   0  0  0  0  0  0  0  0  0  0  0  0
   65.5115   48.9592    5.9375 H   0  0  0  0  0  0  0  0  0  0  0  0
   66.2946   45.1205    8.5719 H   0  0  0  0  0  0  0  0  0  0  0  0
   65.1076   45.8368    7.7091 H   0  0  0  0  0  0  0  0  0  0  0  0
   66.5725   45.5875    7.0320 H   0  0  0  0  0  0  0  0  0  0  0  0
   72.6364   49.4889    8.7246 H   0  0  0  0  0  0  0  0  0  0  0  0
   63.0036   51.5676   13.2945 H   0  0  0  0  0  0  0  0  0  0  0  0
   65.1785   54.6362   11.6791 H   0  0  0  0  0  0  0  0  0  0  0  0
   65.3177   48.8088   10.3471 H   0  0  0  0  0  0  0  0  0  0  0  0
   66.0843   48.8947   11.7865 H   0  0  0  0  0  0  0  0  0  0  0  0
   74.9554   46.9865    5.7075 H   0  0  0  0  0  0  0  0  0  0  0  0
   68.1646   51.3238   10.2720 H   0  0  0  0  0  0  0  0  0  0  0  0
   67.0909   51.6337    9.0812 H   0  0  0  0  0  0  0  0  0  0  0  0
   73.7753   45.8587    3.9641 H   0  0  0  0  0  0  0  0  0  0  0  0
   73.7689   48.3012    7.3030 H   0  0  0  0  0  0  0  0  0  0  0  0
   69.0512   48.2936    6.8980 H   0  0  0  0  0  0  0  0  0  0  0  0
   70.2077   47.4472    5.3630 H   0  0  0  0  0  0  0  0  0  0  0  0
   68.1338   48.5247   10.8559 H   0  0  0  0  0  0  0  0  0  0  0  0
  1 12  1  0  0  0  0
  1 25  1  0  0  0  0
  2 24  1  0  0  0  0
  3 26  2  0  0  0  0
  4 13  3  0  0  0  0
  5 23  1  0  0  0  0
  6 14  2  0  0  0  0
  6 27  1  0  0  0  0
  7 15  1  0  0  0  0
  7 27  2  0  0  0  0
  8 23  2  0  0  0  0
  8 32  1  0  0  0  0
  9 16  1  0  0  0  0
  9 18  1  0  0  0  0
  9 27  1  0  0  0  0
 10 11  1  0  0  0  0
 10 23  1  0  0  0  0
 10 26  1  0  0  0  0
 12 29  2  0  0  0  0
 13 28  1  0  0  0  0
 14 24  1  0  0  0  0
 15 24  2  0  0  0  0
 16 31  1  0  0  0  0
 17 19  1  0  0  0  0
 17 20  2  0  0  0  0
 18 32  1  0  0  0  0
 19 28  2  0  0  0  0
 20 30  1  0  0  0  0
 21 25  2  0  0  0  0
 21 29  1  0  0  0  0
 22 28  1  0  0  0  0
 22 30  2  0  0  0  0
 25 32  1  0  0  0  0
 26 31  1  0  0  0  0
 29 30  1  0  0  0  0
 31 32  1  0  0  0  0
  5 33  1  0  0  0  0
  5 34  1  0  0  0  0
 11 35  1  0  0  0  0
 11 36  1  0  0  0  0
 11 37  1  0  0  0  0
 12 38  1  0  0  0  0
 14 39  1  0  0  0  0
 15 40  1  0  0  0  0
 16 41  1  0  0  0  0
 16 42  1  0  0  0  0
 17 43  1  0  0  0  0
 18 44  1  0  0  0  0
 18 45  1  0  0  0  0
 19 46  1  0  0  0  0
 20 47  1  0  0  0  0
 21 48  1  0  0  0  0
 22 49  1  0  0  0  0
 31 50  1  0  0  0  0
M  END
> <pdb_id>
5HD0

> <uniprot_id>
P56817

> <usmiles>
S1C(=CC(c2cc(C#N)ccc2)=C1)[C@@]34N=C(N(C(=O)[C@@H]3CN(c5ncc(F)cn5)C4)C)N

$$$$
610_A_223
          07202404233D 1   1.00000     0.00000     0
            
 51 54  0  0  0  0            999 V2000
   27.4260  -28.7540    3.4750 O   0  5  0  0  0  0  0  0  0  0  0  0
   26.6000  -30.6250    4.1570 O   0  0  0  0  0  0  0  0  0  0  0  0
   22.5020  -30.8900    6.4760 O   0  0  0  0  0  0  0  0  0  0  0  0
   24.8110  -25.4100    6.0640 O   0  0  0  0  0  0  0  0  0  0  0  0
   18.8960  -32.3840   14.5710 O   0  0  0  0  0  0  0  0  0  0  0  0
   20.6790  -30.2280   14.5520 O   0  0  0  0  0  0  0  0  0  0  0  0
   22.7810  -26.7590    7.1430 O   0  0  0  0  0  0  0  0  0  0  0  0
   18.5380  -29.4770   12.5630 O   0  0  0  0  0  0  0  0  0  0  0  0
   12.7710  -30.4450   13.5460 N   0  0  0  0  0  0  0  0  0  0  0  0
   15.0100  -30.1620   14.3570 N   0  0  0  0  0  0  0  0  0  0  0  0
   21.8230  -29.2160    7.8310 N   0  0  0  0  0  0  0  0  0  0  0  0
   15.3130  -31.5890   11.1080 N   0  0  0  0  0  0  0  0  0  0  0  0
   26.6590  -29.3870    4.1400 N   0  3  0  0  0  0  0  0  0  0  0  0
   16.7500  -30.9170   12.7460 N   0  0  0  0  0  0  0  0  0  0  0  0
   13.6800  -30.0480   14.4920 C   0  0  0  0  0  0  0  0  0  0  0  0
   16.5960  -31.4860   11.4470 C   0  0  0  0  0  0  0  0  0  0  0  0
   20.8300  -29.9760    8.5590 C   0  0  0  0  0  0  0  0  0  0  0  0
   13.2220  -30.9850   12.3980 C   0  0  0  0  0  0  0  0  0  0  0  0
   20.6060  -29.4750    9.9620 C   0  0  0  0  0  0  0  0  0  0  0  0
   20.1120  -30.2180   10.9170 C   0  0  0  0  0  0  0  0  0  0  0  0
   25.7270  -27.3360    5.0710 C   0  0  0  0  0  0  0  0  0  0  0  0
   24.6470  -29.4920    5.5110 C   0  0  0  0  0  0  0  0  0  0  0  0
   22.6290  -29.6950    6.8770 C   0  0  0  0  0  0  0  0  0  0  0  0
   17.9480  -30.5060   13.4060 C   0  0  1  0  0  0  0  0  0  0  0  0
   24.7600  -26.7690    5.8440 C   0  0  0  0  0  0  0  0  0  0  0  0
   19.0550  -31.5850   13.4000 C   0  0  1  0  0  0  0  0  0  0  0  0
   20.3680  -30.8330   13.2990 C   0  0  1  0  0  0  0  0  0  0  0  0
   23.7050  -27.4560    6.4640 C   0  0  0  0  0  0  0  0  0  0  0  0
   19.9190  -29.6990   12.2860 C   0  0  2  0  0  0  0  0  0  0  0  0
   15.4830  -30.7070   13.2050 C   0  0  0  0  0  0  0  0  0  0  0  0
   14.5670  -31.1260   12.1690 C   0  0  0  0  0  0  0  0  0  0  0  0
   25.6740  -28.7630    4.9300 C   0  0  0  0  0  0  0  0  0  0  0  0
   23.6650  -28.8720    6.2440 C   0  0  0  0  0  0  0  0  0  0  0  0
   24.1132  -24.9682    6.6279 H   0  0  0  0  0  0  0  0  0  0  0  0
   19.6025  -33.0915   14.5903 H   0  0  0  0  0  0  0  0  0  0  0  0
   21.5454  -29.7343   14.4778 H   0  0  0  0  0  0  0  0  0  0  0  0
   22.0238  -27.2355    7.5898 H   0  0  0  0  0  0  0  0  0  0  0  0
   21.9148  -28.2472    8.0614 H   0  0  0  0  0  0  0  0  0  0  0  0
   13.3289  -29.6471   15.3382 H   0  0  0  0  0  0  0  0  0  0  0  0
   17.3567  -31.7717   10.8641 H   0  0  0  0  0  0  0  0  0  0  0  0
   21.1313  -30.9283    8.6065 H   0  0  0  0  0  0  0  0  0  0  0  0
   19.9639  -29.9248    8.0617 H   0  0  0  0  0  0  0  0  0  0  0  0
   12.5685  -31.2869   11.7039 H   0  0  0  0  0  0  0  0  0  0  0  0
   20.8471  -28.5277   10.1729 H   0  0  0  0  0  0  0  0  0  0  0  0
   19.8578  -31.1638   10.7151 H   0  0  0  0  0  0  0  0  0  0  0  0
   26.4353  -26.7880    4.6260 H   0  0  0  0  0  0  0  0  0  0  0  0
   24.6212  -30.4848    5.3943 H   0  0  0  0  0  0  0  0  0  0  0  0
   17.7650  -30.1684   14.3293 H   0  0  0  0  0  0  0  0  0  0  0  0
   18.9451  -32.1629   12.5913 H   0  0  0  0  0  0  0  0  0  0  0  0
   21.1132  -31.3979   12.9446 H   0  0  0  0  0  0  0  0  0  0  0  0
   20.4497  -28.8635   12.4284 H   0  0  0  0  0  0  0  0  0  0  0  0
  1 13  1  0  0  0  0
  2 13  2  0  0  0  0
  3 23  2  0  0  0  0
  4 25  1  0  0  0  0
  5 26  1  0  0  0  0
  6 27  1  0  0  0  0
  7 28  1  0  0  0  0
  8 24  1  0  0  0  0
  8 29  1  0  0  0  0
  9 15  2  0  0  0  0
  9 18  1  0  0  0  0
 10 15  1  0  0  0  0
 10 30  2  0  0  0  0
 11 17  1  0  0  0  0
 11 23  1  0  0  0  0
 12 16  2  0  0  0  0
 12 31  1  0  0  0  0
 13 32  1  0  0  0  0
 14 16  1  0  0  0  0
 14 24  1  0  0  0  0
 14 30  1  0  0  0  0
 17 19  1  0  0  0  0
 18 31  2  0  0  0  0
 19 20  2  0  0  0  0
 20 29  1  0  0  0  0
 21 25  1  0  0  0  0
 21 32  2  0  0  0  0
 22 32  1  0  0  0  0
 22 33  2  0  0  0  0
 23 33  1  0  0  0  0
 24 26  1  0  0  0  0
 25 28  2  0  0  0  0
 26 27  1  0  0  0  0
 27 29  1  0  0  0  0
 28 33  1  0  0  0  0
 30 31  1  0  0  0  0
  4 34  1  0  0  0  0
  5 35  1  0  0  0  0
  6 36  1  0  0  0  0
  7 37  1  0  0  0  0
 11 38  1  0  0  0  0
 15 39  1  0  0  0  0
 16 40  1  0  0  0  0
 17 41  1  0  0  0  0
 17 42  1  0  0  0  0
 18 43  1  0  0  0  0
 19 44  1  0  0  0  0
 20 45  1  0  0  0  0
 21 46  1  0  0  0  0
 22 47  1  0  0  0  0
 24 48  1  0  0  0  0
 26 49  1  0  0  0  0
 27 50  1  0  0  0  0
 29 51  1  0  0  0  0
M  CHG  2   1  -1  13   1
M  END
> <pdb_id>
3OE4

> <uniprot_id>
P22734

> <usmiles>
[O-][N+](=O)c1cc(O)c(O)c(c1)C(=O)NC/C=C/[C@H]2O[C@@H](N3c4ncncc4N=C3)[C@H](O)[C@@H]2O

$$$$
611_A_223
          07202404233D 1   1.00000     0.00000     0
            
 50 52  0  0  0  0            999 V2000
   17.0271  -31.6817   12.2416 S   0  0  0  0  0  0  0  0  0  0  0  0
   27.5232  -28.8228    3.5329 O   0  5  0  0  0  0  0  0  0  0  0  0
   26.6934  -30.6620    4.1849 O   0  0  0  0  0  0  0  0  0  0  0  0
   22.5518  -30.9809    6.5724 O   0  0  0  0  0  0  0  0  0  0  0  0
   24.8423  -25.4327    6.1034 O   0  0  0  0  0  0  0  0  0  0  0  0
   19.4701  -32.2615   14.6077 O   0  0  0  0  0  0  0  0  0  0  0  0
   20.5601  -29.6664   14.6159 O   0  0  0  0  0  0  0  0  0  0  0  0
   22.8215  -26.8219    7.2229 O   0  0  0  0  0  0  0  0  0  0  0  0
   18.4961  -29.4675   12.6818 O   0  0  0  0  0  0  0  0  0  0  0  0
   12.7785  -30.4686   13.4593 N   0  0  0  0  0  0  0  0  0  0  0  0
   21.8476  -29.2943    7.9087 N   0  0  0  0  0  0  0  0  0  0  0  0
   26.7251  -29.4398    4.1878 N   0  3  0  0  0  0  0  0  0  0  0  0
   20.9014  -30.0482    8.6909 C   0  0  0  0  0  0  0  0  0  0  0  0
   13.0337  -31.5628   12.6663 C   0  0  0  0  0  0  0  0  0  0  0  0
   13.8935  -29.7455   13.8624 C   0  0  0  0  0  0  0  0  0  0  0  0
   20.7406  -29.5099   10.0741 C   0  0  0  0  0  0  0  0  0  0  0  0
   14.3129  -31.9592   12.2571 C   0  0  0  0  0  0  0  0  0  0  0  0
   15.1978  -30.0836   13.5137 C   0  0  0  0  0  0  0  0  0  0  0  0
   19.9845  -30.0686   10.9775 C   0  0  0  0  0  0  0  0  0  0  0  0
   25.7740  -27.3678    5.1503 C   0  0  0  0  0  0  0  0  0  0  0  0
   24.7010  -29.5447    5.5771 C   0  0  0  0  0  0  0  0  0  0  0  0
   18.1474  -30.7266   13.2746 C   0  0  2  0  0  0  0  0  0  0  0  0
   15.4869  -31.2099   12.6858 C   0  0  0  0  0  0  0  0  0  0  0  0
   22.6603  -29.7777    6.9511 C   0  0  0  0  0  0  0  0  0  0  0  0
   24.8002  -26.8027    5.9243 C   0  0  0  0  0  0  0  0  0  0  0  0
   19.4692  -31.4883   13.4010 C   0  0  1  0  0  0  0  0  0  0  0  0
   20.5431  -30.3814   13.3824 C   0  0  1  0  0  0  0  0  0  0  0  0
   23.7311  -27.5168    6.5309 C   0  0  0  0  0  0  0  0  0  0  0  0
   19.8554  -29.4755   12.3153 C   0  0  2  0  0  0  0  0  0  0  0  0
   25.7271  -28.7707    4.9923 C   0  0  0  0  0  0  0  0  0  0  0  0
   23.7090  -28.9268    6.3339 C   0  0  0  0  0  0  0  0  0  0  0  0
   24.1479  -24.9800    6.6628 H   0  0  0  0  0  0  0  0  0  0  0  0
   20.3353  -32.7569   14.6855 H   0  0  0  0  0  0  0  0  0  0  0  0
   21.2627  -28.9558   14.5796 H   0  0  0  0  0  0  0  0  0  0  0  0
   22.0577  -27.2958    7.6612 H   0  0  0  0  0  0  0  0  0  0  0  0
   21.9063  -28.3138    8.0960 H   0  0  0  0  0  0  0  0  0  0  0  0
   21.2177  -30.9950    8.7506 H   0  0  0  0  0  0  0  0  0  0  0  0
   20.0134  -30.0217    8.2319 H   0  0  0  0  0  0  0  0  0  0  0  0
   12.2549  -32.1112   12.3621 H   0  0  0  0  0  0  0  0  0  0  0  0
   13.7515  -28.9378   14.4345 H   0  0  0  0  0  0  0  0  0  0  0  0
   21.2383  -28.6782   10.3204 H   0  0  0  0  0  0  0  0  0  0  0  0
   14.4212  -32.7600   11.6681 H   0  0  0  0  0  0  0  0  0  0  0  0
   15.9529  -29.5223   13.8524 H   0  0  0  0  0  0  0  0  0  0  0  0
   19.4881  -30.9084   10.7578 H   0  0  0  0  0  0  0  0  0  0  0  0
   26.4855  -26.8149    4.7166 H   0  0  0  0  0  0  0  0  0  0  0  0
   24.6869  -30.5362    5.4477 H   0  0  0  0  0  0  0  0  0  0  0  0
   17.7447  -30.5824   14.1785 H   0  0  0  0  0  0  0  0  0  0  0  0
   19.5899  -32.0910   12.6121 H   0  0  0  0  0  0  0  0  0  0  0  0
   21.4452  -30.7092   13.1019 H   0  0  0  0  0  0  0  0  0  0  0  0
   20.2355  -28.5507   12.3338 H   0  0  0  0  0  0  0  0  0  0  0  0
  1 22  1  0  0  0  0
  1 23  1  0  0  0  0
  2 12  1  0  0  0  0
  3 12  2  0  0  0  0
  4 24  2  0  0  0  0
  5 25  1  0  0  0  0
  6 26  1  0  0  0  0
  7 27  1  0  0  0  0
  8 28  1  0  0  0  0
  9 22  1  0  0  0  0
  9 29  1  0  0  0  0
 10 14  2  0  0  0  0
 10 15  1  0  0  0  0
 11 13  1  0  0  0  0
 11 24  1  0  0  0  0
 12 30  1  0  0  0  0
 13 16  1  0  0  0  0
 14 17  1  0  0  0  0
 15 18  2  0  0  0  0
 16 19  2  0  0  0  0
 17 23  2  0  0  0  0
 18 23  1  0  0  0  0
 19 29  1  0  0  0  0
 20 25  1  0  0  0  0
 20 30  2  0  0  0  0
 21 30  1  0  0  0  0
 21 31  2  0  0  0  0
 22 26  1  0  0  0  0
 24 31  1  0  0  0  0
 25 28  2  0  0  0  0
 26 27  1  0  0  0  0
 27 29  1  0  0  0  0
 28 31  1  0  0  0  0
  5 32  1  0  0  0  0
  6 33  1  0  0  0  0
  7 34  1  0  0  0  0
  8 35  1  0  0  0  0
 11 36  1  0  0  0  0
 13 37  1  0  0  0  0
 13 38  1  0  0  0  0
 14 39  1  0  0  0  0
 15 40  1  0  0  0  0
 16 41  1  0  0  0  0
 17 42  1  0  0  0  0
 18 43  1  0  0  0  0
 19 44  1  0  0  0  0
 20 45  1  0  0  0  0
 21 46  1  0  0  0  0
 22 47  1  0  0  0  0
 26 48  1  0  0  0  0
 27 49  1  0  0  0  0
 29 50  1  0  0  0  0
M  CHG  2   2  -1  12   1
M  END
> <pdb_id>
3OE5

> <uniprot_id>
P22734

> <usmiles>
S(c1ccncc1)[C@@H]2O[C@H](/C=C/CNC(=O)c3c(O)c(O)cc([N+]([O-])=O)c3)[C@@H](O)[C@H]2O

$$$$
615_B_486
          07202412373D 1   1.00000     0.00000     0
            
 60 64  0  0  0  0            999 V2000
   51.1490   36.0030   40.3530 O   0  0  0  0  0  0  0  0  0  0  0  0
   47.2650   31.9200   39.6150 O   0  0  0  0  0  0  0  0  0  0  0  0
   51.9140   33.8410   39.3450 O   0  0  0  0  0  0  0  0  0  0  0  0
   50.3410   31.8130   45.7100 O   0  0  0  0  0  0  0  0  0  0  0  0
   48.2030   29.8610   39.6630 N   0  0  0  0  0  0  0  0  0  0  0  0
   50.1650   35.1670   39.7550 N   0  0  0  0  0  0  0  0  0  0  0  0
   49.9410   26.9570   47.0730 N   0  0  0  0  0  0  0  0  0  0  0  0
   51.0150   31.0990   46.7030 C   0  0  0  0  0  0  0  0  0  0  0  0
   44.9320   26.7600   46.1860 C   0  0  0  0  0  0  0  0  0  0  0  0
   53.5240   26.5670   47.7720 C   0  0  0  0  0  0  0  0  0  0  0  0
   45.3190   28.1110   46.0550 C   0  0  0  0  0  0  0  0  0  0  0  0
   45.9040   25.7830   46.5240 C   0  0  0  0  0  0  0  0  0  0  0  0
   53.9880   27.8820   47.6560 C   0  0  0  0  0  0  0  0  0  0  0  0
   52.1650   26.2800   47.5600 C   0  0  0  0  0  0  0  0  0  0  0  0
   51.2880   30.7070   43.8680 C   0  0  0  0  0  0  0  0  0  0  0  0
   49.5370   32.3580   43.4590 C   0  0  0  0  0  0  0  0  0  0  0  0
   46.6720   28.4670   46.2460 C   0  0  0  0  0  0  0  0  0  0  0  0
   47.2470   26.1540   46.7200 C   0  0  0  0  0  0  0  0  0  0  0  0
   53.0840   28.9020   47.3340 C   0  0  0  0  0  0  0  0  0  0  0  0
   51.4150   30.4780   42.4710 C   0  0  0  0  0  0  0  0  0  0  0  0
   49.6420   32.1040   42.0800 C   0  0  0  0  0  0  0  0  0  0  0  0
   49.4170   29.2560   46.6250 C   0  0  0  0  0  0  0  0  0  0  0  0
   50.6570   30.9130   40.0770 C   0  0  0  0  0  0  0  0  0  0  0  0
   49.6520   31.9010   37.7710 C   0  0  0  0  0  0  0  0  0  0  0  0
   48.2600   31.1940   39.5170 C   0  0  0  0  0  0  0  0  0  0  0  0
   50.7090   34.0630   39.2370 C   0  0  0  0  0  0  0  0  0  0  0  0
   50.3370   31.6170   44.3690 C   0  0  0  0  0  0  0  0  0  0  0  0
   51.2380   27.2830   47.2390 C   0  0  0  0  0  0  0  0  0  0  0  0
   49.0430   27.9180   46.7720 C   0  0  0  0  0  0  0  0  0  0  0  0
   50.5700   31.1580   41.5830 C   0  0  0  0  0  0  0  0  0  0  0  0
   47.6460   27.5070   46.5850 C   0  0  0  0  0  0  0  0  0  0  0  0
   50.7470   29.6260   46.7920 C   0  0  0  0  0  0  0  0  0  0  0  0
   51.7020   28.6210   47.1190 C   0  0  0  0  0  0  0  0  0  0  0  0
   49.8470   33.0880   38.5370 C   0  0  2  0  0  0  0  0  0  0  0  0
   49.6360   31.7720   39.3180 C   0  0  1  0  0  0  0  0  0  0  0  0
   50.7093   36.8182   40.7299 H   0  0  0  0  0  0  0  0  0  0  0  0
   49.0344   29.3124   39.5752 H   0  0  0  0  0  0  0  0  0  0  0  0
   47.3291   29.4165   39.8596 H   0  0  0  0  0  0  0  0  0  0  0  0
   49.1883   35.3796   39.7263 H   0  0  0  0  0  0  0  0  0  0  0  0
   50.7682   31.5031   47.5838 H   0  0  0  0  0  0  0  0  0  0  0  0
   51.9954   31.2171   46.5451 H   0  0  0  0  0  0  0  0  0  0  0  0
   43.9792   26.4931   46.0416 H   0  0  0  0  0  0  0  0  0  0  0  0
   54.1597   25.8314   48.0058 H   0  0  0  0  0  0  0  0  0  0  0  0
   44.6407   28.8101   45.8288 H   0  0  0  0  0  0  0  0  0  0  0  0
   45.6330   24.8256   46.6234 H   0  0  0  0  0  0  0  0  0  0  0  0
   54.9550   28.0913   47.8015 H   0  0  0  0  0  0  0  0  0  0  0  0
   51.8497   25.3344   47.6402 H   0  0  0  0  0  0  0  0  0  0  0  0
   51.8823   30.2150   44.5042 H   0  0  0  0  0  0  0  0  0  0  0  0
   48.9041   33.0549   43.7963 H   0  0  0  0  0  0  0  0  0  0  0  0
   46.9453   29.4229   46.1381 H   0  0  0  0  0  0  0  0  0  0  0  0
   47.9249   25.4578   46.9563 H   0  0  0  0  0  0  0  0  0  0  0  0
   53.4127   29.8430   47.2534 H   0  0  0  0  0  0  0  0  0  0  0  0
   52.1008   29.8378   42.1248 H   0  0  0  0  0  0  0  0  0  0  0  0
   49.0526   32.5988   41.4414 H   0  0  0  0  0  0  0  0  0  0  0  0
   48.7295   29.9464   46.4001 H   0  0  0  0  0  0  0  0  0  0  0  0
   50.4735   29.9476   39.8919 H   0  0  0  0  0  0  0  0  0  0  0  0
   51.5773   31.1439   39.7611 H   0  0  0  0  0  0  0  0  0  0  0  0
   50.4153   31.5175   37.2511 H   0  0  0  0  0  0  0  0  0  0  0  0
   48.8034   31.7790   37.2562 H   0  0  0  0  0  0  0  0  0  0  0  0
   48.9443   33.5181   38.5452 H   0  0  0  0  0  0  0  0  0  0  0  0
  1  6  1  0  0  0  0
  2 25  2  0  0  0  0
  3 26  2  0  0  0  0
  4  8  1  0  0  0  0
  4 27  1  0  0  0  0
  5 25  1  0  0  0  0
  6 26  1  0  0  0  0
  7 28  2  0  0  0  0
  7 29  1  0  0  0  0
  8 32  1  0  0  0  0
  9 11  2  0  0  0  0
  9 12  1  0  0  0  0
 10 13  1  0  0  0  0
 10 14  2  0  0  0  0
 11 17  1  0  0  0  0
 12 18  2  0  0  0  0
 13 19  2  0  0  0  0
 14 28  1  0  0  0  0
 15 20  2  0  0  0  0
 15 27  1  0  0  0  0
 16 21  1  0  0  0  0
 16 27  2  0  0  0  0
 17 31  2  0  0  0  0
 18 31  1  0  0  0  0
 19 33  1  0  0  0  0
 20 30  1  0  0  0  0
 21 30  2  0  0  0  0
 22 29  2  0  0  0  0
 22 32  1  0  0  0  0
 23 30  1  0  0  0  0
 23 35  1  0  0  0  0
 24 34  1  0  0  0  0
 24 35  1  0  0  0  0
 25 35  1  0  0  0  0
 26 34  1  0  0  0  0
 28 33  1  0  0  0  0
 29 31  1  0  0  0  0
 32 33  2  0  0  0  0
 34 35  1  0  0  0  0
  1 36  1  0  0  0  0
  5 37  1  0  0  0  0
  5 38  1  0  0  0  0
  6 39  1  0  0  0  0
  8 40  1  0  0  0  0
  8 41  1  0  0  0  0
  9 42  1  0  0  0  0
 10 43  1  0  0  0  0
 11 44  1  0  0  0  0
 12 45  1  0  0  0  0
 13 46  1  0  0  0  0
 14 47  1  0  0  0  0
 15 48  1  0  0  0  0
 16 49  1  0  0  0  0
 17 50  1  0  0  0  0
 18 51  1  0  0  0  0
 19 52  1  0  0  0  0
 20 53  1  0  0  0  0
 21 54  1  0  0  0  0
 22 55  1  0  0  0  0
 23 56  1  0  0  0  0
 23 57  1  0  0  0  0
 24 58  1  0  0  0  0
 24 59  1  0  0  0  0
 34 60  1  0  0  0  0
M  END
> <pdb_id>
3E8R

> <uniprot_id>
P78536

> <usmiles>
O=C(NO)[C@@H]1[C@](C(=O)N)(Cc2ccc(OCc3c4c(nc(c5ccccc5)c3)cccc4)cc2)C1

$$$$
61Y_A_403
          07202403043D 1   1.00000     0.00000     0
            
 38 41  0  0  0  0            999 V2000
   77.8987   17.0986   10.7448 N   0  0  0  0  0  0  0  0  0  0  0  0
   87.9430   18.1676   13.8478 N   0  0  0  0  0  0  0  0  0  0  0  0
   88.5923   17.0670   14.3524 N   0  0  0  0  0  0  0  0  0  0  0  0
   84.8820   13.3745   12.6190 N   0  0  0  0  0  0  0  0  0  0  0  0
   82.5635   13.1959   11.8761 N   0  0  0  0  0  0  0  0  0  0  0  0
   79.4369   18.5392   11.6784 N   0  0  0  0  0  0  0  0  0  0  0  0
   79.9575   16.3396   11.3609 N   0  0  0  0  0  0  0  0  0  0  0  0
   81.0083   21.0950   11.4321 C   0  0  0  0  0  0  0  0  0  0  0  0
   86.8303   17.7607   13.3509 C   0  0  0  0  0  0  0  0  0  0  0  0
   87.8479   15.9879   14.1375 C   0  0  0  0  0  0  0  0  0  0  0  0
   85.8270   14.1598   12.9856 C   0  0  0  0  0  0  0  0  0  0  0  0
   81.5845   14.0739   11.6658 C   0  0  0  0  0  0  0  0  0  0  0  0
   80.9454   20.1774   12.6363 C   0  0  0  0  0  0  0  0  0  0  0  0
   81.5341   17.7590   12.2884 C   0  0  0  0  0  0  0  0  0  0  0  0
   84.3817   16.0547   12.7502 C   0  0  0  0  0  0  0  0  0  0  0  0
   79.1338   17.3324   11.2824 C   0  0  0  0  0  0  0  0  0  0  0  0
   83.6885   13.8169   12.2890 C   0  0  0  0  0  0  0  0  0  0  0  0
   80.6160   18.7817   12.1926 C   0  0  0  0  0  0  0  0  0  0  0  0
   81.1605   16.5001   11.8382 C   0  0  0  0  0  0  0  0  0  0  0  0
   86.7347   16.3876   13.5145 C   0  0  0  0  0  0  0  0  0  0  0  0
   85.6238   15.5271   13.0755 C   0  0  0  0  0  0  0  0  0  0  0  0
   82.0138   15.3071   11.9251 C   0  0  0  0  0  0  0  0  0  0  0  0
   83.3992   15.1752   12.3420 C   0  0  0  0  0  0  0  0  0  0  0  0
   77.6531   16.1793   10.4374 H   0  0  0  0  0  0  0  0  0  0  0  0
   77.2409   17.8469   10.6590 H   0  0  0  0  0  0  0  0  0  0  0  0
   88.2750   19.1107   13.8642 H   0  0  0  0  0  0  0  0  0  0  0  0
   82.4767   12.2083   11.7456 H   0  0  0  0  0  0  0  0  0  0  0  0
   81.2279   22.0235   11.7317 H   0  0  0  0  0  0  0  0  0  0  0  0
   81.7153   20.7717   10.8032 H   0  0  0  0  0  0  0  0  0  0  0  0
   80.1231   21.0955   10.9668 H   0  0  0  0  0  0  0  0  0  0  0  0
   86.1428   18.3419   12.9155 H   0  0  0  0  0  0  0  0  0  0  0  0
   88.0780   15.0492   14.3944 H   0  0  0  0  0  0  0  0  0  0  0  0
   86.7243   13.7796   13.2100 H   0  0  0  0  0  0  0  0  0  0  0  0
   80.6620   13.8410   11.3581 H   0  0  0  0  0  0  0  0  0  0  0  0
   80.2386   20.5018   13.2649 H   0  0  0  0  0  0  0  0  0  0  0  0
   81.8308   20.1780   13.1013 H   0  0  0  0  0  0  0  0  0  0  0  0
   82.4439   17.9190   12.6714 H   0  0  0  0  0  0  0  0  0  0  0  0
   84.2049   17.0372   12.8095 H   0  0  0  0  0  0  0  0  0  0  0  0
  1 16  1  0  0  0  0
  2  3  1  0  0  0  0
  2  9  1  0  0  0  0
  3 10  2  0  0  0  0
  4 11  1  0  0  0  0
  4 17  2  0  0  0  0
  5 12  1  0  0  0  0
  5 17  1  0  0  0  0
  6 16  2  0  0  0  0
  6 18  1  0  0  0  0
  7 16  1  0  0  0  0
  7 19  2  0  0  0  0
  8 13  1  0  0  0  0
  9 20  2  0  0  0  0
 10 20  1  0  0  0  0
 11 21  2  0  0  0  0
 12 22  2  0  0  0  0
 13 18  1  0  0  0  0
 14 18  2  0  0  0  0
 14 19  1  0  0  0  0
 15 21  1  0  0  0  0
 15 23  2  0  0  0  0
 17 23  1  0  0  0  0
 19 22  1  0  0  0  0
 20 21  1  0  0  0  0
 22 23  1  0  0  0  0
  1 24  1  0  0  0  0
  1 25  1  0  0  0  0
  2 26  1  0  0  0  0
  5 27  1  0  0  0  0
  8 28  1  0  0  0  0
  8 29  1  0  0  0  0
  8 30  1  0  0  0  0
  9 31  1  0  0  0  0
 10 32  1  0  0  0  0
 11 33  1  0  0  0  0
 12 34  1  0  0  0  0
 13 35  1  0  0  0  0
 13 36  1  0  0  0  0
 14 37  1  0  0  0  0
 15 38  1  0  0  0  0
M  END
> <pdb_id>
5HKM

> <uniprot_id>
O15530

> <usmiles>
n1c(nc(cc1C=2c3c(ncc(c3)C=4C=NNC4)NC2)CC)N

$$$$
626_A_1389
          07212402253D 1   1.00000     0.00000     0
            
 58 62  0  0  0  0            999 V2000
  111.8964  -21.5336    3.5295 S   0  0  0  0  0  0  0  0  0  0  0  0
  108.8939  -16.0042    5.2589 O   0  0  0  0  0  0  0  0  0  0  0  0
  113.6264  -19.1166    1.9063 O   0  0  0  0  0  0  0  0  0  0  0  0
  108.5038  -15.5049    1.0733 N   0  0  0  0  0  0  0  0  0  0  0  0
  109.4276  -16.0544    0.2205 N   0  0  0  0  0  0  0  0  0  0  0  0
  107.8993  -15.2710    3.3757 N   0  0  0  0  0  0  0  0  0  0  0  0
  101.3194  -13.2405    9.5016 N   0  0  0  0  0  0  0  0  0  0  0  0
  103.9391  -13.1280    8.3768 N   0  0  0  0  0  0  0  0  0  0  0  0
  111.7881  -17.8559    2.3641 N   0  0  0  0  0  0  0  0  0  0  0  0
  100.0148  -13.1303   10.2125 C   0  0  0  0  0  0  0  0  0  0  0  0
  110.6335  -22.1860    4.4927 C   0  0  0  0  0  0  0  0  0  0  0  0
  102.4186  -13.5684   10.4688 C   0  0  0  0  0  0  0  0  0  0  0  0
  101.5743  -12.0468    8.6191 C   0  0  0  0  0  0  0  0  0  0  0  0
  103.8143  -13.6938    9.7905 C   0  0  0  0  0  0  0  0  0  0  0  0
  103.0024  -11.9863    7.9902 C   0  0  0  0  0  0  0  0  0  0  0  0
  111.5126  -17.5064    0.9314 C   0  0  0  0  0  0  0  0  0  0  0  0
  110.7979  -17.2636    3.3197 C   0  0  0  0  0  0  0  0  0  0  0  0
  110.3277  -21.3613    5.5474 C   0  0  0  0  0  0  0  0  0  0  0  0
  111.1054  -20.2019    5.5925 C   0  0  0  0  0  0  0  0  0  0  0  0
  104.8284  -13.4969    6.0014 C   0  0  0  0  0  0  0  0  0  0  0  0
  106.0843  -14.4183    7.8948 C   0  0  0  0  0  0  0  0  0  0  0  0
  105.7806  -14.0300    5.1134 C   0  0  0  0  0  0  0  0  0  0  0  0
  107.0331  -14.9469    7.0136 C   0  0  0  0  0  0  0  0  0  0  0  0
  113.0262  -19.0516    4.2331 C   0  0  0  0  0  0  0  0  0  0  0  0
  107.9686  -15.3911    4.7342 C   0  0  0  0  0  0  0  0  0  0  0  0
  112.8417  -18.6590    2.7430 C   0  0  0  0  0  0  0  0  0  0  0  0
  111.9997  -20.1624    4.5640 C   0  0  0  0  0  0  0  0  0  0  0  0
  108.7551  -15.7717    2.3042 C   0  0  0  0  0  0  0  0  0  0  0  0
  110.2706  -16.6892    1.1137 C   0  0  0  0  0  0  0  0  0  0  0  0
  104.9558  -13.6811    7.4176 C   0  0  0  0  0  0  0  0  0  0  0  0
  106.9013  -14.7682    5.6017 C   0  0  0  0  0  0  0  0  0  0  0  0
  109.8389  -16.5249    2.4553 C   0  0  0  0  0  0  0  0  0  0  0  0
  107.7230  -14.9583    0.7706 H   0  0  0  0  0  0  0  0  0  0  0  0
  107.1148  -14.7405    3.0545 H   0  0  0  0  0  0  0  0  0  0  0  0
   99.2941  -12.9118    9.5546 H   0  0  0  0  0  0  0  0  0  0  0  0
   99.8049  -13.9994   10.6604 H   0  0  0  0  0  0  0  0  0  0  0  0
  100.0698  -12.4058   10.8996 H   0  0  0  0  0  0  0  0  0  0  0  0
  110.1779  -23.0569    4.3087 H   0  0  0  0  0  0  0  0  0  0  0  0
  102.2020  -14.4375   10.9136 H   0  0  0  0  0  0  0  0  0  0  0  0
  102.4634  -12.8440   11.1567 H   0  0  0  0  0  0  0  0  0  0  0  0
  101.4413  -11.2212    9.1675 H   0  0  0  0  0  0  0  0  0  0  0  0
  100.9074  -12.0633    7.8742 H   0  0  0  0  0  0  0  0  0  0  0  0
  104.4767  -13.2167   10.3681 H   0  0  0  0  0  0  0  0  0  0  0  0
  104.0462  -14.6657    9.7502 H   0  0  0  0  0  0  0  0  0  0  0  0
  102.9016  -11.9938    6.9953 H   0  0  0  0  0  0  0  0  0  0  0  0
  103.4286  -11.1278    8.2755 H   0  0  0  0  0  0  0  0  0  0  0  0
  111.3460  -18.3198    0.3740 H   0  0  0  0  0  0  0  0  0  0  0  0
  112.2553  -16.9721    0.5278 H   0  0  0  0  0  0  0  0  0  0  0  0
  111.2513  -16.6403    3.9569 H   0  0  0  0  0  0  0  0  0  0  0  0
  110.3291  -17.9823    3.8332 H   0  0  0  0  0  0  0  0  0  0  0  0
  109.6167  -21.5707    6.2186 H   0  0  0  0  0  0  0  0  0  0  0  0
  111.0175  -19.4911    6.2904 H   0  0  0  0  0  0  0  0  0  0  0  0
  104.0513  -12.9820    5.6395 H   0  0  0  0  0  0  0  0  0  0  0  0
  106.1974  -14.5587    8.8784 H   0  0  0  0  0  0  0  0  0  0  0  0
  105.6715  -13.8903    4.1292 H   0  0  0  0  0  0  0  0  0  0  0  0
  107.8136  -15.4563    7.3759 H   0  0  0  0  0  0  0  0  0  0  0  0
  112.8652  -18.2555    4.8165 H   0  0  0  0  0  0  0  0  0  0  0  0
  113.9547  -19.3918    4.3822 H   0  0  0  0  0  0  0  0  0  0  0  0
  1 11  1  0  0  0  0
  1 27  1  0  0  0  0
  2 25  2  0  0  0  0
  3 26  2  0  0  0  0
  4  5  1  0  0  0  0
  4 28  1  0  0  0  0
  5 29  2  0  0  0  0
  6 25  1  0  0  0  0
  6 28  1  0  0  0  0
  7 10  1  0  0  0  0
  7 12  1  0  0  0  0
  7 13  1  0  0  0  0
  8 14  1  0  0  0  0
  8 15  1  0  0  0  0
  8 30  1  0  0  0  0
  9 16  1  0  0  0  0
  9 17  1  0  0  0  0
  9 26  1  0  0  0  0
 11 18  2  0  0  0  0
 12 14  1  0  0  0  0
 13 15  1  0  0  0  0
 16 29  1  0  0  0  0
 17 32  1  0  0  0  0
 18 19  1  0  0  0  0
 19 27  2  0  0  0  0
 20 22  1  0  0  0  0
 20 30  2  0  0  0  0
 21 23  2  0  0  0  0
 21 30  1  0  0  0  0
 22 31  2  0  0  0  0
 23 31  1  0  0  0  0
 24 26  1  0  0  0  0
 24 27  1  0  0  0  0
 25 31  1  0  0  0  0
 28 32  2  0  0  0  0
 29 32  1  0  0  0  0
  4 33  1  0  0  0  0
  6 34  1  0  0  0  0
 10 35  1  0  0  0  0
 10 36  1  0  0  0  0
 10 37  1  0  0  0  0
 11 38  1  0  0  0  0
 12 39  1  0  0  0  0
 12 40  1  0  0  0  0
 13 41  1  0  0  0  0
 13 42  1  0  0  0  0
 14 43  1  0  0  0  0
 14 44  1  0  0  0  0
 15 45  1  0  0  0  0
 15 46  1  0  0  0  0
 16 47  1  0  0  0  0
 16 48  1  0  0  0  0
 17 49  1  0  0  0  0
 17 50  1  0  0  0  0
 18 51  1  0  0  0  0
 19 52  1  0  0  0  0
 20 53  1  0  0  0  0
 21 54  1  0  0  0  0
 22 55  1  0  0  0  0
 23 56  1  0  0  0  0
 24 57  1  0  0  0  0
 24 58  1  0  0  0  0
M  END
> <pdb_id>
2J4Z

> <uniprot_id>
O14965

> <usmiles>
S1C(=CC=C1)CC(=O)N2CC3=NNC(NC(=O)c4ccc(N5CCN(CC5)C)cc4)=C3C2

$$$$
62D_A_501
          07202407253D 1   1.00000     0.00000     0
            
 33 35  0  0  0  0            999 V2000
  103.7235   17.0412   23.9654 O   0  0  0  0  0  0  0  0  0  0  0  0
  103.4546   17.4891   16.2938 N   0  0  0  0  0  0  0  0  0  0  0  0
   99.5437   15.4381   24.6219 N   0  0  0  0  0  0  0  0  0  0  0  0
  101.6279   16.2739   24.2271 N   0  0  0  0  0  0  0  0  0  0  0  0
  101.8644   16.7672   17.9671 N   0  0  0  0  0  0  0  0  0  0  0  0
  103.8505   17.3997   18.5925 N   0  0  0  0  0  0  0  0  0  0  0  0
  100.1959   15.7814   22.4918 N   0  0  0  0  0  0  0  0  0  0  0  0
  102.5477   17.2347   15.1973 C   0  0  0  0  0  0  0  0  0  0  0  0
   98.2176   13.3922   24.5040 C   0  0  0  0  0  0  0  0  0  0  0  0
   98.2068   14.9293   24.3370 C   0  0  0  0  0  0  0  0  0  0  0  0
  100.8285   16.1967   20.1938 C   0  0  0  0  0  0  0  0  0  0  0  0
  103.5185   17.0652   21.0917 C   0  0  0  0  0  0  0  0  0  0  0  0
  103.1521   17.2514   17.5369 C   0  0  0  0  0  0  0  0  0  0  0  0
  100.4586   15.8126   23.7677 C   0  0  0  0  0  0  0  0  0  0  0  0
  102.6102   16.6167   23.3981 C   0  0  0  0  0  0  0  0  0  0  0  0
  101.8525   16.6399   19.2737 C   0  0  0  0  0  0  0  0  0  0  0  0
  103.1515   17.0525   19.7857 C   0  0  0  0  0  0  0  0  0  0  0  0
  101.1445   16.2188   21.5142 C   0  0  0  0  0  0  0  0  0  0  0  0
  102.4608   16.6302   22.0520 C   0  0  0  0  0  0  0  0  0  0  0  0
  104.3576   17.8658   16.0872 H   0  0  0  0  0  0  0  0  0  0  0  0
   99.7900   15.5087   25.5885 H   0  0  0  0  0  0  0  0  0  0  0  0
  101.7660   16.3627   25.2135 H   0  0  0  0  0  0  0  0  0  0  0  0
  101.0961   16.5596   17.3616 H   0  0  0  0  0  0  0  0  0  0  0  0
  102.9865   17.4901   14.3357 H   0  0  0  0  0  0  0  0  0  0  0  0
  102.3137   16.2627   15.1769 H   0  0  0  0  0  0  0  0  0  0  0  0
  101.7156   17.7754   15.3206 H   0  0  0  0  0  0  0  0  0  0  0  0
   97.3059   13.0295   24.3114 H   0  0  0  0  0  0  0  0  0  0  0  0
   98.8768   12.9923   23.8671 H   0  0  0  0  0  0  0  0  0  0  0  0
   98.4773   13.1606   25.4415 H   0  0  0  0  0  0  0  0  0  0  0  0
   97.9495   15.1645   23.3997 H   0  0  0  0  0  0  0  0  0  0  0  0
   97.5500   15.3327   24.9741 H   0  0  0  0  0  0  0  0  0  0  0  0
   99.9324   15.8893   19.8735 H   0  0  0  0  0  0  0  0  0  0  0  0
  104.4310   17.3454   21.3896 H   0  0  0  0  0  0  0  0  0  0  0  0
  1 15  2  0  0  0  0
  2  8  1  0  0  0  0
  2 13  1  0  0  0  0
  3 10  1  0  0  0  0
  3 14  1  0  0  0  0
  4 14  1  0  0  0  0
  4 15  1  0  0  0  0
  5 13  1  0  0  0  0
  5 16  1  0  0  0  0
  6 13  2  0  0  0  0
  6 17  1  0  0  0  0
  7 14  2  0  0  0  0
  7 18  1  0  0  0  0
  9 10  1  0  0  0  0
 11 16  1  0  0  0  0
 11 18  2  0  0  0  0
 12 17  1  0  0  0  0
 12 19  2  0  0  0  0
 15 19  1  0  0  0  0
 16 17  2  0  0  0  0
 18 19  1  0  0  0  0
  2 20  1  0  0  0  0
  3 21  1  0  0  0  0
  4 22  1  0  0  0  0
  5 23  1  0  0  0  0
  8 24  1  0  0  0  0
  8 25  1  0  0  0  0
  8 26  1  0  0  0  0
  9 27  1  0  0  0  0
  9 28  1  0  0  0  0
  9 29  1  0  0  0  0
 10 30  1  0  0  0  0
 10 31  1  0  0  0  0
 11 32  1  0  0  0  0
 12 33  1  0  0  0  0
M  END
> <pdb_id>
3TLL

> <uniprot_id>
P28720

> <usmiles>
O=C1NC(=Nc2c1cc3N=C(Nc3c2)NC)NCC

$$$$
62G_A_201
          07212401333D 1   1.00000     0.00000     0
            
 42 45  0  0  0  0            999 V2000
  -16.7140  -21.9790  -13.0760 Cl  0  0  0  0  0  0  0  0  0  0  0  0
  -12.1084  -24.9510  -19.2356 O   0  0  0  0  0  0  0  0  0  0  0  0
  -15.8234  -23.6161  -22.1445 O   0  0  0  0  0  0  0  0  0  0  0  0
  -13.0528  -26.9170  -19.8631 N   0  0  0  0  0  0  0  0  0  0  0  0
  -16.8065  -22.8088  -22.7023 N   0  0  0  0  0  0  0  0  0  0  0  0
  -14.5129  -23.4384  -19.1779 N   0  0  0  0  0  0  0  0  0  0  0  0
  -17.4726  -20.4700  -22.6909 C   0  0  0  0  0  0  0  0  0  0  0  0
  -13.5171  -18.7489  -18.8407 C   0  0  0  0  0  0  0  0  0  0  0  0
  -13.9385  -18.3702  -20.1012 C   0  0  0  0  0  0  0  0  0  0  0  0
  -15.4824  -23.2787  -15.1261 C   0  0  0  0  0  0  0  0  0  0  0  0
  -16.2313  -21.0254  -15.5130 C   0  0  0  0  0  0  0  0  0  0  0  0
  -13.7693  -20.0355  -18.3857 C   0  0  0  0  0  0  0  0  0  0  0  0
  -14.6045  -19.2627  -20.9149 C   0  0  0  0  0  0  0  0  0  0  0  0
  -14.9942  -23.3339  -16.4244 C   0  0  0  0  0  0  0  0  0  0  0  0
  -15.7620  -21.0842  -16.8077 C   0  0  0  0  0  0  0  0  0  0  0  0
  -13.7857  -24.9349  -20.9596 C   0  0  0  0  0  0  0  0  0  0  0  0
  -12.9038  -25.5669  -19.9255 C   0  0  0  0  0  0  0  0  0  0  0  0
  -16.0970  -22.1143  -14.6843 C   0  0  0  0  0  0  0  0  0  0  0  0
  -15.0665  -22.8536  -21.3266 C   0  0  0  0  0  0  0  0  0  0  0  0
  -16.5730  -21.5595  -22.2638 C   0  0  0  0  0  0  0  0  0  0  0  0
  -14.0080  -23.4908  -20.5446 C   0  0  1  0  0  0  0  0  0  0  0  0
  -14.6665  -22.2694  -18.6369 C   0  0  0  0  0  0  0  0  0  0  0  0
  -15.1474  -22.2346  -17.2451 C   0  0  0  0  0  0  0  0  0  0  0  0
  -14.3937  -20.9383  -19.2226 C   0  0  0  0  0  0  0  0  0  0  0  0
  -14.8549  -20.5607  -20.4757 C   0  0  0  0  0  0  0  0  0  0  0  0
  -15.4762  -21.5412  -21.3635 C   0  0  0  0  0  0  0  0  0  0  0  0
  -13.7200  -27.3741  -20.4511 H   0  0  0  0  0  0  0  0  0  0  0  0
  -12.4950  -27.4528  -19.2292 H   0  0  0  0  0  0  0  0  0  0  0  0
  -17.1692  -19.6084  -22.2840 H   0  0  0  0  0  0  0  0  0  0  0  0
  -17.4529  -20.3931  -23.6878 H   0  0  0  0  0  0  0  0  0  0  0  0
  -18.4051  -20.6705  -22.3904 H   0  0  0  0  0  0  0  0  0  0  0  0
  -13.0316  -18.0974  -18.2577 H   0  0  0  0  0  0  0  0  0  0  0  0
  -13.7590  -17.4416  -20.4260 H   0  0  0  0  0  0  0  0  0  0  0  0
  -15.3927  -24.0668  -14.5171 H   0  0  0  0  0  0  0  0  0  0  0  0
  -16.6691  -20.1915  -15.1768 H   0  0  0  0  0  0  0  0  0  0  0  0
  -13.5015  -20.3058  -17.4609 H   0  0  0  0  0  0  0  0  0  0  0  0
  -14.9087  -18.9769  -21.8236 H   0  0  0  0  0  0  0  0  0  0  0  0
  -14.5381  -24.1581  -16.7602 H   0  0  0  0  0  0  0  0  0  0  0  0
  -15.8668  -20.3012  -17.4208 H   0  0  0  0  0  0  0  0  0  0  0  0
  -14.6609  -25.4167  -21.0032 H   0  0  0  0  0  0  0  0  0  0  0  0
  -13.3415  -24.9689  -21.8548 H   0  0  0  0  0  0  0  0  0  0  0  0
  -13.1571  -22.9713  -20.6218 H   0  0  0  0  0  0  0  0  0  0  0  0
  1 18  1  0  0  0  0
  2 17  2  0  0  0  0
  3  5  1  0  0  0  0
  3 19  1  0  0  0  0
  4 17  1  0  0  0  0
  5 20  2  0  0  0  0
  6 21  1  0  0  0  0
  6 22  2  0  0  0  0
  7 20  1  0  0  0  0
  8  9  2  0  0  0  0
  8 12  1  0  0  0  0
  9 13  1  0  0  0  0
 10 14  1  0  0  0  0
 10 18  2  0  0  0  0
 11 15  2  0  0  0  0
 11 18  1  0  0  0  0
 12 24  2  0  0  0  0
 13 25  2  0  0  0  0
 14 23  2  0  0  0  0
 15 23  1  0  0  0  0
 16 17  1  0  0  0  0
 16 21  1  0  0  0  0
 19 21  1  0  0  0  0
 19 26  2  0  0  0  0
 20 26  1  0  0  0  0
 22 23  1  0  0  0  0
 22 24  1  0  0  0  0
 24 25  1  0  0  0  0
 25 26  1  0  0  0  0
  4 27  1  0  0  0  0
  4 28  1  0  0  0  0
  7 29  1  0  0  0  0
  7 30  1  0  0  0  0
  7 31  1  0  0  0  0
  8 32  1  0  0  0  0
  9 33  1  0  0  0  0
 10 34  1  0  0  0  0
 11 35  1  0  0  0  0
 12 36  1  0  0  0  0
 13 37  1  0  0  0  0
 14 38  1  0  0  0  0
 15 39  1  0  0  0  0
 16 40  1  0  0  0  0
 16 41  1  0  0  0  0
 21 42  1  0  0  0  0
M  END
> <pdb_id>
5HLS

> <uniprot_id>
O60885

> <usmiles>
Clc1ccc(cc1)C2=N[C@H](C=3ON=C(C3c4c2cccc4)C)CC(=O)N

$$$$
62K_A_301
          07192421083D 1   1.00000     0.00000     0
            
 49 51  0  0  0  0            999 V2000
    6.9345   23.8360    7.4029 S   0  0  0  0  0  0  0  0  0  0  0  0
    7.4008   23.3995    6.0590 O   0  0  0  0  0  0  0  0  0  0  0  0
    8.0627   24.4886    8.0927 O   0  0  0  0  0  0  0  0  0  0  0  0
   -4.1744   28.2716   11.0396 O   0  0  0  0  0  0  0  0  0  0  0  0
    2.0511   30.5423    6.2007 O   0  0  0  0  0  0  0  0  0  0  0  0
   -2.5461   26.7091   10.8397 O   0  0  0  0  0  0  0  0  0  0  0  0
    6.4033   22.5776    8.2636 N   0  0  0  0  0  0  0  0  0  0  0  0
    2.7982   28.0140    6.9639 N   0  0  0  0  0  0  0  0  0  0  0  0
    1.6994   28.0275    7.5742 N   0  0  0  0  0  0  0  0  0  0  0  0
    0.1394   31.1831    7.2846 N   0  0  0  0  0  0  0  0  0  0  0  0
   -1.0990   24.8300   12.4698 C   0  0  0  0  0  0  0  0  0  0  0  0
   -2.1361   23.9242   10.3694 C   0  0  0  0  0  0  0  0  0  0  0  0
   -3.3149   25.7558   11.6305 C   0  0  0  0  0  0  0  0  0  0  0  0
    5.7195   25.9484    6.1944 C   0  0  0  0  0  0  0  0  0  0  0  0
    4.6452   25.0935    8.1938 C   0  0  0  0  0  0  0  0  0  0  0  0
    4.7391   26.9549    6.1096 C   0  0  0  0  0  0  0  0  0  0  0  0
    3.6795   26.0980    8.0978 C   0  0  0  0  0  0  0  0  0  0  0  0
   -1.9316   31.0382    8.6865 C   0  0  0  0  0  0  0  0  0  0  0  0
   -2.6614   30.2157    9.5566 C   0  0  0  0  0  0  0  0  0  0  0  0
   -1.0450   28.4168    9.1794 C   0  0  0  0  0  0  0  0  0  0  0  0
   -3.0587   27.9456   10.6336 C   0  0  0  0  0  0  0  0  0  0  0  0
    5.6685   25.0262    7.2453 C   0  0  0  0  0  0  0  0  0  0  0  0
    1.0847   30.3014    6.9310 C   0  0  0  0  0  0  0  0  0  0  0  0
   -2.4290   24.5049   11.7498 C   0  0  0  0  0  0  0  0  0  0  0  0
    3.6825   26.9966    7.0115 C   0  0  0  0  0  0  0  0  0  0  0  0
   -0.7403   30.5674    8.1052 C   0  0  0  0  0  0  0  0  0  0  0  0
    0.8652   29.0885    7.5771 C   0  0  0  0  0  0  0  0  0  0  0  0
   -2.2314   28.8936    9.7619 C   0  0  0  0  0  0  0  0  0  0  0  0
   -0.2935   29.2667    8.3493 C   0  0  0  0  0  0  0  0  0  0  0  0
    6.0956   22.8937    9.1611 H   0  0  0  0  0  0  0  0  0  0  0  0
    5.6408   22.1436    7.7837 H   0  0  0  0  0  0  0  0  0  0  0  0
    3.0322   28.8102    6.4060 H   0  0  0  0  0  0  0  0  0  0  0  0
    0.0928   32.1377    6.9903 H   0  0  0  0  0  0  0  0  0  0  0  0
   -1.2938   25.2103   13.3739 H   0  0  0  0  0  0  0  0  0  0  0  0
   -0.5606   23.9932   12.5691 H   0  0  0  0  0  0  0  0  0  0  0  0
   -0.5830   25.4966   11.9319 H   0  0  0  0  0  0  0  0  0  0  0  0
   -2.9973   23.7150    9.9063 H   0  0  0  0  0  0  0  0  0  0  0  0
   -1.6207   24.5902    9.8301 H   0  0  0  0  0  0  0  0  0  0  0  0
   -1.5983   23.0868   10.4674 H   0  0  0  0  0  0  0  0  0  0  0  0
   -4.1735   25.5323   11.1692 H   0  0  0  0  0  0  0  0  0  0  0  0
   -3.5111   26.1319   12.5361 H   0  0  0  0  0  0  0  0  0  0  0  0
    6.4460   25.8929    5.5096 H   0  0  0  0  0  0  0  0  0  0  0  0
    4.6043   24.4262    8.9375 H   0  0  0  0  0  0  0  0  0  0  0  0
    4.8037   27.6481    5.3919 H   0  0  0  0  0  0  0  0  0  0  0  0
    2.9790   26.1807    8.8067 H   0  0  0  0  0  0  0  0  0  0  0  0
   -2.2583   31.9602    8.4790 H   0  0  0  0  0  0  0  0  0  0  0  0
   -3.4744   30.5641   10.0233 H   0  0  0  0  0  0  0  0  0  0  0  0
   -0.7380   27.4812    9.3537 H   0  0  0  0  0  0  0  0  0  0  0  0
   -2.9202   23.8180   12.2854 H   0  0  0  0  0  0  0  0  0  0  0  0
  1  2  2  0  0  0  0
  1  3  2  0  0  0  0
  1  7  1  0  0  0  0
  1 22  1  0  0  0  0
  4 21  2  0  0  0  0
  5 23  2  0  0  0  0
  6 13  1  0  0  0  0
  6 21  1  0  0  0  0
  8  9  1  0  0  0  0
  8 25  1  0  0  0  0
  9 27  2  0  0  0  0
 10 23  1  0  0  0  0
 10 26  1  0  0  0  0
 11 24  1  0  0  0  0
 12 24  1  0  0  0  0
 13 24  1  0  0  0  0
 14 16  1  0  0  0  0
 14 22  2  0  0  0  0
 15 17  2  0  0  0  0
 15 22  1  0  0  0  0
 16 25  2  0  0  0  0
 17 25  1  0  0  0  0
 18 19  1  0  0  0  0
 18 26  2  0  0  0  0
 19 28  2  0  0  0  0
 20 28  1  0  0  0  0
 20 29  2  0  0  0  0
 21 28  1  0  0  0  0
 23 27  1  0  0  0  0
 26 29  1  0  0  0  0
 27 29  1  0  0  0  0
  7 30  1  0  0  0  0
  7 31  1  0  0  0  0
  8 32  1  0  0  0  0
 10 33  1  0  0  0  0
 11 34  1  0  0  0  0
 11 35  1  0  0  0  0
 11 36  1  0  0  0  0
 12 37  1  0  0  0  0
 12 38  1  0  0  0  0
 12 39  1  0  0  0  0
 13 40  1  0  0  0  0
 13 41  1  0  0  0  0
 14 42  1  0  0  0  0
 15 43  1  0  0  0  0
 16 44  1  0  0  0  0
 17 45  1  0  0  0  0
 18 46  1  0  0  0  0
 19 47  1  0  0  0  0
 20 48  1  0  0  0  0
 24 49  1  0  0  0  0
M  END
> <pdb_id>
4FKW

> <uniprot_id>
P24941

> <usmiles>
S(=O)(=O)(N)c1ccc(NN=C2c3c(NC2=O)ccc(c3)C(=O)OCC(C)C)cc1

$$$$
62P_A_600
          07202404503D 1   1.00000     0.00000     0
            
 30 32  0  0  0  0            999 V2000
   64.0652   -2.9035   32.8487 Cl  0  0  0  0  0  0  0  0  0  0  0  0
   65.5515   -8.1517   38.5639 S   0  0  0  0  0  0  0  0  0  0  0  0
   66.9806   -7.9705   38.7669 O   0  0  0  0  0  0  0  0  0  0  0  0
   64.8674   -9.3949   38.3092 O   0  0  0  0  0  0  0  0  0  0  0  0
   62.7853   -5.8878   42.9866 O   0  0  0  0  0  0  0  0  0  0  0  0
   63.8527   -7.1844   36.7240 O   0  0  0  0  0  0  0  0  0  0  0  0
   63.6905   -6.7287   39.7555 N   0  0  0  0  0  0  0  0  0  0  0  0
   63.0118   -6.2204   40.7950 N   0  0  0  0  0  0  0  0  0  0  0  0
   67.3003   -5.7421   37.0215 C   0  0  0  0  0  0  0  0  0  0  0  0
   65.3476   -7.5671   41.2813 C   0  0  0  0  0  0  0  0  0  0  0  0
   62.7849   -4.8918   34.0785 C   0  0  0  0  0  0  0  0  0  0  0  0
   64.6629   -7.0647   42.3197 C   0  0  0  0  0  0  0  0  0  0  0  0
   62.6649   -5.9435   34.9997 C   0  0  0  0  0  0  0  0  0  0  0  0
   65.1400   -4.4340   34.7650 C   0  0  0  0  0  0  0  0  0  0  0  0
   65.0979   -7.0723   37.2132 C   0  0  0  0  0  0  0  0  0  0  0  0
   64.7713   -7.3497   39.9360 C   0  0  0  0  0  0  0  0  0  0  0  0
   63.9943   -4.1955   34.0024 C   0  0  0  0  0  0  0  0  0  0  0  0
   63.4035   -6.3439   42.0320 C   0  0  0  0  0  0  0  0  0  0  0  0
   63.8144   -6.1811   35.7714 C   0  0  0  0  0  0  0  0  0  0  0  0
   65.8777   -6.1228   36.7002 C   0  0  0  0  0  0  0  0  0  0  0  0
   64.9892   -5.4822   35.6736 C   0  0  0  0  0  0  0  0  0  0  0  0
   62.1642   -5.7225   40.6119 H   0  0  0  0  0  0  0  0  0  0  0  0
   67.5795   -4.9765   36.4419 H   0  0  0  0  0  0  0  0  0  0  0  0
   67.3645   -5.4734   37.9826 H   0  0  0  0  0  0  0  0  0  0  0  0
   67.9007   -6.5239   36.8532 H   0  0  0  0  0  0  0  0  0  0  0  0
   66.2057   -8.0642   41.4101 H   0  0  0  0  0  0  0  0  0  0  0  0
   62.0179   -4.6446   33.4864 H   0  0  0  0  0  0  0  0  0  0  0  0
   64.9929   -7.1738   43.2574 H   0  0  0  0  0  0  0  0  0  0  0  0
   61.8275   -6.4812   35.0990 H   0  0  0  0  0  0  0  0  0  0  0  0
   65.9840   -3.9063   34.6693 H   0  0  0  0  0  0  0  0  0  0  0  0
  1 17  1  0  0  0  0
  2  3  2  0  0  0  0
  2  4  2  0  0  0  0
  2 15  1  0  0  0  0
  2 16  1  0  0  0  0
  5 18  2  0  0  0  0
  6 15  1  0  0  0  0
  6 19  1  0  0  0  0
  7  8  1  0  0  0  0
  7 16  2  0  0  0  0
  8 18  1  0  0  0  0
  9 20  1  0  0  0  0
 10 12  2  0  0  0  0
 10 16  1  0  0  0  0
 11 13  1  0  0  0  0
 11 17  2  0  0  0  0
 12 18  1  0  0  0  0
 13 19  2  0  0  0  0
 14 17  1  0  0  0  0
 14 21  2  0  0  0  0
 15 20  2  0  0  0  0
 19 21  1  0  0  0  0
 20 21  1  0  0  0  0
  8 22  1  0  0  0  0
  9 23  1  0  0  0  0
  9 24  1  0  0  0  0
  9 25  1  0  0  0  0
 10 26  1  0  0  0  0
 11 27  1  0  0  0  0
 12 28  1  0  0  0  0
 13 29  1  0  0  0  0
 14 30  1  0  0  0  0
M  END
> <pdb_id>
1Z89

> <uniprot_id>
nan

> <usmiles>
Clc1cc2c(OC(S(=O)(=O)C3=NNC(=O)C=C3)=C2C)cc1

$$$$
62V_A_201
          07212401333D 1   1.00000     0.00000     0
            
 35 38  0  0  0  0            999 V2000
  -16.6498  -22.2630  -13.2172 Cl  0  0  0  0  0  0  0  0  0  0  0  0
  -16.0220  -23.5859  -22.4658 O   0  0  0  0  0  0  0  0  0  0  0  0
  -16.8926  -22.6770  -22.9811 N   0  0  0  0  0  0  0  0  0  0  0  0
  -14.5197  -23.5138  -19.4100 N   0  0  0  0  0  0  0  0  0  0  0  0
  -17.3685  -20.2604  -22.7392 C   0  0  0  0  0  0  0  0  0  0  0  0
  -14.2344  -23.7102  -20.8391 C   0  0  0  0  0  0  0  0  0  0  0  0
  -13.4604  -18.8016  -19.2738 C   0  0  0  0  0  0  0  0  0  0  0  0
  -14.0373  -18.4619  -20.4892 C   0  0  0  0  0  0  0  0  0  0  0  0
  -15.3168  -23.5283  -15.3249 C   0  0  0  0  0  0  0  0  0  0  0  0
  -16.1441  -21.2680  -15.6397 C   0  0  0  0  0  0  0  0  0  0  0  0
  -13.6573  -20.0777  -18.7250 C   0  0  0  0  0  0  0  0  0  0  0  0
  -14.6779  -19.4765  -21.2381 C   0  0  0  0  0  0  0  0  0  0  0  0
  -14.8075  -23.4988  -16.6430 C   0  0  0  0  0  0  0  0  0  0  0  0
  -15.5944  -21.2297  -16.9070 C   0  0  0  0  0  0  0  0  0  0  0  0
  -15.9991  -22.3986  -14.8844 C   0  0  0  0  0  0  0  0  0  0  0  0
  -15.1922  -22.9564  -21.5688 C   0  0  0  0  0  0  0  0  0  0  0  0
  -16.5515  -21.5050  -22.4034 C   0  0  0  0  0  0  0  0  0  0  0  0
  -14.5045  -22.3243  -18.7665 C   0  0  0  0  0  0  0  0  0  0  0  0
  -14.9809  -22.3541  -17.4348 C   0  0  0  0  0  0  0  0  0  0  0  0
  -14.3326  -21.0820  -19.4412 C   0  0  0  0  0  0  0  0  0  0  0  0
  -14.8814  -20.7669  -20.7081 C   0  0  0  0  0  0  0  0  0  0  0  0
  -15.5425  -21.6875  -21.4876 C   0  0  0  0  0  0  0  0  0  0  0  0
  -17.0009  -19.4757  -22.2402 H   0  0  0  0  0  0  0  0  0  0  0  0
  -17.3181  -20.0838  -23.7222 H   0  0  0  0  0  0  0  0  0  0  0  0
  -18.3220  -20.4063  -22.4753 H   0  0  0  0  0  0  0  0  0  0  0  0
  -14.3112  -24.6794  -21.0732 H   0  0  0  0  0  0  0  0  0  0  0  0
  -13.3118  -23.3881  -21.0513 H   0  0  0  0  0  0  0  0  0  0  0  0
  -12.9005  -18.1321  -18.7857 H   0  0  0  0  0  0  0  0  0  0  0  0
  -14.0010  -17.5217  -20.8278 H   0  0  0  0  0  0  0  0  0  0  0  0
  -15.1923  -24.3261  -14.7350 H   0  0  0  0  0  0  0  0  0  0  0  0
  -16.6417  -20.4788  -15.2796 H   0  0  0  0  0  0  0  0  0  0  0  0
  -13.3112  -20.2766  -17.8081 H   0  0  0  0  0  0  0  0  0  0  0  0
  -14.9937  -19.2739  -22.1651 H   0  0  0  0  0  0  0  0  0  0  0  0
  -14.3241  -24.2932  -17.0106 H   0  0  0  0  0  0  0  0  0  0  0  0
  -15.6396  -20.3877  -17.4447 H   0  0  0  0  0  0  0  0  0  0  0  0
  1 15  1  0  0  0  0
  2  3  1  0  0  0  0
  2 16  1  0  0  0  0
  3 17  2  0  0  0  0
  4  6  1  0  0  0  0
  4 18  2  0  0  0  0
  5 17  1  0  0  0  0
  6 16  1  0  0  0  0
  7  8  2  0  0  0  0
  7 11  1  0  0  0  0
  8 12  1  0  0  0  0
  9 13  1  0  0  0  0
  9 15  2  0  0  0  0
 10 14  2  0  0  0  0
 10 15  1  0  0  0  0
 11 20  2  0  0  0  0
 12 21  2  0  0  0  0
 13 19  2  0  0  0  0
 14 19  1  0  0  0  0
 16 22  2  0  0  0  0
 17 22  1  0  0  0  0
 18 19  1  0  0  0  0
 18 20  1  0  0  0  0
 20 21  1  0  0  0  0
 21 22  1  0  0  0  0
  5 23  1  0  0  0  0
  5 24  1  0  0  0  0
  5 25  1  0  0  0  0
  6 26  1  0  0  0  0
  6 27  1  0  0  0  0
  7 28  1  0  0  0  0
  8 29  1  0  0  0  0
  9 30  1  0  0  0  0
 10 31  1  0  0  0  0
 11 32  1  0  0  0  0
 12 33  1  0  0  0  0
 13 34  1  0  0  0  0
 14 35  1  0  0  0  0
M  END
> <pdb_id>
5HM0

> <uniprot_id>
O60885

> <usmiles>
Clc1ccc(cc1)C2=NCC=3ON=C(C3c4c2cccc4)C

$$$$
636_A_404
          07202415313D 1   1.00000     0.00000     0
            
 36 37  0  0  0  0            999 V2000
    5.0370  -26.8910   33.2740 O   0  0  0  0  0  0  0  0  0  0  0  0
    4.8000  -24.7580   33.6710 O   0  0  0  0  0  0  0  0  0  0  0  0
    4.3200  -31.6260   34.1030 O   0  0  0  0  0  0  0  0  0  0  0  0
    4.8890  -29.8660   32.9480 O   0  0  0  0  0  0  0  0  0  0  0  0
    2.7010  -28.1110   33.0000 N   0  0  0  0  0  0  0  0  0  0  0  0
   -0.6160  -26.8970   36.5310 C   0  0  0  0  0  0  0  0  0  0  0  0
   -0.0060  -27.9720   31.7950 C   0  0  0  0  0  0  0  0  0  0  0  0
    0.6980  -31.6590   31.8510 C   0  0  0  0  0  0  0  0  0  0  0  0
    0.0820  -30.4330   31.6730 C   0  0  0  0  0  0  0  0  0  0  0  0
    1.4890  -25.6100   36.1910 C   0  0  0  0  0  0  0  0  0  0  0  0
    1.9640  -31.7180   32.4050 C   0  0  0  0  0  0  0  0  0  0  0  0
    2.6890  -25.3800   35.5320 C   0  0  0  0  0  0  0  0  0  0  0  0
    1.0710  -27.4990   34.7760 C   0  0  0  0  0  0  0  0  0  0  0  0
    4.3740  -25.9430   33.7750 C   0  0  0  0  0  0  0  0  0  0  0  0
    4.0050  -30.6840   33.3320 C   0  0  0  0  0  0  0  0  0  0  0  0
    2.2700  -27.2750   34.0960 C   0  0  0  0  0  0  0  0  0  0  0  0
    0.6770  -26.6670   35.8090 C   0  0  0  0  0  0  0  0  0  0  0  0
    2.0040  -29.3100   32.6110 C   0  0  0  0  0  0  0  0  0  0  0  0
    0.7250  -29.2580   32.0430 C   0  0  0  0  0  0  0  0  0  0  0  0
    3.0800  -26.2070   34.4850 C   0  0  0  0  0  0  0  0  0  0  0  0
    2.6240  -30.5550   32.7840 C   0  0  0  0  0  0  0  0  0  0  0  0
    4.7042  -27.8307   33.3535 H   0  0  0  0  0  0  0  0  0  0  0  0
    3.6240  -32.2754   34.4093 H   0  0  0  0  0  0  0  0  0  0  0  0
    3.5187  -27.8460   32.4891 H   0  0  0  0  0  0  0  0  0  0  0  0
   -1.0801  -27.6912   36.1387 H   0  0  0  0  0  0  0  0  0  0  0  0
   -0.4318  -27.0634   37.4997 H   0  0  0  0  0  0  0  0  0  0  0  0
   -1.1988  -26.0899   36.4363 H   0  0  0  0  0  0  0  0  0  0  0  0
    0.5567  -27.2043   32.1016 H   0  0  0  0  0  0  0  0  0  0  0  0
   -0.1934  -27.8783   30.8172 H   0  0  0  0  0  0  0  0  0  0  0  0
   -0.8686  -27.9760   32.3008 H   0  0  0  0  0  0  0  0  0  0  0  0
    0.2294  -32.4998   31.5800 H   0  0  0  0  0  0  0  0  0  0  0  0
   -0.8342  -30.3921   31.2745 H   0  0  0  0  0  0  0  0  0  0  0  0
    1.2097  -25.0123   36.9425 H   0  0  0  0  0  0  0  0  0  0  0  0
    2.4081  -32.6047   32.5339 H   0  0  0  0  0  0  0  0  0  0  0  0
    3.2734  -24.6180   35.8109 H   0  0  0  0  0  0  0  0  0  0  0  0
    0.4904  -28.2697   34.5133 H   0  0  0  0  0  0  0  0  0  0  0  0
  1 14  1  0  0  0  0
  2 14  2  0  0  0  0
  3 15  1  0  0  0  0
  4 15  2  0  0  0  0
  5 16  1  0  0  0  0
  5 18  1  0  0  0  0
  6 17  1  0  0  0  0
  7 19  1  0  0  0  0
  8  9  1  0  0  0  0
  8 11  2  0  0  0  0
  9 19  2  0  0  0  0
 10 12  1  0  0  0  0
 10 17  2  0  0  0  0
 11 21  1  0  0  0  0
 12 20  2  0  0  0  0
 13 16  2  0  0  0  0
 13 17  1  0  0  0  0
 14 20  1  0  0  0  0
 15 21  1  0  0  0  0
 16 20  1  0  0  0  0
 18 19  1  0  0  0  0
 18 21  2  0  0  0  0
  1 22  1  0  0  0  0
  3 23  1  0  0  0  0
  5 24  1  0  0  0  0
  6 25  1  0  0  0  0
  6 26  1  0  0  0  0
  6 27  1  0  0  0  0
  7 28  1  0  0  0  0
  7 29  1  0  0  0  0
  7 30  1  0  0  0  0
  8 31  1  0  0  0  0
  9 32  1  0  0  0  0
 10 33  1  0  0  0  0
 11 34  1  0  0  0  0
 12 35  1  0  0  0  0
 13 36  1  0  0  0  0
M  END
> <pdb_id>
4GIU

> <uniprot_id>
P66992

> <usmiles>
O=C(O)c1c(Nc2c(ccc(c2)C)C(=O)O)c(ccc1)C

$$$$
637_A_228
          07202404193D 1   1.00000     0.00000     0
            
 62 66  0  0  0  0            999 V2000
    0.7100    7.1280   18.3450 F   0  0  0  0  0  0  0  0  0  0  0  0
   -2.6650   13.8920   14.6020 O   0  0  0  0  0  0  0  0  0  0  0  0
    3.3020   13.9580   13.7300 O   0  0  0  0  0  0  0  0  0  0  0  0
   -5.6940   21.8020   15.9520 O   0  0  0  0  0  0  0  0  0  0  0  0
    1.0200   15.3210   13.2110 O   0  0  0  0  0  0  0  0  0  0  0  0
   -2.8750   21.6380   16.2560 O   0  0  0  0  0  0  0  0  0  0  0  0
   -3.3990   20.6230   13.4490 O   0  0  0  0  0  0  0  0  0  0  0  0
   -1.5760   15.6450   13.6800 N   0  0  0  0  0  0  0  0  0  0  0  0
   -5.8100   23.4560   11.9050 N   0  0  0  0  0  0  0  0  0  0  0  0
   -7.3920   23.5200   10.1170 N   0  0  0  0  0  0  0  0  0  0  0  0
   -7.0700   20.1570   11.5080 N   0  0  0  0  0  0  0  0  0  0  0  0
   -5.6170   21.1970   12.8620 N   0  0  0  0  0  0  0  0  0  0  0  0
   -8.7350   21.6300    9.2800 C   0  0  0  0  0  0  0  0  0  0  0  0
   -6.4840   24.1120   10.9600 C   0  0  0  0  0  0  0  0  0  0  0  0
   -6.2490   19.9830   12.4920 C   0  0  0  0  0  0  0  0  0  0  0  0
   -2.8960   16.2620   13.5590 C   0  0  0  0  0  0  0  0  0  0  0  0
   -2.5710   17.6950   13.7340 C   0  0  0  0  0  0  0  0  0  0  0  0
   -0.1850    9.3640   18.0230 C   0  0  0  0  0  0  0  0  0  0  0  0
    1.5960    8.3670   16.6280 C   0  0  0  0  0  0  0  0  0  0  0  0
   -3.2600   18.4530   14.5480 C   0  0  0  0  0  0  0  0  0  0  0  0
   -0.1400   10.5370   17.2750 C   0  0  0  0  0  0  0  0  0  0  0  0
    1.6050    9.5480   15.8740 C   0  0  0  0  0  0  0  0  0  0  0  0
    2.0970   12.2920   14.9480 C   0  0  0  0  0  0  0  0  0  0  0  0
   -0.3280   12.5350   15.1860 C   0  0  0  0  0  0  0  0  0  0  0  0
   -1.6050   14.3830   14.2030 C   0  0  0  0  0  0  0  0  0  0  0  0
    0.6690    8.3320   17.6380 C   0  0  0  0  0  0  0  0  0  0  0  0
    2.0780   13.4830   14.2130 C   0  0  0  0  0  0  0  0  0  0  0  0
   -4.5520   21.3580   13.8700 C   0  0  1  0  0  0  0  0  0  0  0  0
   -4.9640   20.7930   15.2380 C   0  0  1  0  0  0  0  0  0  0  0  0
    0.8980   14.1650   13.9150 C   0  0  0  0  0  0  0  0  0  0  0  0
   -3.6080   20.4670   15.8680 C   0  0  1  0  0  0  0  0  0  0  0  0
   -6.1200   22.1500   11.9970 C   0  0  0  0  0  0  0  0  0  0  0  0
   -2.9100   19.9120   14.6360 C   0  0  2  0  0  0  0  0  0  0  0  0
   -7.6780   22.2130   10.1960 C   0  0  0  0  0  0  0  0  0  0  0  0
   -6.9880   21.4640   11.1670 C   0  0  0  0  0  0  0  0  0  0  0  0
    0.7630   10.5780   16.2320 C   0  0  0  0  0  0  0  0  0  0  0  0
    0.8530   11.8320   15.4240 C   0  0  0  0  0  0  0  0  0  0  0  0
   -0.3160   13.7300   14.4410 C   0  0  0  0  0  0  0  0  0  0  0  0
    3.3355   14.8053   13.1999 H   0  0  0  0  0  0  0  0  0  0  0  0
   -5.9681   21.4458   16.8453 H   0  0  0  0  0  0  0  0  0  0  0  0
    0.2052   15.8487   12.9712 H   0  0  0  0  0  0  0  0  0  0  0  0
   -2.0015   21.3659   16.6597 H   0  0  0  0  0  0  0  0  0  0  0  0
   -0.7309   16.1038   13.4056 H   0  0  0  0  0  0  0  0  0  0  0  0
   -8.8300   20.6511    9.4612 H   0  0  0  0  0  0  0  0  0  0  0  0
   -9.6091   22.0862    9.4468 H   0  0  0  0  0  0  0  0  0  0  0  0
   -8.4635   21.7679    8.3275 H   0  0  0  0  0  0  0  0  0  0  0  0
   -6.3185   25.0930   10.8592 H   0  0  0  0  0  0  0  0  0  0  0  0
   -6.0811   19.1029   12.9360 H   0  0  0  0  0  0  0  0  0  0  0  0
   -3.5169   15.9387   14.2731 H   0  0  0  0  0  0  0  0  0  0  0  0
   -3.3001   16.0864   12.6613 H   0  0  0  0  0  0  0  0  0  0  0  0
   -1.8102   18.0916   13.2203 H   0  0  0  0  0  0  0  0  0  0  0  0
   -0.8033    9.2660   18.8028 H   0  0  0  0  0  0  0  0  0  0  0  0
    2.2188    7.6067   16.4435 H   0  0  0  0  0  0  0  0  0  0  0  0
   -4.0020   18.0706   15.0986 H   0  0  0  0  0  0  0  0  0  0  0  0
   -0.7342   11.3138   17.4836 H   0  0  0  0  0  0  0  0  0  0  0  0
    2.2143    9.6420   15.0867 H   0  0  0  0  0  0  0  0  0  0  0  0
    2.9464   11.7950   15.1255 H   0  0  0  0  0  0  0  0  0  0  0  0
   -1.1925   12.1867   15.5483 H   0  0  0  0  0  0  0  0  0  0  0  0
   -4.3190   22.3261   13.9619 H   0  0  0  0  0  0  0  0  0  0  0  0
   -5.5144   19.9651   15.1299 H   0  0  0  0  0  0  0  0  0  0  0  0
   -3.6782   19.7953   16.6055 H   0  0  0  0  0  0  0  0  0  0  0  0
   -1.9200   20.0242   14.7212 H   0  0  0  0  0  0  0  0  0  0  0  0
  1 26  1  0  0  0  0
  2 25  2  0  0  0  0
  3 27  1  0  0  0  0
  4 29  1  0  0  0  0
  5 30  1  0  0  0  0
  6 31  1  0  0  0  0
  7 28  1  0  0  0  0
  7 33  1  0  0  0  0
  8 16  1  0  0  0  0
  8 25  1  0  0  0  0
  9 14  2  0  0  0  0
  9 32  1  0  0  0  0
 10 14  1  0  0  0  0
 10 34  2  0  0  0  0
 11 15  2  0  0  0  0
 11 35  1  0  0  0  0
 12 15  1  0  0  0  0
 12 28  1  0  0  0  0
 12 32  1  0  0  0  0
 13 34  1  0  0  0  0
 16 17  1  0  0  0  0
 17 20  2  0  0  0  0
 18 21  1  0  0  0  0
 18 26  2  0  0  0  0
 19 22  2  0  0  0  0
 19 26  1  0  0  0  0
 20 33  1  0  0  0  0
 21 36  2  0  0  0  0
 22 36  1  0  0  0  0
 23 27  1  0  0  0  0
 23 37  2  0  0  0  0
 24 37  1  0  0  0  0
 24 38  2  0  0  0  0
 25 38  1  0  0  0  0
 27 30  2  0  0  0  0
 28 29  1  0  0  0  0
 29 31  1  0  0  0  0
 30 38  1  0  0  0  0
 31 33  1  0  0  0  0
 32 35  2  0  0  0  0
 34 35  1  0  0  0  0
 36 37  1  0  0  0  0
  3 39  1  0  0  0  0
  4 40  1  0  0  0  0
  5 41  1  0  0  0  0
  6 42  1  0  0  0  0
  8 43  1  0  0  0  0
 13 44  1  0  0  0  0
 13 45  1  0  0  0  0
 13 46  1  0  0  0  0
 14 47  1  0  0  0  0
 15 48  1  0  0  0  0
 16 49  1  0  0  0  0
 16 50  1  0  0  0  0
 17 51  1  0  0  0  0
 18 52  1  0  0  0  0
 19 53  1  0  0  0  0
 20 54  1  0  0  0  0
 21 55  1  0  0  0  0
 22 56  1  0  0  0  0
 23 57  1  0  0  0  0
 24 58  1  0  0  0  0
 28 59  1  0  0  0  0
 29 60  1  0  0  0  0
 31 61  1  0  0  0  0
 33 62  1  0  0  0  0
M  END
> <pdb_id>
3NW9

> <uniprot_id>
P22734

> <usmiles>
Fc1ccc(c2cc(O)c(O)c(c2)C(=O)NC/C=C/[C@H]3O[C@@H](N4c5ncnc(c5N=C4)C)[C@H](O)[C@@H]3O)cc1

$$$$
64C_A_801
          07202410023D 1   1.00000     0.00000     0
            
 26 28  0  0  0  0            999 V2000
   12.0305   27.1260   25.3903 O   0  0  0  0  0  0  0  0  0  0  0  0
   12.5073   28.4000   23.6953 O   0  0  0  0  0  0  0  0  0  0  0  0
   13.1186   29.6648   21.8076 N   0  0  0  0  0  0  0  0  0  0  0  0
   13.8208   29.4255   20.6155 N   0  0  0  0  0  0  0  0  0  0  0  0
   15.3242   28.6621   18.4911 C   0  0  0  0  0  0  0  0  0  0  0  0
   14.9984   27.5420   19.4664 C   0  0  0  0  0  0  0  0  0  0  0  0
   13.8808   23.7167   23.6802 C   0  0  0  0  0  0  0  0  0  0  0  0
   14.5097   23.8858   22.4336 C   0  0  0  0  0  0  0  0  0  0  0  0
   13.2328   24.7863   24.2909 C   0  0  0  0  0  0  0  0  0  0  0  0
   14.4805   25.1443   21.8066 C   0  0  0  0  0  0  0  0  0  0  0  0
   12.5550   27.1851   24.2903 C   0  0  0  0  0  0  0  0  0  0  0  0
   13.1088   28.5662   22.5058 C   0  0  0  0  0  0  0  0  0  0  0  0
   14.1740   28.1356   20.6347 C   0  0  0  0  0  0  0  0  0  0  0  0
   13.2248   26.0719   23.6789 C   0  0  0  0  0  0  0  0  0  0  0  0
   13.8107   26.2807   22.4020 C   0  0  0  0  0  0  0  0  0  0  0  0
   13.7691   27.5415   21.8245 C   0  0  0  0  0  0  0  0  0  0  0  0
   12.6977   30.5317   22.0749 H   0  0  0  0  0  0  0  0  0  0  0  0
   15.8575   28.2956   17.7287 H   0  0  0  0  0  0  0  0  0  0  0  0
   14.4747   29.0589   18.1434 H   0  0  0  0  0  0  0  0  0  0  0  0
   15.8547   29.3684   18.9599 H   0  0  0  0  0  0  0  0  0  0  0  0
   15.8454   27.1439   19.8187 H   0  0  0  0  0  0  0  0  0  0  0  0
   14.4654   26.8345   19.0023 H   0  0  0  0  0  0  0  0  0  0  0  0
   13.8994   22.8237   24.1299 H   0  0  0  0  0  0  0  0  0  0  0  0
   14.9746   23.1162   21.9960 H   0  0  0  0  0  0  0  0  0  0  0  0
   12.7692   24.6508   25.1665 H   0  0  0  0  0  0  0  0  0  0  0  0
   14.9359   25.2572   20.9235 H   0  0  0  0  0  0  0  0  0  0  0  0
  1 11  2  0  0  0  0
  2 11  1  0  0  0  0
  2 12  1  0  0  0  0
  3  4  1  0  0  0  0
  3 12  1  0  0  0  0
  4 13  2  0  0  0  0
  5  6  1  0  0  0  0
  6 13  1  0  0  0  0
  7  8  2  0  0  0  0
  7  9  1  0  0  0  0
  8 10  1  0  0  0  0
  9 14  2  0  0  0  0
 10 15  2  0  0  0  0
 11 14  1  0  0  0  0
 12 16  2  0  0  0  0
 13 16  1  0  0  0  0
 14 15  1  0  0  0  0
 15 16  1  0  0  0  0
  3 17  1  0  0  0  0
  5 18  1  0  0  0  0
  5 19  1  0  0  0  0
  5 20  1  0  0  0  0
  6 21  1  0  0  0  0
  6 22  1  0  0  0  0
  7 23  1  0  0  0  0
  8 24  1  0  0  0  0
  9 25  1  0  0  0  0
 10 26  1  0  0  0  0
M  END
> <pdb_id>
5HRV

> <uniprot_id>
Q86U86

> <usmiles>
O=C1OC=2NN=C(C2c3c1cccc3)CC

$$$$
64E_A_801
          07202410023D 1   1.00000     0.00000     0
            
 29 31  0  0  0  0            999 V2000
   11.9513   27.0124   25.3237 O   0  0  0  0  0  0  0  0  0  0  0  0
   12.4116   28.3269   23.5963 O   0  0  0  0  0  0  0  0  0  0  0  0
   13.0437   29.6096   21.5800 N   0  0  0  0  0  0  0  0  0  0  0  0
   13.6756   29.3696   20.5564 N   0  0  0  0  0  0  0  0  0  0  0  0
   15.8899   28.1224   17.1842 C   0  0  0  0  0  0  0  0  0  0  0  0
   15.0901   28.6438   18.4032 C   0  0  0  0  0  0  0  0  0  0  0  0
   13.9526   23.7274   23.6034 C   0  0  0  0  0  0  0  0  0  0  0  0
   14.5864   23.9198   22.3878 C   0  0  0  0  0  0  0  0  0  0  0  0
   14.9380   27.5445   19.4401 C   0  0  0  0  0  0  0  0  0  0  0  0
   13.2556   24.7853   24.2002 C   0  0  0  0  0  0  0  0  0  0  0  0
   14.5036   25.1827   21.7701 C   0  0  0  0  0  0  0  0  0  0  0  0
   12.5071   27.1127   24.2246 C   0  0  0  0  0  0  0  0  0  0  0  0
   13.0048   28.4965   22.3288 C   0  0  0  0  0  0  0  0  0  0  0  0
   14.1302   28.1250   20.5825 C   0  0  0  0  0  0  0  0  0  0  0  0
   13.1942   26.0591   23.5895 C   0  0  0  0  0  0  0  0  0  0  0  0
   13.8270   26.2704   22.3455 C   0  0  0  0  0  0  0  0  0  0  0  0
   13.7083   27.5162   21.7183 C   0  0  0  0  0  0  0  0  0  0  0  0
   12.6274   30.4874   21.8169 H   0  0  0  0  0  0  0  0  0  0  0  0
   15.9833   28.8542   16.5091 H   0  0  0  0  0  0  0  0  0  0  0  0
   16.7972   27.8264   17.4827 H   0  0  0  0  0  0  0  0  0  0  0  0
   15.4056   27.3498   16.7735 H   0  0  0  0  0  0  0  0  0  0  0  0
   14.1841   28.9406   18.1013 H   0  0  0  0  0  0  0  0  0  0  0  0
   15.5757   29.4172   18.8106 H   0  0  0  0  0  0  0  0  0  0  0  0
   13.9923   22.8355   24.0539 H   0  0  0  0  0  0  0  0  0  0  0  0
   15.0943   23.1747   21.9557 H   0  0  0  0  0  0  0  0  0  0  0  0
   15.8371   27.2541   19.7676 H   0  0  0  0  0  0  0  0  0  0  0  0
   14.4589   26.7616   19.0433 H   0  0  0  0  0  0  0  0  0  0  0  0
   12.7930   24.6372   25.0743 H   0  0  0  0  0  0  0  0  0  0  0  0
   14.9463   25.3105   20.8826 H   0  0  0  0  0  0  0  0  0  0  0  0
  1 12  2  0  0  0  0
  2 12  1  0  0  0  0
  2 13  1  0  0  0  0
  3  4  1  0  0  0  0
  3 13  1  0  0  0  0
  4 14  2  0  0  0  0
  5  6  1  0  0  0  0
  6  9  1  0  0  0  0
  7  8  2  0  0  0  0
  7 10  1  0  0  0  0
  8 11  1  0  0  0  0
  9 14  1  0  0  0  0
 10 15  2  0  0  0  0
 11 16  2  0  0  0  0
 12 15  1  0  0  0  0
 13 17  2  0  0  0  0
 14 17  1  0  0  0  0
 15 16  1  0  0  0  0
 16 17  1  0  0  0  0
  3 18  1  0  0  0  0
  5 19  1  0  0  0  0
  5 20  1  0  0  0  0
  5 21  1  0  0  0  0
  6 22  1  0  0  0  0
  6 23  1  0  0  0  0
  7 24  1  0  0  0  0
  8 25  1  0  0  0  0
  9 26  1  0  0  0  0
  9 27  1  0  0  0  0
 10 28  1  0  0  0  0
 11 29  1  0  0  0  0
M  END
> <pdb_id>
5HRW

> <uniprot_id>
Q86U86

> <usmiles>
O=C1OC=2NN=C(C2c3c1cccc3)CCC

$$$$
64F_A_803
          07202410023D 1   1.00000     0.00000     0
            
 32 34  0  0  0  0            999 V2000
   11.8996   27.0111   25.1561 O   0  0  0  0  0  0  0  0  0  0  0  0
   12.3331   28.2369   23.4385 O   0  0  0  0  0  0  0  0  0  0  0  0
   12.8656   29.5460   21.4940 N   0  0  0  0  0  0  0  0  0  0  0  0
   13.5223   29.3485   20.4102 N   0  0  0  0  0  0  0  0  0  0  0  0
   15.7428   29.3393   15.9331 C   0  0  0  0  0  0  0  0  0  0  0  0
   15.8344   28.3145   17.0774 C   0  0  0  0  0  0  0  0  0  0  0  0
   14.8542   28.7202   18.1802 C   0  0  0  0  0  0  0  0  0  0  0  0
   14.0396   23.7308   23.5317 C   0  0  0  0  0  0  0  0  0  0  0  0
   14.6576   23.9362   22.2879 C   0  0  0  0  0  0  0  0  0  0  0  0
   14.8668   27.6335   19.2670 C   0  0  0  0  0  0  0  0  0  0  0  0
   13.3300   24.7966   24.0770 C   0  0  0  0  0  0  0  0  0  0  0  0
   14.5172   25.1628   21.6325 C   0  0  0  0  0  0  0  0  0  0  0  0
   12.4781   27.0929   24.0579 C   0  0  0  0  0  0  0  0  0  0  0  0
   12.8823   28.4413   22.2003 C   0  0  0  0  0  0  0  0  0  0  0  0
   14.0089   28.1315   20.4183 C   0  0  0  0  0  0  0  0  0  0  0  0
   13.1850   26.0443   23.4550 C   0  0  0  0  0  0  0  0  0  0  0  0
   13.8129   26.2762   22.1878 C   0  0  0  0  0  0  0  0  0  0  0  0
   13.6353   27.4946   21.5742 C   0  0  0  0  0  0  0  0  0  0  0  0
   12.4159   30.3997   21.7566 H   0  0  0  0  0  0  0  0  0  0  0  0
   16.3797   29.0844   15.2055 H   0  0  0  0  0  0  0  0  0  0  0  0
   14.8108   29.3521   15.5709 H   0  0  0  0  0  0  0  0  0  0  0  0
   15.9783   30.2474   16.2793 H   0  0  0  0  0  0  0  0  0  0  0  0
   16.7651   28.3008   17.4430 H   0  0  0  0  0  0  0  0  0  0  0  0
   15.5975   27.4054   16.7346 H   0  0  0  0  0  0  0  0  0  0  0  0
   13.9337   28.8054   17.7989 H   0  0  0  0  0  0  0  0  0  0  0  0
   15.1338   29.5954   18.5750 H   0  0  0  0  0  0  0  0  0  0  0  0
   14.1066   22.8535   24.0069 H   0  0  0  0  0  0  0  0  0  0  0  0
   15.1980   23.2053   21.8710 H   0  0  0  0  0  0  0  0  0  0  0  0
   15.8028   27.4757   19.5817 H   0  0  0  0  0  0  0  0  0  0  0  0
   14.4895   26.7819   18.9031 H   0  0  0  0  0  0  0  0  0  0  0  0
   12.8966   24.6640   24.9684 H   0  0  0  0  0  0  0  0  0  0  0  0
   14.9310   25.2670   20.7281 H   0  0  0  0  0  0  0  0  0  0  0  0
  1 13  2  0  0  0  0
  2 13  1  0  0  0  0
  2 14  1  0  0  0  0
  3  4  1  0  0  0  0
  3 14  1  0  0  0  0
  4 15  2  0  0  0  0
  5  6  1  0  0  0  0
  6  7  1  0  0  0  0
  7 10  1  0  0  0  0
  8  9  2  0  0  0  0
  8 11  1  0  0  0  0
  9 12  1  0  0  0  0
 10 15  1  0  0  0  0
 11 16  2  0  0  0  0
 12 17  2  0  0  0  0
 13 16  1  0  0  0  0
 14 18  2  0  0  0  0
 15 18  1  0  0  0  0
 16 17  1  0  0  0  0
 17 18  1  0  0  0  0
  3 19  1  0  0  0  0
  5 20  1  0  0  0  0
  5 21  1  0  0  0  0
  5 22  1  0  0  0  0
  6 23  1  0  0  0  0
  6 24  1  0  0  0  0
  7 25  1  0  0  0  0
  7 26  1  0  0  0  0
  8 27  1  0  0  0  0
  9 28  1  0  0  0  0
 10 29  1  0  0  0  0
 10 30  1  0  0  0  0
 11 31  1  0  0  0  0
 12 32  1  0  0  0  0
M  END
> <pdb_id>
5HRX

> <uniprot_id>
Q86U86

> <usmiles>
O=C1OC=2NN=C(C2c3c1cccc3)CCCC

$$$$
64U_H_901
          07202416143D 1   1.00000     0.00000     0
            
 57 59  0  0  0  0            999 V2000
   16.2230   -8.2974   10.9267 Cl  0  0  0  0  0  0  0  0  0  0  0  0
   12.9720  -13.1217   15.5728 O   0  0  0  0  0  0  0  0  0  0  0  0
   12.2140  -13.4005   12.4848 O   0  0  0  0  0  0  0  0  0  0  0  0
   12.1931  -16.3128   12.2337 N   0  0  0  0  0  0  0  0  0  0  0  0
   13.0319  -11.0374   14.6642 N   0  0  0  0  0  0  0  0  0  0  0  0
   10.6103  -13.5658   14.0382 N   0  0  0  0  0  0  0  0  0  0  0  0
   14.3552  -10.7488   15.2019 C   0  0  0  0  0  0  0  0  0  0  0  0
    9.4974  -14.2559   14.6908 C   0  0  0  0  0  0  0  0  0  0  0  0
    6.3731  -14.1091    9.9181 C   0  0  0  0  0  0  0  0  0  0  0  0
    9.0645  -13.2492   15.7619 C   0  0  0  0  0  0  0  0  0  0  0  0
    7.5591  -13.2763    9.3457 C   0  0  0  0  0  0  0  0  0  0  0  0
    6.6287  -14.4183   11.4242 C   0  0  0  0  0  0  0  0  0  0  0  0
   17.0879  -11.7626   12.7264 C   0  0  0  0  0  0  0  0  0  0  0  0
   17.0969  -10.6894   11.8355 C   0  0  0  0  0  0  0  0  0  0  0  0
    8.8655  -14.0977    9.4488 C   0  0  0  0  0  0  0  0  0  0  0  0
    7.9482  -15.2471   11.5522 C   0  0  0  0  0  0  0  0  0  0  0  0
   16.2091  -11.7813   13.8053 C   0  0  0  0  0  0  0  0  0  0  0  0
   10.0020  -12.0515   15.7261 C   0  0  0  0  0  0  0  0  0  0  0  0
   15.3215   -9.6399   13.1228 C   0  0  0  0  0  0  0  0  0  0  0  0
   10.4284  -15.3119   10.9291 C   0  0  0  0  0  0  0  0  0  0  0  0
   16.2122   -9.6341   12.0416 C   0  0  0  0  0  0  0  0  0  0  0  0
   12.4153  -12.1948   14.9965 C   0  0  0  0  0  0  0  0  0  0  0  0
   11.2941  -14.0784   12.9664 C   0  0  0  0  0  0  0  0  0  0  0  0
   11.0023  -15.4355   12.3645 C   0  0  2  0  0  0  0  0  0  0  0  0
   15.3264  -10.7281   14.0094 C   0  0  0  0  0  0  0  0  0  0  0  0
    9.1406  -14.4816   10.9250 C   0  0  0  0  0  0  0  0  0  0  0  0
   10.9644  -12.2611   14.5591 C   0  0  1  0  0  0  0  0  0  0  0  0
   12.6164  -16.4362   13.1312 H   0  0  0  0  0  0  0  0  0  0  0  0
   11.9137  -17.2022   11.8717 H   0  0  0  0  0  0  0  0  0  0  0  0
   12.5829  -10.3847   14.0539 H   0  0  0  0  0  0  0  0  0  0  0  0
   14.6245  -11.4588   15.8525 H   0  0  0  0  0  0  0  0  0  0  0  0
   14.3540   -9.8599   15.6600 H   0  0  0  0  0  0  0  0  0  0  0  0
    9.7976  -15.1158   15.1035 H   0  0  0  0  0  0  0  0  0  0  0  0
    8.7559  -14.4372   14.0447 H   0  0  0  0  0  0  0  0  0  0  0  0
    6.2942  -14.9674    9.4111 H   0  0  0  0  0  0  0  0  0  0  0  0
    5.5250  -13.5877    9.8249 H   0  0  0  0  0  0  0  0  0  0  0  0
    9.1061  -13.6804   16.6632 H   0  0  0  0  0  0  0  0  0  0  0  0
    8.1287  -12.9477   15.5795 H   0  0  0  0  0  0  0  0  0  0  0  0
    7.6555  -12.4302    9.8700 H   0  0  0  0  0  0  0  0  0  0  0  0
    7.3791  -13.0558    8.3871 H   0  0  0  0  0  0  0  0  0  0  0  0
    5.8635  -14.9457   11.7935 H   0  0  0  0  0  0  0  0  0  0  0  0
    6.7192  -13.5618   11.9324 H   0  0  0  0  0  0  0  0  0  0  0  0
   17.7190  -12.5259   12.5885 H   0  0  0  0  0  0  0  0  0  0  0  0
   17.7290  -10.6780   11.0607 H   0  0  0  0  0  0  0  0  0  0  0  0
    9.6277  -13.5511    9.1021 H   0  0  0  0  0  0  0  0  0  0  0  0
    8.7764  -14.9302    8.9020 H   0  0  0  0  0  0  0  0  0  0  0  0
    7.8340  -16.1207   11.0792 H   0  0  0  0  0  0  0  0  0  0  0  0
    8.1381  -15.4141   12.5197 H   0  0  0  0  0  0  0  0  0  0  0  0
   16.2130  -12.5568   14.4368 H   0  0  0  0  0  0  0  0  0  0  0  0
   10.5126  -11.9911   16.5839 H   0  0  0  0  0  0  0  0  0  0  0  0
    9.4778  -11.2108   15.5904 H   0  0  0  0  0  0  0  0  0  0  0  0
   14.6894   -8.8775   13.2613 H   0  0  0  0  0  0  0  0  0  0  0  0
   10.2297  -16.2261   10.5761 H   0  0  0  0  0  0  0  0  0  0  0  0
   11.1060  -14.8680   10.3427 H   0  0  0  0  0  0  0  0  0  0  0  0
   10.3271  -15.8992   12.9381 H   0  0  0  0  0  0  0  0  0  0  0  0
    9.2966  -13.6451   11.4502 H   0  0  0  0  0  0  0  0  0  0  0  0
   10.7957  -11.5665   13.8597 H   0  0  0  0  0  0  0  0  0  0  0  0
  1 21  1  0  0  0  0
  2 22  2  0  0  0  0
  3 23  2  0  0  0  0
  4 24  1  0  0  0  0
  5  7  1  0  0  0  0
  5 22  1  0  0  0  0
  6  8  1  0  0  0  0
  6 23  1  0  0  0  0
  6 27  1  0  0  0  0
  7 25  1  0  0  0  0
  8 10  1  0  0  0  0
  9 11  1  0  0  0  0
  9 12  1  0  0  0  0
 10 18  1  0  0  0  0
 11 15  1  0  0  0  0
 12 16  1  0  0  0  0
 13 14  2  0  0  0  0
 13 17  1  0  0  0  0
 14 21  1  0  0  0  0
 15 26  1  0  0  0  0
 16 26  1  0  0  0  0
 17 25  2  0  0  0  0
 18 27  1  0  0  0  0
 19 21  2  0  0  0  0
 19 25  1  0  0  0  0
 20 24  1  0  0  0  0
 20 26  1  0  0  0  0
 22 27  1  0  0  0  0
 23 24  1  0  0  0  0
  4 28  1  0  0  0  0
  4 29  1  0  0  0  0
  5 30  1  0  0  0  0
  7 31  1  0  0  0  0
  7 32  1  0  0  0  0
  8 33  1  0  0  0  0
  8 34  1  0  0  0  0
  9 35  1  0  0  0  0
  9 36  1  0  0  0  0
 10 37  1  0  0  0  0
 10 38  1  0  0  0  0
 11 39  1  0  0  0  0
 11 40  1  0  0  0  0
 12 41  1  0  0  0  0
 12 42  1  0  0  0  0
 13 43  1  0  0  0  0
 14 44  1  0  0  0  0
 15 45  1  0  0  0  0
 15 46  1  0  0  0  0
 16 47  1  0  0  0  0
 16 48  1  0  0  0  0
 17 49  1  0  0  0  0
 18 50  1  0  0  0  0
 18 51  1  0  0  0  0
 19 52  1  0  0  0  0
 20 53  1  0  0  0  0
 20 54  1  0  0  0  0
 24 55  1  0  0  0  0
 26 56  1  0  0  0  0
 27 57  1  0  0  0  0
M  END
> <pdb_id>
3DUX

> <uniprot_id>
P00734

> <usmiles>
Clc1cc(ccc1)CNC(=O)[C@H]2N(C(=O)[C@H](N)CC3CCCCC3)CCC2

$$$$
651_B_305
          07202400453D 1   1.00000     0.00000     0
            
 42 45  0  0  0  0            999 V2000
   52.3779   11.3392   52.1796 O   0  0  0  0  0  0  0  0  0  0  0  0
   53.9743    9.0051   51.8176 N   0  0  0  0  0  0  0  0  0  0  0  0
   54.7124    8.5635   52.9739 C   0  0  0  0  0  0  0  0  0  0  0  0
   52.6021    8.9641   52.2202 C   0  0  0  0  0  0  0  0  0  0  0  0
   57.1150   18.8218   53.1662 C   0  0  0  0  0  0  0  0  0  0  0  0
   56.2517   18.3998   52.1968 C   0  0  0  0  0  0  0  0  0  0  0  0
   57.5171   17.9293   54.1243 C   0  0  0  0  0  0  0  0  0  0  0  0
   54.3930   10.3454   51.5998 C   0  0  0  0  0  0  0  0  0  0  0  0
   54.8370    9.6758   54.0175 C   0  0  0  0  0  0  0  0  0  0  0  0
   52.5378    9.3912   53.6585 C   0  0  0  0  0  0  0  0  0  0  0  0
   55.8147   17.1022   52.2188 C   0  0  0  0  0  0  0  0  0  0  0  0
   57.0826   16.6192   54.1231 C   0  0  0  0  0  0  0  0  0  0  0  0
   55.4277   14.4223   51.8432 C   0  0  0  0  0  0  0  0  0  0  0  0
   55.2802   14.2560   54.1983 C   0  0  0  0  0  0  0  0  0  0  0  0
   54.8173   13.2071   51.7395 C   0  0  0  0  0  0  0  0  0  0  0  0
   54.6721   13.0185   54.1052 C   0  0  0  0  0  0  0  0  0  0  0  0
   56.2345   16.1901   53.1470 C   0  0  0  0  0  0  0  0  0  0  0  0
   55.6796   14.9454   53.0738 C   0  0  0  0  0  0  0  0  0  0  0  0
   53.5988   10.4168   53.8975 C   0  0  0  0  0  0  0  0  0  0  0  0
   54.4272   12.4949   52.8468 C   0  0  0  0  0  0  0  0  0  0  0  0
   53.7126   11.1624   52.6397 C   0  0  2  0  0  0  0  0  0  0  0  0
   51.8664   11.8857   52.8427 H   0  0  0  0  0  0  0  0  0  0  0  0
   55.6284    8.2828   52.6871 H   0  0  0  0  0  0  0  0  0  0  0  0
   54.2382    7.7845   53.3842 H   0  0  0  0  0  0  0  0  0  0  0  0
   52.2463    8.0345   52.1244 H   0  0  0  0  0  0  0  0  0  0  0  0
   52.0621    9.5877   51.6549 H   0  0  0  0  0  0  0  0  0  0  0  0
   57.4476   19.7648   53.1768 H   0  0  0  0  0  0  0  0  0  0  0  0
   55.9435   19.0279   51.4823 H   0  0  0  0  0  0  0  0  0  0  0  0
   58.1414   18.2348   54.8432 H   0  0  0  0  0  0  0  0  0  0  0  0
   54.1222   10.6498   50.6866 H   0  0  0  0  0  0  0  0  0  0  0  0
   55.3858   10.4189   51.6948 H   0  0  0  0  0  0  0  0  0  0  0  0
   55.6220   10.2625   53.8184 H   0  0  0  0  0  0  0  0  0  0  0  0
   54.9326    9.2914   54.9357 H   0  0  0  0  0  0  0  0  0  0  0  0
   52.6925    8.6014   54.2520 H   0  0  0  0  0  0  0  0  0  0  0  0
   51.6391    9.7839   53.8537 H   0  0  0  0  0  0  0  0  0  0  0  0
   55.1583   16.8082   51.5240 H   0  0  0  0  0  0  0  0  0  0  0  0
   57.3891   15.9878   54.8354 H   0  0  0  0  0  0  0  0  0  0  0  0
   55.6886   14.9259   51.0196 H   0  0  0  0  0  0  0  0  0  0  0  0
   55.4337   14.6595   55.1003 H   0  0  0  0  0  0  0  0  0  0  0  0
   54.6491   12.8238   50.8313 H   0  0  0  0  0  0  0  0  0  0  0  0
   54.4146   12.5123   54.9284 H   0  0  0  0  0  0  0  0  0  0  0  0
   53.4112   11.0015   54.6868 H   0  0  0  0  0  0  0  0  0  0  0  0
  1 21  1  0  0  0  0
  2  3  1  0  0  0  0
  2  4  1  0  0  0  0
  2  8  1  0  0  0  0
  3  9  1  0  0  0  0
  4 10  1  0  0  0  0
  5  6  2  0  0  0  0
  5  7  1  0  0  0  0
  6 11  1  0  0  0  0
  7 12  2  0  0  0  0
  8 21  1  0  0  0  0
  9 19  1  0  0  0  0
 10 19  1  0  0  0  0
 11 17  2  0  0  0  0
 12 17  1  0  0  0  0
 13 15  2  0  0  0  0
 13 18  1  0  0  0  0
 14 16  1  0  0  0  0
 14 18  2  0  0  0  0
 15 20  1  0  0  0  0
 16 20  2  0  0  0  0
 17 18  1  0  0  0  0
 19 21  1  0  0  0  0
 20 21  1  0  0  0  0
  1 22  1  0  0  0  0
  3 23  1  0  0  0  0
  3 24  1  0  0  0  0
  4 25  1  0  0  0  0
  4 26  1  0  0  0  0
  5 27  1  0  0  0  0
  6 28  1  0  0  0  0
  7 29  1  0  0  0  0
  8 30  1  0  0  0  0
  8 31  1  0  0  0  0
  9 32  1  0  0  0  0
  9 33  1  0  0  0  0
 10 34  1  0  0  0  0
 10 35  1  0  0  0  0
 11 36  1  0  0  0  0
 12 37  1  0  0  0  0
 13 38  1  0  0  0  0
 14 39  1  0  0  0  0
 15 40  1  0  0  0  0
 16 41  1  0  0  0  0
 19 42  1  0  0  0  0
M  END
> <pdb_id>
4EA0

> <uniprot_id>
A9JQL9

> <usmiles>
O[C@@]1(c2ccc(c3ccccc3)cc2)C4CCN(C1)CC4

$$$$
655_B_251
          07202413303D 1   1.00000     0.00000     0
            
 46 49  0  0  0  0            999 V2000
  -25.2464  -14.0590   -5.6138 O   0  0  0  0  0  0  0  0  0  0  0  0
  -23.3467  -12.3444   -5.1177 O   0  0  0  0  0  0  0  0  0  0  0  0
  -30.8057  -19.6444   -2.0283 N   0  0  0  0  0  0  0  0  0  0  0  0
  -31.6494  -19.7267   -4.1377 N   0  3  0  0  0  0  0  0  0  0  0  0
  -27.2388  -16.0791   -2.5714 N   0  0  0  0  0  0  0  0  0  0  0  0
  -26.7701  -15.9136   -4.7277 N   0  0  0  0  0  0  0  0  0  0  0  0
  -23.9947  -13.5313   -1.6570 C   0  0  0  0  0  0  0  0  0  0  0  0
  -23.4154  -12.8244   -2.6899 C   0  0  0  0  0  0  0  0  0  0  0  0
  -25.0218  -14.4382   -1.9324 C   0  0  0  0  0  0  0  0  0  0  0  0
  -28.4172  -17.4824   -5.5750 C   0  0  0  0  0  0  0  0  0  0  0  0
  -29.4459  -18.2879   -5.1184 C   0  0  0  0  0  0  0  0  0  0  0  0
  -29.0076  -17.6495   -2.8388 C   0  0  0  0  0  0  0  0  0  0  0  0
  -20.2845  -11.5744   -6.3451 C   0  0  0  0  0  0  0  0  0  0  0  0
  -21.2697  -10.6449   -7.0350 C   0  0  0  0  0  0  0  0  0  0  0  0
  -21.0094  -12.1729   -5.1528 C   0  0  0  0  0  0  0  0  0  0  0  0
  -22.4049  -10.3632   -6.0700 C   0  0  0  0  0  0  0  0  0  0  0  0
  -30.7600  -19.2744   -3.2918 C   0  0  0  0  0  0  0  0  0  0  0  0
  -24.8736  -13.9158   -4.2808 C   0  0  0  0  0  0  0  0  0  0  0  0
  -23.8685  -13.0083   -4.0146 C   0  0  0  0  0  0  0  0  0  0  0  0
  -26.4807  -15.5388   -3.5108 C   0  0  0  0  0  0  0  0  0  0  0  0
  -28.0034  -16.8434   -3.3090 C   0  0  0  0  0  0  0  0  0  0  0  0
  -27.7367  -16.7557   -4.6366 C   0  0  0  0  0  0  0  0  0  0  0  0
  -29.7418  -18.4340   -3.7350 C   0  0  0  0  0  0  0  0  0  0  0  0
  -25.4877  -14.6384   -3.2491 C   0  0  0  0  0  0  0  0  0  0  0  0
  -22.2922  -11.3948   -4.9497 C   0  0  0  0  0  0  0  0  0  0  0  0
  -30.1076  -19.3102   -1.3853 H   0  0  0  0  0  0  0  0  0  0  0  0
  -31.4891  -20.2555   -1.6250 H   0  0  0  0  0  0  0  0  0  0  0  0
  -31.5738  -19.4867   -5.1124 H   0  0  0  0  0  0  0  0  0  0  0  0
  -32.3553  -20.3837   -3.8930 H   0  0  0  0  0  0  0  0  0  0  0  0
  -26.2874  -15.5800   -5.5153 H   0  0  0  0  0  0  0  0  0  0  0  0
  -23.6503  -13.3866   -0.6424 H   0  0  0  0  0  0  0  0  0  0  0  0
  -22.6288  -12.1312   -2.4558 H   0  0  0  0  0  0  0  0  0  0  0  0
  -25.4633  -14.9892   -1.1104 H   0  0  0  0  0  0  0  0  0  0  0  0
  -28.1721  -17.3809   -6.6227 H   0  0  0  0  0  0  0  0  0  0  0  0
  -29.9868  -18.8720   -5.8383 H   0  0  0  0  0  0  0  0  0  0  0  0
  -29.1887  -17.6860   -1.7698 H   0  0  0  0  0  0  0  0  0  0  0  0
  -19.9629  -12.3509   -7.0267 H   0  0  0  0  0  0  0  0  0  0  0  0
  -19.4291  -11.0173   -6.0097 H   0  0  0  0  0  0  0  0  0  0  0  0
  -21.6578  -11.1463   -7.9083 H   0  0  0  0  0  0  0  0  0  0  0  0
  -20.7865   -9.7294   -7.3299 H   0  0  0  0  0  0  0  0  0  0  0  0
  -20.3929  -12.0484   -4.2798 H   0  0  0  0  0  0  0  0  0  0  0  0
  -21.2049  -13.2256   -5.3143 H   0  0  0  0  0  0  0  0  0  0  0  0
  -23.3651  -10.4237   -6.5639 H   0  0  0  0  0  0  0  0  0  0  0  0
  -22.2978   -9.3693   -5.6492 H   0  0  0  0  0  0  0  0  0  0  0  0
  -22.3467  -10.9011   -3.9845 H   0  0  0  0  0  0  0  0  0  0  0  0
  -25.9695  -14.7027   -5.8644 H   0  0  0  0  0  0  0  0  0  0  0  0
  1 18  1  0  0  0  0
  2 19  1  0  0  0  0
  2 25  1  0  0  0  0
  3 17  1  0  0  0  0
  3 26  1  0  0  0  0
  3 27  1  0  0  0  0
  4 17  2  0  0  0  0
  4 28  1  0  0  0  0
  4 29  1  0  0  0  0
  5 20  2  0  0  0  0
  5 21  1  0  0  0  0
  6 20  1  0  0  0  0
  6 22  1  0  0  0  0
  6 30  1  0  0  0  0
  7  8  2  0  0  0  0
  7  9  1  0  0  0  0
  7 31  1  0  0  0  0
  8 19  1  0  0  0  0
  8 32  1  0  0  0  0
  9 24  2  0  0  0  0
  9 33  1  0  0  0  0
 10 11  1  0  0  0  0
 10 22  2  0  0  0  0
 10 34  1  0  0  0  0
 11 23  2  0  0  0  0
 11 35  1  0  0  0  0
 12 21  2  0  0  0  0
 12 23  1  0  0  0  0
 12 36  1  0  0  0  0
 13 14  1  0  0  0  0
 13 15  1  0  0  0  0
 13 37  1  0  0  0  0
 13 38  1  0  0  0  0
 14 16  1  0  0  0  0
 14 39  1  0  0  0  0
 14 40  1  0  0  0  0
 15 25  1  0  0  0  0
 15 41  1  0  0  0  0
 15 42  1  0  0  0  0
 16 25  1  0  0  0  0
 16 43  1  0  0  0  0
 16 44  1  0  0  0  0
 17 23  1  0  0  0  0
 18 19  2  0  0  0  0
 18 24  1  0  0  0  0
 20 24  1  0  0  0  0
 21 22  1  0  0  0  0
 25 45  1  0  0  0  0
  1 46  1  0  0  0  0
M  CHG  1   4   1
M  END
> <pdb_id>
1O3P

> <uniprot_id>
P00749

> <usmiles>
O(c1c(O)c(ccc1)C2=Nc3c(N2)ccc(c3)C(=[NH2+])N)C4CCCC4

$$$$
656_A_246
          07192419343D 1   1.00000     0.00000     0
            
 45 47  0  0  0  0            999 V2000
   44.9025   23.2144   46.8088 O   0  0  0  0  0  0  0  0  0  0  0  0
   45.0325   25.5678   45.5259 O   0  0  0  0  0  0  0  0  0  0  0  0
   47.5368   18.6733   53.7734 N   0  0  0  0  0  0  0  0  0  0  0  0
   46.2702   17.0689   52.7424 N   0  3  0  0  0  0  0  0  0  0  0  0
   46.7898   22.6105   50.4700 N   0  0  0  0  0  0  0  0  0  0  0  0
   45.7282   21.7871   48.7426 N   0  0  0  0  0  0  0  0  0  0  0  0
   42.9995   26.9423   43.2343 C   0  0  0  0  0  0  0  0  0  0  0  0
   45.2065   26.8142   42.1884 C   0  0  0  0  0  0  0  0  0  0  0  0
   47.0216   26.3633   48.5103 C   0  0  0  0  0  0  0  0  0  0  0  0
   46.3717   26.5223   47.3074 C   0  0  0  0  0  0  0  0  0  0  0  0
   45.4971   19.5097   49.4806 C   0  0  0  0  0  0  0  0  0  0  0  0
   46.9819   25.1376   49.1667 C   0  0  0  0  0  0  0  0  0  0  0  0
   45.8079   18.6747   50.5542 C   0  0  0  0  0  0  0  0  0  0  0  0
   46.8563   20.5217   51.7122 C   0  0  0  0  0  0  0  0  0  0  0  0
   44.9733   26.7146   44.7007 C   0  0  0  0  0  0  0  0  0  0  0  0
   46.7830   18.2837   52.7663 C   0  0  0  0  0  0  0  0  0  0  0  0
   45.6268   24.2396   47.3942 C   0  0  0  0  0  0  0  0  0  0  0  0
   45.6745   25.4606   46.7447 C   0  0  0  0  0  0  0  0  0  0  0  0
   46.2648   22.8331   49.2788 C   0  0  0  0  0  0  0  0  0  0  0  0
   46.5252   21.3261   50.6159 C   0  0  0  0  0  0  0  0  0  0  0  0
   45.8763   20.8155   49.5638 C   0  0  0  0  0  0  0  0  0  0  0  0
   46.4900   19.1611   51.6926 C   0  0  0  0  0  0  0  0  0  0  0  0
   46.2863   24.0641   48.6186 C   0  0  0  0  0  0  0  0  0  0  0  0
   44.3456   26.2682   43.3518 C   0  0  0  0  0  0  0  0  0  0  0  0
   47.9113   19.6119   53.7637 H   0  0  0  0  0  0  0  0  0  0  0  0
   47.7676   18.1261   54.5713 H   0  0  0  0  0  0  0  0  0  0  0  0
   45.6554   16.7917   51.9902 H   0  0  0  0  0  0  0  0  0  0  0  0
   46.4676   16.3770   53.4306 H   0  0  0  0  0  0  0  0  0  0  0  0
   45.2916   21.8077   47.8521 H   0  0  0  0  0  0  0  0  0  0  0  0
   42.5055   26.6544   42.3183 H   0  0  0  0  0  0  0  0  0  0  0  0
   42.3828   26.6780   44.0787 H   0  0  0  0  0  0  0  0  0  0  0  0
   43.1383   28.0169   43.2319 H   0  0  0  0  0  0  0  0  0  0  0  0
   46.1179   26.2405   42.1000 H   0  0  0  0  0  0  0  0  0  0  0  0
   44.6707   26.7666   41.2507 H   0  0  0  0  0  0  0  0  0  0  0  0
   45.4765   27.8449   42.3684 H   0  0  0  0  0  0  0  0  0  0  0  0
   47.5628   27.1920   48.9449 H   0  0  0  0  0  0  0  0  0  0  0  0
   46.4106   27.4785   46.8072 H   0  0  0  0  0  0  0  0  0  0  0  0
   44.9749   19.1434   48.6097 H   0  0  0  0  0  0  0  0  0  0  0  0
   47.4943   25.0197   50.1113 H   0  0  0  0  0  0  0  0  0  0  0  0
   45.5105   17.6416   50.4858 H   0  0  0  0  0  0  0  0  0  0  0  0
   47.3805   20.9453   52.5567 H   0  0  0  0  0  0  0  0  0  0  0  0
   44.3777   27.4594   45.2062 H   0  0  0  0  0  0  0  0  0  0  0  0
   45.9782   27.0895   44.5680 H   0  0  0  0  0  0  0  0  0  0  0  0
   44.2402   25.1952   43.2846 H   0  0  0  0  0  0  0  0  0  0  0  0
   44.8502   22.3210   47.2552 H   0  0  0  0  0  0  0  0  0  0  0  0
  1 17  1  0  0  0  0
  2 15  1  0  0  0  0
  2 18  1  0  0  0  0
  3 16  1  0  0  0  0
  3 25  1  0  0  0  0
  3 26  1  0  0  0  0
  4 16  2  0  0  0  0
  4 27  1  0  0  0  0
  4 28  1  0  0  0  0
  5 19  2  0  0  0  0
  5 20  1  0  0  0  0
  6 19  1  0  0  0  0
  6 21  1  0  0  0  0
  6 29  1  0  0  0  0
  7 24  1  0  0  0  0
  7 30  1  0  0  0  0
  7 31  1  0  0  0  0
  7 32  1  0  0  0  0
  8 24  1  0  0  0  0
  8 33  1  0  0  0  0
  8 34  1  0  0  0  0
  8 35  1  0  0  0  0
  9 10  2  0  0  0  0
  9 12  1  0  0  0  0
  9 36  1  0  0  0  0
 10 18  1  0  0  0  0
 10 37  1  0  0  0  0
 11 13  1  0  0  0  0
 11 21  2  0  0  0  0
 11 38  1  0  0  0  0
 12 23  2  0  0  0  0
 12 39  1  0  0  0  0
 13 22  2  0  0  0  0
 13 40  1  0  0  0  0
 14 20  2  0  0  0  0
 14 22  1  0  0  0  0
 14 41  1  0  0  0  0
 15 24  1  0  0  0  0
 15 42  1  0  0  0  0
 15 43  1  0  0  0  0
 16 22  1  0  0  0  0
 17 18  2  0  0  0  0
 17 23  1  0  0  0  0
 19 23  1  0  0  0  0
 20 21  1  0  0  0  0
 24 44  1  0  0  0  0
  1 45  1  0  0  0  0
M  CHG  1   4   1
M  END
> <pdb_id>
1O2J

> <uniprot_id>
P00760

> <usmiles>
O(c1c(O)c(ccc1)C2=Nc3c(N2)ccc(c3)C(=[NH2+])N)CC(C)C

$$$$
65A_A_501
          07202403123D 1   1.00000     0.00000     0
            
 48 51  0  0  0  0            999 V2000
   40.6193    6.3981   31.6898 O   0  0  0  0  0  0  0  0  0  0  0  0
   38.9396    9.6049   32.2289 O   0  0  0  0  0  0  0  0  0  0  0  0
   40.9322    7.9214   37.8652 N   0  0  0  0  0  0  0  0  0  0  0  0
   40.4040    9.1936   37.6351 N   0  0  0  0  0  0  0  0  0  0  0  0
   41.3651    6.0828   36.3822 N   0  0  0  0  0  0  0  0  0  0  0  0
   38.2985   10.8865   31.9818 C   0  0  0  0  0  0  0  0  0  0  0  0
   39.5382   10.5615   35.6269 C   0  0  0  0  0  0  0  0  0  0  0  0
   40.1192    3.0076   33.7294 C   0  0  0  0  0  0  0  0  0  0  0  0
   42.5315    2.3160   33.4952 C   0  0  0  0  0  0  0  0  0  0  0  0
   36.2580    7.2672   32.8760 C   0  0  0  0  0  0  0  0  0  0  0  0
   36.8481    6.4687   33.8372 C   0  0  0  0  0  0  0  0  0  0  0  0
   36.9728    8.3241   32.3827 C   0  0  0  0  0  0  0  0  0  0  0  0
   38.1437    6.6687   34.2757 C   0  0  0  0  0  0  0  0  0  0  0  0
   41.8101    4.5053   32.5650 C   0  0  0  0  0  0  0  0  0  0  0  0
   41.9263    4.2114   34.9852 C   0  0  0  0  0  0  0  0  0  0  0  0
   41.0310    5.8150   32.6945 C   0  0  0  0  0  0  0  0  0  0  0  0
   40.9486    7.3084   36.6458 C   0  0  0  0  0  0  0  0  0  0  0  0
   38.2900    8.5665   32.7785 C   0  0  0  0  0  0  0  0  0  0  0  0
   40.1280    9.4162   36.3578 C   0  0  0  0  0  0  0  0  0  0  0  0
   41.3811    5.6160   35.1390 C   0  0  0  0  0  0  0  0  0  0  0  0
   38.9410    7.7103   33.7827 C   0  0  0  0  0  0  0  0  0  0  0  0
   40.9299    6.4551   34.0384 C   0  0  0  0  0  0  0  0  0  0  0  0
   40.4653    8.2055   35.6100 C   0  0  0  0  0  0  0  0  0  0  0  0
   40.3641    7.8451   34.2214 C   0  0  2  0  0  0  0  0  0  0  0  0
   41.5874    3.5035   33.6927 C   0  0  0  0  0  0  0  0  0  0  0  0
   41.2346    7.5400   38.7388 H   0  0  0  0  0  0  0  0  0  0  0  0
   41.6735    5.4967   37.1314 H   0  0  0  0  0  0  0  0  0  0  0  0
   38.9580   11.5151   31.5696 H   0  0  0  0  0  0  0  0  0  0  0  0
   37.5262   10.7584   31.3596 H   0  0  0  0  0  0  0  0  0  0  0  0
   37.9705   11.2673   32.8463 H   0  0  0  0  0  0  0  0  0  0  0  0
   39.4911   10.3459   34.6516 H   0  0  0  0  0  0  0  0  0  0  0  0
   38.6173   10.7397   35.9737 H   0  0  0  0  0  0  0  0  0  0  0  0
   40.1079   11.3722   35.7620 H   0  0  0  0  0  0  0  0  0  0  0  0
   39.5070    3.7877   33.8586 H   0  0  0  0  0  0  0  0  0  0  0  0
   39.8999    2.5511   32.8672 H   0  0  0  0  0  0  0  0  0  0  0  0
   40.0035    2.3642   34.4861 H   0  0  0  0  0  0  0  0  0  0  0  0
   43.4766    2.6418   33.4723 H   0  0  0  0  0  0  0  0  0  0  0  0
   42.4193    1.6716   34.2516 H   0  0  0  0  0  0  0  0  0  0  0  0
   42.3157    1.8585   32.6326 H   0  0  0  0  0  0  0  0  0  0  0  0
   35.3322    7.0773   32.5493 H   0  0  0  0  0  0  0  0  0  0  0  0
   36.3177    5.7176   34.2305 H   0  0  0  0  0  0  0  0  0  0  0  0
   36.5414    8.9386   31.7222 H   0  0  0  0  0  0  0  0  0  0  0  0
   38.5232    6.0519   34.9653 H   0  0  0  0  0  0  0  0  0  0  0  0
   42.7848    4.7267   32.5359 H   0  0  0  0  0  0  0  0  0  0  0  0
   41.5415    4.0691   31.7062 H   0  0  0  0  0  0  0  0  0  0  0  0
   41.5673    3.6603   35.7384 H   0  0  0  0  0  0  0  0  0  0  0  0
   42.9227    4.2613   35.0539 H   0  0  0  0  0  0  0  0  0  0  0  0
   40.8508    8.5041   33.6479 H   0  0  0  0  0  0  0  0  0  0  0  0
  1 16  2  0  0  0  0
  2  6  1  0  0  0  0
  2 18  1  0  0  0  0
  3  4  1  0  0  0  0
  3 17  1  0  0  0  0
  4 19  2  0  0  0  0
  5 17  1  0  0  0  0
  5 20  1  0  0  0  0
  7 19  1  0  0  0  0
  8 25  1  0  0  0  0
  9 25  1  0  0  0  0
 10 11  2  0  0  0  0
 10 12  1  0  0  0  0
 11 13  1  0  0  0  0
 12 18  2  0  0  0  0
 13 21  2  0  0  0  0
 14 16  1  0  0  0  0
 14 25  1  0  0  0  0
 15 20  1  0  0  0  0
 15 25  1  0  0  0  0
 16 22  1  0  0  0  0
 17 23  2  0  0  0  0
 18 21  1  0  0  0  0
 19 23  1  0  0  0  0
 20 22  2  0  0  0  0
 21 24  1  0  0  0  0
 22 24  1  0  0  0  0
 23 24  1  0  0  0  0
  3 26  1  0  0  0  0
  5 27  1  0  0  0  0
  6 28  1  0  0  0  0
  6 29  1  0  0  0  0
  6 30  1  0  0  0  0
  7 31  1  0  0  0  0
  7 32  1  0  0  0  0
  7 33  1  0  0  0  0
  8 34  1  0  0  0  0
  8 35  1  0  0  0  0
  8 36  1  0  0  0  0
  9 37  1  0  0  0  0
  9 38  1  0  0  0  0
  9 39  1  0  0  0  0
 10 40  1  0  0  0  0
 11 41  1  0  0  0  0
 12 42  1  0  0  0  0
 13 43  1  0  0  0  0
 14 44  1  0  0  0  0
 14 45  1  0  0  0  0
 15 46  1  0  0  0  0
 15 47  1  0  0  0  0
 24 48  1  0  0  0  0
M  END
> <pdb_id>
5HLP

> <uniprot_id>
P49841

> <usmiles>
O=C1C2=C(NC=3NN=C(C3[C@@H]2c4c(OC)cccc4)C)CC(C1)(C)C

$$$$
65J_A_201
          07202413363D 1   1.00000     0.00000     0
            
 42 44  0  0  0  0            999 V2000
   14.6372    4.3140   -1.1817 S   0  0  0  0  0  0  0  0  0  0  0  0
    9.3693    4.4826   -0.8269 O   0  0  0  0  0  0  0  0  0  0  0  0
   18.6491    7.3397    4.7173 N   0  0  0  0  0  0  0  0  0  0  0  0
   19.0172    8.4218    0.1644 N   0  0  0  0  0  0  0  0  0  0  0  0
   18.8436    7.8803    2.4049 N   0  0  0  0  0  0  0  0  0  0  0  0
   17.2702    6.2502    3.1759 N   0  0  0  0  0  0  0  0  0  0  0  0
   15.9107    5.1700    1.4258 N   0  0  0  0  0  0  0  0  0  0  0  0
    9.4265    3.0338   -0.6362 C   0  0  0  0  0  0  0  0  0  0  0  0
   13.8915    4.8916    3.0041 C   0  0  0  0  0  0  0  0  0  0  0  0
   16.8731    6.7099   -1.8355 C   0  0  0  0  0  0  0  0  0  0  0  0
   15.0261    4.2234    2.1780 C   0  0  0  0  0  0  0  0  0  0  0  0
   11.8972    7.1662   -0.8221 C   0  0  0  0  0  0  0  0  0  0  0  0
   13.1117    6.5045   -0.9717 C   0  0  0  0  0  0  0  0  0  0  0  0
   10.6489    6.4956   -0.8054 C   0  0  0  0  0  0  0  0  0  0  0  0
   11.8548    4.4152   -1.0382 C   0  0  0  0  0  0  0  0  0  0  0  0
   18.2511    7.1558    3.4247 C   0  0  0  0  0  0  0  0  0  0  0  0
   15.8521    5.3375    0.0849 C   0  0  0  0  0  0  0  0  0  0  0  0
   13.1116    5.1205   -1.0403 C   0  0  0  0  0  0  0  0  0  0  0  0
   18.4304    7.6884    1.1391 C   0  0  0  0  0  0  0  0  0  0  0  0
   10.6245    5.1161   -0.8811 C   0  0  0  0  0  0  0  0  0  0  0  0
   16.8597    6.0384    1.8729 C   0  0  0  0  0  0  0  0  0  0  0  0
   16.7837    6.2767   -0.3082 C   0  0  0  0  0  0  0  0  0  0  0  0
   17.4347    6.7358    0.8286 C   0  0  0  0  0  0  0  0  0  0  0  0
   18.2195    6.8150    5.4522 H   0  0  0  0  0  0  0  0  0  0  0  0
   19.3703    7.9991    4.9294 H   0  0  0  0  0  0  0  0  0  0  0  0
   18.7347    8.3051   -0.7878 H   0  0  0  0  0  0  0  0  0  0  0  0
   19.7331    9.0802    0.3965 H   0  0  0  0  0  0  0  0  0  0  0  0
    8.4977    2.6642   -0.6091 H   0  0  0  0  0  0  0  0  0  0  0  0
    9.9289    2.6174   -1.3939 H   0  0  0  0  0  0  0  0  0  0  0  0
    9.8920    2.8290    0.2249 H   0  0  0  0  0  0  0  0  0  0  0  0
   13.3570    4.1854    3.4685 H   0  0  0  0  0  0  0  0  0  0  0  0
   14.2917    5.5072    3.6831 H   0  0  0  0  0  0  0  0  0  0  0  0
   13.2959    5.4121    2.3923 H   0  0  0  0  0  0  0  0  0  0  0  0
   17.5948    7.3931   -1.9466 H   0  0  0  0  0  0  0  0  0  0  0  0
   17.0824    5.9096   -2.3973 H   0  0  0  0  0  0  0  0  0  0  0  0
   15.9982    7.0996   -2.1232 H   0  0  0  0  0  0  0  0  0  0  0  0
   15.5991    3.6987    2.8075 H   0  0  0  0  0  0  0  0  0  0  0  0
   14.6033    3.6036    1.5168 H   0  0  0  0  0  0  0  0  0  0  0  0
   11.9054    8.1611   -0.7216 H   0  0  0  0  0  0  0  0  0  0  0  0
   13.9681    7.0177   -1.0287 H   0  0  0  0  0  0  0  0  0  0  0  0
    9.7965    7.0142   -0.7398 H   0  0  0  0  0  0  0  0  0  0  0  0
   11.8462    3.4213   -1.1484 H   0  0  0  0  0  0  0  0  0  0  0  0
  1 17  1  0  0  0  0
  1 18  1  0  0  0  0
  2  8  1  0  0  0  0
  2 20  1  0  0  0  0
  3 16  1  0  0  0  0
  4 19  1  0  0  0  0
  5 16  2  0  0  0  0
  5 19  1  0  0  0  0
  6 16  1  0  0  0  0
  6 21  2  0  0  0  0
  7 11  1  0  0  0  0
  7 17  1  0  0  0  0
  7 21  1  0  0  0  0
  9 11  1  0  0  0  0
 10 22  1  0  0  0  0
 12 13  2  0  0  0  0
 12 14  1  0  0  0  0
 13 18  1  0  0  0  0
 14 20  2  0  0  0  0
 15 18  2  0  0  0  0
 15 20  1  0  0  0  0
 17 22  2  0  0  0  0
 19 23  2  0  0  0  0
 21 23  1  0  0  0  0
 22 23  1  0  0  0  0
  3 24  1  0  0  0  0
  3 25  1  0  0  0  0
  4 26  1  0  0  0  0
  4 27  1  0  0  0  0
  8 28  1  0  0  0  0
  8 29  1  0  0  0  0
  8 30  1  0  0  0  0
  9 31  1  0  0  0  0
  9 32  1  0  0  0  0
  9 33  1  0  0  0  0
 10 34  1  0  0  0  0
 10 35  1  0  0  0  0
 10 36  1  0  0  0  0
 11 37  1  0  0  0  0
 11 38  1  0  0  0  0
 12 39  1  0  0  0  0
 13 40  1  0  0  0  0
 14 41  1  0  0  0  0
 15 42  1  0  0  0  0
M  END
> <pdb_id>
5HT4

> <uniprot_id>
P00374

> <usmiles>
S(c1cc(OC)ccc1)C=2N(c3nc(nc(N)c3C2C)N)CC

$$$$
65U_B_301
          07202403313D 1   1.00000     0.00000     0
            
 47 50  0  0  0  0            999 V2000
  -16.0535   13.3404  -36.8616 O   0  0  0  0  0  0  0  0  0  0  0  0
  -16.3010   18.0842  -36.8050 O   0  0  0  0  0  0  0  0  0  0  0  0
  -15.9632   14.0680  -32.4052 O   0  0  0  0  0  0  0  0  0  0  0  0
  -18.5608   16.1974  -39.4602 O   0  0  0  0  0  0  0  0  0  0  0  0
  -16.0376   14.7884  -33.6338 N   0  0  0  0  0  0  0  0  0  0  0  0
  -16.6534   15.4514  -36.2723 N   0  0  0  0  0  0  0  0  0  0  0  0
  -16.1887   17.8636  -39.0486 N   0  0  0  0  0  0  0  0  0  0  0  0
  -15.8772   19.2783  -39.1641 C   0  0  0  0  0  0  0  0  0  0  0  0
  -16.9998    7.8529  -32.8244 C   0  0  0  0  0  0  0  0  0  0  0  0
  -16.9281   15.8299  -42.6547 C   0  0  0  0  0  0  0  0  0  0  0  0
  -17.8687    8.5562  -32.0149 C   0  0  0  0  0  0  0  0  0  0  0  0
  -15.8002    8.4256  -33.1956 C   0  0  0  0  0  0  0  0  0  0  0  0
  -15.7767   16.5710  -42.4875 C   0  0  0  0  0  0  0  0  0  0  0  0
  -17.8336   15.7047  -41.6212 C   0  0  0  0  0  0  0  0  0  0  0  0
  -15.5375   17.2412  -41.3023 C   0  0  0  0  0  0  0  0  0  0  0  0
  -17.5352    9.8279  -31.5743 C   0  0  0  0  0  0  0  0  0  0  0  0
  -15.4615    9.6929  -32.7448 C   0  0  0  0  0  0  0  0  0  0  0  0
  -16.1962   12.5709  -34.0014 C   0  0  0  0  0  0  0  0  0  0  0  0
  -18.1921   15.6213  -38.1985 C   0  0  0  0  0  0  0  0  0  0  0  0
  -15.9907   11.8161  -31.5201 C   0  0  0  0  0  0  0  0  0  0  0  0
  -16.2839   14.1891  -35.9915 C   0  0  0  0  0  0  0  0  0  0  0  0
  -16.4259   17.3809  -37.7933 C   0  0  0  0  0  0  0  0  0  0  0  0
  -16.0645   12.7480  -32.6819 C   0  0  0  0  0  0  0  0  0  0  0  0
  -17.5852   16.3490  -40.4227 C   0  0  0  0  0  0  0  0  0  0  0  0
  -16.1826   13.8462  -34.5521 C   0  0  0  0  0  0  0  0  0  0  0  0
  -16.4302   17.1173  -40.2425 C   0  0  0  0  0  0  0  0  0  0  0  0
  -16.3028   10.3874  -31.8875 C   0  0  0  0  0  0  0  0  0  0  0  0
  -16.7875   15.8979  -37.6476 C   0  0  1  0  0  0  0  0  0  0  0  0
  -16.8418   16.1169  -35.5359 H   0  0  0  0  0  0  0  0  0  0  0  0
  -15.0276   19.5297  -38.5341 H   0  0  0  0  0  0  0  0  0  0  0  0
  -15.6748   19.5798  -40.1905 H   0  0  0  0  0  0  0  0  0  0  0  0
  -16.7546   19.8099  -38.8121 H   0  0  0  0  0  0  0  0  0  0  0  0
  -17.2510    6.8544  -33.1446 H   0  0  0  0  0  0  0  0  0  0  0  0
  -17.0978   15.2954  -43.5781 H   0  0  0  0  0  0  0  0  0  0  0  0
  -18.7947    8.1035  -31.6935 H   0  0  0  0  0  0  0  0  0  0  0  0
  -15.1264    7.8867  -33.8390 H   0  0  0  0  0  0  0  0  0  0  0  0
  -15.0530   16.6361  -43.2870 H   0  0  0  0  0  0  0  0  0  0  0  0
  -18.7318   15.1253  -41.7500 H   0  0  0  0  0  0  0  0  0  0  0  0
  -14.6292   17.8154  -41.1987 H   0  0  0  0  0  0  0  0  0  0  0  0
  -18.2159   10.3592  -30.9268 H   0  0  0  0  0  0  0  0  0  0  0  0
  -14.5355   10.1504  -33.0587 H   0  0  0  0  0  0  0  0  0  0  0  0
  -16.2764   11.6347  -34.5310 H   0  0  0  0  0  0  0  0  0  0  0  0
  -18.9124   15.9339  -37.4468 H   0  0  0  0  0  0  0  0  0  0  0  0
  -18.3074   14.5425  -38.2839 H   0  0  0  0  0  0  0  0  0  0  0  0
  -14.9816   11.8467  -31.1177 H   0  0  0  0  0  0  0  0  0  0  0  0
  -16.6857   12.1596  -30.7569 H   0  0  0  0  0  0  0  0  0  0  0  0
  -16.0581   15.3160  -38.2058 H   0  0  0  0  0  0  0  0  0  0  0  0
  1 21  2  0  0  0  0
  2 22  2  0  0  0  0
  3  5  1  0  0  0  0
  3 23  1  0  0  0  0
  4 19  1  0  0  0  0
  4 24  1  0  0  0  0
  5 25  2  0  0  0  0
  6 21  1  0  0  0  0
  6 28  1  0  0  0  0
  6 29  1  0  0  0  0
  7  8  1  0  0  0  0
  7 22  1  0  0  0  0
  7 26  1  0  0  0  0
  8 30  1  0  0  0  0
  8 31  1  0  0  0  0
  8 32  1  0  0  0  0
  9 11  2  0  0  0  0
  9 12  1  0  0  0  0
  9 33  1  0  0  0  0
 10 13  2  0  0  0  0
 10 14  1  0  0  0  0
 10 34  1  0  0  0  0
 11 16  1  0  0  0  0
 11 35  1  0  0  0  0
 12 17  2  0  0  0  0
 12 36  1  0  0  0  0
 13 15  1  0  0  0  0
 13 37  1  0  0  0  0
 14 24  2  0  0  0  0
 14 38  1  0  0  0  0
 15 26  2  0  0  0  0
 15 39  1  0  0  0  0
 16 27  2  0  0  0  0
 16 40  1  0  0  0  0
 17 27  1  0  0  0  0
 17 41  1  0  0  0  0
 18 23  2  0  0  0  0
 18 25  1  0  0  0  0
 18 42  1  0  0  0  0
 19 28  1  0  0  0  0
 19 43  1  0  0  0  0
 19 44  1  0  0  0  0
 20 23  1  0  0  0  0
 20 27  1  0  0  0  0
 20 45  1  0  0  0  0
 20 46  1  0  0  0  0
 21 25  1  0  0  0  0
 22 28  1  0  0  0  0
 24 26  1  0  0  0  0
 28 47  1  0  0  0  0
M  END
> <pdb_id>
5HX6

> <uniprot_id>
Q13546

> <usmiles>
O=C1N(c2c(OC[C@@H]1NC(=O)C3=NOC(=C3)Cc4ccccc4)cccc2)C

$$$$
65Y_A_201
          07202409203D 1   1.00000     0.00000     0
            
 48 50  0  0  0  0            999 V2000
    3.2099    6.3024   24.3626 Cl  0  0  0  0  0  0  0  0  0  0  0  0
    3.7939    7.9919   16.3798 O   0  0  0  0  0  0  0  0  0  0  0  0
    4.7870    6.0503   16.3724 O   0  0  0  0  0  0  0  0  0  0  0  0
    6.4621    8.2921   19.9389 N   0  0  0  0  0  0  0  0  0  0  0  0
    7.3401    9.9530   17.5717 C   0  0  0  0  0  0  0  0  0  0  0  0
    8.3220    7.7065   17.7194 C   0  0  0  0  0  0  0  0  0  0  0  0
   -0.8143    8.1167   18.1809 C   0  0  0  0  0  0  0  0  0  0  0  0
   -0.8928    6.4282   16.4318 C   0  0  0  0  0  0  0  0  0  0  0  0
    1.7455    4.0313   18.9432 C   0  0  0  0  0  0  0  0  0  0  0  0
    5.3383    7.6056   23.3210 C   0  0  0  0  0  0  0  0  0  0  0  0
    6.1025    8.0517   22.2826 C   0  0  0  0  0  0  0  0  0  0  0  0
    0.5979    4.6119   18.5414 C   0  0  0  0  0  0  0  0  0  0  0  0
    2.8658    4.7612   19.1827 C   0  0  0  0  0  0  0  0  0  0  0  0
    3.7395    6.6714   21.7729 C   0  0  0  0  0  0  0  0  0  0  0  0
    1.6777    6.7635   18.6312 C   0  0  0  0  0  0  0  0  0  0  0  0
    4.5068    7.1220   16.9438 C   0  0  0  0  0  0  0  0  0  0  0  0
    4.1724    6.9241   23.0415 C   0  0  0  0  0  0  0  0  0  0  0  0
    7.0517    8.5025   17.5717 C   0  0  0  0  0  0  0  0  0  0  0  0
   -0.7423    6.6289   17.9034 C   0  0  0  0  0  0  0  0  0  0  0  0
    5.6743    7.8365   20.9657 C   0  0  0  0  0  0  0  0  0  0  0  0
    6.1227    8.0380   18.6443 C   0  0  0  0  0  0  0  0  0  0  0  0
    0.5447    6.0063   18.3764 C   0  0  0  0  0  0  0  0  0  0  0  0
    2.8970    6.1583   19.0549 C   0  0  0  0  0  0  0  0  0  0  0  0
    4.4695    7.1212   20.6983 C   0  0  0  0  0  0  0  0  0  0  0  0
    4.9350    7.3687   18.3375 C   0  0  0  0  0  0  0  0  0  0  0  0
    4.1048    6.8958   19.3457 C   0  0  0  0  0  0  0  0  0  0  0  0
    3.5791    8.8461   16.8532 H   0  0  0  0  0  0  0  0  0  0  0  0
    6.4855   10.4628   17.4729 H   0  0  0  0  0  0  0  0  0  0  0  0
    7.7810   10.2052   18.4331 H   0  0  0  0  0  0  0  0  0  0  0  0
    7.9488   10.1718   16.8091 H   0  0  0  0  0  0  0  0  0  0  0  0
    8.1057    6.7302   17.7171 H   0  0  0  0  0  0  0  0  0  0  0  0
    8.9356    7.9138   16.9575 H   0  0  0  0  0  0  0  0  0  0  0  0
    8.7678    7.9472   18.5815 H   0  0  0  0  0  0  0  0  0  0  0  0
   -0.7157    8.2778   19.1629 H   0  0  0  0  0  0  0  0  0  0  0  0
   -0.0777    8.5831   17.6911 H   0  0  0  0  0  0  0  0  0  0  0  0
   -1.6968    8.4711   17.8719 H   0  0  0  0  0  0  0  0  0  0  0  0
   -0.8486    5.4514   16.2223 H   0  0  0  0  0  0  0  0  0  0  0  0
   -1.7748    6.7933   16.1340 H   0  0  0  0  0  0  0  0  0  0  0  0
   -0.1557    6.9054   15.9532 H   0  0  0  0  0  0  0  0  0  0  0  0
    1.7731    3.0395   19.0681 H   0  0  0  0  0  0  0  0  0  0  0  0
    5.6183    7.7696   24.2669 H   0  0  0  0  0  0  0  0  0  0  0  0
    6.9629    8.5294   22.4601 H   0  0  0  0  0  0  0  0  0  0  0  0
   -0.2118    4.0532   18.3616 H   0  0  0  0  0  0  0  0  0  0  0  0
    3.7000    4.2848   19.4606 H   0  0  0  0  0  0  0  0  0  0  0  0
    2.8930    6.1601   21.6249 H   0  0  0  0  0  0  0  0  0  0  0  0
    1.6388    7.7559   18.5152 H   0  0  0  0  0  0  0  0  0  0  0  0
    6.6435    8.2698   16.6890 H   0  0  0  0  0  0  0  0  0  0  0  0
   -1.5053    6.1792   18.3677 H   0  0  0  0  0  0  0  0  0  0  0  0
  1 17  1  0  0  0  0
  2 16  1  0  0  0  0
  3 16  2  0  0  0  0
  4 20  2  0  0  0  0
  4 21  1  0  0  0  0
  5 18  1  0  0  0  0
  6 18  1  0  0  0  0
  7 19  1  0  0  0  0
  8 19  1  0  0  0  0
  9 12  2  0  0  0  0
  9 13  1  0  0  0  0
 10 11  2  0  0  0  0
 10 17  1  0  0  0  0
 11 20  1  0  0  0  0
 12 22  1  0  0  0  0
 13 23  2  0  0  0  0
 14 17  2  0  0  0  0
 14 24  1  0  0  0  0
 15 22  2  0  0  0  0
 15 23  1  0  0  0  0
 16 25  1  0  0  0  0
 18 21  1  0  0  0  0
 19 22  1  0  0  0  0
 20 24  1  0  0  0  0
 21 25  2  0  0  0  0
 23 26  1  0  0  0  0
 24 26  2  0  0  0  0
 25 26  1  0  0  0  0
  2 27  1  0  0  0  0
  5 28  1  0  0  0  0
  5 29  1  0  0  0  0
  5 30  1  0  0  0  0
  6 31  1  0  0  0  0
  6 32  1  0  0  0  0
  6 33  1  0  0  0  0
  7 34  1  0  0  0  0
  7 35  1  0  0  0  0
  7 36  1  0  0  0  0
  8 37  1  0  0  0  0
  8 38  1  0  0  0  0
  8 39  1  0  0  0  0
  9 40  1  0  0  0  0
 10 41  1  0  0  0  0
 11 42  1  0  0  0  0
 12 43  1  0  0  0  0
 13 44  1  0  0  0  0
 14 45  1  0  0  0  0
 15 46  1  0  0  0  0
 18 47  1  0  0  0  0
 19 48  1  0  0  0  0
M  END
> <pdb_id>
5HZ6

> <uniprot_id>
P15090

> <usmiles>
Clc1cc2c(nc(c(c2c3cc(ccc3)C(C)C)C(=O)O)C(C)C)cc1

$$$$
673_A_1001
          07202400453D 1   1.00000     0.00000     0
            
 50 51  0  0  0  0            999 V2000
   55.2290   14.5830   52.6740 O   0  0  0  0  0  0  0  0  0  0  0  0
   53.7210   10.7030   53.0610 N   0  0  0  0  0  0  0  0  0  0  0  0
   56.3780   16.2930   57.5430 C   0  0  0  0  0  0  0  0  0  0  0  0
   52.6540    8.7070   53.9290 C   0  0  0  0  0  0  0  0  0  0  0  0
   52.5750   10.8840   55.2050 C   0  0  0  0  0  0  0  0  0  0  0  0
   55.9130   13.5920   51.9260 C   0  0  0  0  0  0  0  0  0  0  0  0
   54.6010   11.8740   53.2070 C   0  0  0  0  0  0  0  0  0  0  0  0
   56.9430   15.7410   56.4070 C   0  0  0  0  0  0  0  0  0  0  0  0
   55.0340   12.3450   51.8160 C   0  0  0  0  0  0  0  0  0  0  0  0
   58.2420   22.3580   53.7270 C   0  0  0  0  0  0  0  0  0  0  0  0
   57.4630   22.0760   52.6320 C   0  0  0  0  0  0  0  0  0  0  0  0
   58.5460   21.3310   54.6090 C   0  0  0  0  0  0  0  0  0  0  0  0
   56.2240   15.3030   55.2830 C   0  0  0  0  0  0  0  0  0  0  0  0
   57.0470   20.7730   52.4150 C   0  0  0  0  0  0  0  0  0  0  0  0
   58.1220   20.0270   54.3810 C   0  0  0  0  0  0  0  0  0  0  0  0
   55.8350   16.6960   51.7200 C   0  0  0  0  0  0  0  0  0  0  0  0
   56.3720   17.9780   51.8460 C   0  0  0  0  0  0  0  0  0  0  0  0
   56.8210   17.5110   54.1430 C   0  0  0  0  0  0  0  0  0  0  0  0
   53.4150    9.9790   54.3110 C   0  0  0  0  0  0  0  0  0  0  0  0
   55.8020   15.8160   52.8030 C   0  0  0  0  0  0  0  0  0  0  0  0
   57.3810   19.7030   53.2540 C   0  0  0  0  0  0  0  0  0  0  0  0
   56.2800   16.2260   54.0490 C   0  0  0  0  0  0  0  0  0  0  0  0
   56.8940   18.3930   53.0660 C   0  0  0  0  0  0  0  0  0  0  0  0
   54.1628   10.0617   52.4336 H   0  0  0  0  0  0  0  0  0  0  0  0
   56.9615   16.5807   58.3024 H   0  0  0  0  0  0  0  0  0  0  0  0
   55.3861   16.4043   57.6046 H   0  0  0  0  0  0  0  0  0  0  0  0
   52.4305    8.1912   54.7560 H   0  0  0  0  0  0  0  0  0  0  0  0
   51.8105    8.9538   53.4519 H   0  0  0  0  0  0  0  0  0  0  0  0
   53.2238    8.1450   53.3295 H   0  0  0  0  0  0  0  0  0  0  0  0
   52.3603   10.4053   56.0563 H   0  0  0  0  0  0  0  0  0  0  0  0
   53.0876   11.7174   55.4114 H   0  0  0  0  0  0  0  0  0  0  0  0
   51.7260   11.1230   54.7337 H   0  0  0  0  0  0  0  0  0  0  0  0
   56.7692   13.3576   52.3865 H   0  0  0  0  0  0  0  0  0  0  0  0
   56.1118   13.9423   51.0107 H   0  0  0  0  0  0  0  0  0  0  0  0
   55.4074   11.6233   53.7427 H   0  0  0  0  0  0  0  0  0  0  0  0
   54.1074   12.6091   53.6718 H   0  0  0  0  0  0  0  0  0  0  0  0
   57.9383   15.6468   56.3847 H   0  0  0  0  0  0  0  0  0  0  0  0
   55.5508   11.6160   51.3672 H   0  0  0  0  0  0  0  0  0  0  0  0
   54.2221   12.5608   51.2735 H   0  0  0  0  0  0  0  0  0  0  0  0
   58.5832   23.2845   53.8855 H   0  0  0  0  0  0  0  0  0  0  0  0
   57.1990   22.8032   51.9984 H   0  0  0  0  0  0  0  0  0  0  0  0
   59.0828   21.5337   55.4280 H   0  0  0  0  0  0  0  0  0  0  0  0
   55.2653   15.2063   55.5506 H   0  0  0  0  0  0  0  0  0  0  0  0
   56.5870   14.4105   55.0153 H   0  0  0  0  0  0  0  0  0  0  0  0
   56.4767   20.5861   51.6151 H   0  0  0  0  0  0  0  0  0  0  0  0
   58.3548   19.3114   55.0396 H   0  0  0  0  0  0  0  0  0  0  0  0
   55.4671   16.4025   50.8377 H   0  0  0  0  0  0  0  0  0  0  0  0
   56.3813   18.5968   51.0605 H   0  0  0  0  0  0  0  0  0  0  0  0
   57.1739   17.8134   55.0284 H   0  0  0  0  0  0  0  0  0  0  0  0
   54.2653    9.7369   54.7784 H   0  0  0  0  0  0  0  0  0  0  0  0
  1  6  1  0  0  0  0
  1 20  1  0  0  0  0
  2  7  1  0  0  0  0
  2 19  1  0  0  0  0
  3  8  2  0  0  0  0
  4 19  1  0  0  0  0
  5 19  1  0  0  0  0
  6  9  1  0  0  0  0
  7  9  1  0  0  0  0
  8 13  1  0  0  0  0
 10 11  2  0  0  0  0
 10 12  1  0  0  0  0
 11 14  1  0  0  0  0
 12 15  2  0  0  0  0
 13 22  1  0  0  0  0
 14 21  2  0  0  0  0
 15 21  1  0  0  0  0
 16 17  1  0  0  0  0
 16 20  2  0  0  0  0
 17 23  2  0  0  0  0
 18 22  2  0  0  0  0
 18 23  1  0  0  0  0
 20 22  1  0  0  0  0
 21 23  1  0  0  0  0
  2 24  1  0  0  0  0
  3 25  1  0  0  0  0
  3 26  1  0  0  0  0
  4 27  1  0  0  0  0
  4 28  1  0  0  0  0
  4 29  1  0  0  0  0
  5 30  1  0  0  0  0
  5 31  1  0  0  0  0
  5 32  1  0  0  0  0
  6 33  1  0  0  0  0
  6 34  1  0  0  0  0
  7 35  1  0  0  0  0
  7 36  1  0  0  0  0
  8 37  1  0  0  0  0
  9 38  1  0  0  0  0
  9 39  1  0  0  0  0
 10 40  1  0  0  0  0
 11 41  1  0  0  0  0
 12 42  1  0  0  0  0
 13 43  1  0  0  0  0
 13 44  1  0  0  0  0
 14 45  1  0  0  0  0
 15 46  1  0  0  0  0
 16 47  1  0  0  0  0
 17 48  1  0  0  0  0
 18 49  1  0  0  0  0
 19 50  1  0  0  0  0
M  END
> <pdb_id>
3ACX

> <uniprot_id>
A9JQL9

> <usmiles>
O(c1c(cc(c2ccccc2)cc1)CC=C)CCCNC(C)C

$$$$
676_A_1306
          07192419233D 1   1.00000     0.00000     0
            
 52 55  0  0  0  0            999 V2000
  -22.3238   39.9513   -0.4875 F   0  0  0  0  0  0  0  0  0  0  0  0
  -19.1577   34.9401   -4.0692 O   0  0  0  0  0  0  0  0  0  0  0  0
  -15.8373   33.7105    1.6436 O   0  0  0  0  0  0  0  0  0  0  0  0
  -18.2405   36.7171   -7.9608 N   0  0  0  0  0  0  0  0  0  0  0  0
  -21.3045   39.7819    1.6027 N   0  0  0  0  0  0  0  0  0  0  0  0
  -15.5145   33.5143   -0.5843 N   0  0  0  0  0  0  0  0  0  0  0  0
  -18.1957   36.7445   -5.0379 N   0  0  0  0  0  0  0  0  0  0  0  0
  -17.3617   35.4479   -1.1232 N   0  0  0  0  0  0  0  0  0  0  0  0
  -18.8192   37.7675   -7.1262 C   0  0  0  0  0  0  0  0  0  0  0  0
  -20.4082   39.2125    2.4372 C   0  0  0  0  0  0  0  0  0  0  0  0
  -15.6163   33.9938   -1.9580 C   0  0  0  0  0  0  0  0  0  0  0  0
  -21.8741   40.2523   -4.0878 C   0  0  0  0  0  0  0  0  0  0  0  0
  -20.6114   39.9719   -3.5273 C   0  0  0  0  0  0  0  0  0  0  0  0
  -22.3122   39.5186   -5.1986 C   0  0  0  0  0  0  0  0  0  0  0  0
  -18.4348   36.3948   -1.1532 C   0  0  0  0  0  0  0  0  0  0  0  0
  -19.5932   38.1854    1.9669 C   0  0  0  0  0  0  0  0  0  0  0  0
  -19.7901   38.9838   -4.0726 C   0  0  0  0  0  0  0  0  0  0  0  0
  -21.4835   38.5215   -5.7368 C   0  0  0  0  0  0  0  0  0  0  0  0
  -16.8524   35.3155   -3.5656 C   0  0  0  0  0  0  0  0  0  0  0  0
  -20.6030   38.3376   -0.2023 C   0  0  0  0  0  0  0  0  0  0  0  0
  -17.9512   35.8724    1.0375 C   0  0  0  0  0  0  0  0  0  0  0  0
  -21.4150   39.3596    0.3080 C   0  0  0  0  0  0  0  0  0  0  0  0
  -18.1653   35.6456   -4.2620 C   0  0  0  0  0  0  0  0  0  0  0  0
  -16.1119   34.0421    0.4934 C   0  0  0  0  0  0  0  0  0  0  0  0
  -19.3749   37.1843   -5.8057 C   0  0  2  0  0  0  0  0  0  0  0  0
  -17.0235   34.5363   -2.2411 C   0  0  2  0  0  0  0  0  0  0  0  0
  -17.1572   35.0661    0.2503 C   0  0  0  0  0  0  0  0  0  0  0  0
  -20.2192   38.2459   -5.1763 C   0  0  0  0  0  0  0  0  0  0  0  0
  -18.7348   36.6665    0.1896 C   0  0  0  0  0  0  0  0  0  0  0  0
  -19.6977   37.7157    0.6562 C   0  0  0  0  0  0  0  0  0  0  0  0
  -17.8891   37.1189   -8.8065 H   0  0  0  0  0  0  0  0  0  0  0  0
  -17.4928   36.2730   -7.4670 H   0  0  0  0  0  0  0  0  0  0  0  0
  -14.9407   32.7099   -0.4307 H   0  0  0  0  0  0  0  0  0  0  0  0
  -17.3653   37.2984   -5.0976 H   0  0  0  0  0  0  0  0  0  0  0  0
  -19.5632   38.2100   -7.6268 H   0  0  0  0  0  0  0  0  0  0  0  0
  -18.1127   38.4425   -6.9137 H   0  0  0  0  0  0  0  0  0  0  0  0
  -20.3304   39.5253    3.3838 H   0  0  0  0  0  0  0  0  0  0  0  0
  -15.4237   33.2384   -2.5843 H   0  0  0  0  0  0  0  0  0  0  0  0
  -14.9482   34.7240   -2.1010 H   0  0  0  0  0  0  0  0  0  0  0  0
  -22.4520   40.9684   -3.6964 H   0  0  0  0  0  0  0  0  0  0  0  0
  -20.3001   40.4874   -2.7289 H   0  0  0  0  0  0  0  0  0  0  0  0
  -23.2074   39.7036   -5.6041 H   0  0  0  0  0  0  0  0  0  0  0  0
  -18.8777   36.7815   -1.9621 H   0  0  0  0  0  0  0  0  0  0  0  0
  -18.9188   37.7757    2.5812 H   0  0  0  0  0  0  0  0  0  0  0  0
  -18.8920   38.8043   -3.6712 H   0  0  0  0  0  0  0  0  0  0  0  0
  -21.7946   37.9985   -6.5303 H   0  0  0  0  0  0  0  0  0  0  0  0
  -16.3770   36.1727   -3.3673 H   0  0  0  0  0  0  0  0  0  0  0  0
  -16.2971   34.7623   -4.1867 H   0  0  0  0  0  0  0  0  0  0  0  0
  -20.6714   38.0607   -1.1607 H   0  0  0  0  0  0  0  0  0  0  0  0
  -17.9654   35.8879    2.0372 H   0  0  0  0  0  0  0  0  0  0  0  0
  -19.9465   36.3903   -6.0125 H   0  0  0  0  0  0  0  0  0  0  0  0
  -17.6924   33.7984   -2.3308 H   0  0  0  0  0  0  0  0  0  0  0  0
  1 22  1  0  0  0  0
  2 23  2  0  0  0  0
  3 24  2  0  0  0  0
  4  9  1  0  0  0  0
  5 10  2  0  0  0  0
  5 22  1  0  0  0  0
  6 11  1  0  0  0  0
  6 24  1  0  0  0  0
  7 23  1  0  0  0  0
  7 25  1  0  0  0  0
  8 15  1  0  0  0  0
  8 26  1  0  0  0  0
  8 27  1  0  0  0  0
  9 25  1  0  0  0  0
 10 16  1  0  0  0  0
 11 26  1  0  0  0  0
 12 13  2  0  0  0  0
 12 14  1  0  0  0  0
 13 17  1  0  0  0  0
 14 18  2  0  0  0  0
 15 29  2  0  0  0  0
 16 30  2  0  0  0  0
 17 28  2  0  0  0  0
 18 28  1  0  0  0  0
 19 23  1  0  0  0  0
 19 26  1  0  0  0  0
 20 22  2  0  0  0  0
 20 30  1  0  0  0  0
 21 27  2  0  0  0  0
 21 29  1  0  0  0  0
 24 27  1  0  0  0  0
 25 28  1  0  0  0  0
 29 30  1  0  0  0  0
  4 31  1  0  0  0  0
  4 32  1  0  0  0  0
  6 33  1  0  0  0  0
  7 34  1  0  0  0  0
  9 35  1  0  0  0  0
  9 36  1  0  0  0  0
 10 37  1  0  0  0  0
 11 38  1  0  0  0  0
 11 39  1  0  0  0  0
 12 40  1  0  0  0  0
 13 41  1  0  0  0  0
 14 42  1  0  0  0  0
 15 43  1  0  0  0  0
 16 44  1  0  0  0  0
 17 45  1  0  0  0  0
 18 46  1  0  0  0  0
 19 47  1  0  0  0  0
 19 48  1  0  0  0  0
 20 49  1  0  0  0  0
 21 50  1  0  0  0  0
 25 51  1  0  0  0  0
 26 52  1  0  0  0  0
M  END
> <pdb_id>
4BZO

> <uniprot_id>
P11309

> <usmiles>
Fc1nccc(c1)C2=CN3C(C(=O)NC[C@@H]3CC(=O)N[C@@H](c4ccccc4)CN)=C2

$$$$
677_B_804
          07212402213D 1   1.00000     0.00000     0
            
 43 46  0  0  0  0            999 V2000
   47.0812   51.2599   36.8313 S   0  0  0  0  0  0  0  0  0  0  0  0
   33.4130   48.5892   36.1269 F   0  0  0  0  0  0  0  0  0  0  0  0
   35.5195   47.0664   35.4787 F   0  0  0  0  0  0  0  0  0  0  0  0
   36.2800   52.2699   37.0084 F   0  0  0  0  0  0  0  0  0  0  0  0
   47.8675   51.0992   35.6465 O   0  0  0  0  0  0  0  0  0  0  0  0
   47.3773   52.5714   37.3659 O   0  0  0  0  0  0  0  0  0  0  0  0
   38.0874   51.8619   34.2045 N   0  0  0  0  0  0  0  0  0  0  0  0
   42.1219   49.9843   37.5459 N   0  0  0  0  0  0  0  0  0  0  0  0
   41.3498   51.1831   35.8714 N   0  0  0  0  0  0  0  0  0  0  0  0
   47.4679   50.1741   37.9944 C   0  0  0  0  0  0  0  0  0  0  0  0
   40.3966   51.7791   34.9134 C   0  0  0  0  0  0  0  0  0  0  0  0
   44.9778   52.0494   35.4107 C   0  0  0  0  0  0  0  0  0  0  0  0
   43.5981   52.0956   35.0974 C   0  0  0  0  0  0  0  0  0  0  0  0
   34.8070   50.4509   36.5793 C   0  0  0  0  0  0  0  0  0  0  0  0
   44.5646   50.5560   37.2679 C   0  0  0  0  0  0  0  0  0  0  0  0
   37.0134   48.8509   35.9153 C   0  0  0  0  0  0  0  0  0  0  0  0
   39.5840   49.8980   37.1708 C   0  0  0  0  0  0  0  0  0  0  0  0
   45.4777   51.2834   36.4792 C   0  0  0  0  0  0  0  0  0  0  0  0
   34.6369   49.1266   36.1936 C   0  0  0  0  0  0  0  0  0  0  0  0
   35.7262   48.3334   35.8686 C   0  0  0  0  0  0  0  0  0  0  0  0
   36.1050   50.9841   36.6322 C   0  0  0  0  0  0  0  0  0  0  0  0
   41.0103   50.3552   36.8718 C   0  0  0  0  0  0  0  0  0  0  0  0
   39.0620   51.0316   34.9092 C   0  0  1  0  0  0  0  0  0  0  0  0
   43.1969   50.5716   36.9883 C   0  0  0  0  0  0  0  0  0  0  0  0
   42.6854   51.3710   35.8755 C   0  0  0  0  0  0  0  0  0  0  0  0
   37.2105   50.1806   36.3065 C   0  0  0  0  0  0  0  0  0  0  0  0
   38.5894   50.7576   36.3567 C   0  0  1  0  0  0  0  0  0  0  0  0
   37.2030   51.3955   34.1869 H   0  0  0  0  0  0  0  0  0  0  0  0
   37.9928   52.7383   34.6766 H   0  0  0  0  0  0  0  0  0  0  0  0
   46.8930   50.3276   38.7981 H   0  0  0  0  0  0  0  0  0  0  0  0
   47.3174   49.2478   37.6490 H   0  0  0  0  0  0  0  0  0  0  0  0
   48.4294   50.2838   38.2465 H   0  0  0  0  0  0  0  0  0  0  0  0
   40.7924   51.7419   33.9958 H   0  0  0  0  0  0  0  0  0  0  0  0
   40.2339   52.7325   35.1679 H   0  0  0  0  0  0  0  0  0  0  0  0
   45.6181   52.5787   34.8541 H   0  0  0  0  0  0  0  0  0  0  0  0
   43.2764   52.6427   34.3246 H   0  0  0  0  0  0  0  0  0  0  0  0
   34.0165   51.0159   36.8157 H   0  0  0  0  0  0  0  0  0  0  0  0
   44.9019   50.0193   38.0413 H   0  0  0  0  0  0  0  0  0  0  0  0
   37.7953   48.2774   35.6709 H   0  0  0  0  0  0  0  0  0  0  0  0
   39.3967   50.0054   38.1472 H   0  0  0  0  0  0  0  0  0  0  0  0
   39.4812   48.9366   36.9154 H   0  0  0  0  0  0  0  0  0  0  0  0
   39.1696   50.1632   34.4253 H   0  0  0  0  0  0  0  0  0  0  0  0
   38.5212   51.6431   36.8164 H   0  0  0  0  0  0  0  0  0  0  0  0
  1  5  2  0  0  0  0
  1  6  2  0  0  0  0
  1 10  1  0  0  0  0
  1 18  1  0  0  0  0
  2 19  1  0  0  0  0
  3 20  1  0  0  0  0
  4 21  1  0  0  0  0
  7 23  1  0  0  0  0
  8 22  2  0  0  0  0
  8 24  1  0  0  0  0
  9 11  1  0  0  0  0
  9 22  1  0  0  0  0
  9 25  1  0  0  0  0
 11 23  1  0  0  0  0
 12 13  1  0  0  0  0
 12 18  2  0  0  0  0
 13 25  2  0  0  0  0
 14 19  2  0  0  0  0
 14 21  1  0  0  0  0
 15 18  1  0  0  0  0
 15 24  2  0  0  0  0
 16 20  2  0  0  0  0
 16 26  1  0  0  0  0
 17 22  1  0  0  0  0
 17 27  1  0  0  0  0
 19 20  1  0  0  0  0
 21 26  2  0  0  0  0
 23 27  1  0  0  0  0
 24 25  1  0  0  0  0
 26 27  1  0  0  0  0
  7 28  1  0  0  0  0
  7 29  1  0  0  0  0
 10 30  1  0  0  0  0
 10 31  1  0  0  0  0
 10 32  1  0  0  0  0
 11 33  1  0  0  0  0
 11 34  1  0  0  0  0
 12 35  1  0  0  0  0
 13 36  1  0  0  0  0
 14 37  1  0  0  0  0
 15 38  1  0  0  0  0
 16 39  1  0  0  0  0
 17 40  1  0  0  0  0
 17 41  1  0  0  0  0
 23 42  1  0  0  0  0
 27 43  1  0  0  0  0
M  END
> <pdb_id>
3HAB

> <uniprot_id>
P27487

> <usmiles>
S(=O)(=O)(c1cc2N=C3N(c2cc1)C[C@H](N)[C@@H](c4c(F)cc(F)c(F)c4)C3)C

$$$$
67A_C_803
          07192416573D 1   1.00000     0.00000     0
            
 42 45  0  0  0  0            999 V2000
   14.2424   -4.4290   24.8697 F   0  0  0  0  0  0  0  0  0  0  0  0
   15.7052   -6.0026   25.5178 F   0  0  0  0  0  0  0  0  0  0  0  0
   14.5090   -4.7890   27.0182 F   0  0  0  0  0  0  0  0  0  0  0  0
   19.6724   -3.5180   18.0687 O   0  0  0  0  0  0  0  0  0  0  0  0
   16.2687   -3.7933   25.8186 O   0  0  0  0  0  0  0  0  0  0  0  0
   15.6275   -1.1612   16.5543 N   0  0  0  0  0  0  0  0  0  0  0  0
   17.1483   -2.3144   20.2912 N   0  0  0  0  0  0  0  0  0  0  0  0
   17.6561   -2.6672   21.4163 N   0  0  0  0  0  0  0  0  0  0  0  0
   16.1190   -1.1357   17.8611 N   0  0  0  0  0  0  0  0  0  0  0  0
   16.1888   -2.1443   15.8860 C   0  0  0  0  0  0  0  0  0  0  0  0
   18.8402   -3.3115   21.5074 C   0  0  0  0  0  0  0  0  0  0  0  0
   15.0594    1.7004   20.7780 C   0  0  0  0  0  0  0  0  0  0  0  0
   14.1762    0.6989   20.4367 C   0  0  0  0  0  0  0  0  0  0  0  0
   16.2811    1.7426   20.1496 C   0  0  0  0  0  0  0  0  0  0  0  0
   15.4524   -0.8934   23.8053 C   0  0  0  0  0  0  0  0  0  0  0  0
   19.5598   -3.6171   20.3954 C   0  0  0  0  0  0  0  0  0  0  0  0
   17.0749   -2.7994   16.7309 C   0  0  0  0  0  0  0  0  0  0  0  0
   15.4804   -1.7553   24.8772 C   0  0  0  0  0  0  0  0  0  0  0  0
   14.5145   -0.2493   19.4806 C   0  0  0  0  0  0  0  0  0  0  0  0
   16.6454    0.8093   19.1941 C   0  0  0  0  0  0  0  0  0  0  0  0
   16.1752   -1.1929   22.6577 C   0  0  0  0  0  0  0  0  0  0  0  0
   16.9711   -3.2297   23.6514 C   0  0  0  0  0  0  0  0  0  0  0  0
   19.0591   -3.2588   19.1166 C   0  0  0  0  0  0  0  0  0  0  0  0
   16.2433   -2.9178   24.7868 C   0  0  0  0  0  0  0  0  0  0  0  0
   16.9320   -2.3611   22.5774 C   0  0  0  0  0  0  0  0  0  0  0  0
   15.7612   -0.2069   18.8572 C   0  0  0  0  0  0  0  0  0  0  0  0
   17.7610   -2.5407   19.1484 C   0  0  0  0  0  0  0  0  0  0  0  0
   17.0401   -2.1397   17.9404 C   0  0  0  0  0  0  0  0  0  0  0  0
   15.1979   -4.7512   25.8159 C   0  0  0  0  0  0  0  0  0  0  0  0
   16.0084   -2.3804   14.9311 H   0  0  0  0  0  0  0  0  0  0  0  0
   19.1930   -3.5676   22.4074 H   0  0  0  0  0  0  0  0  0  0  0  0
   14.8164    2.3819   21.4683 H   0  0  0  0  0  0  0  0  0  0  0  0
   13.2821    0.6547   20.8824 H   0  0  0  0  0  0  0  0  0  0  0  0
   16.9256    2.4685   20.3896 H   0  0  0  0  0  0  0  0  0  0  0  0
   14.9127   -0.0528   23.8523 H   0  0  0  0  0  0  0  0  0  0  0  0
   20.4364   -4.0914   20.4777 H   0  0  0  0  0  0  0  0  0  0  0  0
   17.6324   -3.5982   16.5048 H   0  0  0  0  0  0  0  0  0  0  0  0
   14.9618   -1.5510   25.7074 H   0  0  0  0  0  0  0  0  0  0  0  0
   13.8610   -0.9663   19.2379 H   0  0  0  0  0  0  0  0  0  0  0  0
   17.5394    0.8666   18.7496 H   0  0  0  0  0  0  0  0  0  0  0  0
   16.1526   -0.5639   21.8807 H   0  0  0  0  0  0  0  0  0  0  0  0
   17.5149   -4.0678   23.6092 H   0  0  0  0  0  0  0  0  0  0  0  0
  1 29  1  0  0  0  0
  2 29  1  0  0  0  0
  3 29  1  0  0  0  0
  4 23  2  0  0  0  0
  5 24  1  0  0  0  0
  5 29  1  0  0  0  0
  6  9  1  0  0  0  0
  6 10  2  0  0  0  0
  7  8  1  0  0  0  0
  7 27  2  0  0  0  0
  8 11  1  0  0  0  0
  8 25  1  0  0  0  0
  9 26  1  0  0  0  0
  9 28  1  0  0  0  0
 10 17  1  0  0  0  0
 11 16  2  0  0  0  0
 12 13  2  0  0  0  0
 12 14  1  0  0  0  0
 13 19  1  0  0  0  0
 14 20  2  0  0  0  0
 15 18  2  0  0  0  0
 15 21  1  0  0  0  0
 16 23  1  0  0  0  0
 17 28  2  0  0  0  0
 18 24  1  0  0  0  0
 19 26  2  0  0  0  0
 20 26  1  0  0  0  0
 21 25  2  0  0  0  0
 22 24  2  0  0  0  0
 22 25  1  0  0  0  0
 23 27  1  0  0  0  0
 27 28  1  0  0  0  0
 10 30  1  0  0  0  0
 11 31  1  0  0  0  0
 12 32  1  0  0  0  0
 13 33  1  0  0  0  0
 14 34  1  0  0  0  0
 15 35  1  0  0  0  0
 16 36  1  0  0  0  0
 17 37  1  0  0  0  0
 18 38  1  0  0  0  0
 19 39  1  0  0  0  0
 20 40  1  0  0  0  0
 21 41  1  0  0  0  0
 22 42  1  0  0  0  0
M  END
> <pdb_id>
5I2R

> <uniprot_id>
Q9Y233

> <usmiles>
FC(F)(F)Oc1cc(N2N=C(C(=O)C=C2)C=3N(N=CC3)c4ccccc4)ccc1

$$$$
67B_A_1701
          07202413483D 1   1.00000     0.00000     0
            
 39 41  0  0  0  0            999 V2000
    4.2930   14.4505   86.3846 O   0  0  0  0  0  0  0  0  0  0  0  0
    2.3311    6.2169   84.1357 O   0  0  0  0  0  0  0  0  0  0  0  0
   -0.3115    7.4704   84.5576 N   0  0  0  0  0  0  0  0  0  0  0  0
    4.8386   15.3784   84.3928 N   0  0  0  0  0  0  0  0  0  0  0  0
    3.1796    8.3104   83.8864 N   0  0  0  0  0  0  0  0  0  0  0  0
    4.7065   15.4980   82.9212 C   0  0  0  0  0  0  0  0  0  0  0  0
    6.0097   15.9799   84.9760 C   0  0  0  0  0  0  0  0  0  0  0  0
    4.5168    7.7353   83.7378 C   0  0  0  0  0  0  0  0  0  0  0  0
   -1.2376    8.4832   84.7512 C   0  0  0  0  0  0  0  0  0  0  0  0
    3.0445    9.6460   83.8822 C   0  0  0  0  0  0  0  0  0  0  0  0
    0.6249   13.8505   83.7382 C   0  0  0  0  0  0  0  0  0  0  0  0
   -0.6574    9.7272   84.6189 C   0  0  0  0  0  0  0  0  0  0  0  0
    1.6901   14.5935   84.2161 C   0  0  0  0  0  0  0  0  0  0  0  0
    0.6605   12.4950   83.6765 C   0  0  0  0  0  0  0  0  0  0  0  0
    2.8735   12.5461   84.5685 C   0  0  0  0  0  0  0  0  0  0  0  0
    4.0477   14.6193   85.1276 C   0  0  0  0  0  0  0  0  0  0  0  0
    2.1676    7.4308   84.1085 C   0  0  0  0  0  0  0  0  0  0  0  0
    0.8717    8.0594   84.2879 C   0  0  0  0  0  0  0  0  0  0  0  0
    2.8544   13.9141   84.5764 C   0  0  0  0  0  0  0  0  0  0  0  0
    1.7833   11.8044   84.0802 C   0  0  0  0  0  0  0  0  0  0  0  0
    1.8453   10.2965   84.0903 C   0  0  0  0  0  0  0  0  0  0  0  0
    0.7326    9.4520   84.3161 C   0  0  0  0  0  0  0  0  0  0  0  0
   -0.4874    6.4873   84.6084 H   0  0  0  0  0  0  0  0  0  0  0  0
    3.8637   15.0488   82.6246 H   0  0  0  0  0  0  0  0  0  0  0  0
    4.6763   16.4646   82.6667 H   0  0  0  0  0  0  0  0  0  0  0  0
    5.4902   15.0613   82.4796 H   0  0  0  0  0  0  0  0  0  0  0  0
    5.9978   15.8409   85.9662 H   0  0  0  0  0  0  0  0  0  0  0  0
    6.8292   15.5565   84.5898 H   0  0  0  0  0  0  0  0  0  0  0  0
    6.0153   16.9598   84.7769 H   0  0  0  0  0  0  0  0  0  0  0  0
    4.4549    6.7375   83.7601 H   0  0  0  0  0  0  0  0  0  0  0  0
    4.9093    8.0254   82.8650 H   0  0  0  0  0  0  0  0  0  0  0  0
    5.1001    8.0499   84.4866 H   0  0  0  0  0  0  0  0  0  0  0  0
   -2.2037    8.3313   84.9603 H   0  0  0  0  0  0  0  0  0  0  0  0
    3.8597   10.2016   83.7187 H   0  0  0  0  0  0  0  0  0  0  0  0
   -0.1976   14.3276   83.4284 H   0  0  0  0  0  0  0  0  0  0  0  0
   -1.0978   10.6203   84.7112 H   0  0  0  0  0  0  0  0  0  0  0  0
    1.6273   15.5880   84.3007 H   0  0  0  0  0  0  0  0  0  0  0  0
   -0.1343   11.9931   83.3353 H   0  0  0  0  0  0  0  0  0  0  0  0
    3.6779   12.0647   84.9165 H   0  0  0  0  0  0  0  0  0  0  0  0
  1 16  2  0  0  0  0
  2 17  2  0  0  0  0
  3  9  1  0  0  0  0
  3 18  1  0  0  0  0
  4  6  1  0  0  0  0
  4  7  1  0  0  0  0
  4 16  1  0  0  0  0
  5  8  1  0  0  0  0
  5 10  1  0  0  0  0
  5 17  1  0  0  0  0
  9 12  2  0  0  0  0
 10 21  2  0  0  0  0
 11 13  2  0  0  0  0
 11 14  1  0  0  0  0
 12 22  1  0  0  0  0
 13 19  1  0  0  0  0
 14 20  2  0  0  0  0
 15 19  2  0  0  0  0
 15 20  1  0  0  0  0
 16 19  1  0  0  0  0
 17 18  1  0  0  0  0
 18 22  2  0  0  0  0
 20 21  1  0  0  0  0
 21 22  1  0  0  0  0
  3 23  1  0  0  0  0
  6 24  1  0  0  0  0
  6 25  1  0  0  0  0
  6 26  1  0  0  0  0
  7 27  1  0  0  0  0
  7 28  1  0  0  0  0
  7 29  1  0  0  0  0
  8 30  1  0  0  0  0
  8 31  1  0  0  0  0
  8 32  1  0  0  0  0
  9 33  1  0  0  0  0
 10 34  1  0  0  0  0
 11 35  1  0  0  0  0
 12 36  1  0  0  0  0
 13 37  1  0  0  0  0
 14 38  1  0  0  0  0
 15 39  1  0  0  0  0
M  END
> <pdb_id>
5I29

> <uniprot_id>
P21675

> <usmiles>
O=C(N(C)C)c1cc(ccc1)C=2C3=C(NC=C3)C(=O)N(C2)C

$$$$
67B_A_201
          07202405143D 1   1.00000     0.00000     0
            
 39 41  0  0  0  0            999 V2000
    4.4573   16.6829    7.4179 O   0  0  0  0  0  0  0  0  0  0  0  0
   -2.9431   11.9686   11.2958 O   0  0  0  0  0  0  0  0  0  0  0  0
   -1.3621   13.8522   12.9803 N   0  0  0  0  0  0  0  0  0  0  0  0
    4.3518   17.3538    9.5347 N   0  0  0  0  0  0  0  0  0  0  0  0
   -1.2590   11.9163    9.8311 N   0  0  0  0  0  0  0  0  0  0  0  0
    4.7902   18.6967    9.1480 C   0  0  0  0  0  0  0  0  0  0  0  0
    4.0935   17.0825   10.9495 C   0  0  0  0  0  0  0  0  0  0  0  0
   -2.0238   11.0027    8.9772 C   0  0  0  0  0  0  0  0  0  0  0  0
   -0.2935   14.6266   13.3354 C   0  0  0  0  0  0  0  0  0  0  0  0
   -0.0175   12.2818    9.4124 C   0  0  0  0  0  0  0  0  0  0  0  0
    4.2621   12.6791    8.8332 C   0  0  0  0  0  0  0  0  0  0  0  0
    0.6808   14.5245   12.4042 C   0  0  0  0  0  0  0  0  0  0  0  0
    4.6497   13.9802    8.5927 C   0  0  0  0  0  0  0  0  0  0  0  0
    3.0011   12.4102    9.3382 C   0  0  0  0  0  0  0  0  0  0  0  0
    2.4971   14.7745    9.3793 C   0  0  0  0  0  0  0  0  0  0  0  0
    4.2168   16.4093    8.5816 C   0  0  0  0  0  0  0  0  0  0  0  0
   -1.8102   12.3479   10.9767 C   0  0  0  0  0  0  0  0  0  0  0  0
   -1.0733   13.2342   11.7867 C   0  0  0  0  0  0  0  0  0  0  0  0
    3.7792   15.0316    8.8802 C   0  0  0  0  0  0  0  0  0  0  0  0
    2.1147   13.4554    9.6287 C   0  0  0  0  0  0  0  0  0  0  0  0
    0.7675   13.1177   10.1470 C   0  0  0  0  0  0  0  0  0  0  0  0
    0.2129   13.6471   11.4019 C   0  0  0  0  0  0  0  0  0  0  0  0
   -2.1867   13.7585   13.4824 H   0  0  0  0  0  0  0  0  0  0  0  0
    4.9258   18.7309    8.1579 H   0  0  0  0  0  0  0  0  0  0  0  0
    4.0936   19.3637    9.4123 H   0  0  0  0  0  0  0  0  0  0  0  0
    5.6505   18.9124    9.6099 H   0  0  0  0  0  0  0  0  0  0  0  0
    3.8039   16.1317   11.0592 H   0  0  0  0  0  0  0  0  0  0  0  0
    4.9285   17.2396   11.4769 H   0  0  0  0  0  0  0  0  0  0  0  0
    3.3717   17.6910   11.2792 H   0  0  0  0  0  0  0  0  0  0  0  0
   -2.9114   10.8171    9.3987 H   0  0  0  0  0  0  0  0  0  0  0  0
   -2.1620   11.4222    8.0800 H   0  0  0  0  0  0  0  0  0  0  0  0
   -1.5197   10.1457    8.8704 H   0  0  0  0  0  0  0  0  0  0  0  0
   -0.2402   15.1863   14.1623 H   0  0  0  0  0  0  0  0  0  0  0  0
    0.3276   11.9276    8.5432 H   0  0  0  0  0  0  0  0  0  0  0  0
    4.8935   11.9274    8.6424 H   0  0  0  0  0  0  0  0  0  0  0  0
    1.5683   14.9850   12.4218 H   0  0  0  0  0  0  0  0  0  0  0  0
    5.5547   14.1702    8.2122 H   0  0  0  0  0  0  0  0  0  0  0  0
    2.7212   11.4634    9.4966 H   0  0  0  0  0  0  0  0  0  0  0  0
    1.8624   15.5271    9.5551 H   0  0  0  0  0  0  0  0  0  0  0  0
  1 16  2  0  0  0  0
  2 17  2  0  0  0  0
  3  9  1  0  0  0  0
  3 18  1  0  0  0  0
  3 23  1  0  0  0  0
  4  6  1  0  0  0  0
  4  7  1  0  0  0  0
  4 16  1  0  0  0  0
  5  8  1  0  0  0  0
  5 10  1  0  0  0  0
  5 17  1  0  0  0  0
  9 12  2  0  0  0  0
 10 21  2  0  0  0  0
 11 13  2  0  0  0  0
 11 14  1  0  0  0  0
 12 22  1  0  0  0  0
 13 19  1  0  0  0  0
 14 20  2  0  0  0  0
 15 19  2  0  0  0  0
 15 20  1  0  0  0  0
 16 19  1  0  0  0  0
 17 18  1  0  0  0  0
 18 22  2  0  0  0  0
 20 21  1  0  0  0  0
 21 22  1  0  0  0  0
  6 24  1  0  0  0  0
  6 25  1  0  0  0  0
  6 26  1  0  0  0  0
  7 27  1  0  0  0  0
  7 28  1  0  0  0  0
  7 29  1  0  0  0  0
  8 30  1  0  0  0  0
  8 31  1  0  0  0  0
  8 32  1  0  0  0  0
  9 33  1  0  0  0  0
 10 34  1  0  0  0  0
 11 35  1  0  0  0  0
 12 36  1  0  0  0  0
 13 37  1  0  0  0  0
 14 38  1  0  0  0  0
 15 39  1  0  0  0  0
M  END
> <pdb_id>
5I7X

> <uniprot_id>
Q9H8M2

> <usmiles>
O=C(N(C)C)c1cc(ccc1)C=2C3=C(NC=C3)C(=O)N(C2)C

$$$$
67B_A_201
          07212401333D 1   1.00000     0.00000     0
            
 39 41  0  0  0  0            999 V2000
  -12.2606  -19.0863  -15.7325 O   0  0  0  0  0  0  0  0  0  0  0  0
  -16.9182  -23.3079  -23.0759 O   0  0  0  0  0  0  0  0  0  0  0  0
  -14.8249  -24.2413  -21.2255 N   0  0  0  0  0  0  0  0  0  0  0  0
  -14.2780  -19.9324  -15.3817 N   0  0  0  0  0  0  0  0  0  0  0  0
  -16.5797  -21.1955  -22.3768 N   0  0  0  0  0  0  0  0  0  0  0  0
  -13.8930  -20.2669  -14.0081 C   0  0  0  0  0  0  0  0  0  0  0  0
  -15.6532  -20.2616  -15.7933 C   0  0  0  0  0  0  0  0  0  0  0  0
  -17.6300  -20.6874  -23.2704 C   0  0  0  0  0  0  0  0  0  0  0  0
  -13.8602  -24.1490  -20.2665 C   0  0  0  0  0  0  0  0  0  0  0  0
  -15.9369  -20.2961  -21.5768 C   0  0  0  0  0  0  0  0  0  0  0  0
  -13.4867  -17.4202  -19.4136 C   0  0  0  0  0  0  0  0  0  0  0  0
  -13.7094  -22.8628  -19.8856 C   0  0  0  0  0  0  0  0  0  0  0  0
  -13.2693  -17.7072  -18.0757 C   0  0  0  0  0  0  0  0  0  0  0  0
  -14.0295  -18.3535  -20.2932 C   0  0  0  0  0  0  0  0  0  0  0  0
  -14.1309  -19.9132  -18.4881 C   0  0  0  0  0  0  0  0  0  0  0  0
  -13.3613  -19.3318  -16.1830 C   0  0  0  0  0  0  0  0  0  0  0  0
  -16.3118  -22.5161  -22.3465 C   0  0  0  0  0  0  0  0  0  0  0  0
  -15.3168  -22.9901  -21.4746 C   0  0  0  0  0  0  0  0  0  0  0  0
  -13.6092  -18.9717  -17.5976 C   0  0  0  0  0  0  0  0  0  0  0  0
  -14.3504  -19.6273  -19.8259 C   0  0  0  0  0  0  0  0  0  0  0  0
  -14.9650  -20.6663  -20.6931 C   0  0  0  0  0  0  0  0  0  0  0  0
  -14.6238  -22.0942  -20.6339 C   0  0  0  0  0  0  0  0  0  0  0  0
  -15.1233  -25.0845  -21.6727 H   0  0  0  0  0  0  0  0  0  0  0  0
  -12.9431  -19.9957  -13.8527 H   0  0  0  0  0  0  0  0  0  0  0  0
  -14.4874  -19.7808  -13.3675 H   0  0  0  0  0  0  0  0  0  0  0  0
  -13.9857  -21.2525  -13.8665 H   0  0  0  0  0  0  0  0  0  0  0  0
  -15.7914  -19.9862  -16.7446 H   0  0  0  0  0  0  0  0  0  0  0  0
  -15.8001  -21.2470  -15.7068 H   0  0  0  0  0  0  0  0  0  0  0  0
  -16.3018  -19.7753  -15.2078 H   0  0  0  0  0  0  0  0  0  0  0  0
  -18.0157  -21.4454  -23.7962 H   0  0  0  0  0  0  0  0  0  0  0  0
  -18.3510  -20.2578  -22.7268 H   0  0  0  0  0  0  0  0  0  0  0  0
  -17.2378  -20.0131  -23.8961 H   0  0  0  0  0  0  0  0  0  0  0  0
  -13.3408  -24.9206  -19.8993 H   0  0  0  0  0  0  0  0  0  0  0  0
  -16.1873  -19.3300  -21.6403 H   0  0  0  0  0  0  0  0  0  0  0  0
  -13.2460  -16.5131  -19.7589 H   0  0  0  0  0  0  0  0  0  0  0  0
  -13.0679  -22.5190  -19.1998 H   0  0  0  0  0  0  0  0  0  0  0  0
  -12.8760  -17.0202  -17.4646 H   0  0  0  0  0  0  0  0  0  0  0  0
  -14.1875  -18.1125  -21.2508 H   0  0  0  0  0  0  0  0  0  0  0  0
  -14.3539  -20.8266  -18.1477 H   0  0  0  0  0  0  0  0  0  0  0  0
  1 16  2  0  0  0  0
  2 17  2  0  0  0  0
  3  9  1  0  0  0  0
  3 18  1  0  0  0  0
  4  6  1  0  0  0  0
  4  7  1  0  0  0  0
  4 16  1  0  0  0  0
  5  8  1  0  0  0  0
  5 10  1  0  0  0  0
  5 17  1  0  0  0  0
  9 12  2  0  0  0  0
 10 21  2  0  0  0  0
 11 13  2  0  0  0  0
 11 14  1  0  0  0  0
 12 22  1  0  0  0  0
 13 19  1  0  0  0  0
 14 20  2  0  0  0  0
 15 19  2  0  0  0  0
 15 20  1  0  0  0  0
 16 19  1  0  0  0  0
 17 18  1  0  0  0  0
 18 22  2  0  0  0  0
 20 21  1  0  0  0  0
 21 22  1  0  0  0  0
  3 23  1  0  0  0  0
  6 24  1  0  0  0  0
  6 25  1  0  0  0  0
  6 26  1  0  0  0  0
  7 27  1  0  0  0  0
  7 28  1  0  0  0  0
  7 29  1  0  0  0  0
  8 30  1  0  0  0  0
  8 31  1  0  0  0  0
  8 32  1  0  0  0  0
  9 33  1  0  0  0  0
 10 34  1  0  0  0  0
 11 35  1  0  0  0  0
 12 36  1  0  0  0  0
 13 37  1  0  0  0  0
 14 38  1  0  0  0  0
 15 39  1  0  0  0  0
M  END
> <pdb_id>
5I80

> <uniprot_id>
O60885

> <usmiles>
O=C(N(C)C)c1cc(ccc1)C=2C3=C(NC=C3)C(=O)N(C2)C

$$$$
67N_A_206
          07202405143D 1   1.00000     0.00000     0
            
 19 20  0  0  0  0            999 V2000
   -2.9479   11.9858   11.3683 O   0  0  0  0  0  0  0  0  0  0  0  0
   -1.4274   13.6936   13.2646 N   0  0  0  0  0  0  0  0  0  0  0  0
   -1.1289   11.9047   10.0541 N   0  0  0  0  0  0  0  0  0  0  0  0
   -1.8667   11.0840    9.0953 C   0  0  0  0  0  0  0  0  0  0  0  0
   -0.3654   14.3937   13.7588 C   0  0  0  0  0  0  0  0  0  0  0  0
    0.1731   12.2303    9.7817 C   0  0  0  0  0  0  0  0  0  0  0  0
    0.6854   14.2757   12.9230 C   0  0  0  0  0  0  0  0  0  0  0  0
    0.9069   12.9880   10.6167 C   0  0  0  0  0  0  0  0  0  0  0  0
   -1.7729   12.3121   11.1644 C   0  0  0  0  0  0  0  0  0  0  0  0
   -1.0648   13.1167   12.0800 C   0  0  0  0  0  0  0  0  0  0  0  0
    0.2721   13.4748   11.8353 C   0  0  0  0  0  0  0  0  0  0  0  0
   -2.2987   13.6196   13.6845 H   0  0  0  0  0  0  0  0  0  0  0  0
   -2.7961   10.9327    9.4317 H   0  0  0  0  0  0  0  0  0  0  0  0
   -1.9038   11.5541    8.2134 H   0  0  0  0  0  0  0  0  0  0  0  0
   -1.4047   10.2040    8.9848 H   0  0  0  0  0  0  0  0  0  0  0  0
   -0.3666   14.9153   14.6119 H   0  0  0  0  0  0  0  0  0  0  0  0
    0.5907   11.8951    8.9372 H   0  0  0  0  0  0  0  0  0  0  0  0
    1.5909   14.6807   13.0495 H   0  0  0  0  0  0  0  0  0  0  0  0
    1.8592   13.2105   10.4078 H   0  0  0  0  0  0  0  0  0  0  0  0
  1  9  2  0  0  0  0
  2  5  1  0  0  0  0
  2 10  1  0  0  0  0
  2 12  1  0  0  0  0
  3  4  1  0  0  0  0
  3  6  1  0  0  0  0
  3  9  1  0  0  0  0
  5  7  2  0  0  0  0
  6  8  2  0  0  0  0
  7 11  1  0  0  0  0
  8 11  1  0  0  0  0
  9 10  1  0  0  0  0
 10 11  2  0  0  0  0
  4 13  1  0  0  0  0
  4 14  1  0  0  0  0
  4 15  1  0  0  0  0
  5 16  1  0  0  0  0
  6 17  1  0  0  0  0
  7 18  1  0  0  0  0
  8 19  1  0  0  0  0
M  END
> <pdb_id>
5I40

> <uniprot_id>
Q9H8M2

> <usmiles>
O=C1N(C=CC2=C1NC=C2)C

$$$$
67Q_B_302
          07202405583D 1   1.00000     0.00000     0
            
 47 49  0  0  0  0            999 V2000
   24.8580  100.3690   25.9370 S   0  0  0  0  0  0  0  0  0  0  0  0
   14.9040   97.3740   28.0600 S   0  0  0  0  0  0  0  0  0  0  0  0
   19.2900  101.0420   27.7520 F   0  0  0  0  0  0  0  0  0  0  0  0
   18.9180   99.0920   25.7980 F   0  0  0  0  0  0  0  0  0  0  0  0
   13.9150   97.8220   28.8190 O   0  0  0  0  0  0  0  0  0  0  0  0
   14.2510   97.1640   26.9310 O   0  0  0  0  0  0  0  0  0  0  0  0
   22.2200   98.1510   29.3130 O   0  0  0  0  0  0  0  0  0  0  0  0
   15.3470   95.9930   28.7400 N   0  0  0  0  0  0  0  0  0  0  0  0
   22.7530  101.4570   26.0230 N   0  0  0  0  0  0  0  0  0  0  0  0
   22.4470   97.4430   27.1840 N   0  0  0  0  0  0  0  0  0  0  0  0
   18.2050   96.8030   29.4290 N   0  0  0  0  0  0  0  0  0  0  0  0
   19.9940   96.0610   27.5260 N   0  0  0  0  0  0  0  0  0  0  0  0
   24.5190  103.0310   25.1040 C   0  0  0  0  0  0  0  0  0  0  0  0
   18.4190   94.4790   26.6040 C   0  0  0  0  0  0  0  0  0  0  0  0
   22.4950  100.2250   26.5120 C   0  0  0  0  0  0  0  0  0  0  0  0
   23.7370   97.9670   27.0360 C   0  0  0  0  0  0  0  0  0  0  0  0
   16.5030   95.2390   28.5590 C   0  0  0  0  0  0  0  0  0  0  0  0
   19.4110   97.3550   29.3770 C   0  0  0  0  0  0  0  0  0  0  0  0
   16.3990   99.4480   28.9160 C   0  0  0  0  0  0  0  0  0  0  0  0
   17.4410  100.3120   28.8300 C   0  0  0  0  0  0  0  0  0  0  0  0
   17.0780   98.3880   26.9330 C   0  0  0  0  0  0  0  0  0  0  0  0
   23.9850  101.7230   25.6660 C   0  0  0  0  0  0  0  0  0  0  0  0
   23.6350   99.3970   26.5550 C   0  0  0  0  0  0  0  0  0  0  0  0
   16.2250   98.5020   27.9570 C   0  0  0  0  0  0  0  0  0  0  0  0
   21.7170   97.5930   28.3730 C   0  0  0  0  0  0  0  0  0  0  0  0
   18.3100  100.2050   27.7900 C   0  0  0  0  0  0  0  0  0  0  0  0
   18.1270   99.2390   26.8290 C   0  0  0  0  0  0  0  0  0  0  0  0
   18.7870   95.5290   27.5860 C   0  0  0  0  0  0  0  0  0  0  0  0
   20.3190   96.9780   28.4130 C   0  0  0  0  0  0  0  0  0  0  0  0
   17.8790   95.8980   28.5420 C   0  0  0  0  0  0  0  0  0  0  0  0
   14.6053   95.3610   28.5155 H   0  0  0  0  0  0  0  0  0  0  0  0
   22.0338   96.9474   26.4200 H   0  0  0  0  0  0  0  0  0  0  0  0
   23.7741  103.6951   25.0401 H   0  0  0  0  0  0  0  0  0  0  0  0
   25.2320  103.3869   25.7081 H   0  0  0  0  0  0  0  0  0  0  0  0
   24.9021  102.8712   24.1942 H   0  0  0  0  0  0  0  0  0  0  0  0
   17.4814   94.1764   26.7752 H   0  0  0  0  0  0  0  0  0  0  0  0
   18.4854   94.8506   25.6780 H   0  0  0  0  0  0  0  0  0  0  0  0
   19.0422   93.7025   26.6970 H   0  0  0  0  0  0  0  0  0  0  0  0
   21.5880   99.9302   26.8128 H   0  0  0  0  0  0  0  0  0  0  0  0
   24.2449   97.4238   26.3675 H   0  0  0  0  0  0  0  0  0  0  0  0
   24.2120   97.9422   27.9157 H   0  0  0  0  0  0  0  0  0  0  0  0
   16.4018   94.7704   27.6814 H   0  0  0  0  0  0  0  0  0  0  0  0
   16.5204   94.5644   29.2970 H   0  0  0  0  0  0  0  0  0  0  0  0
   19.6634   98.0536   30.0465 H   0  0  0  0  0  0  0  0  0  0  0  0
   15.7606   99.5073   29.6834 H   0  0  0  0  0  0  0  0  0  0  0  0
   17.5687  101.0203   29.5243 H   0  0  0  0  0  0  0  0  0  0  0  0
   16.9415   97.6753   26.2449 H   0  0  0  0  0  0  0  0  0  0  0  0
  1 22  1  0  0  0  0
  1 23  1  0  0  0  0
  2  5  2  0  0  0  0
  2  6  2  0  0  0  0
  2  8  1  0  0  0  0
  2 24  1  0  0  0  0
  3 26  1  0  0  0  0
  4 27  1  0  0  0  0
  7 25  2  0  0  0  0
  8 17  1  0  0  0  0
  9 15  1  0  0  0  0
  9 22  2  0  0  0  0
 10 16  1  0  0  0  0
 10 25  1  0  0  0  0
 11 18  2  0  0  0  0
 11 30  1  0  0  0  0
 12 28  1  0  0  0  0
 12 29  2  0  0  0  0
 13 22  1  0  0  0  0
 14 28  1  0  0  0  0
 15 23  2  0  0  0  0
 16 23  1  0  0  0  0
 17 30  1  0  0  0  0
 18 29  1  0  0  0  0
 19 20  2  0  0  0  0
 19 24  1  0  0  0  0
 20 26  1  0  0  0  0
 21 24  2  0  0  0  0
 21 27  1  0  0  0  0
 25 29  1  0  0  0  0
 26 27  2  0  0  0  0
 28 30  2  0  0  0  0
  8 31  1  0  0  0  0
 10 32  1  0  0  0  0
 13 33  1  0  0  0  0
 13 34  1  0  0  0  0
 13 35  1  0  0  0  0
 14 36  1  0  0  0  0
 14 37  1  0  0  0  0
 14 38  1  0  0  0  0
 15 39  1  0  0  0  0
 16 40  1  0  0  0  0
 16 41  1  0  0  0  0
 17 42  1  0  0  0  0
 17 43  1  0  0  0  0
 18 44  1  0  0  0  0
 19 45  1  0  0  0  0
 20 46  1  0  0  0  0
 21 47  1  0  0  0  0
M  END
> <pdb_id>
5I59

> <uniprot_id>
P35439

> <usmiles>
S(=O)(=O)(NCc1ncc(nc1C)C(=O)NCC=2SC(=NC2)C)c3cc(F)c(F)cc3

$$$$
67V_A_506
          07202406103D 1   1.00000     0.00000     0
            
 37 40  0  0  0  0            999 V2000
  -66.7903   11.7942    8.2843 O   0  0  0  0  0  0  0  0  0  0  0  0
  -65.5845   11.3312    6.4399 O   0  0  0  0  0  0  0  0  0  0  0  0
  -63.6343   10.3280   11.0201 N   0  0  0  0  0  0  0  0  0  0  0  0
  -60.9595   10.3539   11.0759 N   0  0  0  0  0  0  0  0  0  0  0  0
  -66.7262   10.8458    5.7856 C   0  0  0  0  0  0  0  0  0  0  0  0
  -66.2040   10.4040   10.6697 C   0  0  0  0  0  0  0  0  0  0  0  0
  -58.2817   11.6047    7.8238 C   0  0  0  0  0  0  0  0  0  0  0  0
  -57.5911   11.1573    9.0679 C   0  0  0  0  0  0  0  0  0  0  0  0
  -59.7853   11.6010    7.7548 C   0  0  0  0  0  0  0  0  0  0  0  0
  -56.1785   10.2022   11.9322 C   0  0  0  0  0  0  0  0  0  0  0  0
  -56.9666    8.9001   11.7775 C   0  0  0  0  0  0  0  0  0  0  0  0
  -63.1937   11.3419    8.2825 C   0  0  0  0  0  0  0  0  0  0  0  0
  -65.7472   11.4558    7.8297 C   0  0  0  0  0  0  0  0  0  0  0  0
  -62.2079   10.5490   10.4827 C   0  0  0  0  0  0  0  0  0  0  0  0
  -64.7826   10.6241   10.1512 C   0  0  0  0  0  0  0  0  0  0  0  0
  -59.9731   10.7108   10.1609 C   0  0  0  0  0  0  0  0  0  0  0  0
  -57.6667   10.2495   11.5352 C   0  0  0  0  0  0  0  0  0  0  0  0
  -64.5681   11.1362    8.7734 C   0  0  0  0  0  0  0  0  0  0  0  0
  -61.9908   11.0303    9.1914 C   0  0  0  0  0  0  0  0  0  0  0  0
  -58.3984   10.7037   10.2580 C   0  0  0  0  0  0  0  0  0  0  0  0
  -60.6233   11.1293    8.9905 C   0  0  0  0  0  0  0  0  0  0  0  0
  -60.8004   10.0145   12.0030 H   0  0  0  0  0  0  0  0  0  0  0  0
  -66.5455   10.7809    4.8042 H   0  0  0  0  0  0  0  0  0  0  0  0
  -66.9556    9.9405    6.1429 H   0  0  0  0  0  0  0  0  0  0  0  0
  -67.4913   11.4701    5.9431 H   0  0  0  0  0  0  0  0  0  0  0  0
  -66.8607   10.6525    9.9577 H   0  0  0  0  0  0  0  0  0  0  0  0
  -66.3247    9.4417   10.9134 H   0  0  0  0  0  0  0  0  0  0  0  0
  -66.3562   10.9740   11.4771 H   0  0  0  0  0  0  0  0  0  0  0  0
  -57.7457   11.9072    7.0356 H   0  0  0  0  0  0  0  0  0  0  0  0
  -56.5921   11.1581    9.1128 H   0  0  0  0  0  0  0  0  0  0  0  0
  -60.2487   11.8995    6.9204 H   0  0  0  0  0  0  0  0  0  0  0  0
  -55.4751   10.4430   11.2634 H   0  0  0  0  0  0  0  0  0  0  0  0
  -55.8937   10.5089   12.8405 H   0  0  0  0  0  0  0  0  0  0  0  0
  -57.1960    8.3563   12.5848 H   0  0  0  0  0  0  0  0  0  0  0  0
  -56.7774    8.2904   11.0077 H   0  0  0  0  0  0  0  0  0  0  0  0
  -63.0420   11.6852    7.3556 H   0  0  0  0  0  0  0  0  0  0  0  0
  -58.2169   10.4870   12.3358 H   0  0  0  0  0  0  0  0  0  0  0  0
  1 13  2  0  0  0  0
  2  5  1  0  0  0  0
  2 13  1  0  0  0  0
  3 14  1  0  0  0  0
  3 15  2  0  0  0  0
  4 14  1  0  0  0  0
  4 16  1  0  0  0  0
  6 15  1  0  0  0  0
  7  8  2  0  0  0  0
  7  9  1  0  0  0  0
  8 20  1  0  0  0  0
  9 21  2  0  0  0  0
 10 11  1  0  0  0  0
 10 17  1  0  0  0  0
 11 17  1  0  0  0  0
 12 18  2  0  0  0  0
 12 19  1  0  0  0  0
 13 18  1  0  0  0  0
 14 19  2  0  0  0  0
 15 18  1  0  0  0  0
 16 20  2  0  0  0  0
 16 21  1  0  0  0  0
 17 20  1  0  0  0  0
 19 21  1  0  0  0  0
  4 22  1  0  0  0  0
  5 23  1  0  0  0  0
  5 24  1  0  0  0  0
  5 25  1  0  0  0  0
  6 26  1  0  0  0  0
  6 27  1  0  0  0  0
  6 28  1  0  0  0  0
  7 29  1  0  0  0  0
  8 30  1  0  0  0  0
  9 31  1  0  0  0  0
 10 32  1  0  0  0  0
 10 33  1  0  0  0  0
 11 34  1  0  0  0  0
 11 35  1  0  0  0  0
 12 36  1  0  0  0  0
 17 37  1  0  0  0  0
M  END
> <pdb_id>
7VBV

> <uniprot_id>
Q15119

> <usmiles>
O=C(OC)c1c(nc2Nc3c(c2c1)cccc3C4CC4)C

$$$$
680_A_502
          07192421043D 1   1.00000     0.00000     0
            
 20 20  0  0  0  0            999 V2000
  -78.4193   87.1885   94.2707 O   0  5  0  0  0  0  0  0  0  0  0  0
  -79.9755   87.7373   93.1281 O   0  0  0  0  0  0  0  0  0  0  0  0
  -80.6392   86.5896   90.8681 O   0  0  0  0  0  0  0  0  0  0  0  0
  -78.0490   82.8924   89.7490 N   0  0  0  0  0  0  0  0  0  0  0  0
  -77.0138   85.0687   93.6458 N   0  0  0  0  0  0  0  0  0  0  0  0
  -79.3650   84.7793   90.3066 N   0  0  0  0  0  0  0  0  0  0  0  0
  -77.5866   84.0050   91.6904 N   0  0  0  0  0  0  0  0  0  0  0  0
  -79.0915   86.9591   93.2628 N   0  3  0  0  0  0  0  0  0  0  0  0
  -75.9938   84.0428   93.8785 C   0  0  0  0  0  0  0  0  0  0  0  0
  -78.3305   83.8909   90.5870 C   0  0  0  0  0  0  0  0  0  0  0  0
  -79.6247   85.7785   91.1907 C   0  0  0  0  0  0  0  0  0  0  0  0
  -77.8134   85.0056   92.5847 C   0  0  0  0  0  0  0  0  0  0  0  0
  -78.8485   85.9484   92.3457 C   0  0  0  0  0  0  0  0  0  0  0  0
  -77.3042   82.2589   89.9584 H   0  0  0  0  0  0  0  0  0  0  0  0
  -78.5828   82.7771   88.9113 H   0  0  0  0  0  0  0  0  0  0  0  0
  -77.1099   85.8254   94.2925 H   0  0  0  0  0  0  0  0  0  0  0  0
  -79.9063   84.6842   89.4711 H   0  0  0  0  0  0  0  0  0  0  0  0
  -75.4931   84.2549   94.7178 H   0  0  0  0  0  0  0  0  0  0  0  0
  -76.4342   83.1496   93.9698 H   0  0  0  0  0  0  0  0  0  0  0  0
  -75.3580   84.0237   93.1069 H   0  0  0  0  0  0  0  0  0  0  0  0
  1  8  1  0  0  0  0
  2  8  2  0  0  0  0
  3 11  2  0  0  0  0
  4 10  1  0  0  0  0
  5  9  1  0  0  0  0
  5 12  1  0  0  0  0
  6 10  1  0  0  0  0
  6 11  1  0  0  0  0
  7 10  2  0  0  0  0
  7 12  1  0  0  0  0
  8 13  1  0  0  0  0
 11 13  1  0  0  0  0
 12 13  2  0  0  0  0
  4 14  1  0  0  0  0
  4 15  1  0  0  0  0
  5 16  1  0  0  0  0
  6 17  1  0  0  0  0
  9 18  1  0  0  0  0
  9 19  1  0  0  0  0
  9 20  1  0  0  0  0
M  CHG  2   1  -1   8   1
M  END
> <pdb_id>
1TX2

> <uniprot_id>
Q81VW8

> <usmiles>
[O-][N+](=O)C=1C(=O)NC(=NC1NC)N

$$$$
683_A_404
          07202415313D 1   1.00000     0.00000     0
            
 33 34  0  0  0  0            999 V2000
    4.7964  -35.8192   34.4937 O   0  0  0  0  0  0  0  0  0  0  0  0
    4.9838  -33.6911   34.0673 O   0  0  0  0  0  0  0  0  0  0  0  0
    5.1025  -30.9184   33.4193 O   0  0  0  0  0  0  0  0  0  0  0  0
    5.3207  -29.2403   32.0414 O   0  0  0  0  0  0  0  0  0  0  0  0
    3.2426  -32.5820   32.5203 N   0  0  0  0  0  0  0  0  0  0  0  0
    0.3061  -27.8053   31.4602 C   0  0  0  0  0  0  0  0  0  0  0  0
    1.8643  -35.3782   30.4597 C   0  0  0  0  0  0  0  0  0  0  0  0
    2.4768  -36.4595   31.0677 C   0  0  0  0  0  0  0  0  0  0  0  0
    2.1242  -34.1034   30.9328 C   0  0  0  0  0  0  0  0  0  0  0  0
    3.3342  -36.2682   32.1387 C   0  0  0  0  0  0  0  0  0  0  0  0
    1.1283  -31.4342   31.9555 C   0  0  0  0  0  0  0  0  0  0  0  0
    0.4261  -30.2714   31.6957 C   0  0  0  0  0  0  0  0  0  0  0  0
    2.4282  -28.9927   32.0423 C   0  0  0  0  0  0  0  0  0  0  0  0
    4.5068  -34.8202   33.7813 C   0  0  0  0  0  0  0  0  0  0  0  0
    4.5926  -30.1026   32.6038 C   0  0  0  0  0  0  0  0  0  0  0  0
    2.9653  -33.8957   32.0170 C   0  0  0  0  0  0  0  0  0  0  0  0
    2.4847  -31.3968   32.2409 C   0  0  0  0  0  0  0  0  0  0  0  0
    1.0770  -29.0516   31.7397 C   0  0  0  0  0  0  0  0  0  0  0  0
    3.5859  -34.9882   32.6176 C   0  0  0  0  0  0  0  0  0  0  0  0
    3.1366  -30.1648   32.2895 C   0  0  0  0  0  0  0  0  0  0  0  0
    4.4200  -36.7184   34.2706 H   0  0  0  0  0  0  0  0  0  0  0  0
    4.5276  -31.6034   33.8668 H   0  0  0  0  0  0  0  0  0  0  0  0
    4.0364  -32.4832   33.1204 H   0  0  0  0  0  0  0  0  0  0  0  0
    0.9140  -27.0145   31.5307 H   0  0  0  0  0  0  0  0  0  0  0  0
   -0.0769  -27.8501   30.5376 H   0  0  0  0  0  0  0  0  0  0  0  0
   -0.4355  -27.7160   32.1250 H   0  0  0  0  0  0  0  0  0  0  0  0
    1.2424  -35.5156   29.6888 H   0  0  0  0  0  0  0  0  0  0  0  0
    2.2994  -37.3846   30.7321 H   0  0  0  0  0  0  0  0  0  0  0  0
    1.6978  -33.3175   30.4850 H   0  0  0  0  0  0  0  0  0  0  0  0
    3.7746  -37.0558   32.5698 H   0  0  0  0  0  0  0  0  0  0  0  0
    0.6517  -32.3131   31.9373 H   0  0  0  0  0  0  0  0  0  0  0  0
   -0.5488  -30.3122   31.4768 H   0  0  0  0  0  0  0  0  0  0  0  0
    2.8938  -28.1086   32.0831 H   0  0  0  0  0  0  0  0  0  0  0  0
  1 14  1  0  0  0  0
  2 14  2  0  0  0  0
  3 15  1  0  0  0  0
  4 15  2  0  0  0  0
  5 16  1  0  0  0  0
  5 17  1  0  0  0  0
  6 18  1  0  0  0  0
  7  8  2  0  0  0  0
  7  9  1  0  0  0  0
  8 10  1  0  0  0  0
  9 16  2  0  0  0  0
 10 19  2  0  0  0  0
 11 12  1  0  0  0  0
 11 17  2  0  0  0  0
 12 18  2  0  0  0  0
 13 18  1  0  0  0  0
 13 20  2  0  0  0  0
 14 19  1  0  0  0  0
 15 20  1  0  0  0  0
 16 19  1  0  0  0  0
 17 20  1  0  0  0  0
  1 21  1  0  0  0  0
  3 22  1  0  0  0  0
  5 23  1  0  0  0  0
  6 24  1  0  0  0  0
  6 25  1  0  0  0  0
  6 26  1  0  0  0  0
  7 27  1  0  0  0  0
  8 28  1  0  0  0  0
  9 29  1  0  0  0  0
 10 30  1  0  0  0  0
 11 31  1  0  0  0  0
 12 32  1  0  0  0  0
 13 33  1  0  0  0  0
M  END
> <pdb_id>
4GKM

> <uniprot_id>
P66992

> <usmiles>
O=C(O)c1c(Nc2c(cccc2)C(=O)O)ccc(c1)C

$$$$
68C_A_402
          07192417023D 1   1.00000     0.00000     0
            
 26 28  0  0  0  0            999 V2000
   -4.9835   40.2560   24.1435 S   0  0  0  0  0  0  0  0  0  0  0  0
  -10.4239   40.1816   24.9253 S   0  0  0  0  0  0  0  0  0  0  0  0
  -12.4395   36.5827   22.1751 O   0  0  0  0  0  0  0  0  0  0  0  0
   -7.5389   40.3067   24.8689 O   0  0  0  0  0  0  0  0  0  0  0  0
   -3.8147   39.7965   21.9322 N   0  0  0  0  0  0  0  0  0  0  0  0
   -5.1057   39.3997   21.7106 N   0  0  0  0  0  0  0  0  0  0  0  0
  -12.9991   39.5251   24.9694 N   0  0  0  0  0  0  0  0  0  0  0  0
  -13.7651   37.7699   23.5719 N   0  0  0  0  0  0  0  0  0  0  0  0
   -7.1640   39.3011   22.8802 N   0  0  0  0  0  0  0  0  0  0  0  0
   -9.4763   37.3663   22.1663 C   0  0  0  0  0  0  0  0  0  0  0  0
   -3.5972   40.2477   23.1255 C   0  0  0  0  0  0  0  0  0  0  0  0
  -13.9403   38.7650   24.5082 C   0  0  0  0  0  0  0  0  0  0  0  0
   -5.8222   39.5988   22.7934 C   0  0  0  0  0  0  0  0  0  0  0  0
  -11.7887   39.2552   24.4353 C   0  0  0  0  0  0  0  0  0  0  0  0
  -12.5474   37.4703   23.0075 C   0  0  0  0  0  0  0  0  0  0  0  0
   -7.9664   39.6848   23.9114 C   0  0  0  0  0  0  0  0  0  0  0  0
   -9.4143   39.2693   23.8620 C   0  0  0  0  0  0  0  0  0  0  0  0
  -10.0867   38.2916   23.1464 C   0  0  0  0  0  0  0  0  0  0  0  0
  -11.4700   38.3056   23.4942 C   0  0  0  0  0  0  0  0  0  0  0  0
  -14.5635   37.2386   23.2885 H   0  0  0  0  0  0  0  0  0  0  0  0
   -7.5749   38.7697   22.1394 H   0  0  0  0  0  0  0  0  0  0  0  0
  -10.1811   36.7622   21.7945 H   0  0  0  0  0  0  0  0  0  0  0  0
   -9.0628   37.8929   21.4235 H   0  0  0  0  0  0  0  0  0  0  0  0
   -8.7725   36.8185   22.6186 H   0  0  0  0  0  0  0  0  0  0  0  0
   -2.6990   40.5648   23.4300 H   0  0  0  0  0  0  0  0  0  0  0  0
  -14.8654   38.9116   24.8585 H   0  0  0  0  0  0  0  0  0  0  0  0
  1 11  1  0  0  0  0
  1 13  1  0  0  0  0
  2 14  1  0  0  0  0
  2 17  1  0  0  0  0
  3 15  2  0  0  0  0
  4 16  2  0  0  0  0
  5  6  1  0  0  0  0
  5 11  2  0  0  0  0
  6 13  2  0  0  0  0
  7 12  2  0  0  0  0
  7 14  1  0  0  0  0
  8 12  1  0  0  0  0
  8 15  1  0  0  0  0
  9 13  1  0  0  0  0
  9 16  1  0  0  0  0
 10 18  1  0  0  0  0
 14 19  2  0  0  0  0
 15 19  1  0  0  0  0
 16 17  1  0  0  0  0
 17 18  2  0  0  0  0
 18 19  1  0  0  0  0
  8 20  1  0  0  0  0
  9 21  1  0  0  0  0
 10 22  1  0  0  0  0
 10 23  1  0  0  0  0
 10 24  1  0  0  0  0
 11 25  1  0  0  0  0
 12 26  1  0  0  0  0
M  END
> <pdb_id>
5I5X

> <uniprot_id>
O15382

> <usmiles>
S1C=2N=CNC(=O)C2C(=C1C(=O)NC=3SC=NN3)C

$$$$
68D_B_402
          07192417023D 1   1.00000     0.00000     0
            
 37 39  0  0  0  0            999 V2000
  -10.6677   39.8831   24.9305 S   0  0  0  0  0  0  0  0  0  0  0  0
   -8.4596   40.1474   18.8563 O   0  0  0  0  0  0  0  0  0  0  0  0
   -7.7452   38.6023   20.1672 O   0  0  0  0  0  0  0  0  0  0  0  0
   -7.7696   40.1608   24.8527 O   0  0  0  0  0  0  0  0  0  0  0  0
  -12.5198   36.2529   22.1059 O   0  0  0  0  0  0  0  0  0  0  0  0
  -13.2500   39.1642   24.9225 N   0  0  0  0  0  0  0  0  0  0  0  0
  -13.9455   37.3934   23.4944 N   0  0  0  0  0  0  0  0  0  0  0  0
   -7.4254   39.1750   22.8563 N   0  0  0  0  0  0  0  0  0  0  0  0
   -9.6114   37.0985   22.1939 C   0  0  0  0  0  0  0  0  0  0  0  0
  -14.1643   38.3840   24.4365 C   0  0  0  0  0  0  0  0  0  0  0  0
   -3.8469   39.9079   23.3154 C   0  0  0  0  0  0  0  0  0  0  0  0
   -3.5867   40.6559   22.1897 C   0  0  0  0  0  0  0  0  0  0  0  0
   -5.1239   39.4167   23.5105 C   0  0  0  0  0  0  0  0  0  0  0  0
   -4.5963   40.9156   21.2840 C   0  0  0  0  0  0  0  0  0  0  0  0
   -6.8956   40.8219   20.4462 C   0  0  0  0  0  0  0  0  0  0  0  0
   -7.7486   39.7835   19.7773 C   0  0  0  0  0  0  0  0  0  0  0  0
  -12.0154   38.9441   24.4220 C   0  0  0  0  0  0  0  0  0  0  0  0
   -8.2074   39.4760   23.9394 C   0  0  0  0  0  0  0  0  0  0  0  0
  -12.7031   37.1220   22.9551 C   0  0  0  0  0  0  0  0  0  0  0  0
   -9.6305   39.0024   23.8806 C   0  0  0  0  0  0  0  0  0  0  0  0
   -6.1342   39.6833   22.6074 C   0  0  0  0  0  0  0  0  0  0  0  0
  -10.2737   38.0095   23.1652 C   0  0  0  0  0  0  0  0  0  0  0  0
   -5.8767   40.4368   21.4738 C   0  0  0  0  0  0  0  0  0  0  0  0
  -11.6677   37.9867   23.4856 C   0  0  0  0  0  0  0  0  0  0  0  0
   -8.4450   41.1026   18.5606 H   0  0  0  0  0  0  0  0  0  0  0  0
  -14.7256   36.8472   23.1893 H   0  0  0  0  0  0  0  0  0  0  0  0
   -7.8032   38.5393   22.1832 H   0  0  0  0  0  0  0  0  0  0  0  0
  -10.2890   36.4711   21.8100 H   0  0  0  0  0  0  0  0  0  0  0  0
   -9.2012   37.6371   21.4580 H   0  0  0  0  0  0  0  0  0  0  0  0
   -8.8989   36.5747   22.6607 H   0  0  0  0  0  0  0  0  0  0  0  0
  -15.0997   38.5072   24.7677 H   0  0  0  0  0  0  0  0  0  0  0  0
   -3.1240   39.7230   23.9812 H   0  0  0  0  0  0  0  0  0  0  0  0
   -2.6662   41.0113   22.0275 H   0  0  0  0  0  0  0  0  0  0  0  0
   -5.3193   38.8598   24.3177 H   0  0  0  0  0  0  0  0  0  0  0  0
   -4.3950   41.4633   20.4719 H   0  0  0  0  0  0  0  0  0  0  0  0
   -7.5224   41.4605   20.8925 H   0  0  0  0  0  0  0  0  0  0  0  0
   -6.4001   41.2952   19.7178 H   0  0  0  0  0  0  0  0  0  0  0  0
  1 17  1  0  0  0  0
  1 20  1  0  0  0  0
  2 16  1  0  0  0  0
  3 16  2  0  0  0  0
  4 18  2  0  0  0  0
  5 19  2  0  0  0  0
  6 10  2  0  0  0  0
  6 17  1  0  0  0  0
  7 10  1  0  0  0  0
  7 19  1  0  0  0  0
  8 18  1  0  0  0  0
  8 21  1  0  0  0  0
  9 22  1  0  0  0  0
 11 12  2  0  0  0  0
 11 13  1  0  0  0  0
 12 14  1  0  0  0  0
 13 21  2  0  0  0  0
 14 23  2  0  0  0  0
 15 16  1  0  0  0  0
 15 23  1  0  0  0  0
 17 24  2  0  0  0  0
 18 20  1  0  0  0  0
 19 24  1  0  0  0  0
 20 22  2  0  0  0  0
 21 23  1  0  0  0  0
 22 24  1  0  0  0  0
  2 25  1  0  0  0  0
  7 26  1  0  0  0  0
  8 27  1  0  0  0  0
  9 28  1  0  0  0  0
  9 29  1  0  0  0  0
  9 30  1  0  0  0  0
 10 31  1  0  0  0  0
 11 32  1  0  0  0  0
 12 33  1  0  0  0  0
 13 34  1  0  0  0  0
 14 35  1  0  0  0  0
 15 36  1  0  0  0  0
 15 37  1  0  0  0  0
M  END
> <pdb_id>
5I5Y

> <uniprot_id>
O15382

> <usmiles>
S1C=2N=CNC(=O)C2C(=C1C(=O)Nc3c(cccc3)CC(=O)O)C

$$$$
68E_A_1004
          07202406303D 1   1.00000     0.00000     0
            
 54 57  0  0  0  0            999 V2000
   28.9020  178.7220   18.6620 S   0  0  0  0  0  0  0  0  0  0  0  0
   25.6570  170.7170   17.1230 S   0  0  0  0  0  0  0  0  0  0  0  0
   24.3940  171.4860   16.6930 O   0  0  0  0  0  0  0  0  0  0  0  0
   26.1560  169.8820   15.9410 O   0  0  0  0  0  0  0  0  0  0  0  0
   28.5140  184.3580   18.6350 O   0  0  0  0  0  0  0  0  0  0  0  0
   25.2610  173.2360   18.5060 O   0  0  0  0  0  0  0  0  0  0  0  0
   30.4040  176.5680   19.7200 O   0  0  0  0  0  0  0  0  0  0  0  0
   26.8180  171.8390   17.6020 N   0  0  0  0  0  0  0  0  0  0  0  0
   27.5920  168.9790   18.6590 N   0  0  0  0  0  0  0  0  0  0  0  0
   31.3140  176.2160   20.7740 C   0  0  0  0  0  0  0  0  0  0  0  0
   28.6070  172.1490   20.0290 C   0  0  0  0  0  0  0  0  0  0  0  0
   29.5270  183.7070   17.8760 C   0  0  0  0  0  0  0  0  0  0  0  0
   28.6170  168.2250   19.2650 C   0  0  0  0  0  0  0  0  0  0  0  0
   29.1200  182.2990   17.5740 C   0  0  0  0  0  0  0  0  0  0  0  0
   28.3280  167.4670   20.4020 C   0  0  0  0  0  0  0  0  0  0  0  0
   23.7330  169.0370   20.2500 C   0  0  0  0  0  0  0  0  0  0  0  0
   28.8270  181.1250   17.4010 C   0  0  0  0  0  0  0  0  0  0  0  0
   28.0520  178.9930   16.4050 C   0  0  0  0  0  0  0  0  0  0  0  0
   24.0330  169.7900   19.1130 C   0  0  0  0  0  0  0  0  0  0  0  0
   27.9230  177.6860   16.7410 C   0  0  0  0  0  0  0  0  0  0  0  0
   27.0310  167.4850   20.9310 C   0  0  0  0  0  0  0  0  0  0  0  0
   24.7310  168.2620   20.8430 C   0  0  0  0  0  0  0  0  0  0  0  0
   29.4670  174.3570   19.8100 C   0  0  0  0  0  0  0  0  0  0  0  0
   27.4440  175.1590   18.1020 C   0  0  0  0  0  0  0  0  0  0  0  0
   28.5620  179.7290   17.3870 C   0  0  0  0  0  0  0  0  0  0  0  0
   28.3870  177.3610   17.9570 C   0  0  0  0  0  0  0  0  0  0  0  0
   25.3110  169.7340   18.5380 C   0  0  0  0  0  0  0  0  0  0  0  0
   26.4260  172.9780   18.2130 C   0  0  0  0  0  0  0  0  0  0  0  0
   29.4510  175.6650   19.3440 C   0  0  0  0  0  0  0  0  0  0  0  0
   26.3310  168.9850   19.1570 C   0  0  0  0  0  0  0  0  0  0  0  0
   28.4810  173.4490   19.4840 C   0  0  0  0  0  0  0  0  0  0  0  0
   26.0280  168.2350   20.3080 C   0  0  0  0  0  0  0  0  0  0  0  0
   28.4180  176.1100   18.4820 C   0  0  0  0  0  0  0  0  0  0  0  0
   27.4530  173.8480   18.5990 C   0  0  0  0  0  0  0  0  0  0  0  0
   28.7960  185.2972   18.8310 H   0  0  0  0  0  0  0  0  0  0  0  0
   27.7883  171.6636   17.4356 H   0  0  0  0  0  0  0  0  0  0  0  0
   31.9474  176.9730   20.9342 H   0  0  0  0  0  0  0  0  0  0  0  0
   30.7990  176.0296   21.6107 H   0  0  0  0  0  0  0  0  0  0  0  0
   31.8292  175.4003   20.5110 H   0  0  0  0  0  0  0  0  0  0  0  0
   27.8398  171.5843   19.7249 H   0  0  0  0  0  0  0  0  0  0  0  0
   29.4654  171.7396   19.7197 H   0  0  0  0  0  0  0  0  0  0  0  0
   28.6049  172.2045   21.0275 H   0  0  0  0  0  0  0  0  0  0  0  0
   30.3790  183.6998   18.3994 H   0  0  0  0  0  0  0  0  0  0  0  0
   29.6669  184.2018   17.0184 H   0  0  0  0  0  0  0  0  0  0  0  0
   29.5419  168.2326   18.8848 H   0  0  0  0  0  0  0  0  0  0  0  0
   29.0413  166.9158   20.8350 H   0  0  0  0  0  0  0  0  0  0  0  0
   22.8107  169.0528   20.6362 H   0  0  0  0  0  0  0  0  0  0  0  0
   27.7913  179.3636   15.5136 H   0  0  0  0  0  0  0  0  0  0  0  0
   23.3309  170.3739   18.7054 H   0  0  0  0  0  0  0  0  0  0  0  0
   27.5116  177.0127   16.1267 H   0  0  0  0  0  0  0  0  0  0  0  0
   26.8216  166.9603   21.7561 H   0  0  0  0  0  0  0  0  0  0  0  0
   24.5197  167.7208   21.6569 H   0  0  0  0  0  0  0  0  0  0  0  0
   30.2181  174.0636   20.4014 H   0  0  0  0  0  0  0  0  0  0  0  0
   26.7270  175.4292   17.4594 H   0  0  0  0  0  0  0  0  0  0  0  0
  1 25  1  0  0  0  0
  1 26  1  0  0  0  0
  2  3  2  0  0  0  0
  2  4  2  0  0  0  0
  2  8  1  0  0  0  0
  2 27  1  0  0  0  0
  5 12  1  0  0  0  0
  6 28  2  0  0  0  0
  7 10  1  0  0  0  0
  7 29  1  0  0  0  0
  8 28  1  0  0  0  0
  9 13  2  0  0  0  0
  9 30  1  0  0  0  0
 11 31  1  0  0  0  0
 12 14  1  0  0  0  0
 13 15  1  0  0  0  0
 14 17  3  0  0  0  0
 15 21  2  0  0  0  0
 16 19  2  0  0  0  0
 16 22  1  0  0  0  0
 17 25  1  0  0  0  0
 18 20  1  0  0  0  0
 18 25  2  0  0  0  0
 19 27  1  0  0  0  0
 20 26  2  0  0  0  0
 21 32  1  0  0  0  0
 22 32  2  0  0  0  0
 23 29  2  0  0  0  0
 23 31  1  0  0  0  0
 24 33  2  0  0  0  0
 24 34  1  0  0  0  0
 26 33  1  0  0  0  0
 27 30  2  0  0  0  0
 28 34  1  0  0  0  0
 29 33  1  0  0  0  0
 30 32  1  0  0  0  0
 31 34  2  0  0  0  0
  5 35  1  0  0  0  0
  8 36  1  0  0  0  0
 10 37  1  0  0  0  0
 10 38  1  0  0  0  0
 10 39  1  0  0  0  0
 11 40  1  0  0  0  0
 11 41  1  0  0  0  0
 11 42  1  0  0  0  0
 12 43  1  0  0  0  0
 12 44  1  0  0  0  0
 13 45  1  0  0  0  0
 15 46  1  0  0  0  0
 16 47  1  0  0  0  0
 18 48  1  0  0  0  0
 19 49  1  0  0  0  0
 20 50  1  0  0  0  0
 21 51  1  0  0  0  0
 22 52  1  0  0  0  0
 23 53  1  0  0  0  0
 24 54  1  0  0  0  0
M  END
> <pdb_id>
5JJR

> <uniprot_id>
Q6DLV0

> <usmiles>
S(=O)(=O)(NC(=O)c1c(cc(OC)c(c1)C=2SC(C#CCO)=CC2)C)c3c4ncccc4ccc3

$$$$
68L_A_406
          07202405583D 1   1.00000     0.00000     0
            
 55 60  0  0  0  0            999 V2000
   71.5190   44.3880    0.1430 Cl  0  0  0  0  0  0  0  0  0  0  0  0
   73.4390   47.4540    5.8630 O   0  0  0  0  0  0  0  0  0  0  0  0
   63.1140   52.8630   13.3620 O   0  0  0  0  0  0  0  0  0  0  0  0
   66.6610   47.1400    8.1850 O   0  0  0  0  0  0  0  0  0  0  0  0
   69.8300   50.7840   10.1540 O   0  0  0  0  0  0  0  0  0  0  0  0
   65.5330   48.0390    6.2900 N   0  0  0  0  0  0  0  0  0  0  0  0
   71.2010   46.7880    3.2380 N   0  0  0  0  0  0  0  0  0  0  0  0
   66.9440   52.1300   11.7760 N   0  0  0  0  0  0  0  0  0  0  0  0
   71.1650   47.6380    5.8370 N   0  0  0  0  0  0  0  0  0  0  0  0
   66.9030   49.3250    7.6870 N   0  0  0  0  0  0  0  0  0  0  0  0
   61.9980   52.6290   12.4880 C   0  0  0  0  0  0  0  0  0  0  0  0
   64.3920   52.7440   12.6740 C   0  0  0  0  0  0  0  0  0  0  0  0
   67.3840   47.6970    9.3140 C   0  0  0  0  0  0  0  0  0  0  0  0
   62.1440   51.3350   11.6790 C   0  0  0  0  0  0  0  0  0  0  0  0
   71.0060   46.1650    2.0890 C   0  0  0  0  0  0  0  0  0  0  0  0
   68.2020   51.9150   11.4080 C   0  0  0  0  0  0  0  0  0  0  0  0
   72.9270   44.7890    2.4760 C   0  0  0  0  0  0  0  0  0  0  0  0
   71.4720   50.0020    8.6540 C   0  0  0  0  0  0  0  0  0  0  0  0
   63.4610   51.0790   11.2680 C   0  0  0  0  0  0  0  0  0  0  0  0
   71.8610   49.2170    7.5640 C   0  0  0  0  0  0  0  0  0  0  0  0
   73.1170   45.4610    3.6860 C   0  0  0  0  0  0  0  0  0  0  0  0
   69.6140   48.4220    7.3670 C   0  0  0  0  0  0  0  0  0  0  0  0
   66.1720   50.4270   10.3330 C   0  0  0  0  0  0  0  0  0  0  0  0
   71.8490   45.1520    1.6680 C   0  0  0  0  0  0  0  0  0  0  0  0
   66.3470   48.1760    7.3370 C   0  0  0  0  0  0  0  0  0  0  0  0
   72.3510   47.2560    5.3440 C   0  0  0  0  0  0  0  0  0  0  0  0
   68.5250   50.9420   10.4700 C   0  0  0  0  0  0  0  0  0  0  0  0
   70.1590   49.9940    9.1050 C   0  0  0  0  0  0  0  0  0  0  0  0
   70.9170   48.4020    6.9190 C   0  0  0  0  0  0  0  0  0  0  0  0
   72.2320   46.4750    4.0460 C   0  0  0  0  0  0  0  0  0  0  0  0
   65.9050   51.4180   11.2850 C   0  0  0  0  0  0  0  0  0  0  0  0
   64.6000   51.7230   11.7310 C   0  0  0  0  0  0  0  0  0  0  0  0
   69.2220   49.1900    8.4460 C   0  0  0  0  0  0  0  0  0  0  0  0
   67.4860   50.1760    9.9260 C   0  0  0  0  0  0  0  0  0  0  0  0
   67.7700   49.1160    8.8780 C   0  0  1  0  0  0  0  0  0  0  0  0
   65.3365   48.8246    5.7033 H   0  0  0  0  0  0  0  0  0  0  0  0
   65.1190   47.1507    6.0914 H   0  0  0  0  0  0  0  0  0  0  0  0
   70.3609   47.3147    5.3381 H   0  0  0  0  0  0  0  0  0  0  0  0
   61.9224   53.3973   11.8524 H   0  0  0  0  0  0  0  0  0  0  0  0
   61.1661   52.5697   13.0397 H   0  0  0  0  0  0  0  0  0  0  0  0
   65.0889   52.6273   13.3816 H   0  0  0  0  0  0  0  0  0  0  0  0
   64.5428   53.6100   12.1972 H   0  0  0  0  0  0  0  0  0  0  0  0
   68.2013   47.1550    9.5098 H   0  0  0  0  0  0  0  0  0  0  0  0
   66.8004   47.7253   10.1256 H   0  0  0  0  0  0  0  0  0  0  0  0
   61.5659   51.4029   10.8658 H   0  0  0  0  0  0  0  0  0  0  0  0
   61.8346   50.5709   12.2451 H   0  0  0  0  0  0  0  0  0  0  0  0
   70.2336   46.4311    1.5123 H   0  0  0  0  0  0  0  0  0  0  0  0
   68.9318   52.4647   11.8144 H   0  0  0  0  0  0  0  0  0  0  0  0
   73.5522   44.0612    2.1942 H   0  0  0  0  0  0  0  0  0  0  0  0
   72.1485   50.5766    9.1146 H   0  0  0  0  0  0  0  0  0  0  0  0
   63.5909   50.3670   10.5780 H   0  0  0  0  0  0  0  0  0  0  0  0
   72.8085   49.2361    7.2449 H   0  0  0  0  0  0  0  0  0  0  0  0
   73.8788   45.2172    4.2862 H   0  0  0  0  0  0  0  0  0  0  0  0
   68.9312   47.8632    6.8964 H   0  0  0  0  0  0  0  0  0  0  0  0
   65.4198   49.8963    9.9423 H   0  0  0  0  0  0  0  0  0  0  0  0
  1 24  1  0  0  0  0
  2 26  2  0  0  0  0
  3 11  1  0  0  0  0
  3 12  1  0  0  0  0
  4 13  1  0  0  0  0
  4 25  1  0  0  0  0
  5 27  1  0  0  0  0
  5 28  1  0  0  0  0
  6 25  1  0  0  0  0
  7 15  1  0  0  0  0
  7 30  2  0  0  0  0
  8 16  2  0  0  0  0
  8 31  1  0  0  0  0
  9 26  1  0  0  0  0
  9 29  1  0  0  0  0
 10 25  2  0  0  0  0
 10 35  1  0  0  0  0
 11 14  1  0  0  0  0
 12 32  1  0  0  0  0
 13 35  1  0  0  0  0
 14 19  1  0  0  0  0
 15 24  2  0  0  0  0
 16 27  1  0  0  0  0
 17 21  2  0  0  0  0
 17 24  1  0  0  0  0
 18 20  1  0  0  0  0
 18 28  2  0  0  0  0
 19 32  2  0  0  0  0
 20 29  2  0  0  0  0
 21 30  1  0  0  0  0
 22 29  1  0  0  0  0
 22 33  2  0  0  0  0
 23 31  2  0  0  0  0
 23 34  1  0  0  0  0
 26 30  1  0  0  0  0
 27 34  2  0  0  0  0
 28 33  1  0  0  0  0
 31 32  1  0  0  0  0
 33 35  1  0  0  0  0
 34 35  1  0  0  0  0
  6 36  1  0  0  0  0
  6 37  1  0  0  0  0
  9 38  1  0  0  0  0
 11 39  1  0  0  0  0
 11 40  1  0  0  0  0
 12 41  1  0  0  0  0
 12 42  1  0  0  0  0
 13 43  1  0  0  0  0
 13 44  1  0  0  0  0
 14 45  1  0  0  0  0
 14 46  1  0  0  0  0
 15 47  1  0  0  0  0
 16 48  1  0  0  0  0
 17 49  1  0  0  0  0
 18 50  1  0  0  0  0
 19 51  1  0  0  0  0
 20 52  1  0  0  0  0
 21 53  1  0  0  0  0
 22 54  1  0  0  0  0
 23 55  1  0  0  0  0
M  END
> <pdb_id>
5I3W

> <uniprot_id>
P56817

> <usmiles>
Clc1cnc(cc1)C(=O)Nc2cc3c(Oc4c(cc(nc4)C5=CCCOC5)[C@@]36N=C(OC6)N)cc2

$$$$
68M_A_404
          07202405583D 1   1.00000     0.00000     0
            
 62 64  0  0  0  0            999 V2000
   63.3442   46.4741   10.7438 O   0  0  0  0  0  0  0  0  0  0  0  0
   65.1546   48.3055    6.4649 N   0  0  0  0  0  0  0  0  0  0  0  0
   63.0093   48.3959    9.6421 N   0  0  0  0  0  0  0  0  0  0  0  0
   70.8788   48.9088   12.3147 N   0  0  0  0  0  0  0  0  0  0  0  0
   66.6069   49.4549    7.8579 N   0  0  0  0  0  0  0  0  0  0  0  0
   62.6023   45.2352    8.0993 C   0  0  0  0  0  0  0  0  0  0  0  0
   68.7414   51.7616   13.5620 C   0  0  0  0  0  0  0  0  0  0  0  0
   64.3496   50.4274   13.3056 C   0  0  0  0  0  0  0  0  0  0  0  0
   65.3502   52.1225   11.7799 C   0  0  0  0  0  0  0  0  0  0  0  0
   62.8731   52.0143   12.0508 C   0  0  0  0  0  0  0  0  0  0  0  0
   71.8669   48.8376   13.2181 C   0  0  0  0  0  0  0  0  0  0  0  0
   62.8252   49.2579   10.8193 C   0  0  0  0  0  0  0  0  0  0  0  0
   71.8537   49.7356   14.2816 C   0  0  0  0  0  0  0  0  0  0  0  0
   68.1147   50.6829    9.2328 C   0  0  0  0  0  0  0  0  0  0  0  0
   70.8484   50.6789   14.3809 C   0  0  0  0  0  0  0  0  0  0  0  0
   68.9244   50.7855   10.3699 C   0  0  0  0  0  0  0  0  0  0  0  0
   65.0577   46.0042    8.1589 C   0  0  0  0  0  0  0  0  0  0  0  0
   68.2683   48.5487   10.9866 C   0  0  0  0  0  0  0  0  0  0  0  0
   66.7003   47.2992    9.5610 C   0  0  0  0  0  0  0  0  0  0  0  0
   64.0733   50.1679   10.8481 C   0  0  0  0  0  0  0  0  0  0  0  0
   63.2922   47.0996    9.6869 C   0  0  0  0  0  0  0  0  0  0  0  0
   65.8955   48.3529    7.5766 C   0  0  0  0  0  0  0  0  0  0  0  0
   67.3849   49.5312    8.9689 C   0  0  0  0  0  0  0  0  0  0  0  0
   69.8782   49.8115   12.3666 C   0  0  0  0  0  0  0  0  0  0  0  0
   63.5697   46.4209    8.3327 C   0  0  2  0  0  0  0  0  0  0  0  0
   69.8364   50.7373   13.4103 C   0  0  0  0  0  0  0  0  0  0  0  0
   68.9838   49.7198   11.2720 C   0  0  0  0  0  0  0  0  0  0  0  0
   65.9017   47.2406    8.4235 C   0  0  0  0  0  0  0  0  0  0  0  0
   67.4377   48.4632    9.8479 C   0  0  0  0  0  0  0  0  0  0  0  0
   64.1500   51.1828   11.9974 C   0  0  0  0  0  0  0  0  0  0  0  0
   64.6233   47.4853    6.2527 H   0  0  0  0  0  0  0  0  0  0  0  0
   65.1316   49.0902    5.8455 H   0  0  0  0  0  0  0  0  0  0  0  0
   62.9143   48.8178    8.7405 H   0  0  0  0  0  0  0  0  0  0  0  0
   61.6595   45.5455    8.2205 H   0  0  0  0  0  0  0  0  0  0  0  0
   62.7215   44.8858    7.1700 H   0  0  0  0  0  0  0  0  0  0  0  0
   62.8011   44.5084    8.7568 H   0  0  0  0  0  0  0  0  0  0  0  0
   68.1004   51.6799   12.7988 H   0  0  0  0  0  0  0  0  0  0  0  0
   68.2566   51.6062   14.4227 H   0  0  0  0  0  0  0  0  0  0  0  0
   69.1408   52.6784   13.5652 H   0  0  0  0  0  0  0  0  0  0  0  0
   63.5751   49.8133   13.4573 H   0  0  0  0  0  0  0  0  0  0  0  0
   65.1937   49.8935   13.2568 H   0  0  0  0  0  0  0  0  0  0  0  0
   64.4109   51.0796   14.0611 H   0  0  0  0  0  0  0  0  0  0  0  0
   65.2299   52.6240   10.9232 H   0  0  0  0  0  0  0  0  0  0  0  0
   65.4087   52.7699   12.5398 H   0  0  0  0  0  0  0  0  0  0  0  0
   66.1915   51.5837   11.7355 H   0  0  0  0  0  0  0  0  0  0  0  0
   62.7571   52.5029   11.1861 H   0  0  0  0  0  0  0  0  0  0  0  0
   62.0892   51.4119   12.2011 H   0  0  0  0  0  0  0  0  0  0  0  0
   62.9356   52.6733   12.8004 H   0  0  0  0  0  0  0  0  0  0  0  0
   72.5943   48.1571   13.1302 H   0  0  0  0  0  0  0  0  0  0  0  0
   62.7720   48.7079   11.6528 H   0  0  0  0  0  0  0  0  0  0  0  0
   61.9933   49.8052   10.7275 H   0  0  0  0  0  0  0  0  0  0  0  0
   72.5731   49.6981   14.9752 H   0  0  0  0  0  0  0  0  0  0  0  0
   68.0607   51.4538    8.5982 H   0  0  0  0  0  0  0  0  0  0  0  0
   70.8422   51.3219   15.1468 H   0  0  0  0  0  0  0  0  0  0  0  0
   69.4567   51.6156   10.5357 H   0  0  0  0  0  0  0  0  0  0  0  0
   65.2151   45.6741    7.2281 H   0  0  0  0  0  0  0  0  0  0  0  0
   65.2907   45.2836    8.8119 H   0  0  0  0  0  0  0  0  0  0  0  0
   68.3473   47.7619   11.5987 H   0  0  0  0  0  0  0  0  0  0  0  0
   66.7505   46.5125   10.1763 H   0  0  0  0  0  0  0  0  0  0  0  0
   64.0975   50.6787    9.9887 H   0  0  0  0  0  0  0  0  0  0  0  0
   64.8787   49.5782   10.9083 H   0  0  0  0  0  0  0  0  0  0  0  0
   63.3739   47.0983    7.6236 H   0  0  0  0  0  0  0  0  0  0  0  0
  1 21  2  0  0  0  0
  2 22  1  0  0  0  0
  3 12  1  0  0  0  0
  3 21  1  0  0  0  0
  4 11  2  0  0  0  0
  4 24  1  0  0  0  0
  5 22  2  0  0  0  0
  5 23  1  0  0  0  0
  6 25  1  0  0  0  0
  7 26  1  0  0  0  0
  8 30  1  0  0  0  0
  9 30  1  0  0  0  0
 10 30  1  0  0  0  0
 11 13  1  0  0  0  0
 12 20  1  0  0  0  0
 13 15  2  0  0  0  0
 14 16  1  0  0  0  0
 14 23  2  0  0  0  0
 15 26  1  0  0  0  0
 16 27  2  0  0  0  0
 17 25  1  0  0  0  0
 17 28  1  0  0  0  0
 18 27  1  0  0  0  0
 18 29  2  0  0  0  0
 19 28  2  0  0  0  0
 19 29  1  0  0  0  0
 20 30  1  0  0  0  0
 21 25  1  0  0  0  0
 22 28  1  0  0  0  0
 23 29  1  0  0  0  0
 24 26  2  0  0  0  0
 24 27  1  0  0  0  0
  2 31  1  0  0  0  0
  2 32  1  0  0  0  0
  3 33  1  0  0  0  0
  6 34  1  0  0  0  0
  6 35  1  0  0  0  0
  6 36  1  0  0  0  0
  7 37  1  0  0  0  0
  7 38  1  0  0  0  0
  7 39  1  0  0  0  0
  8 40  1  0  0  0  0
  8 41  1  0  0  0  0
  8 42  1  0  0  0  0
  9 43  1  0  0  0  0
  9 44  1  0  0  0  0
  9 45  1  0  0  0  0
 10 46  1  0  0  0  0
 10 47  1  0  0  0  0
 10 48  1  0  0  0  0
 11 49  1  0  0  0  0
 12 50  1  0  0  0  0
 12 51  1  0  0  0  0
 13 52  1  0  0  0  0
 14 53  1  0  0  0  0
 15 54  1  0  0  0  0
 16 55  1  0  0  0  0
 17 56  1  0  0  0  0
 17 57  1  0  0  0  0
 18 58  1  0  0  0  0
 19 59  1  0  0  0  0
 20 60  1  0  0  0  0
 20 61  1  0  0  0  0
 25 62  1  0  0  0  0
M  END
> <pdb_id>
5I3V

> <uniprot_id>
P56817

> <usmiles>
O=C(NCCC(C)(C)C)[C@@H](Cc1c(nc2c(cc(c3ncccc3C)cc2)c1)N)C

$$$$
68Y_A_1202
          07192420223D 1   1.00000     0.00000     0
            
 42 44  0  0  0  0            999 V2000
    5.5451   15.0039    8.7838 O   0  0  0  0  0  0  0  0  0  0  0  0
   13.1947   14.9498    8.8712 O   0  0  0  0  0  0  0  0  0  0  0  0
    7.6809   15.4562    8.4705 N   0  0  0  0  0  0  0  0  0  0  0  0
    8.8502   12.9310    9.2770 N   0  0  0  0  0  0  0  0  0  0  0  0
   15.3205   13.9005    9.0389 C   0  0  0  0  0  0  0  0  0  0  0  0
    6.5815   11.9195    9.5357 C   0  0  0  0  0  0  0  0  0  0  0  0
   13.5341   11.4122    5.2532 C   0  0  0  0  0  0  0  0  0  0  0  0
   13.0842   12.7272    5.2336 C   0  0  0  0  0  0  0  0  0  0  0  0
   14.0632   10.8829    6.4269 C   0  0  0  0  0  0  0  0  0  0  0  0
   11.2382   16.2456    8.4960 C   0  0  0  0  0  0  0  0  0  0  0  0
   13.1147   13.5121    6.4091 C   0  0  0  0  0  0  0  0  0  0  0  0
   14.1369   11.6647    7.5614 C   0  0  0  0  0  0  0  0  0  0  0  0
    9.8509   16.3851    8.4868 C   0  0  0  0  0  0  0  0  0  0  0  0
    7.0246   14.2241   10.4272 C   0  0  0  0  0  0  0  0  0  0  0  0
   10.9873   13.9534    9.1751 C   0  0  0  0  0  0  0  0  0  0  0  0
    6.7007   14.8673    9.2052 C   0  0  0  0  0  0  0  0  0  0  0  0
   13.8289   13.6640    8.8152 C   0  0  2  0  0  0  0  0  0  0  0  0
   11.8166   15.0199    8.8143 C   0  0  0  0  0  0  0  0  0  0  0  0
    7.6386   12.8366   10.1446 C   0  0  2  0  0  0  0  0  0  0  0  0
    9.0502   15.2826    8.7259 C   0  0  0  0  0  0  0  0  0  0  0  0
    9.5972   14.0849    9.0853 C   0  0  0  0  0  0  0  0  0  0  0  0
   13.6775   12.9770    7.5735 C   0  0  0  0  0  0  0  0  0  0  0  0
    7.4123   16.0443    7.7076 H   0  0  0  0  0  0  0  0  0  0  0  0
    9.1446   12.1031    8.7997 H   0  0  0  0  0  0  0  0  0  0  0  0
   15.8050   13.0262    9.0079 H   0  0  0  0  0  0  0  0  0  0  0  0
   15.6736   14.5027    8.3229 H   0  0  0  0  0  0  0  0  0  0  0  0
   15.4601   14.3274    9.9323 H   0  0  0  0  0  0  0  0  0  0  0  0
    5.7864   11.8795   10.1409 H   0  0  0  0  0  0  0  0  0  0  0  0
    6.3039   12.2768    8.6439 H   0  0  0  0  0  0  0  0  0  0  0  0
    6.9614   11.0014    9.4233 H   0  0  0  0  0  0  0  0  0  0  0  0
   13.4780   10.8495    4.4285 H   0  0  0  0  0  0  0  0  0  0  0  0
   12.7365   13.1206    4.3826 H   0  0  0  0  0  0  0  0  0  0  0  0
   14.3893    9.9378    6.4477 H   0  0  0  0  0  0  0  0  0  0  0  0
   11.8194   17.0283    8.2734 H   0  0  0  0  0  0  0  0  0  0  0  0
   12.7387   14.4387    6.4086 H   0  0  0  0  0  0  0  0  0  0  0  0
   14.5303   11.2779    8.3954 H   0  0  0  0  0  0  0  0  0  0  0  0
    9.4368   17.2776    8.3082 H   0  0  0  0  0  0  0  0  0  0  0  0
    6.1947   14.1142   10.9741 H   0  0  0  0  0  0  0  0  0  0  0  0
    7.6842   14.7821   10.9307 H   0  0  0  0  0  0  0  0  0  0  0  0
   11.3881   13.0960    9.4977 H   0  0  0  0  0  0  0  0  0  0  0  0
   13.4734   13.0904    9.5531 H   0  0  0  0  0  0  0  0  0  0  0  0
    7.9188   12.4420   11.0197 H   0  0  0  0  0  0  0  0  0  0  0  0
  1 16  2  0  0  0  0
  2 17  1  0  0  0  0
  2 18  1  0  0  0  0
  3 16  1  0  0  0  0
  3 20  1  0  0  0  0
  4 19  1  0  0  0  0
  4 21  1  0  0  0  0
  5 17  1  0  0  0  0
  6 19  1  0  0  0  0
  7  8  2  0  0  0  0
  7  9  1  0  0  0  0
  8 11  1  0  0  0  0
  9 12  2  0  0  0  0
 10 13  1  0  0  0  0
 10 18  2  0  0  0  0
 11 22  2  0  0  0  0
 12 22  1  0  0  0  0
 13 20  2  0  0  0  0
 14 16  1  0  0  0  0
 14 19  1  0  0  0  0
 15 18  1  0  0  0  0
 15 21  2  0  0  0  0
 17 22  1  0  0  0  0
 20 21  1  0  0  0  0
  3 23  1  0  0  0  0
  4 24  1  0  0  0  0
  5 25  1  0  0  0  0
  5 26  1  0  0  0  0
  5 27  1  0  0  0  0
  6 28  1  0  0  0  0
  6 29  1  0  0  0  0
  6 30  1  0  0  0  0
  7 31  1  0  0  0  0
  8 32  1  0  0  0  0
  9 33  1  0  0  0  0
 10 34  1  0  0  0  0
 11 35  1  0  0  0  0
 12 36  1  0  0  0  0
 13 37  1  0  0  0  0
 14 38  1  0  0  0  0
 14 39  1  0  0  0  0
 15 40  1  0  0  0  0
 17 41  1  0  0  0  0
 19 42  1  0  0  0  0
M  END
> <pdb_id>
5I83

> <uniprot_id>
Q92793

> <usmiles>
O=C1Nc2c(N[C@@H](C1)C)cc(O[C@@H](c3ccccc3)C)cc2

$$$$
696_A_246
          07192419343D 1   1.00000     0.00000     0
            
 43 46  0  0  0  0            999 V2000
   44.7335   23.2960   46.7761 O   0  0  0  0  0  0  0  0  0  0  0  0
   47.4232   18.8005   53.7202 N   0  0  0  0  0  0  0  0  0  0  0  0
   46.2997   17.1339   52.6511 N   0  3  0  0  0  0  0  0  0  0  0  0
   45.6691   21.7875   48.5728 N   0  0  0  0  0  0  0  0  0  0  0  0
   43.1314   26.4133   43.2285 C   0  0  0  0  0  0  0  0  0  0  0  0
   43.9071   25.2826   43.2801 C   0  0  0  0  0  0  0  0  0  0  0  0
   43.1047   27.2801   44.3138 C   0  0  0  0  0  0  0  0  0  0  0  0
   47.0360   26.3606   48.3409 C   0  0  0  0  0  0  0  0  0  0  0  0
   44.6592   24.9986   44.3999 C   0  0  0  0  0  0  0  0  0  0  0  0
   43.8701   26.9812   45.4381 C   0  0  0  0  0  0  0  0  0  0  0  0
   47.0216   25.1266   48.9495 C   0  0  0  0  0  0  0  0  0  0  0  0
   46.2750   26.5770   47.2169 C   0  0  0  0  0  0  0  0  0  0  0  0
   45.4046   19.5683   49.3842 C   0  0  0  0  0  0  0  0  0  0  0  0
   45.7172   18.7620   50.4775 C   0  0  0  0  0  0  0  0  0  0  0  0
   46.7833   22.6609   50.2810 C   0  0  0  0  0  0  0  0  0  0  0  0
   46.8260   20.6204   51.6000 C   0  0  0  0  0  0  0  0  0  0  0  0
   46.7282   18.3805   52.6882 C   0  0  0  0  0  0  0  0  0  0  0  0
   45.4868   24.3249   47.3014 C   0  0  0  0  0  0  0  0  0  0  0  0
   45.8142   20.8590   49.4464 C   0  0  0  0  0  0  0  0  0  0  0  0
   46.2450   22.8294   49.0878 C   0  0  0  0  0  0  0  0  0  0  0  0
   46.4345   19.2519   51.6218 C   0  0  0  0  0  0  0  0  0  0  0  0
   44.6766   25.8275   45.5126 C   0  0  0  0  0  0  0  0  0  0  0  0
   46.4877   21.3811   50.4759 C   0  0  0  0  0  0  0  0  0  0  0  0
   46.2554   24.0754   48.4575 C   0  0  0  0  0  0  0  0  0  0  0  0
   45.4682   25.5620   46.6551 C   0  0  0  0  0  0  0  0  0  0  0  0
   47.7591   19.7564   53.7171 H   0  0  0  0  0  0  0  0  0  0  0  0
   47.6803   18.2522   54.5112 H   0  0  0  0  0  0  0  0  0  0  0  0
   45.7519   16.8181   51.8680 H   0  0  0  0  0  0  0  0  0  0  0  0
   46.5256   16.4542   53.3441 H   0  0  0  0  0  0  0  0  0  0  0  0
   45.2222   21.7013   47.7117 H   0  0  0  0  0  0  0  0  0  0  0  0
   42.5451   26.6207   42.3477 H   0  0  0  0  0  0  0  0  0  0  0  0
   43.9292   24.6179   42.4341 H   0  0  0  0  0  0  0  0  0  0  0  0
   42.4965   28.1737   44.2877 H   0  0  0  0  0  0  0  0  0  0  0  0
   47.6408   27.1571   48.7427 H   0  0  0  0  0  0  0  0  0  0  0  0
   45.2448   24.0981   44.4145 H   0  0  0  0  0  0  0  0  0  0  0  0
   43.8358   27.6613   46.2768 H   0  0  0  0  0  0  0  0  0  0  0  0
   47.6235   24.9721   49.8325 H   0  0  0  0  0  0  0  0  0  0  0  0
   46.3022   27.5545   46.7595 H   0  0  0  0  0  0  0  0  0  0  0  0
   44.8653   19.1957   48.5293 H   0  0  0  0  0  0  0  0  0  0  0  0
   45.3985   17.7334   50.4400 H   0  0  0  0  0  0  0  0  0  0  0  0
   47.3147   23.3661   50.9202 H   0  0  0  0  0  0  0  0  0  0  0  0
   47.3651   21.0639   52.4220 H   0  0  0  0  0  0  0  0  0  0  0  0
   44.1806   23.4489   45.9570 H   0  0  0  0  0  0  0  0  0  0  0  0
  1 18  1  0  0  0  0
  2 17  1  0  0  0  0
  2 26  1  0  0  0  0
  2 27  1  0  0  0  0
  3 17  2  0  0  0  0
  3 28  1  0  0  0  0
  3 29  1  0  0  0  0
  4 19  1  0  0  0  0
  4 20  1  0  0  0  0
  4 30  1  0  0  0  0
  5  6  2  0  0  0  0
  5  7  1  0  0  0  0
  5 31  1  0  0  0  0
  6  9  1  0  0  0  0
  6 32  1  0  0  0  0
  7 10  2  0  0  0  0
  7 33  1  0  0  0  0
  8 11  2  0  0  0  0
  8 12  1  0  0  0  0
  8 34  1  0  0  0  0
  9 22  2  0  0  0  0
  9 35  1  0  0  0  0
 10 22  1  0  0  0  0
 10 36  1  0  0  0  0
 11 24  1  0  0  0  0
 11 37  1  0  0  0  0
 12 25  2  0  0  0  0
 12 38  1  0  0  0  0
 13 14  1  0  0  0  0
 13 19  2  0  0  0  0
 13 39  1  0  0  0  0
 14 21  2  0  0  0  0
 14 40  1  0  0  0  0
 15 20  2  0  0  0  0
 15 23  1  0  0  0  0
 15 41  1  0  0  0  0
 16 21  1  0  0  0  0
 16 23  2  0  0  0  0
 16 42  1  0  0  0  0
 17 21  1  0  0  0  0
 18 24  2  0  0  0  0
 18 25  1  0  0  0  0
 19 23  1  0  0  0  0
 20 24  1  0  0  0  0
 22 25  1  0  0  0  0
  1 43  1  0  0  0  0
M  CHG  1   3   1
M  END
> <pdb_id>
1O3G

> <uniprot_id>
P00760

> <usmiles>
Oc1c(c2ccccc2)cccc1C=3Nc4c(cc(cc4)C(=[NH2+])N)C3

$$$$
696_H_410
          07202416143D 1   1.00000     0.00000     0
            
 43 46  0  0  0  0            999 V2000
   12.4737  -10.5969   17.9598 O   0  0  0  0  0  0  0  0  0  0  0  0
   18.2493  -12.2584   11.6978 N   0  0  0  0  0  0  0  0  0  0  0  0
   17.6458  -10.1414   11.0835 N   0  3  0  0  0  0  0  0  0  0  0  0
   14.2679  -10.8981   16.2531 N   0  0  0  0  0  0  0  0  0  0  0  0
    8.6126  -10.4881   21.3774 C   0  0  0  0  0  0  0  0  0  0  0  0
    9.9283   -9.9989   21.3643 C   0  0  0  0  0  0  0  0  0  0  0  0
    8.2991  -11.6237   20.6326 C   0  0  0  0  0  0  0  0  0  0  0  0
   12.6047  -14.7032   18.7149 C   0  0  0  0  0  0  0  0  0  0  0  0
   10.9245  -10.6544   20.6264 C   0  0  0  0  0  0  0  0  0  0  0  0
    9.2932  -12.2762   19.8967 C   0  0  0  0  0  0  0  0  0  0  0  0
   13.4361  -14.1380   17.7636 C   0  0  0  0  0  0  0  0  0  0  0  0
   11.7136  -13.9056   19.4146 C   0  0  0  0  0  0  0  0  0  0  0  0
   15.3923   -9.6211   14.5168 C   0  0  0  0  0  0  0  0  0  0  0  0
   16.2524   -9.7671   13.4326 C   0  0  0  0  0  0  0  0  0  0  0  0
   15.0987  -13.0232   15.7828 C   0  0  0  0  0  0  0  0  0  0  0  0
   16.3398  -12.1656   13.7793 C   0  0  0  0  0  0  0  0  0  0  0  0
   17.5454  -11.1628   11.9039 C   0  0  0  0  0  0  0  0  0  0  0  0
   12.4754  -11.9525   18.2007 C   0  0  0  0  0  0  0  0  0  0  0  0
   15.0135  -10.7602   15.2131 C   0  0  0  0  0  0  0  0  0  0  0  0
   14.2770  -12.1905   16.6035 C   0  0  0  0  0  0  0  0  0  0  0  0
   16.7355  -11.0541   13.0347 C   0  0  0  0  0  0  0  0  0  0  0  0
   10.6259  -11.8041   19.8874 C   0  0  0  0  0  0  0  0  0  0  0  0
   15.4807  -11.9923   14.8227 C   0  0  0  0  0  0  0  0  0  0  0  0
   13.4055  -12.7414   17.5270 C   0  0  0  0  0  0  0  0  0  0  0  0
   11.6130  -12.5237   19.1641 C   0  0  0  0  0  0  0  0  0  0  0  0
   18.1679  -13.0216   12.3399 H   0  0  0  0  0  0  0  0  0  0  0  0
   18.8732  -12.3752   10.9254 H   0  0  0  0  0  0  0  0  0  0  0  0
   17.0804   -9.3437   11.2532 H   0  0  0  0  0  0  0  0  0  0  0  0
   18.2408  -10.1339   10.2810 H   0  0  0  0  0  0  0  0  0  0  0  0
   13.8132  -10.2188   16.7598 H   0  0  0  0  0  0  0  0  0  0  0  0
    7.8498   -9.9798   21.9518 H   0  0  0  0  0  0  0  0  0  0  0  0
   10.1780   -9.1131   21.9346 H   0  0  0  0  0  0  0  0  0  0  0  0
    7.2895  -12.0082   20.6296 H   0  0  0  0  0  0  0  0  0  0  0  0
   12.6547  -15.7637   18.9197 H   0  0  0  0  0  0  0  0  0  0  0  0
   11.9260  -10.2689   20.6244 H   0  0  0  0  0  0  0  0  0  0  0  0
    9.0225  -13.1530   19.3295 H   0  0  0  0  0  0  0  0  0  0  0  0
   14.1328  -14.7766   17.2415 H   0  0  0  0  0  0  0  0  0  0  0  0
   11.0638  -14.3715   20.1411 H   0  0  0  0  0  0  0  0  0  0  0  0
   15.1247   -8.6422   14.8950 H   0  0  0  0  0  0  0  0  0  0  0  0
   16.6104   -8.8852   12.9326 H   0  0  0  0  0  0  0  0  0  0  0  0
   15.6477  -13.8612   16.2558 H   0  0  0  0  0  0  0  0  0  0  0  0
   16.5665  -13.1767   13.4429 H   0  0  0  0  0  0  0  0  0  0  0  0
   14.4049  -13.5205   15.2618 H   0  0  0  0  0  0  0  0  0  0  0  0
  1 18  2  0  0  0  0
  2 17  1  0  0  0  0
  2 26  1  0  0  0  0
  2 27  1  0  0  0  0
  3 17  2  0  0  0  0
  3 28  1  0  0  0  0
  3 29  1  0  0  0  0
  4 19  1  0  0  0  0
  4 20  1  0  0  0  0
  4 30  1  0  0  0  0
  5  6  2  0  0  0  0
  5  7  1  0  0  0  0
  5 31  1  0  0  0  0
  6  9  1  0  0  0  0
  6 32  1  0  0  0  0
  7 10  2  0  0  0  0
  7 33  1  0  0  0  0
  8 11  2  0  0  0  0
  8 12  1  0  0  0  0
  8 34  1  0  0  0  0
  9 22  2  0  0  0  0
  9 35  1  0  0  0  0
 10 22  1  0  0  0  0
 10 36  1  0  0  0  0
 11 24  1  0  0  0  0
 11 37  1  0  0  0  0
 12 25  2  0  0  0  0
 12 38  1  0  0  0  0
 13 14  1  0  0  0  0
 13 19  2  0  0  0  0
 13 39  1  0  0  0  0
 14 21  2  0  0  0  0
 14 40  1  0  0  0  0
 15 20  1  0  0  0  0
 15 23  1  0  0  0  0
 15 41  1  0  0  0  0
 16 21  1  0  0  0  0
 16 23  2  0  0  0  0
 16 42  1  0  0  0  0
 17 21  1  0  0  0  0
 18 24  1  0  0  0  0
 18 25  1  0  0  0  0
 19 23  1  0  0  0  0
 20 24  2  0  0  0  0
 22 25  1  0  0  0  0
 15 43  1  0  0  0  0
M  CHG  1   3   1
M  END
> <pdb_id>
1O2G

> <uniprot_id>
P00734

> <usmiles>
O=C1/C(=C/2\Nc3c(cc(cc3)C(=[NH2+])N)C2)/C=CC=C1c4ccccc4

$$$$
69A_A_1203
          07192420223D 1   1.00000     0.00000     0
            
 42 44  0  0  0  0            999 V2000
    5.6029   15.1674    8.6575 O   0  0  0  0  0  0  0  0  0  0  0  0
   11.8420   13.1391    9.3030 O   0  0  0  0  0  0  0  0  0  0  0  0
   13.3504   14.5543    8.4016 N   0  0  0  0  0  0  0  0  0  0  0  0
    7.6353   16.1017    8.4103 N   0  0  0  0  0  0  0  0  0  0  0  0
    9.3058   13.8688    9.0243 N   0  0  0  0  0  0  0  0  0  0  0  0
    7.4115   12.2892    9.4253 C   0  0  0  0  0  0  0  0  0  0  0  0
   14.3708   13.5082    8.2103 C   0  0  0  0  0  0  0  0  0  0  0  0
   13.9873   10.9156    4.9061 C   0  0  0  0  0  0  0  0  0  0  0  0
   14.9541   10.7080    5.8737 C   0  0  0  0  0  0  0  0  0  0  0  0
   13.1972   12.0552    4.9654 C   0  0  0  0  0  0  0  0  0  0  0  0
   10.9050   17.7479    8.7578 C   0  0  0  0  0  0  0  0  0  0  0  0
    9.5331   17.5436    8.6194 C   0  0  0  0  0  0  0  0  0  0  0  0
   14.9958   11.5500    6.9789 C   0  0  0  0  0  0  0  0  0  0  0  0
   13.2725   12.9160    6.0620 C   0  0  0  0  0  0  0  0  0  0  0  0
   11.7276   16.6403    8.8920 C   0  0  0  0  0  0  0  0  0  0  0  0
    7.2435   14.6356   10.2727 C   0  0  0  0  0  0  0  0  0  0  0  0
    6.7684   15.2813    9.0905 C   0  0  0  0  0  0  0  0  0  0  0  0
   12.1522   14.2813    8.9693 C   0  0  0  0  0  0  0  0  0  0  0  0
    8.1904   13.4701    9.9577 C   0  0  2  0  0  0  0  0  0  0  0  0
    9.0147   16.2497    8.6946 C   0  0  0  0  0  0  0  0  0  0  0  0
   14.1980   12.6840    7.0683 C   0  0  0  0  0  0  0  0  0  0  0  0
    9.8343   15.1573    8.9119 C   0  0  0  0  0  0  0  0  0  0  0  0
   11.2371   15.3413    8.9688 C   0  0  0  0  0  0  0  0  0  0  0  0
   13.5480   15.4885    8.1048 H   0  0  0  0  0  0  0  0  0  0  0  0
    7.2621   16.6377    7.6531 H   0  0  0  0  0  0  0  0  0  0  0  0
    9.6970   13.1567    8.4414 H   0  0  0  0  0  0  0  0  0  0  0  0
    6.6826   12.0535   10.0680 H   0  0  0  0  0  0  0  0  0  0  0  0
    7.0116   12.5256    8.5397 H   0  0  0  0  0  0  0  0  0  0  0  0
    8.0251   11.5072    9.3159 H   0  0  0  0  0  0  0  0  0  0  0  0
   14.3630   12.9195    9.0186 H   0  0  0  0  0  0  0  0  0  0  0  0
   15.2610   13.9573    8.1337 H   0  0  0  0  0  0  0  0  0  0  0  0
   13.8588   10.2504    4.1705 H   0  0  0  0  0  0  0  0  0  0  0  0
   15.6139    9.9625    5.7793 H   0  0  0  0  0  0  0  0  0  0  0  0
   12.5684   12.2616    4.2158 H   0  0  0  0  0  0  0  0  0  0  0  0
   11.2869   18.6721    8.7603 H   0  0  0  0  0  0  0  0  0  0  0  0
    8.9226   18.3209    8.4668 H   0  0  0  0  0  0  0  0  0  0  0  0
   15.6179   11.3334    7.7313 H   0  0  0  0  0  0  0  0  0  0  0  0
   12.6572   13.7020    6.1220 H   0  0  0  0  0  0  0  0  0  0  0  0
   12.7166   16.7814    8.9355 H   0  0  0  0  0  0  0  0  0  0  0  0
    6.4596   14.2841   10.7845 H   0  0  0  0  0  0  0  0  0  0  0  0
    7.7327   15.3058   10.8309 H   0  0  0  0  0  0  0  0  0  0  0  0
    8.6103   13.1859   10.8196 H   0  0  0  0  0  0  0  0  0  0  0  0
  1 17  2  0  0  0  0
  2 18  2  0  0  0  0
  3  7  1  0  0  0  0
  3 18  1  0  0  0  0
  4 17  1  0  0  0  0
  4 20  1  0  0  0  0
  5 19  1  0  0  0  0
  5 22  1  0  0  0  0
  6 19  1  0  0  0  0
  7 21  1  0  0  0  0
  8  9  2  0  0  0  0
  8 10  1  0  0  0  0
  9 13  1  0  0  0  0
 10 14  2  0  0  0  0
 11 12  1  0  0  0  0
 11 15  2  0  0  0  0
 12 20  2  0  0  0  0
 13 21  2  0  0  0  0
 14 21  1  0  0  0  0
 15 23  1  0  0  0  0
 16 17  1  0  0  0  0
 16 19  1  0  0  0  0
 18 23  1  0  0  0  0
 20 22  1  0  0  0  0
 22 23  2  0  0  0  0
  3 24  1  0  0  0  0
  4 25  1  0  0  0  0
  5 26  1  0  0  0  0
  6 27  1  0  0  0  0
  6 28  1  0  0  0  0
  6 29  1  0  0  0  0
  7 30  1  0  0  0  0
  7 31  1  0  0  0  0
  8 32  1  0  0  0  0
  9 33  1  0  0  0  0
 10 34  1  0  0  0  0
 11 35  1  0  0  0  0
 12 36  1  0  0  0  0
 13 37  1  0  0  0  0
 14 38  1  0  0  0  0
 15 39  1  0  0  0  0
 16 40  1  0  0  0  0
 16 41  1  0  0  0  0
 19 42  1  0  0  0  0
M  END
> <pdb_id>
5I86

> <uniprot_id>
Q92793

> <usmiles>
O=C(NCc1ccccc1)c2c3N[C@@H](CC(=O)Nc3ccc2)C

$$$$
69G_A_1701
          07202413483D 1   1.00000     0.00000     0
            
 46 48  0  0  0  0            999 V2000
    4.3620   14.2680   86.1950 O   0  0  0  0  0  0  0  0  0  0  0  0
    2.3570    6.0120   84.0560 O   0  0  0  0  0  0  0  0  0  0  0  0
   -0.2610    7.2580   84.6310 N   0  0  0  0  0  0  0  0  0  0  0  0
    4.9460   15.1230   84.2720 N   0  0  0  0  0  0  0  0  0  0  0  0
    3.2960    7.9950   83.7150 N   0  0  0  0  0  0  0  0  0  0  0  0
    6.0730   15.7630   84.9820 C   0  0  0  0  0  0  0  0  0  0  0  0
    4.7600   15.2680   82.8260 C   0  0  0  0  0  0  0  0  0  0  0  0
    7.7690    8.2010   85.1760 C   0  0  0  0  0  0  0  0  0  0  0  0
   -1.1590    8.2700   84.8060 C   0  0  0  0  0  0  0  0  0  0  0  0
    4.5580    7.3210   83.3820 C   0  0  0  0  0  0  0  0  0  0  0  0
    3.2040    9.3620   83.6650 C   0  0  0  0  0  0  0  0  0  0  0  0
    6.7110    8.0100   84.1220 C   0  0  0  0  0  0  0  0  0  0  0  0
    5.5730    7.4770   84.4500 C   0  0  0  0  0  0  0  0  0  0  0  0
    0.7570   13.5710   83.3890 C   0  0  0  0  0  0  0  0  0  0  0  0
   -0.5210    9.4530   84.5910 C   0  0  0  0  0  0  0  0  0  0  0  0
    1.8300   14.2920   83.9200 C   0  0  0  0  0  0  0  0  0  0  0  0
    0.8050   12.1760   83.3860 C   0  0  0  0  0  0  0  0  0  0  0  0
    3.0070   12.2310   84.4050 C   0  0  0  0  0  0  0  0  0  0  0  0
    4.1260   14.3570   84.9940 C   0  0  0  0  0  0  0  0  0  0  0  0
    2.2320    7.2220   84.0160 C   0  0  0  0  0  0  0  0  0  0  0  0
    0.9760    7.7870   84.3080 C   0  0  0  0  0  0  0  0  0  0  0  0
    2.9670   13.6290   84.4110 C   0  0  0  0  0  0  0  0  0  0  0  0
    1.9340   11.4980   83.8840 C   0  0  0  0  0  0  0  0  0  0  0  0
    2.0230   10.0030   83.9210 C   0  0  0  0  0  0  0  0  0  0  0  0
    0.8380    9.1860   84.2620 C   0  0  0  0  0  0  0  0  0  0  0  0
   -0.4560    6.3130   84.7330 H   0  0  0  0  0  0  0  0  0  0  0  0
    6.0210   15.5435   85.9562 H   0  0  0  0  0  0  0  0  0  0  0  0
    6.9370   15.4242   84.6097 H   0  0  0  0  0  0  0  0  0  0  0  0
    6.0236   16.7544   84.8606 H   0  0  0  0  0  0  0  0  0  0  0  0
    3.9454   14.7621   82.5423 H   0  0  0  0  0  0  0  0  0  0  0  0
    4.6471   16.2355   82.5998 H   0  0  0  0  0  0  0  0  0  0  0  0
    5.5605   14.9053   82.3489 H   0  0  0  0  0  0  0  0  0  0  0  0
    8.5781    8.6200   84.7640 H   0  0  0  0  0  0  0  0  0  0  0  0
    7.4165    8.7962   85.8981 H   0  0  0  0  0  0  0  0  0  0  0  0
    8.0151    7.3136   85.5659 H   0  0  0  0  0  0  0  0  0  0  0  0
   -2.1225    8.1612   85.0507 H   0  0  0  0  0  0  0  0  0  0  0  0
    4.9185    7.7120   82.5352 H   0  0  0  0  0  0  0  0  0  0  0  0
    4.3775    6.3465   83.2488 H   0  0  0  0  0  0  0  0  0  0  0  0
    4.0153    9.9004   83.4372 H   0  0  0  0  0  0  0  0  0  0  0  0
    6.8830    8.2910   83.1778 H   0  0  0  0  0  0  0  0  0  0  0  0
    5.3888    7.1830   85.3879 H   0  0  0  0  0  0  0  0  0  0  0  0
   -0.0373   14.0497   83.0149 H   0  0  0  0  0  0  0  0  0  0  0  0
   -0.9380   10.3597   84.6538 H   0  0  0  0  0  0  0  0  0  0  0  0
    1.7879   15.2906   83.9508 H   0  0  0  0  0  0  0  0  0  0  0  0
    0.0312   11.6539   83.0272 H   0  0  0  0  0  0  0  0  0  0  0  0
    3.8044   11.7535   84.7740 H   0  0  0  0  0  0  0  0  0  0  0  0
  1 19  2  0  0  0  0
  2 20  2  0  0  0  0
  3  9  1  0  0  0  0
  3 21  1  0  0  0  0
  3 26  1  0  0  0  0
  4  6  1  0  0  0  0
  4  7  1  0  0  0  0
  4 19  1  0  0  0  0
  5 10  1  0  0  0  0
  5 11  1  0  0  0  0
  5 20  1  0  0  0  0
  8 12  1  0  0  0  0
  9 15  2  0  0  0  0
 10 13  1  0  0  0  0
 11 24  2  0  0  0  0
 12 13  2  0  0  0  0
 14 16  2  0  0  0  0
 14 17  1  0  0  0  0
 15 25  1  0  0  0  0
 16 22  1  0  0  0  0
 17 23  2  0  0  0  0
 18 22  2  0  0  0  0
 18 23  1  0  0  0  0
 19 22  1  0  0  0  0
 20 21  1  0  0  0  0
 21 25  2  0  0  0  0
 23 24  1  0  0  0  0
 24 25  1  0  0  0  0
  6 27  1  0  0  0  0
  6 28  1  0  0  0  0
  6 29  1  0  0  0  0
  7 30  1  0  0  0  0
  7 31  1  0  0  0  0
  7 32  1  0  0  0  0
  8 33  1  0  0  0  0
  8 34  1  0  0  0  0
  8 35  1  0  0  0  0
  9 36  1  0  0  0  0
 10 37  1  0  0  0  0
 10 38  1  0  0  0  0
 11 39  1  0  0  0  0
 12 40  1  0  0  0  0
 13 41  1  0  0  0  0
 14 42  1  0  0  0  0
 15 43  1  0  0  0  0
 16 44  1  0  0  0  0
 17 45  1  0  0  0  0
 18 46  1  0  0  0  0
M  END
> <pdb_id>
6BQD

> <uniprot_id>
P21675

> <usmiles>
O=C(N(C)C)c1cc(ccc1)C=2C3=C(NC=C3)C(=O)N(C2)C/C=C/C

$$$$
69G_A_205
          07212401333D 1   1.00000     0.00000     0
            
 46 48  0  0  0  0            999 V2000
  -12.0534  -19.2471  -16.1037 O   0  0  0  0  0  0  0  0  0  0  0  0
  -17.2225  -23.5275  -22.9959 O   0  0  0  0  0  0  0  0  0  0  0  0
  -14.9207  -24.4403  -21.3813 N   0  0  0  0  0  0  0  0  0  0  0  0
  -14.0797  -19.9834  -15.6246 N   0  0  0  0  0  0  0  0  0  0  0  0
  -16.8340  -21.4163  -22.3456 N   0  0  0  0  0  0  0  0  0  0  0  0
  -13.6598  -20.2350  -14.2440 C   0  0  0  0  0  0  0  0  0  0  0  0
  -15.4637  -20.2828  -15.9982 C   0  0  0  0  0  0  0  0  0  0  0  0
  -17.7514  -17.7903  -25.2343 C   0  0  0  0  0  0  0  0  0  0  0  0
  -13.8541  -24.3177  -20.5392 C   0  0  0  0  0  0  0  0  0  0  0  0
  -18.0087  -20.9640  -23.1014 C   0  0  0  0  0  0  0  0  0  0  0  0
  -16.1305  -20.4948  -21.6189 C   0  0  0  0  0  0  0  0  0  0  0  0
  -18.0385  -18.7872  -24.1338 C   0  0  0  0  0  0  0  0  0  0  0  0
  -17.6691  -20.0477  -24.2476 C   0  0  0  0  0  0  0  0  0  0  0  0
  -13.4331  -17.6558  -19.7587 C   0  0  0  0  0  0  0  0  0  0  0  0
  -13.6895  -23.0265  -20.1905 C   0  0  0  0  0  0  0  0  0  0  0  0
  -13.1504  -17.9409  -18.4343 C   0  0  0  0  0  0  0  0  0  0  0  0
  -14.0461  -18.5933  -20.5618 C   0  0  0  0  0  0  0  0  0  0  0  0
  -14.1033  -20.1452  -18.7194 C   0  0  0  0  0  0  0  0  0  0  0  0
  -13.1751  -19.4801  -16.4946 C   0  0  0  0  0  0  0  0  0  0  0  0
  -16.5419  -22.7289  -22.3457 C   0  0  0  0  0  0  0  0  0  0  0  0
  -15.4519  -23.1907  -21.5844 C   0  0  0  0  0  0  0  0  0  0  0  0
  -13.4937  -19.1880  -17.9096 C   0  0  0  0  0  0  0  0  0  0  0  0
  -14.3668  -19.8499  -20.0546 C   0  0  0  0  0  0  0  0  0  0  0  0
  -15.0580  -20.8625  -20.8689 C   0  0  0  0  0  0  0  0  0  0  0  0
  -14.6890  -22.2793  -20.8400 C   0  0  0  0  0  0  0  0  0  0  0  0
  -15.2406  -25.2655  -21.7770 H   0  0  0  0  0  0  0  0  0  0  0  0
  -12.6973  -19.9854  -14.1376 H   0  0  0  0  0  0  0  0  0  0  0  0
  -14.2173  -19.6866  -13.6208 H   0  0  0  0  0  0  0  0  0  0  0  0
  -13.7780  -21.2050  -14.0312 H   0  0  0  0  0  0  0  0  0  0  0  0
  -15.6035  -20.0623  -16.9635 H   0  0  0  0  0  0  0  0  0  0  0  0
  -15.6466  -21.2544  -15.8483 H   0  0  0  0  0  0  0  0  0  0  0  0
  -16.0859  -19.7361  -15.4379 H   0  0  0  0  0  0  0  0  0  0  0  0
  -18.1034  -16.8922  -24.9707 H   0  0  0  0  0  0  0  0  0  0  0  0
  -16.7640  -17.7313  -25.3813 H   0  0  0  0  0  0  0  0  0  0  0  0
  -18.1969  -18.0883  -26.0785 H   0  0  0  0  0  0  0  0  0  0  0  0
  -13.2794  -25.0742  -20.2270 H   0  0  0  0  0  0  0  0  0  0  0  0
  -18.6188  -20.4767  -22.4766 H   0  0  0  0  0  0  0  0  0  0  0  0
  -18.4785  -21.7675  -23.4669 H   0  0  0  0  0  0  0  0  0  0  0  0
  -16.4100  -19.5349  -21.6398 H   0  0  0  0  0  0  0  0  0  0  0  0
  -18.5153  -18.4860  -23.3080 H   0  0  0  0  0  0  0  0  0  0  0  0
  -17.1857  -20.3800  -25.0575 H   0  0  0  0  0  0  0  0  0  0  0  0
  -13.1906  -16.7621  -20.1362 H   0  0  0  0  0  0  0  0  0  0  0  0
  -12.9845  -22.6649  -19.5804 H   0  0  0  0  0  0  0  0  0  0  0  0
  -12.7029  -17.2579  -17.8570 H   0  0  0  0  0  0  0  0  0  0  0  0
  -14.2615  -18.3702  -21.5125 H   0  0  0  0  0  0  0  0  0  0  0  0
  -14.3498  -21.0385  -18.3438 H   0  0  0  0  0  0  0  0  0  0  0  0
  1 19  2  0  0  0  0
  2 20  2  0  0  0  0
  3  9  1  0  0  0  0
  3 21  1  0  0  0  0
  3 26  1  0  0  0  0
  4  6  1  0  0  0  0
  4  7  1  0  0  0  0
  4 19  1  0  0  0  0
  5 10  1  0  0  0  0
  5 11  1  0  0  0  0
  5 20  1  0  0  0  0
  8 12  1  0  0  0  0
  9 15  2  0  0  0  0
 10 13  1  0  0  0  0
 11 24  2  0  0  0  0
 12 13  2  0  0  0  0
 14 16  2  0  0  0  0
 14 17  1  0  0  0  0
 15 25  1  0  0  0  0
 16 22  1  0  0  0  0
 17 23  2  0  0  0  0
 18 22  2  0  0  0  0
 18 23  1  0  0  0  0
 19 22  1  0  0  0  0
 20 21  1  0  0  0  0
 21 25  2  0  0  0  0
 23 24  1  0  0  0  0
 24 25  1  0  0  0  0
  6 27  1  0  0  0  0
  6 28  1  0  0  0  0
  6 29  1  0  0  0  0
  7 30  1  0  0  0  0
  7 31  1  0  0  0  0
  7 32  1  0  0  0  0
  8 33  1  0  0  0  0
  8 34  1  0  0  0  0
  8 35  1  0  0  0  0
  9 36  1  0  0  0  0
 10 37  1  0  0  0  0
 10 38  1  0  0  0  0
 11 39  1  0  0  0  0
 12 40  1  0  0  0  0
 13 41  1  0  0  0  0
 14 42  1  0  0  0  0
 15 43  1  0  0  0  0
 16 44  1  0  0  0  0
 17 45  1  0  0  0  0
 18 46  1  0  0  0  0
M  END
> <pdb_id>
5I88

> <uniprot_id>
O60885

> <usmiles>
O=C(N(C)C)c1cc(ccc1)C=2C3=C(NC=C3)C(=O)N(C2)C/C=C/C

$$$$
69Z_A_401
          07202410013D 1   1.00000     0.00000     0
            
 38 41  0  0  0  0            999 V2000
   -3.9143  -22.7417  140.3706 Cl  0  0  0  0  0  0  0  0  0  0  0  0
   -5.5663  -25.0657  148.4221 S   0  0  0  0  0  0  0  0  0  0  0  0
   -2.3864  -24.3032  148.2739 O   0  0  0  0  0  0  0  0  0  0  0  0
   -4.9891  -24.2967  146.0936 N   0  0  0  0  0  0  0  0  0  0  0  0
   -8.1876  -25.7108  145.5264 N   0  0  0  0  0  0  0  0  0  0  0  0
   -6.2316  -24.8662  145.9408 N   0  0  0  0  0  0  0  0  0  0  0  0
   -2.8451  -22.4524  147.1204 N   0  0  0  0  0  0  0  0  0  0  0  0
   -7.0483  -24.7459  143.5094 C   0  0  0  0  0  0  0  0  0  0  0  0
   -7.9365  -25.8794  146.8371 C   0  0  0  0  0  0  0  0  0  0  0  0
   -1.5495  -21.7887  147.3859 C   0  0  0  0  0  0  0  0  0  0  0  0
   -1.5396  -20.4680  146.5713 C   0  0  0  0  0  0  0  0  0  0  0  0
   -2.8132  -22.9725  142.8548 C   0  0  0  0  0  0  0  0  0  0  0  0
   -4.7507  -21.5675  142.6671 C   0  0  0  0  0  0  0  0  0  0  0  0
   -3.0510  -20.1267  146.4973 C   0  0  0  0  0  0  0  0  0  0  0  0
   -2.7352  -22.7020  144.2140 C   0  0  0  0  0  0  0  0  0  0  0  0
   -4.6750  -21.2998  144.0254 C   0  0  0  0  0  0  0  0  0  0  0  0
   -4.4875  -24.2800  147.2759 C   0  0  0  0  0  0  0  0  0  0  0  0
   -6.7219  -25.3506  147.1177 C   0  0  0  0  0  0  0  0  0  0  0  0
   -3.8177  -22.4088  142.0747 C   0  0  0  0  0  0  0  0  0  0  0  0
   -7.1707  -25.1170  144.9689 C   0  0  0  0  0  0  0  0  0  0  0  0
   -3.1754  -23.6846  147.5893 C   0  0  0  0  0  0  0  0  0  0  0  0
   -3.6591  -21.5287  146.2920 C   0  0  1  0  0  0  0  0  0  0  0  0
   -3.6740  -21.8610  144.8117 C   0  0  0  0  0  0  0  0  0  0  0  0
   -6.1667  -24.3011  143.3514 H   0  0  0  0  0  0  0  0  0  0  0  0
   -7.1101  -25.5718  142.9491 H   0  0  0  0  0  0  0  0  0  0  0  0
   -7.7870  -24.1190  143.2618 H   0  0  0  0  0  0  0  0  0  0  0  0
   -8.5457  -26.3218  147.4951 H   0  0  0  0  0  0  0  0  0  0  0  0
   -0.7959  -22.3777  147.0939 H   0  0  0  0  0  0  0  0  0  0  0  0
   -1.4589  -21.5907  148.3619 H   0  0  0  0  0  0  0  0  0  0  0  0
   -1.1528  -20.6059  145.6595 H   0  0  0  0  0  0  0  0  0  0  0  0
   -1.0278  -19.7518  147.0457 H   0  0  0  0  0  0  0  0  0  0  0  0
   -2.1402  -23.5792  142.4318 H   0  0  0  0  0  0  0  0  0  0  0  0
   -5.4757  -21.1557  142.1150 H   0  0  0  0  0  0  0  0  0  0  0  0
   -3.2537  -19.5220  145.7270 H   0  0  0  0  0  0  0  0  0  0  0  0
   -3.3746  -19.7064  147.3450 H   0  0  0  0  0  0  0  0  0  0  0  0
   -2.0065  -23.1096  144.7643 H   0  0  0  0  0  0  0  0  0  0  0  0
   -5.3502  -20.6941  144.4463 H   0  0  0  0  0  0  0  0  0  0  0  0
   -4.5987  -21.5283  146.6342 H   0  0  0  0  0  0  0  0  0  0  0  0
  1 19  1  0  0  0  0
  2 17  1  0  0  0  0
  2 18  1  0  0  0  0
  3 21  2  0  0  0  0
  4  6  1  0  0  0  0
  4 17  2  0  0  0  0
  5  9  1  0  0  0  0
  5 20  2  0  0  0  0
  6 18  1  0  0  0  0
  6 20  1  0  0  0  0
  7 10  1  0  0  0  0
  7 21  1  0  0  0  0
  7 22  1  0  0  0  0
  8 20  1  0  0  0  0
  9 18  2  0  0  0  0
 10 11  1  0  0  0  0
 11 14  1  0  0  0  0
 12 15  2  0  0  0  0
 12 19  1  0  0  0  0
 13 16  1  0  0  0  0
 13 19  2  0  0  0  0
 14 22  1  0  0  0  0
 15 23  1  0  0  0  0
 16 23  2  0  0  0  0
 17 21  1  0  0  0  0
 22 23  1  0  0  0  0
  8 24  1  0  0  0  0
  8 25  1  0  0  0  0
  8 26  1  0  0  0  0
  9 27  1  0  0  0  0
 10 28  1  0  0  0  0
 10 29  1  0  0  0  0
 11 30  1  0  0  0  0
 11 31  1  0  0  0  0
 12 32  1  0  0  0  0
 13 33  1  0  0  0  0
 14 34  1  0  0  0  0
 14 35  1  0  0  0  0
 15 36  1  0  0  0  0
 16 37  1  0  0  0  0
 22 38  1  0  0  0  0
M  END
> <pdb_id>
5ICP

> <uniprot_id>
P49336

> <usmiles>
Clc1ccc(cc1)[C@H]2N(C(=O)C=3SC=4N(N3)C(=NC4)C)CCC2

$$$$
6A5_B_2
          07212402213D 1   1.00000     0.00000     0
            
 47 50  0  0  0  0            999 V2000
   33.9950   47.7065   35.6725 Cl  0  0  0  0  0  0  0  0  0  0  0  0
   35.8767   52.1328   37.5147 Cl  0  0  0  0  0  0  0  0  0  0  0  0
   39.5737   49.8641   42.8176 O   0  0  0  0  0  0  0  0  0  0  0  0
   35.2512   51.0518   44.4072 O   0  0  0  0  0  0  0  0  0  0  0  0
   37.9756   51.8793   34.6767 N   0  0  0  0  0  0  0  0  0  0  0  0
   40.5003   52.6850   38.4942 N   0  0  0  0  0  0  0  0  0  0  0  0
   39.7144   51.7943   40.6229 N   0  0  0  0  0  0  0  0  0  0  0  0
   37.3741   50.4061   42.7992 N   0  0  0  0  0  0  0  0  0  0  0  0
   38.7283   51.0172   38.7225 N   0  0  0  0  0  0  0  0  0  0  0  0
   41.1426   53.4807   36.3981 C   0  0  0  0  0  0  0  0  0  0  0  0
   35.0087   51.1265   43.0441 C   0  0  0  0  0  0  0  0  0  0  0  0
   35.9492   49.8757   44.7119 C   0  0  0  0  0  0  0  0  0  0  0  0
   39.2977   51.6653   35.1118 C   0  0  0  0  0  0  0  0  0  0  0  0
   36.3203   51.3167   42.2781 C   0  0  0  0  0  0  0  0  0  0  0  0
   37.3522   50.0972   44.2694 C   0  0  0  0  0  0  0  0  0  0  0  0
   38.0945   50.3577   39.7766 C   0  0  0  0  0  0  0  0  0  0  0  0
   36.6123   47.9952   36.0740 C   0  0  0  0  0  0  0  0  0  0  0  0
   37.7140   48.7446   36.4845 C   0  0  0  0  0  0  0  0  0  0  0  0
   35.1002   49.8356   36.5720 C   0  0  0  0  0  0  0  0  0  0  0  0
   35.3345   48.5760   36.1419 C   0  0  0  0  0  0  0  0  0  0  0  0
   36.1830   50.5564   36.9611 C   0  0  0  0  0  0  0  0  0  0  0  0
   38.5980   50.3995   42.2471 C   0  0  0  0  0  0  0  0  0  0  0  0
   39.7057   51.8816   39.2927 C   0  0  0  0  0  0  0  0  0  0  0  0
   40.2838   52.5810   37.2087 C   0  0  0  0  0  0  0  0  0  0  0  0
   38.7310   50.8655   40.8898 C   0  0  0  0  0  0  0  0  0  0  0  0
   38.6049   50.8589   37.3823 C   0  0  0  0  0  0  0  0  0  0  0  0
   39.3218   51.7308   36.5894 C   0  0  0  0  0  0  0  0  0  0  0  0
   37.4971   50.0420   36.9293 C   0  0  0  0  0  0  0  0  0  0  0  0
   37.9425   51.8380   33.6781 H   0  0  0  0  0  0  0  0  0  0  0  0
   37.3802   51.1729   35.0595 H   0  0  0  0  0  0  0  0  0  0  0  0
   40.9328   53.3572   35.4282 H   0  0  0  0  0  0  0  0  0  0  0  0
   40.9693   54.4306   36.6583 H   0  0  0  0  0  0  0  0  0  0  0  0
   42.1042   53.2603   36.5618 H   0  0  0  0  0  0  0  0  0  0  0  0
   34.4038   51.9011   42.8591 H   0  0  0  0  0  0  0  0  0  0  0  0
   34.5696   50.2808   42.7408 H   0  0  0  0  0  0  0  0  0  0  0  0
   35.5503   49.0997   44.2233 H   0  0  0  0  0  0  0  0  0  0  0  0
   35.9199   49.7006   45.6960 H   0  0  0  0  0  0  0  0  0  0  0  0
   39.8960   52.3714   34.7330 H   0  0  0  0  0  0  0  0  0  0  0  0
   39.6110   50.7653   34.8089 H   0  0  0  0  0  0  0  0  0  0  0  0
   36.1659   51.1192   41.3101 H   0  0  0  0  0  0  0  0  0  0  0  0
   36.6253   52.2635   42.3807 H   0  0  0  0  0  0  0  0  0  0  0  0
   37.7439   50.8648   44.7766 H   0  0  0  0  0  0  0  0  0  0  0  0
   37.8904   49.2727   44.4442 H   0  0  0  0  0  0  0  0  0  0  0  0
   37.3586   49.6819   39.7350 H   0  0  0  0  0  0  0  0  0  0  0  0
   36.7294   47.0609   35.7372 H   0  0  0  0  0  0  0  0  0  0  0  0
   38.6359   48.3581   36.4593 H   0  0  0  0  0  0  0  0  0  0  0  0
   34.1764   50.2173   36.6021 H   0  0  0  0  0  0  0  0  0  0  0  0
  1 20  1  0  0  0  0
  2 21  1  0  0  0  0
  3 22  2  0  0  0  0
  4 11  1  0  0  0  0
  4 12  1  0  0  0  0
  5 13  1  0  0  0  0
  6 23  1  0  0  0  0
  6 24  2  0  0  0  0
  7 23  2  0  0  0  0
  7 25  1  0  0  0  0
  8 14  1  0  0  0  0
  8 15  1  0  0  0  0
  8 22  1  0  0  0  0
  9 16  1  0  0  0  0
  9 23  1  0  0  0  0
  9 26  1  0  0  0  0
 10 24  1  0  0  0  0
 11 14  1  0  0  0  0
 12 15  1  0  0  0  0
 13 27  1  0  0  0  0
 16 25  2  0  0  0  0
 17 18  2  0  0  0  0
 17 20  1  0  0  0  0
 18 28  1  0  0  0  0
 19 20  2  0  0  0  0
 19 21  1  0  0  0  0
 21 28  2  0  0  0  0
 22 25  1  0  0  0  0
 24 27  1  0  0  0  0
 26 27  2  0  0  0  0
 26 28  1  0  0  0  0
  5 29  1  0  0  0  0
  5 30  1  0  0  0  0
 10 31  1  0  0  0  0
 10 32  1  0  0  0  0
 10 33  1  0  0  0  0
 11 34  1  0  0  0  0
 11 35  1  0  0  0  0
 12 36  1  0  0  0  0
 12 37  1  0  0  0  0
 13 38  1  0  0  0  0
 13 39  1  0  0  0  0
 14 40  1  0  0  0  0
 14 41  1  0  0  0  0
 15 42  1  0  0  0  0
 15 43  1  0  0  0  0
 16 44  1  0  0  0  0
 17 45  1  0  0  0  0
 18 46  1  0  0  0  0
 19 47  1  0  0  0  0
M  END
> <pdb_id>
3NOX

> <uniprot_id>
Q53TN1

> <usmiles>
Clc1c(ccc(Cl)c1)C=2N3C(=NC(C(=O)N4CCOCC4)=C3)N=C(C2CN)C

$$$$
6A7_A_401
          07202410013D 1   1.00000     0.00000     0
            
 41 44  0  0  0  0            999 V2000
   -3.4521  -22.6726  140.9057 Cl  0  0  0  0  0  0  0  0  0  0  0  0
   -2.4949  -24.3583  148.8650 O   0  0  0  0  0  0  0  0  0  0  0  0
   -8.2035  -25.8464  146.8917 N   0  0  0  0  0  0  0  0  0  0  0  0
   -8.2271  -25.7090  145.6150 N   0  0  0  0  0  0  0  0  0  0  0  0
   -6.5323  -25.2854  148.6558 N   0  0  0  0  0  0  0  0  0  0  0  0
   -2.7507  -22.4770  147.6950 N   0  0  0  0  0  0  0  0  0  0  0  0
   -6.8247  -24.8603  143.6963 C   0  0  0  0  0  0  0  0  0  0  0  0
   -5.3200  -24.7507  148.8557 C   0  0  0  0  0  0  0  0  0  0  0  0
   -1.4217  -21.9208  148.0533 C   0  0  0  0  0  0  0  0  0  0  0  0
   -1.2737  -20.5581  147.3298 C   0  0  0  0  0  0  0  0  0  0  0  0
   -2.3874  -22.8582  143.4119 C   0  0  0  0  0  0  0  0  0  0  0  0
   -4.3834  -21.5464  143.1818 C   0  0  0  0  0  0  0  0  0  0  0  0
   -2.7474  -20.1222  147.1424 C   0  0  0  0  0  0  0  0  0  0  0  0
   -2.3592  -22.5870  144.7755 C   0  0  0  0  0  0  0  0  0  0  0  0
   -4.3573  -21.2812  144.5397 C   0  0  0  0  0  0  0  0  0  0  0  0
   -5.0378  -24.3642  146.4802 C   0  0  0  0  0  0  0  0  0  0  0  0
   -3.4009  -22.3393  142.6106 C   0  0  0  0  0  0  0  0  0  0  0  0
   -3.2102  -23.6924  148.1328 C   0  0  0  0  0  0  0  0  0  0  0  0
   -7.0782  -25.3936  147.3995 C   0  0  0  0  0  0  0  0  0  0  0  0
   -7.1273  -25.1667  145.1417 C   0  0  0  0  0  0  0  0  0  0  0  0
   -3.4138  -21.4719  146.8324 C   0  0  1  0  0  0  0  0  0  0  0  0
   -4.5421  -24.2646  147.8040 C   0  0  0  0  0  0  0  0  0  0  0  0
   -3.3466  -21.7854  145.3489 C   0  0  0  0  0  0  0  0  0  0  0  0
   -6.2961  -24.9134  146.2504 C   0  0  0  0  0  0  0  0  0  0  0  0
   -8.9453  -26.2461  147.4303 H   0  0  0  0  0  0  0  0  0  0  0  0
   -5.9154  -24.4503  143.6258 H   0  0  0  0  0  0  0  0  0  0  0  0
   -6.8512  -25.7062  143.1636 H   0  0  0  0  0  0  0  0  0  0  0  0
   -7.5070  -24.2212  143.3411 H   0  0  0  0  0  0  0  0  0  0  0  0
   -4.9614  -24.6984  149.7877 H   0  0  0  0  0  0  0  0  0  0  0  0
   -0.6993  -22.5450  147.7559 H   0  0  0  0  0  0  0  0  0  0  0  0
   -1.3625  -21.7896  149.0429 H   0  0  0  0  0  0  0  0  0  0  0  0
   -0.8126  -20.6641  146.4487 H   0  0  0  0  0  0  0  0  0  0  0  0
   -0.7707  -19.9020  147.8924 H   0  0  0  0  0  0  0  0  0  0  0  0
   -1.6751  -23.4295  143.0042 H   0  0  0  0  0  0  0  0  0  0  0  0
   -5.1118  -21.1655  142.6122 H   0  0  0  0  0  0  0  0  0  0  0  0
   -2.8469  -19.4801  146.3823 H   0  0  0  0  0  0  0  0  0  0  0  0
   -3.1181  -19.7123  147.9758 H   0  0  0  0  0  0  0  0  0  0  0  0
   -1.6307  -22.9669  145.3456 H   0  0  0  0  0  0  0  0  0  0  0  0
   -5.0773  -20.7177  144.9450 H   0  0  0  0  0  0  0  0  0  0  0  0
   -4.4847  -24.0406  145.7125 H   0  0  0  0  0  0  0  0  0  0  0  0
   -4.3761  -21.4156  147.0983 H   0  0  0  0  0  0  0  0  0  0  0  0
  1 17  1  0  0  0  0
  2 18  2  0  0  0  0
  3  4  1  0  0  0  0
  3 19  1  0  0  0  0
  4 20  2  0  0  0  0
  5  8  1  0  0  0  0
  5 19  2  0  0  0  0
  6  9  1  0  0  0  0
  6 18  1  0  0  0  0
  6 21  1  0  0  0  0
  7 20  1  0  0  0  0
  8 22  2  0  0  0  0
  9 10  1  0  0  0  0
 10 13  1  0  0  0  0
 11 14  2  0  0  0  0
 11 17  1  0  0  0  0
 12 15  1  0  0  0  0
 12 17  2  0  0  0  0
 13 21  1  0  0  0  0
 14 23  1  0  0  0  0
 15 23  2  0  0  0  0
 16 22  1  0  0  0  0
 16 24  2  0  0  0  0
 18 22  1  0  0  0  0
 19 24  1  0  0  0  0
 20 24  1  0  0  0  0
 21 23  1  0  0  0  0
  3 25  1  0  0  0  0
  7 26  1  0  0  0  0
  7 27  1  0  0  0  0
  7 28  1  0  0  0  0
  8 29  1  0  0  0  0
  9 30  1  0  0  0  0
  9 31  1  0  0  0  0
 10 32  1  0  0  0  0
 10 33  1  0  0  0  0
 11 34  1  0  0  0  0
 12 35  1  0  0  0  0
 13 36  1  0  0  0  0
 13 37  1  0  0  0  0
 14 38  1  0  0  0  0
 15 39  1  0  0  0  0
 16 40  1  0  0  0  0
 21 41  1  0  0  0  0
M  END
> <pdb_id>
5IDN

> <uniprot_id>
P49336

> <usmiles>
Clc1ccc(cc1)[C@H]2N(C(=O)c3cnc4NN=C(c4c3)C)CCC2

$$$$
6AI_A_2001
          07192415263D 1   1.00000     0.00000     0
            
 17 18  0  0  0  0            999 V2000
   71.1010   43.3616   -4.5112 N   0  0  0  0  0  0  0  0  0  0  0  0
   66.7300   41.3347   -1.1526 N   0  0  0  0  0  0  0  0  0  0  0  0
   67.0328   41.6226   -2.3737 N   0  0  0  0  0  0  0  0  0  0  0  0
   67.7932   41.6027   -0.4145 C   0  0  0  0  0  0  0  0  0  0  0  0
   70.8956   42.9557   -2.1391 C   0  0  0  0  0  0  0  0  0  0  0  0
   70.1539   42.5297   -1.0507 C   0  0  0  0  0  0  0  0  0  0  0  0
   69.0439   42.5088   -3.5902 C   0  0  0  0  0  0  0  0  0  0  0  0
   70.3455   42.9317   -3.4153 C   0  0  0  0  0  0  0  0  0  0  0  0
   68.2946   42.0860   -2.4846 C   0  0  0  0  0  0  0  0  0  0  0  0
   68.8488   42.0955   -1.2473 C   0  0  0  0  0  0  0  0  0  0  0  0
   70.7049   43.3442   -5.4293 H   0  0  0  0  0  0  0  0  0  0  0  0
   72.0371   43.6864   -4.3766 H   0  0  0  0  0  0  0  0  0  0  0  0
   66.4064   41.5149   -3.1457 H   0  0  0  0  0  0  0  0  0  0  0  0
   67.8516   41.4800    0.5762 H   0  0  0  0  0  0  0  0  0  0  0  0
   71.8315   43.2823   -2.0067 H   0  0  0  0  0  0  0  0  0  0  0  0
   70.5528   42.5345   -0.1336 H   0  0  0  0  0  0  0  0  0  0  0  0
   68.6365   42.5040   -4.5035 H   0  0  0  0  0  0  0  0  0  0  0  0
  1  8  1  0  0  0  0
  2  3  1  0  0  0  0
  2  4  2  0  0  0  0
  3  9  1  0  0  0  0
  4 10  1  0  0  0  0
  5  6  1  0  0  0  0
  5  8  2  0  0  0  0
  6 10  2  0  0  0  0
  7  8  1  0  0  0  0
  7  9  2  0  0  0  0
  9 10  1  0  0  0  0
  1 11  1  0  0  0  0
  1 12  1  0  0  0  0
  3 13  1  0  0  0  0
  4 14  1  0  0  0  0
  5 15  1  0  0  0  0
  6 16  1  0  0  0  0
  7 17  1  0  0  0  0
M  END
> <pdb_id>
5E9L

> <uniprot_id>
Q9UIF8

> <usmiles>
N=1Nc2c(ccc(N)c2)C1

$$$$
6BB_A_401
          07202406023D 1   1.00000     0.00000     0
            
 47 50  0  0  0  0            999 V2000
   -1.4080  -10.4790    1.0580 F   0  0  0  0  0  0  0  0  0  0  0  0
   -4.9480  -10.7160    3.6470 O   0  0  0  0  0  0  0  0  0  0  0  0
   -3.9370   -7.3210    0.2180 N   0  0  0  0  0  0  0  0  0  0  0  0
   -1.1950  -14.2910    3.8660 N   0  0  0  0  0  0  0  0  0  0  0  0
   -7.1620   -8.5360    5.6990 N   0  0  0  0  0  0  0  0  0  0  0  0
   -3.4650   -8.5850    0.3590 N   0  0  0  0  0  0  0  0  0  0  0  0
   -4.6330  -11.7890    4.5410 C   0  0  0  0  0  0  0  0  0  0  0  0
   -2.4670  -14.9960    4.0590 C   0  0  0  0  0  0  0  0  0  0  0  0
   -1.2940  -13.1330    2.9650 C   0  0  0  0  0  0  0  0  0  0  0  0
   -7.1200   -7.4130    4.9590 C   0  0  0  0  0  0  0  0  0  0  0  0
   -4.7380   -7.1070    1.2490 C   0  0  0  0  0  0  0  0  0  0  0  0
   -6.4630   -9.6070    5.2740 C   0  0  0  0  0  0  0  0  0  0  0  0
   -4.0270   -9.1760    1.4720 C   0  0  0  0  0  0  0  0  0  0  0  0
   -0.7950  -10.2420   -2.5470 C   0  0  0  0  0  0  0  0  0  0  0  0
   -1.7740   -9.2960   -2.9260 C   0  0  0  0  0  0  0  0  0  0  0  0
   -3.5130  -14.0450    4.6880 C   0  0  0  0  0  0  0  0  0  0  0  0
   -2.3180  -12.1170    3.5260 C   0  0  0  0  0  0  0  0  0  0  0  0
   -6.3840   -7.3020    3.7700 C   0  0  0  0  0  0  0  0  0  0  0  0
   -0.6960  -10.6410   -1.1940 C   0  0  0  0  0  0  0  0  0  0  0  0
   -2.6400   -8.7360   -1.9580 C   0  0  0  0  0  0  0  0  0  0  0  0
   -1.5490  -10.0680   -0.2220 C   0  0  0  0  0  0  0  0  0  0  0  0
   -5.6620   -9.6130    4.0900 C   0  0  0  0  0  0  0  0  0  0  0  0
   -2.5550   -9.1320   -0.5940 C   0  0  0  0  0  0  0  0  0  0  0  0
   -3.6940  -12.7680    3.8320 C   0  0  0  0  0  0  0  0  0  0  0  0
   -4.8560   -8.2640    2.0590 C   0  0  0  0  0  0  0  0  0  0  0  0
   -5.6480   -8.4220    3.3010 C   0  0  0  0  0  0  0  0  0  0  0  0
   -0.5322  -14.9341    3.4825 H   0  0  0  0  0  0  0  0  0  0  0  0
   -5.4731  -12.2623    4.8060 H   0  0  0  0  0  0  0  0  0  0  0  0
   -4.1840  -11.4249    5.3569 H   0  0  0  0  0  0  0  0  0  0  0  0
   -2.3231  -15.7773    4.6663 H   0  0  0  0  0  0  0  0  0  0  0  0
   -2.8035  -15.3189    3.1744 H   0  0  0  0  0  0  0  0  0  0  0  0
   -1.5924  -13.4402    2.0613 H   0  0  0  0  0  0  0  0  0  0  0  0
   -0.3987  -12.6942    2.8891 H   0  0  0  0  0  0  0  0  0  0  0  0
   -7.6393   -6.6179    5.2723 H   0  0  0  0  0  0  0  0  0  0  0  0
   -5.2009   -6.2399    1.4332 H   0  0  0  0  0  0  0  0  0  0  0  0
   -6.5072  -10.4451    5.8178 H   0  0  0  0  0  0  0  0  0  0  0  0
   -3.8570  -10.1080    1.7922 H   0  0  0  0  0  0  0  0  0  0  0  0
   -0.1759  -10.6270   -3.2315 H   0  0  0  0  0  0  0  0  0  0  0  0
   -1.8550   -9.0209   -3.8840 H   0  0  0  0  0  0  0  0  0  0  0  0
   -3.2073  -13.7835    5.6035 H   0  0  0  0  0  0  0  0  0  0  0  0
   -4.3898  -14.5214    4.7527 H   0  0  0  0  0  0  0  0  0  0  0  0
   -2.4499  -11.3895    2.8527 H   0  0  0  0  0  0  0  0  0  0  0  0
   -1.9527  -11.7268    4.3711 H   0  0  0  0  0  0  0  0  0  0  0  0
   -6.3777   -6.4430    3.2580 H   0  0  0  0  0  0  0  0  0  0  0  0
   -0.0223  -11.3289   -0.9241 H   0  0  0  0  0  0  0  0  0  0  0  0
   -3.3183   -8.0554   -2.2348 H   0  0  0  0  0  0  0  0  0  0  0  0
   -4.1149  -13.0311    2.9639 H   0  0  0  0  0  0  0  0  0  0  0  0
  1 21  1  0  0  0  0
  2  7  1  0  0  0  0
  2 22  1  0  0  0  0
  3  6  1  0  0  0  0
  3 11  2  0  0  0  0
  4  8  1  0  0  0  0
  4  9  1  0  0  0  0
  5 10  2  0  0  0  0
  5 12  1  0  0  0  0
  6 13  1  0  0  0  0
  6 23  1  0  0  0  0
  7 24  1  0  0  0  0
  8 16  1  0  0  0  0
  9 17  1  0  0  0  0
 10 18  1  0  0  0  0
 11 25  1  0  0  0  0
 12 22  2  0  0  0  0
 13 25  2  0  0  0  0
 14 15  2  0  0  0  0
 14 19  1  0  0  0  0
 15 20  1  0  0  0  0
 16 24  1  0  0  0  0
 17 24  1  0  0  0  0
 18 26  2  0  0  0  0
 19 21  2  0  0  0  0
 20 23  2  0  0  0  0
 21 23  1  0  0  0  0
 22 26  1  0  0  0  0
 25 26  1  0  0  0  0
  4 27  1  0  0  0  0
  7 28  1  0  0  0  0
  7 29  1  0  0  0  0
  8 30  1  0  0  0  0
  8 31  1  0  0  0  0
  9 32  1  0  0  0  0
  9 33  1  0  0  0  0
 10 34  1  0  0  0  0
 11 35  1  0  0  0  0
 12 36  1  0  0  0  0
 13 37  1  0  0  0  0
 14 38  1  0  0  0  0
 15 39  1  0  0  0  0
 16 40  1  0  0  0  0
 16 41  1  0  0  0  0
 17 42  1  0  0  0  0
 17 43  1  0  0  0  0
 18 44  1  0  0  0  0
 19 45  1  0  0  0  0
 20 46  1  0  0  0  0
 24 47  1  0  0  0  0
M  END
> <pdb_id>
5IHC

> <uniprot_id>
Q14680

> <usmiles>
Fc1c(N2N=CC(c3c(OCC4CCNCC4)cncc3)=C2)cccc1

$$$$
6BC_A_1300
          07202400203D 1   1.00000     0.00000     0
            
 29 31  0  0  0  0            999 V2000
   13.8850   58.7160  -17.3980 Cl  0  0  0  0  0  0  0  0  0  0  0  0
   17.1600   55.4890  -19.5650 O   0  0  0  0  0  0  0  0  0  0  0  0
   18.4310   62.2770  -19.4460 N   0  0  0  0  0  0  0  0  0  0  0  0
   18.8160   57.7300  -20.1790 N   0  0  0  0  0  0  0  0  0  0  0  0
   16.1300   59.3620  -18.5030 N   0  0  0  0  0  0  0  0  0  0  0  0
   17.6170   57.7940  -19.4710 N   0  0  0  0  0  0  0  0  0  0  0  0
   18.3560   61.1320  -19.5470 C   0  0  0  0  0  0  0  0  0  0  0  0
   19.2400   59.0070  -20.2700 C   0  0  0  0  0  0  0  0  0  0  0  0
   11.7740   54.3370  -20.8630 C   0  0  0  0  0  0  0  0  0  0  0  0
   13.0420   54.6520  -21.3120 C   0  0  0  0  0  0  0  0  0  0  0  0
   11.4560   54.6000  -19.5340 C   0  0  0  0  0  0  0  0  0  0  0  0
   14.0180   55.1840  -20.4390 C   0  0  0  0  0  0  0  0  0  0  0  0
   12.4320   55.0740  -18.6820 C   0  0  0  0  0  0  0  0  0  0  0  0
   14.6740   55.9010  -18.1090 C   0  0  0  0  0  0  0  0  0  0  0  0
   15.3740   58.3100  -18.2180 C   0  0  0  0  0  0  0  0  0  0  0  0
   16.8080   56.7010  -19.2240 C   0  0  0  0  0  0  0  0  0  0  0  0
   17.2570   59.0470  -19.1630 C   0  0  0  0  0  0  0  0  0  0  0  0
   13.6890   55.3660  -19.1140 C   0  0  0  0  0  0  0  0  0  0  0  0
   18.2690   59.8020  -19.6510 C   0  0  0  0  0  0  0  0  0  0  0  0
   15.6300   56.9630  -18.5150 C   0  0  0  0  0  0  0  0  0  0  0  0
   15.8850   60.2982  -18.2512 H   0  0  0  0  0  0  0  0  0  0  0  0
   20.0861   59.3248  -20.6978 H   0  0  0  0  0  0  0  0  0  0  0  0
   11.1000   53.9293  -21.4790 H   0  0  0  0  0  0  0  0  0  0  0  0
   13.2737   54.5007  -22.2730 H   0  0  0  0  0  0  0  0  0  0  0  0
   10.5264   54.4465  -19.1989 H   0  0  0  0  0  0  0  0  0  0  0  0
   14.9285   55.4233  -20.7763 H   0  0  0  0  0  0  0  0  0  0  0  0
   12.2087   55.2072  -17.7164 H   0  0  0  0  0  0  0  0  0  0  0  0
   15.2191   55.1240  -17.7940 H   0  0  0  0  0  0  0  0  0  0  0  0
   14.1412   56.2658  -17.3454 H   0  0  0  0  0  0  0  0  0  0  0  0
  1 15  1  0  0  0  0
  2 16  2  0  0  0  0
  3  7  3  0  0  0  0
  4  6  1  0  0  0  0
  4  8  2  0  0  0  0
  5 15  1  0  0  0  0
  5 17  1  0  0  0  0
  6 16  1  0  0  0  0
  6 17  1  0  0  0  0
  7 19  1  0  0  0  0
  8 19  1  0  0  0  0
  9 10  2  0  0  0  0
  9 11  1  0  0  0  0
 10 12  1  0  0  0  0
 11 13  2  0  0  0  0
 12 18  2  0  0  0  0
 13 18  1  0  0  0  0
 14 18  1  0  0  0  0
 14 20  1  0  0  0  0
 15 20  2  0  0  0  0
 16 20  1  0  0  0  0
 17 19  2  0  0  0  0
  5 21  1  0  0  0  0
  8 22  1  0  0  0  0
  9 23  1  0  0  0  0
 10 24  1  0  0  0  0
 11 25  1  0  0  0  0
 12 26  1  0  0  0  0
 13 27  1  0  0  0  0
 14 28  1  0  0  0  0
 14 29  1  0  0  0  0
M  END
> <pdb_id>
2YC5

> <uniprot_id>
P69834

> <usmiles>
ClC=1NC=2N(N=CC2C#N)C(=O)C1Cc3ccccc3

$$$$
6BC_A_401
          07192420003D 1   1.00000     0.00000     0
            
 29 31  0  0  0  0            999 V2000
    6.4600   23.6410  -17.3950 Cl  0  0  0  0  0  0  0  0  0  0  0  0
    2.2500   22.2480  -19.6200 O   0  0  0  0  0  0  0  0  0  0  0  0
    7.4360   17.9910  -19.2050 N   0  0  0  0  0  0  0  0  0  0  0  0
    3.4960   19.7720  -20.0850 N   0  0  0  0  0  0  0  0  0  0  0  0
    5.9460   21.3960  -18.4620 N   0  0  0  0  0  0  0  0  0  0  0  0
    4.0050   20.7810  -19.4870 N   0  0  0  0  0  0  0  0  0  0  0  0
    6.6600   18.4850  -19.3160 C   0  0  0  0  0  0  0  0  0  0  0  0
    4.3780   18.8090  -20.1050 C   0  0  0  0  0  0  0  0  0  0  0  0
    3.9030   27.3970  -20.9100 C   0  0  0  0  0  0  0  0  0  0  0  0
    3.3910   26.2030  -21.3080 C   0  0  0  0  0  0  0  0  0  0  0  0
    4.3290   27.5210  -19.6160 C   0  0  0  0  0  0  0  0  0  0  0  0
    3.2820   25.1310  -20.4610 C   0  0  0  0  0  0  0  0  0  0  0  0
    4.2140   26.4450  -18.7850 C   0  0  0  0  0  0  0  0  0  0  0  0
    3.6240   24.2070  -18.2730 C   0  0  0  0  0  0  0  0  0  0  0  0
    5.4900   22.6170  -18.1720 C   0  0  0  0  0  0  0  0  0  0  0  0
    3.4710   21.9570  -19.2330 C   0  0  0  0  0  0  0  0  0  0  0  0
    5.2240   20.4900  -19.1050 C   0  0  0  0  0  0  0  0  0  0  0  0
    3.7180   25.2390  -19.1800 C   0  0  0  0  0  0  0  0  0  0  0  0
    5.4520   19.2580  -19.4960 C   0  0  0  0  0  0  0  0  0  0  0  0
    4.1970   22.9600  -18.5870 C   0  0  0  0  0  0  0  0  0  0  0  0
    6.8748   21.1543  -18.1811 H   0  0  0  0  0  0  0  0  0  0  0  0
    4.2584   17.9015  -20.5077 H   0  0  0  0  0  0  0  0  0  0  0  0
    3.9668   28.1654  -21.5467 H   0  0  0  0  0  0  0  0  0  0  0  0
    3.0823   26.1027  -22.2539 H   0  0  0  0  0  0  0  0  0  0  0  0
    4.7164   28.3819  -19.2862 H   0  0  0  0  0  0  0  0  0  0  0  0
    2.8831   24.2732  -20.7852 H   0  0  0  0  0  0  0  0  0  0  0  0
    4.5096   26.5470  -17.8351 H   0  0  0  0  0  0  0  0  0  0  0  0
    2.6500   24.0482  -18.1116 H   0  0  0  0  0  0  0  0  0  0  0  0
    4.0551   24.5216  -17.4273 H   0  0  0  0  0  0  0  0  0  0  0  0
  1 15  1  0  0  0  0
  2 16  2  0  0  0  0
  3  7  3  0  0  0  0
  4  6  1  0  0  0  0
  4  8  2  0  0  0  0
  5 15  1  0  0  0  0
  5 17  1  0  0  0  0
  6 16  1  0  0  0  0
  6 17  1  0  0  0  0
  7 19  1  0  0  0  0
  8 19  1  0  0  0  0
  9 10  2  0  0  0  0
  9 11  1  0  0  0  0
 10 12  1  0  0  0  0
 11 13  2  0  0  0  0
 12 18  2  0  0  0  0
 13 18  1  0  0  0  0
 14 18  1  0  0  0  0
 14 20  1  0  0  0  0
 15 20  2  0  0  0  0
 16 20  1  0  0  0  0
 17 19  2  0  0  0  0
  5 21  1  0  0  0  0
  8 22  1  0  0  0  0
  9 23  1  0  0  0  0
 10 24  1  0  0  0  0
 11 25  1  0  0  0  0
 12 26  1  0  0  0  0
 13 27  1  0  0  0  0
 14 28  1  0  0  0  0
 14 29  1  0  0  0  0
M  END
> <pdb_id>
5MRP

> <uniprot_id>
P69834

> <usmiles>
ClC=1NC=2N(N=CC2C#N)C(=O)C1Cc3ccccc3

$$$$
6BL_B_801
          07202410023D 1   1.00000     0.00000     0
            
 23 25  0  0  0  0            999 V2000
   11.9458   26.9941   25.2794 O   0  0  0  0  0  0  0  0  0  0  0  0
   12.4344   28.3185   23.5465 O   0  0  0  0  0  0  0  0  0  0  0  0
   13.0432   29.6136   21.5340 N   0  0  0  0  0  0  0  0  0  0  0  0
   13.6889   29.3699   20.4933 N   0  0  0  0  0  0  0  0  0  0  0  0
   14.8913   27.5243   19.2910 C   0  0  0  0  0  0  0  0  0  0  0  0
   13.8985   23.7171   23.6087 C   0  0  0  0  0  0  0  0  0  0  0  0
   14.5060   23.9151   22.3642 C   0  0  0  0  0  0  0  0  0  0  0  0
   13.2235   24.7624   24.2129 C   0  0  0  0  0  0  0  0  0  0  0  0
   14.4248   25.1353   21.7149 C   0  0  0  0  0  0  0  0  0  0  0  0
   12.4973   27.1016   24.1884 C   0  0  0  0  0  0  0  0  0  0  0  0
   12.9951   28.5256   22.3256 C   0  0  0  0  0  0  0  0  0  0  0  0
   14.0981   28.1046   20.4878 C   0  0  0  0  0  0  0  0  0  0  0  0
   13.1676   26.0137   23.5810 C   0  0  0  0  0  0  0  0  0  0  0  0
   13.7459   26.2051   22.3064 C   0  0  0  0  0  0  0  0  0  0  0  0
   13.6837   27.4884   21.6858 C   0  0  0  0  0  0  0  0  0  0  0  0
   12.6208   30.4940   21.7494 H   0  0  0  0  0  0  0  0  0  0  0  0
   15.1091   26.5647   19.4693 H   0  0  0  0  0  0  0  0  0  0  0  0
   14.3385   27.5919   18.4605 H   0  0  0  0  0  0  0  0  0  0  0  0
   15.7386   28.0415   19.1705 H   0  0  0  0  0  0  0  0  0  0  0  0
   13.9519   22.8256   24.0585 H   0  0  0  0  0  0  0  0  0  0  0  0
   15.0072   23.1629   21.9365 H   0  0  0  0  0  0  0  0  0  0  0  0
   12.7768   24.6266   25.0973 H   0  0  0  0  0  0  0  0  0  0  0  0
   14.8535   25.2520   20.8191 H   0  0  0  0  0  0  0  0  0  0  0  0
  1 10  2  0  0  0  0
  2 10  1  0  0  0  0
  2 11  1  0  0  0  0
  3  4  1  0  0  0  0
  3 11  1  0  0  0  0
  4 12  2  0  0  0  0
  5 12  1  0  0  0  0
  6  7  2  0  0  0  0
  6  8  1  0  0  0  0
  7  9  1  0  0  0  0
  8 13  2  0  0  0  0
  9 14  2  0  0  0  0
 10 13  1  0  0  0  0
 11 15  2  0  0  0  0
 12 15  1  0  0  0  0
 13 14  1  0  0  0  0
 14 15  1  0  0  0  0
  3 16  1  0  0  0  0
  5 17  1  0  0  0  0
  5 18  1  0  0  0  0
  5 19  1  0  0  0  0
  6 20  1  0  0  0  0
  7 21  1  0  0  0  0
  8 22  1  0  0  0  0
  9 23  1  0  0  0  0
M  END
> <pdb_id>
5II1

> <uniprot_id>
Q86U86

> <usmiles>
O=C1OC=2NN=C(C2c3c1cccc3)C

$$$$
6C4_A_301
          07192423263D 1   1.00000     0.00000     0
            
 35 36  0  0  0  0            999 V2000
   28.2744  -14.0263   -8.1267 O   0  0  0  0  0  0  0  0  0  0  0  0
   28.0541  -13.5982   -5.9257 N   0  0  0  0  0  0  0  0  0  0  0  0
   27.3167  -12.3359   -6.2485 C   0  0  0  0  0  0  0  0  0  0  0  0
   28.4111  -10.0019   -3.5354 C   0  0  0  0  0  0  0  0  0  0  0  0
   27.4159   -9.1036   -4.2532 C   0  0  0  0  0  0  0  0  0  0  0  0
   30.9457  -16.7213   -5.7479 C   0  0  0  0  0  0  0  0  0  0  0  0
   30.5136  -17.3678   -7.0710 C   0  0  0  0  0  0  0  0  0  0  0  0
   28.2040  -11.4103   -4.0377 C   0  0  0  0  0  0  0  0  0  0  0  0
   26.8679   -9.9013   -5.4281 C   0  0  0  0  0  0  0  0  0  0  0  0
   29.9343  -15.5999   -5.4714 C   0  0  0  0  0  0  0  0  0  0  0  0
   29.5132  -16.4599   -7.7497 C   0  0  0  0  0  0  0  0  0  0  0  0
   28.3780  -14.4115   -6.9383 C   0  0  0  0  0  0  0  0  0  0  0  0
   27.7834  -11.1323   -5.4777 C   0  0  0  0  0  0  0  0  0  0  0  0
   28.8538  -15.7794   -6.5580 C   0  0  0  0  0  0  0  0  0  0  0  0
   28.2970  -13.8267   -4.9830 H   0  0  0  0  0  0  0  0  0  0  0  0
   26.3475  -12.4794   -6.0483 H   0  0  0  0  0  0  0  0  0  0  0  0
   27.4312  -12.1469   -7.2238 H   0  0  0  0  0  0  0  0  0  0  0  0
   28.2527   -9.9655   -2.5487 H   0  0  0  0  0  0  0  0  0  0  0  0
   29.3445   -9.7033   -3.7343 H   0  0  0  0  0  0  0  0  0  0  0  0
   27.8733   -8.2773   -4.5820 H   0  0  0  0  0  0  0  0  0  0  0  0
   26.6732   -8.8493   -3.6338 H   0  0  0  0  0  0  0  0  0  0  0  0
   31.8680  -16.3440   -5.8309 H   0  0  0  0  0  0  0  0  0  0  0  0
   30.9265  -17.3956   -5.0097 H   0  0  0  0  0  0  0  0  0  0  0  0
   30.0927  -18.2566   -6.8897 H   0  0  0  0  0  0  0  0  0  0  0  0
   31.3111  -17.4909   -7.6616 H   0  0  0  0  0  0  0  0  0  0  0  0
   27.4850  -11.8823   -3.5276 H   0  0  0  0  0  0  0  0  0  0  0  0
   29.0481  -11.9450   -3.9962 H   0  0  0  0  0  0  0  0  0  0  0  0
   26.9279   -9.3759   -6.2768 H   0  0  0  0  0  0  0  0  0  0  0  0
   25.9175  -10.1680   -5.2676 H   0  0  0  0  0  0  0  0  0  0  0  0
   30.3700  -14.7033   -5.5506 H   0  0  0  0  0  0  0  0  0  0  0  0
   29.5378  -15.6985   -4.5587 H   0  0  0  0  0  0  0  0  0  0  0  0
   28.8493  -16.9837   -8.2834 H   0  0  0  0  0  0  0  0  0  0  0  0
   29.9679  -15.7956   -8.3429 H   0  0  0  0  0  0  0  0  0  0  0  0
   28.6144  -10.8260   -5.9422 H   0  0  0  0  0  0  0  0  0  0  0  0
   28.0956  -16.3322   -6.2124 H   0  0  0  0  0  0  0  0  0  0  0  0
  1 12  2  0  0  0  0
  2  3  1  0  0  0  0
  2 12  1  0  0  0  0
  3 13  1  0  0  0  0
  4  5  1  0  0  0  0
  4  8  1  0  0  0  0
  5  9  1  0  0  0  0
  6  7  1  0  0  0  0
  6 10  1  0  0  0  0
  7 11  1  0  0  0  0
  8 13  1  0  0  0  0
  9 13  1  0  0  0  0
 10 14  1  0  0  0  0
 11 14  1  0  0  0  0
 12 14  1  0  0  0  0
  2 15  1  0  0  0  0
  3 16  1  0  0  0  0
  3 17  1  0  0  0  0
  4 18  1  0  0  0  0
  4 19  1  0  0  0  0
  5 20  1  0  0  0  0
  5 21  1  0  0  0  0
  6 22  1  0  0  0  0
  6 23  1  0  0  0  0
  7 24  1  0  0  0  0
  7 25  1  0  0  0  0
  8 26  1  0  0  0  0
  8 27  1  0  0  0  0
  9 28  1  0  0  0  0
  9 29  1  0  0  0  0
 10 30  1  0  0  0  0
 10 31  1  0  0  0  0
 11 32  1  0  0  0  0
 11 33  1  0  0  0  0
 13 34  1  0  0  0  0
 14 35  1  0  0  0  0
M  END
> <pdb_id>
5IOZ

> <uniprot_id>
A5U9I4

> <usmiles>
O=C(NCC1CCCC1)C2CCCC2

$$$$
6C5_A_301
          07192423263D 1   1.00000     0.00000     0
            
 34 35  0  0  0  0            999 V2000
   28.2178  -13.7561   -8.2778 O   0  0  0  0  0  0  0  0  0  0  0  0
   28.1570  -13.3822   -6.0329 N   0  0  0  0  0  0  0  0  0  0  0  0
   29.1824  -15.2864   -6.8389 N   0  0  0  0  0  0  0  0  0  0  0  0
   27.3836  -12.1760   -6.2182 C   0  0  0  0  0  0  0  0  0  0  0  0
   29.6406  -16.1315   -7.9737 C   0  0  0  0  0  0  0  0  0  0  0  0
   29.7684  -15.5660   -5.5312 C   0  0  0  0  0  0  0  0  0  0  0  0
   30.5367  -17.1255   -7.2645 C   0  0  0  0  0  0  0  0  0  0  0  0
   30.4081  -16.9519   -5.7353 C   0  0  0  0  0  0  0  0  0  0  0  0
   27.1593   -9.0175   -4.1792 C   0  0  0  0  0  0  0  0  0  0  0  0
   28.2340   -9.6969   -3.4502 C   0  0  0  0  0  0  0  0  0  0  0  0
   26.9366   -9.7556   -5.4956 C   0  0  0  0  0  0  0  0  0  0  0  0
   28.4817  -11.0719   -4.0755 C   0  0  0  0  0  0  0  0  0  0  0  0
   28.4858  -14.1445   -7.0673 C   0  0  0  0  0  0  0  0  0  0  0  0
   27.8760  -10.9523   -5.4790 C   0  0  0  0  0  0  0  0  0  0  0  0
   28.4480  -13.6457   -5.1132 H   0  0  0  0  0  0  0  0  0  0  0  0
   26.4494  -12.3619   -5.9138 H   0  0  0  0  0  0  0  0  0  0  0  0
   27.3795  -11.9623   -7.1951 H   0  0  0  0  0  0  0  0  0  0  0  0
   30.1501  -15.5952   -8.6466 H   0  0  0  0  0  0  0  0  0  0  0  0
   28.8726  -16.5876   -8.4234 H   0  0  0  0  0  0  0  0  0  0  0  0
   29.0660  -15.5943   -4.8200 H   0  0  0  0  0  0  0  0  0  0  0  0
   30.4580  -14.8825   -5.2917 H   0  0  0  0  0  0  0  0  0  0  0  0
   31.4860  -16.9694   -7.5372 H   0  0  0  0  0  0  0  0  0  0  0  0
   30.2659  -18.0546   -7.5166 H   0  0  0  0  0  0  0  0  0  0  0  0
   29.8240  -17.6665   -5.3503 H   0  0  0  0  0  0  0  0  0  0  0  0
   31.3088  -16.9884   -5.3024 H   0  0  0  0  0  0  0  0  0  0  0  0
   27.4208   -8.0698   -4.3623 H   0  0  0  0  0  0  0  0  0  0  0  0
   26.3197   -9.0326   -3.6362 H   0  0  0  0  0  0  0  0  0  0  0  0
   27.9688   -9.8087   -2.4925 H   0  0  0  0  0  0  0  0  0  0  0  0
   29.0700   -9.1508   -3.5030 H   0  0  0  0  0  0  0  0  0  0  0  0
   27.1510   -9.1579   -6.2681 H   0  0  0  0  0  0  0  0  0  0  0  0
   25.9872  -10.0617   -5.5645 H   0  0  0  0  0  0  0  0  0  0  0  0
   28.0241  -11.7894   -3.5503 H   0  0  0  0  0  0  0  0  0  0  0  0
   29.4608  -11.2688   -4.1259 H   0  0  0  0  0  0  0  0  0  0  0  0
   28.6479  -10.6445   -6.0354 H   0  0  0  0  0  0  0  0  0  0  0  0
  1 13  2  0  0  0  0
  2  4  1  0  0  0  0
  2 13  1  0  0  0  0
  3  5  1  0  0  0  0
  3  6  1  0  0  0  0
  3 13  1  0  0  0  0
  4 14  1  0  0  0  0
  5  7  1  0  0  0  0
  6  8  1  0  0  0  0
  7  8  1  0  0  0  0
  9 10  1  0  0  0  0
  9 11  1  0  0  0  0
 10 12  1  0  0  0  0
 11 14  1  0  0  0  0
 12 14  1  0  0  0  0
  2 15  1  0  0  0  0
  4 16  1  0  0  0  0
  4 17  1  0  0  0  0
  5 18  1  0  0  0  0
  5 19  1  0  0  0  0
  6 20  1  0  0  0  0
  6 21  1  0  0  0  0
  7 22  1  0  0  0  0
  7 23  1  0  0  0  0
  8 24  1  0  0  0  0
  8 25  1  0  0  0  0
  9 26  1  0  0  0  0
  9 27  1  0  0  0  0
 10 28  1  0  0  0  0
 10 29  1  0  0  0  0
 11 30  1  0  0  0  0
 11 31  1  0  0  0  0
 12 32  1  0  0  0  0
 12 33  1  0  0  0  0
 14 34  1  0  0  0  0
M  END
> <pdb_id>
5IOY

> <uniprot_id>
A5U9I4

> <usmiles>
O=C(N1CCCC1)NCC2CCCC2

$$$$
6C6_A_201
          07202415243D 1   1.00000     0.00000     0
            
 50 53  0  0  0  0            999 V2000
    6.0116   43.5692   13.9904 P   0  0  0  0  0  0  0  0  0  0  0  0
    6.2974   43.8466   12.4811 O   0  0  0  0  0  0  0  0  0  0  0  0
    4.4942   43.7134   14.3400 O   0  0  0  0  0  0  0  0  0  0  0  0
    6.6113   42.2856   14.4210 O   0  0  0  0  0  0  0  0  0  0  0  0
    7.2704   48.3431   19.2585 O   0  0  0  0  0  0  0  0  0  0  0  0
    8.8898   46.3218   18.6214 O   0  0  0  0  0  0  0  0  0  0  0  0
    6.7717   44.7788   14.7476 O   0  0  0  0  0  0  0  0  0  0  0  0
    6.9050   47.1887   16.0700 O   0  0  0  0  0  0  0  0  0  0  0  0
    1.3928   48.4587   19.0056 N   0  0  0  0  0  0  0  0  0  0  0  0
    3.6887   48.7346   18.7853 N   0  0  0  0  0  0  0  0  0  0  0  0
    2.8357   46.6499   16.1587 N   0  0  0  0  0  0  0  0  0  0  0  0
    0.1154   47.2014   17.5974 N   0  0  0  0  0  0  0  0  0  0  0  0
    4.6988   47.5535   16.9097 N   0  0  0  0  0  0  0  0  0  0  0  0
    2.5403   48.9787   19.4032 C   0  0  0  0  0  0  0  0  0  0  0  0
    4.1573   46.7645   15.9628 C   0  0  0  0  0  0  0  0  0  0  0  0
    6.8513   44.7773   16.1405 C   0  0  0  0  0  0  0  0  0  0  0  0
   -2.3626   45.3644   17.1682 C   0  0  0  0  0  0  0  0  0  0  0  0
   -1.2073   44.4453   17.6060 C   0  0  0  0  0  0  0  0  0  0  0  0
   -1.7517   46.4147   16.2272 C   0  0  0  0  0  0  0  0  0  0  0  0
    0.0284   44.8892   16.7980 C   0  0  0  0  0  0  0  0  0  0  0  0
    1.3370   47.6631   17.9184 C   0  0  0  0  0  0  0  0  0  0  0  0
    6.6139   47.3458   18.4518 C   0  0  2  0  0  0  0  0  0  0  0  0
    7.5442   46.1538   18.1645 C   0  0  1  0  0  0  0  0  0  0  0  0
    6.1433   47.8945   17.0823 C   0  0  1  0  0  0  0  0  0  0  0  0
    7.5870   46.0413   16.6344 C   0  0  2  0  0  0  0  0  0  0  0  0
   -0.2259   46.3523   16.4443 C   0  0  0  0  0  0  0  0  0  0  0  0
    3.7123   47.9310   17.7166 C   0  0  0  0  0  0  0  0  0  0  0  0
    2.5168   47.3863   17.2319 C   0  0  0  0  0  0  0  0  0  0  0  0
    7.2759   43.7436   12.3027 H   0  0  0  0  0  0  0  0  0  0  0  0
    4.3572   43.5278   15.3131 H   0  0  0  0  0  0  0  0  0  0  0  0
    6.6416   49.1022   19.4271 H   0  0  0  0  0  0  0  0  0  0  0  0
    9.4227   45.5063   18.3956 H   0  0  0  0  0  0  0  0  0  0  0  0
   -0.6369   47.4610   18.2029 H   0  0  0  0  0  0  0  0  0  0  0  0
    2.5434   49.5805   20.2018 H   0  0  0  0  0  0  0  0  0  0  0  0
    4.6665   46.3275   15.2214 H   0  0  0  0  0  0  0  0  0  0  0  0
    7.3511   43.9653   16.4419 H   0  0  0  0  0  0  0  0  0  0  0  0
    5.9278   44.7616   16.5240 H   0  0  0  0  0  0  0  0  0  0  0  0
   -2.7705   45.8101   17.9650 H   0  0  0  0  0  0  0  0  0  0  0  0
   -3.0620   44.8353   16.6877 H   0  0  0  0  0  0  0  0  0  0  0  0
   -1.4284   43.4911   17.4044 H   0  0  0  0  0  0  0  0  0  0  0  0
   -1.0355   44.5478   18.5858 H   0  0  0  0  0  0  0  0  0  0  0  0
   -2.0969   47.3255   16.4537 H   0  0  0  0  0  0  0  0  0  0  0  0
   -1.9755   46.2003   15.2765 H   0  0  0  0  0  0  0  0  0  0  0  0
    0.1204   44.3390   15.9680 H   0  0  0  0  0  0  0  0  0  0  0  0
    0.8578   44.8013   17.3497 H   0  0  0  0  0  0  0  0  0  0  0  0
    5.8145   47.0108   18.9506 H   0  0  0  0  0  0  0  0  0  0  0  0
    7.1557   45.3191   18.5549 H   0  0  0  0  0  0  0  0  0  0  0  0
    6.2901   48.8818   17.0202 H   0  0  0  0  0  0  0  0  0  0  0  0
    8.5368   46.0242   16.3222 H   0  0  0  0  0  0  0  0  0  0  0  0
    0.2752   46.6260   15.6233 H   0  0  0  0  0  0  0  0  0  0  0  0
  1  2  1  0  0  0  0
  1  3  1  0  0  0  0
  1  4  2  0  0  0  0
  1  7  1  0  0  0  0
  5 22  1  0  0  0  0
  6 23  1  0  0  0  0
  7 16  1  0  0  0  0
  8 24  1  0  0  0  0
  8 25  1  0  0  0  0
  9 14  2  0  0  0  0
  9 21  1  0  0  0  0
 10 14  1  0  0  0  0
 10 27  2  0  0  0  0
 11 15  2  0  0  0  0
 11 28  1  0  0  0  0
 12 21  1  0  0  0  0
 12 26  1  0  0  0  0
 13 15  1  0  0  0  0
 13 24  1  0  0  0  0
 13 27  1  0  0  0  0
 16 25  1  0  0  0  0
 17 18  1  0  0  0  0
 17 19  1  0  0  0  0
 18 20  1  0  0  0  0
 19 26  1  0  0  0  0
 20 26  1  0  0  0  0
 21 28  2  0  0  0  0
 22 23  1  0  0  0  0
 22 24  1  0  0  0  0
 23 25  1  0  0  0  0
 27 28  1  0  0  0  0
  2 29  1  0  0  0  0
  3 30  1  0  0  0  0
  5 31  1  0  0  0  0
  6 32  1  0  0  0  0
 12 33  1  0  0  0  0
 14 34  1  0  0  0  0
 15 35  1  0  0  0  0
 16 36  1  0  0  0  0
 16 37  1  0  0  0  0
 17 38  1  0  0  0  0
 17 39  1  0  0  0  0
 18 40  1  0  0  0  0
 18 41  1  0  0  0  0
 19 42  1  0  0  0  0
 19 43  1  0  0  0  0
 20 44  1  0  0  0  0
 20 45  1  0  0  0  0
 22 46  1  0  0  0  0
 23 47  1  0  0  0  0
 24 48  1  0  0  0  0
 25 49  1  0  0  0  0
 26 50  1  0  0  0  0
M  END
> <pdb_id>
4KXL

> <uniprot_id>
O35820

> <usmiles>
P(=O)(OC[C@H]1O[C@@H](N2c3ncnc(NC4CCCC4)c3N=C2)[C@H](O)[C@@H]1O)(O)O

$$$$
6CB_A_402
          07192419233D 1   1.00000     0.00000     0
            
 50 53  0  0  0  0            999 V2000
  -22.8746   40.0352   -2.0750 F   0  0  0  0  0  0  0  0  0  0  0  0
  -18.0358   36.2752    2.1370 O   0  0  0  0  0  0  0  0  0  0  0  0
  -15.7522   37.5973   -5.4886 N   0  0  0  0  0  0  0  0  0  0  0  0
  -19.7864   38.0924    3.1978 N   0  0  0  0  0  0  0  0  0  0  0  0
  -15.5657   33.2883    0.6757 N   0  0  0  0  0  0  0  0  0  0  0  0
  -17.8326   36.6646   -5.1145 N   0  0  0  0  0  0  0  0  0  0  0  0
  -19.7205   37.9003   -0.5136 N   0  0  0  0  0  0  0  0  0  0  0  0
  -18.0612   35.9113   -0.1226 N   0  0  0  0  0  0  0  0  0  0  0  0
  -20.1180   35.9647   -4.7342 C   0  0  0  0  0  0  0  0  0  0  0  0
  -14.9532   33.1999   -0.5012 C   0  0  0  0  0  0  0  0  0  0  0  0
  -16.5962   34.1314    0.7615 C   0  0  0  0  0  0  0  0  0  0  0  0
  -20.7347   40.0169   -4.9636 C   0  0  0  0  0  0  0  0  0  0  0  0
  -19.5993   39.4266   -4.4483 C   0  0  0  0  0  0  0  0  0  0  0  0
  -21.8339   40.2452   -4.1541 C   0  0  0  0  0  0  0  0  0  0  0  0
  -15.3392   33.8982   -1.6248 C   0  0  0  0  0  0  0  0  0  0  0  0
  -20.9076   39.3865    1.4975 C   0  0  0  0  0  0  0  0  0  0  0  0
  -21.1493   39.6894    0.1709 C   0  0  0  0  0  0  0  0  0  0  0  0
  -19.5502   39.0524   -3.1146 C   0  0  0  0  0  0  0  0  0  0  0  0
  -16.0373   36.1515   -3.5877 C   0  0  0  0  0  0  0  0  0  0  0  0
  -18.2416   35.3139   -3.1916 C   0  0  0  0  0  0  0  0  0  0  0  0
  -18.4597   36.5308    1.0125 C   0  0  0  0  0  0  0  0  0  0  0  0
  -21.7731   39.8539   -2.8346 C   0  0  0  0  0  0  0  0  0  0  0  0
  -16.5344   36.7777   -4.7373 C   0  0  0  0  0  0  0  0  0  0  0  0
  -18.6745   35.9566   -4.3383 C   0  0  0  0  0  0  0  0  0  0  0  0
  -20.0527   38.3425    1.8607 C   0  0  0  0  0  0  0  0  0  0  0  0
  -17.0664   34.9115   -0.2947 C   0  0  0  0  0  0  0  0  0  0  0  0
  -20.5386   38.9251   -0.8184 C   0  0  0  0  0  0  0  0  0  0  0  0
  -19.4651   37.6223    0.7817 C   0  0  0  0  0  0  0  0  0  0  0  0
  -16.9101   35.4127   -2.7930 C   0  0  0  0  0  0  0  0  0  0  0  0
  -20.6429   39.2677   -2.2652 C   0  0  0  0  0  0  0  0  0  0  0  0
  -16.4306   34.7608   -1.5410 C   0  0  0  0  0  0  0  0  0  0  0  0
  -16.1198   38.0987   -6.2903 H   0  0  0  0  0  0  0  0  0  0  0  0
  -14.7826   37.7581   -5.2353 H   0  0  0  0  0  0  0  0  0  0  0  0
  -19.1769   37.3404    3.5036 H   0  0  0  0  0  0  0  0  0  0  0  0
  -20.1847   38.6746    3.9278 H   0  0  0  0  0  0  0  0  0  0  0  0
  -18.5260   36.2335   -0.9645 H   0  0  0  0  0  0  0  0  0  0  0  0
  -20.2969   36.4633   -5.6859 H   0  0  0  0  0  0  0  0  0  0  0  0
  -20.4475   34.9314   -4.8261 H   0  0  0  0  0  0  0  0  0  0  0  0
  -20.7489   36.4399   -3.9834 H   0  0  0  0  0  0  0  0  0  0  0  0
  -14.1095   32.5146   -0.5292 H   0  0  0  0  0  0  0  0  0  0  0  0
  -17.0320   34.1571    1.7596 H   0  0  0  0  0  0  0  0  0  0  0  0
  -20.8025   40.2595   -6.0209 H   0  0  0  0  0  0  0  0  0  0  0  0
  -18.7556   39.2226   -5.1098 H   0  0  0  0  0  0  0  0  0  0  0  0
  -22.7260   40.7356   -4.5442 H   0  0  0  0  0  0  0  0  0  0  0  0
  -14.8165   33.7568   -2.5692 H   0  0  0  0  0  0  0  0  0  0  0  0
  -21.3801   39.9894    2.2687 H   0  0  0  0  0  0  0  0  0  0  0  0
  -21.7705   40.5546   -0.0528 H   0  0  0  0  0  0  0  0  0  0  0  0
  -18.6447   38.5599   -2.7627 H   0  0  0  0  0  0  0  0  0  0  0  0
  -14.9954   36.2618   -3.2914 H   0  0  0  0  0  0  0  0  0  0  0  0
  -18.9493   34.7325   -2.6027 H   0  0  0  0  0  0  0  0  0  0  0  0
  1 22  1  0  0  0  0
  2 21  2  0  0  0  0
  3 23  1  0  0  0  0
  3 32  1  0  0  0  0
  3 33  1  0  0  0  0
  4 25  1  0  0  0  0
  4 34  1  0  0  0  0
  4 35  1  0  0  0  0
  5 10  2  0  0  0  0
  5 11  1  0  0  0  0
  6 23  2  0  0  0  0
  6 24  1  0  0  0  0
  7 27  1  0  0  0  0
  7 28  2  0  0  0  0
  8 21  1  0  0  0  0
  8 26  1  0  0  0  0
  8 36  1  0  0  0  0
  9 24  1  0  0  0  0
  9 37  1  0  0  0  0
  9 38  1  0  0  0  0
  9 39  1  0  0  0  0
 10 15  1  0  0  0  0
 10 40  1  0  0  0  0
 11 26  2  0  0  0  0
 11 41  1  0  0  0  0
 12 13  2  0  0  0  0
 12 14  1  0  0  0  0
 12 42  1  0  0  0  0
 13 18  1  0  0  0  0
 13 43  1  0  0  0  0
 14 22  2  0  0  0  0
 14 44  1  0  0  0  0
 15 31  2  0  0  0  0
 15 45  1  0  0  0  0
 16 17  1  0  0  0  0
 16 25  2  0  0  0  0
 16 46  1  0  0  0  0
 17 27  2  0  0  0  0
 17 47  1  0  0  0  0
 18 30  2  0  0  0  0
 18 48  1  0  0  0  0
 19 23  1  0  0  0  0
 19 29  2  0  0  0  0
 19 49  1  0  0  0  0
 20 24  2  0  0  0  0
 20 29  1  0  0  0  0
 20 50  1  0  0  0  0
 21 28  1  0  0  0  0
 22 30  1  0  0  0  0
 25 28  1  0  0  0  0
 26 31  1  0  0  0  0
 27 30  1  0  0  0  0
 29 31  1  0  0  0  0
M  END
> <pdb_id>
5IIS

> <uniprot_id>
P11309

> <usmiles>
Fc1c(c2nc(c(N)cc2)C(=O)Nc3c(c4cc(nc(c4)C)N)ccnc3)cccc1

$$$$
6CS_A_1312
          07192417363D 1   1.00000     0.00000     0
            
 21 21  0  0  0  0            999 V2000
   43.5300   29.8500   33.4510 O   0  0  0  0  0  0  0  0  0  0  0  0
   44.0070   31.2240   35.0690 O   0  0  0  0  0  0  0  0  0  0  0  0
   43.2810   33.8230   34.6840 O   0  0  0  0  0  0  0  0  0  0  0  0
   41.9840   33.8400   31.2840 N   0  0  0  0  0  0  0  0  0  0  0  0
   42.8700   31.7640   31.6420 N   0  0  0  0  0  0  0  0  0  0  0  0
   41.5790   32.0840   29.6210 C   0  0  0  0  0  0  0  0  0  0  0  0
   42.4050   34.4470   32.5450 C   0  0  0  0  0  0  0  0  0  0  0  0
   43.6750   31.0110   33.8780 C   0  0  0  0  0  0  0  0  0  0  0  0
   42.1840   32.5680   30.9210 C   0  0  0  0  0  0  0  0  0  0  0  0
   42.6500   33.2880   33.5100 C   0  0  1  0  0  0  0  0  0  0  0  0
   43.5020   32.1680   32.9050 C   0  0  2  0  0  0  0  0  0  0  0  0
   43.2650   29.6968   32.4990 H   0  0  0  0  0  0  0  0  0  0  0  0
   43.4539   33.0843   35.3355 H   0  0  0  0  0  0  0  0  0  0  0  0
   41.5031   34.4284   30.6340 H   0  0  0  0  0  0  0  0  0  0  0  0
   41.8109   31.1210   29.4835 H   0  0  0  0  0  0  0  0  0  0  0  0
   40.5848   32.1855   29.6579 H   0  0  0  0  0  0  0  0  0  0  0  0
   41.9415   32.6257   28.8626 H   0  0  0  0  0  0  0  0  0  0  0  0
   41.6874   35.0473   32.8982 H   0  0  0  0  0  0  0  0  0  0  0  0
   43.2451   34.9732   32.4138 H   0  0  0  0  0  0  0  0  0  0  0  0
   41.7651   32.9043   33.7740 H   0  0  0  0  0  0  0  0  0  0  0  0
   44.4066   32.5402   32.6973 H   0  0  0  0  0  0  0  0  0  0  0  0
  1  8  1  0  0  0  0
  2  8  2  0  0  0  0
  3 10  1  0  0  0  0
  4  7  1  0  0  0  0
  4  9  1  0  0  0  0
  5  9  2  0  0  0  0
  5 11  1  0  0  0  0
  6  9  1  0  0  0  0
  7 10  1  0  0  0  0
  8 11  1  0  0  0  0
 10 11  1  0  0  0  0
  1 12  1  0  0  0  0
  3 13  1  0  0  0  0
  4 14  1  0  0  0  0
  6 15  1  0  0  0  0
  6 16  1  0  0  0  0
  6 17  1  0  0  0  0
  7 18  1  0  0  0  0
  7 19  1  0  0  0  0
 10 20  1  0  0  0  0
 11 21  1  0  0  0  0
M  END
> <pdb_id>
2VPO

> <uniprot_id>
Q8VPB3

> <usmiles>
O=C(O)[C@H]1N=C(NC[C@@H]1O)C

$$$$
6DB_A_301
          07202417243D 1   1.00000     0.00000     0
            
 35 34  0  0  0  0            999 V2000
    5.4640   19.3319    0.6321 O   0  0  0  0  0  0  0  0  0  0  0  0
    6.6000   20.9403    1.5541 O   0  0  0  0  0  0  0  0  0  0  0  0
    1.1701   18.2626    2.8277 O   0  0  0  0  0  0  0  0  0  0  0  0
    2.4604   16.7878    3.7937 O   0  0  0  0  0  0  0  0  0  0  0  0
    2.8995   23.0304    8.7130 N   0  0  0  0  0  0  0  0  0  0  0  0
    4.6591   21.6001    8.9159 N   0  0  0  0  0  0  0  0  0  0  0  0
    3.1929   21.2781    7.1368 N   0  0  0  0  0  0  0  0  0  0  0  0
    3.1729   19.8879    2.0693 N   0  0  0  0  0  0  0  0  0  0  0  0
    3.6667   22.0033    0.9955 C   0  0  0  0  0  0  0  0  0  0  0  0
    3.9266   20.1242    6.5531 C   0  0  0  0  0  0  0  0  0  0  0  0
    3.3325   19.8146    5.1766 C   0  0  0  0  0  0  0  0  0  0  0  0
    4.2154   19.0278    4.2238 C   0  0  0  0  0  0  0  0  0  0  0  0
    3.6136   22.0161    8.2869 C   0  0  0  0  0  0  0  0  0  0  0  0
    5.5048   20.3725    1.3195 C   0  0  0  0  0  0  0  0  0  0  0  0
    2.3161   17.8764    3.1700 C   0  0  0  0  0  0  0  0  0  0  0  0
    4.1910   20.9241    1.8768 C   0  0  2  0  0  0  0  0  0  0  0  0
    3.5312   18.7210    2.8699 C   0  0  1  0  0  0  0  0  0  0  0  0
    4.5873   18.8866    0.4506 H   0  0  0  0  0  0  0  0  0  0  0  0
    1.0599   19.1252    2.3340 H   0  0  0  0  0  0  0  0  0  0  0  0
    2.0940   23.3258    8.1992 H   0  0  0  0  0  0  0  0  0  0  0  0
    3.1604   23.5084    9.5517 H   0  0  0  0  0  0  0  0  0  0  0  0
    5.1797   20.8233    8.5616 H   0  0  0  0  0  0  0  0  0  0  0  0
    2.3423   21.5589    6.6922 H   0  0  0  0  0  0  0  0  0  0  0  0
    2.9083   19.5579    1.1632 H   0  0  0  0  0  0  0  0  0  0  0  0
    4.3697   22.7036    0.8718 H   0  0  0  0  0  0  0  0  0  0  0  0
    3.4205   21.6174    0.1064 H   0  0  0  0  0  0  0  0  0  0  0  0
    2.8577   22.4137    1.4163 H   0  0  0  0  0  0  0  0  0  0  0  0
    3.8299   19.3270    7.1490 H   0  0  0  0  0  0  0  0  0  0  0  0
    4.8953   20.3538    6.4581 H   0  0  0  0  0  0  0  0  0  0  0  0
    3.1107   20.6854    4.7377 H   0  0  0  0  0  0  0  0  0  0  0  0
    2.4933   19.2895    5.3182 H   0  0  0  0  0  0  0  0  0  0  0  0
    4.4602   18.1617    4.6595 H   0  0  0  0  0  0  0  0  0  0  0  0
    5.0446   19.5584    4.0477 H   0  0  0  0  0  0  0  0  0  0  0  0
    4.3858   21.3289    2.7702 H   0  0  0  0  0  0  0  0  0  0  0  0
    4.1624   18.1643    2.3298 H   0  0  0  0  0  0  0  0  0  0  0  0
  1 14  1  0  0  0  0
  2 14  2  0  0  0  0
  3 15  1  0  0  0  0
  4 15  2  0  0  0  0
  5 13  1  0  0  0  0
  6 13  2  0  0  0  0
  7 10  1  0  0  0  0
  7 13  1  0  0  0  0
  8 16  1  0  0  0  0
  8 17  1  0  0  0  0
  9 16  1  0  0  0  0
 10 11  1  0  0  0  0
 11 12  1  0  0  0  0
 12 17  1  0  0  0  0
 14 16  1  0  0  0  0
 15 17  1  0  0  0  0
  1 18  1  0  0  0  0
  3 19  1  0  0  0  0
  5 20  1  0  0  0  0
  5 21  1  0  0  0  0
  6 22  1  0  0  0  0
  7 23  1  0  0  0  0
  8 24  1  0  0  0  0
  9 25  1  0  0  0  0
  9 26  1  0  0  0  0
  9 27  1  0  0  0  0
 10 28  1  0  0  0  0
 10 29  1  0  0  0  0
 11 30  1  0  0  0  0
 11 31  1  0  0  0  0
 12 32  1  0  0  0  0
 12 33  1  0  0  0  0
 16 34  1  0  0  0  0
 17 35  1  0  0  0  0
M  END
> <pdb_id>
5ITP

> <uniprot_id>
P35120

> <usmiles>
O=C(O)[C@H](N[C@H](C(=O)O)CCCNC(=N)N)C

$$$$
6DB_A_304
          07202417253D 1   1.00000     0.00000     0
            
 35 34  0  0  0  0            999 V2000
   54.2385   -2.5882  -14.5445 O   0  0  0  0  0  0  0  0  0  0  0  0
   56.4247   -2.5818  -14.8370 O   0  0  0  0  0  0  0  0  0  0  0  0
   57.5759   -0.2401  -19.2175 O   0  0  0  0  0  0  0  0  0  0  0  0
   57.6969    1.3211  -17.6990 O   0  0  0  0  0  0  0  0  0  0  0  0
   50.2598    1.2625  -19.5687 N   0  0  0  0  0  0  0  0  0  0  0  0
   50.3088    3.2563  -18.4984 N   0  0  0  0  0  0  0  0  0  0  0  0
   52.2010    1.8780  -18.3587 N   0  0  0  0  0  0  0  0  0  0  0  0
   56.2720    0.0817  -15.8308 N   0  0  0  0  0  0  0  0  0  0  0  0
   55.5316    0.0888  -13.4475 C   0  0  0  0  0  0  0  0  0  0  0  0
   52.9019    0.6511  -18.6585 C   0  0  0  0  0  0  0  0  0  0  0  0
   54.2320    0.6399  -18.0101 C   0  0  0  0  0  0  0  0  0  0  0  0
   54.9438   -0.6752  -17.8479 C   0  0  0  0  0  0  0  0  0  0  0  0
   50.8812    2.1267  -18.8434 C   0  0  0  0  0  0  0  0  0  0  0  0
   55.3270   -1.9778  -14.7383 C   0  0  0  0  0  0  0  0  0  0  0  0
   57.2444    0.2084  -18.0790 C   0  0  0  0  0  0  0  0  0  0  0  0
   55.3188   -0.4623  -14.8316 C   0  0  2  0  0  0  0  0  0  0  0  0
   56.3051   -0.5502  -17.1724 C   0  0  1  0  0  0  0  0  0  0  0  0
   53.3835   -2.0748  -14.4710 H   0  0  0  0  0  0  0  0  0  0  0  0
   57.2229   -1.1222  -19.5296 H   0  0  0  0  0  0  0  0  0  0  0  0
   50.7102    0.4067  -19.8228 H   0  0  0  0  0  0  0  0  0  0  0  0
   49.3269    1.4475  -19.8777 H   0  0  0  0  0  0  0  0  0  0  0  0
   50.8052    3.9166  -17.9348 H   0  0  0  0  0  0  0  0  0  0  0  0
   52.6519    2.5715  -17.7968 H   0  0  0  0  0  0  0  0  0  0  0  0
   57.1896    0.0025  -15.4413 H   0  0  0  0  0  0  0  0  0  0  0  0
   54.8628   -0.3132  -12.8222 H   0  0  0  0  0  0  0  0  0  0  0  0
   56.4553   -0.1364  -13.1374 H   0  0  0  0  0  0  0  0  0  0  0  0
   55.4183    1.0823  -13.4632 H   0  0  0  0  0  0  0  0  0  0  0  0
   53.0182    0.5725  -19.6486 H   0  0  0  0  0  0  0  0  0  0  0  0
   52.3662   -0.1239  -18.3233 H   0  0  0  0  0  0  0  0  0  0  0  0
   54.1171    1.0275  -17.0954 H   0  0  0  0  0  0  0  0  0  0  0  0
   54.8284    1.2330  -18.5509 H   0  0  0  0  0  0  0  0  0  0  0  0
   55.0756   -1.0777  -18.7537 H   0  0  0  0  0  0  0  0  0  0  0  0
   54.3703   -1.2796  -17.2948 H   0  0  0  0  0  0  0  0  0  0  0  0
   54.4010   -0.1893  -15.1201 H   0  0  0  0  0  0  0  0  0  0  0  0
   56.6728   -1.4735  -17.0618 H   0  0  0  0  0  0  0  0  0  0  0  0
  1 14  1  0  0  0  0
  2 14  2  0  0  0  0
  3 15  1  0  0  0  0
  4 15  2  0  0  0  0
  5 13  1  0  0  0  0
  6 13  2  0  0  0  0
  7 10  1  0  0  0  0
  7 13  1  0  0  0  0
  8 16  1  0  0  0  0
  8 17  1  0  0  0  0
  9 16  1  0  0  0  0
 10 11  1  0  0  0  0
 11 12  1  0  0  0  0
 12 17  1  0  0  0  0
 14 16  1  0  0  0  0
 15 17  1  0  0  0  0
  1 18  1  0  0  0  0
  3 19  1  0  0  0  0
  5 20  1  0  0  0  0
  5 21  1  0  0  0  0
  6 22  1  0  0  0  0
  7 23  1  0  0  0  0
  8 24  1  0  0  0  0
  9 25  1  0  0  0  0
  9 26  1  0  0  0  0
  9 27  1  0  0  0  0
 10 28  1  0  0  0  0
 10 29  1  0  0  0  0
 11 30  1  0  0  0  0
 11 31  1  0  0  0  0
 12 32  1  0  0  0  0
 12 33  1  0  0  0  0
 16 34  1  0  0  0  0
 17 35  1  0  0  0  0
M  END
> <pdb_id>
5ITO

> <uniprot_id>
P35120

> <usmiles>
O=C(O)[C@H](N[C@H](C(=O)O)CCCNC(=N)N)C

$$$$
6DJ_D_706
          07202400003D 1   1.00000     0.00000     0
            
 37 38  0  0  0  0            999 V2000
   31.7240  -42.2230   60.8040 S   0  0  0  0  0  0  0  0  0  0  0  0
   33.1310  -36.9400   63.2100 O   0  0  0  0  0  0  0  0  0  0  0  0
   33.4210  -36.7220   60.2810 O   0  0  0  0  0  0  0  0  0  0  0  0
   33.3320  -39.6520   59.8550 O   0  0  0  0  0  0  0  0  0  0  0  0
   32.7400  -41.7340   63.1980 N   0  0  0  0  0  0  0  0  0  0  0  0
   31.6500  -40.0690   62.0780 N   0  0  0  0  0  0  0  0  0  0  0  0
   31.1100  -45.7970   65.3100 C   0  0  0  0  0  0  0  0  0  0  0  0
   30.6780  -40.9740   60.1100 C   0  0  0  0  0  0  0  0  0  0  0  0
   33.1970  -43.1100   63.3800 C   0  0  0  0  0  0  0  0  0  0  0  0
   31.7750  -38.9690   63.0000 C   0  0  0  0  0  0  0  0  0  0  0  0
   31.9680  -45.2370   64.1850 C   0  0  0  0  0  0  0  0  0  0  0  0
   32.0750  -43.7120   64.2520 C   0  0  0  0  0  0  0  0  0  0  0  0
   32.0890  -41.3150   62.1830 C   0  0  0  0  0  0  0  0  0  0  0  0
   32.9330  -38.1240   62.4400 C   0  0  1  0  0  0  0  0  0  0  0  0
   32.7040  -37.7610   60.9600 C   0  0  2  0  0  0  0  0  0  0  0  0
   32.1580  -38.8720   60.0880 C   0  0  2  0  0  0  0  0  0  0  0  0
   31.0570  -39.6700   60.8170 C   0  0  2  0  0  0  0  0  0  0  0  0
   33.8877  -36.4133   62.8228 H   0  0  0  0  0  0  0  0  0  0  0  0
   33.1081  -36.6658   59.3329 H   0  0  0  0  0  0  0  0  0  0  0  0
   33.1024  -40.4357   59.2778 H   0  0  0  0  0  0  0  0  0  0  0  0
   31.0652  -46.7929   65.2310 H   0  0  0  0  0  0  0  0  0  0  0  0
   31.5133  -45.5503   66.1912 H   0  0  0  0  0  0  0  0  0  0  0  0
   30.1876  -45.4158   65.2471 H   0  0  0  0  0  0  0  0  0  0  0  0
   29.7166  -41.1933   60.2764 H   0  0  0  0  0  0  0  0  0  0  0  0
   30.8363  -40.8949   59.1258 H   0  0  0  0  0  0  0  0  0  0  0  0
   34.0785  -43.1402   63.8513 H   0  0  0  0  0  0  0  0  0  0  0  0
   33.2709  -43.5866   62.5040 H   0  0  0  0  0  0  0  0  0  0  0  0
   31.9917  -39.3007   63.9182 H   0  0  0  0  0  0  0  0  0  0  0  0
   30.9301  -38.4349   63.0293 H   0  0  0  0  0  0  0  0  0  0  0  0
   31.5600  -45.4940   63.3089 H   0  0  0  0  0  0  0  0  0  0  0  0
   32.8856  -45.6285   64.2530 H   0  0  0  0  0  0  0  0  0  0  0  0
   31.2037  -43.3243   63.9512 H   0  0  0  0  0  0  0  0  0  0  0  0
   32.2449  -43.4523   65.2026 H   0  0  0  0  0  0  0  0  0  0  0  0
   33.7682  -38.6710   62.4968 H   0  0  0  0  0  0  0  0  0  0  0  0
   31.8456  -37.2630   61.0830 H   0  0  0  0  0  0  0  0  0  0  0  0
   31.8088  -38.5010   59.2275 H   0  0  0  0  0  0  0  0  0  0  0  0
   30.2487  -39.1013   60.9694 H   0  0  0  0  0  0  0  0  0  0  0  0
  1  8  1  0  0  0  0
  1 13  1  0  0  0  0
  2 14  1  0  0  0  0
  3 15  1  0  0  0  0
  4 16  1  0  0  0  0
  5  9  1  0  0  0  0
  5 13  2  0  0  0  0
  6 10  1  0  0  0  0
  6 13  1  0  0  0  0
  6 17  1  0  0  0  0
  7 11  1  0  0  0  0
  8 17  1  0  0  0  0
  9 12  1  0  0  0  0
 10 14  1  0  0  0  0
 11 12  1  0  0  0  0
 14 15  1  0  0  0  0
 15 16  1  0  0  0  0
 16 17  1  0  0  0  0
  2 18  1  0  0  0  0
  3 19  1  0  0  0  0
  4 20  1  0  0  0  0
  7 21  1  0  0  0  0
  7 22  1  0  0  0  0
  7 23  1  0  0  0  0
  8 24  1  0  0  0  0
  8 25  1  0  0  0  0
  9 26  1  0  0  0  0
  9 27  1  0  0  0  0
 10 28  1  0  0  0  0
 10 29  1  0  0  0  0
 11 30  1  0  0  0  0
 11 31  1  0  0  0  0
 12 32  1  0  0  0  0
 12 33  1  0  0  0  0
 14 34  1  0  0  0  0
 15 35  1  0  0  0  0
 16 36  1  0  0  0  0
 17 37  1  0  0  0  0
M  END
> <pdb_id>
3WF4

> <uniprot_id>
P16278

> <usmiles>
S1C(=NCCCC)N2[C@@H]([C@H](O)[C@H](O)[C@@H](O)C2)C1

$$$$
6DL_A_301
          07192420423D 1   1.00000     0.00000     0
            
 31 33  0  0  0  0            999 V2000
   69.5052   32.1792   26.3246 Br  0  0  0  0  0  0  0  0  0  0  0  0
   69.9177   36.9616   22.1834 F   0  0  0  0  0  0  0  0  0  0  0  0
   67.2160   38.0248   21.2427 O   0  0  0  0  0  0  0  0  0  0  0  0
   66.8978   32.0480   27.6616 O   0  0  0  0  0  0  0  0  0  0  0  0
   64.3285   34.5641   24.5699 O   0  0  0  0  0  0  0  0  0  0  0  0
   66.0527   36.0550   21.1668 N   0  0  0  0  0  0  0  0  0  0  0  0
   65.8932   34.9740   22.0376 N   0  0  0  0  0  0  0  0  0  0  0  0
   67.2570   36.4602   22.9237 N   0  0  0  0  0  0  0  0  0  0  0  0
   69.9209   38.4738   25.4575 C   0  0  0  0  0  0  0  0  0  0  0  0
   68.6116   38.2440   25.8754 C   0  0  0  0  0  0  0  0  0  0  0  0
   70.3721   38.0427   24.2156 C   0  0  0  0  0  0  0  0  0  0  0  0
   67.7268   37.5803   25.0381 C   0  0  0  0  0  0  0  0  0  0  0  0
   67.9133   33.8484   24.7060 C   0  0  0  0  0  0  0  0  0  0  0  0
   65.5395   33.3013   26.1487 C   0  0  0  0  0  0  0  0  0  0  0  0
   66.8819   36.9528   21.7230 C   0  0  0  0  0  0  0  0  0  0  0  0
   67.9221   33.0485   25.8243 C   0  0  0  0  0  0  0  0  0  0  0  0
   69.4812   37.3725   23.3876 C   0  0  0  0  0  0  0  0  0  0  0  0
   66.7702   32.7894   26.5424 C   0  0  0  0  0  0  0  0  0  0  0  0
   65.5152   34.0897   25.0067 C   0  0  0  0  0  0  0  0  0  0  0  0
   66.6357   35.2165   23.0797 C   0  0  0  0  0  0  0  0  0  0  0  0
   68.1612   37.1121   23.7971 C   0  0  0  0  0  0  0  0  0  0  0  0
   66.6838   34.3298   24.2539 C   0  0  0  0  0  0  0  0  0  0  0  0
   67.7938   31.6903   27.9250 H   0  0  0  0  0  0  0  0  0  0  0  0
   64.2894   35.1340   23.7490 H   0  0  0  0  0  0  0  0  0  0  0  0
   65.6179   36.1458   20.2708 H   0  0  0  0  0  0  0  0  0  0  0  0
   70.5497   38.9597   26.0645 H   0  0  0  0  0  0  0  0  0  0  0  0
   68.3106   38.5567   26.7763 H   0  0  0  0  0  0  0  0  0  0  0  0
   71.3143   38.2109   23.9258 H   0  0  0  0  0  0  0  0  0  0  0  0
   66.7790   37.4374   25.3234 H   0  0  0  0  0  0  0  0  0  0  0  0
   68.7625   34.0783   24.2307 H   0  0  0  0  0  0  0  0  0  0  0  0
   64.7060   33.1094   26.6668 H   0  0  0  0  0  0  0  0  0  0  0  0
  1 16  1  0  0  0  0
  2 17  1  0  0  0  0
  3 15  2  0  0  0  0
  4 18  1  0  0  0  0
  5 19  1  0  0  0  0
  6  7  1  0  0  0  0
  6 15  1  0  0  0  0
  7 20  2  0  0  0  0
  8 15  1  0  0  0  0
  8 20  1  0  0  0  0
  8 21  1  0  0  0  0
  9 10  2  0  0  0  0
  9 11  1  0  0  0  0
 10 12  1  0  0  0  0
 11 17  2  0  0  0  0
 12 21  2  0  0  0  0
 13 16  2  0  0  0  0
 13 22  1  0  0  0  0
 14 18  2  0  0  0  0
 14 19  1  0  0  0  0
 16 18  1  0  0  0  0
 17 21  1  0  0  0  0
 19 22  2  0  0  0  0
 20 22  1  0  0  0  0
  4 23  1  0  0  0  0
  5 24  1  0  0  0  0
  6 25  1  0  0  0  0
  9 26  1  0  0  0  0
 10 27  1  0  0  0  0
 11 28  1  0  0  0  0
 12 29  1  0  0  0  0
 13 30  1  0  0  0  0
 14 31  1  0  0  0  0
M  END
> <pdb_id>
5J2X

> <uniprot_id>
P07900

> <usmiles>
Brc1c(O)cc(O)c(c1)C2=NNC(=O)N2c3c(F)cccc3

$$$$
6DP_A_1201
          07202414163D 1   1.00000     0.00000     0
            
 23 24  0  0  0  0            999 V2000
   54.6510   -9.3182   30.7881 S   0  0  0  0  0  0  0  0  0  0  0  0
   54.7591   -7.9844   30.3216 O   0  0  0  0  0  0  0  0  0  0  0  0
   55.3157   -9.7092   31.9815 O   0  0  0  0  0  0  0  0  0  0  0  0
   53.0640   -9.5017   31.0502 N   0  0  0  0  0  0  0  0  0  0  0  0
   49.6439  -11.8354   31.7815 N   0  0  0  0  0  0  0  0  0  0  0  0
   49.0332  -11.7621   30.5761 N   0  0  0  0  0  0  0  0  0  0  0  0
   55.1420  -10.3334   29.5217 C   0  0  0  0  0  0  0  0  0  0  0  0
   50.8329  -11.2174   31.8628 C   0  0  0  0  0  0  0  0  0  0  0  0
   50.8078   -9.7514   27.9925 C   0  0  0  0  0  0  0  0  0  0  0  0
   51.9512   -9.4041   28.8094 C   0  0  0  0  0  0  0  0  0  0  0  0
   49.7806  -10.5379   28.4715 C   0  0  0  0  0  0  0  0  0  0  0  0
   52.0470   -9.8530   30.1117 C   0  0  0  0  0  0  0  0  0  0  0  0
   49.8895  -11.0072   29.8184 C   0  0  0  0  0  0  0  0  0  0  0  0
   51.0266  -10.6610   30.6261 C   0  0  0  0  0  0  0  0  0  0  0  0
   52.7568   -9.3497   31.9896 H   0  0  0  0  0  0  0  0  0  0  0  0
   48.1601  -12.1652   30.3021 H   0  0  0  0  0  0  0  0  0  0  0  0
   55.0787  -11.2872   29.8155 H   0  0  0  0  0  0  0  0  0  0  0  0
   54.5492  -10.1886   28.7295 H   0  0  0  0  0  0  0  0  0  0  0  0
   56.0875  -10.1231   29.2733 H   0  0  0  0  0  0  0  0  0  0  0  0
   51.4437  -11.1729   32.6534 H   0  0  0  0  0  0  0  0  0  0  0  0
   50.7611   -9.4112   27.0533 H   0  0  0  0  0  0  0  0  0  0  0  0
   52.6783   -8.8339   28.4272 H   0  0  0  0  0  0  0  0  0  0  0  0
   48.9928  -10.7702   27.9010 H   0  0  0  0  0  0  0  0  0  0  0  0
  1  2  2  0  0  0  0
  1  3  2  0  0  0  0
  1  4  1  0  0  0  0
  1  7  1  0  0  0  0
  4 12  1  0  0  0  0
  5  6  1  0  0  0  0
  5  8  2  0  0  0  0
  6 13  1  0  0  0  0
  8 14  1  0  0  0  0
  9 10  1  0  0  0  0
  9 11  2  0  0  0  0
 10 12  2  0  0  0  0
 11 13  1  0  0  0  0
 12 14  1  0  0  0  0
 13 14  2  0  0  0  0
  4 15  1  0  0  0  0
  6 16  1  0  0  0  0
  7 17  1  0  0  0  0
  7 18  1  0  0  0  0
  7 19  1  0  0  0  0
  8 20  1  0  0  0  0
  9 21  1  0  0  0  0
 10 22  1  0  0  0  0
 11 23  1  0  0  0  0
M  END
> <pdb_id>
5L3A

> <uniprot_id>
O60674

> <usmiles>
S(=O)(=O)(Nc1c2c(NN=C2)ccc1)C

$$$$
6DY_A_2401
          07202406043D 1   1.00000     0.00000     0
            
 54 58  0  0  0  0            999 V2000
    1.3240    3.3890   19.2950 O   0  0  0  0  0  0  0  0  0  0  0  0
    1.5640    8.8600   18.3380 N   0  0  0  0  0  0  0  0  0  0  0  0
    0.6320    6.0510   18.6060 N   0  0  0  0  0  0  0  0  0  0  0  0
   -2.4590    9.7180   16.0480 N   0  0  0  0  0  0  0  0  0  0  0  0
   -0.4680    9.2510   17.1870 N   0  0  0  0  0  0  0  0  0  0  0  0
   -2.0940    7.5130   16.8150 N   0  0  0  0  0  0  0  0  0  0  0  0
   -1.3960    5.3500   17.7940 N   0  0  0  0  0  0  0  0  0  0  0  0
    0.0020    7.0930   18.0240 N   0  0  0  0  0  0  0  0  0  0  0  0
   -0.7940   12.6860   14.6470 N   0  0  0  0  0  0  0  0  0  0  0  0
    1.4020    2.0660   19.7150 C   0  0  0  0  0  0  0  0  0  0  0  0
   -2.1570   11.0710   15.8450 C   0  0  0  0  0  0  0  0  0  0  0  0
   -1.2130   11.2540   14.6530 C   0  0  0  0  0  0  0  0  0  0  0  0
    0.3080   12.8360   15.6550 C   0  0  0  0  0  0  0  0  0  0  0  0
   -0.2180   12.8710   13.2620 C   0  0  0  0  0  0  0  0  0  0  0  0
    0.1000    1.5130   19.6750 C   0  0  0  0  0  0  0  0  0  0  0  0
    3.7830   18.2890   13.6900 C   0  0  0  0  0  0  0  0  0  0  0  0
    2.9170   18.0990   14.7720 C   0  0  0  0  0  0  0  0  0  0  0  0
    3.9020   17.2340   12.7900 C   0  0  0  0  0  0  0  0  0  0  0  0
   -0.7500    2.5970   19.1940 C   0  0  0  0  0  0  0  0  0  0  0  0
    0.9510   14.2120   15.5810 C   0  0  0  0  0  0  0  0  0  0  0  0
    0.3750   14.2570   13.1980 C   0  0  0  0  0  0  0  0  0  0  0  0
    2.2040   16.9070   14.9270 C   0  0  0  0  0  0  0  0  0  0  0  0
    3.1880   16.0580   12.9710 C   0  0  0  0  0  0  0  0  0  0  0  0
    0.3600    8.4130   17.8420 C   0  0  0  0  0  0  0  0  0  0  0  0
   -1.7030    8.7770   16.6750 C   0  0  0  0  0  0  0  0  0  0  0  0
   -1.2760    6.6520   17.4860 C   0  0  0  0  0  0  0  0  0  0  0  0
    0.0330    3.6970   18.9720 C   0  0  0  0  0  0  0  0  0  0  0  0
   -0.2370    5.0050   18.4870 C   0  0  0  0  0  0  0  0  0  0  0  0
    1.5300   14.4950   14.1770 C   0  0  0  0  0  0  0  0  0  0  0  0
    2.3130   15.8070   14.0410 C   0  0  0  0  0  0  0  0  0  0  0  0
    2.1704    8.2293   18.8223 H   0  0  0  0  0  0  0  0  0  0  0  0
    1.8322    9.8154   18.2139 H   0  0  0  0  0  0  0  0  0  0  0  0
   -3.3381    9.4059   15.6878 H   0  0  0  0  0  0  0  0  0  0  0  0
    2.2340    1.5880   19.9966 H   0  0  0  0  0  0  0  0  0  0  0  0
   -1.7188   11.4345   16.6671 H   0  0  0  0  0  0  0  0  0  0  0  0
   -3.0046   11.5719   15.6699 H   0  0  0  0  0  0  0  0  0  0  0  0
   -0.4132   10.6622   14.7538 H   0  0  0  0  0  0  0  0  0  0  0  0
   -1.6874   11.0310   13.8014 H   0  0  0  0  0  0  0  0  0  0  0  0
    1.0058   12.1418   15.4786 H   0  0  0  0  0  0  0  0  0  0  0  0
   -0.0700   12.7033   16.5712 H   0  0  0  0  0  0  0  0  0  0  0  0
   -0.9401   12.7767   12.5767 H   0  0  0  0  0  0  0  0  0  0  0  0
    0.4925   12.1877   13.0938 H   0  0  0  0  0  0  0  0  0  0  0  0
   -0.1765    0.5842   19.9219 H   0  0  0  0  0  0  0  0  0  0  0  0
    4.2918   19.1413   13.5690 H   0  0  0  0  0  0  0  0  0  0  0  0
    2.8061   18.8289   15.4465 H   0  0  0  0  0  0  0  0  0  0  0  0
    4.5107   17.3248   12.0018 H   0  0  0  0  0  0  0  0  0  0  0  0
   -1.7383    2.5448   19.0507 H   0  0  0  0  0  0  0  0  0  0  0  0
    1.6902   14.2612   16.2527 H   0  0  0  0  0  0  0  0  0  0  0  0
    0.2612   14.9043   15.7930 H   0  0  0  0  0  0  0  0  0  0  0  0
   -0.3485   14.9168   13.4009 H   0  0  0  0  0  0  0  0  0  0  0  0
    0.7147   14.4097   12.2699 H   0  0  0  0  0  0  0  0  0  0  0  0
    1.5826   16.8261   15.7063 H   0  0  0  0  0  0  0  0  0  0  0  0
    3.3050   15.3357   12.2893 H   0  0  0  0  0  0  0  0  0  0  0  0
    2.1901   13.7645   14.0023 H   0  0  0  0  0  0  0  0  0  0  0  0
  1 10  1  0  0  0  0
  1 27  1  0  0  0  0
  2 24  1  0  0  0  0
  3  8  1  0  0  0  0
  3 28  2  0  0  0  0
  4 11  1  0  0  0  0
  4 25  1  0  0  0  0
  5 24  2  0  0  0  0
  5 25  1  0  0  0  0
  6 25  2  0  0  0  0
  6 26  1  0  0  0  0
  7 26  2  0  0  0  0
  7 28  1  0  0  0  0
  8 24  1  0  0  0  0
  8 26  1  0  0  0  0
  9 12  1  0  0  0  0
  9 13  1  0  0  0  0
  9 14  1  0  0  0  0
 10 15  2  0  0  0  0
 11 12  1  0  0  0  0
 13 20  1  0  0  0  0
 14 21  1  0  0  0  0
 15 19  1  0  0  0  0
 16 17  2  0  0  0  0
 16 18  1  0  0  0  0
 17 22  1  0  0  0  0
 18 23  2  0  0  0  0
 19 27  2  0  0  0  0
 20 29  1  0  0  0  0
 21 29  1  0  0  0  0
 22 30  2  0  0  0  0
 23 30  1  0  0  0  0
 27 28  1  0  0  0  0
 29 30  1  0  0  0  0
  2 31  1  0  0  0  0
  2 32  1  0  0  0  0
  4 33  1  0  0  0  0
 10 34  1  0  0  0  0
 11 35  1  0  0  0  0
 11 36  1  0  0  0  0
 12 37  1  0  0  0  0
 12 38  1  0  0  0  0
 13 39  1  0  0  0  0
 13 40  1  0  0  0  0
 14 41  1  0  0  0  0
 14 42  1  0  0  0  0
 15 43  1  0  0  0  0
 16 44  1  0  0  0  0
 17 45  1  0  0  0  0
 18 46  1  0  0  0  0
 19 47  1  0  0  0  0
 20 48  1  0  0  0  0
 20 49  1  0  0  0  0
 21 50  1  0  0  0  0
 21 51  1  0  0  0  0
 22 52  1  0  0  0  0
 23 53  1  0  0  0  0
 29 54  1  0  0  0  0
M  END
> <pdb_id>
5IU7

> <uniprot_id>
P29274

> <usmiles>
O1C(C2=NN3C(N=C(N=C3N)NCCN4CCC(c5ccccc5)CC4)=N2)=CC=C1

$$$$
6DZ_A_2401
          07202406043D 1   1.00000     0.00000     0
            
 46 49  0  0  0  0            999 V2000
    1.3659    3.1729   19.3293 O   0  0  0  0  0  0  0  0  0  0  0  0
    1.6754    8.8851   18.3818 N   0  0  0  0  0  0  0  0  0  0  0  0
    0.6468    6.0865   18.6044 N   0  0  0  0  0  0  0  0  0  0  0  0
   -2.3397    9.8548   15.9770 N   0  0  0  0  0  0  0  0  0  0  0  0
   -0.3511    9.3274   17.1834 N   0  0  0  0  0  0  0  0  0  0  0  0
   -1.9277    7.6396   16.8080 N   0  0  0  0  0  0  0  0  0  0  0  0
   -1.2610    5.3988   17.7786 N   0  0  0  0  0  0  0  0  0  0  0  0
    0.0330    7.1493   17.9857 N   0  0  0  0  0  0  0  0  0  0  0  0
    0.6118   15.1667   14.6899 N   0  0  0  0  0  0  0  0  0  0  0  0
   -1.0244   12.9622   14.9448 N   0  0  0  0  0  0  0  0  0  0  0  0
    0.7801   16.4206   14.8733 C   0  0  0  0  0  0  0  0  0  0  0  0
    1.2778    1.8939   19.7590 C   0  0  0  0  0  0  0  0  0  0  0  0
   -2.0266   11.2377   16.0899 C   0  0  0  0  0  0  0  0  0  0  0  0
   -1.3540   11.7324   14.8262 C   0  0  0  0  0  0  0  0  0  0  0  0
   -0.4301   14.9714   13.8440 C   0  0  0  0  0  0  0  0  0  0  0  0
    0.4657   14.5489   15.8881 C   0  0  0  0  0  0  0  0  0  0  0  0
   -0.8121   13.5093   13.7272 C   0  0  0  0  0  0  0  0  0  0  0  0
    0.0548   13.0970   15.7513 C   0  0  0  0  0  0  0  0  0  0  0  0
   -0.0571    1.5260   19.6988 C   0  0  0  0  0  0  0  0  0  0  0  0
   -0.7744    2.6164   19.2230 C   0  0  0  0  0  0  0  0  0  0  0  0
    0.4351    8.4587   17.8403 C   0  0  0  0  0  0  0  0  0  0  0  0
   -1.5295    8.9189   16.6673 C   0  0  0  0  0  0  0  0  0  0  0  0
   -1.1195    6.7467   17.4827 C   0  0  0  0  0  0  0  0  0  0  0  0
   -0.1601    5.0185   18.4737 C   0  0  0  0  0  0  0  0  0  0  0  0
    0.1387    3.6357   19.0016 C   0  0  0  0  0  0  0  0  0  0  0  0
    2.2577    8.2352   18.8701 H   0  0  0  0  0  0  0  0  0  0  0  0
    1.9672    9.8357   18.2750 H   0  0  0  0  0  0  0  0  0  0  0  0
   -3.1143    9.5497   15.4229 H   0  0  0  0  0  0  0  0  0  0  0  0
    1.5482   16.5661   15.4969 H   0  0  0  0  0  0  0  0  0  0  0  0
    0.9735   16.8626   13.9973 H   0  0  0  0  0  0  0  0  0  0  0  0
   -0.0497   16.8139   15.2690 H   0  0  0  0  0  0  0  0  0  0  0  0
    2.0368    1.3188   20.0643 H   0  0  0  0  0  0  0  0  0  0  0  0
   -1.4105   11.3736   16.8658 H   0  0  0  0  0  0  0  0  0  0  0  0
   -2.8692   11.7552   16.2387 H   0  0  0  0  0  0  0  0  0  0  0  0
   -0.5334   11.1870   14.6553 H   0  0  0  0  0  0  0  0  0  0  0  0
   -1.9857   11.6339   14.0572 H   0  0  0  0  0  0  0  0  0  0  0  0
   -0.1765   15.3106   12.9381 H   0  0  0  0  0  0  0  0  0  0  0  0
   -1.2194   15.4836   14.1828 H   0  0  0  0  0  0  0  0  0  0  0  0
   -0.2350   15.0315   16.4136 H   0  0  0  0  0  0  0  0  0  0  0  0
    1.3368   14.5901   16.3776 H   0  0  0  0  0  0  0  0  0  0  0  0
   -1.6486   13.4328   13.1845 H   0  0  0  0  0  0  0  0  0  0  0  0
   -0.0726   13.0142   13.2712 H   0  0  0  0  0  0  0  0  0  0  0  0
    0.8170   12.5784   15.3640 H   0  0  0  0  0  0  0  0  0  0  0  0
   -0.1685   12.7355   16.6565 H   0  0  0  0  0  0  0  0  0  0  0  0
   -0.4357    0.6359   19.9522 H   0  0  0  0  0  0  0  0  0  0  0  0
   -1.7616    2.6581   19.0695 H   0  0  0  0  0  0  0  0  0  0  0  0
  1 12  1  0  0  0  0
  1 25  1  0  0  0  0
  2 21  1  0  0  0  0
  3  8  1  0  0  0  0
  3 24  2  0  0  0  0
  4 13  1  0  0  0  0
  4 22  1  0  0  0  0
  5 21  2  0  0  0  0
  5 22  1  0  0  0  0
  6 22  2  0  0  0  0
  6 23  1  0  0  0  0
  7 23  2  0  0  0  0
  7 24  1  0  0  0  0
  8 21  1  0  0  0  0
  8 23  1  0  0  0  0
  9 11  1  0  0  0  0
  9 15  1  0  0  0  0
  9 16  1  0  0  0  0
 10 14  1  0  0  0  0
 10 17  1  0  0  0  0
 10 18  1  0  0  0  0
 12 19  2  0  0  0  0
 13 14  1  0  0  0  0
 15 17  1  0  0  0  0
 16 18  1  0  0  0  0
 19 20  1  0  0  0  0
 20 25  2  0  0  0  0
 24 25  1  0  0  0  0
  2 26  1  0  0  0  0
  2 27  1  0  0  0  0
  4 28  1  0  0  0  0
 11 29  1  0  0  0  0
 11 30  1  0  0  0  0
 11 31  1  0  0  0  0
 12 32  1  0  0  0  0
 13 33  1  0  0  0  0
 13 34  1  0  0  0  0
 14 35  1  0  0  0  0
 14 36  1  0  0  0  0
 15 37  1  0  0  0  0
 15 38  1  0  0  0  0
 16 39  1  0  0  0  0
 16 40  1  0  0  0  0
 17 41  1  0  0  0  0
 17 42  1  0  0  0  0
 18 43  1  0  0  0  0
 18 44  1  0  0  0  0
 19 45  1  0  0  0  0
 20 46  1  0  0  0  0
M  END
> <pdb_id>
5IU8

> <uniprot_id>
P29274

> <usmiles>
O1C(C2=NN3C(N=C(N=C3N)NCCN4CCN(CC4)C)=N2)=CC=C1

$$$$
6EY_A_403
          07202406053D 1   1.00000     0.00000     0
            
 44 47  0  0  0  0            999 V2000
   36.2900   15.7770   31.7020 Cl  0  0  0  0  0  0  0  0  0  0  0  0
   43.4020   16.8990   28.4600 S   0  0  0  0  0  0  0  0  0  0  0  0
   37.5930   15.2260   28.8400 S   0  0  0  0  0  0  0  0  0  0  0  0
   38.9660   12.6140   28.4220 O   0  0  0  0  0  0  0  0  0  0  0  0
   41.7720   11.3250   22.5170 O   0  0  0  0  0  0  0  0  0  0  0  0
   38.6020   16.8620   26.4560 O   0  0  0  0  0  0  0  0  0  0  0  0
   40.5790   13.2740   27.0230 N   0  0  0  0  0  0  0  0  0  0  0  0
   43.3190   15.2920   29.1830 C   0  0  0  0  0  0  0  0  0  0  0  0
   42.4070   16.3870   27.0980 C   0  0  0  0  0  0  0  0  0  0  0  0
   39.8270   17.6540   32.0300 C   0  0  0  0  0  0  0  0  0  0  0  0
   40.4110   17.4350   30.7930 C   0  0  0  0  0  0  0  0  0  0  0  0
   44.2070   13.5850   24.0010 C   0  0  0  0  0  0  0  0  0  0  0  0
   38.5590   17.1430   32.2950 C   0  0  0  0  0  0  0  0  0  0  0  0
   39.7370   16.6980   29.8240 C   0  0  0  0  0  0  0  0  0  0  0  0
   42.5690   14.4950   28.4010 C   0  0  0  0  0  0  0  0  0  0  0  0
   43.6520   12.6360   23.1660 C   0  0  0  0  0  0  0  0  0  0  0  0
   43.4110   14.1410   24.9930 C   0  0  0  0  0  0  0  0  0  0  0  0
   41.5340   12.8090   24.3110 C   0  0  0  0  0  0  0  0  0  0  0  0
   40.1680   15.2550   25.5880 C   0  0  0  0  0  0  0  0  0  0  0  0
   37.8750   16.4070   31.3320 C   0  0  0  0  0  0  0  0  0  0  0  0
   38.4610   16.1720   30.0790 C   0  0  0  0  0  0  0  0  0  0  0  0
   39.4480   13.4980   27.7290 C   0  0  0  0  0  0  0  0  0  0  0  0
   38.8040   14.8130   27.6300 C   0  0  0  0  0  0  0  0  0  0  0  0
   42.3190   12.2530   23.3250 C   0  0  0  0  0  0  0  0  0  0  0  0
   39.1430   15.6420   26.6090 C   0  0  0  0  0  0  0  0  0  0  0  0
   42.0580   15.0980   27.2500 C   0  0  0  0  0  0  0  0  0  0  0  0
   42.0770   13.7570   25.1550 C   0  0  0  0  0  0  0  0  0  0  0  0
   41.2030   14.3410   26.2400 C   0  0  1  0  0  0  0  0  0  0  0  0
   40.8163   11.0570   22.6385 H   0  0  0  0  0  0  0  0  0  0  0  0
   37.9106   17.1869   27.1013 H   0  0  0  0  0  0  0  0  0  0  0  0
   40.9956   12.3650   27.0361 H   0  0  0  0  0  0  0  0  0  0  0  0
   43.7593   15.0174   30.0378 H   0  0  0  0  0  0  0  0  0  0  0  0
   42.1422   16.9680   26.3284 H   0  0  0  0  0  0  0  0  0  0  0  0
   40.3140   18.1768   32.7297 H   0  0  0  0  0  0  0  0  0  0  0  0
   41.3181   17.8070   30.5962 H   0  0  0  0  0  0  0  0  0  0  0  0
   45.1608   13.8655   23.8936 H   0  0  0  0  0  0  0  0  0  0  0  0
   38.1357   17.3065   33.1861 H   0  0  0  0  0  0  0  0  0  0  0  0
   40.1671   16.5412   28.9349 H   0  0  0  0  0  0  0  0  0  0  0  0
   42.3899   13.5377   28.6280 H   0  0  0  0  0  0  0  0  0  0  0  0
   44.2068   12.2214   22.4447 H   0  0  0  0  0  0  0  0  0  0  0  0
   43.8000   14.8303   25.6042 H   0  0  0  0  0  0  0  0  0  0  0  0
   40.5797   12.5286   24.4145 H   0  0  0  0  0  0  0  0  0  0  0  0
   40.6193   16.0762   25.2387 H   0  0  0  0  0  0  0  0  0  0  0  0
   39.7233   14.7725   24.8334 H   0  0  0  0  0  0  0  0  0  0  0  0
  1 20  1  0  0  0  0
  2  8  1  0  0  0  0
  2  9  1  0  0  0  0
  3 21  1  0  0  0  0
  3 23  1  0  0  0  0
  4 22  2  0  0  0  0
  5 24  1  0  0  0  0
  6 25  1  0  0  0  0
  7 22  1  0  0  0  0
  7 28  1  0  0  0  0
  8 15  2  0  0  0  0
  9 26  2  0  0  0  0
 10 11  2  0  0  0  0
 10 13  1  0  0  0  0
 11 14  1  0  0  0  0
 12 16  1  0  0  0  0
 12 17  2  0  0  0  0
 13 20  2  0  0  0  0
 14 21  2  0  0  0  0
 15 26  1  0  0  0  0
 16 24  2  0  0  0  0
 17 27  1  0  0  0  0
 18 24  1  0  0  0  0
 18 27  2  0  0  0  0
 19 25  1  0  0  0  0
 19 28  1  0  0  0  0
 20 21  1  0  0  0  0
 22 23  1  0  0  0  0
 23 25  2  0  0  0  0
 26 28  1  0  0  0  0
 27 28  1  0  0  0  0
  5 29  1  0  0  0  0
  6 30  1  0  0  0  0
  7 31  1  0  0  0  0
  8 32  1  0  0  0  0
  9 33  1  0  0  0  0
 10 34  1  0  0  0  0
 11 35  1  0  0  0  0
 12 36  1  0  0  0  0
 13 37  1  0  0  0  0
 14 38  1  0  0  0  0
 15 39  1  0  0  0  0
 16 40  1  0  0  0  0
 17 41  1  0  0  0  0
 18 42  1  0  0  0  0
 19 43  1  0  0  0  0
 19 44  1  0  0  0  0
M  END
> <pdb_id>
5IXS

> <uniprot_id>
P00338

> <usmiles>
Clc1c(SC=2C(=O)N[C@](c3cc(O)ccc3)(C4=CSC=C4)CC2O)cccc1

$$$$
6EZ_A_404
          07202406043D 1   1.00000     0.00000     0
            
 46 49  0  0  0  0            999 V2000
   63.0520   28.0200    7.7400 F   0  0  0  0  0  0  0  0  0  0  0  0
   67.0860   31.4530   -0.9340 O   0  0  0  0  0  0  0  0  0  0  0  0
   71.7060   31.9900   -1.9300 O   0  0  0  0  0  0  0  0  0  0  0  0
   65.9940   28.8530   -1.5550 N   0  0  0  0  0  0  0  0  0  0  0  0
   67.6900   29.9320    0.5910 N   0  0  0  0  0  0  0  0  0  0  0  0
   64.8380   27.9820    6.1740 C   0  0  0  0  0  0  0  0  0  0  0  0
   62.5690   28.4120    5.4790 C   0  0  0  0  0  0  0  0  0  0  0  0
   72.3050   31.7500    0.3480 C   0  0  0  0  0  0  0  0  0  0  0  0
   71.9030   33.2120    0.0470 C   0  0  0  0  0  0  0  0  0  0  0  0
   64.4320   28.1100    0.0690 C   0  0  0  0  0  0  0  0  0  0  0  0
   65.2800   28.0960    4.8620 C   0  0  0  0  0  0  0  0  0  0  0  0
   62.9980   28.5350    4.1690 C   0  0  0  0  0  0  0  0  0  0  0  0
   64.0310   27.9850    1.3830 C   0  0  0  0  0  0  0  0  0  0  0  0
   70.3710   30.4190   -0.7590 C   0  0  0  0  0  0  0  0  0  0  0  0
   69.6140   32.8360   -0.9520 C   0  0  0  0  0  0  0  0  0  0  0  0
   66.0240   29.1550    2.1030 C   0  0  0  0  0  0  0  0  0  0  0  0
   63.4880   28.1390    6.4780 C   0  0  0  0  0  0  0  0  0  0  0  0
   67.9700   30.9670   -0.2450 C   0  0  0  0  0  0  0  0  0  0  0  0
   71.8100   30.9750   -0.9000 C   0  0  1  0  0  0  0  0  0  0  0  0
   71.1050   33.1300   -1.2680 C   0  0  2  0  0  0  0  0  0  0  0  0
   65.6400   28.7480   -0.2310 C   0  0  0  0  0  0  0  0  0  0  0  0
   66.4480   29.2870    0.7840 C   0  0  0  0  0  0  0  0  0  0  0  0
   69.3990   31.4910   -0.2180 C   0  0  1  0  0  0  0  0  0  0  0  0
   64.3600   28.3760    3.8330 C   0  0  0  0  0  0  0  0  0  0  0  0
   64.8150   28.5090    2.4220 C   0  0  0  0  0  0  0  0  0  0  0  0
   66.8503   29.3025   -1.8095 H   0  0  0  0  0  0  0  0  0  0  0  0
   65.3953   28.4799   -2.2638 H   0  0  0  0  0  0  0  0  0  0  0  0
   68.4548   29.5858    1.1344 H   0  0  0  0  0  0  0  0  0  0  0  0
   65.4927   27.7862    6.9041 H   0  0  0  0  0  0  0  0  0  0  0  0
   61.6004   28.5197    5.7029 H   0  0  0  0  0  0  0  0  0  0  0  0
   71.8541   31.4186    1.1768 H   0  0  0  0  0  0  0  0  0  0  0  0
   73.2961   31.6657    0.4513 H   0  0  0  0  0  0  0  0  0  0  0  0
   72.7144   33.7853   -0.0671 H   0  0  0  0  0  0  0  0  0  0  0  0
   71.3350   33.5810    0.7827 H   0  0  0  0  0  0  0  0  0  0  0  0
   63.8609   27.7457   -0.6666 H   0  0  0  0  0  0  0  0  0  0  0  0
   66.2500   27.9794    4.6485 H   0  0  0  0  0  0  0  0  0  0  0  0
   62.3337   28.7394    3.4500 H   0  0  0  0  0  0  0  0  0  0  0  0
   63.1737   27.5167    1.5970 H   0  0  0  0  0  0  0  0  0  0  0  0
   70.3829   29.6434   -0.1279 H   0  0  0  0  0  0  0  0  0  0  0  0
   70.0514   30.1139   -1.6561 H   0  0  0  0  0  0  0  0  0  0  0  0
   69.1055   32.8130   -1.8127 H   0  0  0  0  0  0  0  0  0  0  0  0
   69.2603   33.5726   -0.3755 H   0  0  0  0  0  0  0  0  0  0  0  0
   66.5898   29.5267    2.8390 H   0  0  0  0  0  0  0  0  0  0  0  0
   72.4541   30.2560   -1.1612 H   0  0  0  0  0  0  0  0  0  0  0  0
   71.2067   33.9639   -1.8105 H   0  0  0  0  0  0  0  0  0  0  0  0
   69.6361   31.6416    0.7417 H   0  0  0  0  0  0  0  0  0  0  0  0
  1 17  1  0  0  0  0
  2 18  2  0  0  0  0
  3 19  1  0  0  0  0
  3 20  1  0  0  0  0
  4 21  1  0  0  0  0
  5 18  1  0  0  0  0
  5 22  1  0  0  0  0
  6 11  1  0  0  0  0
  6 17  2  0  0  0  0
  7 12  2  0  0  0  0
  7 17  1  0  0  0  0
  8  9  1  0  0  0  0
  8 19  1  0  0  0  0
  9 20  1  0  0  0  0
 10 13  1  0  0  0  0
 10 21  2  0  0  0  0
 11 24  2  0  0  0  0
 12 24  1  0  0  0  0
 13 25  2  0  0  0  0
 14 19  1  0  0  0  0
 14 23  1  0  0  0  0
 15 20  1  0  0  0  0
 15 23  1  0  0  0  0
 16 22  2  0  0  0  0
 16 25  1  0  0  0  0
 18 23  1  0  0  0  0
 21 22  1  0  0  0  0
 24 25  1  0  0  0  0
  4 26  1  0  0  0  0
  4 27  1  0  0  0  0
  5 28  1  0  0  0  0
  6 29  1  0  0  0  0
  7 30  1  0  0  0  0
  8 31  1  0  0  0  0
  8 32  1  0  0  0  0
  9 33  1  0  0  0  0
  9 34  1  0  0  0  0
 10 35  1  0  0  0  0
 11 36  1  0  0  0  0
 12 37  1  0  0  0  0
 13 38  1  0  0  0  0
 14 39  1  0  0  0  0
 14 40  1  0  0  0  0
 15 41  1  0  0  0  0
 15 42  1  0  0  0  0
 16 43  1  0  0  0  0
 19 44  1  0  0  0  0
 20 45  1  0  0  0  0
 23 46  1  0  0  0  0
M  END
> <pdb_id>
5IX0

> <uniprot_id>
Q92769

> <usmiles>
Fc1ccc(c2cc(NC(=O)[C@@H]3C[C@@H]4O[C@H](C3)CC4)c(N)cc2)cc1

$$$$
6F0_A_405
          07202415313D 1   1.00000     0.00000     0
            
 17 17  0  0  0  0            999 V2000
    0.7730  -28.3874   34.6836 F   0  0  0  0  0  0  0  0  0  0  0  0
    3.3704  -28.0946   35.2328 O   0  0  0  0  0  0  0  0  0  0  0  0
    3.9148  -26.0163   35.0236 O   0  0  0  0  0  0  0  0  0  0  0  0
    2.5868  -24.5414   36.7755 N   0  0  0  0  0  0  0  0  0  0  0  0
   -0.8640  -25.6842   36.4786 C   0  0  0  0  0  0  0  0  0  0  0  0
   -0.6670  -26.8701   35.7639 C   0  0  0  0  0  0  0  0  0  0  0  0
    0.2468  -24.8998   36.8084 C   0  0  0  0  0  0  0  0  0  0  0  0
    3.0551  -26.8798   35.3295 C   0  0  0  0  0  0  0  0  0  0  0  0
    0.6264  -27.2509   35.3835 C   0  0  0  0  0  0  0  0  0  0  0  0
    1.5312  -25.2953   36.4455 C   0  0  0  0  0  0  0  0  0  0  0  0
    1.7518  -26.4770   35.7296 C   0  0  0  0  0  0  0  0  0  0  0  0
    2.7064  -28.8039   35.4695 H   0  0  0  0  0  0  0  0  0  0  0  0
    3.5080  -24.8287   36.5131 H   0  0  0  0  0  0  0  0  0  0  0  0
    2.4543  -23.6909   37.2844 H   0  0  0  0  0  0  0  0  0  0  0  0
   -1.7840  -25.4014   36.7497 H   0  0  0  0  0  0  0  0  0  0  0  0
   -1.4488  -27.4458   35.5246 H   0  0  0  0  0  0  0  0  0  0  0  0
    0.1165  -24.0450   37.3107 H   0  0  0  0  0  0  0  0  0  0  0  0
  1  9  1  0  0  0  0
  2  8  1  0  0  0  0
  3  8  2  0  0  0  0
  4 10  1  0  0  0  0
  5  6  2  0  0  0  0
  5  7  1  0  0  0  0
  6  9  1  0  0  0  0
  7 10  2  0  0  0  0
  8 11  1  0  0  0  0
  9 11  2  0  0  0  0
 10 11  1  0  0  0  0
  2 12  1  0  0  0  0
  4 13  1  0  0  0  0
  4 14  1  0  0  0  0
  5 15  1  0  0  0  0
  6 16  1  0  0  0  0
  7 17  1  0  0  0  0
M  END
> <pdb_id>
4OWO

> <uniprot_id>
P66992

> <usmiles>
Fc1c(c(N)ccc1)C(=O)O

$$$$
6FB_C_505
          07202411083D 1   1.00000     0.00000     0
            
 23 25  0  0  0  0            999 V2000
   18.0175   46.2933    7.5502 N   0  0  0  0  0  0  0  0  0  0  0  0
   21.7567   41.2736   13.4220 N   0  0  0  0  0  0  0  0  0  0  0  0
   19.2625   44.3871    7.3159 N   0  0  0  0  0  0  0  0  0  0  0  0
   18.8730   45.3753    9.4548 N   0  0  0  0  0  0  0  0  0  0  0  0
   21.0913   42.2133   14.1084 C   0  0  0  0  0  0  0  0  0  0  0  0
   21.6655   41.3102   12.0890 C   0  0  0  0  0  0  0  0  0  0  0  0
   19.9297   43.4232    7.9098 C   0  0  0  0  0  0  0  0  0  0  0  0
   20.3991   43.2305   13.5279 C   0  0  0  0  0  0  0  0  0  0  0  0
   19.6611   44.3324   11.4466 C   0  0  0  0  0  0  0  0  0  0  0  0
   20.7875   42.2930    9.9797 C   0  0  0  0  0  0  0  0  0  0  0  0
   18.7535   45.3321    8.1230 C   0  0  0  0  0  0  0  0  0  0  0  0
   19.5566   44.3532   10.0564 C   0  0  0  0  0  0  0  0  0  0  0  0
   20.1222   43.3047    9.3056 C   0  0  0  0  0  0  0  0  0  0  0  0
   20.9404   42.2939   11.3638 C   0  0  0  0  0  0  0  0  0  0  0  0
   20.3344   43.3075   12.1129 C   0  0  0  0  0  0  0  0  0  0  0  0
   17.6179   47.0183    8.1111 H   0  0  0  0  0  0  0  0  0  0  0  0
   17.8675   46.2860    6.5615 H   0  0  0  0  0  0  0  0  0  0  0  0
   21.1046   42.1637   15.1071 H   0  0  0  0  0  0  0  0  0  0  0  0
   22.1382   40.5993   11.5683 H   0  0  0  0  0  0  0  0  0  0  0  0
   20.3335   42.7170    7.3282 H   0  0  0  0  0  0  0  0  0  0  0  0
   19.9406   43.9167   14.0927 H   0  0  0  0  0  0  0  0  0  0  0  0
   19.2439   45.0691   11.9787 H   0  0  0  0  0  0  0  0  0  0  0  0
   21.1718   41.5348    9.4530 H   0  0  0  0  0  0  0  0  0  0  0  0
  1 11  1  0  0  0  0
  2  5  1  0  0  0  0
  2  6  2  0  0  0  0
  3  7  1  0  0  0  0
  3 11  2  0  0  0  0
  4 11  1  0  0  0  0
  4 12  2  0  0  0  0
  5  8  2  0  0  0  0
  6 14  1  0  0  0  0
  7 13  2  0  0  0  0
  8 15  1  0  0  0  0
  9 12  1  0  0  0  0
  9 15  2  0  0  0  0
 10 13  1  0  0  0  0
 10 14  2  0  0  0  0
 12 13  1  0  0  0  0
 14 15  1  0  0  0  0
  1 16  1  0  0  0  0
  1 17  1  0  0  0  0
  5 18  1  0  0  0  0
  6 19  1  0  0  0  0
  7 20  1  0  0  0  0
  8 21  1  0  0  0  0
  9 22  1  0  0  0  0
 10 23  1  0  0  0  0
M  END
> <pdb_id>
5J1W

> <uniprot_id>
P49759

> <usmiles>
n1c(ncc2c1cc3c(cncc3)c2)N

$$$$
6FF_A_301
          07192420423D 1   1.00000     0.00000     0
            
 48 50  0  0  0  0            999 V2000
   69.5972   33.0153   26.4534 S   0  0  0  0  0  0  0  0  0  0  0  0
   69.9434   36.5885   22.3503 F   0  0  0  0  0  0  0  0  0  0  0  0
   70.5116   33.9389   25.8436 O   0  0  0  0  0  0  0  0  0  0  0  0
   69.4520   32.9534   27.8720 O   0  0  0  0  0  0  0  0  0  0  0  0
   67.4221   38.0034   21.0813 O   0  0  0  0  0  0  0  0  0  0  0  0
   66.8371   32.2149   27.6116 O   0  0  0  0  0  0  0  0  0  0  0  0
   64.2665   34.2072   24.1173 O   0  0  0  0  0  0  0  0  0  0  0  0
   66.1413   36.0867   20.9405 N   0  0  0  0  0  0  0  0  0  0  0  0
   65.8820   35.0244   21.8163 N   0  0  0  0  0  0  0  0  0  0  0  0
   69.8478   31.5136   25.7885 N   0  0  0  0  0  0  0  0  0  0  0  0
   67.2689   36.4576   22.7715 N   0  0  0  0  0  0  0  0  0  0  0  0
   69.0826   30.3604   26.2981 C   0  0  0  0  0  0  0  0  0  0  0  0
   72.4723   30.1536   23.3460 C   0  0  0  0  0  0  0  0  0  0  0  0
   70.6817   31.3701   24.5786 C   0  0  0  0  0  0  0  0  0  0  0  0
   71.8251   30.3463   24.7181 C   0  0  0  0  0  0  0  0  0  0  0  0
   69.7999   38.3388   25.5626 C   0  0  0  0  0  0  0  0  0  0  0  0
   68.4313   38.2773   25.8108 C   0  0  0  0  0  0  0  0  0  0  0  0
   70.3334   37.7778   24.4024 C   0  0  0  0  0  0  0  0  0  0  0  0
   67.5762   37.6653   24.8912 C   0  0  0  0  0  0  0  0  0  0  0  0
   67.8851   34.0598   24.6375 C   0  0  0  0  0  0  0  0  0  0  0  0
   65.5204   33.2165   25.9000 C   0  0  0  0  0  0  0  0  0  0  0  0
   66.9873   36.9534   21.5446 C   0  0  0  0  0  0  0  0  0  0  0  0
   67.9672   33.4017   25.8547 C   0  0  0  0  0  0  0  0  0  0  0  0
   69.4742   37.1560   23.4782 C   0  0  0  0  0  0  0  0  0  0  0  0
   66.5910   35.2488   22.9004 C   0  0  0  0  0  0  0  0  0  0  0  0
   66.7843   32.9078   26.4490 C   0  0  0  0  0  0  0  0  0  0  0  0
   65.4593   33.9286   24.7038 C   0  0  0  0  0  0  0  0  0  0  0  0
   68.1034   37.0787   23.7277 C   0  0  0  0  0  0  0  0  0  0  0  0
   66.6413   34.4024   24.1057 C   0  0  0  0  0  0  0  0  0  0  0  0
   67.7220   31.9860   28.0174 H   0  0  0  0  0  0  0  0  0  0  0  0
   64.2390   34.7192   23.2588 H   0  0  0  0  0  0  0  0  0  0  0  0
   65.7634   36.1879   20.0202 H   0  0  0  0  0  0  0  0  0  0  0  0
   69.3480   29.5366   25.7972 H   0  0  0  0  0  0  0  0  0  0  0  0
   69.2762   30.2356   27.2713 H   0  0  0  0  0  0  0  0  0  0  0  0
   68.1047   30.5270   26.1715 H   0  0  0  0  0  0  0  0  0  0  0  0
   73.2176   29.4910   23.4191 H   0  0  0  0  0  0  0  0  0  0  0  0
   71.7883   29.8159   22.6993 H   0  0  0  0  0  0  0  0  0  0  0  0
   72.8340   31.0279   23.0223 H   0  0  0  0  0  0  0  0  0  0  0  0
   71.0826   32.2613   24.3664 H   0  0  0  0  0  0  0  0  0  0  0  0
   70.0925   31.0815   23.8239 H   0  0  0  0  0  0  0  0  0  0  0  0
   72.5054   30.6865   25.3674 H   0  0  0  0  0  0  0  0  0  0  0  0
   71.4597   29.4745   25.0444 H   0  0  0  0  0  0  0  0  0  0  0  0
   70.4044   38.7880   26.2205 H   0  0  0  0  0  0  0  0  0  0  0  0
   68.0590   38.6727   26.6504 H   0  0  0  0  0  0  0  0  0  0  0  0
   71.3175   37.8172   24.2291 H   0  0  0  0  0  0  0  0  0  0  0  0
   66.5909   37.6446   25.0603 H   0  0  0  0  0  0  0  0  0  0  0  0
   68.7206   34.2900   24.1386 H   0  0  0  0  0  0  0  0  0  0  0  0
   64.6819   32.9286   26.3627 H   0  0  0  0  0  0  0  0  0  0  0  0
  1  3  2  0  0  0  0
  1  4  2  0  0  0  0
  1 10  1  0  0  0  0
  1 23  1  0  0  0  0
  2 24  1  0  0  0  0
  5 22  2  0  0  0  0
  6 26  1  0  0  0  0
  7 27  1  0  0  0  0
  8  9  1  0  0  0  0
  8 22  1  0  0  0  0
  9 25  2  0  0  0  0
 10 12  1  0  0  0  0
 10 14  1  0  0  0  0
 11 22  1  0  0  0  0
 11 25  1  0  0  0  0
 11 28  1  0  0  0  0
 13 15  1  0  0  0  0
 14 15  1  0  0  0  0
 16 17  2  0  0  0  0
 16 18  1  0  0  0  0
 17 19  1  0  0  0  0
 18 24  2  0  0  0  0
 19 28  2  0  0  0  0
 20 23  2  0  0  0  0
 20 29  1  0  0  0  0
 21 26  2  0  0  0  0
 21 27  1  0  0  0  0
 23 26  1  0  0  0  0
 24 28  1  0  0  0  0
 25 29  1  0  0  0  0
 27 29  2  0  0  0  0
  6 30  1  0  0  0  0
  7 31  1  0  0  0  0
  8 32  1  0  0  0  0
 12 33  1  0  0  0  0
 12 34  1  0  0  0  0
 12 35  1  0  0  0  0
 13 36  1  0  0  0  0
 13 37  1  0  0  0  0
 13 38  1  0  0  0  0
 14 39  1  0  0  0  0
 14 40  1  0  0  0  0
 15 41  1  0  0  0  0
 15 42  1  0  0  0  0
 16 43  1  0  0  0  0
 17 44  1  0  0  0  0
 18 45  1  0  0  0  0
 19 46  1  0  0  0  0
 20 47  1  0  0  0  0
 21 48  1  0  0  0  0
M  END
> <pdb_id>
5J27

> <uniprot_id>
P07900

> <usmiles>
S(=O)(=O)(N(CCC)C)c1c(O)cc(O)c(c1)C2=NNC(=O)N2c3c(F)cccc3

$$$$
6FG_A_301
          07192423263D 1   1.00000     0.00000     0
            
 29 30  0  0  0  0            999 V2000
   28.1627  -14.0660   -8.0260 O   0  0  0  0  0  0  0  0  0  0  0  0
   28.1244  -10.2197   -3.5670 O   0  0  0  0  0  0  0  0  0  0  0  0
   29.4233  -15.5835   -6.8179 N   0  0  0  0  0  0  0  0  0  0  0  0
   27.5945   -9.2669   -4.4322 C   0  0  0  0  0  0  0  0  0  0  0  0
   28.3482  -11.4208   -4.1960 C   0  0  0  0  0  0  0  0  0  0  0  0
   29.9061  -16.4148   -7.9332 C   0  0  0  0  0  0  0  0  0  0  0  0
   29.7467  -16.0557   -5.5233 C   0  0  0  0  0  0  0  0  0  0  0  0
   30.7929  -17.4983   -7.3355 C   0  0  0  0  0  0  0  0  0  0  0  0
   30.6420  -17.2477   -5.8656 C   0  0  0  0  0  0  0  0  0  0  0  0
   27.4749   -9.8800   -5.6627 C   0  0  0  0  0  0  0  0  0  0  0  0
   28.6141  -13.3565   -5.8749 C   0  0  0  0  0  0  0  0  0  0  0  0
   27.9420  -12.1650   -6.5246 C   0  0  0  0  0  0  0  0  0  0  0  0
   28.7135  -14.3832   -6.9585 C   0  0  0  0  0  0  0  0  0  0  0  0
   27.9149  -11.1601   -5.4919 C   0  0  0  0  0  0  0  0  0  0  0  0
   27.3490   -8.3241   -4.2066 H   0  0  0  0  0  0  0  0  0  0  0  0
   28.7261  -12.2662   -3.8186 H   0  0  0  0  0  0  0  0  0  0  0  0
   30.4324  -15.8562   -8.5742 H   0  0  0  0  0  0  0  0  0  0  0  0
   29.1320  -16.8304   -8.4108 H   0  0  0  0  0  0  0  0  0  0  0  0
   28.9302  -16.3414   -5.0216 H   0  0  0  0  0  0  0  0  0  0  0  0
   30.2396  -15.3660   -4.9929 H   0  0  0  0  0  0  0  0  0  0  0  0
   31.7436  -17.3914   -7.6267 H   0  0  0  0  0  0  0  0  0  0  0  0
   30.4689  -18.4112   -7.5837 H   0  0  0  0  0  0  0  0  0  0  0  0
   30.2490  -18.0661   -5.4464 H   0  0  0  0  0  0  0  0  0  0  0  0
   31.5496  -17.0792   -5.4811 H   0  0  0  0  0  0  0  0  0  0  0  0
   27.1345   -9.4691   -6.5085 H   0  0  0  0  0  0  0  0  0  0  0  0
   28.0624  -13.6999   -5.1148 H   0  0  0  0  0  0  0  0  0  0  0  0
   29.5235  -13.1083   -5.5412 H   0  0  0  0  0  0  0  0  0  0  0  0
   27.0141  -12.3978   -6.8160 H   0  0  0  0  0  0  0  0  0  0  0  0
   28.4692  -11.8480   -7.3129 H   0  0  0  0  0  0  0  0  0  0  0  0
  1 13  2  0  0  0  0
  2  4  1  0  0  0  0
  2  5  1  0  0  0  0
  3  6  1  0  0  0  0
  3  7  1  0  0  0  0
  3 13  1  0  0  0  0
  4 10  2  0  0  0  0
  5 14  2  0  0  0  0
  6  8  1  0  0  0  0
  7  9  1  0  0  0  0
  8  9  1  0  0  0  0
 10 14  1  0  0  0  0
 11 12  1  0  0  0  0
 11 13  1  0  0  0  0
 12 14  1  0  0  0  0
  4 15  1  0  0  0  0
  5 16  1  0  0  0  0
  6 17  1  0  0  0  0
  6 18  1  0  0  0  0
  7 19  1  0  0  0  0
  7 20  1  0  0  0  0
  8 21  1  0  0  0  0
  8 22  1  0  0  0  0
  9 23  1  0  0  0  0
  9 24  1  0  0  0  0
 10 25  1  0  0  0  0
 11 26  1  0  0  0  0
 11 27  1  0  0  0  0
 12 28  1  0  0  0  0
 12 29  1  0  0  0  0
M  END
> <pdb_id>
5J1R

> <uniprot_id>
nan

> <usmiles>
O=C(N1CCCC1)CCC2=COC=C2

$$$$
6FJ_A_301
          07192420423D 1   1.00000     0.00000     0
            
 48 51  0  0  0  0            999 V2000
   70.0956   36.1879   22.9332 F   0  0  0  0  0  0  0  0  0  0  0  0
   67.4208   38.0492   21.1077 O   0  0  0  0  0  0  0  0  0  0  0  0
   70.1965   33.6153   26.6028 O   0  0  0  0  0  0  0  0  0  0  0  0
   67.0542   32.1301   27.5270 O   0  0  0  0  0  0  0  0  0  0  0  0
   64.3305   34.3463   24.2144 O   0  0  0  0  0  0  0  0  0  0  0  0
   72.1666   31.9678   23.5749 O   0  0  0  0  0  0  0  0  0  0  0  0
   66.1800   36.1082   20.8736 N   0  0  0  0  0  0  0  0  0  0  0  0
   65.9366   35.0224   21.7321 N   0  0  0  0  0  0  0  0  0  0  0  0
   69.9466   31.5953   25.6433 N   0  0  0  0  0  0  0  0  0  0  0  0
   67.3139   36.4469   22.7221 N   0  0  0  0  0  0  0  0  0  0  0  0
   69.1096   30.5572   25.0438 C   0  0  0  0  0  0  0  0  0  0  0  0
   72.8169   31.4417   22.5280 C   0  0  0  0  0  0  0  0  0  0  0  0
   71.3567   31.2254   25.8764 C   0  0  0  0  0  0  0  0  0  0  0  0
   73.0851   30.1423   22.8030 C   0  0  0  0  0  0  0  0  0  0  0  0
   69.5126   38.3555   25.8184 C   0  0  0  0  0  0  0  0  0  0  0  0
   68.1375   38.4984   25.7276 C   0  0  0  0  0  0  0  0  0  0  0  0
   70.1795   37.5658   24.8775 C   0  0  0  0  0  0  0  0  0  0  0  0
   72.5904   29.8706   24.1043 C   0  0  0  0  0  0  0  0  0  0  0  0
   67.4083   37.8809   24.7081 C   0  0  0  0  0  0  0  0  0  0  0  0
   65.6367   33.2420   25.9191 C   0  0  0  0  0  0  0  0  0  0  0  0
   67.9677   33.9730   24.5128 C   0  0  0  0  0  0  0  0  0  0  0  0
   67.0160   36.9617   21.5153 C   0  0  0  0  0  0  0  0  0  0  0  0
   69.4616   32.8065   26.0578 C   0  0  0  0  0  0  0  0  0  0  0  0
   69.4566   36.9379   23.8536 C   0  0  0  0  0  0  0  0  0  0  0  0
   66.9103   32.8429   26.3926 C   0  0  0  0  0  0  0  0  0  0  0  0
   65.5460   33.9592   24.7088 C   0  0  0  0  0  0  0  0  0  0  0  0
   72.0317   31.0255   24.5366 C   0  0  0  0  0  0  0  0  0  0  0  0
   66.6341   35.2411   22.8343 C   0  0  0  0  0  0  0  0  0  0  0  0
   68.0637   37.0845   23.7510 C   0  0  0  0  0  0  0  0  0  0  0  0
   68.0812   33.2474   25.7097 C   0  0  0  0  0  0  0  0  0  0  0  0
   66.7108   34.3823   24.0431 C   0  0  0  0  0  0  0  0  0  0  0  0
   67.9665   31.8622   27.8369 H   0  0  0  0  0  0  0  0  0  0  0  0
   64.2792   34.8546   23.3548 H   0  0  0  0  0  0  0  0  0  0  0  0
   65.8042   36.2296   19.9548 H   0  0  0  0  0  0  0  0  0  0  0  0
   68.1792   30.9049   24.9279 H   0  0  0  0  0  0  0  0  0  0  0  0
   69.4833   30.3014   24.1522 H   0  0  0  0  0  0  0  0  0  0  0  0
   69.0939   29.7554   25.6411 H   0  0  0  0  0  0  0  0  0  0  0  0
   73.0622   31.9252   21.6877 H   0  0  0  0  0  0  0  0  0  0  0  0
   71.3996   30.3776   26.4050 H   0  0  0  0  0  0  0  0  0  0  0  0
   71.8177   31.9559   26.3801 H   0  0  0  0  0  0  0  0  0  0  0  0
   73.5474   29.4933   22.1988 H   0  0  0  0  0  0  0  0  0  0  0  0
   70.0218   38.8117   26.5482 H   0  0  0  0  0  0  0  0  0  0  0  0
   67.6570   39.0549   26.4056 H   0  0  0  0  0  0  0  0  0  0  0  0
   71.1710   37.4489   24.9346 H   0  0  0  0  0  0  0  0  0  0  0  0
   72.6435   29.0040   24.6005 H   0  0  0  0  0  0  0  0  0  0  0  0
   66.4173   38.0054   24.6585 H   0  0  0  0  0  0  0  0  0  0  0  0
   64.8113   33.0177   26.4373 H   0  0  0  0  0  0  0  0  0  0  0  0
   68.7899   34.1998   23.9908 H   0  0  0  0  0  0  0  0  0  0  0  0
  1 24  1  0  0  0  0
  2 22  2  0  0  0  0
  3 23  2  0  0  0  0
  4 25  1  0  0  0  0
  5 26  1  0  0  0  0
  6 12  1  0  0  0  0
  6 27  1  0  0  0  0
  7  8  1  0  0  0  0
  7 22  1  0  0  0  0
  8 28  2  0  0  0  0
  9 11  1  0  0  0  0
  9 13  1  0  0  0  0
  9 23  1  0  0  0  0
 10 22  1  0  0  0  0
 10 28  1  0  0  0  0
 10 29  1  0  0  0  0
 12 14  2  0  0  0  0
 13 27  1  0  0  0  0
 14 18  1  0  0  0  0
 15 16  2  0  0  0  0
 15 17  1  0  0  0  0
 16 19  1  0  0  0  0
 17 24  2  0  0  0  0
 18 27  2  0  0  0  0
 19 29  2  0  0  0  0
 20 25  2  0  0  0  0
 20 26  1  0  0  0  0
 21 30  2  0  0  0  0
 21 31  1  0  0  0  0
 23 30  1  0  0  0  0
 24 29  1  0  0  0  0
 25 30  1  0  0  0  0
 26 31  2  0  0  0  0
 28 31  1  0  0  0  0
  4 32  1  0  0  0  0
  5 33  1  0  0  0  0
  7 34  1  0  0  0  0
 11 35  1  0  0  0  0
 11 36  1  0  0  0  0
 11 37  1  0  0  0  0
 12 38  1  0  0  0  0
 13 39  1  0  0  0  0
 13 40  1  0  0  0  0
 14 41  1  0  0  0  0
 15 42  1  0  0  0  0
 16 43  1  0  0  0  0
 17 44  1  0  0  0  0
 18 45  1  0  0  0  0
 19 46  1  0  0  0  0
 20 47  1  0  0  0  0
 21 48  1  0  0  0  0
M  END
> <pdb_id>
5J20

> <uniprot_id>
P07900

> <usmiles>
Fc1c(N2C(=O)NN=C2c3c(O)cc(O)c(c3)C(=O)N(CC=4OC=CC4)C)cccc1

$$$$
6FR_A_301
          07192423263D 1   1.00000     0.00000     0
            
 36 37  0  0  0  0            999 V2000
   28.1336  -14.2827   -6.5655 S   0  0  0  0  0  0  0  0  0  0  0  0
   26.8379  -14.6297   -5.9527 O   0  0  0  0  0  0  0  0  0  0  0  0
   28.0814  -13.6703   -7.8768 O   0  0  0  0  0  0  0  0  0  0  0  0
   29.0554  -15.4644   -6.6315 N   0  0  0  0  0  0  0  0  0  0  0  0
   28.8713  -13.1904   -5.5413 C   0  0  0  0  0  0  0  0  0  0  0  0
   29.1956  -16.5577   -5.5832 C   0  0  0  0  0  0  0  0  0  0  0  0
   30.0621  -15.7095   -7.7020 C   0  0  0  0  0  0  0  0  0  0  0  0
   30.2919  -17.4633   -6.0822 C   0  0  0  0  0  0  0  0  0  0  0  0
   30.9290  -16.7947   -7.2351 C   0  0  0  0  0  0  0  0  0  0  0  0
   27.0684   -9.6776   -3.7271 C   0  0  0  0  0  0  0  0  0  0  0  0
   27.1397   -8.6639   -4.8234 C   0  0  0  0  0  0  0  0  0  0  0  0
   28.0137  -11.8953   -5.9265 C   0  0  0  0  0  0  0  0  0  0  0  0
   28.2198  -10.6125   -3.8649 C   0  0  0  0  0  0  0  0  0  0  0  0
   27.9437   -9.3232   -5.8825 C   0  0  0  0  0  0  0  0  0  0  0  0
   28.5192  -10.6202   -5.3211 C   0  0  0  0  0  0  0  0  0  0  0  0
   29.8428  -13.0752   -5.7486 H   0  0  0  0  0  0  0  0  0  0  0  0
   28.7634  -13.4424   -4.5796 H   0  0  0  0  0  0  0  0  0  0  0  0
   28.3388  -17.0651   -5.4919 H   0  0  0  0  0  0  0  0  0  0  0  0
   29.4451  -16.1629   -4.6989 H   0  0  0  0  0  0  0  0  0  0  0  0
   30.6021  -14.8830   -7.8613 H   0  0  0  0  0  0  0  0  0  0  0  0
   29.6038  -15.9767   -8.5497 H   0  0  0  0  0  0  0  0  0  0  0  0
   29.9067  -18.3412   -6.3667 H   0  0  0  0  0  0  0  0  0  0  0  0
   30.9662  -17.6137   -5.3593 H   0  0  0  0  0  0  0  0  0  0  0  0
   31.8137  -16.4202   -6.9575 H   0  0  0  0  0  0  0  0  0  0  0  0
   31.0637  -17.4562   -7.9728 H   0  0  0  0  0  0  0  0  0  0  0  0
   26.2109  -10.1875   -3.7957 H   0  0  0  0  0  0  0  0  0  0  0  0
   27.1127   -9.2177   -2.8403 H   0  0  0  0  0  0  0  0  0  0  0  0
   27.5895   -7.8294   -4.5053 H   0  0  0  0  0  0  0  0  0  0  0  0
   26.2247   -8.4417   -5.1602 H   0  0  0  0  0  0  0  0  0  0  0  0
   27.0737  -12.0383   -5.6167 H   0  0  0  0  0  0  0  0  0  0  0  0
   28.0253  -11.7961   -6.9215 H   0  0  0  0  0  0  0  0  0  0  0  0
   27.9713  -11.5285   -3.5501 H   0  0  0  0  0  0  0  0  0  0  0  0
   29.0071  -10.2831   -3.3438 H   0  0  0  0  0  0  0  0  0  0  0  0
   28.6885   -8.7188   -6.1653 H   0  0  0  0  0  0  0  0  0  0  0  0
   27.3617   -9.5260   -6.6700 H   0  0  0  0  0  0  0  0  0  0  0  0
   29.5124  -10.5945   -5.4345 H   0  0  0  0  0  0  0  0  0  0  0  0
  1  2  2  0  0  0  0
  1  3  2  0  0  0  0
  1  4  1  0  0  0  0
  1  5  1  0  0  0  0
  4  6  1  0  0  0  0
  4  7  1  0  0  0  0
  5 12  1  0  0  0  0
  6  8  1  0  0  0  0
  7  9  1  0  0  0  0
  8  9  1  0  0  0  0
 10 11  1  0  0  0  0
 10 13  1  0  0  0  0
 11 14  1  0  0  0  0
 12 15  1  0  0  0  0
 13 15  1  0  0  0  0
 14 15  1  0  0  0  0
  5 16  1  0  0  0  0
  5 17  1  0  0  0  0
  6 18  1  0  0  0  0
  6 19  1  0  0  0  0
  7 20  1  0  0  0  0
  7 21  1  0  0  0  0
  8 22  1  0  0  0  0
  8 23  1  0  0  0  0
  9 24  1  0  0  0  0
  9 25  1  0  0  0  0
 10 26  1  0  0  0  0
 10 27  1  0  0  0  0
 11 28  1  0  0  0  0
 11 29  1  0  0  0  0
 12 30  1  0  0  0  0
 12 31  1  0  0  0  0
 13 32  1  0  0  0  0
 13 33  1  0  0  0  0
 14 34  1  0  0  0  0
 14 35  1  0  0  0  0
 15 36  1  0  0  0  0
M  END
> <pdb_id>
5J3L

> <uniprot_id>
P9WMC0

> <usmiles>
S(=O)(=O)(N1CCCC1)CCC2CCCC2

$$$$
6G1_A_401
          07212402413D 1   1.00000     0.00000     0
            
 52 55  0  0  0  0            999 V2000
  130.9139   16.9415    6.0828 S   0  0  0  0  0  0  0  0  0  0  0  0
  131.6517   18.0320    6.6920 O   0  0  0  0  0  0  0  0  0  0  0  0
  130.2721   16.2512    7.2036 O   0  0  0  0  0  0  0  0  0  0  0  0
  133.6708   12.7542    2.2689 O   0  0  0  0  0  0  0  0  0  0  0  0
  130.3020   20.7937    2.2242 N   0  0  0  0  0  0  0  0  0  0  0  0
  131.9982   15.9283    5.3030 N   0  0  0  0  0  0  0  0  0  0  0  0
  133.7162   14.3595    3.8630 N   0  0  0  0  0  0  0  0  0  0  0  0
  131.2942   20.4460    3.0944 C   0  0  0  0  0  0  0  0  0  0  0  0
  129.1077   20.0648    2.2034 C   0  0  0  0  0  0  0  0  0  0  0  0
  133.4184   16.2311    5.4247 C   0  0  0  0  0  0  0  0  0  0  0  0
  131.7211   14.5188    5.3446 C   0  0  0  0  0  0  0  0  0  0  0  0
  134.2077   15.6182    4.2888 C   0  0  0  0  0  0  0  0  0  0  0  0
  132.8042   13.6594    4.7151 C   0  0  0  0  0  0  0  0  0  0  0  0
  137.3355   14.6640   -0.1939 C   0  0  0  0  0  0  0  0  0  0  0  0
  137.5426   15.0214    1.2484 C   0  0  0  0  0  0  0  0  0  0  0  0
  135.9129   14.8658   -0.6657 C   0  0  0  0  0  0  0  0  0  0  0  0
  127.4730   17.1474    3.9472 C   0  0  0  0  0  0  0  0  0  0  0  0
  131.1440   19.3596    3.9910 C   0  0  0  0  0  0  0  0  0  0  0  0
  128.4812   16.7747    4.8614 C   0  0  0  0  0  0  0  0  0  0  0  0
  136.5376   14.2907    2.1411 C   0  0  0  0  0  0  0  0  0  0  0  0
  134.8845   14.2000    0.2671 C   0  0  0  0  0  0  0  0  0  0  0  0
  127.6753   18.2150    3.0798 C   0  0  0  0  0  0  0  0  0  0  0  0
  134.1086   13.8018    2.6131 C   0  0  0  0  0  0  0  0  0  0  0  0
  129.6817   17.4696    4.9052 C   0  0  0  0  0  0  0  0  0  0  0  0
  128.9065   18.9471    3.1177 C   0  0  0  0  0  0  0  0  0  0  0  0
  135.1013   14.5984    1.7095 C   0  0  0  0  0  0  0  0  0  0  0  0
  129.8988   18.5813    4.0119 C   0  0  0  0  0  0  0  0  0  0  0  0
  132.1461   20.9697    3.0993 H   0  0  0  0  0  0  0  0  0  0  0  0
  128.3865   20.3124    1.5564 H   0  0  0  0  0  0  0  0  0  0  0  0
  133.7568   15.8654    6.2917 H   0  0  0  0  0  0  0  0  0  0  0  0
  133.5428   17.2233    5.4102 H   0  0  0  0  0  0  0  0  0  0  0  0
  130.8639   14.3520    4.8572 H   0  0  0  0  0  0  0  0  0  0  0  0
  131.6191   14.2461    6.3012 H   0  0  0  0  0  0  0  0  0  0  0  0
  134.1805   16.2464    3.5113 H   0  0  0  0  0  0  0  0  0  0  0  0
  135.1541   15.5013    4.5900 H   0  0  0  0  0  0  0  0  0  0  0  0
  133.3314   13.2364    5.4521 H   0  0  0  0  0  0  0  0  0  0  0  0
  132.3584   12.9471    4.1729 H   0  0  0  0  0  0  0  0  0  0  0  0
  137.5776   13.7020   -0.3198 H   0  0  0  0  0  0  0  0  0  0  0  0
  137.9382   15.2350   -0.7514 H   0  0  0  0  0  0  0  0  0  0  0  0
  137.4244   16.0079    1.3615 H   0  0  0  0  0  0  0  0  0  0  0  0
  138.4698   14.7634    1.5198 H   0  0  0  0  0  0  0  0  0  0  0  0
  135.8190   14.4722   -1.5801 H   0  0  0  0  0  0  0  0  0  0  0  0
  135.7235   15.8470   -0.7040 H   0  0  0  0  0  0  0  0  0  0  0  0
  126.6104   16.6421    3.9231 H   0  0  0  0  0  0  0  0  0  0  0  0
  131.8899   19.1213    4.6130 H   0  0  0  0  0  0  0  0  0  0  0  0
  128.3297   16.0050    5.4816 H   0  0  0  0  0  0  0  0  0  0  0  0
  136.6655   14.5856    3.0880 H   0  0  0  0  0  0  0  0  0  0  0  0
  136.6958   13.3056    2.0745 H   0  0  0  0  0  0  0  0  0  0  0  0
  134.9702   13.2068    0.1884 H   0  0  0  0  0  0  0  0  0  0  0  0
  133.9654   14.4784   -0.0118 H   0  0  0  0  0  0  0  0  0  0  0  0
  126.9609   18.4722    2.4289 H   0  0  0  0  0  0  0  0  0  0  0  0
  134.9280   15.5780    1.8116 H   0  0  0  0  0  0  0  0  0  0  0  0
  1  2  2  0  0  0  0
  1  3  2  0  0  0  0
  1  6  1  0  0  0  0
  1 24  1  0  0  0  0
  4 23  2  0  0  0  0
  5  8  2  0  0  0  0
  5  9  1  0  0  0  0
  6 10  1  0  0  0  0
  6 11  1  0  0  0  0
  7 12  1  0  0  0  0
  7 13  1  0  0  0  0
  7 23  1  0  0  0  0
  8 18  1  0  0  0  0
  9 25  2  0  0  0  0
 10 12  1  0  0  0  0
 11 13  1  0  0  0  0
 14 15  1  0  0  0  0
 14 16  1  0  0  0  0
 15 20  1  0  0  0  0
 16 21  1  0  0  0  0
 17 19  1  0  0  0  0
 17 22  2  0  0  0  0
 18 27  2  0  0  0  0
 19 24  2  0  0  0  0
 20 26  1  0  0  0  0
 21 26  1  0  0  0  0
 22 25  1  0  0  0  0
 23 26  1  0  0  0  0
 24 27  1  0  0  0  0
 25 27  1  0  0  0  0
  8 28  1  0  0  0  0
  9 29  1  0  0  0  0
 10 30  1  0  0  0  0
 10 31  1  0  0  0  0
 11 32  1  0  0  0  0
 11 33  1  0  0  0  0
 12 34  1  0  0  0  0
 12 35  1  0  0  0  0
 13 36  1  0  0  0  0
 13 37  1  0  0  0  0
 14 38  1  0  0  0  0
 14 39  1  0  0  0  0
 15 40  1  0  0  0  0
 15 41  1  0  0  0  0
 16 42  1  0  0  0  0
 16 43  1  0  0  0  0
 17 44  1  0  0  0  0
 18 45  1  0  0  0  0
 19 46  1  0  0  0  0
 20 47  1  0  0  0  0
 20 48  1  0  0  0  0
 21 49  1  0  0  0  0
 21 50  1  0  0  0  0
 22 51  1  0  0  0  0
 26 52  1  0  0  0  0
M  END
> <pdb_id>
5J5R

> <uniprot_id>
G7CNL4

> <usmiles>
S(=O)(=O)(N1CCN(C(=O)C2CCCCC2)CC1)c3c4c(cncc4)ccc3

$$$$
6G7_A_301
          07192420423D 1   1.00000     0.00000     0
            
 31 33  0  0  0  0            999 V2000
   69.9970   37.0714   22.1788 F   0  0  0  0  0  0  0  0  0  0  0  0
   67.4176   38.1299   21.1122 O   0  0  0  0  0  0  0  0  0  0  0  0
   67.2482   32.3464   27.6602 O   0  0  0  0  0  0  0  0  0  0  0  0
   64.5405   34.2413   24.2193 O   0  0  0  0  0  0  0  0  0  0  0  0
   66.3115   36.1421   21.0133 N   0  0  0  0  0  0  0  0  0  0  0  0
   66.1321   35.0436   21.8836 N   0  0  0  0  0  0  0  0  0  0  0  0
   67.4536   36.5639   22.8104 N   0  0  0  0  0  0  0  0  0  0  0  0
   69.9984   38.5049   25.5329 C   0  0  0  0  0  0  0  0  0  0  0  0
   68.6643   38.3114   25.8553 C   0  0  0  0  0  0  0  0  0  0  0  0
   70.4700   38.0678   24.2899 C   0  0  0  0  0  0  0  0  0  0  0  0
   68.2773   33.4417   25.8345 C   0  0  0  0  0  0  0  0  0  0  0  0
   67.7905   37.6735   24.9876 C   0  0  0  0  0  0  0  0  0  0  0  0
   68.1784   34.1776   24.6699 C   0  0  0  0  0  0  0  0  0  0  0  0
   65.8630   33.2621   25.9381 C   0  0  0  0  0  0  0  0  0  0  0  0
   67.0875   37.0601   21.5980 C   0  0  0  0  0  0  0  0  0  0  0  0
   69.5869   37.4538   23.4040 C   0  0  0  0  0  0  0  0  0  0  0  0
   67.1318   33.0017   26.4763 C   0  0  0  0  0  0  0  0  0  0  0  0
   65.7653   33.9931   24.7747 C   0  0  0  0  0  0  0  0  0  0  0  0
   66.8540   35.2938   22.9485 C   0  0  0  0  0  0  0  0  0  0  0  0
   68.2672   37.2569   23.7520 C   0  0  0  0  0  0  0  0  0  0  0  0
   66.9150   34.4348   24.1219 C   0  0  0  0  0  0  0  0  0  0  0  0
   66.4299   32.0228   28.1352 H   0  0  0  0  0  0  0  0  0  0  0  0
   64.4729   34.7723   23.3746 H   0  0  0  0  0  0  0  0  0  0  0  0
   65.9173   36.2209   20.0977 H   0  0  0  0  0  0  0  0  0  0  0  0
   70.6161   38.9513   26.1804 H   0  0  0  0  0  0  0  0  0  0  0  0
   68.3232   38.6401   26.7360 H   0  0  0  0  0  0  0  0  0  0  0  0
   71.4300   38.1946   24.0403 H   0  0  0  0  0  0  0  0  0  0  0  0
   69.1769   33.2264   26.2146 H   0  0  0  0  0  0  0  0  0  0  0  0
   66.8373   37.5169   25.2465 H   0  0  0  0  0  0  0  0  0  0  0  0
   69.0022   34.5241   24.2213 H   0  0  0  0  0  0  0  0  0  0  0  0
   65.0402   32.9216   26.3930 H   0  0  0  0  0  0  0  0  0  0  0  0
  1 16  1  0  0  0  0
  2 15  2  0  0  0  0
  3 17  1  0  0  0  0
  4 18  1  0  0  0  0
  5  6  1  0  0  0  0
  5 15  1  0  0  0  0
  6 19  2  0  0  0  0
  7 15  1  0  0  0  0
  7 19  1  0  0  0  0
  7 20  1  0  0  0  0
  8  9  2  0  0  0  0
  8 10  1  0  0  0  0
  9 12  1  0  0  0  0
 10 16  2  0  0  0  0
 11 13  1  0  0  0  0
 11 17  2  0  0  0  0
 12 20  2  0  0  0  0
 13 21  2  0  0  0  0
 14 17  1  0  0  0  0
 14 18  2  0  0  0  0
 16 20  1  0  0  0  0
 18 21  1  0  0  0  0
 19 21  1  0  0  0  0
  3 22  1  0  0  0  0
  4 23  1  0  0  0  0
  5 24  1  0  0  0  0
  8 25  1  0  0  0  0
  9 26  1  0  0  0  0
 10 27  1  0  0  0  0
 11 28  1  0  0  0  0
 12 29  1  0  0  0  0
 13 30  1  0  0  0  0
 14 31  1  0  0  0  0
M  END
> <pdb_id>
5J64

> <uniprot_id>
P07900

> <usmiles>
Fc1c(N2C(=O)NN=C2c3c(O)cc(O)cc3)cccc1

$$$$
6GC_A_301
          07192420423D 1   1.00000     0.00000     0
            
 50 52  0  0  0  0            999 V2000
   70.0626   36.7444   22.4169 F   0  0  0  0  0  0  0  0  0  0  0  0
   67.3741   38.2545   21.1625 O   0  0  0  0  0  0  0  0  0  0  0  0
   70.3978   33.9706   26.4016 O   0  0  0  0  0  0  0  0  0  0  0  0
   67.2736   32.1750   27.4360 O   0  0  0  0  0  0  0  0  0  0  0  0
   64.4163   34.3386   24.2344 O   0  0  0  0  0  0  0  0  0  0  0  0
   65.9676   35.1310   21.7302 N   0  0  0  0  0  0  0  0  0  0  0  0
   66.1724   36.2602   20.9242 N   0  0  0  0  0  0  0  0  0  0  0  0
   70.1910   31.8968   25.6042 N   0  0  0  0  0  0  0  0  0  0  0  0
   67.2784   36.5825   22.7174 N   0  0  0  0  0  0  0  0  0  0  0  0
   69.3110   30.8055   25.2202 C   0  0  0  0  0  0  0  0  0  0  0  0
   74.2847   31.2715   22.8230 C   0  0  0  0  0  0  0  0  0  0  0  0
   69.6809   38.4307   25.6501 C   0  0  0  0  0  0  0  0  0  0  0  0
   68.3021   38.3681   25.7846 C   0  0  0  0  0  0  0  0  0  0  0  0
   70.2902   37.8770   24.5201 C   0  0  0  0  0  0  0  0  0  0  0  0
   67.5405   37.7678   24.7828 C   0  0  0  0  0  0  0  0  0  0  0  0
   65.7956   33.2262   25.8748 C   0  0  0  0  0  0  0  0  0  0  0  0
   68.0705   34.1673   24.4822 C   0  0  0  0  0  0  0  0  0  0  0  0
   71.6364   31.5154   25.6053 C   0  0  0  0  0  0  0  0  0  0  0  0
   73.4834   30.8193   24.0152 C   0  0  0  0  0  0  0  0  0  0  0  0
   72.2661   31.7200   24.2152 C   0  0  0  0  0  0  0  0  0  0  0  0
   66.9754   37.1084   21.5545 C   0  0  0  0  0  0  0  0  0  0  0  0
   69.6982   33.1031   25.9342 C   0  0  0  0  0  0  0  0  0  0  0  0
   69.5227   37.2707   23.5245 C   0  0  0  0  0  0  0  0  0  0  0  0
   66.7196   35.3496   22.8450 C   0  0  0  0  0  0  0  0  0  0  0  0
   67.0810   32.9235   26.3273 C   0  0  0  0  0  0  0  0  0  0  0  0
   65.6355   34.0144   24.7343 C   0  0  0  0  0  0  0  0  0  0  0  0
   68.0632   37.1845   23.6317 C   0  0  0  0  0  0  0  0  0  0  0  0
   68.2544   33.4129   25.6011 C   0  0  0  0  0  0  0  0  0  0  0  0
   66.8250   34.4847   24.0168 C   0  0  0  0  0  0  0  0  0  0  0  0
   66.4171   31.9243   27.8088 H   0  0  0  0  0  0  0  0  0  0  0  0
   63.7262   33.9675   24.8010 H   0  0  0  0  0  0  0  0  0  0  0  0
   65.6987   36.2595   19.9991 H   0  0  0  0  0  0  0  0  0  0  0  0
   68.7541   31.0845   24.3642 H   0  0  0  0  0  0  0  0  0  0  0  0
   68.6476   30.5897   26.0169 H   0  0  0  0  0  0  0  0  0  0  0  0
   69.8900   29.9460   25.0006 H   0  0  0  0  0  0  0  0  0  0  0  0
   73.6799   31.2296   21.9547 H   0  0  0  0  0  0  0  0  0  0  0  0
   75.1230   30.6358   22.7005 H   0  0  0  0  0  0  0  0  0  0  0  0
   74.6152   32.2661   22.9758 H   0  0  0  0  0  0  0  0  0  0  0  0
   70.2807   38.9113   26.4125 H   0  0  0  0  0  0  0  0  0  0  0  0
   67.8207   38.7906   26.6571 H   0  0  0  0  0  0  0  0  0  0  0  0
   71.3653   37.9382   24.4061 H   0  0  0  0  0  0  0  0  0  0  0  0
   66.4681   37.7176   24.9287 H   0  0  0  0  0  0  0  0  0  0  0  0
   64.9281   32.8689   26.4171 H   0  0  0  0  0  0  0  0  0  0  0  0
   68.9392   34.5266   23.9438 H   0  0  0  0  0  0  0  0  0  0  0  0
   71.7352   30.4685   25.8985 H   0  0  0  0  0  0  0  0  0  0  0  0
   72.1713   32.1213   26.3398 H   0  0  0  0  0  0  0  0  0  0  0  0
   73.1558   29.7886   23.8653 H   0  0  0  0  0  0  0  0  0  0  0  0
   74.1107   30.8480   24.9090 H   0  0  0  0  0  0  0  0  0  0  0  0
   72.5662   32.7642   24.1036 H   0  0  0  0  0  0  0  0  0  0  0  0
   71.5244   31.5021   23.4452 H   0  0  0  0  0  0  0  0  0  0  0  0
  1 23  1  0  0  0  0
  2 21  2  0  0  0  0
  3 22  2  0  0  0  0
  4 25  1  0  0  0  0
  4 30  1  0  0  0  0
  5 26  1  0  0  0  0
  5 31  1  0  0  0  0
  6  7  1  0  0  0  0
  6 24  2  0  0  0  0
  7 21  1  0  0  0  0
  7 32  1  0  0  0  0
  8 10  1  0  0  0  0
  8 18  1  0  0  0  0
  8 22  1  0  0  0  0
  9 21  1  0  0  0  0
  9 24  1  0  0  0  0
  9 27  1  0  0  0  0
 10 33  1  0  0  0  0
 10 34  1  0  0  0  0
 10 35  1  0  0  0  0
 11 19  1  0  0  0  0
 11 36  1  0  0  0  0
 11 37  1  0  0  0  0
 11 38  1  0  0  0  0
 12 13  2  0  0  0  0
 12 14  1  0  0  0  0
 12 39  1  0  0  0  0
 13 15  1  0  0  0  0
 13 40  1  0  0  0  0
 14 23  2  0  0  0  0
 14 41  1  0  0  0  0
 15 27  2  0  0  0  0
 15 42  1  0  0  0  0
 16 25  2  0  0  0  0
 16 26  1  0  0  0  0
 16 43  1  0  0  0  0
 17 28  2  0  0  0  0
 17 29  1  0  0  0  0
 17 44  1  0  0  0  0
 18 20  1  0  0  0  0
 18 45  1  0  0  0  0
 18 46  1  0  0  0  0
 19 20  1  0  0  0  0
 19 47  1  0  0  0  0
 19 48  1  0  0  0  0
 20 49  1  0  0  0  0
 20 50  1  0  0  0  0
 22 28  1  0  0  0  0
 23 27  1  0  0  0  0
 24 29  1  0  0  0  0
 25 28  1  0  0  0  0
 26 29  2  0  0  0  0
M  END
> <pdb_id>
5J9X

> <uniprot_id>
P07900

> <usmiles>
Fc1c(N2C(=O)NN=C2c3c(O)cc(O)c(c3)C(=O)N(CCCC)C)cccc1

$$$$
6GH_E_302
          07202406093D 1   1.00000     0.00000     0
            
 45 48  0  0  0  0            999 V2000
   51.6670    2.4000  126.9960 S   0  0  0  0  0  0  0  0  0  0  0  0
   53.4260    4.2720  120.8480 N   0  0  0  0  0  0  0  0  0  0  0  0
   58.5360    1.3100  123.3230 N   0  0  0  0  0  0  0  0  0  0  0  0
   58.4170    2.4640  120.9070 N   0  0  0  0  0  0  0  0  0  0  0  0
   55.4150    4.0640  121.9970 N   0  0  0  0  0  0  0  0  0  0  0  0
   53.4130    3.4670  123.0310 N   0  0  0  0  0  0  0  0  0  0  0  0
   57.4390    3.8930  123.0820 N   0  0  0  0  0  0  0  0  0  0  0  0
   53.0020    1.3180  127.0330 C   0  0  0  0  0  0  0  0  0  0  0  0
   52.2120    3.2270  125.6160 C   0  0  0  0  0  0  0  0  0  0  0  0
   58.6350   -0.0910  123.4570 C   0  0  0  0  0  0  0  0  0  0  0  0
   58.6960    1.6610  119.7850 C   0  0  0  0  0  0  0  0  0  0  0  0
   58.3130    3.5140  124.2250 C   0  0  0  0  0  0  0  0  0  0  0  0
   58.1050    4.5950  121.9590 C   0  0  0  0  0  0  0  0  0  0  0  0
   58.6160   -0.6580  124.7320 C   0  0  0  0  0  0  0  0  0  0  0  0
   58.9320    2.2740  118.5570 C   0  0  0  0  0  0  0  0  0  0  0  0
   58.4830    0.1790  125.8390 C   0  0  0  0  0  0  0  0  0  0  0  0
   58.8940    3.6650  118.4710 C   0  0  0  0  0  0  0  0  0  0  0  0
   53.8090    1.6350  126.0000 C   0  0  0  0  0  0  0  0  0  0  0  0
   58.3860    1.5600  125.6670 C   0  0  0  0  0  0  0  0  0  0  0  0
   58.6170    4.4200  119.6060 C   0  0  0  0  0  0  0  0  0  0  0  0
   55.4410    3.2560  124.2190 C   0  0  0  0  0  0  0  0  0  0  0  0
   54.0810    3.9360  121.9620 C   0  0  0  0  0  0  0  0  0  0  0  0
   56.1140    3.7360  123.0970 C   0  0  0  0  0  0  0  0  0  0  0  0
   58.4140    2.1160  124.3870 C   0  0  0  0  0  0  0  0  0  0  0  0
   58.3690    3.7990  120.8300 C   0  0  0  0  0  0  0  0  0  0  0  0
   54.0560    3.1180  124.1660 C   0  0  0  0  0  0  0  0  0  0  0  0
   53.3740    2.6660  125.2340 C   0  0  0  0  0  0  0  0  0  0  0  0
   52.4309    4.1821  120.8066 H   0  0  0  0  0  0  0  0  0  0  0  0
   53.9305    4.6136  120.0551 H   0  0  0  0  0  0  0  0  0  0  0  0
   53.1527    0.5872  127.6987 H   0  0  0  0  0  0  0  0  0  0  0  0
   51.7518    3.9934  125.1678 H   0  0  0  0  0  0  0  0  0  0  0  0
   58.7179   -0.6715  122.6470 H   0  0  0  0  0  0  0  0  0  0  0  0
   58.7243    0.6649  119.8685 H   0  0  0  0  0  0  0  0  0  0  0  0
   57.9342    3.9075  125.0627 H   0  0  0  0  0  0  0  0  0  0  0  0
   59.2278    3.8854  124.0663 H   0  0  0  0  0  0  0  0  0  0  0  0
   58.9752    4.9574  122.2928 H   0  0  0  0  0  0  0  0  0  0  0  0
   57.5163    5.3514  121.6739 H   0  0  0  0  0  0  0  0  0  0  0  0
   58.6964   -1.6478  124.8496 H   0  0  0  0  0  0  0  0  0  0  0  0
   59.1266    1.7225  117.7458 H   0  0  0  0  0  0  0  0  0  0  0  0
   58.4571   -0.2118  126.7591 H   0  0  0  0  0  0  0  0  0  0  0  0
   59.0653    4.1184  117.5963 H   0  0  0  0  0  0  0  0  0  0  0  0
   54.6620    1.1476  125.8134 H   0  0  0  0  0  0  0  0  0  0  0  0
   58.2959    2.1552  126.4655 H   0  0  0  0  0  0  0  0  0  0  0  0
   58.5955    5.4178  119.5437 H   0  0  0  0  0  0  0  0  0  0  0  0
   55.9443    3.0146  125.0487 H   0  0  0  0  0  0  0  0  0  0  0  0
  1  8  1  0  0  0  0
  1  9  1  0  0  0  0
  2 22  1  0  0  0  0
  3 10  2  0  0  0  0
  3 24  1  0  0  0  0
  4 11  2  0  0  0  0
  4 25  1  0  0  0  0
  5 22  2  0  0  0  0
  5 23  1  0  0  0  0
  6 22  1  0  0  0  0
  6 26  2  0  0  0  0
  7 12  1  0  0  0  0
  7 13  1  0  0  0  0
  7 23  1  0  0  0  0
  8 18  2  0  0  0  0
  9 27  2  0  0  0  0
 10 14  1  0  0  0  0
 11 15  1  0  0  0  0
 12 24  1  0  0  0  0
 13 25  1  0  0  0  0
 14 16  2  0  0  0  0
 15 17  2  0  0  0  0
 16 19  1  0  0  0  0
 17 20  1  0  0  0  0
 18 27  1  0  0  0  0
 19 24  2  0  0  0  0
 20 25  2  0  0  0  0
 21 23  2  0  0  0  0
 21 26  1  0  0  0  0
 26 27  1  0  0  0  0
  2 28  1  0  0  0  0
  2 29  1  0  0  0  0
  8 30  1  0  0  0  0
  9 31  1  0  0  0  0
 10 32  1  0  0  0  0
 11 33  1  0  0  0  0
 12 34  1  0  0  0  0
 12 35  1  0  0  0  0
 13 36  1  0  0  0  0
 13 37  1  0  0  0  0
 14 38  1  0  0  0  0
 15 39  1  0  0  0  0
 16 40  1  0  0  0  0
 17 41  1  0  0  0  0
 18 42  1  0  0  0  0
 19 43  1  0  0  0  0
 20 44  1  0  0  0  0
 21 45  1  0  0  0  0
M  END
> <pdb_id>
5J5F

> <uniprot_id>
P58154

> <usmiles>
S1C=C(c2nc(nc(N(Cc3ncccc3)Cc4ncccc4)c2)N)C=C1

$$$$
6GW_A_301
          07192420423D 1   1.00000     0.00000     0
            
 51 54  0  0  0  0            999 V2000
   72.3902   32.4492   23.3667 S   0  0  0  0  0  0  0  0  0  0  0  0
   67.6076   37.9811   20.9706 O   0  0  0  0  0  0  0  0  0  0  0  0
   70.3408   33.7824   26.5910 O   0  0  0  0  0  0  0  0  0  0  0  0
   67.1669   32.2480   27.5537 O   0  0  0  0  0  0  0  0  0  0  0  0
   64.4862   34.2796   24.1727 O   0  0  0  0  0  0  0  0  0  0  0  0
   66.3523   36.0716   20.8239 N   0  0  0  0  0  0  0  0  0  0  0  0
   66.1079   35.0159   21.6993 N   0  0  0  0  0  0  0  0  0  0  0  0
   70.0717   31.7336   25.7033 N   0  0  0  0  0  0  0  0  0  0  0  0
   67.4689   36.4541   22.6561 N   0  0  0  0  0  0  0  0  0  0  0  0
   69.1836   30.7444   25.0680 C   0  0  0  0  0  0  0  0  0  0  0  0
   70.4440   36.4267   22.4998 C   0  0  0  0  0  0  0  0  0  0  0  0
   73.2692   31.3611   22.2955 C   0  0  0  0  0  0  0  0  0  0  0  0
   71.4866   31.3552   25.8822 C   0  0  0  0  0  0  0  0  0  0  0  0
   73.3555   30.1514   22.8710 C   0  0  0  0  0  0  0  0  0  0  0  0
   68.3457   38.3923   25.6954 C   0  0  0  0  0  0  0  0  0  0  0  0
   69.7417   38.3824   25.6562 C   0  0  0  0  0  0  0  0  0  0  0  0
   72.7754   30.0516   24.1271 C   0  0  0  0  0  0  0  0  0  0  0  0
   67.6168   37.7640   24.6882 C   0  0  0  0  0  0  0  0  0  0  0  0
   70.4098   37.7323   24.6196 C   0  0  0  0  0  0  0  0  0  0  0  0
   65.7889   33.2484   25.8811 C   0  0  0  0  0  0  0  0  0  0  0  0
   68.1056   34.0489   24.5178 C   0  0  0  0  0  0  0  0  0  0  0  0
   67.1818   36.9402   21.4338 C   0  0  0  0  0  0  0  0  0  0  0  0
   72.2034   31.1795   24.5658 C   0  0  0  0  0  0  0  0  0  0  0  0
   69.6043   32.9601   26.0843 C   0  0  0  0  0  0  0  0  0  0  0  0
   66.7937   35.2422   22.7917 C   0  0  0  0  0  0  0  0  0  0  0  0
   67.0567   32.9211   26.3900 C   0  0  0  0  0  0  0  0  0  0  0  0
   65.6971   33.9795   24.6936 C   0  0  0  0  0  0  0  0  0  0  0  0
   68.2699   37.1071   23.6356 C   0  0  0  0  0  0  0  0  0  0  0  0
   69.6779   37.1032   23.6043 C   0  0  0  0  0  0  0  0  0  0  0  0
   68.2207   33.3478   25.7204 C   0  0  0  0  0  0  0  0  0  0  0  0
   66.8569   34.3802   24.0009 C   0  0  0  0  0  0  0  0  0  0  0  0
   68.0706   32.0163   27.9136 H   0  0  0  0  0  0  0  0  0  0  0  0
   64.4232   34.8028   23.3228 H   0  0  0  0  0  0  0  0  0  0  0  0
   65.9768   36.1680   19.9021 H   0  0  0  0  0  0  0  0  0  0  0  0
   68.2585   31.1188   25.0051 H   0  0  0  0  0  0  0  0  0  0  0  0
   69.5211   30.5340   24.1505 H   0  0  0  0  0  0  0  0  0  0  0  0
   69.1684   29.9088   25.6172 H   0  0  0  0  0  0  0  0  0  0  0  0
   69.8022   36.0221   21.8484 H   0  0  0  0  0  0  0  0  0  0  0  0
   71.0158   37.0995   22.0303 H   0  0  0  0  0  0  0  0  0  0  0  0
   71.0230   35.7091   22.8868 H   0  0  0  0  0  0  0  0  0  0  0  0
   73.6441   31.6057   21.4013 H   0  0  0  0  0  0  0  0  0  0  0  0
   71.5276   30.4936   26.3882 H   0  0  0  0  0  0  0  0  0  0  0  0
   71.9473   32.0716   26.4061 H   0  0  0  0  0  0  0  0  0  0  0  0
   73.8058   29.3774   22.4259 H   0  0  0  0  0  0  0  0  0  0  0  0
   67.8696   38.8500   26.4463 H   0  0  0  0  0  0  0  0  0  0  0  0
   70.2637   38.8432   26.3739 H   0  0  0  0  0  0  0  0  0  0  0  0
   72.7838   29.2062   24.6611 H   0  0  0  0  0  0  0  0  0  0  0  0
   66.6174   37.7818   24.7161 H   0  0  0  0  0  0  0  0  0  0  0  0
   71.4095   37.7152   24.6009 H   0  0  0  0  0  0  0  0  0  0  0  0
   64.9612   32.9615   26.3634 H   0  0  0  0  0  0  0  0  0  0  0  0
   68.9317   34.3164   24.0217 H   0  0  0  0  0  0  0  0  0  0  0  0
  1 12  1  0  0  0  0
  1 23  1  0  0  0  0
  2 22  2  0  0  0  0
  3 24  2  0  0  0  0
  4 26  1  0  0  0  0
  5 27  1  0  0  0  0
  6  7  1  0  0  0  0
  6 22  1  0  0  0  0
  7 25  2  0  0  0  0
  8 10  1  0  0  0  0
  8 13  1  0  0  0  0
  8 24  1  0  0  0  0
  9 22  1  0  0  0  0
  9 25  1  0  0  0  0
  9 28  1  0  0  0  0
 11 29  1  0  0  0  0
 12 14  2  0  0  0  0
 13 23  1  0  0  0  0
 14 17  1  0  0  0  0
 15 16  2  0  0  0  0
 15 18  1  0  0  0  0
 16 19  1  0  0  0  0
 17 23  2  0  0  0  0
 18 28  2  0  0  0  0
 19 29  2  0  0  0  0
 20 26  2  0  0  0  0
 20 27  1  0  0  0  0
 21 30  2  0  0  0  0
 21 31  1  0  0  0  0
 24 30  1  0  0  0  0
 25 31  1  0  0  0  0
 26 30  1  0  0  0  0
 27 31  2  0  0  0  0
 28 29  1  0  0  0  0
  4 32  1  0  0  0  0
  5 33  1  0  0  0  0
  6 34  1  0  0  0  0
 10 35  1  0  0  0  0
 10 36  1  0  0  0  0
 10 37  1  0  0  0  0
 11 38  1  0  0  0  0
 11 39  1  0  0  0  0
 11 40  1  0  0  0  0
 12 41  1  0  0  0  0
 13 42  1  0  0  0  0
 13 43  1  0  0  0  0
 14 44  1  0  0  0  0
 15 45  1  0  0  0  0
 16 46  1  0  0  0  0
 17 47  1  0  0  0  0
 18 48  1  0  0  0  0
 19 49  1  0  0  0  0
 20 50  1  0  0  0  0
 21 51  1  0  0  0  0
M  END
> <pdb_id>
5J86

> <uniprot_id>
P07900

> <usmiles>
S1C(=CC=C1)CN(C(=O)c2c(O)cc(O)c(c2)C3=NNC(=O)N3c4c(cccc4)C)C

$$$$
6HN_A_551
          07202415503D 1   1.00000     0.00000     0
            
 24 23  0  0  0  0            999 V2000
  -26.6481   11.7749  -12.5142 O   0  5  0  0  0  0  0  0  0  0  0  0
  -26.6437   13.7876  -13.5839 O   0  0  0  0  0  0  0  0  0  0  0  0
  -19.7954   15.6227  -13.0917 O   0  0  0  0  0  0  0  0  0  0  0  0
  -20.2449   15.6657  -10.9423 O   0  0  0  0  0  0  0  0  0  0  0  0
  -21.7029   17.3706  -13.8383 N   0  0  0  0  0  0  0  0  0  0  0  0
  -26.0651   12.9309  -12.7696 N   0  3  0  0  0  0  0  0  0  0  0  0
  -24.7753   13.2053  -12.1834 C   0  0  0  0  0  0  0  0  0  0  0  0
  -24.5951   14.6582  -11.7754 C   0  0  0  0  0  0  0  0  0  0  0  0
  -23.2445   15.1084  -12.2954 C   0  0  0  0  0  0  0  0  0  0  0  0
  -22.9843   16.5585  -11.8859 C   0  0  0  0  0  0  0  0  0  0  0  0
  -20.4848   16.0601  -12.1227 C   0  0  0  0  0  0  0  0  0  0  0  0
  -21.6146   17.0747  -12.3829 C   0  0  1  0  0  0  0  0  0  0  0  0
  -19.9863   15.9351  -14.0223 H   0  0  0  0  0  0  0  0  0  0  0  0
  -20.8188   17.7050  -14.1647 H   0  0  0  0  0  0  0  0  0  0  0  0
  -21.9475   16.5371  -14.3336 H   0  0  0  0  0  0  0  0  0  0  0  0
  -24.0678   12.9733  -12.8509 H   0  0  0  0  0  0  0  0  0  0  0  0
  -24.6678   12.6321  -11.3710 H   0  0  0  0  0  0  0  0  0  0  0  0
  -24.6227   14.7398  -10.7791 H   0  0  0  0  0  0  0  0  0  0  0  0
  -25.3201   15.2185  -12.1759 H   0  0  0  0  0  0  0  0  0  0  0  0
  -23.2336   15.0389  -13.2929 H   0  0  0  0  0  0  0  0  0  0  0  0
  -22.5300   14.5228  -11.9126 H   0  0  0  0  0  0  0  0  0  0  0  0
  -23.0075   16.6195  -10.8880 H   0  0  0  0  0  0  0  0  0  0  0  0
  -23.7042   17.1353  -12.2719 H   0  0  0  0  0  0  0  0  0  0  0  0
  -21.3990   17.9225  -11.8983 H   0  0  0  0  0  0  0  0  0  0  0  0
  1  6  1  0  0  0  0
  2  6  2  0  0  0  0
  3 11  1  0  0  0  0
  4 11  2  0  0  0  0
  5 12  1  0  0  0  0
  6  7  1  0  0  0  0
  7  8  1  0  0  0  0
  8  9  1  0  0  0  0
  9 10  1  0  0  0  0
 10 12  1  0  0  0  0
 11 12  1  0  0  0  0
  3 13  1  0  0  0  0
  5 14  1  0  0  0  0
  5 15  1  0  0  0  0
  7 16  1  0  0  0  0
  7 17  1  0  0  0  0
  8 18  1  0  0  0  0
  8 19  1  0  0  0  0
  9 20  1  0  0  0  0
  9 21  1  0  0  0  0
 10 22  1  0  0  0  0
 10 23  1  0  0  0  0
 12 24  1  0  0  0  0
M  CHG  2   1  -1   6   1
M  END
> <pdb_id>
3F80

> <uniprot_id>
P05089

> <usmiles>
[O-][N+](=O)CCCC[C@H](N)C(=O)O

$$$$
6HU_A_504
          07202413213D 1   1.00000     0.00000     0
            
 60 62  0  0  0  0            999 V2000
   10.4297   -7.4410   25.4723 O   0  0  0  0  0  0  0  0  0  0  0  0
   10.3909   -5.0406   28.2334 O   0  0  0  0  0  0  0  0  0  0  0  0
   18.2334   -7.8568   29.7189 O   0  0  0  0  0  0  0  0  0  0  0  0
   19.2410   -9.8305   27.7621 N   0  0  0  0  0  0  0  0  0  0  0  0
   13.6430   -6.9931   28.7718 N   0  0  0  0  0  0  0  0  0  0  0  0
   15.8453   -6.6240   29.5634 N   0  0  0  0  0  0  0  0  0  0  0  0
   12.4065   -6.9674   29.3302 N   0  0  0  0  0  0  0  0  0  0  0  0
   10.5973   -3.7812   27.5935 C   0  0  0  0  0  0  0  0  0  0  0  0
   18.7190   -1.8163   31.1607 C   0  0  0  0  0  0  0  0  0  0  0  0
   19.9784   -4.5863   32.9802 C   0  0  0  0  0  0  0  0  0  0  0  0
   12.4670   -6.6813   30.6410 C   0  0  0  0  0  0  0  0  0  0  0  0
   16.6262   -0.9126   34.1703 C   0  0  0  0  0  0  0  0  0  0  0  0
   16.1244   -2.1273   34.5588 C   0  0  0  0  0  0  0  0  0  0  0  0
   13.7750   -6.5051   30.9544 C   0  0  0  0  0  0  0  0  0  0  0  0
   17.4651   -0.8233   33.0827 C   0  0  0  0  0  0  0  0  0  0  0  0
   16.4536   -3.2663   33.8639 C   0  0  0  0  0  0  0  0  0  0  0  0
   19.0820   -6.2321   31.3286 C   0  0  0  0  0  0  0  0  0  0  0  0
   16.6319   -4.9665   31.1708 C   0  0  0  0  0  0  0  0  0  0  0  0
    9.8649   -6.5969   26.4663 C   0  0  0  0  0  0  0  0  0  0  0  0
   19.3501   -8.7194   29.9630 C   0  0  0  0  0  0  0  0  0  0  0  0
   19.0982  -10.0163   29.2265 C   0  0  0  0  0  0  0  0  0  0  0  0
   11.2199   -7.2509   28.5304 C   0  0  0  0  0  0  0  0  0  0  0  0
   14.4681   -6.7149   29.7771 C   0  0  0  0  0  0  0  0  0  0  0  0
   18.0944   -6.7410   30.4966 C   0  0  0  0  0  0  0  0  0  0  0  0
   16.8343   -6.1144   30.4206 C   0  0  0  0  0  0  0  0  0  0  0  0
   17.8199   -1.9587   32.3629 C   0  0  0  0  0  0  0  0  0  0  0  0
   18.8718   -5.0893   32.0880 C   0  0  0  0  0  0  0  0  0  0  0  0
   17.2996   -3.2038   32.7617 C   0  0  0  0  0  0  0  0  0  0  0  0
   17.6176   -4.4554   32.0155 C   0  0  0  0  0  0  0  0  0  0  0  0
   10.9121   -6.1587   27.5014 C   0  0  2  0  0  0  0  0  0  0  0  0
   10.0624   -8.2445   25.5304 H   0  0  0  0  0  0  0  0  0  0  0  0
   19.2089  -10.6458   27.3355 H   0  0  0  0  0  0  0  0  0  0  0  0
   18.5623   -9.3037   27.4417 H   0  0  0  0  0  0  0  0  0  0  0  0
   16.1384   -7.0158   28.8385 H   0  0  0  0  0  0  0  0  0  0  0  0
   10.3641   -3.0619   28.2106 H   0  0  0  0  0  0  0  0  0  0  0  0
   11.5337   -3.6973   27.3350 H   0  0  0  0  0  0  0  0  0  0  0  0
   10.0328   -3.7252   26.7979 H   0  0  0  0  0  0  0  0  0  0  0  0
   19.4800   -2.4091   31.2508 H   0  0  0  0  0  0  0  0  0  0  0  0
   19.0343   -0.8927   31.0949 H   0  0  0  0  0  0  0  0  0  0  0  0
   18.2216   -2.0465   30.3517 H   0  0  0  0  0  0  0  0  0  0  0  0
   19.8211   -4.8883   33.8956 H   0  0  0  0  0  0  0  0  0  0  0  0
   19.9987   -3.6161   32.9613 H   0  0  0  0  0  0  0  0  0  0  0  0
   20.8363   -4.9353   32.6664 H   0  0  0  0  0  0  0  0  0  0  0  0
   11.7259   -6.6218   31.2179 H   0  0  0  0  0  0  0  0  0  0  0  0
   16.4019   -0.1338   34.6585 H   0  0  0  0  0  0  0  0  0  0  0  0
   15.5585   -2.1841   35.3109 H   0  0  0  0  0  0  0  0  0  0  0  0
   14.1384   -6.2891   31.8001 H   0  0  0  0  0  0  0  0  0  0  0  0
   17.8027    0.0180   32.8217 H   0  0  0  0  0  0  0  0  0  0  0  0
   16.1015   -4.1003   34.1372 H   0  0  0  0  0  0  0  0  0  0  0  0
   19.9154   -6.6665   31.3828 H   0  0  0  0  0  0  0  0  0  0  0  0
   15.8037   -4.5246   31.1180 H   0  0  0  0  0  0  0  0  0  0  0  0
    9.1378   -7.0732   26.9229 H   0  0  0  0  0  0  0  0  0  0  0  0
    9.4883   -5.8072   26.0349 H   0  0  0  0  0  0  0  0  0  0  0  0
   19.4418   -8.8913   30.9266 H   0  0  0  0  0  0  0  0  0  0  0  0
   20.1757   -8.3009   29.6399 H   0  0  0  0  0  0  0  0  0  0  0  0
   18.1922  -10.3392   29.4210 H   0  0  0  0  0  0  0  0  0  0  0  0
   19.7370  -10.6984   29.5266 H   0  0  0  0  0  0  0  0  0  0  0  0
   10.4506   -7.3497   29.1302 H   0  0  0  0  0  0  0  0  0  0  0  0
   11.3504   -8.1053   28.0615 H   0  0  0  0  0  0  0  0  0  0  0  0
   11.7464   -5.9125   27.0349 H   0  0  0  0  0  0  0  0  0  0  0  0
  1 19  1  0  0  0  0
  1 31  1  0  0  0  0
  2  8  1  0  0  0  0
  2 30  1  0  0  0  0
  3 20  1  0  0  0  0
  3 24  1  0  0  0  0
  4 21  1  0  0  0  0
  4 32  1  0  0  0  0
  4 33  1  0  0  0  0
  5  7  1  0  0  0  0
  5 23  2  0  0  0  0
  6 23  1  0  0  0  0
  6 25  1  0  0  0  0
  6 34  1  0  0  0  0
  7 11  1  0  0  0  0
  7 22  1  0  0  0  0
  8 35  1  0  0  0  0
  8 36  1  0  0  0  0
  8 37  1  0  0  0  0
  9 26  1  0  0  0  0
  9 38  1  0  0  0  0
  9 39  1  0  0  0  0
  9 40  1  0  0  0  0
 10 27  1  0  0  0  0
 10 41  1  0  0  0  0
 10 42  1  0  0  0  0
 10 43  1  0  0  0  0
 11 14  2  0  0  0  0
 11 44  1  0  0  0  0
 12 13  2  0  0  0  0
 12 15  1  0  0  0  0
 12 45  1  0  0  0  0
 13 16  1  0  0  0  0
 13 46  1  0  0  0  0
 14 23  1  0  0  0  0
 14 47  1  0  0  0  0
 15 26  2  0  0  0  0
 15 48  1  0  0  0  0
 16 28  2  0  0  0  0
 16 49  1  0  0  0  0
 17 24  2  0  0  0  0
 17 27  1  0  0  0  0
 17 50  1  0  0  0  0
 18 25  2  0  0  0  0
 18 29  1  0  0  0  0
 18 51  1  0  0  0  0
 19 30  1  0  0  0  0
 19 52  1  0  0  0  0
 19 53  1  0  0  0  0
 20 21  1  0  0  0  0
 20 54  1  0  0  0  0
 20 55  1  0  0  0  0
 21 56  1  0  0  0  0
 21 57  1  0  0  0  0
 22 30  1  0  0  0  0
 22 58  1  0  0  0  0
 22 59  1  0  0  0  0
 24 25  1  0  0  0  0
 26 28  1  0  0  0  0
 27 29  2  0  0  0  0
 28 29  1  0  0  0  0
 30 60  1  0  0  0  0
M  END
> <pdb_id>
5JAU

> <uniprot_id>
Q13093

> <usmiles>
O(c1c(NC2=NN(C=C2)C[C@H](OC)CO)cc(c3c(cccc3)C)c(c1)C)CCN

$$$$
6HV_A_504
          07202413213D 1   1.00000     0.00000     0
            
 36 38  0  0  0  0            999 V2000
   12.6892   -7.0538   28.2608 S   0  0  0  0  0  0  0  0  0  0  0  0
   15.6455   -7.3010   28.0209 O   0  0  0  0  0  0  0  0  0  0  0  0
   13.4164   -6.4972   30.6552 N   0  0  0  0  0  0  0  0  0  0  0  0
   18.3702   -2.2091   30.8751 C   0  0  0  0  0  0  0  0  0  0  0  0
   19.6028   -5.1218   32.6440 C   0  0  0  0  0  0  0  0  0  0  0  0
   11.4961   -6.8005   29.4344 C   0  0  0  0  0  0  0  0  0  0  0  0
   12.0339   -6.5179   30.6276 C   0  0  0  0  0  0  0  0  0  0  0  0
   16.4892   -1.3106   34.0315 C   0  0  0  0  0  0  0  0  0  0  0  0
   15.9732   -2.5232   34.4166 C   0  0  0  0  0  0  0  0  0  0  0  0
   17.2540   -1.2130   32.8886 C   0  0  0  0  0  0  0  0  0  0  0  0
   18.6230   -6.6404   30.9208 C   0  0  0  0  0  0  0  0  0  0  0  0
   16.2120   -3.6542   33.6608 C   0  0  0  0  0  0  0  0  0  0  0  0
   17.6032   -7.0535   30.0810 C   0  0  0  0  0  0  0  0  0  0  0  0
   16.2380   -5.2374   30.8372 C   0  0  0  0  0  0  0  0  0  0  0  0
   13.8845   -6.7587   29.4579 C   0  0  0  0  0  0  0  0  0  0  0  0
   15.3235   -6.8305   29.1061 C   0  0  0  0  0  0  0  0  0  0  0  0
   17.5263   -2.3409   32.1170 C   0  0  0  0  0  0  0  0  0  0  0  0
   18.4637   -5.5253   31.7418 C   0  0  0  0  0  0  0  0  0  0  0  0
   16.3974   -6.3584   30.0345 C   0  0  0  0  0  0  0  0  0  0  0  0
   16.9963   -3.5833   32.5096 C   0  0  0  0  0  0  0  0  0  0  0  0
   17.2481   -4.8150   31.7008 C   0  0  0  0  0  0  0  0  0  0  0  0
   18.5737   -1.2674   30.7176 H   0  0  0  0  0  0  0  0  0  0  0  0
   19.2018   -2.7054   30.9926 H   0  0  0  0  0  0  0  0  0  0  0  0
   17.8829   -2.5689   30.1091 H   0  0  0  0  0  0  0  0  0  0  0  0
   20.1752   -4.4816   32.1805 H   0  0  0  0  0  0  0  0  0  0  0  0
   19.2472   -4.7118   33.4572 H   0  0  0  0  0  0  0  0  0  0  0  0
   20.1265   -5.9119   32.8813 H   0  0  0  0  0  0  0  0  0  0  0  0
   10.5708   -6.8522   29.2566 H   0  0  0  0  0  0  0  0  0  0  0  0
   11.5273   -6.3487   31.3942 H   0  0  0  0  0  0  0  0  0  0  0  0
   16.3166   -0.5421   34.5476 H   0  0  0  0  0  0  0  0  0  0  0  0
   15.4437   -2.5823   35.1962 H   0  0  0  0  0  0  0  0  0  0  0  0
   17.6105   -0.3767   32.6333 H   0  0  0  0  0  0  0  0  0  0  0  0
   19.4265   -7.1276   30.9519 H   0  0  0  0  0  0  0  0  0  0  0  0
   15.8562   -4.4858   33.9349 H   0  0  0  0  0  0  0  0  0  0  0  0
   17.7248   -7.8174   29.5409 H   0  0  0  0  0  0  0  0  0  0  0  0
   15.4321   -4.7556   30.8035 H   0  0  0  0  0  0  0  0  0  0  0  0
  1  6  1  0  0  0  0
  1 15  1  0  0  0  0
  2 16  2  0  0  0  0
  3  7  1  0  0  0  0
  3 15  2  0  0  0  0
  4 17  1  0  0  0  0
  4 22  1  0  0  0  0
  4 23  1  0  0  0  0
  4 24  1  0  0  0  0
  5 18  1  0  0  0  0
  5 25  1  0  0  0  0
  5 26  1  0  0  0  0
  5 27  1  0  0  0  0
  6  7  2  0  0  0  0
  6 28  1  0  0  0  0
  7 29  1  0  0  0  0
  8  9  2  0  0  0  0
  8 10  1  0  0  0  0
  8 30  1  0  0  0  0
  9 12  1  0  0  0  0
  9 31  1  0  0  0  0
 10 17  2  0  0  0  0
 10 32  1  0  0  0  0
 11 13  1  0  0  0  0
 11 18  2  0  0  0  0
 11 33  1  0  0  0  0
 12 20  2  0  0  0  0
 12 34  1  0  0  0  0
 13 19  2  0  0  0  0
 13 35  1  0  0  0  0
 14 19  1  0  0  0  0
 14 21  2  0  0  0  0
 14 36  1  0  0  0  0
 15 16  1  0  0  0  0
 16 19  1  0  0  0  0
 17 20  1  0  0  0  0
 18 21  1  0  0  0  0
 20 21  1  0  0  0  0
M  END
> <pdb_id>
5JAR

> <uniprot_id>
Q13093

> <usmiles>
S1C(=NC=C1)C(=O)c2cc(c3c(cccc3)C)c(cc2)C

$$$$
6HW_A_504
          07202413213D 1   1.00000     0.00000     0
            
 36 38  0  0  0  0            999 V2000
   13.6944   -6.5070   30.9702 S   0  0  0  0  0  0  0  0  0  0  0  0
   13.6536   -6.8035   28.4131 N   0  0  0  0  0  0  0  0  0  0  0  0
   15.8177   -6.6588   29.2572 N   0  0  0  0  0  0  0  0  0  0  0  0
   18.7366   -1.9858   30.8936 C   0  0  0  0  0  0  0  0  0  0  0  0
   19.9486   -4.9832   32.8260 C   0  0  0  0  0  0  0  0  0  0  0  0
   12.1954   -6.6382   30.1559 C   0  0  0  0  0  0  0  0  0  0  0  0
   12.3363   -6.7878   28.8317 C   0  0  0  0  0  0  0  0  0  0  0  0
   16.6154   -1.1240   33.8892 C   0  0  0  0  0  0  0  0  0  0  0  0
   16.1529   -2.3519   34.2857 C   0  0  0  0  0  0  0  0  0  0  0  0
   18.0254   -7.0070   30.2668 C   0  0  0  0  0  0  0  0  0  0  0  0
   17.4429   -1.0147   32.7937 C   0  0  0  0  0  0  0  0  0  0  0  0
   16.4978   -3.4836   33.5819 C   0  0  0  0  0  0  0  0  0  0  0  0
   19.0176   -6.5756   31.1335 C   0  0  0  0  0  0  0  0  0  0  0  0
   16.6918   -5.1199   30.8808 C   0  0  0  0  0  0  0  0  0  0  0  0
   14.4714   -6.6685   29.4256 C   0  0  0  0  0  0  0  0  0  0  0  0
   16.8441   -6.2870   30.1460 C   0  0  0  0  0  0  0  0  0  0  0  0
   17.8293   -2.1467   32.0806 C   0  0  0  0  0  0  0  0  0  0  0  0
   18.8572   -5.4114   31.8821 C   0  0  0  0  0  0  0  0  0  0  0  0
   17.3532   -3.4063   32.4843 C   0  0  0  0  0  0  0  0  0  0  0  0
   17.6701   -4.6686   31.7454 C   0  0  0  0  0  0  0  0  0  0  0  0
   16.1004   -7.0987   28.5475 H   0  0  0  0  0  0  0  0  0  0  0  0
   19.3613   -2.7297   30.8579 H   0  0  0  0  0  0  0  0  0  0  0  0
   18.2038   -1.9697   30.0761 H   0  0  0  0  0  0  0  0  0  0  0  0
   19.2340   -1.1500   30.9740 H   0  0  0  0  0  0  0  0  0  0  0  0
   20.1629   -4.0415   32.6731 H   0  0  0  0  0  0  0  0  0  0  0  0
   19.6463   -5.1015   33.7489 H   0  0  0  0  0  0  0  0  0  0  0  0
   20.7456   -5.5270   32.6729 H   0  0  0  0  0  0  0  0  0  0  0  0
   11.3649   -6.6042   30.6026 H   0  0  0  0  0  0  0  0  0  0  0  0
   11.6147   -6.8738   28.2299 H   0  0  0  0  0  0  0  0  0  0  0  0
   16.3749   -0.3526   34.3764 H   0  0  0  0  0  0  0  0  0  0  0  0
   15.5805   -2.4190   35.0321 H   0  0  0  0  0  0  0  0  0  0  0  0
   18.1480   -7.7988   29.7659 H   0  0  0  0  0  0  0  0  0  0  0  0
   17.7706   -0.1665   32.5383 H   0  0  0  0  0  0  0  0  0  0  0  0
   16.1677   -4.3252   33.8583 H   0  0  0  0  0  0  0  0  0  0  0  0
   19.8079   -7.0781   31.2228 H   0  0  0  0  0  0  0  0  0  0  0  0
   15.8997   -4.6202   30.7875 H   0  0  0  0  0  0  0  0  0  0  0  0
  1  6  1  0  0  0  0
  1 15  1  0  0  0  0
  2  7  1  0  0  0  0
  2 15  2  0  0  0  0
  3 15  1  0  0  0  0
  3 16  1  0  0  0  0
  3 21  1  0  0  0  0
  4 17  1  0  0  0  0
  4 22  1  0  0  0  0
  4 23  1  0  0  0  0
  4 24  1  0  0  0  0
  5 18  1  0  0  0  0
  5 25  1  0  0  0  0
  5 26  1  0  0  0  0
  5 27  1  0  0  0  0
  6  7  2  0  0  0  0
  6 28  1  0  0  0  0
  7 29  1  0  0  0  0
  8  9  2  0  0  0  0
  8 11  1  0  0  0  0
  8 30  1  0  0  0  0
  9 12  1  0  0  0  0
  9 31  1  0  0  0  0
 10 13  2  0  0  0  0
 10 16  1  0  0  0  0
 10 32  1  0  0  0  0
 11 17  2  0  0  0  0
 11 33  1  0  0  0  0
 12 19  2  0  0  0  0
 12 34  1  0  0  0  0
 13 18  1  0  0  0  0
 13 35  1  0  0  0  0
 14 16  2  0  0  0  0
 14 20  1  0  0  0  0
 14 36  1  0  0  0  0
 17 19  1  0  0  0  0
 18 20  2  0  0  0  0
 19 20  1  0  0  0  0
M  END
> <pdb_id>
5JAS

> <uniprot_id>
Q13093

> <usmiles>
S1C(=NC=C1)Nc2cc(c3c(cccc3)C)c(cc2)C

$$$$
6I4_A_507
          07202406103D 1   1.00000     0.00000     0
            
 31 34  0  0  0  0            999 V2000
  -63.0554   10.3568   10.8791 N   0  0  0  0  0  0  0  0  0  0  0  0
  -60.6768   10.4759   10.8345 N   0  0  0  0  0  0  0  0  0  0  0  0
  -65.4747   10.3121   10.7457 C   0  0  0  0  0  0  0  0  0  0  0  0
  -58.1001   11.7497    7.9042 C   0  0  0  0  0  0  0  0  0  0  0  0
  -64.0933   11.1353    8.8221 C   0  0  0  0  0  0  0  0  0  0  0  0
  -57.5096   11.3057    9.0816 C   0  0  0  0  0  0  0  0  0  0  0  0
  -59.4862   11.7513    7.7506 C   0  0  0  0  0  0  0  0  0  0  0  0
  -56.2483   10.3739   11.7811 C   0  0  0  0  0  0  0  0  0  0  0  0
  -56.9297    9.0651   11.5353 C   0  0  0  0  0  0  0  0  0  0  0  0
  -62.8570   11.4197    8.2339 C   0  0  0  0  0  0  0  0  0  0  0  0
  -61.8982   10.6515   10.2666 C   0  0  0  0  0  0  0  0  0  0  0  0
  -64.1437   10.6167   10.1192 C   0  0  0  0  0  0  0  0  0  0  0  0
  -59.6687   10.8584    9.9807 C   0  0  0  0  0  0  0  0  0  0  0  0
  -57.7293   10.3444   11.4744 C   0  0  0  0  0  0  0  0  0  0  0  0
  -61.7057   11.1660    8.9931 C   0  0  0  0  0  0  0  0  0  0  0  0
  -58.2761   10.8433   10.1692 C   0  0  0  0  0  0  0  0  0  0  0  0
  -60.2948   11.2958    8.8111 C   0  0  0  0  0  0  0  0  0  0  0  0
  -60.5295   10.1147   11.7553 H   0  0  0  0  0  0  0  0  0  0  0  0
  -66.2058   10.5398   10.1025 H   0  0  0  0  0  0  0  0  0  0  0  0
  -65.5215    9.3394   10.9728 H   0  0  0  0  0  0  0  0  0  0  0  0
  -65.5829   10.8545   11.5788 H   0  0  0  0  0  0  0  0  0  0  0  0
  -57.5217   12.0732    7.1554 H   0  0  0  0  0  0  0  0  0  0  0  0
  -64.9395   11.3026    8.3161 H   0  0  0  0  0  0  0  0  0  0  0  0
  -56.5126   11.3147    9.1587 H   0  0  0  0  0  0  0  0  0  0  0  0
  -59.9010   12.0716    6.8989 H   0  0  0  0  0  0  0  0  0  0  0  0
  -55.6058   10.7369   11.1063 H   0  0  0  0  0  0  0  0  0  0  0  0
  -55.9334   10.6080   12.7009 H   0  0  0  0  0  0  0  0  0  0  0  0
  -57.0687    8.4253   12.2912 H   0  0  0  0  0  0  0  0  0  0  0  0
  -56.7411    8.5542   10.6966 H   0  0  0  0  0  0  0  0  0  0  0  0
  -62.7962   11.7900    7.3069 H   0  0  0  0  0  0  0  0  0  0  0  0
  -58.3223   10.5040   12.2637 H   0  0  0  0  0  0  0  0  0  0  0  0
  1 11  2  0  0  0  0
  1 12  1  0  0  0  0
  2 11  1  0  0  0  0
  2 13  1  0  0  0  0
  3 12  1  0  0  0  0
  4  6  2  0  0  0  0
  4  7  1  0  0  0  0
  5 10  1  0  0  0  0
  5 12  2  0  0  0  0
  6 16  1  0  0  0  0
  7 17  2  0  0  0  0
  8  9  1  0  0  0  0
  8 14  1  0  0  0  0
  9 14  1  0  0  0  0
 10 15  2  0  0  0  0
 11 15  1  0  0  0  0
 13 16  2  0  0  0  0
 13 17  1  0  0  0  0
 14 16  1  0  0  0  0
 15 17  1  0  0  0  0
  2 18  1  0  0  0  0
  3 19  1  0  0  0  0
  3 20  1  0  0  0  0
  3 21  1  0  0  0  0
  4 22  1  0  0  0  0
  5 23  1  0  0  0  0
  6 24  1  0  0  0  0
  7 25  1  0  0  0  0
  8 26  1  0  0  0  0
  8 27  1  0  0  0  0
  9 28  1  0  0  0  0
  9 29  1  0  0  0  0
 10 30  1  0  0  0  0
 14 31  1  0  0  0  0
M  END
> <pdb_id>
7VBU

> <uniprot_id>
Q15119

> <usmiles>
n1c2Nc3c(c2ccc1C)cccc3C4CC4

$$$$
6J7_A_401
          07202406163D 1   1.00000     0.00000     0
            
 35 38  0  0  0  0            999 V2000
   -6.0540   -4.6080  -10.9160 Br  0  0  0  0  0  0  0  0  0  0  0  0
   -9.7640   -1.8210  -17.4290 P   0  0  0  0  0  0  0  0  0  0  0  0
   -9.8290   -3.0130  -18.3440 O   0  0  0  0  0  0  0  0  0  0  0  0
   -9.9580   -0.4540  -18.0130 O   0  0  0  0  0  0  0  0  0  0  0  0
   -5.1750   -9.4140  -14.1120 O   0  0  0  0  0  0  0  0  0  0  0  0
   -6.6410   -1.7660  -14.4240 O   0  0  0  0  0  0  0  0  0  0  0  0
  -10.8480   -2.0430  -16.2810 O   0  0  0  0  0  0  0  0  0  0  0  0
   -8.3330   -1.8550  -16.6840 O   0  0  0  0  0  0  0  0  0  0  0  0
   -8.9450   -4.0570  -13.8630 O   0  0  0  0  0  0  0  0  0  0  0  0
   -7.4010   -7.5810  -17.6610 N   0  0  0  0  0  0  0  0  0  0  0  0
   -5.7130   -6.8890  -12.5750 N   0  0  0  0  0  0  0  0  0  0  0  0
   -7.2130   -6.2960  -15.7390 N   0  0  0  0  0  0  0  0  0  0  0  0
   -6.2770   -8.4870  -15.8600 N   0  0  0  0  0  0  0  0  0  0  0  0
   -6.8660   -5.1900  -13.5860 N   0  0  0  0  0  0  0  0  0  0  0  0
  -10.7100   -3.1510  -15.3850 C   0  0  0  0  0  0  0  0  0  0  0  0
   -6.2340   -5.6700  -12.5260 C   0  0  0  0  0  0  0  0  0  0  0  0
   -5.8010   -8.4560  -14.6210 C   0  0  0  0  0  0  0  0  0  0  0  0
   -6.9580   -7.4500  -16.4000 C   0  0  0  0  0  0  0  0  0  0  0  0
   -6.7910   -6.1560  -14.4710 C   0  0  0  0  0  0  0  0  0  0  0  0
   -6.0400   -7.2610  -13.8200 C   0  0  0  0  0  0  0  0  0  0  0  0
   -7.0070   -3.0680  -14.9080 C   0  0  1  0  0  0  0  0  0  0  0  0
   -7.5260   -3.8710  -13.7170 C   0  0  1  0  0  0  0  0  0  0  0  0
   -9.3330   -2.9990  -14.7560 C   0  0  2  0  0  0  0  0  0  0  0  0
   -8.2360   -2.9800  -15.8010 C   0  0  1  0  0  0  0  0  0  0  0  0
   -6.6590   -1.1760  -15.1850 H   0  0  0  0  0  0  0  0  0  0  0  0
   -7.2230   -8.4300  -18.1770 H   0  0  0  0  0  0  0  0  0  0  0  0
   -7.9000   -6.8390  -18.0830 H   0  0  0  0  0  0  0  0  0  0  0  0
   -6.1120   -9.3290  -16.3920 H   0  0  0  0  0  0  0  0  0  0  0  0
  -10.7810   -4.0950  -15.9290 H   0  0  0  0  0  0  0  0  0  0  0  0
  -11.4870   -3.1230  -14.6180 H   0  0  0  0  0  0  0  0  0  0  0  0
   -6.1770   -3.5820  -15.4110 H   0  0  0  0  0  0  0  0  0  0  0  0
   -7.3450   -3.2690  -12.8200 H   0  0  0  0  0  0  0  0  0  0  0  0
   -9.3080   -2.0410  -14.2170 H   0  0  0  0  0  0  0  0  0  0  0  0
   -8.2910   -3.9080  -16.3930 H   0  0  0  0  0  0  0  0  0  0  0  0
   -9.6820   -3.8483  -17.8142 H   0  0  0  0  0  0  0  0  0  0  0  0
  1 16  1  0  0  0  0
  2  3  1  0  0  0  0
  2  4  2  0  0  0  0
  2  7  1  0  0  0  0
  2  8  1  0  0  0  0
  5 17  2  0  0  0  0
  6 21  1  0  0  0  0
  6 25  1  0  0  0  0
  7 15  1  0  0  0  0
  8 24  1  0  0  0  0
  9 22  1  0  0  0  0
  9 23  1  0  0  0  0
 10 18  1  0  0  0  0
 10 26  1  0  0  0  0
 10 27  1  0  0  0  0
 11 16  2  0  0  0  0
 11 20  1  0  0  0  0
 12 18  2  0  0  0  0
 12 19  1  0  0  0  0
 13 17  1  0  0  0  0
 13 18  1  0  0  0  0
 13 28  1  0  0  0  0
 14 16  1  0  0  0  0
 14 19  1  0  0  0  0
 14 22  1  0  0  0  0
 15 23  1  0  0  0  0
 15 29  1  0  0  0  0
 15 30  1  0  0  0  0
 17 20  1  0  0  0  0
 19 20  2  0  0  0  0
 21 22  1  0  0  0  0
 21 24  1  0  0  0  0
 21 31  1  0  0  0  0
 22 32  1  0  0  0  0
 23 24  1  0  0  0  0
 23 33  1  0  0  0  0
 24 34  1  0  0  0  0
  3 35  1  0  0  0  0
M  END
> <pdb_id>
5JAX

> <uniprot_id>
Q13976

> <usmiles>
BrC1=NC=2C(=O)NC(=NC2N1[C@@H]3O[C@H]4[C@@H](OP(=O)(OC4)O)[C@H]3O)N

$$$$
6J8_A_501
          07202406173D 1   1.00000     0.00000     0
            
 47 47  0  0  0  0            999 V2000
   -0.8190   16.1910   21.6194 P   0  0  0  0  0  0  0  0  0  0  0  0
   -2.2086   16.1469   22.2057 O   0  0  0  0  0  0  0  0  0  0  0  0
    0.0278   17.1561   22.4012 O   0  0  0  0  0  0  0  0  0  0  0  0
   -0.9001   16.6269   20.1951 O   0  0  0  0  0  0  0  0  0  0  0  0
    5.0679   14.2532   18.6997 O   0  0  0  0  0  0  0  0  0  0  0  0
    3.8745   15.1589   20.9238 O   0  0  0  0  0  0  0  0  0  0  0  0
    3.2067   10.2111   14.6635 O   0  0  0  0  0  0  0  0  0  0  0  0
    3.9432   13.6307   19.2678 N   0  0  0  0  0  0  0  0  0  0  0  0
    3.7813   11.1658   13.7462 C   0  0  0  0  0  0  0  0  0  0  0  0
    3.3918   12.4071   18.6215 C   0  0  0  0  0  0  0  0  0  0  0  0
   -0.0918   14.5287   21.7186 C   0  0  0  0  0  0  0  0  0  0  0  0
   -0.2530   12.2097   19.6566 C   0  0  0  0  0  0  0  0  0  0  0  0
    2.0189    9.8044   16.7005 C   0  0  0  0  0  0  0  0  0  0  0  0
    1.3909   11.6823   15.3276 C   0  0  0  0  0  0  0  0  0  0  0  0
    0.2241   13.6508   19.3504 C   0  0  0  0  0  0  0  0  0  0  0  0
   -0.8712   11.5885   18.3832 C   0  0  0  0  0  0  0  0  0  0  0  0
    1.0269   10.1390   17.6066 C   0  0  0  0  0  0  0  0  0  0  0  0
    0.3959   12.0089   16.2378 C   0  0  0  0  0  0  0  0  0  0  0  0
    2.1494   13.5462   21.0452 C   0  0  0  0  0  0  0  0  0  0  0  0
    3.3977   14.1549   20.4116 C   0  0  0  0  0  0  0  0  0  0  0  0
    2.2198   10.5756   15.5663 C   0  0  0  0  0  0  0  0  0  0  0  0
    0.9059   14.3382   20.5708 C   0  0  2  0  0  0  0  0  0  0  0  0
    0.2158   11.2328   17.3814 C   0  0  0  0  0  0  0  0  0  0  0  0
   -2.7701   15.5044   21.6842 H   0  0  0  0  0  0  0  0  0  0  0  0
    0.9481   17.1838   22.0111 H   0  0  0  0  0  0  0  0  0  0  0  0
    5.3440   13.7561   17.8771 H   0  0  0  0  0  0  0  0  0  0  0  0
    4.4711   10.7122   13.1818 H   0  0  0  0  0  0  0  0  0  0  0  0
    3.0626   11.5381   13.1590 H   0  0  0  0  0  0  0  0  0  0  0  0
    4.2084   11.9084   14.2620 H   0  0  0  0  0  0  0  0  0  0  0  0
    2.5993   12.0849   19.1392 H   0  0  0  0  0  0  0  0  0  0  0  0
    3.1136   12.6213   17.6851 H   0  0  0  0  0  0  0  0  0  0  0  0
    4.0924   11.6937   18.6061 H   0  0  0  0  0  0  0  0  0  0  0  0
   -0.8163   13.8431   21.6477 H   0  0  0  0  0  0  0  0  0  0  0  0
    0.3820   14.4238   22.5930 H   0  0  0  0  0  0  0  0  0  0  0  0
   -0.9400   12.2334   20.3829 H   0  0  0  0  0  0  0  0  0  0  0  0
    0.5260   11.6567   19.9526 H   0  0  0  0  0  0  0  0  0  0  0  0
    2.5932    9.0025   16.8651 H   0  0  0  0  0  0  0  0  0  0  0  0
    1.5169   12.2344   14.5034 H   0  0  0  0  0  0  0  0  0  0  0  0
   -0.5677   14.1975   19.0780 H   0  0  0  0  0  0  0  0  0  0  0  0
    0.8803   13.6159   18.5967 H   0  0  0  0  0  0  0  0  0  0  0  0
   -1.4988   12.2468   17.9675 H   0  0  0  0  0  0  0  0  0  0  0  0
   -1.3733   10.7602   18.6316 H   0  0  0  0  0  0  0  0  0  0  0  0
    0.8974    9.5849   18.4290 H   0  0  0  0  0  0  0  0  0  0  0  0
   -0.1920   12.8010   16.0733 H   0  0  0  0  0  0  0  0  0  0  0  0
    2.2198   13.5979   22.0414 H   0  0  0  0  0  0  0  0  0  0  0  0
    2.0642   12.5897   20.7663 H   0  0  0  0  0  0  0  0  0  0  0  0
    1.2132   15.2441   20.2793 H   0  0  0  0  0  0  0  0  0  0  0  0
  1  2  1  0  0  0  0
  1  3  1  0  0  0  0
  1  4  2  0  0  0  0
  1 11  1  0  0  0  0
  5  8  1  0  0  0  0
  6 20  2  0  0  0  0
  7  9  1  0  0  0  0
  7 21  1  0  0  0  0
  8 10  1  0  0  0  0
  8 20  1  0  0  0  0
 11 22  1  0  0  0  0
 12 15  1  0  0  0  0
 12 16  1  0  0  0  0
 13 17  2  0  0  0  0
 13 21  1  0  0  0  0
 14 18  1  0  0  0  0
 14 21  2  0  0  0  0
 15 22  1  0  0  0  0
 16 23  1  0  0  0  0
 17 23  1  0  0  0  0
 18 23  2  0  0  0  0
 19 20  1  0  0  0  0
 19 22  1  0  0  0  0
  2 24  1  0  0  0  0
  3 25  1  0  0  0  0
  5 26  1  0  0  0  0
  9 27  1  0  0  0  0
  9 28  1  0  0  0  0
  9 29  1  0  0  0  0
 10 30  1  0  0  0  0
 10 31  1  0  0  0  0
 10 32  1  0  0  0  0
 11 33  1  0  0  0  0
 11 34  1  0  0  0  0
 12 35  1  0  0  0  0
 12 36  1  0  0  0  0
 13 37  1  0  0  0  0
 14 38  1  0  0  0  0
 15 39  1  0  0  0  0
 15 40  1  0  0  0  0
 16 41  1  0  0  0  0
 16 42  1  0  0  0  0
 17 43  1  0  0  0  0
 18 44  1  0  0  0  0
 19 45  1  0  0  0  0
 19 46  1  0  0  0  0
 22 47  1  0  0  0  0
M  END
> <pdb_id>
5JBI

> <uniprot_id>
Q8IKG4

> <usmiles>
P(=O)(O)(O)C[C@@H](CC(=O)N(O)C)CCCc1ccc(OC)cc1

$$$$
6JB_B_502
          07202406173D 1   1.00000     0.00000     0
            
 47 47  0  0  0  0            999 V2000
   -0.8886   16.1941   21.5535 P   0  0  0  0  0  0  0  0  0  0  0  0
   -0.9880   16.7530   20.1717 O   0  0  0  0  0  0  0  0  0  0  0  0
   -0.0157   17.0385   22.4244 O   0  0  0  0  0  0  0  0  0  0  0  0
   -2.2706   16.1106   22.1372 O   0  0  0  0  0  0  0  0  0  0  0  0
    5.0192   14.2223   18.6886 O   0  0  0  0  0  0  0  0  0  0  0  0
    3.7608   15.1748   20.8102 O   0  0  0  0  0  0  0  0  0  0  0  0
    2.8626    8.5549   17.0893 O   0  0  0  0  0  0  0  0  0  0  0  0
    3.9124   13.5821   19.2511 N   0  0  0  0  0  0  0  0  0  0  0  0
    2.3132    7.6338   18.0604 C   0  0  0  0  0  0  0  0  0  0  0  0
    3.4730   12.3166   18.6213 C   0  0  0  0  0  0  0  0  0  0  0  0
   -0.2347   14.4961   21.4987 C   0  0  0  0  0  0  0  0  0  0  0  0
    2.0848   11.5298   15.1719 C   0  0  0  0  0  0  0  0  0  0  0  0
   -0.2721   12.3709   19.1747 C   0  0  0  0  0  0  0  0  0  0  0  0
    2.7002   10.3688   15.5960 C   0  0  0  0  0  0  0  0  0  0  0  0
    0.3523   13.7843   19.0906 C   0  0  0  0  0  0  0  0  0  0  0  0
    0.9894   12.0243   15.8718 C   0  0  0  0  0  0  0  0  0  0  0  0
   -0.6755   11.8767   17.7746 C   0  0  0  0  0  0  0  0  0  0  0  0
    2.0916   13.5750   20.9972 C   0  0  0  0  0  0  0  0  0  0  0  0
    1.1295   10.1925   17.4035 C   0  0  0  0  0  0  0  0  0  0  0  0
    3.3300   14.1345   20.3369 C   0  0  0  0  0  0  0  0  0  0  0  0
    2.2281    9.6968   16.7038 C   0  0  0  0  0  0  0  0  0  0  0  0
    0.8757   14.3648   20.4414 C   0  0  2  0  0  0  0  0  0  0  0  0
    0.5179   11.3521   16.9968 C   0  0  0  0  0  0  0  0  0  0  0  0
   -1.5773   16.1663   19.6164 H   0  0  0  0  0  0  0  0  0  0  0  0
    0.0295   16.6378   23.3395 H   0  0  0  0  0  0  0  0  0  0  0  0
    5.3397   13.7006   17.8979 H   0  0  0  0  0  0  0  0  0  0  0  0
    2.9450    6.8695   18.1896 H   0  0  0  0  0  0  0  0  0  0  0  0
    2.1805    8.1073   18.9311 H   0  0  0  0  0  0  0  0  0  0  0  0
    1.4344    7.2879   17.7318 H   0  0  0  0  0  0  0  0  0  0  0  0
    2.6781   11.9588   19.1114 H   0  0  0  0  0  0  0  0  0  0  0  0
    3.2273   12.4869   17.6670 H   0  0  0  0  0  0  0  0  0  0  0  0
    4.2167   11.6492   18.6600 H   0  0  0  0  0  0  0  0  0  0  0  0
   -0.9781   13.8669   21.2717 H   0  0  0  0  0  0  0  0  0  0  0  0
    0.1389   14.2608   22.3959 H   0  0  0  0  0  0  0  0  0  0  0  0
    2.4251   12.0128   14.3651 H   0  0  0  0  0  0  0  0  0  0  0  0
   -1.0832   12.4035   19.7586 H   0  0  0  0  0  0  0  0  0  0  0  0
    0.3960   11.7386   19.5671 H   0  0  0  0  0  0  0  0  0  0  0  0
    3.4914   10.0139   15.0980 H   0  0  0  0  0  0  0  0  0  0  0  0
   -0.3434   14.4085   18.7352 H   0  0  0  0  0  0  0  0  0  0  0  0
    1.1216   13.7446   18.4529 H   0  0  0  0  0  0  0  0  0  0  0  0
    0.5397   12.8638   15.5669 H   0  0  0  0  0  0  0  0  0  0  0  0
   -1.0834   12.6364   17.2682 H   0  0  0  0  0  0  0  0  0  0  0  0
   -1.3470   11.1420   17.8716 H   0  0  0  0  0  0  0  0  0  0  0  0
    2.1506   13.6906   21.9888 H   0  0  0  0  0  0  0  0  0  0  0  0
    1.9971   12.6035   20.7799 H   0  0  0  0  0  0  0  0  0  0  0  0
    0.7857    9.7019   18.2042 H   0  0  0  0  0  0  0  0  0  0  0  0
    1.1993   15.2913   20.2490 H   0  0  0  0  0  0  0  0  0  0  0  0
  1  2  1  0  0  0  0
  1  3  1  0  0  0  0
  1  4  2  0  0  0  0
  1 11  1  0  0  0  0
  5  8  1  0  0  0  0
  6 20  2  0  0  0  0
  7  9  1  0  0  0  0
  7 21  1  0  0  0  0
  8 10  1  0  0  0  0
  8 20  1  0  0  0  0
 11 22  1  0  0  0  0
 12 14  2  0  0  0  0
 12 16  1  0  0  0  0
 13 15  1  0  0  0  0
 13 17  1  0  0  0  0
 14 21  1  0  0  0  0
 15 22  1  0  0  0  0
 16 23  2  0  0  0  0
 17 23  1  0  0  0  0
 18 20  1  0  0  0  0
 18 22  1  0  0  0  0
 19 21  2  0  0  0  0
 19 23  1  0  0  0  0
  2 24  1  0  0  0  0
  3 25  1  0  0  0  0
  5 26  1  0  0  0  0
  9 27  1  0  0  0  0
  9 28  1  0  0  0  0
  9 29  1  0  0  0  0
 10 30  1  0  0  0  0
 10 31  1  0  0  0  0
 10 32  1  0  0  0  0
 11 33  1  0  0  0  0
 11 34  1  0  0  0  0
 12 35  1  0  0  0  0
 13 36  1  0  0  0  0
 13 37  1  0  0  0  0
 14 38  1  0  0  0  0
 15 39  1  0  0  0  0
 15 40  1  0  0  0  0
 16 41  1  0  0  0  0
 17 42  1  0  0  0  0
 17 43  1  0  0  0  0
 18 44  1  0  0  0  0
 18 45  1  0  0  0  0
 19 46  1  0  0  0  0
 22 47  1  0  0  0  0
M  END
> <pdb_id>
5JC1

> <uniprot_id>
Q8IKG4

> <usmiles>
P(=O)(O)(O)C[C@@H](CC(=O)N(O)C)CCCc1cc(OC)ccc1

$$$$
6JY_B_501
          07202406273D 1   1.00000     0.00000     0
            
 38 38  0  0  0  0            999 V2000
   47.4090  -34.2480   27.5230 O   0  0  0  0  0  0  0  0  0  0  0  0
   48.2450  -32.2780   28.3760 O   0  0  0  0  0  0  0  0  0  0  0  0
   49.6500  -33.9460   24.0500 O   0  0  0  0  0  0  0  0  0  0  0  0
   52.3970  -39.1480   29.0040 N   0  0  0  0  0  0  0  0  0  0  0  0
   52.8120  -38.3080   26.8910 N   0  0  0  0  0  0  0  0  0  0  0  0
   51.6330  -37.0770   28.4430 N   0  0  0  0  0  0  0  0  0  0  0  0
   49.5500  -32.4350   25.7250 N   0  0  0  0  0  0  0  0  0  0  0  0
   51.4250  -35.8970   27.6080 C   0  0  0  0  0  0  0  0  0  0  0  0
   50.1960  -29.6780   21.4540 C   0  0  0  0  0  0  0  0  0  0  0  0
   51.0260  -34.7200   28.4570 C   0  0  0  0  0  0  0  0  0  0  0  0
   50.4800  -30.9900   21.1640 C   0  0  0  0  0  0  0  0  0  0  0  0
   49.7010  -29.3400   22.6950 C   0  0  0  0  0  0  0  0  0  0  0  0
   50.8180  -33.4580   27.6040 C   0  0  0  0  0  0  0  0  0  0  0  0
   50.2950  -31.9810   22.1360 C   0  0  0  0  0  0  0  0  0  0  0  0
   49.5130  -30.3130   23.6730 C   0  0  0  0  0  0  0  0  0  0  0  0
   48.3220  -33.2670   27.6530 C   0  0  0  0  0  0  0  0  0  0  0  0
   52.2890  -38.1920   28.1100 C   0  0  0  0  0  0  0  0  0  0  0  0
   49.6270  -32.7670   24.4160 C   0  0  0  0  0  0  0  0  0  0  0  0
   49.5410  -33.4660   26.7630 C   0  0  1  0  0  0  0  0  0  0  0  0
   49.8060  -31.6470   23.3990 C   0  0  0  0  0  0  0  0  0  0  0  0
   47.5800  -35.0107   26.8992 H   0  0  0  0  0  0  0  0  0  0  0  0
   51.9935  -39.0318   29.9116 H   0  0  0  0  0  0  0  0  0  0  0  0
   52.8827  -39.9922   28.7771 H   0  0  0  0  0  0  0  0  0  0  0  0
   52.7134  -37.5627   26.2316 H   0  0  0  0  0  0  0  0  0  0  0  0
   53.3034  -39.1404   26.6349 H   0  0  0  0  0  0  0  0  0  0  0  0
   49.4985  -31.4713   25.9869 H   0  0  0  0  0  0  0  0  0  0  0  0
   50.7009  -36.0858   26.9446 H   0  0  0  0  0  0  0  0  0  0  0  0
   52.2730  -35.6820   27.1237 H   0  0  0  0  0  0  0  0  0  0  0  0
   50.3482  -28.9688   20.7656 H   0  0  0  0  0  0  0  0  0  0  0  0
   51.7461  -34.5440   29.1282 H   0  0  0  0  0  0  0  0  0  0  0  0
   50.1730  -34.9358   28.9321 H   0  0  0  0  0  0  0  0  0  0  0  0
   50.8196  -31.2382   20.2568 H   0  0  0  0  0  0  0  0  0  0  0  0
   49.4747  -28.3867   22.8950 H   0  0  0  0  0  0  0  0  0  0  0  0
   51.5987  -33.3663   26.9859 H   0  0  0  0  0  0  0  0  0  0  0  0
   50.7836  -32.6686   28.2169 H   0  0  0  0  0  0  0  0  0  0  0  0
   50.5146  -32.9332   21.9235 H   0  0  0  0  0  0  0  0  0  0  0  0
   49.1667  -30.0535   24.5745 H   0  0  0  0  0  0  0  0  0  0  0  0
   49.4631  -34.3584   26.3186 H   0  0  0  0  0  0  0  0  0  0  0  0
  1 16  1  0  0  0  0
  2 16  2  0  0  0  0
  3 18  2  0  0  0  0
  4 17  1  0  0  0  0
  5 17  1  0  0  0  0
  6  8  1  0  0  0  0
  6 17  2  0  0  0  0
  7 18  1  0  0  0  0
  7 19  1  0  0  0  0
  8 10  1  0  0  0  0
  9 11  2  0  0  0  0
  9 12  1  0  0  0  0
 10 13  1  0  0  0  0
 11 14  1  0  0  0  0
 12 15  2  0  0  0  0
 13 19  1  0  0  0  0
 14 20  2  0  0  0  0
 15 20  1  0  0  0  0
 16 19  1  0  0  0  0
 18 20  1  0  0  0  0
  1 21  1  0  0  0  0
  4 22  1  0  0  0  0
  4 23  1  0  0  0  0
  5 24  1  0  0  0  0
  5 25  1  0  0  0  0
  7 26  1  0  0  0  0
  8 27  1  0  0  0  0
  8 28  1  0  0  0  0
  9 29  1  0  0  0  0
 10 30  1  0  0  0  0
 10 31  1  0  0  0  0
 11 32  1  0  0  0  0
 12 33  1  0  0  0  0
 13 34  1  0  0  0  0
 13 35  1  0  0  0  0
 14 36  1  0  0  0  0
 15 37  1  0  0  0  0
 19 38  1  0  0  0  0
M  END
> <pdb_id>
5JGQ

> <uniprot_id>
O14786

> <usmiles>
O=C(O)[C@@H](NC(=O)c1ccccc1)CCCN=C(N)N

$$$$
6K0_A_4000
          07202411103D 1   1.00000     0.00000     0
            
 52 55  0  0  0  0            999 V2000
  -19.2172  -20.2629   -8.8710 F   0  0  0  0  0  0  0  0  0  0  0  0
  -16.1221  -16.7876   -9.7842 F   0  0  0  0  0  0  0  0  0  0  0  0
  -16.2005  -18.5453  -14.0631 O   0  0  0  0  0  0  0  0  0  0  0  0
  -15.1368  -19.9598  -18.2861 O   0  0  0  0  0  0  0  0  0  0  0  0
  -15.2546  -21.5825  -20.4674 N   0  0  0  0  0  0  0  0  0  0  0  0
  -16.2224  -21.1263  -22.6259 N   0  0  0  0  0  0  0  0  0  0  0  0
  -16.8772  -18.9550  -23.2575 N   0  0  0  0  0  0  0  0  0  0  0  0
  -13.6723  -15.9406  -15.7724 N   0  0  0  0  0  0  0  0  0  0  0  0
  -14.4288  -17.2020  -14.0801 N   0  0  0  0  0  0  0  0  0  0  0  0
  -15.2744  -17.9593  -12.0389 N   0  0  0  0  0  0  0  0  0  0  0  0
  -16.4929  -17.2040  -21.5989 N   0  0  0  0  0  0  0  0  0  0  0  0
  -18.5174  -15.8611  -21.9782 C   0  0  0  0  0  0  0  0  0  0  0  0
  -16.1477  -14.8900  -22.5857 C   0  0  0  0  0  0  0  0  0  0  0  0
  -16.7574  -20.2818  -23.5275 C   0  0  0  0  0  0  0  0  0  0  0  0
  -13.6012  -15.6172  -17.0939 C   0  0  0  0  0  0  0  0  0  0  0  0
  -15.9781  -17.1616  -20.3705 C   0  0  0  0  0  0  0  0  0  0  0  0
  -17.8448  -20.4434  -10.8046 C   0  0  0  0  0  0  0  0  0  0  0  0
  -14.0808  -16.4717  -18.0792 C   0  0  0  0  0  0  0  0  0  0  0  0
  -16.8173  -19.8852  -11.6126 C   0  0  0  0  0  0  0  0  0  0  0  0
  -17.6739  -18.5271   -9.2973 C   0  0  0  0  0  0  0  0  0  0  0  0
  -14.5141  -18.0571  -16.4076 C   0  0  0  0  0  0  0  0  0  0  0  0
  -15.2880  -17.9906  -13.3943 C   0  0  0  0  0  0  0  0  0  0  0  0
  -18.2186  -19.7279   -9.6548 C   0  0  0  0  0  0  0  0  0  0  0  0
  -16.6538  -17.9738  -10.1201 C   0  0  0  0  0  0  0  0  0  0  0  0
  -15.7833  -20.7140  -21.4076 C   0  0  0  0  0  0  0  0  0  0  0  0
  -14.2422  -17.0867  -15.4491 C   0  0  0  0  0  0  0  0  0  0  0  0
  -15.0189  -18.7985  -18.6807 C   0  0  0  0  0  0  0  0  0  0  0  0
  -16.4749  -18.4625  -22.0893 C   0  0  0  0  0  0  0  0  0  0  0  0
  -17.0757  -16.1027  -22.4153 C   0  0  0  0  0  0  0  0  0  0  0  0
  -16.2459  -18.6706  -11.2719 C   0  0  0  0  0  0  0  0  0  0  0  0
  -14.5453  -17.7836  -17.7741 C   0  0  0  0  0  0  0  0  0  0  0  0
  -15.4839  -18.4745  -19.9953 C   0  0  0  0  0  0  0  0  0  0  0  0
  -15.8888  -19.3238  -21.1098 C   0  0  0  0  0  0  0  0  0  0  0  0
  -14.9439  -21.2335  -19.5832 H   0  0  0  0  0  0  0  0  0  0  0  0
  -15.1835  -22.5587  -20.6725 H   0  0  0  0  0  0  0  0  0  0  0  0
  -13.8434  -16.6176  -13.5181 H   0  0  0  0  0  0  0  0  0  0  0  0
  -14.5706  -17.4278  -11.5675 H   0  0  0  0  0  0  0  0  0  0  0  0
  -18.9119  -15.1221  -22.5244 H   0  0  0  0  0  0  0  0  0  0  0  0
  -19.0508  -16.6962  -22.1124 H   0  0  0  0  0  0  0  0  0  0  0  0
  -18.5343  -15.6065  -21.0113 H   0  0  0  0  0  0  0  0  0  0  0  0
  -16.6048  -14.1960  -23.1419 H   0  0  0  0  0  0  0  0  0  0  0  0
  -15.9306  -14.5076  -21.6876 H   0  0  0  0  0  0  0  0  0  0  0  0
  -15.3036  -15.1773  -23.0386 H   0  0  0  0  0  0  0  0  0  0  0  0
  -17.0712  -20.6357  -24.4086 H   0  0  0  0  0  0  0  0  0  0  0  0
  -13.1942  -14.7438  -17.3613 H   0  0  0  0  0  0  0  0  0  0  0  0
  -15.9381  -16.3465  -19.7926 H   0  0  0  0  0  0  0  0  0  0  0  0
  -18.2835  -21.3094  -11.0446 H   0  0  0  0  0  0  0  0  0  0  0  0
  -14.1004  -16.1573  -19.0283 H   0  0  0  0  0  0  0  0  0  0  0  0
  -16.5061  -20.3709  -12.4295 H   0  0  0  0  0  0  0  0  0  0  0  0
  -17.9850  -18.0482   -8.4764 H   0  0  0  0  0  0  0  0  0  0  0  0
  -14.6952  -18.9922  -16.1031 H   0  0  0  0  0  0  0  0  0  0  0  0
  -17.1547  -16.4881  -23.3347 H   0  0  0  0  0  0  0  0  0  0  0  0
  1 23  1  0  0  0  0
  2 24  1  0  0  0  0
  3 22  2  0  0  0  0
  4 27  2  0  0  0  0
  5 25  1  0  0  0  0
  6 14  2  0  0  0  0
  6 25  1  0  0  0  0
  7 14  1  0  0  0  0
  7 28  2  0  0  0  0
  8 15  1  0  0  0  0
  8 26  2  0  0  0  0
  9 22  1  0  0  0  0
  9 26  1  0  0  0  0
 10 22  1  0  0  0  0
 10 30  1  0  0  0  0
 11 16  1  0  0  0  0
 11 28  1  0  0  0  0
 11 29  1  0  0  0  0
 12 29  1  0  0  0  0
 13 29  1  0  0  0  0
 15 18  2  0  0  0  0
 16 32  2  0  0  0  0
 17 19  1  0  0  0  0
 17 23  2  0  0  0  0
 18 31  1  0  0  0  0
 19 30  2  0  0  0  0
 20 23  1  0  0  0  0
 20 24  2  0  0  0  0
 21 26  1  0  0  0  0
 21 31  2  0  0  0  0
 24 30  1  0  0  0  0
 25 33  2  0  0  0  0
 27 31  1  0  0  0  0
 27 32  1  0  0  0  0
 28 33  1  0  0  0  0
 32 33  1  0  0  0  0
  5 34  1  0  0  0  0
  5 35  1  0  0  0  0
  9 36  1  0  0  0  0
 10 37  1  0  0  0  0
 12 38  1  0  0  0  0
 12 39  1  0  0  0  0
 12 40  1  0  0  0  0
 13 41  1  0  0  0  0
 13 42  1  0  0  0  0
 13 43  1  0  0  0  0
 14 44  1  0  0  0  0
 15 45  1  0  0  0  0
 16 46  1  0  0  0  0
 17 47  1  0  0  0  0
 18 48  1  0  0  0  0
 19 49  1  0  0  0  0
 20 50  1  0  0  0  0
 21 51  1  0  0  0  0
 29 52  1  0  0  0  0
M  END
> <pdb_id>
5JFS

> <uniprot_id>
P04629

> <usmiles>
Fc1c(NC(=O)Nc2nccc(c2)C(=O)C=3c4c(ncnc4N)N(C3)C(C)C)ccc(F)c1

$$$$
6KP_A_505
          07202416163D 1   1.00000     0.00000     0
            
 34 38  0  0  0  0            999 V2000
   21.8986   33.9955   14.2558 F   0  0  0  0  0  0  0  0  0  0  0  0
   18.2040   28.0122   15.3113 N   0  0  0  0  0  0  0  0  0  0  0  0
   19.3538   28.7861   15.0007 N   0  0  0  0  0  0  0  0  0  0  0  0
   12.1604   33.3918   16.8241 N   0  0  0  0  0  0  0  0  0  0  0  0
   12.8600   33.7564   14.7826 N   0  0  0  0  0  0  0  0  0  0  0  0
   14.2220   32.2196   17.5804 N   0  0  0  0  0  0  0  0  0  0  0  0
   17.2433   31.5052   15.5873 N   0  0  0  0  0  0  0  0  0  0  0  0
   16.1916   31.0691   18.3507 C   0  0  0  0  0  0  0  0  0  0  0  0
   11.8573   33.9260   15.6059 C   0  0  0  0  0  0  0  0  0  0  0  0
   17.2067   28.8243   15.5993 C   0  0  0  0  0  0  0  0  0  0  0  0
   19.6565   34.2683   14.9036 C   0  0  0  0  0  0  0  0  0  0  0  0
   18.4369   33.7178   15.2376 C   0  0  0  0  0  0  0  0  0  0  0  0
   20.6377   32.0742   14.6180 C   0  0  0  0  0  0  0  0  0  0  0  0
   15.1553   32.6493   15.0157 C   0  0  0  0  0  0  0  0  0  0  0  0
   13.4342   32.8556   16.7256 C   0  0  0  0  0  0  0  0  0  0  0  0
   20.7270   33.4477   14.5894 C   0  0  0  0  0  0  0  0  0  0  0  0
   15.4252   31.7802   17.2542 C   0  0  0  0  0  0  0  0  0  0  0  0
   13.8724   33.0942   15.4049 C   0  0  0  0  0  0  0  0  0  0  0  0
   18.9912   30.1103   15.0957 C   0  0  0  0  0  0  0  0  0  0  0  0
   17.6500   30.1626   15.4678 C   0  0  0  0  0  0  0  0  0  0  0  0
   15.9438   31.9672   15.9514 C   0  0  0  0  0  0  0  0  0  0  0  0
   18.3024   32.3286   15.2737 C   0  0  0  0  0  0  0  0  0  0  0  0
   19.4207   31.5017   14.9711 C   0  0  0  0  0  0  0  0  0  0  0  0
   18.1585   27.0132   15.3115 H   0  0  0  0  0  0  0  0  0  0  0  0
   11.5744   33.3879   17.6343 H   0  0  0  0  0  0  0  0  0  0  0  0
   17.0825   30.7795   18.0007 H   0  0  0  0  0  0  0  0  0  0  0  0
   16.3229   31.6908   19.1228 H   0  0  0  0  0  0  0  0  0  0  0  0
   15.6754   30.2675   18.6522 H   0  0  0  0  0  0  0  0  0  0  0  0
   10.9963   34.3800   15.3763 H   0  0  0  0  0  0  0  0  0  0  0  0
   16.2859   28.5411   15.8673 H   0  0  0  0  0  0  0  0  0  0  0  0
   19.7681   35.2619   14.8882 H   0  0  0  0  0  0  0  0  0  0  0  0
   17.6577   34.3070   15.4515 H   0  0  0  0  0  0  0  0  0  0  0  0
   21.4269   31.5036   14.3910 H   0  0  0  0  0  0  0  0  0  0  0  0
   15.4941   32.8179   14.0901 H   0  0  0  0  0  0  0  0  0  0  0  0
  1 16  1  0  0  0  0
  2  3  1  0  0  0  0
  2 10  1  0  0  0  0
  3 19  2  0  0  0  0
  4  9  1  0  0  0  0
  4 15  1  0  0  0  0
  5  9  2  0  0  0  0
  5 18  1  0  0  0  0
  6 15  2  0  0  0  0
  6 17  1  0  0  0  0
  7 20  1  0  0  0  0
  7 21  1  0  0  0  0
  7 22  1  0  0  0  0
  8 17  1  0  0  0  0
 10 20  2  0  0  0  0
 11 12  1  0  0  0  0
 11 16  2  0  0  0  0
 12 22  2  0  0  0  0
 13 16  1  0  0  0  0
 13 23  2  0  0  0  0
 14 18  2  0  0  0  0
 14 21  1  0  0  0  0
 15 18  1  0  0  0  0
 17 21  2  0  0  0  0
 19 20  1  0  0  0  0
 19 23  1  0  0  0  0
 22 23  1  0  0  0  0
  2 24  1  0  0  0  0
  4 25  1  0  0  0  0
  8 26  1  0  0  0  0
  8 27  1  0  0  0  0
  8 28  1  0  0  0  0
  9 29  1  0  0  0  0
 10 30  1  0  0  0  0
 11 31  1  0  0  0  0
 12 32  1  0  0  0  0
 13 33  1  0  0  0  0
 14 34  1  0  0  0  0
M  END
> <pdb_id>
5JFR

> <uniprot_id>
P50579

> <usmiles>
Fc1cc2c(N(c3c(nc4NC=Nc4c3)C)C=5C2=NNC5)cc1

$$$$
6KT_A_301
          07202405143D 1   1.00000     0.00000     0
            
 20 21  0  0  0  0            999 V2000
   -0.0496   15.1090   13.3414 S   0  0  0  0  0  0  0  0  0  0  0  0
   -3.0367   11.1554   11.1962 O   0  0  0  0  0  0  0  0  0  0  0  0
    1.9964   17.0258   13.1717 N   0  0  0  0  0  0  0  0  0  0  0  0
   -1.9857   10.3599    9.3029 N   0  0  0  0  0  0  0  0  0  0  0  0
    1.5750   15.4882   11.3201 N   0  0  0  0  0  0  0  0  0  0  0  0
    0.7354   13.7089    9.7802 C   0  0  0  0  0  0  0  0  0  0  0  0
   -0.2068   12.6838    9.6082 C   0  0  0  0  0  0  0  0  0  0  0  0
   -1.1509   13.0693   11.7878 C   0  0  0  0  0  0  0  0  0  0  0  0
    1.2771   15.9321   12.5452 C   0  0  0  0  0  0  0  0  0  0  0  0
   -2.1398   11.2648   10.4322 C   0  0  0  0  0  0  0  0  0  0  0  0
   -0.2433   14.0619   11.9498 C   0  0  0  0  0  0  0  0  0  0  0  0
    0.7208   14.4294   10.9699 C   0  0  0  0  0  0  0  0  0  0  0  0
   -1.1306   12.3728   10.6101 C   0  0  0  0  0  0  0  0  0  0  0  0
    1.9434   17.8195   12.8437 H   0  0  0  0  0  0  0  0  0  0  0  0
    2.4759   16.8812   13.8705 H   0  0  0  0  0  0  0  0  0  0  0  0
   -1.3282   10.4600    8.7585 H   0  0  0  0  0  0  0  0  0  0  0  0
   -2.5508    9.7227    9.1835 H   0  0  0  0  0  0  0  0  0  0  0  0
    1.3453   13.9125    9.1090 H   0  0  0  0  0  0  0  0  0  0  0  0
   -0.2093   12.1946    8.8167 H   0  0  0  0  0  0  0  0  0  0  0  0
   -1.7658   12.8666   12.4550 H   0  0  0  0  0  0  0  0  0  0  0  0
  1  9  1  0  0  0  0
  1 11  1  0  0  0  0
  2 10  2  0  0  0  0
  3  9  1  0  0  0  0
  3 14  1  0  0  0  0
  3 15  1  0  0  0  0
  4 10  1  0  0  0  0
  4 16  1  0  0  0  0
  4 17  1  0  0  0  0
  5  9  2  0  0  0  0
  5 12  1  0  0  0  0
  6  7  1  0  0  0  0
  6 12  2  0  0  0  0
  6 18  1  0  0  0  0
  7 13  2  0  0  0  0
  7 19  1  0  0  0  0
  8 11  2  0  0  0  0
  8 13  1  0  0  0  0
  8 20  1  0  0  0  0
 10 13  1  0  0  0  0
 11 12  1  0  0  0  0
M  END
> <pdb_id>
5JI8

> <uniprot_id>
Q9H8M2

> <usmiles>
S1c2c(N=C1N)ccc(c2)C(=O)N

$$$$
6L2_A_1004
          07202406303D 1   1.00000     0.00000     0
            
 60 62  0  0  0  0            999 V2000
   28.9103  178.8477   18.7157 S   0  0  0  0  0  0  0  0  0  0  0  0
   23.9129  172.3756   18.5347 S   0  0  0  0  0  0  0  0  0  0  0  0
   23.6352  171.9937   17.0945 O   0  0  0  0  0  0  0  0  0  0  0  0
   22.7149  173.0845   19.1425 O   0  0  0  0  0  0  0  0  0  0  0  0
   28.7189  184.2816   18.7478 O   0  0  0  0  0  0  0  0  0  0  0  0
   26.6534  171.8959   17.7049 O   0  0  0  0  0  0  0  0  0  0  0  0
   26.0067  170.6131   22.8659 O   0  0  0  0  0  0  0  0  0  0  0  0
   30.4272  176.5849   19.7577 O   0  0  0  0  0  0  0  0  0  0  0  0
   28.4053  172.1771   19.9148 O   0  0  0  0  0  0  0  0  0  0  0  0
   25.2427  173.3979   18.6567 N   0  0  0  0  0  0  0  0  0  0  0  0
   26.0036  172.0280   23.2061 C   0  0  0  0  0  0  0  0  0  0  0  0
   31.4298  176.1930   20.7402 C   0  0  0  0  0  0  0  0  0  0  0  0
   29.1997  171.8383   21.0685 C   0  0  0  0  0  0  0  0  0  0  0  0
   29.6243  183.6479   17.8648 C   0  0  0  0  0  0  0  0  0  0  0  0
   29.2234  182.2685   17.6267 C   0  0  0  0  0  0  0  0  0  0  0  0
   24.3467  168.3386   20.2034 C   0  0  0  0  0  0  0  0  0  0  0  0
   28.9557  181.2309   17.4720 C   0  0  0  0  0  0  0  0  0  0  0  0
   28.1550  179.0956   16.4110 C   0  0  0  0  0  0  0  0  0  0  0  0
   28.0455  177.7609   16.7058 C   0  0  0  0  0  0  0  0  0  0  0  0
   23.6045  169.4627   19.4319 C   0  0  0  0  0  0  0  0  0  0  0  0
   25.4280  168.8619   21.2067 C   0  0  0  0  0  0  0  0  0  0  0  0
   24.5564  171.2760   20.9478 C   0  0  0  0  0  0  0  0  0  0  0  0
   29.4492  174.3820   19.8793 C   0  0  0  0  0  0  0  0  0  0  0  0
   27.4819  175.2124   18.0648 C   0  0  0  0  0  0  0  0  0  0  0  0
   28.6605  179.8115   17.4196 C   0  0  0  0  0  0  0  0  0  0  0  0
   28.4369  177.4135   17.9542 C   0  0  0  0  0  0  0  0  0  0  0  0
   24.3815  170.7772   19.5271 C   0  0  2  0  0  0  0  0  0  0  0  0
   26.4408  173.0008   18.2054 C   0  0  0  0  0  0  0  0  0  0  0  0
   24.9893  170.1555   21.9318 C   0  0  2  0  0  0  0  0  0  0  0  0
   29.4438  175.7047   19.4025 C   0  0  0  0  0  0  0  0  0  0  0  0
   28.4689  173.4832   19.4682 C   0  0  0  0  0  0  0  0  0  0  0  0
   28.4452  176.1494   18.4864 C   0  0  0  0  0  0  0  0  0  0  0  0
   27.4872  173.8806   18.5337 C   0  0  0  0  0  0  0  0  0  0  0  0
   29.0083  185.2265   18.9004 H   0  0  0  0  0  0  0  0  0  0  0  0
   25.1393  174.3040   19.0668 H   0  0  0  0  0  0  0  0  0  0  0  0
   26.7439  172.2174   23.8510 H   0  0  0  0  0  0  0  0  0  0  0  0
   26.1370  172.5705   22.3767 H   0  0  0  0  0  0  0  0  0  0  0  0
   25.1276  172.2683   23.6243 H   0  0  0  0  0  0  0  0  0  0  0  0
   32.0694  176.9483   20.8833 H   0  0  0  0  0  0  0  0  0  0  0  0
   30.9797  175.9691   21.6047 H   0  0  0  0  0  0  0  0  0  0  0  0
   31.9282  175.3927   20.4068 H   0  0  0  0  0  0  0  0  0  0  0  0
   29.0687  170.8723   21.2914 H   0  0  0  0  0  0  0  0  0  0  0  0
   30.1652  172.0066   20.8695 H   0  0  0  0  0  0  0  0  0  0  0  0
   28.9165  172.4010   21.8452 H   0  0  0  0  0  0  0  0  0  0  0  0
   30.5395  183.6598   18.2675 H   0  0  0  0  0  0  0  0  0  0  0  0
   29.6363  184.1418   16.9954 H   0  0  0  0  0  0  0  0  0  0  0  0
   24.7973  167.7447   19.5369 H   0  0  0  0  0  0  0  0  0  0  0  0
   23.6705  167.8105   20.7170 H   0  0  0  0  0  0  0  0  0  0  0  0
   27.8849  179.4916   15.5333 H   0  0  0  0  0  0  0  0  0  0  0  0
   27.7015  177.0926   16.0463 H   0  0  0  0  0  0  0  0  0  0  0  0
   22.6946  169.5884   19.8274 H   0  0  0  0  0  0  0  0  0  0  0  0
   23.5169  169.2005   18.4709 H   0  0  0  0  0  0  0  0  0  0  0  0
   26.2706  169.0480   20.7013 H   0  0  0  0  0  0  0  0  0  0  0  0
   25.5995  168.1534   21.8913 H   0  0  0  0  0  0  0  0  0  0  0  0
   23.6869  171.6577   21.2614 H   0  0  0  0  0  0  0  0  0  0  0  0
   25.2551  171.9913   20.9512 H   0  0  0  0  0  0  0  0  0  0  0  0
   30.1605  174.0855   20.5166 H   0  0  0  0  0  0  0  0  0  0  0  0
   26.7759  175.4978   17.4166 H   0  0  0  0  0  0  0  0  0  0  0  0
   25.3060  170.5494   19.2214 H   0  0  0  0  0  0  0  0  0  0  0  0
   24.1831  169.9220   22.4754 H   0  0  0  0  0  0  0  0  0  0  0  0
  1 25  1  0  0  0  0
  1 26  1  0  0  0  0
  2  3  2  0  0  0  0
  2  4  2  0  0  0  0
  2 10  1  0  0  0  0
  2 27  1  0  0  0  0
  5 14  1  0  0  0  0
  6 28  2  0  0  0  0
  7 11  1  0  0  0  0
  7 29  1  0  0  0  0
  8 12  1  0  0  0  0
  8 30  1  0  0  0  0
  9 13  1  0  0  0  0
  9 31  1  0  0  0  0
 10 28  1  0  0  0  0
 14 15  1  0  0  0  0
 15 17  3  0  0  0  0
 16 20  1  0  0  0  0
 16 21  1  0  0  0  0
 17 25  1  0  0  0  0
 18 19  1  0  0  0  0
 18 25  2  0  0  0  0
 19 26  2  0  0  0  0
 20 27  1  0  0  0  0
 21 29  1  0  0  0  0
 22 27  1  0  0  0  0
 22 29  1  0  0  0  0
 23 30  2  0  0  0  0
 23 31  1  0  0  0  0
 24 32  2  0  0  0  0
 24 33  1  0  0  0  0
 26 32  1  0  0  0  0
 28 33  1  0  0  0  0
 30 32  1  0  0  0  0
 31 33  2  0  0  0  0
  5 34  1  0  0  0  0
 10 35  1  0  0  0  0
 11 36  1  0  0  0  0
 11 37  1  0  0  0  0
 11 38  1  0  0  0  0
 12 39  1  0  0  0  0
 12 40  1  0  0  0  0
 12 41  1  0  0  0  0
 13 42  1  0  0  0  0
 13 43  1  0  0  0  0
 13 44  1  0  0  0  0
 14 45  1  0  0  0  0
 14 46  1  0  0  0  0
 16 47  1  0  0  0  0
 16 48  1  0  0  0  0
 18 49  1  0  0  0  0
 19 50  1  0  0  0  0
 20 51  1  0  0  0  0
 20 52  1  0  0  0  0
 21 53  1  0  0  0  0
 21 54  1  0  0  0  0
 22 55  1  0  0  0  0
 22 56  1  0  0  0  0
 23 57  1  0  0  0  0
 24 58  1  0  0  0  0
 27 59  1  0  0  0  0
 29 60  1  0  0  0  0
M  END
> <pdb_id>
5JJS

> <uniprot_id>
Q6DLV0

> <usmiles>
S(=O)(=O)(NC(=O)c1c(OC)cc(OC)c(c1)C=2SC(C#CCO)=CC2)[C@H]3C[C@H](OC)CCC3

$$$$
6LD_A_807
          07192420533D 1   1.00000     0.00000     0
            
 53 54  0  0  0  0            999 V2000
   26.9430   40.2769   37.7062 O   0  0  0  0  0  0  0  0  0  0  0  0
   29.0997   39.9958   38.4123 O   0  0  0  0  0  0  0  0  0  0  0  0
   31.5012   43.0721   34.9671 O   0  0  0  0  0  0  0  0  0  0  0  0
   30.3247   42.2031   31.1598 O   0  0  0  0  0  0  0  0  0  0  0  0
   29.3779   43.9765   30.2840 O   0  0  0  0  0  0  0  0  0  0  0  0
   29.3748   43.8139   35.0096 N   0  0  0  0  0  0  0  0  0  0  0  0
   26.9361   42.8077   31.4414 C   0  0  0  0  0  0  0  0  0  0  0  0
   37.4607   46.8997   37.8436 C   0  0  0  0  0  0  0  0  0  0  0  0
   36.4806   47.8692   38.1831 C   0  0  0  0  0  0  0  0  0  0  0  0
   37.2032   45.9403   36.8484 C   0  0  0  0  0  0  0  0  0  0  0  0
   28.6171   41.8956   36.9996 C   0  0  0  0  0  0  0  0  0  0  0  0
   30.1169   42.1093   36.6735 C   0  0  0  0  0  0  0  0  0  0  0  0
   35.2010   47.8118   37.5796 C   0  0  0  0  0  0  0  0  0  0  0  0
   35.9290   45.9124   36.2121 C   0  0  0  0  0  0  0  0  0  0  0  0
   32.1470   46.3895   34.0213 C   0  0  0  0  0  0  0  0  0  0  0  0
   31.1581   46.5531   36.2430 C   0  0  0  0  0  0  0  0  0  0  0  0
   33.4236   46.4856   34.5972 C   0  0  0  0  0  0  0  0  0  0  0  0
   32.4425   46.7148   36.8047 C   0  0  0  0  0  0  0  0  0  0  0  0
   29.6100   46.1712   34.2082 C   0  0  0  0  0  0  0  0  0  0  0  0
   28.2743   44.3799   32.9874 C   0  0  0  0  0  0  0  0  0  0  0  0
   28.2555   40.6341   37.7836 C   0  0  0  0  0  0  0  0  0  0  0  0
   30.3766   43.0081   35.4546 C   0  0  0  0  0  0  0  0  0  0  0  0
   29.3618   43.1211   31.1277 C   0  0  0  0  0  0  0  0  0  0  0  0
   29.5476   44.6728   33.8154 C   0  0  2  0  0  0  0  0  0  0  0  0
   31.0069   46.4023   34.8434 C   0  0  0  0  0  0  0  0  0  0  0  0
   28.2956   43.0470   32.1888 C   0  0  2  0  0  0  0  0  0  0  0  0
   34.9329   46.8325   36.5792 C   0  0  0  0  0  0  0  0  0  0  0  0
   33.5799   46.7112   35.9703 C   0  0  0  0  0  0  0  0  0  0  0  0
   26.3029   40.8361   37.1793 H   0  0  0  0  0  0  0  0  0  0  0  0
   30.3129   41.4904   31.8612 H   0  0  0  0  0  0  0  0  0  0  0  0
   28.5030   43.8264   35.4993 H   0  0  0  0  0  0  0  0  0  0  0  0
   26.9799   41.9449   30.9378 H   0  0  0  0  0  0  0  0  0  0  0  0
   26.1918   42.7671   32.1081 H   0  0  0  0  0  0  0  0  0  0  0  0
   26.7704   43.5587   30.8022 H   0  0  0  0  0  0  0  0  0  0  0  0
   38.3419   46.8992   38.3164 H   0  0  0  0  0  0  0  0  0  0  0  0
   36.6928   48.5885   38.8446 H   0  0  0  0  0  0  0  0  0  0  0  0
   37.9098   45.2820   36.5891 H   0  0  0  0  0  0  0  0  0  0  0  0
   28.1202   41.8657   36.1324 H   0  0  0  0  0  0  0  0  0  0  0  0
   28.3085   42.6826   37.5338 H   0  0  0  0  0  0  0  0  0  0  0  0
   30.5296   41.2157   36.4973 H   0  0  0  0  0  0  0  0  0  0  0  0
   30.5542   42.5273   37.4697 H   0  0  0  0  0  0  0  0  0  0  0  0
   34.4875   48.4563   37.8544 H   0  0  0  0  0  0  0  0  0  0  0  0
   35.7427   45.2347   35.5008 H   0  0  0  0  0  0  0  0  0  0  0  0
   32.0491   46.3122   33.0291 H   0  0  0  0  0  0  0  0  0  0  0  0
   30.3524   46.5449   36.8353 H   0  0  0  0  0  0  0  0  0  0  0  0
   34.2335   46.3916   34.0182 H   0  0  0  0  0  0  0  0  0  0  0  0
   32.5462   46.8318   37.7924 H   0  0  0  0  0  0  0  0  0  0  0  0
   28.8904   46.3854   34.8687 H   0  0  0  0  0  0  0  0  0  0  0  0
   29.4999   46.7458   33.3972 H   0  0  0  0  0  0  0  0  0  0  0  0
   28.1498   45.1285   32.3362 H   0  0  0  0  0  0  0  0  0  0  0  0
   27.4966   44.3517   33.6155 H   0  0  0  0  0  0  0  0  0  0  0  0
   30.3668   44.4079   33.3068 H   0  0  0  0  0  0  0  0  0  0  0  0
   28.4831   42.2833   32.8066 H   0  0  0  0  0  0  0  0  0  0  0  0
  1 21  1  0  0  0  0
  2 21  2  0  0  0  0
  3 22  2  0  0  0  0
  4 23  1  0  0  0  0
  5 23  2  0  0  0  0
  6 22  1  0  0  0  0
  6 24  1  0  0  0  0
  7 26  1  0  0  0  0
  8  9  2  0  0  0  0
  8 10  1  0  0  0  0
  9 13  1  0  0  0  0
 10 14  2  0  0  0  0
 11 12  1  0  0  0  0
 11 21  1  0  0  0  0
 12 22  1  0  0  0  0
 13 27  2  0  0  0  0
 14 27  1  0  0  0  0
 15 17  2  0  0  0  0
 15 25  1  0  0  0  0
 16 18  1  0  0  0  0
 16 25  2  0  0  0  0
 17 28  1  0  0  0  0
 18 28  2  0  0  0  0
 19 24  1  0  0  0  0
 19 25  1  0  0  0  0
 20 24  1  0  0  0  0
 20 26  1  0  0  0  0
 23 26  1  0  0  0  0
 27 28  1  0  0  0  0
  1 29  1  0  0  0  0
  4 30  1  0  0  0  0
  6 31  1  0  0  0  0
  7 32  1  0  0  0  0
  7 33  1  0  0  0  0
  7 34  1  0  0  0  0
  8 35  1  0  0  0  0
  9 36  1  0  0  0  0
 10 37  1  0  0  0  0
 11 38  1  0  0  0  0
 11 39  1  0  0  0  0
 12 40  1  0  0  0  0
 12 41  1  0  0  0  0
 13 42  1  0  0  0  0
 14 43  1  0  0  0  0
 15 44  1  0  0  0  0
 16 45  1  0  0  0  0
 17 46  1  0  0  0  0
 18 47  1  0  0  0  0
 19 48  1  0  0  0  0
 19 49  1  0  0  0  0
 20 50  1  0  0  0  0
 20 51  1  0  0  0  0
 24 52  1  0  0  0  0
 26 53  1  0  0  0  0
M  END
> <pdb_id>
5JMY

> <uniprot_id>
P08473

> <usmiles>
O=C(O)[C@@H](C[C@H](NC(=O)CCC(=O)O)Cc1ccc(c2ccccc2)cc1)C

$$$$
6LV_A_1224
          07192420423D 1   1.00000     0.00000     0
            
 42 45  0  0  0  0            999 V2000
   71.0205   30.3652   23.9257 O   0  0  0  0  0  0  0  0  0  0  0  0
   74.7631   33.0618   25.3139 O   0  0  0  0  0  0  0  0  0  0  0  0
   65.1027   33.3186   25.3841 N   0  0  0  0  0  0  0  0  0  0  0  0
   67.3570   34.0112   25.4739 N   0  0  0  0  0  0  0  0  0  0  0  0
   66.0494   34.6721   23.6793 N   0  0  0  0  0  0  0  0  0  0  0  0
   69.8760   35.9783   23.7315 N   0  0  0  0  0  0  0  0  0  0  0  0
   68.0413   34.8064   24.5663 N   0  0  0  0  0  0  0  0  0  0  0  0
   71.8609   29.3104   23.4325 C   0  0  0  0  0  0  0  0  0  0  0  0
   75.3887   34.3184   25.5804 C   0  0  0  0  0  0  0  0  0  0  0  0
   68.9837   37.6084   20.5715 C   0  0  0  0  0  0  0  0  0  0  0  0
   67.6462   37.2236   20.4436 C   0  0  0  0  0  0  0  0  0  0  0  0
   69.7225   37.1924   21.6783 C   0  0  0  0  0  0  0  0  0  0  0  0
   67.0528   36.4080   21.4181 C   0  0  0  0  0  0  0  0  0  0  0  0
   72.9263   31.7169   24.6216 C   0  0  0  0  0  0  0  0  0  0  0  0
   70.6765   32.5254   24.8707 C   0  0  0  0  0  0  0  0  0  0  0  0
   72.5212   33.9194   25.5713 C   0  0  0  0  0  0  0  0  0  0  0  0
   70.1748   34.7742   25.8538 C   0  0  0  0  0  0  0  0  0  0  0  0
   66.1540   33.9932   24.8507 C   0  0  0  0  0  0  0  0  0  0  0  0
   71.5514   31.5185   24.4663 C   0  0  0  0  0  0  0  0  0  0  0  0
   73.4063   32.9098   25.1706 C   0  0  0  0  0  0  0  0  0  0  0  0
   69.3254   35.2000   24.6855 C   0  0  0  0  0  0  0  0  0  0  0  0
   67.2956   35.1965   23.5345 C   0  0  0  0  0  0  0  0  0  0  0  0
   69.1440   36.3862   22.6536 C   0  0  0  0  0  0  0  0  0  0  0  0
   71.1546   33.7122   25.4187 C   0  0  0  0  0  0  0  0  0  0  0  0
   67.8075   35.9934   22.5185 C   0  0  0  0  0  0  0  0  0  0  0  0
   64.2206   33.3140   24.9129 H   0  0  0  0  0  0  0  0  0  0  0  0
   65.2107   32.8265   26.2479 H   0  0  0  0  0  0  0  0  0  0  0  0
   71.2914   28.5661   23.0835 H   0  0  0  0  0  0  0  0  0  0  0  0
   72.4389   29.6615   22.6959 H   0  0  0  0  0  0  0  0  0  0  0  0
   72.4375   28.9689   24.1748 H   0  0  0  0  0  0  0  0  0  0  0  0
   76.3785   34.1910   25.6446 H   0  0  0  0  0  0  0  0  0  0  0  0
   75.1822   34.9574   24.8394 H   0  0  0  0  0  0  0  0  0  0  0  0
   75.0432   34.6863   26.4437 H   0  0  0  0  0  0  0  0  0  0  0  0
   69.4097   38.1808   19.8709 H   0  0  0  0  0  0  0  0  0  0  0  0
   67.1115   37.5302   19.6561 H   0  0  0  0  0  0  0  0  0  0  0  0
   70.6769   37.4760   21.7720 H   0  0  0  0  0  0  0  0  0  0  0  0
   66.0980   36.1255   21.3262 H   0  0  0  0  0  0  0  0  0  0  0  0
   73.5681   31.0039   24.3394 H   0  0  0  0  0  0  0  0  0  0  0  0
   69.6908   32.3931   24.7656 H   0  0  0  0  0  0  0  0  0  0  0  0
   72.8661   34.7738   25.9600 H   0  0  0  0  0  0  0  0  0  0  0  0
   69.5868   34.4070   26.5746 H   0  0  0  0  0  0  0  0  0  0  0  0
   70.6771   35.5649   26.2039 H   0  0  0  0  0  0  0  0  0  0  0  0
  1  8  1  0  0  0  0
  1 19  1  0  0  0  0
  2  9  1  0  0  0  0
  2 20  1  0  0  0  0
  3 18  1  0  0  0  0
  4  7  1  0  0  0  0
  4 18  2  0  0  0  0
  5 18  1  0  0  0  0
  5 22  2  0  0  0  0
  6 21  2  0  0  0  0
  6 23  1  0  0  0  0
  7 21  1  0  0  0  0
  7 22  1  0  0  0  0
 10 11  2  0  0  0  0
 10 12  1  0  0  0  0
 11 13  1  0  0  0  0
 12 23  2  0  0  0  0
 13 25  2  0  0  0  0
 14 19  2  0  0  0  0
 14 20  1  0  0  0  0
 15 19  1  0  0  0  0
 15 24  2  0  0  0  0
 16 20  2  0  0  0  0
 16 24  1  0  0  0  0
 17 21  1  0  0  0  0
 17 24  1  0  0  0  0
 22 25  1  0  0  0  0
 23 25  1  0  0  0  0
  3 26  1  0  0  0  0
  3 27  1  0  0  0  0
  8 28  1  0  0  0  0
  8 29  1  0  0  0  0
  8 30  1  0  0  0  0
  9 31  1  0  0  0  0
  9 32  1  0  0  0  0
  9 33  1  0  0  0  0
 10 34  1  0  0  0  0
 11 35  1  0  0  0  0
 12 36  1  0  0  0  0
 13 37  1  0  0  0  0
 14 38  1  0  0  0  0
 15 39  1  0  0  0  0
 16 40  1  0  0  0  0
 17 41  1  0  0  0  0
 17 42  1  0  0  0  0
M  END
> <pdb_id>
4CWN

> <uniprot_id>
P07900

> <usmiles>
O(c1cc(OC)cc(c1)CC2=Nc3c(cccc3)C4=NC(=NN42)N)C

$$$$
6MS_B_301
          07202413403D 1   1.00000     0.00000     0
            
 39 40  0  0  0  0            999 V2000
  127.6233   -4.8745   47.9900 P   0  0  0  0  0  0  0  0  0  0  0  0
  126.2192   -4.6706   48.4702 O   0  0  0  0  0  0  0  0  0  0  0  0
  127.5918   -5.2630   46.5208 O   0  0  0  0  0  0  0  0  0  0  0  0
  128.5755   -3.7177   48.1508 O   0  0  0  0  0  0  0  0  0  0  0  0
  132.1674   -3.8768   57.2481 O   0  0  0  0  0  0  0  0  0  0  0  0
  133.7190   -8.0169   56.0001 N   0  0  0  0  0  0  0  0  0  0  0  0
  131.8984   -3.0865   54.2468 N   0  0  0  0  0  0  0  0  0  0  0  0
  132.9016   -5.8592   56.6194 N   0  0  0  0  0  0  0  0  0  0  0  0
  133.1347   -6.4479   54.2155 N   0  0  0  0  0  0  0  0  0  0  0  0
  132.4361   -4.5256   52.7127 N   0  0  0  0  0  0  0  0  0  0  0  0
  128.3330   -6.2895   48.8775 C   0  0  0  0  0  0  0  0  0  0  0  0
  131.9832   -3.3039   52.9323 C   0  0  0  0  0  0  0  0  0  0  0  0
  132.6789   -5.1619   51.4113 C   0  0  0  0  0  0  0  0  0  0  0  0
  129.6663   -6.6898   48.3286 C   0  0  0  0  0  0  0  0  0  0  0  0
  131.3686   -5.9260   50.9792 C   0  0  0  0  0  0  0  0  0  0  0  0
  130.5006   -7.5790   49.2383 C   0  0  0  0  0  0  0  0  0  0  0  0
  131.7404   -6.8920   49.8345 C   0  0  0  0  0  0  0  0  0  0  0  0
  133.2692   -6.7705   55.6046 C   0  0  0  0  0  0  0  0  0  0  0  0
  132.4271   -4.6043   56.3249 C   0  0  0  0  0  0  0  0  0  0  0  0
  132.6612   -5.1321   53.9065 C   0  0  0  0  0  0  0  0  0  0  0  0
  132.3202   -4.2083   54.8913 C   0  0  0  0  0  0  0  0  0  0  0  0
  126.2313   -4.4146   49.4368 H   0  0  0  0  0  0  0  0  0  0  0  0
  128.5263   -5.4010   46.1924 H   0  0  0  0  0  0  0  0  0  0  0  0
  133.9894   -8.6919   55.3136 H   0  0  0  0  0  0  0  0  0  0  0  0
  133.7739   -8.2432   56.9726 H   0  0  0  0  0  0  0  0  0  0  0  0
  132.9890   -6.1348   57.5767 H   0  0  0  0  0  0  0  0  0  0  0  0
  127.7068   -7.0653   48.8001 H   0  0  0  0  0  0  0  0  0  0  0  0
  128.4419   -6.0438   49.8407 H   0  0  0  0  0  0  0  0  0  0  0  0
  131.7409   -2.6429   52.2221 H   0  0  0  0  0  0  0  0  0  0  0  0
  133.4376   -5.8088   51.4879 H   0  0  0  0  0  0  0  0  0  0  0  0
  132.9030   -4.4642   50.7308 H   0  0  0  0  0  0  0  0  0  0  0  0
  130.1886   -5.8568   48.1464 H   0  0  0  0  0  0  0  0  0  0  0  0
  129.5130   -7.1813   47.4713 H   0  0  0  0  0  0  0  0  0  0  0  0
  130.6821   -5.2716   50.6623 H   0  0  0  0  0  0  0  0  0  0  0  0
  131.0045   -6.4419   51.7546 H   0  0  0  0  0  0  0  0  0  0  0  0
  130.8059   -8.3701   48.7081 H   0  0  0  0  0  0  0  0  0  0  0  0
  129.9205   -7.8869   49.9924 H   0  0  0  0  0  0  0  0  0  0  0  0
  132.3583   -7.5928   50.1908 H   0  0  0  0  0  0  0  0  0  0  0  0
  132.2022   -6.3759   49.1132 H   0  0  0  0  0  0  0  0  0  0  0  0
  1  2  1  0  0  0  0
  1  3  1  0  0  0  0
  1  4  2  0  0  0  0
  1 11  1  0  0  0  0
  5 19  2  0  0  0  0
  6 18  1  0  0  0  0
  7 12  2  0  0  0  0
  7 21  1  0  0  0  0
  8 18  1  0  0  0  0
  8 19  1  0  0  0  0
  9 18  2  0  0  0  0
  9 20  1  0  0  0  0
 10 12  1  0  0  0  0
 10 13  1  0  0  0  0
 10 20  1  0  0  0  0
 11 14  1  0  0  0  0
 13 15  1  0  0  0  0
 14 16  1  0  0  0  0
 15 17  1  0  0  0  0
 16 17  1  0  0  0  0
 19 21  1  0  0  0  0
 20 21  2  0  0  0  0
  2 22  1  0  0  0  0
  3 23  1  0  0  0  0
  6 24  1  0  0  0  0
  6 25  1  0  0  0  0
  8 26  1  0  0  0  0
 11 27  1  0  0  0  0
 11 28  1  0  0  0  0
 12 29  1  0  0  0  0
 13 30  1  0  0  0  0
 13 31  1  0  0  0  0
 14 32  1  0  0  0  0
 14 33  1  0  0  0  0
 15 34  1  0  0  0  0
 15 35  1  0  0  0  0
 16 36  1  0  0  0  0
 16 37  1  0  0  0  0
 17 38  1  0  0  0  0
 17 39  1  0  0  0  0
M  END
> <pdb_id>
5JSQ

> <uniprot_id>
Q07010

> <usmiles>
P(=O)(O)(O)CCCCCCN1C=2N=C(NC(=O)C2N=C1)N

$$$$
6N4_A_1555
          07202405383D 1   1.00000     0.00000     0
            
 23 24  0  0  0  0            999 V2000
   -2.9600    4.4354   32.5053 S   0  0  0  0  0  0  0  0  0  0  0  0
   -1.8595    1.5655   33.9009 O   0  0  0  0  0  0  0  0  0  0  0  0
   -2.4660    5.6024   30.0770 N   0  0  0  0  0  0  0  0  0  0  0  0
   -4.4091    6.1300   31.0016 N   0  0  0  0  0  0  0  0  0  0  0  0
   -2.5818    2.6784   31.8585 C   0  0  0  0  0  0  0  0  0  0  0  0
   -1.3141    1.9692   32.5813 C   0  0  0  0  0  0  0  0  0  0  0  0
   -3.7916    7.9151   27.2682 C   0  0  0  0  0  0  0  0  0  0  0  0
   -5.0462    8.2178   27.9307 C   0  0  0  0  0  0  0  0  0  0  0  0
   -2.7920    7.0445   27.9064 C   0  0  0  0  0  0  0  0  0  0  0  0
   -5.3614    7.6770   29.2424 C   0  0  0  0  0  0  0  0  0  0  0  0
   -3.2813    5.4058   31.1494 C   0  0  0  0  0  0  0  0  0  0  0  0
   -3.1384    6.4893   29.1811 C   0  0  0  0  0  0  0  0  0  0  0  0
   -4.3678    6.7961   29.8163 C   0  0  0  0  0  0  0  0  0  0  0  0
   -1.1443    1.1116   34.4324 H   0  0  0  0  0  0  0  0  0  0  0  0
   -1.5611    5.1992   29.9410 H   0  0  0  0  0  0  0  0  0  0  0  0
   -2.3923    2.7380   30.8784 H   0  0  0  0  0  0  0  0  0  0  0  0
   -3.3891    2.1076   32.0078 H   0  0  0  0  0  0  0  0  0  0  0  0
   -1.0047    1.1726   32.0621 H   0  0  0  0  0  0  0  0  0  0  0  0
   -0.5560    2.6125   32.6881 H   0  0  0  0  0  0  0  0  0  0  0  0
   -3.6038    8.3033   26.3660 H   0  0  0  0  0  0  0  0  0  0  0  0
   -5.7090    8.8118   27.4746 H   0  0  0  0  0  0  0  0  0  0  0  0
   -1.9129    6.8496   27.4714 H   0  0  0  0  0  0  0  0  0  0  0  0
   -6.2120    7.9000   29.7185 H   0  0  0  0  0  0  0  0  0  0  0  0
  1  5  1  0  0  0  0
  1 11  1  0  0  0  0
  2  6  1  0  0  0  0
  3 11  1  0  0  0  0
  3 12  1  0  0  0  0
  4 11  2  0  0  0  0
  4 13  1  0  0  0  0
  5  6  1  0  0  0  0
  7  8  2  0  0  0  0
  7  9  1  0  0  0  0
  8 10  1  0  0  0  0
  9 12  2  0  0  0  0
 10 13  2  0  0  0  0
 12 13  1  0  0  0  0
  2 14  1  0  0  0  0
  3 15  1  0  0  0  0
  5 16  1  0  0  0  0
  5 17  1  0  0  0  0
  6 18  1  0  0  0  0
  6 19  1  0  0  0  0
  7 20  1  0  0  0  0
  8 21  1  0  0  0  0
  9 22  1  0  0  0  0
 10 23  1  0  0  0  0
M  END
> <pdb_id>
5AKJ

> <uniprot_id>
P34913

> <usmiles>
S(C1=Nc2c(N1)cccc2)CCO

$$$$
6N8_A_1551
          07202405383D 1   1.00000     0.00000     0
            
 47 49  0  0  0  0            999 V2000
   -4.6799    4.1146   31.4966 O   0  0  0  0  0  0  0  0  0  0  0  0
   -2.5789    4.5560   30.7293 N   0  0  0  0  0  0  0  0  0  0  0  0
   -2.9002    2.9521   32.3557 N   0  0  0  0  0  0  0  0  0  0  0  0
   -2.9687    5.5021   29.7201 C   0  0  0  0  0  0  0  0  0  0  0  0
   -1.5164    2.5822   32.3152 C   0  0  0  0  0  0  0  0  0  0  0  0
   -3.6856    2.1181   33.2301 C   0  0  0  0  0  0  0  0  0  0  0  0
   -1.3459    1.4684   33.3189 C   0  0  0  0  0  0  0  0  0  0  0  0
   -2.7151    1.1747   33.8898 C   0  0  0  0  0  0  0  0  0  0  0  0
   -1.5085   11.8950   30.3670 C   0  0  0  0  0  0  0  0  0  0  0  0
   -6.4391    8.0763   27.0848 C   0  0  0  0  0  0  0  0  0  0  0  0
   -1.9360   11.6506   29.0796 C   0  0  0  0  0  0  0  0  0  0  0  0
   -1.4604   10.8634   31.2866 C   0  0  0  0  0  0  0  0  0  0  0  0
   -6.4160    8.3559   28.4326 C   0  0  0  0  0  0  0  0  0  0  0  0
   -5.2716    7.7554   26.4234 C   0  0  0  0  0  0  0  0  0  0  0  0
   -2.6776    6.8941   30.2369 C   0  0  0  0  0  0  0  0  0  0  0  0
   -2.3155   10.3751   28.7207 C   0  0  0  0  0  0  0  0  0  0  0  0
   -1.8537    9.5922   30.9112 C   0  0  0  0  0  0  0  0  0  0  0  0
   -5.2190    8.3122   29.1144 C   0  0  0  0  0  0  0  0  0  0  0  0
   -4.0740    7.7170   27.0976 C   0  0  0  0  0  0  0  0  0  0  0  0
   -3.4768    3.9028   31.5318 C   0  0  0  0  0  0  0  0  0  0  0  0
   -2.2823    9.3262   29.6195 C   0  0  0  0  0  0  0  0  0  0  0  0
   -4.0450    7.9887   28.4516 C   0  0  0  0  0  0  0  0  0  0  0  0
   -2.7226    7.9571   29.1569 C   0  0  0  0  0  0  0  0  0  0  0  0
   -1.6049    4.3652   30.8517 H   0  0  0  0  0  0  0  0  0  0  0  0
   -3.9460    5.4097   29.5292 H   0  0  0  0  0  0  0  0  0  0  0  0
   -2.4484    5.3367   28.8823 H   0  0  0  0  0  0  0  0  0  0  0  0
   -0.9420    3.3624   32.5630 H   0  0  0  0  0  0  0  0  0  0  0  0
   -1.2697    2.2641   31.3998 H   0  0  0  0  0  0  0  0  0  0  0  0
   -4.3644    1.6058   32.7039 H   0  0  0  0  0  0  0  0  0  0  0  0
   -4.1492    2.6763   33.9182 H   0  0  0  0  0  0  0  0  0  0  0  0
   -0.7241    1.7550   34.0478 H   0  0  0  0  0  0  0  0  0  0  0  0
   -0.9793    0.6539   32.8692 H   0  0  0  0  0  0  0  0  0  0  0  0
   -2.9715    0.2280   33.6948 H   0  0  0  0  0  0  0  0  0  0  0  0
   -2.7126    1.3224   34.8788 H   0  0  0  0  0  0  0  0  0  0  0  0
   -1.2331   12.8179   30.6358 H   0  0  0  0  0  0  0  0  0  0  0  0
   -7.3042    8.1058   26.5840 H   0  0  0  0  0  0  0  0  0  0  0  0
   -1.9707   12.3934   28.4109 H   0  0  0  0  0  0  0  0  0  0  0  0
   -1.1427   11.0361   32.2189 H   0  0  0  0  0  0  0  0  0  0  0  0
   -7.2614    8.5889   28.9134 H   0  0  0  0  0  0  0  0  0  0  0  0
   -5.2966    7.5490   25.4453 H   0  0  0  0  0  0  0  0  0  0  0  0
   -1.7653    6.8961   30.6464 H   0  0  0  0  0  0  0  0  0  0  0  0
   -3.3567    7.1218   30.9348 H   0  0  0  0  0  0  0  0  0  0  0  0
   -2.6231   10.2042   27.7847 H   0  0  0  0  0  0  0  0  0  0  0  0
   -1.8286    8.8517   31.5828 H   0  0  0  0  0  0  0  0  0  0  0  0
   -5.1971    8.5151   30.0933 H   0  0  0  0  0  0  0  0  0  0  0  0
   -3.2294    7.4938   26.6109 H   0  0  0  0  0  0  0  0  0  0  0  0
   -2.0541    7.6744   28.4690 H   0  0  0  0  0  0  0  0  0  0  0  0
  1 20  2  0  0  0  0
  2  4  1  0  0  0  0
  2 20  1  0  0  0  0
  3  5  1  0  0  0  0
  3  6  1  0  0  0  0
  3 20  1  0  0  0  0
  4 15  1  0  0  0  0
  5  7  1  0  0  0  0
  6  8  1  0  0  0  0
  7  8  1  0  0  0  0
  9 11  2  0  0  0  0
  9 12  1  0  0  0  0
 10 13  2  0  0  0  0
 10 14  1  0  0  0  0
 11 16  1  0  0  0  0
 12 17  2  0  0  0  0
 13 18  1  0  0  0  0
 14 19  2  0  0  0  0
 15 23  1  0  0  0  0
 16 21  2  0  0  0  0
 17 21  1  0  0  0  0
 18 22  2  0  0  0  0
 19 22  1  0  0  0  0
 21 23  1  0  0  0  0
 22 23  1  0  0  0  0
  2 24  1  0  0  0  0
  4 25  1  0  0  0  0
  4 26  1  0  0  0  0
  5 27  1  0  0  0  0
  5 28  1  0  0  0  0
  6 29  1  0  0  0  0
  6 30  1  0  0  0  0
  7 31  1  0  0  0  0
  7 32  1  0  0  0  0
  8 33  1  0  0  0  0
  8 34  1  0  0  0  0
  9 35  1  0  0  0  0
 10 36  1  0  0  0  0
 11 37  1  0  0  0  0
 12 38  1  0  0  0  0
 13 39  1  0  0  0  0
 14 40  1  0  0  0  0
 15 41  1  0  0  0  0
 15 42  1  0  0  0  0
 16 43  1  0  0  0  0
 17 44  1  0  0  0  0
 18 45  1  0  0  0  0
 19 46  1  0  0  0  0
 23 47  1  0  0  0  0
M  END
> <pdb_id>
5AKL

> <uniprot_id>
P34913

> <usmiles>
O=C(N1CCCC1)NCCC(c2ccccc2)c3ccccc3

$$$$
6NF_A_1558
          07202405383D 1   1.00000     0.00000     0
            
 39 41  0  0  0  0            999 V2000
   -1.7660    0.4384   34.6553 N   0  0  0  0  0  0  0  0  0  0  0  0
   -4.3078    4.8763   30.9873 N   0  0  0  0  0  0  0  0  0  0  0  0
   -4.3700    4.0113   32.0206 N   0  0  0  0  0  0  0  0  0  0  0  0
   -2.6243    5.7717   29.5064 N   0  0  0  0  0  0  0  0  0  0  0  0
   -1.0707    0.9271   33.6182 C   0  0  0  0  0  0  0  0  0  0  0  0
   -2.9138    1.0795   34.9386 C   0  0  0  0  0  0  0  0  0  0  0  0
   -4.1380   10.4220   28.1624 C   0  0  0  0  0  0  0  0  0  0  0  0
   -3.1634    9.9663   29.2357 C   0  0  0  0  0  0  0  0  0  0  0  0
   -5.3683    9.5261   28.1056 C   0  0  0  0  0  0  0  0  0  0  0  0
   -3.5729    6.2193   28.5153 C   0  0  0  0  0  0  0  0  0  0  0  0
   -1.4884    1.9988   32.8590 C   0  0  0  0  0  0  0  0  0  0  0  0
   -3.4093    2.1754   34.2597 C   0  0  0  0  0  0  0  0  0  0  0  0
   -2.7775    8.5062   29.0423 C   0  0  0  0  0  0  0  0  0  0  0  0
   -4.9467    8.1026   27.7883 C   0  0  0  0  0  0  0  0  0  0  0  0
   -2.2443    4.3430   31.4242 C   0  0  0  0  0  0  0  0  0  0  0  0
   -3.0289    5.0434   30.5569 C   0  0  0  0  0  0  0  0  0  0  0  0
   -4.0002    7.6133   28.8789 C   0  0  0  0  0  0  0  0  0  0  0  0
   -3.1006    3.6967   32.3221 C   0  0  0  0  0  0  0  0  0  0  0  0
   -2.6657    2.6445   33.1958 C   0  0  0  0  0  0  0  0  0  0  0  0
   -5.1959    3.6726   32.4713 H   0  0  0  0  0  0  0  0  0  0  0  0
   -1.6572    6.0066   29.4089 H   0  0  0  0  0  0  0  0  0  0  0  0
   -0.2023    0.4905   33.3830 H   0  0  0  0  0  0  0  0  0  0  0  0
   -3.4541    0.7335   35.7057 H   0  0  0  0  0  0  0  0  0  0  0  0
   -3.6778   10.3981   27.2749 H   0  0  0  0  0  0  0  0  0  0  0  0
   -4.4271   11.3580   28.3628 H   0  0  0  0  0  0  0  0  0  0  0  0
   -3.5916   10.0747   30.1328 H   0  0  0  0  0  0  0  0  0  0  0  0
   -2.3392   10.5307   29.1893 H   0  0  0  0  0  0  0  0  0  0  0  0
   -5.9879    9.8563   27.3935 H   0  0  0  0  0  0  0  0  0  0  0  0
   -5.8355    9.5458   28.9895 H   0  0  0  0  0  0  0  0  0  0  0  0
   -4.3673    5.6120   28.5070 H   0  0  0  0  0  0  0  0  0  0  0  0
   -3.1447    6.2204   27.6116 H   0  0  0  0  0  0  0  0  0  0  0  0
   -0.9484    2.3058   32.0753 H   0  0  0  0  0  0  0  0  0  0  0  0
   -4.2692    2.6100   34.5272 H   0  0  0  0  0  0  0  0  0  0  0  0
   -2.2581    8.2005   29.8403 H   0  0  0  0  0  0  0  0  0  0  0  0
   -2.2081    8.4279   28.2239 H   0  0  0  0  0  0  0  0  0  0  0  0
   -4.4803    8.0798   26.9040 H   0  0  0  0  0  0  0  0  0  0  0  0
   -5.7537    7.5131   27.7548 H   0  0  0  0  0  0  0  0  0  0  0  0
   -1.2453    4.2994   31.4195 H   0  0  0  0  0  0  0  0  0  0  0  0
   -4.4960    7.5828   29.7468 H   0  0  0  0  0  0  0  0  0  0  0  0
  1  5  2  0  0  0  0
  1  6  1  0  0  0  0
  2  3  1  0  0  0  0
  2 16  2  0  0  0  0
  3 18  1  0  0  0  0
  4 10  1  0  0  0  0
  4 16  1  0  0  0  0
  5 11  1  0  0  0  0
  6 12  2  0  0  0  0
  7  8  1  0  0  0  0
  7  9  1  0  0  0  0
  8 13  1  0  0  0  0
  9 14  1  0  0  0  0
 10 17  1  0  0  0  0
 11 19  2  0  0  0  0
 12 19  1  0  0  0  0
 13 17  1  0  0  0  0
 14 17  1  0  0  0  0
 15 16  1  0  0  0  0
 15 18  2  0  0  0  0
 18 19  1  0  0  0  0
  3 20  1  0  0  0  0
  4 21  1  0  0  0  0
  5 22  1  0  0  0  0
  6 23  1  0  0  0  0
  7 24  1  0  0  0  0
  7 25  1  0  0  0  0
  8 26  1  0  0  0  0
  8 27  1  0  0  0  0
  9 28  1  0  0  0  0
  9 29  1  0  0  0  0
 10 30  1  0  0  0  0
 10 31  1  0  0  0  0
 11 32  1  0  0  0  0
 12 33  1  0  0  0  0
 13 34  1  0  0  0  0
 13 35  1  0  0  0  0
 14 36  1  0  0  0  0
 14 37  1  0  0  0  0
 15 38  1  0  0  0  0
 17 39  1  0  0  0  0
M  END
> <pdb_id>
5AKI

> <uniprot_id>
P34913

> <usmiles>
n1ccc(cc1)C=2NN=C(NCC3CCCCC3)C2

$$$$
6NM_A_1552
          07202405383D 1   1.00000     0.00000     0
            
 31 33  0  0  0  0            999 V2000
   -6.7487    8.4963   26.5059 F   0  0  0  0  0  0  0  0  0  0  0  0
   -7.3334    8.8773   28.5483 F   0  0  0  0  0  0  0  0  0  0  0  0
   -6.1694   10.3535   27.4674 F   0  0  0  0  0  0  0  0  0  0  0  0
   -1.1361   10.0386   32.1693 N   0  0  0  0  0  0  0  0  0  0  0  0
   -1.7332    9.0242   31.5384 N   0  0  0  0  0  0  0  0  0  0  0  0
   -3.2352   14.1228   27.8235 N   0  0  0  0  0  0  0  0  0  0  0  0
   -2.8620   12.9183   27.3640 C   0  0  0  0  0  0  0  0  0  0  0  0
   -3.2172   14.2718   29.1572 C   0  0  0  0  0  0  0  0  0  0  0  0
   -1.3283   11.2405   31.5586 C   0  0  0  0  0  0  0  0  0  0  0  0
   -3.4339    6.6866   28.3730 C   0  0  0  0  0  0  0  0  0  0  0  0
   -2.4793   11.8565   28.1578 C   0  0  0  0  0  0  0  0  0  0  0  0
   -2.8443   13.2739   30.0339 C   0  0  0  0  0  0  0  0  0  0  0  0
   -2.6676    7.4626   29.2173 C   0  0  0  0  0  0  0  0  0  0  0  0
   -4.6135    7.1725   27.8534 C   0  0  0  0  0  0  0  0  0  0  0  0
   -4.2696    9.2080   29.0412 C   0  0  0  0  0  0  0  0  0  0  0  0
   -2.3046    9.5751   30.4543 C   0  0  0  0  0  0  0  0  0  0  0  0
   -3.0746    8.7416   29.5478 C   0  0  0  0  0  0  0  0  0  0  0  0
   -2.4743   12.0398   29.5257 C   0  0  0  0  0  0  0  0  0  0  0  0
   -2.0702   10.9793   30.4269 C   0  0  0  0  0  0  0  0  0  0  0  0
   -5.0333    8.4413   28.1867 C   0  0  0  0  0  0  0  0  0  0  0  0
   -6.3036    9.0200   27.6764 C   0  0  0  0  0  0  0  0  0  0  0  0
   -0.6011    9.9267   33.0067 H   0  0  0  0  0  0  0  0  0  0  0  0
   -2.8613   12.7802   26.3736 H   0  0  0  0  0  0  0  0  0  0  0  0
   -3.4893   15.1560   29.5369 H   0  0  0  0  0  0  0  0  0  0  0  0
   -0.9980   12.1320   31.8685 H   0  0  0  0  0  0  0  0  0  0  0  0
   -3.1307    5.7636   28.1360 H   0  0  0  0  0  0  0  0  0  0  0  0
   -2.2136   10.9810   27.7542 H   0  0  0  0  0  0  0  0  0  0  0  0
   -2.8412   13.4389   31.0201 H   0  0  0  0  0  0  0  0  0  0  0  0
   -1.8147    7.0987   29.5916 H   0  0  0  0  0  0  0  0  0  0  0  0
   -5.1622    6.6071   27.2376 H   0  0  0  0  0  0  0  0  0  0  0  0
   -4.5885   10.1202   29.2987 H   0  0  0  0  0  0  0  0  0  0  0  0
  1 21  1  0  0  0  0
  2 21  1  0  0  0  0
  3 21  1  0  0  0  0
  4  5  1  0  0  0  0
  4  9  1  0  0  0  0
  5 16  2  0  0  0  0
  6  7  2  0  0  0  0
  6  8  1  0  0  0  0
  7 11  1  0  0  0  0
  8 12  2  0  0  0  0
  9 19  2  0  0  0  0
 10 13  2  0  0  0  0
 10 14  1  0  0  0  0
 11 18  2  0  0  0  0
 12 18  1  0  0  0  0
 13 17  1  0  0  0  0
 14 20  2  0  0  0  0
 15 17  2  0  0  0  0
 15 20  1  0  0  0  0
 16 17  1  0  0  0  0
 16 19  1  0  0  0  0
 18 19  1  0  0  0  0
 20 21  1  0  0  0  0
  4 22  1  0  0  0  0
  7 23  1  0  0  0  0
  8 24  1  0  0  0  0
  9 25  1  0  0  0  0
 10 26  1  0  0  0  0
 11 27  1  0  0  0  0
 12 28  1  0  0  0  0
 13 29  1  0  0  0  0
 14 30  1  0  0  0  0
 15 31  1  0  0  0  0
M  END
> <pdb_id>
5AKH

> <uniprot_id>
P34913

> <usmiles>
FC(F)(F)c1cc(ccc1)C2=NNC=C2c3ccncc3

$$$$
6OS_A_501
          07202406313D 1   1.00000     0.00000     0
            
 32 34  0  0  0  0            999 V2000
  -32.0660  -26.4470   -5.3880 O   0  0  0  0  0  0  0  0  0  0  0  0
  -26.8160  -24.6810   -4.6070 O   0  0  0  0  0  0  0  0  0  0  0  0
  -29.0970  -23.7780   -5.8570 O   0  0  0  0  0  0  0  0  0  0  0  0
  -23.9380  -31.4650   -3.8240 N   0  0  0  0  0  0  0  0  0  0  0  0
  -25.1610  -30.3610   -2.1400 N   0  0  0  0  0  0  0  0  0  0  0  0
  -26.6550  -28.5780   -2.5700 N   0  0  0  0  0  0  0  0  0  0  0  0
  -25.4200  -29.4600   -5.7530 N   0  0  0  0  0  0  0  0  0  0  0  0
  -26.8320  -27.9510   -4.9190 N   0  0  0  0  0  0  0  0  0  0  0  0
  -26.0380  -29.4250   -1.7320 C   0  0  0  0  0  0  0  0  0  0  0  0
  -31.1510  -26.0990   -6.4450 C   0  0  0  0  0  0  0  0  0  0  0  0
  -26.2670  -28.4390   -6.0450 C   0  0  0  0  0  0  0  0  0  0  0  0
  -29.2400  -27.1510   -5.2270 C   0  0  0  0  0  0  0  0  0  0  0  0
  -24.8220  -30.5210   -3.4390 C   0  0  0  0  0  0  0  0  0  0  0  0
  -27.4100  -25.6110   -5.5100 C   0  0  2  0  0  0  0  0  0  0  0  0
  -28.6770  -25.0980   -6.2190 C   0  0  1  0  0  0  0  0  0  0  0  0
  -26.4030  -28.6410   -3.8940 C   0  0  0  0  0  0  0  0  0  0  0  0
  -25.4630  -29.6310   -4.4220 C   0  0  0  0  0  0  0  0  0  0  0  0
  -27.8280  -26.8730   -4.7760 C   0  0  2  0  0  0  0  0  0  0  0  0
  -29.7150  -26.1460   -5.9480 C   0  0  0  0  0  0  0  0  0  0  0  0
  -33.0037  -26.4106   -5.7334 H   0  0  0  0  0  0  0  0  0  0  0  0
  -26.0038  -25.0914   -4.1923 H   0  0  0  0  0  0  0  0  0  0  0  0
  -29.9225  -23.5389   -6.3683 H   0  0  0  0  0  0  0  0  0  0  0  0
  -23.7025  -31.5649   -4.7907 H   0  0  0  0  0  0  0  0  0  0  0  0
  -23.5184  -32.0647   -3.1426 H   0  0  0  0  0  0  0  0  0  0  0  0
  -26.2399  -29.3574   -0.7549 H   0  0  0  0  0  0  0  0  0  0  0  0
  -31.3571  -25.1749   -6.7669 H   0  0  0  0  0  0  0  0  0  0  0  0
  -31.2589  -26.7466   -7.1993 H   0  0  0  0  0  0  0  0  0  0  0  0
  -26.4475  -28.0957   -6.9667 H   0  0  0  0  0  0  0  0  0  0  0  0
  -29.7501  -27.9834   -5.0106 H   0  0  0  0  0  0  0  0  0  0  0  0
  -26.7338  -25.8562   -6.2047 H   0  0  0  0  0  0  0  0  0  0  0  0
  -28.4952  -25.0990   -7.2023 H   0  0  0  0  0  0  0  0  0  0  0  0
  -27.8722  -26.6438   -3.8036 H   0  0  0  0  0  0  0  0  0  0  0  0
  1 10  1  0  0  0  0
  2 14  1  0  0  0  0
  3 15  1  0  0  0  0
  4 13  1  0  0  0  0
  5  9  1  0  0  0  0
  5 13  2  0  0  0  0
  6  9  2  0  0  0  0
  6 16  1  0  0  0  0
  7 11  2  0  0  0  0
  7 17  1  0  0  0  0
  8 11  1  0  0  0  0
  8 16  1  0  0  0  0
  8 18  1  0  0  0  0
 10 19  1  0  0  0  0
 12 18  1  0  0  0  0
 12 19  2  0  0  0  0
 13 17  1  0  0  0  0
 14 15  1  0  0  0  0
 14 18  1  0  0  0  0
 15 19  1  0  0  0  0
 16 17  2  0  0  0  0
  1 20  1  0  0  0  0
  2 21  1  0  0  0  0
  3 22  1  0  0  0  0
  4 23  1  0  0  0  0
  4 24  1  0  0  0  0
  9 25  1  0  0  0  0
 10 26  1  0  0  0  0
 10 27  1  0  0  0  0
 11 28  1  0  0  0  0
 12 29  1  0  0  0  0
 14 30  1  0  0  0  0
 15 31  1  0  0  0  0
 18 32  1  0  0  0  0
M  END
> <pdb_id>
5JXW

> <uniprot_id>
Q5CPH1

> <usmiles>
O[C@@H]1C(=C[C@@H](N2c3ncnc(N)c3N=C2)[C@@H]1O)CO

$$$$
6OV_H_308
          07202416143D 1   1.00000     0.00000     0
            
 62 64  0  0  0  0            999 V2000
   12.0604  -13.3009   15.9820 O   0  0  0  0  0  0  0  0  0  0  0  0
   12.0326  -13.3993   12.7046 O   0  0  0  0  0  0  0  0  0  0  0  0
   17.9769  -10.1094   10.8094 N   0  0  0  0  0  0  0  0  0  0  0  0
   18.3786  -12.3169   11.1432 N   0  0  0  0  0  0  0  0  0  0  0  0
   12.3088  -16.1162   12.4283 N   0  0  0  0  0  0  0  0  0  0  0  0
   12.4073  -11.2504   15.1208 N   0  0  0  0  0  0  0  0  0  0  0  0
   10.1888  -13.7171   13.9355 N   0  0  0  0  0  0  0  0  0  0  0  0
   13.7574  -11.1422   15.6652 C   0  0  0  0  0  0  0  0  0  0  0  0
    9.0640  -14.4930   14.4904 C   0  0  0  0  0  0  0  0  0  0  0  0
    8.2514  -13.4679   15.2303 C   0  0  0  0  0  0  0  0  0  0  0  0
    6.2987  -14.9228    9.6908 C   0  0  0  0  0  0  0  0  0  0  0  0
    7.2909  -13.8614    9.2616 C   0  0  0  0  0  0  0  0  0  0  0  0
    6.5953  -15.4015   11.1065 C   0  0  0  0  0  0  0  0  0  0  0  0
    9.2037  -12.3380   15.5898 C   0  0  0  0  0  0  0  0  0  0  0  0
    8.7182  -14.3711    9.3964 C   0  0  0  0  0  0  0  0  0  0  0  0
    8.0266  -15.9093   11.2373 C   0  0  0  0  0  0  0  0  0  0  0  0
   15.1765  -12.3837   13.9787 C   0  0  0  0  0  0  0  0  0  0  0  0
   15.3565  -10.0210   14.0945 C   0  0  0  0  0  0  0  0  0  0  0  0
   16.1154  -12.4086   12.9673 C   0  0  0  0  0  0  0  0  0  0  0  0
   16.2905  -10.0398   13.0791 C   0  0  0  0  0  0  0  0  0  0  0  0
   10.4752  -15.3498   10.9400 C   0  0  0  0  0  0  0  0  0  0  0  0
   17.7225  -11.2501   11.4580 C   0  0  0  0  0  0  0  0  0  0  0  0
   11.6926  -12.3605   15.2673 C   0  0  0  0  0  0  0  0  0  0  0  0
   11.0980  -14.1139   13.0308 C   0  0  0  0  0  0  0  0  0  0  0  0
   10.9638  -15.5120   12.3838 C   0  0  2  0  0  0  0  0  0  0  0  0
   10.3415  -12.3960   14.5646 C   0  0  1  0  0  0  0  0  0  0  0  0
   14.7845  -11.1906   14.5628 C   0  0  0  0  0  0  0  0  0  0  0  0
    9.0389  -14.8460   10.8142 C   0  0  0  0  0  0  0  0  0  0  0  0
   16.6855  -11.2269   12.4981 C   0  0  0  0  0  0  0  0  0  0  0  0
   17.4747   -9.2775   11.0453 H   0  0  0  0  0  0  0  0  0  0  0  0
   18.6694  -10.0880   10.0884 H   0  0  0  0  0  0  0  0  0  0  0  0
   18.1962  -13.1756   11.6221 H   0  0  0  0  0  0  0  0  0  0  0  0
   12.6009  -16.2097   13.3801 H   0  0  0  0  0  0  0  0  0  0  0  0
   12.2834  -17.0182   11.9973 H   0  0  0  0  0  0  0  0  0  0  0  0
   12.0131  -10.4744   14.6284 H   0  0  0  0  0  0  0  0  0  0  0  0
   13.9181  -11.9008   16.2966 H   0  0  0  0  0  0  0  0  0  0  0  0
   13.8443  -10.2755   16.1565 H   0  0  0  0  0  0  0  0  0  0  0  0
    9.3938  -15.2030   15.1127 H   0  0  0  0  0  0  0  0  0  0  0  0
    8.5266  -14.9137   13.7595 H   0  0  0  0  0  0  0  0  0  0  0  0
    7.8624  -13.8687   16.0598 H   0  0  0  0  0  0  0  0  0  0  0  0
    7.5140  -13.1259   14.6479 H   0  0  0  0  0  0  0  0  0  0  0  0
    6.3575  -15.6992    9.0633 H   0  0  0  0  0  0  0  0  0  0  0  0
    5.3755  -14.5395    9.6611 H   0  0  0  0  0  0  0  0  0  0  0  0
    7.1757  -13.0524    9.8381 H   0  0  0  0  0  0  0  0  0  0  0  0
    7.1184  -13.6178    8.3072 H   0  0  0  0  0  0  0  0  0  0  0  0
    5.9653  -16.1430   11.3372 H   0  0  0  0  0  0  0  0  0  0  0  0
    6.4613  -14.6406   11.7413 H   0  0  0  0  0  0  0  0  0  0  0  0
    9.5628  -12.4680   16.5140 H   0  0  0  0  0  0  0  0  0  0  0  0
    8.7330  -11.4574   15.5359 H   0  0  0  0  0  0  0  0  0  0  0  0
    9.3470  -13.6316    9.1559 H   0  0  0  0  0  0  0  0  0  0  0  0
    8.8465  -15.1361    8.7652 H   0  0  0  0  0  0  0  0  0  0  0  0
    8.1399  -16.7152   10.6562 H   0  0  0  0  0  0  0  0  0  0  0  0
    8.1970  -16.1590   12.1905 H   0  0  0  0  0  0  0  0  0  0  0  0
   14.7723  -13.2419   14.2952 H   0  0  0  0  0  0  0  0  0  0  0  0
   15.0883   -9.1467   14.4991 H   0  0  0  0  0  0  0  0  0  0  0  0
   16.3891  -13.2832   12.5673 H   0  0  0  0  0  0  0  0  0  0  0  0
   16.6872   -9.1793   12.7594 H   0  0  0  0  0  0  0  0  0  0  0  0
   10.5357  -16.2394   10.4873 H   0  0  0  0  0  0  0  0  0  0  0  0
   11.0769  -14.6987   10.4773 H   0  0  0  0  0  0  0  0  0  0  0  0
   10.3185  -16.0711   12.9043 H   0  0  0  0  0  0  0  0  0  0  0  0
   10.2622  -11.6609   13.8912 H   0  0  0  0  0  0  0  0  0  0  0  0
    8.9348  -14.0640   11.4287 H   0  0  0  0  0  0  0  0  0  0  0  0
  1 23  2  0  0  0  0
  2 24  2  0  0  0  0
  3 22  1  0  0  0  0
  4 22  2  0  0  0  0
  5 25  1  0  0  0  0
  6  8  1  0  0  0  0
  6 23  1  0  0  0  0
  7  9  1  0  0  0  0
  7 24  1  0  0  0  0
  7 26  1  0  0  0  0
  8 27  1  0  0  0  0
  9 10  1  0  0  0  0
 10 14  1  0  0  0  0
 11 12  1  0  0  0  0
 11 13  1  0  0  0  0
 12 15  1  0  0  0  0
 13 16  1  0  0  0  0
 14 26  1  0  0  0  0
 15 28  1  0  0  0  0
 16 28  1  0  0  0  0
 17 19  1  0  0  0  0
 17 27  2  0  0  0  0
 18 20  2  0  0  0  0
 18 27  1  0  0  0  0
 19 29  2  0  0  0  0
 20 29  1  0  0  0  0
 21 25  1  0  0  0  0
 21 28  1  0  0  0  0
 22 29  1  0  0  0  0
 23 26  1  0  0  0  0
 24 25  1  0  0  0  0
  3 30  1  0  0  0  0
  3 31  1  0  0  0  0
  4 32  1  0  0  0  0
  5 33  1  0  0  0  0
  5 34  1  0  0  0  0
  6 35  1  0  0  0  0
  8 36  1  0  0  0  0
  8 37  1  0  0  0  0
  9 38  1  0  0  0  0
  9 39  1  0  0  0  0
 10 40  1  0  0  0  0
 10 41  1  0  0  0  0
 11 42  1  0  0  0  0
 11 43  1  0  0  0  0
 12 44  1  0  0  0  0
 12 45  1  0  0  0  0
 13 46  1  0  0  0  0
 13 47  1  0  0  0  0
 14 48  1  0  0  0  0
 14 49  1  0  0  0  0
 15 50  1  0  0  0  0
 15 51  1  0  0  0  0
 16 52  1  0  0  0  0
 16 53  1  0  0  0  0
 17 54  1  0  0  0  0
 18 55  1  0  0  0  0
 19 56  1  0  0  0  0
 20 57  1  0  0  0  0
 21 58  1  0  0  0  0
 21 59  1  0  0  0  0
 25 60  1  0  0  0  0
 26 61  1  0  0  0  0
 28 62  1  0  0  0  0
M  END
> <pdb_id>
5JZY

> <uniprot_id>
P00734

> <usmiles>
O=C(N1[C@H](C(=O)NCc2ccc(cc2)C(=N)N)CCC1)[C@H](N)CC3CCCCC3

$$$$
6P2_B_303
          07202404233D 1   1.00000     0.00000     0
            
 42 45  0  0  0  0            999 V2000
   14.5699  -32.0261   11.5970 S   0  0  0  0  0  0  0  0  0  0  0  0
   21.3976  -33.0346    7.8364 O   0  0  0  0  0  0  0  0  0  0  0  0
   16.7939  -30.0262   14.1481 N   0  0  0  0  0  0  0  0  0  0  0  0
   18.1432  -29.8117   14.0857 N   0  0  0  0  0  0  0  0  0  0  0  0
   12.6024  -30.9665   12.5738 N   0  0  0  0  0  0  0  0  0  0  0  0
   21.6421  -34.3908    7.9798 C   0  0  0  0  0  0  0  0  0  0  0  0
   12.0431  -32.8380   10.9160 C   0  0  0  0  0  0  0  0  0  0  0  0
   13.8059  -29.1740   14.1690 C   0  0  0  0  0  0  0  0  0  0  0  0
   20.5942  -30.9919    8.8053 C   0  0  0  0  0  0  0  0  0  0  0  0
   21.1673  -32.8861   10.2106 C   0  0  0  0  0  0  0  0  0  0  0  0
   20.2633  -30.2612    9.9438 C   0  0  0  0  0  0  0  0  0  0  0  0
   20.8276  -32.1618   11.3428 C   0  0  0  0  0  0  0  0  0  0  0  0
   17.5196  -30.6401   12.1287 C   0  0  0  0  0  0  0  0  0  0  0  0
   20.7135  -28.7987   12.6820 C   0  0  0  0  0  0  0  0  0  0  0  0
   21.0402  -30.0109   13.4921 C   0  0  0  0  0  0  0  0  0  0  0  0
   13.0152  -31.9843   11.6629 C   0  0  0  0  0  0  0  0  0  0  0  0
   15.0208  -30.9208   12.5911 C   0  0  0  0  0  0  0  0  0  0  0  0
   21.0531  -32.2999    8.9485 C   0  0  0  0  0  0  0  0  0  0  0  0
   13.8588  -30.2852   13.1807 C   0  0  0  0  0  0  0  0  0  0  0  0
   16.4120  -30.5306   12.9387 C   0  0  0  0  0  0  0  0  0  0  0  0
   18.5897  -30.1876   12.8750 C   0  0  0  0  0  0  0  0  0  0  0  0
   20.3893  -30.8496   11.2005 C   0  0  0  0  0  0  0  0  0  0  0  0
   20.0006  -30.0927   12.4182 C   0  0  0  0  0  0  0  0  0  0  0  0
   16.1993  -29.8473   14.9320 H   0  0  0  0  0  0  0  0  0  0  0  0
   21.8786  -34.7827    7.0907 H   0  0  0  0  0  0  0  0  0  0  0  0
   22.4009  -34.5273    8.6167 H   0  0  0  0  0  0  0  0  0  0  0  0
   20.8232  -34.8414    8.3355 H   0  0  0  0  0  0  0  0  0  0  0  0
   11.1104  -32.5779   11.1660 H   0  0  0  0  0  0  0  0  0  0  0  0
   12.1730  -32.7090    9.9329 H   0  0  0  0  0  0  0  0  0  0  0  0
   12.1952  -33.7984   11.1491 H   0  0  0  0  0  0  0  0  0  0  0  0
   14.7363  -28.9004   14.4131 H   0  0  0  0  0  0  0  0  0  0  0  0
   13.3234  -28.3948   13.7690 H   0  0  0  0  0  0  0  0  0  0  0  0
   13.3225  -29.4801   14.9892 H   0  0  0  0  0  0  0  0  0  0  0  0
   20.5036  -30.5834    7.8970 H   0  0  0  0  0  0  0  0  0  0  0  0
   21.4937  -33.8273   10.2977 H   0  0  0  0  0  0  0  0  0  0  0  0
   19.9373  -29.3196    9.8599 H   0  0  0  0  0  0  0  0  0  0  0  0
   20.8967  -32.5774   12.2498 H   0  0  0  0  0  0  0  0  0  0  0  0
   17.5444  -30.9794   11.1884 H   0  0  0  0  0  0  0  0  0  0  0  0
   21.3744  -28.4476   12.0186 H   0  0  0  0  0  0  0  0  0  0  0  0
   20.2236  -28.0343   13.1011 H   0  0  0  0  0  0  0  0  0  0  0  0
   20.7696  -30.0568   14.4537 H   0  0  0  0  0  0  0  0  0  0  0  0
   21.9203  -30.4701   13.3712 H   0  0  0  0  0  0  0  0  0  0  0  0
  1 16  1  0  0  0  0
  1 17  1  0  0  0  0
  2  6  1  0  0  0  0
  2 18  1  0  0  0  0
  3  4  1  0  0  0  0
  3 20  1  0  0  0  0
  4 21  2  0  0  0  0
  5 16  2  0  0  0  0
  5 19  1  0  0  0  0
  7 16  1  0  0  0  0
  8 19  1  0  0  0  0
  9 11  2  0  0  0  0
  9 18  1  0  0  0  0
 10 12  1  0  0  0  0
 10 18  2  0  0  0  0
 11 22  1  0  0  0  0
 12 22  2  0  0  0  0
 13 20  2  0  0  0  0
 13 21  1  0  0  0  0
 14 15  1  0  0  0  0
 14 23  1  0  0  0  0
 15 23  1  0  0  0  0
 17 19  2  0  0  0  0
 17 20  1  0  0  0  0
 21 23  1  0  0  0  0
 22 23  1  0  0  0  0
  3 24  1  0  0  0  0
  6 25  1  0  0  0  0
  6 26  1  0  0  0  0
  6 27  1  0  0  0  0
  7 28  1  0  0  0  0
  7 29  1  0  0  0  0
  7 30  1  0  0  0  0
  8 31  1  0  0  0  0
  8 32  1  0  0  0  0
  8 33  1  0  0  0  0
  9 34  1  0  0  0  0
 10 35  1  0  0  0  0
 11 36  1  0  0  0  0
 12 37  1  0  0  0  0
 13 38  1  0  0  0  0
 14 39  1  0  0  0  0
 14 40  1  0  0  0  0
 15 41  1  0  0  0  0
 15 42  1  0  0  0  0
M  END
> <pdb_id>
5K0J

> <uniprot_id>
P22734

> <usmiles>
S1C(=NC(=C1C=2NN=C(C2)C3(c4ccc(OC)cc4)CC3)C)C

$$$$
6PG_A_1471
          07192421233D 1   1.00000     0.00000     0
            
 30 29  0  0  0  0            999 V2000
   44.4820   20.9660   27.3670 P   0  0  0  0  0  0  0  0  0  0  0  0
   45.9480   20.4560   27.7940 O   0  0  0  0  0  0  0  0  0  0  0  0
   43.5080   20.4560   28.5180 O   0  0  0  0  0  0  0  0  0  0  0  0
   44.4400   22.4450   27.2340 O   0  0  0  0  0  0  0  0  0  0  0  0
   42.1780   17.0910   20.6370 O   0  0  0  0  0  0  0  0  0  0  0  0
   42.4320   18.8500   19.4800 O   0  0  0  0  0  0  0  0  0  0  0  0
   42.9430   22.4860   25.0690 O   0  0  0  0  0  0  0  0  0  0  0  0
   43.1800   18.1160   22.8990 O   0  0  0  0  0  0  0  0  0  0  0  0
   44.0500   21.4320   22.6310 O   0  0  0  0  0  0  0  0  0  0  0  0
   40.8020   19.6620   22.7040 O   0  0  0  0  0  0  0  0  0  0  0  0
   44.2120   20.2180   25.9490 O   0  0  0  0  0  0  0  0  0  0  0  0
   42.9490   20.0740   25.2820 C   0  0  0  0  0  0  0  0  0  0  0  0
   42.5120   18.2710   20.5620 C   0  0  0  0  0  0  0  0  0  0  0  0
   42.4280   21.2970   24.4900 C   0  0  2  0  0  0  0  0  0  0  0  0
   43.0140   19.0210   21.7960 C   0  0  1  0  0  0  0  0  0  0  0  0
   42.6580   21.3250   22.9430 C   0  0  2  0  0  0  0  0  0  0  0  0
   42.0180   20.1720   22.1180 C   0  0  2  0  0  0  0  0  0  0  0  0
   46.6147   20.7453   27.1072 H   0  0  0  0  0  0  0  0  0  0  0  0
   42.5718   20.7415   28.3132 H   0  0  0  0  0  0  0  0  0  0  0  0
   42.2383   16.6089   21.5110 H   0  0  0  0  0  0  0  0  0  0  0  0
   42.6075   23.2778   24.5586 H   0  0  0  0  0  0  0  0  0  0  0  0
   43.5083   18.6205   23.6976 H   0  0  0  0  0  0  0  0  0  0  0  0
   44.1688   21.4478   21.6382 H   0  0  0  0  0  0  0  0  0  0  0  0
   40.1822   20.4219   22.9000 H   0  0  0  0  0  0  0  0  0  0  0  0
   42.2650   19.8510   25.9765 H   0  0  0  0  0  0  0  0  0  0  0  0
   43.0325   19.3122   24.6396 H   0  0  0  0  0  0  0  0  0  0  0  0
   41.4379   21.3218   24.6284 H   0  0  0  0  0  0  0  0  0  0  0  0
   43.9037   19.4238   21.5809 H   0  0  0  0  0  0  0  0  0  0  0  0
   42.2344   22.1693   22.6148 H   0  0  0  0  0  0  0  0  0  0  0  0
   41.7579   20.5698   21.2382 H   0  0  0  0  0  0  0  0  0  0  0  0
  1  2  1  0  0  0  0
  1  3  1  0  0  0  0
  1  4  2  0  0  0  0
  1 11  1  0  0  0  0
  5 13  1  0  0  0  0
  6 13  2  0  0  0  0
  7 14  1  0  0  0  0
  8 15  1  0  0  0  0
  9 16  1  0  0  0  0
 10 17  1  0  0  0  0
 11 12  1  0  0  0  0
 12 14  1  0  0  0  0
 13 15  1  0  0  0  0
 14 16  1  0  0  0  0
 15 17  1  0  0  0  0
 16 17  1  0  0  0  0
  2 18  1  0  0  0  0
  3 19  1  0  0  0  0
  5 20  1  0  0  0  0
  7 21  1  0  0  0  0
  8 22  1  0  0  0  0
  9 23  1  0  0  0  0
 10 24  1  0  0  0  0
 12 25  1  0  0  0  0
 12 26  1  0  0  0  0
 14 27  1  0  0  0  0
 15 28  1  0  0  0  0
 16 29  1  0  0  0  0
 17 30  1  0  0  0  0
M  END
> <pdb_id>
2IYO

> <uniprot_id>
P96789

> <usmiles>
P(=O)(OC[C@@H](O)[C@@H](O)[C@H](O)[C@@H](O)C(=O)O)(O)O

$$$$
6PG_B_301
          07202403143D 1   1.00000     0.00000     0
            
 30 29  0  0  0  0            999 V2000
   -7.3650    6.3040  -13.5780 P   0  0  0  0  0  0  0  0  0  0  0  0
   -7.8330    6.9940  -12.3330 O   0  0  0  0  0  0  0  0  0  0  0  0
   -8.5740    6.1080  -14.4850 O   0  0  0  0  0  0  0  0  0  0  0  0
   -6.4290    7.1550  -14.3740 O   0  0  0  0  0  0  0  0  0  0  0  0
   -5.3710    7.9040   -7.6730 O   0  0  0  0  0  0  0  0  0  0  0  0
   -6.9970    6.4340   -7.4260 O   0  0  0  0  0  0  0  0  0  0  0  0
   -5.7040    2.7770  -11.4360 O   0  0  0  0  0  0  0  0  0  0  0  0
   -4.0080    6.4070   -9.3460 O   0  0  0  0  0  0  0  0  0  0  0  0
   -7.1690    5.8470  -10.1850 O   0  0  0  0  0  0  0  0  0  0  0  0
   -6.4500    3.9800   -8.0340 O   0  0  0  0  0  0  0  0  0  0  0  0
   -6.7300    4.9610  -13.2170 O   0  0  0  0  0  0  0  0  0  0  0  0
   -7.4720    4.0270  -12.4270 C   0  0  0  0  0  0  0  0  0  0  0  0
   -5.7540    6.7460   -7.7930 C   0  0  0  0  0  0  0  0  0  0  0  0
   -6.7700    3.6360  -11.1220 C   0  0  2  0  0  0  0  0  0  0  0  0
   -4.8030    5.7280   -8.3660 C   0  0  1  0  0  0  0  0  0  0  0  0
   -6.1800    4.8270  -10.3260 C   0  0  2  0  0  0  0  0  0  0  0  0
   -5.5150    4.4920   -8.9670 C   0  0  2  0  0  0  0  0  0  0  0  0
   -7.0569    7.1353  -11.7184 H   0  0  0  0  0  0  0  0  0  0  0  0
   -8.2888    5.6481  -15.3259 H   0  0  0  0  0  0  0  0  0  0  0  0
   -4.4414    8.1538   -7.9439 H   0  0  0  0  0  0  0  0  0  0  0  0
   -5.2323    2.5101  -10.5956 H   0  0  0  0  0  0  0  0  0  0  0  0
   -3.3597    5.7637   -9.7532 H   0  0  0  0  0  0  0  0  0  0  0  0
   -6.7856    6.6143   -9.6710 H   0  0  0  0  0  0  0  0  0  0  0  0
   -6.9082    3.1818   -8.4251 H   0  0  0  0  0  0  0  0  0  0  0  0
   -7.6168    3.1991  -12.9688 H   0  0  0  0  0  0  0  0  0  0  0  0
   -8.3560    4.4360  -12.2006 H   0  0  0  0  0  0  0  0  0  0  0  0
   -7.4190    3.1469  -10.5392 H   0  0  0  0  0  0  0  0  0  0  0  0
   -4.1984    5.4161   -7.6330 H   0  0  0  0  0  0  0  0  0  0  0  0
   -5.4593    5.2156  -10.9001 H   0  0  0  0  0  0  0  0  0  0  0  0
   -4.8241    3.7873   -9.1282 H   0  0  0  0  0  0  0  0  0  0  0  0
  1  2  1  0  0  0  0
  1  3  1  0  0  0  0
  1  4  2  0  0  0  0
  1 11  1  0  0  0  0
  5 13  1  0  0  0  0
  6 13  2  0  0  0  0
  7 14  1  0  0  0  0
  8 15  1  0  0  0  0
  9 16  1  0  0  0  0
 10 17  1  0  0  0  0
 11 12  1  0  0  0  0
 12 14  1  0  0  0  0
 13 15  1  0  0  0  0
 14 16  1  0  0  0  0
 15 17  1  0  0  0  0
 16 17  1  0  0  0  0
  2 18  1  0  0  0  0
  3 19  1  0  0  0  0
  5 20  1  0  0  0  0
  7 21  1  0  0  0  0
  8 22  1  0  0  0  0
  9 23  1  0  0  0  0
 10 24  1  0  0  0  0
 12 25  1  0  0  0  0
 12 26  1  0  0  0  0
 14 27  1  0  0  0  0
 15 28  1  0  0  0  0
 16 29  1  0  0  0  0
 17 30  1  0  0  0  0
M  END
> <pdb_id>
1QY4

> <uniprot_id>
P83194

> <usmiles>
P(=O)(OC[C@@H](O)[C@@H](O)[C@H](O)[C@@H](O)C(=O)O)(O)O

$$$$
6PR_A_331
          07192421153D 1   1.00000     0.00000     0
            
 27 26  0  0  0  0            999 V2000
   46.0204   29.6072   15.7969 P   0  0  0  0  0  0  0  0  0  0  0  0
   47.0622   28.3825   15.8887 O   0  0  0  0  0  0  0  0  0  0  0  0
   45.9556   30.2570   17.2679 O   0  0  0  0  0  0  0  0  0  0  0  0
   46.4103   30.5936   14.7646 O   0  0  0  0  0  0  0  0  0  0  0  0
   42.6220   29.7793   19.9334 O   0  0  0  0  0  0  0  0  0  0  0  0
   41.2063   28.1759   20.5348 O   0  0  0  0  0  0  0  0  0  0  0  0
   43.0006   31.9278   17.9560 O   0  0  0  0  0  0  0  0  0  0  0  0
   43.0034   30.7748   15.1651 O   0  0  0  0  0  0  0  0  0  0  0  0
   40.8332   32.3074   18.4652 N   0  0  0  0  0  0  0  0  0  0  0  0
   42.5715   29.4368   16.9434 N   0  0  0  0  0  0  0  0  0  0  0  0
   44.4059   28.8483   15.4938 C   0  0  0  0  0  0  0  0  0  0  0  0
   40.7136   29.3797   18.5522 C   0  0  0  0  0  0  0  0  0  0  0  0
   41.5944   29.0858   19.7721 C   0  0  0  0  0  0  0  0  0  0  0  0
   41.8261   31.5651   17.9841 C   0  0  0  0  0  0  0  0  0  0  0  0
   43.2485   29.7837   15.8516 C   0  0  0  0  0  0  0  0  0  0  0  0
   41.4139   30.1882   17.4551 C   0  0  1  0  0  0  0  0  0  0  0  0
   47.1389   27.9422   14.9942 H   0  0  0  0  0  0  0  0  0  0  0  0
   45.3179   31.0272   17.2643 H   0  0  0  0  0  0  0  0  0  0  0  0
   42.8558   30.4889   19.2686 H   0  0  0  0  0  0  0  0  0  0  0  0
   39.8974   31.9549   18.4599 H   0  0  0  0  0  0  0  0  0  0  0  0
   41.0224   33.2182   18.8324 H   0  0  0  0  0  0  0  0  0  0  0  0
   42.8650   28.6219   17.4432 H   0  0  0  0  0  0  0  0  0  0  0  0
   44.3316   28.0185   16.0470 H   0  0  0  0  0  0  0  0  0  0  0  0
   44.3393   28.6101   14.5249 H   0  0  0  0  0  0  0  0  0  0  0  0
   39.9134   29.8946   18.8595 H   0  0  0  0  0  0  0  0  0  0  0  0
   40.4189   28.5081   18.1604 H   0  0  0  0  0  0  0  0  0  0  0  0
   40.7686   30.3213   16.7028 H   0  0  0  0  0  0  0  0  0  0  0  0
  1  2  1  0  0  0  0
  1  3  1  0  0  0  0
  1  4  2  0  0  0  0
  1 11  1  0  0  0  0
  5 13  1  0  0  0  0
  6 13  2  0  0  0  0
  7 14  2  0  0  0  0
  8 15  2  0  0  0  0
  9 14  1  0  0  0  0
 10 15  1  0  0  0  0
 10 16  1  0  0  0  0
 11 15  1  0  0  0  0
 12 13  1  0  0  0  0
 12 16  1  0  0  0  0
 14 16  1  0  0  0  0
  2 17  1  0  0  0  0
  3 18  1  0  0  0  0
  5 19  1  0  0  0  0
  9 20  1  0  0  0  0
  9 21  1  0  0  0  0
 10 22  1  0  0  0  0
 11 23  1  0  0  0  0
 11 24  1  0  0  0  0
 12 25  1  0  0  0  0
 12 26  1  0  0  0  0
 16 27  1  0  0  0  0
M  END
> <pdb_id>
2H3E

> <uniprot_id>
P0A786

> <usmiles>
P(=O)(O)(O)CC(=O)N[C@H](C(=O)N)CC(=O)O

$$$$
6PU_A_501
          07202414183D 1   1.00000     0.00000     0
            
 69 73  0  0  0  0            999 V2000
  -15.7094   23.4762  -33.8088 S   0  0  0  0  0  0  0  0  0  0  0  0
  -14.6473   25.9946  -19.7162 F   0  0  0  0  0  0  0  0  0  0  0  0
  -16.0262   24.6438  -34.5661 O   0  0  0  0  0  0  0  0  0  0  0  0
  -16.3764   22.2551  -34.1243 O   0  0  0  0  0  0  0  0  0  0  0  0
  -16.0631   23.8267  -32.2532 N   0  0  0  0  0  0  0  0  0  0  0  0
  -18.8293   25.0263  -22.4094 N   0  0  0  0  0  0  0  0  0  0  0  0
  -16.7172   24.0416  -29.4774 N   0  0  0  0  0  0  0  0  0  0  0  0
  -15.2801   24.2238  -22.7271 N   0  0  0  0  0  0  0  0  0  0  0  0
  -13.9843   23.2077  -33.9216 C   0  0  0  0  0  0  0  0  0  0  0  0
  -18.9601   26.1443  -21.4699 C   0  0  0  0  0  0  0  0  0  0  0  0
  -19.9110   25.0424  -23.4099 C   0  0  0  0  0  0  0  0  0  0  0  0
  -17.4671   23.7424  -31.7972 C   0  0  0  0  0  0  0  0  0  0  0  0
  -15.1678   24.5067  -31.2966 C   0  0  0  0  0  0  0  0  0  0  0  0
  -17.5388   23.2254  -30.3737 C   0  0  0  0  0  0  0  0  0  0  0  0
  -15.3307   23.9129  -29.9234 C   0  0  0  0  0  0  0  0  0  0  0  0
  -16.3351   24.9927  -22.0457 C   0  0  0  0  0  0  0  0  0  0  0  0
  -16.0264   23.0218  -23.1157 C   0  0  0  0  0  0  0  0  0  0  0  0
  -11.7929   27.5240  -21.2631 C   0  0  0  0  0  0  0  0  0  0  0  0
  -12.8423   27.3119  -20.3888 C   0  0  0  0  0  0  0  0  0  0  0  0
  -16.1459   24.7458  -27.2116 C   0  0  0  0  0  0  0  0  0  0  0  0
  -17.8167   23.0531  -27.5169 C   0  0  0  0  0  0  0  0  0  0  0  0
  -11.5240   26.5978  -22.2579 C   0  0  0  0  0  0  0  0  0  0  0  0
  -12.9560   23.1899  -22.6434 C   0  0  0  0  0  0  0  0  0  0  0  0
  -16.2750   24.6150  -25.8427 C   0  0  0  0  0  0  0  0  0  0  0  0
  -17.9500   22.9494  -26.1422 C   0  0  0  0  0  0  0  0  0  0  0  0
  -12.1363   24.2903  -23.3301 C   0  0  0  0  0  0  0  0  0  0  0  0
  -13.5983   26.1772  -20.5431 C   0  0  0  0  0  0  0  0  0  0  0  0
  -16.9058   23.9570  -28.0785 C   0  0  0  0  0  0  0  0  0  0  0  0
  -17.4948   24.9217  -23.0332 C   0  0  1  0  0  0  0  0  0  0  0  0
  -14.0775   23.9432  -21.9096 C   0  0  1  0  0  0  0  0  0  0  0  0
  -17.1758   23.7161  -25.2859 C   0  0  0  0  0  0  0  0  0  0  0  0
  -12.2954   25.4454  -22.3793 C   0  0  0  0  0  0  0  0  0  0  0  0
  -17.2954   23.5627  -23.7816 C   0  0  1  0  0  0  0  0  0  0  0  0
  -13.3715   25.2190  -21.5192 C   0  0  0  0  0  0  0  0  0  0  0  0
  -13.7388   22.3925  -33.3971 H   0  0  0  0  0  0  0  0  0  0  0  0
  -13.7292   23.0770  -34.8796 H   0  0  0  0  0  0  0  0  0  0  0  0
  -13.4988   24.0002  -33.5525 H   0  0  0  0  0  0  0  0  0  0  0  0
  -18.2150   26.1090  -20.8038 H   0  0  0  0  0  0  0  0  0  0  0  0
  -18.9178   27.0082  -21.9718 H   0  0  0  0  0  0  0  0  0  0  0  0
  -19.8367   26.0784  -20.9932 H   0  0  0  0  0  0  0  0  0  0  0  0
  -19.7974   24.2710  -24.0361 H   0  0  0  0  0  0  0  0  0  0  0  0
  -20.7944   24.9686  -22.9470 H   0  0  0  0  0  0  0  0  0  0  0  0
  -19.8754   25.8984  -23.9256 H   0  0  0  0  0  0  0  0  0  0  0  0
  -17.9704   23.1211  -32.3978 H   0  0  0  0  0  0  0  0  0  0  0  0
  -17.8803   24.6522  -31.8371 H   0  0  0  0  0  0  0  0  0  0  0  0
  -15.3954   25.4800  -31.2652 H   0  0  0  0  0  0  0  0  0  0  0  0
  -14.2197   24.3956  -31.5946 H   0  0  0  0  0  0  0  0  0  0  0  0
  -18.4888   23.2535  -30.0630 H   0  0  0  0  0  0  0  0  0  0  0  0
  -17.2086   22.2817  -30.3515 H   0  0  0  0  0  0  0  0  0  0  0  0
  -15.0812   22.9449  -29.9506 H   0  0  0  0  0  0  0  0  0  0  0  0
  -14.7319   24.3936  -29.2828 H   0  0  0  0  0  0  0  0  0  0  0  0
  -16.0496   25.9388  -21.8925 H   0  0  0  0  0  0  0  0  0  0  0  0
  -16.5798   24.5727  -21.1717 H   0  0  0  0  0  0  0  0  0  0  0  0
  -16.2548   22.4716  -22.3125 H   0  0  0  0  0  0  0  0  0  0  0  0
  -15.4970   22.4687  -23.7591 H   0  0  0  0  0  0  0  0  0  0  0  0
  -11.2284   28.3451  -21.1777 H   0  0  0  0  0  0  0  0  0  0  0  0
  -13.0453   27.9685  -19.6624 H   0  0  0  0  0  0  0  0  0  0  0  0
  -15.5013   25.4123  -27.5862 H   0  0  0  0  0  0  0  0  0  0  0  0
  -18.3757   22.4775  -28.1137 H   0  0  0  0  0  0  0  0  0  0  0  0
  -10.7693   26.7585  -22.8941 H   0  0  0  0  0  0  0  0  0  0  0  0
  -12.3900   22.6804  -21.9953 H   0  0  0  0  0  0  0  0  0  0  0  0
  -13.3376   22.5598  -23.3197 H   0  0  0  0  0  0  0  0  0  0  0  0
  -15.7091   25.1784  -25.2407 H   0  0  0  0  0  0  0  0  0  0  0  0
  -18.6171   22.3096  -25.7606 H   0  0  0  0  0  0  0  0  0  0  0  0
  -12.5077   24.5096  -24.2323 H   0  0  0  0  0  0  0  0  0  0  0  0
  -11.1765   24.0246  -23.4204 H   0  0  0  0  0  0  0  0  0  0  0  0
  -17.3945   25.6654  -23.6942 H   0  0  0  0  0  0  0  0  0  0  0  0
  -14.3399   23.4384  -21.0871 H   0  0  0  0  0  0  0  0  0  0  0  0
  -18.0620   22.9556  -23.5721 H   0  0  0  0  0  0  0  0  0  0  0  0
  1  3  2  0  0  0  0
  1  4  2  0  0  0  0
  1  5  1  0  0  0  0
  1  9  1  0  0  0  0
  2 27  1  0  0  0  0
  5 12  1  0  0  0  0
  5 13  1  0  0  0  0
  6 10  1  0  0  0  0
  6 11  1  0  0  0  0
  6 29  1  0  0  0  0
  7 14  1  0  0  0  0
  7 15  1  0  0  0  0
  7 28  1  0  0  0  0
  8 16  1  0  0  0  0
  8 17  1  0  0  0  0
  8 30  1  0  0  0  0
 12 14  1  0  0  0  0
 13 15  1  0  0  0  0
 16 29  1  0  0  0  0
 17 33  1  0  0  0  0
 18 19  2  0  0  0  0
 18 22  1  0  0  0  0
 19 27  1  0  0  0  0
 20 24  2  0  0  0  0
 20 28  1  0  0  0  0
 21 25  1  0  0  0  0
 21 28  2  0  0  0  0
 22 32  2  0  0  0  0
 23 26  1  0  0  0  0
 23 30  1  0  0  0  0
 24 31  1  0  0  0  0
 25 31  2  0  0  0  0
 26 32  1  0  0  0  0
 27 34  2  0  0  0  0
 29 33  1  0  0  0  0
 30 34  1  0  0  0  0
 31 33  1  0  0  0  0
 32 34  1  0  0  0  0
  9 35  1  0  0  0  0
  9 36  1  0  0  0  0
  9 37  1  0  0  0  0
 10 38  1  0  0  0  0
 10 39  1  0  0  0  0
 10 40  1  0  0  0  0
 11 41  1  0  0  0  0
 11 42  1  0  0  0  0
 11 43  1  0  0  0  0
 12 44  1  0  0  0  0
 12 45  1  0  0  0  0
 13 46  1  0  0  0  0
 13 47  1  0  0  0  0
 14 48  1  0  0  0  0
 14 49  1  0  0  0  0
 15 50  1  0  0  0  0
 15 51  1  0  0  0  0
 16 52  1  0  0  0  0
 16 53  1  0  0  0  0
 17 54  1  0  0  0  0
 17 55  1  0  0  0  0
 18 56  1  0  0  0  0
 19 57  1  0  0  0  0
 20 58  1  0  0  0  0
 21 59  1  0  0  0  0
 22 60  1  0  0  0  0
 23 61  1  0  0  0  0
 23 62  1  0  0  0  0
 24 63  1  0  0  0  0
 25 64  1  0  0  0  0
 26 65  1  0  0  0  0
 26 66  1  0  0  0  0
 29 67  1  0  0  0  0
 30 68  1  0  0  0  0
 33 69  1  0  0  0  0
M  END
> <pdb_id>
5K0M

> <uniprot_id>
O75530

> <usmiles>
S(=O)(=O)(N1CCN(c2ccc(cc2)[C@@H]3[C@@H](N(C)C)CN([C@@H]4c5c(F)cccc5CC4)C3)CC1)C

$$$$
6Q3_A_201
          07192416543D 1   1.00000     0.00000     0
            
 26 26  0  0  0  0            999 V2000
   10.3666   21.4490    4.4145 O   0  0  0  0  0  0  0  0  0  0  0  0
   14.1697   22.8100    3.9060 O   0  0  0  0  0  0  0  0  0  0  0  0
   17.7344   20.2405    5.3556 N   0  0  0  0  0  0  0  0  0  0  0  0
   15.9254   21.4725    4.6766 N   0  0  0  0  0  0  0  0  0  0  0  0
   18.0638   21.6839    3.6104 N   0  0  0  0  0  0  0  0  0  0  0  0
   18.4875   23.1855    1.7641 C   0  0  0  0  0  0  0  0  0  0  0  0
   10.9270   22.1854    5.4702 C   0  0  0  0  0  0  0  0  0  0  0  0
   13.3157   22.2228    4.8973 C   0  0  0  0  0  0  0  0  0  0  0  0
   12.0122   22.9841    4.8601 C   0  0  0  0  0  0  0  0  0  0  0  0
   16.2311   23.0026    2.8669 C   0  0  0  0  0  0  0  0  0  0  0  0
   17.2299   21.1562    4.5304 C   0  0  0  0  0  0  0  0  0  0  0  0
   15.4630   22.3972    3.8454 C   0  0  0  0  0  0  0  0  0  0  0  0
   17.5534   22.6066    2.7812 C   0  0  0  0  0  0  0  0  0  0  0  0
    9.6198   20.8824    4.7628 H   0  0  0  0  0  0  0  0  0  0  0  0
   18.6961   19.9766    5.2819 H   0  0  0  0  0  0  0  0  0  0  0  0
   17.1514   19.8168    6.0489 H   0  0  0  0  0  0  0  0  0  0  0  0
   17.9990   23.8571    1.2069 H   0  0  0  0  0  0  0  0  0  0  0  0
   19.2521   23.6314    2.2294 H   0  0  0  0  0  0  0  0  0  0  0  0
   18.8352   22.4547    1.1767 H   0  0  0  0  0  0  0  0  0  0  0  0
   11.2949   21.5712    6.1685 H   0  0  0  0  0  0  0  0  0  0  0  0
   10.2405   22.7848    5.8818 H   0  0  0  0  0  0  0  0  0  0  0  0
   13.7342   22.3015    5.8020 H   0  0  0  0  0  0  0  0  0  0  0  0
   13.1566   21.2583    4.6864 H   0  0  0  0  0  0  0  0  0  0  0  0
   12.1163   23.8395    5.3677 H   0  0  0  0  0  0  0  0  0  0  0  0
   11.7767   23.1870    3.9097 H   0  0  0  0  0  0  0  0  0  0  0  0
   15.8491   23.6925    2.2521 H   0  0  0  0  0  0  0  0  0  0  0  0
  1  7  1  0  0  0  0
  2  8  1  0  0  0  0
  2 12  1  0  0  0  0
  3 11  1  0  0  0  0
  4 11  2  0  0  0  0
  4 12  1  0  0  0  0
  5 11  1  0  0  0  0
  5 13  2  0  0  0  0
  6 13  1  0  0  0  0
  7  9  1  0  0  0  0
  8  9  1  0  0  0  0
 10 12  2  0  0  0  0
 10 13  1  0  0  0  0
  1 14  1  0  0  0  0
  3 15  1  0  0  0  0
  3 16  1  0  0  0  0
  6 17  1  0  0  0  0
  6 18  1  0  0  0  0
  6 19  1  0  0  0  0
  7 20  1  0  0  0  0
  7 21  1  0  0  0  0
  8 22  1  0  0  0  0
  8 23  1  0  0  0  0
  9 24  1  0  0  0  0
  9 25  1  0  0  0  0
 10 26  1  0  0  0  0
M  END
> <pdb_id>
5FSN

> <uniprot_id>
P36639

> <usmiles>
O(c1nc(nc(c1)C)N)CCCO

$$$$
6Q9_A_401
          07212402413D 1   1.00000     0.00000     0
            
 33 35  0  0  0  0            999 V2000
  130.1579   15.7273    6.4198 S   0  0  0  0  0  0  0  0  0  0  0  0
  131.0096   16.6940    7.0350 O   0  0  0  0  0  0  0  0  0  0  0  0
  129.8266   14.8611    7.5113 O   0  0  0  0  0  0  0  0  0  0  0  0
  128.7997   16.3883    5.7731 N   0  0  0  0  0  0  0  0  0  0  0  0
  130.3622   20.7178    1.9582 N   0  0  0  0  0  0  0  0  0  0  0  0
  130.8553   20.0070    2.9750 N   0  0  0  0  0  0  0  0  0  0  0  0
  131.4067   13.4480    3.4872 N   0  0  0  0  0  0  0  0  0  0  0  0
  132.5711   14.1288    3.6937 N   0  0  0  0  0  0  0  0  0  0  0  0
  129.0318   13.3285    4.4121 C   0  0  0  0  0  0  0  0  0  0  0  0
  133.3988   15.9777    5.2492 C   0  0  0  0  0  0  0  0  0  0  0  0
  129.1040   20.3085    1.7293 C   0  0  0  0  0  0  0  0  0  0  0  0
  127.6749   17.5264    3.9378 C   0  0  0  0  0  0  0  0  0  0  0  0
  127.6503   18.4686    2.9165 C   0  0  0  0  0  0  0  0  0  0  0  0
  129.9634   18.1418    4.4862 C   0  0  0  0  0  0  0  0  0  0  0  0
  131.0183   14.8446    5.1227 C   0  0  0  0  0  0  0  0  0  0  0  0
  130.4604   13.8592    4.3365 C   0  0  0  0  0  0  0  0  0  0  0  0
  132.3558   15.0101    4.7032 C   0  0  0  0  0  0  0  0  0  0  0  0
  128.8339   17.3691    4.7213 C   0  0  0  0  0  0  0  0  0  0  0  0
  129.9347   19.1081    3.4430 C   0  0  0  0  0  0  0  0  0  0  0  0
  128.7856   19.2634    2.6766 C   0  0  0  0  0  0  0  0  0  0  0  0
  127.9108   16.0961    6.1261 H   0  0  0  0  0  0  0  0  0  0  0  0
  131.7771   20.1169    3.3466 H   0  0  0  0  0  0  0  0  0  0  0  0
  131.2789   12.7380    2.7947 H   0  0  0  0  0  0  0  0  0  0  0  0
  128.5355   13.8091    5.1351 H   0  0  0  0  0  0  0  0  0  0  0  0
  128.5734   13.4792    3.5362 H   0  0  0  0  0  0  0  0  0  0  0  0
  129.0502   12.3494    4.6145 H   0  0  0  0  0  0  0  0  0  0  0  0
  132.9970   16.5190    5.9878 H   0  0  0  0  0  0  0  0  0  0  0  0
  134.1801   15.4620    5.6009 H   0  0  0  0  0  0  0  0  0  0  0  0
  133.7038   16.5869    4.5172 H   0  0  0  0  0  0  0  0  0  0  0  0
  128.4916   20.6655    1.0240 H   0  0  0  0  0  0  0  0  0  0  0  0
  126.8698   16.9607    4.1161 H   0  0  0  0  0  0  0  0  0  0  0  0
  126.8302   18.5808    2.3554 H   0  0  0  0  0  0  0  0  0  0  0  0
  130.7855   18.0206    5.0426 H   0  0  0  0  0  0  0  0  0  0  0  0
  1  2  2  0  0  0  0
  1  3  2  0  0  0  0
  1  4  1  0  0  0  0
  1 15  1  0  0  0  0
  4 18  1  0  0  0  0
  5  6  1  0  0  0  0
  5 11  2  0  0  0  0
  6 19  1  0  0  0  0
  7  8  1  0  0  0  0
  7 16  1  0  0  0  0
  8 17  2  0  0  0  0
  9 16  1  0  0  0  0
 10 17  1  0  0  0  0
 11 20  1  0  0  0  0
 12 13  1  0  0  0  0
 12 18  2  0  0  0  0
 13 20  2  0  0  0  0
 14 18  1  0  0  0  0
 14 19  2  0  0  0  0
 15 16  2  0  0  0  0
 15 17  1  0  0  0  0
 19 20  1  0  0  0  0
  4 21  1  0  0  0  0
  6 22  1  0  0  0  0
  7 23  1  0  0  0  0
  9 24  1  0  0  0  0
  9 25  1  0  0  0  0
  9 26  1  0  0  0  0
 10 27  1  0  0  0  0
 10 28  1  0  0  0  0
 10 29  1  0  0  0  0
 11 30  1  0  0  0  0
 12 31  1  0  0  0  0
 13 32  1  0  0  0  0
 14 33  1  0  0  0  0
M  END
> <pdb_id>
5K4X

> <uniprot_id>
nan

> <usmiles>
S(=O)(=O)(Nc1cc2NN=Cc2cc1)C=3C(=NNC3C)C

$$$$
6QH_B_401
          07202403123D 1   1.00000     0.00000     0
            
 41 43  0  0  0  0            999 V2000
   36.5449   12.7190   33.5860 Cl  0  0  0  0  0  0  0  0  0  0  0  0
   41.0088    7.0466   33.9542 O   0  0  0  0  0  0  0  0  0  0  0  0
   36.7522   11.0812   31.2338 O   0  0  0  0  0  0  0  0  0  0  0  0
   39.8717   10.2383   36.6363 O   0  0  0  0  0  0  0  0  0  0  0  0
   43.4662    2.6055   33.2119 N   0  0  0  0  0  0  0  0  0  0  0  0
   42.3617    2.8774   31.2682 N   0  0  0  0  0  0  0  0  0  0  0  0
   41.1412    8.5309   37.2335 N   0  0  0  0  0  0  0  0  0  0  0  0
   41.7415    6.2031   35.9167 N   0  0  0  0  0  0  0  0  0  0  0  0
   42.1231    2.6336   33.4201 N   0  0  0  0  0  0  0  0  0  0  0  0
   36.8468   10.4795   29.9425 C   0  0  0  0  0  0  0  0  0  0  0  0
   40.5891    9.6271   37.6133 C   0  0  0  0  0  0  0  0  0  0  0  0
   43.5450    2.7582   31.9103 C   0  0  0  0  0  0  0  0  0  0  0  0
   41.5002    2.7896   32.2571 C   0  0  0  0  0  0  0  0  0  0  0  0
   42.2139    4.9394   35.3652 C   0  0  0  0  0  0  0  0  0  0  0  0
   41.5811    2.5362   34.7731 C   0  0  0  0  0  0  0  0  0  0  0  0
   41.1236    3.8824   35.3295 C   0  0  0  0  0  0  0  0  0  0  0  0
   38.4336    9.5246   32.1024 C   0  0  0  0  0  0  0  0  0  0  0  0
   39.2303    9.1447   33.1737 C   0  0  0  0  0  0  0  0  0  0  0  0
   38.3737   10.9675   34.4800 C   0  0  0  0  0  0  0  0  0  0  0  0
   41.1623    7.1457   35.1694 C   0  0  0  0  0  0  0  0  0  0  0  0
   37.5815   11.3430   33.4138 C   0  0  0  0  0  0  0  0  0  0  0  0
   37.5917   10.6316   32.2162 C   0  0  0  0  0  0  0  0  0  0  0  0
   39.9890    9.4300   35.5418 C   0  0  0  0  0  0  0  0  0  0  0  0
   40.7751    8.3819   35.9037 C   0  0  0  0  0  0  0  0  0  0  0  0
   39.2032    9.8546   34.3741 C   0  0  0  0  0  0  0  0  0  0  0  0
   41.8561    6.3712   36.8958 H   0  0  0  0  0  0  0  0  0  0  0  0
   36.1801   10.9018   29.3283 H   0  0  0  0  0  0  0  0  0  0  0  0
   37.7681   10.6151   29.5783 H   0  0  0  0  0  0  0  0  0  0  0  0
   36.6583    9.5002   30.0165 H   0  0  0  0  0  0  0  0  0  0  0  0
   40.6791    9.9945   38.5390 H   0  0  0  0  0  0  0  0  0  0  0  0
   44.4202    2.7844   31.4273 H   0  0  0  0  0  0  0  0  0  0  0  0
   40.5071    2.8342   32.1484 H   0  0  0  0  0  0  0  0  0  0  0  0
   42.9683    4.6043   35.9296 H   0  0  0  0  0  0  0  0  0  0  0  0
   42.5396    5.0971   34.4330 H   0  0  0  0  0  0  0  0  0  0  0  0
   42.2895    2.1668   35.3745 H   0  0  0  0  0  0  0  0  0  0  0  0
   40.7982    1.9143   34.7589 H   0  0  0  0  0  0  0  0  0  0  0  0
   40.3760    4.2211   34.7582 H   0  0  0  0  0  0  0  0  0  0  0  0
   40.7924    3.7408   36.2624 H   0  0  0  0  0  0  0  0  0  0  0  0
   38.4629    9.0047   31.2486 H   0  0  0  0  0  0  0  0  0  0  0  0
   39.8320    8.3511   33.0836 H   0  0  0  0  0  0  0  0  0  0  0  0
   38.3516   11.4953   35.3291 H   0  0  0  0  0  0  0  0  0  0  0  0
  1 21  1  0  0  0  0
  2 20  2  0  0  0  0
  3 10  1  0  0  0  0
  3 22  1  0  0  0  0
  4 11  1  0  0  0  0
  4 23  1  0  0  0  0
  5  9  1  0  0  0  0
  5 12  2  0  0  0  0
  6 12  1  0  0  0  0
  6 13  2  0  0  0  0
  7 11  2  0  0  0  0
  7 24  1  0  0  0  0
  8 14  1  0  0  0  0
  8 20  1  0  0  0  0
  9 13  1  0  0  0  0
  9 15  1  0  0  0  0
 14 16  1  0  0  0  0
 15 16  1  0  0  0  0
 17 18  1  0  0  0  0
 17 22  2  0  0  0  0
 18 25  2  0  0  0  0
 19 21  2  0  0  0  0
 19 25  1  0  0  0  0
 20 24  1  0  0  0  0
 21 22  1  0  0  0  0
 23 24  2  0  0  0  0
 23 25  1  0  0  0  0
  8 26  1  0  0  0  0
 10 27  1  0  0  0  0
 10 28  1  0  0  0  0
 10 29  1  0  0  0  0
 11 30  1  0  0  0  0
 12 31  1  0  0  0  0
 13 32  1  0  0  0  0
 14 33  1  0  0  0  0
 14 34  1  0  0  0  0
 15 35  1  0  0  0  0
 15 36  1  0  0  0  0
 16 37  1  0  0  0  0
 16 38  1  0  0  0  0
 17 39  1  0  0  0  0
 18 40  1  0  0  0  0
 19 41  1  0  0  0  0
M  END
> <pdb_id>
5K5N

> <uniprot_id>
P49841

> <usmiles>
Clc1c(OC)ccc(c1)C=2OC=NC2C(=O)NCCCN3N=CN=C3

$$$$
6QY_D_501
          07202414093D 1   1.00000     0.00000     0
            
 54 57  0  0  0  0            999 V2000
   26.2793   29.6752   37.0581 O   0  0  0  0  0  0  0  0  0  0  0  0
   27.2544   23.1478   32.9664 N   0  0  0  0  0  0  0  0  0  0  0  0
   28.2714   24.9155   31.6790 N   0  0  0  0  0  0  0  0  0  0  0  0
   26.0044   23.9070   34.8897 N   0  0  0  0  0  0  0  0  0  0  0  0
   28.2345   27.1304   32.3412 N   0  0  0  0  0  0  0  0  0  0  0  0
   30.4796   29.8790   27.6651 N   0  0  0  0  0  0  0  0  0  0  0  0
   31.5100   29.0297   27.0559 C   0  0  0  0  0  0  0  0  0  0  0  0
   30.9152   31.2817   27.7042 C   0  0  0  0  0  0  0  0  0  0  0  0
   27.9691   23.6395   31.9480 C   0  0  0  0  0  0  0  0  0  0  0  0
   25.1409   29.3505   36.2812 C   0  0  0  0  0  0  0  0  0  0  0  0
   27.4834   29.4727   36.2948 C   0  0  0  0  0  0  0  0  0  0  0  0
   25.8365   25.0944   35.5245 C   0  0  0  0  0  0  0  0  0  0  0  0
   25.1438   27.8949   35.9047 C   0  0  0  0  0  0  0  0  0  0  0  0
   27.6424   28.0282   35.8945 C   0  0  0  0  0  0  0  0  0  0  0  0
   29.7862   28.8568   31.4580 C   0  0  0  0  0  0  0  0  0  0  0  0
   28.1179   27.7519   29.9568 C   0  0  0  0  0  0  0  0  0  0  0  0
   30.6147   29.2793   30.2355 C   0  0  0  0  0  0  0  0  0  0  0  0
   28.9522   28.0760   28.7206 C   0  0  0  0  0  0  0  0  0  0  0  0
   26.8053   24.1061   33.8030 C   0  0  0  0  0  0  0  0  0  0  0  0
   27.8523   25.8471   32.5638 C   0  0  0  0  0  0  0  0  0  0  0  0
   29.0029   27.5820   31.1817 C   0  0  0  0  0  0  0  0  0  0  0  0
   29.7709   29.3485   28.9529 C   0  0  0  0  0  0  0  0  0  0  0  0
   26.4089   27.5620   35.1152 C   0  0  0  0  0  0  0  0  0  0  0  0
   26.4790   26.0880   34.8479 C   0  0  0  0  0  0  0  0  0  0  0  0
   27.1116   25.4681   33.7256 C   0  0  0  0  0  0  0  0  0  0  0  0
   25.6079   23.0331   35.1709 H   0  0  0  0  0  0  0  0  0  0  0  0
   27.9715   27.8169   33.0191 H   0  0  0  0  0  0  0  0  0  0  0  0
   31.1934   28.0813   27.0394 H   0  0  0  0  0  0  0  0  0  0  0  0
   31.6867   29.3384   26.1213 H   0  0  0  0  0  0  0  0  0  0  0  0
   32.3520   29.0908   27.5919 H   0  0  0  0  0  0  0  0  0  0  0  0
   30.1997   31.8414   28.1222 H   0  0  0  0  0  0  0  0  0  0  0  0
   31.7539   31.3554   28.2439 H   0  0  0  0  0  0  0  0  0  0  0  0
   31.0886   31.6030   26.7733 H   0  0  0  0  0  0  0  0  0  0  0  0
   28.3246   22.9642   31.3018 H   0  0  0  0  0  0  0  0  0  0  0  0
   25.1445   29.9038   35.4483 H   0  0  0  0  0  0  0  0  0  0  0  0
   24.3161   29.5499   36.8103 H   0  0  0  0  0  0  0  0  0  0  0  0
   28.2699   29.7456   36.8489 H   0  0  0  0  0  0  0  0  0  0  0  0
   27.4449   30.0369   35.4700 H   0  0  0  0  0  0  0  0  0  0  0  0
   25.3156   25.2224   36.3684 H   0  0  0  0  0  0  0  0  0  0  0  0
   24.3408   27.6967   35.3426 H   0  0  0  0  0  0  0  0  0  0  0  0
   25.1152   27.3380   36.7348 H   0  0  0  0  0  0  0  0  0  0  0  0
   27.7474   27.4667   36.7153 H   0  0  0  0  0  0  0  0  0  0  0  0
   28.4541   27.9316   35.3185 H   0  0  0  0  0  0  0  0  0  0  0  0
   29.1453   29.5897   31.6862 H   0  0  0  0  0  0  0  0  0  0  0  0
   30.4018   28.6998   32.2303 H   0  0  0  0  0  0  0  0  0  0  0  0
   27.6133   26.9033   29.7975 H   0  0  0  0  0  0  0  0  0  0  0  0
   27.4724   28.4978   30.1205 H   0  0  0  0  0  0  0  0  0  0  0  0
   31.3503   28.6153   30.1008 H   0  0  0  0  0  0  0  0  0  0  0  0
   31.0082   30.1818   30.4104 H   0  0  0  0  0  0  0  0  0  0  0  0
   28.3442   28.2127   27.9385 H   0  0  0  0  0  0  0  0  0  0  0  0
   29.5722   27.3145   28.5317 H   0  0  0  0  0  0  0  0  0  0  0  0
   29.6679   26.8658   30.9697 H   0  0  0  0  0  0  0  0  0  0  0  0
   29.0824   30.0453   29.1541 H   0  0  0  0  0  0  0  0  0  0  0  0
   26.3791   28.0463   34.2408 H   0  0  0  0  0  0  0  0  0  0  0  0
  1 10  1  0  0  0  0
  1 11  1  0  0  0  0
  2  9  2  0  0  0  0
  2 19  1  0  0  0  0
  3  9  1  0  0  0  0
  3 20  2  0  0  0  0
  4 12  1  0  0  0  0
  4 19  1  0  0  0  0
  5 20  1  0  0  0  0
  5 21  1  0  0  0  0
  6  7  1  0  0  0  0
  6  8  1  0  0  0  0
  6 22  1  0  0  0  0
 10 13  1  0  0  0  0
 11 14  1  0  0  0  0
 12 24  2  0  0  0  0
 13 23  1  0  0  0  0
 14 23  1  0  0  0  0
 15 17  1  0  0  0  0
 15 21  1  0  0  0  0
 16 18  1  0  0  0  0
 16 21  1  0  0  0  0
 17 22  1  0  0  0  0
 18 22  1  0  0  0  0
 19 25  2  0  0  0  0
 20 25  1  0  0  0  0
 23 24  1  0  0  0  0
 24 25  1  0  0  0  0
  4 26  1  0  0  0  0
  5 27  1  0  0  0  0
  7 28  1  0  0  0  0
  7 29  1  0  0  0  0
  7 30  1  0  0  0  0
  8 31  1  0  0  0  0
  8 32  1  0  0  0  0
  8 33  1  0  0  0  0
  9 34  1  0  0  0  0
 10 35  1  0  0  0  0
 10 36  1  0  0  0  0
 11 37  1  0  0  0  0
 11 38  1  0  0  0  0
 12 39  1  0  0  0  0
 13 40  1  0  0  0  0
 13 41  1  0  0  0  0
 14 42  1  0  0  0  0
 14 43  1  0  0  0  0
 15 44  1  0  0  0  0
 15 45  1  0  0  0  0
 16 46  1  0  0  0  0
 16 47  1  0  0  0  0
 17 48  1  0  0  0  0
 17 49  1  0  0  0  0
 18 50  1  0  0  0  0
 18 51  1  0  0  0  0
 21 52  1  0  0  0  0
 22 53  1  0  0  0  0
 23 54  1  0  0  0  0
M  END
> <pdb_id>
5K72

> <uniprot_id>
Q9NWZ3

> <usmiles>
O1CCC(C=2c3c(ncnc3NC4CCC(N(C)C)CC4)NC2)CC1

$$$$
6RL_B_808
          07212402213D 1   1.00000     0.00000     0
            
 46 48  0  0  0  0            999 V2000
   34.0034   46.4804   35.2864 F   0  0  0  0  0  0  0  0  0  0  0  0
   36.8234   47.4884   39.3321 O   0  0  0  0  0  0  0  0  0  0  0  0
   38.9289   50.2706   42.1598 O   0  0  0  0  0  0  0  0  0  0  0  0
   36.6154   52.0710   37.8315 N   0  0  0  0  0  0  0  0  0  0  0  0
   39.4555   52.3417   35.2370 N   0  0  0  0  0  0  0  0  0  0  0  0
   39.7252   50.5272   37.5342 N   0  0  0  0  0  0  0  0  0  0  0  0
   37.8478   48.8574   40.7883 N   0  0  0  0  0  0  0  0  0  0  0  0
   38.2002   49.0094   38.4870 N   0  0  0  0  0  0  0  0  0  0  0  0
   37.1788   48.2222   41.9324 C   0  0  0  0  0  0  0  0  0  0  0  0
   36.2472   51.0843   37.3985 C   0  0  0  0  0  0  0  0  0  0  0  0
   40.9366   49.7299   37.2209 C   0  0  0  0  0  0  0  0  0  0  0  0
   40.0800   51.9598   37.5804 C   0  0  0  0  0  0  0  0  0  0  0  0
   37.9128   48.5368   37.1317 C   0  0  0  0  0  0  0  0  0  0  0  0
   41.3331   49.9855   35.7624 C   0  0  0  0  0  0  0  0  0  0  0  0
   33.7855   48.7563   35.9149 C   0  0  0  0  0  0  0  0  0  0  0  0
   41.7009   51.4759   35.6574 C   0  0  0  0  0  0  0  0  0  0  0  0
   34.3504   49.8938   36.4439 C   0  0  0  0  0  0  0  0  0  0  0  0
   39.3878   50.4995   39.9381 C   0  0  0  0  0  0  0  0  0  0  0  0
   35.8736   47.5619   36.1982 C   0  0  0  0  0  0  0  0  0  0  0  0
   37.6003   48.4186   39.5372 C   0  0  0  0  0  0  0  0  0  0  0  0
   38.7159   49.8856   41.0127 C   0  0  0  0  0  0  0  0  0  0  0  0
   34.5459   47.6004   35.7989 C   0  0  0  0  0  0  0  0  0  0  0  0
   39.1077   50.0298   38.6599 C   0  0  0  0  0  0  0  0  0  0  0  0
   40.5696   52.3808   36.1846 C   0  0  1  0  0  0  0  0  0  0  0  0
   35.6974   49.8748   36.8471 C   0  0  0  0  0  0  0  0  0  0  0  0
   36.4617   48.6800   36.7370 C   0  0  0  0  0  0  0  0  0  0  0  0
   39.7784   52.6161   34.3312 H   0  0  0  0  0  0  0  0  0  0  0  0
   39.0881   51.4127   35.1925 H   0  0  0  0  0  0  0  0  0  0  0  0
   37.4730   48.6658   42.7789 H   0  0  0  0  0  0  0  0  0  0  0  0
   36.1881   48.3164   41.8336 H   0  0  0  0  0  0  0  0  0  0  0  0
   37.4199   47.2522   41.9631 H   0  0  0  0  0  0  0  0  0  0  0  0
   40.7419   48.7577   37.3508 H   0  0  0  0  0  0  0  0  0  0  0  0
   41.6847   50.0037   37.8254 H   0  0  0  0  0  0  0  0  0  0  0  0
   40.8061   52.1069   38.2521 H   0  0  0  0  0  0  0  0  0  0  0  0
   39.2770   52.4991   37.8340 H   0  0  0  0  0  0  0  0  0  0  0  0
   38.1622   47.5701   37.0744 H   0  0  0  0  0  0  0  0  0  0  0  0
   38.4689   49.0633   36.4886 H   0  0  0  0  0  0  0  0  0  0  0  0
   40.5664   49.7764   35.1554 H   0  0  0  0  0  0  0  0  0  0  0  0
   42.1187   49.4186   35.5146 H   0  0  0  0  0  0  0  0  0  0  0  0
   32.8314   48.7620   35.6154 H   0  0  0  0  0  0  0  0  0  0  0  0
   41.8749   51.6999   34.6985 H   0  0  0  0  0  0  0  0  0  0  0  0
   42.5275   51.6443   36.1943 H   0  0  0  0  0  0  0  0  0  0  0  0
   33.8071   50.7278   36.5410 H   0  0  0  0  0  0  0  0  0  0  0  0
   40.0398   51.2428   40.0883 H   0  0  0  0  0  0  0  0  0  0  0  0
   36.4029   46.7199   36.0937 H   0  0  0  0  0  0  0  0  0  0  0  0
   40.9107   53.3194   36.2365 H   0  0  0  0  0  0  0  0  0  0  0  0
  1 22  1  0  0  0  0
  2 20  2  0  0  0  0
  3 21  2  0  0  0  0
  4 10  3  0  0  0  0
  5 24  1  0  0  0  0
  6 11  1  0  0  0  0
  6 12  1  0  0  0  0
  6 23  1  0  0  0  0
  7  9  1  0  0  0  0
  7 20  1  0  0  0  0
  7 21  1  0  0  0  0
  8 13  1  0  0  0  0
  8 20  1  0  0  0  0
  8 23  1  0  0  0  0
 10 25  1  0  0  0  0
 11 14  1  0  0  0  0
 12 24  1  0  0  0  0
 13 26  1  0  0  0  0
 14 16  1  0  0  0  0
 15 17  1  0  0  0  0
 15 22  2  0  0  0  0
 16 24  1  0  0  0  0
 17 25  2  0  0  0  0
 18 21  1  0  0  0  0
 18 23  2  0  0  0  0
 19 22  1  0  0  0  0
 19 26  2  0  0  0  0
 25 26  1  0  0  0  0
  5 27  1  0  0  0  0
  5 28  1  0  0  0  0
  9 29  1  0  0  0  0
  9 30  1  0  0  0  0
  9 31  1  0  0  0  0
 11 32  1  0  0  0  0
 11 33  1  0  0  0  0
 12 34  1  0  0  0  0
 12 35  1  0  0  0  0
 13 36  1  0  0  0  0
 13 37  1  0  0  0  0
 14 38  1  0  0  0  0
 14 39  1  0  0  0  0
 15 40  1  0  0  0  0
 16 41  1  0  0  0  0
 16 42  1  0  0  0  0
 17 43  1  0  0  0  0
 18 44  1  0  0  0  0
 19 45  1  0  0  0  0
 24 46  1  0  0  0  0
M  END
> <pdb_id>
5KBY

> <uniprot_id>
P27487

> <usmiles>
Fc1cc(c(C#N)cc1)CN2C(=O)N(C(=O)C=C2N3C[C@H](N)CCC3)C

$$$$
6RR_A_2001
          07192415263D 1   1.00000     0.00000     0
            
 30 31  0  0  0  0            999 V2000
   71.2161   39.2167    1.7385 S   0  0  0  0  0  0  0  0  0  0  0  0
   71.4499   40.4618    1.0523 O   0  0  0  0  0  0  0  0  0  0  0  0
   71.2243   39.4197    3.1531 O   0  0  0  0  0  0  0  0  0  0  0  0
   65.0257   39.7635   -0.6799 N   0  0  0  0  0  0  0  0  0  0  0  0
   68.3482   38.0486   -0.6593 N   0  0  0  0  0  0  0  0  0  0  0  0
   65.4975   37.3135   -0.7120 C   0  0  0  0  0  0  0  0  0  0  0  0
   72.4517   38.1632    1.2934 C   0  0  0  0  0  0  0  0  0  0  0  0
   69.7016   38.6079    1.2949 C   0  0  0  0  0  0  0  0  0  0  0  0
   65.3455   41.0719   -0.6636 C   0  0  0  0  0  0  0  0  0  0  0  0
   72.1156   37.0986    0.2396 C   0  0  0  0  0  0  0  0  0  0  0  0
   66.7134   41.4851   -0.6471 C   0  0  0  0  0  0  0  0  0  0  0  0
   70.7855   37.2865   -0.6873 C   0  0  0  0  0  0  0  0  0  0  0  0
   67.7234   40.5070   -0.6468 C   0  0  0  0  0  0  0  0  0  0  0  0
   65.9367   38.8256   -0.6834 C   0  0  0  0  0  0  0  0  0  0  0  0
   69.6951   38.3958   -0.2076 C   0  0  1  0  0  0  0  0  0  0  0  0
   67.3404   39.1297   -0.6668 C   0  0  0  0  0  0  0  0  0  0  0  0
   68.1189   37.1198   -0.9504 H   0  0  0  0  0  0  0  0  0  0  0  0
   66.3098   36.7303   -0.7112 H   0  0  0  0  0  0  0  0  0  0  0  0
   64.9420   37.1124    0.0948 H   0  0  0  0  0  0  0  0  0  0  0  0
   64.9617   37.1376   -1.5379 H   0  0  0  0  0  0  0  0  0  0  0  0
   73.3641   38.2280    1.6976 H   0  0  0  0  0  0  0  0  0  0  0  0
   68.9875   39.2609    1.5473 H   0  0  0  0  0  0  0  0  0  0  0  0
   69.5374   37.7380    1.7600 H   0  0  0  0  0  0  0  0  0  0  0  0
   64.6197   41.7598   -0.6629 H   0  0  0  0  0  0  0  0  0  0  0  0
   72.7050   36.2993    0.1223 H   0  0  0  0  0  0  0  0  0  0  0  0
   66.9491   42.4568   -0.6360 H   0  0  0  0  0  0  0  0  0  0  0  0
   70.3187   36.4030   -0.7260 H   0  0  0  0  0  0  0  0  0  0  0  0
   71.0915   37.5423   -1.6043 H   0  0  0  0  0  0  0  0  0  0  0  0
   68.6883   40.7689   -0.6328 H   0  0  0  0  0  0  0  0  0  0  0  0
   69.9417   39.2652   -0.6357 H   0  0  0  0  0  0  0  0  0  0  0  0
  1  2  2  0  0  0  0
  1  3  2  0  0  0  0
  1  7  1  0  0  0  0
  1  8  1  0  0  0  0
  4  9  2  0  0  0  0
  4 14  1  0  0  0  0
  5 15  1  0  0  0  0
  5 16  1  0  0  0  0
  6 14  1  0  0  0  0
  7 10  2  0  0  0  0
  8 15  1  0  0  0  0
  9 11  1  0  0  0  0
 10 12  1  0  0  0  0
 11 13  2  0  0  0  0
 12 15  1  0  0  0  0
 13 16  1  0  0  0  0
 14 16  2  0  0  0  0
  5 17  1  0  0  0  0
  6 18  1  0  0  0  0
  6 19  1  0  0  0  0
  6 20  1  0  0  0  0
  7 21  1  0  0  0  0
  8 22  1  0  0  0  0
  8 23  1  0  0  0  0
  9 24  1  0  0  0  0
 10 25  1  0  0  0  0
 11 26  1  0  0  0  0
 12 27  1  0  0  0  0
 12 28  1  0  0  0  0
 13 29  1  0  0  0  0
 15 30  1  0  0  0  0
M  END
> <pdb_id>
5L8T

> <uniprot_id>
Q9UIF8

> <usmiles>
S1(=O)(=O)C=CC[C@@H](Nc2c(nccc2)C)C1

$$$$
6S9_A_401
          07212404193D 1   1.00000     0.00000     0
            
 45 48  0  0  0  0            999 V2000
    4.5599    6.5405   46.7091 O   0  0  0  0  0  0  0  0  0  0  0  0
   12.2308    6.3074   43.7503 N   0  0  0  0  0  0  0  0  0  0  0  0
   13.0327   10.2768   40.6011 N   0  0  0  0  0  0  0  0  0  0  0  0
    7.9326    7.8020   44.5990 N   0  0  0  0  0  0  0  0  0  0  0  0
   11.4146    5.6339   44.6349 N   0  0  0  0  0  0  0  0  0  0  0  0
    5.3546    8.0958   45.2677 N   0  0  0  0  0  0  0  0  0  0  0  0
    6.7436    6.4231   46.0453 N   0  0  0  0  0  0  0  0  0  0  0  0
   15.2927   10.1124   41.4649 C   0  0  0  0  0  0  0  0  0  0  0  0
   11.7335    9.9364   40.6035 C   0  0  0  0  0  0  0  0  0  0  0  0
    9.0378    8.1063   43.9066 C   0  0  0  0  0  0  0  0  0  0  0  0
    3.2639   12.1269   47.6347 C   0  0  0  0  0  0  0  0  0  0  0  0
    2.2309   11.3764   47.1191 C   0  0  0  0  0  0  0  0  0  0  0  0
    4.5700   11.7781   47.3522 C   0  0  0  0  0  0  0  0  0  0  0  0
   11.2045    8.9707   41.4357 C   0  0  0  0  0  0  0  0  0  0  0  0
    2.4991   10.2951   46.2987 C   0  0  0  0  0  0  0  0  0  0  0  0
    4.8398   10.6859   46.5435 C   0  0  0  0  0  0  0  0  0  0  0  0
    9.0823    5.8927   45.5280 C   0  0  0  0  0  0  0  0  0  0  0  0
   13.4094    8.6494   42.3017 C   0  0  0  0  0  0  0  0  0  0  0  0
    4.0755    8.7726   45.0763 C   0  0  0  0  0  0  0  0  0  0  0  0
    5.4963    7.0075   46.0612 C   0  0  0  0  0  0  0  0  0  0  0  0
    7.9542    6.7091   45.3857 C   0  0  0  0  0  0  0  0  0  0  0  0
   13.8682    9.6473   41.4475 C   0  0  0  0  0  0  0  0  0  0  0  0
   10.2063    6.2417   44.7805 C   0  0  0  0  0  0  0  0  0  0  0  0
    3.8070    9.9373   45.9961 C   0  0  0  0  0  0  0  0  0  0  0  0
   11.5244    7.3461   43.3142 C   0  0  0  0  0  0  0  0  0  0  0  0
   12.0583    8.3112   42.3110 C   0  0  0  0  0  0  0  0  0  0  0  0
   10.2198    7.3683   43.9334 C   0  0  0  0  0  0  0  0  0  0  0  0
   11.7521    4.7814   45.0704 H   0  0  0  0  0  0  0  0  0  0  0  0
    6.1187    8.5191   44.7524 H   0  0  0  0  0  0  0  0  0  0  0  0
    6.8435    5.5910   46.6173 H   0  0  0  0  0  0  0  0  0  0  0  0
   15.5816   10.4314   42.4648 H   0  0  0  0  0  0  0  0  0  0  0  0
   15.9614    9.3038   41.1744 H   0  0  0  0  0  0  0  0  0  0  0  0
   15.4833   10.9480   40.7919 H   0  0  0  0  0  0  0  0  0  0  0  0
   11.1132   10.4908   39.9004 H   0  0  0  0  0  0  0  0  0  0  0  0
    8.9413    8.9972   43.2887 H   0  0  0  0  0  0  0  0  0  0  0  0
    3.0438   12.9992   48.2482 H   0  0  0  0  0  0  0  0  0  0  0  0
    1.1986   11.6230   47.3604 H   0  0  0  0  0  0  0  0  0  0  0  0
    5.3914   12.3599   47.7683 H   0  0  0  0  0  0  0  0  0  0  0  0
   10.1407    8.7462   41.3861 H   0  0  0  0  0  0  0  0  0  0  0  0
    1.6580    9.7324   45.8986 H   0  0  0  0  0  0  0  0  0  0  0  0
    5.8738   10.4104   46.3510 H   0  0  0  0  0  0  0  0  0  0  0  0
    9.1108    5.0192   46.1772 H   0  0  0  0  0  0  0  0  0  0  0  0
   14.1192    8.1506   42.9597 H   0  0  0  0  0  0  0  0  0  0  0  0
    3.2463    8.0707   45.1382 H   0  0  0  0  0  0  0  0  0  0  0  0
    4.0531    9.1495   44.0554 H   0  0  0  0  0  0  0  0  0  0  0  0
  1 20  2  0  0  0  0
  2  5  1  0  0  0  0
  2 25  2  0  0  0  0
  3  9  2  0  0  0  0
  3 22  1  0  0  0  0
  4 10  1  0  0  0  0
  4 21  2  0  0  0  0
  5 23  1  0  0  0  0
  5 28  1  0  0  0  0
  6 19  1  0  0  0  0
  6 20  1  0  0  0  0
  6 29  1  0  0  0  0
  7 20  1  0  0  0  0
  7 21  1  0  0  0  0
  7 30  1  0  0  0  0
  8 22  1  0  0  0  0
  8 31  1  0  0  0  0
  8 32  1  0  0  0  0
  8 33  1  0  0  0  0
  9 14  1  0  0  0  0
  9 34  1  0  0  0  0
 10 27  2  0  0  0  0
 10 35  1  0  0  0  0
 11 12  2  0  0  0  0
 11 13  1  0  0  0  0
 11 36  1  0  0  0  0
 12 15  1  0  0  0  0
 12 37  1  0  0  0  0
 13 16  2  0  0  0  0
 13 38  1  0  0  0  0
 14 26  2  0  0  0  0
 14 39  1  0  0  0  0
 15 24  2  0  0  0  0
 15 40  1  0  0  0  0
 16 24  1  0  0  0  0
 16 41  1  0  0  0  0
 17 21  1  0  0  0  0
 17 23  2  0  0  0  0
 17 42  1  0  0  0  0
 18 22  2  0  0  0  0
 18 26  1  0  0  0  0
 18 43  1  0  0  0  0
 19 24  1  0  0  0  0
 19 44  1  0  0  0  0
 19 45  1  0  0  0  0
 23 27  1  0  0  0  0
 25 26  1  0  0  0  0
 25 27  1  0  0  0  0
M  END
> <pdb_id>
5KE0

> <uniprot_id>
P63086

> <usmiles>
O=C(Nc1ncc2c(NN=C2c3cc(ncc3)C)c1)NCc4ccccc4

$$$$
6SC_A_501
          07192421083D 1   1.00000     0.00000     0
            
 38 41  0  0  0  0            999 V2000
   -1.7110   30.8807    8.3947 Br  0  0  0  0  0  0  0  0  0  0  0  0
    1.8672   30.1721    6.6727 N   0  0  0  0  0  0  0  0  0  0  0  0
    5.1300   24.1752    3.8184 N   0  0  0  0  0  0  0  0  0  0  0  0
    3.7490   28.0555    6.6965 N   0  0  0  0  0  0  0  0  0  0  0  0
    0.0345   27.8119    8.7046 N   0  0  0  0  0  0  0  0  0  0  0  0
    1.6732   28.9912    7.2926 N   0  0  0  0  0  0  0  0  0  0  0  0
    5.2216   25.4996    3.5791 C   0  0  0  0  0  0  0  0  0  0  0  0
    4.9209   23.7992    5.0857 C   0  0  0  0  0  0  0  0  0  0  0  0
    0.8574   30.9384    7.0015 C   0  0  0  0  0  0  0  0  0  0  0  0
    4.7655   27.0700    6.9586 C   0  0  0  0  0  0  0  0  0  0  0  0
   -0.2096   23.1430   10.6994 C   0  0  0  0  0  0  0  0  0  0  0  0
   -1.1750   24.0687   10.3365 C   0  0  0  0  0  0  0  0  0  0  0  0
    1.1481   23.3961   10.4334 C   0  0  0  0  0  0  0  0  0  0  0  0
    5.0771   26.4701    4.5850 C   0  0  0  0  0  0  0  0  0  0  0  0
    4.8022   24.6990    6.1592 C   0  0  0  0  0  0  0  0  0  0  0  0
   -0.8175   25.2405    9.6645 C   0  0  0  0  0  0  0  0  0  0  0  0
    1.5183   24.5869    9.7806 C   0  0  0  0  0  0  0  0  0  0  0  0
    2.1617   26.7928    8.0548 C   0  0  0  0  0  0  0  0  0  0  0  0
    2.5656   27.9427    7.3595 C   0  0  0  0  0  0  0  0  0  0  0  0
   -0.1175   30.2277    7.8111 C   0  0  0  0  0  0  0  0  0  0  0  0
    0.4403   28.9356    7.9996 C   0  0  0  0  0  0  0  0  0  0  0  0
    0.9027   26.7772    8.7165 C   0  0  0  0  0  0  0  0  0  0  0  0
    4.8816   26.0652    5.8831 C   0  0  0  0  0  0  0  0  0  0  0  0
    0.5242   25.5199    9.4108 C   0  0  0  0  0  0  0  0  0  0  0  0
    3.9075   28.7997    6.0476 H   0  0  0  0  0  0  0  0  0  0  0  0
    5.4005   25.8045    2.6436 H   0  0  0  0  0  0  0  0  0  0  0  0
    4.8445   22.8213    5.2803 H   0  0  0  0  0  0  0  0  0  0  0  0
    0.7682   31.8963    6.7285 H   0  0  0  0  0  0  0  0  0  0  0  0
    4.5415   26.5996    7.8121 H   0  0  0  0  0  0  0  0  0  0  0  0
    5.6447   27.5364    7.0558 H   0  0  0  0  0  0  0  0  0  0  0  0
   -0.4791   22.2928   11.1517 H   0  0  0  0  0  0  0  0  0  0  0  0
   -2.1350   23.8966   10.5572 H   0  0  0  0  0  0  0  0  0  0  0  0
    1.8461   22.7341   10.7063 H   0  0  0  0  0  0  0  0  0  0  0  0
    5.1161   27.4434    4.3588 H   0  0  0  0  0  0  0  0  0  0  0  0
    4.6649   24.3700    7.0935 H   0  0  0  0  0  0  0  0  0  0  0  0
   -1.5257   25.8799    9.3652 H   0  0  0  0  0  0  0  0  0  0  0  0
    2.4803   24.7715    9.5797 H   0  0  0  0  0  0  0  0  0  0  0  0
    2.7556   25.9889    8.0850 H   0  0  0  0  0  0  0  0  0  0  0  0
  1 20  1  0  0  0  0
  2  6  1  0  0  0  0
  2  9  2  0  0  0  0
  3  7  2  0  0  0  0
  3  8  1  0  0  0  0
  4 10  1  0  0  0  0
  4 19  1  0  0  0  0
  5 21  1  0  0  0  0
  5 22  2  0  0  0  0
  6 19  1  0  0  0  0
  6 21  1  0  0  0  0
  7 14  1  0  0  0  0
  8 15  2  0  0  0  0
  9 20  1  0  0  0  0
 10 23  1  0  0  0  0
 11 12  2  0  0  0  0
 11 13  1  0  0  0  0
 12 16  1  0  0  0  0
 13 17  2  0  0  0  0
 14 23  2  0  0  0  0
 15 23  1  0  0  0  0
 16 24  2  0  0  0  0
 17 24  1  0  0  0  0
 18 19  2  0  0  0  0
 18 22  1  0  0  0  0
 20 21  2  0  0  0  0
 22 24  1  0  0  0  0
  4 25  1  0  0  0  0
  7 26  1  0  0  0  0
  8 27  1  0  0  0  0
  9 28  1  0  0  0  0
 10 29  1  0  0  0  0
 10 30  1  0  0  0  0
 11 31  1  0  0  0  0
 12 32  1  0  0  0  0
 13 33  1  0  0  0  0
 14 34  1  0  0  0  0
 15 35  1  0  0  0  0
 16 36  1  0  0  0  0
 17 37  1  0  0  0  0
 18 38  1  0  0  0  0
M  END
> <pdb_id>
2R3R

> <uniprot_id>
P24941

> <usmiles>
BrC1=C2N=C(c3ccccc3)C=C(N2N=C1)NCc4ccncc4

$$$$
6SD_A_501
          07202416203D 1   1.00000     0.00000     0
            
 25 26  0  0  0  0            999 V2000
   -8.7283   -0.6565   30.2490 O   0  0  0  0  0  0  0  0  0  0  0  0
   -3.4876   -7.5525   32.9282 N   0  0  0  0  0  0  0  0  0  0  0  0
   -3.1480   -5.8940   31.2621 N   0  0  0  0  0  0  0  0  0  0  0  0
   -3.7811   -4.8019   30.7549 N   0  0  0  0  0  0  0  0  0  0  0  0
   -8.3104    0.4741   29.4767 C   0  0  0  0  0  0  0  0  0  0  0  0
   -8.1922   -2.7066   31.2592 C   0  0  0  0  0  0  0  0  0  0  0  0
   -6.5163   -1.5716   29.9495 C   0  0  0  0  0  0  0  0  0  0  0  0
   -7.2842   -3.7158   31.5090 C   0  0  0  0  0  0  0  0  0  0  0  0
   -5.6362   -2.6044   30.1883 C   0  0  0  0  0  0  0  0  0  0  0  0
   -5.1294   -5.7769   32.2575 C   0  0  0  0  0  0  0  0  0  0  0  0
   -3.8766   -6.4843   32.2089 C   0  0  0  0  0  0  0  0  0  0  0  0
   -7.8151   -1.6421   30.4651 C   0  0  0  0  0  0  0  0  0  0  0  0
   -5.0118   -4.7397   31.3266 C   0  0  0  0  0  0  0  0  0  0  0  0
   -5.9878   -3.6815   30.9868 C   0  0  0  0  0  0  0  0  0  0  0  0
   -4.0964   -7.9364   33.6225 H   0  0  0  0  0  0  0  0  0  0  0  0
   -2.5897   -7.9626   32.7687 H   0  0  0  0  0  0  0  0  0  0  0  0
   -2.2491   -6.2134   30.9622 H   0  0  0  0  0  0  0  0  0  0  0  0
   -9.0696    1.1195   29.3928 H   0  0  0  0  0  0  0  0  0  0  0  0
   -7.5406    0.9222   29.9314 H   0  0  0  0  0  0  0  0  0  0  0  0
   -8.0289    0.1704   28.5665 H   0  0  0  0  0  0  0  0  0  0  0  0
   -9.1123   -2.7461   31.6488 H   0  0  0  0  0  0  0  0  0  0  0  0
   -6.2293   -0.7785   29.4122 H   0  0  0  0  0  0  0  0  0  0  0  0
   -7.5605   -4.4907   32.0776 H   0  0  0  0  0  0  0  0  0  0  0  0
   -4.7250   -2.5764   29.7772 H   0  0  0  0  0  0  0  0  0  0  0  0
   -5.9185   -5.9838   32.8358 H   0  0  0  0  0  0  0  0  0  0  0  0
  1  5  1  0  0  0  0
  1 12  1  0  0  0  0
  2 11  1  0  0  0  0
  3  4  1  0  0  0  0
  3 11  1  0  0  0  0
  4 13  2  0  0  0  0
  6  8  1  0  0  0  0
  6 12  2  0  0  0  0
  7  9  2  0  0  0  0
  7 12  1  0  0  0  0
  8 14  2  0  0  0  0
  9 14  1  0  0  0  0
 10 11  2  0  0  0  0
 10 13  1  0  0  0  0
 13 14  1  0  0  0  0
  2 15  1  0  0  0  0
  2 16  1  0  0  0  0
  3 17  1  0  0  0  0
  5 18  1  0  0  0  0
  5 19  1  0  0  0  0
  5 20  1  0  0  0  0
  6 21  1  0  0  0  0
  7 22  1  0  0  0  0
  8 23  1  0  0  0  0
  9 24  1  0  0  0  0
 10 25  1  0  0  0  0
M  END
> <pdb_id>
7A4Z

> <uniprot_id>
Q13627

> <usmiles>
O(c1ccc(cc1)C2=NNC(N)=C2)C

$$$$
6SD_B_301
          07212403353D 1   1.00000     0.00000     0
            
 25 26  0  0  0  0            999 V2000
  -25.8952   20.9153  -10.7502 O   0  0  0  0  0  0  0  0  0  0  0  0
  -18.3622   15.9064  -12.3814 N   0  0  0  0  0  0  0  0  0  0  0  0
  -18.7859   18.3194  -12.6910 N   0  0  0  0  0  0  0  0  0  0  0  0
  -19.8406   19.1781  -12.5839 N   0  0  0  0  0  0  0  0  0  0  0  0
  -25.8073   22.2489  -10.2453 C   0  0  0  0  0  0  0  0  0  0  0  0
  -24.6285   18.9756  -11.4105 C   0  0  0  0  0  0  0  0  0  0  0  0
  -23.5017   21.1110  -11.2197 C   0  0  0  0  0  0  0  0  0  0  0  0
  -23.4143   18.3704  -11.7738 C   0  0  0  0  0  0  0  0  0  0  0  0
  -22.2792   20.5106  -11.5839 C   0  0  0  0  0  0  0  0  0  0  0  0
  -20.5491   17.1644  -12.0499 C   0  0  0  0  0  0  0  0  0  0  0  0
  -19.2041   17.0709  -12.3809 C   0  0  0  0  0  0  0  0  0  0  0  0
  -24.6603   20.3404  -11.1262 C   0  0  0  0  0  0  0  0  0  0  0  0
  -20.9133   18.5007  -12.2058 C   0  0  0  0  0  0  0  0  0  0  0  0
  -22.2577   19.1402  -11.8857 C   0  0  0  0  0  0  0  0  0  0  0  0
  -18.7432   15.0138  -12.1404 H   0  0  0  0  0  0  0  0  0  0  0  0
  -17.3952   15.9886  -12.6228 H   0  0  0  0  0  0  0  0  0  0  0  0
  -17.8552   18.5719  -12.9556 H   0  0  0  0  0  0  0  0  0  0  0  0
  -26.7215   22.5754  -10.0053 H   0  0  0  0  0  0  0  0  0  0  0  0
  -25.2254   22.2597   -9.4321 H   0  0  0  0  0  0  0  0  0  0  0  0
  -25.4135   22.8450  -10.9450 H   0  0  0  0  0  0  0  0  0  0  0  0
  -25.4654   18.4309  -11.3561 H   0  0  0  0  0  0  0  0  0  0  0  0
  -23.5382   22.0917  -11.0280 H   0  0  0  0  0  0  0  0  0  0  0  0
  -23.3796   17.3871  -11.9522 H   0  0  0  0  0  0  0  0  0  0  0  0
  -21.4401   21.0530  -11.6266 H   0  0  0  0  0  0  0  0  0  0  0  0
  -21.1433   16.4158  -11.7558 H   0  0  0  0  0  0  0  0  0  0  0  0
  1  5  1  0  0  0  0
  1 12  1  0  0  0  0
  2 11  1  0  0  0  0
  3  4  1  0  0  0  0
  3 11  1  0  0  0  0
  4 13  2  0  0  0  0
  6  8  1  0  0  0  0
  6 12  2  0  0  0  0
  7  9  2  0  0  0  0
  7 12  1  0  0  0  0
  8 14  2  0  0  0  0
  9 14  1  0  0  0  0
 10 11  2  0  0  0  0
 10 13  1  0  0  0  0
 13 14  1  0  0  0  0
  2 15  1  0  0  0  0
  2 16  1  0  0  0  0
  3 17  1  0  0  0  0
  5 18  1  0  0  0  0
  5 19  1  0  0  0  0
  5 20  1  0  0  0  0
  6 21  1  0  0  0  0
  7 22  1  0  0  0  0
  8 23  1  0  0  0  0
  9 24  1  0  0  0  0
 10 25  1  0  0  0  0
M  END
> <pdb_id>
6QOT

> <uniprot_id>
B1MDI3

> <usmiles>
O(c1ccc(cc1)C2=NNC(N)=C2)C

$$$$
6SO_A_302
          07192419343D 1   1.00000     0.00000     0
            
 24 25  0  0  0  0            999 V2000
   49.6527   23.5629   52.5446 Cl  0  0  0  0  0  0  0  0  0  0  0  0
   46.5097   17.3374   52.4312 N   0  0  0  0  0  0  0  0  0  0  0  0
   45.2332   22.0655   49.0618 N   0  0  0  0  0  0  0  0  0  0  0  0
   44.8645   20.8798   49.6364 C   0  0  0  0  0  0  0  0  0  0  0  0
   48.0196   24.0548   50.4412 C   0  0  0  0  0  0  0  0  0  0  0  0
   46.9977   23.7717   49.5693 C   0  0  0  0  0  0  0  0  0  0  0  0
   47.6588   21.9904   51.6720 C   0  0  0  0  0  0  0  0  0  0  0  0
   46.6264   18.3269   51.3367 C   0  0  0  0  0  0  0  0  0  0  0  0
   45.6159   19.4172   51.6118 C   0  0  0  0  0  0  0  0  0  0  0  0
   48.3373   23.1630   51.4685 C   0  0  0  0  0  0  0  0  0  0  0  0
   46.2879   22.5905   49.7603 C   0  0  0  0  0  0  0  0  0  0  0  0
   45.6816   20.5920   50.6897 C   0  0  0  0  0  0  0  0  0  0  0  0
   46.5997   21.6912   50.8002 C   0  0  0  0  0  0  0  0  0  0  0  0
   46.6526   17.7232   53.2153 H   0  0  0  0  0  0  0  0  0  0  0  0
   45.6900   16.9937   52.4714 H   0  0  0  0  0  0  0  0  0  0  0  0
   44.8528   22.4295   48.3601 H   0  0  0  0  0  0  0  0  0  0  0  0
   44.1460   20.3421   49.3409 H   0  0  0  0  0  0  0  0  0  0  0  0
   48.5058   24.8476   50.3472 H   0  0  0  0  0  0  0  0  0  0  0  0
   46.7849   24.3547   48.8682 H   0  0  0  0  0  0  0  0  0  0  0  0
   47.8895   21.4097   52.3632 H   0  0  0  0  0  0  0  0  0  0  0  0
   47.5345   18.6983   51.3085 H   0  0  0  0  0  0  0  0  0  0  0  0
   46.4461   17.9016   50.4709 H   0  0  0  0  0  0  0  0  0  0  0  0
   44.7237   19.0282   51.5544 H   0  0  0  0  0  0  0  0  0  0  0  0
   45.7464   19.7322   52.5250 H   0  0  0  0  0  0  0  0  0  0  0  0
  1 10  1  0  0  0  0
  2  8  1  0  0  0  0
  2 14  1  0  0  0  0
  2 15  1  0  0  0  0
  3  4  1  0  0  0  0
  3 11  1  0  0  0  0
  3 16  1  0  0  0  0
  4 12  2  0  0  0  0
  4 17  1  0  0  0  0
  5  6  1  0  0  0  0
  5 10  2  0  0  0  0
  5 18  1  0  0  0  0
  6 11  2  0  0  0  0
  6 19  1  0  0  0  0
  7 10  1  0  0  0  0
  7 13  2  0  0  0  0
  7 20  1  0  0  0  0
  8  9  1  0  0  0  0
  8 21  1  0  0  0  0
  8 22  1  0  0  0  0
  9 12  1  0  0  0  0
  9 23  1  0  0  0  0
  9 24  1  0  0  0  0
 11 13  1  0  0  0  0
 12 13  1  0  0  0  0
M  END
> <pdb_id>
7BRW

> <uniprot_id>
P00760

> <usmiles>
Clc1cc2c(NC=C2CCN)cc1

$$$$
6SO_A_423
          07192419233D 1   1.00000     0.00000     0
            
 24 25  0  0  0  0            999 V2000
  -21.7360   39.7092    0.3315 Cl  0  0  0  0  0  0  0  0  0  0  0  0
  -17.9718   37.4396   -5.0708 N   0  0  0  0  0  0  0  0  0  0  0  0
  -17.5691   35.6223    0.5026 N   0  0  0  0  0  0  0  0  0  0  0  0
  -17.7751   37.3035   -3.6052 C   0  0  0  0  0  0  0  0  0  0  0  0
  -17.4616   35.3296   -0.8329 C   0  0  0  0  0  0  0  0  0  0  0  0
  -18.5253   36.1100   -3.0451 C   0  0  0  0  0  0  0  0  0  0  0  0
  -19.9376   38.2263    1.7038 C   0  0  0  0  0  0  0  0  0  0  0  0
  -18.9525   37.2569    1.8178 C   0  0  0  0  0  0  0  0  0  0  0  0
  -20.0777   37.8407   -0.6896 C   0  0  0  0  0  0  0  0  0  0  0  0
  -20.4991   38.4887    0.4574 C   0  0  0  0  0  0  0  0  0  0  0  0
  -18.5226   36.5937    0.6747 C   0  0  0  0  0  0  0  0  0  0  0  0
  -18.3509   36.0784   -1.5500 C   0  0  0  0  0  0  0  0  0  0  0  0
  -19.0582   36.8876   -0.5955 C   0  0  0  0  0  0  0  0  0  0  0  0
  -17.4639   38.2345   -5.4028 H   0  0  0  0  0  0  0  0  0  0  0  0
  -17.6389   36.6158   -5.5297 H   0  0  0  0  0  0  0  0  0  0  0  0
  -17.0374   35.1958    1.2343 H   0  0  0  0  0  0  0  0  0  0  0  0
  -18.1054   38.1335   -3.1558 H   0  0  0  0  0  0  0  0  0  0  0  0
  -16.7994   37.1892   -3.4187 H   0  0  0  0  0  0  0  0  0  0  0  0
  -16.8251   34.6652   -1.2245 H   0  0  0  0  0  0  0  0  0  0  0  0
  -18.1606   35.2681   -3.4430 H   0  0  0  0  0  0  0  0  0  0  0  0
  -19.4969   36.1903   -3.2676 H   0  0  0  0  0  0  0  0  0  0  0  0
  -20.2421   38.7327    2.5105 H   0  0  0  0  0  0  0  0  0  0  0  0
  -18.5571   37.0383    2.7099 H   0  0  0  0  0  0  0  0  0  0  0  0
  -20.4959   38.0506   -1.5734 H   0  0  0  0  0  0  0  0  0  0  0  0
  1 10  1  0  0  0  0
  2  4  1  0  0  0  0
  3  5  1  0  0  0  0
  3 11  1  0  0  0  0
  4  6  1  0  0  0  0
  5 12  2  0  0  0  0
  6 12  1  0  0  0  0
  7  8  1  0  0  0  0
  7 10  2  0  0  0  0
  8 11  2  0  0  0  0
  9 10  1  0  0  0  0
  9 13  2  0  0  0  0
 11 13  1  0  0  0  0
 12 13  1  0  0  0  0
  2 14  1  0  0  0  0
  2 15  1  0  0  0  0
  3 16  1  0  0  0  0
  4 17  1  0  0  0  0
  4 18  1  0  0  0  0
  5 19  1  0  0  0  0
  6 20  1  0  0  0  0
  6 21  1  0  0  0  0
  7 22  1  0  0  0  0
  8 23  1  0  0  0  0
  9 24  1  0  0  0  0
M  END
> <pdb_id>
5KGG

> <uniprot_id>
P11309

> <usmiles>
Clc1cc2c(NC=C2CCN)cc1

$$$$
6SX_A_701
          07202406373D 1   1.00000     0.00000     0
            
 32 35  0  0  0  0            999 V2000
   21.1404    4.1744   53.9999 P   0  0  0  0  0  0  0  0  0  0  0  0
   22.5318    3.6538   54.0350 O   0  0  0  0  0  0  0  0  0  0  0  0
   20.5900    4.8941   52.8226 O   0  0  0  0  0  0  0  0  0  0  0  0
   18.4812    1.3504   55.7447 O   0  0  0  0  0  0  0  0  0  0  0  0
   20.9321    5.1261   55.2620 O   0  0  0  0  0  0  0  0  0  0  0  0
   20.1139    2.9416   54.2196 O   0  0  0  0  0  0  0  0  0  0  0  0
   17.4171    4.4120   55.8988 O   0  0  0  0  0  0  0  0  0  0  0  0
   11.8726    2.0103   54.7631 N   0  0  0  0  0  0  0  0  0  0  0  0
   13.9696    1.9397   55.8618 N   0  0  0  0  0  0  0  0  0  0  0  0
   14.3776    4.1368   53.1141 N   0  0  0  0  0  0  0  0  0  0  0  0
   15.6554    3.3700   54.7668 N   0  0  0  0  0  0  0  0  0  0  0  0
   12.6801    1.5594   55.7614 C   0  0  0  0  0  0  0  0  0  0  0  0
   15.6150    4.1631   53.6723 C   0  0  0  0  0  0  0  0  0  0  0  0
   19.6072    5.5456   55.5601 C   0  0  0  0  0  0  0  0  0  0  0  0
   12.2909    2.8616   53.8067 C   0  0  0  0  0  0  0  0  0  0  0  0
   17.8546    2.3163   54.9008 C   0  0  1  0  0  0  0  0  0  0  0  0
   16.8309    3.1486   55.6372 C   0  0  1  0  0  0  0  0  0  0  0  0
   18.8141    4.2696   55.6895 C   0  0  2  0  0  0  0  0  0  0  0  0
   14.4738    2.8045   54.9460 C   0  0  0  0  0  0  0  0  0  0  0  0
   18.8293    3.3840   54.4736 C   0  0  1  0  0  0  0  0  0  0  0  0
   13.6128    3.3098   53.8563 C   0  0  0  0  0  0  0  0  0  0  0  0
   22.6979    3.2056   54.9134 H   0  0  0  0  0  0  0  0  0  0  0  0
   19.1476    0.8265   55.2142 H   0  0  0  0  0  0  0  0  0  0  0  0
   12.3061    0.9275   56.4402 H   0  0  0  0  0  0  0  0  0  0  0  0
   16.3873    4.6939   53.3234 H   0  0  0  0  0  0  0  0  0  0  0  0
   19.2432    6.1123   54.8210 H   0  0  0  0  0  0  0  0  0  0  0  0
   19.5860    6.0610   56.4167 H   0  0  0  0  0  0  0  0  0  0  0  0
   11.6724    3.1642   53.0816 H   0  0  0  0  0  0  0  0  0  0  0  0
   17.4431    1.8745   54.1036 H   0  0  0  0  0  0  0  0  0  0  0  0
   16.5598    2.7019   56.4898 H   0  0  0  0  0  0  0  0  0  0  0  0
   19.1898    3.7486   56.4559 H   0  0  0  0  0  0  0  0  0  0  0  0
   18.4725    3.8795   53.6817 H   0  0  0  0  0  0  0  0  0  0  0  0
  1  2  1  0  0  0  0
  1  3  2  0  0  0  0
  1  5  1  0  0  0  0
  1  6  1  0  0  0  0
  4 16  1  0  0  0  0
  5 14  1  0  0  0  0
  6 20  1  0  0  0  0
  7 17  1  0  0  0  0
  7 18  1  0  0  0  0
  8 12  2  0  0  0  0
  8 15  1  0  0  0  0
  9 12  1  0  0  0  0
  9 19  2  0  0  0  0
 10 13  2  0  0  0  0
 10 21  1  0  0  0  0
 11 13  1  0  0  0  0
 11 17  1  0  0  0  0
 11 19  1  0  0  0  0
 14 18  1  0  0  0  0
 15 21  2  0  0  0  0
 16 17  1  0  0  0  0
 16 20  1  0  0  0  0
 18 20  1  0  0  0  0
 19 21  1  0  0  0  0
  2 22  1  0  0  0  0
  4 23  1  0  0  0  0
 12 24  1  0  0  0  0
 13 25  1  0  0  0  0
 14 26  1  0  0  0  0
 14 27  1  0  0  0  0
 15 28  1  0  0  0  0
 16 29  1  0  0  0  0
 17 30  1  0  0  0  0
 18 31  1  0  0  0  0
 20 32  1  0  0  0  0
M  END
> <pdb_id>
5KHI

> <uniprot_id>
O88703

> <usmiles>
P1(=O)(O[C@@H]2[C@H](O[C@@H](N3c4ncncc4N=C3)[C@@H]2O)CO1)O

$$$$
6SZ_A_701
          07202406373D 1   1.00000     0.00000     0
            
 34 37  0  0  0  0            999 V2000
   21.2090    4.2640   54.0630 P   0  0  0  0  0  0  0  0  0  0  0  0
   20.5710    4.9490   52.9000 O   0  0  0  0  0  0  0  0  0  0  0  0
   22.6270    3.8530   54.0920 O   0  0  0  0  0  0  0  0  0  0  0  0
   18.4050    1.5560   55.7020 O   0  0  0  0  0  0  0  0  0  0  0  0
   20.9660    5.1730   55.3420 O   0  0  0  0  0  0  0  0  0  0  0  0
   20.2380    2.9810   54.2510 O   0  0  0  0  0  0  0  0  0  0  0  0
   17.4930    4.5300   55.7730 O   0  0  0  0  0  0  0  0  0  0  0  0
   12.3520    1.3840   56.3820 N   0  0  0  0  0  0  0  0  0  0  0  0
   12.0420    2.5750   54.3780 N   0  0  0  0  0  0  0  0  0  0  0  0
   14.7740    4.4540   52.6810 N   0  0  0  0  0  0  0  0  0  0  0  0
   14.1470    2.4630   55.4930 N   0  0  0  0  0  0  0  0  0  0  0  0
   15.9060    3.6400   54.3880 N   0  0  0  0  0  0  0  0  0  0  0  0
   19.6380    5.6360   55.4810 C   0  0  0  0  0  0  0  0  0  0  0  0
   15.9900    4.3980   53.2870 C   0  0  0  0  0  0  0  0  0  0  0  0
   12.5330    3.4130   53.2720 C   0  0  0  0  0  0  0  0  0  0  0  0
   12.8440    2.1580   55.3930 C   0  0  0  0  0  0  0  0  0  0  0  0
   17.9370    2.4640   54.7210 C   0  0  1  0  0  0  0  0  0  0  0  0
   16.9080    3.3120   55.3810 C   0  0  1  0  0  0  0  0  0  0  0  0
   18.8750    4.3610   55.5620 C   0  0  2  0  0  0  0  0  0  0  0  0
   18.9550    3.4740   54.3540 C   0  0  1  0  0  0  0  0  0  0  0  0
   14.7030    3.2090   54.5510 C   0  0  0  0  0  0  0  0  0  0  0  0
   13.9440    3.7140   53.4300 C   0  0  0  0  0  0  0  0  0  0  0  0
   19.6093    5.1296   53.1061 H   0  0  0  0  0  0  0  0  0  0  0  0
   19.1026    0.9623   55.3009 H   0  0  0  0  0  0  0  0  0  0  0  0
   12.9495    1.0819   57.1248 H   0  0  0  0  0  0  0  0  0  0  0  0
   11.3897    1.1122   56.3725 H   0  0  0  0  0  0  0  0  0  0  0  0
   19.3571    6.1782   54.6891 H   0  0  0  0  0  0  0  0  0  0  0  0
   19.5275    6.1794   56.3132 H   0  0  0  0  0  0  0  0  0  0  0  0
   16.8189    4.8525   52.9610 H   0  0  0  0  0  0  0  0  0  0  0  0
   11.9683    3.7330   52.5113 H   0  0  0  0  0  0  0  0  0  0  0  0
   17.5730    1.9917   53.9182 H   0  0  0  0  0  0  0  0  0  0  0  0
   16.4998    2.8404   56.1626 H   0  0  0  0  0  0  0  0  0  0  0  0
   19.2360    3.8441   56.3382 H   0  0  0  0  0  0  0  0  0  0  0  0
   18.6908    3.9680   53.5256 H   0  0  0  0  0  0  0  0  0  0  0  0
  1  2  1  0  0  0  0
  1  3  2  0  0  0  0
  1  5  1  0  0  0  0
  1  6  1  0  0  0  0
  4 17  1  0  0  0  0
  5 13  1  0  0  0  0
  6 20  1  0  0  0  0
  7 18  1  0  0  0  0
  7 19  1  0  0  0  0
  8 16  1  0  0  0  0
  9 15  1  0  0  0  0
  9 16  2  0  0  0  0
 10 14  2  0  0  0  0
 10 22  1  0  0  0  0
 11 16  1  0  0  0  0
 11 21  2  0  0  0  0
 12 14  1  0  0  0  0
 12 18  1  0  0  0  0
 12 21  1  0  0  0  0
 13 19  1  0  0  0  0
 15 22  2  0  0  0  0
 17 18  1  0  0  0  0
 17 20  1  0  0  0  0
 19 20  1  0  0  0  0
 21 22  1  0  0  0  0
  2 23  1  0  0  0  0
  4 24  1  0  0  0  0
  8 25  1  0  0  0  0
  8 26  1  0  0  0  0
 13 27  1  0  0  0  0
 13 28  1  0  0  0  0
 14 29  1  0  0  0  0
 15 30  1  0  0  0  0
 17 31  1  0  0  0  0
 18 32  1  0  0  0  0
 19 33  1  0  0  0  0
 20 34  1  0  0  0  0
M  END
> <pdb_id>
5KHK

> <uniprot_id>
O88703

> <usmiles>
P1(=O)(O[C@@H]2[C@H](O[C@@H](N3c4nc(ncc4N=C3)N)[C@@H]2O)CO1)O

$$$$
6TA_B_501
          07202407493D 1   1.00000     0.00000     0
            
 58 61  0  0  0  0            999 V2000
    6.6849   -2.7379   48.9736 O   0  0  0  0  0  0  0  0  0  0  0  0
    8.5932   -7.9213   42.8760 O   0  0  0  0  0  0  0  0  0  0  0  0
    8.2800   -1.2371   48.9720 O   0  0  0  0  0  0  0  0  0  0  0  0
   10.4509   -8.2497   36.7988 N   0  0  0  0  0  0  0  0  0  0  0  0
   10.3768   -6.6754   43.3458 N   0  0  0  0  0  0  0  0  0  0  0  0
    7.7982   -2.3425   47.1687 N   0  0  0  0  0  0  0  0  0  0  0  0
   10.1487   -7.8863   41.3924 N   0  0  0  0  0  0  0  0  0  0  0  0
    9.4095    0.0413   50.5448 C   0  0  0  0  0  0  0  0  0  0  0  0
    7.0887   -0.6240   50.9524 C   0  0  0  0  0  0  0  0  0  0  0  0
    8.8516   -2.3590   51.0420 C   0  0  0  0  0  0  0  0  0  0  0  0
   11.5037   -7.5540   36.9563 C   0  0  0  0  0  0  0  0  0  0  0  0
    9.7442   -8.6935   37.7892 C   0  0  0  0  0  0  0  0  0  0  0  0
    9.9563   -6.1836   44.6572 C   0  0  0  0  0  0  0  0  0  0  0  0
    8.8697   -1.6069   46.5320 C   0  0  0  0  0  0  0  0  0  0  0  0
    7.1063   -3.3598   46.4575 C   0  0  0  0  0  0  0  0  0  0  0  0
    9.4815   -8.7434   40.4227 C   0  0  0  0  0  0  0  0  0  0  0  0
   11.3941   -7.4289   40.7771 C   0  0  0  0  0  0  0  0  0  0  0  0
   11.9190   -7.1870   38.1996 C   0  0  0  0  0  0  0  0  0  0  0  0
    9.9845   -2.5785   46.2067 C   0  0  0  0  0  0  0  0  0  0  0  0
    8.1853   -4.4171   46.2855 C   0  0  0  0  0  0  0  0  0  0  0  0
    9.2551   -3.7727   44.0560 C   0  0  0  0  0  0  0  0  0  0  0  0
    7.5425   -2.1399   48.4546 C   0  0  0  0  0  0  0  0  0  0  0  0
    9.6450   -7.5119   42.5812 C   0  0  0  0  0  0  0  0  0  0  0  0
   10.1046   -8.4094   39.0988 C   0  0  0  0  0  0  0  0  0  0  0  0
   11.2035   -7.6196   39.2849 C   0  0  0  0  0  0  0  0  0  0  0  0
   10.2415   -4.6916   44.7228 C   0  0  1  0  0  0  0  0  0  0  0  0
    8.3964   -1.0635   50.3694 C   0  0  0  0  0  0  0  0  0  0  0  0
    9.3595   -3.8038   45.5680 C   0  0  0  0  0  0  0  0  0  0  0  0
   11.2624   -6.3726   42.9937 H   0  0  0  0  0  0  0  0  0  0  0  0
    9.5431    0.2193   51.5197 H   0  0  0  0  0  0  0  0  0  0  0  0
   10.2784   -0.2350   50.1342 H   0  0  0  0  0  0  0  0  0  0  0  0
    9.0782    0.8716   50.0967 H   0  0  0  0  0  0  0  0  0  0  0  0
    7.1872   -0.5056   51.9404 H   0  0  0  0  0  0  0  0  0  0  0  0
    6.8140    0.2439   50.5384 H   0  0  0  0  0  0  0  0  0  0  0  0
    6.3917   -1.3168   50.7675 H   0  0  0  0  0  0  0  0  0  0  0  0
    8.9272   -2.2137   52.0285 H   0  0  0  0  0  0  0  0  0  0  0  0
    8.1834   -3.0808   50.8617 H   0  0  0  0  0  0  0  0  0  0  0  0
    9.7418   -2.6298   50.6758 H   0  0  0  0  0  0  0  0  0  0  0  0
   12.0335   -7.2728   36.1561 H   0  0  0  0  0  0  0  0  0  0  0  0
    8.9309   -9.2465   37.6083 H   0  0  0  0  0  0  0  0  0  0  0  0
   10.4666   -6.6571   45.3752 H   0  0  0  0  0  0  0  0  0  0  0  0
    8.9775   -6.3464   44.7812 H   0  0  0  0  0  0  0  0  0  0  0  0
    9.2083   -0.8986   47.1513 H   0  0  0  0  0  0  0  0  0  0  0  0
    8.5351   -1.1820   45.6908 H   0  0  0  0  0  0  0  0  0  0  0  0
    6.7800   -3.0268   45.5729 H   0  0  0  0  0  0  0  0  0  0  0  0
    6.3342   -3.7118   46.9866 H   0  0  0  0  0  0  0  0  0  0  0  0
    8.4999   -8.5535   40.4051 H   0  0  0  0  0  0  0  0  0  0  0  0
    9.6307   -9.7066   40.6463 H   0  0  0  0  0  0  0  0  0  0  0  0
   12.1660   -7.9745   41.1033 H   0  0  0  0  0  0  0  0  0  0  0  0
   11.5545   -6.4647   40.9884 H   0  0  0  0  0  0  0  0  0  0  0  0
   12.7295   -6.6135   38.3183 H   0  0  0  0  0  0  0  0  0  0  0  0
   10.4641   -2.8389   47.0447 H   0  0  0  0  0  0  0  0  0  0  0  0
   10.6300   -2.1553   45.5710 H   0  0  0  0  0  0  0  0  0  0  0  0
    7.8251   -5.1801   45.7488 H   0  0  0  0  0  0  0  0  0  0  0  0
    8.4762   -4.7488   47.1829 H   0  0  0  0  0  0  0  0  0  0  0  0
    8.4475   -4.1501   43.6028 H   0  0  0  0  0  0  0  0  0  0  0  0
    9.5794   -2.9743   43.5488 H   0  0  0  0  0  0  0  0  0  0  0  0
   11.2031   -4.4246   44.6601 H   0  0  0  0  0  0  0  0  0  0  0  0
  1 22  2  0  0  0  0
  2 23  2  0  0  0  0
  3 22  1  0  0  0  0
  3 27  1  0  0  0  0
  4 11  2  0  0  0  0
  4 12  1  0  0  0  0
  5 13  1  0  0  0  0
  5 23  1  0  0  0  0
  6 14  1  0  0  0  0
  6 15  1  0  0  0  0
  6 22  1  0  0  0  0
  7 16  1  0  0  0  0
  7 17  1  0  0  0  0
  7 23  1  0  0  0  0
  8 27  1  0  0  0  0
  9 27  1  0  0  0  0
 10 27  1  0  0  0  0
 11 18  1  0  0  0  0
 12 24  2  0  0  0  0
 13 26  1  0  0  0  0
 14 19  1  0  0  0  0
 15 20  1  0  0  0  0
 16 24  1  0  0  0  0
 17 25  1  0  0  0  0
 18 25  2  0  0  0  0
 19 28  1  0  0  0  0
 20 28  1  0  0  0  0
 21 26  1  0  0  0  0
 21 28  1  0  0  0  0
 24 25  1  0  0  0  0
 26 28  1  0  0  0  0
  5 29  1  0  0  0  0
  8 30  1  0  0  0  0
  8 31  1  0  0  0  0
  8 32  1  0  0  0  0
  9 33  1  0  0  0  0
  9 34  1  0  0  0  0
  9 35  1  0  0  0  0
 10 36  1  0  0  0  0
 10 37  1  0  0  0  0
 10 38  1  0  0  0  0
 11 39  1  0  0  0  0
 12 40  1  0  0  0  0
 13 41  1  0  0  0  0
 13 42  1  0  0  0  0
 14 43  1  0  0  0  0
 14 44  1  0  0  0  0
 15 45  1  0  0  0  0
 15 46  1  0  0  0  0
 16 47  1  0  0  0  0
 16 48  1  0  0  0  0
 17 49  1  0  0  0  0
 17 50  1  0  0  0  0
 18 51  1  0  0  0  0
 19 52  1  0  0  0  0
 19 53  1  0  0  0  0
 20 54  1  0  0  0  0
 20 55  1  0  0  0  0
 21 56  1  0  0  0  0
 21 57  1  0  0  0  0
 26 58  1  0  0  0  0
M  END
> <pdb_id>
5KIT

> <uniprot_id>
P43490

> <usmiles>
O=C(OC(C)(C)C)N1CCC2([C@@H](CNC(=O)N3Cc4c(ccnc4)C3)C2)CC1

$$$$
6TH_H_301
          07202416143D 1   1.00000     0.00000     0
            
 61 63  0  0  0  0            999 V2000
   16.2985   -8.2438   10.9355 Cl  0  0  0  0  0  0  0  0  0  0  0  0
   15.3309  -14.2294   13.6785 O   0  0  0  0  0  0  0  0  0  0  0  0
   12.8914  -13.0694   15.6611 O   0  0  0  0  0  0  0  0  0  0  0  0
   12.2628  -13.3280   12.5521 O   0  0  0  0  0  0  0  0  0  0  0  0
   12.3024  -16.1286   12.4044 N   0  0  0  0  0  0  0  0  0  0  0  0
   12.9820  -11.0296   14.7061 N   0  0  0  0  0  0  0  0  0  0  0  0
   10.5939  -13.5505   14.0199 N   0  0  0  0  0  0  0  0  0  0  0  0
   15.9867  -13.1789   14.3575 C   0  0  0  0  0  0  0  0  0  0  0  0
   14.3817  -10.8033   15.0400 C   0  0  0  0  0  0  0  0  0  0  0  0
    9.4621  -14.2401   14.6638 C   0  0  0  0  0  0  0  0  0  0  0  0
    8.8077  -13.1498   15.4769 C   0  0  0  0  0  0  0  0  0  0  0  0
    6.3376  -14.2896    9.9244 C   0  0  0  0  0  0  0  0  0  0  0  0
    6.6436  -14.7604   11.3362 C   0  0  0  0  0  0  0  0  0  0  0  0
    7.4344  -13.3813    9.4087 C   0  0  0  0  0  0  0  0  0  0  0  0
   17.0098  -10.7478   11.6342 C   0  0  0  0  0  0  0  0  0  0  0  0
    8.0168  -15.4225   11.4169 C   0  0  0  0  0  0  0  0  0  0  0  0
    8.7906  -14.0693    9.4821 C   0  0  0  0  0  0  0  0  0  0  0  0
    9.9518  -12.2257   15.8584 C   0  0  0  0  0  0  0  0  0  0  0  0
   16.9174  -11.8768   12.4244 C   0  0  0  0  0  0  0  0  0  0  0  0
   15.3824   -9.6645   13.0254 C   0  0  0  0  0  0  0  0  0  0  0  0
   10.4969  -15.1881   10.9607 C   0  0  0  0  0  0  0  0  0  0  0  0
   16.2333   -9.6592   11.9449 C   0  0  0  0  0  0  0  0  0  0  0  0
   12.3464  -12.1487   15.0545 C   0  0  0  0  0  0  0  0  0  0  0  0
   11.3453  -13.9907   12.9967 C   0  0  0  0  0  0  0  0  0  0  0  0
   11.0362  -15.3831   12.3768 C   0  0  2  0  0  0  0  0  0  0  0  0
    9.1276  -14.5152   10.8972 C   0  0  0  0  0  0  0  0  0  0  0  0
   10.8810  -12.2490   14.6378 C   0  0  1  0  0  0  0  0  0  0  0  0
   16.0653  -11.9233   13.5225 C   0  0  0  0  0  0  0  0  0  0  0  0
   15.2888  -10.7948   13.8337 C   0  0  0  0  0  0  0  0  0  0  0  0
   15.3012  -15.0384   14.2655 H   0  0  0  0  0  0  0  0  0  0  0  0
   12.6102  -16.2279   13.3507 H   0  0  0  0  0  0  0  0  0  0  0  0
   12.1653  -17.0337   12.0018 H   0  0  0  0  0  0  0  0  0  0  0  0
   12.4834  -10.3252   14.2010 H   0  0  0  0  0  0  0  0  0  0  0  0
   16.9148  -13.4727   14.5860 H   0  0  0  0  0  0  0  0  0  0  0  0
   15.4849  -12.9758   15.1983 H   0  0  0  0  0  0  0  0  0  0  0  0
   14.6821  -11.5298   15.6581 H   0  0  0  0  0  0  0  0  0  0  0  0
   14.4590   -9.9197   15.5017 H   0  0  0  0  0  0  0  0  0  0  0  0
    9.7828  -14.9823   15.2523 H   0  0  0  0  0  0  0  0  0  0  0  0
    8.8300  -14.6059   13.9807 H   0  0  0  0  0  0  0  0  0  0  0  0
    8.3722  -13.5297   16.2930 H   0  0  0  0  0  0  0  0  0  0  0  0
    8.1258  -12.6624   14.9315 H   0  0  0  0  0  0  0  0  0  0  0  0
    5.4718  -13.7892    9.9265 H   0  0  0  0  0  0  0  0  0  0  0  0
    6.2614  -15.0850    9.3232 H   0  0  0  0  0  0  0  0  0  0  0  0
    5.9470  -15.4205   11.6172 H   0  0  0  0  0  0  0  0  0  0  0  0
    6.6251  -13.9734   11.9528 H   0  0  0  0  0  0  0  0  0  0  0  0
    7.4588  -12.5499    9.9639 H   0  0  0  0  0  0  0  0  0  0  0  0
    7.2402  -13.1413    8.4575 H   0  0  0  0  0  0  0  0  0  0  0  0
   17.6306  -10.7238   10.8506 H   0  0  0  0  0  0  0  0  0  0  0  0
    8.0030  -16.2597   10.8701 H   0  0  0  0  0  0  0  0  0  0  0  0
    8.2082  -15.6510   12.3714 H   0  0  0  0  0  0  0  0  0  0  0  0
    9.4938  -13.4311    9.1685 H   0  0  0  0  0  0  0  0  0  0  0  0
    8.7784  -14.8715    8.8851 H   0  0  0  0  0  0  0  0  0  0  0  0
   10.4257  -12.5654   16.6709 H   0  0  0  0  0  0  0  0  0  0  0  0
    9.6167  -11.2995   16.0309 H   0  0  0  0  0  0  0  0  0  0  0  0
   17.4744  -12.6771   12.2025 H   0  0  0  0  0  0  0  0  0  0  0  0
   14.8304   -8.8563   13.2308 H   0  0  0  0  0  0  0  0  0  0  0  0
   10.4251  -16.0860   10.5265 H   0  0  0  0  0  0  0  0  0  0  0  0
   11.1474  -14.6233   10.4529 H   0  0  0  0  0  0  0  0  0  0  0  0
   10.3544  -15.8564   12.9347 H   0  0  0  0  0  0  0  0  0  0  0  0
    9.1573  -13.7014   11.4776 H   0  0  0  0  0  0  0  0  0  0  0  0
   10.6472  -11.5072   14.0093 H   0  0  0  0  0  0  0  0  0  0  0  0
  1 22  1  0  0  0  0
  2  8  1  0  0  0  0
  3 23  2  0  0  0  0
  4 24  2  0  0  0  0
  5 25  1  0  0  0  0
  6  9  1  0  0  0  0
  6 23  1  0  0  0  0
  7 10  1  0  0  0  0
  7 24  1  0  0  0  0
  7 27  1  0  0  0  0
  8 28  1  0  0  0  0
  9 29  1  0  0  0  0
 10 11  1  0  0  0  0
 11 18  1  0  0  0  0
 12 13  1  0  0  0  0
 12 14  1  0  0  0  0
 13 16  1  0  0  0  0
 14 17  1  0  0  0  0
 15 19  2  0  0  0  0
 15 22  1  0  0  0  0
 16 26  1  0  0  0  0
 17 26  1  0  0  0  0
 18 27  1  0  0  0  0
 19 28  1  0  0  0  0
 20 22  2  0  0  0  0
 20 29  1  0  0  0  0
 21 25  1  0  0  0  0
 21 26  1  0  0  0  0
 23 27  1  0  0  0  0
 24 25  1  0  0  0  0
 28 29  2  0  0  0  0
  2 30  1  0  0  0  0
  5 31  1  0  0  0  0
  5 32  1  0  0  0  0
  6 33  1  0  0  0  0
  8 34  1  0  0  0  0
  8 35  1  0  0  0  0
  9 36  1  0  0  0  0
  9 37  1  0  0  0  0
 10 38  1  0  0  0  0
 10 39  1  0  0  0  0
 11 40  1  0  0  0  0
 11 41  1  0  0  0  0
 12 42  1  0  0  0  0
 12 43  1  0  0  0  0
 13 44  1  0  0  0  0
 13 45  1  0  0  0  0
 14 46  1  0  0  0  0
 14 47  1  0  0  0  0
 15 48  1  0  0  0  0
 16 49  1  0  0  0  0
 16 50  1  0  0  0  0
 17 51  1  0  0  0  0
 17 52  1  0  0  0  0
 18 53  1  0  0  0  0
 18 54  1  0  0  0  0
 19 55  1  0  0  0  0
 20 56  1  0  0  0  0
 21 57  1  0  0  0  0
 21 58  1  0  0  0  0
 25 59  1  0  0  0  0
 26 60  1  0  0  0  0
 27 61  1  0  0  0  0
M  END
> <pdb_id>
5LCE

> <uniprot_id>
P00734

> <usmiles>
Clc1cc(c(cc1)CO)CNC(=O)[C@H]2N(C(=O)[C@H](N)CC3CCCCC3)CCC2

$$$$
6TJ_A_504
          07202410153D 1   1.00000     0.00000     0
            
 30 32  0  0  0  0            999 V2000
  -35.9529   -5.1960   65.7346 O   0  0  0  0  0  0  0  0  0  0  0  0
  -36.9702   -6.3627   67.2758 O   0  0  0  0  0  0  0  0  0  0  0  0
  -35.3556   -8.8360   66.0180 O   0  0  0  0  0  0  0  0  0  0  0  0
  -33.2623   -9.6267   66.7943 N   0  0  0  0  0  0  0  0  0  0  0  0
  -32.2005   -8.9850   67.5167 C   0  0  0  0  0  0  0  0  0  0  0  0
  -33.0157  -13.5074   65.2091 C   0  0  0  0  0  0  0  0  0  0  0  0
  -32.0261  -13.0606   66.0645 C   0  0  0  0  0  0  0  0  0  0  0  0
  -34.0773  -12.6846   64.8736 C   0  0  0  0  0  0  0  0  0  0  0  0
  -32.6490   -5.2747   68.6261 C   0  0  0  0  0  0  0  0  0  0  0  0
  -32.1081  -11.7820   66.6005 C   0  0  0  0  0  0  0  0  0  0  0  0
  -34.1596  -11.4133   65.4091 C   0  0  0  0  0  0  0  0  0  0  0  0
  -32.0207   -6.5057   68.5005 C   0  0  0  0  0  0  0  0  0  0  0  0
  -33.9170   -5.0844   68.0715 C   0  0  0  0  0  0  0  0  0  0  0  0
  -35.9151   -5.8866   66.7834 C   0  0  0  0  0  0  0  0  0  0  0  0
  -34.3264   -8.6644   66.5863 C   0  0  0  0  0  0  0  0  0  0  0  0
  -33.1938  -10.9763   66.2887 C   0  0  0  0  0  0  0  0  0  0  0  0
  -32.6471   -7.5472   67.8159 C   0  0  0  0  0  0  0  0  0  0  0  0
  -34.5440   -6.1226   67.3981 C   0  0  0  0  0  0  0  0  0  0  0  0
  -33.9018   -7.3626   67.2669 C   0  0  0  0  0  0  0  0  0  0  0  0
  -35.1083   -4.8222   65.3514 H   0  0  0  0  0  0  0  0  0  0  0  0
  -31.3680   -8.9754   66.9627 H   0  0  0  0  0  0  0  0  0  0  0  0
  -32.0261   -9.4731   68.3720 H   0  0  0  0  0  0  0  0  0  0  0  0
  -32.9645  -14.4313   64.8300 H   0  0  0  0  0  0  0  0  0  0  0  0
  -31.2557  -13.6546   66.2961 H   0  0  0  0  0  0  0  0  0  0  0  0
  -34.7836  -13.0098   64.2447 H   0  0  0  0  0  0  0  0  0  0  0  0
  -32.1959   -4.5269   69.1115 H   0  0  0  0  0  0  0  0  0  0  0  0
  -31.3889  -11.4440   67.2075 H   0  0  0  0  0  0  0  0  0  0  0  0
  -34.9184  -10.8121   65.1587 H   0  0  0  0  0  0  0  0  0  0  0  0
  -31.1158   -6.6466   68.9021 H   0  0  0  0  0  0  0  0  0  0  0  0
  -34.3732   -4.1989   68.1601 H   0  0  0  0  0  0  0  0  0  0  0  0
  1 14  1  0  0  0  0
  2 14  2  0  0  0  0
  3 15  2  0  0  0  0
  4  5  1  0  0  0  0
  4 15  1  0  0  0  0
  4 16  1  0  0  0  0
  5 17  1  0  0  0  0
  6  7  2  0  0  0  0
  6  8  1  0  0  0  0
  7 10  1  0  0  0  0
  8 11  2  0  0  0  0
  9 12  1  0  0  0  0
  9 13  2  0  0  0  0
 10 16  2  0  0  0  0
 11 16  1  0  0  0  0
 12 17  2  0  0  0  0
 13 18  1  0  0  0  0
 14 18  1  0  0  0  0
 15 19  1  0  0  0  0
 17 19  1  0  0  0  0
 18 19  2  0  0  0  0
  1 20  1  0  0  0  0
  5 21  1  0  0  0  0
  5 22  1  0  0  0  0
  6 23  1  0  0  0  0
  7 24  1  0  0  0  0
  8 25  1  0  0  0  0
  9 26  1  0  0  0  0
 10 27  1  0  0  0  0
 11 28  1  0  0  0  0
 12 29  1  0  0  0  0
 13 30  1  0  0  0  0
M  END
> <pdb_id>
5LCF

> <uniprot_id>
Q9K2N0

> <usmiles>
O=C(O)c1c2c(ccc1)CN(c3ccccc3)C2=O

$$$$
6TN_B_301
          07192420423D 1   1.00000     0.00000     0
            
 49 51  0  0  0  0            999 V2000
   66.2294   34.2287   21.6359 O   0  0  0  0  0  0  0  0  0  0  0  0
   64.3342   34.2479   24.1700 O   0  0  0  0  0  0  0  0  0  0  0  0
   67.1011   32.2169   27.7496 O   0  0  0  0  0  0  0  0  0  0  0  0
   71.2559   40.7146   20.6491 O   0  0  0  0  0  0  0  0  0  0  0  0
   69.3241   39.5601   19.7641 N   0  0  0  0  0  0  0  0  0  0  0  0
   70.0390   39.0843   21.9699 N   0  0  0  0  0  0  0  0  0  0  0  0
   67.0242   36.2118   22.5088 N   0  0  0  0  0  0  0  0  0  0  0  0
   70.4979   42.5590   19.2831 C   0  0  0  0  0  0  0  0  0  0  0  0
   70.6976   33.7037   25.8334 C   0  0  0  0  0  0  0  0  0  0  0  0
   69.8650   31.3386   25.5791 C   0  0  0  0  0  0  0  0  0  0  0  0
   71.3235   41.2775   19.3387 C   0  0  0  0  0  0  0  0  0  0  0  0
   68.2993   38.6634   19.8874 C   0  0  0  0  0  0  0  0  0  0  0  0
   67.4750   36.8822   23.6540 C   0  0  0  0  0  0  0  0  0  0  0  0
   66.9536   36.9166   21.2674 C   0  0  0  0  0  0  0  0  0  0  0  0
   68.8785   37.4157   23.5074 C   0  0  0  0  0  0  0  0  0  0  0  0
   65.7105   33.2218   25.9908 C   0  0  0  0  0  0  0  0  0  0  0  0
   68.0445   33.7509   24.4662 C   0  0  0  0  0  0  0  0  0  0  0  0
   70.1878   39.7704   20.7959 C   0  0  0  0  0  0  0  0  0  0  0  0
   66.6517   34.8384   22.5956 C   0  0  0  0  0  0  0  0  0  0  0  0
   65.6038   33.8505   24.7239 C   0  0  0  0  0  0  0  0  0  0  0  0
   66.9837   32.8538   26.4802 C   0  0  0  0  0  0  0  0  0  0  0  0
   69.0189   38.1664   22.1520 C   0  0  0  0  0  0  0  0  0  0  0  0
   69.5816   32.7116   26.2124 C   0  0  0  0  0  0  0  0  0  0  0  0
   68.1152   37.9254   21.1121 C   0  0  0  0  0  0  0  0  0  0  0  0
   66.7654   34.1186   23.9800 C   0  0  0  0  0  0  0  0  0  0  0  0
   68.1627   33.1387   25.7156 C   0  0  0  0  0  0  0  0  0  0  0  0
   64.2960   34.6892   23.2734 H   0  0  0  0  0  0  0  0  0  0  0  0
   68.0019   31.9561   28.0967 H   0  0  0  0  0  0  0  0  0  0  0  0
   70.5488   42.9487   18.3636 H   0  0  0  0  0  0  0  0  0  0  0  0
   69.5452   42.3516   19.5050 H   0  0  0  0  0  0  0  0  0  0  0  0
   70.8586   43.2168   19.9444 H   0  0  0  0  0  0  0  0  0  0  0  0
   70.5074   34.5936   26.2480 H   0  0  0  0  0  0  0  0  0  0  0  0
   71.5757   33.3612   26.1675 H   0  0  0  0  0  0  0  0  0  0  0  0
   70.7341   33.8004   24.8388 H   0  0  0  0  0  0  0  0  0  0  0  0
   69.1374   30.6997   25.8289 H   0  0  0  0  0  0  0  0  0  0  0  0
   69.9001   31.4314   24.5840 H   0  0  0  0  0  0  0  0  0  0  0  0
   70.7418   30.9922   25.9127 H   0  0  0  0  0  0  0  0  0  0  0  0
   70.9623   40.6210   18.6764 H   0  0  0  0  0  0  0  0  0  0  0  0
   72.2757   41.4861   19.1158 H   0  0  0  0  0  0  0  0  0  0  0  0
   67.6724   38.5184   19.1219 H   0  0  0  0  0  0  0  0  0  0  0  0
   67.4544   36.2458   24.4251 H   0  0  0  0  0  0  0  0  0  0  0  0
   66.8598   37.6488   23.8379 H   0  0  0  0  0  0  0  0  0  0  0  0
   66.0864   37.4128   21.2259 H   0  0  0  0  0  0  0  0  0  0  0  0
   66.9961   36.2564   20.5176 H   0  0  0  0  0  0  0  0  0  0  0  0
   69.5272   36.6551   23.5343 H   0  0  0  0  0  0  0  0  0  0  0  0
   69.0737   38.0469   24.2581 H   0  0  0  0  0  0  0  0  0  0  0  0
   64.8906   33.0402   26.5337 H   0  0  0  0  0  0  0  0  0  0  0  0
   68.8603   33.9293   23.9161 H   0  0  0  0  0  0  0  0  0  0  0  0
   69.5605   32.6118   27.2072 H   0  0  0  0  0  0  0  0  0  0  0  0
  1 19  2  0  0  0  0
  2 20  1  0  0  0  0
  3 21  1  0  0  0  0
  4 11  1  0  0  0  0
  4 18  1  0  0  0  0
  5 12  2  0  0  0  0
  5 18  1  0  0  0  0
  6 18  2  0  0  0  0
  6 22  1  0  0  0  0
  7 13  1  0  0  0  0
  7 14  1  0  0  0  0
  7 19  1  0  0  0  0
  8 11  1  0  0  0  0
  9 23  1  0  0  0  0
 10 23  1  0  0  0  0
 12 24  1  0  0  0  0
 13 15  1  0  0  0  0
 14 24  1  0  0  0  0
 15 22  1  0  0  0  0
 16 20  2  0  0  0  0
 16 21  1  0  0  0  0
 17 25  2  0  0  0  0
 17 26  1  0  0  0  0
 19 25  1  0  0  0  0
 20 25  1  0  0  0  0
 21 26  2  0  0  0  0
 22 24  2  0  0  0  0
 23 26  1  0  0  0  0
  2 27  1  0  0  0  0
  3 28  1  0  0  0  0
  8 29  1  0  0  0  0
  8 30  1  0  0  0  0
  8 31  1  0  0  0  0
  9 32  1  0  0  0  0
  9 33  1  0  0  0  0
  9 34  1  0  0  0  0
 10 35  1  0  0  0  0
 10 36  1  0  0  0  0
 10 37  1  0  0  0  0
 11 38  1  0  0  0  0
 11 39  1  0  0  0  0
 12 40  1  0  0  0  0
 13 41  1  0  0  0  0
 13 42  1  0  0  0  0
 14 43  1  0  0  0  0
 14 44  1  0  0  0  0
 15 45  1  0  0  0  0
 15 46  1  0  0  0  0
 16 47  1  0  0  0  0
 17 48  1  0  0  0  0
 23 49  1  0  0  0  0
M  END
> <pdb_id>
5GGZ

> <uniprot_id>
P07900

> <usmiles>
O=C(N1Cc2c(nc(OCC)nc2)CC1)c3c(O)cc(O)c(c3)C(C)C

$$$$
6U6_A_201
          07202408113D 1   1.00000     0.00000     0
            
 23 24  0  0  0  0            999 V2000
    9.5167  -14.6309  -25.8689 Cl  0  0  0  0  0  0  0  0  0  0  0  0
    5.6211  -19.2672  -26.7120 S   0  0  0  0  0  0  0  0  0  0  0  0
    5.8328  -21.9938  -28.0281 O   0  0  0  0  0  0  0  0  0  0  0  0
    7.9316  -22.1707  -28.4100 O   0  0  0  0  0  0  0  0  0  0  0  0
    7.7191  -19.3748  -25.2889 N   0  0  0  0  0  0  0  0  0  0  0  0
    7.3674  -15.7186  -26.9334 C   0  0  0  0  0  0  0  0  0  0  0  0
    6.4457  -16.6620  -27.1794 C   0  0  0  0  0  0  0  0  0  0  0  0
    8.6159  -17.2231  -25.5262 C   0  0  0  0  0  0  0  0  0  0  0  0
    6.5560  -21.5947  -25.2572 C   0  0  0  0  0  0  0  0  0  0  0  0
    7.3727  -22.3948  -26.2068 C   0  0  0  0  0  0  0  0  0  0  0  0
    6.7349  -20.1311  -25.6870 C   0  0  0  0  0  0  0  0  0  0  0  0
    8.4063  -15.9790  -26.1285 C   0  0  0  0  0  0  0  0  0  0  0  0
    6.9949  -22.1386  -27.6587 C   0  0  0  0  0  0  0  0  0  0  0  0
    6.6166  -17.8714  -26.5785 C   0  0  0  0  0  0  0  0  0  0  0  0
    7.6795  -18.1492  -25.7260 C   0  0  0  0  0  0  0  0  0  0  0  0
    7.2665  -14.8688  -27.2973 H   0  0  0  0  0  0  0  0  0  0  0  0
    5.7141  -16.4931  -27.7273 H   0  0  0  0  0  0  0  0  0  0  0  0
    9.3069  -17.4010  -24.9433 H   0  0  0  0  0  0  0  0  0  0  0  0
    5.6222  -21.8506  -25.3202 H   0  0  0  0  0  0  0  0  0  0  0  0
    6.8786  -21.7197  -24.3510 H   0  0  0  0  0  0  0  0  0  0  0  0
    8.3084  -22.1700  -26.0824 H   0  0  0  0  0  0  0  0  0  0  0  0
    7.2471  -23.3369  -26.0122 H   0  0  0  0  0  0  0  0  0  0  0  0
    5.0930  -21.9749  -27.3555 H   0  0  0  0  0  0  0  0  0  0  0  0
  1 12  1  0  0  0  0
  2 11  1  0  0  0  0
  2 14  1  0  0  0  0
  3 13  1  0  0  0  0
  4 13  2  0  0  0  0
  5 11  2  0  0  0  0
  5 15  1  0  0  0  0
  6  7  1  0  0  0  0
  6 12  2  0  0  0  0
  6 16  1  0  0  0  0
  7 14  2  0  0  0  0
  7 17  1  0  0  0  0
  8 12  1  0  0  0  0
  8 15  2  0  0  0  0
  8 18  1  0  0  0  0
  9 10  1  0  0  0  0
  9 11  1  0  0  0  0
  9 19  1  0  0  0  0
  9 20  1  0  0  0  0
 10 13  1  0  0  0  0
 10 21  1  0  0  0  0
 10 22  1  0  0  0  0
 14 15  1  0  0  0  0
  3 23  1  0  0  0  0
M  END
> <pdb_id>
5RTI

> <uniprot_id>
P0DTD1

> <usmiles>
Clc1cc2N=C(Sc2cc1)CCC(=O)O

$$$$
6UP_A_301
          07202413303D 1   1.00000     0.00000     0
            
 25 26  0  0  0  0            999 V2000
  -32.0859  -20.4482   -2.0278 N   0  0  0  0  0  0  0  0  0  0  0  0
  -32.0477  -20.8098   -4.3281 N   0  0  0  0  0  0  0  0  0  0  0  0
  -28.3978  -17.8145   -0.1999 N   0  0  0  0  0  0  0  0  0  0  0  0
  -27.0449  -15.6878   -2.8233 C   0  0  0  0  0  0  0  0  0  0  0  0
  -27.2203  -16.2649   -1.5603 C   0  0  0  0  0  0  0  0  0  0  0  0
  -27.8410  -16.0733   -3.9053 C   0  0  0  0  0  0  0  0  0  0  0  0
  -30.5640  -18.4504   -4.6819 C   0  0  0  0  0  0  0  0  0  0  0  0
  -29.5822  -17.4650   -4.8485 C   0  0  0  0  0  0  0  0  0  0  0  0
  -29.9816  -18.6579   -2.3421 C   0  0  0  0  0  0  0  0  0  0  0  0
  -31.7061  -20.0923   -3.2617 C   0  0  0  0  0  0  0  0  0  0  0  0
  -28.1909  -17.2591   -1.3978 C   0  0  0  0  0  0  0  0  0  0  0  0
  -30.7767  -19.0483   -3.4247 C   0  0  0  0  0  0  0  0  0  0  0  0
  -28.8092  -17.0701   -3.7490 C   0  0  0  0  0  0  0  0  0  0  0  0
  -28.9906  -17.6747   -2.4840 C   0  0  0  0  0  0  0  0  0  0  0  0
  -31.8162  -19.8920   -1.2417 H   0  0  0  0  0  0  0  0  0  0  0  0
  -32.6391  -21.2701   -1.8925 H   0  0  0  0  0  0  0  0  0  0  0  0
  -31.7517  -20.5232   -5.2393 H   0  0  0  0  0  0  0  0  0  0  0  0
  -29.0934  -18.5247   -0.0915 H   0  0  0  0  0  0  0  0  0  0  0  0
  -27.8569  -17.5200    0.5879 H   0  0  0  0  0  0  0  0  0  0  0  0
  -26.3404  -14.9901   -2.9532 H   0  0  0  0  0  0  0  0  0  0  0  0
  -26.6602  -15.9711   -0.7857 H   0  0  0  0  0  0  0  0  0  0  0  0
  -27.7177  -15.6343   -4.7953 H   0  0  0  0  0  0  0  0  0  0  0  0
  -31.1197  -18.7323   -5.4640 H   0  0  0  0  0  0  0  0  0  0  0  0
  -29.4345  -17.0469   -5.7448 H   0  0  0  0  0  0  0  0  0  0  0  0
  -30.1221  -19.0877   -1.4501 H   0  0  0  0  0  0  0  0  0  0  0  0
  1 10  1  0  0  0  0
  2 10  2  0  0  0  0
  3 11  1  0  0  0  0
  4  5  1  0  0  0  0
  4  6  2  0  0  0  0
  5 11  2  0  0  0  0
  6 13  1  0  0  0  0
  7  8  1  0  0  0  0
  7 12  2  0  0  0  0
  8 13  2  0  0  0  0
  9 12  1  0  0  0  0
  9 14  2  0  0  0  0
 10 12  1  0  0  0  0
 11 14  1  0  0  0  0
 13 14  1  0  0  0  0
  1 15  1  0  0  0  0
  1 16  1  0  0  0  0
  2 17  1  0  0  0  0
  3 18  1  0  0  0  0
  3 19  1  0  0  0  0
  4 20  1  0  0  0  0
  5 21  1  0  0  0  0
  6 22  1  0  0  0  0
  7 23  1  0  0  0  0
  8 24  1  0  0  0  0
  9 25  1  0  0  0  0
M  END
> <pdb_id>
4FUD

> <uniprot_id>
P00749

> <usmiles>
N=C(N)c1cc2c(N)cccc2cc1

$$$$
6UW_A_503
          07202410153D 1   1.00000     0.00000     0
            
 33 35  0  0  0  0            999 V2000
  -31.3591  -13.4599   66.8683 Cl  0  0  0  0  0  0  0  0  0  0  0  0
  -34.0058  -11.6731   62.9753 F   0  0  0  0  0  0  0  0  0  0  0  0
  -36.6114   -7.0123   66.6437 O   0  0  0  0  0  0  0  0  0  0  0  0
  -35.5196   -5.5191   65.4599 O   0  0  0  0  0  0  0  0  0  0  0  0
  -35.3483   -9.5446   65.5568 O   0  0  0  0  0  0  0  0  0  0  0  0
  -33.4730  -10.5714   66.2355 N   0  0  0  0  0  0  0  0  0  0  0  0
  -32.3113  -10.1766   67.0341 C   0  0  0  0  0  0  0  0  0  0  0  0
  -33.7421  -11.9051   65.7600 C   0  0  0  0  0  0  0  0  0  0  0  0
  -30.9855  -13.6865   62.9256 C   0  0  0  0  0  0  0  0  0  0  0  0
  -32.2339   -6.3982   68.1698 C   0  0  0  0  0  0  0  0  0  0  0  0
  -30.7625  -13.8278   64.2749 C   0  0  0  0  0  0  0  0  0  0  0  0
  -32.0792  -12.9637   62.4908 C   0  0  0  0  0  0  0  0  0  0  0  0
  -31.7880   -7.6937   68.0357 C   0  0  0  0  0  0  0  0  0  0  0  0
  -33.4583   -6.0128   67.5776 C   0  0  0  0  0  0  0  0  0  0  0  0
  -31.6503  -13.2475   65.1716 C   0  0  0  0  0  0  0  0  0  0  0  0
  -35.5380   -6.4794   66.2951 C   0  0  0  0  0  0  0  0  0  0  0  0
  -32.9473  -12.3899   63.4066 C   0  0  0  0  0  0  0  0  0  0  0  0
  -34.2778   -9.4775   66.1409 C   0  0  0  0  0  0  0  0  0  0  0  0
  -32.5517   -8.6131   67.3529 C   0  0  0  0  0  0  0  0  0  0  0  0
  -32.7416  -12.5114   64.7643 C   0  0  0  0  0  0  0  0  0  0  0  0
  -34.2316   -6.9421   66.9040 C   0  0  0  0  0  0  0  0  0  0  0  0
  -33.7924   -8.2519   66.7729 C   0  0  0  0  0  0  0  0  0  0  0  0
  -36.6051   -7.7657   67.3013 H   0  0  0  0  0  0  0  0  0  0  0  0
  -31.4659  -10.3055   66.5158 H   0  0  0  0  0  0  0  0  0  0  0  0
  -32.2675  -10.7071   67.8806 H   0  0  0  0  0  0  0  0  0  0  0  0
  -34.6377  -11.8908   65.3153 H   0  0  0  0  0  0  0  0  0  0  0  0
  -33.7754  -12.5077   66.5574 H   0  0  0  0  0  0  0  0  0  0  0  0
  -30.3613  -14.1034   62.2648 H   0  0  0  0  0  0  0  0  0  0  0  0
  -31.6937   -5.7322   68.6843 H   0  0  0  0  0  0  0  0  0  0  0  0
  -29.9714  -14.3417   64.6064 H   0  0  0  0  0  0  0  0  0  0  0  0
  -32.2456  -12.8538   61.5109 H   0  0  0  0  0  0  0  0  0  0  0  0
  -30.9117   -7.9661   68.4333 H   0  0  0  0  0  0  0  0  0  0  0  0
  -33.7672   -5.0642   67.6457 H   0  0  0  0  0  0  0  0  0  0  0  0
  1 15  1  0  0  0  0
  2 17  1  0  0  0  0
  3 16  1  0  0  0  0
  4 16  2  0  0  0  0
  5 18  2  0  0  0  0
  6  7  1  0  0  0  0
  6  8  1  0  0  0  0
  6 18  1  0  0  0  0
  7 19  1  0  0  0  0
  8 20  1  0  0  0  0
  9 11  2  0  0  0  0
  9 12  1  0  0  0  0
 10 13  1  0  0  0  0
 10 14  2  0  0  0  0
 11 15  1  0  0  0  0
 12 17  2  0  0  0  0
 13 19  2  0  0  0  0
 14 21  1  0  0  0  0
 15 20  2  0  0  0  0
 16 21  1  0  0  0  0
 17 20  1  0  0  0  0
 18 22  1  0  0  0  0
 19 22  1  0  0  0  0
 21 22  2  0  0  0  0
  3 23  1  0  0  0  0
  7 24  1  0  0  0  0
  7 25  1  0  0  0  0
  8 26  1  0  0  0  0
  8 27  1  0  0  0  0
  9 28  1  0  0  0  0
 10 29  1  0  0  0  0
 11 30  1  0  0  0  0
 12 31  1  0  0  0  0
 13 32  1  0  0  0  0
 14 33  1  0  0  0  0
M  END
> <pdb_id>
5LE1

> <uniprot_id>
Q9K2N0

> <usmiles>
Clc1c(c(F)ccc1)CN2C(=O)c3c(cccc3C2)C(=O)O

$$$$
6VK_A_500
          07202403123D 1   1.00000     0.00000     0
            
 51 55  0  0  0  0            999 V2000
   40.6006    5.4740   31.2806 O   0  0  0  0  0  0  0  0  0  0  0  0
   41.2253    7.8491   37.1588 N   0  0  0  0  0  0  0  0  0  0  0  0
   40.4960    9.0298   36.8548 N   0  0  0  0  0  0  0  0  0  0  0  0
   41.8401    5.8582   35.8943 N   0  0  0  0  0  0  0  0  0  0  0  0
   40.2954    2.5705   33.9249 C   0  0  0  0  0  0  0  0  0  0  0  0
   42.6022    1.6687   33.5960 C   0  0  0  0  0  0  0  0  0  0  0  0
   41.0671    8.1271   32.6775 C   0  0  0  0  0  0  0  0  0  0  0  0
   36.0834    6.8292   32.9234 C   0  0  0  0  0  0  0  0  0  0  0  0
   36.8214    7.6570   32.1119 C   0  0  0  0  0  0  0  0  0  0  0  0
   36.7356    6.0985   33.9372 C   0  0  0  0  0  0  0  0  0  0  0  0
   38.2074    7.7674   32.2556 C   0  0  0  0  0  0  0  0  0  0  0  0
   38.1096    6.1976   34.1044 C   0  0  0  0  0  0  0  0  0  0  0  0
   39.6368   11.4332   34.6066 C   0  0  0  0  0  0  0  0  0  0  0  0
   38.7152   11.1080   35.7897 C   0  0  0  0  0  0  0  0  0  0  0  0
   41.7680    3.6495   32.2531 C   0  0  0  0  0  0  0  0  0  0  0  0
   42.3279    3.8999   34.6259 C   0  0  0  0  0  0  0  0  0  0  0  0
   41.2211    7.1283   36.0345 C   0  0  0  0  0  0  0  0  0  0  0  0
   41.0647    5.0003   32.3083 C   0  0  0  0  0  0  0  0  0  0  0  0
   41.6713    5.2602   34.6668 C   0  0  0  0  0  0  0  0  0  0  0  0
   40.0554    8.9746   35.4848 C   0  0  0  0  0  0  0  0  0  0  0  0
   39.2082   10.0164   34.8655 C   0  0  0  0  0  0  0  0  0  0  0  0
   38.8675    7.0239   33.2662 C   0  0  0  0  0  0  0  0  0  0  0  0
   40.5019    7.6952   34.9139 C   0  0  0  0  0  0  0  0  0  0  0  0
   41.0348    5.7711   33.5752 C   0  0  0  0  0  0  0  0  0  0  0  0
   41.7294    2.9295   33.5999 C   0  0  0  0  0  0  0  0  0  0  0  0
   40.3485    7.1202   33.5635 C   0  0  2  0  0  0  0  0  0  0  0  0
   41.6517    7.6084   38.0307 H   0  0  0  0  0  0  0  0  0  0  0  0
   42.3604    5.4299   36.6331 H   0  0  0  0  0  0  0  0  0  0  0  0
   39.7360    3.3994   33.9247 H   0  0  0  0  0  0  0  0  0  0  0  0
   39.9473    1.9333   33.2373 H   0  0  0  0  0  0  0  0  0  0  0  0
   40.2554    2.1417   34.8274 H   0  0  0  0  0  0  0  0  0  0  0  0
   43.5464    1.9176   33.3804 H   0  0  0  0  0  0  0  0  0  0  0  0
   42.5688    1.2373   34.4976 H   0  0  0  0  0  0  0  0  0  0  0  0
   42.2606    1.0289   32.9075 H   0  0  0  0  0  0  0  0  0  0  0  0
   42.0378    8.1487   32.9169 H   0  0  0  0  0  0  0  0  0  0  0  0
   40.9660    7.8598   31.7192 H   0  0  0  0  0  0  0  0  0  0  0  0
   40.6699    9.0346   32.8141 H   0  0  0  0  0  0  0  0  0  0  0  0
   35.0950    6.7461   32.7962 H   0  0  0  0  0  0  0  0  0  0  0  0
   36.3578    8.1909   31.4048 H   0  0  0  0  0  0  0  0  0  0  0  0
   36.2041    5.5041   34.5406 H   0  0  0  0  0  0  0  0  0  0  0  0
   38.7300    8.3669   31.6494 H   0  0  0  0  0  0  0  0  0  0  0  0
   38.5612    5.6756   34.8280 H   0  0  0  0  0  0  0  0  0  0  0  0
   40.5843   11.7075   34.7707 H   0  0  0  0  0  0  0  0  0  0  0  0
   39.2791   11.9277   33.8144 H   0  0  0  0  0  0  0  0  0  0  0  0
   37.7551   11.3872   35.7700 H   0  0  0  0  0  0  0  0  0  0  0  0
   39.0604   11.1671   36.7263 H   0  0  0  0  0  0  0  0  0  0  0  0
   42.7222    3.7927   31.9906 H   0  0  0  0  0  0  0  0  0  0  0  0
   41.3161    3.0779   31.5682 H   0  0  0  0  0  0  0  0  0  0  0  0
   42.2434    3.4860   35.5322 H   0  0  0  0  0  0  0  0  0  0  0  0
   43.2952    4.0275   34.4065 H   0  0  0  0  0  0  0  0  0  0  0  0
   38.5195    9.6680   34.2296 H   0  0  0  0  0  0  0  0  0  0  0  0
  1 18  2  0  0  0  0
  2  3  1  0  0  0  0
  2 17  1  0  0  0  0
  3 20  2  0  0  0  0
  4 17  1  0  0  0  0
  4 19  1  0  0  0  0
  5 25  1  0  0  0  0
  6 25  1  0  0  0  0
  7 26  1  0  0  0  0
  8  9  2  0  0  0  0
  8 10  1  0  0  0  0
  9 11  1  0  0  0  0
 10 12  2  0  0  0  0
 11 22  2  0  0  0  0
 12 22  1  0  0  0  0
 13 14  1  0  0  0  0
 13 21  1  0  0  0  0
 14 21  1  0  0  0  0
 15 18  1  0  0  0  0
 15 25  1  0  0  0  0
 16 19  1  0  0  0  0
 16 25  1  0  0  0  0
 17 23  2  0  0  0  0
 18 24  1  0  0  0  0
 19 24  2  0  0  0  0
 20 21  1  0  0  0  0
 20 23  1  0  0  0  0
 22 26  1  0  0  0  0
 23 26  1  0  0  0  0
 24 26  1  0  0  0  0
  2 27  1  0  0  0  0
  4 28  1  0  0  0  0
  5 29  1  0  0  0  0
  5 30  1  0  0  0  0
  5 31  1  0  0  0  0
  6 32  1  0  0  0  0
  6 33  1  0  0  0  0
  6 34  1  0  0  0  0
  7 35  1  0  0  0  0
  7 36  1  0  0  0  0
  7 37  1  0  0  0  0
  8 38  1  0  0  0  0
  9 39  1  0  0  0  0
 10 40  1  0  0  0  0
 11 41  1  0  0  0  0
 12 42  1  0  0  0  0
 13 43  1  0  0  0  0
 13 44  1  0  0  0  0
 14 45  1  0  0  0  0
 14 46  1  0  0  0  0
 15 47  1  0  0  0  0
 15 48  1  0  0  0  0
 16 49  1  0  0  0  0
 16 50  1  0  0  0  0
 21 51  1  0  0  0  0
M  END
> <pdb_id>
5KPK

> <uniprot_id>
P49841

> <usmiles>
O=C1C2=C(NC=3NN=C(C3[C@@]2(c4ccccc4)C)C5CC5)CC(C1)(C)C

$$$$
6VZ_A_303
          07192419343D 1   1.00000     0.00000     0
            
 73 77  0  0  0  0            999 V2000
   47.5490   24.7850   47.5140 O   0  0  0  0  0  0  0  0  0  0  0  0
   46.8160   21.2220   47.0930 O   0  0  0  0  0  0  0  0  0  0  0  0
   46.8590   20.7790   53.0250 O   0  0  0  0  0  0  0  0  0  0  0  0
   39.7470   26.7280   52.6680 O   0  0  0  0  0  0  0  0  0  0  0  0
   47.7410   18.0820   53.5050 N   0  0  0  0  0  0  0  0  0  0  0  0
   47.1850   24.1880   45.3410 N   0  0  0  0  0  0  0  0  0  0  0  0
   39.0900   27.8420   50.7190 N   0  0  0  0  0  0  0  0  0  0  0  0
   40.0580   27.2260   48.6720 N   0  0  0  0  0  0  0  0  0  0  0  0
   42.8580   24.8380   49.2970 N   0  0  0  0  0  0  0  0  0  0  0  0
   45.6430   22.7450   48.2140 N   0  0  0  0  0  0  0  0  0  0  0  0
   47.1620   22.1510   53.3070 C   0  0  0  0  0  0  0  0  0  0  0  0
   48.3700   24.8640   44.8020 C   0  0  0  0  0  0  0  0  0  0  0  0
   39.1980   27.9660   49.3740 C   0  0  0  0  0  0  0  0  0  0  0  0
   38.7780   27.4700   53.4270 C   0  0  0  0  0  0  0  0  0  0  0  0
   46.4680   18.0110   52.7580 C   0  0  0  0  0  0  0  0  0  0  0  0
   42.1820   24.1060   50.3930 C   0  0  0  0  0  0  0  0  0  0  0  0
   41.8180   25.5220   48.4710 C   0  0  0  0  0  0  0  0  0  0  0  0
   44.7410   23.1590   49.2770 C   0  0  0  0  0  0  0  0  0  0  0  0
   38.6010   26.7980   54.7960 C   0  0  0  0  0  0  0  0  0  0  0  0
   41.5850   25.0670   51.4220 C   0  0  0  0  0  0  0  0  0  0  0  0
   38.0060   24.4700   55.7630 C   0  0  0  0  0  0  0  0  0  0  0  0
   38.6990   24.2160   54.4050 C   0  0  0  0  0  0  0  0  0  0  0  0
   46.1900   18.4750   50.2950 C   0  0  0  0  0  0  0  0  0  0  0  0
   46.1640   19.3140   49.1940 C   0  0  0  0  0  0  0  0  0  0  0  0
   46.6250   21.2050   50.6300 C   0  0  0  0  0  0  0  0  0  0  0  0
   44.4900   24.6270   47.3950 C   0  0  0  0  0  0  0  0  0  0  0  0
   46.8580   24.2380   46.6430 C   0  0  0  0  0  0  0  0  0  0  0  0
   39.8620   26.9430   51.3500 C   0  0  0  0  0  0  0  0  0  0  0  0
   46.3000   21.5610   48.1410 C   0  0  0  0  0  0  0  0  0  0  0  0
   46.6730   20.3330   51.7290 C   0  0  0  0  0  0  0  0  0  0  0  0
   40.8490   26.3230   49.2990 C   0  0  0  0  0  0  0  0  0  0  0  0
   43.6500   23.9100   48.4570 C   0  0  2  0  0  0  0  0  0  0  0  0
   45.5550   23.5710   47.0200 C   0  0  1  0  0  0  0  0  0  0  0  0
   37.8530   25.4690   54.6030 C   0  0  0  0  0  0  0  0  0  0  0  0
   46.4370   18.9740   51.5680 C   0  0  0  0  0  0  0  0  0  0  0  0
   46.3570   20.6710   49.3580 C   0  0  0  0  0  0  0  0  0  0  0  0
   40.7680   26.1390   50.6850 C   0  0  0  0  0  0  0  0  0  0  0  0
   47.7150   17.4383   54.2698 H   0  0  0  0  0  0  0  0  0  0  0  0
   48.4984   17.8459   52.8962 H   0  0  0  0  0  0  0  0  0  0  0  0
   46.5993   23.6712   44.7166 H   0  0  0  0  0  0  0  0  0  0  0  0
   47.2592   22.2747   54.2945 H   0  0  0  0  0  0  0  0  0  0  0  0
   48.0168   22.4036   52.8537 H   0  0  0  0  0  0  0  0  0  0  0  0
   46.4214   22.7321   52.9696 H   0  0  0  0  0  0  0  0  0  0  0  0
   48.4280   24.7005   43.8172 H   0  0  0  0  0  0  0  0  0  0  0  0
   48.2999   25.8467   44.9732 H   0  0  0  0  0  0  0  0  0  0  0  0
   49.1900   24.5056   45.2482 H   0  0  0  0  0  0  0  0  0  0  0  0
   38.6197   28.6275   48.8965 H   0  0  0  0  0  0  0  0  0  0  0  0
   37.9042   27.4771   52.9407 H   0  0  0  0  0  0  0  0  0  0  0  0
   39.0973   28.4093   53.5526 H   0  0  0  0  0  0  0  0  0  0  0  0
   45.7182   18.2420   53.3780 H   0  0  0  0  0  0  0  0  0  0  0  0
   46.3454   17.0780   52.4197 H   0  0  0  0  0  0  0  0  0  0  0  0
   42.8477   23.5147   50.8482 H   0  0  0  0  0  0  0  0  0  0  0  0
   41.4486   23.5467   50.0066 H   0  0  0  0  0  0  0  0  0  0  0  0
   41.3070   24.8289   47.9627 H   0  0  0  0  0  0  0  0  0  0  0  0
   42.2743   26.1377   47.8285 H   0  0  0  0  0  0  0  0  0  0  0  0
   45.1947   23.7664   49.9290 H   0  0  0  0  0  0  0  0  0  0  0  0
   44.3599   22.3728   49.7634 H   0  0  0  0  0  0  0  0  0  0  0  0
   38.0728   27.3965   55.3983 H   0  0  0  0  0  0  0  0  0  0  0  0
   39.4976   26.6230   55.2028 H   0  0  0  0  0  0  0  0  0  0  0  0
   42.3205   25.5029   51.9407 H   0  0  0  0  0  0  0  0  0  0  0  0
   40.9899   24.5622   52.0473 H   0  0  0  0  0  0  0  0  0  0  0  0
   38.5498   24.7131   56.5662 H   0  0  0  0  0  0  0  0  0  0  0  0
   37.2304   23.9048   56.0441 H   0  0  0  0  0  0  0  0  0  0  0  0
   38.3740   23.4829   53.8076 H   0  0  0  0  0  0  0  0  0  0  0  0
   39.6933   24.2912   54.3297 H   0  0  0  0  0  0  0  0  0  0  0  0
   46.0287   17.4958   50.1723 H   0  0  0  0  0  0  0  0  0  0  0  0
   46.0056   18.9375   48.2812 H   0  0  0  0  0  0  0  0  0  0  0  0
   46.7783   22.1859   50.7497 H   0  0  0  0  0  0  0  0  0  0  0  0
   44.9167   25.4500   47.7700 H   0  0  0  0  0  0  0  0  0  0  0  0
   43.9327   24.8724   46.6018 H   0  0  0  0  0  0  0  0  0  0  0  0
   43.0420   23.2487   48.0177 H   0  0  0  0  0  0  0  0  0  0  0  0
   45.2259   23.0195   46.2535 H   0  0  0  0  0  0  0  0  0  0  0  0
   36.9673   25.5033   54.1400 H   0  0  0  0  0  0  0  0  0  0  0  0
  1 27  2  0  0  0  0
  2 29  2  0  0  0  0
  3 11  1  0  0  0  0
  3 30  1  0  0  0  0
  4 14  1  0  0  0  0
  4 28  1  0  0  0  0
  5 15  1  0  0  0  0
  6 12  1  0  0  0  0
  6 27  1  0  0  0  0
  7 13  2  0  0  0  0
  7 28  1  0  0  0  0
  8 13  1  0  0  0  0
  8 31  2  0  0  0  0
  9 16  1  0  0  0  0
  9 17  1  0  0  0  0
  9 32  1  0  0  0  0
 10 18  1  0  0  0  0
 10 29  1  0  0  0  0
 10 33  1  0  0  0  0
 14 19  1  0  0  0  0
 15 35  1  0  0  0  0
 16 20  1  0  0  0  0
 17 31  1  0  0  0  0
 18 32  1  0  0  0  0
 19 34  1  0  0  0  0
 20 37  1  0  0  0  0
 21 22  1  0  0  0  0
 21 34  1  0  0  0  0
 22 34  1  0  0  0  0
 23 24  2  0  0  0  0
 23 35  1  0  0  0  0
 24 36  1  0  0  0  0
 25 30  1  0  0  0  0
 25 36  2  0  0  0  0
 26 32  1  0  0  0  0
 26 33  1  0  0  0  0
 27 33  1  0  0  0  0
 28 37  2  0  0  0  0
 29 36  1  0  0  0  0
 30 35  2  0  0  0  0
 31 37  1  0  0  0  0
  5 38  1  0  0  0  0
  5 39  1  0  0  0  0
  6 40  1  0  0  0  0
 11 41  1  0  0  0  0
 11 42  1  0  0  0  0
 11 43  1  0  0  0  0
 12 44  1  0  0  0  0
 12 45  1  0  0  0  0
 12 46  1  0  0  0  0
 13 47  1  0  0  0  0
 14 48  1  0  0  0  0
 14 49  1  0  0  0  0
 15 50  1  0  0  0  0
 15 51  1  0  0  0  0
 16 52  1  0  0  0  0
 16 53  1  0  0  0  0
 17 54  1  0  0  0  0
 17 55  1  0  0  0  0
 18 56  1  0  0  0  0
 18 57  1  0  0  0  0
 19 58  1  0  0  0  0
 19 59  1  0  0  0  0
 20 60  1  0  0  0  0
 20 61  1  0  0  0  0
 21 62  1  0  0  0  0
 21 63  1  0  0  0  0
 22 64  1  0  0  0  0
 22 65  1  0  0  0  0
 23 66  1  0  0  0  0
 24 67  1  0  0  0  0
 25 68  1  0  0  0  0
 26 69  1  0  0  0  0
 26 70  1  0  0  0  0
 32 71  1  0  0  0  0
 33 72  1  0  0  0  0
 34 73  1  0  0  0  0
M  END
> <pdb_id>
5LGO

> <uniprot_id>
P00760

> <usmiles>
O=C(N1[C@H](C(=O)NC)C[C@H](N2Cc3ncnc(OCCC4CC4)c3CC2)C1)c5cc(OC)c(cc5)CN

$$$$
6WD_A_501
          07202405583D 1   1.00000     0.00000     0
            
 36 38  0  0  0  0            999 V2000
   66.6065   46.8661    8.2791 S   0  0  0  0  0  0  0  0  0  0  0  0
   73.2526   48.8483    7.2121 F   0  0  0  0  0  0  0  0  0  0  0  0
   70.1602   50.0402   10.6003 F   0  0  0  0  0  0  0  0  0  0  0  0
   65.6736   48.2397    6.2276 N   0  0  0  0  0  0  0  0  0  0  0  0
   65.1448   45.9006   12.3222 N   0  0  0  0  0  0  0  0  0  0  0  0
   67.3171   45.2084   12.8957 N   0  0  0  0  0  0  0  0  0  0  0  0
   66.9297   49.4416    7.7164 N   0  0  0  0  0  0  0  0  0  0  0  0
   67.7155   51.0711    9.2991 C   0  0  0  0  0  0  0  0  0  0  0  0
   65.9893   45.2348   13.1378 C   0  0  0  0  0  0  0  0  0  0  0  0
   65.6292   46.5532   11.2345 C   0  0  0  0  0  0  0  0  0  0  0  0
   67.8424   45.8448   11.8234 C   0  0  0  0  0  0  0  0  0  0  0  0
   70.9448   48.8098    6.7518 C   0  0  0  0  0  0  0  0  0  0  0  0
   69.6354   48.9939    7.1541 C   0  0  0  0  0  0  0  0  0  0  0  0
   71.7307   49.4536    8.9424 C   0  0  0  0  0  0  0  0  0  0  0  0
   67.4978   48.7560   10.0459 C   0  0  0  0  0  0  0  0  0  0  0  0
   66.3564   48.3470    7.3758 C   0  0  0  0  0  0  0  0  0  0  0  0
   67.5698   47.2581    9.7568 C   0  0  1  0  0  0  0  0  0  0  0  0
   71.9960   49.0361    7.6379 C   0  0  0  0  0  0  0  0  0  0  0  0
   70.4063   49.6417    9.3437 C   0  0  0  0  0  0  0  0  0  0  0  0
   67.0022   46.5367   10.9608 C   0  0  0  0  0  0  0  0  0  0  0  0
   69.3352   49.4075    8.4434 C   0  0  0  0  0  0  0  0  0  0  0  0
   67.8759   49.6251    8.8407 C   0  0  1  0  0  0  0  0  0  0  0  0
   65.5010   49.0521    5.6707 H   0  0  0  0  0  0  0  0  0  0  0  0
   65.3368   47.3471    5.9277 H   0  0  0  0  0  0  0  0  0  0  0  0
   68.3364   51.2497   10.0624 H   0  0  0  0  0  0  0  0  0  0  0  0
   67.9327   51.6869    8.5417 H   0  0  0  0  0  0  0  0  0  0  0  0
   66.7723   51.2248    9.5937 H   0  0  0  0  0  0  0  0  0  0  0  0
   65.6253   44.7528   13.9348 H   0  0  0  0  0  0  0  0  0  0  0  0
   65.0048   47.0459   10.6284 H   0  0  0  0  0  0  0  0  0  0  0  0
   68.8274   45.8171   11.6533 H   0  0  0  0  0  0  0  0  0  0  0  0
   71.1393   48.5118    5.8172 H   0  0  0  0  0  0  0  0  0  0  0  0
   68.8930   48.8262    6.5056 H   0  0  0  0  0  0  0  0  0  0  0  0
   72.4808   49.6164    9.5833 H   0  0  0  0  0  0  0  0  0  0  0  0
   68.1244   48.9648   10.7968 H   0  0  0  0  0  0  0  0  0  0  0  0
   66.5629   48.9820   10.3193 H   0  0  0  0  0  0  0  0  0  0  0  0
   68.5225   46.9868    9.6197 H   0  0  0  0  0  0  0  0  0  0  0  0
  1 16  1  0  0  0  0
  1 17  1  0  0  0  0
  2 18  1  0  0  0  0
  3 19  1  0  0  0  0
  4 16  1  0  0  0  0
  5  9  2  0  0  0  0
  5 10  1  0  0  0  0
  6  9  1  0  0  0  0
  6 11  2  0  0  0  0
  7 16  2  0  0  0  0
  7 22  1  0  0  0  0
  8 22  1  0  0  0  0
 10 20  2  0  0  0  0
 11 20  1  0  0  0  0
 12 13  2  0  0  0  0
 12 18  1  0  0  0  0
 13 21  1  0  0  0  0
 14 18  2  0  0  0  0
 14 19  1  0  0  0  0
 15 17  1  0  0  0  0
 15 22  1  0  0  0  0
 17 20  1  0  0  0  0
 19 21  2  0  0  0  0
 21 22  1  0  0  0  0
  4 23  1  0  0  0  0
  4 24  1  0  0  0  0
  8 25  1  0  0  0  0
  8 26  1  0  0  0  0
  8 27  1  0  0  0  0
  9 28  1  0  0  0  0
 10 29  1  0  0  0  0
 11 30  1  0  0  0  0
 12 31  1  0  0  0  0
 13 32  1  0  0  0  0
 14 33  1  0  0  0  0
 15 34  1  0  0  0  0
 15 35  1  0  0  0  0
 17 36  1  0  0  0  0
M  END
> <pdb_id>
5KQF

> <uniprot_id>
P56817

> <usmiles>
S1C(=N[C@](c2c(F)cc(F)cc2)(C[C@H]1c3cncnc3)C)N

$$$$
6WE_A_502
          07202405583D 1   1.00000     0.00000     0
            
 40 42  0  0  0  0            999 V2000
   66.6532   46.8355    8.4242 S   0  0  0  0  0  0  0  0  0  0  0  0
   73.3106   48.8069    7.1926 F   0  0  0  0  0  0  0  0  0  0  0  0
   70.2826   50.0134   10.6096 F   0  0  0  0  0  0  0  0  0  0  0  0
   67.6424   45.0491   12.6864 O   0  0  0  0  0  0  0  0  0  0  0  0
   65.7059   48.2253    6.3481 N   0  0  0  0  0  0  0  0  0  0  0  0
   66.3194   45.5274   12.7471 N   0  0  0  0  0  0  0  0  0  0  0  0
   67.0206   49.4075    7.7567 N   0  0  0  0  0  0  0  0  0  0  0  0
   69.6867   45.3373   11.2881 C   0  0  0  0  0  0  0  0  0  0  0  0
   64.8566   47.1325   11.4400 C   0  0  0  0  0  0  0  0  0  0  0  0
   67.7440   51.1065    9.2743 C   0  0  0  0  0  0  0  0  0  0  0  0
   71.0011   48.8113    6.7215 C   0  0  0  0  0  0  0  0  0  0  0  0
   69.6946   49.0244    7.1520 C   0  0  0  0  0  0  0  0  0  0  0  0
   71.7840   49.4139    8.9144 C   0  0  0  0  0  0  0  0  0  0  0  0
   67.5768   48.7837   10.0880 C   0  0  0  0  0  0  0  0  0  0  0  0
   66.4165   48.3052    7.4798 C   0  0  0  0  0  0  0  0  0  0  0  0
   67.7133   47.2812    9.8034 C   0  0  1  0  0  0  0  0  0  0  0  0
   72.0542   49.0096    7.6098 C   0  0  0  0  0  0  0  0  0  0  0  0
   70.4725   49.6259    9.3408 C   0  0  0  0  0  0  0  0  0  0  0  0
   68.2488   45.5984   11.6803 C   0  0  0  0  0  0  0  0  0  0  0  0
   66.1463   46.3938   11.7264 C   0  0  0  0  0  0  0  0  0  0  0  0
   67.3621   46.4567   11.0312 C   0  0  0  0  0  0  0  0  0  0  0  0
   69.3974   49.4337    8.4542 C   0  0  0  0  0  0  0  0  0  0  0  0
   67.9461   49.6443    8.8720 C   0  0  1  0  0  0  0  0  0  0  0  0
   65.5561   49.0435    5.7930 H   0  0  0  0  0  0  0  0  0  0  0  0
   65.3249   47.3475    6.0579 H   0  0  0  0  0  0  0  0  0  0  0  0
   69.9157   45.8804   10.4803 H   0  0  0  0  0  0  0  0  0  0  0  0
   70.2899   45.5928   12.0436 H   0  0  0  0  0  0  0  0  0  0  0  0
   69.8046   44.3661   11.0812 H   0  0  0  0  0  0  0  0  0  0  0  0
   64.9768   47.7134   10.6350 H   0  0  0  0  0  0  0  0  0  0  0  0
   64.1253   46.4723   11.2685 H   0  0  0  0  0  0  0  0  0  0  0  0
   64.6155   47.6999   12.2274 H   0  0  0  0  0  0  0  0  0  0  0  0
   68.3522   51.3297   10.0361 H   0  0  0  0  0  0  0  0  0  0  0  0
   67.9535   51.6984    8.4960 H   0  0  0  0  0  0  0  0  0  0  0  0
   66.7942   51.2471    9.5539 H   0  0  0  0  0  0  0  0  0  0  0  0
   71.1815   48.5184    5.7826 H   0  0  0  0  0  0  0  0  0  0  0  0
   68.9438   48.8796    6.5076 H   0  0  0  0  0  0  0  0  0  0  0  0
   72.5396   49.5541    9.5542 H   0  0  0  0  0  0  0  0  0  0  0  0
   68.1823   49.0232   10.8470 H   0  0  0  0  0  0  0  0  0  0  0  0
   66.6296   48.9776   10.3432 H   0  0  0  0  0  0  0  0  0  0  0  0
   68.6618   47.0894    9.5513 H   0  0  0  0  0  0  0  0  0  0  0  0
  1 15  1  0  0  0  0
  1 16  1  0  0  0  0
  2 17  1  0  0  0  0
  3 18  1  0  0  0  0
  4  6  1  0  0  0  0
  4 19  1  0  0  0  0
  5 15  1  0  0  0  0
  6 20  2  0  0  0  0
  7 15  2  0  0  0  0
  7 23  1  0  0  0  0
  8 19  1  0  0  0  0
  9 20  1  0  0  0  0
 10 23  1  0  0  0  0
 11 12  2  0  0  0  0
 11 17  1  0  0  0  0
 12 22  1  0  0  0  0
 13 17  2  0  0  0  0
 13 18  1  0  0  0  0
 14 16  1  0  0  0  0
 14 23  1  0  0  0  0
 16 21  1  0  0  0  0
 18 22  2  0  0  0  0
 19 21  2  0  0  0  0
 20 21  1  0  0  0  0
 22 23  1  0  0  0  0
  5 24  1  0  0  0  0
  5 25  1  0  0  0  0
  8 26  1  0  0  0  0
  8 27  1  0  0  0  0
  8 28  1  0  0  0  0
  9 29  1  0  0  0  0
  9 30  1  0  0  0  0
  9 31  1  0  0  0  0
 10 32  1  0  0  0  0
 10 33  1  0  0  0  0
 10 34  1  0  0  0  0
 11 35  1  0  0  0  0
 12 36  1  0  0  0  0
 13 37  1  0  0  0  0
 14 38  1  0  0  0  0
 14 39  1  0  0  0  0
 16 40  1  0  0  0  0
M  END
> <pdb_id>
5KR8

> <uniprot_id>
P56817

> <usmiles>
S1C(=N[C@](c2c(F)cc(F)cc2)(C[C@H]1C3=C(ON=C3C)C)C)N

$$$$
6WZ_A_1101
          07202406393D 1   1.00000     0.00000     0
            
 56 59  0  0  0  0            999 V2000
   12.7460   -4.9390  -12.3740 F   0  0  0  0  0  0  0  0  0  0  0  0
   20.3690   -3.9490   -9.9040 F   0  0  0  0  0  0  0  0  0  0  0  0
   20.3490   -4.9470  -11.7960 F   0  0  0  0  0  0  0  0  0  0  0  0
   19.7240   -6.0060  -10.0630 F   0  0  0  0  0  0  0  0  0  0  0  0
   11.5610   -4.9780   -5.4820 O   0  0  0  0  0  0  0  0  0  0  0  0
    9.0100   -1.4270   -4.4410 O   0  0  0  0  0  0  0  0  0  0  0  0
   13.0630   -2.2560   -9.9060 O   0  0  0  0  0  0  0  0  0  0  0  0
   10.3100   -3.1960   -4.9450 N   0  0  0  0  0  0  0  0  0  0  0  0
   14.7440   -3.7250  -10.3410 N   0  0  0  0  0  0  0  0  0  0  0  0
   17.4790   -4.2940   -9.6500 N   0  0  0  0  0  0  0  0  0  0  0  0
    9.7360   -4.6390   -6.7800 N   0  0  0  0  0  0  0  0  0  0  0  0
   16.3530   -2.7880   -7.9650 C   0  0  0  0  0  0  0  0  0  0  0  0
   15.2430   -5.0860  -10.5920 C   0  0  0  0  0  0  0  0  0  0  0  0
   16.4390   -5.3470   -9.6620 C   0  0  0  0  0  0  0  0  0  0  0  0
   15.7630   -2.6530  -10.4000 C   0  0  0  0  0  0  0  0  0  0  0  0
   10.0900   -5.8560   -7.5530 C   0  0  0  0  0  0  0  0  0  0  0  0
   18.3020   -4.3430  -10.8970 C   0  0  0  0  0  0  0  0  0  0  0  0
    6.6270   -3.3870   -8.3360 C   0  0  0  0  0  0  0  0  0  0  0  0
    6.3580   -2.2720   -7.5600 C   0  0  0  0  0  0  0  0  0  0  0  0
    7.7460   -4.1720   -8.0790 C   0  0  0  0  0  0  0  0  0  0  0  0
   11.0900   -6.1140  -11.1150 C   0  0  0  0  0  0  0  0  0  0  0  0
    7.2150   -1.9500   -6.5120 C   0  0  0  0  0  0  0  0  0  0  0  0
   10.4250   -6.3440   -9.9120 C   0  0  0  0  0  0  0  0  0  0  0  0
   11.7720   -4.6370   -8.8530 C   0  0  0  0  0  0  0  0  0  0  0  0
   10.5590   -4.3120   -5.7460 C   0  0  0  0  0  0  0  0  0  0  0  0
    9.1960   -2.3960   -5.1800 C   0  0  0  0  0  0  0  0  0  0  0  0
   13.4380   -3.4180  -10.0980 C   0  0  0  0  0  0  0  0  0  0  0  0
   12.0930   -5.1500  -11.1890 C   0  0  0  0  0  0  0  0  0  0  0  0
   16.8860   -2.9520   -9.4070 C   0  0  2  0  0  0  0  0  0  0  0  0
    8.6270   -3.8720   -7.0300 C   0  0  0  0  0  0  0  0  0  0  0  0
   10.7430   -5.5900   -8.7710 C   0  0  0  0  0  0  0  0  0  0  0  0
    8.3410   -2.7360   -6.2390 C   0  0  0  0  0  0  0  0  0  0  0  0
   12.4450   -4.4090  -10.0520 C   0  0  0  0  0  0  0  0  0  0  0  0
   19.7350   -4.8320  -10.6530 C   0  0  0  0  0  0  0  0  0  0  0  0
   10.9357   -2.9703   -4.1983 H   0  0  0  0  0  0  0  0  0  0  0  0
   15.9665   -1.8724   -7.8546 H   0  0  0  0  0  0  0  0  0  0  0  0
   15.6444   -3.4720   -7.7917 H   0  0  0  0  0  0  0  0  0  0  0  0
   17.1033   -2.9135   -7.3160 H   0  0  0  0  0  0  0  0  0  0  0  0
   15.5330   -5.1683  -11.5455 H   0  0  0  0  0  0  0  0  0  0  0  0
   14.5193   -5.7503  -10.4051 H   0  0  0  0  0  0  0  0  0  0  0  0
   16.0891   -5.4450   -8.7303 H   0  0  0  0  0  0  0  0  0  0  0  0
   16.8704   -6.2027   -9.9478 H   0  0  0  0  0  0  0  0  0  0  0  0
   15.3384   -1.7780  -10.1675 H   0  0  0  0  0  0  0  0  0  0  0  0
   16.1412   -2.6048  -11.3245 H   0  0  0  0  0  0  0  0  0  0  0  0
    9.2486   -6.3590   -7.7505 H   0  0  0  0  0  0  0  0  0  0  0  0
   10.6924   -6.4220   -6.9902 H   0  0  0  0  0  0  0  0  0  0  0  0
   18.3417   -3.4237  -11.2885 H   0  0  0  0  0  0  0  0  0  0  0  0
   17.8603   -4.9627  -11.5457 H   0  0  0  0  0  0  0  0  0  0  0  0
    6.0123   -3.6295   -9.0865 H   0  0  0  0  0  0  0  0  0  0  0  0
    5.5569   -1.7046   -7.7506 H   0  0  0  0  0  0  0  0  0  0  0  0
    7.9265   -4.9688   -8.6556 H   0  0  0  0  0  0  0  0  0  0  0  0
   10.8463   -6.6428  -11.9280 H   0  0  0  0  0  0  0  0  0  0  0  0
    7.0243   -1.1473   -5.9469 H   0  0  0  0  0  0  0  0  0  0  0  0
    9.7180   -7.0494   -9.8612 H   0  0  0  0  0  0  0  0  0  0  0  0
   12.0253   -4.1144   -8.0389 H   0  0  0  0  0  0  0  0  0  0  0  0
   17.6051   -2.2711   -9.5457 H   0  0  0  0  0  0  0  0  0  0  0  0
  1 28  1  0  0  0  0
  2 34  1  0  0  0  0
  3 34  1  0  0  0  0
  4 34  1  0  0  0  0
  5 25  2  0  0  0  0
  6 26  2  0  0  0  0
  7 27  2  0  0  0  0
  8 25  1  0  0  0  0
  8 26  1  0  0  0  0
  9 13  1  0  0  0  0
  9 15  1  0  0  0  0
  9 27  1  0  0  0  0
 10 14  1  0  0  0  0
 10 17  1  0  0  0  0
 10 29  1  0  0  0  0
 11 16  1  0  0  0  0
 11 25  1  0  0  0  0
 11 30  1  0  0  0  0
 12 29  1  0  0  0  0
 13 14  1  0  0  0  0
 15 29  1  0  0  0  0
 16 31  1  0  0  0  0
 17 34  1  0  0  0  0
 18 19  2  0  0  0  0
 18 20  1  0  0  0  0
 19 22  1  0  0  0  0
 20 30  2  0  0  0  0
 21 23  2  0  0  0  0
 21 28  1  0  0  0  0
 22 32  2  0  0  0  0
 23 31  1  0  0  0  0
 24 31  2  0  0  0  0
 24 33  1  0  0  0  0
 26 32  1  0  0  0  0
 27 33  1  0  0  0  0
 28 33  2  0  0  0  0
 30 32  1  0  0  0  0
  8 35  1  0  0  0  0
 12 36  1  0  0  0  0
 12 37  1  0  0  0  0
 12 38  1  0  0  0  0
 13 39  1  0  0  0  0
 13 40  1  0  0  0  0
 14 41  1  0  0  0  0
 14 42  1  0  0  0  0
 15 43  1  0  0  0  0
 15 44  1  0  0  0  0
 16 45  1  0  0  0  0
 16 46  1  0  0  0  0
 17 47  1  0  0  0  0
 17 48  1  0  0  0  0
 18 49  1  0  0  0  0
 19 50  1  0  0  0  0
 20 51  1  0  0  0  0
 21 52  1  0  0  0  0
 22 53  1  0  0  0  0
 23 54  1  0  0  0  0
 24 55  1  0  0  0  0
 29 56  1  0  0  0  0
M  END
> <pdb_id>
5KPP

> <uniprot_id>
P09874

> <usmiles>
Fc1c(cc(cc1)CN2c3c(cccc3)C(=O)NC2=O)C(=O)N4C[C@H](N(CC(F)(F)F)CC4)C

$$$$
6X1_A_401
          07212403373D 1   1.00000     0.00000     0
            
 31 32  0  0  0  0            999 V2000
   31.0199   -8.2816  -24.1871 Cl  0  0  0  0  0  0  0  0  0  0  0  0
   31.5357  -10.1625  -19.1651 Cl  0  0  0  0  0  0  0  0  0  0  0  0
   33.7685  -13.8135  -21.3899 O   0  0  0  0  0  0  0  0  0  0  0  0
   34.2342  -17.8164  -26.0539 O   0  0  0  0  0  0  0  0  0  0  0  0
   34.2855  -15.6291  -25.7707 O   0  0  0  0  0  0  0  0  0  0  0  0
   33.0899  -12.7864  -23.2687 N   0  0  0  0  0  0  0  0  0  0  0  0
   33.9684  -14.8553  -23.3689 N   0  0  0  0  0  0  0  0  0  0  0  0
   35.3673  -17.4277  -21.1917 C   0  0  0  0  0  0  0  0  0  0  0  0
   35.6107  -18.4322  -22.1233 C   0  0  0  0  0  0  0  0  0  0  0  0
   34.8197  -16.2162  -21.6010 C   0  0  0  0  0  0  0  0  0  0  0  0
   35.3098  -18.2155  -23.4642 C   0  0  0  0  0  0  0  0  0  0  0  0
   31.3310   -9.3855  -21.7365 C   0  0  0  0  0  0  0  0  0  0  0  0
   32.1494  -10.6764  -23.5982 C   0  0  0  0  0  0  0  0  0  0  0  0
   32.4216  -11.5032  -21.3603 C   0  0  0  0  0  0  0  0  0  0  0  0
   33.6100  -13.8206  -22.6099 C   0  0  0  0  0  0  0  0  0  0  0  0
   31.5182   -9.5359  -23.1060 C   0  0  0  0  0  0  0  0  0  0  0  0
   31.7824  -10.3707  -20.8642 C   0  0  0  0  0  0  0  0  0  0  0  0
   34.3960  -16.7997  -25.3446 C   0  0  0  0  0  0  0  0  0  0  0  0
   32.6069  -11.6651  -22.7329 C   0  0  0  0  0  0  0  0  0  0  0  0
   34.5100  -15.9968  -22.9419 C   0  0  0  0  0  0  0  0  0  0  0  0
   34.7629  -17.0009  -23.8726 C   0  0  0  0  0  0  0  0  0  0  0  0
   34.3366  -18.7270  -25.6534 H   0  0  0  0  0  0  0  0  0  0  0  0
   33.0586  -12.8581  -24.2657 H   0  0  0  0  0  0  0  0  0  0  0  0
   33.8168  -14.7675  -24.3534 H   0  0  0  0  0  0  0  0  0  0  0  0
   35.5860  -17.5768  -20.2273 H   0  0  0  0  0  0  0  0  0  0  0  0
   36.0000  -19.3055  -21.8305 H   0  0  0  0  0  0  0  0  0  0  0  0
   34.6470  -15.4971  -20.9279 H   0  0  0  0  0  0  0  0  0  0  0  0
   35.4866  -18.9338  -24.1371 H   0  0  0  0  0  0  0  0  0  0  0  0
   30.8731   -8.5713  -21.3796 H   0  0  0  0  0  0  0  0  0  0  0  0
   32.2749  -10.7856  -24.5843 H   0  0  0  0  0  0  0  0  0  0  0  0
   32.7501  -12.2052  -20.7284 H   0  0  0  0  0  0  0  0  0  0  0  0
  1 16  1  0  0  0  0
  2 17  1  0  0  0  0
  3 15  2  0  0  0  0
  4 18  1  0  0  0  0
  5 18  2  0  0  0  0
  6 15  1  0  0  0  0
  6 19  1  0  0  0  0
  7 15  1  0  0  0  0
  7 20  1  0  0  0  0
  8  9  2  0  0  0  0
  8 10  1  0  0  0  0
  9 11  1  0  0  0  0
 10 20  2  0  0  0  0
 11 21  2  0  0  0  0
 12 16  2  0  0  0  0
 12 17  1  0  0  0  0
 13 16  1  0  0  0  0
 13 19  2  0  0  0  0
 14 17  2  0  0  0  0
 14 19  1  0  0  0  0
 18 21  1  0  0  0  0
 20 21  1  0  0  0  0
  4 22  1  0  0  0  0
  6 23  1  0  0  0  0
  7 24  1  0  0  0  0
  8 25  1  0  0  0  0
  9 26  1  0  0  0  0
 10 27  1  0  0  0  0
 11 28  1  0  0  0  0
 12 29  1  0  0  0  0
 13 30  1  0  0  0  0
 14 31  1  0  0  0  0
M  END
> <pdb_id>
3KVK

> <uniprot_id>
Q02127

> <usmiles>
Clc1cc(Cl)cc(NC(=O)Nc2c(cccc2)C(=O)O)c1

$$$$
6X9_B_403
          07202406423D 1   1.00000     0.00000     0
            
 28 29  0  0  0  0            999 V2000
   32.8310    4.2450  -22.7060 O   0  0  0  0  0  0  0  0  0  0  0  0
   30.0950   -0.2560  -18.0860 N   0  0  0  0  0  0  0  0  0  0  0  0
   30.8840    2.4700  -21.7900 N   0  0  0  0  0  0  0  0  0  0  0  0
   32.9720    2.5140  -19.0080 N   0  0  0  0  0  0  0  0  0  0  0  0
   31.8820    2.8720  -21.1420 N   0  0  0  0  0  0  0  0  0  0  0  0
   36.1440    4.2560  -21.8780 C   0  0  0  0  0  0  0  0  0  0  0  0
   28.9480    0.8320  -21.4590 C   0  0  0  0  0  0  0  0  0  0  0  0
   35.0440    3.6110  -18.3170 C   0  0  0  0  0  0  0  0  0  0  0  0
   30.4380    0.5020  -18.8530 C   0  0  0  0  0  0  0  0  0  0  0  0
   35.0340    4.9970  -21.0860 C   0  0  0  0  0  0  0  0  0  0  0  0
   32.9020    3.7320  -21.5560 C   0  0  0  0  0  0  0  0  0  0  0  0
   31.9540    2.2650  -19.8660 C   0  0  0  0  0  0  0  0  0  0  0  0
   30.2980    1.4770  -21.1280 C   0  0  0  0  0  0  0  0  0  0  0  0
   33.9400    3.3670  -19.3710 C   0  0  0  0  0  0  0  0  0  0  0  0
   30.8650    1.4200  -19.8520 C   0  0  0  0  0  0  0  0  0  0  0  0
   33.9610    3.9860  -20.6590 C   0  0  0  0  0  0  0  0  0  0  0  0
   33.0010    2.0666  -18.1141 H   0  0  0  0  0  0  0  0  0  0  0  0
   36.8463    4.9101  -22.1589 H   0  0  0  0  0  0  0  0  0  0  0  0
   36.5558    3.5538  -21.2971 H   0  0  0  0  0  0  0  0  0  0  0  0
   35.7452    3.8265  -22.6883 H   0  0  0  0  0  0  0  0  0  0  0  0
   28.7524    0.1094  -20.7960 H   0  0  0  0  0  0  0  0  0  0  0  0
   28.2285    1.5253  -21.4184 H   0  0  0  0  0  0  0  0  0  0  0  0
   28.9822    0.4404  -22.3785 H   0  0  0  0  0  0  0  0  0  0  0  0
   35.7147    4.2576  -18.6804 H   0  0  0  0  0  0  0  0  0  0  0  0
   34.6342    3.9875  -17.4861 H   0  0  0  0  0  0  0  0  0  0  0  0
   35.4973    2.7458  -18.1026 H   0  0  0  0  0  0  0  0  0  0  0  0
   34.6207    5.6990  -21.6660 H   0  0  0  0  0  0  0  0  0  0  0  0
   35.4312    5.4263  -20.2749 H   0  0  0  0  0  0  0  0  0  0  0  0
  1 11  2  0  0  0  0
  2  9  3  0  0  0  0
  3  5  1  0  0  0  0
  3 13  2  0  0  0  0
  4 12  1  0  0  0  0
  4 14  1  0  0  0  0
  5 11  1  0  0  0  0
  5 12  1  0  0  0  0
  6 10  1  0  0  0  0
  7 13  1  0  0  0  0
  8 14  1  0  0  0  0
  9 15  1  0  0  0  0
 10 16  1  0  0  0  0
 11 16  1  0  0  0  0
 12 15  2  0  0  0  0
 13 15  1  0  0  0  0
 14 16  2  0  0  0  0
  4 17  1  0  0  0  0
  6 18  1  0  0  0  0
  6 19  1  0  0  0  0
  6 20  1  0  0  0  0
  7 21  1  0  0  0  0
  7 22  1  0  0  0  0
  7 23  1  0  0  0  0
  8 24  1  0  0  0  0
  8 25  1  0  0  0  0
  8 26  1  0  0  0  0
 10 27  1  0  0  0  0
 10 28  1  0  0  0  0
M  END
> <pdb_id>
5KR7

> <uniprot_id>
Q9H3R0

> <usmiles>
O=C1N2N=C(C(C#N)=C2NC(=C1CC)C)C

$$$$
6XA_A_403
          07192416273D 1   1.00000     0.00000     0
            
 24 23  0  0  0  0            999 V2000
  -17.9821  -10.0153   -0.8829 O   0  0  0  0  0  0  0  0  0  0  0  0
  -15.5765   -9.3104   -0.5400 O   0  0  0  0  0  0  0  0  0  0  0  0
  -13.0627   -4.5656   -5.2581 N   0  0  0  0  0  0  0  0  0  0  0  0
  -17.3493   -9.1965   -1.8196 N   0  0  0  0  0  0  0  0  0  0  0  0
  -13.9749   -3.8546   -4.3884 C   0  0  0  0  0  0  0  0  0  0  0  0
  -14.5506   -4.8395   -3.3802 C   0  0  0  0  0  0  0  0  0  0  0  0
  -15.2162   -6.0270   -4.0671 C   0  0  0  0  0  0  0  0  0  0  0  0
  -16.0752   -6.8204   -3.0760 C   0  0  0  0  0  0  0  0  0  0  0  0
  -15.3200   -8.0142   -2.5291 C   0  0  0  0  0  0  0  0  0  0  0  0
  -16.0988   -8.8763   -1.5641 C   0  0  0  0  0  0  0  0  0  0  0  0
  -18.9214  -10.1932   -1.1762 H   0  0  0  0  0  0  0  0  0  0  0  0
  -12.6762   -3.9303   -5.9267 H   0  0  0  0  0  0  0  0  0  0  0  0
  -12.3257   -4.9651   -4.7131 H   0  0  0  0  0  0  0  0  0  0  0  0
  -17.8203   -8.8712   -2.6395 H   0  0  0  0  0  0  0  0  0  0  0  0
  -14.7148   -3.4555   -4.9300 H   0  0  0  0  0  0  0  0  0  0  0  0
  -13.4845   -3.1279   -3.9074 H   0  0  0  0  0  0  0  0  0  0  0  0
  -15.2301   -4.3678   -2.8182 H   0  0  0  0  0  0  0  0  0  0  0  0
  -13.8110   -5.1755   -2.7970 H   0  0  0  0  0  0  0  0  0  0  0  0
  -14.5094   -6.6272   -4.4414 H   0  0  0  0  0  0  0  0  0  0  0  0
  -15.7970   -5.6927   -4.8093 H   0  0  0  0  0  0  0  0  0  0  0  0
  -16.8991   -7.1417   -3.5430 H   0  0  0  0  0  0  0  0  0  0  0  0
  -16.3338   -6.2226   -2.3172 H   0  0  0  0  0  0  0  0  0  0  0  0
  -14.5066   -7.6761   -2.0558 H   0  0  0  0  0  0  0  0  0  0  0  0
  -15.0428   -8.5859   -3.3013 H   0  0  0  0  0  0  0  0  0  0  0  0
  1  4  1  0  0  0  0
  2 10  2  0  0  0  0
  3  5  1  0  0  0  0
  4 10  1  0  0  0  0
  5  6  1  0  0  0  0
  6  7  1  0  0  0  0
  7  8  1  0  0  0  0
  8  9  1  0  0  0  0
  9 10  1  0  0  0  0
  1 11  1  0  0  0  0
  3 12  1  0  0  0  0
  3 13  1  0  0  0  0
  4 14  1  0  0  0  0
  5 15  1  0  0  0  0
  5 16  1  0  0  0  0
  6 17  1  0  0  0  0
  6 18  1  0  0  0  0
  7 19  1  0  0  0  0
  7 20  1  0  0  0  0
  8 21  1  0  0  0  0
  8 22  1  0  0  0  0
  9 23  1  0  0  0  0
  9 24  1  0  0  0  0
M  END
> <pdb_id>
4ZUQ

> <uniprot_id>
Q48935

> <usmiles>
O=C(NO)CCCCCN

$$$$
6XA_H_405
          07212403273D 1   1.00000     0.00000     0
            
 24 23  0  0  0  0            999 V2000
   25.7977   37.1978   74.7105 O   0  0  0  0  0  0  0  0  0  0  0  0
   27.0400   34.8772   74.7039 O   0  0  0  0  0  0  0  0  0  0  0  0
   32.6889   33.9092   69.8548 N   0  0  0  0  0  0  0  0  0  0  0  0
   26.7679   36.9281   73.7386 N   0  0  0  0  0  0  0  0  0  0  0  0
   32.7833   35.0160   70.9308 C   0  0  0  0  0  0  0  0  0  0  0  0
   31.4981   35.0886   71.7866 C   0  0  0  0  0  0  0  0  0  0  0  0
   30.3824   35.9705   71.1516 C   0  0  0  0  0  0  0  0  0  0  0  0
   29.2519   36.4171   72.1281 C   0  0  0  0  0  0  0  0  0  0  0  0
   28.4391   35.2615   72.8047 C   0  0  0  0  0  0  0  0  0  0  0  0
   27.3711   35.6907   73.8021 C   0  0  0  0  0  0  0  0  0  0  0  0
   25.4302   38.1169   74.5686 H   0  0  0  0  0  0  0  0  0  0  0  0
   33.5345   33.8901   69.3212 H   0  0  0  0  0  0  0  0  0  0  0  0
   32.5549   33.0232   70.2988 H   0  0  0  0  0  0  0  0  0  0  0  0
   27.0103   37.5972   73.0360 H   0  0  0  0  0  0  0  0  0  0  0  0
   32.9224   35.8971   70.4788 H   0  0  0  0  0  0  0  0  0  0  0  0
   33.5609   34.8218   71.5289 H   0  0  0  0  0  0  0  0  0  0  0  0
   31.7335   35.4700   72.6806 H   0  0  0  0  0  0  0  0  0  0  0  0
   31.1418   34.1615   71.9031 H   0  0  0  0  0  0  0  0  0  0  0  0
   29.9616   35.4496   70.4089 H   0  0  0  0  0  0  0  0  0  0  0  0
   30.8126   36.7931   70.7797 H   0  0  0  0  0  0  0  0  0  0  0  0
   28.6086   36.9842   71.6138 H   0  0  0  0  0  0  0  0  0  0  0  0
   29.6711   36.9628   72.8536 H   0  0  0  0  0  0  0  0  0  0  0  0
   29.0881   34.6723   73.2861 H   0  0  0  0  0  0  0  0  0  0  0  0
   27.9889   34.7394   72.0802 H   0  0  0  0  0  0  0  0  0  0  0  0
  1  4  1  0  0  0  0
  2 10  2  0  0  0  0
  3  5  1  0  0  0  0
  4 10  1  0  0  0  0
  5  6  1  0  0  0  0
  6  7  1  0  0  0  0
  7  8  1  0  0  0  0
  8  9  1  0  0  0  0
  9 10  1  0  0  0  0
  1 11  1  0  0  0  0
  3 12  1  0  0  0  0
  3 13  1  0  0  0  0
  4 14  1  0  0  0  0
  5 15  1  0  0  0  0
  5 16  1  0  0  0  0
  6 17  1  0  0  0  0
  6 18  1  0  0  0  0
  7 19  1  0  0  0  0
  7 20  1  0  0  0  0
  8 21  1  0  0  0  0
  8 22  1  0  0  0  0
  9 23  1  0  0  0  0
  9 24  1  0  0  0  0
M  END
> <pdb_id>
6PIC

> <uniprot_id>
nan

> <usmiles>
O=C(NO)CCCCCN

$$$$
6XB_A_1201
          07192420223D 1   1.00000     0.00000     0
            
 35 37  0  0  0  0            999 V2000
    5.5095   14.2272    8.7199 O   0  0  0  0  0  0  0  0  0  0  0  0
   11.7371   14.5738    8.2055 N   0  0  0  0  0  0  0  0  0  0  0  0
   10.9652   15.6026    8.1563 N   0  0  0  0  0  0  0  0  0  0  0  0
   11.6825   12.4066    9.2006 N   0  0  0  0  0  0  0  0  0  0  0  0
    7.5815   14.0127    9.5156 N   0  0  0  0  0  0  0  0  0  0  0  0
    6.3464   11.9694    8.9631 C   0  0  0  0  0  0  0  0  0  0  0  0
    7.6295   15.4693    9.7378 C   0  0  0  0  0  0  0  0  0  0  0  0
    8.8060   13.2641    9.7572 C   0  0  0  0  0  0  0  0  0  0  0  0
   14.3933   10.0620    7.2553 C   0  0  0  0  0  0  0  0  0  0  0  0
   14.1112    9.8185    8.5812 C   0  0  0  0  0  0  0  0  0  0  0  0
   13.8674   11.1489    6.5785 C   0  0  0  0  0  0  0  0  0  0  0  0
    8.6090   16.0404    8.7456 C   0  0  0  0  0  0  0  0  0  0  0  0
   13.1767   10.6244    9.1995 C   0  0  0  0  0  0  0  0  0  0  0  0
   12.9346   11.9666    7.2081 C   0  0  0  0  0  0  0  0  0  0  0  0
    6.4547   13.5062    9.0060 C   0  0  0  0  0  0  0  0  0  0  0  0
   11.1119   13.5589    8.7981 C   0  0  0  0  0  0  0  0  0  0  0  0
   12.5954   11.6969    8.5295 C   0  0  0  0  0  0  0  0  0  0  0  0
    9.7609   15.2478    8.6549 C   0  0  0  0  0  0  0  0  0  0  0  0
    9.8798   13.9592    9.1204 C   0  0  0  0  0  0  0  0  0  0  0  0
   12.6712   14.5416    7.8500 H   0  0  0  0  0  0  0  0  0  0  0  0
   11.3950   12.0469   10.0883 H   0  0  0  0  0  0  0  0  0  0  0  0
    7.2218   11.5660    9.2297 H   0  0  0  0  0  0  0  0  0  0  0  0
    5.6337   11.6677    9.5963 H   0  0  0  0  0  0  0  0  0  0  0  0
    6.1136   11.6774    8.0354 H   0  0  0  0  0  0  0  0  0  0  0  0
    7.9341   15.6635   10.6702 H   0  0  0  0  0  0  0  0  0  0  0  0
    6.7239   15.8678    9.5931 H   0  0  0  0  0  0  0  0  0  0  0  0
    8.7227   12.3440    9.3744 H   0  0  0  0  0  0  0  0  0  0  0  0
    8.9775   13.2018   10.7404 H   0  0  0  0  0  0  0  0  0  0  0  0
   14.9976    9.4333    6.7658 H   0  0  0  0  0  0  0  0  0  0  0  0
   14.5684    9.0819    9.0796 H   0  0  0  0  0  0  0  0  0  0  0  0
   14.1566   11.3453    5.6416 H   0  0  0  0  0  0  0  0  0  0  0  0
    8.8689   16.9609    9.0372 H   0  0  0  0  0  0  0  0  0  0  0  0
    8.1732   16.0860    7.8467 H   0  0  0  0  0  0  0  0  0  0  0  0
   12.9128   10.4344   10.1452 H   0  0  0  0  0  0  0  0  0  0  0  0
   12.5165   12.7328    6.7203 H   0  0  0  0  0  0  0  0  0  0  0  0
  1 15  2  0  0  0  0
  2  3  1  0  0  0  0
  2 16  1  0  0  0  0
  3 18  2  0  0  0  0
  4 16  1  0  0  0  0
  4 17  1  0  0  0  0
  5  7  1  0  0  0  0
  5  8  1  0  0  0  0
  5 15  1  0  0  0  0
  6 15  1  0  0  0  0
  7 12  1  0  0  0  0
  8 19  1  0  0  0  0
  9 10  2  0  0  0  0
  9 11  1  0  0  0  0
 10 13  1  0  0  0  0
 11 14  2  0  0  0  0
 12 18  1  0  0  0  0
 13 17  2  0  0  0  0
 14 17  1  0  0  0  0
 16 19  2  0  0  0  0
 18 19  1  0  0  0  0
  2 20  1  0  0  0  0
  4 21  1  0  0  0  0
  6 22  1  0  0  0  0
  6 23  1  0  0  0  0
  6 24  1  0  0  0  0
  7 25  1  0  0  0  0
  7 26  1  0  0  0  0
  8 27  1  0  0  0  0
  8 28  1  0  0  0  0
  9 29  1  0  0  0  0
 10 30  1  0  0  0  0
 11 31  1  0  0  0  0
 12 32  1  0  0  0  0
 12 33  1  0  0  0  0
 13 34  1  0  0  0  0
 14 35  1  0  0  0  0
M  END
> <pdb_id>
5KTU

> <uniprot_id>
Q92793

> <usmiles>
O=C(N1CC2=C(NN=C2CC1)Nc3ccccc3)C

$$$$
6XE_A_2345
          07202415303D 1   1.00000     0.00000     0
            
 40 44  0  0  0  0            999 V2000
   -8.8009  -13.7622   14.8669 F   0  0  0  0  0  0  0  0  0  0  0  0
   -1.1065  -14.0946   20.7869 N   0  0  0  0  0  0  0  0  0  0  0  0
   -0.2150  -14.0496   19.8544 N   0  0  0  0  0  0  0  0  0  0  0  0
   -3.2359  -13.9344   18.0173 N   0  0  0  0  0  0  0  0  0  0  0  0
   -3.5734  -14.0746   20.7388 N   0  0  0  0  0  0  0  0  0  0  0  0
   -0.7530  -18.6152   14.1361 N   0  0  0  0  0  0  0  0  0  0  0  0
   -2.1240  -13.9867   18.8743 N   0  0  0  0  0  0  0  0  0  0  0  0
   -1.7178  -18.6999   13.2054 C   0  0  0  0  0  0  0  0  0  0  0  0
   -4.6313  -14.0228   19.9324 C   0  0  0  0  0  0  0  0  0  0  0  0
   -2.6211  -17.6284   12.9754 C   0  0  0  0  0  0  0  0  0  0  0  0
   -8.0346  -13.8480   17.1287 C   0  0  0  0  0  0  0  0  0  0  0  0
   -6.4477  -13.7989   15.2588 C   0  0  0  0  0  0  0  0  0  0  0  0
    0.4481  -17.4264   15.8925 C   0  0  0  0  0  0  0  0  0  0  0  0
   -2.5046  -16.4582   13.7290 C   0  0  0  0  0  0  0  0  0  0  0  0
    0.5945  -16.2745   16.6572 C   0  0  0  0  0  0  0  0  0  0  0  0
   -6.9687  -13.8962   18.0436 C   0  0  0  0  0  0  0  0  0  0  0  0
   -5.3733  -13.8436   16.1641 C   0  0  0  0  0  0  0  0  0  0  0  0
   -0.0674  -13.9096   17.3312 C   0  0  0  0  0  0  0  0  0  0  0  0
   -1.2923  -15.1920   15.5263 C   0  0  0  0  0  0  0  0  0  0  0  0
   -2.3099  -14.0584   20.2462 C   0  0  0  0  0  0  0  0  0  0  0  0
   -7.7762  -13.8024   15.7386 C   0  0  0  0  0  0  0  0  0  0  0  0
   -0.7810  -13.9838   18.6735 C   0  0  0  0  0  0  0  0  0  0  0  0
   -4.4650  -13.9503   18.5088 C   0  0  0  0  0  0  0  0  0  0  0  0
   -0.5835  -17.5043   14.9056 C   0  0  0  0  0  0  0  0  0  0  0  0
   -0.2685  -15.1568   16.4803 C   0  0  0  0  0  0  0  0  0  0  0  0
   -5.6218  -13.8953   17.5683 C   0  0  0  0  0  0  0  0  0  0  0  0
   -1.4723  -16.3645   14.7203 C   0  0  0  0  0  0  0  0  0  0  0  0
   -1.8018  -19.5355   12.6626 H   0  0  0  0  0  0  0  0  0  0  0  0
   -5.5518  -14.0346   20.3228 H   0  0  0  0  0  0  0  0  0  0  0  0
   -3.3346  -17.7111   12.2797 H   0  0  0  0  0  0  0  0  0  0  0  0
   -8.9778  -13.8459   17.4612 H   0  0  0  0  0  0  0  0  0  0  0  0
   -6.2715  -13.7646   14.2750 H   0  0  0  0  0  0  0  0  0  0  0  0
    1.0647  -18.2010   16.0329 H   0  0  0  0  0  0  0  0  0  0  0  0
   -3.1333  -15.6951   13.5792 H   0  0  0  0  0  0  0  0  0  0  0  0
    1.3198  -16.2306   17.3444 H   0  0  0  0  0  0  0  0  0  0  0  0
   -7.1531  -13.9311   19.0259 H   0  0  0  0  0  0  0  0  0  0  0  0
   -4.4331  -13.8392   15.8235 H   0  0  0  0  0  0  0  0  0  0  0  0
    0.9116  -13.7914   17.4970 H   0  0  0  0  0  0  0  0  0  0  0  0
   -0.4179  -13.1202   16.8273 H   0  0  0  0  0  0  0  0  0  0  0  0
   -1.8954  -14.4033   15.4075 H   0  0  0  0  0  0  0  0  0  0  0  0
  1 21  1  0  0  0  0
  2  3  1  0  0  0  0
  2 20  2  0  0  0  0
  3 22  2  0  0  0  0
  4  7  1  0  0  0  0
  4 23  2  0  0  0  0
  5  9  2  0  0  0  0
  5 20  1  0  0  0  0
  6  8  2  0  0  0  0
  6 24  1  0  0  0  0
  7 20  1  0  0  0  0
  7 22  1  0  0  0  0
  8 10  1  0  0  0  0
  9 23  1  0  0  0  0
 10 14  2  0  0  0  0
 11 16  1  0  0  0  0
 11 21  2  0  0  0  0
 12 17  2  0  0  0  0
 12 21  1  0  0  0  0
 13 15  1  0  0  0  0
 13 24  2  0  0  0  0
 14 27  1  0  0  0  0
 15 25  2  0  0  0  0
 16 26  2  0  0  0  0
 17 26  1  0  0  0  0
 18 22  1  0  0  0  0
 18 25  1  0  0  0  0
 19 25  1  0  0  0  0
 19 27  2  0  0  0  0
 23 26  1  0  0  0  0
 24 27  1  0  0  0  0
  8 28  1  0  0  0  0
  9 29  1  0  0  0  0
 10 30  1  0  0  0  0
 11 31  1  0  0  0  0
 12 32  1  0  0  0  0
 13 33  1  0  0  0  0
 14 34  1  0  0  0  0
 15 35  1  0  0  0  0
 16 36  1  0  0  0  0
 17 37  1  0  0  0  0
 18 38  1  0  0  0  0
 18 39  1  0  0  0  0
 19 40  1  0  0  0  0
M  END
> <pdb_id>
3ZBX

> <uniprot_id>
P08581

> <usmiles>
Fc1ccc(cc1)C2=NN3C(=NN=C3Cc4cc5c(nccc5)cc4)N=C2

$$$$
6XP_A_2345
          07202415303D 1   1.00000     0.00000     0
            
 41 43  0  0  0  0            999 V2000
   -3.5420  -12.7102   15.0631 Cl  0  0  0  0  0  0  0  0  0  0  0  0
    0.0256  -14.3367   20.3716 O   0  0  0  0  0  0  0  0  0  0  0  0
   -4.3161  -14.1658   20.6596 O   0  0  0  0  0  0  0  0  0  0  0  0
   -0.1413  -18.5055   14.6177 O   0  0  0  0  0  0  0  0  0  0  0  0
   -1.9855  -13.7767   19.4875 N   0  0  0  0  0  0  0  0  0  0  0  0
   -2.7202  -13.6058   18.2872 N   0  0  0  0  0  0  0  0  0  0  0  0
   -6.1890  -13.7433   19.3445 N   0  0  0  0  0  0  0  0  0  0  0  0
   -8.9189  -13.2949   18.0684 C   0  0  0  0  0  0  0  0  0  0  0  0
    1.5267  -13.3955   18.2281 C   0  0  0  0  0  0  0  0  0  0  0  0
   -6.2056  -12.6634   15.2827 C   0  0  0  0  0  0  0  0  0  0  0  0
    0.8681  -17.3417   16.4778 C   0  0  0  0  0  0  0  0  0  0  0  0
   -0.9950  -16.3207   15.1825 C   0  0  0  0  0  0  0  0  0  0  0  0
   -7.5195  -12.7972   15.9828 C   0  0  0  0  0  0  0  0  0  0  0  0
    0.9207  -16.1671   17.3276 C   0  0  0  0  0  0  0  0  0  0  0  0
   -0.9388  -15.1646   16.0228 C   0  0  0  0  0  0  0  0  0  0  0  0
   -0.6275  -13.9886   19.3829 C   0  0  0  0  0  0  0  0  0  0  0  0
   -4.8473  -13.8613   19.5839 C   0  0  0  0  0  0  0  0  0  0  0  0
   -5.0115  -12.8884   15.9414 C   0  0  0  0  0  0  0  0  0  0  0  0
   -0.0942  -17.4001   15.4134 C   0  0  0  0  0  0  0  0  0  0  0  0
   -4.0957  -13.5576   18.3143 C   0  0  0  0  0  0  0  0  0  0  0  0
   -6.3162  -13.4100   18.1015 C   0  0  0  0  0  0  0  0  0  0  0  0
   -7.6216  -13.1504   17.3259 C   0  0  0  0  0  0  0  0  0  0  0  0
    0.0569  -13.8022   18.0140 C   0  0  2  0  0  0  0  0  0  0  0  0
    0.0102  -15.0510   17.1080 C   0  0  0  0  0  0  0  0  0  0  0  0
   -5.0130  -13.2707   17.3742 C   0  0  0  0  0  0  0  0  0  0  0  0
   -0.8070  -18.5579   13.8733 H   0  0  0  0  0  0  0  0  0  0  0  0
   -2.4369  -13.7446   20.3793 H   0  0  0  0  0  0  0  0  0  0  0  0
   -6.9279  -13.8868   20.0028 H   0  0  0  0  0  0  0  0  0  0  0  0
   -8.7334  -13.5546   19.0161 H   0  0  0  0  0  0  0  0  0  0  0  0
   -9.4114  -12.4247   18.0516 H   0  0  0  0  0  0  0  0  0  0  0  0
   -9.4759  -14.0015   17.6320 H   0  0  0  0  0  0  0  0  0  0  0  0
    1.9717  -13.2744   17.3408 H   0  0  0  0  0  0  0  0  0  0  0  0
    1.5639  -12.5371   18.7397 H   0  0  0  0  0  0  0  0  0  0  0  0
    1.9990  -14.1110   18.7430 H   0  0  0  0  0  0  0  0  0  0  0  0
   -6.1902  -12.4055   14.3167 H   0  0  0  0  0  0  0  0  0  0  0  0
    1.4965  -18.1041   16.6320 H   0  0  0  0  0  0  0  0  0  0  0  0
   -1.6614  -16.3709   14.4386 H   0  0  0  0  0  0  0  0  0  0  0  0
   -8.3585  -12.6262   15.4661 H   0  0  0  0  0  0  0  0  0  0  0  0
    1.5881  -16.1230   18.0709 H   0  0  0  0  0  0  0  0  0  0  0  0
   -1.5752  -14.4118   15.8547 H   0  0  0  0  0  0  0  0  0  0  0  0
   -0.4048  -13.0551   17.5359 H   0  0  0  0  0  0  0  0  0  0  0  0
  1 18  1  0  0  0  0
  2 16  2  0  0  0  0
  3 17  2  0  0  0  0
  4 19  1  0  0  0  0
  5  6  1  0  0  0  0
  5 16  1  0  0  0  0
  6 20  2  0  0  0  0
  7 17  1  0  0  0  0
  7 21  1  0  0  0  0
  8 22  1  0  0  0  0
  9 23  1  0  0  0  0
 10 13  2  0  0  0  0
 10 18  1  0  0  0  0
 11 14  1  0  0  0  0
 11 19  2  0  0  0  0
 12 15  2  0  0  0  0
 12 19  1  0  0  0  0
 13 22  1  0  0  0  0
 14 24  2  0  0  0  0
 15 24  1  0  0  0  0
 16 23  1  0  0  0  0
 17 20  1  0  0  0  0
 18 25  2  0  0  0  0
 20 25  1  0  0  0  0
 21 22  2  0  0  0  0
 21 25  1  0  0  0  0
 23 24  1  0  0  0  0
  4 26  1  0  0  0  0
  5 27  1  0  0  0  0
  7 28  1  0  0  0  0
  8 29  1  0  0  0  0
  8 30  1  0  0  0  0
  8 31  1  0  0  0  0
  9 32  1  0  0  0  0
  9 33  1  0  0  0  0
  9 34  1  0  0  0  0
 10 35  1  0  0  0  0
 11 36  1  0  0  0  0
 12 37  1  0  0  0  0
 13 38  1  0  0  0  0
 14 39  1  0  0  0  0
 15 40  1  0  0  0  0
 23 41  1  0  0  0  0
M  END
> <pdb_id>
3ZZE

> <uniprot_id>
P08581

> <usmiles>
Clc1c2c(NC(=O)C2=NNC(=O)[C@H](c3ccc(O)cc3)C)c(cc1)C

$$$$
6YH_B_305
          07192416293D 1   1.00000     0.00000     0
            
 35 37  0  0  0  0            999 V2000
   -5.9398    0.9095   16.9388 S   0  0  0  0  0  0  0  0  0  0  0  0
   -5.3507    1.1016   18.2533 O   0  0  0  0  0  0  0  0  0  0  0  0
   -7.3687    0.9825   16.8394 O   0  0  0  0  0  0  0  0  0  0  0  0
   -4.4064    6.4140   13.3540 O   0  0  0  0  0  0  0  0  0  0  0  0
   -5.4220   -0.4483   16.2840 N   0  0  0  0  0  0  0  0  0  0  0  0
   -1.4481    8.2786   11.2206 N   0  0  0  0  0  0  0  0  0  0  0  0
   -1.8719    6.6749   12.7085 N   0  0  0  0  0  0  0  0  0  0  0  0
   -1.8462    6.9578   11.3996 C   0  0  0  0  0  0  0  0  0  0  0  0
   -0.9190   10.4099   14.1871 C   0  0  0  0  0  0  0  0  0  0  0  0
   -1.1598    9.3702   15.1253 C   0  0  0  0  0  0  0  0  0  0  0  0
   -2.2120    5.4538   13.4592 C   0  0  0  0  0  0  0  0  0  0  0  0
   -0.9792   10.1428   12.8350 C   0  0  0  0  0  0  0  0  0  0  0  0
   -1.5058    8.1185   14.7141 C   0  0  0  0  0  0  0  0  0  0  0  0
   -3.9295    2.2432   15.6379 C   0  0  0  0  0  0  0  0  0  0  0  0
   -6.1008    3.3058   15.6234 C   0  0  0  0  0  0  0  0  0  0  0  0
   -3.4067    3.2730   14.8488 C   0  0  0  0  0  0  0  0  0  0  0  0
   -5.5599    4.3715   14.8382 C   0  0  0  0  0  0  0  0  0  0  0  0
   -5.3436    2.2236   15.9788 C   0  0  0  0  0  0  0  0  0  0  0  0
   -3.6700    5.4367   13.6561 C   0  0  0  0  0  0  0  0  0  0  0  0
   -1.3584    8.8173   12.4650 C   0  0  0  0  0  0  0  0  0  0  0  0
   -1.5891    7.8085   13.3921 C   0  0  0  0  0  0  0  0  0  0  0  0
   -4.2180    4.3161   14.4595 C   0  0  0  0  0  0  0  0  0  0  0  0
   -5.8375   -0.5630   15.3817 H   0  0  0  0  0  0  0  0  0  0  0  0
   -4.4269   -0.4153   16.1910 H   0  0  0  0  0  0  0  0  0  0  0  0
   -2.0773    6.3192   10.6656 H   0  0  0  0  0  0  0  0  0  0  0  0
   -0.7062   11.3334   14.5064 H   0  0  0  0  0  0  0  0  0  0  0  0
   -1.0739    9.5605   16.1033 H   0  0  0  0  0  0  0  0  0  0  0  0
   -1.7493    5.4597   14.3457 H   0  0  0  0  0  0  0  0  0  0  0  0
   -1.9294    4.6464   12.9412 H   0  0  0  0  0  0  0  0  0  0  0  0
   -0.7685   10.8407   12.1504 H   0  0  0  0  0  0  0  0  0  0  0  0
   -1.7021    7.4144   15.3966 H   0  0  0  0  0  0  0  0  0  0  0  0
   -3.3279    1.5166   15.9696 H   0  0  0  0  0  0  0  0  0  0  0  0
   -7.0548    3.3528   15.9195 H   0  0  0  0  0  0  0  0  0  0  0  0
   -2.4471    3.2520   14.5681 H   0  0  0  0  0  0  0  0  0  0  0  0
   -6.1338    5.1435   14.5650 H   0  0  0  0  0  0  0  0  0  0  0  0
  1  2  2  0  0  0  0
  1  3  2  0  0  0  0
  1  5  1  0  0  0  0
  1 18  1  0  0  0  0
  4 19  2  0  0  0  0
  6  8  2  0  0  0  0
  6 20  1  0  0  0  0
  7  8  1  0  0  0  0
  7 11  1  0  0  0  0
  7 21  1  0  0  0  0
  9 10  2  0  0  0  0
  9 12  1  0  0  0  0
 10 13  1  0  0  0  0
 11 19  1  0  0  0  0
 12 20  2  0  0  0  0
 13 21  2  0  0  0  0
 14 16  1  0  0  0  0
 14 18  2  0  0  0  0
 15 17  2  0  0  0  0
 15 18  1  0  0  0  0
 16 22  2  0  0  0  0
 17 22  1  0  0  0  0
 19 22  1  0  0  0  0
 20 21  1  0  0  0  0
  5 23  1  0  0  0  0
  5 24  1  0  0  0  0
  8 25  1  0  0  0  0
  9 26  1  0  0  0  0
 10 27  1  0  0  0  0
 11 28  1  0  0  0  0
 11 29  1  0  0  0  0
 12 30  1  0  0  0  0
 13 31  1  0  0  0  0
 14 32  1  0  0  0  0
 15 33  1  0  0  0  0
 16 34  1  0  0  0  0
 17 35  1  0  0  0  0
M  END
> <pdb_id>
5LL4

> <uniprot_id>
P00918

> <usmiles>
S(=O)(=O)(N)c1ccc(cc1)C(=O)CN2c3c(N=C2)cccc3

$$$$
6YP_A_306
          07192416293D 1   1.00000     0.00000     0
            
 29 29  0  0  0  0            999 V2000
   -5.8697    0.9659   16.8218 S   0  0  0  0  0  0  0  0  0  0  0  0
   -5.3172    1.1388   18.1405 O   0  0  0  0  0  0  0  0  0  0  0  0
   -7.3018    1.0756   16.7300 O   0  0  0  0  0  0  0  0  0  0  0  0
   -5.3632   -0.3536   16.1863 N   0  0  0  0  0  0  0  0  0  0  0  0
   -1.4831    8.6326   14.4844 C   0  0  0  0  0  0  0  0  0  0  0  0
   -2.2362    7.7052   13.5840 C   0  0  0  0  0  0  0  0  0  0  0  0
   -2.8495    6.5567   14.3562 C   0  0  0  0  0  0  0  0  0  0  0  0
   -3.5983    5.5232   13.4913 C   0  0  0  0  0  0  0  0  0  0  0  0
   -6.0368    3.3229   15.4146 C   0  0  0  0  0  0  0  0  0  0  0  0
   -3.8699    2.2881   15.4834 C   0  0  0  0  0  0  0  0  0  0  0  0
   -5.5081    4.3560   14.6587 C   0  0  0  0  0  0  0  0  0  0  0  0
   -3.3622    3.3291   14.7214 C   0  0  0  0  0  0  0  0  0  0  0  0
   -5.2132    2.2804   15.8294 C   0  0  0  0  0  0  0  0  0  0  0  0
   -4.1678    4.3797   14.3026 C   0  0  0  0  0  0  0  0  0  0  0  0
   -5.7567   -0.4562   15.2728 H   0  0  0  0  0  0  0  0  0  0  0  0
   -4.3657   -0.3297   16.1189 H   0  0  0  0  0  0  0  0  0  0  0  0
   -1.0920    9.3775   13.9440 H   0  0  0  0  0  0  0  0  0  0  0  0
   -2.1055    9.0096   15.1704 H   0  0  0  0  0  0  0  0  0  0  0  0
   -0.7485    8.1306   14.9409 H   0  0  0  0  0  0  0  0  0  0  0  0
   -1.6082    7.3369   12.8985 H   0  0  0  0  0  0  0  0  0  0  0  0
   -2.9651    8.2159   13.1280 H   0  0  0  0  0  0  0  0  0  0  0  0
   -3.4967    6.9366   15.0171 H   0  0  0  0  0  0  0  0  0  0  0  0
   -2.1161    6.0821   14.8428 H   0  0  0  0  0  0  0  0  0  0  0  0
   -2.9613    5.1499   12.8168 H   0  0  0  0  0  0  0  0  0  0  0  0
   -4.3495    5.9855   13.0201 H   0  0  0  0  0  0  0  0  0  0  0  0
   -7.0059    3.3259   15.6612 H   0  0  0  0  0  0  0  0  0  0  0  0
   -3.2702    1.5458   15.7822 H   0  0  0  0  0  0  0  0  0  0  0  0
   -6.1058    5.1012   14.3631 H   0  0  0  0  0  0  0  0  0  0  0  0
   -2.3949    3.3233   14.4679 H   0  0  0  0  0  0  0  0  0  0  0  0
  1  2  2  0  0  0  0
  1  3  2  0  0  0  0
  1  4  1  0  0  0  0
  1 13  1  0  0  0  0
  5  6  1  0  0  0  0
  6  7  1  0  0  0  0
  7  8  1  0  0  0  0
  8 14  1  0  0  0  0
  9 11  2  0  0  0  0
  9 13  1  0  0  0  0
 10 12  1  0  0  0  0
 10 13  2  0  0  0  0
 11 14  1  0  0  0  0
 12 14  2  0  0  0  0
  4 15  1  0  0  0  0
  4 16  1  0  0  0  0
  5 17  1  0  0  0  0
  5 18  1  0  0  0  0
  5 19  1  0  0  0  0
  6 20  1  0  0  0  0
  6 21  1  0  0  0  0
  7 22  1  0  0  0  0
  7 23  1  0  0  0  0
  8 24  1  0  0  0  0
  8 25  1  0  0  0  0
  9 26  1  0  0  0  0
 10 27  1  0  0  0  0
 11 28  1  0  0  0  0
 12 29  1  0  0  0  0
M  END
> <pdb_id>
5LL8

> <uniprot_id>
P00918

> <usmiles>
S(=O)(=O)(N)c1ccc(cc1)CCCC

$$$$
6YQ_D_302
          07192419453D 1   1.00000     0.00000     0
            
 35 37  0  0  0  0            999 V2000
    4.6793    9.0399  -33.8425 Cl  0  0  0  0  0  0  0  0  0  0  0  0
    6.5891    7.7157  -36.1370 S   0  0  0  0  0  0  0  0  0  0  0  0
    7.4227    7.7611  -34.9545 O   0  0  0  0  0  0  0  0  0  0  0  0
    5.4202    6.7843  -36.1208 O   0  0  0  0  0  0  0  0  0  0  0  0
    3.2287   13.5567  -35.5972 O   0  0  0  0  0  0  0  0  0  0  0  0
    7.4829    7.3920  -37.4743 N   0  0  0  0  0  0  0  0  0  0  0  0
    2.0547   17.0455  -37.1029 N   0  0  0  0  0  0  0  0  0  0  0  0
    3.5945   15.3958  -37.4343 N   0  0  0  0  0  0  0  0  0  0  0  0
    2.2607   15.7488  -37.5037 C   0  0  0  0  0  0  0  0  0  0  0  0
    4.1425   14.0424  -37.7731 C   0  0  0  0  0  0  0  0  0  0  0  0
    5.0239   19.0331  -36.0526 C   0  0  0  0  0  0  0  0  0  0  0  0
    5.9836   17.9881  -36.1985 C   0  0  0  0  0  0  0  0  0  0  0  0
    6.0444   10.1445  -37.4961 C   0  0  0  0  0  0  0  0  0  0  0  0
    3.6800   18.7488  -36.3460 C   0  0  0  0  0  0  0  0  0  0  0  0
    5.5755   16.6823  -36.6152 C   0  0  0  0  0  0  0  0  0  0  0  0
    5.3774   11.3950  -37.6115 C   0  0  0  0  0  0  0  0  0  0  0  0
    4.3386   11.0570  -35.5071 C   0  0  0  0  0  0  0  0  0  0  0  0
    4.9339    9.8761  -35.3241 C   0  0  0  0  0  0  0  0  0  0  0  0
    5.8292    9.3692  -36.3353 C   0  0  0  0  0  0  0  0  0  0  0  0
    3.8622   13.1842  -36.6169 C   0  0  0  0  0  0  0  0  0  0  0  0
    3.3049   17.4881  -36.7698 C   0  0  0  0  0  0  0  0  0  0  0  0
    4.2346   16.4858  -36.9437 C   0  0  0  0  0  0  0  0  0  0  0  0
    4.5490   11.8495  -36.5845 C   0  0  0  0  0  0  0  0  0  0  0  0
    6.8858    7.3659  -38.2761 H   0  0  0  0  0  0  0  0  0  0  0  0
    8.1725    8.1060  -37.5953 H   0  0  0  0  0  0  0  0  0  0  0  0
    1.5333   15.1341  -37.8090 H   0  0  0  0  0  0  0  0  0  0  0  0
    5.1281   14.0978  -37.9324 H   0  0  0  0  0  0  0  0  0  0  0  0
    3.6926   13.6811  -38.5898 H   0  0  0  0  0  0  0  0  0  0  0  0
    5.3007   19.9449  -35.7492 H   0  0  0  0  0  0  0  0  0  0  0  0
    6.9483   18.1698  -36.0081 H   0  0  0  0  0  0  0  0  0  0  0  0
    6.6526    9.8211  -38.2211 H   0  0  0  0  0  0  0  0  0  0  0  0
    2.9888   19.4647  -36.2473 H   0  0  0  0  0  0  0  0  0  0  0  0
    6.2333   15.9312  -36.6695 H   0  0  0  0  0  0  0  0  0  0  0  0
    5.5025   11.9516  -38.4327 H   0  0  0  0  0  0  0  0  0  0  0  0
    3.6994   11.3751  -34.8069 H   0  0  0  0  0  0  0  0  0  0  0  0
  1 18  1  0  0  0  0
  2  3  2  0  0  0  0
  2  4  2  0  0  0  0
  2  6  1  0  0  0  0
  2 19  1  0  0  0  0
  5 20  2  0  0  0  0
  7  9  2  0  0  0  0
  7 21  1  0  0  0  0
  8  9  1  0  0  0  0
  8 10  1  0  0  0  0
  8 22  1  0  0  0  0
 10 20  1  0  0  0  0
 11 12  2  0  0  0  0
 11 14  1  0  0  0  0
 12 15  1  0  0  0  0
 13 16  1  0  0  0  0
 13 19  2  0  0  0  0
 14 21  2  0  0  0  0
 15 22  2  0  0  0  0
 16 23  2  0  0  0  0
 17 18  2  0  0  0  0
 17 23  1  0  0  0  0
 18 19  1  0  0  0  0
 20 23  1  0  0  0  0
 21 22  1  0  0  0  0
  6 24  1  0  0  0  0
  6 25  1  0  0  0  0
  9 26  1  0  0  0  0
 10 27  1  0  0  0  0
 10 28  1  0  0  0  0
 11 29  1  0  0  0  0
 12 30  1  0  0  0  0
 13 31  1  0  0  0  0
 14 32  1  0  0  0  0
 15 33  1  0  0  0  0
 16 34  1  0  0  0  0
 17 35  1  0  0  0  0
M  END
> <pdb_id>
5LL9

> <uniprot_id>
O43570

> <usmiles>
Clc1c(S(=O)(=O)N)ccc(c1)C(=O)CN2c3c(N=C2)cccc3

$$$$
6Z0_A_1448
          07202405583D 1   1.00000     0.00000     0
            
 42 44  0  0  0  0            999 V2000
   69.9716   50.2838   10.6025 F   0  0  0  0  0  0  0  0  0  0  0  0
   66.0669   48.6322   10.4276 F   0  0  0  0  0  0  0  0  0  0  0  0
   68.2256   48.2634   11.0098 F   0  0  0  0  0  0  0  0  0  0  0  0
   73.3332   47.2225    5.9823 O   0  0  0  0  0  0  0  0  0  0  0  0
   66.3606   47.1393    8.1040 O   0  0  0  0  0  0  0  0  0  0  0  0
   71.4665   44.1051   -0.5589 N   0  0  0  0  0  0  0  0  0  0  0  0
   65.5644   48.2378    6.3383 N   0  0  0  0  0  0  0  0  0  0  0  0
   71.1118   46.8233    3.3253 N   0  0  0  0  0  0  0  0  0  0  0  0
   71.1493   47.8664    5.8140 N   0  0  0  0  0  0  0  0  0  0  0  0
   66.9917   49.3782    7.7597 N   0  0  0  0  0  0  0  0  0  0  0  0
   67.5616   50.8837    9.5010 C   0  0  0  0  0  0  0  0  0  0  0  0
   67.2815   47.0233    9.2120 C   0  0  0  0  0  0  0  0  0  0  0  0
   71.6512   44.5993    0.4605 C   0  0  0  0  0  0  0  0  0  0  0  0
   70.9247   46.1745    2.1996 C   0  0  0  0  0  0  0  0  0  0  0  0
   71.6084   49.5472    9.0855 C   0  0  0  0  0  0  0  0  0  0  0  0
   71.9398   48.9521    7.8895 C   0  0  0  0  0  0  0  0  0  0  0  0
   73.1273   45.6348    3.6884 C   0  0  0  0  0  0  0  0  0  0  0  0
   72.9838   44.9762    2.4888 C   0  0  0  0  0  0  0  0  0  0  0  0
   69.6016   48.6953    7.4197 C   0  0  0  0  0  0  0  0  0  0  0  0
   66.3538   48.2877    7.4505 C   0  0  0  0  0  0  0  0  0  0  0  0
   72.2769   47.2595    5.3696 C   0  0  0  0  0  0  0  0  0  0  0  0
   70.2933   49.7096    9.4398 C   0  0  0  0  0  0  0  0  0  0  0  0
   70.9235   48.5269    7.0247 C   0  0  0  0  0  0  0  0  0  0  0  0
   72.1775   46.5796    4.0744 C   0  0  0  0  0  0  0  0  0  0  0  0
   71.8383   45.2366    1.7296 C   0  0  0  0  0  0  0  0  0  0  0  0
   69.2678   49.2936    8.5866 C   0  0  0  0  0  0  0  0  0  0  0  0
   67.3424   48.3581    9.9231 C   0  0  0  0  0  0  0  0  0  0  0  0
   67.8282   49.4724    8.9618 C   0  0  2  0  0  0  0  0  0  0  0  0
   65.4725   49.0440    5.7538 H   0  0  0  0  0  0  0  0  0  0  0  0
   65.0778   47.3951    6.1080 H   0  0  0  0  0  0  0  0  0  0  0  0
   70.3700   47.8375    5.1880 H   0  0  0  0  0  0  0  0  0  0  0  0
   68.1003   51.0309   10.3306 H   0  0  0  0  0  0  0  0  0  0  0  0
   67.8214   51.5589    8.8107 H   0  0  0  0  0  0  0  0  0  0  0  0
   66.5893   50.9813    9.7133 H   0  0  0  0  0  0  0  0  0  0  0  0
   68.1899   46.7796    8.8723 H   0  0  0  0  0  0  0  0  0  0  0  0
   66.9618   46.3177    9.8445 H   0  0  0  0  0  0  0  0  0  0  0  0
   70.1008   46.3599    1.6639 H   0  0  0  0  0  0  0  0  0  0  0  0
   72.3311   49.8631    9.7002 H   0  0  0  0  0  0  0  0  0  0  0  0
   72.8996   48.8243    7.6397 H   0  0  0  0  0  0  0  0  0  0  0  0
   73.9087   45.4368    4.2802 H   0  0  0  0  0  0  0  0  0  0  0  0
   73.6776   44.3308    2.1693 H   0  0  0  0  0  0  0  0  0  0  0  0
   68.8725   48.3631    6.8213 H   0  0  0  0  0  0  0  0  0  0  0  0
  1 22  1  0  0  0  0
  2 27  1  0  0  0  0
  3 27  1  0  0  0  0
  4 21  2  0  0  0  0
  5 12  1  0  0  0  0
  5 20  1  0  0  0  0
  6 13  3  0  0  0  0
  7 20  1  0  0  0  0
  8 14  1  0  0  0  0
  8 24  2  0  0  0  0
  9 21  1  0  0  0  0
  9 23  1  0  0  0  0
 10 20  2  0  0  0  0
 10 28  1  0  0  0  0
 11 28  1  0  0  0  0
 12 27  1  0  0  0  0
 13 25  1  0  0  0  0
 14 25  2  0  0  0  0
 15 16  1  0  0  0  0
 15 22  2  0  0  0  0
 16 23  2  0  0  0  0
 17 18  2  0  0  0  0
 17 24  1  0  0  0  0
 18 25  1  0  0  0  0
 19 23  1  0  0  0  0
 19 26  2  0  0  0  0
 21 24  1  0  0  0  0
 22 26  1  0  0  0  0
 26 28  1  0  0  0  0
 27 28  1  0  0  0  0
  7 29  1  0  0  0  0
  7 30  1  0  0  0  0
  9 31  1  0  0  0  0
 11 32  1  0  0  0  0
 11 33  1  0  0  0  0
 11 34  1  0  0  0  0
 12 35  1  0  0  0  0
 12 36  1  0  0  0  0
 14 37  1  0  0  0  0
 15 38  1  0  0  0  0
 16 39  1  0  0  0  0
 17 40  1  0  0  0  0
 18 41  1  0  0  0  0
 19 42  1  0  0  0  0
M  END
> <pdb_id>
3ZMG

> <uniprot_id>
P56817

> <usmiles>
Fc1c(cc(NC(=O)c2ncc(C#N)cc2)cc1)[C@]3(N=C(OCC3(F)F)N)C

$$$$
6Z9_D_302
          07192419453D 1   1.00000     0.00000     0
            
 49 51  0  0  0  0            999 V2000
    6.6560    7.8050  -36.4250 S   0  0  0  0  0  0  0  0  0  0  0  0
    5.6430   12.4170  -40.9240 S   0  0  0  0  0  0  0  0  0  0  0  0
    7.7550    8.2240  -39.4940 F   0  0  0  0  0  0  0  0  0  0  0  0
    7.1430   10.1500  -41.1560 F   0  0  0  0  0  0  0  0  0  0  0  0
    4.7620   10.0620  -36.2830 F   0  0  0  0  0  0  0  0  0  0  0  0
    5.3730    7.2080  -36.0950 O   0  0  0  0  0  0  0  0  0  0  0  0
    7.4290    8.3650  -35.3010 O   0  0  0  0  0  0  0  0  0  0  0  0
    5.1070   11.7640  -42.1670 O   0  0  0  0  0  0  0  0  0  0  0  0
    4.4990   13.4320  -40.5380 O   0  0  0  0  0  0  0  0  0  0  0  0
    8.2090   15.5610  -40.0470 O   0  0  0  0  0  0  0  0  0  0  0  0
    7.6270    6.8230  -37.1930 N   0  0  0  0  0  0  0  0  0  0  0  0
    4.0490   12.0790  -37.9580 N   0  0  0  0  0  0  0  0  0  0  0  0
    7.0870   13.5370  -41.2470 C   0  0  0  0  0  0  0  0  0  0  0  0
    7.2300   14.5060  -40.0480 C   0  0  0  0  0  0  0  0  0  0  0  0
    0.2970   15.0930  -37.0030 C   0  0  0  0  0  0  0  0  0  0  0  0
    0.2540   13.6870  -37.1720 C   0  0  0  0  0  0  0  0  0  0  0  0
    5.2120   15.0380  -36.9600 C   0  0  0  0  0  0  0  0  0  0  0  0
    5.1650   13.5730  -36.5410 C   0  0  0  0  0  0  0  0  0  0  0  0
    1.5110   15.7490  -36.7390 C   0  0  0  0  0  0  0  0  0  0  0  0
    3.9940   15.7500  -36.3810 C   0  0  0  0  0  0  0  0  0  0  0  0
    1.4350   12.9300  -37.0670 C   0  0  0  0  0  0  0  0  0  0  0  0
    6.3240    9.0690  -37.7710 C   0  0  0  0  0  0  0  0  0  0  0  0
    5.6480   11.1590  -39.6030 C   0  0  0  0  0  0  0  0  0  0  0  0
    6.8560    9.1610  -39.0360 C   0  0  0  0  0  0  0  0  0  0  0  0
    6.5490   10.1780  -39.9180 C   0  0  0  0  0  0  0  0  0  0  0  0
    5.4180   10.0970  -37.5100 C   0  0  0  0  0  0  0  0  0  0  0  0
    3.8830   12.8090  -36.7070 C   0  0  1  0  0  0  0  0  0  0  0  0
    2.6910   15.0170  -36.6320 C   0  0  0  0  0  0  0  0  0  0  0  0
    5.0460   11.1100  -38.3530 C   0  0  0  0  0  0  0  0  0  0  0  0
    2.6270   13.6030  -36.7980 C   0  0  0  0  0  0  0  0  0  0  0  0
    8.1452   16.0741  -39.1911 H   0  0  0  0  0  0  0  0  0  0  0  0
    8.4880    7.2919  -37.3898 H   0  0  0  0  0  0  0  0  0  0  0  0
    7.8070    6.0201  -36.6247 H   0  0  0  0  0  0  0  0  0  0  0  0
    3.3618   12.2815  -38.6557 H   0  0  0  0  0  0  0  0  0  0  0  0
    6.9294   14.0582  -42.0858 H   0  0  0  0  0  0  0  0  0  0  0  0
    7.9210   12.9938  -41.3438 H   0  0  0  0  0  0  0  0  0  0  0  0
    6.3398   14.9470  -39.9338 H   0  0  0  0  0  0  0  0  0  0  0  0
    7.4259   13.9385  -39.2483 H   0  0  0  0  0  0  0  0  0  0  0  0
   -0.5470   15.6249  -37.0725 H   0  0  0  0  0  0  0  0  0  0  0  0
   -0.6156   13.2329  -37.3659 H   0  0  0  0  0  0  0  0  0  0  0  0
    5.1976   15.1035  -37.9577 H   0  0  0  0  0  0  0  0  0  0  0  0
    6.0476   15.4616  -36.6102 H   0  0  0  0  0  0  0  0  0  0  0  0
    5.4034   13.5380  -35.5705 H   0  0  0  0  0  0  0  0  0  0  0  0
    5.8628   13.0935  -37.0731 H   0  0  0  0  0  0  0  0  0  0  0  0
    1.5279   16.7427  -36.6278 H   0  0  0  0  0  0  0  0  0  0  0  0
    3.9314   16.6581  -36.7950 H   0  0  0  0  0  0  0  0  0  0  0  0
    4.1206   15.8419  -35.3933 H   0  0  0  0  0  0  0  0  0  0  0  0
    1.4205   11.9367  -37.1820 H   0  0  0  0  0  0  0  0  0  0  0  0
    3.7977   12.1524  -35.9576 H   0  0  0  0  0  0  0  0  0  0  0  0
  1  6  2  0  0  0  0
  1  7  2  0  0  0  0
  1 11  1  0  0  0  0
  1 22  1  0  0  0  0
  2  8  2  0  0  0  0
  2  9  2  0  0  0  0
  2 13  1  0  0  0  0
  2 23  1  0  0  0  0
  3 24  1  0  0  0  0
  4 25  1  0  0  0  0
  5 26  1  0  0  0  0
 10 14  1  0  0  0  0
 12 27  1  0  0  0  0
 12 29  1  0  0  0  0
 13 14  1  0  0  0  0
 15 16  2  0  0  0  0
 15 19  1  0  0  0  0
 16 21  1  0  0  0  0
 17 18  1  0  0  0  0
 17 20  1  0  0  0  0
 18 27  1  0  0  0  0
 19 28  2  0  0  0  0
 20 28  1  0  0  0  0
 21 30  2  0  0  0  0
 22 24  2  0  0  0  0
 22 26  1  0  0  0  0
 23 25  2  0  0  0  0
 23 29  1  0  0  0  0
 24 25  1  0  0  0  0
 26 29  2  0  0  0  0
 27 30  1  0  0  0  0
 28 30  1  0  0  0  0
 10 31  1  0  0  0  0
 11 32  1  0  0  0  0
 11 33  1  0  0  0  0
 12 34  1  0  0  0  0
 13 35  1  0  0  0  0
 13 36  1  0  0  0  0
 14 37  1  0  0  0  0
 14 38  1  0  0  0  0
 15 39  1  0  0  0  0
 16 40  1  0  0  0  0
 17 41  1  0  0  0  0
 17 42  1  0  0  0  0
 18 43  1  0  0  0  0
 18 44  1  0  0  0  0
 19 45  1  0  0  0  0
 20 46  1  0  0  0  0
 20 47  1  0  0  0  0
 21 48  1  0  0  0  0
 27 49  1  0  0  0  0
M  END
> <pdb_id>
5LLP

> <uniprot_id>
O43570

> <usmiles>
S(=O)(=O)(N)c1c(F)c(F)c(S(=O)(=O)CCO)c(N[C@@H]2c3c(cccc3)CCC2)c1F

$$$$
6ZM_A_911
          07192420443D 1   1.00000     0.00000     0
            
 43 46  0  0  0  0            999 V2000
   15.6003  -22.2591   56.1927 O   0  0  0  0  0  0  0  0  0  0  0  0
    9.0331  -21.9910   54.8411 N   0  0  0  0  0  0  0  0  0  0  0  0
    8.3675  -22.7468   52.7613 N   0  0  0  0  0  0  0  0  0  0  0  0
   10.6552  -22.0394   53.1089 N   0  0  0  0  0  0  0  0  0  0  0  0
   13.6307  -21.0412   55.7894 N   0  0  0  0  0  0  0  0  0  0  0  0
   13.9591  -22.2971   57.8677 C   0  0  0  0  0  0  0  0  0  0  0  0
    9.9746  -21.5119   55.6570 C   0  0  0  0  0  0  0  0  0  0  0  0
   13.9263  -20.6794   54.4156 C   0  0  0  0  0  0  0  0  0  0  0  0
   12.2811  -20.7516   56.2347 C   0  0  0  0  0  0  0  0  0  0  0  0
    7.4296  -24.4202   47.1701 C   0  0  0  0  0  0  0  0  0  0  0  0
    7.9027  -23.1578   46.8609 C   0  0  0  0  0  0  0  0  0  0  0  0
   12.9725  -21.3410   53.4249 C   0  0  0  0  0  0  0  0  0  0  0  0
    7.3484  -24.8707   48.4761 C   0  0  0  0  0  0  0  0  0  0  0  0
    8.2855  -22.3020   47.8740 C   0  0  0  0  0  0  0  0  0  0  0  0
    7.7997  -24.2864   50.9373 C   0  0  0  0  0  0  0  0  0  0  0  0
    8.6262  -22.0051   50.3946 C   0  0  0  0  0  0  0  0  0  0  0  0
    9.4111  -22.2520   53.5783 C   0  0  0  0  0  0  0  0  0  0  0  0
   14.4878  -21.8672   56.5315 C   0  0  0  0  0  0  0  0  0  0  0  0
    8.7208  -23.1524   51.4082 C   0  0  0  0  0  0  0  0  0  0  0  0
   11.5837  -21.5658   53.9581 C   0  0  0  0  0  0  0  0  0  0  0  0
   11.2741  -21.2890   55.2734 C   0  0  0  0  0  0  0  0  0  0  0  0
    7.7645  -24.0109   49.4731 C   0  0  0  0  0  0  0  0  0  0  0  0
    8.2088  -22.7476   49.1787 C   0  0  0  0  0  0  0  0  0  0  0  0
    7.4284  -22.8150   53.0982 H   0  0  0  0  0  0  0  0  0  0  0  0
   13.0498  -21.9052   58.0081 H   0  0  0  0  0  0  0  0  0  0  0  0
   13.9003  -23.2949   57.8976 H   0  0  0  0  0  0  0  0  0  0  0  0
   14.5746  -21.9777   58.5881 H   0  0  0  0  0  0  0  0  0  0  0  0
    9.7191  -21.3033   56.6010 H   0  0  0  0  0  0  0  0  0  0  0  0
   14.8607  -20.9645   54.2018 H   0  0  0  0  0  0  0  0  0  0  0  0
   13.8507  -19.6868   54.3210 H   0  0  0  0  0  0  0  0  0  0  0  0
   12.1666  -19.7609   56.3085 H   0  0  0  0  0  0  0  0  0  0  0  0
   12.1350  -21.1717   57.1303 H   0  0  0  0  0  0  0  0  0  0  0  0
    7.1379  -25.0247   46.4287 H   0  0  0  0  0  0  0  0  0  0  0  0
    7.9671  -22.8660   45.9066 H   0  0  0  0  0  0  0  0  0  0  0  0
   13.3557  -22.2275   53.1656 H   0  0  0  0  0  0  0  0  0  0  0  0
   12.9066  -20.7569   52.6159 H   0  0  0  0  0  0  0  0  0  0  0  0
    7.0016  -25.7841   48.6895 H   0  0  0  0  0  0  0  0  0  0  0  0
    8.6114  -21.3794   47.6675 H   0  0  0  0  0  0  0  0  0  0  0  0
    6.8905  -24.2192   51.3482 H   0  0  0  0  0  0  0  0  0  0  0  0
    8.1893  -25.1858   51.1352 H   0  0  0  0  0  0  0  0  0  0  0  0
    9.5089  -21.5531   50.2658 H   0  0  0  0  0  0  0  0  0  0  0  0
    7.9418  -21.3285   50.6664 H   0  0  0  0  0  0  0  0  0  0  0  0
    9.6616  -23.4914   51.4152 H   0  0  0  0  0  0  0  0  0  0  0  0
  1 18  2  0  0  0  0
  2  7  2  0  0  0  0
  2 17  1  0  0  0  0
  3 17  1  0  0  0  0
  3 19  1  0  0  0  0
  4 17  2  0  0  0  0
  4 20  1  0  0  0  0
  5  8  1  0  0  0  0
  5  9  1  0  0  0  0
  5 18  1  0  0  0  0
  6 18  1  0  0  0  0
  7 21  1  0  0  0  0
  8 12  1  0  0  0  0
  9 21  1  0  0  0  0
 10 11  2  0  0  0  0
 10 13  1  0  0  0  0
 11 14  1  0  0  0  0
 12 20  1  0  0  0  0
 13 22  2  0  0  0  0
 14 23  2  0  0  0  0
 15 19  1  0  0  0  0
 15 22  1  0  0  0  0
 16 19  1  0  0  0  0
 16 23  1  0  0  0  0
 20 21  2  0  0  0  0
 22 23  1  0  0  0  0
  3 24  1  0  0  0  0
  6 25  1  0  0  0  0
  6 26  1  0  0  0  0
  6 27  1  0  0  0  0
  7 28  1  0  0  0  0
  8 29  1  0  0  0  0
  8 30  1  0  0  0  0
  9 31  1  0  0  0  0
  9 32  1  0  0  0  0
 10 33  1  0  0  0  0
 11 34  1  0  0  0  0
 12 35  1  0  0  0  0
 12 36  1  0  0  0  0
 13 37  1  0  0  0  0
 14 38  1  0  0  0  0
 15 39  1  0  0  0  0
 15 40  1  0  0  0  0
 16 41  1  0  0  0  0
 16 42  1  0  0  0  0
 19 43  1  0  0  0  0
M  END
> <pdb_id>
5L0B

> <uniprot_id>
Q64610

> <usmiles>
O=C(N1Cc2c(nc(nc2)NC3Cc4c(cccc4)C3)CC1)C

$$$$
6ZX_A_1263
          07192416293D 1   1.00000     0.00000     0
            
 22 22  0  0  0  0            999 V2000
   -0.1148    8.7737   13.0405 Cl  0  0  0  0  0  0  0  0  0  0  0  0
   -5.2379    1.8358   15.1743 O   0  0  0  0  0  0  0  0  0  0  0  0
   -3.5483    1.5886   16.6863 O   0  0  0  0  0  0  0  0  0  0  0  0
   -5.3747    4.8209   14.6535 C   0  0  0  0  0  0  0  0  0  0  0  0
   -2.1811    7.8002   14.3985 C   0  0  0  0  0  0  0  0  0  0  0  0
   -1.0712    6.2594   12.9296 C   0  0  0  0  0  0  0  0  0  0  0  0
   -3.0638    6.8066   14.7755 C   0  0  0  0  0  0  0  0  0  0  0  0
   -1.9599    5.2727   13.3247 C   0  0  0  0  0  0  0  0  0  0  0  0
   -3.3711    3.3635   15.1674 C   0  0  0  0  0  0  0  0  0  0  0  0
   -4.1406    2.1732   15.7210 C   0  0  0  0  0  0  0  0  0  0  0  0
   -1.1962    7.5141   13.4815 C   0  0  0  0  0  0  0  0  0  0  0  0
   -3.9232    4.4986   14.6918 C   0  0  0  0  0  0  0  0  0  0  0  0
   -2.9637    5.5377   14.2397 C   0  0  0  0  0  0  0  0  0  0  0  0
   -5.6070    2.3766   14.4185 H   0  0  0  0  0  0  0  0  0  0  0  0
   -5.5046    5.7269   14.2507 H   0  0  0  0  0  0  0  0  0  0  0  0
   -5.8532    4.1386   14.1007 H   0  0  0  0  0  0  0  0  0  0  0  0
   -5.7424    4.8138   15.5835 H   0  0  0  0  0  0  0  0  0  0  0  0
   -2.2573    8.7180   14.7881 H   0  0  0  0  0  0  0  0  0  0  0  0
   -0.3554    6.0645   12.2590 H   0  0  0  0  0  0  0  0  0  0  0  0
   -3.7814    7.0079   15.4422 H   0  0  0  0  0  0  0  0  0  0  0  0
   -1.8745    4.3528   12.9420 H   0  0  0  0  0  0  0  0  0  0  0  0
   -2.3732    3.2989   15.1552 H   0  0  0  0  0  0  0  0  0  0  0  0
  1 11  1  0  0  0  0
  2 10  1  0  0  0  0
  3 10  2  0  0  0  0
  4 12  1  0  0  0  0
  5  7  2  0  0  0  0
  5 11  1  0  0  0  0
  6  8  1  0  0  0  0
  6 11  2  0  0  0  0
  7 13  1  0  0  0  0
  8 13  2  0  0  0  0
  9 10  1  0  0  0  0
  9 12  2  0  0  0  0
 12 13  1  0  0  0  0
  2 14  1  0  0  0  0
  4 15  1  0  0  0  0
  4 16  1  0  0  0  0
  4 17  1  0  0  0  0
  5 18  1  0  0  0  0
  6 19  1  0  0  0  0
  7 20  1  0  0  0  0
  8 21  1  0  0  0  0
  9 22  1  0  0  0  0
M  END
> <pdb_id>
5FLS

> <uniprot_id>
P00918

> <usmiles>
Clc1ccc(cc1)/C(=C/C(=O)O)/C

$$$$
713_C_302
          07202404433D 1   1.00000     0.00000     0
            
 45 47  0  0  0  0            999 V2000
   -5.4690  -13.5310   38.2540 Cl  0  0  0  0  0  0  0  0  0  0  0  0
   -1.8680  -17.0720   39.0950 F   0  0  0  0  0  0  0  0  0  0  0  0
   -1.4540  -10.6360   39.0730 O   0  0  0  0  0  0  0  0  0  0  0  0
   -3.4770   -8.6220   31.5900 N   0  0  0  0  0  0  0  0  0  0  0  0
   -3.6360  -11.1070   38.7120 N   0  0  0  0  0  0  0  0  0  0  0  0
   -2.5590   -9.0590   32.2950 N   0  0  0  0  0  0  0  0  0  0  0  0
   -4.9380   -9.4150   29.6880 C   0  0  0  0  0  0  0  0  0  0  0  0
   -1.2140  -11.2360   32.4890 C   0  0  0  0  0  0  0  0  0  0  0  0
   -3.7910  -11.8480   39.9820 C   0  0  0  0  0  0  0  0  0  0  0  0
   -1.9620   -8.1980   33.3600 C   0  0  0  0  0  0  0  0  0  0  0  0
   -1.6360  -14.8570   40.1340 C   0  0  0  0  0  0  0  0  0  0  0  0
   -1.0490   -8.7650   35.5010 C   0  0  0  0  0  0  0  0  0  0  0  0
   -3.3230   -9.3890   34.9670 C   0  0  0  0  0  0  0  0  0  0  0  0
   -2.1070  -13.5670   40.3590 C   0  0  0  0  0  0  0  0  0  0  0  0
   -1.1900   -9.3550   36.7510 C   0  0  0  0  0  0  0  0  0  0  0  0
   -3.4600   -9.9840   36.2240 C   0  0  0  0  0  0  0  0  0  0  0  0
   -3.5380  -15.3220   38.7420 C   0  0  0  0  0  0  0  0  0  0  0  0
   -3.0910  -10.6540   30.9020 C   0  0  0  0  0  0  0  0  0  0  0  0
   -4.0090  -14.0330   38.9720 C   0  0  0  0  0  0  0  0  0  0  0  0
   -2.4620  -10.5530   38.3720 C   0  0  0  0  0  0  0  0  0  0  0  0
   -2.3490  -15.7410   39.3280 C   0  0  0  0  0  0  0  0  0  0  0  0
   -3.8330   -9.5660   30.7270 C   0  0  0  0  0  0  0  0  0  0  0  0
   -2.2850  -10.3100   31.8990 C   0  0  0  0  0  0  0  0  0  0  0  0
   -2.1170   -8.7880   34.6080 C   0  0  0  0  0  0  0  0  0  0  0  0
   -3.3010  -13.1500   39.7800 C   0  0  0  0  0  0  0  0  0  0  0  0
   -2.3920   -9.9510   37.1190 C   0  0  0  0  0  0  0  0  0  0  0  0
   -4.4188  -11.0172   38.0963 H   0  0  0  0  0  0  0  0  0  0  0  0
   -5.0161  -10.2601   29.1592 H   0  0  0  0  0  0  0  0  0  0  0  0
   -5.8057   -9.2288   30.1489 H   0  0  0  0  0  0  0  0  0  0  0  0
   -4.7172   -8.6570   29.0743 H   0  0  0  0  0  0  0  0  0  0  0  0
   -1.2262  -12.1108   32.0047 H   0  0  0  0  0  0  0  0  0  0  0  0
   -0.3141  -10.8117   32.3881 H   0  0  0  0  0  0  0  0  0  0  0  0
   -1.4034  -11.3892   33.4589 H   0  0  0  0  0  0  0  0  0  0  0  0
   -4.7565  -11.8837   40.2398 H   0  0  0  0  0  0  0  0  0  0  0  0
   -3.2693  -11.3963   40.7057 H   0  0  0  0  0  0  0  0  0  0  0  0
   -2.4185   -7.3083   33.3579 H   0  0  0  0  0  0  0  0  0  0  0  0
   -0.9874   -8.0731   33.1740 H   0  0  0  0  0  0  0  0  0  0  0  0
   -0.7781  -15.1518   40.5548 H   0  0  0  0  0  0  0  0  0  0  0  0
   -0.1872   -8.3273   35.2447 H   0  0  0  0  0  0  0  0  0  0  0  0
   -4.0897   -9.3942   34.3250 H   0  0  0  0  0  0  0  0  0  0  0  0
   -1.5865  -12.9391   40.9376 H   0  0  0  0  0  0  0  0  0  0  0  0
   -0.4216   -9.3512   37.3910 H   0  0  0  0  0  0  0  0  0  0  0  0
   -4.3178  -10.4301   36.4794 H   0  0  0  0  0  0  0  0  0  0  0  0
   -4.0543  -15.9463   38.1558 H   0  0  0  0  0  0  0  0  0  0  0  0
   -3.1301  -11.5204   30.4042 H   0  0  0  0  0  0  0  0  0  0  0  0
  1 19  1  0  0  0  0
  2 21  1  0  0  0  0
  3 20  2  0  0  0  0
  4  6  1  0  0  0  0
  4 22  2  0  0  0  0
  5  9  1  0  0  0  0
  5 20  1  0  0  0  0
  6 10  1  0  0  0  0
  6 23  1  0  0  0  0
  7 22  1  0  0  0  0
  8 23  1  0  0  0  0
  9 25  1  0  0  0  0
 10 24  1  0  0  0  0
 11 14  2  0  0  0  0
 11 21  1  0  0  0  0
 12 15  1  0  0  0  0
 12 24  2  0  0  0  0
 13 16  2  0  0  0  0
 13 24  1  0  0  0  0
 14 25  1  0  0  0  0
 15 26  2  0  0  0  0
 16 26  1  0  0  0  0
 17 19  1  0  0  0  0
 17 21  2  0  0  0  0
 18 22  1  0  0  0  0
 18 23  2  0  0  0  0
 19 25  2  0  0  0  0
 20 26  1  0  0  0  0
  5 27  1  0  0  0  0
  7 28  1  0  0  0  0
  7 29  1  0  0  0  0
  7 30  1  0  0  0  0
  8 31  1  0  0  0  0
  8 32  1  0  0  0  0
  8 33  1  0  0  0  0
  9 34  1  0  0  0  0
  9 35  1  0  0  0  0
 10 36  1  0  0  0  0
 10 37  1  0  0  0  0
 11 38  1  0  0  0  0
 12 39  1  0  0  0  0
 13 40  1  0  0  0  0
 14 41  1  0  0  0  0
 15 42  1  0  0  0  0
 16 43  1  0  0  0  0
 17 44  1  0  0  0  0
 18 45  1  0  0  0  0
M  END
> <pdb_id>
4QXM

> <uniprot_id>
P9WGR1

> <usmiles>
Clc1c(ccc(F)c1)CNC(=O)c2ccc(cc2)CN3N=C(C=C3C)C

$$$$
717_A_202
          07202403293D 1   1.00000     0.00000     0
            
 16 17  0  0  0  0            999 V2000
   29.3328  -41.0015    0.5418 S   0  0  0  0  0  0  0  0  0  0  0  0
   27.9063  -35.5449   -1.4379 O   0  0  0  0  0  0  0  0  0  0  0  0
   29.4940  -38.6085   -0.9606 N   0  0  0  0  0  0  0  0  0  0  0  0
   28.6337  -38.6916    1.1335 N   0  0  0  0  0  0  0  0  0  0  0  0
   28.6146  -40.7608    2.1311 C   0  0  0  0  0  0  0  0  0  0  0  0
   29.2057  -36.1287   -1.4105 C   0  0  0  0  0  0  0  0  0  0  0  0
   28.2824  -39.3968    2.3004 C   0  0  0  0  0  0  0  0  0  0  0  0
   28.5370  -37.3663    0.7526 C   0  0  0  0  0  0  0  0  0  0  0  0
   29.1851  -39.3848    0.1361 C   0  0  0  0  0  0  0  0  0  0  0  0
   29.0898  -37.3602   -0.5520 C   0  0  0  0  0  0  0  0  0  0  0  0
   27.9245  -34.7170   -1.9983 H   0  0  0  0  0  0  0  0  0  0  0  0
   28.4644  -41.4790    2.8105 H   0  0  0  0  0  0  0  0  0  0  0  0
   29.8653  -35.4899   -1.0144 H   0  0  0  0  0  0  0  0  0  0  0  0
   29.4951  -36.3759   -2.3353 H   0  0  0  0  0  0  0  0  0  0  0  0
   27.8653  -38.9975    3.1169 H   0  0  0  0  0  0  0  0  0  0  0  0
   28.1661  -36.5970    1.2727 H   0  0  0  0  0  0  0  0  0  0  0  0
  1  5  1  0  0  0  0
  1  9  1  0  0  0  0
  2  6  1  0  0  0  0
  3  9  2  0  0  0  0
  3 10  1  0  0  0  0
  4  7  1  0  0  0  0
  4  8  1  0  0  0  0
  4  9  1  0  0  0  0
  5  7  2  0  0  0  0
  6 10  1  0  0  0  0
  8 10  2  0  0  0  0
  2 11  1  0  0  0  0
  5 12  1  0  0  0  0
  6 13  1  0  0  0  0
  6 14  1  0  0  0  0
  7 15  1  0  0  0  0
  8 16  1  0  0  0  0
M  END
> <pdb_id>
3IKF

> <uniprot_id>
Q63T71

> <usmiles>
S1C2=NC(=CN2C=C1)CO

$$$$
71I_A_1718
          07202405173D 1   1.00000     0.00000     0
            
 38 39  0  0  0  0            999 V2000
   27.4172    1.1642  292.5541 S   0  0  0  0  0  0  0  0  0  0  0  0
   26.0490    3.1608  287.7464 O   0  0  0  0  0  0  0  0  0  0  0  0
   27.8802    5.2046  289.6831 O   0  0  0  0  0  0  0  0  0  0  0  0
   30.2454    4.0737  290.5704 O   0  0  0  0  0  0  0  0  0  0  0  0
   26.9471    1.6748  289.9047 O   0  0  0  0  0  0  0  0  0  0  0  0
   29.8272    1.6119  292.1049 N   0  0  0  0  0  0  0  0  0  0  0  0
   29.4573    1.1712  294.2795 N   0  0  0  0  0  0  0  0  0  0  0  0
   28.3744   -0.4543  298.2713 C   0  0  0  0  0  0  0  0  0  0  0  0
   25.6293    3.5030  289.0868 C   0  0  0  0  0  0  0  0  0  0  0  0
   28.6650    0.8304  295.4211 C   0  0  0  0  0  0  0  0  0  0  0  0
   28.8285    0.9272  297.9175 C   0  0  0  0  0  0  0  0  0  0  0  0
   29.6148    0.8898  296.6148 C   0  0  0  0  0  0  0  0  0  0  0  0
   29.0153    1.3289  293.0440 C   0  0  0  0  0  0  0  0  0  0  0  0
   27.9051    1.1389  290.8249 C   0  0  1  0  0  0  0  0  0  0  0  0
   28.0233    3.7823  289.7169 C   0  0  1  0  0  0  0  0  0  0  0  0
   29.0084    3.4057  290.7977 C   0  0  1  0  0  0  0  0  0  0  0  0
   26.7296    3.0748  290.0425 C   0  0  2  0  0  0  0  0  0  0  0  0
   29.2198    1.9130  290.8045 C   0  0  1  0  0  0  0  0  0  0  0  0
   25.3637    3.4241  287.1165 H   0  0  0  0  0  0  0  0  0  0  0  0
   27.5564    5.5169  290.5396 H   0  0  0  0  0  0  0  0  0  0  0  0
   30.8695    3.8442  291.2730 H   0  0  0  0  0  0  0  0  0  0  0  0
   30.4459    1.2967  294.4442 H   0  0  0  0  0  0  0  0  0  0  0  0
   29.2182   -1.0838  298.3879 H   0  0  0  0  0  0  0  0  0  0  0  0
   27.8277   -0.4244  299.1770 H   0  0  0  0  0  0  0  0  0  0  0  0
   27.7569   -0.8311  297.4982 H   0  0  0  0  0  0  0  0  0  0  0  0
   24.6981    2.9869  289.3315 H   0  0  0  0  0  0  0  0  0  0  0  0
   25.4606    4.5793  289.1653 H   0  0  0  0  0  0  0  0  0  0  0  0
   27.8472    1.5428  295.5459 H   0  0  0  0  0  0  0  0  0  0  0  0
   28.2496   -0.1736  295.3128 H   0  0  0  0  0  0  0  0  0  0  0  0
   27.9626    1.5825  297.8063 H   0  0  0  0  0  0  0  0  0  0  0  0
   29.4570    1.3244  298.7166 H   0  0  0  0  0  0  0  0  0  0  0  0
   30.2418    1.7811  296.5407 H   0  0  0  0  0  0  0  0  0  0  0  0
   30.2697    0.0156  296.6074 H   0  0  0  0  0  0  0  0  0  0  0  0
   28.1265    0.1017  290.5372 H   0  0  0  0  0  0  0  0  0  0  0  0
   28.3972    3.4168  288.7507 H   0  0  0  0  0  0  0  0  0  0  0  0
   28.5951    3.7066  291.7709 H   0  0  0  0  0  0  0  0  0  0  0  0
   26.4317    3.3172  291.0723 H   0  0  0  0  0  0  0  0  0  0  0  0
   29.8568    1.5963  289.9665 H   0  0  0  0  0  0  0  0  0  0  0  0
  1 13  1  0  0  0  0
  1 14  1  0  0  0  0
  2  9  1  0  0  0  0
  2 19  1  0  0  0  0
  3 15  1  0  0  0  0
  3 20  1  0  0  0  0
  4 16  1  0  0  0  0
  4 21  1  0  0  0  0
  5 14  1  0  0  0  0
  5 17  1  0  0  0  0
  6 13  2  0  0  0  0
  6 18  1  0  0  0  0
  7 10  1  0  0  0  0
  7 13  1  0  0  0  0
  7 22  1  0  0  0  0
  8 11  1  0  0  0  0
  8 23  1  0  0  0  0
  8 24  1  0  0  0  0
  8 25  1  0  0  0  0
  9 17  1  0  0  0  0
  9 26  1  0  0  0  0
  9 27  1  0  0  0  0
 10 12  1  0  0  0  0
 10 28  1  0  0  0  0
 10 29  1  0  0  0  0
 11 12  1  0  0  0  0
 11 30  1  0  0  0  0
 11 31  1  0  0  0  0
 12 32  1  0  0  0  0
 12 33  1  0  0  0  0
 14 18  1  0  0  0  0
 14 34  1  0  0  0  0
 15 16  1  0  0  0  0
 15 17  1  0  0  0  0
 15 35  1  0  0  0  0
 16 18  1  0  0  0  0
 16 36  1  0  0  0  0
 17 37  1  0  0  0  0
 18 38  1  0  0  0  0
M  END
> <pdb_id>
5FL0

> <uniprot_id>
Q89ZI2

> <usmiles>
S1C(=N[C@H]2[C@@H]1O[C@@H]([C@@H](O)[C@@H]2O)CO)NCCCC

$$$$
71U_H_307
          07202416143D 1   1.00000     0.00000     0
            
 62 64  0  0  0  0            999 V2000
   16.3221   -8.1579   10.8804 Cl  0  0  0  0  0  0  0  0  0  0  0  0
   13.1153  -13.1080   15.4977 O   0  0  0  0  0  0  0  0  0  0  0  0
   12.4143  -13.3565   12.5455 O   0  0  0  0  0  0  0  0  0  0  0  0
   15.5256  -14.2586   13.5128 N   0  0  0  0  0  0  0  0  0  0  0  0
   12.3480  -16.1568   12.2084 N   0  0  0  0  0  0  0  0  0  0  0  0
   13.1085  -11.0070   14.6691 N   0  0  0  0  0  0  0  0  0  0  0  0
   10.7117  -13.5585   13.9834 N   0  0  0  0  0  0  0  0  0  0  0  0
   16.1618  -13.1443   14.2173 C   0  0  0  0  0  0  0  0  0  0  0  0
   14.5170  -10.7854   14.9745 C   0  0  0  0  0  0  0  0  0  0  0  0
    9.5425  -14.2188   14.5886 C   0  0  0  0  0  0  0  0  0  0  0  0
    8.9603  -13.1485   15.4860 C   0  0  0  0  0  0  0  0  0  0  0  0
    6.4351  -14.1550    9.8799 C   0  0  0  0  0  0  0  0  0  0  0  0
    7.5631  -13.2847    9.3381 C   0  0  0  0  0  0  0  0  0  0  0  0
    6.7328  -14.5985   11.2994 C   0  0  0  0  0  0  0  0  0  0  0  0
   17.1431  -10.6367   11.5799 C   0  0  0  0  0  0  0  0  0  0  0  0
    8.9006  -14.0043    9.4452 C   0  0  0  0  0  0  0  0  0  0  0  0
    8.0762  -15.3138   11.3835 C   0  0  0  0  0  0  0  0  0  0  0  0
   10.1671  -12.3139   15.9015 C   0  0  0  0  0  0  0  0  0  0  0  0
   17.0852  -11.7779   12.3565 C   0  0  0  0  0  0  0  0  0  0  0  0
   15.4384   -9.6423   12.9403 C   0  0  0  0  0  0  0  0  0  0  0  0
   10.5517  -15.1595   10.9108 C   0  0  0  0  0  0  0  0  0  0  0  0
   16.3032   -9.5875   11.8765 C   0  0  0  0  0  0  0  0  0  0  0  0
   12.5143  -12.1677   14.9699 C   0  0  0  0  0  0  0  0  0  0  0  0
   11.4586  -13.9985   12.9594 C   0  0  0  0  0  0  0  0  0  0  0  0
   11.1100  -15.3753   12.3180 C   0  0  2  0  0  0  0  0  0  0  0  0
    9.2103  -14.4348   10.8668 C   0  0  0  0  0  0  0  0  0  0  0  0
   11.0275  -12.2799   14.6314 C   0  0  1  0  0  0  0  0  0  0  0  0
   16.2184  -11.8641   13.4418 C   0  0  0  0  0  0  0  0  0  0  0  0
   15.3955  -10.7671   13.7521 C   0  0  0  0  0  0  0  0  0  0  0  0
   15.5299  -15.0692   14.0984 H   0  0  0  0  0  0  0  0  0  0  0  0
   14.5822  -14.0153   13.2873 H   0  0  0  0  0  0  0  0  0  0  0  0
   12.7285  -16.3082   13.1207 H   0  0  0  0  0  0  0  0  0  0  0  0
   12.1491  -17.0380   11.7796 H   0  0  0  0  0  0  0  0  0  0  0  0
   12.5793  -10.2816   14.2288 H   0  0  0  0  0  0  0  0  0  0  0  0
   17.0980  -13.4129   14.4439 H   0  0  0  0  0  0  0  0  0  0  0  0
   15.6501  -12.9758   15.0598 H   0  0  0  0  0  0  0  0  0  0  0  0
   14.8297  -11.5179   15.5792 H   0  0  0  0  0  0  0  0  0  0  0  0
   14.6058   -9.9061   15.4425 H   0  0  0  0  0  0  0  0  0  0  0  0
    9.8191  -15.0196   15.1199 H   0  0  0  0  0  0  0  0  0  0  0  0
    8.8849  -14.4948   13.8877 H   0  0  0  0  0  0  0  0  0  0  0  0
    8.5190  -13.5567   16.2851 H   0  0  0  0  0  0  0  0  0  0  0  0
    8.2970  -12.5900   14.9879 H   0  0  0  0  0  0  0  0  0  0  0  0
    6.3351  -14.9622    9.2982 H   0  0  0  0  0  0  0  0  0  0  0  0
    5.5835  -13.6308    9.8719 H   0  0  0  0  0  0  0  0  0  0  0  0
    7.6044  -12.4359    9.8652 H   0  0  0  0  0  0  0  0  0  0  0  0
    7.3810  -13.0723    8.3780 H   0  0  0  0  0  0  0  0  0  0  0  0
    6.0122  -15.2212   11.6045 H   0  0  0  0  0  0  0  0  0  0  0  0
    6.7532  -13.7952   11.8946 H   0  0  0  0  0  0  0  0  0  0  0  0
   17.7845  -10.5741   10.8152 H   0  0  0  0  0  0  0  0  0  0  0  0
    9.6232  -13.3886    9.1309 H   0  0  0  0  0  0  0  0  0  0  0  0
    8.8769  -14.8158    8.8613 H   0  0  0  0  0  0  0  0  0  0  0  0
    8.0353  -16.1480   10.8337 H   0  0  0  0  0  0  0  0  0  0  0  0
    8.2585  -15.5519   12.3375 H   0  0  0  0  0  0  0  0  0  0  0  0
   10.6596  -12.7473   16.6562 H   0  0  0  0  0  0  0  0  0  0  0  0
    9.8893  -11.3917   16.1707 H   0  0  0  0  0  0  0  0  0  0  0  0
   17.6755  -12.5542   12.1352 H   0  0  0  0  0  0  0  0  0  0  0  0
   14.8356   -8.8677   13.1316 H   0  0  0  0  0  0  0  0  0  0  0  0
   10.4375  -16.0544   10.4794 H   0  0  0  0  0  0  0  0  0  0  0  0
   11.2148  -14.6209   10.3909 H   0  0  0  0  0  0  0  0  0  0  0  0
   10.4436  -15.8612   12.8835 H   0  0  0  0  0  0  0  0  0  0  0  0
    9.2693  -13.6188   11.4418 H   0  0  0  0  0  0  0  0  0  0  0  0
   10.7486  -11.5185   14.0461 H   0  0  0  0  0  0  0  0  0  0  0  0
  1 22  1  0  0  0  0
  2 23  2  0  0  0  0
  3 24  2  0  0  0  0
  4  8  1  0  0  0  0
  5 25  1  0  0  0  0
  6  9  1  0  0  0  0
  6 23  1  0  0  0  0
  7 10  1  0  0  0  0
  7 24  1  0  0  0  0
  7 27  1  0  0  0  0
  8 28  1  0  0  0  0
  9 29  1  0  0  0  0
 10 11  1  0  0  0  0
 11 18  1  0  0  0  0
 12 13  1  0  0  0  0
 12 14  1  0  0  0  0
 13 16  1  0  0  0  0
 14 17  1  0  0  0  0
 15 19  2  0  0  0  0
 15 22  1  0  0  0  0
 16 26  1  0  0  0  0
 17 26  1  0  0  0  0
 18 27  1  0  0  0  0
 19 28  1  0  0  0  0
 20 22  2  0  0  0  0
 20 29  1  0  0  0  0
 21 25  1  0  0  0  0
 21 26  1  0  0  0  0
 23 27  1  0  0  0  0
 24 25  1  0  0  0  0
 28 29  2  0  0  0  0
  4 30  1  0  0  0  0
  4 31  1  0  0  0  0
  5 32  1  0  0  0  0
  5 33  1  0  0  0  0
  6 34  1  0  0  0  0
  8 35  1  0  0  0  0
  8 36  1  0  0  0  0
  9 37  1  0  0  0  0
  9 38  1  0  0  0  0
 10 39  1  0  0  0  0
 10 40  1  0  0  0  0
 11 41  1  0  0  0  0
 11 42  1  0  0  0  0
 12 43  1  0  0  0  0
 12 44  1  0  0  0  0
 13 45  1  0  0  0  0
 13 46  1  0  0  0  0
 14 47  1  0  0  0  0
 14 48  1  0  0  0  0
 15 49  1  0  0  0  0
 16 50  1  0  0  0  0
 16 51  1  0  0  0  0
 17 52  1  0  0  0  0
 17 53  1  0  0  0  0
 18 54  1  0  0  0  0
 18 55  1  0  0  0  0
 19 56  1  0  0  0  0
 20 57  1  0  0  0  0
 21 58  1  0  0  0  0
 21 59  1  0  0  0  0
 25 60  1  0  0  0  0
 26 61  1  0  0  0  0
 27 62  1  0  0  0  0
M  END
> <pdb_id>
5LPD

> <uniprot_id>
P00734

> <usmiles>
Clc1cc(c(cc1)CN)CNC(=O)[C@H]2N(C(=O)[C@H](N)CC3CCCCC3)CCC2

$$$$
728_X_301
          07202407013D 1   1.00000     0.00000     0
            
 50 52  0  0  0  0            999 V2000
    6.7050   22.0650   13.9970 Br  0  0  0  0  0  0  0  0  0  0  0  0
    3.3450   17.9590   17.1850 O   0  0  0  0  0  0  0  0  0  0  0  0
    4.7490   20.0870   19.7850 O   0  0  0  0  0  0  0  0  0  0  0  0
    0.3190   14.7900   23.6030 N   0  0  0  0  0  0  0  0  0  0  0  0
    2.7190   19.9040   18.0490 N   0  0  0  0  0  0  0  0  0  0  0  0
    1.4320   18.1010   18.3730 N   0  0  0  0  0  0  0  0  0  0  0  0
    6.2150   20.8190   18.2850 N   0  0  0  0  0  0  0  0  0  0  0  0
    3.9250   20.5390   17.5380 C   0  0  0  0  0  0  0  0  0  0  0  0
    1.0830   16.6820   18.2770 C   0  0  0  0  0  0  0  0  0  0  0  0
    7.4100   20.6810   19.0830 C   0  0  0  0  0  0  0  0  0  0  0  0
    8.3620   21.7430   18.5360 C   0  0  0  0  0  0  0  0  0  0  0  0
    5.7000   25.3730   16.2570 C   0  0  0  0  0  0  0  0  0  0  0  0
    5.6920   24.9060   17.5630 C   0  0  0  0  0  0  0  0  0  0  0  0
    6.0090   24.5020   15.2250 C   0  0  0  0  0  0  0  0  0  0  0  0
    8.2000   21.0060   17.1840 C   0  0  0  0  0  0  0  0  0  0  0  0
    1.5920   16.0660   22.0540 C   0  0  0  0  0  0  0  0  0  0  0  0
   -0.3760   14.8870   21.3380 C   0  0  0  0  0  0  0  0  0  0  0  0
    1.7840   16.5360   20.7500 C   0  0  0  0  0  0  0  0  0  0  0  0
   -0.1810   15.3540   20.0380 C   0  0  0  0  0  0  0  0  0  0  0  0
    5.9710   23.5720   17.8530 C   0  0  0  0  0  0  0  0  0  0  0  0
    2.5580   18.6070   17.8790 C   0  0  0  0  0  0  0  0  0  0  0  0
    4.9860   20.5230   18.6530 C   0  0  0  0  0  0  0  0  0  0  0  0
    6.3070   23.1690   15.5050 C   0  0  0  0  0  0  0  0  0  0  0  0
    0.5070   15.2420   22.3560 C   0  0  0  0  0  0  0  0  0  0  0  0
    0.8970   16.1780   19.7280 C   0  0  0  0  0  0  0  0  0  0  0  0
    6.6280   21.1510   16.9290 C   0  0  2  0  0  0  0  0  0  0  0  0
    6.3550   22.6840   16.8320 C   0  0  0  0  0  0  0  0  0  0  0  0
   -0.4618   14.2000   23.8086 H   0  0  0  0  0  0  0  0  0  0  0  0
    0.9595   15.0426   24.3283 H   0  0  0  0  0  0  0  0  0  0  0  0
    2.0228   20.4439   18.5221 H   0  0  0  0  0  0  0  0  0  0  0  0
    0.7932   18.7187   18.8318 H   0  0  0  0  0  0  0  0  0  0  0  0
    3.7251   21.4827   17.2744 H   0  0  0  0  0  0  0  0  0  0  0  0
    4.2620   20.0351   16.7427 H   0  0  0  0  0  0  0  0  0  0  0  0
    1.8178   16.1750   17.8264 H   0  0  0  0  0  0  0  0  0  0  0  0
    0.2344   16.5689   17.7603 H   0  0  0  0  0  0  0  0  0  0  0  0
    7.8019   19.7671   18.9770 H   0  0  0  0  0  0  0  0  0  0  0  0
    7.2112   20.8485   20.0486 H   0  0  0  0  0  0  0  0  0  0  0  0
    9.2845   21.7258   18.9215 H   0  0  0  0  0  0  0  0  0  0  0  0
    8.0104   22.6790   18.5546 H   0  0  0  0  0  0  0  0  0  0  0  0
    5.4846   26.3299   16.0621 H   0  0  0  0  0  0  0  0  0  0  0  0
    5.4824   25.5376   18.3094 H   0  0  0  0  0  0  0  0  0  0  0  0
    6.0183   24.8290   14.2800 H   0  0  0  0  0  0  0  0  0  0  0  0
    8.4715   20.0463   17.2562 H   0  0  0  0  0  0  0  0  0  0  0  0
    8.7299   21.4488   16.4607 H   0  0  0  0  0  0  0  0  0  0  0  0
    2.2366   16.3223   22.7743 H   0  0  0  0  0  0  0  0  0  0  0  0
   -1.1548   14.2934   21.5408 H   0  0  0  0  0  0  0  0  0  0  0  0
    2.5607   17.1321   20.5467 H   0  0  0  0  0  0  0  0  0  0  0  0
   -0.8248   15.0930   19.3187 H   0  0  0  0  0  0  0  0  0  0  0  0
    5.8976   23.2433   18.7946 H   0  0  0  0  0  0  0  0  0  0  0  0
    6.2442   20.5860   16.1986 H   0  0  0  0  0  0  0  0  0  0  0  0
  1 23  1  0  0  0  0
  2 21  2  0  0  0  0
  3 22  2  0  0  0  0
  4 24  1  0  0  0  0
  5  8  1  0  0  0  0
  5 21  1  0  0  0  0
  6  9  1  0  0  0  0
  6 21  1  0  0  0  0
  7 10  1  0  0  0  0
  7 22  1  0  0  0  0
  7 26  1  0  0  0  0
  8 22  1  0  0  0  0
  9 25  1  0  0  0  0
 10 11  1  0  0  0  0
 11 15  1  0  0  0  0
 12 13  2  0  0  0  0
 12 14  1  0  0  0  0
 13 20  1  0  0  0  0
 14 23  2  0  0  0  0
 15 26  1  0  0  0  0
 16 18  1  0  0  0  0
 16 24  2  0  0  0  0
 17 19  2  0  0  0  0
 17 24  1  0  0  0  0
 18 25  2  0  0  0  0
 19 25  1  0  0  0  0
 20 27  2  0  0  0  0
 23 27  1  0  0  0  0
 26 27  1  0  0  0  0
  4 28  1  0  0  0  0
  4 29  1  0  0  0  0
  5 30  1  0  0  0  0
  6 31  1  0  0  0  0
  8 32  1  0  0  0  0
  8 33  1  0  0  0  0
  9 34  1  0  0  0  0
  9 35  1  0  0  0  0
 10 36  1  0  0  0  0
 10 37  1  0  0  0  0
 11 38  1  0  0  0  0
 11 39  1  0  0  0  0
 12 40  1  0  0  0  0
 13 41  1  0  0  0  0
 14 42  1  0  0  0  0
 15 43  1  0  0  0  0
 15 44  1  0  0  0  0
 16 45  1  0  0  0  0
 17 46  1  0  0  0  0
 18 47  1  0  0  0  0
 19 48  1  0  0  0  0
 20 49  1  0  0  0  0
 26 50  1  0  0  0  0
M  END
> <pdb_id>
4J5D

> <uniprot_id>
P30405

> <usmiles>
Brc1c(cccc1)[C@@H]2N(C(=O)CNC(=O)NCc3ccc(N)cc3)CCC2

$$$$
72G_A_307
          07212402173D 1   1.00000     0.00000     0
            
 29 30  0  0  0  0            999 V2000
   14.4000    0.5490   83.7920 S   0  0  0  0  0  0  0  0  0  0  0  0
   13.4840   -0.5370   84.1740 O   0  0  0  0  0  0  0  0  0  0  0  0
   15.2510    0.7780   84.9760 O   0  0  0  0  0  0  0  0  0  0  0  0
   18.4330   -5.3590   77.8740 O   0  0  0  0  0  0  0  0  0  0  0  0
   13.5950    1.9570   83.3520 N   0  0  0  0  0  0  0  0  0  0  0  0
   18.7750   -4.4980   77.1430 C   0  0  0  0  0  0  0  0  0  0  0  0
   19.3420   -0.7530   77.3040 C   0  0  0  0  0  0  0  0  0  0  0  0
   19.3950   -2.0750   76.9070 C   0  0  0  0  0  0  0  0  0  0  0  0
   15.9500   -1.2450   82.4660 C   0  0  0  0  0  0  0  0  0  0  0  0
   15.6970    0.9030   81.2600 C   0  0  0  0  0  0  0  0  0  0  0  0
   18.5820   -0.3890   78.4010 C   0  0  0  0  0  0  0  0  0  0  0  0
   16.8160   -1.7220   81.3090 C   0  0  0  0  0  0  0  0  0  0  0  0
   16.4440    0.4820   80.2640 C   0  0  0  0  0  0  0  0  0  0  0  0
   17.9270   -2.6810   78.7140 C   0  0  0  0  0  0  0  0  0  0  0  0
   15.4360   -0.0300   82.4330 C   0  0  0  0  0  0  0  0  0  0  0  0
   18.6930   -3.0410   77.6080 C   0  0  0  0  0  0  0  0  0  0  0  0
   17.0430   -0.9170   80.2960 C   0  0  0  0  0  0  0  0  0  0  0  0
   17.8820   -1.3520   79.1100 C   0  0  0  0  0  0  0  0  0  0  0  0
   13.1570    1.8230   82.5900 H   0  0  0  0  0  0  0  0  0  0  0  0
   14.1850    2.6150   83.2440 H   0  0  0  0  0  0  0  0  0  0  0  0
   19.0920   -4.7020   76.2930 H   0  0  0  0  0  0  0  0  0  0  0  0
   19.8170   -0.1070   76.8330 H   0  0  0  0  0  0  0  0  0  0  0  0
   19.9100   -2.3180   76.1720 H   0  0  0  0  0  0  0  0  0  0  0  0
   15.7820   -1.8060   83.1880 H   0  0  0  0  0  0  0  0  0  0  0  0
   15.3280    1.7560   81.2440 H   0  0  0  0  0  0  0  0  0  0  0  0
   18.5450    0.5020   78.6660 H   0  0  0  0  0  0  0  0  0  0  0  0
   17.1800   -2.5780   81.3190 H   0  0  0  0  0  0  0  0  0  0  0  0
   16.6080    1.0410   79.5390 H   0  0  0  0  0  0  0  0  0  0  0  0
   17.4500   -3.3260   79.1840 H   0  0  0  0  0  0  0  0  0  0  0  0
  1  2  2  0  0  0  0
  1  3  2  0  0  0  0
  1  5  1  0  0  0  0
  1 15  1  0  0  0  0
  4  6  2  0  0  0  0
  5 19  1  0  0  0  0
  5 20  1  0  0  0  0
  6 16  1  0  0  0  0
  6 21  1  0  0  0  0
  7  8  1  0  0  0  0
  7 11  2  0  0  0  0
  7 22  1  0  0  0  0
  8 16  2  0  0  0  0
  8 23  1  0  0  0  0
  9 12  1  0  0  0  0
  9 15  2  0  0  0  0
  9 24  1  0  0  0  0
 10 13  2  0  0  0  0
 10 15  1  0  0  0  0
 10 25  1  0  0  0  0
 11 18  1  0  0  0  0
 11 26  1  0  0  0  0
 12 17  2  0  0  0  0
 12 27  1  0  0  0  0
 13 17  1  0  0  0  0
 13 28  1  0  0  0  0
 14 16  1  0  0  0  0
 14 18  2  0  0  0  0
 14 29  1  0  0  0  0
 17 18  1  0  0  0  0
M  END
> <pdb_id>
5SZ2

> <uniprot_id>
P00918

> <usmiles>
S(=O)(=O)(N)c1ccc(c2cc(ccc2)C=O)cc1

$$$$
73E_A_902
          07202400133D 1   1.00000     0.00000     0
            
 39 41  0  0  0  0            999 V2000
   33.2907   18.7214   27.3265 O   0  0  0  0  0  0  0  0  0  0  0  0
   31.2860   20.7021   25.3518 O   0  0  0  0  0  0  0  0  0  0  0  0
   33.0809   22.6999   24.2411 O   0  0  0  0  0  0  0  0  0  0  0  0
   34.1569   24.5982   26.2505 O   0  0  0  0  0  0  0  0  0  0  0  0
   33.5138   21.5307   28.2407 O   0  0  0  0  0  0  0  0  0  0  0  0
   36.0431   23.3208   28.5405 N   0  0  0  0  0  0  0  0  0  0  0  0
   36.7537   23.8865   29.5945 N   0  0  0  0  0  0  0  0  0  0  0  0
   34.5951   24.0486   30.0249 N   0  0  0  0  0  0  0  0  0  0  0  0
   32.2562   19.5013   27.9390 C   0  0  0  0  0  0  0  0  0  0  0  0
   36.8633   26.3076   34.1201 C   0  0  0  0  0  0  0  0  0  0  0  0
   37.8266   26.1108   33.1293 C   0  0  0  0  0  0  0  0  0  0  0  0
   35.5729   25.8324   33.9283 C   0  0  0  0  0  0  0  0  0  0  0  0
   37.5045   25.4448   31.9516 C   0  0  0  0  0  0  0  0  0  0  0  0
   35.2388   25.1633   32.7446 C   0  0  0  0  0  0  0  0  0  0  0  0
   32.3671   20.9738   27.5504 C   0  0  2  0  0  0  0  0  0  0  0  0
   32.4660   21.1990   26.0202 C   0  0  2  0  0  0  0  0  0  0  0  0
   32.7499   22.6559   25.6342 C   0  0  1  0  0  0  0  0  0  0  0  0
   33.9123   23.2041   26.4885 C   0  0  2  0  0  0  0  0  0  0  0  0
   34.7329   23.4465   28.8235 C   0  0  0  0  0  0  0  0  0  0  0  0
   35.8492   24.3082   30.4900 C   0  0  0  0  0  0  0  0  0  0  0  0
   33.6255   22.9454   27.9772 C   0  0  2  0  0  0  0  0  0  0  0  0
   36.1980   24.9815   31.7587 C   0  0  0  0  0  0  0  0  0  0  0  0
   33.1921   17.7643   27.5989 H   0  0  0  0  0  0  0  0  0  0  0  0
   31.3704   20.8571   24.3675 H   0  0  0  0  0  0  0  0  0  0  0  0
   33.2692   23.6447   23.9729 H   0  0  0  0  0  0  0  0  0  0  0  0
   34.9156   24.9062   26.8245 H   0  0  0  0  0  0  0  0  0  0  0  0
   36.4338   22.8984   27.7227 H   0  0  0  0  0  0  0  0  0  0  0  0
   32.3322   19.4201   28.9328 H   0  0  0  0  0  0  0  0  0  0  0  0
   31.3669   19.1525   27.6431 H   0  0  0  0  0  0  0  0  0  0  0  0
   37.1014   26.7885   34.9639 H   0  0  0  0  0  0  0  0  0  0  0  0
   38.7565   26.4517   33.2674 H   0  0  0  0  0  0  0  0  0  0  0  0
   34.8806   25.9683   34.6370 H   0  0  0  0  0  0  0  0  0  0  0  0
   38.2004   25.2981   31.2487 H   0  0  0  0  0  0  0  0  0  0  0  0
   34.3103   24.8171   32.6099 H   0  0  0  0  0  0  0  0  0  0  0  0
   31.5485   21.4439   27.8805 H   0  0  0  0  0  0  0  0  0  0  0  0
   33.2384   20.6541   25.6938 H   0  0  0  0  0  0  0  0  0  0  0  0
   31.9314   23.2067   25.7972 H   0  0  0  0  0  0  0  0  0  0  0  0
   34.7399   22.6998   26.2422 H   0  0  0  0  0  0  0  0  0  0  0  0
   32.7743   23.4014   28.2372 H   0  0  0  0  0  0  0  0  0  0  0  0
  1  9  1  0  0  0  0
  2 16  1  0  0  0  0
  3 17  1  0  0  0  0
  4 18  1  0  0  0  0
  5 15  1  0  0  0  0
  5 21  1  0  0  0  0
  6  7  1  0  0  0  0
  6 19  1  0  0  0  0
  7 20  2  0  0  0  0
  8 19  2  0  0  0  0
  8 20  1  0  0  0  0
  9 15  1  0  0  0  0
 10 11  2  0  0  0  0
 10 12  1  0  0  0  0
 11 13  1  0  0  0  0
 12 14  2  0  0  0  0
 13 22  2  0  0  0  0
 14 22  1  0  0  0  0
 15 16  1  0  0  0  0
 16 17  1  0  0  0  0
 17 18  1  0  0  0  0
 18 21  1  0  0  0  0
 19 21  1  0  0  0  0
 20 22  1  0  0  0  0
  1 23  1  0  0  0  0
  2 24  1  0  0  0  0
  3 25  1  0  0  0  0
  4 26  1  0  0  0  0
  6 27  1  0  0  0  0
  9 28  1  0  0  0  0
  9 29  1  0  0  0  0
 10 30  1  0  0  0  0
 11 31  1  0  0  0  0
 12 32  1  0  0  0  0
 13 33  1  0  0  0  0
 14 34  1  0  0  0  0
 15 35  1  0  0  0  0
 16 36  1  0  0  0  0
 17 37  1  0  0  0  0
 18 38  1  0  0  0  0
 21 39  1  0  0  0  0
M  END
> <pdb_id>
5LRC

> <uniprot_id>
P00489

> <usmiles>
O1[C@@H]([C@@H](O)[C@H](O)[C@@H](O)[C@@H]1C2=NC(=NN2)c3ccccc3)CO

$$$$
75D_A_201
          07202409203D 1   1.00000     0.00000     0
            
 43 43  0  0  0  0            999 V2000
    4.1712    6.7891   16.3706 S   0  0  0  0  0  0  0  0  0  0  0  0
    3.7130    5.4031   16.0416 O   0  0  0  0  0  0  0  0  0  0  0  0
    3.0774    7.7098   16.0372 O   0  0  0  0  0  0  0  0  0  0  0  0
    5.3469    7.0987   15.5159 O   0  0  0  0  0  0  0  0  0  0  0  0
    6.5207    7.6501   22.8672 C   0  0  0  0  0  0  0  0  0  0  0  0
    4.1995    6.6353   23.2776 C   0  0  0  0  0  0  0  0  0  0  0  0
    2.0481    4.5214   19.1342 C   0  0  0  0  0  0  0  0  0  0  0  0
    0.9497    6.8162   18.9306 C   0  0  0  0  0  0  0  0  0  0  0  0
    6.7227    9.6218   17.4380 C   0  0  0  0  0  0  0  0  0  0  0  0
    8.2451    7.8555   18.4687 C   0  0  0  0  0  0  0  0  0  0  0  0
    3.6781    6.7802   20.4184 C   0  0  0  0  0  0  0  0  0  0  0  0
    5.8512    7.7958   20.0060 C   0  0  0  0  0  0  0  0  0  0  0  0
    4.5042    7.0224   18.1367 C   0  0  0  0  0  0  0  0  0  0  0  0
    5.0379    7.5629   22.4338 C   0  0  0  0  0  0  0  0  0  0  0  0
    2.1728    5.9514   18.6511 C   0  0  0  0  0  0  0  0  0  0  0  0
    6.8737    8.1519   17.8172 C   0  0  0  0  0  0  0  0  0  0  0  0
    4.8433    7.3688   20.9127 C   0  0  0  0  0  0  0  0  0  0  0  0
    3.4970    6.6123   19.0714 C   0  0  0  0  0  0  0  0  0  0  0  0
    5.6970    7.6373   18.6549 C   0  0  0  0  0  0  0  0  0  0  0  0
    4.4397    4.7514   16.2588 H   0  0  0  0  0  0  0  0  0  0  0  0
    7.0079    8.2808   22.2632 H   0  0  0  0  0  0  0  0  0  0  0  0
    6.5737    7.9825   23.8088 H   0  0  0  0  0  0  0  0  0  0  0  0
    6.9387    6.7435   22.8096 H   0  0  0  0  0  0  0  0  0  0  0  0
    3.2593    6.6331   22.9369 H   0  0  0  0  0  0  0  0  0  0  0  0
    4.5742    5.7095   23.2281 H   0  0  0  0  0  0  0  0  0  0  0  0
    4.2092    6.9484   24.2273 H   0  0  0  0  0  0  0  0  0  0  0  0
    2.8859    4.0213   18.9151 H   0  0  0  0  0  0  0  0  0  0  0  0
    1.9053    4.5152   20.1239 H   0  0  0  0  0  0  0  0  0  0  0  0
    1.2707    4.0836   18.6825 H   0  0  0  0  0  0  0  0  0  0  0  0
    1.1087    7.7405   18.5838 H   0  0  0  0  0  0  0  0  0  0  0  0
    0.1515    6.4219   18.4751 H   0  0  0  0  0  0  0  0  0  0  0  0
    0.7861    6.8536   19.9165 H   0  0  0  0  0  0  0  0  0  0  0  0
    5.8253    9.7682   17.0219 H   0  0  0  0  0  0  0  0  0  0  0  0
    6.8063   10.1879   18.2581 H   0  0  0  0  0  0  0  0  0  0  0  0
    7.4377    9.8728   16.7855 H   0  0  0  0  0  0  0  0  0  0  0  0
    8.3010    6.8843   18.7004 H   0  0  0  0  0  0  0  0  0  0  0  0
    8.9760    8.0877   17.8270 H   0  0  0  0  0  0  0  0  0  0  0  0
    8.3446    8.4028   19.2996 H   0  0  0  0  0  0  0  0  0  0  0  0
    2.9682    6.4780   21.0546 H   0  0  0  0  0  0  0  0  0  0  0  0
    6.6855    8.2183   20.3602 H   0  0  0  0  0  0  0  0  0  0  0  0
    4.6685    8.4734   22.6195 H   0  0  0  0  0  0  0  0  0  0  0  0
    2.2211    5.8850   17.6545 H   0  0  0  0  0  0  0  0  0  0  0  0
    6.8535    7.6377   16.9598 H   0  0  0  0  0  0  0  0  0  0  0  0
  1  2  1  0  0  0  0
  1  3  2  0  0  0  0
  1  4  2  0  0  0  0
  1 13  1  0  0  0  0
  5 14  1  0  0  0  0
  6 14  1  0  0  0  0
  7 15  1  0  0  0  0
  8 15  1  0  0  0  0
  9 16  1  0  0  0  0
 10 16  1  0  0  0  0
 11 17  2  0  0  0  0
 11 18  1  0  0  0  0
 12 17  1  0  0  0  0
 12 19  2  0  0  0  0
 13 18  2  0  0  0  0
 13 19  1  0  0  0  0
 14 17  1  0  0  0  0
 15 18  1  0  0  0  0
 16 19  1  0  0  0  0
  2 20  1  0  0  0  0
  5 21  1  0  0  0  0
  5 22  1  0  0  0  0
  5 23  1  0  0  0  0
  6 24  1  0  0  0  0
  6 25  1  0  0  0  0
  6 26  1  0  0  0  0
  7 27  1  0  0  0  0
  7 28  1  0  0  0  0
  7 29  1  0  0  0  0
  8 30  1  0  0  0  0
  8 31  1  0  0  0  0
  8 32  1  0  0  0  0
  9 33  1  0  0  0  0
  9 34  1  0  0  0  0
  9 35  1  0  0  0  0
 10 36  1  0  0  0  0
 10 37  1  0  0  0  0
 10 38  1  0  0  0  0
 11 39  1  0  0  0  0
 12 40  1  0  0  0  0
 14 41  1  0  0  0  0
 15 42  1  0  0  0  0
 16 43  1  0  0  0  0
M  END
> <pdb_id>
4NNS

> <uniprot_id>
P15090

> <usmiles>
S(=O)(=O)(O)c1c(cc(cc1C(C)C)C(C)C)C(C)C

$$$$
75M_A_812
          07212402213D 1   1.00000     0.00000     0
            
 59 63  0  0  0  0            999 V2000
   36.3435   47.6496   40.0245 O   0  0  0  0  0  0  0  0  0  0  0  0
   34.2204   53.2600   46.3341 N   0  0  0  0  0  0  0  0  0  0  0  0
   37.9686   52.0451   34.6033 N   0  0  0  0  0  0  0  0  0  0  0  0
   39.3309   49.1284   43.4308 N   0  0  0  0  0  0  0  0  0  0  0  0
   40.3524   49.7368   38.8742 N   0  0  0  0  0  0  0  0  0  0  0  0
   40.1747   49.5170   36.4687 N   0  0  0  0  0  0  0  0  0  0  0  0
   37.7083   48.3309   41.7610 N   0  0  0  0  0  0  0  0  0  0  0  0
   39.8674   49.4062   41.2595 N   0  0  0  0  0  0  0  0  0  0  0  0
   38.4941   48.6654   38.0600 N   0  0  0  0  0  0  0  0  0  0  0  0
   34.0359   48.3770   35.8629 C   0  0  0  0  0  0  0  0  0  0  0  0
   34.6454   52.3921   45.7084 C   0  0  0  0  0  0  0  0  0  0  0  0
   40.6965   49.7643   43.4223 C   0  0  0  0  0  0  0  0  0  0  0  0
   41.0387   49.9841   41.9294 C   0  0  0  0  0  0  0  0  0  0  0  0
   41.5598   50.0638   36.2581 C   0  0  0  0  0  0  0  0  0  0  0  0
   37.9346   47.5868   37.1727 C   0  0  0  0  0  0  0  0  0  0  0  0
   39.1720   50.0221   35.4730 C   0  0  0  0  0  0  0  0  0  0  0  0
   36.7492   47.8686   42.8265 C   0  0  0  0  0  0  0  0  0  0  0  0
   35.4521   48.1240   36.2916 C   0  0  0  0  0  0  0  0  0  0  0  0
   36.5513   47.8718   36.7130 C   0  0  0  0  0  0  0  0  0  0  0  0
   41.4751   51.6468   36.3659 C   0  0  0  0  0  0  0  0  0  0  0  0
   40.3664   52.2648   35.4324 C   0  0  0  0  0  0  0  0  0  0  0  0
   35.5456   50.1697   45.6348 C   0  0  0  0  0  0  0  0  0  0  0  0
   35.2856   51.3809   43.4941 C   0  0  0  0  0  0  0  0  0  0  0  0
   36.0976   49.0658   44.9277 C   0  0  0  0  0  0  0  0  0  0  0  0
   35.7707   50.2640   42.8102 C   0  0  0  0  0  0  0  0  0  0  0  0
   37.3840   48.1483   40.3549 C   0  0  0  0  0  0  0  0  0  0  0  0
   38.9220   48.9288   42.1729 C   0  0  0  0  0  0  0  0  0  0  0  0
   39.7330   49.3241   37.7648 C   0  0  0  0  0  0  0  0  0  0  0  0
   39.0083   51.5600   35.5829 C   0  0  1  0  0  0  0  0  0  0  0  0
   39.5811   49.2896   39.8642 C   0  0  0  0  0  0  0  0  0  0  0  0
   38.4085   48.6637   39.4392 C   0  0  0  0  0  0  0  0  0  0  0  0
   35.1742   51.3102   44.9284 C   0  0  0  0  0  0  0  0  0  0  0  0
   36.1711   49.0965   43.5166 C   0  0  0  0  0  0  0  0  0  0  0  0
   37.8721   53.0372   34.6836 H   0  0  0  0  0  0  0  0  0  0  0  0
   38.2525   51.8120   33.6732 H   0  0  0  0  0  0  0  0  0  0  0  0
   34.0339   48.9096   35.0166 H   0  0  0  0  0  0  0  0  0  0  0  0
   33.5734   47.5039   35.7085 H   0  0  0  0  0  0  0  0  0  0  0  0
   33.5570   48.8860   36.5782 H   0  0  0  0  0  0  0  0  0  0  0  0
   41.3673   49.1580   43.8494 H   0  0  0  0  0  0  0  0  0  0  0  0
   40.6788   50.6375   43.9094 H   0  0  0  0  0  0  0  0  0  0  0  0
   41.1350   50.9568   41.7181 H   0  0  0  0  0  0  0  0  0  0  0  0
   41.8774   49.5029   41.6743 H   0  0  0  0  0  0  0  0  0  0  0  0
   41.8959   49.8014   35.3536 H   0  0  0  0  0  0  0  0  0  0  0  0
   42.1771   49.7072   36.9594 H   0  0  0  0  0  0  0  0  0  0  0  0
   37.9301   46.7261   37.6817 H   0  0  0  0  0  0  0  0  0  0  0  0
   38.5246   47.4965   36.3703 H   0  0  0  0  0  0  0  0  0  0  0  0
   38.2892   49.5857   35.6473 H   0  0  0  0  0  0  0  0  0  0  0  0
   39.4816   49.7911   34.5506 H   0  0  0  0  0  0  0  0  0  0  0  0
   37.2329   47.3023   43.4938 H   0  0  0  0  0  0  0  0  0  0  0  0
   36.0120   47.3367   42.4098 H   0  0  0  0  0  0  0  0  0  0  0  0
   42.3610   52.0323   36.1079 H   0  0  0  0  0  0  0  0  0  0  0  0
   41.2680   51.8918   37.3130 H   0  0  0  0  0  0  0  0  0  0  0  0
   40.6661   52.1836   34.4818 H   0  0  0  0  0  0  0  0  0  0  0  0
   40.2537   53.2309   35.6650 H   0  0  0  0  0  0  0  0  0  0  0  0
   35.4259   50.1270   46.6267 H   0  0  0  0  0  0  0  0  0  0  0  0
   35.0222   52.2095   43.0000 H   0  0  0  0  0  0  0  0  0  0  0  0
   36.4335   48.2683   45.4289 H   0  0  0  0  0  0  0  0  0  0  0  0
   35.8371   50.2855   41.8126 H   0  0  0  0  0  0  0  0  0  0  0  0
   38.6686   51.7593   36.5021 H   0  0  0  0  0  0  0  0  0  0  0  0
  1 26  2  0  0  0  0
  2 11  3  0  0  0  0
  3 29  1  0  0  0  0
  4 12  1  0  0  0  0
  4 27  2  0  0  0  0
  5 28  2  0  0  0  0
  5 30  1  0  0  0  0
  6 14  1  0  0  0  0
  6 16  1  0  0  0  0
  6 28  1  0  0  0  0
  7 17  1  0  0  0  0
  7 26  1  0  0  0  0
  7 27  1  0  0  0  0
  8 13  1  0  0  0  0
  8 27  1  0  0  0  0
  8 30  1  0  0  0  0
  9 15  1  0  0  0  0
  9 28  1  0  0  0  0
  9 31  1  0  0  0  0
 10 18  1  0  0  0  0
 11 32  1  0  0  0  0
 12 13  1  0  0  0  0
 14 20  1  0  0  0  0
 15 19  1  0  0  0  0
 16 29  1  0  0  0  0
 17 33  1  0  0  0  0
 18 19  3  0  0  0  0
 20 21  1  0  0  0  0
 21 29  1  0  0  0  0
 22 24  1  0  0  0  0
 22 32  2  0  0  0  0
 23 25  2  0  0  0  0
 23 32  1  0  0  0  0
 24 33  2  0  0  0  0
 25 33  1  0  0  0  0
 26 31  1  0  0  0  0
 30 31  2  0  0  0  0
  3 34  1  0  0  0  0
  3 35  1  0  0  0  0
 10 36  1  0  0  0  0
 10 37  1  0  0  0  0
 10 38  1  0  0  0  0
 12 39  1  0  0  0  0
 12 40  1  0  0  0  0
 13 41  1  0  0  0  0
 13 42  1  0  0  0  0
 14 43  1  0  0  0  0
 14 44  1  0  0  0  0
 15 45  1  0  0  0  0
 15 46  1  0  0  0  0
 16 47  1  0  0  0  0
 16 48  1  0  0  0  0
 17 49  1  0  0  0  0
 17 50  1  0  0  0  0
 20 51  1  0  0  0  0
 20 52  1  0  0  0  0
 21 53  1  0  0  0  0
 21 54  1  0  0  0  0
 22 55  1  0  0  0  0
 23 56  1  0  0  0  0
 24 57  1  0  0  0  0
 25 58  1  0  0  0  0
 29 59  1  0  0  0  0
M  END
> <pdb_id>
5T4F

> <uniprot_id>
P27487

> <usmiles>
O=C1N(C2=NCCN2C=3N=C(N(C13)CC#CC)N4C[C@H](N)CCC4)Cc5ccc(C#N)cc5

$$$$
75N_A_810
          07212402213D 1   1.00000     0.00000     0
            
 65 70  0  0  0  0            999 V2000
   36.3430   47.6170   39.9210 O   0  0  0  0  0  0  0  0  0  0  0  0
   37.9580   52.0770   34.6290 N   0  0  0  0  0  0  0  0  0  0  0  0
   39.2620   49.2340   43.3280 N   0  0  0  0  0  0  0  0  0  0  0  0
   40.3390   49.7290   38.7210 N   0  0  0  0  0  0  0  0  0  0  0  0
   35.9280   49.0040   44.6890 N   0  0  0  0  0  0  0  0  0  0  0  0
   35.9050   50.2420   42.6540 N   0  0  0  0  0  0  0  0  0  0  0  0
   40.0890   49.4750   36.3610 N   0  0  0  0  0  0  0  0  0  0  0  0
   37.7020   48.3510   41.6350 N   0  0  0  0  0  0  0  0  0  0  0  0
   39.7640   49.5170   41.1520 N   0  0  0  0  0  0  0  0  0  0  0  0
   38.5430   48.6150   37.9970 N   0  0  0  0  0  0  0  0  0  0  0  0
   33.9760   48.3910   35.7930 C   0  0  0  0  0  0  0  0  0  0  0  0
   35.1200   49.9030   46.7940 C   0  0  0  0  0  0  0  0  0  0  0  0
   40.5720   49.9080   43.2930 C   0  0  0  0  0  0  0  0  0  0  0  0
   40.9600   50.0070   41.8200 C   0  0  0  0  0  0  0  0  0  0  0  0
   41.4080   50.0860   36.1660 C   0  0  0  0  0  0  0  0  0  0  0  0
   37.8300   47.6950   37.1000 C   0  0  0  0  0  0  0  0  0  0  0  0
   39.0830   50.0250   35.4320 C   0  0  0  0  0  0  0  0  0  0  0  0
   36.7380   47.9550   42.6740 C   0  0  0  0  0  0  0  0  0  0  0  0
   35.3410   48.1870   36.2920 C   0  0  0  0  0  0  0  0  0  0  0  0
   36.4560   47.9920   36.6900 C   0  0  0  0  0  0  0  0  0  0  0  0
   41.3150   51.6100   36.3250 C   0  0  0  0  0  0  0  0  0  0  0  0
   34.3820   53.4820   43.2050 C   0  0  0  0  0  0  0  0  0  0  0  0
   34.1260   53.4230   44.5620 C   0  0  0  0  0  0  0  0  0  0  0  0
   40.2910   52.2010   35.3630 C   0  0  0  0  0  0  0  0  0  0  0  0
   34.9910   52.4140   42.5750 C   0  0  0  0  0  0  0  0  0  0  0  0
   34.4770   52.3030   45.2980 C   0  0  0  0  0  0  0  0  0  0  0  0
   37.4130   48.0980   40.2530 C   0  0  0  0  0  0  0  0  0  0  0  0
   38.8560   48.9910   42.0460 C   0  0  0  0  0  0  0  0  0  0  0  0
   39.7090   49.2830   37.6520 C   0  0  0  0  0  0  0  0  0  0  0  0
   36.1490   49.1430   43.3780 C   0  0  0  0  0  0  0  0  0  0  0  0
   38.9520   51.5370   35.5970 C   0  0  1  0  0  0  0  0  0  0  0  0
   39.5490   49.3060   39.7570 C   0  0  0  0  0  0  0  0  0  0  0  0
   35.4060   50.0690   45.3240 C   0  0  0  0  0  0  0  0  0  0  0  0
   35.3400   51.2790   43.2890 C   0  0  0  0  0  0  0  0  0  0  0  0
   38.4360   48.6140   39.3660 C   0  0  0  0  0  0  0  0  0  0  0  0
   35.0740   51.2330   44.6530 C   0  0  0  0  0  0  0  0  0  0  0  0
   37.8815   53.0670   34.7471 H   0  0  0  0  0  0  0  0  0  0  0  0
   38.2570   51.8747   33.6964 H   0  0  0  0  0  0  0  0  0  0  0  0
   33.6858   49.3276   35.9895 H   0  0  0  0  0  0  0  0  0  0  0  0
   33.9555   48.2359   34.8053 H   0  0  0  0  0  0  0  0  0  0  0  0
   33.3566   47.7485   36.2442 H   0  0  0  0  0  0  0  0  0  0  0  0
   34.7372   50.7525   47.1571 H   0  0  0  0  0  0  0  0  0  0  0  0
   34.4641   49.1594   46.9241 H   0  0  0  0  0  0  0  0  0  0  0  0
   35.9689   49.6869   47.2764 H   0  0  0  0  0  0  0  0  0  0  0  0
   41.2510   49.3725   43.7952 H   0  0  0  0  0  0  0  0  0  0  0  0
   40.5032   50.8208   43.6956 H   0  0  0  0  0  0  0  0  0  0  0  0
   41.1586   50.9521   41.5603 H   0  0  0  0  0  0  0  0  0  0  0  0
   41.7515   49.4314   41.6143 H   0  0  0  0  0  0  0  0  0  0  0  0
   41.7399   49.8693   35.2479 H   0  0  0  0  0  0  0  0  0  0  0  0
   42.0447   49.7212   36.8454 H   0  0  0  0  0  0  0  0  0  0  0  0
   37.8096   46.8051   37.5557 H   0  0  0  0  0  0  0  0  0  0  0  0
   38.3733   47.6285   36.2631 H   0  0  0  0  0  0  0  0  0  0  0  0
   38.1981   49.5981   35.6185 H   0  0  0  0  0  0  0  0  0  0  0  0
   39.3598   49.8216   34.4929 H   0  0  0  0  0  0  0  0  0  0  0  0
   37.2056   47.3808   43.3460 H   0  0  0  0  0  0  0  0  0  0  0  0
   35.9990   47.4339   42.2469 H   0  0  0  0  0  0  0  0  0  0  0  0
   42.2106   52.0132   36.1368 H   0  0  0  0  0  0  0  0  0  0  0  0
   41.0434   51.8244   37.2632 H   0  0  0  0  0  0  0  0  0  0  0  0
   34.1273   54.2948   42.6812 H   0  0  0  0  0  0  0  0  0  0  0  0
   33.6834   54.1959   45.0167 H   0  0  0  0  0  0  0  0  0  0  0  0
   40.5846   52.0399   34.4208 H   0  0  0  0  0  0  0  0  0  0  0  0
   40.2096   53.1847   35.5232 H   0  0  0  0  0  0  0  0  0  0  0  0
   35.1817   52.4605   41.5945 H   0  0  0  0  0  0  0  0  0  0  0  0
   34.3016   52.2678   46.2819 H   0  0  0  0  0  0  0  0  0  0  0  0
   38.6453   51.7388   36.5272 H   0  0  0  0  0  0  0  0  0  0  0  0
  1 27  2  0  0  0  0
  2 31  1  0  0  0  0
  3 13  1  0  0  0  0
  3 28  2  0  0  0  0
  4 29  2  0  0  0  0
  4 32  1  0  0  0  0
  5 30  2  0  0  0  0
  5 33  1  0  0  0  0
  6 30  1  0  0  0  0
  6 34  2  0  0  0  0
  7 15  1  0  0  0  0
  7 17  1  0  0  0  0
  7 29  1  0  0  0  0
  8 18  1  0  0  0  0
  8 27  1  0  0  0  0
  8 28  1  0  0  0  0
  9 14  1  0  0  0  0
  9 28  1  0  0  0  0
  9 32  1  0  0  0  0
 10 16  1  0  0  0  0
 10 29  1  0  0  0  0
 10 35  1  0  0  0  0
 11 19  1  0  0  0  0
 12 33  1  0  0  0  0
 13 14  1  0  0  0  0
 15 21  1  0  0  0  0
 16 20  1  0  0  0  0
 17 31  1  0  0  0  0
 18 30  1  0  0  0  0
 19 20  3  0  0  0  0
 21 24  1  0  0  0  0
 22 23  1  0  0  0  0
 22 25  2  0  0  0  0
 23 26  2  0  0  0  0
 24 31  1  0  0  0  0
 25 34  1  0  0  0  0
 26 36  1  0  0  0  0
 27 35  1  0  0  0  0
 32 35  2  0  0  0  0
 33 36  2  0  0  0  0
 34 36  1  0  0  0  0
  2 37  1  0  0  0  0
  2 38  1  0  0  0  0
 11 39  1  0  0  0  0
 11 40  1  0  0  0  0
 11 41  1  0  0  0  0
 12 42  1  0  0  0  0
 12 43  1  0  0  0  0
 12 44  1  0  0  0  0
 13 45  1  0  0  0  0
 13 46  1  0  0  0  0
 14 47  1  0  0  0  0
 14 48  1  0  0  0  0
 15 49  1  0  0  0  0
 15 50  1  0  0  0  0
 16 51  1  0  0  0  0
 16 52  1  0  0  0  0
 17 53  1  0  0  0  0
 17 54  1  0  0  0  0
 18 55  1  0  0  0  0
 18 56  1  0  0  0  0
 21 57  1  0  0  0  0
 21 58  1  0  0  0  0
 22 59  1  0  0  0  0
 23 60  1  0  0  0  0
 24 61  1  0  0  0  0
 24 62  1  0  0  0  0
 25 63  1  0  0  0  0
 26 64  1  0  0  0  0
 31 65  1  0  0  0  0
M  END
> <pdb_id>
5T4B

> <uniprot_id>
P27487

> <usmiles>
O=C1N(C2=NCCN2C=3N=C(N(C13)CC#CC)N4C[C@H](N)CCC4)Cc5nc6c(c(n5)C)cccc6

$$$$
75S_A_502
          07192422553D 1   1.00000     0.00000     0
            
 51 54  0  0  0  0            999 V2000
   -0.6949    1.8729  -28.7934 Cl  0  0  0  0  0  0  0  0  0  0  0  0
    1.2629   -2.9448  -27.2367 Cl  0  0  0  0  0  0  0  0  0  0  0  0
    0.0887   -1.0585  -29.1943 O   0  0  0  0  0  0  0  0  0  0  0  0
    2.0551   -1.8189  -18.9815 N   0  0  0  0  0  0  0  0  0  0  0  0
    1.1002    1.9863  -21.3045 N   0  0  0  0  0  0  0  0  0  0  0  0
   -3.3153   -3.8823  -27.3092 N   0  0  0  0  0  0  0  0  0  0  0  0
    0.4462    0.0086  -20.3318 N   0  0  0  0  0  0  0  0  0  0  0  0
   -2.1652   -4.2956  -29.4147 C   0  0  0  0  0  0  0  0  0  0  0  0
   -1.5281   -1.2852  -29.4636 C   0  0  0  0  0  0  0  0  0  0  0  0
    2.2366   -0.4266  -18.7191 C   0  0  0  0  0  0  0  0  0  0  0  0
    1.7364   -2.0362  -20.4306 C   0  0  0  0  0  0  0  0  0  0  0  0
   -3.8753   -3.1239  -26.3584 C   0  0  0  0  0  0  0  0  0  0  0  0
    1.4001    2.7182  -22.4133 C   0  0  0  0  0  0  0  0  0  0  0  0
    0.9022    0.3215  -19.0205 C   0  0  0  0  0  0  0  0  0  0  0  0
    0.2974   -1.4750  -20.6129 C   0  0  0  0  0  0  0  0  0  0  0  0
   -3.6323   -1.7523  -26.3904 C   0  0  0  0  0  0  0  0  0  0  0  0
    1.2038    2.2646  -23.7217 C   0  0  0  0  0  0  0  0  0  0  0  0
   -2.8965   -1.1565  -27.3970 C   0  0  0  0  0  0  0  0  0  0  0  0
    0.0986    1.2560  -26.2560 C   0  0  0  0  0  0  0  0  0  0  0  0
    0.9987   -0.8398  -25.5542 C   0  0  0  0  0  0  0  0  0  0  0  0
    0.5192    0.2541  -22.7662 C   0  0  0  0  0  0  0  0  0  0  0  0
   -0.0477    0.7637  -27.5853 C   0  0  0  0  0  0  0  0  0  0  0  0
    0.8361   -1.3051  -26.8922 C   0  0  0  0  0  0  0  0  0  0  0  0
    0.6992    0.7567  -21.4561 C   0  0  0  0  0  0  0  0  0  0  0  0
    0.2827   -0.5194  -27.9065 C   0  0  0  0  0  0  0  0  0  0  0  0
   -2.6575   -3.3135  -28.3545 C   0  0  0  0  0  0  0  0  0  0  0  0
   -2.3800   -1.9184  -28.4366 C   0  0  0  0  0  0  0  0  0  0  0  0
    0.7424    0.9773  -23.9056 C   0  0  0  0  0  0  0  0  0  0  0  0
    0.6190    0.4639  -25.2321 C   0  0  0  0  0  0  0  0  0  0  0  0
    1.3018   -2.1649  -18.4222 H   0  0  0  0  0  0  0  0  0  0  0  0
   -1.6959   -3.7941  -30.1415 H   0  0  0  0  0  0  0  0  0  0  0  0
   -1.5322   -4.9474  -28.9971 H   0  0  0  0  0  0  0  0  0  0  0  0
   -2.9452   -4.7887  -29.8001 H   0  0  0  0  0  0  0  0  0  0  0  0
   -1.6047   -1.8489  -30.2861 H   0  0  0  0  0  0  0  0  0  0  0  0
   -1.9179   -0.3816  -29.6413 H   0  0  0  0  0  0  0  0  0  0  0  0
    2.9631   -0.0665  -19.3044 H   0  0  0  0  0  0  0  0  0  0  0  0
    2.4858   -0.2955  -17.7596 H   0  0  0  0  0  0  0  0  0  0  0  0
    1.7650   -3.0103  -20.6549 H   0  0  0  0  0  0  0  0  0  0  0  0
    2.3830   -1.5413  -21.0111 H   0  0  0  0  0  0  0  0  0  0  0  0
   -4.4500   -3.5292  -25.6475 H   0  0  0  0  0  0  0  0  0  0  0  0
    1.7828    3.6330  -22.2844 H   0  0  0  0  0  0  0  0  0  0  0  0
    0.2099    0.0425  -18.3550 H   0  0  0  0  0  0  0  0  0  0  0  0
    1.0537    1.3075  -18.9504 H   0  0  0  0  0  0  0  0  0  0  0  0
   -0.0293   -1.6295  -21.5453 H   0  0  0  0  0  0  0  0  0  0  0  0
   -0.3345   -1.8985  -19.9638 H   0  0  0  0  0  0  0  0  0  0  0  0
   -4.0032   -1.1792  -25.6597 H   0  0  0  0  0  0  0  0  0  0  0  0
    1.3930    2.8581  -24.5040 H   0  0  0  0  0  0  0  0  0  0  0  0
   -2.7348   -0.1698  -27.3765 H   0  0  0  0  0  0  0  0  0  0  0  0
   -0.1793    2.1945  -26.0515 H   0  0  0  0  0  0  0  0  0  0  0  0
    1.3811   -1.4419  -24.8533 H   0  0  0  0  0  0  0  0  0  0  0  0
    0.2086   -0.6912  -22.8657 H   0  0  0  0  0  0  0  0  0  0  0  0
  1 22  1  0  0  0  0
  2 23  1  0  0  0  0
  3  9  1  0  0  0  0
  3 25  1  0  0  0  0
  4 10  1  0  0  0  0
  4 11  1  0  0  0  0
  5 13  1  0  0  0  0
  5 24  2  0  0  0  0
  6 12  2  0  0  0  0
  6 26  1  0  0  0  0
  7 14  1  0  0  0  0
  7 15  1  0  0  0  0
  7 24  1  0  0  0  0
  8 26  1  0  0  0  0
  9 27  1  0  0  0  0
 10 14  1  0  0  0  0
 11 15  1  0  0  0  0
 12 16  1  0  0  0  0
 13 17  2  0  0  0  0
 16 18  2  0  0  0  0
 17 28  1  0  0  0  0
 18 27  1  0  0  0  0
 19 22  2  0  0  0  0
 19 29  1  0  0  0  0
 20 23  1  0  0  0  0
 20 29  2  0  0  0  0
 21 24  1  0  0  0  0
 21 28  2  0  0  0  0
 22 25  1  0  0  0  0
 23 25  2  0  0  0  0
 26 27  2  0  0  0  0
 28 29  1  0  0  0  0
  4 30  1  0  0  0  0
  8 31  1  0  0  0  0
  8 32  1  0  0  0  0
  8 33  1  0  0  0  0
  9 34  1  0  0  0  0
  9 35  1  0  0  0  0
 10 36  1  0  0  0  0
 10 37  1  0  0  0  0
 11 38  1  0  0  0  0
 11 39  1  0  0  0  0
 12 40  1  0  0  0  0
 13 41  1  0  0  0  0
 14 42  1  0  0  0  0
 14 43  1  0  0  0  0
 15 44  1  0  0  0  0
 15 45  1  0  0  0  0
 16 46  1  0  0  0  0
 17 47  1  0  0  0  0
 18 48  1  0  0  0  0
 19 49  1  0  0  0  0
 20 50  1  0  0  0  0
 21 51  1  0  0  0  0
M  END
> <pdb_id>
5T6C

> <uniprot_id>
Q9UVX3

> <usmiles>
Clc1c(OCc2c(nccc2)C)c(Cl)cc(c3cc(ncc3)N4CCNCC4)c1

$$$$
762_A_246
          07192419343D 1   1.00000     0.00000     0
            
 42 45  0  0  0  0            999 V2000
   44.1838   17.1325   51.3006 Cl  0  0  0  0  0  0  0  0  0  0  0  0
   45.2901   22.9987   47.0610 O   0  0  0  0  0  0  0  0  0  0  0  0
   47.2362   18.4617   54.2391 N   0  0  0  0  0  0  0  0  0  0  0  0
   46.4366   16.7799   52.9189 N   0  3  0  0  0  0  0  0  0  0  0  0
   47.1222   22.1949   50.6231 N   0  0  0  0  0  0  0  0  0  0  0  0
   45.5211   21.7002   49.2258 N   0  0  0  0  0  0  0  0  0  0  0  0
   44.4463   25.9063   43.2239 C   0  0  0  0  0  0  0  0  0  0  0  0
   45.8164   25.9700   43.4084 C   0  0  0  0  0  0  0  0  0  0  0  0
   43.6284   25.6193   44.2918 C   0  0  0  0  0  0  0  0  0  0  0  0
   47.3804   26.1321   48.8641 C   0  0  0  0  0  0  0  0  0  0  0  0
   46.3699   25.7512   44.6713 C   0  0  0  0  0  0  0  0  0  0  0  0
   44.1659   25.4118   45.5612 C   0  0  0  0  0  0  0  0  0  0  0  0
   47.2732   24.8968   49.5113 C   0  0  0  0  0  0  0  0  0  0  0  0
   46.7914   26.3233   47.6303 C   0  0  0  0  0  0  0  0  0  0  0  0
   44.8822   19.5062   50.1495 C   0  0  0  0  0  0  0  0  0  0  0  0
   46.9448   20.1518   51.9251 C   0  0  0  0  0  0  0  0  0  0  0  0
   45.2060   18.6014   51.1865 C   0  0  0  0  0  0  0  0  0  0  0  0
   46.6598   18.0510   53.1302 C   0  0  0  0  0  0  0  0  0  0  0  0
   45.9965   24.0356   47.6558 C   0  0  0  0  0  0  0  0  0  0  0  0
   46.4414   22.5792   49.5533 C   0  0  0  0  0  0  0  0  0  0  0  0
   46.5794   21.0148   50.8798 C   0  0  0  0  0  0  0  0  0  0  0  0
   45.5943   20.6901   50.0370 C   0  0  0  0  0  0  0  0  0  0  0  0
   45.5384   25.4797   45.7581 C   0  0  0  0  0  0  0  0  0  0  0  0
   46.2631   18.9332   52.0927 C   0  0  0  0  0  0  0  0  0  0  0  0
   46.5771   23.8314   48.9126 C   0  0  0  0  0  0  0  0  0  0  0  0
   46.1092   25.2757   47.0131 C   0  0  0  0  0  0  0  0  0  0  0  0
   47.4192   19.4493   54.3416 H   0  0  0  0  0  0  0  0  0  0  0  0
   47.5271   17.8857   55.0013 H   0  0  0  0  0  0  0  0  0  0  0  0
   45.9638   16.5285   52.0663 H   0  0  0  0  0  0  0  0  0  0  0  0
   46.6658   16.0495   53.5533 H   0  0  0  0  0  0  0  0  0  0  0  0
   44.9426   21.8379   48.4328 H   0  0  0  0  0  0  0  0  0  0  0  0
   44.0264   26.0730   42.2446 H   0  0  0  0  0  0  0  0  0  0  0  0
   46.4668   26.1886   42.5693 H   0  0  0  0  0  0  0  0  0  0  0  0
   42.5626   25.5799   44.1444 H   0  0  0  0  0  0  0  0  0  0  0  0
   47.9117   26.9543   49.3255 H   0  0  0  0  0  0  0  0  0  0  0  0
   47.4411   25.8126   44.8059 H   0  0  0  0  0  0  0  0  0  0  0  0
   43.5136   25.2033   46.3945 H   0  0  0  0  0  0  0  0  0  0  0  0
   47.7321   24.7814   50.4796 H   0  0  0  0  0  0  0  0  0  0  0  0
   46.8932   27.2845   47.1399 H   0  0  0  0  0  0  0  0  0  0  0  0
   44.0942   19.2942   49.4426 H   0  0  0  0  0  0  0  0  0  0  0  0
   47.7379   20.4452   52.5972 H   0  0  0  0  0  0  0  0  0  0  0  0
   44.8699   23.1304   46.1632 H   0  0  0  0  0  0  0  0  0  0  0  0
  1 17  1  0  0  0  0
  2 19  1  0  0  0  0
  3 18  1  0  0  0  0
  3 27  1  0  0  0  0
  3 28  1  0  0  0  0
  4 18  2  0  0  0  0
  4 29  1  0  0  0  0
  4 30  1  0  0  0  0
  5 20  2  0  0  0  0
  5 21  1  0  0  0  0
  6 20  1  0  0  0  0
  6 22  1  0  0  0  0
  6 31  1  0  0  0  0
  7  8  2  0  0  0  0
  7  9  1  0  0  0  0
  7 32  1  0  0  0  0
  8 11  1  0  0  0  0
  8 33  1  0  0  0  0
  9 12  2  0  0  0  0
  9 34  1  0  0  0  0
 10 13  2  0  0  0  0
 10 14  1  0  0  0  0
 10 35  1  0  0  0  0
 11 23  2  0  0  0  0
 11 36  1  0  0  0  0
 12 23  1  0  0  0  0
 12 37  1  0  0  0  0
 13 25  1  0  0  0  0
 13 38  1  0  0  0  0
 14 26  2  0  0  0  0
 14 39  1  0  0  0  0
 15 17  1  0  0  0  0
 15 22  2  0  0  0  0
 15 40  1  0  0  0  0
 16 21  2  0  0  0  0
 16 24  1  0  0  0  0
 16 41  1  0  0  0  0
 17 24  2  0  0  0  0
 18 24  1  0  0  0  0
 19 25  2  0  0  0  0
 19 26  1  0  0  0  0
 20 25  1  0  0  0  0
 21 22  1  0  0  0  0
 23 26  1  0  0  0  0
  2 42  1  0  0  0  0
M  CHG  1   4   1
M  END
> <pdb_id>
1O2N

> <uniprot_id>
P00760

> <usmiles>
Clc1c(cc2N=C(Nc2c1)c3c(O)c(c4ccccc4)ccc3)C(=[NH2+])N

$$$$
76D_A_201
          07202409203D 1   1.00000     0.00000     0
            
 42 42  0  0  0  0            999 V2000
    3.0153    7.7374   16.1322 O   0  0  0  0  0  0  0  0  0  0  0  0
    4.0262    5.7642   16.0020 O   0  0  0  0  0  0  0  0  0  0  0  0
    4.1352    6.6307   23.2695 C   0  0  0  0  0  0  0  0  0  0  0  0
    6.4939    7.4795   22.6432 C   0  0  0  0  0  0  0  0  0  0  0  0
    6.5521    9.4514   17.4681 C   0  0  0  0  0  0  0  0  0  0  0  0
    7.5204    7.0816   17.3728 C   0  0  0  0  0  0  0  0  0  0  0  0
    1.7253    4.4774   19.2668 C   0  0  0  0  0  0  0  0  0  0  0  0
    0.5771    6.7547   19.0375 C   0  0  0  0  0  0  0  0  0  0  0  0
    5.5730    7.6938   19.8345 C   0  0  0  0  0  0  0  0  0  0  0  0
    3.4566    6.6914   20.4525 C   0  0  0  0  0  0  0  0  0  0  0  0
    3.6830    6.7862   16.6604 C   0  0  0  0  0  0  0  0  0  0  0  0
    5.0086    7.4665   22.3280 C   0  0  0  0  0  0  0  0  0  0  0  0
    6.2323    7.9845   17.3963 C   0  0  0  0  0  0  0  0  0  0  0  0
    1.8352    5.8906   18.7297 C   0  0  0  0  0  0  0  0  0  0  0  0
    4.6625    7.2775   20.8116 C   0  0  0  0  0  0  0  0  0  0  0  0
    5.2457    7.5284   18.4971 C   0  0  0  0  0  0  0  0  0  0  0  0
    3.1282    6.5290   19.1201 C   0  0  0  0  0  0  0  0  0  0  0  0
    4.0468    6.9385   18.1491 C   0  0  0  0  0  0  0  0  0  0  0  0
    2.7591    8.5332   16.6809 H   0  0  0  0  0  0  0  0  0  0  0  0
    3.1805    6.6882   22.9774 H   0  0  0  0  0  0  0  0  0  0  0  0
    4.4349    5.6770   23.2433 H   0  0  0  0  0  0  0  0  0  0  0  0
    4.2202    6.9813   24.2021 H   0  0  0  0  0  0  0  0  0  0  0  0
    6.9715    8.0495   21.9747 H   0  0  0  0  0  0  0  0  0  0  0  0
    6.6368    7.8508   23.5606 H   0  0  0  0  0  0  0  0  0  0  0  0
    6.8515    6.5465   22.6018 H   0  0  0  0  0  0  0  0  0  0  0  0
    5.7020    9.9777   17.4805 H   0  0  0  0  0  0  0  0  0  0  0  0
    7.0723    9.6387   18.3014 H   0  0  0  0  0  0  0  0  0  0  0  0
    7.0950    9.7136   16.6703 H   0  0  0  0  0  0  0  0  0  0  0  0
    7.2522    6.1194   17.3248 H   0  0  0  0  0  0  0  0  0  0  0  0
    8.0753    7.3132   16.5737 H   0  0  0  0  0  0  0  0  0  0  0  0
    8.0525    7.2382   18.2048 H   0  0  0  0  0  0  0  0  0  0  0  0
    2.5569    3.9696   19.0417 H   0  0  0  0  0  0  0  0  0  0  0  0
    1.6109    4.5061   20.2599 H   0  0  0  0  0  0  0  0  0  0  0  0
    0.9357    4.0241   18.8533 H   0  0  0  0  0  0  0  0  0  0  0  0
    0.7035    7.6729   18.6621 H   0  0  0  0  0  0  0  0  0  0  0  0
   -0.2276    6.3320   18.6208 H   0  0  0  0  0  0  0  0  0  0  0  0
    0.4476    6.8141   20.0273 H   0  0  0  0  0  0  0  0  0  0  0  0
    6.4465    8.1042   20.0964 H   0  0  0  0  0  0  0  0  0  0  0  0
    2.8221    6.3848   21.1620 H   0  0  0  0  0  0  0  0  0  0  0  0
    4.7221    8.4058   22.5170 H   0  0  0  0  0  0  0  0  0  0  0  0
    5.7685    7.8385   16.5225 H   0  0  0  0  0  0  0  0  0  0  0  0
    1.8663    5.8011   17.7342 H   0  0  0  0  0  0  0  0  0  0  0  0
  1 11  1  0  0  0  0
  2 11  2  0  0  0  0
  3 12  1  0  0  0  0
  4 12  1  0  0  0  0
  5 13  1  0  0  0  0
  6 13  1  0  0  0  0
  7 14  1  0  0  0  0
  8 14  1  0  0  0  0
  9 15  2  0  0  0  0
  9 16  1  0  0  0  0
 10 15  1  0  0  0  0
 10 17  2  0  0  0  0
 11 18  1  0  0  0  0
 12 15  1  0  0  0  0
 13 16  1  0  0  0  0
 14 17  1  0  0  0  0
 16 18  2  0  0  0  0
 17 18  1  0  0  0  0
  1 19  1  0  0  0  0
  3 20  1  0  0  0  0
  3 21  1  0  0  0  0
  3 22  1  0  0  0  0
  4 23  1  0  0  0  0
  4 24  1  0  0  0  0
  4 25  1  0  0  0  0
  5 26  1  0  0  0  0
  5 27  1  0  0  0  0
  5 28  1  0  0  0  0
  6 29  1  0  0  0  0
  6 30  1  0  0  0  0
  6 31  1  0  0  0  0
  7 32  1  0  0  0  0
  7 33  1  0  0  0  0
  7 34  1  0  0  0  0
  8 35  1  0  0  0  0
  8 36  1  0  0  0  0
  8 37  1  0  0  0  0
  9 38  1  0  0  0  0
 10 39  1  0  0  0  0
 12 40  1  0  0  0  0
 13 41  1  0  0  0  0
 14 42  1  0  0  0  0
M  END
> <pdb_id>
4NNT

> <uniprot_id>
P15090

> <usmiles>
O=C(O)c1c(cc(cc1C(C)C)C(C)C)C(C)C

$$$$
76Z_B_704
          07202415253D 1   1.00000     0.00000     0
            
 40 42  0  0  0  0            999 V2000
   28.4063   55.4915   11.2072 O   0  0  0  0  0  0  0  0  0  0  0  0
   26.3854   57.4333    0.4474 O   0  0  0  0  0  0  0  0  0  0  0  0
   30.4652   51.6142    5.4785 O   0  0  0  0  0  0  0  0  0  0  0  0
   27.6969   56.7755    9.5417 N   0  0  0  0  0  0  0  0  0  0  0  0
   28.7023   54.8725    7.7031 N   0  0  0  0  0  0  0  0  0  0  0  0
   29.7141   52.9766    8.0126 N   0  0  0  0  0  0  0  0  0  0  0  0
   27.5725   59.1464    1.6433 C   0  0  0  0  0  0  0  0  0  0  0  0
   25.5015   58.1069    2.5677 C   0  0  0  0  0  0  0  0  0  0  0  0
   29.9078   50.9592    6.6169 C   0  0  0  0  0  0  0  0  0  0  0  0
   30.4075   51.6938    7.8509 C   0  0  0  0  0  0  0  0  0  0  0  0
   29.4329   53.4982    9.2200 C   0  0  0  0  0  0  0  0  0  0  0  0
   29.8507   52.7674    3.5021 C   0  0  0  0  0  0  0  0  0  0  0  0
   29.2728   53.8547    2.8433 C   0  0  0  0  0  0  0  0  0  0  0  0
   28.1450   55.9147    2.9583 C   0  0  0  0  0  0  0  0  0  0  0  0
   28.7257   54.8426    4.9512 C   0  0  0  0  0  0  0  0  0  0  0  0
   27.5585   56.8112    2.4336 C   0  0  0  0  0  0  0  0  0  0  0  0
   28.2740   55.6770   10.0105 C   0  0  0  0  0  0  0  0  0  0  0  0
   29.8704   52.7117    4.9055 C   0  0  0  0  0  0  0  0  0  0  0  0
   29.2664   53.8289    7.0566 C   0  0  0  0  0  0  0  0  0  0  0  0
   28.7853   54.6973    9.0193 C   0  0  0  0  0  0  0  0  0  0  0  0
   28.7119   54.9083    3.5639 C   0  0  0  0  0  0  0  0  0  0  0  0
   29.3032   53.7644    5.6490 C   0  0  0  0  0  0  0  0  0  0  0  0
   26.7635   57.8616    1.7603 C   0  0  0  0  0  0  0  0  0  0  0  0
   25.8530   56.5893    0.5125 H   0  0  0  0  0  0  0  0  0  0  0  0
   27.5989   56.9068    8.5552 H   0  0  0  0  0  0  0  0  0  0  0  0
   27.3599   57.4724   10.1748 H   0  0  0  0  0  0  0  0  0  0  0  0
   27.8422   59.4548    2.5555 H   0  0  0  0  0  0  0  0  0  0  0  0
   28.3904   58.9763    1.0936 H   0  0  0  0  0  0  0  0  0  0  0  0
   27.0163   59.8517    1.2038 H   0  0  0  0  0  0  0  0  0  0  0  0
   25.7482   58.4073    3.4890 H   0  0  0  0  0  0  0  0  0  0  0  0
   24.9530   58.8145    2.1221 H   0  0  0  0  0  0  0  0  0  0  0  0
   24.9718   57.2605    2.6237 H   0  0  0  0  0  0  0  0  0  0  0  0
   30.2057   50.0049    6.6426 H   0  0  0  0  0  0  0  0  0  0  0  0
   28.9092   50.9956    6.5778 H   0  0  0  0  0  0  0  0  0  0  0  0
   30.2416   51.1279    8.6585 H   0  0  0  0  0  0  0  0  0  0  0  0
   31.3888   51.8616    7.7572 H   0  0  0  0  0  0  0  0  0  0  0  0
   29.6544   53.0888   10.1050 H   0  0  0  0  0  0  0  0  0  0  0  0
   30.2538   52.0225    2.9705 H   0  0  0  0  0  0  0  0  0  0  0  0
   29.2611   53.8779    1.8437 H   0  0  0  0  0  0  0  0  0  0  0  0
   28.3106   55.5878    5.4732 H   0  0  0  0  0  0  0  0  0  0  0  0
  1 17  2  0  0  0  0
  2 23  1  0  0  0  0
  3  9  1  0  0  0  0
  3 18  1  0  0  0  0
  4 17  1  0  0  0  0
  5 19  2  0  0  0  0
  5 20  1  0  0  0  0
  6 10  1  0  0  0  0
  6 11  1  0  0  0  0
  6 19  1  0  0  0  0
  7 23  1  0  0  0  0
  8 23  1  0  0  0  0
  9 10  1  0  0  0  0
 11 20  2  0  0  0  0
 12 13  1  0  0  0  0
 12 18  2  0  0  0  0
 13 21  2  0  0  0  0
 14 16  3  0  0  0  0
 14 21  1  0  0  0  0
 15 21  1  0  0  0  0
 15 22  2  0  0  0  0
 16 23  1  0  0  0  0
 17 20  1  0  0  0  0
 18 22  1  0  0  0  0
 19 22  1  0  0  0  0
  2 24  1  0  0  0  0
  4 25  1  0  0  0  0
  4 26  1  0  0  0  0
  7 27  1  0  0  0  0
  7 28  1  0  0  0  0
  7 29  1  0  0  0  0
  8 30  1  0  0  0  0
  8 31  1  0  0  0  0
  8 32  1  0  0  0  0
  9 33  1  0  0  0  0
  9 34  1  0  0  0  0
 10 35  1  0  0  0  0
 10 36  1  0  0  0  0
 11 37  1  0  0  0  0
 12 38  1  0  0  0  0
 13 39  1  0  0  0  0
 15 40  1  0  0  0  0
M  END
> <pdb_id>
5T8O

> <uniprot_id>
Q9WUL6

> <usmiles>
O=C(N)C=1N=C2N(C1)CCOc3c2cc(C#CC(O)(C)C)cc3

$$$$
774_B_703
          07202415253D 1   1.00000     0.00000     0
            
 27 29  0  0  0  0            999 V2000
   28.6120   55.3870    5.1186 S   0  0  0  0  0  0  0  0  0  0  0  0
   28.5602   55.5233   11.2185 O   0  0  0  0  0  0  0  0  0  0  0  0
   30.3662   51.4172    6.8828 O   0  0  0  0  0  0  0  0  0  0  0  0
   27.9586   56.6318    9.2907 N   0  0  0  0  0  0  0  0  0  0  0  0
   28.8702   54.6361    7.8410 N   0  0  0  0  0  0  0  0  0  0  0  0
   28.6824   54.9556    3.4557 C   0  0  0  0  0  0  0  0  0  0  0  0
   29.4389   50.9617    5.9052 C   0  0  0  0  0  0  0  0  0  0  0  0
   29.0950   53.6462    3.3208 C   0  0  0  0  0  0  0  0  0  0  0  0
   30.0251   52.3680    8.9783 C   0  0  0  0  0  0  0  0  0  0  0  0
   29.8072   51.6272    4.6138 C   0  0  0  0  0  0  0  0  0  0  0  0
   29.5760   53.3936    9.7793 C   0  0  0  0  0  0  0  0  0  0  0  0
   28.5138   55.5919    9.9992 C   0  0  0  0  0  0  0  0  0  0  0  0
   29.1416   53.8444    5.6558 C   0  0  0  0  0  0  0  0  0  0  0  0
   29.8811   52.4833    7.6149 C   0  0  0  0  0  0  0  0  0  0  0  0
   29.0144   54.4907    9.1625 C   0  0  0  0  0  0  0  0  0  0  0  0
   29.3544   53.0148    4.5666 C   0  0  0  0  0  0  0  0  0  0  0  0
   29.3054   53.6254    7.0778 C   0  0  0  0  0  0  0  0  0  0  0  0
   27.9603   56.6128    8.2908 H   0  0  0  0  0  0  0  0  0  0  0  0
   27.5532   57.4069    9.7753 H   0  0  0  0  0  0  0  0  0  0  0  0
   28.4568   55.5657    2.6961 H   0  0  0  0  0  0  0  0  0  0  0  0
   28.5083   51.2148    6.1695 H   0  0  0  0  0  0  0  0  0  0  0  0
   29.4998   49.9682    5.8098 H   0  0  0  0  0  0  0  0  0  0  0  0
   29.2005   53.1890    2.4377 H   0  0  0  0  0  0  0  0  0  0  0  0
   30.4476   51.5553    9.3796 H   0  0  0  0  0  0  0  0  0  0  0  0
   29.3858   51.1240    3.8593 H   0  0  0  0  0  0  0  0  0  0  0  0
   30.8019   51.6083    4.5127 H   0  0  0  0  0  0  0  0  0  0  0  0
   29.6546   53.3443   10.7749 H   0  0  0  0  0  0  0  0  0  0  0  0
  1  6  1  0  0  0  0
  1 13  1  0  0  0  0
  2 12  2  0  0  0  0
  3  7  1  0  0  0  0
  3 14  1  0  0  0  0
  4 12  1  0  0  0  0
  5 15  2  0  0  0  0
  5 17  1  0  0  0  0
  6  8  2  0  0  0  0
  7 10  1  0  0  0  0
  8 16  1  0  0  0  0
  9 11  2  0  0  0  0
  9 14  1  0  0  0  0
 10 16  1  0  0  0  0
 11 15  1  0  0  0  0
 12 15  1  0  0  0  0
 13 16  2  0  0  0  0
 13 17  1  0  0  0  0
 14 17  2  0  0  0  0
  4 18  1  0  0  0  0
  4 19  1  0  0  0  0
  6 20  1  0  0  0  0
  7 21  1  0  0  0  0
  7 22  1  0  0  0  0
  8 23  1  0  0  0  0
  9 24  1  0  0  0  0
 10 25  1  0  0  0  0
 10 26  1  0  0  0  0
 11 27  1  0  0  0  0
M  END
> <pdb_id>
5T8P

> <uniprot_id>
Q9WUL6

> <usmiles>
S1C=2c3nc(ccc3OCCC2C=C1)C(=O)N

$$$$
775_B_402
          07192417023D 1   1.00000     0.00000     0
            
 40 42  0  0  0  0            999 V2000
  -12.9263   49.6679   19.0041 Cl  0  0  0  0  0  0  0  0  0  0  0  0
   -8.1686   41.9648   25.6402 O   0  0  0  0  0  0  0  0  0  0  0  0
  -10.2953   41.6716   18.9849 N   0  0  0  0  0  0  0  0  0  0  0  0
   -9.7069   42.9856   23.5601 N   0  0  0  0  0  0  0  0  0  0  0  0
  -11.1210   44.0799   21.9726 N   0  0  0  0  0  0  0  0  0  0  0  0
   -8.0708   40.3039   21.9694 N   0  0  0  0  0  0  0  0  0  0  0  0
   -8.8741   41.9253   23.4589 N   0  0  0  0  0  0  0  0  0  0  0  0
   -4.3237   39.9281   22.4286 C   0  0  0  0  0  0  0  0  0  0  0  0
  -10.0206   41.8823   20.0941 C   0  0  0  0  0  0  0  0  0  0  0  0
  -11.4361   45.2666   22.7982 C   0  0  0  0  0  0  0  0  0  0  0  0
   -5.3125   39.0477   21.6847 C   0  0  0  0  0  0  0  0  0  0  0  0
  -13.5131   47.6422   20.7387 C   0  0  0  0  0  0  0  0  0  0  0  0
  -11.2008   48.1268   20.4056 C   0  0  0  0  0  0  0  0  0  0  0  0
   -6.4510   38.5996   22.5919 C   0  0  0  0  0  0  0  0  0  0  0  0
  -13.1832   46.6251   21.6148 C   0  0  0  0  0  0  0  0  0  0  0  0
  -10.8665   47.1156   21.2788 C   0  0  0  0  0  0  0  0  0  0  0  0
   -7.3109   40.3064   24.1957 C   0  0  0  0  0  0  0  0  0  0  0  0
   -8.1210   41.4486   24.5336 C   0  0  0  0  0  0  0  0  0  0  0  0
  -12.5273   48.3922   20.1313 C   0  0  0  0  0  0  0  0  0  0  0  0
  -10.2262   43.1122   22.3317 C   0  0  0  0  0  0  0  0  0  0  0  0
   -8.8576   41.3709   22.2167 C   0  0  0  0  0  0  0  0  0  0  0  0
   -7.2839   39.7616   22.9715 C   0  0  0  0  0  0  0  0  0  0  0  0
  -11.8505   46.3656   21.8879 C   0  0  0  0  0  0  0  0  0  0  0  0
   -9.7169   42.1245   21.4547 C   0  0  0  0  0  0  0  0  0  0  0  0
  -11.5928   43.9799   21.0965 H   0  0  0  0  0  0  0  0  0  0  0  0
   -8.0556   39.9008   21.0544 H   0  0  0  0  0  0  0  0  0  0  0  0
   -3.5906   40.2047   21.8073 H   0  0  0  0  0  0  0  0  0  0  0  0
   -4.7941   40.7410   22.7720 H   0  0  0  0  0  0  0  0  0  0  0  0
   -3.9355   39.4183   23.1963 H   0  0  0  0  0  0  0  0  0  0  0  0
  -10.6272   45.5431   23.3170 H   0  0  0  0  0  0  0  0  0  0  0  0
  -12.1803   45.0516   23.4306 H   0  0  0  0  0  0  0  0  0  0  0  0
   -4.8338   38.2400   21.3405 H   0  0  0  0  0  0  0  0  0  0  0  0
   -5.6924   39.5626   20.9162 H   0  0  0  0  0  0  0  0  0  0  0  0
  -14.4745   47.8360   20.5436 H   0  0  0  0  0  0  0  0  0  0  0  0
  -10.4822   48.6690   19.9701 H   0  0  0  0  0  0  0  0  0  0  0  0
   -6.0715   38.1808   23.4169 H   0  0  0  0  0  0  0  0  0  0  0  0
   -7.0160   37.9312   22.1083 H   0  0  0  0  0  0  0  0  0  0  0  0
  -13.9014   46.0807   22.0482 H   0  0  0  0  0  0  0  0  0  0  0  0
   -9.9043   46.9240   21.4724 H   0  0  0  0  0  0  0  0  0  0  0  0
   -6.7406   39.9000   24.9097 H   0  0  0  0  0  0  0  0  0  0  0  0
  1 19  1  0  0  0  0
  2 18  2  0  0  0  0
  3  9  3  0  0  0  0
  4  7  1  0  0  0  0
  4 20  2  0  0  0  0
  5 10  1  0  0  0  0
  5 20  1  0  0  0  0
  6 21  1  0  0  0  0
  6 22  1  0  0  0  0
  7 18  1  0  0  0  0
  7 21  1  0  0  0  0
  8 11  1  0  0  0  0
  9 24  1  0  0  0  0
 10 23  1  0  0  0  0
 11 14  1  0  0  0  0
 12 15  2  0  0  0  0
 12 19  1  0  0  0  0
 13 16  1  0  0  0  0
 13 19  2  0  0  0  0
 14 22  1  0  0  0  0
 15 23  1  0  0  0  0
 16 23  2  0  0  0  0
 17 18  1  0  0  0  0
 17 22  2  0  0  0  0
 20 24  1  0  0  0  0
 21 24  2  0  0  0  0
  5 25  1  0  0  0  0
  6 26  1  0  0  0  0
  8 27  1  0  0  0  0
  8 28  1  0  0  0  0
  8 29  1  0  0  0  0
 10 30  1  0  0  0  0
 10 31  1  0  0  0  0
 11 32  1  0  0  0  0
 11 33  1  0  0  0  0
 12 34  1  0  0  0  0
 13 35  1  0  0  0  0
 14 36  1  0  0  0  0
 14 37  1  0  0  0  0
 15 38  1  0  0  0  0
 16 39  1  0  0  0  0
 17 40  1  0  0  0  0
M  END
> <pdb_id>
5BWV

> <uniprot_id>
O15382

> <usmiles>
Clc1ccc(cc1)CNC2=NN3C(=O)C=C(NC3=C2C#N)CCC

$$$$
77Z_B_564
          07192423343D 1   1.00000     0.00000     0
            
 58 61  0  0  0  0            999 V2000
   24.4012   44.9906   39.9098 S   0  0  0  0  0  0  0  0  0  0  0  0
   23.5031   43.9733   39.4066 O   0  0  0  0  0  0  0  0  0  0  0  0
   24.5182   46.2794   39.2586 O   0  0  0  0  0  0  0  0  0  0  0  0
   30.1825   43.9027   35.3700 O   0  0  0  0  0  0  0  0  0  0  0  0
   26.3614   43.7446   44.6700 O   0  0  0  0  0  0  0  0  0  0  0  0
   22.7279   46.3280   43.0991 O   0  0  0  0  0  0  0  0  0  0  0  0
   28.7245   43.6421   37.4402 O   0  0  0  0  0  0  0  0  0  0  0  0
   28.3763   44.2622   33.9927 N   0  0  0  0  0  0  0  0  0  0  0  0
   24.1729   45.2693   41.4977 N   0  0  0  0  0  0  0  0  0  0  0  0
   25.7825   43.6547   42.1457 N   0  0  0  0  0  0  0  0  0  0  0  0
   25.1200   44.9459   46.1928 N   0  0  0  0  0  0  0  0  0  0  0  0
   23.8992   41.3289   48.1915 C   0  0  0  0  0  0  0  0  0  0  0  0
   25.9294   41.3126   46.8402 C   0  0  0  0  0  0  0  0  0  0  0  0
   27.9925   44.1227   36.3214 C   0  0  0  0  0  0  0  0  0  0  0  0
   25.9315   44.4881   47.3019 C   0  0  0  0  0  0  0  0  0  0  0  0
   22.7218   47.1267   47.9455 C   0  0  0  0  0  0  0  0  0  0  0  0
   21.9450   47.5626   46.8962 C   0  0  0  0  0  0  0  0  0  0  0  0
   25.3052   43.3661   48.1200 C   0  0  0  0  0  0  0  0  0  0  0  0
   28.4608   43.0985   39.7044 C   0  0  0  0  0  0  0  0  0  0  0  0
   27.7533   43.0881   40.8849 C   0  0  0  0  0  0  0  0  0  0  0  0
   23.7694   46.2606   47.7260 C   0  0  0  0  0  0  0  0  0  0  0  0
   22.2246   47.1309   45.6206 C   0  0  0  0  0  0  0  0  0  0  0  0
   26.6881   44.2800   38.6096 C   0  0  0  0  0  0  0  0  0  0  0  0
   28.9845   44.0777   35.2026 C   0  0  0  0  0  0  0  0  0  0  0  0
   26.0051   44.2534   39.8065 C   0  0  0  0  0  0  0  0  0  0  0  0
   25.4360   44.5042   44.9197 C   0  0  0  0  0  0  0  0  0  0  0  0
   23.5705   45.8225   44.0588 C   0  0  0  0  0  0  0  0  0  0  0  0
   27.9340   43.6870   38.5757 C   0  0  0  0  0  0  0  0  0  0  0  0
   24.8260   44.6087   42.3977 C   0  0  0  0  0  0  0  0  0  0  0  0
   26.5067   43.6691   40.9461 C   0  0  0  0  0  0  0  0  0  0  0  0
   24.7956   42.1792   47.3250 C   0  0  0  0  0  0  0  0  0  0  0  0
   24.0534   45.8294   46.4478 C   0  0  0  0  0  0  0  0  0  0  0  0
   23.2763   46.2660   45.4016 C   0  0  0  0  0  0  0  0  0  0  0  0
   24.5848   44.9840   43.8072 C   0  0  0  0  0  0  0  0  0  0  0  0
   22.8547   46.0762   42.1396 H   0  0  0  0  0  0  0  0  0  0  0  0
   27.3868   44.3990   33.9462 H   0  0  0  0  0  0  0  0  0  0  0  0
   28.9208   44.2604   33.1539 H   0  0  0  0  0  0  0  0  0  0  0  0
   23.5141   45.9655   41.7830 H   0  0  0  0  0  0  0  0  0  0  0  0
   23.1369   41.8825   48.5267 H   0  0  0  0  0  0  0  0  0  0  0  0
   23.5445   40.5637   47.6543 H   0  0  0  0  0  0  0  0  0  0  0  0
   24.4222   40.9770   48.9678 H   0  0  0  0  0  0  0  0  0  0  0  0
   26.5394   41.8544   46.2620 H   0  0  0  0  0  0  0  0  0  0  0  0
   26.4393   40.9609   47.6252 H   0  0  0  0  0  0  0  0  0  0  0  0
   25.5616   40.5475   46.3116 H   0  0  0  0  0  0  0  0  0  0  0  0
   27.6743   45.0577   36.4784 H   0  0  0  0  0  0  0  0  0  0  0  0
   27.2092   43.5322   36.1273 H   0  0  0  0  0  0  0  0  0  0  0  0
   26.0958   45.2645   47.9103 H   0  0  0  0  0  0  0  0  0  0  0  0
   26.8029   44.1601   46.9371 H   0  0  0  0  0  0  0  0  0  0  0  0
   22.5238   47.4413   48.8738 H   0  0  0  0  0  0  0  0  0  0  0  0
   21.1828   48.1887   47.0601 H   0  0  0  0  0  0  0  0  0  0  0  0
   24.5340   43.7496   48.6281 H   0  0  0  0  0  0  0  0  0  0  0  0
   25.9949   43.0323   48.7626 H   0  0  0  0  0  0  0  0  0  0  0  0
   29.3659   42.6750   39.6657 H   0  0  0  0  0  0  0  0  0  0  0  0
   28.1448   42.6582   41.6985 H   0  0  0  0  0  0  0  0  0  0  0  0
   24.3250   45.9440   48.4948 H   0  0  0  0  0  0  0  0  0  0  0  0
   21.6658   47.4438   44.8526 H   0  0  0  0  0  0  0  0  0  0  0  0
   26.2962   44.7120   37.7973 H   0  0  0  0  0  0  0  0  0  0  0  0
   24.2748   42.5099   46.5380 H   0  0  0  0  0  0  0  0  0  0  0  0
  1  2  2  0  0  0  0
  1  3  2  0  0  0  0
  1  9  1  0  0  0  0
  1 25  1  0  0  0  0
  4 24  2  0  0  0  0
  5 26  2  0  0  0  0
  6 27  1  0  0  0  0
  7 14  1  0  0  0  0
  7 28  1  0  0  0  0
  8 24  1  0  0  0  0
  9 29  1  0  0  0  0
 10 29  2  0  0  0  0
 10 30  1  0  0  0  0
 11 15  1  0  0  0  0
 11 26  1  0  0  0  0
 11 32  1  0  0  0  0
 12 31  1  0  0  0  0
 13 31  1  0  0  0  0
 14 24  1  0  0  0  0
 15 18  1  0  0  0  0
 16 17  2  0  0  0  0
 16 21  1  0  0  0  0
 17 22  1  0  0  0  0
 18 31  1  0  0  0  0
 19 20  1  0  0  0  0
 19 28  2  0  0  0  0
 20 30  2  0  0  0  0
 21 32  2  0  0  0  0
 22 33  2  0  0  0  0
 23 25  2  0  0  0  0
 23 28  1  0  0  0  0
 25 30  1  0  0  0  0
 26 34  1  0  0  0  0
 27 33  1  0  0  0  0
 27 34  2  0  0  0  0
 29 34  1  0  0  0  0
 32 33  1  0  0  0  0
  6 35  1  0  0  0  0
  8 36  1  0  0  0  0
  8 37  1  0  0  0  0
  9 38  1  0  0  0  0
 12 39  1  0  0  0  0
 12 40  1  0  0  0  0
 12 41  1  0  0  0  0
 13 42  1  0  0  0  0
 13 43  1  0  0  0  0
 13 44  1  0  0  0  0
 14 45  1  0  0  0  0
 14 46  1  0  0  0  0
 15 47  1  0  0  0  0
 15 48  1  0  0  0  0
 16 49  1  0  0  0  0
 17 50  1  0  0  0  0
 18 51  1  0  0  0  0
 18 52  1  0  0  0  0
 19 53  1  0  0  0  0
 20 54  1  0  0  0  0
 21 55  1  0  0  0  0
 22 56  1  0  0  0  0
 23 57  1  0  0  0  0
 31 58  1  0  0  0  0
M  END
> <pdb_id>
3HHK

> <uniprot_id>
Q99AU2

> <usmiles>
S1(=O)(=O)NC(=Nc2c1cc(OCC(=O)N)cc2)C=3C(=O)N(c4c(cccc4)C3O)CCC(C)C

$$$$
780_A_246
          07192419343D 1   1.00000     0.00000     0
            
 42 45  0  0  0  0            999 V2000
   44.5998   23.2988   46.7930 O   0  0  0  0  0  0  0  0  0  0  0  0
   47.4499   18.7688   53.5757 N   0  0  0  0  0  0  0  0  0  0  0  0
   46.1686   17.1315   52.6429 N   0  3  0  0  0  0  0  0  0  0  0  0
   46.5430   22.5827   50.2416 N   0  0  0  0  0  0  0  0  0  0  0  0
   45.5723   21.7049   48.4318 N   0  0  0  0  0  0  0  0  0  0  0  0
   43.0421   26.6001   43.3132 C   0  0  0  0  0  0  0  0  0  0  0  0
   43.9061   25.5269   43.3188 C   0  0  0  0  0  0  0  0  0  0  0  0
   42.8903   27.3677   44.4541 C   0  0  0  0  0  0  0  0  0  0  0  0
   46.7582   26.3574   48.5421 C   0  0  0  0  0  0  0  0  0  0  0  0
   45.4367   19.4274   49.2185 C   0  0  0  0  0  0  0  0  0  0  0  0
   44.6138   25.2281   44.4589 C   0  0  0  0  0  0  0  0  0  0  0  0
   43.6151   27.0500   45.5977 C   0  0  0  0  0  0  0  0  0  0  0  0
   46.7675   25.0770   49.0641 C   0  0  0  0  0  0  0  0  0  0  0  0
   46.0075   26.6291   47.4160 C   0  0  0  0  0  0  0  0  0  0  0  0
   45.7599   18.6330   50.3355 C   0  0  0  0  0  0  0  0  0  0  0  0
   46.6588   20.5514   51.5117 C   0  0  0  0  0  0  0  0  0  0  0  0
   46.6786   18.3399   52.6049 C   0  0  0  0  0  0  0  0  0  0  0  0
   45.2954   24.3450   47.3454 C   0  0  0  0  0  0  0  0  0  0  0  0
   46.0586   22.7553   49.0241 C   0  0  0  0  0  0  0  0  0  0  0  0
   46.3194   21.2934   50.3785 C   0  0  0  0  0  0  0  0  0  0  0  0
   45.7418   20.7552   49.2953 C   0  0  0  0  0  0  0  0  0  0  0  0
   46.3755   19.1624   51.5127 C   0  0  0  0  0  0  0  0  0  0  0  0
   44.5013   25.9627   45.6278 C   0  0  0  0  0  0  0  0  0  0  0  0
   46.0400   24.0392   48.4814 C   0  0  0  0  0  0  0  0  0  0  0  0
   45.2510   25.6366   46.7738 C   0  0  0  0  0  0  0  0  0  0  0  0
   47.8373   19.6990   53.5176 H   0  0  0  0  0  0  0  0  0  0  0  0
   47.7124   18.2473   54.3828 H   0  0  0  0  0  0  0  0  0  0  0  0
   45.5415   16.8324   51.9099 H   0  0  0  0  0  0  0  0  0  0  0  0
   46.3931   16.4606   53.3459 H   0  0  0  0  0  0  0  0  0  0  0  0
   45.1684   21.6499   47.5420 H   0  0  0  0  0  0  0  0  0  0  0  0
   42.4791   26.8361   42.4255 H   0  0  0  0  0  0  0  0  0  0  0  0
   44.0331   24.9244   42.4312 H   0  0  0  0  0  0  0  0  0  0  0  0
   42.2143   28.2080   44.4554 H   0  0  0  0  0  0  0  0  0  0  0  0
   47.3303   27.1422   49.0190 H   0  0  0  0  0  0  0  0  0  0  0  0
   44.9748   19.0262   48.3339 H   0  0  0  0  0  0  0  0  0  0  0  0
   45.2758   24.3883   44.4483 H   0  0  0  0  0  0  0  0  0  0  0  0
   43.5478   27.6157   46.4315 H   0  0  0  0  0  0  0  0  0  0  0  0
   47.3609   24.8843   49.9480 H   0  0  0  0  0  0  0  0  0  0  0  0
   46.0138   27.6368   47.0283 H   0  0  0  0  0  0  0  0  0  0  0  0
   45.5281   17.5828   50.2849 H   0  0  0  0  0  0  0  0  0  0  0  0
   47.1226   21.0273   52.3647 H   0  0  0  0  0  0  0  0  0  0  0  0
   44.0432   23.4449   45.9752 H   0  0  0  0  0  0  0  0  0  0  0  0
  1 18  1  0  0  0  0
  2 17  1  0  0  0  0
  2 26  1  0  0  0  0
  2 27  1  0  0  0  0
  3 17  2  0  0  0  0
  3 28  1  0  0  0  0
  3 29  1  0  0  0  0
  4 19  2  0  0  0  0
  4 20  1  0  0  0  0
  5 19  1  0  0  0  0
  5 21  1  0  0  0  0
  5 30  1  0  0  0  0
  6  7  2  0  0  0  0
  6  8  1  0  0  0  0
  6 31  1  0  0  0  0
  7 11  1  0  0  0  0
  7 32  1  0  0  0  0
  8 12  2  0  0  0  0
  8 33  1  0  0  0  0
  9 13  2  0  0  0  0
  9 14  1  0  0  0  0
  9 34  1  0  0  0  0
 10 15  1  0  0  0  0
 10 21  2  0  0  0  0
 10 35  1  0  0  0  0
 11 23  2  0  0  0  0
 11 36  1  0  0  0  0
 12 23  1  0  0  0  0
 12 37  1  0  0  0  0
 13 24  1  0  0  0  0
 13 38  1  0  0  0  0
 14 25  2  0  0  0  0
 14 39  1  0  0  0  0
 15 22  2  0  0  0  0
 15 40  1  0  0  0  0
 16 20  2  0  0  0  0
 16 22  1  0  0  0  0
 16 41  1  0  0  0  0
 17 22  1  0  0  0  0
 18 24  2  0  0  0  0
 18 25  1  0  0  0  0
 19 24  1  0  0  0  0
 20 21  1  0  0  0  0
 23 25  1  0  0  0  0
  1 42  1  0  0  0  0
M  CHG  1   3   1
M  END
> <pdb_id>
1O3B

> <uniprot_id>
P00760

> <usmiles>
Oc1c(c2ccccc2)cccc1C3=Nc4c(N3)ccc(c4)C(=[NH2+])N

$$$$
798_A_710
          07202400553D 1   1.00000     0.00000     0
            
 47 50  0  0  0  0            999 V2000
   22.4710    3.5939    7.8420 S   0  0  0  0  0  0  0  0  0  0  0  0
   24.8488   -1.3294    0.6865 O   0  0  0  0  0  0  0  0  0  0  0  0
   30.4787    0.9845   -0.7375 O   0  0  0  0  0  0  0  0  0  0  0  0
   33.1308    1.6009   -1.4915 N   0  0  0  0  0  0  0  0  0  0  0  0
   21.7408    4.5787    6.5172 C   0  0  0  0  0  0  0  0  0  0  0  0
   23.2961    2.4249    6.8015 C   0  0  0  0  0  0  0  0  0  0  0  0
   30.6621    1.8213   -1.8586 C   0  0  0  0  0  0  0  0  0  0  0  0
   34.2494    2.4335   -1.0267 C   0  0  0  0  0  0  0  0  0  0  0  0
   33.6066    3.6301   -0.3392 C   0  0  0  0  0  0  0  0  0  0  0  0
   22.2000    3.9402    5.3221 C   0  0  0  0  0  0  0  0  0  0  0  0
   32.0964    3.4565   -0.5392 C   0  0  0  0  0  0  0  0  0  0  0  0
   28.1096    0.7648   -1.1804 C   0  0  0  0  0  0  0  0  0  0  0  0
   29.0628    0.1880    0.9659 C   0  0  0  0  0  0  0  0  0  0  0  0
   26.8384    0.4207   -0.6595 C   0  0  0  0  0  0  0  0  0  0  0  0
   27.8226   -0.1440    1.4886 C   0  0  0  0  0  0  0  0  0  0  0  0
   24.4700   -0.1795    3.5232 C   0  0  0  0  0  0  0  0  0  0  0  0
   24.5375    1.7662    2.1208 C   0  0  0  0  0  0  0  0  0  0  0  0
   23.9115    0.5925    4.5500 C   0  0  0  0  0  0  0  0  0  0  0  0
   23.9910    2.5353    3.1535 C   0  0  0  0  0  0  0  0  0  0  0  0
   25.3982   -0.3860    1.1911 C   0  0  0  0  0  0  0  0  0  0  0  0
   29.2030    0.6496   -0.3326 C   0  0  0  0  0  0  0  0  0  0  0  0
   32.0080    2.4939   -1.7199 C   0  0  1  0  0  0  0  0  0  0  0  0
   23.0595    2.7957    5.4722 C   0  0  0  0  0  0  0  0  0  0  0  0
   26.7313   -0.0237    0.6588 C   0  0  0  0  0  0  0  0  0  0  0  0
   24.7860    0.4134    2.3070 C   0  0  0  0  0  0  0  0  0  0  0  0
   23.6610    1.9584    4.3706 C   0  0  0  0  0  0  0  0  0  0  0  0
   32.8947    0.9224   -0.7959 H   0  0  0  0  0  0  0  0  0  0  0  0
   21.1525    5.3831    6.5995 H   0  0  0  0  0  0  0  0  0  0  0  0
   23.8349    1.6401    7.1078 H   0  0  0  0  0  0  0  0  0  0  0  0
   29.9390    2.5113   -1.8896 H   0  0  0  0  0  0  0  0  0  0  0  0
   30.6392    1.2765   -2.6968 H   0  0  0  0  0  0  0  0  0  0  0  0
   34.8074    2.7331   -1.8006 H   0  0  0  0  0  0  0  0  0  0  0  0
   34.8197    1.9246   -0.3819 H   0  0  0  0  0  0  0  0  0  0  0  0
   33.9187    4.4828   -0.7580 H   0  0  0  0  0  0  0  0  0  0  0  0
   33.8315    3.6355    0.6352 H   0  0  0  0  0  0  0  0  0  0  0  0
   21.9344    4.2759    4.4183 H   0  0  0  0  0  0  0  0  0  0  0  0
   31.6608    4.3302   -0.7558 H   0  0  0  0  0  0  0  0  0  0  0  0
   31.6697    3.0643    0.2757 H   0  0  0  0  0  0  0  0  0  0  0  0
   28.2157    1.0791   -2.1238 H   0  0  0  0  0  0  0  0  0  0  0  0
   29.8759    0.0920    1.5400 H   0  0  0  0  0  0  0  0  0  0  0  0
   26.0226    0.4957   -1.2329 H   0  0  0  0  0  0  0  0  0  0  0  0
   27.7246   -0.4589    2.4327 H   0  0  0  0  0  0  0  0  0  0  0  0
   24.6408   -1.1545    3.6651 H   0  0  0  0  0  0  0  0  0  0  0  0
   24.7505    2.1939    1.2423 H   0  0  0  0  0  0  0  0  0  0  0  0
   23.6883    0.1616    5.4243 H   0  0  0  0  0  0  0  0  0  0  0  0
   23.8364    3.5132    3.0124 H   0  0  0  0  0  0  0  0  0  0  0  0
   32.1860    3.0105   -2.5573 H   0  0  0  0  0  0  0  0  0  0  0  0
  1  5  1  0  0  0  0
  1  6  1  0  0  0  0
  2 20  2  0  0  0  0
  3  7  1  0  0  0  0
  3 21  1  0  0  0  0
  4  8  1  0  0  0  0
  4 22  1  0  0  0  0
  5 10  2  0  0  0  0
  6 23  2  0  0  0  0
  7 22  1  0  0  0  0
  8  9  1  0  0  0  0
  9 11  1  0  0  0  0
 10 23  1  0  0  0  0
 11 22  1  0  0  0  0
 12 14  2  0  0  0  0
 12 21  1  0  0  0  0
 13 15  1  0  0  0  0
 13 21  2  0  0  0  0
 14 24  1  0  0  0  0
 15 24  2  0  0  0  0
 16 18  1  0  0  0  0
 16 25  2  0  0  0  0
 17 19  2  0  0  0  0
 17 25  1  0  0  0  0
 18 26  2  0  0  0  0
 19 26  1  0  0  0  0
 20 24  1  0  0  0  0
 20 25  1  0  0  0  0
 23 26  1  0  0  0  0
  4 27  1  0  0  0  0
  5 28  1  0  0  0  0
  6 29  1  0  0  0  0
  7 30  1  0  0  0  0
  7 31  1  0  0  0  0
  8 32  1  0  0  0  0
  8 33  1  0  0  0  0
  9 34  1  0  0  0  0
  9 35  1  0  0  0  0
 10 36  1  0  0  0  0
 11 37  1  0  0  0  0
 11 38  1  0  0  0  0
 12 39  1  0  0  0  0
 13 40  1  0  0  0  0
 14 41  1  0  0  0  0
 15 42  1  0  0  0  0
 16 43  1  0  0  0  0
 17 44  1  0  0  0  0
 18 45  1  0  0  0  0
 19 46  1  0  0  0  0
 22 47  1  0  0  0  0
M  END
> <pdb_id>
3FUN

> <uniprot_id>
P09960

> <usmiles>
S1C=C(c2ccc(cc2)C(=O)c3ccc(OC[C@@H]4NCCC4)cc3)C=C1

$$$$
79R_A_1208
          07192419483D 1   1.00000     0.00000     0
            
 59 63  0  0  0  0            999 V2000
   16.3520   29.4340   24.3920 O   0  0  0  0  0  0  0  0  0  0  0  0
   18.1740   25.7260   24.7000 O   0  0  0  0  0  0  0  0  0  0  0  0
   15.8800   28.2840   19.9910 N   0  0  0  0  0  0  0  0  0  0  0  0
   19.4710   20.3620   30.2660 N   0  0  0  0  0  0  0  0  0  0  0  0
   21.1980   21.3420   28.8650 N   0  0  0  0  0  0  0  0  0  0  0  0
   20.5380   24.1880   26.6400 N   0  0  0  0  0  0  0  0  0  0  0  0
   17.0270   30.6260   22.6360 N   0  0  0  0  0  0  0  0  0  0  0  0
   18.4470   24.1370   27.4640 N   0  0  0  0  0  0  0  0  0  0  0  0
   17.5220   30.7470   21.2690 C   0  0  0  0  0  0  0  0  0  0  0  0
   16.9020   31.8750   23.3820 C   0  0  0  0  0  0  0  0  0  0  0  0
   16.3680   23.4210   25.4160 C   0  0  0  0  0  0  0  0  0  0  0  0
   16.2370   28.2300   21.0750 C   0  0  0  0  0  0  0  0  0  0  0  0
   18.1420   20.6030   30.5300 C   0  0  0  0  0  0  0  0  0  0  0  0
   21.4260   22.3200   27.9910 C   0  0  0  0  0  0  0  0  0  0  0  0
   15.0870   25.9300   27.8550 C   0  0  0  0  0  0  0  0  0  0  0  0
   14.2140   24.9340   27.1130 C   0  0  0  0  0  0  0  0  0  0  0  0
   19.1300   27.7370   24.5370 C   0  0  0  0  0  0  0  0  0  0  0  0
   19.7310   27.0520   25.6080 C   0  0  0  0  0  0  0  0  0  0  0  0
   17.7220   21.6820   29.8280 C   0  0  0  0  0  0  0  0  0  0  0  0
   16.5470   25.8100   27.4200 C   0  0  0  0  0  0  0  0  0  0  0  0
   14.7090   23.5070   27.2960 C   0  0  0  0  0  0  0  0  0  0  0  0
   17.2720   27.1010   22.9510 C   0  0  0  0  0  0  0  0  0  0  0  0
   16.7090   29.4740   23.2230 C   0  0  0  0  0  0  0  0  0  0  0  0
   18.2040   26.9060   23.9970 C   0  0  0  0  0  0  0  0  0  0  0  0
   19.9430   21.2780   29.3740 C   0  0  0  0  0  0  0  0  0  0  0  0
   19.1270   25.8410   25.6960 C   0  0  0  0  0  0  0  0  0  0  0  0
   19.3310   24.7210   26.5850 C   0  0  0  0  0  0  0  0  0  0  0  0
   20.4340   23.2020   27.6000 C   0  0  0  0  0  0  0  0  0  0  0  0
   17.0110   24.3880   27.6830 C   0  0  1  0  0  0  0  0  0  0  0  0
   19.1420   23.1440   28.1240 C   0  0  0  0  0  0  0  0  0  0  0  0
   16.1810   23.3560   26.9250 C   0  0  2  0  0  0  0  0  0  0  0  0
   16.7180   28.2080   22.4220 C   0  0  0  0  0  0  0  0  0  0  0  0
   18.8550   22.1410   29.0660 C   0  0  0  0  0  0  0  0  0  0  0  0
   20.0110   19.6233   30.6694 H   0  0  0  0  0  0  0  0  0  0  0  0
   17.5695   29.8402   20.8502 H   0  0  0  0  0  0  0  0  0  0  0  0
   16.9020   31.3264   20.7400 H   0  0  0  0  0  0  0  0  0  0  0  0
   18.4339   31.1574   21.2798 H   0  0  0  0  0  0  0  0  0  0  0  0
   16.5570   31.6816   24.3005 H   0  0  0  0  0  0  0  0  0  0  0  0
   17.7976   32.3149   23.4481 H   0  0  0  0  0  0  0  0  0  0  0  0
   16.2657   32.4839   22.9083 H   0  0  0  0  0  0  0  0  0  0  0  0
   17.3382   23.3201   25.1957 H   0  0  0  0  0  0  0  0  0  0  0  0
   15.8495   22.6832   24.9838 H   0  0  0  0  0  0  0  0  0  0  0  0
   16.0391   24.3024   25.0770 H   0  0  0  0  0  0  0  0  0  0  0  0
   17.5716   20.0620   31.1480 H   0  0  0  0  0  0  0  0  0  0  0  0
   22.3430   22.4204   27.6049 H   0  0  0  0  0  0  0  0  0  0  0  0
   15.0229   25.7529   28.8371 H   0  0  0  0  0  0  0  0  0  0  0  0
   14.7633   26.8562   27.6615 H   0  0  0  0  0  0  0  0  0  0  0  0
   14.2232   25.1578   26.1384 H   0  0  0  0  0  0  0  0  0  0  0  0
   13.2790   25.0000   27.4613 H   0  0  0  0  0  0  0  0  0  0  0  0
   19.3453   28.6642   24.2306 H   0  0  0  0  0  0  0  0  0  0  0  0
   20.4655   27.3936   26.1944 H   0  0  0  0  0  0  0  0  0  0  0  0
   16.8054   22.0817   29.8368 H   0  0  0  0  0  0  0  0  0  0  0  0
   17.1089   26.4507   27.9432 H   0  0  0  0  0  0  0  0  0  0  0  0
   16.6267   26.0162   26.4447 H   0  0  0  0  0  0  0  0  0  0  0  0
   14.1664   22.9008   26.7145 H   0  0  0  0  0  0  0  0  0  0  0  0
   14.5897   23.2450   28.2537 H   0  0  0  0  0  0  0  0  0  0  0  0
   16.9651   26.2519   22.5211 H   0  0  0  0  0  0  0  0  0  0  0  0
   16.8450   24.2176   28.6543 H   0  0  0  0  0  0  0  0  0  0  0  0
   16.4770   22.4498   27.2271 H   0  0  0  0  0  0  0  0  0  0  0  0
  1 23  2  0  0  0  0
  2 24  1  0  0  0  0
  2 26  1  0  0  0  0
  3 12  3  0  0  0  0
  4 13  1  0  0  0  0
  4 25  1  0  0  0  0
  5 14  2  0  0  0  0
  5 25  1  0  0  0  0
  6 27  2  0  0  0  0
  6 28  1  0  0  0  0
  7  9  1  0  0  0  0
  7 10  1  0  0  0  0
  7 23  1  0  0  0  0
  8 27  1  0  0  0  0
  8 29  1  0  0  0  0
  8 30  1  0  0  0  0
 11 31  1  0  0  0  0
 12 32  1  0  0  0  0
 13 19  2  0  0  0  0
 14 28  1  0  0  0  0
 15 16  1  0  0  0  0
 15 20  1  0  0  0  0
 16 21  1  0  0  0  0
 17 18  1  0  0  0  0
 17 24  2  0  0  0  0
 18 26  2  0  0  0  0
 19 33  1  0  0  0  0
 20 29  1  0  0  0  0
 21 31  1  0  0  0  0
 22 24  1  0  0  0  0
 22 32  2  0  0  0  0
 23 32  1  0  0  0  0
 25 33  2  0  0  0  0
 26 27  1  0  0  0  0
 28 30  2  0  0  0  0
 29 31  1  0  0  0  0
 30 33  1  0  0  0  0
  4 34  1  0  0  0  0
  9 35  1  0  0  0  0
  9 36  1  0  0  0  0
  9 37  1  0  0  0  0
 10 38  1  0  0  0  0
 10 39  1  0  0  0  0
 10 40  1  0  0  0  0
 11 41  1  0  0  0  0
 11 42  1  0  0  0  0
 11 43  1  0  0  0  0
 13 44  1  0  0  0  0
 14 45  1  0  0  0  0
 15 46  1  0  0  0  0
 15 47  1  0  0  0  0
 16 48  1  0  0  0  0
 16 49  1  0  0  0  0
 17 50  1  0  0  0  0
 18 51  1  0  0  0  0
 19 52  1  0  0  0  0
 20 53  1  0  0  0  0
 20 54  1  0  0  0  0
 21 55  1  0  0  0  0
 21 56  1  0  0  0  0
 22 57  1  0  0  0  0
 29 58  1  0  0  0  0
 31 59  1  0  0  0  0
M  END
> <pdb_id>
5LWN

> <uniprot_id>
P52333

> <usmiles>
O=C(N(C)C)/C(/C#N)=C\C=1OC(C2=Nc3c(N2[C@@H]4[C@@H](CCCC4)C)c5c(nc3)NC=C5)=CC1

$$$$
79Z_A_571
          07212401293D 1   1.00000     0.00000     0
            
 54 57  0  0  0  0            999 V2000
   23.0774   10.0324   12.0042 S   0  0  0  0  0  0  0  0  0  0  0  0
   33.6700   13.3235   15.5762 F   0  0  0  0  0  0  0  0  0  0  0  0
   21.7032    9.6933   11.8253 O   0  0  0  0  0  0  0  0  0  0  0  0
   23.1281   11.0501   13.0251 O   0  0  0  0  0  0  0  0  0  0  0  0
   24.1809    5.3258   11.2175 O   0  0  0  0  0  0  0  0  0  0  0  0
   27.5167    9.9246   18.2395 O   0  0  0  0  0  0  0  0  0  0  0  0
   28.2351   10.4734   13.8024 O   0  0  0  0  0  0  0  0  0  0  0  0
   29.4012    8.8409   17.8489 N   0  0  0  0  0  0  0  0  0  0  0  0
   23.9472    8.7987   12.2933 N   0  0  0  0  0  0  0  0  0  0  0  0
   23.6837   10.7383   10.6145 C   0  0  0  0  0  0  0  0  0  0  0  0
   29.7078    8.5598   19.2486 C   0  0  0  0  0  0  0  0  0  0  0  0
   24.5800    6.4693   11.9640 C   0  0  0  0  0  0  0  0  0  0  0  0
   23.8302    7.6646   11.4131 C   0  0  0  0  0  0  0  0  0  0  0  0
   31.7119   12.4248   16.5190 C   0  0  0  0  0  0  0  0  0  0  0  0
   32.1762   12.1120   14.1725 C   0  0  0  0  0  0  0  0  0  0  0  0
   30.5338   11.7137   16.3880 C   0  0  0  0  0  0  0  0  0  0  0  0
   30.9977   11.3940   14.0315 C   0  0  0  0  0  0  0  0  0  0  0  0
   23.5487    6.3608   15.6624 C   0  0  0  0  0  0  0  0  0  0  0  0
   22.9873    7.5536   16.4236 C   0  0  0  0  0  0  0  0  0  0  0  0
   26.0561    9.6154   13.0222 C   0  0  0  0  0  0  0  0  0  0  0  0
   25.6688    8.6583   15.6502 C   0  0  0  0  0  0  0  0  0  0  0  0
   32.5331   12.6131   15.4158 C   0  0  0  0  0  0  0  0  0  0  0  0
   28.3208    9.4994   17.4289 C   0  0  0  0  0  0  0  0  0  0  0  0
   27.0019    9.8148   13.9989 C   0  0  0  0  0  0  0  0  0  0  0  0
   28.9267   10.4854   14.9911 C   0  0  0  0  0  0  0  0  0  0  0  0
   24.8897    8.9242   13.3533 C   0  0  0  0  0  0  0  0  0  0  0  0
   30.2074   11.1707   15.1529 C   0  0  0  0  0  0  0  0  0  0  0  0
   23.4209    7.7215   14.9738 C   0  0  0  0  0  0  0  0  0  0  0  0
   26.8188    9.3492   15.2904 C   0  0  0  0  0  0  0  0  0  0  0  0
   24.6807    8.4534   14.6661 C   0  0  0  0  0  0  0  0  0  0  0  0
   28.0727    9.7664   15.9761 C   0  0  0  0  0  0  0  0  0  0  0  0
   24.6619    4.5191   11.5608 H   0  0  0  0  0  0  0  0  0  0  0  0
   30.0466    8.5168   17.1572 H   0  0  0  0  0  0  0  0  0  0  0  0
   24.6465   10.9713   10.7518 H   0  0  0  0  0  0  0  0  0  0  0  0
   23.6015   10.0970    9.8517 H   0  0  0  0  0  0  0  0  0  0  0  0
   23.1658   11.5688   10.4092 H   0  0  0  0  0  0  0  0  0  0  0  0
   30.5692    8.0551   19.3064 H   0  0  0  0  0  0  0  0  0  0  0  0
   29.7914    9.4205   19.7508 H   0  0  0  0  0  0  0  0  0  0  0  0
   28.9727    8.0113   19.6472 H   0  0  0  0  0  0  0  0  0  0  0  0
   25.5651    6.6116   11.8682 H   0  0  0  0  0  0  0  0  0  0  0  0
   24.3540    6.3412   12.9297 H   0  0  0  0  0  0  0  0  0  0  0  0
   24.2088    7.9042   10.5190 H   0  0  0  0  0  0  0  0  0  0  0  0
   22.8641    7.4267   11.3130 H   0  0  0  0  0  0  0  0  0  0  0  0
   31.9723   12.8031   17.4073 H   0  0  0  0  0  0  0  0  0  0  0  0
   32.7665   12.2679   13.3805 H   0  0  0  0  0  0  0  0  0  0  0  0
   29.9252   11.5922   17.1720 H   0  0  0  0  0  0  0  0  0  0  0  0
   30.7211   11.0425   13.1371 H   0  0  0  0  0  0  0  0  0  0  0  0
   22.9466    5.6075   15.3979 H   0  0  0  0  0  0  0  0  0  0  0  0
   24.4522    5.9999   15.8937 H   0  0  0  0  0  0  0  0  0  0  0  0
   23.5218    7.9746   17.1564 H   0  0  0  0  0  0  0  0  0  0  0  0
   22.0162    7.5822   16.6606 H   0  0  0  0  0  0  0  0  0  0  0  0
   26.2006    9.9582   12.0939 H   0  0  0  0  0  0  0  0  0  0  0  0
   25.5453    8.3157   16.5815 H   0  0  0  0  0  0  0  0  0  0  0  0
   22.6858    7.8075   14.3012 H   0  0  0  0  0  0  0  0  0  0  0  0
  1  3  2  0  0  0  0
  1  4  2  0  0  0  0
  1  9  1  0  0  0  0
  1 10  1  0  0  0  0
  2 22  1  0  0  0  0
  5 12  1  0  0  0  0
  6 23  2  0  0  0  0
  7 24  1  0  0  0  0
  7 25  1  0  0  0  0
  8 11  1  0  0  0  0
  8 23  1  0  0  0  0
  9 13  1  0  0  0  0
  9 26  1  0  0  0  0
 12 13  1  0  0  0  0
 14 16  2  0  0  0  0
 14 22  1  0  0  0  0
 15 17  1  0  0  0  0
 15 22  2  0  0  0  0
 16 27  1  0  0  0  0
 17 27  2  0  0  0  0
 18 19  1  0  0  0  0
 18 28  1  0  0  0  0
 19 28  1  0  0  0  0
 20 24  2  0  0  0  0
 20 26  1  0  0  0  0
 21 29  2  0  0  0  0
 21 30  1  0  0  0  0
 23 31  1  0  0  0  0
 24 29  1  0  0  0  0
 25 27  1  0  0  0  0
 25 31  2  0  0  0  0
 26 30  2  0  0  0  0
 28 30  1  0  0  0  0
 29 31  1  0  0  0  0
  5 32  1  0  0  0  0
  8 33  1  0  0  0  0
 10 34  1  0  0  0  0
 10 35  1  0  0  0  0
 10 36  1  0  0  0  0
 11 37  1  0  0  0  0
 11 38  1  0  0  0  0
 11 39  1  0  0  0  0
 12 40  1  0  0  0  0
 12 41  1  0  0  0  0
 13 42  1  0  0  0  0
 13 43  1  0  0  0  0
 14 44  1  0  0  0  0
 15 45  1  0  0  0  0
 16 46  1  0  0  0  0
 17 47  1  0  0  0  0
 18 48  1  0  0  0  0
 18 49  1  0  0  0  0
 19 50  1  0  0  0  0
 19 51  1  0  0  0  0
 20 52  1  0  0  0  0
 21 53  1  0  0  0  0
 28 54  1  0  0  0  0
M  END
> <pdb_id>
3FQL

> <uniprot_id>
Q9WMX2

> <usmiles>
S(=O)(=O)(N(c1c(cc2c(OC(c3ccc(F)cc3)=C2C(=O)NC)c1)C4CC4)CCO)C

$$$$
79Z_B_571
          07192423343D 1   1.00000     0.00000     0
            
 54 57  0  0  0  0            999 V2000
   24.2538   42.5288   48.5133 S   0  0  0  0  0  0  0  0  0  0  0  0
   34.3506   37.1315   50.5604 F   0  0  0  0  0  0  0  0  0  0  0  0
   23.0628   43.0405   47.9383 O   0  0  0  0  0  0  0  0  0  0  0  0
   24.3250   41.1174   48.6432 O   0  0  0  0  0  0  0  0  0  0  0  0
   26.7056   46.0779   45.8718 O   0  0  0  0  0  0  0  0  0  0  0  0
   29.3645   37.2842   45.5301 O   0  0  0  0  0  0  0  0  0  0  0  0
   29.5090   40.5944   48.5021 O   0  0  0  0  0  0  0  0  0  0  0  0
   31.1053   38.4490   44.8886 N   0  0  0  0  0  0  0  0  0  0  0  0
   25.4586   43.0646   47.4964 N   0  0  0  0  0  0  0  0  0  0  0  0
   24.7075   43.3004   50.0953 C   0  0  0  0  0  0  0  0  0  0  0  0
   31.4597   37.4147   43.9148 C   0  0  0  0  0  0  0  0  0  0  0  0
   26.0023   44.8364   45.7551 C   0  0  0  0  0  0  0  0  0  0  0  0
   25.4404   44.4901   47.1322 C   0  0  0  0  0  0  0  0  0  0  0  0
   32.6579   37.0239   48.9323 C   0  0  0  0  0  0  0  0  0  0  0  0
   33.0451   39.0497   50.2063 C   0  0  0  0  0  0  0  0  0  0  0  0
   31.6279   37.6556   48.2775 C   0  0  0  0  0  0  0  0  0  0  0  0
   32.0152   39.6915   49.5550 C   0  0  0  0  0  0  0  0  0  0  0  0
   25.6500   41.8964   43.4877 C   0  0  0  0  0  0  0  0  0  0  0  0
   25.0624   40.5259   43.8182 C   0  0  0  0  0  0  0  0  0  0  0  0
   27.4705   41.9123   48.0387 C   0  0  0  0  0  0  0  0  0  0  0  0
   27.3933   40.4175   45.6579 C   0  0  0  0  0  0  0  0  0  0  0  0
   33.3519   37.7321   49.9002 C   0  0  0  0  0  0  0  0  0  0  0  0
   30.0117   38.2962   45.6653 C   0  0  0  0  0  0  0  0  0  0  0  0
   28.4461   40.9709   47.7825 C   0  0  0  0  0  0  0  0  0  0  0  0
   30.1966   39.6329   47.8808 C   0  0  0  0  0  0  0  0  0  0  0  0
   26.4361   42.1157   47.1237 C   0  0  0  0  0  0  0  0  0  0  0  0
   31.3367   39.0076   48.5465 C   0  0  0  0  0  0  0  0  0  0  0  0
   25.2654   41.5605   44.9239 C   0  0  0  0  0  0  0  0  0  0  0  0
   28.4196   40.2102   46.5891 C   0  0  0  0  0  0  0  0  0  0  0  0
   26.3830   41.3477   45.9292 C   0  0  0  0  0  0  0  0  0  0  0  0
   29.5981   39.3148   46.6599 C   0  0  0  0  0  0  0  0  0  0  0  0
   27.0857   46.3305   44.9820 H   0  0  0  0  0  0  0  0  0  0  0  0
   31.6726   39.2676   44.9782 H   0  0  0  0  0  0  0  0  0  0  0  0
   25.5531   42.8895   50.4362 H   0  0  0  0  0  0  0  0  0  0  0  0
   24.8446   44.2817   49.9603 H   0  0  0  0  0  0  0  0  0  0  0  0
   23.9745   43.1545   50.7597 H   0  0  0  0  0  0  0  0  0  0  0  0
   32.2902   37.6857   43.4282 H   0  0  0  0  0  0  0  0  0  0  0  0
   31.6193   36.5497   44.3905 H   0  0  0  0  0  0  0  0  0  0  0  0
   30.7117   37.3024   43.2607 H   0  0  0  0  0  0  0  0  0  0  0  0
   26.6280   44.1177   45.4520 H   0  0  0  0  0  0  0  0  0  0  0  0
   25.2559   44.9285   45.0960 H   0  0  0  0  0  0  0  0  0  0  0  0
   25.9758   44.9873   47.8149 H   0  0  0  0  0  0  0  0  0  0  0  0
   24.4905   44.8014   47.1621 H   0  0  0  0  0  0  0  0  0  0  0  0
   32.9002   36.0781   48.7159 H   0  0  0  0  0  0  0  0  0  0  0  0
   33.5737   39.5354   50.9025 H   0  0  0  0  0  0  0  0  0  0  0  0
   31.0823   37.1531   47.6068 H   0  0  0  0  0  0  0  0  0  0  0  0
   31.7597   40.6269   49.7997 H   0  0  0  0  0  0  0  0  0  0  0  0
   25.1110   42.5591   42.9679 H   0  0  0  0  0  0  0  0  0  0  0  0
   26.6139   41.9791   43.2347 H   0  0  0  0  0  0  0  0  0  0  0  0
   25.6415   39.7114   43.7827 H   0  0  0  0  0  0  0  0  0  0  0  0
   24.1385   40.2914   43.5158 H   0  0  0  0  0  0  0  0  0  0  0  0
   27.5045   42.4499   48.8813 H   0  0  0  0  0  0  0  0  0  0  0  0
   27.3825   39.9018   44.8012 H   0  0  0  0  0  0  0  0  0  0  0  0
   24.4378   42.0005   45.2724 H   0  0  0  0  0  0  0  0  0  0  0  0
  1  3  2  0  0  0  0
  1  4  2  0  0  0  0
  1  9  1  0  0  0  0
  1 10  1  0  0  0  0
  2 22  1  0  0  0  0
  5 12  1  0  0  0  0
  6 23  2  0  0  0  0
  7 24  1  0  0  0  0
  7 25  1  0  0  0  0
  8 11  1  0  0  0  0
  8 23  1  0  0  0  0
  9 13  1  0  0  0  0
  9 26  1  0  0  0  0
 12 13  1  0  0  0  0
 14 16  2  0  0  0  0
 14 22  1  0  0  0  0
 15 17  1  0  0  0  0
 15 22  2  0  0  0  0
 16 27  1  0  0  0  0
 17 27  2  0  0  0  0
 18 19  1  0  0  0  0
 18 28  1  0  0  0  0
 19 28  1  0  0  0  0
 20 24  2  0  0  0  0
 20 26  1  0  0  0  0
 21 29  2  0  0  0  0
 21 30  1  0  0  0  0
 23 31  1  0  0  0  0
 24 29  1  0  0  0  0
 25 27  1  0  0  0  0
 25 31  2  0  0  0  0
 26 30  2  0  0  0  0
 28 30  1  0  0  0  0
 29 31  1  0  0  0  0
  5 32  1  0  0  0  0
  8 33  1  0  0  0  0
 10 34  1  0  0  0  0
 10 35  1  0  0  0  0
 10 36  1  0  0  0  0
 11 37  1  0  0  0  0
 11 38  1  0  0  0  0
 11 39  1  0  0  0  0
 12 40  1  0  0  0  0
 12 41  1  0  0  0  0
 13 42  1  0  0  0  0
 13 43  1  0  0  0  0
 14 44  1  0  0  0  0
 15 45  1  0  0  0  0
 16 46  1  0  0  0  0
 17 47  1  0  0  0  0
 18 48  1  0  0  0  0
 18 49  1  0  0  0  0
 19 50  1  0  0  0  0
 19 51  1  0  0  0  0
 20 52  1  0  0  0  0
 21 53  1  0  0  0  0
 28 54  1  0  0  0  0
M  END
> <pdb_id>
3FQK

> <uniprot_id>
P26663

> <usmiles>
S(=O)(=O)(N(c1c(cc2c(OC(c3ccc(F)cc3)=C2C(=O)NC)c1)C4CC4)CCO)C

$$$$
7A6_A_301
          07202404323D 1   1.00000     0.00000     0
            
 43 45  0  0  0  0            999 V2000
   64.1839  -15.0742    7.5971 S   0  0  0  0  0  0  0  0  0  0  0  0
   60.6194  -17.6276   10.2436 O   0  0  0  0  0  0  0  0  0  0  0  0
   59.4970  -18.6096    8.0066 O   0  0  0  0  0  0  0  0  0  0  0  0
   64.5082  -18.3078    2.0194 N   0  0  0  0  0  0  0  0  0  0  0  0
   63.8471  -19.9143    3.6206 N   0  0  0  0  0  0  0  0  0  0  0  0
   62.4726  -19.4598    5.4923 N   0  0  0  0  0  0  0  0  0  0  0  0
   62.8064  -16.3167    3.8071 N   0  0  0  0  0  0  0  0  0  0  0  0
   61.2881  -15.8078    7.7980 N   0  0  0  0  0  0  0  0  0  0  0  0
   64.8383  -12.1648   10.0014 C   0  0  0  0  0  0  0  0  0  0  0  0
   65.1788  -14.2060    8.7265 C   0  0  0  0  0  0  0  0  0  0  0  0
   63.6068  -16.5334    8.4245 C   0  0  0  0  0  0  0  0  0  0  0  0
   63.1945  -20.3037    4.7344 C   0  0  0  0  0  0  0  0  0  0  0  0
   62.0158  -15.9141    4.8486 C   0  0  0  0  0  0  0  0  0  0  0  0
   64.2830  -13.5382    9.7488 C   0  0  0  0  0  0  0  0  0  0  0  0
   63.8386  -18.6442    3.1490 C   0  0  0  0  0  0  0  0  0  0  0  0
   61.5339  -17.7396    9.1423 C   0  0  1  0  0  0  0  0  0  0  0  0
   60.8431  -18.1448    7.8309 C   0  0  2  0  0  0  0  0  0  0  0  0
   62.1484  -16.3805    8.8714 C   0  0  2  0  0  0  0  0  0  0  0  0
   63.0729  -17.6511    3.9154 C   0  0  0  0  0  0  0  0  0  0  0  0
   62.4036  -18.1714    5.1084 C   0  0  0  0  0  0  0  0  0  0  0  0
   60.8763  -16.9227    6.8967 C   0  0  2  0  0  0  0  0  0  0  0  0
   61.7326  -17.0019    5.6670 C   0  0  0  0  0  0  0  0  0  0  0  0
   61.1206  -17.3628   11.0674 H   0  0  0  0  0  0  0  0  0  0  0  0
   59.1103  -18.8548    7.1176 H   0  0  0  0  0  0  0  0  0  0  0  0
   64.4886  -17.3642    1.6888 H   0  0  0  0  0  0  0  0  0  0  0  0
   65.0216  -19.0032    1.5166 H   0  0  0  0  0  0  0  0  0  0  0  0
   63.1394  -15.7220    3.0754 H   0  0  0  0  0  0  0  0  0  0  0  0
   61.8016  -15.1239    7.2797 H   0  0  0  0  0  0  0  0  0  0  0  0
   64.2685  -11.6935   10.6747 H   0  0  0  0  0  0  0  0  0  0  0  0
   65.7722  -12.2419   10.3507 H   0  0  0  0  0  0  0  0  0  0  0  0
   64.8438  -11.6451    9.1471 H   0  0  0  0  0  0  0  0  0  0  0  0
   65.7117  -13.5125    8.2417 H   0  0  0  0  0  0  0  0  0  0  0  0
   65.7990  -14.8415    9.1865 H   0  0  0  0  0  0  0  0  0  0  0  0
   64.1781  -16.6995    9.2283 H   0  0  0  0  0  0  0  0  0  0  0  0
   63.6763  -17.3111    7.7997 H   0  0  0  0  0  0  0  0  0  0  0  0
   63.2499  -21.2637    5.0091 H   0  0  0  0  0  0  0  0  0  0  0  0
   61.6913  -14.9801    4.9983 H   0  0  0  0  0  0  0  0  0  0  0  0
   63.3505  -13.4701    9.3939 H   0  0  0  0  0  0  0  0  0  0  0  0
   64.2789  -14.0670   10.5975 H   0  0  0  0  0  0  0  0  0  0  0  0
   62.2528  -18.3984    9.3643 H   0  0  0  0  0  0  0  0  0  0  0  0
   61.3760  -18.8779    7.4084 H   0  0  0  0  0  0  0  0  0  0  0  0
   62.0985  -15.8112    9.6920 H   0  0  0  0  0  0  0  0  0  0  0  0
   59.9382  -16.7421    6.6011 H   0  0  0  0  0  0  0  0  0  0  0  0
  1 10  1  0  0  0  0
  1 11  1  0  0  0  0
  2 16  1  0  0  0  0
  3 17  1  0  0  0  0
  4 15  1  0  0  0  0
  5 12  1  0  0  0  0
  5 15  2  0  0  0  0
  6 12  2  0  0  0  0
  6 20  1  0  0  0  0
  7 13  1  0  0  0  0
  7 19  1  0  0  0  0
  8 18  1  0  0  0  0
  8 21  1  0  0  0  0
  9 14  1  0  0  0  0
 10 14  1  0  0  0  0
 11 18  1  0  0  0  0
 13 22  2  0  0  0  0
 15 19  1  0  0  0  0
 16 17  1  0  0  0  0
 16 18  1  0  0  0  0
 17 21  1  0  0  0  0
 19 20  2  0  0  0  0
 20 22  1  0  0  0  0
 21 22  1  0  0  0  0
  2 23  1  0  0  0  0
  3 24  1  0  0  0  0
  4 25  1  0  0  0  0
  4 26  1  0  0  0  0
  7 27  1  0  0  0  0
  8 28  1  0  0  0  0
  9 29  1  0  0  0  0
  9 30  1  0  0  0  0
  9 31  1  0  0  0  0
 10 32  1  0  0  0  0
 10 33  1  0  0  0  0
 11 34  1  0  0  0  0
 11 35  1  0  0  0  0
 12 36  1  0  0  0  0
 13 37  1  0  0  0  0
 14 38  1  0  0  0  0
 14 39  1  0  0  0  0
 16 40  1  0  0  0  0
 17 41  1  0  0  0  0
 18 42  1  0  0  0  0
 21 43  1  0  0  0  0
M  END
> <pdb_id>
5TC6

> <uniprot_id>
Q13126

> <usmiles>
S(C[C@H]1N[C@@H](C=2c3ncnc(N)c3NC2)[C@H](O)[C@@H]1O)CCC

$$$$
7A9_D_302
          07192417013D 1   1.00000     0.00000     0
            
 46 50  0  0  0  0            999 V2000
   36.3326   28.4753   10.5425 O   0  0  0  0  0  0  0  0  0  0  0  0
   37.2559   23.5069    9.7243 N   0  0  0  0  0  0  0  0  0  0  0  0
   37.8580   26.8551   10.9869 N   0  0  0  0  0  0  0  0  0  0  0  0
   36.0508   23.5992    8.8883 C   0  0  0  0  0  0  0  0  0  0  0  0
   38.4318   23.9075    8.9403 C   0  0  0  0  0  0  0  0  0  0  0  0
   37.1430   24.3959   10.8924 C   0  0  0  0  0  0  0  0  0  0  0  0
   39.0525   26.2980   11.6090 C   0  0  0  0  0  0  0  0  0  0  0  0
   41.9021   27.7829   13.7338 C   0  0  0  0  0  0  0  0  0  0  0  0
   38.7694   31.3463   12.2856 C   0  0  0  0  0  0  0  0  0  0  0  0
   35.8636   25.0309    8.3870 C   0  0  0  0  0  0  0  0  0  0  0  0
   38.2610   25.3357    8.4135 C   0  0  0  0  0  0  0  0  0  0  0  0
   40.7054   26.9047   13.4239 C   0  0  0  0  0  0  0  0  0  0  0  0
   41.6602   29.2842   13.4654 C   0  0  0  0  0  0  0  0  0  0  0  0
   39.9540   30.9505   12.8594 C   0  0  0  0  0  0  0  0  0  0  0  0
   37.9621   30.4354   11.6584 C   0  0  0  0  0  0  0  0  0  0  0  0
   37.4514   28.1147   10.9718 C   0  0  0  0  0  0  0  0  0  0  0  0
   36.9090   25.8626   10.4356 C   0  0  2  0  0  0  0  0  0  0  0  0
   36.9616   25.9242    8.9155 C   0  0  0  0  0  0  0  0  0  0  0  0
   40.0468   27.3209   12.1296 C   0  0  2  0  0  0  0  0  0  0  0  0
   40.3574   29.6336   12.8048 C   0  0  0  0  0  0  0  0  0  0  0  0
   38.3534   29.0897   11.6124 C   0  0  0  0  0  0  0  0  0  0  0  0
   39.5326   28.6994   12.2117 C   0  0  0  0  0  0  0  0  0  0  0  0
   35.2530   23.3315    9.4285 H   0  0  0  0  0  0  0  0  0  0  0  0
   36.1445   22.9847    8.1050 H   0  0  0  0  0  0  0  0  0  0  0  0
   38.5414   23.2822    8.1677 H   0  0  0  0  0  0  0  0  0  0  0  0
   39.2449   23.8656    9.5210 H   0  0  0  0  0  0  0  0  0  0  0  0
   37.9872   24.3477   11.4262 H   0  0  0  0  0  0  0  0  0  0  0  0
   36.3734   24.1003   11.4585 H   0  0  0  0  0  0  0  0  0  0  0  0
   39.5189   25.7306   10.9304 H   0  0  0  0  0  0  0  0  0  0  0  0
   38.7635   25.7280   12.3782 H   0  0  0  0  0  0  0  0  0  0  0  0
   42.6695   27.4812   13.1680 H   0  0  0  0  0  0  0  0  0  0  0  0
   42.1351   27.6690   14.6996 H   0  0  0  0  0  0  0  0  0  0  0  0
   38.4951   32.3071   12.3265 H   0  0  0  0  0  0  0  0  0  0  0  0
   34.9790   25.3763    8.7002 H   0  0  0  0  0  0  0  0  0  0  0  0
   35.8883   25.0354    7.3873 H   0  0  0  0  0  0  0  0  0  0  0  0
   38.2524   25.3203    7.4136 H   0  0  0  0  0  0  0  0  0  0  0  0
   39.0237   25.8988    8.7317 H   0  0  0  0  0  0  0  0  0  0  0  0
   40.0417   26.9824   14.1678 H   0  0  0  0  0  0  0  0  0  0  0  0
   41.0086   25.9550   13.3455 H   0  0  0  0  0  0  0  0  0  0  0  0
   42.3992   29.6127   12.8772 H   0  0  0  0  0  0  0  0  0  0  0  0
   41.6957   29.7615   14.3434 H   0  0  0  0  0  0  0  0  0  0  0  0
   40.5295   31.6253   13.3216 H   0  0  0  0  0  0  0  0  0  0  0  0
   37.1029   30.7267   11.2378 H   0  0  0  0  0  0  0  0  0  0  0  0
   35.9882   26.1286   10.7209 H   0  0  0  0  0  0  0  0  0  0  0  0
   36.8456   26.8631    8.5915 H   0  0  0  0  0  0  0  0  0  0  0  0
   40.7818   27.3490   11.4520 H   0  0  0  0  0  0  0  0  0  0  0  0
  1 16  2  0  0  0  0
  2  4  1  0  0  0  0
  2  5  1  0  0  0  0
  2  6  1  0  0  0  0
  3  7  1  0  0  0  0
  3 16  1  0  0  0  0
  3 17  1  0  0  0  0
  4 10  1  0  0  0  0
  5 11  1  0  0  0  0
  6 17  1  0  0  0  0
  7 19  1  0  0  0  0
  8 12  1  0  0  0  0
  8 13  1  0  0  0  0
  9 14  2  0  0  0  0
  9 15  1  0  0  0  0
 10 18  1  0  0  0  0
 11 18  1  0  0  0  0
 12 19  1  0  0  0  0
 13 20  1  0  0  0  0
 14 20  1  0  0  0  0
 15 21  2  0  0  0  0
 16 21  1  0  0  0  0
 17 18  1  0  0  0  0
 19 22  1  0  0  0  0
 20 22  2  0  0  0  0
 21 22  1  0  0  0  0
  4 23  1  0  0  0  0
  4 24  1  0  0  0  0
  5 25  1  0  0  0  0
  5 26  1  0  0  0  0
  6 27  1  0  0  0  0
  6 28  1  0  0  0  0
  7 29  1  0  0  0  0
  7 30  1  0  0  0  0
  8 31  1  0  0  0  0
  8 32  1  0  0  0  0
  9 33  1  0  0  0  0
 10 34  1  0  0  0  0
 10 35  1  0  0  0  0
 11 36  1  0  0  0  0
 11 37  1  0  0  0  0
 12 38  1  0  0  0  0
 12 39  1  0  0  0  0
 13 40  1  0  0  0  0
 13 41  1  0  0  0  0
 14 42  1  0  0  0  0
 15 43  1  0  0  0  0
 17 44  1  0  0  0  0
 18 45  1  0  0  0  0
 19 46  1  0  0  0  0
M  END
> <pdb_id>
5LXB

> <uniprot_id>
Q8WSF8

> <usmiles>
O=C1N([C@H]2C3CCN(C2)CC3)C[C@H]4c5c1cccc5CCC4

$$$$
7AA_A_501
          07192419483D 1   1.00000     0.00000     0
            
 39 42  0  0  0  0            999 V2000
   51.5990   12.3760   17.3700 Cl  0  0  0  0  0  0  0  0  0  0  0  0
   47.0130    9.8810   17.8860 Cl  0  0  0  0  0  0  0  0  0  0  0  0
   43.8420   12.4220   14.9000 S   0  0  0  0  0  0  0  0  0  0  0  0
   43.7330   12.2040   12.0810 O   0  0  0  0  0  0  0  0  0  0  0  0
   41.4060   12.9270   12.0530 N   0  0  0  0  0  0  0  0  0  0  0  0
   45.3250   12.6670   19.1500 N   0  0  0  0  0  0  0  0  0  0  0  0
   42.9860   12.9910   19.8870 N   0  0  0  0  0  0  0  0  0  0  0  0
   41.4590   12.7990   14.6740 N   0  0  0  0  0  0  0  0  0  0  0  0
   45.7610   12.4340   16.8250 N   0  0  0  0  0  0  0  0  0  0  0  0
   43.6420   12.2660   10.5510 C   0  0  0  0  0  0  0  0  0  0  0  0
   44.3610   12.8560   20.1640 C   0  0  0  0  0  0  0  0  0  0  0  0
   49.2530   13.6010   16.7600 C   0  0  0  0  0  0  0  0  0  0  0  0
   47.8690   13.5830   16.6180 C   0  0  0  0  0  0  0  0  0  0  0  0
   40.9020   13.0020   16.9810 C   0  0  0  0  0  0  0  0  0  0  0  0
   41.2600   13.0830   18.3300 C   0  0  0  0  0  0  0  0  0  0  0  0
   49.1830   11.3260   17.5780 C   0  0  0  0  0  0  0  0  0  0  0  0
   49.9080   12.4490   17.2410 C   0  0  0  0  0  0  0  0  0  0  0  0
   42.5380   12.5740   13.9600 C   0  0  0  0  0  0  0  0  0  0  0  0
   47.7840   11.3190   17.4510 C   0  0  0  0  0  0  0  0  0  0  0  0
   42.5400   12.4870   12.6490 C   0  0  0  0  0  0  0  0  0  0  0  0
   43.0480   12.6690   16.3080 C   0  0  0  0  0  0  0  0  0  0  0  0
   44.9000   12.5910   17.8530 C   0  0  0  0  0  0  0  0  0  0  0  0
   47.1050   12.4710   17.0040 C   0  0  0  0  0  0  0  0  0  0  0  0
   41.7450   12.8160   16.0110 C   0  0  0  0  0  0  0  0  0  0  0  0
   42.5930   12.9540   18.6080 C   0  0  0  0  0  0  0  0  0  0  0  0
   43.5020   12.7290   17.5510 C   0  0  0  0  0  0  0  0  0  0  0  0
   40.5870   13.0975   12.6009 H   0  0  0  0  0  0  0  0  0  0  0  0
   41.3878   13.0813   11.0651 H   0  0  0  0  0  0  0  0  0  0  0  0
   40.5466   12.9397   14.2897 H   0  0  0  0  0  0  0  0  0  0  0  0
   45.3974   12.2862   15.9052 H   0  0  0  0  0  0  0  0  0  0  0  0
   44.5353   12.0533   10.1551 H   0  0  0  0  0  0  0  0  0  0  0  0
   42.9681   11.6006   10.2299 H   0  0  0  0  0  0  0  0  0  0  0  0
   43.3632   13.1845   10.2706 H   0  0  0  0  0  0  0  0  0  0  0  0
   44.6658   12.8956   21.1156 H   0  0  0  0  0  0  0  0  0  0  0  0
   49.7760   14.4200   16.5241 H   0  0  0  0  0  0  0  0  0  0  0  0
   47.4077   14.3817   16.2316 H   0  0  0  0  0  0  0  0  0  0  0  0
   39.9338   13.0932   16.7479 H   0  0  0  0  0  0  0  0  0  0  0  0
   40.5809   13.2269   19.0498 H   0  0  0  0  0  0  0  0  0  0  0  0
   49.6557   10.5117   17.9148 H   0  0  0  0  0  0  0  0  0  0  0  0
  1 17  1  0  0  0  0
  2 19  1  0  0  0  0
  3 18  1  0  0  0  0
  3 21  1  0  0  0  0
  4 10  1  0  0  0  0
  4 20  1  0  0  0  0
  5 20  1  0  0  0  0
  6 11  1  0  0  0  0
  6 22  2  0  0  0  0
  7 11  2  0  0  0  0
  7 25  1  0  0  0  0
  8 18  1  0  0  0  0
  8 24  1  0  0  0  0
  9 22  1  0  0  0  0
  9 23  1  0  0  0  0
 12 13  2  0  0  0  0
 12 17  1  0  0  0  0
 13 23  1  0  0  0  0
 14 15  1  0  0  0  0
 14 24  2  0  0  0  0
 15 25  2  0  0  0  0
 16 17  2  0  0  0  0
 16 19  1  0  0  0  0
 18 20  2  0  0  0  0
 19 23  2  0  0  0  0
 21 24  1  0  0  0  0
 21 26  2  0  0  0  0
 22 26  1  0  0  0  0
 25 26  1  0  0  0  0
  5 27  1  0  0  0  0
  5 28  1  0  0  0  0
  8 29  1  0  0  0  0
  9 30  1  0  0  0  0
 10 31  1  0  0  0  0
 10 32  1  0  0  0  0
 10 33  1  0  0  0  0
 11 34  1  0  0  0  0
 12 35  1  0  0  0  0
 13 36  1  0  0  0  0
 14 37  1  0  0  0  0
 15 38  1  0  0  0  0
 16 39  1  0  0  0  0
M  END
> <pdb_id>
5LXC

> <uniprot_id>
Q92630

> <usmiles>
Clc1c(Nc2ncnc3c2c4S/C(/Nc4cc3)=C(\OC)/N)ccc(Cl)c1

$$$$
7AN_A_302
          07202410243D 1   1.00000     0.00000     0
            
 29 30  0  0  0  0            999 V2000
   -5.2270   19.2100  -14.9850 O   0  0  0  0  0  0  0  0  0  0  0  0
   -6.3180   17.8060  -16.4240 N   0  0  0  0  0  0  0  0  0  0  0  0
   -9.6170   21.9200  -18.5970 N   0  0  0  0  0  0  0  0  0  0  0  0
   -4.7250   16.8800  -14.7390 C   0  0  0  0  0  0  0  0  0  0  0  0
   -6.9950   18.8980  -17.0360 C   0  0  0  0  0  0  0  0  0  0  0  0
   -8.8630   20.8230  -18.6670 C   0  0  0  0  0  0  0  0  0  0  0  0
  -11.8960   22.6010  -15.7180 C   0  0  0  0  0  0  0  0  0  0  0  0
  -11.6130   21.4310  -15.0090 C   0  0  0  0  0  0  0  0  0  0  0  0
   -8.4600   18.7500  -17.2310 C   0  0  0  0  0  0  0  0  0  0  0  0
  -11.2760   22.8480  -16.9330 C   0  0  0  0  0  0  0  0  0  0  0  0
  -10.6990   20.5010  -15.5040 C   0  0  0  0  0  0  0  0  0  0  0  0
   -5.4140   18.0510  -15.3630 C   0  0  0  0  0  0  0  0  0  0  0  0
  -10.3490   21.9060  -17.4410 C   0  0  0  0  0  0  0  0  0  0  0  0
   -9.1090   20.0450  -17.5390 C   0  0  0  0  0  0  0  0  0  0  0  0
  -10.0630   20.7530  -16.7460 C   0  0  0  0  0  0  0  0  0  0  0  0
   -6.4800   16.8717  -16.7416 H   0  0  0  0  0  0  0  0  0  0  0  0
   -9.6437   22.6444  -19.2859 H   0  0  0  0  0  0  0  0  0  0  0  0
   -5.0185   16.0393  -15.1940 H   0  0  0  0  0  0  0  0  0  0  0  0
   -3.7353   16.9843  -14.8374 H   0  0  0  0  0  0  0  0  0  0  0  0
   -4.9604   16.8332  -13.7682 H   0  0  0  0  0  0  0  0  0  0  0  0
   -6.5829   19.0443  -17.9353 H   0  0  0  0  0  0  0  0  0  0  0  0
   -6.8453   19.7055  -16.4654 H   0  0  0  0  0  0  0  0  0  0  0  0
   -8.2277   20.5969  -19.4054 H   0  0  0  0  0  0  0  0  0  0  0  0
  -12.5481   23.2626  -15.3478 H   0  0  0  0  0  0  0  0  0  0  0  0
  -12.0708   21.2584  -14.1369 H   0  0  0  0  0  0  0  0  0  0  0  0
   -8.8617   18.3779  -16.3942 H   0  0  0  0  0  0  0  0  0  0  0  0
   -8.6232   18.1182  -17.9887 H   0  0  0  0  0  0  0  0  0  0  0  0
  -11.4812   23.6821  -17.4450 H   0  0  0  0  0  0  0  0  0  0  0  0
  -10.4950   19.6678  -14.9900 H   0  0  0  0  0  0  0  0  0  0  0  0
  1 12  2  0  0  0  0
  2  5  1  0  0  0  0
  2 12  1  0  0  0  0
  3  6  1  0  0  0  0
  3 13  1  0  0  0  0
  4 12  1  0  0  0  0
  5  9  1  0  0  0  0
  6 14  2  0  0  0  0
  7  8  2  0  0  0  0
  7 10  1  0  0  0  0
  8 11  1  0  0  0  0
  9 14  1  0  0  0  0
 10 13  2  0  0  0  0
 11 15  2  0  0  0  0
 13 15  1  0  0  0  0
 14 15  1  0  0  0  0
  2 16  1  0  0  0  0
  3 17  1  0  0  0  0
  4 18  1  0  0  0  0
  4 19  1  0  0  0  0
  4 20  1  0  0  0  0
  5 21  1  0  0  0  0
  5 22  1  0  0  0  0
  6 23  1  0  0  0  0
  7 24  1  0  0  0  0
  8 25  1  0  0  0  0
  9 26  1  0  0  0  0
  9 27  1  0  0  0  0
 10 28  1  0  0  0  0
 11 29  1  0  0  0  0
M  END
> <pdb_id>
5GI9

> <uniprot_id>
Q94521

> <usmiles>
O=C(NCCC=1c2c(NC1)cccc2)C

$$$$
7B1_A_303
          07192416293D 1   1.00000     0.00000     0
            
 33 35  0  0  0  0            999 V2000
   -5.8344    1.0017   16.7566 S   0  0  0  0  0  0  0  0  0  0  0  0
   -5.2829    1.1837   18.0892 O   0  0  0  0  0  0  0  0  0  0  0  0
   -7.2812    1.1082   16.6196 O   0  0  0  0  0  0  0  0  0  0  0  0
   -6.9549    6.9800   11.6201 O   0  0  0  0  0  0  0  0  0  0  0  0
   -3.5652    5.2630   13.5615 O   0  0  0  0  0  0  0  0  0  0  0  0
   -5.3233   -0.4348   16.1652 N   0  0  0  0  0  0  0  0  0  0  0  0
   -4.8753    7.1620   12.3822 N   0  0  0  0  0  0  0  0  0  0  0  0
   -5.9273    5.3231   13.8060 N   0  0  0  0  0  0  0  0  0  0  0  0
   -5.2251   11.5276   10.4188 C   0  0  0  0  0  0  0  0  0  0  0  0
   -6.4987   11.1093   10.7059 C   0  0  0  0  0  0  0  0  0  0  0  0
   -4.1466   10.6739   10.5453 C   0  0  0  0  0  0  0  0  0  0  0  0
   -3.7976    2.3252   15.5880 C   0  0  0  0  0  0  0  0  0  0  0  0
   -3.1742    3.2965   14.8651 C   0  0  0  0  0  0  0  0  0  0  0  0
   -6.7108    9.8143   11.1343 C   0  0  0  0  0  0  0  0  0  0  0  0
   -4.3537    9.3819   10.9677 C   0  0  0  0  0  0  0  0  0  0  0  0
   -5.9824    3.2848   15.2018 C   0  0  0  0  0  0  0  0  0  0  0  0
   -5.1701    2.3120   15.7469 C   0  0  0  0  0  0  0  0  0  0  0  0
   -5.9375    7.6142   11.7337 C   0  0  0  0  0  0  0  0  0  0  0  0
   -4.8709    5.9839   13.0968 C   0  0  0  0  0  0  0  0  0  0  0  0
   -3.9644    4.2434   14.3020 C   0  0  0  0  0  0  0  0  0  0  0  0
   -5.3319    4.2393   14.4520 C   0  0  0  0  0  0  0  0  0  0  0  0
   -5.6484    8.9736   11.2567 C   0  0  0  0  0  0  0  0  0  0  0  0
   -5.6975   -0.5697   15.2478 H   0  0  0  0  0  0  0  0  0  0  0  0
   -4.3242   -0.4410   16.1219 H   0  0  0  0  0  0  0  0  0  0  0  0
   -4.0345    7.7024   12.3519 H   0  0  0  0  0  0  0  0  0  0  0  0
   -5.0741   12.4674   10.1124 H   0  0  0  0  0  0  0  0  0  0  0  0
   -7.2694   11.7386   10.6056 H   0  0  0  0  0  0  0  0  0  0  0  0
   -3.2232   10.9927   10.3314 H   0  0  0  0  0  0  0  0  0  0  0  0
   -3.2495    1.6051   16.0135 H   0  0  0  0  0  0  0  0  0  0  0  0
   -2.1804    3.3106   14.7548 H   0  0  0  0  0  0  0  0  0  0  0  0
   -7.6342    9.4981   11.3520 H   0  0  0  0  0  0  0  0  0  0  0  0
   -3.5861    8.7484   11.0648 H   0  0  0  0  0  0  0  0  0  0  0  0
   -6.9726    3.2960   15.3411 H   0  0  0  0  0  0  0  0  0  0  0  0
  1  2  2  0  0  0  0
  1  3  2  0  0  0  0
  1  6  1  0  0  0  0
  1 17  1  0  0  0  0
  4 18  2  0  0  0  0
  5 19  1  0  0  0  0
  5 20  1  0  0  0  0
  7 18  1  0  0  0  0
  7 19  1  0  0  0  0
  8 19  2  0  0  0  0
  8 21  1  0  0  0  0
  9 10  2  0  0  0  0
  9 11  1  0  0  0  0
 10 14  1  0  0  0  0
 11 15  2  0  0  0  0
 12 13  1  0  0  0  0
 12 17  2  0  0  0  0
 13 20  2  0  0  0  0
 14 22  2  0  0  0  0
 15 22  1  0  0  0  0
 16 17  1  0  0  0  0
 16 21  2  0  0  0  0
 18 22  1  0  0  0  0
 20 21  1  0  0  0  0
  6 23  1  0  0  0  0
  6 24  1  0  0  0  0
  7 25  1  0  0  0  0
  9 26  1  0  0  0  0
 10 27  1  0  0  0  0
 11 28  1  0  0  0  0
 12 29  1  0  0  0  0
 13 30  1  0  0  0  0
 14 31  1  0  0  0  0
 15 32  1  0  0  0  0
 16 33  1  0  0  0  0
M  END
> <pdb_id>
5TFX

> <uniprot_id>
P00918

> <usmiles>
S(=O)(=O)(N)c1cc2N=C(Oc2cc1)NC(=O)c3ccccc3

$$$$
7BJ_A_501
          07202413213D 1   1.00000     0.00000     0
            
 41 43  0  0  0  0            999 V2000
   12.0210   -4.1004   30.6217 F   0  0  0  0  0  0  0  0  0  0  0  0
    6.9321   -9.9880   24.9463 O   0  0  0  0  0  0  0  0  0  0  0  0
   11.4258  -10.7964   24.8349 O   0  0  0  0  0  0  0  0  0  0  0  0
   10.2328   -6.7443   26.1856 O   0  0  0  0  0  0  0  0  0  0  0  0
    8.1416  -11.9234   24.6572 N   0  0  0  0  0  0  0  0  0  0  0  0
    9.2580  -10.0393   24.8330 N   0  0  0  0  0  0  0  0  0  0  0  0
   11.1783   -6.0733   29.6865 C   0  0  0  0  0  0  0  0  0  0  0  0
   11.5331   -4.1379   28.3248 C   0  0  0  0  0  0  0  0  0  0  0  0
   10.7216   -6.7680   28.5861 C   0  0  0  0  0  0  0  0  0  0  0  0
   11.0770   -4.8227   27.2134 C   0  0  0  0  0  0  0  0  0  0  0  0
    9.8420   -8.1229   26.2538 C   0  0  0  0  0  0  0  0  0  0  0  0
    9.5224   -8.6071   24.8701 C   0  0  0  0  0  0  0  0  0  0  0  0
    9.7965  -15.2628   24.2172 C   0  0  0  0  0  0  0  0  0  0  0  0
    9.3691  -14.6890   25.5582 C   0  0  0  0  0  0  0  0  0  0  0  0
    9.3552  -14.3629   23.0741 C   0  0  0  0  0  0  0  0  0  0  0  0
    9.9150  -13.2826   25.7479 C   0  0  0  0  0  0  0  0  0  0  0  0
    9.9058  -12.9579   23.2454 C   0  0  0  0  0  0  0  0  0  0  0  0
    7.9748  -10.6039   24.8243 C   0  0  0  0  0  0  0  0  0  0  0  0
   11.5714   -4.7801   29.5310 C   0  0  0  0  0  0  0  0  0  0  0  0
   10.2368  -10.9937   24.7686 C   0  0  0  0  0  0  0  0  0  0  0  0
   10.6694   -6.1429   27.3411 C   0  0  0  0  0  0  0  0  0  0  0  0
    9.5397  -12.3402   24.5980 C   0  0  0  0  0  0  0  0  0  0  0  0
    7.4717  -12.4821   24.5915 H   0  0  0  0  0  0  0  0  0  0  0  0
   11.2167   -6.4884   30.5328 H   0  0  0  0  0  0  0  0  0  0  0  0
   11.8135   -3.2392   28.2513 H   0  0  0  0  0  0  0  0  0  0  0  0
   10.4478   -7.6601   28.6785 H   0  0  0  0  0  0  0  0  0  0  0  0
   11.0438   -4.3958   26.3736 H   0  0  0  0  0  0  0  0  0  0  0  0
    9.0570   -8.2151   26.8256 H   0  0  0  0  0  0  0  0  0  0  0  0
   10.5699   -8.6593   26.6359 H   0  0  0  0  0  0  0  0  0  0  0  0
   10.2789   -8.4050   24.2755 H   0  0  0  0  0  0  0  0  0  0  0  0
    8.7375   -8.1273   24.5351 H   0  0  0  0  0  0  0  0  0  0  0  0
    9.4029  -16.1525   24.1034 H   0  0  0  0  0  0  0  0  0  0  0  0
   10.7710  -15.3578   24.1997 H   0  0  0  0  0  0  0  0  0  0  0  0
    8.3915  -14.6669   25.6066 H   0  0  0  0  0  0  0  0  0  0  0  0
    9.6944  -15.2666   26.2789 H   0  0  0  0  0  0  0  0  0  0  0  0
    8.3838  -14.3279   23.0466 H   0  0  0  0  0  0  0  0  0  0  0  0
    9.6706  -14.7356   22.2260 H   0  0  0  0  0  0  0  0  0  0  0  0
   10.8912  -13.3250   25.8177 H   0  0  0  0  0  0  0  0  0  0  0  0
    9.5682  -12.9146   26.5849 H   0  0  0  0  0  0  0  0  0  0  0  0
   10.8812  -12.9840   23.1617 H   0  0  0  0  0  0  0  0  0  0  0  0
    9.5551  -12.3878   22.5313 H   0  0  0  0  0  0  0  0  0  0  0  0
  1 19  1  0  0  0  0
  2 18  2  0  0  0  0
  3 20  2  0  0  0  0
  4 11  1  0  0  0  0
  4 21  1  0  0  0  0
  5 18  1  0  0  0  0
  5 22  1  0  0  0  0
  5 23  1  0  0  0  0
  6 12  1  0  0  0  0
  6 18  1  0  0  0  0
  6 20  1  0  0  0  0
  7  9  2  0  0  0  0
  7 19  1  0  0  0  0
  7 24  1  0  0  0  0
  8 10  1  0  0  0  0
  8 19  2  0  0  0  0
  8 25  1  0  0  0  0
  9 21  1  0  0  0  0
  9 26  1  0  0  0  0
 10 21  2  0  0  0  0
 10 27  1  0  0  0  0
 11 12  1  0  0  0  0
 11 28  1  0  0  0  0
 11 29  1  0  0  0  0
 12 30  1  0  0  0  0
 12 31  1  0  0  0  0
 13 14  1  0  0  0  0
 13 15  1  0  0  0  0
 13 32  1  0  0  0  0
 13 33  1  0  0  0  0
 14 16  1  0  0  0  0
 14 34  1  0  0  0  0
 14 35  1  0  0  0  0
 15 17  1  0  0  0  0
 15 36  1  0  0  0  0
 15 37  1  0  0  0  0
 16 22  1  0  0  0  0
 16 38  1  0  0  0  0
 16 39  1  0  0  0  0
 17 22  1  0  0  0  0
 17 40  1  0  0  0  0
 17 41  1  0  0  0  0
 20 22  1  0  0  0  0
M  END
> <pdb_id>
5LYY

> <uniprot_id>
Q13093

> <usmiles>
Fc1ccc(OCCN2C(=O)NC3(C2=O)CCCCC3)cc1

$$$$
7BK_A_502
          07202413213D 1   1.00000     0.00000     0
            
 44 46  0  0  0  0            999 V2000
   12.0645   -4.3136   30.5605 F   0  0  0  0  0  0  0  0  0  0  0  0
    6.8856   -9.7364   24.9725 O   0  0  0  0  0  0  0  0  0  0  0  0
   10.3131   -6.9869   26.1132 O   0  0  0  0  0  0  0  0  0  0  0  0
   12.4644   -1.9412   27.9569 N   0  0  0  0  0  0  0  0  0  0  0  0
    9.0953  -10.1943   24.7346 N   0  0  0  0  0  0  0  0  0  0  0  0
    9.3455  -13.0460   23.0584 C   0  0  0  0  0  0  0  0  0  0  0  0
   12.0940   -3.0246   28.0836 C   0  0  0  0  0  0  0  0  0  0  0  0
    9.4637  -15.9169   27.2236 C   0  0  0  0  0  0  0  0  0  0  0  0
   10.3676  -14.8816   27.2898 C   0  0  0  0  0  0  0  0  0  0  0  0
    8.4521  -15.8853   26.2944 C   0  0  0  0  0  0  0  0  0  0  0  0
   11.1848   -6.2885   29.6294 C   0  0  0  0  0  0  0  0  0  0  0  0
   10.2618  -13.8082   26.4244 C   0  0  0  0  0  0  0  0  0  0  0  0
    8.3392  -14.8141   25.4246 C   0  0  0  0  0  0  0  0  0  0  0  0
   10.7379   -6.9868   28.5283 C   0  0  0  0  0  0  0  0  0  0  0  0
   11.1816   -5.0813   27.1305 C   0  0  0  0  0  0  0  0  0  0  0  0
    9.8665   -8.3498   26.1732 C   0  0  0  0  0  0  0  0  0  0  0  0
    9.5721   -8.8246   24.7712 C   0  0  0  0  0  0  0  0  0  0  0  0
   10.0048  -11.3291   24.7745 C   0  0  0  0  0  0  0  0  0  0  0  0
    7.6671  -12.0188   24.6701 C   0  0  0  0  0  0  0  0  0  0  0  0
    7.8038  -10.5290   24.8118 C   0  0  0  0  0  0  0  0  0  0  0  0
   11.6256   -4.9976   29.4773 C   0  0  0  0  0  0  0  0  0  0  0  0
   10.7345   -6.3867   27.2731 C   0  0  0  0  0  0  0  0  0  0  0  0
   11.6354   -4.3715   28.2415 C   0  0  0  0  0  0  0  0  0  0  0  0
    9.2445  -13.7546   25.4740 C   0  0  0  0  0  0  0  0  0  0  0  0
    9.1100  -12.5689   24.5013 C   0  0  1  0  0  0  0  0  0  0  0  0
    9.5733  -13.9972   23.0601 H   0  0  0  0  0  0  0  0  0  0  0  0
   10.0796  -12.5388   22.6606 H   0  0  0  0  0  0  0  0  0  0  0  0
    8.5359  -12.9082   22.5311 H   0  0  0  0  0  0  0  0  0  0  0  0
    9.5388  -16.6468   27.8155 H   0  0  0  0  0  0  0  0  0  0  0  0
   11.0619  -14.9044   27.9271 H   0  0  0  0  0  0  0  0  0  0  0  0
    7.8323  -16.5946   26.2494 H   0  0  0  0  0  0  0  0  0  0  0  0
   11.1877   -6.6954   30.4812 H   0  0  0  0  0  0  0  0  0  0  0  0
   10.8861  -13.1084   26.4801 H   0  0  0  0  0  0  0  0  0  0  0  0
    7.6418  -14.8023   24.7904 H   0  0  0  0  0  0  0  0  0  0  0  0
   10.4359   -7.8691   28.6268 H   0  0  0  0  0  0  0  0  0  0  0  0
   11.1802   -4.6730   26.2793 H   0  0  0  0  0  0  0  0  0  0  0  0
    9.0591   -8.4093   26.7215 H   0  0  0  0  0  0  0  0  0  0  0  0
   10.5621   -8.9121   26.5789 H   0  0  0  0  0  0  0  0  0  0  0  0
   10.3895   -8.7566   24.2313 H   0  0  0  0  0  0  0  0  0  0  0  0
    8.8952   -8.2387   24.3694 H   0  0  0  0  0  0  0  0  0  0  0  0
   10.6983  -11.2429   24.0917 H   0  0  0  0  0  0  0  0  0  0  0  0
   10.4318  -11.3960   25.6459 H   0  0  0  0  0  0  0  0  0  0  0  0
    7.2417  -12.3998   25.4656 H   0  0  0  0  0  0  0  0  0  0  0  0
    7.1189  -12.2406   23.8903 H   0  0  0  0  0  0  0  0  0  0  0  0
  1 21  1  0  0  0  0
  2 20  2  0  0  0  0
  3 16  1  0  0  0  0
  3 22  1  0  0  0  0
  4  7  3  0  0  0  0
  5 17  1  0  0  0  0
  5 18  1  0  0  0  0
  5 20  1  0  0  0  0
  6 25  1  0  0  0  0
  6 26  1  0  0  0  0
  6 27  1  0  0  0  0
  6 28  1  0  0  0  0
  7 23  1  0  0  0  0
  8  9  2  0  0  0  0
  8 10  1  0  0  0  0
  8 29  1  0  0  0  0
  9 12  1  0  0  0  0
  9 30  1  0  0  0  0
 10 13  2  0  0  0  0
 10 31  1  0  0  0  0
 11 14  1  0  0  0  0
 11 21  2  0  0  0  0
 11 32  1  0  0  0  0
 12 24  2  0  0  0  0
 12 33  1  0  0  0  0
 13 24  1  0  0  0  0
 13 34  1  0  0  0  0
 14 22  2  0  0  0  0
 14 35  1  0  0  0  0
 15 22  1  0  0  0  0
 15 23  2  0  0  0  0
 15 36  1  0  0  0  0
 16 17  1  0  0  0  0
 16 37  1  0  0  0  0
 16 38  1  0  0  0  0
 17 39  1  0  0  0  0
 17 40  1  0  0  0  0
 18 25  1  0  0  0  0
 18 41  1  0  0  0  0
 18 42  1  0  0  0  0
 19 20  1  0  0  0  0
 19 25  1  0  0  0  0
 19 43  1  0  0  0  0
 19 44  1  0  0  0  0
 21 23  1  0  0  0  0
 24 25  1  0  0  0  0
M  END
> <pdb_id>
5LZ7

> <uniprot_id>
Q13093

> <usmiles>
Fc1c(C#N)cc(OCCN2C(=O)C[C@](c3ccccc3)(C2)C)cc1

$$$$
7BP_A_503
          07202413213D 1   1.00000     0.00000     0
            
 43 44  0  0  0  0            999 V2000
   12.0638   -4.2011   30.5577 F   0  0  0  0  0  0  0  0  0  0  0  0
    6.8697   -9.8355   24.9147 O   0  0  0  0  0  0  0  0  0  0  0  0
   10.3103   -6.9104   26.1281 O   0  0  0  0  0  0  0  0  0  0  0  0
   12.5505   -1.8894   28.0124 N   0  0  0  0  0  0  0  0  0  0  0  0
    9.1214  -10.1486   24.8166 N   0  0  0  0  0  0  0  0  0  0  0  0
   11.2159  -14.0758   24.7719 C   0  0  0  0  0  0  0  0  0  0  0  0
    9.7648  -13.6715   22.7625 C   0  0  0  0  0  0  0  0  0  0  0  0
    8.8793  -14.9836   24.7131 C   0  0  0  0  0  0  0  0  0  0  0  0
   12.1628   -2.9331   28.1077 C   0  0  0  0  0  0  0  0  0  0  0  0
   11.1544   -6.1762   29.6452 C   0  0  0  0  0  0  0  0  0  0  0  0
   10.7085   -6.8775   28.5430 C   0  0  0  0  0  0  0  0  0  0  0  0
   11.2092   -4.9959   27.1254 C   0  0  0  0  0  0  0  0  0  0  0  0
    9.8220   -8.2539   26.2220 C   0  0  0  0  0  0  0  0  0  0  0  0
    9.5172   -8.7510   24.8388 C   0  0  0  0  0  0  0  0  0  0  0  0
   10.0920  -11.2304   24.7206 C   0  0  0  0  0  0  0  0  0  0  0  0
    7.8218  -12.0557   24.6069 C   0  0  0  0  0  0  0  0  0  0  0  0
    7.8450  -10.5640   24.7973 C   0  0  0  0  0  0  0  0  0  0  0  0
   11.6223   -4.8981   29.4814 C   0  0  0  0  0  0  0  0  0  0  0  0
   10.7329   -6.2910   27.2790 C   0  0  0  0  0  0  0  0  0  0  0  0
   11.6568   -4.2934   28.2334 C   0  0  0  0  0  0  0  0  0  0  0  0
    9.2493  -12.4875   24.9627 C   0  0  1  0  0  0  0  0  0  0  0  0
    9.7737  -13.7995   24.2973 C   0  0  0  0  0  0  0  0  0  0  0  0
   11.4928  -13.3805   25.3971 H   0  0  0  0  0  0  0  0  0  0  0  0
   11.8183  -14.0781   24.0034 H   0  0  0  0  0  0  0  0  0  0  0  0
   11.2540  -14.9440   25.2168 H   0  0  0  0  0  0  0  0  0  0  0  0
   10.6679  -13.7933   22.4193 H   0  0  0  0  0  0  0  0  0  0  0  0
    9.4399  -12.7882   22.5084 H   0  0  0  0  0  0  0  0  0  0  0  0
    9.1800  -14.3528   22.3788 H   0  0  0  0  0  0  0  0  0  0  0  0
    8.1719  -14.6678   25.3075 H   0  0  0  0  0  0  0  0  0  0  0  0
    9.4164  -15.6532   25.1779 H   0  0  0  0  0  0  0  0  0  0  0  0
    8.4773  -15.3856   23.9190 H   0  0  0  0  0  0  0  0  0  0  0  0
   11.1378   -6.5717   30.4995 H   0  0  0  0  0  0  0  0  0  0  0  0
   10.3868   -7.7518   28.6466 H   0  0  0  0  0  0  0  0  0  0  0  0
   11.2280   -4.5935   26.2724 H   0  0  0  0  0  0  0  0  0  0  0  0
    9.0122   -8.2749   26.7682 H   0  0  0  0  0  0  0  0  0  0  0  0
   10.4985   -8.8274   26.6434 H   0  0  0  0  0  0  0  0  0  0  0  0
   10.3130   -8.6363   24.2754 H   0  0  0  0  0  0  0  0  0  0  0  0
    8.7960   -8.2084   24.4555 H   0  0  0  0  0  0  0  0  0  0  0  0
   10.5100  -11.2499   23.8371 H   0  0  0  0  0  0  0  0  0  0  0  0
   10.7886  -11.1373   25.4001 H   0  0  0  0  0  0  0  0  0  0  0  0
    7.1677  -12.4765   25.2041 H   0  0  0  0  0  0  0  0  0  0  0  0
    7.6009  -12.2902   23.6832 H   0  0  0  0  0  0  0  0  0  0  0  0
    9.2735  -12.6832   25.9277 H   0  0  0  0  0  0  0  0  0  0  0  0
  1 18  1  0  0  0  0
  2 17  2  0  0  0  0
  3 13  1  0  0  0  0
  3 19  1  0  0  0  0
  4  9  3  0  0  0  0
  5 14  1  0  0  0  0
  5 15  1  0  0  0  0
  5 17  1  0  0  0  0
  6 22  1  0  0  0  0
  6 23  1  0  0  0  0
  6 24  1  0  0  0  0
  6 25  1  0  0  0  0
  7 22  1  0  0  0  0
  7 26  1  0  0  0  0
  7 27  1  0  0  0  0
  7 28  1  0  0  0  0
  8 22  1  0  0  0  0
  8 29  1  0  0  0  0
  8 30  1  0  0  0  0
  8 31  1  0  0  0  0
  9 20  1  0  0  0  0
 10 11  1  0  0  0  0
 10 18  2  0  0  0  0
 10 32  1  0  0  0  0
 11 19  2  0  0  0  0
 11 33  1  0  0  0  0
 12 19  1  0  0  0  0
 12 20  2  0  0  0  0
 12 34  1  0  0  0  0
 13 14  1  0  0  0  0
 13 35  1  0  0  0  0
 13 36  1  0  0  0  0
 14 37  1  0  0  0  0
 14 38  1  0  0  0  0
 15 21  1  0  0  0  0
 15 39  1  0  0  0  0
 15 40  1  0  0  0  0
 16 17  1  0  0  0  0
 16 21  1  0  0  0  0
 16 41  1  0  0  0  0
 16 42  1  0  0  0  0
 18 20  1  0  0  0  0
 21 22  1  0  0  0  0
 21 43  1  0  0  0  0
M  END
> <pdb_id>
5LZ8

> <uniprot_id>
Q13093

> <usmiles>
Fc1c(C#N)cc(OCCN2C(=O)C[C@@H](C(C)(C)C)C2)cc1

$$$$
7BR_A_503
          07202413213D 1   1.00000     0.00000     0
            
 50 52  0  0  0  0            999 V2000
   10.7104  -16.6756   24.9620 S   0  0  0  0  0  0  0  0  0  0  0  0
   12.0352   -4.2734   30.6014 F   0  0  0  0  0  0  0  0  0  0  0  0
   10.7587  -16.6926   26.4000 O   0  0  0  0  0  0  0  0  0  0  0  0
   11.1154  -17.8620   24.2614 O   0  0  0  0  0  0  0  0  0  0  0  0
    6.8236   -9.6917   24.9092 O   0  0  0  0  0  0  0  0  0  0  0  0
   10.3623   -6.8991   26.1021 O   0  0  0  0  0  0  0  0  0  0  0  0
   12.4920   -1.8908   27.9974 N   0  0  0  0  0  0  0  0  0  0  0  0
    9.0614  -10.0532   24.7036 N   0  0  0  0  0  0  0  0  0  0  0  0
    9.5347  -13.7224   22.7773 C   0  0  0  0  0  0  0  0  0  0  0  0
   12.1182   -2.9649   28.1187 C   0  0  0  0  0  0  0  0  0  0  0  0
   11.1664   -6.2367   29.6445 C   0  0  0  0  0  0  0  0  0  0  0  0
   10.7380   -6.9248   28.5297 C   0  0  0  0  0  0  0  0  0  0  0  0
   11.2171   -5.0138   27.1511 C   0  0  0  0  0  0  0  0  0  0  0  0
   11.6531  -15.3118   24.3597 C   0  0  0  0  0  0  0  0  0  0  0  0
    9.0774  -16.2469   24.4498 C   0  0  0  0  0  0  0  0  0  0  0  0
    9.9146   -8.2587   26.1436 C   0  0  0  0  0  0  0  0  0  0  0  0
    9.4968   -8.6708   24.7575 C   0  0  0  0  0  0  0  0  0  0  0  0
    9.9978  -11.1586   24.5659 C   0  0  0  0  0  0  0  0  0  0  0  0
    7.7180  -11.9297   24.5637 C   0  0  0  0  0  0  0  0  0  0  0  0
   11.0582  -13.9816   24.7957 C   0  0  0  0  0  0  0  0  0  0  0  0
    8.7047  -14.8430   24.8982 C   0  0  0  0  0  0  0  0  0  0  0  0
    7.7770  -10.4388   24.7476 C   0  0  0  0  0  0  0  0  0  0  0  0
   11.6143   -4.9479   29.5076 C   0  0  0  0  0  0  0  0  0  0  0  0
   10.7616   -6.3155   27.2787 C   0  0  0  0  0  0  0  0  0  0  0  0
   11.6499   -4.3142   28.2723 C   0  0  0  0  0  0  0  0  0  0  0  0
    9.1395  -12.3798   24.9088 C   0  0  1  0  0  0  0  0  0  0  0  0
    9.6089  -13.7372   24.3184 C   0  0  0  0  0  0  0  0  0  0  0  0
    8.9210  -14.4176   22.4718 H   0  0  0  0  0  0  0  0  0  0  0  0
   10.4204  -13.8868   22.4042 H   0  0  0  0  0  0  0  0  0  0  0  0
    9.2131  -12.8536   22.4731 H   0  0  0  0  0  0  0  0  0  0  0  0
   11.1505   -6.6477   30.4925 H   0  0  0  0  0  0  0  0  0  0  0  0
   10.4287   -7.8073   28.6160 H   0  0  0  0  0  0  0  0  0  0  0  0
   11.2329   -4.6016   26.3023 H   0  0  0  0  0  0  0  0  0  0  0  0
   11.6903  -15.3848   23.3854 H   0  0  0  0  0  0  0  0  0  0  0  0
   12.5583  -15.4103   24.7188 H   0  0  0  0  0  0  0  0  0  0  0  0
    8.4690  -16.9011   24.8500 H   0  0  0  0  0  0  0  0  0  0  0  0
    9.0390  -16.3366   23.4770 H   0  0  0  0  0  0  0  0  0  0  0  0
   10.6402   -8.8397   26.4622 H   0  0  0  0  0  0  0  0  0  0  0  0
    9.1587   -8.3416   26.7578 H   0  0  0  0  0  0  0  0  0  0  0  0
   10.2526   -8.5498   24.1435 H   0  0  0  0  0  0  0  0  0  0  0  0
    8.7633   -8.0916   24.4562 H   0  0  0  0  0  0  0  0  0  0  0  0
   10.3457  -11.2146   23.6544 H   0  0  0  0  0  0  0  0  0  0  0  0
   10.7458  -11.0667   25.1884 H   0  0  0  0  0  0  0  0  0  0  0  0
    7.0624  -12.3345   25.1688 H   0  0  0  0  0  0  0  0  0  0  0  0
    7.4851  -12.1628   23.6433 H   0  0  0  0  0  0  0  0  0  0  0  0
   11.0765  -13.9369   25.7736 H   0  0  0  0  0  0  0  0  0  0  0  0
   11.6250  -13.2616   24.4546 H   0  0  0  0  0  0  0  0  0  0  0  0
    7.7806  -14.6607   24.6333 H   0  0  0  0  0  0  0  0  0  0  0  0
    8.7487  -14.8004   25.8755 H   0  0  0  0  0  0  0  0  0  0  0  0
    9.1828  -12.5102   25.8844 H   0  0  0  0  0  0  0  0  0  0  0  0
  1  3  2  0  0  0  0
  1  4  2  0  0  0  0
  1 14  1  0  0  0  0
  1 15  1  0  0  0  0
  2 23  1  0  0  0  0
  5 22  2  0  0  0  0
  6 16  1  0  0  0  0
  6 24  1  0  0  0  0
  7 10  3  0  0  0  0
  8 17  1  0  0  0  0
  8 18  1  0  0  0  0
  8 22  1  0  0  0  0
  9 27  1  0  0  0  0
  9 28  1  0  0  0  0
  9 29  1  0  0  0  0
  9 30  1  0  0  0  0
 10 25  1  0  0  0  0
 11 12  1  0  0  0  0
 11 23  2  0  0  0  0
 11 31  1  0  0  0  0
 12 24  2  0  0  0  0
 12 32  1  0  0  0  0
 13 24  1  0  0  0  0
 13 25  2  0  0  0  0
 13 33  1  0  0  0  0
 14 20  1  0  0  0  0
 14 34  1  0  0  0  0
 14 35  1  0  0  0  0
 15 21  1  0  0  0  0
 15 36  1  0  0  0  0
 15 37  1  0  0  0  0
 16 17  1  0  0  0  0
 16 38  1  0  0  0  0
 16 39  1  0  0  0  0
 17 40  1  0  0  0  0
 17 41  1  0  0  0  0
 18 26  1  0  0  0  0
 18 42  1  0  0  0  0
 18 43  1  0  0  0  0
 19 22  1  0  0  0  0
 19 26  1  0  0  0  0
 19 44  1  0  0  0  0
 19 45  1  0  0  0  0
 20 27  1  0  0  0  0
 20 46  1  0  0  0  0
 20 47  1  0  0  0  0
 21 27  1  0  0  0  0
 21 48  1  0  0  0  0
 21 49  1  0  0  0  0
 23 25  1  0  0  0  0
 26 27  1  0  0  0  0
 26 50  1  0  0  0  0
M  END
> <pdb_id>
5LZ9

> <uniprot_id>
Q13093

> <usmiles>
S1(=O)(=O)CCC([C@H]2CN(C(=O)C2)CCOc3cc(C#N)c(F)cc3)(CC1)C

$$$$
7BW_A_503
          07202413213D 1   1.00000     0.00000     0
            
 37 38  0  0  0  0            999 V2000
   12.0499   -4.2972   30.5511 F   0  0  0  0  0  0  0  0  0  0  0  0
    6.8852   -9.8573   24.8850 O   0  0  0  0  0  0  0  0  0  0  0  0
   10.3041   -7.0063   26.1125 O   0  0  0  0  0  0  0  0  0  0  0  0
   12.4946   -1.9514   27.9394 N   0  0  0  0  0  0  0  0  0  0  0  0
    9.1218  -10.2275   24.7090 N   0  0  0  0  0  0  0  0  0  0  0  0
    9.4021  -13.2272   23.0489 C   0  0  0  0  0  0  0  0  0  0  0  0
    9.5672  -13.6440   25.5284 C   0  0  0  0  0  0  0  0  0  0  0  0
   12.1110   -3.0361   28.0696 C   0  0  0  0  0  0  0  0  0  0  0  0
   11.1593   -6.2727   29.6287 C   0  0  0  0  0  0  0  0  0  0  0  0
   10.7131   -6.9800   28.5306 C   0  0  0  0  0  0  0  0  0  0  0  0
   11.1861   -5.0898   27.1193 C   0  0  0  0  0  0  0  0  0  0  0  0
    9.9909   -8.4084   26.1463 C   0  0  0  0  0  0  0  0  0  0  0  0
    9.5477   -8.8398   24.7616 C   0  0  0  0  0  0  0  0  0  0  0  0
   10.0759  -11.3252   24.6073 C   0  0  0  0  0  0  0  0  0  0  0  0
    7.7527  -12.1061   24.6250 C   0  0  0  0  0  0  0  0  0  0  0  0
    7.8389  -10.6124   24.7552 C   0  0  0  0  0  0  0  0  0  0  0  0
   11.6130   -4.9877   29.4717 C   0  0  0  0  0  0  0  0  0  0  0  0
   10.7243   -6.3913   27.2683 C   0  0  0  0  0  0  0  0  0  0  0  0
   11.6396   -4.3704   28.2304 C   0  0  0  0  0  0  0  0  0  0  0  0
    9.2082  -12.6070   24.4457 C   0  0  0  0  0  0  0  0  0  0  0  0
    9.6649  -14.1629   23.1389 H   0  0  0  0  0  0  0  0  0  0  0  0
   10.0977  -12.7407   22.5683 H   0  0  0  0  0  0  0  0  0  0  0  0
    8.5666  -13.1738   22.5482 H   0  0  0  0  0  0  0  0  0  0  0  0
    8.8019  -13.7814   26.1161 H   0  0  0  0  0  0  0  0  0  0  0  0
   10.3237  -13.3205   26.0549 H   0  0  0  0  0  0  0  0  0  0  0  0
    9.8059  -14.4908   25.1061 H   0  0  0  0  0  0  0  0  0  0  0  0
   11.1518   -6.6718   30.4835 H   0  0  0  0  0  0  0  0  0  0  0  0
   10.4031   -7.8587   28.6357 H   0  0  0  0  0  0  0  0  0  0  0  0
   11.1943   -4.6895   26.2649 H   0  0  0  0  0  0  0  0  0  0  0  0
    9.2771   -8.5732   26.7893 H   0  0  0  0  0  0  0  0  0  0  0  0
   10.7822   -8.9206   26.4207 H   0  0  0  0  0  0  0  0  0  0  0  0
   10.2920   -8.7119   24.1340 H   0  0  0  0  0  0  0  0  0  0  0  0
    8.8072   -8.2674   24.4702 H   0  0  0  0  0  0  0  0  0  0  0  0
   10.6624  -11.2035   23.8336 H   0  0  0  0  0  0  0  0  0  0  0  0
   10.6282  -11.3794   25.4120 H   0  0  0  0  0  0  0  0  0  0  0  0
    7.3482  -12.4963   25.4252 H   0  0  0  0  0  0  0  0  0  0  0  0
    7.2050  -12.3504   23.8510 H   0  0  0  0  0  0  0  0  0  0  0  0
  1 17  1  0  0  0  0
  2 16  2  0  0  0  0
  3 12  1  0  0  0  0
  3 18  1  0  0  0  0
  4  8  3  0  0  0  0
  5 13  1  0  0  0  0
  5 14  1  0  0  0  0
  5 16  1  0  0  0  0
  6 20  1  0  0  0  0
  6 21  1  0  0  0  0
  6 22  1  0  0  0  0
  6 23  1  0  0  0  0
  7 20  1  0  0  0  0
  7 24  1  0  0  0  0
  7 25  1  0  0  0  0
  7 26  1  0  0  0  0
  8 19  1  0  0  0  0
  9 10  1  0  0  0  0
  9 17  2  0  0  0  0
  9 27  1  0  0  0  0
 10 18  2  0  0  0  0
 10 28  1  0  0  0  0
 11 18  1  0  0  0  0
 11 19  2  0  0  0  0
 11 29  1  0  0  0  0
 12 13  1  0  0  0  0
 12 30  1  0  0  0  0
 12 31  1  0  0  0  0
 13 32  1  0  0  0  0
 13 33  1  0  0  0  0
 14 20  1  0  0  0  0
 14 34  1  0  0  0  0
 14 35  1  0  0  0  0
 15 16  1  0  0  0  0
 15 20  1  0  0  0  0
 15 36  1  0  0  0  0
 15 37  1  0  0  0  0
 17 19  1  0  0  0  0
M  END
> <pdb_id>
5LZ4

> <uniprot_id>
Q13093

> <usmiles>
Fc1c(C#N)cc(OCCN2C(=O)CC(C2)(C)C)cc1

$$$$
7DE_B_601
          07202412153D 1   1.00000     0.00000     0
            
 36 37  0  0  0  0            999 V2000
   48.3300   46.8837   58.6085 O   0  5  0  0  0  0  0  0  0  0  0  0
   50.3080   46.1360   58.2888 O   0  0  0  0  0  0  0  0  0  0  0  0
   44.0607   46.7175   66.1927 O   0  0  0  0  0  0  0  0  0  0  0  0
   43.3238   45.9534   64.2097 O   0  0  0  0  0  0  0  0  0  0  0  0
   47.8336   46.6296   64.5250 N   0  0  0  0  0  0  0  0  0  0  0  0
   49.3102   46.2600   58.9760 N   0  3  0  0  0  0  0  0  0  0  0  0
   47.4905   45.9221   63.4329 N   0  0  0  0  0  0  0  0  0  0  0  0
   41.0341   45.2599   63.6923 C   0  0  0  0  0  0  0  0  0  0  0  0
   46.9226   47.6339   66.5425 C   0  0  0  0  0  0  0  0  0  0  0  0
   45.4450   44.9223   62.3906 C   0  0  0  0  0  0  0  0  0  0  0  0
   41.9437   46.0898   64.6248 C   0  0  0  0  0  0  0  0  0  0  0  0
   50.3461   44.2577   61.8905 C   0  0  0  0  0  0  0  0  0  0  0  0
   50.3195   44.8029   60.6037 C   0  0  0  0  0  0  0  0  0  0  0  0
   49.3891   44.6321   62.8365 C   0  0  0  0  0  0  0  0  0  0  0  0
   48.3766   46.1064   61.2075 C   0  0  0  0  0  0  0  0  0  0  0  0
   44.2884   46.2735   65.0769 C   0  0  0  0  0  0  0  0  0  0  0  0
   46.8294   46.8643   65.2540 C   0  0  0  0  0  0  0  0  0  0  0  0
   49.3311   45.7335   60.2366 C   0  0  0  0  0  0  0  0  0  0  0  0
   48.3993   45.5554   62.4927 C   0  0  0  0  0  0  0  0  0  0  0  0
   46.1966   45.6923   63.4621 C   0  0  0  0  0  0  0  0  0  0  0  0
   45.6787   46.2472   64.5826 C   0  0  0  0  0  0  0  0  0  0  0  0
   40.0821   45.3568   63.9825 H   0  0  0  0  0  0  0  0  0  0  0  0
   41.1314   45.5885   62.7529 H   0  0  0  0  0  0  0  0  0  0  0  0
   41.3000   44.2969   63.7378 H   0  0  0  0  0  0  0  0  0  0  0  0
   46.0148   47.7028   66.9560 H   0  0  0  0  0  0  0  0  0  0  0  0
   47.5397   47.1594   67.1702 H   0  0  0  0  0  0  0  0  0  0  0  0
   47.2754   48.5512   66.3580 H   0  0  0  0  0  0  0  0  0  0  0  0
   44.4753   44.8776   62.6306 H   0  0  0  0  0  0  0  0  0  0  0  0
   45.5497   45.3866   61.5112 H   0  0  0  0  0  0  0  0  0  0  0  0
   45.8151   43.9957   62.3245 H   0  0  0  0  0  0  0  0  0  0  0  0
   41.6766   47.0523   64.5790 H   0  0  0  0  0  0  0  0  0  0  0  0
   41.8452   45.7607   65.5640 H   0  0  0  0  0  0  0  0  0  0  0  0
   51.0544   43.5957   62.1352 H   0  0  0  0  0  0  0  0  0  0  0  0
   51.0115   44.5279   59.9363 H   0  0  0  0  0  0  0  0  0  0  0  0
   49.4127   44.2407   63.7564 H   0  0  0  0  0  0  0  0  0  0  0  0
   47.6722   46.7761   60.9723 H   0  0  0  0  0  0  0  0  0  0  0  0
  1  6  1  0  0  0  0
  2  6  2  0  0  0  0
  3 16  2  0  0  0  0
  4 11  1  0  0  0  0
  4 16  1  0  0  0  0
  5  7  1  0  0  0  0
  5 17  2  0  0  0  0
  6 18  1  0  0  0  0
  7 19  1  0  0  0  0
  7 20  1  0  0  0  0
  8 11  1  0  0  0  0
  9 17  1  0  0  0  0
 10 20  1  0  0  0  0
 12 13  1  0  0  0  0
 12 14  2  0  0  0  0
 13 18  2  0  0  0  0
 14 19  1  0  0  0  0
 15 18  1  0  0  0  0
 15 19  2  0  0  0  0
 16 21  1  0  0  0  0
 17 21  1  0  0  0  0
 20 21  2  0  0  0  0
  8 22  1  0  0  0  0
  8 23  1  0  0  0  0
  8 24  1  0  0  0  0
  9 25  1  0  0  0  0
  9 26  1  0  0  0  0
  9 27  1  0  0  0  0
 10 28  1  0  0  0  0
 10 29  1  0  0  0  0
 10 30  1  0  0  0  0
 11 31  1  0  0  0  0
 11 32  1  0  0  0  0
 12 33  1  0  0  0  0
 13 34  1  0  0  0  0
 14 35  1  0  0  0  0
 15 36  1  0  0  0  0
M  CHG  2   1  -1   6   1
M  END
> <pdb_id>
1Y2K

> <uniprot_id>
Q08499

> <usmiles>
[O-][N+](=O)c1cc(N2N=C(C(C(=O)OCC)=C2C)C)ccc1

$$$$
7DP_A_302
          07202410243D 1   1.00000     0.00000     0
            
 27 27  0  0  0  0            999 V2000
   -5.2363   19.1398  -14.8618 O   0  0  0  0  0  0  0  0  0  0  0  0
  -11.5365   23.4755  -16.8157 O   0  0  0  0  0  0  0  0  0  0  0  0
  -10.4323   22.7487  -19.2159 O   0  0  0  0  0  0  0  0  0  0  0  0
   -6.4513   17.8665  -16.3478 N   0  0  0  0  0  0  0  0  0  0  0  0
   -4.7068   16.8043  -14.8642 C   0  0  0  0  0  0  0  0  0  0  0  0
   -7.1867   19.0312  -16.8059 C   0  0  0  0  0  0  0  0  0  0  0  0
   -8.6181   18.6434  -17.1734 C   0  0  0  0  0  0  0  0  0  0  0  0
  -10.7320   21.4907  -15.8069 C   0  0  0  0  0  0  0  0  0  0  0  0
  -10.0061   20.3239  -15.9597 C   0  0  0  0  0  0  0  0  0  0  0  0
   -9.5229   20.7338  -18.2722 C   0  0  0  0  0  0  0  0  0  0  0  0
   -5.4482   18.0230  -15.3336 C   0  0  0  0  0  0  0  0  0  0  0  0
  -10.8445   22.2969  -16.9154 C   0  0  0  0  0  0  0  0  0  0  0  0
  -10.2598   21.9065  -18.1104 C   0  0  0  0  0  0  0  0  0  0  0  0
   -9.4114   19.9246  -17.1468 C   0  0  0  0  0  0  0  0  0  0  0  0
  -11.6263   24.0716  -17.6136 H   0  0  0  0  0  0  0  0  0  0  0  0
  -10.9570   23.5948  -19.1228 H   0  0  0  0  0  0  0  0  0  0  0  0
   -6.6419   16.9644  -16.7349 H   0  0  0  0  0  0  0  0  0  0  0  0
   -5.0260   16.0039  -15.3717 H   0  0  0  0  0  0  0  0  0  0  0  0
   -3.7270   16.9293  -15.0208 H   0  0  0  0  0  0  0  0  0  0  0  0
   -4.8736   16.6682  -13.8877 H   0  0  0  0  0  0  0  0  0  0  0  0
   -6.7316   19.4133  -17.6102 H   0  0  0  0  0  0  0  0  0  0  0  0
   -7.2070   19.7161  -16.0776 H   0  0  0  0  0  0  0  0  0  0  0  0
   -8.9844   17.9934  -16.5076 H   0  0  0  0  0  0  0  0  0  0  0  0
   -8.6450   18.2363  -18.0863 H   0  0  0  0  0  0  0  0  0  0  0  0
  -11.1541   21.7360  -14.9342 H   0  0  0  0  0  0  0  0  0  0  0  0
   -9.9033   19.7295  -15.1622 H   0  0  0  0  0  0  0  0  0  0  0  0
   -9.1001   20.4894  -19.1449 H   0  0  0  0  0  0  0  0  0  0  0  0
  1 11  2  0  0  0  0
  2 12  1  0  0  0  0
  3 13  1  0  0  0  0
  4  6  1  0  0  0  0
  4 11  1  0  0  0  0
  5 11  1  0  0  0  0
  6  7  1  0  0  0  0
  7 14  1  0  0  0  0
  8  9  1  0  0  0  0
  8 12  2  0  0  0  0
  9 14  2  0  0  0  0
 10 13  2  0  0  0  0
 10 14  1  0  0  0  0
 12 13  1  0  0  0  0
  2 15  1  0  0  0  0
  3 16  1  0  0  0  0
  4 17  1  0  0  0  0
  5 18  1  0  0  0  0
  5 19  1  0  0  0  0
  5 20  1  0  0  0  0
  6 21  1  0  0  0  0
  6 22  1  0  0  0  0
  7 23  1  0  0  0  0
  7 24  1  0  0  0  0
  8 25  1  0  0  0  0
  9 26  1  0  0  0  0
 10 27  1  0  0  0  0
M  END
> <pdb_id>
5GI8

> <uniprot_id>
Q94521

> <usmiles>
O=C(NCCc1cc(O)c(O)cc1)C

$$$$
7E7_A_303
          07212401333D 1   1.00000     0.00000     0
            
 37 40  0  0  0  0            999 V2000
  -13.1828  -21.0805  -18.1009 O   0  0  0  0  0  0  0  0  0  0  0  0
  -16.1555  -23.9207  -22.5401 N   0  0  0  0  0  0  0  0  0  0  0  0
  -16.6473  -22.7465  -23.1148 N   0  0  0  0  0  0  0  0  0  0  0  0
  -12.9588  -17.5976  -18.7219 N   0  0  0  0  0  0  0  0  0  0  0  0
  -14.6634  -21.4874  -20.4819 N   0  0  0  0  0  0  0  0  0  0  0  0
  -12.6610  -18.7345  -18.0434 N   0  0  0  0  0  0  0  0  0  0  0  0
  -15.3488  -22.2251  -21.4127 N   0  0  0  0  0  0  0  0  0  0  0  0
  -11.7868  -18.6558  -16.8802 C   0  0  0  0  0  0  0  0  0  0  0  0
  -14.6118  -24.5241  -20.6735 C   0  0  0  0  0  0  0  0  0  0  0  0
  -13.7742  -17.9770  -19.6913 C   0  0  0  0  0  0  0  0  0  0  0  0
  -16.2476  -22.3219  -15.5742 C   0  0  0  0  0  0  0  0  0  0  0  0
  -15.2685  -23.2096  -15.9626 C   0  0  0  0  0  0  0  0  0  0  0  0
  -16.2000  -21.0153  -16.0050 C   0  0  0  0  0  0  0  0  0  0  0  0
  -16.2447  -20.3322  -22.5373 C   0  0  0  0  0  0  0  0  0  0  0  0
  -14.2325  -22.7968  -16.7803 C   0  0  0  0  0  0  0  0  0  0  0  0
  -15.1761  -20.5860  -16.8289 C   0  0  0  0  0  0  0  0  0  0  0  0
  -15.5656  -19.5646  -21.6513 C   0  0  0  0  0  0  0  0  0  0  0  0
  -15.3817  -23.5935  -21.5379 C   0  0  0  0  0  0  0  0  0  0  0  0
  -13.2947  -19.8281  -18.6080 C   0  0  0  0  0  0  0  0  0  0  0  0
  -16.1455  -21.7380  -22.4264 C   0  0  0  0  0  0  0  0  0  0  0  0
  -14.1930  -21.4822  -17.2120 C   0  0  0  0  0  0  0  0  0  0  0  0
  -14.7822  -20.1733  -20.6117 C   0  0  0  0  0  0  0  0  0  0  0  0
  -14.0130  -19.3617  -19.6643 C   0  0  0  0  0  0  0  0  0  0  0  0
  -11.6643  -19.5696  -16.4929 H   0  0  0  0  0  0  0  0  0  0  0  0
  -10.8984  -18.2884  -17.1552 H   0  0  0  0  0  0  0  0  0  0  0  0
  -12.1980  -18.0554  -16.1943 H   0  0  0  0  0  0  0  0  0  0  0  0
  -14.1070  -24.0008  -19.9869 H   0  0  0  0  0  0  0  0  0  0  0  0
  -15.2413  -25.1528  -20.2169 H   0  0  0  0  0  0  0  0  0  0  0  0
  -13.9687  -25.0452  -21.2346 H   0  0  0  0  0  0  0  0  0  0  0  0
  -14.1732  -17.3532  -20.3634 H   0  0  0  0  0  0  0  0  0  0  0  0
  -16.9921  -22.6262  -14.9800 H   0  0  0  0  0  0  0  0  0  0  0  0
  -15.3072  -24.1591  -15.6511 H   0  0  0  0  0  0  0  0  0  0  0  0
  -16.9108  -20.3723  -15.7200 H   0  0  0  0  0  0  0  0  0  0  0  0
  -16.8035  -19.9138  -23.2534 H   0  0  0  0  0  0  0  0  0  0  0  0
  -13.5195  -23.4410  -17.0568 H   0  0  0  0  0  0  0  0  0  0  0  0
  -15.1460  -19.6377  -17.1449 H   0  0  0  0  0  0  0  0  0  0  0  0
  -15.6097  -18.5681  -21.7212 H   0  0  0  0  0  0  0  0  0  0  0  0
  1 19  1  0  0  0  0
  1 21  1  0  0  0  0
  2  3  1  0  0  0  0
  2 18  2  0  0  0  0
  3 20  2  0  0  0  0
  4  6  1  0  0  0  0
  4 10  2  0  0  0  0
  5  7  1  0  0  0  0
  5 22  2  0  0  0  0
  6  8  1  0  0  0  0
  6 19  1  0  0  0  0
  7 18  1  0  0  0  0
  7 20  1  0  0  0  0
  9 18  1  0  0  0  0
 10 23  1  0  0  0  0
 11 12  2  0  0  0  0
 11 13  1  0  0  0  0
 12 15  1  0  0  0  0
 13 16  2  0  0  0  0
 14 17  2  0  0  0  0
 14 20  1  0  0  0  0
 15 21  2  0  0  0  0
 16 21  1  0  0  0  0
 17 22  1  0  0  0  0
 19 23  2  0  0  0  0
 22 23  1  0  0  0  0
  8 24  1  0  0  0  0
  8 25  1  0  0  0  0
  8 26  1  0  0  0  0
  9 27  1  0  0  0  0
  9 28  1  0  0  0  0
  9 29  1  0  0  0  0
 10 30  1  0  0  0  0
 11 31  1  0  0  0  0
 12 32  1  0  0  0  0
 13 33  1  0  0  0  0
 14 34  1  0  0  0  0
 15 35  1  0  0  0  0
 16 36  1  0  0  0  0
 17 37  1  0  0  0  0
M  END
> <pdb_id>
5M3A

> <uniprot_id>
O60885

> <usmiles>
O(c1ccccc1)C=2N(N=CC2C3=NN4C(=NN=C4C)C=C3)C

$$$$
7EA_B_201
          07212401333D 1   1.00000     0.00000     0
            
 34 36  0  0  0  0            999 V2000
  -11.8694  -16.1907  -17.9492 O   0  0  0  0  0  0  0  0  0  0  0  0
  -11.6477  -18.5768  -16.7400 O   0  0  0  0  0  0  0  0  0  0  0  0
  -16.9966  -22.8988  -22.8691 N   0  0  0  0  0  0  0  0  0  0  0  0
  -16.1273  -23.6749  -22.2945 N   0  0  0  0  0  0  0  0  0  0  0  0
  -15.1826  -20.5533  -21.0466 N   0  0  0  0  0  0  0  0  0  0  0  0
  -15.7691  -21.6284  -21.7005 N   0  0  0  0  0  0  0  0  0  0  0  0
  -11.9896  -14.9008  -18.5693 C   0  0  0  0  0  0  0  0  0  0  0  0
  -11.5032  -19.8502  -16.0925 C   0  0  0  0  0  0  0  0  0  0  0  0
  -17.5983  -20.4441  -22.9542 C   0  0  0  0  0  0  0  0  0  0  0  0
  -14.2040  -23.1435  -20.7035 C   0  0  0  0  0  0  0  0  0  0  0  0
  -13.1559  -17.1654  -19.7529 C   0  0  0  0  0  0  0  0  0  0  0  0
  -13.6723  -22.0728  -20.0336 C   0  0  0  0  0  0  0  0  0  0  0  0
  -13.7382  -18.3079  -20.2801 C   0  0  0  0  0  0  0  0  0  0  0  0
  -12.9105  -19.6503  -18.4394 C   0  0  0  0  0  0  0  0  0  0  0  0
  -16.7981  -21.6571  -22.5476 C   0  0  0  0  0  0  0  0  0  0  0  0
  -15.3086  -22.9159  -21.5650 C   0  0  0  0  0  0  0  0  0  0  0  0
  -12.4762  -17.2708  -18.5380 C   0  0  0  0  0  0  0  0  0  0  0  0
  -12.3681  -18.5057  -17.8868 C   0  0  0  0  0  0  0  0  0  0  0  0
  -14.1999  -20.7679  -20.2333 C   0  0  0  0  0  0  0  0  0  0  0  0
  -13.6213  -19.5473  -19.6204 C   0  0  0  0  0  0  0  0  0  0  0  0
  -11.4969  -14.2220  -18.0249 H   0  0  0  0  0  0  0  0  0  0  0  0
  -11.6006  -14.9359  -19.4899 H   0  0  0  0  0  0  0  0  0  0  0  0
  -12.9551  -14.6464  -18.6250 H   0  0  0  0  0  0  0  0  0  0  0  0
  -10.9504  -19.7431  -15.2661 H   0  0  0  0  0  0  0  0  0  0  0  0
  -12.4058  -20.2033  -15.8463 H   0  0  0  0  0  0  0  0  0  0  0  0
  -11.0528  -20.4910  -16.7142 H   0  0  0  0  0  0  0  0  0  0  0  0
  -17.1948  -19.6260  -22.5446 H   0  0  0  0  0  0  0  0  0  0  0  0
  -17.5892  -20.3574  -23.9504 H   0  0  0  0  0  0  0  0  0  0  0  0
  -18.5413  -20.5452  -22.6370 H   0  0  0  0  0  0  0  0  0  0  0  0
  -13.8236  -24.0611  -20.5884 H   0  0  0  0  0  0  0  0  0  0  0  0
  -13.2210  -16.2891  -20.2303 H   0  0  0  0  0  0  0  0  0  0  0  0
  -12.9098  -22.2099  -19.4014 H   0  0  0  0  0  0  0  0  0  0  0  0
  -14.2474  -18.2515  -21.1389 H   0  0  0  0  0  0  0  0  0  0  0  0
  -12.7908  -20.5371  -17.9930 H   0  0  0  0  0  0  0  0  0  0  0  0
  1  7  1  0  0  0  0
  1 17  1  0  0  0  0
  2  8  1  0  0  0  0
  2 18  1  0  0  0  0
  3  4  1  0  0  0  0
  3 15  2  0  0  0  0
  4 16  2  0  0  0  0
  5  6  1  0  0  0  0
  5 19  2  0  0  0  0
  6 15  1  0  0  0  0
  6 16  1  0  0  0  0
  9 15  1  0  0  0  0
 10 12  2  0  0  0  0
 10 16  1  0  0  0  0
 11 13  1  0  0  0  0
 11 17  2  0  0  0  0
 12 19  1  0  0  0  0
 13 20  2  0  0  0  0
 14 18  2  0  0  0  0
 14 20  1  0  0  0  0
 17 18  1  0  0  0  0
 19 20  1  0  0  0  0
  7 21  1  0  0  0  0
  7 22  1  0  0  0  0
  7 23  1  0  0  0  0
  8 24  1  0  0  0  0
  8 25  1  0  0  0  0
  8 26  1  0  0  0  0
  9 27  1  0  0  0  0
  9 28  1  0  0  0  0
  9 29  1  0  0  0  0
 10 30  1  0  0  0  0
 11 31  1  0  0  0  0
 12 32  1  0  0  0  0
 13 33  1  0  0  0  0
 14 34  1  0  0  0  0
M  END
> <pdb_id>
5M39

> <uniprot_id>
O60885

> <usmiles>
O(c1c(OC)ccc(c1)C2=NN3C(=NN=C3C)C=C2)C

$$$$
7EY_A_401
          07202401373D 1   1.00000     0.00000     0
            
 36 38  0  0  0  0            999 V2000
   23.2395  -32.7285   13.8797 S   0  0  0  0  0  0  0  0  0  0  0  0
   22.6698  -27.8657   11.8548 S   0  0  0  0  0  0  0  0  0  0  0  0
   21.7233  -37.1944   13.0500 O   0  0  0  0  0  0  0  0  0  0  0  0
   22.7938  -36.2000   14.7178 O   0  0  0  0  0  0  0  0  0  0  0  0
   23.3054  -32.1623   11.3408 N   0  0  0  0  0  0  0  0  0  0  0  0
   23.0904  -30.0522   10.3190 N   0  0  0  0  0  0  0  0  0  0  0  0
   22.3865  -30.8215   19.2248 C   0  0  0  0  0  0  0  0  0  0  0  0
   24.0086  -34.2367   13.1935 C   0  0  0  0  0  0  0  0  0  0  0  0
   23.2969  -31.4071   10.1752 C   0  0  0  0  0  0  0  0  0  0  0  0
   22.5627  -28.1282   13.5163 C   0  0  0  0  0  0  0  0  0  0  0  0
   23.0075  -35.2221   12.5288 C   0  0  0  0  0  0  0  0  0  0  0  0
   21.5730  -31.0781   16.9435 C   0  0  0  0  0  0  0  0  0  0  0  0
   23.3944  -29.5657   17.4141 C   0  0  0  0  0  0  0  0  0  0  0  0
   21.6821  -30.6999   15.5969 C   0  0  0  0  0  0  0  0  0  0  0  0
   23.4774  -29.2052   16.0561 C   0  0  0  0  0  0  0  0  0  0  0  0
   22.4725  -36.2983   13.5180 C   0  0  0  0  0  0  0  0  0  0  0  0
   23.1416  -31.5847   12.5466 C   0  0  0  0  0  0  0  0  0  0  0  0
   22.8946  -29.5011   11.5265 C   0  0  0  0  0  0  0  0  0  0  0  0
   22.4447  -30.4941   17.8642 C   0  0  0  0  0  0  0  0  0  0  0  0
   22.6537  -29.7973   15.1150 C   0  0  0  0  0  0  0  0  0  0  0  0
   22.7207  -29.4336   13.7921 C   0  0  0  0  0  0  0  0  0  0  0  0
   22.9083  -30.2353   12.6862 C   0  0  0  0  0  0  0  0  0  0  0  0
   21.5100  -37.2080   12.0731 H   0  0  0  0  0  0  0  0  0  0  0  0
   23.0841  -30.3055   19.7220 H   0  0  0  0  0  0  0  0  0  0  0  0
   21.4822  -30.5915   19.5846 H   0  0  0  0  0  0  0  0  0  0  0  0
   22.5516  -31.8011   19.3394 H   0  0  0  0  0  0  0  0  0  0  0  0
   24.4731  -34.7172   13.9374 H   0  0  0  0  0  0  0  0  0  0  0  0
   24.6792  -33.9604   12.5051 H   0  0  0  0  0  0  0  0  0  0  0  0
   23.4336  -31.8254    9.2772 H   0  0  0  0  0  0  0  0  0  0  0  0
   22.4043  -27.4147   14.1988 H   0  0  0  0  0  0  0  0  0  0  0  0
   23.4697  -35.6851   11.7725 H   0  0  0  0  0  0  0  0  0  0  0  0
   22.2317  -34.6993   12.1755 H   0  0  0  0  0  0  0  0  0  0  0  0
   20.8898  -31.7473   17.2356 H   0  0  0  0  0  0  0  0  0  0  0  0
   24.0249  -29.1517   18.0707 H   0  0  0  0  0  0  0  0  0  0  0  0
   21.0354  -31.0917   14.9424 H   0  0  0  0  0  0  0  0  0  0  0  0
   24.1392  -28.5131   15.7680 H   0  0  0  0  0  0  0  0  0  0  0  0
  1  8  1  0  0  0  0
  1 17  1  0  0  0  0
  2 10  1  0  0  0  0
  2 18  1  0  0  0  0
  3 16  1  0  0  0  0
  4 16  2  0  0  0  0
  5  9  2  0  0  0  0
  5 17  1  0  0  0  0
  6  9  1  0  0  0  0
  6 18  2  0  0  0  0
  7 19  1  0  0  0  0
  8 11  1  0  0  0  0
 10 21  2  0  0  0  0
 11 16  1  0  0  0  0
 12 14  1  0  0  0  0
 12 19  2  0  0  0  0
 13 15  2  0  0  0  0
 13 19  1  0  0  0  0
 14 20  2  0  0  0  0
 15 20  1  0  0  0  0
 17 22  2  0  0  0  0
 18 22  1  0  0  0  0
 20 21  1  0  0  0  0
 21 22  1  0  0  0  0
  3 23  1  0  0  0  0
  7 24  1  0  0  0  0
  7 25  1  0  0  0  0
  7 26  1  0  0  0  0
  8 27  1  0  0  0  0
  8 28  1  0  0  0  0
  9 29  1  0  0  0  0
 10 30  1  0  0  0  0
 11 31  1  0  0  0  0
 11 32  1  0  0  0  0
 12 33  1  0  0  0  0
 13 34  1  0  0  0  0
 14 35  1  0  0  0  0
 15 36  1  0  0  0  0
M  END
> <pdb_id>
5M4C

> <uniprot_id>
P68400

> <usmiles>
S1c2ncnc(SCCC(=O)O)c2C(c3ccc(cc3)C)=C1

$$$$
7FT_A_301
          07192420423D 1   1.00000     0.00000     0
            
 51 54  0  0  0  0            999 V2000
   66.3916   36.1974   21.5251 Cl  0  0  0  0  0  0  0  0  0  0  0  0
   71.7597   29.6385   24.3644 O   0  0  0  0  0  0  0  0  0  0  0  0
   65.1239   33.4101   25.4566 N   0  0  0  0  0  0  0  0  0  0  0  0
   72.7014   33.3796   25.8800 N   0  0  0  0  0  0  0  0  0  0  0  0
   65.9135   34.7333   23.6676 N   0  0  0  0  0  0  0  0  0  0  0  0
   67.4296   34.0225   25.2768 N   0  0  0  0  0  0  0  0  0  0  0  0
   69.7603   34.7534   24.9217 N   0  0  0  0  0  0  0  0  0  0  0  0
   71.9136   29.4682   22.9762 C   0  0  0  0  0  0  0  0  0  0  0  0
   74.5635   30.3183   24.7520 C   0  0  0  0  0  0  0  0  0  0  0  0
   69.6168   31.4216   24.9965 C   0  0  0  0  0  0  0  0  0  0  0  0
   73.6784   32.5343   25.5801 C   0  0  0  0  0  0  0  0  0  0  0  0
   70.3659   34.1288   26.0939 C   0  0  0  0  0  0  0  0  0  0  0  0
   70.3776   35.5154   24.0183 C   0  0  0  0  0  0  0  0  0  0  0  0
   73.7150   38.1371   21.1845 C   0  0  0  0  0  0  0  0  0  0  0  0
   73.0649   38.4894   22.3543 C   0  0  0  0  0  0  0  0  0  0  0  0
   73.0598   37.3667   20.2363 C   0  0  0  0  0  0  0  0  0  0  0  0
   71.7540   38.0670   22.5879 C   0  0  0  0  0  0  0  0  0  0  0  0
   71.7545   36.9545   20.4658 C   0  0  0  0  0  0  0  0  0  0  0  0
   69.6624   36.8049   21.8212 C   0  0  0  0  0  0  0  0  0  0  0  0
   66.1982   34.0739   24.7769 C   0  0  0  0  0  0  0  0  0  0  0  0
   66.8629   35.3745   23.0131 C   0  0  0  0  0  0  0  0  0  0  0  0
   72.0868   30.9040   24.8610 C   0  0  0  0  0  0  0  0  0  0  0  0
   68.4354   34.6692   24.6409 C   0  0  0  0  0  0  0  0  0  0  0  0
   71.4202   33.0801   25.6972 C   0  0  0  0  0  0  0  0  0  0  0  0
   73.4086   31.2746   25.0670 C   0  0  0  0  0  0  0  0  0  0  0  0
   71.0809   31.8183   25.2009 C   0  0  0  0  0  0  0  0  0  0  0  0
   71.1048   37.2928   21.6345 C   0  0  0  0  0  0  0  0  0  0  0  0
   69.4466   35.9246   23.0649 C   0  0  0  0  0  0  0  0  0  0  0  0
   68.1925   35.3669   23.4905 C   0  0  0  0  0  0  0  0  0  0  0  0
   65.3034   32.9018   26.2989 H   0  0  0  0  0  0  0  0  0  0  0  0
   64.1954   33.4555   25.0882 H   0  0  0  0  0  0  0  0  0  0  0  0
   71.6554   28.5356   22.7241 H   0  0  0  0  0  0  0  0  0  0  0  0
   71.3269   30.1185   22.4936 H   0  0  0  0  0  0  0  0  0  0  0  0
   72.8678   29.6296   22.7244 H   0  0  0  0  0  0  0  0  0  0  0  0
   74.1971   29.4602   24.3925 H   0  0  0  0  0  0  0  0  0  0  0  0
   75.1651   30.7353   24.0707 H   0  0  0  0  0  0  0  0  0  0  0  0
   75.0821   30.1354   25.5873 H   0  0  0  0  0  0  0  0  0  0  0  0
   69.0243   32.1744   25.2834 H   0  0  0  0  0  0  0  0  0  0  0  0
   69.4575   31.2219   24.0297 H   0  0  0  0  0  0  0  0  0  0  0  0
   69.4121   30.6094   25.5428 H   0  0  0  0  0  0  0  0  0  0  0  0
   74.6281   32.8108   25.7268 H   0  0  0  0  0  0  0  0  0  0  0  0
   69.6496   33.6820   26.6299 H   0  0  0  0  0  0  0  0  0  0  0  0
   70.8046   34.8362   26.6481 H   0  0  0  0  0  0  0  0  0  0  0  0
   71.3487   35.7540   24.0238 H   0  0  0  0  0  0  0  0  0  0  0  0
   74.6552   38.4376   21.0236 H   0  0  0  0  0  0  0  0  0  0  0  0
   73.5360   39.0493   23.0359 H   0  0  0  0  0  0  0  0  0  0  0  0
   73.5260   37.1088   19.3900 H   0  0  0  0  0  0  0  0  0  0  0  0
   71.2865   38.3201   23.4349 H   0  0  0  0  0  0  0  0  0  0  0  0
   71.2802   36.4065   19.7767 H   0  0  0  0  0  0  0  0  0  0  0  0
   69.4044   36.2745   21.0137 H   0  0  0  0  0  0  0  0  0  0  0  0
   69.0685   37.6058   21.8977 H   0  0  0  0  0  0  0  0  0  0  0  0
  1 21  1  0  0  0  0
  2  8  1  0  0  0  0
  2 22  1  0  0  0  0
  3 20  1  0  0  0  0
  4 11  2  0  0  0  0
  4 24  1  0  0  0  0
  5 20  2  0  0  0  0
  5 21  1  0  0  0  0
  6 20  1  0  0  0  0
  6 23  2  0  0  0  0
  7 12  1  0  0  0  0
  7 13  1  0  0  0  0
  7 23  1  0  0  0  0
  9 25  1  0  0  0  0
 10 26  1  0  0  0  0
 11 25  1  0  0  0  0
 12 24  1  0  0  0  0
 13 28  2  0  0  0  0
 14 15  2  0  0  0  0
 14 16  1  0  0  0  0
 15 17  1  0  0  0  0
 16 18  2  0  0  0  0
 17 27  2  0  0  0  0
 18 27  1  0  0  0  0
 19 27  1  0  0  0  0
 19 28  1  0  0  0  0
 21 29  2  0  0  0  0
 22 25  2  0  0  0  0
 22 26  1  0  0  0  0
 23 29  1  0  0  0  0
 24 26  2  0  0  0  0
 28 29  1  0  0  0  0
  3 30  1  0  0  0  0
  3 31  1  0  0  0  0
  8 32  1  0  0  0  0
  8 33  1  0  0  0  0
  8 34  1  0  0  0  0
  9 35  1  0  0  0  0
  9 36  1  0  0  0  0
  9 37  1  0  0  0  0
 10 38  1  0  0  0  0
 10 39  1  0  0  0  0
 10 40  1  0  0  0  0
 11 41  1  0  0  0  0
 12 42  1  0  0  0  0
 12 43  1  0  0  0  0
 13 44  1  0  0  0  0
 14 45  1  0  0  0  0
 15 46  1  0  0  0  0
 16 47  1  0  0  0  0
 17 48  1  0  0  0  0
 18 49  1  0  0  0  0
 19 50  1  0  0  0  0
 19 51  1  0  0  0  0
M  END
> <pdb_id>
5H22

> <uniprot_id>
A0PJ91

> <usmiles>
Clc1nc(nc2N(C=C(c12)Cc3ccccc3)Cc4ncc(c(OC)c4C)C)N

$$$$
7FU_A_1103
          07192415333D 1   1.00000     0.00000     0
            
 24 25  0  0  0  0            999 V2000
   45.7454    1.2964  146.9742 S   0  0  0  0  0  0  0  0  0  0  0  0
   46.6156    0.3677  141.6473 O   0  0  0  0  0  0  0  0  0  0  0  0
   45.2536    2.5259  149.6670 N   0  0  0  0  0  0  0  0  0  0  0  0
   48.4344   -0.9478  140.0478 N   0  0  0  0  0  0  0  0  0  0  0  0
   46.5292    1.9309  149.5424 N   0  0  0  0  0  0  0  0  0  0  0  0
   48.6653   -0.6601  141.4207 N   0  0  0  0  0  0  0  0  0  0  0  0
   48.1453    1.3946  147.6819 N   0  0  0  0  0  0  0  0  0  0  0  0
   49.2976    0.8309  145.5396 C   0  0  0  0  0  0  0  0  0  0  0  0
   49.1468    0.5010  144.1943 C   0  0  0  0  0  0  0  0  0  0  0  0
   46.7209    0.6114  144.3963 C   0  0  0  0  0  0  0  0  0  0  0  0
   46.9126    1.5675  148.1849 C   0  0  0  0  0  0  0  0  0  0  0  0
   47.6389    0.0405  142.1606 C   0  0  0  0  0  0  0  0  0  0  0  0
   46.8767    0.9469  145.7342 C   0  0  0  0  0  0  0  0  0  0  0  0
   48.1373    1.0602  146.3190 C   0  0  0  0  0  0  0  0  0  0  0  0
   47.8604    0.3852  143.6326 C   0  0  0  0  0  0  0  0  0  0  0  0
   45.0780    2.7398  150.6279 H   0  0  0  0  0  0  0  0  0  0  0  0
   45.2242    3.3674  149.1274 H   0  0  0  0  0  0  0  0  0  0  0  0
   49.2245   -1.4314  139.6711 H   0  0  0  0  0  0  0  0  0  0  0  0
   47.6197   -1.5210  139.9598 H   0  0  0  0  0  0  0  0  0  0  0  0
   47.1254    1.7709  150.3291 H   0  0  0  0  0  0  0  0  0  0  0  0
   49.5178   -0.9359  141.8647 H   0  0  0  0  0  0  0  0  0  0  0  0
   50.2078    0.9044  145.9473 H   0  0  0  0  0  0  0  0  0  0  0  0
   49.9547    0.3459  143.6256 H   0  0  0  0  0  0  0  0  0  0  0  0
   45.8099    0.5342  143.9912 H   0  0  0  0  0  0  0  0  0  0  0  0
  1 11  1  0  0  0  0
  1 13  1  0  0  0  0
  2 12  2  0  0  0  0
  3  5  1  0  0  0  0
  4  6  1  0  0  0  0
  5 11  1  0  0  0  0
  6 12  1  0  0  0  0
  7 11  2  0  0  0  0
  7 14  1  0  0  0  0
  8  9  1  0  0  0  0
  8 14  2  0  0  0  0
  9 15  2  0  0  0  0
 10 13  2  0  0  0  0
 10 15  1  0  0  0  0
 12 15  1  0  0  0  0
 13 14  1  0  0  0  0
  3 16  1  0  0  0  0
  3 17  1  0  0  0  0
  4 18  1  0  0  0  0
  4 19  1  0  0  0  0
  5 20  1  0  0  0  0
  6 21  1  0  0  0  0
  8 22  1  0  0  0  0
  9 23  1  0  0  0  0
 10 24  1  0  0  0  0
M  END
> <pdb_id>
5H1V

> <uniprot_id>
O15164

> <usmiles>
S1c2c(N=C1NN)ccc(c2)C(=O)NN

$$$$
7GL_B_901
          07192417023D 1   1.00000     0.00000     0
            
 41 43  0  0  0  0            999 V2000
   59.0718  -15.3012    6.5080 O   0  0  0  0  0  0  0  0  0  0  0  0
   58.3727  -13.2940    7.2842 N   0  0  0  0  0  0  0  0  0  0  0  0
   58.1542  -11.2823    5.1216 N   0  0  0  0  0  0  0  0  0  0  0  0
   58.7785  -13.7312    2.6118 N   0  0  0  0  0  0  0  0  0  0  0  0
   58.2985  -11.3212    0.9148 N   0  0  0  0  0  0  0  0  0  0  0  0
   57.5993   -9.0936    5.1735 N   0  0  0  0  0  0  0  0  0  0  0  0
   58.4323  -12.4190    4.3685 N   0  0  0  0  0  0  0  0  0  0  0  0
   58.0551  -10.1537    0.0839 C   0  0  0  0  0  0  0  0  0  0  0  0
   58.7493  -10.1006    9.9453 C   0  0  0  0  0  0  0  0  0  0  0  0
   55.3503   -6.5771    8.7515 C   0  0  0  0  0  0  0  0  0  0  0  0
   58.8952  -14.4490    3.7718 C   0  0  0  0  0  0  0  0  0  0  0  0
   57.9518  -10.1651    2.9997 C   0  0  0  0  0  0  0  0  0  0  0  0
   58.1655   -9.5921    7.5421 C   0  0  0  0  0  0  0  0  0  0  0  0
   56.5044   -7.9470    6.9772 C   0  0  0  0  0  0  0  0  0  0  0  0
   57.0365   -8.3766    9.2613 C   0  0  0  0  0  0  0  0  0  0  0  0
   58.7373  -14.1211    6.3025 C   0  0  0  0  0  0  0  0  0  0  0  0
   57.9206  -10.2162    4.4120 C   0  0  0  0  0  0  0  0  0  0  0  0
   58.4885  -12.4940    2.9917 C   0  0  0  0  0  0  0  0  0  0  0  0
   57.4266   -8.9121    6.5756 C   0  0  0  0  0  0  0  0  0  0  0  0
   58.2353  -11.2911    2.2581 C   0  0  0  0  0  0  0  0  0  0  0  0
   58.6871  -13.6857    4.8884 C   0  0  0  0  0  0  0  0  0  0  0  0
   57.9717   -9.3403    8.8961 C   0  0  0  0  0  0  0  0  0  0  0  0
   56.3107   -7.6598    8.3218 C   0  0  0  0  0  0  0  0  0  0  0  0
   58.4590  -13.5795    8.2544 H   0  0  0  0  0  0  0  0  0  0  0  0
   57.9986  -12.3611    7.1511 H   0  0  0  0  0  0  0  0  0  0  0  0
   58.5257  -12.1894    0.4415 H   0  0  0  0  0  0  0  0  0  0  0  0
   57.4701   -8.2435    4.6319 H   0  0  0  0  0  0  0  0  0  0  0  0
   58.0946  -10.4336   -0.9679 H   0  0  0  0  0  0  0  0  0  0  0  0
   58.8025   -9.3762    0.2326 H   0  0  0  0  0  0  0  0  0  0  0  0
   57.0759   -9.7108    0.2616 H   0  0  0  0  0  0  0  0  0  0  0  0
   58.1062  -10.5892   10.6757 H   0  0  0  0  0  0  0  0  0  0  0  0
   59.4216   -9.4539   10.5062 H   0  0  0  0  0  0  0  0  0  0  0  0
   59.3527  -10.8726    9.4718 H   0  0  0  0  0  0  0  0  0  0  0  0
   55.5056   -6.3455    9.8039 H   0  0  0  0  0  0  0  0  0  0  0  0
   54.3157   -6.8946    8.6393 H   0  0  0  0  0  0  0  0  0  0  0  0
   55.4684   -5.6493    8.1923 H   0  0  0  0  0  0  0  0  0  0  0  0
   59.1029  -15.5165    3.7526 H   0  0  0  0  0  0  0  0  0  0  0  0
   57.7524   -9.2074    2.5221 H   0  0  0  0  0  0  0  0  0  0  0  0
   58.9618  -10.2804    7.2668 H   0  0  0  0  0  0  0  0  0  0  0  0
   55.9196   -7.4007    6.2387 H   0  0  0  0  0  0  0  0  0  0  0  0
   56.8707   -8.1840   10.3193 H   0  0  0  0  0  0  0  0  0  0  0  0
  1 16  2  0  0  0  0
  2 16  1  0  0  0  0
  2 24  1  0  0  0  0
  2 25  1  0  0  0  0
  3  7  1  0  0  0  0
  3 17  2  0  0  0  0
  4 11  1  0  0  0  0
  4 18  2  0  0  0  0
  5  8  1  0  0  0  0
  5 20  1  0  0  0  0
  5 26  1  0  0  0  0
  6 17  1  0  0  0  0
  6 19  1  0  0  0  0
  6 27  1  0  0  0  0
  7 18  1  0  0  0  0
  7 21  1  0  0  0  0
  8 28  1  0  0  0  0
  8 29  1  0  0  0  0
  8 30  1  0  0  0  0
  9 22  1  0  0  0  0
  9 31  1  0  0  0  0
  9 32  1  0  0  0  0
  9 33  1  0  0  0  0
 10 23  1  0  0  0  0
 10 34  1  0  0  0  0
 10 35  1  0  0  0  0
 10 36  1  0  0  0  0
 11 21  2  0  0  0  0
 11 37  1  0  0  0  0
 12 17  1  0  0  0  0
 12 20  2  0  0  0  0
 12 38  1  0  0  0  0
 13 19  2  0  0  0  0
 13 22  1  0  0  0  0
 13 39  1  0  0  0  0
 14 19  1  0  0  0  0
 14 23  2  0  0  0  0
 14 40  1  0  0  0  0
 15 22  2  0  0  0  0
 15 23  1  0  0  0  0
 15 41  1  0  0  0  0
 16 21  1  0  0  0  0
 18 20  1  0  0  0  0
M  END
> <pdb_id>
5TKD

> <uniprot_id>
P29597

> <usmiles>
O=C(N)C=1N2N=C(Nc3cc(cc(c3)C)C)C=C(NC)C2=NC1

$$$$
7IK_B_1003
          07202408163D 1   1.00000     0.00000     0
            
 42 44  0  0  0  0            999 V2000
    0.0439  -34.7201    0.2506 O   0  0  0  0  0  0  0  0  0  0  0  0
    0.6756  -41.5556   -3.9780 O   0  0  0  0  0  0  0  0  0  0  0  0
    1.5686  -39.0395    0.1677 N   0  0  0  0  0  0  0  0  0  0  0  0
    1.0290  -35.4127    2.1414 N   0  0  0  0  0  0  0  0  0  0  0  0
    1.3872  -37.9556    1.0118 N   0  0  0  0  0  0  0  0  0  0  0  0
    1.3102  -39.5366   -2.1651 N   0  0  0  0  0  0  0  0  0  0  0  0
   -1.1031  -39.5523   -2.6679 C   0  0  0  0  0  0  0  0  0  0  0  0
    0.8262  -38.8326    4.6361 C   0  0  0  0  0  0  0  0  0  0  0  0
   -0.8322  -37.8013    3.0438 C   0  0  0  0  0  0  0  0  0  0  0  0
    1.6634  -41.7978   -2.9735 C   0  0  0  0  0  0  0  0  0  0  0  0
    0.5800  -40.1904   -4.4003 C   0  0  0  0  0  0  0  0  0  0  0  0
    1.7296  -36.4165    2.9362 C   0  0  0  0  0  0  0  0  0  0  0  0
    1.3150  -40.9462   -1.7516 C   0  0  0  0  0  0  0  0  0  0  0  0
    0.8237  -37.3473   -1.0423 C   0  0  0  0  0  0  0  0  0  0  0  0
    0.6210  -35.5997    0.8625 C   0  0  0  0  0  0  0  0  0  0  0  0
    1.2382  -38.6873   -1.0554 C   0  0  0  0  0  0  0  0  0  0  0  0
    0.3031  -39.2734   -3.2034 C   0  0  2  0  0  0  0  0  0  0  0  0
    0.9146  -36.9079    0.2491 C   0  0  0  0  0  0  0  0  0  0  0  0
    1.6115  -37.8682    2.4561 C   0  0  1  0  0  0  0  0  0  0  0  0
    0.4673  -38.6025    3.1656 C   0  0  0  0  0  0  0  0  0  0  0  0
    0.8375  -34.5290    2.5684 H   0  0  0  0  0  0  0  0  0  0  0  0
   -1.7754  -39.3688   -3.3851 H   0  0  0  0  0  0  0  0  0  0  0  0
   -1.1689  -40.5097   -2.3865 H   0  0  0  0  0  0  0  0  0  0  0  0
   -1.2840  -38.9608   -1.8822 H   0  0  0  0  0  0  0  0  0  0  0  0
    1.6761  -39.3564    4.6937 H   0  0  0  0  0  0  0  0  0  0  0  0
    0.9468  -37.9506    5.0917 H   0  0  0  0  0  0  0  0  0  0  0  0
    0.0903  -39.3409    5.0832 H   0  0  0  0  0  0  0  0  0  0  0  0
   -1.0486  -37.6622    2.0774 H   0  0  0  0  0  0  0  0  0  0  0  0
   -1.5764  -38.3045    3.4829 H   0  0  0  0  0  0  0  0  0  0  0  0
   -0.7200  -36.9142    3.4914 H   0  0  0  0  0  0  0  0  0  0  0  0
    2.5670  -41.5430   -3.3180 H   0  0  0  0  0  0  0  0  0  0  0  0
    1.6628  -42.7660   -2.7236 H   0  0  0  0  0  0  0  0  0  0  0  0
   -0.1653  -40.1022   -5.0611 H   0  0  0  0  0  0  0  0  0  0  0  0
    1.4408  -39.9184   -4.8304 H   0  0  0  0  0  0  0  0  0  0  0  0
    1.3687  -36.3735    3.8678 H   0  0  0  0  0  0  0  0  0  0  0  0
    2.7003  -36.1761    2.9434 H   0  0  0  0  0  0  0  0  0  0  0  0
    0.4117  -41.2015   -1.4068 H   0  0  0  0  0  0  0  0  0  0  0  0
    1.9975  -41.0869   -1.0344 H   0  0  0  0  0  0  0  0  0  0  0  0
    0.5186  -36.8130   -1.8306 H   0  0  0  0  0  0  0  0  0  0  0  0
    0.3656  -38.3185   -3.4938 H   0  0  0  0  0  0  0  0  0  0  0  0
    2.4670  -38.3398    2.6698 H   0  0  0  0  0  0  0  0  0  0  0  0
    0.3370  -39.4912    2.7259 H   0  0  0  0  0  0  0  0  0  0  0  0
  1 15  2  0  0  0  0
  2 10  1  0  0  0  0
  2 11  1  0  0  0  0
  3  5  1  0  0  0  0
  3 16  2  0  0  0  0
  4 12  1  0  0  0  0
  4 15  1  0  0  0  0
  5 18  1  0  0  0  0
  5 19  1  0  0  0  0
  6 13  1  0  0  0  0
  6 16  1  0  0  0  0
  6 17  1  0  0  0  0
  7 17  1  0  0  0  0
  8 20  1  0  0  0  0
  9 20  1  0  0  0  0
 10 13  1  0  0  0  0
 11 17  1  0  0  0  0
 12 19  1  0  0  0  0
 14 16  1  0  0  0  0
 14 18  2  0  0  0  0
 15 18  1  0  0  0  0
 19 20  1  0  0  0  0
  4 21  1  0  0  0  0
  7 22  1  0  0  0  0
  7 23  1  0  0  0  0
  7 24  1  0  0  0  0
  8 25  1  0  0  0  0
  8 26  1  0  0  0  0
  8 27  1  0  0  0  0
  9 28  1  0  0  0  0
  9 29  1  0  0  0  0
  9 30  1  0  0  0  0
 10 31  1  0  0  0  0
 10 32  1  0  0  0  0
 11 33  1  0  0  0  0
 11 34  1  0  0  0  0
 12 35  1  0  0  0  0
 12 36  1  0  0  0  0
 13 37  1  0  0  0  0
 13 38  1  0  0  0  0
 14 39  1  0  0  0  0
 17 40  1  0  0  0  0
 19 41  1  0  0  0  0
 20 42  1  0  0  0  0
M  END
> <pdb_id>
7RSP

> <uniprot_id>
Q8NEB9

> <usmiles>
O=C1NC[C@H](N2N=C(N3[C@@H](COCC3)C)C=C21)C(C)C

$$$$
7IQ_B_901
          07202408163D 1   1.00000     0.00000     0
            
 40 43  0  0  0  0            999 V2000
    0.3580  -34.7580    0.3120 O   0  0  0  0  0  0  0  0  0  0  0  0
    0.6780  -41.6100   -4.0350 O   0  0  0  0  0  0  0  0  0  0  0  0
    1.5180  -39.1810    0.1390 N   0  0  0  0  0  0  0  0  0  0  0  0
    0.6720  -35.7530    2.2960 N   0  0  0  0  0  0  0  0  0  0  0  0
    1.3650  -38.1230    1.0160 N   0  0  0  0  0  0  0  0  0  0  0  0
    1.2050  -39.6460   -2.1710 N   0  0  0  0  0  0  0  0  0  0  0  0
   -1.1610  -39.6450   -2.9030 C   0  0  0  0  0  0  0  0  0  0  0  0
    1.6540  -41.8940   -3.0280 C   0  0  0  0  0  0  0  0  0  0  0  0
    0.7000  -40.2470   -4.4630 C   0  0  0  0  0  0  0  0  0  0  0  0
    1.3140  -41.0600   -1.7920 C   0  0  0  0  0  0  0  0  0  0  0  0
   -0.1000  -38.9970    3.9040 C   0  0  0  0  0  0  0  0  0  0  0  0
   -0.3970  -37.5250    3.5860 C   0  0  0  0  0  0  0  0  0  0  0  0
    1.1910  -39.3710    3.1420 C   0  0  0  0  0  0  0  0  0  0  0  0
    0.7400  -37.4580   -1.0080 C   0  0  0  0  0  0  0  0  0  0  0  0
    0.6120  -35.7660    0.9470 C   0  0  0  0  0  0  0  0  0  0  0  0
    1.1500  -38.8000   -1.0610 C   0  0  0  0  0  0  0  0  0  0  0  0
    0.2950  -39.3560   -3.2890 C   0  0  2  0  0  0  0  0  0  0  0  0
    0.9520  -36.9040    3.1460 C   0  0  1  0  0  0  0  0  0  0  0  0
    0.8800  -37.0550    0.2910 C   0  0  0  0  0  0  0  0  0  0  0  0
    1.6630  -38.0740    2.4420 C   0  0  2  0  0  0  0  0  0  0  0  0
    0.5103  -34.8777    2.7517 H   0  0  0  0  0  0  0  0  0  0  0  0
   -1.7583  -39.4403   -3.6784 H   0  0  0  0  0  0  0  0  0  0  0  0
   -1.2551  -40.6092   -2.6553 H   0  0  0  0  0  0  0  0  0  0  0  0
   -1.4189  -39.0739   -2.1237 H   0  0  0  0  0  0  0  0  0  0  0  0
    2.5654  -41.6517   -3.3607 H   0  0  0  0  0  0  0  0  0  0  0  0
    1.6310  -42.8669   -2.7978 H   0  0  0  0  0  0  0  0  0  0  0  0
    0.0565  -40.1213   -5.2181 H   0  0  0  0  0  0  0  0  0  0  0  0
    1.6215  -40.0048   -4.7666 H   0  0  0  0  0  0  0  0  0  0  0  0
    0.4439  -41.3706   -1.4093 H   0  0  0  0  0  0  0  0  0  0  0  0
    2.0360  -41.1672   -1.1085 H   0  0  0  0  0  0  0  0  0  0  0  0
   -0.8580  -39.5740    3.5997 H   0  0  0  0  0  0  0  0  0  0  0  0
    0.0351  -39.1155    4.8877 H   0  0  0  0  0  0  0  0  0  0  0  0
   -0.7465  -37.0576    4.3980 H   0  0  0  0  0  0  0  0  0  0  0  0
   -1.0681  -37.4574    2.8477 H   0  0  0  0  0  0  0  0  0  0  0  0
    1.0014  -40.0821    2.4650 H   0  0  0  0  0  0  0  0  0  0  0  0
    1.8894  -39.6957    3.7798 H   0  0  0  0  0  0  0  0  0  0  0  0
    0.4096  -36.9043   -1.7723 H   0  0  0  0  0  0  0  0  0  0  0  0
    0.3858  -38.3956   -3.5524 H   0  0  0  0  0  0  0  0  0  0  0  0
    1.4755  -36.6180    3.9486 H   0  0  0  0  0  0  0  0  0  0  0  0
    2.6506  -37.9775    2.5657 H   0  0  0  0  0  0  0  0  0  0  0  0
  1 15  2  0  0  0  0
  2  8  1  0  0  0  0
  2  9  1  0  0  0  0
  3  5  1  0  0  0  0
  3 16  2  0  0  0  0
  4 15  1  0  0  0  0
  4 18  1  0  0  0  0
  5 19  1  0  0  0  0
  5 20  1  0  0  0  0
  6 10  1  0  0  0  0
  6 16  1  0  0  0  0
  6 17  1  0  0  0  0
  7 17  1  0  0  0  0
  8 10  1  0  0  0  0
  9 17  1  0  0  0  0
 11 12  1  0  0  0  0
 11 13  1  0  0  0  0
 12 18  1  0  0  0  0
 13 20  1  0  0  0  0
 14 16  1  0  0  0  0
 14 19  2  0  0  0  0
 15 19  1  0  0  0  0
 18 20  1  0  0  0  0
  4 21  1  0  0  0  0
  7 22  1  0  0  0  0
  7 23  1  0  0  0  0
  7 24  1  0  0  0  0
  8 25  1  0  0  0  0
  8 26  1  0  0  0  0
  9 27  1  0  0  0  0
  9 28  1  0  0  0  0
 10 29  1  0  0  0  0
 10 30  1  0  0  0  0
 11 31  1  0  0  0  0
 11 32  1  0  0  0  0
 12 33  1  0  0  0  0
 12 34  1  0  0  0  0
 13 35  1  0  0  0  0
 13 36  1  0  0  0  0
 14 37  1  0  0  0  0
 17 38  1  0  0  0  0
 18 39  1  0  0  0  0
 20 40  1  0  0  0  0
M  END
> <pdb_id>
7RSV

> <uniprot_id>
Q8NEB9

> <usmiles>
O=C1N[C@@H]2[C@H](N3N=C(N4[C@@H](COCC4)C)C=C31)CCC2

$$$$
7K4_A_503
          07202413213D 1   1.00000     0.00000     0
            
 44 46  0  0  0  0            999 V2000
   12.1576   -4.2692   30.6016 F   0  0  0  0  0  0  0  0  0  0  0  0
    6.8756   -9.9602   24.8836 O   0  0  0  0  0  0  0  0  0  0  0  0
   10.2297   -6.8663   26.1977 O   0  0  0  0  0  0  0  0  0  0  0  0
   12.5300   -1.8910   28.0556 N   0  0  0  0  0  0  0  0  0  0  0  0
    9.1462  -10.0716   24.7440 N   0  0  0  0  0  0  0  0  0  0  0  0
    9.5151  -12.7028   26.3644 C   0  0  0  0  0  0  0  0  0  0  0  0
   12.1448   -2.9553   28.1640 C   0  0  0  0  0  0  0  0  0  0  0  0
   11.4089  -15.7152   22.8843 C   0  0  0  0  0  0  0  0  0  0  0  0
   10.0385  -15.6732   22.9713 C   0  0  0  0  0  0  0  0  0  0  0  0
   12.1626  -14.7039   23.4290 C   0  0  0  0  0  0  0  0  0  0  0  0
   11.2159   -6.2212   29.6903 C   0  0  0  0  0  0  0  0  0  0  0  0
    9.4146  -14.6170   23.6042 C   0  0  0  0  0  0  0  0  0  0  0  0
   11.5483  -13.6451   24.0627 C   0  0  0  0  0  0  0  0  0  0  0  0
   10.7229   -6.9040   28.5985 C   0  0  0  0  0  0  0  0  0  0  0  0
   11.1594   -4.9933   27.2034 C   0  0  0  0  0  0  0  0  0  0  0  0
    9.7833   -8.2261   26.2422 C   0  0  0  0  0  0  0  0  0  0  0  0
    9.4336   -8.6510   24.8440 C   0  0  0  0  0  0  0  0  0  0  0  0
   10.1911  -11.0698   24.5529 C   0  0  0  0  0  0  0  0  0  0  0  0
    8.0423  -12.0589   24.4261 C   0  0  0  0  0  0  0  0  0  0  0  0
    7.9113  -10.5884   24.7101 C   0  0  0  0  0  0  0  0  0  0  0  0
   11.6741   -4.9387   29.5308 C   0  0  0  0  0  0  0  0  0  0  0  0
   10.6928   -6.2924   27.3515 C   0  0  0  0  0  0  0  0  0  0  0  0
   11.6568   -4.3046   28.3027 C   0  0  0  0  0  0  0  0  0  0  0  0
   10.1629  -13.5848   24.1610 C   0  0  0  0  0  0  0  0  0  0  0  0
    9.4834  -12.4106   24.8657 C   0  0  2  0  0  0  0  0  0  0  0  0
    9.8201  -13.6195   26.5131 H   0  0  0  0  0  0  0  0  0  0  0  0
    8.6239  -12.5948   26.7371 H   0  0  0  0  0  0  0  0  0  0  0  0
   10.1275  -12.0814   26.8060 H   0  0  0  0  0  0  0  0  0  0  0  0
   11.8312  -16.4372   22.4506 H   0  0  0  0  0  0  0  0  0  0  0  0
    9.5215  -16.3675   22.5972 H   0  0  0  0  0  0  0  0  0  0  0  0
   13.1026  -14.7332   23.3680 H   0  0  0  0  0  0  0  0  0  0  0  0
   11.2378   -6.6315   30.5372 H   0  0  0  0  0  0  0  0  0  0  0  0
    8.4746  -14.5959   23.6595 H   0  0  0  0  0  0  0  0  0  0  0  0
   12.0735  -12.9562   24.4340 H   0  0  0  0  0  0  0  0  0  0  0  0
   10.4074   -7.7837   28.7000 H   0  0  0  0  0  0  0  0  0  0  0  0
   11.1403   -4.5777   26.3564 H   0  0  0  0  0  0  0  0  0  0  0  0
    8.9988   -8.3006   26.8206 H   0  0  0  0  0  0  0  0  0  0  0  0
   10.4938   -8.8020   26.6008 H   0  0  0  0  0  0  0  0  0  0  0  0
   10.1817   -8.4354   24.2457 H   0  0  0  0  0  0  0  0  0  0  0  0
    8.6490   -8.1451   24.5417 H   0  0  0  0  0  0  0  0  0  0  0  0
   10.5249  -11.0546   23.6352 H   0  0  0  0  0  0  0  0  0  0  0  0
   10.9394  -10.9156   25.1647 H   0  0  0  0  0  0  0  0  0  0  0  0
    7.3849  -12.5733   24.9380 H   0  0  0  0  0  0  0  0  0  0  0  0
    7.9126  -12.2432   23.4730 H   0  0  0  0  0  0  0  0  0  0  0  0
  1 21  1  0  0  0  0
  2 20  2  0  0  0  0
  3 16  1  0  0  0  0
  3 22  1  0  0  0  0
  4  7  3  0  0  0  0
  5 17  1  0  0  0  0
  5 18  1  0  0  0  0
  5 20  1  0  0  0  0
  6 25  1  0  0  0  0
  6 26  1  0  0  0  0
  6 27  1  0  0  0  0
  6 28  1  0  0  0  0
  7 23  1  0  0  0  0
  8  9  2  0  0  0  0
  8 10  1  0  0  0  0
  8 29  1  0  0  0  0
  9 12  1  0  0  0  0
  9 30  1  0  0  0  0
 10 13  2  0  0  0  0
 10 31  1  0  0  0  0
 11 14  1  0  0  0  0
 11 21  2  0  0  0  0
 11 32  1  0  0  0  0
 12 24  2  0  0  0  0
 12 33  1  0  0  0  0
 13 24  1  0  0  0  0
 13 34  1  0  0  0  0
 14 22  2  0  0  0  0
 14 35  1  0  0  0  0
 15 22  1  0  0  0  0
 15 23  2  0  0  0  0
 15 36  1  0  0  0  0
 16 17  1  0  0  0  0
 16 37  1  0  0  0  0
 16 38  1  0  0  0  0
 17 39  1  0  0  0  0
 17 40  1  0  0  0  0
 18 25  1  0  0  0  0
 18 41  1  0  0  0  0
 18 42  1  0  0  0  0
 19 20  1  0  0  0  0
 19 25  1  0  0  0  0
 19 43  1  0  0  0  0
 19 44  1  0  0  0  0
 21 23  1  0  0  0  0
 24 25  1  0  0  0  0
M  END
> <pdb_id>
5LZ5

> <uniprot_id>
Q13093

> <usmiles>
Fc1c(C#N)cc(OCCN2C(=O)C[C@@](c3ccccc3)(C2)C)cc1

$$$$
7LI_A_408
          07192419233D 1   1.00000     0.00000     0
            
 48 50  0  0  0  0            999 V2000
  -17.5486   36.7599    2.8039 S   0  0  0  0  0  0  0  0  0  0  0  0
  -15.5558   35.8469    4.2999 O   0  0  0  0  0  0  0  0  0  0  0  0
  -16.8483   33.8720    0.3626 O   0  0  0  0  0  0  0  0  0  0  0  0
  -20.5528   39.3897   -2.7343 O   0  0  0  0  0  0  0  0  0  0  0  0
  -16.1683   37.2134   -4.6106 N   0  0  0  0  0  0  0  0  0  0  0  0
  -16.0610   34.6998    2.3744 N   0  0  0  0  0  0  0  0  0  0  0  0
  -19.1624   37.0943   -2.3659 N   0  0  0  0  0  0  0  0  0  0  0  0
  -22.6226   40.0977   -3.5180 C   0  0  0  0  0  0  0  0  0  0  0  0
  -20.5234   41.2192   -4.2212 C   0  0  0  0  0  0  0  0  0  0  0  0
  -19.9852   36.1386   -3.1193 C   0  0  0  0  0  0  0  0  0  0  0  0
  -18.0052   37.6335   -3.0903 C   0  0  0  0  0  0  0  0  0  0  0  0
  -19.2125   35.0700   -3.8627 C   0  0  0  0  0  0  0  0  0  0  0  0
  -20.7586   39.1783    0.9481 C   0  0  0  0  0  0  0  0  0  0  0  0
  -20.9682   39.6555   -0.3343 C   0  0  0  0  0  0  0  0  0  0  0  0
  -18.1012   35.6948   -4.6951 C   0  0  0  0  0  0  0  0  0  0  0  0
  -20.0252   38.0230    1.1479 C   0  0  0  0  0  0  0  0  0  0  0  0
  -18.5619   36.2002    0.2712 C   0  0  0  0  0  0  0  0  0  0  0  0
  -16.2318   35.6838    3.3036 C   0  0  0  0  0  0  0  0  0  0  0  0
  -16.8913   34.7110    1.2670 C   0  0  0  0  0  0  0  0  0  0  0  0
  -17.8122   35.8682    1.3347 C   0  0  0  0  0  0  0  0  0  0  0  0
  -21.2820   40.5880   -3.1003 C   0  0  0  0  0  0  0  0  0  0  0  0
  -20.4355   38.9703   -1.4220 C   0  0  0  0  0  0  0  0  0  0  0  0
  -17.2202   36.5600   -3.8088 C   0  0  1  0  0  0  0  0  0  0  0  0
  -19.7095   37.7859   -1.2370 C   0  0  0  0  0  0  0  0  0  0  0  0
  -19.4977   37.3068    0.0654 C   0  0  0  0  0  0  0  0  0  0  0  0
  -15.6373   36.5176   -5.0943 H   0  0  0  0  0  0  0  0  0  0  0  0
  -16.5903   37.8315   -5.2739 H   0  0  0  0  0  0  0  0  0  0  0  0
  -15.3607   33.9953    2.4893 H   0  0  0  0  0  0  0  0  0  0  0  0
  -23.1920   40.8739   -3.7887 H   0  0  0  0  0  0  0  0  0  0  0  0
  -22.5226   39.4719   -4.2915 H   0  0  0  0  0  0  0  0  0  0  0  0
  -23.0547   39.6176   -2.7545 H   0  0  0  0  0  0  0  0  0  0  0  0
  -20.9901   42.0549   -4.5106 H   0  0  0  0  0  0  0  0  0  0  0  0
  -19.5988   41.4433   -3.9134 H   0  0  0  0  0  0  0  0  0  0  0  0
  -20.4734   40.5820   -4.9903 H   0  0  0  0  0  0  0  0  0  0  0  0
  -20.5233   36.6527   -3.7873 H   0  0  0  0  0  0  0  0  0  0  0  0
  -20.6001   35.6841   -2.4748 H   0  0  0  0  0  0  0  0  0  0  0  0
  -17.4012   38.0889   -2.4362 H   0  0  0  0  0  0  0  0  0  0  0  0
  -18.3296   38.2983   -3.7633 H   0  0  0  0  0  0  0  0  0  0  0  0
  -19.8360   34.5734   -4.4665 H   0  0  0  0  0  0  0  0  0  0  0  0
  -18.8115   34.4350   -3.2025 H   0  0  0  0  0  0  0  0  0  0  0  0
  -21.1383   39.6700    1.7317 H   0  0  0  0  0  0  0  0  0  0  0  0
  -21.5004   40.4897   -0.4785 H   0  0  0  0  0  0  0  0  0  0  0  0
  -18.5034   36.2593   -5.4160 H   0  0  0  0  0  0  0  0  0  0  0  0
  -17.5483   34.9710   -5.1079 H   0  0  0  0  0  0  0  0  0  0  0  0
  -19.8691   37.6937    2.0791 H   0  0  0  0  0  0  0  0  0  0  0  0
  -18.4644   35.5875   -0.5131 H   0  0  0  0  0  0  0  0  0  0  0  0
  -21.3563   41.2125   -2.3229 H   0  0  0  0  0  0  0  0  0  0  0  0
  -16.7828   35.9746   -3.1262 H   0  0  0  0  0  0  0  0  0  0  0  0
  1 18  1  0  0  0  0
  1 20  1  0  0  0  0
  2 18  2  0  0  0  0
  3 19  2  0  0  0  0
  4 21  1  0  0  0  0
  4 22  1  0  0  0  0
  5 23  1  0  0  0  0
  6 18  1  0  0  0  0
  6 19  1  0  0  0  0
  7 10  1  0  0  0  0
  7 11  1  0  0  0  0
  7 24  1  0  0  0  0
  8 21  1  0  0  0  0
  9 21  1  0  0  0  0
 10 12  1  0  0  0  0
 11 23  1  0  0  0  0
 12 15  1  0  0  0  0
 13 14  2  0  0  0  0
 13 16  1  0  0  0  0
 14 22  1  0  0  0  0
 15 23  1  0  0  0  0
 16 25  2  0  0  0  0
 17 20  2  0  0  0  0
 17 25  1  0  0  0  0
 19 20  1  0  0  0  0
 22 24  2  0  0  0  0
 24 25  1  0  0  0  0
  5 26  1  0  0  0  0
  5 27  1  0  0  0  0
  6 28  1  0  0  0  0
  8 29  1  0  0  0  0
  8 30  1  0  0  0  0
  8 31  1  0  0  0  0
  9 32  1  0  0  0  0
  9 33  1  0  0  0  0
  9 34  1  0  0  0  0
 10 35  1  0  0  0  0
 10 36  1  0  0  0  0
 11 37  1  0  0  0  0
 11 38  1  0  0  0  0
 12 39  1  0  0  0  0
 12 40  1  0  0  0  0
 13 41  1  0  0  0  0
 14 42  1  0  0  0  0
 15 43  1  0  0  0  0
 15 44  1  0  0  0  0
 16 45  1  0  0  0  0
 17 46  1  0  0  0  0
 21 47  1  0  0  0  0
 23 48  1  0  0  0  0
M  END
> <pdb_id>
4DTK

> <uniprot_id>
P11309

> <usmiles>
S1/C(/C(=O)NC1=O)=C\c2c(N3C[C@H](N)CCC3)c(OC(C)C)ccc2

$$$$
7M2_B_408
          07192419533D 1   1.00000     0.00000     0
            
 32 35  0  0  0  0            999 V2000
  121.4950   15.9860  -44.4230 N   0  0  0  0  0  0  0  0  0  0  0  0
  124.5680   12.8200  -44.8840 N   0  0  0  0  0  0  0  0  0  0  0  0
  125.4500   12.2310  -47.4040 N   0  0  0  0  0  0  0  0  0  0  0  0
  120.4370   15.6010  -45.1580 C   0  0  0  0  0  0  0  0  0  0  0  0
  122.6690   15.3720  -44.6800 C   0  0  0  0  0  0  0  0  0  0  0  0
  125.5180   11.8710  -48.7460 C   0  0  0  0  0  0  0  0  0  0  0  0
  120.5220   14.6120  -46.1240 C   0  0  0  0  0  0  0  0  0  0  0  0
  124.6370   12.6450  -49.4440 C   0  0  0  0  0  0  0  0  0  0  0  0
  127.5340   10.7700  -44.0730 C   0  0  0  0  0  0  0  0  0  0  0  0
  127.9980   10.4720  -45.3270 C   0  0  0  0  0  0  0  0  0  0  0  0
  126.4000   11.5600  -43.9090 C   0  0  0  0  0  0  0  0  0  0  0  0
  124.0220   13.5390  -48.5250 C   0  0  0  0  0  0  0  0  0  0  0  0
  127.3330   10.9370  -46.4560 C   0  0  0  0  0  0  0  0  0  0  0  0
  121.7460   14.0180  -46.3750 C   0  0  0  0  0  0  0  0  0  0  0  0
  125.7060   12.0370  -45.0240 C   0  0  0  0  0  0  0  0  0  0  0  0
  124.2720   13.8560  -45.8820 C   0  0  1  0  0  0  0  0  0  0  0  0
  126.1710   11.7090  -46.3050 C   0  0  0  0  0  0  0  0  0  0  0  0
  124.4920   13.2550  -47.2670 C   0  0  0  0  0  0  0  0  0  0  0  0
  122.8660   14.4160  -45.6590 C   0  0  0  0  0  0  0  0  0  0  0  0
  123.9533   12.6793  -44.1079 H   0  0  0  0  0  0  0  0  0  0  0  0
  119.5551   16.0456  -45.0013 H   0  0  0  0  0  0  0  0  0  0  0  0
  123.4565   15.6281  -44.1195 H   0  0  0  0  0  0  0  0  0  0  0  0
  126.1113   11.1653  -49.1332 H   0  0  0  0  0  0  0  0  0  0  0  0
  119.7088   14.3308  -46.6336 H   0  0  0  0  0  0  0  0  0  0  0  0
  124.4563   12.5928  -50.4261 H   0  0  0  0  0  0  0  0  0  0  0  0
  128.0136   10.4173  -43.2695 H   0  0  0  0  0  0  0  0  0  0  0  0
  128.8221    9.9152  -45.4313 H   0  0  0  0  0  0  0  0  0  0  0  0
  126.0805   11.7873  -42.9891 H   0  0  0  0  0  0  0  0  0  0  0  0
  123.3604   14.2525  -48.7557 H   0  0  0  0  0  0  0  0  0  0  0  0
  127.6803   10.7228  -47.3690 H   0  0  0  0  0  0  0  0  0  0  0  0
  121.8234   13.3037  -47.0706 H   0  0  0  0  0  0  0  0  0  0  0  0
  124.9267   14.6019  -45.7593 H   0  0  0  0  0  0  0  0  0  0  0  0
  1  4  2  0  0  0  0
  1  5  1  0  0  0  0
  2 15  1  0  0  0  0
  2 16  1  0  0  0  0
  3  6  1  0  0  0  0
  3 17  1  0  0  0  0
  3 18  1  0  0  0  0
  4  7  1  0  0  0  0
  5 19  2  0  0  0  0
  6  8  2  0  0  0  0
  7 14  2  0  0  0  0
  8 12  1  0  0  0  0
  9 10  2  0  0  0  0
  9 11  1  0  0  0  0
 10 13  1  0  0  0  0
 11 15  2  0  0  0  0
 12 18  2  0  0  0  0
 13 17  2  0  0  0  0
 14 19  1  0  0  0  0
 15 17  1  0  0  0  0
 16 18  1  0  0  0  0
 16 19  1  0  0  0  0
  2 20  1  0  0  0  0
  4 21  1  0  0  0  0
  5 22  1  0  0  0  0
  6 23  1  0  0  0  0
  7 24  1  0  0  0  0
  8 25  1  0  0  0  0
  9 26  1  0  0  0  0
 10 27  1  0  0  0  0
 11 28  1  0  0  0  0
 12 29  1  0  0  0  0
 13 30  1  0  0  0  0
 14 31  1  0  0  0  0
 16 32  1  0  0  0  0
M  END
> <pdb_id>
5MF6

> <uniprot_id>
Q8N6T7

> <usmiles>
n1cc(ccc1)[C@H]2Nc3c(N4C2=CC=C4)cccc3

$$$$
7M6_A_305
          07202410513D 1   1.00000     0.00000     0
            
 26 27  0  0  0  0            999 V2000
   30.5057  164.5795  -27.3679 Cl  0  0  0  0  0  0  0  0  0  0  0  0
   33.8212  167.3581  -30.5821 S   0  0  0  0  0  0  0  0  0  0  0  0
   31.9928  171.1987  -27.0459 F   0  0  0  0  0  0  0  0  0  0  0  0
   35.1345  166.7252  -30.3949 O   0  0  0  0  0  0  0  0  0  0  0  0
   32.9127  166.9423  -31.6486 O   0  0  0  0  0  0  0  0  0  0  0  0
   33.9927  169.0459  -30.6544 N   0  0  0  0  0  0  0  0  0  0  0  0
   34.0009  169.3644  -28.2788 N   0  0  0  0  0  0  0  0  0  0  0  0
   33.2592  171.5386  -27.3215 C   0  0  0  0  0  0  0  0  0  0  0  0
   34.7095  169.6201  -29.5385 C   0  0  0  0  0  0  0  0  0  0  0  0
   34.2214  170.3440  -27.2095 C   0  0  0  0  0  0  0  0  0  0  0  0
   31.6495  166.9214  -26.6272 C   0  0  0  0  0  0  0  0  0  0  0  0
   32.4706  168.0415  -26.8372 C   0  0  0  0  0  0  0  0  0  0  0  0
   32.1804  166.0993  -28.8302 C   0  0  0  0  0  0  0  0  0  0  0  0
   31.5094  165.9443  -27.6178 C   0  0  0  0  0  0  0  0  0  0  0  0
   32.9895  167.2215  -29.0321 C   0  0  0  0  0  0  0  0  0  0  0  0
   33.1668  168.2334  -28.0568 C   0  0  0  0  0  0  0  0  0  0  0  0
   33.0795  169.4524  -30.6824 H   0  0  0  0  0  0  0  0  0  0  0  0
   33.5495  172.2468  -26.6780 H   0  0  0  0  0  0  0  0  0  0  0  0
   33.3001  171.8983  -28.2537 H   0  0  0  0  0  0  0  0  0  0  0  0
   34.7914  170.6075  -29.6742 H   0  0  0  0  0  0  0  0  0  0  0  0
   35.6218  169.2134  -29.4902 H   0  0  0  0  0  0  0  0  0  0  0  0
   35.1617  170.6794  -27.2667 H   0  0  0  0  0  0  0  0  0  0  0  0
   34.0802  169.8965  -26.3265 H   0  0  0  0  0  0  0  0  0  0  0  0
   31.1603  166.8217  -25.7608 H   0  0  0  0  0  0  0  0  0  0  0  0
   32.5662  168.7199  -26.1087 H   0  0  0  0  0  0  0  0  0  0  0  0
   32.0835  165.4125  -29.5505 H   0  0  0  0  0  0  0  0  0  0  0  0
  1 14  1  0  0  0  0
  2  4  2  0  0  0  0
  2  5  2  0  0  0  0
  2  6  1  0  0  0  0
  2 15  1  0  0  0  0
  3  8  1  0  0  0  0
  6  9  1  0  0  0  0
  7  9  1  0  0  0  0
  7 10  1  0  0  0  0
  7 16  1  0  0  0  0
  8 10  1  0  0  0  0
 11 12  1  0  0  0  0
 11 14  2  0  0  0  0
 12 16  2  0  0  0  0
 13 14  1  0  0  0  0
 13 15  2  0  0  0  0
 15 16  1  0  0  0  0
  6 17  1  0  0  0  0
  8 18  1  0  0  0  0
  8 19  1  0  0  0  0
  9 20  1  0  0  0  0
  9 21  1  0  0  0  0
 10 22  1  0  0  0  0
 10 23  1  0  0  0  0
 11 24  1  0  0  0  0
 12 25  1  0  0  0  0
 13 26  1  0  0  0  0
M  END
> <pdb_id>
5O9A

> <uniprot_id>
P19491

> <usmiles>
Clc1cc2S(=O)(=O)NCN(c2cc1)CCF

$$$$
7MK_A_1002
          07202400433D 1   1.00000     0.00000     0
            
 30 31  0  0  0  0            999 V2000
   71.9129   44.8195    6.7818 O   0  0  0  0  0  0  0  0  0  0  0  0
   73.4401   45.7573    8.0128 O   0  0  0  0  0  0  0  0  0  0  0  0
   71.5580   44.6091    9.5674 N   0  3  0  0  0  0  0  0  0  0  0  0
   73.6330   50.8135    8.4267 C   0  0  0  0  0  0  0  0  0  0  0  0
   74.2174   50.2513    7.3144 C   0  0  0  0  0  0  0  0  0  0  0  0
   72.5096   50.2266    8.9816 C   0  0  0  0  0  0  0  0  0  0  0  0
   73.6809   49.1001    6.7609 C   0  0  0  0  0  0  0  0  0  0  0  0
   70.8105   48.3727    9.1177 C   0  0  0  0  0  0  0  0  0  0  0  0
   71.2077   47.0539    9.7881 C   0  0  0  0  0  0  0  0  0  0  0  0
   71.9903   47.2290    6.7219 C   0  0  0  0  0  0  0  0  0  0  0  0
   71.9759   49.0585    8.4491 C   0  0  0  0  0  0  0  0  0  0  0  0
   72.5647   48.4908    7.3227 C   0  0  0  0  0  0  0  0  0  0  0  0
   71.2083   45.8576    8.8345 C   0  0  1  0  0  0  0  0  0  0  0  0
   72.1426   45.9687    7.5594 C   0  0  0  0  0  0  0  0  0  0  0  0
   72.1890   44.9628    5.8383 H   0  0  0  0  0  0  0  0  0  0  0  0
   74.1047   45.9886    7.3123 H   0  0  0  0  0  0  0  0  0  0  0  0
   72.1469   44.7934   10.3739 H   0  0  0  0  0  0  0  0  0  0  0  0
   72.0490   43.9680    8.9530 H   0  0  0  0  0  0  0  0  0  0  0  0
   70.7092   44.1661    9.9068 H   0  0  0  0  0  0  0  0  0  0  0  0
   74.0498   51.7160    8.8707 H   0  0  0  0  0  0  0  0  0  0  0  0
   75.0994   50.7107    6.8699 H   0  0  0  0  0  0  0  0  0  0  0  0
   72.0452   50.6945    9.8482 H   0  0  0  0  0  0  0  0  0  0  0  0
   74.1464   48.6723    5.8745 H   0  0  0  0  0  0  0  0  0  0  0  0
   70.3972   49.0696    9.8459 H   0  0  0  0  0  0  0  0  0  0  0  0
   69.9940   48.2029    8.4170 H   0  0  0  0  0  0  0  0  0  0  0  0
   70.5433   46.8565   10.6278 H   0  0  0  0  0  0  0  0  0  0  0  0
   72.1858   47.1255   10.2618 H   0  0  0  0  0  0  0  0  0  0  0  0
   70.9428   47.4081    6.4834 H   0  0  0  0  0  0  0  0  0  0  0  0
   72.4330   47.0542    5.7426 H   0  0  0  0  0  0  0  0  0  0  0  0
   70.1877   45.6982    8.4876 H   0  0  0  0  0  0  0  0  0  0  0  0
  1 14  1  0  0  0  0
  1 15  1  0  0  0  0
  2 14  1  0  0  0  0
  2 16  1  0  0  0  0
  3 13  1  0  0  0  0
  3 17  1  0  0  0  0
  3 18  1  0  0  0  0
  3 19  1  0  0  0  0
  4  5  2  0  0  0  0
  4  6  1  0  0  0  0
  4 20  1  0  0  0  0
  5  7  1  0  0  0  0
  5 21  1  0  0  0  0
  6 11  2  0  0  0  0
  6 22  1  0  0  0  0
  7 12  2  0  0  0  0
  7 23  1  0  0  0  0
  8  9  1  0  0  0  0
  8 11  1  0  0  0  0
  8 24  1  0  0  0  0
  8 25  1  0  0  0  0
  9 13  1  0  0  0  0
  9 26  1  0  0  0  0
  9 27  1  0  0  0  0
 10 12  1  0  0  0  0
 10 14  1  0  0  0  0
 10 28  1  0  0  0  0
 10 29  1  0  0  0  0
 11 12  1  0  0  0  0
 13 14  1  0  0  0  0
 13 30  1  0  0  0  0
M  CHG  1   3   1
M  END
> <pdb_id>
5MFR

> <uniprot_id>
P04825

> <usmiles>
OC1(O)[C@@H]([NH3+])CCc2c(cccc2)C1

$$$$
7ML_A_1002
          07202400433D 1   1.00000     0.00000     0
            
 40 42  0  0  0  0            999 V2000
   71.9073   44.7352    6.8339 O   0  0  0  0  0  0  0  0  0  0  0  0
   73.4756   45.8520    8.0587 O   0  0  0  0  0  0  0  0  0  0  0  0
   71.6402   44.6327    9.7142 N   0  3  0  0  0  0  0  0  0  0  0  0
   74.9778   47.4955    2.7745 C   0  0  0  0  0  0  0  0  0  0  0  0
   73.6376   47.7504    2.9614 C   0  0  0  0  0  0  0  0  0  0  0  0
   75.8701   47.7878    3.7703 C   0  0  0  0  0  0  0  0  0  0  0  0
   73.6797   50.7516    8.2210 C   0  0  0  0  0  0  0  0  0  0  0  0
   73.1842   48.2690    4.1591 C   0  0  0  0  0  0  0  0  0  0  0  0
   75.4231   48.2973    4.9779 C   0  0  0  0  0  0  0  0  0  0  0  0
   72.6082   50.1633    8.8748 C   0  0  0  0  0  0  0  0  0  0  0  0
   74.1512   50.2156    7.0311 C   0  0  0  0  0  0  0  0  0  0  0  0
   70.8499   48.3596    9.0787 C   0  0  0  0  0  0  0  0  0  0  0  0
   71.2702   47.0671    9.7872 C   0  0  0  0  0  0  0  0  0  0  0  0
   71.8899   47.1137    6.7204 C   0  0  0  0  0  0  0  0  0  0  0  0
   74.0677   48.5247    5.1998 C   0  0  0  0  0  0  0  0  0  0  0  0
   72.0170   49.0081    8.3715 C   0  0  0  0  0  0  0  0  0  0  0  0
   73.5760   49.0525    6.5057 C   0  0  0  0  0  0  0  0  0  0  0  0
   72.5134   48.4449    7.1924 C   0  0  0  0  0  0  0  0  0  0  0  0
   71.2677   45.8396    8.8718 C   0  0  1  0  0  0  0  0  0  0  0  0
   72.1556   45.9039    7.5914 C   0  0  0  0  0  0  0  0  0  0  0  0
   70.9396   44.6382    6.6326 H   0  0  0  0  0  0  0  0  0  0  0  0
   74.1103   45.7700    7.2992 H   0  0  0  0  0  0  0  0  0  0  0  0
   72.4254   44.8182   10.3301 H   0  0  0  0  0  0  0  0  0  0  0  0
   71.9105   43.8705    9.1014 H   0  0  0  0  0  0  0  0  0  0  0  0
   70.8503   44.3462   10.2837 H   0  0  0  0  0  0  0  0  0  0  0  0
   75.3254   47.0636    1.8370 H   0  0  0  0  0  0  0  0  0  0  0  0
   72.9255   47.5452    2.1639 H   0  0  0  0  0  0  0  0  0  0  0  0
   76.9350   47.6220    3.6157 H   0  0  0  0  0  0  0  0  0  0  0  0
   74.1549   51.6374    8.6396 H   0  0  0  0  0  0  0  0  0  0  0  0
   72.1254   48.4801    4.2960 H   0  0  0  0  0  0  0  0  0  0  0  0
   76.1403   48.5217    5.7665 H   0  0  0  0  0  0  0  0  0  0  0  0
   72.2416   50.6260    9.7896 H   0  0  0  0  0  0  0  0  0  0  0  0
   74.9710   50.6946    6.4964 H   0  0  0  0  0  0  0  0  0  0  0  0
   70.4268   49.0790    9.7781 H   0  0  0  0  0  0  0  0  0  0  0  0
   70.0317   48.1569    8.3888 H   0  0  0  0  0  0  0  0  0  0  0  0
   70.6347   46.8890   10.6534 H   0  0  0  0  0  0  0  0  0  0  0  0
   72.2647   47.1649   10.2194 H   0  0  0  0  0  0  0  0  0  0  0  0
   70.8190   47.2499    6.5770 H   0  0  0  0  0  0  0  0  0  0  0  0
   72.2317   46.8974    5.7091 H   0  0  0  0  0  0  0  0  0  0  0  0
   70.2416   45.6592    8.5524 H   0  0  0  0  0  0  0  0  0  0  0  0
  1 20  1  0  0  0  0
  1 21  1  0  0  0  0
  2 20  1  0  0  0  0
  2 22  1  0  0  0  0
  3 19  1  0  0  0  0
  3 23  1  0  0  0  0
  3 24  1  0  0  0  0
  3 25  1  0  0  0  0
  4  5  2  0  0  0  0
  4  6  1  0  0  0  0
  4 26  1  0  0  0  0
  5  8  1  0  0  0  0
  5 27  1  0  0  0  0
  6  9  2  0  0  0  0
  6 28  1  0  0  0  0
  7 10  2  0  0  0  0
  7 11  1  0  0  0  0
  7 29  1  0  0  0  0
  8 15  2  0  0  0  0
  8 30  1  0  0  0  0
  9 15  1  0  0  0  0
  9 31  1  0  0  0  0
 10 16  1  0  0  0  0
 10 32  1  0  0  0  0
 11 17  2  0  0  0  0
 11 33  1  0  0  0  0
 12 13  1  0  0  0  0
 12 16  1  0  0  0  0
 12 34  1  0  0  0  0
 12 35  1  0  0  0  0
 13 19  1  0  0  0  0
 13 36  1  0  0  0  0
 13 37  1  0  0  0  0
 14 18  1  0  0  0  0
 14 20  1  0  0  0  0
 14 38  1  0  0  0  0
 14 39  1  0  0  0  0
 15 17  1  0  0  0  0
 16 18  2  0  0  0  0
 17 18  1  0  0  0  0
 19 20  1  0  0  0  0
 19 40  1  0  0  0  0
M  CHG  1   3   1
M  END
> <pdb_id>
5MFS

> <uniprot_id>
P04825

> <usmiles>
OC1(O)[C@@H]([NH3+])CCc2c(c(c3ccccc3)ccc2)C1

$$$$
7MR_A_501
          07202408383D 1   1.00000     0.00000     0
            
 42 43  0  0  0  0            999 V2000
   26.3072   10.2292   51.1953 S   0  0  0  0  0  0  0  0  0  0  0  0
   25.1577   12.0296   46.4562 F   0  0  0  0  0  0  0  0  0  0  0  0
   23.5640   11.2653   47.7081 F   0  0  0  0  0  0  0  0  0  0  0  0
   24.5004   13.1536   48.1962 F   0  0  0  0  0  0  0  0  0  0  0  0
   25.8515   10.6494   52.5607 O   0  0  0  0  0  0  0  0  0  0  0  0
   27.6899   10.7569   50.9475 O   0  0  0  0  0  0  0  0  0  0  0  0
   27.8256    8.7301   46.6666 O   0  0  0  0  0  0  0  0  0  0  0  0
   25.3446    8.9527   47.7843 O   0  0  0  0  0  0  0  0  0  0  0  0
   26.3823    4.3317   50.9747 O   0  0  0  0  0  0  0  0  0  0  0  0
   26.9272   12.0487   48.7205 N   0  0  0  0  0  0  0  0  0  0  0  0
   27.3522    9.8877   47.3401 N   0  0  0  0  0  0  0  0  0  0  0  0
   25.1467   10.9163   49.9566 C   0  0  0  0  0  0  0  0  0  0  0  0
   23.9457    2.0265   53.4121 C   0  0  0  0  0  0  0  0  0  0  0  0
   25.2439    2.3285   53.8137 C   0  0  0  0  0  0  0  0  0  0  0  0
   23.4583    2.5252   52.2079 C   0  0  0  0  0  0  0  0  0  0  0  0
   25.2087    7.7642   51.5520 C   0  0  0  0  0  0  0  0  0  0  0  0
   27.4598    7.8017   50.7009 C   0  0  0  0  0  0  0  0  0  0  0  0
   26.0577    3.1251   53.0121 C   0  0  0  0  0  0  0  0  0  0  0  0
   24.2721    3.3208   51.4073 C   0  0  0  0  0  0  0  0  0  0  0  0
   25.2274    6.3726   51.5375 C   0  0  0  0  0  0  0  0  0  0  0  0
   27.4766    6.4101   50.6883 C   0  0  0  0  0  0  0  0  0  0  0  0
   26.3245    8.4808   51.1333 C   0  0  0  0  0  0  0  0  0  0  0  0
   26.1325    9.8937   47.8707 C   0  0  0  0  0  0  0  0  0  0  0  0
   25.5722    3.6188   51.8049 C   0  0  0  0  0  0  0  0  0  0  0  0
   26.3597    5.6886   51.1011 C   0  0  0  0  0  0  0  0  0  0  0  0
   24.7114   11.9363   47.7051 C   0  0  0  0  0  0  0  0  0  0  0  0
   25.7362   11.1986   48.5702 C   0  0  2  0  0  0  0  0  0  0  0  0
   28.7533    8.8953   46.3317 H   0  0  0  0  0  0  0  0  0  0  0  0
   27.3178   12.2374   47.8195 H   0  0  0  0  0  0  0  0  0  0  0  0
   26.6691   12.9096   49.1589 H   0  0  0  0  0  0  0  0  0  0  0  0
   27.9349   10.6969   47.4151 H   0  0  0  0  0  0  0  0  0  0  0  0
   24.7876   11.7769   50.3177 H   0  0  0  0  0  0  0  0  0  0  0  0
   24.3974   10.2637   49.8438 H   0  0  0  0  0  0  0  0  0  0  0  0
   23.3642    1.4520   53.9881 H   0  0  0  0  0  0  0  0  0  0  0  0
   25.5932    1.9723   54.6804 H   0  0  0  0  0  0  0  0  0  0  0  0
   22.5251    2.3123   51.9185 H   0  0  0  0  0  0  0  0  0  0  0  0
   24.3918    8.2494   51.8640 H   0  0  0  0  0  0  0  0  0  0  0  0
   28.2640    8.3139   50.3991 H   0  0  0  0  0  0  0  0  0  0  0  0
   26.9894    3.3420   53.3035 H   0  0  0  0  0  0  0  0  0  0  0  0
   23.9213    3.6801   50.5425 H   0  0  0  0  0  0  0  0  0  0  0  0
   24.4238    5.8611   51.8419 H   0  0  0  0  0  0  0  0  0  0  0  0
   28.2956    5.9256   50.3810 H   0  0  0  0  0  0  0  0  0  0  0  0
  1  5  2  0  0  0  0
  1  6  2  0  0  0  0
  1 12  1  0  0  0  0
  1 22  1  0  0  0  0
  2 26  1  0  0  0  0
  3 26  1  0  0  0  0
  4 26  1  0  0  0  0
  7 11  1  0  0  0  0
  8 23  2  0  0  0  0
  9 24  1  0  0  0  0
  9 25  1  0  0  0  0
 10 27  1  0  0  0  0
 11 23  1  0  0  0  0
 12 27  1  0  0  0  0
 13 14  2  0  0  0  0
 13 15  1  0  0  0  0
 14 18  1  0  0  0  0
 15 19  2  0  0  0  0
 16 20  2  0  0  0  0
 16 22  1  0  0  0  0
 17 21  1  0  0  0  0
 17 22  2  0  0  0  0
 18 24  2  0  0  0  0
 19 24  1  0  0  0  0
 20 25  1  0  0  0  0
 21 25  2  0  0  0  0
 23 27  1  0  0  0  0
 26 27  1  0  0  0  0
  7 28  1  0  0  0  0
 10 29  1  0  0  0  0
 10 30  1  0  0  0  0
 11 31  1  0  0  0  0
 12 32  1  0  0  0  0
 12 33  1  0  0  0  0
 13 34  1  0  0  0  0
 14 35  1  0  0  0  0
 15 36  1  0  0  0  0
 16 37  1  0  0  0  0
 17 38  1  0  0  0  0
 18 39  1  0  0  0  0
 19 40  1  0  0  0  0
 20 41  1  0  0  0  0
 21 42  1  0  0  0  0
M  END
> <pdb_id>
2OW1

> <uniprot_id>
P14780

> <usmiles>
S(=O)(=O)(c1ccc(Oc2ccccc2)cc1)C[C@@](N)(C(=O)NO)C(F)(F)F

$$$$
7MV_A_501
          07202408433D 1   1.00000     0.00000     0
            
 46 49  0  0  0  0            999 V2000
   18.4902   10.0499    9.0811 Cl  0  0  0  0  0  0  0  0  0  0  0  0
   16.1382    9.4405   10.7351 F   0  0  0  0  0  0  0  0  0  0  0  0
   19.7285    4.0898   17.6237 O   0  0  0  0  0  0  0  0  0  0  0  0
   18.0520    5.4095   18.5025 N   0  0  0  0  0  0  0  0  0  0  0  0
   16.1003    4.6820   12.3223 N   0  0  0  0  0  0  0  0  0  0  0  0
   18.7851    5.7806   19.6519 C   0  0  0  0  0  0  0  0  0  0  0  0
   14.8333    4.7568   12.6543 C   0  0  0  0  0  0  0  0  0  0  0  0
   20.5186    9.7183   19.4414 C   0  0  0  0  0  0  0  0  0  0  0  0
   20.5726    8.8862   18.3250 C   0  0  0  0  0  0  0  0  0  0  0  0
   19.9047    9.2676   20.6276 C   0  0  0  0  0  0  0  0  0  0  0  0
   16.5629    4.6151   10.9926 C   0  0  0  0  0  0  0  0  0  0  0  0
   20.0161    7.6200   18.3768 C   0  0  0  0  0  0  0  0  0  0  0  0
   19.3538    8.0041   20.6778 C   0  0  0  0  0  0  0  0  0  0  0  0
   14.7286    4.8056   14.0537 C   0  0  0  0  0  0  0  0  0  0  0  0
   18.6570    7.2678    9.2808 C   0  0  0  0  0  0  0  0  0  0  0  0
   18.2091    6.0442    9.7211 C   0  0  0  0  0  0  0  0  0  0  0  0
   18.3273    4.5998   13.5971 C   0  0  0  0  0  0  0  0  0  0  0  0
   18.8876    4.6070   14.8707 C   0  0  0  0  0  0  0  0  0  0  0  0
   16.3287    7.1164   10.8685 C   0  0  0  0  0  0  0  0  0  0  0  0
   16.6516    4.7525   15.8527 C   0  0  0  0  0  0  0  0  0  0  0  0
   17.9459    8.4326    9.6311 C   0  0  0  0  0  0  0  0  0  0  0  0
   18.6932    4.6909   17.4375 C   0  0  0  0  0  0  0  0  0  0  0  0
   16.7805    8.3447   10.4283 C   0  0  0  0  0  0  0  0  0  0  0  0
   19.3957    7.1663   19.5617 C   0  0  0  0  0  0  0  0  0  0  0  0
   17.0416    5.9492   10.5272 C   0  0  0  0  0  0  0  0  0  0  0  0
   16.8940    4.6727   13.4448 C   0  0  0  0  0  0  0  0  0  0  0  0
   18.0632    4.6848   15.9946 C   0  0  0  0  0  0  0  0  0  0  0  0
   16.0850    4.7486   14.5570 C   0  0  0  0  0  0  0  0  0  0  0  0
   17.0836    5.6481   18.4304 H   0  0  0  0  0  0  0  0  0  0  0  0
   19.5224    5.1181   19.7841 H   0  0  0  0  0  0  0  0  0  0  0  0
   18.1703    5.7567   20.4403 H   0  0  0  0  0  0  0  0  0  0  0  0
   14.0656    4.7760   12.0138 H   0  0  0  0  0  0  0  0  0  0  0  0
   20.9155   10.6353   19.4011 H   0  0  0  0  0  0  0  0  0  0  0  0
   21.0137    9.2041   17.4858 H   0  0  0  0  0  0  0  0  0  0  0  0
   19.8687    9.8624   21.4306 H   0  0  0  0  0  0  0  0  0  0  0  0
   15.8161    4.3108   10.4012 H   0  0  0  0  0  0  0  0  0  0  0  0
   17.3170    3.9604   10.9409 H   0  0  0  0  0  0  0  0  0  0  0  0
   20.0534    7.0253   17.5737 H   0  0  0  0  0  0  0  0  0  0  0  0
   18.9206    7.6854   21.5209 H   0  0  0  0  0  0  0  0  0  0  0  0
   13.8885    4.8672   14.5928 H   0  0  0  0  0  0  0  0  0  0  0  0
   19.4804    7.3301    8.7167 H   0  0  0  0  0  0  0  0  0  0  0  0
   18.7087    5.2145    9.4723 H   0  0  0  0  0  0  0  0  0  0  0  0
   18.9155    4.5444   12.7903 H   0  0  0  0  0  0  0  0  0  0  0  0
   19.8802    4.5564   14.9808 H   0  0  0  0  0  0  0  0  0  0  0  0
   15.5009    7.0552   11.4261 H   0  0  0  0  0  0  0  0  0  0  0  0
   16.0645    4.8024   16.6607 H   0  0  0  0  0  0  0  0  0  0  0  0
  1 21  1  0  0  0  0
  2 23  1  0  0  0  0
  3 22  2  0  0  0  0
  4  6  1  0  0  0  0
  4 22  1  0  0  0  0
  5  7  1  0  0  0  0
  5 11  1  0  0  0  0
  5 26  1  0  0  0  0
  6 24  1  0  0  0  0
  7 14  2  0  0  0  0
  8  9  2  0  0  0  0
  8 10  1  0  0  0  0
  9 12  1  0  0  0  0
 10 13  2  0  0  0  0
 11 25  1  0  0  0  0
 12 24  2  0  0  0  0
 13 24  1  0  0  0  0
 14 28  1  0  0  0  0
 15 16  2  0  0  0  0
 15 21  1  0  0  0  0
 16 25  1  0  0  0  0
 17 18  1  0  0  0  0
 17 26  2  0  0  0  0
 18 27  2  0  0  0  0
 19 23  1  0  0  0  0
 19 25  2  0  0  0  0
 20 27  1  0  0  0  0
 20 28  2  0  0  0  0
 21 23  2  0  0  0  0
 22 27  1  0  0  0  0
 26 28  1  0  0  0  0
  4 29  1  0  0  0  0
  6 30  1  0  0  0  0
  6 31  1  0  0  0  0
  7 32  1  0  0  0  0
  8 33  1  0  0  0  0
  9 34  1  0  0  0  0
 10 35  1  0  0  0  0
 11 36  1  0  0  0  0
 11 37  1  0  0  0  0
 12 38  1  0  0  0  0
 13 39  1  0  0  0  0
 14 40  1  0  0  0  0
 15 41  1  0  0  0  0
 16 42  1  0  0  0  0
 17 43  1  0  0  0  0
 18 44  1  0  0  0  0
 19 45  1  0  0  0  0
 20 46  1  0  0  0  0
M  END
> <pdb_id>
5TWO

> <uniprot_id>
P37231

> <usmiles>
Clc1c(F)cc(cc1)CN2c3c(cc(cc3)C(=O)NCc4ccccc4)C=C2

$$$$
7MX_A_1201
          07192420223D 1   1.00000     0.00000     0
            
 24 24  0  0  0  0            999 V2000
   10.2759   16.2204    8.8773 Cl  0  0  0  0  0  0  0  0  0  0  0  0
   11.8840   13.9776    9.0046 O   0  0  0  0  0  0  0  0  0  0  0  0
    5.6769   14.3595    8.8401 O   0  0  0  0  0  0  0  0  0  0  0  0
   11.2484   11.9994    9.8523 O   0  0  0  0  0  0  0  0  0  0  0  0
    7.3017   12.8883    9.2005 N   0  0  0  0  0  0  0  0  0  0  0  0
    6.3055   11.8075    9.2802 C   0  0  0  0  0  0  0  0  0  0  0  0
   12.9176   10.5276   10.8106 C   0  0  0  0  0  0  0  0  0  0  0  0
   12.6621   11.7506    9.9299 C   0  0  0  0  0  0  0  0  0  0  0  0
    8.6525   12.5817    9.3431 C   0  0  0  0  0  0  0  0  0  0  0  0
    7.8323   15.1477    8.8868 C   0  0  0  0  0  0  0  0  0  0  0  0
   10.9855   13.2282    9.3737 C   0  0  0  0  0  0  0  0  0  0  0  0
    6.8834   14.1399    8.9828 C   0  0  0  0  0  0  0  0  0  0  0  0
    9.1971   14.8778    9.0165 C   0  0  0  0  0  0  0  0  0  0  0  0
    9.6307   13.5689    9.2519 C   0  0  0  0  0  0  0  0  0  0  0  0
    5.3892   12.1892    9.1589 H   0  0  0  0  0  0  0  0  0  0  0  0
    6.4845   11.1355    8.5616 H   0  0  0  0  0  0  0  0  0  0  0  0
    6.3660   11.3637   10.1743 H   0  0  0  0  0  0  0  0  0  0  0  0
   13.9011   10.3550   10.8642 H   0  0  0  0  0  0  0  0  0  0  0  0
   12.5584   10.6968   11.7284 H   0  0  0  0  0  0  0  0  0  0  0  0
   12.4604    9.7309   10.4154 H   0  0  0  0  0  0  0  0  0  0  0  0
   13.1194   12.5473   10.3252 H   0  0  0  0  0  0  0  0  0  0  0  0
   13.0215   11.5813    9.0122 H   0  0  0  0  0  0  0  0  0  0  0  0
    8.9253   11.6350    9.5142 H   0  0  0  0  0  0  0  0  0  0  0  0
    7.5330   16.0874    8.7212 H   0  0  0  0  0  0  0  0  0  0  0  0
  1 13  1  0  0  0  0
  2 11  2  0  0  0  0
  3 12  2  0  0  0  0
  4  8  1  0  0  0  0
  4 11  1  0  0  0  0
  5  6  1  0  0  0  0
  5  9  1  0  0  0  0
  5 12  1  0  0  0  0
  7  8  1  0  0  0  0
  9 14  2  0  0  0  0
 10 12  1  0  0  0  0
 10 13  2  0  0  0  0
 11 14  1  0  0  0  0
 13 14  1  0  0  0  0
  6 15  1  0  0  0  0
  6 16  1  0  0  0  0
  6 17  1  0  0  0  0
  7 18  1  0  0  0  0
  7 19  1  0  0  0  0
  7 20  1  0  0  0  0
  8 21  1  0  0  0  0
  8 22  1  0  0  0  0
  9 23  1  0  0  0  0
 10 24  1  0  0  0  0
M  END
> <pdb_id>
5OWK

> <uniprot_id>
Q92793

> <usmiles>
ClC=1C(C(=O)OCC)=CN(C(=O)C1)C

$$$$
7MX_A_1901
          07202416333D 1   1.00000     0.00000     0
            
 24 24  0  0  0  0            999 V2000
  -36.5673   42.9658  -21.9769 Cl  0  0  0  0  0  0  0  0  0  0  0  0
  -38.8551   41.5544  -20.9801 O   0  0  0  0  0  0  0  0  0  0  0  0
  -32.6829   39.6637  -21.2810 O   0  0  0  0  0  0  0  0  0  0  0  0
  -38.9175   39.8142  -19.5895 O   0  0  0  0  0  0  0  0  0  0  0  0
  -34.7032   38.9206  -20.4159 N   0  0  0  0  0  0  0  0  0  0  0  0
  -34.1436   37.7036  -19.9533 C   0  0  0  0  0  0  0  0  0  0  0  0
  -40.8782   38.7028  -18.9430 C   0  0  0  0  0  0  0  0  0  0  0  0
  -40.3059   39.7814  -19.8192 C   0  0  0  0  0  0  0  0  0  0  0  0
  -36.1242   39.1798  -20.2045 C   0  0  0  0  0  0  0  0  0  0  0  0
  -34.4613   41.1854  -21.6044 C   0  0  0  0  0  0  0  0  0  0  0  0
  -38.2268   40.6723  -20.4458 C   0  0  0  0  0  0  0  0  0  0  0  0
  -33.8610   39.8954  -21.1095 C   0  0  0  0  0  0  0  0  0  0  0  0
  -35.8983   41.4596  -21.3938 C   0  0  0  0  0  0  0  0  0  0  0  0
  -36.7393   40.4657  -20.6903 C   0  0  0  0  0  0  0  0  0  0  0  0
  -33.1685   37.6800  -20.1738 H   0  0  0  0  0  0  0  0  0  0  0  0
  -34.2630   37.6371  -18.9627 H   0  0  0  0  0  0  0  0  0  0  0  0
  -34.6043   36.9349  -20.3969 H   0  0  0  0  0  0  0  0  0  0  0  0
  -41.8673   38.6512  -19.0809 H   0  0  0  0  0  0  0  0  0  0  0  0
  -40.4623   37.8249  -19.1803 H   0  0  0  0  0  0  0  0  0  0  0  0
  -40.6859   38.9147  -17.9848 H   0  0  0  0  0  0  0  0  0  0  0  0
  -40.4890   39.5746  -20.7803 H   0  0  0  0  0  0  0  0  0  0  0  0
  -40.7126   40.6644  -19.5849 H   0  0  0  0  0  0  0  0  0  0  0  0
  -36.6905   38.5018  -19.7360 H   0  0  0  0  0  0  0  0  0  0  0  0
  -33.8878   41.8560  -22.0750 H   0  0  0  0  0  0  0  0  0  0  0  0
  1 13  1  0  0  0  0
  2 11  2  0  0  0  0
  3 12  2  0  0  0  0
  4  8  1  0  0  0  0
  4 11  1  0  0  0  0
  5  6  1  0  0  0  0
  5  9  1  0  0  0  0
  5 12  1  0  0  0  0
  7  8  1  0  0  0  0
  9 14  2  0  0  0  0
 10 12  1  0  0  0  0
 10 13  2  0  0  0  0
 11 14  1  0  0  0  0
 13 14  1  0  0  0  0
  6 15  1  0  0  0  0
  6 16  1  0  0  0  0
  6 17  1  0  0  0  0
  7 18  1  0  0  0  0
  7 19  1  0  0  0  0
  7 20  1  0  0  0  0
  8 21  1  0  0  0  0
  8 22  1  0  0  0  0
  9 23  1  0  0  0  0
 10 24  1  0  0  0  0
M  END
> <pdb_id>
5MGJ

> <uniprot_id>
Q9UIF9

> <usmiles>
ClC=1C(C(=O)OCC)=CN(C(=O)C1)C

$$$$
7N3_B_301
          07202412083D 1   1.00000     0.00000     0
            
 36 38  0  0  0  0            999 V2000
   10.7700   34.7090   34.5610 S   0  0  0  0  0  0  0  0  0  0  0  0
   15.1050   33.0640   37.7520 S   0  0  0  0  0  0  0  0  0  0  0  0
   11.1900   31.5870   39.6210 O   0  0  0  0  0  0  0  0  0  0  0  0
   13.3230   33.7350   35.7950 O   0  0  0  0  0  0  0  0  0  0  0  0
   10.0580   39.4890   35.2420 O   0  0  0  0  0  0  0  0  0  0  0  0
   12.4430   31.0210   41.4210 N   0  0  0  0  0  0  0  0  0  0  0  0
   10.3340   37.2500   35.0710 N   0  0  0  0  0  0  0  0  0  0  0  0
    9.7130   35.6890   36.8210 N   0  0  0  0  0  0  0  0  0  0  0  0
   12.3500   32.8570   37.6360 N   0  0  0  0  0  0  0  0  0  0  0  0
   15.8180   32.4130   39.1980 C   0  0  0  0  0  0  0  0  0  0  0  0
   10.9910   33.3620   35.6810 C   0  0  0  0  0  0  0  0  0  0  0  0
    8.3110   37.6830   39.5620 C   0  0  0  0  0  0  0  0  0  0  0  0
    8.3730   38.9900   39.0660 C   0  0  0  0  0  0  0  0  0  0  0  0
   14.8620   31.8920   40.0730 C   0  0  0  0  0  0  0  0  0  0  0  0
    8.7530   36.5760   38.8450 C   0  0  0  0  0  0  0  0  0  0  0  0
    8.8920   39.1870   37.8110 C   0  0  0  0  0  0  0  0  0  0  0  0
   10.2280   35.9820   35.5580 C   0  0  0  0  0  0  0  0  0  0  0  0
   13.5110   32.6920   38.2920 C   0  0  0  0  0  0  0  0  0  0  0  0
   12.2790   31.5840   40.2280 C   0  0  0  0  0  0  0  0  0  0  0  0
   12.3190   33.3290   36.3660 C   0  0  0  0  0  0  0  0  0  0  0  0
    9.9000   38.3360   35.7120 C   0  0  0  0  0  0  0  0  0  0  0  0
    9.2850   36.7510   37.5680 C   0  0  0  0  0  0  0  0  0  0  0  0
   13.5330   32.0420   39.6090 C   0  0  0  0  0  0  0  0  0  0  0  0
    9.3600   38.1070   37.0670 C   0  0  0  0  0  0  0  0  0  0  0  0
   13.3378   31.0456   41.8667 H   0  0  0  0  0  0  0  0  0  0  0  0
   11.6715   30.5729   41.8727 H   0  0  0  0  0  0  0  0  0  0  0  0
   10.7642   37.3742   34.1768 H   0  0  0  0  0  0  0  0  0  0  0  0
   11.4914   32.6269   38.0942 H   0  0  0  0  0  0  0  0  0  0  0  0
   16.8009   32.4117   39.3823 H   0  0  0  0  0  0  0  0  0  0  0  0
   10.8840   32.5101   35.1683 H   0  0  0  0  0  0  0  0  0  0  0  0
   10.2805   33.4205   36.3822 H   0  0  0  0  0  0  0  0  0  0  0  0
    7.9308   37.5379   40.4755 H   0  0  0  0  0  0  0  0  0  0  0  0
    8.0472   39.7614   39.6126 H   0  0  0  0  0  0  0  0  0  0  0  0
   15.0938   31.4556   40.9424 H   0  0  0  0  0  0  0  0  0  0  0  0
    8.6896   35.6607   39.2427 H   0  0  0  0  0  0  0  0  0  0  0  0
    8.9343   40.1102   37.4291 H   0  0  0  0  0  0  0  0  0  0  0  0
  1 11  1  0  0  0  0
  1 17  1  0  0  0  0
  2 10  1  0  0  0  0
  2 18  1  0  0  0  0
  3 19  2  0  0  0  0
  4 20  2  0  0  0  0
  5 21  2  0  0  0  0
  6 19  1  0  0  0  0
  7 17  1  0  0  0  0
  7 21  1  0  0  0  0
  8 17  2  0  0  0  0
  8 22  1  0  0  0  0
  9 18  1  0  0  0  0
  9 20  1  0  0  0  0
 10 14  2  0  0  0  0
 11 20  1  0  0  0  0
 12 13  2  0  0  0  0
 12 15  1  0  0  0  0
 13 16  1  0  0  0  0
 14 23  1  0  0  0  0
 15 22  2  0  0  0  0
 16 24  2  0  0  0  0
 18 23  2  0  0  0  0
 19 23  1  0  0  0  0
 21 24  1  0  0  0  0
 22 24  1  0  0  0  0
  6 25  1  0  0  0  0
  6 26  1  0  0  0  0
  7 27  1  0  0  0  0
  9 28  1  0  0  0  0
 10 29  1  0  0  0  0
 11 30  1  0  0  0  0
 11 31  1  0  0  0  0
 12 32  1  0  0  0  0
 13 33  1  0  0  0  0
 14 34  1  0  0  0  0
 15 35  1  0  0  0  0
 16 36  1  0  0  0  0
M  END
> <pdb_id>
5WQJ

> <uniprot_id>
Q505N7

> <usmiles>
S1C(NC(=O)CSC2=Nc3c(cccc3)C(=O)N2)=C(C(=O)N)C=C1

$$$$
7NC_A_301
          07202412083D 1   1.00000     0.00000     0
            
 36 38  0  0  0  0            999 V2000
   10.8068   34.5703   34.6303 S   0  0  0  0  0  0  0  0  0  0  0  0
   10.2130   39.4381   35.0463 O   0  0  0  0  0  0  0  0  0  0  0  0
   13.0878   34.1980   36.1689 O   0  0  0  0  0  0  0  0  0  0  0  0
   10.3904   37.2053   34.9446 N   0  0  0  0  0  0  0  0  0  0  0  0
    9.6914   35.8276   36.6737 N   0  0  0  0  0  0  0  0  0  0  0  0
    8.5746   36.7871   38.6238 C   0  0  0  0  0  0  0  0  0  0  0  0
   10.8688   33.3639   35.9003 C   0  0  0  0  0  0  0  0  0  0  0  0
   16.1787   31.7558   39.5516 C   0  0  0  0  0  0  0  0  0  0  0  0
   16.1372   32.4732   38.3690 C   0  0  0  0  0  0  0  0  0  0  0  0
   11.4085   31.6951   39.9044 C   0  0  0  0  0  0  0  0  0  0  0  0
   15.0593   31.4136   40.3059 C   0  0  0  0  0  0  0  0  0  0  0  0
   12.6603   31.4188   40.4423 C   0  0  0  0  0  0  0  0  0  0  0  0
   14.9318   32.7913   37.7682 C   0  0  0  0  0  0  0  0  0  0  0  0
   11.2789   32.4035   38.7134 C   0  0  0  0  0  0  0  0  0  0  0  0
    9.4249   38.1730   36.7995 C   0  0  0  0  0  0  0  0  0  0  0  0
   10.2755   35.9821   35.4727 C   0  0  0  0  0  0  0  0  0  0  0  0
   10.0017   38.3019   35.5562 C   0  0  0  0  0  0  0  0  0  0  0  0
    9.2839   36.9288   37.3216 C   0  0  0  0  0  0  0  0  0  0  0  0
   12.1776   33.4814   36.6351 C   0  0  0  0  0  0  0  0  0  0  0  0
   13.8223   31.7451   39.7595 C   0  0  0  0  0  0  0  0  0  0  0  0
   12.3742   32.7997   37.9530 C   0  0  0  0  0  0  0  0  0  0  0  0
   13.7498   32.4798   38.4603 C   0  0  0  0  0  0  0  0  0  0  0  0
   10.7946   37.2904   34.0338 H   0  0  0  0  0  0  0  0  0  0  0  0
    8.3391   37.6931   38.9754 H   0  0  0  0  0  0  0  0  0  0  0  0
    7.7394   36.2532   38.4920 H   0  0  0  0  0  0  0  0  0  0  0  0
    9.1692   36.3198   39.2781 H   0  0  0  0  0  0  0  0  0  0  0  0
   10.7923   32.4515   35.4982 H   0  0  0  0  0  0  0  0  0  0  0  0
   10.1131   33.5115   36.5383 H   0  0  0  0  0  0  0  0  0  0  0  0
   17.0740   31.4630   39.8876 H   0  0  0  0  0  0  0  0  0  0  0  0
   16.9923   32.7665   37.9415 H   0  0  0  0  0  0  0  0  0  0  0  0
   10.5879   31.3799   40.3810 H   0  0  0  0  0  0  0  0  0  0  0  0
   15.1394   30.9552   41.1910 H   0  0  0  0  0  0  0  0  0  0  0  0
   12.7238   30.9769   41.3371 H   0  0  0  0  0  0  0  0  0  0  0  0
   14.9032   33.2292   36.8697 H   0  0  0  0  0  0  0  0  0  0  0  0
   10.3614   32.6370   38.3913 H   0  0  0  0  0  0  0  0  0  0  0  0
    9.1168   38.9782   37.3062 H   0  0  0  0  0  0  0  0  0  0  0  0
  1  7  1  0  0  0  0
  1 16  1  0  0  0  0
  2 17  2  0  0  0  0
  3 19  2  0  0  0  0
  4 16  1  0  0  0  0
  4 17  1  0  0  0  0
  5 16  2  0  0  0  0
  5 18  1  0  0  0  0
  6 18  1  0  0  0  0
  7 19  1  0  0  0  0
  8  9  2  0  0  0  0
  8 11  1  0  0  0  0
  9 13  1  0  0  0  0
 10 12  2  0  0  0  0
 10 14  1  0  0  0  0
 11 20  2  0  0  0  0
 12 20  1  0  0  0  0
 13 22  2  0  0  0  0
 14 21  2  0  0  0  0
 15 17  1  0  0  0  0
 15 18  2  0  0  0  0
 19 21  1  0  0  0  0
 20 22  1  0  0  0  0
 21 22  1  0  0  0  0
  4 23  1  0  0  0  0
  6 24  1  0  0  0  0
  6 25  1  0  0  0  0
  6 26  1  0  0  0  0
  7 27  1  0  0  0  0
  7 28  1  0  0  0  0
  8 29  1  0  0  0  0
  9 30  1  0  0  0  0
 10 31  1  0  0  0  0
 11 32  1  0  0  0  0
 12 33  1  0  0  0  0
 13 34  1  0  0  0  0
 14 35  1  0  0  0  0
 15 36  1  0  0  0  0
M  END
> <pdb_id>
5WQK

> <uniprot_id>
Q505N7

> <usmiles>
S(C1=NC(=CC(=O)N1)C)CC(=O)c2c3c(ccc2)cccc3

$$$$
7NI_A_1750
          07192423083D 1   1.00000     0.00000     0
            
 17 18  0  0  0  0            999 V2000
    4.9758   13.0769   34.1844 O   0  5  0  0  0  0  0  0  0  0  0  0
    4.2147   12.3212   32.3780 O   0  0  0  0  0  0  0  0  0  0  0  0
    6.3886   10.6042   29.4757 N   0  0  0  0  0  0  0  0  0  0  0  0
    5.7534   11.2044   30.5463 N   0  0  0  0  0  0  0  0  0  0  0  0
    5.1569   12.5289   33.1138 N   0  3  0  0  0  0  0  0  0  0  0  0
    7.8458   10.5618   29.8697 C   0  0  0  0  0  0  0  0  0  0  0  0
    8.7026   12.0150   33.2191 C   0  0  0  0  0  0  0  0  0  0  0  0
    7.4432   12.3950   33.6005 C   0  0  0  0  0  0  0  0  0  0  0  0
    8.9331   11.4012   32.0147 C   0  0  0  0  0  0  0  0  0  0  0  0
    6.5899   11.5310   31.5050 C   0  0  0  0  0  0  0  0  0  0  0  0
    6.3773   12.1610   32.7574 C   0  0  0  0  0  0  0  0  0  0  0  0
    7.8683   11.1541   31.1366 C   0  0  0  0  0  0  0  0  0  0  0  0
    4.7682   11.3712   30.5867 H   0  0  0  0  0  0  0  0  0  0  0  0
    8.6155   10.1956   29.3467 H   0  0  0  0  0  0  0  0  0  0  0  0
    9.4721   12.1894   33.8334 H   0  0  0  0  0  0  0  0  0  0  0  0
    7.2975   12.8391   34.4845 H   0  0  0  0  0  0  0  0  0  0  0  0
    9.8618   11.1293   31.7624 H   0  0  0  0  0  0  0  0  0  0  0  0
  1  5  1  0  0  0  0
  2  5  2  0  0  0  0
  3  4  1  0  0  0  0
  3  6  2  0  0  0  0
  4 10  1  0  0  0  0
  5 11  1  0  0  0  0
  6 12  1  0  0  0  0
  7  8  1  0  0  0  0
  7  9  2  0  0  0  0
  8 11  2  0  0  0  0
  9 12  1  0  0  0  0
 10 11  1  0  0  0  0
 10 12  2  0  0  0  0
  4 13  1  0  0  0  0
  6 14  1  0  0  0  0
  7 15  1  0  0  0  0
  8 16  1  0  0  0  0
  9 17  1  0  0  0  0
M  CHG  2   1  -1   5   1
M  END
> <pdb_id>
1FOJ

> <uniprot_id>
P29473

> <usmiles>
[O-][N+](=O)c1c2NN=Cc2ccc1

$$$$
7NU_C_201
          07192422123D 1   1.00000     0.00000     0
            
 35 37  0  0  0  0            999 V2000
   12.0530   13.8168   68.7141 O   0  0  0  0  0  0  0  0  0  0  0  0
   11.7436   11.6465   66.7961 O   0  0  0  0  0  0  0  0  0  0  0  0
   12.0477   12.9964   64.5890 O   0  0  0  0  0  0  0  0  0  0  0  0
   15.4492   15.3050   63.4245 O   0  0  0  0  0  0  0  0  0  0  0  0
   13.2132   16.1332   67.7158 O   0  0  0  0  0  0  0  0  0  0  0  0
   13.9370   15.0454   65.8617 O   0  0  0  0  0  0  0  0  0  0  0  0
   14.1043   15.0735   62.9942 C   0  0  0  0  0  0  0  0  0  0  0  0
   16.0069   19.0243   68.7644 C   0  0  0  0  0  0  0  0  0  0  0  0
   16.4033   17.7685   68.3769 C   0  0  0  0  0  0  0  0  0  0  0  0
   14.6162   19.2651   68.7892 C   0  0  0  0  0  0  0  0  0  0  0  0
   15.4800   16.7899   68.0141 C   0  0  0  0  0  0  0  0  0  0  0  0
   13.7018   18.2972   68.3775 C   0  0  0  0  0  0  0  0  0  0  0  0
   13.6089   14.8397   67.1878 C   0  0  2  0  0  0  0  0  0  0  0  0
   14.1134   17.0395   68.0188 C   0  0  0  0  0  0  0  0  0  0  0  0
   12.4678   13.8769   67.3765 C   0  0  1  0  0  0  0  0  0  0  0  0
   12.8360   12.4910   66.7566 C   0  0  2  0  0  0  0  0  0  0  0  0
   13.2635   12.7527   65.3330 C   0  0  2  0  0  0  0  0  0  0  0  0
   14.7857   14.0597   63.7815 C   0  0  2  0  0  0  0  0  0  0  0  0
   14.3267   13.8323   65.2494 C   0  0  1  0  0  0  0  0  0  0  0  0
   11.2960   13.1690   68.7996 H   0  0  0  0  0  0  0  0  0  0  0  0
   11.9904   10.7633   66.3972 H   0  0  0  0  0  0  0  0  0  0  0  0
   12.2733   13.1770   63.6317 H   0  0  0  0  0  0  0  0  0  0  0  0
   13.9120   14.9076   62.0270 H   0  0  0  0  0  0  0  0  0  0  0  0
   13.3545   15.5976   63.3981 H   0  0  0  0  0  0  0  0  0  0  0  0
   16.6682   19.7310   69.0157 H   0  0  0  0  0  0  0  0  0  0  0  0
   17.3789   17.5504   68.3545 H   0  0  0  0  0  0  0  0  0  0  0  0
   14.2794   20.1505   69.1096 H   0  0  0  0  0  0  0  0  0  0  0  0
   15.8094   15.8853   67.7436 H   0  0  0  0  0  0  0  0  0  0  0  0
   12.7285   18.5241   68.3431 H   0  0  0  0  0  0  0  0  0  0  0  0
   14.4116   14.5078   67.6833 H   0  0  0  0  0  0  0  0  0  0  0  0
   11.6967   14.2344   66.8497 H   0  0  0  0  0  0  0  0  0  0  0  0
   13.5943   12.0848   67.2665 H   0  0  0  0  0  0  0  0  0  0  0  0
   13.6660   11.9077   64.9809 H   0  0  0  0  0  0  0  0  0  0  0  0
   15.0843   13.2452   63.2840 H   0  0  0  0  0  0  0  0  0  0  0  0
   15.1222   13.4956   65.7532 H   0  0  0  0  0  0  0  0  0  0  0  0
  1 15  1  0  0  0  0
  2 16  1  0  0  0  0
  3 17  1  0  0  0  0
  4  7  1  0  0  0  0
  4 18  1  0  0  0  0
  5 13  1  0  0  0  0
  5 14  1  0  0  0  0
  6 13  1  0  0  0  0
  6 19  1  0  0  0  0
  7 18  1  0  0  0  0
  8  9  2  0  0  0  0
  8 10  1  0  0  0  0
  9 11  1  0  0  0  0
 10 12  2  0  0  0  0
 11 14  2  0  0  0  0
 12 14  1  0  0  0  0
 13 15  1  0  0  0  0
 15 16  1  0  0  0  0
 16 17  1  0  0  0  0
 17 19  1  0  0  0  0
 18 19  1  0  0  0  0
  1 20  1  0  0  0  0
  2 21  1  0  0  0  0
  3 22  1  0  0  0  0
  7 23  1  0  0  0  0
  7 24  1  0  0  0  0
  8 25  1  0  0  0  0
  9 26  1  0  0  0  0
 10 27  1  0  0  0  0
 11 28  1  0  0  0  0
 12 29  1  0  0  0  0
 13 30  1  0  0  0  0
 15 31  1  0  0  0  0
 16 32  1  0  0  0  0
 17 33  1  0  0  0  0
 18 34  1  0  0  0  0
 19 35  1  0  0  0  0
M  END
> <pdb_id>
5MIH

> <uniprot_id>
Q05097

> <usmiles>
O(c1ccccc1)[C@@H]2O[C@H]([C@@H]3OC3)[C@H](O)[C@H](O)[C@H]2O

$$$$
7OG_B_1001
          07202411583D 1   1.00000     0.00000     0
            
 49 53  0  0  0  0            999 V2000
   10.9172    4.4662   21.8889 O   0  0  0  0  0  0  0  0  0  0  0  0
   12.7429    2.4336   16.5539 N   0  0  0  0  0  0  0  0  0  0  0  0
   14.0308    2.2427   14.6717 N   0  0  0  0  0  0  0  0  0  0  0  0
   15.9761    1.3007   15.7612 N   0  0  0  0  0  0  0  0  0  0  0  0
   13.9459    1.9161   16.8382 N   0  0  0  0  0  0  0  0  0  0  0  0
   12.5123    3.2952   20.7438 N   0  0  0  0  0  0  0  0  0  0  0  0
   17.7878    0.3603   17.0532 C   0  0  0  0  0  0  0  0  0  0  0  0
   12.8358    2.6162   15.2305 C   0  0  0  0  0  0  0  0  0  0  0  0
   12.7456    2.4343   21.8834 C   0  0  0  0  0  0  0  0  0  0  0  0
   13.4001    3.1577   19.6255 C   0  0  0  0  0  0  0  0  0  0  0  0
   12.8137    0.9684   21.5121 C   0  0  0  0  0  0  0  0  0  0  0  0
    9.6796    7.0344   15.3834 C   0  0  0  0  0  0  0  0  0  0  0  0
    9.7362    5.6762   15.1785 C   0  0  0  0  0  0  0  0  0  0  0  0
   13.7665    0.7536   20.3616 C   0  0  0  0  0  0  0  0  0  0  0  0
    9.9997    7.5577   16.6141 C   0  0  0  0  0  0  0  0  0  0  0  0
   10.1172    4.8557   16.2187 C   0  0  0  0  0  0  0  0  0  0  0  0
   11.0953    6.4395   19.9222 C   0  0  0  0  0  0  0  0  0  0  0  0
   10.7166    7.2571   18.8838 C   0  0  0  0  0  0  0  0  0  0  0  0
   15.6337    1.0199   18.1620 C   0  0  0  0  0  0  0  0  0  0  0  0
   10.8309    4.5387   18.4850 C   0  0  0  0  0  0  0  0  0  0  0  0
   14.7185    1.8079   15.7089 C   0  0  0  0  0  0  0  0  0  0  0  0
   11.5401    4.2582   20.8570 C   0  0  0  0  0  0  0  0  0  0  0  0
   16.4109    0.9281   16.9269 C   0  0  0  0  0  0  0  0  0  0  0  0
   14.4025    1.5279   18.0705 C   0  0  0  0  0  0  0  0  0  0  0  0
   13.4568    1.6947   19.2141 C   0  0  2  0  0  0  0  0  0  0  0  0
   11.1578    5.0848   19.7051 C   0  0  0  0  0  0  0  0  0  0  0  0
   10.3842    6.7348   17.6533 C   0  0  0  0  0  0  0  0  0  0  0  0
   10.4434    5.3707   17.4508 C   0  0  0  0  0  0  0  0  0  0  0  0
   17.9653    0.1259   18.0090 H   0  0  0  0  0  0  0  0  0  0  0  0
   17.8624   -0.4619   16.4889 H   0  0  0  0  0  0  0  0  0  0  0  0
   18.4569    1.0371   16.7462 H   0  0  0  0  0  0  0  0  0  0  0  0
   12.0870    2.9978   14.6885 H   0  0  0  0  0  0  0  0  0  0  0  0
   12.0006    2.5630   22.5380 H   0  0  0  0  0  0  0  0  0  0  0  0
   13.6119    2.6961   22.3087 H   0  0  0  0  0  0  0  0  0  0  0  0
   14.3147    3.4689   19.8834 H   0  0  0  0  0  0  0  0  0  0  0  0
   13.0639    3.7079   18.8611 H   0  0  0  0  0  0  0  0  0  0  0  0
   11.9023    0.6543   21.2466 H   0  0  0  0  0  0  0  0  0  0  0  0
   13.1300    0.4439   22.3026 H   0  0  0  0  0  0  0  0  0  0  0  0
    9.4058    7.6417   14.6376 H   0  0  0  0  0  0  0  0  0  0  0  0
    9.5040    5.2885   14.2865 H   0  0  0  0  0  0  0  0  0  0  0  0
   13.6844   -0.1902   20.0414 H   0  0  0  0  0  0  0  0  0  0  0  0
   14.7012    0.9187   20.6763 H   0  0  0  0  0  0  0  0  0  0  0  0
    9.9532    8.5462   16.7579 H   0  0  0  0  0  0  0  0  0  0  0  0
   10.1570    3.8670   16.0742 H   0  0  0  0  0  0  0  0  0  0  0  0
   11.3209    6.8235   20.8176 H   0  0  0  0  0  0  0  0  0  0  0  0
   10.6819    8.2466   19.0241 H   0  0  0  0  0  0  0  0  0  0  0  0
   16.0083    0.7151   19.0376 H   0  0  0  0  0  0  0  0  0  0  0  0
   10.8733    3.5491   18.3475 H   0  0  0  0  0  0  0  0  0  0  0  0
   12.5472    1.4522   18.8767 H   0  0  0  0  0  0  0  0  0  0  0  0
  1 22  2  0  0  0  0
  2  5  1  0  0  0  0
  2  8  2  0  0  0  0
  3  8  1  0  0  0  0
  3 21  2  0  0  0  0
  4 21  1  0  0  0  0
  4 23  2  0  0  0  0
  5 21  1  0  0  0  0
  5 24  1  0  0  0  0
  6  9  1  0  0  0  0
  6 10  1  0  0  0  0
  6 22  1  0  0  0  0
  7 23  1  0  0  0  0
  9 11  1  0  0  0  0
 10 25  1  0  0  0  0
 11 14  1  0  0  0  0
 12 13  2  0  0  0  0
 12 15  1  0  0  0  0
 13 16  1  0  0  0  0
 14 25  1  0  0  0  0
 15 27  2  0  0  0  0
 16 28  2  0  0  0  0
 17 18  2  0  0  0  0
 17 26  1  0  0  0  0
 18 27  1  0  0  0  0
 19 23  1  0  0  0  0
 19 24  2  0  0  0  0
 20 26  2  0  0  0  0
 20 28  1  0  0  0  0
 22 26  1  0  0  0  0
 24 25  1  0  0  0  0
 27 28  1  0  0  0  0
  7 29  1  0  0  0  0
  7 30  1  0  0  0  0
  7 31  1  0  0  0  0
  8 32  1  0  0  0  0
  9 33  1  0  0  0  0
  9 34  1  0  0  0  0
 10 35  1  0  0  0  0
 10 36  1  0  0  0  0
 11 37  1  0  0  0  0
 11 38  1  0  0  0  0
 12 39  1  0  0  0  0
 13 40  1  0  0  0  0
 14 41  1  0  0  0  0
 14 42  1  0  0  0  0
 15 43  1  0  0  0  0
 16 44  1  0  0  0  0
 17 45  1  0  0  0  0
 18 46  1  0  0  0  0
 19 47  1  0  0  0  0
 20 48  1  0  0  0  0
 25 49  1  0  0  0  0
M  END
> <pdb_id>
5TZA

> <uniprot_id>
O00408

> <usmiles>
O=C(N1C[C@@H](C=2N3N=CN=C3N=C(C2)C)CCC1)c4cc5c(cc4)cccc5

$$$$
7OM_C_1001
          07202411583D 1   1.00000     0.00000     0
            
 51 55  0  0  0  0            999 V2000
   11.1894    4.6972   21.2055 O   0  0  0  0  0  0  0  0  0  0  0  0
   12.8508    2.5765   16.7244 N   0  0  0  0  0  0  0  0  0  0  0  0
   13.8139    2.1321   14.7189 N   0  0  0  0  0  0  0  0  0  0  0  0
   15.8681    1.2337   15.5872 N   0  0  0  0  0  0  0  0  0  0  0  0
   11.4343    4.1253   18.9903 N   0  0  0  0  0  0  0  0  0  0  0  0
   14.0728    2.0394   16.9032 N   0  0  0  0  0  0  0  0  0  0  0  0
   14.0880    2.0617   19.2760 N   0  0  0  0  0  0  0  0  0  0  0  0
   17.8555    0.3541   16.6042 C   0  0  0  0  0  0  0  0  0  0  0  0
   12.7284    2.6181   15.3970 C   0  0  0  0  0  0  0  0  0  0  0  0
   14.9122    2.2049   20.4686 C   0  0  0  0  0  0  0  0  0  0  0  0
   12.6566    1.9203   19.4392 C   0  0  0  0  0  0  0  0  0  0  0  0
   14.3397    3.1639   21.4846 C   0  0  0  0  0  0  0  0  0  0  0  0
    9.7904    9.4525   16.0078 C   0  0  0  0  0  0  0  0  0  0  0  0
    9.5640    8.3824   15.1757 C   0  0  0  0  0  0  0  0  0  0  0  0
   12.9506    2.7355   21.8724 C   0  0  0  0  0  0  0  0  0  0  0  0
   10.2967    9.2425   17.2670 C   0  0  0  0  0  0  0  0  0  0  0  0
    9.8443    7.1063   15.6021 C   0  0  0  0  0  0  0  0  0  0  0  0
   11.3734    6.4876   19.3954 C   0  0  0  0  0  0  0  0  0  0  0  0
   11.0874    7.7577   18.9597 C   0  0  0  0  0  0  0  0  0  0  0  0
   15.9438    1.2217   18.0277 C   0  0  0  0  0  0  0  0  0  0  0  0
   10.6382    5.6229   17.2979 C   0  0  0  0  0  0  0  0  0  0  0  0
   14.6384    1.7816   15.6848 C   0  0  0  0  0  0  0  0  0  0  0  0
   11.5093    3.8991   20.3394 C   0  0  0  0  0  0  0  0  0  0  0  0
   16.4866    0.9643   16.6849 C   0  0  0  0  0  0  0  0  0  0  0  0
   14.7184    1.7605   18.0851 C   0  0  0  0  0  0  0  0  0  0  0  0
   11.1465    5.4217   18.5585 C   0  0  0  0  0  0  0  0  0  0  0  0
   12.0388    2.5449   20.6778 C   0  0  1  0  0  0  0  0  0  0  0  0
   10.5803    7.9688   17.6985 C   0  0  0  0  0  0  0  0  0  0  0  0
   10.3524    6.8950   16.8633 C   0  0  0  0  0  0  0  0  0  0  0  0
   11.5813    3.3846   18.3347 H   0  0  0  0  0  0  0  0  0  0  0  0
   18.2078    0.2024   17.5277 H   0  0  0  0  0  0  0  0  0  0  0  0
   17.8031   -0.5191   16.1198 H   0  0  0  0  0  0  0  0  0  0  0  0
   18.4676    0.9726   16.1114 H   0  0  0  0  0  0  0  0  0  0  0  0
   11.9146    2.9734   14.9371 H   0  0  0  0  0  0  0  0  0  0  0  0
   15.8139    2.5375   20.1922 H   0  0  0  0  0  0  0  0  0  0  0  0
   15.0057    1.3068   20.8985 H   0  0  0  0  0  0  0  0  0  0  0  0
   12.4505    0.9420   19.4599 H   0  0  0  0  0  0  0  0  0  0  0  0
   12.2195    2.3362   18.6417 H   0  0  0  0  0  0  0  0  0  0  0  0
   14.3049    4.0821   21.0901 H   0  0  0  0  0  0  0  0  0  0  0  0
   14.9225    3.1721   22.2972 H   0  0  0  0  0  0  0  0  0  0  0  0
    9.5872   10.3811   15.6973 H   0  0  0  0  0  0  0  0  0  0  0  0
    9.1946    8.5325   14.2586 H   0  0  0  0  0  0  0  0  0  0  0  0
   12.5551    3.4352   22.4675 H   0  0  0  0  0  0  0  0  0  0  0  0
   13.0105    1.8700   22.3697 H   0  0  0  0  0  0  0  0  0  0  0  0
   10.4599   10.0207   17.8734 H   0  0  0  0  0  0  0  0  0  0  0  0
    9.6786    6.3296   14.9944 H   0  0  0  0  0  0  0  0  0  0  0  0
   11.7432    6.3396   20.3127 H   0  0  0  0  0  0  0  0  0  0  0  0
   11.2493    8.5369   19.5652 H   0  0  0  0  0  0  0  0  0  0  0  0
   16.4625    1.0058   18.8549 H   0  0  0  0  0  0  0  0  0  0  0  0
   10.4757    4.8417   16.6952 H   0  0  0  0  0  0  0  0  0  0  0  0
   11.2694    1.9732   20.9628 H   0  0  0  0  0  0  0  0  0  0  0  0
  1 23  2  0  0  0  0
  2  6  1  0  0  0  0
  2  9  2  0  0  0  0
  3  9  1  0  0  0  0
  3 22  2  0  0  0  0
  4 22  1  0  0  0  0
  4 24  2  0  0  0  0
  5 23  1  0  0  0  0
  5 26  1  0  0  0  0
  6 22  1  0  0  0  0
  6 25  1  0  0  0  0
  7 10  1  0  0  0  0
  7 11  1  0  0  0  0
  7 25  1  0  0  0  0
  8 24  1  0  0  0  0
 10 12  1  0  0  0  0
 11 27  1  0  0  0  0
 12 15  1  0  0  0  0
 13 14  1  0  0  0  0
 13 16  2  0  0  0  0
 14 17  2  0  0  0  0
 15 27  1  0  0  0  0
 16 28  1  0  0  0  0
 17 29  1  0  0  0  0
 18 19  1  0  0  0  0
 18 26  2  0  0  0  0
 19 28  2  0  0  0  0
 20 24  1  0  0  0  0
 20 25  2  0  0  0  0
 21 26  1  0  0  0  0
 21 29  2  0  0  0  0
 23 27  1  0  0  0  0
 28 29  1  0  0  0  0
  5 30  1  0  0  0  0
  8 31  1  0  0  0  0
  8 32  1  0  0  0  0
  8 33  1  0  0  0  0
  9 34  1  0  0  0  0
 10 35  1  0  0  0  0
 10 36  1  0  0  0  0
 11 37  1  0  0  0  0
 11 38  1  0  0  0  0
 12 39  1  0  0  0  0
 12 40  1  0  0  0  0
 13 41  1  0  0  0  0
 14 42  1  0  0  0  0
 15 43  1  0  0  0  0
 15 44  1  0  0  0  0
 16 45  1  0  0  0  0
 17 46  1  0  0  0  0
 18 47  1  0  0  0  0
 19 48  1  0  0  0  0
 20 49  1  0  0  0  0
 21 50  1  0  0  0  0
 27 51  1  0  0  0  0
M  END
> <pdb_id>
5TZ3

> <uniprot_id>
O00408

> <usmiles>
O=C(Nc1cc2c(cc1)cccc2)[C@H]3CN(C=4N5N=CN=C5N=C(C4)C)CCC3

$$$$
7OP_B_1001
          07202411583D 1   1.00000     0.00000     0
            
 43 46  0  0  0  0            999 V2000
    9.8086    6.6357   15.6673 F   0  0  0  0  0  0  0  0  0  0  0  0
   11.6382    0.7642   21.0799 F   0  0  0  0  0  0  0  0  0  0  0  0
   13.1353    0.5872   22.5884 F   0  0  0  0  0  0  0  0  0  0  0  0
   10.8236    4.7243   21.4381 O   0  0  0  0  0  0  0  0  0  0  0  0
   12.7520    2.4162   16.4523 N   0  0  0  0  0  0  0  0  0  0  0  0
   14.0280    2.1542   14.5821 N   0  0  0  0  0  0  0  0  0  0  0  0
   15.9549    1.2484   15.6953 N   0  0  0  0  0  0  0  0  0  0  0  0
   13.9473    1.9026   16.7542 N   0  0  0  0  0  0  0  0  0  0  0  0
   12.5225    3.5131   20.4797 N   0  0  0  0  0  0  0  0  0  0  0  0
   17.7707    0.3449   17.0002 C   0  0  0  0  0  0  0  0  0  0  0  0
   12.8425    2.5547   15.1262 C   0  0  0  0  0  0  0  0  0  0  0  0
   13.4017    3.2603   19.3810 C   0  0  0  0  0  0  0  0  0  0  0  0
   12.7433    2.7500   21.6831 C   0  0  0  0  0  0  0  0  0  0  0  0
   10.3986    6.9002   17.9274 C   0  0  0  0  0  0  0  0  0  0  0  0
   10.4283    4.7374   16.8924 C   0  0  0  0  0  0  0  0  0  0  0  0
   10.8117    6.3392   19.1158 C   0  0  0  0  0  0  0  0  0  0  0  0
   10.8415    4.1765   18.0799 C   0  0  0  0  0  0  0  0  0  0  0  0
   15.6299    1.0376   18.1059 C   0  0  0  0  0  0  0  0  0  0  0  0
   13.8415    0.9591   20.3522 C   0  0  0  0  0  0  0  0  0  0  0  0
   14.7127    1.7546   15.6324 C   0  0  0  0  0  0  0  0  0  0  0  0
   10.2105    6.0956   16.8292 C   0  0  0  0  0  0  0  0  0  0  0  0
   11.4596    4.3988   20.4512 C   0  0  0  0  0  0  0  0  0  0  0  0
   16.3964    0.9059   16.8648 C   0  0  0  0  0  0  0  0  0  0  0  0
   14.4061    1.5421   17.9918 C   0  0  0  0  0  0  0  0  0  0  0  0
   11.0353    4.9806   19.1734 C   0  0  0  0  0  0  0  0  0  0  0  0
   13.4847    1.7594   19.1139 C   0  0  2  0  0  0  0  0  0  0  0  0
   12.8516    1.2619   21.4364 C   0  0  0  0  0  0  0  0  0  0  0  0
   17.9519    0.1351   17.9611 H   0  0  0  0  0  0  0  0  0  0  0  0
   17.8445   -0.4913   16.4568 H   0  0  0  0  0  0  0  0  0  0  0  0
   18.4378    1.0146   16.6738 H   0  0  0  0  0  0  0  0  0  0  0  0
   12.0961    2.9249   14.5732 H   0  0  0  0  0  0  0  0  0  0  0  0
   14.3132    3.6088   19.5992 H   0  0  0  0  0  0  0  0  0  0  0  0
   13.0543    3.7231   18.5654 H   0  0  0  0  0  0  0  0  0  0  0  0
   11.9794    2.9135   22.3073 H   0  0  0  0  0  0  0  0  0  0  0  0
   13.5930    3.0641   22.1067 H   0  0  0  0  0  0  0  0  0  0  0  0
   10.2369    7.8850   17.8643 H   0  0  0  0  0  0  0  0  0  0  0  0
   10.2879    4.1648   16.0847 H   0  0  0  0  0  0  0  0  0  0  0  0
   10.9474    6.9100   19.9256 H   0  0  0  0  0  0  0  0  0  0  0  0
   10.9990    3.1911   18.1442 H   0  0  0  0  0  0  0  0  0  0  0  0
   16.0069    0.7630   18.9905 H   0  0  0  0  0  0  0  0  0  0  0  0
   14.7601    1.2087   20.6586 H   0  0  0  0  0  0  0  0  0  0  0  0
   13.8152   -0.0174   20.1384 H   0  0  0  0  0  0  0  0  0  0  0  0
   12.5781    1.4596   18.8168 H   0  0  0  0  0  0  0  0  0  0  0  0
  1 21  1  0  0  0  0
  2 27  1  0  0  0  0
  3 27  1  0  0  0  0
  4 22  2  0  0  0  0
  5  8  1  0  0  0  0
  5 11  2  0  0  0  0
  6 11  1  0  0  0  0
  6 20  2  0  0  0  0
  7 20  1  0  0  0  0
  7 23  2  0  0  0  0
  8 20  1  0  0  0  0
  8 24  1  0  0  0  0
  9 12  1  0  0  0  0
  9 13  1  0  0  0  0
  9 22  1  0  0  0  0
 10 23  1  0  0  0  0
 12 26  1  0  0  0  0
 13 27  1  0  0  0  0
 14 16  2  0  0  0  0
 14 21  1  0  0  0  0
 15 17  1  0  0  0  0
 15 21  2  0  0  0  0
 16 25  1  0  0  0  0
 17 25  2  0  0  0  0
 18 23  1  0  0  0  0
 18 24  2  0  0  0  0
 19 26  1  0  0  0  0
 19 27  1  0  0  0  0
 22 25  1  0  0  0  0
 24 26  1  0  0  0  0
 10 28  1  0  0  0  0
 10 29  1  0  0  0  0
 10 30  1  0  0  0  0
 11 31  1  0  0  0  0
 12 32  1  0  0  0  0
 12 33  1  0  0  0  0
 13 34  1  0  0  0  0
 13 35  1  0  0  0  0
 14 36  1  0  0  0  0
 15 37  1  0  0  0  0
 16 38  1  0  0  0  0
 17 39  1  0  0  0  0
 18 40  1  0  0  0  0
 19 41  1  0  0  0  0
 19 42  1  0  0  0  0
 26 43  1  0  0  0  0
M  END
> <pdb_id>
5TZH

> <uniprot_id>
O00408

> <usmiles>
Fc1ccc(cc1)C(=O)N2CC(F)(F)C[C@H](C=3N4N=CN=C4N=C(C3)C)C2

$$$$
7OV_C_1001
          07202411583D 1   1.00000     0.00000     0
            
 43 46  0  0  0  0            999 V2000
    9.8404    4.4935   15.1754 I   0  0  0  0  0  0  0  0  0  0  0  0
   10.0430    7.3694   16.0521 F   0  0  0  0  0  0  0  0  0  0  0  0
   11.7451    0.7540   21.0512 F   0  0  0  0  0  0  0  0  0  0  0  0
   13.2450    0.5863   22.5876 F   0  0  0  0  0  0  0  0  0  0  0  0
   11.0831    4.7339   21.5475 O   0  0  0  0  0  0  0  0  0  0  0  0
   12.8799    2.3107   16.3390 N   0  0  0  0  0  0  0  0  0  0  0  0
   14.1775    1.9517   14.5063 N   0  0  0  0  0  0  0  0  0  0  0  0
   16.0796    1.0495   15.6375 N   0  0  0  0  0  0  0  0  0  0  0  0
   14.0727    1.7858   16.6855 N   0  0  0  0  0  0  0  0  0  0  0  0
   12.5742    3.4288   20.4660 N   0  0  0  0  0  0  0  0  0  0  0  0
   17.8821    0.1669   16.9191 C   0  0  0  0  0  0  0  0  0  0  0  0
   12.9935    2.3999   15.0187 C   0  0  0  0  0  0  0  0  0  0  0  0
   13.4714    3.2016   19.3552 C   0  0  0  0  0  0  0  0  0  0  0  0
   12.8576    2.7258   21.6975 C   0  0  0  0  0  0  0  0  0  0  0  0
   10.8054    7.2782   18.2768 C   0  0  0  0  0  0  0  0  0  0  0  0
   11.1979    6.5251   19.3608 C   0  0  0  0  0  0  0  0  0  0  0  0
   10.8460    4.5072   18.1087 C   0  0  0  0  0  0  0  0  0  0  0  0
   15.7481    0.9335   18.0576 C   0  0  0  0  0  0  0  0  0  0  0  0
   13.9425    0.9297   20.3297 C   0  0  0  0  0  0  0  0  0  0  0  0
   14.8435    1.5711   15.5734 C   0  0  0  0  0  0  0  0  0  0  0  0
   10.4442    5.2746   17.0220 C   0  0  0  0  0  0  0  0  0  0  0  0
   10.4323    6.6466   17.1172 C   0  0  0  0  0  0  0  0  0  0  0  0
   11.6339    4.4226   20.5020 C   0  0  0  0  0  0  0  0  0  0  0  0
   16.5106    0.7490   16.8124 C   0  0  0  0  0  0  0  0  0  0  0  0
   14.5229    1.4587   17.9428 C   0  0  0  0  0  0  0  0  0  0  0  0
   11.2222    5.1481   19.2766 C   0  0  0  0  0  0  0  0  0  0  0  0
   13.5933    1.7184   19.0724 C   0  0  2  0  0  0  0  0  0  0  0  0
   12.9531    1.2421   21.4333 C   0  0  0  0  0  0  0  0  0  0  0  0
   18.0914   -0.0192   17.8791 H   0  0  0  0  0  0  0  0  0  0  0  0
   17.9240   -0.6853   16.3975 H   0  0  0  0  0  0  0  0  0  0  0  0
   18.5489    0.8155   16.5522 H   0  0  0  0  0  0  0  0  0  0  0  0
   12.2649    2.7685   14.4416 H   0  0  0  0  0  0  0  0  0  0  0  0
   14.3737    3.5699   19.5793 H   0  0  0  0  0  0  0  0  0  0  0  0
   13.1148    3.6640   18.5434 H   0  0  0  0  0  0  0  0  0  0  0  0
   12.1237    2.8989   22.3544 H   0  0  0  0  0  0  0  0  0  0  0  0
   13.7250    3.0520   22.0733 H   0  0  0  0  0  0  0  0  0  0  0  0
   10.7925    8.2765   18.3342 H   0  0  0  0  0  0  0  0  0  0  0  0
   11.4659    6.9774   20.2114 H   0  0  0  0  0  0  0  0  0  0  0  0
   10.8630    3.5092   18.0480 H   0  0  0  0  0  0  0  0  0  0  0  0
   16.1276    0.6786   18.9470 H   0  0  0  0  0  0  0  0  0  0  0  0
   14.8630    1.1785   20.6309 H   0  0  0  0  0  0  0  0  0  0  0  0
   13.9117   -0.0487   20.1254 H   0  0  0  0  0  0  0  0  0  0  0  0
   12.6897    1.4063   18.7788 H   0  0  0  0  0  0  0  0  0  0  0  0
  1 21  1  0  0  0  0
  2 22  1  0  0  0  0
  3 28  1  0  0  0  0
  4 28  1  0  0  0  0
  5 23  2  0  0  0  0
  6  9  1  0  0  0  0
  6 12  2  0  0  0  0
  7 12  1  0  0  0  0
  7 20  2  0  0  0  0
  8 20  1  0  0  0  0
  8 24  2  0  0  0  0
  9 20  1  0  0  0  0
  9 25  1  0  0  0  0
 10 13  1  0  0  0  0
 10 14  1  0  0  0  0
 10 23  1  0  0  0  0
 11 24  1  0  0  0  0
 13 27  1  0  0  0  0
 14 28  1  0  0  0  0
 15 16  2  0  0  0  0
 15 22  1  0  0  0  0
 16 26  1  0  0  0  0
 17 21  1  0  0  0  0
 17 26  2  0  0  0  0
 18 24  1  0  0  0  0
 18 25  2  0  0  0  0
 19 27  1  0  0  0  0
 19 28  1  0  0  0  0
 21 22  2  0  0  0  0
 23 26  1  0  0  0  0
 25 27  1  0  0  0  0
 11 29  1  0  0  0  0
 11 30  1  0  0  0  0
 11 31  1  0  0  0  0
 12 32  1  0  0  0  0
 13 33  1  0  0  0  0
 13 34  1  0  0  0  0
 14 35  1  0  0  0  0
 14 36  1  0  0  0  0
 15 37  1  0  0  0  0
 16 38  1  0  0  0  0
 17 39  1  0  0  0  0
 18 40  1  0  0  0  0
 19 41  1  0  0  0  0
 19 42  1  0  0  0  0
 27 43  1  0  0  0  0
M  END
> <pdb_id>
5U00

> <uniprot_id>
O00408

> <usmiles>
Ic1c(F)ccc(c1)C(=O)N2CC(F)(F)C[C@H](C=3N4N=CN=C4N=C(C3)C)C2

$$$$
7OW_A_1201
          07192420223D 1   1.00000     0.00000     0
            
 55 58  0  0  0  0            999 V2000
   13.3214   10.7826    5.7199 F   0  0  0  0  0  0  0  0  0  0  0  0
   13.5912   12.0525    4.0346 F   0  0  0  0  0  0  0  0  0  0  0  0
   15.0340   10.6501    4.5033 F   0  0  0  0  0  0  0  0  0  0  0  0
    5.7607   14.4134    8.9261 O   0  0  0  0  0  0  0  0  0  0  0  0
   19.4465   11.3046    9.2659 O   0  0  0  0  0  0  0  0  0  0  0  0
   14.7899   12.3366    5.8626 O   0  0  0  0  0  0  0  0  0  0  0  0
   14.7641   11.1038   10.0673 N   0  0  0  0  0  0  0  0  0  0  0  0
    7.9575   14.8408    9.3793 N   0  0  0  0  0  0  0  0  0  0  0  0
   14.3952   12.8029    8.6812 N   0  0  0  0  0  0  0  0  0  0  0  0
    7.7067   16.2892    9.3090 C   0  0  0  0  0  0  0  0  0  0  0  0
    6.0323   11.6163    9.1365 C   0  0  0  0  0  0  0  0  0  0  0  0
   18.5374   10.2187    9.3570 C   0  0  0  0  0  0  0  0  0  0  0  0
   19.0354   12.4482   10.0051 C   0  0  0  0  0  0  0  0  0  0  0  0
   14.0445   13.4503    6.3606 C   0  0  0  0  0  0  0  0  0  0  0  0
   14.6087   13.8540    7.6914 C   0  0  0  0  0  0  0  0  0  0  0  0
    9.2476   14.3815    9.5145 C   0  0  0  0  0  0  0  0  0  0  0  0
   17.3016   10.5382    8.5523 C   0  0  0  0  0  0  0  0  0  0  0  0
   17.5348   12.7099    9.9286 C   0  0  0  0  0  0  0  0  0  0  0  0
   12.3572   10.8876   10.8391 C   0  0  0  0  0  0  0  0  0  0  0  0
   11.1037   11.4536   10.7049 C   0  0  0  0  0  0  0  0  0  0  0  0
   11.9190   13.0568    9.0856 C   0  0  0  0  0  0  0  0  0  0  0  0
    8.4171   12.1529    9.5012 C   0  0  0  0  0  0  0  0  0  0  0  0
    6.8769   13.9692    9.1817 C   0  0  0  0  0  0  0  0  0  0  0  0
   15.3025   11.9128    9.1845 C   0  0  0  0  0  0  0  0  0  0  0  0
   13.4014   11.4500   10.1237 C   0  0  0  0  0  0  0  0  0  0  0  0
   13.1749   12.5133    9.2644 C   0  0  0  0  0  0  0  0  0  0  0  0
    7.1689   12.5882    9.2635 C   0  0  0  0  0  0  0  0  0  0  0  0
   16.7700   11.9475    8.8366 C   0  0  0  0  0  0  0  0  0  0  0  0
    9.4887   13.0529    9.6311 C   0  0  0  0  0  0  0  0  0  0  0  0
   10.8603   12.5403    9.8171 C   0  0  0  0  0  0  0  0  0  0  0  0
   14.1835   11.4933    5.0074 C   0  0  0  0  0  0  0  0  0  0  0  0
    6.7250   16.4532    9.2121 H   0  0  0  0  0  0  0  0  0  0  0  0
    8.0366   16.7256   10.1462 H   0  0  0  0  0  0  0  0  0  0  0  0
    8.1882   16.6731    8.5211 H   0  0  0  0  0  0  0  0  0  0  0  0
    5.1841   12.1164    8.9617 H   0  0  0  0  0  0  0  0  0  0  0  0
    6.2124   10.9900    8.3780 H   0  0  0  0  0  0  0  0  0  0  0  0
    5.9430   11.0951    9.9852 H   0  0  0  0  0  0  0  0  0  0  0  0
   18.2852   10.0728   10.3136 H   0  0  0  0  0  0  0  0  0  0  0  0
   18.9672    9.3913    8.9957 H   0  0  0  0  0  0  0  0  0  0  0  0
   19.5156   13.2481    9.6452 H   0  0  0  0  0  0  0  0  0  0  0  0
   19.2853   12.3128   10.9639 H   0  0  0  0  0  0  0  0  0  0  0  0
   13.0845   13.1915    6.4672 H   0  0  0  0  0  0  0  0  0  0  0  0
   14.1145   14.2150    5.7200 H   0  0  0  0  0  0  0  0  0  0  0  0
   15.5901   14.0203    7.5954 H   0  0  0  0  0  0  0  0  0  0  0  0
   14.1573   14.6916    7.9991 H   0  0  0  0  0  0  0  0  0  0  0  0
   10.0090   15.0295    9.5267 H   0  0  0  0  0  0  0  0  0  0  0  0
   16.5894    9.8740    8.7794 H   0  0  0  0  0  0  0  0  0  0  0  0
   17.5243   10.4687    7.5799 H   0  0  0  0  0  0  0  0  0  0  0  0
   17.4032   13.6880    9.7673 H   0  0  0  0  0  0  0  0  0  0  0  0
   17.1359   12.4609   10.8112 H   0  0  0  0  0  0  0  0  0  0  0  0
   12.5057   10.0974   11.4337 H   0  0  0  0  0  0  0  0  0  0  0  0
   10.3459   11.0897   11.2465 H   0  0  0  0  0  0  0  0  0  0  0  0
   11.7754   13.8080    8.4414 H   0  0  0  0  0  0  0  0  0  0  0  0
    8.5869   11.1712    9.5872 H   0  0  0  0  0  0  0  0  0  0  0  0
   16.8605   12.4734    7.9909 H   0  0  0  0  0  0  0  0  0  0  0  0
  1 31  1  0  0  0  0
  2 31  1  0  0  0  0
  3 31  1  0  0  0  0
  4 23  2  0  0  0  0
  5 12  1  0  0  0  0
  5 13  1  0  0  0  0
  6 14  1  0  0  0  0
  6 31  1  0  0  0  0
  7 24  2  0  0  0  0
  7 25  1  0  0  0  0
  8 10  1  0  0  0  0
  8 16  1  0  0  0  0
  8 23  1  0  0  0  0
  9 15  1  0  0  0  0
  9 24  1  0  0  0  0
  9 26  1  0  0  0  0
 11 27  1  0  0  0  0
 12 17  1  0  0  0  0
 13 18  1  0  0  0  0
 14 15  1  0  0  0  0
 16 29  2  0  0  0  0
 17 28  1  0  0  0  0
 18 28  1  0  0  0  0
 19 20  1  0  0  0  0
 19 25  2  0  0  0  0
 20 30  2  0  0  0  0
 21 26  2  0  0  0  0
 21 30  1  0  0  0  0
 22 27  2  0  0  0  0
 22 29  1  0  0  0  0
 23 27  1  0  0  0  0
 24 28  1  0  0  0  0
 25 26  1  0  0  0  0
 29 30  1  0  0  0  0
 10 32  1  0  0  0  0
 10 33  1  0  0  0  0
 10 34  1  0  0  0  0
 11 35  1  0  0  0  0
 11 36  1  0  0  0  0
 11 37  1  0  0  0  0
 12 38  1  0  0  0  0
 12 39  1  0  0  0  0
 13 40  1  0  0  0  0
 13 41  1  0  0  0  0
 14 42  1  0  0  0  0
 14 43  1  0  0  0  0
 15 44  1  0  0  0  0
 15 45  1  0  0  0  0
 16 46  1  0  0  0  0
 17 47  1  0  0  0  0
 17 48  1  0  0  0  0
 18 49  1  0  0  0  0
 18 50  1  0  0  0  0
 19 51  1  0  0  0  0
 20 52  1  0  0  0  0
 21 53  1  0  0  0  0
 22 54  1  0  0  0  0
 28 55  1  0  0  0  0
M  END
> <pdb_id>
7WX2

> <uniprot_id>
Q92793

> <usmiles>
FC(F)(F)OCCN1c2c(N=C1C3CCOCC3)ccc(c2)C4=CN(C(=O)C(=C4)C)C

$$$$
7OW_A_201
          07212401333D 1   1.00000     0.00000     0
            
 55 58  0  0  0  0            999 V2000
  -15.9500  -20.0862  -13.9279 F   0  0  0  0  0  0  0  0  0  0  0  0
  -16.8554  -21.0113  -15.6799 F   0  0  0  0  0  0  0  0  0  0  0  0
  -15.7356  -22.1128  -14.2350 F   0  0  0  0  0  0  0  0  0  0  0  0
  -16.9115  -23.3336  -23.3932 O   0  0  0  0  0  0  0  0  0  0  0  0
   -8.3317  -16.6546  -14.7270 O   0  0  0  0  0  0  0  0  0  0  0  0
  -14.7092  -20.7711  -15.7028 O   0  0  0  0  0  0  0  0  0  0  0  0
  -12.0681  -17.2811  -17.5977 N   0  0  0  0  0  0  0  0  0  0  0  0
  -16.8394  -21.2097  -22.5263 N   0  0  0  0  0  0  0  0  0  0  0  0
  -12.4556  -19.3556  -16.8668 N   0  0  0  0  0  0  0  0  0  0  0  0
  -18.0398  -20.8090  -23.2812 C   0  0  0  0  0  0  0  0  0  0  0  0
  -14.5658  -24.2100  -22.2008 C   0  0  0  0  0  0  0  0  0  0  0  0
   -9.5657  -16.1961  -14.1817 C   0  0  0  0  0  0  0  0  0  0  0  0
   -8.4090  -18.0604  -14.9207 C   0  0  0  0  0  0  0  0  0  0  0  0
  -13.4490  -20.6376  -15.0249 C   0  0  0  0  0  0  0  0  0  0  0  0
  -12.3723  -20.5886  -16.0717 C   0  0  0  0  0  0  0  0  0  0  0  0
  -16.2224  -20.3336  -21.6691 C   0  0  0  0  0  0  0  0  0  0  0  0
  -10.6744  -16.4396  -15.1876 C   0  0  0  0  0  0  0  0  0  0  0  0
   -9.4344  -18.4296  -15.9845 C   0  0  0  0  0  0  0  0  0  0  0  0
  -13.4887  -17.4888  -19.6987 C   0  0  0  0  0  0  0  0  0  0  0  0
  -14.2105  -18.3866  -20.4507 C   0  0  0  0  0  0  0  0  0  0  0  0
  -13.8877  -20.1561  -18.8021 C   0  0  0  0  0  0  0  0  0  0  0  0
  -14.5640  -21.9503  -21.1025 C   0  0  0  0  0  0  0  0  0  0  0  0
  -16.3566  -22.5060  -22.6522 C   0  0  0  0  0  0  0  0  0  0  0  0
  -11.7822  -18.1635  -16.6741 C   0  0  0  0  0  0  0  0  0  0  0  0
  -12.9247  -17.9395  -18.5048 C   0  0  0  0  0  0  0  0  0  0  0  0
  -13.1347  -19.2492  -18.0764 C   0  0  0  0  0  0  0  0  0  0  0  0
  -15.1604  -22.8543  -21.9675 C   0  0  0  0  0  0  0  0  0  0  0  0
  -10.8299  -17.9179  -15.5411 C   0  0  0  0  0  0  0  0  0  0  0  0
  -15.1115  -20.6858  -20.9240 C   0  0  0  0  0  0  0  0  0  0  0  0
  -14.4068  -19.7215  -20.0333 C   0  0  0  0  0  0  0  0  0  0  0  0
  -15.7964  -20.9765  -14.8786 C   0  0  0  0  0  0  0  0  0  0  0  0
  -18.3465  -21.5725  -23.8495 H   0  0  0  0  0  0  0  0  0  0  0  0
  -18.7664  -20.5561  -22.6423 H   0  0  0  0  0  0  0  0  0  0  0  0
  -17.8212  -20.0263  -23.8640 H   0  0  0  0  0  0  0  0  0  0  0  0
  -15.1329  -24.7153  -22.8513 H   0  0  0  0  0  0  0  0  0  0  0  0
  -13.6424  -24.1097  -22.5714 H   0  0  0  0  0  0  0  0  0  0  0  0
  -14.5253  -24.7097  -21.3356 H   0  0  0  0  0  0  0  0  0  0  0  0
   -9.5016  -15.2179  -13.9844 H   0  0  0  0  0  0  0  0  0  0  0  0
   -9.7642  -16.6941  -13.3375 H   0  0  0  0  0  0  0  0  0  0  0  0
   -8.6688  -18.4923  -14.0571 H   0  0  0  0  0  0  0  0  0  0  0  0
   -7.5116  -18.3977  -15.2053 H   0  0  0  0  0  0  0  0  0  0  0  0
  -13.3020  -21.4211  -14.4211 H   0  0  0  0  0  0  0  0  0  0  0  0
  -13.4392  -19.7952  -14.4862 H   0  0  0  0  0  0  0  0  0  0  0  0
  -11.4796  -20.6268  -15.6227 H   0  0  0  0  0  0  0  0  0  0  0  0
  -12.4734  -21.3758  -16.6800 H   0  0  0  0  0  0  0  0  0  0  0  0
  -16.5890  -19.4075  -21.5798 H   0  0  0  0  0  0  0  0  0  0  0  0
  -10.4671  -15.9303  -16.0228 H   0  0  0  0  0  0  0  0  0  0  0  0
  -11.5359  -16.1100  -14.8013 H   0  0  0  0  0  0  0  0  0  0  0  0
   -9.4609  -19.4232  -16.0939 H   0  0  0  0  0  0  0  0  0  0  0  0
   -9.1826  -18.0051  -16.8543 H   0  0  0  0  0  0  0  0  0  0  0  0
  -13.3719  -16.5420  -19.9986 H   0  0  0  0  0  0  0  0  0  0  0  0
  -14.6075  -18.0854  -21.3177 H   0  0  0  0  0  0  0  0  0  0  0  0
  -14.0554  -21.0821  -18.4640 H   0  0  0  0  0  0  0  0  0  0  0  0
  -13.7361  -22.2093  -20.6048 H   0  0  0  0  0  0  0  0  0  0  0  0
  -11.1317  -18.4254  -14.7340 H   0  0  0  0  0  0  0  0  0  0  0  0
  1 31  1  0  0  0  0
  2 31  1  0  0  0  0
  3 31  1  0  0  0  0
  4 23  2  0  0  0  0
  5 12  1  0  0  0  0
  5 13  1  0  0  0  0
  6 14  1  0  0  0  0
  6 31  1  0  0  0  0
  7 24  2  0  0  0  0
  7 25  1  0  0  0  0
  8 10  1  0  0  0  0
  8 16  1  0  0  0  0
  8 23  1  0  0  0  0
  9 15  1  0  0  0  0
  9 24  1  0  0  0  0
  9 26  1  0  0  0  0
 11 27  1  0  0  0  0
 12 17  1  0  0  0  0
 13 18  1  0  0  0  0
 14 15  1  0  0  0  0
 16 29  2  0  0  0  0
 17 28  1  0  0  0  0
 18 28  1  0  0  0  0
 19 20  1  0  0  0  0
 19 25  2  0  0  0  0
 20 30  2  0  0  0  0
 21 26  2  0  0  0  0
 21 30  1  0  0  0  0
 22 27  2  0  0  0  0
 22 29  1  0  0  0  0
 23 27  1  0  0  0  0
 24 28  1  0  0  0  0
 25 26  1  0  0  0  0
 29 30  1  0  0  0  0
 10 32  1  0  0  0  0
 10 33  1  0  0  0  0
 10 34  1  0  0  0  0
 11 35  1  0  0  0  0
 11 36  1  0  0  0  0
 11 37  1  0  0  0  0
 12 38  1  0  0  0  0
 12 39  1  0  0  0  0
 13 40  1  0  0  0  0
 13 41  1  0  0  0  0
 14 42  1  0  0  0  0
 14 43  1  0  0  0  0
 15 44  1  0  0  0  0
 15 45  1  0  0  0  0
 16 46  1  0  0  0  0
 17 47  1  0  0  0  0
 17 48  1  0  0  0  0
 18 49  1  0  0  0  0
 18 50  1  0  0  0  0
 19 51  1  0  0  0  0
 20 52  1  0  0  0  0
 21 53  1  0  0  0  0
 22 54  1  0  0  0  0
 28 55  1  0  0  0  0
M  END
> <pdb_id>
7WWZ

> <uniprot_id>
O60885

> <usmiles>
FC(F)(F)OCCN1c2c(N=C1C3CCOCC3)ccc(c2)C4=CN(C(=O)C(=C4)C)C

$$$$
7OY_A_1001
          07202411583D 1   1.00000     0.00000     0
            
 43 46  0  0  0  0            999 V2000
    9.9919    4.4686   15.6163 Cl  0  0  0  0  0  0  0  0  0  0  0  0
   10.0334    7.2236   16.1619 F   0  0  0  0  0  0  0  0  0  0  0  0
   11.6934    0.6688   20.9240 F   0  0  0  0  0  0  0  0  0  0  0  0
   13.1937    0.4957   22.5133 F   0  0  0  0  0  0  0  0  0  0  0  0
   10.8584    4.5890   21.6218 O   0  0  0  0  0  0  0  0  0  0  0  0
   12.8651    2.2793   16.3791 N   0  0  0  0  0  0  0  0  0  0  0  0
   14.0380    1.8748   14.4922 N   0  0  0  0  0  0  0  0  0  0  0  0
   16.0153    1.0418   15.5486 N   0  0  0  0  0  0  0  0  0  0  0  0
   14.0767    1.7876   16.6813 N   0  0  0  0  0  0  0  0  0  0  0  0
   12.5549    3.4634   20.5559 N   0  0  0  0  0  0  0  0  0  0  0  0
   17.9174    0.2368   16.7756 C   0  0  0  0  0  0  0  0  0  0  0  0
   12.8806    2.3259   15.0502 C   0  0  0  0  0  0  0  0  0  0  0  0
   13.4269    3.2949   19.4038 C   0  0  0  0  0  0  0  0  0  0  0  0
   12.7508    2.6319   21.7203 C   0  0  0  0  0  0  0  0  0  0  0  0
   10.7164    7.1633   18.4055 C   0  0  0  0  0  0  0  0  0  0  0  0
   11.0774    6.4244   19.5069 C   0  0  0  0  0  0  0  0  0  0  0  0
   10.7935    4.3794   18.2331 C   0  0  0  0  0  0  0  0  0  0  0  0
   15.8344    1.0261   17.9959 C   0  0  0  0  0  0  0  0  0  0  0  0
   13.9484    0.9528   20.3054 C   0  0  0  0  0  0  0  0  0  0  0  0
   14.7704    1.5448   15.5294 C   0  0  0  0  0  0  0  0  0  0  0  0
   10.4261    5.1450   17.1453 C   0  0  0  0  0  0  0  0  0  0  0  0
   10.3931    6.5134   17.2433 C   0  0  0  0  0  0  0  0  0  0  0  0
   11.5048    4.3466   20.6149 C   0  0  0  0  0  0  0  0  0  0  0  0
   16.5255    0.7965   16.7138 C   0  0  0  0  0  0  0  0  0  0  0  0
   14.5943    1.5347   17.9228 C   0  0  0  0  0  0  0  0  0  0  0  0
   11.1158    5.0534   19.3967 C   0  0  0  0  0  0  0  0  0  0  0  0
   13.7154    1.8290   19.0997 C   0  0  2  0  0  0  0  0  0  0  0  0
   12.8892    1.1691   21.3684 C   0  0  0  0  0  0  0  0  0  0  0  0
   18.1789    0.0985   17.7308 H   0  0  0  0  0  0  0  0  0  0  0  0
   17.9467   -0.6379   16.2919 H   0  0  0  0  0  0  0  0  0  0  0  0
   18.5536    0.8772   16.3452 H   0  0  0  0  0  0  0  0  0  0  0  0
   12.1103    2.6625   14.5085 H   0  0  0  0  0  0  0  0  0  0  0  0
   14.2927    3.7610   19.5859 H   0  0  0  0  0  0  0  0  0  0  0  0
   12.9875    3.7075   18.6059 H   0  0  0  0  0  0  0  0  0  0  0  0
   11.9655    2.7425   22.3294 H   0  0  0  0  0  0  0  0  0  0  0  0
   13.5819    2.9289   22.1905 H   0  0  0  0  0  0  0  0  0  0  0  0
   10.6900    8.1619   18.4518 H   0  0  0  0  0  0  0  0  0  0  0  0
   11.3073    6.8738   20.3701 H   0  0  0  0  0  0  0  0  0  0  0  0
   10.8252    3.3812   18.1822 H   0  0  0  0  0  0  0  0  0  0  0  0
   16.2662    0.8142   18.8726 H   0  0  0  0  0  0  0  0  0  0  0  0
   14.8451    1.1666   20.6931 H   0  0  0  0  0  0  0  0  0  0  0  0
   13.9291   -0.0050   20.0187 H   0  0  0  0  0  0  0  0  0  0  0  0
   12.8252    1.5057   18.7785 H   0  0  0  0  0  0  0  0  0  0  0  0
  1 21  1  0  0  0  0
  2 22  1  0  0  0  0
  3 28  1  0  0  0  0
  4 28  1  0  0  0  0
  5 23  2  0  0  0  0
  6  9  1  0  0  0  0
  6 12  2  0  0  0  0
  7 12  1  0  0  0  0
  7 20  2  0  0  0  0
  8 20  1  0  0  0  0
  8 24  2  0  0  0  0
  9 20  1  0  0  0  0
  9 25  1  0  0  0  0
 10 13  1  0  0  0  0
 10 14  1  0  0  0  0
 10 23  1  0  0  0  0
 11 24  1  0  0  0  0
 13 27  1  0  0  0  0
 14 28  1  0  0  0  0
 15 16  2  0  0  0  0
 15 22  1  0  0  0  0
 16 26  1  0  0  0  0
 17 21  1  0  0  0  0
 17 26  2  0  0  0  0
 18 24  1  0  0  0  0
 18 25  2  0  0  0  0
 19 27  1  0  0  0  0
 19 28  1  0  0  0  0
 21 22  2  0  0  0  0
 23 26  1  0  0  0  0
 25 27  1  0  0  0  0
 11 29  1  0  0  0  0
 11 30  1  0  0  0  0
 11 31  1  0  0  0  0
 12 32  1  0  0  0  0
 13 33  1  0  0  0  0
 13 34  1  0  0  0  0
 14 35  1  0  0  0  0
 14 36  1  0  0  0  0
 15 37  1  0  0  0  0
 16 38  1  0  0  0  0
 17 39  1  0  0  0  0
 18 40  1  0  0  0  0
 19 41  1  0  0  0  0
 19 42  1  0  0  0  0
 27 43  1  0  0  0  0
M  END
> <pdb_id>
5TZX

> <uniprot_id>
O00408

> <usmiles>
Clc1c(F)ccc(c1)C(=O)N2CC(F)(F)C[C@H](C=3N4N=CN=C4N=C(C3)C)C2

$$$$
7PJ_A_301
          07202411363D 1   1.00000     0.00000     0
            
 23 24  0  0  0  0            999 V2000
   70.8696   -2.2628  103.6313 S   0  0  0  0  0  0  0  0  0  0  0  0
   69.7572   -2.9840   99.8901 O   0  0  0  0  0  0  0  0  0  0  0  0
   71.5316   -3.7649  101.0568 O   0  0  0  0  0  0  0  0  0  0  0  0
   74.3627    1.5581  101.0382 O   0  0  0  0  0  0  0  0  0  0  0  0
   77.0048    1.5499  104.8960 N   0  0  0  0  0  0  0  0  0  0  0  0
   73.1379   -1.1393  104.6073 N   0  0  0  0  0  0  0  0  0  0  0  0
   72.6336   -0.4612  102.5469 N   0  0  0  0  0  0  0  0  0  0  0  0
   75.6732    1.5298  102.9559 N   0  0  0  0  0  0  0  0  0  0  0  0
   75.1326    0.1879  104.8634 N   0  0  0  0  0  0  0  0  0  0  0  0
   70.0313   -2.0571  102.0189 C   0  0  0  0  0  0  0  0  0  0  0  0
   72.2890   -1.2419  103.6129 C   0  0  0  0  0  0  0  0  0  0  0  0
   70.5054   -3.0384  100.9106 C   0  0  0  0  0  0  0  0  0  0  0  0
   75.8895    1.0709  104.2016 C   0  0  0  0  0  0  0  0  0  0  0  0
   74.6051    1.0874  102.2833 C   0  0  0  0  0  0  0  0  0  0  0  0
   74.0669   -0.2435  104.1706 C   0  0  0  0  0  0  0  0  0  0  0  0
   73.7773    0.1905  102.9017 C   0  0  0  0  0  0  0  0  0  0  0  0
   68.9674   -2.3708   99.8813 H   0  0  0  0  0  0  0  0  0  0  0  0
   77.1924    1.2276  105.8239 H   0  0  0  0  0  0  0  0  0  0  0  0
   77.6147    2.2147  104.4647 H   0  0  0  0  0  0  0  0  0  0  0  0
   73.1097   -1.6122  105.4879 H   0  0  0  0  0  0  0  0  0  0  0  0
   76.2994    2.1896  102.5404 H   0  0  0  0  0  0  0  0  0  0  0  0
   70.1952   -1.1238  101.6995 H   0  0  0  0  0  0  0  0  0  0  0  0
   69.0506   -2.1945  102.1580 H   0  0  0  0  0  0  0  0  0  0  0  0
  1 10  1  0  0  0  0
  1 11  1  0  0  0  0
  2 12  1  0  0  0  0
  3 12  2  0  0  0  0
  4 14  2  0  0  0  0
  5 13  1  0  0  0  0
  6 11  1  0  0  0  0
  6 15  1  0  0  0  0
  7 11  2  0  0  0  0
  7 16  1  0  0  0  0
  8 13  1  0  0  0  0
  8 14  1  0  0  0  0
  9 13  2  0  0  0  0
  9 15  1  0  0  0  0
 10 12  1  0  0  0  0
 14 16  1  0  0  0  0
 15 16  2  0  0  0  0
  2 17  1  0  0  0  0
  5 18  1  0  0  0  0
  5 19  1  0  0  0  0
  6 20  1  0  0  0  0
  8 21  1  0  0  0  0
 10 22  1  0  0  0  0
 10 23  1  0  0  0  0
M  END
> <pdb_id>
5U0Y

> <uniprot_id>
P0AC14

> <usmiles>
S(C1=NC=2C(=O)NC(=NC2N1)N)CC(=O)O

$$$$
7PP_A_301
          07192420423D 1   1.00000     0.00000     0
            
 53 55  0  0  0  0            999 V2000
   65.9266   35.9740   21.6815 Cl  0  0  0  0  0  0  0  0  0  0  0  0
   69.8327   40.2161   20.7921 O   0  0  0  0  0  0  0  0  0  0  0  0
   71.9822   29.7728   24.2792 O   0  0  0  0  0  0  0  0  0  0  0  0
   65.0468   33.4682   25.4661 N   0  0  0  0  0  0  0  0  0  0  0  0
   72.6465   33.6350   25.6315 N   0  0  0  0  0  0  0  0  0  0  0  0
   65.8649   34.6633   23.6669 N   0  0  0  0  0  0  0  0  0  0  0  0
   67.3645   34.0012   25.2831 N   0  0  0  0  0  0  0  0  0  0  0  0
   69.6670   34.6732   24.8776 N   0  0  0  0  0  0  0  0  0  0  0  0
   72.0531   29.6001   22.9128 C   0  0  0  0  0  0  0  0  0  0  0  0
   74.7144   30.6596   24.4155 C   0  0  0  0  0  0  0  0  0  0  0  0
   69.7550   31.3221   25.0187 C   0  0  0  0  0  0  0  0  0  0  0  0
   68.0368   39.1834   19.7292 C   0  0  0  0  0  0  0  0  0  0  0  0
   69.8318   40.1903   18.4058 C   0  0  0  0  0  0  0  0  0  0  0  0
   69.9008   37.3137   20.8951 C   0  0  0  0  0  0  0  0  0  0  0  0
   69.6589   36.6561   21.8221 C   0  0  0  0  0  0  0  0  0  0  0  0
   73.6725   32.8365   25.2146 C   0  0  0  0  0  0  0  0  0  0  0  0
   70.2680   35.4116   23.8933 C   0  0  0  0  0  0  0  0  0  0  0  0
   70.3409   34.0924   25.9626 C   0  0  0  0  0  0  0  0  0  0  0  0
   70.2669   38.1372   19.6855 C   0  0  0  0  0  0  0  0  0  0  0  0
   66.8335   35.2842   23.0258 C   0  0  0  0  0  0  0  0  0  0  0  0
   66.1390   34.0755   24.8300 C   0  0  0  0  0  0  0  0  0  0  0  0
   72.1980   31.0704   24.6808 C   0  0  0  0  0  0  0  0  0  0  0  0
   68.3286   34.5880   24.6070 C   0  0  0  0  0  0  0  0  0  0  0  0
   71.4043   33.1480   25.5079 C   0  0  0  0  0  0  0  0  0  0  0  0
   73.5106   31.5283   24.7802 C   0  0  0  0  0  0  0  0  0  0  0  0
   69.3297   35.8267   23.0101 C   0  0  0  0  0  0  0  0  0  0  0  0
   71.1257   31.8637   25.0734 C   0  0  0  0  0  0  0  0  0  0  0  0
   68.0932   35.2848   23.4855 C   0  0  0  0  0  0  0  0  0  0  0  0
   69.5137   39.4420   19.6799 C   0  0  0  0  0  0  0  0  0  0  0  0
   70.6719   40.1888   20.9252 H   0  0  0  0  0  0  0  0  0  0  0  0
   65.1780   32.9075   26.1044 H   0  0  0  0  0  0  0  0  0  0  0  0
   64.2454   33.6568   25.2176 H   0  0  0  0  0  0  0  0  0  0  0  0
   71.2038   29.2653   22.5853 H   0  0  0  0  0  0  0  0  0  0  0  0
   72.7537   28.9624   22.7031 H   0  0  0  0  0  0  0  0  0  0  0  0
   72.2514   30.4496   22.4878 H   0  0  0  0  0  0  0  0  0  0  0  0
   74.5360   30.1750   23.5955 H   0  0  0  0  0  0  0  0  0  0  0  0
   74.8848   30.0278   25.1321 H   0  0  0  0  0  0  0  0  0  0  0  0
   75.4934   31.2244   24.2923 H   0  0  0  0  0  0  0  0  0  0  0  0
   69.7669   30.4267   24.6472 H   0  0  0  0  0  0  0  0  0  0  0  0
   69.3844   31.2943   25.9145 H   0  0  0  0  0  0  0  0  0  0  0  0
   69.2056   31.8942   24.4609 H   0  0  0  0  0  0  0  0  0  0  0  0
   67.5571   40.0020   19.5297 H   0  0  0  0  0  0  0  0  0  0  0  0
   67.7876   38.8789   20.6157 H   0  0  0  0  0  0  0  0  0  0  0  0
   67.8042   38.5050   19.0768 H   0  0  0  0  0  0  0  0  0  0  0  0
   69.1153   40.8123   18.2037 H   0  0  0  0  0  0  0  0  0  0  0  0
   69.9289   39.5610   17.6744 H   0  0  0  0  0  0  0  0  0  0  0  0
   70.6585   40.6829   18.5208 H   0  0  0  0  0  0  0  0  0  0  0  0
   74.5391   33.1652   25.2917 H   0  0  0  0  0  0  0  0  0  0  0  0
   71.1720   35.6265   23.8576 H   0  0  0  0  0  0  0  0  0  0  0  0
   69.7022   33.6128   26.5128 H   0  0  0  0  0  0  0  0  0  0  0  0
   70.7490   34.7949   26.4923 H   0  0  0  0  0  0  0  0  0  0  0  0
   70.0481   37.6374   18.8831 H   0  0  0  0  0  0  0  0  0  0  0  0
   71.2196   38.3183   19.6991 H   0  0  0  0  0  0  0  0  0  0  0  0
  1 20  1  0  0  0  0
  2 29  1  0  0  0  0
  2 30  1  0  0  0  0
  3  9  1  0  0  0  0
  3 22  1  0  0  0  0
  4 21  1  0  0  0  0
  4 31  1  0  0  0  0
  4 32  1  0  0  0  0
  5 16  2  0  0  0  0
  5 24  1  0  0  0  0
  6 20  1  0  0  0  0
  6 21  2  0  0  0  0
  7 21  1  0  0  0  0
  7 23  2  0  0  0  0
  8 17  1  0  0  0  0
  8 18  1  0  0  0  0
  8 23  1  0  0  0  0
  9 33  1  0  0  0  0
  9 34  1  0  0  0  0
  9 35  1  0  0  0  0
 10 25  1  0  0  0  0
 10 36  1  0  0  0  0
 10 37  1  0  0  0  0
 10 38  1  0  0  0  0
 11 27  1  0  0  0  0
 11 39  1  0  0  0  0
 11 40  1  0  0  0  0
 11 41  1  0  0  0  0
 12 29  1  0  0  0  0
 12 42  1  0  0  0  0
 12 43  1  0  0  0  0
 12 44  1  0  0  0  0
 13 29  1  0  0  0  0
 13 45  1  0  0  0  0
 13 46  1  0  0  0  0
 13 47  1  0  0  0  0
 14 15  3  0  0  0  0
 14 19  1  0  0  0  0
 15 26  1  0  0  0  0
 16 25  1  0  0  0  0
 16 48  1  0  0  0  0
 17 26  2  0  0  0  0
 17 49  1  0  0  0  0
 18 24  1  0  0  0  0
 18 50  1  0  0  0  0
 18 51  1  0  0  0  0
 19 29  1  0  0  0  0
 19 52  1  0  0  0  0
 19 53  1  0  0  0  0
 20 28  2  0  0  0  0
 22 25  2  0  0  0  0
 22 27  1  0  0  0  0
 23 28  1  0  0  0  0
 24 27  2  0  0  0  0
 26 28  1  0  0  0  0
M  END
> <pdb_id>
7S9H

> <uniprot_id>
P07900

> <usmiles>
Clc1nc(nc2N(C=C(C#CCC(O)(C)C)c12)Cc3ncc(c(OC)c3C)C)N

$$$$
7PV_A_301
          07202411363D 1   1.00000     0.00000     0
            
 38 40  0  0  0  0            999 V2000
   71.0050   -2.1680  104.0320 S   0  0  0  0  0  0  0  0  0  0  0  0
   66.5640    0.1170   97.3530 S   0  0  0  0  0  0  0  0  0  0  0  0
   67.4320    1.1330   96.7660 O   0  0  0  0  0  0  0  0  0  0  0  0
   66.8340   -1.0660   96.5050 O   0  0  0  0  0  0  0  0  0  0  0  0
   74.4870    1.5620  101.2460 O   0  0  0  0  0  0  0  0  0  0  0  0
   64.9710    0.6480   97.2930 N   0  0  0  0  0  0  0  0  0  0  0  0
   77.3810    1.7060  104.7920 N   0  0  0  0  0  0  0  0  0  0  0  0
   73.3760   -0.9980  104.7730 N   0  0  0  0  0  0  0  0  0  0  0  0
   75.8350    1.5910  102.9430 N   0  0  0  0  0  0  0  0  0  0  0  0
   72.7650   -0.3930  102.7950 N   0  0  0  0  0  0  0  0  0  0  0  0
   75.4640    0.3220  104.8830 N   0  0  0  0  0  0  0  0  0  0  0  0
   70.0870   -1.8300  102.5320 C   0  0  0  0  0  0  0  0  0  0  0  0
   67.3280   -1.7560   99.2890 C   0  0  0  0  0  0  0  0  0  0  0  0
   67.4720    0.5960   99.8950 C   0  0  0  0  0  0  0  0  0  0  0  0
   68.6370   -1.4750  102.8280 C   0  0  0  0  0  0  0  0  0  0  0  0
   67.7990   -2.1180  100.5410 C   0  0  0  0  0  0  0  0  0  0  0  0
   67.9460    0.2300  101.1350 C   0  0  0  0  0  0  0  0  0  0  0  0
   72.4660   -1.1340  103.8490 C   0  0  0  0  0  0  0  0  0  0  0  0
   67.1570   -0.3940   98.9790 C   0  0  0  0  0  0  0  0  0  0  0  0
   76.1890    1.1890  104.1820 C   0  0  0  0  0  0  0  0  0  0  0  0
   74.7490    1.1730  102.3490 C   0  0  0  0  0  0  0  0  0  0  0  0
   74.3190   -0.1550  104.3190 C   0  0  0  0  0  0  0  0  0  0  0  0
   68.0860   -1.1200  101.4700 C   0  0  0  0  0  0  0  0  0  0  0  0
   73.9330    0.2500  103.0540 C   0  0  0  0  0  0  0  0  0  0  0  0
   64.3730   -0.0457   97.6945 H   0  0  0  0  0  0  0  0  0  0  0  0
   64.8844    1.5010   97.8077 H   0  0  0  0  0  0  0  0  0  0  0  0
   77.6427    1.4078  105.7099 H   0  0  0  0  0  0  0  0  0  0  0  0
   77.9498    2.3644  104.2991 H   0  0  0  0  0  0  0  0  0  0  0  0
   73.3727   -1.4451  105.6675 H   0  0  0  0  0  0  0  0  0  0  0  0
   76.4282    2.2351  102.4600 H   0  0  0  0  0  0  0  0  0  0  0  0
   70.1094   -2.6417  101.9484 H   0  0  0  0  0  0  0  0  0  0  0  0
   70.5172   -1.0640  102.0543 H   0  0  0  0  0  0  0  0  0  0  0  0
   67.1111   -2.4578   98.6105 H   0  0  0  0  0  0  0  0  0  0  0  0
   67.3571    1.5611   99.6596 H   0  0  0  0  0  0  0  0  0  0  0  0
   68.5787   -0.6969  103.4534 H   0  0  0  0  0  0  0  0  0  0  0  0
   68.1496   -2.2551  103.2202 H   0  0  0  0  0  0  0  0  0  0  0  0
   67.9310   -3.0814  100.7743 H   0  0  0  0  0  0  0  0  0  0  0  0
   68.1918    0.9348  101.8005 H   0  0  0  0  0  0  0  0  0  0  0  0
  1 12  1  0  0  0  0
  1 18  1  0  0  0  0
  2  3  2  0  0  0  0
  2  4  2  0  0  0  0
  2  6  1  0  0  0  0
  2 19  1  0  0  0  0
  5 21  2  0  0  0  0
  7 20  1  0  0  0  0
  8 18  1  0  0  0  0
  8 22  1  0  0  0  0
  9 20  1  0  0  0  0
  9 21  1  0  0  0  0
 10 18  2  0  0  0  0
 10 24  1  0  0  0  0
 11 20  2  0  0  0  0
 11 22  1  0  0  0  0
 12 15  1  0  0  0  0
 13 16  2  0  0  0  0
 13 19  1  0  0  0  0
 14 17  1  0  0  0  0
 14 19  2  0  0  0  0
 15 23  1  0  0  0  0
 16 23  1  0  0  0  0
 17 23  2  0  0  0  0
 21 24  1  0  0  0  0
 22 24  2  0  0  0  0
  6 25  1  0  0  0  0
  6 26  1  0  0  0  0
  7 27  1  0  0  0  0
  7 28  1  0  0  0  0
  8 29  1  0  0  0  0
  9 30  1  0  0  0  0
 12 31  1  0  0  0  0
 12 32  1  0  0  0  0
 13 33  1  0  0  0  0
 14 34  1  0  0  0  0
 15 35  1  0  0  0  0
 15 36  1  0  0  0  0
 16 37  1  0  0  0  0
 17 38  1  0  0  0  0
M  END
> <pdb_id>
5U14

> <uniprot_id>
P0AC14

> <usmiles>
S(=O)(=O)(N)c1ccc(cc1)CCSC2=NC=3C(=O)NC(=NC3N2)N

$$$$
7Q1_A_303
          07192416293D 1   1.00000     0.00000     0
            
 20 21  0  0  0  0            999 V2000
   -6.2217    0.2241   18.0887 O   0  0  0  0  0  0  0  0  0  0  0  0
   -4.3504    0.2156   13.9529 O   0  0  0  0  0  0  0  0  0  0  0  0
   -4.5352    1.4884   17.1872 O   0  0  0  0  0  0  0  0  0  0  0  0
   -5.5706   -0.1493   15.8700 N   0  0  0  0  0  0  0  0  0  0  0  0
   -4.6234    5.4236   14.0342 C   0  0  0  0  0  0  0  0  0  0  0  0
   -3.3973    4.8176   13.9980 C   0  0  0  0  0  0  0  0  0  0  0  0
   -5.6512    4.7411   14.6310 C   0  0  0  0  0  0  0  0  0  0  0  0
   -3.1625    3.6051   14.6299 C   0  0  0  0  0  0  0  0  0  0  0  0
   -5.4774    3.5163   15.2867 C   0  0  0  0  0  0  0  0  0  0  0  0
   -5.5499    0.5102   17.1104 C   0  0  0  0  0  0  0  0  0  0  0  0
   -4.6115    0.5224   15.1161 C   0  0  0  0  0  0  0  0  0  0  0  0
   -3.9372    1.5809   15.9084 C   0  0  1  0  0  0  0  0  0  0  0  0
   -4.2055    2.9294   15.2737 C   0  0  0  0  0  0  0  0  0  0  0  0
   -6.1417   -0.9219   15.5928 H   0  0  0  0  0  0  0  0  0  0  0  0
   -4.7645    6.3315   13.6395 H   0  0  0  0  0  0  0  0  0  0  0  0
   -2.6501    5.2607   13.5027 H   0  0  0  0  0  0  0  0  0  0  0  0
   -6.5690    5.1367   14.5964 H   0  0  0  0  0  0  0  0  0  0  0  0
   -2.2431    3.2117   14.6254 H   0  0  0  0  0  0  0  0  0  0  0  0
   -6.2422    3.0715   15.7528 H   0  0  0  0  0  0  0  0  0  0  0  0
   -2.9541    1.4070   15.9652 H   0  0  0  0  0  0  0  0  0  0  0  0
  1 10  2  0  0  0  0
  2 11  2  0  0  0  0
  3 10  1  0  0  0  0
  3 12  1  0  0  0  0
  4 10  1  0  0  0  0
  4 11  1  0  0  0  0
  5  6  2  0  0  0  0
  5  7  1  0  0  0  0
  6  8  1  0  0  0  0
  7  9  2  0  0  0  0
  8 13  2  0  0  0  0
  9 13  1  0  0  0  0
 11 12  1  0  0  0  0
 12 13  1  0  0  0  0
  4 14  1  0  0  0  0
  5 15  1  0  0  0  0
  6 16  1  0  0  0  0
  7 17  1  0  0  0  0
  8 18  1  0  0  0  0
  9 19  1  0  0  0  0
 12 20  1  0  0  0  0
M  END
> <pdb_id>
5TXY

> <uniprot_id>
P00918

> <usmiles>
O=C1O[C@H](c2ccccc2)C(=O)N1

$$$$
7QS_A_302
          07192416293D 1   1.00000     0.00000     0
            
 20 21  0  0  0  0            999 V2000
   -5.5454    2.1240   17.6327 S   0  0  0  0  0  0  0  0  0  0  0  0
   -7.5212    0.5823   17.4982 O   0  0  0  0  0  0  0  0  0  0  0  0
   -4.1893    0.2318   14.5159 O   0  0  0  0  0  0  0  0  0  0  0  0
   -5.7770    0.0558   16.0965 N   0  0  0  0  0  0  0  0  0  0  0  0
   -4.4606    5.3521   13.6691 C   0  0  0  0  0  0  0  0  0  0  0  0
   -3.2659    4.8336   14.0889 C   0  0  0  0  0  0  0  0  0  0  0  0
   -5.5855    4.7265   14.0709 C   0  0  0  0  0  0  0  0  0  0  0  0
   -3.2372    3.7113   14.8974 C   0  0  0  0  0  0  0  0  0  0  0  0
   -5.5939    3.6191   14.8753 C   0  0  0  0  0  0  0  0  0  0  0  0
   -6.3924    0.7350   17.0463 C   0  0  0  0  0  0  0  0  0  0  0  0
   -4.7857    0.6320   15.5156 C   0  0  0  0  0  0  0  0  0  0  0  0
   -4.3332    1.8834   16.2486 C   0  0  1  0  0  0  0  0  0  0  0  0
   -4.3892    3.1056   15.3121 C   0  0  0  0  0  0  0  0  0  0  0  0
   -6.0688   -0.8657   15.8403 H   0  0  0  0  0  0  0  0  0  0  0  0
   -4.4980    6.1641   13.0866 H   0  0  0  0  0  0  0  0  0  0  0  0
   -2.4094    5.2680   13.8100 H   0  0  0  0  0  0  0  0  0  0  0  0
   -6.4639    5.0926   13.7635 H   0  0  0  0  0  0  0  0  0  0  0  0
   -2.3557    3.3361   15.1839 H   0  0  0  0  0  0  0  0  0  0  0  0
   -6.4569    3.1899   15.1418 H   0  0  0  0  0  0  0  0  0  0  0  0
   -3.4089    1.7620   16.6103 H   0  0  0  0  0  0  0  0  0  0  0  0
  1 10  1  0  0  0  0
  1 12  1  0  0  0  0
  2 10  2  0  0  0  0
  3 11  2  0  0  0  0
  4 10  1  0  0  0  0
  4 11  1  0  0  0  0
  5  6  2  0  0  0  0
  5  7  1  0  0  0  0
  6  8  1  0  0  0  0
  7  9  2  0  0  0  0
  8 13  2  0  0  0  0
  9 13  1  0  0  0  0
 11 12  1  0  0  0  0
 12 13  1  0  0  0  0
  4 14  1  0  0  0  0
  5 15  1  0  0  0  0
  6 16  1  0  0  0  0
  7 17  1  0  0  0  0
  8 18  1  0  0  0  0
  9 19  1  0  0  0  0
 12 20  1  0  0  0  0
M  END
> <pdb_id>
5TYA

> <uniprot_id>
P00918

> <usmiles>
S1C(=O)NC(=O)[C@H]1c2ccccc2

$$$$
7QV_A_302
          07192416293D 1   1.00000     0.00000     0
            
 28 29  0  0  0  0            999 V2000
   -6.1026    0.1414   18.1237 O   0  0  0  0  0  0  0  0  0  0  0  0
   -4.3879    0.1958   13.9191 O   0  0  0  0  0  0  0  0  0  0  0  0
   -4.5128    6.6322   13.6241 O   0  0  0  0  0  0  0  0  0  0  0  0
   -6.4058    2.7466   15.6050 O   0  0  0  0  0  0  0  0  0  0  0  0
   -4.4323    1.3308   17.2134 O   0  0  0  0  0  0  0  0  0  0  0  0
   -5.4648   -0.2281   15.9288 N   0  0  0  0  0  0  0  0  0  0  0  0
   -3.3647    7.2711   13.0842 C   0  0  0  0  0  0  0  0  0  0  0  0
   -6.9647    3.3183   16.8307 C   0  0  0  0  0  0  0  0  0  0  0  0
   -3.0006    4.7801   14.3004 C   0  0  0  0  0  0  0  0  0  0  0  0
   -2.9450    3.5476   14.8728 C   0  0  0  0  0  0  0  0  0  0  0  0
   -5.3519    4.6993   14.6408 C   0  0  0  0  0  0  0  0  0  0  0  0
   -5.4179    0.3875   17.1388 C   0  0  0  0  0  0  0  0  0  0  0  0
   -4.5832    0.4123   15.1264 C   0  0  0  0  0  0  0  0  0  0  0  0
   -4.2522    5.3836   14.2099 C   0  0  0  0  0  0  0  0  0  0  0  0
   -5.2982    3.4549   15.1832 C   0  0  0  0  0  0  0  0  0  0  0  0
   -3.8625    1.4783   15.9039 C   0  0  1  0  0  0  0  0  0  0  0  0
   -4.0418    2.8572   15.3307 C   0  0  0  0  0  0  0  0  0  0  0  0
   -6.0410   -1.0063   15.6787 H   0  0  0  0  0  0  0  0  0  0  0  0
   -3.6283    8.1501   12.6868 H   0  0  0  0  0  0  0  0  0  0  0  0
   -2.6942    7.4214   13.8107 H   0  0  0  0  0  0  0  0  0  0  0  0
   -2.9634    6.6916   12.3749 H   0  0  0  0  0  0  0  0  0  0  0  0
   -7.7635    2.7868   17.1124 H   0  0  0  0  0  0  0  0  0  0  0  0
   -6.2754    3.2933   17.5547 H   0  0  0  0  0  0  0  0  0  0  0  0
   -7.2371    4.2657   16.6625 H   0  0  0  0  0  0  0  0  0  0  0  0
   -2.1774    5.2337   13.9590 H   0  0  0  0  0  0  0  0  0  0  0  0
   -2.0480    3.1157   14.9666 H   0  0  0  0  0  0  0  0  0  0  0  0
   -6.2461    5.1381   14.5524 H   0  0  0  0  0  0  0  0  0  0  0  0
   -2.8875    1.2592   15.9406 H   0  0  0  0  0  0  0  0  0  0  0  0
  1 12  2  0  0  0  0
  2 13  2  0  0  0  0
  3  7  1  0  0  0  0
  3 14  1  0  0  0  0
  4  8  1  0  0  0  0
  4 15  1  0  0  0  0
  5 12  1  0  0  0  0
  5 16  1  0  0  0  0
  6 12  1  0  0  0  0
  6 13  1  0  0  0  0
  9 10  2  0  0  0  0
  9 14  1  0  0  0  0
 10 17  1  0  0  0  0
 11 14  2  0  0  0  0
 11 15  1  0  0  0  0
 13 16  1  0  0  0  0
 15 17  2  0  0  0  0
 16 17  1  0  0  0  0
  6 18  1  0  0  0  0
  7 19  1  0  0  0  0
  7 20  1  0  0  0  0
  7 21  1  0  0  0  0
  8 22  1  0  0  0  0
  8 23  1  0  0  0  0
  8 24  1  0  0  0  0
  9 25  1  0  0  0  0
 10 26  1  0  0  0  0
 11 27  1  0  0  0  0
 16 28  1  0  0  0  0
M  END
> <pdb_id>
5TY1

> <uniprot_id>
P00918

> <usmiles>
O=C1O[C@H](c2c(OC)cc(OC)cc2)C(=O)N1

$$$$
7QY_A_302
          07192416293D 1   1.00000     0.00000     0
            
 31 32  0  0  0  0            999 V2000
   -4.8635    2.1112   16.9173 S   0  0  0  0  0  0  0  0  0  0  0  0
   -6.5452    0.4977   17.8154 O   0  0  0  0  0  0  0  0  0  0  0  0
   -4.4134   -0.1895   13.9675 O   0  0  0  0  0  0  0  0  0  0  0  0
   -2.9477    8.0001   15.3643 O   0  0  0  0  0  0  0  0  0  0  0  0
   -2.3041    3.6628   13.1487 O   0  0  0  0  0  0  0  0  0  0  0  0
   -5.5501   -0.1744   15.9175 N   0  0  0  0  0  0  0  0  0  0  0  0
   -1.6517    8.4225   14.8931 C   0  0  0  0  0  0  0  0  0  0  0  0
   -1.1428    4.2384   12.5164 C   0  0  0  0  0  0  0  0  0  0  0  0
   -4.5220    6.2412   15.4714 C   0  0  0  0  0  0  0  0  0  0  0  0
   -4.9909    4.9873   15.1742 C   0  0  0  0  0  0  0  0  0  0  0  0
   -2.5459    5.8471   14.2176 C   0  0  0  0  0  0  0  0  0  0  0  0
   -4.8378    2.7554   14.1610 C   0  0  0  0  0  0  0  0  0  0  0  0
   -5.7956    0.6609   16.8989 C   0  0  0  0  0  0  0  0  0  0  0  0
   -4.7561    0.3730   14.9855 C   0  0  0  0  0  0  0  0  0  0  0  0
   -4.2812    1.7870   15.2400 C   0  0  2  0  0  0  0  0  0  0  0  0
   -3.3051    6.6861   14.9982 C   0  0  0  0  0  0  0  0  0  0  0  0
   -3.0207    4.5611   13.9273 C   0  0  0  0  0  0  0  0  0  0  0  0
   -4.2446    4.1232   14.3996 C   0  0  0  0  0  0  0  0  0  0  0  0
   -5.9111   -1.1058   15.8700 H   0  0  0  0  0  0  0  0  0  0  0  0
   -1.4768    9.3599   15.1942 H   0  0  0  0  0  0  0  0  0  0  0  0
   -0.9483    7.8164   15.2644 H   0  0  0  0  0  0  0  0  0  0  0  0
   -1.6314    8.3840   13.8941 H   0  0  0  0  0  0  0  0  0  0  0  0
   -0.6771    3.5388   11.9745 H   0  0  0  0  0  0  0  0  0  0  0  0
   -1.4260    4.9890   11.9193 H   0  0  0  0  0  0  0  0  0  0  0  0
   -0.5200    4.5867   13.2171 H   0  0  0  0  0  0  0  0  0  0  0  0
   -5.0746    6.8467   16.0442 H   0  0  0  0  0  0  0  0  0  0  0  0
   -5.8822    4.6965   15.5221 H   0  0  0  0  0  0  0  0  0  0  0  0
   -1.6630    6.1516   13.8603 H   0  0  0  0  0  0  0  0  0  0  0  0
   -5.8343    2.8023   14.2306 H   0  0  0  0  0  0  0  0  0  0  0  0
   -4.5822    2.4302   13.2506 H   0  0  0  0  0  0  0  0  0  0  0  0
   -3.2816    1.8103   15.2243 H   0  0  0  0  0  0  0  0  0  0  0  0
  1 13  1  0  0  0  0
  1 15  1  0  0  0  0
  2 13  2  0  0  0  0
  3 14  2  0  0  0  0
  4  7  1  0  0  0  0
  4 16  1  0  0  0  0
  5  8  1  0  0  0  0
  5 17  1  0  0  0  0
  6 13  1  0  0  0  0
  6 14  1  0  0  0  0
  9 10  2  0  0  0  0
  9 16  1  0  0  0  0
 10 18  1  0  0  0  0
 11 16  2  0  0  0  0
 11 17  1  0  0  0  0
 12 15  1  0  0  0  0
 12 18  1  0  0  0  0
 14 15  1  0  0  0  0
 17 18  2  0  0  0  0
  6 19  1  0  0  0  0
  7 20  1  0  0  0  0
  7 21  1  0  0  0  0
  7 22  1  0  0  0  0
  8 23  1  0  0  0  0
  8 24  1  0  0  0  0
  8 25  1  0  0  0  0
  9 26  1  0  0  0  0
 10 27  1  0  0  0  0
 11 28  1  0  0  0  0
 12 29  1  0  0  0  0
 12 30  1  0  0  0  0
 15 31  1  0  0  0  0
M  END
> <pdb_id>
5U0G

> <uniprot_id>
P00918

> <usmiles>
S1C(=O)NC(=O)[C@H]1Cc2c(OC)cc(OC)cc2

$$$$
7R4_A_302
          07192416293D 1   1.00000     0.00000     0
            
 23 24  0  0  0  0            999 V2000
   -6.7173    0.9121   17.9662 S   0  0  0  0  0  0  0  0  0  0  0  0
   -4.6171    2.2805   16.5063 S   0  0  0  0  0  0  0  0  0  0  0  0
   -4.2612   -0.5229   13.9840 O   0  0  0  0  0  0  0  0  0  0  0  0
   -5.5040   -0.0393   15.7680 N   0  0  0  0  0  0  0  0  0  0  0  0
   -3.0875    6.5195   14.1456 C   0  0  0  0  0  0  0  0  0  0  0  0
   -4.3997    6.1460   14.2940 C   0  0  0  0  0  0  0  0  0  0  0  0
   -2.1685    5.5578   13.8473 C   0  0  0  0  0  0  0  0  0  0  0  0
   -4.8129    4.8397   14.1681 C   0  0  0  0  0  0  0  0  0  0  0  0
   -2.5927    4.2454   13.7174 C   0  0  0  0  0  0  0  0  0  0  0  0
   -4.3986    2.4561   13.7590 C   0  0  0  0  0  0  0  0  0  0  0  0
   -5.6731    0.9233   16.6884 C   0  0  0  0  0  0  0  0  0  0  0  0
   -3.9505    1.6394   14.9725 C   0  0  2  0  0  0  0  0  0  0  0  0
   -4.5784    0.2679   14.8556 C   0  0  0  0  0  0  0  0  0  0  0  0
   -3.9088    3.8628   13.8768 C   0  0  0  0  0  0  0  0  0  0  0  0
   -6.0177   -0.8973   15.7658 H   0  0  0  0  0  0  0  0  0  0  0  0
   -2.8120    7.4747   14.2537 H   0  0  0  0  0  0  0  0  0  0  0  0
   -5.0802    6.8488   14.5012 H   0  0  0  0  0  0  0  0  0  0  0  0
   -1.2050    5.7955   13.7244 H   0  0  0  0  0  0  0  0  0  0  0  0
   -5.7777    4.6070   14.2904 H   0  0  0  0  0  0  0  0  0  0  0  0
   -1.9147    3.5438   13.4982 H   0  0  0  0  0  0  0  0  0  0  0  0
   -5.3974    2.4566   13.7114 H   0  0  0  0  0  0  0  0  0  0  0  0
   -4.0254    2.0446   12.9275 H   0  0  0  0  0  0  0  0  0  0  0  0
   -2.9534    1.5752   15.0135 H   0  0  0  0  0  0  0  0  0  0  0  0
  1 11  2  0  0  0  0
  2 11  1  0  0  0  0
  2 12  1  0  0  0  0
  3 13  2  0  0  0  0
  4 11  1  0  0  0  0
  4 13  1  0  0  0  0
  5  6  2  0  0  0  0
  5  7  1  0  0  0  0
  6  8  1  0  0  0  0
  7  9  2  0  0  0  0
  8 14  2  0  0  0  0
  9 14  1  0  0  0  0
 10 12  1  0  0  0  0
 10 14  1  0  0  0  0
 12 13  1  0  0  0  0
  4 15  1  0  0  0  0
  5 16  1  0  0  0  0
  6 17  1  0  0  0  0
  7 18  1  0  0  0  0
  8 19  1  0  0  0  0
  9 20  1  0  0  0  0
 10 21  1  0  0  0  0
 10 22  1  0  0  0  0
 12 23  1  0  0  0  0
M  END
> <pdb_id>
5U0E

> <uniprot_id>
P00918

> <usmiles>
S=C1S[C@@H](C(=O)N1)Cc2ccccc2

$$$$
7R7_A_302
          07192416293D 1   1.00000     0.00000     0
            
 28 29  0  0  0  0            999 V2000
   -6.1555    0.6651   18.2529 S   0  0  0  0  0  0  0  0  0  0  0  0
   -4.2973    0.2564   13.7527 O   0  0  0  0  0  0  0  0  0  0  0  0
   -4.0721    6.8530   13.2332 O   0  0  0  0  0  0  0  0  0  0  0  0
   -6.0878    3.0908   15.2352 O   0  0  0  0  0  0  0  0  0  0  0  0
   -4.2409    1.6260   16.9132 O   0  0  0  0  0  0  0  0  0  0  0  0
   -5.3867    0.0635   15.7854 N   0  0  0  0  0  0  0  0  0  0  0  0
   -2.9012    7.4041   12.6100 C   0  0  0  0  0  0  0  0  0  0  0  0
   -6.7899    3.7329   16.3016 C   0  0  0  0  0  0  0  0  0  0  0  0
   -2.6522    4.9377   13.9545 C   0  0  0  0  0  0  0  0  0  0  0  0
   -2.6189    3.6776   14.5347 C   0  0  0  0  0  0  0  0  0  0  0  0
   -5.0140    4.9707   14.2384 C   0  0  0  0  0  0  0  0  0  0  0  0
   -5.2710    0.7563   16.8763 C   0  0  0  0  0  0  0  0  0  0  0  0
   -4.4841    0.5783   14.9278 C   0  0  0  0  0  0  0  0  0  0  0  0
   -3.8597    5.5837   13.8018 C   0  0  0  0  0  0  0  0  0  0  0  0
   -4.9527    3.7188   14.8246 C   0  0  0  0  0  0  0  0  0  0  0  0
   -3.6863    1.6611   15.6072 C   0  0  1  0  0  0  0  0  0  0  0  0
   -3.7610    3.0417   14.9764 C   0  0  0  0  0  0  0  0  0  0  0  0
   -6.0155   -0.6954   15.6162 H   0  0  0  0  0  0  0  0  0  0  0  0
   -3.1185    8.3022   12.2277 H   0  0  0  0  0  0  0  0  0  0  0  0
   -2.1745    7.4985   13.2905 H   0  0  0  0  0  0  0  0  0  0  0  0
   -2.5954    6.7953   11.8780 H   0  0  0  0  0  0  0  0  0  0  0  0
   -7.6046    3.2009   16.5323 H   0  0  0  0  0  0  0  0  0  0  0  0
   -6.1946    3.7952   17.1027 H   0  0  0  0  0  0  0  0  0  0  0  0
   -7.0617    4.6519   16.0161 H   0  0  0  0  0  0  0  0  0  0  0  0
   -1.8057    5.3739   13.6493 H   0  0  0  0  0  0  0  0  0  0  0  0
   -1.7381    3.2151   14.6360 H   0  0  0  0  0  0  0  0  0  0  0  0
   -5.8956    5.4304   14.1316 H   0  0  0  0  0  0  0  0  0  0  0  0
   -2.7285    1.3773   15.6539 H   0  0  0  0  0  0  0  0  0  0  0  0
  1 12  2  0  0  0  0
  2 13  2  0  0  0  0
  3  7  1  0  0  0  0
  3 14  1  0  0  0  0
  4  8  1  0  0  0  0
  4 15  1  0  0  0  0
  5 12  1  0  0  0  0
  5 16  1  0  0  0  0
  6 12  1  0  0  0  0
  6 13  1  0  0  0  0
  9 10  2  0  0  0  0
  9 14  1  0  0  0  0
 10 17  1  0  0  0  0
 11 14  2  0  0  0  0
 11 15  1  0  0  0  0
 13 16  1  0  0  0  0
 15 17  2  0  0  0  0
 16 17  1  0  0  0  0
  6 18  1  0  0  0  0
  7 19  1  0  0  0  0
  7 20  1  0  0  0  0
  7 21  1  0  0  0  0
  8 22  1  0  0  0  0
  8 23  1  0  0  0  0
  8 24  1  0  0  0  0
  9 25  1  0  0  0  0
 10 26  1  0  0  0  0
 11 27  1  0  0  0  0
 16 28  1  0  0  0  0
M  END
> <pdb_id>
5U0D

> <uniprot_id>
P00918

> <usmiles>
S=C1O[C@H](c2c(OC)cc(OC)cc2)C(=O)N1

$$$$
7T7_B_501
          07202407493D 1   1.00000     0.00000     0
            
 50 53  0  0  0  0            999 V2000
    8.4701   -7.9448   42.8251 O   0  0  0  0  0  0  0  0  0  0  0  0
    6.6235   -3.2535   47.2893 O   0  0  0  0  0  0  0  0  0  0  0  0
    9.3204   -2.3710   50.6111 O   0  0  0  0  0  0  0  0  0  0  0  0
    8.2089   -1.6848   47.0398 N   0  0  0  0  0  0  0  0  0  0  0  0
   10.2090   -6.4787   43.1269 N   0  0  0  0  0  0  0  0  0  0  0  0
   10.1907   -7.9716   41.3703 N   0  0  0  0  0  0  0  0  0  0  0  0
   10.1761   -1.2589   50.5168 C   0  0  0  0  0  0  0  0  0  0  0  0
    7.9976   -1.9555   50.2357 C   0  0  0  0  0  0  0  0  0  0  0  0
    7.5542   -0.7052   47.8994 C   0  0  0  0  0  0  0  0  0  0  0  0
   11.3137   -7.2231   40.8023 C   0  0  0  0  0  0  0  0  0  0  0  0
    9.5861   -8.8994   40.4078 C   0  0  0  0  0  0  0  0  0  0  0  0
   11.6944   -7.4988   36.9706 C   0  0  0  0  0  0  0  0  0  0  0  0
   10.6551   -8.3985   36.7405 C   0  0  0  0  0  0  0  0  0  0  0  0
    9.6962   -0.5160   49.2868 C   0  0  0  0  0  0  0  0  0  0  0  0
   10.3542   -4.4644   44.5237 C   0  0  0  0  0  0  0  0  0  0  0  0
    8.4099   -5.8704   44.6339 C   0  0  0  0  0  0  0  0  0  0  0  0
   11.9672   -7.0644   38.2641 C   0  0  0  0  0  0  0  0  0  0  0  0
    9.9004   -8.8750   37.8039 C   0  0  0  0  0  0  0  0  0  0  0  0
    9.7541   -3.5701   45.4002 C   0  0  0  0  0  0  0  0  0  0  0  0
    7.8229   -4.9871   45.5243 C   0  0  0  0  0  0  0  0  0  0  0  0
    9.5677   -7.5156   42.4939 C   0  0  0  0  0  0  0  0  0  0  0  0
    7.6948   -2.8935   46.8004 C   0  0  0  0  0  0  0  0  0  0  0  0
    9.6815   -5.6226   44.1291 C   0  0  0  0  0  0  0  0  0  0  0  0
    8.1709   -0.7415   49.2880 C   0  0  2  0  0  0  0  0  0  0  0  0
   11.2066   -7.5368   39.3335 C   0  0  0  0  0  0  0  0  0  0  0  0
   10.1812   -8.4526   39.1064 C   0  0  0  0  0  0  0  0  0  0  0  0
    8.4686   -3.8108   45.8980 C   0  0  0  0  0  0  0  0  0  0  0  0
    9.0792   -1.4410   46.6119 H   0  0  0  0  0  0  0  0  0  0  0  0
   11.1547   -6.3076   42.8506 H   0  0  0  0  0  0  0  0  0  0  0  0
   11.1257   -1.5518   50.4050 H   0  0  0  0  0  0  0  0  0  0  0  0
   10.0985   -0.6830   51.3306 H   0  0  0  0  0  0  0  0  0  0  0  0
    7.4758   -1.6894   51.0463 H   0  0  0  0  0  0  0  0  0  0  0  0
    7.5232   -2.6981   49.7629 H   0  0  0  0  0  0  0  0  0  0  0  0
    6.5796   -0.9194   47.9638 H   0  0  0  0  0  0  0  0  0  0  0  0
    7.6697    0.2082   47.5091 H   0  0  0  0  0  0  0  0  0  0  0  0
   12.1852   -7.5399   41.1766 H   0  0  0  0  0  0  0  0  0  0  0  0
   11.2157   -6.2422   40.9701 H   0  0  0  0  0  0  0  0  0  0  0  0
    8.5900   -8.8117   40.3984 H   0  0  0  0  0  0  0  0  0  0  0  0
    9.8354   -9.8458   40.6129 H   0  0  0  0  0  0  0  0  0  0  0  0
   12.2447   -7.1650   36.2052 H   0  0  0  0  0  0  0  0  0  0  0  0
   10.4529   -8.7010   35.8090 H   0  0  0  0  0  0  0  0  0  0  0  0
   10.1109   -0.8936   48.4589 H   0  0  0  0  0  0  0  0  0  0  0  0
    9.9118    0.4582   49.3532 H   0  0  0  0  0  0  0  0  0  0  0  0
   11.2722   -4.2782   44.1736 H   0  0  0  0  0  0  0  0  0  0  0  0
    7.9156   -6.6926   44.3518 H   0  0  0  0  0  0  0  0  0  0  0  0
   12.7086   -6.4134   38.4270 H   0  0  0  0  0  0  0  0  0  0  0  0
    9.1553   -9.5209   37.6379 H   0  0  0  0  0  0  0  0  0  0  0  0
   10.2459   -2.7451   45.6786 H   0  0  0  0  0  0  0  0  0  0  0  0
    6.9221   -5.1968   45.9046 H   0  0  0  0  0  0  0  0  0  0  0  0
    7.7828    0.0400   49.7765 H   0  0  0  0  0  0  0  0  0  0  0  0
  1 21  2  0  0  0  0
  2 22  2  0  0  0  0
  3  7  1  0  0  0  0
  3  8  1  0  0  0  0
  4  9  1  0  0  0  0
  4 22  1  0  0  0  0
  5 21  1  0  0  0  0
  5 23  1  0  0  0  0
  6 10  1  0  0  0  0
  6 11  1  0  0  0  0
  6 21  1  0  0  0  0
  7 14  1  0  0  0  0
  8 24  1  0  0  0  0
  9 24  1  0  0  0  0
 10 25  1  0  0  0  0
 11 26  1  0  0  0  0
 12 13  2  0  0  0  0
 12 17  1  0  0  0  0
 13 18  1  0  0  0  0
 14 24  1  0  0  0  0
 15 19  1  0  0  0  0
 15 23  2  0  0  0  0
 16 20  2  0  0  0  0
 16 23  1  0  0  0  0
 17 25  2  0  0  0  0
 18 26  2  0  0  0  0
 19 27  2  0  0  0  0
 20 27  1  0  0  0  0
 22 27  1  0  0  0  0
 25 26  1  0  0  0  0
  4 28  1  0  0  0  0
  5 29  1  0  0  0  0
  7 30  1  0  0  0  0
  7 31  1  0  0  0  0
  8 32  1  0  0  0  0
  8 33  1  0  0  0  0
  9 34  1  0  0  0  0
  9 35  1  0  0  0  0
 10 36  1  0  0  0  0
 10 37  1  0  0  0  0
 11 38  1  0  0  0  0
 11 39  1  0  0  0  0
 12 40  1  0  0  0  0
 13 41  1  0  0  0  0
 14 42  1  0  0  0  0
 14 43  1  0  0  0  0
 15 44  1  0  0  0  0
 16 45  1  0  0  0  0
 17 46  1  0  0  0  0
 18 47  1  0  0  0  0
 19 48  1  0  0  0  0
 20 49  1  0  0  0  0
 24 50  1  0  0  0  0
M  END
> <pdb_id>
5U2M

> <uniprot_id>
P43490

> <usmiles>
O=C(N1Cc2c(cccc2)C1)Nc3ccc(cc3)C(=O)NC[C@H]4COCC4

$$$$
7TD_B_502
          07202407423D 1   1.00000     0.00000     0
            
 44 44  0  0  0  0            999 V2000
   22.0712   -7.9685   -7.0094 O   0  0  0  0  0  0  0  0  0  0  0  0
   22.3288  -10.3271   -7.7172 O   0  0  0  0  0  0  0  0  0  0  0  0
   27.2501  -10.8730   -7.2104 O   0  0  0  0  0  0  0  0  0  0  0  0
   27.3645  -16.3866   -3.8917 O   0  0  0  0  0  0  0  0  0  0  0  0
   26.2128  -10.7304  -10.1536 N   0  0  0  0  0  0  0  0  0  0  0  0
   23.3652   -8.4113   -7.3576 N   0  0  0  0  0  0  0  0  0  0  0  0
   25.0620  -11.4231   -7.4000 N   0  0  0  0  0  0  0  0  0  0  0  0
   28.0147  -20.7689   -1.8719 C   0  0  0  0  0  0  0  0  0  0  0  0
   24.1021  -11.8651  -10.2069 C   0  0  0  0  0  0  0  0  0  0  0  0
   24.3226   -9.3985  -10.6444 C   0  0  0  0  0  0  0  0  0  0  0  0
   26.3912  -17.4153   -3.7025 C   0  0  0  0  0  0  0  0  0  0  0  0
   27.4737  -19.5887   -2.5532 C   0  0  0  0  0  0  0  0  0  0  0  0
   27.0097  -18.5951   -3.0767 C   0  0  0  0  0  0  0  0  0  0  0  0
   25.7190  -14.9881   -5.1328 C   0  0  0  0  0  0  0  0  0  0  0  0
   28.0879  -14.3694   -4.9133 C   0  0  0  0  0  0  0  0  0  0  0  0
   25.4786  -13.8162   -5.8950 C   0  0  0  0  0  0  0  0  0  0  0  0
   27.8443  -13.2010   -5.6853 C   0  0  0  0  0  0  0  0  0  0  0  0
   23.3744   -9.6846   -7.7120 C   0  0  0  0  0  0  0  0  0  0  0  0
   26.3117  -11.6462   -6.9538 C   0  0  0  0  0  0  0  0  0  0  0  0
   27.0372  -15.2900   -4.6605 C   0  0  0  0  0  0  0  0  0  0  0  0
   24.7147  -10.2662   -8.2155 C   0  0  2  0  0  0  0  0  0  0  0  0
   26.5353  -12.8976   -6.1509 C   0  0  0  0  0  0  0  0  0  0  0  0
   24.8126  -10.5680   -9.7622 C   0  0  0  0  0  0  0  0  0  0  0  0
   22.1080   -7.0038   -6.7485 H   0  0  0  0  0  0  0  0  0  0  0  0
   26.7292   -9.9156   -9.8901 H   0  0  0  0  0  0  0  0  0  0  0  0
   26.5966  -11.5314   -9.6942 H   0  0  0  0  0  0  0  0  0  0  0  0
   24.1790   -7.8304   -7.3383 H   0  0  0  0  0  0  0  0  0  0  0  0
   24.3434  -12.0768   -7.1627 H   0  0  0  0  0  0  0  0  0  0  0  0
   28.4606  -21.3644   -2.5402 H   0  0  0  0  0  0  0  0  0  0  0  0
   28.6817  -20.4807   -1.1849 H   0  0  0  0  0  0  0  0  0  0  0  0
   27.2707  -21.2666   -1.4260 H   0  0  0  0  0  0  0  0  0  0  0  0
   23.1332  -11.8142   -9.9648 H   0  0  0  0  0  0  0  0  0  0  0  0
   24.1930  -11.9723  -11.1970 H   0  0  0  0  0  0  0  0  0  0  0  0
   24.5199  -12.6486   -9.7470 H   0  0  0  0  0  0  0  0  0  0  0  0
   23.3608   -9.2109  -10.4451 H   0  0  0  0  0  0  0  0  0  0  0  0
   24.8683   -8.5833  -10.4505 H   0  0  0  0  0  0  0  0  0  0  0  0
   24.4214   -9.6442  -11.6087 H   0  0  0  0  0  0  0  0  0  0  0  0
   26.0088  -17.6748   -4.5893 H   0  0  0  0  0  0  0  0  0  0  0  0
   25.6605  -17.0735   -3.1116 H   0  0  0  0  0  0  0  0  0  0  0  0
   24.9627  -15.6081   -4.9236 H   0  0  0  0  0  0  0  0  0  0  0  0
   29.0021  -14.5434   -4.5473 H   0  0  0  0  0  0  0  0  0  0  0  0
   24.5631  -13.6346   -6.2539 H   0  0  0  0  0  0  0  0  0  0  0  0
   28.6017  -12.5855   -5.9034 H   0  0  0  0  0  0  0  0  0  0  0  0
   25.4085   -9.5723   -8.0232 H   0  0  0  0  0  0  0  0  0  0  0  0
  1  6  1  0  0  0  0
  2 18  2  0  0  0  0
  3 19  2  0  0  0  0
  4 11  1  0  0  0  0
  4 20  1  0  0  0  0
  5 23  1  0  0  0  0
  6 18  1  0  0  0  0
  7 19  1  0  0  0  0
  7 21  1  0  0  0  0
  8 12  1  0  0  0  0
  9 23  1  0  0  0  0
 10 23  1  0  0  0  0
 11 13  1  0  0  0  0
 12 13  3  0  0  0  0
 14 16  1  0  0  0  0
 14 20  2  0  0  0  0
 15 17  2  0  0  0  0
 15 20  1  0  0  0  0
 16 22  2  0  0  0  0
 17 22  1  0  0  0  0
 18 21  1  0  0  0  0
 19 22  1  0  0  0  0
 21 23  1  0  0  0  0
  1 24  1  0  0  0  0
  5 25  1  0  0  0  0
  5 26  1  0  0  0  0
  6 27  1  0  0  0  0
  7 28  1  0  0  0  0
  8 29  1  0  0  0  0
  8 30  1  0  0  0  0
  8 31  1  0  0  0  0
  9 32  1  0  0  0  0
  9 33  1  0  0  0  0
  9 34  1  0  0  0  0
 10 35  1  0  0  0  0
 10 36  1  0  0  0  0
 10 37  1  0  0  0  0
 11 38  1  0  0  0  0
 11 39  1  0  0  0  0
 14 40  1  0  0  0  0
 15 41  1  0  0  0  0
 16 42  1  0  0  0  0
 17 43  1  0  0  0  0
 21 44  1  0  0  0  0
M  END
> <pdb_id>
5U3B

> <uniprot_id>
P47205

> <usmiles>
O=C(N[C@H](C(=O)NO)C(N)(C)C)c1ccc(OCC#CC)cc1

$$$$
7U9_B_1101
          07202406393D 1   1.00000     0.00000     0
            
 35 37  0  0  0  0            999 V2000
    9.1668   -1.3932   -4.4820 O   0  0  0  0  0  0  0  0  0  0  0  0
    9.7710   -6.6775  -10.1417 O   0  0  0  0  0  0  0  0  0  0  0  0
   10.6373   -2.7255   -5.3998 N   0  0  0  0  0  0  0  0  0  0  0  0
   14.8426   -7.1501   -8.4134 N   0  0  0  0  0  0  0  0  0  0  0  0
    7.9858   -4.9057   -8.9183 N   0  0  0  0  0  0  0  0  0  0  0  0
    9.5166   -4.3741   -7.5498 N   0  0  0  0  0  0  0  0  0  0  0  0
   11.2200   -6.6081   -8.4621 N   0  0  0  0  0  0  0  0  0  0  0  0
   11.7918   -6.1896   -7.1122 C   0  0  0  0  0  0  0  0  0  0  0  0
   12.3009   -7.6362   -8.9937 C   0  0  0  0  0  0  0  0  0  0  0  0
    6.2355   -2.0017   -7.3971 C   0  0  0  0  0  0  0  0  0  0  0  0
   13.0511   -7.0003   -6.8443 C   0  0  0  0  0  0  0  0  0  0  0  0
    6.3990   -3.0869   -8.2724 C   0  0  0  0  0  0  0  0  0  0  0  0
    7.2520   -1.7016   -6.4649 C   0  0  0  0  0  0  0  0  0  0  0  0
    9.4413   -2.1347   -5.4299 C   0  0  0  0  0  0  0  0  0  0  0  0
   10.0344   -6.2499   -9.0064 C   0  0  0  0  0  0  0  0  0  0  0  0
    9.2142   -5.2529   -8.5004 C   0  0  0  0  0  0  0  0  0  0  0  0
   13.4371   -6.8220   -8.2684 C   0  0  1  0  0  0  0  0  0  0  0  0
    7.5466   -3.8155   -8.2085 C   0  0  0  0  0  0  0  0  0  0  0  0
    8.5277   -3.4939   -7.3088 C   0  0  0  0  0  0  0  0  0  0  0  0
    8.4465   -2.4521   -6.4385 C   0  0  0  0  0  0  0  0  0  0  0  0
   10.9119   -3.3366   -6.1422 H   0  0  0  0  0  0  0  0  0  0  0  0
   11.2591   -2.5571   -4.6349 H   0  0  0  0  0  0  0  0  0  0  0  0
   15.3912   -6.5126   -7.8725 H   0  0  0  0  0  0  0  0  0  0  0  0
   15.0020   -8.0833   -8.0915 H   0  0  0  0  0  0  0  0  0  0  0  0
    7.4695   -5.3707   -9.6375 H   0  0  0  0  0  0  0  0  0  0  0  0
   11.1195   -6.3646   -6.3930 H   0  0  0  0  0  0  0  0  0  0  0  0
   12.0160   -5.2152   -7.1291 H   0  0  0  0  0  0  0  0  0  0  0  0
   12.3874   -7.6584   -9.9897 H   0  0  0  0  0  0  0  0  0  0  0  0
   12.1826   -8.5672   -8.6485 H   0  0  0  0  0  0  0  0  0  0  0  0
    5.4053   -1.4455   -7.4338 H   0  0  0  0  0  0  0  0  0  0  0  0
   12.8813   -7.9495   -6.5793 H   0  0  0  0  0  0  0  0  0  0  0  0
   13.6807   -6.5794   -6.1912 H   0  0  0  0  0  0  0  0  0  0  0  0
    5.6844   -3.3206   -8.9316 H   0  0  0  0  0  0  0  0  0  0  0  0
    7.1244   -0.9504   -5.8173 H   0  0  0  0  0  0  0  0  0  0  0  0
   13.3205   -5.8564   -8.5007 H   0  0  0  0  0  0  0  0  0  0  0  0
  1 14  2  0  0  0  0
  2 15  2  0  0  0  0
  3 14  1  0  0  0  0
  4 17  1  0  0  0  0
  5 16  1  0  0  0  0
  5 18  1  0  0  0  0
  6 16  2  0  0  0  0
  6 19  1  0  0  0  0
  7  8  1  0  0  0  0
  7  9  1  0  0  0  0
  7 15  1  0  0  0  0
  8 11  1  0  0  0  0
  9 17  1  0  0  0  0
 10 12  2  0  0  0  0
 10 13  1  0  0  0  0
 11 17  1  0  0  0  0
 12 18  1  0  0  0  0
 13 20  2  0  0  0  0
 14 20  1  0  0  0  0
 15 16  1  0  0  0  0
 18 19  2  0  0  0  0
 19 20  1  0  0  0  0
  3 21  1  0  0  0  0
  3 22  1  0  0  0  0
  4 23  1  0  0  0  0
  4 24  1  0  0  0  0
  5 25  1  0  0  0  0
  8 26  1  0  0  0  0
  8 27  1  0  0  0  0
  9 28  1  0  0  0  0
  9 29  1  0  0  0  0
 10 30  1  0  0  0  0
 11 31  1  0  0  0  0
 11 32  1  0  0  0  0
 12 33  1  0  0  0  0
 13 34  1  0  0  0  0
 17 35  1  0  0  0  0
M  END
> <pdb_id>
5WS1

> <uniprot_id>
P09874

> <usmiles>
O=C(N1C[C@H](N)CC1)C2=Nc3c(N2)cccc3C(=O)N

$$$$
7UP_A_301
          07202413303D 1   1.00000     0.00000     0
            
 44 47  0  0  0  0            999 V2000
  -31.9582  -20.5719   -4.4243 N   0  0  0  0  0  0  0  0  0  0  0  0
  -32.0869  -20.4477   -2.0812 N   0  0  0  0  0  0  0  0  0  0  0  0
  -22.8198   -7.6078   -3.1701 N   0  0  0  0  0  0  0  0  0  0  0  0
  -25.8715  -14.5242   -2.7467 C   0  0  0  0  0  0  0  0  0  0  0  0
  -25.1319  -13.6018   -2.7988 C   0  0  0  0  0  0  0  0  0  0  0  0
  -26.9577  -16.3208   -1.4506 C   0  0  0  0  0  0  0  0  0  0  0  0
  -22.9921  -12.4311   -2.3888 C   0  0  0  0  0  0  0  0  0  0  0  0
  -27.9083  -17.3130   -1.3440 C   0  0  0  0  0  0  0  0  0  0  0  0
  -30.3891  -18.2842   -4.7023 C   0  0  0  0  0  0  0  0  0  0  0  0
  -22.2175  -11.2609   -2.5060 C   0  0  0  0  0  0  0  0  0  0  0  0
  -29.4002  -17.3290   -4.8391 C   0  0  0  0  0  0  0  0  0  0  0  0
  -27.5828  -15.9289   -3.8166 C   0  0  0  0  0  0  0  0  0  0  0  0
  -24.8477  -11.3208   -3.5061 C   0  0  0  0  0  0  0  0  0  0  0  0
  -29.7548  -18.6388   -2.3519 C   0  0  0  0  0  0  0  0  0  0  0  0
  -23.9331   -7.5999   -4.1518 C   0  0  0  0  0  0  0  0  0  0  0  0
  -21.9551   -8.8204   -3.2039 C   0  0  0  0  0  0  0  0  0  0  0  0
  -24.7627   -8.9160   -4.2220 C   0  0  0  0  0  0  0  0  0  0  0  0
  -31.6026  -20.0670   -3.3264 C   0  0  0  0  0  0  0  0  0  0  0  0
  -26.8014  -15.6070   -2.6965 C   0  0  0  0  0  0  0  0  0  0  0  0
  -24.3074  -12.4492   -2.8928 C   0  0  0  0  0  0  0  0  0  0  0  0
  -30.5696  -18.9578   -3.4211 C   0  0  0  0  0  0  0  0  0  0  0  0
  -28.5535  -16.9815   -3.7273 C   0  0  0  0  0  0  0  0  0  0  0  0
  -28.7307  -17.6569   -2.4783 C   0  0  0  0  0  0  0  0  0  0  0  0
  -22.7542  -10.1107   -3.1103 C   0  0  0  0  0  0  0  0  0  0  0  0
  -24.0985  -10.1395   -3.6178 C   0  0  0  0  0  0  0  0  0  0  0  0
  -32.6759  -21.2843   -4.3830 H   0  0  0  0  0  0  0  0  0  0  0  0
  -32.7557  -21.2062   -1.9978 H   0  0  0  0  0  0  0  0  0  0  0  0
  -31.8034  -20.0118   -1.2102 H   0  0  0  0  0  0  0  0  0  0  0  0
  -23.1815   -7.4742   -2.2310 H   0  0  0  0  0  0  0  0  0  0  0  0
  -26.3192  -16.0580   -0.6086 H   0  0  0  0  0  0  0  0  0  0  0  0
  -22.5774  -13.3185   -1.9130 H   0  0  0  0  0  0  0  0  0  0  0  0
  -28.0506  -17.8433   -0.4039 H   0  0  0  0  0  0  0  0  0  0  0  0
  -31.0434  -18.5191   -5.5403 H   0  0  0  0  0  0  0  0  0  0  0  0
  -21.1990  -11.2504   -2.1218 H   0  0  0  0  0  0  0  0  0  0  0  0
  -29.2561  -16.8225   -5.7922 H   0  0  0  0  0  0  0  0  0  0  0  0
  -27.4911  -15.3495   -4.7321 H   0  0  0  0  0  0  0  0  0  0  0  0
  -25.8604  -11.3689   -3.9019 H   0  0  0  0  0  0  0  0  0  0  0  0
  -29.8284  -19.1568   -1.3984 H   0  0  0  0  0  0  0  0  0  0  0  0
  -23.4981   -7.3893   -5.1274 H   0  0  0  0  0  0  0  0  0  0  0  0
  -24.6072   -6.7684   -3.9499 H   0  0  0  0  0  0  0  0  0  0  0  0
  -21.2574   -8.7673   -2.3687 H   0  0  0  0  0  0  0  0  0  0  0  0
  -21.3342   -8.7794   -4.0975 H   0  0  0  0  0  0  0  0  0  0  0  0
  -24.9775   -9.1481   -5.2624 H   0  0  0  0  0  0  0  0  0  0  0  0
  -25.7449   -8.7425   -3.7846 H   0  0  0  0  0  0  0  0  0  0  0  0
  1 18  2  0  0  0  0
  1 26  1  0  0  0  0
  2 18  1  0  0  0  0
  2 27  1  0  0  0  0
  2 28  1  0  0  0  0
  3 15  1  0  0  0  0
  3 16  1  0  0  0  0
  3 29  1  0  0  0  0
  4  5  3  0  0  0  0
  4 19  1  0  0  0  0
  5 20  1  0  0  0  0
  6  8  2  0  0  0  0
  6 19  1  0  0  0  0
  6 30  1  0  0  0  0
  7 10  1  0  0  0  0
  7 20  2  0  0  0  0
  7 31  1  0  0  0  0
  8 23  1  0  0  0  0
  8 32  1  0  0  0  0
  9 11  1  0  0  0  0
  9 21  2  0  0  0  0
  9 33  1  0  0  0  0
 10 24  2  0  0  0  0
 10 34  1  0  0  0  0
 11 22  2  0  0  0  0
 11 35  1  0  0  0  0
 12 19  2  0  0  0  0
 12 22  1  0  0  0  0
 12 36  1  0  0  0  0
 13 20  1  0  0  0  0
 13 25  2  0  0  0  0
 13 37  1  0  0  0  0
 14 21  1  0  0  0  0
 14 23  2  0  0  0  0
 14 38  1  0  0  0  0
 15 17  1  0  0  0  0
 15 39  1  0  0  0  0
 15 40  1  0  0  0  0
 16 24  1  0  0  0  0
 16 41  1  0  0  0  0
 16 42  1  0  0  0  0
 17 25  1  0  0  0  0
 17 43  1  0  0  0  0
 17 44  1  0  0  0  0
 18 21  1  0  0  0  0
 22 23  1  0  0  0  0
 24 25  1  0  0  0  0
M  END
> <pdb_id>
4FUE

> <uniprot_id>
P00749

> <usmiles>
N=C(N)c1cc2c(cc(C#Cc3cc4c(cc3)CNCC4)cc2)cc1

$$$$
7UU_A_201
          07212401333D 1   1.00000     0.00000     0
            
 44 46  0  0  0  0            999 V2000
  -16.7885  -22.9830  -14.9992 S   0  0  0  0  0  0  0  0  0  0  0  0
  -16.4799  -23.9459  -23.1582 O   0  0  0  0  0  0  0  0  0  0  0  0
  -16.9776  -26.0456  -15.8192 O   0  0  0  0  0  0  0  0  0  0  0  0
  -15.7319  -21.9094  -22.2438 O   0  0  0  0  0  0  0  0  0  0  0  0
  -13.1664  -23.9964  -19.5383 N   0  0  0  0  0  0  0  0  0  0  0  0
  -15.0507  -26.4283  -16.8821 N   0  0  0  0  0  0  0  0  0  0  0  0
  -15.3725  -27.8451  -16.8794 C   0  0  0  0  0  0  0  0  0  0  0  0
  -16.5253  -21.5623  -15.7755 C   0  0  0  0  0  0  0  0  0  0  0  0
  -12.9319  -25.4059  -19.7791 C   0  0  0  0  0  0  0  0  0  0  0  0
  -13.8129  -25.9828  -17.5022 C   0  0  0  0  0  0  0  0  0  0  0  0
  -13.9446  -26.2375  -19.0012 C   0  0  0  0  0  0  0  0  0  0  0  0
  -15.4626  -21.7794  -16.8355 C   0  0  0  0  0  0  0  0  0  0  0  0
  -14.2786  -19.0700  -20.4397 C   0  0  0  0  0  0  0  0  0  0  0  0
  -13.4314  -19.7148  -19.5302 C   0  0  0  0  0  0  0  0  0  0  0  0
  -15.3336  -23.2099  -17.1499 C   0  0  0  0  0  0  0  0  0  0  0  0
  -15.0426  -19.8108  -21.3369 C   0  0  0  0  0  0  0  0  0  0  0  0
  -13.3368  -21.1047  -19.5151 C   0  0  0  0  0  0  0  0  0  0  0  0
  -14.8150  -23.9632  -21.3398 C   0  0  0  0  0  0  0  0  0  0  0  0
  -15.6825  -23.2442  -22.2600 C   0  0  0  0  0  0  0  0  0  0  0  0
  -16.0158  -25.5288  -16.2768 C   0  0  0  0  0  0  0  0  0  0  0  0
  -15.8478  -24.0037  -16.1843 C   0  0  0  0  0  0  0  0  0  0  0  0
  -14.9465  -21.1810  -21.3328 C   0  0  0  0  0  0  0  0  0  0  0  0
  -14.0439  -23.2782  -20.4403 C   0  0  0  0  0  0  0  0  0  0  0  0
  -14.0886  -21.8434  -20.3991 C   0  0  0  0  0  0  0  0  0  0  0  0
  -12.7326  -23.5300  -18.7674 H   0  0  0  0  0  0  0  0  0  0  0  0
  -16.2489  -27.9870  -16.4192 H   0  0  0  0  0  0  0  0  0  0  0  0
  -15.4334  -28.1748  -17.8215 H   0  0  0  0  0  0  0  0  0  0  0  0
  -14.6566  -28.3486  -16.3957 H   0  0  0  0  0  0  0  0  0  0  0  0
  -16.2127  -20.8737  -15.1211 H   0  0  0  0  0  0  0  0  0  0  0  0
  -17.3726  -21.2520  -16.2065 H   0  0  0  0  0  0  0  0  0  0  0  0
  -12.0076  -25.6444  -19.4812 H   0  0  0  0  0  0  0  0  0  0  0  0
  -13.0266  -25.5961  -20.7563 H   0  0  0  0  0  0  0  0  0  0  0  0
  -13.0396  -26.4984  -17.1333 H   0  0  0  0  0  0  0  0  0  0  0  0
  -13.6753  -25.0072  -17.3308 H   0  0  0  0  0  0  0  0  0  0  0  0
  -13.7836  -27.2072  -19.1849 H   0  0  0  0  0  0  0  0  0  0  0  0
  -14.8677  -25.9912  -19.2964 H   0  0  0  0  0  0  0  0  0  0  0  0
  -14.5861  -21.4363  -16.4979 H   0  0  0  0  0  0  0  0  0  0  0  0
  -15.7183  -21.2820  -17.6645 H   0  0  0  0  0  0  0  0  0  0  0  0
  -14.3351  -18.0716  -20.4446 H   0  0  0  0  0  0  0  0  0  0  0  0
  -12.8900  -19.1736  -18.8868 H   0  0  0  0  0  0  0  0  0  0  0  0
  -14.9113  -23.5577  -17.9870 H   0  0  0  0  0  0  0  0  0  0  0  0
  -15.6558  -19.3498  -21.9784 H   0  0  0  0  0  0  0  0  0  0  0  0
  -12.7276  -21.5615  -18.8670 H   0  0  0  0  0  0  0  0  0  0  0  0
  -14.7821  -24.9623  -21.3646 H   0  0  0  0  0  0  0  0  0  0  0  0
  1  8  1  0  0  0  0
  1 21  1  0  0  0  0
  2 19  2  0  0  0  0
  3 20  2  0  0  0  0
  4 19  1  0  0  0  0
  4 22  1  0  0  0  0
  5  9  1  0  0  0  0
  5 23  1  0  0  0  0
  6  7  1  0  0  0  0
  6 10  1  0  0  0  0
  6 20  1  0  0  0  0
  8 12  1  0  0  0  0
  9 11  1  0  0  0  0
 10 11  1  0  0  0  0
 12 15  1  0  0  0  0
 13 14  2  0  0  0  0
 13 16  1  0  0  0  0
 14 17  1  0  0  0  0
 15 21  2  0  0  0  0
 16 22  2  0  0  0  0
 17 24  2  0  0  0  0
 18 19  1  0  0  0  0
 18 23  2  0  0  0  0
 20 21  1  0  0  0  0
 22 24  1  0  0  0  0
 23 24  1  0  0  0  0
  5 25  1  0  0  0  0
  7 26  1  0  0  0  0
  7 27  1  0  0  0  0
  7 28  1  0  0  0  0
  8 29  1  0  0  0  0
  8 30  1  0  0  0  0
  9 31  1  0  0  0  0
  9 32  1  0  0  0  0
 10 33  1  0  0  0  0
 10 34  1  0  0  0  0
 11 35  1  0  0  0  0
 11 36  1  0  0  0  0
 12 37  1  0  0  0  0
 12 38  1  0  0  0  0
 13 39  1  0  0  0  0
 14 40  1  0  0  0  0
 15 41  1  0  0  0  0
 16 42  1  0  0  0  0
 17 43  1  0  0  0  0
 18 44  1  0  0  0  0
M  END
> <pdb_id>
5WUU

> <uniprot_id>
O60885

> <usmiles>
S1C(C(=O)N(CCCNC=2c3c(OC(=O)C2)cccc3)C)=CCC1

$$$$
7VF_A_901
          07192416553D 1   1.00000     0.00000     0
            
 32 34  0  0  0  0            999 V2000
  -14.6683   19.1264  -38.6780 O   0  0  0  0  0  0  0  0  0  0  0  0
   -8.0996   16.9221  -31.7912 O   0  0  0  0  0  0  0  0  0  0  0  0
  -13.5966   22.3958  -35.3495 N   0  0  0  0  0  0  0  0  0  0  0  0
   -9.9574   18.1403  -30.0593 C   0  0  0  0  0  0  0  0  0  0  0  0
  -12.8648   22.7137  -34.2756 C   0  0  0  0  0  0  0  0  0  0  0  0
  -13.1761   18.6114  -37.0217 C   0  0  0  0  0  0  0  0  0  0  0  0
   -8.9022   18.0686  -33.7553 C   0  0  0  0  0  0  0  0  0  0  0  0
  -11.9313   21.8399  -33.6575 C   0  0  0  0  0  0  0  0  0  0  0  0
   -9.8073   18.9817  -34.3128 C   0  0  0  0  0  0  0  0  0  0  0  0
  -12.4357   18.9446  -35.9190 C   0  0  0  0  0  0  0  0  0  0  0  0
  -14.1788   20.8238  -37.0644 C   0  0  0  0  0  0  0  0  0  0  0  0
  -10.8361   19.3432  -32.1370 C   0  0  0  0  0  0  0  0  0  0  0  0
  -14.0275   19.5562  -37.5805 C   0  0  0  0  0  0  0  0  0  0  0  0
   -8.9657   17.7609  -32.3745 C   0  0  0  0  0  0  0  0  0  0  0  0
  -13.4573   21.1844  -35.9336 C   0  0  0  0  0  0  0  0  0  0  0  0
   -9.9287   18.4558  -31.5321 C   0  0  0  0  0  0  0  0  0  0  0  0
  -10.7764   19.6065  -33.5170 C   0  0  0  0  0  0  0  0  0  0  0  0
  -12.5250   20.1996  -35.3456 C   0  0  0  0  0  0  0  0  0  0  0  0
  -11.7204   20.5712  -34.1617 C   0  0  0  0  0  0  0  0  0  0  0  0
  -15.3047   19.7327  -39.1551 H   0  0  0  0  0  0  0  0  0  0  0  0
   -8.1738   16.7273  -30.8132 H   0  0  0  0  0  0  0  0  0  0  0  0
   -9.2291   17.4901  -29.8434 H   0  0  0  0  0  0  0  0  0  0  0  0
   -9.8198   18.9810  -29.5356 H   0  0  0  0  0  0  0  0  0  0  0  0
  -10.8426   17.7405  -29.8213 H   0  0  0  0  0  0  0  0  0  0  0  0
  -12.9827   23.6257  -33.8827 H   0  0  0  0  0  0  0  0  0  0  0  0
  -13.1047   17.6972  -37.4207 H   0  0  0  0  0  0  0  0  0  0  0  0
   -8.2111   17.6340  -34.3328 H   0  0  0  0  0  0  0  0  0  0  0  0
  -11.4233   22.1450  -32.8519 H   0  0  0  0  0  0  0  0  0  0  0  0
   -9.7609   19.1897  -35.2898 H   0  0  0  0  0  0  0  0  0  0  0  0
  -11.8180   18.2666  -35.5204 H   0  0  0  0  0  0  0  0  0  0  0  0
  -14.8002   21.4763  -37.4981 H   0  0  0  0  0  0  0  0  0  0  0  0
  -11.5330   19.7931  -31.5785 H   0  0  0  0  0  0  0  0  0  0  0  0
  1 13  1  0  0  0  0
  2 14  1  0  0  0  0
  3  5  2  0  0  0  0
  3 15  1  0  0  0  0
  4 16  1  0  0  0  0
  5  8  1  0  0  0  0
  6 10  1  0  0  0  0
  6 13  2  0  0  0  0
  7  9  1  0  0  0  0
  7 14  2  0  0  0  0
  8 19  2  0  0  0  0
  9 17  2  0  0  0  0
 10 18  2  0  0  0  0
 11 13  1  0  0  0  0
 11 15  2  0  0  0  0
 12 16  2  0  0  0  0
 12 17  1  0  0  0  0
 14 16  1  0  0  0  0
 15 18  1  0  0  0  0
 17 19  1  0  0  0  0
 18 19  1  0  0  0  0
  1 20  1  0  0  0  0
  2 21  1  0  0  0  0
  4 22  1  0  0  0  0
  4 23  1  0  0  0  0
  4 24  1  0  0  0  0
  5 25  1  0  0  0  0
  6 26  1  0  0  0  0
  7 27  1  0  0  0  0
  8 28  1  0  0  0  0
  9 29  1  0  0  0  0
 10 30  1  0  0  0  0
 11 31  1  0  0  0  0
 12 32  1  0  0  0  0
M  END
> <pdb_id>
5WYZ

> <uniprot_id>
Q9NR97

> <usmiles>
Oc1c(cc(c2c3c(ncc2)cc(O)cc3)cc1)C

$$$$
7VM_D_502
          07202411373D 1   1.00000     0.00000     0
            
 68 71  0  0  0  0            999 V2000
    4.1480   17.1590   83.0350 O   0  0  0  0  0  0  0  0  0  0  0  0
    7.6070   21.6180   84.4380 O   0  0  0  0  0  0  0  0  0  0  0  0
   13.8100   17.5870   76.7470 N   0  0  0  0  0  0  0  0  0  0  0  0
    6.6840   21.8170   78.2260 N   0  0  0  0  0  0  0  0  0  0  0  0
   11.4770   20.5060   76.1910 N   0  0  0  0  0  0  0  0  0  0  0  0
    5.3480   17.8260   81.2570 N   0  0  0  0  0  0  0  0  0  0  0  0
   13.0230   16.3640   76.5970 C   0  0  0  0  0  0  0  0  0  0  0  0
    4.3710   17.2930   80.3190 C   0  0  0  0  0  0  0  0  0  0  0  0
   13.2780   18.8280   76.1670 C   0  0  0  0  0  0  0  0  0  0  0  0
    5.6060   21.5010   78.9690 C   0  0  0  0  0  0  0  0  0  0  0  0
   11.9230   19.2070   76.7140 C   0  0  0  0  0  0  0  0  0  0  0  0
   10.2290   20.4310   75.4040 C   0  0  0  0  0  0  0  0  0  0  0  0
   11.3980   21.5590   77.2160 C   0  0  0  0  0  0  0  0  0  0  0  0
    6.6380   18.2450   80.6600 C   0  0  0  0  0  0  0  0  0  0  0  0
    5.9160   24.1980   81.6450 C   0  0  0  0  0  0  0  0  0  0  0  0
    5.3750   24.1050   82.9130 C   0  0  0  0  0  0  0  0  0  0  0  0
    7.0010   23.4190   81.2990 C   0  0  0  0  0  0  0  0  0  0  0  0
    7.6480   18.0900   85.3520 C   0  0  0  0  0  0  0  0  0  0  0  0
    5.5230   20.3690   79.7630 C   0  0  0  0  0  0  0  0  0  0  0  0
    9.0120   20.2050   76.2920 C   0  0  0  0  0  0  0  0  0  0  0  0
   10.2120   21.3700   78.1420 C   0  0  0  0  0  0  0  0  0  0  0  0
    5.9210   23.2350   83.8470 C   0  0  0  0  0  0  0  0  0  0  0  0
    7.5830   22.5700   82.2270 C   0  0  0  0  0  0  0  0  0  0  0  0
    7.9590   19.4360   85.2990 C   0  0  0  0  0  0  0  0  0  0  0  0
    6.7320   17.5450   84.4730 C   0  0  0  0  0  0  0  0  0  0  0  0
    6.4000   19.7080   83.4760 C   0  0  0  0  0  0  0  0  0  0  0  0
    7.7130   19.8130   79.0360 C   0  0  0  0  0  0  0  0  0  0  0  0
    5.1090   17.7530   82.5790 C   0  0  0  0  0  0  0  0  0  0  0  0
    7.0400   22.4830   83.5030 C   0  0  0  0  0  0  0  0  0  0  0  0
    7.3210   20.2450   84.3700 C   0  0  0  0  0  0  0  0  0  0  0  0
    7.7210   20.9660   78.2650 C   0  0  0  0  0  0  0  0  0  0  0  0
    6.6010   19.4940   79.8060 C   0  0  0  0  0  0  0  0  0  0  0  0
    6.1040   18.3480   83.5240 C   0  0  0  0  0  0  0  0  0  0  0  0
    8.9000   21.2800   77.3730 C   0  0  0  0  0  0  0  0  0  0  0  0
   14.7012   17.4202   76.3251 H   0  0  0  0  0  0  0  0  0  0  0  0
   13.5015   15.6037   77.0363 H   0  0  0  0  0  0  0  0  0  0  0  0
   12.1288   16.4882   77.0271 H   0  0  0  0  0  0  0  0  0  0  0  0
   12.9004   16.1636   75.6250 H   0  0  0  0  0  0  0  0  0  0  0  0
    3.5390   17.0396   80.8124 H   0  0  0  0  0  0  0  0  0  0  0  0
    4.1535   17.9878   79.6335 H   0  0  0  0  0  0  0  0  0  0  0  0
    4.7493   16.4854   79.8666 H   0  0  0  0  0  0  0  0  0  0  0  0
   13.1990   18.7080   75.1774 H   0  0  0  0  0  0  0  0  0  0  0  0
   13.9187   19.5704   76.3626 H   0  0  0  0  0  0  0  0  0  0  0  0
    4.8203   22.1192   78.9461 H   0  0  0  0  0  0  0  0  0  0  0  0
   11.2592   18.5061   76.4530 H   0  0  0  0  0  0  0  0  0  0  0  0
   11.9778   19.2593   77.7111 H   0  0  0  0  0  0  0  0  0  0  0  0
   10.3009   19.6738   74.7548 H   0  0  0  0  0  0  0  0  0  0  0  0
   10.1098   21.2887   74.9039 H   0  0  0  0  0  0  0  0  0  0  0  0
   11.3132   22.4455   76.7610 H   0  0  0  0  0  0  0  0  0  0  0  0
   12.2370   21.5424   77.7599 H   0  0  0  0  0  0  0  0  0  0  0  0
    6.9688   17.4938   80.0888 H   0  0  0  0  0  0  0  0  0  0  0  0
    7.2831   18.4046   81.4072 H   0  0  0  0  0  0  0  0  0  0  0  0
    5.5212   24.8299   80.9781 H   0  0  0  0  0  0  0  0  0  0  0  0
    4.5858   24.6675   83.1593 H   0  0  0  0  0  0  0  0  0  0  0  0
    7.3704   23.4674   80.3710 H   0  0  0  0  0  0  0  0  0  0  0  0
    8.0900   17.5057   86.0326 H   0  0  0  0  0  0  0  0  0  0  0  0
    4.6985   20.1843   80.2978 H   0  0  0  0  0  0  0  0  0  0  0  0
    9.0916   19.3100   76.7308 H   0  0  0  0  0  0  0  0  0  0  0  0
    8.1881   20.2265   75.7257 H   0  0  0  0  0  0  0  0  0  0  0  0
   10.1657   22.1463   78.7707 H   0  0  0  0  0  0  0  0  0  0  0  0
   10.3399   20.5262   78.6631 H   0  0  0  0  0  0  0  0  0  0  0  0
    5.5146   23.1498   84.7567 H   0  0  0  0  0  0  0  0  0  0  0  0
    8.3851   22.0259   81.9809 H   0  0  0  0  0  0  0  0  0  0  0  0
    8.6371   19.8226   85.9241 H   0  0  0  0  0  0  0  0  0  0  0  0
    6.5188   16.5690   84.5184 H   0  0  0  0  0  0  0  0  0  0  0  0
    5.9526   20.2959   82.8021 H   0  0  0  0  0  0  0  0  0  0  0  0
    8.5101   19.2092   79.0378 H   0  0  0  0  0  0  0  0  0  0  0  0
    8.7338   22.1598   76.9277 H   0  0  0  0  0  0  0  0  0  0  0  0
  1 28  2  0  0  0  0
  2 29  1  0  0  0  0
  2 30  1  0  0  0  0
  3  7  1  0  0  0  0
  3  9  1  0  0  0  0
  4 10  2  0  0  0  0
  4 31  1  0  0  0  0
  5 11  1  0  0  0  0
  5 12  1  0  0  0  0
  5 13  1  0  0  0  0
  6  8  1  0  0  0  0
  6 14  1  0  0  0  0
  6 28  1  0  0  0  0
  9 11  1  0  0  0  0
 10 19  1  0  0  0  0
 12 20  1  0  0  0  0
 13 21  1  0  0  0  0
 14 32  1  0  0  0  0
 15 16  2  0  0  0  0
 15 17  1  0  0  0  0
 16 22  1  0  0  0  0
 17 23  2  0  0  0  0
 18 24  2  0  0  0  0
 18 25  1  0  0  0  0
 19 32  2  0  0  0  0
 20 34  1  0  0  0  0
 21 34  1  0  0  0  0
 22 29  2  0  0  0  0
 23 29  1  0  0  0  0
 24 30  1  0  0  0  0
 25 33  2  0  0  0  0
 26 30  2  0  0  0  0
 26 33  1  0  0  0  0
 27 31  2  0  0  0  0
 27 32  1  0  0  0  0
 28 33  1  0  0  0  0
 31 34  1  0  0  0  0
  3 35  1  0  0  0  0
  7 36  1  0  0  0  0
  7 37  1  0  0  0  0
  7 38  1  0  0  0  0
  8 39  1  0  0  0  0
  8 40  1  0  0  0  0
  8 41  1  0  0  0  0
  9 42  1  0  0  0  0
  9 43  1  0  0  0  0
 10 44  1  0  0  0  0
 11 45  1  0  0  0  0
 11 46  1  0  0  0  0
 12 47  1  0  0  0  0
 12 48  1  0  0  0  0
 13 49  1  0  0  0  0
 13 50  1  0  0  0  0
 14 51  1  0  0  0  0
 14 52  1  0  0  0  0
 15 53  1  0  0  0  0
 16 54  1  0  0  0  0
 17 55  1  0  0  0  0
 18 56  1  0  0  0  0
 19 57  1  0  0  0  0
 20 58  1  0  0  0  0
 20 59  1  0  0  0  0
 21 60  1  0  0  0  0
 21 61  1  0  0  0  0
 22 62  1  0  0  0  0
 23 63  1  0  0  0  0
 24 64  1  0  0  0  0
 25 65  1  0  0  0  0
 26 66  1  0  0  0  0
 27 67  1  0  0  0  0
 34 68  1  0  0  0  0
M  END
> <pdb_id>
5U4X

> <uniprot_id>
Q86X55

> <usmiles>
O=C(N(Cc1cc(ncc1)C2CCN(CCNC)CC2)C)c3cc(Oc4ccccc4)ccc3

$$$$
7VV_A_501
          07202414183D 1   1.00000     0.00000     0
            
 47 49  0  0  0  0            999 V2000
  -14.8141   25.8557  -19.5725 F   0  0  0  0  0  0  0  0  0  0  0  0
  -10.5039   26.4611  -23.0098 O   0  0  0  0  0  0  0  0  0  0  0  0
  -19.2476   25.7766  -21.4578 N   0  0  0  0  0  0  0  0  0  0  0  0
  -19.6299   25.0294  -23.5553 N   0  0  0  0  0  0  0  0  0  0  0  0
  -17.7185   24.6907  -22.8022 N   0  0  0  0  0  0  0  0  0  0  0  0
  -10.0608   25.4257  -23.8994 C   0  0  0  0  0  0  0  0  0  0  0  0
  -20.6891   23.0623  -25.7000 C   0  0  0  0  0  0  0  0  0  0  0  0
  -19.8562   25.2555  -26.7452 C   0  0  0  0  0  0  0  0  0  0  0  0
  -13.0160   27.1578  -20.3608 C   0  0  0  0  0  0  0  0  0  0  0  0
  -11.9209   27.3073  -21.2165 C   0  0  0  0  0  0  0  0  0  0  0  0
  -12.3914   25.1409  -22.1828 C   0  0  0  0  0  0  0  0  0  0  0  0
  -16.5670   24.7282  -21.8935 C   0  0  0  0  0  0  0  0  0  0  0  0
  -16.4715   23.5783  -24.6617 C   0  0  0  0  0  0  0  0  0  0  0  0
  -15.1897   23.8087  -23.8004 C   0  0  0  0  0  0  0  0  0  0  0  0
  -14.2762   23.6484  -21.3546 C   0  0  0  0  0  0  0  0  0  0  0  0
  -18.8828   25.2020  -22.5614 C   0  0  0  0  0  0  0  0  0  0  0  0
  -13.7821   25.9884  -20.4011 C   0  0  0  0  0  0  0  0  0  0  0  0
  -11.5761   26.2871  -22.1175 C   0  0  0  0  0  0  0  0  0  0  0  0
  -18.9077   24.3665  -24.6036 C   0  0  0  0  0  0  0  0  0  0  0  0
  -17.7047   24.1715  -24.0195 C   0  0  0  0  0  0  0  0  0  0  0  0
  -13.4914   24.9813  -21.3293 C   0  0  0  0  0  0  0  0  0  0  0  0
  -19.4592   23.9756  -25.9541 C   0  0  0  0  0  0  0  0  0  0  0  0
  -15.5320   23.6482  -22.2963 C   0  0  1  0  0  0  0  0  0  0  0  0
  -18.9984   26.7581  -21.2804 H   0  0  0  0  0  0  0  0  0  0  0  0
  -19.7728   25.2517  -20.7472 H   0  0  0  0  0  0  0  0  0  0  0  0
   -9.1134   25.7477  -24.3404 H   0  0  0  0  0  0  0  0  0  0  0  0
  -10.7849   25.2726  -24.7151 H   0  0  0  0  0  0  0  0  0  0  0  0
   -9.8931   24.4844  -23.3565 H   0  0  0  0  0  0  0  0  0  0  0  0
  -21.5242   23.6543  -25.2945 H   0  0  0  0  0  0  0  0  0  0  0  0
  -20.4316   22.2742  -24.9744 H   0  0  0  0  0  0  0  0  0  0  0  0
  -21.0175   22.5844  -26.6349 H   0  0  0  0  0  0  0  0  0  0  0  0
  -20.1661   26.0645  -26.0644 H   0  0  0  0  0  0  0  0  0  0  0  0
  -20.6959   25.0386  -27.4248 H   0  0  0  0  0  0  0  0  0  0  0  0
  -19.0045   25.6097  -27.3494 H   0  0  0  0  0  0  0  0  0  0  0  0
  -13.2720   27.9470  -19.6602 H   0  0  0  0  0  0  0  0  0  0  0  0
  -11.3600   28.2319  -21.1671 H   0  0  0  0  0  0  0  0  0  0  0  0
  -12.1474   24.3311  -22.8587 H   0  0  0  0  0  0  0  0  0  0  0  0
  -16.1320   25.7263  -21.9913 H   0  0  0  0  0  0  0  0  0  0  0  0
  -16.8755   24.5762  -20.8525 H   0  0  0  0  0  0  0  0  0  0  0  0
  -16.6501   22.5018  -24.7898 H   0  0  0  0  0  0  0  0  0  0  0  0
  -16.3165   24.0138  -25.6604 H   0  0  0  0  0  0  0  0  0  0  0  0
  -14.4232   23.0750  -24.0926 H   0  0  0  0  0  0  0  0  0  0  0  0
  -14.7940   24.8182  -23.9825 H   0  0  0  0  0  0  0  0  0  0  0  0
  -14.6125   23.4075  -20.3313 H   0  0  0  0  0  0  0  0  0  0  0  0
  -13.5898   22.8444  -21.6605 H   0  0  0  0  0  0  0  0  0  0  0  0
  -18.7082   23.4105  -26.5328 H   0  0  0  0  0  0  0  0  0  0  0  0
  -16.0171   22.6684  -22.1896 H   0  0  0  0  0  0  0  0  0  0  0  0
  1 17  1  0  0  0  0
  2  6  1  0  0  0  0
  2 18  1  0  0  0  0
  3 16  1  0  0  0  0
  3 24  1  0  0  0  0
  3 25  1  0  0  0  0
  4 16  2  0  0  0  0
  4 19  1  0  0  0  0
  5 12  1  0  0  0  0
  5 16  1  0  0  0  0
  5 20  1  0  0  0  0
  6 26  1  0  0  0  0
  6 27  1  0  0  0  0
  6 28  1  0  0  0  0
  7 22  1  0  0  0  0
  7 29  1  0  0  0  0
  7 30  1  0  0  0  0
  7 31  1  0  0  0  0
  8 22  1  0  0  0  0
  8 32  1  0  0  0  0
  8 33  1  0  0  0  0
  8 34  1  0  0  0  0
  9 10  2  0  0  0  0
  9 17  1  0  0  0  0
  9 35  1  0  0  0  0
 10 18  1  0  0  0  0
 10 36  1  0  0  0  0
 11 18  2  0  0  0  0
 11 21  1  0  0  0  0
 11 37  1  0  0  0  0
 12 23  1  0  0  0  0
 12 38  1  0  0  0  0
 12 39  1  0  0  0  0
 13 14  1  0  0  0  0
 13 20  1  0  0  0  0
 13 40  1  0  0  0  0
 13 41  1  0  0  0  0
 14 23  1  0  0  0  0
 14 42  1  0  0  0  0
 14 43  1  0  0  0  0
 15 21  1  0  0  0  0
 15 23  1  0  0  0  0
 15 44  1  0  0  0  0
 15 45  1  0  0  0  0
 17 21  2  0  0  0  0
 19 20  2  0  0  0  0
 19 22  1  0  0  0  0
 22 46  1  0  0  0  0
 23 47  1  0  0  0  0
M  END
> <pdb_id>
5U5H

> <uniprot_id>
O75530

> <usmiles>
Fc1c(cc(OC)cc1)C[C@H]2CN3C(=NC(=C3CC2)C(C)C)N

$$$$
7W7_B_503
          07202414183D 1   1.00000     0.00000     0
            
 38 40  0  0  0  0            999 V2000
  -10.2788   26.3285  -22.8824 O   0  0  0  0  0  0  0  0  0  0  0  0
  -11.4895   24.4354  -23.1396 O   0  0  0  0  0  0  0  0  0  0  0  0
  -18.7719   24.3469  -21.1805 N   0  0  0  0  0  0  0  0  0  0  0  0
  -19.5577   24.9043  -23.3403 N   0  0  0  0  0  0  0  0  0  0  0  0
  -17.5031   23.8093  -23.1665 N   0  0  0  0  0  0  0  0  0  0  0  0
  -10.3756   25.1422  -23.6913 C   0  0  0  0  0  0  0  0  0  0  0  0
  -17.3061   23.6406  -24.6248 C   0  0  0  0  0  0  0  0  0  0  0  0
  -15.9655   24.2638  -25.0486 C   0  0  0  0  0  0  0  0  0  0  0  0
  -12.8983   27.2533  -20.4758 C   0  0  0  0  0  0  0  0  0  0  0  0
  -16.4237   23.2911  -22.3258 C   0  0  0  0  0  0  0  0  0  0  0  0
  -11.7148   27.4264  -21.1986 C   0  0  0  0  0  0  0  0  0  0  0  0
  -14.8072   23.8731  -24.1146 C   0  0  0  0  0  0  0  0  0  0  0  0
  -13.6892   26.0940  -20.6319 C   0  0  0  0  0  0  0  0  0  0  0  0
  -14.0697   23.7882  -21.6685 C   0  0  0  0  0  0  0  0  0  0  0  0
  -18.5973   24.3561  -22.5995 C   0  0  0  0  0  0  0  0  0  0  0  0
  -11.3758   26.4034  -22.0807 C   0  0  0  0  0  0  0  0  0  0  0  0
  -12.1021   25.2535  -22.2115 C   0  0  0  0  0  0  0  0  0  0  0  0
  -15.1925   24.1080  -22.6464 C   0  0  2  0  0  0  0  0  0  0  0  0
  -13.2668   25.0530  -21.4968 C   0  0  0  0  0  0  0  0  0  0  0  0
  -18.0704   23.9434  -20.5931 H   0  0  0  0  0  0  0  0  0  0  0  0
  -19.5954   24.7441  -20.7755 H   0  0  0  0  0  0  0  0  0  0  0  0
  -19.4689   24.9281  -24.3361 H   0  0  0  0  0  0  0  0  0  0  0  0
   -9.5401   24.5969  -23.6235 H   0  0  0  0  0  0  0  0  0  0  0  0
  -10.5432   25.3777  -24.6486 H   0  0  0  0  0  0  0  0  0  0  0  0
  -18.0514   24.0931  -25.1144 H   0  0  0  0  0  0  0  0  0  0  0  0
  -17.3038   22.6659  -24.8483 H   0  0  0  0  0  0  0  0  0  0  0  0
  -16.0595   25.2593  -25.0425 H   0  0  0  0  0  0  0  0  0  0  0  0
  -15.7478   23.9551  -25.9745 H   0  0  0  0  0  0  0  0  0  0  0  0
  -13.1907   27.9640  -19.8359 H   0  0  0  0  0  0  0  0  0  0  0  0
  -16.2600   22.3262  -22.5311 H   0  0  0  0  0  0  0  0  0  0  0  0
  -16.6613   23.3907  -21.3596 H   0  0  0  0  0  0  0  0  0  0  0  0
  -11.1432   28.2396  -21.0886 H   0  0  0  0  0  0  0  0  0  0  0  0
  -14.0051   24.4276  -24.3364 H   0  0  0  0  0  0  0  0  0  0  0  0
  -14.5906   22.9058  -24.2467 H   0  0  0  0  0  0  0  0  0  0  0  0
  -14.5501   26.0069  -20.1307 H   0  0  0  0  0  0  0  0  0  0  0  0
  -13.4907   23.0602  -22.0356 H   0  0  0  0  0  0  0  0  0  0  0  0
  -14.4504   23.5003  -20.7898 H   0  0  0  0  0  0  0  0  0  0  0  0
  -15.4276   25.0741  -22.5403 H   0  0  0  0  0  0  0  0  0  0  0  0
  1  6  1  0  0  0  0
  1 16  1  0  0  0  0
  2  6  1  0  0  0  0
  2 17  1  0  0  0  0
  3 15  1  0  0  0  0
  4 15  2  0  0  0  0
  5  7  1  0  0  0  0
  5 10  1  0  0  0  0
  5 15  1  0  0  0  0
  7  8  1  0  0  0  0
  8 12  1  0  0  0  0
  9 11  2  0  0  0  0
  9 13  1  0  0  0  0
 10 18  1  0  0  0  0
 11 16  1  0  0  0  0
 12 18  1  0  0  0  0
 13 19  2  0  0  0  0
 14 18  1  0  0  0  0
 14 19  1  0  0  0  0
 16 17  2  0  0  0  0
 17 19  1  0  0  0  0
  3 20  1  0  0  0  0
  3 21  1  0  0  0  0
  4 22  1  0  0  0  0
  6 23  1  0  0  0  0
  6 24  1  0  0  0  0
  7 25  1  0  0  0  0
  7 26  1  0  0  0  0
  8 27  1  0  0  0  0
  8 28  1  0  0  0  0
  9 29  1  0  0  0  0
 10 30  1  0  0  0  0
 10 31  1  0  0  0  0
 11 32  1  0  0  0  0
 12 33  1  0  0  0  0
 12 34  1  0  0  0  0
 13 35  1  0  0  0  0
 14 36  1  0  0  0  0
 14 37  1  0  0  0  0
 18 38  1  0  0  0  0
M  END
> <pdb_id>
5U5T

> <uniprot_id>
O75530

> <usmiles>
O1c2c(OC1)cccc2C[C@@H]3CN(C(=N)N)CCC3

$$$$
7WD_B_501
          07202414183D 1   1.00000     0.00000     0
            
 37 40  0  0  0  0            999 V2000
  -10.3543   26.3766  -22.9548 O   0  0  0  0  0  0  0  0  0  0  0  0
  -11.4837   24.4423  -23.2822 O   0  0  0  0  0  0  0  0  0  0  0  0
  -19.1651   25.2407  -21.5675 N   0  0  0  0  0  0  0  0  0  0  0  0
  -19.4434   24.9186  -23.8943 N   0  0  0  0  0  0  0  0  0  0  0  0
  -17.4522   24.4092  -22.9467 N   0  0  0  0  0  0  0  0  0  0  0  0
  -10.3536   25.1860  -23.7669 C   0  0  0  0  0  0  0  0  0  0  0  0
  -18.5936   24.4843  -24.8655 C   0  0  0  0  0  0  0  0  0  0  0  0
  -16.3655   24.2680  -21.9558 C   0  0  0  0  0  0  0  0  0  0  0  0
  -12.8876   26.9707  -20.3493 C   0  0  0  0  0  0  0  0  0  0  0  0
  -11.7596   27.2679  -21.1258 C   0  0  0  0  0  0  0  0  0  0  0  0
  -16.0939   23.6968  -24.9479 C   0  0  0  0  0  0  0  0  0  0  0  0
  -13.5761   25.7548  -20.5132 C   0  0  0  0  0  0  0  0  0  0  0  0
  -14.8945   23.9158  -24.0081 C   0  0  0  0  0  0  0  0  0  0  0  0
  -13.9495   23.5089  -21.6548 C   0  0  0  0  0  0  0  0  0  0  0  0
  -18.6884   24.8774  -22.7806 C   0  0  0  0  0  0  0  0  0  0  0  0
  -11.3948   26.3202  -22.0790 C   0  0  0  0  0  0  0  0  0  0  0  0
  -12.0765   25.1429  -22.2607 C   0  0  0  0  0  0  0  0  0  0  0  0
  -17.3613   24.1832  -24.2687 C   0  0  0  0  0  0  0  0  0  0  0  0
  -15.1952   23.4811  -22.5607 C   0  0  1  0  0  0  0  0  0  0  0  0
  -13.1923   24.8213  -21.4993 C   0  0  0  0  0  0  0  0  0  0  0  0
  -18.5723   25.1960  -20.7634 H   0  0  0  0  0  0  0  0  0  0  0  0
  -20.1103   25.5540  -21.4751 H   0  0  0  0  0  0  0  0  0  0  0  0
   -9.5066   24.6694  -23.6417 H   0  0  0  0  0  0  0  0  0  0  0  0
  -10.4651   25.4140  -24.7342 H   0  0  0  0  0  0  0  0  0  0  0  0
  -18.8111   24.3954  -25.8375 H   0  0  0  0  0  0  0  0  0  0  0  0
  -16.7113   23.7812  -21.1536 H   0  0  0  0  0  0  0  0  0  0  0  0
  -16.0472   25.1759  -21.6832 H   0  0  0  0  0  0  0  0  0  0  0  0
  -13.2073   27.6314  -19.6701 H   0  0  0  0  0  0  0  0  0  0  0  0
  -11.2438   28.1156  -21.0020 H   0  0  0  0  0  0  0  0  0  0  0  0
  -16.1802   22.7228  -25.1574 H   0  0  0  0  0  0  0  0  0  0  0  0
  -15.9518   24.2087  -25.7952 H   0  0  0  0  0  0  0  0  0  0  0  0
  -14.3532   25.5479  -19.9187 H   0  0  0  0  0  0  0  0  0  0  0  0
  -14.6591   24.8877  -24.0091 H   0  0  0  0  0  0  0  0  0  0  0  0
  -14.1187   23.3846  -24.3483 H   0  0  0  0  0  0  0  0  0  0  0  0
  -13.3044   22.8375  -22.0195 H   0  0  0  0  0  0  0  0  0  0  0  0
  -14.2427   23.2274  -20.7412 H   0  0  0  0  0  0  0  0  0  0  0  0
  -15.4900   22.5266  -22.6073 H   0  0  0  0  0  0  0  0  0  0  0  0
  1  6  1  0  0  0  0
  1 16  1  0  0  0  0
  2  6  1  0  0  0  0
  2 17  1  0  0  0  0
  3 15  1  0  0  0  0
  4  7  1  0  0  0  0
  4 15  2  0  0  0  0
  5  8  1  0  0  0  0
  5 15  1  0  0  0  0
  5 18  1  0  0  0  0
  7 18  2  0  0  0  0
  8 19  1  0  0  0  0
  9 10  2  0  0  0  0
  9 12  1  0  0  0  0
 10 16  1  0  0  0  0
 11 13  1  0  0  0  0
 11 18  1  0  0  0  0
 12 20  2  0  0  0  0
 13 19  1  0  0  0  0
 14 19  1  0  0  0  0
 14 20  1  0  0  0  0
 16 17  2  0  0  0  0
 17 20  1  0  0  0  0
  3 21  1  0  0  0  0
  3 22  1  0  0  0  0
  6 23  1  0  0  0  0
  6 24  1  0  0  0  0
  7 25  1  0  0  0  0
  8 26  1  0  0  0  0
  8 27  1  0  0  0  0
  9 28  1  0  0  0  0
 10 29  1  0  0  0  0
 11 30  1  0  0  0  0
 11 31  1  0  0  0  0
 12 32  1  0  0  0  0
 13 33  1  0  0  0  0
 13 34  1  0  0  0  0
 14 35  1  0  0  0  0
 14 36  1  0  0  0  0
 19 37  1  0  0  0  0
M  END
> <pdb_id>
5U62

> <uniprot_id>
O75530

> <usmiles>
O1c2c(OC1)cccc2C[C@H]3CN4C(=NC=C4CC3)N

$$$$
7WN_A_3001
          07212404123D 1   1.00000     0.00000     0
            
 35 37  0  0  0  0            999 V2000
    7.9683    0.8718   -3.7320 Cl  0  0  0  0  0  0  0  0  0  0  0  0
    6.9835    3.6572   -4.3720 O   0  0  0  0  0  0  0  0  0  0  0  0
    5.4121    3.5138   -1.1875 N   0  0  0  0  0  0  0  0  0  0  0  0
    3.9328   -4.3349    2.1329 N   0  0  0  0  0  0  0  0  0  0  0  0
    6.8715    0.1608   -1.0554 N   0  0  0  0  0  0  0  0  0  0  0  0
    5.8265    3.9502   -2.3806 N   0  0  0  0  0  0  0  0  0  0  0  0
    5.4342    5.2770   -2.8475 C   0  0  0  0  0  0  0  0  0  0  0  0
    3.8383   -3.5287    3.3587 C   0  0  0  0  0  0  0  0  0  0  0  0
    5.6999    2.3249   -0.7101 C   0  0  0  0  0  0  0  0  0  0  0  0
    4.0975   -3.4925    0.9066 C   0  0  0  0  0  0  0  0  0  0  0  0
    5.0525   -2.6428    3.5654 C   0  0  0  0  0  0  0  0  0  0  0  0
    6.8240   -0.1596    1.3459 C   0  0  0  0  0  0  0  0  0  0  0  0
    6.4022   -0.8508    2.4613 C   0  0  0  0  0  0  0  0  0  0  0  0
    5.5343   -1.5980   -0.0321 C   0  0  0  0  0  0  0  0  0  0  0  0
    6.5590    3.1883   -3.1481 C   0  0  0  0  0  0  0  0  0  0  0  0
    6.9440    1.9204   -2.7285 C   0  0  0  0  0  0  0  0  0  0  0  0
    6.3971   -0.5309    0.1168 C   0  0  0  0  0  0  0  0  0  0  0  0
    6.5018    1.4847   -1.4702 C   0  0  0  0  0  0  0  0  0  0  0  0
    5.0751   -2.2999    1.1278 C   0  0  0  0  0  0  0  0  0  0  0  0
    5.4998   -1.9506    2.3249 C   0  0  0  0  0  0  0  0  0  0  0  0
    3.0978   -4.8772    2.0401 H   0  0  0  0  0  0  0  0  0  0  0  0
    7.5215   -0.3292   -1.6363 H   0  0  0  0  0  0  0  0  0  0  0  0
    5.8278    5.4420   -3.7519 H   0  0  0  0  0  0  0  0  0  0  0  0
    4.4371    5.3294   -2.9033 H   0  0  0  0  0  0  0  0  0  0  0  0
    5.7690    5.9682   -2.2071 H   0  0  0  0  0  0  0  0  0  0  0  0
    3.7534   -4.1446    4.1420 H   0  0  0  0  0  0  0  0  0  0  0  0
    3.0249   -2.9499    3.3002 H   0  0  0  0  0  0  0  0  0  0  0  0
    5.3498    2.0318    0.1796 H   0  0  0  0  0  0  0  0  0  0  0  0
    3.2033   -3.1296    0.6446 H   0  0  0  0  0  0  0  0  0  0  0  0
    4.4535   -4.0663    0.1690 H   0  0  0  0  0  0  0  0  0  0  0  0
    5.8050   -3.2099    3.9004 H   0  0  0  0  0  0  0  0  0  0  0  0
    4.8264   -1.9503    4.2505 H   0  0  0  0  0  0  0  0  0  0  0  0
    7.4461    0.6171    1.4452 H   0  0  0  0  0  0  0  0  0  0  0  0
    6.7282   -0.5823    3.3677 H   0  0  0  0  0  0  0  0  0  0  0  0
    5.2323   -1.8785   -0.9432 H   0  0  0  0  0  0  0  0  0  0  0  0
  1 16  1  0  0  0  0
  2 15  2  0  0  0  0
  3  6  1  0  0  0  0
  3  9  2  0  0  0  0
  4  8  1  0  0  0  0
  4 10  1  0  0  0  0
  5 17  1  0  0  0  0
  5 18  1  0  0  0  0
  6  7  1  0  0  0  0
  6 15  1  0  0  0  0
  8 11  1  0  0  0  0
  9 18  1  0  0  0  0
 10 19  1  0  0  0  0
 11 20  1  0  0  0  0
 12 13  2  0  0  0  0
 12 17  1  0  0  0  0
 13 20  1  0  0  0  0
 14 17  2  0  0  0  0
 14 19  1  0  0  0  0
 15 16  1  0  0  0  0
 16 18  2  0  0  0  0
 19 20  2  0  0  0  0
  4 21  1  0  0  0  0
  5 22  1  0  0  0  0
  7 23  1  0  0  0  0
  7 24  1  0  0  0  0
  7 25  1  0  0  0  0
  8 26  1  0  0  0  0
  8 27  1  0  0  0  0
  9 28  1  0  0  0  0
 10 29  1  0  0  0  0
 10 30  1  0  0  0  0
 11 31  1  0  0  0  0
 11 32  1  0  0  0  0
 12 33  1  0  0  0  0
 13 34  1  0  0  0  0
 14 35  1  0  0  0  0
M  END
> <pdb_id>
7RWO

> <uniprot_id>
Q12830

> <usmiles>
ClC=1C(=O)N(N=CC1Nc2cc3c(cc2)CCNC3)C

$$$$
7WZ_A_3101
          07212404123D 1   1.00000     0.00000     0
            
 31 32  0  0  0  0            999 V2000
    8.1375    1.0495   -3.5648 Cl  0  0  0  0  0  0  0  0  0  0  0  0
    7.0839    3.6825   -4.4251 O   0  0  0  0  0  0  0  0  0  0  0  0
    4.1849   -1.4502    4.5149 N   0  0  0  0  0  0  0  0  0  0  0  0
    5.3228    3.7036   -1.2871 N   0  0  0  0  0  0  0  0  0  0  0  0
    6.9616    0.3814   -0.7902 N   0  0  0  0  0  0  0  0  0  0  0  0
    5.8158    4.0416   -2.4777 N   0  0  0  0  0  0  0  0  0  0  0  0
    5.4208    5.3008   -3.0384 C   0  0  0  0  0  0  0  0  0  0  0  0
    5.6468   -1.3594    4.5306 C   0  0  0  0  0  0  0  0  0  0  0  0
    5.6552    2.5662   -0.7332 C   0  0  0  0  0  0  0  0  0  0  0  0
    6.4752   -1.3516    0.8354 C   0  0  0  0  0  0  0  0  0  0  0  0
    6.5427    0.9110    1.6378 C   0  0  0  0  0  0  0  0  0  0  0  0
    6.1595   -1.7799    2.1115 C   0  0  0  0  0  0  0  0  0  0  0  0
    6.2112    0.4861    2.9095 C   0  0  0  0  0  0  0  0  0  0  0  0
    6.6240    3.2818   -3.1651 C   0  0  0  0  0  0  0  0  0  0  0  0
    7.0156    2.0614   -2.6390 C   0  0  0  0  0  0  0  0  0  0  0  0
    6.6562   -0.0075    0.5837 C   0  0  0  0  0  0  0  0  0  0  0  0
    6.5365    1.6663   -1.3663 C   0  0  0  0  0  0  0  0  0  0  0  0
    6.0326   -0.8669    3.1404 C   0  0  0  0  0  0  0  0  0  0  0  0
    3.8612   -1.7706    5.4052 H   0  0  0  0  0  0  0  0  0  0  0  0
    3.7969   -0.5485    4.3240 H   0  0  0  0  0  0  0  0  0  0  0  0
    7.4814   -0.2522   -1.3633 H   0  0  0  0  0  0  0  0  0  0  0  0
    5.8628    5.4232   -3.9271 H   0  0  0  0  0  0  0  0  0  0  0  0
    4.4278    5.3170   -3.1550 H   0  0  0  0  0  0  0  0  0  0  0  0
    5.6965    6.0403   -2.4243 H   0  0  0  0  0  0  0  0  0  0  0  0
    6.0518   -2.2560    4.7097 H   0  0  0  0  0  0  0  0  0  0  0  0
    5.9503   -0.7111    5.2288 H   0  0  0  0  0  0  0  0  0  0  0  0
    5.2749    2.3293    0.1609 H   0  0  0  0  0  0  0  0  0  0  0  0
    6.5724   -2.0163    0.0947 H   0  0  0  0  0  0  0  0  0  0  0  0
    6.7034    1.8830    1.4668 H   0  0  0  0  0  0  0  0  0  0  0  0
    6.0226   -2.7543    2.2903 H   0  0  0  0  0  0  0  0  0  0  0  0
    6.1018    1.1464    3.6526 H   0  0  0  0  0  0  0  0  0  0  0  0
  1 15  1  0  0  0  0
  2 14  2  0  0  0  0
  3  8  1  0  0  0  0
  4  6  1  0  0  0  0
  4  9  2  0  0  0  0
  5 16  1  0  0  0  0
  5 17  1  0  0  0  0
  6  7  1  0  0  0  0
  6 14  1  0  0  0  0
  8 18  1  0  0  0  0
  9 17  1  0  0  0  0
 10 12  1  0  0  0  0
 10 16  2  0  0  0  0
 11 13  2  0  0  0  0
 11 16  1  0  0  0  0
 12 18  2  0  0  0  0
 13 18  1  0  0  0  0
 14 15  1  0  0  0  0
 15 17  2  0  0  0  0
  3 19  1  0  0  0  0
  3 20  1  0  0  0  0
  5 21  1  0  0  0  0
  7 22  1  0  0  0  0
  7 23  1  0  0  0  0
  7 24  1  0  0  0  0
  8 25  1  0  0  0  0
  8 26  1  0  0  0  0
  9 27  1  0  0  0  0
 10 28  1  0  0  0  0
 11 29  1  0  0  0  0
 12 30  1  0  0  0  0
 13 31  1  0  0  0  0
M  END
> <pdb_id>
7RWP

> <uniprot_id>
Q12830

> <usmiles>
ClC=1C(=O)N(N=CC1Nc2ccc(cc2)CN)C

$$$$
7X2_A_1888
          07192418133D 1   1.00000     0.00000     0
            
 49 52  0  0  0  0            999 V2000
    9.0323    3.2082    9.6244 Cl  0  0  0  0  0  0  0  0  0  0  0  0
   14.3897   12.1827   10.4728 O   0  0  0  0  0  0  0  0  0  0  0  0
   10.5286    9.6400    9.2296 O   0  0  0  0  0  0  0  0  0  0  0  0
   12.0353   12.0612    9.2985 O   0  0  0  0  0  0  0  0  0  0  0  0
    8.6721    2.0142   15.3665 O   0  0  0  0  0  0  0  0  0  0  0  0
    9.7432    3.9415   14.7321 O   0  0  0  0  0  0  0  0  0  0  0  0
   14.1226    5.3301   12.3883 N   0  0  0  0  0  0  0  0  0  0  0  0
   12.0409    6.1802   11.7804 N   0  0  0  0  0  0  0  0  0  0  0  0
   13.9999    7.5196   11.6831 N   0  0  0  0  0  0  0  0  0  0  0  0
   10.0924    4.8238   11.8690 N   0  0  0  0  0  0  0  0  0  0  0  0
   15.6533   12.2183   11.1322 C   0  0  0  0  0  0  0  0  0  0  0  0
   10.5899    8.8272    8.0662 C   0  0  0  0  0  0  0  0  0  0  0  0
   10.8122   12.4147    9.9403 C   0  0  0  0  0  0  0  0  0  0  0  0
    9.6935    2.9498   15.7777 C   0  0  0  0  0  0  0  0  0  0  0  0
   13.6302    4.1453   12.7064 C   0  0  0  0  0  0  0  0  0  0  0  0
   12.2883    3.9475   12.5329 C   0  0  0  0  0  0  0  0  0  0  0  0
    8.2518    1.5958   11.6658 C   0  0  0  0  0  0  0  0  0  0  0  0
    8.1164    1.2601   13.0256 C   0  0  0  0  0  0  0  0  0  0  0  0
   14.2428    9.8404   11.1092 C   0  0  0  0  0  0  0  0  0  0  0  0
   12.2597    8.5932   10.4476 C   0  0  0  0  0  0  0  0  0  0  0  0
   13.3549    6.3273   11.9417 C   0  0  0  0  0  0  0  0  0  0  0  0
   11.4704    4.9993   12.0535 C   0  0  0  0  0  0  0  0  0  0  0  0
    8.8764    2.7845   11.2948 C   0  0  0  0  0  0  0  0  0  0  0  0
   13.7388   10.9858   10.5181 C   0  0  0  0  0  0  0  0  0  0  0  0
   11.7543    9.7214    9.8437 C   0  0  0  0  0  0  0  0  0  0  0  0
    8.6583    2.1089   13.9927 C   0  0  0  0  0  0  0  0  0  0  0  0
   12.4922   10.9188    9.8854 C   0  0  0  0  0  0  0  0  0  0  0  0
    9.3062    3.2890   13.6133 C   0  0  0  0  0  0  0  0  0  0  0  0
   13.4822    8.6598   11.0838 C   0  0  0  0  0  0  0  0  0  0  0  0
    9.4212    3.6424   12.2579 C   0  0  0  0  0  0  0  0  0  0  0  0
   14.9589    7.5684   11.9621 H   0  0  0  0  0  0  0  0  0  0  0  0
    9.5648    5.5611   11.4470 H   0  0  0  0  0  0  0  0  0  0  0  0
   16.0497   13.1321   11.0441 H   0  0  0  0  0  0  0  0  0  0  0  0
   15.5303   12.0002   12.1004 H   0  0  0  0  0  0  0  0  0  0  0  0
   16.2662   11.5474   10.7147 H   0  0  0  0  0  0  0  0  0  0  0  0
    9.6860    8.7857    7.6406 H   0  0  0  0  0  0  0  0  0  0  0  0
   11.2450    9.2189    7.4201 H   0  0  0  0  0  0  0  0  0  0  0  0
   10.8819    7.9048    8.3191 H   0  0  0  0  0  0  0  0  0  0  0  0
   10.4505   13.2521    9.5304 H   0  0  0  0  0  0  0  0  0  0  0  0
   10.1496   11.6745    9.8259 H   0  0  0  0  0  0  0  0  0  0  0  0
   10.9785   12.5655   10.9147 H   0  0  0  0  0  0  0  0  0  0  0  0
   10.5764    2.4886   15.8654 H   0  0  0  0  0  0  0  0  0  0  0  0
    9.4502    3.3729   16.6505 H   0  0  0  0  0  0  0  0  0  0  0  0
   14.2186    3.4188   13.0614 H   0  0  0  0  0  0  0  0  0  0  0  0
   11.8837    3.0580   12.7451 H   0  0  0  0  0  0  0  0  0  0  0  0
    7.8982    0.9785   10.9629 H   0  0  0  0  0  0  0  0  0  0  0  0
    7.6383    0.4244   13.2958 H   0  0  0  0  0  0  0  0  0  0  0  0
   15.1402    9.8531   11.5503 H   0  0  0  0  0  0  0  0  0  0  0  0
   11.7469    7.7349   10.4257 H   0  0  0  0  0  0  0  0  0  0  0  0
  1 23  1  0  0  0  0
  2 11  1  0  0  0  0
  2 24  1  0  0  0  0
  3 12  1  0  0  0  0
  3 25  1  0  0  0  0
  4 13  1  0  0  0  0
  4 27  1  0  0  0  0
  5 14  1  0  0  0  0
  5 26  1  0  0  0  0
  6 14  1  0  0  0  0
  6 28  1  0  0  0  0
  7 15  2  0  0  0  0
  7 21  1  0  0  0  0
  8 21  2  0  0  0  0
  8 22  1  0  0  0  0
  9 21  1  0  0  0  0
  9 29  1  0  0  0  0
 10 22  1  0  0  0  0
 10 30  1  0  0  0  0
 15 16  1  0  0  0  0
 16 22  2  0  0  0  0
 17 18  2  0  0  0  0
 17 23  1  0  0  0  0
 18 26  1  0  0  0  0
 19 24  1  0  0  0  0
 19 29  2  0  0  0  0
 20 25  2  0  0  0  0
 20 29  1  0  0  0  0
 23 30  2  0  0  0  0
 24 27  2  0  0  0  0
 25 27  1  0  0  0  0
 26 28  2  0  0  0  0
 28 30  1  0  0  0  0
  9 31  1  0  0  0  0
 10 32  1  0  0  0  0
 11 33  1  0  0  0  0
 11 34  1  0  0  0  0
 11 35  1  0  0  0  0
 12 36  1  0  0  0  0
 12 37  1  0  0  0  0
 12 38  1  0  0  0  0
 13 39  1  0  0  0  0
 13 40  1  0  0  0  0
 13 41  1  0  0  0  0
 14 42  1  0  0  0  0
 14 43  1  0  0  0  0
 15 44  1  0  0  0  0
 16 45  1  0  0  0  0
 17 46  1  0  0  0  0
 18 47  1  0  0  0  0
 19 48  1  0  0  0  0
 20 49  1  0  0  0  0
M  END
> <pdb_id>
2VWW

> <uniprot_id>
P54760

> <usmiles>
Clc1c(Nc2nc(ncc2)Nc3cc(OC)c(OC)c(OC)c3)c4OCOc4cc1

$$$$
7X4_A_1889
          07192418133D 1   1.00000     0.00000     0
            
 42 45  0  0  0  0            999 V2000
    8.9521    3.4587    9.6221 Cl  0  0  0  0  0  0  0  0  0  0  0  0
   15.0294   12.5259   11.0767 S   0  0  0  0  0  0  0  0  0  0  0  0
   15.9094   12.2857   12.1789 O   0  0  0  0  0  0  0  0  0  0  0  0
   14.2798   13.7551   11.0118 O   0  0  0  0  0  0  0  0  0  0  0  0
    8.6990    2.0557   15.3415 O   0  0  0  0  0  0  0  0  0  0  0  0
    9.7946    3.9926   14.7443 O   0  0  0  0  0  0  0  0  0  0  0  0
   15.9210   12.3341    9.7012 N   0  0  0  0  0  0  0  0  0  0  0  0
   14.0699    5.4193   12.3157 N   0  0  0  0  0  0  0  0  0  0  0  0
   11.9813    6.2866   11.7761 N   0  0  0  0  0  0  0  0  0  0  0  0
   14.0109    7.5965   11.6093 N   0  0  0  0  0  0  0  0  0  0  0  0
   10.0394    4.9363   11.9292 N   0  0  0  0  0  0  0  0  0  0  0  0
    9.7508    2.9792   15.7809 C   0  0  0  0  0  0  0  0  0  0  0  0
   13.5812    4.2048   12.6414 C   0  0  0  0  0  0  0  0  0  0  0  0
   11.6211   10.3554   10.9692 C   0  0  0  0  0  0  0  0  0  0  0  0
   12.5085   11.4198   10.9373 C   0  0  0  0  0  0  0  0  0  0  0  0
    8.1658    1.7672   11.6948 C   0  0  0  0  0  0  0  0  0  0  0  0
   12.2308    4.0247   12.5016 C   0  0  0  0  0  0  0  0  0  0  0  0
    8.0337    1.3461   13.0320 C   0  0  0  0  0  0  0  0  0  0  0  0
   12.0922    9.0620   11.1934 C   0  0  0  0  0  0  0  0  0  0  0  0
   14.3489    9.9391   11.3343 C   0  0  0  0  0  0  0  0  0  0  0  0
    8.8121    2.9536   11.3078 C   0  0  0  0  0  0  0  0  0  0  0  0
   13.8690   11.2065   11.1062 C   0  0  0  0  0  0  0  0  0  0  0  0
   13.3123    6.4255   11.9019 C   0  0  0  0  0  0  0  0  0  0  0  0
    8.6337    2.1766   13.9895 C   0  0  0  0  0  0  0  0  0  0  0  0
    9.2958    3.3555   13.6333 C   0  0  0  0  0  0  0  0  0  0  0  0
   11.4223    5.1003   12.0575 C   0  0  0  0  0  0  0  0  0  0  0  0
   13.4594    8.8547   11.3695 C   0  0  0  0  0  0  0  0  0  0  0  0
    9.3751    3.7505   12.2904 C   0  0  0  0  0  0  0  0  0  0  0  0
   15.3405   12.4941    8.9028 H   0  0  0  0  0  0  0  0  0  0  0  0
   16.6771   12.9886    9.7001 H   0  0  0  0  0  0  0  0  0  0  0  0
   15.0076    7.5270   11.5672 H   0  0  0  0  0  0  0  0  0  0  0  0
    9.4995    5.6951   11.5648 H   0  0  0  0  0  0  0  0  0  0  0  0
   10.6295    2.5072   15.8520 H   0  0  0  0  0  0  0  0  0  0  0  0
    9.5185    3.3861   16.6643 H   0  0  0  0  0  0  0  0  0  0  0  0
   14.1765    3.4712   12.9692 H   0  0  0  0  0  0  0  0  0  0  0  0
   10.6435   10.5148   10.8316 H   0  0  0  0  0  0  0  0  0  0  0  0
   12.1658   12.3479   10.7914 H   0  0  0  0  0  0  0  0  0  0  0  0
    7.7769    1.1880   10.9784 H   0  0  0  0  0  0  0  0  0  0  0  0
   11.8175    3.1386   12.7118 H   0  0  0  0  0  0  0  0  0  0  0  0
    7.5446    0.5105   13.2821 H   0  0  0  0  0  0  0  0  0  0  0  0
   11.4559    8.2913   11.2274 H   0  0  0  0  0  0  0  0  0  0  0  0
   15.3278    9.7905   11.4745 H   0  0  0  0  0  0  0  0  0  0  0  0
  1 21  1  0  0  0  0
  2  3  2  0  0  0  0
  2  4  2  0  0  0  0
  2  7  1  0  0  0  0
  2 22  1  0  0  0  0
  5 12  1  0  0  0  0
  5 24  1  0  0  0  0
  6 12  1  0  0  0  0
  6 25  1  0  0  0  0
  8 13  2  0  0  0  0
  8 23  1  0  0  0  0
  9 23  2  0  0  0  0
  9 26  1  0  0  0  0
 10 23  1  0  0  0  0
 10 27  1  0  0  0  0
 11 26  1  0  0  0  0
 11 28  1  0  0  0  0
 13 17  1  0  0  0  0
 14 15  2  0  0  0  0
 14 19  1  0  0  0  0
 15 22  1  0  0  0  0
 16 18  2  0  0  0  0
 16 21  1  0  0  0  0
 17 26  2  0  0  0  0
 18 24  1  0  0  0  0
 19 27  2  0  0  0  0
 20 22  2  0  0  0  0
 20 27  1  0  0  0  0
 21 28  2  0  0  0  0
 24 25  2  0  0  0  0
 25 28  1  0  0  0  0
  7 29  1  0  0  0  0
  7 30  1  0  0  0  0
 10 31  1  0  0  0  0
 11 32  1  0  0  0  0
 12 33  1  0  0  0  0
 12 34  1  0  0  0  0
 13 35  1  0  0  0  0
 14 36  1  0  0  0  0
 15 37  1  0  0  0  0
 16 38  1  0  0  0  0
 17 39  1  0  0  0  0
 18 40  1  0  0  0  0
 19 41  1  0  0  0  0
 20 42  1  0  0  0  0
M  END
> <pdb_id>
2VWX

> <uniprot_id>
P54760

> <usmiles>
Clc1c(Nc2nc(ncc2)Nc3cc(S(=O)(=O)N)ccc3)c4OCOc4cc1

$$$$
7X8_A_1889
          07192418133D 1   1.00000     0.00000     0
            
 41 44  0  0  0  0            999 V2000
    8.9616    3.2897    9.7209 Cl  0  0  0  0  0  0  0  0  0  0  0  0
    9.1731    9.5874   10.8101 O   0  0  0  0  0  0  0  0  0  0  0  0
    8.6793    1.8887   15.3816 O   0  0  0  0  0  0  0  0  0  0  0  0
    9.8395    3.8939   14.7489 O   0  0  0  0  0  0  0  0  0  0  0  0
    9.7147   10.7306    8.8753 N   0  0  0  0  0  0  0  0  0  0  0  0
   14.1199    5.4308   12.3531 N   0  0  0  0  0  0  0  0  0  0  0  0
   11.9330    6.1940   11.8434 N   0  0  0  0  0  0  0  0  0  0  0  0
   13.9048    7.5918   11.6618 N   0  0  0  0  0  0  0  0  0  0  0  0
   10.0700    4.8051   11.9994 N   0  0  0  0  0  0  0  0  0  0  0  0
    9.6853    2.8678   15.7392 C   0  0  0  0  0  0  0  0  0  0  0  0
   13.6168    4.2200   12.6410 C   0  0  0  0  0  0  0  0  0  0  0  0
   13.5292   11.1168   10.6772 C   0  0  0  0  0  0  0  0  0  0  0  0
   12.2729    3.9415   12.5479 C   0  0  0  0  0  0  0  0  0  0  0  0
    8.1829    1.6342   11.7635 C   0  0  0  0  0  0  0  0  0  0  0  0
    8.0589    1.2525   13.0930 C   0  0  0  0  0  0  0  0  0  0  0  0
   14.0618    9.9255   11.1146 C   0  0  0  0  0  0  0  0  0  0  0  0
   12.1977   11.1701   10.3272 C   0  0  0  0  0  0  0  0  0  0  0  0
   11.9541    8.8250   10.8628 C   0  0  0  0  0  0  0  0  0  0  0  0
   10.0023   10.0911   10.0613 C   0  0  0  0  0  0  0  0  0  0  0  0
    8.8350    2.7962   11.3879 C   0  0  0  0  0  0  0  0  0  0  0  0
    8.6427    2.0796   14.0222 C   0  0  0  0  0  0  0  0  0  0  0  0
   13.2512    6.3738   11.9650 C   0  0  0  0  0  0  0  0  0  0  0  0
    9.3053    3.2219   13.6653 C   0  0  0  0  0  0  0  0  0  0  0  0
   11.4519    4.9863   12.1310 C   0  0  0  0  0  0  0  0  0  0  0  0
   13.2859    8.7776   11.2017 C   0  0  0  0  0  0  0  0  0  0  0  0
   11.4266   10.0312   10.4194 C   0  0  0  0  0  0  0  0  0  0  0  0
    9.4140    3.6177   12.3441 C   0  0  0  0  0  0  0  0  0  0  0  0
   10.4540   11.1150    8.3224 H   0  0  0  0  0  0  0  0  0  0  0  0
    8.7666   10.8102    8.5673 H   0  0  0  0  0  0  0  0  0  0  0  0
   14.8970    7.6165   11.7843 H   0  0  0  0  0  0  0  0  0  0  0  0
    9.5240    5.5623   11.6410 H   0  0  0  0  0  0  0  0  0  0  0  0
   10.5613    2.3990   15.8526 H   0  0  0  0  0  0  0  0  0  0  0  0
    9.4218    3.2954   16.6040 H   0  0  0  0  0  0  0  0  0  0  0  0
   14.2407    3.4953   12.9334 H   0  0  0  0  0  0  0  0  0  0  0  0
   14.1019   11.9341   10.6142 H   0  0  0  0  0  0  0  0  0  0  0  0
   11.9055    3.0378   12.7676 H   0  0  0  0  0  0  0  0  0  0  0  0
    7.7881    1.0504   11.0540 H   0  0  0  0  0  0  0  0  0  0  0  0
    7.5714    0.4211   13.3596 H   0  0  0  0  0  0  0  0  0  0  0  0
   15.0266    9.8860   11.3747 H   0  0  0  0  0  0  0  0  0  0  0  0
   11.7940   12.0278   10.0089 H   0  0  0  0  0  0  0  0  0  0  0  0
   11.3787    8.0102   10.9338 H   0  0  0  0  0  0  0  0  0  0  0  0
  1 20  1  0  0  0  0
  2 19  2  0  0  0  0
  3 10  1  0  0  0  0
  3 21  1  0  0  0  0
  4 10  1  0  0  0  0
  4 23  1  0  0  0  0
  5 19  1  0  0  0  0
  6 11  2  0  0  0  0
  6 22  1  0  0  0  0
  7 22  2  0  0  0  0
  7 24  1  0  0  0  0
  8 22  1  0  0  0  0
  8 25  1  0  0  0  0
  9 24  1  0  0  0  0
  9 27  1  0  0  0  0
 11 13  1  0  0  0  0
 12 16  1  0  0  0  0
 12 17  2  0  0  0  0
 13 24  2  0  0  0  0
 14 15  2  0  0  0  0
 14 20  1  0  0  0  0
 15 21  1  0  0  0  0
 16 25  2  0  0  0  0
 17 26  1  0  0  0  0
 18 25  1  0  0  0  0
 18 26  2  0  0  0  0
 19 26  1  0  0  0  0
 20 27  2  0  0  0  0
 21 23  2  0  0  0  0
 23 27  1  0  0  0  0
  5 28  1  0  0  0  0
  5 29  1  0  0  0  0
  8 30  1  0  0  0  0
  9 31  1  0  0  0  0
 10 32  1  0  0  0  0
 10 33  1  0  0  0  0
 11 34  1  0  0  0  0
 12 35  1  0  0  0  0
 13 36  1  0  0  0  0
 14 37  1  0  0  0  0
 15 38  1  0  0  0  0
 16 39  1  0  0  0  0
 17 40  1  0  0  0  0
 18 41  1  0  0  0  0
M  END
> <pdb_id>
2VX1

> <uniprot_id>
P54760

> <usmiles>
Clc1c(Nc2nc(ncc2)Nc3cc(ccc3)C(=O)N)c4OCOc4cc1

$$$$
7XA_A_404
          07192416273D 1   1.00000     0.00000     0
            
 28 27  0  0  0  0            999 V2000
  -17.6312  -10.2142   -0.7713 O   0  0  0  0  0  0  0  0  0  0  0  0
  -15.2799   -8.9229   -0.9793 O   0  0  0  0  0  0  0  0  0  0  0  0
  -13.3573   -1.4532   -5.6653 N   0  3  0  0  0  0  0  0  0  0  0  0
  -17.2668   -9.3426   -1.7690 N   0  0  0  0  0  0  0  0  0  0  0  0
  -13.6921   -2.2031   -4.4630 C   0  0  0  0  0  0  0  0  0  0  0  0
  -14.1066   -3.6114   -4.8638 C   0  0  0  0  0  0  0  0  0  0  0  0
  -14.5642   -4.3695   -3.6271 C   0  0  0  0  0  0  0  0  0  0  0  0
  -15.0264   -5.7713   -3.9626 C   0  0  0  0  0  0  0  0  0  0  0  0
  -15.3739   -6.5057   -2.6772 C   0  0  0  0  0  0  0  0  0  0  0  0
  -15.9072   -7.8715   -3.0202 C   0  0  0  0  0  0  0  0  0  0  0  0
  -16.1318   -8.7445   -1.7951 C   0  0  0  0  0  0  0  0  0  0  0  0
  -13.0743   -0.4949   -5.4061 H   0  0  0  0  0  0  0  0  0  0  0  0
  -12.5791   -1.9220   -6.1572 H   0  0  0  0  0  0  0  0  0  0  0  0
  -14.1826   -1.4130   -6.2861 H   0  0  0  0  0  0  0  0  0  0  0  0
  -17.9185   -9.1676   -2.5195 H   0  0  0  0  0  0  0  0  0  0  0  0
  -12.8267   -2.2445   -3.7984 H   0  0  0  0  0  0  0  0  0  0  0  0
  -14.5091   -1.7105   -3.9329 H   0  0  0  0  0  0  0  0  0  0  0  0
  -13.2632   -4.1295   -5.3242 H   0  0  0  0  0  0  0  0  0  0  0  0
  -14.9192   -3.5656   -5.5916 H   0  0  0  0  0  0  0  0  0  0  0  0
  -13.7406   -4.4233   -2.9114 H   0  0  0  0  0  0  0  0  0  0  0  0
  -15.3824   -3.8246   -3.1516 H   0  0  0  0  0  0  0  0  0  0  0  0
  -14.2344   -6.3059   -4.4920 H   0  0  0  0  0  0  0  0  0  0  0  0
  -15.9028   -5.7270   -4.6122 H   0  0  0  0  0  0  0  0  0  0  0  0
  -14.4846   -6.5999   -2.0510 H   0  0  0  0  0  0  0  0  0  0  0  0
  -16.1268   -5.9423   -2.1208 H   0  0  0  0  0  0  0  0  0  0  0  0
  -16.8511   -7.7619   -3.5581 H   0  0  0  0  0  0  0  0  0  0  0  0
  -15.2026   -8.3712   -3.6891 H   0  0  0  0  0  0  0  0  0  0  0  0
  -18.5517  -10.5609   -0.9515 H   0  0  0  0  0  0  0  0  0  0  0  0
  1  4  1  0  0  0  0
  2 11  2  0  0  0  0
  3  5  1  0  0  0  0
  3 12  1  0  0  0  0
  3 13  1  0  0  0  0
  3 14  1  0  0  0  0
  4 11  1  0  0  0  0
  4 15  1  0  0  0  0
  5  6  1  0  0  0  0
  5 16  1  0  0  0  0
  5 17  1  0  0  0  0
  6  7  1  0  0  0  0
  6 18  1  0  0  0  0
  6 19  1  0  0  0  0
  7  8  1  0  0  0  0
  7 20  1  0  0  0  0
  7 21  1  0  0  0  0
  8  9  1  0  0  0  0
  8 22  1  0  0  0  0
  8 23  1  0  0  0  0
  9 10  1  0  0  0  0
  9 24  1  0  0  0  0
  9 25  1  0  0  0  0
 10 11  1  0  0  0  0
 10 26  1  0  0  0  0
 10 27  1  0  0  0  0
  1 28  1  0  0  0  0
M  CHG  1   3   1
M  END
> <pdb_id>
4ZUR

> <uniprot_id>
Q48935

> <usmiles>
O=C(NO)CCCCCC[NH3+]

$$$$
7XE_A_3001
          07212404123D 1   1.00000     0.00000     0
            
 35 37  0  0  0  0            999 V2000
    8.1542    1.0539   -3.5775 Cl  0  0  0  0  0  0  0  0  0  0  0  0
    7.0396    3.7223   -4.4293 O   0  0  0  0  0  0  0  0  0  0  0  0
    5.2564    3.6655   -1.3101 N   0  0  0  0  0  0  0  0  0  0  0  0
    5.4596   -0.2528    5.5116 N   0  0  0  0  0  0  0  0  0  0  0  0
    6.9468    0.3747   -0.8004 N   0  0  0  0  0  0  0  0  0  0  0  0
    5.7288    4.0332   -2.4978 N   0  0  0  0  0  0  0  0  0  0  0  0
    5.2899    5.3030   -3.0529 C   0  0  0  0  0  0  0  0  0  0  0  0
    6.1187    1.0561    5.5385 C   0  0  0  0  0  0  0  0  0  0  0  0
    5.6071    2.5333   -0.7506 C   0  0  0  0  0  0  0  0  0  0  0  0
    6.1803   -1.2355    4.7351 C   0  0  0  0  0  0  0  0  0  0  0  0
    6.5025    1.5948    4.1225 C   0  0  0  0  0  0  0  0  0  0  0  0
    6.5994   -1.3621    0.9091 C   0  0  0  0  0  0  0  0  0  0  0  0
    6.4151   -1.7691    2.2316 C   0  0  0  0  0  0  0  0  0  0  0  0
    6.7276    0.9207    1.6464 C   0  0  0  0  0  0  0  0  0  0  0  0
    6.5727    3.2918   -3.1790 C   0  0  0  0  0  0  0  0  0  0  0  0
    7.0091    2.0632   -2.6583 C   0  0  0  0  0  0  0  0  0  0  0  0
    6.7484   -0.0189    0.6084 C   0  0  0  0  0  0  0  0  0  0  0  0
    6.5131    1.6649   -1.3898 C   0  0  0  0  0  0  0  0  0  0  0  0
    6.3843   -0.7927    3.2899 C   0  0  0  0  0  0  0  0  0  0  0  0
    6.5321    0.5043    3.0079 C   0  0  0  0  0  0  0  0  0  0  0  0
    4.5477   -0.1417    5.1165 H   0  0  0  0  0  0  0  0  0  0  0  0
    7.4080   -0.2771   -1.4024 H   0  0  0  0  0  0  0  0  0  0  0  0
    5.7237    5.4455   -3.9426 H   0  0  0  0  0  0  0  0  0  0  0  0
    4.2962    5.2924   -3.1644 H   0  0  0  0  0  0  0  0  0  0  0  0
    5.5480    6.0445   -2.4337 H   0  0  0  0  0  0  0  0  0  0  0  0
    6.9534    0.9781    6.0837 H   0  0  0  0  0  0  0  0  0  0  0  0
    5.4995    1.7127    5.9690 H   0  0  0  0  0  0  0  0  0  0  0  0
    5.2273    2.2833    0.1401 H   0  0  0  0  0  0  0  0  0  0  0  0
    5.6632   -2.0915    4.7395 H   0  0  0  0  0  0  0  0  0  0  0  0
    7.0753   -1.3846    5.1555 H   0  0  0  0  0  0  0  0  0  0  0  0
    7.4112    2.0083    4.1804 H   0  0  0  0  0  0  0  0  0  0  0  0
    5.8351    2.2920    3.8610 H   0  0  0  0  0  0  0  0  0  0  0  0
    6.6240   -2.0427    0.1768 H   0  0  0  0  0  0  0  0  0  0  0  0
    6.3043   -2.7399    2.4445 H   0  0  0  0  0  0  0  0  0  0  0  0
    6.8500    1.8911    1.4382 H   0  0  0  0  0  0  0  0  0  0  0  0
  1 16  1  0  0  0  0
  2 15  2  0  0  0  0
  3  6  1  0  0  0  0
  3  9  2  0  0  0  0
  4  8  1  0  0  0  0
  4 10  1  0  0  0  0
  5 17  1  0  0  0  0
  5 18  1  0  0  0  0
  6  7  1  0  0  0  0
  6 15  1  0  0  0  0
  8 11  1  0  0  0  0
  9 18  1  0  0  0  0
 10 19  1  0  0  0  0
 11 20  1  0  0  0  0
 12 13  1  0  0  0  0
 12 17  2  0  0  0  0
 13 19  2  0  0  0  0
 14 17  1  0  0  0  0
 14 20  2  0  0  0  0
 15 16  1  0  0  0  0
 16 18  2  0  0  0  0
 19 20  1  0  0  0  0
  4 21  1  0  0  0  0
  5 22  1  0  0  0  0
  7 23  1  0  0  0  0
  7 24  1  0  0  0  0
  7 25  1  0  0  0  0
  8 26  1  0  0  0  0
  8 27  1  0  0  0  0
  9 28  1  0  0  0  0
 10 29  1  0  0  0  0
 10 30  1  0  0  0  0
 11 31  1  0  0  0  0
 11 32  1  0  0  0  0
 12 33  1  0  0  0  0
 13 34  1  0  0  0  0
 14 35  1  0  0  0  0
M  END
> <pdb_id>
7RWQ

> <uniprot_id>
Q12830

> <usmiles>
ClC=1C(=O)N(N=CC1Nc2cc3c(cc2)CNCC3)C

$$$$
7XO_C_1104
          07202416103D 1   1.00000     0.00000     0
            
 63 67  0  0  0  0            999 V2000
  -21.1755  -11.6074    2.2075 N   0  0  0  0  0  0  0  0  0  0  0  0
  -18.8821  -11.5034    1.9839 N   0  0  0  0  0  0  0  0  0  0  0  0
  -20.3021  -11.0058    0.1970 N   0  0  0  0  0  0  0  0  0  0  0  0
  -17.3059  -12.7055    6.2353 N   0  0  0  0  0  0  0  0  0  0  0  0
  -19.4325  -12.4575    5.2448 N   0  0  0  0  0  0  0  0  0  0  0  0
  -15.6067  -11.8410   -6.7355 N   0  0  0  0  0  0  0  0  0  0  0  0
  -17.2094  -11.3206   -4.4320 N   0  0  0  0  0  0  0  0  0  0  0  0
  -17.7008  -12.0712    4.0309 N   0  0  0  0  0  0  0  0  0  0  0  0
  -14.7768  -12.5880   -7.6656 C   0  0  0  0  0  0  0  0  0  0  0  0
  -15.9656  -12.6458    2.3564 C   0  0  0  0  0  0  0  0  0  0  0  0
  -15.8998  -10.4646    3.5642 C   0  0  0  0  0  0  0  0  0  0  0  0
  -16.9171  -12.4725   -6.6259 C   0  0  0  0  0  0  0  0  0  0  0  0
  -14.9692  -11.7649   -5.4317 C   0  0  0  0  0  0  0  0  0  0  0  0
  -17.8473  -11.6956   -5.6855 C   0  0  0  0  0  0  0  0  0  0  0  0
  -15.7961  -10.9220   -4.4625 C   0  0  0  0  0  0  0  0  0  0  0  0
  -21.0736  -11.9724    3.4558 C   0  0  0  0  0  0  0  0  0  0  0  0
  -18.0490  -14.9248    9.5992 C   0  0  0  0  0  0  0  0  0  0  0  0
  -18.6735  -15.2710    8.4251 C   0  0  0  0  0  0  0  0  0  0  0  0
  -17.1812  -13.8572    9.6522 C   0  0  0  0  0  0  0  0  0  0  0  0
  -18.4364  -14.5212    7.2836 C   0  0  0  0  0  0  0  0  0  0  0  0
  -16.9487  -13.1224    8.5106 C   0  0  0  0  0  0  0  0  0  0  0  0
  -20.1085  -10.9933   -2.1177 C   0  0  0  0  0  0  0  0  0  0  0  0
  -18.1460  -11.2567   -0.7918 C   0  0  0  0  0  0  0  0  0  0  0  0
  -19.3531  -11.0808   -3.2776 C   0  0  0  0  0  0  0  0  0  0  0  0
  -17.3965  -11.3301   -1.9702 C   0  0  0  0  0  0  0  0  0  0  0  0
  -20.0966  -11.3815    1.4505 C   0  0  0  0  0  0  0  0  0  0  0  0
  -18.1207  -12.4317    5.2277 C   0  0  0  0  0  0  0  0  0  0  0  0
  -18.7347  -11.8773    3.2509 C   0  0  0  0  0  0  0  0  0  0  0  0
  -16.2917  -11.9314    3.6486 C   0  0  0  0  0  0  0  0  0  0  0  0
  -19.5164  -11.0947   -0.8649 C   0  0  0  0  0  0  0  0  0  0  0  0
  -17.5730  -13.4371    7.3149 C   0  0  0  0  0  0  0  0  0  0  0  0
  -17.9791  -11.2473   -3.2272 C   0  0  0  0  0  0  0  0  0  0  0  0
  -19.8403  -12.1178    4.0379 C   0  0  0  0  0  0  0  0  0  0  0  0
  -21.1942  -10.5879    0.0251 H   0  0  0  0  0  0  0  0  0  0  0  0
  -16.3855  -12.3188    6.1787 H   0  0  0  0  0  0  0  0  0  0  0  0
  -13.8801  -12.1512   -7.7370 H   0  0  0  0  0  0  0  0  0  0  0  0
  -14.6657  -13.5251   -7.3346 H   0  0  0  0  0  0  0  0  0  0  0  0
  -15.2135  -12.6018   -8.5651 H   0  0  0  0  0  0  0  0  0  0  0  0
  -14.9971  -12.5202    2.1413 H   0  0  0  0  0  0  0  0  0  0  0  0
  -16.1610  -13.6214    2.4564 H   0  0  0  0  0  0  0  0  0  0  0  0
  -16.5230  -12.2683    1.6170 H   0  0  0  0  0  0  0  0  0  0  0  0
  -14.9374  -10.3912    3.3027 H   0  0  0  0  0  0  0  0  0  0  0  0
  -16.4671  -10.0069    2.8795 H   0  0  0  0  0  0  0  0  0  0  0  0
  -16.0373  -10.0311    4.4547 H   0  0  0  0  0  0  0  0  0  0  0  0
  -16.8006  -13.4005   -6.2721 H   0  0  0  0  0  0  0  0  0  0  0  0
  -17.3344  -12.5119   -7.5339 H   0  0  0  0  0  0  0  0  0  0  0  0
  -14.0646  -11.3512   -5.5342 H   0  0  0  0  0  0  0  0  0  0  0  0
  -14.8731  -12.6887   -5.0609 H   0  0  0  0  0  0  0  0  0  0  0  0
  -18.1476  -10.8632   -6.1512 H   0  0  0  0  0  0  0  0  0  0  0  0
  -18.6415  -12.2674   -5.4797 H   0  0  0  0  0  0  0  0  0  0  0  0
  -15.4147  -11.0237   -3.5437 H   0  0  0  0  0  0  0  0  0  0  0  0
  -15.7394   -9.9638   -4.7428 H   0  0  0  0  0  0  0  0  0  0  0  0
  -21.8997  -12.1473    3.9915 H   0  0  0  0  0  0  0  0  0  0  0  0
  -18.2275  -15.4562   10.4274 H   0  0  0  0  0  0  0  0  0  0  0  0
  -19.2925  -16.0558    8.3944 H   0  0  0  0  0  0  0  0  0  0  0  0
  -16.7251  -13.6180   10.5094 H   0  0  0  0  0  0  0  0  0  0  0  0
  -18.8933  -14.7650    6.4281 H   0  0  0  0  0  0  0  0  0  0  0  0
  -16.3176  -12.3475    8.5458 H   0  0  0  0  0  0  0  0  0  0  0  0
  -21.0966  -10.8549   -2.1843 H   0  0  0  0  0  0  0  0  0  0  0  0
  -17.6934  -11.3211    0.0976 H   0  0  0  0  0  0  0  0  0  0  0  0
  -19.8086  -11.0227   -4.1659 H   0  0  0  0  0  0  0  0  0  0  0  0
  -16.4054  -11.4464   -1.9048 H   0  0  0  0  0  0  0  0  0  0  0  0
  -15.7408  -12.3492    4.3711 H   0  0  0  0  0  0  0  0  0  0  0  0
  1 16  2  0  0  0  0
  1 26  1  0  0  0  0
  2 26  2  0  0  0  0
  2 28  1  0  0  0  0
  3 26  1  0  0  0  0
  3 30  1  0  0  0  0
  4 27  1  0  0  0  0
  4 31  1  0  0  0  0
  5 27  2  0  0  0  0
  5 33  1  0  0  0  0
  6  9  1  0  0  0  0
  6 12  1  0  0  0  0
  6 13  1  0  0  0  0
  7 14  1  0  0  0  0
  7 15  1  0  0  0  0
  7 32  1  0  0  0  0
  8 27  1  0  0  0  0
  8 28  1  0  0  0  0
  8 29  1  0  0  0  0
 10 29  1  0  0  0  0
 11 29  1  0  0  0  0
 12 14  1  0  0  0  0
 13 15  1  0  0  0  0
 16 33  1  0  0  0  0
 17 18  2  0  0  0  0
 17 19  1  0  0  0  0
 18 20  1  0  0  0  0
 19 21  2  0  0  0  0
 20 31  2  0  0  0  0
 21 31  1  0  0  0  0
 22 24  1  0  0  0  0
 22 30  2  0  0  0  0
 23 25  2  0  0  0  0
 23 30  1  0  0  0  0
 24 32  2  0  0  0  0
 25 32  1  0  0  0  0
 28 33  2  0  0  0  0
  3 34  1  0  0  0  0
  4 35  1  0  0  0  0
  9 36  1  0  0  0  0
  9 37  1  0  0  0  0
  9 38  1  0  0  0  0
 10 39  1  0  0  0  0
 10 40  1  0  0  0  0
 10 41  1  0  0  0  0
 11 42  1  0  0  0  0
 11 43  1  0  0  0  0
 11 44  1  0  0  0  0
 12 45  1  0  0  0  0
 12 46  1  0  0  0  0
 13 47  1  0  0  0  0
 13 48  1  0  0  0  0
 14 49  1  0  0  0  0
 14 50  1  0  0  0  0
 15 51  1  0  0  0  0
 15 52  1  0  0  0  0
 16 53  1  0  0  0  0
 17 54  1  0  0  0  0
 18 55  1  0  0  0  0
 19 56  1  0  0  0  0
 20 57  1  0  0  0  0
 21 58  1  0  0  0  0
 22 59  1  0  0  0  0
 23 60  1  0  0  0  0
 24 61  1  0  0  0  0
 25 62  1  0  0  0  0
 29 63  1  0  0  0  0
M  END
> <pdb_id>
5X2A

> <uniprot_id>
P00533

> <usmiles>
n1c(ncc2N=C(N(c12)C(C)C)Nc3ccccc3)Nc4ccc(N5CCN(CC5)C)cc4

$$$$
7XS_B_1001
          07202411583D 1   1.00000     0.00000     0
            
 52 55  0  0  0  0            999 V2000
   11.0583    9.5975   21.4732 O   0  0  0  0  0  0  0  0  0  0  0  0
   11.1933    5.8445   17.4992 O   0  0  0  0  0  0  0  0  0  0  0  0
   16.0913    1.2486   18.7602 N   0  0  0  0  0  0  0  0  0  0  0  0
   15.6017    1.3763   15.3105 N   0  0  0  0  0  0  0  0  0  0  0  0
   13.4146    2.3111   15.2669 N   0  0  0  0  0  0  0  0  0  0  0  0
   16.4862    1.0314   17.4834 N   0  0  0  0  0  0  0  0  0  0  0  0
   12.3588    2.9871   17.0894 N   0  0  0  0  0  0  0  0  0  0  0  0
   10.8290   10.9816   21.1615 C   0  0  0  0  0  0  0  0  0  0  0  0
   17.7523    0.4422   17.0972 C   0  0  0  0  0  0  0  0  0  0  0  0
   13.2235   -0.2715   20.2991 C   0  0  0  0  0  0  0  0  0  0  0  0
   12.2225    1.6729   21.4474 C   0  0  0  0  0  0  0  0  0  0  0  0
   14.5152    1.8242   14.7205 C   0  0  0  0  0  0  0  0  0  0  0  0
   10.8946    8.9980   19.1205 C   0  0  0  0  0  0  0  0  0  0  0  0
   11.1494    7.3537   20.8390 C   0  0  0  0  0  0  0  0  0  0  0  0
   10.8795    8.0057   18.1711 C   0  0  0  0  0  0  0  0  0  0  0  0
   11.1057    6.3582   19.8856 C   0  0  0  0  0  0  0  0  0  0  0  0
   12.2220    3.8250   18.2618 C   0  0  0  0  0  0  0  0  0  0  0  0
   11.3130    3.6763   16.3368 C   0  0  0  0  0  0  0  0  0  0  0  0
   14.1675    2.0263   20.0127 C   0  0  0  0  0  0  0  0  0  0  0  0
   15.5232    1.4258   16.6299 C   0  0  0  0  0  0  0  0  0  0  0  0
   13.4172    2.3602   16.5986 C   0  0  0  0  0  0  0  0  0  0  0  0
   11.0523    8.6738   20.4578 C   0  0  0  0  0  0  0  0  0  0  0  0
   11.0191    6.6923   18.5540 C   0  0  0  0  0  0  0  0  0  0  0  0
   14.9117    1.7313   18.7367 C   0  0  0  0  0  0  0  0  0  0  0  0
   14.4700    1.8962   17.3971 C   0  0  0  0  0  0  0  0  0  0  0  0
   10.9686    4.4300   17.6241 C   0  0  0  0  0  0  0  0  0  0  0  0
   12.9345    1.2140   20.2529 C   0  0  0  0  0  0  0  0  0  0  0  0
   11.7358   11.5228   20.9003 H   0  0  0  0  0  0  0  0  0  0  0  0
   10.4394   11.3910   22.0908 H   0  0  0  0  0  0  0  0  0  0  0  0
   10.0873   11.1471   20.3835 H   0  0  0  0  0  0  0  0  0  0  0  0
   17.5826   -0.2945   16.3170 H   0  0  0  0  0  0  0  0  0  0  0  0
   18.2501   -0.0442   17.9319 H   0  0  0  0  0  0  0  0  0  0  0  0
   18.4270    1.1864   16.6812 H   0  0  0  0  0  0  0  0  0  0  0  0
   14.1143   -0.4992   20.8787 H   0  0  0  0  0  0  0  0  0  0  0  0
   13.4147   -0.6667   19.3043 H   0  0  0  0  0  0  0  0  0  0  0  0
   12.3970   -0.8527   20.6980 H   0  0  0  0  0  0  0  0  0  0  0  0
   11.8436    2.6864   21.3361 H   0  0  0  0  0  0  0  0  0  0  0  0
   12.8587    1.7016   22.3270 H   0  0  0  0  0  0  0  0  0  0  0  0
   11.3772    1.0386   21.7017 H   0  0  0  0  0  0  0  0  0  0  0  0
   14.5298    1.7567   13.6361 H   0  0  0  0  0  0  0  0  0  0  0  0
   10.7763   10.0347   18.8109 H   0  0  0  0  0  0  0  0  0  0  0  0
   11.2578    7.0490   21.8767 H   0  0  0  0  0  0  0  0  0  0  0  0
   10.7563    8.2745   17.1233 H   0  0  0  0  0  0  0  0  0  0  0  0
   11.1100    5.3245   20.2198 H   0  0  0  0  0  0  0  0  0  0  0  0
   13.0550    4.4983   18.4441 H   0  0  0  0  0  0  0  0  0  0  0  0
   12.0382    3.3052   19.1978 H   0  0  0  0  0  0  0  0  0  0  0  0
   10.5334    3.0489   15.9113 H   0  0  0  0  0  0  0  0  0  0  0  0
   11.6795    4.2886   15.5178 H   0  0  0  0  0  0  0  0  0  0  0  0
   13.9233    3.0862   20.0382 H   0  0  0  0  0  0  0  0  0  0  0  0
   14.8472    1.9048   20.8508 H   0  0  0  0  0  0  0  0  0  0  0  0
   10.0173    4.1895   18.0927 H   0  0  0  0  0  0  0  0  0  0  0  0
   12.2667    1.3747   19.4110 H   0  0  0  0  0  0  0  0  0  0  0  0
  1  8  1  0  0  0  0
  1 22  1  0  0  0  0
  2 23  1  0  0  0  0
  2 26  1  0  0  0  0
  3  6  1  0  0  0  0
  3 24  2  0  0  0  0
  4 12  1  0  0  0  0
  4 20  2  0  0  0  0
  5 12  2  0  0  0  0
  5 21  1  0  0  0  0
  6  9  1  0  0  0  0
  6 20  1  0  0  0  0
  7 17  1  0  0  0  0
  7 18  1  0  0  0  0
  7 21  1  0  0  0  0
  8 28  1  0  0  0  0
  8 29  1  0  0  0  0
  8 30  1  0  0  0  0
  9 31  1  0  0  0  0
  9 32  1  0  0  0  0
  9 33  1  0  0  0  0
 10 27  1  0  0  0  0
 10 34  1  0  0  0  0
 10 35  1  0  0  0  0
 10 36  1  0  0  0  0
 11 27  1  0  0  0  0
 11 37  1  0  0  0  0
 11 38  1  0  0  0  0
 11 39  1  0  0  0  0
 12 40  1  0  0  0  0
 13 15  2  0  0  0  0
 13 22  1  0  0  0  0
 13 41  1  0  0  0  0
 14 16  1  0  0  0  0
 14 22  2  0  0  0  0
 14 42  1  0  0  0  0
 15 23  1  0  0  0  0
 15 43  1  0  0  0  0
 16 23  2  0  0  0  0
 16 44  1  0  0  0  0
 17 26  1  0  0  0  0
 17 45  1  0  0  0  0
 17 46  1  0  0  0  0
 18 26  1  0  0  0  0
 18 47  1  0  0  0  0
 18 48  1  0  0  0  0
 19 24  1  0  0  0  0
 19 27  1  0  0  0  0
 19 49  1  0  0  0  0
 19 50  1  0  0  0  0
 20 25  1  0  0  0  0
 21 25  2  0  0  0  0
 24 25  1  0  0  0  0
 26 51  1  0  0  0  0
 27 52  1  0  0  0  0
M  END
> <pdb_id>
5U7I

> <uniprot_id>
O00408

> <usmiles>
O(c1ccc(OC)cc1)C2CN(c3ncnc4N(N=C(c43)CC(C)C)C)C2

$$$$
7XV_B_1001
          07202411583D 1   1.00000     0.00000     0
            
 46 48  0  0  0  0            999 V2000
   10.2722    7.4536   17.9878 O   0  0  0  0  0  0  0  0  0  0  0  0
   12.0492    3.5950   18.2676 O   0  0  0  0  0  0  0  0  0  0  0  0
   15.8633    1.3060   17.4641 N   0  0  0  0  0  0  0  0  0  0  0  0
   15.6463    1.4861   18.8308 N   0  0  0  0  0  0  0  0  0  0  0  0
   13.4668    2.5390   15.0035 N   0  0  0  0  0  0  0  0  0  0  0  0
   13.9708    2.4374   17.7551 N   0  0  0  0  0  0  0  0  0  0  0  0
   10.0585    8.7657   17.4670 C   0  0  0  0  0  0  0  0  0  0  0  0
   13.2031    0.1190   20.6488 C   0  0  0  0  0  0  0  0  0  0  0  0
   12.2746    1.9119   22.0852 C   0  0  0  0  0  0  0  0  0  0  0  0
   12.6046    3.1005   15.9044 C   0  0  0  0  0  0  0  0  0  0  0  0
   14.5522    1.9526   15.4345 C   0  0  0  0  0  0  0  0  0  0  0  0
   12.1183    8.1751   21.0909 C   0  0  0  0  0  0  0  0  0  0  0  0
   12.0886    6.9261   21.6648 C   0  0  0  0  0  0  0  0  0  0  0  0
   11.5528    8.3841   19.8442 C   0  0  0  0  0  0  0  0  0  0  0  0
   11.5142    5.8642   20.9898 C   0  0  0  0  0  0  0  0  0  0  0  0
   10.8837    4.3529   17.8461 C   0  0  0  0  0  0  0  0  0  0  0  0
   10.2051    4.8858   19.0838 C   0  0  0  0  0  0  0  0  0  0  0  0
   13.8801    2.4984   20.2799 C   0  0  0  0  0  0  0  0  0  0  0  0
   12.8238    3.0734   17.2933 C   0  0  0  0  0  0  0  0  0  0  0  0
   14.8560    1.8733   16.8304 C   0  0  0  0  0  0  0  0  0  0  0  0
   14.5279    2.1510   18.9804 C   0  0  0  0  0  0  0  0  0  0  0  0
   10.9414    7.3263   19.1779 C   0  0  0  0  0  0  0  0  0  0  0  0
   10.9250    6.0440   19.7406 C   0  0  0  0  0  0  0  0  0  0  0  0
   12.7529    1.5688   20.6914 C   0  0  0  0  0  0  0  0  0  0  0  0
    9.3923    8.7745   16.6068 H   0  0  0  0  0  0  0  0  0  0  0  0
   11.0484    9.0785   17.1431 H   0  0  0  0  0  0  0  0  0  0  0  0
    9.6751    9.4659   18.2075 H   0  0  0  0  0  0  0  0  0  0  0  0
   12.4724   -0.5369   21.1189 H   0  0  0  0  0  0  0  0  0  0  0  0
   14.1496   -0.0378   21.1629 H   0  0  0  0  0  0  0  0  0  0  0  0
   13.3292   -0.2579   19.6354 H   0  0  0  0  0  0  0  0  0  0  0  0
   12.2860    2.9833   22.2758 H   0  0  0  0  0  0  0  0  0  0  0  0
   12.9013    1.4626   22.8534 H   0  0  0  0  0  0  0  0  0  0  0  0
   11.2579    1.5654   22.2643 H   0  0  0  0  0  0  0  0  0  0  0  0
   11.7393    3.5638   15.4311 H   0  0  0  0  0  0  0  0  0  0  0  0
   15.2330    1.5106   14.7088 H   0  0  0  0  0  0  0  0  0  0  0  0
   12.5826    9.0087   21.6145 H   0  0  0  0  0  0  0  0  0  0  0  0
   12.4940    6.7690   22.6634 H   0  0  0  0  0  0  0  0  0  0  0  0
   11.6114    9.3980   19.4510 H   0  0  0  0  0  0  0  0  0  0  0  0
   11.5187    4.8793   21.4521 H   0  0  0  0  0  0  0  0  0  0  0  0
   11.1654    5.1681   17.1820 H   0  0  0  0  0  0  0  0  0  0  0  0
   10.2226    3.6857   17.2961 H   0  0  0  0  0  0  0  0  0  0  0  0
    9.1864    5.1909   18.8649 H   0  0  0  0  0  0  0  0  0  0  0  0
   10.0796    4.0705   19.7941 H   0  0  0  0  0  0  0  0  0  0  0  0
   14.6567    2.4731   21.0423 H   0  0  0  0  0  0  0  0  0  0  0  0
   13.5625    3.5401   20.2922 H   0  0  0  0  0  0  0  0  0  0  0  0
   11.9199    1.6907   20.0026 H   0  0  0  0  0  0  0  0  0  0  0  0
  1  7  1  0  0  0  0
  1 22  1  0  0  0  0
  2 16  1  0  0  0  0
  2 19  1  0  0  0  0
  3  4  1  0  0  0  0
  3 20  2  0  0  0  0
  4 21  2  0  0  0  0
  5 10  1  0  0  0  0
  5 11  2  0  0  0  0
  6 19  1  0  0  0  0
  6 20  1  0  0  0  0
  6 21  1  0  0  0  0
  7 25  1  0  0  0  0
  7 26  1  0  0  0  0
  7 27  1  0  0  0  0
  8 24  1  0  0  0  0
  8 28  1  0  0  0  0
  8 29  1  0  0  0  0
  8 30  1  0  0  0  0
  9 24  1  0  0  0  0
  9 31  1  0  0  0  0
  9 32  1  0  0  0  0
  9 33  1  0  0  0  0
 10 19  2  0  0  0  0
 10 34  1  0  0  0  0
 11 20  1  0  0  0  0
 11 35  1  0  0  0  0
 12 13  2  0  0  0  0
 12 14  1  0  0  0  0
 12 36  1  0  0  0  0
 13 15  1  0  0  0  0
 13 37  1  0  0  0  0
 14 22  2  0  0  0  0
 14 38  1  0  0  0  0
 15 23  2  0  0  0  0
 15 39  1  0  0  0  0
 16 17  1  0  0  0  0
 16 40  1  0  0  0  0
 16 41  1  0  0  0  0
 17 23  1  0  0  0  0
 17 42  1  0  0  0  0
 17 43  1  0  0  0  0
 18 21  1  0  0  0  0
 18 24  1  0  0  0  0
 18 44  1  0  0  0  0
 18 45  1  0  0  0  0
 22 23  1  0  0  0  0
 24 46  1  0  0  0  0
M  END
> <pdb_id>
5U7J

> <uniprot_id>
O00408

> <usmiles>
O(c1c(cccc1)CCOC=2N3C(=NN=C3CC(C)C)C=NC2)C

$$$$
7Y1_B_1003
          07202411583D 1   1.00000     0.00000     0
            
 49 52  0  0  0  0            999 V2000
   11.6418    2.9019   18.4759 O   0  0  0  0  0  0  0  0  0  0  0  0
   15.6871    0.9708   17.6323 N   0  0  0  0  0  0  0  0  0  0  0  0
   15.4484    0.9140   19.0071 N   0  0  0  0  0  0  0  0  0  0  0  0
   12.0086    1.1668   21.9256 N   0  0  0  0  0  0  0  0  0  0  0  0
   13.2750    2.4093   15.3025 N   0  0  0  0  0  0  0  0  0  0  0  0
   13.0170    1.9650   22.4774 N   0  0  0  0  0  0  0  0  0  0  0  0
   13.7220    1.9024   17.9403 N   0  0  0  0  0  0  0  0  0  0  0  0
   12.8190    2.3381   23.8943 C   0  0  0  0  0  0  0  0  0  0  0  0
   11.3445    6.0897   19.9362 C   0  0  0  0  0  0  0  0  0  0  0  0
   18.1423    6.8503   23.4706 C   0  0  0  0  0  0  0  0  0  0  0  0
   11.1576    4.2271   18.2690 C   0  0  0  0  0  0  0  0  0  0  0  0
   12.3628    2.7732   16.2275 C   0  0  0  0  0  0  0  0  0  0  0  0
   14.3983    1.7981   15.6575 C   0  0  0  0  0  0  0  0  0  0  0  0
   12.3599    0.9313   20.6449 C   0  0  0  0  0  0  0  0  0  0  0  0
   10.7091    4.7569   19.6223 C   0  0  0  0  0  0  0  0  0  0  0  0
   18.5908    5.5671   22.7896 C   0  0  0  0  0  0  0  0  0  0  0  0
   16.3933    5.1006   21.6667 C   0  0  0  0  0  0  0  0  0  0  0  0
   17.3263    3.3674   23.0616 C   0  0  0  0  0  0  0  0  0  0  0  0
   15.2844    4.3079   21.3770 C   0  0  0  0  0  0  0  0  0  0  0  0
   16.2165    2.5582   22.7650 C   0  0  0  0  0  0  0  0  0  0  0  0
   12.5888    2.5091   17.5670 C   0  0  0  0  0  0  0  0  0  0  0  0
   14.6354    1.5614   17.0117 C   0  0  0  0  0  0  0  0  0  0  0  0
   14.2483    1.5034   19.1224 C   0  0  0  0  0  0  0  0  0  0  0  0
   14.0051    2.2129   21.6149 C   0  0  0  0  0  0  0  0  0  0  0  0
   17.4086    4.6523   22.5089 C   0  0  0  0  0  0  0  0  0  0  0  0
   15.2119    3.0374   21.9152 C   0  0  0  0  0  0  0  0  0  0  0  0
   13.5589    1.6146   20.4590 C   0  0  0  0  0  0  0  0  0  0  0  0
   13.5843    2.9046   24.1999 H   0  0  0  0  0  0  0  0  0  0  0  0
   11.9661    2.8517   23.9876 H   0  0  0  0  0  0  0  0  0  0  0  0
   12.7727    1.5105   24.4536 H   0  0  0  0  0  0  0  0  0  0  0  0
   11.0285    6.4074   20.8301 H   0  0  0  0  0  0  0  0  0  0  0  0
   12.3394    5.9896   19.9506 H   0  0  0  0  0  0  0  0  0  0  0  0
   11.0866    6.7552   19.2357 H   0  0  0  0  0  0  0  0  0  0  0  0
   18.9375    7.4316   23.6431 H   0  0  0  0  0  0  0  0  0  0  0  0
   17.4977    7.3341   22.8787 H   0  0  0  0  0  0  0  0  0  0  0  0
   17.6967    6.6291   24.3381 H   0  0  0  0  0  0  0  0  0  0  0  0
   10.3861    4.2148   17.6329 H   0  0  0  0  0  0  0  0  0  0  0  0
   11.8855    4.8043   17.8990 H   0  0  0  0  0  0  0  0  0  0  0  0
   11.5219    3.2345   15.9446 H   0  0  0  0  0  0  0  0  0  0  0  0
   15.0627    1.5125   14.9669 H   0  0  0  0  0  0  0  0  0  0  0  0
   11.8644    0.3824   19.9716 H   0  0  0  0  0  0  0  0  0  0  0  0
    9.7150    4.8650   19.6151 H   0  0  0  0  0  0  0  0  0  0  0  0
   10.9678    4.0994   20.3300 H   0  0  0  0  0  0  0  0  0  0  0  0
   19.2379    5.0907   23.3848 H   0  0  0  0  0  0  0  0  0  0  0  0
   19.0389    5.7957   21.9254 H   0  0  0  0  0  0  0  0  0  0  0  0
   16.4619    6.0120   21.2608 H   0  0  0  0  0  0  0  0  0  0  0  0
   18.0510    3.0292   23.6619 H   0  0  0  0  0  0  0  0  0  0  0  0
   14.5529    4.6530   20.7889 H   0  0  0  0  0  0  0  0  0  0  0  0
   16.1442    1.6422   23.1598 H   0  0  0  0  0  0  0  0  0  0  0  0
  1 11  1  0  0  0  0
  1 21  1  0  0  0  0
  2  3  1  0  0  0  0
  2 22  2  0  0  0  0
  3 23  2  0  0  0  0
  4  6  1  0  0  0  0
  4 14  2  0  0  0  0
  5 12  1  0  0  0  0
  5 13  2  0  0  0  0
  6  8  1  0  0  0  0
  6 24  1  0  0  0  0
  7 21  1  0  0  0  0
  7 22  1  0  0  0  0
  7 23  1  0  0  0  0
  9 15  1  0  0  0  0
 10 16  1  0  0  0  0
 11 15  1  0  0  0  0
 12 21  2  0  0  0  0
 13 22  1  0  0  0  0
 14 27  1  0  0  0  0
 16 25  1  0  0  0  0
 17 19  2  0  0  0  0
 17 25  1  0  0  0  0
 18 20  1  0  0  0  0
 18 25  2  0  0  0  0
 19 26  1  0  0  0  0
 20 26  2  0  0  0  0
 23 27  1  0  0  0  0
 24 26  1  0  0  0  0
 24 27  2  0  0  0  0
  8 28  1  0  0  0  0
  8 29  1  0  0  0  0
  8 30  1  0  0  0  0
  9 31  1  0  0  0  0
  9 32  1  0  0  0  0
  9 33  1  0  0  0  0
 10 34  1  0  0  0  0
 10 35  1  0  0  0  0
 10 36  1  0  0  0  0
 11 37  1  0  0  0  0
 11 38  1  0  0  0  0
 12 39  1  0  0  0  0
 13 40  1  0  0  0  0
 14 41  1  0  0  0  0
 15 42  1  0  0  0  0
 15 43  1  0  0  0  0
 16 44  1  0  0  0  0
 16 45  1  0  0  0  0
 17 46  1  0  0  0  0
 18 47  1  0  0  0  0
 19 48  1  0  0  0  0
 20 49  1  0  0  0  0
M  END
> <pdb_id>
5U7K

> <uniprot_id>
O00408

> <usmiles>
O(C=1N2C(=NN=C2C=NC1)C3=C(N(N=C3)C)c4ccc(cc4)CC)CCC

$$$$
7YG_A_1387
          07202403123D 1   1.00000     0.00000     0
            
 54 56  0  0  0  0            999 V2000
   42.2388    1.6850   32.4272 S   0  0  0  0  0  0  0  0  0  0  0  0
   41.1421    1.4111   31.5150 O   0  0  0  0  0  0  0  0  0  0  0  0
   42.5755    0.7983   33.5190 O   0  0  0  0  0  0  0  0  0  0  0  0
   38.6218   10.9960   34.3622 O   0  0  0  0  0  0  0  0  0  0  0  0
   39.8957   10.6213   36.5780 N   0  0  0  0  0  0  0  0  0  0  0  0
   43.5692    2.0752   31.4279 N   0  0  0  0  0  0  0  0  0  0  0  0
   36.6339   11.7016   30.7794 N   0  0  0  0  0  0  0  0  0  0  0  0
   41.1484    8.6350   36.7200 N   0  0  0  0  0  0  0  0  0  0  0  0
   38.5211    9.2704   32.8119 N   0  0  0  0  0  0  0  0  0  0  0  0
   40.2227    7.8707   34.1873 N   0  0  0  0  0  0  0  0  0  0  0  0
   46.0339    0.8528   30.1915 N   0  0  0  0  0  0  0  0  0  0  0  0
   46.0300   -0.3977   31.0034 C   0  0  0  0  0  0  0  0  0  0  0  0
   45.3340    0.7321   28.8830 C   0  0  0  0  0  0  0  0  0  0  0  0
   44.9049    2.1866   32.0395 C   0  0  0  0  0  0  0  0  0  0  0  0
   36.3210   10.9016   29.7481 C   0  0  0  0  0  0  0  0  0  0  0  0
   37.3499   11.1679   31.7739 C   0  0  0  0  0  0  0  0  0  0  0  0
   41.5042    7.4831   36.1371 C   0  0  0  0  0  0  0  0  0  0  0  0
   45.9090    2.1810   30.8925 C   0  0  0  0  0  0  0  0  0  0  0  0
   36.6805    9.5667   29.6729 C   0  0  0  0  0  0  0  0  0  0  0  0
   42.0383    3.4665   34.5649 C   0  0  0  0  0  0  0  0  0  0  0  0
   41.5236    4.3465   32.3888 C   0  0  0  0  0  0  0  0  0  0  0  0
   37.4096    9.0355   30.7232 C   0  0  0  0  0  0  0  0  0  0  0  0
   41.7792    4.7074   35.1143 C   0  0  0  0  0  0  0  0  0  0  0  0
   41.2551    5.5746   32.9633 C   0  0  0  0  0  0  0  0  0  0  0  0
   38.9620    9.8920   33.9646 C   0  0  0  0  0  0  0  0  0  0  0  0
   41.9058    3.2886   33.1956 C   0  0  0  0  0  0  0  0  0  0  0  0
   40.3202    9.4221   36.0105 C   0  0  0  0  0  0  0  0  0  0  0  0
   37.7545    9.8424   31.7874 C   0  0  0  0  0  0  0  0  0  0  0  0
   41.0460    7.0801   34.8994 C   0  0  0  0  0  0  0  0  0  0  0  0
   39.8897    9.0442   34.7494 C   0  0  0  0  0  0  0  0  0  0  0  0
   41.3783    5.7809   34.3264 C   0  0  0  0  0  0  0  0  0  0  0  0
   39.2797   11.2241   36.0708 H   0  0  0  0  0  0  0  0  0  0  0  0
   40.2069   10.8794   37.4926 H   0  0  0  0  0  0  0  0  0  0  0  0
   43.3673    2.9560   30.9995 H   0  0  0  0  0  0  0  0  0  0  0  0
   38.7762    8.3104   32.6964 H   0  0  0  0  0  0  0  0  0  0  0  0
   46.5160   -0.2387   31.8628 H   0  0  0  0  0  0  0  0  0  0  0  0
   45.0865   -0.6654   31.1986 H   0  0  0  0  0  0  0  0  0  0  0  0
   46.4849   -1.1277   30.4933 H   0  0  0  0  0  0  0  0  0  0  0  0
   45.3789    1.6061   28.3991 H   0  0  0  0  0  0  0  0  0  0  0  0
   45.7757    0.0234   28.3328 H   0  0  0  0  0  0  0  0  0  0  0  0
   44.3774    0.4857   29.0381 H   0  0  0  0  0  0  0  0  0  0  0  0
   45.0717    1.4110   32.6483 H   0  0  0  0  0  0  0  0  0  0  0  0
   44.9774    3.0388   32.5577 H   0  0  0  0  0  0  0  0  0  0  0  0
   35.7981   11.2922   28.9904 H   0  0  0  0  0  0  0  0  0  0  0  0
   37.6055   11.7522   32.5441 H   0  0  0  0  0  0  0  0  0  0  0  0
   42.1366    6.8820   36.6256 H   0  0  0  0  0  0  0  0  0  0  0  0
   45.6231    2.8648   30.2213 H   0  0  0  0  0  0  0  0  0  0  0  0
   46.8060    2.4283   31.2590 H   0  0  0  0  0  0  0  0  0  0  0  0
   36.4224    9.0052   28.8867 H   0  0  0  0  0  0  0  0  0  0  0  0
   42.3184    2.7043   35.1485 H   0  0  0  0  0  0  0  0  0  0  0  0
   41.4426    4.2234   31.3997 H   0  0  0  0  0  0  0  0  0  0  0  0
   37.6841    8.0740   30.7103 H   0  0  0  0  0  0  0  0  0  0  0  0
   41.8824    4.8366   36.1005 H   0  0  0  0  0  0  0  0  0  0  0  0
   40.9646    6.3329   32.3796 H   0  0  0  0  0  0  0  0  0  0  0  0
  1  2  2  0  0  0  0
  1  3  2  0  0  0  0
  1  6  1  0  0  0  0
  1 26  1  0  0  0  0
  4 25  2  0  0  0  0
  5 27  1  0  0  0  0
  6 14  1  0  0  0  0
  7 15  2  0  0  0  0
  7 16  1  0  0  0  0
  8 17  1  0  0  0  0
  8 27  2  0  0  0  0
  9 25  1  0  0  0  0
  9 28  1  0  0  0  0
 10 29  1  0  0  0  0
 10 30  2  0  0  0  0
 11 12  1  0  0  0  0
 11 13  1  0  0  0  0
 11 18  1  0  0  0  0
 14 18  1  0  0  0  0
 15 19  1  0  0  0  0
 16 28  2  0  0  0  0
 17 29  2  0  0  0  0
 19 22  2  0  0  0  0
 20 23  1  0  0  0  0
 20 26  2  0  0  0  0
 21 24  2  0  0  0  0
 21 26  1  0  0  0  0
 22 28  1  0  0  0  0
 23 31  2  0  0  0  0
 24 31  1  0  0  0  0
 25 30  1  0  0  0  0
 27 30  1  0  0  0  0
 29 31  1  0  0  0  0
  5 32  1  0  0  0  0
  5 33  1  0  0  0  0
  6 34  1  0  0  0  0
  9 35  1  0  0  0  0
 12 36  1  0  0  0  0
 12 37  1  0  0  0  0
 12 38  1  0  0  0  0
 13 39  1  0  0  0  0
 13 40  1  0  0  0  0
 13 41  1  0  0  0  0
 14 42  1  0  0  0  0
 14 43  1  0  0  0  0
 15 44  1  0  0  0  0
 16 45  1  0  0  0  0
 17 46  1  0  0  0  0
 18 47  1  0  0  0  0
 18 48  1  0  0  0  0
 19 49  1  0  0  0  0
 20 50  1  0  0  0  0
 21 51  1  0  0  0  0
 22 52  1  0  0  0  0
 23 53  1  0  0  0  0
 24 54  1  0  0  0  0
M  END
> <pdb_id>
4ACC

> <uniprot_id>
P49841

> <usmiles>
S(=O)(=O)(NCCN(C)C)c1ccc(c2nc(c(nc2)N)C(=O)Nc3cnccc3)cc1

$$$$
801_A_246
          07192419343D 1   1.00000     0.00000     0
            
 33 35  0  0  0  0            999 V2000
   48.2257   25.1664   51.5139 O   0  0  0  0  0  0  0  0  0  0  0  0
   47.2542   18.4069   53.9368 N   0  0  0  0  0  0  0  0  0  0  0  0
   46.1319   16.9169   52.6280 N   0  3  0  0  0  0  0  0  0  0  0  0
   46.0110   24.7959   48.5843 N   0  0  0  0  0  0  0  0  0  0  0  0
   46.9031   22.6693   51.3222 N   0  0  0  0  0  0  0  0  0  0  0  0
   45.9331   22.2432   49.3788 N   0  0  0  0  0  0  0  0  0  0  0  0
   46.0960   26.0016   48.0512 C   0  0  0  0  0  0  0  0  0  0  0  0
   46.8865   26.9840   48.6413 C   0  0  0  0  0  0  0  0  0  0  0  0
   47.5890   26.6751   49.7989 C   0  0  0  0  0  0  0  0  0  0  0  0
   45.5263   19.8745   49.6956 C   0  0  0  0  0  0  0  0  0  0  0  0
   45.7278   18.8474   50.6457 C   0  0  0  0  0  0  0  0  0  0  0  0
   46.7646   20.4394   52.1465 C   0  0  0  0  0  0  0  0  0  0  0  0
   46.5859   18.1251   52.8417 C   0  0  0  0  0  0  0  0  0  0  0  0
   47.4914   25.4019   50.3516 C   0  0  0  0  0  0  0  0  0  0  0  0
   46.4940   23.1336   50.1515 C   0  0  0  0  0  0  0  0  0  0  0  0
   46.5560   21.4147   51.1949 C   0  0  0  0  0  0  0  0  0  0  0  0
   45.9653   21.1353   50.0158 C   0  0  0  0  0  0  0  0  0  0  0  0
   46.3575   19.1248   51.8822 C   0  0  0  0  0  0  0  0  0  0  0  0
   46.6627   24.4516   49.6933 C   0  0  0  0  0  0  0  0  0  0  0  0
   47.6302   19.3361   54.0737 H   0  0  0  0  0  0  0  0  0  0  0  0
   47.4304   17.7453   54.6554 H   0  0  0  0  0  0  0  0  0  0  0  0
   45.5935   16.7485   51.7957 H   0  0  0  0  0  0  0  0  0  0  0  0
   46.2668   16.1354   53.2291 H   0  0  0  0  0  0  0  0  0  0  0  0
   45.5850   22.4549   48.4887 H   0  0  0  0  0  0  0  0  0  0  0  0
   45.5383   26.2364   47.1587 H   0  0  0  0  0  0  0  0  0  0  0  0
   46.9591   27.9746   48.2138 H   0  0  0  0  0  0  0  0  0  0  0  0
   48.2169   27.4200   50.2706 H   0  0  0  0  0  0  0  0  0  0  0  0
   45.0462   19.6931   48.7452 H   0  0  0  0  0  0  0  0  0  0  0  0
   45.3969   17.8513   50.4013 H   0  0  0  0  0  0  0  0  0  0  0  0
   47.2352   20.7040   53.0815 H   0  0  0  0  0  0  0  0  0  0  0  0
   48.1921   24.2688   51.9532 H   0  0  0  0  0  0  0  0  0  0  0  0
   45.4334   24.1135   48.1364 H   0  0  0  0  0  0  0  0  0  0  0  0
   47.3483   23.1412   52.0832 H   0  0  0  0  0  0  0  0  0  0  0  0
  1 14  1  0  0  0  0
  2 13  1  0  0  0  0
  2 20  1  0  0  0  0
  2 21  1  0  0  0  0
  3 13  2  0  0  0  0
  3 22  1  0  0  0  0
  3 23  1  0  0  0  0
  4  7  1  0  0  0  0
  4 19  1  0  0  0  0
  5 15  1  0  0  0  0
  5 16  1  0  0  0  0
  6 15  1  0  0  0  0
  6 17  1  0  0  0  0
  6 24  1  0  0  0  0
  7  8  2  0  0  0  0
  7 25  1  0  0  0  0
  8  9  1  0  0  0  0
  8 26  1  0  0  0  0
  9 14  2  0  0  0  0
  9 27  1  0  0  0  0
 10 11  1  0  0  0  0
 10 17  2  0  0  0  0
 10 28  1  0  0  0  0
 11 18  2  0  0  0  0
 11 29  1  0  0  0  0
 12 16  2  0  0  0  0
 12 18  1  0  0  0  0
 12 30  1  0  0  0  0
 13 18  1  0  0  0  0
 14 19  1  0  0  0  0
 15 19  2  0  0  0  0
 16 17  1  0  0  0  0
  1 31  1  0  0  0  0
  4 32  1  0  0  0  0
  5 33  1  0  0  0  0
M  CHG  1   3   1
M  END
> <pdb_id>
1O32

> <uniprot_id>
P00760

> <usmiles>
OC=1\C(\NC=CC1)=C\2/Nc3c(N2)ccc(c3)C(=[NH2+])N

$$$$
802_A_246
          07192419343D 1   1.00000     0.00000     0
            
 32 34  0  0  0  0            999 V2000
   47.2402   27.6089   48.6496 F   0  0  0  0  0  0  0  0  0  0  0  0
   44.5599   23.2166   46.6204 O   0  0  0  0  0  0  0  0  0  0  0  0
   47.4387   18.8351   53.4868 N   0  0  0  0  0  0  0  0  0  0  0  0
   46.2057   17.2058   52.5969 N   0  3  0  0  0  0  0  0  0  0  0  0
   46.5051   22.7324   50.1634 N   0  0  0  0  0  0  0  0  0  0  0  0
   45.6170   21.8196   48.3577 N   0  0  0  0  0  0  0  0  0  0  0  0
   45.8526   26.6082   47.0018 C   0  0  0  0  0  0  0  0  0  0  0  0
   45.1555   25.5103   46.4922 C   0  0  0  0  0  0  0  0  0  0  0  0
   45.4995   19.5232   49.1567 C   0  0  0  0  0  0  0  0  0  0  0  0
   45.7912   18.7184   50.2629 C   0  0  0  0  0  0  0  0  0  0  0  0
   46.6729   25.2660   48.8176 C   0  0  0  0  0  0  0  0  0  0  0  0
   46.6118   20.6598   51.4694 C   0  0  0  0  0  0  0  0  0  0  0  0
   46.5998   26.4892   48.1598 C   0  0  0  0  0  0  0  0  0  0  0  0
   46.6639   18.4349   52.5215 C   0  0  0  0  0  0  0  0  0  0  0  0
   45.2428   24.2943   47.1319 C   0  0  0  0  0  0  0  0  0  0  0  0
   46.0330   22.9157   48.9329 C   0  0  0  0  0  0  0  0  0  0  0  0
   46.2944   21.4399   50.3360 C   0  0  0  0  0  0  0  0  0  0  0  0
   45.8055   20.8668   49.2182 C   0  0  0  0  0  0  0  0  0  0  0  0
   46.3893   19.2724   51.4282 C   0  0  0  0  0  0  0  0  0  0  0  0
   46.0033   24.1544   48.2963 C   0  0  0  0  0  0  0  0  0  0  0  0
   47.8104   19.7600   53.4774 H   0  0  0  0  0  0  0  0  0  0  0  0
   47.6212   18.2308   54.2640 H   0  0  0  0  0  0  0  0  0  0  0  0
   45.6134   16.8330   51.8815 H   0  0  0  0  0  0  0  0  0  0  0  0
   46.4286   16.6393   53.3897 H   0  0  0  0  0  0  0  0  0  0  0  0
   45.2502   21.7283   47.4550 H   0  0  0  0  0  0  0  0  0  0  0  0
   45.7954   27.5669   46.5052 H   0  0  0  0  0  0  0  0  0  0  0  0
   44.5757   25.5995   45.5829 H   0  0  0  0  0  0  0  0  0  0  0  0
   45.0841   19.1053   48.2512 H   0  0  0  0  0  0  0  0  0  0  0  0
   45.5862   17.6648   50.1968 H   0  0  0  0  0  0  0  0  0  0  0  0
   47.2661   25.1760   49.7150 H   0  0  0  0  0  0  0  0  0  0  0  0
   47.0371   21.1259   52.3421 H   0  0  0  0  0  0  0  0  0  0  0  0
   44.6150   22.3279   47.0756 H   0  0  0  0  0  0  0  0  0  0  0  0
  1 13  1  0  0  0  0
  2 15  1  0  0  0  0
  3 14  1  0  0  0  0
  3 21  1  0  0  0  0
  3 22  1  0  0  0  0
  4 14  2  0  0  0  0
  4 23  1  0  0  0  0
  4 24  1  0  0  0  0
  5 16  2  0  0  0  0
  5 17  1  0  0  0  0
  6 16  1  0  0  0  0
  6 18  1  0  0  0  0
  6 25  1  0  0  0  0
  7  8  1  0  0  0  0
  7 13  2  0  0  0  0
  7 26  1  0  0  0  0
  8 15  2  0  0  0  0
  8 27  1  0  0  0  0
  9 10  1  0  0  0  0
  9 18  2  0  0  0  0
  9 28  1  0  0  0  0
 10 19  2  0  0  0  0
 10 29  1  0  0  0  0
 11 13  1  0  0  0  0
 11 20  2  0  0  0  0
 11 30  1  0  0  0  0
 12 17  2  0  0  0  0
 12 19  1  0  0  0  0
 12 31  1  0  0  0  0
 14 19  1  0  0  0  0
 15 20  1  0  0  0  0
 16 20  1  0  0  0  0
 17 18  1  0  0  0  0
  2 32  1  0  0  0  0
M  CHG  1   4   1
M  END
> <pdb_id>
1O35

> <uniprot_id>
P00760

> <usmiles>
Fc1cc(c(O)cc1)C2=Nc3c(N2)ccc(c3)C(=[NH2+])N

$$$$
812_A_710
          07202400553D 1   1.00000     0.00000     0
            
 43 45  0  0  0  0            999 V2000
   30.3971    0.7148   -0.9849 O   0  0  0  0  0  0  0  0  0  0  0  0
   33.2536    1.6118   -1.7376 N   0  0  0  0  0  0  0  0  0  0  0  0
   25.1592    0.1881    0.8277 N   0  0  0  0  0  0  0  0  0  0  0  0
   30.7329    1.6297   -2.0185 C   0  0  0  0  0  0  0  0  0  0  0  0
   34.2259    2.2480   -0.8586 C   0  0  0  0  0  0  0  0  0  0  0  0
   24.7977   -0.3329    2.1418 C   0  0  0  0  0  0  0  0  0  0  0  0
   33.5604    3.5123   -0.3259 C   0  0  0  0  0  0  0  0  0  0  0  0
   23.4408    2.7520    4.8611 C   0  0  0  0  0  0  0  0  0  0  0  0
   23.5079    1.4421    5.2860 C   0  0  0  0  0  0  0  0  0  0  0  0
   23.8135    3.0861    3.5636 C   0  0  0  0  0  0  0  0  0  0  0  0
   32.0792    3.2814   -0.5937 C   0  0  0  0  0  0  0  0  0  0  0  0
   28.0090    0.8020   -1.4189 C   0  0  0  0  0  0  0  0  0  0  0  0
   28.8421    0.1786    0.7750 C   0  0  0  0  0  0  0  0  0  0  0  0
   23.9408    0.4571    4.4075 C   0  0  0  0  0  0  0  0  0  0  0  0
   24.2443    2.1091    2.6791 C   0  0  0  0  0  0  0  0  0  0  0  0
   26.7054    0.6752   -0.9470 C   0  0  0  0  0  0  0  0  0  0  0  0
   27.5344    0.0607    1.2358 C   0  0  0  0  0  0  0  0  0  0  0  0
   29.0824    0.5618   -0.5509 C   0  0  0  0  0  0  0  0  0  0  0  0
   32.0424    2.4052   -1.8340 C   0  0  1  0  0  0  0  0  0  0  0  0
   26.4511    0.3090    0.3909 C   0  0  0  0  0  0  0  0  0  0  0  0
   24.3206    0.7732    3.0991 C   0  0  0  0  0  0  0  0  0  0  0  0
   33.0251    0.7090   -1.3734 H   0  0  0  0  0  0  0  0  0  0  0  0
   24.4236    0.4721    0.2128 H   0  0  0  0  0  0  0  0  0  0  0  0
   29.9906    2.2961   -2.0897 H   0  0  0  0  0  0  0  0  0  0  0  0
   30.8009    1.1142   -2.8726 H   0  0  0  0  0  0  0  0  0  0  0  0
   35.0534    2.4815   -1.3693 H   0  0  0  0  0  0  0  0  0  0  0  0
   34.4617    1.6366   -0.1033 H   0  0  0  0  0  0  0  0  0  0  0  0
   25.5978   -0.7804    2.5413 H   0  0  0  0  0  0  0  0  0  0  0  0
   24.0623   -1.0014    2.0312 H   0  0  0  0  0  0  0  0  0  0  0  0
   33.8891    4.3209   -0.8139 H   0  0  0  0  0  0  0  0  0  0  0  0
   33.7331    3.6206    0.6531 H   0  0  0  0  0  0  0  0  0  0  0  0
   23.1233    3.4638    5.4876 H   0  0  0  0  0  0  0  0  0  0  0  0
   23.2465    1.2025    6.2210 H   0  0  0  0  0  0  0  0  0  0  0  0
   23.7705    4.0397    3.2658 H   0  0  0  0  0  0  0  0  0  0  0  0
   31.6119    4.1495   -0.7613 H   0  0  0  0  0  0  0  0  0  0  0  0
   31.6496    2.8155    0.1799 H   0  0  0  0  0  0  0  0  0  0  0  0
   28.1780    1.0624   -2.3695 H   0  0  0  0  0  0  0  0  0  0  0  0
   29.6087   -0.0097    1.3889 H   0  0  0  0  0  0  0  0  0  0  0  0
   23.9816   -0.4934    4.7155 H   0  0  0  0  0  0  0  0  0  0  0  0
   24.4999    2.3563    1.7445 H   0  0  0  0  0  0  0  0  0  0  0  0
   25.9385    0.8461   -1.5656 H   0  0  0  0  0  0  0  0  0  0  0  0
   27.3682   -0.2055    2.1853 H   0  0  0  0  0  0  0  0  0  0  0  0
   32.1445    3.0075   -2.6257 H   0  0  0  0  0  0  0  0  0  0  0  0
  1  4  1  0  0  0  0
  1 18  1  0  0  0  0
  2  5  1  0  0  0  0
  2 19  1  0  0  0  0
  3  6  1  0  0  0  0
  3 20  1  0  0  0  0
  4 19  1  0  0  0  0
  5  7  1  0  0  0  0
  6 21  1  0  0  0  0
  7 11  1  0  0  0  0
  8  9  2  0  0  0  0
  8 10  1  0  0  0  0
  9 14  1  0  0  0  0
 10 15  2  0  0  0  0
 11 19  1  0  0  0  0
 12 16  1  0  0  0  0
 12 18  2  0  0  0  0
 13 17  2  0  0  0  0
 13 18  1  0  0  0  0
 14 21  2  0  0  0  0
 15 21  1  0  0  0  0
 16 20  2  0  0  0  0
 17 20  1  0  0  0  0
  2 22  1  0  0  0  0
  3 23  1  0  0  0  0
  4 24  1  0  0  0  0
  4 25  1  0  0  0  0
  5 26  1  0  0  0  0
  5 27  1  0  0  0  0
  6 28  1  0  0  0  0
  6 29  1  0  0  0  0
  7 30  1  0  0  0  0
  7 31  1  0  0  0  0
  8 32  1  0  0  0  0
  9 33  1  0  0  0  0
 10 34  1  0  0  0  0
 11 35  1  0  0  0  0
 11 36  1  0  0  0  0
 12 37  1  0  0  0  0
 13 38  1  0  0  0  0
 14 39  1  0  0  0  0
 15 40  1  0  0  0  0
 16 41  1  0  0  0  0
 17 42  1  0  0  0  0
 19 43  1  0  0  0  0
M  END
> <pdb_id>
3FUI

> <uniprot_id>
P09960

> <usmiles>
O(c1ccc(NCc2ccccc2)cc1)C[C@@H]3NCCC3

$$$$
819_B_501
          07192420423D 1   1.00000     0.00000     0
            
 54 56  0  0  0  0            999 V2000
   67.8699   38.4209   20.9417 S   0  0  0  0  0  0  0  0  0  0  0  0
   72.4762   35.7530   28.8304 O   0  0  0  0  0  0  0  0  0  0  0  0
   64.4950   34.4296   24.2397 O   0  0  0  0  0  0  0  0  0  0  0  0
   67.1029   32.2525   27.6060 O   0  0  0  0  0  0  0  0  0  0  0  0
   73.2792   36.5858   26.8867 O   0  0  0  0  0  0  0  0  0  0  0  0
   66.4126   36.1046   20.9914 N   0  0  0  0  0  0  0  0  0  0  0  0
   66.1920   35.1215   21.7429 N   0  0  0  0  0  0  0  0  0  0  0  0
   71.3177   37.4075   27.8437 N   0  0  0  0  0  0  0  0  0  0  0  0
   67.5722   36.4076   22.7815 N   0  0  0  0  0  0  0  0  0  0  0  0
   74.3482   34.5188   26.1381 C   0  0  0  0  0  0  0  0  0  0  0  0
   69.8649   31.2161   25.4134 C   0  0  0  0  0  0  0  0  0  0  0  0
   70.6857   33.5434   25.9636 C   0  0  0  0  0  0  0  0  0  0  0  0
   74.3961   35.6892   27.1230 C   0  0  0  0  0  0  0  0  0  0  0  0
   71.1612   38.4036   26.7645 C   0  0  0  0  0  0  0  0  0  0  0  0
   69.8192   36.8953   23.4989 C   0  0  0  0  0  0  0  0  0  0  0  0
   67.9220   37.4861   24.9114 C   0  0  0  0  0  0  0  0  0  0  0  0
   70.7007   37.3612   24.4926 C   0  0  0  0  0  0  0  0  0  0  0  0
   68.8076   37.9501   25.9043 C   0  0  0  0  0  0  0  0  0  0  0  0
   65.7917   33.3293   25.9178 C   0  0  0  0  0  0  0  0  0  0  0  0
   68.1322   33.8269   24.4520 C   0  0  0  0  0  0  0  0  0  0  0  0
   72.3437   36.5533   27.8989 C   0  0  0  0  0  0  0  0  0  0  0  0
   67.2661   36.9242   21.6043 C   0  0  0  0  0  0  0  0  0  0  0  0
   65.7166   34.0581   24.7138 C   0  0  0  0  0  0  0  0  0  0  0  0
   67.0294   32.8594   26.3923 C   0  0  0  0  0  0  0  0  0  0  0  0
   66.8906   35.2464   22.8902 C   0  0  0  0  0  0  0  0  0  0  0  0
   68.4231   36.9491   23.7018 C   0  0  0  0  0  0  0  0  0  0  0  0
   69.5505   32.5233   26.1523 C   0  0  0  0  0  0  0  0  0  0  0  0
   70.1955   37.8861   25.6939 C   0  0  0  0  0  0  0  0  0  0  0  0
   66.9008   34.3320   23.9814 C   0  0  0  0  0  0  0  0  0  0  0  0
   68.2026   33.0939   25.6528 C   0  0  0  0  0  0  0  0  0  0  0  0
   64.4259   34.9470   23.3868 H   0  0  0  0  0  0  0  0  0  0  0  0
   67.9820   31.9177   27.9451 H   0  0  0  0  0  0  0  0  0  0  0  0
   66.0144   36.2478   20.0854 H   0  0  0  0  0  0  0  0  0  0  0  0
   70.6256   37.3707   28.5645 H   0  0  0  0  0  0  0  0  0  0  0  0
   75.1210   33.9076   26.3089 H   0  0  0  0  0  0  0  0  0  0  0  0
   73.4924   34.0159   26.2593 H   0  0  0  0  0  0  0  0  0  0  0  0
   74.4000   34.8681   25.2025 H   0  0  0  0  0  0  0  0  0  0  0  0
   69.1154   30.5680   25.5489 H   0  0  0  0  0  0  0  0  0  0  0  0
   69.9718   31.4026   24.4368 H   0  0  0  0  0  0  0  0  0  0  0  0
   70.7123   30.8255   25.7729 H   0  0  0  0  0  0  0  0  0  0  0  0
   70.4610   34.3864   26.4523 H   0  0  0  0  0  0  0  0  0  0  0  0
   71.5375   33.1650   26.3260 H   0  0  0  0  0  0  0  0  0  0  0  0
   70.7969   33.7421   24.9899 H   0  0  0  0  0  0  0  0  0  0  0  0
   74.3458   35.3373   28.0577 H   0  0  0  0  0  0  0  0  0  0  0  0
   75.2533   36.1895   27.0009 H   0  0  0  0  0  0  0  0  0  0  0  0
   72.0527   38.5792   26.3468 H   0  0  0  0  0  0  0  0  0  0  0  0
   70.8008   39.2529   27.1502 H   0  0  0  0  0  0  0  0  0  0  0  0
   70.1838   36.5244   22.6448 H   0  0  0  0  0  0  0  0  0  0  0  0
   66.9348   37.5365   25.0622 H   0  0  0  0  0  0  0  0  0  0  0  0
   71.6885   37.3184   24.3432 H   0  0  0  0  0  0  0  0  0  0  0  0
   68.4484   38.3250   26.7589 H   0  0  0  0  0  0  0  0  0  0  0  0
   64.9583   33.1448   26.4388 H   0  0  0  0  0  0  0  0  0  0  0  0
   68.9662   33.9918   23.9255 H   0  0  0  0  0  0  0  0  0  0  0  0
   69.4659   32.3219   27.1281 H   0  0  0  0  0  0  0  0  0  0  0  0
  1 22  2  0  0  0  0
  2 21  2  0  0  0  0
  3 23  1  0  0  0  0
  4 24  1  0  0  0  0
  5 13  1  0  0  0  0
  5 21  1  0  0  0  0
  6  7  1  0  0  0  0
  6 22  1  0  0  0  0
  7 25  2  0  0  0  0
  8 14  1  0  0  0  0
  8 21  1  0  0  0  0
  9 22  1  0  0  0  0
  9 25  1  0  0  0  0
  9 26  1  0  0  0  0
 10 13  1  0  0  0  0
 11 27  1  0  0  0  0
 12 27  1  0  0  0  0
 14 28  1  0  0  0  0
 15 17  2  0  0  0  0
 15 26  1  0  0  0  0
 16 18  1  0  0  0  0
 16 26  2  0  0  0  0
 17 28  1  0  0  0  0
 18 28  2  0  0  0  0
 19 23  2  0  0  0  0
 19 24  1  0  0  0  0
 20 29  2  0  0  0  0
 20 30  1  0  0  0  0
 23 29  1  0  0  0  0
 24 30  2  0  0  0  0
 25 29  1  0  0  0  0
 27 30  1  0  0  0  0
  3 31  1  0  0  0  0
  4 32  1  0  0  0  0
  6 33  1  0  0  0  0
  8 34  1  0  0  0  0
 10 35  1  0  0  0  0
 10 36  1  0  0  0  0
 10 37  1  0  0  0  0
 11 38  1  0  0  0  0
 11 39  1  0  0  0  0
 11 40  1  0  0  0  0
 12 41  1  0  0  0  0
 12 42  1  0  0  0  0
 12 43  1  0  0  0  0
 13 44  1  0  0  0  0
 13 45  1  0  0  0  0
 14 46  1  0  0  0  0
 14 47  1  0  0  0  0
 15 48  1  0  0  0  0
 16 49  1  0  0  0  0
 17 50  1  0  0  0  0
 18 51  1  0  0  0  0
 19 52  1  0  0  0  0
 20 53  1  0  0  0  0
 27 54  1  0  0  0  0
M  END
> <pdb_id>
3HHU

> <uniprot_id>
P07900

> <usmiles>
S=C1N(c2ccc(cc2)CNC(=O)OCC)C(=NN1)c3c(O)cc(O)c(c3)C(C)C

$$$$
81I_A_401
          07202401193D 1   1.00000     0.00000     0
            
 56 60  0  0  0  0            999 V2000
   -2.6625   19.2539   -4.8190 F   0  0  0  0  0  0  0  0  0  0  0  0
  -12.9386   20.7701   -5.0445 O   0  0  0  0  0  0  0  0  0  0  0  0
  -19.2142   20.1454  -11.9002 O   0  0  0  0  0  0  0  0  0  0  0  0
  -16.6248   19.1839  -14.2036 O   0  0  0  0  0  0  0  0  0  0  0  0
  -17.0055   20.3479  -11.4766 N   0  0  0  0  0  0  0  0  0  0  0  0
  -15.0039   20.4889   -9.4251 N   0  0  0  0  0  0  0  0  0  0  0  0
  -12.1273   20.4949   -7.1674 N   0  0  0  0  0  0  0  0  0  0  0  0
  -16.8654   18.6767  -15.4654 C   0  0  0  0  0  0  0  0  0  0  0  0
  -15.5778   20.3676  -11.8450 C   0  0  0  0  0  0  0  0  0  0  0  0
  -17.2830   20.9463  -10.1631 C   0  0  0  0  0  0  0  0  0  0  0  0
  -14.7016   19.8290  -10.7059 C   0  0  0  0  0  0  0  0  0  0  0  0
  -16.4284   20.2938   -9.1086 C   0  0  0  0  0  0  0  0  0  0  0  0
  -12.6425   20.3957   -8.5363 C   0  0  0  0  0  0  0  0  0  0  0  0
  -18.1656   18.5297  -15.6709 C   0  0  0  0  0  0  0  0  0  0  0  0
  -18.8301   19.0144  -14.4768 C   0  0  0  0  0  0  0  0  0  0  0  0
   -4.9307   19.0728   -4.2313 C   0  0  0  0  0  0  0  0  0  0  0  0
   -4.2761   19.9778   -6.3581 C   0  0  0  0  0  0  0  0  0  0  0  0
   -9.7597   21.0628   -7.4888 C   0  0  0  0  0  0  0  0  0  0  0  0
  -10.3759   19.3943   -5.8757 C   0  0  0  0  0  0  0  0  0  0  0  0
   -6.2592   19.2435   -4.5760 C   0  0  0  0  0  0  0  0  0  0  0  0
   -5.6080   20.1690   -6.6787 C   0  0  0  0  0  0  0  0  0  0  0  0
   -8.4305   20.8870   -7.1459 C   0  0  0  0  0  0  0  0  0  0  0  0
   -9.0448   19.2099   -5.5605 C   0  0  0  0  0  0  0  0  0  0  0  0
  -14.4235   20.6934   -6.9816 C   0  0  0  0  0  0  0  0  0  0  0  0
  -13.1090   20.6754   -6.2550 C   0  0  0  0  0  0  0  0  0  0  0  0
   -3.9745   19.4258   -5.1452 C   0  0  0  0  0  0  0  0  0  0  0  0
  -18.0482   20.0165  -12.2755 C   0  0  0  0  0  0  0  0  0  0  0  0
  -17.8539   19.4478  -13.6494 C   0  0  0  0  0  0  0  0  0  0  0  0
  -14.1167   20.0356   -8.3289 C   0  0  1  0  0  0  0  0  0  0  0  0
  -10.7472   20.3258   -6.8423 C   0  0  0  0  0  0  0  0  0  0  0  0
   -6.6238   19.7699   -5.8148 C   0  0  0  0  0  0  0  0  0  0  0  0
   -8.0477   19.9623   -6.1740 C   0  0  0  0  0  0  0  0  0  0  0  0
  -16.1553   18.4513  -16.1325 H   0  0  0  0  0  0  0  0  0  0  0  0
  -15.3065   21.3085  -12.0479 H   0  0  0  0  0  0  0  0  0  0  0  0
  -15.4428   19.7993  -12.6567 H   0  0  0  0  0  0  0  0  0  0  0  0
  -18.2478   20.8138   -9.9360 H   0  0  0  0  0  0  0  0  0  0  0  0
  -17.0795   21.9249  -10.1954 H   0  0  0  0  0  0  0  0  0  0  0  0
  -14.8629   18.8467  -10.6101 H   0  0  0  0  0  0  0  0  0  0  0  0
  -13.7409   19.9883  -10.9334 H   0  0  0  0  0  0  0  0  0  0  0  0
  -16.6293   20.7037   -8.2189 H   0  0  0  0  0  0  0  0  0  0  0  0
  -16.6299   19.3148   -9.0777 H   0  0  0  0  0  0  0  0  0  0  0  0
  -12.1668   19.6800   -9.0476 H   0  0  0  0  0  0  0  0  0  0  0  0
  -12.5503   21.2670   -9.0183 H   0  0  0  0  0  0  0  0  0  0  0  0
  -18.6032   18.1574  -16.4893 H   0  0  0  0  0  0  0  0  0  0  0  0
  -19.8144   19.0257  -14.3009 H   0  0  0  0  0  0  0  0  0  0  0  0
   -4.6755   18.7015   -3.3386 H   0  0  0  0  0  0  0  0  0  0  0  0
   -3.5524   20.2369   -6.9977 H   0  0  0  0  0  0  0  0  0  0  0  0
  -10.0103   21.7189   -8.2006 H   0  0  0  0  0  0  0  0  0  0  0  0
  -11.0771   18.8565   -5.4078 H   0  0  0  0  0  0  0  0  0  0  0  0
   -6.9720   18.9844   -3.9243 H   0  0  0  0  0  0  0  0  0  0  0  0
   -5.8457   20.6023   -7.5480 H   0  0  0  0  0  0  0  0  0  0  0  0
   -7.7301   21.4340   -7.6042 H   0  0  0  0  0  0  0  0  0  0  0  0
   -8.7923   18.5232   -4.8788 H   0  0  0  0  0  0  0  0  0  0  0  0
  -14.7449   21.6316   -7.1100 H   0  0  0  0  0  0  0  0  0  0  0  0
  -15.1130   20.1704   -6.4805 H   0  0  0  0  0  0  0  0  0  0  0  0
  -14.1989   19.0437   -8.2329 H   0  0  0  0  0  0  0  0  0  0  0  0
  1 26  1  0  0  0  0
  2 25  2  0  0  0  0
  3 27  2  0  0  0  0
  4  8  1  0  0  0  0
  4 28  1  0  0  0  0
  5  9  1  0  0  0  0
  5 10  1  0  0  0  0
  5 27  1  0  0  0  0
  6 11  1  0  0  0  0
  6 12  1  0  0  0  0
  6 29  1  0  0  0  0
  7 13  1  0  0  0  0
  7 25  1  0  0  0  0
  7 30  1  0  0  0  0
  8 14  2  0  0  0  0
  9 11  1  0  0  0  0
 10 12  1  0  0  0  0
 13 29  1  0  0  0  0
 14 15  1  0  0  0  0
 15 28  2  0  0  0  0
 16 20  2  0  0  0  0
 16 26  1  0  0  0  0
 17 21  1  0  0  0  0
 17 26  2  0  0  0  0
 18 22  1  0  0  0  0
 18 30  2  0  0  0  0
 19 23  2  0  0  0  0
 19 30  1  0  0  0  0
 20 31  1  0  0  0  0
 21 31  2  0  0  0  0
 22 32  2  0  0  0  0
 23 32  1  0  0  0  0
 24 25  1  0  0  0  0
 24 29  1  0  0  0  0
 27 28  1  0  0  0  0
 31 32  1  0  0  0  0
  8 33  1  0  0  0  0
  9 34  1  0  0  0  0
  9 35  1  0  0  0  0
 10 36  1  0  0  0  0
 10 37  1  0  0  0  0
 11 38  1  0  0  0  0
 11 39  1  0  0  0  0
 12 40  1  0  0  0  0
 12 41  1  0  0  0  0
 13 42  1  0  0  0  0
 13 43  1  0  0  0  0
 14 44  1  0  0  0  0
 15 45  1  0  0  0  0
 16 46  1  0  0  0  0
 17 47  1  0  0  0  0
 18 48  1  0  0  0  0
 19 49  1  0  0  0  0
 20 50  1  0  0  0  0
 21 51  1  0  0  0  0
 22 52  1  0  0  0  0
 23 53  1  0  0  0  0
 24 54  1  0  0  0  0
 24 55  1  0  0  0  0
 29 56  1  0  0  0  0
M  END
> <pdb_id>
7PRM

> <uniprot_id>
Q99685

> <usmiles>
Fc1ccc(c2ccc(N3C(=O)C[C@@H](N4CCN(C(=O)C=5OC=CC5)CC4)C3)cc2)cc1

$$$$
82B_A_1334
          07202406023D 1   1.00000     0.00000     0
            
 66 71  0  0  0  0            999 V2000
    2.0993  -10.7479   -3.0912 Br  0  0  0  0  0  0  0  0  0  0  0  0
   -6.6366  -10.2484    5.9131 O   0  0  0  0  0  0  0  0  0  0  0  0
   -2.0376  -11.1369    1.7473 O   0  0  0  0  0  0  0  0  0  0  0  0
   -3.7841   -7.5184    0.8632 N   0  0  0  0  0  0  0  0  0  0  0  0
   -4.8345   -7.2084    1.7610 N   0  0  0  0  0  0  0  0  0  0  0  0
   -4.9581  -11.6593    5.5643 N   0  0  0  0  0  0  0  0  0  0  0  0
   -2.2590   -9.2933    0.4959 N   0  0  0  0  0  0  0  0  0  0  0  0
   -3.7090  -13.7712    8.3939 N   0  0  0  0  0  0  0  0  0  0  0  0
    0.2729  -11.9794    0.2820 N   0  0  0  0  0  0  0  0  0  0  0  0
   -5.2872   -9.9476    4.1193 N   0  0  0  0  0  0  0  0  0  0  0  0
    0.1369  -12.9189    1.4239 C   0  0  0  0  0  0  0  0  0  0  0  0
   -2.7144  -13.3789    9.3806 C   0  0  0  0  0  0  0  0  0  0  0  0
   -4.4657  -14.9918    8.6814 C   0  0  0  0  0  0  0  0  0  0  0  0
   -3.7903  -13.0293    7.1295 C   0  0  0  0  0  0  0  0  0  0  0  0
    1.2235  -12.1137   -0.6507 C   0  0  0  0  0  0  0  0  0  0  0  0
   -4.1839  -10.4342    3.2308 C   0  0  0  0  0  0  0  0  0  0  0  0
   -2.6589  -14.5913   10.3030 C   0  0  0  0  0  0  0  0  0  0  0  0
   -3.5676  -15.6713    9.7101 C   0  0  0  0  0  0  0  0  0  0  0  0
   -8.2674  -15.2435    6.5558 C   0  0  0  0  0  0  0  0  0  0  0  0
   -7.1933  -15.2945    5.6651 C   0  0  0  0  0  0  0  0  0  0  0  0
   -8.3196  -14.2432    7.5306 C   0  0  0  0  0  0  0  0  0  0  0  0
   -6.1702  -14.3523    5.7341 C   0  0  0  0  0  0  0  0  0  0  0  0
   -7.2923  -13.3037    7.6116 C   0  0  0  0  0  0  0  0  0  0  0  0
   -7.2458   -8.5472    3.5069 C   0  0  0  0  0  0  0  0  0  0  0  0
   -6.6264   -7.4255    4.3220 C   0  0  0  0  0  0  0  0  0  0  0  0
   -0.0608  -10.2602   -1.1418 C   0  0  0  0  0  0  0  0  0  0  0  0
   -5.6867  -10.5970    5.2206 C   0  0  0  0  0  0  0  0  0  0  0  0
   -1.6577  -10.4337    0.8299 C   0  0  0  0  0  0  0  0  0  0  0  0
    0.9898  -11.0650   -1.4868 C   0  0  0  0  0  0  0  0  0  0  0  0
   -3.3261   -8.7608    1.1798 C   0  0  0  0  0  0  0  0  0  0  0  0
   -5.1299  -12.3538    6.8294 C   0  0  2  0  0  0  0  0  0  0  0  0
   -0.5020  -10.8943    0.0140 C   0  0  0  0  0  0  0  0  0  0  0  0
   -4.9766   -8.3010    2.5276 C   0  0  0  0  0  0  0  0  0  0  0  0
   -6.2244  -13.3488    6.7110 C   0  0  0  0  0  0  0  0  0  0  0  0
   -3.9975   -9.2836    2.2742 C   0  0  0  0  0  0  0  0  0  0  0  0
   -5.7277   -8.5822    3.7588 C   0  0  0  0  0  0  0  0  0  0  0  0
   -3.4411   -6.9314    0.1299 H   0  0  0  0  0  0  0  0  0  0  0  0
   -4.2648  -11.9921    4.9251 H   0  0  0  0  0  0  0  0  0  0  0  0
   -1.9140   -8.7949   -0.2995 H   0  0  0  0  0  0  0  0  0  0  0  0
   -0.6326  -12.6374    1.9973 H   0  0  0  0  0  0  0  0  0  0  0  0
   -0.0258  -13.8429    1.0778 H   0  0  0  0  0  0  0  0  0  0  0  0
    0.9774  -12.9090    1.9656 H   0  0  0  0  0  0  0  0  0  0  0  0
   -3.0033  -12.5607    9.8778 H   0  0  0  0  0  0  0  0  0  0  0  0
   -1.8269  -13.2119    8.9511 H   0  0  0  0  0  0  0  0  0  0  0  0
   -4.5746  -15.5554    7.8626 H   0  0  0  0  0  0  0  0  0  0  0  0
   -5.3655  -14.7821    9.0639 H   0  0  0  0  0  0  0  0  0  0  0  0
   -3.5983  -13.6703    6.3864 H   0  0  0  0  0  0  0  0  0  0  0  0
   -3.0870  -12.3186    7.1467 H   0  0  0  0  0  0  0  0  0  0  0  0
    1.9335  -12.8147   -0.7174 H   0  0  0  0  0  0  0  0  0  0  0  0
   -4.4520  -11.2666    2.7459 H   0  0  0  0  0  0  0  0  0  0  0  0
   -3.3494  -10.6072    3.7539 H   0  0  0  0  0  0  0  0  0  0  0  0
   -2.9804  -14.3395   11.2158 H   0  0  0  0  0  0  0  0  0  0  0  0
   -1.7202  -14.9312   10.3622 H   0  0  0  0  0  0  0  0  0  0  0  0
   -3.0156  -16.3787    9.2687 H   0  0  0  0  0  0  0  0  0  0  0  0
   -4.1241  -16.0841   10.4311 H   0  0  0  0  0  0  0  0  0  0  0  0
   -8.9991  -15.9224    6.4963 H   0  0  0  0  0  0  0  0  0  0  0  0
   -7.1584  -16.0139    4.9715 H   0  0  0  0  0  0  0  0  0  0  0  0
   -9.0898  -14.2015    8.1670 H   0  0  0  0  0  0  0  0  0  0  0  0
   -5.4041  -14.3914    5.0927 H   0  0  0  0  0  0  0  0  0  0  0  0
   -7.3198  -12.5951    8.3167 H   0  0  0  0  0  0  0  0  0  0  0  0
   -7.5913   -8.3592    2.5875 H   0  0  0  0  0  0  0  0  0  0  0  0
   -7.8380   -9.2168    3.9552 H   0  0  0  0  0  0  0  0  0  0  0  0
   -6.8046   -7.3630    5.3040 H   0  0  0  0  0  0  0  0  0  0  0  0
   -6.5579   -6.5054    3.9364 H   0  0  0  0  0  0  0  0  0  0  0  0
   -0.4140   -9.4419   -1.5955 H   0  0  0  0  0  0  0  0  0  0  0  0
   -5.3467  -11.6958    7.5505 H   0  0  0  0  0  0  0  0  0  0  0  0
  1 29  1  0  0  0  0
  2 27  2  0  0  0  0
  3 28  2  0  0  0  0
  4  5  1  0  0  0  0
  4 30  1  0  0  0  0
  5 33  2  0  0  0  0
  6 27  1  0  0  0  0
  6 31  1  0  0  0  0
  7 28  1  0  0  0  0
  7 30  1  0  0  0  0
  8 12  1  0  0  0  0
  8 13  1  0  0  0  0
  8 14  1  0  0  0  0
  9 11  1  0  0  0  0
  9 15  1  0  0  0  0
  9 32  1  0  0  0  0
 10 16  1  0  0  0  0
 10 27  1  0  0  0  0
 10 36  1  0  0  0  0
 12 17  1  0  0  0  0
 13 18  1  0  0  0  0
 14 31  1  0  0  0  0
 15 29  2  0  0  0  0
 16 35  1  0  0  0  0
 17 18  1  0  0  0  0
 19 20  2  0  0  0  0
 19 21  1  0  0  0  0
 20 22  1  0  0  0  0
 21 23  2  0  0  0  0
 22 34  2  0  0  0  0
 23 34  1  0  0  0  0
 24 25  1  0  0  0  0
 24 36  1  0  0  0  0
 25 36  1  0  0  0  0
 26 29  1  0  0  0  0
 26 32  2  0  0  0  0
 28 32  1  0  0  0  0
 30 35  2  0  0  0  0
 31 34  1  0  0  0  0
 33 35  1  0  0  0  0
 33 36  1  0  0  0  0
  4 37  1  0  0  0  0
  6 38  1  0  0  0  0
  7 39  1  0  0  0  0
 11 40  1  0  0  0  0
 11 41  1  0  0  0  0
 11 42  1  0  0  0  0
 12 43  1  0  0  0  0
 12 44  1  0  0  0  0
 13 45  1  0  0  0  0
 13 46  1  0  0  0  0
 14 47  1  0  0  0  0
 14 48  1  0  0  0  0
 15 49  1  0  0  0  0
 16 50  1  0  0  0  0
 16 51  1  0  0  0  0
 17 52  1  0  0  0  0
 17 53  1  0  0  0  0
 18 54  1  0  0  0  0
 18 55  1  0  0  0  0
 19 56  1  0  0  0  0
 20 57  1  0  0  0  0
 21 58  1  0  0  0  0
 22 59  1  0  0  0  0
 23 60  1  0  0  0  0
 24 61  1  0  0  0  0
 24 62  1  0  0  0  0
 25 63  1  0  0  0  0
 25 64  1  0  0  0  0
 26 65  1  0  0  0  0
 31 66  1  0  0  0  0
M  END
> <pdb_id>
4BKY

> <uniprot_id>
Q14680

> <usmiles>
BrC1=CN(C(C(=O)NC=2NN=C3C2CN(C(=O)N[C@@H](c4ccccc4)CN5CCCC5)C36CC6)=C1)C

$$$$
82E_D_269
          07202410053D 1   1.00000     0.00000     0
            
 34 36  0  0  0  0            999 V2000
   12.0539  -25.7647   59.3859 S   0  0  0  0  0  0  0  0  0  0  0  0
    9.0892  -26.1382   59.5644 S   0  0  0  0  0  0  0  0  0  0  0  0
    9.0567  -24.6964   59.5060 O   0  0  0  0  0  0  0  0  0  0  0  0
    8.7684  -26.6230   60.8890 O   0  0  0  0  0  0  0  0  0  0  0  0
   21.7431  -29.2877   60.2919 O   0  0  0  0  0  0  0  0  0  0  0  0
    8.0584  -26.7593   58.5066 N   0  0  0  0  0  0  0  0  0  0  0  0
   16.4086  -25.8883   59.1903 N   0  0  0  0  0  0  0  0  0  0  0  0
   15.0146  -25.7091   59.0780 N   0  0  0  0  0  0  0  0  0  0  0  0
   16.5981  -27.2721   59.2957 N   0  0  0  0  0  0  0  0  0  0  0  0
   22.0215  -30.6532   60.6522 C   0  0  0  0  0  0  0  0  0  0  0  0
   15.4441  -27.9610   59.3214 C   0  0  0  0  0  0  0  0  0  0  0  0
   10.9011  -28.1054   59.1497 C   0  0  0  0  0  0  0  0  0  0  0  0
   12.2891  -28.3469   59.0317 C   0  0  0  0  0  0  0  0  0  0  0  0
   19.3257  -29.4924   60.4749 C   0  0  0  0  0  0  0  0  0  0  0  0
   20.3010  -27.6102   59.3542 C   0  0  0  0  0  0  0  0  0  0  0  0
   18.0654  -28.9729   60.2085 C   0  0  0  0  0  0  0  0  0  0  0  0
   19.0242  -27.1047   59.0925 C   0  0  0  0  0  0  0  0  0  0  0  0
   10.6225  -26.7529   59.3314 C   0  0  0  0  0  0  0  0  0  0  0  0
   13.0251  -27.1544   59.1246 C   0  0  0  0  0  0  0  0  0  0  0  0
   20.4682  -28.8083   60.0501 C   0  0  0  0  0  0  0  0  0  0  0  0
   14.5039  -26.9610   59.1253 C   0  0  0  0  0  0  0  0  0  0  0  0
   17.8434  -27.7740   59.4920 C   0  0  0  0  0  0  0  0  0  0  0  0
    8.0903  -27.7576   58.5568 H   0  0  0  0  0  0  0  0  0  0  0  0
    7.1333  -26.4443   58.7183 H   0  0  0  0  0  0  0  0  0  0  0  0
   23.0066  -30.7708   60.7773 H   0  0  0  0  0  0  0  0  0  0  0  0
   21.5483  -30.8762   61.5045 H   0  0  0  0  0  0  0  0  0  0  0  0
   21.7029  -31.2614   59.9252 H   0  0  0  0  0  0  0  0  0  0  0  0
   15.3006  -28.9424   59.4490 H   0  0  0  0  0  0  0  0  0  0  0  0
   10.2030  -28.8201   59.1078 H   0  0  0  0  0  0  0  0  0  0  0  0
   12.6949  -29.2512   58.8990 H   0  0  0  0  0  0  0  0  0  0  0  0
   19.4158  -30.3561   60.9709 H   0  0  0  0  0  0  0  0  0  0  0  0
   21.1053  -27.1066   59.0386 H   0  0  0  0  0  0  0  0  0  0  0  0
   17.2685  -29.4761   60.5428 H   0  0  0  0  0  0  0  0  0  0  0  0
   18.9422  -26.2360   58.6038 H   0  0  0  0  0  0  0  0  0  0  0  0
  1 18  1  0  0  0  0
  1 19  1  0  0  0  0
  2  3  2  0  0  0  0
  2  4  2  0  0  0  0
  2  6  1  0  0  0  0
  2 18  1  0  0  0  0
  5 10  1  0  0  0  0
  5 20  1  0  0  0  0
  7  8  2  0  0  0  0
  7  9  1  0  0  0  0
  8 21  1  0  0  0  0
  9 11  1  0  0  0  0
  9 22  1  0  0  0  0
 11 21  2  0  0  0  0
 12 13  1  0  0  0  0
 12 18  2  0  0  0  0
 13 19  2  0  0  0  0
 14 16  1  0  0  0  0
 14 20  2  0  0  0  0
 15 17  2  0  0  0  0
 15 20  1  0  0  0  0
 16 22  2  0  0  0  0
 17 22  1  0  0  0  0
 19 21  1  0  0  0  0
  6 23  1  0  0  0  0
  6 24  1  0  0  0  0
 10 25  1  0  0  0  0
 10 26  1  0  0  0  0
 10 27  1  0  0  0  0
 11 28  1  0  0  0  0
 12 29  1  0  0  0  0
 13 30  1  0  0  0  0
 14 31  1  0  0  0  0
 15 32  1  0  0  0  0
 16 33  1  0  0  0  0
 17 34  1  0  0  0  0
M  END
> <pdb_id>
5FL5

> <uniprot_id>
Q16790

> <usmiles>
S(=O)(=O)(N)C=1SC(C=2N=NN(c3ccc(OC)cc3)C2)=CC1

$$$$
82G_A_501
          07202414183D 1   1.00000     0.00000     0
            
 56 60  0  0  0  0            999 V2000
  -14.7355   25.9838  -19.7723 F   0  0  0  0  0  0  0  0  0  0  0  0
  -18.9278   24.9192  -22.4787 N   0  0  0  0  0  0  0  0  0  0  0  0
  -18.2153   22.4302  -27.1445 N   0  0  0  0  0  0  0  0  0  0  0  0
  -15.3648   24.1378  -22.7768 N   0  0  0  0  0  0  0  0  0  0  0  0
  -20.0251   24.9550  -23.4793 C   0  0  0  0  0  0  0  0  0  0  0  0
  -19.0396   26.1240  -21.6078 C   0  0  0  0  0  0  0  0  0  0  0  0
  -18.9372   21.6387  -28.1221 C   0  0  0  0  0  0  0  0  0  0  0  0
  -18.3721   22.2797  -25.7995 C   0  0  0  0  0  0  0  0  0  0  0  0
  -16.4581   24.9113  -22.1502 C   0  0  0  0  0  0  0  0  0  0  0  0
  -16.0215   22.8964  -23.2258 C   0  0  0  0  0  0  0  0  0  0  0  0
  -15.8889   24.8673  -28.5881 C   0  0  0  0  0  0  0  0  0  0  0  0
  -15.4285   25.3705  -27.3903 C   0  0  0  0  0  0  0  0  0  0  0  0
  -11.8884   27.4862  -21.4132 C   0  0  0  0  0  0  0  0  0  0  0  0
  -12.9379   27.2947  -20.5336 C   0  0  0  0  0  0  0  0  0  0  0  0
  -16.8355   23.8633  -28.6428 C   0  0  0  0  0  0  0  0  0  0  0  0
  -11.6062   26.5494  -22.3971 C   0  0  0  0  0  0  0  0  0  0  0  0
  -13.0993   23.2249  -22.7859 C   0  0  0  0  0  0  0  0  0  0  0  0
  -12.2592   24.3013  -23.4612 C   0  0  0  0  0  0  0  0  0  0  0  0
  -15.8935   24.8904  -26.1832 C   0  0  0  0  0  0  0  0  0  0  0  0
  -13.7210   26.1592  -20.6411 C   0  0  0  0  0  0  0  0  0  0  0  0
  -17.5941   24.7430  -23.1411 C   0  0  1  0  0  0  0  0  0  0  0  0
  -17.2958   23.4014  -27.4228 C   0  0  0  0  0  0  0  0  0  0  0  0
  -14.1446   23.9371  -21.9350 C   0  0  1  0  0  0  0  0  0  0  0  0
  -12.4005   25.4249  -22.4908 C   0  0  0  0  0  0  0  0  0  0  0  0
  -17.4045   23.3262  -23.6858 C   0  0  1  0  0  0  0  0  0  0  0  0
  -17.5392   23.1773  -25.1628 C   0  0  0  0  0  0  0  0  0  0  0  0
  -16.8546   23.8857  -26.1970 C   0  0  0  0  0  0  0  0  0  0  0  0
  -13.4447   25.2213  -21.6270 C   0  0  0  0  0  0  0  0  0  0  0  0
  -19.9626   24.1516  -24.0714 H   0  0  0  0  0  0  0  0  0  0  0  0
  -20.9067   24.9535  -23.0074 H   0  0  0  0  0  0  0  0  0  0  0  0
  -19.9446   25.7840  -24.0327 H   0  0  0  0  0  0  0  0  0  0  0  0
  -18.3061   26.1133  -20.9282 H   0  0  0  0  0  0  0  0  0  0  0  0
  -18.9628   26.9487  -22.1681 H   0  0  0  0  0  0  0  0  0  0  0  0
  -19.9249   26.1182  -21.1428 H   0  0  0  0  0  0  0  0  0  0  0  0
  -18.6661   21.9182  -29.0432 H   0  0  0  0  0  0  0  0  0  0  0  0
  -18.7231   20.6707  -27.9910 H   0  0  0  0  0  0  0  0  0  0  0  0
  -19.9202   21.7813  -28.0063 H   0  0  0  0  0  0  0  0  0  0  0  0
  -18.9857   21.6301  -25.3504 H   0  0  0  0  0  0  0  0  0  0  0  0
  -16.2071   25.8740  -22.0492 H   0  0  0  0  0  0  0  0  0  0  0  0
  -16.7003   24.5345  -21.2561 H   0  0  0  0  0  0  0  0  0  0  0  0
  -16.0893   22.2425  -22.4722 H   0  0  0  0  0  0  0  0  0  0  0  0
  -15.5127   22.4832  -23.9810 H   0  0  0  0  0  0  0  0  0  0  0  0
  -15.5269   25.2402  -29.4425 H   0  0  0  0  0  0  0  0  0  0  0  0
  -14.7431   26.0986  -27.3963 H   0  0  0  0  0  0  0  0  0  0  0  0
  -11.3260   28.3098  -21.3393 H   0  0  0  0  0  0  0  0  0  0  0  0
  -13.1297   27.9728  -19.8241 H   0  0  0  0  0  0  0  0  0  0  0  0
  -17.1676   23.4932  -29.5104 H   0  0  0  0  0  0  0  0  0  0  0  0
  -10.8413   26.6865  -23.0265 H   0  0  0  0  0  0  0  0  0  0  0  0
  -12.5200   22.6507  -22.2074 H   0  0  0  0  0  0  0  0  0  0  0  0
  -13.5481   22.6572  -23.4760 H   0  0  0  0  0  0  0  0  0  0  0  0
  -12.6261   24.5436  -24.3594 H   0  0  0  0  0  0  0  0  0  0  0  0
  -11.3053   24.0164  -23.5566 H   0  0  0  0  0  0  0  0  0  0  0  0
  -15.5477   25.2563  -25.3191 H   0  0  0  0  0  0  0  0  0  0  0  0
  -17.4957   25.4059  -23.8832 H   0  0  0  0  0  0  0  0  0  0  0  0
  -14.3529   23.4235  -21.1027 H   0  0  0  0  0  0  0  0  0  0  0  0
  -18.0784   22.7305  -23.2488 H   0  0  0  0  0  0  0  0  0  0  0  0
  1 20  1  0  0  0  0
  2  5  1  0  0  0  0
  2  6  1  0  0  0  0
  2 21  1  0  0  0  0
  3  7  1  0  0  0  0
  3  8  1  0  0  0  0
  3 22  1  0  0  0  0
  4  9  1  0  0  0  0
  4 10  1  0  0  0  0
  4 23  1  0  0  0  0
  8 26  2  0  0  0  0
  9 21  1  0  0  0  0
 10 25  1  0  0  0  0
 11 12  2  0  0  0  0
 11 15  1  0  0  0  0
 12 19  1  0  0  0  0
 13 14  2  0  0  0  0
 13 16  1  0  0  0  0
 14 20  1  0  0  0  0
 15 22  2  0  0  0  0
 16 24  2  0  0  0  0
 17 18  1  0  0  0  0
 17 23  1  0  0  0  0
 18 24  1  0  0  0  0
 19 27  2  0  0  0  0
 20 28  2  0  0  0  0
 21 25  1  0  0  0  0
 22 27  1  0  0  0  0
 23 28  1  0  0  0  0
 24 28  1  0  0  0  0
 25 26  1  0  0  0  0
 26 27  1  0  0  0  0
  5 29  1  0  0  0  0
  5 30  1  0  0  0  0
  5 31  1  0  0  0  0
  6 32  1  0  0  0  0
  6 33  1  0  0  0  0
  6 34  1  0  0  0  0
  7 35  1  0  0  0  0
  7 36  1  0  0  0  0
  7 37  1  0  0  0  0
  8 38  1  0  0  0  0
  9 39  1  0  0  0  0
  9 40  1  0  0  0  0
 10 41  1  0  0  0  0
 10 42  1  0  0  0  0
 11 43  1  0  0  0  0
 12 44  1  0  0  0  0
 13 45  1  0  0  0  0
 14 46  1  0  0  0  0
 15 47  1  0  0  0  0
 16 48  1  0  0  0  0
 17 49  1  0  0  0  0
 17 50  1  0  0  0  0
 18 51  1  0  0  0  0
 18 52  1  0  0  0  0
 19 53  1  0  0  0  0
 21 54  1  0  0  0  0
 23 55  1  0  0  0  0
 25 56  1  0  0  0  0
M  END
> <pdb_id>
5U8F

> <uniprot_id>
O75530

> <usmiles>
Fc1c2c(ccc1)CC[C@@H]2N3C[C@H](N(C)C)[C@@H](C=4c5c(N(C4)C)cccc5)C3

$$$$
82I_A_201
          07212401333D 1   1.00000     0.00000     0
            
 19 19  0  0  0  0            999 V2000
  -17.4497  -20.5331  -22.5745 Cl  0  0  0  0  0  0  0  0  0  0  0  0
  -16.5614  -23.3361  -23.0695 O   0  0  0  0  0  0  0  0  0  0  0  0
  -13.6544  -22.4945  -21.2471 N   0  0  0  0  0  0  0  0  0  0  0  0
  -15.2442  -19.2460  -21.0018 N   0  0  0  0  0  0  0  0  0  0  0  0
  -14.5872  -23.1684  -21.9733 N   0  0  0  0  0  0  0  0  0  0  0  0
  -14.2912  -18.4349  -20.2631 C   0  0  0  0  0  0  0  0  0  0  0  0
  -14.2513  -24.5570  -22.2643 C   0  0  0  0  0  0  0  0  0  0  0  0
  -13.8869  -21.2630  -20.9487 C   0  0  0  0  0  0  0  0  0  0  0  0
  -15.7772  -22.6511  -22.4225 C   0  0  0  0  0  0  0  0  0  0  0  0
  -15.9870  -21.2681  -22.0489 C   0  0  0  0  0  0  0  0  0  0  0  0
  -15.0704  -20.5388  -21.3129 C   0  0  0  0  0  0  0  0  0  0  0  0
  -16.0921  -18.8078  -21.3000 H   0  0  0  0  0  0  0  0  0  0  0  0
  -14.6515  -17.5078  -20.1606 H   0  0  0  0  0  0  0  0  0  0  0  0
  -14.1417  -18.8363  -19.3595 H   0  0  0  0  0  0  0  0  0  0  0  0
  -13.4245  -18.4026  -20.7610 H   0  0  0  0  0  0  0  0  0  0  0  0
  -14.9874  -24.9732  -22.7982 H   0  0  0  0  0  0  0  0  0  0  0  0
  -13.3997  -24.5914  -22.7874 H   0  0  0  0  0  0  0  0  0  0  0  0
  -14.1364  -25.0589  -21.4071 H   0  0  0  0  0  0  0  0  0  0  0  0
  -13.1897  -20.7751  -20.4234 H   0  0  0  0  0  0  0  0  0  0  0  0
  1 10  1  0  0  0  0
  2  9  2  0  0  0  0
  3  5  1  0  0  0  0
  3  8  2  0  0  0  0
  4  6  1  0  0  0  0
  4 11  1  0  0  0  0
  5  7  1  0  0  0  0
  5  9  1  0  0  0  0
  8 11  1  0  0  0  0
  9 10  1  0  0  0  0
 10 11  2  0  0  0  0
  4 12  1  0  0  0  0
  6 13  1  0  0  0  0
  6 14  1  0  0  0  0
  6 15  1  0  0  0  0
  7 16  1  0  0  0  0
  7 17  1  0  0  0  0
  7 18  1  0  0  0  0
  8 19  1  0  0  0  0
M  END
> <pdb_id>
5MLI

> <uniprot_id>
O60885

> <usmiles>
ClC=1C(=O)N(N=CC1NC)C

$$$$
82I_A_201
          07202405143D 1   1.00000     0.00000     0
            
 19 19  0  0  0  0            999 V2000
   -1.8439   11.4925    9.0387 Cl  0  0  0  0  0  0  0  0  0  0  0  0
   -2.7783   11.6826   11.7952 O   0  0  0  0  0  0  0  0  0  0  0  0
    0.4311   13.1183   12.5769 N   0  0  0  0  0  0  0  0  0  0  0  0
    1.0465   12.5608    9.0184 N   0  0  0  0  0  0  0  0  0  0  0  0
   -0.8484   12.6315   12.6716 N   0  0  0  0  0  0  0  0  0  0  0  0
    2.5014   12.6393    8.9230 C   0  0  0  0  0  0  0  0  0  0  0  0
   -1.3915   12.6829   14.0148 C   0  0  0  0  0  0  0  0  0  0  0  0
    1.0270   13.0534   11.4119 C   0  0  0  0  0  0  0  0  0  0  0  0
   -1.6134   12.0941   11.6237 C   0  0  0  0  0  0  0  0  0  0  0  0
   -0.9237   12.1150   10.3518 C   0  0  0  0  0  0  0  0  0  0  0  0
    0.4050   12.5664   10.1819 C   0  0  0  0  0  0  0  0  0  0  0  0
    0.5122   12.5005    8.1753 H   0  0  0  0  0  0  0  0  0  0  0  0
    2.7739   12.6201    7.9611 H   0  0  0  0  0  0  0  0  0  0  0  0
    2.8175   13.4904    9.3421 H   0  0  0  0  0  0  0  0  0  0  0  0
    2.9092   11.8611    9.4006 H   0  0  0  0  0  0  0  0  0  0  0  0
   -2.3214   12.3151   14.0128 H   0  0  0  0  0  0  0  0  0  0  0  0
   -0.8187   12.1377   14.6270 H   0  0  0  0  0  0  0  0  0  0  0  0
   -1.4089   13.6313   14.3313 H   0  0  0  0  0  0  0  0  0  0  0  0
    1.9776   13.3595   11.3603 H   0  0  0  0  0  0  0  0  0  0  0  0
  1 10  1  0  0  0  0
  2  9  2  0  0  0  0
  3  5  1  0  0  0  0
  3  8  2  0  0  0  0
  4  6  1  0  0  0  0
  4 11  1  0  0  0  0
  5  7  1  0  0  0  0
  5  9  1  0  0  0  0
  8 11  1  0  0  0  0
  9 10  1  0  0  0  0
 10 11  2  0  0  0  0
  4 12  1  0  0  0  0
  6 13  1  0  0  0  0
  6 14  1  0  0  0  0
  6 15  1  0  0  0  0
  7 16  1  0  0  0  0
  7 17  1  0  0  0  0
  7 18  1  0  0  0  0
  8 19  1  0  0  0  0
M  END
> <pdb_id>
6YQW

> <uniprot_id>
Q9H8M2

> <usmiles>
ClC=1C(=O)N(N=CC1NC)C

$$$$
82I_A_901
          07192419583D 1   1.00000     0.00000     0
            
 19 19  0  0  0  0            999 V2000
  -18.7233   -6.3639    9.7871 Cl  0  0  0  0  0  0  0  0  0  0  0  0
  -21.1134   -4.6677   10.2786 O   0  0  0  0  0  0  0  0  0  0  0  0
  -19.7332   -4.0076   13.4719 N   0  0  0  0  0  0  0  0  0  0  0  0
  -17.0793   -6.2016   12.3271 N   0  0  0  0  0  0  0  0  0  0  0  0
  -20.5520   -4.0290   12.3790 N   0  0  0  0  0  0  0  0  0  0  0  0
  -16.1292   -6.1797   13.4387 C   0  0  0  0  0  0  0  0  0  0  0  0
  -21.7551   -3.2102   12.4996 C   0  0  0  0  0  0  0  0  0  0  0  0
  -18.6450   -4.7154   13.4275 C   0  0  0  0  0  0  0  0  0  0  0  0
  -20.3213   -4.7178   11.2144 C   0  0  0  0  0  0  0  0  0  0  0  0
  -19.0933   -5.4692   11.2165 C   0  0  0  0  0  0  0  0  0  0  0  0
  -18.2341   -5.5160   12.3114 C   0  0  0  0  0  0  0  0  0  0  0  0
  -16.8552   -6.7615   11.5294 H   0  0  0  0  0  0  0  0  0  0  0  0
  -15.3482   -6.7651   13.2212 H   0  0  0  0  0  0  0  0  0  0  0  0
  -15.8125   -5.2431   13.5881 H   0  0  0  0  0  0  0  0  0  0  0  0
  -16.5775   -6.5162   14.2669 H   0  0  0  0  0  0  0  0  0  0  0  0
  -22.2937   -3.2835   11.6603 H   0  0  0  0  0  0  0  0  0  0  0  0
  -22.3000   -3.5305   13.2745 H   0  0  0  0  0  0  0  0  0  0  0  0
  -21.4953   -2.2558   12.6467 H   0  0  0  0  0  0  0  0  0  0  0  0
  -18.0498   -4.7007   14.2310 H   0  0  0  0  0  0  0  0  0  0  0  0
  1 10  1  0  0  0  0
  2  9  2  0  0  0  0
  3  5  1  0  0  0  0
  3  8  2  0  0  0  0
  4  6  1  0  0  0  0
  4 11  1  0  0  0  0
  5  7  1  0  0  0  0
  5  9  1  0  0  0  0
  8 11  1  0  0  0  0
  9 10  1  0  0  0  0
 10 11  2  0  0  0  0
  4 12  1  0  0  0  0
  6 13  1  0  0  0  0
  6 14  1  0  0  0  0
  6 15  1  0  0  0  0
  7 16  1  0  0  0  0
  7 17  1  0  0  0  0
  7 18  1  0  0  0  0
  8 19  1  0  0  0  0
M  END
> <pdb_id>
5MKX

> <uniprot_id>
Q92831

> <usmiles>
ClC=1C(=O)N(N=CC1NC)C

$$$$
82V_A_201
          07212401333D 1   1.00000     0.00000     0
            
 45 49  0  0  0  0            999 V2000
  -16.8932  -20.9005  -22.9355 S   0  0  0  0  0  0  0  0  0  0  0  0
  -16.4566  -24.0367  -23.3320 O   0  0  0  0  0  0  0  0  0  0  0  0
  -12.4106  -25.2370  -17.0858 O   0  0  0  0  0  0  0  0  0  0  0  0
  -13.0381  -16.3466  -17.2901 O   0  0  0  0  0  0  0  0  0  0  0  0
  -13.4706  -15.6109  -19.9637 O   0  0  0  0  0  0  0  0  0  0  0  0
  -14.3907  -22.2040  -20.3265 O   0  0  0  0  0  0  0  0  0  0  0  0
  -13.5454  -24.1761  -19.4531 N   0  0  0  0  0  0  0  0  0  0  0  0
  -16.3324  -19.6331  -21.9466 C   0  0  0  0  0  0  0  0  0  0  0  0
  -11.8182  -24.0528  -17.4729 C   0  0  0  0  0  0  0  0  0  0  0  0
  -12.4643  -26.1023  -18.1452 C   0  0  0  0  0  0  0  0  0  0  0  0
  -12.3371  -15.2441  -17.8649 C   0  0  0  0  0  0  0  0  0  0  0  0
  -13.0483  -14.6409  -19.0284 C   0  0  0  0  0  0  0  0  0  0  0  0
  -12.5841  -23.3414  -18.6209 C   0  0  0  0  0  0  0  0  0  0  0  0
  -13.4478  -25.6421  -19.2240 C   0  0  0  0  0  0  0  0  0  0  0  0
  -13.9748  -18.4991  -17.7768 C   0  0  0  0  0  0  0  0  0  0  0  0
  -14.5695  -19.3986  -18.6906 C   0  0  0  0  0  0  0  0  0  0  0  0
  -14.9697  -24.1761  -21.4620 C   0  0  0  0  0  0  0  0  0  0  0  0
  -14.3996  -17.7655  -20.3693 C   0  0  0  0  0  0  0  0  0  0  0  0
  -15.9029  -22.0314  -22.0775 C   0  0  0  0  0  0  0  0  0  0  0  0
  -14.4402  -23.5860  -20.3961 C   0  0  2  0  0  0  0  0  0  0  0  0
  -15.8706  -23.4592  -22.4167 C   0  0  0  0  0  0  0  0  0  0  0  0
  -13.5987  -17.2162  -18.1759 C   0  0  0  0  0  0  0  0  0  0  0  0
  -13.8159  -16.8375  -19.5031 C   0  0  0  0  0  0  0  0  0  0  0  0
  -15.2014  -21.4550  -21.0993 C   0  0  0  0  0  0  0  0  0  0  0  0
  -14.8150  -19.0486  -20.0295 C   0  0  0  0  0  0  0  0  0  0  0  0
  -15.4442  -19.9907  -20.9925 C   0  0  0  0  0  0  0  0  0  0  0  0
  -17.0506  -23.5209  -23.9493 H   0  0  0  0  0  0  0  0  0  0  0  0
  -16.6393  -18.6885  -22.0636 H   0  0  0  0  0  0  0  0  0  0  0  0
  -10.8877  -24.2478  -17.7829 H   0  0  0  0  0  0  0  0  0  0  0  0
  -11.7849  -23.4397  -16.6836 H   0  0  0  0  0  0  0  0  0  0  0  0
  -12.7501  -27.0008  -17.8120 H   0  0  0  0  0  0  0  0  0  0  0  0
  -11.5525  -26.1714  -18.5501 H   0  0  0  0  0  0  0  0  0  0  0  0
  -11.4396  -15.5620  -18.1705 H   0  0  0  0  0  0  0  0  0  0  0  0
  -12.2204  -14.5407  -17.1637 H   0  0  0  0  0  0  0  0  0  0  0  0
  -13.8508  -14.1472  -18.6933 H   0  0  0  0  0  0  0  0  0  0  0  0
  -12.4305  -14.0014  -19.4859 H   0  0  0  0  0  0  0  0  0  0  0  0
  -13.1120  -22.5973  -18.2114 H   0  0  0  0  0  0  0  0  0  0  0  0
  -11.9012  -22.9615  -19.2449 H   0  0  0  0  0  0  0  0  0  0  0  0
  -13.1725  -26.0665  -20.0867 H   0  0  0  0  0  0  0  0  0  0  0  0
  -14.3566  -25.9702  -18.9662 H   0  0  0  0  0  0  0  0  0  0  0  0
  -13.8216  -18.7862  -16.8312 H   0  0  0  0  0  0  0  0  0  0  0  0
  -14.8235  -20.3127  -18.3746 H   0  0  0  0  0  0  0  0  0  0  0  0
  -14.7574  -25.1382  -21.6329 H   0  0  0  0  0  0  0  0  0  0  0  0
  -14.5304  -17.4816  -21.3192 H   0  0  0  0  0  0  0  0  0  0  0  0
  -15.2546  -23.6794  -19.8233 H   0  0  0  0  0  0  0  0  0  0  0  0
  1  8  1  0  0  0  0
  1 19  1  0  0  0  0
  2 21  1  0  0  0  0
  3  9  1  0  0  0  0
  3 10  1  0  0  0  0
  4 11  1  0  0  0  0
  4 22  1  0  0  0  0
  5 12  1  0  0  0  0
  5 23  1  0  0  0  0
  6 20  1  0  0  0  0
  6 24  1  0  0  0  0
  7 13  1  0  0  0  0
  7 14  1  0  0  0  0
  7 20  1  0  0  0  0
  8 26  2  0  0  0  0
  9 13  1  0  0  0  0
 10 14  1  0  0  0  0
 11 12  1  0  0  0  0
 15 16  2  0  0  0  0
 15 22  1  0  0  0  0
 16 25  1  0  0  0  0
 17 20  1  0  0  0  0
 17 21  2  0  0  0  0
 18 23  1  0  0  0  0
 18 25  2  0  0  0  0
 19 21  1  0  0  0  0
 19 24  2  0  0  0  0
 22 23  2  0  0  0  0
 24 26  1  0  0  0  0
 25 26  1  0  0  0  0
  2 27  1  0  0  0  0
  8 28  1  0  0  0  0
  9 29  1  0  0  0  0
  9 30  1  0  0  0  0
 10 31  1  0  0  0  0
 10 32  1  0  0  0  0
 11 33  1  0  0  0  0
 11 34  1  0  0  0  0
 12 35  1  0  0  0  0
 12 36  1  0  0  0  0
 13 37  1  0  0  0  0
 13 38  1  0  0  0  0
 14 39  1  0  0  0  0
 14 40  1  0  0  0  0
 15 41  1  0  0  0  0
 16 42  1  0  0  0  0
 17 43  1  0  0  0  0
 18 44  1  0  0  0  0
 20 45  1  0  0  0  0
M  END
> <pdb_id>
5U28

> <uniprot_id>
O60885

> <usmiles>
S1C2=C(O[C@H](N3CCOCC3)C=C2O)C(c4cc5OCCOc5cc4)=C1

$$$$
82V_B_501
          07202411433D 1   1.00000     0.00000     0
            
 43 47  0  0  0  0            999 V2000
   14.5188   10.7078   16.0277 S   0  0  0  0  0  0  0  0  0  0  0  0
   16.9596   12.7959   16.1052 O   0  0  0  0  0  0  0  0  0  0  0  0
   14.8024   16.0095   22.0144 O   0  0  0  0  0  0  0  0  0  0  0  0
    7.4339   11.8039   20.3500 O   0  0  0  0  0  0  0  0  0  0  0  0
    7.6210   10.5052   17.8729 O   0  0  0  0  0  0  0  0  0  0  0  0
   13.7083   13.6532   18.3917 O   0  0  0  0  0  0  0  0  0  0  0  0
   14.5682   15.6244   19.3711 N   0  0  0  0  0  0  0  0  0  0  0  0
   12.9411   10.4689   16.7152 C   0  0  0  0  0  0  0  0  0  0  0  0
   13.4453   16.0738   21.6329 C   0  0  0  0  0  0  0  0  0  0  0  0
   15.6419   16.9293   21.2923 C   0  0  0  0  0  0  0  0  0  0  0  0
    6.2636   11.4491   19.6271 C   0  0  0  0  0  0  0  0  0  0  0  0
    6.5289   10.2216   18.7633 C   0  0  0  0  0  0  0  0  0  0  0  0
   13.2609   15.8387   20.1174 C   0  0  0  0  0  0  0  0  0  0  0  0
   15.4977   16.7592   19.7586 C   0  0  0  0  0  0  0  0  0  0  0  0
    9.8150   12.2424   20.2274 C   0  0  0  0  0  0  0  0  0  0  0  0
   11.0464   12.1553   19.5534 C   0  0  0  0  0  0  0  0  0  0  0  0
   15.9166   14.2304   17.6936 C   0  0  0  0  0  0  0  0  0  0  0  0
    9.9915   10.9674   17.7679 C   0  0  0  0  0  0  0  0  0  0  0  0
   14.7678   12.1673   16.8593 C   0  0  0  0  0  0  0  0  0  0  0  0
   14.8535   14.4654   18.4815 C   0  0  0  0  0  0  0  0  0  0  0  0
   15.9566   13.0363   16.8164 C   0  0  0  0  0  0  0  0  0  0  0  0
    8.6308   11.7007   19.6693 C   0  0  0  0  0  0  0  0  0  0  0  0
    8.7294   11.0595   18.4246 C   0  0  0  0  0  0  0  0  0  0  0  0
   13.6851   12.4888   17.6360 C   0  0  0  0  0  0  0  0  0  0  0  0
   11.2018   11.5039   18.2935 C   0  0  0  0  0  0  0  0  0  0  0  0
   12.5278   11.4451   17.5763 C   0  0  0  0  0  0  0  0  0  0  0  0
   12.3761    9.6735   16.4960 H   0  0  0  0  0  0  0  0  0  0  0  0
   13.0865   16.9778   21.8657 H   0  0  0  0  0  0  0  0  0  0  0  0
   12.9353   15.3739   22.1329 H   0  0  0  0  0  0  0  0  0  0  0  0
   16.5949   16.7664   21.5477 H   0  0  0  0  0  0  0  0  0  0  0  0
   15.3857   17.8638   21.5397 H   0  0  0  0  0  0  0  0  0  0  0  0
    5.9934   12.2129   19.0410 H   0  0  0  0  0  0  0  0  0  0  0  0
    5.5263   11.2462   20.2714 H   0  0  0  0  0  0  0  0  0  0  0  0
    6.7651    9.4450   19.3474 H   0  0  0  0  0  0  0  0  0  0  0  0
    5.7108   10.0022   18.2317 H   0  0  0  0  0  0  0  0  0  0  0  0
   12.6880   15.0290   19.9905 H   0  0  0  0  0  0  0  0  0  0  0  0
   12.8013   16.6366   19.7274 H   0  0  0  0  0  0  0  0  0  0  0  0
   15.1377   17.6102   19.3763 H   0  0  0  0  0  0  0  0  0  0  0  0
   16.4017   16.5763   19.3721 H   0  0  0  0  0  0  0  0  0  0  0  0
    9.7745   12.6955   21.1180 H   0  0  0  0  0  0  0  0  0  0  0  0
   11.8516   12.5697   19.9776 H   0  0  0  0  0  0  0  0  0  0  0  0
   16.6878   14.8671   17.6992 H   0  0  0  0  0  0  0  0  0  0  0  0
   10.0293   10.4981   16.8857 H   0  0  0  0  0  0  0  0  0  0  0  0
  1  8  1  0  0  0  0
  1 19  1  0  0  0  0
  2 21  2  0  0  0  0
  3  9  1  0  0  0  0
  3 10  1  0  0  0  0
  4 11  1  0  0  0  0
  4 22  1  0  0  0  0
  5 12  1  0  0  0  0
  5 23  1  0  0  0  0
  6 20  1  0  0  0  0
  6 24  1  0  0  0  0
  7 13  1  0  0  0  0
  7 14  1  0  0  0  0
  7 20  1  0  0  0  0
  8 26  2  0  0  0  0
  9 13  1  0  0  0  0
 10 14  1  0  0  0  0
 11 12  1  0  0  0  0
 15 16  1  0  0  0  0
 15 22  2  0  0  0  0
 16 25  2  0  0  0  0
 17 20  2  0  0  0  0
 17 21  1  0  0  0  0
 18 23  2  0  0  0  0
 18 25  1  0  0  0  0
 19 21  1  0  0  0  0
 19 24  2  0  0  0  0
 22 23  1  0  0  0  0
 24 26  1  0  0  0  0
 25 26  1  0  0  0  0
  8 27  1  0  0  0  0
  9 28  1  0  0  0  0
  9 29  1  0  0  0  0
 10 30  1  0  0  0  0
 10 31  1  0  0  0  0
 11 32  1  0  0  0  0
 11 33  1  0  0  0  0
 12 34  1  0  0  0  0
 12 35  1  0  0  0  0
 13 36  1  0  0  0  0
 13 37  1  0  0  0  0
 14 38  1  0  0  0  0
 14 39  1  0  0  0  0
 15 40  1  0  0  0  0
 16 41  1  0  0  0  0
 17 42  1  0  0  0  0
 18 43  1  0  0  0  0
M  END
> <pdb_id>
7USJ

> <uniprot_id>
O60885

> <usmiles>
S1C=2C(=O)C=C(OC2C(c3cc4OCCOc4cc3)=C1)N5CCOCC5

$$$$
83Q_B_601
          07202408163D 1   1.00000     0.00000     0
            
 46 48  0  0  0  0            999 V2000
   14.5375   20.5551    7.3515 Cl  0  0  0  0  0  0  0  0  0  0  0  0
   17.1798   20.7682    8.5008 Cl  0  0  0  0  0  0  0  0  0  0  0  0
   19.8991   20.1670    6.8738 S   0  0  0  0  0  0  0  0  0  0  0  0
   29.2036   22.5112    3.0487 N   0  0  0  0  0  0  0  0  0  0  0  0
   22.4046   18.3980    6.6026 N   0  0  0  0  0  0  0  0  0  0  0  0
   21.0057   21.2123    4.6572 N   0  0  0  0  0  0  0  0  0  0  0  0
   23.2497   19.4433    4.6881 N   0  0  0  0  0  0  0  0  0  0  0  0
   24.1114   20.5488    2.7290 N   0  0  0  0  0  0  0  0  0  0  0  0
   27.3284   21.6896    1.2850 C   0  0  0  0  0  0  0  0  0  0  0  0
   21.9653   21.3031    3.7354 C   0  0  0  0  0  0  0  0  0  0  0  0
   16.7847   19.6499    4.4275 C   0  0  0  0  0  0  0  0  0  0  0  0
   15.6835   19.9320    5.1782 C   0  0  0  0  0  0  0  0  0  0  0  0
   18.0478   19.7273    4.9620 C   0  0  0  0  0  0  0  0  0  0  0  0
   27.8299   22.6875    3.5008 C   0  0  0  0  0  0  0  0  0  0  0  0
   24.3341   22.0088    2.1728 C   0  0  0  0  0  0  0  0  0  0  0  0
   25.3040   19.8253    2.8945 C   0  0  0  0  0  0  0  0  0  0  0  0
   25.5539   22.7234    2.6713 C   0  0  0  0  0  0  0  0  0  0  0  0
   26.5272   20.6493    3.3500 C   0  0  0  0  0  0  0  0  0  0  0  0
   21.1111   20.2630    5.6399 C   0  0  0  0  0  0  0  0  0  0  0  0
   15.8933   20.2327    6.4594 C   0  0  0  0  0  0  0  0  0  0  0  0
   22.2488   19.3780    5.6317 C   0  0  0  0  0  0  0  0  0  0  0  0
   17.1334   20.3116    6.9822 C   0  0  0  0  0  0  0  0  0  0  0  0
   18.2427   20.0599    6.2797 C   0  0  0  0  0  0  0  0  0  0  0  0
   23.1374   20.4048    3.6956 C   0  0  0  0  0  0  0  0  0  0  0  0
   26.7868   21.9485    2.6789 C   0  0  0  0  0  0  0  0  0  0  0  0
   29.7857   22.9416    3.5805 H   0  0  0  0  0  0  0  0  0  0  0  0
   29.3296   22.7989    2.2216 H   0  0  0  0  0  0  0  0  0  0  0  0
   21.7618   17.8488    6.7606 H   0  0  0  0  0  0  0  0  0  0  0  0
   23.1301   18.2775    7.0489 H   0  0  0  0  0  0  0  0  0  0  0  0
   26.6600   21.3625    0.6632 H   0  0  0  0  0  0  0  0  0  0  0  0
   27.7031   22.4767    0.8612 H   0  0  0  0  0  0  0  0  0  0  0  0
   28.0388   21.0293    1.2608 H   0  0  0  0  0  0  0  0  0  0  0  0
   21.8345   21.9827    3.1137 H   0  0  0  0  0  0  0  0  0  0  0  0
   16.6745   19.4022    3.5376 H   0  0  0  0  0  0  0  0  0  0  0  0
   14.8314   19.9120    4.8072 H   0  0  0  0  0  0  0  0  0  0  0  0
   18.7833   19.5499    4.4216 H   0  0  0  0  0  0  0  0  0  0  0  0
   27.6529   23.6405    3.5400 H   0  0  0  0  0  0  0  0  0  0  0  0
   27.7950   22.4423    4.4382 H   0  0  0  0  0  0  0  0  0  0  0  0
   24.3632   22.0024    1.2033 H   0  0  0  0  0  0  0  0  0  0  0  0
   23.5619   22.5649    2.3578 H   0  0  0  0  0  0  0  0  0  0  0  0
   25.1618   19.0925    3.5141 H   0  0  0  0  0  0  0  0  0  0  0  0
   25.5199   19.3563    2.0728 H   0  0  0  0  0  0  0  0  0  0  0  0
   25.6705   23.5289    2.1427 H   0  0  0  0  0  0  0  0  0  0  0  0
   25.3665   23.0593    3.5615 H   0  0  0  0  0  0  0  0  0  0  0  0
   27.3432   20.1337    3.2467 H   0  0  0  0  0  0  0  0  0  0  0  0
   26.4692   20.8504    4.2965 H   0  0  0  0  0  0  0  0  0  0  0  0
  1 20  1  0  0  0  0
  2 22  1  0  0  0  0
  3 19  1  0  0  0  0
  3 23  1  0  0  0  0
  4 14  1  0  0  0  0
  4 26  1  0  0  0  0
  4 27  1  0  0  0  0
  5 21  1  0  0  0  0
  5 28  1  0  0  0  0
  5 29  1  0  0  0  0
  6 10  2  0  0  0  0
  6 19  1  0  0  0  0
  7 21  1  0  0  0  0
  7 24  2  0  0  0  0
  8 15  1  0  0  0  0
  8 16  1  0  0  0  0
  8 24  1  0  0  0  0
  9 25  1  0  0  0  0
  9 30  1  0  0  0  0
  9 31  1  0  0  0  0
  9 32  1  0  0  0  0
 10 24  1  0  0  0  0
 10 33  1  0  0  0  0
 11 12  2  0  0  0  0
 11 13  1  0  0  0  0
 11 34  1  0  0  0  0
 12 20  1  0  0  0  0
 12 35  1  0  0  0  0
 13 23  2  0  0  0  0
 13 36  1  0  0  0  0
 14 25  1  0  0  0  0
 14 37  1  0  0  0  0
 14 38  1  0  0  0  0
 15 17  1  0  0  0  0
 15 39  1  0  0  0  0
 15 40  1  0  0  0  0
 16 18  1  0  0  0  0
 16 41  1  0  0  0  0
 16 42  1  0  0  0  0
 17 25  1  0  0  0  0
 17 43  1  0  0  0  0
 17 44  1  0  0  0  0
 18 25  1  0  0  0  0
 18 45  1  0  0  0  0
 18 46  1  0  0  0  0
 19 21  2  0  0  0  0
 20 22  2  0  0  0  0
 22 23  1  0  0  0  0
M  END
> <pdb_id>
7VXG

> <uniprot_id>
Q06124

> <usmiles>
Clc1c(Cl)cccc1Sc2ncc(nc2N)N3CCC(CN)(CC3)C

$$$$
83S_B_301
          07202411413D 1   1.00000     0.00000     0
            
 42 44  0  0  0  0            999 V2000
  -25.6467   87.8761   24.5850 O   0  0  0  0  0  0  0  0  0  0  0  0
  -32.7865   89.7051   24.6864 O   0  0  0  0  0  0  0  0  0  0  0  0
  -30.3847   91.4624   24.9508 O   0  0  0  0  0  0  0  0  0  0  0  0
  -32.2283   89.5461   22.5038 N   0  0  0  0  0  0  0  0  0  0  0  0
  -28.5729   85.6471   22.9991 C   0  0  0  0  0  0  0  0  0  0  0  0
  -28.5874   85.4513   25.5777 C   0  0  0  0  0  0  0  0  0  0  0  0
  -26.3625   88.6368   25.3062 C   0  0  0  0  0  0  0  0  0  0  0  0
  -31.3044   89.4070   21.4048 C   0  0  0  0  0  0  0  0  0  0  0  0
  -33.5561   89.7445   22.0004 C   0  0  0  0  0  0  0  0  0  0  0  0
  -32.5374   90.6700   17.9886 C   0  0  0  0  0  0  0  0  0  0  0  0
  -33.8625   90.8650   18.3333 C   0  0  0  0  0  0  0  0  0  0  0  0
  -31.6060   90.1980   18.9485 C   0  0  0  0  0  0  0  0  0  0  0  0
  -34.2884   90.5803   19.6505 C   0  0  0  0  0  0  0  0  0  0  0  0
  -28.4171   90.0810   25.1478 C   0  0  0  0  0  0  0  0  0  0  0  0
  -29.9039   87.9161   24.0914 C   0  0  0  0  0  0  0  0  0  0  0  0
  -31.9172   89.4213   23.8410 C   0  0  0  0  0  0  0  0  0  0  0  0
  -29.7454   90.2706   24.7974 C   0  0  0  0  0  0  0  0  0  0  0  0
  -28.1188   86.2788   24.2636 C   0  0  0  0  0  0  0  0  0  0  0  0
  -32.0323   89.9209   20.2186 C   0  0  0  0  0  0  0  0  0  0  0  0
  -33.3856   90.1111   20.5710 C   0  0  0  0  0  0  0  0  0  0  0  0
  -27.8351   88.8044   24.9655 C   0  0  0  0  0  0  0  0  0  0  0  0
  -30.4878   89.1896   24.2617 C   0  0  0  0  0  0  0  0  0  0  0  0
  -28.6064   87.7125   24.4186 C   0  0  0  0  0  0  0  0  0  0  0  0
  -31.3442   91.5530   24.6842 H   0  0  0  0  0  0  0  0  0  0  0  0
  -28.2597   86.1934   22.2223 H   0  0  0  0  0  0  0  0  0  0  0  0
  -28.1932   84.7244   22.9323 H   0  0  0  0  0  0  0  0  0  0  0  0
  -29.5717   85.5980   22.9909 H   0  0  0  0  0  0  0  0  0  0  0  0
  -28.2579   85.9162   26.3994 H   0  0  0  0  0  0  0  0  0  0  0  0
  -29.5859   85.4006   25.6012 H   0  0  0  0  0  0  0  0  0  0  0  0
  -28.2074   84.5270   25.5426 H   0  0  0  0  0  0  0  0  0  0  0  0
  -25.9641   89.1186   26.0866 H   0  0  0  0  0  0  0  0  0  0  0  0
  -31.0555   88.4472   21.2751 H   0  0  0  0  0  0  0  0  0  0  0  0
  -30.4786   89.9461   21.5704 H   0  0  0  0  0  0  0  0  0  0  0  0
  -34.0126   90.4816   22.4986 H   0  0  0  0  0  0  0  0  0  0  0  0
  -34.0913   88.9040   22.0845 H   0  0  0  0  0  0  0  0  0  0  0  0
  -32.2337   90.8633   17.0557 H   0  0  0  0  0  0  0  0  0  0  0  0
  -34.5145   91.2050   17.6555 H   0  0  0  0  0  0  0  0  0  0  0  0
  -30.6462   90.0688   18.6991 H   0  0  0  0  0  0  0  0  0  0  0  0
  -35.2438   90.7202   19.9105 H   0  0  0  0  0  0  0  0  0  0  0  0
  -27.8787   90.8353   25.5237 H   0  0  0  0  0  0  0  0  0  0  0  0
  -30.4505   87.1617   23.7278 H   0  0  0  0  0  0  0  0  0  0  0  0
  -27.1190   86.2959   24.2543 H   0  0  0  0  0  0  0  0  0  0  0  0
  1  7  2  0  0  0  0
  2 16  2  0  0  0  0
  3 17  1  0  0  0  0
  4  8  1  0  0  0  0
  4  9  1  0  0  0  0
  4 16  1  0  0  0  0
  5 18  1  0  0  0  0
  6 18  1  0  0  0  0
  7 21  1  0  0  0  0
  8 19  1  0  0  0  0
  9 20  1  0  0  0  0
 10 11  2  0  0  0  0
 10 12  1  0  0  0  0
 11 13  1  0  0  0  0
 12 19  2  0  0  0  0
 13 20  2  0  0  0  0
 14 17  1  0  0  0  0
 14 21  2  0  0  0  0
 15 22  1  0  0  0  0
 15 23  2  0  0  0  0
 16 22  1  0  0  0  0
 17 22  2  0  0  0  0
 18 23  1  0  0  0  0
 19 20  1  0  0  0  0
 21 23  1  0  0  0  0
  3 24  1  0  0  0  0
  5 25  1  0  0  0  0
  5 26  1  0  0  0  0
  5 27  1  0  0  0  0
  6 28  1  0  0  0  0
  6 29  1  0  0  0  0
  6 30  1  0  0  0  0
  7 31  1  0  0  0  0
  8 32  1  0  0  0  0
  8 33  1  0  0  0  0
  9 34  1  0  0  0  0
  9 35  1  0  0  0  0
 10 36  1  0  0  0  0
 11 37  1  0  0  0  0
 12 38  1  0  0  0  0
 13 39  1  0  0  0  0
 14 40  1  0  0  0  0
 15 41  1  0  0  0  0
 18 42  1  0  0  0  0
M  END
> <pdb_id>
5UC4

> <uniprot_id>
P08238

> <usmiles>
O=C(N1Cc2c(cccc2)C1)c3c(O)cc(c(c3)C(C)C)C=O

$$$$
841_A_302
          07192423263D 1   1.00000     0.00000     0
            
 45 47  0  0  0  0            999 V2000
   28.0928  -13.6493   -8.3244 O   0  0  0  0  0  0  0  0  0  0  0  0
   29.8360   -7.1041   -3.4608 N   0  0  0  0  0  0  0  0  0  0  0  0
   28.0143  -13.2397   -6.0365 N   0  0  0  0  0  0  0  0  0  0  0  0
   28.9615  -15.2040   -6.8868 N   0  0  0  0  0  0  0  0  0  0  0  0
   27.9957   -8.6924   -3.6256 N   0  0  0  0  0  0  0  0  0  0  0  0
   30.3974   -5.8436   -3.6855 C   0  0  0  0  0  0  0  0  0  0  0  0
   27.4738  -11.8840   -6.2814 C   0  0  0  0  0  0  0  0  0  0  0  0
   29.4850  -16.0695   -7.9514 C   0  0  0  0  0  0  0  0  0  0  0  0
   29.3692  -15.6174   -5.5546 C   0  0  0  0  0  0  0  0  0  0  0  0
   26.5975   -8.8422   -4.0042 C   0  0  0  0  0  0  0  0  0  0  0  0
   28.7891   -9.8283   -3.1837 C   0  0  0  0  0  0  0  0  0  0  0  0
   29.6395   -4.9679   -4.4137 C   0  0  0  0  0  0  0  0  0  0  0  0
   30.4580  -17.0034   -7.2517 C   0  0  0  0  0  0  0  0  0  0  0  0
   29.9442  -17.0325   -5.8251 C   0  0  0  0  0  0  0  0  0  0  0  0
   28.3671   -5.2318   -4.9819 C   0  0  0  0  0  0  0  0  0  0  0  0
   26.6094   -9.7914   -5.2516 C   0  0  0  0  0  0  0  0  0  0  0  0
   28.7865  -10.7350   -4.4782 C   0  0  0  0  0  0  0  0  0  0  0  0
   27.8602   -6.5004   -4.6615 C   0  0  0  0  0  0  0  0  0  0  0  0
   28.3387  -14.0176   -7.1159 C   0  0  0  0  0  0  0  0  0  0  0  0
   28.5912   -7.3796   -3.9013 C   0  0  0  0  0  0  0  0  0  0  0  0
   27.3919  -11.0839   -5.0039 C   0  0  0  0  0  0  0  0  0  0  0  0
   28.1397  -13.5799   -5.1046 H   0  0  0  0  0  0  0  0  0  0  0  0
   31.3005   -5.5964   -3.3343 H   0  0  0  0  0  0  0  0  0  0  0  0
   26.5575  -11.9652   -6.6736 H   0  0  0  0  0  0  0  0  0  0  0  0
   28.0712  -11.4072   -6.9261 H   0  0  0  0  0  0  0  0  0  0  0  0
   29.9564  -15.5266   -8.6465 H   0  0  0  0  0  0  0  0  0  0  0  0
   28.7449  -16.5884   -8.3790 H   0  0  0  0  0  0  0  0  0  0  0  0
   28.5892  -15.6543   -4.9300 H   0  0  0  0  0  0  0  0  0  0  0  0
   30.0668  -15.0060   -5.1809 H   0  0  0  0  0  0  0  0  0  0  0  0
   26.2016   -7.9553   -4.2422 H   0  0  0  0  0  0  0  0  0  0  0  0
   26.0738   -9.2514   -3.2571 H   0  0  0  0  0  0  0  0  0  0  0  0
   28.3605  -10.2947   -2.4099 H   0  0  0  0  0  0  0  0  0  0  0  0
   29.7168   -9.5510   -2.9335 H   0  0  0  0  0  0  0  0  0  0  0  0
   30.0190   -4.0543   -4.5594 H   0  0  0  0  0  0  0  0  0  0  0  0
   31.3904  -16.6440   -7.2898 H   0  0  0  0  0  0  0  0  0  0  0  0
   30.4356  -17.9160   -7.6598 H   0  0  0  0  0  0  0  0  0  0  0  0
   29.2285  -17.7240   -5.7267 H   0  0  0  0  0  0  0  0  0  0  0  0
   30.6905  -17.2325   -5.1901 H   0  0  0  0  0  0  0  0  0  0  0  0
   27.8776   -4.5759   -5.5565 H   0  0  0  0  0  0  0  0  0  0  0  0
   27.0284   -9.3060   -6.0189 H   0  0  0  0  0  0  0  0  0  0  0  0
   25.6656  -10.0282   -5.4823 H   0  0  0  0  0  0  0  0  0  0  0  0
   29.2620  -11.5880   -4.2634 H   0  0  0  0  0  0  0  0  0  0  0  0
   29.2806  -10.2506   -5.2002 H   0  0  0  0  0  0  0  0  0  0  0  0
   26.9546   -6.7676   -4.9911 H   0  0  0  0  0  0  0  0  0  0  0  0
   26.9121  -11.6252   -4.3134 H   0  0  0  0  0  0  0  0  0  0  0  0
  1 19  2  0  0  0  0
  2  6  2  0  0  0  0
  2 20  1  0  0  0  0
  3  7  1  0  0  0  0
  3 19  1  0  0  0  0
  4  8  1  0  0  0  0
  4  9  1  0  0  0  0
  4 19  1  0  0  0  0
  5 10  1  0  0  0  0
  5 11  1  0  0  0  0
  5 20  1  0  0  0  0
  6 12  1  0  0  0  0
  7 21  1  0  0  0  0
  8 13  1  0  0  0  0
  9 14  1  0  0  0  0
 10 16  1  0  0  0  0
 11 17  1  0  0  0  0
 12 15  2  0  0  0  0
 13 14  1  0  0  0  0
 15 18  1  0  0  0  0
 16 21  1  0  0  0  0
 17 21  1  0  0  0  0
 18 20  2  0  0  0  0
  3 22  1  0  0  0  0
  6 23  1  0  0  0  0
  7 24  1  0  0  0  0
  7 25  1  0  0  0  0
  8 26  1  0  0  0  0
  8 27  1  0  0  0  0
  9 28  1  0  0  0  0
  9 29  1  0  0  0  0
 10 30  1  0  0  0  0
 10 31  1  0  0  0  0
 11 32  1  0  0  0  0
 11 33  1  0  0  0  0
 12 34  1  0  0  0  0
 13 35  1  0  0  0  0
 13 36  1  0  0  0  0
 14 37  1  0  0  0  0
 14 38  1  0  0  0  0
 15 39  1  0  0  0  0
 16 40  1  0  0  0  0
 16 41  1  0  0  0  0
 17 42  1  0  0  0  0
 17 43  1  0  0  0  0
 18 44  1  0  0  0  0
 21 45  1  0  0  0  0
M  END
> <pdb_id>
5EZH

> <uniprot_id>
P9WMC0

> <usmiles>
O=C(N1CCCC1)NCC2CCN(c3ncccc3)CC2

$$$$
84J_B_301
          07202416593D 1   1.00000     0.00000     0
            
 44 46  0  0  0  0            999 V2000
  -17.1221   18.3019  -49.6350 Br  0  0  0  0  0  0  0  0  0  0  0  0
   -9.5967   20.8915  -53.3148 P   0  0  0  0  0  0  0  0  0  0  0  0
  -10.3608   19.7656  -53.9811 O   0  0  0  0  0  0  0  0  0  0  0  0
   -8.1837   21.0264  -53.8494 O   0  0  0  0  0  0  0  0  0  0  0  0
  -10.3304   22.1974  -53.4583 O   0  0  0  0  0  0  0  0  0  0  0  0
  -10.6934   14.2374  -51.5699 O   0  0  0  0  0  0  0  0  0  0  0  0
  -12.0855   16.3832  -52.6672 O   0  0  0  0  0  0  0  0  0  0  0  0
  -10.9188   20.4741  -51.1254 N   0  0  0  0  0  0  0  0  0  0  0  0
   -9.0465   15.7046  -50.8693 N   0  0  0  0  0  0  0  0  0  0  0  0
  -10.4378   17.7809  -51.8740 N   0  0  0  0  0  0  0  0  0  0  0  0
  -10.8529   21.3673  -48.8415 C   0  0  0  0  0  0  0  0  0  0  0  0
   -6.8263   18.4879  -49.9484 C   0  0  0  0  0  0  0  0  0  0  0  0
  -15.0126   20.2760  -49.4970 C   0  0  0  0  0  0  0  0  0  0  0  0
  -14.2815   17.9923  -49.8263 C   0  0  0  0  0  0  0  0  0  0  0  0
   -7.2988   17.1914  -50.0848 C   0  0  0  0  0  0  0  0  0  0  0  0
  -13.6822   20.6924  -49.5203 C   0  0  0  0  0  0  0  0  0  0  0  0
  -12.9692   18.4225  -49.8463 C   0  0  0  0  0  0  0  0  0  0  0  0
   -7.5406   19.5620  -50.4764 C   0  0  0  0  0  0  0  0  0  0  0  0
  -15.3026   18.9145  -49.6476 C   0  0  0  0  0  0  0  0  0  0  0  0
   -9.5348   20.5162  -51.5642 C   0  0  1  0  0  0  0  0  0  0  0  0
  -10.2051   15.5182  -51.4788 C   0  0  0  0  0  0  0  0  0  0  0  0
  -10.8931   16.5606  -52.0032 C   0  0  0  0  0  0  0  0  0  0  0  0
  -11.1859   20.1892  -49.7428 C   0  0  1  0  0  0  0  0  0  0  0  0
   -8.5149   16.9355  -50.7070 C   0  0  0  0  0  0  0  0  0  0  0  0
   -9.2584   18.0233  -51.2395 C   0  0  0  0  0  0  0  0  0  0  0  0
  -12.6549   19.7671  -49.6810 C   0  0  0  0  0  0  0  0  0  0  0  0
   -8.7448   19.3123  -51.1077 C   0  0  0  0  0  0  0  0  0  0  0  0
  -11.2830   19.7158  -53.5975 H   0  0  0  0  0  0  0  0  0  0  0  0
   -7.7207   21.7792  -53.3815 H   0  0  0  0  0  0  0  0  0  0  0  0
  -11.3800   19.7714  -51.6671 H   0  0  0  0  0  0  0  0  0  0  0  0
   -8.5493   14.9110  -50.5185 H   0  0  0  0  0  0  0  0  0  0  0  0
  -10.9636   18.5455  -52.2466 H   0  0  0  0  0  0  0  0  0  0  0  0
  -11.0528   21.1272  -47.8916 H   0  0  0  0  0  0  0  0  0  0  0  0
   -9.8825   21.5919  -48.9313 H   0  0  0  0  0  0  0  0  0  0  0  0
  -11.4041   22.1577  -49.1087 H   0  0  0  0  0  0  0  0  0  0  0  0
   -5.9655   18.6537  -49.4671 H   0  0  0  0  0  0  0  0  0  0  0  0
  -15.7497   20.9406  -49.3744 H   0  0  0  0  0  0  0  0  0  0  0  0
  -14.4944   17.0219  -49.9399 H   0  0  0  0  0  0  0  0  0  0  0  0
   -6.7567   16.4295  -49.7303 H   0  0  0  0  0  0  0  0  0  0  0  0
  -13.4644   21.6633  -49.4208 H   0  0  0  0  0  0  0  0  0  0  0  0
  -12.2346   17.7576  -49.9816 H   0  0  0  0  0  0  0  0  0  0  0  0
   -7.1889   20.4950  -50.4000 H   0  0  0  0  0  0  0  0  0  0  0  0
   -9.1214   21.3107  -51.1193 H   0  0  0  0  0  0  0  0  0  0  0  0
  -10.6220   19.4110  -49.4663 H   0  0  0  0  0  0  0  0  0  0  0  0
  1 19  1  0  0  0  0
  2  3  1  0  0  0  0
  2  4  1  0  0  0  0
  2  5  2  0  0  0  0
  2 20  1  0  0  0  0
  6 21  2  0  0  0  0
  7 22  2  0  0  0  0
  8 20  1  0  0  0  0
  8 23  1  0  0  0  0
  9 21  1  0  0  0  0
  9 24  1  0  0  0  0
 10 22  1  0  0  0  0
 10 25  1  0  0  0  0
 11 23  1  0  0  0  0
 12 15  1  0  0  0  0
 12 18  2  0  0  0  0
 13 16  2  0  0  0  0
 13 19  1  0  0  0  0
 14 17  1  0  0  0  0
 14 19  2  0  0  0  0
 15 24  2  0  0  0  0
 16 26  1  0  0  0  0
 17 26  2  0  0  0  0
 18 27  1  0  0  0  0
 20 27  1  0  0  0  0
 21 22  1  0  0  0  0
 23 26  1  0  0  0  0
 24 25  1  0  0  0  0
 25 27  2  0  0  0  0
  3 28  1  0  0  0  0
  4 29  1  0  0  0  0
  8 30  1  0  0  0  0
  9 31  1  0  0  0  0
 10 32  1  0  0  0  0
 11 33  1  0  0  0  0
 11 34  1  0  0  0  0
 11 35  1  0  0  0  0
 12 36  1  0  0  0  0
 13 37  1  0  0  0  0
 14 38  1  0  0  0  0
 15 39  1  0  0  0  0
 16 40  1  0  0  0  0
 17 41  1  0  0  0  0
 18 42  1  0  0  0  0
 20 43  1  0  0  0  0
 23 44  1  0  0  0  0
M  END
> <pdb_id>
5U8C

> <uniprot_id>
P35439

> <usmiles>
Brc1ccc(cc1)[C@@H](N[C@H](P(=O)(O)O)c2c3NC(=O)C(=O)Nc3ccc2)C

$$$$
86B_A_302
          07192416293D 1   1.00000     0.00000     0
            
 39 39  0  0  0  0            999 V2000
   -5.9206    0.9084   16.8800 S   0  0  0  0  0  0  0  0  0  0  0  0
   -5.4700    1.0371   18.1766 O   0  0  0  0  0  0  0  0  0  0  0  0
   -7.2220    1.0395   16.8180 O   0  0  0  0  0  0  0  0  0  0  0  0
   -3.1068    7.1736   11.8511 O   0  0  0  0  0  0  0  0  0  0  0  0
   -3.7388    5.5873   13.8879 O   0  0  0  0  0  0  0  0  0  0  0  0
   -5.2160   -0.4367   16.2262 N   0  0  0  0  0  0  0  0  0  0  0  0
   -1.4709    9.0760   12.8998 N   0  0  0  0  0  0  0  0  0  0  0  0
   -1.6341   11.4947   13.1925 C   0  0  0  0  0  0  0  0  0  0  0  0
   -0.2741   10.0401   14.7776 C   0  0  0  0  0  0  0  0  0  0  0  0
   -2.4723    5.5127   13.4526 C   0  0  0  0  0  0  0  0  0  0  0  0
   -1.8225    7.8574   13.6477 C   0  0  0  0  0  0  0  0  0  0  0  0
   -6.0751    3.3507   15.6415 C   0  0  0  0  0  0  0  0  0  0  0  0
   -3.9392    2.3766   15.6192 C   0  0  0  0  0  0  0  0  0  0  0  0
   -5.5501    4.4091   14.9555 C   0  0  0  0  0  0  0  0  0  0  0  0
   -3.4222    3.4249   14.9173 C   0  0  0  0  0  0  0  0  0  0  0  0
   -5.2506    2.3254   15.9554 C   0  0  0  0  0  0  0  0  0  0  0  0
   -2.1028    6.7690   12.6545 C   0  0  2  0  0  0  0  0  0  0  0  0
   -4.2247    4.4811   14.5822 C   0  0  0  0  0  0  0  0  0  0  0  0
   -1.4397   10.1664   13.8204 C   0  0  0  0  0  0  0  0  0  0  0  0
   -2.8243    7.9924   11.3512 H   0  0  0  0  0  0  0  0  0  0  0  0
   -5.5282   -0.5516   15.2832 H   0  0  0  0  0  0  0  0  0  0  0  0
   -4.2216   -0.3311   16.2376 H   0  0  0  0  0  0  0  0  0  0  0  0
   -2.1559    9.2491   12.1922 H   0  0  0  0  0  0  0  0  0  0  0  0
   -1.5999   12.2043   13.8964 H   0  0  0  0  0  0  0  0  0  0  0  0
   -0.9102   11.6555   12.5216 H   0  0  0  0  0  0  0  0  0  0  0  0
   -2.5235   11.5207   12.7360 H   0  0  0  0  0  0  0  0  0  0  0  0
   -0.2763   10.8151   15.4096 H   0  0  0  0  0  0  0  0  0  0  0  0
   -0.3580    9.1882   15.2945 H   0  0  0  0  0  0  0  0  0  0  0  0
    0.5822   10.0337   14.2611 H   0  0  0  0  0  0  0  0  0  0  0  0
   -2.3730    4.7092   12.8658 H   0  0  0  0  0  0  0  0  0  0  0  0
   -1.8589    5.4298   14.2380 H   0  0  0  0  0  0  0  0  0  0  0  0
   -2.6349    8.0246   14.2063 H   0  0  0  0  0  0  0  0  0  0  0  0
   -1.0611    7.5901   14.2382 H   0  0  0  0  0  0  0  0  0  0  0  0
   -7.0399    3.3345   15.9038 H   0  0  0  0  0  0  0  0  0  0  0  0
   -3.3358    1.6275   15.8925 H   0  0  0  0  0  0  0  0  0  0  0  0
   -6.1554    5.1671   14.7128 H   0  0  0  0  0  0  0  0  0  0  0  0
   -2.4591    3.4218   14.6481 H   0  0  0  0  0  0  0  0  0  0  0  0
   -1.2842    6.5925   12.1080 H   0  0  0  0  0  0  0  0  0  0  0  0
   -2.2500   10.0368   14.3918 H   0  0  0  0  0  0  0  0  0  0  0  0
  1  2  2  0  0  0  0
  1  3  2  0  0  0  0
  1  6  1  0  0  0  0
  1 16  1  0  0  0  0
  4 17  1  0  0  0  0
  5 10  1  0  0  0  0
  5 18  1  0  0  0  0
  7 11  1  0  0  0  0
  7 19  1  0  0  0  0
  8 19  1  0  0  0  0
  9 19  1  0  0  0  0
 10 17  1  0  0  0  0
 11 17  1  0  0  0  0
 12 14  2  0  0  0  0
 12 16  1  0  0  0  0
 13 15  1  0  0  0  0
 13 16  2  0  0  0  0
 14 18  1  0  0  0  0
 15 18  2  0  0  0  0
  4 20  1  0  0  0  0
  6 21  1  0  0  0  0
  6 22  1  0  0  0  0
  7 23  1  0  0  0  0
  8 24  1  0  0  0  0
  8 25  1  0  0  0  0
  8 26  1  0  0  0  0
  9 27  1  0  0  0  0
  9 28  1  0  0  0  0
  9 29  1  0  0  0  0
 10 30  1  0  0  0  0
 10 31  1  0  0  0  0
 11 32  1  0  0  0  0
 11 33  1  0  0  0  0
 12 34  1  0  0  0  0
 13 35  1  0  0  0  0
 14 36  1  0  0  0  0
 15 37  1  0  0  0  0
 17 38  1  0  0  0  0
 19 39  1  0  0  0  0
M  END
> <pdb_id>
5WLT

> <uniprot_id>
P00918

> <usmiles>
S(=O)(=O)(N)c1ccc(OC[C@@H](O)CNC(C)C)cc1

$$$$
86D_A_401
          07202411443D 1   1.00000     0.00000     0
            
 38 40  0  0  0  0            999 V2000
   27.6450   -0.8970   -8.5240 S   0  0  0  0  0  0  0  0  0  0  0  0
   27.3650    0.5720   -6.7430 F   0  0  0  0  0  0  0  0  0  0  0  0
   27.5910    1.5300   -8.5960 F   0  0  0  0  0  0  0  0  0  0  0  0
   19.1980   -3.2700  -11.0210 F   0  0  0  0  0  0  0  0  0  0  0  0
   27.2240    1.3380  -13.8450 F   0  0  0  0  0  0  0  0  0  0  0  0
   27.1030   -0.7900  -13.5500 F   0  0  0  0  0  0  0  0  0  0  0  0
   28.5410   -1.4070   -9.4620 O   0  0  0  0  0  0  0  0  0  0  0  0
   27.4240   -1.9180   -7.5080 O   0  0  0  0  0  0  0  0  0  0  0  0
   27.7610    1.6840  -11.2240 O   0  0  0  0  0  0  0  0  0  0  0  0
   22.8260   -0.1180  -11.5840 O   0  0  0  0  0  0  0  0  0  0  0  0
   18.3100    1.9410   -8.7160 N   0  0  0  0  0  0  0  0  0  0  0  0
   18.9120    1.1270   -9.3150 C   0  0  0  0  0  0  0  0  0  0  0  0
   25.0390   -0.9400   -8.7660 C   0  0  0  0  0  0  0  0  0  0  0  0
   23.8310   -0.7230   -9.4990 C   0  0  0  0  0  0  0  0  0  0  0  0
   21.0290   -1.7370  -11.2840 C   0  0  0  0  0  0  0  0  0  0  0  0
   19.0130   -1.0520  -10.1410 C   0  0  0  0  0  0  0  0  0  0  0  0
   20.8850    0.5090  -10.4280 C   0  0  0  0  0  0  0  0  0  0  0  0
   25.2600    0.6100  -12.8590 C   0  0  0  0  0  0  0  0  0  0  0  0
   28.1070    0.5370   -7.8650 C   0  0  0  0  0  0  0  0  0  0  0  0
   26.2540   -0.6390   -9.4050 C   0  0  0  0  0  0  0  0  0  0  0  0
   19.7450   -2.0330  -10.8310 C   0  0  0  0  0  0  0  0  0  0  0  0
   21.5910   -0.4770  -11.0890 C   0  0  0  0  0  0  0  0  0  0  0  0
   23.9210   -0.2670  -10.8080 C   0  0  0  0  0  0  0  0  0  0  0  0
   27.3980    0.3410  -11.6270 C   0  0  1  0  0  0  0  0  0  0  0  0
   19.5830    0.2130   -9.9630 C   0  0  0  0  0  0  0  0  0  0  0  0
   25.0950    0.1020  -11.4120 C   0  0  0  0  0  0  0  0  0  0  0  0
   26.2590   -0.1050  -10.7280 C   0  0  0  0  0  0  0  0  0  0  0  0
   26.7870    0.3910  -13.0280 C   0  0  0  0  0  0  0  0  0  0  0  0
   28.5119    2.0124  -11.7969 H   0  0  0  0  0  0  0  0  0  0  0  0
   25.0201   -1.2938   -7.8309 H   0  0  0  0  0  0  0  0  0  0  0  0
   22.9403   -0.8958   -9.0784 H   0  0  0  0  0  0  0  0  0  0  0  0
   21.5569   -2.4419  -11.7578 H   0  0  0  0  0  0  0  0  0  0  0  0
   18.1012   -1.2544   -9.7837 H   0  0  0  0  0  0  0  0  0  0  0  0
   21.2862    1.4132  -10.2814 H   0  0  0  0  0  0  0  0  0  0  0  0
   25.0083    1.5737  -12.9480 H   0  0  0  0  0  0  0  0  0  0  0  0
   24.7299    0.0657  -13.5092 H   0  0  0  0  0  0  0  0  0  0  0  0
   29.0912    0.6154   -7.7064 H   0  0  0  0  0  0  0  0  0  0  0  0
   28.1763   -0.2853  -11.5816 H   0  0  0  0  0  0  0  0  0  0  0  0
  1  7  2  0  0  0  0
  1  8  2  0  0  0  0
  1 19  1  0  0  0  0
  1 20  1  0  0  0  0
  2 19  1  0  0  0  0
  3 19  1  0  0  0  0
  4 21  1  0  0  0  0
  5 28  1  0  0  0  0
  6 28  1  0  0  0  0
  9 24  1  0  0  0  0
 10 22  1  0  0  0  0
 10 23  1  0  0  0  0
 11 12  3  0  0  0  0
 12 25  1  0  0  0  0
 13 14  2  0  0  0  0
 13 20  1  0  0  0  0
 14 23  1  0  0  0  0
 15 21  2  0  0  0  0
 15 22  1  0  0  0  0
 16 21  1  0  0  0  0
 16 25  2  0  0  0  0
 17 22  2  0  0  0  0
 17 25  1  0  0  0  0
 18 26  1  0  0  0  0
 18 28  1  0  0  0  0
 20 27  2  0  0  0  0
 23 26  2  0  0  0  0
 24 27  1  0  0  0  0
 24 28  1  0  0  0  0
 26 27  1  0  0  0  0
  9 29  1  0  0  0  0
 13 30  1  0  0  0  0
 14 31  1  0  0  0  0
 15 32  1  0  0  0  0
 16 33  1  0  0  0  0
 17 34  1  0  0  0  0
 18 35  1  0  0  0  0
 18 36  1  0  0  0  0
 19 37  1  0  0  0  0
 24 38  1  0  0  0  0
M  END
> <pdb_id>
5UFP

> <uniprot_id>
Q99814

> <usmiles>
S(=O)(=O)(c1c2c(c(Oc3cc(F)cc(C#N)c3)cc1)CC(F)(F)[C@H]2O)C(F)F

$$$$
86U_A_1004
          07202417293D 1   1.00000     0.00000     0
            
 40 42  0  0  0  0            999 V2000
  -27.0588    1.7416  -29.9850 F   0  0  0  0  0  0  0  0  0  0  0  0
  -28.4524    4.0952  -29.8304 F   0  0  0  0  0  0  0  0  0  0  0  0
  -26.1778    7.1505  -33.1609 O   0  0  0  0  0  0  0  0  0  0  0  0
  -19.9256    8.9371  -35.1696 O   0  0  0  0  0  0  0  0  0  0  0  0
  -24.1772    3.6248  -33.3178 N   0  0  0  0  0  0  0  0  0  0  0  0
  -21.4327    9.8084  -32.0618 N   0  0  0  0  0  0  0  0  0  0  0  0
  -24.5132    5.8689  -34.0290 N   0  0  0  0  0  0  0  0  0  0  0  0
  -23.8771    4.6698  -34.0446 C   0  0  0  0  0  0  0  0  0  0  0  0
  -20.4741   10.9247  -32.0082 C   0  0  0  0  0  0  0  0  0  0  0  0
  -24.0512    6.9610  -34.9164 C   0  0  0  0  0  0  0  0  0  0  0  0
  -19.0147   10.4261  -32.1541 C   0  0  0  0  0  0  0  0  0  0  0  0
  -23.6518    8.1948  -34.1044 C   0  0  0  0  0  0  0  0  0  0  0  0
  -18.9669    9.1338  -33.0076 C   0  0  0  0  0  0  0  0  0  0  0  0
  -22.2695    7.9735  -33.4867 C   0  0  0  0  0  0  0  0  0  0  0  0
  -25.6300    2.6724  -31.6359 C   0  0  0  0  0  0  0  0  0  0  0  0
  -27.0449    5.0610  -31.4786 C   0  0  0  0  0  0  0  0  0  0  0  0
  -25.5856    6.0733  -33.1926 C   0  0  0  0  0  0  0  0  0  0  0  0
  -26.7029    2.7888  -30.7598 C   0  0  0  0  0  0  0  0  0  0  0  0
  -27.4107    3.9828  -30.6810 C   0  0  0  0  0  0  0  0  0  0  0  0
  -20.1182    9.1108  -33.9671 C   0  0  0  0  0  0  0  0  0  0  0  0
  -21.5145    9.3037  -33.4356 C   0  0  2  0  0  0  0  0  0  0  0  0
  -25.2624    3.7494  -32.4346 C   0  0  0  0  0  0  0  0  0  0  0  0
  -25.9727    4.9439  -32.3543 C   0  0  0  0  0  0  0  0  0  0  0  0
  -22.3339   10.1280  -31.7694 H   0  0  0  0  0  0  0  0  0  0  0  0
  -23.1043    4.5765  -34.6724 H   0  0  0  0  0  0  0  0  0  0  0  0
  -20.5710   11.3945  -31.1307 H   0  0  0  0  0  0  0  0  0  0  0  0
  -20.6757   11.5623  -32.7517 H   0  0  0  0  0  0  0  0  0  0  0  0
  -24.7899    7.2074  -35.5437 H   0  0  0  0  0  0  0  0  0  0  0  0
  -23.2605    6.6443  -35.4404 H   0  0  0  0  0  0  0  0  0  0  0  0
  -18.6395   10.2357  -31.2469 H   0  0  0  0  0  0  0  0  0  0  0  0
  -18.4674   11.1351  -32.5990 H   0  0  0  0  0  0  0  0  0  0  0  0
  -24.3214    8.3464  -33.3773 H   0  0  0  0  0  0  0  0  0  0  0  0
  -23.6246    8.9942  -34.7045 H   0  0  0  0  0  0  0  0  0  0  0  0
  -19.0214    8.3371  -32.4056 H   0  0  0  0  0  0  0  0  0  0  0  0
  -18.1084    9.1066  -33.5196 H   0  0  0  0  0  0  0  0  0  0  0  0
  -21.7564    7.3202  -34.0434 H   0  0  0  0  0  0  0  0  0  0  0  0
  -22.3726    7.6129  -32.5597 H   0  0  0  0  0  0  0  0  0  0  0  0
  -25.1220    1.8129  -31.6917 H   0  0  0  0  0  0  0  0  0  0  0  0
  -27.5531    5.9203  -31.4220 H   0  0  0  0  0  0  0  0  0  0  0  0
  -21.9921    9.9740  -34.0035 H   0  0  0  0  0  0  0  0  0  0  0  0
  1 18  1  0  0  0  0
  2 19  1  0  0  0  0
  3 17  2  0  0  0  0
  4 20  2  0  0  0  0
  5  8  2  0  0  0  0
  5 22  1  0  0  0  0
  6  9  1  0  0  0  0
  6 21  1  0  0  0  0
  7  8  1  0  0  0  0
  7 10  1  0  0  0  0
  7 17  1  0  0  0  0
  9 11  1  0  0  0  0
 10 12  1  0  0  0  0
 11 13  1  0  0  0  0
 12 14  1  0  0  0  0
 13 20  1  0  0  0  0
 14 21  1  0  0  0  0
 15 18  1  0  0  0  0
 15 22  2  0  0  0  0
 16 19  1  0  0  0  0
 16 23  2  0  0  0  0
 17 23  1  0  0  0  0
 18 19  2  0  0  0  0
 20 21  1  0  0  0  0
 22 23  1  0  0  0  0
  6 24  1  0  0  0  0
  8 25  1  0  0  0  0
  9 26  1  0  0  0  0
  9 27  1  0  0  0  0
 10 28  1  0  0  0  0
 10 29  1  0  0  0  0
 11 30  1  0  0  0  0
 11 31  1  0  0  0  0
 12 32  1  0  0  0  0
 12 33  1  0  0  0  0
 13 34  1  0  0  0  0
 13 35  1  0  0  0  0
 14 36  1  0  0  0  0
 14 37  1  0  0  0  0
 15 38  1  0  0  0  0
 16 39  1  0  0  0  0
 21 40  1  0  0  0  0
M  END
> <pdb_id>
5XIH

> <uniprot_id>
S8G8I1

> <usmiles>
Fc1c(F)cc2c(N=CN(C2=O)CCC[C@H]3NCCCC3=O)c1

$$$$
86X_A_1004
          07202417293D 1   1.00000     0.00000     0
            
 40 42  0  0  0  0            999 V2000
  -29.0952    4.4308  -30.1136 Cl  0  0  0  0  0  0  0  0  0  0  0  0
  -27.4543    1.9806  -30.2043 F   0  0  0  0  0  0  0  0  0  0  0  0
  -25.9783    7.2272  -33.2492 O   0  0  0  0  0  0  0  0  0  0  0  0
  -20.0333    9.0044  -35.4106 O   0  0  0  0  0  0  0  0  0  0  0  0
  -24.0570    3.7288  -33.1052 N   0  0  0  0  0  0  0  0  0  0  0  0
  -21.4060   10.3978  -32.4394 N   0  0  0  0  0  0  0  0  0  0  0  0
  -24.2203    5.9493  -33.8821 N   0  0  0  0  0  0  0  0  0  0  0  0
  -23.5613    4.7075  -33.8162 C   0  0  0  0  0  0  0  0  0  0  0  0
  -20.0432   10.8501  -32.1157 C   0  0  0  0  0  0  0  0  0  0  0  0
  -23.6482    7.0496  -34.6913 C   0  0  0  0  0  0  0  0  0  0  0  0
  -19.0374    9.6746  -32.1316 C   0  0  0  0  0  0  0  0  0  0  0  0
  -22.6286    7.8525  -33.8811 C   0  0  0  0  0  0  0  0  0  0  0  0
  -19.4997    8.5830  -33.1277 C   0  0  0  0  0  0  0  0  0  0  0  0
  -22.7874    9.3421  -34.1935 C   0  0  0  0  0  0  0  0  0  0  0  0
  -25.7626    2.8434  -31.6457 C   0  0  0  0  0  0  0  0  0  0  0  0
  -27.1073    5.2736  -31.7395 C   0  0  0  0  0  0  0  0  0  0  0  0
  -27.6223    4.2251  -30.9877 C   0  0  0  0  0  0  0  0  0  0  0  0
  -26.9499    3.0094  -30.9407 C   0  0  0  0  0  0  0  0  0  0  0  0
  -25.4034    6.1415  -33.1905 C   0  0  0  0  0  0  0  0  0  0  0  0
  -20.3180    9.2061  -34.2313 C   0  0  0  0  0  0  0  0  0  0  0  0
  -21.4838   10.0743  -33.8678 C   0  0  2  0  0  0  0  0  0  0  0  0
  -25.2494    3.8943  -32.3967 C   0  0  0  0  0  0  0  0  0  0  0  0
  -25.9197    5.1052  -32.4428 C   0  0  0  0  0  0  0  0  0  0  0  0
  -22.0587   11.1248  -32.2257 H   0  0  0  0  0  0  0  0  0  0  0  0
  -22.7067    4.5727  -34.3176 H   0  0  0  0  0  0  0  0  0  0  0  0
  -20.0457   11.2634  -31.2051 H   0  0  0  0  0  0  0  0  0  0  0  0
  -19.7580   11.5311  -32.7901 H   0  0  0  0  0  0  0  0  0  0  0  0
  -24.3858    7.6582  -34.9838 H   0  0  0  0  0  0  0  0  0  0  0  0
  -23.1961    6.6634  -35.4953 H   0  0  0  0  0  0  0  0  0  0  0  0
  -18.9771    9.2799  -31.2148 H   0  0  0  0  0  0  0  0  0  0  0  0
  -18.1383   10.0139  -32.4083 H   0  0  0  0  0  0  0  0  0  0  0  0
  -21.7041    7.5579  -34.1233 H   0  0  0  0  0  0  0  0  0  0  0  0
  -22.7826    7.6983  -32.9052 H   0  0  0  0  0  0  0  0  0  0  0  0
  -20.0558    7.9072  -32.6440 H   0  0  0  0  0  0  0  0  0  0  0  0
  -18.6982    8.1340  -33.5226 H   0  0  0  0  0  0  0  0  0  0  0  0
  -23.5295    9.7212  -33.6406 H   0  0  0  0  0  0  0  0  0  0  0  0
  -23.0014    9.4582  -35.1634 H   0  0  0  0  0  0  0  0  0  0  0  0
  -25.2787    1.9689  -31.6124 H   0  0  0  0  0  0  0  0  0  0  0  0
  -27.5901    6.1486  -31.7747 H   0  0  0  0  0  0  0  0  0  0  0  0
  -21.4410   10.9206  -34.3989 H   0  0  0  0  0  0  0  0  0  0  0  0
  1 17  1  0  0  0  0
  2 18  1  0  0  0  0
  3 19  2  0  0  0  0
  4 20  2  0  0  0  0
  5  8  2  0  0  0  0
  5 22  1  0  0  0  0
  6  9  1  0  0  0  0
  6 21  1  0  0  0  0
  7  8  1  0  0  0  0
  7 10  1  0  0  0  0
  7 19  1  0  0  0  0
  9 11  1  0  0  0  0
 10 12  1  0  0  0  0
 11 13  1  0  0  0  0
 12 14  1  0  0  0  0
 13 20  1  0  0  0  0
 14 21  1  0  0  0  0
 15 18  1  0  0  0  0
 15 22  2  0  0  0  0
 16 17  1  0  0  0  0
 16 23  2  0  0  0  0
 17 18  2  0  0  0  0
 19 23  1  0  0  0  0
 20 21  1  0  0  0  0
 22 23  1  0  0  0  0
  6 24  1  0  0  0  0
  8 25  1  0  0  0  0
  9 26  1  0  0  0  0
  9 27  1  0  0  0  0
 10 28  1  0  0  0  0
 10 29  1  0  0  0  0
 11 30  1  0  0  0  0
 11 31  1  0  0  0  0
 12 32  1  0  0  0  0
 12 33  1  0  0  0  0
 13 34  1  0  0  0  0
 13 35  1  0  0  0  0
 14 36  1  0  0  0  0
 14 37  1  0  0  0  0
 15 38  1  0  0  0  0
 16 39  1  0  0  0  0
 21 40  1  0  0  0  0
M  END
> <pdb_id>
5XII

> <uniprot_id>
S8G8I1

> <usmiles>
Clc1c(F)cc2N=CN(C(=O)c2c1)CCC[C@H]3NCCCC3=O

$$$$
873_B_1004
          07202417293D 1   1.00000     0.00000     0
            
 43 45  0  0  0  0            999 V2000
  -22.4936    7.2440  -32.4806 O   0  0  0  0  0  0  0  0  0  0  0  0
  -26.0833    7.2437  -32.8950 O   0  0  0  0  0  0  0  0  0  0  0  0
  -20.1818    8.2373  -34.9004 O   0  0  0  0  0  0  0  0  0  0  0  0
  -24.2613    3.6212  -32.9682 N   0  0  0  0  0  0  0  0  0  0  0  0
  -21.3741    9.9183  -32.1765 N   0  0  0  0  0  0  0  0  0  0  0  0
  -24.4135    5.8801  -33.6795 N   0  0  0  0  0  0  0  0  0  0  0  0
  -23.8452    4.6201  -33.6544 C   0  0  0  0  0  0  0  0  0  0  0  0
  -20.4762   10.9456  -31.6859 C   0  0  0  0  0  0  0  0  0  0  0  0
  -19.0868   10.8599  -32.3800 C   0  0  0  0  0  0  0  0  0  0  0  0
  -26.9772    2.8675  -30.6029 C   0  0  0  0  0  0  0  0  0  0  0  0
  -27.6293    4.0990  -30.5521 C   0  0  0  0  0  0  0  0  0  0  0  0
  -23.8273    6.9605  -34.5272 C   0  0  0  0  0  0  0  0  0  0  0  0
  -18.9743    9.5345  -33.2702 C   0  0  0  0  0  0  0  0  0  0  0  0
  -25.8538    2.7080  -31.4091 C   0  0  0  0  0  0  0  0  0  0  0  0
  -27.1587    5.1688  -31.3067 C   0  0  0  0  0  0  0  0  0  0  0  0
  -22.6398    9.0833  -34.1183 C   0  0  0  0  0  0  0  0  0  0  0  0
  -22.5626    7.5886  -33.9048 C   0  0  1  0  0  0  0  0  0  0  0  0
  -25.5346    6.1423  -32.9134 C   0  0  0  0  0  0  0  0  0  0  0  0
  -20.0905    9.5227  -34.3076 C   0  0  2  0  0  0  0  0  0  0  0  0
  -25.3828    3.7749  -32.1617 C   0  0  0  0  0  0  0  0  0  0  0  0
  -21.4627    9.9379  -33.6335 C   0  0  2  0  0  0  0  0  0  0  0  0
  -26.0374    5.0109  -32.1114 C   0  0  0  0  0  0  0  0  0  0  0  0
  -21.6737    7.6515  -32.0784 H   0  0  0  0  0  0  0  0  0  0  0  0
  -20.9153    8.2350  -35.5801 H   0  0  0  0  0  0  0  0  0  0  0  0
  -22.2848   10.0724  -31.7933 H   0  0  0  0  0  0  0  0  0  0  0  0
  -23.0358    4.4751  -34.2236 H   0  0  0  0  0  0  0  0  0  0  0  0
  -20.3556   10.8293  -30.7001 H   0  0  0  0  0  0  0  0  0  0  0  0
  -20.8770   11.8433  -31.8690 H   0  0  0  0  0  0  0  0  0  0  0  0
  -18.3718   10.8466  -31.6811 H   0  0  0  0  0  0  0  0  0  0  0  0
  -18.9641   11.6601  -32.9671 H   0  0  0  0  0  0  0  0  0  0  0  0
  -27.3165    2.0991  -30.0603 H   0  0  0  0  0  0  0  0  0  0  0  0
  -28.4362    4.2133  -29.9726 H   0  0  0  0  0  0  0  0  0  0  0  0
  -24.5130    7.6779  -34.6500 H   0  0  0  0  0  0  0  0  0  0  0  0
  -23.5869    6.5733  -35.4173 H   0  0  0  0  0  0  0  0  0  0  0  0
  -19.0575    8.7300  -32.6821 H   0  0  0  0  0  0  0  0  0  0  0  0
  -18.0884    9.5185  -33.7337 H   0  0  0  0  0  0  0  0  0  0  0  0
  -25.3861    1.8249  -31.4462 H   0  0  0  0  0  0  0  0  0  0  0  0
  -27.6275    6.0513  -31.2699 H   0  0  0  0  0  0  0  0  0  0  0  0
  -23.4591    9.4097  -33.6468 H   0  0  0  0  0  0  0  0  0  0  0  0
  -22.7364    9.2393  -35.1013 H   0  0  0  0  0  0  0  0  0  0  0  0
  -21.7533    7.2304  -34.3704 H   0  0  0  0  0  0  0  0  0  0  0  0
  -19.8707   10.1884  -35.0208 H   0  0  0  0  0  0  0  0  0  0  0  0
  -21.6514   10.8816  -33.9052 H   0  0  0  0  0  0  0  0  0  0  0  0
  1 17  1  0  0  0  0
  2 18  2  0  0  0  0
  3 19  1  0  0  0  0
  4  7  2  0  0  0  0
  4 20  1  0  0  0  0
  5  8  1  0  0  0  0
  5 21  1  0  0  0  0
  6  7  1  0  0  0  0
  6 12  1  0  0  0  0
  6 18  1  0  0  0  0
  8  9  1  0  0  0  0
  9 13  1  0  0  0  0
 10 11  2  0  0  0  0
 10 14  1  0  0  0  0
 11 15  1  0  0  0  0
 12 17  1  0  0  0  0
 13 19  1  0  0  0  0
 14 20  2  0  0  0  0
 15 22  2  0  0  0  0
 16 17  1  0  0  0  0
 16 21  1  0  0  0  0
 18 22  1  0  0  0  0
 19 21  1  0  0  0  0
 20 22  1  0  0  0  0
  1 23  1  0  0  0  0
  3 24  1  0  0  0  0
  5 25  1  0  0  0  0
  7 26  1  0  0  0  0
  8 27  1  0  0  0  0
  8 28  1  0  0  0  0
  9 29  1  0  0  0  0
  9 30  1  0  0  0  0
 10 31  1  0  0  0  0
 11 32  1  0  0  0  0
 12 33  1  0  0  0  0
 12 34  1  0  0  0  0
 13 35  1  0  0  0  0
 13 36  1  0  0  0  0
 14 37  1  0  0  0  0
 15 38  1  0  0  0  0
 16 39  1  0  0  0  0
 16 40  1  0  0  0  0
 17 41  1  0  0  0  0
 19 42  1  0  0  0  0
 21 43  1  0  0  0  0
M  END
> <pdb_id>
5XIJ

> <uniprot_id>
S8G8I1

> <usmiles>
O=C1N(C=Nc2c1cccc2)C[C@H](O)C[C@H]3NCCC[C@H]3O

$$$$
87F_D_1004
          07202417293D 1   1.00000     0.00000     0
            
 40 42  0  0  0  0            999 V2000
  -25.8630    7.2614  -32.9936 O   0  0  0  0  0  0  0  0  0  0  0  0
  -19.6527    8.8378  -34.9023 O   0  0  0  0  0  0  0  0  0  0  0  0
  -24.1916    3.6858  -33.1667 N   0  0  0  0  0  0  0  0  0  0  0  0
  -21.6665   10.0957  -32.3811 N   0  0  0  0  0  0  0  0  0  0  0  0
  -24.2362    5.9434  -33.7519 N   0  0  0  0  0  0  0  0  0  0  0  0
  -23.6756    4.7016  -33.8183 C   0  0  0  0  0  0  0  0  0  0  0  0
  -20.7648   11.0105  -31.7439 C   0  0  0  0  0  0  0  0  0  0  0  0
  -23.6366    7.0100  -34.4914 C   0  0  0  0  0  0  0  0  0  0  0  0
  -19.3224   10.8081  -32.1096 C   0  0  0  0  0  0  0  0  0  0  0  0
  -22.9309    8.0184  -33.6136 C   0  0  0  0  0  0  0  0  0  0  0  0
  -26.9749    2.9652  -31.0135 C   0  0  0  0  0  0  0  0  0  0  0  0
  -27.5623    4.1894  -30.9352 C   0  0  0  0  0  0  0  0  0  0  0  0
  -19.0751    9.5091  -32.8021 C   0  0  0  0  0  0  0  0  0  0  0  0
  -22.3275    9.0676  -34.5027 C   0  0  0  0  0  0  0  0  0  0  0  0
  -25.8472    2.8064  -31.7508 C   0  0  0  0  0  0  0  0  0  0  0  0
  -27.0265    5.2578  -31.6088 C   0  0  0  0  0  0  0  0  0  0  0  0
  -25.3647    6.1753  -33.0384 C   0  0  0  0  0  0  0  0  0  0  0  0
  -19.9980    9.3573  -33.8811 C   0  0  0  0  0  0  0  0  0  0  0  0
  -21.3201    9.9413  -33.7630 C   0  0  2  0  0  0  0  0  0  0  0  0
  -25.3122    3.8672  -32.4237 C   0  0  0  0  0  0  0  0  0  0  0  0
  -25.8961    5.1006  -32.3535 C   0  0  0  0  0  0  0  0  0  0  0  0
  -22.5994   10.4493  -32.3119 H   0  0  0  0  0  0  0  0  0  0  0  0
  -22.8560    4.5625  -34.3740 H   0  0  0  0  0  0  0  0  0  0  0  0
  -20.8556   10.9021  -30.7540 H   0  0  0  0  0  0  0  0  0  0  0  0
  -21.0264   11.9404  -32.0028 H   0  0  0  0  0  0  0  0  0  0  0  0
  -24.3525    7.4820  -35.0058 H   0  0  0  0  0  0  0  0  0  0  0  0
  -22.9705    6.6208  -35.1275 H   0  0  0  0  0  0  0  0  0  0  0  0
  -18.7748   10.8330  -31.2732 H   0  0  0  0  0  0  0  0  0  0  0  0
  -19.0396   11.5516  -32.7155 H   0  0  0  0  0  0  0  0  0  0  0  0
  -22.2115    7.5652  -33.0872 H   0  0  0  0  0  0  0  0  0  0  0  0
  -23.5864    8.4406  -32.9874 H   0  0  0  0  0  0  0  0  0  0  0  0
  -27.3726    2.1856  -30.5298 H   0  0  0  0  0  0  0  0  0  0  0  0
  -28.3880    4.3113  -30.3845 H   0  0  0  0  0  0  0  0  0  0  0  0
  -19.1956    8.7579  -32.1531 H   0  0  0  0  0  0  0  0  0  0  0  0
  -18.1410    9.4949  -33.1588 H   0  0  0  0  0  0  0  0  0  0  0  0
  -23.0597    9.6496  -34.8564 H   0  0  0  0  0  0  0  0  0  0  0  0
  -21.8634    8.6157  -35.2645 H   0  0  0  0  0  0  0  0  0  0  0  0
  -25.4065    1.9102  -31.8014 H   0  0  0  0  0  0  0  0  0  0  0  0
  -27.4665    6.1541  -31.5531 H   0  0  0  0  0  0  0  0  0  0  0  0
  -21.3081   10.8450  -34.1909 H   0  0  0  0  0  0  0  0  0  0  0  0
  1 17  2  0  0  0  0
  2 18  2  0  0  0  0
  3  6  2  0  0  0  0
  3 20  1  0  0  0  0
  4  7  1  0  0  0  0
  4 19  1  0  0  0  0
  5  6  1  0  0  0  0
  5  8  1  0  0  0  0
  5 17  1  0  0  0  0
  7  9  1  0  0  0  0
  8 10  1  0  0  0  0
  9 13  1  0  0  0  0
 10 14  1  0  0  0  0
 11 12  2  0  0  0  0
 11 15  1  0  0  0  0
 12 16  1  0  0  0  0
 13 18  1  0  0  0  0
 14 19  1  0  0  0  0
 15 20  2  0  0  0  0
 16 21  2  0  0  0  0
 17 21  1  0  0  0  0
 18 19  1  0  0  0  0
 20 21  1  0  0  0  0
  4 22  1  0  0  0  0
  6 23  1  0  0  0  0
  7 24  1  0  0  0  0
  7 25  1  0  0  0  0
  8 26  1  0  0  0  0
  8 27  1  0  0  0  0
  9 28  1  0  0  0  0
  9 29  1  0  0  0  0
 10 30  1  0  0  0  0
 10 31  1  0  0  0  0
 11 32  1  0  0  0  0
 12 33  1  0  0  0  0
 13 34  1  0  0  0  0
 13 35  1  0  0  0  0
 14 36  1  0  0  0  0
 14 37  1  0  0  0  0
 15 38  1  0  0  0  0
 16 39  1  0  0  0  0
 19 40  1  0  0  0  0
M  END
> <pdb_id>
5XIG

> <uniprot_id>
S8G8I1

> <usmiles>
O=C1N(C=Nc2c1cccc2)CCC[C@H]3NCCCC3=O

$$$$
87G_A_501
          07202411433D 1   1.00000     0.00000     0
            
 51 54  0  0  0  0            999 V2000
    7.5099   11.3692   16.3842 S   0  0  0  0  0  0  0  0  0  0  0  0
   14.1786   10.3129   25.1113 F   0  0  0  0  0  0  0  0  0  0  0  0
   13.7000   14.3012   22.6697 F   0  0  0  0  0  0  0  0  0  0  0  0
    6.1086   11.1214   16.0757 O   0  0  0  0  0  0  0  0  0  0  0  0
    8.2403   12.5060   15.8675 O   0  0  0  0  0  0  0  0  0  0  0  0
   16.7200   12.6105   16.4157 O   0  0  0  0  0  0  0  0  0  0  0  0
   12.0698   13.1585   20.9613 O   0  0  0  0  0  0  0  0  0  0  0  0
    7.6765   11.3420   18.0961 N   0  0  0  0  0  0  0  0  0  0  0  0
   16.0105   14.2561   17.8829 N   0  0  0  0  0  0  0  0  0  0  0  0
   14.0763   11.2886   16.9285 N   0  0  0  0  0  0  0  0  0  0  0  0
   14.7600   10.3242   16.0696 C   0  0  0  0  0  0  0  0  0  0  0  0
    7.8303    8.6501   16.6380 C   0  0  0  0  0  0  0  0  0  0  0  0
    8.3533    9.8703   15.9085 C   0  0  0  0  0  0  0  0  0  0  0  0
   15.0226   14.8436   18.6440 C   0  0  0  0  0  0  0  0  0  0  0  0
   12.8170   11.1000   17.4179 C   0  0  0  0  0  0  0  0  0  0  0  0
   12.7831   10.3442   23.2261 C   0  0  0  0  0  0  0  0  0  0  0  0
   12.2477   11.0210   22.1500 C   0  0  0  0  0  0  0  0  0  0  0  0
    9.7630   12.7165   20.7843 C   0  0  0  0  0  0  0  0  0  0  0  0
   13.8446   14.2544   18.8304 C   0  0  0  0  0  0  0  0  0  0  0  0
    8.6633   12.3024   20.0750 C   0  0  0  0  0  0  0  0  0  0  0  0
   13.9670   12.3149   23.9026 C   0  0  0  0  0  0  0  0  0  0  0  0
   10.1000   11.7968   18.2202 C   0  0  0  0  0  0  0  0  0  0  0  0
   13.6443   10.9901   24.0834 C   0  0  0  0  0  0  0  0  0  0  0  0
   15.8565   13.0723   17.1646 C   0  0  0  0  0  0  0  0  0  0  0  0
   13.4143   12.9971   22.8434 C   0  0  0  0  0  0  0  0  0  0  0  0
   12.5669   12.3578   21.9625 C   0  0  0  0  0  0  0  0  0  0  0  0
   11.0164   12.6841   20.2121 C   0  0  0  0  0  0  0  0  0  0  0  0
    8.8353   11.8326   18.7868 C   0  0  0  0  0  0  0  0  0  0  0  0
   14.5803   12.4716   17.4037 C   0  0  0  0  0  0  0  0  0  0  0  0
   13.6091   13.0104   18.2130 C   0  0  0  0  0  0  0  0  0  0  0  0
   11.2010   12.2406   18.9085 C   0  0  0  0  0  0  0  0  0  0  0  0
   12.4830   12.1573   18.2410 C   0  0  0  0  0  0  0  0  0  0  0  0
    6.8155   11.3199   18.6565 H   0  0  0  0  0  0  0  0  0  0  0  0
   16.8578   14.7971   17.7497 H   0  0  0  0  0  0  0  0  0  0  0  0
   15.2675   15.7948   19.0971 H   0  0  0  0  0  0  0  0  0  0  0  0
   12.2570   10.2231   17.1516 H   0  0  0  0  0  0  0  0  0  0  0  0
   12.5516    9.2967   23.3812 H   0  0  0  0  0  0  0  0  0  0  0  0
   11.5746   10.4924   21.4858 H   0  0  0  0  0  0  0  0  0  0  0  0
    9.6530   13.0884   21.7934 H   0  0  0  0  0  0  0  0  0  0  0  0
   13.0875   14.7156   19.4363 H   0  0  0  0  0  0  0  0  0  0  0  0
    7.6827   12.3218   20.5323 H   0  0  0  0  0  0  0  0  0  0  0  0
   14.6396   12.8110   24.5868 H   0  0  0  0  0  0  0  0  0  0  0  0
   10.2357   11.4272   17.2172 H   0  0  0  0  0  0  0  0  0  0  0  0
   15.6677   10.6719   15.8346 H   0  0  0  0  0  0  0  0  0  0  0  0
   14.8514    9.4535   16.5528 H   0  0  0  0  0  0  0  0  0  0  0  0
   14.2289   10.1872   15.2334 H   0  0  0  0  0  0  0  0  0  0  0  0
    8.3339    7.8404   16.3367 H   0  0  0  0  0  0  0  0  0  0  0  0
    7.9538    8.7721   17.6228 H   0  0  0  0  0  0  0  0  0  0  0  0
    6.8580    8.5323   16.4360 H   0  0  0  0  0  0  0  0  0  0  0  0
    9.3270    9.9723   16.1124 H   0  0  0  0  0  0  0  0  0  0  0  0
    8.2312    9.7325   14.9256 H   0  0  0  0  0  0  0  0  0  0  0  0
  1  4  2  0  0  0  0
  1  5  2  0  0  0  0
  1  8  1  0  0  0  0
  1 13  1  0  0  0  0
  2 23  1  0  0  0  0
  3 25  1  0  0  0  0
  6 24  2  0  0  0  0
  7 26  1  0  0  0  0
  7 27  1  0  0  0  0
  8 28  1  0  0  0  0
  8 33  1  0  0  0  0
  9 14  1  0  0  0  0
  9 24  1  0  0  0  0
  9 34  1  0  0  0  0
 10 11  1  0  0  0  0
 10 15  1  0  0  0  0
 10 29  1  0  0  0  0
 12 13  1  0  0  0  0
 14 19  2  0  0  0  0
 14 35  1  0  0  0  0
 15 32  2  0  0  0  0
 15 36  1  0  0  0  0
 16 17  2  0  0  0  0
 16 23  1  0  0  0  0
 16 37  1  0  0  0  0
 17 26  1  0  0  0  0
 17 38  1  0  0  0  0
 18 20  1  0  0  0  0
 18 27  2  0  0  0  0
 18 39  1  0  0  0  0
 19 30  1  0  0  0  0
 19 40  1  0  0  0  0
 20 28  2  0  0  0  0
 20 41  1  0  0  0  0
 21 23  2  0  0  0  0
 21 25  1  0  0  0  0
 21 42  1  0  0  0  0
 22 28  1  0  0  0  0
 22 31  2  0  0  0  0
 22 43  1  0  0  0  0
 24 29  1  0  0  0  0
 25 26  2  0  0  0  0
 27 31  1  0  0  0  0
 29 30  2  0  0  0  0
 30 32  1  0  0  0  0
 31 32  1  0  0  0  0
 11 44  1  0  0  0  0
 11 45  1  0  0  0  0
 11 46  1  0  0  0  0
 12 47  1  0  0  0  0
 12 48  1  0  0  0  0
 12 49  1  0  0  0  0
 13 50  1  0  0  0  0
 13 51  1  0  0  0  0
M  END
> <pdb_id>
5UEO

> <uniprot_id>
O60885

> <usmiles>
S(=O)(=O)(Nc1cc(c(Oc2c(F)cc(F)cc2)cc1)C=3C4=C(N(C3)C)C(=O)NC=C4)CC

$$$$
87M_A_501
          07202411433D 1   1.00000     0.00000     0
            
 50 53  0  0  0  0            999 V2000
    7.4108   11.2725   16.4388 S   0  0  0  0  0  0  0  0  0  0  0  0
    6.0106   11.0674   16.0973 O   0  0  0  0  0  0  0  0  0  0  0  0
    8.1286   12.4166   15.9166 O   0  0  0  0  0  0  0  0  0  0  0  0
   16.6584   12.5877   16.5333 O   0  0  0  0  0  0  0  0  0  0  0  0
   11.9386   13.0516   20.9568 O   0  0  0  0  0  0  0  0  0  0  0  0
    7.5362   11.1999   18.1505 N   0  0  0  0  0  0  0  0  0  0  0  0
   14.8742   14.6812   18.8368 N   0  0  0  0  0  0  0  0  0  0  0  0
   15.8461   14.1648   17.9934 N   0  0  0  0  0  0  0  0  0  0  0  0
   12.7101   10.9866   17.4024 N   0  0  0  0  0  0  0  0  0  0  0  0
    7.6613    8.5496   16.4772 C   0  0  0  0  0  0  0  0  0  0  0  0
   14.5693   10.1584   15.9766 C   0  0  0  0  0  0  0  0  0  0  0  0
    8.2876    9.8075   15.9126 C   0  0  0  0  0  0  0  0  0  0  0  0
   13.7256   14.0809   18.9754 C   0  0  0  0  0  0  0  0  0  0  0  0
   13.6479   10.9233   24.0689 C   0  0  0  0  0  0  0  0  0  0  0  0
   12.7721   10.2632   23.2207 C   0  0  0  0  0  0  0  0  0  0  0  0
   13.9488   12.2570   23.8707 C   0  0  0  0  0  0  0  0  0  0  0  0
   12.1932   10.9492   22.1710 C   0  0  0  0  0  0  0  0  0  0  0  0
   13.3643   12.9414   22.8212 C   0  0  0  0  0  0  0  0  0  0  0  0
    9.6266   12.6201   20.8121 C   0  0  0  0  0  0  0  0  0  0  0  0
    8.5336   12.1719   20.0988 C   0  0  0  0  0  0  0  0  0  0  0  0
    9.9701   11.6302   18.2493 C   0  0  0  0  0  0  0  0  0  0  0  0
   15.7466   12.9969   17.2432 C   0  0  0  0  0  0  0  0  0  0  0  0
   12.4866   12.2861   21.9788 C   0  0  0  0  0  0  0  0  0  0  0  0
   10.8776   12.5610   20.2254 C   0  0  0  0  0  0  0  0  0  0  0  0
    8.7076   11.6816   18.8193 C   0  0  0  0  0  0  0  0  0  0  0  0
   13.9818   11.1493   16.9006 C   0  0  0  0  0  0  0  0  0  0  0  0
   12.3806   12.0087   18.2686 C   0  0  0  0  0  0  0  0  0  0  0  0
   11.0785   12.0818   18.9354 C   0  0  0  0  0  0  0  0  0  0  0  0
   13.4830   12.8513   18.2659 C   0  0  0  0  0  0  0  0  0  0  0  0
   14.4780   12.3285   17.4185 C   0  0  0  0  0  0  0  0  0  0  0  0
    6.7831   10.8172   18.6858 H   0  0  0  0  0  0  0  0  0  0  0  0
   16.6994   14.6805   17.9168 H   0  0  0  0  0  0  0  0  0  0  0  0
   12.1039   10.2263   17.1693 H   0  0  0  0  0  0  0  0  0  0  0  0
    8.1756    7.7514   16.1636 H   0  0  0  0  0  0  0  0  0  0  0  0
    7.6807    8.5871   17.4763 H   0  0  0  0  0  0  0  0  0  0  0  0
    6.7140    8.4796   16.1646 H   0  0  0  0  0  0  0  0  0  0  0  0
   15.4927   10.4461   15.7224 H   0  0  0  0  0  0  0  0  0  0  0  0
   14.6103    9.2663   16.4267 H   0  0  0  0  0  0  0  0  0  0  0  0
   14.0029   10.0917   15.1552 H   0  0  0  0  0  0  0  0  0  0  0  0
    9.2355    9.8666   16.2257 H   0  0  0  0  0  0  0  0  0  0  0  0
    8.2688    9.7592   14.9140 H   0  0  0  0  0  0  0  0  0  0  0  0
   13.0203   14.4700   19.5680 H   0  0  0  0  0  0  0  0  0  0  0  0
   14.0658   10.4293   24.8313 H   0  0  0  0  0  0  0  0  0  0  0  0
   12.5610    9.2969   23.3679 H   0  0  0  0  0  0  0  0  0  0  0  0
   14.5859   12.7250   24.4832 H   0  0  0  0  0  0  0  0  0  0  0  0
   11.5636   10.4799   21.5518 H   0  0  0  0  0  0  0  0  0  0  0  0
   13.5759   13.9073   22.6722 H   0  0  0  0  0  0  0  0  0  0  0  0
    9.5160   12.9816   21.7379 H   0  0  0  0  0  0  0  0  0  0  0  0
    7.6208   12.2019   20.5060 H   0  0  0  0  0  0  0  0  0  0  0  0
   10.0791   11.2603   17.3267 H   0  0  0  0  0  0  0  0  0  0  0  0
  1  2  2  0  0  0  0
  1  3  2  0  0  0  0
  1  6  1  0  0  0  0
  1 12  1  0  0  0  0
  4 22  2  0  0  0  0
  5 23  1  0  0  0  0
  5 24  1  0  0  0  0
  6 25  1  0  0  0  0
  7  8  1  0  0  0  0
  7 13  2  0  0  0  0
  8 22  1  0  0  0  0
  9 26  1  0  0  0  0
  9 27  1  0  0  0  0
 10 12  1  0  0  0  0
 11 26  1  0  0  0  0
 13 29  1  0  0  0  0
 14 15  2  0  0  0  0
 14 16  1  0  0  0  0
 15 17  1  0  0  0  0
 16 18  2  0  0  0  0
 17 23  2  0  0  0  0
 18 23  1  0  0  0  0
 19 20  1  0  0  0  0
 19 24  2  0  0  0  0
 20 25  2  0  0  0  0
 21 25  1  0  0  0  0
 21 28  2  0  0  0  0
 22 30  1  0  0  0  0
 24 28  1  0  0  0  0
 26 30  2  0  0  0  0
 27 28  1  0  0  0  0
 27 29  2  0  0  0  0
 29 30  1  0  0  0  0
  6 31  1  0  0  0  0
  8 32  1  0  0  0  0
  9 33  1  0  0  0  0
 10 34  1  0  0  0  0
 10 35  1  0  0  0  0
 10 36  1  0  0  0  0
 11 37  1  0  0  0  0
 11 38  1  0  0  0  0
 11 39  1  0  0  0  0
 12 40  1  0  0  0  0
 12 41  1  0  0  0  0
 13 42  1  0  0  0  0
 14 43  1  0  0  0  0
 15 44  1  0  0  0  0
 16 45  1  0  0  0  0
 17 46  1  0  0  0  0
 18 47  1  0  0  0  0
 19 48  1  0  0  0  0
 20 49  1  0  0  0  0
 21 50  1  0  0  0  0
M  END
> <pdb_id>
5UEQ

> <uniprot_id>
O60885

> <usmiles>
S(=O)(=O)(Nc1cc(c(Oc2ccccc2)cc1)C=3NC(=C4C(=O)NN=CC34)C)CC

$$$$
87S_A_501
          07202411433D 1   1.00000     0.00000     0
            
 38 40  0  0  0  0            999 V2000
   14.4830   11.1880   24.5887 Cl  0  0  0  0  0  0  0  0  0  0  0  0
   16.3986   12.5787   16.5789 O   0  0  0  0  0  0  0  0  0  0  0  0
   11.1949   13.3915   20.2955 O   0  0  0  0  0  0  0  0  0  0  0  0
   15.6081   14.1773   18.0241 N   0  0  0  0  0  0  0  0  0  0  0  0
   12.5488   10.9221   17.1677 N   0  0  0  0  0  0  0  0  0  0  0  0
   14.5818   10.1926   15.9828 C   0  0  0  0  0  0  0  0  0  0  0  0
    8.0726   11.7105   19.4537 C   0  0  0  0  0  0  0  0  0  0  0  0
    8.4537   10.9854   18.3386 C   0  0  0  0  0  0  0  0  0  0  0  0
   12.7639   10.9662   22.5718 C   0  0  0  0  0  0  0  0  0  0  0  0
   13.5096   13.1965   23.0666 C   0  0  0  0  0  0  0  0  0  0  0  0
    9.0009   12.4953   20.1084 C   0  0  0  0  0  0  0  0  0  0  0  0
   11.9837   11.4695   21.5568 C   0  0  0  0  0  0  0  0  0  0  0  0
   12.7267   13.7041   22.0505 C   0  0  0  0  0  0  0  0  0  0  0  0
    9.7484   11.0638   17.8658 C   0  0  0  0  0  0  0  0  0  0  0  0
   13.0599   12.8515   18.0923 C   0  0  0  0  0  0  0  0  0  0  0  0
   15.4941   13.0208   17.2735 C   0  0  0  0  0  0  0  0  0  0  0  0
   13.5169   11.8392   23.3190 C   0  0  0  0  0  0  0  0  0  0  0  0
   11.9565   12.8301   21.3072 C   0  0  0  0  0  0  0  0  0  0  0  0
   10.3016   12.5564   19.6359 C   0  0  0  0  0  0  0  0  0  0  0  0
   13.8471   11.1716   16.8233 C   0  0  0  0  0  0  0  0  0  0  0  0
   12.0401   11.9296   17.9536 C   0  0  0  0  0  0  0  0  0  0  0  0
   14.2010   12.3918   17.3819 C   0  0  0  0  0  0  0  0  0  0  0  0
   10.6875   11.8706   18.4904 C   0  0  0  0  0  0  0  0  0  0  0  0
   14.8360   14.4939   18.5751 H   0  0  0  0  0  0  0  0  0  0  0  0
   16.4626   14.6966   18.0157 H   0  0  0  0  0  0  0  0  0  0  0  0
   12.0350   10.1120   16.8850 H   0  0  0  0  0  0  0  0  0  0  0  0
   15.5122   10.5224   15.8230 H   0  0  0  0  0  0  0  0  0  0  0  0
   14.6169    9.3103   16.4522 H   0  0  0  0  0  0  0  0  0  0  0  0
   14.1110   10.0857   15.1070 H   0  0  0  0  0  0  0  0  0  0  0  0
    7.1296   11.6663   19.7837 H   0  0  0  0  0  0  0  0  0  0  0  0
    7.7883   10.4018   17.8731 H   0  0  0  0  0  0  0  0  0  0  0  0
   12.7825    9.9846   22.7621 H   0  0  0  0  0  0  0  0  0  0  0  0
   14.0714   13.8114   23.6201 H   0  0  0  0  0  0  0  0  0  0  0  0
    8.7357   13.0168   20.9193 H   0  0  0  0  0  0  0  0  0  0  0  0
   11.4340   10.8495   20.9970 H   0  0  0  0  0  0  0  0  0  0  0  0
   12.7168   14.6848   21.8557 H   0  0  0  0  0  0  0  0  0  0  0  0
   10.0127   10.5314   17.0617 H   0  0  0  0  0  0  0  0  0  0  0  0
   13.0038   13.7054   18.6097 H   0  0  0  0  0  0  0  0  0  0  0  0
  1 17  1  0  0  0  0
  2 16  2  0  0  0  0
  3 18  1  0  0  0  0
  3 19  1  0  0  0  0
  4 16  1  0  0  0  0
  5 20  1  0  0  0  0
  5 21  1  0  0  0  0
  6 20  1  0  0  0  0
  7  8  2  0  0  0  0
  7 11  1  0  0  0  0
  8 14  1  0  0  0  0
  9 12  2  0  0  0  0
  9 17  1  0  0  0  0
 10 13  1  0  0  0  0
 10 17  2  0  0  0  0
 11 19  2  0  0  0  0
 12 18  1  0  0  0  0
 13 18  2  0  0  0  0
 14 23  2  0  0  0  0
 15 21  2  0  0  0  0
 15 22  1  0  0  0  0
 16 22  1  0  0  0  0
 19 23  1  0  0  0  0
 20 22  2  0  0  0  0
 21 23  1  0  0  0  0
  4 24  1  0  0  0  0
  4 25  1  0  0  0  0
  5 26  1  0  0  0  0
  6 27  1  0  0  0  0
  6 28  1  0  0  0  0
  6 29  1  0  0  0  0
  7 30  1  0  0  0  0
  8 31  1  0  0  0  0
  9 32  1  0  0  0  0
 10 33  1  0  0  0  0
 11 34  1  0  0  0  0
 12 35  1  0  0  0  0
 13 36  1  0  0  0  0
 14 37  1  0  0  0  0
 15 38  1  0  0  0  0
M  END
> <pdb_id>
5UES

> <uniprot_id>
O60885

> <usmiles>
Clc1ccc(Oc2c(cccc2)C=3NC(=C(C(=O)N)C3)C)cc1

$$$$
87T_A_1448
          07202410583D 1   1.00000     0.00000     0
            
 46 49  0  0  0  0            999 V2000
   40.0537  -37.0738   19.4994 O   0  0  0  0  0  0  0  0  0  0  0  0
   41.1535  -37.3812   13.0546 O   0  0  0  0  0  0  0  0  0  0  0  0
   39.6130  -35.3679   21.6385 N   0  0  0  0  0  0  0  0  0  0  0  0
   37.4133  -42.9674   10.4561 N   0  0  0  0  0  0  0  0  0  0  0  0
   42.9534  -42.4714   12.0452 N   0  0  0  0  0  0  0  0  0  0  0  0
   40.8047  -35.3250   18.2341 N   0  0  0  0  0  0  0  0  0  0  0  0
   37.1431  -42.7031   11.7558 N   0  0  0  0  0  0  0  0  0  0  0  0
   35.7693  -42.7715   12.2449 C   0  0  0  0  0  0  0  0  0  0  0  0
   40.6415  -35.0850   20.6872 C   0  0  0  0  0  0  0  0  0  0  0  0
   38.7261  -42.8253   10.3478 C   0  0  0  0  0  0  0  0  0  0  0  0
   41.7742  -43.0939   11.7416 C   0  0  0  0  0  0  0  0  0  0  0  0
   38.2454  -42.4126   12.4579 C   0  0  0  0  0  0  0  0  0  0  0  0
   40.9292  -37.7798   15.4366 C   0  0  0  0  0  0  0  0  0  0  0  0
   41.1355  -35.5416   14.5700 C   0  0  0  0  0  0  0  0  0  0  0  0
   43.0554  -38.8548   12.9001 C   0  0  0  0  0  0  0  0  0  0  0  0
   40.8551  -37.2737   16.7217 C   0  0  0  0  0  0  0  0  0  0  0  0
   41.0505  -35.0384   15.8562 C   0  0  0  0  0  0  0  0  0  0  0  0
   43.5739  -40.1228   12.6985 C   0  0  0  0  0  0  0  0  0  0  0  0
   40.8039  -39.6654   12.4640 C   0  0  0  0  0  0  0  0  0  0  0  0
   40.4758  -35.9220   19.4012 C   0  0  0  0  0  0  0  0  0  0  0  0
   41.0874  -36.9109   14.3630 C   0  0  0  0  0  0  0  0  0  0  0  0
   41.6806  -38.6428   12.8099 C   0  0  0  0  0  0  0  0  0  0  0  0
   40.8804  -35.8972   16.9388 C   0  0  0  0  0  0  0  0  0  0  0  0
   42.7021  -41.1516   12.3426 C   0  0  0  0  0  0  0  0  0  0  0  0
   39.3126  -42.4961   11.5835 C   0  0  0  0  0  0  0  0  0  0  0  0
   40.7298  -42.2062   11.8506 C   0  0  0  0  0  0  0  0  0  0  0  0
   41.3169  -40.9369   12.2165 C   0  0  0  0  0  0  0  0  0  0  0  0
   39.7523  -34.8092   22.4561 H   0  0  0  0  0  0  0  0  0  0  0  0
   38.7214  -35.1565   21.2382 H   0  0  0  0  0  0  0  0  0  0  0  0
   43.8541  -42.9057   12.0502 H   0  0  0  0  0  0  0  0  0  0  0  0
   41.0238  -34.3510   18.2916 H   0  0  0  0  0  0  0  0  0  0  0  0
   35.7511  -42.5490   13.2196 H   0  0  0  0  0  0  0  0  0  0  0  0
   35.2038  -42.1171   11.7429 H   0  0  0  0  0  0  0  0  0  0  0  0
   35.4121  -43.6953   12.1071 H   0  0  0  0  0  0  0  0  0  0  0  0
   41.5290  -35.2941   21.0978 H   0  0  0  0  0  0  0  0  0  0  0  0
   40.6046  -34.1145   20.4492 H   0  0  0  0  0  0  0  0  0  0  0  0
   39.2359  -42.9379    9.4949 H   0  0  0  0  0  0  0  0  0  0  0  0
   41.6846  -44.0545   11.4787 H   0  0  0  0  0  0  0  0  0  0  0  0
   38.2884  -42.1798   13.4295 H   0  0  0  0  0  0  0  0  0  0  0  0
   40.8692  -38.7658   15.2805 H   0  0  0  0  0  0  0  0  0  0  0  0
   41.2314  -34.9196   13.7929 H   0  0  0  0  0  0  0  0  0  0  0  0
   43.6667  -38.0918   13.1102 H   0  0  0  0  0  0  0  0  0  0  0  0
   40.7831  -37.8986   17.4990 H   0  0  0  0  0  0  0  0  0  0  0  0
   41.1115  -34.0521   16.0091 H   0  0  0  0  0  0  0  0  0  0  0  0
   44.5527  -40.2973   12.8059 H   0  0  0  0  0  0  0  0  0  0  0  0
   39.8217  -39.4910   12.3940 H   0  0  0  0  0  0  0  0  0  0  0  0
  1 20  2  0  0  0  0
  2 21  1  0  0  0  0
  2 22  1  0  0  0  0
  3  9  1  0  0  0  0
  4  7  1  0  0  0  0
  4 10  2  0  0  0  0
  5 11  1  0  0  0  0
  5 24  1  0  0  0  0
  6 20  1  0  0  0  0
  6 23  1  0  0  0  0
  7  8  1  0  0  0  0
  7 12  1  0  0  0  0
  9 20  1  0  0  0  0
 10 25  1  0  0  0  0
 11 26  2  0  0  0  0
 12 25  2  0  0  0  0
 13 16  1  0  0  0  0
 13 21  2  0  0  0  0
 14 17  2  0  0  0  0
 14 21  1  0  0  0  0
 15 18  1  0  0  0  0
 15 22  2  0  0  0  0
 16 23  2  0  0  0  0
 17 23  1  0  0  0  0
 18 24  2  0  0  0  0
 19 22  1  0  0  0  0
 19 27  2  0  0  0  0
 24 27  1  0  0  0  0
 25 26  1  0  0  0  0
 26 27  1  0  0  0  0
  3 28  1  0  0  0  0
  3 29  1  0  0  0  0
  5 30  1  0  0  0  0
  6 31  1  0  0  0  0
  8 32  1  0  0  0  0
  8 33  1  0  0  0  0
  8 34  1  0  0  0  0
  9 35  1  0  0  0  0
  9 36  1  0  0  0  0
 10 37  1  0  0  0  0
 11 38  1  0  0  0  0
 12 39  1  0  0  0  0
 13 40  1  0  0  0  0
 14 41  1  0  0  0  0
 15 42  1  0  0  0  0
 16 43  1  0  0  0  0
 17 44  1  0  0  0  0
 18 45  1  0  0  0  0
 19 46  1  0  0  0  0
M  END
> <pdb_id>
5AJY

> <uniprot_id>
Q16875

> <usmiles>
O=C(Nc1ccc(Oc2cc3c(NC=C3C=4C=NN(C4)C)cc2)cc1)CN

$$$$
87V_A_501
          07202411433D 1   1.00000     0.00000     0
            
 27 28  0  0  0  0            999 V2000
   16.3751   12.6743   16.4644 O   0  0  0  0  0  0  0  0  0  0  0  0
   15.5870   14.0645   18.1052 N   0  0  0  0  0  0  0  0  0  0  0  0
   12.5147   10.9652   17.0194 N   0  0  0  0  0  0  0  0  0  0  0  0
   14.5702   10.1698   15.9386 C   0  0  0  0  0  0  0  0  0  0  0  0
    8.0355   12.0773   19.1958 C   0  0  0  0  0  0  0  0  0  0  0  0
    8.9378   13.0431   19.5915 C   0  0  0  0  0  0  0  0  0  0  0  0
    8.4250   11.0843   18.3204 C   0  0  0  0  0  0  0  0  0  0  0  0
   10.2322   13.0118   19.1129 C   0  0  0  0  0  0  0  0  0  0  0  0
    9.7180   11.0611   17.8376 C   0  0  0  0  0  0  0  0  0  0  0  0
   13.0232   12.8938   17.9160 C   0  0  0  0  0  0  0  0  0  0  0  0
   15.4787   13.0278   17.2159 C   0  0  0  0  0  0  0  0  0  0  0  0
   13.8295   11.1776   16.7213 C   0  0  0  0  0  0  0  0  0  0  0  0
   11.9938   11.9944   17.7504 C   0  0  0  0  0  0  0  0  0  0  0  0
   10.6301   12.0241   18.2305 C   0  0  0  0  0  0  0  0  0  0  0  0
   14.1834   12.3960   17.2695 C   0  0  0  0  0  0  0  0  0  0  0  0
   14.8135   14.3023   18.6926 H   0  0  0  0  0  0  0  0  0  0  0  0
   16.4396   14.5834   18.1667 H   0  0  0  0  0  0  0  0  0  0  0  0
   11.9975   10.1570   16.7378 H   0  0  0  0  0  0  0  0  0  0  0  0
   15.5133   10.4758   15.8085 H   0  0  0  0  0  0  0  0  0  0  0  0
   14.5671    9.2984   16.4293 H   0  0  0  0  0  0  0  0  0  0  0  0
   14.1320   10.0520   15.0474 H   0  0  0  0  0  0  0  0  0  0  0  0
    7.0982   12.0969   19.5438 H   0  0  0  0  0  0  0  0  0  0  0  0
    8.6547   13.7644   20.2237 H   0  0  0  0  0  0  0  0  0  0  0  0
    7.7716   10.3827   18.0361 H   0  0  0  0  0  0  0  0  0  0  0  0
   10.8869   13.7084   19.4064 H   0  0  0  0  0  0  0  0  0  0  0  0
    9.9972   10.3433   17.1998 H   0  0  0  0  0  0  0  0  0  0  0  0
   12.9625   13.7596   18.4127 H   0  0  0  0  0  0  0  0  0  0  0  0
  1 11  2  0  0  0  0
  2 11  1  0  0  0  0
  3 12  1  0  0  0  0
  3 13  1  0  0  0  0
  4 12  1  0  0  0  0
  5  6  2  0  0  0  0
  5  7  1  0  0  0  0
  6  8  1  0  0  0  0
  7  9  2  0  0  0  0
  8 14  2  0  0  0  0
  9 14  1  0  0  0  0
 10 13  2  0  0  0  0
 10 15  1  0  0  0  0
 11 15  1  0  0  0  0
 12 15  2  0  0  0  0
 13 14  1  0  0  0  0
  2 16  1  0  0  0  0
  2 17  1  0  0  0  0
  3 18  1  0  0  0  0
  4 19  1  0  0  0  0
  4 20  1  0  0  0  0
  4 21  1  0  0  0  0
  5 22  1  0  0  0  0
  6 23  1  0  0  0  0
  7 24  1  0  0  0  0
  8 25  1  0  0  0  0
  9 26  1  0  0  0  0
 10 27  1  0  0  0  0
M  END
> <pdb_id>
5UET

> <uniprot_id>
O60885

> <usmiles>
O=C(N)C1=C(NC(c2ccccc2)=C1)C

$$$$
880_A_502
          07192416213D 1   1.00000     0.00000     0
            
 70 74  0  0  0  0            999 V2000
   16.4790   13.6230   35.9830 Cl  0  0  0  0  0  0  0  0  0  0  0  0
   18.6690   11.5180   36.8940 Cl  0  0  0  0  0  0  0  0  0  0  0  0
   20.0120    6.7470   32.6450 N   0  0  0  0  0  0  0  0  0  0  0  0
   21.6360    8.3230   31.8330 N   0  0  0  0  0  0  0  0  0  0  0  0
   21.4500   12.9460   31.5580 N   0  0  0  0  0  0  0  0  0  0  0  0
   22.0030    6.0430   31.7830 N   0  0  0  0  0  0  0  0  0  0  0  0
   24.0620   15.7320   28.6670 N   0  3  0  0  0  0  0  0  0  0  0  0
   22.2000   11.0150   30.7570 N   0  0  0  0  0  0  0  0  0  0  0  0
   24.7860   10.5230   31.6420 C   0  0  0  0  0  0  0  0  0  0  0  0
   19.1530    7.7670   32.7920 C   0  0  0  0  0  0  0  0  0  0  0  0
   19.4600    9.0730   32.4670 C   0  0  0  0  0  0  0  0  0  0  0  0
   17.7710   13.6230   33.6150 C   0  0  0  0  0  0  0  0  0  0  0  0
   18.7660   13.2260   32.7420 C   0  0  0  0  0  0  0  0  0  0  0  0
   19.6460   11.7290   34.4060 C   0  0  0  0  0  0  0  0  0  0  0  0
   23.2900   14.7370   27.8720 C   0  0  0  0  0  0  0  0  0  0  0  0
   24.8680   15.0900   29.7450 C   0  0  0  0  0  0  0  0  0  0  0  0
   22.9600   10.1030   29.8940 C   0  0  0  0  0  0  0  0  0  0  0  0
   24.3340    9.7400   30.4480 C   0  0  0  0  0  0  0  0  0  0  0  0
   25.3430    4.9950   29.2960 C   0  0  0  0  0  0  0  0  0  0  0  0
   25.4950    4.8780   30.8090 C   0  0  0  0  0  0  0  0  0  0  0  0
   24.4960    6.2110   28.9180 C   0  0  0  0  0  0  0  0  0  0  0  0
   22.3890   13.9220   28.7790 C   0  0  0  0  0  0  0  0  0  0  0  0
   23.9780   14.2670   30.6570 C   0  0  0  0  0  0  0  0  0  0  0  0
   24.1360    4.8510   31.5010 C   0  0  0  0  0  0  0  0  0  0  0  0
   23.1450    6.1920   29.6310 C   0  0  0  0  0  0  0  0  0  0  0  0
   21.2050    7.0730   32.1200 C   0  0  0  0  0  0  0  0  0  0  0  0
   22.2780   12.3860   30.7190 C   0  0  0  0  0  0  0  0  0  0  0  0
   17.7160   13.0860   34.8910 C   0  0  0  0  0  0  0  0  0  0  0  0
   18.6620   12.1450   35.2840 C   0  0  0  0  0  0  0  0  0  0  0  0
   20.7530    9.3180   32.0230 C   0  0  0  0  0  0  0  0  0  0  0  0
   20.8010   11.9110   32.2000 C   0  0  0  0  0  0  0  0  0  0  0  0
   21.2360   10.6860   31.7150 C   0  0  0  0  0  0  0  0  0  0  0  0
   19.7100   12.2760   33.1270 C   0  0  0  0  0  0  0  0  0  0  0  0
   23.3160    6.0850   31.1410 C   0  0  0  0  0  0  0  0  0  0  0  0
   23.2050   13.2110   29.8620 C   0  0  0  0  0  0  0  0  0  0  0  0
   21.6660    5.1150   32.0180 H   0  0  0  0  0  0  0  0  0  0  0  0
   23.4360   16.4250   29.0640 H   0  0  0  0  0  0  0  0  0  0  0  0
   24.6940   16.2200   28.0410 H   0  0  0  0  0  0  0  0  0  0  0  0
   25.7200   10.1290   32.0360 H   0  0  0  0  0  0  0  0  0  0  0  0
   24.0810   10.4950   32.4720 H   0  0  0  0  0  0  0  0  0  0  0  0
   24.9740   11.5700   31.4100 H   0  0  0  0  0  0  0  0  0  0  0  0
   18.1780    7.4890   33.1880 H   0  0  0  0  0  0  0  0  0  0  0  0
   18.6840    9.8350   32.4830 H   0  0  0  0  0  0  0  0  0  0  0  0
   17.0340   14.3670   33.3150 H   0  0  0  0  0  0  0  0  0  0  0  0
   18.8010   13.6540   31.7410 H   0  0  0  0  0  0  0  0  0  0  0  0
   20.3460   10.9570   34.7190 H   0  0  0  0  0  0  0  0  0  0  0  0
   22.7400   15.2390   27.0780 H   0  0  0  0  0  0  0  0  0  0  0  0
   23.9840   14.0800   27.3490 H   0  0  0  0  0  0  0  0  0  0  0  0
   25.4060   15.8500   30.3090 H   0  0  0  0  0  0  0  0  0  0  0  0
   25.6420   14.4660   29.3010 H   0  0  0  0  0  0  0  0  0  0  0  0
   23.0450   10.5640   28.9120 H   0  0  0  0  0  0  0  0  0  0  0  0
   22.3710    9.2130   29.6830 H   0  0  0  0  0  0  0  0  0  0  0  0
   25.0750    9.8470   29.6580 H   0  0  0  0  0  0  0  0  0  0  0  0
   24.3810    8.6810   30.6900 H   0  0  0  0  0  0  0  0  0  0  0  0
   24.9150    4.0820   28.8860 H   0  0  0  0  0  0  0  0  0  0  0  0
   26.3250    5.0670   28.8300 H   0  0  0  0  0  0  0  0  0  0  0  0
   26.0610    3.9830   31.0630 H   0  0  0  0  0  0  0  0  0  0  0  0
   26.0910    5.7010   31.2000 H   0  0  0  0  0  0  0  0  0  0  0  0
   24.3490    6.2470   27.8390 H   0  0  0  0  0  0  0  0  0  0  0  0
   25.0340    7.1290   29.1480 H   0  0  0  0  0  0  0  0  0  0  0  0
   21.6620   14.5890   29.2390 H   0  0  0  0  0  0  0  0  0  0  0  0
   21.7720   13.2160   28.2260 H   0  0  0  0  0  0  0  0  0  0  0  0
   24.5540   13.8260   31.4690 H   0  0  0  0  0  0  0  0  0  0  0  0
   23.2860   14.9370   31.1650 H   0  0  0  0  0  0  0  0  0  0  0  0
   23.6130    3.9370   31.2260 H   0  0  0  0  0  0  0  0  0  0  0  0
   24.2850    4.7720   32.5770 H   0  0  0  0  0  0  0  0  0  0  0  0
   22.5670    7.0720   29.3550 H   0  0  0  0  0  0  0  0  0  0  0  0
   22.5460    5.3570   29.2710 H   0  0  0  0  0  0  0  0  0  0  0  0
   23.8750    6.9360   31.5230 H   0  0  0  0  0  0  0  0  0  0  0  0
   23.9480   12.5880   29.3680 H   0  0  0  0  0  0  0  0  0  0  0  0
  1 28  1  0  0  0  0
  2 29  1  0  0  0  0
  3 10  2  0  0  0  0
  3 26  1  0  0  0  0
  4 26  2  0  0  0  0
  4 30  1  0  0  0  0
  5 27  2  0  0  0  0
  5 31  1  0  0  0  0
  6 26  1  0  0  0  0
  6 34  1  0  0  0  0
  6 36  1  0  0  0  0
  7 15  1  0  0  0  0
  7 16  1  0  0  0  0
  7 37  1  0  0  0  0
  7 38  1  0  0  0  0
  8 17  1  0  0  0  0
  8 27  1  0  0  0  0
  8 32  1  0  0  0  0
  9 18  1  0  0  0  0
  9 39  1  0  0  0  0
  9 40  1  0  0  0  0
  9 41  1  0  0  0  0
 10 11  1  0  0  0  0
 10 42  1  0  0  0  0
 11 30  2  0  0  0  0
 11 43  1  0  0  0  0
 12 13  2  0  0  0  0
 12 28  1  0  0  0  0
 12 44  1  0  0  0  0
 13 33  1  0  0  0  0
 13 45  1  0  0  0  0
 14 29  1  0  0  0  0
 14 33  2  0  0  0  0
 14 46  1  0  0  0  0
 15 22  1  0  0  0  0
 15 47  1  0  0  0  0
 15 48  1  0  0  0  0
 16 23  1  0  0  0  0
 16 49  1  0  0  0  0
 16 50  1  0  0  0  0
 17 18  1  0  0  0  0
 17 51  1  0  0  0  0
 17 52  1  0  0  0  0
 18 53  1  0  0  0  0
 18 54  1  0  0  0  0
 19 20  1  0  0  0  0
 19 21  1  0  0  0  0
 19 55  1  0  0  0  0
 19 56  1  0  0  0  0
 20 24  1  0  0  0  0
 20 57  1  0  0  0  0
 20 58  1  0  0  0  0
 21 25  1  0  0  0  0
 21 59  1  0  0  0  0
 21 60  1  0  0  0  0
 22 35  1  0  0  0  0
 22 61  1  0  0  0  0
 22 62  1  0  0  0  0
 23 35  1  0  0  0  0
 23 63  1  0  0  0  0
 23 64  1  0  0  0  0
 24 34  1  0  0  0  0
 24 65  1  0  0  0  0
 24 66  1  0  0  0  0
 25 34  1  0  0  0  0
 25 67  1  0  0  0  0
 25 68  1  0  0  0  0
 27 35  1  0  0  0  0
 28 29  2  0  0  0  0
 30 32  1  0  0  0  0
 31 32  2  0  0  0  0
 31 33  1  0  0  0  0
 34 69  1  0  0  0  0
 35 70  1  0  0  0  0
M  CHG  1   7   1
M  END
> <pdb_id>
4Z9L

> <uniprot_id>
P53779

> <usmiles>
Clc1c(Cl)ccc(c1)C=2N=C(N(C2c3nc(ncc3)NC4CCCCC4)CCC)C5CC[NH2+]CC5

$$$$
883_A_301
          07202413493D 1   1.00000     0.00000     0
            
 44 47  0  0  0  0            999 V2000
   -5.7983  -21.8544  -33.2994 F   0  0  0  0  0  0  0  0  0  0  0  0
  -15.4146  -16.2432  -30.2136 O   0  0  0  0  0  0  0  0  0  0  0  0
   -8.9766  -23.4993  -33.2839 N   0  0  0  0  0  0  0  0  0  0  0  0
  -17.2768  -16.0831  -31.5247 N   0  0  0  0  0  0  0  0  0  0  0  0
  -11.4045  -16.4939  -29.2410 N   0  0  0  0  0  0  0  0  0  0  0  0
   -9.1960  -17.3029  -29.2344 N   0  0  0  0  0  0  0  0  0  0  0  0
  -15.4100  -17.2628  -32.2222 N   0  0  0  0  0  0  0  0  0  0  0  0
  -13.7112  -18.8531  -32.8073 N   0  0  0  0  0  0  0  0  0  0  0  0
  -13.1951  -17.4474  -31.1956 N   0  0  0  0  0  0  0  0  0  0  0  0
  -19.5787  -15.6310  -30.7040 C   0  0  0  0  0  0  0  0  0  0  0  0
  -18.0951  -15.2619  -30.6097 C   0  0  0  0  0  0  0  0  0  0  0  0
  -11.0865  -15.5812  -28.3105 C   0  0  0  0  0  0  0  0  0  0  0  0
   -8.8040  -16.4056  -28.3222 C   0  0  0  0  0  0  0  0  0  0  0  0
   -7.6763  -23.2922  -33.3844 C   0  0  0  0  0  0  0  0  0  0  0  0
   -9.7961  -22.5374  -32.8940 C   0  0  0  0  0  0  0  0  0  0  0  0
   -9.7593  -15.5064  -27.8287 C   0  0  0  0  0  0  0  0  0  0  0  0
   -7.9444  -20.9937  -32.7031 C   0  0  0  0  0  0  0  0  0  0  0  0
  -11.5300  -20.1303  -32.8329 C   0  0  0  0  0  0  0  0  0  0  0  0
   -9.9540  -19.3226  -31.1745 C   0  0  0  0  0  0  0  0  0  0  0  0
  -16.0108  -16.5200  -31.2611 C   0  0  0  0  0  0  0  0  0  0  0  0
  -14.1375  -17.8240  -32.1075 C   0  0  0  0  0  0  0  0  0  0  0  0
   -7.1230  -22.0438  -33.1222 C   0  0  0  0  0  0  0  0  0  0  0  0
  -10.4815  -17.3764  -29.6689 C   0  0  0  0  0  0  0  0  0  0  0  0
  -12.4578  -19.1758  -32.4037 C   0  0  0  0  0  0  0  0  0  0  0  0
  -12.1187  -18.2892  -31.3528 C   0  0  0  0  0  0  0  0  0  0  0  0
   -9.3267  -21.2437  -32.6287 C   0  0  0  0  0  0  0  0  0  0  0  0
  -10.2840  -20.1912  -32.2215 C   0  0  0  0  0  0  0  0  0  0  0  0
  -10.8639  -18.3679  -30.7162 C   0  0  0  0  0  0  0  0  0  0  0  0
  -17.6805  -16.3382  -32.4033 H   0  0  0  0  0  0  0  0  0  0  0  0
  -15.9132  -17.4197  -33.0720 H   0  0  0  0  0  0  0  0  0  0  0  0
  -14.2290  -19.3225  -33.5226 H   0  0  0  0  0  0  0  0  0  0  0  0
  -20.1050  -15.0595  -30.0745 H   0  0  0  0  0  0  0  0  0  0  0  0
  -19.9007  -15.4811  -31.6388 H   0  0  0  0  0  0  0  0  0  0  0  0
  -19.6989  -16.5934  -30.4603 H   0  0  0  0  0  0  0  0  0  0  0  0
  -17.9837  -14.2977  -30.8501 H   0  0  0  0  0  0  0  0  0  0  0  0
  -17.7819  -15.4099  -29.6716 H   0  0  0  0  0  0  0  0  0  0  0  0
  -11.7846  -14.9570  -27.9596 H   0  0  0  0  0  0  0  0  0  0  0  0
   -7.8570  -16.3773  -28.0021 H   0  0  0  0  0  0  0  0  0  0  0  0
   -7.0785  -24.0472  -33.6540 H   0  0  0  0  0  0  0  0  0  0  0  0
  -10.7700  -22.7371  -32.7863 H   0  0  0  0  0  0  0  0  0  0  0  0
   -9.5058  -14.8217  -27.1454 H   0  0  0  0  0  0  0  0  0  0  0  0
   -7.5645  -20.0997  -32.4653 H   0  0  0  0  0  0  0  0  0  0  0  0
  -11.7612  -20.7625  -33.5724 H   0  0  0  0  0  0  0  0  0  0  0  0
   -9.0518  -19.3869  -30.7480 H   0  0  0  0  0  0  0  0  0  0  0  0
  1 22  1  0  0  0  0
  2 20  2  0  0  0  0
  3 14  2  0  0  0  0
  3 15  1  0  0  0  0
  4 11  1  0  0  0  0
  4 20  1  0  0  0  0
  5 12  1  0  0  0  0
  5 23  2  0  0  0  0
  6 13  2  0  0  0  0
  6 23  1  0  0  0  0
  7 20  1  0  0  0  0
  7 21  1  0  0  0  0
  8 21  1  0  0  0  0
  8 24  1  0  0  0  0
  9 21  2  0  0  0  0
  9 25  1  0  0  0  0
 10 11  1  0  0  0  0
 12 16  2  0  0  0  0
 13 16  1  0  0  0  0
 14 22  1  0  0  0  0
 15 26  2  0  0  0  0
 17 22  2  0  0  0  0
 17 26  1  0  0  0  0
 18 24  2  0  0  0  0
 18 27  1  0  0  0  0
 19 27  2  0  0  0  0
 19 28  1  0  0  0  0
 23 28  1  0  0  0  0
 24 25  1  0  0  0  0
 25 28  2  0  0  0  0
 26 27  1  0  0  0  0
  4 29  1  0  0  0  0
  7 30  1  0  0  0  0
  8 31  1  0  0  0  0
 10 32  1  0  0  0  0
 10 33  1  0  0  0  0
 10 34  1  0  0  0  0
 11 35  1  0  0  0  0
 11 36  1  0  0  0  0
 12 37  1  0  0  0  0
 13 38  1  0  0  0  0
 14 39  1  0  0  0  0
 15 40  1  0  0  0  0
 16 41  1  0  0  0  0
 17 42  1  0  0  0  0
 18 43  1  0  0  0  0
 19 44  1  0  0  0  0
M  END
> <pdb_id>
4P8O

> <uniprot_id>
Q6GKU0

> <usmiles>
Fc1cncc(c2cc3NC(=Nc3c(c4ncccn4)c2)NC(=O)NCC)c1

$$$$
888_B_902
          07192423343D 1   1.00000     0.00000     0
            
 50 53  0  0  0  0            999 V2000
   24.4833   44.9461   39.7852 S   0  0  0  0  0  0  0  0  0  0  0  0
   23.5735   44.1344   39.0380 O   0  0  0  0  0  0  0  0  0  0  0  0
   24.6188   46.3254   39.4321 O   0  0  0  0  0  0  0  0  0  0  0  0
   26.2998   43.7097   44.6349 O   0  0  0  0  0  0  0  0  0  0  0  0
   22.7379   46.4961   43.0609 O   0  0  0  0  0  0  0  0  0  0  0  0
   23.9794   44.8698   41.3342 N   0  0  0  0  0  0  0  0  0  0  0  0
   26.1237   44.2382   42.1245 N   0  0  0  0  0  0  0  0  0  0  0  0
   25.1347   44.8864   46.2486 N   0  0  0  0  0  0  0  0  0  0  0  0
   24.0098   41.0623   48.2851 C   0  0  0  0  0  0  0  0  0  0  0  0
   26.0164   41.1341   46.7682 C   0  0  0  0  0  0  0  0  0  0  0  0
   25.9751   44.3302   47.3669 C   0  0  0  0  0  0  0  0  0  0  0  0
   28.0338   43.3259   38.5219 C   0  0  0  0  0  0  0  0  0  0  0  0
   28.6699   43.0299   39.7559 C   0  0  0  0  0  0  0  0  0  0  0  0
   22.7659   47.2353   48.0787 C   0  0  0  0  0  0  0  0  0  0  0  0
   21.9880   47.7370   47.0161 C   0  0  0  0  0  0  0  0  0  0  0  0
   26.7385   43.9182   38.5093 C   0  0  0  0  0  0  0  0  0  0  0  0
   28.0178   43.3309   40.9746 C   0  0  0  0  0  0  0  0  0  0  0  0
   25.4363   43.1389   48.2155 C   0  0  0  0  0  0  0  0  0  0  0  0
   23.7933   46.2955   47.8360 C   0  0  0  0  0  0  0  0  0  0  0  0
   22.2437   47.3024   45.7082 C   0  0  0  0  0  0  0  0  0  0  0  0
   25.3970   44.4942   44.9322 C   0  0  0  0  0  0  0  0  0  0  0  0
   24.8599   44.6845   42.3604 C   0  0  0  0  0  0  0  0  0  0  0  0
   26.1000   44.2076   39.7300 C   0  0  0  0  0  0  0  0  0  0  0  0
   23.5364   45.9473   44.0411 C   0  0  0  0  0  0  0  0  0  0  0  0
   26.7249   43.9247   40.9637 C   0  0  0  0  0  0  0  0  0  0  0  0
   24.0890   45.8294   46.5139 C   0  0  0  0  0  0  0  0  0  0  0  0
   24.8757   41.9636   47.3947 C   0  0  0  0  0  0  0  0  0  0  0  0
   23.2836   46.3601   45.4380 C   0  0  0  0  0  0  0  0  0  0  0  0
   24.5602   45.0573   43.7836 C   0  0  0  0  0  0  0  0  0  0  0  0
   22.8764   46.2431   42.1034 H   0  0  0  0  0  0  0  0  0  0  0  0
   23.0043   44.9609   41.5366 H   0  0  0  0  0  0  0  0  0  0  0  0
   23.2719   41.6029   48.6892 H   0  0  0  0  0  0  0  0  0  0  0  0
   23.6194   40.3250   47.7337 H   0  0  0  0  0  0  0  0  0  0  0  0
   24.5738   40.6716   49.0126 H   0  0  0  0  0  0  0  0  0  0  0  0
   26.5784   41.7244   46.1888 H   0  0  0  0  0  0  0  0  0  0  0  0
   26.5822   40.7435   47.4943 H   0  0  0  0  0  0  0  0  0  0  0  0
   25.6278   40.3969   46.2154 H   0  0  0  0  0  0  0  0  0  0  0  0
   26.1495   45.0833   48.0014 H   0  0  0  0  0  0  0  0  0  0  0  0
   26.8381   44.0303   46.9603 H   0  0  0  0  0  0  0  0  0  0  0  0
   28.4959   43.1182   37.6598 H   0  0  0  0  0  0  0  0  0  0  0  0
   29.5772   42.6095   39.7636 H   0  0  0  0  0  0  0  0  0  0  0  0
   22.5895   47.5469   49.0124 H   0  0  0  0  0  0  0  0  0  0  0  0
   21.2591   48.3981   47.1939 H   0  0  0  0  0  0  0  0  0  0  0  0
   26.2870   44.1264   37.6416 H   0  0  0  0  0  0  0  0  0  0  0  0
   28.4660   43.1261   41.8447 H   0  0  0  0  0  0  0  0  0  0  0  0
   24.7059   43.4825   48.8058 H   0  0  0  0  0  0  0  0  0  0  0  0
   26.1865   42.7944   48.7798 H   0  0  0  0  0  0  0  0  0  0  0  0
   24.3272   45.9471   48.6064 H   0  0  0  0  0  0  0  0  0  0  0  0
   21.6909   47.6566   44.9539 H   0  0  0  0  0  0  0  0  0  0  0  0
   24.3054   42.3300   46.6595 H   0  0  0  0  0  0  0  0  0  0  0  0
  1  2  2  0  0  0  0
  1  3  2  0  0  0  0
  1  6  1  0  0  0  0
  1 23  1  0  0  0  0
  4 21  2  0  0  0  0
  5 24  1  0  0  0  0
  6 22  1  0  0  0  0
  7 22  2  0  0  0  0
  7 25  1  0  0  0  0
  8 11  1  0  0  0  0
  8 21  1  0  0  0  0
  8 26  1  0  0  0  0
  9 27  1  0  0  0  0
 10 27  1  0  0  0  0
 11 18  1  0  0  0  0
 12 13  2  0  0  0  0
 12 16  1  0  0  0  0
 13 17  1  0  0  0  0
 14 15  2  0  0  0  0
 14 19  1  0  0  0  0
 15 20  1  0  0  0  0
 16 23  2  0  0  0  0
 17 25  2  0  0  0  0
 18 27  1  0  0  0  0
 19 26  2  0  0  0  0
 20 28  2  0  0  0  0
 21 29  1  0  0  0  0
 22 29  1  0  0  0  0
 23 25  1  0  0  0  0
 24 28  1  0  0  0  0
 24 29  2  0  0  0  0
 26 28  1  0  0  0  0
  5 30  1  0  0  0  0
  6 31  1  0  0  0  0
  9 32  1  0  0  0  0
  9 33  1  0  0  0  0
  9 34  1  0  0  0  0
 10 35  1  0  0  0  0
 10 36  1  0  0  0  0
 10 37  1  0  0  0  0
 11 38  1  0  0  0  0
 11 39  1  0  0  0  0
 12 40  1  0  0  0  0
 13 41  1  0  0  0  0
 14 42  1  0  0  0  0
 15 43  1  0  0  0  0
 16 44  1  0  0  0  0
 17 45  1  0  0  0  0
 18 46  1  0  0  0  0
 18 47  1  0  0  0  0
 19 48  1  0  0  0  0
 20 49  1  0  0  0  0
 27 50  1  0  0  0  0
M  END
> <pdb_id>
2FVC

> <uniprot_id>
nan

> <usmiles>
S1(=O)(=O)NC(=Nc2c1cccc2)C=3C(=O)N(c4c(cccc4)C3O)CCC(C)C

$$$$
88P_A_501
          07202411433D 1   1.00000     0.00000     0
            
 31 32  0  0  0  0            999 V2000
    9.9891   10.7232   18.3311 O   0  0  0  0  0  0  0  0  0  0  0  0
   16.3859   12.4659   16.5062 O   0  0  0  0  0  0  0  0  0  0  0  0
   10.3726   12.8511   19.1046 O   0  0  0  0  0  0  0  0  0  0  0  0
   12.5769   10.7114   17.1868 N   0  0  0  0  0  0  0  0  0  0  0  0
    8.9096   13.3435   20.9342 C   0  0  0  0  0  0  0  0  0  0  0  0
   14.6513    9.9616   16.0218 C   0  0  0  0  0  0  0  0  0  0  0  0
    8.9986   12.8812   19.5022 C   0  0  0  0  0  0  0  0  0  0  0  0
   14.4341   14.6852   18.4619 C   0  0  0  0  0  0  0  0  0  0  0  0
   15.2464   14.4535   17.1873 C   0  0  0  0  0  0  0  0  0  0  0  0
   13.0065   14.1523   18.3697 C   0  0  0  0  0  0  0  0  0  0  0  0
   10.7075   11.7148   18.4149 C   0  0  0  0  0  0  0  0  0  0  0  0
   15.3465   12.9741   16.8987 C   0  0  0  0  0  0  0  0  0  0  0  0
   13.8523   10.9602   16.7509 C   0  0  0  0  0  0  0  0  0  0  0  0
   12.0287   11.7856   17.8407 C   0  0  0  0  0  0  0  0  0  0  0  0
   13.0038   12.7708   17.8190 C   0  0  0  0  0  0  0  0  0  0  0  0
   14.1376   12.2482   17.1329 C   0  0  0  0  0  0  0  0  0  0  0  0
   12.0996    9.8443   17.0441 H   0  0  0  0  0  0  0  0  0  0  0  0
    7.9511   13.3665   21.2181 H   0  0  0  0  0  0  0  0  0  0  0  0
    9.4158   12.7112   21.5206 H   0  0  0  0  0  0  0  0  0  0  0  0
    9.3030   14.2594   21.0138 H   0  0  0  0  0  0  0  0  0  0  0  0
   15.5463   10.3485   15.7998 H   0  0  0  0  0  0  0  0  0  0  0  0
   14.7716    9.1495   16.5928 H   0  0  0  0  0  0  0  0  0  0  0  0
   14.1788    9.7085   15.1776 H   0  0  0  0  0  0  0  0  0  0  0  0
    8.6064   11.9649   19.4211 H   0  0  0  0  0  0  0  0  0  0  0  0
    8.4936   13.5131   18.9143 H   0  0  0  0  0  0  0  0  0  0  0  0
   14.3955   15.6685   18.6400 H   0  0  0  0  0  0  0  0  0  0  0  0
   14.8961   14.2268   19.2211 H   0  0  0  0  0  0  0  0  0  0  0  0
   16.1649   14.8303   17.3072 H   0  0  0  0  0  0  0  0  0  0  0  0
   14.7961   14.9106   16.4203 H   0  0  0  0  0  0  0  0  0  0  0  0
   12.4707   14.7471   17.7703 H   0  0  0  0  0  0  0  0  0  0  0  0
   12.5982   14.1440   19.2825 H   0  0  0  0  0  0  0  0  0  0  0  0
  1 11  2  0  0  0  0
  2 12  2  0  0  0  0
  3  7  1  0  0  0  0
  3 11  1  0  0  0  0
  4 13  1  0  0  0  0
  4 14  1  0  0  0  0
  5  7  1  0  0  0  0
  6 13  1  0  0  0  0
  8  9  1  0  0  0  0
  8 10  1  0  0  0  0
  9 12  1  0  0  0  0
 10 15  1  0  0  0  0
 11 14  1  0  0  0  0
 12 16  1  0  0  0  0
 13 16  2  0  0  0  0
 14 15  2  0  0  0  0
 15 16  1  0  0  0  0
  4 17  1  0  0  0  0
  5 18  1  0  0  0  0
  5 19  1  0  0  0  0
  5 20  1  0  0  0  0
  6 21  1  0  0  0  0
  6 22  1  0  0  0  0
  6 23  1  0  0  0  0
  7 24  1  0  0  0  0
  7 25  1  0  0  0  0
  8 26  1  0  0  0  0
  8 27  1  0  0  0  0
  9 28  1  0  0  0  0
  9 29  1  0  0  0  0
 10 30  1  0  0  0  0
 10 31  1  0  0  0  0
M  END
> <pdb_id>
5UEP

> <uniprot_id>
O60885

> <usmiles>
O=C(OCC)C=1NC(=C2C(=O)CCCC12)C

$$$$
88Y_A_501
          07202411433D 1   1.00000     0.00000     0
            
 30 31  0  0  0  0            999 V2000
   16.3515   12.4929   16.5229 O   0  0  0  0  0  0  0  0  0  0  0  0
    9.6767   10.6202   16.0303 N   0  0  0  0  0  0  0  0  0  0  0  0
   12.4645   10.8444   16.9123 N   0  0  0  0  0  0  0  0  0  0  0  0
   15.2681   14.5837   16.7415 C   0  0  0  0  0  0  0  0  0  0  0  0
   14.6078    9.9499   16.1217 C   0  0  0  0  0  0  0  0  0  0  0  0
    8.0098   11.9204   19.0620 C   0  0  0  0  0  0  0  0  0  0  0  0
    9.0317   12.6281   19.6709 C   0  0  0  0  0  0  0  0  0  0  0  0
    8.2409   11.2589   17.8670 C   0  0  0  0  0  0  0  0  0  0  0  0
   10.2812   12.6444   19.0810 C   0  0  0  0  0  0  0  0  0  0  0  0
   12.8270   12.9632   17.3353 C   0  0  0  0  0  0  0  0  0  0  0  0
   15.3000   13.0816   16.6972 C   0  0  0  0  0  0  0  0  0  0  0  0
    9.4856   11.2922   17.2558 C   0  0  0  0  0  0  0  0  0  0  0  0
   13.7790   11.0622   16.6180 C   0  0  0  0  0  0  0  0  0  0  0  0
   11.8610   11.9830   17.3650 C   0  0  0  0  0  0  0  0  0  0  0  0
   10.5110   11.9948   17.8758 C   0  0  0  0  0  0  0  0  0  0  0  0
   14.0353   12.4010   16.8472 C   0  0  0  0  0  0  0  0  0  0  0  0
   10.5712   10.6396   15.5836 H   0  0  0  0  0  0  0  0  0  0  0  0
    8.9177   10.1245   15.6082 H   0  0  0  0  0  0  0  0  0  0  0  0
   12.0021    9.9636   16.8097 H   0  0  0  0  0  0  0  0  0  0  0  0
   14.3290   14.8929   16.8915 H   0  0  0  0  0  0  0  0  0  0  0  0
   15.8489   14.9075   17.4884 H   0  0  0  0  0  0  0  0  0  0  0  0
   15.6051   14.9500   15.8742 H   0  0  0  0  0  0  0  0  0  0  0  0
   15.5386   10.2759   15.9560 H   0  0  0  0  0  0  0  0  0  0  0  0
   14.6272    9.2186   16.8035 H   0  0  0  0  0  0  0  0  0  0  0  0
   14.2203    9.6003   15.2687 H   0  0  0  0  0  0  0  0  0  0  0  0
    7.1043   11.8866   19.4850 H   0  0  0  0  0  0  0  0  0  0  0  0
    8.8680   13.1207   20.5256 H   0  0  0  0  0  0  0  0  0  0  0  0
    7.4966   10.7479   17.4370 H   0  0  0  0  0  0  0  0  0  0  0  0
   11.0310   13.1313   19.5290 H   0  0  0  0  0  0  0  0  0  0  0  0
   12.6985   13.9155   17.6123 H   0  0  0  0  0  0  0  0  0  0  0  0
  1 11  2  0  0  0  0
  2 12  1  0  0  0  0
  3 13  1  0  0  0  0
  3 14  1  0  0  0  0
  4 11  1  0  0  0  0
  5 13  1  0  0  0  0
  6  7  2  0  0  0  0
  6  8  1  0  0  0  0
  7  9  1  0  0  0  0
  8 12  2  0  0  0  0
  9 15  2  0  0  0  0
 10 14  2  0  0  0  0
 10 16  1  0  0  0  0
 11 16  1  0  0  0  0
 12 15  1  0  0  0  0
 13 16  2  0  0  0  0
 14 15  1  0  0  0  0
  2 17  1  0  0  0  0
  2 18  1  0  0  0  0
  3 19  1  0  0  0  0
  4 20  1  0  0  0  0
  4 21  1  0  0  0  0
  4 22  1  0  0  0  0
  5 23  1  0  0  0  0
  5 24  1  0  0  0  0
  5 25  1  0  0  0  0
  6 26  1  0  0  0  0
  7 27  1  0  0  0  0
  8 28  1  0  0  0  0
  9 29  1  0  0  0  0
 10 30  1  0  0  0  0
M  END
> <pdb_id>
5UEV

> <uniprot_id>
O60885

> <usmiles>
O=C(C1=C(NC(c2c(N)cccc2)=C1)C)C

$$$$
89D_A_501
          07202411433D 1   1.00000     0.00000     0
            
 58 61  0  0  0  0            999 V2000
    8.0810   11.7050   16.4670 S   0  0  0  0  0  0  0  0  0  0  0  0
   13.2620   12.5140   26.2810 F   0  0  0  0  0  0  0  0  0  0  0  0
   12.9100   10.2060   22.2260 F   0  0  0  0  0  0  0  0  0  0  0  0
    6.6460   11.6820   16.2620 O   0  0  0  0  0  0  0  0  0  0  0  0
    8.8830   12.7380   15.8410 O   0  0  0  0  0  0  0  0  0  0  0  0
   16.6280   12.1360   15.7470 O   0  0  0  0  0  0  0  0  0  0  0  0
   13.5160   14.5060   18.3970 O   0  0  0  0  0  0  0  0  0  0  0  0
   13.2800   12.4880   20.7900 O   0  0  0  0  0  0  0  0  0  0  0  0
    8.3730   11.6210   18.1590 N   0  0  0  0  0  0  0  0  0  0  0  0
   14.8030   11.0190   16.6170 N   0  0  0  0  0  0  0  0  0  0  0  0
   15.1910    9.7730   16.0050 C   0  0  0  0  0  0  0  0  0  0  0  0
    8.1390    8.9960   16.7620 C   0  0  0  0  0  0  0  0  0  0  0  0
   13.6720   11.0640   17.3850 C   0  0  0  0  0  0  0  0  0  0  0  0
   10.8360   12.2180   20.8130 C   0  0  0  0  0  0  0  0  0  0  0  0
    9.6600   12.0130   20.1250 C   0  0  0  0  0  0  0  0  0  0  0  0
   13.0870   11.3290   24.2570 C   0  0  0  0  0  0  0  0  0  0  0  0
   15.1480   13.3900   17.0330 C   0  0  0  0  0  0  0  0  0  0  0  0
   13.4910   13.6830   24.2620 C   0  0  0  0  0  0  0  0  0  0  0  0
   10.8650   11.8950   18.0800 C   0  0  0  0  0  0  0  0  0  0  0  0
    8.6850   10.1270   15.9230 C   0  0  0  0  0  0  0  0  0  0  0  0
   14.4820   15.1440   19.2210 C   0  0  0  0  0  0  0  0  0  0  0  0
   13.7530   16.1740   20.0570 C   0  0  0  0  0  0  0  0  0  0  0  0
   12.8960   15.5460   21.1390 C   0  0  0  0  0  0  0  0  0  0  0  0
   13.7820   15.0690   22.2680 C   0  0  0  0  0  0  0  0  0  0  0  0
   13.2710   12.5070   24.9400 C   0  0  0  0  0  0  0  0  0  0  0  0
   15.6020   12.1270   16.4070 C   0  0  0  0  0  0  0  0  0  0  0  0
   13.1100   11.3550   22.8810 C   0  0  0  0  0  0  0  0  0  0  0  0
   14.0380   13.3810   17.7830 C   0  0  0  0  0  0  0  0  0  0  0  0
   12.0480   12.2630   20.1420 C   0  0  0  0  0  0  0  0  0  0  0  0
   13.2890   12.5380   22.1840 C   0  0  0  0  0  0  0  0  0  0  0  0
    9.6640   11.8460   18.7590 C   0  0  0  0  0  0  0  0  0  0  0  0
   13.4920   13.7250   22.8780 C   0  0  0  0  0  0  0  0  0  0  0  0
   13.2680   12.1870   17.9760 C   0  0  0  0  0  0  0  0  0  0  0  0
   12.0450   12.1130   18.7650 C   0  0  0  0  0  0  0  0  0  0  0  0
    7.7480   11.0270   18.7190 H   0  0  0  0  0  0  0  0  0  0  0  0
   16.2130    9.5430   16.3070 H   0  0  0  0  0  0  0  0  0  0  0  0
   15.1470    9.8900   14.9190 H   0  0  0  0  0  0  0  0  0  0  0  0
   14.5240    8.9650   16.3140 H   0  0  0  0  0  0  0  0  0  0  0  0
    8.3510    8.0370   16.2830 H   0  0  0  0  0  0  0  0  0  0  0  0
    7.0570    9.0930   16.8790 H   0  0  0  0  0  0  0  0  0  0  0  0
    8.5980    8.9960   17.7530 H   0  0  0  0  0  0  0  0  0  0  0  0
   13.1220   10.1410   17.4920 H   0  0  0  0  0  0  0  0  0  0  0  0
   10.7680   12.3500   21.8850 H   0  0  0  0  0  0  0  0  0  0  0  0
    8.7230   11.9800   20.6680 H   0  0  0  0  0  0  0  0  0  0  0  0
   12.9140   10.4010   24.7900 H   0  0  0  0  0  0  0  0  0  0  0  0
   15.7460   14.2780   16.8690 H   0  0  0  0  0  0  0  0  0  0  0  0
   13.6570   14.5860   24.8370 H   0  0  0  0  0  0  0  0  0  0  0  0
   10.9110   11.7650   17.0080 H   0  0  0  0  0  0  0  0  0  0  0  0
    8.3640   10.0200   14.8850 H   0  0  0  0  0  0  0  0  0  0  0  0
    9.7740   10.1530   15.9550 H   0  0  0  0  0  0  0  0  0  0  0  0
   14.9990   14.4000   19.8310 H   0  0  0  0  0  0  0  0  0  0  0  0
   15.2140   15.6580   18.5920 H   0  0  0  0  0  0  0  0  0  0  0  0
   13.1160   16.7750   19.4040 H   0  0  0  0  0  0  0  0  0  0  0  0
   14.4810   16.8510   20.5130 H   0  0  0  0  0  0  0  0  0  0  0  0
   12.2660   14.7630   20.7300 H   0  0  0  0  0  0  0  0  0  0  0  0
   12.2240   16.3120   21.5320 H   0  0  0  0  0  0  0  0  0  0  0  0
   14.8250   15.0510   21.9490 H   0  0  0  0  0  0  0  0  0  0  0  0
   13.7230   15.8290   23.0490 H   0  0  0  0  0  0  0  0  0  0  0  0
  1  4  2  0  0  0  0
  1  5  2  0  0  0  0
  1  9  1  0  0  0  0
  1 20  1  0  0  0  0
  2 25  1  0  0  0  0
  3 27  1  0  0  0  0
  6 26  2  0  0  0  0
  7 21  1  0  0  0  0
  7 28  1  0  0  0  0
  8 29  1  0  0  0  0
  8 30  1  0  0  0  0
  9 31  1  0  0  0  0
  9 35  1  0  0  0  0
 10 11  1  0  0  0  0
 10 13  1  0  0  0  0
 10 26  1  0  0  0  0
 11 36  1  0  0  0  0
 11 37  1  0  0  0  0
 11 38  1  0  0  0  0
 12 20  1  0  0  0  0
 12 39  1  0  0  0  0
 12 40  1  0  0  0  0
 12 41  1  0  0  0  0
 13 33  2  0  0  0  0
 13 42  1  0  0  0  0
 14 15  1  0  0  0  0
 14 29  2  0  0  0  0
 14 43  1  0  0  0  0
 15 31  2  0  0  0  0
 15 44  1  0  0  0  0
 16 25  2  0  0  0  0
 16 27  1  0  0  0  0
 16 45  1  0  0  0  0
 17 26  1  0  0  0  0
 17 28  2  0  0  0  0
 17 46  1  0  0  0  0
 18 25  1  0  0  0  0
 18 32  2  0  0  0  0
 18 47  1  0  0  0  0
 19 31  1  0  0  0  0
 19 34  2  0  0  0  0
 19 48  1  0  0  0  0
 20 49  1  0  0  0  0
 20 50  1  0  0  0  0
 21 22  1  0  0  0  0
 21 51  1  0  0  0  0
 21 52  1  0  0  0  0
 22 23  1  0  0  0  0
 22 53  1  0  0  0  0
 22 54  1  0  0  0  0
 23 24  1  0  0  0  0
 23 55  1  0  0  0  0
 23 56  1  0  0  0  0
 24 32  1  0  0  0  0
 24 57  1  0  0  0  0
 24 58  1  0  0  0  0
 27 30  2  0  0  0  0
 28 33  1  0  0  0  0
 29 34  1  0  0  0  0
 30 32  1  0  0  0  0
 33 34  1  0  0  0  0
M  END
> <pdb_id>
5UEX

> <uniprot_id>
O60885

> <usmiles>
S(=O)(=O)(Nc1cc2c(Oc3c(F)cc(F)cc3CCCCOC=4C2=CN(C(=O)C4)C)cc1)CC

$$$$
89G_A_501
          07202411433D 1   1.00000     0.00000     0
            
 39 41  0  0  0  0            999 V2000
   16.5939   12.2427   16.3886 O   0  0  0  0  0  0  0  0  0  0  0  0
   14.1041   14.9334   19.5064 O   0  0  0  0  0  0  0  0  0  0  0  0
   12.8393   12.1869   21.0204 O   0  0  0  0  0  0  0  0  0  0  0  0
   13.2818   11.9048   17.6302 N   0  0  0  0  0  0  0  0  0  0  0  0
   14.4554   11.6598   16.9943 N   0  0  0  0  0  0  0  0  0  0  0  0
   15.3398   15.5662   19.8426 C   0  0  0  0  0  0  0  0  0  0  0  0
   14.4812   10.4702   16.1661 C   0  0  0  0  0  0  0  0  0  0  0  0
   13.8893   12.6068   24.9906 C   0  0  0  0  0  0  0  0  0  0  0  0
   13.5751   13.7406   24.2672 C   0  0  0  0  0  0  0  0  0  0  0  0
   13.8516   11.3608   24.3969 C   0  0  0  0  0  0  0  0  0  0  0  0
    9.5821   13.7531   20.3697 C   0  0  0  0  0  0  0  0  0  0  0  0
    9.7621   14.1520   19.0579 C   0  0  0  0  0  0  0  0  0  0  0  0
   13.2238   13.6369   22.9370 C   0  0  0  0  0  0  0  0  0  0  0  0
   13.4727   11.2502   23.0768 C   0  0  0  0  0  0  0  0  0  0  0  0
   10.5806   13.0943   21.0602 C   0  0  0  0  0  0  0  0  0  0  0  0
   10.9534   13.8851   18.4008 C   0  0  0  0  0  0  0  0  0  0  0  0
   15.4803   13.6640   17.9227 C   0  0  0  0  0  0  0  0  0  0  0  0
   15.5635   12.4695   17.0279 C   0  0  0  0  0  0  0  0  0  0  0  0
   13.1555   12.3842   22.3554 C   0  0  0  0  0  0  0  0  0  0  0  0
   14.3446   13.8806   18.6248 C   0  0  0  0  0  0  0  0  0  0  0  0
   11.7836   12.8540   20.4114 C   0  0  0  0  0  0  0  0  0  0  0  0
   13.2298   12.9456   18.3942 C   0  0  0  0  0  0  0  0  0  0  0  0
   11.9580   13.2442   19.0968 C   0  0  0  0  0  0  0  0  0  0  0  0
   15.1664   16.3212   20.4750 H   0  0  0  0  0  0  0  0  0  0  0  0
   15.9477   14.9011   20.2762 H   0  0  0  0  0  0  0  0  0  0  0  0
   15.7703   15.9193   19.0119 H   0  0  0  0  0  0  0  0  0  0  0  0
   15.3828   10.3778   15.7434 H   0  0  0  0  0  0  0  0  0  0  0  0
   14.2939    9.6666   16.7310 H   0  0  0  0  0  0  0  0  0  0  0  0
   13.7847   10.5457   15.4525 H   0  0  0  0  0  0  0  0  0  0  0  0
   14.1466   12.6891   25.9534 H   0  0  0  0  0  0  0  0  0  0  0  0
   13.6022   14.6378   24.7082 H   0  0  0  0  0  0  0  0  0  0  0  0
   14.0973   10.5452   24.9209 H   0  0  0  0  0  0  0  0  0  0  0  0
    8.7135   13.9450   20.8266 H   0  0  0  0  0  0  0  0  0  0  0  0
    9.0287   14.6358   18.5804 H   0  0  0  0  0  0  0  0  0  0  0  0
   13.0213   14.4564   22.4008 H   0  0  0  0  0  0  0  0  0  0  0  0
   13.4276   10.3507   22.6420 H   0  0  0  0  0  0  0  0  0  0  0  0
   10.4400   12.7976   22.0048 H   0  0  0  0  0  0  0  0  0  0  0  0
   11.0817   14.1508   17.4454 H   0  0  0  0  0  0  0  0  0  0  0  0
   16.2531   14.2938   18.0012 H   0  0  0  0  0  0  0  0  0  0  0  0
  1 18  2  0  0  0  0
  2  6  1  0  0  0  0
  2 20  1  0  0  0  0
  3 19  1  0  0  0  0
  3 21  1  0  0  0  0
  4  5  1  0  0  0  0
  4 22  2  0  0  0  0
  5  7  1  0  0  0  0
  5 18  1  0  0  0  0
  8  9  2  0  0  0  0
  8 10  1  0  0  0  0
  9 13  1  0  0  0  0
 10 14  2  0  0  0  0
 11 12  2  0  0  0  0
 11 15  1  0  0  0  0
 12 16  1  0  0  0  0
 13 19  2  0  0  0  0
 14 19  1  0  0  0  0
 15 21  2  0  0  0  0
 16 23  2  0  0  0  0
 17 18  1  0  0  0  0
 17 20  2  0  0  0  0
 20 22  1  0  0  0  0
 21 23  1  0  0  0  0
 22 23  1  0  0  0  0
  6 24  1  0  0  0  0
  6 25  1  0  0  0  0
  6 26  1  0  0  0  0
  7 27  1  0  0  0  0
  7 28  1  0  0  0  0
  7 29  1  0  0  0  0
  8 30  1  0  0  0  0
  9 31  1  0  0  0  0
 10 32  1  0  0  0  0
 11 33  1  0  0  0  0
 12 34  1  0  0  0  0
 13 35  1  0  0  0  0
 14 36  1  0  0  0  0
 15 37  1  0  0  0  0
 16 38  1  0  0  0  0
 17 39  1  0  0  0  0
M  END
> <pdb_id>
5UEZ

> <uniprot_id>
O60885

> <usmiles>
O=C1N(N=C(c2c(Oc3ccccc3)cccc2)C(OC)=C1)C

$$$$
89J_A_501
          07202411433D 1   1.00000     0.00000     0
            
 29 30  0  0  0  0            999 V2000
   16.6362   12.1746   16.4960 O   0  0  0  0  0  0  0  0  0  0  0  0
   13.2518   12.0101   17.5590 N   0  0  0  0  0  0  0  0  0  0  0  0
   14.1165   15.1240   19.2477 N   0  0  0  0  0  0  0  0  0  0  0  0
   14.4566   11.6729   17.0405 N   0  0  0  0  0  0  0  0  0  0  0  0
   15.2309   15.9699   19.5955 C   0  0  0  0  0  0  0  0  0  0  0  0
   14.4953   10.4060   16.3467 C   0  0  0  0  0  0  0  0  0  0  0  0
    9.2952   14.1366   19.5088 C   0  0  0  0  0  0  0  0  0  0  0  0
    9.9382   13.0560   20.0866 C   0  0  0  0  0  0  0  0  0  0  0  0
    9.9116   14.8864   18.5267 C   0  0  0  0  0  0  0  0  0  0  0  0
   11.2167   12.7107   19.6760 C   0  0  0  0  0  0  0  0  0  0  0  0
   11.1907   14.5502   18.1167 C   0  0  0  0  0  0  0  0  0  0  0  0
   15.4751   13.7163   17.8225 C   0  0  0  0  0  0  0  0  0  0  0  0
   15.5668   12.4692   17.0351 C   0  0  0  0  0  0  0  0  0  0  0  0
   14.3240   14.0138   18.4541 C   0  0  0  0  0  0  0  0  0  0  0  0
   13.1813   13.1009   18.2361 C   0  0  0  0  0  0  0  0  0  0  0  0
   11.8357   13.4708   18.7034 C   0  0  0  0  0  0  0  0  0  0  0  0
   13.1983   15.3403   19.5796 H   0  0  0  0  0  0  0  0  0  0  0  0
   14.9110   16.7232   20.1702 H   0  0  0  0  0  0  0  0  0  0  0  0
   15.9120   15.4352   20.0956 H   0  0  0  0  0  0  0  0  0  0  0  0
   15.6427   16.3382   18.7620 H   0  0  0  0  0  0  0  0  0  0  0  0
   15.4194   10.2434   16.0008 H   0  0  0  0  0  0  0  0  0  0  0  0
   14.2417    9.6726   16.9774 H   0  0  0  0  0  0  0  0  0  0  0  0
   13.8516   10.4251   15.5816 H   0  0  0  0  0  0  0  0  0  0  0  0
    8.3716   14.3778   19.8066 H   0  0  0  0  0  0  0  0  0  0  0  0
    9.4810   12.5245   20.7998 H   0  0  0  0  0  0  0  0  0  0  0  0
    9.4385   15.6654   18.1152 H   0  0  0  0  0  0  0  0  0  0  0  0
   11.6835   11.9230   20.0781 H   0  0  0  0  0  0  0  0  0  0  0  0
   11.6465   15.0815   17.4026 H   0  0  0  0  0  0  0  0  0  0  0  0
   16.2599   14.3329   17.8856 H   0  0  0  0  0  0  0  0  0  0  0  0
  1 13  2  0  0  0  0
  2  4  1  0  0  0  0
  2 15  2  0  0  0  0
  3  5  1  0  0  0  0
  3 14  1  0  0  0  0
  4  6  1  0  0  0  0
  4 13  1  0  0  0  0
  7  8  2  0  0  0  0
  7  9  1  0  0  0  0
  8 10  1  0  0  0  0
  9 11  2  0  0  0  0
 10 16  2  0  0  0  0
 11 16  1  0  0  0  0
 12 13  1  0  0  0  0
 12 14  2  0  0  0  0
 14 15  1  0  0  0  0
 15 16  1  0  0  0  0
  3 17  1  0  0  0  0
  5 18  1  0  0  0  0
  5 19  1  0  0  0  0
  5 20  1  0  0  0  0
  6 21  1  0  0  0  0
  6 22  1  0  0  0  0
  6 23  1  0  0  0  0
  7 24  1  0  0  0  0
  8 25  1  0  0  0  0
  9 26  1  0  0  0  0
 10 27  1  0  0  0  0
 11 28  1  0  0  0  0
 12 29  1  0  0  0  0
M  END
> <pdb_id>
5UF0

> <uniprot_id>
O60885

> <usmiles>
O=C1N(N=C(c2ccccc2)C(NC)=C1)C

$$$$
8AJ_B_401
          07212404143D 1   1.00000     0.00000     0
            
 44 47  0  0  0  0            999 V2000
   -7.2752    5.9410  -40.8372 Cl  0  0  0  0  0  0  0  0  0  0  0  0
   -2.8134    6.3489  -47.8096 N   0  0  0  0  0  0  0  0  0  0  0  0
   -1.8963    5.8595  -46.9577 N   0  0  0  0  0  0  0  0  0  0  0  0
   -6.4001    7.3340  -50.0409 N   0  0  0  0  0  0  0  0  0  0  0  0
   -3.7982    6.1318  -45.7364 N   0  0  0  0  0  0  0  0  0  0  0  0
   -6.1771    7.1749  -51.4820 C   0  0  0  0  0  0  0  0  0  0  0  0
   -6.8430    8.6828  -49.7500 C   0  0  0  0  0  0  0  0  0  0  0  0
   -5.1769    7.0880  -49.3438 C   0  0  0  0  0  0  0  0  0  0  0  0
   -1.1071    3.5945  -39.6094 C   0  0  0  0  0  0  0  0  0  0  0  0
   -1.4417    2.7407  -40.7016 C   0  0  0  0  0  0  0  0  0  0  0  0
   -1.3143    4.9713  -39.7205 C   0  0  0  0  0  0  0  0  0  0  0  0
   -5.2233    7.0730  -47.8486 C   0  0  0  0  0  0  0  0  0  0  0  0
   -6.8544    6.4918  -43.5006 C   0  0  0  0  0  0  0  0  0  0  0  0
   -1.9589    3.2699  -41.8335 C   0  0  0  0  0  0  0  0  0  0  0  0
   -1.8494    5.5159  -40.8977 C   0  0  0  0  0  0  0  0  0  0  0  0
   -6.0377    6.5273  -44.6460 C   0  0  0  0  0  0  0  0  0  0  0  0
   -1.9376    5.2387  -44.4223 C   0  0  0  0  0  0  0  0  0  0  0  0
   -5.0025    5.5943  -42.1792 C   0  0  0  0  0  0  0  0  0  0  0  0
   -3.9895    6.5376  -47.1469 C   0  0  0  0  0  0  0  0  0  0  0  0
   -2.4982    5.7155  -45.6609 C   0  0  0  0  0  0  0  0  0  0  0  0
   -6.3115    6.0025  -42.2423 C   0  0  0  0  0  0  0  0  0  0  0  0
   -4.6628    6.1000  -44.5869 C   0  0  0  0  0  0  0  0  0  0  0  0
   -2.1737    4.6759  -41.9449 C   0  0  0  0  0  0  0  0  0  0  0  0
   -4.1571    5.6356  -43.3524 C   0  0  0  0  0  0  0  0  0  0  0  0
   -2.7673    5.1996  -43.2581 C   0  0  0  0  0  0  0  0  0  0  0  0
   -5.8721    6.2415  -51.6711 H   0  0  0  0  0  0  0  0  0  0  0  0
   -7.0299    7.3528  -51.9729 H   0  0  0  0  0  0  0  0  0  0  0  0
   -5.4772    7.8220  -51.7844 H   0  0  0  0  0  0  0  0  0  0  0  0
   -6.9918    8.7799  -48.7660 H   0  0  0  0  0  0  0  0  0  0  0  0
   -6.1451    9.3342  -50.0475 H   0  0  0  0  0  0  0  0  0  0  0  0
   -7.6978    8.8650  -50.2360 H   0  0  0  0  0  0  0  0  0  0  0  0
   -4.5291    7.7996  -49.6160 H   0  0  0  0  0  0  0  0  0  0  0  0
   -4.8369    6.1960  -49.6417 H   0  0  0  0  0  0  0  0  0  0  0  0
   -0.7262    3.2095  -38.7686 H   0  0  0  0  0  0  0  0  0  0  0  0
   -1.2943    1.7542  -40.6306 H   0  0  0  0  0  0  0  0  0  0  0  0
   -1.0799    5.5725  -38.9565 H   0  0  0  0  0  0  0  0  0  0  0  0
   -6.0008    6.5078  -47.5729 H   0  0  0  0  0  0  0  0  0  0  0  0
   -5.3676    8.0126  -47.5381 H   0  0  0  0  0  0  0  0  0  0  0  0
   -7.8039    6.8014  -43.5511 H   0  0  0  0  0  0  0  0  0  0  0  0
   -2.1928    2.6705  -42.5991 H   0  0  0  0  0  0  0  0  0  0  0  0
   -1.9944    6.5021  -40.9776 H   0  0  0  0  0  0  0  0  0  0  0  0
   -6.4164    6.8533  -45.5122 H   0  0  0  0  0  0  0  0  0  0  0  0
   -0.9843    4.9401  -44.3775 H   0  0  0  0  0  0  0  0  0  0  0  0
   -4.6290    5.2646  -41.3122 H   0  0  0  0  0  0  0  0  0  0  0  0
  1 21  1  0  0  0  0
  2  3  1  0  0  0  0
  2 19  2  0  0  0  0
  3 20  2  0  0  0  0
  4  6  1  0  0  0  0
  4  7  1  0  0  0  0
  4  8  1  0  0  0  0
  5 19  1  0  0  0  0
  5 20  1  0  0  0  0
  5 22  1  0  0  0  0
  8 12  1  0  0  0  0
  9 10  2  0  0  0  0
  9 11  1  0  0  0  0
 10 14  1  0  0  0  0
 11 15  2  0  0  0  0
 12 19  1  0  0  0  0
 13 16  1  0  0  0  0
 13 21  2  0  0  0  0
 14 23  2  0  0  0  0
 15 23  1  0  0  0  0
 16 22  2  0  0  0  0
 17 20  1  0  0  0  0
 17 25  2  0  0  0  0
 18 21  1  0  0  0  0
 18 24  2  0  0  0  0
 22 24  1  0  0  0  0
 23 25  1  0  0  0  0
 24 25  1  0  0  0  0
  6 26  1  0  0  0  0
  6 27  1  0  0  0  0
  6 28  1  0  0  0  0
  7 29  1  0  0  0  0
  7 30  1  0  0  0  0
  7 31  1  0  0  0  0
  8 32  1  0  0  0  0
  8 33  1  0  0  0  0
  9 34  1  0  0  0  0
 10 35  1  0  0  0  0
 11 36  1  0  0  0  0
 12 37  1  0  0  0  0
 12 38  1  0  0  0  0
 13 39  1  0  0  0  0
 14 40  1  0  0  0  0
 15 41  1  0  0  0  0
 16 42  1  0  0  0  0
 17 43  1  0  0  0  0
 18 44  1  0  0  0  0
M  END
> <pdb_id>
5UGH

> <uniprot_id>
P31153

> <usmiles>
Clc1cc2c(N3C(=NN=C3CCN(C)C)C=C2c4ccccc4)cc1

$$$$
8BQ_A_1351
          07192421293D 1   1.00000     0.00000     0
            
 41 44  0  0  0  0            999 V2000
   13.0563   10.8888   -1.7074 F   0  0  0  0  0  0  0  0  0  0  0  0
    3.4189   10.6219    4.6127 O   0  0  0  0  0  0  0  0  0  0  0  0
   10.9597   11.7462    3.7827 O   0  0  0  0  0  0  0  0  0  0  0  0
    5.5896    9.8012    1.2086 N   0  0  0  0  0  0  0  0  0  0  0  0
   11.1938    7.4580    3.1592 N   0  0  0  0  0  0  0  0  0  0  0  0
    3.4393   10.3371    2.3533 N   0  0  0  0  0  0  0  0  0  0  0  0
    4.1710   10.0514    1.1465 C   0  0  0  0  0  0  0  0  0  0  0  0
   13.3212   13.5292    0.6919 C   0  0  0  0  0  0  0  0  0  0  0  0
   13.4753   12.7793   -0.5095 C   0  0  0  0  0  0  0  0  0  0  0  0
   12.6012   12.9683    1.7534 C   0  0  0  0  0  0  0  0  0  0  0  0
    7.6131    9.9333    4.9692 C   0  0  0  0  0  0  0  0  0  0  0  0
    6.2639   10.1651    4.9199 C   0  0  0  0  0  0  0  0  0  0  0  0
   12.1874   10.9966    0.4754 C   0  0  0  0  0  0  0  0  0  0  0  0
    7.6519    9.6091    2.5536 C   0  0  0  0  0  0  0  0  0  0  0  0
   11.8288    8.5022    2.6905 C   0  0  0  0  0  0  0  0  0  0  0  0
    9.7989    7.9636    3.7344 C   0  0  0  0  0  0  0  0  0  0  0  0
   12.9290   11.5769   -0.6112 C   0  0  0  0  0  0  0  0  0  0  0  0
    4.0725   10.3825    3.5952 C   0  0  0  0  0  0  0  0  0  0  0  0
   11.2417   11.0749    2.7602 C   0  0  0  0  0  0  0  0  0  0  0  0
    6.2519    9.8476    2.5005 C   0  0  0  0  0  0  0  0  0  0  0  0
   12.0429   11.7033    1.6296 C   0  0  0  0  0  0  0  0  0  0  0  0
    8.3115    9.6397    3.7525 C   0  0  0  0  0  0  0  0  0  0  0  0
    5.5639   10.1259    3.6661 C   0  0  0  0  0  0  0  0  0  0  0  0
   10.7246    9.6394    2.5811 C   0  0  2  0  0  0  0  0  0  0  0  0
    9.8461    9.3298    3.7513 C   0  0  2  0  0  0  0  0  0  0  0  0
   11.6934    7.0653    3.8478 H   0  0  0  0  0  0  0  0  0  0  0  0
    2.5808   10.4896    2.3060 H   0  0  0  0  0  0  0  0  0  0  0  0
    3.6740   10.0210    0.2264 H   0  0  0  0  0  0  0  0  0  0  0  0
   13.7414   14.4587    0.7824 H   0  0  0  0  0  0  0  0  0  0  0  0
   13.9756   13.1550   -1.2608 H   0  0  0  0  0  0  0  0  0  0  0  0
   12.4858   13.4843    2.6133 H   0  0  0  0  0  0  0  0  0  0  0  0
    8.0792    9.9428    5.8103 H   0  0  0  0  0  0  0  0  0  0  0  0
    5.7754   10.3523    5.7401 H   0  0  0  0  0  0  0  0  0  0  0  0
   11.7995   10.1341    0.3889 H   0  0  0  0  0  0  0  0  0  0  0  0
    8.1547    9.3995    1.7154 H   0  0  0  0  0  0  0  0  0  0  0  0
   12.2097    8.3017    1.7876 H   0  0  0  0  0  0  0  0  0  0  0  0
   12.5403    8.7729    3.3086 H   0  0  0  0  0  0  0  0  0  0  0  0
    9.6725    7.6324    4.6292 H   0  0  0  0  0  0  0  0  0  0  0  0
    9.1079    7.6750    3.1893 H   0  0  0  0  0  0  0  0  0  0  0  0
   10.2499    9.7374    1.6531 H   0  0  0  0  0  0  0  0  0  0  0  0
   10.2705    9.6488    4.6030 H   0  0  0  0  0  0  0  0  0  0  0  0
  1 17  1  0  0  0  0
  2 18  2  0  0  0  0
  3 19  2  0  0  0  0
  4  7  2  0  0  0  0
  4 20  1  0  0  0  0
  5 15  1  0  0  0  0
  5 16  1  0  0  0  0
  5 26  1  0  0  0  0
  6  7  1  0  0  0  0
  6 18  1  0  0  0  0
  6 27  1  0  0  0  0
  7 28  1  0  0  0  0
  8  9  2  0  0  0  0
  8 10  1  0  0  0  0
  8 29  1  0  0  0  0
  9 17  1  0  0  0  0
  9 30  1  0  0  0  0
 10 21  2  0  0  0  0
 10 31  1  0  0  0  0
 11 12  1  0  0  0  0
 11 22  2  0  0  0  0
 11 32  1  0  0  0  0
 12 23  2  0  0  0  0
 12 33  1  0  0  0  0
 13 17  2  0  0  0  0
 13 21  1  0  0  0  0
 13 34  1  0  0  0  0
 14 20  2  0  0  0  0
 14 22  1  0  0  0  0
 14 35  1  0  0  0  0
 15 24  1  0  0  0  0
 15 36  1  0  0  0  0
 15 37  1  0  0  0  0
 16 25  1  0  0  0  0
 16 38  1  0  0  0  0
 16 39  1  0  0  0  0
 18 23  1  0  0  0  0
 19 21  1  0  0  0  0
 19 24  1  0  0  0  0
 20 23  1  0  0  0  0
 22 25  1  0  0  0  0
 24 25  1  0  0  0  0
 24 40  1  0  0  0  0
 25 41  1  0  0  0  0
M  END
> <pdb_id>
4UJB

> <uniprot_id>
P17612

> <usmiles>
Fc1cc(ccc1)C(=O)[C@@H]2[C@@H](c3cc4N=CNC(=O)c4cc3)CNC2

$$$$
8C5_A_923
          07202412313D 1   1.00000     0.00000     0
            
 70 74  0  0  0  0            999 V2000
    7.5770   22.7950    3.2110 O   0  0  0  0  0  0  0  0  0  0  0  0
    8.8680   23.0950    7.2350 O   0  0  0  0  0  0  0  0  0  0  0  0
    9.1840   20.5580    4.0830 O   0  0  0  0  0  0  0  0  0  0  0  0
    7.8780   26.4280    9.5120 N   0  0  0  0  0  0  0  0  0  0  0  0
    6.5840   27.2810    7.6170 N   0  0  0  0  0  0  0  0  0  0  0  0
    8.9300   21.7140    4.8030 N   0  0  0  0  0  0  0  0  0  0  0  0
    6.6640   28.5620    9.5580 N   0  0  0  0  0  0  0  0  0  0  0  0
   -0.2520   32.2860    7.8520 N   0  0  0  0  0  0  0  0  0  0  0  0
    6.4820   25.9810    5.5640 N   0  0  0  0  0  0  0  0  0  0  0  0
   10.5750   20.2780    3.8290 C   0  0  0  0  0  0  0  0  0  0  0  0
    8.1700   25.3910    8.7230 C   0  0  0  0  0  0  0  0  0  0  0  0
    6.7760   24.8060    4.8920 C   0  0  0  0  0  0  0  0  0  0  0  0
    5.3710   29.9530    7.8660 C   0  0  0  0  0  0  0  0  0  0  0  0
    4.8140   30.1950   10.1520 C   0  0  0  0  0  0  0  0  0  0  0  0
    4.3530   30.8810    7.5520 C   0  0  0  0  0  0  0  0  0  0  0  0
    3.8150   31.1030    9.8170 C   0  0  0  0  0  0  0  0  0  0  0  0
   -0.0410   33.1120    6.6340 C   0  0  0  0  0  0  0  0  0  0  0  0
   -1.4960   31.5320    7.5440 C   0  0  0  0  0  0  0  0  0  0  0  0
    0.9960   31.5910    8.3420 C   0  0  0  0  0  0  0  0  0  0  0  0
   -1.4500   33.5850    6.2310 C   0  0  0  0  0  0  0  0  0  0  0  0
   -2.3920   32.5620    6.8390 C   0  0  0  0  0  0  0  0  0  0  0  0
    4.9640   28.7180    2.2910 C   0  0  0  0  0  0  0  0  0  0  0  0
    6.1580   29.0520    3.1280 C   0  0  0  0  0  0  0  0  0  0  0  0
    3.9710   27.9820    3.1610 C   0  0  0  0  0  0  0  0  0  0  0  0
    2.3450   32.3680    8.1220 C   0  0  0  0  0  0  0  0  0  0  0  0
    6.7760   27.8110    3.7830 C   0  0  0  0  0  0  0  0  0  0  0  0
    4.5330   26.8310    4.0590 C   0  0  0  0  0  0  0  0  0  0  0  0
    7.0810   27.3670    8.9570 C   0  0  0  0  0  0  0  0  0  0  0  0
    8.1400   22.7880    4.3020 C   0  0  0  0  0  0  0  0  0  0  0  0
    8.1500   23.9510    6.6790 C   0  0  0  0  0  0  0  0  0  0  0  0
    6.9230   26.1680    6.8980 C   0  0  0  0  0  0  0  0  0  0  0  0
    5.6360   29.5710    9.1820 C   0  0  0  0  0  0  0  0  0  0  0  0
    3.5530   31.5060    8.4990 C   0  0  0  0  0  0  0  0  0  0  0  0
    7.6990   23.8810    5.2840 C   0  0  0  0  0  0  0  0  0  0  0  0
    7.7440   25.1650    7.4200 C   0  0  0  0  0  0  0  0  0  0  0  0
    5.8230   27.1630    4.8020 C   0  0  0  0  0  0  0  0  0  0  0  0
    9.2000   21.6050    5.7750 H   0  0  0  0  0  0  0  0  0  0  0  0
    7.4880   29.1320    9.7150 H   0  0  0  0  0  0  0  0  0  0  0  0
   11.2840   20.4770    4.6550 H   0  0  0  0  0  0  0  0  0  0  0  0
   10.9270   20.9660    3.0280 H   0  0  0  0  0  0  0  0  0  0  0  0
   10.8220   19.2770    3.4400 H   0  0  0  0  0  0  0  0  0  0  0  0
    8.8170   24.6430    9.2260 H   0  0  0  0  0  0  0  0  0  0  0  0
    6.4670   24.8210    3.8280 H   0  0  0  0  0  0  0  0  0  0  0  0
    5.9450   29.5400    7.0390 H   0  0  0  0  0  0  0  0  0  0  0  0
    4.9320   29.9710   11.2140 H   0  0  0  0  0  0  0  0  0  0  0  0
    4.1720   31.1470    6.5030 H   0  0  0  0  0  0  0  0  0  0  0  0
    3.1960   31.5550   10.6080 H   0  0  0  0  0  0  0  0  0  0  0  0
    0.4190   32.4920    5.8400 H   0  0  0  0  0  0  0  0  0  0  0  0
    0.6240   33.9980    6.7550 H   0  0  0  0  0  0  0  0  0  0  0  0
   -2.0460   31.1060    8.4140 H   0  0  0  0  0  0  0  0  0  0  0  0
   -1.2640   30.6870    6.8680 H   0  0  0  0  0  0  0  0  0  0  0  0
    1.0910   30.5800    7.8920 H   0  0  0  0  0  0  0  0  0  0  0  0
    0.8850   31.4510    9.4350 H   0  0  0  0  0  0  0  0  0  0  0  0
   -1.6720   34.6150    6.5790 H   0  0  0  0  0  0  0  0  0  0  0  0
   -1.5770   33.6650    5.1330 H   0  0  0  0  0  0  0  0  0  0  0  0
   -3.1240   33.0340    7.5280 H   0  0  0  0  0  0  0  0  0  0  0  0
   -3.0470   32.1050    6.0700 H   0  0  0  0  0  0  0  0  0  0  0  0
    4.5150   29.6210    1.8320 H   0  0  0  0  0  0  0  0  0  0  0  0
    5.2590   28.1060    1.4030 H   0  0  0  0  0  0  0  0  0  0  0  0
    6.9030   29.6090    2.5230 H   0  0  0  0  0  0  0  0  0  0  0  0
    5.8640   29.7980    3.9020 H   0  0  0  0  0  0  0  0  0  0  0  0
    3.1600   27.5770    2.5090 H   0  0  0  0  0  0  0  0  0  0  0  0
    3.4010   28.7270    3.7570 H   0  0  0  0  0  0  0  0  0  0  0  0
    2.3940   32.6830    7.0570 H   0  0  0  0  0  0  0  0  0  0  0  0
    2.3040   33.3160    8.7000 H   0  0  0  0  0  0  0  0  0  0  0  0
    7.0770   27.1100    2.9840 H   0  0  0  0  0  0  0  0  0  0  0  0
    7.7280   28.1070    4.2720 H   0  0  0  0  0  0  0  0  0  0  0  0
    4.6620   25.9460    3.4080 H   0  0  0  0  0  0  0  0  0  0  0  0
    3.7340   26.5600    4.7740 H   0  0  0  0  0  0  0  0  0  0  0  0
    5.5650   27.9420    5.5670 H   0  0  0  0  0  0  0  0  0  0  0  0
  1 29  2  0  0  0  0
  2 30  2  0  0  0  0
  3  6  1  0  0  0  0
  3 10  1  0  0  0  0
  4 11  1  0  0  0  0
  4 28  2  0  0  0  0
  5 28  1  0  0  0  0
  5 31  2  0  0  0  0
  6 29  1  0  0  0  0
  6 37  1  0  0  0  0
  7 28  1  0  0  0  0
  7 32  1  0  0  0  0
  7 38  1  0  0  0  0
  8 17  1  0  0  0  0
  8 18  1  0  0  0  0
  8 19  1  0  0  0  0
  9 12  1  0  0  0  0
  9 31  1  0  0  0  0
  9 36  1  0  0  0  0
 10 39  1  0  0  0  0
 10 40  1  0  0  0  0
 10 41  1  0  0  0  0
 11 35  2  0  0  0  0
 11 42  1  0  0  0  0
 12 34  2  0  0  0  0
 12 43  1  0  0  0  0
 13 15  2  0  0  0  0
 13 32  1  0  0  0  0
 13 44  1  0  0  0  0
 14 16  1  0  0  0  0
 14 32  2  0  0  0  0
 14 45  1  0  0  0  0
 15 33  1  0  0  0  0
 15 46  1  0  0  0  0
 16 33  2  0  0  0  0
 16 47  1  0  0  0  0
 17 20  1  0  0  0  0
 17 48  1  0  0  0  0
 17 49  1  0  0  0  0
 18 21  1  0  0  0  0
 18 50  1  0  0  0  0
 18 51  1  0  0  0  0
 19 25  1  0  0  0  0
 19 52  1  0  0  0  0
 19 53  1  0  0  0  0
 20 21  1  0  0  0  0
 20 54  1  0  0  0  0
 20 55  1  0  0  0  0
 21 56  1  0  0  0  0
 21 57  1  0  0  0  0
 22 23  1  0  0  0  0
 22 24  1  0  0  0  0
 22 58  1  0  0  0  0
 22 59  1  0  0  0  0
 23 26  1  0  0  0  0
 23 60  1  0  0  0  0
 23 61  1  0  0  0  0
 24 27  1  0  0  0  0
 24 62  1  0  0  0  0
 24 63  1  0  0  0  0
 25 33  1  0  0  0  0
 25 64  1  0  0  0  0
 25 65  1  0  0  0  0
 26 36  1  0  0  0  0
 26 66  1  0  0  0  0
 26 67  1  0  0  0  0
 27 36  1  0  0  0  0
 27 68  1  0  0  0  0
 27 69  1  0  0  0  0
 29 34  1  0  0  0  0
 30 34  1  0  0  0  0
 30 35  1  0  0  0  0
 31 35  1  0  0  0  0
 36 70  1  0  0  0  0
M  END
> <pdb_id>
3DPK

> <uniprot_id>
P07333

> <usmiles>
O=C(NOC)C=1C(=O)c2c(nc(nc2)Nc3ccc(cc3)CCN4CCCC4)N(C1)C5CCCCC5

$$$$
8CB_A_201
          07212402503D 1   1.00000     0.00000     0
            
 41 42  0  0  0  0            999 V2000
  -14.4256   -5.3820   13.4270 O   0  0  0  0  0  0  0  0  0  0  0  0
  -10.8810   -8.1564   15.0138 O   0  0  0  0  0  0  0  0  0  0  0  0
  -14.3921  -10.0252   14.7192 C   0  0  0  0  0  0  0  0  0  0  0  0
  -16.0949   -8.3169   15.2960 C   0  0  0  0  0  0  0  0  0  0  0  0
  -10.9101   -6.8996   10.2322 C   0  0  0  0  0  0  0  0  0  0  0  0
  -11.3986   -5.6188   18.9428 C   0  0  0  0  0  0  0  0  0  0  0  0
  -12.7361   -6.1232   11.8823 C   0  0  0  0  0  0  0  0  0  0  0  0
  -10.9753   -7.5392   12.7126 C   0  0  0  0  0  0  0  0  0  0  0  0
  -12.3976   -6.0759   16.7159 C   0  0  0  0  0  0  0  0  0  0  0  0
  -12.9180   -7.7039   18.5550 C   0  0  0  0  0  0  0  0  0  0  0  0
  -14.0950   -8.0976   17.6938 C   0  0  0  0  0  0  0  0  0  0  0  0
  -14.7021   -8.8870   15.4157 C   0  0  0  0  0  0  0  0  0  0  0  0
  -13.2242   -6.1421   13.1703 C   0  0  0  0  0  0  0  0  0  0  0  0
  -11.5365   -7.4392   13.9332 C   0  0  0  0  0  0  0  0  0  0  0  0
  -11.5535   -6.8457   11.6488 C   0  0  0  0  0  0  0  0  0  0  0  0
  -12.2109   -6.4669   18.0048 C   0  0  0  0  0  0  0  0  0  0  0  0
  -12.6889   -6.7783   14.3075 C   0  0  0  0  0  0  0  0  0  0  0  0
  -13.6330   -8.2204   16.2603 C   0  0  1  0  0  0  0  0  0  0  0  0
  -13.2810   -6.7753   15.7427 C   0  0  1  0  0  0  0  0  0  0  0  0
  -14.7192   -4.9958   12.7283 H   0  0  0  0  0  0  0  0  0  0  0  0
  -10.0344   -8.0909   14.9794 H   0  0  0  0  0  0  0  0  0  0  0  0
  -15.0058  -10.4744   14.1845 H   0  0  0  0  0  0  0  0  0  0  0  0
  -13.5596  -10.4397   14.7347 H   0  0  0  0  0  0  0  0  0  0  0  0
  -16.3565   -8.1241   14.3823 H   0  0  0  0  0  0  0  0  0  0  0  0
  -16.2495   -7.4791   15.7599 H   0  0  0  0  0  0  0  0  0  0  0  0
  -16.8155   -8.8772   15.6241 H   0  0  0  0  0  0  0  0  0  0  0  0
   -9.9418   -6.8473   10.2054 H   0  0  0  0  0  0  0  0  0  0  0  0
  -11.1738   -6.1977    9.6167 H   0  0  0  0  0  0  0  0  0  0  0  0
  -11.0875   -7.7019    9.7181 H   0  0  0  0  0  0  0  0  0  0  0  0
  -11.7631   -5.4781   19.8301 H   0  0  0  0  0  0  0  0  0  0  0  0
  -11.2177   -4.7181   18.6312 H   0  0  0  0  0  0  0  0  0  0  0  0
  -10.5051   -5.9550   19.1145 H   0  0  0  0  0  0  0  0  0  0  0  0
  -13.1434   -5.6662   11.1821 H   0  0  0  0  0  0  0  0  0  0  0  0
  -10.1818   -8.0028   12.5710 H   0  0  0  0  0  0  0  0  0  0  0  0
  -11.9454   -5.3205   16.4152 H   0  0  0  0  0  0  0  0  0  0  0  0
  -12.2966   -8.4457   18.6256 H   0  0  0  0  0  0  0  0  0  0  0  0
  -13.2266   -7.5982   19.4681 H   0  0  0  0  0  0  0  0  0  0  0  0
  -14.4876   -8.9261   18.0111 H   0  0  0  0  0  0  0  0  0  0  0  0
  -14.8403   -7.4814   17.7770 H   0  0  0  0  0  0  0  0  0  0  0  0
  -12.8269   -8.7568   16.2073 H   0  0  0  0  0  0  0  0  0  0  0  0
  -14.1212   -6.2914   15.7065 H   0  0  0  0  0  0  0  0  0  0  0  0
  1 13  1  0  0  0  0
  1 20  1  0  0  0  0
  2 14  1  0  0  0  0
  2 21  1  0  0  0  0
  3 12  2  0  0  0  0
  3 22  1  0  0  0  0
  3 23  1  0  0  0  0
  4 12  1  0  0  0  0
  4 24  1  0  0  0  0
  4 25  1  0  0  0  0
  4 26  1  0  0  0  0
  5 15  1  0  0  0  0
  5 27  1  0  0  0  0
  5 28  1  0  0  0  0
  5 29  1  0  0  0  0
  6 16  1  0  0  0  0
  6 30  1  0  0  0  0
  6 31  1  0  0  0  0
  6 32  1  0  0  0  0
  7 13  2  0  0  0  0
  7 15  1  0  0  0  0
  7 33  1  0  0  0  0
  8 14  1  0  0  0  0
  8 15  2  0  0  0  0
  8 34  1  0  0  0  0
  9 16  2  0  0  0  0
  9 19  1  0  0  0  0
  9 35  1  0  0  0  0
 10 11  1  0  0  0  0
 10 16  1  0  0  0  0
 10 36  1  0  0  0  0
 10 37  1  0  0  0  0
 11 18  1  0  0  0  0
 11 38  1  0  0  0  0
 11 39  1  0  0  0  0
 12 18  1  0  0  0  0
 13 17  1  0  0  0  0
 14 17  2  0  0  0  0
 17 19  1  0  0  0  0
 18 19  1  0  0  0  0
 18 40  1  0  0  0  0
 19 41  1  0  0  0  0
M  END
> <pdb_id>
6E6M

> <uniprot_id>
P09455

> <usmiles>
Oc1c(c(O)cc(c1)C)[C@@H]2C=C(CC[C@H]2C(=C)C)C

$$$$
8CF_A_301
          07192420423D 1   1.00000     0.00000     0
            
 42 44  0  0  0  0            999 V2000
   69.4879   32.5602   26.4660 Cl  0  0  0  0  0  0  0  0  0  0  0  0
   68.4273   40.0359   20.5162 O   0  0  0  0  0  0  0  0  0  0  0  0
   66.8868   32.0958   27.7489 O   0  0  0  0  0  0  0  0  0  0  0  0
   64.2902   34.3042   24.3126 O   0  0  0  0  0  0  0  0  0  0  0  0
   66.2846   35.9305   21.0777 O   0  0  0  0  0  0  0  0  0  0  0  0
   71.1234   38.7226   26.5320 O   0  0  0  0  0  0  0  0  0  0  0  0
   66.0083   34.9547   21.9108 N   0  0  0  0  0  0  0  0  0  0  0  0
   67.6996   37.9209   20.7935 N   0  0  0  0  0  0  0  0  0  0  0  0
   70.6692   39.2304   27.8423 C   0  0  0  0  0  0  0  0  0  0  0  0
   66.2197   39.9568   22.8761 C   0  0  0  0  0  0  0  0  0  0  0  0
   67.5938   39.6616   22.6945 C   0  0  0  0  0  0  0  0  0  0  0  0
   68.8883   38.0247   26.0032 C   0  0  0  0  0  0  0  0  0  0  0  0
   70.6705   37.6797   24.3648 C   0  0  0  0  0  0  0  0  0  0  0  0
   67.9639   37.4399   25.0813 C   0  0  0  0  0  0  0  0  0  0  0  0
   69.7782   37.1142   23.4825 C   0  0  0  0  0  0  0  0  0  0  0  0
   65.6010   33.1422   26.0878 C   0  0  0  0  0  0  0  0  0  0  0  0
   67.9690   33.8970   24.7221 C   0  0  0  0  0  0  0  0  0  0  0  0
   68.0248   39.2139   21.2891 C   0  0  0  0  0  0  0  0  0  0  0  0
   67.9957   33.1138   25.9114 C   0  0  0  0  0  0  0  0  0  0  0  0
   67.1693   36.8128   21.5524 C   0  0  0  0  0  0  0  0  0  0  0  0
   66.8290   32.7536   26.5737 C   0  0  0  0  0  0  0  0  0  0  0  0
   65.5708   33.9298   24.8812 C   0  0  0  0  0  0  0  0  0  0  0  0
   70.2009   38.1398   25.6671 C   0  0  0  0  0  0  0  0  0  0  0  0
   66.6997   35.1277   22.9922 C   0  0  0  0  0  0  0  0  0  0  0  0
   68.4364   36.9605   23.8248 C   0  0  0  0  0  0  0  0  0  0  0  0
   66.7349   34.2924   24.2336 C   0  0  0  0  0  0  0  0  0  0  0  0
   67.5170   36.3798   22.8179 C   0  0  0  0  0  0  0  0  0  0  0  0
   67.7704   31.8061   28.1168 H   0  0  0  0  0  0  0  0  0  0  0  0
   64.2552   34.8504   23.4757 H   0  0  0  0  0  0  0  0  0  0  0  0
   67.8544   37.7628   19.8182 H   0  0  0  0  0  0  0  0  0  0  0  0
   71.4474   39.6152   28.3386 H   0  0  0  0  0  0  0  0  0  0  0  0
   69.9784   39.9400   27.7035 H   0  0  0  0  0  0  0  0  0  0  0  0
   70.2742   38.4798   28.3719 H   0  0  0  0  0  0  0  0  0  0  0  0
   65.8859   40.2526   23.7711 H   0  0  0  0  0  0  0  0  0  0  0  0
   65.5839   39.8693   22.1092 H   0  0  0  0  0  0  0  0  0  0  0  0
   68.2508   39.7407   23.4442 H   0  0  0  0  0  0  0  0  0  0  0  0
   68.5695   38.3485   26.8940 H   0  0  0  0  0  0  0  0  0  0  0  0
   71.6341   37.7746   24.1148 H   0  0  0  0  0  0  0  0  0  0  0  0
   66.9946   37.3680   25.3164 H   0  0  0  0  0  0  0  0  0  0  0  0
   70.0968   36.8099   22.5848 H   0  0  0  0  0  0  0  0  0  0  0  0
   64.7561   32.8860   26.5574 H   0  0  0  0  0  0  0  0  0  0  0  0
   68.8149   34.1534   24.2544 H   0  0  0  0  0  0  0  0  0  0  0  0
  1 19  1  0  0  0  0
  2 18  2  0  0  0  0
  3 21  1  0  0  0  0
  4 22  1  0  0  0  0
  5  7  1  0  0  0  0
  5 20  1  0  0  0  0
  6  9  1  0  0  0  0
  6 23  1  0  0  0  0
  7 24  2  0  0  0  0
  8 18  1  0  0  0  0
  8 20  1  0  0  0  0
 10 11  2  0  0  0  0
 11 18  1  0  0  0  0
 12 14  2  0  0  0  0
 12 23  1  0  0  0  0
 13 15  1  0  0  0  0
 13 23  2  0  0  0  0
 14 25  1  0  0  0  0
 15 25  2  0  0  0  0
 16 21  2  0  0  0  0
 16 22  1  0  0  0  0
 17 19  2  0  0  0  0
 17 26  1  0  0  0  0
 19 21  1  0  0  0  0
 20 27  2  0  0  0  0
 22 26  2  0  0  0  0
 24 26  1  0  0  0  0
 24 27  1  0  0  0  0
 25 27  1  0  0  0  0
  3 28  1  0  0  0  0
  4 29  1  0  0  0  0
  8 30  1  0  0  0  0
  9 31  1  0  0  0  0
  9 32  1  0  0  0  0
  9 33  1  0  0  0  0
 10 34  1  0  0  0  0
 10 35  1  0  0  0  0
 11 36  1  0  0  0  0
 12 37  1  0  0  0  0
 13 38  1  0  0  0  0
 14 39  1  0  0  0  0
 15 40  1  0  0  0  0
 16 41  1  0  0  0  0
 17 42  1  0  0  0  0
M  END
> <pdb_id>
5XQD

> <uniprot_id>
P07900

> <usmiles>
Clc1c(O)cc(O)c(c1)C2=NOC(NC(=O)C=C)=C2c3ccc(OC)cc3

$$$$
8CO_A_301
          07192420423D 1   1.00000     0.00000     0
            
 47 49  0  0  0  0            999 V2000
   69.3688   32.4367   26.4871 Cl  0  0  0  0  0  0  0  0  0  0  0  0
   67.3198   39.2471   22.3536 O   0  0  0  0  0  0  0  0  0  0  0  0
   66.7559   32.1570   27.7850 O   0  0  0  0  0  0  0  0  0  0  0  0
   64.2403   34.3146   24.3074 O   0  0  0  0  0  0  0  0  0  0  0  0
   66.1474   35.7263   20.8500 O   0  0  0  0  0  0  0  0  0  0  0  0
   71.1546   38.4476   26.2585 O   0  0  0  0  0  0  0  0  0  0  0  0
   65.8603   34.7682   21.7460 N   0  0  0  0  0  0  0  0  0  0  0  0
   67.6382   37.7039   20.6309 N   0  0  0  0  0  0  0  0  0  0  0  0
   70.7730   39.0048   27.4701 C   0  0  0  0  0  0  0  0  0  0  0  0
   70.0640   39.8054   20.5296 C   0  0  0  0  0  0  0  0  0  0  0  0
   68.2205   41.4486   20.8912 C   0  0  0  0  0  0  0  0  0  0  0  0
   68.8440   37.7887   25.7759 C   0  0  0  0  0  0  0  0  0  0  0  0
   70.5985   37.4432   24.1481 C   0  0  0  0  0  0  0  0  0  0  0  0
   67.9142   37.2315   24.8808 C   0  0  0  0  0  0  0  0  0  0  0  0
   69.6818   36.8820   23.2576 C   0  0  0  0  0  0  0  0  0  0  0  0
   65.4739   33.2394   26.0724 C   0  0  0  0  0  0  0  0  0  0  0  0
   67.8460   33.7506   24.6645 C   0  0  0  0  0  0  0  0  0  0  0  0
   67.8227   38.9906   21.2645 C   0  0  0  0  0  0  0  0  0  0  0  0
   67.8737   33.0599   25.8744 C   0  0  0  0  0  0  0  0  0  0  0  0
   67.0300   36.5784   21.3052 C   0  0  0  0  0  0  0  0  0  0  0  0
   66.7000   32.8028   26.5740 C   0  0  0  0  0  0  0  0  0  0  0  0
   65.4380   33.9291   24.8588 C   0  0  0  0  0  0  0  0  0  0  0  0
   70.1858   37.8995   25.3976 C   0  0  0  0  0  0  0  0  0  0  0  0
   66.5707   34.9559   22.8667 C   0  0  0  0  0  0  0  0  0  0  0  0
   68.5880   40.0487   20.4986 C   0  0  0  0  0  0  0  0  0  0  0  0
   68.3478   36.7802   23.6257 C   0  0  0  0  0  0  0  0  0  0  0  0
   66.6166   34.1632   24.1571 C   0  0  0  0  0  0  0  0  0  0  0  0
   67.3704   36.1611   22.6490 C   0  0  0  0  0  0  0  0  0  0  0  0
   67.6350   31.8439   28.1446 H   0  0  0  0  0  0  0  0  0  0  0  0
   64.2260   34.8082   23.4378 H   0  0  0  0  0  0  0  0  0  0  0  0
   67.9442   37.5873   19.6861 H   0  0  0  0  0  0  0  0  0  0  0  0
   71.5819   39.3436   27.9506 H   0  0  0  0  0  0  0  0  0  0  0  0
   70.1420   39.7626   27.3044 H   0  0  0  0  0  0  0  0  0  0  0  0
   70.3201   38.3099   28.0286 H   0  0  0  0  0  0  0  0  0  0  0  0
   70.2518   38.8607   20.2605 H   0  0  0  0  0  0  0  0  0  0  0  0
   70.5182   40.4296   19.8940 H   0  0  0  0  0  0  0  0  0  0  0  0
   70.4085   39.9631   21.4551 H   0  0  0  0  0  0  0  0  0  0  0  0
   67.2270   41.5555   20.8533 H   0  0  0  0  0  0  0  0  0  0  0  0
   68.5399   41.6287   21.8215 H   0  0  0  0  0  0  0  0  0  0  0  0
   68.6496   42.0952   20.2605 H   0  0  0  0  0  0  0  0  0  0  0  0
   68.5478   38.1038   26.6776 H   0  0  0  0  0  0  0  0  0  0  0  0
   71.5607   37.5184   23.8865 H   0  0  0  0  0  0  0  0  0  0  0  0
   66.9505   37.1575   25.1371 H   0  0  0  0  0  0  0  0  0  0  0  0
   69.9839   36.5561   22.3618 H   0  0  0  0  0  0  0  0  0  0  0  0
   64.6292   33.0603   26.5768 H   0  0  0  0  0  0  0  0  0  0  0  0
   68.6928   33.9463   24.1700 H   0  0  0  0  0  0  0  0  0  0  0  0
   68.3127   39.9496   19.5424 H   0  0  0  0  0  0  0  0  0  0  0  0
  1 19  1  0  0  0  0
  2 18  2  0  0  0  0
  3 21  1  0  0  0  0
  4 22  1  0  0  0  0
  5  7  1  0  0  0  0
  5 20  1  0  0  0  0
  6  9  1  0  0  0  0
  6 23  1  0  0  0  0
  7 24  2  0  0  0  0
  8 18  1  0  0  0  0
  8 20  1  0  0  0  0
 10 25  1  0  0  0  0
 11 25  1  0  0  0  0
 12 14  2  0  0  0  0
 12 23  1  0  0  0  0
 13 15  1  0  0  0  0
 13 23  2  0  0  0  0
 14 26  1  0  0  0  0
 15 26  2  0  0  0  0
 16 21  2  0  0  0  0
 16 22  1  0  0  0  0
 17 19  2  0  0  0  0
 17 27  1  0  0  0  0
 18 25  1  0  0  0  0
 19 21  1  0  0  0  0
 20 28  2  0  0  0  0
 22 27  2  0  0  0  0
 24 27  1  0  0  0  0
 24 28  1  0  0  0  0
 26 28  1  0  0  0  0
  3 29  1  0  0  0  0
  4 30  1  0  0  0  0
  8 31  1  0  0  0  0
  9 32  1  0  0  0  0
  9 33  1  0  0  0  0
  9 34  1  0  0  0  0
 10 35  1  0  0  0  0
 10 36  1  0  0  0  0
 10 37  1  0  0  0  0
 11 38  1  0  0  0  0
 11 39  1  0  0  0  0
 11 40  1  0  0  0  0
 12 41  1  0  0  0  0
 13 42  1  0  0  0  0
 14 43  1  0  0  0  0
 15 44  1  0  0  0  0
 16 45  1  0  0  0  0
 17 46  1  0  0  0  0
 25 47  1  0  0  0  0
M  END
> <pdb_id>
5XQE

> <uniprot_id>
P07900

> <usmiles>
Clc1c(O)cc(O)c(c1)C2=NOC(NC(=O)C(C)C)=C2c3ccc(OC)cc3

$$$$
8CR_A_301
          07192420423D 1   1.00000     0.00000     0
            
 50 52  0  0  0  0            999 V2000
   69.3009   32.3852   26.5300 Cl  0  0  0  0  0  0  0  0  0  0  0  0
   67.5778   38.8754   21.5539 O   0  0  0  0  0  0  0  0  0  0  0  0
   66.7633   32.0852   27.8166 O   0  0  0  0  0  0  0  0  0  0  0  0
   64.2340   34.2417   24.5005 O   0  0  0  0  0  0  0  0  0  0  0  0
   66.0484   35.3473   21.0087 O   0  0  0  0  0  0  0  0  0  0  0  0
   71.1512   38.3676   25.9353 O   0  0  0  0  0  0  0  0  0  0  0  0
   65.8337   34.4892   22.0444 N   0  0  0  0  0  0  0  0  0  0  0  0
   67.1694   37.1535   20.3820 N   0  0  0  0  0  0  0  0  0  0  0  0
   70.9728   38.6965   27.2053 C   0  0  0  0  0  0  0  0  0  0  0  0
   69.7387   38.7426   19.5561 C   0  0  0  0  0  0  0  0  0  0  0  0
   67.9822   38.6537   18.0862 C   0  0  0  0  0  0  0  0  0  0  0  0
   68.3116   40.5891   19.6454 C   0  0  0  0  0  0  0  0  0  0  0  0
   70.4594   37.3665   23.9419 C   0  0  0  0  0  0  0  0  0  0  0  0
   68.8907   37.7299   25.6258 C   0  0  0  0  0  0  0  0  0  0  0  0
   69.4637   36.8095   23.1643 C   0  0  0  0  0  0  0  0  0  0  0  0
   67.9164   37.1662   24.8597 C   0  0  0  0  0  0  0  0  0  0  0  0
   65.4827   33.1552   26.1527 C   0  0  0  0  0  0  0  0  0  0  0  0
   67.7584   33.6970   24.7763 C   0  0  0  0  0  0  0  0  0  0  0  0
   67.8925   38.2881   20.5330 C   0  0  0  0  0  0  0  0  0  0  0  0
   67.8147   33.0029   25.9368 C   0  0  0  0  0  0  0  0  0  0  0  0
   66.8440   36.2326   21.3722 C   0  0  0  0  0  0  0  0  0  0  0  0
   66.7006   32.7373   26.6437 C   0  0  0  0  0  0  0  0  0  0  0  0
   65.4175   33.8402   24.9873 C   0  0  0  0  0  0  0  0  0  0  0  0
   70.1668   37.8254   25.1897 C   0  0  0  0  0  0  0  0  0  0  0  0
   66.5116   34.8769   23.0152 C   0  0  0  0  0  0  0  0  0  0  0  0
   68.1597   36.7418   23.5812 C   0  0  0  0  0  0  0  0  0  0  0  0
   66.5422   34.1506   24.3088 C   0  0  0  0  0  0  0  0  0  0  0  0
   67.1985   36.0362   22.6661 C   0  0  0  0  0  0  0  0  0  0  0  0
   68.3224   39.1444   19.4450 C   0  0  0  0  0  0  0  0  0  0  0  0
   67.6468   31.7817   28.1733 H   0  0  0  0  0  0  0  0  0  0  0  0
   64.1934   34.7474   23.6387 H   0  0  0  0  0  0  0  0  0  0  0  0
   66.8335   36.9568   19.4609 H   0  0  0  0  0  0  0  0  0  0  0  0
   71.8203   39.0797   27.5726 H   0  0  0  0  0  0  0  0  0  0  0  0
   70.2423   39.3759   27.2742 H   0  0  0  0  0  0  0  0  0  0  0  0
   70.7210   37.8822   27.7283 H   0  0  0  0  0  0  0  0  0  0  0  0
   70.0955   39.0219   20.4475 H   0  0  0  0  0  0  0  0  0  0  0  0
   69.8116   37.7495   19.4642 H   0  0  0  0  0  0  0  0  0  0  0  0
   70.2682   39.1841   18.8318 H   0  0  0  0  0  0  0  0  0  0  0  0
   67.0268   38.8686   17.8837 H   0  0  0  0  0  0  0  0  0  0  0  0
   68.5737   39.0983   17.4135 H   0  0  0  0  0  0  0  0  0  0  0  0
   68.1170   37.6637   18.0459 H   0  0  0  0  0  0  0  0  0  0  0  0
   67.3727   40.9274   19.5818 H   0  0  0  0  0  0  0  0  0  0  0  0
   68.6825   40.8030   20.5491 H   0  0  0  0  0  0  0  0  0  0  0  0
   68.8721   41.0272   18.9427 H   0  0  0  0  0  0  0  0  0  0  0  0
   71.3929   37.4327   23.5894 H   0  0  0  0  0  0  0  0  0  0  0  0
   68.6569   38.0816   26.5322 H   0  0  0  0  0  0  0  0  0  0  0  0
   69.7023   36.4426   22.2652 H   0  0  0  0  0  0  0  0  0  0  0  0
   66.9983   37.0595   25.2413 H   0  0  0  0  0  0  0  0  0  0  0  0
   64.6447   32.9519   26.6591 H   0  0  0  0  0  0  0  0  0  0  0  0
   68.5948   33.8802   24.2598 H   0  0  0  0  0  0  0  0  0  0  0  0
  1 20  1  0  0  0  0
  2 19  2  0  0  0  0
  3 22  1  0  0  0  0
  4 23  1  0  0  0  0
  5  7  1  0  0  0  0
  5 21  1  0  0  0  0
  6  9  1  0  0  0  0
  6 24  1  0  0  0  0
  7 25  2  0  0  0  0
  8 19  1  0  0  0  0
  8 21  1  0  0  0  0
 10 29  1  0  0  0  0
 11 29  1  0  0  0  0
 12 29  1  0  0  0  0
 13 15  2  0  0  0  0
 13 24  1  0  0  0  0
 14 16  1  0  0  0  0
 14 24  2  0  0  0  0
 15 26  1  0  0  0  0
 16 26  2  0  0  0  0
 17 22  2  0  0  0  0
 17 23  1  0  0  0  0
 18 20  2  0  0  0  0
 18 27  1  0  0  0  0
 19 29  1  0  0  0  0
 20 22  1  0  0  0  0
 21 28  2  0  0  0  0
 23 27  2  0  0  0  0
 25 27  1  0  0  0  0
 25 28  1  0  0  0  0
 26 28  1  0  0  0  0
  3 30  1  0  0  0  0
  4 31  1  0  0  0  0
  8 32  1  0  0  0  0
  9 33  1  0  0  0  0
  9 34  1  0  0  0  0
  9 35  1  0  0  0  0
 10 36  1  0  0  0  0
 10 37  1  0  0  0  0
 10 38  1  0  0  0  0
 11 39  1  0  0  0  0
 11 40  1  0  0  0  0
 11 41  1  0  0  0  0
 12 42  1  0  0  0  0
 12 43  1  0  0  0  0
 12 44  1  0  0  0  0
 13 45  1  0  0  0  0
 14 46  1  0  0  0  0
 15 47  1  0  0  0  0
 16 48  1  0  0  0  0
 17 49  1  0  0  0  0
 18 50  1  0  0  0  0
M  END
> <pdb_id>
5XR5

> <uniprot_id>
P07900

> <usmiles>
Clc1c(O)cc(O)c(c1)C2=NOC(NC(=O)C(C)(C)C)=C2c3ccc(OC)cc3

$$$$
8CU_A_301
          07192420423D 1   1.00000     0.00000     0
            
 41 43  0  0  0  0            999 V2000
   69.4720   32.2874   26.3919 Br  0  0  0  0  0  0  0  0  0  0  0  0
   67.2361   39.3534   22.3292 O   0  0  0  0  0  0  0  0  0  0  0  0
   66.7118   32.1213   27.7369 O   0  0  0  0  0  0  0  0  0  0  0  0
   64.2207   34.3535   24.2770 O   0  0  0  0  0  0  0  0  0  0  0  0
   66.1665   35.8702   20.9350 O   0  0  0  0  0  0  0  0  0  0  0  0
   71.2636   38.4888   26.1871 O   0  0  0  0  0  0  0  0  0  0  0  0
   65.8599   34.9111   21.7993 N   0  0  0  0  0  0  0  0  0  0  0  0
   67.6609   37.7769   20.7029 N   0  0  0  0  0  0  0  0  0  0  0  0
   70.9528   38.8020   27.4905 C   0  0  0  0  0  0  0  0  0  0  0  0
   68.4374   40.1245   20.4185 C   0  0  0  0  0  0  0  0  0  0  0  0
   68.9680   37.8692   25.7651 C   0  0  0  0  0  0  0  0  0  0  0  0
   70.6604   37.5132   24.0937 C   0  0  0  0  0  0  0  0  0  0  0  0
   68.0249   37.3093   24.9103 C   0  0  0  0  0  0  0  0  0  0  0  0
   69.7194   36.9533   23.2419 C   0  0  0  0  0  0  0  0  0  0  0  0
   65.4394   33.2492   26.0247 C   0  0  0  0  0  0  0  0  0  0  0  0
   67.7801   33.7650   24.6305 C   0  0  0  0  0  0  0  0  0  0  0  0
   67.7483   39.0878   21.2420 C   0  0  0  0  0  0  0  0  0  0  0  0
   67.7932   33.0428   25.8148 C   0  0  0  0  0  0  0  0  0  0  0  0
   67.0639   36.6849   21.3988 C   0  0  0  0  0  0  0  0  0  0  0  0
   66.6415   32.7773   26.5269 C   0  0  0  0  0  0  0  0  0  0  0  0
   65.4112   33.9641   24.8338 C   0  0  0  0  0  0  0  0  0  0  0  0
   70.2950   37.9743   25.3511 C   0  0  0  0  0  0  0  0  0  0  0  0
   66.5758   35.0585   22.9122 C   0  0  0  0  0  0  0  0  0  0  0  0
   68.3984   36.8413   23.6507 C   0  0  0  0  0  0  0  0  0  0  0  0
   66.5735   34.2308   24.1425 C   0  0  0  0  0  0  0  0  0  0  0  0
   67.4121   36.2398   22.7098 C   0  0  0  0  0  0  0  0  0  0  0  0
   67.5926   31.7908   28.0761 H   0  0  0  0  0  0  0  0  0  0  0  0
   64.2143   34.8677   23.4193 H   0  0  0  0  0  0  0  0  0  0  0  0
   68.0362   37.6116   19.7908 H   0  0  0  0  0  0  0  0  0  0  0  0
   71.7655   39.1601   27.9501 H   0  0  0  0  0  0  0  0  0  0  0  0
   70.2304   39.4933   27.5041 H   0  0  0  0  0  0  0  0  0  0  0  0
   70.6368   37.9802   27.9645 H   0  0  0  0  0  0  0  0  0  0  0  0
   68.7820   39.7074   19.5775 H   0  0  0  0  0  0  0  0  0  0  0  0
   67.7907   40.8519   20.1889 H   0  0  0  0  0  0  0  0  0  0  0  0
   69.2010   40.5089   20.9372 H   0  0  0  0  0  0  0  0  0  0  0  0
   68.6961   38.1942   26.6709 H   0  0  0  0  0  0  0  0  0  0  0  0
   71.6131   37.5854   23.7985 H   0  0  0  0  0  0  0  0  0  0  0  0
   67.0706   37.2416   25.2013 H   0  0  0  0  0  0  0  0  0  0  0  0
   69.9926   36.6313   22.3354 H   0  0  0  0  0  0  0  0  0  0  0  0
   64.5891   33.0746   26.5212 H   0  0  0  0  0  0  0  0  0  0  0  0
   68.6308   33.9460   24.1372 H   0  0  0  0  0  0  0  0  0  0  0  0
  1 18  1  0  0  0  0
  2 17  2  0  0  0  0
  3 20  1  0  0  0  0
  4 21  1  0  0  0  0
  5  7  1  0  0  0  0
  5 19  1  0  0  0  0
  6  9  1  0  0  0  0
  6 22  1  0  0  0  0
  7 23  2  0  0  0  0
  8 17  1  0  0  0  0
  8 19  1  0  0  0  0
 10 17  1  0  0  0  0
 11 13  2  0  0  0  0
 11 22  1  0  0  0  0
 12 14  1  0  0  0  0
 12 22  2  0  0  0  0
 13 24  1  0  0  0  0
 14 24  2  0  0  0  0
 15 20  2  0  0  0  0
 15 21  1  0  0  0  0
 16 18  2  0  0  0  0
 16 25  1  0  0  0  0
 18 20  1  0  0  0  0
 19 26  2  0  0  0  0
 21 25  2  0  0  0  0
 23 25  1  0  0  0  0
 23 26  1  0  0  0  0
 24 26  1  0  0  0  0
  3 27  1  0  0  0  0
  4 28  1  0  0  0  0
  8 29  1  0  0  0  0
  9 30  1  0  0  0  0
  9 31  1  0  0  0  0
  9 32  1  0  0  0  0
 10 33  1  0  0  0  0
 10 34  1  0  0  0  0
 10 35  1  0  0  0  0
 11 36  1  0  0  0  0
 12 37  1  0  0  0  0
 13 38  1  0  0  0  0
 14 39  1  0  0  0  0
 15 40  1  0  0  0  0
 16 41  1  0  0  0  0
M  END
> <pdb_id>
5XR9

> <uniprot_id>
P07900

> <usmiles>
Brc1c(O)cc(O)c(c1)C2=NOC(NC(=O)C)=C2c3ccc(OC)cc3

$$$$
8D6_A_402
          07202410013D 1   1.00000     0.00000     0
            
 23 24  0  0  0  0            999 V2000
   -3.7966  -25.1273  148.4598 Cl  0  0  0  0  0  0  0  0  0  0  0  0
   -1.7079  -23.0564  149.2384 O   0  0  0  0  0  0  0  0  0  0  0  0
   -0.7457  -21.6707  147.6927 N   0  0  0  0  0  0  0  0  0  0  0  0
   -8.2216  -25.8856  145.1247 N   0  0  0  0  0  0  0  0  0  0  0  0
   -3.2004  -22.0799  146.1028 N   0  0  0  0  0  0  0  0  0  0  0  0
   -7.8213  -25.8805  146.4209 C   0  0  0  0  0  0  0  0  0  0  0  0
   -7.5173  -25.2655  144.1511 C   0  0  0  0  0  0  0  0  0  0  0  0
   -4.2837  -22.6168  145.4894 C   0  0  0  0  0  0  0  0  0  0  0  0
   -6.6563  -25.2078  146.7936 C   0  0  0  0  0  0  0  0  0  0  0  0
   -6.3547  -24.5708  144.4852 C   0  0  0  0  0  0  0  0  0  0  0  0
   -1.7647  -22.5679  148.1218 C   0  0  0  0  0  0  0  0  0  0  0  0
   -3.8104  -23.8839  147.2498 C   0  0  0  0  0  0  0  0  0  0  0  0
   -2.8949  -22.8411  147.1888 C   0  0  0  0  0  0  0  0  0  0  0  0
   -5.8841  -24.5652  145.8096 C   0  0  0  0  0  0  0  0  0  0  0  0
   -4.6722  -23.7653  146.1753 C   0  0  0  0  0  0  0  0  0  0  0  0
   -0.7871  -21.2673  146.7786 H   0  0  0  0  0  0  0  0  0  0  0  0
    0.0113  -21.4440  148.3054 H   0  0  0  0  0  0  0  0  0  0  0  0
   -2.7081  -21.2613  145.8068 H   0  0  0  0  0  0  0  0  0  0  0  0
   -8.3626  -26.3602  147.1115 H   0  0  0  0  0  0  0  0  0  0  0  0
   -7.8268  -25.3046  143.2010 H   0  0  0  0  0  0  0  0  0  0  0  0
   -4.7319  -22.2476  144.6752 H   0  0  0  0  0  0  0  0  0  0  0  0
   -6.3732  -25.1830  147.7524 H   0  0  0  0  0  0  0  0  0  0  0  0
   -5.8527  -24.0734  143.7776 H   0  0  0  0  0  0  0  0  0  0  0  0
  1 12  1  0  0  0  0
  2 11  2  0  0  0  0
  3 11  1  0  0  0  0
  4  6  2  0  0  0  0
  4  7  1  0  0  0  0
  5  8  1  0  0  0  0
  5 13  1  0  0  0  0
  6  9  1  0  0  0  0
  7 10  2  0  0  0  0
  8 15  2  0  0  0  0
  9 14  2  0  0  0  0
 10 14  1  0  0  0  0
 11 13  1  0  0  0  0
 12 13  2  0  0  0  0
 12 15  1  0  0  0  0
 14 15  1  0  0  0  0
  3 16  1  0  0  0  0
  3 17  1  0  0  0  0
  5 18  1  0  0  0  0
  6 19  1  0  0  0  0
  7 20  1  0  0  0  0
  8 21  1  0  0  0  0
  9 22  1  0  0  0  0
 10 23  1  0  0  0  0
M  END
> <pdb_id>
5XS2

> <uniprot_id>
P49336

> <usmiles>
ClC1=C(NC=C1c2ccncc2)C(=O)N

$$$$
8D7_A_603
          07202411453D 1   1.00000     0.00000     0
            
 49 49  0  0  0  0            999 V2000
  -35.4971  133.3918    9.0101 O   0  0  0  0  0  0  0  0  0  0  0  0
  -40.1526  136.2946    9.0629 O   0  0  0  0  0  0  0  0  0  0  0  0
  -35.0134  131.4551    7.2125 N   0  0  0  0  0  0  0  0  0  0  0  0
  -44.6617  136.0068    8.0094 C   0  0  0  0  0  0  0  0  0  0  0  0
  -40.7332  141.2389    6.9804 C   0  0  0  0  0  0  0  0  0  0  0  0
  -40.1050  136.2945    7.6289 C   0  0  0  0  0  0  0  0  0  0  0  0
  -36.2438  130.9160    7.8129 C   0  0  0  0  0  0  0  0  0  0  0  0
  -43.1914  135.9429    7.5609 C   0  0  0  0  0  0  0  0  0  0  0  0
  -41.3811  139.9041    6.8835 C   0  0  0  0  0  0  0  0  0  0  0  0
  -38.7613  134.6610   12.0002 C   0  0  0  0  0  0  0  0  0  0  0  0
  -37.2316  131.9836    8.2926 C   0  0  0  0  0  0  0  0  0  0  0  0
  -42.4755  137.2487    7.7558 C   0  0  0  0  0  0  0  0  0  0  0  0
  -40.4766  138.7436    7.3316 C   0  0  0  0  0  0  0  0  0  0  0  0
  -39.5322  135.4913   11.2065 C   0  0  0  0  0  0  0  0  0  0  0  0
  -37.8567  133.7835   11.4319 C   0  0  0  0  0  0  0  0  0  0  0  0
  -38.4660  134.5588    9.2502 C   0  0  0  0  0  0  0  0  0  0  0  0
  -36.6663  132.7371    9.4973 C   0  0  2  0  0  0  0  0  0  0  0  0
  -39.3766  135.4513    9.8315 C   0  0  0  0  0  0  0  0  0  0  0  0
  -41.0753  137.3420    7.1265 C   0  0  0  0  0  0  0  0  0  0  0  0
  -37.7000  133.7074   10.0568 C   0  0  0  0  0  0  0  0  0  0  0  0
  -35.0711  133.9093    9.7522 H   0  0  0  0  0  0  0  0  0  0  0  0
  -34.4236  130.7000    6.9263 H   0  0  0  0  0  0  0  0  0  0  0  0
  -35.2478  132.0147    6.4176 H   0  0  0  0  0  0  0  0  0  0  0  0
  -45.0945  135.1177    7.8607 H   0  0  0  0  0  0  0  0  0  0  0  0
  -44.7040  136.2398    8.9810 H   0  0  0  0  0  0  0  0  0  0  0  0
  -45.1423  136.7045    7.4780 H   0  0  0  0  0  0  0  0  0  0  0  0
  -41.3739  141.9433    6.6751 H   0  0  0  0  0  0  0  0  0  0  0  0
  -40.4720  141.4145    7.9295 H   0  0  0  0  0  0  0  0  0  0  0  0
  -39.9179  141.2564    6.4016 H   0  0  0  0  0  0  0  0  0  0  0  0
  -40.3676  135.3945    7.2810 H   0  0  0  0  0  0  0  0  0  0  0  0
  -39.1794  136.5141    7.3204 H   0  0  0  0  0  0  0  0  0  0  0  0
  -35.9879  130.3511    8.5974 H   0  0  0  0  0  0  0  0  0  0  0  0
  -36.7033  130.3488    7.1294 H   0  0  0  0  0  0  0  0  0  0  0  0
  -43.1619  135.7023    6.5907 H   0  0  0  0  0  0  0  0  0  0  0  0
  -42.7236  135.2377    8.0936 H   0  0  0  0  0  0  0  0  0  0  0  0
  -41.6446  139.7494    5.9313 H   0  0  0  0  0  0  0  0  0  0  0  0
  -42.1988  139.9075    7.4592 H   0  0  0  0  0  0  0  0  0  0  0  0
  -38.8593  134.6958   12.9948 H   0  0  0  0  0  0  0  0  0  0  0  0
  -38.0905  131.5430    8.5539 H   0  0  0  0  0  0  0  0  0  0  0  0
  -37.4018  132.6314    7.5500 H   0  0  0  0  0  0  0  0  0  0  0  0
  -42.3813  137.4036    8.7392 H   0  0  0  0  0  0  0  0  0  0  0  0
  -43.0403  137.9712    7.3571 H   0  0  0  0  0  0  0  0  0  0  0  0
  -40.2820  138.8592    8.3056 H   0  0  0  0  0  0  0  0  0  0  0  0
  -39.6233  138.7961    6.8127 H   0  0  0  0  0  0  0  0  0  0  0  0
  -40.1952  136.1142   11.6219 H   0  0  0  0  0  0  0  0  0  0  0  0
  -37.3062  133.1937   12.0228 H   0  0  0  0  0  0  0  0  0  0  0  0
  -38.3626  134.5297    8.2559 H   0  0  0  0  0  0  0  0  0  0  0  0
  -36.4081  132.0818   10.2072 H   0  0  0  0  0  0  0  0  0  0  0  0
  -41.1807  137.2036    6.1418 H   0  0  0  0  0  0  0  0  0  0  0  0
  1 17  1  0  0  0  0
  2  6  1  0  0  0  0
  2 18  1  0  0  0  0
  3  7  1  0  0  0  0
  4  8  1  0  0  0  0
  5  9  1  0  0  0  0
  6 19  1  0  0  0  0
  7 11  1  0  0  0  0
  8 12  1  0  0  0  0
  9 13  1  0  0  0  0
 10 14  2  0  0  0  0
 10 15  1  0  0  0  0
 11 17  1  0  0  0  0
 12 19  1  0  0  0  0
 13 19  1  0  0  0  0
 14 18  1  0  0  0  0
 15 20  2  0  0  0  0
 16 18  2  0  0  0  0
 16 20  1  0  0  0  0
 17 20  1  0  0  0  0
  1 21  1  0  0  0  0
  3 22  1  0  0  0  0
  3 23  1  0  0  0  0
  4 24  1  0  0  0  0
  4 25  1  0  0  0  0
  4 26  1  0  0  0  0
  5 27  1  0  0  0  0
  5 28  1  0  0  0  0
  5 29  1  0  0  0  0
  6 30  1  0  0  0  0
  6 31  1  0  0  0  0
  7 32  1  0  0  0  0
  7 33  1  0  0  0  0
  8 34  1  0  0  0  0
  8 35  1  0  0  0  0
  9 36  1  0  0  0  0
  9 37  1  0  0  0  0
 10 38  1  0  0  0  0
 11 39  1  0  0  0  0
 11 40  1  0  0  0  0
 12 41  1  0  0  0  0
 12 42  1  0  0  0  0
 13 43  1  0  0  0  0
 13 44  1  0  0  0  0
 14 45  1  0  0  0  0
 15 46  1  0  0  0  0
 16 47  1  0  0  0  0
 17 48  1  0  0  0  0
 19 49  1  0  0  0  0
M  END
> <pdb_id>
5UL5

> <uniprot_id>
Q28175

> <usmiles>
O(c1cc(ccc1)[C@H](O)CCN)CC(CCC)CCC

$$$$
8DU_A_301
          07192420423D 1   1.00000     0.00000     0
            
 45 48  0  0  0  0            999 V2000
   69.3770   32.4669   26.4685 Cl  0  0  0  0  0  0  0  0  0  0  0  0
   68.4130   39.9406   20.4994 O   0  0  0  0  0  0  0  0  0  0  0  0
   66.7735   32.1521   27.7454 O   0  0  0  0  0  0  0  0  0  0  0  0
   64.2697   34.3357   24.2972 O   0  0  0  0  0  0  0  0  0  0  0  0
   66.2011   35.8962   20.9569 O   0  0  0  0  0  0  0  0  0  0  0  0
   71.2604   38.5999   26.1921 O   0  0  0  0  0  0  0  0  0  0  0  0
   65.9058   34.9416   21.8315 N   0  0  0  0  0  0  0  0  0  0  0  0
   67.7118   37.7886   20.7058 N   0  0  0  0  0  0  0  0  0  0  0  0
   70.9194   38.9350   27.4886 C   0  0  0  0  0  0  0  0  0  0  0  0
   69.0099   37.8162   25.8184 C   0  0  0  0  0  0  0  0  0  0  0  0
   70.6641   37.6671   24.0826 C   0  0  0  0  0  0  0  0  0  0  0  0
   68.0761   37.2445   24.9612 C   0  0  0  0  0  0  0  0  0  0  0  0
   69.7386   37.0865   23.2322 C   0  0  0  0  0  0  0  0  0  0  0  0
   66.8556   40.9184   22.5525 C   0  0  0  0  0  0  0  0  0  0  0  0
   68.1018   40.5167   23.2740 C   0  0  0  0  0  0  0  0  0  0  0  0
   65.4971   33.2522   26.0444 C   0  0  0  0  0  0  0  0  0  0  0  0
   67.8630   33.8187   24.6830 C   0  0  0  0  0  0  0  0  0  0  0  0
   67.9261   39.0969   21.2428 C   0  0  0  0  0  0  0  0  0  0  0  0
   67.8879   33.1078   25.8737 C   0  0  0  0  0  0  0  0  0  0  0  0
   67.1142   36.7038   21.4138 C   0  0  0  0  0  0  0  0  0  0  0  0
   66.7188   32.8197   26.5466 C   0  0  0  0  0  0  0  0  0  0  0  0
   65.4672   33.9650   24.8528 C   0  0  0  0  0  0  0  0  0  0  0  0
   70.3066   38.0380   25.3715 C   0  0  0  0  0  0  0  0  0  0  0  0
   66.6360   35.0781   22.9383 C   0  0  0  0  0  0  0  0  0  0  0  0
   67.2966   39.4894   22.5428 C   0  0  0  0  0  0  0  0  0  0  0  0
   68.4520   36.8477   23.6769 C   0  0  0  0  0  0  0  0  0  0  0  0
   66.6444   34.2582   24.1858 C   0  0  0  0  0  0  0  0  0  0  0  0
   67.4711   36.2533   22.7291 C   0  0  0  0  0  0  0  0  0  0  0  0
   67.6534   31.8417   28.1051 H   0  0  0  0  0  0  0  0  0  0  0  0
   64.2542   34.8488   23.4390 H   0  0  0  0  0  0  0  0  0  0  0  0
   68.0027   37.6219   19.7637 H   0  0  0  0  0  0  0  0  0  0  0  0
   71.7139   39.3284   27.9512 H   0  0  0  0  0  0  0  0  0  0  0  0
   70.1762   39.6039   27.4755 H   0  0  0  0  0  0  0  0  0  0  0  0
   70.6214   38.1151   27.9774 H   0  0  0  0  0  0  0  0  0  0  0  0
   68.7496   38.0662   26.7510 H   0  0  0  0  0  0  0  0  0  0  0  0
   71.5998   37.8209   23.7650 H   0  0  0  0  0  0  0  0  0  0  0  0
   67.1322   37.1171   25.2659 H   0  0  0  0  0  0  0  0  0  0  0  0
   70.0003   36.8405   22.2990 H   0  0  0  0  0  0  0  0  0  0  0  0
   66.9157   41.4658   21.7178 H   0  0  0  0  0  0  0  0  0  0  0  0
   66.0431   41.1874   23.0698 H   0  0  0  0  0  0  0  0  0  0  0  0
   68.1228   40.5167   24.2738 H   0  0  0  0  0  0  0  0  0  0  0  0
   68.9953   40.7952   22.9219 H   0  0  0  0  0  0  0  0  0  0  0  0
   64.6493   33.0524   26.5355 H   0  0  0  0  0  0  0  0  0  0  0  0
   68.7113   34.0117   24.1899 H   0  0  0  0  0  0  0  0  0  0  0  0
   66.7769   38.8109   23.0621 H   0  0  0  0  0  0  0  0  0  0  0  0
  1 19  1  0  0  0  0
  2 18  2  0  0  0  0
  3 21  1  0  0  0  0
  4 22  1  0  0  0  0
  5  7  1  0  0  0  0
  5 20  1  0  0  0  0
  6  9  1  0  0  0  0
  6 23  1  0  0  0  0
  7 24  2  0  0  0  0
  8 18  1  0  0  0  0
  8 20  1  0  0  0  0
 10 12  2  0  0  0  0
 10 23  1  0  0  0  0
 11 13  1  0  0  0  0
 11 23  2  0  0  0  0
 12 26  1  0  0  0  0
 13 26  2  0  0  0  0
 14 15  1  0  0  0  0
 14 25  1  0  0  0  0
 15 25  1  0  0  0  0
 16 21  2  0  0  0  0
 16 22  1  0  0  0  0
 17 19  2  0  0  0  0
 17 27  1  0  0  0  0
 18 25  1  0  0  0  0
 19 21  1  0  0  0  0
 20 28  2  0  0  0  0
 22 27  2  0  0  0  0
 24 27  1  0  0  0  0
 24 28  1  0  0  0  0
 26 28  1  0  0  0  0
  3 29  1  0  0  0  0
  4 30  1  0  0  0  0
  8 31  1  0  0  0  0
  9 32  1  0  0  0  0
  9 33  1  0  0  0  0
  9 34  1  0  0  0  0
 10 35  1  0  0  0  0
 11 36  1  0  0  0  0
 12 37  1  0  0  0  0
 13 38  1  0  0  0  0
 14 39  1  0  0  0  0
 14 40  1  0  0  0  0
 15 41  1  0  0  0  0
 15 42  1  0  0  0  0
 16 43  1  0  0  0  0
 17 44  1  0  0  0  0
 25 45  1  0  0  0  0
M  END
> <pdb_id>
5XRB

> <uniprot_id>
P07900

> <usmiles>
Clc1c(O)cc(O)c(c1)C2=NOC(NC(=O)C3CC3)=C2c4ccc(OC)cc4

$$$$
8E4_A_603
          07202411453D 1   1.00000     0.00000     0
            
 47 47  0  0  0  0            999 V2000
  -40.8470  140.9480    6.6530 O   0  0  0  0  0  0  0  0  0  0  0  0
  -35.4960  133.2950    9.0810 O   0  0  0  0  0  0  0  0  0  0  0  0
  -40.1490  136.2530    9.1220 O   0  0  0  0  0  0  0  0  0  0  0  0
  -34.9760  131.2840    7.5060 N   0  0  0  0  0  0  0  0  0  0  0  0
  -44.7490  136.1460    8.1690 C   0  0  0  0  0  0  0  0  0  0  0  0
  -41.0280  139.5960    6.2350 C   0  0  0  0  0  0  0  0  0  0  0  0
  -40.1100  136.2120    7.6860 C   0  0  0  0  0  0  0  0  0  0  0  0
  -36.3260  130.8700    7.7970 C   0  0  0  0  0  0  0  0  0  0  0  0
  -43.3190  135.9940    7.6370 C   0  0  0  0  0  0  0  0  0  0  0  0
  -38.6990  134.6610   12.0530 C   0  0  0  0  0  0  0  0  0  0  0  0
  -40.4420  138.6050    7.2140 C   0  0  0  0  0  0  0  0  0  0  0  0
  -37.2340  131.9990    8.2780 C   0  0  0  0  0  0  0  0  0  0  0  0
  -42.4780  137.2410    7.8290 C   0  0  0  0  0  0  0  0  0  0  0  0
  -39.4950  135.4740   11.2680 C   0  0  0  0  0  0  0  0  0  0  0  0
  -37.8090  133.7680   11.4770 C   0  0  0  0  0  0  0  0  0  0  0  0
  -38.4700  134.5100    9.3020 C   0  0  0  0  0  0  0  0  0  0  0  0
  -36.6910  132.6690    9.5270 C   0  0  2  0  0  0  0  0  0  0  0  0
  -39.3800  135.4020    9.8910 C   0  0  0  0  0  0  0  0  0  0  0  0
  -41.0990  137.2240    7.1370 C   0  0  2  0  0  0  0  0  0  0  0  0
  -37.6970  133.6590   10.1000 C   0  0  0  0  0  0  0  0  0  0  0  0
  -41.2499  141.5632    5.9753 H   0  0  0  0  0  0  0  0  0  0  0  0
  -35.0620  133.7689    9.8472 H   0  0  0  0  0  0  0  0  0  0  0  0
  -34.4443  130.4949    7.1984 H   0  0  0  0  0  0  0  0  0  0  0  0
  -34.9881  131.9786    6.7867 H   0  0  0  0  0  0  0  0  0  0  0  0
  -45.2538  135.2965    8.0156 H   0  0  0  0  0  0  0  0  0  0  0  0
  -44.7208  136.3447    9.1486 H   0  0  0  0  0  0  0  0  0  0  0  0
  -45.2050  136.8959    7.6897 H   0  0  0  0  0  0  0  0  0  0  0  0
  -40.5831  139.4721    5.3480 H   0  0  0  0  0  0  0  0  0  0  0  0
  -42.0076  139.4166    6.1445 H   0  0  0  0  0  0  0  0  0  0  0  0
  -40.3569  135.2960    7.3697 H   0  0  0  0  0  0  0  0  0  0  0  0
  -39.1887  136.4371    7.3689 H   0  0  0  0  0  0  0  0  0  0  0  0
  -36.2928  130.1686    8.5090 H   0  0  0  0  0  0  0  0  0  0  0  0
  -36.7217  130.4817    6.9648 H   0  0  0  0  0  0  0  0  0  0  0  0
  -43.3632  135.7872    6.6596 H   0  0  0  0  0  0  0  0  0  0  0  0
  -42.8790  135.2360    8.1185 H   0  0  0  0  0  0  0  0  0  0  0  0
  -38.7661  134.7178   13.0491 H   0  0  0  0  0  0  0  0  0  0  0  0
  -40.5621  138.9633    8.1398 H   0  0  0  0  0  0  0  0  0  0  0  0
  -39.4663  138.5045    7.0194 H   0  0  0  0  0  0  0  0  0  0  0  0
  -38.1382  131.6228    8.4801 H   0  0  0  0  0  0  0  0  0  0  0  0
  -37.3119  132.6826    7.5523 H   0  0  0  0  0  0  0  0  0  0  0  0
  -42.3291  137.3643    8.8101 H   0  0  0  0  0  0  0  0  0  0  0  0
  -42.9936  138.0189    7.4698 H   0  0  0  0  0  0  0  0  0  0  0  0
  -40.1454  136.1058   11.6897 H   0  0  0  0  0  0  0  0  0  0  0  0
  -37.2389  133.1935   12.0642 H   0  0  0  0  0  0  0  0  0  0  0  0
  -38.3736  134.4825    8.3070 H   0  0  0  0  0  0  0  0  0  0  0  0
  -36.4722  131.9755   10.2134 H   0  0  0  0  0  0  0  0  0  0  0  0
  -41.2465  137.0113    6.1711 H   0  0  0  0  0  0  0  0  0  0  0  0
  1  6  1  0  0  0  0
  2 17  1  0  0  0  0
  3  7  1  0  0  0  0
  3 18  1  0  0  0  0
  4  8  1  0  0  0  0
  5  9  1  0  0  0  0
  6 11  1  0  0  0  0
  7 19  1  0  0  0  0
  8 12  1  0  0  0  0
  9 13  1  0  0  0  0
 10 14  2  0  0  0  0
 10 15  1  0  0  0  0
 11 19  1  0  0  0  0
 12 17  1  0  0  0  0
 13 19  1  0  0  0  0
 14 18  1  0  0  0  0
 15 20  2  0  0  0  0
 16 18  2  0  0  0  0
 16 20  1  0  0  0  0
 17 20  1  0  0  0  0
  1 21  1  0  0  0  0
  2 22  1  0  0  0  0
  4 23  1  0  0  0  0
  4 24  1  0  0  0  0
  5 25  1  0  0  0  0
  5 26  1  0  0  0  0
  5 27  1  0  0  0  0
  6 28  1  0  0  0  0
  6 29  1  0  0  0  0
  7 30  1  0  0  0  0
  7 31  1  0  0  0  0
  8 32  1  0  0  0  0
  8 33  1  0  0  0  0
  9 34  1  0  0  0  0
  9 35  1  0  0  0  0
 10 36  1  0  0  0  0
 11 37  1  0  0  0  0
 11 38  1  0  0  0  0
 12 39  1  0  0  0  0
 12 40  1  0  0  0  0
 13 41  1  0  0  0  0
 13 42  1  0  0  0  0
 14 43  1  0  0  0  0
 15 44  1  0  0  0  0
 16 45  1  0  0  0  0
 17 46  1  0  0  0  0
 19 47  1  0  0  0  0
M  END
> <pdb_id>
5ULG

> <uniprot_id>
Q28175

> <usmiles>
O(c1cc(ccc1)[C@H](O)CCN)C[C@H](CCO)CCC

$$$$
8EC_A_401
          07202406393D 1   1.00000     0.00000     0
            
 33 36  0  0  0  0            999 V2000
    9.6397   -7.3262  -10.2854 S   0  0  0  0  0  0  0  0  0  0  0  0
    5.1162   -1.4725   -7.3894 F   0  0  0  0  0  0  0  0  0  0  0  0
    9.2740   -1.3111   -4.6277 O   0  0  0  0  0  0  0  0  0  0  0  0
   10.7585   -2.8459   -5.4916 N   0  0  0  0  0  0  0  0  0  0  0  0
   12.4201  -10.3442  -11.0347 N   0  0  0  0  0  0  0  0  0  0  0  0
    8.3311   -4.9230   -8.9396 N   0  0  0  0  0  0  0  0  0  0  0  0
    9.8267   -4.4295   -7.6006 N   0  0  0  0  0  0  0  0  0  0  0  0
   13.7071   -9.5848  -10.6447 C   0  0  0  0  0  0  0  0  0  0  0  0
   11.3772   -9.4138  -11.2052 C   0  0  0  0  0  0  0  0  0  0  0  0
   13.4892   -8.4282   -9.4505 C   0  0  0  0  0  0  0  0  0  0  0  0
   11.5670   -6.5886   -8.8066 C   0  0  0  0  0  0  0  0  0  0  0  0
    6.5098   -3.2792   -8.3855 C   0  0  0  0  0  0  0  0  0  0  0  0
    7.2545   -1.8421   -6.5419 C   0  0  0  0  0  0  0  0  0  0  0  0
   11.2573   -8.3499  -10.3841 C   0  0  0  0  0  0  0  0  0  0  0  0
   10.3868   -6.3781   -9.1752 C   0  0  0  0  0  0  0  0  0  0  0  0
    6.2799   -2.2159   -7.4548 C   0  0  0  0  0  0  0  0  0  0  0  0
    9.5206   -2.1405   -5.4668 C   0  0  0  0  0  0  0  0  0  0  0  0
    9.4824   -5.2466   -8.6190 C   0  0  0  0  0  0  0  0  0  0  0  0
    7.7278   -3.9804   -8.3367 C   0  0  0  0  0  0  0  0  0  0  0  0
   12.1911   -7.7375   -9.4573 C   0  0  0  0  0  0  0  0  0  0  0  0
    8.6796   -3.5742   -7.3910 C   0  0  0  0  0  0  0  0  0  0  0  0
    8.4489   -2.5147   -6.5266 C   0  0  0  0  0  0  0  0  0  0  0  0
   10.9311   -3.5282   -6.2020 H   0  0  0  0  0  0  0  0  0  0  0  0
   11.4546   -2.6587   -4.7984 H   0  0  0  0  0  0  0  0  0  0  0  0
    7.8701   -5.4092   -9.6819 H   0  0  0  0  0  0  0  0  0  0  0  0
   14.0617   -9.1292  -11.4612 H   0  0  0  0  0  0  0  0  0  0  0  0
   14.3770  -10.2510  -10.3172 H   0  0  0  0  0  0  0  0  0  0  0  0
   10.7166   -9.5432  -11.9447 H   0  0  0  0  0  0  0  0  0  0  0  0
   14.2046   -7.7378   -9.5581 H   0  0  0  0  0  0  0  0  0  0  0  0
   13.5920   -8.8794   -8.5641 H   0  0  0  0  0  0  0  0  0  0  0  0
   12.0372   -6.0222   -8.1298 H   0  0  0  0  0  0  0  0  0  0  0  0
    5.8133   -3.5201   -9.0614 H   0  0  0  0  0  0  0  0  0  0  0  0
    7.0881   -1.0913   -5.9027 H   0  0  0  0  0  0  0  0  0  0  0  0
  1 14  1  0  0  0  0
  1 15  1  0  0  0  0
  2 16  1  0  0  0  0
  3 17  2  0  0  0  0
  4 17  1  0  0  0  0
  5  8  1  0  0  0  0
  5  9  2  0  0  0  0
  6 18  1  0  0  0  0
  6 19  1  0  0  0  0
  7 18  2  0  0  0  0
  7 21  1  0  0  0  0
  8 10  1  0  0  0  0
  9 14  1  0  0  0  0
 10 20  1  0  0  0  0
 11 15  2  0  0  0  0
 11 20  1  0  0  0  0
 12 16  2  0  0  0  0
 12 19  1  0  0  0  0
 13 16  1  0  0  0  0
 13 22  2  0  0  0  0
 14 20  2  0  0  0  0
 15 18  1  0  0  0  0
 17 22  1  0  0  0  0
 19 21  2  0  0  0  0
 21 22  1  0  0  0  0
  4 23  1  0  0  0  0
  4 24  1  0  0  0  0
  6 25  1  0  0  0  0
  8 26  1  0  0  0  0
  8 27  1  0  0  0  0
  9 28  1  0  0  0  0
 10 29  1  0  0  0  0
 10 30  1  0  0  0  0
 11 31  1  0  0  0  0
 12 32  1  0  0  0  0
 13 33  1  0  0  0  0
M  END
> <pdb_id>
5XSR

> <uniprot_id>
P09874

> <usmiles>
S1C(C2=Nc3c(N2)cc(F)cc3C(=O)N)=CC4=C1C=NCC4

$$$$
8F0_A_201
          07212401333D 1   1.00000     0.00000     0
            
 53 56  0  0  0  0            999 V2000
  -16.7915  -23.6886  -23.4487 O   0  0  0  0  0  0  0  0  0  0  0  0
  -12.9030  -18.9961  -18.4010 N   0  0  0  0  0  0  0  0  0  0  0  0
  -16.3776  -21.6708  -22.4329 N   0  0  0  0  0  0  0  0  0  0  0  0
  -14.6497  -23.2271  -20.8352 N   0  0  0  0  0  0  0  0  0  0  0  0
  -17.6590  -21.0793  -22.8355 C   0  0  0  0  0  0  0  0  0  0  0  0
  -11.5434  -19.0701  -16.3941 C   0  0  0  0  0  0  0  0  0  0  0  0
  -14.4251  -24.9420  -22.6643 C   0  0  0  0  0  0  0  0  0  0  0  0
  -16.7235  -22.6949  -14.1183 C   0  0  0  0  0  0  0  0  0  0  0  0
  -14.6600  -18.7311  -20.3136 C   0  0  0  0  0  0  0  0  0  0  0  0
  -14.1463  -25.3689  -19.3747 C   0  0  0  0  0  0  0  0  0  0  0  0
  -13.8850  -24.1914  -18.4496 C   0  0  0  0  0  0  0  0  0  0  0  0
  -15.5640  -19.4041  -21.3679 C   0  0  0  0  0  0  0  0  0  0  0  0
  -15.9528  -20.6809  -15.6342 C   0  0  0  0  0  0  0  0  0  0  0  0
  -14.2342  -22.6169  -15.0200 C   0  0  0  0  0  0  0  0  0  0  0  0
  -14.8893  -19.9642  -16.4517 C   0  0  0  0  0  0  0  0  0  0  0  0
  -13.1699  -21.8968  -15.8472 C   0  0  0  0  0  0  0  0  0  0  0  0
  -13.7251  -21.1383  -19.5695 C   0  0  0  0  0  0  0  0  0  0  0  0
  -16.0561  -23.0241  -22.7939 C   0  0  0  0  0  0  0  0  0  0  0  0
  -12.4000  -19.8808  -17.3584 C   0  0  1  0  0  0  0  0  0  0  0  0
  -13.7455  -19.6089  -19.4180 C   0  0  0  0  0  0  0  0  0  0  0  0
  -14.7015  -23.4675  -22.2560 C   0  0  1  0  0  0  0  0  0  0  0  0
  -13.7884  -24.0064  -19.9576 C   0  0  0  0  0  0  0  0  0  0  0  0
  -15.4938  -20.9290  -21.5313 C   0  0  0  0  0  0  0  0  0  0  0  0
  -14.6287  -21.7873  -20.6186 C   0  0  0  0  0  0  0  0  0  0  0  0
  -15.6255  -21.9944  -14.9247 C   0  0  0  0  0  0  0  0  0  0  0  0
  -13.4942  -20.5750  -16.5477 C   0  0  0  0  0  0  0  0  0  0  0  0
  -12.6816  -18.0210  -18.4172 H   0  0  0  0  0  0  0  0  0  0  0  0
  -17.7117  -20.1385  -22.5006 H   0  0  0  0  0  0  0  0  0  0  0  0
  -17.7287  -21.0825  -23.8331 H   0  0  0  0  0  0  0  0  0  0  0  0
  -18.4096  -21.6139  -22.4472 H   0  0  0  0  0  0  0  0  0  0  0  0
  -11.1935  -19.6696  -15.6743 H   0  0  0  0  0  0  0  0  0  0  0  0
  -10.7769  -18.6629  -16.8907 H   0  0  0  0  0  0  0  0  0  0  0  0
  -12.0976  -18.3456  -15.9843 H   0  0  0  0  0  0  0  0  0  0  0  0
  -14.4784  -25.0280  -23.6591 H   0  0  0  0  0  0  0  0  0  0  0  0
  -13.5120  -25.2079  -22.3552 H   0  0  0  0  0  0  0  0  0  0  0  0
  -15.1071  -25.5385  -22.2411 H   0  0  0  0  0  0  0  0  0  0  0  0
  -16.3581  -23.5348  -13.7172 H   0  0  0  0  0  0  0  0  0  0  0  0
  -17.0406  -22.0879  -13.3896 H   0  0  0  0  0  0  0  0  0  0  0  0
  -17.4887  -22.9192  -14.7218 H   0  0  0  0  0  0  0  0  0  0  0  0
  -14.6633  -17.7367  -20.2083 H   0  0  0  0  0  0  0  0  0  0  0  0
  -15.0738  -25.7284  -19.4768 H   0  0  0  0  0  0  0  0  0  0  0  0
  -13.4898  -26.1217  -19.4235 H   0  0  0  0  0  0  0  0  0  0  0  0
  -13.0568  -24.1701  -17.8895 H   0  0  0  0  0  0  0  0  0  0  0  0
  -14.6408  -23.7768  -17.9428 H   0  0  0  0  0  0  0  0  0  0  0  0
  -16.1827  -18.8582  -21.9328 H   0  0  0  0  0  0  0  0  0  0  0  0
  -16.8706  -20.2908  -15.5605 H   0  0  0  0  0  0  0  0  0  0  0  0
  -14.0246  -23.4755  -14.5523 H   0  0  0  0  0  0  0  0  0  0  0  0
  -15.1011  -19.1059  -16.9192 H   0  0  0  0  0  0  0  0  0  0  0  0
  -12.2551  -22.2919  -15.9313 H   0  0  0  0  0  0  0  0  0  0  0  0
  -13.1314  -21.6990  -18.9922 H   0  0  0  0  0  0  0  0  0  0  0  0
  -11.8259  -20.5805  -17.7837 H   0  0  0  0  0  0  0  0  0  0  0  0
  -14.0021  -22.8969  -22.6864 H   0  0  0  0  0  0  0  0  0  0  0  0
  -12.8361  -23.9781  -20.2616 H   0  0  0  0  0  0  0  0  0  0  0  0
  1 18  2  0  0  0  0
  2 19  1  0  0  0  0
  2 20  1  0  0  0  0
  3  5  1  0  0  0  0
  3 18  1  0  0  0  0
  3 23  1  0  0  0  0
  4 21  1  0  0  0  0
  4 22  1  0  0  0  0
  4 24  1  0  0  0  0
  6 19  1  0  0  0  0
  7 21  1  0  0  0  0
  8 25  1  0  0  0  0
  9 12  1  0  0  0  0
  9 20  2  0  0  0  0
 10 11  1  0  0  0  0
 10 22  1  0  0  0  0
 11 22  1  0  0  0  0
 12 23  2  0  0  0  0
 13 15  1  0  0  0  0
 13 25  2  0  0  0  0
 14 16  2  0  0  0  0
 14 25  1  0  0  0  0
 15 26  2  0  0  0  0
 16 26  1  0  0  0  0
 17 20  1  0  0  0  0
 17 24  2  0  0  0  0
 18 21  1  0  0  0  0
 19 26  1  0  0  0  0
 23 24  1  0  0  0  0
  2 27  1  0  0  0  0
  5 28  1  0  0  0  0
  5 29  1  0  0  0  0
  5 30  1  0  0  0  0
  6 31  1  0  0  0  0
  6 32  1  0  0  0  0
  6 33  1  0  0  0  0
  7 34  1  0  0  0  0
  7 35  1  0  0  0  0
  7 36  1  0  0  0  0
  8 37  1  0  0  0  0
  8 38  1  0  0  0  0
  8 39  1  0  0  0  0
  9 40  1  0  0  0  0
 10 41  1  0  0  0  0
 10 42  1  0  0  0  0
 11 43  1  0  0  0  0
 11 44  1  0  0  0  0
 12 45  1  0  0  0  0
 13 46  1  0  0  0  0
 14 47  1  0  0  0  0
 15 48  1  0  0  0  0
 16 49  1  0  0  0  0
 17 50  1  0  0  0  0
 19 51  1  0  0  0  0
 21 52  1  0  0  0  0
 22 53  1  0  0  0  0
M  END
> <pdb_id>
5XI4

> <uniprot_id>
O60885

> <usmiles>
O=C1N(c2c(N([C@H]1C)C3CC3)cc(N[C@H](c4ccc(cc4)C)C)cc2)C

$$$$
8F2_A_302
          07192416293D 1   1.00000     0.00000     0
            
 50 53  0  0  0  0            999 V2000
   -5.8875    1.0391   16.8034 S   0  0  0  0  0  0  0  0  0  0  0  0
   -7.3165    0.9614   16.8026 O   0  0  0  0  0  0  0  0  0  0  0  0
   -5.2290    1.2497   18.0565 O   0  0  0  0  0  0  0  0  0  0  0  0
   -6.2208    5.8785   12.5113 O   0  0  0  0  0  0  0  0  0  0  0  0
    1.1847    3.9996    9.1388 O   0  0  0  0  0  0  0  0  0  0  0  0
    1.6224    3.5649   11.7043 O   0  0  0  0  0  0  0  0  0  0  0  0
   -5.3424   -0.3188   16.1503 N   0  0  0  0  0  0  0  0  0  0  0  0
   -3.9446    6.0870   12.4367 N   0  0  0  0  0  0  0  0  0  0  0  0
   -3.8100    6.9174   11.2308 C   0  0  0  0  0  0  0  0  0  0  0  0
   -1.0836    9.0740   15.1785 C   0  0  0  0  0  0  0  0  0  0  0  0
   -2.0229    8.2450   15.7577 C   0  0  0  0  0  0  0  0  0  0  0  0
   -0.6390    8.8053   13.9008 C   0  0  0  0  0  0  0  0  0  0  0  0
   -4.6179    2.2621   14.6533 C   0  0  0  0  0  0  0  0  0  0  0  0
   -6.2121    3.5800   15.8974 C   0  0  0  0  0  0  0  0  0  0  0  0
   -3.1969    6.0818   10.1192 C   0  0  0  0  0  0  0  0  0  0  0  0
   -2.5067    7.1402   15.0682 C   0  0  0  0  0  0  0  0  0  0  0  0
   -1.1268    7.6994   13.1952 C   0  0  0  0  0  0  0  0  0  0  0  0
   -4.4828    3.3138   13.7502 C   0  0  0  0  0  0  0  0  0  0  0  0
   -6.0541    4.6298   14.9993 C   0  0  0  0  0  0  0  0  0  0  0  0
   -0.9621    5.0287    9.6351 C   0  0  0  0  0  0  0  0  0  0  0  0
   -0.5426    4.4951   12.3017 C   0  0  0  0  0  0  0  0  0  0  0  0
   -5.4990    2.4006   15.7204 C   0  0  0  0  0  0  0  0  0  0  0  0
   -5.0976    5.5458   12.8460 C   0  0  0  0  0  0  0  0  0  0  0  0
    0.2050    4.3770   10.0183 C   0  0  0  0  0  0  0  0  0  0  0  0
    0.4122    4.1107   11.3661 C   0  0  0  0  0  0  0  0  0  0  0  0
   -2.6489    5.6465   13.0189 C   0  0  2  0  0  0  0  0  0  0  0  0
   -5.2049    4.4892   13.9102 C   0  0  0  0  0  0  0  0  0  0  0  0
   -2.0592    6.8414   13.7665 C   0  0  0  0  0  0  0  0  0  0  0  0
   -1.9199    5.4281   10.5586 C   0  0  0  0  0  0  0  0  0  0  0  0
   -1.6977    5.1608   11.9084 C   0  0  0  0  0  0  0  0  0  0  0  0
    2.0037    3.5331    9.4727 H   0  0  0  0  0  0  0  0  0  0  0  0
    2.2717    3.3065   10.9890 H   0  0  0  0  0  0  0  0  0  0  0  0
   -4.3427   -0.3025   16.1329 H   0  0  0  0  0  0  0  0  0  0  0  0
   -5.6537   -1.0984   16.6937 H   0  0  0  0  0  0  0  0  0  0  0  0
   -3.2188    7.6997   11.4270 H   0  0  0  0  0  0  0  0  0  0  0  0
   -4.7114    7.2438   10.9464 H   0  0  0  0  0  0  0  0  0  0  0  0
   -0.7285    9.8625   15.6808 H   0  0  0  0  0  0  0  0  0  0  0  0
   -2.3574    8.4408   16.6795 H   0  0  0  0  0  0  0  0  0  0  0  0
    0.0377    9.4058   13.4748 H   0  0  0  0  0  0  0  0  0  0  0  0
   -4.0898    1.4209   14.5364 H   0  0  0  0  0  0  0  0  0  0  0  0
   -6.8391    3.6738   16.6707 H   0  0  0  0  0  0  0  0  0  0  0  0
   -3.0056    6.6737    9.3362 H   0  0  0  0  0  0  0  0  0  0  0  0
   -3.8483    5.3726    9.8495 H   0  0  0  0  0  0  0  0  0  0  0  0
   -3.1842    6.5471   15.5033 H   0  0  0  0  0  0  0  0  0  0  0  0
   -0.7998    7.5241   12.2666 H   0  0  0  0  0  0  0  0  0  0  0  0
   -3.8571    3.2213   12.9757 H   0  0  0  0  0  0  0  0  0  0  0  0
   -6.5521    5.4858   15.1380 H   0  0  0  0  0  0  0  0  0  0  0  0
   -1.1167    5.2156    8.6649 H   0  0  0  0  0  0  0  0  0  0  0  0
   -0.3962    4.2900   13.2694 H   0  0  0  0  0  0  0  0  0  0  0  0
   -2.8126    4.9003   13.6642 H   0  0  0  0  0  0  0  0  0  0  0  0
  1  2  2  0  0  0  0
  1  3  2  0  0  0  0
  1  7  1  0  0  0  0
  1 22  1  0  0  0  0
  4 23  2  0  0  0  0
  5 24  1  0  0  0  0
  6 25  1  0  0  0  0
  8  9  1  0  0  0  0
  8 23  1  0  0  0  0
  8 26  1  0  0  0  0
  9 15  1  0  0  0  0
 10 11  2  0  0  0  0
 10 12  1  0  0  0  0
 11 16  1  0  0  0  0
 12 17  2  0  0  0  0
 13 18  2  0  0  0  0
 13 22  1  0  0  0  0
 14 19  1  0  0  0  0
 14 22  2  0  0  0  0
 15 29  1  0  0  0  0
 16 28  2  0  0  0  0
 17 28  1  0  0  0  0
 18 27  1  0  0  0  0
 19 27  2  0  0  0  0
 20 24  2  0  0  0  0
 20 29  1  0  0  0  0
 21 25  2  0  0  0  0
 21 30  1  0  0  0  0
 23 27  1  0  0  0  0
 24 25  1  0  0  0  0
 26 28  1  0  0  0  0
 26 30  1  0  0  0  0
 29 30  2  0  0  0  0
  5 31  1  0  0  0  0
  6 32  1  0  0  0  0
  7 33  1  0  0  0  0
  7 34  1  0  0  0  0
  9 35  1  0  0  0  0
  9 36  1  0  0  0  0
 10 37  1  0  0  0  0
 11 38  1  0  0  0  0
 12 39  1  0  0  0  0
 13 40  1  0  0  0  0
 14 41  1  0  0  0  0
 15 42  1  0  0  0  0
 15 43  1  0  0  0  0
 16 44  1  0  0  0  0
 17 45  1  0  0  0  0
 18 46  1  0  0  0  0
 19 47  1  0  0  0  0
 20 48  1  0  0  0  0
 21 49  1  0  0  0  0
 26 50  1  0  0  0  0
M  END
> <pdb_id>
5N0D

> <uniprot_id>
P00918

> <usmiles>
S(=O)(=O)(N)c1ccc(cc1)C(=O)N2[C@@H](c3c(cc(O)c(O)c3)CC2)c4ccccc4

$$$$
8F3_A_302
          07192416293D 1   1.00000     0.00000     0
            
 50 53  0  0  0  0            999 V2000
   -5.9807    0.9275   16.8848 S   0  0  0  0  0  0  0  0  0  0  0  0
   -7.4117    0.9266   16.8272 O   0  0  0  0  0  0  0  0  0  0  0  0
   -5.3891    1.1731   18.1650 O   0  0  0  0  0  0  0  0  0  0  0  0
   -4.8653    6.1201   12.9769 O   0  0  0  0  0  0  0  0  0  0  0  0
    0.7700    4.6317    7.8108 O   0  0  0  0  0  0  0  0  0  0  0  0
   -0.5030    6.9705    7.6656 O   0  0  0  0  0  0  0  0  0  0  0  0
   -5.4811   -0.4773   16.3220 N   0  0  0  0  0  0  0  0  0  0  0  0
   -2.6768    5.4565   13.0689 N   0  0  0  0  0  0  0  0  0  0  0  0
   -1.6014    4.5727   13.5467 C   0  0  0  0  0  0  0  0  0  0  0  0
   -0.0210    9.2565   14.8639 C   0  0  0  0  0  0  0  0  0  0  0  0
    0.5074    8.8991   13.6396 C   0  0  0  0  0  0  0  0  0  0  0  0
   -1.2463    8.7565   15.2545 C   0  0  0  0  0  0  0  0  0  0  0  0
   -4.6175    1.8910   14.6800 C   0  0  0  0  0  0  0  0  0  0  0  0
   -5.9117    3.4783   15.9766 C   0  0  0  0  0  0  0  0  0  0  0  0
   -0.9704    3.8513   12.3642 C   0  0  0  0  0  0  0  0  0  0  0  0
   -0.2046    8.0646   12.7819 C   0  0  0  0  0  0  0  0  0  0  0  0
   -1.9663    7.9021   14.4068 C   0  0  0  0  0  0  0  0  0  0  0  0
   -4.1778    2.9337   13.8704 C   0  0  0  0  0  0  0  0  0  0  0  0
   -5.4940    4.5099   15.1450 C   0  0  0  0  0  0  0  0  0  0  0  0
   -0.0087    4.3139   10.0898 C   0  0  0  0  0  0  0  0  0  0  0  0
   -1.2125    6.7887    9.9642 C   0  0  0  0  0  0  0  0  0  0  0  0
   -5.4579    2.1853   15.7486 C   0  0  0  0  0  0  0  0  0  0  0  0
   -3.9848    5.3452   13.3155 C   0  0  0  0  0  0  0  0  0  0  0  0
    0.1307    5.0810    8.9359 C   0  0  0  0  0  0  0  0  0  0  0  0
   -0.4883    6.3254    8.8741 C   0  0  0  0  0  0  0  0  0  0  0  0
   -2.2201    6.5970   12.2300 C   0  0  1  0  0  0  0  0  0  0  0  0
   -4.5826    4.2377   14.1344 C   0  0  0  0  0  0  0  0  0  0  0  0
   -1.4699    7.5646   13.1534 C   0  0  0  0  0  0  0  0  0  0  0  0
   -0.7500    4.7512   11.1810 C   0  0  0  0  0  0  0  0  0  0  0  0
   -1.3349    6.0156   11.1151 C   0  0  0  0  0  0  0  0  0  0  0  0
    0.8430    5.2228    7.0075 H   0  0  0  0  0  0  0  0  0  0  0  0
    0.0301    6.6104    6.9000 H   0  0  0  0  0  0  0  0  0  0  0  0
   -4.4820   -0.5106   16.3482 H   0  0  0  0  0  0  0  0  0  0  0  0
   -5.8540   -1.2140   16.8861 H   0  0  0  0  0  0  0  0  0  0  0  0
   -1.9808    3.9006   14.1827 H   0  0  0  0  0  0  0  0  0  0  0  0
   -0.9054    5.1179   14.0139 H   0  0  0  0  0  0  0  0  0  0  0  0
    0.4829    9.8759   15.4660 H   0  0  0  0  0  0  0  0  0  0  0  0
    1.4066    9.2414   13.3672 H   0  0  0  0  0  0  0  0  0  0  0  0
   -1.6231    9.0047   16.1469 H   0  0  0  0  0  0  0  0  0  0  0  0
   -4.3350    0.9493   14.4975 H   0  0  0  0  0  0  0  0  0  0  0  0
   -6.5357    3.6655   16.7353 H   0  0  0  0  0  0  0  0  0  0  0  0
   -1.5735    3.1029   12.0881 H   0  0  0  0  0  0  0  0  0  0  0  0
   -0.0876    3.4794   12.6513 H   0  0  0  0  0  0  0  0  0  0  0  0
    0.1847    7.8177   11.8945 H   0  0  0  0  0  0  0  0  0  0  0  0
   -2.8454    7.5321   14.7072 H   0  0  0  0  0  0  0  0  0  0  0  0
   -3.5706    2.7453   13.0985 H   0  0  0  0  0  0  0  0  0  0  0  0
   -5.8458    5.4372   15.2730 H   0  0  0  0  0  0  0  0  0  0  0  0
    0.4386    3.4207   10.1347 H   0  0  0  0  0  0  0  0  0  0  0  0
   -1.6506    7.6866    9.9221 H   0  0  0  0  0  0  0  0  0  0  0  0
   -3.0107    7.0585   11.8276 H   0  0  0  0  0  0  0  0  0  0  0  0
  1  2  2  0  0  0  0
  1  3  2  0  0  0  0
  1  7  1  0  0  0  0
  1 22  1  0  0  0  0
  4 23  2  0  0  0  0
  5 24  1  0  0  0  0
  6 25  1  0  0  0  0
  8  9  1  0  0  0  0
  8 23  1  0  0  0  0
  8 26  1  0  0  0  0
  9 15  1  0  0  0  0
 10 11  2  0  0  0  0
 10 12  1  0  0  0  0
 11 16  1  0  0  0  0
 12 17  2  0  0  0  0
 13 18  2  0  0  0  0
 13 22  1  0  0  0  0
 14 19  1  0  0  0  0
 14 22  2  0  0  0  0
 15 29  1  0  0  0  0
 16 28  2  0  0  0  0
 17 28  1  0  0  0  0
 18 27  1  0  0  0  0
 19 27  2  0  0  0  0
 20 24  2  0  0  0  0
 20 29  1  0  0  0  0
 21 25  2  0  0  0  0
 21 30  1  0  0  0  0
 23 27  1  0  0  0  0
 24 25  1  0  0  0  0
 26 28  1  0  0  0  0
 26 30  1  0  0  0  0
 29 30  2  0  0  0  0
  5 31  1  0  0  0  0
  6 32  1  0  0  0  0
  7 33  1  0  0  0  0
  7 34  1  0  0  0  0
  9 35  1  0  0  0  0
  9 36  1  0  0  0  0
 10 37  1  0  0  0  0
 11 38  1  0  0  0  0
 12 39  1  0  0  0  0
 13 40  1  0  0  0  0
 14 41  1  0  0  0  0
 15 42  1  0  0  0  0
 15 43  1  0  0  0  0
 16 44  1  0  0  0  0
 17 45  1  0  0  0  0
 18 46  1  0  0  0  0
 19 47  1  0  0  0  0
 20 48  1  0  0  0  0
 21 49  1  0  0  0  0
 26 50  1  0  0  0  0
M  END
> <pdb_id>
5N0E

> <uniprot_id>
P00918

> <usmiles>
S(=O)(=O)(N)c1ccc(cc1)C(=O)N2[C@H](c3c(cc(O)c(O)c3)CC2)c4ccccc4

$$$$
8FU_A_601
          07202413143D 1   1.00000     0.00000     0
            
 47 50  0  0  0  0            999 V2000
   -8.8770  -16.9970   19.6250 Cl  0  0  0  0  0  0  0  0  0  0  0  0
   -3.3280  -10.9350   16.5970 O   0  0  0  0  0  0  0  0  0  0  0  0
   -8.2340  -10.1400   21.7960 N   0  0  0  0  0  0  0  0  0  0  0  0
   -7.9540   -8.8200   22.0870 N   0  0  0  0  0  0  0  0  0  0  0  0
   -6.1250   -7.4840   14.6540 N   0  0  0  0  0  0  0  0  0  0  0  0
   -7.7380  -11.7690   20.0650 N   0  0  0  0  0  0  0  0  0  0  0  0
   -6.2110  -11.3730   18.2990 N   0  0  0  0  0  0  0  0  0  0  0  0
   -5.4450  -13.1660   16.7230 N   0  0  0  0  0  0  0  0  0  0  0  0
   -5.1250   -9.7900   15.6990 N   0  0  0  0  0  0  0  0  0  0  0  0
   -6.6270   -6.8580   21.0700 C   0  0  0  0  0  0  0  0  0  0  0  0
   -3.9400   -6.5480   14.3030 C   0  0  0  0  0  0  0  0  0  0  0  0
   -6.9700   -8.2280   15.5410 C   0  0  0  0  0  0  0  0  0  0  0  0
   -6.5630   -9.6860   15.5520 C   0  0  0  0  0  0  0  0  0  0  0  0
   -4.2030   -8.8470   15.0910 C   0  0  0  0  0  0  0  0  0  0  0  0
   -7.1650  -16.3110   17.7490 C   0  0  0  0  0  0  0  0  0  0  0  0
   -6.2880  -15.3640   16.9960 C   0  0  0  0  0  0  0  0  0  0  0  0
   -6.9190   -9.3070   20.1640 C   0  0  0  0  0  0  0  0  0  0  0  0
   -7.8330  -14.4560   19.2290 C   0  0  0  0  0  0  0  0  0  0  0  0
   -7.6120  -10.4540   20.6260 C   0  0  0  0  0  0  0  0  0  0  0  0
   -7.8720  -15.8830   18.7700 C   0  0  0  0  0  0  0  0  0  0  0  0
   -4.5330  -10.8530   16.4570 C   0  0  0  0  0  0  0  0  0  0  0  0
   -5.4150  -11.8650   17.1460 C   0  0  0  0  0  0  0  0  0  0  0  0
   -6.9720  -12.2070   18.9590 C   0  0  0  0  0  0  0  0  0  0  0  0
   -7.1470   -8.3040   21.0860 C   0  0  0  0  0  0  0  0  0  0  0  0
   -4.7850   -7.4310   15.1570 C   0  0  2  0  0  0  0  0  0  0  0  0
   -6.2570  -14.0590   17.4110 C   0  0  0  0  0  0  0  0  0  0  0  0
   -7.0290  -13.6030   18.5490 C   0  0  0  0  0  0  0  0  0  0  0  0
   -8.7951  -10.7573   22.3475 H   0  0  0  0  0  0  0  0  0  0  0  0
   -6.4798   -6.5532   14.5663 H   0  0  0  0  0  0  0  0  0  0  0  0
   -8.3952  -12.4026   20.4732 H   0  0  0  0  0  0  0  0  0  0  0  0
   -6.0669   -6.7142   20.2542 H   0  0  0  0  0  0  0  0  0  0  0  0
   -7.4014   -6.2254   21.0584 H   0  0  0  0  0  0  0  0  0  0  0  0
   -6.0743   -6.6935   21.8870 H   0  0  0  0  0  0  0  0  0  0  0  0
   -3.0094   -6.5226   14.6681 H   0  0  0  0  0  0  0  0  0  0  0  0
   -3.9221   -6.9054   13.3692 H   0  0  0  0  0  0  0  0  0  0  0  0
   -4.3218   -5.6238   14.2989 H   0  0  0  0  0  0  0  0  0  0  0  0
   -7.9187   -8.1524   15.2341 H   0  0  0  0  0  0  0  0  0  0  0  0
   -6.8879   -7.8553   16.4653 H   0  0  0  0  0  0  0  0  0  0  0  0
   -7.0099  -10.1502   16.3168 H   0  0  0  0  0  0  0  0  0  0  0  0
   -6.8413  -10.1154   14.6928 H   0  0  0  0  0  0  0  0  0  0  0  0
   -4.0531   -9.0995   14.1351 H   0  0  0  0  0  0  0  0  0  0  0  0
   -3.3325   -8.8708   15.5825 H   0  0  0  0  0  0  0  0  0  0  0  0
   -7.2137  -17.2716   17.4754 H   0  0  0  0  0  0  0  0  0  0  0  0
   -5.7428  -15.6722   16.2164 H   0  0  0  0  0  0  0  0  0  0  0  0
   -6.3705   -9.2373   19.3308 H   0  0  0  0  0  0  0  0  0  0  0  0
   -8.3793  -14.1457   20.0070 H   0  0  0  0  0  0  0  0  0  0  0  0
   -4.7838   -7.1013   16.1011 H   0  0  0  0  0  0  0  0  0  0  0  0
  1 20  1  0  0  0  0
  2 21  2  0  0  0  0
  3  4  1  0  0  0  0
  3 19  1  0  0  0  0
  4 24  2  0  0  0  0
  5 12  1  0  0  0  0
  5 25  1  0  0  0  0
  6 19  1  0  0  0  0
  6 23  1  0  0  0  0
  7 22  1  0  0  0  0
  7 23  2  0  0  0  0
  8 22  2  0  0  0  0
  8 26  1  0  0  0  0
  9 13  1  0  0  0  0
  9 14  1  0  0  0  0
  9 21  1  0  0  0  0
 10 24  1  0  0  0  0
 11 25  1  0  0  0  0
 12 13  1  0  0  0  0
 14 25  1  0  0  0  0
 15 16  1  0  0  0  0
 15 20  2  0  0  0  0
 16 26  2  0  0  0  0
 17 19  2  0  0  0  0
 17 24  1  0  0  0  0
 18 20  1  0  0  0  0
 18 27  2  0  0  0  0
 21 22  1  0  0  0  0
 23 27  1  0  0  0  0
 26 27  1  0  0  0  0
  3 28  1  0  0  0  0
  5 29  1  0  0  0  0
  6 30  1  0  0  0  0
 10 31  1  0  0  0  0
 10 32  1  0  0  0  0
 10 33  1  0  0  0  0
 11 34  1  0  0  0  0
 11 35  1  0  0  0  0
 11 36  1  0  0  0  0
 12 37  1  0  0  0  0
 12 38  1  0  0  0  0
 13 39  1  0  0  0  0
 13 40  1  0  0  0  0
 14 41  1  0  0  0  0
 14 42  1  0  0  0  0
 15 43  1  0  0  0  0
 16 44  1  0  0  0  0
 17 45  1  0  0  0  0
 18 46  1  0  0  0  0
 25 47  1  0  0  0  0
M  END
> <pdb_id>
5XVA

> <uniprot_id>
O96013

> <usmiles>
Clc1cc2c(nc(nc2cc1)C(=O)N3C[C@H](NCC3)C)NC=4NN=C(C4)C

$$$$
8GC_B_302
          07202413223D 1   1.00000     0.00000     0
            
 19 19  0  0  0  0            999 V2000
   16.1504   20.2555   16.8036 O   0  0  0  0  0  0  0  0  0  0  0  0
   13.8875   20.3436   16.3243 N   0  0  0  0  0  0  0  0  0  0  0  0
   16.2140   17.0131   14.0900 N   0  3  0  0  0  0  0  0  0  0  0  0
   17.3069   16.0740   13.9796 C   0  0  0  0  0  0  0  0  0  0  0  0
   15.2156   16.9115   13.2191 C   0  0  0  0  0  0  0  0  0  0  0  0
   16.2531   17.9292   15.0568 C   0  0  0  0  0  0  0  0  0  0  0  0
   14.1525   17.7828   13.2906 C   0  0  0  0  0  0  0  0  0  0  0  0
   14.1473   18.7464   14.2733 C   0  0  0  0  0  0  0  0  0  0  0  0
   15.1708   19.8592   16.1937 C   0  0  0  0  0  0  0  0  0  0  0  0
   15.2056   18.8168   15.1546 C   0  0  0  0  0  0  0  0  0  0  0  0
   13.1471   19.9519   15.7780 H   0  0  0  0  0  0  0  0  0  0  0  0
   13.6964   21.0870   16.9653 H   0  0  0  0  0  0  0  0  0  0  0  0
   17.9828   16.2637   14.6918 H   0  0  0  0  0  0  0  0  0  0  0  0
   16.9589   15.1430   14.0899 H   0  0  0  0  0  0  0  0  0  0  0  0
   17.7354   16.1653   13.0806 H   0  0  0  0  0  0  0  0  0  0  0  0
   15.2366   16.2036   12.5132 H   0  0  0  0  0  0  0  0  0  0  0  0
   17.0226   17.9708   15.6940 H   0  0  0  0  0  0  0  0  0  0  0  0
   13.3965   17.7168   12.6394 H   0  0  0  0  0  0  0  0  0  0  0  0
   13.3843   19.3886   14.3474 H   0  0  0  0  0  0  0  0  0  0  0  0
  1  9  2  0  0  0  0
  2  9  1  0  0  0  0
  3  4  1  0  0  0  0
  3  5  2  0  0  0  0
  3  6  1  0  0  0  0
  5  7  1  0  0  0  0
  6 10  2  0  0  0  0
  7  8  2  0  0  0  0
  8 10  1  0  0  0  0
  9 10  1  0  0  0  0
  2 11  1  0  0  0  0
  2 12  1  0  0  0  0
  4 13  1  0  0  0  0
  4 14  1  0  0  0  0
  4 15  1  0  0  0  0
  5 16  1  0  0  0  0
  6 17  1  0  0  0  0
  7 18  1  0  0  0  0
  8 19  1  0  0  0  0
M  CHG  1   3   1
M  END
> <pdb_id>
5XVK

> <uniprot_id>
O55239

> <usmiles>
O=C(N)c1c[n+](ccc1)C

$$$$
8GE_A_303
          07192416293D 1   1.00000     0.00000     0
            
 31 33  0  0  0  0            999 V2000
   -5.9284    0.9533   16.8999 S   0  0  0  0  0  0  0  0  0  0  0  0
   -5.4130    1.0720   18.2496 O   0  0  0  0  0  0  0  0  0  0  0  0
   -7.3402    1.0772   16.6679 O   0  0  0  0  0  0  0  0  0  0  0  0
   -5.3888   -0.4100   16.1945 N   0  0  0  0  0  0  0  0  0  0  0  0
   -3.5725    7.1043   14.8007 N   0  0  0  0  0  0  0  0  0  0  0  0
   -1.1802    9.7901   13.6232 C   0  0  0  0  0  0  0  0  0  0  0  0
   -0.2287    8.9234   13.0707 C   0  0  0  0  0  0  0  0  0  0  0  0
   -5.9754    3.4620   15.6821 C   0  0  0  0  0  0  0  0  0  0  0  0
   -3.8382    2.3678   15.8479 C   0  0  0  0  0  0  0  0  0  0  0  0
   -2.3379    9.3071   14.2213 C   0  0  0  0  0  0  0  0  0  0  0  0
   -0.4390    7.5438   13.0654 C   0  0  0  0  0  0  0  0  0  0  0  0
   -5.3426    4.5759   15.1409 C   0  0  0  0  0  0  0  0  0  0  0  0
   -3.2434    3.4827   15.2727 C   0  0  0  0  0  0  0  0  0  0  0  0
   -2.0799    5.7130   13.8542 C   0  0  0  0  0  0  0  0  0  0  0  0
   -5.2122    2.3384   16.0572 C   0  0  0  0  0  0  0  0  0  0  0  0
   -2.5132    7.8995   14.2590 C   0  0  0  0  0  0  0  0  0  0  0  0
   -3.2507    5.7712   14.5283 C   0  0  0  0  0  0  0  0  0  0  0  0
   -3.9716    4.6023   14.9656 C   0  0  0  0  0  0  0  0  0  0  0  0
   -1.5847    7.0408   13.6795 C   0  0  0  0  0  0  0  0  0  0  0  0
   -5.7552   -0.4725   15.2661 H   0  0  0  0  0  0  0  0  0  0  0  0
   -4.3896   -0.3935   16.1580 H   0  0  0  0  0  0  0  0  0  0  0  0
   -4.3843    7.4371   15.2805 H   0  0  0  0  0  0  0  0  0  0  0  0
   -1.0232   10.7770   13.5865 H   0  0  0  0  0  0  0  0  0  0  0  0
    0.6105    9.2973   12.6757 H   0  0  0  0  0  0  0  0  0  0  0  0
   -6.9679    3.4584   15.8046 H   0  0  0  0  0  0  0  0  0  0  0  0
   -3.2767    1.5837   16.1124 H   0  0  0  0  0  0  0  0  0  0  0  0
   -3.0200    9.9268   14.6095 H   0  0  0  0  0  0  0  0  0  0  0  0
    0.2186    6.9288   12.6301 H   0  0  0  0  0  0  0  0  0  0  0  0
   -5.8881    5.3705   14.8742 H   0  0  0  0  0  0  0  0  0  0  0  0
   -2.2626    3.4684   15.0782 H   0  0  0  0  0  0  0  0  0  0  0  0
   -1.6345    4.8779   13.5313 H   0  0  0  0  0  0  0  0  0  0  0  0
  1  2  2  0  0  0  0
  1  3  2  0  0  0  0
  1  4  1  0  0  0  0
  1 15  1  0  0  0  0
  5 16  1  0  0  0  0
  5 17  1  0  0  0  0
  6  7  2  0  0  0  0
  6 10  1  0  0  0  0
  7 11  1  0  0  0  0
  8 12  1  0  0  0  0
  8 15  2  0  0  0  0
  9 13  2  0  0  0  0
  9 15  1  0  0  0  0
 10 16  2  0  0  0  0
 11 19  2  0  0  0  0
 12 18  2  0  0  0  0
 13 18  1  0  0  0  0
 14 17  2  0  0  0  0
 14 19  1  0  0  0  0
 16 19  1  0  0  0  0
 17 18  1  0  0  0  0
  4 20  1  0  0  0  0
  4 21  1  0  0  0  0
  5 22  1  0  0  0  0
  6 23  1  0  0  0  0
  7 24  1  0  0  0  0
  8 25  1  0  0  0  0
  9 26  1  0  0  0  0
 10 27  1  0  0  0  0
 11 28  1  0  0  0  0
 12 29  1  0  0  0  0
 13 30  1  0  0  0  0
 14 31  1  0  0  0  0
M  END
> <pdb_id>
5N1S

> <uniprot_id>
P00918

> <usmiles>
S(=O)(=O)(N)c1ccc(cc1)C=2Nc3c(cccc3)C2

$$$$
8GH_A_303
          07192416293D 1   1.00000     0.00000     0
            
 37 39  0  0  0  0            999 V2000
   -5.8442    0.9500   16.8412 S   0  0  0  0  0  0  0  0  0  0  0  0
   -5.4100   -0.3910   16.2510 O   0  0  0  0  0  0  0  0  0  0  0  0
   -5.4717    1.1136   18.2273 O   0  0  0  0  0  0  0  0  0  0  0  0
   -7.3250    1.1488   16.6367 N   0  0  0  0  0  0  0  0  0  0  0  0
   -1.1952   11.1595   13.5616 N   0  0  0  0  0  0  0  0  0  0  0  0
   -1.3177   10.0717   12.7518 N   0  0  0  0  0  0  0  0  0  0  0  0
   -2.0601   12.0391   13.0550 C   0  0  0  0  0  0  0  0  0  0  0  0
   -2.2542   10.2577   11.7919 C   0  0  0  0  0  0  0  0  0  0  0  0
   -2.7499   11.5271   11.9545 C   0  0  0  0  0  0  0  0  0  0  0  0
   -0.4617    8.8668   12.9127 C   0  0  0  0  0  0  0  0  0  0  0  0
   -3.6850    2.1937   15.6577 C   0  0  0  0  0  0  0  0  0  0  0  0
   -5.7600    3.3969   15.5509 C   0  0  0  0  0  0  0  0  0  0  0  0
   -2.2622    7.8734   14.3640 C   0  0  0  0  0  0  0  0  0  0  0  0
   -1.1780    6.4406   12.7965 C   0  0  0  0  0  0  0  0  0  0  0  0
   -3.0427    3.2553   15.0331 C   0  0  0  0  0  0  0  0  0  0  0  0
   -5.1046    4.4655   14.9403 C   0  0  0  0  0  0  0  0  0  0  0  0
   -3.0697    6.8243   14.7706 C   0  0  0  0  0  0  0  0  0  0  0  0
   -1.9675    5.3895   13.2191 C   0  0  0  0  0  0  0  0  0  0  0  0
   -5.0426    2.2671   15.9306 C   0  0  0  0  0  0  0  0  0  0  0  0
   -1.3143    7.6960   13.3658 C   0  0  0  0  0  0  0  0  0  0  0  0
   -3.7179    4.4191   14.6883 C   0  0  0  0  0  0  0  0  0  0  0  0
   -2.9413    5.5719   14.1953 C   0  0  0  0  0  0  0  0  0  0  0  0
   -7.6001    2.0280   17.0257 H   0  0  0  0  0  0  0  0  0  0  0  0
   -7.5307    1.1382   15.6582 H   0  0  0  0  0  0  0  0  0  0  0  0
   -2.1985   12.9593   13.4211 H   0  0  0  0  0  0  0  0  0  0  0  0
   -2.5322    9.5954   11.0961 H   0  0  0  0  0  0  0  0  0  0  0  0
   -3.4501   11.9842   11.4061 H   0  0  0  0  0  0  0  0  0  0  0  0
    0.2447    9.0489   13.5966 H   0  0  0  0  0  0  0  0  0  0  0  0
   -0.0299    8.6457   12.0382 H   0  0  0  0  0  0  0  0  0  0  0  0
   -3.1680    1.3760   15.9108 H   0  0  0  0  0  0  0  0  0  0  0  0
   -6.7452    3.4427   15.7158 H   0  0  0  0  0  0  0  0  0  0  0  0
   -2.3634    8.7701   14.7949 H   0  0  0  0  0  0  0  0  0  0  0  0
   -0.5025    6.2943   12.0737 H   0  0  0  0  0  0  0  0  0  0  0  0
   -2.0673    3.1795   14.8261 H   0  0  0  0  0  0  0  0  0  0  0  0
   -5.6260    5.2772   14.6770 H   0  0  0  0  0  0  0  0  0  0  0  0
   -3.7518    6.9730   15.4866 H   0  0  0  0  0  0  0  0  0  0  0  0
   -1.8370    4.4832   12.8172 H   0  0  0  0  0  0  0  0  0  0  0  0
  1  2  2  0  0  0  0
  1  3  2  0  0  0  0
  1  4  1  0  0  0  0
  1 19  1  0  0  0  0
  5  6  1  0  0  0  0
  5  7  2  0  0  0  0
  6  8  1  0  0  0  0
  6 10  1  0  0  0  0
  7  9  1  0  0  0  0
  8  9  2  0  0  0  0
 10 20  1  0  0  0  0
 11 15  2  0  0  0  0
 11 19  1  0  0  0  0
 12 16  1  0  0  0  0
 12 19  2  0  0  0  0
 13 17  2  0  0  0  0
 13 20  1  0  0  0  0
 14 18  1  0  0  0  0
 14 20  2  0  0  0  0
 15 21  1  0  0  0  0
 16 21  2  0  0  0  0
 17 22  1  0  0  0  0
 18 22  2  0  0  0  0
 21 22  1  0  0  0  0
  4 23  1  0  0  0  0
  4 24  1  0  0  0  0
  7 25  1  0  0  0  0
  8 26  1  0  0  0  0
  9 27  1  0  0  0  0
 10 28  1  0  0  0  0
 10 29  1  0  0  0  0
 11 30  1  0  0  0  0
 12 31  1  0  0  0  0
 13 32  1  0  0  0  0
 14 33  1  0  0  0  0
 15 34  1  0  0  0  0
 16 35  1  0  0  0  0
 17 36  1  0  0  0  0
 18 37  1  0  0  0  0
M  END
> <pdb_id>
5N1R

> <uniprot_id>
P00918

> <usmiles>
S(=O)(=O)(N)c1ccc(c2ccc(cc2)CN3N=CC=C3)cc1

$$$$
8GJ_A_401
          07202407423D 1   1.00000     0.00000     0
            
 49 50  0  0  0  0            999 V2000
   24.5536  -10.4681  -10.3797 S   0  0  0  0  0  0  0  0  0  0  0  0
   29.3250  -16.4648   -6.4680 F   0  0  0  0  0  0  0  0  0  0  0  0
   25.9986  -10.8789  -10.9266 O   0  0  0  0  0  0  0  0  0  0  0  0
   23.9042   -9.1327  -10.9429 O   0  0  0  0  0  0  0  0  0  0  0  0
   22.1043   -8.0747   -6.9501 O   0  0  0  0  0  0  0  0  0  0  0  0
   27.9888  -11.8835   -6.1462 O   0  0  0  0  0  0  0  0  0  0  0  0
   22.3956  -10.4588   -8.0127 O   0  0  0  0  0  0  0  0  0  0  0  0
   29.0438  -20.2754   -3.6701 O   0  0  0  0  0  0  0  0  0  0  0  0
   23.3819   -8.4997   -7.4570 N   0  0  0  0  0  0  0  0  0  0  0  0
   25.9183  -12.7978   -5.9375 N   0  0  0  0  0  0  0  0  0  0  0  0
   23.4382  -11.8896  -10.6807 C   0  0  0  0  0  0  0  0  0  0  0  0
   28.5527  -20.8835   -2.4576 C   0  0  0  0  0  0  0  0  0  0  0  0
   25.7556   -9.0909   -8.4241 C   0  0  0  0  0  0  0  0  0  0  0  0
   25.1249  -13.8741   -5.6557 C   0  0  0  0  0  0  0  0  0  0  0  0
   25.3192  -11.5073   -6.3271 C   0  0  0  0  0  0  0  0  0  0  0  0
   25.6261  -15.0655   -5.3042 C   0  0  0  0  0  0  0  0  0  0  0  0
   27.5047  -18.5159   -3.4355 C   0  0  0  0  0  0  0  0  0  0  0  0
   27.0181  -17.2872   -3.8101 C   0  0  0  0  0  0  0  0  0  0  0  0
   27.8361  -14.1533   -5.5014 C   0  0  0  0  0  0  0  0  0  0  0  0
   29.1982  -18.3370   -5.1039 C   0  0  0  0  0  0  0  0  0  0  0  0
   25.2055  -11.5270   -7.8652 C   0  0  0  0  0  0  0  0  0  0  0  0
   27.3003  -12.8738   -5.8811 C   0  0  0  0  0  0  0  0  0  0  0  0
   28.6910  -17.1089   -5.4592 C   0  0  0  0  0  0  0  0  0  0  0  0
   23.3851   -9.7702   -7.9863 C   0  0  0  0  0  0  0  0  0  0  0  0
   28.6091  -19.0553   -4.0867 C   0  0  0  0  0  0  0  0  0  0  0  0
   27.0535  -15.2177   -5.2223 C   0  0  0  0  0  0  0  0  0  0  0  0
   27.6012  -16.5399   -4.8361 C   0  0  0  0  0  0  0  0  0  0  0  0
   24.7365  -10.2298   -8.5308 C   0  0  2  0  0  0  0  0  0  0  0  0
   22.1826   -7.1472   -6.5845 H   0  0  0  0  0  0  0  0  0  0  0  0
   24.1975   -7.9218   -7.4273 H   0  0  0  0  0  0  0  0  0  0  0  0
   22.5205  -11.6691  -10.3501 H   0  0  0  0  0  0  0  0  0  0  0  0
   23.4018  -12.0830  -11.6611 H   0  0  0  0  0  0  0  0  0  0  0  0
   23.7833  -12.6928  -10.1951 H   0  0  0  0  0  0  0  0  0  0  0  0
   28.9925  -21.7723   -2.3287 H   0  0  0  0  0  0  0  0  0  0  0  0
   28.7626  -20.2918   -1.6792 H   0  0  0  0  0  0  0  0  0  0  0  0
   27.5628  -21.0079   -2.5244 H   0  0  0  0  0  0  0  0  0  0  0  0
   25.9249   -8.8842   -7.4604 H   0  0  0  0  0  0  0  0  0  0  0  0
   26.6116   -9.3675   -8.8610 H   0  0  0  0  0  0  0  0  0  0  0  0
   25.3957   -8.2775   -8.8812 H   0  0  0  0  0  0  0  0  0  0  0  0
   24.1323  -13.7682   -5.7140 H   0  0  0  0  0  0  0  0  0  0  0  0
   25.9043  -10.7515   -6.0332 H   0  0  0  0  0  0  0  0  0  0  0  0
   24.4137  -11.4077   -5.9146 H   0  0  0  0  0  0  0  0  0  0  0  0
   25.0192  -15.8343   -5.1027 H   0  0  0  0  0  0  0  0  0  0  0  0
   27.0648  -19.0228   -2.6942 H   0  0  0  0  0  0  0  0  0  0  0  0
   26.2213  -16.9160   -3.3334 H   0  0  0  0  0  0  0  0  0  0  0  0
   28.8287  -14.2589   -5.4415 H   0  0  0  0  0  0  0  0  0  0  0  0
   29.9935  -18.7080   -5.5834 H   0  0  0  0  0  0  0  0  0  0  0  0
   24.5578  -12.2474   -8.1131 H   0  0  0  0  0  0  0  0  0  0  0  0
   26.1081  -11.7489   -8.2341 H   0  0  0  0  0  0  0  0  0  0  0  0
  1  3  2  0  0  0  0
  1  4  2  0  0  0  0
  1 11  1  0  0  0  0
  1 28  1  0  0  0  0
  2 23  1  0  0  0  0
  5  9  1  0  0  0  0
  6 22  2  0  0  0  0
  7 24  2  0  0  0  0
  8 12  1  0  0  0  0
  8 25  1  0  0  0  0
  9 24  1  0  0  0  0
 10 14  1  0  0  0  0
 10 15  1  0  0  0  0
 10 22  1  0  0  0  0
 13 28  1  0  0  0  0
 14 16  2  0  0  0  0
 15 21  1  0  0  0  0
 16 26  1  0  0  0  0
 17 18  2  0  0  0  0
 17 25  1  0  0  0  0
 18 27  1  0  0  0  0
 19 22  1  0  0  0  0
 19 26  2  0  0  0  0
 20 23  1  0  0  0  0
 20 25  2  0  0  0  0
 21 28  1  0  0  0  0
 23 27  2  0  0  0  0
 24 28  1  0  0  0  0
 26 27  1  0  0  0  0
  5 29  1  0  0  0  0
  9 30  1  0  0  0  0
 11 31  1  0  0  0  0
 11 32  1  0  0  0  0
 11 33  1  0  0  0  0
 12 34  1  0  0  0  0
 12 35  1  0  0  0  0
 12 36  1  0  0  0  0
 13 37  1  0  0  0  0
 13 38  1  0  0  0  0
 13 39  1  0  0  0  0
 14 40  1  0  0  0  0
 15 41  1  0  0  0  0
 15 42  1  0  0  0  0
 16 43  1  0  0  0  0
 17 44  1  0  0  0  0
 18 45  1  0  0  0  0
 19 46  1  0  0  0  0
 20 47  1  0  0  0  0
 21 48  1  0  0  0  0
 21 49  1  0  0  0  0
M  END
> <pdb_id>
5UPG

> <uniprot_id>
P47205

> <usmiles>
S(=O)(=O)([C@@](C(=O)NO)(CCN1C(=O)C=C(c2c(F)cc(OC)cc2)C=C1)C)C

$$$$
8GR_B_402
          07192419233D 1   1.00000     0.00000     0
            
 52 56  0  0  0  0            999 V2000
  -15.8364   33.9650    1.6209 O   0  0  0  0  0  0  0  0  0  0  0  0
  -17.1609   32.9144   -4.7654 O   0  0  0  0  0  0  0  0  0  0  0  0
  -18.0925   35.4553   -0.5529 O   0  0  0  0  0  0  0  0  0  0  0  0
  -16.1006   37.9730   -5.3279 N   0  0  0  0  0  0  0  0  0  0  0  0
  -20.0521   38.7604    2.7581 N   0  0  0  0  0  0  0  0  0  0  0  0
  -18.1582   36.2034   -4.3188 N   0  0  0  0  0  0  0  0  0  0  0  0
  -16.4623   31.7754   -5.2748 C   0  0  0  0  0  0  0  0  0  0  0  0
  -16.9334   38.3098   -4.1055 C   0  0  0  0  0  0  0  0  0  0  0  0
  -16.8076   36.9715   -6.2486 C   0  0  0  0  0  0  0  0  0  0  0  0
  -19.1259   37.7357    2.8804 C   0  0  0  0  0  0  0  0  0  0  0  0
  -17.3726   37.0323   -3.3973 C   0  0  0  0  0  0  0  0  0  0  0  0
  -17.4090   35.7652   -5.5197 C   0  0  0  0  0  0  0  0  0  0  0  0
  -18.7558   34.9927   -3.5301 C   0  0  0  0  0  0  0  0  0  0  0  0
  -21.4749   39.7017   -0.6144 C   0  0  0  0  0  0  0  0  0  0  0  0
  -20.7602   38.7411   -1.3700 C   0  0  0  0  0  0  0  0  0  0  0  0
  -16.0012   32.5202   -2.7052 C   0  0  0  0  0  0  0  0  0  0  0  0
  -21.3067   39.7831    0.7580 C   0  0  0  0  0  0  0  0  0  0  0  0
  -19.8841   37.8679   -0.7510 C   0  0  0  0  0  0  0  0  0  0  0  0
  -15.8125   32.8256   -1.3697 C   0  0  0  0  0  0  0  0  0  0  0  0
  -17.8919   36.1225    1.8058 C   0  0  0  0  0  0  0  0  0  0  0  0
  -16.4979   34.3041    0.7158 C   0  0  0  0  0  0  0  0  0  0  0  0
  -16.9770   33.2318   -3.4228 C   0  0  0  0  0  0  0  0  0  0  0  0
  -17.5458   35.3690    0.7314 C   0  0  0  0  0  0  0  0  0  0  0  0
  -17.5157   34.5374   -1.4033 C   0  0  0  0  0  0  0  0  0  0  0  0
  -20.4054   38.8906    1.3965 C   0  0  0  0  0  0  0  0  0  0  0  0
  -18.8749   37.1862    1.6015 C   0  0  0  0  0  0  0  0  0  0  0  0
  -17.6823   34.2448   -2.7400 C   0  0  0  0  0  0  0  0  0  0  0  0
  -16.5033   33.7815   -0.6915 C   0  0  0  0  0  0  0  0  0  0  0  0
  -19.6767   37.9137    0.6506 C   0  0  0  0  0  0  0  0  0  0  0  0
  -15.2324   37.5780   -5.0278 H   0  0  0  0  0  0  0  0  0  0  0  0
  -20.4103   39.3151    3.5090 H   0  0  0  0  0  0  0  0  0  0  0  0
  -16.6789   31.6575   -6.2439 H   0  0  0  0  0  0  0  0  0  0  0  0
  -15.4776   31.9130   -5.1677 H   0  0  0  0  0  0  0  0  0  0  0  0
  -16.7418   30.9593   -4.7690 H   0  0  0  0  0  0  0  0  0  0  0  0
  -17.7423   38.8250   -4.3888 H   0  0  0  0  0  0  0  0  0  0  0  0
  -16.3880   38.8647   -3.4772 H   0  0  0  0  0  0  0  0  0  0  0  0
  -16.1429   36.6354   -6.9158 H   0  0  0  0  0  0  0  0  0  0  0  0
  -17.5453   37.4499   -6.7249 H   0  0  0  0  0  0  0  0  0  0  0  0
  -18.7036   37.4339    3.7350 H   0  0  0  0  0  0  0  0  0  0  0  0
  -16.5655   36.5235   -3.0978 H   0  0  0  0  0  0  0  0  0  0  0  0
  -17.9319   37.2679   -2.6025 H   0  0  0  0  0  0  0  0  0  0  0  0
  -18.0308   35.2840   -6.1377 H   0  0  0  0  0  0  0  0  0  0  0  0
  -16.6727   35.1487   -5.2411 H   0  0  0  0  0  0  0  0  0  0  0  0
  -19.1793   34.3608   -4.1791 H   0  0  0  0  0  0  0  0  0  0  0  0
  -19.4491   35.3313   -2.8938 H   0  0  0  0  0  0  0  0  0  0  0  0
  -22.1059   40.3261   -1.0749 H   0  0  0  0  0  0  0  0  0  0  0  0
  -20.8900   38.6935   -2.3603 H   0  0  0  0  0  0  0  0  0  0  0  0
  -15.4558   31.8095   -3.1496 H   0  0  0  0  0  0  0  0  0  0  0  0
  -21.8126   40.4608    1.2917 H   0  0  0  0  0  0  0  0  0  0  0  0
  -19.3896   37.1943   -1.3004 H   0  0  0  0  0  0  0  0  0  0  0  0
  -15.1200   32.3078   -0.8675 H   0  0  0  0  0  0  0  0  0  0  0  0
  -17.4890   35.9563    2.7058 H   0  0  0  0  0  0  0  0  0  0  0  0
  1 21  2  0  0  0  0
  2  7  1  0  0  0  0
  2 22  1  0  0  0  0
  3 23  1  0  0  0  0
  3 24  1  0  0  0  0
  4  8  1  0  0  0  0
  4  9  1  0  0  0  0
  5 10  1  0  0  0  0
  5 25  1  0  0  0  0
  6 11  1  0  0  0  0
  6 12  1  0  0  0  0
  6 13  1  0  0  0  0
  8 11  1  0  0  0  0
  9 12  1  0  0  0  0
 10 26  2  0  0  0  0
 13 27  1  0  0  0  0
 14 15  2  0  0  0  0
 14 17  1  0  0  0  0
 15 18  1  0  0  0  0
 16 19  1  0  0  0  0
 16 22  2  0  0  0  0
 17 25  2  0  0  0  0
 18 29  2  0  0  0  0
 19 28  2  0  0  0  0
 20 23  2  0  0  0  0
 20 26  1  0  0  0  0
 21 23  1  0  0  0  0
 21 28  1  0  0  0  0
 22 27  1  0  0  0  0
 24 27  2  0  0  0  0
 24 28  1  0  0  0  0
 25 29  1  0  0  0  0
 26 29  1  0  0  0  0
  4 30  1  0  0  0  0
  5 31  1  0  0  0  0
  7 32  1  0  0  0  0
  7 33  1  0  0  0  0
  7 34  1  0  0  0  0
  8 35  1  0  0  0  0
  8 36  1  0  0  0  0
  9 37  1  0  0  0  0
  9 38  1  0  0  0  0
 10 39  1  0  0  0  0
 11 40  1  0  0  0  0
 11 41  1  0  0  0  0
 12 42  1  0  0  0  0
 12 43  1  0  0  0  0
 13 44  1  0  0  0  0
 13 45  1  0  0  0  0
 14 46  1  0  0  0  0
 15 47  1  0  0  0  0
 16 48  1  0  0  0  0
 17 49  1  0  0  0  0
 18 50  1  0  0  0  0
 19 51  1  0  0  0  0
 20 52  1  0  0  0  0
M  END
> <pdb_id>
5VUC

> <uniprot_id>
P11309

> <usmiles>
O=C\1c2c(O/C1=C\C=3c4c(NC3)cccc4)c(c(OC)cc2)CN5CCNCC5

$$$$
8GX_B_403
          07192419233D 1   1.00000     0.00000     0
            
 51 55  0  0  0  0            999 V2000
  -15.7718   33.9090    1.7452 O   0  0  0  0  0  0  0  0  0  0  0  0
  -17.2523   32.9064   -4.5817 O   0  0  0  0  0  0  0  0  0  0  0  0
  -18.0406   35.4707   -0.4795 O   0  0  0  0  0  0  0  0  0  0  0  0
  -16.1649   38.0955   -5.3608 N   0  0  0  0  0  0  0  0  0  0  0  0
  -21.4190   39.5889   -0.4008 N   0  0  0  0  0  0  0  0  0  0  0  0
  -20.0814   38.8404    2.9787 N   0  0  0  0  0  0  0  0  0  0  0  0
  -18.1821   36.2257   -4.2588 N   0  0  0  0  0  0  0  0  0  0  0  0
  -16.4335   31.9827   -5.2980 C   0  0  0  0  0  0  0  0  0  0  0  0
  -16.9835   37.1681   -6.2612 C   0  0  0  0  0  0  0  0  0  0  0  0
  -16.9592   38.3877   -4.0993 C   0  0  0  0  0  0  0  0  0  0  0  0
  -20.6598   38.6343   -1.0417 C   0  0  0  0  0  0  0  0  0  0  0  0
  -21.2787   39.7099    0.9215 C   0  0  0  0  0  0  0  0  0  0  0  0
  -19.1242   37.8547    3.1813 C   0  0  0  0  0  0  0  0  0  0  0  0
  -17.3638   35.8782   -5.4766 C   0  0  0  0  0  0  0  0  0  0  0  0
  -17.3482   37.0691   -3.3877 C   0  0  0  0  0  0  0  0  0  0  0  0
  -18.7712   35.0090   -3.5035 C   0  0  0  0  0  0  0  0  0  0  0  0
  -19.7559   37.7860   -0.4354 C   0  0  0  0  0  0  0  0  0  0  0  0
  -16.0377   32.4528   -2.5176 C   0  0  0  0  0  0  0  0  0  0  0  0
  -15.7963   32.7372   -1.1726 C   0  0  0  0  0  0  0  0  0  0  0  0
  -17.8018   36.1588    1.8685 C   0  0  0  0  0  0  0  0  0  0  0  0
  -16.4636   34.2830    0.8121 C   0  0  0  0  0  0  0  0  0  0  0  0
  -16.9910   33.1897   -3.2349 C   0  0  0  0  0  0  0  0  0  0  0  0
  -17.4816   35.3916    0.8192 C   0  0  0  0  0  0  0  0  0  0  0  0
  -17.4677   34.5096   -1.2911 C   0  0  0  0  0  0  0  0  0  0  0  0
  -20.3821   38.8814    1.6150 C   0  0  0  0  0  0  0  0  0  0  0  0
  -18.7862   37.2388    1.9853 C   0  0  0  0  0  0  0  0  0  0  0  0
  -17.7450   34.2604   -2.6507 C   0  0  0  0  0  0  0  0  0  0  0  0
  -16.5024   33.7586   -0.5659 C   0  0  0  0  0  0  0  0  0  0  0  0
  -19.5832   37.8796    0.9587 C   0  0  0  0  0  0  0  0  0  0  0  0
  -15.9760   38.9506   -5.8437 H   0  0  0  0  0  0  0  0  0  0  0  0
  -20.4853   39.4203    3.6862 H   0  0  0  0  0  0  0  0  0  0  0  0
  -16.7638   31.9042   -6.2386 H   0  0  0  0  0  0  0  0  0  0  0  0
  -15.4883   32.3093   -5.3028 H   0  0  0  0  0  0  0  0  0  0  0  0
  -16.4745   31.0874   -4.8544 H   0  0  0  0  0  0  0  0  0  0  0  0
  -16.4417   36.9211   -7.0646 H   0  0  0  0  0  0  0  0  0  0  0  0
  -17.8168   37.6379   -6.5527 H   0  0  0  0  0  0  0  0  0  0  0  0
  -17.7901   38.8886   -4.3419 H   0  0  0  0  0  0  0  0  0  0  0  0
  -16.4032   38.9438   -3.4815 H   0  0  0  0  0  0  0  0  0  0  0  0
  -20.7735   38.5489   -2.0315 H   0  0  0  0  0  0  0  0  0  0  0  0
  -21.8137   40.3926    1.4193 H   0  0  0  0  0  0  0  0  0  0  0  0
  -18.7312   37.6204    4.0705 H   0  0  0  0  0  0  0  0  0  0  0  0
  -17.8969   35.2762   -6.0710 H   0  0  0  0  0  0  0  0  0  0  0  0
  -16.5287   35.4090   -5.1895 H   0  0  0  0  0  0  0  0  0  0  0  0
  -16.5159   36.5691   -3.1480 H   0  0  0  0  0  0  0  0  0  0  0  0
  -17.8588   37.2850   -2.5554 H   0  0  0  0  0  0  0  0  0  0  0  0
  -19.1481   34.3720   -4.1759 H   0  0  0  0  0  0  0  0  0  0  0  0
  -19.5033   35.3333   -2.9045 H   0  0  0  0  0  0  0  0  0  0  0  0
  -19.2366   37.1214   -0.9727 H   0  0  0  0  0  0  0  0  0  0  0  0
  -15.5290   31.7210   -2.9712 H   0  0  0  0  0  0  0  0  0  0  0  0
  -15.1223   32.2097   -0.6555 H   0  0  0  0  0  0  0  0  0  0  0  0
  -17.2886   35.9645    2.7045 H   0  0  0  0  0  0  0  0  0  0  0  0
  1 21  2  0  0  0  0
  2  8  1  0  0  0  0
  2 22  1  0  0  0  0
  3 23  1  0  0  0  0
  3 24  1  0  0  0  0
  4  9  1  0  0  0  0
  4 10  1  0  0  0  0
  5 11  2  0  0  0  0
  5 12  1  0  0  0  0
  6 13  1  0  0  0  0
  6 25  1  0  0  0  0
  7 14  1  0  0  0  0
  7 15  1  0  0  0  0
  7 16  1  0  0  0  0
  9 14  1  0  0  0  0
 10 15  1  0  0  0  0
 11 17  1  0  0  0  0
 12 25  2  0  0  0  0
 13 26  2  0  0  0  0
 16 27  1  0  0  0  0
 17 29  2  0  0  0  0
 18 19  1  0  0  0  0
 18 22  2  0  0  0  0
 19 28  2  0  0  0  0
 20 23  2  0  0  0  0
 20 26  1  0  0  0  0
 21 23  1  0  0  0  0
 21 28  1  0  0  0  0
 22 27  1  0  0  0  0
 24 27  2  0  0  0  0
 24 28  1  0  0  0  0
 25 29  1  0  0  0  0
 26 29  1  0  0  0  0
  4 30  1  0  0  0  0
  6 31  1  0  0  0  0
  8 32  1  0  0  0  0
  8 33  1  0  0  0  0
  8 34  1  0  0  0  0
  9 35  1  0  0  0  0
  9 36  1  0  0  0  0
 10 37  1  0  0  0  0
 10 38  1  0  0  0  0
 11 39  1  0  0  0  0
 12 40  1  0  0  0  0
 13 41  1  0  0  0  0
 14 42  1  0  0  0  0
 14 43  1  0  0  0  0
 15 44  1  0  0  0  0
 15 45  1  0  0  0  0
 16 46  1  0  0  0  0
 16 47  1  0  0  0  0
 17 48  1  0  0  0  0
 18 49  1  0  0  0  0
 19 50  1  0  0  0  0
 20 51  1  0  0  0  0
M  END
> <pdb_id>
5VUA

> <uniprot_id>
P11309

> <usmiles>
O=C\1c2c(O/C1=C\C=3c4c(NC3)cncc4)c(c(OC)cc2)CN5CCNCC5

$$$$
8HC_A_1319
          07202405093D 1   1.00000     0.00000     0
            
 21 22  0  0  0  0            999 V2000
   24.6742   97.9791    8.0457 O   0  0  0  0  0  0  0  0  0  0  0  0
   22.5313   97.7349    7.4614 O   0  0  0  0  0  0  0  0  0  0  0  0
   19.2232   96.1496   10.1635 O   0  0  0  0  0  0  0  0  0  0  0  0
   21.8471   96.7889    9.8167 N   0  0  0  0  0  0  0  0  0  0  0  0
   20.5112   95.3215   13.4729 C   0  0  0  0  0  0  0  0  0  0  0  0
   19.6340   95.4687   12.4084 C   0  0  0  0  0  0  0  0  0  0  0  0
   21.8356   95.6388   13.3434 C   0  0  0  0  0  0  0  0  0  0  0  0
   24.0827   96.9669   10.6655 C   0  0  0  0  0  0  0  0  0  0  0  0
   23.6934   96.4903   11.8819 C   0  0  0  0  0  0  0  0  0  0  0  0
   23.5159   97.6474    8.3118 C   0  0  0  0  0  0  0  0  0  0  0  0
   20.0797   95.9574   11.1996 C   0  0  0  0  0  0  0  0  0  0  0  0
   23.1232   97.1058    9.6615 C   0  0  0  0  0  0  0  0  0  0  0  0
   21.4510   96.2909   11.0289 C   0  0  0  0  0  0  0  0  0  0  0  0
   22.3461   96.1313   12.1152 C   0  0  0  0  0  0  0  0  0  0  0  0
   25.3911   97.8905    8.7373 H   0  0  0  0  0  0  0  0  0  0  0  0
   19.5634   96.5050    9.2929 H   0  0  0  0  0  0  0  0  0  0  0  0
   20.1703   94.9782   14.3481 H   0  0  0  0  0  0  0  0  0  0  0  0
   18.6721   95.2186   12.5190 H   0  0  0  0  0  0  0  0  0  0  0  0
   22.4506   95.5221   14.1232 H   0  0  0  0  0  0  0  0  0  0  0  0
   25.0371   97.2122   10.4958 H   0  0  0  0  0  0  0  0  0  0  0  0
   24.3664   96.3938   12.6153 H   0  0  0  0  0  0  0  0  0  0  0  0
  1 10  1  0  0  0  0
  2 10  2  0  0  0  0
  3 11  1  0  0  0  0
  4 12  2  0  0  0  0
  4 13  1  0  0  0  0
  5  6  2  0  0  0  0
  5  7  1  0  0  0  0
  6 11  1  0  0  0  0
  7 14  2  0  0  0  0
  8  9  2  0  0  0  0
  8 12  1  0  0  0  0
  9 14  1  0  0  0  0
 10 12  1  0  0  0  0
 11 13  2  0  0  0  0
 13 14  1  0  0  0  0
  1 15  1  0  0  0  0
  3 16  1  0  0  0  0
  5 17  1  0  0  0  0
  6 18  1  0  0  0  0
  7 19  1  0  0  0  0
  8 20  1  0  0  0  0
  9 21  1  0  0  0  0
M  END
> <pdb_id>
4UCU

> <uniprot_id>
P43813

> <usmiles>
O=C(O)c1nc2c(O)cccc2cc1

$$$$
8HE_A_302
          07192416293D 1   1.00000     0.00000     0
            
 28 29  0  0  0  0            999 V2000
   -5.8938    1.0093   16.8195 S   0  0  0  0  0  0  0  0  0  0  0  0
   -7.3368    1.1345   16.6419 O   0  0  0  0  0  0  0  0  0  0  0  0
   -5.4309    1.1315   18.1771 O   0  0  0  0  0  0  0  0  0  0  0  0
   -5.4186   -0.4068   16.2449 N   0  0  0  0  0  0  0  0  0  0  0  0
    0.0329    9.2772   12.0950 N   0  0  0  0  0  0  0  0  0  0  0  0
   -0.6131    8.4349   12.5641 C   0  0  0  0  0  0  0  0  0  0  0  0
   -5.7899    3.3938   15.6106 C   0  0  0  0  0  0  0  0  0  0  0  0
   -3.7438    2.1517   15.7935 C   0  0  0  0  0  0  0  0  0  0  0  0
   -1.1689    6.1859   12.5885 C   0  0  0  0  0  0  0  0  0  0  0  0
   -2.2522    7.7634   14.0725 C   0  0  0  0  0  0  0  0  0  0  0  0
   -5.0989    4.4454   14.9637 C   0  0  0  0  0  0  0  0  0  0  0  0
   -3.0498    3.1864   15.1566 C   0  0  0  0  0  0  0  0  0  0  0  0
   -1.9328    5.1489   13.1253 C   0  0  0  0  0  0  0  0  0  0  0  0
   -3.0221    6.7253   14.5983 C   0  0  0  0  0  0  0  0  0  0  0  0
   -5.1258    2.2264   16.0300 C   0  0  0  0  0  0  0  0  0  0  0  0
   -1.3291    7.4867   13.0666 C   0  0  0  0  0  0  0  0  0  0  0  0
   -3.7069    4.3417   14.7302 C   0  0  0  0  0  0  0  0  0  0  0  0
   -2.8879    5.4234   14.0972 C   0  0  0  0  0  0  0  0  0  0  0  0
   -4.4299   -0.4998   16.3633 H   0  0  0  0  0  0  0  0  0  0  0  0
   -5.8840   -1.1405   16.7399 H   0  0  0  0  0  0  0  0  0  0  0  0
   -6.7726    3.4822   15.7733 H   0  0  0  0  0  0  0  0  0  0  0  0
   -3.2425    1.3380   16.0877 H   0  0  0  0  0  0  0  0  0  0  0  0
   -0.5077    5.9970   11.8624 H   0  0  0  0  0  0  0  0  0  0  0  0
   -2.3620    8.6967   14.4143 H   0  0  0  0  0  0  0  0  0  0  0  0
   -5.5948    5.2631   14.6710 H   0  0  0  0  0  0  0  0  0  0  0  0
   -2.0656    3.0966   15.0043 H   0  0  0  0  0  0  0  0  0  0  0  0
   -1.7934    4.2097   12.8114 H   0  0  0  0  0  0  0  0  0  0  0  0
   -3.6720    6.9110   15.3353 H   0  0  0  0  0  0  0  0  0  0  0  0
  1  2  2  0  0  0  0
  1  3  2  0  0  0  0
  1  4  1  0  0  0  0
  1 15  1  0  0  0  0
  5  6  3  0  0  0  0
  6 16  1  0  0  0  0
  7 11  2  0  0  0  0
  7 15  1  0  0  0  0
  8 12  1  0  0  0  0
  8 15  2  0  0  0  0
  9 13  1  0  0  0  0
  9 16  2  0  0  0  0
 10 14  2  0  0  0  0
 10 16  1  0  0  0  0
 11 17  1  0  0  0  0
 12 17  2  0  0  0  0
 13 18  2  0  0  0  0
 14 18  1  0  0  0  0
 17 18  1  0  0  0  0
  4 19  1  0  0  0  0
  4 20  1  0  0  0  0
  7 21  1  0  0  0  0
  8 22  1  0  0  0  0
  9 23  1  0  0  0  0
 10 24  1  0  0  0  0
 11 25  1  0  0  0  0
 12 26  1  0  0  0  0
 13 27  1  0  0  0  0
 14 28  1  0  0  0  0
M  END
> <pdb_id>
5N24

> <uniprot_id>
P00918

> <usmiles>
S(=O)(=O)(N)c1ccc(c2ccc(C#N)cc2)cc1

$$$$
8HK_A_302
          07192416293D 1   1.00000     0.00000     0
            
 26 27  0  0  0  0            999 V2000
   -5.8670    1.0252   16.8282 S   0  0  0  0  0  0  0  0  0  0  0  0
   -5.3747    1.1111   18.1740 O   0  0  0  0  0  0  0  0  0  0  0  0
   -7.2787    1.1515   16.6018 O   0  0  0  0  0  0  0  0  0  0  0  0
   -5.4130   -0.3901   16.2371 N   0  0  0  0  0  0  0  0  0  0  0  0
   -1.1046    6.3313   12.7117 N   0  0  0  0  0  0  0  0  0  0  0  0
   -1.3347    7.5617   13.1777 C   0  0  0  0  0  0  0  0  0  0  0  0
   -1.9008    5.3481   13.1559 C   0  0  0  0  0  0  0  0  0  0  0  0
   -2.3330    7.8559   14.0828 C   0  0  0  0  0  0  0  0  0  0  0  0
   -5.7609    3.4097   15.4689 C   0  0  0  0  0  0  0  0  0  0  0  0
   -3.6922    2.1927   15.6688 C   0  0  0  0  0  0  0  0  0  0  0  0
   -3.1412    6.8278   14.5292 C   0  0  0  0  0  0  0  0  0  0  0  0
   -5.0796    4.4411   14.8364 C   0  0  0  0  0  0  0  0  0  0  0  0
   -3.0289    3.2311   15.0403 C   0  0  0  0  0  0  0  0  0  0  0  0
   -5.0562    2.2920   15.8966 C   0  0  0  0  0  0  0  0  0  0  0  0
   -2.9352    5.5304   14.0705 C   0  0  0  0  0  0  0  0  0  0  0  0
   -3.6976    4.3808   14.6285 C   0  0  0  0  0  0  0  0  0  0  0  0
   -5.7423   -0.4799   15.2972 H   0  0  0  0  0  0  0  0  0  0  0  0
   -4.4149   -0.4511   16.2479 H   0  0  0  0  0  0  0  0  0  0  0  0
   -0.7533    8.3080   12.8537 H   0  0  0  0  0  0  0  0  0  0  0  0
   -1.7416    4.4242   12.8080 H   0  0  0  0  0  0  0  0  0  0  0  0
   -2.4687    8.7916   14.4084 H   0  0  0  0  0  0  0  0  0  0  0  0
   -6.7483    3.4710   15.6149 H   0  0  0  0  0  0  0  0  0  0  0  0
   -3.1916    1.3763   15.9568 H   0  0  0  0  0  0  0  0  0  0  0  0
   -3.8746    7.0163   15.1824 H   0  0  0  0  0  0  0  0  0  0  0  0
   -5.5874    5.2435   14.5231 H   0  0  0  0  0  0  0  0  0  0  0  0
   -2.0452    3.1542   14.8777 H   0  0  0  0  0  0  0  0  0  0  0  0
  1  2  2  0  0  0  0
  1  3  2  0  0  0  0
  1  4  1  0  0  0  0
  1 14  1  0  0  0  0
  5  6  2  0  0  0  0
  5  7  1  0  0  0  0
  6  8  1  0  0  0  0
  7 15  2  0  0  0  0
  8 11  2  0  0  0  0
  9 12  2  0  0  0  0
  9 14  1  0  0  0  0
 10 13  1  0  0  0  0
 10 14  2  0  0  0  0
 11 15  1  0  0  0  0
 12 16  1  0  0  0  0
 13 16  2  0  0  0  0
 15 16  1  0  0  0  0
  4 17  1  0  0  0  0
  4 18  1  0  0  0  0
  6 19  1  0  0  0  0
  7 20  1  0  0  0  0
  8 21  1  0  0  0  0
  9 22  1  0  0  0  0
 10 23  1  0  0  0  0
 11 24  1  0  0  0  0
 12 25  1  0  0  0  0
 13 26  1  0  0  0  0
M  END
> <pdb_id>
5N25

> <uniprot_id>
P00918

> <usmiles>
S(=O)(=O)(N)c1ccc(c2cnccc2)cc1

$$$$
8HV_B_501
          07202407493D 1   1.00000     0.00000     0
            
 59 62  0  0  0  0            999 V2000
   10.0334   -9.0681   35.7768 F   0  0  0  0  0  0  0  0  0  0  0  0
    8.6173   -7.6523   42.9673 O   0  0  0  0  0  0  0  0  0  0  0  0
    6.8281   -1.3314   51.1838 O   0  0  0  0  0  0  0  0  0  0  0  0
    4.8082    0.4455   48.9421 O   0  0  0  0  0  0  0  0  0  0  0  0
   10.4742   -6.3234   43.2189 N   0  0  0  0  0  0  0  0  0  0  0  0
   10.3565   -7.9298   41.5655 N   0  0  0  0  0  0  0  0  0  0  0  0
    7.5183   -0.9241   49.0942 N   0  0  0  0  0  0  0  0  0  0  0  0
    4.3554   -1.8664   49.3598 C   0  0  0  0  0  0  0  0  0  0  0  0
    4.4931   -0.1664   51.2127 C   0  0  0  0  0  0  0  0  0  0  0  0
    8.9228   -1.2986   49.3273 C   0  0  0  0  0  0  0  0  0  0  0  0
    7.3070   -0.5710   47.6834 C   0  0  0  0  0  0  0  0  0  0  0  0
   11.3570   -7.1373   40.8493 C   0  0  0  0  0  0  0  0  0  0  0  0
    9.5778   -8.8104   40.6874 C   0  0  0  0  0  0  0  0  0  0  0  0
    9.3153   -2.5161   48.4738 C   0  0  0  0  0  0  0  0  0  0  0  0
    7.6023   -1.7701   46.7826 C   0  0  0  0  0  0  0  0  0  0  0  0
   11.5107   -7.7222   37.0432 C   0  0  0  0  0  0  0  0  0  0  0  0
    8.8968   -5.5085   44.9766 C   0  0  0  0  0  0  0  0  0  0  0  0
   10.9822   -4.4036   44.5273 C   0  0  0  0  0  0  0  0  0  0  0  0
   11.8997   -7.2410   38.2866 C   0  0  0  0  0  0  0  0  0  0  0  0
    8.5654   -4.4993   45.8714 C   0  0  0  0  0  0  0  0  0  0  0  0
   10.6317   -3.3932   45.4022 C   0  0  0  0  0  0  0  0  0  0  0  0
    9.6701   -8.9145   38.0830 C   0  0  0  0  0  0  0  0  0  0  0  0
    9.7548   -7.3373   42.6338 C   0  0  0  0  0  0  0  0  0  0  0  0
   10.3983   -8.5499   36.9803 C   0  0  0  0  0  0  0  0  0  0  0  0
    6.5619   -0.9689   50.0464 C   0  0  0  0  0  0  0  0  0  0  0  0
   10.0971   -5.4493   44.2685 C   0  0  0  0  0  0  0  0  0  0  0  0
   11.1839   -7.5925   39.4282 C   0  0  0  0  0  0  0  0  0  0  0  0
    9.0359   -2.2649   46.9849 C   0  0  0  0  0  0  0  0  0  0  0  0
    9.4164   -3.4165   46.0792 C   0  0  0  0  0  0  0  0  0  0  0  0
   10.0861   -8.4404   39.3273 C   0  0  0  0  0  0  0  0  0  0  0  0
    5.0686   -0.6187   49.8701 C   0  0  0  0  0  0  0  0  0  0  0  0
    5.2656    1.2785   49.2533 H   0  0  0  0  0  0  0  0  0  0  0  0
   11.3938   -6.1824   42.8522 H   0  0  0  0  0  0  0  0  0  0  0  0
    4.5205   -2.6256   49.9893 H   0  0  0  0  0  0  0  0  0  0  0  0
    3.3730   -1.6887   49.3022 H   0  0  0  0  0  0  0  0  0  0  0  0
    4.7051   -2.1029   48.4533 H   0  0  0  0  0  0  0  0  0  0  0  0
    4.6493   -0.8770   51.8987 H   0  0  0  0  0  0  0  0  0  0  0  0
    4.9430    0.6792   51.5003 H   0  0  0  0  0  0  0  0  0  0  0  0
    3.5108   -0.0055   51.1171 H   0  0  0  0  0  0  0  0  0  0  0  0
    9.0456   -1.5232   50.2940 H   0  0  0  0  0  0  0  0  0  0  0  0
    9.5116   -0.5269   49.0870 H   0  0  0  0  0  0  0  0  0  0  0  0
    7.9162    0.1831   47.4380 H   0  0  0  0  0  0  0  0  0  0  0  0
    6.3568   -0.2878   47.5536 H   0  0  0  0  0  0  0  0  0  0  0  0
   12.2792   -7.3355   41.1816 H   0  0  0  0  0  0  0  0  0  0  0  0
   11.1735   -6.1584   40.9392 H   0  0  0  0  0  0  0  0  0  0  0  0
    8.5979   -8.6282   40.7693 H   0  0  0  0  0  0  0  0  0  0  0  0
    9.7559   -9.7732   40.8906 H   0  0  0  0  0  0  0  0  0  0  0  0
    8.7868   -3.3097   48.7753 H   0  0  0  0  0  0  0  0  0  0  0  0
   10.2907   -2.6992   48.5961 H   0  0  0  0  0  0  0  0  0  0  0  0
    7.4809   -1.4999   45.8275 H   0  0  0  0  0  0  0  0  0  0  0  0
    6.9665   -2.5098   47.0031 H   0  0  0  0  0  0  0  0  0  0  0  0
   12.0180   -7.4792   36.2163 H   0  0  0  0  0  0  0  0  0  0  0  0
    8.2740   -6.2788   44.8398 H   0  0  0  0  0  0  0  0  0  0  0  0
   11.8751   -4.3847   44.0774 H   0  0  0  0  0  0  0  0  0  0  0  0
   12.6958   -6.6405   38.3623 H   0  0  0  0  0  0  0  0  0  0  0  0
    7.7025   -4.5508   46.3741 H   0  0  0  0  0  0  0  0  0  0  0  0
   11.2625   -2.6318   45.5515 H   0  0  0  0  0  0  0  0  0  0  0  0
    8.8656   -9.5023   37.9981 H   0  0  0  0  0  0  0  0  0  0  0  0
    9.6274   -1.5031   46.7209 H   0  0  0  0  0  0  0  0  0  0  0  0
  1 24  1  0  0  0  0
  2 23  2  0  0  0  0
  3 25  2  0  0  0  0
  4 31  1  0  0  0  0
  5 23  1  0  0  0  0
  5 26  1  0  0  0  0
  6 12  1  0  0  0  0
  6 13  1  0  0  0  0
  6 23  1  0  0  0  0
  7 10  1  0  0  0  0
  7 11  1  0  0  0  0
  7 25  1  0  0  0  0
  8 31  1  0  0  0  0
  9 31  1  0  0  0  0
 10 14  1  0  0  0  0
 11 15  1  0  0  0  0
 12 27  1  0  0  0  0
 13 30  1  0  0  0  0
 14 28  1  0  0  0  0
 15 28  1  0  0  0  0
 16 19  1  0  0  0  0
 16 24  2  0  0  0  0
 17 20  1  0  0  0  0
 17 26  2  0  0  0  0
 18 21  2  0  0  0  0
 18 26  1  0  0  0  0
 19 27  2  0  0  0  0
 20 29  2  0  0  0  0
 21 29  1  0  0  0  0
 22 24  1  0  0  0  0
 22 30  2  0  0  0  0
 25 31  1  0  0  0  0
 27 30  1  0  0  0  0
 28 29  1  0  0  0  0
  4 32  1  0  0  0  0
  5 33  1  0  0  0  0
  8 34  1  0  0  0  0
  8 35  1  0  0  0  0
  8 36  1  0  0  0  0
  9 37  1  0  0  0  0
  9 38  1  0  0  0  0
  9 39  1  0  0  0  0
 10 40  1  0  0  0  0
 10 41  1  0  0  0  0
 11 42  1  0  0  0  0
 11 43  1  0  0  0  0
 12 44  1  0  0  0  0
 12 45  1  0  0  0  0
 13 46  1  0  0  0  0
 13 47  1  0  0  0  0
 14 48  1  0  0  0  0
 14 49  1  0  0  0  0
 15 50  1  0  0  0  0
 15 51  1  0  0  0  0
 16 52  1  0  0  0  0
 17 53  1  0  0  0  0
 18 54  1  0  0  0  0
 19 55  1  0  0  0  0
 20 56  1  0  0  0  0
 21 57  1  0  0  0  0
 22 58  1  0  0  0  0
 28 59  1  0  0  0  0
M  END
> <pdb_id>
5UPF

> <uniprot_id>
P43490

> <usmiles>
Fc1cc2c(cc1)CN(C(=O)Nc3ccc(cc3)C4CCN(C(=O)C(O)(C)C)CC4)C2

$$$$
8HY_B_501
          07202407493D 1   1.00000     0.00000     0
            
 55 58  0  0  0  0            999 V2000
    8.5780   -7.9213   42.8587 O   0  0  0  0  0  0  0  0  0  0  0  0
    6.4412   -3.0970   47.2339 O   0  0  0  0  0  0  0  0  0  0  0  0
    8.1439   -1.6285   47.1166 N   0  0  0  0  0  0  0  0  0  0  0  0
   10.1761   -6.2831   43.1487 N   0  0  0  0  0  0  0  0  0  0  0  0
   10.3770   -7.8272   41.4918 N   0  0  0  0  0  0  0  0  0  0  0  0
    7.5581   -0.6079   47.9811 C   0  0  0  0  0  0  0  0  0  0  0  0
    8.7333   -1.5074   54.2910 C   0  0  0  0  0  0  0  0  0  0  0  0
    7.2214   -1.0946   49.3894 C   0  0  0  0  0  0  0  0  0  0  0  0
    9.8314   -1.8357   53.5208 C   0  0  0  0  0  0  0  0  0  0  0  0
    7.4980   -1.3490   53.6904 C   0  0  0  0  0  0  0  0  0  0  0  0
   11.6207   -7.4479   37.0124 C   0  0  0  0  0  0  0  0  0  0  0  0
   10.5971   -8.3830   36.8644 C   0  0  0  0  0  0  0  0  0  0  0  0
   11.5219   -7.1761   40.8541 C   0  0  0  0  0  0  0  0  0  0  0  0
    9.6940   -8.7641   40.5893 C   0  0  0  0  0  0  0  0  0  0  0  0
    8.3397   -1.9382   50.0310 C   0  0  0  0  0  0  0  0  0  0  0  0
    9.6972   -1.9997   52.1509 C   0  0  0  0  0  0  0  0  0  0  0  0
    7.3617   -1.5189   52.3225 C   0  0  0  0  0  0  0  0  0  0  0  0
   11.9681   -6.9904   38.2762 C   0  0  0  0  0  0  0  0  0  0  0  0
    9.9329   -8.8677   37.9794 C   0  0  0  0  0  0  0  0  0  0  0  0
    8.3991   -5.8418   44.7675 C   0  0  0  0  0  0  0  0  0  0  0  0
   10.2488   -4.3253   44.5887 C   0  0  0  0  0  0  0  0  0  0  0  0
    7.7847   -4.9830   45.6639 C   0  0  0  0  0  0  0  0  0  0  0  0
    9.6184   -3.4575   45.4671 C   0  0  0  0  0  0  0  0  0  0  0  0
    9.6399   -7.3919   42.5468 C   0  0  0  0  0  0  0  0  0  0  0  0
    7.5629   -2.7965   46.8222 C   0  0  0  0  0  0  0  0  0  0  0  0
    9.6196   -5.5037   44.1944 C   0  0  0  0  0  0  0  0  0  0  0  0
    8.4628   -1.8364   51.5323 C   0  0  0  0  0  0  0  0  0  0  0  0
    8.3500   -3.7489   45.9720 C   0  0  0  0  0  0  0  0  0  0  0  0
   11.2989   -7.4741   39.4002 C   0  0  0  0  0  0  0  0  0  0  0  0
   10.2793   -8.4112   39.2532 C   0  0  0  0  0  0  0  0  0  0  0  0
    9.0413   -1.4412   46.7173 H   0  0  0  0  0  0  0  0  0  0  0  0
   11.0690   -5.9877   42.8086 H   0  0  0  0  0  0  0  0  0  0  0  0
    6.7157   -0.2808   47.5530 H   0  0  0  0  0  0  0  0  0  0  0  0
    8.2082    0.1480   48.0580 H   0  0  0  0  0  0  0  0  0  0  0  0
    8.8311   -1.3847   55.2786 H   0  0  0  0  0  0  0  0  0  0  0  0
    6.3921   -1.6514   49.3422 H   0  0  0  0  0  0  0  0  0  0  0  0
    7.0547   -0.2967   49.9687 H   0  0  0  0  0  0  0  0  0  0  0  0
   10.7255   -1.9555   53.9523 H   0  0  0  0  0  0  0  0  0  0  0  0
    6.7007   -1.1110   54.2451 H   0  0  0  0  0  0  0  0  0  0  0  0
   12.1053   -7.1063   36.2071 H   0  0  0  0  0  0  0  0  0  0  0  0
   10.3421   -8.7041   35.9524 H   0  0  0  0  0  0  0  0  0  0  0  0
   12.3846   -7.5672   41.1748 H   0  0  0  0  0  0  0  0  0  0  0  0
   11.5186   -6.1909   41.0255 H   0  0  0  0  0  0  0  0  0  0  0  0
    8.7045   -8.6201   40.6000 H   0  0  0  0  0  0  0  0  0  0  0  0
    9.8954   -9.7128   40.8330 H   0  0  0  0  0  0  0  0  0  0  0  0
    9.2096   -1.6485   49.6318 H   0  0  0  0  0  0  0  0  0  0  0  0
    8.1704   -2.8967   49.8017 H   0  0  0  0  0  0  0  0  0  0  0  0
   10.4977   -2.2383   51.6011 H   0  0  0  0  0  0  0  0  0  0  0  0
    6.4626   -1.4124   51.8981 H   0  0  0  0  0  0  0  0  0  0  0  0
   12.6977   -6.3146   38.3807 H   0  0  0  0  0  0  0  0  0  0  0  0
    9.2049   -9.5449   37.8721 H   0  0  0  0  0  0  0  0  0  0  0  0
    7.9623   -6.7098   44.5313 H   0  0  0  0  0  0  0  0  0  0  0  0
   11.1585   -4.1045   44.2370 H   0  0  0  0  0  0  0  0  0  0  0  0
    6.9239   -5.2530   46.0952 H   0  0  0  0  0  0  0  0  0  0  0  0
   10.0778   -2.6129   45.7422 H   0  0  0  0  0  0  0  0  0  0  0  0
  1 24  2  0  0  0  0
  2 25  2  0  0  0  0
  3  6  1  0  0  0  0
  3 25  1  0  0  0  0
  4 24  1  0  0  0  0
  4 26  1  0  0  0  0
  5 13  1  0  0  0  0
  5 14  1  0  0  0  0
  5 24  1  0  0  0  0
  6  8  1  0  0  0  0
  7  9  2  0  0  0  0
  7 10  1  0  0  0  0
  8 15  1  0  0  0  0
  9 16  1  0  0  0  0
 10 17  2  0  0  0  0
 11 12  2  0  0  0  0
 11 18  1  0  0  0  0
 12 19  1  0  0  0  0
 13 29  1  0  0  0  0
 14 30  1  0  0  0  0
 15 27  1  0  0  0  0
 16 27  2  0  0  0  0
 17 27  1  0  0  0  0
 18 29  2  0  0  0  0
 19 30  2  0  0  0  0
 20 22  1  0  0  0  0
 20 26  2  0  0  0  0
 21 23  2  0  0  0  0
 21 26  1  0  0  0  0
 22 28  2  0  0  0  0
 23 28  1  0  0  0  0
 25 28  1  0  0  0  0
 29 30  1  0  0  0  0
  3 31  1  0  0  0  0
  4 32  1  0  0  0  0
  6 33  1  0  0  0  0
  6 34  1  0  0  0  0
  7 35  1  0  0  0  0
  8 36  1  0  0  0  0
  8 37  1  0  0  0  0
  9 38  1  0  0  0  0
 10 39  1  0  0  0  0
 11 40  1  0  0  0  0
 12 41  1  0  0  0  0
 13 42  1  0  0  0  0
 13 43  1  0  0  0  0
 14 44  1  0  0  0  0
 14 45  1  0  0  0  0
 15 46  1  0  0  0  0
 15 47  1  0  0  0  0
 16 48  1  0  0  0  0
 17 49  1  0  0  0  0
 18 50  1  0  0  0  0
 19 51  1  0  0  0  0
 20 52  1  0  0  0  0
 21 53  1  0  0  0  0
 22 54  1  0  0  0  0
 23 55  1  0  0  0  0
M  END
> <pdb_id>
5UPE

> <uniprot_id>
P43490

> <usmiles>
O=C(N1Cc2c(cccc2)C1)Nc3ccc(cc3)C(=O)NCCCc4ccccc4

$$$$
8J0_A_501
          07202400393D 1   1.00000     0.00000     0
            
 88 93  0  0  0  0            999 V2000
   17.8510    8.4067   19.0168 O   0  0  0  0  0  0  0  0  0  0  0  0
   15.7352    4.8566   18.2098 O   0  0  0  0  0  0  0  0  0  0  0  0
   11.8350   -2.6616   28.4757 O   0  0  0  0  0  0  0  0  0  0  0  0
   12.8799    3.2508   27.8952 C   0  0  0  0  0  0  0  0  0  0  0  0
   14.7868    5.2479   20.5919 C   0  0  0  0  0  0  0  0  0  0  0  0
   13.6742    4.4988   24.7840 C   0  0  0  0  0  0  0  0  0  0  0  0
   13.6502    0.3369   27.6870 C   0  0  0  0  0  0  0  0  0  0  0  0
   14.1405    7.3902   25.7262 C   0  0  0  0  0  0  0  0  0  0  0  0
   14.4597    1.3227   27.7704 C   0  0  0  0  0  0  0  0  0  0  0  0
   12.8686   -0.5735   27.5725 C   0  0  0  0  0  0  0  0  0  0  0  0
   15.5447    7.6905   25.1591 C   0  0  0  0  0  0  0  0  0  0  0  0
   16.0047    7.4398   22.2530 C   0  0  0  0  0  0  0  0  0  0  0  0
   16.1444    6.2887   23.1780 C   0  0  0  0  0  0  0  0  0  0  0  0
   16.2518    2.9953   26.0225 C   0  0  0  0  0  0  0  0  0  0  0  0
   16.6814    3.9162   24.9169 C   0  0  0  0  0  0  0  0  0  0  0  0
   15.8673    7.2958   18.0699 C   0  0  0  0  0  0  0  0  0  0  0  0
   15.6252    8.6365   20.1612 C   0  0  0  0  0  0  0  0  0  0  0  0
    7.9947   -0.6137   25.7430 C   0  0  0  0  0  0  0  0  0  0  0  0
    8.5378    1.2810   27.1176 C   0  0  0  0  0  0  0  0  0  0  0  0
    7.6101   -0.8215   28.1403 C   0  0  0  0  0  0  0  0  0  0  0  0
   14.0972    6.1132   26.5979 C   0  0  0  0  0  0  0  0  0  0  0  0
   10.3823   -0.0750   26.1805 C   0  0  0  0  0  0  0  0  0  0  0  0
    9.4484   -2.1702   27.1020 C   0  0  0  0  0  0  0  0  0  0  0  0
   10.0513   -0.1820   28.5247 C   0  0  0  0  0  0  0  0  0  0  0  0
   16.4055    8.5153   18.8510 C   0  0  1  0  0  0  0  0  0  0  0  0
   16.2480    6.0292   18.8059 C   0  0  1  0  0  0  0  0  0  0  0  0
   13.9793    2.5826   27.0802 C   0  0  2  0  0  0  0  0  0  0  0  0
   11.8660   -1.6707   27.4327 C   0  0  2  0  0  0  0  0  0  0  0  0
    8.9963    0.5017   25.9268 C   0  0  3  0  0  0  0  0  0  0  0  0
    8.0479   -1.5805   26.9183 C   0  0  3  0  0  0  0  0  0  0  0  0
    8.6178    0.3275   28.3240 C   0  0  3  0  0  0  0  0  0  0  0  0
   15.6509    6.1501   20.1467 C   0  0  0  0  0  0  0  0  0  0  0  0
   15.7881    7.3665   20.9215 C   0  0  0  0  0  0  0  0  0  0  0  0
   15.9402    6.3931   24.4811 C   0  0  0  0  0  0  0  0  0  0  0  0
   15.0633    3.6267   26.7444 C   0  0  2  0  0  0  0  0  0  0  0  0
   16.0128    5.2242   25.3949 C   0  0  1  0  0  0  0  0  0  0  0  0
   14.6328    4.8612   25.9123 C   0  0  1  0  0  0  0  0  0  0  0  0
   10.4537   -1.0410   27.3278 C   0  0  3  0  0  0  0  0  0  0  0  0
   18.1890    9.2001   19.5231 H   0  0  0  0  0  0  0  0  0  0  0  0
   16.0214    4.0596   18.7417 H   0  0  0  0  0  0  0  0  0  0  0  0
   11.1280   -3.3387   28.2714 H   0  0  0  0  0  0  0  0  0  0  0  0
   12.5743    4.0796   27.4265 H   0  0  0  0  0  0  0  0  0  0  0  0
   12.1095    2.6211   27.9951 H   0  0  0  0  0  0  0  0  0  0  0  0
   13.2340    3.4904   28.7992 H   0  0  0  0  0  0  0  0  0  0  0  0
   14.3897    5.3436   21.5047 H   0  0  0  0  0  0  0  0  0  0  0  0
   14.5322    4.4719   20.0148 H   0  0  0  0  0  0  0  0  0  0  0  0
   14.0040    3.6783   24.3171 H   0  0  0  0  0  0  0  0  0  0  0  0
   12.7651    4.3243   25.1622 H   0  0  0  0  0  0  0  0  0  0  0  0
   13.6247    5.2559   24.1326 H   0  0  0  0  0  0  0  0  0  0  0  0
   13.5065    7.2750   24.9615 H   0  0  0  0  0  0  0  0  0  0  0  0
   13.8505    8.1669   26.2854 H   0  0  0  0  0  0  0  0  0  0  0  0
   15.3285    1.0507   27.3568 H   0  0  0  0  0  0  0  0  0  0  0  0
   14.6019    1.5304   28.7382 H   0  0  0  0  0  0  0  0  0  0  0  0
   16.1846    7.9196   25.8926 H   0  0  0  0  0  0  0  0  0  0  0  0
   15.5104    8.4418   24.5000 H   0  0  0  0  0  0  0  0  0  0  0  0
   16.0774    8.3540   22.6516 H   0  0  0  0  0  0  0  0  0  0  0  0
   16.4031    5.3989   22.8020 H   0  0  0  0  0  0  0  0  0  0  0  0
   17.0065    2.8649   26.6654 H   0  0  0  0  0  0  0  0  0  0  0  0
   15.9833    2.1112   25.6400 H   0  0  0  0  0  0  0  0  0  0  0  0
   16.3297    3.6211   24.0285 H   0  0  0  0  0  0  0  0  0  0  0  0
   17.6766    4.0024   24.8695 H   0  0  0  0  0  0  0  0  0  0  0  0
   16.2660    7.2830   17.1529 H   0  0  0  0  0  0  0  0  0  0  0  0
   14.8716    7.3559   17.9997 H   0  0  0  0  0  0  0  0  0  0  0  0
   14.6569    8.7914   19.9651 H   0  0  0  0  0  0  0  0  0  0  0  0
   15.9828    9.4005   20.6984 H   0  0  0  0  0  0  0  0  0  0  0  0
    8.2053   -1.1089   24.9002 H   0  0  0  0  0  0  0  0  0  0  0  0
    7.0762   -0.2235   25.6797 H   0  0  0  0  0  0  0  0  0  0  0  0
    7.5966    1.5918   26.9852 H   0  0  0  0  0  0  0  0  0  0  0  0
    9.1327    2.0716   27.2626 H   0  0  0  0  0  0  0  0  0  0  0  0
    7.6192   -1.4205   28.9409 H   0  0  0  0  0  0  0  0  0  0  0  0
    6.6889   -0.4555   28.0082 H   0  0  0  0  0  0  0  0  0  0  0  0
   13.1464    5.9445   26.8577 H   0  0  0  0  0  0  0  0  0  0  0  0
   14.6432    6.2772   27.4195 H   0  0  0  0  0  0  0  0  0  0  0  0
   11.0061    0.6831   26.3710 H   0  0  0  0  0  0  0  0  0  0  0  0
   10.6791   -0.5508   25.3525 H   0  0  0  0  0  0  0  0  0  0  0  0
    9.7034   -2.6842   26.2830 H   0  0  0  0  0  0  0  0  0  0  0  0
    9.4511   -2.7815   27.8934 H   0  0  0  0  0  0  0  0  0  0  0  0
   10.0971   -0.7302   29.3598 H   0  0  0  0  0  0  0  0  0  0  0  0
   10.6746    0.5961   28.6021 H   0  0  0  0  0  0  0  0  0  0  0  0
   16.2201    9.3337   18.3070 H   0  0  0  0  0  0  0  0  0  0  0  0
   17.2431    5.9654   18.8811 H   0  0  0  0  0  0  0  0  0  0  0  0
   13.5683    2.3008   26.2132 H   0  0  0  0  0  0  0  0  0  0  0  0
   12.0519   -2.1432   26.5712 H   0  0  0  0  0  0  0  0  0  0  0  0
    9.0107    1.0880   25.1168 H   0  0  0  0  0  0  0  0  0  0  0  0
    7.4025   -2.3262   26.7527 H   0  0  0  0  0  0  0  0  0  0  0  0
    8.3553    0.8408   29.1411 H   0  0  0  0  0  0  0  0  0  0  0  0
   15.4080    3.9739   27.6165 H   0  0  0  0  0  0  0  0  0  0  0  0
   16.5360    5.5275   26.1913 H   0  0  0  0  0  0  0  0  0  0  0  0
  1 25  1  0  0  0  0
  2 26  1  0  0  0  0
  3 28  1  0  0  0  0
  4 27  1  0  0  0  0
  5 32  2  0  0  0  0
  6 37  1  0  0  0  0
  7  9  1  0  0  0  0
  7 10  3  0  0  0  0
  8 11  1  0  0  0  0
  8 21  1  0  0  0  0
  9 27  1  0  0  0  0
 10 28  1  0  0  0  0
 11 34  1  0  0  0  0
 12 13  1  0  0  0  0
 12 33  2  0  0  0  0
 13 34  2  0  0  0  0
 14 15  1  0  0  0  0
 14 35  1  0  0  0  0
 15 36  1  0  0  0  0
 16 25  1  0  0  0  0
 16 26  1  0  0  0  0
 17 25  1  0  0  0  0
 17 33  1  0  0  0  0
 18 29  1  0  0  0  0
 18 30  1  0  0  0  0
 19 29  1  0  0  0  0
 19 31  1  0  0  0  0
 20 30  1  0  0  0  0
 20 31  1  0  0  0  0
 21 37  1  0  0  0  0
 22 29  1  0  0  0  0
 22 38  1  0  0  0  0
 23 30  1  0  0  0  0
 23 38  1  0  0  0  0
 24 31  1  0  0  0  0
 24 38  1  0  0  0  0
 26 32  1  0  0  0  0
 27 35  1  0  0  0  0
 28 38  1  0  0  0  0
 32 33  1  0  0  0  0
 34 36  1  0  0  0  0
 35 37  1  0  0  0  0
 36 37  1  0  0  0  0
  1 39  1  0  0  0  0
  2 40  1  0  0  0  0
  3 41  1  0  0  0  0
  4 42  1  0  0  0  0
  4 43  1  0  0  0  0
  4 44  1  0  0  0  0
  5 45  1  0  0  0  0
  5 46  1  0  0  0  0
  6 47  1  0  0  0  0
  6 48  1  0  0  0  0
  6 49  1  0  0  0  0
  8 50  1  0  0  0  0
  8 51  1  0  0  0  0
  9 52  1  0  0  0  0
  9 53  1  0  0  0  0
 11 54  1  0  0  0  0
 11 55  1  0  0  0  0
 12 56  1  0  0  0  0
 13 57  1  0  0  0  0
 14 58  1  0  0  0  0
 14 59  1  0  0  0  0
 15 60  1  0  0  0  0
 15 61  1  0  0  0  0
 16 62  1  0  0  0  0
 16 63  1  0  0  0  0
 17 64  1  0  0  0  0
 17 65  1  0  0  0  0
 18 66  1  0  0  0  0
 18 67  1  0  0  0  0
 19 68  1  0  0  0  0
 19 69  1  0  0  0  0
 20 70  1  0  0  0  0
 20 71  1  0  0  0  0
 21 72  1  0  0  0  0
 21 73  1  0  0  0  0
 22 74  1  0  0  0  0
 22 75  1  0  0  0  0
 23 76  1  0  0  0  0
 23 77  1  0  0  0  0
 24 78  1  0  0  0  0
 24 79  1  0  0  0  0
 25 80  1  0  0  0  0
 26 81  1  0  0  0  0
 27 82  1  0  0  0  0
 28 83  1  0  0  0  0
 29 84  1  0  0  0  0
 30 85  1  0  0  0  0
 31 86  1  0  0  0  0
 35 87  1  0  0  0  0
 36 88  1  0  0  0  0
M  END
> <pdb_id>
5XZF

> <uniprot_id>
P13053

> <usmiles>
O[C@@H]1C\C(\C(=C)[C@@H](O)C1)=C\C=C/2\[C@H]3[C@@]([C@@H]([C@@H](CC#C[C@@H](O)C45CC6CC(C4)CC(C5)C6)C)CC3)(CCC2)C

$$$$
8JF_A_201
          07192416543D 1   1.00000     0.00000     0
            
 39 41  0  0  0  0            999 V2000
   15.1001   17.7357    6.6136 O   0  0  0  0  0  0  0  0  0  0  0  0
   18.5090   21.9618    3.1743 N   0  0  0  0  0  0  0  0  0  0  0  0
   17.1172   18.8784    6.4721 N   0  0  0  0  0  0  0  0  0  0  0  0
   15.4516   20.2299    5.3406 N   0  0  0  0  0  0  0  0  0  0  0  0
   16.9161   16.9987    7.9777 C   0  0  0  0  0  0  0  0  0  0  0  0
   10.5554   21.4900    2.1705 C   0  0  0  0  0  0  0  0  0  0  0  0
   13.3313   20.5497    2.0106 C   0  0  0  0  0  0  0  0  0  0  0  0
   18.2254   22.9091    2.2587 C   0  0  0  0  0  0  0  0  0  0  0  0
   16.9637   23.3695    1.9724 C   0  0  0  0  0  0  0  0  0  0  0  0
   11.8921   22.7155    5.4890 C   0  0  0  0  0  0  0  0  0  0  0  0
   11.0450   22.4494    4.4227 C   0  0  0  0  0  0  0  0  0  0  0  0
   15.9193   22.8052    2.6901 C   0  0  0  0  0  0  0  0  0  0  0  0
   13.2165   22.2798    5.4315 C   0  0  0  0  0  0  0  0  0  0  0  0
   17.7861   20.4412    4.8097 C   0  0  0  0  0  0  0  0  0  0  0  0
   16.2656   17.8961    6.9600 C   0  0  0  0  0  0  0  0  0  0  0  0
   16.7497   19.8640    5.5255 C   0  0  0  0  0  0  0  0  0  0  0  0
   17.5046   21.4126    3.8682 C   0  0  0  0  0  0  0  0  0  0  0  0
   15.1571   21.1872    4.4250 C   0  0  0  0  0  0  0  0  0  0  0  0
   11.5164   21.7476    3.2970 C   0  0  0  0  0  0  0  0  0  0  0  0
   12.8598   21.3029    3.2326 C   0  0  0  0  0  0  0  0  0  0  0  0
   16.1667   21.8067    3.6614 C   0  0  0  0  0  0  0  0  0  0  0  0
   13.7259   21.5599    4.3268 C   0  0  0  0  0  0  0  0  0  0  0  0
   18.0569   18.8902    6.8139 H   0  0  0  0  0  0  0  0  0  0  0  0
   17.8614   17.2905    8.1237 H   0  0  0  0  0  0  0  0  0  0  0  0
   16.4133   17.0537    8.8404 H   0  0  0  0  0  0  0  0  0  0  0  0
   16.9058   16.0556    7.6455 H   0  0  0  0  0  0  0  0  0  0  0  0
   11.0217   20.9864    1.4432 H   0  0  0  0  0  0  0  0  0  0  0  0
    9.7836   20.9507    2.5075 H   0  0  0  0  0  0  0  0  0  0  0  0
   10.2215   22.3615    1.8113 H   0  0  0  0  0  0  0  0  0  0  0  0
   14.2955   20.3078    2.1196 H   0  0  0  0  0  0  0  0  0  0  0  0
   12.7888   19.7166    1.9026 H   0  0  0  0  0  0  0  0  0  0  0  0
   13.2217   21.1261    1.2008 H   0  0  0  0  0  0  0  0  0  0  0  0
   18.9898   23.3058    1.7505 H   0  0  0  0  0  0  0  0  0  0  0  0
   16.8059   24.0753    1.2818 H   0  0  0  0  0  0  0  0  0  0  0  0
   11.5575   23.2135    6.2890 H   0  0  0  0  0  0  0  0  0  0  0  0
   10.0943   22.7579    4.4540 H   0  0  0  0  0  0  0  0  0  0  0  0
   14.9815   23.1075    2.5192 H   0  0  0  0  0  0  0  0  0  0  0  0
   13.8259   22.4838    6.1977 H   0  0  0  0  0  0  0  0  0  0  0  0
   18.7308   20.1569    4.9733 H   0  0  0  0  0  0  0  0  0  0  0  0
  1 15  2  0  0  0  0
  2  8  2  0  0  0  0
  2 17  1  0  0  0  0
  3 15  1  0  0  0  0
  3 16  1  0  0  0  0
  4 16  2  0  0  0  0
  4 18  1  0  0  0  0
  5 15  1  0  0  0  0
  6 19  1  0  0  0  0
  7 20  1  0  0  0  0
  8  9  1  0  0  0  0
  9 12  2  0  0  0  0
 10 11  1  0  0  0  0
 10 13  2  0  0  0  0
 11 19  2  0  0  0  0
 12 21  1  0  0  0  0
 13 22  1  0  0  0  0
 14 16  1  0  0  0  0
 14 17  2  0  0  0  0
 17 21  1  0  0  0  0
 18 21  2  0  0  0  0
 18 22  1  0  0  0  0
 19 20  1  0  0  0  0
 20 22  2  0  0  0  0
  3 23  1  0  0  0  0
  5 24  1  0  0  0  0
  5 25  1  0  0  0  0
  5 26  1  0  0  0  0
  6 27  1  0  0  0  0
  6 28  1  0  0  0  0
  6 29  1  0  0  0  0
  7 30  1  0  0  0  0
  7 31  1  0  0  0  0
  7 32  1  0  0  0  0
  8 33  1  0  0  0  0
  9 34  1  0  0  0  0
 10 35  1  0  0  0  0
 11 36  1  0  0  0  0
 12 37  1  0  0  0  0
 13 38  1  0  0  0  0
 14 39  1  0  0  0  0
M  END
> <pdb_id>
6US3

> <uniprot_id>
P36639

> <usmiles>
O=C(Nc1nc(c2c(nccc2)c1)c3c(c(ccc3)C)C)C

$$$$
8JL_A_200
          07202409203D 1   1.00000     0.00000     0
            
 40 42  0  0  0  0            999 V2000
    6.0808   10.0264   19.4840 S   0  0  0  0  0  0  0  0  0  0  0  0
    9.8411    8.0213   19.4331 F   0  0  0  0  0  0  0  0  0  0  0  0
    6.2265   10.9515   20.5618 O   0  0  0  0  0  0  0  0  0  0  0  0
    5.5513   10.5590   18.2592 O   0  0  0  0  0  0  0  0  0  0  0  0
    5.3770    7.2422   15.0226 O   0  0  0  0  0  0  0  0  0  0  0  0
    6.3371    5.2524   15.0205 O   0  0  0  0  0  0  0  0  0  0  0  0
    2.7103    5.3500   20.8118 O   0  0  0  0  0  0  0  0  0  0  0  0
    7.5748    9.4565   19.1596 N   0  0  0  0  0  0  0  0  0  0  0  0
    2.0632    4.6979   19.7137 C   0  0  0  0  0  0  0  0  0  0  0  0
    6.3327    7.6908   23.3351 C   0  0  0  0  0  0  0  0  0  0  0  0
    5.4894    6.6021   23.6170 C   0  0  0  0  0  0  0  0  0  0  0  0
    4.1602    8.2187   19.0382 C   0  0  0  0  0  0  0  0  0  0  0  0
    9.2986    6.5538   17.6697 C   0  0  0  0  0  0  0  0  0  0  0  0
    3.3519    7.1119   19.3124 C   0  0  0  0  0  0  0  0  0  0  0  0
    6.2038    8.3657   22.1589 C   0  0  0  0  0  0  0  0  0  0  0  0
    4.5613    6.1581   22.7152 C   0  0  0  0  0  0  0  0  0  0  0  0
    8.4198    6.1906   16.6631 C   0  0  0  0  0  0  0  0  0  0  0  0
    6.9419    7.9900   17.2479 C   0  0  0  0  0  0  0  0  0  0  0  0
    6.2749    6.4431   15.3881 C   0  0  0  0  0  0  0  0  0  0  0  0
    5.0732    8.6430   19.9661 C   0  0  0  0  0  0  0  0  0  0  0  0
    8.9852    7.6414   18.4488 C   0  0  0  0  0  0  0  0  0  0  0  0
    3.4527    6.4512   20.5033 C   0  0  0  0  0  0  0  0  0  0  0  0
    7.8387    8.3862   18.2501 C   0  0  0  0  0  0  0  0  0  0  0  0
    7.2384    6.8853   16.4590 C   0  0  0  0  0  0  0  0  0  0  0  0
    5.2368    7.9621   21.2105 C   0  0  0  0  0  0  0  0  0  0  0  0
    4.4106    6.8332   21.4850 C   0  0  0  0  0  0  0  0  0  0  0  0
    5.3827    8.1859   15.3533 H   0  0  0  0  0  0  0  0  0  0  0  0
    8.3517    9.8812   19.6246 H   0  0  0  0  0  0  0  0  0  0  0  0
    1.5498    3.9086   20.0503 H   0  0  0  0  0  0  0  0  0  0  0  0
    1.4368    5.3377   19.2683 H   0  0  0  0  0  0  0  0  0  0  0  0
    2.7510    4.3921   19.0554 H   0  0  0  0  0  0  0  0  0  0  0  0
    7.0273    7.9699   23.9981 H   0  0  0  0  0  0  0  0  0  0  0  0
    5.5700    6.1398   24.5000 H   0  0  0  0  0  0  0  0  0  0  0  0
    4.0718    8.6998   18.1659 H   0  0  0  0  0  0  0  0  0  0  0  0
   10.1406    6.0373   17.8258 H   0  0  0  0  0  0  0  0  0  0  0  0
    2.6921    6.8002   18.6286 H   0  0  0  0  0  0  0  0  0  0  0  0
    6.7950    9.1488   21.9659 H   0  0  0  0  0  0  0  0  0  0  0  0
    3.9943    5.3618   22.9260 H   0  0  0  0  0  0  0  0  0  0  0  0
    8.6414    5.4139   16.0736 H   0  0  0  0  0  0  0  0  0  0  0  0
    6.0939    8.4994   17.1017 H   0  0  0  0  0  0  0  0  0  0  0  0
  1  3  2  0  0  0  0
  1  4  2  0  0  0  0
  1  8  1  0  0  0  0
  1 20  1  0  0  0  0
  2 21  1  0  0  0  0
  5 19  1  0  0  0  0
  6 19  2  0  0  0  0
  7  9  1  0  0  0  0
  7 22  1  0  0  0  0
  8 23  1  0  0  0  0
 10 11  2  0  0  0  0
 10 15  1  0  0  0  0
 11 16  1  0  0  0  0
 12 14  1  0  0  0  0
 12 20  2  0  0  0  0
 13 17  1  0  0  0  0
 13 21  2  0  0  0  0
 14 22  2  0  0  0  0
 15 25  2  0  0  0  0
 16 26  2  0  0  0  0
 17 24  2  0  0  0  0
 18 23  2  0  0  0  0
 18 24  1  0  0  0  0
 19 24  1  0  0  0  0
 20 25  1  0  0  0  0
 21 23  1  0  0  0  0
 22 26  1  0  0  0  0
 25 26  1  0  0  0  0
  5 27  1  0  0  0  0
  8 28  1  0  0  0  0
  9 29  1  0  0  0  0
  9 30  1  0  0  0  0
  9 31  1  0  0  0  0
 10 32  1  0  0  0  0
 11 33  1  0  0  0  0
 12 34  1  0  0  0  0
 13 35  1  0  0  0  0
 14 36  1  0  0  0  0
 15 37  1  0  0  0  0
 16 38  1  0  0  0  0
 17 39  1  0  0  0  0
 18 40  1  0  0  0  0
M  END
> <pdb_id>
5Y0G

> <uniprot_id>
P15090

> <usmiles>
S(=O)(=O)(Nc1c(F)ccc(c1)C(=O)O)c2c3c(c(OC)cc2)cccc3

$$$$
8JO_A_200
          07202409203D 1   1.00000     0.00000     0
            
 40 42  0  0  0  0            999 V2000
    6.0827   10.0108   19.4479 S   0  0  0  0  0  0  0  0  0  0  0  0
    8.6932    5.1584   15.8011 F   0  0  0  0  0  0  0  0  0  0  0  0
    6.2267   10.9181   20.5481 O   0  0  0  0  0  0  0  0  0  0  0  0
    5.5668   10.5381   18.2215 O   0  0  0  0  0  0  0  0  0  0  0  0
    6.0727    5.1666   15.2031 O   0  0  0  0  0  0  0  0  0  0  0  0
    5.4233    7.2488   14.9189 O   0  0  0  0  0  0  0  0  0  0  0  0
    2.6863    5.3478   20.7746 O   0  0  0  0  0  0  0  0  0  0  0  0
    7.5661    9.4068   19.1355 N   0  0  0  0  0  0  0  0  0  0  0  0
    1.8893    4.7764   19.7348 C   0  0  0  0  0  0  0  0  0  0  0  0
    6.3247    7.6405   23.3014 C   0  0  0  0  0  0  0  0  0  0  0  0
    5.4903    6.5415   23.5666 C   0  0  0  0  0  0  0  0  0  0  0  0
    4.1512    8.2194   18.9940 C   0  0  0  0  0  0  0  0  0  0  0  0
    9.3316    6.5828   17.5368 C   0  0  0  0  0  0  0  0  0  0  0  0
    3.3299    7.1176   19.2632 C   0  0  0  0  0  0  0  0  0  0  0  0
    6.2057    8.3286   22.1303 C   0  0  0  0  0  0  0  0  0  0  0  0
    4.5520    6.1329   22.6597 C   0  0  0  0  0  0  0  0  0  0  0  0
    9.0472    7.6516   18.3721 C   0  0  0  0  0  0  0  0  0  0  0  0
    6.9043    7.9212   17.3004 C   0  0  0  0  0  0  0  0  0  0  0  0
    6.1489    6.3879   15.4486 C   0  0  0  0  0  0  0  0  0  0  0  0
    5.0765    8.6292   19.9178 C   0  0  0  0  0  0  0  0  0  0  0  0
    8.3921    6.2058   16.6055 C   0  0  0  0  0  0  0  0  0  0  0  0
    3.4398    6.4416   20.4502 C   0  0  0  0  0  0  0  0  0  0  0  0
    7.8456    8.3274   18.2504 C   0  0  0  0  0  0  0  0  0  0  0  0
    7.1728    6.8383   16.4642 C   0  0  0  0  0  0  0  0  0  0  0  0
    5.2454    7.9401   21.1611 C   0  0  0  0  0  0  0  0  0  0  0  0
    4.4051    6.8212   21.4315 C   0  0  0  0  0  0  0  0  0  0  0  0
    6.6861    4.5248   15.6633 H   0  0  0  0  0  0  0  0  0  0  0  0
    8.3420    9.8293   19.6040 H   0  0  0  0  0  0  0  0  0  0  0  0
    1.3884    3.9887   20.0935 H   0  0  0  0  0  0  0  0  0  0  0  0
    1.2405    5.4592   19.3988 H   0  0  0  0  0  0  0  0  0  0  0  0
    2.4813    4.4816   18.9848 H   0  0  0  0  0  0  0  0  0  0  0  0
    7.0092    7.9193   23.9750 H   0  0  0  0  0  0  0  0  0  0  0  0
    5.5842    6.0503   24.4326 H   0  0  0  0  0  0  0  0  0  0  0  0
    4.0623    8.7080   18.1260 H   0  0  0  0  0  0  0  0  0  0  0  0
   10.2018    6.0957   17.6097 H   0  0  0  0  0  0  0  0  0  0  0  0
    2.6581    6.8219   18.5842 H   0  0  0  0  0  0  0  0  0  0  0  0
    6.7999    9.1132   21.9533 H   0  0  0  0  0  0  0  0  0  0  0  0
    3.9688    5.3467   22.8644 H   0  0  0  0  0  0  0  0  0  0  0  0
    9.7114    7.9350   19.0639 H   0  0  0  0  0  0  0  0  0  0  0  0
    6.0351    8.4091   17.2201 H   0  0  0  0  0  0  0  0  0  0  0  0
  1  3  2  0  0  0  0
  1  4  2  0  0  0  0
  1  8  1  0  0  0  0
  1 20  1  0  0  0  0
  2 21  1  0  0  0  0
  5 19  1  0  0  0  0
  6 19  2  0  0  0  0
  7  9  1  0  0  0  0
  7 22  1  0  0  0  0
  8 23  1  0  0  0  0
 10 11  2  0  0  0  0
 10 15  1  0  0  0  0
 11 16  1  0  0  0  0
 12 14  1  0  0  0  0
 12 20  2  0  0  0  0
 13 17  1  0  0  0  0
 13 21  2  0  0  0  0
 14 22  2  0  0  0  0
 15 25  2  0  0  0  0
 16 26  2  0  0  0  0
 17 23  2  0  0  0  0
 18 23  1  0  0  0  0
 18 24  2  0  0  0  0
 19 24  1  0  0  0  0
 20 25  1  0  0  0  0
 21 24  1  0  0  0  0
 22 26  1  0  0  0  0
 25 26  1  0  0  0  0
  5 27  1  0  0  0  0
  8 28  1  0  0  0  0
  9 29  1  0  0  0  0
  9 30  1  0  0  0  0
  9 31  1  0  0  0  0
 10 32  1  0  0  0  0
 11 33  1  0  0  0  0
 12 34  1  0  0  0  0
 13 35  1  0  0  0  0
 14 36  1  0  0  0  0
 15 37  1  0  0  0  0
 16 38  1  0  0  0  0
 17 39  1  0  0  0  0
 18 40  1  0  0  0  0
M  END
> <pdb_id>
5Y0F

> <uniprot_id>
P15090

> <usmiles>
S(=O)(=O)(Nc1cc(c(F)cc1)C(=O)O)c2c3c(c(OC)cc2)cccc3

$$$$
8JS_A_303
          07192416293D 1   1.00000     0.00000     0
            
 33 34  0  0  0  0            999 V2000
   -5.7964    6.1057   12.3357 S   0  0  0  0  0  0  0  0  0  0  0  0
   -5.9175    0.9417   16.9228 S   0  0  0  0  0  0  0  0  0  0  0  0
    0.7873   10.1198   15.1295 F   0  0  0  0  0  0  0  0  0  0  0  0
   -5.3441    1.0896   18.2468 O   0  0  0  0  0  0  0  0  0  0  0  0
   -7.3759    1.0220   16.8004 O   0  0  0  0  0  0  0  0  0  0  0  0
   -5.3545   -0.3968   16.2296 N   0  0  0  0  0  0  0  0  0  0  0  0
   -3.7238    5.5102   13.8549 N   0  0  0  0  0  0  0  0  0  0  0  0
   -3.4539    7.3920   12.5691 N   0  0  0  0  0  0  0  0  0  0  0  0
   -3.9636    2.3275   15.5634 C   0  0  0  0  0  0  0  0  0  0  0  0
   -6.1306    3.3636   15.6773 C   0  0  0  0  0  0  0  0  0  0  0  0
   -0.3885    9.3967   13.1424 C   0  0  0  0  0  0  0  0  0  0  0  0
   -1.2160    8.7588   15.2529 C   0  0  0  0  0  0  0  0  0  0  0  0
   -3.4685    3.4207   14.8549 C   0  0  0  0  0  0  0  0  0  0  0  0
   -5.6404    4.4417   14.9988 C   0  0  0  0  0  0  0  0  0  0  0  0
   -1.4354    8.7227   12.5326 C   0  0  0  0  0  0  0  0  0  0  0  0
   -2.2567    8.0507   14.6569 C   0  0  0  0  0  0  0  0  0  0  0  0
   -4.2870    6.3282   12.9755 C   0  0  0  0  0  0  0  0  0  0  0  0
   -5.3006    2.2859   15.9715 C   0  0  0  0  0  0  0  0  0  0  0  0
   -0.2585    9.4308   14.5166 C   0  0  0  0  0  0  0  0  0  0  0  0
   -4.3363    4.4602   14.5645 C   0  0  0  0  0  0  0  0  0  0  0  0
   -2.3859    8.0367   13.2738 C   0  0  0  0  0  0  0  0  0  0  0  0
   -5.7534   -0.4929   15.3176 H   0  0  0  0  0  0  0  0  0  0  0  0
   -4.3590   -0.3394   16.1537 H   0  0  0  0  0  0  0  0  0  0  0  0
   -2.7510    5.6565   14.0345 H   0  0  0  0  0  0  0  0  0  0  0  0
   -3.6358    7.7490   11.6529 H   0  0  0  0  0  0  0  0  0  0  0  0
   -3.3560    1.5641   15.7824 H   0  0  0  0  0  0  0  0  0  0  0  0
   -7.0886    3.3481   15.9638 H   0  0  0  0  0  0  0  0  0  0  0  0
    0.2866    9.8681   12.5750 H   0  0  0  0  0  0  0  0  0  0  0  0
   -1.1594    8.7819   16.2510 H   0  0  0  0  0  0  0  0  0  0  0  0
   -2.5123    3.4537   14.5641 H   0  0  0  0  0  0  0  0  0  0  0  0
   -6.2350    5.2247   14.8160 H   0  0  0  0  0  0  0  0  0  0  0  0
   -1.5068    8.7313   11.5352 H   0  0  0  0  0  0  0  0  0  0  0  0
   -2.9114    7.5521   15.2250 H   0  0  0  0  0  0  0  0  0  0  0  0
  1 17  2  0  0  0  0
  2  4  2  0  0  0  0
  2  5  2  0  0  0  0
  2  6  1  0  0  0  0
  2 18  1  0  0  0  0
  3 19  1  0  0  0  0
  7 17  1  0  0  0  0
  7 20  1  0  0  0  0
  8 17  1  0  0  0  0
  8 21  1  0  0  0  0
  9 13  1  0  0  0  0
  9 18  2  0  0  0  0
 10 14  2  0  0  0  0
 10 18  1  0  0  0  0
 11 15  1  0  0  0  0
 11 19  2  0  0  0  0
 12 16  2  0  0  0  0
 12 19  1  0  0  0  0
 13 20  2  0  0  0  0
 14 20  1  0  0  0  0
 15 21  2  0  0  0  0
 16 21  1  0  0  0  0
  6 22  1  0  0  0  0
  6 23  1  0  0  0  0
  7 24  1  0  0  0  0
  8 25  1  0  0  0  0
  9 26  1  0  0  0  0
 10 27  1  0  0  0  0
 11 28  1  0  0  0  0
 12 29  1  0  0  0  0
 13 30  1  0  0  0  0
 14 31  1  0  0  0  0
 15 32  1  0  0  0  0
 16 33  1  0  0  0  0
M  END
> <pdb_id>
5ULN

> <uniprot_id>
P00918

> <usmiles>
S(=O)(=O)(N)c1ccc(NC(=S)Nc2ccc(F)cc2)cc1

$$$$
8JX_A_201
          07202409203D 1   1.00000     0.00000     0
            
 42 43  0  0  0  0            999 V2000
    6.0997   10.0322   19.7335 S   0  0  0  0  0  0  0  0  0  0  0  0
    5.5923   10.5933   18.4587 O   0  0  0  0  0  0  0  0  0  0  0  0
    6.0046   11.0179   20.8196 O   0  0  0  0  0  0  0  0  0  0  0  0
    5.9372    4.8060   15.1234 O   0  0  0  0  0  0  0  0  0  0  0  0
    5.6296    6.9456   14.8284 O   0  0  0  0  0  0  0  0  0  0  0  0
    2.7083    5.2051   20.7170 O   0  0  0  0  0  0  0  0  0  0  0  0
    7.6473    9.5860   19.6191 N   0  0  0  0  0  0  0  0  0  0  0  0
    2.0802    4.6052   19.6585 C   0  0  0  0  0  0  0  0  0  0  0  0
    7.8144    8.3664   18.6938 C   0  0  0  0  0  0  0  0  0  0  0  0
    7.7879    8.6813   17.2341 C   0  0  0  0  0  0  0  0  0  0  0  0
    8.0127    7.5420   16.2751 C   0  0  0  0  0  0  0  0  0  0  0  0
    6.0401    7.7083   23.5784 C   0  0  0  0  0  0  0  0  0  0  0  0
    5.2113    6.5531   23.7871 C   0  0  0  0  0  0  0  0  0  0  0  0
    7.1967    6.2878   16.4812 C   0  0  0  0  0  0  0  0  0  0  0  0
    4.2459    8.0799   19.0931 C   0  0  0  0  0  0  0  0  0  0  0  0
    6.0072    8.3533   22.3904 C   0  0  0  0  0  0  0  0  0  0  0  0
    4.3936    6.1039   22.7669 C   0  0  0  0  0  0  0  0  0  0  0  0
    3.4598    6.9659   19.2970 C   0  0  0  0  0  0  0  0  0  0  0  0
    6.2053    5.9932   15.4195 C   0  0  0  0  0  0  0  0  0  0  0  0
    5.0855    8.5432   20.1095 C   0  0  0  0  0  0  0  0  0  0  0  0
    3.5024    6.3271   20.5041 C   0  0  0  0  0  0  0  0  0  0  0  0
    5.1460    7.8906   21.3328 C   0  0  0  0  0  0  0  0  0  0  0  0
    4.3549    6.7876   21.5376 C   0  0  0  0  0  0  0  0  0  0  0  0
    6.3986    4.0560   15.5973 H   0  0  0  0  0  0  0  0  0  0  0  0
    7.9865    9.3519   20.5302 H   0  0  0  0  0  0  0  0  0  0  0  0
    1.5547    3.8193   19.9846 H   0  0  0  0  0  0  0  0  0  0  0  0
    1.4637    5.2604   19.2218 H   0  0  0  0  0  0  0  0  0  0  0  0
    2.7634    4.2977   18.9962 H   0  0  0  0  0  0  0  0  0  0  0  0
    7.0723    7.7247   18.8874 H   0  0  0  0  0  0  0  0  0  0  0  0
    8.6916    7.9345   18.9032 H   0  0  0  0  0  0  0  0  0  0  0  0
    8.4985    9.3634   17.0615 H   0  0  0  0  0  0  0  0  0  0  0  0
    6.8917    9.0742   17.0283 H   0  0  0  0  0  0  0  0  0  0  0  0
    8.9773    7.2853   16.3352 H   0  0  0  0  0  0  0  0  0  0  0  0
    7.8147    7.8808   15.3553 H   0  0  0  0  0  0  0  0  0  0  0  0
    6.6393    8.0343   24.3096 H   0  0  0  0  0  0  0  0  0  0  0  0
    5.2260    6.0763   24.6660 H   0  0  0  0  0  0  0  0  0  0  0  0
    6.7041    6.3789   17.3467 H   0  0  0  0  0  0  0  0  0  0  0  0
    7.8282    5.5144   16.5369 H   0  0  0  0  0  0  0  0  0  0  0  0
    4.2151    8.5578   18.2153 H   0  0  0  0  0  0  0  0  0  0  0  0
    6.5846    9.1567   22.2452 H   0  0  0  0  0  0  0  0  0  0  0  0
    3.8279    5.2906   22.9029 H   0  0  0  0  0  0  0  0  0  0  0  0
    2.8639    6.6285   18.5683 H   0  0  0  0  0  0  0  0  0  0  0  0
  1  2  2  0  0  0  0
  1  3  2  0  0  0  0
  1  7  1  0  0  0  0
  1 20  1  0  0  0  0
  4 19  1  0  0  0  0
  5 19  2  0  0  0  0
  6  8  1  0  0  0  0
  6 21  1  0  0  0  0
  7  9  1  0  0  0  0
  9 10  1  0  0  0  0
 10 11  1  0  0  0  0
 11 14  1  0  0  0  0
 12 13  2  0  0  0  0
 12 16  1  0  0  0  0
 13 17  1  0  0  0  0
 14 19  1  0  0  0  0
 15 18  1  0  0  0  0
 15 20  2  0  0  0  0
 16 22  2  0  0  0  0
 17 23  2  0  0  0  0
 18 21  2  0  0  0  0
 20 22  1  0  0  0  0
 21 23  1  0  0  0  0
 22 23  1  0  0  0  0
  4 24  1  0  0  0  0
  7 25  1  0  0  0  0
  8 26  1  0  0  0  0
  8 27  1  0  0  0  0
  8 28  1  0  0  0  0
  9 29  1  0  0  0  0
  9 30  1  0  0  0  0
 10 31  1  0  0  0  0
 10 32  1  0  0  0  0
 11 33  1  0  0  0  0
 11 34  1  0  0  0  0
 12 35  1  0  0  0  0
 13 36  1  0  0  0  0
 14 37  1  0  0  0  0
 14 38  1  0  0  0  0
 15 39  1  0  0  0  0
 16 40  1  0  0  0  0
 17 41  1  0  0  0  0
 18 42  1  0  0  0  0
M  END
> <pdb_id>
5Y12

> <uniprot_id>
P15090

> <usmiles>
S(=O)(=O)(NCCCCC(=O)O)c1c2c(c(OC)cc1)cccc2

$$$$
8K7_D_302
          07202412553D 1   1.00000     0.00000     0
            
 55 59  0  0  0  0            999 V2000
   56.5947   21.3690   38.0495 F   0  0  0  0  0  0  0  0  0  0  0  0
   51.4814   22.1965   42.3894 O   0  0  0  0  0  0  0  0  0  0  0  0
   52.5962   18.2906   38.9682 O   0  0  0  0  0  0  0  0  0  0  0  0
   49.8774   27.7203   41.6790 O   0  0  0  0  0  0  0  0  0  0  0  0
   51.9880   21.0548   40.5041 N   0  0  0  0  0  0  0  0  0  0  0  0
   48.6145   27.0608   41.8796 C   0  0  0  0  0  0  0  0  0  0  0  0
   55.4261   22.1100   39.9533 C   0  0  0  0  0  0  0  0  0  0  0  0
   54.7934   22.8299   37.7470 C   0  0  0  0  0  0  0  0  0  0  0  0
   54.4454   22.9283   40.4936 C   0  0  0  0  0  0  0  0  0  0  0  0
   53.8005   23.6203   38.3023 C   0  0  0  0  0  0  0  0  0  0  0  0
   52.0421   20.6806   39.0876 C   0  0  0  0  0  0  0  0  0  0  0  0
   52.6339   19.8263   40.9726 C   0  0  0  0  0  0  0  0  0  0  0  0
   53.8421   26.2109   41.4139 C   0  0  0  0  0  0  0  0  0  0  0  0
   53.0297   26.6279   39.0912 C   0  0  0  0  0  0  0  0  0  0  0  0
   51.2461   23.3994   40.3650 C   0  0  0  0  0  0  0  0  0  0  0  0
   52.1353   28.0052   40.9850 C   0  0  0  0  0  0  0  0  0  0  0  0
   51.4842   25.9113   42.1832 C   0  0  0  0  0  0  0  0  0  0  0  0
   50.6726   26.3295   39.8606 C   0  0  0  0  0  0  0  0  0  0  0  0
   51.5932   22.1697   41.1686 C   0  0  0  0  0  0  0  0  0  0  0  0
   55.5789   22.0942   38.5863 C   0  0  0  0  0  0  0  0  0  0  0  0
   53.6022   23.6867   39.6798 C   0  0  0  0  0  0  0  0  0  0  0  0
   53.0509   19.5424   39.4859 C   0  0  3  0  0  0  0  0  0  0  0  0
   53.3866   27.2875   40.4248 C   0  0  3  0  0  0  0  0  0  0  0  0
   52.7145   25.1887   41.6085 C   0  0  1  0  0  0  0  0  0  0  0  0
   51.9093   25.6019   39.3161 C   0  0  2  0  0  0  0  0  0  0  0  0
   51.0241   26.9775   41.1926 C   0  0  3  0  0  0  0  0  0  0  0  0
   52.3880   24.4632   40.2679 C   0  0  3  0  0  0  0  0  0  0  0  0
   53.0156   17.5957   39.5395 H   0  0  0  0  0  0  0  0  0  0  0  0
   48.0050   27.4989   42.6680 H   0  0  0  0  0  0  0  0  0  0  0  0
   48.6892   25.9883   42.0494 H   0  0  0  0  0  0  0  0  0  0  0  0
   48.1120   27.2145   40.9262 H   0  0  0  0  0  0  0  0  0  0  0  0
   56.0587   21.5027   40.6005 H   0  0  0  0  0  0  0  0  0  0  0  0
   54.9415   22.8095   36.6689 H   0  0  0  0  0  0  0  0  0  0  0  0
   54.3602   22.9465   41.5792 H   0  0  0  0  0  0  0  0  0  0  0  0
   53.1633   24.1486   37.5993 H   0  0  0  0  0  0  0  0  0  0  0  0
   52.4149   21.4246   38.3866 H   0  0  0  0  0  0  0  0  0  0  0  0
   51.0841   20.3525   38.6943 H   0  0  0  0  0  0  0  0  0  0  0  0
   51.9610   19.1001   41.4261 H   0  0  0  0  0  0  0  0  0  0  0  0
   53.4621   19.9617   41.6670 H   0  0  0  0  0  0  0  0  0  0  0  0
   54.1217   26.6561   42.3677 H   0  0  0  0  0  0  0  0  0  0  0  0
   54.7561   25.7473   41.0495 H   0  0  0  0  0  0  0  0  0  0  0  0
   53.9227   26.2249   38.6171 H   0  0  0  0  0  0  0  0  0  0  0  0
   52.6808   27.3749   38.3822 H   0  0  0  0  0  0  0  0  0  0  0  0
   50.9294   23.1665   39.3499 H   0  0  0  0  0  0  0  0  0  0  0  0
   50.3421   23.7878   40.8281 H   0  0  0  0  0  0  0  0  0  0  0  0
   51.8082   28.7880   40.3027 H   0  0  0  0  0  0  0  0  0  0  0  0
   52.3787   28.5339   41.9028 H   0  0  0  0  0  0  0  0  0  0  0  0
   50.6972   25.2188   42.4755 H   0  0  0  0  0  0  0  0  0  0  0  0
   51.7805   26.3723   43.1246 H   0  0  0  0  0  0  0  0  0  0  0  0
   50.4115   27.1325   39.1752 H   0  0  0  0  0  0  0  0  0  0  0  0
   49.7776   25.7103   39.8909 H   0  0  0  0  0  0  0  0  0  0  0  0
   54.0978   19.7097   39.2400 H   0  0  0  0  0  0  0  0  0  0  0  0
   54.1834   28.0145   40.2755 H   0  0  0  0  0  0  0  0  0  0  0  0
   53.0374   24.4708   42.3598 H   0  0  0  0  0  0  0  0  0  0  0  0
   51.5959   25.2000   38.3552 H   0  0  0  0  0  0  0  0  0  0  0  0
  1 20  1  0  0  0  0
  2 19  2  0  0  0  0
  3 22  1  0  0  0  0
  3 28  1  0  0  0  0
  4  6  1  0  0  0  0
  4 26  1  0  0  0  0
  5 11  1  0  0  0  0
  5 12  1  0  0  0  0
  5 19  1  0  0  0  0
  6 29  1  0  0  0  0
  6 30  1  0  0  0  0
  6 31  1  0  0  0  0
  7  9  2  0  0  0  0
  7 20  1  0  0  0  0
  7 32  1  0  0  0  0
  8 10  1  0  0  0  0
  8 20  2  0  0  0  0
  8 33  1  0  0  0  0
  9 21  1  0  0  0  0
  9 34  1  0  0  0  0
 10 21  2  0  0  0  0
 10 35  1  0  0  0  0
 11 22  1  0  0  0  0
 11 36  1  0  0  0  0
 11 37  1  0  0  0  0
 12 22  1  0  0  0  0
 12 38  1  0  0  0  0
 12 39  1  0  0  0  0
 13 23  1  0  0  0  0
 13 24  1  0  0  0  0
 13 40  1  0  0  0  0
 13 41  1  0  0  0  0
 14 23  1  0  0  0  0
 14 25  1  0  0  0  0
 14 42  1  0  0  0  0
 14 43  1  0  0  0  0
 15 19  1  0  0  0  0
 15 27  1  0  0  0  0
 15 44  1  0  0  0  0
 15 45  1  0  0  0  0
 16 23  1  0  0  0  0
 16 26  1  0  0  0  0
 16 46  1  0  0  0  0
 16 47  1  0  0  0  0
 17 24  1  0  0  0  0
 17 26  1  0  0  0  0
 17 48  1  0  0  0  0
 17 49  1  0  0  0  0
 18 25  1  0  0  0  0
 18 26  1  0  0  0  0
 18 50  1  0  0  0  0
 18 51  1  0  0  0  0
 21 27  1  0  0  0  0
 22 52  1  0  0  0  0
 23 53  1  0  0  0  0
 24 27  1  0  0  0  0
 24 54  1  0  0  0  0
 25 27  1  0  0  0  0
 25 55  1  0  0  0  0
M  END
> <pdb_id>
5PGV

> <uniprot_id>
P28845

> <usmiles>
Fc1ccc(cc1)C2([C@H]3CC4(OC)C[C@@H]2CC(C4)C3)CC(=O)N5CC(O)C5

$$$$
8KA_D_302
          07202412553D 1   1.00000     0.00000     0
            
 62 67  0  0  0  0            999 V2000
   60.1315   20.4063   36.3542 F   0  0  0  0  0  0  0  0  0  0  0  0
   51.4407   22.1687   42.4713 O   0  0  0  0  0  0  0  0  0  0  0  0
   52.5481   18.4707   38.9747 O   0  0  0  0  0  0  0  0  0  0  0  0
   50.8682   29.1292   40.9531 O   0  0  0  0  0  0  0  0  0  0  0  0
   51.9947   21.1776   40.5268 N   0  0  0  0  0  0  0  0  0  0  0  0
   57.7957   20.7512   36.3802 C   0  0  0  0  0  0  0  0  0  0  0  0
   59.2049   21.7284   38.0691 C   0  0  0  0  0  0  0  0  0  0  0  0
   56.6905   21.3452   36.9682 C   0  0  0  0  0  0  0  0  0  0  0  0
   58.0901   22.3286   38.6362 C   0  0  0  0  0  0  0  0  0  0  0  0
   54.6661   23.4499   37.9192 C   0  0  0  0  0  0  0  0  0  0  0  0
   55.4238   22.8168   40.0876 C   0  0  0  0  0  0  0  0  0  0  0  0
   53.5678   24.0764   38.4877 C   0  0  0  0  0  0  0  0  0  0  0  0
   54.3404   23.4669   40.6532 C   0  0  0  0  0  0  0  0  0  0  0  0
   52.0655   20.8954   39.0914 C   0  0  0  0  0  0  0  0  0  0  0  0
   52.5622   19.8860   40.9208 C   0  0  0  0  0  0  0  0  0  0  0  0
   52.4750   27.0478   39.6863 C   0  0  0  0  0  0  0  0  0  0  0  0
   53.2170   26.3826   41.9757 C   0  0  0  0  0  0  0  0  0  0  0  0
   50.1485   26.3834   40.2511 C   0  0  0  0  0  0  0  0  0  0  0  0
   50.8867   25.7155   42.5316 C   0  0  0  0  0  0  0  0  0  0  0  0
   51.0607   23.4546   40.5126 C   0  0  0  0  0  0  0  0  0  0  0  0
   59.0293   20.9645   36.9485 C   0  0  0  0  0  0  0  0  0  0  0  0
   51.5263   22.2212   41.2505 C   0  0  0  0  0  0  0  0  0  0  0  0
   56.8125   22.1506   38.0975 C   0  0  0  0  0  0  0  0  0  0  0  0
   55.6177   22.8030   38.7061 C   0  0  0  0  0  0  0  0  0  0  0  0
   53.3763   24.0957   39.8664 C   0  0  0  0  0  0  0  0  0  0  0  0
   53.0160   19.7268   39.4455 C   0  0  3  0  0  0  0  0  0  0  0  0
   51.3533   28.0185   41.7041 C   0  0  3  0  0  0  0  0  0  0  0  0
   52.6840   27.5394   41.1259 C   0  0  3  0  0  0  0  0  0  0  0  0
   50.3422   26.8714   41.6875 C   0  0  3  0  0  0  0  0  0  0  0  0
   51.4812   25.8748   39.6716 C   0  0  3  0  0  0  0  0  0  0  0  0
   52.2213   25.2125   41.9522 C   0  0  3  0  0  0  0  0  0  0  0  0
   52.0313   24.6735   40.5006 C   0  0  3  0  0  0  0  0  0  0  0  0
   53.3560   17.9089   38.8414 H   0  0  0  0  0  0  0  0  0  0  0  0
   51.5328   29.8586   41.0586 H   0  0  0  0  0  0  0  0  0  0  0  0
   57.6805   20.1331   35.4909 H   0  0  0  0  0  0  0  0  0  0  0  0
   60.1932   21.8603   38.5039 H   0  0  0  0  0  0  0  0  0  0  0  0
   55.7027   21.1647   36.5511 H   0  0  0  0  0  0  0  0  0  0  0  0
   58.2211   22.9516   39.5195 H   0  0  0  0  0  0  0  0  0  0  0  0
   54.7796   23.4710   36.8362 H   0  0  0  0  0  0  0  0  0  0  0  0
   56.1307   22.3043   40.7385 H   0  0  0  0  0  0  0  0  0  0  0  0
   52.8466   24.5191   37.8040 H   0  0  0  0  0  0  0  0  0  0  0  0
   54.2732   23.4561   41.7388 H   0  0  0  0  0  0  0  0  0  0  0  0
   52.4845   21.6725   38.4548 H   0  0  0  0  0  0  0  0  0  0  0  0
   51.1059   20.6230   38.6590 H   0  0  0  0  0  0  0  0  0  0  0  0
   51.8362   19.1579   41.2804 H   0  0  0  0  0  0  0  0  0  0  0  0
   53.3667   19.9183   41.6538 H   0  0  0  0  0  0  0  0  0  0  0  0
   53.4303   26.8087   39.2203 H   0  0  0  0  0  0  0  0  0  0  0  0
   52.0710   27.8440   39.0648 H   0  0  0  0  0  0  0  0  0  0  0  0
   53.3764   26.7116   43.0016 H   0  0  0  0  0  0  0  0  0  0  0  0
   54.2087   26.0921   41.6339 H   0  0  0  0  0  0  0  0  0  0  0  0
   49.7820   27.2099   39.6468 H   0  0  0  0  0  0  0  0  0  0  0  0
   49.3474   25.6500   40.1802 H   0  0  0  0  0  0  0  0  0  0  0  0
   50.1438   24.9361   42.6898 H   0  0  0  0  0  0  0  0  0  0  0  0
   51.0627   26.1024   43.5329 H   0  0  0  0  0  0  0  0  0  0  0  0
   50.8351   23.1647   39.4877 H   0  0  0  0  0  0  0  0  0  0  0  0
   50.0902   23.7709   40.8835 H   0  0  0  0  0  0  0  0  0  0  0  0
   54.0751   19.8727   39.2382 H   0  0  0  0  0  0  0  0  0  0  0  0
   51.4984   28.3436   42.7322 H   0  0  0  0  0  0  0  0  0  0  0  0
   53.4113   28.3502   41.1309 H   0  0  0  0  0  0  0  0  0  0  0  0
   49.3916   27.2157   42.0923 H   0  0  0  0  0  0  0  0  0  0  0  0
   51.2801   25.5955   38.6383 H   0  0  0  0  0  0  0  0  0  0  0  0
   52.6024   24.4362   42.6098 H   0  0  0  0  0  0  0  0  0  0  0  0
  1 21  1  0  0  0  0
  2 22  2  0  0  0  0
  3 26  1  0  0  0  0
  3 33  1  0  0  0  0
  4 27  1  0  0  0  0
  4 34  1  0  0  0  0
  5 14  1  0  0  0  0
  5 15  1  0  0  0  0
  5 22  1  0  0  0  0
  6  8  2  0  0  0  0
  6 21  1  0  0  0  0
  6 35  1  0  0  0  0
  7  9  1  0  0  0  0
  7 21  2  0  0  0  0
  7 36  1  0  0  0  0
  8 23  1  0  0  0  0
  8 37  1  0  0  0  0
  9 23  2  0  0  0  0
  9 38  1  0  0  0  0
 10 12  2  0  0  0  0
 10 24  1  0  0  0  0
 10 39  1  0  0  0  0
 11 13  1  0  0  0  0
 11 24  2  0  0  0  0
 11 40  1  0  0  0  0
 12 25  1  0  0  0  0
 12 41  1  0  0  0  0
 13 25  2  0  0  0  0
 13 42  1  0  0  0  0
 14 26  1  0  0  0  0
 14 43  1  0  0  0  0
 14 44  1  0  0  0  0
 15 26  1  0  0  0  0
 15 45  1  0  0  0  0
 15 46  1  0  0  0  0
 16 28  1  0  0  0  0
 16 30  1  0  0  0  0
 16 47  1  0  0  0  0
 16 48  1  0  0  0  0
 17 28  1  0  0  0  0
 17 31  1  0  0  0  0
 17 49  1  0  0  0  0
 17 50  1  0  0  0  0
 18 29  1  0  0  0  0
 18 30  1  0  0  0  0
 18 51  1  0  0  0  0
 18 52  1  0  0  0  0
 19 29  1  0  0  0  0
 19 31  1  0  0  0  0
 19 53  1  0  0  0  0
 19 54  1  0  0  0  0
 20 22  1  0  0  0  0
 20 32  1  0  0  0  0
 20 55  1  0  0  0  0
 20 56  1  0  0  0  0
 23 24  1  0  0  0  0
 25 32  1  0  0  0  0
 26 57  1  0  0  0  0
 27 28  1  0  0  0  0
 27 29  1  0  0  0  0
 27 58  1  0  0  0  0
 28 59  1  0  0  0  0
 29 60  1  0  0  0  0
 30 32  1  0  0  0  0
 30 61  1  0  0  0  0
 31 32  1  0  0  0  0
 31 62  1  0  0  0  0
M  END
> <pdb_id>
5PGW

> <uniprot_id>
P28845

> <usmiles>
Fc1ccc(c2ccc(cc2)C3(C4CC5C(O)C(C4)CC3C5)CC(=O)N6CC(O)C6)cc1

$$$$
8KG_D_302
          07202412553D 1   1.00000     0.00000     0
            
 52 56  0  0  0  0            999 V2000
   51.4751   22.1370   42.5498 O   0  0  0  0  0  0  0  0  0  0  0  0
   52.3283   18.3993   39.0133 O   0  0  0  0  0  0  0  0  0  0  0  0
   50.8995   29.1177   40.9249 O   0  0  0  0  0  0  0  0  0  0  0  0
   51.8776   21.1349   40.5833 N   0  0  0  0  0  0  0  0  0  0  0  0
   55.5030   22.6791   38.8160 C   0  0  0  0  0  0  0  0  0  0  0  0
   55.3177   22.6602   40.1818 C   0  0  0  0  0  0  0  0  0  0  0  0
   54.6201   23.3730   38.0199 C   0  0  0  0  0  0  0  0  0  0  0  0
   54.2415   23.3293   40.7511 C   0  0  0  0  0  0  0  0  0  0  0  0
   53.5381   24.0372   38.5821 C   0  0  0  0  0  0  0  0  0  0  0  0
   51.9031   20.8589   39.1449 C   0  0  0  0  0  0  0  0  0  0  0  0
   52.4572   19.8446   40.9606 C   0  0  0  0  0  0  0  0  0  0  0  0
   53.2875   26.3794   41.9283 C   0  0  0  0  0  0  0  0  0  0  0  0
   50.9740   25.7681   42.6165 C   0  0  0  0  0  0  0  0  0  0  0  0
   52.4458   26.9606   39.6527 C   0  0  0  0  0  0  0  0  0  0  0  0
   50.1387   26.3496   40.3402 C   0  0  0  0  0  0  0  0  0  0  0  0
   51.0119   23.4360   40.6241 C   0  0  0  0  0  0  0  0  0  0  0  0
   51.4835   22.1873   41.3309 C   0  0  0  0  0  0  0  0  0  0  0  0
   53.3212   24.0144   39.9588 C   0  0  0  0  0  0  0  0  0  0  0  0
   52.8360   19.6601   39.4481 C   0  0  3  0  0  0  0  0  0  0  0  0
   51.4239   28.0270   41.6732 C   0  0  3  0  0  0  0  0  0  0  0  0
   52.7247   27.5089   41.0589 C   0  0  3  0  0  0  0  0  0  0  0  0
   50.4028   26.8927   41.7477 C   0  0  3  0  0  0  0  0  0  0  0  0
   52.2745   25.2261   42.0000 C   0  0  3  0  0  0  0  0  0  0  0  0
   51.4416   25.8024   39.7285 C   0  0  3  0  0  0  0  0  0  0  0  0
   52.0123   24.6292   40.5838 C   0  0  3  0  0  0  0  0  0  0  0  0
   52.9516   17.7109   39.3623 H   0  0  0  0  0  0  0  0  0  0  0  0
   51.5463   29.8633   41.0455 H   0  0  0  0  0  0  0  0  0  0  0  0
   56.3445   22.1510   38.3699 H   0  0  0  0  0  0  0  0  0  0  0  0
   56.0223   22.1306   40.8225 H   0  0  0  0  0  0  0  0  0  0  0  0
   54.7683   23.4085   36.9412 H   0  0  0  0  0  0  0  0  0  0  0  0
   54.1542   23.2799   41.8349 H   0  0  0  0  0  0  0  0  0  0  0  0
   52.8540   24.5415   37.9057 H   0  0  0  0  0  0  0  0  0  0  0  0
   52.3097   21.6432   38.5093 H   0  0  0  0  0  0  0  0  0  0  0  0
   50.9215   20.6160   38.7440 H   0  0  0  0  0  0  0  0  0  0  0  0
   51.7584   19.1170   41.3733 H   0  0  0  0  0  0  0  0  0  0  0  0
   53.3019   19.8899   41.6465 H   0  0  0  0  0  0  0  0  0  0  0  0
   53.5009   26.7482   42.9304 H   0  0  0  0  0  0  0  0  0  0  0  0
   54.2579   26.0668   41.5465 H   0  0  0  0  0  0  0  0  0  0  0  0
   50.2284   25.0035   42.8247 H   0  0  0  0  0  0  0  0  0  0  0  0
   51.1956   26.1882   43.5958 H   0  0  0  0  0  0  0  0  0  0  0  0
   53.3838   26.6957   39.1671 H   0  0  0  0  0  0  0  0  0  0  0  0
   52.0300   27.7418   39.0192 H   0  0  0  0  0  0  0  0  0  0  0  0
   49.7623   27.1576   39.7139 H   0  0  0  0  0  0  0  0  0  0  0  0
   49.3249   25.6265   40.3320 H   0  0  0  0  0  0  0  0  0  0  0  0
   50.7324   23.1625   39.6095 H   0  0  0  0  0  0  0  0  0  0  0  0
   50.0715   23.7674   41.0533 H   0  0  0  0  0  0  0  0  0  0  0  0
   53.8821   19.7932   39.1829 H   0  0  0  0  0  0  0  0  0  0  0  0
   51.6219   28.3848   42.6818 H   0  0  0  0  0  0  0  0  0  0  0  0
   53.4670   28.3049   40.9981 H   0  0  0  0  0  0  0  0  0  0  0  0
   49.4755   27.2712   42.1767 H   0  0  0  0  0  0  0  0  0  0  0  0
   52.6651   24.4685   42.6743 H   0  0  0  0  0  0  0  0  0  0  0  0
   51.1983   25.4837   38.7171 H   0  0  0  0  0  0  0  0  0  0  0  0
  1 17  2  0  0  0  0
  2 19  1  0  0  0  0
  2 26  1  0  0  0  0
  3 20  1  0  0  0  0
  3 27  1  0  0  0  0
  4 10  1  0  0  0  0
  4 11  1  0  0  0  0
  4 17  1  0  0  0  0
  5  6  2  0  0  0  0
  5  7  1  0  0  0  0
  5 28  1  0  0  0  0
  6  8  1  0  0  0  0
  6 29  1  0  0  0  0
  7  9  2  0  0  0  0
  7 30  1  0  0  0  0
  8 18  2  0  0  0  0
  8 31  1  0  0  0  0
  9 18  1  0  0  0  0
  9 32  1  0  0  0  0
 10 19  1  0  0  0  0
 10 33  1  0  0  0  0
 10 34  1  0  0  0  0
 11 19  1  0  0  0  0
 11 35  1  0  0  0  0
 11 36  1  0  0  0  0
 12 21  1  0  0  0  0
 12 23  1  0  0  0  0
 12 37  1  0  0  0  0
 12 38  1  0  0  0  0
 13 22  1  0  0  0  0
 13 23  1  0  0  0  0
 13 39  1  0  0  0  0
 13 40  1  0  0  0  0
 14 21  1  0  0  0  0
 14 24  1  0  0  0  0
 14 41  1  0  0  0  0
 14 42  1  0  0  0  0
 15 22  1  0  0  0  0
 15 24  1  0  0  0  0
 15 43  1  0  0  0  0
 15 44  1  0  0  0  0
 16 17  1  0  0  0  0
 16 25  1  0  0  0  0
 16 45  1  0  0  0  0
 16 46  1  0  0  0  0
 18 25  1  0  0  0  0
 19 47  1  0  0  0  0
 20 21  1  0  0  0  0
 20 22  1  0  0  0  0
 20 48  1  0  0  0  0
 21 49  1  0  0  0  0
 22 50  1  0  0  0  0
 23 25  1  0  0  0  0
 23 51  1  0  0  0  0
 24 25  1  0  0  0  0
 24 52  1  0  0  0  0
M  END
> <pdb_id>
5PGY

> <uniprot_id>
P28845

> <usmiles>
O=C(N1CC(O)C1)CC2(c3ccccc3)C4CC5C(O)C(C4)CC2C5

$$$$
8KM_A_207
          07202411483D 1   1.00000     0.00000     0
            
 41 43  0  0  0  0            999 V2000
   -1.1561  -13.2889  -17.5307 S   0  0  0  0  0  0  0  0  0  0  0  0
   -1.6925  -14.2097  -16.5764 O   0  0  0  0  0  0  0  0  0  0  0  0
   -1.2681  -11.9013  -17.2344 O   0  0  0  0  0  0  0  0  0  0  0  0
   -1.5454   -9.6702  -24.4863 N   0  0  0  0  0  0  0  0  0  0  0  0
   -1.8712  -13.6024  -18.9853 N   0  0  0  0  0  0  0  0  0  0  0  0
    3.1777   -9.8845  -21.2540 C   0  0  0  0  0  0  0  0  0  0  0  0
    0.6006  -13.6616  -17.6490 C   0  0  0  0  0  0  0  0  0  0  0  0
   -1.5972  -10.3129  -23.5817 C   0  0  0  0  0  0  0  0  0  0  0  0
   -1.5723  -13.2740  -21.3716 C   0  0  0  0  0  0  0  0  0  0  0  0
    2.3662  -10.5994  -18.9865 C   0  0  0  0  0  0  0  0  0  0  0  0
    2.0087  -12.1012  -20.8175 C   0  0  0  0  0  0  0  0  0  0  0  0
    1.7557  -11.4907  -18.1197 C   0  0  0  0  0  0  0  0  0  0  0  0
    1.4041  -13.0015  -19.9477 C   0  0  0  0  0  0  0  0  0  0  0  0
   -1.5017  -12.5046  -22.5267 C   0  0  0  0  0  0  0  0  0  0  0  0
   -1.6013   -8.1923  -19.9730 C   0  0  0  0  0  0  0  0  0  0  0  0
   -3.0859   -8.3695  -20.2140 C   0  0  0  0  0  0  0  0  0  0  0  0
   -1.9795  -11.3206  -20.0342 C   0  0  0  0  0  0  0  0  0  0  0  0
   -1.8013  -12.7031  -20.1199 C   0  0  0  0  0  0  0  0  0  0  0  0
    2.5012  -10.8927  -20.3332 C   0  0  0  0  0  0  0  0  0  0  0  0
    1.2601  -12.6962  -18.5980 C   0  0  0  0  0  0  0  0  0  0  0  0
   -1.6681  -11.1293  -22.4189 C   0  0  0  0  0  0  0  0  0  0  0  0
   -2.0840   -9.0166  -21.1530 C   0  0  0  0  0  0  0  0  0  0  0  0
   -1.9108  -10.5322  -21.1861 C   0  0  0  0  0  0  0  0  0  0  0  0
   -2.3792  -14.4575  -19.0890 H   0  0  0  0  0  0  0  0  0  0  0  0
    3.1954  -10.2445  -22.1868 H   0  0  0  0  0  0  0  0  0  0  0  0
    2.6679   -9.0243  -21.2383 H   0  0  0  0  0  0  0  0  0  0  0  0
    4.1137   -9.7230  -20.9412 H   0  0  0  0  0  0  0  0  0  0  0  0
    0.7205  -14.5949  -17.9873 H   0  0  0  0  0  0  0  0  0  0  0  0
    1.0199  -13.5782  -16.7450 H   0  0  0  0  0  0  0  0  0  0  0  0
   -1.4556  -14.2649  -21.4398 H   0  0  0  0  0  0  0  0  0  0  0  0
    2.7148   -9.7308  -18.6344 H   0  0  0  0  0  0  0  0  0  0  0  0
    2.0896  -12.3214  -21.7896 H   0  0  0  0  0  0  0  0  0  0  0  0
    1.6718  -11.2658  -17.1490 H   0  0  0  0  0  0  0  0  0  0  0  0
    1.0694  -13.8773  -20.2957 H   0  0  0  0  0  0  0  0  0  0  0  0
   -1.3348  -12.9312  -23.4156 H   0  0  0  0  0  0  0  0  0  0  0  0
   -1.1641   -8.6423  -19.1943 H   0  0  0  0  0  0  0  0  0  0  0  0
   -1.1727   -7.3020  -20.1271 H   0  0  0  0  0  0  0  0  0  0  0  0
   -3.6372   -7.5962  -20.5272 H   0  0  0  0  0  0  0  0  0  0  0  0
   -3.6286   -8.9366  -19.5944 H   0  0  0  0  0  0  0  0  0  0  0  0
   -2.1564  -10.8941  -19.1472 H   0  0  0  0  0  0  0  0  0  0  0  0
   -1.9935   -8.5666  -22.0414 H   0  0  0  0  0  0  0  0  0  0  0  0
  1  2  2  0  0  0  0
  1  3  2  0  0  0  0
  1  5  1  0  0  0  0
  1  7  1  0  0  0  0
  4  8  3  0  0  0  0
  5 18  1  0  0  0  0
  6 19  1  0  0  0  0
  7 20  1  0  0  0  0
  8 21  1  0  0  0  0
  9 14  1  0  0  0  0
  9 18  2  0  0  0  0
 10 12  1  0  0  0  0
 10 19  2  0  0  0  0
 11 13  2  0  0  0  0
 11 19  1  0  0  0  0
 12 20  2  0  0  0  0
 13 20  1  0  0  0  0
 14 21  2  0  0  0  0
 15 16  1  0  0  0  0
 15 22  1  0  0  0  0
 16 22  1  0  0  0  0
 17 18  1  0  0  0  0
 17 23  2  0  0  0  0
 21 23  1  0  0  0  0
 22 23  1  0  0  0  0
  5 24  1  0  0  0  0
  6 25  1  0  0  0  0
  6 26  1  0  0  0  0
  6 27  1  0  0  0  0
  7 28  1  0  0  0  0
  7 29  1  0  0  0  0
  9 30  1  0  0  0  0
 10 31  1  0  0  0  0
 11 32  1  0  0  0  0
 12 33  1  0  0  0  0
 13 34  1  0  0  0  0
 14 35  1  0  0  0  0
 15 36  1  0  0  0  0
 15 37  1  0  0  0  0
 16 38  1  0  0  0  0
 16 39  1  0  0  0  0
 17 40  1  0  0  0  0
 22 41  1  0  0  0  0
M  END
> <pdb_id>
5UR6

> <uniprot_id>
O49686

> <usmiles>
S(=O)(=O)(Nc1cc(c(C#N)cc1)C2CC2)Cc3ccc(cc3)C

$$$$
8KP_A_207
          07202411483D 1   1.00000     0.00000     0
            
 43 44  0  0  0  0            999 V2000
   -1.0030  -13.3730  -17.2150 S   0  0  0  0  0  0  0  0  0  0  0  0
   -1.0730  -12.0170  -16.7800 O   0  0  0  0  0  0  0  0  0  0  0  0
   -1.4840  -14.3860  -16.3190 O   0  0  0  0  0  0  0  0  0  0  0  0
   -1.7910   -9.2010  -23.9790 N   0  0  0  0  0  0  0  0  0  0  0  0
   -1.8320  -13.5680  -18.6490 N   0  0  0  0  0  0  0  0  0  0  0  0
   -2.9500   -8.2090  -20.4210 C   0  0  0  0  0  0  0  0  0  0  0  0
    3.0090   -9.8950  -21.2480 C   0  0  0  0  0  0  0  0  0  0  0  0
   -2.0270  -12.8000  -23.5150 C   0  0  0  0  0  0  0  0  0  0  0  0
    0.7310  -13.7560  -17.5200 C   0  0  0  0  0  0  0  0  0  0  0  0
   -1.7940   -9.9380  -23.0520 C   0  0  0  0  0  0  0  0  0  0  0  0
   -1.5660   -8.8350  -20.4190 C   0  0  0  0  0  0  0  0  0  0  0  0
    1.8720  -12.1190  -20.7780 C   0  0  0  0  0  0  0  0  0  0  0  0
    2.4020  -10.6530  -18.9410 C   0  0  0  0  0  0  0  0  0  0  0  0
    1.3350  -13.0410  -19.8810 C   0  0  0  0  0  0  0  0  0  0  0  0
    1.8620  -11.5700  -18.0440 C   0  0  0  0  0  0  0  0  0  0  0  0
   -1.9150  -13.0860  -21.0180 C   0  0  0  0  0  0  0  0  0  0  0  0
   -1.7060  -11.2140  -19.5220 C   0  0  0  0  0  0  0  0  0  0  0  0
   -1.8110  -12.5960  -19.7170 C   0  0  0  0  0  0  0  0  0  0  0  0
    2.4100  -10.9230  -20.2990 C   0  0  0  0  0  0  0  0  0  0  0  0
    1.3220  -12.7620  -18.5130 C   0  0  0  0  0  0  0  0  0  0  0  0
   -1.9110  -12.2230  -22.1110 C   0  0  0  0  0  0  0  0  0  0  0  0
   -1.6990  -10.3410  -20.6190 C   0  0  0  0  0  0  0  0  0  0  0  0
   -1.8050  -10.8470  -21.9130 C   0  0  0  0  0  0  0  0  0  0  0  0
   -2.3712  -14.4006  -18.7758 H   0  0  0  0  0  0  0  0  0  0  0  0
   -2.8691   -7.2209  -20.2902 H   0  0  0  0  0  0  0  0  0  0  0  0
   -3.3982   -8.3938  -21.2956 H   0  0  0  0  0  0  0  0  0  0  0  0
   -3.4938   -8.6001  -19.6785 H   0  0  0  0  0  0  0  0  0  0  0  0
    3.3407   -9.1107  -20.7237 H   0  0  0  0  0  0  0  0  0  0  0  0
    3.7702  -10.3072  -21.7487 H   0  0  0  0  0  0  0  0  0  0  0  0
    2.3097   -9.5916  -21.8952 H   0  0  0  0  0  0  0  0  0  0  0  0
   -2.0091  -12.0565  -24.1835 H   0  0  0  0  0  0  0  0  0  0  0  0
   -1.2608  -13.4197  -23.6851 H   0  0  0  0  0  0  0  0  0  0  0  0
   -2.8873  -13.3028  -23.5987 H   0  0  0  0  0  0  0  0  0  0  0  0
    0.8044  -14.6804  -17.8944 H   0  0  0  0  0  0  0  0  0  0  0  0
    1.2373  -13.7039  -16.6592 H   0  0  0  0  0  0  0  0  0  0  0  0
   -1.1169   -8.6517  -19.5445 H   0  0  0  0  0  0  0  0  0  0  0  0
   -1.0212   -8.4454  -21.1616 H   0  0  0  0  0  0  0  0  0  0  0  0
    1.8719  -12.3131  -21.7590 H   0  0  0  0  0  0  0  0  0  0  0  0
    2.7865   -9.7941  -18.6027 H   0  0  0  0  0  0  0  0  0  0  0  0
    0.9584  -13.9039  -20.2179 H   0  0  0  0  0  0  0  0  0  0  0  0
    1.8625  -11.3717  -17.0639 H   0  0  0  0  0  0  0  0  0  0  0  0
   -1.9936  -14.0715  -21.1686 H   0  0  0  0  0  0  0  0  0  0  0  0
   -1.6355  -10.8470  -18.5945 H   0  0  0  0  0  0  0  0  0  0  0  0
  1  2  2  0  0  0  0
  1  3  2  0  0  0  0
  1  5  1  0  0  0  0
  1  9  1  0  0  0  0
  4 10  3  0  0  0  0
  5 18  1  0  0  0  0
  6 11  1  0  0  0  0
  7 19  1  0  0  0  0
  8 21  1  0  0  0  0
  9 20  1  0  0  0  0
 10 23  1  0  0  0  0
 11 22  1  0  0  0  0
 12 14  1  0  0  0  0
 12 19  2  0  0  0  0
 13 15  2  0  0  0  0
 13 19  1  0  0  0  0
 14 20  2  0  0  0  0
 15 20  1  0  0  0  0
 16 18  2  0  0  0  0
 16 21  1  0  0  0  0
 17 18  1  0  0  0  0
 17 22  2  0  0  0  0
 21 23  2  0  0  0  0
 22 23  1  0  0  0  0
  5 24  1  0  0  0  0
  6 25  1  0  0  0  0
  6 26  1  0  0  0  0
  6 27  1  0  0  0  0
  7 28  1  0  0  0  0
  7 29  1  0  0  0  0
  7 30  1  0  0  0  0
  8 31  1  0  0  0  0
  8 32  1  0  0  0  0
  8 33  1  0  0  0  0
  9 34  1  0  0  0  0
  9 35  1  0  0  0  0
 11 36  1  0  0  0  0
 11 37  1  0  0  0  0
 12 38  1  0  0  0  0
 13 39  1  0  0  0  0
 14 40  1  0  0  0  0
 15 41  1  0  0  0  0
 16 42  1  0  0  0  0
 17 43  1  0  0  0  0
M  END
> <pdb_id>
5UR5

> <uniprot_id>
O49686

> <usmiles>
S(=O)(=O)(Nc1cc(c(C#N)c(c1)C)CC)Cc2ccc(cc2)C

$$$$
8KZ_A_403
          07202416443D 1   1.00000     0.00000     0
            
 32 33  0  0  0  0            999 V2000
  -21.0311  -13.4034   31.9145 O   0  0  0  0  0  0  0  0  0  0  0  0
  -10.2828  -15.6151   33.4206 O   0  0  0  0  0  0  0  0  0  0  0  0
  -10.4133  -13.1709   29.3146 O   0  0  0  0  0  0  0  0  0  0  0  0
  -11.0450  -12.1797   28.5221 C   0  0  0  0  0  0  0  0  0  0  0  0
  -19.1469  -13.0781   30.5075 C   0  0  0  0  0  0  0  0  0  0  0  0
  -18.8283  -13.7310   32.7907 C   0  0  0  0  0  0  0  0  0  0  0  0
  -17.7844  -13.0932   30.3369 C   0  0  0  0  0  0  0  0  0  0  0  0
  -17.4655  -13.6702   32.6216 C   0  0  0  0  0  0  0  0  0  0  0  0
  -15.4523  -13.4212   31.1505 C   0  0  0  0  0  0  0  0  0  0  0  0
  -14.5584  -13.9939   31.9270 C   0  0  0  0  0  0  0  0  0  0  0  0
  -10.3753  -14.4136   31.3445 C   0  0  0  0  0  0  0  0  0  0  0  0
  -12.3681  -14.8043   32.6505 C   0  0  0  0  0  0  0  0  0  0  0  0
  -12.4778  -13.5318   30.5996 C   0  0  0  0  0  0  0  0  0  0  0  0
  -19.6827  -13.3882   31.7446 C   0  0  0  0  0  0  0  0  0  0  0  0
  -10.9984  -14.9159   32.4869 C   0  0  0  0  0  0  0  0  0  0  0  0
  -11.1117  -13.6852   30.4117 C   0  0  0  0  0  0  0  0  0  0  0  0
  -16.9071  -13.4212   31.3665 C   0  0  0  0  0  0  0  0  0  0  0  0
  -13.1150  -14.1144   31.6990 C   0  0  0  0  0  0  0  0  0  0  0  0
  -21.4200  -13.6274   32.8082 H   0  0  0  0  0  0  0  0  0  0  0  0
  -10.7387  -15.9712   34.2363 H   0  0  0  0  0  0  0  0  0  0  0  0
  -10.4335  -11.9071   27.7793 H   0  0  0  0  0  0  0  0  0  0  0  0
  -11.8914  -12.5491   28.1384 H   0  0  0  0  0  0  0  0  0  0  0  0
  -11.2558  -11.3836   29.0894 H   0  0  0  0  0  0  0  0  0  0  0  0
  -19.7475  -12.8445   29.7429 H   0  0  0  0  0  0  0  0  0  0  0  0
  -19.2084  -14.0225   33.6686 H   0  0  0  0  0  0  0  0  0  0  0  0
  -17.4087  -12.8600   29.4400 H   0  0  0  0  0  0  0  0  0  0  0  0
  -16.8649  -13.8066   33.4095 H   0  0  0  0  0  0  0  0  0  0  0  0
  -15.1123  -12.9429   30.3408 H   0  0  0  0  0  0  0  0  0  0  0  0
  -14.9049  -14.3954   32.7748 H   0  0  0  0  0  0  0  0  0  0  0  0
   -9.4001  -14.5760   31.1947 H   0  0  0  0  0  0  0  0  0  0  0  0
  -12.8170  -15.2150   33.4441 H   0  0  0  0  0  0  0  0  0  0  0  0
  -13.0115  -12.9995   29.9425 H   0  0  0  0  0  0  0  0  0  0  0  0
  1 14  1  0  0  0  0
  2 15  1  0  0  0  0
  3  4  1  0  0  0  0
  3 16  1  0  0  0  0
  5  7  1  0  0  0  0
  5 14  2  0  0  0  0
  6  8  2  0  0  0  0
  6 14  1  0  0  0  0
  7 17  2  0  0  0  0
  8 17  1  0  0  0  0
  9 10  2  0  0  0  0
  9 17  1  0  0  0  0
 10 18  1  0  0  0  0
 11 15  2  0  0  0  0
 11 16  1  0  0  0  0
 12 15  1  0  0  0  0
 12 18  2  0  0  0  0
 13 16  2  0  0  0  0
 13 18  1  0  0  0  0
  1 19  1  0  0  0  0
  2 20  1  0  0  0  0
  4 21  1  0  0  0  0
  4 22  1  0  0  0  0
  4 23  1  0  0  0  0
  5 24  1  0  0  0  0
  6 25  1  0  0  0  0
  7 26  1  0  0  0  0
  8 27  1  0  0  0  0
  9 28  1  0  0  0  0
 10 29  1  0  0  0  0
 11 30  1  0  0  0  0
 12 31  1  0  0  0  0
 13 32  1  0  0  0  0
M  END
> <pdb_id>
7WAR

> <uniprot_id>
nan

> <usmiles>
O(c1cc(O)cc(c1)/C=C/c2ccc(O)cc2)C

$$$$
8L3_C_301
          07202406093D 1   1.00000     0.00000     0
            
 43 45  0  0  0  0            999 V2000
   51.6989    3.7454  122.1727 Cl  0  0  0  0  0  0  0  0  0  0  0  0
   54.0782    3.7995  124.2676 Cl  0  0  0  0  0  0  0  0  0  0  0  0
   58.5066    2.9198  122.0939 O   0  0  0  0  0  0  0  0  0  0  0  0
   59.5111    2.5621  117.5647 N   0  0  0  0  0  0  0  0  0  0  0  0
   58.3986   -0.1160  124.1898 N   0  0  0  0  0  0  0  0  0  0  0  0
   58.8399    0.4253  125.4118 C   0  0  0  0  0  0  0  0  0  0  0  0
   58.1481    2.0743  117.9022 C   0  0  0  0  0  0  0  0  0  0  0  0
   60.1967    3.0233  118.7906 C   0  0  0  0  0  0  0  0  0  0  0  0
   58.0220    2.4688  120.8115 C   0  0  0  0  0  0  0  0  0  0  0  0
   59.1659    1.7805  125.4897 C   0  0  0  0  0  0  0  0  0  0  0  0
   58.2655    0.7148  123.0573 C   0  0  0  0  0  0  0  0  0  0  0  0
   59.0428    2.5875  124.3659 C   0  0  0  0  0  0  0  0  0  0  0  0
   53.5428    4.2819  120.3109 C   0  0  0  0  0  0  0  0  0  0  0  0
   54.8447    4.5386  119.8892 C   0  0  0  0  0  0  0  0  0  0  0  0
   57.3442    3.1713  118.5275 C   0  0  0  0  0  0  0  0  0  0  0  0
   59.4190    4.1520  119.4407 C   0  0  0  0  0  0  0  0  0  0  0  0
   55.6307    4.3023  122.1666 C   0  0  0  0  0  0  0  0  0  0  0  0
   57.2122    4.7950  120.4605 C   0  0  0  0  0  0  0  0  0  0  0  0
   58.6105    2.0639  123.1474 C   0  0  0  0  0  0  0  0  0  0  0  0
   53.2973    4.0431  121.6624 C   0  0  0  0  0  0  0  0  0  0  0  0
   54.3434    4.0499  122.5852 C   0  0  0  0  0  0  0  0  0  0  0  0
   55.8932    4.5298  120.8155 C   0  0  0  0  0  0  0  0  0  0  0  0
   58.0195    3.6557  119.8015 C   0  0  0  0  0  0  0  0  0  0  0  0
   59.4411    3.3216  116.9180 H   0  0  0  0  0  0  0  0  0  0  0  0
   58.9195   -0.1580  126.2201 H   0  0  0  0  0  0  0  0  0  0  0  0
   58.2203    1.3110  118.5441 H   0  0  0  0  0  0  0  0  0  0  0  0
   57.6920    1.7658  117.0674 H   0  0  0  0  0  0  0  0  0  0  0  0
   61.1122    3.3483  118.5534 H   0  0  0  0  0  0  0  0  0  0  0  0
   60.2698    2.2609  119.4335 H   0  0  0  0  0  0  0  0  0  0  0  0
   57.0913    2.1173  120.9132 H   0  0  0  0  0  0  0  0  0  0  0  0
   58.6172    1.7421  120.4685 H   0  0  0  0  0  0  0  0  0  0  0  0
   59.4875    2.1695  126.3529 H   0  0  0  0  0  0  0  0  0  0  0  0
   57.9259    0.3391  122.1950 H   0  0  0  0  0  0  0  0  0  0  0  0
   59.2677    3.5597  124.4314 H   0  0  0  0  0  0  0  0  0  0  0  0
   52.7914    4.2690  119.6511 H   0  0  0  0  0  0  0  0  0  0  0  0
   55.0302    4.7290  118.9252 H   0  0  0  0  0  0  0  0  0  0  0  0
   56.4312    2.8277  118.7476 H   0  0  0  0  0  0  0  0  0  0  0  0
   57.2676    3.9329  117.8840 H   0  0  0  0  0  0  0  0  0  0  0  0
   59.3478    4.9194  118.8036 H   0  0  0  0  0  0  0  0  0  0  0  0
   59.8922    4.4500  120.2698 H   0  0  0  0  0  0  0  0  0  0  0  0
   56.3775    4.3226  122.8313 H   0  0  0  0  0  0  0  0  0  0  0  0
   57.6977    5.0627  121.2928 H   0  0  0  0  0  0  0  0  0  0  0  0
   57.2008    5.5627  119.8198 H   0  0  0  0  0  0  0  0  0  0  0  0
  1 20  1  0  0  0  0
  2 21  1  0  0  0  0
  3  9  1  0  0  0  0
  3 19  1  0  0  0  0
  4  7  1  0  0  0  0
  4  8  1  0  0  0  0
  5  6  2  0  0  0  0
  5 11  1  0  0  0  0
  6 10  1  0  0  0  0
  7 15  1  0  0  0  0
  8 16  1  0  0  0  0
  9 23  1  0  0  0  0
 10 12  2  0  0  0  0
 11 19  2  0  0  0  0
 12 19  1  0  0  0  0
 13 14  2  0  0  0  0
 13 20  1  0  0  0  0
 14 22  1  0  0  0  0
 15 23  1  0  0  0  0
 16 23  1  0  0  0  0
 17 21  1  0  0  0  0
 17 22  2  0  0  0  0
 18 22  1  0  0  0  0
 18 23  1  0  0  0  0
 20 21  2  0  0  0  0
  4 24  1  0  0  0  0
  6 25  1  0  0  0  0
  7 26  1  0  0  0  0
  7 27  1  0  0  0  0
  8 28  1  0  0  0  0
  8 29  1  0  0  0  0
  9 30  1  0  0  0  0
  9 31  1  0  0  0  0
 10 32  1  0  0  0  0
 11 33  1  0  0  0  0
 12 34  1  0  0  0  0
 13 35  1  0  0  0  0
 14 36  1  0  0  0  0
 15 37  1  0  0  0  0
 15 38  1  0  0  0  0
 16 39  1  0  0  0  0
 16 40  1  0  0  0  0
 17 41  1  0  0  0  0
 18 42  1  0  0  0  0
 18 43  1  0  0  0  0
M  END
> <pdb_id>
5Y2Q

> <uniprot_id>
P58154

> <usmiles>
Clc1c(Cl)ccc(c1)CC2(COc3cnccc3)CCNCC2

$$$$
8M5_D_1248
          07192422433D 1   1.00000     0.00000     0
            
 33 35  0  0  0  0            999 V2000
    3.1206  174.8935   35.0638 O   0  0  0  0  0  0  0  0  0  0  0  0
    2.4422  176.2399   33.3146 N   0  0  0  0  0  0  0  0  0  0  0  0
   -0.9585  174.0945   33.6655 N   0  0  0  0  0  0  0  0  0  0  0  0
   -2.2991  174.1867   33.0300 C   0  0  0  0  0  0  0  0  0  0  0  0
    0.0288  174.9682   33.4616 C   0  0  0  0  0  0  0  0  0  0  0  0
    5.7461  178.6667   32.8637 C   0  0  0  0  0  0  0  0  0  0  0  0
    5.8904  177.4704   33.5298 C   0  0  0  0  0  0  0  0  0  0  0  0
    4.5057  179.0288   32.3753 C   0  0  0  0  0  0  0  0  0  0  0  0
   -0.5827  171.3268   35.9202 C   0  0  0  0  0  0  0  0  0  0  0  0
    0.7341  171.6022   36.2908 C   0  0  0  0  0  0  0  0  0  0  0  0
    4.7920  176.6466   33.6562 C   0  0  0  0  0  0  0  0  0  0  0  0
    3.4323  178.1840   32.5218 C   0  0  0  0  0  0  0  0  0  0  0  0
   -1.2266  172.1589   35.0130 C   0  0  0  0  0  0  0  0  0  0  0  0
    1.3525  172.7223   35.7425 C   0  0  0  0  0  0  0  0  0  0  0  0
    2.2732  175.2207   34.2352 C   0  0  0  0  0  0  0  0  0  0  0  0
    3.5490  176.9970   33.1981 C   0  0  0  0  0  0  0  0  0  0  0  0
   -0.5594  173.1898   34.5265 C   0  0  0  0  0  0  0  0  0  0  0  0
    1.0798  174.5761   34.1929 C   0  0  0  0  0  0  0  0  0  0  0  0
    0.7158  173.4841   34.8699 C   0  0  0  0  0  0  0  0  0  0  0  0
    1.6851  176.4282   32.6889 H   0  0  0  0  0  0  0  0  0  0  0  0
   -2.8660  173.4216   33.3351 H   0  0  0  0  0  0  0  0  0  0  0  0
   -2.7335  175.0486   33.2916 H   0  0  0  0  0  0  0  0  0  0  0  0
   -2.1996  174.1520   32.0355 H   0  0  0  0  0  0  0  0  0  0  0  0
   -0.0091  175.7724   32.8685 H   0  0  0  0  0  0  0  0  0  0  0  0
    6.5336  179.2692   32.7344 H   0  0  0  0  0  0  0  0  0  0  0  0
    6.7743  177.2043   33.9144 H   0  0  0  0  0  0  0  0  0  0  0  0
    4.3887  179.9082   31.9138 H   0  0  0  0  0  0  0  0  0  0  0  0
   -1.0593  170.5362   36.3047 H   0  0  0  0  0  0  0  0  0  0  0  0
    1.2207  171.0105   36.9334 H   0  0  0  0  0  0  0  0  0  0  0  0
    4.9072  175.7578   34.0999 H   0  0  0  0  0  0  0  0  0  0  0  0
    2.5494  178.4395   32.1279 H   0  0  0  0  0  0  0  0  0  0  0  0
   -2.1709  171.9820   34.7356 H   0  0  0  0  0  0  0  0  0  0  0  0
    2.2877  172.9529   36.0113 H   0  0  0  0  0  0  0  0  0  0  0  0
  1 15  2  0  0  0  0
  2 15  1  0  0  0  0
  2 16  1  0  0  0  0
  3  4  1  0  0  0  0
  3  5  1  0  0  0  0
  3 17  1  0  0  0  0
  5 18  2  0  0  0  0
  6  7  2  0  0  0  0
  6  8  1  0  0  0  0
  7 11  1  0  0  0  0
  8 12  2  0  0  0  0
  9 10  2  0  0  0  0
  9 13  1  0  0  0  0
 10 14  1  0  0  0  0
 11 16  2  0  0  0  0
 12 16  1  0  0  0  0
 13 17  2  0  0  0  0
 14 19  2  0  0  0  0
 15 18  1  0  0  0  0
 17 19  1  0  0  0  0
 18 19  1  0  0  0  0
  2 20  1  0  0  0  0
  4 21  1  0  0  0  0
  4 22  1  0  0  0  0
  4 23  1  0  0  0  0
  5 24  1  0  0  0  0
  6 25  1  0  0  0  0
  7 26  1  0  0  0  0
  8 27  1  0  0  0  0
  9 28  1  0  0  0  0
 10 29  1  0  0  0  0
 11 30  1  0  0  0  0
 12 31  1  0  0  0  0
 13 32  1  0  0  0  0
 14 33  1  0  0  0  0
M  END
> <pdb_id>
4BNZ

> <uniprot_id>
O54438

> <usmiles>
O=C(Nc1ccccc1)C=2c3c(N(C2)C)cccc3

$$$$
8NM_A_501
          07202411433D 1   1.00000     0.00000     0
            
 48 51  0  0  0  0            999 V2000
    7.8141   11.4850   16.3731 S   0  0  0  0  0  0  0  0  0  0  0  0
    6.4296   11.3236   15.9539 O   0  0  0  0  0  0  0  0  0  0  0  0
    8.6392   12.5831   15.9147 O   0  0  0  0  0  0  0  0  0  0  0  0
   16.4314   12.3170   16.4993 O   0  0  0  0  0  0  0  0  0  0  0  0
   12.2022   13.0356   21.1428 O   0  0  0  0  0  0  0  0  0  0  0  0
    7.8651   11.4597   18.0685 N   0  0  0  0  0  0  0  0  0  0  0  0
   15.5998   14.5053   18.2560 N   0  0  0  0  0  0  0  0  0  0  0  0
   14.3740   11.3228   16.9293 N   0  0  0  0  0  0  0  0  0  0  0  0
    8.5805    9.9261   15.9689 C   0  0  0  0  0  0  0  0  0  0  0  0
   14.6844   10.1350   16.1421 C   0  0  0  0  0  0  0  0  0  0  0  0
   14.8315   15.2678   19.0909 C   0  0  0  0  0  0  0  0  0  0  0  0
   13.1472   11.3648   17.5632 C   0  0  0  0  0  0  0  0  0  0  0  0
   13.8496   10.8532   24.2246 C   0  0  0  0  0  0  0  0  0  0  0  0
   13.0427   10.2207   23.3090 C   0  0  0  0  0  0  0  0  0  0  0  0
   14.1056   12.2001   24.1016 C   0  0  0  0  0  0  0  0  0  0  0  0
   12.4667   10.9140   22.2768 C   0  0  0  0  0  0  0  0  0  0  0  0
   13.5424   12.9026   23.0600 C   0  0  0  0  0  0  0  0  0  0  0  0
   13.6448   14.6250   19.3037 C   0  0  0  0  0  0  0  0  0  0  0  0
    9.9132   12.5191   20.8786 C   0  0  0  0  0  0  0  0  0  0  0  0
    8.8464   12.1497   20.0972 C   0  0  0  0  0  0  0  0  0  0  0  0
   10.3260   11.8772   18.2336 C   0  0  0  0  0  0  0  0  0  0  0  0
   15.3331   12.3089   17.0493 C   0  0  0  0  0  0  0  0  0  0  0  0
   12.7138   12.2582   22.1625 C   0  0  0  0  0  0  0  0  0  0  0  0
   11.1851   12.5666   20.3308 C   0  0  0  0  0  0  0  0  0  0  0  0
    9.0471   11.8333   18.7729 C   0  0  0  0  0  0  0  0  0  0  0  0
   14.8977   13.3812   17.9134 C   0  0  0  0  0  0  0  0  0  0  0  0
   12.7494   12.3554   18.3785 C   0  0  0  0  0  0  0  0  0  0  0  0
   11.4105   12.2606   18.9989 C   0  0  0  0  0  0  0  0  0  0  0  0
   13.6796   13.4126   18.5590 C   0  0  0  0  0  0  0  0  0  0  0  0
    7.3282   10.7172   18.5335 H   0  0  0  0  0  0  0  0  0  0  0  0
   16.5220   14.7500   17.9264 H   0  0  0  0  0  0  0  0  0  0  0  0
    8.1679    9.5852   15.0236 H   0  0  0  0  0  0  0  0  0  0  0  0
    9.6587   10.0699   15.8719 H   0  0  0  0  0  0  0  0  0  0  0  0
    8.3548    9.2107   16.7627 H   0  0  0  0  0  0  0  0  0  0  0  0
   14.3004    9.2551   16.6624 H   0  0  0  0  0  0  0  0  0  0  0  0
   15.7639   10.0226   16.0207 H   0  0  0  0  0  0  0  0  0  0  0  0
   14.2143   10.2069   15.1622 H   0  0  0  0  0  0  0  0  0  0  0  0
   15.2001   16.2083   19.4703 H   0  0  0  0  0  0  0  0  0  0  0  0
   12.5105   10.5098   17.3759 H   0  0  0  0  0  0  0  0  0  0  0  0
   14.2851   10.2862   25.0379 H   0  0  0  0  0  0  0  0  0  0  0  0
   12.8342    9.1657   23.4113 H   0  0  0  0  0  0  0  0  0  0  0  0
   14.7454   12.7011   24.8194 H   0  0  0  0  0  0  0  0  0  0  0  0
   11.8297   10.3862   21.5765 H   0  0  0  0  0  0  0  0  0  0  0  0
   13.7372   13.9642   22.9558 H   0  0  0  0  0  0  0  0  0  0  0  0
   12.8379   15.0043   19.9096 H   0  0  0  0  0  0  0  0  0  0  0  0
    9.7617   12.7799   21.9197 H   0  0  0  0  0  0  0  0  0  0  0  0
    7.8479   12.1020   20.5111 H   0  0  0  0  0  0  0  0  0  0  0  0
   10.4940   11.6337   17.1954 H   0  0  0  0  0  0  0  0  0  0  0  0
  1  2  2  0  0  0  0
  1  3  2  0  0  0  0
  1  6  1  0  0  0  0
  1  9  1  0  0  0  0
  4 22  2  0  0  0  0
  5 23  1  0  0  0  0
  5 24  1  0  0  0  0
  6 25  1  0  0  0  0
  6 30  1  0  0  0  0
  7 11  1  0  0  0  0
  7 26  1  0  0  0  0
  7 31  1  0  0  0  0
  8 10  1  0  0  0  0
  8 12  1  0  0  0  0
  8 22  1  0  0  0  0
  9 32  1  0  0  0  0
  9 33  1  0  0  0  0
  9 34  1  0  0  0  0
 10 35  1  0  0  0  0
 10 36  1  0  0  0  0
 10 37  1  0  0  0  0
 11 18  2  0  0  0  0
 11 38  1  0  0  0  0
 12 27  2  0  0  0  0
 12 39  1  0  0  0  0
 13 14  2  0  0  0  0
 13 15  1  0  0  0  0
 13 40  1  0  0  0  0
 14 16  1  0  0  0  0
 14 41  1  0  0  0  0
 15 17  2  0  0  0  0
 15 42  1  0  0  0  0
 16 23  2  0  0  0  0
 16 43  1  0  0  0  0
 17 23  1  0  0  0  0
 17 44  1  0  0  0  0
 18 29  1  0  0  0  0
 18 45  1  0  0  0  0
 19 20  2  0  0  0  0
 19 24  1  0  0  0  0
 19 46  1  0  0  0  0
 20 25  1  0  0  0  0
 20 47  1  0  0  0  0
 21 25  2  0  0  0  0
 21 28  1  0  0  0  0
 21 48  1  0  0  0  0
 22 26  1  0  0  0  0
 24 28  2  0  0  0  0
 26 29  2  0  0  0  0
 27 28  1  0  0  0  0
 27 29  1  0  0  0  0
M  END
> <pdb_id>
5UVX

> <uniprot_id>
O60885

> <usmiles>
S(=O)(=O)(Nc1cc(c(Oc2ccccc2)cc1)C=3C4=C(NC=C4)C(=O)N(C3)C)C

$$$$
8O1_A_501
          07202411433D 1   1.00000     0.00000     0
            
 50 53  0  0  0  0            999 V2000
    7.8852   11.7668   16.8220 S   0  0  0  0  0  0  0  0  0  0  0  0
    6.6238   11.5061   17.4845 O   0  0  0  0  0  0  0  0  0  0  0  0
    8.1142   12.9730   16.0432 O   0  0  0  0  0  0  0  0  0  0  0  0
   16.6443   12.3292   16.4069 O   0  0  0  0  0  0  0  0  0  0  0  0
   15.5939   14.3145   18.3716 N   0  0  0  0  0  0  0  0  0  0  0  0
   12.1743   11.7758   20.9842 N   0  0  0  0  0  0  0  0  0  0  0  0
   14.6453   11.2196   16.6822 N   0  0  0  0  0  0  0  0  0  0  0  0
   15.0363   10.1439   15.7911 C   0  0  0  0  0  0  0  0  0  0  0  0
    7.8722    9.0177   16.5090 C   0  0  0  0  0  0  0  0  0  0  0  0
   14.7513   14.9396   19.2515 C   0  0  0  0  0  0  0  0  0  0  0  0
   13.3852   11.1601   17.2506 C   0  0  0  0  0  0  0  0  0  0  0  0
   13.5819   14.2297   19.3171 C   0  0  0  0  0  0  0  0  0  0  0  0
    8.8478   11.6739   19.3742 C   0  0  0  0  0  0  0  0  0  0  0  0
    9.8476   11.6747   20.3185 C   0  0  0  0  0  0  0  0  0  0  0  0
   10.5080   11.9012   17.6667 C   0  0  0  0  0  0  0  0  0  0  0  0
    8.2457   10.3230   15.8287 C   0  0  0  0  0  0  0  0  0  0  0  0
   11.8314   11.6359   22.3863 C   0  0  0  0  0  0  0  0  0  0  0  0
   13.9444   10.6474   23.4747 C   0  0  0  0  0  0  0  0  0  0  0  0
   13.0567   11.1468   24.5668 C   0  0  0  0  0  0  0  0  0  0  0  0
    9.1862   11.7707   18.0465 C   0  0  0  0  0  0  0  0  0  0  0  0
   15.5339   12.2359   16.9282 C   0  0  0  0  0  0  0  0  0  0  0  0
   11.1834   11.7868   19.9709 C   0  0  0  0  0  0  0  0  0  0  0  0
   14.9975   13.1901   17.8750 C   0  0  0  0  0  0  0  0  0  0  0  0
   12.8836   12.0606   18.1060 C   0  0  0  0  0  0  0  0  0  0  0  0
   13.7425   13.1313   18.4383 C   0  0  0  0  0  0  0  0  0  0  0  0
   11.5121   11.9089   18.6219 C   0  0  0  0  0  0  0  0  0  0  0  0
   13.0417   11.8155   23.2256 C   0  0  0  0  0  0  0  0  0  0  0  0
   16.5181   14.6401   18.1271 H   0  0  0  0  0  0  0  0  0  0  0  0
   13.1553   11.8302   20.7298 H   0  0  0  0  0  0  0  0  0  0  0  0
   16.1225   10.0708   15.7135 H   0  0  0  0  0  0  0  0  0  0  0  0
   14.6094   10.3048   14.8026 H   0  0  0  0  0  0  0  0  0  0  0  0
   14.6551    9.2066   16.2044 H   0  0  0  0  0  0  0  0  0  0  0  0
    8.1321    8.1703   15.8710 H   0  0  0  0  0  0  0  0  0  0  0  0
    6.7988    8.9744   16.7139 H   0  0  0  0  0  0  0  0  0  0  0  0
    8.4093    8.9141   17.4544 H   0  0  0  0  0  0  0  0  0  0  0  0
   15.0510   15.8522   19.7422 H   0  0  0  0  0  0  0  0  0  0  0  0
   12.7876   10.3161   16.9439 H   0  0  0  0  0  0  0  0  0  0  0  0
   12.7177   14.4695   19.9160 H   0  0  0  0  0  0  0  0  0  0  0  0
    7.8153   11.5756   19.6869 H   0  0  0  0  0  0  0  0  0  0  0  0
    9.5448   11.5801   21.3493 H   0  0  0  0  0  0  0  0  0  0  0  0
   10.7558   11.9933   16.6147 H   0  0  0  0  0  0  0  0  0  0  0  0
    7.6747   10.4316   14.9041 H   0  0  0  0  0  0  0  0  0  0  0  0
    9.3121   10.3434   15.5910 H   0  0  0  0  0  0  0  0  0  0  0  0
   11.1066   12.4013   22.6742 H   0  0  0  0  0  0  0  0  0  0  0  0
   11.3967   10.6487   22.5589 H   0  0  0  0  0  0  0  0  0  0  0  0
   13.6811    9.7211   22.9854 H   0  0  0  0  0  0  0  0  0  0  0  0
   15.0041   10.8298   23.5823 H   0  0  0  0  0  0  0  0  0  0  0  0
   13.5213   11.6772   25.3882 H   0  0  0  0  0  0  0  0  0  0  0  0
   12.2054   10.5355   24.8397 H   0  0  0  0  0  0  0  0  0  0  0  0
   13.4867   12.7959   23.1251 H   0  0  0  0  0  0  0  0  0  0  0  0
  1  2  2  0  0  0  0
  1  3  2  0  0  0  0
  1 16  1  0  0  0  0
  1 20  1  0  0  0  0
  4 21  2  0  0  0  0
  5 10  1  0  0  0  0
  5 23  1  0  0  0  0
  5 28  1  0  0  0  0
  6 17  1  0  0  0  0
  6 22  1  0  0  0  0
  6 29  1  0  0  0  0
  7  8  1  0  0  0  0
  7 11  1  0  0  0  0
  7 21  1  0  0  0  0
  8 30  1  0  0  0  0
  8 31  1  0  0  0  0
  8 32  1  0  0  0  0
  9 16  1  0  0  0  0
  9 33  1  0  0  0  0
  9 34  1  0  0  0  0
  9 35  1  0  0  0  0
 10 12  2  0  0  0  0
 10 36  1  0  0  0  0
 11 24  2  0  0  0  0
 11 37  1  0  0  0  0
 12 25  1  0  0  0  0
 12 38  1  0  0  0  0
 13 14  1  0  0  0  0
 13 20  2  0  0  0  0
 13 39  1  0  0  0  0
 14 22  2  0  0  0  0
 14 40  1  0  0  0  0
 15 20  1  0  0  0  0
 15 26  2  0  0  0  0
 15 41  1  0  0  0  0
 16 42  1  0  0  0  0
 16 43  1  0  0  0  0
 17 27  1  0  0  0  0
 17 44  1  0  0  0  0
 17 45  1  0  0  0  0
 18 19  1  0  0  0  0
 18 27  1  0  0  0  0
 18 46  1  0  0  0  0
 18 47  1  0  0  0  0
 19 27  1  0  0  0  0
 19 48  1  0  0  0  0
 19 49  1  0  0  0  0
 21 23  1  0  0  0  0
 22 26  1  0  0  0  0
 23 25  2  0  0  0  0
 24 25  1  0  0  0  0
 24 26  1  0  0  0  0
 27 50  1  0  0  0  0
M  END
> <pdb_id>
5UVS

> <uniprot_id>
O60885

> <usmiles>
S(=O)(=O)(c1cc(c(NCC2CC2)cc1)C=3C4=C(NC=C4)C(=O)N(C3)C)CC

$$$$
8O4_A_501
          07202411433D 1   1.00000     0.00000     0
            
 51 55  0  0  0  0            999 V2000
    7.3335   11.9738   16.5803 S   0  0  0  0  0  0  0  0  0  0  0  0
    6.3776   12.7346   17.3595 O   0  0  0  0  0  0  0  0  0  0  0  0
    8.4144   12.5844   15.8296 O   0  0  0  0  0  0  0  0  0  0  0  0
   16.4963   12.3581   16.4173 O   0  0  0  0  0  0  0  0  0  0  0  0
   15.6096   14.3451   18.4087 N   0  0  0  0  0  0  0  0  0  0  0  0
   14.4519   11.2923   16.7857 N   0  0  0  0  0  0  0  0  0  0  0  0
   11.9777   13.3291   21.0443 N   0  0  0  0  0  0  0  0  0  0  0  0
    6.4414   10.9174   15.4716 C   0  0  0  0  0  0  0  0  0  0  0  0
   14.7358   10.2229   15.8498 C   0  0  0  0  0  0  0  0  0  0  0  0
   14.8487   14.9584   19.3713 C   0  0  0  0  0  0  0  0  0  0  0  0
   13.2060   11.2754   17.4098 C   0  0  0  0  0  0  0  0  0  0  0  0
    9.7766   12.5986   20.5629 C   0  0  0  0  0  0  0  0  0  0  0  0
    8.7828   12.0166   19.8045 C   0  0  0  0  0  0  0  0  0  0  0  0
   10.4034   11.5538   18.1379 C   0  0  0  0  0  0  0  0  0  0  0  0
    8.0528   10.8233   17.7306 C   0  0  0  0  0  0  0  0  0  0  0  0
   12.5406   14.5328   20.4174 C   0  0  0  0  0  0  0  0  0  0  0  0
   12.9243   12.3971   21.6804 C   0  0  0  0  0  0  0  0  0  0  0  0
   12.0292   11.5957   23.9567 C   0  0  0  0  0  0  0  0  0  0  0  0
   13.0982   10.6406   23.5100 C   0  0  0  0  0  0  0  0  0  0  0  0
   15.3954   12.3009   16.9653 C   0  0  0  0  0  0  0  0  0  0  0  0
   14.9427   13.2501   17.9340 C   0  0  0  0  0  0  0  0  0  0  0  0
   11.0898   12.6804   20.1293 C   0  0  0  0  0  0  0  0  0  0  0  0
    9.0945   11.4916   18.5730 C   0  0  0  0  0  0  0  0  0  0  0  0
   13.6539   14.2815   19.4934 C   0  0  0  0  0  0  0  0  0  0  0  0
   11.4194   12.1368   18.8863 C   0  0  0  0  0  0  0  0  0  0  0  0
   12.7874   12.1960   18.3042 C   0  0  0  0  0  0  0  0  0  0  0  0
   13.7255   13.2091   18.5736 C   0  0  0  0  0  0  0  0  0  0  0  0
   12.2603   11.3477   22.4979 C   0  0  0  0  0  0  0  0  0  0  0  0
   16.5340   14.6349   18.1266 H   0  0  0  0  0  0  0  0  0  0  0  0
    5.7797   10.2747   16.0587 H   0  0  0  0  0  0  0  0  0  0  0  0
    5.8633   11.5425   14.7873 H   0  0  0  0  0  0  0  0  0  0  0  0
    7.1650   10.3133   14.9179 H   0  0  0  0  0  0  0  0  0  0  0  0
   15.7999   10.1821   15.6092 H   0  0  0  0  0  0  0  0  0  0  0  0
   14.1667   10.3706   14.9355 H   0  0  0  0  0  0  0  0  0  0  0  0
   14.4372    9.2781   16.3097 H   0  0  0  0  0  0  0  0  0  0  0  0
   15.2155   15.8463   19.8629 H   0  0  0  0  0  0  0  0  0  0  0  0
   12.5925   10.4407   17.1201 H   0  0  0  0  0  0  0  0  0  0  0  0
    9.5144   13.0107   21.5298 H   0  0  0  0  0  0  0  0  0  0  0  0
    7.7670   11.9674   20.1772 H   0  0  0  0  0  0  0  0  0  0  0  0
   10.6068   11.1306   17.1622 H   0  0  0  0  0  0  0  0  0  0  0  0
    7.2509   10.4312   18.3571 H   0  0  0  0  0  0  0  0  0  0  0  0
    8.5004   10.0160   17.1507 H   0  0  0  0  0  0  0  0  0  0  0  0
   11.7487   15.0767   19.8911 H   0  0  0  0  0  0  0  0  0  0  0  0
   12.9045   15.1849   21.2155 H   0  0  0  0  0  0  0  0  0  0  0  0
   13.5376   11.8933   20.9365 H   0  0  0  0  0  0  0  0  0  0  0  0
   13.5975   12.9715   22.3201 H   0  0  0  0  0  0  0  0  0  0  0  0
   11.1343   11.1856   24.4066 H   0  0  0  0  0  0  0  0  0  0  0  0
   12.3459   12.5491   24.3589 H   0  0  0  0  0  0  0  0  0  0  0  0
   12.9183    9.5846   23.6513 H   0  0  0  0  0  0  0  0  0  0  0  0
   14.1306   10.9471   23.6115 H   0  0  0  0  0  0  0  0  0  0  0  0
   11.5481   10.7465   21.9479 H   0  0  0  0  0  0  0  0  0  0  0  0
  1  2  2  0  0  0  0
  1  3  2  0  0  0  0
  1  8  1  0  0  0  0
  1 15  1  0  0  0  0
  4 20  2  0  0  0  0
  5 10  1  0  0  0  0
  5 21  1  0  0  0  0
  5 29  1  0  0  0  0
  6  9  1  0  0  0  0
  6 11  1  0  0  0  0
  6 20  1  0  0  0  0
  7 16  1  0  0  0  0
  7 17  1  0  0  0  0
  7 22  1  0  0  0  0
  8 30  1  0  0  0  0
  8 31  1  0  0  0  0
  8 32  1  0  0  0  0
  9 33  1  0  0  0  0
  9 34  1  0  0  0  0
  9 35  1  0  0  0  0
 10 24  2  0  0  0  0
 10 36  1  0  0  0  0
 11 26  2  0  0  0  0
 11 37  1  0  0  0  0
 12 13  1  0  0  0  0
 12 22  2  0  0  0  0
 12 38  1  0  0  0  0
 13 23  2  0  0  0  0
 13 39  1  0  0  0  0
 14 23  1  0  0  0  0
 14 25  2  0  0  0  0
 14 40  1  0  0  0  0
 15 23  1  0  0  0  0
 15 41  1  0  0  0  0
 15 42  1  0  0  0  0
 16 24  1  0  0  0  0
 16 43  1  0  0  0  0
 16 44  1  0  0  0  0
 17 28  1  0  0  0  0
 17 45  1  0  0  0  0
 17 46  1  0  0  0  0
 18 19  1  0  0  0  0
 18 28  1  0  0  0  0
 18 47  1  0  0  0  0
 18 48  1  0  0  0  0
 19 28  1  0  0  0  0
 19 49  1  0  0  0  0
 19 50  1  0  0  0  0
 20 21  1  0  0  0  0
 21 27  2  0  0  0  0
 22 25  1  0  0  0  0
 24 27  1  0  0  0  0
 25 26  1  0  0  0  0
 26 27  1  0  0  0  0
 28 51  1  0  0  0  0
M  END
> <pdb_id>
5UVU

> <uniprot_id>
O60885

> <usmiles>
S(=O)(=O)(Cc1cc2c(N(CC=3C4=C(NC3)C(=O)N(C=C24)C)CC5CC5)cc1)C

$$$$
8OU_B_701
          07192419173D 1   1.00000     0.00000     0
            
 50 54  0  0  0  0            999 V2000
    3.8168   -1.5695   16.3285 O   0  0  0  0  0  0  0  0  0  0  0  0
   -0.9857    5.3876   11.8520 O   0  0  0  0  0  0  0  0  0  0  0  0
   -4.1432   -2.5224   15.2827 N   0  0  0  0  0  0  0  0  0  0  0  0
    5.6777   -0.3475   15.8431 N   0  0  0  0  0  0  0  0  0  0  0  0
    1.6487    0.5583   13.4973 N   0  0  0  0  0  0  0  0  0  0  0  0
    3.5495    1.7864   13.0488 N   0  0  0  0  0  0  0  0  0  0  0  0
    1.5300   -1.2148   15.1410 N   0  0  0  0  0  0  0  0  0  0  0  0
   -3.8621   -1.6272   14.4868 N   0  0  0  0  0  0  0  0  0  0  0  0
    1.5487    2.2568   11.8620 N   0  0  0  0  0  0  0  0  0  0  0  0
   -4.8091   -0.8720   13.5817 C   0  0  0  0  0  0  0  0  0  0  0  0
    6.2605    0.6249   15.1431 C   0  0  0  0  0  0  0  0  0  0  0  0
   -3.0376   -2.9570   15.9069 C   0  0  0  0  0  0  0  0  0  0  0  0
    0.1556    1.9404   11.4179 C   0  0  0  0  0  0  0  0  0  0  0  0
    2.0776    3.4813   11.2108 C   0  0  0  0  0  0  0  0  0  0  0  0
    5.5521    1.3511   14.1950 C   0  0  0  0  0  0  0  0  0  0  0  0
   -0.7232    3.0147   11.7988 C   0  0  0  0  0  0  0  0  0  0  0  0
    1.2719    4.6492   11.7366 C   0  0  0  0  0  0  0  0  0  0  0  0
   -0.4929   -0.5454   14.1034 C   0  0  0  0  0  0  0  0  0  0  0  0
   -1.8269   -0.5896   13.8797 C   0  0  0  0  0  0  0  0  0  0  0  0
   -0.6549   -2.2599   15.7011 C   0  0  0  0  0  0  0  0  0  0  0  0
    2.2484    1.5458   12.7951 C   0  0  0  0  0  0  0  0  0  0  0  0
    4.3224   -0.6654   15.6596 C   0  0  0  0  0  0  0  0  0  0  0  0
    2.2152   -0.2177   14.4567 C   0  0  0  0  0  0  0  0  0  0  0  0
   -0.1619    4.3631   11.3050 C   0  0  0  0  0  0  0  0  0  0  0  0
    0.1766   -1.3492   15.0040 C   0  0  0  0  0  0  0  0  0  0  0  0
    4.2116    1.0586   13.9727 C   0  0  0  0  0  0  0  0  0  0  0  0
   -2.5591   -1.4376   14.5496 C   0  0  0  0  0  0  0  0  0  0  0  0
   -1.9983   -2.2657   15.4453 C   0  0  0  0  0  0  0  0  0  0  0  0
    3.5752    0.0355   14.7115 C   0  0  0  0  0  0  0  0  0  0  0  0
   -0.6504    6.2807   11.5519 H   0  0  0  0  0  0  0  0  0  0  0  0
    6.2157   -0.8607   16.5118 H   0  0  0  0  0  0  0  0  0  0  0  0
    2.0319   -1.8397   15.7390 H   0  0  0  0  0  0  0  0  0  0  0  0
   -4.2950   -0.2021   13.0459 H   0  0  0  0  0  0  0  0  0  0  0  0
   -5.2637   -1.5143   12.9646 H   0  0  0  0  0  0  0  0  0  0  0  0
   -5.4948   -0.4002   14.1359 H   0  0  0  0  0  0  0  0  0  0  0  0
    7.2249    0.8354   15.3034 H   0  0  0  0  0  0  0  0  0  0  0  0
   -3.0009   -3.6768   16.6001 H   0  0  0  0  0  0  0  0  0  0  0  0
   -0.1480    1.0917   11.8509 H   0  0  0  0  0  0  0  0  0  0  0  0
    0.1387    1.8320   10.4239 H   0  0  0  0  0  0  0  0  0  0  0  0
    1.9754    3.4133   10.2184 H   0  0  0  0  0  0  0  0  0  0  0  0
    3.0438    3.6009   11.4390 H   0  0  0  0  0  0  0  0  0  0  0  0
    6.0024    2.0782   13.6767 H   0  0  0  0  0  0  0  0  0  0  0  0
   -0.8057    3.0364   12.7951 H   0  0  0  0  0  0  0  0  0  0  0  0
   -1.6245    2.8638   11.3928 H   0  0  0  0  0  0  0  0  0  0  0  0
    1.5948    5.5073   11.3375 H   0  0  0  0  0  0  0  0  0  0  0  0
    1.3358    4.7003   12.7332 H   0  0  0  0  0  0  0  0  0  0  0  0
    0.0451    0.1155   13.5801 H   0  0  0  0  0  0  0  0  0  0  0  0
   -2.2471    0.0208   13.2083 H   0  0  0  0  0  0  0  0  0  0  0  0
   -0.2644   -2.8906   16.3718 H   0  0  0  0  0  0  0  0  0  0  0  0
   -0.2168    4.3956   10.3070 H   0  0  0  0  0  0  0  0  0  0  0  0
  1 22  2  0  0  0  0
  2 24  1  0  0  0  0
  3  8  1  0  0  0  0
  3 12  2  0  0  0  0
  4 11  1  0  0  0  0
  4 22  1  0  0  0  0
  5 21  2  0  0  0  0
  5 23  1  0  0  0  0
  6 21  1  0  0  0  0
  6 26  2  0  0  0  0
  7 23  1  0  0  0  0
  7 25  1  0  0  0  0
  8 10  1  0  0  0  0
  8 27  1  0  0  0  0
  9 13  1  0  0  0  0
  9 14  1  0  0  0  0
  9 21  1  0  0  0  0
 11 15  2  0  0  0  0
 12 28  1  0  0  0  0
 13 16  1  0  0  0  0
 14 17  1  0  0  0  0
 15 26  1  0  0  0  0
 16 24  1  0  0  0  0
 17 24  1  0  0  0  0
 18 19  1  0  0  0  0
 18 25  2  0  0  0  0
 19 27  2  0  0  0  0
 20 25  1  0  0  0  0
 20 28  2  0  0  0  0
 22 29  1  0  0  0  0
 23 29  2  0  0  0  0
 26 29  1  0  0  0  0
 27 28  1  0  0  0  0
  2 30  1  0  0  0  0
  4 31  1  0  0  0  0
  7 32  1  0  0  0  0
 10 33  1  0  0  0  0
 10 34  1  0  0  0  0
 10 35  1  0  0  0  0
 11 36  1  0  0  0  0
 12 37  1  0  0  0  0
 13 38  1  0  0  0  0
 13 39  1  0  0  0  0
 14 40  1  0  0  0  0
 14 41  1  0  0  0  0
 15 42  1  0  0  0  0
 16 43  1  0  0  0  0
 16 44  1  0  0  0  0
 17 45  1  0  0  0  0
 17 46  1  0  0  0  0
 18 47  1  0  0  0  0
 19 48  1  0  0  0  0
 20 49  1  0  0  0  0
 24 50  1  0  0  0  0
M  END
> <pdb_id>
5Y5U

> <uniprot_id>
P43405

> <usmiles>
O=C1NC=Cc2nc(nc(Nc3cc4c(N(N=C4)C)cc3)c21)N5CCC(O)CC5

$$$$
8P9_A_203
          07212401333D 1   1.00000     0.00000     0
            
 40 42  0  0  0  0            999 V2000
  -17.4048  -21.8009  -15.0531 Cl  0  0  0  0  0  0  0  0  0  0  0  0
  -12.7788  -21.1125  -17.5816 S   0  0  0  0  0  0  0  0  0  0  0  0
  -13.6085  -20.0095  -18.1034 O   0  0  0  0  0  0  0  0  0  0  0  0
  -11.5148  -20.7160  -16.9200 O   0  0  0  0  0  0  0  0  0  0  0  0
  -16.2385  -23.9251  -22.3704 O   0  0  0  0  0  0  0  0  0  0  0  0
  -11.9539  -23.5176  -16.1458 O   0  0  0  0  0  0  0  0  0  0  0  0
  -12.8441  -24.6707  -18.9599 O   0  0  0  0  0  0  0  0  0  0  0  0
  -12.4374  -22.1265  -18.8753 N   0  0  0  0  0  0  0  0  0  0  0  0
  -16.7046  -22.6036  -22.8709 N   0  0  0  0  0  0  0  0  0  0  0  0
  -11.3920  -24.7152  -15.5776 C   0  0  0  0  0  0  0  0  0  0  0  0
  -13.1583  -26.0782  -18.8066 C   0  0  0  0  0  0  0  0  0  0  0  0
  -16.1470  -20.2003  -22.5008 C   0  0  0  0  0  0  0  0  0  0  0  0
  -15.3584  -23.4672  -14.7252 C   0  0  0  0  0  0  0  0  0  0  0  0
  -14.0700  -23.8949  -14.9740 C   0  0  0  0  0  0  0  0  0  0  0  0
  -15.0464  -21.6110  -16.2207 C   0  0  0  0  0  0  0  0  0  0  0  0
  -14.5839  -24.4402  -20.6700 C   0  0  0  0  0  0  0  0  0  0  0  0
  -14.1921  -21.6992  -20.5491 C   0  0  0  0  0  0  0  0  0  0  0  0
  -15.8321  -22.3293  -15.3560 C   0  0  0  0  0  0  0  0  0  0  0  0
  -13.7483  -22.0264  -16.4705 C   0  0  0  0  0  0  0  0  0  0  0  0
  -15.2750  -23.5965  -21.4333 C   0  0  0  0  0  0  0  0  0  0  0  0
  -13.2537  -23.1771  -15.8642 C   0  0  0  0  0  0  0  0  0  0  0  0
  -13.6286  -23.9255  -19.7922 C   0  0  0  0  0  0  0  0  0  0  0  0
  -15.9721  -21.6866  -22.2420 C   0  0  0  0  0  0  0  0  0  0  0  0
  -13.4326  -22.5405  -19.7158 C   0  0  0  0  0  0  0  0  0  0  0  0
  -15.1307  -22.2401  -21.3689 C   0  0  0  0  0  0  0  0  0  0  0  0
  -11.4977  -22.4304  -19.0323 H   0  0  0  0  0  0  0  0  0  0  0  0
  -10.4442  -24.8150  -15.8806 H   0  0  0  0  0  0  0  0  0  0  0  0
  -11.4184  -24.6550  -14.5798 H   0  0  0  0  0  0  0  0  0  0  0  0
  -11.9230  -25.5076  -15.8779 H   0  0  0  0  0  0  0  0  0  0  0  0
  -12.5081  -26.4978  -18.1732 H   0  0  0  0  0  0  0  0  0  0  0  0
  -14.0856  -26.1753  -18.4451 H   0  0  0  0  0  0  0  0  0  0  0  0
  -13.0978  -26.5320  -19.6956 H   0  0  0  0  0  0  0  0  0  0  0  0
  -15.5058  -19.6852  -21.9319 H   0  0  0  0  0  0  0  0  0  0  0  0
  -15.9670  -20.0064  -23.4652 H   0  0  0  0  0  0  0  0  0  0  0  0
  -17.0833  -19.9306  -22.2757 H   0  0  0  0  0  0  0  0  0  0  0  0
  -15.9451  -23.9751  -14.0944 H   0  0  0  0  0  0  0  0  0  0  0  0
  -13.7180  -24.7142  -14.5215 H   0  0  0  0  0  0  0  0  0  0  0  0
  -15.4079  -20.7929  -16.6679 H   0  0  0  0  0  0  0  0  0  0  0  0
  -14.7463  -25.4254  -20.7245 H   0  0  0  0  0  0  0  0  0  0  0  0
  -14.0423  -20.7105  -20.5380 H   0  0  0  0  0  0  0  0  0  0  0  0
  1 18  1  0  0  0  0
  2  3  2  0  0  0  0
  2  4  2  0  0  0  0
  2  8  1  0  0  0  0
  2 19  1  0  0  0  0
  5  9  1  0  0  0  0
  5 20  1  0  0  0  0
  6 10  1  0  0  0  0
  6 21  1  0  0  0  0
  7 11  1  0  0  0  0
  7 22  1  0  0  0  0
  8 24  1  0  0  0  0
  9 23  2  0  0  0  0
 12 23  1  0  0  0  0
 13 14  2  0  0  0  0
 13 18  1  0  0  0  0
 14 21  1  0  0  0  0
 15 18  2  0  0  0  0
 15 19  1  0  0  0  0
 16 20  2  0  0  0  0
 16 22  1  0  0  0  0
 17 24  1  0  0  0  0
 17 25  2  0  0  0  0
 19 21  2  0  0  0  0
 20 25  1  0  0  0  0
 22 24  2  0  0  0  0
 23 25  1  0  0  0  0
  8 26  1  0  0  0  0
 10 27  1  0  0  0  0
 10 28  1  0  0  0  0
 10 29  1  0  0  0  0
 11 30  1  0  0  0  0
 11 31  1  0  0  0  0
 11 32  1  0  0  0  0
 12 33  1  0  0  0  0
 12 34  1  0  0  0  0
 12 35  1  0  0  0  0
 13 36  1  0  0  0  0
 14 37  1  0  0  0  0
 15 38  1  0  0  0  0
 16 39  1  0  0  0  0
 17 40  1  0  0  0  0
M  END
> <pdb_id>
5Y8C

> <uniprot_id>
O60885

> <usmiles>
Clc1cc(S(=O)(=O)Nc2c(OC)cc3ON=C(c3c2)C)c(OC)cc1

$$$$
8PC_A_400
          07202412533D 1   1.00000     0.00000     0
            
 36 38  0  0  0  0            999 V2000
   23.6806   54.6374  -12.9470 Cl  0  0  0  0  0  0  0  0  0  0  0  0
   22.9582   49.8667  -10.5315 Cl  0  0  0  0  0  0  0  0  0  0  0  0
   27.9439   49.1740  -10.4937 O   0  0  0  0  0  0  0  0  0  0  0  0
   25.6059   49.2059  -11.8750 O   0  0  0  0  0  0  0  0  0  0  0  0
   30.9184   47.6586  -16.4119 N   0  0  0  0  0  0  0  0  0  0  0  0
   31.5575   48.5017  -17.2506 C   0  0  0  0  0  0  0  0  0  0  0  0
   32.3101   49.5822  -16.7661 C   0  0  0  0  0  0  0  0  0  0  0  0
   32.3874   49.7834  -15.3919 C   0  0  0  0  0  0  0  0  0  0  0  0
   25.4435   52.5832  -13.1649 C   0  0  0  0  0  0  0  0  0  0  0  0
   31.7058   48.9060  -14.5441 C   0  0  0  0  0  0  0  0  0  0  0  0
   25.9139   51.3112  -12.9168 C   0  0  0  0  0  0  0  0  0  0  0  0
   26.6596   48.1208  -13.7224 C   0  0  0  0  0  0  0  0  0  0  0  0
   27.8150   47.5665  -14.2735 C   0  0  0  0  0  0  0  0  0  0  0  0
   23.4954   52.1738  -11.8124 C   0  0  0  0  0  0  0  0  0  0  0  0
   29.0594   48.0680  -12.2838 C   0  0  0  0  0  0  0  0  0  0  0  0
   30.2401   46.8887  -14.1626 C   0  0  0  0  0  0  0  0  0  0  0  0
   24.2513   52.9993  -12.6134 C   0  0  0  0  0  0  0  0  0  0  0  0
   23.9582   50.8993  -11.5755 C   0  0  0  0  0  0  0  0  0  0  0  0
   27.9083   48.6265  -11.7296 C   0  0  0  0  0  0  0  0  0  0  0  0
   25.1613   50.4692  -12.1164 C   0  0  0  0  0  0  0  0  0  0  0  0
   26.7145   48.6546  -12.4476 C   0  0  0  0  0  0  0  0  0  0  0  0
   30.9710   47.8423  -15.0762 C   0  0  0  0  0  0  0  0  0  0  0  0
   29.0073   47.5296  -13.5632 C   0  0  0  0  0  0  0  0  0  0  0  0
   27.1161   49.5735  -10.0998 H   0  0  0  0  0  0  0  0  0  0  0  0
   31.4932   48.3531  -18.2374 H   0  0  0  0  0  0  0  0  0  0  0  0
   32.7826   50.1969  -17.3977 H   0  0  0  0  0  0  0  0  0  0  0  0
   32.9209   50.5419  -15.0175 H   0  0  0  0  0  0  0  0  0  0  0  0
   25.9684   53.2050  -13.7460 H   0  0  0  0  0  0  0  0  0  0  0  0
   31.7439   49.0394  -13.5537 H   0  0  0  0  0  0  0  0  0  0  0  0
   26.7814   51.0031  -13.3074 H   0  0  0  0  0  0  0  0  0  0  0  0
   25.8047   48.1321  -14.2410 H   0  0  0  0  0  0  0  0  0  0  0  0
   27.7839   47.1881  -15.1987 H   0  0  0  0  0  0  0  0  0  0  0  0
   22.6347   52.4908  -11.4140 H   0  0  0  0  0  0  0  0  0  0  0  0
   29.9143   48.0551  -11.7652 H   0  0  0  0  0  0  0  0  0  0  0  0
   30.8543   46.6117  -13.4236 H   0  0  0  0  0  0  0  0  0  0  0  0
   29.9651   46.0829  -14.6870 H   0  0  0  0  0  0  0  0  0  0  0  0
  1 17  1  0  0  0  0
  2 18  1  0  0  0  0
  3 19  1  0  0  0  0
  4 20  1  0  0  0  0
  4 21  1  0  0  0  0
  5  6  2  0  0  0  0
  5 22  1  0  0  0  0
  6  7  1  0  0  0  0
  7  8  2  0  0  0  0
  8 10  1  0  0  0  0
  9 11  2  0  0  0  0
  9 17  1  0  0  0  0
 10 22  2  0  0  0  0
 11 20  1  0  0  0  0
 12 13  1  0  0  0  0
 12 21  2  0  0  0  0
 13 23  2  0  0  0  0
 14 17  2  0  0  0  0
 14 18  1  0  0  0  0
 15 19  2  0  0  0  0
 15 23  1  0  0  0  0
 16 22  1  0  0  0  0
 16 23  1  0  0  0  0
 18 20  2  0  0  0  0
 19 21  1  0  0  0  0
  3 24  1  0  0  0  0
  6 25  1  0  0  0  0
  7 26  1  0  0  0  0
  8 27  1  0  0  0  0
  9 28  1  0  0  0  0
 10 29  1  0  0  0  0
 11 30  1  0  0  0  0
 12 31  1  0  0  0  0
 13 32  1  0  0  0  0
 14 33  1  0  0  0  0
 15 34  1  0  0  0  0
 16 35  1  0  0  0  0
 16 36  1  0  0  0  0
M  END
> <pdb_id>
3FNE

> <uniprot_id>
P0A5Y6

> <usmiles>
Clc1c(Oc2c(O)cc(cc2)Cc3ncccc3)ccc(Cl)c1

$$$$
8PL_B_303
          07202410153D 1   1.00000     0.00000     0
            
 32 32  0  0  0  0            999 V2000
  -35.3723  -10.3868   68.0107 S   0  0  0  0  0  0  0  0  0  0  0  0
  -32.2633   -1.4451   68.2082 F   0  0  0  0  0  0  0  0  0  0  0  0
  -36.0813   -7.1463   68.2868 O   0  0  0  0  0  0  0  0  0  0  0  0
  -36.5100   -5.7958   66.6216 O   0  0  0  0  0  0  0  0  0  0  0  0
  -33.4614   -8.8061   65.3959 O   0  0  0  0  0  0  0  0  0  0  0  0
  -33.6878   -7.7208   67.3674 N   0  0  0  0  0  0  0  0  0  0  0  0
  -31.5563  -10.6227   66.4984 C   0  0  0  0  0  0  0  0  0  0  0  0
  -33.9137  -11.1248   67.2086 C   0  0  0  0  0  0  0  0  0  0  0  0
  -32.9989   -3.6318   68.8315 C   0  0  0  0  0  0  0  0  0  0  0  0
  -32.9909   -2.9759   66.5219 C   0  0  0  0  0  0  0  0  0  0  0  0
  -33.4810   -4.8799   68.4683 C   0  0  0  0  0  0  0  0  0  0  0  0
  -33.4750   -4.2331   66.1535 C   0  0  0  0  0  0  0  0  0  0  0  0
  -35.7193   -6.5161   67.2425 C   0  0  0  0  0  0  0  0  0  0  0  0
  -32.7427   -2.6797   67.8522 C   0  0  0  0  0  0  0  0  0  0  0  0
  -33.3024   -8.8438   66.5636 C   0  0  0  0  0  0  0  0  0  0  0  0
  -34.2740   -6.5493   66.7405 C   0  0  1  0  0  0  0  0  0  0  0  0
  -32.7579  -10.1036   67.2465 C   0  0  2  0  0  0  0  0  0  0  0  0
  -33.7061   -5.1908   67.1362 C   0  0  0  0  0  0  0  0  0  0  0  0
  -36.1291  -11.0402   67.9923 H   0  0  0  0  0  0  0  0  0  0  0  0
  -35.4265   -7.7236   68.7746 H   0  0  0  0  0  0  0  0  0  0  0  0
  -33.5532   -7.7442   68.3580 H   0  0  0  0  0  0  0  0  0  0  0  0
  -30.8217   -9.9453   66.5366 H   0  0  0  0  0  0  0  0  0  0  0  0
  -31.2455  -11.4756   66.9178 H   0  0  0  0  0  0  0  0  0  0  0  0
  -31.8048  -10.7915   65.5446 H   0  0  0  0  0  0  0  0  0  0  0  0
  -34.1309  -11.3520   66.2592 H   0  0  0  0  0  0  0  0  0  0  0  0
  -33.6452  -11.9550   67.6970 H   0  0  0  0  0  0  0  0  0  0  0  0
  -32.8362   -3.4174   69.7946 H   0  0  0  0  0  0  0  0  0  0  0  0
  -32.8221   -2.2841   65.8198 H   0  0  0  0  0  0  0  0  0  0  0  0
  -33.6681   -5.5628   69.1744 H   0  0  0  0  0  0  0  0  0  0  0  0
  -33.6539   -4.4431   65.1923 H   0  0  0  0  0  0  0  0  0  0  0  0
  -34.2593   -6.6499   65.7457 H   0  0  0  0  0  0  0  0  0  0  0  0
  -32.5106   -9.9005   68.1939 H   0  0  0  0  0  0  0  0  0  0  0  0
  1  8  1  0  0  0  0
  2 14  1  0  0  0  0
  3 13  1  0  0  0  0
  4 13  2  0  0  0  0
  5 15  2  0  0  0  0
  6 15  1  0  0  0  0
  6 16  1  0  0  0  0
  7 17  1  0  0  0  0
  8 17  1  0  0  0  0
  9 11  2  0  0  0  0
  9 14  1  0  0  0  0
 10 12  1  0  0  0  0
 10 14  2  0  0  0  0
 11 18  1  0  0  0  0
 12 18  2  0  0  0  0
 13 16  1  0  0  0  0
 15 17  1  0  0  0  0
 16 18  1  0  0  0  0
  1 19  1  0  0  0  0
  3 20  1  0  0  0  0
  6 21  1  0  0  0  0
  7 22  1  0  0  0  0
  7 23  1  0  0  0  0
  7 24  1  0  0  0  0
  8 25  1  0  0  0  0
  8 26  1  0  0  0  0
  9 27  1  0  0  0  0
 10 28  1  0  0  0  0
 11 29  1  0  0  0  0
 12 30  1  0  0  0  0
 16 31  1  0  0  0  0
 17 32  1  0  0  0  0
M  END
> <pdb_id>
5Y6D

> <uniprot_id>
Q9K2N0

> <usmiles>
SC[C@H](C(=O)N[C@H](c1ccc(F)cc1)C(=O)O)C

$$$$
8PO_B_304
          07202410153D 1   1.00000     0.00000     0
            
 33 33  0  0  0  0            999 V2000
  -35.4450  -10.5230   67.9811 S   0  0  0  0  0  0  0  0  0  0  0  0
  -35.9182   -7.1634   68.2690 O   0  0  0  0  0  0  0  0  0  0  0  0
  -36.5265   -5.9580   66.5463 O   0  0  0  0  0  0  0  0  0  0  0  0
  -33.3921   -8.7439   65.3340 O   0  0  0  0  0  0  0  0  0  0  0  0
  -32.1674   -1.5499   68.6649 O   0  0  0  0  0  0  0  0  0  0  0  0
  -33.6395   -7.7213   67.3278 N   0  0  0  0  0  0  0  0  0  0  0  0
  -31.6054  -10.6306   66.4218 C   0  0  0  0  0  0  0  0  0  0  0  0
  -33.9605  -11.1056   67.1104 C   0  0  0  0  0  0  0  0  0  0  0  0
  -32.9399   -2.9493   66.8685 C   0  0  0  0  0  0  0  0  0  0  0  0
  -32.8630   -3.8235   69.1005 C   0  0  0  0  0  0  0  0  0  0  0  0
  -33.4068   -4.1609   66.4111 C   0  0  0  0  0  0  0  0  0  0  0  0
  -33.3305   -5.0455   68.6464 C   0  0  0  0  0  0  0  0  0  0  0  0
  -35.6341   -6.5351   67.2106 C   0  0  0  0  0  0  0  0  0  0  0  0
  -33.2989   -8.8266   66.5085 C   0  0  0  0  0  0  0  0  0  0  0  0
  -32.6571   -2.7810   68.2152 C   0  0  0  0  0  0  0  0  0  0  0  0
  -34.1715   -6.5076   66.7535 C   0  0  1  0  0  0  0  0  0  0  0  0
  -32.8177  -10.0984   67.1939 C   0  0  2  0  0  0  0  0  0  0  0  0
  -33.6074   -5.2083   67.2997 C   0  0  0  0  0  0  0  0  0  0  0  0
  -36.1682  -11.2093   67.9030 H   0  0  0  0  0  0  0  0  0  0  0  0
  -35.1959   -7.6193   68.7891 H   0  0  0  0  0  0  0  0  0  0  0  0
  -31.9604   -1.4181   69.6343 H   0  0  0  0  0  0  0  0  0  0  0  0
  -33.5097   -7.7827   68.3174 H   0  0  0  0  0  0  0  0  0  0  0  0
  -30.8577   -9.9689   66.4779 H   0  0  0  0  0  0  0  0  0  0  0  0
  -31.3119  -11.4997   66.8200 H   0  0  0  0  0  0  0  0  0  0  0  0
  -31.8555  -10.7705   65.4638 H   0  0  0  0  0  0  0  0  0  0  0  0
  -34.1885  -11.2564   66.1485 H   0  0  0  0  0  0  0  0  0  0  0  0
  -33.6623  -11.9672   67.5213 H   0  0  0  0  0  0  0  0  0  0  0  0
  -32.8048   -2.1916   66.2300 H   0  0  0  0  0  0  0  0  0  0  0  0
  -32.6732   -3.6943   70.0738 H   0  0  0  0  0  0  0  0  0  0  0  0
  -33.6015   -4.2866   65.4383 H   0  0  0  0  0  0  0  0  0  0  0  0
  -33.4667   -5.8029   69.2850 H   0  0  0  0  0  0  0  0  0  0  0  0
  -34.1104   -6.5300   65.7556 H   0  0  0  0  0  0  0  0  0  0  0  0
  -32.5768   -9.9161   68.1472 H   0  0  0  0  0  0  0  0  0  0  0  0
  1  8  1  0  0  0  0
  2 13  1  0  0  0  0
  3 13  2  0  0  0  0
  4 14  2  0  0  0  0
  5 15  1  0  0  0  0
  6 14  1  0  0  0  0
  6 16  1  0  0  0  0
  7 17  1  0  0  0  0
  8 17  1  0  0  0  0
  9 11  1  0  0  0  0
  9 15  2  0  0  0  0
 10 12  2  0  0  0  0
 10 15  1  0  0  0  0
 11 18  2  0  0  0  0
 12 18  1  0  0  0  0
 13 16  1  0  0  0  0
 14 17  1  0  0  0  0
 16 18  1  0  0  0  0
  1 19  1  0  0  0  0
  2 20  1  0  0  0  0
  5 21  1  0  0  0  0
  6 22  1  0  0  0  0
  7 23  1  0  0  0  0
  7 24  1  0  0  0  0
  7 25  1  0  0  0  0
  8 26  1  0  0  0  0
  8 27  1  0  0  0  0
  9 28  1  0  0  0  0
 10 29  1  0  0  0  0
 11 30  1  0  0  0  0
 12 31  1  0  0  0  0
 16 32  1  0  0  0  0
 17 33  1  0  0  0  0
M  END
> <pdb_id>
5Y6E

> <uniprot_id>
Q9K2N0

> <usmiles>
SC[C@H](C(=O)N[C@H](c1ccc(O)cc1)C(=O)O)C

$$$$
8PU_A_201
          07212401333D 1   1.00000     0.00000     0
            
 37 39  0  0  0  0            999 V2000
  -17.5251  -21.8404  -14.9811 Br  0  0  0  0  0  0  0  0  0  0  0  0
  -12.8598  -20.8077  -17.6450 S   0  0  0  0  0  0  0  0  0  0  0  0
  -13.7525  -19.6778  -18.0846 O   0  0  0  0  0  0  0  0  0  0  0  0
  -11.6206  -20.3684  -16.9630 O   0  0  0  0  0  0  0  0  0  0  0  0
  -12.5923  -24.3599  -19.0197 O   0  0  0  0  0  0  0  0  0  0  0  0
  -16.1127  -23.8879  -22.3517 O   0  0  0  0  0  0  0  0  0  0  0  0
  -11.7907  -23.2618  -16.1838 O   0  0  0  0  0  0  0  0  0  0  0  0
  -12.4099  -21.7377  -18.9241 N   0  0  0  0  0  0  0  0  0  0  0  0
  -16.6918  -22.6600  -22.9080 N   0  0  0  0  0  0  0  0  0  0  0  0
  -11.2860  -24.6273  -15.9423 C   0  0  0  0  0  0  0  0  0  0  0  0
  -16.3783  -20.2214  -22.5772 C   0  0  0  0  0  0  0  0  0  0  0  0
  -15.1581  -23.3949  -14.7877 C   0  0  0  0  0  0  0  0  0  0  0  0
  -13.8392  -23.7341  -15.0324 C   0  0  0  0  0  0  0  0  0  0  0  0
  -14.9693  -21.5237  -16.2557 C   0  0  0  0  0  0  0  0  0  0  0  0
  -14.3024  -24.2345  -20.6728 C   0  0  0  0  0  0  0  0  0  0  0  0
  -14.1922  -21.4944  -20.5525 C   0  0  0  0  0  0  0  0  0  0  0  0
  -15.7272  -22.2919  -15.3550 C   0  0  0  0  0  0  0  0  0  0  0  0
  -13.6762  -21.8485  -16.5364 C   0  0  0  0  0  0  0  0  0  0  0  0
  -13.4081  -23.6427  -19.8060 C   0  0  0  0  0  0  0  0  0  0  0  0
  -13.0915  -22.9665  -15.9388 C   0  0  0  0  0  0  0  0  0  0  0  0
  -15.1350  -23.4918  -21.4267 C   0  0  0  0  0  0  0  0  0  0  0  0
  -16.0294  -21.6709  -22.2636 C   0  0  0  0  0  0  0  0  0  0  0  0
  -13.3319  -22.2398  -19.7387 C   0  0  0  0  0  0  0  0  0  0  0  0
  -15.0944  -22.1164  -21.4054 C   0  0  0  0  0  0  0  0  0  0  0  0
  -11.9565  -23.8956  -18.4032 H   0  0  0  0  0  0  0  0  0  0  0  0
  -11.4417  -21.9257  -19.0891 H   0  0  0  0  0  0  0  0  0  0  0  0
  -10.3140  -24.6691  -16.1734 H   0  0  0  0  0  0  0  0  0  0  0  0
  -11.4099  -24.8628  -14.9783 H   0  0  0  0  0  0  0  0  0  0  0  0
  -11.7922  -25.2752  -16.5115 H   0  0  0  0  0  0  0  0  0  0  0  0
  -15.8073  -19.6141  -22.0250 H   0  0  0  0  0  0  0  0  0  0  0  0
  -16.2151  -20.0417  -23.5473 H   0  0  0  0  0  0  0  0  0  0  0  0
  -17.3417  -20.0572  -22.3653 H   0  0  0  0  0  0  0  0  0  0  0  0
  -15.7066  -23.9710  -14.1817 H   0  0  0  0  0  0  0  0  0  0  0  0
  -13.4237  -24.5168  -14.5690 H   0  0  0  0  0  0  0  0  0  0  0  0
  -15.3848  -20.7280  -16.6964 H   0  0  0  0  0  0  0  0  0  0  0  0
  -14.3331  -25.2316  -20.7428 H   0  0  0  0  0  0  0  0  0  0  0  0
  -14.1566  -20.4956  -20.5193 H   0  0  0  0  0  0  0  0  0  0  0  0
  1 17  1  0  0  0  0
  2  3  2  0  0  0  0
  2  4  2  0  0  0  0
  2  8  1  0  0  0  0
  2 18  1  0  0  0  0
  5 19  1  0  0  0  0
  6  9  1  0  0  0  0
  6 21  1  0  0  0  0
  7 10  1  0  0  0  0
  7 20  1  0  0  0  0
  8 23  1  0  0  0  0
  9 22  2  0  0  0  0
 11 22  1  0  0  0  0
 12 13  2  0  0  0  0
 12 17  1  0  0  0  0
 13 20  1  0  0  0  0
 14 17  2  0  0  0  0
 14 18  1  0  0  0  0
 15 19  2  0  0  0  0
 15 21  1  0  0  0  0
 16 23  2  0  0  0  0
 16 24  1  0  0  0  0
 18 20  2  0  0  0  0
 19 23  1  0  0  0  0
 21 24  2  0  0  0  0
 22 24  1  0  0  0  0
  5 25  1  0  0  0  0
  8 26  1  0  0  0  0
 10 27  1  0  0  0  0
 10 28  1  0  0  0  0
 10 29  1  0  0  0  0
 11 30  1  0  0  0  0
 11 31  1  0  0  0  0
 11 32  1  0  0  0  0
 12 33  1  0  0  0  0
 13 34  1  0  0  0  0
 14 35  1  0  0  0  0
 15 36  1  0  0  0  0
 16 37  1  0  0  0  0
M  END
> <pdb_id>
5Y8W

> <uniprot_id>
O60885

> <usmiles>
Brc1cc(S(=O)(=O)Nc2c(O)cc3ON=C(c3c2)C)c(OC)cc1

$$$$
8PX_A_206
          07212401333D 1   1.00000     0.00000     0
            
 40 42  0  0  0  0            999 V2000
  -17.5084  -21.6237  -15.1136 Br  0  0  0  0  0  0  0  0  0  0  0  0
  -12.7166  -20.9905  -17.5984 S   0  0  0  0  0  0  0  0  0  0  0  0
  -13.4895  -19.7845  -18.0164 O   0  0  0  0  0  0  0  0  0  0  0  0
  -11.3883  -20.7495  -16.8628 O   0  0  0  0  0  0  0  0  0  0  0  0
  -16.1767  -23.8092  -22.4404 O   0  0  0  0  0  0  0  0  0  0  0  0
  -11.8669  -23.6137  -16.2389 O   0  0  0  0  0  0  0  0  0  0  0  0
  -12.7243  -24.6248  -19.0964 O   0  0  0  0  0  0  0  0  0  0  0  0
  -12.4387  -22.0204  -18.8891 N   0  0  0  0  0  0  0  0  0  0  0  0
  -16.6967  -22.5106  -22.8947 N   0  0  0  0  0  0  0  0  0  0  0  0
  -11.2677  -24.6797  -15.5992 C   0  0  0  0  0  0  0  0  0  0  0  0
  -12.8052  -26.0638  -19.2096 C   0  0  0  0  0  0  0  0  0  0  0  0
  -16.2727  -20.1578  -22.4893 C   0  0  0  0  0  0  0  0  0  0  0  0
  -15.3398  -23.5166  -14.8282 C   0  0  0  0  0  0  0  0  0  0  0  0
  -14.0452  -23.9674  -15.0942 C   0  0  0  0  0  0  0  0  0  0  0  0
  -14.9783  -21.6188  -16.2148 C   0  0  0  0  0  0  0  0  0  0  0  0
  -14.4964  -24.3186  -20.7981 C   0  0  0  0  0  0  0  0  0  0  0  0
  -14.2499  -21.6349  -20.5209 C   0  0  0  0  0  0  0  0  0  0  0  0
  -15.7985  -22.3383  -15.3711 C   0  0  0  0  0  0  0  0  0  0  0  0
  -13.6815  -22.0291  -16.4881 C   0  0  0  0  0  0  0  0  0  0  0  0
  -15.2464  -23.5030  -21.5307 C   0  0  0  0  0  0  0  0  0  0  0  0
  -13.1941  -23.2347  -15.9304 C   0  0  0  0  0  0  0  0  0  0  0  0
  -13.5537  -23.8358  -19.8811 C   0  0  0  0  0  0  0  0  0  0  0  0
  -16.0100  -21.5971  -22.2381 C   0  0  0  0  0  0  0  0  0  0  0  0
  -13.4286  -22.4594  -19.7386 C   0  0  0  0  0  0  0  0  0  0  0  0
  -15.1313  -22.1457  -21.4066 C   0  0  0  0  0  0  0  0  0  0  0  0
  -11.5029  -22.3335  -19.0514 H   0  0  0  0  0  0  0  0  0  0  0  0
  -10.3369  -24.7960  -15.9458 H   0  0  0  0  0  0  0  0  0  0  0  0
  -11.2375  -24.5039  -14.6153 H   0  0  0  0  0  0  0  0  0  0  0  0
  -11.7945  -25.5117  -15.7731 H   0  0  0  0  0  0  0  0  0  0  0  0
  -12.1488  -26.4848  -18.5836 H   0  0  0  0  0  0  0  0  0  0  0  0
  -13.7296  -26.3651  -18.9754 H   0  0  0  0  0  0  0  0  0  0  0  0
  -12.5934  -26.3368  -20.1480 H   0  0  0  0  0  0  0  0  0  0  0  0
  -15.6710  -19.6037  -21.9140 H   0  0  0  0  0  0  0  0  0  0  0  0
  -16.0977  -19.9501  -23.4518 H   0  0  0  0  0  0  0  0  0  0  0  0
  -17.2263  -19.9500  -22.2715 H   0  0  0  0  0  0  0  0  0  0  0  0
  -15.9398  -24.0556  -14.2370 H   0  0  0  0  0  0  0  0  0  0  0  0
  -13.7233  -24.8207  -14.6841 H   0  0  0  0  0  0  0  0  0  0  0  0
  -15.3262  -20.7828  -16.6391 H   0  0  0  0  0  0  0  0  0  0  0  0
  -14.6081  -25.3067  -20.9042 H   0  0  0  0  0  0  0  0  0  0  0  0
  -14.1808  -20.6424  -20.4200 H   0  0  0  0  0  0  0  0  0  0  0  0
  1 18  1  0  0  0  0
  2  3  2  0  0  0  0
  2  4  2  0  0  0  0
  2  8  1  0  0  0  0
  2 19  1  0  0  0  0
  5  9  1  0  0  0  0
  5 20  1  0  0  0  0
  6 10  1  0  0  0  0
  6 21  1  0  0  0  0
  7 11  1  0  0  0  0
  7 22  1  0  0  0  0
  8 24  1  0  0  0  0
  9 23  2  0  0  0  0
 12 23  1  0  0  0  0
 13 14  2  0  0  0  0
 13 18  1  0  0  0  0
 14 21  1  0  0  0  0
 15 18  2  0  0  0  0
 15 19  1  0  0  0  0
 16 20  2  0  0  0  0
 16 22  1  0  0  0  0
 17 24  1  0  0  0  0
 17 25  2  0  0  0  0
 19 21  2  0  0  0  0
 20 25  1  0  0  0  0
 22 24  2  0  0  0  0
 23 25  1  0  0  0  0
  8 26  1  0  0  0  0
 10 27  1  0  0  0  0
 10 28  1  0  0  0  0
 10 29  1  0  0  0  0
 11 30  1  0  0  0  0
 11 31  1  0  0  0  0
 11 32  1  0  0  0  0
 12 33  1  0  0  0  0
 12 34  1  0  0  0  0
 12 35  1  0  0  0  0
 13 36  1  0  0  0  0
 14 37  1  0  0  0  0
 15 38  1  0  0  0  0
 16 39  1  0  0  0  0
 17 40  1  0  0  0  0
M  END
> <pdb_id>
5Y8Y

> <uniprot_id>
O60885

> <usmiles>
Brc1cc(S(=O)(=O)Nc2c(OC)cc3ON=C(c3c2)C)c(OC)cc1

$$$$
8Q3_A_201
          07212401333D 1   1.00000     0.00000     0
            
 39 41  0  0  0  0            999 V2000
  -17.5712  -21.8575  -14.9283 Br  0  0  0  0  0  0  0  0  0  0  0  0
  -12.8731  -20.8953  -17.6600 S   0  0  0  0  0  0  0  0  0  0  0  0
  -13.8112  -19.8420  -18.1739 O   0  0  0  0  0  0  0  0  0  0  0  0
  -11.6225  -20.3760  -16.9823 O   0  0  0  0  0  0  0  0  0  0  0  0
  -16.1450  -23.8149  -22.4889 O   0  0  0  0  0  0  0  0  0  0  0  0
  -11.8082  -23.2274  -16.0564 O   0  0  0  0  0  0  0  0  0  0  0  0
  -12.4168  -21.9007  -18.8809 N   0  0  0  0  0  0  0  0  0  0  0  0
  -16.5621  -22.4402  -23.0380 N   0  0  0  0  0  0  0  0  0  0  0  0
  -11.2078  -24.4940  -15.5740 C   0  0  0  0  0  0  0  0  0  0  0  0
  -15.9363  -20.0543  -22.5964 C   0  0  0  0  0  0  0  0  0  0  0  0
  -12.8380  -24.7470  -18.9810 C   0  0  0  0  0  0  0  0  0  0  0  0
  -15.2035  -23.3709  -14.6131 C   0  0  0  0  0  0  0  0  0  0  0  0
  -13.8793  -23.7056  -14.8661 C   0  0  0  0  0  0  0  0  0  0  0  0
  -15.0447  -21.5573  -16.1814 C   0  0  0  0  0  0  0  0  0  0  0  0
  -14.4709  -24.3167  -20.7080 C   0  0  0  0  0  0  0  0  0  0  0  0
  -14.1004  -21.6148  -20.6151 C   0  0  0  0  0  0  0  0  0  0  0  0
  -15.7923  -22.3009  -15.2698 C   0  0  0  0  0  0  0  0  0  0  0  0
  -13.7296  -21.8950  -16.4758 C   0  0  0  0  0  0  0  0  0  0  0  0
  -13.1268  -22.9684  -15.8043 C   0  0  0  0  0  0  0  0  0  0  0  0
  -15.1696  -23.4984  -21.5159 C   0  0  0  0  0  0  0  0  0  0  0  0
  -15.8206  -21.5534  -22.3615 C   0  0  0  0  0  0  0  0  0  0  0  0
  -13.3571  -22.4171  -19.7336 C   0  0  0  0  0  0  0  0  0  0  0  0
  -13.5405  -23.8165  -19.7918 C   0  0  0  0  0  0  0  0  0  0  0  0
  -14.9961  -22.1448  -21.4789 C   0  0  0  0  0  0  0  0  0  0  0  0
  -11.4521  -22.1351  -19.0004 H   0  0  0  0  0  0  0  0  0  0  0  0
  -10.2442  -24.5282  -15.8390 H   0  0  0  0  0  0  0  0  0  0  0  0
  -11.2815  -24.5396  -14.5778 H   0  0  0  0  0  0  0  0  0  0  0  0
  -11.6928  -25.2686  -15.9799 H   0  0  0  0  0  0  0  0  0  0  0  0
  -15.3001  -19.5724  -21.9939 H   0  0  0  0  0  0  0  0  0  0  0  0
  -15.7141  -19.8480  -23.5493 H   0  0  0  0  0  0  0  0  0  0  0  0
  -16.8709  -19.7573  -22.4002 H   0  0  0  0  0  0  0  0  0  0  0  0
  -12.2104  -24.2556  -18.3771 H   0  0  0  0  0  0  0  0  0  0  0  0
  -13.4900  -25.2687  -18.4309 H   0  0  0  0  0  0  0  0  0  0  0  0
  -12.3188  -25.3718  -19.5641 H   0  0  0  0  0  0  0  0  0  0  0  0
  -15.7345  -23.9039  -13.9545 H   0  0  0  0  0  0  0  0  0  0  0  0
  -13.4579  -24.4720  -14.3813 H   0  0  0  0  0  0  0  0  0  0  0  0
  -15.4619  -20.7676  -16.6311 H   0  0  0  0  0  0  0  0  0  0  0  0
  -14.6203  -25.3039  -20.7639 H   0  0  0  0  0  0  0  0  0  0  0  0
  -13.9636  -20.6243  -20.6036 H   0  0  0  0  0  0  0  0  0  0  0  0
  1 17  1  0  0  0  0
  2  3  2  0  0  0  0
  2  4  2  0  0  0  0
  2  7  1  0  0  0  0
  2 18  1  0  0  0  0
  5  8  1  0  0  0  0
  5 20  1  0  0  0  0
  6  9  1  0  0  0  0
  6 19  1  0  0  0  0
  7 22  1  0  0  0  0
  8 21  2  0  0  0  0
 10 21  1  0  0  0  0
 11 23  1  0  0  0  0
 12 13  2  0  0  0  0
 12 17  1  0  0  0  0
 13 19  1  0  0  0  0
 14 17  2  0  0  0  0
 14 18  1  0  0  0  0
 15 20  2  0  0  0  0
 15 23  1  0  0  0  0
 16 22  1  0  0  0  0
 16 24  2  0  0  0  0
 18 19  2  0  0  0  0
 20 24  1  0  0  0  0
 21 24  1  0  0  0  0
 22 23  2  0  0  0  0
  7 25  1  0  0  0  0
  9 26  1  0  0  0  0
  9 27  1  0  0  0  0
  9 28  1  0  0  0  0
 10 29  1  0  0  0  0
 10 30  1  0  0  0  0
 10 31  1  0  0  0  0
 11 32  1  0  0  0  0
 11 33  1  0  0  0  0
 11 34  1  0  0  0  0
 12 35  1  0  0  0  0
 13 36  1  0  0  0  0
 14 37  1  0  0  0  0
 15 38  1  0  0  0  0
 16 39  1  0  0  0  0
M  END
> <pdb_id>
5Y8Z

> <uniprot_id>
O60885

> <usmiles>
Brc1cc(S(=O)(=O)Nc2c(cc3ON=C(c3c2)C)C)c(OC)cc1

$$$$
8QC_A_201
          07212401333D 1   1.00000     0.00000     0
            
 41 43  0  0  0  0            999 V2000
  -17.4672  -21.8184  -14.9565 Br  0  0  0  0  0  0  0  0  0  0  0  0
  -12.8380  -20.8607  -17.6078 S   0  0  0  0  0  0  0  0  0  0  0  0
  -13.6920  -19.6806  -17.9375 O   0  0  0  0  0  0  0  0  0  0  0  0
  -11.5947  -20.4097  -17.0029 O   0  0  0  0  0  0  0  0  0  0  0  0
  -16.2363  -23.8675  -22.3368 O   0  0  0  0  0  0  0  0  0  0  0  0
  -11.7970  -23.3286  -16.1937 O   0  0  0  0  0  0  0  0  0  0  0  0
  -12.4406  -21.7411  -19.0012 N   0  0  0  0  0  0  0  0  0  0  0  0
  -16.8423  -22.6134  -22.8972 N   0  0  0  0  0  0  0  0  0  0  0  0
  -12.7564  -24.4666  -19.1108 N   0  0  0  0  0  0  0  0  0  0  0  0
  -11.2557  -24.5241  -15.5753 C   0  0  0  0  0  0  0  0  0  0  0  0
  -13.1803  -25.8237  -18.6400 C   0  0  0  0  0  0  0  0  0  0  0  0
  -16.4825  -20.2349  -22.6777 C   0  0  0  0  0  0  0  0  0  0  0  0
  -15.1865  -23.4118  -14.7907 C   0  0  0  0  0  0  0  0  0  0  0  0
  -13.8963  -23.7782  -15.0584 C   0  0  0  0  0  0  0  0  0  0  0  0
  -14.9704  -21.5183  -16.2337 C   0  0  0  0  0  0  0  0  0  0  0  0
  -14.4729  -24.2491  -20.7391 C   0  0  0  0  0  0  0  0  0  0  0  0
  -14.2938  -21.5001  -20.6515 C   0  0  0  0  0  0  0  0  0  0  0  0
  -15.7188  -22.2876  -15.3797 C   0  0  0  0  0  0  0  0  0  0  0  0
  -13.6713  -21.8811  -16.5212 C   0  0  0  0  0  0  0  0  0  0  0  0
  -13.0947  -23.0082  -15.9243 C   0  0  0  0  0  0  0  0  0  0  0  0
  -15.2648  -23.4694  -21.4602 C   0  0  0  0  0  0  0  0  0  0  0  0
  -16.1456  -21.6414  -22.3243 C   0  0  0  0  0  0  0  0  0  0  0  0
  -13.4323  -22.2775  -19.8394 C   0  0  0  0  0  0  0  0  0  0  0  0
  -13.5586  -23.6980  -19.8819 C   0  0  0  0  0  0  0  0  0  0  0  0
  -15.1951  -22.0974  -21.4434 C   0  0  0  0  0  0  0  0  0  0  0  0
  -11.4778  -21.8819  -19.2318 H   0  0  0  0  0  0  0  0  0  0  0  0
  -11.8562  -24.1196  -18.8479 H   0  0  0  0  0  0  0  0  0  0  0  0
  -10.3026  -24.6414  -15.8544 H   0  0  0  0  0  0  0  0  0  0  0  0
  -11.3032  -24.4354  -14.5804 H   0  0  0  0  0  0  0  0  0  0  0  0
  -11.7881  -25.3195  -15.8649 H   0  0  0  0  0  0  0  0  0  0  0  0
  -12.4518  -26.2272  -18.0864 H   0  0  0  0  0  0  0  0  0  0  0  0
  -14.0107  -25.7411  -18.0890 H   0  0  0  0  0  0  0  0  0  0  0  0
  -13.3616  -26.4091  -19.4302 H   0  0  0  0  0  0  0  0  0  0  0  0
  -15.8825  -19.6121  -22.1756 H   0  0  0  0  0  0  0  0  0  0  0  0
  -16.3570  -20.0988  -23.6604 H   0  0  0  0  0  0  0  0  0  0  0  0
  -17.4345  -20.0490  -22.4344 H   0  0  0  0  0  0  0  0  0  0  0  0
  -15.7431  -23.9607  -14.1671 H   0  0  0  0  0  0  0  0  0  0  0  0
  -13.5178  -24.6013  -14.6351 H   0  0  0  0  0  0  0  0  0  0  0  0
  -15.3652  -20.6975  -16.6464 H   0  0  0  0  0  0  0  0  0  0  0  0
  -14.5432  -25.2432  -20.8212 H   0  0  0  0  0  0  0  0  0  0  0  0
  -14.2294  -20.5023  -20.6340 H   0  0  0  0  0  0  0  0  0  0  0  0
  1 18  1  0  0  0  0
  2  3  2  0  0  0  0
  2  4  2  0  0  0  0
  2  7  1  0  0  0  0
  2 19  1  0  0  0  0
  5  8  1  0  0  0  0
  5 21  1  0  0  0  0
  6 10  1  0  0  0  0
  6 20  1  0  0  0  0
  7 23  1  0  0  0  0
  8 22  2  0  0  0  0
  9 11  1  0  0  0  0
  9 24  1  0  0  0  0
 12 22  1  0  0  0  0
 13 14  2  0  0  0  0
 13 18  1  0  0  0  0
 14 20  1  0  0  0  0
 15 18  2  0  0  0  0
 15 19  1  0  0  0  0
 16 21  2  0  0  0  0
 16 24  1  0  0  0  0
 17 23  1  0  0  0  0
 17 25  2  0  0  0  0
 19 20  2  0  0  0  0
 21 25  1  0  0  0  0
 22 25  1  0  0  0  0
 23 24  2  0  0  0  0
  7 26  1  0  0  0  0
  9 27  1  0  0  0  0
 10 28  1  0  0  0  0
 10 29  1  0  0  0  0
 10 30  1  0  0  0  0
 11 31  1  0  0  0  0
 11 32  1  0  0  0  0
 11 33  1  0  0  0  0
 12 34  1  0  0  0  0
 12 35  1  0  0  0  0
 12 36  1  0  0  0  0
 13 37  1  0  0  0  0
 14 38  1  0  0  0  0
 15 39  1  0  0  0  0
 16 40  1  0  0  0  0
 17 41  1  0  0  0  0
M  END
> <pdb_id>
5Y94

> <uniprot_id>
O60885

> <usmiles>
Brc1cc(S(=O)(=O)Nc2c(NC)cc3ON=C(c3c2)C)c(OC)cc1

$$$$
8QV_A_406
          07202405583D 1   1.00000     0.00000     0
            
 56 61  0  0  0  0            999 V2000
   62.3910   51.1237   12.6296 O   0  0  0  0  0  0  0  0  0  0  0  0
   66.9883   47.1102    7.9988 O   0  0  0  0  0  0  0  0  0  0  0  0
   70.2602   50.8174    9.8644 O   0  0  0  0  0  0  0  0  0  0  0  0
   65.7791   48.0790    6.2193 N   0  0  0  0  0  0  0  0  0  0  0  0
   73.9741   45.7193    5.4121 N   0  0  0  0  0  0  0  0  0  0  0  0
   67.3026   52.0017   11.4811 N   0  0  0  0  0  0  0  0  0  0  0  0
   67.5183   49.2342    7.3972 N   0  0  0  0  0  0  0  0  0  0  0  0
   70.2249   45.2112    0.4496 C   0  0  0  0  0  0  0  0  0  0  0  0
   63.2449   52.1923   13.1539 C   0  0  0  0  0  0  0  0  0  0  0  0
   62.6330   50.9168   11.2140 C   0  0  0  0  0  0  0  0  0  0  0  0
   67.9809   47.5362    8.9720 C   0  0  0  0  0  0  0  0  0  0  0  0
   73.3431   45.4558    4.2821 C   0  0  0  0  0  0  0  0  0  0  0  0
   68.5624   51.8688   11.1259 C   0  0  0  0  0  0  0  0  0  0  0  0
   73.4808   46.5721    6.3141 C   0  0  0  0  0  0  0  0  0  0  0  0
   70.8863   45.5236    1.7128 C   0  0  0  0  0  0  0  0  0  0  0  0
   64.6591   52.3419   12.5797 C   0  0  0  0  0  0  0  0  0  0  0  0
   63.9477   50.6928   10.7912 C   0  0  0  0  0  0  0  0  0  0  0  0
   72.0863   49.9204    8.6466 C   0  0  0  0  0  0  0  0  0  0  0  0
   71.4657   45.7822    2.7724 C   0  0  0  0  0  0  0  0  0  0  0  0
   72.6168   49.0454    7.7039 C   0  0  0  0  0  0  0  0  0  0  0  0
   71.5932   46.9976    4.8993 C   0  0  0  0  0  0  0  0  0  0  0  0
   66.6617   50.2193   10.0400 C   0  0  0  0  0  0  0  0  0  0  0  0
   70.4175   48.1449    7.3331 C   0  0  0  0  0  0  0  0  0  0  0  0
   66.7506   48.1542    7.1444 C   0  0  0  0  0  0  0  0  0  0  0  0
   68.9395   50.9005   10.1852 C   0  0  0  0  0  0  0  0  0  0  0  0
   70.7155   49.9177    8.9351 C   0  0  0  0  0  0  0  0  0  0  0  0
   66.3306   51.1965   10.9860 C   0  0  0  0  0  0  0  0  0  0  0  0
   72.1273   46.0826    3.9946 C   0  0  0  0  0  0  0  0  0  0  0  0
   72.2898   47.2548    6.0887 C   0  0  0  0  0  0  0  0  0  0  0  0
   64.9996   51.3826   11.4188 C   0  0  0  0  0  0  0  0  0  0  0  0
   71.7804   48.1537    7.0426 C   0  0  0  0  0  0  0  0  0  0  0  0
   67.9806   50.0442    9.6272 C   0  0  0  0  0  0  0  0  0  0  0  0
   69.8711   49.0220    8.2698 C   0  0  0  0  0  0  0  0  0  0  0  0
   68.3630   48.9768    8.5705 C   0  0  2  0  0  0  0  0  0  0  0  0
   65.6161   48.8485    5.6017 H   0  0  0  0  0  0  0  0  0  0  0  0
   65.2189   47.2537    6.1484 H   0  0  0  0  0  0  0  0  0  0  0  0
   69.2421   45.3732    0.5390 H   0  0  0  0  0  0  0  0  0  0  0  0
   70.5945   45.7949   -0.2734 H   0  0  0  0  0  0  0  0  0  0  0  0
   70.3849   44.2517    0.2179 H   0  0  0  0  0  0  0  0  0  0  0  0
   63.3395   52.0396   14.1377 H   0  0  0  0  0  0  0  0  0  0  0  0
   62.7681   53.0569   12.9952 H   0  0  0  0  0  0  0  0  0  0  0  0
   62.3027   51.7303   10.7353 H   0  0  0  0  0  0  0  0  0  0  0  0
   62.0928   50.1232   10.9343 H   0  0  0  0  0  0  0  0  0  0  0  0
   68.7827   46.9397    8.9371 H   0  0  0  0  0  0  0  0  0  0  0  0
   67.5945   47.5216    9.8942 H   0  0  0  0  0  0  0  0  0  0  0  0
   73.7360   44.8066    3.6309 H   0  0  0  0  0  0  0  0  0  0  0  0
   69.2569   52.4638   11.5305 H   0  0  0  0  0  0  0  0  0  0  0  0
   73.9777   46.7229    7.1687 H   0  0  0  0  0  0  0  0  0  0  0  0
   65.3124   52.1779   13.3188 H   0  0  0  0  0  0  0  0  0  0  0  0
   64.7607   53.2794   12.2469 H   0  0  0  0  0  0  0  0  0  0  0  0
   64.1373   50.0485   10.0502 H   0  0  0  0  0  0  0  0  0  0  0  0
   72.6905   50.5585    9.1238 H   0  0  0  0  0  0  0  0  0  0  0  0
   73.5963   49.0580    7.5027 H   0  0  0  0  0  0  0  0  0  0  0  0
   70.7294   47.4621    4.7042 H   0  0  0  0  0  0  0  0  0  0  0  0
   65.9428   49.6399    9.6559 H   0  0  0  0  0  0  0  0  0  0  0  0
   69.8197   47.4972    6.8609 H   0  0  0  0  0  0  0  0  0  0  0  0
  1  9  1  0  0  0  0
  1 10  1  0  0  0  0
  2 11  1  0  0  0  0
  2 24  1  0  0  0  0
  3 25  1  0  0  0  0
  3 26  1  0  0  0  0
  4 24  1  0  0  0  0
  5 12  2  0  0  0  0
  5 14  1  0  0  0  0
  6 13  2  0  0  0  0
  6 27  1  0  0  0  0
  7 24  2  0  0  0  0
  7 34  1  0  0  0  0
  8 15  1  0  0  0  0
  9 16  1  0  0  0  0
 10 17  1  0  0  0  0
 11 34  1  0  0  0  0
 12 28  1  0  0  0  0
 13 25  1  0  0  0  0
 14 29  2  0  0  0  0
 15 19  3  0  0  0  0
 16 30  1  0  0  0  0
 17 30  2  0  0  0  0
 18 20  2  0  0  0  0
 18 26  1  0  0  0  0
 19 28  1  0  0  0  0
 20 31  1  0  0  0  0
 21 28  2  0  0  0  0
 21 29  1  0  0  0  0
 22 27  2  0  0  0  0
 22 32  1  0  0  0  0
 23 31  2  0  0  0  0
 23 33  1  0  0  0  0
 25 32  2  0  0  0  0
 26 33  2  0  0  0  0
 27 30  1  0  0  0  0
 29 31  1  0  0  0  0
 32 34  1  0  0  0  0
 33 34  1  0  0  0  0
  4 35  1  0  0  0  0
  4 36  1  0  0  0  0
  8 37  1  0  0  0  0
  8 38  1  0  0  0  0
  8 39  1  0  0  0  0
  9 40  1  0  0  0  0
  9 41  1  0  0  0  0
 10 42  1  0  0  0  0
 10 43  1  0  0  0  0
 11 44  1  0  0  0  0
 11 45  1  0  0  0  0
 12 46  1  0  0  0  0
 13 47  1  0  0  0  0
 14 48  1  0  0  0  0
 16 49  1  0  0  0  0
 16 50  1  0  0  0  0
 17 51  1  0  0  0  0
 18 52  1  0  0  0  0
 20 53  1  0  0  0  0
 21 54  1  0  0  0  0
 22 55  1  0  0  0  0
 23 56  1  0  0  0  0
M  END
> <pdb_id>
5UYU

> <uniprot_id>
P56817

> <usmiles>
O1c2c(cc(nc2)C3=CCOCC3)[C@@]4(N=C(OC4)N)c5c1ccc(c6cncc(C#CC)c6)c5

$$$$
8R5_A_502
          07192420153D 1   1.00000     0.00000     0
            
 39 41  0  0  0  0            999 V2000
   11.8141  -35.9718   44.8024 Cl  0  0  0  0  0  0  0  0  0  0  0  0
    9.6752  -28.7082   44.0528 O   0  0  0  0  0  0  0  0  0  0  0  0
   11.4718  -27.7726   44.9957 O   0  0  0  0  0  0  0  0  0  0  0  0
   10.2242  -32.5918   49.2233 O   0  0  0  0  0  0  0  0  0  0  0  0
   12.0843  -36.7871   47.5147 O   0  0  0  0  0  0  0  0  0  0  0  0
    9.7430  -31.4560   48.4987 N   0  0  0  0  0  0  0  0  0  0  0  0
   10.9329  -39.5088   48.4208 N   0  0  0  0  0  0  0  0  0  0  0  0
   13.4145  -37.0146   49.4734 C   0  0  0  0  0  0  0  0  0  0  0  0
   10.8575  -40.8062   48.0736 C   0  0  0  0  0  0  0  0  0  0  0  0
   11.9629  -41.5794   47.7539 C   0  0  0  0  0  0  0  0  0  0  0  0
   13.2018  -40.9823   47.7842 C   0  0  0  0  0  0  0  0  0  0  0  0
   10.7293  -29.7826   45.9520 C   0  0  0  0  0  0  0  0  0  0  0  0
   13.3131  -39.6508   48.1524 C   0  0  0  0  0  0  0  0  0  0  0  0
    9.5639  -30.7606   46.1047 C   0  0  0  0  0  0  0  0  0  0  0  0
   11.2050  -34.7611   48.5718 C   0  0  0  0  0  0  0  0  0  0  0  0
   10.7956  -33.7718   45.9595 C   0  0  0  0  0  0  0  0  0  0  0  0
   10.5547  -28.7157   44.9035 C   0  0  0  0  0  0  0  0  0  0  0  0
   11.3234  -35.0353   46.1692 C   0  0  0  0  0  0  0  0  0  0  0  0
   12.1485  -37.4664   48.7669 C   0  0  2  0  0  0  0  0  0  0  0  0
   11.5327  -35.5406   47.4570 C   0  0  0  0  0  0  0  0  0  0  0  0
   10.6764  -33.5099   48.3341 C   0  0  0  0  0  0  0  0  0  0  0  0
   12.1516  -38.9486   48.4653 C   0  0  0  0  0  0  0  0  0  0  0  0
    9.8932  -31.6911   47.2501 C   0  0  0  0  0  0  0  0  0  0  0  0
   10.4720  -32.9925   47.0623 C   0  0  0  0  0  0  0  0  0  0  0  0
    9.0016  -29.4467   44.0234 H   0  0  0  0  0  0  0  0  0  0  0  0
   13.4858  -37.4766   50.3575 H   0  0  0  0  0  0  0  0  0  0  0  0
   14.2096  -37.2444   48.9121 H   0  0  0  0  0  0  0  0  0  0  0  0
   13.3818  -36.0254   49.6159 H   0  0  0  0  0  0  0  0  0  0  0  0
    9.9552  -41.2363   48.0444 H   0  0  0  0  0  0  0  0  0  0  0  0
   11.8626  -42.5435   47.5082 H   0  0  0  0  0  0  0  0  0  0  0  0
   14.0182  -41.5064   47.5418 H   0  0  0  0  0  0  0  0  0  0  0  0
   11.5454  -30.3115   45.7190 H   0  0  0  0  0  0  0  0  0  0  0  0
   10.8665  -29.3285   46.8323 H   0  0  0  0  0  0  0  0  0  0  0  0
   14.2070  -39.2044   48.1926 H   0  0  0  0  0  0  0  0  0  0  0  0
    9.4470  -31.2858   45.2618 H   0  0  0  0  0  0  0  0  0  0  0  0
    8.7221  -30.2590   46.3044 H   0  0  0  0  0  0  0  0  0  0  0  0
   11.3483  -35.0976   49.5025 H   0  0  0  0  0  0  0  0  0  0  0  0
   10.6504  -33.4276   45.0319 H   0  0  0  0  0  0  0  0  0  0  0  0
   11.3490  -37.2341   49.3208 H   0  0  0  0  0  0  0  0  0  0  0  0
  1 18  1  0  0  0  0
  2 17  1  0  0  0  0
  3 17  2  0  0  0  0
  4  6  1  0  0  0  0
  4 21  1  0  0  0  0
  5 19  1  0  0  0  0
  5 20  1  0  0  0  0
  6 23  2  0  0  0  0
  7  9  2  0  0  0  0
  7 22  1  0  0  0  0
  8 19  1  0  0  0  0
  9 10  1  0  0  0  0
 10 11  2  0  0  0  0
 11 13  1  0  0  0  0
 12 14  1  0  0  0  0
 12 17  1  0  0  0  0
 13 22  2  0  0  0  0
 14 23  1  0  0  0  0
 15 20  1  0  0  0  0
 15 21  2  0  0  0  0
 16 18  1  0  0  0  0
 16 24  2  0  0  0  0
 18 20  2  0  0  0  0
 19 22  1  0  0  0  0
 21 24  1  0  0  0  0
 23 24  1  0  0  0  0
  2 25  1  0  0  0  0
  8 26  1  0  0  0  0
  8 27  1  0  0  0  0
  8 28  1  0  0  0  0
  9 29  1  0  0  0  0
 10 30  1  0  0  0  0
 11 31  1  0  0  0  0
 12 32  1  0  0  0  0
 12 33  1  0  0  0  0
 13 34  1  0  0  0  0
 14 35  1  0  0  0  0
 14 36  1  0  0  0  0
 15 37  1  0  0  0  0
 16 38  1  0  0  0  0
 19 39  1  0  0  0  0
M  END
> <pdb_id>
5NAG

> <uniprot_id>
Q84HF5

> <usmiles>
Clc1c(O[C@@H](c2ncccc2)C)cc3ON=C(c3c1)CCC(=O)O

$$$$
8R8_B_502
          07192420153D 1   1.00000     0.00000     0
            
 40 42  0  0  0  0            999 V2000
   11.7412  -36.1853   44.7867 Cl  0  0  0  0  0  0  0  0  0  0  0  0
   11.3846  -28.0968   45.4173 O   0  0  0  0  0  0  0  0  0  0  0  0
    9.6343  -29.1167   44.5498 O   0  0  0  0  0  0  0  0  0  0  0  0
    9.5849  -31.0145   49.5690 O   0  0  0  0  0  0  0  0  0  0  0  0
   10.4968  -33.0946   49.5478 O   0  0  0  0  0  0  0  0  0  0  0  0
   11.9792  -37.2761   47.4184 O   0  0  0  0  0  0  0  0  0  0  0  0
   10.9711  -39.8324   48.4332 N   0  0  0  0  0  0  0  0  0  0  0  0
   10.0336  -32.1455   47.5982 N   0  0  0  0  0  0  0  0  0  0  0  0
   13.9207  -37.6054   48.7612 C   0  0  0  0  0  0  0  0  0  0  0  0
   10.7179  -41.1285   48.1709 C   0  0  0  0  0  0  0  0  0  0  0  0
    9.6489  -31.1130   46.6289 C   0  0  0  0  0  0  0  0  0  0  0  0
   11.6751  -42.0174   47.7013 C   0  0  0  0  0  0  0  0  0  0  0  0
   12.9517  -41.5398   47.4842 C   0  0  0  0  0  0  0  0  0  0  0  0
   10.7248  -30.0407   46.5028 C   0  0  0  0  0  0  0  0  0  0  0  0
   13.2419  -40.2120   47.7492 C   0  0  0  0  0  0  0  0  0  0  0  0
   10.8705  -34.0439   46.1349 C   0  0  0  0  0  0  0  0  0  0  0  0
   11.3412  -35.2529   48.6538 C   0  0  0  0  0  0  0  0  0  0  0  0
   10.5017  -29.0490   45.3924 C   0  0  0  0  0  0  0  0  0  0  0  0
    9.9731  -31.9697   48.9473 C   0  0  0  0  0  0  0  0  0  0  0  0
   11.4001  -35.3202   46.2393 C   0  0  0  0  0  0  0  0  0  0  0  0
   12.4472  -37.9350   48.5964 C   0  0  2  0  0  0  0  0  0  0  0  0
   11.6050  -35.9466   47.4770 C   0  0  0  0  0  0  0  0  0  0  0  0
   10.8644  -33.9614   48.5443 C   0  0  0  0  0  0  0  0  0  0  0  0
   12.2236  -39.3910   48.2329 C   0  0  0  0  0  0  0  0  0  0  0  0
   10.6005  -33.3819   47.3191 C   0  0  0  0  0  0  0  0  0  0  0  0
   12.0831  -28.0813   46.1327 H   0  0  0  0  0  0  0  0  0  0  0  0
   14.2734  -38.0561   49.5813 H   0  0  0  0  0  0  0  0  0  0  0  0
   14.4259  -37.9273   47.9605 H   0  0  0  0  0  0  0  0  0  0  0  0
   14.0329  -36.6157   48.8504 H   0  0  0  0  0  0  0  0  0  0  0  0
    9.7900  -41.4692   48.3225 H   0  0  0  0  0  0  0  0  0  0  0  0
    8.7968  -30.6851   46.9302 H   0  0  0  0  0  0  0  0  0  0  0  0
    9.5095  -31.5407   45.7359 H   0  0  0  0  0  0  0  0  0  0  0  0
   11.4466  -42.9749   47.5256 H   0  0  0  0  0  0  0  0  0  0  0  0
   13.6639  -42.1499   47.1370 H   0  0  0  0  0  0  0  0  0  0  0  0
   11.6004  -30.4961   46.3417 H   0  0  0  0  0  0  0  0  0  0  0  0
   10.7648  -29.5372   47.3659 H   0  0  0  0  0  0  0  0  0  0  0  0
   14.1615  -39.8498   47.5971 H   0  0  0  0  0  0  0  0  0  0  0  0
   10.6920  -33.6217   45.2461 H   0  0  0  0  0  0  0  0  0  0  0  0
   11.4916  -35.6748   49.5478 H   0  0  0  0  0  0  0  0  0  0  0  0
   11.9176  -37.6704   49.4022 H   0  0  0  0  0  0  0  0  0  0  0  0
  1 20  1  0  0  0  0
  2 18  1  0  0  0  0
  3 18  2  0  0  0  0
  4 19  2  0  0  0  0
  5 19  1  0  0  0  0
  5 23  1  0  0  0  0
  6 21  1  0  0  0  0
  6 22  1  0  0  0  0
  7 10  2  0  0  0  0
  7 24  1  0  0  0  0
  8 11  1  0  0  0  0
  8 19  1  0  0  0  0
  8 25  1  0  0  0  0
  9 21  1  0  0  0  0
 10 12  1  0  0  0  0
 11 14  1  0  0  0  0
 12 13  2  0  0  0  0
 13 15  1  0  0  0  0
 14 18  1  0  0  0  0
 15 24  2  0  0  0  0
 16 20  1  0  0  0  0
 16 25  2  0  0  0  0
 17 22  1  0  0  0  0
 17 23  2  0  0  0  0
 20 22  2  0  0  0  0
 21 24  1  0  0  0  0
 23 25  1  0  0  0  0
  2 26  1  0  0  0  0
  9 27  1  0  0  0  0
  9 28  1  0  0  0  0
  9 29  1  0  0  0  0
 10 30  1  0  0  0  0
 11 31  1  0  0  0  0
 11 32  1  0  0  0  0
 12 33  1  0  0  0  0
 13 34  1  0  0  0  0
 14 35  1  0  0  0  0
 14 36  1  0  0  0  0
 15 37  1  0  0  0  0
 16 38  1  0  0  0  0
 17 39  1  0  0  0  0
 21 40  1  0  0  0  0
M  END
> <pdb_id>
5NAE

> <uniprot_id>
Q84HF5

> <usmiles>
Clc1c(O[C@@H](c2ncccc2)C)cc3OC(=O)N(c3c1)CCC(=O)O

$$$$
8RB_A_502
          07192420153D 1   1.00000     0.00000     0
            
 41 43  0  0  0  0            999 V2000
   11.8660  -36.0360   44.7750 Cl  0  0  0  0  0  0  0  0  0  0  0  0
    9.6740  -28.7160   43.9480 O   0  0  0  0  0  0  0  0  0  0  0  0
   11.3200  -27.6340   44.9700 O   0  0  0  0  0  0  0  0  0  0  0  0
   10.2560  -32.5180   49.1020 O   0  0  0  0  0  0  0  0  0  0  0  0
   12.2090  -36.7030   47.5260 O   0  0  0  0  0  0  0  0  0  0  0  0
    9.7510  -31.4120   48.3630 N   0  0  0  0  0  0  0  0  0  0  0  0
   10.8120  -40.6340   48.1780 N   0  0  0  0  0  0  0  0  0  0  0  0
   10.9860  -39.3490   48.5040 N   0  0  0  0  0  0  0  0  0  0  0  0
   13.5180  -36.9160   49.5080 C   0  0  0  0  0  0  0  0  0  0  0  0
   11.5650  -42.8190   47.5410 C   0  0  0  0  0  0  0  0  0  0  0  0
   10.5600  -29.5610   46.0270 C   0  0  0  0  0  0  0  0  0  0  0  0
   13.1490  -40.8980   47.9120 C   0  0  0  0  0  0  0  0  0  0  0  0
   13.3580  -39.5750   48.2550 C   0  0  0  0  0  0  0  0  0  0  0  0
    9.5610  -30.7100   46.0020 C   0  0  0  0  0  0  0  0  0  0  0  0
   10.8720  -33.7740   45.8400 C   0  0  0  0  0  0  0  0  0  0  0  0
   11.2590  -34.6610   48.4900 C   0  0  0  0  0  0  0  0  0  0  0  0
   10.4600  -28.6030   44.8730 C   0  0  0  0  0  0  0  0  0  0  0  0
   11.4100  -35.0210   46.1040 C   0  0  0  0  0  0  0  0  0  0  0  0
   12.2440  -37.3440   48.8000 C   0  0  2  0  0  0  0  0  0  0  0  0
   11.8580  -41.3930   47.8930 C   0  0  0  0  0  0  0  0  0  0  0  0
   11.6100  -35.4740   47.4120 C   0  0  0  0  0  0  0  0  0  0  0  0
   10.7300  -33.4230   48.2070 C   0  0  0  0  0  0  0  0  0  0  0  0
   12.2110  -38.8300   48.5500 C   0  0  0  0  0  0  0  0  0  0  0  0
    9.9190  -31.6560   47.1190 C   0  0  0  0  0  0  0  0  0  0  0  0
   10.5450  -32.9490   46.9150 C   0  0  0  0  0  0  0  0  0  0  0  0
    9.0340  -29.4841   43.9267 H   0  0  0  0  0  0  0  0  0  0  0  0
   13.5639  -37.3544   50.4056 H   0  0  0  0  0  0  0  0  0  0  0  0
   14.3104  -37.1894   48.9626 H   0  0  0  0  0  0  0  0  0  0  0  0
   13.5184  -35.9225   49.6218 H   0  0  0  0  0  0  0  0  0  0  0  0
   12.4214  -43.2968   47.3455 H   0  0  0  0  0  0  0  0  0  0  0  0
   11.1029  -43.2636   48.3084 H   0  0  0  0  0  0  0  0  0  0  0  0
   10.9750  -42.8487   46.7341 H   0  0  0  0  0  0  0  0  0  0  0  0
   11.4808  -29.9511   46.0267 H   0  0  0  0  0  0  0  0  0  0  0  0
   10.4170  -29.0447   46.8714 H   0  0  0  0  0  0  0  0  0  0  0  0
   13.9215  -41.4893   47.6806 H   0  0  0  0  0  0  0  0  0  0  0  0
   14.2737  -39.1747   48.2901 H   0  0  0  0  0  0  0  0  0  0  0  0
    9.6117  -31.1858   45.1239 H   0  0  0  0  0  0  0  0  0  0  0  0
    8.6347  -30.3584   46.1377 H   0  0  0  0  0  0  0  0  0  0  0  0
   10.7211  -33.4713   44.8990 H   0  0  0  0  0  0  0  0  0  0  0  0
   11.3872  -34.9668   49.4334 H   0  0  0  0  0  0  0  0  0  0  0  0
   11.4472  -37.0721   49.3396 H   0  0  0  0  0  0  0  0  0  0  0  0
  1 18  1  0  0  0  0
  2 17  1  0  0  0  0
  3 17  2  0  0  0  0
  4  6  1  0  0  0  0
  4 22  1  0  0  0  0
  5 19  1  0  0  0  0
  5 21  1  0  0  0  0
  6 24  2  0  0  0  0
  7  8  2  0  0  0  0
  7 20  1  0  0  0  0
  8 23  1  0  0  0  0
  9 19  1  0  0  0  0
 10 20  1  0  0  0  0
 11 14  1  0  0  0  0
 11 17  1  0  0  0  0
 12 13  1  0  0  0  0
 12 20  2  0  0  0  0
 13 23  2  0  0  0  0
 14 24  1  0  0  0  0
 15 18  1  0  0  0  0
 15 25  2  0  0  0  0
 16 21  1  0  0  0  0
 16 22  2  0  0  0  0
 18 21  2  0  0  0  0
 19 23  1  0  0  0  0
 22 25  1  0  0  0  0
 24 25  1  0  0  0  0
  2 26  1  0  0  0  0
  9 27  1  0  0  0  0
  9 28  1  0  0  0  0
  9 29  1  0  0  0  0
 10 30  1  0  0  0  0
 10 31  1  0  0  0  0
 10 32  1  0  0  0  0
 11 33  1  0  0  0  0
 11 34  1  0  0  0  0
 12 35  1  0  0  0  0
 13 36  1  0  0  0  0
 14 37  1  0  0  0  0
 14 38  1  0  0  0  0
 15 39  1  0  0  0  0
 16 40  1  0  0  0  0
 19 41  1  0  0  0  0
M  END
> <pdb_id>
5NAH

> <uniprot_id>
Q84HF5

> <usmiles>
Clc1c(O[C@@H](c2nnc(cc2)C)C)cc3ON=C(c3c1)CCC(=O)O

$$$$
8RK_A_503
          07192420153D 1   1.00000     0.00000     0
            
 27 28  0  0  0  0            999 V2000
   11.8926  -35.5960   44.9332 Cl  0  0  0  0  0  0  0  0  0  0  0  0
    8.7602  -29.9981   48.6474 O   0  0  0  0  0  0  0  0  0  0  0  0
    9.7824  -28.4285   43.7865 O   0  0  0  0  0  0  0  0  0  0  0  0
   11.5645  -27.4994   44.7737 O   0  0  0  0  0  0  0  0  0  0  0  0
    9.7772  -32.0022   49.0338 O   0  0  0  0  0  0  0  0  0  0  0  0
    9.6340  -31.3080   46.9290 N   0  0  0  0  0  0  0  0  0  0  0  0
   11.8904  -36.3938   47.8966 C   0  0  0  0  0  0  0  0  0  0  0  0
    9.5081  -30.3540   45.8229 C   0  0  0  0  0  0  0  0  0  0  0  0
   10.6960  -29.4018   45.7857 C   0  0  0  0  0  0  0  0  0  0  0  0
   10.7735  -33.3346   45.8650 C   0  0  0  0  0  0  0  0  0  0  0  0
   10.9335  -34.1689   48.5381 C   0  0  0  0  0  0  0  0  0  0  0  0
    9.3201  -30.9878   48.2203 C   0  0  0  0  0  0  0  0  0  0  0  0
   10.6220  -28.3978   44.6737 C   0  0  0  0  0  0  0  0  0  0  0  0
   11.3145  -34.5689   46.2112 C   0  0  0  0  0  0  0  0  0  0  0  0
   10.3885  -32.9395   48.2208 C   0  0  0  0  0  0  0  0  0  0  0  0
   10.3054  -32.5329   46.9058 C   0  0  0  0  0  0  0  0  0  0  0  0
   11.3965  -35.0156   47.5333 C   0  0  0  0  0  0  0  0  0  0  0  0
    9.0905  -29.1504   43.7777 H   0  0  0  0  0  0  0  0  0  0  0  0
   12.1854  -36.8711   47.0689 H   0  0  0  0  0  0  0  0  0  0  0  0
   12.6612  -36.3158   48.5290 H   0  0  0  0  0  0  0  0  0  0  0  0
   11.1522  -36.9082   48.3329 H   0  0  0  0  0  0  0  0  0  0  0  0
    8.6681  -29.8245   45.9417 H   0  0  0  0  0  0  0  0  0  0  0  0
    9.4654  -30.8575   44.9600 H   0  0  0  0  0  0  0  0  0  0  0  0
   11.5305  -29.9408   45.6708 H   0  0  0  0  0  0  0  0  0  0  0  0
   10.7344  -28.9092   46.6551 H   0  0  0  0  0  0  0  0  0  0  0  0
   10.7227  -33.0356   44.9121 H   0  0  0  0  0  0  0  0  0  0  0  0
   10.9961  -34.4526   49.4949 H   0  0  0  0  0  0  0  0  0  0  0  0
  1 14  1  0  0  0  0
  2 12  2  0  0  0  0
  3 13  1  0  0  0  0
  4 13  2  0  0  0  0
  5 12  1  0  0  0  0
  5 15  1  0  0  0  0
  6  8  1  0  0  0  0
  6 12  1  0  0  0  0
  6 16  1  0  0  0  0
  7 17  1  0  0  0  0
  8  9  1  0  0  0  0
  9 13  1  0  0  0  0
 10 14  1  0  0  0  0
 10 16  2  0  0  0  0
 11 15  2  0  0  0  0
 11 17  1  0  0  0  0
 14 17  2  0  0  0  0
 15 16  1  0  0  0  0
  3 18  1  0  0  0  0
  7 19  1  0  0  0  0
  7 20  1  0  0  0  0
  7 21  1  0  0  0  0
  8 22  1  0  0  0  0
  8 23  1  0  0  0  0
  9 24  1  0  0  0  0
  9 25  1  0  0  0  0
 10 26  1  0  0  0  0
 11 27  1  0  0  0  0
M  END
> <pdb_id>
5NAB

> <uniprot_id>
Q84HF5

> <usmiles>
Clc1c(cc2OC(=O)N(c2c1)CCC(=O)O)C

$$$$
8T3_A_1447
          07202405583D 1   1.00000     0.00000     0
            
 44 47  0  0  0  0            999 V2000
   71.4597   44.5182    0.1745 Cl  0  0  0  0  0  0  0  0  0  0  0  0
   70.0988   50.1422   10.6948 F   0  0  0  0  0  0  0  0  0  0  0  0
   73.4395   47.2776    5.9844 O   0  0  0  0  0  0  0  0  0  0  0  0
   65.7626   48.3348    6.3555 N   0  0  0  0  0  0  0  0  0  0  0  0
   71.1930   46.9015    3.3012 N   0  0  0  0  0  0  0  0  0  0  0  0
   71.2663   47.8897    5.8228 N   0  0  0  0  0  0  0  0  0  0  0  0
   67.0394   49.4560    7.8234 N   0  0  0  0  0  0  0  0  0  0  0  0
   67.8848   51.1448    9.2668 C   0  0  0  0  0  0  0  0  0  0  0  0
   70.9554   46.2935    2.1402 C   0  0  0  0  0  0  0  0  0  0  0  0
   72.9162   44.8970    2.5135 C   0  0  0  0  0  0  0  0  0  0  0  0
   71.7559   49.3421    9.2065 C   0  0  0  0  0  0  0  0  0  0  0  0
   72.0755   48.7800    7.9724 C   0  0  0  0  0  0  0  0  0  0  0  0
   73.1149   45.5559    3.7167 C   0  0  0  0  0  0  0  0  0  0  0  0
   69.7168   48.7814    7.3731 C   0  0  0  0  0  0  0  0  0  0  0  0
   67.4159   46.6087    8.8880 C   0  0  0  0  0  0  0  0  0  0  0  0
   67.4856   48.8521   10.1659 C   0  0  0  0  0  0  0  0  0  0  0  0
   71.8066   45.2841    1.7403 C   0  0  0  0  0  0  0  0  0  0  0  0
   70.4137   49.6139    9.4990 C   0  0  0  0  0  0  0  0  0  0  0  0
   72.3839   47.2924    5.3880 C   0  0  0  0  0  0  0  0  0  0  0  0
   66.3369   48.4246    7.5633 C   0  0  0  0  0  0  0  0  0  0  0  0
   71.0475   48.5230    7.0491 C   0  0  0  0  0  0  0  0  0  0  0  0
   72.2533   46.5895    4.0779 C   0  0  0  0  0  0  0  0  0  0  0  0
   66.7684   47.5162    9.9409 C   0  0  1  0  0  0  0  0  0  0  0  0
   66.1042   47.3288    8.5724 C   0  0  2  0  0  0  0  0  0  0  0  0
   69.3815   49.3321    8.5911 C   0  0  0  0  0  0  0  0  0  0  0  0
   67.9360   49.6549    8.9447 C   0  0  1  0  0  0  0  0  0  0  0  0
   65.2062   47.5366    6.1245 H   0  0  0  0  0  0  0  0  0  0  0  0
   65.8905   49.0659    5.6854 H   0  0  0  0  0  0  0  0  0  0  0  0
   70.4916   47.8814    5.1905 H   0  0  0  0  0  0  0  0  0  0  0  0
   68.4897   51.3399   10.0389 H   0  0  0  0  0  0  0  0  0  0  0  0
   68.1832   51.6687    8.4690 H   0  0  0  0  0  0  0  0  0  0  0  0
   66.9482   51.4027    9.5037 H   0  0  0  0  0  0  0  0  0  0  0  0
   70.1780   46.5624    1.5715 H   0  0  0  0  0  0  0  0  0  0  0  0
   73.5370   44.1753    2.2072 H   0  0  0  0  0  0  0  0  0  0  0  0
   72.4730   49.5482    9.8723 H   0  0  0  0  0  0  0  0  0  0  0  0
   73.0249   48.5620    7.7464 H   0  0  0  0  0  0  0  0  0  0  0  0
   73.8684   45.2922    4.3190 H   0  0  0  0  0  0  0  0  0  0  0  0
   68.9968   48.5646    6.7139 H   0  0  0  0  0  0  0  0  0  0  0  0
   67.4229   45.6173    9.0188 H   0  0  0  0  0  0  0  0  0  0  0  0
   68.2624   46.8914    8.4369 H   0  0  0  0  0  0  0  0  0  0  0  0
   68.3021   48.6604   10.7104 H   0  0  0  0  0  0  0  0  0  0  0  0
   66.8649   49.4355   10.6898 H   0  0  0  0  0  0  0  0  0  0  0  0
   66.3383   47.0796   10.7311 H   0  0  0  0  0  0  0  0  0  0  0  0
   65.2621   46.7925    8.5153 H   0  0  0  0  0  0  0  0  0  0  0  0
  1 17  1  0  0  0  0
  2 18  1  0  0  0  0
  3 19  2  0  0  0  0
  4 20  1  0  0  0  0
  5  9  1  0  0  0  0
  5 22  2  0  0  0  0
  6 19  1  0  0  0  0
  6 21  1  0  0  0  0
  7 20  2  0  0  0  0
  7 26  1  0  0  0  0
  8 26  1  0  0  0  0
  9 17  2  0  0  0  0
 10 13  2  0  0  0  0
 10 17  1  0  0  0  0
 11 12  1  0  0  0  0
 11 18  2  0  0  0  0
 12 21  2  0  0  0  0
 13 22  1  0  0  0  0
 14 21  1  0  0  0  0
 14 25  2  0  0  0  0
 15 23  1  0  0  0  0
 15 24  1  0  0  0  0
 16 23  1  0  0  0  0
 16 26  1  0  0  0  0
 18 25  1  0  0  0  0
 19 22  1  0  0  0  0
 20 24  1  0  0  0  0
 23 24  1  0  0  0  0
 25 26  1  0  0  0  0
  4 27  1  0  0  0  0
  4 28  1  0  0  0  0
  6 29  1  0  0  0  0
  8 30  1  0  0  0  0
  8 31  1  0  0  0  0
  8 32  1  0  0  0  0
  9 33  1  0  0  0  0
 10 34  1  0  0  0  0
 11 35  1  0  0  0  0
 12 36  1  0  0  0  0
 13 37  1  0  0  0  0
 14 38  1  0  0  0  0
 15 39  1  0  0  0  0
 15 40  1  0  0  0  0
 16 41  1  0  0  0  0
 16 42  1  0  0  0  0
 23 43  1  0  0  0  0
 24 44  1  0  0  0  0
M  END
> <pdb_id>
4BFD

> <uniprot_id>
P56817

> <usmiles>
Clc1cnc(cc1)C(=O)Nc2cc(c(F)cc2)[C@]3(N=C(N)[C@@H]4[C@H](C3)C4)C

$$$$
8TN_A_1105
          07192420163D 1   1.00000     0.00000     0
            
 58 61  0  0  0  0            999 V2000
   -6.8110  -48.3920   19.1590 S   0  0  0  0  0  0  0  0  0  0  0  0
   -3.2470  -51.4930   20.5730 O   0  0  0  0  0  0  0  0  0  0  0  0
   -9.9770  -47.0180   24.9890 N   0  0  0  0  0  0  0  0  0  0  0  0
   -7.4070  -45.1810   26.4330 N   0  0  0  0  0  0  0  0  0  0  0  0
   -5.4190  -46.4070   26.2080 N   0  0  0  0  0  0  0  0  0  0  0  0
   -5.4130  -48.5580   25.1690 N   0  0  0  0  0  0  0  0  0  0  0  0
   -7.4560  -49.4910   24.3220 N   0  0  0  0  0  0  0  0  0  0  0  0
   -3.1850  -56.1660   22.4020 N   0  0  0  0  0  0  0  0  0  0  0  0
   -4.9920  -50.0590   20.0150 N   0  0  0  0  0  0  0  0  0  0  0  0
   -1.7310  -56.2340   22.3940 C   0  0  0  0  0  0  0  0  0  0  0  0
   -3.6690  -57.5230   22.1900 C   0  0  0  0  0  0  0  0  0  0  0  0
   -7.6710  -51.8130   23.7040 C   0  0  0  0  0  0  0  0  0  0  0  0
   -3.4790  -50.2610   18.0290 C   0  0  0  0  0  0  0  0  0  0  0  0
   -5.5140  -48.8520   18.1470 C   0  0  0  0  0  0  0  0  0  0  0  0
   -4.8260  -47.5200   25.7720 C   0  0  0  0  0  0  0  0  0  0  0  0
   -8.8400  -47.1890   25.1420 C   0  0  0  0  0  0  0  0  0  0  0  0
   -3.6790  -55.6890   23.7000 C   0  0  0  0  0  0  0  0  0  0  0  0
   -2.5950  -52.2880   24.9230 C   0  0  0  0  0  0  0  0  0  0  0  0
   -2.7270  -53.6580   24.8030 C   0  0  0  0  0  0  0  0  0  0  0  0
   -3.3100  -51.4600   24.0780 C   0  0  0  0  0  0  0  0  0  0  0  0
   -6.6860  -49.6010   21.5850 C   0  0  0  0  0  0  0  0  0  0  0  0
   -4.2790  -53.3670   23.0050 C   0  0  0  0  0  0  0  0  0  0  0  0
   -6.1480  -49.4160   20.3780 C   0  0  0  0  0  0  0  0  0  0  0  0
   -4.2900  -50.9150   20.8540 C   0  0  0  0  0  0  0  0  0  0  0  0
   -6.7360  -46.3240   25.9880 C   0  0  0  0  0  0  0  0  0  0  0  0
   -6.7370  -48.4690   24.9630 C   0  0  0  0  0  0  0  0  0  0  0  0
   -6.6930  -50.6560   23.8620 C   0  0  1  0  0  0  0  0  0  0  0  0
   -4.6730  -49.7100   18.7260 C   0  0  0  0  0  0  0  0  0  0  0  0
   -3.5690  -54.2000   23.8490 C   0  0  0  0  0  0  0  0  0  0  0  0
   -4.1520  -51.9940   23.1230 C   0  0  0  0  0  0  0  0  0  0  0  0
   -7.4370  -47.3360   25.3580 C   0  0  0  0  0  0  0  0  0  0  0  0
   -6.0230  -50.4750   22.5300 C   0  0  0  0  0  0  0  0  0  0  0  0
   -4.8740  -51.1160   22.2040 C   0  0  0  0  0  0  0  0  0  0  0  0
   -8.3915  -45.0892   26.2836 H   0  0  0  0  0  0  0  0  0  0  0  0
   -6.9024  -44.4553   26.9007 H   0  0  0  0  0  0  0  0  0  0  0  0
   -8.4445  -49.4272   24.1853 H   0  0  0  0  0  0  0  0  0  0  0  0
   -1.3537  -55.3190   22.5370 H   0  0  0  0  0  0  0  0  0  0  0  0
   -1.4216  -56.8404   23.1265 H   0  0  0  0  0  0  0  0  0  0  0  0
   -1.4188  -56.5893   21.5129 H   0  0  0  0  0  0  0  0  0  0  0  0
   -4.6690  -57.5237   22.1881 H   0  0  0  0  0  0  0  0  0  0  0  0
   -3.3338  -57.8630   21.3114 H   0  0  0  0  0  0  0  0  0  0  0  0
   -3.3366  -58.1141   22.9249 H   0  0  0  0  0  0  0  0  0  0  0  0
   -7.1789  -52.6250   23.3902 H   0  0  0  0  0  0  0  0  0  0  0  0
   -8.1046  -52.0055   24.5843 H   0  0  0  0  0  0  0  0  0  0  0  0
   -8.3716  -51.5681   23.0338 H   0  0  0  0  0  0  0  0  0  0  0  0
   -3.4281  -49.8821   17.1050 H   0  0  0  0  0  0  0  0  0  0  0  0
   -2.6534  -50.0142   18.5364 H   0  0  0  0  0  0  0  0  0  0  0  0
   -3.5533  -51.2569   17.9773 H   0  0  0  0  0  0  0  0  0  0  0  0
   -5.3970  -48.5120   17.2139 H   0  0  0  0  0  0  0  0  0  0  0  0
   -3.8378  -47.5841   25.9112 H   0  0  0  0  0  0  0  0  0  0  0  0
   -3.1447  -56.1235   24.4251 H   0  0  0  0  0  0  0  0  0  0  0  0
   -4.6400  -55.9497   23.7921 H   0  0  0  0  0  0  0  0  0  0  0  0
   -1.9874  -51.8987   25.6153 H   0  0  0  0  0  0  0  0  0  0  0  0
   -2.2103  -54.2618   25.4100 H   0  0  0  0  0  0  0  0  0  0  0  0
   -3.2168  -50.4677   24.1590 H   0  0  0  0  0  0  0  0  0  0  0  0
   -7.5381  -49.1409   21.8343 H   0  0  0  0  0  0  0  0  0  0  0  0
   -4.8837  -53.7559   22.3100 H   0  0  0  0  0  0  0  0  0  0  0  0
   -6.0061  -50.8943   24.5486 H   0  0  0  0  0  0  0  0  0  0  0  0
  1 14  1  0  0  0  0
  1 23  1  0  0  0  0
  2 24  2  0  0  0  0
  3 16  3  0  0  0  0
  4 25  1  0  0  0  0
  5 15  2  0  0  0  0
  5 25  1  0  0  0  0
  6 15  1  0  0  0  0
  6 26  2  0  0  0  0
  7 26  1  0  0  0  0
  7 27  1  0  0  0  0
  8 10  1  0  0  0  0
  8 11  1  0  0  0  0
  8 17  1  0  0  0  0
  9 23  1  0  0  0  0
  9 24  1  0  0  0  0
  9 28  1  0  0  0  0
 12 27  1  0  0  0  0
 13 28  1  0  0  0  0
 14 28  2  0  0  0  0
 16 31  1  0  0  0  0
 17 29  1  0  0  0  0
 18 19  2  0  0  0  0
 18 20  1  0  0  0  0
 19 29  1  0  0  0  0
 20 30  2  0  0  0  0
 21 23  2  0  0  0  0
 21 32  1  0  0  0  0
 22 29  2  0  0  0  0
 22 30  1  0  0  0  0
 24 33  1  0  0  0  0
 25 31  2  0  0  0  0
 26 31  1  0  0  0  0
 27 32  1  0  0  0  0
 30 33  1  0  0  0  0
 32 33  2  0  0  0  0
  4 34  1  0  0  0  0
  4 35  1  0  0  0  0
  7 36  1  0  0  0  0
 10 37  1  0  0  0  0
 10 38  1  0  0  0  0
 10 39  1  0  0  0  0
 11 40  1  0  0  0  0
 11 41  1  0  0  0  0
 11 42  1  0  0  0  0
 12 43  1  0  0  0  0
 12 44  1  0  0  0  0
 12 45  1  0  0  0  0
 13 46  1  0  0  0  0
 13 47  1  0  0  0  0
 13 48  1  0  0  0  0
 14 49  1  0  0  0  0
 15 50  1  0  0  0  0
 17 51  1  0  0  0  0
 17 52  1  0  0  0  0
 18 53  1  0  0  0  0
 19 54  1  0  0  0  0
 20 55  1  0  0  0  0
 21 56  1  0  0  0  0
 22 57  1  0  0  0  0
 27 58  1  0  0  0  0
M  END
> <pdb_id>
5NCZ

> <uniprot_id>
O35904

> <usmiles>
S1C=2N(C(=O)C(c3cc(ccc3)CN(C)C)=C(C2)[C@@H](Nc4ncnc(N)c4C#N)C)C(=C1)C

$$$$
8U3_B_501
          07202413213D 1   1.00000     0.00000     0
            
 20 20  0  0  0  0            999 V2000
    9.9280   -7.8128   25.7988 S   0  0  0  0  0  0  0  0  0  0  0  0
   12.7659   -4.1718   30.5184 F   0  0  0  0  0  0  0  0  0  0  0  0
   12.1980   -3.2868   28.0206 F   0  0  0  0  0  0  0  0  0  0  0  0
    8.7627   -8.0205   25.0047 O   0  0  0  0  0  0  0  0  0  0  0  0
   10.7366   -6.8431   25.0916 O   0  0  0  0  0  0  0  0  0  0  0  0
    9.4808   -7.1710   27.2324 N   0  0  0  0  0  0  0  0  0  0  0  0
   10.8121   -9.3211   26.0950 C   0  0  0  0  0  0  0  0  0  0  0  0
   11.4613   -6.1000   30.1550 C   0  0  0  0  0  0  0  0  0  0  0  0
   10.6474   -6.8373   29.3177 C   0  0  0  0  0  0  0  0  0  0  0  0
   10.8649   -5.1834   27.5902 C   0  0  0  0  0  0  0  0  0  0  0  0
   11.9775   -4.8963   29.7123 C   0  0  0  0  0  0  0  0  0  0  0  0
   11.6879   -4.4470   28.4314 C   0  0  0  0  0  0  0  0  0  0  0  0
   10.3538   -6.3909   28.0359 C   0  0  0  0  0  0  0  0  0  0  0  0
    8.5500   -7.3348   27.5592 H   0  0  0  0  0  0  0  0  0  0  0  0
   11.6193   -9.1302   26.6536 H   0  0  0  0  0  0  0  0  0  0  0  0
   10.2187   -9.9664   26.5762 H   0  0  0  0  0  0  0  0  0  0  0  0
   11.0970   -9.7174   25.2222 H   0  0  0  0  0  0  0  0  0  0  0  0
   11.6753   -6.4337   31.0731 H   0  0  0  0  0  0  0  0  0  0  0  0
   10.2646   -7.7036   29.6385 H   0  0  0  0  0  0  0  0  0  0  0  0
   10.6442   -4.8465   26.6749 H   0  0  0  0  0  0  0  0  0  0  0  0
  1  4  2  0  0  0  0
  1  5  2  0  0  0  0
  1  6  1  0  0  0  0
  1  7  1  0  0  0  0
  2 11  1  0  0  0  0
  3 12  1  0  0  0  0
  6 13  1  0  0  0  0
  8  9  2  0  0  0  0
  8 11  1  0  0  0  0
  9 13  1  0  0  0  0
 10 12  1  0  0  0  0
 10 13  2  0  0  0  0
 11 12  2  0  0  0  0
  6 14  1  0  0  0  0
  7 15  1  0  0  0  0
  7 16  1  0  0  0  0
  7 17  1  0  0  0  0
  8 18  1  0  0  0  0
  9 19  1  0  0  0  0
 10 20  1  0  0  0  0
M  END
> <pdb_id>
5YE8

> <uniprot_id>
Q13093

> <usmiles>
S(=O)(=O)(Nc1cc(F)c(F)cc1)C

$$$$
8U9_A_503
          07202413213D 1   1.00000     0.00000     0
            
 45 47  0  0  0  0            999 V2000
   18.9740   -6.5460   30.9200 Cl  0  0  0  0  0  0  0  0  0  0  0  0
   10.0150   -7.4980   25.6830 S   0  0  0  0  0  0  0  0  0  0  0  0
   18.7170   -3.8000   32.4860 F   0  0  0  0  0  0  0  0  0  0  0  0
   18.1920   -5.5070   33.6280 F   0  0  0  0  0  0  0  0  0  0  0  0
   17.0000   -3.7470   33.7240 F   0  0  0  0  0  0  0  0  0  0  0  0
    8.7940   -7.8200   25.0180 O   0  0  0  0  0  0  0  0  0  0  0  0
   10.9020   -6.5340   25.1170 O   0  0  0  0  0  0  0  0  0  0  0  0
   12.3810  -13.7170   26.3430 O   0  0  0  0  0  0  0  0  0  0  0  0
   14.1980  -12.5790   26.8420 O   0  0  0  0  0  0  0  0  0  0  0  0
   13.4350   -4.5310   30.5230 O   0  0  0  0  0  0  0  0  0  0  0  0
   13.0810   -2.2420   27.8800 N   0  0  0  0  0  0  0  0  0  0  0  0
    9.6630   -7.0190   27.2020 N   0  0  0  0  0  0  0  0  0  0  0  0
   12.6170   -3.2440   28.1760 C   0  0  0  0  0  0  0  0  0  0  0  0
   16.5280   -6.3790   29.7890 C   0  0  0  0  0  0  0  0  0  0  0  0
   12.2300   -8.9660   26.2450 C   0  0  0  0  0  0  0  0  0  0  0  0
   10.2250  -10.2080   25.7640 C   0  0  0  0  0  0  0  0  0  0  0  0
   15.2220   -5.9260   29.6690 C   0  0  0  0  0  0  0  0  0  0  0  0
   11.9670   -6.4130   30.0380 C   0  0  0  0  0  0  0  0  0  0  0  0
   11.0330   -7.0160   29.2160 C   0  0  0  0  0  0  0  0  0  0  0  0
   12.9080  -10.1570   26.4420 C   0  0  0  0  0  0  0  0  0  0  0  0
   10.9140  -11.3910   25.9530 C   0  0  0  0  0  0  0  0  0  0  0  0
   15.5290   -4.5840   31.6270 C   0  0  0  0  0  0  0  0  0  0  0  0
   11.1470   -5.1540   27.7020 C   0  0  0  0  0  0  0  0  0  0  0  0
   17.3310   -5.9410   30.8310 C   0  0  0  0  0  0  0  0  0  0  0  0
   10.8900   -9.0020   25.9030 C   0  0  0  0  0  0  0  0  0  0  0  0
   13.0020  -12.6550   26.5050 C   0  0  0  0  0  0  0  0  0  0  0  0
   14.7380   -5.0220   30.5860 C   0  0  0  0  0  0  0  0  0  0  0  0
   12.5050   -5.1730   29.7060 C   0  0  0  0  0  0  0  0  0  0  0  0
   10.6300   -6.4030   28.0410 C   0  0  0  0  0  0  0  0  0  0  0  0
   12.2590  -11.3730   26.2890 C   0  0  0  0  0  0  0  0  0  0  0  0
   12.0930   -4.5350   28.5280 C   0  0  0  0  0  0  0  0  0  0  0  0
   16.8410   -5.0250   31.7590 C   0  0  0  0  0  0  0  0  0  0  0  0
   17.6830   -4.5220   32.8950 C   0  0  0  0  0  0  0  0  0  0  0  0
   11.4189  -13.6971   26.0709 H   0  0  0  0  0  0  0  0  0  0  0  0
    8.7380   -7.1634   27.5535 H   0  0  0  0  0  0  0  0  0  0  0  0
   16.8926   -7.0259   29.1193 H   0  0  0  0  0  0  0  0  0  0  0  0
   12.7029   -8.0910   26.3486 H   0  0  0  0  0  0  0  0  0  0  0  0
    9.2532  -10.2232   25.5286 H   0  0  0  0  0  0  0  0  0  0  0  0
   14.6395   -6.2528   28.9247 H   0  0  0  0  0  0  0  0  0  0  0  0
   12.2583   -6.8714   30.8777 H   0  0  0  0  0  0  0  0  0  0  0  0
   10.6454   -7.9016   29.4717 H   0  0  0  0  0  0  0  0  0  0  0  0
   13.8748  -10.1402   26.6970 H   0  0  0  0  0  0  0  0  0  0  0  0
   10.4397  -12.2650   25.8468 H   0  0  0  0  0  0  0  0  0  0  0  0
   15.1545   -3.9413   32.2953 H   0  0  0  0  0  0  0  0  0  0  0  0
   10.8413   -4.6983   26.8660 H   0  0  0  0  0  0  0  0  0  0  0  0
  1 24  1  0  0  0  0
  2  6  2  0  0  0  0
  2  7  2  0  0  0  0
  2 12  1  0  0  0  0
  2 25  1  0  0  0  0
  3 33  1  0  0  0  0
  4 33  1  0  0  0  0
  5 33  1  0  0  0  0
  8 26  1  0  0  0  0
  9 26  2  0  0  0  0
 10 27  1  0  0  0  0
 10 28  1  0  0  0  0
 11 13  3  0  0  0  0
 12 29  1  0  0  0  0
 13 31  1  0  0  0  0
 14 17  2  0  0  0  0
 14 24  1  0  0  0  0
 15 20  1  0  0  0  0
 15 25  2  0  0  0  0
 16 21  2  0  0  0  0
 16 25  1  0  0  0  0
 17 27  1  0  0  0  0
 18 19  1  0  0  0  0
 18 28  2  0  0  0  0
 19 29  2  0  0  0  0
 20 30  2  0  0  0  0
 21 30  1  0  0  0  0
 22 27  2  0  0  0  0
 22 32  1  0  0  0  0
 23 29  1  0  0  0  0
 23 31  2  0  0  0  0
 24 32  2  0  0  0  0
 26 30  1  0  0  0  0
 28 31  1  0  0  0  0
 32 33  1  0  0  0  0
  8 34  1  0  0  0  0
 12 35  1  0  0  0  0
 14 36  1  0  0  0  0
 15 37  1  0  0  0  0
 16 38  1  0  0  0  0
 17 39  1  0  0  0  0
 18 40  1  0  0  0  0
 19 41  1  0  0  0  0
 20 42  1  0  0  0  0
 21 43  1  0  0  0  0
 22 44  1  0  0  0  0
 23 45  1  0  0  0  0
M  END
> <pdb_id>
5YEA

> <uniprot_id>
Q13093

> <usmiles>
Clc1c(cc(Oc2c(C#N)cc(NS(=O)(=O)c3ccc(cc3)C(=O)O)cc2)cc1)C(F)(F)F

$$$$
8UP_A_301
          07202413303D 1   1.00000     0.00000     0
            
 37 38  0  0  0  0            999 V2000
  -24.8877  -19.3881    2.3472 Br  0  0  0  0  0  0  0  0  0  0  0  0
  -26.1042  -15.8181   -1.2381 O   0  0  0  0  0  0  0  0  0  0  0  0
  -27.6381  -17.9560   -0.8282 O   0  0  0  0  0  0  0  0  0  0  0  0
  -32.1110  -20.7939   -4.2711 N   0  0  0  0  0  0  0  0  0  0  0  0
  -32.0593  -20.4796   -1.9338 N   0  0  0  0  0  0  0  0  0  0  0  0
  -25.4574  -14.5363   -1.2201 C   0  0  0  0  0  0  0  0  0  0  0  0
  -27.2699  -15.3669   -3.4283 C   0  0  0  0  0  0  0  0  0  0  0  0
  -28.2578  -15.7492   -4.3189 C   0  0  0  0  0  0  0  0  0  0  0  0
  -30.8720  -18.3257   -4.7639 C   0  0  0  0  0  0  0  0  0  0  0  0
  -30.0484  -17.2746   -5.0300 C   0  0  0  0  0  0  0  0  0  0  0  0
  -29.7567  -18.7210   -2.6076 C   0  0  0  0  0  0  0  0  0  0  0  0
  -25.9007  -17.8752    1.4678 C   0  0  0  0  0  0  0  0  0  0  0  0
  -28.1612  -17.4096    0.3972 C   0  0  0  0  0  0  0  0  0  0  0  0
  -27.3854  -18.1760    1.5022 C   0  0  0  0  0  0  0  0  0  0  0  0
  -31.6982  -20.1864   -3.2426 C   0  0  0  0  0  0  0  0  0  0  0  0
  -27.0582  -16.1009   -2.2174 C   0  0  0  0  0  0  0  0  0  0  0  0
  -27.8601  -17.2111   -1.9466 C   0  0  0  0  0  0  0  0  0  0  0  0
  -30.7362  -19.0554   -3.5127 C   0  0  0  0  0  0  0  0  0  0  0  0
  -29.0565  -16.8738   -4.0735 C   0  0  0  0  0  0  0  0  0  0  0  0
  -28.8932  -17.6171   -2.8678 C   0  0  0  0  0  0  0  0  0  0  0  0
  -32.7828  -21.5305   -4.1091 H   0  0  0  0  0  0  0  0  0  0  0  0
  -32.7010  -21.2394   -1.7311 H   0  0  0  0  0  0  0  0  0  0  0  0
  -31.7150  -19.9580   -1.1352 H   0  0  0  0  0  0  0  0  0  0  0  0
  -24.8391  -14.3978   -0.3347 H   0  0  0  0  0  0  0  0  0  0  0  0
  -24.8564  -14.3373   -2.1054 H   0  0  0  0  0  0  0  0  0  0  0  0
  -26.2805  -13.8255   -1.1844 H   0  0  0  0  0  0  0  0  0  0  0  0
  -26.6594  -14.4981   -3.6709 H   0  0  0  0  0  0  0  0  0  0  0  0
  -28.4611  -15.1449   -5.2011 H   0  0  0  0  0  0  0  0  0  0  0  0
  -31.6351  -18.6108   -5.4878 H   0  0  0  0  0  0  0  0  0  0  0  0
  -30.1355  -16.7220   -5.9643 H   0  0  0  0  0  0  0  0  0  0  0  0
  -29.6120  -19.3152   -1.7089 H   0  0  0  0  0  0  0  0  0  0  0  0
  -25.4526  -17.8001    0.4796 H   0  0  0  0  0  0  0  0  0  0  0  0
  -25.6218  -17.0002    2.0522 H   0  0  0  0  0  0  0  0  0  0  0  0
  -29.2335  -17.5739    0.4849 H   0  0  0  0  0  0  0  0  0  0  0  0
  -28.0001  -16.3354    0.4761 H   0  0  0  0  0  0  0  0  0  0  0  0
  -27.5628  -19.2474    1.4255 H   0  0  0  0  0  0  0  0  0  0  0  0
  -27.7772  -17.9133    2.4820 H   0  0  0  0  0  0  0  0  0  0  0  0
  1 12  1  0  0  0  0
  2  6  1  0  0  0  0
  2 16  1  0  0  0  0
  3 13  1  0  0  0  0
  3 17  1  0  0  0  0
  4 15  2  0  0  0  0
  4 21  1  0  0  0  0
  5 15  1  0  0  0  0
  5 22  1  0  0  0  0
  5 23  1  0  0  0  0
  6 24  1  0  0  0  0
  6 25  1  0  0  0  0
  6 26  1  0  0  0  0
  7  8  2  0  0  0  0
  7 16  1  0  0  0  0
  7 27  1  0  0  0  0
  8 19  1  0  0  0  0
  8 28  1  0  0  0  0
  9 10  1  0  0  0  0
  9 18  2  0  0  0  0
  9 29  1  0  0  0  0
 10 19  2  0  0  0  0
 10 30  1  0  0  0  0
 11 18  1  0  0  0  0
 11 20  2  0  0  0  0
 11 31  1  0  0  0  0
 12 14  1  0  0  0  0
 12 32  1  0  0  0  0
 12 33  1  0  0  0  0
 13 14  1  0  0  0  0
 13 34  1  0  0  0  0
 13 35  1  0  0  0  0
 14 36  1  0  0  0  0
 14 37  1  0  0  0  0
 15 18  1  0  0  0  0
 16 17  2  0  0  0  0
 17 20  1  0  0  0  0
 19 20  1  0  0  0  0
M  END
> <pdb_id>
4FUF

> <uniprot_id>
P00749

> <usmiles>
BrCCCOc1c(OC)ccc2c1cc(cc2)C(=N)N

$$$$
8V8_A_302
          07192416293D 1   1.00000     0.00000     0
            
 26 27  0  0  0  0            999 V2000
   -5.8793    1.0006   16.8274 S   0  0  0  0  0  0  0  0  0  0  0  0
   -5.3573    1.1226   18.1582 O   0  0  0  0  0  0  0  0  0  0  0  0
   -7.3057    1.0847   16.6454 O   0  0  0  0  0  0  0  0  0  0  0  0
   -2.1195    5.7348   13.7656 O   0  0  0  0  0  0  0  0  0  0  0  0
   -5.3730   -0.3910   16.2003 N   0  0  0  0  0  0  0  0  0  0  0  0
   -2.9879    7.4190   12.5643 N   0  0  0  0  0  0  0  0  0  0  0  0
   -0.5830    7.5384   13.2191 C   0  0  0  0  0  0  0  0  0  0  0  0
   -3.9745    6.5283   12.9148 C   0  0  0  0  0  0  0  0  0  0  0  0
   -5.9877    3.3418   15.4257 C   0  0  0  0  0  0  0  0  0  0  0  0
   -3.8014    2.3546   15.6536 C   0  0  0  0  0  0  0  0  0  0  0  0
   -5.4317    4.3960   14.7233 C   0  0  0  0  0  0  0  0  0  0  0  0
   -3.2545    3.4208   14.9561 C   0  0  0  0  0  0  0  0  0  0  0  0
   -5.1700    2.3221   15.8889 C   0  0  0  0  0  0  0  0  0  0  0  0
   -1.9465    6.9620   13.1762 C   0  0  0  0  0  0  0  0  0  0  0  0
   -3.4924    5.5845   13.7462 C   0  0  0  0  0  0  0  0  0  0  0  0
   -4.0632    4.4464   14.4690 C   0  0  0  0  0  0  0  0  0  0  0  0
   -5.7308   -0.4878   15.2715 H   0  0  0  0  0  0  0  0  0  0  0  0
   -4.3734   -0.4013   16.1753 H   0  0  0  0  0  0  0  0  0  0  0  0
   -0.5823    8.4273   12.7611 H   0  0  0  0  0  0  0  0  0  0  0  0
   -0.2997    7.6537   14.1711 H   0  0  0  0  0  0  0  0  0  0  0  0
    0.0537    6.9233   12.7540 H   0  0  0  0  0  0  0  0  0  0  0  0
   -4.9212    6.5746   12.5960 H   0  0  0  0  0  0  0  0  0  0  0  0
   -6.9723    3.3154   15.5983 H   0  0  0  0  0  0  0  0  0  0  0  0
   -3.2154    1.6150   15.9846 H   0  0  0  0  0  0  0  0  0  0  0  0
   -6.0214    5.1331   14.3931 H   0  0  0  0  0  0  0  0  0  0  0  0
   -2.2672    3.4544   14.8006 H   0  0  0  0  0  0  0  0  0  0  0  0
  1  2  2  0  0  0  0
  1  3  2  0  0  0  0
  1  5  1  0  0  0  0
  1 13  1  0  0  0  0
  4 14  1  0  0  0  0
  4 15  1  0  0  0  0
  6  8  1  0  0  0  0
  6 14  2  0  0  0  0
  7 14  1  0  0  0  0
  8 15  2  0  0  0  0
  9 11  1  0  0  0  0
  9 13  2  0  0  0  0
 10 12  2  0  0  0  0
 10 13  1  0  0  0  0
 11 16  2  0  0  0  0
 12 16  1  0  0  0  0
 15 16  1  0  0  0  0
  5 17  1  0  0  0  0
  5 18  1  0  0  0  0
  7 19  1  0  0  0  0
  7 20  1  0  0  0  0
  7 21  1  0  0  0  0
  8 22  1  0  0  0  0
  9 23  1  0  0  0  0
 10 24  1  0  0  0  0
 11 25  1  0  0  0  0
 12 26  1  0  0  0  0
M  END
> <pdb_id>
5NEA

> <uniprot_id>
P00918

> <usmiles>
S(=O)(=O)(N)c1ccc(cc1)C=2OC(=NC2)C

$$$$
8VE_B_305
          07212403073D 1   1.00000     0.00000     0
            
 26 27  0  0  0  0            999 V2000
  -46.0937  -24.5250  -19.2621 O   0  0  0  0  0  0  0  0  0  0  0  0
  -44.4648  -23.1666  -19.8882 O   0  0  0  0  0  0  0  0  0  0  0  0
  -42.3517  -19.2052  -16.9172 O   0  0  0  0  0  0  0  0  0  0  0  0
  -42.6373  -19.7689  -19.0177 O   0  0  0  0  0  0  0  0  0  0  0  0
  -47.2110  -22.3410  -17.7318 N   0  0  0  0  0  0  0  0  0  0  0  0
  -44.3499  -20.7697  -15.9323 N   0  0  0  0  0  0  0  0  0  0  0  0
  -47.3855  -21.1342  -17.0593 N   0  0  0  0  0  0  0  0  0  0  0  0
  -48.4220  -21.0067  -16.0434 C   0  0  0  0  0  0  0  0  0  0  0  0
  -45.5535  -19.8252  -15.9444 C   0  0  0  0  0  0  0  0  0  0  0  0
  -45.5039  -23.4167  -19.2319 C   0  0  0  0  0  0  0  0  0  0  0  0
  -42.9063  -19.9042  -17.8035 C   0  0  0  0  0  0  0  0  0  0  0  0
  -46.0905  -22.3162  -18.3616 C   0  0  0  0  0  0  0  0  0  0  0  0
  -43.9619  -20.9799  -17.4079 C   0  0  2  0  0  0  0  0  0  0  0  0
  -46.3004  -20.2012  -17.2470 C   0  0  1  0  0  0  0  0  0  0  0  0
  -45.3400  -20.9905  -18.1278 C   0  0  2  0  0  0  0  0  0  0  0  0
  -46.9197  -24.6669  -18.7166 H   0  0  0  0  0  0  0  0  0  0  0  0
  -42.5888  -19.3377  -15.9548 H   0  0  0  0  0  0  0  0  0  0  0  0
  -44.5966  -21.6419  -15.5101 H   0  0  0  0  0  0  0  0  0  0  0  0
  -48.4066  -20.0808  -15.6659 H   0  0  0  0  0  0  0  0  0  0  0  0
  -49.3158  -21.1840  -16.4552 H   0  0  0  0  0  0  0  0  0  0  0  0
  -48.2549  -21.6678  -15.3119 H   0  0  0  0  0  0  0  0  0  0  0  0
  -45.2575  -18.8703  -15.9658 H   0  0  0  0  0  0  0  0  0  0  0  0
  -46.1337  -19.9765  -15.1441 H   0  0  0  0  0  0  0  0  0  0  0  0
  -43.5460  -21.8844  -17.5024 H   0  0  0  0  0  0  0  0  0  0  0  0
  -46.6193  -19.3800  -17.7203 H   0  0  0  0  0  0  0  0  0  0  0  0
  -45.2469  -20.5169  -19.0037 H   0  0  0  0  0  0  0  0  0  0  0  0
  1 10  1  0  0  0  0
  2 10  2  0  0  0  0
  3 11  1  0  0  0  0
  4 11  2  0  0  0  0
  5  7  1  0  0  0  0
  5 12  2  0  0  0  0
  6  9  1  0  0  0  0
  6 13  1  0  0  0  0
  7  8  1  0  0  0  0
  7 14  1  0  0  0  0
  9 14  1  0  0  0  0
 10 12  1  0  0  0  0
 11 13  1  0  0  0  0
 12 15  1  0  0  0  0
 13 15  1  0  0  0  0
 14 15  1  0  0  0  0
  1 16  1  0  0  0  0
  3 17  1  0  0  0  0
  6 18  1  0  0  0  0
  8 19  1  0  0  0  0
  8 20  1  0  0  0  0
  8 21  1  0  0  0  0
  9 22  1  0  0  0  0
  9 23  1  0  0  0  0
 13 24  1  0  0  0  0
 14 25  1  0  0  0  0
 15 26  1  0  0  0  0
M  END
> <pdb_id>
5O4F

> <uniprot_id>
P42264

> <usmiles>
O=C(O)C1=NN([C@@H]2[C@H]1[C@H](NC2)C(=O)O)C

$$$$
8WA_B_801
          07192416263D 1   1.00000     0.00000     0
            
 46 49  0  0  0  0            999 V2000
  -45.0245   17.8495   16.4985 Cl  0  0  0  0  0  0  0  0  0  0  0  0
  -41.7120   17.1429    7.0115 Cl  0  0  0  0  0  0  0  0  0  0  0  0
  -36.9895   14.5856    7.0425 Cl  0  0  0  0  0  0  0  0  0  0  0  0
  -41.7790   11.5892    8.7158 N   0  0  0  0  0  0  0  0  0  0  0  0
  -38.6236   12.1318    7.2034 N   0  0  0  0  0  0  0  0  0  0  0  0
  -44.8940   14.1169   13.1062 N   0  0  0  0  0  0  0  0  0  0  0  0
  -44.9971   15.9229   14.7541 N   0  0  0  0  0  0  0  0  0  0  0  0
  -42.7060   14.1191   12.7189 N   0  0  0  0  0  0  0  0  0  0  0  0
  -44.0704   12.5610   11.5560 N   0  0  0  0  0  0  0  0  0  0  0  0
  -45.4162   12.0753   11.2829 C   0  0  0  0  0  0  0  0  0  0  0  0
  -42.8924   12.2774    9.3775 C   0  0  0  0  0  0  0  0  0  0  0  0
  -39.2455   10.8127    7.3032 C   0  0  0  0  0  0  0  0  0  0  0  0
  -42.9739   11.9055   10.8421 C   0  0  0  0  0  0  0  0  0  0  0  0
  -42.8423   16.8864   15.2400 C   0  0  0  0  0  0  0  0  0  0  0  0
  -40.6359   10.8123    6.6976 C   0  0  0  0  0  0  0  0  0  0  0  0
  -42.2351   16.0186   14.3498 C   0  0  0  0  0  0  0  0  0  0  0  0
  -39.4256   15.7132    7.0376 C   0  0  0  0  0  0  0  0  0  0  0  0
  -41.4777   14.4588    7.1574 C   0  0  0  0  0  0  0  0  0  0  0  0
  -43.8617   13.5655   12.4246 C   0  0  0  0  0  0  0  0  0  0  0  0
  -44.2126   16.7828   15.3909 C   0  0  0  0  0  0  0  0  0  0  0  0
  -44.3680   15.1023   13.9017 C   0  0  0  0  0  0  0  0  0  0  0  0
  -40.8017   15.6581    7.0732 C   0  0  0  0  0  0  0  0  0  0  0  0
  -38.7216   14.5281    7.0863 C   0  0  0  0  0  0  0  0  0  0  0  0
  -41.4836   11.9205    7.3129 C   0  0  2  0  0  0  0  0  0  0  0  0
  -43.0214   15.0984   13.6593 C   0  0  0  0  0  0  0  0  0  0  0  0
  -39.3666   13.2959    7.1697 C   0  0  0  0  0  0  0  0  0  0  0  0
  -40.7707   13.2577    7.2082 C   0  0  0  0  0  0  0  0  0  0  0  0
  -41.9737   10.6090    8.7530 H   0  0  0  0  0  0  0  0  0  0  0  0
  -37.6265   12.1936    7.1579 H   0  0  0  0  0  0  0  0  0  0  0  0
  -45.8569   13.8551   13.0416 H   0  0  0  0  0  0  0  0  0  0  0  0
  -46.0751   12.5965   11.8253 H   0  0  0  0  0  0  0  0  0  0  0  0
  -45.6207   12.1890   10.3106 H   0  0  0  0  0  0  0  0  0  0  0  0
  -45.4767   11.1070   11.5252 H   0  0  0  0  0  0  0  0  0  0  0  0
  -43.7479   12.0205    8.9278 H   0  0  0  0  0  0  0  0  0  0  0  0
  -42.7580   13.2652    9.2989 H   0  0  0  0  0  0  0  0  0  0  0  0
  -39.3100   10.5550    8.2673 H   0  0  0  0  0  0  0  0  0  0  0  0
  -38.6784   10.1474    6.8176 H   0  0  0  0  0  0  0  0  0  0  0  0
  -43.1002   10.9158   10.9099 H   0  0  0  0  0  0  0  0  0  0  0  0
  -42.1131   12.1626   11.2813 H   0  0  0  0  0  0  0  0  0  0  0  0
  -42.3117   17.5610   15.7532 H   0  0  0  0  0  0  0  0  0  0  0  0
  -41.0712    9.9291    6.8720 H   0  0  0  0  0  0  0  0  0  0  0  0
  -40.5657   10.9603    5.7111 H   0  0  0  0  0  0  0  0  0  0  0  0
  -41.2463   16.0512   14.2041 H   0  0  0  0  0  0  0  0  0  0  0  0
  -38.9492   16.5904    6.9779 H   0  0  0  0  0  0  0  0  0  0  0  0
  -42.4774   14.4505    7.1820 H   0  0  0  0  0  0  0  0  0  0  0  0
  -42.3463   11.9787    6.8104 H   0  0  0  0  0  0  0  0  0  0  0  0
  1 20  1  0  0  0  0
  2 22  1  0  0  0  0
  3 23  1  0  0  0  0
  4 11  1  0  0  0  0
  4 24  1  0  0  0  0
  5 12  1  0  0  0  0
  5 26  1  0  0  0  0
  6 19  1  0  0  0  0
  6 21  1  0  0  0  0
  7 20  1  0  0  0  0
  7 21  2  0  0  0  0
  8 19  2  0  0  0  0
  8 25  1  0  0  0  0
  9 10  1  0  0  0  0
  9 13  1  0  0  0  0
  9 19  1  0  0  0  0
 11 13  1  0  0  0  0
 12 15  1  0  0  0  0
 14 16  1  0  0  0  0
 14 20  2  0  0  0  0
 15 24  1  0  0  0  0
 16 25  2  0  0  0  0
 17 22  2  0  0  0  0
 17 23  1  0  0  0  0
 18 22  1  0  0  0  0
 18 27  2  0  0  0  0
 21 25  1  0  0  0  0
 23 26  2  0  0  0  0
 24 27  1  0  0  0  0
 26 27  1  0  0  0  0
  4 28  1  0  0  0  0
  5 29  1  0  0  0  0
  6 30  1  0  0  0  0
 10 31  1  0  0  0  0
 10 32  1  0  0  0  0
 10 33  1  0  0  0  0
 11 34  1  0  0  0  0
 11 35  1  0  0  0  0
 12 36  1  0  0  0  0
 12 37  1  0  0  0  0
 13 38  1  0  0  0  0
 13 39  1  0  0  0  0
 14 40  1  0  0  0  0
 15 41  1  0  0  0  0
 15 42  1  0  0  0  0
 16 43  1  0  0  0  0
 17 44  1  0  0  0  0
 18 45  1  0  0  0  0
 24 46  1  0  0  0  0
M  END
> <pdb_id>
5V49

> <uniprot_id>
Q38C91

> <usmiles>
Clc1nc2NC(=Nc2cc1)N(CCN[C@H]3c4c(NCC3)c(Cl)cc(Cl)c4)C

$$$$
8WB_B_501
          07202409083D 1   1.00000     0.00000     0
            
 40 41  0  0  0  0            999 V2000
   18.1485  -65.5687  -47.5922 O   0  0  0  0  0  0  0  0  0  0  0  0
   17.0317  -63.3750  -47.0176 O   0  0  0  0  0  0  0  0  0  0  0  0
   16.9244  -67.8141  -38.0651 O   0  0  0  0  0  0  0  0  0  0  0  0
   14.8605  -66.8060  -39.2188 O   0  0  0  0  0  0  0  0  0  0  0  0
   14.9793  -65.9222  -41.8211 O   0  0  0  0  0  0  0  0  0  0  0  0
   16.7894  -62.0025  -46.7548 C   0  0  0  0  0  0  0  0  0  0  0  0
   18.1128  -68.1985  -37.3893 C   0  0  0  0  0  0  0  0  0  0  0  0
   14.5739  -65.4623  -38.8872 C   0  0  0  0  0  0  0  0  0  0  0  0
   14.0799  -66.9410  -42.1992 C   0  0  0  0  0  0  0  0  0  0  0  0
   18.1450  -66.5616  -45.6026 C   0  0  0  0  0  0  0  0  0  0  0  0
   16.7727  -63.9921  -44.7137 C   0  0  0  0  0  0  0  0  0  0  0  0
   18.3036  -67.4757  -40.0513 C   0  0  0  0  0  0  0  0  0  0  0  0
   17.9455  -66.8308  -44.2523 C   0  0  0  0  0  0  0  0  0  0  0  0
   16.8525  -64.7542  -43.5449 C   0  0  0  0  0  0  0  0  0  0  0  0
   18.3611  -67.0228  -41.3665 C   0  0  0  0  0  0  0  0  0  0  0  0
   17.8235  -65.4664  -46.4068 C   0  0  0  0  0  0  0  0  0  0  0  0
   17.2030  -64.2796  -45.9974 C   0  0  0  0  0  0  0  0  0  0  0  0
   17.1148  -67.3975  -39.3392 C   0  0  0  0  0  0  0  0  0  0  0  0
   16.0045  -66.8805  -39.9492 C   0  0  0  0  0  0  0  0  0  0  0  0
   16.0788  -66.4285  -41.2483 C   0  0  0  0  0  0  0  0  0  0  0  0
   17.3411  -66.0188  -43.2887 C   0  0  0  0  0  0  0  0  0  0  0  0
   17.2527  -66.4778  -41.9786 C   0  0  0  0  0  0  0  0  0  0  0  0
   16.6931  -61.5095  -47.6195 H   0  0  0  0  0  0  0  0  0  0  0  0
   15.9484  -61.9085  -46.2220 H   0  0  0  0  0  0  0  0  0  0  0  0
   17.5559  -61.6217  -46.2376 H   0  0  0  0  0  0  0  0  0  0  0  0
   17.8879  -68.4914  -36.4600 H   0  0  0  0  0  0  0  0  0  0  0  0
   18.5465  -68.9535  -37.8811 H   0  0  0  0  0  0  0  0  0  0  0  0
   18.7407  -67.4212  -37.3510 H   0  0  0  0  0  0  0  0  0  0  0  0
   13.7308  -65.4239  -38.3508 H   0  0  0  0  0  0  0  0  0  0  0  0
   15.3278  -65.0833  -38.3507 H   0  0  0  0  0  0  0  0  0  0  0  0
   14.4602  -64.9290  -39.7255 H   0  0  0  0  0  0  0  0  0  0  0  0
   13.2716  -66.5319  -42.6226 H   0  0  0  0  0  0  0  0  0  0  0  0
   14.5250  -67.5530  -42.8529 H   0  0  0  0  0  0  0  0  0  0  0  0
   13.8054  -67.4605  -41.3899 H   0  0  0  0  0  0  0  0  0  0  0  0
   18.6103  -67.2976  -46.0942 H   0  0  0  0  0  0  0  0  0  0  0  0
   16.3362  -63.0989  -44.6055 H   0  0  0  0  0  0  0  0  0  0  0  0
   19.1203  -67.8579  -39.6188 H   0  0  0  0  0  0  0  0  0  0  0  0
   18.2767  -67.7178  -43.9304 H   0  0  0  0  0  0  0  0  0  0  0  0
   16.4838  -64.2935  -42.7375 H   0  0  0  0  0  0  0  0  0  0  0  0
   19.2193  -67.0940  -41.8748 H   0  0  0  0  0  0  0  0  0  0  0  0
  1 16  2  0  0  0  0
  2  6  1  0  0  0  0
  2 17  1  0  0  0  0
  3  7  1  0  0  0  0
  3 18  1  0  0  0  0
  4  8  1  0  0  0  0
  4 19  1  0  0  0  0
  5  9  1  0  0  0  0
  5 20  1  0  0  0  0
 10 13  2  0  0  0  0
 10 16  1  0  0  0  0
 11 14  1  0  0  0  0
 11 17  2  0  0  0  0
 12 15  2  0  0  0  0
 12 18  1  0  0  0  0
 13 21  1  0  0  0  0
 14 21  2  0  0  0  0
 15 22  1  0  0  0  0
 16 17  1  0  0  0  0
 18 19  2  0  0  0  0
 19 20  1  0  0  0  0
 20 22  2  0  0  0  0
 21 22  1  0  0  0  0
  6 23  1  0  0  0  0
  6 24  1  0  0  0  0
  6 25  1  0  0  0  0
  7 26  1  0  0  0  0
  7 27  1  0  0  0  0
  7 28  1  0  0  0  0
  8 29  1  0  0  0  0
  8 30  1  0  0  0  0
  8 31  1  0  0  0  0
  9 32  1  0  0  0  0
  9 33  1  0  0  0  0
  9 34  1  0  0  0  0
 10 35  1  0  0  0  0
 11 36  1  0  0  0  0
 12 37  1  0  0  0  0
 13 38  1  0  0  0  0
 14 39  1  0  0  0  0
 15 40  1  0  0  0  0
M  END
> <pdb_id>
5NFZ

> <uniprot_id>
P81947

> <usmiles>
O=C1C(OC)=CC=C(c2c(OC)c(OC)c(OC)cc2)C=C1

$$$$
8WD_A_505
          07202411513D 1   1.00000     0.00000     0
            
 59 63  0  0  0  0            999 V2000
   19.8270   -2.0910   16.6990 S   0  0  0  0  0  0  0  0  0  0  0  0
   20.3170   -2.1990   18.0480 O   0  0  0  0  0  0  0  0  0  0  0  0
   18.6500   -2.8380   16.3090 O   0  0  0  0  0  0  0  0  0  0  0  0
   17.5470    4.1380   14.2810 O   0  0  0  0  0  0  0  0  0  0  0  0
   15.0800    5.2380   17.8520 O   0  0  0  0  0  0  0  0  0  0  0  0
   24.9840   -4.4020   14.5520 N   0  0  0  0  0  0  0  0  0  0  0  0
   15.9060    4.2730   17.3010 N   0  0  0  0  0  0  0  0  0  0  0  0
   18.4000    3.1810   16.0950 N   0  0  0  0  0  0  0  0  0  0  0  0
   19.5560   -0.4900   16.3720 N   0  0  0  0  0  0  0  0  0  0  0  0
   22.4930   -1.8410   15.9450 C   0  0  0  0  0  0  0  0  0  0  0  0
   21.3790   -4.1070   15.7620 C   0  0  0  0  0  0  0  0  0  0  0  0
   23.6770   -2.3620   15.1260 C   0  0  0  0  0  0  0  0  0  0  0  0
   22.5620   -4.6040   14.9380 C   0  0  0  0  0  0  0  0  0  0  0  0
   17.4590    0.3490   16.9120 C   0  0  0  0  0  0  0  0  0  0  0  0
   18.4880    0.7070   17.9990 C   0  0  0  0  0  0  0  0  0  0  0  0
   14.0350    8.5130   16.3670 C   0  0  0  0  0  0  0  0  0  0  0  0
   15.1960    8.9410   17.2100 C   0  0  0  0  0  0  0  0  0  0  0  0
   16.1740    6.2050   16.1710 C   0  0  0  0  0  0  0  0  0  0  0  0
   18.6930    1.1170   14.7710 C   0  0  0  0  0  0  0  0  0  0  0  0
   20.3980    1.7670   16.5540 C   0  0  0  0  0  0  0  0  0  0  0  0
   21.1920   -2.5850   15.6400 C   0  0  0  0  0  0  0  0  0  0  0  0
   17.5210    4.0660   15.5050 C   0  0  0  0  0  0  0  0  0  0  0  0
   15.2530    6.3790   17.1580 C   0  0  0  0  0  0  0  0  0  0  0  0
   23.8540   -3.8780   15.3170 C   0  0  3  0  0  0  0  0  0  0  0  0
   19.3950    2.2800   15.5040 C   0  0  3  0  0  0  0  0  0  0  0  0
   16.5770    4.8530   16.2920 C   0  0  0  0  0  0  0  0  0  0  0  0
   18.3210   -0.0480   15.7030 C   0  0  1  0  0  0  0  0  0  0  0  0
   19.8720    0.5580   17.3510 C   0  0  2  0  0  0  0  0  0  0  0  0
   14.5240    7.6240   17.4770 C   0  0  0  0  0  0  0  0  0  0  0  0
   25.0619   -5.3872   14.7050 H   0  0  0  0  0  0  0  0  0  0  0  0
   24.8376   -4.2264   13.5785 H   0  0  0  0  0  0  0  0  0  0  0  0
   18.3503    3.1485   17.0932 H   0  0  0  0  0  0  0  0  0  0  0  0
   22.3630   -0.8712   15.7384 H   0  0  0  0  0  0  0  0  0  0  0  0
   22.7035   -1.9495   16.9166 H   0  0  0  0  0  0  0  0  0  0  0  0
   21.5349   -4.3373   16.7225 H   0  0  0  0  0  0  0  0  0  0  0  0
   20.5481   -4.5613   15.4409 H   0  0  0  0  0  0  0  0  0  0  0  0
   24.5103   -1.8954   15.4224 H   0  0  0  0  0  0  0  0  0  0  0  0
   23.5144   -2.1710   14.1580 H   0  0  0  0  0  0  0  0  0  0  0  0
   22.3725   -4.4454   13.9690 H   0  0  0  0  0  0  0  0  0  0  0  0
   22.6809   -5.5839   15.0984 H   0  0  0  0  0  0  0  0  0  0  0  0
   16.8825    1.1367   16.6946 H   0  0  0  0  0  0  0  0  0  0  0  0
   16.8835   -0.4146   17.2046 H   0  0  0  0  0  0  0  0  0  0  0  0
   18.4011    0.0839   18.7763 H   0  0  0  0  0  0  0  0  0  0  0  0
   18.3506    1.6478   18.3090 H   0  0  0  0  0  0  0  0  0  0  0  0
   14.1803    8.2481   15.4137 H   0  0  0  0  0  0  0  0  0  0  0  0
   13.1557    8.9815   16.4525 H   0  0  0  0  0  0  0  0  0  0  0  0
   15.0916    9.6955   17.8579 H   0  0  0  0  0  0  0  0  0  0  0  0
   16.1162    8.9621   16.8192 H   0  0  0  0  0  0  0  0  0  0  0  0
   16.4947    6.8814   15.5080 H   0  0  0  0  0  0  0  0  0  0  0  0
   19.3065    0.7724   14.0604 H   0  0  0  0  0  0  0  0  0  0  0  0
   17.8565    1.4660   14.3486 H   0  0  0  0  0  0  0  0  0  0  0  0
   20.5958    2.5090   17.1946 H   0  0  0  0  0  0  0  0  0  0  0  0
   21.2395    1.4978   16.0856 H   0  0  0  0  0  0  0  0  0  0  0  0
   20.9364   -2.3818   14.6948 H   0  0  0  0  0  0  0  0  0  0  0  0
   24.0314   -4.0487   16.2862 H   0  0  0  0  0  0  0  0  0  0  0  0
   19.9092    2.8012   14.8229 H   0  0  0  0  0  0  0  0  0  0  0  0
   17.9005   -0.7976   15.1919 H   0  0  0  0  0  0  0  0  0  0  0  0
   20.5493    0.2403   18.0145 H   0  0  0  0  0  0  0  0  0  0  0  0
   13.9453    7.5904   18.2918 H   0  0  0  0  0  0  0  0  0  0  0  0
  1  2  2  0  0  0  0
  1  3  2  0  0  0  0
  1  9  1  0  0  0  0
  1 21  1  0  0  0  0
  4 22  2  0  0  0  0
  5  7  1  0  0  0  0
  5 23  1  0  0  0  0
  6 24  1  0  0  0  0
  7 26  2  0  0  0  0
  8 22  1  0  0  0  0
  8 25  1  0  0  0  0
  9 27  1  0  0  0  0
  9 28  1  0  0  0  0
 10 12  1  0  0  0  0
 10 21  1  0  0  0  0
 11 13  1  0  0  0  0
 11 21  1  0  0  0  0
 12 24  1  0  0  0  0
 13 24  1  0  0  0  0
 14 15  1  0  0  0  0
 14 27  1  0  0  0  0
 15 28  1  0  0  0  0
 16 17  1  0  0  0  0
 16 29  1  0  0  0  0
 17 29  1  0  0  0  0
 18 23  2  0  0  0  0
 18 26  1  0  0  0  0
 19 25  1  0  0  0  0
 19 27  1  0  0  0  0
 20 25  1  0  0  0  0
 20 28  1  0  0  0  0
 22 26  1  0  0  0  0
 23 29  1  0  0  0  0
  6 30  1  0  0  0  0
  6 31  1  0  0  0  0
  8 32  1  0  0  0  0
 10 33  1  0  0  0  0
 10 34  1  0  0  0  0
 11 35  1  0  0  0  0
 11 36  1  0  0  0  0
 12 37  1  0  0  0  0
 12 38  1  0  0  0  0
 13 39  1  0  0  0  0
 13 40  1  0  0  0  0
 14 41  1  0  0  0  0
 14 42  1  0  0  0  0
 15 43  1  0  0  0  0
 15 44  1  0  0  0  0
 16 45  1  0  0  0  0
 16 46  1  0  0  0  0
 17 47  1  0  0  0  0
 17 48  1  0  0  0  0
 18 49  1  0  0  0  0
 19 50  1  0  0  0  0
 19 51  1  0  0  0  0
 20 52  1  0  0  0  0
 20 53  1  0  0  0  0
 21 54  1  0  0  0  0
 24 55  1  0  0  0  0
 25 56  1  0  0  0  0
 27 57  1  0  0  0  0
 28 58  1  0  0  0  0
 29 59  1  0  0  0  0
M  END
> <pdb_id>
5V37

> <uniprot_id>
Q9H7B4

> <usmiles>
S(=O)(=O)(N1[C@H]2CC(NC(=O)C3=NOC(=C3)C4CC4)C[C@@H]1CC2)C5CCC(N)CC5

$$$$
8WO_A_302
          07202413223D 1   1.00000     0.00000     0
            
 23 23  0  0  0  0            999 V2000
   16.2700   20.4050   17.0220 O   0  0  0  0  0  0  0  0  0  0  0  0
   16.0600   15.8380   12.7670 O   0  0  0  0  0  0  0  0  0  0  0  0
   14.0070   20.3530   16.5710 N   0  0  0  0  0  0  0  0  0  0  0  0
   14.8370   17.6230   13.6350 N   0  3  0  0  0  0  0  0  0  0  0  0
   17.1040   14.9390   13.1060 C   0  0  0  0  0  0  0  0  0  0  0  0
   13.8780   17.3820   12.5700 C   0  0  0  0  0  0  0  0  0  0  0  0
   14.6020   18.6160   14.4830 C   0  0  0  0  0  0  0  0  0  0  0  0
   16.8520   17.0450   14.7050 C   0  0  0  0  0  0  0  0  0  0  0  0
   16.6500   18.0640   15.6090 C   0  0  0  0  0  0  0  0  0  0  0  0
   15.3050   19.9360   16.4380 C   0  0  0  0  0  0  0  0  0  0  0  0
   15.9150   16.8430   13.7130 C   0  0  0  0  0  0  0  0  0  0  0  0
   15.5170   18.8410   15.4870 C   0  0  0  0  0  0  0  0  0  0  0  0
   13.2818   19.9049   16.0483 H   0  0  0  0  0  0  0  0  0  0  0  0
   13.7846   21.1056   17.1908 H   0  0  0  0  0  0  0  0  0  0  0  0
   17.1767   14.2320   12.4025 H   0  0  0  0  0  0  0  0  0  0  0  0
   17.9679   15.4390   13.1666 H   0  0  0  0  0  0  0  0  0  0  0  0
   16.9033   14.5123   13.9879 H   0  0  0  0  0  0  0  0  0  0  0  0
   14.1843   16.6091   12.0143 H   0  0  0  0  0  0  0  0  0  0  0  0
   12.9842   17.1736   12.9671 H   0  0  0  0  0  0  0  0  0  0  0  0
   13.8056   18.1975   11.9958 H   0  0  0  0  0  0  0  0  0  0  0  0
   13.7840   19.1846   14.3955 H   0  0  0  0  0  0  0  0  0  0  0  0
   17.6625   16.4625   14.7665 H   0  0  0  0  0  0  0  0  0  0  0  0
   17.3112   18.2371   16.3389 H   0  0  0  0  0  0  0  0  0  0  0  0
  1 10  2  0  0  0  0
  2  5  1  0  0  0  0
  2 11  1  0  0  0  0
  3 10  1  0  0  0  0
  4  6  1  0  0  0  0
  4  7  1  0  0  0  0
  4 11  2  0  0  0  0
  7 12  2  0  0  0  0
  8  9  2  0  0  0  0
  8 11  1  0  0  0  0
  9 12  1  0  0  0  0
 10 12  1  0  0  0  0
  3 13  1  0  0  0  0
  3 14  1  0  0  0  0
  5 15  1  0  0  0  0
  5 16  1  0  0  0  0
  5 17  1  0  0  0  0
  6 18  1  0  0  0  0
  6 19  1  0  0  0  0
  6 20  1  0  0  0  0
  7 21  1  0  0  0  0
  8 22  1  0  0  0  0
  9 23  1  0  0  0  0
M  CHG  1   4   1
M  END
> <pdb_id>
5YJI

> <uniprot_id>
O55239

> <usmiles>
O=C(N)c1c[n+](c(OC)cc1)C

$$$$
8WT_A_201
          07192416543D 1   1.00000     0.00000     0
            
 19 20  0  0  0  0            999 V2000
   17.2375   22.8113    2.6667 S   0  0  0  0  0  0  0  0  0  0  0  0
   13.5969   18.8555    4.8199 N   0  0  0  0  0  0  0  0  0  0  0  0
   15.3370   18.0446    6.1141 N   0  0  0  0  0  0  0  0  0  0  0  0
   17.5242   19.0210    6.0972 N   0  0  0  0  0  0  0  0  0  0  0  0
   17.7026   20.9163    4.5559 N   0  0  0  0  0  0  0  0  0  0  0  0
   15.6088   20.9392    3.8084 N   0  0  0  0  0  0  0  0  0  0  0  0
   15.5679   23.1525    2.1304 C   0  0  0  0  0  0  0  0  0  0  0  0
   16.6157   18.1368    6.5130 C   0  0  0  0  0  0  0  0  0  0  0  0
   16.7991   21.4883    3.7117 C   0  0  0  0  0  0  0  0  0  0  0  0
   14.8640   18.9537    5.2199 C   0  0  0  0  0  0  0  0  0  0  0  0
   17.0465   19.9020    5.1931 C   0  0  0  0  0  0  0  0  0  0  0  0
   15.7523   19.9214    4.7266 C   0  0  0  0  0  0  0  0  0  0  0  0
   13.2275   19.5128    4.1630 H   0  0  0  0  0  0  0  0  0  0  0  0
   13.0152   18.1243    5.1765 H   0  0  0  0  0  0  0  0  0  0  0  0
   18.6571   21.1857    4.6836 H   0  0  0  0  0  0  0  0  0  0  0  0
   15.5742   23.9189    1.4880 H   0  0  0  0  0  0  0  0  0  0  0  0
   15.1904   22.3433    1.6802 H   0  0  0  0  0  0  0  0  0  0  0  0
   15.0045   23.3864    2.9228 H   0  0  0  0  0  0  0  0  0  0  0  0
   16.9198   17.4715    7.1949 H   0  0  0  0  0  0  0  0  0  0  0  0
  1  7  1  0  0  0  0
  1  9  1  0  0  0  0
  2 10  1  0  0  0  0
  3  8  1  0  0  0  0
  3 10  2  0  0  0  0
  4  8  2  0  0  0  0
  4 11  1  0  0  0  0
  5  9  1  0  0  0  0
  5 11  1  0  0  0  0
  6  9  2  0  0  0  0
  6 12  1  0  0  0  0
 10 12  1  0  0  0  0
 11 12  2  0  0  0  0
  2 13  1  0  0  0  0
  2 14  1  0  0  0  0
  5 15  1  0  0  0  0
  7 16  1  0  0  0  0
  7 17  1  0  0  0  0
  7 18  1  0  0  0  0
  8 19  1  0  0  0  0
M  END
> <pdb_id>
5NGR

> <uniprot_id>
P36639

> <usmiles>
S(C1=Nc2c(ncnc2N)N1)C

$$$$
8WW_A_201
          07192416543D 1   1.00000     0.00000     0
            
 32 34  0  0  0  0            999 V2000
   13.8763   22.1880    3.7104 S   0  0  0  0  0  0  0  0  0  0  0  0
   17.2915   19.4676    6.1875 N   0  0  0  0  0  0  0  0  0  0  0  0
   18.7254   22.3951    2.7012 N   0  0  0  0  0  0  0  0  0  0  0  0
   16.6603   23.0698    2.2316 N   0  0  0  0  0  0  0  0  0  0  0  0
   15.7659   20.7486    4.9793 N   0  0  0  0  0  0  0  0  0  0  0  0
   18.1181   20.8610    4.5483 N   0  0  0  0  0  0  0  0  0  0  0  0
   12.9712   21.6119    5.1721 C   0  0  0  0  0  0  0  0  0  0  0  0
   17.9653   23.1552    1.9263 C   0  0  0  0  0  0  0  0  0  0  0  0
    9.1339   21.6348    1.7379 C   0  0  0  0  0  0  0  0  0  0  0  0
    9.3797   20.5709    2.5791 C   0  0  0  0  0  0  0  0  0  0  0  0
    9.6661   22.8723    2.0277 C   0  0  0  0  0  0  0  0  0  0  0  0
   11.5637   22.1798    5.2491 C   0  0  0  0  0  0  0  0  0  0  0  0
   10.1603   20.7424    3.7114 C   0  0  0  0  0  0  0  0  0  0  0  0
   10.4552   23.0418    3.1505 C   0  0  0  0  0  0  0  0  0  0  0  0
   17.0621   20.3858    5.2325 C   0  0  0  0  0  0  0  0  0  0  0  0
   15.5063   21.6442    4.0259 C   0  0  0  0  0  0  0  0  0  0  0  0
   17.8599   21.7584    3.5488 C   0  0  0  0  0  0  0  0  0  0  0  0
   10.7173   21.9789    4.0039 C   0  0  0  0  0  0  0  0  0  0  0  0
   16.5590   22.1762    3.2686 C   0  0  0  0  0  0  0  0  0  0  0  0
   18.2280   19.1837    6.3935 H   0  0  0  0  0  0  0  0  0  0  0  0
   16.5257   19.0686    6.6918 H   0  0  0  0  0  0  0  0  0  0  0  0
   15.9094   23.5610    1.7900 H   0  0  0  0  0  0  0  0  0  0  0  0
   13.4741   21.8900    5.9904 H   0  0  0  0  0  0  0  0  0  0  0  0
   12.9126   20.6141    5.1399 H   0  0  0  0  0  0  0  0  0  0  0  0
   18.3252   23.7311    1.1922 H   0  0  0  0  0  0  0  0  0  0  0  0
    8.5717   21.5090    0.9205 H   0  0  0  0  0  0  0  0  0  0  0  0
    8.9933   19.6722    2.3718 H   0  0  0  0  0  0  0  0  0  0  0  0
    9.4814   23.6488    1.4252 H   0  0  0  0  0  0  0  0  0  0  0  0
   11.6354   23.1626    5.4194 H   0  0  0  0  0  0  0  0  0  0  0  0
   11.0948   21.7420    6.0161 H   0  0  0  0  0  0  0  0  0  0  0  0
   10.3235   19.9682    4.3228 H   0  0  0  0  0  0  0  0  0  0  0  0
   10.8422   23.9420    3.3503 H   0  0  0  0  0  0  0  0  0  0  0  0
  1  7  1  0  0  0  0
  1 16  1  0  0  0  0
  2 15  1  0  0  0  0
  3  8  2  0  0  0  0
  3 17  1  0  0  0  0
  4  8  1  0  0  0  0
  4 19  1  0  0  0  0
  5 15  2  0  0  0  0
  5 16  1  0  0  0  0
  6 15  1  0  0  0  0
  6 17  2  0  0  0  0
  7 12  1  0  0  0  0
  9 10  2  0  0  0  0
  9 11  1  0  0  0  0
 10 13  1  0  0  0  0
 11 14  2  0  0  0  0
 12 18  1  0  0  0  0
 13 18  2  0  0  0  0
 14 18  1  0  0  0  0
 16 19  2  0  0  0  0
 17 19  1  0  0  0  0
  2 20  1  0  0  0  0
  2 21  1  0  0  0  0
  4 22  1  0  0  0  0
  7 23  1  0  0  0  0
  7 24  1  0  0  0  0
  8 25  1  0  0  0  0
  9 26  1  0  0  0  0
 10 27  1  0  0  0  0
 11 28  1  0  0  0  0
 12 29  1  0  0  0  0
 12 30  1  0  0  0  0
 13 31  1  0  0  0  0
 14 32  1  0  0  0  0
M  END
> <pdb_id>
5NGS

> <uniprot_id>
P36639

> <usmiles>
S(c1nc(nc2N=CNc12)N)CCc3ccccc3

$$$$
8WZ_A_201
          07192416543D 1   1.00000     0.00000     0
            
 26 28  0  0  0  0            999 V2000
   13.3669   22.2314    5.2402 O   0  0  0  0  0  0  0  0  0  0  0  0
   15.9663   20.8994    5.0703 O   0  0  0  0  0  0  0  0  0  0  0  0
   17.5177   19.4061    6.2089 N   0  0  0  0  0  0  0  0  0  0  0  0
   18.0959   20.9773    4.4002 N   0  0  0  0  0  0  0  0  0  0  0  0
   17.2778   24.3893    0.8325 C   0  0  0  0  0  0  0  0  0  0  0  0
   12.0195   22.4785    5.4131 C   0  0  0  0  0  0  0  0  0  0  0  0
   11.5579   23.0688    4.2740 C   0  0  0  0  0  0  0  0  0  0  0  0
   12.6502   23.2063    3.4092 C   0  0  0  0  0  0  0  0  0  0  0  0
   17.8208   22.6979    2.5930 C   0  0  0  0  0  0  0  0  0  0  0  0
   15.5263   23.4894    2.4565 C   0  0  0  0  0  0  0  0  0  0  0  0
   17.2443   20.4135    5.2463 C   0  0  0  0  0  0  0  0  0  0  0  0
   13.7726   22.6406    3.9983 C   0  0  0  0  0  0  0  0  0  0  0  0
   16.0872   21.8083    4.0462 C   0  0  0  0  0  0  0  0  0  0  0  0
   17.4069   21.8493    3.6300 C   0  0  0  0  0  0  0  0  0  0  0  0
   16.8650   23.4872    1.9818 C   0  0  0  0  0  0  0  0  0  0  0  0
   15.0963   22.6321    3.4735 C   0  0  0  0  0  0  0  0  0  0  0  0
   18.4504   19.0645    6.3240 H   0  0  0  0  0  0  0  0  0  0  0  0
   16.7775   19.0384    6.7717 H   0  0  0  0  0  0  0  0  0  0  0  0
   16.4798   24.8920    0.5001 H   0  0  0  0  0  0  0  0  0  0  0  0
   17.9712   25.0365    1.1492 H   0  0  0  0  0  0  0  0  0  0  0  0
   17.6543   23.8336    0.0912 H   0  0  0  0  0  0  0  0  0  0  0  0
   11.4796   22.2634    6.2269 H   0  0  0  0  0  0  0  0  0  0  0  0
   10.6160   23.3505    4.0907 H   0  0  0  0  0  0  0  0  0  0  0  0
   12.6258   23.6429    2.5099 H   0  0  0  0  0  0  0  0  0  0  0  0
   18.7778   22.7308    2.3047 H   0  0  0  0  0  0  0  0  0  0  0  0
   14.8699   24.1250    2.0500 H   0  0  0  0  0  0  0  0  0  0  0  0
  1  6  1  0  0  0  0
  1 12  1  0  0  0  0
  2 11  1  0  0  0  0
  2 13  1  0  0  0  0
  3 11  1  0  0  0  0
  4 11  2  0  0  0  0
  4 14  1  0  0  0  0
  5 15  1  0  0  0  0
  6  7  2  0  0  0  0
  7  8  1  0  0  0  0
  8 12  2  0  0  0  0
  9 14  2  0  0  0  0
  9 15  1  0  0  0  0
 10 15  2  0  0  0  0
 10 16  1  0  0  0  0
 12 16  1  0  0  0  0
 13 14  1  0  0  0  0
 13 16  2  0  0  0  0
  3 17  1  0  0  0  0
  3 18  1  0  0  0  0
  5 19  1  0  0  0  0
  5 20  1  0  0  0  0
  5 21  1  0  0  0  0
  6 22  1  0  0  0  0
  7 23  1  0  0  0  0
  8 24  1  0  0  0  0
  9 25  1  0  0  0  0
 10 26  1  0  0  0  0
M  END
> <pdb_id>
5NGT

> <uniprot_id>
P36639

> <usmiles>
O1c2c(N=C1N)cc(cc2C=3OC=CC3)C

$$$$
8X5_A_402
          07212404193D 1   1.00000     0.00000     0
            
 55 59  0  0  0  0            999 V2000
    4.5190    8.3258   46.4761 O   0  0  0  0  0  0  0  0  0  0  0  0
   12.9643   11.2598   39.9193 O   0  0  0  0  0  0  0  0  0  0  0  0
   12.2191    6.4541   44.1087 N   0  0  0  0  0  0  0  0  0  0  0  0
   12.8289    8.3253   42.9247 N   0  0  0  0  0  0  0  0  0  0  0  0
   10.7265    8.3225   43.8576 N   0  0  0  0  0  0  0  0  0  0  0  0
    8.3304    9.6375   44.2600 N   0  0  0  0  0  0  0  0  0  0  0  0
    4.5360   10.3843   45.4921 N   0  0  0  0  0  0  0  0  0  0  0  0
   11.6666   10.7867   40.2946 C   0  0  0  0  0  0  0  0  0  0  0  0
   13.7677   11.4956   41.0839 C   0  0  0  0  0  0  0  0  0  0  0  0
   11.2554    5.8253   44.8029 C   0  0  0  0  0  0  0  0  0  0  0  0
    4.9586   11.1002   44.2775 C   0  0  0  0  0  0  0  0  0  0  0  0
    3.1486   10.6552   45.8868 C   0  0  0  0  0  0  0  0  0  0  0  0
    2.5796   11.3940   50.0867 C   0  0  0  0  0  0  0  0  0  0  0  0
    3.7834   11.7065   49.4872 C   0  0  0  0  0  0  0  0  0  0  0  0
    1.5609   10.8483   49.3333 C   0  0  0  0  0  0  0  0  0  0  0  0
   11.7578    9.4664   41.0226 C   0  0  0  0  0  0  0  0  0  0  0  0
   13.9961   10.2191   41.8609 C   0  0  0  0  0  0  0  0  0  0  0  0
   10.0308    6.3963   45.0921 C   0  0  0  0  0  0  0  0  0  0  0  0
    6.4595   11.3592   44.2504 C   0  0  0  0  0  0  0  0  0  0  0  0
    3.9656   11.4794   48.1311 C   0  0  0  0  0  0  0  0  0  0  0  0
    1.7479   10.6052   47.9792 C   0  0  0  0  0  0  0  0  0  0  0  0
    7.3986    7.9765   45.4540 C   0  0  0  0  0  0  0  0  0  0  0  0
   11.8978    7.6843   43.6601 C   0  0  0  0  0  0  0  0  0  0  0  0
    5.1046    9.2035   45.8454 C   0  0  0  0  0  0  0  0  0  0  0  0
   12.6559    9.6114   42.2471 C   0  0  0  0  0  0  0  0  0  0  0  0
    9.8044    7.6674   44.5802 C   0  0  0  0  0  0  0  0  0  0  0  0
    7.0707   10.0419   44.5953 C   0  0  0  0  0  0  0  0  0  0  0  0
    8.5329    8.3786   44.7767 C   0  0  0  0  0  0  0  0  0  0  0  0
    2.9558   10.9117   47.3627 C   0  0  0  0  0  0  0  0  0  0  0  0
    6.4640    9.0487   45.3442 C   0  0  0  0  0  0  0  0  0  0  0  0
   13.7201    7.8808   42.8337 H   0  0  0  0  0  0  0  0  0  0  0  0
    8.9930   10.1659   43.7293 H   0  0  0  0  0  0  0  0  0  0  0  0
   11.1118   10.6678   39.4711 H   0  0  0  0  0  0  0  0  0  0  0  0
   11.2340   11.4605   40.8935 H   0  0  0  0  0  0  0  0  0  0  0  0
   13.3022   12.1565   41.6726 H   0  0  0  0  0  0  0  0  0  0  0  0
   14.6518   11.8668   40.8001 H   0  0  0  0  0  0  0  0  0  0  0  0
   11.4338    4.8963   45.1269 H   0  0  0  0  0  0  0  0  0  0  0  0
    4.4803   11.9776   44.2388 H   0  0  0  0  0  0  0  0  0  0  0  0
    4.7127   10.5511   43.4788 H   0  0  0  0  0  0  0  0  0  0  0  0
    2.5914    9.8649   45.6317 H   0  0  0  0  0  0  0  0  0  0  0  0
    2.8331   11.4611   45.3859 H   0  0  0  0  0  0  0  0  0  0  0  0
    2.4467   11.5625   51.0634 H   0  0  0  0  0  0  0  0  0  0  0  0
    4.5255   12.0974   50.0317 H   0  0  0  0  0  0  0  0  0  0  0  0
    0.6856   10.6274   49.7634 H   0  0  0  0  0  0  0  0  0  0  0  0
   12.1413    8.7754   40.4098 H   0  0  0  0  0  0  0  0  0  0  0  0
   10.8437    9.1839   41.3131 H   0  0  0  0  0  0  0  0  0  0  0  0
   14.5204   10.4220   42.6879 H   0  0  0  0  0  0  0  0  0  0  0  0
   14.5047    9.5709   41.2943 H   0  0  0  0  0  0  0  0  0  0  0  0
    9.3440    5.9196   45.6408 H   0  0  0  0  0  0  0  0  0  0  0  0
    6.7109   12.0533   44.9249 H   0  0  0  0  0  0  0  0  0  0  0  0
    6.7506   11.6570   43.3412 H   0  0  0  0  0  0  0  0  0  0  0  0
    4.8337   11.7271   47.7009 H   0  0  0  0  0  0  0  0  0  0  0  0
    1.0057   10.2052   47.4415 H   0  0  0  0  0  0  0  0  0  0  0  0
    7.2599    7.1067   45.9274 H   0  0  0  0  0  0  0  0  0  0  0  0
   12.2071   10.2371   42.8852 H   0  0  0  0  0  0  0  0  0  0  0  0
  1 24  2  0  0  0  0
  2  8  1  0  0  0  0
  2  9  1  0  0  0  0
  3 10  1  0  0  0  0
  3 23  2  0  0  0  0
  4 23  1  0  0  0  0
  4 25  1  0  0  0  0
  5 23  1  0  0  0  0
  5 26  2  0  0  0  0
  6 27  1  0  0  0  0
  6 28  1  0  0  0  0
  7 11  1  0  0  0  0
  7 12  1  0  0  0  0
  7 24  1  0  0  0  0
  8 16  1  0  0  0  0
  9 17  1  0  0  0  0
 10 18  2  0  0  0  0
 11 19  1  0  0  0  0
 12 29  1  0  0  0  0
 13 14  2  0  0  0  0
 13 15  1  0  0  0  0
 14 20  1  0  0  0  0
 15 21  2  0  0  0  0
 16 25  1  0  0  0  0
 17 25  1  0  0  0  0
 18 26  1  0  0  0  0
 19 27  1  0  0  0  0
 20 29  2  0  0  0  0
 21 29  1  0  0  0  0
 22 28  2  0  0  0  0
 22 30  1  0  0  0  0
 24 30  1  0  0  0  0
 26 28  1  0  0  0  0
 27 30  2  0  0  0  0
  4 31  1  0  0  0  0
  6 32  1  0  0  0  0
  8 33  1  0  0  0  0
  8 34  1  0  0  0  0
  9 35  1  0  0  0  0
  9 36  1  0  0  0  0
 10 37  1  0  0  0  0
 11 38  1  0  0  0  0
 11 39  1  0  0  0  0
 12 40  1  0  0  0  0
 12 41  1  0  0  0  0
 13 42  1  0  0  0  0
 14 43  1  0  0  0  0
 15 44  1  0  0  0  0
 16 45  1  0  0  0  0
 16 46  1  0  0  0  0
 17 47  1  0  0  0  0
 17 48  1  0  0  0  0
 18 49  1  0  0  0  0
 19 50  1  0  0  0  0
 19 51  1  0  0  0  0
 20 52  1  0  0  0  0
 21 53  1  0  0  0  0
 22 54  1  0  0  0  0
 25 55  1  0  0  0  0
M  END
> <pdb_id>
5NHF

> <uniprot_id>
P28482

> <usmiles>
O=C1N(Cc2ccccc2)CCC=3NC(c4nc(ncc4)NC5CCOCC5)=CC13

$$$$
8XB_A_402
          07212404193D 1   1.00000     0.00000     0
            
 54 57  0  0  0  0            999 V2000
    4.3533    7.7852   46.0700 O   0  0  0  0  0  0  0  0  0  0  0  0
    3.1476   10.9498   47.3892 O   0  0  0  0  0  0  0  0  0  0  0  0
   12.6603   11.1916   40.5096 N   0  0  0  0  0  0  0  0  0  0  0  0
   12.2461    6.3822   43.7897 N   0  0  0  0  0  0  0  0  0  0  0  0
   12.5782    8.2229   42.4429 N   0  0  0  0  0  0  0  0  0  0  0  0
   10.4867    7.9938   43.4685 N   0  0  0  0  0  0  0  0  0  0  0  0
    8.0541    9.0115   43.7117 N   0  0  0  0  0  0  0  0  0  0  0  0
   13.1542   10.2638   41.3878 N   0  0  0  0  0  0  0  0  0  0  0  0
    4.1054    9.6211   44.7445 N   0  0  0  0  0  0  0  0  0  0  0  0
    3.8752   12.1303   47.7330 C   0  0  0  0  0  0  0  0  0  0  0  0
   14.4849   10.4412   41.9698 C   0  0  0  0  0  0  0  0  0  0  0  0
    4.0919    9.6032   42.2186 C   0  0  0  0  0  0  0  0  0  0  0  0
    9.2106    5.1504   45.6523 C   0  0  0  0  0  0  0  0  0  0  0  0
    2.5860   11.1234   46.0750 C   0  0  0  0  0  0  0  0  0  0  0  0
   11.4365   10.7477   40.2130 C   0  0  0  0  0  0  0  0  0  0  0  0
   11.3987    5.6762   44.5280 C   0  0  0  0  0  0  0  0  0  0  0  0
    2.7426    9.8609   45.2472 C   0  0  0  0  0  0  0  0  0  0  0  0
   11.1495    9.5348   40.8195 C   0  0  0  0  0  0  0  0  0  0  0  0
    6.0715   10.6251   43.5238 C   0  0  0  0  0  0  0  0  0  0  0  0
    7.1824    7.4710   45.0639 C   0  0  0  0  0  0  0  0  0  0  0  0
   11.7461    7.5195   43.2966 C   0  0  0  0  0  0  0  0  0  0  0  0
    4.8483    8.6183   45.3257 C   0  0  0  0  0  0  0  0  0  0  0  0
   12.2735    9.2558   41.5673 C   0  0  0  0  0  0  0  0  0  0  0  0
    4.5319   10.3297   43.4877 C   0  0  2  0  0  0  0  0  0  0  0  0
    8.3261    7.8296   44.3697 C   0  0  0  0  0  0  0  0  0  0  0  0
    6.7876    9.4143   44.0336 C   0  0  0  0  0  0  0  0  0  0  0  0
    9.6580    7.2393   44.2073 C   0  0  0  0  0  0  0  0  0  0  0  0
   10.0822    6.0358   44.7914 C   0  0  0  0  0  0  0  0  0  0  0  0
    6.2140    8.4798   44.8503 C   0  0  0  0  0  0  0  0  0  0  0  0
   13.5392    7.9465   42.4593 H   0  0  0  0  0  0  0  0  0  0  0  0
    8.6806    9.4944   43.0998 H   0  0  0  0  0  0  0  0  0  0  0  0
    4.2715   12.0238   48.6449 H   0  0  0  0  0  0  0  0  0  0  0  0
    4.6064   12.2770   47.0668 H   0  0  0  0  0  0  0  0  0  0  0  0
    3.2570   12.9163   47.7278 H   0  0  0  0  0  0  0  0  0  0  0  0
   14.6847    9.6776   42.5838 H   0  0  0  0  0  0  0  0  0  0  0  0
   15.1673   10.4687   41.2392 H   0  0  0  0  0  0  0  0  0  0  0  0
   14.5123   11.2984   42.4840 H   0  0  0  0  0  0  0  0  0  0  0  0
    4.4004   10.1156   41.4172 H   0  0  0  0  0  0  0  0  0  0  0  0
    4.4925    8.6871   42.2031 H   0  0  0  0  0  0  0  0  0  0  0  0
    3.0946    9.5312   42.2046 H   0  0  0  0  0  0  0  0  0  0  0  0
    8.3015    5.5583   45.7367 H   0  0  0  0  0  0  0  0  0  0  0  0
    9.1328    4.2473   45.2300 H   0  0  0  0  0  0  0  0  0  0  0  0
    9.6208    5.0598   46.5598 H   0  0  0  0  0  0  0  0  0  0  0  0
    3.0562   11.8767   45.6151 H   0  0  0  0  0  0  0  0  0  0  0  0
    1.6136   11.3401   46.1606 H   0  0  0  0  0  0  0  0  0  0  0  0
   10.7975   11.2364   39.6189 H   0  0  0  0  0  0  0  0  0  0  0  0
   11.7326    4.8211   44.9247 H   0  0  0  0  0  0  0  0  0  0  0  0
    2.4781    9.0812   45.8147 H   0  0  0  0  0  0  0  0  0  0  0  0
    2.1274    9.9251   44.4614 H   0  0  0  0  0  0  0  0  0  0  0  0
   10.3172    8.9872   40.7340 H   0  0  0  0  0  0  0  0  0  0  0  0
    6.2501   11.4003   44.1297 H   0  0  0  0  0  0  0  0  0  0  0  0
    6.3931   10.8415   42.6020 H   0  0  0  0  0  0  0  0  0  0  0  0
    7.0627    6.6466   45.6171 H   0  0  0  0  0  0  0  0  0  0  0  0
    4.0692   11.2162   43.4865 H   0  0  0  0  0  0  0  0  0  0  0  0
  1 22  2  0  0  0  0
  2 10  1  0  0  0  0
  2 14  1  0  0  0  0
  3  8  1  0  0  0  0
  3 15  2  0  0  0  0
  4 16  1  0  0  0  0
  4 21  2  0  0  0  0
  5 21  1  0  0  0  0
  5 23  1  0  0  0  0
  6 21  1  0  0  0  0
  6 27  2  0  0  0  0
  7 25  1  0  0  0  0
  7 26  1  0  0  0  0
  8 11  1  0  0  0  0
  8 23  1  0  0  0  0
  9 17  1  0  0  0  0
  9 22  1  0  0  0  0
  9 24  1  0  0  0  0
 12 24  1  0  0  0  0
 13 28  1  0  0  0  0
 14 17  1  0  0  0  0
 15 18  1  0  0  0  0
 16 28  2  0  0  0  0
 18 23  2  0  0  0  0
 19 24  1  0  0  0  0
 19 26  1  0  0  0  0
 20 25  2  0  0  0  0
 20 29  1  0  0  0  0
 22 29  1  0  0  0  0
 25 27  1  0  0  0  0
 26 29  2  0  0  0  0
 27 28  1  0  0  0  0
  5 30  1  0  0  0  0
  7 31  1  0  0  0  0
 10 32  1  0  0  0  0
 10 33  1  0  0  0  0
 10 34  1  0  0  0  0
 11 35  1  0  0  0  0
 11 36  1  0  0  0  0
 11 37  1  0  0  0  0
 12 38  1  0  0  0  0
 12 39  1  0  0  0  0
 12 40  1  0  0  0  0
 13 41  1  0  0  0  0
 13 42  1  0  0  0  0
 13 43  1  0  0  0  0
 14 44  1  0  0  0  0
 14 45  1  0  0  0  0
 15 46  1  0  0  0  0
 16 47  1  0  0  0  0
 17 48  1  0  0  0  0
 17 49  1  0  0  0  0
 18 50  1  0  0  0  0
 19 51  1  0  0  0  0
 19 52  1  0  0  0  0
 20 53  1  0  0  0  0
 24 54  1  0  0  0  0
M  END
> <pdb_id>
5NHL

> <uniprot_id>
P28482

> <usmiles>
O=C1N([C@@H](CC=2NC(c3nc(ncc3C)NC=4N(N=CC4)C)=CC12)C)CCOC

$$$$
8XF_A_407
          07202408203D 1   1.00000     0.00000     0
            
 15 15  0  0  0  0            999 V2000
   22.5380   38.1600    8.2070 F   0  0  0  0  0  0  0  0  0  0  0  0
   23.3060   37.7540   10.1450 F   0  0  0  0  0  0  0  0  0  0  0  0
   21.2400   37.3930    9.6940 F   0  0  0  0  0  0  0  0  0  0  0  0
   22.4870   32.4230    9.7960 N   0  0  0  0  0  0  0  0  0  0  0  0
   23.8860   33.4540    8.2940 N   0  0  0  0  0  0  0  0  0  0  0  0
   23.7620   35.8110    7.8070 N   0  0  0  0  0  0  0  0  0  0  0  0
   24.2400   34.5710    7.6420 C   0  0  0  0  0  0  0  0  0  0  0  0
   22.3550   34.7940    9.5130 C   0  0  0  0  0  0  0  0  0  0  0  0
   22.9190   33.5660    9.2150 C   0  0  0  0  0  0  0  0  0  0  0  0
   22.8400   35.8890    8.7850 C   0  0  0  0  0  0  0  0  0  0  0  0
   22.4810   37.2950    9.2030 C   0  0  0  0  0  0  0  0  0  0  0  0
   22.9090   31.5280    9.5700 H   0  0  0  0  0  0  0  0  0  0  0  0
   21.7310   32.4320   10.4730 H   0  0  0  0  0  0  0  0  0  0  0  0
   25.0130   34.4500    6.8840 H   0  0  0  0  0  0  0  0  0  0  0  0
   21.5790   34.9110   10.2680 H   0  0  0  0  0  0  0  0  0  0  0  0
  1 11  1  0  0  0  0
  2 11  1  0  0  0  0
  3 11  1  0  0  0  0
  4  9  1  0  0  0  0
  4 12  1  0  0  0  0
  4 13  1  0  0  0  0
  5  7  1  0  0  0  0
  5  9  2  0  0  0  0
  6  7  2  0  0  0  0
  6 10  1  0  0  0  0
  7 14  1  0  0  0  0
  8  9  1  0  0  0  0
  8 10  2  0  0  0  0
  8 15  1  0  0  0  0
 10 11  1  0  0  0  0
M  END
> <pdb_id>
7SEA

> <uniprot_id>
P22087

> <usmiles>
FC(F)(F)c1ncnc(N)c1

$$$$
8XP_A_602
          07212401293D 1   1.00000     0.00000     0
            
 58 61  0  0  0  0            999 V2000
   33.4030   13.3930   15.3670 F   0  0  0  0  0  0  0  0  0  0  0  0
   27.4460    9.8860   18.1670 O   0  0  0  0  0  0  0  0  0  0  0  0
   19.9000   10.2650   13.8270 O   0  0  0  0  0  0  0  0  0  0  0  0
   28.2130   10.3150   13.7280 O   0  0  0  0  0  0  0  0  0  0  0  0
   29.2890    8.6880   17.6470 N   0  0  0  0  0  0  0  0  0  0  0  0
   18.4930    8.5300   14.0900 N   0  0  0  0  0  0  0  0  0  0  0  0
   29.7430    8.5230   19.0220 C   0  0  0  0  0  0  0  0  0  0  0  0
   17.5590    9.6560   12.1210 C   0  0  0  0  0  0  0  0  0  0  0  0
   16.1460    8.1340   13.5150 C   0  0  0  0  0  0  0  0  0  0  0  0
   16.8750   10.3480   14.4270 C   0  0  0  0  0  0  0  0  0  0  0  0
   21.7620    6.5520   16.1810 C   0  0  0  0  0  0  0  0  0  0  0  0
   31.9800   12.0800   14.0450 C   0  0  0  0  0  0  0  0  0  0  0  0
   31.6640   12.2430   16.4250 C   0  0  0  0  0  0  0  0  0  0  0  0
   20.6550    7.2510   15.7200 C   0  0  0  0  0  0  0  0  0  0  0  0
   23.0420    6.9310   15.7960 C   0  0  0  0  0  0  0  0  0  0  0  0
   26.0550    9.4790   12.8640 C   0  0  0  0  0  0  0  0  0  0  0  0
   30.8230   11.3250   13.9470 C   0  0  0  0  0  0  0  0  0  0  0  0
   30.5030   11.5020   16.3210 C   0  0  0  0  0  0  0  0  0  0  0  0
   24.8540    8.8900   13.2260 C   0  0  0  0  0  0  0  0  0  0  0  0
   22.1090    8.7060   14.4730 C   0  0  0  0  0  0  0  0  0  0  0  0
   25.6030    8.6230   15.5040 C   0  0  0  0  0  0  0  0  0  0  0  0
   32.3570   12.5350   15.2820 C   0  0  0  0  0  0  0  0  0  0  0  0
   28.2200    9.4160   17.3340 C   0  0  0  0  0  0  0  0  0  0  0  0
   19.7050    9.1150   14.2190 C   0  0  0  0  0  0  0  0  0  0  0  0
   27.0010    9.6580   13.8540 C   0  0  0  0  0  0  0  0  0  0  0  0
   28.8000   10.2940   14.9810 C   0  0  0  0  0  0  0  0  0  0  0  0
   30.0600   11.0360   15.0810 C   0  0  0  0  0  0  0  0  0  0  0  0
   20.8190    8.3200   14.8400 C   0  0  0  0  0  0  0  0  0  0  0  0
   23.2340    8.0220   14.9430 C   0  0  0  0  0  0  0  0  0  0  0  0
   24.5960    8.4730   14.5410 C   0  0  0  0  0  0  0  0  0  0  0  0
   26.8080    9.2330   15.1610 C   0  0  0  0  0  0  0  0  0  0  0  0
   28.0040    9.6490   15.8850 C   0  0  0  0  0  0  0  0  0  0  0  0
   17.2690    9.1690   13.5390 C   0  0  0  0  0  0  0  0  0  0  0  0
   29.8150    8.1910   16.9370 H   0  0  0  0  0  0  0  0  0  0  0  0
   18.3800    7.5560   14.3530 H   0  0  0  0  0  0  0  0  0  0  0  0
   30.7020    8.0090   19.0510 H   0  0  0  0  0  0  0  0  0  0  0  0
   29.0440    7.9310   19.6120 H   0  0  0  0  0  0  0  0  0  0  0  0
   29.8820    9.4700   19.5420 H   0  0  0  0  0  0  0  0  0  0  0  0
   18.1330    8.9400   11.5360 H   0  0  0  0  0  0  0  0  0  0  0  0
   18.1100   10.5950   12.0780 H   0  0  0  0  0  0  0  0  0  0  0  0
   16.6350    9.8360   11.5750 H   0  0  0  0  0  0  0  0  0  0  0  0
   16.4240    7.2050   13.0190 H   0  0  0  0  0  0  0  0  0  0  0  0
   15.2680    8.5090   12.9900 H   0  0  0  0  0  0  0  0  0  0  0  0
   15.8070    7.8670   14.5140 H   0  0  0  0  0  0  0  0  0  0  0  0
   15.8130   10.5730   14.3410 H   0  0  0  0  0  0  0  0  0  0  0  0
   17.3930   11.2750   14.1850 H   0  0  0  0  0  0  0  0  0  0  0  0
   17.0620   10.1580   15.4830 H   0  0  0  0  0  0  0  0  0  0  0  0
   21.6210    5.6780   16.8140 H   0  0  0  0  0  0  0  0  0  0  0  0
   32.5620   12.3080   13.1530 H   0  0  0  0  0  0  0  0  0  0  0  0
   32.0380   12.5400   17.4040 H   0  0  0  0  0  0  0  0  0  0  0  0
   19.6610    6.9760   16.0680 H   0  0  0  0  0  0  0  0  0  0  0  0
   23.9000    6.3720   16.1660 H   0  0  0  0  0  0  0  0  0  0  0  0
   26.2320    9.8180   11.8450 H   0  0  0  0  0  0  0  0  0  0  0  0
   30.5180   10.9570   12.9690 H   0  0  0  0  0  0  0  0  0  0  0  0
   29.9260   11.3240   17.2260 H   0  0  0  0  0  0  0  0  0  0  0  0
   24.0910    8.7730   12.4580 H   0  0  0  0  0  0  0  0  0  0  0  0
   22.2650    9.5650   13.8210 H   0  0  0  0  0  0  0  0  0  0  0  0
   25.4510    8.2690   16.5220 H   0  0  0  0  0  0  0  0  0  0  0  0
  1 22  1  0  0  0  0
  2 23  2  0  0  0  0
  3 24  2  0  0  0  0
  4 25  1  0  0  0  0
  4 26  1  0  0  0  0
  5  7  1  0  0  0  0
  5 23  1  0  0  0  0
  5 34  1  0  0  0  0
  6 24  1  0  0  0  0
  6 33  1  0  0  0  0
  6 35  1  0  0  0  0
  7 36  1  0  0  0  0
  7 37  1  0  0  0  0
  7 38  1  0  0  0  0
  8 33  1  0  0  0  0
  8 39  1  0  0  0  0
  8 40  1  0  0  0  0
  8 41  1  0  0  0  0
  9 33  1  0  0  0  0
  9 42  1  0  0  0  0
  9 43  1  0  0  0  0
  9 44  1  0  0  0  0
 10 33  1  0  0  0  0
 10 45  1  0  0  0  0
 10 46  1  0  0  0  0
 10 47  1  0  0  0  0
 11 14  1  0  0  0  0
 11 15  2  0  0  0  0
 11 48  1  0  0  0  0
 12 17  2  0  0  0  0
 12 22  1  0  0  0  0
 12 49  1  0  0  0  0
 13 18  1  0  0  0  0
 13 22  2  0  0  0  0
 13 50  1  0  0  0  0
 14 28  2  0  0  0  0
 14 51  1  0  0  0  0
 15 29  1  0  0  0  0
 15 52  1  0  0  0  0
 16 19  1  0  0  0  0
 16 25  2  0  0  0  0
 16 53  1  0  0  0  0
 17 27  1  0  0  0  0
 17 54  1  0  0  0  0
 18 27  2  0  0  0  0
 18 55  1  0  0  0  0
 19 30  2  0  0  0  0
 19 56  1  0  0  0  0
 20 28  1  0  0  0  0
 20 29  2  0  0  0  0
 20 57  1  0  0  0  0
 21 30  1  0  0  0  0
 21 31  2  0  0  0  0
 21 58  1  0  0  0  0
 23 32  1  0  0  0  0
 24 28  1  0  0  0  0
 25 31  1  0  0  0  0
 26 27  1  0  0  0  0
 26 32  2  0  0  0  0
 29 30  1  0  0  0  0
 31 32  1  0  0  0  0
M  END
> <pdb_id>
5PZN

> <uniprot_id>
Q9WMX2

> <usmiles>
Fc1ccc(cc1)C=2Oc3c(cc(c4cc(ccc4)C(=O)NC(C)(C)C)cc3)C2C(=O)NC

$$$$
8XQ_A_3001
          07202410113D 1   1.00000     0.00000     0
            
 21 22  0  0  0  0            999 V2000
   83.9062   38.0842   21.2853 O   0  0  0  0  0  0  0  0  0  0  0  0
   82.9072   37.5383   23.1865 O   0  0  0  0  0  0  0  0  0  0  0  0
   80.5942   43.3716   22.8445 O   0  0  0  0  0  0  0  0  0  0  0  0
   80.8121   42.2338   20.2741 N   0  0  0  0  0  0  0  0  0  0  0  0
   80.8787   41.7297   19.0493 C   0  0  0  0  0  0  0  0  0  0  0  0
   81.4690   40.5046   18.7975 C   0  0  0  0  0  0  0  0  0  0  0  0
   81.9944   39.8103   19.8896 C   0  0  0  0  0  0  0  0  0  0  0  0
   81.7344   41.5071   23.7238 C   0  0  0  0  0  0  0  0  0  0  0  0
   82.3610   40.2585   23.5475 C   0  0  0  0  0  0  0  0  0  0  0  0
   83.1615   38.3344   22.2536 C   0  0  0  0  0  0  0  0  0  0  0  0
   81.2048   42.1754   22.6190 C   0  0  0  0  0  0  0  0  0  0  0  0
   81.2947   41.5934   21.3404 C   0  0  0  0  0  0  0  0  0  0  0  0
   82.4596   39.6883   22.3084 C   0  0  0  0  0  0  0  0  0  0  0  0
   81.9295   40.3533   21.1712 C   0  0  0  0  0  0  0  0  0  0  0  0
   84.0584   38.7762   20.5797 H   0  0  0  0  0  0  0  0  0  0  0  0
   80.2009   43.8840   22.0811 H   0  0  0  0  0  0  0  0  0  0  0  0
   80.4918   42.2493   18.2874 H   0  0  0  0  0  0  0  0  0  0  0  0
   81.5177   40.1311   17.8712 H   0  0  0  0  0  0  0  0  0  0  0  0
   82.4206   38.9164   19.7506 H   0  0  0  0  0  0  0  0  0  0  0  0
   81.6693   41.9127   24.6355 H   0  0  0  0  0  0  0  0  0  0  0  0
   82.7398   39.7814   24.3405 H   0  0  0  0  0  0  0  0  0  0  0  0
  1 10  1  0  0  0  0
  2 10  2  0  0  0  0
  3 11  1  0  0  0  0
  4  5  1  0  0  0  0
  4 12  2  0  0  0  0
  5  6  2  0  0  0  0
  6  7  1  0  0  0  0
  7 14  2  0  0  0  0
  8  9  1  0  0  0  0
  8 11  2  0  0  0  0
  9 13  2  0  0  0  0
 10 13  1  0  0  0  0
 11 12  1  0  0  0  0
 12 14  1  0  0  0  0
 13 14  1  0  0  0  0
  1 15  1  0  0  0  0
  3 16  1  0  0  0  0
  5 17  1  0  0  0  0
  6 18  1  0  0  0  0
  7 19  1  0  0  0  0
  8 20  1  0  0  0  0
  9 21  1  0  0  0  0
M  END
> <pdb_id>
2XXZ

> <uniprot_id>
O15054

> <usmiles>
O=C(O)c1c2c(nccc2)c(O)cc1

$$$$
8XQ_A_601
          07192422393D 1   1.00000     0.00000     0
            
 21 22  0  0  0  0            999 V2000
  -24.2940   17.5090   -9.0240 O   0  0  0  0  0  0  0  0  0  0  0  0
  -25.3220   17.3430   -7.1250 O   0  0  0  0  0  0  0  0  0  0  0  0
  -26.3440   23.3650   -8.3210 O   0  0  0  0  0  0  0  0  0  0  0  0
  -26.1230   22.1400   -5.9590 N   0  0  0  0  0  0  0  0  0  0  0  0
  -26.0160   21.5300   -4.7030 C   0  0  0  0  0  0  0  0  0  0  0  0
  -25.6700   20.1870   -4.6120 C   0  0  0  0  0  0  0  0  0  0  0  0
  -25.4340   19.4630   -5.7740 C   0  0  0  0  0  0  0  0  0  0  0  0
  -25.7690   21.3420   -9.4910 C   0  0  0  0  0  0  0  0  0  0  0  0
  -25.4220   19.9980   -9.4160 C   0  0  0  0  0  0  0  0  0  0  0  0
  -24.9640   18.0310   -8.1060 C   0  0  0  0  0  0  0  0  0  0  0  0
  -26.0010   22.0480   -8.3190 C   0  0  0  0  0  0  0  0  0  0  0  0
  -25.8930   21.4360   -7.0770 C   0  0  0  0  0  0  0  0  0  0  0  0
  -25.3110   19.3750   -8.1770 C   0  0  0  0  0  0  0  0  0  0  0  0
  -25.5460   20.0920   -7.0080 C   0  0  0  0  0  0  0  0  0  0  0  0
  -24.0075   18.0587   -9.8087 H   0  0  0  0  0  0  0  0  0  0  0  0
  -26.5036   23.8414   -7.4564 H   0  0  0  0  0  0  0  0  0  0  0  0
  -26.1883   22.0600   -3.8727 H   0  0  0  0  0  0  0  0  0  0  0  0
  -25.5916   19.7457   -3.7180 H   0  0  0  0  0  0  0  0  0  0  0  0
  -25.1852   18.4958   -5.7227 H   0  0  0  0  0  0  0  0  0  0  0  0
  -25.8505   21.7947  -10.3789 H   0  0  0  0  0  0  0  0  0  0  0  0
  -25.2520   19.4785  -10.2534 H   0  0  0  0  0  0  0  0  0  0  0  0
  1 10  1  0  0  0  0
  2 10  2  0  0  0  0
  3 11  1  0  0  0  0
  4  5  1  0  0  0  0
  4 12  2  0  0  0  0
  5  6  2  0  0  0  0
  6  7  1  0  0  0  0
  7 14  2  0  0  0  0
  8  9  1  0  0  0  0
  8 11  2  0  0  0  0
  9 13  2  0  0  0  0
 10 13  1  0  0  0  0
 11 12  1  0  0  0  0
 12 14  1  0  0  0  0
 13 14  1  0  0  0  0
  1 15  1  0  0  0  0
  3 16  1  0  0  0  0
  5 17  1  0  0  0  0
  6 18  1  0  0  0  0
  7 19  1  0  0  0  0
  8 20  1  0  0  0  0
  9 21  1  0  0  0  0
M  END
> <pdb_id>
4BIO

> <uniprot_id>
Q9NWT6

> <usmiles>
O=C(O)c1c2c(nccc2)c(O)cc1

$$$$
8XQ_A_603
          07202406443D 1   1.00000     0.00000     0
            
 21 22  0  0  0  0            999 V2000
   34.1553   -7.5045  -20.4477 O   0  0  0  0  0  0  0  0  0  0  0  0
   34.7466   -9.1431  -21.7496 O   0  0  0  0  0  0  0  0  0  0  0  0
   30.0739   -6.6650  -25.3188 O   0  0  0  0  0  0  0  0  0  0  0  0
   30.1906   -5.3887  -22.9740 N   0  0  0  0  0  0  0  0  0  0  0  0
   30.1713   -4.6902  -21.8311 C   0  0  0  0  0  0  0  0  0  0  0  0
   31.1046   -4.9843  -20.8274 C   0  0  0  0  0  0  0  0  0  0  0  0
   32.0387   -5.9998  -21.0186 C   0  0  0  0  0  0  0  0  0  0  0  0
   31.9351   -8.0702  -24.6517 C   0  0  0  0  0  0  0  0  0  0  0  0
   32.8911   -8.4340  -23.7045 C   0  0  0  0  0  0  0  0  0  0  0  0
   33.9952   -8.1571  -21.5115 C   0  0  0  0  0  0  0  0  0  0  0  0
   31.0408   -7.0438  -24.3909 C   0  0  0  0  0  0  0  0  0  0  0  0
   31.1024   -6.3742  -23.1759 C   0  0  0  0  0  0  0  0  0  0  0  0
   32.9547   -7.7604  -22.4976 C   0  0  0  0  0  0  0  0  0  0  0  0
   32.0413   -6.7201  -22.2355 C   0  0  0  0  0  0  0  0  0  0  0  0
   33.5662   -6.7215  -20.2480 H   0  0  0  0  0  0  0  0  0  0  0  0
   29.4406   -5.9211  -25.1057 H   0  0  0  0  0  0  0  0  0  0  0  0
   29.4966   -3.9648  -21.6950 H   0  0  0  0  0  0  0  0  0  0  0  0
   31.0999   -4.4645  -19.9731 H   0  0  0  0  0  0  0  0  0  0  0  0
   32.7014   -6.2174  -20.3020 H   0  0  0  0  0  0  0  0  0  0  0  0
   31.8943   -8.5535  -25.5262 H   0  0  0  0  0  0  0  0  0  0  0  0
   33.5291   -9.1796  -23.8969 H   0  0  0  0  0  0  0  0  0  0  0  0
  1 10  1  0  0  0  0
  2 10  2  0  0  0  0
  3 11  1  0  0  0  0
  4  5  1  0  0  0  0
  4 12  2  0  0  0  0
  5  6  2  0  0  0  0
  6  7  1  0  0  0  0
  7 14  2  0  0  0  0
  8  9  1  0  0  0  0
  8 11  2  0  0  0  0
  9 13  2  0  0  0  0
 10 13  1  0  0  0  0
 11 12  1  0  0  0  0
 12 14  1  0  0  0  0
 13 14  1  0  0  0  0
  1 15  1  0  0  0  0
  3 16  1  0  0  0  0
  5 17  1  0  0  0  0
  6 18  1  0  0  0  0
  7 19  1  0  0  0  0
  8 20  1  0  0  0  0
  9 21  1  0  0  0  0
M  END
> <pdb_id>
4IE4

> <uniprot_id>
Q9C0B1

> <usmiles>
O=C(O)c1c2c(nccc2)c(O)cc1

$$$$
8XT_A_201
          07192416543D 1   1.00000     0.00000     0
            
 41 43  0  0  0  0            999 V2000
   15.0226   17.6926    6.7146 O   0  0  0  0  0  0  0  0  0  0  0  0
   12.2800   22.3629    1.4302 O   0  0  0  0  0  0  0  0  0  0  0  0
   17.1734   17.6099    7.3815 N   0  0  0  0  0  0  0  0  0  0  0  0
   18.7965   21.2852    3.9694 N   0  0  0  0  0  0  0  0  0  0  0  0
   17.7557   19.6985    5.4157 N   0  0  0  0  0  0  0  0  0  0  0  0
   14.9219   21.7093    2.3084 N   0  0  0  0  0  0  0  0  0  0  0  0
   18.2247   16.4456    9.3338 C   0  0  0  0  0  0  0  0  0  0  0  0
   13.5082   22.8689    4.1097 C   0  0  0  0  0  0  0  0  0  0  0  0
   13.3626   22.4652    0.5149 C   0  0  0  0  0  0  0  0  0  0  0  0
   12.4816   21.3386    2.4101 C   0  0  0  0  0  0  0  0  0  0  0  0
   17.0097   16.5792    8.4100 C   0  0  0  0  0  0  0  0  0  0  0  0
   18.5461   22.1094    2.9299 C   0  0  0  0  0  0  0  0  0  0  0  0
   14.6872   22.7198    1.2622 C   0  0  0  0  0  0  0  0  0  0  0  0
   17.2943   22.2962    2.3607 C   0  0  0  0  0  0  0  0  0  0  0  0
   15.6587   19.7514    4.7279 C   0  0  0  0  0  0  0  0  0  0  0  0
   16.1876   18.0905    6.5961 C   0  0  0  0  0  0  0  0  0  0  0  0
   17.7436   20.5918    4.3975 C   0  0  0  0  0  0  0  0  0  0  0  0
   13.7577   21.6383    3.2162 C   0  0  1  0  0  0  0  0  0  0  0  0
   16.5087   19.1365    5.6385 C   0  0  0  0  0  0  0  0  0  0  0  0
   16.1946   21.5706    2.8555 C   0  0  0  0  0  0  0  0  0  0  0  0
   16.4150   20.6730    3.9183 C   0  0  0  0  0  0  0  0  0  0  0  0
   18.0901   17.9877    7.2513 H   0  0  0  0  0  0  0  0  0  0  0  0
   18.5719   19.4705    5.9464 H   0  0  0  0  0  0  0  0  0  0  0  0
   18.0520   15.7297   10.0103 H   0  0  0  0  0  0  0  0  0  0  0  0
   19.0303   16.2052    8.7923 H   0  0  0  0  0  0  0  0  0  0  0  0
   18.3848   17.3148    9.8017 H   0  0  0  0  0  0  0  0  0  0  0  0
   12.7008   22.7100    4.6779 H   0  0  0  0  0  0  0  0  0  0  0  0
   14.3036   23.0218    4.6961 H   0  0  0  0  0  0  0  0  0  0  0  0
   13.3583   23.6733    3.5348 H   0  0  0  0  0  0  0  0  0  0  0  0
   13.1899   23.2231   -0.1142 H   0  0  0  0  0  0  0  0  0  0  0  0
   13.4364   21.6127   -0.0026 H   0  0  0  0  0  0  0  0  0  0  0  0
   12.5770   20.4546    1.9525 H   0  0  0  0  0  0  0  0  0  0  0  0
   11.6963   21.3107    3.0286 H   0  0  0  0  0  0  0  0  0  0  0  0
   16.8573   15.7006    7.9573 H   0  0  0  0  0  0  0  0  0  0  0  0
   16.2118   16.8103    8.9666 H   0  0  0  0  0  0  0  0  0  0  0  0
   19.3146   22.6199    2.5441 H   0  0  0  0  0  0  0  0  0  0  0  0
   15.4413   22.6889    0.6061 H   0  0  0  0  0  0  0  0  0  0  0  0
   14.6517   23.6245    1.6868 H   0  0  0  0  0  0  0  0  0  0  0  0
   17.1748   22.9407    1.6054 H   0  0  0  0  0  0  0  0  0  0  0  0
   14.6766   19.5813    4.6469 H   0  0  0  0  0  0  0  0  0  0  0  0
   13.9087   20.8599    3.8255 H   0  0  0  0  0  0  0  0  0  0  0  0
  1 16  2  0  0  0  0
  2  9  1  0  0  0  0
  2 10  1  0  0  0  0
  3 11  1  0  0  0  0
  3 16  1  0  0  0  0
  4 12  1  0  0  0  0
  4 17  2  0  0  0  0
  5 17  1  0  0  0  0
  5 19  1  0  0  0  0
  6 13  1  0  0  0  0
  6 18  1  0  0  0  0
  6 20  1  0  0  0  0
  7 11  1  0  0  0  0
  8 18  1  0  0  0  0
  9 13  1  0  0  0  0
 10 18  1  0  0  0  0
 12 14  2  0  0  0  0
 14 20  1  0  0  0  0
 15 19  2  0  0  0  0
 15 21  1  0  0  0  0
 16 19  1  0  0  0  0
 17 21  1  0  0  0  0
 20 21  2  0  0  0  0
  3 22  1  0  0  0  0
  5 23  1  0  0  0  0
  7 24  1  0  0  0  0
  7 25  1  0  0  0  0
  7 26  1  0  0  0  0
  8 27  1  0  0  0  0
  8 28  1  0  0  0  0
  8 29  1  0  0  0  0
  9 30  1  0  0  0  0
  9 31  1  0  0  0  0
 10 32  1  0  0  0  0
 10 33  1  0  0  0  0
 11 34  1  0  0  0  0
 11 35  1  0  0  0  0
 12 36  1  0  0  0  0
 13 37  1  0  0  0  0
 13 38  1  0  0  0  0
 14 39  1  0  0  0  0
 15 40  1  0  0  0  0
 18 41  1  0  0  0  0
M  END
> <pdb_id>
5NHY

> <uniprot_id>
P36639

> <usmiles>
O=C(NCC)C=1Nc2nccc(N3[C@H](COCC3)C)c2C1

$$$$
8XX_A_201
          07212401333D 1   1.00000     0.00000     0
            
 52 55  0  0  0  0            999 V2000
  -12.0667  -18.1337  -19.3885 O   0  0  0  0  0  0  0  0  0  0  0  0
  -17.0533  -23.6929  -23.3627 O   0  0  0  0  0  0  0  0  0  0  0  0
  -12.6220  -19.3005  -17.4773 N   0  0  0  0  0  0  0  0  0  0  0  0
  -16.4390  -21.6909  -22.3616 N   0  0  0  0  0  0  0  0  0  0  0  0
  -14.6734  -23.1385  -20.7893 N   0  0  0  0  0  0  0  0  0  0  0  0
  -11.6239  -18.5787  -16.7010 C   0  0  0  0  0  0  0  0  0  0  0  0
  -17.5998  -20.9686  -22.8896 C   0  0  0  0  0  0  0  0  0  0  0  0
  -16.3896  -22.8000  -14.7805 C   0  0  0  0  0  0  0  0  0  0  0  0
  -13.8530  -23.5753  -23.0417 C   0  0  0  0  0  0  0  0  0  0  0  0
  -13.0937  -21.4379  -16.2173 C   0  0  0  0  0  0  0  0  0  0  0  0
  -14.8554  -19.8810  -16.7250 C   0  0  0  0  0  0  0  0  0  0  0  0
  -15.5066  -19.5552  -21.4412 C   0  0  0  0  0  0  0  0  0  0  0  0
  -14.0201  -22.2575  -15.5687 C   0  0  0  0  0  0  0  0  0  0  0  0
  -15.7736  -20.6935  -16.0781 C   0  0  0  0  0  0  0  0  0  0  0  0
  -14.6250  -18.8907  -20.5811 C   0  0  0  0  0  0  0  0  0  0  0  0
  -13.7433  -21.0474  -19.8198 C   0  0  0  0  0  0  0  0  0  0  0  0
  -14.0050  -24.2294  -18.4420 C   0  0  0  0  0  0  0  0  0  0  0  0
  -14.0953  -25.3364  -19.4875 C   0  0  0  0  0  0  0  0  0  0  0  0
  -12.7706  -18.9411  -18.8759 C   0  0  0  0  0  0  0  0  0  0  0  0
  -16.2801  -23.0837  -22.6933 C   0  0  0  0  0  0  0  0  0  0  0  0
  -13.5141  -20.2497  -16.8034 C   0  0  0  0  0  0  0  0  0  0  0  0
  -15.5042  -20.9719  -21.4841 C   0  0  0  0  0  0  0  0  0  0  0  0
  -14.6500  -21.7046  -20.6844 C   0  0  0  0  0  0  0  0  0  0  0  0
  -15.3620  -21.8941  -15.4970 C   0  0  0  0  0  0  0  0  0  0  0  0
  -13.7657  -19.6482  -19.7713 C   0  0  0  0  0  0  0  0  0  0  0  0
  -13.8193  -23.8919  -19.8939 C   0  0  0  0  0  0  0  0  0  0  0  0
  -15.0096  -23.7220  -22.0381 C   0  0  2  0  0  0  0  0  0  0  0  0
  -11.8609  -18.6108  -15.7604 H   0  0  0  0  0  0  0  0  0  0  0  0
  -11.5914  -17.6549  -16.9945 H   0  0  0  0  0  0  0  0  0  0  0  0
  -10.7547  -18.9899  -16.8294 H   0  0  0  0  0  0  0  0  0  0  0  0
  -18.0437  -21.5137  -23.5571 H   0  0  0  0  0  0  0  0  0  0  0  0
  -17.3065  -20.1372  -23.2946 H   0  0  0  0  0  0  0  0  0  0  0  0
  -18.2179  -20.7754  -22.1672 H   0  0  0  0  0  0  0  0  0  0  0  0
  -16.0132  -23.6860  -14.6644 H   0  0  0  0  0  0  0  0  0  0  0  0
  -17.1969  -22.8592  -15.3165 H   0  0  0  0  0  0  0  0  0  0  0  0
  -16.6044  -22.4231  -13.9140 H   0  0  0  0  0  0  0  0  0  0  0  0
  -13.7011  -22.6349  -23.2255 H   0  0  0  0  0  0  0  0  0  0  0  0
  -14.0796  -24.0330  -23.8657 H   0  0  0  0  0  0  0  0  0  0  0  0
  -13.0483  -23.9652  -22.6656 H   0  0  0  0  0  0  0  0  0  0  0  0
  -12.1980  -21.6869  -16.2577 H   0  0  0  0  0  0  0  0  0  0  0  0
  -15.1349  -19.0795  -17.1055 H   0  0  0  0  0  0  0  0  0  0  0  0
  -16.1023  -19.0713  -21.9673 H   0  0  0  0  0  0  0  0  0  0  0  0
  -13.7383  -23.0562  -15.1837 H   0  0  0  0  0  0  0  0  0  0  0  0
  -16.6688  -20.4409  -16.0378 H   0  0  0  0  0  0  0  0  0  0  0  0
  -14.6145  -17.9618  -20.5409 H   0  0  0  0  0  0  0  0  0  0  0  0
  -13.1509  -21.5328  -19.2926 H   0  0  0  0  0  0  0  0  0  0  0  0
  -13.1970  -24.2261  -17.9059 H   0  0  0  0  0  0  0  0  0  0  0  0
  -14.8489  -23.9524  -18.0531 H   0  0  0  0  0  0  0  0  0  0  0  0
  -14.9879  -25.6628  -19.6775 H   0  0  0  0  0  0  0  0  0  0  0  0
  -13.3341  -25.9368  -19.5303 H   0  0  0  0  0  0  0  0  0  0  0  0
  -12.8793  -23.7731  -20.1026 H   0  0  0  0  0  0  0  0  0  0  0  0
  -15.1818  -24.6658  -21.8976 H   0  0  0  0  0  0  0  0  0  0  0  0
  1 19  2  0  0  0  0
  2 20  2  0  0  0  0
  3  6  1  0  0  0  0
  3 19  1  0  0  0  0
  3 21  1  0  0  0  0
  4  7  1  0  0  0  0
  4 20  1  0  0  0  0
  4 22  1  0  0  0  0
  5 23  1  0  0  0  0
  5 26  1  0  0  0  0
  5 27  1  0  0  0  0
  6 28  1  0  0  0  0
  6 29  1  0  0  0  0
  6 30  1  0  0  0  0
  7 31  1  0  0  0  0
  7 32  1  0  0  0  0
  7 33  1  0  0  0  0
  8 24  1  0  0  0  0
  8 34  1  0  0  0  0
  8 35  1  0  0  0  0
  8 36  1  0  0  0  0
  9 27  1  0  0  0  0
  9 37  1  0  0  0  0
  9 38  1  0  0  0  0
  9 39  1  0  0  0  0
 10 13  2  0  0  0  0
 10 21  1  0  0  0  0
 10 40  1  0  0  0  0
 11 14  1  0  0  0  0
 11 21  2  0  0  0  0
 11 41  1  0  0  0  0
 12 15  1  0  0  0  0
 12 22  2  0  0  0  0
 12 42  1  0  0  0  0
 13 24  1  0  0  0  0
 13 43  1  0  0  0  0
 14 24  2  0  0  0  0
 14 44  1  0  0  0  0
 15 25  2  0  0  0  0
 15 45  1  0  0  0  0
 16 23  2  0  0  0  0
 16 25  1  0  0  0  0
 16 46  1  0  0  0  0
 17 18  1  0  0  0  0
 17 26  1  0  0  0  0
 17 47  1  0  0  0  0
 17 48  1  0  0  0  0
 18 26  1  0  0  0  0
 18 49  1  0  0  0  0
 18 50  1  0  0  0  0
 19 25  1  0  0  0  0
 20 27  1  0  0  0  0
 22 23  1  0  0  0  0
 26 51  1  0  0  0  0
 27 52  1  0  0  0  0
M  END
> <pdb_id>
5YOU

> <uniprot_id>
O60885

> <usmiles>
O=C(N(c1ccc(cc1)C)C)c2cc3N([C@@H](C(=O)N(c3cc2)C)C)C4CC4

$$$$
8Y2_A_601
          07192420213D 1   1.00000     0.00000     0
            
 58 61  0  0  0  0            999 V2000
  -26.8160    5.0900  -13.2070 S   0  0  0  0  0  0  0  0  0  0  0  0
  -25.9790   -3.0380  -16.1370 S   0  0  0  0  0  0  0  0  0  0  0  0
  -25.7800   -4.2660  -15.3910 O   0  0  0  0  0  0  0  0  0  0  0  0
  -26.7770   -3.0300  -17.3510 O   0  0  0  0  0  0  0  0  0  0  0  0
  -26.5410    2.3730  -11.9790 O   0  0  0  0  0  0  0  0  0  0  0  0
  -27.8010    8.9340  -15.3250 O   0  0  0  0  0  0  0  0  0  0  0  0
  -29.1500    9.0340  -17.2170 N   0  0  0  0  0  0  0  0  0  0  0  0
  -28.5530    3.0110  -13.0100 N   0  0  0  0  0  0  0  0  0  0  0  0
  -24.4210   -0.9290  -16.9780 C   0  0  0  0  0  0  0  0  0  0  0  0
  -27.1490    6.2920  -14.3880 C   0  0  0  0  0  0  0  0  0  0  0  0
  -24.3660   -2.3790  -16.5240 C   0  0  0  0  0  0  0  0  0  0  0  0
  -26.7620    9.5490  -16.0830 C   0  0  0  0  0  0  0  0  0  0  0  0
  -29.9510    8.4150  -18.1000 C   0  0  0  0  0  0  0  0  0  0  0  0
  -30.2220    7.0620  -18.0880 C   0  0  0  0  0  0  0  0  0  0  0  0
  -24.0380   11.8220  -13.7230 C   0  0  0  0  0  0  0  0  0  0  0  0
  -25.1580   12.4240  -14.2620 C   0  0  0  0  0  0  0  0  0  0  0  0
  -23.8110   10.4770  -13.9400 C   0  0  0  0  0  0  0  0  0  0  0  0
  -27.6400   -1.0100  -15.3720 C   0  0  0  0  0  0  0  0  0  0  0  0
  -26.2000   -1.9130  -13.6600 C   0  0  0  0  0  0  0  0  0  0  0  0
  -26.0550   11.6920  -15.0160 C   0  0  0  0  0  0  0  0  0  0  0  0
  -24.7020    9.7480  -14.7040 C   0  0  0  0  0  0  0  0  0  0  0  0
  -28.1700   -0.1320  -14.4500 C   0  0  0  0  0  0  0  0  0  0  0  0
  -26.7370   -1.0270  -12.7460 C   0  0  0  0  0  0  0  0  0  0  0  0
  -29.6360    6.3070  -17.0980 C   0  0  0  0  0  0  0  0  0  0  0  0
  -28.8940    4.8220  -14.6630 C   0  0  0  0  0  0  0  0  0  0  0  0
  -28.3080    0.8090  -12.1630 C   0  0  0  0  0  0  0  0  0  0  0  0
  -28.2090    4.1880  -13.6530 C   0  0  0  0  0  0  0  0  0  0  0  0
  -26.6680   -1.8960  -14.9610 C   0  0  0  0  0  0  0  0  0  0  0  0
  -27.6760    2.1570  -12.3690 C   0  0  0  0  0  0  0  0  0  0  0  0
  -28.5950    8.2670  -16.2590 C   0  0  0  0  0  0  0  0  0  0  0  0
  -25.8260   10.3490  -15.2390 C   0  0  0  0  0  0  0  0  0  0  0  0
  -27.7290   -0.1490  -13.1410 C   0  0  0  0  0  0  0  0  0  0  0  0
  -28.2970    6.0360  -15.1080 C   0  0  0  0  0  0  0  0  0  0  0  0
  -28.8090    6.8960  -16.1560 C   0  0  0  0  0  0  0  0  0  0  0  0
  -29.5202    2.7569  -13.0095 H   0  0  0  0  0  0  0  0  0  0  0  0
  -23.4960   -0.6082  -17.1818 H   0  0  0  0  0  0  0  0  0  0  0  0
  -24.9869   -0.8581  -17.7994 H   0  0  0  0  0  0  0  0  0  0  0  0
  -24.8162   -0.3670  -16.2514 H   0  0  0  0  0  0  0  0  0  0  0  0
  -26.5706    7.0939  -14.5379 H   0  0  0  0  0  0  0  0  0  0  0  0
  -23.9624   -2.9286  -17.2555 H   0  0  0  0  0  0  0  0  0  0  0  0
  -23.7917   -2.4375  -15.7075 H   0  0  0  0  0  0  0  0  0  0  0  0
  -27.1773   10.1547  -16.7617 H   0  0  0  0  0  0  0  0  0  0  0  0
  -26.2405    8.8342  -16.5489 H   0  0  0  0  0  0  0  0  0  0  0  0
  -30.3789    8.9710  -18.8126 H   0  0  0  0  0  0  0  0  0  0  0  0
  -30.8211    6.6463  -18.7723 H   0  0  0  0  0  0  0  0  0  0  0  0
  -23.3937   12.3580  -13.1775 H   0  0  0  0  0  0  0  0  0  0  0  0
  -25.3211   13.3981  -14.1052 H   0  0  0  0  0  0  0  0  0  0  0  0
  -23.0060   10.0332  -13.5462 H   0  0  0  0  0  0  0  0  0  0  0  0
  -27.9552   -1.0038  -16.3210 H   0  0  0  0  0  0  0  0  0  0  0  0
  -25.4849   -2.5558  -13.3853 H   0  0  0  0  0  0  0  0  0  0  0  0
  -26.8668   12.1332  -15.3986 H   0  0  0  0  0  0  0  0  0  0  0  0
  -24.5322    8.7768  -14.8714 H   0  0  0  0  0  0  0  0  0  0  0  0
  -28.8757    0.5189  -14.7299 H   0  0  0  0  0  0  0  0  0  0  0  0
  -26.4090   -1.0209  -11.8013 H   0  0  0  0  0  0  0  0  0  0  0  0
  -29.8090    5.3229  -17.0583 H   0  0  0  0  0  0  0  0  0  0  0  0
  -29.7411    4.4605  -15.0527 H   0  0  0  0  0  0  0  0  0  0  0  0
  -29.2958    0.8764  -12.3036 H   0  0  0  0  0  0  0  0  0  0  0  0
  -28.1247    0.4910  -11.2328 H   0  0  0  0  0  0  0  0  0  0  0  0
  1 10  1  0  0  0  0
  1 27  1  0  0  0  0
  2  3  2  0  0  0  0
  2  4  2  0  0  0  0
  2 11  1  0  0  0  0
  2 28  1  0  0  0  0
  5 29  2  0  0  0  0
  6 12  1  0  0  0  0
  6 30  1  0  0  0  0
  7 13  1  0  0  0  0
  7 30  2  0  0  0  0
  8 27  1  0  0  0  0
  8 29  1  0  0  0  0
  9 11  1  0  0  0  0
 10 33  2  0  0  0  0
 12 31  1  0  0  0  0
 13 14  2  0  0  0  0
 14 24  1  0  0  0  0
 15 16  2  0  0  0  0
 15 17  1  0  0  0  0
 16 20  1  0  0  0  0
 17 21  2  0  0  0  0
 18 22  2  0  0  0  0
 18 28  1  0  0  0  0
 19 23  1  0  0  0  0
 19 28  2  0  0  0  0
 20 31  2  0  0  0  0
 21 31  1  0  0  0  0
 22 32  1  0  0  0  0
 23 32  2  0  0  0  0
 24 34  2  0  0  0  0
 25 27  2  0  0  0  0
 25 33  1  0  0  0  0
 26 29  1  0  0  0  0
 26 32  1  0  0  0  0
 30 34  1  0  0  0  0
 33 34  1  0  0  0  0
  8 35  1  0  0  0  0
  9 36  1  0  0  0  0
  9 37  1  0  0  0  0
  9 38  1  0  0  0  0
 10 39  1  0  0  0  0
 11 40  1  0  0  0  0
 11 41  1  0  0  0  0
 12 42  1  0  0  0  0
 12 43  1  0  0  0  0
 13 44  1  0  0  0  0
 14 45  1  0  0  0  0
 15 46  1  0  0  0  0
 16 47  1  0  0  0  0
 17 48  1  0  0  0  0
 18 49  1  0  0  0  0
 19 50  1  0  0  0  0
 20 51  1  0  0  0  0
 21 52  1  0  0  0  0
 22 53  1  0  0  0  0
 23 54  1  0  0  0  0
 24 55  1  0  0  0  0
 25 56  1  0  0  0  0
 26 57  1  0  0  0  0
 26 58  1  0  0  0  0
M  END
> <pdb_id>
5NI8

> <uniprot_id>
P51449

> <usmiles>
S(=O)(=O)(c1ccc(cc1)CC(=O)NC=2SC=C(c3c(OCc4ccccc4)nccc3)C2)CC

$$$$
8Y4_A_301
          07202411363D 1   1.00000     0.00000     0
            
 37 39  0  0  0  0            999 V2000
   71.0123   -2.2804  103.8046 S   0  0  0  0  0  0  0  0  0  0  0  0
   71.2029   -3.5959  101.1421 O   0  0  0  0  0  0  0  0  0  0  0  0
   74.3852    1.5466  101.1383 O   0  0  0  0  0  0  0  0  0  0  0  0
   77.1524    1.6827  104.8665 N   0  0  0  0  0  0  0  0  0  0  0  0
   75.7108    1.5453  103.0136 N   0  0  0  0  0  0  0  0  0  0  0  0
   75.2863    0.2589  104.9588 N   0  0  0  0  0  0  0  0  0  0  0  0
   72.6850   -0.4614  102.5991 N   0  0  0  0  0  0  0  0  0  0  0  0
   69.1329   -2.8255  100.3544 N   0  0  0  0  0  0  0  0  0  0  0  0
   73.2849   -1.0640  104.6522 N   0  0  0  0  0  0  0  0  0  0  0  0
   73.2946   -1.7015  105.9532 C   0  0  0  0  0  0  0  0  0  0  0  0
   69.9888   -1.8998  102.3522 C   0  0  0  0  0  0  0  0  0  0  0  0
   68.1203   -5.6056   97.3615 C   0  0  0  0  0  0  0  0  0  0  0  0
   68.9682   -5.9939   98.3769 C   0  0  0  0  0  0  0  0  0  0  0  0
   67.6174   -4.3200   97.3536 C   0  0  0  0  0  0  0  0  0  0  0  0
   69.3242   -5.1067   99.3776 C   0  0  0  0  0  0  0  0  0  0  0  0
   67.9637   -3.4237   98.3460 C   0  0  0  0  0  0  0  0  0  0  0  0
   72.3800   -1.2111  103.6411 C   0  0  0  0  0  0  0  0  0  0  0  0
   76.0180    1.1236  104.3133 C   0  0  0  0  0  0  0  0  0  0  0  0
   70.2075   -2.8821  101.2340 C   0  0  0  0  0  0  0  0  0  0  0  0
   74.6253    1.1368  102.2665 C   0  0  0  0  0  0  0  0  0  0  0  0
   74.2208   -0.1668  104.2461 C   0  0  0  0  0  0  0  0  0  0  0  0
   68.8235   -3.8082   99.3667 C   0  0  0  0  0  0  0  0  0  0  0  0
   73.8330    0.1867  102.9857 C   0  0  0  0  0  0  0  0  0  0  0  0
   77.4345    1.4291  105.7918 H   0  0  0  0  0  0  0  0  0  0  0  0
   77.6921    2.3412  104.3420 H   0  0  0  0  0  0  0  0  0  0  0  0
   76.3345    2.2015  102.5889 H   0  0  0  0  0  0  0  0  0  0  0  0
   68.5276   -2.0321  100.4188 H   0  0  0  0  0  0  0  0  0  0  0  0
   74.0903   -1.3886  106.4718 H   0  0  0  0  0  0  0  0  0  0  0  0
   72.4592   -1.4621  106.4479 H   0  0  0  0  0  0  0  0  0  0  0  0
   73.3410   -2.6937  105.8379 H   0  0  0  0  0  0  0  0  0  0  0  0
   70.2197   -0.9831  102.0261 H   0  0  0  0  0  0  0  0  0  0  0  0
   69.0258   -1.9254  102.6205 H   0  0  0  0  0  0  0  0  0  0  0  0
   67.8719   -6.2492   96.6376 H   0  0  0  0  0  0  0  0  0  0  0  0
   69.3296   -6.9262   98.3905 H   0  0  0  0  0  0  0  0  0  0  0  0
   66.9969   -4.0350   96.6229 H   0  0  0  0  0  0  0  0  0  0  0  0
   69.9412   -5.3986  100.1085 H   0  0  0  0  0  0  0  0  0  0  0  0
   67.5940   -2.4947   98.3295 H   0  0  0  0  0  0  0  0  0  0  0  0
  1 11  1  0  0  0  0
  1 17  1  0  0  0  0
  2 19  2  0  0  0  0
  3 20  2  0  0  0  0
  4 18  1  0  0  0  0
  5 18  1  0  0  0  0
  5 20  1  0  0  0  0
  6 18  2  0  0  0  0
  6 21  1  0  0  0  0
  7 17  2  0  0  0  0
  7 23  1  0  0  0  0
  8 19  1  0  0  0  0
  8 22  1  0  0  0  0
  9 10  1  0  0  0  0
  9 17  1  0  0  0  0
  9 21  1  0  0  0  0
 11 19  1  0  0  0  0
 12 13  2  0  0  0  0
 12 14  1  0  0  0  0
 13 15  1  0  0  0  0
 14 16  2  0  0  0  0
 15 22  2  0  0  0  0
 16 22  1  0  0  0  0
 20 23  1  0  0  0  0
 21 23  2  0  0  0  0
  4 24  1  0  0  0  0
  4 25  1  0  0  0  0
  5 26  1  0  0  0  0
  8 27  1  0  0  0  0
 10 28  1  0  0  0  0
 10 29  1  0  0  0  0
 10 30  1  0  0  0  0
 11 31  1  0  0  0  0
 11 32  1  0  0  0  0
 12 33  1  0  0  0  0
 13 34  1  0  0  0  0
 14 35  1  0  0  0  0
 15 36  1  0  0  0  0
 16 37  1  0  0  0  0
M  END
> <pdb_id>
5V79

> <uniprot_id>
P0AC14

> <usmiles>
S(C1=NC=2C(=O)NC(=NC2N1C)N)CC(=O)Nc3ccccc3

$$$$
8Y6_A_1569
          07192423343D 1   1.00000     0.00000     0
            
 50 55  0  0  0  0            999 V2000
   27.8462   42.3927   41.2353 F   0  0  0  0  0  0  0  0  0  0  0  0
   26.9016   40.8738   48.0662 F   0  0  0  0  0  0  0  0  0  0  0  0
   23.8755   46.4956   42.9694 O   0  0  0  0  0  0  0  0  0  0  0  0
   23.8018   44.4770   41.9980 O   0  0  0  0  0  0  0  0  0  0  0  0
   27.9892   47.3239   45.2265 O   0  0  0  0  0  0  0  0  0  0  0  0
   21.3698   45.3882   44.2612 O   0  0  0  0  0  0  0  0  0  0  0  0
   23.8600   44.3039   48.7382 O   0  0  0  0  0  0  0  0  0  0  0  0
   30.0009   47.5554   44.1101 N   0  0  0  0  0  0  0  0  0  0  0  0
   30.7022   46.0456   42.4344 N   0  0  0  0  0  0  0  0  0  0  0  0
   21.0160   47.2677   45.5563 N   0  0  0  0  0  0  0  0  0  0  0  0
   25.1786   43.4485   44.3392 N   0  0  0  0  0  0  0  0  0  0  0  0
   30.8894   47.0929   43.1712 C   0  0  0  0  0  0  0  0  0  0  0  0
   24.1635   43.7211   49.9349 C   0  0  0  0  0  0  0  0  0  0  0  0
   21.3792   48.1175   46.5739 C   0  0  0  0  0  0  0  0  0  0  0  0
   22.4952   47.9103   47.2753 C   0  0  0  0  0  0  0  0  0  0  0  0
   25.9146   42.8828   43.2260 C   0  0  0  0  0  0  0  0  0  0  0  0
   25.0566   42.6904   49.7917 C   0  0  0  0  0  0  0  0  0  0  0  0
   23.3593   46.7936   46.9437 C   0  0  0  0  0  0  0  0  0  0  0  0
   29.2560   44.1774   41.8436 C   0  0  0  0  0  0  0  0  0  0  0  0
   26.1274   42.0019   46.1554 C   0  0  0  0  0  0  0  0  0  0  0  0
   27.3823   44.9037   43.8053 C   0  0  0  0  0  0  0  0  0  0  0  0
   23.9919   45.2844   43.0653 C   0  0  0  0  0  0  0  0  0  0  0  0
   28.7977   46.9134   44.3991 C   0  0  0  0  0  0  0  0  0  0  0  0
   21.7494   46.1531   45.1767 C   0  0  0  0  0  0  0  0  0  0  0  0
   28.0821   43.4421   42.0296 C   0  0  0  0  0  0  0  0  0  0  0  0
   26.1128   41.8175   47.5479 C   0  0  0  0  0  0  0  0  0  0  0  0
   24.5527   43.6144   47.8183 C   0  0  0  0  0  0  0  0  0  0  0  0
   29.5081   45.3086   42.6392 C   0  0  0  0  0  0  0  0  0  0  0  0
   25.3500   43.0145   45.6064 C   0  0  0  0  0  0  0  0  0  0  0  0
   27.1498   43.7522   43.0178 C   0  0  0  0  0  0  0  0  0  0  0  0
   24.3278   44.5360   44.2819 C   0  0  0  0  0  0  0  0  0  0  0  0
   25.3201   42.6078   48.3983 C   0  0  0  0  0  0  0  0  0  0  0  0
   28.5450   45.6822   43.6033 C   0  0  0  0  0  0  0  0  0  0  0  0
   23.0435   45.9149   45.9453 C   0  0  0  0  0  0  0  0  0  0  0  0
   24.5591   43.8448   46.4269 C   0  0  0  0  0  0  0  0  0  0  0  0
   23.9028   44.8113   45.6036 C   0  0  0  0  0  0  0  0  0  0  0  0
   24.0201   47.0768   43.7703 H   0  0  0  0  0  0  0  0  0  0  0  0
   30.2273   48.3915   44.6098 H   0  0  0  0  0  0  0  0  0  0  0  0
   20.1712   47.4651   45.0590 H   0  0  0  0  0  0  0  0  0  0  0  0
   31.7417   47.6014   43.0480 H   0  0  0  0  0  0  0  0  0  0  0  0
   23.7802   44.0113   50.8117 H   0  0  0  0  0  0  0  0  0  0  0  0
   20.7987   48.9022   46.7917 H   0  0  0  0  0  0  0  0  0  0  0  0
   22.7354   48.5236   48.0278 H   0  0  0  0  0  0  0  0  0  0  0  0
   25.3482   42.8884   42.4019 H   0  0  0  0  0  0  0  0  0  0  0  0
   26.1874   41.9440   43.4366 H   0  0  0  0  0  0  0  0  0  0  0  0
   25.4413   42.1176   50.5155 H   0  0  0  0  0  0  0  0  0  0  0  0
   24.2068   46.6632   47.4580 H   0  0  0  0  0  0  0  0  0  0  0  0
   29.9157   43.8991   41.1455 H   0  0  0  0  0  0  0  0  0  0  0  0
   26.6870   41.4152   45.5700 H   0  0  0  0  0  0  0  0  0  0  0  0
   26.7216   45.1683   44.5077 H   0  0  0  0  0  0  0  0  0  0  0  0
  1 25  1  0  0  0  0
  2 26  1  0  0  0  0
  3 22  1  0  0  0  0
  4 22  2  0  0  0  0
  5 23  2  0  0  0  0
  6 24  2  0  0  0  0
  7 13  1  0  0  0  0
  7 27  1  0  0  0  0
  8 12  1  0  0  0  0
  8 23  1  0  0  0  0
  9 12  2  0  0  0  0
  9 28  1  0  0  0  0
 10 14  1  0  0  0  0
 10 24  1  0  0  0  0
 11 16  1  0  0  0  0
 11 29  1  0  0  0  0
 11 31  1  0  0  0  0
 13 17  2  0  0  0  0
 14 15  2  0  0  0  0
 15 18  1  0  0  0  0
 16 30  1  0  0  0  0
 17 32  1  0  0  0  0
 18 34  2  0  0  0  0
 19 25  1  0  0  0  0
 19 28  2  0  0  0  0
 20 26  1  0  0  0  0
 20 29  2  0  0  0  0
 21 30  1  0  0  0  0
 21 33  2  0  0  0  0
 22 31  1  0  0  0  0
 23 33  1  0  0  0  0
 24 34  1  0  0  0  0
 25 30  2  0  0  0  0
 26 32  2  0  0  0  0
 27 32  1  0  0  0  0
 27 35  2  0  0  0  0
 28 33  1  0  0  0  0
 29 35  1  0  0  0  0
 31 36  2  0  0  0  0
 34 36  1  0  0  0  0
 35 36  1  0  0  0  0
  3 37  1  0  0  0  0
  8 38  1  0  0  0  0
 10 39  1  0  0  0  0
 12 40  1  0  0  0  0
 13 41  1  0  0  0  0
 14 42  1  0  0  0  0
 15 43  1  0  0  0  0
 16 44  1  0  0  0  0
 16 45  1  0  0  0  0
 17 46  1  0  0  0  0
 18 47  1  0  0  0  0
 19 48  1  0  0  0  0
 20 49  1  0  0  0  0
 21 50  1  0  0  0  0
M  END
> <pdb_id>
2YOJ

> <uniprot_id>
O92972

> <usmiles>
Fc1c2c(OC=C2)c3c(N(C(C(=O)O)=C3C=4C(=O)NC=CC4)Cc5c(F)cc6N=CNC(=O)c6c5)c1

$$$$
8Y7_A_301
          07202411363D 1   1.00000     0.00000     0
            
 26 27  0  0  0  0            999 V2000
   71.0428   -2.1865  103.8097 S   0  0  0  0  0  0  0  0  0  0  0  0
   71.5315   -3.8097  101.5243 O   0  0  0  0  0  0  0  0  0  0  0  0
   70.0092   -2.8650  100.1269 O   0  0  0  0  0  0  0  0  0  0  0  0
   74.5748    1.5186  101.0881 O   0  0  0  0  0  0  0  0  0  0  0  0
   77.1218    1.8794  104.8704 N   0  0  0  0  0  0  0  0  0  0  0  0
   75.7673    1.5978  103.0136 N   0  0  0  0  0  0  0  0  0  0  0  0
   72.7688   -0.4154  102.5690 N   0  0  0  0  0  0  0  0  0  0  0  0
   75.2634    0.4407  105.0068 N   0  0  0  0  0  0  0  0  0  0  0  0
   73.2551   -0.8957  104.6817 N   0  0  0  0  0  0  0  0  0  0  0  0
   73.1876   -1.4705  106.0148 C   0  0  0  0  0  0  0  0  0  0  0  0
   70.0998   -2.0116  102.2671 C   0  0  0  0  0  0  0  0  0  0  0  0
   70.6097   -3.0010  101.2242 C   0  0  0  0  0  0  0  0  0  0  0  0
   72.4061   -1.1082  103.6331 C   0  0  0  0  0  0  0  0  0  0  0  0
   76.0136    1.2676  104.3376 C   0  0  0  0  0  0  0  0  0  0  0  0
   74.7272    1.1521  102.2391 C   0  0  0  0  0  0  0  0  0  0  0  0
   74.2239   -0.0288  104.2675 C   0  0  0  0  0  0  0  0  0  0  0  0
   73.8939    0.2536  102.9720 C   0  0  0  0  0  0  0  0  0  0  0  0
   71.9198   -3.8057  102.4458 H   0  0  0  0  0  0  0  0  0  0  0  0
   77.3817    1.7040  105.8200 H   0  0  0  0  0  0  0  0  0  0  0  0
   77.6687    2.5002  104.3088 H   0  0  0  0  0  0  0  0  0  0  0  0
   76.4140    2.2247  102.5794 H   0  0  0  0  0  0  0  0  0  0  0  0
   73.9486   -1.1266  106.5650 H   0  0  0  0  0  0  0  0  0  0  0  0
   72.3223   -1.2135  106.4452 H   0  0  0  0  0  0  0  0  0  0  0  0
   73.2455   -2.4668  105.9516 H   0  0  0  0  0  0  0  0  0  0  0  0
   70.2058   -1.0802  101.9187 H   0  0  0  0  0  0  0  0  0  0  0  0
   69.1330   -2.1915  102.4485 H   0  0  0  0  0  0  0  0  0  0  0  0
  1 11  1  0  0  0  0
  1 13  1  0  0  0  0
  2 12  1  0  0  0  0
  3 12  2  0  0  0  0
  4 15  2  0  0  0  0
  5 14  1  0  0  0  0
  6 14  1  0  0  0  0
  6 15  1  0  0  0  0
  7 13  2  0  0  0  0
  7 17  1  0  0  0  0
  8 14  2  0  0  0  0
  8 16  1  0  0  0  0
  9 10  1  0  0  0  0
  9 13  1  0  0  0  0
  9 16  1  0  0  0  0
 11 12  1  0  0  0  0
 15 17  1  0  0  0  0
 16 17  2  0  0  0  0
  2 18  1  0  0  0  0
  5 19  1  0  0  0  0
  5 20  1  0  0  0  0
  6 21  1  0  0  0  0
 10 22  1  0  0  0  0
 10 23  1  0  0  0  0
 10 24  1  0  0  0  0
 11 25  1  0  0  0  0
 11 26  1  0  0  0  0
M  END
> <pdb_id>
5V7A

> <uniprot_id>
P0AC14

> <usmiles>
S(C1=NC=2C(=O)NC(=NC2N1C)N)CC(=O)O

$$$$
8ZH_A_1001
          07192420223D 1   1.00000     0.00000     0
            
 56 59  0  0  0  0            999 V2000
  -91.9903  -21.4017    7.9639 Cl  0  0  0  0  0  0  0  0  0  0  0  0
  -88.0279  -17.2131    7.4028 S   0  0  0  0  0  0  0  0  0  0  0  0
  -89.7101  -18.4121    9.4464 O   0  0  0  0  0  0  0  0  0  0  0  0
  -82.5785  -16.1136    2.8269 O   0  0  0  0  0  0  0  0  0  0  0  0
  -78.2173  -13.7206    2.1607 N   0  0  0  0  0  0  0  0  0  0  0  0
  -89.3015  -16.3823    5.4724 N   0  0  0  0  0  0  0  0  0  0  0  0
  -87.0050  -15.9015    5.2199 N   0  0  0  0  0  0  0  0  0  0  0  0
  -81.4127  -14.8603    4.3567 N   0  0  0  0  0  0  0  0  0  0  0  0
  -91.6543  -18.3955    8.2678 N   0  0  0  0  0  0  0  0  0  0  0  0
  -92.6240  -16.8588   10.4041 C   0  0  0  0  0  0  0  0  0  0  0  0
  -79.4214  -12.9313    1.8410 C   0  0  0  0  0  0  0  0  0  0  0  0
  -78.4766  -15.1611    1.9804 C   0  0  0  0  0  0  0  0  0  0  0  0
  -90.2129  -16.9543    6.3027 C   0  0  0  0  0  0  0  0  0  0  0  0
  -93.7442  -20.2432   11.3550 C   0  0  0  0  0  0  0  0  0  0  0  0
  -83.9273  -15.9499    7.2632 C   0  0  0  0  0  0  0  0  0  0  0  0
  -80.6777  -13.5727    2.4087 C   0  0  0  0  0  0  0  0  0  0  0  0
  -79.4832  -15.6646    3.0120 C   0  0  0  0  0  0  0  0  0  0  0  0
  -93.2627  -20.9976   10.2906 C   0  0  0  0  0  0  0  0  0  0  0  0
  -85.2725  -15.9720    6.9278 C   0  0  0  0  0  0  0  0  0  0  0  0
  -93.5240  -18.8661   11.3734 C   0  0  0  0  0  0  0  0  0  0  0  0
  -82.9816  -15.8384    6.2592 C   0  0  0  0  0  0  0  0  0  0  0  0
  -84.7490  -15.7764    4.6108 C   0  0  0  0  0  0  0  0  0  0  0  0
  -88.0315  -16.4189    5.9206 C   0  0  0  0  0  0  0  0  0  0  0  0
  -92.5600  -20.3929    9.2493 C   0  0  0  0  0  0  0  0  0  0  0  0
  -90.3352  -18.1098    8.4300 C   0  0  0  0  0  0  0  0  0  0  0  0
  -82.4379  -15.6210    3.9470 C   0  0  0  0  0  0  0  0  0  0  0  0
  -89.6887  -17.4782    7.4249 C   0  0  0  0  0  0  0  0  0  0  0  0
  -80.2474  -14.4615    3.5544 C   0  0  0  0  0  0  0  0  0  0  0  0
  -85.7109  -15.8987    5.6070 C   0  0  0  0  0  0  0  0  0  0  0  0
  -92.3326  -19.0100    9.2796 C   0  0  0  0  0  0  0  0  0  0  0  0
  -92.8220  -18.2426   10.3423 C   0  0  0  0  0  0  0  0  0  0  0  0
  -83.3989  -15.7602    4.9371 C   0  0  0  0  0  0  0  0  0  0  0  0
  -77.9556  -13.5503    3.1107 H   0  0  0  0  0  0  0  0  0  0  0  0
  -87.2189  -15.4834    4.3370 H   0  0  0  0  0  0  0  0  0  0  0  0
  -81.4439  -14.5320    5.3008 H   0  0  0  0  0  0  0  0  0  0  0  0
  -92.1222  -18.1580    7.4165 H   0  0  0  0  0  0  0  0  0  0  0  0
  -92.1088  -16.5595    9.6010 H   0  0  0  0  0  0  0  0  0  0  0  0
  -93.5102  -16.3958   10.4231 H   0  0  0  0  0  0  0  0  0  0  0  0
  -92.1116  -16.6320   11.2324 H   0  0  0  0  0  0  0  0  0  0  0  0
  -79.5115  -12.8648    0.8473 H   0  0  0  0  0  0  0  0  0  0  0  0
  -79.3212  -12.0150    2.2287 H   0  0  0  0  0  0  0  0  0  0  0  0
  -77.6189  -15.6643    2.0866 H   0  0  0  0  0  0  0  0  0  0  0  0
  -78.8425  -15.3159    1.0627 H   0  0  0  0  0  0  0  0  0  0  0  0
  -91.1910  -16.9833    6.0964 H   0  0  0  0  0  0  0  0  0  0  0  0
  -94.2438  -20.6842   12.1006 H   0  0  0  0  0  0  0  0  0  0  0  0
  -83.6437  -16.0137    8.2200 H   0  0  0  0  0  0  0  0  0  0  0  0
  -81.1324  -14.1178    1.7043 H   0  0  0  0  0  0  0  0  0  0  0  0
  -81.3036  -12.8664    2.7394 H   0  0  0  0  0  0  0  0  0  0  0  0
  -79.0023  -16.1251    3.7581 H   0  0  0  0  0  0  0  0  0  0  0  0
  -80.1195  -16.3040    2.5806 H   0  0  0  0  0  0  0  0  0  0  0  0
  -93.4223  -21.9846   10.2718 H   0  0  0  0  0  0  0  0  0  0  0  0
  -85.9514  -16.0429    7.6587 H   0  0  0  0  0  0  0  0  0  0  0  0
  -93.8734  -18.3197   12.1346 H   0  0  0  0  0  0  0  0  0  0  0  0
  -82.0074  -15.8145    6.4835 H   0  0  0  0  0  0  0  0  0  0  0  0
  -85.0305  -15.6996    3.6543 H   0  0  0  0  0  0  0  0  0  0  0  0
  -79.6294  -13.9376    4.1407 H   0  0  0  0  0  0  0  0  0  0  0  0
  1 24  1  0  0  0  0
  2 23  1  0  0  0  0
  2 27  1  0  0  0  0
  3 25  2  0  0  0  0
  4 26  2  0  0  0  0
  5 11  1  0  0  0  0
  5 12  1  0  0  0  0
  6 13  1  0  0  0  0
  6 23  2  0  0  0  0
  7 23  1  0  0  0  0
  7 29  1  0  0  0  0
  8 26  1  0  0  0  0
  8 28  1  0  0  0  0
  9 25  1  0  0  0  0
  9 30  1  0  0  0  0
 10 31  1  0  0  0  0
 11 16  1  0  0  0  0
 12 17  1  0  0  0  0
 13 27  2  0  0  0  0
 14 18  2  0  0  0  0
 14 20  1  0  0  0  0
 15 19  1  0  0  0  0
 15 21  2  0  0  0  0
 16 28  1  0  0  0  0
 17 28  1  0  0  0  0
 18 24  1  0  0  0  0
 19 29  2  0  0  0  0
 20 31  2  0  0  0  0
 21 32  1  0  0  0  0
 22 29  1  0  0  0  0
 22 32  2  0  0  0  0
 24 30  2  0  0  0  0
 25 27  1  0  0  0  0
 26 32  1  0  0  0  0
 30 31  1  0  0  0  0
  5 33  1  0  0  0  0
  7 34  1  0  0  0  0
  8 35  1  0  0  0  0
  9 36  1  0  0  0  0
 10 37  1  0  0  0  0
 10 38  1  0  0  0  0
 10 39  1  0  0  0  0
 11 40  1  0  0  0  0
 11 41  1  0  0  0  0
 12 42  1  0  0  0  0
 12 43  1  0  0  0  0
 13 44  1  0  0  0  0
 14 45  1  0  0  0  0
 15 46  1  0  0  0  0
 16 47  1  0  0  0  0
 16 48  1  0  0  0  0
 17 49  1  0  0  0  0
 17 50  1  0  0  0  0
 18 51  1  0  0  0  0
 19 52  1  0  0  0  0
 20 53  1  0  0  0  0
 21 54  1  0  0  0  0
 22 55  1  0  0  0  0
 28 56  1  0  0  0  0
M  END
> <pdb_id>
5NJZ

> <uniprot_id>
P29317

> <usmiles>
Clc1c(NC(=O)C=2SC(=NC2)Nc3cc(ccc3)C(=O)NC4CCNCC4)c(ccc1)C

$$$$
8ZT_A_1001
          07192420223D 1   1.00000     0.00000     0
            
 63 67  0  0  0  0            999 V2000
  -92.7400  -16.6350   10.4100 Cl  0  0  0  0  0  0  0  0  0  0  0  0
  -88.0610  -17.2710    7.3730 S   0  0  0  0  0  0  0  0  0  0  0  0
  -89.8640  -18.2510    9.4410 O   0  0  0  0  0  0  0  0  0  0  0  0
  -80.0650  -15.0920    2.6570 O   0  0  0  0  0  0  0  0  0  0  0  0
  -83.3670  -16.6890   11.5500 O   0  0  0  0  0  0  0  0  0  0  0  0
  -89.2100  -16.3300    5.3730 N   0  0  0  0  0  0  0  0  0  0  0  0
  -86.8730  -15.9510    5.2490 N   0  0  0  0  0  0  0  0  0  0  0  0
  -91.7280  -18.5030    8.1990 N   0  0  0  0  0  0  0  0  0  0  0  0
  -82.2220  -15.7070    4.3300 N   0  0  0  0  0  0  0  0  0  0  0  0
  -83.6980  -16.1330    8.8710 N   0  0  0  0  0  0  0  0  0  0  0  0
  -92.1230  -21.2200    8.1200 C   0  0  0  0  0  0  0  0  0  0  0  0
  -81.3620  -15.2430    2.0420 C   0  0  0  0  0  0  0  0  0  0  0  0
  -79.9200  -16.2520    3.5230 C   0  0  0  0  0  0  0  0  0  0  0  0
  -82.1930  -16.7360   10.7190 C   0  0  0  0  0  0  0  0  0  0  0  0
  -84.2020  -15.5440   11.2320 C   0  0  0  0  0  0  0  0  0  0  0  0
  -82.4110  -14.9390    3.1250 C   0  0  0  0  0  0  0  0  0  0  0  0
  -80.8520  -16.0780    4.7320 C   0  0  0  0  0  0  0  0  0  0  0  0
  -82.5860  -16.9670    9.3000 C   0  0  0  0  0  0  0  0  0  0  0  0
  -84.7150  -15.6510    9.8020 C   0  0  0  0  0  0  0  0  0  0  0  0
  -90.1570  -16.8870    6.1770 C   0  0  0  0  0  0  0  0  0  0  0  0
  -93.8440  -20.4130   11.2860 C   0  0  0  0  0  0  0  0  0  0  0  0
  -93.6650  -19.0270   11.3090 C   0  0  0  0  0  0  0  0  0  0  0  0
  -93.3510  -21.1800   10.2110 C   0  0  0  0  0  0  0  0  0  0  0  0
  -84.5900  -15.8400    4.8130 C   0  0  0  0  0  0  0  0  0  0  0  0
  -85.2900  -16.0350    7.1360 C   0  0  0  0  0  0  0  0  0  0  0  0
  -82.9780  -15.9410    6.5810 C   0  0  0  0  0  0  0  0  0  0  0  0
  -87.9550  -16.4670    5.8530 C   0  0  0  0  0  0  0  0  0  0  0  0
  -92.9570  -18.3600   10.2960 C   0  0  0  0  0  0  0  0  0  0  0  0
  -90.4390  -18.0950    8.3590 C   0  0  0  0  0  0  0  0  0  0  0  0
  -89.7420  -17.4600    7.3440 C   0  0  0  0  0  0  0  0  0  0  0  0
  -85.6140  -15.9600    5.7840 C   0  0  0  0  0  0  0  0  0  0  0  0
  -83.2520  -15.8450    5.2300 C   0  0  0  0  0  0  0  0  0  0  0  0
  -83.9730  -16.0250    7.5480 C   0  0  0  0  0  0  0  0  0  0  0  0
  -92.4270  -19.1110    9.2530 C   0  0  0  0  0  0  0  0  0  0  0  0
  -92.6340  -20.4910    9.2120 C   0  0  0  0  0  0  0  0  0  0  0  0
  -86.9953  -15.5326    4.3490 H   0  0  0  0  0  0  0  0  0  0  0  0
  -92.1827  -18.3676    7.3187 H   0  0  0  0  0  0  0  0  0  0  0  0
  -91.6427  -20.5993    7.5003 H   0  0  0  0  0  0  0  0  0  0  0  0
  -91.4875  -21.9168    8.4525 H   0  0  0  0  0  0  0  0  0  0  0  0
  -92.8761  -21.6613    7.6321 H   0  0  0  0  0  0  0  0  0  0  0  0
  -81.4761  -16.1780    1.7061 H   0  0  0  0  0  0  0  0  0  0  0  0
  -81.4581  -14.6014    1.2810 H   0  0  0  0  0  0  0  0  0  0  0  0
  -78.9726  -16.3236    3.8350 H   0  0  0  0  0  0  0  0  0  0  0  0
  -80.1693  -17.0805    3.0215 H   0  0  0  0  0  0  0  0  0  0  0  0
  -81.6000  -17.4810   11.0245 H   0  0  0  0  0  0  0  0  0  0  0  0
  -81.7014  -15.8681   10.7900 H   0  0  0  0  0  0  0  0  0  0  0  0
  -83.6650  -14.7060   11.3288 H   0  0  0  0  0  0  0  0  0  0  0  0
  -84.9790  -15.5165   11.8609 H   0  0  0  0  0  0  0  0  0  0  0  0
  -82.3574  -13.9674    3.3556 H   0  0  0  0  0  0  0  0  0  0  0  0
  -83.3175  -15.1445    2.7561 H   0  0  0  0  0  0  0  0  0  0  0  0
  -80.8870  -16.9396    5.2384 H   0  0  0  0  0  0  0  0  0  0  0  0
  -80.4836  -15.3594    5.3219 H   0  0  0  0  0  0  0  0  0  0  0  0
  -81.7981  -16.7715    8.7160 H   0  0  0  0  0  0  0  0  0  0  0  0
  -82.8489  -17.9261    9.1950 H   0  0  0  0  0  0  0  0  0  0  0  0
  -85.4885  -16.2846    9.7865 H   0  0  0  0  0  0  0  0  0  0  0  0
  -85.0190  -14.7465    9.5030 H   0  0  0  0  0  0  0  0  0  0  0  0
  -91.1237  -16.8766    5.9212 H   0  0  0  0  0  0  0  0  0  0  0  0
  -94.3254  -20.8638   12.0377 H   0  0  0  0  0  0  0  0  0  0  0  0
  -94.0503  -18.4976   12.0649 H   0  0  0  0  0  0  0  0  0  0  0  0
  -93.5029  -22.1671   10.1595 H   0  0  0  0  0  0  0  0  0  0  0  0
  -84.8185  -15.7529    3.8434 H   0  0  0  0  0  0  0  0  0  0  0  0
  -86.0202  -16.0968    7.8164 H   0  0  0  0  0  0  0  0  0  0  0  0
  -82.0225  -15.9505    6.8758 H   0  0  0  0  0  0  0  0  0  0  0  0
  1 28  1  0  0  0  0
  2 27  1  0  0  0  0
  2 30  1  0  0  0  0
  3 29  2  0  0  0  0
  4 12  1  0  0  0  0
  4 13  1  0  0  0  0
  5 14  1  0  0  0  0
  5 15  1  0  0  0  0
  6 20  1  0  0  0  0
  6 27  2  0  0  0  0
  7 27  1  0  0  0  0
  7 31  1  0  0  0  0
  8 29  1  0  0  0  0
  8 34  1  0  0  0  0
  9 16  1  0  0  0  0
  9 17  1  0  0  0  0
  9 32  1  0  0  0  0
 10 18  1  0  0  0  0
 10 19  1  0  0  0  0
 10 33  1  0  0  0  0
 11 35  1  0  0  0  0
 12 16  1  0  0  0  0
 13 17  1  0  0  0  0
 14 18  1  0  0  0  0
 15 19  1  0  0  0  0
 20 30  2  0  0  0  0
 21 22  2  0  0  0  0
 21 23  1  0  0  0  0
 22 28  1  0  0  0  0
 23 35  2  0  0  0  0
 24 31  2  0  0  0  0
 24 32  1  0  0  0  0
 25 31  1  0  0  0  0
 25 33  2  0  0  0  0
 26 32  2  0  0  0  0
 26 33  1  0  0  0  0
 28 34  2  0  0  0  0
 29 30  1  0  0  0  0
 34 35  1  0  0  0  0
  7 36  1  0  0  0  0
  8 37  1  0  0  0  0
 11 38  1  0  0  0  0
 11 39  1  0  0  0  0
 11 40  1  0  0  0  0
 12 41  1  0  0  0  0
 12 42  1  0  0  0  0
 13 43  1  0  0  0  0
 13 44  1  0  0  0  0
 14 45  1  0  0  0  0
 14 46  1  0  0  0  0
 15 47  1  0  0  0  0
 15 48  1  0  0  0  0
 16 49  1  0  0  0  0
 16 50  1  0  0  0  0
 17 51  1  0  0  0  0
 17 52  1  0  0  0  0
 18 53  1  0  0  0  0
 18 54  1  0  0  0  0
 19 55  1  0  0  0  0
 19 56  1  0  0  0  0
 20 57  1  0  0  0  0
 21 58  1  0  0  0  0
 22 59  1  0  0  0  0
 23 60  1  0  0  0  0
 24 61  1  0  0  0  0
 25 62  1  0  0  0  0
 26 63  1  0  0  0  0
M  END
> <pdb_id>
5NKB

> <uniprot_id>
P29317

> <usmiles>
Clc1c(NC(=O)C=2SC(=NC2)Nc3cc(N4CCOCC4)cc(N5CCOCC5)c3)c(ccc1)C

$$$$
8ZW_A_1001
          07192420223D 1   1.00000     0.00000     0
            
 56 59  0  0  0  0            999 V2000
  -92.5622  -16.6430   10.3886 Cl  0  0  0  0  0  0  0  0  0  0  0  0
  -88.0384  -17.1581    7.4221 S   0  0  0  0  0  0  0  0  0  0  0  0
  -83.6907  -15.9358    9.2467 S   0  0  0  0  0  0  0  0  0  0  0  0
  -82.1960  -15.7982    9.5296 O   0  0  0  0  0  0  0  0  0  0  0  0
  -84.4742  -14.7902    9.8907 O   0  0  0  0  0  0  0  0  0  0  0  0
  -89.7544  -18.2760    9.4369 O   0  0  0  0  0  0  0  0  0  0  0  0
  -80.0604  -15.4327    2.6180 O   0  0  0  0  0  0  0  0  0  0  0  0
  -89.2019  -16.4616    5.3730 N   0  0  0  0  0  0  0  0  0  0  0  0
  -86.8881  -15.9230    5.2517 N   0  0  0  0  0  0  0  0  0  0  0  0
  -91.6003  -18.4689    8.1532 N   0  0  0  0  0  0  0  0  0  0  0  0
  -82.2176  -15.8197    4.3644 N   0  0  0  0  0  0  0  0  0  0  0  0
  -84.2747  -17.4836    9.9019 C   0  0  0  0  0  0  0  0  0  0  0  0
  -92.0016  -21.2251    8.0303 C   0  0  0  0  0  0  0  0  0  0  0  0
  -79.8493  -15.1713    4.0176 C   0  0  0  0  0  0  0  0  0  0  0  0
  -81.3248  -14.8541    2.2404 C   0  0  0  0  0  0  0  0  0  0  0  0
  -90.1347  -17.0165    6.1879 C   0  0  0  0  0  0  0  0  0  0  0  0
  -80.8290  -15.9902    4.8468 C   0  0  0  0  0  0  0  0  0  0  0  0
  -82.4708  -15.5945    2.9284 C   0  0  0  0  0  0  0  0  0  0  0  0
  -93.6822  -20.3936   11.1934 C   0  0  0  0  0  0  0  0  0  0  0  0
  -93.4776  -19.0185   11.2508 C   0  0  0  0  0  0  0  0  0  0  0  0
  -93.1843  -21.1178   10.1167 C   0  0  0  0  0  0  0  0  0  0  0  0
  -85.2967  -15.9174    7.0922 C   0  0  0  0  0  0  0  0  0  0  0  0
  -82.9424  -15.8769    6.6134 C   0  0  0  0  0  0  0  0  0  0  0  0
  -84.5590  -15.8732    4.8292 C   0  0  0  0  0  0  0  0  0  0  0  0
  -87.9544  -16.4334    5.8962 C   0  0  0  0  0  0  0  0  0  0  0  0
  -92.7770  -18.3556   10.2425 C   0  0  0  0  0  0  0  0  0  0  0  0
  -89.6565  -17.4707    7.3611 C   0  0  0  0  0  0  0  0  0  0  0  0
  -90.3283  -18.0745    8.3696 C   0  0  0  0  0  0  0  0  0  0  0  0
  -83.9813  -15.9075    7.5305 C   0  0  0  0  0  0  0  0  0  0  0  0
  -85.6141  -15.9229    5.7356 C   0  0  0  0  0  0  0  0  0  0  0  0
  -83.2309  -15.8593    5.2522 C   0  0  0  0  0  0  0  0  0  0  0  0
  -92.2761  -19.0908    9.1619 C   0  0  0  0  0  0  0  0  0  0  0  0
  -92.4807  -20.4719    9.0985 C   0  0  0  0  0  0  0  0  0  0  0  0
  -87.0422  -15.5141    4.3522 H   0  0  0  0  0  0  0  0  0  0  0  0
  -92.0397  -18.3083    7.2694 H   0  0  0  0  0  0  0  0  0  0  0  0
  -85.2532  -17.5756    9.7177 H   0  0  0  0  0  0  0  0  0  0  0  0
  -83.7814  -18.2369    9.4670 H   0  0  0  0  0  0  0  0  0  0  0  0
  -84.1176  -17.5081   10.8892 H   0  0  0  0  0  0  0  0  0  0  0  0
  -91.5232  -20.6261    7.3881 H   0  0  0  0  0  0  0  0  0  0  0  0
  -91.3697  -21.9216    8.3704 H   0  0  0  0  0  0  0  0  0  0  0  0
  -92.7676  -21.6686    7.5650 H   0  0  0  0  0  0  0  0  0  0  0  0
  -79.9924  -14.1984    4.1992 H   0  0  0  0  0  0  0  0  0  0  0  0
  -78.9135  -15.4224    4.2650 H   0  0  0  0  0  0  0  0  0  0  0  0
  -81.4359  -14.9218    1.2489 H   0  0  0  0  0  0  0  0  0  0  0  0
  -81.3423  -13.8921    2.5128 H   0  0  0  0  0  0  0  0  0  0  0  0
  -91.1003  -17.0827    5.9366 H   0  0  0  0  0  0  0  0  0  0  0  0
  -80.5794  -16.9566    4.7850 H   0  0  0  0  0  0  0  0  0  0  0  0
  -80.7767  -15.6927    5.8001 H   0  0  0  0  0  0  0  0  0  0  0  0
  -83.3061  -15.0534    2.8312 H   0  0  0  0  0  0  0  0  0  0  0  0
  -82.5938  -16.4807    2.4818 H   0  0  0  0  0  0  0  0  0  0  0  0
  -94.1847  -20.8581   11.9226 H   0  0  0  0  0  0  0  0  0  0  0  0
  -93.8376  -18.4983   12.0252 H   0  0  0  0  0  0  0  0  0  0  0  0
  -93.3306  -22.1059   10.0712 H   0  0  0  0  0  0  0  0  0  0  0  0
  -86.0355  -15.9207    7.7661 H   0  0  0  0  0  0  0  0  0  0  0  0
  -81.9930  -15.8675    6.9275 H   0  0  0  0  0  0  0  0  0  0  0  0
  -84.7588  -15.8468    3.8497 H   0  0  0  0  0  0  0  0  0  0  0  0
  1 26  1  0  0  0  0
  2 25  1  0  0  0  0
  2 27  1  0  0  0  0
  3  4  2  0  0  0  0
  3  5  2  0  0  0  0
  3 12  1  0  0  0  0
  3 29  1  0  0  0  0
  6 28  2  0  0  0  0
  7 14  1  0  0  0  0
  7 15  1  0  0  0  0
  8 16  1  0  0  0  0
  8 25  2  0  0  0  0
  9 25  1  0  0  0  0
  9 30  1  0  0  0  0
 10 28  1  0  0  0  0
 10 32  1  0  0  0  0
 11 17  1  0  0  0  0
 11 18  1  0  0  0  0
 11 31  1  0  0  0  0
 13 33  1  0  0  0  0
 14 17  1  0  0  0  0
 15 18  1  0  0  0  0
 16 27  2  0  0  0  0
 19 20  2  0  0  0  0
 19 21  1  0  0  0  0
 20 26  1  0  0  0  0
 21 33  2  0  0  0  0
 22 29  1  0  0  0  0
 22 30  2  0  0  0  0
 23 29  2  0  0  0  0
 23 31  1  0  0  0  0
 24 30  1  0  0  0  0
 24 31  2  0  0  0  0
 26 32  2  0  0  0  0
 27 28  1  0  0  0  0
 32 33  1  0  0  0  0
  9 34  1  0  0  0  0
 10 35  1  0  0  0  0
 12 36  1  0  0  0  0
 12 37  1  0  0  0  0
 12 38  1  0  0  0  0
 13 39  1  0  0  0  0
 13 40  1  0  0  0  0
 13 41  1  0  0  0  0
 14 42  1  0  0  0  0
 14 43  1  0  0  0  0
 15 44  1  0  0  0  0
 15 45  1  0  0  0  0
 16 46  1  0  0  0  0
 17 47  1  0  0  0  0
 17 48  1  0  0  0  0
 18 49  1  0  0  0  0
 18 50  1  0  0  0  0
 19 51  1  0  0  0  0
 20 52  1  0  0  0  0
 21 53  1  0  0  0  0
 22 54  1  0  0  0  0
 23 55  1  0  0  0  0
 24 56  1  0  0  0  0
M  END
> <pdb_id>
5NKI

> <uniprot_id>
P29317

> <usmiles>
Clc1c(NC(=O)C=2SC(=NC2)Nc3cc(S(=O)(=O)C)cc(N4CCOCC4)c3)c(ccc1)C

$$$$
907_A_246
          07192419343D 1   1.00000     0.00000     0
            
 36 38  0  0  0  0            999 V2000
   44.4831   25.8999   45.3436 Br  0  0  0  0  0  0  0  0  0  0  0  0
   44.5737   23.2838   47.0855 O   0  0  0  0  0  0  0  0  0  0  0  0
   47.2326   18.4568   54.1170 N   0  0  0  0  0  0  0  0  0  0  0  0
   46.2650   16.8405   52.8008 N   0  3  0  0  0  0  0  0  0  0  0  0
   45.4765   21.8074   49.0687 N   0  0  0  0  0  0  0  0  0  0  0  0
   47.3898   27.7119   49.2248 C   0  0  0  0  0  0  0  0  0  0  0  0
   45.3199   19.4966   49.7735 C   0  0  0  0  0  0  0  0  0  0  0  0
   45.6379   18.6163   50.8023 C   0  0  0  0  0  0  0  0  0  0  0  0
   45.9967   26.6477   47.5254 C   0  0  0  0  0  0  0  0  0  0  0  0
   46.4830   22.6219   50.8168 C   0  0  0  0  0  0  0  0  0  0  0  0
   46.6470   25.2623   49.3990 C   0  0  0  0  0  0  0  0  0  0  0  0
   46.6300   20.4386   52.0782 C   0  0  0  0  0  0  0  0  0  0  0  0
   46.6127   18.0956   53.0024 C   0  0  0  0  0  0  0  0  0  0  0  0
   45.3357   25.5793   47.0243 C   0  0  0  0  0  0  0  0  0  0  0  0
   45.2868   24.3238   47.6614 C   0  0  0  0  0  0  0  0  0  0  0  0
   45.6625   20.8176   49.9020 C   0  0  0  0  0  0  0  0  0  0  0  0
   45.9543   22.9156   49.5601 C   0  0  0  0  0  0  0  0  0  0  0  0
   46.6548   26.4997   48.7083 C   0  0  0  0  0  0  0  0  0  0  0  0
   46.2983   19.0506   51.9744 C   0  0  0  0  0  0  0  0  0  0  0  0
   46.2861   21.2774   51.0097 C   0  0  0  0  0  0  0  0  0  0  0  0
   45.9570   24.1554   48.8756 C   0  0  0  0  0  0  0  0  0  0  0  0
   47.5315   19.4176   54.2276 H   0  0  0  0  0  0  0  0  0  0  0  0
   47.4625   17.8460   54.8667 H   0  0  0  0  0  0  0  0  0  0  0  0
   45.7963   16.5717   51.9479 H   0  0  0  0  0  0  0  0  0  0  0  0
   46.4658   16.1021   53.4366 H   0  0  0  0  0  0  0  0  0  0  0  0
   45.0478   21.7662   48.1794 H   0  0  0  0  0  0  0  0  0  0  0  0
   46.7186   28.5583   49.1975 H   0  0  0  0  0  0  0  0  0  0  0  0
   47.7084   27.5293   50.2381 H   0  0  0  0  0  0  0  0  0  0  0  0
   48.2440   27.8920   48.5906 H   0  0  0  0  0  0  0  0  0  0  0  0
   44.8133   19.1490   48.8839 H   0  0  0  0  0  0  0  0  0  0  0  0
   45.3641   17.5856   50.6658 H   0  0  0  0  0  0  0  0  0  0  0  0
   45.9930   27.5847   46.9900 H   0  0  0  0  0  0  0  0  0  0  0  0
   46.9606   23.3131   51.5083 H   0  0  0  0  0  0  0  0  0  0  0  0
   47.1728   25.1674   50.3349 H   0  0  0  0  0  0  0  0  0  0  0  0
   47.1283   20.8388   52.9459 H   0  0  0  0  0  0  0  0  0  0  0  0
   44.5380   22.3920   47.5366 H   0  0  0  0  0  0  0  0  0  0  0  0
  1 14  1  0  0  0  0
  2 15  1  0  0  0  0
  3 13  1  0  0  0  0
  3 22  1  0  0  0  0
  3 23  1  0  0  0  0
  4 13  2  0  0  0  0
  4 24  1  0  0  0  0
  4 25  1  0  0  0  0
  5 16  1  0  0  0  0
  5 17  1  0  0  0  0
  5 26  1  0  0  0  0
  6 18  1  0  0  0  0
  6 27  1  0  0  0  0
  6 28  1  0  0  0  0
  6 29  1  0  0  0  0
  7  8  1  0  0  0  0
  7 16  2  0  0  0  0
  7 30  1  0  0  0  0
  8 19  2  0  0  0  0
  8 31  1  0  0  0  0
  9 14  1  0  0  0  0
  9 18  2  0  0  0  0
  9 32  1  0  0  0  0
 10 17  2  0  0  0  0
 10 20  1  0  0  0  0
 10 33  1  0  0  0  0
 11 18  1  0  0  0  0
 11 21  2  0  0  0  0
 11 34  1  0  0  0  0
 12 19  1  0  0  0  0
 12 20  2  0  0  0  0
 12 35  1  0  0  0  0
 13 19  1  0  0  0  0
 14 15  2  0  0  0  0
 15 21  1  0  0  0  0
 16 20  1  0  0  0  0
 17 21  1  0  0  0  0
  2 36  1  0  0  0  0
M  CHG  1   4   1
M  END
> <pdb_id>
1O3I

> <uniprot_id>
P00760

> <usmiles>
Brc1c(O)c(cc(c1)C)C=2Nc3c(cc(cc3)C(=[NH2+])N)C2

$$$$
90G_B_501
          07202411523D 1   1.00000     0.00000     0
            
 27 28  0  0  0  0            999 V2000
  -31.6290    3.4810   -7.0760 Cl  0  0  0  0  0  0  0  0  0  0  0  0
  -34.3330   -6.4160  -13.9930 S   0  0  0  0  0  0  0  0  0  0  0  0
  -35.0730   -4.4730  -11.5010 O   0  0  0  0  0  0  0  0  0  0  0  0
  -33.3590   -1.3000  -13.4300 N   0  0  0  0  0  0  0  0  0  0  0  0
  -32.8300   -0.2650  -12.6580 N   0  0  0  0  0  0  0  0  0  0  0  0
  -34.4910   -3.1630  -13.2390 N   0  0  0  0  0  0  0  0  0  0  0  0
  -35.6150   -5.1840  -13.7030 C   0  0  0  0  0  0  0  0  0  0  0  0
  -32.3590    2.7150   -9.6210 C   0  0  0  0  0  0  0  0  0  0  0  0
  -32.0930    0.9240   -8.0170 C   0  0  0  0  0  0  0  0  0  0  0  0
  -32.7030    1.7930  -10.5930 C   0  0  0  0  0  0  0  0  0  0  0  0
  -32.4380   -0.0070   -8.9900 C   0  0  0  0  0  0  0  0  0  0  0  0
  -33.8560   -1.6850  -11.2720 C   0  0  0  0  0  0  0  0  0  0  0  0
  -32.0570    2.2770   -8.3360 C   0  0  0  0  0  0  0  0  0  0  0  0
  -35.0410   -4.2310  -12.6930 C   0  0  0  0  0  0  0  0  0  0  0  0
  -33.9520   -2.1280  -12.5810 C   0  0  0  0  0  0  0  0  0  0  0  0
  -33.1270   -0.4950  -11.3640 C   0  0  0  0  0  0  0  0  0  0  0  0
  -32.7350    0.4380  -10.2770 C   0  0  0  0  0  0  0  0  0  0  0  0
  -34.6581   -7.0841  -14.6623 H   0  0  0  0  0  0  0  0  0  0  0  0
  -33.3023   -1.3976  -14.4236 H   0  0  0  0  0  0  0  0  0  0  0  0
  -34.4750   -3.1224  -14.2380 H   0  0  0  0  0  0  0  0  0  0  0  0
  -36.4408   -5.6181  -13.3430 H   0  0  0  0  0  0  0  0  0  0  0  0
  -35.8344   -4.7025  -14.5516 H   0  0  0  0  0  0  0  0  0  0  0  0
  -32.3277    3.6901   -9.8408 H   0  0  0  0  0  0  0  0  0  0  0  0
  -31.8713    0.6215   -7.0900 H   0  0  0  0  0  0  0  0  0  0  0  0
  -32.9276    2.0986  -11.5183 H   0  0  0  0  0  0  0  0  0  0  0  0
  -32.4726   -0.9818   -8.7697 H   0  0  0  0  0  0  0  0  0  0  0  0
  -34.2240   -2.1175  -10.4489 H   0  0  0  0  0  0  0  0  0  0  0  0
  1 13  1  0  0  0  0
  2  7  1  0  0  0  0
  3 14  2  0  0  0  0
  4  5  1  0  0  0  0
  4 15  1  0  0  0  0
  5 16  2  0  0  0  0
  6 14  1  0  0  0  0
  6 15  1  0  0  0  0
  7 14  1  0  0  0  0
  8 10  1  0  0  0  0
  8 13  2  0  0  0  0
  9 11  2  0  0  0  0
  9 13  1  0  0  0  0
 10 17  2  0  0  0  0
 11 17  1  0  0  0  0
 12 15  2  0  0  0  0
 12 16  1  0  0  0  0
 16 17  1  0  0  0  0
  2 18  1  0  0  0  0
  4 19  1  0  0  0  0
  6 20  1  0  0  0  0
  7 21  1  0  0  0  0
  7 22  1  0  0  0  0
  8 23  1  0  0  0  0
  9 24  1  0  0  0  0
 10 25  1  0  0  0  0
 11 26  1  0  0  0  0
 12 27  1  0  0  0  0
M  END
> <pdb_id>
5V8P

> <uniprot_id>
P10845

> <usmiles>
Clc1ccc(cc1)C2=NNC(NC(=O)CS)=C2

$$$$
916_A_500
          07202405583D 1   1.00000     0.00000     0
            
 70 72  0  0  0  0            999 V2000
   63.1549   47.9134   12.6576 S   0  0  0  0  0  0  0  0  0  0  0  0
   68.1553   46.2318    9.8828 O   0  0  0  0  0  0  0  0  0  0  0  0
   65.6631   49.7369    7.8927 O   0  0  0  0  0  0  0  0  0  0  0  0
   62.5360   45.6563   11.3043 O   0  0  0  0  0  0  0  0  0  0  0  0
   63.9837   47.5816    7.8545 N   0  0  0  0  0  0  0  0  0  0  0  0
   68.2087   46.9875    7.7687 N   0  0  0  0  0  0  0  0  0  0  0  0
   68.9789   44.6725    8.2948 C   0  0  0  0  0  0  0  0  0  0  0  0
   62.2184   43.6065   10.0966 C   0  0  0  0  0  0  0  0  0  0  0  0
   60.5634   45.5948    9.8698 C   0  0  0  0  0  0  0  0  0  0  0  0
   61.5049   50.7306   13.7342 C   0  0  0  0  0  0  0  0  0  0  0  0
   61.7134   51.7997   11.5269 C   0  0  0  0  0  0  0  0  0  0  0  0
   62.8604   52.7964   13.4570 C   0  0  0  0  0  0  0  0  0  0  0  0
   65.3330   47.4202    8.3476 C   0  0  0  0  0  0  0  0  0  0  0  0
   72.7846   48.8980    8.6578 C   0  0  0  0  0  0  0  0  0  0  0  0
   72.4215   49.1795    7.3349 C   0  0  0  0  0  0  0  0  0  0  0  0
   71.7726   48.7240    9.6182 C   0  0  0  0  0  0  0  0  0  0  0  0
   71.0743   49.2975    6.9464 C   0  0  0  0  0  0  0  0  0  0  0  0
   70.4153   48.8711    9.2602 C   0  0  0  0  0  0  0  0  0  0  0  0
   63.3170   49.1624   10.2825 C   0  0  0  0  0  0  0  0  0  0  0  0
   68.6155   49.3012    7.4953 C   0  0  0  0  0  0  0  0  0  0  0  0
   63.7316   50.6520   12.4713 C   0  0  0  0  0  0  0  0  0  0  0  0
   62.9278   45.6578    8.8954 C   0  0  0  0  0  0  0  0  0  0  0  0
   62.8605   46.9812   11.3028 C   0  0  0  0  0  0  0  0  0  0  0  0
   68.3984   46.0279    8.7042 C   0  0  0  0  0  0  0  0  0  0  0  0
   63.4255   49.3827   11.6994 C   0  0  0  0  0  0  0  0  0  0  0  0
   66.2249   48.4391    7.6377 C   0  0  2  0  0  0  0  0  0  0  0  0
   62.8456   47.1850    8.7247 C   0  0  1  0  0  0  0  0  0  0  0  0
   67.6756   48.3275    8.1794 C   0  0  1  0  0  0  0  0  0  0  0  0
   70.0699   49.1627    7.9219 C   0  0  0  0  0  0  0  0  0  0  0  0
   62.9963   47.7575   10.0788 C   0  0  0  0  0  0  0  0  0  0  0  0
   62.0321   45.1341   10.0543 C   0  0  0  0  0  0  0  0  0  0  0  0
   62.4822   51.4767   12.7968 C   0  0  0  0  0  0  0  0  0  0  0  0
   66.2200   50.4353    7.4432 H   0  0  0  0  0  0  0  0  0  0  0  0
   63.9121   47.0429    7.0150 H   0  0  0  0  0  0  0  0  0  0  0  0
   68.4229   46.8039    6.8093 H   0  0  0  0  0  0  0  0  0  0  0  0
   69.1229   44.6567    7.3053 H   0  0  0  0  0  0  0  0  0  0  0  0
   69.8519   44.5293    8.7610 H   0  0  0  0  0  0  0  0  0  0  0  0
   68.3413   43.9458    8.5505 H   0  0  0  0  0  0  0  0  0  0  0  0
   61.8801   43.2057    9.2452 H   0  0  0  0  0  0  0  0  0  0  0  0
   63.1893   43.3919   10.2033 H   0  0  0  0  0  0  0  0  0  0  0  0
   61.7069   43.2296   10.8688 H   0  0  0  0  0  0  0  0  0  0  0  0
   60.2078   45.2370    9.0064 H   0  0  0  0  0  0  0  0  0  0  0  0
   60.0084   45.2506   10.6271 H   0  0  0  0  0  0  0  0  0  0  0  0
   60.5266   46.5940    9.8569 H   0  0  0  0  0  0  0  0  0  0  0  0
   61.9729   50.4979   14.5868 H   0  0  0  0  0  0  0  0  0  0  0  0
   60.7207   51.3181   13.9341 H   0  0  0  0  0  0  0  0  0  0  0  0
   61.1890   49.8932   13.2882 H   0  0  0  0  0  0  0  0  0  0  0  0
   62.3116   52.2853   10.8894 H   0  0  0  0  0  0  0  0  0  0  0  0
   61.3954   50.9508   11.1047 H   0  0  0  0  0  0  0  0  0  0  0  0
   60.9271   52.3757   11.7506 H   0  0  0  0  0  0  0  0  0  0  0  0
   63.4935   53.2956   12.8654 H   0  0  0  0  0  0  0  0  0  0  0  0
   62.0368   53.3448   13.6018 H   0  0  0  0  0  0  0  0  0  0  0  0
   63.2991   52.6151   14.3371 H   0  0  0  0  0  0  0  0  0  0  0  0
   65.6561   46.4939    8.1535 H   0  0  0  0  0  0  0  0  0  0  0  0
   65.3545   47.5807    9.3344 H   0  0  0  0  0  0  0  0  0  0  0  0
   73.7479   48.8220    8.9152 H   0  0  0  0  0  0  0  0  0  0  0  0
   73.1385   49.2999    6.6484 H   0  0  0  0  0  0  0  0  0  0  0  0
   72.0159   48.4945   10.5606 H   0  0  0  0  0  0  0  0  0  0  0  0
   70.8347   49.4743    5.9917 H   0  0  0  0  0  0  0  0  0  0  0  0
   69.7004   48.7692    9.9519 H   0  0  0  0  0  0  0  0  0  0  0  0
   63.4398   49.8499    9.5668 H   0  0  0  0  0  0  0  0  0  0  0  0
   68.3132   50.2307    7.7064 H   0  0  0  0  0  0  0  0  0  0  0  0
   68.5617   49.1492    6.5084 H   0  0  0  0  0  0  0  0  0  0  0  0
   64.3505   51.2153   11.9241 H   0  0  0  0  0  0  0  0  0  0  0  0
   64.1796   50.4017   13.3296 H   0  0  0  0  0  0  0  0  0  0  0  0
   63.8769   45.4079    9.0867 H   0  0  0  0  0  0  0  0  0  0  0  0
   62.6342   45.2244    8.0434 H   0  0  0  0  0  0  0  0  0  0  0  0
   66.2204   48.2598    6.6539 H   0  0  0  0  0  0  0  0  0  0  0  0
   61.9726   47.4535    8.3173 H   0  0  0  0  0  0  0  0  0  0  0  0
   67.7004   48.4379    9.1730 H   0  0  0  0  0  0  0  0  0  0  0  0
  1 23  1  0  0  0  0
  1 25  1  0  0  0  0
  2 24  2  0  0  0  0
  3 26  1  0  0  0  0
  4 23  1  0  0  0  0
  4 31  1  0  0  0  0
  5 13  1  0  0  0  0
  5 27  1  0  0  0  0
  6 24  1  0  0  0  0
  6 28  1  0  0  0  0
  7 24  1  0  0  0  0
  8 31  1  0  0  0  0
  9 31  1  0  0  0  0
 10 32  1  0  0  0  0
 11 32  1  0  0  0  0
 12 32  1  0  0  0  0
 13 26  1  0  0  0  0
 14 15  2  0  0  0  0
 14 16  1  0  0  0  0
 15 17  1  0  0  0  0
 16 18  2  0  0  0  0
 17 29  2  0  0  0  0
 18 29  1  0  0  0  0
 19 25  2  0  0  0  0
 19 30  1  0  0  0  0
 20 28  1  0  0  0  0
 20 29  1  0  0  0  0
 21 25  1  0  0  0  0
 21 32  1  0  0  0  0
 22 27  1  0  0  0  0
 22 31  1  0  0  0  0
 23 30  2  0  0  0  0
 26 28  1  0  0  0  0
 27 30  1  0  0  0  0
  3 33  1  0  0  0  0
  5 34  1  0  0  0  0
  6 35  1  0  0  0  0
  7 36  1  0  0  0  0
  7 37  1  0  0  0  0
  7 38  1  0  0  0  0
  8 39  1  0  0  0  0
  8 40  1  0  0  0  0
  8 41  1  0  0  0  0
  9 42  1  0  0  0  0
  9 43  1  0  0  0  0
  9 44  1  0  0  0  0
 10 45  1  0  0  0  0
 10 46  1  0  0  0  0
 10 47  1  0  0  0  0
 11 48  1  0  0  0  0
 11 49  1  0  0  0  0
 11 50  1  0  0  0  0
 12 51  1  0  0  0  0
 12 52  1  0  0  0  0
 12 53  1  0  0  0  0
 13 54  1  0  0  0  0
 13 55  1  0  0  0  0
 14 56  1  0  0  0  0
 15 57  1  0  0  0  0
 16 58  1  0  0  0  0
 17 59  1  0  0  0  0
 18 60  1  0  0  0  0
 19 61  1  0  0  0  0
 20 62  1  0  0  0  0
 20 63  1  0  0  0  0
 21 64  1  0  0  0  0
 21 65  1  0  0  0  0
 22 66  1  0  0  0  0
 22 67  1  0  0  0  0
 26 68  1  0  0  0  0
 27 69  1  0  0  0  0
 28 70  1  0  0  0  0
M  END
> <pdb_id>
4EXG

> <uniprot_id>
P56817

> <usmiles>
S1C=2OC(C[C@H](NC[C@@H](O)[C@@H](NC(=O)C)Cc3ccccc3)C2C=C1CC(C)(C)C)(C)C

$$$$
92E_A_1201
          07192420223D 1   1.00000     0.00000     0
            
 56 58  0  0  0  0            999 V2000
   13.7990   10.6600   12.5270 O   0  0  0  0  0  0  0  0  0  0  0  0
   14.1190    9.8440    4.7640 O   0  0  0  0  0  0  0  0  0  0  0  0
   12.2260   13.0680    7.2590 O   0  0  0  0  0  0  0  0  0  0  0  0
    5.6770   14.3360    9.0290 O   0  0  0  0  0  0  0  0  0  0  0  0
   11.9090   15.2720    8.9270 O   0  0  0  0  0  0  0  0  0  0  0  0
   15.9550    9.0290    2.9530 O   0  0  0  0  0  0  0  0  0  0  0  0
   14.5250    9.0520   11.0260 N   0  0  0  0  0  0  0  0  0  0  0  0
   15.5660    9.3710    6.4890 N   0  0  0  0  0  0  0  0  0  0  0  0
   11.3310   12.6100    9.2940 N   0  0  0  0  0  0  0  0  0  0  0  0
   13.5950   16.9720    8.7760 C   0  0  0  0  0  0  0  0  0  0  0  0
   14.6700    8.6080   13.4050 C   0  0  0  0  0  0  0  0  0  0  0  0
    6.4080   12.0500    9.3140 C   0  0  0  0  0  0  0  0  0  0  0  0
   12.0920   16.6860    8.7990 C   0  0  0  0  0  0  0  0  0  0  0  0
   17.1120    8.4370    2.4160 C   0  0  0  0  0  0  0  0  0  0  0  0
   17.8690    8.0400    3.4450 C   0  0  0  0  0  0  0  0  0  0  0  0
   17.2530    8.3530    4.5930 C   0  0  0  0  0  0  0  0  0  0  0  0
    9.5490   15.7880    8.8550 C   0  0  0  0  0  0  0  0  0  0  0  0
    8.2250   15.3520    8.9220 C   0  0  0  0  0  0  0  0  0  0  0  0
   14.9780    9.2810    8.7550 C   0  0  0  0  0  0  0  0  0  0  0  0
   13.3390   10.7530    9.7240 C   0  0  0  0  0  0  0  0  0  0  0  0
   13.8900   10.9020    7.3810 C   0  0  0  0  0  0  0  0  0  0  0  0
    9.0020   13.0970    9.2330 C   0  0  0  0  0  0  0  0  0  0  0  0
   14.2810    9.5570   12.2630 C   0  0  0  0  0  0  0  0  0  0  0  0
   15.1940    9.4160    5.1830 C   0  0  0  0  0  0  0  0  0  0  0  0
   12.2250   12.4140    8.2990 C   0  0  0  0  0  0  0  0  0  0  0  0
    6.6240   13.5630    9.1580 C   0  0  0  0  0  0  0  0  0  0  0  0
   16.0990    8.9470    4.3030 C   0  0  0  0  0  0  0  0  0  0  0  0
   10.6020   14.8840    8.9830 C   0  0  0  0  0  0  0  0  0  0  0  0
   14.2650    9.7110    9.8720 C   0  0  0  0  0  0  0  0  0  0  0  0
   14.7990    9.8470    7.5000 C   0  0  0  0  0  0  0  0  0  0  0  0
   10.3330   13.5170    9.1680 C   0  0  0  0  0  0  0  0  0  0  0  0
    7.9480   14.0010    9.1100 C   0  0  0  0  0  0  0  0  0  0  0  0
   13.1510   11.3670    8.4820 C   0  0  0  0  0  0  0  0  0  0  0  0
   14.9215    8.1361   10.9636 H   0  0  0  0  0  0  0  0  0  0  0  0
   16.4515    8.9657    6.7160 H   0  0  0  0  0  0  0  0  0  0  0  0
   11.4078   12.0768   10.1365 H   0  0  0  0  0  0  0  0  0  0  0  0
   13.7456   17.9566    8.6869 H   0  0  0  0  0  0  0  0  0  0  0  0
   14.0092   16.6470    9.6262 H   0  0  0  0  0  0  0  0  0  0  0  0
   14.0124   16.4994    7.9999 H   0  0  0  0  0  0  0  0  0  0  0  0
   15.0429    7.7623   13.0232 H   0  0  0  0  0  0  0  0  0  0  0  0
   15.3596    9.0458   13.9819 H   0  0  0  0  0  0  0  0  0  0  0  0
   13.8610    8.3976   13.9538 H   0  0  0  0  0  0  0  0  0  0  0  0
    7.2936   11.5945    9.4053 H   0  0  0  0  0  0  0  0  0  0  0  0
    5.8571   11.8743   10.1299 H   0  0  0  0  0  0  0  0  0  0  0  0
    5.9327   11.6963    8.5084 H   0  0  0  0  0  0  0  0  0  0  0  0
   11.6700   17.1538    9.5756 H   0  0  0  0  0  0  0  0  0  0  0  0
   11.6732   17.0062    7.9493 H   0  0  0  0  0  0  0  0  0  0  0  0
   17.3286    8.3323    1.4454 H   0  0  0  0  0  0  0  0  0  0  0  0
   18.7547    7.5820    3.3694 H   0  0  0  0  0  0  0  0  0  0  0  0
   17.6019    8.1708    5.5123 H   0  0  0  0  0  0  0  0  0  0  0  0
    9.7441   16.7586    8.7138 H   0  0  0  0  0  0  0  0  0  0  0  0
    7.4764   16.0093    8.8351 H   0  0  0  0  0  0  0  0  0  0  0  0
   15.6409    8.5398    8.8608 H   0  0  0  0  0  0  0  0  0  0  0  0
   12.8081   11.0600   10.5139 H   0  0  0  0  0  0  0  0  0  0  0  0
   13.7623   11.3370    6.4897 H   0  0  0  0  0  0  0  0  0  0  0  0
    8.8012   12.1271    9.3707 H   0  0  0  0  0  0  0  0  0  0  0  0
  1 23  2  0  0  0  0
  2 24  2  0  0  0  0
  3 25  2  0  0  0  0
  4 26  2  0  0  0  0
  5 13  1  0  0  0  0
  5 28  1  0  0  0  0
  6 14  1  0  0  0  0
  6 27  1  0  0  0  0
  7 23  1  0  0  0  0
  7 29  1  0  0  0  0
  8 24  1  0  0  0  0
  8 30  1  0  0  0  0
  9 25  1  0  0  0  0
  9 31  1  0  0  0  0
 10 13  1  0  0  0  0
 11 23  1  0  0  0  0
 12 26  1  0  0  0  0
 14 15  2  0  0  0  0
 15 16  1  0  0  0  0
 16 27  2  0  0  0  0
 17 18  1  0  0  0  0
 17 28  2  0  0  0  0
 18 32  2  0  0  0  0
 19 29  2  0  0  0  0
 19 30  1  0  0  0  0
 20 29  1  0  0  0  0
 20 33  2  0  0  0  0
 21 30  2  0  0  0  0
 21 33  1  0  0  0  0
 22 31  2  0  0  0  0
 22 32  1  0  0  0  0
 24 27  1  0  0  0  0
 25 33  1  0  0  0  0
 26 32  1  0  0  0  0
 28 31  1  0  0  0  0
  7 34  1  0  0  0  0
  8 35  1  0  0  0  0
  9 36  1  0  0  0  0
 10 37  1  0  0  0  0
 10 38  1  0  0  0  0
 10 39  1  0  0  0  0
 11 40  1  0  0  0  0
 11 41  1  0  0  0  0
 11 42  1  0  0  0  0
 12 43  1  0  0  0  0
 12 44  1  0  0  0  0
 12 45  1  0  0  0  0
 13 46  1  0  0  0  0
 13 47  1  0  0  0  0
 14 48  1  0  0  0  0
 15 49  1  0  0  0  0
 16 50  1  0  0  0  0
 17 51  1  0  0  0  0
 18 52  1  0  0  0  0
 19 53  1  0  0  0  0
 20 54  1  0  0  0  0
 21 55  1  0  0  0  0
 22 56  1  0  0  0  0
M  END
> <pdb_id>
5NLK

> <uniprot_id>
Q92793

> <usmiles>
O=C(Nc1c(OCC)ccc(c1)C(=O)C)c2cc(NC(=O)C=3OC=CC3)cc(NC(=O)C)c2

$$$$
92O_B_1292
          07202410273D 1   1.00000     0.00000     0
            
 37 39  0  0  0  0            999 V2000
  123.9246  109.9355  -44.7484 N   0  0  0  0  0  0  0  0  0  0  0  0
  125.1457  104.7203  -41.0695 N   0  0  0  0  0  0  0  0  0  0  0  0
  126.8251  101.5991  -41.8229 C   0  0  0  0  0  0  0  0  0  0  0  0
  125.2811  109.7573  -44.2406 C   0  0  0  0  0  0  0  0  0  0  0  0
  122.9108  109.5965  -43.7559 C   0  0  0  0  0  0  0  0  0  0  0  0
  124.9983  106.0663  -41.0776 C   0  0  0  0  0  0  0  0  0  0  0  0
  125.3300  101.7295  -41.8550 C   0  0  0  0  0  0  0  0  0  0  0  0
  124.4423  103.7857  -44.9705 C   0  0  0  0  0  0  0  0  0  0  0  0
  125.4661  108.3340  -43.7954 C   0  0  0  0  0  0  0  0  0  0  0  0
  123.0889  108.1731  -43.3057 C   0  0  0  0  0  0  0  0  0  0  0  0
  124.7358  102.7070  -44.1286 C   0  0  0  0  0  0  0  0  0  0  0  0
  124.4043  105.0866  -44.4839 C   0  0  0  0  0  0  0  0  0  0  0  0
  124.9404  104.2280  -42.3064 C   0  0  0  0  0  0  0  0  0  0  0  0
  124.9929  102.8984  -42.7680 C   0  0  0  0  0  0  0  0  0  0  0  0
  124.4574  107.9302  -42.7708 C   0  0  0  0  0  0  0  0  0  0  0  0
  124.6827  106.4864  -42.3556 C   0  0  0  0  0  0  0  0  0  0  0  0
  124.6516  105.3317  -43.1344 C   0  0  0  0  0  0  0  0  0  0  0  0
  123.8009  109.3474  -45.5476 H   0  0  0  0  0  0  0  0  0  0  0  0
  125.3733  104.1727  -40.2643 H   0  0  0  0  0  0  0  0  0  0  0  0
  127.0805  100.8363  -41.2288 H   0  0  0  0  0  0  0  0  0  0  0  0
  127.1649  101.4294  -42.7479 H   0  0  0  0  0  0  0  0  0  0  0  0
  127.2260  102.4448  -41.4705 H   0  0  0  0  0  0  0  0  0  0  0  0
  125.4301  110.3712  -43.4654 H   0  0  0  0  0  0  0  0  0  0  0  0
  125.9383  109.9685  -44.9641 H   0  0  0  0  0  0  0  0  0  0  0  0
  122.0025  109.7050  -44.1598 H   0  0  0  0  0  0  0  0  0  0  0  0
  123.0007  110.2067  -42.9687 H   0  0  0  0  0  0  0  0  0  0  0  0
  125.1017  106.6635  -40.2822 H   0  0  0  0  0  0  0  0  0  0  0  0
  124.9826  101.9046  -40.9338 H   0  0  0  0  0  0  0  0  0  0  0  0
  124.9215  100.8891  -42.2112 H   0  0  0  0  0  0  0  0  0  0  0  0
  124.2568  103.6174  -45.9386 H   0  0  0  0  0  0  0  0  0  0  0  0
  126.3809  108.2350  -43.4038 H   0  0  0  0  0  0  0  0  0  0  0  0
  125.3769  107.7335  -44.5899 H   0  0  0  0  0  0  0  0  0  0  0  0
  122.9329  107.5653  -44.0843 H   0  0  0  0  0  0  0  0  0  0  0  0
  122.4209  107.9743  -42.5885 H   0  0  0  0  0  0  0  0  0  0  0  0
  124.7622  101.7820  -44.5075 H   0  0  0  0  0  0  0  0  0  0  0  0
  124.1998  105.8461  -45.1013 H   0  0  0  0  0  0  0  0  0  0  0  0
  124.5837  108.5088  -41.9650 H   0  0  0  0  0  0  0  0  0  0  0  0
  1  4  1  0  0  0  0
  1  5  1  0  0  0  0
  2  6  1  0  0  0  0
  2 13  1  0  0  0  0
  3  7  1  0  0  0  0
  4  9  1  0  0  0  0
  5 10  1  0  0  0  0
  6 16  2  0  0  0  0
  7 14  1  0  0  0  0
  8 11  2  0  0  0  0
  8 12  1  0  0  0  0
  9 15  1  0  0  0  0
 10 15  1  0  0  0  0
 11 14  1  0  0  0  0
 12 17  2  0  0  0  0
 13 14  2  0  0  0  0
 13 17  1  0  0  0  0
 15 16  1  0  0  0  0
 16 17  1  0  0  0  0
  1 18  1  0  0  0  0
  2 19  1  0  0  0  0
  3 20  1  0  0  0  0
  3 21  1  0  0  0  0
  3 22  1  0  0  0  0
  4 23  1  0  0  0  0
  4 24  1  0  0  0  0
  5 25  1  0  0  0  0
  5 26  1  0  0  0  0
  6 27  1  0  0  0  0
  7 28  1  0  0  0  0
  7 29  1  0  0  0  0
  8 30  1  0  0  0  0
  9 31  1  0  0  0  0
  9 32  1  0  0  0  0
 10 33  1  0  0  0  0
 10 34  1  0  0  0  0
 11 35  1  0  0  0  0
 12 36  1  0  0  0  0
 15 37  1  0  0  0  0
M  END
> <pdb_id>
5AB9

> <uniprot_id>
P04637

> <usmiles>
N1c2c(cccc2CC)C(=C1)C3CCNCC3

$$$$
92P_A_1383
          07202400143D 1   1.00000     0.00000     0
            
 21 22  0  0  0  0            999 V2000
  -17.6113   29.3676   -2.8054 O   0  0  0  0  0  0  0  0  0  0  0  0
  -17.8201   31.6017   -2.7681 O   0  0  0  0  0  0  0  0  0  0  0  0
  -22.9763   28.7574   -2.9308 N   0  0  0  0  0  0  0  0  0  0  0  0
  -21.9565   30.9578   -2.7523 N   0  0  0  0  0  0  0  0  0  0  0  0
  -16.3850   31.7349   -2.6520 C   0  0  0  0  0  0  0  0  0  0  0  0
  -22.7094   27.4445   -3.0282 C   0  0  0  0  0  0  0  0  0  0  0  0
  -20.6652   31.4086   -2.7046 C   0  0  0  0  0  0  0  0  0  0  0  0
  -21.4271   26.9187   -3.0414 C   0  0  0  0  0  0  0  0  0  0  0  0
  -20.3486   27.7855   -2.9422 C   0  0  0  0  0  0  0  0  0  0  0  0
  -18.3031   30.3574   -2.7689 C   0  0  0  0  0  0  0  0  0  0  0  0
  -21.9249   29.5952   -2.8261 C   0  0  0  0  0  0  0  0  0  0  0  0
  -19.7874   30.3445   -2.7478 C   0  0  0  0  0  0  0  0  0  0  0  0
  -20.6015   29.1512   -2.8274 C   0  0  0  0  0  0  0  0  0  0  0  0
  -22.7787   31.5268   -2.7359 H   0  0  0  0  0  0  0  0  0  0  0  0
  -16.1382   32.7039   -2.6621 H   0  0  0  0  0  0  0  0  0  0  0  0
  -16.0803   31.3223   -1.7935 H   0  0  0  0  0  0  0  0  0  0  0  0
  -15.9439   31.2705   -3.4199 H   0  0  0  0  0  0  0  0  0  0  0  0
  -23.4798   26.8105   -3.0949 H   0  0  0  0  0  0  0  0  0  0  0  0
  -20.3965   32.3701   -2.6469 H   0  0  0  0  0  0  0  0  0  0  0  0
  -21.2820   25.9325   -3.1209 H   0  0  0  0  0  0  0  0  0  0  0  0
  -19.4109   27.4383   -2.9528 H   0  0  0  0  0  0  0  0  0  0  0  0
  1 10  2  0  0  0  0
  2  5  1  0  0  0  0
  2 10  1  0  0  0  0
  3  6  1  0  0  0  0
  3 11  2  0  0  0  0
  4  7  1  0  0  0  0
  4 11  1  0  0  0  0
  6  8  2  0  0  0  0
  7 12  2  0  0  0  0
  8  9  1  0  0  0  0
  9 13  2  0  0  0  0
 10 12  1  0  0  0  0
 11 13  1  0  0  0  0
 12 13  1  0  0  0  0
  4 14  1  0  0  0  0
  5 15  1  0  0  0  0
  5 16  1  0  0  0  0
  5 17  1  0  0  0  0
  6 18  1  0  0  0  0
  7 19  1  0  0  0  0
  8 20  1  0  0  0  0
  9 21  1  0  0  0  0
M  END
> <pdb_id>
3ZLS

> <uniprot_id>
Q02750

> <usmiles>
O=C(OC)C=1c2c(nccc2)NC1

$$$$
930_A_1245
          07192422073D 1   1.00000     0.00000     0
            
 56 60  0  0  0  0            999 V2000
   42.5068   28.7776   12.1978 Cl  0  0  0  0  0  0  0  0  0  0  0  0
   34.5907   27.0169   14.4546 S   0  0  0  0  0  0  0  0  0  0  0  0
   35.9952   30.4898   19.3403 F   0  0  0  0  0  0  0  0  0  0  0  0
   34.5433   25.7345   15.0700 O   0  0  0  0  0  0  0  0  0  0  0  0
   33.8736   27.2498   13.2336 O   0  0  0  0  0  0  0  0  0  0  0  0
   36.1533   29.6509   16.7988 O   0  0  0  0  0  0  0  0  0  0  0  0
   34.0823   27.9809   15.6516 N   0  0  0  0  0  0  0  0  0  0  0  0
   36.2274   35.5864   21.4507 N   0  0  0  0  0  0  0  0  0  0  0  0
   34.4772   31.2175   17.0155 N   0  0  0  0  0  0  0  0  0  0  0  0
   36.4159   34.7183   22.6178 C   0  0  0  0  0  0  0  0  0  0  0  0
   33.1061   31.3941   16.5544 C   0  0  0  0  0  0  0  0  0  0  0  0
   37.8466   34.1663   22.5302 C   0  0  0  0  0  0  0  0  0  0  0  0
   39.8868   29.0466   11.4039 C   0  0  0  0  0  0  0  0  0  0  0  0
   37.2071   26.8591   15.1013 C   0  0  0  0  0  0  0  0  0  0  0  0
   32.7411   30.0526   15.9308 C   0  0  0  0  0  0  0  0  0  0  0  0
   38.3614   34.5528   21.1405 C   0  0  0  0  0  0  0  0  0  0  0  0
   35.0875   33.5210   17.5820 C   0  0  0  0  0  0  0  0  0  0  0  0
   38.5420   28.8549   11.5958 C   0  0  0  0  0  0  0  0  0  0  0  0
   38.5713   27.0567   14.8958 C   0  0  0  0  0  0  0  0  0  0  0  0
   35.7328   34.4501   18.3980 C   0  0  0  0  0  0  0  0  0  0  0  0
   40.3700   27.9250   13.5280 C   0  0  0  0  0  0  0  0  0  0  0  0
   36.6956   27.9799   12.9895 C   0  0  0  0  0  0  0  0  0  0  0  0
   36.5224   32.6848   19.8180 C   0  0  0  0  0  0  0  0  0  0  0  0
   40.7941   28.5727   12.3732 C   0  0  0  0  0  0  0  0  0  0  0  0
   36.3007   27.3309   14.1369 C   0  0  0  0  0  0  0  0  0  0  0  0
   35.8822   31.7727   19.0033 C   0  0  0  0  0  0  0  0  0  0  0  0
   35.0468   30.0874   16.5218 C   0  0  0  0  0  0  0  0  0  0  0  0
   34.0711   29.4330   15.5353 C   0  0  1  0  0  0  0  0  0  0  0  0
   37.1263   35.0823   20.4001 C   0  0  1  0  0  0  0  0  0  0  0  0
   35.1455   32.1500   17.8760 C   0  0  0  0  0  0  0  0  0  0  0  0
   36.4604   34.0509   19.5179 C   0  0  0  0  0  0  0  0  0  0  0  0
   39.0058   27.7204   13.7314 C   0  0  0  0  0  0  0  0  0  0  0  0
   38.0794   28.1945   12.7646 C   0  0  0  0  0  0  0  0  0  0  0  0
   34.6580   27.7699   16.4417 H   0  0  0  0  0  0  0  0  0  0  0  0
   36.4624   36.5305   21.6817 H   0  0  0  0  0  0  0  0  0  0  0  0
   35.7552   33.9679   22.5995 H   0  0  0  0  0  0  0  0  0  0  0  0
   36.3002   35.2439   23.4606 H   0  0  0  0  0  0  0  0  0  0  0  0
   33.0524   32.1264   15.8755 H   0  0  0  0  0  0  0  0  0  0  0  0
   32.4993   31.6050   17.3208 H   0  0  0  0  0  0  0  0  0  0  0  0
   37.8428   33.1718   22.6355 H   0  0  0  0  0  0  0  0  0  0  0  0
   38.4209   34.5744   23.2398 H   0  0  0  0  0  0  0  0  0  0  0  0
   40.2194   29.5168   10.5863 H   0  0  0  0  0  0  0  0  0  0  0  0
   36.8790   26.3895   15.9209 H   0  0  0  0  0  0  0  0  0  0  0  0
   32.1610   30.1841   15.1269 H   0  0  0  0  0  0  0  0  0  0  0  0
   32.2662   29.4737   16.5935 H   0  0  0  0  0  0  0  0  0  0  0  0
   38.7393   33.7554   20.6702 H   0  0  0  0  0  0  0  0  0  0  0  0
   39.0624   35.2626   21.2091 H   0  0  0  0  0  0  0  0  0  0  0  0
   34.5788   33.8347   16.7802 H   0  0  0  0  0  0  0  0  0  0  0  0
   37.8879   29.1801   10.9129 H   0  0  0  0  0  0  0  0  0  0  0  0
   39.2355   26.7306   15.5685 H   0  0  0  0  0  0  0  0  0  0  0  0
   35.6722   35.4230   18.1749 H   0  0  0  0  0  0  0  0  0  0  0  0
   41.0353   27.6097   14.2047 H   0  0  0  0  0  0  0  0  0  0  0  0
   36.0180   28.2950   12.3250 H   0  0  0  0  0  0  0  0  0  0  0  0
   37.0292   32.3706   20.6208 H   0  0  0  0  0  0  0  0  0  0  0  0
   34.3046   29.6999   14.6003 H   0  0  0  0  0  0  0  0  0  0  0  0
   37.4072   35.8531   19.8282 H   0  0  0  0  0  0  0  0  0  0  0  0
  1 24  1  0  0  0  0
  2  4  2  0  0  0  0
  2  5  2  0  0  0  0
  2  7  1  0  0  0  0
  2 25  1  0  0  0  0
  3 26  1  0  0  0  0
  6 27  2  0  0  0  0
  7 28  1  0  0  0  0
  8 10  1  0  0  0  0
  8 29  1  0  0  0  0
  9 11  1  0  0  0  0
  9 27  1  0  0  0  0
  9 30  1  0  0  0  0
 10 12  1  0  0  0  0
 11 15  1  0  0  0  0
 12 16  1  0  0  0  0
 13 18  2  0  0  0  0
 13 24  1  0  0  0  0
 14 19  1  0  0  0  0
 14 25  2  0  0  0  0
 15 28  1  0  0  0  0
 16 29  1  0  0  0  0
 17 20  2  0  0  0  0
 17 30  1  0  0  0  0
 18 33  1  0  0  0  0
 19 32  2  0  0  0  0
 20 31  1  0  0  0  0
 21 24  2  0  0  0  0
 21 32  1  0  0  0  0
 22 25  1  0  0  0  0
 22 33  2  0  0  0  0
 23 26  1  0  0  0  0
 23 31  2  0  0  0  0
 26 30  2  0  0  0  0
 27 28  1  0  0  0  0
 29 31  1  0  0  0  0
 32 33  1  0  0  0  0
  7 34  1  0  0  0  0
  8 35  1  0  0  0  0
 10 36  1  0  0  0  0
 10 37  1  0  0  0  0
 11 38  1  0  0  0  0
 11 39  1  0  0  0  0
 12 40  1  0  0  0  0
 12 41  1  0  0  0  0
 13 42  1  0  0  0  0
 14 43  1  0  0  0  0
 15 44  1  0  0  0  0
 15 45  1  0  0  0  0
 16 46  1  0  0  0  0
 16 47  1  0  0  0  0
 17 48  1  0  0  0  0
 18 49  1  0  0  0  0
 19 50  1  0  0  0  0
 20 51  1  0  0  0  0
 21 52  1  0  0  0  0
 22 53  1  0  0  0  0
 23 54  1  0  0  0  0
 28 55  1  0  0  0  0
 29 56  1  0  0  0  0
M  END
> <pdb_id>
2Y82

> <uniprot_id>
P00742

> <usmiles>
Clc1cc2c(cc(S(=O)(=O)N[C@@H]3C(=O)N(c4c(F)cc(cc4)[C@H]5NCCC5)CC3)cc2)cc1

$$$$
931_A_1244
          07192422073D 1   1.00000     0.00000     0
            
 56 60  0  0  0  0            999 V2000
   42.5653   28.8040   12.2491 Cl  0  0  0  0  0  0  0  0  0  0  0  0
   34.5525   27.1419   14.3491 S   0  0  0  0  0  0  0  0  0  0  0  0
   35.0203   33.8637   17.0869 F   0  0  0  0  0  0  0  0  0  0  0  0
   33.8709   27.5299   13.1594 O   0  0  0  0  0  0  0  0  0  0  0  0
   34.3397   25.8426   14.9009 O   0  0  0  0  0  0  0  0  0  0  0  0
   36.3817   29.5522   16.7544 O   0  0  0  0  0  0  0  0  0  0  0  0
   34.0834   28.0612   15.5768 N   0  0  0  0  0  0  0  0  0  0  0  0
   36.5215   34.9770   22.0439 N   0  0  0  0  0  0  0  0  0  0  0  0
   34.7486   31.1073   17.1764 N   0  0  0  0  0  0  0  0  0  0  0  0
   37.0691   36.3249   22.1731 C   0  0  0  0  0  0  0  0  0  0  0  0
   33.4407   31.4899   16.6298 C   0  0  0  0  0  0  0  0  0  0  0  0
   38.4449   36.3563   21.5116 C   0  0  0  0  0  0  0  0  0  0  0  0
   39.9822   29.1321   11.4880 C   0  0  0  0  0  0  0  0  0  0  0  0
   37.1928   26.8408   15.0280 C   0  0  0  0  0  0  0  0  0  0  0  0
   32.9668   30.2527   15.8849 C   0  0  0  0  0  0  0  0  0  0  0  0
   38.6010   35.0258   20.7923 C   0  0  0  0  0  0  0  0  0  0  0  0
   36.0025   31.1876   19.3260 C   0  0  0  0  0  0  0  0  0  0  0  0
   38.6308   28.9662   11.6550 C   0  0  0  0  0  0  0  0  0  0  0  0
   38.5452   27.0087   14.8510 C   0  0  0  0  0  0  0  0  0  0  0  0
   36.6519   31.9421   20.3083 C   0  0  0  0  0  0  0  0  0  0  0  0
   40.4064   27.9096   13.5364 C   0  0  0  0  0  0  0  0  0  0  0  0
   36.7394   28.0764   12.9963 C   0  0  0  0  0  0  0  0  0  0  0  0
   36.1920   33.9744   19.0967 C   0  0  0  0  0  0  0  0  0  0  0  0
   40.8494   28.5960   12.4319 C   0  0  0  0  0  0  0  0  0  0  0  0
   36.2945   27.3761   14.0898 C   0  0  0  0  0  0  0  0  0  0  0  0
   35.5504   33.2128   18.1315 C   0  0  0  0  0  0  0  0  0  0  0  0
   35.2638   30.0264   16.5534 C   0  0  0  0  0  0  0  0  0  0  0  0
   34.2436   29.5001   15.5412 C   0  0  1  0  0  0  0  0  0  0  0  0
   37.4600   34.1324   21.2899 C   0  0  2  0  0  0  0  0  0  0  0  0
   35.4310   31.8233   18.2159 C   0  0  0  0  0  0  0  0  0  0  0  0
   36.7514   33.3379   20.2087 C   0  0  0  0  0  0  0  0  0  0  0  0
   39.0306   27.7238   13.7301 C   0  0  0  0  0  0  0  0  0  0  0  0
   38.1305   28.2642   12.7828 C   0  0  0  0  0  0  0  0  0  0  0  0
   34.5858   27.7399   16.3795 H   0  0  0  0  0  0  0  0  0  0  0  0
   35.6477   35.0180   21.5593 H   0  0  0  0  0  0  0  0  0  0  0  0
   37.1549   36.5625   23.1407 H   0  0  0  0  0  0  0  0  0  0  0  0
   36.4630   36.9797   21.7216 H   0  0  0  0  0  0  0  0  0  0  0  0
   33.5312   32.2660   16.0056 H   0  0  0  0  0  0  0  0  0  0  0  0
   32.8051   31.7258   17.3649 H   0  0  0  0  0  0  0  0  0  0  0  0
   39.1595   36.4623   22.2030 H   0  0  0  0  0  0  0  0  0  0  0  0
   38.4982   37.1116   20.8585 H   0  0  0  0  0  0  0  0  0  0  0  0
   40.3381   29.6317   10.6982 H   0  0  0  0  0  0  0  0  0  0  0  0
   36.8492   26.3392   15.8220 H   0  0  0  0  0  0  0  0  0  0  0  0
   32.4730   30.5084   15.0538 H   0  0  0  0  0  0  0  0  0  0  0  0
   32.3742   29.6956   16.4667 H   0  0  0  0  0  0  0  0  0  0  0  0
   39.4850   34.6140   21.0135 H   0  0  0  0  0  0  0  0  0  0  0  0
   38.5323   35.1566   19.8033 H   0  0  0  0  0  0  0  0  0  0  0  0
   35.9461   30.1933   19.4160 H   0  0  0  0  0  0  0  0  0  0  0  0
   37.9957   29.3412   10.9797 H   0  0  0  0  0  0  0  0  0  0  0  0
   39.1872   26.6252   15.5149 H   0  0  0  0  0  0  0  0  0  0  0  0
   37.0533   31.4773   21.0975 H   0  0  0  0  0  0  0  0  0  0  0  0
   41.0614   27.5449   14.1981 H   0  0  0  0  0  0  0  0  0  0  0  0
   36.0806   28.4561   12.3469 H   0  0  0  0  0  0  0  0  0  0  0  0
   36.2537   34.9677   18.9985 H   0  0  0  0  0  0  0  0  0  0  0  0
   34.5359   29.7675   14.6230 H   0  0  0  0  0  0  0  0  0  0  0  0
   37.8538   33.4758   21.9332 H   0  0  0  0  0  0  0  0  0  0  0  0
  1 24  1  0  0  0  0
  2  4  2  0  0  0  0
  2  5  2  0  0  0  0
  2  7  1  0  0  0  0
  2 25  1  0  0  0  0
  3 26  1  0  0  0  0
  6 27  2  0  0  0  0
  7 28  1  0  0  0  0
  8 10  1  0  0  0  0
  8 29  1  0  0  0  0
  9 11  1  0  0  0  0
  9 27  1  0  0  0  0
  9 30  1  0  0  0  0
 10 12  1  0  0  0  0
 11 15  1  0  0  0  0
 12 16  1  0  0  0  0
 13 18  2  0  0  0  0
 13 24  1  0  0  0  0
 14 19  1  0  0  0  0
 14 25  2  0  0  0  0
 15 28  1  0  0  0  0
 16 29  1  0  0  0  0
 17 20  2  0  0  0  0
 17 30  1  0  0  0  0
 18 33  1  0  0  0  0
 19 32  2  0  0  0  0
 20 31  1  0  0  0  0
 21 24  2  0  0  0  0
 21 32  1  0  0  0  0
 22 25  1  0  0  0  0
 22 33  2  0  0  0  0
 23 26  1  0  0  0  0
 23 31  2  0  0  0  0
 26 30  2  0  0  0  0
 27 28  1  0  0  0  0
 29 31  1  0  0  0  0
 32 33  1  0  0  0  0
  7 34  1  0  0  0  0
  8 35  1  0  0  0  0
 10 36  1  0  0  0  0
 10 37  1  0  0  0  0
 11 38  1  0  0  0  0
 11 39  1  0  0  0  0
 12 40  1  0  0  0  0
 12 41  1  0  0  0  0
 13 42  1  0  0  0  0
 14 43  1  0  0  0  0
 15 44  1  0  0  0  0
 15 45  1  0  0  0  0
 16 46  1  0  0  0  0
 16 47  1  0  0  0  0
 17 48  1  0  0  0  0
 18 49  1  0  0  0  0
 19 50  1  0  0  0  0
 20 51  1  0  0  0  0
 21 52  1  0  0  0  0
 22 53  1  0  0  0  0
 23 54  1  0  0  0  0
 28 55  1  0  0  0  0
 29 56  1  0  0  0  0
M  END
> <pdb_id>
2Y81

> <uniprot_id>
P00742

> <usmiles>
Clc1cc2c(cc(S(=O)(=O)N[C@@H]3C(=O)N(c4c(F)cc(cc4)[C@@H]5NCCC5)CC3)cc2)cc1

$$$$
933_A_1202
          07192419483D 1   1.00000     0.00000     0
            
 43 45  0  0  0  0            999 V2000
   15.6793   22.4615   30.3565 O   0  0  0  0  0  0  0  0  0  0  0  0
   21.2601   21.3433   28.7310 N   0  0  0  0  0  0  0  0  0  0  0  0
   19.4471   20.4369   30.1820 N   0  0  0  0  0  0  0  0  0  0  0  0
   16.6456   23.8263   28.8392 N   0  0  0  0  0  0  0  0  0  0  0  0
   19.4219   23.2745   28.1302 N   0  0  0  0  0  0  0  0  0  0  0  0
   15.9467   26.1731   28.7539 C   0  0  0  0  0  0  0  0  0  0  0  0
   14.5166   22.9445   27.0949 C   0  0  0  0  0  0  0  0  0  0  0  0
   13.7141   25.2625   26.8738 C   0  0  0  0  0  0  0  0  0  0  0  0
   15.9974   24.6681   26.0853 C   0  0  0  0  0  0  0  0  0  0  0  0
   21.5563   22.3221   27.8901 C   0  0  0  0  0  0  0  0  0  0  0  0
   18.1685   20.8397   30.4373 C   0  0  0  0  0  0  0  0  0  0  0  0
   19.9477   24.9044   25.6169 C   0  0  0  0  0  0  0  0  0  0  0  0
   20.3468   25.7758   26.8143 C   0  0  0  0  0  0  0  0  0  0  0  0
   16.6534   22.7666   29.6858 C   0  0  0  0  0  0  0  0  0  0  0  0
   20.0504   21.2956   29.2939 C   0  0  0  0  0  0  0  0  0  0  0  0
   15.4986   24.7116   28.5953 C   0  0  1  0  0  0  0  0  0  0  0  0
   20.6221   23.3047   27.5727 C   0  0  0  0  0  0  0  0  0  0  0  0
   19.1074   22.3009   28.9774 C   0  0  0  0  0  0  0  0  0  0  0  0
   21.0009   24.4074   26.6131 C   0  0  0  0  0  0  0  0  0  0  0  0
   17.8939   21.9843   29.7412 C   0  0  0  0  0  0  0  0  0  0  0  0
   14.9509   24.4144   27.1784 C   0  0  0  0  0  0  0  0  0  0  0  0
   19.8831   19.6316   30.5837 H   0  0  0  0  0  0  0  0  0  0  0  0
   17.4899   24.0211   28.3401 H   0  0  0  0  0  0  0  0  0  0  0  0
   15.1692   26.7799   28.5888 H   0  0  0  0  0  0  0  0  0  0  0  0
   16.2910   26.3174   29.6816 H   0  0  0  0  0  0  0  0  0  0  0  0
   16.6715   26.3730   28.0946 H   0  0  0  0  0  0  0  0  0  0  0  0
   15.3001   22.3539   27.2886 H   0  0  0  0  0  0  0  0  0  0  0  0
   13.7951   22.7715   27.7653 H   0  0  0  0  0  0  0  0  0  0  0  0
   14.1718   22.7504   26.1765 H   0  0  0  0  0  0  0  0  0  0  0  0
   13.9555   26.2319   26.9182 H   0  0  0  0  0  0  0  0  0  0  0  0
   13.3777   25.0443   25.9578 H   0  0  0  0  0  0  0  0  0  0  0  0
   13.0009   25.0654   27.5466 H   0  0  0  0  0  0  0  0  0  0  0  0
   16.2939   25.6224   26.1229 H   0  0  0  0  0  0  0  0  0  0  0  0
   16.7843   24.0686   26.2316 H   0  0  0  0  0  0  0  0  0  0  0  0
   15.5961   24.4788   25.1892 H   0  0  0  0  0  0  0  0  0  0  0  0
   22.4659   22.3563   27.4761 H   0  0  0  0  0  0  0  0  0  0  0  0
   17.5278   20.3682   31.0432 H   0  0  0  0  0  0  0  0  0  0  0  0
   20.2198   25.1700   24.6920 H   0  0  0  0  0  0  0  0  0  0  0  0
   19.0444   24.4764   25.5886 H   0  0  0  0  0  0  0  0  0  0  0  0
   19.7034   25.9166   27.5667 H   0  0  0  0  0  0  0  0  0  0  0  0
   20.8788   26.6102   26.6701 H   0  0  0  0  0  0  0  0  0  0  0  0
   14.7858   24.5144   29.2683 H   0  0  0  0  0  0  0  0  0  0  0  0
   21.9489   24.4117   26.2949 H   0  0  0  0  0  0  0  0  0  0  0  0
  1 14  2  0  0  0  0
  2 10  1  0  0  0  0
  2 15  2  0  0  0  0
  3 11  1  0  0  0  0
  3 15  1  0  0  0  0
  4 14  1  0  0  0  0
  4 16  1  0  0  0  0
  5 17  1  0  0  0  0
  5 18  2  0  0  0  0
  6 16  1  0  0  0  0
  7 21  1  0  0  0  0
  8 21  1  0  0  0  0
  9 21  1  0  0  0  0
 10 17  2  0  0  0  0
 11 20  2  0  0  0  0
 12 13  1  0  0  0  0
 12 19  1  0  0  0  0
 13 19  1  0  0  0  0
 14 20  1  0  0  0  0
 15 18  1  0  0  0  0
 16 21  1  0  0  0  0
 17 19  1  0  0  0  0
 18 20  1  0  0  0  0
  3 22  1  0  0  0  0
  4 23  1  0  0  0  0
  6 24  1  0  0  0  0
  6 25  1  0  0  0  0
  6 26  1  0  0  0  0
  7 27  1  0  0  0  0
  7 28  1  0  0  0  0
  7 29  1  0  0  0  0
  8 30  1  0  0  0  0
  8 31  1  0  0  0  0
  8 32  1  0  0  0  0
  9 33  1  0  0  0  0
  9 34  1  0  0  0  0
  9 35  1  0  0  0  0
 10 36  1  0  0  0  0
 11 37  1  0  0  0  0
 12 38  1  0  0  0  0
 12 39  1  0  0  0  0
 13 40  1  0  0  0  0
 13 41  1  0  0  0  0
 16 42  1  0  0  0  0
 19 43  1  0  0  0  0
M  END
> <pdb_id>
4HVD

> <uniprot_id>
P52333

> <usmiles>
O=C(N[C@H](C(C)(C)C)C)C=1c2nc(cnc2NC1)C3CC3

$$$$
94D_D_401
          07212401293D 1   1.00000     0.00000     0
            
 34 35  0  0  0  0            999 V2000
   25.3067  -15.1172   31.2142 S   0  0  0  0  0  0  0  0  0  0  0  0
   26.2935  -11.0403   37.4493 P   0  0  0  0  0  0  0  0  0  0  0  0
   25.3607  -10.8431   38.6929 O   0  0  0  0  0  0  0  0  0  0  0  0
   27.7804  -11.0520   37.7667 O   0  0  0  0  0  0  0  0  0  0  0  0
   26.0926  -10.0763   36.3180 O   0  0  0  0  0  0  0  0  0  0  0  0
   25.8379  -12.7075   35.2878 O   0  0  0  0  0  0  0  0  0  0  0  0
   25.0816  -12.5547   30.4646 N   0  0  0  0  0  0  0  0  0  0  0  0
   25.2946  -13.0696   32.7293 N   0  0  0  0  0  0  0  0  0  0  0  0
   27.8508  -17.2038   32.5800 C   0  0  0  0  0  0  0  0  0  0  0  0
   26.3714  -19.1166   33.2848 C   0  0  0  0  0  0  0  0  0  0  0  0
   25.6421  -13.8997   37.1532 C   0  0  0  0  0  0  0  0  0  0  0  0
   25.4069  -14.7427   36.0489 C   0  0  0  0  0  0  0  0  0  0  0  0
   25.6044  -16.7392   33.5335 C   0  0  0  0  0  0  0  0  0  0  0  0
   25.2206  -13.4200   31.4791 C   0  0  0  0  0  0  0  0  0  0  0  0
   25.8910  -12.6920   36.6257 C   0  0  0  0  0  0  0  0  0  0  0  0
   25.4627  -15.3572   32.9310 C   0  0  0  0  0  0  0  0  0  0  0  0
   25.5352  -13.9750   34.9423 C   0  0  0  0  0  0  0  0  0  0  0  0
   26.4248  -17.7004   32.7079 C   0  0  0  0  0  0  0  0  0  0  0  0
   25.4320  -14.1894   33.5370 C   0  0  0  0  0  0  0  0  0  0  0  0
   24.4054  -10.8477   38.3971 H   0  0  0  0  0  0  0  0  0  0  0  0
   28.3004  -11.1818   36.9224 H   0  0  0  0  0  0  0  0  0  0  0  0
   25.0343  -11.5728   30.6479 H   0  0  0  0  0  0  0  0  0  0  0  0
   25.0253  -12.8912   29.5246 H   0  0  0  0  0  0  0  0  0  0  0  0
   27.8487  -16.2784   32.2010 H   0  0  0  0  0  0  0  0  0  0  0  0
   28.2824  -17.1937   33.4820 H   0  0  0  0  0  0  0  0  0  0  0  0
   28.3622  -17.8117   31.9725 H   0  0  0  0  0  0  0  0  0  0  0  0
   25.4186  -19.4121   33.3554 H   0  0  0  0  0  0  0  0  0  0  0  0
   26.8702  -19.7406   32.6833 H   0  0  0  0  0  0  0  0  0  0  0  0
   26.7904  -19.1227   34.1927 H   0  0  0  0  0  0  0  0  0  0  0  0
   25.6268  -14.1483   38.1217 H   0  0  0  0  0  0  0  0  0  0  0  0
   25.1878  -15.7180   36.0776 H   0  0  0  0  0  0  0  0  0  0  0  0
   24.6892  -17.1263   33.6461 H   0  0  0  0  0  0  0  0  0  0  0  0
   26.0395  -16.6465   34.4291 H   0  0  0  0  0  0  0  0  0  0  0  0
   26.0284  -17.7297   31.7902 H   0  0  0  0  0  0  0  0  0  0  0  0
  1 14  1  0  0  0  0
  1 16  1  0  0  0  0
  2  3  1  0  0  0  0
  2  4  1  0  0  0  0
  2  5  2  0  0  0  0
  2 15  1  0  0  0  0
  6 15  1  0  0  0  0
  6 17  1  0  0  0  0
  7 14  1  0  0  0  0
  8 14  2  0  0  0  0
  8 19  1  0  0  0  0
  9 18  1  0  0  0  0
 10 18  1  0  0  0  0
 11 12  1  0  0  0  0
 11 15  2  0  0  0  0
 12 17  2  0  0  0  0
 13 16  1  0  0  0  0
 13 18  1  0  0  0  0
 16 19  2  0  0  0  0
 17 19  1  0  0  0  0
  3 20  1  0  0  0  0
  4 21  1  0  0  0  0
  7 22  1  0  0  0  0
  7 23  1  0  0  0  0
  9 24  1  0  0  0  0
  9 25  1  0  0  0  0
  9 26  1  0  0  0  0
 10 27  1  0  0  0  0
 10 28  1  0  0  0  0
 10 29  1  0  0  0  0
 11 30  1  0  0  0  0
 12 31  1  0  0  0  0
 13 32  1  0  0  0  0
 13 33  1  0  0  0  0
 18 34  1  0  0  0  0
M  END
> <pdb_id>
5PZU

> <uniprot_id>
Q2TU34

> <usmiles>
S1C(=NC(=C1CC(C)C)C=2OC(P(=O)(O)O)=CC2)N

$$$$
950_A_246
          07192419343D 1   1.00000     0.00000     0
            
 45 47  0  0  0  0            999 V2000
   44.5941   17.2535   51.2727 F   0  0  0  0  0  0  0  0  0  0  0  0
   44.4503   23.1339   47.3746 O   0  0  0  0  0  0  0  0  0  0  0  0
   44.6807   25.5564   46.1046 O   0  0  0  0  0  0  0  0  0  0  0  0
   47.2751   18.4150   54.2742 N   0  0  0  0  0  0  0  0  0  0  0  0
   46.4691   16.7245   53.0116 N   0  3  0  0  0  0  0  0  0  0  0  0
   46.7934   22.2285   50.7577 N   0  0  0  0  0  0  0  0  0  0  0  0
   45.2519   21.5858   49.3367 N   0  0  0  0  0  0  0  0  0  0  0  0
   45.1568   26.9546   42.6477 C   0  0  0  0  0  0  0  0  0  0  0  0
   43.8767   25.0133   43.4669 C   0  0  0  0  0  0  0  0  0  0  0  0
   47.0142   26.0191   48.8917 C   0  0  0  0  0  0  0  0  0  0  0  0
   46.2550   26.2777   47.7743 C   0  0  0  0  0  0  0  0  0  0  0  0
   46.9510   24.7803   49.5299 C   0  0  0  0  0  0  0  0  0  0  0  0
   44.8457   19.3753   50.2173 C   0  0  0  0  0  0  0  0  0  0  0  0
   46.8117   20.1825   52.0279 C   0  0  0  0  0  0  0  0  0  0  0  0
   44.8716   26.6739   45.2090 C   0  0  0  0  0  0  0  0  0  0  0  0
   45.2469   18.5004   51.2225 C   0  0  0  0  0  0  0  0  0  0  0  0
   46.6715   17.9978   53.1804 C   0  0  0  0  0  0  0  0  0  0  0  0
   45.3293   24.0604   47.8909 C   0  0  0  0  0  0  0  0  0  0  0  0
   45.4092   25.3085   47.2600 C   0  0  0  0  0  0  0  0  0  0  0  0
   46.0577   22.5362   49.6994 C   0  0  0  0  0  0  0  0  0  0  0  0
   46.3708   21.0131   51.0067 C   0  0  0  0  0  0  0  0  0  0  0  0
   45.4275   20.6090   50.1484 C   0  0  0  0  0  0  0  0  0  0  0  0
   46.2482   18.8860   52.1544 C   0  0  0  0  0  0  0  0  0  0  0  0
   46.1083   23.7805   49.0407 C   0  0  0  0  0  0  0  0  0  0  0  0
   44.1893   26.4649   43.7627 C   0  0  0  0  0  0  0  0  0  0  0  0
   47.4912   19.4015   54.3432 H   0  0  0  0  0  0  0  0  0  0  0  0
   47.5936   17.8551   55.0358 H   0  0  0  0  0  0  0  0  0  0  0  0
   46.0958   16.3904   52.1406 H   0  0  0  0  0  0  0  0  0  0  0  0
   46.7356   16.0417   53.6867 H   0  0  0  0  0  0  0  0  0  0  0  0
   44.6456   21.6788   48.5560 H   0  0  0  0  0  0  0  0  0  0  0  0
   44.6734   26.9264   41.6800 H   0  0  0  0  0  0  0  0  0  0  0  0
   45.4743   27.9668   42.8421 H   0  0  0  0  0  0  0  0  0  0  0  0
   46.0310   26.3190   42.6164 H   0  0  0  0  0  0  0  0  0  0  0  0
   43.0158   24.6781   44.0283 H   0  0  0  0  0  0  0  0  0  0  0  0
   43.6708   24.8917   42.4130 H   0  0  0  0  0  0  0  0  0  0  0  0
   44.7261   24.4028   43.7213 H   0  0  0  0  0  0  0  0  0  0  0  0
   47.6662   26.7886   49.2739 H   0  0  0  0  0  0  0  0  0  0  0  0
   46.3245   27.2476   47.3043 H   0  0  0  0  0  0  0  0  0  0  0  0
   47.5612   24.6007   50.4020 H   0  0  0  0  0  0  0  0  0  0  0  0
   44.0860   19.0962   49.5037 H   0  0  0  0  0  0  0  0  0  0  0  0
   47.5752   20.5314   52.7090 H   0  0  0  0  0  0  0  0  0  0  0  0
   44.4143   27.5446   45.6608 H   0  0  0  0  0  0  0  0  0  0  0  0
   45.9305   26.8539   45.0987 H   0  0  0  0  0  0  0  0  0  0  0  0
   43.2709   27.0312   43.6831 H   0  0  0  0  0  0  0  0  0  0  0  0
   44.3671   22.2325   47.7996 H   0  0  0  0  0  0  0  0  0  0  0  0
  1 16  1  0  0  0  0
  2 18  1  0  0  0  0
  3 15  1  0  0  0  0
  3 19  1  0  0  0  0
  4 17  1  0  0  0  0
  4 26  1  0  0  0  0
  4 27  1  0  0  0  0
  5 17  2  0  0  0  0
  5 28  1  0  0  0  0
  5 29  1  0  0  0  0
  6 20  2  0  0  0  0
  6 21  1  0  0  0  0
  7 20  1  0  0  0  0
  7 22  1  0  0  0  0
  7 30  1  0  0  0  0
  8 25  1  0  0  0  0
  8 31  1  0  0  0  0
  8 32  1  0  0  0  0
  8 33  1  0  0  0  0
  9 25  1  0  0  0  0
  9 34  1  0  0  0  0
  9 35  1  0  0  0  0
  9 36  1  0  0  0  0
 10 11  2  0  0  0  0
 10 12  1  0  0  0  0
 10 37  1  0  0  0  0
 11 19  1  0  0  0  0
 11 38  1  0  0  0  0
 12 24  2  0  0  0  0
 12 39  1  0  0  0  0
 13 16  1  0  0  0  0
 13 22  2  0  0  0  0
 13 40  1  0  0  0  0
 14 21  2  0  0  0  0
 14 23  1  0  0  0  0
 14 41  1  0  0  0  0
 15 25  1  0  0  0  0
 15 42  1  0  0  0  0
 15 43  1  0  0  0  0
 16 23  2  0  0  0  0
 17 23  1  0  0  0  0
 18 19  2  0  0  0  0
 18 24  1  0  0  0  0
 20 24  1  0  0  0  0
 21 22  1  0  0  0  0
 25 44  1  0  0  0  0
  2 45  1  0  0  0  0
M  CHG  1   5   1
M  END
> <pdb_id>
1O2O

> <uniprot_id>
P00760

> <usmiles>
Fc1c(cc2N=C(Nc2c1)c3c(O)c(OCC(C)C)ccc3)C(=[NH2+])N

$$$$
953_A_2132
          07202414163D 1   1.00000     0.00000     0
            
 37 39  0  0  0  0            999 V2000
   55.2447  -10.6312   27.5417 Cl  0  0  0  0  0  0  0  0  0  0  0  0
   55.4347   -4.1644   28.7094 F   0  0  0  0  0  0  0  0  0  0  0  0
   54.6354   -4.3086   26.8300 F   0  0  0  0  0  0  0  0  0  0  0  0
   56.8055   -4.3693   26.9734 F   0  0  0  0  0  0  0  0  0  0  0  0
   57.3089   -9.5769   32.3152 O   0  0  0  0  0  0  0  0  0  0  0  0
   57.3517   -8.1451   30.6851 N   0  0  0  0  0  0  0  0  0  0  0  0
   48.7972  -11.3628   29.8403 N   0  0  0  0  0  0  0  0  0  0  0  0
   49.5584  -12.0650   32.0227 N   0  0  0  0  0  0  0  0  0  0  0  0
   50.8948  -10.7437   30.6096 N   0  0  0  0  0  0  0  0  0  0  0  0
   53.2854   -9.4467   29.9907 N   0  0  0  0  0  0  0  0  0  0  0  0
   50.5217  -12.0674   32.9726 C   0  0  0  0  0  0  0  0  0  0  0  0
   55.8940   -8.2825   26.4318 C   0  0  0  0  0  0  0  0  0  0  0  0
   51.7121  -11.4200   32.7691 C   0  0  0  0  0  0  0  0  0  0  0  0
   55.9410   -6.9450   26.4464 C   0  0  0  0  0  0  0  0  0  0  0  0
   54.3162  -10.0130   31.9391 C   0  0  0  0  0  0  0  0  0  0  0  0
   55.1426   -6.8455   28.7707 C   0  0  0  0  0  0  0  0  0  0  0  0
   55.4444   -8.9086   27.5899 C   0  0  0  0  0  0  0  0  0  0  0  0
   56.6941   -8.9847   31.4018 C   0  0  0  0  0  0  0  0  0  0  0  0
   49.7491  -11.4201   30.8326 C   0  0  0  0  0  0  0  0  0  0  0  0
   51.8760  -10.7620   31.5667 C   0  0  0  0  0  0  0  0  0  0  0  0
   53.1087  -10.0602   31.1947 C   0  0  0  0  0  0  0  0  0  0  0  0
   54.5669   -8.9248   29.9551 C   0  0  0  0  0  0  0  0  0  0  0  0
   55.5854   -6.2309   27.6141 C   0  0  0  0  0  0  0  0  0  0  0  0
   55.0882   -8.2152   28.7739 C   0  0  0  0  0  0  0  0  0  0  0  0
   55.2220   -9.2903   31.1511 C   0  0  0  0  0  0  0  0  0  0  0  0
   55.6690   -4.7361   27.5449 C   0  0  0  0  0  0  0  0  0  0  0  0
   56.8934   -7.6524   29.9453 H   0  0  0  0  0  0  0  0  0  0  0  0
   58.3218   -7.9843   30.8671 H   0  0  0  0  0  0  0  0  0  0  0  0
   48.9915  -10.8763   28.9885 H   0  0  0  0  0  0  0  0  0  0  0  0
   47.9112  -11.8076   29.9711 H   0  0  0  0  0  0  0  0  0  0  0  0
   52.6064   -9.3843   29.2592 H   0  0  0  0  0  0  0  0  0  0  0  0
   50.3629  -12.5481   33.8350 H   0  0  0  0  0  0  0  0  0  0  0  0
   56.1693   -8.8072   25.6262 H   0  0  0  0  0  0  0  0  0  0  0  0
   52.4323  -11.4241   33.4629 H   0  0  0  0  0  0  0  0  0  0  0  0
   56.2290   -6.4483   25.6276 H   0  0  0  0  0  0  0  0  0  0  0  0
   54.4856  -10.4129   32.8399 H   0  0  0  0  0  0  0  0  0  0  0  0
   54.8730   -6.3124   29.5725 H   0  0  0  0  0  0  0  0  0  0  0  0
  1 17  1  0  0  0  0
  2 26  1  0  0  0  0
  3 26  1  0  0  0  0
  4 26  1  0  0  0  0
  5 18  2  0  0  0  0
  6 18  1  0  0  0  0
  7 19  1  0  0  0  0
  8 11  1  0  0  0  0
  8 19  2  0  0  0  0
  9 19  1  0  0  0  0
  9 20  2  0  0  0  0
 10 21  1  0  0  0  0
 10 22  1  0  0  0  0
 11 13  2  0  0  0  0
 12 14  2  0  0  0  0
 12 17  1  0  0  0  0
 13 20  1  0  0  0  0
 14 23  1  0  0  0  0
 15 21  2  0  0  0  0
 15 25  1  0  0  0  0
 16 23  2  0  0  0  0
 16 24  1  0  0  0  0
 17 24  2  0  0  0  0
 18 25  1  0  0  0  0
 20 21  1  0  0  0  0
 22 24  1  0  0  0  0
 22 25  2  0  0  0  0
 23 26  1  0  0  0  0
  6 27  1  0  0  0  0
  6 28  1  0  0  0  0
  7 29  1  0  0  0  0
  7 30  1  0  0  0  0
 10 31  1  0  0  0  0
 11 32  1  0  0  0  0
 12 33  1  0  0  0  0
 13 34  1  0  0  0  0
 14 35  1  0  0  0  0
 15 36  1  0  0  0  0
 16 37  1  0  0  0  0
M  END
> <pdb_id>
4D0X

> <uniprot_id>
O60674

> <usmiles>
Clc1c(cc(cc1)C(F)(F)F)C=2NC(c3nc(ncc3)N)=CC2C(=O)N

$$$$
954_B_501
          07202405583D 1   1.00000     0.00000     0
            
 47 50  0  0  0  0            999 V2000
   62.2797   51.1168   13.7044 S   0  0  0  0  0  0  0  0  0  0  0  0
   69.5885   48.9039    7.0734 S   0  0  0  0  0  0  0  0  0  0  0  0
   62.8805   53.9597   13.2584 F   0  0  0  0  0  0  0  0  0  0  0  0
   67.3293   46.3456   10.4539 O   0  0  0  0  0  0  0  0  0  0  0  0
   72.8318   47.9203    5.5878 N   0  0  0  0  0  0  0  0  0  0  0  0
   65.8552   48.2136    6.5047 N   0  0  0  0  0  0  0  0  0  0  0  0
   64.4796   50.9134   12.1629 N   0  0  0  0  0  0  0  0  0  0  0  0
   65.7468   52.8111   11.4069 N   0  0  0  0  0  0  0  0  0  0  0  0
   66.9671   49.5389    7.9997 N   0  0  0  0  0  0  0  0  0  0  0  0
   66.3659   50.6611   10.8071 N   0  0  0  0  0  0  0  0  0  0  0  0
   66.7478   47.2210    8.4362 N   0  0  0  0  0  0  0  0  0  0  0  0
   62.5882   49.3421   13.7101 C   0  0  0  0  0  0  0  0  0  0  0  0
   66.4638   45.8738    7.9308 C   0  0  0  0  0  0  0  0  0  0  0  0
   65.1702   55.1023   11.9538 C   0  0  0  0  0  0  0  0  0  0  0  0
   72.1676   48.3542    6.4093 C   0  0  0  0  0  0  0  0  0  0  0  0
   66.2616   49.2107   10.9136 C   0  0  0  0  0  0  0  0  0  0  0  0
   67.4711   51.0731    9.9445 C   0  0  0  0  0  0  0  0  0  0  0  0
   71.5709   49.4027    8.6126 C   0  0  0  0  0  0  0  0  0  0  0  0
   70.4214   49.7926    9.3302 C   0  0  0  0  0  0  0  0  0  0  0  0
   63.6406   51.7388   12.7903 C   0  0  0  0  0  0  0  0  0  0  0  0
   71.2801   48.8861    7.3678 C   0  0  0  0  0  0  0  0  0  0  0  0
   66.5018   48.3442    7.6294 C   0  0  0  0  0  0  0  0  0  0  0  0
   69.2465   49.5768    8.6490 C   0  0  0  0  0  0  0  0  0  0  0  0
   67.2230   47.3151    9.7323 C   0  0  0  0  0  0  0  0  0  0  0  0
   65.5061   51.4942   11.4835 C   0  0  0  0  0  0  0  0  0  0  0  0
   63.7866   53.1196   12.7331 C   0  0  0  0  0  0  0  0  0  0  0  0
   64.8873   53.6295   12.0307 C   0  0  0  0  0  0  0  0  0  0  0  0
   67.5488   48.6948   10.2531 C   0  0  1  0  0  0  0  0  0  0  0  0
   67.8421   49.7459    9.1591 C   0  0  2  0  0  0  0  0  0  0  0  0
   65.5074   47.3175    6.2291 H   0  0  0  0  0  0  0  0  0  0  0  0
   65.7072   49.0096    5.9177 H   0  0  0  0  0  0  0  0  0  0  0  0
   61.8594   48.8786   14.2141 H   0  0  0  0  0  0  0  0  0  0  0  0
   62.6095   49.0044   12.7690 H   0  0  0  0  0  0  0  0  0  0  0  0
   63.4671   49.1579   14.1502 H   0  0  0  0  0  0  0  0  0  0  0  0
   66.6964   45.1991    8.6313 H   0  0  0  0  0  0  0  0  0  0  0  0
   65.4920   45.8000    7.7065 H   0  0  0  0  0  0  0  0  0  0  0  0
   67.0092   45.7039    7.1100 H   0  0  0  0  0  0  0  0  0  0  0  0
   64.4642   55.6039   12.4537 H   0  0  0  0  0  0  0  0  0  0  0  0
   66.0643   55.2916   12.3597 H   0  0  0  0  0  0  0  0  0  0  0  0
   65.1706   55.3921   10.9967 H   0  0  0  0  0  0  0  0  0  0  0  0
   65.4542   48.8760   10.4277 H   0  0  0  0  0  0  0  0  0  0  0  0
   66.2156   48.9272   11.8714 H   0  0  0  0  0  0  0  0  0  0  0  0
   68.2467   51.3962   10.4868 H   0  0  0  0  0  0  0  0  0  0  0  0
   67.1827   51.7932    9.3133 H   0  0  0  0  0  0  0  0  0  0  0  0
   72.5007   49.4917    8.9696 H   0  0  0  0  0  0  0  0  0  0  0  0
   70.4572   50.1886   10.2478 H   0  0  0  0  0  0  0  0  0  0  0  0
   68.2962   48.6558   10.9163 H   0  0  0  0  0  0  0  0  0  0  0  0
  1 12  1  0  0  0  0
  1 20  1  0  0  0  0
  2 21  1  0  0  0  0
  2 23  1  0  0  0  0
  3 26  1  0  0  0  0
  4 24  2  0  0  0  0
  5 15  3  0  0  0  0
  6 22  1  0  0  0  0
  7 20  2  0  0  0  0
  7 25  1  0  0  0  0
  8 25  2  0  0  0  0
  8 27  1  0  0  0  0
  9 22  2  0  0  0  0
  9 29  1  0  0  0  0
 10 16  1  0  0  0  0
 10 17  1  0  0  0  0
 10 25  1  0  0  0  0
 11 13  1  0  0  0  0
 11 22  1  0  0  0  0
 11 24  1  0  0  0  0
 14 27  1  0  0  0  0
 15 21  1  0  0  0  0
 16 28  1  0  0  0  0
 17 29  1  0  0  0  0
 18 19  1  0  0  0  0
 18 21  2  0  0  0  0
 19 23  2  0  0  0  0
 20 26  1  0  0  0  0
 23 29  1  0  0  0  0
 24 28  1  0  0  0  0
 26 27  2  0  0  0  0
 28 29  1  0  0  0  0
  6 30  1  0  0  0  0
  6 31  1  0  0  0  0
 12 32  1  0  0  0  0
 12 33  1  0  0  0  0
 12 34  1  0  0  0  0
 13 35  1  0  0  0  0
 13 36  1  0  0  0  0
 13 37  1  0  0  0  0
 14 38  1  0  0  0  0
 14 39  1  0  0  0  0
 14 40  1  0  0  0  0
 16 41  1  0  0  0  0
 16 42  1  0  0  0  0
 17 43  1  0  0  0  0
 17 44  1  0  0  0  0
 18 45  1  0  0  0  0
 19 46  1  0  0  0  0
 28 47  1  0  0  0  0
M  END
> <pdb_id>
5HDZ

> <uniprot_id>
P56817

> <usmiles>
S1C(C#N)=CC=C1[C@@]23N=C(N(C(=O)[C@@H]2CN(c4nc(SC)c(F)c(n4)C)C3)C)N

$$$$
95B_B_402
          07192420423D 1   1.00000     0.00000     0
            
 52 53  0  0  0  0            999 V2000
   18.8710   41.8980   31.0580 O   0  0  0  0  0  0  0  0  0  0  0  0
   19.6810   43.9290   31.3220 O   0  0  0  0  0  0  0  0  0  0  0  0
   24.2350   37.9910   27.0370 O   0  0  0  0  0  0  0  0  0  0  0  0
   21.4050   40.9450   34.9270 O   0  0  0  0  0  0  0  0  0  0  0  0
   19.4440   35.3470   29.4630 O   0  0  0  0  0  0  0  0  0  0  0  0
   20.2130   35.7340   32.1470 O   0  0  0  0  0  0  0  0  0  0  0  0
   21.0880   37.4170   29.6590 O   0  0  0  0  0  0  0  0  0  0  0  0
   19.9980   38.3370   31.9730 O   0  0  0  0  0  0  0  0  0  0  0  0
   23.0730   38.8020   28.7770 N   0  0  0  0  0  0  0  0  0  0  0  0
   20.4850   40.7670   32.8950 N   0  0  0  0  0  0  0  0  0  0  0  0
   23.8930   39.9980   28.9620 C   0  0  0  0  0  0  0  0  0  0  0  0
   23.1280   41.1350   29.6430 C   0  0  0  0  0  0  0  0  0  0  0  0
   22.7310   40.9220   31.1130 C   0  0  0  0  0  0  0  0  0  0  0  0
   21.8360   34.5150   26.8420 C   0  0  0  0  0  0  0  0  0  0  0  0
   21.4100   36.7380   35.4780 C   0  0  0  0  0  0  0  0  0  0  0  0
   20.7420   34.3920   27.7150 C   0  0  0  0  0  0  0  0  0  0  0  0
   21.0290   35.9120   34.4150 C   0  0  0  0  0  0  0  0  0  0  0  0
   22.2330   42.1970   31.8420 C   0  0  0  0  0  0  0  0  0  0  0  0
   22.6470   35.6120   26.8890 C   0  0  0  0  0  0  0  0  0  0  0  0
   21.3650   38.1020   35.3490 C   0  0  0  0  0  0  0  0  0  0  0  0
   19.6950   42.6990   31.5480 C   0  0  0  0  0  0  0  0  0  0  0  0
   23.3390   37.8470   27.8720 C   0  0  0  0  0  0  0  0  0  0  0  0
   20.8990   40.2310   34.0570 C   0  0  0  0  0  0  0  0  0  0  0  0
   20.5160   35.4020   28.6310 C   0  0  0  0  0  0  0  0  0  0  0  0
   20.5670   36.4810   33.2430 C   0  0  0  0  0  0  0  0  0  0  0  0
   21.3600   36.5120   28.7000 C   0  0  0  0  0  0  0  0  0  0  0  0
   20.5000   37.8720   33.1280 C   0  0  0  0  0  0  0  0  0  0  0  0
   20.8040   42.1330   32.4730 C   0  0  1  0  0  0  0  0  0  0  0  0
   22.4580   36.6410   27.8270 C   0  0  0  0  0  0  0  0  0  0  0  0
   20.8950   38.7280   34.1790 C   0  0  0  0  0  0  0  0  0  0  0  0
   18.9313   40.9236   31.2747 H   0  0  0  0  0  0  0  0  0  0  0  0
   19.2857   36.0808   30.1237 H   0  0  0  0  0  0  0  0  0  0  0  0
   19.8833   36.1868   31.3186 H   0  0  0  0  0  0  0  0  0  0  0  0
   21.6600   38.2317   29.7543 H   0  0  0  0  0  0  0  0  0  0  0  0
   19.9207   39.3225   31.8222 H   0  0  0  0  0  0  0  0  0  0  0  0
   22.2672   38.6888   29.3583 H   0  0  0  0  0  0  0  0  0  0  0  0
   19.9288   40.2019   32.2856 H   0  0  0  0  0  0  0  0  0  0  0  0
   24.2059   40.3137   28.0662 H   0  0  0  0  0  0  0  0  0  0  0  0
   24.6835   39.7604   29.5265 H   0  0  0  0  0  0  0  0  0  0  0  0
   22.2882   41.2887   29.1223 H   0  0  0  0  0  0  0  0  0  0  0  0
   23.7013   41.9532   29.6002 H   0  0  0  0  0  0  0  0  0  0  0  0
   23.5299   40.5746   31.6040 H   0  0  0  0  0  0  0  0  0  0  0  0
   21.9995   40.2408   31.1424 H   0  0  0  0  0  0  0  0  0  0  0  0
   22.0227   33.7905   26.1785 H   0  0  0  0  0  0  0  0  0  0  0  0
   21.7173   36.3305   36.3379 H   0  0  0  0  0  0  0  0  0  0  0  0
   20.1416   33.5933   27.6746 H   0  0  0  0  0  0  0  0  0  0  0  0
   21.0904   34.9177   34.5024 H   0  0  0  0  0  0  0  0  0  0  0  0
   22.2384   42.9462   31.1797 H   0  0  0  0  0  0  0  0  0  0  0  0
   22.8802   42.3977   32.5775 H   0  0  0  0  0  0  0  0  0  0  0  0
   23.3998   35.6857   26.2349 H   0  0  0  0  0  0  0  0  0  0  0  0
   21.6761   38.6706   36.1105 H   0  0  0  0  0  0  0  0  0  0  0  0
   20.8194   42.7002   33.2964 H   0  0  0  0  0  0  0  0  0  0  0  0
  1 21  1  0  0  0  0
  2 21  2  0  0  0  0
  3 22  2  0  0  0  0
  4 23  2  0  0  0  0
  5 24  1  0  0  0  0
  6 25  1  0  0  0  0
  7 26  1  0  0  0  0
  8 27  1  0  0  0  0
  9 11  1  0  0  0  0
  9 22  1  0  0  0  0
 10 23  1  0  0  0  0
 10 28  1  0  0  0  0
 11 12  1  0  0  0  0
 12 13  1  0  0  0  0
 13 18  1  0  0  0  0
 14 16  2  0  0  0  0
 14 19  1  0  0  0  0
 15 17  2  0  0  0  0
 15 20  1  0  0  0  0
 16 24  1  0  0  0  0
 17 25  1  0  0  0  0
 18 28  1  0  0  0  0
 19 29  2  0  0  0  0
 20 30  2  0  0  0  0
 21 28  1  0  0  0  0
 22 29  1  0  0  0  0
 23 30  1  0  0  0  0
 24 26  2  0  0  0  0
 25 27  2  0  0  0  0
 26 29  1  0  0  0  0
 27 30  1  0  0  0  0
  1 31  1  0  0  0  0
  5 32  1  0  0  0  0
  6 33  1  0  0  0  0
  7 34  1  0  0  0  0
  8 35  1  0  0  0  0
  9 36  1  0  0  0  0
 10 37  1  0  0  0  0
 11 38  1  0  0  0  0
 11 39  1  0  0  0  0
 12 40  1  0  0  0  0
 12 41  1  0  0  0  0
 13 42  1  0  0  0  0
 13 43  1  0  0  0  0
 14 44  1  0  0  0  0
 15 45  1  0  0  0  0
 16 46  1  0  0  0  0
 17 47  1  0  0  0  0
 18 48  1  0  0  0  0
 18 49  1  0  0  0  0
 19 50  1  0  0  0  0
 20 51  1  0  0  0  0
 28 52  1  0  0  0  0
M  END
> <pdb_id>
5OAH

> <uniprot_id>
nan

> <usmiles>
O=C(N[C@H](C(=O)O)CCCCNC(=O)c1c(O)c(O)ccc1)c2c(O)c(O)ccc2

$$$$
95K_A_401
          07192420233D 1   1.00000     0.00000     0
            
 55 57  0  0  0  0            999 V2000
   89.9834   38.5013   22.0413 Br  0  0  0  0  0  0  0  0  0  0  0  0
   97.5201   26.8233   17.4030 N   0  0  0  0  0  0  0  0  0  0  0  0
   96.2995   26.3159   19.5069 N   0  0  0  0  0  0  0  0  0  0  0  0
   95.9786   26.9886   20.6088 N   0  0  0  0  0  0  0  0  0  0  0  0
   97.0796   28.3539   19.2789 N   0  0  0  0  0  0  0  0  0  0  0  0
   96.3409   29.2445   21.4085 N   0  0  0  0  0  0  0  0  0  0  0  0
   95.2198   32.2780   24.1592 N   0  0  0  0  0  0  0  0  0  0  0  0
   93.2982   32.3553   27.4897 C   0  0  0  0  0  0  0  0  0  0  0  0
   95.6685   33.0404   27.1237 C   0  0  0  0  0  0  0  0  0  0  0  0
   95.7503   30.4616   20.8773 C   0  0  0  0  0  0  0  0  0  0  0  0
   95.8439   28.8432   22.7121 C   0  0  0  0  0  0  0  0  0  0  0  0
   94.5732   33.4971   23.5879 C   0  0  0  0  0  0  0  0  0  0  0  0
   94.4649   31.8607   25.3116 C   0  0  0  0  0  0  0  0  0  0  0  0
   95.8635   31.5794   21.8876 C   0  0  0  0  0  0  0  0  0  0  0  0
   95.9131   29.9671   23.7133 C   0  0  0  0  0  0  0  0  0  0  0  0
   93.1196   33.2672   23.0858 C   0  0  0  0  0  0  0  0  0  0  0  0
   92.0787   36.5774   21.6016 C   0  0  0  0  0  0  0  0  0  0  0  0
   90.4993   35.9931   23.4112 C   0  0  0  0  0  0  0  0  0  0  0  0
   92.7756   35.4134   21.8309 C   0  0  0  0  0  0  0  0  0  0  0  0
   91.2032   34.8210   23.6376 C   0  0  0  0  0  0  0  0  0  0  0  0
   96.9681   27.1380   18.6936 C   0  0  0  0  0  0  0  0  0  0  0  0
   96.4507   28.2247   20.4754 C   0  0  0  0  0  0  0  0  0  0  0  0
   90.9281   36.8533   22.3997 C   0  0  0  0  0  0  0  0  0  0  0  0
   95.2306   31.1702   23.1670 C   0  0  0  0  0  0  0  0  0  0  0  0
   94.2970   32.8535   26.4696 C   0  0  0  0  0  0  0  0  0  0  0  0
   92.3498   34.5402   22.8324 C   0  0  0  0  0  0  0  0  0  0  0  0
   98.0040   27.5259   16.8813 H   0  0  0  0  0  0  0  0  0  0  0  0
   97.4199   25.9019   17.0275 H   0  0  0  0  0  0  0  0  0  0  0  0
   96.0781   25.3588   19.3196 H   0  0  0  0  0  0  0  0  0  0  0  0
   92.4065   32.2366   27.0529 H   0  0  0  0  0  0  0  0  0  0  0  0
   93.6078   31.4791   27.8590 H   0  0  0  0  0  0  0  0  0  0  0  0
   93.2197   33.0208   28.2320 H   0  0  0  0  0  0  0  0  0  0  0  0
   96.3211   33.3698   26.4414 H   0  0  0  0  0  0  0  0  0  0  0  0
   95.5961   33.7077   27.8650 H   0  0  0  0  0  0  0  0  0  0  0  0
   95.9841   32.1659   27.4920 H   0  0  0  0  0  0  0  0  0  0  0  0
   94.7854   30.2983   20.6718 H   0  0  0  0  0  0  0  0  0  0  0  0
   96.2299   30.7233   20.0397 H   0  0  0  0  0  0  0  0  0  0  0  0
   96.3951   28.0787   23.0463 H   0  0  0  0  0  0  0  0  0  0  0  0
   94.8918   28.5521   22.6189 H   0  0  0  0  0  0  0  0  0  0  0  0
   95.1257   33.8137   22.8169 H   0  0  0  0  0  0  0  0  0  0  0  0
   94.5531   34.2031   24.2958 H   0  0  0  0  0  0  0  0  0  0  0  0
   94.9144   31.0476   25.6814 H   0  0  0  0  0  0  0  0  0  0  0  0
   93.5481   31.6192   24.9934 H   0  0  0  0  0  0  0  0  0  0  0  0
   95.4020   32.3933   21.5347 H   0  0  0  0  0  0  0  0  0  0  0  0
   96.8289   31.7862   22.0465 H   0  0  0  0  0  0  0  0  0  0  0  0
   96.8706   30.1854   23.9019 H   0  0  0  0  0  0  0  0  0  0  0  0
   95.4624   29.6854   24.5604 H   0  0  0  0  0  0  0  0  0  0  0  0
   92.6290   32.7349   23.7757 H   0  0  0  0  0  0  0  0  0  0  0  0
   93.1602   32.7488   22.2316 H   0  0  0  0  0  0  0  0  0  0  0  0
   92.3722   37.2166   20.8907 H   0  0  0  0  0  0  0  0  0  0  0  0
   89.6971   36.2187   23.9639 H   0  0  0  0  0  0  0  0  0  0  0  0
   93.5828   35.1944   21.2828 H   0  0  0  0  0  0  0  0  0  0  0  0
   90.9139   34.1833   24.3515 H   0  0  0  0  0  0  0  0  0  0  0  0
   94.2812   30.9226   22.9738 H   0  0  0  0  0  0  0  0  0  0  0  0
   93.9846   33.7313   26.1064 H   0  0  0  0  0  0  0  0  0  0  0  0
  1 23  1  0  0  0  0
  2 21  1  0  0  0  0
  3  4  1  0  0  0  0
  3 21  1  0  0  0  0
  4 22  2  0  0  0  0
  5 21  2  0  0  0  0
  5 22  1  0  0  0  0
  6 10  1  0  0  0  0
  6 11  1  0  0  0  0
  6 22  1  0  0  0  0
  7 12  1  0  0  0  0
  7 13  1  0  0  0  0
  7 24  1  0  0  0  0
  8 25  1  0  0  0  0
  9 25  1  0  0  0  0
 10 14  1  0  0  0  0
 11 15  1  0  0  0  0
 12 16  1  0  0  0  0
 13 25  1  0  0  0  0
 14 24  1  0  0  0  0
 15 24  1  0  0  0  0
 16 26  1  0  0  0  0
 17 19  2  0  0  0  0
 17 23  1  0  0  0  0
 18 20  1  0  0  0  0
 18 23  2  0  0  0  0
 19 26  1  0  0  0  0
 20 26  2  0  0  0  0
  2 27  1  0  0  0  0
  2 28  1  0  0  0  0
  3 29  1  0  0  0  0
  8 30  1  0  0  0  0
  8 31  1  0  0  0  0
  8 32  1  0  0  0  0
  9 33  1  0  0  0  0
  9 34  1  0  0  0  0
  9 35  1  0  0  0  0
 10 36  1  0  0  0  0
 10 37  1  0  0  0  0
 11 38  1  0  0  0  0
 11 39  1  0  0  0  0
 12 40  1  0  0  0  0
 12 41  1  0  0  0  0
 13 42  1  0  0  0  0
 13 43  1  0  0  0  0
 14 44  1  0  0  0  0
 14 45  1  0  0  0  0
 15 46  1  0  0  0  0
 15 47  1  0  0  0  0
 16 48  1  0  0  0  0
 16 49  1  0  0  0  0
 17 50  1  0  0  0  0
 18 51  1  0  0  0  0
 19 52  1  0  0  0  0
 20 53  1  0  0  0  0
 24 54  1  0  0  0  0
 25 55  1  0  0  0  0
M  END
> <pdb_id>
5NRA

> <uniprot_id>
Q13231

> <usmiles>
Brc1ccc(cc1)CCN(C2CCN(C3=NNC(=N3)N)CC2)CC(C)C

$$$$
95N_A_401
          07192420233D 1   1.00000     0.00000     0
            
 46 48  0  0  0  0            999 V2000
   89.9896   38.5553   22.0228 Br  0  0  0  0  0  0  0  0  0  0  0  0
   97.4700   26.8076   17.5489 N   0  0  0  0  0  0  0  0  0  0  0  0
   96.2036   26.3213   19.4959 N   0  0  0  0  0  0  0  0  0  0  0  0
   95.8569   27.0563   20.6411 N   0  0  0  0  0  0  0  0  0  0  0  0
   97.0680   28.3837   19.2888 N   0  0  0  0  0  0  0  0  0  0  0  0
   95.2653   32.3933   24.1003 N   0  0  0  0  0  0  0  0  0  0  0  0
   96.3128   29.2924   21.3564 N   0  0  0  0  0  0  0  0  0  0  0  0
   94.7765   31.9913   25.4396 C   0  0  0  0  0  0  0  0  0  0  0  0
   94.5292   33.6071   23.6570 C   0  0  0  0  0  0  0  0  0  0  0  0
   95.7940   28.8669   22.6424 C   0  0  0  0  0  0  0  0  0  0  0  0
   95.6828   30.4926   20.8252 C   0  0  0  0  0  0  0  0  0  0  0  0
   95.9416   30.0077   23.6445 C   0  0  0  0  0  0  0  0  0  0  0  0
   95.8115   31.6577   21.7924 C   0  0  0  0  0  0  0  0  0  0  0  0
   93.0815   33.3386   23.2160 C   0  0  0  0  0  0  0  0  0  0  0  0
   92.0528   36.6488   21.6493 C   0  0  0  0  0  0  0  0  0  0  0  0
   90.4858   36.1059   23.3592 C   0  0  0  0  0  0  0  0  0  0  0  0
   92.7535   35.4873   21.9119 C   0  0  0  0  0  0  0  0  0  0  0  0
   91.1895   34.9444   23.6179 C   0  0  0  0  0  0  0  0  0  0  0  0
   96.9203   27.1717   18.7412 C   0  0  0  0  0  0  0  0  0  0  0  0
   96.3683   28.2736   20.4265 C   0  0  0  0  0  0  0  0  0  0  0  0
   90.9220   36.9686   22.3781 C   0  0  0  0  0  0  0  0  0  0  0  0
   95.1967   31.2560   23.1314 C   0  0  0  0  0  0  0  0  0  0  0  0
   92.3442   34.6314   22.9232 C   0  0  0  0  0  0  0  0  0  0  0  0
   97.9967   27.4712   17.0176 H   0  0  0  0  0  0  0  0  0  0  0  0
   97.3468   25.8766   17.2050 H   0  0  0  0  0  0  0  0  0  0  0  0
   95.9685   25.3720   19.2873 H   0  0  0  0  0  0  0  0  0  0  0  0
   95.2683   31.1751   25.7428 H   0  0  0  0  0  0  0  0  0  0  0  0
   94.9333   32.7355   26.0889 H   0  0  0  0  0  0  0  0  0  0  0  0
   93.7977   31.7920   25.3911 H   0  0  0  0  0  0  0  0  0  0  0  0
   95.0227   34.0092   22.8858 H   0  0  0  0  0  0  0  0  0  0  0  0
   94.5104   34.2575   24.4163 H   0  0  0  0  0  0  0  0  0  0  0  0
   96.3073   28.0710   22.9635 H   0  0  0  0  0  0  0  0  0  0  0  0
   94.8279   28.6254   22.5502 H   0  0  0  0  0  0  0  0  0  0  0  0
   94.7132   30.3079   20.6649 H   0  0  0  0  0  0  0  0  0  0  0  0
   96.1230   30.7364   19.9610 H   0  0  0  0  0  0  0  0  0  0  0  0
   96.9110   30.2242   23.7602 H   0  0  0  0  0  0  0  0  0  0  0  0
   95.5551   29.7289   24.5237 H   0  0  0  0  0  0  0  0  0  0  0  0
   95.3290   32.4534   21.4263 H   0  0  0  0  0  0  0  0  0  0  0  0
   96.7773   31.8833   21.9203 H   0  0  0  0  0  0  0  0  0  0  0  0
   92.6041   32.8498   23.9463 H   0  0  0  0  0  0  0  0  0  0  0  0
   93.0921   32.7756   22.3896 H   0  0  0  0  0  0  0  0  0  0  0  0
   92.3663   37.2638   20.9257 H   0  0  0  0  0  0  0  0  0  0  0  0
   89.6616   36.3194   23.8836 H   0  0  0  0  0  0  0  0  0  0  0  0
   93.5621   35.2621   21.3684 H   0  0  0  0  0  0  0  0  0  0  0  0
   90.8567   34.3172   24.3220 H   0  0  0  0  0  0  0  0  0  0  0  0
   94.2366   31.0181   22.9844 H   0  0  0  0  0  0  0  0  0  0  0  0
  1 21  1  0  0  0  0
  2 19  1  0  0  0  0
  3  4  1  0  0  0  0
  3 19  1  0  0  0  0
  4 20  2  0  0  0  0
  5 19  2  0  0  0  0
  5 20  1  0  0  0  0
  6  8  1  0  0  0  0
  6  9  1  0  0  0  0
  6 22  1  0  0  0  0
  7 10  1  0  0  0  0
  7 11  1  0  0  0  0
  7 20  1  0  0  0  0
  9 14  1  0  0  0  0
 10 12  1  0  0  0  0
 11 13  1  0  0  0  0
 12 22  1  0  0  0  0
 13 22  1  0  0  0  0
 14 23  1  0  0  0  0
 15 17  2  0  0  0  0
 15 21  1  0  0  0  0
 16 18  1  0  0  0  0
 16 21  2  0  0  0  0
 17 23  1  0  0  0  0
 18 23  2  0  0  0  0
  2 24  1  0  0  0  0
  2 25  1  0  0  0  0
  3 26  1  0  0  0  0
  8 27  1  0  0  0  0
  8 28  1  0  0  0  0
  8 29  1  0  0  0  0
  9 30  1  0  0  0  0
  9 31  1  0  0  0  0
 10 32  1  0  0  0  0
 10 33  1  0  0  0  0
 11 34  1  0  0  0  0
 11 35  1  0  0  0  0
 12 36  1  0  0  0  0
 12 37  1  0  0  0  0
 13 38  1  0  0  0  0
 13 39  1  0  0  0  0
 14 40  1  0  0  0  0
 14 41  1  0  0  0  0
 15 42  1  0  0  0  0
 16 43  1  0  0  0  0
 17 44  1  0  0  0  0
 18 45  1  0  0  0  0
 22 46  1  0  0  0  0
M  END
> <pdb_id>
5NR8

> <uniprot_id>
Q13231

> <usmiles>
Brc1ccc(cc1)CCN(C2CCN(C3=NNC(=N3)N)CC2)C

$$$$
95Q_A_401
          07192420233D 1   1.00000     0.00000     0
            
 56 59  0  0  0  0            999 V2000
   90.0420   38.3900   22.1410 Cl  0  0  0  0  0  0  0  0  0  0  0  0
   97.5640   26.8010   17.3880 N   0  0  0  0  0  0  0  0  0  0  0  0
   96.3430   26.2590   19.3410 N   0  0  0  0  0  0  0  0  0  0  0  0
   95.9940   26.9570   20.5030 N   0  0  0  0  0  0  0  0  0  0  0  0
   97.1740   28.3710   19.1440 N   0  0  0  0  0  0  0  0  0  0  0  0
   96.4170   29.2460   21.2810 N   0  0  0  0  0  0  0  0  0  0  0  0
   95.2210   32.2600   24.0140 N   0  0  0  0  0  0  0  0  0  0  0  0
   95.7880   30.4550   20.7100 C   0  0  0  0  0  0  0  0  0  0  0  0
   95.7450   28.7960   22.5160 C   0  0  0  0  0  0  0  0  0  0  0  0
   94.5520   33.4820   23.5040 C   0  0  0  0  0  0  0  0  0  0  0  0
   94.5430   31.7030   25.2070 C   0  0  0  0  0  0  0  0  0  0  0  0
   93.6790   34.4270   28.3810 C   0  0  0  0  0  0  0  0  0  0  0  0
   94.9870   34.0160   28.1620 C   0  0  0  0  0  0  0  0  0  0  0  0
   92.6500   33.8590   27.6370 C   0  0  0  0  0  0  0  0  0  0  0  0
   95.9160   31.6000   21.7110 C   0  0  0  0  0  0  0  0  0  0  0  0
   95.8400   29.9210   23.5440 C   0  0  0  0  0  0  0  0  0  0  0  0
   93.1180   33.2180   23.0350 C   0  0  0  0  0  0  0  0  0  0  0  0
   95.2490   33.0600   27.1820 C   0  0  0  0  0  0  0  0  0  0  0  0
   92.9430   32.9140   26.6690 C   0  0  0  0  0  0  0  0  0  0  0  0
   90.5200   35.9740   23.3570 C   0  0  0  0  0  0  0  0  0  0  0  0
   92.0810   36.6030   21.6360 C   0  0  0  0  0  0  0  0  0  0  0  0
   91.2290   34.7950   23.5510 C   0  0  0  0  0  0  0  0  0  0  0  0
   92.7870   35.4200   21.8320 C   0  0  0  0  0  0  0  0  0  0  0  0
   97.0410   27.1440   18.6010 C   0  0  0  0  0  0  0  0  0  0  0  0
   96.5110   28.1860   20.3030 C   0  0  0  0  0  0  0  0  0  0  0  0
   90.9490   36.8780   22.3970 C   0  0  0  0  0  0  0  0  0  0  0  0
   95.1970   31.1940   22.9940 C   0  0  0  0  0  0  0  0  0  0  0  0
   94.2590   32.7450   26.2630 C   0  0  0  0  0  0  0  0  0  0  0  0
   92.3670   34.5130   22.8000 C   0  0  0  0  0  0  0  0  0  0  0  0
   98.0782   27.4743   16.8568 H   0  0  0  0  0  0  0  0  0  0  0  0
   97.4330   25.8764   17.0304 H   0  0  0  0  0  0  0  0  0  0  0  0
   96.1228   25.3113   19.1102 H   0  0  0  0  0  0  0  0  0  0  0  0
   94.8213   30.2757   20.5271 H   0  0  0  0  0  0  0  0  0  0  0  0
   96.2484   30.7018   19.8573 H   0  0  0  0  0  0  0  0  0  0  0  0
   96.1963   27.9760   22.8681 H   0  0  0  0  0  0  0  0  0  0  0  0
   94.7850   28.5919   22.3245 H   0  0  0  0  0  0  0  0  0  0  0  0
   95.0803   33.8381   22.7333 H   0  0  0  0  0  0  0  0  0  0  0  0
   94.5291   34.1633   24.2356 H   0  0  0  0  0  0  0  0  0  0  0  0
   95.1279   30.9964   25.6054 H   0  0  0  0  0  0  0  0  0  0  0  0
   93.6761   31.2954   24.9199 H   0  0  0  0  0  0  0  0  0  0  0  0
   93.4783   35.1255   29.0679 H   0  0  0  0  0  0  0  0  0  0  0  0
   95.7344   34.4024   28.7025 H   0  0  0  0  0  0  0  0  0  0  0  0
   91.7022   34.1324   27.8009 H   0  0  0  0  0  0  0  0  0  0  0  0
   95.4971   32.4266   21.3352 H   0  0  0  0  0  0  0  0  0  0  0  0
   96.8815   31.7741   21.9046 H   0  0  0  0  0  0  0  0  0  0  0  0
   96.8020   30.0995   23.7505 H   0  0  0  0  0  0  0  0  0  0  0  0
   95.3652   29.6456   24.3799 H   0  0  0  0  0  0  0  0  0  0  0  0
   92.6396   32.6865   23.7340 H   0  0  0  0  0  0  0  0  0  0  0  0
   93.1452   32.6980   22.1813 H   0  0  0  0  0  0  0  0  0  0  0  0
   96.1396   32.6069   27.1420 H   0  0  0  0  0  0  0  0  0  0  0  0
   92.2145   32.3594   26.2668 H   0  0  0  0  0  0  0  0  0  0  0  0
   89.7068   36.1691   23.9053 H   0  0  0  0  0  0  0  0  0  0  0  0
   92.3883   37.2580   20.9457 H   0  0  0  0  0  0  0  0  0  0  0  0
   90.9177   34.1400   24.2395 H   0  0  0  0  0  0  0  0  0  0  0  0
   93.5954   35.2219   21.2777 H   0  0  0  0  0  0  0  0  0  0  0  0
   94.2431   30.9936   22.7704 H   0  0  0  0  0  0  0  0  0  0  0  0
  1 26  1  0  0  0  0
  2 24  1  0  0  0  0
  3  4  1  0  0  0  0
  3 24  1  0  0  0  0
  4 25  2  0  0  0  0
  5 24  2  0  0  0  0
  5 25  1  0  0  0  0
  6  8  1  0  0  0  0
  6  9  1  0  0  0  0
  6 25  1  0  0  0  0
  7 10  1  0  0  0  0
  7 11  1  0  0  0  0
  7 27  1  0  0  0  0
  8 15  1  0  0  0  0
  9 16  1  0  0  0  0
 10 17  1  0  0  0  0
 11 28  1  0  0  0  0
 12 13  2  0  0  0  0
 12 14  1  0  0  0  0
 13 18  1  0  0  0  0
 14 19  2  0  0  0  0
 15 27  1  0  0  0  0
 16 27  1  0  0  0  0
 17 29  1  0  0  0  0
 18 28  2  0  0  0  0
 19 28  1  0  0  0  0
 20 22  2  0  0  0  0
 20 26  1  0  0  0  0
 21 23  1  0  0  0  0
 21 26  2  0  0  0  0
 22 29  1  0  0  0  0
 23 29  2  0  0  0  0
  2 30  1  0  0  0  0
  2 31  1  0  0  0  0
  3 32  1  0  0  0  0
  8 33  1  0  0  0  0
  8 34  1  0  0  0  0
  9 35  1  0  0  0  0
  9 36  1  0  0  0  0
 10 37  1  0  0  0  0
 10 38  1  0  0  0  0
 11 39  1  0  0  0  0
 11 40  1  0  0  0  0
 12 41  1  0  0  0  0
 13 42  1  0  0  0  0
 14 43  1  0  0  0  0
 15 44  1  0  0  0  0
 15 45  1  0  0  0  0
 16 46  1  0  0  0  0
 16 47  1  0  0  0  0
 17 48  1  0  0  0  0
 17 49  1  0  0  0  0
 18 50  1  0  0  0  0
 19 51  1  0  0  0  0
 20 52  1  0  0  0  0
 21 53  1  0  0  0  0
 22 54  1  0  0  0  0
 23 55  1  0  0  0  0
 27 56  1  0  0  0  0
M  END
> <pdb_id>
5NRF

> <uniprot_id>
Q13231

> <usmiles>
Clc1ccc(cc1)CCN(C2CCN(C3=NNC(=N3)N)CC2)Cc4ccccc4

$$$$
95S_D_401
          07212401293D 1   1.00000     0.00000     0
            
 37 38  0  0  0  0            999 V2000
   18.4540   -7.5150   29.9720 Br  0  0  0  0  0  0  0  0  0  0  0  0
   20.4920   -9.2380   31.5530 S   0  0  0  0  0  0  0  0  0  0  0  0
   24.5940  -14.7180   33.9390 S   0  0  0  0  0  0  0  0  0  0  0  0
   24.5640  -11.7590   34.3880 S   0  0  0  0  0  0  0  0  0  0  0  0
   25.0410  -12.1310   35.6790 O   0  0  0  0  0  0  0  0  0  0  0  0
   25.1490  -10.6340   33.7350 O   0  0  0  0  0  0  0  0  0  0  0  0
   22.8340  -10.3030   32.6590 O   0  0  0  0  0  0  0  0  0  0  0  0
   27.0430  -16.8680   33.2160 O   0  0  0  0  0  0  0  0  0  0  0  0
   22.9930  -11.4110   34.6080 N   0  0  0  0  0  0  0  0  0  0  0  0
   18.9660   -9.2800   33.6430 N   0  0  0  0  0  0  0  0  0  0  0  0
   20.9380  -10.4490   33.9800 N   0  0  0  0  0  0  0  0  0  0  0  0
   28.1310  -17.6810   33.6360 C   0  0  0  0  0  0  0  0  0  0  0  0
   25.4950  -14.7110   29.9740 C   0  0  0  0  0  0  0  0  0  0  0  0
   26.3180  -17.4990   32.2010 C   0  0  0  0  0  0  0  0  0  0  0  0
   18.3230   -8.5450   32.6750 C   0  0  0  0  0  0  0  0  0  0  0  0
   24.9400  -16.8950   32.1570 C   0  0  0  0  0  0  0  0  0  0  0  0
   25.0830  -13.1250   31.9710 C   0  0  0  0  0  0  0  0  0  0  0  0
   18.9870   -8.4260   31.5160 C   0  0  0  0  0  0  0  0  0  0  0  0
   24.7690  -13.1470   33.3330 C   0  0  0  0  0  0  0  0  0  0  0  0
   20.1060   -9.7180   33.1810 C   0  0  0  0  0  0  0  0  0  0  0  0
   22.2780  -10.6910   33.6840 C   0  0  0  0  0  0  0  0  0  0  0  0
   24.9300  -15.4080   32.3780 C   0  0  0  0  0  0  0  0  0  0  0  0
   25.1750  -14.4220   31.4150 C   0  0  0  0  0  0  0  0  0  0  0  0
   22.5350  -11.7295   35.4379 H   0  0  0  0  0  0  0  0  0  0  0  0
   20.5647  -10.8321   34.8249 H   0  0  0  0  0  0  0  0  0  0  0  0
   28.6363  -17.2131   34.3611 H   0  0  0  0  0  0  0  0  0  0  0  0
   27.7822  -18.5522   33.9816 H   0  0  0  0  0  0  0  0  0  0  0  0
   28.7398  -17.8496   32.8608 H   0  0  0  0  0  0  0  0  0  0  0  0
   25.5024  -15.7000   29.8260 H   0  0  0  0  0  0  0  0  0  0  0  0
   24.8018  -14.2915   29.3880 H   0  0  0  0  0  0  0  0  0  0  0  0
   26.3936  -14.3337   29.7499 H   0  0  0  0  0  0  0  0  0  0  0  0
   26.2517  -18.4784   32.3918 H   0  0  0  0  0  0  0  0  0  0  0  0
   26.7757  -17.3608   31.3227 H   0  0  0  0  0  0  0  0  0  0  0  0
   17.4257   -8.1295   32.8244 H   0  0  0  0  0  0  0  0  0  0  0  0
   24.3833  -17.3245   32.8680 H   0  0  0  0  0  0  0  0  0  0  0  0
   24.5398  -17.0845   31.2604 H   0  0  0  0  0  0  0  0  0  0  0  0
   25.2267  -12.2850   31.4477 H   0  0  0  0  0  0  0  0  0  0  0  0
  1 18  1  0  0  0  0
  2 18  1  0  0  0  0
  2 20  1  0  0  0  0
  3 19  1  0  0  0  0
  3 22  1  0  0  0  0
  4  5  2  0  0  0  0
  4  6  2  0  0  0  0
  4  9  1  0  0  0  0
  4 19  1  0  0  0  0
  7 21  2  0  0  0  0
  8 12  1  0  0  0  0
  8 14  1  0  0  0  0
  9 21  1  0  0  0  0
 10 15  1  0  0  0  0
 10 20  2  0  0  0  0
 11 20  1  0  0  0  0
 11 21  1  0  0  0  0
 13 23  1  0  0  0  0
 14 16  1  0  0  0  0
 15 18  2  0  0  0  0
 16 22  1  0  0  0  0
 17 19  2  0  0  0  0
 17 23  1  0  0  0  0
 22 23  2  0  0  0  0
  9 24  1  0  0  0  0
 11 25  1  0  0  0  0
 12 26  1  0  0  0  0
 12 27  1  0  0  0  0
 12 28  1  0  0  0  0
 13 29  1  0  0  0  0
 13 30  1  0  0  0  0
 13 31  1  0  0  0  0
 14 32  1  0  0  0  0
 14 33  1  0  0  0  0
 15 34  1  0  0  0  0
 16 35  1  0  0  0  0
 16 36  1  0  0  0  0
 17 37  1  0  0  0  0
M  END
> <pdb_id>
5Q05

> <uniprot_id>
Q2TU34

> <usmiles>
BrC=1SC(=NC1)NC(=O)NS(=O)(=O)C=2SC(=C(C2)C)CCOC

$$$$
971_A_402
          07192419233D 1   1.00000     0.00000     0
            
 53 57  0  0  0  0            999 V2000
  -15.3795   33.1984    0.6240 O   0  0  0  0  0  0  0  0  0  0  0  0
  -21.3088   39.6759    1.2468 N   0  0  0  0  0  0  0  0  0  0  0  0
  -19.0471   38.1584   -6.4727 N   0  0  0  0  0  0  0  0  0  0  0  0
  -18.2634   36.5046    1.6908 N   0  0  0  0  0  0  0  0  0  0  0  0
  -20.9119   39.0093   -2.2289 N   0  0  0  0  0  0  0  0  0  0  0  0
  -20.6866   39.0726    2.2850 N   0  0  0  0  0  0  0  0  0  0  0  0
  -15.6211   34.2548   -1.2544 N   0  0  0  0  0  0  0  0  0  0  0  0
  -20.7992   38.7341   -4.4524 N   0  0  0  0  0  0  0  0  0  0  0  0
  -17.5397   35.6175   -0.2304 N   0  0  0  0  0  0  0  0  0  0  0  0
  -14.3630   33.7217   -1.7154 C   0  0  0  0  0  0  0  0  0  0  0  0
  -19.0589   37.3511   -5.2706 C   0  0  0  0  0  0  0  0  0  0  0  0
  -20.4027   38.5743   -6.7701 C   0  0  0  0  0  0  0  0  0  0  0  0
  -18.9741   37.2898    2.4134 C   0  0  0  0  0  0  0  0  0  0  0  0
  -19.4770   38.2763   -4.1544 C   0  0  0  0  0  0  0  0  0  0  0  0
  -20.8452   39.5054   -5.6647 C   0  0  0  0  0  0  0  0  0  0  0  0
  -16.3424   35.1228   -2.1582 C   0  0  0  0  0  0  0  0  0  0  0  0
  -17.7376   35.3789   -1.6333 C   0  0  0  0  0  0  0  0  0  0  0  0
  -17.2956   34.4185    0.5027 C   0  0  0  0  0  0  0  0  0  0  0  0
  -22.8371   40.8946   -2.4521 C   0  0  0  0  0  0  0  0  0  0  0  0
  -22.3126   40.2963   -3.5553 C   0  0  0  0  0  0  0  0  0  0  0  0
  -22.3644   40.5024   -1.2449 C   0  0  0  0  0  0  0  0  0  0  0  0
  -19.1760   37.2898   -0.2909 C   0  0  0  0  0  0  0  0  0  0  0  0
  -16.0317   33.9121   -0.0526 C   0  0  0  0  0  0  0  0  0  0  0  0
  -18.3508   36.4795    0.4007 C   0  0  0  0  0  0  0  0  0  0  0  0
  -21.3402   39.3601   -3.3853 C   0  0  0  0  0  0  0  0  0  0  0  0
  -19.8408   38.1531    1.8229 C   0  0  0  0  0  0  0  0  0  0  0  0
  -21.3877   39.5605   -1.1659 C   0  0  0  0  0  0  0  0  0  0  0  0
  -20.9121   39.1562    0.1493 C   0  0  0  0  0  0  0  0  0  0  0  0
  -19.9440   38.1535    0.4498 C   0  0  0  0  0  0  0  0  0  0  0  0
  -20.8161   39.2911    3.2168 H   0  0  0  0  0  0  0  0  0  0  0  0
  -18.6857   37.6210   -7.2347 H   0  0  0  0  0  0  0  0  0  0  0  0
  -13.9663   33.1413   -1.0042 H   0  0  0  0  0  0  0  0  0  0  0  0
  -14.5136   33.1799   -2.5423 H   0  0  0  0  0  0  0  0  0  0  0  0
  -13.7368   34.4741   -1.9194 H   0  0  0  0  0  0  0  0  0  0  0  0
  -18.1475   36.9802   -5.0919 H   0  0  0  0  0  0  0  0  0  0  0  0
  -19.7123   36.5997   -5.3627 H   0  0  0  0  0  0  0  0  0  0  0  0
  -21.0045   37.7764   -6.8058 H   0  0  0  0  0  0  0  0  0  0  0  0
  -20.4286   39.0509   -7.6488 H   0  0  0  0  0  0  0  0  0  0  0  0
  -18.8905   37.2668    3.4097 H   0  0  0  0  0  0  0  0  0  0  0  0
  -19.4734   37.7850   -3.2834 H   0  0  0  0  0  0  0  0  0  0  0  0
  -18.8499   39.0534   -4.1013 H   0  0  0  0  0  0  0  0  0  0  0  0
  -20.2264   40.2884   -5.6018 H   0  0  0  0  0  0  0  0  0  0  0  0
  -21.7760   39.8290   -5.8351 H   0  0  0  0  0  0  0  0  0  0  0  0
  -16.4021   34.6879   -3.0567 H   0  0  0  0  0  0  0  0  0  0  0  0
  -15.8554   35.9923   -2.2404 H   0  0  0  0  0  0  0  0  0  0  0  0
  -18.1434   36.1783   -2.0765 H   0  0  0  0  0  0  0  0  0  0  0  0
  -18.3247   34.5827   -1.7796 H   0  0  0  0  0  0  0  0  0  0  0  0
  -18.0346   33.7596    0.3624 H   0  0  0  0  0  0  0  0  0  0  0  0
  -17.2024   34.6120    1.4794 H   0  0  0  0  0  0  0  0  0  0  0  0
  -23.5446   41.5971   -2.5294 H   0  0  0  0  0  0  0  0  0  0  0  0
  -22.6345   40.5389   -4.4704 H   0  0  0  0  0  0  0  0  0  0  0  0
  -22.7352   40.9072   -0.4090 H   0  0  0  0  0  0  0  0  0  0  0  0
  -19.2262   37.2634   -1.2893 H   0  0  0  0  0  0  0  0  0  0  0  0
  1 23  2  0  0  0  0
  2  6  1  0  0  0  0
  2 28  2  0  0  0  0
  3 11  1  0  0  0  0
  3 12  1  0  0  0  0
  4 13  1  0  0  0  0
  4 24  2  0  0  0  0
  5 25  1  0  0  0  0
  5 27  2  0  0  0  0
  6 26  1  0  0  0  0
  6 30  1  0  0  0  0
  7 10  1  0  0  0  0
  7 16  1  0  0  0  0
  7 23  1  0  0  0  0
  8 14  1  0  0  0  0
  8 15  1  0  0  0  0
  8 25  1  0  0  0  0
  9 17  1  0  0  0  0
  9 18  1  0  0  0  0
  9 24  1  0  0  0  0
 11 14  1  0  0  0  0
 12 15  1  0  0  0  0
 13 26  2  0  0  0  0
 16 17  1  0  0  0  0
 18 23  1  0  0  0  0
 19 20  1  0  0  0  0
 19 21  2  0  0  0  0
 20 25  2  0  0  0  0
 21 27  1  0  0  0  0
 22 24  1  0  0  0  0
 22 29  2  0  0  0  0
 26 29  1  0  0  0  0
 27 28  1  0  0  0  0
 28 29  1  0  0  0  0
  3 31  1  0  0  0  0
 10 32  1  0  0  0  0
 10 33  1  0  0  0  0
 10 34  1  0  0  0  0
 11 35  1  0  0  0  0
 11 36  1  0  0  0  0
 12 37  1  0  0  0  0
 12 38  1  0  0  0  0
 13 39  1  0  0  0  0
 14 40  1  0  0  0  0
 14 41  1  0  0  0  0
 15 42  1  0  0  0  0
 15 43  1  0  0  0  0
 16 44  1  0  0  0  0
 16 45  1  0  0  0  0
 17 46  1  0  0  0  0
 17 47  1  0  0  0  0
 18 48  1  0  0  0  0
 18 49  1  0  0  0  0
 19 50  1  0  0  0  0
 20 51  1  0  0  0  0
 21 52  1  0  0  0  0
 22 53  1  0  0  0  0
M  END
> <pdb_id>
5V80

> <uniprot_id>
P11309

> <usmiles>
O=C1N(CCN(c2ncc3NN=C(c4nc(N5CCNCC5)ccc4)c3c2)C1)C

$$$$
97A_A_1004
          07202400533D 1   1.00000     0.00000     0
            
 34 35  0  0  0  0            999 V2000
   23.3421    2.8062    3.8712 F   0  0  0  0  0  0  0  0  0  0  0  0
   23.7931    3.8346    5.8257 F   0  0  0  0  0  0  0  0  0  0  0  0
   23.3827    5.0572    3.9678 F   0  0  0  0  0  0  0  0  0  0  0  0
   26.1032   -0.0534    3.2148 O   0  0  0  0  0  0  0  0  0  0  0  0
   30.6803   -1.2598    3.3627 O   0  0  0  0  0  0  0  0  0  0  0  0
   25.3020    7.3573    4.0564 N   0  0  0  0  0  0  0  0  0  0  0  0
   27.9886    1.1569    3.6744 N   0  0  0  0  0  0  0  0  0  0  0  0
   29.4257    1.7764    6.1012 C   0  0  0  0  0  0  0  0  0  0  0  0
   25.7143    6.2975    4.0055 C   0  0  0  0  0  0  0  0  0  0  0  0
   29.8808    0.6181    5.2125 C   0  0  0  0  0  0  0  0  0  0  0  0
   28.1849    3.5679    3.5883 C   0  0  0  0  0  0  0  0  0  0  0  0
   27.6195    4.8220    3.6688 C   0  0  0  0  0  0  0  0  0  0  0  0
   28.2443   -1.1455    3.2732 C   0  0  0  0  0  0  0  0  0  0  0  0
   26.0459    2.5764    4.0566 C   0  0  0  0  0  0  0  0  0  0  0  0
   27.3012    0.0302    3.3732 C   0  0  0  0  0  0  0  0  0  0  0  0
   29.5833   -0.4462    2.9427 C   0  0  1  0  0  0  0  0  0  0  0  0
   27.4055    2.4310    3.7901 C   0  0  0  0  0  0  0  0  0  0  0  0
   29.4297    0.8556    3.7665 C   0  0  1  0  0  0  0  0  0  0  0  0
   26.2510    4.9696    3.9374 C   0  0  0  0  0  0  0  0  0  0  0  0
   25.4585    3.8268    4.1341 C   0  0  0  0  0  0  0  0  0  0  0  0
   23.9812    3.8961    4.4461 C   0  0  0  0  0  0  0  0  0  0  0  0
   31.5403   -0.7985    3.1443 H   0  0  0  0  0  0  0  0  0  0  0  0
   29.7244    1.6125    7.0414 H   0  0  0  0  0  0  0  0  0  0  0  0
   29.8269    2.6297    5.7680 H   0  0  0  0  0  0  0  0  0  0  0  0
   28.4284    1.8445    6.0754 H   0  0  0  0  0  0  0  0  0  0  0  0
   29.4797   -0.2341    5.5485 H   0  0  0  0  0  0  0  0  0  0  0  0
   30.8782    0.5511    5.2411 H   0  0  0  0  0  0  0  0  0  0  0  0
   29.1592    3.4734    3.3840 H   0  0  0  0  0  0  0  0  0  0  0  0
   28.1892    5.6328    3.5347 H   0  0  0  0  0  0  0  0  0  0  0  0
   27.9702   -1.7717    2.5433 H   0  0  0  0  0  0  0  0  0  0  0  0
   28.2976   -1.6447    4.1381 H   0  0  0  0  0  0  0  0  0  0  0  0
   25.4835    1.7612    4.1947 H   0  0  0  0  0  0  0  0  0  0  0  0
   29.6459   -0.2427    1.9656 H   0  0  0  0  0  0  0  0  0  0  0  0
   29.9648    1.5924    3.3532 H   0  0  0  0  0  0  0  0  0  0  0  0
  1 21  1  0  0  0  0
  2 21  1  0  0  0  0
  3 21  1  0  0  0  0
  4 15  2  0  0  0  0
  5 16  1  0  0  0  0
  6  9  3  0  0  0  0
  7 15  1  0  0  0  0
  7 17  1  0  0  0  0
  7 18  1  0  0  0  0
  8 10  1  0  0  0  0
  9 19  1  0  0  0  0
 10 18  1  0  0  0  0
 11 12  1  0  0  0  0
 11 17  2  0  0  0  0
 12 19  2  0  0  0  0
 13 15  1  0  0  0  0
 13 16  1  0  0  0  0
 14 17  1  0  0  0  0
 14 20  2  0  0  0  0
 16 18  1  0  0  0  0
 19 20  1  0  0  0  0
 20 21  1  0  0  0  0
  5 22  1  0  0  0  0
  8 23  1  0  0  0  0
  8 24  1  0  0  0  0
  8 25  1  0  0  0  0
 10 26  1  0  0  0  0
 10 27  1  0  0  0  0
 11 28  1  0  0  0  0
 12 29  1  0  0  0  0
 13 30  1  0  0  0  0
 13 31  1  0  0  0  0
 14 32  1  0  0  0  0
 16 33  1  0  0  0  0
 18 34  1  0  0  0  0
M  END
> <pdb_id>
5V8Q

> <uniprot_id>
P10275

> <usmiles>
FC(F)(F)c1c(C#N)ccc(N2C(=O)C[C@H](O)[C@@H]2CC)c1

$$$$
984_A_501
          07192416213D 1   1.00000     0.00000     0
            
 63 67  0  0  0  0            999 V2000
   16.2406   13.4979   36.2632 Cl  0  0  0  0  0  0  0  0  0  0  0  0
   18.6065   11.3016   36.9778 Cl  0  0  0  0  0  0  0  0  0  0  0  0
   20.2655    6.5640   32.4899 N   0  0  0  0  0  0  0  0  0  0  0  0
   22.3334    6.1164   31.5016 N   0  0  0  0  0  0  0  0  0  0  0  0
   21.6879    8.2761   31.6628 N   0  0  0  0  0  0  0  0  0  0  0  0
   21.3342   13.0048   31.4840 N   0  0  0  0  0  0  0  0  0  0  0  0
   23.9695   15.8269   28.9212 N   0  0  0  0  0  0  0  0  0  0  0  0
   22.2046   11.0087   30.7919 N   0  0  0  0  0  0  0  0  0  0  0  0
   24.8315   16.6896   28.0737 C   0  0  0  0  0  0  0  0  0  0  0  0
   25.5717    9.5089   29.8655 C   0  0  0  0  0  0  0  0  0  0  0  0
   19.3786    7.5030   32.8762 C   0  0  0  0  0  0  0  0  0  0  0  0
   23.0551   14.9990   28.0717 C   0  0  0  0  0  0  0  0  0  0  0  0
   24.7917   15.0044   29.8308 C   0  0  0  0  0  0  0  0  0  0  0  0
   23.0939   10.1124   30.0177 C   0  0  0  0  0  0  0  0  0  0  0  0
   24.3637    9.7331   30.7711 C   0  0  0  0  0  0  0  0  0  0  0  0
   19.6142    8.8831   32.6786 C   0  0  0  0  0  0  0  0  0  0  0  0
   17.5171   13.7096   33.8782 C   0  0  0  0  0  0  0  0  0  0  0  0
   22.1436   14.0521   28.9328 C   0  0  0  0  0  0  0  0  0  0  0  0
   23.9333   14.0710   30.7526 C   0  0  0  0  0  0  0  0  0  0  0  0
   23.8052    5.0842   30.4750 C   0  0  0  0  0  0  0  0  0  0  0  0
   23.6380    6.1338   29.4224 C   0  0  0  0  0  0  0  0  0  0  0  0
   18.5381   13.3632   32.9177 C   0  0  0  0  0  0  0  0  0  0  0  0
   19.4835   11.8004   34.5345 C   0  0  0  0  0  0  0  0  0  0  0  0
   21.3882    7.0000   31.9021 C   0  0  0  0  0  0  0  0  0  0  0  0
   22.2477   12.3597   30.6730 C   0  0  0  0  0  0  0  0  0  0  0  0
   17.4989   13.0687   35.1580 C   0  0  0  0  0  0  0  0  0  0  0  0
   18.5097   12.1248   35.4784 C   0  0  0  0  0  0  0  0  0  0  0  0
   22.4480    5.6858   30.1239 C   0  0  0  0  0  0  0  0  0  0  0  0
   20.8292    9.2225   32.0244 C   0  0  0  0  0  0  0  0  0  0  0  0
   20.5650   12.0215   32.2626 C   0  0  0  0  0  0  0  0  0  0  0  0
   21.1243   10.7055   31.8368 C   0  0  0  0  0  0  0  0  0  0  0  0
   22.9528   13.1679   29.9437 C   0  0  0  0  0  0  0  0  0  0  0  0
   19.5226   12.4068   33.2569 C   0  0  0  0  0  0  0  0  0  0  0  0
   22.9719    5.7500   32.1784 H   0  0  0  0  0  0  0  0  0  0  0  0
   25.4343   17.2342   28.6569 H   0  0  0  0  0  0  0  0  0  0  0  0
   25.3829   16.1167   27.4672 H   0  0  0  0  0  0  0  0  0  0  0  0
   24.2578   17.2988   27.5261 H   0  0  0  0  0  0  0  0  0  0  0  0
   26.3653    9.2646   30.4227 H   0  0  0  0  0  0  0  0  0  0  0  0
   25.3742    8.7679   29.2237 H   0  0  0  0  0  0  0  0  0  0  0  0
   25.7671   10.3474   29.3567 H   0  0  0  0  0  0  0  0  0  0  0  0
   18.5280    7.2146   33.3160 H   0  0  0  0  0  0  0  0  0  0  0  0
   23.6076   14.4399   27.4535 H   0  0  0  0  0  0  0  0  0  0  0  0
   22.4711   15.6096   27.5368 H   0  0  0  0  0  0  0  0  0  0  0  0
   25.3337   15.6136   30.4097 H   0  0  0  0  0  0  0  0  0  0  0  0
   25.4033   14.4353   29.2813 H   0  0  0  0  0  0  0  0  0  0  0  0
   23.3530   10.5757   29.1702 H   0  0  0  0  0  0  0  0  0  0  0  0
   22.5911    9.2759   29.8000 H   0  0  0  0  0  0  0  0  0  0  0  0
   24.5821   10.4690   31.4120 H   0  0  0  0  0  0  0  0  0  0  0  0
   24.1892    8.8895   31.2789 H   0  0  0  0  0  0  0  0  0  0  0  0
   18.9639    9.5796   32.9816 H   0  0  0  0  0  0  0  0  0  0  0  0
   16.8252   14.3947   33.6501 H   0  0  0  0  0  0  0  0  0  0  0  0
   21.6395   13.4484   28.3152 H   0  0  0  0  0  0  0  0  0  0  0  0
   21.4982   14.6153   29.4489 H   0  0  0  0  0  0  0  0  0  0  0  0
   23.4012   14.6408   31.3789 H   0  0  0  0  0  0  0  0  0  0  0  0
   24.5498   13.4845   31.2777 H   0  0  0  0  0  0  0  0  0  0  0  0
   24.2473    5.3049   31.3444 H   0  0  0  0  0  0  0  0  0  0  0  0
   24.0225    4.1419   30.2204 H   0  0  0  0  0  0  0  0  0  0  0  0
   23.7643    5.8930   28.4601 H   0  0  0  0  0  0  0  0  0  0  0  0
   23.9890    7.0561   29.5841 H   0  0  0  0  0  0  0  0  0  0  0  0
   18.5489   13.7977   32.0171 H   0  0  0  0  0  0  0  0  0  0  0  0
   20.1759   11.1177   34.7680 H   0  0  0  0  0  0  0  0  0  0  0  0
   21.7318    5.1547   29.6712 H   0  0  0  0  0  0  0  0  0  0  0  0
   23.5337   12.5810   29.3798 H   0  0  0  0  0  0  0  0  0  0  0  0
  1 26  1  0  0  0  0
  2 27  1  0  0  0  0
  3 11  2  0  0  0  0
  3 24  1  0  0  0  0
  4 24  1  0  0  0  0
  4 28  1  0  0  0  0
  5 24  2  0  0  0  0
  5 29  1  0  0  0  0
  6 25  2  0  0  0  0
  6 30  1  0  0  0  0
  7  9  1  0  0  0  0
  7 12  1  0  0  0  0
  7 13  1  0  0  0  0
  8 14  1  0  0  0  0
  8 25  1  0  0  0  0
  8 31  1  0  0  0  0
 10 15  1  0  0  0  0
 11 16  1  0  0  0  0
 12 18  1  0  0  0  0
 13 19  1  0  0  0  0
 14 15  1  0  0  0  0
 16 29  2  0  0  0  0
 17 22  2  0  0  0  0
 17 26  1  0  0  0  0
 18 32  1  0  0  0  0
 19 32  1  0  0  0  0
 20 21  1  0  0  0  0
 20 28  1  0  0  0  0
 21 28  1  0  0  0  0
 22 33  1  0  0  0  0
 23 27  1  0  0  0  0
 23 33  2  0  0  0  0
 25 32  1  0  0  0  0
 26 27  2  0  0  0  0
 29 31  1  0  0  0  0
 30 31  2  0  0  0  0
 30 33  1  0  0  0  0
  4 34  1  0  0  0  0
  9 35  1  0  0  0  0
  9 36  1  0  0  0  0
  9 37  1  0  0  0  0
 10 38  1  0  0  0  0
 10 39  1  0  0  0  0
 10 40  1  0  0  0  0
 11 41  1  0  0  0  0
 12 42  1  0  0  0  0
 12 43  1  0  0  0  0
 13 44  1  0  0  0  0
 13 45  1  0  0  0  0
 14 46  1  0  0  0  0
 14 47  1  0  0  0  0
 15 48  1  0  0  0  0
 15 49  1  0  0  0  0
 16 50  1  0  0  0  0
 17 51  1  0  0  0  0
 18 52  1  0  0  0  0
 18 53  1  0  0  0  0
 19 54  1  0  0  0  0
 19 55  1  0  0  0  0
 20 56  1  0  0  0  0
 20 57  1  0  0  0  0
 21 58  1  0  0  0  0
 21 59  1  0  0  0  0
 22 60  1  0  0  0  0
 23 61  1  0  0  0  0
 28 62  1  0  0  0  0
 32 63  1  0  0  0  0
M  END
> <pdb_id>
1PMN

> <uniprot_id>
P53779

> <usmiles>
Clc1c(Cl)ccc(c1)C=2N=C(N(C2c3nc(ncc3)NC4CC4)CCC)C5CCN(CC5)C

$$$$
985_A_1001
          07192419233D 1   1.00000     0.00000     0
            
 47 49  0  0  0  0            999 V2000
  -16.0266   34.1663    1.8284 O   0  0  0  0  0  0  0  0  0  0  0  0
  -16.1533   35.6657    3.4288 O   0  0  0  0  0  0  0  0  0  0  0  0
  -20.6237   39.3868   -4.1684 N   0  0  0  0  0  0  0  0  0  0  0  0
  -19.6412   37.3577   -2.7260 N   0  0  0  0  0  0  0  0  0  0  0  0
  -16.2389   35.7955   -4.0972 N   0  0  0  0  0  0  0  0  0  0  0  0
  -18.9880   36.2232   -4.6442 N   0  0  0  0  0  0  0  0  0  0  0  0
  -14.8958   35.4370   -3.5940 C   0  0  0  0  0  0  0  0  0  0  0  0
  -20.0641   38.3613   -4.8094 C   0  0  0  0  0  0  0  0  0  0  0  0
  -20.7024   39.4429   -2.8368 C   0  0  0  0  0  0  0  0  0  0  0  0
  -17.2546   35.1865   -3.1934 C   0  0  0  0  0  0  0  0  0  0  0  0
  -16.3260   35.3351   -5.5026 C   0  0  0  0  0  0  0  0  0  0  0  0
  -18.6778   35.0603   -3.7901 C   0  0  0  0  0  0  0  0  0  0  0  0
  -18.6571   36.2480   -6.0971 C   0  0  0  0  0  0  0  0  0  0  0  0
  -17.1300   36.3478   -6.3522 C   0  0  0  0  0  0  0  0  0  0  0  0
  -20.9671   39.2983    1.4659 C   0  0  0  0  0  0  0  0  0  0  0  0
  -17.5387   35.8296    1.5990 C   0  0  0  0  0  0  0  0  0  0  0  0
  -20.0087   38.5399    2.1356 C   0  0  0  0  0  0  0  0  0  0  0  0
  -21.0566   39.2470    0.0748 C   0  0  0  0  0  0  0  0  0  0  0  0
  -18.1629   36.9759    2.0896 C   0  0  0  0  0  0  0  0  0  0  0  0
  -19.2444   37.6832    0.0303 C   0  0  0  0  0  0  0  0  0  0  0  0
  -16.5266   35.1907    2.3276 C   0  0  0  0  0  0  0  0  0  0  0  0
  -19.5600   37.2943   -4.0667 C   0  0  0  0  0  0  0  0  0  0  0  0
  -20.2162   38.3843   -2.0707 C   0  0  0  0  0  0  0  0  0  0  0  0
  -19.1510   37.7078    1.4192 C   0  0  0  0  0  0  0  0  0  0  0  0
  -20.2117   38.4212   -0.6604 C   0  0  0  0  0  0  0  0  0  0  0  0
  -16.3576   33.8262    0.9482 H   0  0  0  0  0  0  0  0  0  0  0  0
  -14.1991   35.8376   -4.1890 H   0  0  0  0  0  0  0  0  0  0  0  0
  -14.7831   35.7889   -2.6648 H   0  0  0  0  0  0  0  0  0  0  0  0
  -14.7969   34.4419   -3.5878 H   0  0  0  0  0  0  0  0  0  0  0  0
  -20.0065   38.3570   -5.8078 H   0  0  0  0  0  0  0  0  0  0  0  0
  -21.1083   40.2406   -2.3908 H   0  0  0  0  0  0  0  0  0  0  0  0
  -17.3134   35.7505   -2.3697 H   0  0  0  0  0  0  0  0  0  0  0  0
  -16.9398   34.2697   -2.9477 H   0  0  0  0  0  0  0  0  0  0  0  0
  -16.7824   34.4458   -5.5304 H   0  0  0  0  0  0  0  0  0  0  0  0
  -15.4035   35.2482   -5.8788 H   0  0  0  0  0  0  0  0  0  0  0  0
  -18.7313   34.2260   -4.3388 H   0  0  0  0  0  0  0  0  0  0  0  0
  -19.3433   35.0127   -3.0453 H   0  0  0  0  0  0  0  0  0  0  0  0
  -19.1052   37.0381   -6.5154 H   0  0  0  0  0  0  0  0  0  0  0  0
  -18.9994   35.4085   -6.5191 H   0  0  0  0  0  0  0  0  0  0  0  0
  -16.9530   36.1679   -7.3198 H   0  0  0  0  0  0  0  0  0  0  0  0
  -16.8254   37.2725   -6.1239 H   0  0  0  0  0  0  0  0  0  0  0  0
  -21.5927   39.8813    1.9843 H   0  0  0  0  0  0  0  0  0  0  0  0
  -17.8176   35.4578    0.7136 H   0  0  0  0  0  0  0  0  0  0  0  0
  -19.9366   38.5931    3.1316 H   0  0  0  0  0  0  0  0  0  0  0  0
  -21.7347   39.8092   -0.3988 H   0  0  0  0  0  0  0  0  0  0  0  0
  -17.8826   37.3015    2.9926 H   0  0  0  0  0  0  0  0  0  0  0  0
  -18.6008   37.1212   -0.4892 H   0  0  0  0  0  0  0  0  0  0  0  0
  1 21  1  0  0  0  0
  2 21  2  0  0  0  0
  3  8  1  0  0  0  0
  3  9  2  0  0  0  0
  4 22  1  0  0  0  0
  4 23  2  0  0  0  0
  5  7  1  0  0  0  0
  5 10  1  0  0  0  0
  5 11  1  0  0  0  0
  6 12  1  0  0  0  0
  6 13  1  0  0  0  0
  6 22  1  0  0  0  0
  8 22  2  0  0  0  0
  9 23  1  0  0  0  0
 10 12  1  0  0  0  0
 11 14  1  0  0  0  0
 13 14  1  0  0  0  0
 15 17  1  0  0  0  0
 15 18  2  0  0  0  0
 16 19  2  0  0  0  0
 16 21  1  0  0  0  0
 17 24  2  0  0  0  0
 18 25  1  0  0  0  0
 19 24  1  0  0  0  0
 20 24  1  0  0  0  0
 20 25  2  0  0  0  0
 23 25  1  0  0  0  0
  1 26  1  0  0  0  0
  7 27  1  0  0  0  0
  7 28  1  0  0  0  0
  7 29  1  0  0  0  0
  8 30  1  0  0  0  0
  9 31  1  0  0  0  0
 10 32  1  0  0  0  0
 10 33  1  0  0  0  0
 11 34  1  0  0  0  0
 11 35  1  0  0  0  0
 12 36  1  0  0  0  0
 12 37  1  0  0  0  0
 13 38  1  0  0  0  0
 13 39  1  0  0  0  0
 14 40  1  0  0  0  0
 14 41  1  0  0  0  0
 15 42  1  0  0  0  0
 16 43  1  0  0  0  0
 17 44  1  0  0  0  0
 18 45  1  0  0  0  0
 19 46  1  0  0  0  0
 20 47  1  0  0  0  0
M  END
> <pdb_id>
2XJ2

> <uniprot_id>
P11309

> <usmiles>
O=C(O)/C=C/c1cc(c2nc(N3CCN(CCC3)C)cnc2)ccc1

$$$$
988_D_904
          07202412153D 1   1.00000     0.00000     0
            
 41 44  0  0  0  0            999 V2000
   47.4369   50.8207   67.8005 O   0  0  0  0  0  0  0  0  0  0  0  0
   47.4334   50.3760   69.9882 O   0  5  0  0  0  0  0  0  0  0  0  0
   51.4615   45.0938   64.1928 N   0  0  0  0  0  0  0  0  0  0  0  0
   43.1130   46.3381   65.4372 N   0  0  0  0  0  0  0  0  0  0  0  0
   47.1319   50.0266   68.6782 N   0  3  0  0  0  0  0  0  0  0  0  0
   50.5855   44.2145   63.6829 C   0  0  0  0  0  0  0  0  0  0  0  0
   51.2539   46.4183   64.1093 C   0  0  0  0  0  0  0  0  0  0  0  0
   41.9592   45.9243   64.8743 C   0  0  0  0  0  0  0  0  0  0  0  0
   41.9126   45.5482   63.5290 C   0  0  0  0  0  0  0  0  0  0  0  0
   45.3847   46.7611   69.0714 C   0  0  0  0  0  0  0  0  0  0  0  0
   46.0022   47.9718   69.3795 C   0  0  0  0  0  0  0  0  0  0  0  0
   49.4154   44.6659   63.0603 C   0  0  0  0  0  0  0  0  0  0  0  0
   50.1034   46.9128   63.4816 C   0  0  0  0  0  0  0  0  0  0  0  0
   43.0714   45.5752   62.7377 C   0  0  0  0  0  0  0  0  0  0  0  0
   45.2328   46.3840   67.7404 C   0  0  0  0  0  0  0  0  0  0  0  0
   47.9090   46.5379   62.2750 C   0  0  0  0  0  0  0  0  0  0  0  0
   46.3463   48.4019   67.0635 C   0  0  0  0  0  0  0  0  0  0  0  0
   45.4620   46.0588   62.5537 C   0  0  0  0  0  0  0  0  0  0  0  0
   46.7124   46.8488   64.4837 C   0  0  0  0  0  0  0  0  0  0  0  0
   46.4977   48.7988   68.3770 C   0  0  0  0  0  0  0  0  0  0  0  0
   49.1623   46.0271   62.9634 C   0  0  0  0  0  0  0  0  0  0  0  0
   46.6624   46.4784   63.1358 C   0  0  0  0  0  0  0  0  0  0  0  0
   44.2777   46.3963   64.7260 C   0  0  0  0  0  0  0  0  0  0  0  0
   44.2795   45.9932   63.2953 C   0  0  0  0  0  0  0  0  0  0  0  0
   45.7119   47.2201   66.7378 C   0  0  0  0  0  0  0  0  0  0  0  0
   45.5811   46.8213   65.3062 C   0  0  0  0  0  0  0  0  0  0  0  0
   50.7689   43.2336   63.7477 H   0  0  0  0  0  0  0  0  0  0  0  0
   51.9226   47.0532   64.4963 H   0  0  0  0  0  0  0  0  0  0  0  0
   41.1264   45.8862   65.4266 H   0  0  0  0  0  0  0  0  0  0  0  0
   41.0449   45.2569   63.1262 H   0  0  0  0  0  0  0  0  0  0  0  0
   45.0523   46.1662   69.8032 H   0  0  0  0  0  0  0  0  0  0  0  0
   46.0904   48.2502   70.3359 H   0  0  0  0  0  0  0  0  0  0  0  0
   48.7622   44.0078   62.6857 H   0  0  0  0  0  0  0  0  0  0  0  0
   49.9584   47.8993   63.4059 H   0  0  0  0  0  0  0  0  0  0  0  0
   43.0310   45.2959   61.7783 H   0  0  0  0  0  0  0  0  0  0  0  0
   44.7840   45.5213   67.5076 H   0  0  0  0  0  0  0  0  0  0  0  0
   47.7524   45.9847   61.4568 H   0  0  0  0  0  0  0  0  0  0  0  0
   48.0622   47.4898   62.0095 H   0  0  0  0  0  0  0  0  0  0  0  0
   46.7037   48.9830   66.3324 H   0  0  0  0  0  0  0  0  0  0  0  0
   45.4497   45.8007   61.5877 H   0  0  0  0  0  0  0  0  0  0  0  0
   47.5856   47.1431   64.8722 H   0  0  0  0  0  0  0  0  0  0  0  0
  1  5  2  0  0  0  0
  2  5  1  0  0  0  0
  3  6  2  0  0  0  0
  3  7  1  0  0  0  0
  4  8  2  0  0  0  0
  4 23  1  0  0  0  0
  5 20  1  0  0  0  0
  6 12  1  0  0  0  0
  7 13  2  0  0  0  0
  8  9  1  0  0  0  0
  9 14  2  0  0  0  0
 10 11  1  0  0  0  0
 10 15  2  0  0  0  0
 11 20  2  0  0  0  0
 12 21  2  0  0  0  0
 13 21  1  0  0  0  0
 14 24  1  0  0  0  0
 15 25  1  0  0  0  0
 16 21  1  0  0  0  0
 16 22  1  0  0  0  0
 17 20  1  0  0  0  0
 17 25  2  0  0  0  0
 18 22  1  0  0  0  0
 18 24  2  0  0  0  0
 19 22  2  0  0  0  0
 19 26  1  0  0  0  0
 23 24  1  0  0  0  0
 23 26  2  0  0  0  0
 25 26  1  0  0  0  0
  6 27  1  0  0  0  0
  7 28  1  0  0  0  0
  8 29  1  0  0  0  0
  9 30  1  0  0  0  0
 10 31  1  0  0  0  0
 11 32  1  0  0  0  0
 12 33  1  0  0  0  0
 13 34  1  0  0  0  0
 14 35  1  0  0  0  0
 15 36  1  0  0  0  0
 16 37  1  0  0  0  0
 16 38  1  0  0  0  0
 17 39  1  0  0  0  0
 18 40  1  0  0  0  0
 19 41  1  0  0  0  0
M  CHG  2   2  -1   5   1
M  END
> <pdb_id>
3G58

> <uniprot_id>
Q08499

> <usmiles>
[O-][N+](=O)c1cc(c2c3ncccc3cc(c2)Cc4ccncc4)ccc1

$$$$
990_A_301
          07192420423D 1   1.00000     0.00000     0
            
 46 49  0  0  0  0            999 V2000
   75.8638   35.5599   26.9440 F   0  0  0  0  0  0  0  0  0  0  0  0
   69.2277   36.9571   22.2603 O   0  0  0  0  0  0  0  0  0  0  0  0
   70.1646   30.1583   24.5065 O   0  0  0  0  0  0  0  0  0  0  0  0
   65.1021   33.4587   25.5256 N   0  0  0  0  0  0  0  0  0  0  0  0
   65.9310   34.6803   23.6920 N   0  0  0  0  0  0  0  0  0  0  0  0
   70.5969   35.8444   23.6143 N   0  0  0  0  0  0  0  0  0  0  0  0
   67.3552   34.0671   25.4795 N   0  0  0  0  0  0  0  0  0  0  0  0
   71.6903   31.9265   24.8258 N   0  0  0  0  0  0  0  0  0  0  0  0
   69.1436   30.9729   25.1015 C   0  0  0  0  0  0  0  0  0  0  0  0
   66.6099   35.9691   21.7459 C   0  0  0  0  0  0  0  0  0  0  0  0
   73.6631   30.4943   23.5418 C   0  0  0  0  0  0  0  0  0  0  0  0
   73.7481   36.3773   26.2768 C   0  0  0  0  0  0  0  0  0  0  0  0
   72.4054   29.9333   23.6961 C   0  0  0  0  0  0  0  0  0  0  0  0
   73.9258   31.7711   24.0481 C   0  0  0  0  0  0  0  0  0  0  0  0
   72.5218   36.1464   25.6583 C   0  0  0  0  0  0  0  0  0  0  0  0
   74.3914   34.0806   25.8380 C   0  0  0  0  0  0  0  0  0  0  0  0
   69.7617   34.7096   25.5548 C   0  0  0  0  0  0  0  0  0  0  0  0
   74.6698   35.3436   26.3589 C   0  0  0  0  0  0  0  0  0  0  0  0
   69.3975   36.0675   23.0983 C   0  0  0  0  0  0  0  0  0  0  0  0
   66.1280   34.0820   24.8962 C   0  0  0  0  0  0  0  0  0  0  0  0
   71.4172   30.6832   24.3469 C   0  0  0  0  0  0  0  0  0  0  0  0
   66.9334   35.3300   23.0743 C   0  0  0  0  0  0  0  0  0  0  0  0
   72.9153   32.4826   24.6831 C   0  0  0  0  0  0  0  0  0  0  0  0
   70.8791   34.7141   24.4981 C   0  0  2  0  0  0  0  0  0  0  0  0
   68.3923   34.7085   24.8861 C   0  0  0  0  0  0  0  0  0  0  0  0
   72.2196   34.8788   25.1388 C   0  0  0  0  0  0  0  0  0  0  0  0
   73.1644   33.8466   25.2295 C   0  0  0  0  0  0  0  0  0  0  0  0
   68.2061   35.3402   23.6660 C   0  0  0  0  0  0  0  0  0  0  0  0
   65.2517   33.0198   26.4116 H   0  0  0  0  0  0  0  0  0  0  0  0
   64.1956   33.4377   25.1040 H   0  0  0  0  0  0  0  0  0  0  0  0
   71.3400   36.4749   23.3902 H   0  0  0  0  0  0  0  0  0  0  0  0
   68.2898   30.4546   25.1502 H   0  0  0  0  0  0  0  0  0  0  0  0
   69.4249   31.2393   26.0235 H   0  0  0  0  0  0  0  0  0  0  0  0
   69.0048   31.7924   24.5455 H   0  0  0  0  0  0  0  0  0  0  0  0
   67.4265   36.4193   21.3849 H   0  0  0  0  0  0  0  0  0  0  0  0
   66.3051   35.2662   21.1032 H   0  0  0  0  0  0  0  0  0  0  0  0
   65.8835   36.6452   21.8694 H   0  0  0  0  0  0  0  0  0  0  0  0
   74.3827   29.9863   23.0684 H   0  0  0  0  0  0  0  0  0  0  0  0
   73.9616   37.2771   26.6572 H   0  0  0  0  0  0  0  0  0  0  0  0
   72.2080   29.0156   23.3513 H   0  0  0  0  0  0  0  0  0  0  0  0
   74.8377   32.1705   23.9536 H   0  0  0  0  0  0  0  0  0  0  0  0
   71.8541   36.8872   25.5842 H   0  0  0  0  0  0  0  0  0  0  0  0
   75.0698   33.3486   25.9019 H   0  0  0  0  0  0  0  0  0  0  0  0
   69.8474   35.5249   26.1274 H   0  0  0  0  0  0  0  0  0  0  0  0
   69.8505   33.8919   26.1237 H   0  0  0  0  0  0  0  0  0  0  0  0
   70.8554   33.8615   23.9760 H   0  0  0  0  0  0  0  0  0  0  0  0
  1 18  1  0  0  0  0
  2 19  2  0  0  0  0
  3  9  1  0  0  0  0
  3 21  1  0  0  0  0
  4 20  1  0  0  0  0
  5 20  2  0  0  0  0
  5 22  1  0  0  0  0
  6 19  1  0  0  0  0
  6 24  1  0  0  0  0
  7 20  1  0  0  0  0
  7 25  2  0  0  0  0
  8 21  2  0  0  0  0
  8 23  1  0  0  0  0
 10 22  1  0  0  0  0
 11 13  2  0  0  0  0
 11 14  1  0  0  0  0
 12 15  2  0  0  0  0
 12 18  1  0  0  0  0
 13 21  1  0  0  0  0
 14 23  2  0  0  0  0
 15 26  1  0  0  0  0
 16 18  2  0  0  0  0
 16 27  1  0  0  0  0
 17 24  1  0  0  0  0
 17 25  1  0  0  0  0
 19 28  1  0  0  0  0
 22 28  2  0  0  0  0
 23 27  1  0  0  0  0
 24 26  1  0  0  0  0
 25 28  1  0  0  0  0
 26 27  2  0  0  0  0
  4 29  1  0  0  0  0
  4 30  1  0  0  0  0
  6 31  1  0  0  0  0
  9 32  1  0  0  0  0
  9 33  1  0  0  0  0
  9 34  1  0  0  0  0
 10 35  1  0  0  0  0
 10 36  1  0  0  0  0
 10 37  1  0  0  0  0
 11 38  1  0  0  0  0
 12 39  1  0  0  0  0
 13 40  1  0  0  0  0
 14 41  1  0  0  0  0
 15 42  1  0  0  0  0
 16 43  1  0  0  0  0
 17 44  1  0  0  0  0
 17 45  1  0  0  0  0
 24 46  1  0  0  0  0
M  END
> <pdb_id>
4U93

> <uniprot_id>
P07900

> <usmiles>
Fc1cc(c2nc(OC)ccc2)c(cc1)[C@@H]3NC(=O)c4c(nc(nc4C)N)C3

$$$$
996_A_501
          07202405583D 1   1.00000     0.00000     0
            
 72 74  0  0  0  0            999 V2000
   68.2724   46.3086   10.0077 O   0  0  0  0  0  0  0  0  0  0  0  0
   65.7005   49.7590    7.8380 O   0  0  0  0  0  0  0  0  0  0  0  0
   63.1824   48.2307   12.3740 N   0  0  0  0  0  0  0  0  0  0  0  0
   64.0309   47.5573    7.8527 N   0  0  0  0  0  0  0  0  0  0  0  0
   68.2357   46.9695    7.8423 N   0  0  0  0  0  0  0  0  0  0  0  0
   63.3467   49.4275   11.6508 N   0  0  0  0  0  0  0  0  0  0  0  0
   69.0649   44.7451    8.2625 C   0  0  0  0  0  0  0  0  0  0  0  0
   61.4996   51.7523   11.4738 C   0  0  0  0  0  0  0  0  0  0  0  0
   61.2967   50.5408   13.6968 C   0  0  0  0  0  0  0  0  0  0  0  0
   62.6625   52.6675   13.4727 C   0  0  0  0  0  0  0  0  0  0  0  0
   60.7170   45.6301   10.1248 C   0  0  0  0  0  0  0  0  0  0  0  0
   62.2362   43.6876   10.3991 C   0  0  0  0  0  0  0  0  0  0  0  0
   65.4076   47.4017    8.2906 C   0  0  0  0  0  0  0  0  0  0  0  0
   63.3078   49.2854   10.2748 C   0  0  0  0  0  0  0  0  0  0  0  0
   63.5234   50.5916   12.5016 C   0  0  0  0  0  0  0  0  0  0  0  0
   72.8699   48.8572    8.5183 C   0  0  0  0  0  0  0  0  0  0  0  0
   71.8939   48.7025    9.5187 C   0  0  0  0  0  0  0  0  0  0  0  0
   72.4792   49.1146    7.2120 C   0  0  0  0  0  0  0  0  0  0  0  0
   70.5066   48.8952    9.2093 C   0  0  0  0  0  0  0  0  0  0  0  0
   71.1204   49.3108    6.8769 C   0  0  0  0  0  0  0  0  0  0  0  0
   68.6782   49.3395    7.4238 C   0  0  0  0  0  0  0  0  0  0  0  0
   62.8148   45.7676   11.5658 C   0  0  0  0  0  0  0  0  0  0  0  0
   63.1723   45.6394    9.1312 C   0  0  0  0  0  0  0  0  0  0  0  0
   68.4972   46.0825    8.7882 C   0  0  0  0  0  0  0  0  0  0  0  0
   66.2793   48.4511    7.5631 C   0  0  2  0  0  0  0  0  0  0  0  0
   63.0255   47.2642   11.4224 C   0  0  0  0  0  0  0  0  0  0  0  0
   62.9957   47.1774    8.8046 C   0  0  1  0  0  0  0  0  0  0  0  0
   67.7341   48.3523    8.1021 C   0  0  1  0  0  0  0  0  0  0  0  0
   70.1458   49.1784    7.8826 C   0  0  0  0  0  0  0  0  0  0  0  0
   63.1135   47.8941   10.1148 C   0  0  0  0  0  0  0  0  0  0  0  0
   62.2431   51.3785   12.7766 C   0  0  0  0  0  0  0  0  0  0  0  0
   62.1892   45.2247   10.2539 C   0  0  0  0  0  0  0  0  0  0  0  0
   66.2411   50.4654    7.3811 H   0  0  0  0  0  0  0  0  0  0  0  0
   63.9086   46.9982    7.0326 H   0  0  0  0  0  0  0  0  0  0  0  0
   68.3834   46.6966    6.8917 H   0  0  0  0  0  0  0  0  0  0  0  0
   69.1607   44.7915    7.2682 H   0  0  0  0  0  0  0  0  0  0  0  0
   69.9598   44.5773    8.6761 H   0  0  0  0  0  0  0  0  0  0  0  0
   68.4417   44.0009    8.5030 H   0  0  0  0  0  0  0  0  0  0  0  0
   62.1058   52.2881   10.8860 H   0  0  0  0  0  0  0  0  0  0  0  0
   61.2239   50.9181   10.9962 H   0  0  0  0  0  0  0  0  0  0  0  0
   60.6881   52.2926   11.6964 H   0  0  0  0  0  0  0  0  0  0  0  0
   61.7785   50.2996   14.5391 H   0  0  0  0  0  0  0  0  0  0  0  0
   60.4851   51.0808   13.9199 H   0  0  0  0  0  0  0  0  0  0  0  0
   61.0209   49.7063   13.2198 H   0  0  0  0  0  0  0  0  0  0  0  0
   63.1462   52.4468   14.3196 H   0  0  0  0  0  0  0  0  0  0  0  0
   63.2661   53.1902   12.8706 H   0  0  0  0  0  0  0  0  0  0  0  0
   61.8505   53.2113   13.6845 H   0  0  0  0  0  0  0  0  0  0  0  0
   60.6519   46.6233   10.0289 H   0  0  0  0  0  0  0  0  0  0  0  0
   60.3196   45.1906    9.3193 H   0  0  0  0  0  0  0  0  0  0  0  0
   60.2187   45.3408   10.9422 H   0  0  0  0  0  0  0  0  0  0  0  0
   63.1869   43.3899   10.4857 H   0  0  0  0  0  0  0  0  0  0  0  0
   61.7256   43.4140   11.2142 H   0  0  0  0  0  0  0  0  0  0  0  0
   61.8265   43.2638    9.5913 H   0  0  0  0  0  0  0  0  0  0  0  0
   65.7304   46.4821    8.0664 H   0  0  0  0  0  0  0  0  0  0  0  0
   65.4647   47.5433    9.2788 H   0  0  0  0  0  0  0  0  0  0  0  0
   63.3952   49.9898    9.5705 H   0  0  0  0  0  0  0  0  0  0  0  0
   64.1775   51.2050   12.0590 H   0  0  0  0  0  0  0  0  0  0  0  0
   63.8949   50.2842   13.3777 H   0  0  0  0  0  0  0  0  0  0  0  0
   73.8404   48.7820    8.7471 H   0  0  0  0  0  0  0  0  0  0  0  0
   72.1678   48.4573   10.4487 H   0  0  0  0  0  0  0  0  0  0  0  0
   73.1729   49.1624    6.4934 H   0  0  0  0  0  0  0  0  0  0  0  0
   69.8106   48.8292    9.9243 H   0  0  0  0  0  0  0  0  0  0  0  0
   70.8560   49.5399    5.9401 H   0  0  0  0  0  0  0  0  0  0  0  0
   68.3766   50.2685    7.6382 H   0  0  0  0  0  0  0  0  0  0  0  0
   68.6349   49.1949    6.4352 H   0  0  0  0  0  0  0  0  0  0  0  0
   62.1986   45.5865   12.3323 H   0  0  0  0  0  0  0  0  0  0  0  0
   63.6929   45.3184   11.7307 H   0  0  0  0  0  0  0  0  0  0  0  0
   64.1106   45.4696    9.4323 H   0  0  0  0  0  0  0  0  0  0  0  0
   62.9835   45.1018    8.3094 H   0  0  0  0  0  0  0  0  0  0  0  0
   66.2698   48.2761    6.5786 H   0  0  0  0  0  0  0  0  0  0  0  0
   62.0922   47.3397    8.4079 H   0  0  0  0  0  0  0  0  0  0  0  0
   67.7325   48.5223    9.0876 H   0  0  0  0  0  0  0  0  0  0  0  0
  1 24  2  0  0  0  0
  2 25  1  0  0  0  0
  3  6  1  0  0  0  0
  3 26  2  0  0  0  0
  4 13  1  0  0  0  0
  4 27  1  0  0  0  0
  5 24  1  0  0  0  0
  5 28  1  0  0  0  0
  6 14  1  0  0  0  0
  6 15  1  0  0  0  0
  7 24  1  0  0  0  0
  8 31  1  0  0  0  0
  9 31  1  0  0  0  0
 10 31  1  0  0  0  0
 11 32  1  0  0  0  0
 12 32  1  0  0  0  0
 13 25  1  0  0  0  0
 14 30  2  0  0  0  0
 15 31  1  0  0  0  0
 16 17  2  0  0  0  0
 16 18  1  0  0  0  0
 17 19  1  0  0  0  0
 18 20  2  0  0  0  0
 19 29  2  0  0  0  0
 20 29  1  0  0  0  0
 21 28  1  0  0  0  0
 21 29  1  0  0  0  0
 22 26  1  0  0  0  0
 22 32  1  0  0  0  0
 23 27  1  0  0  0  0
 23 32  1  0  0  0  0
 25 28  1  0  0  0  0
 26 30  1  0  0  0  0
 27 30  1  0  0  0  0
  2 33  1  0  0  0  0
  4 34  1  0  0  0  0
  5 35  1  0  0  0  0
  7 36  1  0  0  0  0
  7 37  1  0  0  0  0
  7 38  1  0  0  0  0
  8 39  1  0  0  0  0
  8 40  1  0  0  0  0
  8 41  1  0  0  0  0
  9 42  1  0  0  0  0
  9 43  1  0  0  0  0
  9 44  1  0  0  0  0
 10 45  1  0  0  0  0
 10 46  1  0  0  0  0
 10 47  1  0  0  0  0
 11 48  1  0  0  0  0
 11 49  1  0  0  0  0
 11 50  1  0  0  0  0
 12 51  1  0  0  0  0
 12 52  1  0  0  0  0
 12 53  1  0  0  0  0
 13 54  1  0  0  0  0
 13 55  1  0  0  0  0
 14 56  1  0  0  0  0
 15 57  1  0  0  0  0
 15 58  1  0  0  0  0
 16 59  1  0  0  0  0
 17 60  1  0  0  0  0
 18 61  1  0  0  0  0
 19 62  1  0  0  0  0
 20 63  1  0  0  0  0
 21 64  1  0  0  0  0
 21 65  1  0  0  0  0
 22 66  1  0  0  0  0
 22 67  1  0  0  0  0
 23 68  1  0  0  0  0
 23 69  1  0  0  0  0
 25 70  1  0  0  0  0
 27 71  1  0  0  0  0
 28 72  1  0  0  0  0
M  END
> <pdb_id>
4EWO

> <uniprot_id>
P56817

> <usmiles>
O=C(N[C@H]([C@H](O)CN[C@@H]1C=2C(=NN(C2)CC(C)(C)C)CC(C1)(C)C)Cc3ccccc3)C

$$$$
99U_A_201
          07212401333D 1   1.00000     0.00000     0
            
 41 44  0  0  0  0            999 V2000
  -12.9496  -20.9514  -17.1687 S   0  0  0  0  0  0  0  0  0  0  0  0
  -12.6865  -19.5742  -16.7456 O   0  0  0  0  0  0  0  0  0  0  0  0
  -11.7236  -21.7134  -17.1042 O   0  0  0  0  0  0  0  0  0  0  0  0
  -16.4882  -23.8582  -23.5726 O   0  0  0  0  0  0  0  0  0  0  0  0
  -14.1639  -21.6191  -16.1466 N   0  0  0  0  0  0  0  0  0  0  0  0
  -16.1364  -21.6687  -22.5429 N   0  0  0  0  0  0  0  0  0  0  0  0
  -18.1511  -20.4486  -22.6785 C   0  0  0  0  0  0  0  0  0  0  0  0
  -13.8119  -25.0830  -19.6936 C   0  0  0  0  0  0  0  0  0  0  0  0
  -14.3991  -19.7374  -19.3011 C   0  0  0  0  0  0  0  0  0  0  0  0
  -14.6515  -25.0310  -21.0055 C   0  0  0  0  0  0  0  0  0  0  0  0
  -13.5030  -23.8023  -18.8817 C   0  0  0  0  0  0  0  0  0  0  0  0
  -15.2124  -19.7989  -20.6143 C   0  0  0  0  0  0  0  0  0  0  0  0
  -16.8481  -20.7478  -23.4142 C   0  0  0  0  0  0  0  0  0  0  0  0
  -14.1424  -22.8310  -15.6157 C   0  0  0  0  0  0  0  0  0  0  0  0
  -15.5875  -20.9155  -15.7588 C   0  0  0  0  0  0  0  0  0  0  0  0
  -15.6595  -23.2242  -15.4010 C   0  0  0  0  0  0  0  0  0  0  0  0
  -16.4051  -21.8740  -15.2459 C   0  0  0  0  0  0  0  0  0  0  0  0
  -16.0267  -23.1708  -22.6781 C   0  0  0  0  0  0  0  0  0  0  0  0
  -13.8010  -21.0409  -18.7096 C   0  0  0  0  0  0  0  0  0  0  0  0
  -15.4024  -21.2186  -21.2640 C   0  0  0  0  0  0  0  0  0  0  0  0
  -15.1465  -23.6724  -21.4562 C   0  0  0  0  0  0  0  0  0  0  0  0
  -14.0322  -22.4556  -19.3866 C   0  0  0  0  0  0  0  0  0  0  0  0
  -14.8200  -22.4710  -20.6423 C   0  0  0  0  0  0  0  0  0  0  0  0
  -17.9648  -20.3105  -21.7367 H   0  0  0  0  0  0  0  0  0  0  0  0
  -18.7601  -21.1966  -22.7825 H   0  0  0  0  0  0  0  0  0  0  0  0
  -18.5558  -19.6486  -23.0486 H   0  0  0  0  0  0  0  0  0  0  0  0
  -13.5024  -25.9028  -19.3835 H   0  0  0  0  0  0  0  0  0  0  0  0
  -14.2657  -18.9237  -18.8719 H   0  0  0  0  0  0  0  0  0  0  0  0
  -14.8436  -25.8021  -21.4887 H   0  0  0  0  0  0  0  0  0  0  0  0
  -13.0102  -23.8508  -18.0940 H   0  0  0  0  0  0  0  0  0  0  0  0
  -15.5833  -19.0355  -20.9933 H   0  0  0  0  0  0  0  0  0  0  0  0
  -16.3349  -19.9348  -23.5406 H   0  0  0  0  0  0  0  0  0  0  0  0
  -17.0333  -21.1688  -24.2683 H   0  0  0  0  0  0  0  0  0  0  0  0
  -13.6767  -22.8133  -14.7652 H   0  0  0  0  0  0  0  0  0  0  0  0
  -13.7203  -23.4548  -16.2258 H   0  0  0  0  0  0  0  0  0  0  0  0
  -15.9904  -20.5310  -16.5527 H   0  0  0  0  0  0  0  0  0  0  0  0
  -15.4379  -20.2262  -15.0929 H   0  0  0  0  0  0  0  0  0  0  0  0
  -15.7587  -23.7546  -14.5949 H   0  0  0  0  0  0  0  0  0  0  0  0
  -15.9936  -23.7083  -16.1725 H   0  0  0  0  0  0  0  0  0  0  0  0
  -17.2371  -21.8980  -15.7443 H   0  0  0  0  0  0  0  0  0  0  0  0
  -16.5771  -21.6963  -14.3082 H   0  0  0  0  0  0  0  0  0  0  0  0
  1  2  2  0  0  0  0
  1  3  2  0  0  0  0
  1  5  1  0  0  0  0
  1 19  1  0  0  0  0
  4 18  2  0  0  0  0
  5 14  1  0  0  0  0
  5 15  1  0  0  0  0
  6 13  1  0  0  0  0
  6 18  1  0  0  0  0
  6 20  1  0  0  0  0
  7 13  1  0  0  0  0
  7 24  1  0  0  0  0
  7 25  1  0  0  0  0
  7 26  1  0  0  0  0
  8 10  2  0  0  0  0
  8 11  1  0  0  0  0
  8 27  1  0  0  0  0
  9 12  1  0  0  0  0
  9 19  2  0  0  0  0
  9 28  1  0  0  0  0
 10 21  1  0  0  0  0
 10 29  1  0  0  0  0
 11 22  2  0  0  0  0
 11 30  1  0  0  0  0
 12 20  2  0  0  0  0
 12 31  1  0  0  0  0
 13 32  1  0  0  0  0
 13 33  1  0  0  0  0
 14 16  1  0  0  0  0
 14 34  1  0  0  0  0
 14 35  1  0  0  0  0
 15 17  1  0  0  0  0
 15 36  1  0  0  0  0
 15 37  1  0  0  0  0
 16 17  1  0  0  0  0
 16 38  1  0  0  0  0
 16 39  1  0  0  0  0
 17 40  1  0  0  0  0
 17 41  1  0  0  0  0
 18 21  1  0  0  0  0
 19 22  1  0  0  0  0
 20 23  1  0  0  0  0
 21 23  2  0  0  0  0
 22 23  1  0  0  0  0
M  END
> <pdb_id>
5Z90

> <uniprot_id>
O60885

> <usmiles>
S(=O)(=O)(N1CCCC1)c2c3c4c(N(C(=O)c4ccc3)CC)cc2

$$$$
9AA_A_304
          07192416293D 1   1.00000     0.00000     0
            
 33 34  0  0  0  0            999 V2000
   -7.1526    1.3272   17.3431 S   0  0  0  0  0  0  0  0  0  0  0  0
   -3.8176   -0.5792   14.2800 O   0  0  0  0  0  0  0  0  0  0  0  0
   -2.5269    1.5734   15.9582 O   0  0  0  0  0  0  0  0  0  0  0  0
   -2.6797    7.9299   14.7440 O   0  0  0  0  0  0  0  0  0  0  0  0
   -5.6257    4.2577   15.1209 O   0  0  0  0  0  0  0  0  0  0  0  0
   -5.4228   -0.1234   15.8261 N   0  0  0  0  0  0  0  0  0  0  0  0
   -4.6383    1.9023   16.4484 N   0  0  0  0  0  0  0  0  0  0  0  0
   -1.3507    8.4580   14.5964 C   0  0  0  0  0  0  0  0  0  0  0  0
   -6.6068    5.1709   15.5990 C   0  0  0  0  0  0  0  0  0  0  0  0
   -1.9392    5.6877   14.0149 C   0  0  0  0  0  0  0  0  0  0  0  0
   -2.2370    4.3271   13.8997 C   0  0  0  0  0  0  0  0  0  0  0  0
   -4.0912    6.1235   14.9132 C   0  0  0  0  0  0  0  0  0  0  0  0
   -3.8435    2.4200   14.1431 C   0  0  0  0  0  0  0  0  0  0  0  0
   -5.7222    1.0190   16.5559 C   0  0  0  0  0  0  0  0  0  0  0  0
   -4.2974    0.2255   15.0894 C   0  0  0  0  0  0  0  0  0  0  0  0
   -2.8532    6.5590   14.5101 C   0  0  0  0  0  0  0  0  0  0  0  0
   -4.4271    4.8119   14.7660 C   0  0  0  0  0  0  0  0  0  0  0  0
   -3.4841    3.8947   14.2878 C   0  0  0  0  0  0  0  0  0  0  0  0
   -3.8691    1.5920   15.3661 C   0  0  1  0  0  0  0  0  0  0  0  0
   -1.8540    1.3527   15.2521 H   0  0  0  0  0  0  0  0  0  0  0  0
   -5.9068   -0.9984   15.8297 H   0  0  0  0  0  0  0  0  0  0  0  0
   -4.4547    2.6564   17.0790 H   0  0  0  0  0  0  0  0  0  0  0  0
   -1.3587    9.4393   14.7887 H   0  0  0  0  0  0  0  0  0  0  0  0
   -0.7361    7.9978   15.2371 H   0  0  0  0  0  0  0  0  0  0  0  0
   -1.0329    8.3041   13.6608 H   0  0  0  0  0  0  0  0  0  0  0  0
   -7.4418    4.6718   15.8307 H   0  0  0  0  0  0  0  0  0  0  0  0
   -6.2600    5.6366   16.4131 H   0  0  0  0  0  0  0  0  0  0  0  0
   -6.8080    5.8458   14.8891 H   0  0  0  0  0  0  0  0  0  0  0  0
   -1.0415    6.0229   13.7288 H   0  0  0  0  0  0  0  0  0  0  0  0
   -1.5598    3.6832   13.5437 H   0  0  0  0  0  0  0  0  0  0  0  0
   -4.7439    6.7670   15.3133 H   0  0  0  0  0  0  0  0  0  0  0  0
   -3.1769    2.0107   13.5201 H   0  0  0  0  0  0  0  0  0  0  0  0
   -4.7546    2.3743   13.7334 H   0  0  0  0  0  0  0  0  0  0  0  0
  1 14  2  0  0  0  0
  2 15  2  0  0  0  0
  3 19  1  0  0  0  0
  4  8  1  0  0  0  0
  4 16  1  0  0  0  0
  5  9  1  0  0  0  0
  5 17  1  0  0  0  0
  6 14  1  0  0  0  0
  6 15  1  0  0  0  0
  7 14  1  0  0  0  0
  7 19  1  0  0  0  0
 10 11  2  0  0  0  0
 10 16  1  0  0  0  0
 11 18  1  0  0  0  0
 12 16  2  0  0  0  0
 12 17  1  0  0  0  0
 13 18  1  0  0  0  0
 13 19  1  0  0  0  0
 15 19  1  0  0  0  0
 17 18  2  0  0  0  0
  3 20  1  0  0  0  0
  6 21  1  0  0  0  0
  7 22  1  0  0  0  0
  8 23  1  0  0  0  0
  8 24  1  0  0  0  0
  8 25  1  0  0  0  0
  9 26  1  0  0  0  0
  9 27  1  0  0  0  0
  9 28  1  0  0  0  0
 10 29  1  0  0  0  0
 11 30  1  0  0  0  0
 12 31  1  0  0  0  0
 13 32  1  0  0  0  0
 13 33  1  0  0  0  0
M  END
> <pdb_id>
5VGY

> <uniprot_id>
P00918

> <usmiles>
S=C1NC(=O)[C@](O)(N1)Cc2c(OC)cc(OC)cc2

$$$$
9BA_A_401
          07202411533D 1   1.00000     0.00000     0
            
 85 86  0  0  0  0            999 V2000
   20.7160  -10.2110   29.4070 O   0  0  0  0  0  0  0  0  0  0  0  0
   19.8620   -5.4540   25.1690 O   0  0  0  0  0  0  0  0  0  0  0  0
   16.7550   -7.8980   27.0240 O   0  0  0  0  0  0  0  0  0  0  0  0
   19.8790  -10.2740   24.5100 O   0  0  0  0  0  0  0  0  0  0  0  0
   21.8880   -8.1210   26.1230 O   0  0  0  0  0  0  0  0  0  0  0  0
   23.1060   -2.2180   20.7370 N   0  0  0  0  0  0  0  0  0  0  0  0
   24.1640   -3.6890   19.2120 N   0  0  0  0  0  0  0  0  0  0  0  0
   22.0910   -4.3030   20.1820 N   0  0  0  0  0  0  0  0  0  0  0  0
   20.4540  -10.4440   27.1580 N   0  0  0  0  0  0  0  0  0  0  0  0
   19.2160   -7.4770   24.4170 N   0  0  0  0  0  0  0  0  0  0  0  0
   21.9300   -8.0820   23.8780 N   0  0  0  0  0  0  0  0  0  0  0  0
   19.0440   -8.1850   27.0470 N   0  0  0  0  0  0  0  0  0  0  0  0
   22.0040  -10.9200   23.9840 N   0  0  0  0  0  0  0  0  0  0  0  0
   25.0350   -2.6430   18.6930 C   0  0  0  0  0  0  0  0  0  0  0  0
   16.9520   -7.7970   22.6590 C   0  0  0  0  0  0  0  0  0  0  0  0
   19.1080  -12.8170   23.4190 C   0  0  0  0  0  0  0  0  0  0  0  0
   19.4690  -10.9890   21.7030 C   0  0  0  0  0  0  0  0  0  0  0  0
   24.1410   -9.9660   24.5380 C   0  0  0  0  0  0  0  0  0  0  0  0
   20.1970   -5.6560   31.1680 C   0  0  0  0  0  0  0  0  0  0  0  0
   19.2100   -6.5650   31.4660 C   0  0  0  0  0  0  0  0  0  0  0  0
   20.8540   -5.7030   29.9600 C   0  0  0  0  0  0  0  0  0  0  0  0
   18.8800   -7.5610   30.5740 C   0  0  0  0  0  0  0  0  0  0  0  0
   20.5320   -6.7100   29.0370 C   0  0  0  0  0  0  0  0  0  0  0  0
   20.9440   -4.1810   21.0320 C   0  0  0  0  0  0  0  0  0  0  0  0
   21.4910  -11.4470   26.9620 C   0  0  0  0  0  0  0  0  0  0  0  0
   16.9330   -8.2400   24.1360 C   0  0  0  0  0  0  0  0  0  0  0  0
   21.2170   -4.6730   22.4500 C   0  0  0  0  0  0  0  0  0  0  0  0
   21.4650   -6.1660   22.4350 C   0  0  0  0  0  0  0  0  0  0  0  0
   22.7760  -10.8380   26.3810 C   0  0  0  0  0  0  0  0  0  0  0  0
   23.1120   -3.3490   20.0950 C   0  0  0  0  0  0  0  0  0  0  0  0
   20.1900   -9.8520   28.3700 C   0  0  0  0  0  0  0  0  0  0  0  0
   20.1230   -6.4910   24.5490 C   0  0  0  0  0  0  0  0  0  0  0  0
   17.8500   -7.8580   26.4320 C   0  0  0  0  0  0  0  0  0  0  0  0
   20.6410  -10.9480   23.8270 C   0  0  0  0  0  0  0  0  0  0  0  0
   22.1370   -8.7000   25.0730 C   0  0  0  0  0  0  0  0  0  0  0  0
   19.5370   -7.6500   29.3590 C   0  0  0  0  0  0  0  0  0  0  0  0
   20.1220  -11.8560   22.7520 C   0  0  0  0  0  0  0  0  0  0  0  0
   17.8630   -7.3490   24.9860 C   0  0  1  0  0  0  0  0  0  0  0  0
   21.4860   -6.6940   23.8720 C   0  0  1  0  0  0  0  0  0  0  0  0
   19.1220   -8.7460   28.3740 C   0  0  1  0  0  0  0  0  0  0  0  0
   22.7010  -10.1490   24.9940 C   0  0  2  0  0  0  0  0  0  0  0  0
   22.3190   -2.0240   21.3400 H   0  0  0  0  0  0  0  0  0  0  0  0
   24.6820   -4.5170   19.4890 H   0  0  0  0  0  0  0  0  0  0  0  0
   21.8950   -4.7580   19.2950 H   0  0  0  0  0  0  0  0  0  0  0  0
   19.8580  -10.2820   26.3540 H   0  0  0  0  0  0  0  0  0  0  0  0
   19.4240   -8.3370   23.9210 H   0  0  0  0  0  0  0  0  0  0  0  0
   22.0640   -8.5500   22.9880 H   0  0  0  0  0  0  0  0  0  0  0  0
   19.9320   -8.0060   26.5950 H   0  0  0  0  0  0  0  0  0  0  0  0
   22.5810  -11.4130   23.3130 H   0  0  0  0  0  0  0  0  0  0  0  0
   24.5540   -1.6650   18.7010 H   0  0  0  0  0  0  0  0  0  0  0  0
   25.9090   -2.5890   19.3350 H   0  0  0  0  0  0  0  0  0  0  0  0
   25.3840   -2.8060   17.6740 H   0  0  0  0  0  0  0  0  0  0  0  0
   16.1080   -8.2090   22.1090 H   0  0  0  0  0  0  0  0  0  0  0  0
   17.8460   -8.1330   22.1360 H   0  0  0  0  0  0  0  0  0  0  0  0
   16.8990   -6.7150   22.5470 H   0  0  0  0  0  0  0  0  0  0  0  0
   18.6410  -13.4920   22.7030 H   0  0  0  0  0  0  0  0  0  0  0  0
   18.2970  -12.2820   23.9120 H   0  0  0  0  0  0  0  0  0  0  0  0
   19.5870  -13.4320   24.1780 H   0  0  0  0  0  0  0  0  0  0  0  0
   19.1850  -11.5630   20.8230 H   0  0  0  0  0  0  0  0  0  0  0  0
   20.1120  -10.1790   21.3600 H   0  0  0  0  0  0  0  0  0  0  0  0
   18.5670  -10.5140   22.0860 H   0  0  0  0  0  0  0  0  0  0  0  0
   24.2210   -9.4050   23.6090 H   0  0  0  0  0  0  0  0  0  0  0  0
   24.6450  -10.9080   24.3260 H   0  0  0  0  0  0  0  0  0  0  0  0
   24.7320   -9.4320   25.2810 H   0  0  0  0  0  0  0  0  0  0  0  0
   20.4890   -4.9100   31.9030 H   0  0  0  0  0  0  0  0  0  0  0  0
   18.6760   -6.5000   32.4130 H   0  0  0  0  0  0  0  0  0  0  0  0
   21.6090   -4.9590   29.7130 H   0  0  0  0  0  0  0  0  0  0  0  0
   18.1030   -8.2760   30.8390 H   0  0  0  0  0  0  0  0  0  0  0  0
   21.0630   -6.7310   28.0870 H   0  0  0  0  0  0  0  0  0  0  0  0
   20.1150   -4.7630   20.6330 H   0  0  0  0  0  0  0  0  0  0  0  0
   20.5750   -3.1570   21.0570 H   0  0  0  0  0  0  0  0  0  0  0  0
   21.7270  -11.9560   27.8950 H   0  0  0  0  0  0  0  0  0  0  0  0
   21.0790  -12.2280   26.3250 H   0  0  0  0  0  0  0  0  0  0  0  0
   15.9150   -8.2120   24.5210 H   0  0  0  0  0  0  0  0  0  0  0  0
   17.2480   -9.2790   24.2190 H   0  0  0  0  0  0  0  0  0  0  0  0
   22.0290   -4.1170   22.9170 H   0  0  0  0  0  0  0  0  0  0  0  0
   20.3380   -4.4110   23.0350 H   0  0  0  0  0  0  0  0  0  0  0  0
   20.7570   -6.6880   21.7930 H   0  0  0  0  0  0  0  0  0  0  0  0
   22.4310   -6.3800   21.9820 H   0  0  0  0  0  0  0  0  0  0  0  0
   23.1780  -10.1340   27.1080 H   0  0  0  0  0  0  0  0  0  0  0  0
   23.5580  -11.5950   26.3440 H   0  0  0  0  0  0  0  0  0  0  0  0
   20.9230  -12.4450   22.3100 H   0  0  0  0  0  0  0  0  0  0  0  0
   17.5030   -6.3240   24.9180 H   0  0  0  0  0  0  0  0  0  0  0  0
   22.1970   -6.1000   24.4430 H   0  0  0  0  0  0  0  0  0  0  0  0
   18.1830   -9.2210   28.6520 H   0  0  0  0  0  0  0  0  0  0  0  0
  1 31  2  0  0  0  0
  2 32  2  0  0  0  0
  3 33  2  0  0  0  0
  4 34  2  0  0  0  0
  5 35  2  0  0  0  0
  6 30  2  0  0  0  0
  6 42  1  0  0  0  0
  7 14  1  0  0  0  0
  7 30  1  0  0  0  0
  7 43  1  0  0  0  0
  8 24  1  0  0  0  0
  8 30  1  0  0  0  0
  8 44  1  0  0  0  0
  9 25  1  0  0  0  0
  9 31  1  0  0  0  0
  9 45  1  0  0  0  0
 10 32  1  0  0  0  0
 10 38  1  0  0  0  0
 10 46  1  0  0  0  0
 11 35  1  0  0  0  0
 11 39  1  0  0  0  0
 11 47  1  0  0  0  0
 12 33  1  0  0  0  0
 12 40  1  0  0  0  0
 12 48  1  0  0  0  0
 13 34  1  0  0  0  0
 13 41  1  0  0  0  0
 13 49  1  0  0  0  0
 14 50  1  0  0  0  0
 14 51  1  0  0  0  0
 14 52  1  0  0  0  0
 15 26  1  0  0  0  0
 15 53  1  0  0  0  0
 15 54  1  0  0  0  0
 15 55  1  0  0  0  0
 16 37  1  0  0  0  0
 16 56  1  0  0  0  0
 16 57  1  0  0  0  0
 16 58  1  0  0  0  0
 17 37  1  0  0  0  0
 17 59  1  0  0  0  0
 17 60  1  0  0  0  0
 17 61  1  0  0  0  0
 18 41  1  0  0  0  0
 18 62  1  0  0  0  0
 18 63  1  0  0  0  0
 18 64  1  0  0  0  0
 19 20  2  0  0  0  0
 19 21  1  0  0  0  0
 19 65  1  0  0  0  0
 20 22  1  0  0  0  0
 20 66  1  0  0  0  0
 21 23  2  0  0  0  0
 21 67  1  0  0  0  0
 22 36  2  0  0  0  0
 22 68  1  0  0  0  0
 23 36  1  0  0  0  0
 23 69  1  0  0  0  0
 24 27  1  0  0  0  0
 24 70  1  0  0  0  0
 24 71  1  0  0  0  0
 25 29  1  0  0  0  0
 25 72  1  0  0  0  0
 25 73  1  0  0  0  0
 26 38  1  0  0  0  0
 26 74  1  0  0  0  0
 26 75  1  0  0  0  0
 27 28  1  0  0  0  0
 27 76  1  0  0  0  0
 27 77  1  0  0  0  0
 28 39  1  0  0  0  0
 28 78  1  0  0  0  0
 28 79  1  0  0  0  0
 29 41  1  0  0  0  0
 29 80  1  0  0  0  0
 29 81  1  0  0  0  0
 31 40  1  0  0  0  0
 32 39  1  0  0  0  0
 33 38  1  0  0  0  0
 34 37  1  0  0  0  0
 35 41  1  0  0  0  0
 36 40  1  0  0  0  0
 37 82  1  0  0  0  0
 38 83  1  0  0  0  0
 39 84  1  0  0  0  0
 40 85  1  0  0  0  0
M  END
> <pdb_id>
5VFC

> <uniprot_id>
P61964

> <usmiles>
O=C1N[C@H](C(=O)N[C@H](C(=O)N[C@H](c2ccccc2)C(=O)NCC[C@]1(NC(=O)C(C)C)C)CC)CCCNC(=N)NC

$$$$
9BD_A_1
          07202403043D 1   1.00000     0.00000     0
            
 46 49  0  0  0  0            999 V2000
   91.5431   15.1188   14.6262 O   0  0  0  0  0  0  0  0  0  0  0  0
   86.7722   18.2569   14.1750 O   0  0  0  0  0  0  0  0  0  0  0  0
   88.2961   16.1077   14.4179 O   0  0  0  0  0  0  0  0  0  0  0  0
   81.0328   12.7285   10.9584 N   0  0  0  0  0  0  0  0  0  0  0  0
   77.9137   18.1204   10.9633 N   0  0  0  0  0  0  0  0  0  0  0  0
   84.8971   13.3085   12.6038 N   0  0  0  0  0  0  0  0  0  0  0  0
   80.5919   14.9786   11.1725 N   0  0  0  0  0  0  0  0  0  0  0  0
   79.9737   17.2594   11.3417 N   0  0  0  0  0  0  0  0  0  0  0  0
   92.2754   16.2710   14.2058 C   0  0  0  0  0  0  0  0  0  0  0  0
   86.4682   19.4191   13.4108 C   0  0  0  0  0  0  0  0  0  0  0  0
   90.3922   15.4710   15.3972 C   0  0  0  0  0  0  0  0  0  0  0  0
   89.1545   14.9968   14.6456 C   0  0  0  0  0  0  0  0  0  0  0  0
   78.6285   17.0180   11.0993 C   0  0  0  0  0  0  0  0  0  0  0  0
   78.8218   19.1330   11.1249 C   0  0  0  0  0  0  0  0  0  0  0  0
   83.6632   13.1547   12.0926 C   0  0  0  0  0  0  0  0  0  0  0  0
   80.0930   18.6383   11.3605 C   0  0  0  0  0  0  0  0  0  0  0  0
   86.5426   14.6790   13.4883 C   0  0  0  0  0  0  0  0  0  0  0  0
   84.9634   16.9204   13.2368 C   0  0  0  0  0  0  0  0  0  0  0  0
   82.2007   16.5274   12.0751 C   0  0  0  0  0  0  0  0  0  0  0  0
   81.4699   13.9763   11.3581 C   0  0  0  0  0  0  0  0  0  0  0  0
   86.2434   17.0588   13.7701 C   0  0  0  0  0  0  0  0  0  0  0  0
   87.0489   15.9138   13.8933 C   0  0  0  0  0  0  0  0  0  0  0  0
   80.9510   16.2366   11.5298 C   0  0  0  0  0  0  0  0  0  0  0  0
   85.2726   14.5408   12.9601 C   0  0  0  0  0  0  0  0  0  0  0  0
   82.7468   14.1855   11.8970 C   0  0  0  0  0  0  0  0  0  0  0  0
   84.4454   15.6695   12.8276 C   0  0  0  0  0  0  0  0  0  0  0  0
   83.1352   15.4858   12.2728 C   0  0  0  0  0  0  0  0  0  0  0  0
   81.6288   11.9324   11.0641 H   0  0  0  0  0  0  0  0  0  0  0  0
   80.1204   12.6211   10.5634 H   0  0  0  0  0  0  0  0  0  0  0  0
   93.0702   15.9840   13.6711 H   0  0  0  0  0  0  0  0  0  0  0  0
   91.6877   16.8526   13.6434 H   0  0  0  0  0  0  0  0  0  0  0  0
   92.5810   16.7829   15.0086 H   0  0  0  0  0  0  0  0  0  0  0  0
   86.9176   20.2136   13.8192 H   0  0  0  0  0  0  0  0  0  0  0  0
   86.7947   19.2966   12.4736 H   0  0  0  0  0  0  0  0  0  0  0  0
   85.4787   19.5634   13.4028 H   0  0  0  0  0  0  0  0  0  0  0  0
   90.3559   16.4630   15.5180 H   0  0  0  0  0  0  0  0  0  0  0  0
   90.4355   15.0275   16.2925 H   0  0  0  0  0  0  0  0  0  0  0  0
   89.4265   14.5984   13.7697 H   0  0  0  0  0  0  0  0  0  0  0  0
   88.6748   14.3088   15.1902 H   0  0  0  0  0  0  0  0  0  0  0  0
   78.2387   16.0994   11.0339 H   0  0  0  0  0  0  0  0  0  0  0  0
   78.5952   20.1059   11.0786 H   0  0  0  0  0  0  0  0  0  0  0  0
   83.3820   12.2308   11.8333 H   0  0  0  0  0  0  0  0  0  0  0  0
   80.9269   19.1686   11.5132 H   0  0  0  0  0  0  0  0  0  0  0  0
   87.1176   13.8663   13.5833 H   0  0  0  0  0  0  0  0  0  0  0  0
   84.3907   17.7345   13.1399 H   0  0  0  0  0  0  0  0  0  0  0  0
   82.4343   17.4671   12.3248 H   0  0  0  0  0  0  0  0  0  0  0  0
  1  9  1  0  0  0  0
  1 11  1  0  0  0  0
  2 10  1  0  0  0  0
  2 21  1  0  0  0  0
  3 12  1  0  0  0  0
  3 22  1  0  0  0  0
  4 20  1  0  0  0  0
  5 13  2  0  0  0  0
  5 14  1  0  0  0  0
  6 15  2  0  0  0  0
  6 24  1  0  0  0  0
  7 20  2  0  0  0  0
  7 23  1  0  0  0  0
  8 13  1  0  0  0  0
  8 16  1  0  0  0  0
  8 23  1  0  0  0  0
 11 12  1  0  0  0  0
 14 16  2  0  0  0  0
 15 25  1  0  0  0  0
 17 22  1  0  0  0  0
 17 24  2  0  0  0  0
 18 21  1  0  0  0  0
 18 26  2  0  0  0  0
 19 23  2  0  0  0  0
 19 27  1  0  0  0  0
 20 25  1  0  0  0  0
 21 22  2  0  0  0  0
 24 26  1  0  0  0  0
 25 27  2  0  0  0  0
 26 27  1  0  0  0  0
  4 28  1  0  0  0  0
  4 29  1  0  0  0  0
  9 30  1  0  0  0  0
  9 31  1  0  0  0  0
  9 32  1  0  0  0  0
 10 33  1  0  0  0  0
 10 34  1  0  0  0  0
 10 35  1  0  0  0  0
 11 36  1  0  0  0  0
 11 37  1  0  0  0  0
 12 38  1  0  0  0  0
 12 39  1  0  0  0  0
 13 40  1  0  0  0  0
 14 41  1  0  0  0  0
 15 42  1  0  0  0  0
 16 43  1  0  0  0  0
 17 44  1  0  0  0  0
 18 45  1  0  0  0  0
 19 46  1  0  0  0  0
M  END
> <pdb_id>
3H9O

> <uniprot_id>
O15530

> <usmiles>
O(c1c(OC)cc2c(ncc3c(nc(N4C=NC=C4)cc32)N)c1)CCOC

$$$$
9C3_B_1001
          07202410523D 1   1.00000     0.00000     0
            
 40 42  0  0  0  0            999 V2000
   72.7295   48.1064   44.0203 S   0  0  0  0  0  0  0  0  0  0  0  0
   71.3364   47.9352   43.6228 O   0  0  0  0  0  0  0  0  0  0  0  0
   73.2154   47.4420   45.1973 O   0  0  0  0  0  0  0  0  0  0  0  0
   77.1705   43.5055   39.8981 O   0  0  0  0  0  0  0  0  0  0  0  0
   73.7443   47.8663   42.7761 N   0  0  0  0  0  0  0  0  0  0  0  0
   73.6538   50.1536   42.0744 N   0  0  0  0  0  0  0  0  0  0  0  0
   78.4201   42.6124   41.6524 C   0  0  0  0  0  0  0  0  0  0  0  0
   76.8898   41.2870   40.3002 C   0  0  0  0  0  0  0  0  0  0  0  0
   72.9492   49.8276   44.3490 C   0  0  0  0  0  0  0  0  0  0  0  0
   72.6950   50.5645   43.0658 C   0  0  0  0  0  0  0  0  0  0  0  0
   74.1363   51.0967   41.2020 C   0  0  0  0  0  0  0  0  0  0  0  0
   75.0100   50.8183   40.2392 C   0  0  0  0  0  0  0  0  0  0  0  0
   75.2228   44.8304   40.3537 C   0  0  0  0  0  0  0  0  0  0  0  0
   77.4185   45.8005   40.2518 C   0  0  0  0  0  0  0  0  0  0  0  0
   75.4580   49.4721   40.1077 C   0  0  0  0  0  0  0  0  0  0  0  0
   74.7009   46.0787   40.6072 C   0  0  0  0  0  0  0  0  0  0  0  0
   76.8965   47.0395   40.5030 C   0  0  0  0  0  0  0  0  0  0  0  0
   77.0757   42.6174   40.9783 C   0  0  0  0  0  0  0  0  0  0  0  0
   76.5826   44.7133   40.1821 C   0  0  0  0  0  0  0  0  0  0  0  0
   74.0822   48.8476   41.9962 C   0  0  0  0  0  0  0  0  0  0  0  0
   75.5409   47.1706   40.6810 C   0  0  0  0  0  0  0  0  0  0  0  0
   75.0320   48.4975   40.9266 C   0  0  0  0  0  0  0  0  0  0  0  0
   78.3990   41.9887   42.4338 H   0  0  0  0  0  0  0  0  0  0  0  0
   79.1176   42.3096   41.0029 H   0  0  0  0  0  0  0  0  0  0  0  0
   78.6378   43.5358   41.9689 H   0  0  0  0  0  0  0  0  0  0  0  0
   76.8096   40.5688   40.9914 H   0  0  0  0  0  0  0  0  0  0  0  0
   76.0585   41.3093   39.7447 H   0  0  0  0  0  0  0  0  0  0  0  0
   77.6776   41.0988   39.7138 H   0  0  0  0  0  0  0  0  0  0  0  0
   73.8830   49.9994   44.6628 H   0  0  0  0  0  0  0  0  0  0  0  0
   72.3017   50.1274   45.0496 H   0  0  0  0  0  0  0  0  0  0  0  0
   71.7718   50.3586   42.7412 H   0  0  0  0  0  0  0  0  0  0  0  0
   72.7810   51.5481   43.2243 H   0  0  0  0  0  0  0  0  0  0  0  0
   73.8152   52.0392   41.2950 H   0  0  0  0  0  0  0  0  0  0  0  0
   75.3433   51.5335   39.6248 H   0  0  0  0  0  0  0  0  0  0  0  0
   74.6281   44.0286   40.2957 H   0  0  0  0  0  0  0  0  0  0  0  0
   78.4032   45.6870   40.1196 H   0  0  0  0  0  0  0  0  0  0  0  0
   76.1096   49.2464   39.3834 H   0  0  0  0  0  0  0  0  0  0  0  0
   73.7161   46.1937   40.7375 H   0  0  0  0  0  0  0  0  0  0  0  0
   77.4940   47.8396   40.5565 H   0  0  0  0  0  0  0  0  0  0  0  0
   76.3283   42.8433   41.6031 H   0  0  0  0  0  0  0  0  0  0  0  0
  1  2  2  0  0  0  0
  1  3  2  0  0  0  0
  1  5  1  0  0  0  0
  1  9  1  0  0  0  0
  4 18  1  0  0  0  0
  4 19  1  0  0  0  0
  5 20  2  0  0  0  0
  6 10  1  0  0  0  0
  6 11  1  0  0  0  0
  6 20  1  0  0  0  0
  7 18  1  0  0  0  0
  8 18  1  0  0  0  0
  9 10  1  0  0  0  0
 11 12  2  0  0  0  0
 12 15  1  0  0  0  0
 13 16  2  0  0  0  0
 13 19  1  0  0  0  0
 14 17  1  0  0  0  0
 14 19  2  0  0  0  0
 15 22  2  0  0  0  0
 16 21  1  0  0  0  0
 17 21  2  0  0  0  0
 20 22  1  0  0  0  0
 21 22  1  0  0  0  0
  7 23  1  0  0  0  0
  7 24  1  0  0  0  0
  7 25  1  0  0  0  0
  8 26  1  0  0  0  0
  8 27  1  0  0  0  0
  8 28  1  0  0  0  0
  9 29  1  0  0  0  0
  9 30  1  0  0  0  0
 10 31  1  0  0  0  0
 10 32  1  0  0  0  0
 11 33  1  0  0  0  0
 12 34  1  0  0  0  0
 13 35  1  0  0  0  0
 14 36  1  0  0  0  0
 15 37  1  0  0  0  0
 16 38  1  0  0  0  0
 17 39  1  0  0  0  0
 18 40  1  0  0  0  0
M  END
> <pdb_id>
5ZG0

> <uniprot_id>
P42262

> <usmiles>
S1(=O)(=O)N=C2N(C=CC=C2c3ccc(OC(C)C)cc3)CC1

$$$$
9C6_A_1001
          07202410523D 1   1.00000     0.00000     0
            
 41 44  0  0  0  0            999 V2000
   72.8034   48.1206   43.8984 S   0  0  0  0  0  0  0  0  0  0  0  0
   73.3784   47.3550   44.9534 O   0  0  0  0  0  0  0  0  0  0  0  0
   71.3970   47.7899   43.7020 O   0  0  0  0  0  0  0  0  0  0  0  0
   77.8991   44.0668   40.3962 O   0  0  0  0  0  0  0  0  0  0  0  0
   73.5836   47.9223   42.5955 N   0  0  0  0  0  0  0  0  0  0  0  0
   73.2854   50.2488   41.9178 N   0  0  0  0  0  0  0  0  0  0  0  0
   72.9169   49.7114   44.4155 C   0  0  0  0  0  0  0  0  0  0  0  0
   72.8378   50.7037   43.2651 C   0  0  0  0  0  0  0  0  0  0  0  0
   73.7548   51.2874   41.0628 C   0  0  0  0  0  0  0  0  0  0  0  0
   76.9378   40.2290   39.2877 C   0  0  0  0  0  0  0  0  0  0  0  0
   74.6857   51.0836   40.0432 C   0  0  0  0  0  0  0  0  0  0  0  0
   76.8635   41.2441   38.3341 C   0  0  0  0  0  0  0  0  0  0  0  0
   77.3349   40.5061   40.5962 C   0  0  0  0  0  0  0  0  0  0  0  0
   77.1836   42.5487   38.6985 C   0  0  0  0  0  0  0  0  0  0  0  0
   77.6672   41.8018   40.9683 C   0  0  0  0  0  0  0  0  0  0  0  0
   77.6889   46.3673   40.4977 C   0  0  0  0  0  0  0  0  0  0  0  0
   75.6602   45.0439   40.4412 C   0  0  0  0  0  0  0  0  0  0  0  0
   75.2622   49.8296   39.8639 C   0  0  0  0  0  0  0  0  0  0  0  0
   76.9236   47.5065   40.5589 C   0  0  0  0  0  0  0  0  0  0  0  0
   74.8726   46.2013   40.5151 C   0  0  0  0  0  0  0  0  0  0  0  0
   77.5651   42.8129   40.0176 C   0  0  0  0  0  0  0  0  0  0  0  0
   77.0546   45.1458   40.4357 C   0  0  0  0  0  0  0  0  0  0  0  0
   73.9319   48.9771   41.7956 C   0  0  0  0  0  0  0  0  0  0  0  0
   75.5384   47.4382   40.5645 C   0  0  0  0  0  0  0  0  0  0  0  0
   74.8840   48.7566   40.6813 C   0  0  0  0  0  0  0  0  0  0  0  0
   73.7908   49.8343   44.8859 H   0  0  0  0  0  0  0  0  0  0  0  0
   72.1674   49.8965   45.0511 H   0  0  0  0  0  0  0  0  0  0  0  0
   71.8824   50.9867   43.1813 H   0  0  0  0  0  0  0  0  0  0  0  0
   73.3987   51.4932   43.5141 H   0  0  0  0  0  0  0  0  0  0  0  0
   73.3983   52.2114   41.2005 H   0  0  0  0  0  0  0  0  0  0  0  0
   76.7037   39.2914   39.0305 H   0  0  0  0  0  0  0  0  0  0  0  0
   74.9391   51.8402   39.4404 H   0  0  0  0  0  0  0  0  0  0  0  0
   76.5827   41.0365   37.3970 H   0  0  0  0  0  0  0  0  0  0  0  0
   77.3804   39.7680   41.2693 H   0  0  0  0  0  0  0  0  0  0  0  0
   77.1415   43.2874   38.0257 H   0  0  0  0  0  0  0  0  0  0  0  0
   77.9731   42.0039   41.8986 H   0  0  0  0  0  0  0  0  0  0  0  0
   78.6873   46.4236   40.4982 H   0  0  0  0  0  0  0  0  0  0  0  0
   75.2246   44.1451   40.3923 H   0  0  0  0  0  0  0  0  0  0  0  0
   75.9484   49.6941   39.1492 H   0  0  0  0  0  0  0  0  0  0  0  0
   77.3724   48.3992   40.6001 H   0  0  0  0  0  0  0  0  0  0  0  0
   73.8741   46.1489   40.5320 H   0  0  0  0  0  0  0  0  0  0  0  0
  1  2  2  0  0  0  0
  1  3  2  0  0  0  0
  1  5  1  0  0  0  0
  1  7  1  0  0  0  0
  4 21  1  0  0  0  0
  4 22  1  0  0  0  0
  5 23  2  0  0  0  0
  6  8  1  0  0  0  0
  6  9  1  0  0  0  0
  6 23  1  0  0  0  0
  7  8  1  0  0  0  0
  9 11  2  0  0  0  0
 10 12  2  0  0  0  0
 10 13  1  0  0  0  0
 11 18  1  0  0  0  0
 12 14  1  0  0  0  0
 13 15  2  0  0  0  0
 14 21  2  0  0  0  0
 15 21  1  0  0  0  0
 16 19  2  0  0  0  0
 16 22  1  0  0  0  0
 17 20  1  0  0  0  0
 17 22  2  0  0  0  0
 18 25  2  0  0  0  0
 19 24  1  0  0  0  0
 20 24  2  0  0  0  0
 23 25  1  0  0  0  0
 24 25  1  0  0  0  0
  7 26  1  0  0  0  0
  7 27  1  0  0  0  0
  8 28  1  0  0  0  0
  8 29  1  0  0  0  0
  9 30  1  0  0  0  0
 10 31  1  0  0  0  0
 11 32  1  0  0  0  0
 12 33  1  0  0  0  0
 13 34  1  0  0  0  0
 14 35  1  0  0  0  0
 15 36  1  0  0  0  0
 16 37  1  0  0  0  0
 17 38  1  0  0  0  0
 18 39  1  0  0  0  0
 19 40  1  0  0  0  0
 20 41  1  0  0  0  0
M  END
> <pdb_id>
5ZG3

> <uniprot_id>
P42262

> <usmiles>
S1(=O)(=O)N=C2N(C=CC=C2c3ccc(Oc4ccccc4)cc3)CC1

$$$$
9CQ_A_1157
          07192416543D 1   1.00000     0.00000     0
            
 41 43  0  0  0  0            999 V2000
    8.7652   20.4238    3.0197 O   0  0  0  0  0  0  0  0  0  0  0  0
   18.0442   20.0354    5.7768 N   0  0  0  0  0  0  0  0  0  0  0  0
   18.3956   21.3968    3.9623 N   0  0  0  0  0  0  0  0  0  0  0  0
   16.2018   21.0065    4.8495 N   0  0  0  0  0  0  0  0  0  0  0  0
    9.7784   19.3823    4.7271 N   0  0  0  0  0  0  0  0  0  0  0  0
   10.5929   19.3681    5.9424 C   0  0  0  0  0  0  0  0  0  0  0  0
    9.3513   18.0563    4.2850 C   0  0  0  0  0  0  0  0  0  0  0  0
   18.2016   23.7186    1.1378 C   0  0  0  0  0  0  0  0  0  0  0  0
   16.8404   24.0020    1.0989 C   0  0  0  0  0  0  0  0  0  0  0  0
   18.7125   22.8715    2.0888 C   0  0  0  0  0  0  0  0  0  0  0  0
   15.9814   23.4035    1.9817 C   0  0  0  0  0  0  0  0  0  0  0  0
   11.9969   21.6498    3.1073 C   0  0  0  0  0  0  0  0  0  0  0  0
   12.2402   22.2797    5.3941 C   0  0  0  0  0  0  0  0  0  0  0  0
   13.3728   21.6069    2.9712 C   0  0  0  0  0  0  0  0  0  0  0  0
   13.6140   22.2598    5.2542 C   0  0  0  0  0  0  0  0  0  0  0  0
    9.9180   21.8535    4.5243 C   0  0  0  0  0  0  0  0  0  0  0  0
   17.5434   20.8553    4.8506 C   0  0  0  0  0  0  0  0  0  0  0  0
    9.4240   20.4936    4.0500 C   0  0  0  0  0  0  0  0  0  0  0  0
   17.8537   22.2366    3.0253 C   0  0  0  0  0  0  0  0  0  0  0  0
   15.6740   21.8370    3.9555 C   0  0  0  0  0  0  0  0  0  0  0  0
   11.4092   21.9856    4.3214 C   0  0  0  0  0  0  0  0  0  0  0  0
   14.2046   21.9741    4.0266 C   0  0  0  0  0  0  0  0  0  0  0  0
   16.4597   22.4723    2.9441 C   0  0  0  0  0  0  0  0  0  0  0  0
   17.4387   19.6154    6.4528 H   0  0  0  0  0  0  0  0  0  0  0  0
   19.0250   19.8410    5.7948 H   0  0  0  0  0  0  0  0  0  0  0  0
   10.8472   20.3045    6.1842 H   0  0  0  0  0  0  0  0  0  0  0  0
   10.0684   18.9614    6.6904 H   0  0  0  0  0  0  0  0  0  0  0  0
   11.4197   18.8287    5.7832 H   0  0  0  0  0  0  0  0  0  0  0  0
    8.8019   18.1430    3.4540 H   0  0  0  0  0  0  0  0  0  0  0  0
   10.1555   17.4930    4.0957 H   0  0  0  0  0  0  0  0  0  0  0  0
    8.8042   17.6257    5.0029 H   0  0  0  0  0  0  0  0  0  0  0  0
   18.8137   24.1361    0.4663 H   0  0  0  0  0  0  0  0  0  0  0  0
   16.4867   24.6472    0.4217 H   0  0  0  0  0  0  0  0  0  0  0  0
   19.6971   22.6998    2.1228 H   0  0  0  0  0  0  0  0  0  0  0  0
   15.0065   23.6240    1.9492 H   0  0  0  0  0  0  0  0  0  0  0  0
   11.4169   21.4362    2.3212 H   0  0  0  0  0  0  0  0  0  0  0  0
   11.8383   22.5092    6.2806 H   0  0  0  0  0  0  0  0  0  0  0  0
   13.7749   21.3089    2.1054 H   0  0  0  0  0  0  0  0  0  0  0  0
   14.1929   22.4535    6.0463 H   0  0  0  0  0  0  0  0  0  0  0  0
    9.7095   21.9568    5.4968 H   0  0  0  0  0  0  0  0  0  0  0  0
    9.4522   22.5704    4.0055 H   0  0  0  0  0  0  0  0  0  0  0  0
  1 18  2  0  0  0  0
  2 17  1  0  0  0  0
  3 17  2  0  0  0  0
  3 19  1  0  0  0  0
  4 17  1  0  0  0  0
  4 20  2  0  0  0  0
  5  6  1  0  0  0  0
  5  7  1  0  0  0  0
  5 18  1  0  0  0  0
  8  9  2  0  0  0  0
  8 10  1  0  0  0  0
  9 11  1  0  0  0  0
 10 19  2  0  0  0  0
 11 23  2  0  0  0  0
 12 14  2  0  0  0  0
 12 21  1  0  0  0  0
 13 15  1  0  0  0  0
 13 21  2  0  0  0  0
 14 22  1  0  0  0  0
 15 22  2  0  0  0  0
 16 18  1  0  0  0  0
 16 21  1  0  0  0  0
 19 23  1  0  0  0  0
 20 22  1  0  0  0  0
 20 23  1  0  0  0  0
  2 24  1  0  0  0  0
  2 25  1  0  0  0  0
  6 26  1  0  0  0  0
  6 27  1  0  0  0  0
  6 28  1  0  0  0  0
  7 29  1  0  0  0  0
  7 30  1  0  0  0  0
  7 31  1  0  0  0  0
  8 32  1  0  0  0  0
  9 33  1  0  0  0  0
 10 34  1  0  0  0  0
 11 35  1  0  0  0  0
 12 36  1  0  0  0  0
 13 37  1  0  0  0  0
 14 38  1  0  0  0  0
 15 39  1  0  0  0  0
 16 40  1  0  0  0  0
 16 41  1  0  0  0  0
M  END
> <pdb_id>
5ANW

> <uniprot_id>
P36639

> <usmiles>
O=C(N(C)C)Cc1ccc(c2nc(nc3c2cccc3)N)cc1

$$$$
9CR_A_501
          07192417143D 1   1.00000     0.00000     0
            
 50 50  0  0  0  0            999 V2000
   33.9647   17.2487   88.9889 O   0  0  0  0  0  0  0  0  0  0  0  0
   34.7257   18.7084   87.5636 O   0  0  0  0  0  0  0  0  0  0  0  0
   40.2396   11.9088   84.7975 C   0  0  0  0  0  0  0  0  0  0  0  0
   37.3831   17.9038   86.3246 C   0  0  0  0  0  0  0  0  0  0  0  0
   42.8566   16.5217   84.1481 C   0  0  0  0  0  0  0  0  0  0  0  0
   44.0855   12.4326   81.9298 C   0  0  0  0  0  0  0  0  0  0  0  0
   42.3806   13.4928   80.4520 C   0  0  0  0  0  0  0  0  0  0  0  0
   38.4514   15.1646   85.6708 C   0  0  0  0  0  0  0  0  0  0  0  0
   44.4855   15.9965   80.7119 C   0  0  0  0  0  0  0  0  0  0  0  0
   38.9215   13.7879   85.5307 C   0  0  0  0  0  0  0  0  0  0  0  0
   37.4858   15.3322   86.5711 C   0  0  0  0  0  0  0  0  0  0  0  0
   44.4020   16.5242   82.1340 C   0  0  0  0  0  0  0  0  0  0  0  0
   40.8362   14.2765   83.9911 C   0  0  0  0  0  0  0  0  0  0  0  0
   41.9717   13.7878   83.4785 C   0  0  0  0  0  0  0  0  0  0  0  0
   35.6916   16.5147   87.6059 C   0  0  0  0  0  0  0  0  0  0  0  0
   44.6549   14.4859   80.7222 C   0  0  0  0  0  0  0  0  0  0  0  0
   34.7540   17.5657   88.0721 C   0  0  0  0  0  0  0  0  0  0  0  0
   39.9681   13.3808   84.7976 C   0  0  0  0  0  0  0  0  0  0  0  0
   36.8221   16.6153   86.8671 C   0  0  0  0  0  0  0  0  0  0  0  0
   43.3684   15.7782   82.9465 C   0  0  0  0  0  0  0  0  0  0  0  0
   42.9581   14.5221   82.6392 C   0  0  0  0  0  0  0  0  0  0  0  0
   43.5169   13.7613   81.4383 C   0  0  0  0  0  0  0  0  0  0  0  0
   34.0006   16.3309   89.3845 H   0  0  0  0  0  0  0  0  0  0  0  0
   41.0356   11.7167   84.2236 H   0  0  0  0  0  0  0  0  0  0  0  0
   40.4209   11.6032   85.7322 H   0  0  0  0  0  0  0  0  0  0  0  0
   39.4434   11.4231   84.4365 H   0  0  0  0  0  0  0  0  0  0  0  0
   36.8108   18.6680   86.6221 H   0  0  0  0  0  0  0  0  0  0  0  0
   38.3142   18.0320   86.6663 H   0  0  0  0  0  0  0  0  0  0  0  0
   37.3969   17.8669   85.3254 H   0  0  0  0  0  0  0  0  0  0  0  0
   42.1812   15.9594   84.6253 H   0  0  0  0  0  0  0  0  0  0  0  0
   43.6178   16.7234   84.7645 H   0  0  0  0  0  0  0  0  0  0  0  0
   42.4301   17.3771   83.8541 H   0  0  0  0  0  0  0  0  0  0  0  0
   44.8291   12.6066   82.5753 H   0  0  0  0  0  0  0  0  0  0  0  0
   43.3648   11.9095   82.3847 H   0  0  0  0  0  0  0  0  0  0  0  0
   44.4350   11.9113   81.1513 H   0  0  0  0  0  0  0  0  0  0  0  0
   42.0070   14.3623   80.1291 H   0  0  0  0  0  0  0  0  0  0  0  0
   42.7309   12.9710   79.6741 H   0  0  0  0  0  0  0  0  0  0  0  0
   41.6606   12.9692   80.9075 H   0  0  0  0  0  0  0  0  0  0  0  0
   38.8254   15.9202   85.1331 H   0  0  0  0  0  0  0  0  0  0  0  0
   45.2683   16.4136   80.2501 H   0  0  0  0  0  0  0  0  0  0  0  0
   43.6458   16.2315   80.2224 H   0  0  0  0  0  0  0  0  0  0  0  0
   38.4152   13.0834   86.0280 H   0  0  0  0  0  0  0  0  0  0  0  0
   37.1879   14.5278   87.0852 H   0  0  0  0  0  0  0  0  0  0  0  0
   44.1552   17.4929   82.1064 H   0  0  0  0  0  0  0  0  0  0  0  0
   45.2952   16.4201   82.5714 H   0  0  0  0  0  0  0  0  0  0  0  0
   40.5764   15.2292   83.8337 H   0  0  0  0  0  0  0  0  0  0  0  0
   42.1791   12.8305   83.6801 H   0  0  0  0  0  0  0  0  0  0  0  0
   35.4505   15.5840   87.8810 H   0  0  0  0  0  0  0  0  0  0  0  0
   45.5137   14.2649   81.1842 H   0  0  0  0  0  0  0  0  0  0  0  0
   44.6925   14.1632   79.7764 H   0  0  0  0  0  0  0  0  0  0  0  0
  1 17  1  0  0  0  0
  2 17  2  0  0  0  0
  3 18  1  0  0  0  0
  4 19  1  0  0  0  0
  5 20  1  0  0  0  0
  6 22  1  0  0  0  0
  7 22  1  0  0  0  0
  8 10  1  0  0  0  0
  8 11  2  0  0  0  0
  9 12  1  0  0  0  0
  9 16  1  0  0  0  0
 10 18  2  0  0  0  0
 11 19  1  0  0  0  0
 12 20  1  0  0  0  0
 13 14  2  0  0  0  0
 13 18  1  0  0  0  0
 14 21  1  0  0  0  0
 15 17  1  0  0  0  0
 15 19  2  0  0  0  0
 16 22  1  0  0  0  0
 20 21  2  0  0  0  0
 21 22  1  0  0  0  0
  1 23  1  0  0  0  0
  3 24  1  0  0  0  0
  3 25  1  0  0  0  0
  3 26  1  0  0  0  0
  4 27  1  0  0  0  0
  4 28  1  0  0  0  0
  4 29  1  0  0  0  0
  5 30  1  0  0  0  0
  5 31  1  0  0  0  0
  5 32  1  0  0  0  0
  6 33  1  0  0  0  0
  6 34  1  0  0  0  0
  6 35  1  0  0  0  0
  7 36  1  0  0  0  0
  7 37  1  0  0  0  0
  7 38  1  0  0  0  0
  8 39  1  0  0  0  0
  9 40  1  0  0  0  0
  9 41  1  0  0  0  0
 10 42  1  0  0  0  0
 11 43  1  0  0  0  0
 12 44  1  0  0  0  0
 12 45  1  0  0  0  0
 13 46  1  0  0  0  0
 14 47  1  0  0  0  0
 15 48  1  0  0  0  0
 16 49  1  0  0  0  0
 16 50  1  0  0  0  0
M  END
> <pdb_id>
5M24

> <uniprot_id>
P13631

> <usmiles>
O=C(O)/C=C(/C=C/C=C(\C=C\C1=C(CCCC1(C)C)C)/C)\C

$$$$
9D9_A_301
          07192421073D 1   1.00000     0.00000     0
            
 37 38  0  0  0  0            999 V2000
   73.9368   39.4976   50.1375 P   0  0  0  0  0  0  0  0  0  0  0  0
   74.4129   40.2687   52.5736 F   0  0  0  0  0  0  0  0  0  0  0  0
   75.7683   41.0830   51.0605 F   0  0  0  0  0  0  0  0  0  0  0  0
   72.3769   39.3412   50.1963 O   0  0  0  0  0  0  0  0  0  0  0  0
   74.3641   40.0655   48.6996 O   0  0  0  0  0  0  0  0  0  0  0  0
   74.6857   38.2373   50.4525 O   0  0  0  0  0  0  0  0  0  0  0  0
   71.7726   50.6025   49.3618 O   0  0  0  0  0  0  0  0  0  0  0  0
   75.9501   48.8692   48.6092 N   0  0  0  0  0  0  0  0  0  0  0  0
   70.9000   47.7830   50.1978 N   0  0  0  0  0  0  0  0  0  0  0  0
   73.8635   49.7324   49.0083 N   0  0  0  0  0  0  0  0  0  0  0  0
   74.3546   47.4111   49.3835 N   0  0  0  0  0  0  0  0  0  0  0  0
   73.4349   44.4831   51.8213 C   0  0  0  0  0  0  0  0  0  0  0  0
   74.2883   43.2121   51.9187 C   0  0  0  0  0  0  0  0  0  0  0  0
   71.0582   46.4704   50.4659 C   0  0  0  0  0  0  0  0  0  0  0  0
   72.9884   44.7532   50.3672 C   0  0  0  0  0  0  0  0  0  0  0  0
   73.6009   42.0170   51.2254 C   0  0  0  0  0  0  0  0  0  0  0  0
   74.7078   48.5625   49.0442 C   0  0  0  0  0  0  0  0  0  0  0  0
   72.4865   49.5935   49.3896 C   0  0  0  0  0  0  0  0  0  0  0  0
   72.3383   46.1293   50.2125 C   0  0  0  0  0  0  0  0  0  0  0  0
   72.0698   48.3293   49.7663 C   0  0  0  0  0  0  0  0  0  0  0  0
   72.9841   47.2761   49.7739 C   0  0  0  0  0  0  0  0  0  0  0  0
   74.4899   40.7827   51.3159 C   0  0  0  0  0  0  0  0  0  0  0  0
   72.1109   38.9872   51.0929 H   0  0  0  0  0  0  0  0  0  0  0  0
   75.3585   40.1650   48.6626 H   0  0  0  0  0  0  0  0  0  0  0  0
   76.6563   48.1621   48.5739 H   0  0  0  0  0  0  0  0  0  0  0  0
   76.1631   49.8033   48.3227 H   0  0  0  0  0  0  0  0  0  0  0  0
   70.0416   48.2854   50.3017 H   0  0  0  0  0  0  0  0  0  0  0  0
   74.9876   46.6369   49.3820 H   0  0  0  0  0  0  0  0  0  0  0  0
   73.9722   45.2613   52.1465 H   0  0  0  0  0  0  0  0  0  0  0  0
   72.6236   44.3748   52.3959 H   0  0  0  0  0  0  0  0  0  0  0  0
   74.4321   42.9899   52.8830 H   0  0  0  0  0  0  0  0  0  0  0  0
   75.1713   43.3788   51.4798 H   0  0  0  0  0  0  0  0  0  0  0  0
   70.3449   45.8529   50.7974 H   0  0  0  0  0  0  0  0  0  0  0  0
   72.3283   44.0523   50.0968 H   0  0  0  0  0  0  0  0  0  0  0  0
   73.7888   44.7055   49.7697 H   0  0  0  0  0  0  0  0  0  0  0  0
   73.4395   42.2395   50.2640 H   0  0  0  0  0  0  0  0  0  0  0  0
   72.7276   41.8302   51.6755 H   0  0  0  0  0  0  0  0  0  0  0  0
  1  4  1  0  0  0  0
  1  5  1  0  0  0  0
  1  6  2  0  0  0  0
  1 22  1  0  0  0  0
  2 22  1  0  0  0  0
  3 22  1  0  0  0  0
  7 18  2  0  0  0  0
  8 17  1  0  0  0  0
  9 14  1  0  0  0  0
  9 20  1  0  0  0  0
 10 17  2  0  0  0  0
 10 18  1  0  0  0  0
 11 17  1  0  0  0  0
 11 21  1  0  0  0  0
 12 13  1  0  0  0  0
 12 15  1  0  0  0  0
 13 16  1  0  0  0  0
 14 19  2  0  0  0  0
 15 19  1  0  0  0  0
 16 22  1  0  0  0  0
 18 20  1  0  0  0  0
 19 21  1  0  0  0  0
 20 21  2  0  0  0  0
  4 23  1  0  0  0  0
  5 24  1  0  0  0  0
  8 25  1  0  0  0  0
  8 26  1  0  0  0  0
  9 27  1  0  0  0  0
 11 28  1  0  0  0  0
 12 29  1  0  0  0  0
 12 30  1  0  0  0  0
 13 31  1  0  0  0  0
 13 32  1  0  0  0  0
 14 33  1  0  0  0  0
 15 34  1  0  0  0  0
 15 35  1  0  0  0  0
 16 36  1  0  0  0  0
 16 37  1  0  0  0  0
M  END
> <pdb_id>
3FUC

> <uniprot_id>
P55859

> <usmiles>
P(=O)(O)(O)C(F)(F)CCCCC=1C=2NC(=NC(=O)C2NC1)N

$$$$
9EK_A_301
          07192420423D 1   1.00000     0.00000     0
            
 60 64  0  0  0  0            999 V2000
   70.9602   33.8681   26.6476 O   0  0  0  0  0  0  0  0  0  0  0  0
   65.6907   34.2973   21.6425 O   0  0  0  0  0  0  0  0  0  0  0  0
   64.1490   34.1010   24.0410 O   0  0  0  0  0  0  0  0  0  0  0  0
   71.8907   40.3811   27.5369 O   0  0  0  0  0  0  0  0  0  0  0  0
   67.0618   32.3622   27.5020 N   0  0  0  0  0  0  0  0  0  0  0  0
   68.4057   32.2549   27.5887 N   0  0  0  0  0  0  0  0  0  0  0  0
   71.0312   32.0390   25.3577 N   0  0  0  0  0  0  0  0  0  0  0  0
   70.4243   38.5715   25.9578 N   0  0  0  0  0  0  0  0  0  0  0  0
   67.1002   35.9195   22.2900 N   0  0  0  0  0  0  0  0  0  0  0  0
   66.9787   36.5896   21.0051 C   0  0  0  0  0  0  0  0  0  0  0  0
   72.5217   39.7378   26.4484 C   0  0  0  0  0  0  0  0  0  0  0  0
   70.9599   39.5265   28.1457 C   0  0  0  0  0  0  0  0  0  0  0  0
   71.5194   39.3540   25.3756 C   0  0  0  0  0  0  0  0  0  0  0  0
   69.8606   39.1347   27.1909 C   0  0  0  0  0  0  0  0  0  0  0  0
   72.4333   32.1422   24.9514 C   0  0  0  0  0  0  0  0  0  0  0  0
   70.4106   30.8350   24.8108 C   0  0  0  0  0  0  0  0  0  0  0  0
   72.7420   30.7732   24.4068 C   0  0  0  0  0  0  0  0  0  0  0  0
   71.4794   30.2457   23.9285 C   0  0  0  0  0  0  0  0  0  0  0  0
   68.2284   37.7772   25.2981 C   0  0  0  0  0  0  0  0  0  0  0  0
   70.1056   37.3763   23.8867 C   0  0  0  0  0  0  0  0  0  0  0  0
   67.4219   37.0921   24.4093 C   0  0  0  0  0  0  0  0  0  0  0  0
   69.2984   36.6913   23.0029 C   0  0  0  0  0  0  0  0  0  0  0  0
   65.4277   33.2081   25.8064 C   0  0  0  0  0  0  0  0  0  0  0  0
   67.7699   33.7348   24.3476 C   0  0  0  0  0  0  0  0  0  0  0  0
   70.4037   32.9205   26.1461 C   0  0  0  0  0  0  0  0  0  0  0  0
   66.4135   34.7641   22.4890 C   0  0  0  0  0  0  0  0  0  0  0  0
   65.3594   33.8026   24.5566 C   0  0  0  0  0  0  0  0  0  0  0  0
   66.6771   32.8924   26.3195 C   0  0  0  0  0  0  0  0  0  0  0  0
   69.5866   37.9270   25.0497 C   0  0  0  0  0  0  0  0  0  0  0  0
   67.9529   36.5488   23.2554 C   0  0  0  0  0  0  0  0  0  0  0  0
   68.9490   32.7279   26.4597 C   0  0  0  0  0  0  0  0  0  0  0  0
   66.5276   34.0830   23.8217 C   0  0  0  0  0  0  0  0  0  0  0  0
   67.8558   33.1444   25.6012 C   0  0  0  0  0  0  0  0  0  0  0  0
   64.0812   34.5303   23.1403 H   0  0  0  0  0  0  0  0  0  0  0  0
   66.4289   32.0835   28.2243 H   0  0  0  0  0  0  0  0  0  0  0  0
   67.5367   37.4194   21.0078 H   0  0  0  0  0  0  0  0  0  0  0  0
   67.2939   35.9783   20.2792 H   0  0  0  0  0  0  0  0  0  0  0  0
   66.0218   36.8319   20.8447 H   0  0  0  0  0  0  0  0  0  0  0  0
   72.9775   38.9112   26.7786 H   0  0  0  0  0  0  0  0  0  0  0  0
   73.2001   40.3572   26.0532 H   0  0  0  0  0  0  0  0  0  0  0  0
   70.5557   39.9938   28.9320 H   0  0  0  0  0  0  0  0  0  0  0  0
   71.4311   38.7005   28.4549 H   0  0  0  0  0  0  0  0  0  0  0  0
   71.1470   40.1839   24.9601 H   0  0  0  0  0  0  0  0  0  0  0  0
   71.9789   38.8078   24.6753 H   0  0  0  0  0  0  0  0  0  0  0  0
   69.2748   38.4513   27.6266 H   0  0  0  0  0  0  0  0  0  0  0  0
   69.3179   39.9436   26.9647 H   0  0  0  0  0  0  0  0  0  0  0  0
   73.0177   32.3558   25.7342 H   0  0  0  0  0  0  0  0  0  0  0  0
   72.5508   32.8421   24.2469 H   0  0  0  0  0  0  0  0  0  0  0  0
   69.5962   31.0651   24.2781 H   0  0  0  0  0  0  0  0  0  0  0  0
   70.1622   30.1994   25.5418 H   0  0  0  0  0  0  0  0  0  0  0  0
   73.1139   30.1875   25.1269 H   0  0  0  0  0  0  0  0  0  0  0  0
   73.3997   30.8370   23.6562 H   0  0  0  0  0  0  0  0  0  0  0  0
   71.3301   30.5154   22.9772 H   0  0  0  0  0  0  0  0  0  0  0  0
   71.4732   29.2481   23.9970 H   0  0  0  0  0  0  0  0  0  0  0  0
   67.8304   38.1686   26.1278 H   0  0  0  0  0  0  0  0  0  0  0  0
   71.0800   37.4776   23.6863 H   0  0  0  0  0  0  0  0  0  0  0  0
   66.4463   36.9888   24.6028 H   0  0  0  0  0  0  0  0  0  0  0  0
   69.6930   36.2958   22.1736 H   0  0  0  0  0  0  0  0  0  0  0  0
   64.5962   33.0115   26.3259 H   0  0  0  0  0  0  0  0  0  0  0  0
   68.6016   33.9105   23.8209 H   0  0  0  0  0  0  0  0  0  0  0  0
  1 25  2  0  0  0  0
  2 26  2  0  0  0  0
  3 27  1  0  0  0  0
  4 11  1  0  0  0  0
  4 12  1  0  0  0  0
  5  6  1  0  0  0  0
  5 28  1  0  0  0  0
  6 31  2  0  0  0  0
  7 15  1  0  0  0  0
  7 16  1  0  0  0  0
  7 25  1  0  0  0  0
  8 13  1  0  0  0  0
  8 14  1  0  0  0  0
  8 29  1  0  0  0  0
  9 10  1  0  0  0  0
  9 26  1  0  0  0  0
  9 30  1  0  0  0  0
 11 13  1  0  0  0  0
 12 14  1  0  0  0  0
 15 17  1  0  0  0  0
 16 18  1  0  0  0  0
 17 18  1  0  0  0  0
 19 21  2  0  0  0  0
 19 29  1  0  0  0  0
 20 22  1  0  0  0  0
 20 29  2  0  0  0  0
 21 30  1  0  0  0  0
 22 30  2  0  0  0  0
 23 27  2  0  0  0  0
 23 28  1  0  0  0  0
 24 32  2  0  0  0  0
 24 33  1  0  0  0  0
 25 31  1  0  0  0  0
 26 32  1  0  0  0  0
 27 32  1  0  0  0  0
 28 33  2  0  0  0  0
 31 33  1  0  0  0  0
  3 34  1  0  0  0  0
  5 35  1  0  0  0  0
 10 36  1  0  0  0  0
 10 37  1  0  0  0  0
 10 38  1  0  0  0  0
 11 39  1  0  0  0  0
 11 40  1  0  0  0  0
 12 41  1  0  0  0  0
 12 42  1  0  0  0  0
 13 43  1  0  0  0  0
 13 44  1  0  0  0  0
 14 45  1  0  0  0  0
 14 46  1  0  0  0  0
 15 47  1  0  0  0  0
 15 48  1  0  0  0  0
 16 49  1  0  0  0  0
 16 50  1  0  0  0  0
 17 51  1  0  0  0  0
 17 52  1  0  0  0  0
 18 53  1  0  0  0  0
 18 54  1  0  0  0  0
 19 55  1  0  0  0  0
 20 56  1  0  0  0  0
 21 57  1  0  0  0  0
 22 58  1  0  0  0  0
 23 59  1  0  0  0  0
 24 60  1  0  0  0  0
M  END
> <pdb_id>
5NYH

> <uniprot_id>
P07900

> <usmiles>
O=C(N(c1ccc(N2CCOCC2)cc1)C)c3c(O)cc4NN=C(c4c3)C(=O)N5CCCC5

$$$$
9FA_A_301
          07212401303D 1   1.00000     0.00000     0
            
 71 75  0  0  0  0            999 V2000
   33.8070  -14.0650   29.6160 Cl  0  0  0  0  0  0  0  0  0  0  0  0
   49.1980  -21.0190   32.2870 O   0  0  0  0  0  0  0  0  0  0  0  0
   39.6560  -18.8900   30.4770 O   0  0  0  0  0  0  0  0  0  0  0  0
   43.7070  -23.9650   28.8190 O   0  0  0  0  0  0  0  0  0  0  0  0
   49.2240  -22.2140   34.2140 O   0  0  0  0  0  0  0  0  0  0  0  0
   40.4940  -15.4350   25.5200 N   0  0  0  0  0  0  0  0  0  0  0  0
   39.7470  -15.2410   26.5630 N   0  0  0  0  0  0  0  0  0  0  0  0
   39.7910  -15.2420   24.3770 N   0  0  0  0  0  0  0  0  0  0  0  0
   41.9040  -21.0380   29.7110 N   0  0  0  0  0  0  0  0  0  0  0  0
   41.9710  -20.4520   27.5860 N   0  0  0  0  0  0  0  0  0  0  0  0
   47.3570  -22.1820   33.0190 N   0  0  0  0  0  0  0  0  0  0  0  0
   43.1770  -23.3120   30.9270 N   0  0  0  0  0  0  0  0  0  0  0  0
   39.0360  -19.5820   28.4130 N   0  0  0  0  0  0  0  0  0  0  0  0
   38.5230  -14.9030   26.0940 N   0  0  0  0  0  0  0  0  0  0  0  0
   50.6670  -22.0470   34.3160 C   0  0  0  0  0  0  0  0  0  0  0  0
   40.1850  -26.4930   28.7870 C   0  0  0  0  0  0  0  0  0  0  0  0
   38.5900  -14.9040   24.7580 C   0  0  0  0  0  0  0  0  0  0  0  0
   43.2660  -20.5190   28.0020 C   0  0  0  0  0  0  0  0  0  0  0  0
   40.0590  -23.2120   27.5730 C   0  0  0  0  0  0  0  0  0  0  0  0
   38.2980  -17.4260   29.1820 C   0  0  0  0  0  0  0  0  0  0  0  0
   35.6290  -13.2990   27.7680 C   0  0  0  0  0  0  0  0  0  0  0  0
   46.4360  -20.6730   31.2580 C   0  0  0  0  0  0  0  0  0  0  0  0
   40.2070  -23.9600   28.6590 C   0  0  0  0  0  0  0  0  0  0  0  0
   36.7460  -13.4950   26.9670 C   0  0  0  0  0  0  0  0  0  0  0  0
   37.7560  -16.9930   28.0380 C   0  0  0  0  0  0  0  0  0  0  0  0
   45.4110  -20.3910   30.3710 C   0  0  0  0  0  0  0  0  0  0  0  0
   35.8930  -15.5130   28.6840 C   0  0  0  0  0  0  0  0  0  0  0  0
   45.2590  -22.6420   31.9890 C   0  0  0  0  0  0  0  0  0  0  0  0
   39.2830  -21.9100   27.4870 C   0  0  0  0  0  0  0  0  0  0  0  0
   41.9820  -25.1810   29.9670 C   0  0  0  0  0  0  0  0  0  0  0  0
   48.6390  -21.7280   33.0980 C   0  0  0  0  0  0  0  0  0  0  0  0
   39.0370  -18.6870   29.4250 C   0  0  0  0  0  0  0  0  0  0  0  0
   43.0370  -24.1000   29.8430 C   0  0  0  0  0  0  0  0  0  0  0  0
   35.2200  -14.3080   28.6180 C   0  0  0  0  0  0  0  0  0  0  0  0
   41.1880  -20.7750   28.6380 C   0  0  0  0  0  0  0  0  0  0  0  0
   46.3530  -21.7850   32.0960 C   0  0  0  0  0  0  0  0  0  0  0  0
   43.2290  -20.8890   29.3150 C   0  0  0  0  0  0  0  0  0  0  0  0
   44.2420  -22.3890   31.0760 C   0  0  0  0  0  0  0  0  0  0  0  0
   37.4330  -14.7060   26.9970 C   0  0  0  0  0  0  0  0  0  0  0  0
   37.0180  -15.7290   27.8690 C   0  0  0  0  0  0  0  0  0  0  0  0
   44.2990  -21.2340   30.2640 C   0  0  0  0  0  0  0  0  0  0  0  0
   39.6910  -20.8870   28.5600 C   0  0  1  0  0  0  0  0  0  0  0  0
   41.0300  -25.2180   28.7540 C   0  0  1  0  0  0  0  0  0  0  0  0
   41.6760  -20.2370   26.6410 H   0  0  0  0  0  0  0  0  0  0  0  0
   47.0630  -22.8800   33.6950 H   0  0  0  0  0  0  0  0  0  0  0  0
   42.3350  -23.0720   31.4390 H   0  0  0  0  0  0  0  0  0  0  0  0
   38.5810  -19.4300   27.5190 H   0  0  0  0  0  0  0  0  0  0  0  0
   50.8130  -21.9240   35.3880 H   0  0  0  0  0  0  0  0  0  0  0  0
   51.0560  -21.1750   33.7930 H   0  0  0  0  0  0  0  0  0  0  0  0
   51.2020  -22.9310   33.9720 H   0  0  0  0  0  0  0  0  0  0  0  0
   39.7370  -26.6430   29.7680 H   0  0  0  0  0  0  0  0  0  0  0  0
   40.7600  -27.3920   28.5730 H   0  0  0  0  0  0  0  0  0  0  0  0
   39.3700  -26.4600   28.0670 H   0  0  0  0  0  0  0  0  0  0  0  0
   37.7980  -14.6360   24.0630 H   0  0  0  0  0  0  0  0  0  0  0  0
   44.1150  -20.3070   27.3540 H   0  0  0  0  0  0  0  0  0  0  0  0
   40.5130  -23.5230   26.6340 H   0  0  0  0  0  0  0  0  0  0  0  0
   38.1870  -16.7820   30.0530 H   0  0  0  0  0  0  0  0  0  0  0  0
   35.0820  -12.3580   27.7330 H   0  0  0  0  0  0  0  0  0  0  0  0
   47.2590  -19.9610   31.2650 H   0  0  0  0  0  0  0  0  0  0  0  0
   39.7060  -23.6850   29.5850 H   0  0  0  0  0  0  0  0  0  0  0  0
   37.0660  -12.6480   26.3660 H   0  0  0  0  0  0  0  0  0  0  0  0
   37.8700  -17.5120   27.0890 H   0  0  0  0  0  0  0  0  0  0  0  0
   45.4670  -19.4990   29.7480 H   0  0  0  0  0  0  0  0  0  0  0  0
   35.5460  -16.3010   29.3500 H   0  0  0  0  0  0  0  0  0  0  0  0
   45.2110  -23.5460   32.5930 H   0  0  0  0  0  0  0  0  0  0  0  0
   38.2080  -22.0750   27.5330 H   0  0  0  0  0  0  0  0  0  0  0  0
   39.4590  -21.4860   26.5000 H   0  0  0  0  0  0  0  0  0  0  0  0
   42.5040  -26.1350   30.0240 H   0  0  0  0  0  0  0  0  0  0  0  0
   41.4150  -25.1370   30.8960 H   0  0  0  0  0  0  0  0  0  0  0  0
   39.3840  -21.3340   29.5040 H   0  0  0  0  0  0  0  0  0  0  0  0
   41.6410  -25.2730   27.8540 H   0  0  0  0  0  0  0  0  0  0  0  0
  1 34  1  0  0  0  0
  2 31  2  0  0  0  0
  3 32  2  0  0  0  0
  4 33  2  0  0  0  0
  5 15  1  0  0  0  0
  5 31  1  0  0  0  0
  6  7  2  0  0  0  0
  6  8  1  0  0  0  0
  7 14  1  0  0  0  0
  8 17  2  0  0  0  0
  9 35  2  0  0  0  0
  9 37  1  0  0  0  0
 10 18  1  0  0  0  0
 10 35  1  0  0  0  0
 10 44  1  0  0  0  0
 11 31  1  0  0  0  0
 11 36  1  0  0  0  0
 11 45  1  0  0  0  0
 12 33  1  0  0  0  0
 12 38  1  0  0  0  0
 12 46  1  0  0  0  0
 13 32  1  0  0  0  0
 13 42  1  0  0  0  0
 13 47  1  0  0  0  0
 14 17  1  0  0  0  0
 14 39  1  0  0  0  0
 15 48  1  0  0  0  0
 15 49  1  0  0  0  0
 15 50  1  0  0  0  0
 16 43  1  0  0  0  0
 16 51  1  0  0  0  0
 16 52  1  0  0  0  0
 16 53  1  0  0  0  0
 17 54  1  0  0  0  0
 18 37  2  0  0  0  0
 18 55  1  0  0  0  0
 19 23  2  0  0  0  0
 19 29  1  0  0  0  0
 19 56  1  0  0  0  0
 20 25  2  0  0  0  0
 20 32  1  0  0  0  0
 20 57  1  0  0  0  0
 21 24  2  0  0  0  0
 21 34  1  0  0  0  0
 21 58  1  0  0  0  0
 22 26  1  0  0  0  0
 22 36  2  0  0  0  0
 22 59  1  0  0  0  0
 23 43  1  0  0  0  0
 23 60  1  0  0  0  0
 24 39  1  0  0  0  0
 24 61  1  0  0  0  0
 25 40  1  0  0  0  0
 25 62  1  0  0  0  0
 26 41  2  0  0  0  0
 26 63  1  0  0  0  0
 27 34  2  0  0  0  0
 27 40  1  0  0  0  0
 27 64  1  0  0  0  0
 28 36  1  0  0  0  0
 28 38  2  0  0  0  0
 28 65  1  0  0  0  0
 29 42  1  0  0  0  0
 29 66  1  0  0  0  0
 29 67  1  0  0  0  0
 30 33  1  0  0  0  0
 30 43  1  0  0  0  0
 30 68  1  0  0  0  0
 30 69  1  0  0  0  0
 35 42  1  0  0  0  0
 37 41  1  0  0  0  0
 38 41  1  0  0  0  0
 39 40  2  0  0  0  0
 42 70  1  0  0  0  0
 43 71  1  0  0  0  0
M  END
> <pdb_id>
5Q0F

> <uniprot_id>
P03951

> <usmiles>
Clc1cc(c(N2N=NN=C2)cc1)/C=C/C(=O)N[C@@H]3C4=NC(c5c(NC(=O)C[C@H](/C=C/C3)C)cc(NC(=O)OC)cc5)=CN4

$$$$
9FE_B_201
          07192420373D 1   1.00000     0.00000     0
            
 18 19  0  0  0  0            999 V2000
   15.2580   24.7980  -44.9160 Br  0  0  0  0  0  0  0  0  0  0  0  0
   19.6550   22.9690  -41.4620 O   0  0  0  0  0  0  0  0  0  0  0  0
   19.6510   23.6820  -39.3980 O   0  0  0  0  0  0  0  0  0  0  0  0
   13.6350   24.9970  -42.5280 N   0  0  0  0  0  0  0  0  0  0  0  0
   13.6770   24.8770  -41.2310 N   0  0  0  0  0  0  0  0  0  0  0  0
   15.4640   24.2860  -39.5590 C   0  0  0  0  0  0  0  0  0  0  0  0
   16.8110   23.9410  -39.4460 C   0  0  0  0  0  0  0  0  0  0  0  0
   17.0560   24.0900  -41.8670 C   0  0  0  0  0  0  0  0  0  0  0  0
   19.0560   23.4760  -40.4810 C   0  0  0  0  0  0  0  0  0  0  0  0
   14.8140   24.7470  -43.0600 C   0  0  0  0  0  0  0  0  0  0  0  0
   14.9140   24.5320  -40.8230 C   0  0  0  0  0  0  0  0  0  0  0  0
   17.5980   23.8440  -40.6050 C   0  0  0  0  0  0  0  0  0  0  0  0
   15.7110   24.4330  -41.9770 C   0  0  0  0  0  0  0  0  0  0  0  0
   19.1655   22.8111  -42.3196 H   0  0  0  0  0  0  0  0  0  0  0  0
   12.8974   25.0213  -40.6216 H   0  0  0  0  0  0  0  0  0  0  0  0
   14.8936   24.3573  -38.7407 H   0  0  0  0  0  0  0  0  0  0  0  0
   17.2127   23.7643  -38.5474 H   0  0  0  0  0  0  0  0  0  0  0  0
   17.6279   24.0206  -42.6844 H   0  0  0  0  0  0  0  0  0  0  0  0
  1 10  1  0  0  0  0
  2  9  1  0  0  0  0
  3  9  2  0  0  0  0
  4  5  1  0  0  0  0
  4 10  2  0  0  0  0
  5 11  1  0  0  0  0
  6  7  1  0  0  0  0
  6 11  2  0  0  0  0
  7 12  2  0  0  0  0
  8 12  1  0  0  0  0
  8 13  2  0  0  0  0
  9 12  1  0  0  0  0
 10 13  1  0  0  0  0
 11 13  1  0  0  0  0
  2 14  1  0  0  0  0
  5 15  1  0  0  0  0
  6 16  1  0  0  0  0
  7 17  1  0  0  0  0
  8 18  1  0  0  0  0
M  END
> <pdb_id>
5O0B

> <uniprot_id>
B1MDL6

> <usmiles>
BrC1=NNc2c1cc(cc2)C(=O)O

$$$$
9FJ_D_503
          07202411573D 1   1.00000     0.00000     0
            
 43 45  0  0  0  0            999 V2000
   -1.7920  100.0730   15.3700 O   0  0  0  0  0  0  0  0  0  0  0  0
   -3.3230   98.5760   15.8950 O   0  0  0  0  0  0  0  0  0  0  0  0
  -11.8920   96.7020   20.7280 O   0  0  0  0  0  0  0  0  0  0  0  0
   -5.6320  102.9240   16.8240 N   0  0  0  0  0  0  0  0  0  0  0  0
   -5.4180   99.3130   17.4640 N   0  0  0  0  0  0  0  0  0  0  0  0
  -12.5370   95.4190   20.5540 C   0  0  0  0  0  0  0  0  0  0  0  0
   -4.5370  103.1570   16.0910 C   0  0  0  0  0  0  0  0  0  0  0  0
   -5.9530  101.6820   17.2760 C   0  0  0  0  0  0  0  0  0  0  0  0
   -6.6240   99.0110   18.2060 C   0  0  0  0  0  0  0  0  0  0  0  0
   -7.1560   96.0820   16.9170 C   0  0  0  0  0  0  0  0  0  0  0  0
   -3.6460  102.1350   15.7810 C   0  0  0  0  0  0  0  0  0  0  0  0
   -6.1330   96.4960   17.9400 C   0  0  0  0  0  0  0  0  0  0  0  0
   -8.4180   95.5300   17.5530 C   0  0  0  0  0  0  0  0  0  0  0  0
   -9.8060   97.9010   20.8900 C   0  0  0  0  0  0  0  0  0  0  0  0
   -8.5020   98.1200   20.4340 C   0  0  0  0  0  0  0  0  0  0  0  0
  -10.1360   96.1980   19.1750 C   0  0  0  0  0  0  0  0  0  0  0  0
   -2.9350   99.7680   15.8010 C   0  0  0  0  0  0  0  0  0  0  0  0
  -10.6190   96.9390   20.2600 C   0  0  0  0  0  0  0  0  0  0  0  0
   -5.1220  100.5800   17.0280 C   0  0  0  0  0  0  0  0  0  0  0  0
   -6.6150   97.6330   18.8420 C   0  0  2  0  0  0  0  0  0  0  0  0
   -8.8610   96.3800   18.7030 C   0  0  0  0  0  0  0  0  0  0  0  0
   -3.8980  100.8450   16.2010 C   0  0  0  0  0  0  0  0  0  0  0  0
   -7.9940   97.3850   19.3480 C   0  0  0  0  0  0  0  0  0  0  0  0
   -1.5201  101.0335   15.3101 H   0  0  0  0  0  0  0  0  0  0  0  0
   -4.7779   98.5718   17.2620 H   0  0  0  0  0  0  0  0  0  0  0  0
  -13.4505   95.4473   20.9600 H   0  0  0  0  0  0  0  0  0  0  0  0
  -12.6121   95.2133   19.5783 H   0  0  0  0  0  0  0  0  0  0  0  0
  -11.9943   94.7094   21.0035 H   0  0  0  0  0  0  0  0  0  0  0  0
   -4.3560  104.0831   15.7600 H   0  0  0  0  0  0  0  0  0  0  0  0
   -6.7978  101.5522   17.7951 H   0  0  0  0  0  0  0  0  0  0  0  0
   -7.4024   99.0658   17.5806 H   0  0  0  0  0  0  0  0  0  0  0  0
   -6.7293   99.6929   18.9298 H   0  0  0  0  0  0  0  0  0  0  0  0
   -6.7569   95.3771   16.3306 H   0  0  0  0  0  0  0  0  0  0  0  0
   -7.3974   96.8789   16.3632 H   0  0  0  0  0  0  0  0  0  0  0  0
   -2.8210  102.3355   15.2526 H   0  0  0  0  0  0  0  0  0  0  0  0
   -5.3079   96.7968   17.4617 H   0  0  0  0  0  0  0  0  0  0  0  0
   -5.9168   95.7051   18.5125 H   0  0  0  0  0  0  0  0  0  0  0  0
   -8.2386   94.6031   17.8826 H   0  0  0  0  0  0  0  0  0  0  0  0
   -9.1450   95.5049   16.8668 H   0  0  0  0  0  0  0  0  0  0  0  0
  -10.1608   98.4272   21.6628 H   0  0  0  0  0  0  0  0  0  0  0  0
   -7.9271   98.8038   20.8832 H   0  0  0  0  0  0  0  0  0  0  0  0
  -10.7308   95.5243   18.7364 H   0  0  0  0  0  0  0  0  0  0  0  0
   -6.0050   97.6698   19.6335 H   0  0  0  0  0  0  0  0  0  0  0  0
  1 17  1  0  0  0  0
  2 17  2  0  0  0  0
  3  6  1  0  0  0  0
  3 18  1  0  0  0  0
  4  7  2  0  0  0  0
  4  8  1  0  0  0  0
  5  9  1  0  0  0  0
  5 19  1  0  0  0  0
  7 11  1  0  0  0  0
  8 19  2  0  0  0  0
  9 20  1  0  0  0  0
 10 12  1  0  0  0  0
 10 13  1  0  0  0  0
 11 22  2  0  0  0  0
 12 20  1  0  0  0  0
 13 21  1  0  0  0  0
 14 15  2  0  0  0  0
 14 18  1  0  0  0  0
 15 23  1  0  0  0  0
 16 18  2  0  0  0  0
 16 21  1  0  0  0  0
 17 22  1  0  0  0  0
 19 22  1  0  0  0  0
 20 23  1  0  0  0  0
 21 23  2  0  0  0  0
  1 24  1  0  0  0  0
  5 25  1  0  0  0  0
  6 26  1  0  0  0  0
  6 27  1  0  0  0  0
  6 28  1  0  0  0  0
  7 29  1  0  0  0  0
  8 30  1  0  0  0  0
  9 31  1  0  0  0  0
  9 32  1  0  0  0  0
 10 33  1  0  0  0  0
 10 34  1  0  0  0  0
 11 35  1  0  0  0  0
 12 36  1  0  0  0  0
 12 37  1  0  0  0  0
 13 38  1  0  0  0  0
 13 39  1  0  0  0  0
 14 40  1  0  0  0  0
 15 41  1  0  0  0  0
 16 42  1  0  0  0  0
 20 43  1  0  0  0  0
M  END
> <pdb_id>
5VMP

> <uniprot_id>
O75164

> <usmiles>
O=C(O)c1c(NC[C@H]2c3c(cc(OC)cc3)CCC2)cncc1

$$$$
9FK_A_269
          07202410053D 1   1.00000     0.00000     0
            
 36 39  0  0  0  0            999 V2000
   11.9280  -25.7510   59.4290 S   0  0  0  0  0  0  0  0  0  0  0  0
    8.9870  -26.1470   59.6370 S   0  0  0  0  0  0  0  0  0  0  0  0
    9.0410  -24.6990   59.5870 O   0  0  0  0  0  0  0  0  0  0  0  0
    8.6000  -26.5610   60.9520 O   0  0  0  0  0  0  0  0  0  0  0  0
    7.9810  -26.8370   58.6000 N   0  0  0  0  0  0  0  0  0  0  0  0
   16.1060  -25.5750   59.4360 N   0  0  0  0  0  0  0  0  0  0  0  0
   14.7060  -25.5990   59.4400 N   0  0  0  0  0  0  0  0  0  0  0  0
   16.5040  -26.8760   59.1330 N   0  0  0  0  0  0  0  0  0  0  0  0
   15.4710  -27.7270   58.9540 C   0  0  0  0  0  0  0  0  0  0  0  0
   19.9690  -30.1280   61.2190 C   0  0  0  0  0  0  0  0  0  0  0  0
   18.5690  -30.0810   61.2570 C   0  0  0  0  0  0  0  0  0  0  0  0
   20.1100  -26.2270   58.4350 C   0  0  0  0  0  0  0  0  0  0  0  0
   10.8010  -28.0940   59.1720 C   0  0  0  0  0  0  0  0  0  0  0  0
   18.7110  -26.1380   58.4340 C   0  0  0  0  0  0  0  0  0  0  0  0
   12.1960  -28.3160   59.0370 C   0  0  0  0  0  0  0  0  0  0  0  0
   20.6920  -29.1860   60.5000 C   0  0  0  0  0  0  0  0  0  0  0  0
   20.7590  -27.2390   59.1210 C   0  0  0  0  0  0  0  0  0  0  0  0
   17.8530  -29.0850   60.6050 C   0  0  0  0  0  0  0  0  0  0  0  0
   10.5160  -26.7450   59.3650 C   0  0  0  0  0  0  0  0  0  0  0  0
   12.9150  -27.1290   59.1360 C   0  0  0  0  0  0  0  0  0  0  0  0
   14.3810  -26.8690   59.1260 C   0  0  0  0  0  0  0  0  0  0  0  0
   17.8490  -27.0340   59.0900 C   0  0  0  0  0  0  0  0  0  0  0  0
   20.0210  -28.1800   59.8270 C   0  0  0  0  0  0  0  0  0  0  0  0
   18.5250  -28.1170   59.8670 C   0  0  0  0  0  0  0  0  0  0  0  0
    8.0160  -27.8301   58.7122 H   0  0  0  0  0  0  0  0  0  0  0  0
    7.0505  -26.5145   58.7735 H   0  0  0  0  0  0  0  0  0  0  0  0
   15.4826  -28.7065   58.7527 H   0  0  0  0  0  0  0  0  0  0  0  0
   20.4529  -30.8486   61.7156 H   0  0  0  0  0  0  0  0  0  0  0  0
   18.0721  -30.7831   61.7670 H   0  0  0  0  0  0  0  0  0  0  0  0
   20.6471  -25.5493   57.9327 H   0  0  0  0  0  0  0  0  0  0  0  0
   10.1097  -28.8156   59.1334 H   0  0  0  0  0  0  0  0  0  0  0  0
   18.2955  -25.3812   57.9294 H   0  0  0  0  0  0  0  0  0  0  0  0
   12.6107  -29.2139   58.8891 H   0  0  0  0  0  0  0  0  0  0  0  0
   21.6904  -29.2340   60.4686 H   0  0  0  0  0  0  0  0  0  0  0  0
   21.7575  -27.2924   59.1082 H   0  0  0  0  0  0  0  0  0  0  0  0
   16.8551  -29.0642   60.6664 H   0  0  0  0  0  0  0  0  0  0  0  0
  1 19  1  0  0  0  0
  1 20  1  0  0  0  0
  2  3  2  0  0  0  0
  2  4  2  0  0  0  0
  2  5  1  0  0  0  0
  2 19  1  0  0  0  0
  6  7  2  0  0  0  0
  6  8  1  0  0  0  0
  7 21  1  0  0  0  0
  8  9  1  0  0  0  0
  8 22  1  0  0  0  0
  9 21  2  0  0  0  0
 10 11  2  0  0  0  0
 10 16  1  0  0  0  0
 11 18  1  0  0  0  0
 12 14  1  0  0  0  0
 12 17  2  0  0  0  0
 13 15  1  0  0  0  0
 13 19  2  0  0  0  0
 14 22  2  0  0  0  0
 15 20  2  0  0  0  0
 16 23  2  0  0  0  0
 17 23  1  0  0  0  0
 18 24  2  0  0  0  0
 20 21  1  0  0  0  0
 22 24  1  0  0  0  0
 23 24  1  0  0  0  0
  5 25  1  0  0  0  0
  5 26  1  0  0  0  0
  9 27  1  0  0  0  0
 10 28  1  0  0  0  0
 11 29  1  0  0  0  0
 12 30  1  0  0  0  0
 13 31  1  0  0  0  0
 14 32  1  0  0  0  0
 15 33  1  0  0  0  0
 16 34  1  0  0  0  0
 17 35  1  0  0  0  0
 18 36  1  0  0  0  0
M  END
> <pdb_id>
5FL4

> <uniprot_id>
Q16790

> <usmiles>
S(=O)(=O)(N)C=1SC(C=2N=NN(c3c4c(ccc3)cccc4)C2)=CC1

$$$$
9FK_A_271
          07192416293D 1   1.00000     0.00000     0
            
 36 39  0  0  0  0            999 V2000
   -4.0616    2.8281   15.5485 S   0  0  0  0  0  0  0  0  0  0  0  0
   -6.0189    0.9473   17.0019 S   0  0  0  0  0  0  0  0  0  0  0  0
   -7.4928    0.9350   16.9421 O   0  0  0  0  0  0  0  0  0  0  0  0
   -5.3925    1.0610   18.2673 O   0  0  0  0  0  0  0  0  0  0  0  0
   -5.4300   -0.3622   16.2569 N   0  0  0  0  0  0  0  0  0  0  0  0
   -3.1747    7.2866   13.4852 N   0  0  0  0  0  0  0  0  0  0  0  0
   -4.2237    6.5661   13.9908 N   0  0  0  0  0  0  0  0  0  0  0  0
   -2.0622    6.4808   13.6046 N   0  0  0  0  0  0  0  0  0  0  0  0
   -2.3249    5.2630   14.1574 C   0  0  0  0  0  0  0  0  0  0  0  0
    0.9823   10.3673   14.8394 C   0  0  0  0  0  0  0  0  0  0  0  0
   -0.2529    9.9445   15.3250 C   0  0  0  0  0  0  0  0  0  0  0  0
    1.0390    6.7792   11.6276 C   0  0  0  0  0  0  0  0  0  0  0  0
   -6.5136    3.4741   15.8939 C   0  0  0  0  0  0  0  0  0  0  0  0
   -0.2083    6.3823   12.0781 C   0  0  0  0  0  0  0  0  0  0  0  0
   -5.8857    4.5561   15.2979 C   0  0  0  0  0  0  0  0  0  0  0  0
    1.5771    9.7000   13.7708 C   0  0  0  0  0  0  0  0  0  0  0  0
    1.6734    7.8891   12.1955 C   0  0  0  0  0  0  0  0  0  0  0  0
   -0.8714    8.8207   14.7951 C   0  0  0  0  0  0  0  0  0  0  0  0
   -5.6081    2.4146   16.2007 C   0  0  0  0  0  0  0  0  0  0  0  0
   -4.5362    4.3464   15.0210 C   0  0  0  0  0  0  0  0  0  0  0  0
   -3.6952    5.3504   14.3565 C   0  0  0  0  0  0  0  0  0  0  0  0
   -0.8650    6.9245   13.1449 C   0  0  0  0  0  0  0  0  0  0  0  0
    0.9997    8.5931   13.1969 C   0  0  0  0  0  0  0  0  0  0  0  0
   -0.2676    8.1305   13.7526 C   0  0  0  0  0  0  0  0  0  0  0  0
   -4.4310   -0.3492   16.3001 H   0  0  0  0  0  0  0  0  0  0  0  0
   -5.7726   -1.1855   16.7095 H   0  0  0  0  0  0  0  0  0  0  0  0
   -1.6995    4.5104   14.3635 H   0  0  0  0  0  0  0  0  0  0  0  0
    1.4425   11.1502   15.2581 H   0  0  0  0  0  0  0  0  0  0  0  0
   -0.6976   10.4548   16.0612 H   0  0  0  0  0  0  0  0  0  0  0  0
    1.4883    6.2704   10.8932 H   0  0  0  0  0  0  0  0  0  0  0  0
   -7.4940    3.4395   16.0878 H   0  0  0  0  0  0  0  0  0  0  0  0
   -0.6632    5.6415   11.5840 H   0  0  0  0  0  0  0  0  0  0  0  0
   -6.3588    5.4111   15.0854 H   0  0  0  0  0  0  0  0  0  0  0  0
    2.4479   10.0358   13.4117 H   0  0  0  0  0  0  0  0  0  0  0  0
    2.5840    8.1709   11.8931 H   0  0  0  0  0  0  0  0  0  0  0  0
   -1.7479    8.5095   15.1625 H   0  0  0  0  0  0  0  0  0  0  0  0
  1 19  1  0  0  0  0
  1 20  1  0  0  0  0
  2  3  2  0  0  0  0
  2  4  2  0  0  0  0
  2  5  1  0  0  0  0
  2 19  1  0  0  0  0
  6  7  2  0  0  0  0
  6  8  1  0  0  0  0
  7 21  1  0  0  0  0
  8  9  1  0  0  0  0
  8 22  1  0  0  0  0
  9 21  2  0  0  0  0
 10 11  2  0  0  0  0
 10 16  1  0  0  0  0
 11 18  1  0  0  0  0
 12 14  1  0  0  0  0
 12 17  2  0  0  0  0
 13 15  1  0  0  0  0
 13 19  2  0  0  0  0
 14 22  2  0  0  0  0
 15 20  2  0  0  0  0
 16 23  2  0  0  0  0
 17 23  1  0  0  0  0
 18 24  2  0  0  0  0
 20 21  1  0  0  0  0
 22 24  1  0  0  0  0
 23 24  1  0  0  0  0
  5 25  1  0  0  0  0
  5 26  1  0  0  0  0
  9 27  1  0  0  0  0
 10 28  1  0  0  0  0
 11 29  1  0  0  0  0
 12 30  1  0  0  0  0
 13 31  1  0  0  0  0
 14 32  1  0  0  0  0
 15 33  1  0  0  0  0
 16 34  1  0  0  0  0
 17 35  1  0  0  0  0
 18 36  1  0  0  0  0
M  END
> <pdb_id>
4BF1

> <uniprot_id>
P00918

> <usmiles>
S(=O)(=O)(N)C=1SC(C=2N=NN(c3c4c(ccc3)cccc4)C2)=CC1

$$$$
9FQ_A_911
          07192420383D 1   1.00000     0.00000     0
            
 28 29  0  0  0  0            999 V2000
   56.9910   69.1870   61.9820 S   0  0  0  0  0  0  0  0  0  0  0  0
   56.0330   69.8370   61.1260 O   0  0  0  0  0  0  0  0  0  0  0  0
   57.2140   69.7260   63.2810 O   0  0  0  0  0  0  0  0  0  0  0  0
   61.7580   68.3980   61.6860 O   0  0  0  0  0  0  0  0  0  0  0  0
   57.6990   65.6620   57.9420 O   0  0  0  0  0  0  0  0  0  0  0  0
   56.1730   65.2880   60.3110 O   0  0  0  0  0  0  0  0  0  0  0  0
   60.3610   66.5780   58.2360 O   0  0  0  0  0  0  0  0  0  0  0  0
   56.6240   67.6830   62.1420 O   0  0  0  0  0  0  0  0  0  0  0  0
   58.2920   68.9730   61.1730 O   0  0  0  0  0  0  0  0  0  0  0  0
   61.0210   68.3790   60.4560 C   0  0  0  0  0  0  0  0  0  0  0  0
   58.2900   65.9080   59.2430 C   0  0  2  0  0  0  0  0  0  0  0  0
   57.1340   66.3270   60.1810 C   0  0  2  0  0  0  0  0  0  0  0  0
   59.3290   66.9940   59.1440 C   0  0  1  0  0  0  0  0  0  0  0  0
   57.6330   66.8080   61.5450 C   0  0  1  0  0  0  0  0  0  0  0  0
   58.8680   67.6740   61.5020 C   0  0  1  0  0  0  0  0  0  0  0  0
   59.9460   67.2900   60.4990 C   0  0  2  0  0  0  0  0  0  0  0  0
   62.4562   69.1127   61.6452 H   0  0  0  0  0  0  0  0  0  0  0  0
   58.4130   65.3866   57.2983 H   0  0  0  0  0  0  0  0  0  0  0  0
   55.4396   65.5868   60.9216 H   0  0  0  0  0  0  0  0  0  0  0  0
   61.0535   67.2961   58.1669 H   0  0  0  0  0  0  0  0  0  0  0  0
   61.6475   68.1947   59.6986 H   0  0  0  0  0  0  0  0  0  0  0  0
   60.5847   69.2683   60.3188 H   0  0  0  0  0  0  0  0  0  0  0  0
   58.7126   65.0685   59.5845 H   0  0  0  0  0  0  0  0  0  0  0  0
   56.6718   67.1011   59.7485 H   0  0  0  0  0  0  0  0  0  0  0  0
   58.8997   67.8257   58.7918 H   0  0  0  0  0  0  0  0  0  0  0  0
   57.7931   66.0218   62.1418 H   0  0  0  0  0  0  0  0  0  0  0  0
   59.2709   67.7161   62.4163 H   0  0  0  0  0  0  0  0  0  0  0  0
   60.3785   66.4496   60.8255 H   0  0  0  0  0  0  0  0  0  0  0  0
  1  2  2  0  0  0  0
  1  3  2  0  0  0  0
  1  8  1  0  0  0  0
  1  9  1  0  0  0  0
  4 10  1  0  0  0  0
  5 11  1  0  0  0  0
  6 12  1  0  0  0  0
  7 13  1  0  0  0  0
  8 14  1  0  0  0  0
  9 15  1  0  0  0  0
 10 16  1  0  0  0  0
 11 12  1  0  0  0  0
 11 13  1  0  0  0  0
 12 14  1  0  0  0  0
 13 16  1  0  0  0  0
 14 15  1  0  0  0  0
 15 16  1  0  0  0  0
  4 17  1  0  0  0  0
  5 18  1  0  0  0  0
  6 19  1  0  0  0  0
  7 20  1  0  0  0  0
 10 21  1  0  0  0  0
 10 22  1  0  0  0  0
 11 23  1  0  0  0  0
 12 24  1  0  0  0  0
 13 25  1  0  0  0  0
 14 26  1  0  0  0  0
 15 27  1  0  0  0  0
 16 28  1  0  0  0  0
M  END
> <pdb_id>
5O0S

> <uniprot_id>
F6BL85

> <usmiles>
S1(=O)(=O)O[C@@H]2[C@@H]([C@@H](O)[C@H](O)[C@@H](O)[C@@H]2O1)CO

$$$$
9FW_A_201
          07202408113D 1   1.00000     0.00000     0
            
 45 48  0  0  0  0            999 V2000
  -28.1980    9.5443   10.7654 Cl  0  0  0  0  0  0  0  0  0  0  0  0
  -21.3865   13.0054   21.3995 O   0  0  0  0  0  0  0  0  0  0  0  0
  -20.7453   10.4207   20.6164 O   0  0  0  0  0  0  0  0  0  0  0  0
  -21.4378   14.2484   19.6933 O   0  0  0  0  0  0  0  0  0  0  0  0
  -29.1929   11.2145   13.8071 N   0  0  0  0  0  0  0  0  0  0  0  0
  -25.8920    8.7190   11.5232 N   0  0  0  0  0  0  0  0  0  0  0  0
  -26.3380    9.9935   15.4731 N   0  0  0  0  0  0  0  0  0  0  0  0
  -23.6185   13.3052   18.1479 N   0  0  0  0  0  0  0  0  0  0  0  0
  -22.2775    9.4805   19.2678 N   0  0  0  0  0  0  0  0  0  0  0  0
  -21.8058    8.1516   19.6661 C   0  0  0  0  0  0  0  0  0  0  0  0
  -23.4575   15.7448   18.1588 C   0  0  0  0  0  0  0  0  0  0  0  0
  -21.3722   14.3524   18.3153 C   0  0  0  0  0  0  0  0  0  0  0  0
  -28.3192   10.6104   13.5240 C   0  0  0  0  0  0  0  0  0  0  0  0
  -24.9609    8.5178   12.4502 C   0  0  0  0  0  0  0  0  0  0  0  0
  -25.0487    8.9238   13.7535 C   0  0  0  0  0  0  0  0  0  0  0  0
  -24.9063    8.5715   16.8751 C   0  0  0  0  0  0  0  0  0  0  0  0
  -23.9102    8.4731   17.7883 C   0  0  0  0  0  0  0  0  0  0  0  0
  -24.7754   10.9406   17.0280 C   0  0  0  0  0  0  0  0  0  0  0  0
  -21.6363   13.0403   20.2527 C   0  0  0  0  0  0  0  0  0  0  0  0
  -26.9716    9.3675   11.9293 C   0  0  0  0  0  0  0  0  0  0  0  0
  -21.6598   10.6188   19.8606 C   0  0  0  0  0  0  0  0  0  0  0  0
  -22.7987   14.4473   17.7123 C   0  0  1  0  0  0  0  0  0  0  0  0
  -25.3431    9.8347   16.4757 C   0  0  0  0  0  0  0  0  0  0  0  0
  -26.1841    9.5974   14.1797 C   0  0  0  0  0  0  0  0  0  0  0  0
  -23.3032    9.6034   18.3520 C   0  0  0  0  0  0  0  0  0  0  0  0
  -23.1611   12.0746   18.5474 C   0  0  0  0  0  0  0  0  0  0  0  0
  -27.1839    9.8516   13.2184 C   0  0  0  0  0  0  0  0  0  0  0  0
  -23.7532   10.8659   17.9675 C   0  0  0  0  0  0  0  0  0  0  0  0
  -22.1740   11.9314   19.4758 C   0  0  0  0  0  0  0  0  0  0  0  0
  -27.2031   10.4221   15.7334 H   0  0  0  0  0  0  0  0  0  0  0  0
  -24.6095   13.4396   18.1534 H   0  0  0  0  0  0  0  0  0  0  0  0
  -22.3248    7.4524   19.1745 H   0  0  0  0  0  0  0  0  0  0  0  0
  -20.8346    8.0627   19.4453 H   0  0  0  0  0  0  0  0  0  0  0  0
  -21.9361    8.0329   20.6505 H   0  0  0  0  0  0  0  0  0  0  0  0
  -22.9003   16.5207   17.8627 H   0  0  0  0  0  0  0  0  0  0  0  0
  -24.3681   15.8137   17.7513 H   0  0  0  0  0  0  0  0  0  0  0  0
  -23.5369   15.7526   19.1556 H   0  0  0  0  0  0  0  0  0  0  0  0
  -20.9110   13.5459   17.9455 H   0  0  0  0  0  0  0  0  0  0  0  0
  -20.8557   15.1731   18.0709 H   0  0  0  0  0  0  0  0  0  0  0  0
  -24.1319    8.0319   12.1734 H   0  0  0  0  0  0  0  0  0  0  0  0
  -24.3023    8.7371   14.3923 H   0  0  0  0  0  0  0  0  0  0  0  0
  -25.3237    7.7476   16.4917 H   0  0  0  0  0  0  0  0  0  0  0  0
  -23.5984    7.5653   18.0689 H   0  0  0  0  0  0  0  0  0  0  0  0
  -25.1059   11.8418   16.7476 H   0  0  0  0  0  0  0  0  0  0  0  0
  -22.7328   14.4406   16.7145 H   0  0  0  0  0  0  0  0  0  0  0  0
  1 20  1  0  0  0  0
  2 19  2  0  0  0  0
  3 21  2  0  0  0  0
  4 12  1  0  0  0  0
  4 19  1  0  0  0  0
  5 13  3  0  0  0  0
  6 14  2  0  0  0  0
  6 20  1  0  0  0  0
  7 23  1  0  0  0  0
  7 24  1  0  0  0  0
  8 22  1  0  0  0  0
  8 26  1  0  0  0  0
  9 10  1  0  0  0  0
  9 21  1  0  0  0  0
  9 25  1  0  0  0  0
 11 22  1  0  0  0  0
 12 22  1  0  0  0  0
 13 27  1  0  0  0  0
 14 15  1  0  0  0  0
 15 24  2  0  0  0  0
 16 17  1  0  0  0  0
 16 23  2  0  0  0  0
 17 25  2  0  0  0  0
 18 23  1  0  0  0  0
 18 28  2  0  0  0  0
 19 29  1  0  0  0  0
 20 27  2  0  0  0  0
 21 29  1  0  0  0  0
 24 27  1  0  0  0  0
 25 28  1  0  0  0  0
 26 28  1  0  0  0  0
 26 29  2  0  0  0  0
  7 30  1  0  0  0  0
  8 31  1  0  0  0  0
 10 32  1  0  0  0  0
 10 33  1  0  0  0  0
 10 34  1  0  0  0  0
 11 35  1  0  0  0  0
 11 36  1  0  0  0  0
 11 37  1  0  0  0  0
 12 38  1  0  0  0  0
 12 39  1  0  0  0  0
 14 40  1  0  0  0  0
 15 41  1  0  0  0  0
 16 42  1  0  0  0  0
 17 43  1  0  0  0  0
 18 44  1  0  0  0  0
 22 45  1  0  0  0  0
M  END
> <pdb_id>
7Q7T

> <uniprot_id>
P41182

> <usmiles>
Clc1nccc(Nc2cc3c(N(C(=O)C=4C(=O)OC[C@@H](NC34)C)C)cc2)c1C#N

$$$$
9GA_B_1003
          07202411583D 1   1.00000     0.00000     0
            
 57 60  0  0  0  0            999 V2000
   18.0020    7.1360   21.7880 F   0  0  0  0  0  0  0  0  0  0  0  0
   18.7000    7.3930   23.9030 F   0  0  0  0  0  0  0  0  0  0  0  0
   19.1860    5.4600   22.7640 F   0  0  0  0  0  0  0  0  0  0  0  0
   15.9630    0.7850   18.4510 O   0  0  0  0  0  0  0  0  0  0  0  0
   12.2940    2.6000   21.2030 O   0  0  0  0  0  0  0  0  0  0  0  0
   17.1160    5.8740   23.5400 O   0  0  0  0  0  0  0  0  0  0  0  0
   13.8850    1.3670   14.8870 N   0  0  0  0  0  0  0  0  0  0  0  0
   10.4830    6.2570   17.4920 N   0  0  0  0  0  0  0  0  0  0  0  0
   10.2810    5.9760   19.6030 N   0  0  0  0  0  0  0  0  0  0  0  0
   14.2370    1.9190   19.3570 N   0  0  0  0  0  0  0  0  0  0  0  0
   12.6150    3.3500   17.4700 N   0  0  0  0  0  0  0  0  0  0  0  0
   13.0040    2.3280   15.3920 N   0  0  0  0  0  0  0  0  0  0  0  0
   10.9970    4.9840   17.8310 N   0  0  0  0  0  0  0  0  0  0  0  0
    9.3760    8.1710   18.6910 C   0  0  0  0  0  0  0  0  0  0  0  0
   10.1530    4.6940   14.9250 C   0  0  0  0  0  0  0  0  0  0  0  0
   12.5170    0.2590   20.6590 C   0  0  0  0  0  0  0  0  0  0  0  0
   13.2450    1.0700   22.8670 C   0  0  0  0  0  0  0  0  0  0  0  0
   10.8710    4.8840   19.1760 C   0  0  0  0  0  0  0  0  0  0  0  0
   14.6860    0.9470   15.8280 C   0  0  0  0  0  0  0  0  0  0  0  0
   11.9910    3.0550   14.8160 C   0  0  0  0  0  0  0  0  0  0  0  0
   15.5610    5.2150   21.8810 C   0  0  0  0  0  0  0  0  0  0  0  0
   16.8290    3.5590   23.1520 C   0  0  0  0  0  0  0  0  0  0  0  0
   14.9400    4.2000   21.1850 C   0  0  0  0  0  0  0  0  0  0  0  0
   16.1930    2.5420   22.4600 C   0  0  0  0  0  0  0  0  0  0  0  0
   14.9480    1.4330   18.3220 C   0  0  0  0  0  0  0  0  0  0  0  0
   10.0420    6.8110   18.5920 C   0  0  0  0  0  0  0  0  0  0  0  0
   16.5080    4.8860   22.8580 C   0  0  0  0  0  0  0  0  0  0  0  0
   11.6160    4.0750   16.9640 C   0  0  0  0  0  0  0  0  0  0  0  0
   13.2990    2.4960   16.7190 C   0  0  0  0  0  0  0  0  0  0  0  0
   14.5580    1.7280   20.7630 C   0  0  1  0  0  0  0  0  0  0  0  0
   11.2770    3.9290   15.5850 C   0  0  0  0  0  0  0  0  0  0  0  0
   15.2500    2.8680   21.4760 C   0  0  0  0  0  0  0  0  0  0  0  0
   14.3650    1.6380   17.0080 C   0  0  0  0  0  0  0  0  0  0  0  0
   18.2660    6.4720   22.9800 C   0  0  0  0  0  0  0  0  0  0  0  0
   13.1630    1.4560   21.3770 C   0  0  0  0  0  0  0  0  0  0  0  0
   12.6925    3.3941   21.6619 H   0  0  0  0  0  0  0  0  0  0  0  0
   13.4211    2.4554   19.1414 H   0  0  0  0  0  0  0  0  0  0  0  0
    9.1351    8.3556   19.6438 H   0  0  0  0  0  0  0  0  0  0  0  0
   10.0061    8.8753   18.3640 H   0  0  0  0  0  0  0  0  0  0  0  0
    8.5479    8.1782   18.1304 H   0  0  0  0  0  0  0  0  0  0  0  0
    9.7179    5.2931   15.5971 H   0  0  0  0  0  0  0  0  0  0  0  0
   10.5199    5.2450   14.1755 H   0  0  0  0  0  0  0  0  0  0  0  0
    9.4775    4.0501   14.5657 H   0  0  0  0  0  0  0  0  0  0  0  0
   13.0995   -0.5469   20.7644 H   0  0  0  0  0  0  0  0  0  0  0  0
   11.6189    0.0757   21.0587 H   0  0  0  0  0  0  0  0  0  0  0  0
   12.4126    0.4700   19.6871 H   0  0  0  0  0  0  0  0  0  0  0  0
   13.8477    0.2792   22.9738 H   0  0  0  0  0  0  0  0  0  0  0  0
   13.6091    1.8398   23.3912 H   0  0  0  0  0  0  0  0  0  0  0  0
   12.3314    0.8406   23.2027 H   0  0  0  0  0  0  0  0  0  0  0  0
   11.1730    4.1166   19.7416 H   0  0  0  0  0  0  0  0  0  0  0  0
   15.4015    0.2557   15.7268 H   0  0  0  0  0  0  0  0  0  0  0  0
   11.7788    2.9456   13.8449 H   0  0  0  0  0  0  0  0  0  0  0  0
   15.3385    6.1712   21.6910 H   0  0  0  0  0  0  0  0  0  0  0  0
   17.5094    3.3460   23.8532 H   0  0  0  0  0  0  0  0  0  0  0  0
   14.2702    4.4156   20.4745 H   0  0  0  0  0  0  0  0  0  0  0  0
   16.4044    1.5853   22.6603 H   0  0  0  0  0  0  0  0  0  0  0  0
   15.1167    0.9039   20.8563 H   0  0  0  0  0  0  0  0  0  0  0  0
  1 34  1  0  0  0  0
  2 34  1  0  0  0  0
  3 34  1  0  0  0  0
  4 25  2  0  0  0  0
  5 35  1  0  0  0  0
  6 27  1  0  0  0  0
  6 34  1  0  0  0  0
  7 12  1  0  0  0  0
  7 19  2  0  0  0  0
  8 13  1  0  0  0  0
  8 26  2  0  0  0  0
  9 18  2  0  0  0  0
  9 26  1  0  0  0  0
 10 25  1  0  0  0  0
 10 30  1  0  0  0  0
 11 28  2  0  0  0  0
 11 29  1  0  0  0  0
 12 20  1  0  0  0  0
 12 29  1  0  0  0  0
 13 18  1  0  0  0  0
 13 28  1  0  0  0  0
 14 26  1  0  0  0  0
 15 31  1  0  0  0  0
 16 35  1  0  0  0  0
 17 35  1  0  0  0  0
 19 33  1  0  0  0  0
 20 31  2  0  0  0  0
 21 23  2  0  0  0  0
 21 27  1  0  0  0  0
 22 24  1  0  0  0  0
 22 27  2  0  0  0  0
 23 32  1  0  0  0  0
 24 32  2  0  0  0  0
 25 33  1  0  0  0  0
 28 31  1  0  0  0  0
 29 33  2  0  0  0  0
 30 32  1  0  0  0  0
 30 35  1  0  0  0  0
  5 36  1  0  0  0  0
 10 37  1  0  0  0  0
 14 38  1  0  0  0  0
 14 39  1  0  0  0  0
 14 40  1  0  0  0  0
 15 41  1  0  0  0  0
 15 42  1  0  0  0  0
 15 43  1  0  0  0  0
 16 44  1  0  0  0  0
 16 45  1  0  0  0  0
 16 46  1  0  0  0  0
 17 47  1  0  0  0  0
 17 48  1  0  0  0  0
 17 49  1  0  0  0  0
 18 50  1  0  0  0  0
 19 51  1  0  0  0  0
 20 52  1  0  0  0  0
 21 53  1  0  0  0  0
 22 54  1  0  0  0  0
 23 55  1  0  0  0  0
 24 56  1  0  0  0  0
 30 57  1  0  0  0  0
M  END
> <pdb_id>
5VP1

> <uniprot_id>
O00408

> <usmiles>
FC(F)(F)Oc1ccc(cc1)[C@H](NC(=O)C2=C3N=C(N4N=C(N=C4)C)C(=CN3N=C2)C)C(O)(C)C

$$$$
9GN_A_402
          07202410273D 1   1.00000     0.00000     0
            
 34 35  0  0  0  0            999 V2000
  125.1407  103.4748  -40.6989 I   0  0  0  0  0  0  0  0  0  0  0  0
  124.5899  100.6679  -45.6988 S   0  0  0  0  0  0  0  0  0  0  0  0
  123.1981  105.7870  -46.6758 O   0  0  0  0  0  0  0  0  0  0  0  0
  123.3526  106.9025  -44.7115 O   0  0  0  0  0  0  0  0  0  0  0  0
  124.1583  105.7612  -42.6143 O   0  0  0  0  0  0  0  0  0  0  0  0
  125.2627  101.0990  -42.8197 N   0  0  0  0  0  0  0  0  0  0  0  0
  124.7926   98.9380  -48.3266 C   0  0  0  0  0  0  0  0  0  0  0  0
  123.6991  100.9472  -47.2601 C   0  0  0  0  0  0  0  0  0  0  0  0
  124.5829  100.0245  -42.3069 C   0  0  0  0  0  0  0  0  0  0  0  0
  126.6111  100.9384  -42.5405 C   0  0  0  0  0  0  0  0  0  0  0  0
  123.4790   99.6099  -47.9644 C   0  0  0  0  0  0  0  0  0  0  0  0
  125.4965   99.1863  -41.7053 C   0  0  0  0  0  0  0  0  0  0  0  0
  126.7785   99.7563  -41.8545 C   0  0  0  0  0  0  0  0  0  0  0  0
  124.0236  103.4102  -45.4486 C   0  0  0  0  0  0  0  0  0  0  0  0
  123.4458  105.8627  -45.4278 C   0  0  0  0  0  0  0  0  0  0  0  0
  124.6804  103.4294  -42.7554 C   0  0  0  0  0  0  0  0  0  0  0  0
  124.4577  102.2189  -44.8340 C   0  0  0  0  0  0  0  0  0  0  0  0
  124.2491  104.6136  -43.3600 C   0  0  0  0  0  0  0  0  0  0  0  0
  124.7784  102.2406  -43.4824 C   0  0  0  0  0  0  0  0  0  0  0  0
  123.9120  104.6193  -44.7225 C   0  0  0  0  0  0  0  0  0  0  0  0
  123.3023  104.9150  -47.1541 H   0  0  0  0  0  0  0  0  0  0  0  0
  123.8504  106.6116  -43.0408 H   0  0  0  0  0  0  0  0  0  0  0  0
  124.6072   98.0684  -48.7843 H   0  0  0  0  0  0  0  0  0  0  0  0
  125.3134   99.5327  -48.9391 H   0  0  0  0  0  0  0  0  0  0  0  0
  125.3219   98.7707  -47.4948 H   0  0  0  0  0  0  0  0  0  0  0  0
  124.2382  101.5495  -47.8488 H   0  0  0  0  0  0  0  0  0  0  0  0
  122.8148  101.3728  -47.0683 H   0  0  0  0  0  0  0  0  0  0  0  0
  123.5955   99.8749  -42.3601 H   0  0  0  0  0  0  0  0  0  0  0  0
  127.3398  101.5743  -42.7946 H   0  0  0  0  0  0  0  0  0  0  0  0
  122.9633   99.0056  -47.3570 H   0  0  0  0  0  0  0  0  0  0  0  0
  122.9548   99.7675  -48.8013 H   0  0  0  0  0  0  0  0  0  0  0  0
  125.2873   98.3243  -41.2436 H   0  0  0  0  0  0  0  0  0  0  0  0
  127.6424   99.3752  -41.5253 H   0  0  0  0  0  0  0  0  0  0  0  0
  123.7888  103.4008  -46.4206 H   0  0  0  0  0  0  0  0  0  0  0  0
  1 16  1  0  0  0  0
  2  8  1  0  0  0  0
  2 17  1  0  0  0  0
  3 15  1  0  0  0  0
  4 15  2  0  0  0  0
  5 18  1  0  0  0  0
  6  9  1  0  0  0  0
  6 10  1  0  0  0  0
  6 19  1  0  0  0  0
  7 11  1  0  0  0  0
  8 11  1  0  0  0  0
  9 12  2  0  0  0  0
 10 13  2  0  0  0  0
 12 13  1  0  0  0  0
 14 17  1  0  0  0  0
 14 20  2  0  0  0  0
 15 20  1  0  0  0  0
 16 18  2  0  0  0  0
 16 19  1  0  0  0  0
 17 19  2  0  0  0  0
 18 20  1  0  0  0  0
  3 21  1  0  0  0  0
  5 22  1  0  0  0  0
  7 23  1  0  0  0  0
  7 24  1  0  0  0  0
  7 25  1  0  0  0  0
  8 26  1  0  0  0  0
  8 27  1  0  0  0  0
  9 28  1  0  0  0  0
 10 29  1  0  0  0  0
 11 30  1  0  0  0  0
 11 31  1  0  0  0  0
 12 32  1  0  0  0  0
 13 33  1  0  0  0  0
 14 34  1  0  0  0  0
M  END
> <pdb_id>
5O1H

> <uniprot_id>
P04637

> <usmiles>
Ic1c(O)c(cc(SCCC)c1N2C=CC=C2)C(=O)O

$$$$
9GP_A_998
          07202400133D 1   1.00000     0.00000     0
            
 31 31  0  0  0  0            999 V2000
   37.4899   23.5122   29.8591 O   0  0  0  0  0  0  0  0  0  0  0  0
   33.3466   18.6965   27.4568 O   0  0  0  0  0  0  0  0  0  0  0  0
   34.0114   24.0735   30.3886 O   0  0  0  0  0  0  0  0  0  0  0  0
   34.2098   24.5326   26.2002 O   0  0  0  0  0  0  0  0  0  0  0  0
   31.4070   20.6600   25.3444 O   0  0  0  0  0  0  0  0  0  0  0  0
   33.0859   22.6745   24.2258 O   0  0  0  0  0  0  0  0  0  0  0  0
   33.5990   21.4359   28.1994 O   0  0  0  0  0  0  0  0  0  0  0  0
   35.1299   23.2556   28.6108 N   0  0  0  0  0  0  0  0  0  0  0  0
   36.4046   24.2440   30.4241 C   0  0  0  0  0  0  0  0  0  0  0  0
   32.2553   19.4762   27.9577 C   0  0  0  0  0  0  0  0  0  0  0  0
   35.0647   23.8466   29.8016 C   0  0  0  0  0  0  0  0  0  0  0  0
   33.8692   22.8494   27.9334 C   0  0  1  0  0  0  0  0  0  0  0  0
   32.4185   20.9490   27.5344 C   0  0  2  0  0  0  0  0  0  0  0  0
   34.0277   23.1303   26.4263 C   0  0  1  0  0  0  0  0  0  0  0  0
   32.5756   21.1138   26.0084 C   0  0  2  0  0  0  0  0  0  0  0  0
   32.8278   22.5801   25.6304 C   0  0  2  0  0  0  0  0  0  0  0  0
   38.3455   23.7989   30.2901 H   0  0  0  0  0  0  0  0  0  0  0  0
   33.2313   17.7434   27.7366 H   0  0  0  0  0  0  0  0  0  0  0  0
   34.3114   24.7017   25.2198 H   0  0  0  0  0  0  0  0  0  0  0  0
   31.5201   20.7715   24.3571 H   0  0  0  0  0  0  0  0  0  0  0  0
   32.3027   22.3156   23.7181 H   0  0  0  0  0  0  0  0  0  0  0  0
   36.0150   23.0868   28.1770 H   0  0  0  0  0  0  0  0  0  0  0  0
   36.5568   25.2200   30.2686 H   0  0  0  0  0  0  0  0  0  0  0  0
   36.3704   24.0645   31.4073 H   0  0  0  0  0  0  0  0  0  0  0  0
   32.2385   19.4188   28.9559 H   0  0  0  0  0  0  0  0  0  0  0  0
   31.3970   19.1192   27.5888 H   0  0  0  0  0  0  0  0  0  0  0  0
   33.1142   23.3994   28.2908 H   0  0  0  0  0  0  0  0  0  0  0  0
   31.6246   21.4724   27.8439 H   0  0  0  0  0  0  0  0  0  0  0  0
   34.8502   22.6578   26.1097 H   0  0  0  0  0  0  0  0  0  0  0  0
   33.3534   20.5642   25.7035 H   0  0  0  0  0  0  0  0  0  0  0  0
   32.0147   23.1190   25.8504 H   0  0  0  0  0  0  0  0  0  0  0  0
  1  9  1  0  0  0  0
  2 10  1  0  0  0  0
  3 11  2  0  0  0  0
  4 14  1  0  0  0  0
  5 15  1  0  0  0  0
  6 16  1  0  0  0  0
  7 12  1  0  0  0  0
  7 13  1  0  0  0  0
  8 11  1  0  0  0  0
  8 12  1  0  0  0  0
  9 11  1  0  0  0  0
 10 13  1  0  0  0  0
 12 14  1  0  0  0  0
 13 15  1  0  0  0  0
 14 16  1  0  0  0  0
 15 16  1  0  0  0  0
  1 17  1  0  0  0  0
  2 18  1  0  0  0  0
  4 19  1  0  0  0  0
  5 20  1  0  0  0  0
  6 21  1  0  0  0  0
  8 22  1  0  0  0  0
  9 23  1  0  0  0  0
  9 24  1  0  0  0  0
 10 25  1  0  0  0  0
 10 26  1  0  0  0  0
 12 27  1  0  0  0  0
 13 28  1  0  0  0  0
 14 29  1  0  0  0  0
 15 30  1  0  0  0  0
 16 31  1  0  0  0  0
M  END
> <pdb_id>
3G2J

> <uniprot_id>
P00489

> <usmiles>
O=C(N[C@@H]1O[C@@H]([C@@H](O)[C@H](O)[C@H]1O)CO)CO

$$$$
9GR_A_201
          07202408113D 1   1.00000     0.00000     0
            
 50 54  0  0  0  0            999 V2000
  -27.9530    9.9134   10.9429 Cl  0  0  0  0  0  0  0  0  0  0  0  0
  -20.8072   10.4889   21.0059 O   0  0  0  0  0  0  0  0  0  0  0  0
  -21.8935   12.8975   20.7831 O   0  0  0  0  0  0  0  0  0  0  0  0
  -29.2325   11.2551   14.0222 N   0  0  0  0  0  0  0  0  0  0  0  0
  -25.6159    9.1914   11.7152 N   0  0  0  0  0  0  0  0  0  0  0  0
  -26.2627   10.1552   15.6891 N   0  0  0  0  0  0  0  0  0  0  0  0
  -23.7428   13.3094   18.6596 N   0  0  0  0  0  0  0  0  0  0  0  0
  -22.2660    9.5767   19.5362 N   0  0  0  0  0  0  0  0  0  0  0  0
  -21.6734    8.2643   19.7685 C   0  0  0  0  0  0  0  0  0  0  0  0
  -22.9345   13.7150   21.3702 C   0  0  0  0  0  0  0  0  0  0  0  0
  -28.2604   10.7237   13.7819 C   0  0  0  0  0  0  0  0  0  0  0  0
  -24.6792    8.9901   12.6425 C   0  0  0  0  0  0  0  0  0  0  0  0
  -23.2768   14.9103   20.5129 C   0  0  0  0  0  0  0  0  0  0  0  0
  -24.8398    9.2874   13.9765 C   0  0  0  0  0  0  0  0  0  0  0  0
  -24.7989    8.7406   16.9833 C   0  0  0  0  0  0  0  0  0  0  0  0
  -23.8096    8.6038   17.9314 C   0  0  0  0  0  0  0  0  0  0  0  0
  -22.9113   16.6755   17.5745 C   0  0  0  0  0  0  0  0  0  0  0  0
  -23.4672   15.5969   16.7175 C   0  0  0  0  0  0  0  0  0  0  0  0
  -24.8446   11.1023   17.3662 C   0  0  0  0  0  0  0  0  0  0  0  0
  -26.7493    9.7117   12.1243 C   0  0  0  0  0  0  0  0  0  0  0  0
  -21.7449   10.6368   20.2471 C   0  0  0  0  0  0  0  0  0  0  0  0
  -22.3510   11.8907   19.9712 C   0  0  0  0  0  0  0  0  0  0  0  0
  -25.3168    9.9888   16.6922 C   0  0  0  0  0  0  0  0  0  0  0  0
  -23.1311   14.5679   19.0602 C   0  0  2  0  0  0  0  0  0  0  0  0
  -26.0394    9.8466   14.3947 C   0  0  0  0  0  0  0  0  0  0  0  0
  -23.3165    9.7125   18.6086 C   0  0  0  0  0  0  0  0  0  0  0  0
  -23.3248   12.1078   19.0485 C   0  0  0  0  0  0  0  0  0  0  0  0
  -23.7626   15.6118   18.1782 C   0  0  0  0  0  0  0  0  0  0  0  0
  -27.0349   10.0772   13.4247 C   0  0  0  0  0  0  0  0  0  0  0  0
  -23.8485   10.9796   18.3242 C   0  0  0  0  0  0  0  0  0  0  0  0
  -27.1579   10.5238   15.9398 H   0  0  0  0  0  0  0  0  0  0  0  0
  -24.5334   13.3510   18.0486 H   0  0  0  0  0  0  0  0  0  0  0  0
  -22.1347    7.5846   19.1983 H   0  0  0  0  0  0  0  0  0  0  0  0
  -20.7015    8.2913   19.5345 H   0  0  0  0  0  0  0  0  0  0  0  0
  -21.7776    8.0173   20.7319 H   0  0  0  0  0  0  0  0  0  0  0  0
  -22.6236   14.0386   22.2638 H   0  0  0  0  0  0  0  0  0  0  0  0
  -23.7557   13.1561   21.4853 H   0  0  0  0  0  0  0  0  0  0  0  0
  -23.8063    8.5991   12.3506 H   0  0  0  0  0  0  0  0  0  0  0  0
  -22.6600   15.6648   20.7375 H   0  0  0  0  0  0  0  0  0  0  0  0
  -24.2208   15.1864   20.6937 H   0  0  0  0  0  0  0  0  0  0  0  0
  -24.1068    9.1042   14.6315 H   0  0  0  0  0  0  0  0  0  0  0  0
  -25.1439    7.9339   16.5035 H   0  0  0  0  0  0  0  0  0  0  0  0
  -23.4420    7.6964   18.1349 H   0  0  0  0  0  0  0  0  0  0  0  0
  -23.2608   17.6089   17.4927 H   0  0  0  0  0  0  0  0  0  0  0  0
  -21.9311   16.7026   17.7709 H   0  0  0  0  0  0  0  0  0  0  0  0
  -22.8611   14.8982   16.3374 H   0  0  0  0  0  0  0  0  0  0  0  0
  -24.1907   15.8045   16.0592 H   0  0  0  0  0  0  0  0  0  0  0  0
  -25.2253   12.0038   17.1605 H   0  0  0  0  0  0  0  0  0  0  0  0
  -22.1555   14.5244   18.8450 H   0  0  0  0  0  0  0  0  0  0  0  0
  -24.6897   15.8894   18.4303 H   0  0  0  0  0  0  0  0  0  0  0  0
  1 20  1  0  0  0  0
  2 21  2  0  0  0  0
  3 10  1  0  0  0  0
  3 22  1  0  0  0  0
  4 11  3  0  0  0  0
  5 12  2  0  0  0  0
  5 20  1  0  0  0  0
  6 23  1  0  0  0  0
  6 25  1  0  0  0  0
  7 24  1  0  0  0  0
  7 27  1  0  0  0  0
  8  9  1  0  0  0  0
  8 21  1  0  0  0  0
  8 26  1  0  0  0  0
 10 13  1  0  0  0  0
 11 29  1  0  0  0  0
 12 14  1  0  0  0  0
 13 24  1  0  0  0  0
 14 25  2  0  0  0  0
 15 16  1  0  0  0  0
 15 23  2  0  0  0  0
 16 26  2  0  0  0  0
 17 18  1  0  0  0  0
 17 28  1  0  0  0  0
 18 28  1  0  0  0  0
 19 23  1  0  0  0  0
 19 30  2  0  0  0  0
 20 29  2  0  0  0  0
 21 22  1  0  0  0  0
 22 27  2  0  0  0  0
 24 28  1  0  0  0  0
 25 29  1  0  0  0  0
 26 30  1  0  0  0  0
 27 30  1  0  0  0  0
  6 31  1  0  0  0  0
  7 32  1  0  0  0  0
  9 33  1  0  0  0  0
  9 34  1  0  0  0  0
  9 35  1  0  0  0  0
 10 36  1  0  0  0  0
 10 37  1  0  0  0  0
 12 38  1  0  0  0  0
 13 39  1  0  0  0  0
 13 40  1  0  0  0  0
 14 41  1  0  0  0  0
 15 42  1  0  0  0  0
 16 43  1  0  0  0  0
 17 44  1  0  0  0  0
 17 45  1  0  0  0  0
 18 46  1  0  0  0  0
 18 47  1  0  0  0  0
 19 48  1  0  0  0  0
 24 49  1  0  0  0  0
 28 50  1  0  0  0  0
M  END
> <pdb_id>
7Q7V

> <uniprot_id>
P41182

> <usmiles>
Clc1nccc(Nc2cc3c(N(C(=O)C=4OCC[C@@H](NC34)C5CC5)C)cc2)c1C#N

$$$$
9GT_A_402
          07202410273D 1   1.00000     0.00000     0
            
 32 33  0  0  0  0            999 V2000
  125.1563  103.3604  -40.7152 I   0  0  0  0  0  0  0  0  0  0  0  0
  123.3320  106.7312  -44.7302 O   0  0  0  0  0  0  0  0  0  0  0  0
  123.2433  105.6037  -46.6949 O   0  0  0  0  0  0  0  0  0  0  0  0
  124.1355  105.6225  -42.6468 O   0  0  0  0  0  0  0  0  0  0  0  0
  124.7097  100.9148  -45.5539 O   0  0  0  0  0  0  0  0  0  0  0  0
  125.3635  100.9873  -42.8304 N   0  0  0  0  0  0  0  0  0  0  0  0
  124.7169   98.8779  -48.2768 C   0  0  0  0  0  0  0  0  0  0  0  0
  124.1848  100.8779  -46.8831 C   0  0  0  0  0  0  0  0  0  0  0  0
  124.6634   99.9332  -42.2895 C   0  0  0  0  0  0  0  0  0  0  0  0
  126.6974  100.8364  -42.4816 C   0  0  0  0  0  0  0  0  0  0  0  0
  124.0148   99.4491  -47.2938 C   0  0  0  0  0  0  0  0  0  0  0  0
  125.5530   99.1140  -41.6331 C   0  0  0  0  0  0  0  0  0  0  0  0
  126.8408   99.6751  -41.7564 C   0  0  0  0  0  0  0  0  0  0  0  0
  124.1070  103.2789  -45.4838 C   0  0  0  0  0  0  0  0  0  0  0  0
  123.4720  105.6977  -45.4463 C   0  0  0  0  0  0  0  0  0  0  0  0
  124.7267  103.2860  -42.7807 C   0  0  0  0  0  0  0  0  0  0  0  0
  124.2757  104.4702  -43.3846 C   0  0  0  0  0  0  0  0  0  0  0  0
  124.5600  102.0937  -44.8888 C   0  0  0  0  0  0  0  0  0  0  0  0
  124.8664  102.1038  -43.5258 C   0  0  0  0  0  0  0  0  0  0  0  0
  123.9613  104.4673  -44.7457 C   0  0  0  0  0  0  0  0  0  0  0  0
  123.5415  106.6946  -43.7531 H   0  0  0  0  0  0  0  0  0  0  0  0
  123.8135  106.4613  -43.0858 H   0  0  0  0  0  0  0  0  0  0  0  0
  124.5618   97.9177  -48.5093 H   0  0  0  0  0  0  0  0  0  0  0  0
  125.3975   99.4105  -48.7799 H   0  0  0  0  0  0  0  0  0  0  0  0
  124.8186  101.3341  -47.5077 H   0  0  0  0  0  0  0  0  0  0  0  0
  123.2997  101.3425  -46.9081 H   0  0  0  0  0  0  0  0  0  0  0  0
  123.6766   99.7875  -42.3612 H   0  0  0  0  0  0  0  0  0  0  0  0
  127.4352  101.4686  -42.7183 H   0  0  0  0  0  0  0  0  0  0  0  0
  123.3409   98.8929  -46.8075 H   0  0  0  0  0  0  0  0  0  0  0  0
  125.3257   98.2673  -41.1520 H   0  0  0  0  0  0  0  0  0  0  0  0
  127.6925   99.3020  -41.3886 H   0  0  0  0  0  0  0  0  0  0  0  0
  123.8815  103.2797  -46.4580 H   0  0  0  0  0  0  0  0  0  0  0  0
  1 16  1  0  0  0  0
  2 15  1  0  0  0  0
  3 15  2  0  0  0  0
  4 17  1  0  0  0  0
  5  8  1  0  0  0  0
  5 18  1  0  0  0  0
  6  9  1  0  0  0  0
  6 10  1  0  0  0  0
  6 19  1  0  0  0  0
  7 11  2  0  0  0  0
  8 11  1  0  0  0  0
  9 12  2  0  0  0  0
 10 13  2  0  0  0  0
 12 13  1  0  0  0  0
 14 18  1  0  0  0  0
 14 20  2  0  0  0  0
 15 20  1  0  0  0  0
 16 17  2  0  0  0  0
 16 19  1  0  0  0  0
 17 20  1  0  0  0  0
 18 19  2  0  0  0  0
  2 21  1  0  0  0  0
  4 22  1  0  0  0  0
  7 23  1  0  0  0  0
  7 24  1  0  0  0  0
  8 25  1  0  0  0  0
  8 26  1  0  0  0  0
  9 27  1  0  0  0  0
 10 28  1  0  0  0  0
 11 29  1  0  0  0  0
 12 30  1  0  0  0  0
 13 31  1  0  0  0  0
 14 32  1  0  0  0  0
M  END
> <pdb_id>
5O1E

> <uniprot_id>
P04637

> <usmiles>
Ic1c(O)c(cc(OCC=C)c1N2C=CC=C2)C(=O)O

$$$$
9GW_A_402
          07202410273D 1   1.00000     0.00000     0
            
 34 35  0  0  0  0            999 V2000
  125.1597  103.3682  -40.7539 I   0  0  0  0  0  0  0  0  0  0  0  0
  123.1617  105.7180  -46.6902 O   0  0  0  0  0  0  0  0  0  0  0  0
  123.3624  106.8388  -44.7211 O   0  0  0  0  0  0  0  0  0  0  0  0
  124.1332  105.6649  -42.6721 O   0  0  0  0  0  0  0  0  0  0  0  0
  124.6296  101.0074  -45.6653 O   0  0  0  0  0  0  0  0  0  0  0  0
  125.3149  101.0240  -42.9145 N   0  0  0  0  0  0  0  0  0  0  0  0
  125.3277   99.1435  -47.8093 C   0  0  0  0  0  0  0  0  0  0  0  0
  123.8065  100.8903  -46.8293 C   0  0  0  0  0  0  0  0  0  0  0  0
  124.6129   99.9745  -42.3725 C   0  0  0  0  0  0  0  0  0  0  0  0
  126.6462  100.8644  -42.5743 C   0  0  0  0  0  0  0  0  0  0  0  0
  123.9166   99.4669  -47.3499 C   0  0  0  0  0  0  0  0  0  0  0  0
  125.4956   99.1401  -41.7276 C   0  0  0  0  0  0  0  0  0  0  0  0
  126.7866   99.6997  -41.8591 C   0  0  0  0  0  0  0  0  0  0  0  0
  124.0541  103.3786  -45.5240 C   0  0  0  0  0  0  0  0  0  0  0  0
  123.4414  105.8056  -45.4484 C   0  0  0  0  0  0  0  0  0  0  0  0
  124.7053  103.3309  -42.8273 C   0  0  0  0  0  0  0  0  0  0  0  0
  124.2544  104.5211  -43.4178 C   0  0  0  0  0  0  0  0  0  0  0  0
  124.5018  102.1755  -44.9615 C   0  0  0  0  0  0  0  0  0  0  0  0
  124.8280  102.1591  -43.5971 C   0  0  0  0  0  0  0  0  0  0  0  0
  123.9245  104.5556  -44.7711 C   0  0  0  0  0  0  0  0  0  0  0  0
  123.2628  104.8436  -47.1650 H   0  0  0  0  0  0  0  0  0  0  0  0
  123.8112  106.5093  -43.1003 H   0  0  0  0  0  0  0  0  0  0  0  0
  125.3617   98.2018  -48.1442 H   0  0  0  0  0  0  0  0  0  0  0  0
  125.5904   99.7683  -48.5446 H   0  0  0  0  0  0  0  0  0  0  0  0
  125.9603   99.2473  -47.0418 H   0  0  0  0  0  0  0  0  0  0  0  0
  124.1186  101.5318  -47.5301 H   0  0  0  0  0  0  0  0  0  0  0  0
  122.8559  101.0914  -46.5928 H   0  0  0  0  0  0  0  0  0  0  0  0
  123.6240   99.8398  -42.4364 H   0  0  0  0  0  0  0  0  0  0  0  0
  127.3860  101.4943  -42.8105 H   0  0  0  0  0  0  0  0  0  0  0  0
  123.6608   98.8340  -46.6191 H   0  0  0  0  0  0  0  0  0  0  0  0
  123.2909   99.3551  -48.1219 H   0  0  0  0  0  0  0  0  0  0  0  0
  125.2657   98.2912  -41.2518 H   0  0  0  0  0  0  0  0  0  0  0  0
  127.6395   99.3205  -41.5002 H   0  0  0  0  0  0  0  0  0  0  0  0
  123.8190  103.3990  -46.4958 H   0  0  0  0  0  0  0  0  0  0  0  0
  1 16  1  0  0  0  0
  2 15  1  0  0  0  0
  3 15  2  0  0  0  0
  4 17  1  0  0  0  0
  5  8  1  0  0  0  0
  5 18  1  0  0  0  0
  6  9  1  0  0  0  0
  6 10  1  0  0  0  0
  6 19  1  0  0  0  0
  7 11  1  0  0  0  0
  8 11  1  0  0  0  0
  9 12  2  0  0  0  0
 10 13  2  0  0  0  0
 12 13  1  0  0  0  0
 14 18  1  0  0  0  0
 14 20  2  0  0  0  0
 15 20  1  0  0  0  0
 16 17  2  0  0  0  0
 16 19  1  0  0  0  0
 17 20  1  0  0  0  0
 18 19  2  0  0  0  0
  2 21  1  0  0  0  0
  4 22  1  0  0  0  0
  7 23  1  0  0  0  0
  7 24  1  0  0  0  0
  7 25  1  0  0  0  0
  8 26  1  0  0  0  0
  8 27  1  0  0  0  0
  9 28  1  0  0  0  0
 10 29  1  0  0  0  0
 11 30  1  0  0  0  0
 11 31  1  0  0  0  0
 12 32  1  0  0  0  0
 13 33  1  0  0  0  0
 14 34  1  0  0  0  0
M  END
> <pdb_id>
5O1D

> <uniprot_id>
P04637

> <usmiles>
Ic1c(O)c(cc(OCCC)c1N2C=CC=C2)C(=O)O

$$$$
9H2_A_402
          07202410273D 1   1.00000     0.00000     0
            
 25 26  0  0  0  0            999 V2000
  124.1133  100.8652  -46.2515 I   0  0  0  0  0  0  0  0  0  0  0  0
  125.0583  103.5756  -40.7112 I   0  0  0  0  0  0  0  0  0  0  0  0
  122.6747  105.9346  -46.6201 O   0  0  0  0  0  0  0  0  0  0  0  0
  123.8997  105.9784  -42.6182 O   0  0  0  0  0  0  0  0  0  0  0  0
  125.0233  101.2612  -42.9302 N   0  0  0  0  0  0  0  0  0  0  0  0
  123.0752  106.1406  -45.2699 C   0  0  0  0  0  0  0  0  0  0  0  0
  124.3247  100.1756  -42.4520 C   0  0  0  0  0  0  0  0  0  0  0  0
  126.3657  101.0433  -42.6912 C   0  0  0  0  0  0  0  0  0  0  0  0
  125.2228   99.2756  -41.9162 C   0  0  0  0  0  0  0  0  0  0  0  0
  126.5150   99.8273  -42.0651 C   0  0  0  0  0  0  0  0  0  0  0  0
  123.6498  103.6908  -45.4300 C   0  0  0  0  0  0  0  0  0  0  0  0
  124.1143  102.4846  -44.8910 C   0  0  0  0  0  0  0  0  0  0  0  0
  124.4607  103.6047  -42.7578 C   0  0  0  0  0  0  0  0  0  0  0  0
  123.9932  104.8081  -43.3278 C   0  0  0  0  0  0  0  0  0  0  0  0
  123.5784  104.8593  -44.6594 C   0  0  0  0  0  0  0  0  0  0  0  0
  124.5191  102.4345  -43.5424 C   0  0  0  0  0  0  0  0  0  0  0  0
  122.3448  106.7965  -47.0051 H   0  0  0  0  0  0  0  0  0  0  0  0
  123.5624  106.8077  -43.0637 H   0  0  0  0  0  0  0  0  0  0  0  0
  122.2920  106.4696  -44.7423 H   0  0  0  0  0  0  0  0  0  0  0  0
  123.8047  106.8241  -45.2450 H   0  0  0  0  0  0  0  0  0  0  0  0
  123.3322  100.0587  -42.4871 H   0  0  0  0  0  0  0  0  0  0  0  0
  127.1083  101.6676  -42.9335 H   0  0  0  0  0  0  0  0  0  0  0  0
  125.0001   98.3946  -41.4990 H   0  0  0  0  0  0  0  0  0  0  0  0
  127.3758   99.4122  -41.7709 H   0  0  0  0  0  0  0  0  0  0  0  0
  123.3623  103.7190  -46.3873 H   0  0  0  0  0  0  0  0  0  0  0  0
  1 12  1  0  0  0  0
  2 13  1  0  0  0  0
  3  6  1  0  0  0  0
  4 14  1  0  0  0  0
  5  7  1  0  0  0  0
  5  8  1  0  0  0  0
  5 16  1  0  0  0  0
  6 15  1  0  0  0  0
  7  9  2  0  0  0  0
  8 10  2  0  0  0  0
  9 10  1  0  0  0  0
 11 12  1  0  0  0  0
 11 15  2  0  0  0  0
 12 16  2  0  0  0  0
 13 14  2  0  0  0  0
 13 16  1  0  0  0  0
 14 15  1  0  0  0  0
  3 17  1  0  0  0  0
  4 18  1  0  0  0  0
  6 19  1  0  0  0  0
  6 20  1  0  0  0  0
  7 21  1  0  0  0  0
  8 22  1  0  0  0  0
  9 23  1  0  0  0  0
 10 24  1  0  0  0  0
 11 25  1  0  0  0  0
M  END
> <pdb_id>
5O1B

> <uniprot_id>
P04637

> <usmiles>
Ic1c(O)c(cc(I)c1N2C=CC=C2)CO

$$$$
9HF_A_501
          07202409333D 1   1.00000     0.00000     0
            
 52 55  0  0  0  0            999 V2000
  -18.8175   -9.7546  -29.1042 O   0  0  0  0  0  0  0  0  0  0  0  0
  -20.0900   -9.4105  -30.8076 O   0  0  0  0  0  0  0  0  0  0  0  0
  -18.2669   -3.5832  -27.8071 N   0  0  0  0  0  0  0  0  0  0  0  0
  -18.2014   -4.8402  -27.4237 N   0  0  0  0  0  0  0  0  0  0  0  0
  -18.7593   -3.5318  -29.0357 N   0  0  0  0  0  0  0  0  0  0  0  0
  -20.4523   -1.5179  -27.9908 C   0  0  0  0  0  0  0  0  0  0  0  0
  -16.4696   -0.4294  -32.8659 C   0  0  0  0  0  0  0  0  0  0  0  0
  -17.9936   -2.1314  -33.7917 C   0  0  0  0  0  0  0  0  0  0  0  0
  -19.6444    2.4277  -30.8738 C   0  0  0  0  0  0  0  0  0  0  0  0
  -21.1311    1.1604  -32.3708 C   0  0  0  0  0  0  0  0  0  0  0  0
  -19.4563   -5.3306  -30.5608 C   0  0  0  0  0  0  0  0  0  0  0  0
  -19.6062   -6.7158  -30.7191 C   0  0  0  0  0  0  0  0  0  0  0  0
  -18.7669   -6.9752  -28.5044 C   0  0  0  0  0  0  0  0  0  0  0  0
  -18.3566   -2.1708  -30.9967 C   0  0  0  0  0  0  0  0  0  0  0  0
  -19.9944   -0.1898  -29.9506 C   0  0  0  0  0  0  0  0  0  0  0  0
  -18.6448    0.2433  -33.8407 C   0  0  0  0  0  0  0  0  0  0  0  0
  -18.7279    1.5024  -33.0062 C   0  0  0  0  0  0  0  0  0  0  0  0
  -19.3988   -8.9542  -29.8574 C   0  0  0  0  0  0  0  0  0  0  0  0
  -18.6414   -5.6275  -28.4096 C   0  0  0  0  0  0  0  0  0  0  0  0
  -18.9817   -4.8094  -29.4197 C   0  0  0  0  0  0  0  0  0  0  0  0
  -18.9609   -2.3886  -29.7411 C   0  0  0  0  0  0  0  0  0  0  0  0
  -19.7909   -1.3741  -29.2275 C   0  0  0  0  0  0  0  0  0  0  0  0
  -19.2510   -7.5611  -29.6810 C   0  0  0  0  0  0  0  0  0  0  0  0
  -18.5611   -0.9785  -31.7297 C   0  0  0  0  0  0  0  0  0  0  0  0
  -19.3883    0.0308  -31.1871 C   0  0  0  0  0  0  0  0  0  0  0  0
  -17.9345   -0.8195  -33.0026 C   0  0  0  0  0  0  0  0  0  0  0  0
  -19.6864    1.2484  -31.8567 C   0  0  0  0  0  0  0  0  0  0  0  0
  -18.2639   -9.4141  -28.3442 H   0  0  0  0  0  0  0  0  0  0  0  0
  -20.2178   -2.4028  -27.5883 H   0  0  0  0  0  0  0  0  0  0  0  0
  -20.1674   -0.7848  -27.3732 H   0  0  0  0  0  0  0  0  0  0  0  0
  -21.4407   -1.4681  -28.1336 H   0  0  0  0  0  0  0  0  0  0  0  0
  -16.3990    0.4264  -32.3534 H   0  0  0  0  0  0  0  0  0  0  0  0
  -15.9765   -1.1508  -32.3797 H   0  0  0  0  0  0  0  0  0  0  0  0
  -16.0709   -0.3074  -33.7748 H   0  0  0  0  0  0  0  0  0  0  0  0
  -18.9470   -2.4138  -33.8979 H   0  0  0  0  0  0  0  0  0  0  0  0
  -17.5834   -1.9966  -34.6937 H   0  0  0  0  0  0  0  0  0  0  0  0
  -17.4890   -2.8400  -33.2985 H   0  0  0  0  0  0  0  0  0  0  0  0
  -18.7181    2.5256  -30.5100 H   0  0  0  0  0  0  0  0  0  0  0  0
  -19.9063    3.2675  -31.3494 H   0  0  0  0  0  0  0  0  0  0  0  0
  -20.2816    2.2578  -30.1220 H   0  0  0  0  0  0  0  0  0  0  0  0
  -21.2089    0.4023  -33.0183 H   0  0  0  0  0  0  0  0  0  0  0  0
  -21.7501    1.0060  -31.6008 H   0  0  0  0  0  0  0  0  0  0  0  0
  -21.3748    2.0157  -32.8282 H   0  0  0  0  0  0  0  0  0  0  0  0
  -19.7077   -4.7204  -31.3121 H   0  0  0  0  0  0  0  0  0  0  0  0
  -19.9662   -7.0899  -31.5737 H   0  0  0  0  0  0  0  0  0  0  0  0
  -18.5123   -7.5537  -27.7295 H   0  0  0  0  0  0  0  0  0  0  0  0
  -17.7658   -2.8806  -31.3802 H   0  0  0  0  0  0  0  0  0  0  0  0
  -20.5910    0.5162  -29.5689 H   0  0  0  0  0  0  0  0  0  0  0  0
  -18.1258    0.4217  -34.6766 H   0  0  0  0  0  0  0  0  0  0  0  0
  -19.5643   -0.0690  -34.0795 H   0  0  0  0  0  0  0  0  0  0  0  0
  -19.0652    2.2584  -33.5671 H   0  0  0  0  0  0  0  0  0  0  0  0
  -17.8228    1.7311  -32.6478 H   0  0  0  0  0  0  0  0  0  0  0  0
  1 18  1  0  0  0  0
  2 18  2  0  0  0  0
  3  4  2  0  0  0  0
  3  5  1  0  0  0  0
  4 19  1  0  0  0  0
  5 20  1  0  0  0  0
  5 21  1  0  0  0  0
  6 22  1  0  0  0  0
  7 26  1  0  0  0  0
  8 26  1  0  0  0  0
  9 27  1  0  0  0  0
 10 27  1  0  0  0  0
 11 12  1  0  0  0  0
 11 20  2  0  0  0  0
 12 23  2  0  0  0  0
 13 19  2  0  0  0  0
 13 23  1  0  0  0  0
 14 21  2  0  0  0  0
 14 24  1  0  0  0  0
 15 22  2  0  0  0  0
 15 25  1  0  0  0  0
 16 17  1  0  0  0  0
 16 26  1  0  0  0  0
 17 27  1  0  0  0  0
 18 23  1  0  0  0  0
 19 20  1  0  0  0  0
 21 22  1  0  0  0  0
 24 25  2  0  0  0  0
 24 26  1  0  0  0  0
 25 27  1  0  0  0  0
  1 28  1  0  0  0  0
  6 29  1  0  0  0  0
  6 30  1  0  0  0  0
  6 31  1  0  0  0  0
  7 32  1  0  0  0  0
  7 33  1  0  0  0  0
  7 34  1  0  0  0  0
  8 35  1  0  0  0  0
  8 36  1  0  0  0  0
  8 37  1  0  0  0  0
  9 38  1  0  0  0  0
  9 39  1  0  0  0  0
  9 40  1  0  0  0  0
 10 41  1  0  0  0  0
 10 42  1  0  0  0  0
 10 43  1  0  0  0  0
 11 44  1  0  0  0  0
 12 45  1  0  0  0  0
 13 46  1  0  0  0  0
 14 47  1  0  0  0  0
 15 48  1  0  0  0  0
 16 49  1  0  0  0  0
 16 50  1  0  0  0  0
 17 51  1  0  0  0  0
 17 52  1  0  0  0  0
M  END
> <pdb_id>
6L6K

> <uniprot_id>
P19793

> <usmiles>
O=C(O)c1cc2N=NN(c2cc1)c3c(cc4c(c3)C(CCC4(C)C)(C)C)C

$$$$
9HK_A_302
          07192416293D 1   1.00000     0.00000     0
            
 32 33  0  0  0  0            999 V2000
   -5.9160    1.0306   16.9343 S   0  0  0  0  0  0  0  0  0  0  0  0
   -5.3282    1.1863   18.2947 O   0  0  0  0  0  0  0  0  0  0  0  0
   -7.3741    1.0681   16.8513 O   0  0  0  0  0  0  0  0  0  0  0  0
   -0.0044    9.9531   15.5324 O   0  0  0  0  0  0  0  0  0  0  0  0
    1.1070    9.2461   13.6077 O   0  5  0  0  0  0  0  0  0  0  0  0
   -5.3472   -0.2580   16.2229 N   0  0  0  0  0  0  0  0  0  0  0  0
    0.1026    9.1666   14.4885 N   0  3  0  0  0  0  0  0  0  0  0  0
   -6.2441    3.4212   15.6018 C   0  0  0  0  0  0  0  0  0  0  0  0
   -3.9723    2.5404   15.6196 C   0  0  0  0  0  0  0  0  0  0  0  0
   -1.8949    8.1177   15.1855 C   0  0  0  0  0  0  0  0  0  0  0  0
   -0.9268    7.5534   13.0657 C   0  0  0  0  0  0  0  0  0  0  0  0
   -5.8337    4.4814   14.8029 C   0  0  0  0  0  0  0  0  0  0  0  0
   -3.5969    3.6295   14.8227 C   0  0  0  0  0  0  0  0  0  0  0  0
   -2.9312    7.2314   14.9416 C   0  0  0  0  0  0  0  0  0  0  0  0
   -1.9862    6.6790   12.8228 C   0  0  0  0  0  0  0  0  0  0  0  0
   -4.1287    5.6670   13.4979 C   0  0  0  0  0  0  0  0  0  0  0  0
   -5.3229    2.4357   15.9847 C   0  0  0  0  0  0  0  0  0  0  0  0
   -0.8937    8.3062   14.2375 C   0  0  0  0  0  0  0  0  0  0  0  0
   -4.5061    4.6070   14.3978 C   0  0  0  0  0  0  0  0  0  0  0  0
   -2.9933    6.5015   13.7688 C   0  0  0  0  0  0  0  0  0  0  0  0
   -5.7538   -0.3434   15.3133 H   0  0  0  0  0  0  0  0  0  0  0  0
   -4.3538   -0.1809   16.1381 H   0  0  0  0  0  0  0  0  0  0  0  0
   -7.1957    3.3611   15.9035 H   0  0  0  0  0  0  0  0  0  0  0  0
   -3.3013    1.8615   15.9178 H   0  0  0  0  0  0  0  0  0  0  0  0
   -1.8661    8.6246   16.0471 H   0  0  0  0  0  0  0  0  0  0  0  0
   -0.1887    7.6401   12.3966 H   0  0  0  0  0  0  0  0  0  0  0  0
   -6.5025    5.1662   14.5135 H   0  0  0  0  0  0  0  0  0  0  0  0
   -2.6397    3.7128   14.5454 H   0  0  0  0  0  0  0  0  0  0  0  0
   -3.6494    7.1170   15.6280 H   0  0  0  0  0  0  0  0  0  0  0  0
   -2.0230    6.1741   11.9604 H   0  0  0  0  0  0  0  0  0  0  0  0
   -4.9188    6.2762   13.4300 H   0  0  0  0  0  0  0  0  0  0  0  0
   -3.9607    5.2389   12.6099 H   0  0  0  0  0  0  0  0  0  0  0  0
  1  2  2  0  0  0  0
  1  3  2  0  0  0  0
  1  6  1  0  0  0  0
  1 17  1  0  0  0  0
  4  7  2  0  0  0  0
  5  7  1  0  0  0  0
  7 18  1  0  0  0  0
  8 12  2  0  0  0  0
  8 17  1  0  0  0  0
  9 13  1  0  0  0  0
  9 17  2  0  0  0  0
 10 14  1  0  0  0  0
 10 18  2  0  0  0  0
 11 15  2  0  0  0  0
 11 18  1  0  0  0  0
 12 19  1  0  0  0  0
 13 19  2  0  0  0  0
 14 20  2  0  0  0  0
 15 20  1  0  0  0  0
 16 19  1  0  0  0  0
 16 20  1  0  0  0  0
  6 21  1  0  0  0  0
  6 22  1  0  0  0  0
  8 23  1  0  0  0  0
  9 24  1  0  0  0  0
 10 25  1  0  0  0  0
 11 26  1  0  0  0  0
 12 27  1  0  0  0  0
 13 28  1  0  0  0  0
 14 29  1  0  0  0  0
 15 30  1  0  0  0  0
 16 31  1  0  0  0  0
 16 32  1  0  0  0  0
M  CHG  2   5  -1   7   1
M  END
> <pdb_id>
5NXO

> <uniprot_id>
P00918

> <usmiles>
S(=O)(=O)(N)c1ccc(cc1)Cc2ccc([N+]([O-])=O)cc2

$$$$
9I5_A_4000
          07202414163D 1   1.00000     0.00000     0
            
 33 35  0  0  0  0            999 V2000
   50.0138   -8.2004   22.1589 O   0  0  0  0  0  0  0  0  0  0  0  0
   53.6881   -9.4664   30.0871 O   0  0  0  0  0  0  0  0  0  0  0  0
   51.4257  -12.3043   33.2095 N   0  0  0  0  0  0  0  0  0  0  0  0
   49.8030  -12.1028   31.5768 N   0  0  0  0  0  0  0  0  0  0  0  0
   51.9329  -10.9744   31.4161 N   0  0  0  0  0  0  0  0  0  0  0  0
   54.6366   -8.6174   29.4400 C   0  0  0  0  0  0  0  0  0  0  0  0
   49.4917  -11.6557   30.3780 C   0  0  0  0  0  0  0  0  0  0  0  0
   50.8576   -7.6904   24.3154 C   0  0  0  0  0  0  0  0  0  0  0  0
   49.8465   -9.8293   23.8966 C   0  0  0  0  0  0  0  0  0  0  0  0
   51.1502   -8.0857   25.6090 C   0  0  0  0  0  0  0  0  0  0  0  0
   50.1414  -10.2136   25.1969 C   0  0  0  0  0  0  0  0  0  0  0  0
   52.2816   -9.4242   28.0989 C   0  0  0  0  0  0  0  0  0  0  0  0
   50.1040  -10.4277   28.2292 C   0  0  0  0  0  0  0  0  0  0  0  0
   51.0379  -11.7586   32.0508 C   0  0  0  0  0  0  0  0  0  0  0  0
   50.2120   -8.5658   23.4515 C   0  0  0  0  0  0  0  0  0  0  0  0
   52.5442   -9.7944   29.4112 C   0  0  0  0  0  0  0  0  0  0  0  0
   51.5845  -10.5284   30.1698 C   0  0  0  0  0  0  0  0  0  0  0  0
   50.7888   -9.3447   26.0832 C   0  0  0  0  0  0  0  0  0  0  0  0
   50.3421  -10.8469   29.5635 C   0  0  0  0  0  0  0  0  0  0  0  0
   51.0568   -9.7402   27.4959 C   0  0  0  0  0  0  0  0  0  0  0  0
   49.5501   -8.8232   21.5287 H   0  0  0  0  0  0  0  0  0  0  0  0
   52.3217  -12.0799   33.5927 H   0  0  0  0  0  0  0  0  0  0  0  0
   50.8195  -12.9363   33.6922 H   0  0  0  0  0  0  0  0  0  0  0  0
   55.4159   -8.4642   30.0477 H   0  0  0  0  0  0  0  0  0  0  0  0
   54.9521   -9.0521   28.5965 H   0  0  0  0  0  0  0  0  0  0  0  0
   54.2061   -7.7413   29.2227 H   0  0  0  0  0  0  0  0  0  0  0  0
   48.5943  -11.9003   30.0109 H   0  0  0  0  0  0  0  0  0  0  0  0
   51.1108   -6.7749   24.0027 H   0  0  0  0  0  0  0  0  0  0  0  0
   49.3725  -10.4601   23.2823 H   0  0  0  0  0  0  0  0  0  0  0  0
   51.6316   -7.4538   26.2165 H   0  0  0  0  0  0  0  0  0  0  0  0
   49.8865  -11.1294   25.5070 H   0  0  0  0  0  0  0  0  0  0  0  0
   52.9749   -8.9262   27.5780 H   0  0  0  0  0  0  0  0  0  0  0  0
   49.2222  -10.6348   27.8056 H   0  0  0  0  0  0  0  0  0  0  0  0
  1 15  1  0  0  0  0
  2  6  1  0  0  0  0
  2 16  1  0  0  0  0
  3 14  1  0  0  0  0
  4  7  1  0  0  0  0
  4 14  2  0  0  0  0
  5 14  1  0  0  0  0
  5 17  2  0  0  0  0
  7 19  2  0  0  0  0
  8 10  1  0  0  0  0
  8 15  2  0  0  0  0
  9 11  2  0  0  0  0
  9 15  1  0  0  0  0
 10 18  2  0  0  0  0
 11 18  1  0  0  0  0
 12 16  2  0  0  0  0
 12 20  1  0  0  0  0
 13 19  1  0  0  0  0
 13 20  2  0  0  0  0
 16 17  1  0  0  0  0
 17 19  1  0  0  0  0
 18 20  1  0  0  0  0
  1 21  1  0  0  0  0
  3 22  1  0  0  0  0
  3 23  1  0  0  0  0
  6 24  1  0  0  0  0
  6 25  1  0  0  0  0
  6 26  1  0  0  0  0
  7 27  1  0  0  0  0
  8 28  1  0  0  0  0
  9 29  1  0  0  0  0
 10 30  1  0  0  0  0
 11 31  1  0  0  0  0
 12 32  1  0  0  0  0
 13 33  1  0  0  0  0
M  END
> <pdb_id>
7Q7K

> <uniprot_id>
O60674

> <usmiles>
O(c1c2nc(ncc2cc(c3ccc(O)cc3)c1)N)C

$$$$
9I8_A_4000
          07202414163D 1   1.00000     0.00000     0
            
 43 46  0  0  0  0            999 V2000
   50.0517   -8.2227   22.1679 O   0  0  0  0  0  0  0  0  0  0  0  0
   53.6367   -9.4925   30.2000 O   0  0  0  0  0  0  0  0  0  0  0  0
   54.3482  -11.3194   34.8732 N   0  0  0  0  0  0  0  0  0  0  0  0
   49.6550  -12.0343   31.5821 N   0  0  0  0  0  0  0  0  0  0  0  0
   51.1608  -12.1718   33.3535 N   0  0  0  0  0  0  0  0  0  0  0  0
   51.8277  -11.0047   31.4629 N   0  0  0  0  0  0  0  0  0  0  0  0
   53.6663  -12.0100   35.8175 N   0  0  0  0  0  0  0  0  0  0  0  0
   54.6304   -8.6824   29.5773 C   0  0  0  0  0  0  0  0  0  0  0  0
   54.2654  -12.2338   37.1270 C   0  0  0  0  0  0  0  0  0  0  0  0
   53.5279  -11.3025   33.8357 C   0  0  0  0  0  0  0  0  0  0  0  0
   49.3835  -11.5729   30.3780 C   0  0  0  0  0  0  0  0  0  0  0  0
   52.4647  -12.4223   35.3931 C   0  0  0  0  0  0  0  0  0  0  0  0
   49.9796   -9.8268   23.9258 C   0  0  0  0  0  0  0  0  0  0  0  0
   50.8902   -7.6407   24.3318 C   0  0  0  0  0  0  0  0  0  0  0  0
   50.2723  -10.1845   25.2346 C   0  0  0  0  0  0  0  0  0  0  0  0
   51.1829   -8.0073   25.6374 C   0  0  0  0  0  0  0  0  0  0  0  0
   52.2791   -9.3783   28.1880 C   0  0  0  0  0  0  0  0  0  0  0  0
   50.0560  -10.2919   28.2711 C   0  0  0  0  0  0  0  0  0  0  0  0
   50.8723  -11.7305   32.0711 C   0  0  0  0  0  0  0  0  0  0  0  0
   50.2847   -8.5512   23.4742 C   0  0  0  0  0  0  0  0  0  0  0  0
   52.5102   -9.7982   29.4900 C   0  0  0  0  0  0  0  0  0  0  0  0
   52.3268  -11.9668   34.1149 C   0  0  0  0  0  0  0  0  0  0  0  0
   51.5184  -10.5304   30.2130 C   0  0  0  0  0  0  0  0  0  0  0  0
   50.2677  -10.7772   29.5898 C   0  0  0  0  0  0  0  0  0  0  0  0
   50.8569   -9.2765   26.1243 C   0  0  0  0  0  0  0  0  0  0  0  0
   51.0515   -9.6272   27.5612 C   0  0  0  0  0  0  0  0  0  0  0  0
   50.2696   -7.3046   21.8367 H   0  0  0  0  0  0  0  0  0  0  0  0
   50.4433  -12.7085   33.7976 H   0  0  0  0  0  0  0  0  0  0  0  0
   55.3914   -8.5424   30.2108 H   0  0  0  0  0  0  0  0  0  0  0  0
   54.9633   -9.1386   28.7521 H   0  0  0  0  0  0  0  0  0  0  0  0
   54.2337   -7.7978   29.3322 H   0  0  0  0  0  0  0  0  0  0  0  0
   53.6325  -12.7563   37.6982 H   0  0  0  0  0  0  0  0  0  0  0  0
   55.1181  -12.7452   37.0204 H   0  0  0  0  0  0  0  0  0  0  0  0
   54.4568  -11.3534   37.5608 H   0  0  0  0  0  0  0  0  0  0  0  0
   53.7393  -10.8689   32.9598 H   0  0  0  0  0  0  0  0  0  0  0  0
   48.4907  -11.7972   29.9873 H   0  0  0  0  0  0  0  0  0  0  0  0
   51.7991  -12.9589   35.9118 H   0  0  0  0  0  0  0  0  0  0  0  0
   49.5499  -10.4871   23.3099 H   0  0  0  0  0  0  0  0  0  0  0  0
   51.1148   -6.7216   24.0080 H   0  0  0  0  0  0  0  0  0  0  0  0
   50.0611  -11.1103   25.5481 H   0  0  0  0  0  0  0  0  0  0  0  0
   51.6356   -7.3514   26.2414 H   0  0  0  0  0  0  0  0  0  0  0  0
   52.9978   -8.8921   27.6910 H   0  0  0  0  0  0  0  0  0  0  0  0
   49.1647  -10.4323   27.8402 H   0  0  0  0  0  0  0  0  0  0  0  0
  1 20  1  0  0  0  0
  2  8  1  0  0  0  0
  2 21  1  0  0  0  0
  3  7  1  0  0  0  0
  3 10  2  0  0  0  0
  4 11  1  0  0  0  0
  4 19  2  0  0  0  0
  5 19  1  0  0  0  0
  5 22  1  0  0  0  0
  6 19  1  0  0  0  0
  6 23  2  0  0  0  0
  7  9  1  0  0  0  0
  7 12  1  0  0  0  0
 10 22  1  0  0  0  0
 11 24  2  0  0  0  0
 12 22  2  0  0  0  0
 13 15  1  0  0  0  0
 13 20  2  0  0  0  0
 14 16  2  0  0  0  0
 14 20  1  0  0  0  0
 15 25  2  0  0  0  0
 16 25  1  0  0  0  0
 17 21  2  0  0  0  0
 17 26  1  0  0  0  0
 18 24  1  0  0  0  0
 18 26  2  0  0  0  0
 21 23  1  0  0  0  0
 23 24  1  0  0  0  0
 25 26  1  0  0  0  0
  1 27  1  0  0  0  0
  5 28  1  0  0  0  0
  8 29  1  0  0  0  0
  8 30  1  0  0  0  0
  8 31  1  0  0  0  0
  9 32  1  0  0  0  0
  9 33  1  0  0  0  0
  9 34  1  0  0  0  0
 10 35  1  0  0  0  0
 11 36  1  0  0  0  0
 12 37  1  0  0  0  0
 13 38  1  0  0  0  0
 14 39  1  0  0  0  0
 15 40  1  0  0  0  0
 16 41  1  0  0  0  0
 17 42  1  0  0  0  0
 18 43  1  0  0  0  0
M  END
> <pdb_id>
7Q7I

> <uniprot_id>
O60674

> <usmiles>
O(c1c2nc(ncc2cc(c3ccc(O)cc3)c1)NC=4C=NN(C4)C)C

$$$$
9IE_A_200
          07202408113D 1   1.00000     0.00000     0
            
 46 49  0  0  0  0            999 V2000
  -27.7032    9.9424   11.0353 Cl  0  0  0  0  0  0  0  0  0  0  0  0
  -20.6305   10.8405   21.1543 O   0  0  0  0  0  0  0  0  0  0  0  0
  -21.7179   13.2846   20.8353 O   0  0  0  0  0  0  0  0  0  0  0  0
  -29.0123   11.3462   14.1143 N   0  0  0  0  0  0  0  0  0  0  0  0
  -25.3809    9.1731   11.8913 N   0  0  0  0  0  0  0  0  0  0  0  0
  -26.0770   10.2358   15.8513 N   0  0  0  0  0  0  0  0  0  0  0  0
  -23.6834   13.6086   18.7446 N   0  0  0  0  0  0  0  0  0  0  0  0
  -22.1066    9.8778   19.7480 N   0  0  0  0  0  0  0  0  0  0  0  0
  -21.5342    8.5739   20.0620 C   0  0  0  0  0  0  0  0  0  0  0  0
  -23.5471   15.9363   18.0926 C   0  0  0  0  0  0  0  0  0  0  0  0
  -22.7413   14.1367   21.4033 C   0  0  0  0  0  0  0  0  0  0  0  0
  -28.0316   10.8113   13.8949 C   0  0  0  0  0  0  0  0  0  0  0  0
  -24.4584    8.9783   12.8403 C   0  0  0  0  0  0  0  0  0  0  0  0
  -23.1210   15.2816   20.4893 C   0  0  0  0  0  0  0  0  0  0  0  0
  -24.6298    9.3109   14.1668 C   0  0  0  0  0  0  0  0  0  0  0  0
  -24.6391    8.9075   17.2543 C   0  0  0  0  0  0  0  0  0  0  0  0
  -23.6537    8.8167   18.2184 C   0  0  0  0  0  0  0  0  0  0  0  0
  -24.6587   11.2953   17.4819 C   0  0  0  0  0  0  0  0  0  0  0  0
  -26.5138    9.7345   12.2665 C   0  0  0  0  0  0  0  0  0  0  0  0
  -21.5766   10.9780   20.3974 C   0  0  0  0  0  0  0  0  0  0  0  0
  -22.1679   12.2449   20.0603 C   0  0  0  0  0  0  0  0  0  0  0  0
  -23.0015   14.8715   19.0256 C   0  0  1  0  0  0  0  0  0  0  0  0
  -25.1381   10.1433   16.8781 C   0  0  0  0  0  0  0  0  0  0  0  0
  -25.8287    9.9003   14.5454 C   0  0  0  0  0  0  0  0  0  0  0  0
  -23.1523    9.9658   18.8184 C   0  0  0  0  0  0  0  0  0  0  0  0
  -23.1344   12.3968   19.1101 C   0  0  0  0  0  0  0  0  0  0  0  0
  -26.8110   10.1400   13.5608 C   0  0  0  0  0  0  0  0  0  0  0  0
  -23.6653   11.2206   18.4520 C   0  0  0  0  0  0  0  0  0  0  0  0
  -26.9912   10.5687   16.0826 H   0  0  0  0  0  0  0  0  0  0  0  0
  -24.5673   13.6237   18.2771 H   0  0  0  0  0  0  0  0  0  0  0  0
  -22.0017    7.8678   19.5302 H   0  0  0  0  0  0  0  0  0  0  0  0
  -20.5606    8.5734   19.8334 H   0  0  0  0  0  0  0  0  0  0  0  0
  -21.6476    8.3862   21.0377 H   0  0  0  0  0  0  0  0  0  0  0  0
  -23.0883   16.8060   18.2749 H   0  0  0  0  0  0  0  0  0  0  0  0
  -23.3824   15.6648   17.1444 H   0  0  0  0  0  0  0  0  0  0  0  0
  -24.5302   16.0400   18.2437 H   0  0  0  0  0  0  0  0  0  0  0  0
  -22.4016   14.5141   22.2648 H   0  0  0  0  0  0  0  0  0  0  0  0
  -23.5560   13.5843   21.5797 H   0  0  0  0  0  0  0  0  0  0  0  0
  -23.5888    8.5649   12.5700 H   0  0  0  0  0  0  0  0  0  0  0  0
  -22.5120   16.0553   20.6634 H   0  0  0  0  0  0  0  0  0  0  0  0
  -24.0652   15.5516   20.6777 H   0  0  0  0  0  0  0  0  0  0  0  0
  -23.9105    9.1326   14.8383 H   0  0  0  0  0  0  0  0  0  0  0  0
  -24.9939    8.0765   16.8259 H   0  0  0  0  0  0  0  0  0  0  0  0
  -23.2997    7.9205   18.4856 H   0  0  0  0  0  0  0  0  0  0  0  0
  -25.0296   12.1857   17.2182 H   0  0  0  0  0  0  0  0  0  0  0  0
  -22.0308   14.7494   18.8188 H   0  0  0  0  0  0  0  0  0  0  0  0
  1 19  1  0  0  0  0
  2 20  2  0  0  0  0
  3 11  1  0  0  0  0
  3 21  1  0  0  0  0
  4 12  3  0  0  0  0
  5 13  2  0  0  0  0
  5 19  1  0  0  0  0
  6 23  1  0  0  0  0
  6 24  1  0  0  0  0
  7 22  1  0  0  0  0
  7 26  1  0  0  0  0
  8  9  1  0  0  0  0
  8 20  1  0  0  0  0
  8 25  1  0  0  0  0
 10 22  1  0  0  0  0
 11 14  1  0  0  0  0
 12 27  1  0  0  0  0
 13 15  1  0  0  0  0
 14 22  1  0  0  0  0
 15 24  2  0  0  0  0
 16 17  1  0  0  0  0
 16 23  2  0  0  0  0
 17 25  2  0  0  0  0
 18 23  1  0  0  0  0
 18 28  2  0  0  0  0
 19 27  2  0  0  0  0
 20 21  1  0  0  0  0
 21 26  2  0  0  0  0
 24 27  1  0  0  0  0
 25 28  1  0  0  0  0
 26 28  1  0  0  0  0
  6 29  1  0  0  0  0
  7 30  1  0  0  0  0
  9 31  1  0  0  0  0
  9 32  1  0  0  0  0
  9 33  1  0  0  0  0
 10 34  1  0  0  0  0
 10 35  1  0  0  0  0
 10 36  1  0  0  0  0
 11 37  1  0  0  0  0
 11 38  1  0  0  0  0
 13 39  1  0  0  0  0
 14 40  1  0  0  0  0
 14 41  1  0  0  0  0
 15 42  1  0  0  0  0
 16 43  1  0  0  0  0
 17 44  1  0  0  0  0
 18 45  1  0  0  0  0
 22 46  1  0  0  0  0
M  END
> <pdb_id>
7Q7U

> <uniprot_id>
P41182

> <usmiles>
Clc1nccc(Nc2cc3c(N(C(=O)C=4OCC[C@@H](NC34)C)C)cc2)c1C#N

$$$$
9IH_A_201
          07202408113D 1   1.00000     0.00000     0
            
 50 54  0  0  0  0            999 V2000
  -27.8950    9.9260   10.9090 Cl  0  0  0  0  0  0  0  0  0  0  0  0
  -22.2120   15.8760   20.8660 F   0  0  0  0  0  0  0  0  0  0  0  0
  -24.3230   15.5310   20.9840 F   0  0  0  0  0  0  0  0  0  0  0  0
  -20.8480   10.4610   21.0710 O   0  0  0  0  0  0  0  0  0  0  0  0
  -21.8900   12.9240   20.8480 O   0  0  0  0  0  0  0  0  0  0  0  0
  -29.1760   11.3400   14.0010 N   0  0  0  0  0  0  0  0  0  0  0  0
  -25.5700    9.1580   11.7480 N   0  0  0  0  0  0  0  0  0  0  0  0
  -26.2740   10.1440   15.7250 N   0  0  0  0  0  0  0  0  0  0  0  0
  -23.7820   13.3640   18.7070 N   0  0  0  0  0  0  0  0  0  0  0  0
  -22.3060    9.5890   19.6010 N   0  0  0  0  0  0  0  0  0  0  0  0
  -21.7270    8.2720   19.8340 C   0  0  0  0  0  0  0  0  0  0  0  0
  -22.9120   13.7250   21.4780 C   0  0  0  0  0  0  0  0  0  0  0  0
  -24.6550    8.9340   12.6960 C   0  0  0  0  0  0  0  0  0  0  0  0
  -28.2050   10.7940   13.7700 C   0  0  0  0  0  0  0  0  0  0  0  0
  -24.8260    9.2460   14.0280 C   0  0  0  0  0  0  0  0  0  0  0  0
  -24.8050    8.7610   17.0320 C   0  0  0  0  0  0  0  0  0  0  0  0
  -23.8140    8.6220   17.9820 C   0  0  0  0  0  0  0  0  0  0  0  0
  -23.4420   15.7370   16.7620 C   0  0  0  0  0  0  0  0  0  0  0  0
  -22.7340   16.7250   17.6210 C   0  0  0  0  0  0  0  0  0  0  0  0
  -24.8980   11.1190   17.4590 C   0  0  0  0  0  0  0  0  0  0  0  0
  -26.6980    9.7220   12.1290 C   0  0  0  0  0  0  0  0  0  0  0  0
  -21.7810   10.6460   20.3140 C   0  0  0  0  0  0  0  0  0  0  0  0
  -22.3810   11.9210   20.0520 C   0  0  0  0  0  0  0  0  0  0  0  0
  -25.3420   10.0080   16.7580 C   0  0  0  0  0  0  0  0  0  0  0  0
  -26.0200    9.8420   14.4130 C   0  0  0  0  0  0  0  0  0  0  0  0
  -23.3700   12.1340   19.1390 C   0  0  0  0  0  0  0  0  0  0  0  0
  -23.3450    9.7300   18.6740 C   0  0  0  0  0  0  0  0  0  0  0  0
  -23.0890   14.6000   19.0700 C   0  0  1  0  0  0  0  0  0  0  0  0
  -23.6650   15.7330   18.2390 C   0  0  0  0  0  0  0  0  0  0  0  0
  -26.9930   10.1110   13.4290 C   0  0  0  0  0  0  0  0  0  0  0  0
  -23.8980   10.9960   18.4180 C   0  0  0  0  0  0  0  0  0  0  0  0
  -23.1600   14.9300   20.6010 C   0  0  0  0  0  0  0  0  0  0  0  0
  -27.1850   10.4837   15.9588 H   0  0  0  0  0  0  0  0  0  0  0  0
  -24.5892   13.4209   18.1195 H   0  0  0  0  0  0  0  0  0  0  0  0
  -22.1920    7.5973   19.2608 H   0  0  0  0  0  0  0  0  0  0  0  0
  -20.7539    8.2904   19.6045 H   0  0  0  0  0  0  0  0  0  0  0  0
  -21.8379    8.0247   20.7966 H   0  0  0  0  0  0  0  0  0  0  0  0
  -22.6037   14.0201   22.3824 H   0  0  0  0  0  0  0  0  0  0  0  0
  -23.7533   13.1923   21.5700 H   0  0  0  0  0  0  0  0  0  0  0  0
  -23.7905    8.5129   12.4215 H   0  0  0  0  0  0  0  0  0  0  0  0
  -24.1104    9.0487   14.6981 H   0  0  0  0  0  0  0  0  0  0  0  0
  -25.1373    7.9571   16.5387 H   0  0  0  0  0  0  0  0  0  0  0  0
  -23.4316    7.7180   18.1730 H   0  0  0  0  0  0  0  0  0  0  0  0
  -22.9315   14.9925   16.3318 H   0  0  0  0  0  0  0  0  0  0  0  0
  -24.1703   16.0404   16.1476 H   0  0  0  0  0  0  0  0  0  0  0  0
  -22.9870   17.6917   17.5834 H   0  0  0  0  0  0  0  0  0  0  0  0
  -21.7481   16.6439   17.7676 H   0  0  0  0  0  0  0  0  0  0  0  0
  -25.2999   12.0157   17.2736 H   0  0  0  0  0  0  0  0  0  0  0  0
  -22.1257   14.4963   18.8224 H   0  0  0  0  0  0  0  0  0  0  0  0
  -24.5447   16.0951   18.5473 H   0  0  0  0  0  0  0  0  0  0  0  0
  1 21  1  0  0  0  0
  2 32  1  0  0  0  0
  3 32  1  0  0  0  0
  4 22  2  0  0  0  0
  5 12  1  0  0  0  0
  5 23  1  0  0  0  0
  6 14  3  0  0  0  0
  7 13  2  0  0  0  0
  7 21  1  0  0  0  0
  8 24  1  0  0  0  0
  8 25  1  0  0  0  0
  9 26  1  0  0  0  0
  9 28  1  0  0  0  0
 10 11  1  0  0  0  0
 10 22  1  0  0  0  0
 10 27  1  0  0  0  0
 12 32  1  0  0  0  0
 13 15  1  0  0  0  0
 14 30  1  0  0  0  0
 15 25  2  0  0  0  0
 16 17  1  0  0  0  0
 16 24  2  0  0  0  0
 17 27  2  0  0  0  0
 18 19  1  0  0  0  0
 18 29  1  0  0  0  0
 19 29  1  0  0  0  0
 20 24  1  0  0  0  0
 20 31  2  0  0  0  0
 21 30  2  0  0  0  0
 22 23  1  0  0  0  0
 23 26  2  0  0  0  0
 25 30  1  0  0  0  0
 26 31  1  0  0  0  0
 27 31  1  0  0  0  0
 28 29  1  0  0  0  0
 28 32  1  0  0  0  0
  8 33  1  0  0  0  0
  9 34  1  0  0  0  0
 11 35  1  0  0  0  0
 11 36  1  0  0  0  0
 11 37  1  0  0  0  0
 12 38  1  0  0  0  0
 12 39  1  0  0  0  0
 13 40  1  0  0  0  0
 15 41  1  0  0  0  0
 16 42  1  0  0  0  0
 17 43  1  0  0  0  0
 18 44  1  0  0  0  0
 18 45  1  0  0  0  0
 19 46  1  0  0  0  0
 19 47  1  0  0  0  0
 20 48  1  0  0  0  0
 28 49  1  0  0  0  0
 29 50  1  0  0  0  0
M  END
> <pdb_id>
7Q7R

> <uniprot_id>
P41182

> <usmiles>
Clc1nccc(Nc2cc3c(N(C(=O)C=4OCC(F)(F)[C@@H](NC34)C5CC5)C)cc2)c1C#N

$$$$
9IO_A_401
          07202401123D 1   1.00000     0.00000     0
            
 30 32  0  0  0  0            999 V2000
   68.8515   44.1604   -4.3074 O   0  0  0  0  0  0  0  0  0  0  0  0
   73.6606   37.8545   -0.4146 N   0  0  0  0  0  0  0  0  0  0  0  0
   72.3313   39.5896   -1.4595 N   0  0  0  0  0  0  0  0  0  0  0  0
   72.4411   36.4561    1.1258 N   0  0  0  0  0  0  0  0  0  0  0  0
   70.0700   39.8981   -0.9580 N   0  0  0  0  0  0  0  0  0  0  0  0
   69.8147   45.1830   -4.5657 C   0  0  0  0  0  0  0  0  0  0  0  0
   73.4592   38.8869   -1.2436 C   0  0  0  0  0  0  0  0  0  0  0  0
   71.1300   36.3943    1.5551 C   0  0  0  0  0  0  0  0  0  0  0  0
   68.6460   41.8684   -3.7527 C   0  0  0  0  0  0  0  0  0  0  0  0
   70.1235   43.2671   -2.4727 C   0  0  0  0  0  0  0  0  0  0  0  0
   70.4130   37.4139    1.0184 C   0  0  0  0  0  0  0  0  0  0  0  0
   68.9358   40.8034   -2.9210 C   0  0  0  0  0  0  0  0  0  0  0  0
   70.4015   42.2052   -1.6320 C   0  0  0  0  0  0  0  0  0  0  0  0
   69.2304   43.1039   -3.5200 C   0  0  0  0  0  0  0  0  0  0  0  0
   72.5593   37.5187    0.2830 C   0  0  0  0  0  0  0  0  0  0  0  0
   71.2475   39.2314   -0.7461 C   0  0  0  0  0  0  0  0  0  0  0  0
   69.8060   40.9668   -1.8427 C   0  0  0  0  0  0  0  0  0  0  0  0
   71.3106   38.1591    0.2032 C   0  0  0  0  0  0  0  0  0  0  0  0
   73.1753   35.8298    1.3881 H   0  0  0  0  0  0  0  0  0  0  0  0
   69.2921   39.5859   -0.4126 H   0  0  0  0  0  0  0  0  0  0  0  0
   69.4067   45.8857   -5.1485 H   0  0  0  0  0  0  0  0  0  0  0  0
   70.1046   45.5939   -3.7013 H   0  0  0  0  0  0  0  0  0  0  0  0
   70.6072   44.7853   -5.0280 H   0  0  0  0  0  0  0  0  0  0  0  0
   74.2557   39.1753   -1.7751 H   0  0  0  0  0  0  0  0  0  0  0  0
   70.7620   35.6988    2.1723 H   0  0  0  0  0  0  0  0  0  0  0  0
   68.0164   41.7482   -4.5202 H   0  0  0  0  0  0  0  0  0  0  0  0
   70.5662   44.1516   -2.3254 H   0  0  0  0  0  0  0  0  0  0  0  0
   69.4427   37.6047    1.1670 H   0  0  0  0  0  0  0  0  0  0  0  0
   68.5196   39.9106   -3.0931 H   0  0  0  0  0  0  0  0  0  0  0  0
   71.0346   42.3288   -0.8679 H   0  0  0  0  0  0  0  0  0  0  0  0
  1  6  1  0  0  0  0
  1 14  1  0  0  0  0
  2  7  2  0  0  0  0
  2 15  1  0  0  0  0
  3  7  1  0  0  0  0
  3 16  2  0  0  0  0
  4  8  1  0  0  0  0
  4 15  1  0  0  0  0
  5 16  1  0  0  0  0
  5 17  1  0  0  0  0
  8 11  2  0  0  0  0
  9 12  2  0  0  0  0
  9 14  1  0  0  0  0
 10 13  1  0  0  0  0
 10 14  2  0  0  0  0
 11 18  1  0  0  0  0
 12 17  1  0  0  0  0
 13 17  2  0  0  0  0
 15 18  2  0  0  0  0
 16 18  1  0  0  0  0
  4 19  1  0  0  0  0
  5 20  1  0  0  0  0
  6 21  1  0  0  0  0
  6 22  1  0  0  0  0
  6 23  1  0  0  0  0
  7 24  1  0  0  0  0
  8 25  1  0  0  0  0
  9 26  1  0  0  0  0
 10 27  1  0  0  0  0
 11 28  1  0  0  0  0
 12 29  1  0  0  0  0
 13 30  1  0  0  0  0
M  END
> <pdb_id>
7Q8W

> <uniprot_id>
Q5TCY1

> <usmiles>
O(c1ccc(Nc2ncnc3NC=Cc23)cc1)C

$$$$
9JH_B_1133
          07192420503D 1   1.00000     0.00000     0
            
 29 30  0  0  0  0            999 V2000
   -1.6283   -0.9691    3.9051 O   0  0  0  0  0  0  0  0  0  0  0  0
   -0.3968    0.7828    3.2318 N   0  0  0  0  0  0  0  0  0  0  0  0
   -1.4614   -5.3759   -3.6684 C   0  0  0  0  0  0  0  0  0  0  0  0
   -1.2214   -6.2064   -2.5781 C   0  0  0  0  0  0  0  0  0  0  0  0
   -0.7536   -4.1890   -3.7975 C   0  0  0  0  0  0  0  0  0  0  0  0
   -0.2684   -5.8400   -1.6276 C   0  0  0  0  0  0  0  0  0  0  0  0
    0.1944   -3.8204   -2.8530 C   0  0  0  0  0  0  0  0  0  0  0  0
    1.4692   -2.0084    0.4623 C   0  0  0  0  0  0  0  0  0  0  0  0
   -0.2175   -3.6051    1.0494 C   0  0  0  0  0  0  0  0  0  0  0  0
    0.9391   -1.0997    1.3881 C   0  0  0  0  0  0  0  0  0  0  0  0
   -0.7505   -2.7059    1.9690 C   0  0  0  0  0  0  0  0  0  0  0  0
    1.4658   -4.2462   -0.7138 C   0  0  0  0  0  0  0  0  0  0  0  0
   -0.7683   -0.5253    3.1507 C   0  0  0  0  0  0  0  0  0  0  0  0
    0.4324   -4.6443   -1.7523 C   0  0  0  0  0  0  0  0  0  0  0  0
    0.8974   -3.2585    0.2884 C   0  0  0  0  0  0  0  0  0  0  0  0
   -0.1768   -1.4437    2.1504 C   0  0  0  0  0  0  0  0  0  0  0  0
    0.3042    1.1426    2.6160 H   0  0  0  0  0  0  0  0  0  0  0  0
   -0.8251    1.3833    3.9070 H   0  0  0  0  0  0  0  0  0  0  0  0
   -2.1408   -5.6329   -4.3558 H   0  0  0  0  0  0  0  0  0  0  0  0
   -1.7295   -7.0617   -2.4765 H   0  0  0  0  0  0  0  0  0  0  0  0
   -0.9288   -3.5921   -4.5804 H   0  0  0  0  0  0  0  0  0  0  0  0
   -0.0872   -6.4419   -0.8499 H   0  0  0  0  0  0  0  0  0  0  0  0
    0.7050   -2.9674   -2.9611 H   0  0  0  0  0  0  0  0  0  0  0  0
    2.2696   -1.7516   -0.0793 H   0  0  0  0  0  0  0  0  0  0  0  0
   -0.6373   -4.5054    0.9343 H   0  0  0  0  0  0  0  0  0  0  0  0
    1.3627   -0.2011    1.5026 H   0  0  0  0  0  0  0  0  0  0  0  0
   -1.5531   -2.9657    2.5060 H   0  0  0  0  0  0  0  0  0  0  0  0
    2.2463   -3.8261   -1.1768 H   0  0  0  0  0  0  0  0  0  0  0  0
    1.7687   -5.0653   -0.2266 H   0  0  0  0  0  0  0  0  0  0  0  0
  1 13  2  0  0  0  0
  2 13  1  0  0  0  0
  3  4  2  0  0  0  0
  3  5  1  0  0  0  0
  4  6  1  0  0  0  0
  5  7  2  0  0  0  0
  6 14  2  0  0  0  0
  7 14  1  0  0  0  0
  8 10  1  0  0  0  0
  8 15  2  0  0  0  0
  9 11  2  0  0  0  0
  9 15  1  0  0  0  0
 10 16  2  0  0  0  0
 11 16  1  0  0  0  0
 12 14  1  0  0  0  0
 12 15  1  0  0  0  0
 13 16  1  0  0  0  0
  2 17  1  0  0  0  0
  2 18  1  0  0  0  0
  3 19  1  0  0  0  0
  4 20  1  0  0  0  0
  5 21  1  0  0  0  0
  6 22  1  0  0  0  0
  7 23  1  0  0  0  0
  8 24  1  0  0  0  0
  9 25  1  0  0  0  0
 10 26  1  0  0  0  0
 11 27  1  0  0  0  0
 12 28  1  0  0  0  0
 12 29  1  0  0  0  0
M  END
> <pdb_id>
5G3M

> <uniprot_id>
O15496

> <usmiles>
O=C(N)c1ccc(cc1)Cc2ccccc2

$$$$
9JQ_A_304
          07202416133D 1   1.00000     0.00000     0
            
 38 40  0  0  0  0            999 V2000
   -7.0812   34.1474   -9.5460 F   0  0  0  0  0  0  0  0  0  0  0  0
   -4.2250   28.4853  -15.1464 F   0  0  0  0  0  0  0  0  0  0  0  0
   -7.5645   34.9480  -12.1459 O   0  0  0  0  0  0  0  0  0  0  0  0
   -1.5941   28.6213  -14.9088 O   0  0  0  0  0  0  0  0  0  0  0  0
   -6.5412   29.0103  -13.1933 N   0  0  0  0  0  0  0  0  0  0  0  0
   -8.4089   30.4292  -13.4241 N   0  0  0  0  0  0  0  0  0  0  0  0
   -9.7762   30.5526  -13.9243 C   0  0  0  0  0  0  0  0  0  0  0  0
   -8.0743   26.7248  -13.4765 C   0  0  0  0  0  0  0  0  0  0  0  0
   -2.4989   27.5761  -11.5294 C   0  0  0  0  0  0  0  0  0  0  0  0
   -8.6564   27.9937  -13.5361 C   0  0  0  0  0  0  0  0  0  0  0  0
   -7.4679   31.9054  -10.1261 C   0  0  0  0  0  0  0  0  0  0  0  0
   -1.6873   27.9487  -12.6103 C   0  0  0  0  0  0  0  0  0  0  0  0
   -6.7076   26.6116  -13.2732 C   0  0  0  0  0  0  0  0  0  0  0  0
   -3.9029   27.5133  -11.6698 C   0  0  0  0  0  0  0  0  0  0  0  0
   -7.7973   30.9886  -11.1251 C   0  0  0  0  0  0  0  0  0  0  0  0
   -7.9931   32.7302  -12.8140 C   0  0  0  0  0  0  0  0  0  0  0  0
   -7.3956   33.2446  -10.4940 C   0  0  0  0  0  0  0  0  0  0  0  0
   -7.8698   29.1274  -13.4005 C   0  0  0  0  0  0  0  0  0  0  0  0
   -3.6997   28.1767  -13.9501 C   0  0  0  0  0  0  0  0  0  0  0  0
   -7.6387   33.6369  -11.8160 C   0  0  0  0  0  0  0  0  0  0  0  0
   -2.3177   28.2525  -13.8147 C   0  0  0  0  0  0  0  0  0  0  0  0
   -5.9691   27.7814  -13.1227 C   0  0  0  0  0  0  0  0  0  0  0  0
   -8.0664   31.3790  -12.4530 C   0  0  0  0  0  0  0  0  0  0  0  0
   -4.5182   27.8081  -12.9002 C   0  0  0  0  0  0  0  0  0  0  0  0
   -7.3130   35.6244  -11.4536 H   0  0  0  0  0  0  0  0  0  0  0  0
   -2.0599   28.8366  -15.7670 H   0  0  0  0  0  0  0  0  0  0  0  0
  -10.0558   31.5124  -13.8971 H   0  0  0  0  0  0  0  0  0  0  0  0
   -9.8178   30.2199  -14.8664 H   0  0  0  0  0  0  0  0  0  0  0  0
  -10.3908   30.0100  -13.3518 H   0  0  0  0  0  0  0  0  0  0  0  0
   -8.6385   25.9056  -13.5795 H   0  0  0  0  0  0  0  0  0  0  0  0
   -2.0792   27.3525  -10.6497 H   0  0  0  0  0  0  0  0  0  0  0  0
   -9.6422   28.0843  -13.6769 H   0  0  0  0  0  0  0  0  0  0  0  0
   -7.2915   31.6122   -9.1864 H   0  0  0  0  0  0  0  0  0  0  0  0
   -0.6925   27.9947  -12.5199 H   0  0  0  0  0  0  0  0  0  0  0  0
   -6.2654   25.7155  -13.2359 H   0  0  0  0  0  0  0  0  0  0  0  0
   -4.4666   27.2560  -10.8849 H   0  0  0  0  0  0  0  0  0  0  0  0
   -7.8443   30.0177  -10.8903 H   0  0  0  0  0  0  0  0  0  0  0  0
   -8.1866   33.0317  -13.7476 H   0  0  0  0  0  0  0  0  0  0  0  0
  1 17  1  0  0  0  0
  2 19  1  0  0  0  0
  3 20  1  0  0  0  0
  4 21  1  0  0  0  0
  5 18  2  0  0  0  0
  5 22  1  0  0  0  0
  6  7  1  0  0  0  0
  6 18  1  0  0  0  0
  6 23  1  0  0  0  0
  8 10  2  0  0  0  0
  8 13  1  0  0  0  0
  9 12  1  0  0  0  0
  9 14  2  0  0  0  0
 10 18  1  0  0  0  0
 11 15  1  0  0  0  0
 11 17  2  0  0  0  0
 12 21  2  0  0  0  0
 13 22  2  0  0  0  0
 14 24  1  0  0  0  0
 15 23  2  0  0  0  0
 16 20  2  0  0  0  0
 16 23  1  0  0  0  0
 17 20  1  0  0  0  0
 19 21  1  0  0  0  0
 19 24  2  0  0  0  0
 22 24  1  0  0  0  0
  3 25  1  0  0  0  0
  4 26  1  0  0  0  0
  7 27  1  0  0  0  0
  7 28  1  0  0  0  0
  7 29  1  0  0  0  0
  8 30  1  0  0  0  0
  9 31  1  0  0  0  0
 10 32  1  0  0  0  0
 11 33  1  0  0  0  0
 12 34  1  0  0  0  0
 13 35  1  0  0  0  0
 14 36  1  0  0  0  0
 15 37  1  0  0  0  0
 16 38  1  0  0  0  0
M  END
> <pdb_id>
5O43

> <uniprot_id>
Q9BPX1

> <usmiles>
Fc1c(O)cccc1c2nc(N(c3cc(O)c(F)cc3)C)ccc2

$$$$
9JW_A_304
          07202416133D 1   1.00000     0.00000     0
            
 37 39  0  0  0  0            999 V2000
   -7.1228   34.1378   -9.5381 F   0  0  0  0  0  0  0  0  0  0  0  0
   -3.9851   27.7144  -11.8752 F   0  0  0  0  0  0  0  0  0  0  0  0
   -1.3097   28.1272  -12.4648 O   0  0  0  0  0  0  0  0  0  0  0  0
   -7.6185   34.9786  -12.1382 O   0  0  0  0  0  0  0  0  0  0  0  0
   -6.5668   28.9864  -13.7134 N   0  0  0  0  0  0  0  0  0  0  0  0
   -9.5548   30.6110  -14.2743 C   0  0  0  0  0  0  0  0  0  0  0  0
   -7.8859   26.6318  -13.3008 C   0  0  0  0  0  0  0  0  0  0  0  0
   -2.8225   28.5218  -15.7348 C   0  0  0  0  0  0  0  0  0  0  0  0
   -7.5253   31.8658  -10.1521 C   0  0  0  0  0  0  0  0  0  0  0  0
   -1.8339   28.4767  -14.7655 C   0  0  0  0  0  0  0  0  0  0  0  0
   -8.5793   27.8428  -13.2525 C   0  0  0  0  0  0  0  0  0  0  0  0
   -6.5258   26.6391  -13.5773 C   0  0  0  0  0  0  0  0  0  0  0  0
   -4.1542   28.3274  -15.3945 C   0  0  0  0  0  0  0  0  0  0  0  0
   -7.8797   30.9480  -11.1253 C   0  0  0  0  0  0  0  0  0  0  0  0
   -8.0570   32.7167  -12.7762 C   0  0  0  0  0  0  0  0  0  0  0  0
   -7.4522   33.2160  -10.4903 C   0  0  0  0  0  0  0  0  0  0  0  0
   -3.5829   27.9818  -13.1477 C   0  0  0  0  0  0  0  0  0  0  0  0
   -2.2441   28.2013  -13.4790 C   0  0  0  0  0  0  0  0  0  0  0  0
   -7.7056   33.6324  -11.7899 C   0  0  0  0  0  0  0  0  0  0  0  0
   -7.8608   29.0119  -13.4808 C   0  0  0  0  0  0  0  0  0  0  0  0
   -5.8931   27.8615  -13.7896 C   0  0  0  0  0  0  0  0  0  0  0  0
   -8.5588   30.3460  -13.4483 C   0  0  0  0  0  0  0  0  0  0  0  0
   -8.1421   31.3725  -12.4179 C   0  0  0  0  0  0  0  0  0  0  0  0
   -4.5355   28.0299  -14.1020 C   0  0  0  0  0  0  0  0  0  0  0  0
   -1.6017   27.9277  -11.5294 H   0  0  0  0  0  0  0  0  0  0  0  0
   -7.3678   35.6582  -11.4488 H   0  0  0  0  0  0  0  0  0  0  0  0
  -10.0086   31.5014  -14.2409 H   0  0  0  0  0  0  0  0  0  0  0  0
   -9.8550   29.9212  -14.9331 H   0  0  0  0  0  0  0  0  0  0  0  0
   -8.3640   25.7687  -13.1379 H   0  0  0  0  0  0  0  0  0  0  0  0
   -2.5747   28.6960  -16.6878 H   0  0  0  0  0  0  0  0  0  0  0  0
   -7.3246   31.5647   -9.2198 H   0  0  0  0  0  0  0  0  0  0  0  0
   -0.8720   28.6357  -14.9879 H   0  0  0  0  0  0  0  0  0  0  0  0
   -9.5603   27.8688  -13.0601 H   0  0  0  0  0  0  0  0  0  0  0  0
   -6.0102   25.7834  -13.6233 H   0  0  0  0  0  0  0  0  0  0  0  0
   -4.8548   28.4048  -16.1037 H   0  0  0  0  0  0  0  0  0  0  0  0
   -7.9466   29.9771  -10.8954 H   0  0  0  0  0  0  0  0  0  0  0  0
   -8.2427   33.0135  -13.7129 H   0  0  0  0  0  0  0  0  0  0  0  0
  1 16  1  0  0  0  0
  2 17  1  0  0  0  0
  3 18  1  0  0  0  0
  4 19  1  0  0  0  0
  5 20  2  0  0  0  0
  5 21  1  0  0  0  0
  6 22  2  0  0  0  0
  7 11  2  0  0  0  0
  7 12  1  0  0  0  0
  8 10  1  0  0  0  0
  8 13  2  0  0  0  0
  9 14  1  0  0  0  0
  9 16  2  0  0  0  0
 10 18  2  0  0  0  0
 11 20  1  0  0  0  0
 12 21  2  0  0  0  0
 13 24  1  0  0  0  0
 14 23  2  0  0  0  0
 15 19  2  0  0  0  0
 15 23  1  0  0  0  0
 16 19  1  0  0  0  0
 17 18  1  0  0  0  0
 17 24  2  0  0  0  0
 20 22  1  0  0  0  0
 21 24  1  0  0  0  0
 22 23  1  0  0  0  0
  3 25  1  0  0  0  0
  4 26  1  0  0  0  0
  6 27  1  0  0  0  0
  6 28  1  0  0  0  0
  7 29  1  0  0  0  0
  8 30  1  0  0  0  0
  9 31  1  0  0  0  0
 10 32  1  0  0  0  0
 11 33  1  0  0  0  0
 12 34  1  0  0  0  0
 13 35  1  0  0  0  0
 14 36  1  0  0  0  0
 15 37  1  0  0  0  0
M  END
> <pdb_id>
5O42

> <uniprot_id>
Q9BPX1

> <usmiles>
Fc1c(O)cccc1c2nc(ccc2)C(c3cc(O)c(F)cc3)=C

$$$$
9JX_A_401
          07202401193D 1   1.00000     0.00000     0
            
 55 59  0  0  0  0            999 V2000
   -8.8325   24.5288   -7.2284 Cl  0  0  0  0  0  0  0  0  0  0  0  0
  -19.3159   18.9795  -14.5897 S   0  0  0  0  0  0  0  0  0  0  0  0
  -13.2245   20.7382   -5.0244 O   0  0  0  0  0  0  0  0  0  0  0  0
  -19.3493   20.1515  -12.0284 O   0  0  0  0  0  0  0  0  0  0  0  0
  -16.7654   19.0409  -14.2311 N   0  0  0  0  0  0  0  0  0  0  0  0
  -17.1817   20.3320  -11.5147 N   0  0  0  0  0  0  0  0  0  0  0  0
  -15.2199   20.5720   -9.4098 N   0  0  0  0  0  0  0  0  0  0  0  0
  -12.3771   20.5592   -7.1421 N   0  0  0  0  0  0  0  0  0  0  0  0
  -18.3188   18.3273  -15.7927 C   0  0  0  0  0  0  0  0  0  0  0  0
  -17.0030   18.4250  -15.4565 C   0  0  0  0  0  0  0  0  0  0  0  0
  -17.5294   20.8578  -10.1832 C   0  0  0  0  0  0  0  0  0  0  0  0
  -15.7642   20.4751  -11.8573 C   0  0  0  0  0  0  0  0  0  0  0  0
  -16.6176   20.2707   -9.1311 C   0  0  0  0  0  0  0  0  0  0  0  0
  -14.8613   19.9549  -10.7308 C   0  0  0  0  0  0  0  0  0  0  0  0
   -6.6032   23.7199  -10.3256 C   0  0  0  0  0  0  0  0  0  0  0  0
   -6.5964   22.3575  -10.3434 C   0  0  0  0  0  0  0  0  0  0  0  0
   -9.1155   20.1023   -5.5351 C   0  0  0  0  0  0  0  0  0  0  0  0
  -12.8787   20.5001   -8.5328 C   0  0  0  0  0  0  0  0  0  0  0  0
   -7.2787   24.4158   -9.3764 C   0  0  0  0  0  0  0  0  0  0  0  0
  -10.4682   20.0142   -5.7820 C   0  0  0  0  0  0  0  0  0  0  0  0
   -8.2934   20.8401   -6.3787 C   0  0  0  0  0  0  0  0  0  0  0  0
   -7.3097   21.6168   -9.4008 C   0  0  0  0  0  0  0  0  0  0  0  0
  -14.6977   20.5876   -6.9855 C   0  0  0  0  0  0  0  0  0  0  0  0
  -10.2050   21.4180   -7.6817 C   0  0  0  0  0  0  0  0  0  0  0  0
  -17.9159   19.3781  -13.6820 C   0  0  0  0  0  0  0  0  0  0  0  0
   -7.9768   23.6778   -8.4290 C   0  0  0  0  0  0  0  0  0  0  0  0
  -13.3936   20.6259   -6.2503 C   0  0  0  0  0  0  0  0  0  0  0  0
  -18.1869   19.9953  -12.3889 C   0  0  0  0  0  0  0  0  0  0  0  0
  -14.3385   20.0606   -8.3560 C   0  0  1  0  0  0  0  0  0  0  0  0
  -11.0142   20.6840   -6.8522 C   0  0  0  0  0  0  0  0  0  0  0  0
   -8.8293   21.5178   -7.4670 C   0  0  0  0  0  0  0  0  0  0  0  0
   -8.0142   22.2992   -8.4244 C   0  0  0  0  0  0  0  0  0  0  0  0
  -18.6540   17.9215  -16.6430 H   0  0  0  0  0  0  0  0  0  0  0  0
  -16.2679   18.0825  -16.0417 H   0  0  0  0  0  0  0  0  0  0  0  0
  -18.4763   20.6167   -9.9706 H   0  0  0  0  0  0  0  0  0  0  0  0
  -17.4315   21.8530  -10.1861 H   0  0  0  0  0  0  0  0  0  0  0  0
  -15.5635   21.4419  -12.0151 H   0  0  0  0  0  0  0  0  0  0  0  0
  -15.5768   19.9554  -12.6908 H   0  0  0  0  0  0  0  0  0  0  0  0
  -16.8612   20.6529   -8.2397 H   0  0  0  0  0  0  0  0  0  0  0  0
  -16.7390   19.2783   -9.1127 H   0  0  0  0  0  0  0  0  0  0  0  0
  -14.9635   18.9624  -10.6643 H   0  0  0  0  0  0  0  0  0  0  0  0
  -13.9108   20.1784  -10.9466 H   0  0  0  0  0  0  0  0  0  0  0  0
   -6.0980   24.2193  -11.0294 H   0  0  0  0  0  0  0  0  0  0  0  0
   -6.0697   21.8791  -11.0460 H   0  0  0  0  0  0  0  0  0  0  0  0
   -8.7229   19.6327   -4.7443 H   0  0  0  0  0  0  0  0  0  0  0  0
  -12.3652   19.8324   -9.0718 H   0  0  0  0  0  0  0  0  0  0  0  0
  -12.8241   21.3965   -8.9727 H   0  0  0  0  0  0  0  0  0  0  0  0
   -7.2741   25.4156   -9.3597 H   0  0  0  0  0  0  0  0  0  0  0  0
  -11.0518   19.4644   -5.1844 H   0  0  0  0  0  0  0  0  0  0  0  0
   -7.3102   20.8835   -6.2014 H   0  0  0  0  0  0  0  0  0  0  0  0
   -7.3119   20.6172   -9.4298 H   0  0  0  0  0  0  0  0  0  0  0  0
  -15.0947   21.5031   -7.0507 H   0  0  0  0  0  0  0  0  0  0  0  0
  -15.3439   19.9759   -6.5289 H   0  0  0  0  0  0  0  0  0  0  0  0
  -10.6116   21.8945   -8.4612 H   0  0  0  0  0  0  0  0  0  0  0  0
  -14.3824   19.0616   -8.3464 H   0  0  0  0  0  0  0  0  0  0  0  0
  1 26  1  0  0  0  0
  2  9  1  0  0  0  0
  2 25  1  0  0  0  0
  3 27  2  0  0  0  0
  4 28  2  0  0  0  0
  5 10  1  0  0  0  0
  5 25  2  0  0  0  0
  6 11  1  0  0  0  0
  6 12  1  0  0  0  0
  6 28  1  0  0  0  0
  7 13  1  0  0  0  0
  7 14  1  0  0  0  0
  7 29  1  0  0  0  0
  8 18  1  0  0  0  0
  8 27  1  0  0  0  0
  8 30  1  0  0  0  0
  9 10  2  0  0  0  0
 11 13  1  0  0  0  0
 12 14  1  0  0  0  0
 15 16  2  0  0  0  0
 15 19  1  0  0  0  0
 16 22  1  0  0  0  0
 17 20  2  0  0  0  0
 17 21  1  0  0  0  0
 18 29  1  0  0  0  0
 19 26  2  0  0  0  0
 20 30  1  0  0  0  0
 21 31  2  0  0  0  0
 22 32  2  0  0  0  0
 23 27  1  0  0  0  0
 23 29  1  0  0  0  0
 24 30  2  0  0  0  0
 24 31  1  0  0  0  0
 25 28  1  0  0  0  0
 26 32  1  0  0  0  0
 31 32  1  0  0  0  0
  9 33  1  0  0  0  0
 10 34  1  0  0  0  0
 11 35  1  0  0  0  0
 11 36  1  0  0  0  0
 12 37  1  0  0  0  0
 12 38  1  0  0  0  0
 13 39  1  0  0  0  0
 13 40  1  0  0  0  0
 14 41  1  0  0  0  0
 14 42  1  0  0  0  0
 15 43  1  0  0  0  0
 16 44  1  0  0  0  0
 17 45  1  0  0  0  0
 18 46  1  0  0  0  0
 18 47  1  0  0  0  0
 19 48  1  0  0  0  0
 20 49  1  0  0  0  0
 21 50  1  0  0  0  0
 22 51  1  0  0  0  0
 23 52  1  0  0  0  0
 23 53  1  0  0  0  0
 24 54  1  0  0  0  0
 29 55  1  0  0  0  0
M  END
> <pdb_id>
5ZUN

> <uniprot_id>
Q99685

> <usmiles>
Clc1c(c2cc(N3C(=O)C[C@@H](N4CCN(C(=O)C=5SC=CN5)CC4)C3)ccc2)cccc1

$$$$
9K2_B_502
          07202411503D 1   1.00000     0.00000     0
            
 39 41  0  0  0  0            999 V2000
   20.1093  -20.4101  -25.9014 F   0  0  0  0  0  0  0  0  0  0  0  0
   29.3007  -18.2275  -22.6493 N   0  0  0  0  0  0  0  0  0  0  0  0
   29.3564  -17.8997  -23.9719 N   0  0  0  0  0  0  0  0  0  0  0  0
   27.7948  -20.3740  -20.7631 N   0  0  0  0  0  0  0  0  0  0  0  0
   29.1534  -20.8216  -20.4961 C   0  0  0  0  0  0  0  0  0  0  0  0
   26.8428  -21.2828  -21.3813 C   0  0  0  0  0  0  0  0  0  0  0  0
   23.2922  -16.8490  -26.4363 C   0  0  0  0  0  0  0  0  0  0  0  0
   27.6413  -18.9775  -20.8798 C   0  0  0  0  0  0  0  0  0  0  0  0
   22.2244  -20.7232  -24.9938 C   0  0  0  0  0  0  0  0  0  0  0  0
   27.5991  -17.9967  -25.8442 C   0  0  0  0  0  0  0  0  0  0  0  0
   26.2193  -18.2630  -26.0540 C   0  0  0  0  0  0  0  0  0  0  0  0
   23.5771  -20.2842  -24.8286 C   0  0  0  0  0  0  0  0  0  0  0  0
   21.6437  -18.6482  -26.1862 C   0  0  0  0  0  0  0  0  0  0  0  0
   25.9049  -18.7819  -23.7054 C   0  0  0  0  0  0  0  0  0  0  0  0
   21.3212  -19.9065  -25.6962 C   0  0  0  0  0  0  0  0  0  0  0  0
   28.0364  -18.6159  -22.3256 C   0  0  0  0  0  0  0  0  0  0  0  0
   28.1044  -18.1040  -24.5335 C   0  0  0  0  0  0  0  0  0  0  0  0
   22.9922  -18.2390  -25.9720 C   0  0  0  0  0  0  0  0  0  0  0  0
   25.3416  -18.6892  -25.0244 C   0  0  0  0  0  0  0  0  0  0  0  0
   27.2866  -18.5666  -23.5187 C   0  0  0  0  0  0  0  0  0  0  0  0
   23.9555  -19.0353  -25.2829 C   0  0  0  0  0  0  0  0  0  0  0  0
   30.1655  -17.5672  -24.4565 H   0  0  0  0  0  0  0  0  0  0  0  0
   29.6718  -20.0790  -20.0721 H   0  0  0  0  0  0  0  0  0  0  0  0
   29.1301  -21.6072  -19.8778 H   0  0  0  0  0  0  0  0  0  0  0  0
   29.5919  -21.0863  -21.3550 H   0  0  0  0  0  0  0  0  0  0  0  0
   25.9637  -20.8194  -21.4927 H   0  0  0  0  0  0  0  0  0  0  0  0
   27.1859  -21.5665  -22.2767 H   0  0  0  0  0  0  0  0  0  0  0  0
   26.7240  -22.0874  -20.7995 H   0  0  0  0  0  0  0  0  0  0  0  0
   24.2519  -16.6362  -26.2529 H   0  0  0  0  0  0  0  0  0  0  0  0
   23.1174  -16.7807  -27.4185 H   0  0  0  0  0  0  0  0  0  0  0  0
   22.7079  -16.2010  -25.9478 H   0  0  0  0  0  0  0  0  0  0  0  0
   28.2394  -18.5082  -20.2301 H   0  0  0  0  0  0  0  0  0  0  0  0
   26.6913  -18.7182  -20.7056 H   0  0  0  0  0  0  0  0  0  0  0  0
   21.9261  -21.5991  -24.6146 H   0  0  0  0  0  0  0  0  0  0  0  0
   28.1947  -17.7403  -26.6054 H   0  0  0  0  0  0  0  0  0  0  0  0
   25.8478  -18.1438  -26.9747 H   0  0  0  0  0  0  0  0  0  0  0  0
   24.2467  -20.8801  -24.3853 H   0  0  0  0  0  0  0  0  0  0  0  0
   20.9770  -18.0698  -26.6562 H   0  0  0  0  0  0  0  0  0  0  0  0
   25.3201  -18.9980  -22.9235 H   0  0  0  0  0  0  0  0  0  0  0  0
  1 15  1  0  0  0  0
  2  3  1  0  0  0  0
  2 16  2  0  0  0  0
  3 17  1  0  0  0  0
  4  5  1  0  0  0  0
  4  6  1  0  0  0  0
  4  8  1  0  0  0  0
  7 18  1  0  0  0  0
  8 16  1  0  0  0  0
  9 12  1  0  0  0  0
  9 15  2  0  0  0  0
 10 11  1  0  0  0  0
 10 17  2  0  0  0  0
 11 19  2  0  0  0  0
 12 21  2  0  0  0  0
 13 15  1  0  0  0  0
 13 18  2  0  0  0  0
 14 19  1  0  0  0  0
 14 20  2  0  0  0  0
 16 20  1  0  0  0  0
 17 20  1  0  0  0  0
 18 21  1  0  0  0  0
 19 21  1  0  0  0  0
  3 22  1  0  0  0  0
  5 23  1  0  0  0  0
  5 24  1  0  0  0  0
  5 25  1  0  0  0  0
  6 26  1  0  0  0  0
  6 27  1  0  0  0  0
  6 28  1  0  0  0  0
  7 29  1  0  0  0  0
  7 30  1  0  0  0  0
  7 31  1  0  0  0  0
  8 32  1  0  0  0  0
  8 33  1  0  0  0  0
  9 34  1  0  0  0  0
 10 35  1  0  0  0  0
 11 36  1  0  0  0  0
 12 37  1  0  0  0  0
 13 38  1  0  0  0  0
 14 39  1  0  0  0  0
M  END
> <pdb_id>
5O48

> <uniprot_id>
A5K1A2

> <usmiles>
Fc1cc(c(c2cc3c(NN=C3CN(C)C)cc2)cc1)C

$$$$
9K3_B_1011
          07202413343D 1   1.00000     0.00000     0
            
 46 48  0  0  0  0            999 V2000
  -14.4148  -30.9282  -11.3876 O   0  0  0  0  0  0  0  0  0  0  0  0
  -11.3859  -25.2479  -11.9275 N   0  0  0  0  0  0  0  0  0  0  0  0
  -17.4628  -26.6899  -10.5053 N   0  0  0  0  0  0  0  0  0  0  0  0
  -11.3698  -27.0114  -13.5185 N   0  0  0  0  0  0  0  0  0  0  0  0
  -14.0176  -26.3250  -10.9653 N   0  0  0  0  0  0  0  0  0  0  0  0
  -15.0247  -28.1229  -11.7997 N   0  0  0  0  0  0  0  0  0  0  0  0
  -18.8009  -25.7774  -12.3224 C   0  0  0  0  0  0  0  0  0  0  0  0
  -15.3380  -30.0427   -9.4873 C   0  0  0  0  0  0  0  0  0  0  0  0
  -16.7422  -31.4085  -10.9663 C   0  0  0  0  0  0  0  0  0  0  0  0
  -17.4054  -25.9040  -11.7422 C   0  0  0  0  0  0  0  0  0  0  0  0
  -16.1571  -26.8620   -9.8608 C   0  0  0  0  0  0  0  0  0  0  0  0
  -16.0362  -29.1821  -11.9095 C   0  0  0  0  0  0  0  0  0  0  0  0
  -11.8677  -29.8943  -15.6928 C   0  0  0  0  0  0  0  0  0  0  0  0
  -13.0858  -30.4040  -15.2334 C   0  0  0  0  0  0  0  0  0  0  0  0
  -11.2883  -28.7542  -15.1185 C   0  0  0  0  0  0  0  0  0  0  0  0
  -13.7660  -29.7855  -14.1879 C   0  0  0  0  0  0  0  0  0  0  0  0
  -11.9402  -26.3362  -12.4925 C   0  0  0  0  0  0  0  0  0  0  0  0
  -15.0828  -27.1275  -10.8770 C   0  0  0  0  0  0  0  0  0  0  0  0
  -11.9396  -28.1110  -14.0640 C   0  0  0  0  0  0  0  0  0  0  0  0
  -13.2304  -26.7838  -11.9381 C   0  0  0  0  0  0  0  0  0  0  0  0
  -13.8783  -27.9648  -12.4985 C   0  0  0  0  0  0  0  0  0  0  0  0
  -13.2501  -28.6459  -13.5571 C   0  0  0  0  0  0  0  0  0  0  0  0
  -15.6452  -30.3454  -10.9544 C   0  0  0  0  0  0  0  0  0  0  0  0
  -14.4856  -31.1766  -12.3536 H   0  0  0  0  0  0  0  0  0  0  0  0
  -11.8495  -24.7860  -11.1714 H   0  0  0  0  0  0  0  0  0  0  0  0
  -10.5103  -24.9010  -12.2638 H   0  0  0  0  0  0  0  0  0  0  0  0
  -17.8306  -27.5943  -10.7216 H   0  0  0  0  0  0  0  0  0  0  0  0
  -18.7638  -25.2417  -13.1660 H   0  0  0  0  0  0  0  0  0  0  0  0
  -19.1631  -26.6880  -12.5214 H   0  0  0  0  0  0  0  0  0  0  0  0
  -19.3960  -25.3189  -11.6624 H   0  0  0  0  0  0  0  0  0  0  0  0
  -16.1379  -29.6221   -9.0591 H   0  0  0  0  0  0  0  0  0  0  0  0
  -15.1137  -30.8931   -9.0114 H   0  0  0  0  0  0  0  0  0  0  0  0
  -14.5615  -29.4150   -9.4320 H   0  0  0  0  0  0  0  0  0  0  0  0
  -17.6040  -31.0017  -10.6633 H   0  0  0  0  0  0  0  0  0  0  0  0
  -16.8503  -31.7656  -11.8941 H   0  0  0  0  0  0  0  0  0  0  0  0
  -16.4905  -32.1542  -10.3493 H   0  0  0  0  0  0  0  0  0  0  0  0
  -16.8100  -26.3627  -12.4018 H   0  0  0  0  0  0  0  0  0  0  0  0
  -17.0430  -24.9936  -11.5428 H   0  0  0  0  0  0  0  0  0  0  0  0
  -16.2050  -27.6340   -9.2270 H   0  0  0  0  0  0  0  0  0  0  0  0
  -15.9300  -26.0294   -9.3556 H   0  0  0  0  0  0  0  0  0  0  0  0
  -16.0719  -29.5172  -12.8510 H   0  0  0  0  0  0  0  0  0  0  0  0
  -16.9318  -28.8204  -11.6503 H   0  0  0  0  0  0  0  0  0  0  0  0
  -11.3992  -30.3532  -16.4477 H   0  0  0  0  0  0  0  0  0  0  0  0
  -13.4726  -31.2214  -15.6602 H   0  0  0  0  0  0  0  0  0  0  0  0
  -10.4163  -28.4046  -15.4610 H   0  0  0  0  0  0  0  0  0  0  0  0
  -14.6400  -30.1622  -13.8810 H   0  0  0  0  0  0  0  0  0  0  0  0
  1 23  1  0  0  0  0
  2 17  1  0  0  0  0
  3 10  1  0  0  0  0
  3 11  1  0  0  0  0
  4 17  2  0  0  0  0
  4 19  1  0  0  0  0
  5 18  2  0  0  0  0
  5 20  1  0  0  0  0
  6 12  1  0  0  0  0
  6 18  1  0  0  0  0
  6 21  1  0  0  0  0
  7 10  1  0  0  0  0
  8 23  1  0  0  0  0
  9 23  1  0  0  0  0
 11 18  1  0  0  0  0
 12 23  1  0  0  0  0
 13 14  2  0  0  0  0
 13 15  1  0  0  0  0
 14 16  1  0  0  0  0
 15 19  2  0  0  0  0
 16 22  2  0  0  0  0
 17 20  1  0  0  0  0
 19 22  1  0  0  0  0
 20 21  2  0  0  0  0
 21 22  1  0  0  0  0
  1 24  1  0  0  0  0
  2 25  1  0  0  0  0
  2 26  1  0  0  0  0
  3 27  1  0  0  0  0
  7 28  1  0  0  0  0
  7 29  1  0  0  0  0
  7 30  1  0  0  0  0
  8 31  1  0  0  0  0
  8 32  1  0  0  0  0
  8 33  1  0  0  0  0
  9 34  1  0  0  0  0
  9 35  1  0  0  0  0
  9 36  1  0  0  0  0
 10 37  1  0  0  0  0
 10 38  1  0  0  0  0
 11 39  1  0  0  0  0
 11 40  1  0  0  0  0
 12 41  1  0  0  0  0
 12 42  1  0  0  0  0
 13 43  1  0  0  0  0
 14 44  1  0  0  0  0
 15 45  1  0  0  0  0
 16 46  1  0  0  0  0
M  END
> <pdb_id>
5ZSG

> <uniprot_id>
G7NS93

> <usmiles>
OC(CN1c2c(N=C1CNCC)c(nc3c2cccc3)N)(C)C

$$$$
9KQ_D_1248
          07192422433D 1   1.00000     0.00000     0
            
 32 35  0  0  0  0            999 V2000
   -2.4882  175.2558   32.1246 N   0  0  0  0  0  0  0  0  0  0  0  0
   -3.0156  174.1634   32.7309 N   0  0  0  0  0  0  0  0  0  0  0  0
    1.1956  175.2938   33.6743 N   0  0  0  0  0  0  0  0  0  0  0  0
    2.6749  174.3631   35.1388 N   0  0  0  0  0  0  0  0  0  0  0  0
   -0.9470  174.3933   33.4413 N   0  0  0  0  0  0  0  0  0  0  0  0
   -1.2251  175.3959   32.5645 C   0  0  0  0  0  0  0  0  0  0  0  0
   -2.0704  173.6166   33.5303 C   0  0  0  0  0  0  0  0  0  0  0  0
    5.3469  178.0348   33.2772 C   0  0  0  0  0  0  0  0  0  0  0  0
    4.0441  178.1877   32.7732 C   0  0  0  0  0  0  0  0  0  0  0  0
    5.6733  176.9374   34.0853 C   0  0  0  0  0  0  0  0  0  0  0  0
    1.2558  171.5070   36.8586 C   0  0  0  0  0  0  0  0  0  0  0  0
    0.0142  171.4587   36.2969 C   0  0  0  0  0  0  0  0  0  0  0  0
    2.1330  172.4623   36.4661 C   0  0  0  0  0  0  0  0  0  0  0  0
    3.0340  177.2402   33.0377 C   0  0  0  0  0  0  0  0  0  0  0  0
    4.6575  176.0344   34.3674 C   0  0  0  0  0  0  0  0  0  0  0  0
   -0.3230  172.3936   35.3598 C   0  0  0  0  0  0  0  0  0  0  0  0
    2.3797  175.2781   34.2201 C   0  0  0  0  0  0  0  0  0  0  0  0
    0.2746  174.3578   34.0123 C   0  0  0  0  0  0  0  0  0  0  0  0
    1.7930  173.3955   35.5076 C   0  0  0  0  0  0  0  0  0  0  0  0
    3.3445  176.1936   33.8847 C   0  0  0  0  0  0  0  0  0  0  0  0
    0.5687  173.3876   34.9634 C   0  0  0  0  0  0  0  0  0  0  0  0
   -0.5922  176.1203   32.2913 H   0  0  0  0  0  0  0  0  0  0  0  0
   -2.1743  172.7923   34.0868 H   0  0  0  0  0  0  0  0  0  0  0  0
    6.0466  178.7145   33.0574 H   0  0  0  0  0  0  0  0  0  0  0  0
    3.8282  178.9877   32.2135 H   0  0  0  0  0  0  0  0  0  0  0  0
    6.5983  176.8104   34.4434 H   0  0  0  0  0  0  0  0  0  0  0  0
    1.5177  170.8407   37.5567 H   0  0  0  0  0  0  0  0  0  0  0  0
   -0.6385  170.7507   36.5664 H   0  0  0  0  0  0  0  0  0  0  0  0
    3.0435  172.4918   36.8786 H   0  0  0  0  0  0  0  0  0  0  0  0
    2.1258  177.3227   32.6273 H   0  0  0  0  0  0  0  0  0  0  0  0
    4.8666  175.2390   34.9362 H   0  0  0  0  0  0  0  0  0  0  0  0
   -1.2336  172.3637   34.9478 H   0  0  0  0  0  0  0  0  0  0  0  0
  1  2  1  0  0  0  0
  1  6  2  0  0  0  0
  2  7  2  0  0  0  0
  3 17  1  0  0  0  0
  3 18  2  0  0  0  0
  4 17  2  0  0  0  0
  4 19  1  0  0  0  0
  5  6  1  0  0  0  0
  5  7  1  0  0  0  0
  5 18  1  0  0  0  0
  8  9  2  0  0  0  0
  8 10  1  0  0  0  0
  9 14  1  0  0  0  0
 10 15  2  0  0  0  0
 11 12  2  0  0  0  0
 11 13  1  0  0  0  0
 12 16  1  0  0  0  0
 13 19  2  0  0  0  0
 14 20  2  0  0  0  0
 15 20  1  0  0  0  0
 16 21  2  0  0  0  0
 17 20  1  0  0  0  0
 18 21  1  0  0  0  0
 19 21  1  0  0  0  0
  6 22  1  0  0  0  0
  7 23  1  0  0  0  0
  8 24  1  0  0  0  0
  9 25  1  0  0  0  0
 10 26  1  0  0  0  0
 11 27  1  0  0  0  0
 12 28  1  0  0  0  0
 13 29  1  0  0  0  0
 14 30  1  0  0  0  0
 15 31  1  0  0  0  0
 16 32  1  0  0  0  0
M  END
> <pdb_id>
4BNU

> <uniprot_id>
O54438

> <usmiles>
n1c(nc2c(c1N3C=NN=C3)cccc2)c4ccccc4

$$$$
9L2_A_902
          07202400133D 1   1.00000     0.00000     0
            
 41 43  0  0  0  0            999 V2000
   33.3393   18.7346   27.3160 O   0  0  0  0  0  0  0  0  0  0  0  0
   31.3760   20.7800   25.4303 O   0  0  0  0  0  0  0  0  0  0  0  0
   33.1563   22.7903   24.3728 O   0  0  0  0  0  0  0  0  0  0  0  0
   33.5627   21.5367   28.3185 O   0  0  0  0  0  0  0  0  0  0  0  0
   34.1390   24.6912   26.4500 N   0  0  0  0  0  0  0  0  0  0  0  0
   36.0899   23.2374   28.8046 N   0  0  0  0  0  0  0  0  0  0  0  0
   34.6225   24.0234   30.2097 N   0  0  0  0  0  0  0  0  0  0  0  0
   32.3045   19.5158   27.9204 C   0  0  0  0  0  0  0  0  0  0  0  0
   36.7857   23.7517   29.8354 C   0  0  0  0  0  0  0  0  0  0  0  0
   36.6186   26.1997   34.4668 C   0  0  0  0  0  0  0  0  0  0  0  0
   37.6576   26.0065   33.5583 C   0  0  0  0  0  0  0  0  0  0  0  0
   35.3387   25.7650   34.1533 C   0  0  0  0  0  0  0  0  0  0  0  0
   37.4359   25.3628   32.3444 C   0  0  0  0  0  0  0  0  0  0  0  0
   35.1101   25.1092   32.9394 C   0  0  0  0  0  0  0  0  0  0  0  0
   32.5795   21.2224   26.0897 C   0  0  1  0  0  0  0  0  0  0  0  0
   32.8429   22.6831   25.7749 C   0  0  1  0  0  0  0  0  0  0  0  0
   32.4438   20.9937   27.6064 C   0  0  2  0  0  0  0  0  0  0  0  0
   33.6883   22.9500   28.1377 C   0  0  1  0  0  0  0  0  0  0  0  0
   34.7756   23.4023   29.0260 C   0  0  0  0  0  0  0  0  0  0  0  0
   33.9746   23.2357   26.6519 C   0  0  2  0  0  0  0  0  0  0  0  0
   35.8607   24.2396   30.7320 C   0  0  0  0  0  0  0  0  0  0  0  0
   36.1491   24.9140   32.0279 C   0  0  0  0  0  0  0  0  0  0  0  0
   33.2084   17.7709   27.5486 H   0  0  0  0  0  0  0  0  0  0  0  0
   31.2129   19.8170   25.6450 H   0  0  0  0  0  0  0  0  0  0  0  0
   33.3339   23.7473   24.1431 H   0  0  0  0  0  0  0  0  0  0  0  0
   34.8805   25.0267   27.0310 H   0  0  0  0  0  0  0  0  0  0  0  0
   34.3588   24.8720   25.4914 H   0  0  0  0  0  0  0  0  0  0  0  0
   36.4895   22.8003   27.9989 H   0  0  0  0  0  0  0  0  0  0  0  0
   32.3452   19.3921   28.9119 H   0  0  0  0  0  0  0  0  0  0  0  0
   31.4199   19.1965   27.5807 H   0  0  0  0  0  0  0  0  0  0  0  0
   37.7807   23.7750   29.9318 H   0  0  0  0  0  0  0  0  0  0  0  0
   36.7949   26.6502   35.3420 H   0  0  0  0  0  0  0  0  0  0  0  0
   38.5753   26.3350   33.7818 H   0  0  0  0  0  0  0  0  0  0  0  0
   34.5844   25.9196   34.7914 H   0  0  0  0  0  0  0  0  0  0  0  0
   38.1904   25.2221   31.7034 H   0  0  0  0  0  0  0  0  0  0  0  0
   34.1924   24.7766   32.7220 H   0  0  0  0  0  0  0  0  0  0  0  0
   33.3477   20.6787   25.7517 H   0  0  0  0  0  0  0  0  0  0  0  0
   32.0105   23.2059   25.9583 H   0  0  0  0  0  0  0  0  0  0  0  0
   31.6167   21.4598   27.9205 H   0  0  0  0  0  0  0  0  0  0  0  0
   32.8340   23.3965   28.4036 H   0  0  0  0  0  0  0  0  0  0  0  0
   34.8274   22.7797   26.3976 H   0  0  0  0  0  0  0  0  0  0  0  0
  1  8  1  0  0  0  0
  2 15  1  0  0  0  0
  3 16  1  0  0  0  0
  4 17  1  0  0  0  0
  4 18  1  0  0  0  0
  5 20  1  0  0  0  0
  6  9  1  0  0  0  0
  6 19  1  0  0  0  0
  7 19  2  0  0  0  0
  7 21  1  0  0  0  0
  8 17  1  0  0  0  0
  9 21  2  0  0  0  0
 10 11  2  0  0  0  0
 10 12  1  0  0  0  0
 11 13  1  0  0  0  0
 12 14  2  0  0  0  0
 13 22  2  0  0  0  0
 14 22  1  0  0  0  0
 15 16  1  0  0  0  0
 15 17  1  0  0  0  0
 16 20  1  0  0  0  0
 18 19  1  0  0  0  0
 18 20  1  0  0  0  0
 21 22  1  0  0  0  0
  1 23  1  0  0  0  0
  2 24  1  0  0  0  0
  3 25  1  0  0  0  0
  5 26  1  0  0  0  0
  5 27  1  0  0  0  0
  6 28  1  0  0  0  0
  8 29  1  0  0  0  0
  8 30  1  0  0  0  0
  9 31  1  0  0  0  0
 10 32  1  0  0  0  0
 11 33  1  0  0  0  0
 12 34  1  0  0  0  0
 13 35  1  0  0  0  0
 14 36  1  0  0  0  0
 15 37  1  0  0  0  0
 16 38  1  0  0  0  0
 17 39  1  0  0  0  0
 18 40  1  0  0  0  0
 20 41  1  0  0  0  0
M  END
> <pdb_id>
5O50

> <uniprot_id>
P00489

> <usmiles>
O1[C@@H](C2=NC(c3ccccc3)=CN2)[C@H](N)[C@@H](O)[C@H](O)[C@H]1CO

$$$$
9LE_A_902
          07202400133D 1   1.00000     0.00000     0
            
 47 50  0  0  0  0            999 V2000
   33.3216   18.7335   27.3111 O   0  0  0  0  0  0  0  0  0  0  0  0
   31.3481   20.7750   25.3685 O   0  0  0  0  0  0  0  0  0  0  0  0
   33.0571   22.7940   24.3274 O   0  0  0  0  0  0  0  0  0  0  0  0
   33.5257   21.5325   28.2482 O   0  0  0  0  0  0  0  0  0  0  0  0
   34.0325   24.6986   26.3823 N   0  0  0  0  0  0  0  0  0  0  0  0
   36.0459   23.2183   28.6609 N   0  0  0  0  0  0  0  0  0  0  0  0
   34.6392   24.0459   30.1200 N   0  0  0  0  0  0  0  0  0  0  0  0
   32.2676   19.5060   27.8866 C   0  0  0  0  0  0  0  0  0  0  0  0
   36.7855   23.7364   29.6636 C   0  0  0  0  0  0  0  0  0  0  0  0
   38.5207   26.9642   35.8523 C   0  0  0  0  0  0  0  0  0  0  0  0
   39.5048   26.8539   34.8603 C   0  0  0  0  0  0  0  0  0  0  0  0
   37.2103   26.5390   35.5979 C   0  0  0  0  0  0  0  0  0  0  0  0
   39.1844   26.2994   33.6161 C   0  0  0  0  0  0  0  0  0  0  0  0
   35.5905   25.5762   34.0943 C   0  0  0  0  0  0  0  0  0  0  0  0
   35.2701   25.0208   32.8620 C   0  0  0  0  0  0  0  0  0  0  0  0
   37.5576   25.3247   32.1265 C   0  0  0  0  0  0  0  0  0  0  0  0
   32.5282   21.2124   26.0437 C   0  0  1  0  0  0  0  0  0  0  0  0
   32.7596   22.6760   25.7276 C   0  0  1  0  0  0  0  0  0  0  0  0
   32.3970   20.9813   27.5624 C   0  0  2  0  0  0  0  0  0  0  0  0
   33.6301   22.9513   28.0823 C   0  0  1  0  0  0  0  0  0  0  0  0
   34.7481   23.4050   28.9344 C   0  0  0  0  0  0  0  0  0  0  0  0
   33.8901   23.2468   26.5944 C   0  0  2  0  0  0  0  0  0  0  0  0
   35.8951   24.2787   30.5741 C   0  0  0  0  0  0  0  0  0  0  0  0
   36.8919   25.9935   34.3526 C   0  0  0  0  0  0  0  0  0  0  0  0
   36.2521   24.9125   31.8671 C   0  0  0  0  0  0  0  0  0  0  0  0
   37.8760   25.8792   33.3617 C   0  0  0  0  0  0  0  0  0  0  0  0
   33.1972   17.7703   27.5493 H   0  0  0  0  0  0  0  0  0  0  0  0
   31.1867   19.8092   25.5710 H   0  0  0  0  0  0  0  0  0  0  0  0
   33.2132   23.7551   24.0996 H   0  0  0  0  0  0  0  0  0  0  0  0
   34.7732   25.0482   26.9559 H   0  0  0  0  0  0  0  0  0  0  0  0
   34.2432   24.8759   25.4210 H   0  0  0  0  0  0  0  0  0  0  0  0
   36.4083   22.7677   27.8451 H   0  0  0  0  0  0  0  0  0  0  0  0
   32.2895   19.3913   28.8798 H   0  0  0  0  0  0  0  0  0  0  0  0
   31.3938   19.1737   27.5318 H   0  0  0  0  0  0  0  0  0  0  0  0
   37.7829   23.7298   29.7350 H   0  0  0  0  0  0  0  0  0  0  0  0
   38.7550   27.3481   36.7455 H   0  0  0  0  0  0  0  0  0  0  0  0
   40.4355   27.1714   35.0417 H   0  0  0  0  0  0  0  0  0  0  0  0
   36.5073   26.6256   36.3038 H   0  0  0  0  0  0  0  0  0  0  0  0
   39.8884   26.2043   32.9123 H   0  0  0  0  0  0  0  0  0  0  0  0
   34.8850   25.6762   34.7959 H   0  0  0  0  0  0  0  0  0  0  0  0
   34.3402   24.6985   32.6847 H   0  0  0  0  0  0  0  0  0  0  0  0
   38.2640   25.2222   31.4261 H   0  0  0  0  0  0  0  0  0  0  0  0
   33.3065   20.6838   25.7047 H   0  0  0  0  0  0  0  0  0  0  0  0
   31.9196   23.1829   25.9211 H   0  0  0  0  0  0  0  0  0  0  0  0
   31.5732   21.4488   27.8832 H   0  0  0  0  0  0  0  0  0  0  0  0
   32.7805   23.3912   28.3730 H   0  0  0  0  0  0  0  0  0  0  0  0
   34.7463   22.8034   26.3291 H   0  0  0  0  0  0  0  0  0  0  0  0
  1  8  1  0  0  0  0
  2 17  1  0  0  0  0
  3 18  1  0  0  0  0
  4 19  1  0  0  0  0
  4 20  1  0  0  0  0
  5 22  1  0  0  0  0
  6  9  1  0  0  0  0
  6 21  1  0  0  0  0
  7 21  2  0  0  0  0
  7 23  1  0  0  0  0
  8 19  1  0  0  0  0
  9 23  2  0  0  0  0
 10 11  1  0  0  0  0
 10 12  2  0  0  0  0
 11 13  2  0  0  0  0
 12 24  1  0  0  0  0
 13 26  1  0  0  0  0
 14 15  1  0  0  0  0
 14 24  2  0  0  0  0
 15 25  2  0  0  0  0
 16 25  1  0  0  0  0
 16 26  2  0  0  0  0
 17 18  1  0  0  0  0
 17 19  1  0  0  0  0
 18 22  1  0  0  0  0
 20 21  1  0  0  0  0
 20 22  1  0  0  0  0
 23 25  1  0  0  0  0
 24 26  1  0  0  0  0
  1 27  1  0  0  0  0
  2 28  1  0  0  0  0
  3 29  1  0  0  0  0
  5 30  1  0  0  0  0
  5 31  1  0  0  0  0
  6 32  1  0  0  0  0
  8 33  1  0  0  0  0
  8 34  1  0  0  0  0
  9 35  1  0  0  0  0
 10 36  1  0  0  0  0
 11 37  1  0  0  0  0
 12 38  1  0  0  0  0
 13 39  1  0  0  0  0
 14 40  1  0  0  0  0
 15 41  1  0  0  0  0
 16 42  1  0  0  0  0
 17 43  1  0  0  0  0
 18 44  1  0  0  0  0
 19 45  1  0  0  0  0
 20 46  1  0  0  0  0
 22 47  1  0  0  0  0
M  END
> <pdb_id>
5O52

> <uniprot_id>
P00489

> <usmiles>
O1[C@@H](C2=NC(c3cc4c(cc3)cccc4)=CN2)[C@H](N)[C@@H](O)[C@H](O)[C@H]1CO

$$$$
9LS_A_501
          07212401303D 1   1.00000     0.00000     0
            
 58 62  0  0  0  0            999 V2000
   22.8390  -17.9212  137.8417 Cl  0  0  0  0  0  0  0  0  0  0  0  0
   24.7173   -6.3802  137.4063 F   0  0  0  0  0  0  0  0  0  0  0  0
   23.4896   -6.4305  139.7928 F   0  0  0  0  0  0  0  0  0  0  0  0
   19.9512   -8.6014  138.4951 F   0  0  0  0  0  0  0  0  0  0  0  0
   20.4677  -11.0297  141.5394 O   0  0  0  0  0  0  0  0  0  0  0  0
   20.4723  -11.1960  139.2627 N   0  0  0  0  0  0  0  0  0  0  0  0
   24.2092  -11.2409  137.2329 N   0  0  0  0  0  0  0  0  0  0  0  0
   23.1879  -11.2401  139.2346 N   0  0  0  0  0  0  0  0  0  0  0  0
   25.1043  -12.5679  143.9257 C   0  0  0  0  0  0  0  0  0  0  0  0
   16.5746   -9.9198  138.3498 C   0  0  0  0  0  0  0  0  0  0  0  0
   16.7978  -11.2318  138.7313 C   0  0  0  0  0  0  0  0  0  0  0  0
   23.6157  -12.3377  144.1741 C   0  0  0  0  0  0  0  0  0  0  0  0
   25.6264  -11.6402  142.8156 C   0  0  0  0  0  0  0  0  0  0  0  0
   24.2692  -15.7109  138.4746 C   0  0  0  0  0  0  0  0  0  0  0  0
   22.1016  -15.3491  137.4883 C   0  0  0  0  0  0  0  0  0  0  0  0
   17.6304   -9.0218  138.2655 C   0  0  0  0  0  0  0  0  0  0  0  0
   18.0815  -11.6697  139.0391 C   0  0  0  0  0  0  0  0  0  0  0  0
   22.7984  -12.5054  142.8789 C   0  0  0  0  0  0  0  0  0  0  0  0
   24.8037  -11.8058  141.5243 C   0  0  0  0  0  0  0  0  0  0  0  0
   24.4628  -14.3363  138.5536 C   0  0  0  0  0  0  0  0  0  0  0  0
   22.3030  -13.9764  137.5700 C   0  0  0  0  0  0  0  0  0  0  0  0
   24.5554   -8.7136  137.1615 C   0  0  0  0  0  0  0  0  0  0  0  0
   23.2612   -8.7561  139.6881 C   0  0  0  0  0  0  0  0  0  0  0  0
   23.0870  -16.1987  137.9405 C   0  0  0  0  0  0  0  0  0  0  0  0
   21.0371  -11.3003  140.4854 C   0  0  0  0  0  0  0  0  0  0  0  0
   24.3236   -7.5615  137.8960 C   0  0  0  0  0  0  0  0  0  0  0  0
   23.6910   -7.5893  139.1280 C   0  0  0  0  0  0  0  0  0  0  0  0
   18.8961   -9.4747  138.5724 C   0  0  0  0  0  0  0  0  0  0  0  0
   23.6422  -11.9857  138.1713 C   0  0  0  0  0  0  0  0  0  0  0  0
   19.1599  -10.7803  138.9599 C   0  0  0  0  0  0  0  0  0  0  0  0
   24.1216   -9.9265  137.7174 C   0  0  0  0  0  0  0  0  0  0  0  0
   23.4862   -9.9155  138.9581 C   0  0  0  0  0  0  0  0  0  0  0  0
   23.4865  -13.4525  138.0955 C   0  0  0  0  0  0  0  0  0  0  0  0
   23.2941  -11.5794  141.7536 C   0  0  0  0  0  0  0  0  0  0  0  0
   22.4979  -11.7979  140.4468 C   0  0  2  0  0  0  0  0  0  0  0  0
   21.0505  -11.4414  138.4846 H   0  0  0  0  0  0  0  0  0  0  0  0
   25.2471  -13.5189  143.6514 H   0  0  0  0  0  0  0  0  0  0  0  0
   25.6090  -12.3849  144.7694 H   0  0  0  0  0  0  0  0  0  0  0  0
   15.6465   -9.6168  138.1333 H   0  0  0  0  0  0  0  0  0  0  0  0
   16.0297  -11.8698  138.7861 H   0  0  0  0  0  0  0  0  0  0  0  0
   23.4837  -11.4105  144.5246 H   0  0  0  0  0  0  0  0  0  0  0  0
   23.2925  -12.9991  144.8509 H   0  0  0  0  0  0  0  0  0  0  0  0
   26.5822  -11.8641  142.6251 H   0  0  0  0  0  0  0  0  0  0  0  0
   25.5616  -10.6915  143.1250 H   0  0  0  0  0  0  0  0  0  0  0  0
   24.9750  -16.3404  138.7993 H   0  0  0  0  0  0  0  0  0  0  0  0
   21.2529  -15.7150  137.1064 H   0  0  0  0  0  0  0  0  0  0  0  0
   17.4771   -8.0728  137.9900 H   0  0  0  0  0  0  0  0  0  0  0  0
   18.2340  -12.6183  139.3165 H   0  0  0  0  0  0  0  0  0  0  0  0
   21.8408  -12.2923  143.0727 H   0  0  0  0  0  0  0  0  0  0  0  0
   22.8733  -13.4540  142.5716 H   0  0  0  0  0  0  0  0  0  0  0  0
   24.9396  -12.7325  141.1739 H   0  0  0  0  0  0  0  0  0  0  0  0
   25.1287  -11.1433  140.8495 H   0  0  0  0  0  0  0  0  0  0  0  0
   25.3112  -13.9778  138.9431 H   0  0  0  0  0  0  0  0  0  0  0  0
   21.5896  -13.3541  137.2477 H   0  0  0  0  0  0  0  0  0  0  0  0
   25.0125   -8.6817  136.2727 H   0  0  0  0  0  0  0  0  0  0  0  0
   22.8072   -8.7756  140.5789 H   0  0  0  0  0  0  0  0  0  0  0  0
   23.1609  -10.6325  142.0464 H   0  0  0  0  0  0  0  0  0  0  0  0
   22.4518  -12.7875  140.3106 H   0  0  0  0  0  0  0  0  0  0  0  0
  1 24  1  0  0  0  0
  2 26  1  0  0  0  0
  3 27  1  0  0  0  0
  4 28  1  0  0  0  0
  5 25  2  0  0  0  0
  6 25  1  0  0  0  0
  6 30  1  0  0  0  0
  7 29  2  0  0  0  0
  7 31  1  0  0  0  0
  8 29  1  0  0  0  0
  8 32  1  0  0  0  0
  8 35  1  0  0  0  0
  9 12  1  0  0  0  0
  9 13  1  0  0  0  0
 10 11  2  0  0  0  0
 10 16  1  0  0  0  0
 11 17  1  0  0  0  0
 12 18  1  0  0  0  0
 13 19  1  0  0  0  0
 14 20  2  0  0  0  0
 14 24  1  0  0  0  0
 15 21  1  0  0  0  0
 15 24  2  0  0  0  0
 16 28  2  0  0  0  0
 17 30  2  0  0  0  0
 18 34  1  0  0  0  0
 19 34  1  0  0  0  0
 20 33  1  0  0  0  0
 21 33  2  0  0  0  0
 22 26  1  0  0  0  0
 22 31  2  0  0  0  0
 23 27  1  0  0  0  0
 23 32  2  0  0  0  0
 25 35  1  0  0  0  0
 26 27  2  0  0  0  0
 28 30  1  0  0  0  0
 29 33  1  0  0  0  0
 31 32  1  0  0  0  0
 34 35  1  0  0  0  0
  6 36  1  0  0  0  0
  9 37  1  0  0  0  0
  9 38  1  0  0  0  0
 10 39  1  0  0  0  0
 11 40  1  0  0  0  0
 12 41  1  0  0  0  0
 12 42  1  0  0  0  0
 13 43  1  0  0  0  0
 13 44  1  0  0  0  0
 14 45  1  0  0  0  0
 15 46  1  0  0  0  0
 16 47  1  0  0  0  0
 17 48  1  0  0  0  0
 18 49  1  0  0  0  0
 18 50  1  0  0  0  0
 19 51  1  0  0  0  0
 19 52  1  0  0  0  0
 20 53  1  0  0  0  0
 21 54  1  0  0  0  0
 22 55  1  0  0  0  0
 23 56  1  0  0  0  0
 34 57  1  0  0  0  0
 35 58  1  0  0  0  0
M  END
> <pdb_id>
5Q0V

> <uniprot_id>
Q96RI1

> <usmiles>
Clc1ccc(cc1)C2=Nc3c(N2[C@H](C(=O)Nc4c(F)cccc4)C5CCCCC5)cc(F)c(F)c3

$$$$
9MC_A_600
          07202413353D 1   1.00000     0.00000     0
            
 61 65  0  0  0  0            999 V2000
  -27.8992    6.4299   -5.6228 S   0  0  0  0  0  0  0  0  0  0  0  0
  -27.8730    6.2141   -4.1510 O   0  0  0  0  0  0  0  0  0  0  0  0
  -27.8836    7.7667   -6.1981 O   0  0  0  0  0  0  0  0  0  0  0  0
  -27.2754    4.7766   -8.4745 O   0  0  0  0  0  0  0  0  0  0  0  0
  -33.5410    0.5481   -5.7752 N   0  0  0  0  0  0  0  0  0  0  0  0
  -26.4465    5.4990   -6.3210 C   0  0  0  0  0  0  0  0  0  0  0  0
  -26.3323    5.6823   -7.8617 C   0  0  0  0  0  0  0  0  0  0  0  0
  -32.2516    0.2523   -5.9867 C   0  0  0  0  0  0  0  0  0  0  0  0
  -31.2551    0.3714   -4.9891 C   0  0  0  0  0  0  0  0  0  0  0  0
  -31.6752    0.7997   -3.6958 C   0  0  0  0  0  0  0  0  0  0  0  0
  -39.2764    2.6718   -9.4378 C   0  0  0  0  0  0  0  0  0  0  0  0
  -38.6885    1.2873   -9.7397 C   0  0  0  0  0  0  0  0  0  0  0  0
  -33.0440    1.1158   -3.5017 C   0  0  0  0  0  0  0  0  0  0  0  0
  -30.0759    4.7619   -5.2321 C   0  0  0  0  0  0  0  0  0  0  0  0
  -30.0565    6.1373   -7.3245 C   0  0  0  0  0  0  0  0  0  0  0  0
  -38.1412    3.4697   -8.7095 C   0  0  0  0  0  0  0  0  0  0  0  0
  -37.2497    1.2684   -9.1965 C   0  0  0  0  0  0  0  0  0  0  0  0
  -31.3354    4.2802   -5.5967 C   0  0  0  0  0  0  0  0  0  0  0  0
  -31.3263    5.6005   -7.6671 C   0  0  0  0  0  0  0  0  0  0  0  0
  -33.7417    4.1701   -8.5009 C   0  0  0  0  0  0  0  0  0  0  0  0
  -35.0211    3.6068   -8.7939 C   0  0  0  0  0  0  0  0  0  0  0  0
  -34.1267    3.5336   -6.2028 C   0  0  0  0  0  0  0  0  0  0  0  0
  -36.4720    0.8751   -5.4415 C   0  0  0  0  0  0  0  0  0  0  0  0
  -29.4737    5.7136   -6.1000 C   0  0  0  0  0  0  0  0  0  0  0  0
  -33.9715    1.0067   -4.5565 C   0  0  0  0  0  0  0  0  0  0  0  0
  -31.9721    4.6840   -6.8036 C   0  0  0  0  0  0  0  0  0  0  0  0
  -37.2270    2.4082   -8.1289 C   0  0  0  0  0  0  0  0  0  0  0  0
  -33.2809    4.1214   -7.1669 C   0  0  0  0  0  0  0  0  0  0  0  0
  -35.8443    2.9939   -7.7971 C   0  0  0  0  0  0  0  0  0  0  0  0
  -35.4363    1.3402   -4.4231 C   0  0  1  0  0  0  0  0  0  0  0  0
  -35.3717    2.9762   -6.4653 C   0  0  0  0  0  0  0  0  0  0  0  0
  -36.1558    2.3446   -5.3300 C   0  0  1  0  0  0  0  0  0  0  0  0
  -27.2281    4.8688   -9.4691 H   0  0  0  0  0  0  0  0  0  0  0  0
  -26.5569    4.5261   -6.1176 H   0  0  0  0  0  0  0  0  0  0  0  0
  -25.6087    5.8363   -5.8915 H   0  0  0  0  0  0  0  0  0  0  0  0
  -26.5523    6.6254   -8.1111 H   0  0  0  0  0  0  0  0  0  0  0  0
  -25.4041    5.4655   -8.1640 H   0  0  0  0  0  0  0  0  0  0  0  0
  -31.9800   -0.0683   -6.8942 H   0  0  0  0  0  0  0  0  0  0  0  0
  -30.2963    0.1637   -5.1831 H   0  0  0  0  0  0  0  0  0  0  0  0
  -31.0204    0.8754   -2.9437 H   0  0  0  0  0  0  0  0  0  0  0  0
  -40.0778    2.5880   -8.8456 H   0  0  0  0  0  0  0  0  0  0  0  0
  -39.5358    3.1323  -10.2867 H   0  0  0  0  0  0  0  0  0  0  0  0
  -38.6831    1.1263  -10.7266 H   0  0  0  0  0  0  0  0  0  0  0  0
  -39.2328    0.5795   -9.2895 H   0  0  0  0  0  0  0  0  0  0  0  0
  -33.3558    1.4208   -2.6018 H   0  0  0  0  0  0  0  0  0  0  0  0
  -29.6187    4.4516   -4.3986 H   0  0  0  0  0  0  0  0  0  0  0  0
  -29.5903    6.7890   -7.9228 H   0  0  0  0  0  0  0  0  0  0  0  0
  -38.5233    4.0404   -7.9826 H   0  0  0  0  0  0  0  0  0  0  0  0
  -37.6439    4.0453   -9.3586 H   0  0  0  0  0  0  0  0  0  0  0  0
  -36.5925    1.4539   -9.9270 H   0  0  0  0  0  0  0  0  0  0  0  0
  -37.0409    0.3852   -8.7765 H   0  0  0  0  0  0  0  0  0  0  0  0
  -31.8024    3.6339   -4.9932 H   0  0  0  0  0  0  0  0  0  0  0  0
  -31.7662    5.8717   -8.5233 H   0  0  0  0  0  0  0  0  0  0  0  0
  -33.1873    4.5876   -9.2208 H   0  0  0  0  0  0  0  0  0  0  0  0
  -35.3557    3.6424   -9.7356 H   0  0  0  0  0  0  0  0  0  0  0  0
  -33.8046    3.5169   -5.2563 H   0  0  0  0  0  0  0  0  0  0  0  0
  -37.3577    0.5310   -5.1297 H   0  0  0  0  0  0  0  0  0  0  0  0
  -36.1811    0.3628   -6.2495 H   0  0  0  0  0  0  0  0  0  0  0  0
  -37.6369    2.0620   -7.2850 H   0  0  0  0  0  0  0  0  0  0  0  0
  -35.7673    1.3378   -3.4795 H   0  0  0  0  0  0  0  0  0  0  0  0
  -36.8508    2.9179   -4.8960 H   0  0  0  0  0  0  0  0  0  0  0  0
  1  2  2  0  0  0  0
  1  3  2  0  0  0  0
  1  6  1  0  0  0  0
  1 24  1  0  0  0  0
  4  7  1  0  0  0  0
  5  8  2  0  0  0  0
  5 25  1  0  0  0  0
  6  7  1  0  0  0  0
  8  9  1  0  0  0  0
  9 10  2  0  0  0  0
 10 13  1  0  0  0  0
 11 12  1  0  0  0  0
 11 16  1  0  0  0  0
 12 17  1  0  0  0  0
 13 25  2  0  0  0  0
 14 18  2  0  0  0  0
 14 24  1  0  0  0  0
 15 19  1  0  0  0  0
 15 24  2  0  0  0  0
 16 27  1  0  0  0  0
 17 27  1  0  0  0  0
 18 26  1  0  0  0  0
 19 26  2  0  0  0  0
 20 21  1  0  0  0  0
 20 28  2  0  0  0  0
 21 29  2  0  0  0  0
 22 28  1  0  0  0  0
 22 31  2  0  0  0  0
 23 30  1  0  0  0  0
 23 32  1  0  0  0  0
 25 30  1  0  0  0  0
 26 28  1  0  0  0  0
 27 29  1  0  0  0  0
 29 31  1  0  0  0  0
 30 32  1  0  0  0  0
 31 32  1  0  0  0  0
  4 33  1  0  0  0  0
  6 34  1  0  0  0  0
  6 35  1  0  0  0  0
  7 36  1  0  0  0  0
  7 37  1  0  0  0  0
  8 38  1  0  0  0  0
  9 39  1  0  0  0  0
 10 40  1  0  0  0  0
 11 41  1  0  0  0  0
 11 42  1  0  0  0  0
 12 43  1  0  0  0  0
 12 44  1  0  0  0  0
 13 45  1  0  0  0  0
 14 46  1  0  0  0  0
 15 47  1  0  0  0  0
 16 48  1  0  0  0  0
 16 49  1  0  0  0  0
 17 50  1  0  0  0  0
 17 51  1  0  0  0  0
 18 52  1  0  0  0  0
 19 53  1  0  0  0  0
 20 54  1  0  0  0  0
 21 55  1  0  0  0  0
 22 56  1  0  0  0  0
 23 57  1  0  0  0  0
 23 58  1  0  0  0  0
 27 59  1  0  0  0  0
 30 60  1  0  0  0  0
 32 61  1  0  0  0  0
M  END
> <pdb_id>
5ZYL

> <uniprot_id>
Q9Y5P4

> <usmiles>
S(=O)(=O)(c1ccc(c2cc(c(cc2)C3CCCC3)[C@@H]4[C@H](c5ncccc5)C4)cc1)CCO

$$$$
9ME_A_304
          07202416133D 1   1.00000     0.00000     0
            
 30 32  0  0  0  0            999 V2000
   -7.1868   34.1279   -9.5689 F   0  0  0  0  0  0  0  0  0  0  0  0
   -7.6517   35.0359  -12.2185 O   0  0  0  0  0  0  0  0  0  0  0  0
   -8.9447   30.8575  -14.5467 O   0  0  0  0  0  0  0  0  0  0  0  0
   -6.4078   28.8554  -13.5996 N   0  0  0  0  0  0  0  0  0  0  0  0
   -4.1220   26.0377  -13.6789 C   0  0  0  0  0  0  0  0  0  0  0  0
   -5.0078   24.9623  -13.7666 C   0  0  0  0  0  0  0  0  0  0  0  0
   -7.4542   31.9188  -10.2451 C   0  0  0  0  0  0  0  0  0  0  0  0
   -4.6199   27.3439  -13.6281 C   0  0  0  0  0  0  0  0  0  0  0  0
   -6.3806   25.1800  -13.7943 C   0  0  0  0  0  0  0  0  0  0  0  0
   -8.6922   28.0498  -13.7148 C   0  0  0  0  0  0  0  0  0  0  0  0
   -7.7137   31.0012  -11.2591 C   0  0  0  0  0  0  0  0  0  0  0  0
   -8.2403   26.7389  -13.7650 C   0  0  0  0  0  0  0  0  0  0  0  0
   -7.9441   32.8041  -12.9090 C   0  0  0  0  0  0  0  0  0  0  0  0
   -7.4301   33.2731  -10.5775 C   0  0  0  0  0  0  0  0  0  0  0  0
   -7.6716   33.7106  -11.8950 C   0  0  0  0  0  0  0  0  0  0  0  0
   -8.2411   30.4573  -13.6129 C   0  0  0  0  0  0  0  0  0  0  0  0
   -7.7477   29.0570  -13.6292 C   0  0  0  0  0  0  0  0  0  0  0  0
   -5.9837   27.5876  -13.6546 C   0  0  0  0  0  0  0  0  0  0  0  0
   -7.9443   31.4456  -12.5675 C   0  0  0  0  0  0  0  0  0  0  0  0
   -6.8726   26.4932  -13.7384 C   0  0  0  0  0  0  0  0  0  0  0  0
   -7.4589   35.7196  -11.5146 H   0  0  0  0  0  0  0  0  0  0  0  0
   -3.1357   25.8750  -13.6527 H   0  0  0  0  0  0  0  0  0  0  0  0
   -4.6522   24.0286  -13.8097 H   0  0  0  0  0  0  0  0  0  0  0  0
   -7.2899   31.6161   -9.3063 H   0  0  0  0  0  0  0  0  0  0  0  0
   -3.9828   28.1126  -13.5717 H   0  0  0  0  0  0  0  0  0  0  0  0
   -7.0124   24.4072  -13.8536 H   0  0  0  0  0  0  0  0  0  0  0  0
   -9.6696   28.2599  -13.7398 H   0  0  0  0  0  0  0  0  0  0  0  0
   -7.7357   30.0229  -11.0532 H   0  0  0  0  0  0  0  0  0  0  0  0
   -8.8901   25.9808  -13.8195 H   0  0  0  0  0  0  0  0  0  0  0  0
   -8.1323   33.1072  -13.8432 H   0  0  0  0  0  0  0  0  0  0  0  0
  1 14  1  0  0  0  0
  2 15  1  0  0  0  0
  3 16  2  0  0  0  0
  4 17  2  0  0  0  0
  4 18  1  0  0  0  0
  5  6  2  0  0  0  0
  5  8  1  0  0  0  0
  6  9  1  0  0  0  0
  7 11  1  0  0  0  0
  7 14  2  0  0  0  0
  8 18  2  0  0  0  0
  9 20  2  0  0  0  0
 10 12  2  0  0  0  0
 10 17  1  0  0  0  0
 11 19  2  0  0  0  0
 12 20  1  0  0  0  0
 13 15  2  0  0  0  0
 13 19  1  0  0  0  0
 14 15  1  0  0  0  0
 16 17  1  0  0  0  0
 16 19  1  0  0  0  0
 18 20  1  0  0  0  0
  2 21  1  0  0  0  0
  5 22  1  0  0  0  0
  6 23  1  0  0  0  0
  7 24  1  0  0  0  0
  8 25  1  0  0  0  0
  9 26  1  0  0  0  0
 10 27  1  0  0  0  0
 11 28  1  0  0  0  0
 12 29  1  0  0  0  0
 13 30  1  0  0  0  0
M  END
> <pdb_id>
5O6Z

> <uniprot_id>
Q9BPX1

> <usmiles>
Fc1c(O)cc(cc1)C(=O)c2nc3c(cc2)cccc3

$$$$
9MG_A_301
          07202411363D 1   1.00000     0.00000     0
            
 19 20  0  0  0  0            999 V2000
   74.3683    1.4139  101.1387 O   0  0  0  0  0  0  0  0  0  0  0  0
   77.0334    1.7617  104.9266 N   0  0  0  0  0  0  0  0  0  0  0  0
   72.6814   -0.5290  102.6377 N   0  0  0  0  0  0  0  0  0  0  0  0
   75.6479    1.5248  103.0706 N   0  0  0  0  0  0  0  0  0  0  0  0
   75.1835    0.3106  105.0433 N   0  0  0  0  0  0  0  0  0  0  0  0
   73.2162   -1.0358  104.7313 N   0  0  0  0  0  0  0  0  0  0  0  0
   73.1513   -1.6553  106.0414 C   0  0  0  0  0  0  0  0  0  0  0  0
   72.3453   -1.2456  103.7001 C   0  0  0  0  0  0  0  0  0  0  0  0
   75.9208    1.1560  104.3848 C   0  0  0  0  0  0  0  0  0  0  0  0
   74.5979    1.0757  102.2903 C   0  0  0  0  0  0  0  0  0  0  0  0
   74.1589   -0.1437  104.3147 C   0  0  0  0  0  0  0  0  0  0  0  0
   73.8076    0.1496  103.0287 C   0  0  0  0  0  0  0  0  0  0  0  0
   77.3064    1.5568  105.8665 H   0  0  0  0  0  0  0  0  0  0  0  0
   77.5679    2.4061  104.3798 H   0  0  0  0  0  0  0  0  0  0  0  0
   76.2740    2.1803  102.6483 H   0  0  0  0  0  0  0  0  0  0  0  0
   73.9100   -1.3263  106.6037 H   0  0  0  0  0  0  0  0  0  0  0  0
   72.2843   -1.4182  106.4797 H   0  0  0  0  0  0  0  0  0  0  0  0
   73.2149   -2.6485  105.9440 H   0  0  0  0  0  0  0  0  0  0  0  0
   71.5571   -1.8596  103.7417 H   0  0  0  0  0  0  0  0  0  0  0  0
  1 10  2  0  0  0  0
  2  9  1  0  0  0  0
  3  8  2  0  0  0  0
  3 12  1  0  0  0  0
  4  9  1  0  0  0  0
  4 10  1  0  0  0  0
  5  9  2  0  0  0  0
  5 11  1  0  0  0  0
  6  7  1  0  0  0  0
  6  8  1  0  0  0  0
  6 11  1  0  0  0  0
 10 12  1  0  0  0  0
 11 12  2  0  0  0  0
  2 13  1  0  0  0  0
  2 14  1  0  0  0  0
  4 15  1  0  0  0  0
  7 16  1  0  0  0  0
  7 17  1  0  0  0  0
  7 18  1  0  0  0  0
  8 19  1  0  0  0  0
M  END
> <pdb_id>
5U0W

> <uniprot_id>
P0AC14

> <usmiles>
O=C1NC(=NC=2N(C=NC12)C)N

$$$$
9MJ_A_1319
          07202405093D 1   1.00000     0.00000     0
            
 21 22  0  0  0  0            999 V2000
   17.0210   93.5820   14.4980 O   0  0  0  0  0  0  0  0  0  0  0  0
   21.0120   96.9220   10.2270 O   0  0  0  0  0  0  0  0  0  0  0  0
   19.0990   93.8310   15.4280 N   0  0  0  0  0  0  0  0  0  0  0  0
   16.6480   94.7550   12.0350 N   0  0  0  0  0  0  0  0  0  0  0  0
   19.9510   95.1450   13.2090 N   0  0  0  0  0  0  0  0  0  0  0  0
   18.7270   95.6750   11.3380 N   0  0  0  0  0  0  0  0  0  0  0  0
   18.6590   94.6840   13.3370 N   0  0  0  0  0  0  0  0  0  0  0  0
   22.2620   97.4130    9.9230 C   0  0  0  0  0  0  0  0  0  0  0  0
   23.1070   97.1820   10.9160 C   0  0  0  0  0  0  0  0  0  0  0  0
   22.3830   96.4580   11.9160 C   0  0  0  0  0  0  0  0  0  0  0  0
   18.1970   94.0110   14.4650 C   0  0  0  0  0  0  0  0  0  0  0  0
   17.9360   95.0350   12.2100 C   0  0  0  0  0  0  0  0  0  0  0  0
   21.1170   96.3460   11.4610 C   0  0  0  0  0  0  0  0  0  0  0  0
   19.9300   95.7290   12.0180 C   0  0  0  0  0  0  0  0  0  0  0  0
   20.0204   94.2061   15.3265 H   0  0  0  0  0  0  0  0  0  0  0  0
   18.8549   93.3207   16.2527 H   0  0  0  0  0  0  0  0  0  0  0  0
   16.1402   94.2711   12.7477 H   0  0  0  0  0  0  0  0  0  0  0  0
   16.1871   95.0283   11.1907 H   0  0  0  0  0  0  0  0  0  0  0  0
   22.4988   97.8793    9.0707 H   0  0  0  0  0  0  0  0  0  0  0  0
   24.0666   97.4600   10.9589 H   0  0  0  0  0  0  0  0  0  0  0  0
   22.7432   96.1054   12.7797 H   0  0  0  0  0  0  0  0  0  0  0  0
  1 11  2  0  0  0  0
  2  8  1  0  0  0  0
  2 13  1  0  0  0  0
  3 11  1  0  0  0  0
  4 12  1  0  0  0  0
  5  7  1  0  0  0  0
  5 14  2  0  0  0  0
  6 12  2  0  0  0  0
  6 14  1  0  0  0  0
  7 11  1  0  0  0  0
  7 12  1  0  0  0  0
  8  9  2  0  0  0  0
  9 10  1  0  0  0  0
 10 13  2  0  0  0  0
 13 14  1  0  0  0  0
  3 15  1  0  0  0  0
  3 16  1  0  0  0  0
  4 17  1  0  0  0  0
  4 18  1  0  0  0  0
  8 19  1  0  0  0  0
  9 20  1  0  0  0  0
 10 21  1  0  0  0  0
M  END
> <pdb_id>
4UCS

> <uniprot_id>
P43813

> <usmiles>
O=C(N1N=C(N=C1N)C=2OC=CC2)N

$$$$
9MK_A_304
          07202416133D 1   1.00000     0.00000     0
            
 33 35  0  0  0  0            999 V2000
   -6.2919   33.7258   -7.3839 F   0  0  0  0  0  0  0  0  0  0  0  0
   -6.4623   35.4630   -9.4616 O   0  0  0  0  0  0  0  0  0  0  0  0
   -8.2382   32.6065  -13.2304 O   0  0  0  0  0  0  0  0  0  0  0  0
   -6.4655   29.8655  -12.8451 N   0  0  0  0  0  0  0  0  0  0  0  0
   -5.7369   24.3971  -14.2610 C   0  0  0  0  0  0  0  0  0  0  0  0
   -6.9055   31.9153   -8.7355 C   0  0  0  0  0  0  0  0  0  0  0  0
   -5.0335   27.9925  -13.3196 C   0  0  0  0  0  0  0  0  0  0  0  0
   -8.8505   29.6098  -12.9886 C   0  0  0  0  0  0  0  0  0  0  0  0
   -4.8657   26.6836  -13.6574 C   0  0  0  0  0  0  0  0  0  0  0  0
   -7.2865   31.4386   -9.9748 C   0  0  0  0  0  0  0  0  0  0  0  0
   -8.7247   28.2967  -13.3181 C   0  0  0  0  0  0  0  0  0  0  0  0
   -7.1465   33.6574  -10.8897 C   0  0  0  0  0  0  0  0  0  0  0  0
   -7.2241   26.3599  -13.7541 C   0  0  0  0  0  0  0  0  0  0  0  0
   -6.6557   33.2551   -8.5933 C   0  0  0  0  0  0  0  0  0  0  0  0
   -6.7676   34.1531   -9.6504 C   0  0  0  0  0  0  0  0  0  0  0  0
   -7.8121   31.8079  -12.4011 C   0  0  0  0  0  0  0  0  0  0  0  0
   -7.6968   30.3538  -12.7578 C   0  0  0  0  0  0  0  0  0  0  0  0
   -6.3287   28.5455  -13.1897 C   0  0  0  0  0  0  0  0  0  0  0  0
   -5.9539   25.8398  -13.8797 C   0  0  0  0  0  0  0  0  0  0  0  0
   -7.4085   32.3006  -11.0549 C   0  0  0  0  0  0  0  0  0  0  0  0
   -7.4451   27.7167  -13.4219 C   0  0  0  0  0  0  0  0  0  0  0  0
   -6.1927   35.7879   -8.5551 H   0  0  0  0  0  0  0  0  0  0  0  0
   -6.6219   23.9469  -14.3795 H   0  0  0  0  0  0  0  0  0  0  0  0
   -5.2229   24.3525  -15.1176 H   0  0  0  0  0  0  0  0  0  0  0  0
   -5.2220   23.9353  -13.5388 H   0  0  0  0  0  0  0  0  0  0  0  0
   -6.8139   31.2945   -7.9570 H   0  0  0  0  0  0  0  0  0  0  0  0
   -4.2317   28.5690  -13.1616 H   0  0  0  0  0  0  0  0  0  0  0  0
   -9.7537   30.0326  -12.9135 H   0  0  0  0  0  0  0  0  0  0  0  0
   -3.9391   26.3185  -13.7482 H   0  0  0  0  0  0  0  0  0  0  0  0
   -7.4760   30.4640  -10.0944 H   0  0  0  0  0  0  0  0  0  0  0  0
   -9.5401   27.7430  -13.4868 H   0  0  0  0  0  0  0  0  0  0  0  0
   -7.2318   34.2786  -11.6687 H   0  0  0  0  0  0  0  0  0  0  0  0
   -8.0113   25.7612  -13.9020 H   0  0  0  0  0  0  0  0  0  0  0  0
  1 14  1  0  0  0  0
  2 15  1  0  0  0  0
  3 16  2  0  0  0  0
  4 17  2  0  0  0  0
  4 18  1  0  0  0  0
  5 19  1  0  0  0  0
  6 10  1  0  0  0  0
  6 14  2  0  0  0  0
  7  9  1  0  0  0  0
  7 18  2  0  0  0  0
  8 11  2  0  0  0  0
  8 17  1  0  0  0  0
  9 19  2  0  0  0  0
 10 20  2  0  0  0  0
 11 21  1  0  0  0  0
 12 15  2  0  0  0  0
 12 20  1  0  0  0  0
 13 19  1  0  0  0  0
 13 21  2  0  0  0  0
 14 15  1  0  0  0  0
 16 17  1  0  0  0  0
 16 20  1  0  0  0  0
 18 21  1  0  0  0  0
  2 22  1  0  0  0  0
  5 23  1  0  0  0  0
  5 24  1  0  0  0  0
  5 25  1  0  0  0  0
  6 26  1  0  0  0  0
  7 27  1  0  0  0  0
  8 28  1  0  0  0  0
  9 29  1  0  0  0  0
 10 30  1  0  0  0  0
 11 31  1  0  0  0  0
 12 32  1  0  0  0  0
 13 33  1  0  0  0  0
M  END
> <pdb_id>
5O6X

> <uniprot_id>
Q9BPX1

> <usmiles>
Fc1c(O)cc(cc1)C(=O)c2nc3c(cc(cc3)C)cc2

$$$$
9ML_A_600
          07202413353D 1   1.00000     0.00000     0
            
 63 66  0  0  0  0            999 V2000
  -27.8920    6.4330   -5.6260 S   0  0  0  0  0  0  0  0  0  0  0  0
  -27.7540    6.2030   -4.1730 O   0  0  0  0  0  0  0  0  0  0  0  0
  -27.8350    7.7650   -6.2620 O   0  0  0  0  0  0  0  0  0  0  0  0
  -27.2920    4.6710   -8.4380 O   0  0  0  0  0  0  0  0  0  0  0  0
  -33.9660    0.7530   -5.9380 N   0  0  0  0  0  0  0  0  0  0  0  0
  -40.4020   -0.3370   -9.7570 C   0  0  0  0  0  0  0  0  0  0  0  0
  -26.5300    5.4050   -6.2920 C   0  0  0  0  0  0  0  0  0  0  0  0
  -26.3480    5.5100   -7.8190 C   0  0  0  0  0  0  0  0  0  0  0  0
  -32.6890    0.3080   -6.0870 C   0  0  0  0  0  0  0  0  0  0  0  0
  -38.9610   -0.0050   -9.3550 C   0  0  0  0  0  0  0  0  0  0  0  0
  -31.7570    0.3990   -5.0440 C   0  0  0  0  0  0  0  0  0  0  0  0
  -38.7640    1.5020   -9.4430 C   0  0  0  0  0  0  0  0  0  0  0  0
  -32.1420    0.9530   -3.7820 C   0  0  0  0  0  0  0  0  0  0  0  0
  -37.2780    1.8230   -9.1950 C   0  0  0  0  0  0  0  0  0  0  0  0
  -33.4480    1.4470   -3.6530 C   0  0  0  0  0  0  0  0  0  0  0  0
  -30.0510    6.3240   -7.2760 C   0  0  0  0  0  0  0  0  0  0  0  0
  -30.1130    4.8310   -5.3240 C   0  0  0  0  0  0  0  0  0  0  0  0
  -37.3150    3.1750   -8.4500 C   0  0  0  0  0  0  0  0  0  0  0  0
  -31.3320    5.9000   -7.6980 C   0  0  0  0  0  0  0  0  0  0  0  0
  -31.4120    4.4460   -5.7420 C   0  0  0  0  0  0  0  0  0  0  0  0
  -35.0990    4.2880   -9.0520 C   0  0  0  0  0  0  0  0  0  0  0  0
  -33.8000    4.7120   -8.6690 C   0  0  0  0  0  0  0  0  0  0  0  0
  -34.1580    3.8270   -6.4080 C   0  0  0  0  0  0  0  0  0  0  0  0
  -36.6060    1.3160   -5.7890 C   0  0  0  0  0  0  0  0  0  0  0  0
  -29.4780    5.7800   -6.1430 C   0  0  0  0  0  0  0  0  0  0  0  0
  -34.3320    1.3210   -4.7300 C   0  0  0  0  0  0  0  0  0  0  0  0
  -32.0120    4.9450   -6.9210 C   0  0  0  0  0  0  0  0  0  0  0  0
  -35.8930    3.6110   -8.1030 C   0  0  0  0  0  0  0  0  0  0  0  0
  -33.3390    4.4930   -7.3520 C   0  0  0  0  0  0  0  0  0  0  0  0
  -35.7330    1.8060   -4.6740 C   0  0  1  0  0  0  0  0  0  0  0  0
  -35.4430    3.4180   -6.7670 C   0  0  0  0  0  0  0  0  0  0  0  0
  -36.3160    2.7820   -5.7110 C   0  0  1  0  0  0  0  0  0  0  0  0
  -27.1875    4.7272   -9.4309 H   0  0  0  0  0  0  0  0  0  0  0  0
  -40.5438   -1.3254   -9.7031 H   0  0  0  0  0  0  0  0  0  0  0  0
  -41.0359    0.1250   -9.1368 H   0  0  0  0  0  0  0  0  0  0  0  0
  -40.5666   -0.0272  -10.6935 H   0  0  0  0  0  0  0  0  0  0  0  0
  -26.7174    4.4497   -6.0634 H   0  0  0  0  0  0  0  0  0  0  0  0
  -25.6778    5.6915   -5.8541 H   0  0  0  0  0  0  0  0  0  0  0  0
  -26.4928    6.4551   -8.1121 H   0  0  0  0  0  0  0  0  0  0  0  0
  -25.4240    5.2211   -8.0695 H   0  0  0  0  0  0  0  0  0  0  0  0
  -32.4092   -0.0927   -6.9595 H   0  0  0  0  0  0  0  0  0  0  0  0
  -38.3246   -0.4642   -9.9747 H   0  0  0  0  0  0  0  0  0  0  0  0
  -38.7939   -0.3120   -8.4181 H   0  0  0  0  0  0  0  0  0  0  0  0
  -30.8207    0.0760   -5.1821 H   0  0  0  0  0  0  0  0  0  0  0  0
  -39.3259    1.9555   -8.7512 H   0  0  0  0  0  0  0  0  0  0  0  0
  -39.0303    1.8234  -10.3518 H   0  0  0  0  0  0  0  0  0  0  0  0
  -31.4999    0.9868   -3.0162 H   0  0  0  0  0  0  0  0  0  0  0  0
  -36.7819    1.9056  -10.0594 H   0  0  0  0  0  0  0  0  0  0  0  0
  -36.8499    1.1167   -8.6311 H   0  0  0  0  0  0  0  0  0  0  0  0
  -33.7434    1.8833   -2.8030 H   0  0  0  0  0  0  0  0  0  0  0  0
  -29.5585    7.0195   -7.7991 H   0  0  0  0  0  0  0  0  0  0  0  0
  -29.6799    4.4543   -4.5052 H   0  0  0  0  0  0  0  0  0  0  0  0
  -37.8470    3.0766   -7.6090 H   0  0  0  0  0  0  0  0  0  0  0  0
  -37.7409    3.8653   -9.0350 H   0  0  0  0  0  0  0  0  0  0  0  0
  -31.7451    6.2706   -8.5299 H   0  0  0  0  0  0  0  0  0  0  0  0
  -31.9241    3.7958   -5.1807 H   0  0  0  0  0  0  0  0  0  0  0  0
  -35.4436    4.4652   -9.9739 H   0  0  0  0  0  0  0  0  0  0  0  0
  -33.2086    5.1677   -9.3343 H   0  0  0  0  0  0  0  0  0  0  0  0
  -33.8159    3.6500   -5.4852 H   0  0  0  0  0  0  0  0  0  0  0  0
  -37.5266    0.9818   -5.5870 H   0  0  0  0  0  0  0  0  0  0  0  0
  -36.2079    0.7709   -6.5268 H   0  0  0  0  0  0  0  0  0  0  0  0
  -36.1527    1.8287   -3.7666 H   0  0  0  0  0  0  0  0  0  0  0  0
  -37.0720    3.3493   -5.3846 H   0  0  0  0  0  0  0  0  0  0  0  0
  1  2  2  0  0  0  0
  1  3  2  0  0  0  0
  1  7  1  0  0  0  0
  1 25  1  0  0  0  0
  4  8  1  0  0  0  0
  5  9  2  0  0  0  0
  5 26  1  0  0  0  0
  6 10  1  0  0  0  0
  7  8  1  0  0  0  0
  9 11  1  0  0  0  0
 10 12  1  0  0  0  0
 11 13  2  0  0  0  0
 12 14  1  0  0  0  0
 13 15  1  0  0  0  0
 14 18  1  0  0  0  0
 15 26  2  0  0  0  0
 16 19  2  0  0  0  0
 16 25  1  0  0  0  0
 17 20  1  0  0  0  0
 17 25  2  0  0  0  0
 18 28  1  0  0  0  0
 19 27  1  0  0  0  0
 20 27  2  0  0  0  0
 21 22  1  0  0  0  0
 21 28  2  0  0  0  0
 22 29  2  0  0  0  0
 23 29  1  0  0  0  0
 23 31  2  0  0  0  0
 24 30  1  0  0  0  0
 24 32  1  0  0  0  0
 26 30  1  0  0  0  0
 27 29  1  0  0  0  0
 28 31  1  0  0  0  0
 30 32  1  0  0  0  0
 31 32  1  0  0  0  0
  4 33  1  0  0  0  0
  6 34  1  0  0  0  0
  6 35  1  0  0  0  0
  6 36  1  0  0  0  0
  7 37  1  0  0  0  0
  7 38  1  0  0  0  0
  8 39  1  0  0  0  0
  8 40  1  0  0  0  0
  9 41  1  0  0  0  0
 10 42  1  0  0  0  0
 10 43  1  0  0  0  0
 11 44  1  0  0  0  0
 12 45  1  0  0  0  0
 12 46  1  0  0  0  0
 13 47  1  0  0  0  0
 14 48  1  0  0  0  0
 14 49  1  0  0  0  0
 15 50  1  0  0  0  0
 16 51  1  0  0  0  0
 17 52  1  0  0  0  0
 18 53  1  0  0  0  0
 18 54  1  0  0  0  0
 19 55  1  0  0  0  0
 20 56  1  0  0  0  0
 21 57  1  0  0  0  0
 22 58  1  0  0  0  0
 23 59  1  0  0  0  0
 24 60  1  0  0  0  0
 24 61  1  0  0  0  0
 30 62  1  0  0  0  0
 32 63  1  0  0  0  0
M  END
> <pdb_id>
5ZYI

> <uniprot_id>
Q9Y5P4

> <usmiles>
S(=O)(=O)(c1ccc(c2cc(c(cc2)CCCCC)[C@@H]3[C@H](c4ncccc4)C3)cc1)CCO

$$$$
9MP_C_501
          07212401303D 1   1.00000     0.00000     0
            
 71 75  0  0  0  0            999 V2000
   24.8030   -6.2800  137.5320 F   0  0  0  0  0  0  0  0  0  0  0  0
   23.7430   -6.4500  139.9930 F   0  0  0  0  0  0  0  0  0  0  0  0
   21.0290  -10.5680  141.5470 O   0  0  0  0  0  0  0  0  0  0  0  0
   22.2680  -13.7790  137.8500 O   0  0  0  0  0  0  0  0  0  0  0  0
   20.5130  -11.4990  139.5470 N   0  0  0  0  0  0  0  0  0  0  0  0
   24.2530  -11.0960  137.1270 N   0  0  0  0  0  0  0  0  0  0  0  0
   23.3680  -11.2690  139.2020 N   0  0  0  0  0  0  0  0  0  0  0  0
   21.6220  -13.8890  136.5890 C   0  0  0  0  0  0  0  0  0  0  0  0
   16.8640  -10.2850  137.6910 C   0  0  0  0  0  0  0  0  0  0  0  0
   26.1490  -16.0010  140.0590 C   0  0  0  0  0  0  0  0  0  0  0  0
   25.4310  -12.7170  143.8450 C   0  0  0  0  0  0  0  0  0  0  0  0
   16.8460  -11.5490  138.5350 C   0  0  0  0  0  0  0  0  0  0  0  0
   17.6550   -9.1970  138.3830 C   0  0  0  0  0  0  0  0  0  0  0  0
   26.6620  -14.8320  139.5310 C   0  0  0  0  0  0  0  0  0  0  0  0
   24.8240  -16.3300  139.8380 C   0  0  0  0  0  0  0  0  0  0  0  0
   23.9230  -12.5010  144.1130 C   0  0  0  0  0  0  0  0  0  0  0  0
   25.9400  -11.7940  142.7360 C   0  0  0  0  0  0  0  0  0  0  0  0
   18.2660  -12.0670  138.7910 C   0  0  0  0  0  0  0  0  0  0  0  0
   19.1080   -9.6650  138.6810 C   0  0  0  0  0  0  0  0  0  0  0  0
   25.8540  -13.9900  138.7840 C   0  0  0  0  0  0  0  0  0  0  0  0
   24.0130  -15.4900  139.0940 C   0  0  0  0  0  0  0  0  0  0  0  0
   23.0950  -12.6560  142.8120 C   0  0  0  0  0  0  0  0  0  0  0  0
   25.1040  -11.9330  141.4480 C   0  0  0  0  0  0  0  0  0  0  0  0
   24.5980   -8.6010  137.1990 C   0  0  0  0  0  0  0  0  0  0  0  0
   23.4760   -8.7820  139.7920 C   0  0  0  0  0  0  0  0  0  0  0  0
   21.3420  -11.2430  140.5670 C   0  0  0  0  0  0  0  0  0  0  0  0
   24.4260   -7.4900  137.9970 C   0  0  0  0  0  0  0  0  0  0  0  0
   23.8810   -7.5780  139.2600 C   0  0  0  0  0  0  0  0  0  0  0  0
   23.7570  -11.9160  138.0240 C   0  0  0  0  0  0  0  0  0  0  0  0
   23.6360  -13.3960  137.7480 C   0  0  1  0  0  0  0  0  0  0  0  0
   19.1350  -11.0180  139.4690 C   0  0  0  0  0  0  0  0  0  0  0  0
   24.1980   -9.8350  137.7100 C   0  0  0  0  0  0  0  0  0  0  0  0
   23.6460   -9.9060  138.9820 C   0  0  0  0  0  0  0  0  0  0  0  0
   22.7430  -11.8470  140.4200 C   0  0  2  0  0  0  0  0  0  0  0  0
   24.5190  -14.3060  138.5590 C   0  0  0  0  0  0  0  0  0  0  0  0
   23.5800  -11.6950  141.7070 C   0  0  0  0  0  0  0  0  0  0  0  0
   20.8586  -12.0545  138.7907 H   0  0  0  0  0  0  0  0  0  0  0  0
   20.6689  -14.1594  136.7252 H   0  0  0  0  0  0  0  0  0  0  0  0
   21.6544  -13.0065  136.1198 H   0  0  0  0  0  0  0  0  0  0  0  0
   22.0881  -14.5785  136.0347 H   0  0  0  0  0  0  0  0  0  0  0  0
   15.9254   -9.9703  137.5497 H   0  0  0  0  0  0  0  0  0  0  0  0
   17.2849  -10.4859  136.8064 H   0  0  0  0  0  0  0  0  0  0  0  0
   26.7334  -16.6069  140.5988 H   0  0  0  0  0  0  0  0  0  0  0  0
   25.5797  -13.6672  143.5710 H   0  0  0  0  0  0  0  0  0  0  0  0
   25.9407  -12.5285  144.6844 H   0  0  0  0  0  0  0  0  0  0  0  0
   16.3235  -12.2538  138.0552 H   0  0  0  0  0  0  0  0  0  0  0  0
   16.4090  -11.3491  139.4120 H   0  0  0  0  0  0  0  0  0  0  0  0
   17.2041   -8.9628  139.2443 H   0  0  0  0  0  0  0  0  0  0  0  0
   17.6862   -8.3902  137.7930 H   0  0  0  0  0  0  0  0  0  0  0  0
   27.6201  -14.5926  139.6885 H   0  0  0  0  0  0  0  0  0  0  0  0
   24.4507  -17.1769  140.2166 H   0  0  0  0  0  0  0  0  0  0  0  0
   23.7853  -11.5809  144.4796 H   0  0  0  0  0  0  0  0  0  0  0  0
   23.6104  -13.1763  144.7811 H   0  0  0  0  0  0  0  0  0  0  0  0
   26.8908  -12.0270  142.5317 H   0  0  0  0  0  0  0  0  0  0  0  0
   25.8898  -10.8473  143.0541 H   0  0  0  0  0  0  0  0  0  0  0  0
   18.6823  -12.3166  137.9167 H   0  0  0  0  0  0  0  0  0  0  0  0
   18.2152  -12.8745  139.3786 H   0  0  0  0  0  0  0  0  0  0  0  0
   19.5681   -8.9641  139.2260 H   0  0  0  0  0  0  0  0  0  0  0  0
   19.5930   -9.7855  137.8148 H   0  0  0  0  0  0  0  0  0  0  0  0
   26.2346  -13.1473  138.4032 H   0  0  0  0  0  0  0  0  0  0  0  0
   23.0559  -15.7346  138.9390 H   0  0  0  0  0  0  0  0  0  0  0  0
   22.1354  -12.4597  143.0136 H   0  0  0  0  0  0  0  0  0  0  0  0
   23.1809  -13.5966  142.4837 H   0  0  0  0  0  0  0  0  0  0  0  0
   25.2285  -12.8547  141.0807 H   0  0  0  0  0  0  0  0  0  0  0  0
   25.4263  -11.2618  140.7804 H   0  0  0  0  0  0  0  0  0  0  0  0
   24.9961   -8.5244  136.2849 H   0  0  0  0  0  0  0  0  0  0  0  0
   23.0816   -8.8474  140.7086 H   0  0  0  0  0  0  0  0  0  0  0  0
   23.8963  -13.5278  136.7915 H   0  0  0  0  0  0  0  0  0  0  0  0
   18.7924  -10.8615  140.3954 H   0  0  0  0  0  0  0  0  0  0  0  0
   22.6271  -12.8267  140.2565 H   0  0  0  0  0  0  0  0  0  0  0  0
   23.4662  -10.7591  142.0403 H   0  0  0  0  0  0  0  0  0  0  0  0
  1 27  1  0  0  0  0
  2 28  1  0  0  0  0
  3 26  2  0  0  0  0
  4  8  1  0  0  0  0
  4 30  1  0  0  0  0
  5 26  1  0  0  0  0
  5 31  1  0  0  0  0
  6 29  2  0  0  0  0
  6 32  1  0  0  0  0
  7 29  1  0  0  0  0
  7 33  1  0  0  0  0
  7 34  1  0  0  0  0
  9 12  1  0  0  0  0
  9 13  1  0  0  0  0
 10 14  2  0  0  0  0
 10 15  1  0  0  0  0
 11 16  1  0  0  0  0
 11 17  1  0  0  0  0
 12 18  1  0  0  0  0
 13 19  1  0  0  0  0
 14 20  1  0  0  0  0
 15 21  2  0  0  0  0
 16 22  1  0  0  0  0
 17 23  1  0  0  0  0
 18 31  1  0  0  0  0
 19 31  1  0  0  0  0
 20 35  2  0  0  0  0
 21 35  1  0  0  0  0
 22 36  1  0  0  0  0
 23 36  1  0  0  0  0
 24 27  1  0  0  0  0
 24 32  2  0  0  0  0
 25 28  1  0  0  0  0
 25 33  2  0  0  0  0
 26 34  1  0  0  0  0
 27 28  2  0  0  0  0
 29 30  1  0  0  0  0
 30 35  1  0  0  0  0
 32 33  1  0  0  0  0
 34 36  1  0  0  0  0
  5 37  1  0  0  0  0
  8 38  1  0  0  0  0
  8 39  1  0  0  0  0
  8 40  1  0  0  0  0
  9 41  1  0  0  0  0
  9 42  1  0  0  0  0
 10 43  1  0  0  0  0
 11 44  1  0  0  0  0
 11 45  1  0  0  0  0
 12 46  1  0  0  0  0
 12 47  1  0  0  0  0
 13 48  1  0  0  0  0
 13 49  1  0  0  0  0
 14 50  1  0  0  0  0
 15 51  1  0  0  0  0
 16 52  1  0  0  0  0
 16 53  1  0  0  0  0
 17 54  1  0  0  0  0
 17 55  1  0  0  0  0
 18 56  1  0  0  0  0
 18 57  1  0  0  0  0
 19 58  1  0  0  0  0
 19 59  1  0  0  0  0
 20 60  1  0  0  0  0
 21 61  1  0  0  0  0
 22 62  1  0  0  0  0
 22 63  1  0  0  0  0
 23 64  1  0  0  0  0
 23 65  1  0  0  0  0
 24 66  1  0  0  0  0
 25 67  1  0  0  0  0
 30 68  1  0  0  0  0
 31 69  1  0  0  0  0
 34 70  1  0  0  0  0
 36 71  1  0  0  0  0
M  END
> <pdb_id>
5Q15

> <uniprot_id>
Q96RI1

> <usmiles>
Fc1c(F)cc2N(C(=Nc2c1)[C@H](OC)c3ccccc3)[C@H](C(=O)NC4CCCCC4)C5CCCCC5

$$$$
9MR_A_600
          07202408413D 1   1.00000     0.00000     0
            
 44 45  0  0  0  0            999 V2000
   30.4079   55.6435  -25.6623 O   0  0  0  0  0  0  0  0  0  0  0  0
   26.8227   60.3615  -29.4263 O   0  0  0  0  0  0  0  0  0  0  0  0
   25.9652   56.6913  -25.5542 O   0  0  0  0  0  0  0  0  0  0  0  0
   28.9906   61.3515  -25.7344 O   0  0  0  0  0  0  0  0  0  0  0  0
   32.5485   58.2794  -26.7770 O   0  0  0  0  0  0  0  0  0  0  0  0
   31.6529   60.5412  -25.1808 O   0  0  0  0  0  0  0  0  0  0  0  0
   28.8820   57.7929  -26.5842 O   0  0  0  0  0  0  0  0  0  0  0  0
   27.1479   59.1992  -26.1209 O   0  0  0  0  0  0  0  0  0  0  0  0
   23.4757   58.0585  -27.9327 N   0  0  0  0  0  0  0  0  0  0  0  0
   30.5088   56.1187  -27.0205 C   0  0  0  0  0  0  0  0  0  0  0  0
   26.1018   60.8278  -28.2771 C   0  0  0  0  0  0  0  0  0  0  0  0
   24.2488   57.0377  -27.1940 C   0  0  0  0  0  0  0  0  0  0  0  0
   24.3445   59.0382  -28.6223 C   0  0  0  0  0  0  0  0  0  0  0  0
   28.4726   59.1647  -26.6427 C   0  0  1  0  0  0  0  0  0  0  0  0
   25.2251   57.7009  -26.2329 C   0  0  2  0  0  0  0  0  0  0  0  0
   30.2246   57.6103  -27.0886 C   0  0  2  0  0  0  0  0  0  0  0  0
   29.3710   59.9850  -25.7229 C   0  0  1  0  0  0  0  0  0  0  0  0
   31.2259   58.3828  -26.2200 C   0  0  2  0  0  0  0  0  0  0  0  0
   30.8376   59.8579  -26.1411 C   0  0  2  0  0  0  0  0  0  0  0  0
   26.1718   58.6287  -26.9987 C   0  0  1  0  0  0  0  0  0  0  0  0
   25.2848   59.7012  -27.6191 C   0  0  1  0  0  0  0  0  0  0  0  0
   30.5978   54.6620  -25.6376 H   0  0  0  0  0  0  0  0  0  0  0  0
   27.3397   61.1187  -29.8253 H   0  0  0  0  0  0  0  0  0  0  0  0
   26.6093   57.1195  -24.9203 H   0  0  0  0  0  0  0  0  0  0  0  0
   29.5914   61.8699  -25.1259 H   0  0  0  0  0  0  0  0  0  0  0  0
   33.1922   58.7860  -26.2035 H   0  0  0  0  0  0  0  0  0  0  0  0
   32.6143   60.4643  -25.4448 H   0  0  0  0  0  0  0  0  0  0  0  0
   22.8908   58.5480  -27.2859 H   0  0  0  0  0  0  0  0  0  0  0  0
   29.8459   55.6316  -27.5891 H   0  0  0  0  0  0  0  0  0  0  0  0
   31.4325   55.9444  -27.3618 H   0  0  0  0  0  0  0  0  0  0  0  0
   25.4785   61.5570  -28.5599 H   0  0  0  0  0  0  0  0  0  0  0  0
   26.7540   61.1870  -27.6096 H   0  0  0  0  0  0  0  0  0  0  0  0
   24.7587   56.4759  -27.8455 H   0  0  0  0  0  0  0  0  0  0  0  0
   23.6190   56.4589  -26.6761 H   0  0  0  0  0  0  0  0  0  0  0  0
   23.7759   59.7377  -29.0552 H   0  0  0  0  0  0  0  0  0  0  0  0
   24.8840   58.5680  -29.3207 H   0  0  0  0  0  0  0  0  0  0  0  0
   28.5015   59.5113  -27.5802 H   0  0  0  0  0  0  0  0  0  0  0  0
   24.7118   58.2371  -25.5628 H   0  0  0  0  0  0  0  0  0  0  0  0
   30.2795   57.9257  -28.0359 H   0  0  0  0  0  0  0  0  0  0  0  0
   29.2748   59.6361  -24.7907 H   0  0  0  0  0  0  0  0  0  0  0  0
   31.2274   57.9948  -25.2983 H   0  0  0  0  0  0  0  0  0  0  0  0
   30.9621   60.2800  -27.0390 H   0  0  0  0  0  0  0  0  0  0  0  0
   26.6319   58.1146  -27.7225 H   0  0  0  0  0  0  0  0  0  0  0  0
   24.7292   60.1041  -26.8918 H   0  0  0  0  0  0  0  0  0  0  0  0
  1 10  1  0  0  0  0
  2 11  1  0  0  0  0
  3 15  1  0  0  0  0
  4 17  1  0  0  0  0
  5 18  1  0  0  0  0
  6 19  1  0  0  0  0
  7 14  1  0  0  0  0
  7 16  1  0  0  0  0
  8 14  1  0  0  0  0
  8 20  1  0  0  0  0
  9 12  1  0  0  0  0
  9 13  1  0  0  0  0
 10 16  1  0  0  0  0
 11 21  1  0  0  0  0
 12 15  1  0  0  0  0
 13 21  1  0  0  0  0
 14 17  1  0  0  0  0
 15 20  1  0  0  0  0
 16 18  1  0  0  0  0
 17 19  1  0  0  0  0
 18 19  1  0  0  0  0
 20 21  1  0  0  0  0
  1 22  1  0  0  0  0
  2 23  1  0  0  0  0
  3 24  1  0  0  0  0
  4 25  1  0  0  0  0
  5 26  1  0  0  0  0
  6 27  1  0  0  0  0
  9 28  1  0  0  0  0
 10 29  1  0  0  0  0
 10 30  1  0  0  0  0
 11 31  1  0  0  0  0
 11 32  1  0  0  0  0
 12 33  1  0  0  0  0
 12 34  1  0  0  0  0
 13 35  1  0  0  0  0
 13 36  1  0  0  0  0
 14 37  1  0  0  0  0
 15 38  1  0  0  0  0
 16 39  1  0  0  0  0
 17 40  1  0  0  0  0
 18 41  1  0  0  0  0
 19 42  1  0  0  0  0
 20 43  1  0  0  0  0
 21 44  1  0  0  0  0
M  END
> <pdb_id>
2OYK

> <uniprot_id>
O33853

> <usmiles>
O([C@@H]1O[C@@H]([C@@H](O)[C@H](O)[C@H]1O)CO)[C@H]2[C@H](O)CNC[C@@H]2CO

$$$$
9OE_A_201
          07212401333D 1   1.00000     0.00000     0
            
 27 28  0  0  0  0            999 V2000
  -13.9815  -20.4846  -18.8173 S   0  0  0  0  0  0  0  0  0  0  0  0
  -12.5988  -19.8226  -16.7224 O   0  0  0  0  0  0  0  0  0  0  0  0
  -17.4863  -23.6328  -23.4665 O   0  0  0  0  0  0  0  0  0  0  0  0
  -15.3715  -24.1230  -22.0177 O   0  0  0  0  0  0  0  0  0  0  0  0
  -13.6584  -16.9560  -20.1322 N   0  0  0  0  0  0  0  0  0  0  0  0
  -13.0324  -18.2608  -18.3198 N   0  0  0  0  0  0  0  0  0  0  0  0
  -14.3966  -24.3674  -20.9899 C   0  0  0  0  0  0  0  0  0  0  0  0
  -17.3381  -21.2680  -23.0714 C   0  0  0  0  0  0  0  0  0  0  0  0
  -16.6549  -20.2266  -22.4536 C   0  0  0  0  0  0  0  0  0  0  0  0
  -14.9122  -19.2918  -21.1243 C   0  0  0  0  0  0  0  0  0  0  0  0
  -15.0621  -21.7528  -21.5173 C   0  0  0  0  0  0  0  0  0  0  0  0
  -13.1021  -19.4911  -17.8004 C   0  0  0  0  0  0  0  0  0  0  0  0
  -14.2412  -19.2654  -19.9557 C   0  0  0  0  0  0  0  0  0  0  0  0
  -16.8736  -22.5589  -22.9009 C   0  0  0  0  0  0  0  0  0  0  0  0
  -13.6589  -18.1366  -19.5077 C   0  0  0  0  0  0  0  0  0  0  0  0
  -15.7456  -22.8064  -22.1294 C   0  0  0  0  0  0  0  0  0  0  0  0
  -15.5247  -20.4417  -21.6667 C   0  0  0  0  0  0  0  0  0  0  0  0
  -17.1203  -24.5518  -23.3201 H   0  0  0  0  0  0  0  0  0  0  0  0
  -14.1208  -16.8562  -21.0132 H   0  0  0  0  0  0  0  0  0  0  0  0
  -13.1956  -16.1718  -19.7187 H   0  0  0  0  0  0  0  0  0  0  0  0
  -14.1735  -25.3420  -20.9671 H   0  0  0  0  0  0  0  0  0  0  0  0
  -13.5690  -23.8405  -21.1833 H   0  0  0  0  0  0  0  0  0  0  0  0
  -14.7691  -24.0899  -20.1043 H   0  0  0  0  0  0  0  0  0  0  0  0
  -18.1491  -21.0869  -23.6277 H   0  0  0  0  0  0  0  0  0  0  0  0
  -16.9856  -19.2912  -22.5782 H   0  0  0  0  0  0  0  0  0  0  0  0
  -14.9806  -18.4390  -21.6420 H   0  0  0  0  0  0  0  0  0  0  0  0
  -14.2432  -21.9361  -20.9733 H   0  0  0  0  0  0  0  0  0  0  0  0
  1 12  1  0  0  0  0
  1 13  1  0  0  0  0
  2 12  2  0  0  0  0
  3 14  1  0  0  0  0
  4  7  1  0  0  0  0
  4 16  1  0  0  0  0
  5 15  1  0  0  0  0
  6 12  1  0  0  0  0
  6 15  2  0  0  0  0
  8  9  1  0  0  0  0
  8 14  2  0  0  0  0
  9 17  2  0  0  0  0
 10 13  2  0  0  0  0
 10 17  1  0  0  0  0
 11 16  2  0  0  0  0
 11 17  1  0  0  0  0
 13 15  1  0  0  0  0
 14 16  1  0  0  0  0
  3 18  1  0  0  0  0
  5 19  1  0  0  0  0
  5 20  1  0  0  0  0
  7 21  1  0  0  0  0
  7 22  1  0  0  0  0
  7 23  1  0  0  0  0
  8 24  1  0  0  0  0
  9 25  1  0  0  0  0
 10 26  1  0  0  0  0
 11 27  1  0  0  0  0
M  END
> <pdb_id>
5O97

> <uniprot_id>
O60885

> <usmiles>
S1/C(/C(=NC1=O)N)=C\c2cc(OC)c(O)cc2

$$$$
9OF_A_807
          07202416203D 1   1.00000     0.00000     0
            
 36 38  0  0  0  0            999 V2000
   -1.3286   -1.7992   26.9394 O   0  0  0  0  0  0  0  0  0  0  0  0
   -8.6136   -3.2578   31.6372 N   0  0  0  0  0  0  0  0  0  0  0  0
   -8.8675   -1.2640   30.5365 N   0  0  0  0  0  0  0  0  0  0  0  0
   -7.1730   -0.3553   29.1547 N   0  0  0  0  0  0  0  0  0  0  0  0
   -1.1565   -1.0669   25.7392 C   0  0  0  0  0  0  0  0  0  0  0  0
   -6.0737   -4.7071   29.5533 C   0  0  0  0  0  0  0  0  0  0  0  0
   -5.9338   -4.2633   31.9786 C   0  0  0  0  0  0  0  0  0  0  0  0
   -8.3722   -0.3344   29.7331 C   0  0  0  0  0  0  0  0  0  0  0  0
   -3.5398   -0.7523   26.9949 C   0  0  0  0  0  0  0  0  0  0  0  0
   -4.7731   -0.6678   27.6333 C   0  0  0  0  0  0  0  0  0  0  0  0
   -2.8613   -2.3965   28.6057 C   0  0  0  0  0  0  0  0  0  0  0  0
   -4.3592   -3.1503   30.4775 C   0  0  0  0  0  0  0  0  0  0  0  0
   -8.0460   -2.3040   30.8052 C   0  0  0  0  0  0  0  0  0  0  0  0
   -2.6027   -1.6252   27.4906 C   0  0  0  0  0  0  0  0  0  0  0  0
   -6.3536   -1.4106   29.4390 C   0  0  0  0  0  0  0  0  0  0  0  0
   -4.0881   -2.3163   29.2577 C   0  0  0  0  0  0  0  0  0  0  0  0
   -5.0565   -1.4433   28.7676 C   0  0  0  0  0  0  0  0  0  0  0  0
   -6.7532   -2.4522   30.2897 C   0  0  0  0  0  0  0  0  0  0  0  0
   -5.8144   -3.6290   30.5765 C   0  0  0  0  0  0  0  0  0  0  0  0
   -8.0900   -4.0687   31.8986 H   0  0  0  0  0  0  0  0  0  0  0  0
   -9.5465   -3.1345   31.9757 H   0  0  0  0  0  0  0  0  0  0  0  0
   -0.2348   -1.2217   25.3835 H   0  0  0  0  0  0  0  0  0  0  0  0
   -1.8294   -1.3699   25.0644 H   0  0  0  0  0  0  0  0  0  0  0  0
   -1.2837   -0.0921   25.9223 H   0  0  0  0  0  0  0  0  0  0  0  0
   -6.0016   -4.3190   28.6345 H   0  0  0  0  0  0  0  0  0  0  0  0
   -5.3991   -5.4376   29.6604 H   0  0  0  0  0  0  0  0  0  0  0  0
   -6.9922   -5.0794   29.6868 H   0  0  0  0  0  0  0  0  0  0  0  0
   -5.7656   -3.5660   32.6754 H   0  0  0  0  0  0  0  0  0  0  0  0
   -6.8532   -4.6384   32.0976 H   0  0  0  0  0  0  0  0  0  0  0  0
   -5.2601   -4.9965   32.0712 H   0  0  0  0  0  0  0  0  0  0  0  0
   -8.9532    0.4571   29.5432 H   0  0  0  0  0  0  0  0  0  0  0  0
   -3.3402   -0.1898   26.1926 H   0  0  0  0  0  0  0  0  0  0  0  0
   -5.4691   -0.0440   27.2778 H   0  0  0  0  0  0  0  0  0  0  0  0
   -2.1589   -3.0200   28.9490 H   0  0  0  0  0  0  0  0  0  0  0  0
   -4.1492   -2.6040   31.2883 H   0  0  0  0  0  0  0  0  0  0  0  0
   -3.7626   -3.9524   30.4523 H   0  0  0  0  0  0  0  0  0  0  0  0
  1  5  1  0  0  0  0
  1 14  1  0  0  0  0
  2 13  1  0  0  0  0
  3  8  1  0  0  0  0
  3 13  2  0  0  0  0
  4  8  2  0  0  0  0
  4 15  1  0  0  0  0
  6 19  1  0  0  0  0
  7 19  1  0  0  0  0
  9 10  1  0  0  0  0
  9 14  2  0  0  0  0
 10 17  2  0  0  0  0
 11 14  1  0  0  0  0
 11 16  2  0  0  0  0
 12 16  1  0  0  0  0
 12 19  1  0  0  0  0
 13 18  1  0  0  0  0
 15 17  1  0  0  0  0
 15 18  2  0  0  0  0
 16 17  1  0  0  0  0
 18 19  1  0  0  0  0
  2 20  1  0  0  0  0
  2 21  1  0  0  0  0
  5 22  1  0  0  0  0
  5 23  1  0  0  0  0
  5 24  1  0  0  0  0
  6 25  1  0  0  0  0
  6 26  1  0  0  0  0
  6 27  1  0  0  0  0
  7 28  1  0  0  0  0
  7 29  1  0  0  0  0
  7 30  1  0  0  0  0
  8 31  1  0  0  0  0
  9 32  1  0  0  0  0
 10 33  1  0  0  0  0
 11 34  1  0  0  0  0
 12 35  1  0  0  0  0
 12 36  1  0  0  0  0
M  END
> <pdb_id>
6A1F

> <uniprot_id>
Q13627

> <usmiles>
O(c1cc2c(c3ncnc(N)c3C(C2)(C)C)cc1)C

$$$$
9OL_A_801
          07202416203D 1   1.00000     0.00000     0
            
 51 54  0  0  0  0            999 V2000
   -8.3559   -2.9862   31.8492 N   0  0  0  0  0  0  0  0  0  0  0  0
    2.2418   -0.5919   26.8633 N   0  0  0  0  0  0  0  0  0  0  0  0
   -8.6299   -1.0864   30.5642 N   0  0  0  0  0  0  0  0  0  0  0  0
   -7.0601   -0.3916   28.9282 N   0  0  0  0  0  0  0  0  0  0  0  0
   -1.9662   -2.7405   24.8304 C   0  0  0  0  0  0  0  0  0  0  0  0
   -6.1081   -4.7973   29.7798 C   0  0  0  0  0  0  0  0  0  0  0  0
   -5.6698   -3.8950   31.9876 C   0  0  0  0  0  0  0  0  0  0  0  0
   -8.1873   -0.2632   29.6202 C   0  0  0  0  0  0  0  0  0  0  0  0
    1.1304    0.3684   26.8778 C   0  0  0  0  0  0  0  0  0  0  0  0
    2.0488   -1.6875   25.9088 C   0  0  0  0  0  0  0  0  0  0  0  0
   -0.2321   -0.2757   27.1063 C   0  0  0  0  0  0  0  0  0  0  0  0
    0.7346   -2.4195   26.1505 C   0  0  0  0  0  0  0  0  0  0  0  0
   -3.9029   -1.0187   26.4697 C   0  0  0  0  0  0  0  0  0  0  0  0
   -5.0148   -0.8648   27.2693 C   0  0  0  0  0  0  0  0  0  0  0  0
   -3.0020   -2.6041   28.0290 C   0  0  0  0  0  0  0  0  0  0  0  0
   -4.2580   -3.2090   30.1319 C   0  0  0  0  0  0  0  0  0  0  0  0
   -7.8509   -2.1408   30.8626 C   0  0  0  0  0  0  0  0  0  0  0  0
   -6.3033   -1.4450   29.2594 C   0  0  0  0  0  0  0  0  0  0  0  0
   -0.4055   -1.4253   26.1359 C   0  0  0  0  0  0  0  0  0  0  0  0
   -2.8887   -1.8832   26.8376 C   0  0  0  0  0  0  0  0  0  0  0  0
   -4.1201   -2.4509   28.8431 C   0  0  0  0  0  0  0  0  0  0  0  0
   -1.7493   -2.0235   25.9356 C   0  0  0  0  0  0  0  0  0  0  0  0
   -5.1227   -1.5801   28.4594 C   0  0  0  0  0  0  0  0  0  0  0  0
   -6.6372   -2.3781   30.2334 C   0  0  0  0  0  0  0  0  0  0  0  0
   -5.6988   -3.5469   30.5207 C   0  0  0  0  0  0  0  0  0  0  0  0
   -7.8370   -3.7939   32.1292 H   0  0  0  0  0  0  0  0  0  0  0  0
   -9.2372   -2.7851   32.2769 H   0  0  0  0  0  0  0  0  0  0  0  0
    2.3364   -0.9818   27.7792 H   0  0  0  0  0  0  0  0  0  0  0  0
   -2.8624   -3.1545   24.6709 H   0  0  0  0  0  0  0  0  0  0  0  0
   -1.2325   -2.8637   24.1622 H   0  0  0  0  0  0  0  0  0  0  0  0
   -6.1396   -4.6080   28.7984 H   0  0  0  0  0  0  0  0  0  0  0  0
   -5.4436   -5.5230   29.9581 H   0  0  0  0  0  0  0  0  0  0  0  0
   -7.0122   -5.0890   30.0922 H   0  0  0  0  0  0  0  0  0  0  0  0
   -5.4017   -3.0895   32.5161 H   0  0  0  0  0  0  0  0  0  0  0  0
   -6.5784   -4.1962   32.2767 H   0  0  0  0  0  0  0  0  0  0  0  0
   -5.0099   -4.6302   32.1427 H   0  0  0  0  0  0  0  0  0  0  0  0
   -8.7579    0.5306   29.4099 H   0  0  0  0  0  0  0  0  0  0  0  0
    1.1117    0.8432   25.9979 H   0  0  0  0  0  0  0  0  0  0  0  0
    1.2939    1.0296   27.6100 H   0  0  0  0  0  0  0  0  0  0  0  0
    2.8035   -2.3367   26.0034 H   0  0  0  0  0  0  0  0  0  0  0  0
    2.0455   -1.3130   24.9816 H   0  0  0  0  0  0  0  0  0  0  0  0
   -0.9522    0.4015   26.9554 H   0  0  0  0  0  0  0  0  0  0  0  0
   -0.2877   -0.6180   28.0443 H   0  0  0  0  0  0  0  0  0  0  0  0
    0.7665   -2.8774   27.0389 H   0  0  0  0  0  0  0  0  0  0  0  0
    0.5939   -3.0987   25.4302 H   0  0  0  0  0  0  0  0  0  0  0  0
   -3.8292   -0.5013   25.6172 H   0  0  0  0  0  0  0  0  0  0  0  0
   -5.7448   -0.2389   26.9947 H   0  0  0  0  0  0  0  0  0  0  0  0
   -2.2742   -3.2347   28.2988 H   0  0  0  0  0  0  0  0  0  0  0  0
   -3.8590   -2.6561   30.8633 H   0  0  0  0  0  0  0  0  0  0  0  0
   -3.7491   -4.0655   30.0460 H   0  0  0  0  0  0  0  0  0  0  0  0
   -0.2590   -0.9682   25.2587 H   0  0  0  0  0  0  0  0  0  0  0  0
  1 17  1  0  0  0  0
  2  9  1  0  0  0  0
  2 10  1  0  0  0  0
  3  8  1  0  0  0  0
  3 17  2  0  0  0  0
  4  8  2  0  0  0  0
  4 18  1  0  0  0  0
  5 22  2  0  0  0  0
  6 25  1  0  0  0  0
  7 25  1  0  0  0  0
  9 11  1  0  0  0  0
 10 12  1  0  0  0  0
 11 19  1  0  0  0  0
 12 19  1  0  0  0  0
 13 14  1  0  0  0  0
 13 20  2  0  0  0  0
 14 23  2  0  0  0  0
 15 20  1  0  0  0  0
 15 21  2  0  0  0  0
 16 21  1  0  0  0  0
 16 25  1  0  0  0  0
 17 24  1  0  0  0  0
 18 23  1  0  0  0  0
 18 24  2  0  0  0  0
 19 22  1  0  0  0  0
 20 22  1  0  0  0  0
 21 23  1  0  0  0  0
 24 25  1  0  0  0  0
  1 26  1  0  0  0  0
  1 27  1  0  0  0  0
  2 28  1  0  0  0  0
  5 29  1  0  0  0  0
  5 30  1  0  0  0  0
  6 31  1  0  0  0  0
  6 32  1  0  0  0  0
  6 33  1  0  0  0  0
  7 34  1  0  0  0  0
  7 35  1  0  0  0  0
  7 36  1  0  0  0  0
  8 37  1  0  0  0  0
  9 38  1  0  0  0  0
  9 39  1  0  0  0  0
 10 40  1  0  0  0  0
 10 41  1  0  0  0  0
 11 42  1  0  0  0  0
 11 43  1  0  0  0  0
 12 44  1  0  0  0  0
 12 45  1  0  0  0  0
 13 46  1  0  0  0  0
 14 47  1  0  0  0  0
 15 48  1  0  0  0  0
 16 49  1  0  0  0  0
 16 50  1  0  0  0  0
 19 51  1  0  0  0  0
M  END
> <pdb_id>
6A1G

> <uniprot_id>
Q13627

> <usmiles>
n1c(N)c2c(nc1)c3c(cc(cc3)C(=C)C4CCNCC4)CC2(C)C

$$$$
9PC_A_402
          07202415573D 1   1.00000     0.00000     0
            
 31 33  0  0  0  0            999 V2000
   23.2064    4.4237   17.0146 Cl  0  0  0  0  0  0  0  0  0  0  0  0
   19.5150    8.7183   19.5832 S   0  0  0  0  0  0  0  0  0  0  0  0
   17.7383   16.9181   20.6361 F   0  0  0  0  0  0  0  0  0  0  0  0
   16.4953   12.3978   20.1176 F   0  0  0  0  0  0  0  0  0  0  0  0
   15.5410   15.5001   21.9491 O   0  0  0  0  0  0  0  0  0  0  0  0
   18.9548   11.7342   19.1762 O   0  0  0  0  0  0  0  0  0  0  0  0
   14.6753   14.7236   20.0472 N   0  0  0  0  0  0  0  0  0  0  0  0
   20.2772    6.1845   19.1436 N   0  0  0  0  0  0  0  0  0  0  0  0
   21.5313    9.2624   17.9972 N   0  0  0  0  0  0  0  0  0  0  0  0
   20.2829   11.3301   18.8295 C   0  0  0  0  0  0  0  0  0  0  0  0
   21.0718    5.2488   18.5842 C   0  0  0  0  0  0  0  0  0  0  0  0
   19.3661   15.3668   19.8093 C   0  0  0  0  0  0  0  0  0  0  0  0
   19.6740   14.0596   19.4205 C   0  0  0  0  0  0  0  0  0  0  0  0
   22.3761    6.9705   17.5080 C   0  0  0  0  0  0  0  0  0  0  0  0
   22.1325    5.6305   17.7618 C   0  0  0  0  0  0  0  0  0  0  0  0
   20.5313    9.8436   18.6954 C   0  0  0  0  0  0  0  0  0  0  0  0
   20.4998    7.5097   18.9232 C   0  0  0  0  0  0  0  0  0  0  0  0
   15.7077   14.9940   20.8554 C   0  0  0  0  0  0  0  0  0  0  0  0
   18.0733   15.6608   20.2895 C   0  0  0  0  0  0  0  0  0  0  0  0
   17.4260   13.3576   20.0086 C   0  0  0  0  0  0  0  0  0  0  0  0
   18.6968   13.0428   19.5251 C   0  0  0  0  0  0  0  0  0  0  0  0
   21.5520    7.9167   18.1098 C   0  0  0  0  0  0  0  0  0  0  0  0
   17.1058   14.6620   20.3846 C   0  0  0  0  0  0  0  0  0  0  0  0
   14.8365   14.3073   19.1524 H   0  0  0  0  0  0  0  0  0  0  0  0
   13.7429   14.9379   20.3383 H   0  0  0  0  0  0  0  0  0  0  0  0
   20.8989   11.6770   19.5367 H   0  0  0  0  0  0  0  0  0  0  0  0
   20.5091   11.7547   17.9528 H   0  0  0  0  0  0  0  0  0  0  0  0
   20.9004    4.2793   18.7594 H   0  0  0  0  0  0  0  0  0  0  0  0
   20.0568   16.0873   19.7472 H   0  0  0  0  0  0  0  0  0  0  0  0
   20.5848   13.8437   19.0686 H   0  0  0  0  0  0  0  0  0  0  0  0
   23.1251    7.2508   16.9077 H   0  0  0  0  0  0  0  0  0  0  0  0
  1 15  1  0  0  0  0
  2 16  1  0  0  0  0
  2 17  1  0  0  0  0
  3 19  1  0  0  0  0
  4 20  1  0  0  0  0
  5 18  2  0  0  0  0
  6 10  1  0  0  0  0
  6 21  1  0  0  0  0
  7 18  1  0  0  0  0
  8 11  2  0  0  0  0
  8 17  1  0  0  0  0
  9 16  2  0  0  0  0
  9 22  1  0  0  0  0
 10 16  1  0  0  0  0
 11 15  1  0  0  0  0
 12 13  2  0  0  0  0
 12 19  1  0  0  0  0
 13 21  1  0  0  0  0
 14 15  2  0  0  0  0
 14 22  1  0  0  0  0
 17 22  2  0  0  0  0
 18 23  1  0  0  0  0
 19 23  2  0  0  0  0
 20 21  2  0  0  0  0
 20 23  1  0  0  0  0
  7 24  1  0  0  0  0
  7 25  1  0  0  0  0
 10 26  1  0  0  0  0
 10 27  1  0  0  0  0
 11 28  1  0  0  0  0
 12 29  1  0  0  0  0
 13 30  1  0  0  0  0
 14 31  1  0  0  0  0
M  END
> <pdb_id>
4DXD

> <uniprot_id>
P0A031

> <usmiles>
Clc1cnc2SC(=Nc2c1)COc3c(F)c(c(F)cc3)C(=O)N

$$$$
9PM_B_503
          07192423083D 1   1.00000     0.00000     0
            
 41 43  0  0  0  0            999 V2000
   16.1725   18.2350   39.4018 Cl  0  0  0  0  0  0  0  0  0  0  0  0
   19.3080   16.5736   39.4188 N   0  0  0  0  0  0  0  0  0  0  0  0
    5.1784   11.9577   31.7165 N   0  0  0  0  0  0  0  0  0  0  0  0
   12.1473   13.4019   35.7824 N   0  0  0  0  0  0  0  0  0  0  0  0
    7.2345   12.5421   32.6443 N   0  0  0  0  0  0  0  0  0  0  0  0
   18.2647   16.1466   39.1736 C   0  0  0  0  0  0  0  0  0  0  0  0
   13.0203   14.4458   36.3536 C   0  0  0  0  0  0  0  0  0  0  0  0
   11.4022   14.0310   34.6816 C   0  0  0  0  0  0  0  0  0  0  0  0
   13.2482   14.1512   37.8237 C   0  0  0  0  0  0  0  0  0  0  0  0
    7.0852   10.5695   31.3136 C   0  0  0  0  0  0  0  0  0  0  0  0
   11.2687   11.8928   33.3125 C   0  0  0  0  0  0  0  0  0  0  0  0
   15.6951   13.8545   38.1284 C   0  0  0  0  0  0  0  0  0  0  0  0
    8.4372   10.3111   31.5254 C   0  0  0  0  0  0  0  0  0  0  0  0
   16.9717   14.3189   38.4502 C   0  0  0  0  0  0  0  0  0  0  0  0
   10.5375   10.9929   32.5333 C   0  0  0  0  0  0  0  0  0  0  0  0
   14.7564   16.0256   38.5807 C   0  0  0  0  0  0  0  0  0  0  0  0
    9.2846   13.2202   33.6202 C   0  0  0  0  0  0  0  0  0  0  0  0
    6.4946   11.6936   31.8961 C   0  0  0  0  0  0  0  0  0  0  0  0
   16.0230   16.5076   38.9091 C   0  0  0  0  0  0  0  0  0  0  0  0
   10.6430   13.0210   33.8480 C   0  0  0  0  0  0  0  0  0  0  0  0
   14.5968   14.7018   38.1943 C   0  0  0  0  0  0  0  0  0  0  0  0
    8.5507   12.3184   32.8512 C   0  0  0  0  0  0  0  0  0  0  0  0
   17.1260   15.6630   38.8395 C   0  0  0  0  0  0  0  0  0  0  0  0
    9.1774   11.2034   32.2962 C   0  0  0  0  0  0  0  0  0  0  0  0
    4.6153   11.3412   31.1661 H   0  0  0  0  0  0  0  0  0  0  0  0
    4.7696   12.7691   32.1342 H   0  0  0  0  0  0  0  0  0  0  0  0
   11.5139   13.0634   36.4782 H   0  0  0  0  0  0  0  0  0  0  0  0
   12.5824   15.3394   36.2550 H   0  0  0  0  0  0  0  0  0  0  0  0
   13.8971   14.4493   35.8728 H   0  0  0  0  0  0  0  0  0  0  0  0
   12.0487   14.5140   34.0909 H   0  0  0  0  0  0  0  0  0  0  0  0
   10.7505   14.6843   35.0669 H   0  0  0  0  0  0  0  0  0  0  0  0
   13.2284   13.1638   37.9806 H   0  0  0  0  0  0  0  0  0  0  0  0
   12.5378   14.5904   38.3736 H   0  0  0  0  0  0  0  0  0  0  0  0
    6.5392    9.9527   30.7466 H   0  0  0  0  0  0  0  0  0  0  0  0
   12.2397   11.7294   33.4868 H   0  0  0  0  0  0  0  0  0  0  0  0
   15.5703   12.9028   37.8479 H   0  0  0  0  0  0  0  0  0  0  0  0
    8.8683    9.4995   31.1312 H   0  0  0  0  0  0  0  0  0  0  0  0
   17.7621   13.7080   38.4051 H   0  0  0  0  0  0  0  0  0  0  0  0
   10.9913   10.1921   32.1425 H   0  0  0  0  0  0  0  0  0  0  0  0
   13.9633   16.6332   38.6235 H   0  0  0  0  0  0  0  0  0  0  0  0
    8.8297   14.0195   34.0128 H   0  0  0  0  0  0  0  0  0  0  0  0
  1 19  1  0  0  0  0
  2  6  3  0  0  0  0
  3 18  1  0  0  0  0
  4  7  1  0  0  0  0
  4  8  1  0  0  0  0
  5 18  2  0  0  0  0
  5 22  1  0  0  0  0
  6 23  1  0  0  0  0
  7  9  1  0  0  0  0
  8 20  1  0  0  0  0
  9 21  1  0  0  0  0
 10 13  2  0  0  0  0
 10 18  1  0  0  0  0
 11 15  1  0  0  0  0
 11 20  2  0  0  0  0
 12 14  1  0  0  0  0
 12 21  2  0  0  0  0
 13 24  1  0  0  0  0
 14 23  2  0  0  0  0
 15 24  2  0  0  0  0
 16 19  2  0  0  0  0
 16 21  1  0  0  0  0
 17 20  1  0  0  0  0
 17 22  2  0  0  0  0
 19 23  1  0  0  0  0
 22 24  1  0  0  0  0
  3 25  1  0  0  0  0
  3 26  1  0  0  0  0
  4 27  1  0  0  0  0
  7 28  1  0  0  0  0
  7 29  1  0  0  0  0
  8 30  1  0  0  0  0
  8 31  1  0  0  0  0
  9 32  1  0  0  0  0
  9 33  1  0  0  0  0
 10 34  1  0  0  0  0
 11 35  1  0  0  0  0
 12 36  1  0  0  0  0
 13 37  1  0  0  0  0
 14 38  1  0  0  0  0
 15 39  1  0  0  0  0
 16 40  1  0  0  0  0
 17 41  1  0  0  0  0
M  END
> <pdb_id>
5VVG

> <uniprot_id>
P29473

> <usmiles>
Clc1c(C#N)ccc(c1)CCNCc2cc3nc(N)ccc3cc2

$$$$
9QR_A_201
          07202413363D 1   1.00000     0.00000     0
            
 59 61  0  0  0  0            999 V2000
   13.8160    5.6010   -1.5410 O   0  0  0  0  0  0  0  0  0  0  0  0
   17.0540    6.3910   -0.0590 O   0  0  0  0  0  0  0  0  0  0  0  0
   18.5210    7.5930    4.9850 N   0  0  0  0  0  0  0  0  0  0  0  0
    8.0590   -1.8730    0.8320 N   0  0  0  0  0  0  0  0  0  0  0  0
   18.8690    8.3180    0.4140 N   0  0  0  0  0  0  0  0  0  0  0  0
   11.1540    0.0650   -1.9900 N   0  0  0  0  0  0  0  0  0  0  0  0
   18.6860    7.9490    2.7150 N   0  0  0  0  0  0  0  0  0  0  0  0
    9.6140   -0.8970   -0.5870 N   0  0  0  0  0  0  0  0  0  0  0  0
   17.2090    6.3010    3.5650 N   0  0  0  0  0  0  0  0  0  0  0  0
    8.9480    0.2050    1.3400 N   0  0  0  0  0  0  0  0  0  0  0  0
   14.4550    5.4190    2.4100 C   0  0  0  0  0  0  0  0  0  0  0  0
   10.6930    1.8020    3.1490 C   0  0  0  0  0  0  0  0  0  0  0  0
   15.1380    5.3370   -2.0090 C   0  0  0  0  0  0  0  0  0  0  0  0
   15.9190    7.1330   -0.6020 C   0  0  0  0  0  0  0  0  0  0  0  0
   15.8710    4.9160    2.1490 C   0  0  0  0  0  0  0  0  0  0  0  0
    9.7020    2.2850    2.0990 C   0  0  0  0  0  0  0  0  0  0  0  0
   15.8180    6.7120   -2.0730 C   0  0  0  0  0  0  0  0  0  0  0  0
   11.6760    4.6620   -1.0990 C   0  0  0  0  0  0  0  0  0  0  0  0
   13.6040    3.2330   -0.8770 C   0  0  0  0  0  0  0  0  0  0  0  0
   10.8710    3.5910   -0.7070 C   0  0  0  0  0  0  0  0  0  0  0  0
   12.7790    2.1620   -0.4940 C   0  0  0  0  0  0  0  0  0  0  0  0
   18.1420    7.2720    3.7540 C   0  0  0  0  0  0  0  0  0  0  0  0
    8.8710   -0.8550    0.5200 C   0  0  0  0  0  0  0  0  0  0  0  0
   18.3350    7.6730    1.4560 C   0  0  0  0  0  0  0  0  0  0  0  0
   10.4240    0.1440   -0.8880 C   0  0  0  0  0  0  0  0  0  0  0  0
   13.0550    4.5000   -1.1670 C   0  0  0  0  0  0  0  0  0  0  0  0
   17.3810    6.6690    1.2290 C   0  0  0  0  0  0  0  0  0  0  0  0
   16.8000    5.9700    2.3140 C   0  0  0  0  0  0  0  0  0  0  0  0
    9.7470    1.2720    1.1080 C   0  0  0  0  0  0  0  0  0  0  0  0
   11.4060    2.3380   -0.4090 C   0  0  0  0  0  0  0  0  0  0  0  0
   10.5410    1.2740   -0.0630 C   0  0  0  0  0  0  0  0  0  0  0  0
   18.1344    7.1083    5.7696 H   0  0  0  0  0  0  0  0  0  0  0  0
   19.1931    8.3195    5.1278 H   0  0  0  0  0  0  0  0  0  0  0  0
    7.5051   -1.8340    1.6637 H   0  0  0  0  0  0  0  0  0  0  0  0
    8.0065   -2.6723    0.2333 H   0  0  0  0  0  0  0  0  0  0  0  0
   18.5842    8.0871   -0.5163 H   0  0  0  0  0  0  0  0  0  0  0  0
   19.5533    9.0314    0.5649 H   0  0  0  0  0  0  0  0  0  0  0  0
   11.7631    0.8172   -2.2413 H   0  0  0  0  0  0  0  0  0  0  0  0
   11.0962   -0.7469   -2.5709 H   0  0  0  0  0  0  0  0  0  0  0  0
   13.8068    4.6669    2.2908 H   0  0  0  0  0  0  0  0  0  0  0  0
   14.3923    5.7681    3.3450 H   0  0  0  0  0  0  0  0  0  0  0  0
   14.2375    6.1518    1.7653 H   0  0  0  0  0  0  0  0  0  0  0  0
   10.7310    2.4614    3.8998 H   0  0  0  0  0  0  0  0  0  0  0  0
   10.3993    0.9131    3.5006 H   0  0  0  0  0  0  0  0  0  0  0  0
   11.5996    1.7142    2.7363 H   0  0  0  0  0  0  0  0  0  0  0  0
   15.1124    4.9149   -2.9152 H   0  0  0  0  0  0  0  0  0  0  0  0
   15.6220    4.7346   -1.3742 H   0  0  0  0  0  0  0  0  0  0  0  0
   16.0791    8.1175   -0.5307 H   0  0  0  0  0  0  0  0  0  0  0  0
   15.0800    6.8954   -0.1124 H   0  0  0  0  0  0  0  0  0  0  0  0
   15.9305    4.5661    1.2141 H   0  0  0  0  0  0  0  0  0  0  0  0
   16.0854    4.1823    2.7938 H   0  0  0  0  0  0  0  0  0  0  0  0
    9.9836    3.1670    1.7212 H   0  0  0  0  0  0  0  0  0  0  0  0
    8.7833    2.3659    2.4855 H   0  0  0  0  0  0  0  0  0  0  0  0
   15.2627    7.3611   -2.5928 H   0  0  0  0  0  0  0  0  0  0  0  0
   16.7253    6.6427   -2.4877 H   0  0  0  0  0  0  0  0  0  0  0  0
   11.2622    5.5425   -1.3301 H   0  0  0  0  0  0  0  0  0  0  0  0
   14.5922    3.0956   -0.9449 H   0  0  0  0  0  0  0  0  0  0  0  0
    9.8826    3.7261   -0.6379 H   0  0  0  0  0  0  0  0  0  0  0  0
   13.1824    1.2718   -0.2824 H   0  0  0  0  0  0  0  0  0  0  0  0
  1 13  1  0  0  0  0
  1 26  1  0  0  0  0
  2 14  1  0  0  0  0
  2 27  1  0  0  0  0
  3 22  1  0  0  0  0
  4 23  1  0  0  0  0
  5 24  1  0  0  0  0
  6 25  1  0  0  0  0
  7 22  2  0  0  0  0
  7 24  1  0  0  0  0
  8 23  2  0  0  0  0
  8 25  1  0  0  0  0
  9 22  1  0  0  0  0
  9 28  2  0  0  0  0
 10 23  1  0  0  0  0
 10 29  2  0  0  0  0
 11 15  1  0  0  0  0
 12 16  1  0  0  0  0
 13 17  1  0  0  0  0
 14 17  1  0  0  0  0
 15 28  1  0  0  0  0
 16 29  1  0  0  0  0
 18 20  2  0  0  0  0
 18 26  1  0  0  0  0
 19 21  1  0  0  0  0
 19 26  2  0  0  0  0
 20 30  1  0  0  0  0
 21 30  2  0  0  0  0
 24 27  2  0  0  0  0
 25 31  2  0  0  0  0
 27 28  1  0  0  0  0
 29 31  1  0  0  0  0
 30 31  1  0  0  0  0
  3 32  1  0  0  0  0
  3 33  1  0  0  0  0
  4 34  1  0  0  0  0
  4 35  1  0  0  0  0
  5 36  1  0  0  0  0
  5 37  1  0  0  0  0
  6 38  1  0  0  0  0
  6 39  1  0  0  0  0
 11 40  1  0  0  0  0
 11 41  1  0  0  0  0
 11 42  1  0  0  0  0
 12 43  1  0  0  0  0
 12 44  1  0  0  0  0
 12 45  1  0  0  0  0
 13 46  1  0  0  0  0
 13 47  1  0  0  0  0
 14 48  1  0  0  0  0
 14 49  1  0  0  0  0
 15 50  1  0  0  0  0
 15 51  1  0  0  0  0
 16 52  1  0  0  0  0
 16 53  1  0  0  0  0
 17 54  1  0  0  0  0
 17 55  1  0  0  0  0
 18 56  1  0  0  0  0
 19 57  1  0  0  0  0
 20 58  1  0  0  0  0
 21 59  1  0  0  0  0
M  END
> <pdb_id>
6A7E

> <uniprot_id>
P00374

> <usmiles>
O(c1c(nc(nc1CC)N)N)CCCOc2ccc(c3c(nc(nc3CC)N)N)cc2

$$$$
9R8_A_301
          07192420423D 1   1.00000     0.00000     0
            
 62 66  0  0  0  0            999 V2000
   65.8330   34.3380   21.5410 O   0  0  0  0  0  0  0  0  0  0  0  0
   64.3100   34.2050   23.9200 O   0  0  0  0  0  0  0  0  0  0  0  0
   72.1450   39.3590   28.0530 O   0  0  0  0  0  0  0  0  0  0  0  0
   67.2300   32.4350   27.3930 N   0  0  0  0  0  0  0  0  0  0  0  0
   68.6240   32.4460   27.4610 N   0  0  0  0  0  0  0  0  0  0  0  0
   70.5180   38.6870   25.9200 N   0  0  0  0  0  0  0  0  0  0  0  0
   67.1310   36.0840   22.1910 N   0  0  0  0  0  0  0  0  0  0  0  0
   66.9450   36.7400   20.8890 C   0  0  0  0  0  0  0  0  0  0  0  0
   72.6570   29.1930   24.0440 C   0  0  0  0  0  0  0  0  0  0  0  0
   70.8360   39.9420   28.0580 C   0  0  0  0  0  0  0  0  0  0  0  0
   72.7470   39.1540   26.7600 C   0  0  0  0  0  0  0  0  0  0  0  0
   69.9100   39.0290   27.2350 C   0  0  0  0  0  0  0  0  0  0  0  0
   71.8790   38.1170   26.0210 C   0  0  0  0  0  0  0  0  0  0  0  0
   72.3730   32.7580   22.8380 C   0  0  0  0  0  0  0  0  0  0  0  0
   68.2730   37.9130   25.2540 C   0  0  0  0  0  0  0  0  0  0  0  0
   70.1480   37.5150   23.7830 C   0  0  0  0  0  0  0  0  0  0  0  0
   67.4530   37.2510   24.3420 C   0  0  0  0  0  0  0  0  0  0  0  0
   69.3420   36.8510   22.8680 C   0  0  0  0  0  0  0  0  0  0  0  0
   72.7120   31.4120   22.8800 C   0  0  0  0  0  0  0  0  0  0  0  0
   71.6630   33.3440   23.8870 C   0  0  0  0  0  0  0  0  0  0  0  0
   65.5760   33.2100   25.6460 C   0  0  0  0  0  0  0  0  0  0  0  0
   70.5960   33.2140   26.1430 C   0  0  0  0  0  0  0  0  0  0  0  0
   71.5980   31.2090   25.0220 C   0  0  0  0  0  0  0  0  0  0  0  0
   67.9540   33.8790   24.2060 C   0  0  0  0  0  0  0  0  0  0  0  0
   66.5390   34.8760   22.3910 C   0  0  0  0  0  0  0  0  0  0  0  0
   65.5130   33.8560   24.4300 C   0  0  0  0  0  0  0  0  0  0  0  0
   66.8430   32.9430   26.1860 C   0  0  0  0  0  0  0  0  0  0  0  0
   69.1230   32.9340   26.3620 C   0  0  0  0  0  0  0  0  0  0  0  0
   69.6500   37.9990   25.0090 C   0  0  0  0  0  0  0  0  0  0  0  0
   67.9650   36.7250   23.1430 C   0  0  0  0  0  0  0  0  0  0  0  0
   72.3030   30.6380   23.9600 C   0  0  0  0  0  0  0  0  0  0  0  0
   71.2560   32.5520   24.9630 C   0  0  0  0  0  0  0  0  0  0  0  0
   66.6840   34.1930   23.6990 C   0  0  0  0  0  0  0  0  0  0  0  0
   68.0220   33.3020   25.4770 C   0  0  0  0  0  0  0  0  0  0  0  0
   64.2577   34.6739   23.0383 H   0  0  0  0  0  0  0  0  0  0  0  0
   66.6151   32.1085   28.1109 H   0  0  0  0  0  0  0  0  0  0  0  0
   67.4320   37.6134   20.8832 H   0  0  0  0  0  0  0  0  0  0  0  0
   67.3060   36.1522   20.1650 H   0  0  0  0  0  0  0  0  0  0  0  0
   65.9704   36.9008   20.7329 H   0  0  0  0  0  0  0  0  0  0  0  0
   72.2787   28.8055   24.8847 H   0  0  0  0  0  0  0  0  0  0  0  0
   72.2778   28.7105   23.2545 H   0  0  0  0  0  0  0  0  0  0  0  0
   73.6520   29.0933   24.0492 H   0  0  0  0  0  0  0  0  0  0  0  0
   70.8680   40.8531   27.6470 H   0  0  0  0  0  0  0  0  0  0  0  0
   70.4983   40.0114   28.9967 H   0  0  0  0  0  0  0  0  0  0  0  0
   73.6796   38.8090   26.8658 H   0  0  0  0  0  0  0  0  0  0  0  0
   72.7655   40.0135   26.2492 H   0  0  0  0  0  0  0  0  0  0  0  0
   69.7449   38.1859   27.7468 H   0  0  0  0  0  0  0  0  0  0  0  0
   69.0417   39.5002   27.0799 H   0  0  0  0  0  0  0  0  0  0  0  0
   72.2492   37.9475   25.1076 H   0  0  0  0  0  0  0  0  0  0  0  0
   71.8552   37.2598   26.5354 H   0  0  0  0  0  0  0  0  0  0  0  0
   72.6399   33.3121   22.0495 H   0  0  0  0  0  0  0  0  0  0  0  0
   67.8814   38.3237   26.0774 H   0  0  0  0  0  0  0  0  0  0  0  0
   71.1139   37.6543   23.5647 H   0  0  0  0  0  0  0  0  0  0  0  0
   66.4792   37.1479   24.5449 H   0  0  0  0  0  0  0  0  0  0  0  0
   69.7310   36.4693   22.0296 H   0  0  0  0  0  0  0  0  0  0  0  0
   73.2457   31.0030   22.1398 H   0  0  0  0  0  0  0  0  0  0  0  0
   71.4480   34.3204   23.8684 H   0  0  0  0  0  0  0  0  0  0  0  0
   64.7432   32.9396   26.1290 H   0  0  0  0  0  0  0  0  0  0  0  0
   71.0834   32.9186   26.9647 H   0  0  0  0  0  0  0  0  0  0  0  0
   70.7006   34.2021   26.0305 H   0  0  0  0  0  0  0  0  0  0  0  0
   71.3429   30.6563   25.8153 H   0  0  0  0  0  0  0  0  0  0  0  0
   68.7821   34.0618   23.6761 H   0  0  0  0  0  0  0  0  0  0  0  0
  1 25  2  0  0  0  0
  2 26  1  0  0  0  0
  3 10  1  0  0  0  0
  3 11  1  0  0  0  0
  4  5  1  0  0  0  0
  4 27  1  0  0  0  0
  5 28  2  0  0  0  0
  6 12  1  0  0  0  0
  6 13  1  0  0  0  0
  6 29  1  0  0  0  0
  7  8  1  0  0  0  0
  7 25  1  0  0  0  0
  7 30  1  0  0  0  0
  9 31  1  0  0  0  0
 10 12  1  0  0  0  0
 11 13  1  0  0  0  0
 14 19  1  0  0  0  0
 14 20  2  0  0  0  0
 15 17  2  0  0  0  0
 15 29  1  0  0  0  0
 16 18  1  0  0  0  0
 16 29  2  0  0  0  0
 17 30  1  0  0  0  0
 18 30  2  0  0  0  0
 19 31  2  0  0  0  0
 20 32  1  0  0  0  0
 21 26  2  0  0  0  0
 21 27  1  0  0  0  0
 22 28  1  0  0  0  0
 22 32  1  0  0  0  0
 23 31  1  0  0  0  0
 23 32  2  0  0  0  0
 24 33  2  0  0  0  0
 24 34  1  0  0  0  0
 25 33  1  0  0  0  0
 26 33  1  0  0  0  0
 27 34  2  0  0  0  0
 28 34  1  0  0  0  0
  2 35  1  0  0  0  0
  4 36  1  0  0  0  0
  8 37  1  0  0  0  0
  8 38  1  0  0  0  0
  8 39  1  0  0  0  0
  9 40  1  0  0  0  0
  9 41  1  0  0  0  0
  9 42  1  0  0  0  0
 10 43  1  0  0  0  0
 10 44  1  0  0  0  0
 11 45  1  0  0  0  0
 11 46  1  0  0  0  0
 12 47  1  0  0  0  0
 12 48  1  0  0  0  0
 13 49  1  0  0  0  0
 13 50  1  0  0  0  0
 14 51  1  0  0  0  0
 15 52  1  0  0  0  0
 16 53  1  0  0  0  0
 17 54  1  0  0  0  0
 18 55  1  0  0  0  0
 19 56  1  0  0  0  0
 20 57  1  0  0  0  0
 21 58  1  0  0  0  0
 22 59  1  0  0  0  0
 22 60  1  0  0  0  0
 23 61  1  0  0  0  0
 24 62  1  0  0  0  0
M  END
> <pdb_id>
5OCI

> <uniprot_id>
P07900

> <usmiles>
O=C(N(c1ccc(N2CCOCC2)cc1)C)c3c(O)cc4NN=C(c4c3)Cc5cc(ccc5)C

$$$$
9ST_A_3101
          07212404123D 1   1.00000     0.00000     0
            
 44 46  0  0  0  0            999 V2000
    8.2170    0.9170   -3.7260 Br  0  0  0  0  0  0  0  0  0  0  0  0
    7.1130    3.6830   -4.4570 O   0  0  0  0  0  0  0  0  0  0  0  0
    5.2080    3.8020   -1.3710 N   0  0  0  0  0  0  0  0  0  0  0  0
    6.8760    0.3560   -0.9280 N   0  0  0  0  0  0  0  0  0  0  0  0
    5.7330    4.2050   -2.6670 N   0  0  0  0  0  0  0  0  0  0  0  0
    4.6700   -1.7930    1.2200 N   0  0  0  0  0  0  0  0  0  0  0  0
    5.3730    5.4850   -3.2250 C   0  0  0  0  0  0  0  0  0  0  0  0
    3.9630   -2.7460    0.9050 C   0  0  0  0  0  0  0  0  0  0  0  0
    5.5760    2.5140   -0.7700 C   0  0  0  0  0  0  0  0  0  0  0  0
    5.2740   -1.2560    0.0160 C   0  0  0  0  0  0  0  0  0  0  0  0
    5.6770   -2.1780    2.1640 C   0  0  0  0  0  0  0  0  0  0  0  0
    9.4400   -1.6420    5.6840 C   0  0  0  0  0  0  0  0  0  0  0  0
    8.9400   -0.3640    5.4710 C   0  0  0  0  0  0  0  0  0  0  0  0
    9.0140   -2.6900    4.8750 C   0  0  0  0  0  0  0  0  0  0  0  0
    7.9990   -0.1400    4.4680 C   0  0  0  0  0  0  0  0  0  0  0  0
    8.0780   -2.4680    3.8740 C   0  0  0  0  0  0  0  0  0  0  0  0
    7.1840   -0.4060    1.3380 C   0  0  0  0  0  0  0  0  0  0  0  0
    6.6710    3.3560   -3.3970 C   0  0  0  0  0  0  0  0  0  0  0  0
    7.0270    2.0630   -2.7810 C   0  0  0  0  0  0  0  0  0  0  0  0
    6.2060   -0.0530    0.3510 C   0  0  1  0  0  0  0  0  0  0  0  0
    6.5040    1.6210   -1.5050 C   0  0  0  0  0  0  0  0  0  0  0  0
    6.5150   -0.9150    2.5340 C   0  0  2  0  0  0  0  0  0  0  0  0
    7.5740   -1.1910    3.6640 C   0  0  0  0  0  0  0  0  0  0  0  0
    7.5580   -0.2306   -1.3647 H   0  0  0  0  0  0  0  0  0  0  0  0
    5.8187    5.5988   -4.1129 H   0  0  0  0  0  0  0  0  0  0  0  0
    4.3809    5.5306   -3.3417 H   0  0  0  0  0  0  0  0  0  0  0  0
    5.6698    6.2133   -2.6073 H   0  0  0  0  0  0  0  0  0  0  0  0
    3.5371   -3.1302    1.7241 H   0  0  0  0  0  0  0  0  0  0  0  0
    3.2520   -2.4389    0.2725 H   0  0  0  0  0  0  0  0  0  0  0  0
    4.5240   -3.4451    0.4618 H   0  0  0  0  0  0  0  0  0  0  0  0
    5.2073    2.2437    0.1194 H   0  0  0  0  0  0  0  0  0  0  0  0
    4.5518   -0.9482   -0.6034 H   0  0  0  0  0  0  0  0  0  0  0  0
    5.8114   -1.9727   -0.4285 H   0  0  0  0  0  0  0  0  0  0  0  0
    6.2726   -2.8714    1.7584 H   0  0  0  0  0  0  0  0  0  0  0  0
    5.2450   -2.5492    2.9859 H   0  0  0  0  0  0  0  0  0  0  0  0
   10.1023   -1.8077    6.4147 H   0  0  0  0  0  0  0  0  0  0  0  0
    9.2557    0.3966    6.0383 H   0  0  0  0  0  0  0  0  0  0  0  0
    9.3839   -3.6084    5.0151 H   0  0  0  0  0  0  0  0  0  0  0  0
    7.6290    0.7782    4.3265 H   0  0  0  0  0  0  0  0  0  0  0  0
    7.7665   -3.2281    3.3038 H   0  0  0  0  0  0  0  0  0  0  0  0
    7.7222    0.4023    1.5767 H   0  0  0  0  0  0  0  0  0  0  0  0
    7.7886   -1.1121    0.9693 H   0  0  0  0  0  0  0  0  0  0  0  0
    5.6533    0.7076    0.6916 H   0  0  0  0  0  0  0  0  0  0  0  0
    5.8864   -0.2100    2.8625 H   0  0  0  0  0  0  0  0  0  0  0  0
  1 19  1  0  0  0  0
  2 18  2  0  0  0  0
  3  5  1  0  0  0  0
  3  9  2  0  0  0  0
  4 20  1  0  0  0  0
  4 21  1  0  0  0  0
  5  7  1  0  0  0  0
  5 18  1  0  0  0  0
  6  8  1  0  0  0  0
  6 10  1  0  0  0  0
  6 11  1  0  0  0  0
  9 21  1  0  0  0  0
 10 20  1  0  0  0  0
 11 22  1  0  0  0  0
 12 13  2  0  0  0  0
 12 14  1  0  0  0  0
 13 15  1  0  0  0  0
 14 16  2  0  0  0  0
 15 23  2  0  0  0  0
 16 23  1  0  0  0  0
 17 20  1  0  0  0  0
 17 22  1  0  0  0  0
 18 19  1  0  0  0  0
 19 21  2  0  0  0  0
 22 23  1  0  0  0  0
  4 24  1  0  0  0  0
  7 25  1  0  0  0  0
  7 26  1  0  0  0  0
  7 27  1  0  0  0  0
  8 28  1  0  0  0  0
  8 29  1  0  0  0  0
  8 30  1  0  0  0  0
  9 31  1  0  0  0  0
 10 32  1  0  0  0  0
 10 33  1  0  0  0  0
 11 34  1  0  0  0  0
 11 35  1  0  0  0  0
 12 36  1  0  0  0  0
 13 37  1  0  0  0  0
 14 38  1  0  0  0  0
 15 39  1  0  0  0  0
 16 40  1  0  0  0  0
 17 41  1  0  0  0  0
 17 42  1  0  0  0  0
 20 43  1  0  0  0  0
 22 44  1  0  0  0  0
M  END
> <pdb_id>
7K6R

> <uniprot_id>
Q12830

> <usmiles>
BrC=1C(=O)N(N=CC1N[C@H]2CN(C[C@@H](c3ccccc3)C2)C)C

$$$$
9ST_A_902
          07192419583D 1   1.00000     0.00000     0
            
 44 46  0  0  0  0            999 V2000
  -18.3720   -6.2010    9.6560 Br  0  0  0  0  0  0  0  0  0  0  0  0
  -21.0010   -4.8500   10.2580 O   0  0  0  0  0  0  0  0  0  0  0  0
  -19.9890   -4.4030   13.6200 N   0  0  0  0  0  0  0  0  0  0  0  0
  -17.0010   -6.0760   12.4740 N   0  0  0  0  0  0  0  0  0  0  0  0
  -20.7070   -4.3920   12.4600 N   0  0  0  0  0  0  0  0  0  0  0  0
  -15.7650   -8.0060   15.4130 N   0  0  0  0  0  0  0  0  0  0  0  0
  -22.0220   -3.7660   12.5590 C   0  0  0  0  0  0  0  0  0  0  0  0
  -16.0110   -9.3720   15.8780 C   0  0  0  0  0  0  0  0  0  0  0  0
  -18.8210   -4.9510   13.5820 C   0  0  0  0  0  0  0  0  0  0  0  0
  -16.4320   -7.7720   14.1300 C   0  0  0  0  0  0  0  0  0  0  0  0
  -14.3120   -7.7410   15.3330 C   0  0  0  0  0  0  0  0  0  0  0  0
   -9.7630   -5.5630   14.6820 C   0  0  0  0  0  0  0  0  0  0  0  0
  -10.6000   -4.7030   15.3600 C   0  0  0  0  0  0  0  0  0  0  0  0
  -10.2880   -6.6680   14.0500 C   0  0  0  0  0  0  0  0  0  0  0  0
  -11.9630   -4.9500   15.4100 C   0  0  0  0  0  0  0  0  0  0  0  0
  -11.6520   -6.9180   14.0960 C   0  0  0  0  0  0  0  0  0  0  0  0
  -14.7440   -6.0590   13.5190 C   0  0  0  0  0  0  0  0  0  0  0  0
  -20.2870   -4.9040   11.2540 C   0  0  0  0  0  0  0  0  0  0  0  0
  -18.9720   -5.4920   11.2930 C   0  0  0  0  0  0  0  0  0  0  0  0
  -16.2380   -6.3290   13.7000 C   0  0  1  0  0  0  0  0  0  0  0  0
  -18.2280   -5.5330   12.4150 C   0  0  0  0  0  0  0  0  0  0  0  0
  -13.9990   -6.3290   14.8320 C   0  0  2  0  0  0  0  0  0  0  0  0
  -12.5080   -6.0570   14.7700 C   0  0  0  0  0  0  0  0  0  0  0  0
  -16.5711   -6.3294   11.6074 H   0  0  0  0  0  0  0  0  0  0  0  0
  -22.4761   -3.8017   11.6687 H   0  0  0  0  0  0  0  0  0  0  0  0
  -22.5739   -4.2549   13.2345 H   0  0  0  0  0  0  0  0  0  0  0  0
  -21.9169   -2.8125   12.8415 H   0  0  0  0  0  0  0  0  0  0  0  0
  -15.5492   -9.5143   16.7535 H   0  0  0  0  0  0  0  0  0  0  0  0
  -16.9943   -9.5130   15.9930 H   0  0  0  0  0  0  0  0  0  0  0  0
  -15.6575  -10.0219   15.2052 H   0  0  0  0  0  0  0  0  0  0  0  0
  -18.2909   -4.9708   14.4297 H   0  0  0  0  0  0  0  0  0  0  0  0
  -17.4094   -7.9606   14.2256 H   0  0  0  0  0  0  0  0  0  0  0  0
  -16.0414   -8.3792   13.4380 H   0  0  0  0  0  0  0  0  0  0  0  0
  -13.8997   -8.4022   14.7062 H   0  0  0  0  0  0  0  0  0  0  0  0
  -13.9152   -7.8531   16.2440 H   0  0  0  0  0  0  0  0  0  0  0  0
   -8.7795   -5.3854   14.6492 H   0  0  0  0  0  0  0  0  0  0  0  0
  -10.2225   -3.8979   15.8175 H   0  0  0  0  0  0  0  0  0  0  0  0
   -9.6837   -7.2929   13.5558 H   0  0  0  0  0  0  0  0  0  0  0  0
  -12.5608   -4.3250   15.9120 H   0  0  0  0  0  0  0  0  0  0  0  0
  -12.0225   -7.7266   13.6390 H   0  0  0  0  0  0  0  0  0  0  0  0
  -14.6099   -5.1045   13.2525 H   0  0  0  0  0  0  0  0  0  0  0  0
  -14.3834   -6.6584   12.8044 H   0  0  0  0  0  0  0  0  0  0  0  0
  -16.5857   -5.7308   14.4220 H   0  0  0  0  0  0  0  0  0  0  0  0
  -14.3760   -5.6966   15.5087 H   0  0  0  0  0  0  0  0  0  0  0  0
  1 19  1  0  0  0  0
  2 18  2  0  0  0  0
  3  5  1  0  0  0  0
  3  9  2  0  0  0  0
  4 20  1  0  0  0  0
  4 21  1  0  0  0  0
  5  7  1  0  0  0  0
  5 18  1  0  0  0  0
  6  8  1  0  0  0  0
  6 10  1  0  0  0  0
  6 11  1  0  0  0  0
  9 21  1  0  0  0  0
 10 20  1  0  0  0  0
 11 22  1  0  0  0  0
 12 13  2  0  0  0  0
 12 14  1  0  0  0  0
 13 15  1  0  0  0  0
 14 16  2  0  0  0  0
 15 23  2  0  0  0  0
 16 23  1  0  0  0  0
 17 20  1  0  0  0  0
 17 22  1  0  0  0  0
 18 19  1  0  0  0  0
 19 21  2  0  0  0  0
 22 23  1  0  0  0  0
  4 24  1  0  0  0  0
  7 25  1  0  0  0  0
  7 26  1  0  0  0  0
  7 27  1  0  0  0  0
  8 28  1  0  0  0  0
  8 29  1  0  0  0  0
  8 30  1  0  0  0  0
  9 31  1  0  0  0  0
 10 32  1  0  0  0  0
 10 33  1  0  0  0  0
 11 34  1  0  0  0  0
 11 35  1  0  0  0  0
 12 36  1  0  0  0  0
 13 37  1  0  0  0  0
 14 38  1  0  0  0  0
 15 39  1  0  0  0  0
 16 40  1  0  0  0  0
 17 41  1  0  0  0  0
 17 42  1  0  0  0  0
 20 43  1  0  0  0  0
 22 44  1  0  0  0  0
M  END
> <pdb_id>
5MLJ

> <uniprot_id>
Q92830

> <usmiles>
BrC=1C(=O)N(N=CC1N[C@H]2CN(C[C@@H](c3ccccc3)C2)C)C

$$$$
9T6_A_1201
          07202413383D 1   1.00000     0.00000     0
            
 46 50  0  0  0  0            999 V2000
   -6.5820   20.1700  -33.1740 O   0  0  0  0  0  0  0  0  0  0  0  0
   -3.5370   18.0470  -28.4180 O   0  0  0  0  0  0  0  0  0  0  0  0
   -8.4010   21.0150  -34.2370 N   0  0  0  0  0  0  0  0  0  0  0  0
   -6.7090   26.3320  -31.7820 N   0  0  0  0  0  0  0  0  0  0  0  0
   -8.0330   24.7540  -33.1100 N   0  0  0  0  0  0  0  0  0  0  0  0
   -4.9510   22.3560  -31.5230 N   0  0  0  0  0  0  0  0  0  0  0  0
   -5.5970   26.3330  -30.9980 C   0  0  0  0  0  0  0  0  0  0  0  0
   -8.0100   23.4410  -33.4110 C   0  0  0  0  0  0  0  0  0  0  0  0
   -5.1580   25.0400  -30.9900 C   0  0  0  0  0  0  0  0  0  0  0  0
   -5.1710   21.8720  -28.5020 C   0  0  0  0  0  0  0  0  0  0  0  0
   -2.8800   21.9930  -29.5200 C   0  0  0  0  0  0  0  0  0  0  0  0
   -3.3640   20.3120  -27.8040 C   0  0  0  0  0  0  0  0  0  0  0  0
   -5.3000   19.4760  -29.1960 C   0  0  0  0  0  0  0  0  0  0  0  0
   -3.0010   19.6030  -30.1830 C   0  0  0  0  0  0  0  0  0  0  0  0
   -7.2940   21.1260  -33.4390 C   0  0  0  0  0  0  0  0  0  0  0  0
   -7.0120   25.0970  -32.2950 C   0  0  0  0  0  0  0  0  0  0  0  0
   -3.6640   21.7520  -28.2300 C   0  0  3  0  0  0  0  0  0  0  0  0
   -5.6390   20.9140  -29.6030 C   0  0  2  0  0  0  0  0  0  0  0  0
   -3.3160   21.0180  -30.6350 C   0  0  1  0  0  0  0  0  0  0  0  0
   -4.8270   21.0850  -30.8910 C   0  0  3  0  0  0  0  0  0  0  0  0
   -6.0640   22.9290  -32.1210 C   0  0  0  0  0  0  0  0  0  0  0  0
   -7.0850   22.5070  -32.9590 C   0  0  0  0  0  0  0  0  0  0  0  0
   -6.0440   24.2670  -31.7950 C   0  0  0  0  0  0  0  0  0  0  0  0
   -3.8040   19.3440  -28.8970 C   0  0  3  0  0  0  0  0  0  0  0  0
   -3.8111   17.3747  -29.1057 H   0  0  0  0  0  0  0  0  0  0  0  0
   -8.9599   21.8210  -34.4316 H   0  0  0  0  0  0  0  0  0  0  0  0
   -8.6506   20.1279  -34.6252 H   0  0  0  0  0  0  0  0  0  0  0  0
   -7.2519   27.1514  -31.9660 H   0  0  0  0  0  0  0  0  0  0  0  0
   -4.1202   22.9124  -31.5375 H   0  0  0  0  0  0  0  0  0  0  0  0
   -5.1879   27.1148  -30.5274 H   0  0  0  0  0  0  0  0  0  0  0  0
   -8.7291   23.1053  -34.0194 H   0  0  0  0  0  0  0  0  0  0  0  0
   -4.3548   24.6956  -30.5040 H   0  0  0  0  0  0  0  0  0  0  0  0
   -5.3737   22.8099  -28.7837 H   0  0  0  0  0  0  0  0  0  0  0  0
   -5.6679   21.6621  -27.6599 H   0  0  0  0  0  0  0  0  0  0  0  0
   -1.9054   21.8635  -29.3374 H   0  0  0  0  0  0  0  0  0  0  0  0
   -3.0398   22.9311  -29.8273 H   0  0  0  0  0  0  0  0  0  0  0  0
   -3.8592   20.1061  -26.9600 H   0  0  0  0  0  0  0  0  0  0  0  0
   -2.3816   20.2106  -27.6473 H   0  0  0  0  0  0  0  0  0  0  0  0
   -5.5427   18.8564  -29.9425 H   0  0  0  0  0  0  0  0  0  0  0  0
   -5.8220   19.2333  -28.3783 H   0  0  0  0  0  0  0  0  0  0  0  0
   -2.0222   19.5124  -29.9993 H   0  0  0  0  0  0  0  0  0  0  0  0
   -3.2691   18.9499  -30.8912 H   0  0  0  0  0  0  0  0  0  0  0  0
   -3.3812   22.3964  -27.5195 H   0  0  0  0  0  0  0  0  0  0  0  0
   -6.6181   21.0174  -29.7781 H   0  0  0  0  0  0  0  0  0  0  0  0
   -2.8195   21.2232  -31.4784 H   0  0  0  0  0  0  0  0  0  0  0  0
   -5.0833   20.3683  -31.5395 H   0  0  0  0  0  0  0  0  0  0  0  0
  1 15  2  0  0  0  0
  2 24  1  0  0  0  0
  3 15  1  0  0  0  0
  4  7  1  0  0  0  0
  4 16  1  0  0  0  0
  5  8  1  0  0  0  0
  5 16  2  0  0  0  0
  6 20  1  0  0  0  0
  6 21  1  0  0  0  0
  7  9  2  0  0  0  0
  8 22  2  0  0  0  0
  9 23  1  0  0  0  0
 10 17  1  0  0  0  0
 10 18  1  0  0  0  0
 11 17  1  0  0  0  0
 11 19  1  0  0  0  0
 12 17  1  0  0  0  0
 12 24  1  0  0  0  0
 13 18  1  0  0  0  0
 13 24  1  0  0  0  0
 14 19  1  0  0  0  0
 14 24  1  0  0  0  0
 15 22  1  0  0  0  0
 16 23  1  0  0  0  0
 18 20  1  0  0  0  0
 19 20  1  0  0  0  0
 21 22  1  0  0  0  0
 21 23  2  0  0  0  0
  2 25  1  0  0  0  0
  3 26  1  0  0  0  0
  3 27  1  0  0  0  0
  4 28  1  0  0  0  0
  6 29  1  0  0  0  0
  7 30  1  0  0  0  0
  8 31  1  0  0  0  0
  9 32  1  0  0  0  0
 10 33  1  0  0  0  0
 10 34  1  0  0  0  0
 11 35  1  0  0  0  0
 11 36  1  0  0  0  0
 12 37  1  0  0  0  0
 12 38  1  0  0  0  0
 13 39  1  0  0  0  0
 13 40  1  0  0  0  0
 14 41  1  0  0  0  0
 14 42  1  0  0  0  0
 17 43  1  0  0  0  0
 18 44  1  0  0  0  0
 19 45  1  0  0  0  0
 20 46  1  0  0  0  0
M  END
> <pdb_id>
6AAM

> <uniprot_id>
P29597

> <usmiles>
O=C(N)c1c(NC2[C@H]3CC4(O)C[C@@H]2CC(C4)C3)c5c(nc1)NC=C5

$$$$
9U5_A_201
          07202410543D 1   1.00000     0.00000     0
            
 49 51  0  0  0  0            999 V2000
  -21.7288   -2.2432   11.9416 O   0  0  0  0  0  0  0  0  0  0  0  0
  -23.8140   -2.5676   12.6705 O   0  0  0  0  0  0  0  0  0  0  0  0
  -21.4176    5.6840   22.3856 N   0  0  0  0  0  0  0  0  0  0  0  0
  -22.3501    8.0194   22.4865 C   0  0  0  0  0  0  0  0  0  0  0  0
  -23.3742    6.2007   23.8816 C   0  0  0  0  0  0  0  0  0  0  0  0
  -17.8649    4.4753   21.0538 C   0  0  0  0  0  0  0  0  0  0  0  0
  -18.6898    2.7795   22.7041 C   0  0  0  0  0  0  0  0  0  0  0  0
  -20.3434    5.8614   23.1671 C   0  0  0  0  0  0  0  0  0  0  0  0
  -22.5788    4.4818   20.6157 C   0  0  0  0  0  0  0  0  0  0  0  0
  -22.6038    3.5379   19.6334 C   0  0  0  0  0  0  0  0  0  0  0  0
  -21.6838    1.1017   17.3796 C   0  0  0  0  0  0  0  0  0  0  0  0
  -21.5906    1.8298   18.2995 C   0  0  0  0  0  0  0  0  0  0  0  0
  -23.1503    0.0848   15.7525 C   0  0  0  0  0  0  0  0  0  0  0  0
  -20.7903   -0.3777   15.5810 C   0  0  0  0  0  0  0  0  0  0  0  0
  -23.3952   -0.6908   14.6369 C   0  0  0  0  0  0  0  0  0  0  0  0
  -21.0364   -1.1522   14.4553 C   0  0  0  0  0  0  0  0  0  0  0  0
  -19.2339    5.1517   23.0507 C   0  0  0  0  0  0  0  0  0  0  0  0
  -20.3392    2.9270   20.1469 C   0  0  0  0  0  0  0  0  0  0  0  0
  -22.6306   -2.1133   12.7808 C   0  0  0  0  0  0  0  0  0  0  0  0
  -22.6505    6.5444   22.6108 C   0  0  0  0  0  0  0  0  0  0  0  0
  -21.4230    4.7033   21.3605 C   0  0  0  0  0  0  0  0  0  0  0  0
  -21.8587    0.2455   16.2442 C   0  0  0  0  0  0  0  0  0  0  0  0
  -21.4986    2.7317   19.4046 C   0  0  0  0  0  0  0  0  0  0  0  0
  -22.3390   -1.3081   13.9741 C   0  0  0  0  0  0  0  0  0  0  0  0
  -20.2944    3.9013   21.1470 C   0  0  0  0  0  0  0  0  0  0  0  0
  -19.0387    4.0969   21.9817 C   0  0  0  0  0  0  0  0  0  0  0  0
  -20.8252   -1.8510   12.1139 H   0  0  0  0  0  0  0  0  0  0  0  0
  -23.1869    8.5443   22.6419 H   0  0  0  0  0  0  0  0  0  0  0  0
  -21.6634    8.2781   23.1659 H   0  0  0  0  0  0  0  0  0  0  0  0
  -22.0009    8.2123   21.5695 H   0  0  0  0  0  0  0  0  0  0  0  0
  -24.1735    6.7934   23.9807 H   0  0  0  0  0  0  0  0  0  0  0  0
  -23.6693    5.2458   23.8493 H   0  0  0  0  0  0  0  0  0  0  0  0
  -22.7616    6.3341   24.6606 H   0  0  0  0  0  0  0  0  0  0  0  0
  -18.0776    5.3288   20.5782 H   0  0  0  0  0  0  0  0  0  0  0  0
  -17.0347    4.5950   21.5983 H   0  0  0  0  0  0  0  0  0  0  0  0
  -17.7217    3.7470   20.3835 H   0  0  0  0  0  0  0  0  0  0  0  0
  -19.4427    2.5218   23.3097 H   0  0  0  0  0  0  0  0  0  0  0  0
  -18.5437    2.0572   22.0280 H   0  0  0  0  0  0  0  0  0  0  0  0
  -17.8568    2.9052   23.2428 H   0  0  0  0  0  0  0  0  0  0  0  0
  -20.3831    6.5669   23.8747 H   0  0  0  0  0  0  0  0  0  0  0  0
  -23.3994    5.0215   20.8040 H   0  0  0  0  0  0  0  0  0  0  0  0
  -23.4247    3.4256   19.0735 H   0  0  0  0  0  0  0  0  0  0  0  0
  -23.9129    0.5380   16.2142 H   0  0  0  0  0  0  0  0  0  0  0  0
  -19.8556   -0.2644   15.9178 H   0  0  0  0  0  0  0  0  0  0  0  0
  -24.3312   -0.8089   14.3053 H   0  0  0  0  0  0  0  0  0  0  0  0
  -20.2763   -1.6014   13.9857 H   0  0  0  0  0  0  0  0  0  0  0  0
  -18.4901    5.3190   23.6978 H   0  0  0  0  0  0  0  0  0  0  0  0
  -19.5318    2.3661   19.9635 H   0  0  0  0  0  0  0  0  0  0  0  0
  -23.2805    6.3262   21.8655 H   0  0  0  0  0  0  0  0  0  0  0  0
  1 19  1  0  0  0  0
  2 19  2  0  0  0  0
  3  8  1  0  0  0  0
  3 20  1  0  0  0  0
  3 21  1  0  0  0  0
  4 20  1  0  0  0  0
  5 20  1  0  0  0  0
  6 26  1  0  0  0  0
  7 26  1  0  0  0  0
  8 17  2  0  0  0  0
  9 10  1  0  0  0  0
  9 21  2  0  0  0  0
 10 23  2  0  0  0  0
 11 12  3  0  0  0  0
 11 22  1  0  0  0  0
 12 23  1  0  0  0  0
 13 15  1  0  0  0  0
 13 22  2  0  0  0  0
 14 16  2  0  0  0  0
 14 22  1  0  0  0  0
 15 24  2  0  0  0  0
 16 24  1  0  0  0  0
 17 26  1  0  0  0  0
 18 23  1  0  0  0  0
 18 25  2  0  0  0  0
 19 24  1  0  0  0  0
 21 25  1  0  0  0  0
 25 26  1  0  0  0  0
  1 27  1  0  0  0  0
  4 28  1  0  0  0  0
  4 29  1  0  0  0  0
  4 30  1  0  0  0  0
  5 31  1  0  0  0  0
  5 32  1  0  0  0  0
  5 33  1  0  0  0  0
  6 34  1  0  0  0  0
  6 35  1  0  0  0  0
  6 36  1  0  0  0  0
  7 37  1  0  0  0  0
  7 38  1  0  0  0  0
  7 39  1  0  0  0  0
  8 40  1  0  0  0  0
  9 41  1  0  0  0  0
 10 42  1  0  0  0  0
 13 43  1  0  0  0  0
 14 44  1  0  0  0  0
 15 45  1  0  0  0  0
 16 46  1  0  0  0  0
 17 47  1  0  0  0  0
 18 48  1  0  0  0  0
 20 49  1  0  0  0  0
M  END
> <pdb_id>
5OGB

> <uniprot_id>
P29373

> <usmiles>
O=C(O)c1ccc(C#Cc2cc3c(N(C=CC3(C)C)C(C)C)cc2)cc1

$$$$
9UG_A_1204
          07192420223D 1   1.00000     0.00000     0
            
 32 33  0  0  0  0            999 V2000
    6.2827   13.8780    8.7631 O   0  0  0  0  0  0  0  0  0  0  0  0
   10.5934   15.1469    8.2217 O   0  0  0  0  0  0  0  0  0  0  0  0
    7.2932   11.9048    8.8601 N   0  0  0  0  0  0  0  0  0  0  0  0
    8.4323   13.9209    9.3002 N   0  0  0  0  0  0  0  0  0  0  0  0
    6.0556   11.2129    8.4931 C   0  0  0  0  0  0  0  0  0  0  0  0
    9.5290   17.3376    8.2424 C   0  0  0  0  0  0  0  0  0  0  0  0
   13.6555   11.8639   10.1028 C   0  0  0  0  0  0  0  0  0  0  0  0
    8.4311   15.3846    9.3786 C   0  0  0  0  0  0  0  0  0  0  0  0
    9.8990   12.2113   10.3007 C   0  0  0  0  0  0  0  0  0  0  0  0
   11.1832   11.7272   10.4798 C   0  0  0  0  0  0  0  0  0  0  0  0
   12.0589   13.5274    9.1520 C   0  0  0  0  0  0  0  0  0  0  0  0
    7.3070   13.2479    8.9666 C   0  0  0  0  0  0  0  0  0  0  0  0
    9.3206   15.8221    8.2009 C   0  0  2  0  0  0  0  0  0  0  0  0
   10.7767   14.0178    8.9662 C   0  0  0  0  0  0  0  0  0  0  0  0
    9.6958   13.3502    9.5342 C   0  0  0  0  0  0  0  0  0  0  0  0
   12.2555   12.3875    9.9052 C   0  0  0  0  0  0  0  0  0  0  0  0
    8.1274   11.3807    9.0314 H   0  0  0  0  0  0  0  0  0  0  0  0
    6.2220   10.2274    8.4598 H   0  0  0  0  0  0  0  0  0  0  0  0
    5.3498   11.4088    9.1738 H   0  0  0  0  0  0  0  0  0  0  0  0
    5.7501   11.5299    7.5953 H   0  0  0  0  0  0  0  0  0  0  0  0
    8.6408   17.7967    8.2276 H   0  0  0  0  0  0  0  0  0  0  0  0
   10.0178   17.5840    9.0793 H   0  0  0  0  0  0  0  0  0  0  0  0
   10.0647   17.6222    7.4474 H   0  0  0  0  0  0  0  0  0  0  0  0
   14.3035   12.4558    9.6236 H   0  0  0  0  0  0  0  0  0  0  0  0
   13.8726   11.8532   11.0789 H   0  0  0  0  0  0  0  0  0  0  0  0
   13.7188   10.9353    9.7371 H   0  0  0  0  0  0  0  0  0  0  0  0
    8.8154   15.6942   10.2483 H   0  0  0  0  0  0  0  0  0  0  0  0
    7.5039   15.7451    9.2767 H   0  0  0  0  0  0  0  0  0  0  0  0
    9.1219   11.7431   10.7214 H   0  0  0  0  0  0  0  0  0  0  0  0
   11.3361   10.9019   11.0233 H   0  0  0  0  0  0  0  0  0  0  0  0
   12.8399   13.9980    8.7416 H   0  0  0  0  0  0  0  0  0  0  0  0
    8.8531   15.5901    7.3479 H   0  0  0  0  0  0  0  0  0  0  0  0
  1 12  2  0  0  0  0
  2 13  1  0  0  0  0
  2 14  1  0  0  0  0
  3  5  1  0  0  0  0
  3 12  1  0  0  0  0
  4  8  1  0  0  0  0
  4 12  1  0  0  0  0
  4 15  1  0  0  0  0
  6 13  1  0  0  0  0
  7 16  1  0  0  0  0
  8 13  1  0  0  0  0
  9 10  1  0  0  0  0
  9 15  2  0  0  0  0
 10 16  2  0  0  0  0
 11 14  2  0  0  0  0
 11 16  1  0  0  0  0
 14 15  1  0  0  0  0
  3 17  1  0  0  0  0
  5 18  1  0  0  0  0
  5 19  1  0  0  0  0
  5 20  1  0  0  0  0
  6 21  1  0  0  0  0
  6 22  1  0  0  0  0
  6 23  1  0  0  0  0
  7 24  1  0  0  0  0
  7 25  1  0  0  0  0
  7 26  1  0  0  0  0
  8 27  1  0  0  0  0
  8 28  1  0  0  0  0
  9 29  1  0  0  0  0
 10 30  1  0  0  0  0
 11 31  1  0  0  0  0
 13 32  1  0  0  0  0
M  END
> <pdb_id>
5W0Q

> <uniprot_id>
Q92793

> <usmiles>
O=C(N1c2c(O[C@@H](C1)C)cc(cc2)C)NC

$$$$
9UN_A_1226
          07192420423D 1   1.00000     0.00000     0
            
 55 58  0  0  0  0            999 V2000
   73.5714   37.5351   26.6827 O   0  5  0  0  0  0  0  0  0  0  0  0
   74.4287   35.5562   26.6557 O   0  0  0  0  0  0  0  0  0  0  0  0
   68.0292   38.5448   20.8982 O   0  0  0  0  0  0  0  0  0  0  0  0
   66.7856   32.4056   27.7217 O   0  0  0  0  0  0  0  0  0  0  0  0
   64.2920   34.2020   24.0927 O   0  0  0  0  0  0  0  0  0  0  0  0
   65.8150   34.7004   21.8225 O   0  0  0  0  0  0  0  0  0  0  0  0
   69.0039   34.4342   24.0564 O   0  0  0  0  0  0  0  0  0  0  0  0
   66.0302   35.6430   20.6953 N   0  0  0  0  0  0  0  0  0  0  0  0
   67.5113   37.4139   18.9793 N   0  0  0  0  0  0  0  0  0  0  0  0
   73.4972   36.3344   26.4650 N   0  3  0  0  0  0  0  0  0  0  0  0
   69.7627   38.6038   15.7153 N   0  0  0  0  0  0  0  0  0  0  0  0
   70.5353   39.3447   14.6588 C   0  0  0  0  0  0  0  0  0  0  0  0
   68.3142   38.9020   15.6172 C   0  0  0  0  0  0  0  0  0  0  0  0
   70.2638   39.0315   17.0211 C   0  0  0  0  0  0  0  0  0  0  0  0
   71.2835   34.4182   24.3492 C   0  0  0  0  0  0  0  0  0  0  0  0
   69.8990   35.9626   25.6946 C   0  0  0  0  0  0  0  0  0  0  0  0
   67.5264   38.0399   16.6355 C   0  0  0  0  0  0  0  0  0  0  0  0
   69.5738   38.2049   18.1133 C   0  0  0  0  0  0  0  0  0  0  0  0
   72.4202   34.9301   24.9501 C   0  0  0  0  0  0  0  0  0  0  0  0
   71.0605   36.4424   26.3031 C   0  0  0  0  0  0  0  0  0  0  0  0
   65.5098   33.3055   25.9292 C   0  0  0  0  0  0  0  0  0  0  0  0
   67.9386   33.4042   25.9387 C   0  0  0  0  0  0  0  0  0  0  0  0
   67.3492   36.1535   22.4292 C   0  0  0  0  0  0  0  0  0  0  0  0
   67.5486   37.5766   20.3089 C   0  0  0  0  0  0  0  0  0  0  0  0
   66.7312   33.0306   26.5265 C   0  0  0  0  0  0  0  0  0  0  0  0
   65.4940   33.9244   24.6841 C   0  0  0  0  0  0  0  0  0  0  0  0
   70.0539   34.9651   24.7240 C   0  0  0  0  0  0  0  0  0  0  0  0
   66.6205   35.0358   22.8309 C   0  0  0  0  0  0  0  0  0  0  0  0
   67.8846   34.0808   24.7124 C   0  0  0  0  0  0  0  0  0  0  0  0
   68.0567   38.4018   18.0532 C   0  0  0  0  0  0  0  0  0  0  0  0
   66.9806   36.4666   21.1209 C   0  0  0  0  0  0  0  0  0  0  0  0
   72.2910   35.8856   25.9283 C   0  0  0  0  0  0  0  0  0  0  0  0
   66.6712   34.3410   24.1195 C   0  0  0  0  0  0  0  0  0  0  0  0
   67.6708   32.2116   28.1446 H   0  0  0  0  0  0  0  0  0  0  0  0
   64.2661   34.6468   23.1975 H   0  0  0  0  0  0  0  0  0  0  0  0
   67.0942   36.5845   18.6075 H   0  0  0  0  0  0  0  0  0  0  0  0
   71.5080   39.1288   14.7441 H   0  0  0  0  0  0  0  0  0  0  0  0
   70.2108   39.0694   13.7539 H   0  0  0  0  0  0  0  0  0  0  0  0
   70.4008   40.3287   14.7760 H   0  0  0  0  0  0  0  0  0  0  0  0
   67.9954   38.6959   14.6920 H   0  0  0  0  0  0  0  0  0  0  0  0
   68.1611   39.8703   15.8145 H   0  0  0  0  0  0  0  0  0  0  0  0
   70.0622   40.0016   17.1566 H   0  0  0  0  0  0  0  0  0  0  0  0
   71.2523   38.8871   17.0650 H   0  0  0  0  0  0  0  0  0  0  0  0
   71.3402   33.6843   23.6722 H   0  0  0  0  0  0  0  0  0  0  0  0
   68.9965   36.3157   25.9410 H   0  0  0  0  0  0  0  0  0  0  0  0
   67.6771   37.0687   16.4510 H   0  0  0  0  0  0  0  0  0  0  0  0
   66.5493   38.2434   16.5730 H   0  0  0  0  0  0  0  0  0  0  0  0
   69.9088   38.4974   19.0089 H   0  0  0  0  0  0  0  0  0  0  0  0
   69.7861   37.2372   17.9777 H   0  0  0  0  0  0  0  0  0  0  0  0
   73.3260   34.6079   24.6749 H   0  0  0  0  0  0  0  0  0  0  0  0
   71.0155   37.1670   26.9909 H   0  0  0  0  0  0  0  0  0  0  0  0
   64.6544   33.0625   26.3866 H   0  0  0  0  0  0  0  0  0  0  0  0
   68.8133   33.1965   26.3767 H   0  0  0  0  0  0  0  0  0  0  0  0
   68.0205   36.6460   22.9832 H   0  0  0  0  0  0  0  0  0  0  0  0
   67.7974   39.3315   18.3149 H   0  0  0  0  0  0  0  0  0  0  0  0
  1 10  1  0  0  0  0
  2 10  2  0  0  0  0
  3 24  2  0  0  0  0
  4 25  1  0  0  0  0
  5 26  1  0  0  0  0
  6  8  1  0  0  0  0
  6 28  1  0  0  0  0
  7 27  1  0  0  0  0
  7 29  1  0  0  0  0
  8 31  2  0  0  0  0
  9 24  1  0  0  0  0
  9 30  1  0  0  0  0
 10 32  1  0  0  0  0
 11 12  1  0  0  0  0
 11 13  1  0  0  0  0
 11 14  1  0  0  0  0
 13 17  1  0  0  0  0
 14 18  1  0  0  0  0
 15 19  2  0  0  0  0
 15 27  1  0  0  0  0
 16 20  1  0  0  0  0
 16 27  2  0  0  0  0
 17 30  1  0  0  0  0
 18 30  1  0  0  0  0
 19 32  1  0  0  0  0
 20 32  2  0  0  0  0
 21 25  2  0  0  0  0
 21 26  1  0  0  0  0
 22 25  1  0  0  0  0
 22 29  2  0  0  0  0
 23 28  2  0  0  0  0
 23 31  1  0  0  0  0
 24 31  1  0  0  0  0
 26 33  2  0  0  0  0
 28 33  1  0  0  0  0
 29 33  1  0  0  0  0
  4 34  1  0  0  0  0
  5 35  1  0  0  0  0
  9 36  1  0  0  0  0
 12 37  1  0  0  0  0
 12 38  1  0  0  0  0
 12 39  1  0  0  0  0
 13 40  1  0  0  0  0
 13 41  1  0  0  0  0
 14 42  1  0  0  0  0
 14 43  1  0  0  0  0
 15 44  1  0  0  0  0
 16 45  1  0  0  0  0
 17 46  1  0  0  0  0
 17 47  1  0  0  0  0
 18 48  1  0  0  0  0
 18 49  1  0  0  0  0
 19 50  1  0  0  0  0
 20 51  1  0  0  0  0
 21 52  1  0  0  0  0
 22 53  1  0  0  0  0
 23 54  1  0  0  0  0
 30 55  1  0  0  0  0
M  CHG  2   1  -1  10   1
M  END
> <pdb_id>
4B7P

> <uniprot_id>
P07900

> <usmiles>
[O-][N+](=O)c1ccc(Oc2c(c(O)cc(O)c2)C=3ON=C(C(=O)NC4CCN(CC4)C)C3)cc1

$$$$
9UO_B_502
          07202414123D 1   1.00000     0.00000     0
            
 40 41  0  0  0  0            999 V2000
   35.4060   25.2120   29.4970 Cl  0  0  0  0  0  0  0  0  0  0  0  0
   33.4900   25.7640   19.6010 F   0  0  0  0  0  0  0  0  0  0  0  0
   33.8110   26.5400   21.6610 F   0  0  0  0  0  0  0  0  0  0  0  0
   35.3790   25.2980   20.6780 F   0  0  0  0  0  0  0  0  0  0  0  0
   31.1380   20.1160   21.9950 F   0  0  0  0  0  0  0  0  0  0  0  0
   29.1280   19.3670   22.5890 F   0  0  0  0  0  0  0  0  0  0  0  0
   29.4080   20.3280   20.5900 F   0  0  0  0  0  0  0  0  0  0  0  0
   31.9140   22.8150   23.3890 N   0  0  0  0  0  0  0  0  0  0  0  0
   33.3930   23.4390   25.0170 N   0  0  0  0  0  0  0  0  0  0  0  0
   31.4740   22.3180   25.5800 N   0  0  0  0  0  0  0  0  0  0  0  0
   33.8620   23.8600   27.7890 N   0  0  0  0  0  0  0  0  0  0  0  0
   33.9030   23.9870   22.7290 N   0  0  0  0  0  0  0  0  0  0  0  0
   29.8890   21.6450   23.9110 N   0  0  0  0  0  0  0  0  0  0  0  0
   33.7900   23.0420   20.4980 C   0  0  0  0  0  0  0  0  0  0  0  0
   28.0340   22.0410   22.3630 C   0  0  0  0  0  0  0  0  0  0  0  0
   32.8140   22.1170   29.6350 C   0  0  0  0  0  0  0  0  0  0  0  0
   33.7280   23.0930   30.0110 C   0  0  0  0  0  0  0  0  0  0  0  0
   32.4430   22.0480   28.2980 C   0  0  0  0  0  0  0  0  0  0  0  0
   34.2310   23.9510   29.0470 C   0  0  0  0  0  0  0  0  0  0  0  0
   33.0450   23.3980   23.7430 C   0  0  0  0  0  0  0  0  0  0  0  0
   31.1310   22.2780   24.3090 C   0  0  0  0  0  0  0  0  0  0  0  0
   32.6070   22.8960   25.9320 C   0  0  0  0  0  0  0  0  0  0  0  0
   33.4010   24.2200   21.3860 C   0  0  2  0  0  0  0  0  0  0  0  0
   29.5110   21.6960   22.5120 C   0  0  2  0  0  0  0  0  0  0  0  0
   32.9980   22.9470   27.4030 C   0  0  0  0  0  0  0  0  0  0  0  0
   34.0350   25.4900   20.8200 C   0  0  0  0  0  0  0  0  0  0  0  0
   29.7970   20.3350   21.8980 C   0  0  0  0  0  0  0  0  0  0  0  0
   34.8449   24.2335   22.9571 H   0  0  0  0  0  0  0  0  0  0  0  0
   29.3085   21.1855   24.5832 H   0  0  0  0  0  0  0  0  0  0  0  0
   33.4474   23.1958   19.5712 H   0  0  0  0  0  0  0  0  0  0  0  0
   34.7861   22.9564   20.4752 H   0  0  0  0  0  0  0  0  0  0  0  0
   33.3915   22.2017   20.8655 H   0  0  0  0  0  0  0  0  0  0  0  0
   27.7949   22.0709   21.3925 H   0  0  0  0  0  0  0  0  0  0  0  0
   27.4812   21.3449   22.8212 H   0  0  0  0  0  0  0  0  0  0  0  0
   27.8567   22.9336   22.7776 H   0  0  0  0  0  0  0  0  0  0  0  0
   32.4338   21.4821   30.3076 H   0  0  0  0  0  0  0  0  0  0  0  0
   34.0188   23.1750   30.9643 H   0  0  0  0  0  0  0  0  0  0  0  0
   31.7863   21.3608   27.9873 H   0  0  0  0  0  0  0  0  0  0  0  0
   32.4059   24.3165   21.4067 H   0  0  0  0  0  0  0  0  0  0  0  0
   30.0605   22.3900   22.0468 H   0  0  0  0  0  0  0  0  0  0  0  0
  1 19  1  0  0  0  0
  2 26  1  0  0  0  0
  3 26  1  0  0  0  0
  4 26  1  0  0  0  0
  5 27  1  0  0  0  0
  6 27  1  0  0  0  0
  7 27  1  0  0  0  0
  8 20  2  0  0  0  0
  8 21  1  0  0  0  0
  9 20  1  0  0  0  0
  9 22  2  0  0  0  0
 10 21  2  0  0  0  0
 10 22  1  0  0  0  0
 11 19  1  0  0  0  0
 11 25  2  0  0  0  0
 12 20  1  0  0  0  0
 12 23  1  0  0  0  0
 13 21  1  0  0  0  0
 13 24  1  0  0  0  0
 14 23  1  0  0  0  0
 15 24  1  0  0  0  0
 16 17  1  0  0  0  0
 16 18  2  0  0  0  0
 17 19  2  0  0  0  0
 18 25  1  0  0  0  0
 22 25  1  0  0  0  0
 23 26  1  0  0  0  0
 24 27  1  0  0  0  0
 12 28  1  0  0  0  0
 13 29  1  0  0  0  0
 14 30  1  0  0  0  0
 14 31  1  0  0  0  0
 14 32  1  0  0  0  0
 15 33  1  0  0  0  0
 15 34  1  0  0  0  0
 15 35  1  0  0  0  0
 16 36  1  0  0  0  0
 17 37  1  0  0  0  0
 18 38  1  0  0  0  0
 23 39  1  0  0  0  0
 24 40  1  0  0  0  0
M  END
> <pdb_id>
6VEI

> <uniprot_id>
O75874

> <usmiles>
Clc1nc(c2nc(nc(n2)N[C@@H](C(F)(F)F)C)N[C@@H](C(F)(F)F)C)ccc1

$$$$
9UP_A_301
          07202413303D 1   1.00000     0.00000     0
            
 31 32  0  0  0  0            999 V2000
  -26.3615  -18.4345    0.4172 O   0  0  0  0  0  0  0  0  0  0  0  0
  -27.9537  -18.5448    1.9967 O   0  0  0  0  0  0  0  0  0  0  0  0
  -32.1180  -20.5393   -1.9923 N   0  0  0  0  0  0  0  0  0  0  0  0
  -32.0734  -20.8130   -4.2434 N   0  0  0  0  0  0  0  0  0  0  0  0
  -28.4477  -17.6346   -0.0805 N   0  0  0  0  0  0  0  0  0  0  0  0
  -27.1757  -19.5392    2.6694 C   0  0  0  0  0  0  0  0  0  0  0  0
  -27.0593  -15.6293   -2.8244 C   0  0  0  0  0  0  0  0  0  0  0  0
  -27.2662  -16.1748   -1.5439 C   0  0  0  0  0  0  0  0  0  0  0  0
  -27.8542  -16.0489   -3.9006 C   0  0  0  0  0  0  0  0  0  0  0  0
  -30.5367  -18.5021   -4.6180 C   0  0  0  0  0  0  0  0  0  0  0  0
  -29.5855  -17.4951   -4.7985 C   0  0  0  0  0  0  0  0  0  0  0  0
  -29.9732  -18.6226   -2.2598 C   0  0  0  0  0  0  0  0  0  0  0  0
  -27.5316  -18.1893    0.7383 C   0  0  0  0  0  0  0  0  0  0  0  0
  -31.6593  -20.1350   -3.1869 C   0  0  0  0  0  0  0  0  0  0  0  0
  -28.2137  -17.1905   -1.3383 C   0  0  0  0  0  0  0  0  0  0  0  0
  -30.7427  -19.0775   -3.3473 C   0  0  0  0  0  0  0  0  0  0  0  0
  -28.7846  -17.0800   -3.7185 C   0  0  0  0  0  0  0  0  0  0  0  0
  -28.9775  -17.6476   -2.4358 C   0  0  0  0  0  0  0  0  0  0  0  0
  -31.8361  -20.0612   -1.1605 H   0  0  0  0  0  0  0  0  0  0  0  0
  -32.7418  -21.3187   -1.9340 H   0  0  0  0  0  0  0  0  0  0  0  0
  -31.7619  -20.5535   -5.1575 H   0  0  0  0  0  0  0  0  0  0  0  0
  -29.3795  -17.5432    0.2709 H   0  0  0  0  0  0  0  0  0  0  0  0
  -27.5712  -19.7188    3.5702 H   0  0  0  0  0  0  0  0  0  0  0  0
  -27.1751  -20.3822    2.1315 H   0  0  0  0  0  0  0  0  0  0  0  0
  -26.2370  -19.2116    2.7768 H   0  0  0  0  0  0  0  0  0  0  0  0
  -26.3460  -14.9430   -2.9667 H   0  0  0  0  0  0  0  0  0  0  0  0
  -26.7314  -15.8348   -0.7703 H   0  0  0  0  0  0  0  0  0  0  0  0
  -27.7572  -15.6133   -4.7955 H   0  0  0  0  0  0  0  0  0  0  0  0
  -31.0770  -18.8181   -5.3979 H   0  0  0  0  0  0  0  0  0  0  0  0
  -29.4735  -17.0688   -5.6961 H   0  0  0  0  0  0  0  0  0  0  0  0
  -30.1380  -18.9993   -1.3482 H   0  0  0  0  0  0  0  0  0  0  0  0
  1 13  2  0  0  0  0
  2  6  1  0  0  0  0
  2 13  1  0  0  0  0
  3 14  1  0  0  0  0
  4 14  2  0  0  0  0
  5 13  1  0  0  0  0
  5 15  1  0  0  0  0
  7  8  1  0  0  0  0
  7  9  2  0  0  0  0
  8 15  2  0  0  0  0
  9 17  1  0  0  0  0
 10 11  1  0  0  0  0
 10 16  2  0  0  0  0
 11 17  2  0  0  0  0
 12 16  1  0  0  0  0
 12 18  2  0  0  0  0
 14 16  1  0  0  0  0
 15 18  1  0  0  0  0
 17 18  1  0  0  0  0
  3 19  1  0  0  0  0
  3 20  1  0  0  0  0
  4 21  1  0  0  0  0
  5 22  1  0  0  0  0
  6 23  1  0  0  0  0
  6 24  1  0  0  0  0
  6 25  1  0  0  0  0
  7 26  1  0  0  0  0
  8 27  1  0  0  0  0
  9 28  1  0  0  0  0
 10 29  1  0  0  0  0
 11 30  1  0  0  0  0
 12 31  1  0  0  0  0
M  END
> <pdb_id>
4FUG

> <uniprot_id>
P00749

> <usmiles>
O=C(OC)Nc1c2c(ccc(c2)C(=N)N)ccc1

$$$$
9V8_A_920
          07192420443D 1   1.00000     0.00000     0
            
 56 60  0  0  0  0            999 V2000
    6.8370  -25.0190   47.2390 F   0  0  0  0  0  0  0  0  0  0  0  0
    8.9180  -25.1490   46.7580 F   0  0  0  0  0  0  0  0  0  0  0  0
    7.7080  -23.6890   45.8090 F   0  0  0  0  0  0  0  0  0  0  0  0
    8.7100  -19.3370   47.2470 F   0  0  0  0  0  0  0  0  0  0  0  0
   10.2740  -19.3230   48.6660 F   0  0  0  0  0  0  0  0  0  0  0  0
    8.2960  -18.8150   49.2630 F   0  0  0  0  0  0  0  0  0  0  0  0
    8.6610  -22.7880   54.4960 O   0  0  0  0  0  0  0  0  0  0  0  0
   16.8800  -19.5890   56.0870 O   0  0  0  0  0  0  0  0  0  0  0  0
    9.8330  -22.6580   52.5560 O   0  0  0  0  0  0  0  0  0  0  0  0
   22.2250  -22.0350   53.5410 N   0  0  0  0  0  0  0  0  0  0  0  0
   21.4680  -23.1000   53.5700 N   0  0  0  0  0  0  0  0  0  0  0  0
   21.5180  -20.9930   54.0280 N   0  0  0  0  0  0  0  0  0  0  0  0
   15.6980  -21.4930   55.9680 N   0  0  0  0  0  0  0  0  0  0  0  0
   10.5800  -21.5920   54.3820 N   0  0  0  0  0  0  0  0  0  0  0  0
    8.7900  -23.3920   51.8430 C   0  0  0  0  0  0  0  0  0  0  0  0
   14.4680  -20.8960   56.4740 C   0  0  0  0  0  0  0  0  0  0  0  0
   10.5570  -21.1430   55.7770 C   0  0  0  0  0  0  0  0  0  0  0  0
   11.7390  -21.0950   53.6300 C   0  0  0  0  0  0  0  0  0  0  0  0
   19.0850  -23.4870   54.3400 C   0  0  0  0  0  0  0  0  0  0  0  0
   17.9750  -22.8580   54.8900 C   0  0  0  0  0  0  0  0  0  0  0  0
   19.1610  -20.7490   54.9490 C   0  0  0  0  0  0  0  0  0  0  0  0
    8.3390  -23.7750   49.3990 C   0  0  0  0  0  0  0  0  0  0  0  0
    8.8590  -21.5510   50.1270 C   0  0  0  0  0  0  0  0  0  0  0  0
    8.4440  -21.9810   47.7930 C   0  0  0  0  0  0  0  0  0  0  0  0
    9.6100  -22.3820   53.8630 C   0  0  0  0  0  0  0  0  0  0  0  0
   16.8240  -20.7880   55.8150 C   0  0  0  0  0  0  0  0  0  0  0  0
   20.2500  -22.7510   54.1200 C   0  0  0  0  0  0  0  0  0  0  0  0
   20.2670  -21.3860   54.3870 C   0  0  0  0  0  0  0  0  0  0  0  0
    8.6550  -22.8940   50.4290 C   0  0  0  0  0  0  0  0  0  0  0  0
   18.0020  -21.4900   55.2010 C   0  0  0  0  0  0  0  0  0  0  0  0
    8.2330  -23.3250   48.0860 C   0  0  0  0  0  0  0  0  0  0  0  0
    8.7300  -21.0880   48.8200 C   0  0  0  0  0  0  0  0  0  0  0  0
   13.2120  -21.3470   55.7440 C   0  0  1  0  0  0  0  0  0  0  0  0
   11.9510  -20.5650   56.0170 C   0  0  1  0  0  0  0  0  0  0  0  0
   12.6350  -20.4410   54.6830 C   0  0  2  0  0  0  0  0  0  0  0  0
    7.9210  -24.2890   46.9840 C   0  0  0  0  0  0  0  0  0  0  0  0
    8.9980  -19.6510   48.5050 C   0  0  0  0  0  0  0  0  0  0  0  0
   21.7263  -24.0112   53.2491 H   0  0  0  0  0  0  0  0  0  0  0  0
   15.6998  -22.4635   55.7269 H   0  0  0  0  0  0  0  0  0  0  0  0
    7.9190  -23.2682   52.3184 H   0  0  0  0  0  0  0  0  0  0  0  0
    9.0259  -24.3637   51.8270 H   0  0  0  0  0  0  0  0  0  0  0  0
   14.5422  -19.9026   56.3868 H   0  0  0  0  0  0  0  0  0  0  0  0
   14.3747  -21.1398   57.4393 H   0  0  0  0  0  0  0  0  0  0  0  0
   10.3823  -21.9114   56.3926 H   0  0  0  0  0  0  0  0  0  0  0  0
    9.8561  -20.4424   55.9112 H   0  0  0  0  0  0  0  0  0  0  0  0
   11.4536  -20.4250   52.9447 H   0  0  0  0  0  0  0  0  0  0  0  0
   12.2169  -21.8493   53.1798 H   0  0  0  0  0  0  0  0  0  0  0  0
   19.0494  -24.4581   54.1040 H   0  0  0  0  0  0  0  0  0  0  0  0
   17.1453  -23.3875   55.0667 H   0  0  0  0  0  0  0  0  0  0  0  0
   19.1962  -19.7742   55.1691 H   0  0  0  0  0  0  0  0  0  0  0  0
    8.1864  -24.7417   49.6044 H   0  0  0  0  0  0  0  0  0  0  0  0
    9.1009  -20.9113   50.8566 H   0  0  0  0  0  0  0  0  0  0  0  0
    8.3902  -21.6587   46.8479 H   0  0  0  0  0  0  0  0  0  0  0  0
   13.1067  -22.3308   55.5990 H   0  0  0  0  0  0  0  0  0  0  0  0
   12.0219  -19.7868   56.6410 H   0  0  0  0  0  0  0  0  0  0  0  0
   13.1110  -19.5911   54.4572 H   0  0  0  0  0  0  0  0  0  0  0  0
  1 36  1  0  0  0  0
  2 36  1  0  0  0  0
  3 36  1  0  0  0  0
  4 37  1  0  0  0  0
  5 37  1  0  0  0  0
  6 37  1  0  0  0  0
  7 25  2  0  0  0  0
  8 26  2  0  0  0  0
  9 15  1  0  0  0  0
  9 25  1  0  0  0  0
 10 11  1  0  0  0  0
 10 12  2  0  0  0  0
 11 27  1  0  0  0  0
 12 28  1  0  0  0  0
 13 16  1  0  0  0  0
 13 26  1  0  0  0  0
 14 17  1  0  0  0  0
 14 18  1  0  0  0  0
 14 25  1  0  0  0  0
 15 29  1  0  0  0  0
 16 33  1  0  0  0  0
 17 34  1  0  0  0  0
 18 35  1  0  0  0  0
 19 20  1  0  0  0  0
 19 27  2  0  0  0  0
 20 30  2  0  0  0  0
 21 28  2  0  0  0  0
 21 30  1  0  0  0  0
 22 29  2  0  0  0  0
 22 31  1  0  0  0  0
 23 29  1  0  0  0  0
 23 32  2  0  0  0  0
 24 31  2  0  0  0  0
 24 32  1  0  0  0  0
 26 30  1  0  0  0  0
 27 28  1  0  0  0  0
 31 36  1  0  0  0  0
 32 37  1  0  0  0  0
 33 34  1  0  0  0  0
 33 35  1  0  0  0  0
 34 35  1  0  0  0  0
 11 38  1  0  0  0  0
 13 39  1  0  0  0  0
 15 40  1  0  0  0  0
 15 41  1  0  0  0  0
 16 42  1  0  0  0  0
 16 43  1  0  0  0  0
 17 44  1  0  0  0  0
 17 45  1  0  0  0  0
 18 46  1  0  0  0  0
 18 47  1  0  0  0  0
 19 48  1  0  0  0  0
 20 49  1  0  0  0  0
 21 50  1  0  0  0  0
 22 51  1  0  0  0  0
 23 52  1  0  0  0  0
 24 53  1  0  0  0  0
 33 54  1  0  0  0  0
 34 55  1  0  0  0  0
 35 56  1  0  0  0  0
M  END
> <pdb_id>
5OHI

> <uniprot_id>
Q9R1E6

> <usmiles>
FC(F)(F)c1cc(cc(c1)COC(=O)N2C[C@H]3[C@H]([C@@H]3CNC(=O)c4cc5N=NNc5cc4)C2)C(F)(F)F

$$$$
9WG_C_401
          07202405003D 1   1.00000     0.00000     0
            
 39 42  0  0  0  0            999 V2000
  -19.4952    3.4064   42.7247 F   0  0  0  0  0  0  0  0  0  0  0  0
  -22.9572   -4.7345   40.8898 O   0  0  0  0  0  0  0  0  0  0  0  0
  -19.9723   -1.6086   38.8954 N   0  0  0  0  0  0  0  0  0  0  0  0
  -25.9370   -1.0458   41.4061 N   0  0  0  0  0  0  0  0  0  0  0  0
  -20.5644   -2.7142   38.3752 N   0  0  0  0  0  0  0  0  0  0  0  0
  -25.1653   -4.6113   41.4809 N   0  0  0  0  0  0  0  0  0  0  0  0
  -19.7916   -3.5951   37.5070 C   0  0  0  0  0  0  0  0  0  0  0  0
  -25.3613   -5.9931   41.9025 C   0  0  0  0  0  0  0  0  0  0  0  0
  -25.1451   -0.0695   40.9411 C   0  0  0  0  0  0  0  0  0  0  0  0
  -21.8340   -2.8719   38.7708 C   0  0  0  0  0  0  0  0  0  0  0  0
  -20.5292    1.3004   42.5850 C   0  0  0  0  0  0  0  0  0  0  0  0
  -19.4519    2.2733   40.6577 C   0  0  0  0  0  0  0  0  0  0  0  0
  -23.9034   -0.2853   40.3722 C   0  0  0  0  0  0  0  0  0  0  0  0
  -20.9031    0.2087   41.8169 C   0  0  0  0  0  0  0  0  0  0  0  0
  -19.8180    1.1693   39.9040 C   0  0  0  0  0  0  0  0  0  0  0  0
  -26.2106   -3.5955   41.5954 C   0  0  0  0  0  0  0  0  0  0  0  0
  -19.8205    2.3084   41.9832 C   0  0  0  0  0  0  0  0  0  0  0  0
  -23.9917   -4.1060   41.0062 C   0  0  0  0  0  0  0  0  0  0  0  0
  -25.5051   -2.3122   41.3047 C   0  0  0  0  0  0  0  0  0  0  0  0
  -20.9060   -1.0690   39.6684 C   0  0  0  0  0  0  0  0  0  0  0  0
  -20.5426    0.1219   40.4729 C   0  0  0  0  0  0  0  0  0  0  0  0
  -22.1234   -1.8349   39.6180 C   0  0  0  0  0  0  0  0  0  0  0  0
  -23.4282   -1.5939   40.2893 C   0  0  0  0  0  0  0  0  0  0  0  0
  -24.2310   -2.6497   40.7786 C   0  0  0  0  0  0  0  0  0  0  0  0
  -18.7910   -3.7590   37.9025 H   0  0  0  0  0  0  0  0  0  0  0  0
  -20.2694   -4.5703   37.4233 H   0  0  0  0  0  0  0  0  0  0  0  0
  -19.6854   -3.1784   36.5072 H   0  0  0  0  0  0  0  0  0  0  0  0
  -25.5281   -6.6467   41.0471 H   0  0  0  0  0  0  0  0  0  0  0  0
  -26.2217   -6.0859   42.5631 H   0  0  0  0  0  0  0  0  0  0  0  0
  -24.4929   -6.3706   42.4415 H   0  0  0  0  0  0  0  0  0  0  0  0
  -25.5633    0.9298   41.0469 H   0  0  0  0  0  0  0  0  0  0  0  0
  -22.4804   -3.6865   38.4490 H   0  0  0  0  0  0  0  0  0  0  0  0
  -20.7770    1.3408   43.6436 H   0  0  0  0  0  0  0  0  0  0  0  0
  -18.9189    3.0927   40.1822 H   0  0  0  0  0  0  0  0  0  0  0  0
  -23.3123    0.5331   39.9698 H   0  0  0  0  0  0  0  0  0  0  0  0
  -21.4789   -0.5979   42.2686 H   0  0  0  0  0  0  0  0  0  0  0  0
  -19.5795    1.1432   38.8428 H   0  0  0  0  0  0  0  0  0  0  0  0
  -26.6581   -3.5994   42.5879 H   0  0  0  0  0  0  0  0  0  0  0  0
  -27.0295   -3.7738   40.9009 H   0  0  0  0  0  0  0  0  0  0  0  0
  1 17  1  0  0  0  0
  2 18  2  0  0  0  0
  3  5  1  0  0  0  0
  3 20  2  0  0  0  0
  4  9  2  0  0  0  0
  4 19  1  0  0  0  0
  5  7  1  0  0  0  0
  5 10  1  0  0  0  0
  6  8  1  0  0  0  0
  6 16  1  0  0  0  0
  6 18  1  0  0  0  0
  7 25  1  0  0  0  0
  7 26  1  0  0  0  0
  7 27  1  0  0  0  0
  8 28  1  0  0  0  0
  8 29  1  0  0  0  0
  8 30  1  0  0  0  0
  9 13  1  0  0  0  0
  9 31  1  0  0  0  0
 10 22  2  0  0  0  0
 10 32  1  0  0  0  0
 11 14  2  0  0  0  0
 11 17  1  0  0  0  0
 11 33  1  0  0  0  0
 12 15  1  0  0  0  0
 12 17  2  0  0  0  0
 12 34  1  0  0  0  0
 13 23  2  0  0  0  0
 13 35  1  0  0  0  0
 14 21  1  0  0  0  0
 14 36  1  0  0  0  0
 15 21  2  0  0  0  0
 15 37  1  0  0  0  0
 16 19  1  0  0  0  0
 16 38  1  0  0  0  0
 16 39  1  0  0  0  0
 18 24  1  0  0  0  0
 19 24  2  0  0  0  0
 20 21  1  0  0  0  0
 20 22  1  0  0  0  0
 22 23  1  0  0  0  0
 23 24  1  0  0  0  0
M  END
> <pdb_id>
5W4W

> <uniprot_id>
P48730

> <usmiles>
Fc1ccc(cc1)C2=NN(C=C2c3c4c(ncc3)CN(C4=O)C)C

$$$$
9X0_C_601
          07202410533D 1   1.00000     0.00000     0
            
 40 42  0  0  0  0            999 V2000
  -21.9011    1.0227  -24.6600 O   0  0  0  0  0  0  0  0  0  0  0  0
  -23.1480   -2.3655  -27.9749 O   0  0  0  0  0  0  0  0  0  0  0  0
  -21.9795   -2.4092  -24.2547 O   0  0  0  0  0  0  0  0  0  0  0  0
  -21.4559   -0.1777  -22.8882 N   0  0  0  0  0  0  0  0  0  0  0  0
  -16.8879    1.4023  -21.6601 C   0  0  0  0  0  0  0  0  0  0  0  0
  -21.8057   -5.9016  -24.9190 C   0  0  0  0  0  0  0  0  0  0  0  0
  -17.3749    0.2711  -22.4555 C   0  0  0  0  0  0  0  0  0  0  0  0
  -17.6603    1.5134  -20.3829 C   0  0  0  0  0  0  0  0  0  0  0  0
  -22.2182   -5.9166  -26.2236 C   0  0  0  0  0  0  0  0  0  0  0  0
  -21.0673    0.8589  -21.9929 C   0  0  0  0  0  0  0  0  0  0  0  0
  -21.7453   -4.7053  -24.2467 C   0  0  0  0  0  0  0  0  0  0  0  0
  -18.7819    0.4559  -22.7831 C   0  0  0  0  0  0  0  0  0  0  0  0
  -19.1222    1.6393  -20.6517 C   0  0  0  0  0  0  0  0  0  0  0  0
  -22.5589   -4.7428  -26.8513 C   0  0  0  0  0  0  0  0  0  0  0  0
  -22.5411   -1.1797  -26.1718 C   0  0  0  0  0  0  0  0  0  0  0  0
  -21.8414   -0.0464  -24.1362 C   0  0  0  0  0  0  0  0  0  0  0  0
  -22.8054   -2.3708  -26.8214 C   0  0  0  0  0  0  0  0  0  0  0  0
  -22.1234   -1.2153  -24.8652 C   0  0  0  0  0  0  0  0  0  0  0  0
  -22.0649   -3.5496  -24.9007 C   0  0  0  0  0  0  0  0  0  0  0  0
  -19.6400    0.5553  -21.5418 C   0  0  0  0  0  0  0  0  0  0  0  0
  -22.5169   -3.5473  -26.1888 C   0  0  0  0  0  0  0  0  0  0  0  0
  -21.4326   -1.1095  -22.5260 H   0  0  0  0  0  0  0  0  0  0  0  0
  -16.9973    2.2459  -22.1857 H   0  0  0  0  0  0  0  0  0  0  0  0
  -15.9203    1.2642  -21.4490 H   0  0  0  0  0  0  0  0  0  0  0  0
  -21.5509   -6.7526  -24.4598 H   0  0  0  0  0  0  0  0  0  0  0  0
  -17.2660   -0.5731  -21.9307 H   0  0  0  0  0  0  0  0  0  0  0  0
  -16.8442    0.2088  -23.3008 H   0  0  0  0  0  0  0  0  0  0  0  0
  -17.3492    2.3209  -19.8817 H   0  0  0  0  0  0  0  0  0  0  0  0
  -17.4985    0.6956  -19.8306 H   0  0  0  0  0  0  0  0  0  0  0  0
  -22.2718   -6.7827  -26.7206 H   0  0  0  0  0  0  0  0  0  0  0  0
  -21.6799    0.8765  -21.2027 H   0  0  0  0  0  0  0  0  0  0  0  0
  -21.0985    1.7433  -22.4586 H   0  0  0  0  0  0  0  0  0  0  0  0
  -21.4695   -4.6806  -23.2858 H   0  0  0  0  0  0  0  0  0  0  0  0
  -19.0918   -0.3223  -23.3293 H   0  0  0  0  0  0  0  0  0  0  0  0
  -18.8826    1.2971  -23.3143 H   0  0  0  0  0  0  0  0  0  0  0  0
  -19.2921    2.5218  -21.0901 H   0  0  0  0  0  0  0  0  0  0  0  0
  -19.6122    1.5998  -19.7809 H   0  0  0  0  0  0  0  0  0  0  0  0
  -22.8426   -4.7632  -27.8099 H   0  0  0  0  0  0  0  0  0  0  0  0
  -22.6524   -0.3065  -26.6462 H   0  0  0  0  0  0  0  0  0  0  0  0
  -19.6223   -0.3165  -21.0522 H   0  0  0  0  0  0  0  0  0  0  0  0
  1 16  2  0  0  0  0
  2 17  2  0  0  0  0
  3 18  1  0  0  0  0
  3 19  1  0  0  0  0
  4 10  1  0  0  0  0
  4 16  1  0  0  0  0
  5  7  1  0  0  0  0
  5  8  1  0  0  0  0
  6  9  2  0  0  0  0
  6 11  1  0  0  0  0
  7 12  1  0  0  0  0
  8 13  1  0  0  0  0
  9 14  1  0  0  0  0
 10 20  1  0  0  0  0
 11 19  2  0  0  0  0
 12 20  1  0  0  0  0
 13 20  1  0  0  0  0
 14 21  2  0  0  0  0
 15 17  1  0  0  0  0
 15 18  2  0  0  0  0
 16 18  1  0  0  0  0
 17 21  1  0  0  0  0
 19 21  1  0  0  0  0
  4 22  1  0  0  0  0
  5 23  1  0  0  0  0
  5 24  1  0  0  0  0
  6 25  1  0  0  0  0
  7 26  1  0  0  0  0
  7 27  1  0  0  0  0
  8 28  1  0  0  0  0
  8 29  1  0  0  0  0
  9 30  1  0  0  0  0
 10 31  1  0  0  0  0
 10 32  1  0  0  0  0
 11 33  1  0  0  0  0
 12 34  1  0  0  0  0
 12 35  1  0  0  0  0
 13 36  1  0  0  0  0
 13 37  1  0  0  0  0
 14 38  1  0  0  0  0
 15 39  1  0  0  0  0
 20 40  1  0  0  0  0
M  END
> <pdb_id>
6AGT

> <uniprot_id>
W7JP72

> <usmiles>
O=C(NCC1CCCCC1)C=2Oc3c(cccc3)C(=O)C2

$$$$
9XJ_A_601
          07202405313D 1   1.00000     0.00000     0
            
 44 47  0  0  0  0            999 V2000
   23.7629  -20.4681   -0.1116 Cl  0  0  0  0  0  0  0  0  0  0  0  0
   19.2845  -21.0067    2.2064 O   0  0  0  0  0  0  0  0  0  0  0  0
   18.0221  -24.0785    2.1774 N   0  0  0  0  0  0  0  0  0  0  0  0
   13.7958  -16.7604    5.7370 N   0  0  0  0  0  0  0  0  0  0  0  0
   17.3687  -19.6677    2.1114 N   0  0  0  0  0  0  0  0  0  0  0  0
   15.7191  -23.9004    2.1697 N   0  0  0  0  0  0  0  0  0  0  0  0
   14.5479  -21.7919    2.1011 N   0  0  0  0  0  0  0  0  0  0  0  0
   16.0286  -19.8912    2.1075 N   0  0  0  0  0  0  0  0  0  0  0  0
   14.6284  -23.1274    2.1198 C   0  0  0  0  0  0  0  0  0  0  0  0
   12.8324  -17.0571    4.6733 C   0  0  0  0  0  0  0  0  0  0  0  0
   14.8087  -17.8361    5.8352 C   0  0  0  0  0  0  0  0  0  0  0  0
   20.1420  -21.5564   -1.3539 C   0  0  0  0  0  0  0  0  0  0  0  0
   15.1146  -18.7658    2.1112 C   0  0  0  0  0  0  0  0  0  0  0  0
   21.5009  -21.2817   -1.3250 C   0  0  0  0  0  0  0  0  0  0  0  0
   19.3729  -21.4479   -0.2065 C   0  0  0  0  0  0  0  0  0  0  0  0
   13.5097  -17.2785    3.3338 C   0  0  0  0  0  0  0  0  0  0  0  0
   15.5158  -18.1394    4.5283 C   0  0  0  0  0  0  0  0  0  0  0  0
   21.3342  -20.7437    1.0208 C   0  0  0  0  0  0  0  0  0  0  0  0
   22.0710  -20.8722   -0.1398 C   0  0  0  0  0  0  0  0  0  0  0  0
   17.9381  -20.8118    2.1491 C   0  0  0  0  0  0  0  0  0  0  0  0
   19.9790  -21.0427    0.9792 C   0  0  0  0  0  0  0  0  0  0  0  0
   16.9342  -23.3018    2.1764 C   0  0  0  0  0  0  0  0  0  0  0  0
   15.7602  -21.2150    2.1282 C   0  0  0  0  0  0  0  0  0  0  0  0
   14.4761  -18.4577    3.4540 C   0  0  0  0  0  0  0  0  0  0  0  0
   16.9954  -21.8854    2.1566 C   0  0  0  0  0  0  0  0  0  0  0  0
   18.9322  -23.6642    2.1823 H   0  0  0  0  0  0  0  0  0  0  0  0
   17.9259  -25.0738    2.1732 H   0  0  0  0  0  0  0  0  0  0  0  0
   13.3109  -16.6846    6.6083 H   0  0  0  0  0  0  0  0  0  0  0  0
   13.7550  -23.6135    2.0927 H   0  0  0  0  0  0  0  0  0  0  0  0
   12.1973  -16.2892    4.5902 H   0  0  0  0  0  0  0  0  0  0  0  0
   12.3257  -17.8836    4.9187 H   0  0  0  0  0  0  0  0  0  0  0  0
   14.3527  -18.6698    6.1466 H   0  0  0  0  0  0  0  0  0  0  0  0
   15.4956  -17.5608    6.5078 H   0  0  0  0  0  0  0  0  0  0  0  0
   19.7123  -21.8360   -2.2125 H   0  0  0  0  0  0  0  0  0  0  0  0
   14.3829  -18.9590    1.4575 H   0  0  0  0  0  0  0  0  0  0  0  0
   15.6203  -17.9553    1.8156 H   0  0  0  0  0  0  0  0  0  0  0  0
   22.0573  -21.3792   -2.1501 H   0  0  0  0  0  0  0  0  0  0  0  0
   18.3955  -21.6579   -0.2299 H   0  0  0  0  0  0  0  0  0  0  0  0
   14.0151  -16.4559    3.0735 H   0  0  0  0  0  0  0  0  0  0  0  0
   12.8198  -17.4799    2.6384 H   0  0  0  0  0  0  0  0  0  0  0  0
   16.1214  -18.9257    4.6507 H   0  0  0  0  0  0  0  0  0  0  0  0
   16.0540  -17.3447    4.2474 H   0  0  0  0  0  0  0  0  0  0  0  0
   21.7663  -20.4427    1.8709 H   0  0  0  0  0  0  0  0  0  0  0  0
   13.9572  -19.2607    3.7469 H   0  0  0  0  0  0  0  0  0  0  0  0
  1 19  1  0  0  0  0
  2 20  1  0  0  0  0
  2 21  1  0  0  0  0
  3 22  1  0  0  0  0
  4 10  1  0  0  0  0
  4 11  1  0  0  0  0
  5  8  1  0  0  0  0
  5 20  2  0  0  0  0
  6  9  1  0  0  0  0
  6 22  2  0  0  0  0
  7  9  2  0  0  0  0
  7 23  1  0  0  0  0
  8 13  1  0  0  0  0
  8 23  1  0  0  0  0
 10 16  1  0  0  0  0
 11 17  1  0  0  0  0
 12 14  2  0  0  0  0
 12 15  1  0  0  0  0
 13 24  1  0  0  0  0
 14 19  1  0  0  0  0
 15 21  2  0  0  0  0
 16 24  1  0  0  0  0
 17 24  1  0  0  0  0
 18 19  2  0  0  0  0
 18 21  1  0  0  0  0
 20 25  1  0  0  0  0
 22 25  1  0  0  0  0
 23 25  2  0  0  0  0
  3 26  1  0  0  0  0
  3 27  1  0  0  0  0
  4 28  1  0  0  0  0
  9 29  1  0  0  0  0
 10 30  1  0  0  0  0
 10 31  1  0  0  0  0
 11 32  1  0  0  0  0
 11 33  1  0  0  0  0
 12 34  1  0  0  0  0
 13 35  1  0  0  0  0
 13 36  1  0  0  0  0
 14 37  1  0  0  0  0
 15 38  1  0  0  0  0
 16 39  1  0  0  0  0
 16 40  1  0  0  0  0
 17 41  1  0  0  0  0
 17 42  1  0  0  0  0
 18 43  1  0  0  0  0
 24 44  1  0  0  0  0
M  END
> <pdb_id>
5W80

> <uniprot_id>
Q9BJF5

> <usmiles>
Clc1cc(OC2=NN(c3ncnc(N)c32)CC4CCNCC4)ccc1

$$$$
9XP_A_601
          07202405313D 1   1.00000     0.00000     0
            
 39 41  0  0  0  0            999 V2000
   23.5814  -20.5406   -0.2744 Cl  0  0  0  0  0  0  0  0  0  0  0  0
   18.0154  -23.8311    1.9108 N   0  0  0  0  0  0  0  0  0  0  0  0
   17.0872  -19.4818    2.5585 N   0  0  0  0  0  0  0  0  0  0  0  0
   15.7156  -23.8112    2.0328 N   0  0  0  0  0  0  0  0  0  0  0  0
   14.4071  -21.8149    2.3877 N   0  0  0  0  0  0  0  0  0  0  0  0
   19.0779  -20.6337    2.0798 N   0  0  0  0  0  0  0  0  0  0  0  0
   15.7495  -19.8325    2.6072 N   0  0  0  0  0  0  0  0  0  0  0  0
   13.6586  -18.6918    1.8890 C   0  0  0  0  0  0  0  0  0  0  0  0
   14.0986  -19.1087    4.2938 C   0  0  0  0  0  0  0  0  0  0  0  0
   15.4293  -17.4044    3.0559 C   0  0  0  0  0  0  0  0  0  0  0  0
   14.5772  -23.1248    2.1892 C   0  0  0  0  0  0  0  0  0  0  0  0
   19.9239  -21.6139   -1.4006 C   0  0  0  0  0  0  0  0  0  0  0  0
   21.2948  -21.4288   -1.3897 C   0  0  0  0  0  0  0  0  0  0  0  0
   19.1682  -21.3521   -0.2704 C   0  0  0  0  0  0  0  0  0  0  0  0
   21.1637  -20.6868    0.9013 C   0  0  0  0  0  0  0  0  0  0  0  0
   16.8831  -23.1341    2.0381 C   0  0  0  0  0  0  0  0  0  0  0  0
   21.8874  -20.9367   -0.2470 C   0  0  0  0  0  0  0  0  0  0  0  0
   17.7454  -20.5855    2.3226 C   0  0  0  0  0  0  0  0  0  0  0  0
   15.5755  -21.1558    2.3962 C   0  0  0  0  0  0  0  0  0  0  0  0
   19.7895  -20.9049    0.8897 C   0  0  0  0  0  0  0  0  0  0  0  0
   16.8564  -21.7251    2.2145 C   0  0  0  0  0  0  0  0  0  0  0  0
   14.7442  -18.7650    2.9558 C   0  0  0  0  0  0  0  0  0  0  0  0
   18.8965  -23.3581    1.9111 H   0  0  0  0  0  0  0  0  0  0  0  0
   17.9821  -24.8260    1.8152 H   0  0  0  0  0  0  0  0  0  0  0  0
   19.6535  -20.4460    2.8757 H   0  0  0  0  0  0  0  0  0  0  0  0
   12.9994  -17.9804    2.1326 H   0  0  0  0  0  0  0  0  0  0  0  0
   14.0735  -18.4734    1.0057 H   0  0  0  0  0  0  0  0  0  0  0  0
   13.1906  -19.5734    1.8287 H   0  0  0  0  0  0  0  0  0  0  0  0
   13.4300  -18.4043    4.5319 H   0  0  0  0  0  0  0  0  0  0  0  0
   13.6396  -19.9944    4.2246 H   0  0  0  0  0  0  0  0  0  0  0  0
   14.8031  -19.1527    5.0022 H   0  0  0  0  0  0  0  0  0  0  0  0
   14.7518  -16.7063    3.2874 H   0  0  0  0  0  0  0  0  0  0  0  0
   16.1314  -17.4363    3.7672 H   0  0  0  0  0  0  0  0  0  0  0  0
   15.8534  -17.1794    2.1787 H   0  0  0  0  0  0  0  0  0  0  0  0
   13.7382  -23.6676    2.1524 H   0  0  0  0  0  0  0  0  0  0  0  0
   19.4745  -21.9398   -2.2324 H   0  0  0  0  0  0  0  0  0  0  0  0
   21.8452  -21.6478   -2.1954 H   0  0  0  0  0  0  0  0  0  0  0  0
   18.1771  -21.4844   -0.2888 H   0  0  0  0  0  0  0  0  0  0  0  0
   21.6190  -20.3548    1.7274 H   0  0  0  0  0  0  0  0  0  0  0  0
  1 17  1  0  0  0  0
  2 16  1  0  0  0  0
  3  7  1  0  0  0  0
  3 18  2  0  0  0  0
  4 11  1  0  0  0  0
  4 16  2  0  0  0  0
  5 11  2  0  0  0  0
  5 19  1  0  0  0  0
  6 18  1  0  0  0  0
  6 20  1  0  0  0  0
  7 19  1  0  0  0  0
  7 22  1  0  0  0  0
  8 22  1  0  0  0  0
  9 22  1  0  0  0  0
 10 22  1  0  0  0  0
 12 13  2  0  0  0  0
 12 14  1  0  0  0  0
 13 17  1  0  0  0  0
 14 20  2  0  0  0  0
 15 17  2  0  0  0  0
 15 20  1  0  0  0  0
 16 21  1  0  0  0  0
 18 21  1  0  0  0  0
 19 21  2  0  0  0  0
  2 23  1  0  0  0  0
  2 24  1  0  0  0  0
  6 25  1  0  0  0  0
  8 26  1  0  0  0  0
  8 27  1  0  0  0  0
  8 28  1  0  0  0  0
  9 29  1  0  0  0  0
  9 30  1  0  0  0  0
  9 31  1  0  0  0  0
 10 32  1  0  0  0  0
 10 33  1  0  0  0  0
 10 34  1  0  0  0  0
 11 35  1  0  0  0  0
 12 36  1  0  0  0  0
 13 37  1  0  0  0  0
 14 38  1  0  0  0  0
 15 39  1  0  0  0  0
M  END
> <pdb_id>
5W91

> <uniprot_id>
Q9BJF5

> <usmiles>
Clc1cc(NC2=NN(c3ncnc(N)c32)C(C)(C)C)ccc1

$$$$
9XV_A_601
          07202405313D 1   1.00000     0.00000     0
            
 40 42  0  0  0  0            999 V2000
   23.6383  -20.5966   -0.4406 Cl  0  0  0  0  0  0  0  0  0  0  0  0
   17.9519  -23.9801    1.9641 N   0  0  0  0  0  0  0  0  0  0  0  0
   17.0691  -19.6589    2.4687 N   0  0  0  0  0  0  0  0  0  0  0  0
   15.6478  -23.9469    2.0663 N   0  0  0  0  0  0  0  0  0  0  0  0
   14.3440  -21.9269    2.2873 N   0  0  0  0  0  0  0  0  0  0  0  0
   15.7189  -19.9591    2.5149 N   0  0  0  0  0  0  0  0  0  0  0  0
   13.6432  -18.7831    1.8613 C   0  0  0  0  0  0  0  0  0  0  0  0
   14.1225  -19.2410    4.2524 C   0  0  0  0  0  0  0  0  0  0  0  0
   15.4629  -17.5372    3.0205 C   0  0  0  0  0  0  0  0  0  0  0  0
   14.5082  -23.2473    2.1517 C   0  0  0  0  0  0  0  0  0  0  0  0
   19.9175  -21.6709   -1.3413 C   0  0  0  0  0  0  0  0  0  0  0  0
   21.2794  -21.4434   -1.4275 C   0  0  0  0  0  0  0  0  0  0  0  0
   19.2415  -21.4453   -0.1535 C   0  0  0  0  0  0  0  0  0  0  0  0
   21.2753  -20.6857    0.8537 C   0  0  0  0  0  0  0  0  0  0  0  0
   19.2208  -20.8071    2.2984 C   0  0  0  0  0  0  0  0  0  0  0  0
   16.8195  -23.2735    2.0584 C   0  0  0  0  0  0  0  0  0  0  0  0
   21.9338  -20.9429   -0.3305 C   0  0  0  0  0  0  0  0  0  0  0  0
   15.5176  -21.2803    2.3078 C   0  0  0  0  0  0  0  0  0  0  0  0
   17.7102  -20.7539    2.2739 C   0  0  0  0  0  0  0  0  0  0  0  0
   19.9119  -20.9539    0.9605 C   0  0  0  0  0  0  0  0  0  0  0  0
   16.7945  -21.8604    2.1708 C   0  0  0  0  0  0  0  0  0  0  0  0
   14.7449  -18.8798    2.9082 C   0  0  0  0  0  0  0  0  0  0  0  0
   18.8349  -23.5107    1.9557 H   0  0  0  0  0  0  0  0  0  0  0  0
   17.9152  -24.9775    1.9020 H   0  0  0  0  0  0  0  0  0  0  0  0
   12.9968  -18.0663    2.1228 H   0  0  0  0  0  0  0  0  0  0  0  0
   14.0458  -18.5609    0.9733 H   0  0  0  0  0  0  0  0  0  0  0  0
   13.1636  -19.6584    1.8002 H   0  0  0  0  0  0  0  0  0  0  0  0
   13.4738  -18.5291    4.5214 H   0  0  0  0  0  0  0  0  0  0  0  0
   13.6439  -20.1155    4.1739 H   0  0  0  0  0  0  0  0  0  0  0  0
   14.8414  -19.3153    4.9434 H   0  0  0  0  0  0  0  0  0  0  0  0
   14.8069  -16.8292    3.2819 H   0  0  0  0  0  0  0  0  0  0  0  0
   16.1801  -17.5998    3.7147 H   0  0  0  0  0  0  0  0  0  0  0  0
   15.8722  -17.3033    2.1386 H   0  0  0  0  0  0  0  0  0  0  0  0
   13.6664  -23.7854    2.1082 H   0  0  0  0  0  0  0  0  0  0  0  0
   19.4176  -22.0005   -2.1421 H   0  0  0  0  0  0  0  0  0  0  0  0
   21.7768  -21.6398   -2.2725 H   0  0  0  0  0  0  0  0  0  0  0  0
   18.2618  -21.6378   -0.0970 H   0  0  0  0  0  0  0  0  0  0  0  0
   21.7746  -20.3078    1.6334 H   0  0  0  0  0  0  0  0  0  0  0  0
   19.4884  -21.5858    2.8658 H   0  0  0  0  0  0  0  0  0  0  0  0
   19.5480  -19.9606    2.7183 H   0  0  0  0  0  0  0  0  0  0  0  0
  1 17  1  0  0  0  0
  2 16  1  0  0  0  0
  3  6  1  0  0  0  0
  3 19  2  0  0  0  0
  4 10  1  0  0  0  0
  4 16  2  0  0  0  0
  5 10  2  0  0  0  0
  5 18  1  0  0  0  0
  6 18  1  0  0  0  0
  6 22  1  0  0  0  0
  7 22  1  0  0  0  0
  8 22  1  0  0  0  0
  9 22  1  0  0  0  0
 11 12  2  0  0  0  0
 11 13  1  0  0  0  0
 12 17  1  0  0  0  0
 13 20  2  0  0  0  0
 14 17  2  0  0  0  0
 14 20  1  0  0  0  0
 15 19  1  0  0  0  0
 15 20  1  0  0  0  0
 16 21  1  0  0  0  0
 18 21  2  0  0  0  0
 19 21  1  0  0  0  0
  2 23  1  0  0  0  0
  2 24  1  0  0  0  0
  7 25  1  0  0  0  0
  7 26  1  0  0  0  0
  7 27  1  0  0  0  0
  8 28  1  0  0  0  0
  8 29  1  0  0  0  0
  8 30  1  0  0  0  0
  9 31  1  0  0  0  0
  9 32  1  0  0  0  0
  9 33  1  0  0  0  0
 10 34  1  0  0  0  0
 11 35  1  0  0  0  0
 12 36  1  0  0  0  0
 13 37  1  0  0  0  0
 14 38  1  0  0  0  0
 15 39  1  0  0  0  0
 15 40  1  0  0  0  0
M  END
> <pdb_id>
5W8R

> <uniprot_id>
Q9BJF5

> <usmiles>
Clc1cc(ccc1)CC2=NN(c3ncnc(N)c32)C(C)(C)C

$$$$
9Y2_A_1201
          07202406043D 1   1.00000     0.00000     0
            
 41 42  0  0  0  0            999 V2000
   -0.9939    2.3736   19.2394 S   0  0  0  0  0  0  0  0  0  0  0  0
   -1.6587    9.2982   15.8254 F   0  0  0  0  0  0  0  0  0  0  0  0
   -5.8821    7.2497   15.9133 F   0  0  0  0  0  0  0  0  0  0  0  0
   -3.8604   11.0547   16.5221 O   0  0  0  0  0  0  0  0  0  0  0  0
   -2.8426    3.8805   17.9162 O   0  0  0  0  0  0  0  0  0  0  0  0
    1.0502    3.8279   19.2049 N   0  0  0  0  0  0  0  0  0  0  0  0
   -0.8690    5.0026   18.3773 N   0  0  0  0  0  0  0  0  0  0  0  0
   -4.3288    9.3589   15.1161 N   0  0  0  0  0  0  0  0  0  0  0  0
   -3.1602   11.0027   12.5555 C   0  0  0  0  0  0  0  0  0  0  0  0
   -2.5942   12.7411   14.1440 C   0  0  0  0  0  0  0  0  0  0  0  0
   -4.3128   13.1814   12.4071 C   0  0  0  0  0  0  0  0  0  0  0  0
    0.4884    1.6846   19.7930 C   0  0  0  0  0  0  0  0  0  0  0  0
    1.4621    2.6525   19.6856 C   0  0  0  0  0  0  0  0  0  0  0  0
   -1.8949    7.1689   16.8645 C   0  0  0  0  0  0  0  0  0  0  0  0
   -4.0874    6.1151   16.8886 C   0  0  0  0  0  0  0  0  0  0  0  0
   -4.8286   11.6810   14.3661 C   0  0  0  0  0  0  0  0  0  0  0  0
   -0.2425    3.8894   18.9236 C   0  0  0  0  0  0  0  0  0  0  0  0
   -4.2763   10.7214   15.4247 C   0  0  0  0  0  0  0  0  0  0  0  0
   -2.1833    4.9138   17.9129 C   0  0  0  0  0  0  0  0  0  0  0  0
   -2.4407    8.2593   16.1808 C   0  0  0  0  0  0  0  0  0  0  0  0
   -4.6011    7.2161   16.2130 C   0  0  0  0  0  0  0  0  0  0  0  0
   -3.8068    8.2836   15.8850 C   0  0  0  0  0  0  0  0  0  0  0  0
   -2.7480    6.1283   17.2369 C   0  0  0  0  0  0  0  0  0  0  0  0
   -3.7453   12.1419   13.3766 C   0  0  0  0  0  0  0  0  0  0  0  0
   -0.3770    5.8711   18.3162 H   0  0  0  0  0  0  0  0  0  0  0  0
   -4.7838    9.1139   14.2599 H   0  0  0  0  0  0  0  0  0  0  0  0
   -3.8867   10.5678   12.0235 H   0  0  0  0  0  0  0  0  0  0  0  0
   -2.4629   11.3625   11.9356 H   0  0  0  0  0  0  0  0  0  0  0  0
   -2.7463   10.3289   13.1676 H   0  0  0  0  0  0  0  0  0  0  0  0
   -2.9262   13.5000   14.7043 H   0  0  0  0  0  0  0  0  0  0  0  0
   -2.1882   12.0436   14.7345 H   0  0  0  0  0  0  0  0  0  0  0  0
   -1.9048   13.0772   13.5024 H   0  0  0  0  0  0  0  0  0  0  0  0
   -4.7040   13.9419   12.9254 H   0  0  0  0  0  0  0  0  0  0  0  0
   -3.5806   13.5217   11.8172 H   0  0  0  0  0  0  0  0  0  0  0  0
   -5.0246   12.7597   11.8454 H   0  0  0  0  0  0  0  0  0  0  0  0
    0.6169    0.7521   20.1304 H   0  0  0  0  0  0  0  0  0  0  0  0
    2.4122    2.4863   19.9494 H   0  0  0  0  0  0  0  0  0  0  0  0
   -0.9192    7.1351   17.0811 H   0  0  0  0  0  0  0  0  0  0  0  0
   -4.6698    5.3348   17.1168 H   0  0  0  0  0  0  0  0  0  0  0  0
   -5.2072   12.4842   14.8260 H   0  0  0  0  0  0  0  0  0  0  0  0
   -5.5529   11.2162   13.8569 H   0  0  0  0  0  0  0  0  0  0  0  0
  1 12  1  0  0  0  0
  1 17  1  0  0  0  0
  2 20  1  0  0  0  0
  3 21  1  0  0  0  0
  4 18  2  0  0  0  0
  5 19  2  0  0  0  0
  6 13  1  0  0  0  0
  6 17  2  0  0  0  0
  7 17  1  0  0  0  0
  7 19  1  0  0  0  0
  8 18  1  0  0  0  0
  8 22  1  0  0  0  0
  9 24  1  0  0  0  0
 10 24  1  0  0  0  0
 11 24  1  0  0  0  0
 12 13  2  0  0  0  0
 14 20  1  0  0  0  0
 14 23  2  0  0  0  0
 15 21  2  0  0  0  0
 15 23  1  0  0  0  0
 16 18  1  0  0  0  0
 16 24  1  0  0  0  0
 19 23  1  0  0  0  0
 20 22  2  0  0  0  0
 21 22  1  0  0  0  0
  7 25  1  0  0  0  0
  8 26  1  0  0  0  0
  9 27  1  0  0  0  0
  9 28  1  0  0  0  0
  9 29  1  0  0  0  0
 10 30  1  0  0  0  0
 10 31  1  0  0  0  0
 10 32  1  0  0  0  0
 11 33  1  0  0  0  0
 11 34  1  0  0  0  0
 11 35  1  0  0  0  0
 12 36  1  0  0  0  0
 13 37  1  0  0  0  0
 14 38  1  0  0  0  0
 15 39  1  0  0  0  0
 16 40  1  0  0  0  0
 16 41  1  0  0  0  0
M  END
> <pdb_id>
5OLV

> <uniprot_id>
P29274

> <usmiles>
S1C(=NC=C1)NC(=O)c2cc(F)c(NC(=O)CC(C)(C)C)c(F)c2

$$$$
9YD_C_402
          07202406053D 1   1.00000     0.00000     0
            
 29 31  0  0  0  0            999 V2000
   40.9285   14.9308   24.7580 S   0  0  0  0  0  0  0  0  0  0  0  0
   44.8826   22.3531   21.3749 F   0  0  0  0  0  0  0  0  0  0  0  0
   44.3782   23.3072   23.9613 F   0  0  0  0  0  0  0  0  0  0  0  0
   37.8893   14.6968   28.5554 O   0  0  0  0  0  0  0  0  0  0  0  0
   38.0792   12.7031   27.6413 O   0  0  0  0  0  0  0  0  0  0  0  0
   39.8438   18.4750   27.7706 O   0  0  0  0  0  0  0  0  0  0  0  0
   41.6175   17.9431   24.6654 N   0  0  0  0  0  0  0  0  0  0  0  0
   39.6017   15.8066   26.7570 N   0  0  0  0  0  0  0  0  0  0  0  0
   40.8693   17.4790   25.7297 N   0  0  0  0  0  0  0  0  0  0  0  0
   39.9199   13.8160   25.6623 C   0  0  0  0  0  0  0  0  0  0  0  0
   43.6423   20.4160   21.8144 C   0  0  0  0  0  0  0  0  0  0  0  0
   42.8844   19.6534   22.6833 C   0  0  0  0  0  0  0  0  0  0  0  0
   43.1145   21.3425   24.4084 C   0  0  0  0  0  0  0  0  0  0  0  0
   41.1991   19.6300   26.0458 C   0  0  0  0  0  0  0  0  0  0  0  0
   40.4529   16.2145   25.8266 C   0  0  0  0  0  0  0  0  0  0  0  0
   38.3533   13.9177   27.6942 C   0  0  0  0  0  0  0  0  0  0  0  0
   44.1536   21.6486   22.2466 C   0  0  0  0  0  0  0  0  0  0  0  0
   43.8851   22.1213   23.5297 C   0  0  0  0  0  0  0  0  0  0  0  0
   40.5958   18.4938   26.5392 C   0  0  0  0  0  0  0  0  0  0  0  0
   39.2879   14.4937   26.7030 C   0  0  0  0  0  0  0  0  0  0  0  0
   41.8094   19.2460   24.8732 C   0  0  0  0  0  0  0  0  0  0  0  0
   42.6074   20.1144   23.9598 C   0  0  0  0  0  0  0  0  0  0  0  0
   38.1470   15.6630   28.5462 H   0  0  0  0  0  0  0  0  0  0  0  0
   41.9504   17.4064   23.8901 H   0  0  0  0  0  0  0  0  0  0  0  0
   39.8146   12.8421   25.4614 H   0  0  0  0  0  0  0  0  0  0  0  0
   43.8244   20.0919   20.8860 H   0  0  0  0  0  0  0  0  0  0  0  0
   42.5343   18.7642   22.3887 H   0  0  0  0  0  0  0  0  0  0  0  0
   42.9304   21.6586   25.3391 H   0  0  0  0  0  0  0  0  0  0  0  0
   41.1946   20.5428   26.4541 H   0  0  0  0  0  0  0  0  0  0  0  0
  1 10  1  0  0  0  0
  1 15  1  0  0  0  0
  2 17  1  0  0  0  0
  3 18  1  0  0  0  0
  4 16  1  0  0  0  0
  5 16  2  0  0  0  0
  6 19  2  0  0  0  0
  7  9  1  0  0  0  0
  7 21  1  0  0  0  0
  8 15  2  0  0  0  0
  8 20  1  0  0  0  0
  9 15  1  0  0  0  0
  9 19  1  0  0  0  0
 10 20  2  0  0  0  0
 11 12  1  0  0  0  0
 11 17  2  0  0  0  0
 12 22  2  0  0  0  0
 13 18  2  0  0  0  0
 13 22  1  0  0  0  0
 14 19  1  0  0  0  0
 14 21  2  0  0  0  0
 16 20  1  0  0  0  0
 17 18  1  0  0  0  0
 21 22  1  0  0  0  0
  4 23  1  0  0  0  0
  7 24  1  0  0  0  0
 10 25  1  0  0  0  0
 11 26  1  0  0  0  0
 12 27  1  0  0  0  0
 13 28  1  0  0  0  0
 14 29  1  0  0  0  0
M  END
> <pdb_id>
5W8I

> <uniprot_id>
P00338

> <usmiles>
S1C(=NC(C(=O)O)=C1)N2NC(c3cc(F)c(F)cc3)=CC2=O

$$$$
9YJ_A_601
          07202405313D 1   1.00000     0.00000     0
            
 38 40  0  0  0  0            999 V2000
   23.6446  -20.9203   -0.6905 Cl  0  0  0  0  0  0  0  0  0  0  0  0
   19.3686  -20.2731    2.4179 S   0  0  0  0  0  0  0  0  0  0  0  0
   17.8831  -23.8202    1.6834 N   0  0  0  0  0  0  0  0  0  0  0  0
   16.8567  -19.6947    2.9126 N   0  0  0  0  0  0  0  0  0  0  0  0
   15.5785  -23.8436    1.6494 N   0  0  0  0  0  0  0  0  0  0  0  0
   14.2134  -21.9134    2.1207 N   0  0  0  0  0  0  0  0  0  0  0  0
   15.5230  -19.9906    2.7381 N   0  0  0  0  0  0  0  0  0  0  0  0
   15.1905  -17.5785    3.2265 C   0  0  0  0  0  0  0  0  0  0  0  0
   13.8166  -19.3102    4.3871 C   0  0  0  0  0  0  0  0  0  0  0  0
   13.4662  -18.8517    1.9674 C   0  0  0  0  0  0  0  0  0  0  0  0
   14.4185  -23.1982    1.8158 C   0  0  0  0  0  0  0  0  0  0  0  0
   19.7876  -21.6237   -1.3712 C   0  0  0  0  0  0  0  0  0  0  0  0
   21.1602  -21.5427   -1.5368 C   0  0  0  0  0  0  0  0  0  0  0  0
   19.2113  -21.3621   -0.1417 C   0  0  0  0  0  0  0  0  0  0  0  0
   21.3932  -20.9482    0.7887 C   0  0  0  0  0  0  0  0  0  0  0  0
   17.6388  -20.6590    2.5526 C   0  0  0  0  0  0  0  0  0  0  0  0
   21.9388  -21.1847   -0.4572 C   0  0  0  0  0  0  0  0  0  0  0  0
   16.7312  -23.1511    1.7843 C   0  0  0  0  0  0  0  0  0  0  0  0
   20.0108  -21.0073    0.9359 C   0  0  0  0  0  0  0  0  0  0  0  0
   15.3668  -21.2466    2.2700 C   0  0  0  0  0  0  0  0  0  0  0  0
   16.6625  -21.7747    2.1119 C   0  0  0  0  0  0  0  0  0  0  0  0
   14.5041  -18.9346    3.0793 C   0  0  0  0  0  0  0  0  0  0  0  0
   18.7527  -23.3358    1.7785 H   0  0  0  0  0  0  0  0  0  0  0  0
   17.8757  -24.8055    1.5128 H   0  0  0  0  0  0  0  0  0  0  0  0
   14.5089  -16.8827    3.4528 H   0  0  0  0  0  0  0  0  0  0  0  0
   15.8720  -17.6274    3.9566 H   0  0  0  0  0  0  0  0  0  0  0  0
   15.6401  -17.3374    2.3664 H   0  0  0  0  0  0  0  0  0  0  0  0
   13.1385  -18.6130    4.6195 H   0  0  0  0  0  0  0  0  0  0  0  0
   13.3625  -20.1951    4.2828 H   0  0  0  0  0  0  0  0  0  0  0  0
   14.4978  -19.3691    5.1168 H   0  0  0  0  0  0  0  0  0  0  0  0
   12.7900  -18.1507    2.1942 H   0  0  0  0  0  0  0  0  0  0  0  0
   13.9174  -18.6138    1.1073 H   0  0  0  0  0  0  0  0  0  0  0  0
   13.0098  -19.7362    1.8708 H   0  0  0  0  0  0  0  0  0  0  0  0
   13.5941  -23.7514    1.6958 H   0  0  0  0  0  0  0  0  0  0  0  0
   19.2084  -21.8733   -2.1472 H   0  0  0  0  0  0  0  0  0  0  0  0
   21.5787  -21.7404   -2.4233 H   0  0  0  0  0  0  0  0  0  0  0  0
   18.2198  -21.4284   -0.0291 H   0  0  0  0  0  0  0  0  0  0  0  0
   21.9803  -20.7384    1.5705 H   0  0  0  0  0  0  0  0  0  0  0  0
  1 17  1  0  0  0  0
  2 16  1  0  0  0  0
  2 19  1  0  0  0  0
  3 18  1  0  0  0  0
  4  7  1  0  0  0  0
  4 16  2  0  0  0  0
  5 11  1  0  0  0  0
  5 18  2  0  0  0  0
  6 11  2  0  0  0  0
  6 20  1  0  0  0  0
  7 20  1  0  0  0  0
  7 22  1  0  0  0  0
  8 22  1  0  0  0  0
  9 22  1  0  0  0  0
 10 22  1  0  0  0  0
 12 13  2  0  0  0  0
 12 14  1  0  0  0  0
 13 17  1  0  0  0  0
 14 19  2  0  0  0  0
 15 17  2  0  0  0  0
 15 19  1  0  0  0  0
 16 21  1  0  0  0  0
 18 21  1  0  0  0  0
 20 21  2  0  0  0  0
  3 23  1  0  0  0  0
  3 24  1  0  0  0  0
  8 25  1  0  0  0  0
  8 26  1  0  0  0  0
  8 27  1  0  0  0  0
  9 28  1  0  0  0  0
  9 29  1  0  0  0  0
  9 30  1  0  0  0  0
 10 31  1  0  0  0  0
 10 32  1  0  0  0  0
 10 33  1  0  0  0  0
 11 34  1  0  0  0  0
 12 35  1  0  0  0  0
 13 36  1  0  0  0  0
 14 37  1  0  0  0  0
 15 38  1  0  0  0  0
M  END
> <pdb_id>
5W9E

> <uniprot_id>
Q9BJF5

> <usmiles>
Clc1cc(SC2=NN(c3ncnc(N)c32)C(C)(C)C)ccc1

$$$$
9ZE_A_801
          07192416573D 1   1.00000     0.00000     0
            
 23 24  0  0  0  0            999 V2000
   17.1813   -1.7099   14.6481 O   0  0  0  0  0  0  0  0  0  0  0  0
   17.2924   -2.2761   20.9486 O   0  0  0  0  0  0  0  0  0  0  0  0
   19.6929   -3.2027   19.8668 O   0  0  0  0  0  0  0  0  0  0  0  0
   19.5413   -1.8373   14.9784 C   0  0  0  0  0  0  0  0  0  0  0  0
   18.3611   -2.6451   21.8571 C   0  0  0  0  0  0  0  0  0  0  0  0
   19.3286   -3.6425   21.2057 C   0  0  0  0  0  0  0  0  0  0  0  0
   16.5600   -1.6195   18.8675 C   0  0  0  0  0  0  0  0  0  0  0  0
   16.7184   -1.7038   17.3867 C   0  0  0  0  0  0  0  0  0  0  0  0
   18.8960   -2.7718   17.7443 C   0  0  0  0  0  0  0  0  0  0  0  0
   18.1023   -1.9180   15.4353 C   0  0  0  0  0  0  0  0  0  0  0  0
   17.5235   -2.0873   19.6511 C   0  0  0  0  0  0  0  0  0  0  0  0
   18.7573   -2.6962   19.0564 C   0  0  0  0  0  0  0  0  0  0  0  0
   17.8111   -2.2417   16.8584 C   0  0  0  0  0  0  0  0  0  0  0  0
   20.1473   -2.0350   15.7489 H   0  0  0  0  0  0  0  0  0  0  0  0
   19.6981   -2.5055   14.2510 H   0  0  0  0  0  0  0  0  0  0  0  0
   19.7303   -0.9181   14.6330 H   0  0  0  0  0  0  0  0  0  0  0  0
   17.9640   -3.0630   22.6742 H   0  0  0  0  0  0  0  0  0  0  0  0
   18.8671   -1.8223   22.1158 H   0  0  0  0  0  0  0  0  0  0  0  0
   20.1547   -3.7121   21.7649 H   0  0  0  0  0  0  0  0  0  0  0  0
   18.8882   -4.5384   21.1489 H   0  0  0  0  0  0  0  0  0  0  0  0
   15.7367   -1.2147   19.2655 H   0  0  0  0  0  0  0  0  0  0  0  0
   15.9976   -1.3534   16.7887 H   0  0  0  0  0  0  0  0  0  0  0  0
   19.7181   -3.1794   17.3466 H   0  0  0  0  0  0  0  0  0  0  0  0
  1 10  2  0  0  0  0
  2  5  1  0  0  0  0
  2 11  1  0  0  0  0
  3  6  1  0  0  0  0
  3 12  1  0  0  0  0
  4 10  1  0  0  0  0
  5  6  1  0  0  0  0
  7  8  1  0  0  0  0
  7 11  2  0  0  0  0
  8 13  2  0  0  0  0
  9 12  2  0  0  0  0
  9 13  1  0  0  0  0
 10 13  1  0  0  0  0
 11 12  1  0  0  0  0
  4 14  1  0  0  0  0
  4 15  1  0  0  0  0
  4 16  1  0  0  0  0
  5 17  1  0  0  0  0
  5 18  1  0  0  0  0
  6 19  1  0  0  0  0
  6 20  1  0  0  0  0
  7 21  1  0  0  0  0
  8 22  1  0  0  0  0
  9 23  1  0  0  0  0
M  END
> <pdb_id>
4LM3

> <uniprot_id>
Q9Y233

> <usmiles>
O=C(c1cc2OCCOc2cc1)C

$$$$
9ZS_A_1201
          07202413383D 1   1.00000     0.00000     0
            
 35 38  0  0  0  0            999 V2000
   -6.8140   19.8889  -28.7629 Cl  0  0  0  0  0  0  0  0  0  0  0  0
   -2.2976   21.8238  -31.0099 Cl  0  0  0  0  0  0  0  0  0  0  0  0
   -4.6551   25.6249  -31.3975 O   0  0  0  0  0  0  0  0  0  0  0  0
   -7.8726   24.1671  -33.3948 N   0  0  0  0  0  0  0  0  0  0  0  0
   -6.8751   25.5549  -31.8554 N   0  0  0  0  0  0  0  0  0  0  0  0
   -5.9564   20.9006  -31.8179 N   0  0  0  0  0  0  0  0  0  0  0  0
   -5.5694   22.8154  -30.8178 N   0  0  0  0  0  0  0  0  0  0  0  0
   -8.1271   23.0127  -34.0053 C   0  0  0  0  0  0  0  0  0  0  0  0
   -2.9391   19.3198  -27.9492 C   0  0  0  0  0  0  0  0  0  0  0  0
   -4.3287   19.2599  -27.8986 C   0  0  0  0  0  0  0  0  0  0  0  0
   -2.3174   20.1279  -28.9039 C   0  0  0  0  0  0  0  0  0  0  0  0
   -7.5160   21.8426  -33.6029 C   0  0  0  0  0  0  0  0  0  0  0  0
   -4.9160   28.2834  -30.0852 C   0  0  0  0  0  0  0  0  0  0  0  0
   -4.9355   28.6646  -31.5659 C   0  0  0  0  0  0  0  0  0  0  0  0
   -5.0922   19.9849  -28.8186 C   0  0  0  0  0  0  0  0  0  0  0  0
   -3.0749   20.8495  -29.8215 C   0  0  0  0  0  0  0  0  0  0  0  0
   -5.7417   26.1818  -31.4569 C   0  0  0  0  0  0  0  0  0  0  0  0
   -7.0331   24.2653  -32.3640 C   0  0  0  0  0  0  0  0  0  0  0  0
   -5.3140   21.5223  -30.7787 C   0  0  0  0  0  0  0  0  0  0  0  0
   -6.6644   21.8628  -32.4968 C   0  0  0  0  0  0  0  0  0  0  0  0
   -5.9166   27.6243  -31.0380 C   0  0  0  0  0  0  0  0  0  0  0  0
   -6.4117   23.0973  -31.8432 C   0  0  0  0  0  0  0  0  0  0  0  0
   -4.4782   20.8012  -29.7850 C   0  0  0  0  0  0  0  0  0  0  0  0
   -7.7152   26.0913  -31.7737 H   0  0  0  0  0  0  0  0  0  0  0  0
   -5.9171   19.9265  -32.0408 H   0  0  0  0  0  0  0  0  0  0  0  0
   -8.7725   22.9926  -34.7689 H   0  0  0  0  0  0  0  0  0  0  0  0
   -2.3890   18.7873  -27.3059 H   0  0  0  0  0  0  0  0  0  0  0  0
   -4.7806   18.6989  -27.2049 H   0  0  0  0  0  0  0  0  0  0  0  0
   -1.3195   20.1885  -28.9281 H   0  0  0  0  0  0  0  0  0  0  0  0
   -7.6813   20.9897  -34.0981 H   0  0  0  0  0  0  0  0  0  0  0  0
   -5.2349   28.9345  -29.3964 H   0  0  0  0  0  0  0  0  0  0  0  0
   -4.1535   27.7530  -29.7148 H   0  0  0  0  0  0  0  0  0  0  0  0
   -4.1843   28.3847  -32.1637 H   0  0  0  0  0  0  0  0  0  0  0  0
   -5.2657   29.5662  -31.8453 H   0  0  0  0  0  0  0  0  0  0  0  0
   -6.8633   27.9336  -30.9478 H   0  0  0  0  0  0  0  0  0  0  0  0
  1 15  1  0  0  0  0
  2 16  1  0  0  0  0
  3 17  2  0  0  0  0
  4  8  2  0  0  0  0
  4 18  1  0  0  0  0
  5 17  1  0  0  0  0
  5 18  1  0  0  0  0
  6 19  1  0  0  0  0
  6 20  1  0  0  0  0
  7 19  2  0  0  0  0
  7 22  1  0  0  0  0
  8 12  1  0  0  0  0
  9 10  2  0  0  0  0
  9 11  1  0  0  0  0
 10 15  1  0  0  0  0
 11 16  2  0  0  0  0
 12 20  2  0  0  0  0
 13 14  1  0  0  0  0
 13 21  1  0  0  0  0
 14 21  1  0  0  0  0
 15 23  2  0  0  0  0
 16 23  1  0  0  0  0
 17 21  1  0  0  0  0
 18 22  2  0  0  0  0
 19 23  1  0  0  0  0
 20 22  1  0  0  0  0
  5 24  1  0  0  0  0
  6 25  1  0  0  0  0
  8 26  1  0  0  0  0
  9 27  1  0  0  0  0
 10 28  1  0  0  0  0
 11 29  1  0  0  0  0
 12 30  1  0  0  0  0
 13 31  1  0  0  0  0
 13 32  1  0  0  0  0
 14 33  1  0  0  0  0
 14 34  1  0  0  0  0
 21 35  1  0  0  0  0
M  END
> <pdb_id>
5WAL

> <uniprot_id>
P29597

> <usmiles>
Clc1c(c(Cl)ccc1)C2=Nc3c(nccc3N2)NC(=O)C4CC4

$$$$
A05_A_400
          07192422123D 1   1.00000     0.00000     0
            
 27 28  0  0  0  0            999 V2000
   11.7831   -0.1007   -2.5031 Cl  0  0  0  0  0  0  0  0  0  0  0  0
    7.3626    3.4590   -5.6383 O   0  5  0  0  0  0  0  0  0  0  0  0
    9.5198    2.6813   -6.5380 O   0  5  0  0  0  0  0  0  0  0  0  0
    8.5763   -0.3201    3.9852 O   0  0  0  0  0  0  0  0  0  0  0  0
    6.9023    0.1842    2.6364 O   0  0  0  0  0  0  0  0  0  0  0  0
    8.6775    0.6342    0.4684 O   0  0  0  0  0  0  0  0  0  0  0  0
    8.6041    2.7929   -5.4576 N   0  3  0  0  0  0  0  0  0  0  0  0
   10.5936   -0.0282    1.7422 C   0  0  0  0  0  0  0  0  0  0  0  0
   11.0510    0.4817    0.3740 C   0  0  0  0  0  0  0  0  0  0  0  0
    7.8978    2.4036   -3.1334 C   0  0  0  0  0  0  0  0  0  0  0  0
    8.3574    1.8750   -1.9313 C   0  0  0  0  0  0  0  0  0  0  0  0
   10.2469    1.5418   -4.1231 C   0  0  0  0  0  0  0  0  0  0  0  0
    8.1164    0.0139    2.8694 C   0  0  0  0  0  0  0  0  0  0  0  0
   10.4111    0.9280   -2.7312 C   0  0  0  0  0  0  0  0  0  0  0  0
    9.0848    0.2229    1.7057 C   0  0  0  0  0  0  0  0  0  0  0  0
    9.7448    0.7467   -0.3753 C   0  0  0  0  0  0  0  0  0  0  0  0
    8.9070    2.2654   -4.2761 C   0  0  0  0  0  0  0  0  0  0  0  0
    9.5253    1.1659   -1.6869 C   0  0  0  0  0  0  0  0  0  0  0  0
    9.5619   -0.4399    4.1041 H   0  0  0  0  0  0  0  0  0  0  0  0
    6.6015    0.4514    1.7208 H   0  0  0  0  0  0  0  0  0  0  0  0
   11.0272    0.4859    2.4823 H   0  0  0  0  0  0  0  0  0  0  0  0
   10.7948   -1.0018    1.8502 H   0  0  0  0  0  0  0  0  0  0  0  0
   11.5983   -0.2092   -0.0984 H   0  0  0  0  0  0  0  0  0  0  0  0
   11.5843    1.3225    0.4677 H   0  0  0  0  0  0  0  0  0  0  0  0
    6.9997    2.8303   -3.2402 H   0  0  0  0  0  0  0  0  0  0  0  0
    7.7680    2.0261   -1.1377 H   0  0  0  0  0  0  0  0  0  0  0  0
   10.9337    1.4778   -4.8471 H   0  0  0  0  0  0  0  0  0  0  0  0
  1 14  1  0  0  0  0
  2  7  1  0  0  0  0
  3  7  1  0  0  0  0
  4 13  1  0  0  0  0
  5 13  1  0  0  0  0
  6 15  1  0  0  0  0
  6 16  1  0  0  0  0
  7 17  2  0  0  0  0
  8  9  1  0  0  0  0
  8 15  1  0  0  0  0
  9 16  1  0  0  0  0
 10 11  2  0  0  0  0
 10 17  1  0  0  0  0
 11 18  1  0  0  0  0
 12 14  2  0  0  0  0
 12 17  1  0  0  0  0
 13 15  2  0  0  0  0
 14 18  1  0  0  0  0
 16 18  2  0  0  0  0
  4 19  1  0  0  0  0
  5 20  1  0  0  0  0
  8 21  1  0  0  0  0
  8 22  1  0  0  0  0
  9 23  1  0  0  0  0
  9 24  1  0  0  0  0
 10 25  1  0  0  0  0
 11 26  1  0  0  0  0
 12 27  1  0  0  0  0
M  CHG  3   2  -1   3  -1   7   1
M  END
> <pdb_id>
2Q95

> <uniprot_id>
P0AE18

> <usmiles>
ClC=1/C(=C\2/OC(=C(O)O)CC2)/C=CC(=[N+]([O-])[O-])C1

$$$$
A08_B_805
          07202407143D 1   1.00000     0.00000     0
            
 25 26  0  0  0  0            999 V2000
   34.9099   53.3163   56.7317 Cl  0  0  0  0  0  0  0  0  0  0  0  0
   35.4107   44.4736   58.7962 Cl  0  0  0  0  0  0  0  0  0  0  0  0
   39.5288   50.0131   56.0354 N   0  0  0  0  0  0  0  0  0  0  0  0
   36.1582   51.1496   56.0977 N   0  0  0  0  0  0  0  0  0  0  0  0
   38.4824   49.6041   55.7247 C   0  0  0  0  0  0  0  0  0  0  0  0
   34.1646   50.8200   54.0438 C   0  0  0  0  0  0  0  0  0  0  0  0
   34.1574   51.8772   54.8697 C   0  0  0  0  0  0  0  0  0  0  0  0
   35.1924   47.1758   58.0820 C   0  0  0  0  0  0  0  0  0  0  0  0
   36.8232   45.7324   56.9205 C   0  0  0  0  0  0  0  0  0  0  0  0
   35.1670   49.9470   54.2914 C   0  0  0  0  0  0  0  0  0  0  0  0
   35.6381   48.2305   57.1990 C   0  0  0  0  0  0  0  0  0  0  0  0
   37.2399   46.7480   56.0904 C   0  0  0  0  0  0  0  0  0  0  0  0
   35.1430   51.9466   55.8180 C   0  0  0  0  0  0  0  0  0  0  0  0
   35.7906   45.9403   57.8584 C   0  0  0  0  0  0  0  0  0  0  0  0
   36.1254   50.1152   55.2687 C   0  0  0  0  0  0  0  0  0  0  0  0
   36.6458   47.9945   56.2521 C   0  0  0  0  0  0  0  0  0  0  0  0
   37.1536   49.0485   55.3292 C   0  0  2  0  0  0  0  0  0  0  0  0
   33.4927   50.6900   53.3147 H   0  0  0  0  0  0  0  0  0  0  0  0
   33.4582   52.5883   54.7956 H   0  0  0  0  0  0  0  0  0  0  0  0
   34.5085   47.3229   58.7966 H   0  0  0  0  0  0  0  0  0  0  0  0
   37.2588   44.8344   56.8579 H   0  0  0  0  0  0  0  0  0  0  0  0
   35.2168   49.1228   53.7271 H   0  0  0  0  0  0  0  0  0  0  0  0
   35.2234   49.1381   57.2640 H   0  0  0  0  0  0  0  0  0  0  0  0
   37.9438   46.5950   55.3967 H   0  0  0  0  0  0  0  0  0  0  0  0
   37.2418   48.6482   54.4170 H   0  0  0  0  0  0  0  0  0  0  0  0
  1 13  1  0  0  0  0
  2 14  1  0  0  0  0
  3  5  3  0  0  0  0
  4 13  2  0  0  0  0
  4 15  1  0  0  0  0
  5 17  1  0  0  0  0
  6  7  2  0  0  0  0
  6 10  1  0  0  0  0
  7 13  1  0  0  0  0
  8 11  2  0  0  0  0
  8 14  1  0  0  0  0
  9 12  1  0  0  0  0
  9 14  2  0  0  0  0
 10 15  2  0  0  0  0
 11 16  1  0  0  0  0
 12 16  2  0  0  0  0
 15 17  1  0  0  0  0
 16 17  1  0  0  0  0
  6 18  1  0  0  0  0
  7 19  1  0  0  0  0
  8 20  1  0  0  0  0
  9 21  1  0  0  0  0
 10 22  1  0  0  0  0
 11 23  1  0  0  0  0
 12 24  1  0  0  0  0
 17 25  1  0  0  0  0
M  END
> <pdb_id>
4K2F

> <uniprot_id>
Q9I194

> <usmiles>
Clc1nc(ccc1)[C@@H](C#N)c2ccc(Cl)cc2

$$$$
A09_A_263
          07192416293D 1   1.00000     0.00000     0
            
 18 18  0  0  0  0            999 V2000
   -6.0778    1.0218   16.9514 S   0  0  0  0  0  0  0  0  0  0  0  0
   -7.5025    0.8231   16.9477 O   0  0  0  0  0  0  0  0  0  0  0  0
   -5.3848    1.0469   18.2078 O   0  0  0  0  0  0  0  0  0  0  0  0
   -4.0004   -0.1300   16.0909 O   0  0  0  0  0  0  0  0  0  0  0  0
   -5.4172   -0.1667   16.0331 N   0  0  0  0  0  0  0  0  0  0  0  0
   -5.4380    5.0621   14.9535 C   0  0  0  0  0  0  0  0  0  0  0  0
   -6.0513    4.9913   16.2102 C   0  0  0  0  0  0  0  0  0  0  0  0
   -5.0157    3.8993   14.3060 C   0  0  0  0  0  0  0  0  0  0  0  0
   -6.2533    3.7466   16.8384 C   0  0  0  0  0  0  0  0  0  0  0  0
   -5.1995    2.6356   14.9032 C   0  0  0  0  0  0  0  0  0  0  0  0
   -5.8209    2.5738   16.1749 C   0  0  0  0  0  0  0  0  0  0  0  0
   -3.6246   -0.8630   15.5240 H   0  0  0  0  0  0  0  0  0  0  0  0
   -5.7084   -0.0460   15.0841 H   0  0  0  0  0  0  0  0  0  0  0  0
   -5.3015    5.9513   14.5168 H   0  0  0  0  0  0  0  0  0  0  0  0
   -6.3483    5.8307   16.6653 H   0  0  0  0  0  0  0  0  0  0  0  0
   -4.5782    3.9636   13.4091 H   0  0  0  0  0  0  0  0  0  0  0  0
   -6.6932    3.6929   17.7348 H   0  0  0  0  0  0  0  0  0  0  0  0
   -4.8982    1.8022   14.4400 H   0  0  0  0  0  0  0  0  0  0  0  0
  1  2  2  0  0  0  0
  1  3  2  0  0  0  0
  1  5  1  0  0  0  0
  1 11  1  0  0  0  0
  4  5  1  0  0  0  0
  6  7  2  0  0  0  0
  6  8  1  0  0  0  0
  7  9  1  0  0  0  0
  8 10  2  0  0  0  0
  9 11  2  0  0  0  0
 10 11  1  0  0  0  0
  4 12  1  0  0  0  0
  5 13  1  0  0  0  0
  6 14  1  0  0  0  0
  7 15  1  0  0  0  0
  8 16  1  0  0  0  0
  9 17  1  0  0  0  0
 10 18  1  0  0  0  0
M  END
> <pdb_id>
3T5U

> <uniprot_id>
P00918

> <usmiles>
S(=O)(=O)(NO)c1ccccc1

$$$$
A0Q_A_301
          07192420463D 1   1.00000     0.00000     0
            
 56 59  0  0  0  0            999 V2000
    3.5320   -3.5550   19.6040 O   0  0  0  0  0  0  0  0  0  0  0  0
    2.5390   -6.1030   16.5720 O   0  0  0  0  0  0  0  0  0  0  0  0
    7.7980   -4.7360   16.6880 N   0  0  0  0  0  0  0  0  0  0  0  0
    4.3970   -4.9770   18.0620 N   0  0  0  0  0  0  0  0  0  0  0  0
   -2.9260   -4.2400   22.6730 N   0  0  0  0  0  0  0  0  0  0  0  0
   -1.2660   -4.7060   20.4420 N   0  0  0  0  0  0  0  0  0  0  0  0
   -3.8440   -3.5510   23.6020 C   0  0  0  0  0  0  0  0  0  0  0  0
    2.2380   -7.0360   15.4340 C   0  0  0  0  0  0  0  0  0  0  0  0
    8.3280   -3.6610   17.2830 C   0  0  0  0  0  0  0  0  0  0  0  0
    6.5350   -5.1420   16.9030 C   0  0  0  0  0  0  0  0  0  0  0  0
   -1.7180   -3.4430   22.5620 C   0  0  0  0  0  0  0  0  0  0  0  0
   -3.5300   -4.4210   21.3400 C   0  0  0  0  0  0  0  0  0  0  0  0
   -0.6780   -4.2200   21.7210 C   0  0  0  0  0  0  0  0  0  0  0  0
   -2.6310   -5.2590   20.4690 C   0  0  0  0  0  0  0  0  0  0  0  0
    7.5570   -3.0130   18.2400 C   0  0  0  0  0  0  0  0  0  0  0  0
    6.2730   -7.7830   13.8080 C   0  0  0  0  0  0  0  0  0  0  0  0
    5.5050   -6.6700   13.4170 C   0  0  0  0  0  0  0  0  0  0  0  0
    5.7020   -8.6610   14.7580 C   0  0  0  0  0  0  0  0  0  0  0  0
    0.2850   -6.2250   17.3850 C   0  0  0  0  0  0  0  0  0  0  0  0
    6.2780   -3.4490   18.4870 C   0  0  0  0  0  0  0  0  0  0  0  0
    4.2110   -6.4640   13.9290 C   0  0  0  0  0  0  0  0  0  0  0  0
    4.4130   -8.4560   15.2710 C   0  0  0  0  0  0  0  0  0  0  0  0
   -0.7190   -5.8770   18.3160 C   0  0  0  0  0  0  0  0  0  0  0  0
    0.9800   -4.6250   19.4520 C   0  0  0  0  0  0  0  0  0  0  0  0
    3.3490   -4.4430   18.7740 C   0  0  0  0  0  0  0  0  0  0  0  0
    1.5820   -5.7680   17.4780 C   0  0  0  0  0  0  0  0  0  0  0  0
    5.7190   -4.5070   17.8540 C   0  0  0  0  0  0  0  0  0  0  0  0
   -0.3400   -5.0610   19.3760 C   0  0  0  0  0  0  0  0  0  0  0  0
    3.6630   -7.3440   14.8660 C   0  0  0  0  0  0  0  0  0  0  0  0
    1.9510   -4.9480   18.5480 C   0  0  0  0  0  0  0  0  0  0  0  0
    4.1918   -5.8468   17.6134 H   0  0  0  0  0  0  0  0  0  0  0  0
   -4.6857   -4.0829   23.6946 H   0  0  0  0  0  0  0  0  0  0  0  0
   -3.4067   -3.4605   24.4968 H   0  0  0  0  0  0  0  0  0  0  0  0
   -4.0612   -2.6430   23.2438 H   0  0  0  0  0  0  0  0  0  0  0  0
    1.6622   -6.5938   14.7463 H   0  0  0  0  0  0  0  0  0  0  0  0
    1.7899   -7.8692   15.7581 H   0  0  0  0  0  0  0  0  0  0  0  0
    9.2441   -3.3364   17.0478 H   0  0  0  0  0  0  0  0  0  0  0  0
    6.1696   -5.9098   16.3767 H   0  0  0  0  0  0  0  0  0  0  0  0
   -1.3476   -3.2667   23.4740 H   0  0  0  0  0  0  0  0  0  0  0  0
   -1.9295   -2.5741   22.1145 H   0  0  0  0  0  0  0  0  0  0  0  0
   -3.6623   -3.5263   20.9134 H   0  0  0  0  0  0  0  0  0  0  0  0
   -4.4142   -4.8778   21.4376 H   0  0  0  0  0  0  0  0  0  0  0  0
    0.0917   -3.6154   21.5161 H   0  0  0  0  0  0  0  0  0  0  0  0
   -0.3539   -5.0050   22.2489 H   0  0  0  0  0  0  0  0  0  0  0  0
   -2.6002   -6.1909   20.8303 H   0  0  0  0  0  0  0  0  0  0  0  0
   -2.9971   -5.2742   19.5386 H   0  0  0  0  0  0  0  0  0  0  0  0
    7.9304   -2.2350   18.7453 H   0  0  0  0  0  0  0  0  0  0  0  0
    7.1843   -7.9459   13.4298 H   0  0  0  0  0  0  0  0  0  0  0  0
    5.8856   -6.0148   12.7644 H   0  0  0  0  0  0  0  0  0  0  0  0
    6.2314   -9.4490   15.0724 H   0  0  0  0  0  0  0  0  0  0  0  0
    0.0442   -6.8292   16.6254 H   0  0  0  0  0  0  0  0  0  0  0  0
    5.7328   -2.9606   19.1683 H   0  0  0  0  0  0  0  0  0  0  0  0
    3.6766   -5.6779   13.6185 H   0  0  0  0  0  0  0  0  0  0  0  0
    4.0283   -9.1050   15.9274 H   0  0  0  0  0  0  0  0  0  0  0  0
   -1.6593   -6.2027   18.2171 H   0  0  0  0  0  0  0  0  0  0  0  0
    1.2338   -4.0363   20.2195 H   0  0  0  0  0  0  0  0  0  0  0  0
  1 25  2  0  0  0  0
  2  8  1  0  0  0  0
  2 26  1  0  0  0  0
  3  9  2  0  0  0  0
  3 10  1  0  0  0  0
  4 25  1  0  0  0  0
  4 27  1  0  0  0  0
  5  7  1  0  0  0  0
  5 11  1  0  0  0  0
  5 12  1  0  0  0  0
  6 13  1  0  0  0  0
  6 14  1  0  0  0  0
  6 28  1  0  0  0  0
  8 29  1  0  0  0  0
  9 15  1  0  0  0  0
 10 27  2  0  0  0  0
 11 13  1  0  0  0  0
 12 14  1  0  0  0  0
 15 20  2  0  0  0  0
 16 17  2  0  0  0  0
 16 18  1  0  0  0  0
 17 21  1  0  0  0  0
 18 22  2  0  0  0  0
 19 23  1  0  0  0  0
 19 26  2  0  0  0  0
 20 27  1  0  0  0  0
 21 29  2  0  0  0  0
 22 29  1  0  0  0  0
 23 28  2  0  0  0  0
 24 28  1  0  0  0  0
 24 30  2  0  0  0  0
 25 30  1  0  0  0  0
 26 30  1  0  0  0  0
  4 31  1  0  0  0  0
  7 32  1  0  0  0  0
  7 33  1  0  0  0  0
  7 34  1  0  0  0  0
  8 35  1  0  0  0  0
  8 36  1  0  0  0  0
  9 37  1  0  0  0  0
 10 38  1  0  0  0  0
 11 39  1  0  0  0  0
 11 40  1  0  0  0  0
 12 41  1  0  0  0  0
 12 42  1  0  0  0  0
 13 43  1  0  0  0  0
 13 44  1  0  0  0  0
 14 45  1  0  0  0  0
 14 46  1  0  0  0  0
 15 47  1  0  0  0  0
 16 48  1  0  0  0  0
 17 49  1  0  0  0  0
 18 50  1  0  0  0  0
 19 51  1  0  0  0  0
 20 52  1  0  0  0  0
 21 53  1  0  0  0  0
 22 54  1  0  0  0  0
 23 55  1  0  0  0  0
 24 56  1  0  0  0  0
M  END
> <pdb_id>
5OP2

> <uniprot_id>
O14757

> <usmiles>
O=C(Nc1cnccc1)c2c(OCc3ccccc3)ccc(N4CCN(CC4)C)c2

$$$$
A11_B_1906
          07202412353D 1   1.00000     0.00000     0
            
 37 38  0  0  0  0            999 V2000
  125.8061  112.0966   94.9812 Cl  0  0  0  0  0  0  0  0  0  0  0  0
  125.9174  117.0097   87.1835 O   0  0  0  0  0  0  0  0  0  0  0  0
  127.9668  118.0727   87.2907 O   0  0  0  0  0  0  0  0  0  0  0  0
  126.7908  116.4922   94.5703 N   0  0  0  0  0  0  0  0  0  0  0  0
  127.7407  116.0846   92.4234 N   0  0  0  0  0  0  0  0  0  0  0  0
  127.1255  117.0238   89.1012 N   0  0  0  0  0  0  0  0  0  0  0  0
  129.3630  118.6360   85.4820 C   0  0  0  0  0  0  0  0  0  0  0  0
  127.9048  118.4727   85.9393 C   0  0  0  0  0  0  0  0  0  0  0  0
  126.1410  116.0230   95.7264 C   0  0  0  0  0  0  0  0  0  0  0  0
  126.1563  116.2247   89.8958 C   0  0  0  0  0  0  0  0  0  0  0  0
  128.3191  117.4048   89.8886 C   0  0  0  0  0  0  0  0  0  0  0  0
  125.8304  114.6433   95.8600 C   0  0  0  0  0  0  0  0  0  0  0  0
  126.8515  114.9721   90.4407 C   0  0  0  0  0  0  0  0  0  0  0  0
  129.0363  116.1725   90.3915 C   0  0  0  0  0  0  0  0  0  0  0  0
  126.8194  114.2260   93.6812 C   0  0  0  0  0  0  0  0  0  0  0  0
  126.9627  117.3658   87.8064 C   0  0  0  0  0  0  0  0  0  0  0  0
  126.1804  113.7689   94.8314 C   0  0  0  0  0  0  0  0  0  0  0  0
  127.1281  115.5927   93.5427 C   0  0  0  0  0  0  0  0  0  0  0  0
  128.1304  115.3097   91.2612 C   0  0  0  0  0  0  0  0  0  0  0  0
  127.9373  117.0649   92.4047 H   0  0  0  0  0  0  0  0  0  0  0  0
  129.3819  118.9208   84.5236 H   0  0  0  0  0  0  0  0  0  0  0  0
  129.8131  119.3293   86.0447 H   0  0  0  0  0  0  0  0  0  0  0  0
  129.8427  117.7641   85.5802 H   0  0  0  0  0  0  0  0  0  0  0  0
  127.4145  119.3402   85.8552 H   0  0  0  0  0  0  0  0  0  0  0  0
  127.4442  117.7749   85.3906 H   0  0  0  0  0  0  0  0  0  0  0  0
  125.8971  116.6622   96.4558 H   0  0  0  0  0  0  0  0  0  0  0  0
  125.3905  115.9537   89.3126 H   0  0  0  0  0  0  0  0  0  0  0  0
  125.8162  116.7753   90.6582 H   0  0  0  0  0  0  0  0  0  0  0  0
  128.0347  117.9616   90.6690 H   0  0  0  0  0  0  0  0  0  0  0  0
  128.9399  117.9339   89.3101 H   0  0  0  0  0  0  0  0  0  0  0  0
  125.3678  114.3041   96.6791 H   0  0  0  0  0  0  0  0  0  0  0  0
  127.1092  114.3879   89.6710 H   0  0  0  0  0  0  0  0  0  0  0  0
  126.2113  114.4815   91.0319 H   0  0  0  0  0  0  0  0  0  0  0  0
  129.8291  116.4562   90.9309 H   0  0  0  0  0  0  0  0  0  0  0  0
  129.3425  115.6329   89.6073 H   0  0  0  0  0  0  0  0  0  0  0  0
  127.0590  113.5832   92.9536 H   0  0  0  0  0  0  0  0  0  0  0  0
  128.6019  114.4725   91.5383 H   0  0  0  0  0  0  0  0  0  0  0  0
  1 17  1  0  0  0  0
  2 16  2  0  0  0  0
  3  8  1  0  0  0  0
  3 16  1  0  0  0  0
  4  9  2  0  0  0  0
  4 18  1  0  0  0  0
  5 18  1  0  0  0  0
  5 19  1  0  0  0  0
  6 10  1  0  0  0  0
  6 11  1  0  0  0  0
  6 16  1  0  0  0  0
  7  8  1  0  0  0  0
  9 12  1  0  0  0  0
 10 13  1  0  0  0  0
 11 14  1  0  0  0  0
 12 17  2  0  0  0  0
 13 19  1  0  0  0  0
 14 19  1  0  0  0  0
 15 17  1  0  0  0  0
 15 18  2  0  0  0  0
  5 20  1  0  0  0  0
  7 21  1  0  0  0  0
  7 22  1  0  0  0  0
  7 23  1  0  0  0  0
  8 24  1  0  0  0  0
  8 25  1  0  0  0  0
  9 26  1  0  0  0  0
 10 27  1  0  0  0  0
 10 28  1  0  0  0  0
 11 29  1  0  0  0  0
 11 30  1  0  0  0  0
 12 31  1  0  0  0  0
 13 32  1  0  0  0  0
 13 33  1  0  0  0  0
 14 34  1  0  0  0  0
 14 35  1  0  0  0  0
 15 36  1  0  0  0  0
 19 37  1  0  0  0  0
M  END
> <pdb_id>
3E6L

> <uniprot_id>
P29477

> <usmiles>
Clc1cc(ncc1)NC2CCN(C(=O)OCC)CC2

$$$$
A18_A_400
          07192422123D 1   1.00000     0.00000     0
            
 25 26  0  0  0  0            999 V2000
   11.6158   -1.8806   -1.9215 Cl  0  0  0  0  0  0  0  0  0  0  0  0
    6.8557    0.0587    2.8076 O   0  0  0  0  0  0  0  0  0  0  0  0
    8.5974   -0.0910    4.1634 O   0  0  0  0  0  0  0  0  0  0  0  0
    8.5517    0.2154    0.5332 O   0  0  0  0  0  0  0  0  0  0  0  0
   13.4137    1.2971   -3.5481 C   0  0  0  0  0  0  0  0  0  0  0  0
   12.4398    2.2808   -3.4291 C   0  0  0  0  0  0  0  0  0  0  0  0
   13.1570    0.0153   -3.0765 C   0  0  0  0  0  0  0  0  0  0  0  0
   11.2177    1.9788   -2.8408 C   0  0  0  0  0  0  0  0  0  0  0  0
   10.7302    0.4853    0.5736 C   0  0  0  0  0  0  0  0  0  0  0  0
   10.3246    0.3803    1.8381 C   0  0  0  0  0  0  0  0  0  0  0  0
    9.5794    0.4433   -1.7513 C   0  0  0  0  0  0  0  0  0  0  0  0
    8.0852    0.0526    3.0301 C   0  0  0  0  0  0  0  0  0  0  0  0
   11.9320   -0.2778   -2.4925 C   0  0  0  0  0  0  0  0  0  0  0  0
    9.6688    0.3875   -0.2263 C   0  0  0  0  0  0  0  0  0  0  0  0
    9.0051    0.2171    1.8208 C   0  0  0  0  0  0  0  0  0  0  0  0
   10.9547    0.6989   -2.3693 C   0  0  0  0  0  0  0  0  0  0  0  0
    6.5170    0.1785    1.8743 H   0  0  0  0  0  0  0  0  0  0  0  0
   14.2945    1.5102   -3.9708 H   0  0  0  0  0  0  0  0  0  0  0  0
   12.6182    3.2051   -3.7664 H   0  0  0  0  0  0  0  0  0  0  0  0
   13.8550   -0.6963   -3.1577 H   0  0  0  0  0  0  0  0  0  0  0  0
   10.5202    2.6903   -2.7560 H   0  0  0  0  0  0  0  0  0  0  0  0
   11.6753    0.6160    0.2740 H   0  0  0  0  0  0  0  0  0  0  0  0
   10.9057    0.4173    2.6511 H   0  0  0  0  0  0  0  0  0  0  0  0
    8.9591    1.1817   -2.0162 H   0  0  0  0  0  0  0  0  0  0  0  0
    9.2247   -0.4279   -2.0907 H   0  0  0  0  0  0  0  0  0  0  0  0
  1 13  1  0  0  0  0
  2 12  1  0  0  0  0
  3 12  2  0  0  0  0
  4 14  1  0  0  0  0
  4 15  1  0  0  0  0
  5  6  2  0  0  0  0
  5  7  1  0  0  0  0
  6  8  1  0  0  0  0
  7 13  2  0  0  0  0
  8 16  2  0  0  0  0
  9 10  1  0  0  0  0
  9 14  2  0  0  0  0
 10 15  2  0  0  0  0
 11 14  1  0  0  0  0
 11 16  1  0  0  0  0
 12 15  1  0  0  0  0
 13 16  1  0  0  0  0
  2 17  1  0  0  0  0
  5 18  1  0  0  0  0
  6 19  1  0  0  0  0
  7 20  1  0  0  0  0
  8 21  1  0  0  0  0
  9 22  1  0  0  0  0
 10 23  1  0  0  0  0
 11 24  1  0  0  0  0
 11 25  1  0  0  0  0
M  END
> <pdb_id>
2Q96

> <uniprot_id>
P0AE18

> <usmiles>
Clc1c(cccc1)CC=2OC(C(=O)O)=CC2

$$$$
A1N_A_301
          07192420463D 1   1.00000     0.00000     0
            
 53 57  0  0  0  0            999 V2000
   -2.7888   -4.5519   21.8301 O   0  0  0  0  0  0  0  0  0  0  0  0
    6.8745   -6.2983   14.9968 O   0  0  0  0  0  0  0  0  0  0  0  0
    5.4788   -3.0493   19.1668 N   0  0  0  0  0  0  0  0  0  0  0  0
    4.1692   -3.3600   19.3371 N   0  0  0  0  0  0  0  0  0  0  0  0
   -0.0422   -5.7760   17.9895 N   0  0  0  0  0  0  0  0  0  0  0  0
    2.1974   -5.5839   17.3105 N   0  0  0  0  0  0  0  0  0  0  0  0
   -0.7873   -4.8420   20.0011 N   0  0  0  0  0  0  0  0  0  0  0  0
   -4.3851   -5.8464   20.7191 C   0  0  0  0  0  0  0  0  0  0  0  0
   -1.5110   -3.4053   23.4704 C   0  0  0  0  0  0  0  0  0  0  0  0
    5.1782   -5.6428   13.3795 C   0  0  0  0  0  0  0  0  0  0  0  0
    0.9672   -5.9885   17.1557 C   0  0  0  0  0  0  0  0  0  0  0  0
   -2.0796   -5.4787   19.7570 C   0  0  0  0  0  0  0  0  0  0  0  0
   -0.5399   -4.0946   21.2517 C   0  0  0  0  0  0  0  0  0  0  0  0
    7.5493   -4.6455   16.5886 C   0  0  0  0  0  0  0  0  0  0  0  0
    7.3068   -3.7718   17.6436 C   0  0  0  0  0  0  0  0  0  0  0  0
    1.4820   -4.4739   19.2365 C   0  0  0  0  0  0  0  0  0  0  0  0
    5.2534   -5.4649   16.5879 C   0  0  0  0  0  0  0  0  0  0  0  0
    6.2285   -8.0697   13.6012 C   0  0  0  0  0  0  0  0  0  0  0  0
    5.0520   -7.9624   14.5046 C   0  0  0  0  0  0  0  0  0  0  0  0
   -2.9142   -5.6842   20.9924 C   0  0  1  0  0  0  0  0  0  0  0  0
   -1.4781   -4.4466   22.3734 C   0  0  2  0  0  0  0  0  0  0  0  0
    0.2406   -5.0028   19.0624 C   0  0  0  0  0  0  0  0  0  0  0  0
    6.5325   -5.4712   16.0888 C   0  0  0  0  0  0  0  0  0  0  0  0
    6.0272   -3.7901   18.1739 C   0  0  0  0  0  0  0  0  0  0  0  0
    2.4796   -4.7832   18.3420 C   0  0  0  0  0  0  0  0  0  0  0  0
    3.8381   -4.2900   18.4509 C   0  0  0  0  0  0  0  0  0  0  0  0
    4.9853   -4.6048   17.6714 C   0  0  0  0  0  0  0  0  0  0  0  0
    5.8365   -6.7583   14.1399 C   0  0  0  0  0  0  0  0  0  0  0  0
    5.9733   -2.3649   19.7027 H   0  0  0  0  0  0  0  0  0  0  0  0
   -4.5286   -6.6392   20.1267 H   0  0  0  0  0  0  0  0  0  0  0  0
   -4.8715   -5.9828   21.5821 H   0  0  0  0  0  0  0  0  0  0  0  0
   -4.7326   -5.0251   20.2668 H   0  0  0  0  0  0  0  0  0  0  0  0
   -0.5988   -3.3124   23.8694 H   0  0  0  0  0  0  0  0  0  0  0  0
   -1.7985   -2.5272   23.0880 H   0  0  0  0  0  0  0  0  0  0  0  0
   -2.1575   -3.6879   24.1791 H   0  0  0  0  0  0  0  0  0  0  0  0
    4.4590   -6.0173   12.7943 H   0  0  0  0  0  0  0  0  0  0  0  0
    4.7781   -4.9909   14.0237 H   0  0  0  0  0  0  0  0  0  0  0  0
    5.8593   -5.1774   12.8142 H   0  0  0  0  0  0  0  0  0  0  0  0
    0.7652   -6.5103   16.3269 H   0  0  0  0  0  0  0  0  0  0  0  0
   -1.9142   -6.3720   19.3390 H   0  0  0  0  0  0  0  0  0  0  0  0
   -2.5965   -4.9043   19.1223 H   0  0  0  0  0  0  0  0  0  0  0  0
   -0.6345   -3.1181   21.0580 H   0  0  0  0  0  0  0  0  0  0  0  0
    0.3945   -4.2858   21.5522 H   0  0  0  0  0  0  0  0  0  0  0  0
    8.4616   -4.6851   16.1810 H   0  0  0  0  0  0  0  0  0  0  0  0
    8.0169   -3.1642   17.9994 H   0  0  0  0  0  0  0  0  0  0  0  0
    1.6673   -3.8655   20.0082 H   0  0  0  0  0  0  0  0  0  0  0  0
    4.5404   -6.0475   16.1978 H   0  0  0  0  0  0  0  0  0  0  0  0
    6.0963   -8.2708   12.6306 H   0  0  0  0  0  0  0  0  0  0  0  0
    7.0662   -8.5115   13.9221 H   0  0  0  0  0  0  0  0  0  0  0  0
    5.0983   -8.3286   15.4340 H   0  0  0  0  0  0  0  0  0  0  0  0
    4.1284   -8.0880   14.1424 H   0  0  0  0  0  0  0  0  0  0  0  0
   -2.5816   -6.4908   21.4811 H   0  0  0  0  0  0  0  0  0  0  0  0
   -1.2106   -5.3279   22.7630 H   0  0  0  0  0  0  0  0  0  0  0  0
  1 20  1  0  0  0  0
  1 21  1  0  0  0  0
  2 23  1  0  0  0  0
  2 28  1  0  0  0  0
  3  4  1  0  0  0  0
  3 24  1  0  0  0  0
  4 26  2  0  0  0  0
  5 11  2  0  0  0  0
  5 22  1  0  0  0  0
  6 11  1  0  0  0  0
  6 25  2  0  0  0  0
  7 12  1  0  0  0  0
  7 13  1  0  0  0  0
  7 22  1  0  0  0  0
  8 20  1  0  0  0  0
  9 21  1  0  0  0  0
 10 28  1  0  0  0  0
 12 20  1  0  0  0  0
 13 21  1  0  0  0  0
 14 15  1  0  0  0  0
 14 23  2  0  0  0  0
 15 24  2  0  0  0  0
 16 22  2  0  0  0  0
 16 25  1  0  0  0  0
 17 23  1  0  0  0  0
 17 27  2  0  0  0  0
 18 19  1  0  0  0  0
 18 28  1  0  0  0  0
 19 28  1  0  0  0  0
 24 27  1  0  0  0  0
 25 26  1  0  0  0  0
 26 27  1  0  0  0  0
  3 29  1  0  0  0  0
  8 30  1  0  0  0  0
  8 31  1  0  0  0  0
  8 32  1  0  0  0  0
  9 33  1  0  0  0  0
  9 34  1  0  0  0  0
  9 35  1  0  0  0  0
 10 36  1  0  0  0  0
 10 37  1  0  0  0  0
 10 38  1  0  0  0  0
 11 39  1  0  0  0  0
 12 40  1  0  0  0  0
 12 41  1  0  0  0  0
 13 42  1  0  0  0  0
 13 43  1  0  0  0  0
 14 44  1  0  0  0  0
 15 45  1  0  0  0  0
 16 46  1  0  0  0  0
 17 47  1  0  0  0  0
 18 48  1  0  0  0  0
 18 49  1  0  0  0  0
 19 50  1  0  0  0  0
 19 51  1  0  0  0  0
 20 52  1  0  0  0  0
 21 53  1  0  0  0  0
M  END
> <pdb_id>
5OPB

> <uniprot_id>
O14757

> <usmiles>
O(c1cc2c(NN=C2c3ncnc(N4C[C@H](O[C@H](C4)C)C)c3)cc1)C5(CC5)C

$$$$
A1O_A_201
          07202407403D 1   1.00000     0.00000     0
            
 50 52  0  0  0  0            999 V2000
   17.7210  -15.6300  -10.8810 S   0  0  0  0  0  0  0  0  0  0  0  0
   17.1440  -16.7950  -10.1340 O   0  0  0  0  0  0  0  0  0  0  0  0
   16.6380  -14.9540  -11.6680 O   0  0  0  0  0  0  0  0  0  0  0  0
   21.6210  -11.9390  -17.5120 O   0  0  0  0  0  0  0  0  0  0  0  0
   18.8820  -16.1560  -11.8960 N   0  0  0  0  0  0  0  0  0  0  0  0
   20.1310  -13.2540  -16.4020 N   0  0  0  0  0  0  0  0  0  0  0  0
   17.8620  -11.6170  -19.0010 C   0  0  0  0  0  0  0  0  0  0  0  0
   20.1330   -9.5460  -12.3920 C   0  0  0  0  0  0  0  0  0  0  0  0
   18.4430  -14.4410   -9.6920 C   0  0  0  0  0  0  0  0  0  0  0  0
   19.1690  -13.1890  -17.5250 C   0  0  0  0  0  0  0  0  0  0  0  0
   18.8030  -11.7290  -17.7990 C   0  0  0  0  0  0  0  0  0  0  0  0
   22.3730  -12.6310  -15.3490 C   0  0  0  0  0  0  0  0  0  0  0  0
   18.1780  -15.1060  -13.8830 C   0  0  0  0  0  0  0  0  0  0  0  0
   18.4960  -14.3740  -15.0190 C   0  0  0  0  0  0  0  0  0  0  0  0
   18.3490  -11.0260  -11.3800 C   0  0  0  0  0  0  0  0  0  0  0  0
   20.6300  -11.7960  -11.3470 C   0  0  0  0  0  0  0  0  0  0  0  0
   17.9470  -12.1910  -10.7370 C   0  0  0  0  0  0  0  0  0  0  0  0
   20.2280  -12.9610  -10.7040 C   0  0  0  0  0  0  0  0  0  0  0  0
   22.2800  -13.9460  -14.5730 C   0  0  0  0  0  0  0  0  0  0  0  0
   20.4940  -15.0710  -13.2280 C   0  0  0  0  0  0  0  0  0  0  0  0
   21.3580  -12.5810  -16.4970 C   0  0  0  0  0  0  0  0  0  0  0  0
   19.1800  -15.4550  -12.9860 C   0  0  0  0  0  0  0  0  0  0  0  0
   19.8120  -13.9920  -15.2560 C   0  0  0  0  0  0  0  0  0  0  0  0
   19.6910  -10.8290  -11.6850 C   0  0  0  0  0  0  0  0  0  0  0  0
   18.8860  -13.1590  -10.3990 C   0  0  0  0  0  0  0  0  0  0  0  0
   20.8200  -14.3380  -14.3640 C   0  0  0  0  0  0  0  0  0  0  0  0
   19.3705  -17.0061  -11.6992 H   0  0  0  0  0  0  0  0  0  0  0  0
   17.6375  -10.6556  -19.1601 H   0  0  0  0  0  0  0  0  0  0  0  0
   18.3106  -11.9931  -19.8117 H   0  0  0  0  0  0  0  0  0  0  0  0
   17.0231  -12.1291  -18.8165 H   0  0  0  0  0  0  0  0  0  0  0  0
   21.1227   -9.5676  -12.5338 H   0  0  0  0  0  0  0  0  0  0  0  0
   19.6710   -9.4765  -13.2761 H   0  0  0  0  0  0  0  0  0  0  0  0
   19.8942   -8.7554  -11.8281 H   0  0  0  0  0  0  0  0  0  0  0  0
   19.2355  -14.8611   -9.2498 H   0  0  0  0  0  0  0  0  0  0  0  0
   17.7575  -14.2129   -9.0006 H   0  0  0  0  0  0  0  0  0  0  0  0
   18.3434  -13.7006  -17.2868 H   0  0  0  0  0  0  0  0  0  0  0  0
   19.5839  -13.5878  -18.3428 H   0  0  0  0  0  0  0  0  0  0  0  0
   18.3505  -11.3482  -16.9926 H   0  0  0  0  0  0  0  0  0  0  0  0
   19.6380  -11.2122  -17.9879 H   0  0  0  0  0  0  0  0  0  0  0  0
   23.2947  -12.5412  -15.7264 H   0  0  0  0  0  0  0  0  0  0  0  0
   22.1935  -11.8716  -14.7236 H   0  0  0  0  0  0  0  0  0  0  0  0
   17.2320  -15.3808  -13.7111 H   0  0  0  0  0  0  0  0  0  0  0  0
   17.7780  -14.1212  -15.6675 H   0  0  0  0  0  0  0  0  0  0  0  0
   17.6733  -10.3300  -11.6230 H   0  0  0  0  0  0  0  0  0  0  0  0
   21.5952  -11.6537  -11.5664 H   0  0  0  0  0  0  0  0  0  0  0  0
   16.9818  -12.3329  -10.5174 H   0  0  0  0  0  0  0  0  0  0  0  0
   20.9040  -13.6566  -10.4608 H   0  0  0  0  0  0  0  0  0  0  0  0
   22.7222  -13.8354  -13.6829 H   0  0  0  0  0  0  0  0  0  0  0  0
   22.7441  -14.6664  -15.0885 H   0  0  0  0  0  0  0  0  0  0  0  0
   21.2115  -15.3242  -12.5791 H   0  0  0  0  0  0  0  0  0  0  0  0
  1  2  2  0  0  0  0
  1  3  2  0  0  0  0
  1  5  1  0  0  0  0
  1  9  1  0  0  0  0
  4 21  2  0  0  0  0
  5 22  1  0  0  0  0
  6 10  1  0  0  0  0
  6 21  1  0  0  0  0
  6 23  1  0  0  0  0
  7 11  1  0  0  0  0
  8 24  1  0  0  0  0
  9 25  1  0  0  0  0
 10 11  1  0  0  0  0
 12 19  1  0  0  0  0
 12 21  1  0  0  0  0
 13 14  1  0  0  0  0
 13 22  2  0  0  0  0
 14 23  2  0  0  0  0
 15 17  1  0  0  0  0
 15 24  2  0  0  0  0
 16 18  2  0  0  0  0
 16 24  1  0  0  0  0
 17 25  2  0  0  0  0
 18 25  1  0  0  0  0
 19 26  1  0  0  0  0
 20 22  1  0  0  0  0
 20 26  2  0  0  0  0
 23 26  1  0  0  0  0
  5 27  1  0  0  0  0
  7 28  1  0  0  0  0
  7 29  1  0  0  0  0
  7 30  1  0  0  0  0
  8 31  1  0  0  0  0
  8 32  1  0  0  0  0
  8 33  1  0  0  0  0
  9 34  1  0  0  0  0
  9 35  1  0  0  0  0
 10 36  1  0  0  0  0
 10 37  1  0  0  0  0
 11 38  1  0  0  0  0
 11 39  1  0  0  0  0
 12 40  1  0  0  0  0
 12 41  1  0  0  0  0
 13 42  1  0  0  0  0
 14 43  1  0  0  0  0
 15 44  1  0  0  0  0
 16 45  1  0  0  0  0
 17 46  1  0  0  0  0
 18 47  1  0  0  0  0
 19 48  1  0  0  0  0
 19 49  1  0  0  0  0
 20 50  1  0  0  0  0
M  END
> <pdb_id>
4LA7

> <uniprot_id>
O80992

> <usmiles>
S(=O)(=O)(Nc1cc2c(N(C(=O)CC2)CCC)cc1)Cc3ccc(cc3)C

$$$$
A21_B_293
          07202412553D 1   1.00000     0.00000     0
            
 33 34  0  0  0  0            999 V2000
   52.5185   22.8892   40.0413 S   0  0  0  0  0  0  0  0  0  0  0  0
   51.4521   26.8459   39.3963 F   0  0  0  0  0  0  0  0  0  0  0  0
   52.9650   20.8397   37.9143 F   0  0  0  0  0  0  0  0  0  0  0  0
   51.5128   20.0509   39.2554 F   0  0  0  0  0  0  0  0  0  0  0  0
   53.4403   19.1835   39.2104 F   0  0  0  0  0  0  0  0  0  0  0  0
   53.3028   19.7034   41.9862 O   0  0  0  0  0  0  0  0  0  0  0  0
   52.1453   21.6394   42.2302 N   0  0  0  0  0  0  0  0  0  0  0  0
   51.2464   23.7405   42.1611 N   0  0  0  0  0  0  0  0  0  0  0  0
   49.8078   25.6995   42.1876 C   0  0  0  0  0  0  0  0  0  0  0  0
   54.7947   21.4803   40.0994 C   0  0  0  0  0  0  0  0  0  0  0  0
   54.2943   27.6518   41.4980 C   0  0  0  0  0  0  0  0  0  0  0  0
   54.1071   26.7559   42.5383 C   0  0  0  0  0  0  0  0  0  0  0  0
   53.3933   27.6796   40.4369 C   0  0  0  0  0  0  0  0  0  0  0  0
   53.0306   25.8875   42.5326 C   0  0  0  0  0  0  0  0  0  0  0  0
   51.9281   22.7313   41.6031 C   0  0  0  0  0  0  0  0  0  0  0  0
   52.3137   26.8129   40.4366 C   0  0  0  0  0  0  0  0  0  0  0  0
   52.9142   20.7841   41.5723 C   0  0  0  0  0  0  0  0  0  0  0  0
   50.9607   24.9967   41.4877 C   0  0  1  0  0  0  0  0  0  0  0  0
   52.1254   25.9125   41.4892 C   0  0  0  0  0  0  0  0  0  0  0  0
   52.7887   20.3292   39.1150 C   0  0  0  0  0  0  0  0  0  0  0  0
   53.2806   21.2980   40.1978 C   0  0  1  0  0  0  0  0  0  0  0  0
   50.9142   23.6226   43.0969 H   0  0  0  0  0  0  0  0  0  0  0  0
   49.6127   26.5633   41.7231 H   0  0  0  0  0  0  0  0  0  0  0  0
   48.9962   25.1160   42.1610 H   0  0  0  0  0  0  0  0  0  0  0  0
   50.0566   25.8814   43.1389 H   0  0  0  0  0  0  0  0  0  0  0  0
   55.2438   20.5911   40.1857 H   0  0  0  0  0  0  0  0  0  0  0  0
   55.0248   21.8855   39.2146 H   0  0  0  0  0  0  0  0  0  0  0  0
   55.1062   22.0837   40.8335 H   0  0  0  0  0  0  0  0  0  0  0  0
   55.0747   28.2770   41.5093 H   0  0  0  0  0  0  0  0  0  0  0  0
   54.7555   26.7370   43.2994 H   0  0  0  0  0  0  0  0  0  0  0  0
   53.5250   28.3206   39.6807 H   0  0  0  0  0  0  0  0  0  0  0  0
   52.9072   25.2405   43.2850 H   0  0  0  0  0  0  0  0  0  0  0  0
   50.6987   24.8059   40.5417 H   0  0  0  0  0  0  0  0  0  0  0  0
  1 15  1  0  0  0  0
  1 21  1  0  0  0  0
  2 16  1  0  0  0  0
  3 20  1  0  0  0  0
  4 20  1  0  0  0  0
  5 20  1  0  0  0  0
  6 17  2  0  0  0  0
  7 15  2  0  0  0  0
  7 17  1  0  0  0  0
  8 15  1  0  0  0  0
  8 18  1  0  0  0  0
  9 18  1  0  0  0  0
 10 21  1  0  0  0  0
 11 12  2  0  0  0  0
 11 13  1  0  0  0  0
 12 14  1  0  0  0  0
 13 16  2  0  0  0  0
 14 19  2  0  0  0  0
 16 19  1  0  0  0  0
 17 21  1  0  0  0  0
 18 19  1  0  0  0  0
 20 21  1  0  0  0  0
  8 22  1  0  0  0  0
  9 23  1  0  0  0  0
  9 24  1  0  0  0  0
  9 25  1  0  0  0  0
 10 26  1  0  0  0  0
 10 27  1  0  0  0  0
 10 28  1  0  0  0  0
 11 29  1  0  0  0  0
 12 30  1  0  0  0  0
 13 31  1  0  0  0  0
 14 32  1  0  0  0  0
 18 33  1  0  0  0  0
M  END
> <pdb_id>
3BZU

> <uniprot_id>
P28845

> <usmiles>
S1C(=NC(=O)[C@]1(C(F)(F)F)C)N[C@H](c2c(F)cccc2)C

$$$$
A2K_B_1933
          07192422213D 1   1.00000     0.00000     0
            
 75 81  0  0  0  0            999 V2000
    9.5080    8.2060   37.6920 O   0  0  0  0  0  0  0  0  0  0  0  0
    5.5520    4.2430   47.6870 O   0  0  0  0  0  0  0  0  0  0  0  0
    5.5140   -2.7500   41.3420 N   0  0  0  0  0  0  0  0  0  0  0  0
    8.8790    6.7580   48.4950 C   0  0  0  0  0  0  0  0  0  0  0  0
    6.5080    3.5560   44.8510 C   0  0  0  0  0  0  0  0  0  0  0  0
    4.3120   -3.2890   41.4870 C   0  0  0  0  0  0  0  0  0  0  0  0
    5.7090   -1.4380   41.4280 C   0  0  0  0  0  0  0  0  0  0  0  0
    3.2230   -2.4620   41.7100 C   0  0  0  0  0  0  0  0  0  0  0  0
    8.2710    6.8190   47.3300 C   0  0  0  0  0  0  0  0  0  0  0  0
    3.4020   -1.0750   41.8050 C   0  0  0  0  0  0  0  0  0  0  0  0
    7.4760    7.5220   38.7650 C   0  0  0  0  0  0  0  0  0  0  0  0
    2.9220    4.3900   46.7160 C   0  0  0  0  0  0  0  0  0  0  0  0
    2.9880    5.5190   47.7400 C   0  0  0  0  0  0  0  0  0  0  0  0
    4.1860    1.7680   42.5280 C   0  0  0  0  0  0  0  0  0  0  0  0
    6.0680    1.4570   41.0840 C   0  0  0  0  0  0  0  0  0  0  0  0
    4.4880    3.1300   42.6530 C   0  0  0  0  0  0  0  0  0  0  0  0
    6.3850    2.8120   41.2250 C   0  0  0  0  0  0  0  0  0  0  0  0
   10.2780    5.3180   41.3370 C   0  0  0  0  0  0  0  0  0  0  0  0
    7.0110    6.3230   39.5770 C   0  0  0  0  0  0  0  0  0  0  0  0
    9.8510    5.4760   42.7590 C   0  0  0  0  0  0  0  0  0  0  0  0
    9.8020    6.7810   39.5170 C   0  0  0  0  0  0  0  0  0  0  0  0
    8.7890    5.1720   45.5310 C   0  0  0  0  0  0  0  0  0  0  0  0
    5.6440    5.6390   43.5730 C   0  0  0  0  0  0  0  0  0  0  0  0
    8.9740    7.5450   38.5860 C   0  0  0  0  0  0  0  0  0  0  0  0
    5.3430    5.0900   46.8470 C   0  0  0  0  0  0  0  0  0  0  0  0
    4.6720   -0.5400   41.6450 C   0  0  0  0  0  0  0  0  0  0  0  0
    3.9470    5.5080   46.5610 C   0  0  0  0  0  0  0  0  0  0  0  0
    4.9650    0.9100   41.7390 C   0  0  0  0  0  0  0  0  0  0  0  0
    5.6090    3.6810   42.0120 C   0  0  0  0  0  0  0  0  0  0  0  0
    9.2730    6.0510   40.5010 C   0  0  0  0  0  0  0  0  0  0  0  0
    7.8290    5.5350   46.6600 C   0  0  2  0  0  0  0  0  0  0  0  0
    7.9420    5.9180   40.7120 C   0  0  0  0  0  0  0  0  0  0  0  0
    8.4260    4.9580   42.9600 C   0  0  1  0  0  0  0  0  0  0  0  0
    5.9700    5.1340   42.1470 C   0  0  2  0  0  0  0  0  0  0  0  0
    7.9610    5.5090   44.2990 C   0  0  1  0  0  0  0  0  0  0  0  0
    7.4540    5.3760   41.8610 C   0  0  0  0  0  0  0  0  0  0  0  0
    6.4430    5.7170   46.0400 C   0  0  1  0  0  0  0  0  0  0  0  0
    6.5650    5.0780   44.6680 C   0  0  2  0  0  0  0  0  0  0  0  0
    9.1762    7.5982   48.9485 H   0  0  0  0  0  0  0  0  0  0  0  0
    9.0440    5.8714   48.9271 H   0  0  0  0  0  0  0  0  0  0  0  0
    7.1362    3.2842   45.5800 H   0  0  0  0  0  0  0  0  0  0  0  0
    5.5770    3.2842   45.0947 H   0  0  0  0  0  0  0  0  0  0  0  0
    6.7736    3.1075   43.9976 H   0  0  0  0  0  0  0  0  0  0  0  0
    4.1925   -4.2805   41.4361 H   0  0  0  0  0  0  0  0  0  0  0  0
    6.6392   -1.0835   41.3327 H   0  0  0  0  0  0  0  0  0  0  0  0
    2.3082   -2.8551   41.8033 H   0  0  0  0  0  0  0  0  0  0  0  0
    8.1028    7.7023   46.8924 H   0  0  0  0  0  0  0  0  0  0  0  0
    2.6215   -0.4767   41.9864 H   0  0  0  0  0  0  0  0  0  0  0  0
    7.1954    8.3581   39.2363 H   0  0  0  0  0  0  0  0  0  0  0  0
    7.0447    7.4868   37.8635 H   0  0  0  0  0  0  0  0  0  0  0  0
    2.1476    4.3300   46.0862 H   0  0  0  0  0  0  0  0  0  0  0  0
    3.2200    3.4689   46.9665 H   0  0  0  0  0  0  0  0  0  0  0  0
    3.3282    5.3376   48.6627 H   0  0  0  0  0  0  0  0  0  0  0  0
    2.2558    6.1988   47.7823 H   0  0  0  0  0  0  0  0  0  0  0  0
    3.3943    1.3980   43.0141 H   0  0  0  0  0  0  0  0  0  0  0  0
    6.6391    0.8735   40.5066 H   0  0  0  0  0  0  0  0  0  0  0  0
    3.8974    3.7176   43.2061 H   0  0  0  0  0  0  0  0  0  0  0  0
    7.1881    3.1737   40.7516 H   0  0  0  0  0  0  0  0  0  0  0  0
   10.2933    4.3498   41.0874 H   0  0  0  0  0  0  0  0  0  0  0  0
   11.1881    5.7107   41.2049 H   0  0  0  0  0  0  0  0  0  0  0  0
    6.9201    5.5440   38.9566 H   0  0  0  0  0  0  0  0  0  0  0  0
    6.1181    6.5417   39.9705 H   0  0  0  0  0  0  0  0  0  0  0  0
    9.8855    6.4444   43.0058 H   0  0  0  0  0  0  0  0  0  0  0  0
   10.4734    4.9597   43.3473 H   0  0  0  0  0  0  0  0  0  0  0  0
   10.7963    6.8061   39.4134 H   0  0  0  0  0  0  0  0  0  0  0  0
    9.0286    4.2014   45.5545 H   0  0  0  0  0  0  0  0  0  0  0  0
    9.6230    5.7223   45.5710 H   0  0  0  0  0  0  0  0  0  0  0  0
    4.7035    5.3778   43.7905 H   0  0  0  0  0  0  0  0  0  0  0  0
    5.7226    6.6359   43.5779 H   0  0  0  0  0  0  0  0  0  0  0  0
    3.8002    6.1783   45.8336 H   0  0  0  0  0  0  0  0  0  0  0  0
    7.8035    4.7951   47.3322 H   0  0  0  0  0  0  0  0  0  0  0  0
    8.4482    3.9595   43.0105 H   0  0  0  0  0  0  0  0  0  0  0  0
    5.4287    5.6596   41.4908 H   0  0  0  0  0  0  0  0  0  0  0  0
    7.9484    6.5056   44.2177 H   0  0  0  0  0  0  0  0  0  0  0  0
    6.2564    6.6936   45.9326 H   0  0  0  0  0  0  0  0  0  0  0  0
  1 24  2  0  0  0  0
  2 25  2  0  0  0  0
  3  6  2  0  0  0  0
  3  7  1  0  0  0  0
  4  9  2  0  0  0  0
  5 38  1  0  0  0  0
  6  8  1  0  0  0  0
  7 26  2  0  0  0  0
  8 10  2  0  0  0  0
  9 31  1  0  0  0  0
 10 26  1  0  0  0  0
 11 19  1  0  0  0  0
 11 24  1  0  0  0  0
 12 13  1  0  0  0  0
 12 27  1  0  0  0  0
 13 27  1  0  0  0  0
 14 16  1  0  0  0  0
 14 28  2  0  0  0  0
 15 17  2  0  0  0  0
 15 28  1  0  0  0  0
 16 29  2  0  0  0  0
 17 29  1  0  0  0  0
 18 20  1  0  0  0  0
 18 30  1  0  0  0  0
 19 32  1  0  0  0  0
 20 33  1  0  0  0  0
 21 24  1  0  0  0  0
 21 30  2  0  0  0  0
 22 31  1  0  0  0  0
 22 35  1  0  0  0  0
 23 34  1  0  0  0  0
 23 38  1  0  0  0  0
 25 27  1  0  0  0  0
 25 37  1  0  0  0  0
 26 28  1  0  0  0  0
 29 34  1  0  0  0  0
 30 32  1  0  0  0  0
 31 37  1  0  0  0  0
 32 36  2  0  0  0  0
 33 35  1  0  0  0  0
 33 36  1  0  0  0  0
 34 36  1  0  0  0  0
 35 38  1  0  0  0  0
 37 38  1  0  0  0  0
  4 39  1  0  0  0  0
  4 40  1  0  0  0  0
  5 41  1  0  0  0  0
  5 42  1  0  0  0  0
  5 43  1  0  0  0  0
  6 44  1  0  0  0  0
  7 45  1  0  0  0  0
  8 46  1  0  0  0  0
  9 47  1  0  0  0  0
 10 48  1  0  0  0  0
 11 49  1  0  0  0  0
 11 50  1  0  0  0  0
 12 51  1  0  0  0  0
 12 52  1  0  0  0  0
 13 53  1  0  0  0  0
 13 54  1  0  0  0  0
 14 55  1  0  0  0  0
 15 56  1  0  0  0  0
 16 57  1  0  0  0  0
 17 58  1  0  0  0  0
 18 59  1  0  0  0  0
 18 60  1  0  0  0  0
 19 61  1  0  0  0  0
 19 62  1  0  0  0  0
 20 63  1  0  0  0  0
 20 64  1  0  0  0  0
 21 65  1  0  0  0  0
 22 66  1  0  0  0  0
 22 67  1  0  0  0  0
 23 68  1  0  0  0  0
 23 69  1  0  0  0  0
 27 70  1  0  0  0  0
 31 71  1  0  0  0  0
 33 72  1  0  0  0  0
 34 73  1  0  0  0  0
 35 74  1  0  0  0  0
 37 75  1  0  0  0  0
M  END
> <pdb_id>
4APU

> <uniprot_id>
P06401

> <usmiles>
O=C1C=C2C(=C3[C@@H](c4ccc(c5cnccc5)cc4)C[C@@]6([C@@H](C(=O)C7CC7)[C@H](C=C)C[C@H]6[C@@H]3CC2)C)CC1

$$$$
A3H_A_301
          07192420463D 1   1.00000     0.00000     0
            
 41 44  0  0  0  0            999 V2000
    7.9362   -5.9422   16.2129 N   0  0  0  0  0  0  0  0  0  0  0  0
    0.2133   -5.4427   19.2856 N   0  0  0  0  0  0  0  0  0  0  0  0
    6.1629   -2.5723   19.0298 N   0  0  0  0  0  0  0  0  0  0  0  0
    1.6896   -3.5953   19.8334 N   0  0  0  0  0  0  0  0  0  0  0  0
    3.8550   -3.1609   19.4508 N   0  0  0  0  0  0  0  0  0  0  0  0
   -1.0371   -5.7593   19.6338 N   0  0  0  0  0  0  0  0  0  0  0  0
   -1.7789   -6.9283   19.1712 C   0  0  0  0  0  0  0  0  0  0  0  0
    5.4372   -6.8619   13.2622 C   0  0  0  0  0  0  0  0  0  0  0  0
    7.3511   -5.2262   16.8984 C   0  0  0  0  0  0  0  0  0  0  0  0
    7.1535   -3.1934   18.3394 C   0  0  0  0  0  0  0  0  0  0  0  0
   -1.5490   -4.8354   20.4837 C   0  0  0  0  0  0  0  0  0  0  0  0
    3.8633   -8.7321   16.2169 C   0  0  0  0  0  0  0  0  0  0  0  0
   -0.5629   -3.8833   20.6468 C   0  0  0  0  0  0  0  0  0  0  0  0
    4.3812   -8.4831   14.9543 C   0  0  0  0  0  0  0  0  0  0  0  0
    3.7887   -7.7456   17.2001 C   0  0  0  0  0  0  0  0  0  0  0  0
    2.9420   -5.1182   18.3433 C   0  0  0  0  0  0  0  0  0  0  0  0
    4.7903   -6.2433   15.6406 C   0  0  0  0  0  0  0  0  0  0  0  0
    0.5140   -4.3011   19.8850 C   0  0  0  0  0  0  0  0  0  0  0  0
    2.8189   -4.0050   19.2028 C   0  0  0  0  0  0  0  0  0  0  0  0
    5.0635   -3.3192   18.9226 C   0  0  0  0  0  0  0  0  0  0  0  0
    4.8270   -7.2256   14.6474 C   0  0  0  0  0  0  0  0  0  0  0  0
    6.6199   -4.3250   17.7444 C   0  0  0  0  0  0  0  0  0  0  0  0
    4.3065   -6.4803   16.9243 C   0  0  0  0  0  0  0  0  0  0  0  0
    4.2219   -5.3141   17.8359 C   0  0  0  0  0  0  0  0  0  0  0  0
    5.2748   -4.4140   18.0819 C   0  0  0  0  0  0  0  0  0  0  0  0
    6.2435   -1.7097   19.5291 H   0  0  0  0  0  0  0  0  0  0  0  0
    1.7161   -2.7096   20.2968 H   0  0  0  0  0  0  0  0  0  0  0  0
   -2.6905   -6.9288   19.5821 H   0  0  0  0  0  0  0  0  0  0  0  0
   -1.8623   -6.8975   18.1751 H   0  0  0  0  0  0  0  0  0  0  0  0
   -1.2920   -7.7596   19.4393 H   0  0  0  0  0  0  0  0  0  0  0  0
    5.6950   -5.8958   13.2547 H   0  0  0  0  0  0  0  0  0  0  0  0
    6.2474   -7.4244   13.0968 H   0  0  0  0  0  0  0  0  0  0  0  0
    4.7613   -7.0321   12.5451 H   0  0  0  0  0  0  0  0  0  0  0  0
    8.1031   -2.8873   18.2722 H   0  0  0  0  0  0  0  0  0  0  0  0
   -2.4554   -4.8422   20.9060 H   0  0  0  0  0  0  0  0  0  0  0  0
    3.5317   -9.6512   16.4296 H   0  0  0  0  0  0  0  0  0  0  0  0
   -0.6162   -3.0554   21.2051 H   0  0  0  0  0  0  0  0  0  0  0  0
    4.4285   -9.2152   14.2747 H   0  0  0  0  0  0  0  0  0  0  0  0
    3.3713   -7.9421   18.0873 H   0  0  0  0  0  0  0  0  0  0  0  0
    2.1728   -5.7161   18.1180 H   0  0  0  0  0  0  0  0  0  0  0  0
    5.1271   -5.3281   15.4191 H   0  0  0  0  0  0  0  0  0  0  0  0
  1  9  3  0  0  0  0
  2  6  1  0  0  0  0
  2 18  2  0  0  0  0
  3 10  1  0  0  0  0
  3 20  1  0  0  0  0
  4 18  1  0  0  0  0
  4 19  1  0  0  0  0
  5 19  1  0  0  0  0
  5 20  2  0  0  0  0
  6  7  1  0  0  0  0
  6 11  1  0  0  0  0
  8 21  1  0  0  0  0
  9 22  1  0  0  0  0
 10 22  2  0  0  0  0
 11 13  2  0  0  0  0
 12 14  1  0  0  0  0
 12 15  2  0  0  0  0
 13 18  1  0  0  0  0
 14 21  2  0  0  0  0
 15 23  1  0  0  0  0
 16 19  2  0  0  0  0
 16 24  1  0  0  0  0
 17 21  1  0  0  0  0
 17 23  2  0  0  0  0
 20 25  1  0  0  0  0
 22 25  1  0  0  0  0
 23 24  1  0  0  0  0
 24 25  2  0  0  0  0
  3 26  1  0  0  0  0
  4 27  1  0  0  0  0
  7 28  1  0  0  0  0
  7 29  1  0  0  0  0
  7 30  1  0  0  0  0
  8 31  1  0  0  0  0
  8 32  1  0  0  0  0
  8 33  1  0  0  0  0
 10 34  1  0  0  0  0
 11 35  1  0  0  0  0
 12 36  1  0  0  0  0
 13 37  1  0  0  0  0
 14 38  1  0  0  0  0
 15 39  1  0  0  0  0
 16 40  1  0  0  0  0
 17 41  1  0  0  0  0
M  END
> <pdb_id>
5OPV

> <uniprot_id>
O14757

> <usmiles>
N#CC=1c2c(nc(NC3=NN(C=C3)C)cc2c4cc(ccc4)C)NC1

$$$$
A3K_A_301
          07192420463D 1   1.00000     0.00000     0
            
 31 33  0  0  0  0            999 V2000
    8.1821   -5.7144   15.9864 N   0  0  0  0  0  0  0  0  0  0  0  0
    1.8038   -3.9724   19.8365 N   0  0  0  0  0  0  0  0  0  0  0  0
    6.2254   -2.6549   18.9236 N   0  0  0  0  0  0  0  0  0  0  0  0
    3.9303   -3.2340   19.4995 N   0  0  0  0  0  0  0  0  0  0  0  0
    5.4088   -6.8180   13.0450 C   0  0  0  0  0  0  0  0  0  0  0  0
    7.5245   -5.0728   16.6884 C   0  0  0  0  0  0  0  0  0  0  0  0
    7.2035   -3.1747   18.1846 C   0  0  0  0  0  0  0  0  0  0  0  0
    4.0800   -8.8076   16.0558 C   0  0  0  0  0  0  0  0  0  0  0  0
    4.5356   -8.4401   14.7505 C   0  0  0  0  0  0  0  0  0  0  0  0
    3.9930   -7.8273   16.9919 C   0  0  0  0  0  0  0  0  0  0  0  0
    3.0920   -5.2703   18.3498 C   0  0  0  0  0  0  0  0  0  0  0  0
    4.8607   -6.1428   15.4623 C   0  0  0  0  0  0  0  0  0  0  0  0
    2.9960   -4.1296   19.2663 C   0  0  0  0  0  0  0  0  0  0  0  0
    5.1543   -3.4071   18.9461 C   0  0  0  0  0  0  0  0  0  0  0  0
    4.9152   -7.1623   14.4837 C   0  0  0  0  0  0  0  0  0  0  0  0
    6.6949   -4.3160   17.6296 C   0  0  0  0  0  0  0  0  0  0  0  0
    4.4078   -6.5285   16.7932 C   0  0  0  0  0  0  0  0  0  0  0  0
    4.3203   -5.4220   17.7681 C   0  0  0  0  0  0  0  0  0  0  0  0
    5.3622   -4.4737   18.0281 C   0  0  0  0  0  0  0  0  0  0  0  0
    1.0791   -4.6416   19.6727 H   0  0  0  0  0  0  0  0  0  0  0  0
    1.6328   -3.1850   20.4287 H   0  0  0  0  0  0  0  0  0  0  0  0
    6.3009   -1.7839   19.4090 H   0  0  0  0  0  0  0  0  0  0  0  0
    5.6519   -5.8491   12.9989 H   0  0  0  0  0  0  0  0  0  0  0  0
    6.2108   -7.3737   12.8258 H   0  0  0  0  0  0  0  0  0  0  0  0
    4.6802   -7.0104   12.3877 H   0  0  0  0  0  0  0  0  0  0  0  0
    8.1243   -2.8049   18.0605 H   0  0  0  0  0  0  0  0  0  0  0  0
    3.8343   -9.7527   16.2715 H   0  0  0  0  0  0  0  0  0  0  0  0
    4.5752   -9.1297   14.0274 H   0  0  0  0  0  0  0  0  0  0  0  0
    3.6031   -8.0632   17.8821 H   0  0  0  0  0  0  0  0  0  0  0  0
    2.3248   -5.8848   18.1658 H   0  0  0  0  0  0  0  0  0  0  0  0
    5.1208   -5.2006   15.2511 H   0  0  0  0  0  0  0  0  0  0  0  0
  1  6  3  0  0  0  0
  2 13  1  0  0  0  0
  3  7  1  0  0  0  0
  3 14  1  0  0  0  0
  4 13  1  0  0  0  0
  4 14  2  0  0  0  0
  5 15  1  0  0  0  0
  6 16  1  0  0  0  0
  7 16  2  0  0  0  0
  8  9  1  0  0  0  0
  8 10  2  0  0  0  0
  9 15  2  0  0  0  0
 10 17  1  0  0  0  0
 11 13  2  0  0  0  0
 11 18  1  0  0  0  0
 12 15  1  0  0  0  0
 12 17  2  0  0  0  0
 14 19  1  0  0  0  0
 16 19  1  0  0  0  0
 17 18  1  0  0  0  0
 18 19  2  0  0  0  0
  2 20  1  0  0  0  0
  2 21  1  0  0  0  0
  3 22  1  0  0  0  0
  5 23  1  0  0  0  0
  5 24  1  0  0  0  0
  5 25  1  0  0  0  0
  7 26  1  0  0  0  0
  8 27  1  0  0  0  0
  9 28  1  0  0  0  0
 10 29  1  0  0  0  0
 11 30  1  0  0  0  0
 12 31  1  0  0  0  0
M  END
> <pdb_id>
5OPU

> <uniprot_id>
O14757

> <usmiles>
N#CC=1c2c(nc(N)cc2c3cc(ccc3)C)NC1

$$$$
A3Q_A_301
          07192420463D 1   1.00000     0.00000     0
            
 27 29  0  0  0  0            999 V2000
    5.2817   -7.0923   13.9854 O   0  0  0  0  0  0  0  0  0  0  0  0
    7.8799   -5.6901   16.2777 N   0  0  0  0  0  0  0  0  0  0  0  0
    4.1839   -2.8632   19.8082 N   0  0  0  0  0  0  0  0  0  0  0  0
    6.4118   -2.3725   19.1272 N   0  0  0  0  0  0  0  0  0  0  0  0
    7.3729   -4.9505   16.9734 C   0  0  0  0  0  0  0  0  0  0  0  0
    3.1600   -3.6987   19.7052 C   0  0  0  0  0  0  0  0  0  0  0  0
    3.8790   -8.5951   16.9748 C   0  0  0  0  0  0  0  0  0  0  0  0
    7.2869   -2.9793   18.3345 C   0  0  0  0  0  0  0  0  0  0  0  0
    4.3235   -8.4567   15.6646 C   0  0  0  0  0  0  0  0  0  0  0  0
    3.2723   -4.8331   18.9208 C   0  0  0  0  0  0  0  0  0  0  0  0
    3.8992   -7.4743   17.8127 C   0  0  0  0  0  0  0  0  0  0  0  0
    4.8718   -6.1409   16.0804 C   0  0  0  0  0  0  0  0  0  0  0  0
    4.8326   -7.2475   15.2409 C   0  0  0  0  0  0  0  0  0  0  0  0
    5.3092   -3.0853   19.1646 C   0  0  0  0  0  0  0  0  0  0  0  0
    6.7409   -4.0834   17.8724 C   0  0  0  0  0  0  0  0  0  0  0  0
    4.4283   -6.2684   17.3940 C   0  0  0  0  0  0  0  0  0  0  0  0
    4.4396   -5.0984   18.2539 C   0  0  0  0  0  0  0  0  0  0  0  0
    5.4747   -4.1961   18.3635 C   0  0  0  0  0  0  0  0  0  0  0  0
    5.6486   -6.2097   13.6912 H   0  0  0  0  0  0  0  0  0  0  0  0
    6.5667   -1.5138   19.6157 H   0  0  0  0  0  0  0  0  0  0  0  0
    2.3080   -3.5097   20.1935 H   0  0  0  0  0  0  0  0  0  0  0  0
    3.5514   -9.4778   17.3116 H   0  0  0  0  0  0  0  0  0  0  0  0
    8.2079   -2.6517   18.1237 H   0  0  0  0  0  0  0  0  0  0  0  0
    4.2741   -9.2303   15.0329 H   0  0  0  0  0  0  0  0  0  0  0  0
    2.4987   -5.4616   18.8403 H   0  0  0  0  0  0  0  0  0  0  0  0
    3.5220   -7.5479   18.7359 H   0  0  0  0  0  0  0  0  0  0  0  0
    5.2145   -5.2633   15.7451 H   0  0  0  0  0  0  0  0  0  0  0  0
  1 13  1  0  0  0  0
  2  5  3  0  0  0  0
  3  6  1  0  0  0  0
  3 14  2  0  0  0  0
  4  8  1  0  0  0  0
  4 14  1  0  0  0  0
  5 15  1  0  0  0  0
  6 10  2  0  0  0  0
  7  9  1  0  0  0  0
  7 11  2  0  0  0  0
  8 15  2  0  0  0  0
  9 13  2  0  0  0  0
 10 17  1  0  0  0  0
 11 16  1  0  0  0  0
 12 13  1  0  0  0  0
 12 16  2  0  0  0  0
 14 18  1  0  0  0  0
 15 18  1  0  0  0  0
 16 17  1  0  0  0  0
 17 18  2  0  0  0  0
  1 19  1  0  0  0  0
  4 20  1  0  0  0  0
  6 21  1  0  0  0  0
  7 22  1  0  0  0  0
  8 23  1  0  0  0  0
  9 24  1  0  0  0  0
 10 25  1  0  0  0  0
 11 26  1  0  0  0  0
 12 27  1  0  0  0  0
M  END
> <pdb_id>
5OPS

> <uniprot_id>
O14757

> <usmiles>
Oc1cc(c2c3c(ncc2)NC=C3C#N)ccc1

$$$$
A3V_B_603
          07202411453D 1   1.00000     0.00000     0
            
 44 45  0  0  0  0            999 V2000
  -35.3971  133.3706    9.0935 O   0  0  0  0  0  0  0  0  0  0  0  0
  -40.0367  136.2650    9.5612 O   0  0  0  0  0  0  0  0  0  0  0  0
  -34.9483  131.3372    7.2157 N   0  0  0  0  0  0  0  0  0  0  0  0
  -40.0034  136.3826    8.1340 C   0  0  0  0  0  0  0  0  0  0  0  0
  -36.1427  130.8436    7.8760 C   0  0  0  0  0  0  0  0  0  0  0  0
  -41.1872  140.3520    6.6984 C   0  0  0  0  0  0  0  0  0  0  0  0
  -40.9509  140.1546    8.1922 C   0  0  0  0  0  0  0  0  0  0  0  0
  -41.8219  139.1103    6.0792 C   0  0  0  0  0  0  0  0  0  0  0  0
  -38.4772  134.4428   12.2716 C   0  0  0  0  0  0  0  0  0  0  0  0
  -39.2927  135.3145   11.5824 C   0  0  0  0  0  0  0  0  0  0  0  0
  -37.1255  131.9082    8.3312 C   0  0  0  0  0  0  0  0  0  0  0  0
  -40.1917  138.8558    8.4812 C   0  0  0  0  0  0  0  0  0  0  0  0
  -40.9913  137.8559    6.3483 C   0  0  0  0  0  0  0  0  0  0  0  0
  -37.6115  133.6081   11.5967 C   0  0  0  0  0  0  0  0  0  0  0  0
  -38.3642  134.5025    9.5176 C   0  0  0  0  0  0  0  0  0  0  0  0
  -39.2338  135.3541   10.2104 C   0  0  0  0  0  0  0  0  0  0  0  0
  -36.5723  132.6888    9.5173 C   0  0  2  0  0  0  0  0  0  0  0  0
  -40.8228  137.6134    7.8371 C   0  0  0  0  0  0  0  0  0  0  0  0
  -37.5415  133.6241   10.2178 C   0  0  0  0  0  0  0  0  0  0  0  0
  -35.0183  133.8898    9.8596 H   0  0  0  0  0  0  0  0  0  0  0  0
  -34.3681  130.5654    6.9556 H   0  0  0  0  0  0  0  0  0  0  0  0
  -35.2077  131.8500    6.3973 H   0  0  0  0  0  0  0  0  0  0  0  0
  -40.4083  135.5760    7.7033 H   0  0  0  0  0  0  0  0  0  0  0  0
  -39.0640  136.4969    7.8106 H   0  0  0  0  0  0  0  0  0  0  0  0
  -35.8570  130.3236    8.6810 H   0  0  0  0  0  0  0  0  0  0  0  0
  -36.6185  130.2371    7.2391 H   0  0  0  0  0  0  0  0  0  0  0  0
  -40.3119  140.5309    6.2492 H   0  0  0  0  0  0  0  0  0  0  0  0
  -41.7969  141.1331    6.5637 H   0  0  0  0  0  0  0  0  0  0  0  0
  -41.8351  140.1233    8.6584 H   0  0  0  0  0  0  0  0  0  0  0  0
  -40.4176  140.9256    8.5402 H   0  0  0  0  0  0  0  0  0  0  0  0
  -41.8968  139.2433    5.0910 H   0  0  0  0  0  0  0  0  0  0  0  0
  -42.7343  138.9844    6.4688 H   0  0  0  0  0  0  0  0  0  0  0  0
  -38.5137  134.4154   13.2706 H   0  0  0  0  0  0  0  0  0  0  0  0
  -39.9223  135.9135   12.0773 H   0  0  0  0  0  0  0  0  0  0  0  0
  -37.9827  131.4689    8.5998 H   0  0  0  0  0  0  0  0  0  0  0  0
  -37.2972  132.5398    7.5752 H   0  0  0  0  0  0  0  0  0  0  0  0
  -40.1662  138.7191    9.4715 H   0  0  0  0  0  0  0  0  0  0  0  0
  -39.2589  138.9518    8.1338 H   0  0  0  0  0  0  0  0  0  0  0  0
  -40.0888  137.9677    5.9324 H   0  0  0  0  0  0  0  0  0  0  0  0
  -41.4511  137.0673    5.9400 H   0  0  0  0  0  0  0  0  0  0  0  0
  -37.0264  132.9827   12.1130 H   0  0  0  0  0  0  0  0  0  0  0  0
  -38.3341  134.5254    8.5183 H   0  0  0  0  0  0  0  0  0  0  0  0
  -36.2835  132.0136   10.1960 H   0  0  0  0  0  0  0  0  0  0  0  0
  -41.7311  137.4849    8.2352 H   0  0  0  0  0  0  0  0  0  0  0  0
  1 17  1  0  0  0  0
  2  4  1  0  0  0  0
  2 16  1  0  0  0  0
  3  5  1  0  0  0  0
  4 18  1  0  0  0  0
  5 11  1  0  0  0  0
  6  7  1  0  0  0  0
  6  8  1  0  0  0  0
  7 12  1  0  0  0  0
  8 13  1  0  0  0  0
  9 10  2  0  0  0  0
  9 14  1  0  0  0  0
 10 16  1  0  0  0  0
 11 17  1  0  0  0  0
 12 18  1  0  0  0  0
 13 18  1  0  0  0  0
 14 19  2  0  0  0  0
 15 16  2  0  0  0  0
 15 19  1  0  0  0  0
 17 19  1  0  0  0  0
  1 20  1  0  0  0  0
  3 21  1  0  0  0  0
  3 22  1  0  0  0  0
  4 23  1  0  0  0  0
  4 24  1  0  0  0  0
  5 25  1  0  0  0  0
  5 26  1  0  0  0  0
  6 27  1  0  0  0  0
  6 28  1  0  0  0  0
  7 29  1  0  0  0  0
  7 30  1  0  0  0  0
  8 31  1  0  0  0  0
  8 32  1  0  0  0  0
  9 33  1  0  0  0  0
 10 34  1  0  0  0  0
 11 35  1  0  0  0  0
 11 36  1  0  0  0  0
 12 37  1  0  0  0  0
 12 38  1  0  0  0  0
 13 39  1  0  0  0  0
 13 40  1  0  0  0  0
 14 41  1  0  0  0  0
 15 42  1  0  0  0  0
 17 43  1  0  0  0  0
 18 44  1  0  0  0  0
M  END
> <pdb_id>
4RYY

> <uniprot_id>
Q28175

> <usmiles>
O(c1cc(ccc1)[C@H](O)CCN)CC2CCCCC2

$$$$
A49_B_2
          07202412553D 1   1.00000     0.00000     0
            
 62 65  0  0  0  0            999 V2000
   52.2250   29.8180   39.5700 F   0  0  0  0  0  0  0  0  0  0  0  0
   52.7430   27.9570   38.6110 F   0  0  0  0  0  0  0  0  0  0  0  0
   53.7740   28.5060   40.3860 F   0  0  0  0  0  0  0  0  0  0  0  0
   57.1950   20.1160   36.2450 O   0  0  0  0  0  0  0  0  0  0  0  0
   51.7910   21.9030   42.3650 O   0  0  0  0  0  0  0  0  0  0  0  0
   50.2980   28.1090   39.6560 O   0  0  0  0  0  0  0  0  0  0  0  0
   59.3770   20.2780   36.0440 N   0  0  0  0  0  0  0  0  0  0  0  0
   55.8860   22.3040   37.6130 N   0  0  0  0  0  0  0  0  0  0  0  0
   52.9150   21.5410   40.3940 N   0  0  0  0  0  0  0  0  0  0  0  0
   51.1960   28.7570   41.8220 C   0  0  0  0  0  0  0  0  0  0  0  0
   56.3290   22.4580   39.0600 C   0  0  0  0  0  0  0  0  0  0  0  0
   54.5880   22.9870   37.4150 C   0  0  0  0  0  0  0  0  0  0  0  0
   56.8350   22.9540   36.6890 C   0  0  0  0  0  0  0  0  0  0  0  0
   55.4050   21.5740   39.8900 C   0  0  0  0  0  0  0  0  0  0  0  0
   53.5290   22.2980   38.2300 C   0  0  0  0  0  0  0  0  0  0  0  0
   52.4630   19.3090   39.4500 C   0  0  0  0  0  0  0  0  0  0  0  0
   51.6250   19.4380   40.6940 C   0  0  0  0  0  0  0  0  0  0  0  0
   52.9240   24.8110   41.9710 C   0  0  0  0  0  0  0  0  0  0  0  0
   51.2960   24.2710   40.2450 C   0  0  0  0  0  0  0  0  0  0  0  0
   52.6730   26.1780   41.8010 C   0  0  0  0  0  0  0  0  0  0  0  0
   51.0700   25.6070   40.0220 C   0  0  0  0  0  0  0  0  0  0  0  0
   59.2820   22.7800   37.5660 C   0  0  0  0  0  0  0  0  0  0  0  0
   59.2390   23.1320   36.0720 C   0  0  0  0  0  0  0  0  0  0  0  0
   58.2160   20.8010   36.2770 C   0  0  0  0  0  0  0  0  0  0  0  0
   52.3750   22.3910   41.3980 C   0  0  0  0  0  0  0  0  0  0  0  0
   54.0110   22.1900   39.7100 C   0  0  0  0  0  0  0  0  0  0  0  0
   53.0190   20.0620   40.6680 C   0  0  0  0  0  0  0  0  0  0  0  0
   52.2460   23.8730   41.2080 C   0  0  0  0  0  0  0  0  0  0  0  0
   51.7470   26.5500   40.7970 C   0  0  0  0  0  0  0  0  0  0  0  0
   52.6110   28.5910   39.7540 C   0  0  0  0  0  0  0  0  0  0  0  0
   51.4450   27.9990   40.5240 C   0  0  1  0  0  0  0  0  0  0  0  0
   58.1660   22.2540   36.7020 C   0  0  0  0  0  0  0  0  0  0  0  0
   50.4724   27.6083   38.8081 H   0  0  0  0  0  0  0  0  0  0  0  0
   60.1976   20.8487   36.0739 H   0  0  0  0  0  0  0  0  0  0  0  0
   59.4533   19.3033   35.8341 H   0  0  0  0  0  0  0  0  0  0  0  0
   51.9967   28.6740   42.4153 H   0  0  0  0  0  0  0  0  0  0  0  0
   51.0308   29.7220   41.6181 H   0  0  0  0  0  0  0  0  0  0  0  0
   50.3971   28.3726   42.2845 H   0  0  0  0  0  0  0  0  0  0  0  0
   56.2451   23.4121   39.3476 H   0  0  0  0  0  0  0  0  0  0  0  0
   57.2780   22.1606   39.1646 H   0  0  0  0  0  0  0  0  0  0  0  0
   54.3381   22.9536   36.4473 H   0  0  0  0  0  0  0  0  0  0  0  0
   54.6652   23.9404   37.7066 H   0  0  0  0  0  0  0  0  0  0  0  0
   56.9634   23.9056   36.9683 H   0  0  0  0  0  0  0  0  0  0  0  0
   56.4601   22.9262   35.7624 H   0  0  0  0  0  0  0  0  0  0  0  0
   55.6749   21.5877   40.8528 H   0  0  0  0  0  0  0  0  0  0  0  0
   55.4208   20.6327   39.5527 H   0  0  0  0  0  0  0  0  0  0  0  0
   53.3676   21.3819   37.8630 H   0  0  0  0  0  0  0  0  0  0  0  0
   52.6809   22.8265   38.1920 H   0  0  0  0  0  0  0  0  0  0  0  0
   52.2110   19.8129   38.6238 H   0  0  0  0  0  0  0  0  0  0  0  0
   52.8449   18.4206   39.1952 H   0  0  0  0  0  0  0  0  0  0  0  0
   51.4501   18.6338   41.2620 H   0  0  0  0  0  0  0  0  0  0  0  0
   50.8162   20.0261   40.6906 H   0  0  0  0  0  0  0  0  0  0  0  0
   53.5965   24.5095   42.6469 H   0  0  0  0  0  0  0  0  0  0  0  0
   50.7887   23.5828   39.7263 H   0  0  0  0  0  0  0  0  0  0  0  0
   53.1299   26.8645   42.3666 H   0  0  0  0  0  0  0  0  0  0  0  0
   50.4285   25.9006   39.3133 H   0  0  0  0  0  0  0  0  0  0  0  0
   59.0944   23.4840   38.2510 H   0  0  0  0  0  0  0  0  0  0  0  0
   59.9824   22.1560   37.9125 H   0  0  0  0  0  0  0  0  0  0  0  0
   59.9074   22.7353   35.4428 H   0  0  0  0  0  0  0  0  0  0  0  0
   59.0194   24.0633   35.7813 H   0  0  0  0  0  0  0  0  0  0  0  0
   54.0604   23.1233   40.0657 H   0  0  0  0  0  0  0  0  0  0  0  0
   53.7672   19.6859   41.2146 H   0  0  0  0  0  0  0  0  0  0  0  0
  1 30  1  0  0  0  0
  2 30  1  0  0  0  0
  3 30  1  0  0  0  0
  4 24  2  0  0  0  0
  5 25  2  0  0  0  0
  6 31  1  0  0  0  0
  7 24  1  0  0  0  0
  8 11  1  0  0  0  0
  8 12  1  0  0  0  0
  8 13  1  0  0  0  0
  9 25  1  0  0  0  0
  9 26  1  0  0  0  0
  9 27  1  0  0  0  0
 10 31  1  0  0  0  0
 11 14  1  0  0  0  0
 12 15  1  0  0  0  0
 13 32  1  0  0  0  0
 14 26  1  0  0  0  0
 15 26  1  0  0  0  0
 16 17  1  0  0  0  0
 16 27  1  0  0  0  0
 17 27  1  0  0  0  0
 18 20  2  0  0  0  0
 18 28  1  0  0  0  0
 19 21  1  0  0  0  0
 19 28  2  0  0  0  0
 20 29  1  0  0  0  0
 21 29  2  0  0  0  0
 22 23  1  0  0  0  0
 22 32  1  0  0  0  0
 23 32  1  0  0  0  0
 24 32  1  0  0  0  0
 25 28  1  0  0  0  0
 29 31  1  0  0  0  0
 30 31  1  0  0  0  0
  6 33  1  0  0  0  0
  7 34  1  0  0  0  0
  7 35  1  0  0  0  0
 10 36  1  0  0  0  0
 10 37  1  0  0  0  0
 10 38  1  0  0  0  0
 11 39  1  0  0  0  0
 11 40  1  0  0  0  0
 12 41  1  0  0  0  0
 12 42  1  0  0  0  0
 13 43  1  0  0  0  0
 13 44  1  0  0  0  0
 14 45  1  0  0  0  0
 14 46  1  0  0  0  0
 15 47  1  0  0  0  0
 15 48  1  0  0  0  0
 16 49  1  0  0  0  0
 16 50  1  0  0  0  0
 17 51  1  0  0  0  0
 17 52  1  0  0  0  0
 18 53  1  0  0  0  0
 19 54  1  0  0  0  0
 20 55  1  0  0  0  0
 21 56  1  0  0  0  0
 22 57  1  0  0  0  0
 22 58  1  0  0  0  0
 23 59  1  0  0  0  0
 23 60  1  0  0  0  0
 26 61  1  0  0  0  0
 27 62  1  0  0  0  0
M  END
> <pdb_id>
3FRJ

> <uniprot_id>
P28845

> <usmiles>
FC(F)(F)[C@@](O)(c1ccc(cc1)C(=O)N(C2CCN(CC3(C(=O)N)CC3)CC2)C4CC4)C

$$$$
A4J_A_301
          07202414183D 1   1.00000     0.00000     0
            
 45 47  0  0  0  0            999 V2000
   -4.6711   -5.0571   21.1662 F   0  0  0  0  0  0  0  0  0  0  0  0
   -3.6233   -4.7186   19.3656 F   0  0  0  0  0  0  0  0  0  0  0  0
   -2.7715   -4.1065   21.2733 F   0  0  0  0  0  0  0  0  0  0  0  0
   -8.9858    0.5074   23.6615 O   0  0  0  0  0  0  0  0  0  0  0  0
  -10.3809   -1.6662   21.0478 O   0  0  0  0  0  0  0  0  0  0  0  0
   -4.9283    1.2442   15.9647 O   0  0  0  0  0  0  0  0  0  0  0  0
   -1.6694   -2.1674   18.5725 N   0  0  0  0  0  0  0  0  0  0  0  0
   -5.9416   -0.4406   20.1518 N   0  0  0  0  0  0  0  0  0  0  0  0
   -7.6194   -1.1273   21.5408 N   0  0  0  0  0  0  0  0  0  0  0  0
   -4.3152    0.4667   18.8332 N   0  0  0  0  0  0  0  0  0  0  0  0
   -2.7078    2.1817   16.0439 C   0  0  0  0  0  0  0  0  0  0  0  0
   -2.7050   -2.0354   19.0237 C   0  0  0  0  0  0  0  0  0  0  0  0
   -5.7735   -2.6265   21.0992 C   0  0  0  0  0  0  0  0  0  0  0  0
   -5.0778    1.7182   18.8924 C   0  0  0  0  0  0  0  0  0  0  0  0
   -8.2518    0.1924   21.3826 C   0  0  0  0  0  0  0  0  0  0  0  0
   -8.4078   -2.0342   22.3883 C   0  0  0  0  0  0  0  0  0  0  0  0
   -3.4745    0.4060   17.6435 C   0  0  0  0  0  0  0  0  0  0  0  0
   -4.3934    2.6293   17.8879 C   0  0  0  0  0  0  0  0  0  0  0  0
   -6.4302   -1.4038   20.9336 C   0  0  0  0  0  0  0  0  0  0  0  0
   -4.7741   -0.6202   19.5259 C   0  0  0  0  0  0  0  0  0  0  0  0
   -3.9974   -1.8238   19.6113 C   0  0  0  0  0  0  0  0  0  0  0  0
   -4.5751   -2.8225   20.4174 C   0  0  0  0  0  0  0  0  0  0  0  0
   -9.4159    0.1184   22.3542 C   0  0  1  0  0  0  0  0  0  0  0  0
   -9.7750   -1.3770   22.3108 C   0  0  1  0  0  0  0  0  0  0  0  0
   -3.9107   -4.1674   20.5538 C   0  0  0  0  0  0  0  0  0  0  0  0
   -3.8752    1.6386   16.8548 C   0  0  2  0  0  0  0  0  0  0  0  0
   -8.8191    1.4857   23.6166 H   0  0  0  0  0  0  0  0  0  0  0  0
  -11.2335   -1.1581   21.0143 H   0  0  0  0  0  0  0  0  0  0  0  0
   -4.5592    0.5807   15.3243 H   0  0  0  0  0  0  0  0  0  0  0  0
   -2.2249    1.3963   15.4654 H   0  0  0  0  0  0  0  0  0  0  0  0
   -1.9435    2.6281   16.6787 H   0  0  0  0  0  0  0  0  0  0  0  0
   -3.0227    2.9486   15.3375 H   0  0  0  0  0  0  0  0  0  0  0  0
   -6.1845   -3.3867   21.7606 H   0  0  0  0  0  0  0  0  0  0  0  0
   -6.1252    1.5822   18.6275 H   0  0  0  0  0  0  0  0  0  0  0  0
   -5.0895    2.1703   19.8833 H   0  0  0  0  0  0  0  0  0  0  0  0
   -8.5703    0.4181   20.3660 H   0  0  0  0  0  0  0  0  0  0  0  0
   -7.5496    0.9833   21.6449 H   0  0  0  0  0  0  0  0  0  0  0  0
   -8.0178   -2.0711   23.4045 H   0  0  0  0  0  0  0  0  0  0  0  0
   -8.4176   -3.0597   22.0235 H   0  0  0  0  0  0  0  0  0  0  0  0
   -2.4303    0.4523   17.9491 H   0  0  0  0  0  0  0  0  0  0  0  0
   -3.5760   -0.5128   17.0690 H   0  0  0  0  0  0  0  0  0  0  0  0
   -5.0543    3.3983   17.4906 H   0  0  0  0  0  0  0  0  0  0  0  0
   -3.5759    3.1714   18.3561 H   0  0  0  0  0  0  0  0  0  0  0  0
  -10.2623    0.7245   22.0340 H   0  0  0  0  0  0  0  0  0  0  0  0
  -10.4147   -1.6554   23.1458 H   0  0  0  0  0  0  0  0  0  0  0  0
  1 25  1  0  0  0  0
  2 25  1  0  0  0  0
  3 25  1  0  0  0  0
  4 23  1  0  0  0  0
  4 27  1  0  0  0  0
  5 24  1  0  0  0  0
  5 28  1  0  0  0  0
  6 26  1  0  0  0  0
  6 29  1  0  0  0  0
  7 12  3  0  0  0  0
  8 19  2  0  0  0  0
  8 20  1  0  0  0  0
  9 15  1  0  0  0  0
  9 16  1  0  0  0  0
  9 19  1  0  0  0  0
 10 14  1  0  0  0  0
 10 17  1  0  0  0  0
 10 20  1  0  0  0  0
 11 26  1  0  0  0  0
 11 30  1  0  0  0  0
 11 31  1  0  0  0  0
 11 32  1  0  0  0  0
 12 21  1  0  0  0  0
 13 19  1  0  0  0  0
 13 22  2  0  0  0  0
 13 33  1  0  0  0  0
 14 18  1  0  0  0  0
 14 34  1  0  0  0  0
 14 35  1  0  0  0  0
 15 23  1  0  0  0  0
 15 36  1  0  0  0  0
 15 37  1  0  0  0  0
 16 24  1  0  0  0  0
 16 38  1  0  0  0  0
 16 39  1  0  0  0  0
 17 26  1  0  0  0  0
 17 40  1  0  0  0  0
 17 41  1  0  0  0  0
 18 26  1  0  0  0  0
 18 42  1  0  0  0  0
 18 43  1  0  0  0  0
 20 21  2  0  0  0  0
 21 22  1  0  0  0  0
 22 25  1  0  0  0  0
 23 24  1  0  0  0  0
 23 44  1  0  0  0  0
 24 45  1  0  0  0  0
M  END
> <pdb_id>
5WBZ

> <uniprot_id>
P50053

> <usmiles>
FC(F)(F)c1c(C#N)c(nc(N2C[C@H](O)[C@@H](O)C2)c1)N3C[C@@](O)(CC3)C

$$$$
A4N_B_401
          07202410283D 1   1.00000     0.00000     0
            
 30 31  0  0  0  0            999 V2000
 -132.5847 -187.2252  308.4003 Cl  0  0  0  0  0  0  0  0  0  0  0  0
 -137.1197 -184.9868  309.9527 N   0  0  0  0  0  0  0  0  0  0  0  0
 -133.5866 -187.0910  304.1762 C   0  0  0  0  0  0  0  0  0  0  0  0
 -137.6009 -186.1085  309.1605 C   0  0  0  0  0  0  0  0  0  0  0  0
 -131.7877 -190.4083  304.5336 C   0  0  0  0  0  0  0  0  0  0  0  0
 -132.2333 -190.8577  305.7502 C   0  0  0  0  0  0  0  0  0  0  0  0
 -136.8947 -187.5388  307.2252 C   0  0  0  0  0  0  0  0  0  0  0  0
 -132.2328 -189.1981  304.0382 C   0  0  0  0  0  0  0  0  0  0  0  0
 -133.1294 -190.1013  306.4802 C   0  0  0  0  0  0  0  0  0  0  0  0
 -135.9406 -188.1949  306.4694 C   0  0  0  0  0  0  0  0  0  0  0  0
 -135.1975 -186.7018  308.6697 C   0  0  0  0  0  0  0  0  0  0  0  0
 -134.2450 -187.3608  307.9181 C   0  0  0  0  0  0  0  0  0  0  0  0
 -136.5410 -186.7892  308.3342 C   0  0  0  0  0  0  0  0  0  0  0  0
 -133.1358 -188.4081  304.7472 C   0  0  0  0  0  0  0  0  0  0  0  0
 -134.5911 -188.1239  306.8053 C   0  0  0  0  0  0  0  0  0  0  0  0
 -133.5939 -188.8806  305.9907 C   0  0  0  0  0  0  0  0  0  0  0  0
 -137.8801 -184.5926  310.4688 H   0  0  0  0  0  0  0  0  0  0  0  0
 -136.4155 -185.3049  310.5875 H   0  0  0  0  0  0  0  0  0  0  0  0
 -134.2287 -186.6562  304.8077 H   0  0  0  0  0  0  0  0  0  0  0  0
 -132.7938 -186.4958  304.0448 H   0  0  0  0  0  0  0  0  0  0  0  0
 -134.0369 -187.2455  303.2968 H   0  0  0  0  0  0  0  0  0  0  0  0
 -138.3112 -185.7723  308.5421 H   0  0  0  0  0  0  0  0  0  0  0  0
 -137.9940 -186.7851  309.7832 H   0  0  0  0  0  0  0  0  0  0  0  0
 -131.1402 -190.9570  304.0048 H   0  0  0  0  0  0  0  0  0  0  0  0
 -131.9095 -191.7331  306.1089 H   0  0  0  0  0  0  0  0  0  0  0  0
 -137.8581 -187.6069  306.9660 H   0  0  0  0  0  0  0  0  0  0  0  0
 -131.8993 -188.8816  303.1502 H   0  0  0  0  0  0  0  0  0  0  0  0
 -133.4482 -190.4321  307.3684 H   0  0  0  0  0  0  0  0  0  0  0  0
 -136.2234 -188.7273  305.6714 H   0  0  0  0  0  0  0  0  0  0  0  0
 -134.9172 -186.1582  309.4608 H   0  0  0  0  0  0  0  0  0  0  0  0
  1 12  1  0  0  0  0
  2  4  1  0  0  0  0
  3 14  1  0  0  0  0
  4 13  1  0  0  0  0
  5  6  2  0  0  0  0
  5  8  1  0  0  0  0
  6  9  1  0  0  0  0
  7 10  1  0  0  0  0
  7 13  2  0  0  0  0
  8 14  2  0  0  0  0
  9 16  2  0  0  0  0
 10 15  2  0  0  0  0
 11 12  2  0  0  0  0
 11 13  1  0  0  0  0
 12 15  1  0  0  0  0
 14 16  1  0  0  0  0
 15 16  1  0  0  0  0
  2 17  1  0  0  0  0
  2 18  1  0  0  0  0
  3 19  1  0  0  0  0
  3 20  1  0  0  0  0
  3 21  1  0  0  0  0
  4 22  1  0  0  0  0
  4 23  1  0  0  0  0
  5 24  1  0  0  0  0
  6 25  1  0  0  0  0
  7 26  1  0  0  0  0
  8 27  1  0  0  0  0
  9 28  1  0  0  0  0
 10 29  1  0  0  0  0
 11 30  1  0  0  0  0
M  END
> <pdb_id>
5ORH

> <uniprot_id>
P68400

> <usmiles>
Clc1c(c2c(cccc2)C)ccc(c1)CN

$$$$
A6N_A_302
          07192416293D 1   1.00000     0.00000     0
            
 37 39  0  0  0  0            999 V2000
   -5.9415    0.9589   16.9154 S   0  0  0  0  0  0  0  0  0  0  0  0
   -7.3637    0.9805   16.7625 O   0  0  0  0  0  0  0  0  0  0  0  0
   -5.3925    1.0310   18.2388 O   0  0  0  0  0  0  0  0  0  0  0  0
   -3.7822    5.7722   14.2949 O   0  0  0  0  0  0  0  0  0  0  0  0
   -5.3871   -0.3711   16.2206 N   0  0  0  0  0  0  0  0  0  0  0  0
   -1.3447    9.2693   14.4388 N   0  0  0  0  0  0  0  0  0  0  0  0
   -1.5435    8.0320   14.8305 N   0  0  0  0  0  0  0  0  0  0  0  0
   -1.7318    9.3394   13.1420 N   0  0  0  0  0  0  0  0  0  0  0  0
   -2.1683    8.1362   12.7167 C   0  0  0  0  0  0  0  0  0  0  0  0
   -1.6532   12.9732   11.0485 C   0  0  0  0  0  0  0  0  0  0  0  0
   -1.8301   12.9679   12.4207 C   0  0  0  0  0  0  0  0  0  0  0  0
   -1.4809   11.7800   10.3708 C   0  0  0  0  0  0  0  0  0  0  0  0
   -6.1303    3.4354   15.7665 C   0  0  0  0  0  0  0  0  0  0  0  0
   -3.9736    2.3698   15.6569 C   0  0  0  0  0  0  0  0  0  0  0  0
   -1.8416   11.7743   13.1201 C   0  0  0  0  0  0  0  0  0  0  0  0
   -1.4884   10.5784   11.0582 C   0  0  0  0  0  0  0  0  0  0  0  0
   -5.5986    4.5646   15.1668 C   0  0  0  0  0  0  0  0  0  0  0  0
   -3.4499    3.4950   15.0472 C   0  0  0  0  0  0  0  0  0  0  0  0
   -2.4036    5.8735   13.9355 C   0  0  0  0  0  0  0  0  0  0  0  0
   -5.3093    2.3466   16.0220 C   0  0  0  0  0  0  0  0  0  0  0  0
   -4.2569    4.5989   14.8226 C   0  0  0  0  0  0  0  0  0  0  0  0
   -2.0518    7.3105   13.7943 C   0  0  0  0  0  0  0  0  0  0  0  0
   -1.6733   10.5770   12.4354 C   0  0  0  0  0  0  0  0  0  0  0  0
   -5.2621   -1.2741   16.6683 H   0  0  0  0  0  0  0  0  0  0  0  0
   -5.0439   -0.4058   15.2654 H   0  0  0  0  0  0  0  0  0  0  0  0
   -2.5199    7.9279   11.7075 H   0  0  0  0  0  0  0  0  0  0  0  0
   -1.6513   13.9161   10.5036 H   0  0  0  0  0  0  0  0  0  0  0  0
   -1.9583   13.9029   12.9639 H   0  0  0  0  0  0  0  0  0  0  0  0
   -1.3398   11.8029    9.2916 H   0  0  0  0  0  0  0  0  0  0  0  0
   -7.1861    3.4302   16.0294 H   0  0  0  0  0  0  0  0  0  0  0  0
   -3.3238    1.5247   15.8771 H   0  0  0  0  0  0  0  0  0  0  0  0
   -1.9847   11.7864   14.1992 H   0  0  0  0  0  0  0  0  0  0  0  0
   -1.3472    9.6553   10.4990 H   0  0  0  0  0  0  0  0  0  0  0  0
   -6.2264    5.4307   14.9605 H   0  0  0  0  0  0  0  0  0  0  0  0
   -2.4001    3.4742   14.7634 H   0  0  0  0  0  0  0  0  0  0  0  0
   -2.1780    5.3468   13.0104 H   0  0  0  0  0  0  0  0  0  0  0  0
   -1.7906    5.4415   14.7249 H   0  0  0  0  0  0  0  0  0  0  0  0
  1  2  2  0  0  0  0
  1  3  2  0  0  0  0
  1  5  1  0  0  0  0
  1 20  1  0  0  0  0
  4 19  1  0  0  0  0
  4 21  1  0  0  0  0
  5 24  1  0  0  0  0
  5 25  1  0  0  0  0
  6  7  2  0  0  0  0
  6  8  1  0  0  0  0
  7 22  1  0  0  0  0
  8  9  1  0  0  0  0
  8 23  1  0  0  0  0
  9 22  2  0  0  0  0
  9 26  1  0  0  0  0
 10 11  2  0  0  0  0
 10 12  1  0  0  0  0
 10 27  1  0  0  0  0
 11 15  1  0  0  0  0
 11 28  1  0  0  0  0
 12 16  2  0  0  0  0
 12 29  1  0  0  0  0
 13 17  2  0  0  0  0
 13 20  1  0  0  0  0
 13 30  1  0  0  0  0
 14 18  1  0  0  0  0
 14 20  2  0  0  0  0
 14 31  1  0  0  0  0
 15 23  2  0  0  0  0
 15 32  1  0  0  0  0
 16 23  1  0  0  0  0
 16 33  1  0  0  0  0
 17 21  1  0  0  0  0
 17 34  1  0  0  0  0
 18 21  2  0  0  0  0
 18 35  1  0  0  0  0
 19 22  1  0  0  0  0
 19 36  1  0  0  0  0
 19 37  1  0  0  0  0
M  END
> <pdb_id>
5LJT

> <uniprot_id>
P00918

> <usmiles>
S(=O)(=O)(N)c1ccc(OCC=2N=NN(c3ccccc3)C2)cc1

$$$$
A7B_A_233
          07202402453D 1   1.00000     0.00000     0
            
 25 26  0  0  0  0            999 V2000
   -5.3412   10.3840   14.4310 O   0  0  0  0  0  0  0  0  0  0  0  0
   -4.9806    5.5277   14.6376 O   0  0  0  0  0  0  0  0  0  0  0  0
   -4.6039    8.2715   14.9790 N   0  0  0  0  0  0  0  0  0  0  0  0
   -5.3250    4.1420   14.5210 C   0  0  0  0  0  0  0  0  0  0  0  0
   -1.4140    9.9096   17.4315 C   0  0  0  0  0  0  0  0  0  0  0  0
   -2.0786    5.5534   16.9392 C   0  0  0  0  0  0  0  0  0  0  0  0
   -3.0774    5.0777   16.1166 C   0  0  0  0  0  0  0  0  0  0  0  0
   -1.8589    6.9177   17.1170 C   0  0  0  0  0  0  0  0  0  0  0  0
   -3.4653   10.1564   15.9063 C   0  0  0  0  0  0  0  0  0  0  0  0
   -4.4911    9.6162   15.0791 C   0  0  0  0  0  0  0  0  0  0  0  0
   -3.9618    5.9471   15.4600 C   0  0  0  0  0  0  0  0  0  0  0  0
   -3.7807    7.3863   15.6091 C   0  0  0  0  0  0  0  0  0  0  0  0
   -2.5267    9.3168   16.6004 C   0  0  0  0  0  0  0  0  0  0  0  0
   -2.6743    7.8490   16.4643 C   0  0  0  0  0  0  0  0  0  0  0  0
   -5.3371    7.9040   14.4069 H   0  0  0  0  0  0  0  0  0  0  0  0
   -6.0855    4.0404   13.8797 H   0  0  0  0  0  0  0  0  0  0  0  0
   -4.5349    3.6293   14.1851 H   0  0  0  0  0  0  0  0  0  0  0  0
   -5.5950    3.7891   15.4169 H   0  0  0  0  0  0  0  0  0  0  0  0
   -0.8692    9.1733   17.8330 H   0  0  0  0  0  0  0  0  0  0  0  0
   -0.8305   10.4774   16.8509 H   0  0  0  0  0  0  0  0  0  0  0  0
   -1.8053   10.4705   18.1610 H   0  0  0  0  0  0  0  0  0  0  0  0
   -1.4951    4.9005   17.4222 H   0  0  0  0  0  0  0  0  0  0  0  0
   -3.1738    4.0911   15.9848 H   0  0  0  0  0  0  0  0  0  0  0  0
   -1.1184    7.2315   17.7113 H   0  0  0  0  0  0  0  0  0  0  0  0
   -3.3958   11.1488   16.0075 H   0  0  0  0  0  0  0  0  0  0  0  0
  1 10  2  0  0  0  0
  2  4  1  0  0  0  0
  2 11  1  0  0  0  0
  3 10  1  0  0  0  0
  3 12  1  0  0  0  0
  5 13  1  0  0  0  0
  6  7  2  0  0  0  0
  6  8  1  0  0  0  0
  7 11  1  0  0  0  0
  8 14  2  0  0  0  0
  9 10  1  0  0  0  0
  9 13  2  0  0  0  0
 11 12  2  0  0  0  0
 12 14  1  0  0  0  0
 13 14  1  0  0  0  0
  3 15  1  0  0  0  0
  4 16  1  0  0  0  0
  4 17  1  0  0  0  0
  4 18  1  0  0  0  0
  5 19  1  0  0  0  0
  5 20  1  0  0  0  0
  5 21  1  0  0  0  0
  6 22  1  0  0  0  0
  7 23  1  0  0  0  0
  8 24  1  0  0  0  0
  9 25  1  0  0  0  0
M  END
> <pdb_id>
3NHY

> <uniprot_id>
P16083

> <usmiles>
O=C1Nc2c(OC)cccc2C(=C1)C

$$$$
A7W_A_1509
          07192420213D 1   1.00000     0.00000     0
            
 20 21  0  0  0  0            999 V2000
  -29.9250    3.3718  -13.8161 O   0  0  0  0  0  0  0  0  0  0  0  0
  -30.3469    3.1811  -20.0444 N   0  0  0  0  0  0  0  0  0  0  0  0
  -30.1388    2.8053  -17.3568 N   0  0  0  0  0  0  0  0  0  0  0  0
  -30.3865    6.6553  -18.8119 C   0  0  0  0  0  0  0  0  0  0  0  0
  -30.0486    2.6316  -16.0373 C   0  0  0  0  0  0  0  0  0  0  0  0
  -30.3976    5.5722  -19.6718 C   0  0  0  0  0  0  0  0  0  0  0  0
  -30.2824    6.4665  -17.4491 C   0  0  0  0  0  0  0  0  0  0  0  0
  -30.0775    4.9888  -15.5842 C   0  0  0  0  0  0  0  0  0  0  0  0
  -30.0186    3.6789  -15.1421 C   0  0  0  0  0  0  0  0  0  0  0  0
  -30.2988    4.2854  -19.1715 C   0  0  0  0  0  0  0  0  0  0  0  0
  -30.1715    5.1809  -16.9538 C   0  0  0  0  0  0  0  0  0  0  0  0
  -30.1838    4.0724  -17.8058 C   0  0  0  0  0  0  0  0  0  0  0  0
  -29.9004    4.1027  -13.1341 H   0  0  0  0  0  0  0  0  0  0  0  0
  -30.2753    2.2525  -19.6804 H   0  0  0  0  0  0  0  0  0  0  0  0
  -30.4528    3.3256  -21.0282 H   0  0  0  0  0  0  0  0  0  0  0  0
  -30.4543    7.5823  -19.1807 H   0  0  0  0  0  0  0  0  0  0  0  0
  -30.0004    1.6984  -15.6813 H   0  0  0  0  0  0  0  0  0  0  0  0
  -30.4773    5.7191  -20.6577 H   0  0  0  0  0  0  0  0  0  0  0  0
  -30.2872    7.2499  -16.8277 H   0  0  0  0  0  0  0  0  0  0  0  0
  -30.0535    5.7590  -14.9469 H   0  0  0  0  0  0  0  0  0  0  0  0
  1  9  1  0  0  0  0
  2 10  1  0  0  0  0
  3  5  1  0  0  0  0
  3 12  2  0  0  0  0
  4  6  1  0  0  0  0
  4  7  2  0  0  0  0
  5  9  2  0  0  0  0
  6 10  2  0  0  0  0
  7 11  1  0  0  0  0
  8  9  1  0  0  0  0
  8 11  2  0  0  0  0
 10 12  1  0  0  0  0
 11 12  1  0  0  0  0
  1 13  1  0  0  0  0
  2 14  1  0  0  0  0
  2 15  1  0  0  0  0
  4 16  1  0  0  0  0
  5 17  1  0  0  0  0
  6 18  1  0  0  0  0
  7 19  1  0  0  0  0
  8 20  1  0  0  0  0
M  END
> <pdb_id>
5G45

> <uniprot_id>
P51449

> <usmiles>
Oc1cnc2c(N)cccc2c1

$$$$
A8S_A_1
          07202404083D 1   1.00000     0.00000     0
            
 41 41  0  0  0  0            999 V2000
  -55.6401   38.7136  -16.7952 O   0  0  0  0  0  0  0  0  0  0  0  0
  -55.6872   38.9860  -18.9964 O   0  0  0  0  0  0  0  0  0  0  0  0
  -61.2217   43.3486  -24.4747 O   0  0  0  0  0  0  0  0  0  0  0  0
  -56.8579   40.5744  -22.6550 O   0  0  0  0  0  0  0  0  0  0  0  0
  -59.6227   40.9382  -18.3203 C   0  0  0  0  0  0  0  0  0  0  0  0
  -59.1590   39.0641  -23.5410 C   0  0  0  0  0  0  0  0  0  0  0  0
  -57.2519   42.8350  -24.3727 C   0  0  0  0  0  0  0  0  0  0  0  0
  -56.9842   43.4856  -21.9964 C   0  0  0  0  0  0  0  0  0  0  0  0
  -57.9270   40.4077  -20.1860 C   0  0  0  0  0  0  0  0  0  0  0  0
  -57.6765   39.4617  -17.7317 C   0  0  0  0  0  0  0  0  0  0  0  0
  -59.9850   41.4544  -23.8805 C   0  0  0  0  0  0  0  0  0  0  0  0
  -58.5229   41.2972  -21.0203 C   0  0  0  0  0  0  0  0  0  0  0  0
  -59.2805   43.3368  -23.1099 C   0  0  0  0  0  0  0  0  0  0  0  0
  -56.2221   39.0765  -17.8605 C   0  0  0  0  0  0  0  0  0  0  0  0
  -60.2255   42.6854  -23.8878 C   0  0  0  0  0  0  0  0  0  0  0  0
  -58.2057   40.5192  -18.6793 C   0  0  2  0  0  0  0  0  0  0  0  0
  -59.2011   40.5560  -23.3622 C   0  0  0  0  0  0  0  0  0  0  0  0
  -57.9050   42.7049  -22.9742 C   0  0  0  0  0  0  0  0  0  0  0  0
  -58.1328   41.2390  -22.5013 C   0  0  2  0  0  0  0  0  0  0  0  0
  -56.1058   38.8049  -15.9150 H   0  0  0  0  0  0  0  0  0  0  0  0
  -61.2793   44.3432  -24.3887 H   0  0  0  0  0  0  0  0  0  0  0  0
  -56.6135   40.5421  -23.6241 H   0  0  0  0  0  0  0  0  0  0  0  0
  -59.7146   40.9850  -17.3257 H   0  0  0  0  0  0  0  0  0  0  0  0
  -59.8149   41.8364  -18.7155 H   0  0  0  0  0  0  0  0  0  0  0  0
  -60.2705   40.2686  -18.6838 H   0  0  0  0  0  0  0  0  0  0  0  0
  -58.4200   38.6826  -22.9858 H   0  0  0  0  0  0  0  0  0  0  0  0
  -60.0310   38.6690  -23.2521 H   0  0  0  0  0  0  0  0  0  0  0  0
  -58.9979   38.8483  -24.5041 H   0  0  0  0  0  0  0  0  0  0  0  0
  -57.8070   42.3474  -25.0465 H   0  0  0  0  0  0  0  0  0  0  0  0
  -57.1939   43.8010  -24.6249 H   0  0  0  0  0  0  0  0  0  0  0  0
  -56.3332   42.4408  -24.3495 H   0  0  0  0  0  0  0  0  0  0  0  0
  -57.3608   43.4345  -21.0714 H   0  0  0  0  0  0  0  0  0  0  0  0
  -56.0692   43.0823  -22.0064 H   0  0  0  0  0  0  0  0  0  0  0  0
  -56.9299   44.4424  -22.2818 H   0  0  0  0  0  0  0  0  0  0  0  0
  -57.3211   39.6970  -20.5435 H   0  0  0  0  0  0  0  0  0  0  0  0
  -57.8164   39.7970  -16.8001 H   0  0  0  0  0  0  0  0  0  0  0  0
  -58.2194   38.6339  -17.8731 H   0  0  0  0  0  0  0  0  0  0  0  0
  -60.6291   40.9996  -24.4956 H   0  0  0  0  0  0  0  0  0  0  0  0
  -59.1886   41.9627  -20.6827 H   0  0  0  0  0  0  0  0  0  0  0  0
  -59.4979   44.1983  -22.6509 H   0  0  0  0  0  0  0  0  0  0  0  0
  -57.6720   41.3246  -18.4214 H   0  0  0  0  0  0  0  0  0  0  0  0
  1 14  1  0  0  0  0
  2 14  2  0  0  0  0
  3 15  1  0  0  0  0
  4 19  1  0  0  0  0
  5 16  1  0  0  0  0
  6 17  1  0  0  0  0
  7 18  1  0  0  0  0
  8 18  1  0  0  0  0
  9 12  2  0  0  0  0
  9 16  1  0  0  0  0
 10 14  1  0  0  0  0
 10 16  1  0  0  0  0
 11 15  1  0  0  0  0
 11 17  2  0  0  0  0
 12 19  1  0  0  0  0
 13 15  2  0  0  0  0
 13 18  1  0  0  0  0
 17 19  1  0  0  0  0
 18 19  1  0  0  0  0
  1 20  1  0  0  0  0
  3 21  1  0  0  0  0
  4 22  1  0  0  0  0
  5 23  1  0  0  0  0
  5 24  1  0  0  0  0
  5 25  1  0  0  0  0
  6 26  1  0  0  0  0
  6 27  1  0  0  0  0
  6 28  1  0  0  0  0
  7 29  1  0  0  0  0
  7 30  1  0  0  0  0
  7 31  1  0  0  0  0
  8 32  1  0  0  0  0
  8 33  1  0  0  0  0
  8 34  1  0  0  0  0
  9 35  1  0  0  0  0
 10 36  1  0  0  0  0
 10 37  1  0  0  0  0
 11 38  1  0  0  0  0
 12 39  1  0  0  0  0
 13 40  1  0  0  0  0
 16 41  1  0  0  0  0
M  END
> <pdb_id>
3JRS

> <uniprot_id>
Q8VZS8

> <usmiles>
O=C(O)C[C@@H](/C=C/[C@@]1(O)C(=CC(O)=CC1(C)C)C)C

$$$$
A8S_A_189
          07202407403D 1   1.00000     0.00000     0
            
 39 39  0  0  0  0            999 V2000
   17.5576  -11.4557   -8.7480 O   0  0  0  0  0  0  0  0  0  0  0  0
   17.6318  -12.6860  -10.5497 O   0  0  0  0  0  0  0  0  0  0  0  0
   22.3887  -12.1139  -17.8435 O   0  0  0  0  0  0  0  0  0  0  0  0
   19.3911  -14.3475  -13.9716 O   0  0  0  0  0  0  0  0  0  0  0  0
   19.8370   -9.4967  -12.5387 C   0  0  0  0  0  0  0  0  0  0  0  0
   18.0544  -13.4346  -16.1650 C   0  0  0  0  0  0  0  0  0  0  0  0
   22.2738  -13.9121  -13.3304 C   0  0  0  0  0  0  0  0  0  0  0  0
   21.6606  -15.0714  -15.4310 C   0  0  0  0  0  0  0  0  0  0  0  0
   19.3577  -11.9199  -12.6926 C   0  0  0  0  0  0  0  0  0  0  0  0
   18.4671  -10.5146  -10.7741 C   0  0  0  0  0  0  0  0  0  0  0  0
   20.2470  -12.7520  -17.0621 C   0  0  0  0  0  0  0  0  0  0  0  0
   20.0271  -12.0239  -13.8488 C   0  0  0  0  0  0  0  0  0  0  0  0
   22.5047  -12.9921  -15.6189 C   0  0  0  0  0  0  0  0  0  0  0  0
   17.8521  -11.6261   -9.9620 C   0  0  0  0  0  0  0  0  0  0  0  0
   21.7427  -12.5790  -16.9012 C   0  0  0  0  0  0  0  0  0  0  0  0
   19.1901  -10.6766  -11.8984 C   0  0  0  0  0  0  0  0  0  0  0  0
   19.5082  -13.1158  -15.9827 C   0  0  0  0  0  0  0  0  0  0  0  0
   21.5986  -13.6358  -14.6408 C   0  0  0  0  0  0  0  0  0  0  0  0
   20.1512  -13.3574  -14.6236 C   0  0  2  0  0  0  0  0  0  0  0  0
   17.7517  -10.5808   -8.3045 H   0  0  0  0  0  0  0  0  0  0  0  0
   19.4697  -15.2106  -14.4705 H   0  0  0  0  0  0  0  0  0  0  0  0
   19.6962   -8.6883  -11.9672 H   0  0  0  0  0  0  0  0  0  0  0  0
   20.8172   -9.6675  -12.6388 H   0  0  0  0  0  0  0  0  0  0  0  0
   19.4318   -9.3426  -13.4398 H   0  0  0  0  0  0  0  0  0  0  0  0
   17.6545  -13.6829  -15.2828 H   0  0  0  0  0  0  0  0  0  0  0  0
   17.5811  -12.6339  -16.5321 H   0  0  0  0  0  0  0  0  0  0  0  0
   17.9582  -14.1997  -16.8018 H   0  0  0  0  0  0  0  0  0  0  0  0
   22.2810  -13.0793  -12.7769 H   0  0  0  0  0  0  0  0  0  0  0  0
   21.7769  -14.6311  -12.8444 H   0  0  0  0  0  0  0  0  0  0  0  0
   23.2139  -14.2103  -13.4961 H   0  0  0  0  0  0  0  0  0  0  0  0
   21.2268  -14.9776  -16.3271 H   0  0  0  0  0  0  0  0  0  0  0  0
   22.6150  -15.3456  -15.5497 H   0  0  0  0  0  0  0  0  0  0  0  0
   21.1780  -15.7664  -14.8980 H   0  0  0  0  0  0  0  0  0  0  0  0
   18.9344  -12.7518  -12.3336 H   0  0  0  0  0  0  0  0  0  0  0  0
   18.3263   -9.5789  -10.4507 H   0  0  0  0  0  0  0  0  0  0  0  0
   19.8106  -12.6006  -17.9490 H   0  0  0  0  0  0  0  0  0  0  0  0
   20.4638  -11.2071  -14.2258 H   0  0  0  0  0  0  0  0  0  0  0  0
   22.9081  -12.1772  -15.2025 H   0  0  0  0  0  0  0  0  0  0  0  0
   23.2303  -13.6353  -15.8636 H   0  0  0  0  0  0  0  0  0  0  0  0
  1 14  1  0  0  0  0
  2 14  2  0  0  0  0
  3 15  2  0  0  0  0
  4 19  1  0  0  0  0
  5 16  1  0  0  0  0
  6 17  1  0  0  0  0
  7 18  1  0  0  0  0
  8 18  1  0  0  0  0
  9 12  2  0  0  0  0
  9 16  1  0  0  0  0
 10 14  1  0  0  0  0
 10 16  2  0  0  0  0
 11 15  1  0  0  0  0
 11 17  2  0  0  0  0
 12 19  1  0  0  0  0
 13 15  1  0  0  0  0
 13 18  1  0  0  0  0
 17 19  1  0  0  0  0
 18 19  1  0  0  0  0
  1 20  1  0  0  0  0
  4 21  1  0  0  0  0
  5 22  1  0  0  0  0
  5 23  1  0  0  0  0
  5 24  1  0  0  0  0
  6 25  1  0  0  0  0
  6 26  1  0  0  0  0
  6 27  1  0  0  0  0
  7 28  1  0  0  0  0
  7 29  1  0  0  0  0
  7 30  1  0  0  0  0
  8 31  1  0  0  0  0
  8 32  1  0  0  0  0
  8 33  1  0  0  0  0
  9 34  1  0  0  0  0
 10 35  1  0  0  0  0
 11 36  1  0  0  0  0
 12 37  1  0  0  0  0
 13 38  1  0  0  0  0
 13 39  1  0  0  0  0
M  END
> <pdb_id>
3KB3

> <uniprot_id>
O80992

> <usmiles>
O=C(O)/C=C(\C=C\[C@@]1(O)C(=CC(=O)CC1(C)C)C)/C

$$$$
A8S_B_2
          07202404083D 1   1.00000     0.00000     0
            
 41 41  0  0  0  0            999 V2000
  -55.6768   38.9039  -16.7900 O   0  0  0  0  0  0  0  0  0  0  0  0
  -55.7990   38.9884  -18.9800 O   0  0  0  0  0  0  0  0  0  0  0  0
  -61.1133   43.2931  -24.5160 O   0  0  0  0  0  0  0  0  0  0  0  0
  -56.9049   40.6090  -22.5514 O   0  0  0  0  0  0  0  0  0  0  0  0
  -59.8061   40.9732  -18.2101 C   0  0  0  0  0  0  0  0  0  0  0  0
  -59.0133   39.0823  -23.5391 C   0  0  0  0  0  0  0  0  0  0  0  0
  -57.1440   42.7885  -24.2670 C   0  0  0  0  0  0  0  0  0  0  0  0
  -56.9397   43.4989  -21.8167 C   0  0  0  0  0  0  0  0  0  0  0  0
  -58.0710   40.6737  -20.0521 C   0  0  0  0  0  0  0  0  0  0  0  0
  -57.6624   39.7560  -17.6256 C   0  0  0  0  0  0  0  0  0  0  0  0
  -59.9546   41.4559  -23.8356 C   0  0  0  0  0  0  0  0  0  0  0  0
  -58.7015   41.3220  -21.0210 C   0  0  0  0  0  0  0  0  0  0  0  0
  -59.2588   43.4160  -23.1008 C   0  0  0  0  0  0  0  0  0  0  0  0
  -56.3045   39.1827  -17.8482 C   0  0  0  0  0  0  0  0  0  0  0  0
  -60.1832   42.6939  -23.8684 C   0  0  0  0  0  0  0  0  0  0  0  0
  -58.3625   40.7106  -18.5610 C   0  0  2  0  0  0  0  0  0  0  0  0
  -59.1642   40.5734  -23.3366 C   0  0  0  0  0  0  0  0  0  0  0  0
  -57.8688   42.7589  -22.8988 C   0  0  0  0  0  0  0  0  0  0  0  0
  -58.1639   41.2882  -22.4453 C   0  0  2  0  0  0  0  0  0  0  0  0
  -56.1007   39.0677  -15.8993 H   0  0  0  0  0  0  0  0  0  0  0  0
  -56.6009   40.6173  -23.5040 H   0  0  0  0  0  0  0  0  0  0  0  0
  -59.9112   40.9813  -17.2157 H   0  0  0  0  0  0  0  0  0  0  0  0
  -60.0836   41.8590  -18.5819 H   0  0  0  0  0  0  0  0  0  0  0  0
  -60.3802   40.2533  -18.6001 H   0  0  0  0  0  0  0  0  0  0  0  0
  -58.2719   38.7408  -22.9615 H   0  0  0  0  0  0  0  0  0  0  0  0
  -59.8670   38.6242  -23.2912 H   0  0  0  0  0  0  0  0  0  0  0  0
  -58.8014   38.8959  -24.4984 H   0  0  0  0  0  0  0  0  0  0  0  0
  -57.7092   42.3313  -24.9536 H   0  0  0  0  0  0  0  0  0  0  0  0
  -56.9885   43.7374  -24.5414 H   0  0  0  0  0  0  0  0  0  0  0  0
  -56.2661   42.3158  -24.1895 H   0  0  0  0  0  0  0  0  0  0  0  0
  -57.3933   43.4891  -20.9256 H   0  0  0  0  0  0  0  0  0  0  0  0
  -56.0626   43.0233  -21.7496 H   0  0  0  0  0  0  0  0  0  0  0  0
  -56.7850   44.4449  -22.1016 H   0  0  0  0  0  0  0  0  0  0  0  0
  -57.3112   40.0892  -20.3368 H   0  0  0  0  0  0  0  0  0  0  0  0
  -57.6098   40.2330  -16.7482 H   0  0  0  0  0  0  0  0  0  0  0  0
  -58.2735   38.9690  -17.5411 H   0  0  0  0  0  0  0  0  0  0  0  0
  -60.6340   40.9911  -24.4034 H   0  0  0  0  0  0  0  0  0  0  0  0
  -59.5344   41.8359  -20.8157 H   0  0  0  0  0  0  0  0  0  0  0  0
  -59.6611   43.5610  -22.1969 H   0  0  0  0  0  0  0  0  0  0  0  0
  -59.1160   44.2991  -23.5477 H   0  0  0  0  0  0  0  0  0  0  0  0
  -57.9397   41.5792  -18.3029 H   0  0  0  0  0  0  0  0  0  0  0  0
  1 14  1  0  0  0  0
  2 14  2  0  0  0  0
  3 15  2  0  0  0  0
  4 19  1  0  0  0  0
  5 16  1  0  0  0  0
  6 17  1  0  0  0  0
  7 18  1  0  0  0  0
  8 18  1  0  0  0  0
  9 12  2  0  0  0  0
  9 16  1  0  0  0  0
 10 14  1  0  0  0  0
 10 16  1  0  0  0  0
 11 15  1  0  0  0  0
 11 17  2  0  0  0  0
 12 19  1  0  0  0  0
 13 15  1  0  0  0  0
 13 18  1  0  0  0  0
 17 19  1  0  0  0  0
 18 19  1  0  0  0  0
  1 20  1  0  0  0  0
  4 21  1  0  0  0  0
  5 22  1  0  0  0  0
  5 23  1  0  0  0  0
  5 24  1  0  0  0  0
  6 25  1  0  0  0  0
  6 26  1  0  0  0  0
  6 27  1  0  0  0  0
  7 28  1  0  0  0  0
  7 29  1  0  0  0  0
  7 30  1  0  0  0  0
  8 31  1  0  0  0  0
  8 32  1  0  0  0  0
  8 33  1  0  0  0  0
  9 34  1  0  0  0  0
 10 35  1  0  0  0  0
 10 36  1  0  0  0  0
 11 37  1  0  0  0  0
 12 38  1  0  0  0  0
 13 39  1  0  0  0  0
 13 40  1  0  0  0  0
 16 41  1  0  0  0  0
M  END
> <pdb_id>
3JRS

> <uniprot_id>
Q8VZS8

> <usmiles>
O=C(O)C[C@@H](/C=C/[C@@]1(O)C(=CC(=O)CC1(C)C)C)C

$$$$
AA_B_603
          07202414243D 1   1.00000     0.00000     0
            
 25 27  0  0  0  0            999 V2000
  -11.9535  -43.9964   32.1432 N   0  0  0  0  0  0  0  0  0  0  0  0
   -8.8305  -46.6001   31.2332 N   0  0  0  0  0  0  0  0  0  0  0  0
   -6.8769  -43.7158   32.1408 C   0  0  0  0  0  0  0  0  0  0  0  0
  -11.6413  -48.7587   30.5800 C   0  0  0  0  0  0  0  0  0  0  0  0
   -7.8778  -42.8103   32.4583 C   0  0  0  0  0  0  0  0  0  0  0  0
  -12.6983  -47.9120   30.8796 C   0  0  0  0  0  0  0  0  0  0  0  0
   -7.2042  -44.9984   31.7261 C   0  0  0  0  0  0  0  0  0  0  0  0
  -10.3314  -48.3179   30.6984 C   0  0  0  0  0  0  0  0  0  0  0  0
   -9.2087  -43.1867   32.3603 C   0  0  0  0  0  0  0  0  0  0  0  0
  -12.4435  -46.6168   31.2943 C   0  0  0  0  0  0  0  0  0  0  0  0
  -10.8809  -44.8686   31.8379 C   0  0  0  0  0  0  0  0  0  0  0  0
   -8.5359  -45.3728   31.6281 C   0  0  0  0  0  0  0  0  0  0  0  0
  -10.0781  -47.0233   31.1177 C   0  0  0  0  0  0  0  0  0  0  0  0
   -9.5391  -44.4673   31.9453 C   0  0  0  0  0  0  0  0  0  0  0  0
  -11.1356  -46.1787   31.4138 C   0  0  0  0  0  0  0  0  0  0  0  0
  -12.8974  -44.3149   32.0558 H   0  0  0  0  0  0  0  0  0  0  0  0
  -11.7673  -43.0618   32.4462 H   0  0  0  0  0  0  0  0  0  0  0  0
   -5.9172  -43.4436   32.2109 H   0  0  0  0  0  0  0  0  0  0  0  0
  -11.8248  -49.6937   30.2763 H   0  0  0  0  0  0  0  0  0  0  0  0
   -7.6400  -41.8864   32.7578 H   0  0  0  0  0  0  0  0  0  0  0  0
  -13.6406  -48.2363   30.7963 H   0  0  0  0  0  0  0  0  0  0  0  0
   -6.4819  -45.6514   31.4984 H   0  0  0  0  0  0  0  0  0  0  0  0
   -9.5732  -48.9328   30.4818 H   0  0  0  0  0  0  0  0  0  0  0  0
   -9.9307  -42.5338   32.5893 H   0  0  0  0  0  0  0  0  0  0  0  0
  -13.2010  -45.9996   31.5068 H   0  0  0  0  0  0  0  0  0  0  0  0
  1 11  1  0  0  0  0
  2 12  2  0  0  0  0
  2 13  1  0  0  0  0
  3  5  1  0  0  0  0
  3  7  2  0  0  0  0
  4  6  2  0  0  0  0
  4  8  1  0  0  0  0
  5  9  2  0  0  0  0
  6 10  1  0  0  0  0
  7 12  1  0  0  0  0
  8 13  2  0  0  0  0
  9 14  1  0  0  0  0
 10 15  2  0  0  0  0
 11 14  2  0  0  0  0
 11 15  1  0  0  0  0
 12 14  1  0  0  0  0
 13 15  1  0  0  0  0
  1 16  1  0  0  0  0
  1 17  1  0  0  0  0
  3 18  1  0  0  0  0
  4 19  1  0  0  0  0
  5 20  1  0  0  0  0
  6 21  1  0  0  0  0
  7 22  1  0  0  0  0
  8 23  1  0  0  0  0
  9 24  1  0  0  0  0
 10 25  1  0  0  0  0
M  END
> <pdb_id>
6O4X

> <uniprot_id>
P22303

> <usmiles>
n1c2c(c(N)c3c1cccc3)cccc2

$$$$
AAG_B_501
          07202406273D 1   1.00000     0.00000     0
            
 31 30  0  0  0  0            999 V2000
   47.4171  -34.2477   27.6291 O   0  0  0  0  0  0  0  0  0  0  0  0
   48.1006  -32.3142   28.4842 O   0  0  0  0  0  0  0  0  0  0  0  0
   49.1416  -33.2683   24.1919 O   0  0  0  0  0  0  0  0  0  0  0  0
   52.2549  -39.1161   29.0045 N   0  0  0  0  0  0  0  0  0  0  0  0
   52.7474  -38.3100   26.9496 N   0  0  0  0  0  0  0  0  0  0  0  0
   51.6382  -36.9681   28.4646 N   0  0  0  0  0  0  0  0  0  0  0  0
   49.4508  -32.1703   26.0758 N   0  0  0  0  0  0  0  0  0  0  0  0
   49.1713  -30.8380   24.1103 C   0  0  0  0  0  0  0  0  0  0  0  0
   51.5326  -35.7586   27.6372 C   0  0  0  0  0  0  0  0  0  0  0  0
   50.9319  -34.6395   28.5062 C   0  0  0  0  0  0  0  0  0  0  0  0
   50.7916  -33.3603   27.7068 C   0  0  0  0  0  0  0  0  0  0  0  0
   52.2005  -38.1065   28.1566 C   0  0  0  0  0  0  0  0  0  0  0  0
   48.2794  -33.2609   27.7420 C   0  0  0  0  0  0  0  0  0  0  0  0
   49.2808  -32.2031   24.7692 C   0  0  0  0  0  0  0  0  0  0  0  0
   49.5003  -33.3629   26.9004 C   0  0  1  0  0  0  0  0  0  0  0  0
   47.6048  -35.0069   27.0060 H   0  0  0  0  0  0  0  0  0  0  0  0
   51.8631  -39.0221   29.9197 H   0  0  0  0  0  0  0  0  0  0  0  0
   52.6879  -39.9753   28.7318 H   0  0  0  0  0  0  0  0  0  0  0  0
   52.7357  -37.5803   26.2659 H   0  0  0  0  0  0  0  0  0  0  0  0
   53.1671  -39.1914   26.7331 H   0  0  0  0  0  0  0  0  0  0  0  0
   49.5505  -31.2801   26.5203 H   0  0  0  0  0  0  0  0  0  0  0  0
   49.3257  -30.1246   24.7939 H   0  0  0  0  0  0  0  0  0  0  0  0
   49.8577  -30.7609   23.3872 H   0  0  0  0  0  0  0  0  0  0  0  0
   48.2585  -30.7302   23.7163 H   0  0  0  0  0  0  0  0  0  0  0  0
   50.9384  -35.9350   26.8525 H   0  0  0  0  0  0  0  0  0  0  0  0
   52.4395  -35.4879   27.3144 H   0  0  0  0  0  0  0  0  0  0  0  0
   51.5316  -34.4737   29.2891 H   0  0  0  0  0  0  0  0  0  0  0  0
   50.0302  -34.9243   28.8315 H   0  0  0  0  0  0  0  0  0  0  0  0
   51.5679  -33.2779   27.0818 H   0  0  0  0  0  0  0  0  0  0  0  0
   50.7845  -32.5814   28.3339 H   0  0  0  0  0  0  0  0  0  0  0  0
   49.4550  -34.1804   26.3261 H   0  0  0  0  0  0  0  0  0  0  0  0
  1 13  1  0  0  0  0
  2 13  2  0  0  0  0
  3 14  2  0  0  0  0
  4 12  1  0  0  0  0
  5 12  1  0  0  0  0
  6  9  1  0  0  0  0
  6 12  2  0  0  0  0
  7 14  1  0  0  0  0
  7 15  1  0  0  0  0
  8 14  1  0  0  0  0
  9 10  1  0  0  0  0
 10 11  1  0  0  0  0
 11 15  1  0  0  0  0
 13 15  1  0  0  0  0
  1 16  1  0  0  0  0
  4 17  1  0  0  0  0
  4 18  1  0  0  0  0
  5 19  1  0  0  0  0
  5 20  1  0  0  0  0
  7 21  1  0  0  0  0
  8 22  1  0  0  0  0
  8 23  1  0  0  0  0
  8 24  1  0  0  0  0
  9 25  1  0  0  0  0
  9 26  1  0  0  0  0
 10 27  1  0  0  0  0
 10 28  1  0  0  0  0
 11 29  1  0  0  0  0
 11 30  1  0  0  0  0
 15 31  1  0  0  0  0
M  END
> <pdb_id>
5JGI

> <uniprot_id>
O14786

> <usmiles>
O=C(O)[C@@H](NC(=O)C)CCCN=C(N)N

$$$$
ABH_A_403
          07202406483D 1   1.00000     0.00000     0
            
 28 27  0  0  0  0            999 V2000
   13.8590  -23.6439   29.8372 O   0  0  0  0  0  0  0  0  0  0  0  0
   13.4710  -23.1382   27.7213 O   0  0  0  0  0  0  0  0  0  0  0  0
   17.1458  -16.3471   30.1056 O   0  0  0  0  0  0  0  0  0  0  0  0
   15.2221  -16.4369   31.2470 O   0  0  0  0  0  0  0  0  0  0  0  0
   15.2125  -15.8945   29.0686 O   0  0  0  0  0  0  0  0  0  0  0  0
   12.0576  -22.0324   30.9644 N   0  0  0  0  0  0  0  0  0  0  0  0
   13.9075  -20.0433   29.7187 C   0  0  0  0  0  0  0  0  0  0  0  0
   14.2238  -18.6069   29.2793 C   0  0  0  0  0  0  0  0  0  0  0  0
   12.5939  -20.5222   29.0583 C   0  0  0  0  0  0  0  0  0  0  0  0
   15.6731  -18.2443   29.6648 C   0  0  0  0  0  0  0  0  0  0  0  0
   13.2440  -22.9734   29.0314 C   0  0  0  0  0  0  0  0  0  0  0  0
   12.2147  -21.9557   29.5017 C   0  0  1  0  0  0  0  0  0  0  0  0
   15.8144  -16.6765   30.0309 B   0  5  0  0  0  0  0  0  0  0  0  0
   13.6938  -23.5252   30.8163 H   0  0  0  0  0  0  0  0  0  0  0  0
   17.5820  -16.5197   29.2225 H   0  0  0  0  0  0  0  0  0  0  0  0
   14.2521  -16.6753   31.1981 H   0  0  0  0  0  0  0  0  0  0  0  0
   14.2422  -16.1284   29.0080 H   0  0  0  0  0  0  0  0  0  0  0  0
   11.8132  -22.9664   31.2249 H   0  0  0  0  0  0  0  0  0  0  0  0
   12.9180  -21.7775   31.4058 H   0  0  0  0  0  0  0  0  0  0  0  0
   13.8071  -20.0707   30.7133 H   0  0  0  0  0  0  0  0  0  0  0  0
   14.6558  -20.6464   29.4425 H   0  0  0  0  0  0  0  0  0  0  0  0
   13.5932  -17.9759   29.7312 H   0  0  0  0  0  0  0  0  0  0  0  0
   14.1163  -18.5326   28.2879 H   0  0  0  0  0  0  0  0  0  0  0  0
   12.7085  -20.5106   28.0649 H   0  0  0  0  0  0  0  0  0  0  0  0
   11.8562  -19.8982   29.3160 H   0  0  0  0  0  0  0  0  0  0  0  0
   16.2761  -18.4539   28.8951 H   0  0  0  0  0  0  0  0  0  0  0  0
   15.9441  -18.7890   30.4585 H   0  0  0  0  0  0  0  0  0  0  0  0
   11.3365  -22.1873   29.0833 H   0  0  0  0  0  0  0  0  0  0  0  0
  1 11  1  0  0  0  0
  2 11  2  0  0  0  0
  3 13  1  0  0  0  0
  4 13  1  0  0  0  0
  5 13  1  0  0  0  0
  6 12  1  0  0  0  0
  7  8  1  0  0  0  0
  7  9  1  0  0  0  0
  8 10  1  0  0  0  0
  9 12  1  0  0  0  0
 10 13  1  0  0  0  0
 11 12  1  0  0  0  0
  1 14  1  0  0  0  0
  3 15  1  0  0  0  0
  4 16  1  0  0  0  0
  5 17  1  0  0  0  0
  6 18  1  0  0  0  0
  6 19  1  0  0  0  0
  7 20  1  0  0  0  0
  7 21  1  0  0  0  0
  8 22  1  0  0  0  0
  8 23  1  0  0  0  0
  9 24  1  0  0  0  0
  9 25  1  0  0  0  0
 10 26  1  0  0  0  0
 10 27  1  0  0  0  0
 12 28  1  0  0  0  0
M  CHG  1  13  -1
M  END
> <pdb_id>
4IU0

> <uniprot_id>
Q6TUJ5

> <usmiles>
O=C(O)[C@@H](N)CCCC[B-](O)(O)O

$$$$
ABH_A_403
          07202415503D 1   1.00000     0.00000     0
            
 28 27  0  0  0  0            999 V2000
  -19.4394   15.7380  -12.9557 O   0  0  0  0  0  0  0  0  0  0  0  0
  -20.0313   15.9006  -10.8296 O   0  0  0  0  0  0  0  0  0  0  0  0
  -26.3075   11.5833  -12.6615 O   0  0  0  0  0  0  0  0  0  0  0  0
  -26.8578   13.6830  -13.5542 O   0  0  0  0  0  0  0  0  0  0  0  0
  -27.0063   13.3933  -11.1710 O   0  0  0  0  0  0  0  0  0  0  0  0
  -21.2172   17.4465  -13.8697 N   0  0  0  0  0  0  0  0  0  0  0  0
  -22.9446   15.3022  -12.2188 C   0  0  0  0  0  0  0  0  0  0  0  0
  -24.4126   14.9748  -11.9582 C   0  0  0  0  0  0  0  0  0  0  0  0
  -22.6134   16.7638  -11.9186 C   0  0  0  0  0  0  0  0  0  0  0  0
  -24.7261   13.5036  -12.1905 C   0  0  0  0  0  0  0  0  0  0  0  0
  -20.1625   16.2291  -12.0397 C   0  0  0  0  0  0  0  0  0  0  0  0
  -21.2284   17.2569  -12.3856 C   0  0  1  0  0  0  0  0  0  0  0  0
  -26.2243   13.0345  -12.3790 B   0  5  0  0  0  0  0  0  0  0  0  0
  -19.5728   16.0231  -13.9049 H   0  0  0  0  0  0  0  0  0  0  0  0
  -25.8964   11.0726  -11.9064 H   0  0  0  0  0  0  0  0  0  0  0  0
  -26.8400   14.6759  -13.4369 H   0  0  0  0  0  0  0  0  0  0  0  0
  -26.9316   14.3767  -11.0056 H   0  0  0  0  0  0  0  0  0  0  0  0
  -20.3145   17.7659  -14.1581 H   0  0  0  0  0  0  0  0  0  0  0  0
  -21.4221   16.5767  -14.3184 H   0  0  0  0  0  0  0  0  0  0  0  0
  -22.7396   15.1170  -13.1799 H   0  0  0  0  0  0  0  0  0  0  0  0
  -22.3770   14.7182  -11.6384 H   0  0  0  0  0  0  0  0  0  0  0  0
  -24.9787   15.5251  -12.5720 H   0  0  0  0  0  0  0  0  0  0  0  0
  -24.6297   15.2040  -11.0094 H   0  0  0  0  0  0  0  0  0  0  0  0
  -22.6648   16.8912  -10.9281 H   0  0  0  0  0  0  0  0  0  0  0  0
  -23.3058   17.3314  -12.3641 H   0  0  0  0  0  0  0  0  0  0  0  0
  -24.3639   13.0036  -11.4038 H   0  0  0  0  0  0  0  0  0  0  0  0
  -24.2319   13.2300  -13.0157 H   0  0  0  0  0  0  0  0  0  0  0  0
  -21.0140   18.1243  -11.9366 H   0  0  0  0  0  0  0  0  0  0  0  0
  1 11  1  0  0  0  0
  2 11  2  0  0  0  0
  3 13  1  0  0  0  0
  4 13  1  0  0  0  0
  5 13  1  0  0  0  0
  6 12  1  0  0  0  0
  7  8  1  0  0  0  0
  7  9  1  0  0  0  0
  8 10  1  0  0  0  0
  9 12  1  0  0  0  0
 10 13  1  0  0  0  0
 11 12  1  0  0  0  0
  1 14  1  0  0  0  0
  3 15  1  0  0  0  0
  4 16  1  0  0  0  0
  5 17  1  0  0  0  0
  6 18  1  0  0  0  0
  6 19  1  0  0  0  0
  7 20  1  0  0  0  0
  7 21  1  0  0  0  0
  8 22  1  0  0  0  0
  8 23  1  0  0  0  0
  9 24  1  0  0  0  0
  9 25  1  0  0  0  0
 10 26  1  0  0  0  0
 10 27  1  0  0  0  0
 12 28  1  0  0  0  0
M  CHG  1  13  -1
M  END
> <pdb_id>
6Q92

> <uniprot_id>
P05089

> <usmiles>
O=C(O)[C@@H](N)CCCC[B-](O)(O)O

$$$$
ABH_B_405
          07202417303D 1   1.00000     0.00000     0
            
 28 27  0  0  0  0            999 V2000
  -57.1417  -20.6943   56.6803 O   0  0  0  0  0  0  0  0  0  0  0  0
  -58.0852  -18.8289   56.0548 O   0  0  0  0  0  0  0  0  0  0  0  0
  -52.1058  -18.7141   50.6427 O   0  0  0  0  0  0  0  0  0  0  0  0
  -54.3143  -19.3031   49.5897 O   0  0  0  0  0  0  0  0  0  0  0  0
  -52.8908  -20.9376   50.4789 O   0  0  0  0  0  0  0  0  0  0  0  0
  -59.2967  -19.8123   53.8999 N   0  0  0  0  0  0  0  0  0  0  0  0
  -56.2450  -20.1213   53.3082 C   0  0  0  0  0  0  0  0  0  0  0  0
  -55.2115  -20.6134   52.2765 C   0  0  0  0  0  0  0  0  0  0  0  0
  -57.2534  -21.1990   53.7056 C   0  0  0  0  0  0  0  0  0  0  0  0
  -54.0298  -19.6311   52.2001 C   0  0  0  0  0  0  0  0  0  0  0  0
  -57.8348  -20.0364   55.8672 C   0  0  0  0  0  0  0  0  0  0  0  0
  -58.3854  -20.7076   54.6238 C   0  0  1  0  0  0  0  0  0  0  0  0
  -53.3864  -19.5006   50.7505 B   0  5  0  0  0  0  0  0  0  0  0  0
  -56.9538  -21.6615   56.5092 H   0  0  0  0  0  0  0  0  0  0  0  0
  -51.5369  -18.8918   51.4457 H   0  0  0  0  0  0  0  0  0  0  0  0
  -55.1396  -19.8512   49.7257 H   0  0  0  0  0  0  0  0  0  0  0  0
  -53.6637  -21.5707   50.5231 H   0  0  0  0  0  0  0  0  0  0  0  0
  -60.0226  -19.5065   54.5159 H   0  0  0  0  0  0  0  0  0  0  0  0
  -58.7881  -19.0193   53.5644 H   0  0  0  0  0  0  0  0  0  0  0  0
  -56.7433  -19.3480   52.9160 H   0  0  0  0  0  0  0  0  0  0  0  0
  -55.7583  -19.8224   54.1290 H   0  0  0  0  0  0  0  0  0  0  0  0
  -55.6461  -20.6782   51.3783 H   0  0  0  0  0  0  0  0  0  0  0  0
  -54.8750  -21.5146   52.5498 H   0  0  0  0  0  0  0  0  0  0  0  0
  -56.7604  -21.9278   54.1807 H   0  0  0  0  0  0  0  0  0  0  0  0
  -57.6651  -21.5643   52.8707 H   0  0  0  0  0  0  0  0  0  0  0  0
  -53.3203  -19.9435   52.8317 H   0  0  0  0  0  0  0  0  0  0  0  0
  -54.3534  -18.7280   52.4825 H   0  0  0  0  0  0  0  0  0  0  0  0
  -58.9106  -21.5070   54.9155 H   0  0  0  0  0  0  0  0  0  0  0  0
  1 11  1  0  0  0  0
  2 11  2  0  0  0  0
  3 13  1  0  0  0  0
  4 13  1  0  0  0  0
  5 13  1  0  0  0  0
  6 12  1  0  0  0  0
  7  8  1  0  0  0  0
  7  9  1  0  0  0  0
  8 10  1  0  0  0  0
  9 12  1  0  0  0  0
 10 13  1  0  0  0  0
 11 12  1  0  0  0  0
  1 14  1  0  0  0  0
  3 15  1  0  0  0  0
  4 16  1  0  0  0  0
  5 17  1  0  0  0  0
  6 18  1  0  0  0  0
  6 19  1  0  0  0  0
  7 20  1  0  0  0  0
  7 21  1  0  0  0  0
  8 22  1  0  0  0  0
  8 23  1  0  0  0  0
  9 24  1  0  0  0  0
  9 25  1  0  0  0  0
 10 26  1  0  0  0  0
 10 27  1  0  0  0  0
 12 28  1  0  0  0  0
M  CHG  1  13  -1
M  END
> <pdb_id>
4Q3Q

> <uniprot_id>
Q6WVP6

> <usmiles>
O=C(O)[C@@H](N)CCCC[B-](O)(O)O

$$$$
ABV_A_1351
          07202413533D 1   1.00000     0.00000     0
            
 16 17  0  0  0  0            999 V2000
   18.8083    7.9366   -1.6178 S   0  0  0  0  0  0  0  0  0  0  0  0
   20.0722   10.0715   -2.5092 N   0  0  0  0  0  0  0  0  0  0  0  0
   20.9654    7.9172   -2.8443 N   0  0  0  0  0  0  0  0  0  0  0  0
   19.8094    4.0721   -1.8916 C   0  0  0  0  0  0  0  0  0  0  0  0
   21.0002    4.2324   -2.5902 C   0  0  0  0  0  0  0  0  0  0  0  0
   19.0567    5.1728   -1.5438 C   0  0  0  0  0  0  0  0  0  0  0  0
   21.4416    5.5042   -2.9331 C   0  0  0  0  0  0  0  0  0  0  0  0
   20.0362    8.7534   -2.3851 C   0  0  0  0  0  0  0  0  0  0  0  0
   19.4855    6.4310   -1.8850 C   0  0  0  0  0  0  0  0  0  0  0  0
   20.6876    6.6220   -2.5873 C   0  0  0  0  0  0  0  0  0  0  0  0
   20.8375   10.5086   -2.9817 H   0  0  0  0  0  0  0  0  0  0  0  0
   19.3340   10.6297   -2.1304 H   0  0  0  0  0  0  0  0  0  0  0  0
   19.4980    3.1556   -1.6406 H   0  0  0  0  0  0  0  0  0  0  0  0
   21.5403    3.4308   -2.8466 H   0  0  0  0  0  0  0  0  0  0  0  0
   18.1989    5.0548   -1.0435 H   0  0  0  0  0  0  0  0  0  0  0  0
   22.3026    5.6169   -3.4291 H   0  0  0  0  0  0  0  0  0  0  0  0
  1  8  1  0  0  0  0
  1  9  1  0  0  0  0
  2  8  1  0  0  0  0
  3  8  2  0  0  0  0
  3 10  1  0  0  0  0
  4  5  2  0  0  0  0
  4  6  1  0  0  0  0
  5  7  1  0  0  0  0
  6  9  2  0  0  0  0
  7 10  2  0  0  0  0
  9 10  1  0  0  0  0
  2 11  1  0  0  0  0
  2 12  1  0  0  0  0
  4 13  1  0  0  0  0
  5 14  1  0  0  0  0
  6 15  1  0  0  0  0
  7 16  1  0  0  0  0
M  END
> <pdb_id>
4B34

> <uniprot_id>
O74036

> <usmiles>
S1c2c(N=C1N)cccc2

$$$$
ABV_A_301
          07212403353D 1   1.00000     0.00000     0
            
 16 17  0  0  0  0            999 V2000
  -20.6592   16.6985  -12.4558 S   0  0  0  0  0  0  0  0  0  0  0  0
  -18.0268   17.5157  -12.6587 N   0  0  0  0  0  0  0  0  0  0  0  0
  -19.9182   19.1105  -12.3570 N   0  0  0  0  0  0  0  0  0  0  0  0
  -24.0961   18.8849  -11.9458 C   0  0  0  0  0  0  0  0  0  0  0  0
  -23.4820   20.1347  -11.9307 C   0  0  0  0  0  0  0  0  0  0  0  0
  -23.3181   17.7308  -12.1094 C   0  0  0  0  0  0  0  0  0  0  0  0
  -22.1079   20.2470  -12.0580 C   0  0  0  0  0  0  0  0  0  0  0  0
  -19.3835   17.8742  -12.5002 C   0  0  0  0  0  0  0  0  0  0  0  0
  -21.9242   17.8543  -12.2456 C   0  0  0  0  0  0  0  0  0  0  0  0
  -21.3029   19.0891  -12.2247 C   0  0  0  0  0  0  0  0  0  0  0  0
  -17.3215   18.2242  -12.6793 H   0  0  0  0  0  0  0  0  0  0  0  0
  -17.7714   16.5532  -12.7504 H   0  0  0  0  0  0  0  0  0  0  0  0
  -25.0878   18.8113  -11.8403 H   0  0  0  0  0  0  0  0  0  0  0  0
  -24.0387   20.9589  -11.8269 H   0  0  0  0  0  0  0  0  0  0  0  0
  -23.7498   16.8290  -12.1290 H   0  0  0  0  0  0  0  0  0  0  0  0
  -21.6792   21.1501  -12.0324 H   0  0  0  0  0  0  0  0  0  0  0  0
  1  8  1  0  0  0  0
  1  9  1  0  0  0  0
  2  8  1  0  0  0  0
  3  8  2  0  0  0  0
  3 10  1  0  0  0  0
  4  5  2  0  0  0  0
  4  6  1  0  0  0  0
  5  7  1  0  0  0  0
  6  9  2  0  0  0  0
  7 10  2  0  0  0  0
  9 10  1  0  0  0  0
  2 11  1  0  0  0  0
  2 12  1  0  0  0  0
  4 13  1  0  0  0  0
  5 14  1  0  0  0  0
  6 15  1  0  0  0  0
  7 16  1  0  0  0  0
M  END
> <pdb_id>
6QOI

> <uniprot_id>
B1MDI3

> <usmiles>
S1c2c(N=C1N)cccc2

$$$$
AC6_A_2003
          07192415263D 1   1.00000     0.00000     0
            
 18 18  0  0  0  0            999 V2000
   64.6075   39.5951   -1.2786 O   0  0  0  0  0  0  0  0  0  0  0  0
   70.6919   41.2189   -0.5708 O   0  0  0  0  0  0  0  0  0  0  0  0
   65.3444   37.4696   -0.4863 C   0  0  0  0  0  0  0  0  0  0  0  0
   69.2408   39.2991   -0.3503 C   0  0  0  0  0  0  0  0  0  0  0  0
   68.3362   41.4282   -1.0339 C   0  0  0  0  0  0  0  0  0  0  0  0
   67.9789   38.7394   -0.4349 C   0  0  0  0  0  0  0  0  0  0  0  0
   67.0743   40.8687   -1.1124 C   0  0  0  0  0  0  0  0  0  0  0  0
   65.5400   38.9174   -0.8943 C   0  0  0  0  0  0  0  0  0  0  0  0
   69.4120   40.6455   -0.6508 C   0  0  0  0  0  0  0  0  0  0  0  0
   66.9063   39.5303   -0.8112 C   0  0  0  0  0  0  0  0  0  0  0  0
   70.8204   42.1870   -0.7859 H   0  0  0  0  0  0  0  0  0  0  0  0
   66.2212   37.0820   -0.2017 H   0  0  0  0  0  0  0  0  0  0  0  0
   64.6965   37.4222    0.2740 H   0  0  0  0  0  0  0  0  0  0  0  0
   64.9864   36.9500   -1.2621 H   0  0  0  0  0  0  0  0  0  0  0  0
   70.0232   38.7401   -0.0755 H   0  0  0  0  0  0  0  0  0  0  0  0
   68.4713   42.3945   -1.2530 H   0  0  0  0  0  0  0  0  0  0  0  0
   67.8422   37.7711   -0.2259 H   0  0  0  0  0  0  0  0  0  0  0  0
   66.2907   41.4271   -1.3846 H   0  0  0  0  0  0  0  0  0  0  0  0
  1  8  2  0  0  0  0
  2  9  1  0  0  0  0
  3  8  1  0  0  0  0
  4  6  1  0  0  0  0
  4  9  2  0  0  0  0
  5  7  2  0  0  0  0
  5  9  1  0  0  0  0
  6 10  2  0  0  0  0
  7 10  1  0  0  0  0
  8 10  1  0  0  0  0
  2 11  1  0  0  0  0
  3 12  1  0  0  0  0
  3 13  1  0  0  0  0
  3 14  1  0  0  0  0
  4 15  1  0  0  0  0
  5 16  1  0  0  0  0
  6 17  1  0  0  0  0
  7 18  1  0  0  0  0
M  END
> <pdb_id>
5CQ8

> <uniprot_id>
Q9UIF8

> <usmiles>
O=C(c1ccc(O)cc1)C

$$$$
ADE_A_271
          07202401213D 1   1.00000     0.00000     0
            
 15 16  0  0  0  0            999 V2000
    3.3871    3.1074    9.0443 N   0  0  0  0  0  0  0  0  0  0  0  0
    1.0229    2.9697    9.2129 N   0  0  0  0  0  0  0  0  0  0  0  0
   -0.4814    3.5740    7.4292 N   0  0  0  0  0  0  0  0  0  0  0  0
    0.7556    4.3257    5.4901 N   0  0  0  0  0  0  0  0  0  0  0  0
    2.8583    4.1135    6.2517 N   0  0  0  0  0  0  0  0  0  0  0  0
   -0.1790    3.1453    8.6365 C   0  0  0  0  0  0  0  0  0  0  0  0
    2.1037    4.4545    5.2499 C   0  0  0  0  0  0  0  0  0  0  0  0
    2.1633    3.2642    8.5223 C   0  0  0  0  0  0  0  0  0  0  0  0
    0.6734    3.8588    6.7719 C   0  0  0  0  0  0  0  0  0  0  0  0
    1.9814    3.7252    7.2137 C   0  0  0  0  0  0  0  0  0  0  0  0
    4.1952    3.3361    8.5015 H   0  0  0  0  0  0  0  0  0  0  0  0
    3.4925    2.7617    9.9766 H   0  0  0  0  0  0  0  0  0  0  0  0
    0.0020    4.5289    4.8649 H   0  0  0  0  0  0  0  0  0  0  0  0
   -0.9630    2.9151    9.2130 H   0  0  0  0  0  0  0  0  0  0  0  0
    2.4715    4.7822    4.3796 H   0  0  0  0  0  0  0  0  0  0  0  0
  1  8  1  0  0  0  0
  2  6  1  0  0  0  0
  2  8  2  0  0  0  0
  3  6  2  0  0  0  0
  3  9  1  0  0  0  0
  4  7  1  0  0  0  0
  4  9  1  0  0  0  0
  5  7  2  0  0  0  0
  5 10  1  0  0  0  0
  8 10  1  0  0  0  0
  9 10  2  0  0  0  0
  1 11  1  0  0  0  0
  1 12  1  0  0  0  0
  4 13  1  0  0  0  0
  6 14  1  0  0  0  0
  7 15  1  0  0  0  0
M  END
> <pdb_id>
2P8N

> <uniprot_id>
P02879

> <usmiles>
n1c2NC=Nc2c(nc1)N

$$$$
ADP_A_1125
          07202402503D 1   1.00000     0.00000     0
            
 42 44  0  0  0  0            999 V2000
   36.3960    3.6770   13.0870 P   0  0  0  0  0  0  0  0  0  0  0  0
   37.9000    6.2210   13.0920 P   0  0  0  0  0  0  0  0  0  0  0  0
   34.8920    3.6930   13.2380 O   0  0  0  0  0  0  0  0  0  0  0  0
   36.8630    2.8290   11.9540 O   0  0  0  0  0  0  0  0  0  0  0  0
   37.0960    3.4210   14.4010 O   0  0  0  0  0  0  0  0  0  0  0  0
   38.0310    7.1920   11.9400 O   0  0  0  0  0  0  0  0  0  0  0  0
   39.1520    5.4990   13.5040 O   0  0  0  0  0  0  0  0  0  0  0  0
   38.8770    8.0660   19.4910 O   0  0  0  0  0  0  0  0  0  0  0  0
   37.8500    9.4950   17.3490 O   0  0  0  0  0  0  0  0  0  0  0  0
   36.7340    5.1870   12.6700 O   0  0  0  0  0  0  0  0  0  0  0  0
   37.2930    7.0740   14.2970 O   0  0  0  0  0  0  0  0  0  0  0  0
   35.9760    7.0030   17.6310 O   0  0  0  0  0  0  0  0  0  0  0  0
   35.6560    2.8700   22.7770 N   0  0  0  0  0  0  0  0  0  0  0  0
   37.0910    2.6100   20.9220 N   0  0  0  0  0  0  0  0  0  0  0  0
   37.5120    4.3400   19.3410 N   0  0  0  0  0  0  0  0  0  0  0  0
   35.2130    5.6310   21.7470 N   0  0  0  0  0  0  0  0  0  0  0  0
   36.2750    6.3700   19.8890 N   0  0  0  0  0  0  0  0  0  0  0  0
   36.8400    6.4500   15.4990 C   0  0  0  0  0  0  0  0  0  0  0  0
   37.6800    3.1030   19.8200 C   0  0  0  0  0  0  0  0  0  0  0  0
   35.4190    6.6700   20.9000 C   0  0  0  0  0  0  0  0  0  0  0  0
   38.0980    7.4020   18.5040 C   0  0  2  0  0  0  0  0  0  0  0  0
   37.9990    8.0950   17.1610 C   0  0  1  0  0  0  0  0  0  0  0  0
   36.6210    7.3530   18.8410 C   0  0  1  0  0  0  0  0  0  0  0  0
   36.2450    3.3380   21.6560 C   0  0  0  0  0  0  0  0  0  0  0  0
   36.7120    7.5500   16.5400 C   0  0  2  0  0  0  0  0  0  0  0  0
   36.6900    5.1170   20.0300 C   0  0  0  0  0  0  0  0  0  0  0  0
   35.9970    4.6910   21.2370 C   0  0  0  0  0  0  0  0  0  0  0  0
   34.6408    4.2759   14.0107 H   0  0  0  0  0  0  0  0  0  0  0  0
   37.8614    2.8583   11.9052 H   0  0  0  0  0  0  0  0  0  0  0  0
   37.1421    7.6109   11.7544 H   0  0  0  0  0  0  0  0  0  0  0  0
   38.8767    7.5276   20.3337 H   0  0  0  0  0  0  0  0  0  0  0  0
   37.7853    9.9459   16.4587 H   0  0  0  0  0  0  0  0  0  0  0  0
   35.0291    3.4534   23.2934 H   0  0  0  0  0  0  0  0  0  0  0  0
   35.8466    1.9399   23.0910 H   0  0  0  0  0  0  0  0  0  0  0  0
   37.5017    5.7641   15.8018 H   0  0  0  0  0  0  0  0  0  0  0  0
   35.9530    6.0136   15.3478 H   0  0  0  0  0  0  0  0  0  0  0  0
   38.2943    2.4952   19.3167 H   0  0  0  0  0  0  0  0  0  0  0  0
   34.9855    7.5646   21.0086 H   0  0  0  0  0  0  0  0  0  0  0  0
   38.4427    6.4721   18.3758 H   0  0  0  0  0  0  0  0  0  0  0  0
   38.7925    7.8892   16.5883 H   0  0  0  0  0  0  0  0  0  0  0  0
   36.3169    8.2617   19.1268 H   0  0  0  0  0  0  0  0  0  0  0  0
   36.1939    8.3099   16.1474 H   0  0  0  0  0  0  0  0  0  0  0  0
  1  3  1  0  0  0  0
  1  4  1  0  0  0  0
  1  5  2  0  0  0  0
  1 10  1  0  0  0  0
  2  6  1  0  0  0  0
  2  7  2  0  0  0  0
  2 10  1  0  0  0  0
  2 11  1  0  0  0  0
  8 21  1  0  0  0  0
  9 22  1  0  0  0  0
 11 18  1  0  0  0  0
 12 23  1  0  0  0  0
 12 25  1  0  0  0  0
 13 24  1  0  0  0  0
 14 19  1  0  0  0  0
 14 24  2  0  0  0  0
 15 19  2  0  0  0  0
 15 26  1  0  0  0  0
 16 20  2  0  0  0  0
 16 27  1  0  0  0  0
 17 20  1  0  0  0  0
 17 23  1  0  0  0  0
 17 26  1  0  0  0  0
 18 25  1  0  0  0  0
 21 22  1  0  0  0  0
 21 23  1  0  0  0  0
 22 25  1  0  0  0  0
 24 27  1  0  0  0  0
 26 27  2  0  0  0  0
  3 28  1  0  0  0  0
  4 29  1  0  0  0  0
  6 30  1  0  0  0  0
  8 31  1  0  0  0  0
  9 32  1  0  0  0  0
 13 33  1  0  0  0  0
 13 34  1  0  0  0  0
 18 35  1  0  0  0  0
 18 36  1  0  0  0  0
 19 37  1  0  0  0  0
 20 38  1  0  0  0  0
 21 39  1  0  0  0  0
 22 40  1  0  0  0  0
 23 41  1  0  0  0  0
 25 42  1  0  0  0  0
M  END
> <pdb_id>
1O0H

> <uniprot_id>
P61823

> <usmiles>
P(=O)(OP(=O)(O)O)(OC[C@H]1O[C@@H](N2c3ncnc(N)c3N=C2)[C@H](O)[C@@H]1O)O

$$$$
ADP_A_1452
          07192416553D 1   1.00000     0.00000     0
            
 42 44  0  0  0  0            999 V2000
  210.0678   -1.3828   69.4056 P   0  0  0  0  0  0  0  0  0  0  0  0
  209.1786   -3.5660   67.5977 P   0  0  0  0  0  0  0  0  0  0  0  0
  209.6057   -1.2011   70.8370 O   0  0  0  0  0  0  0  0  0  0  0  0
  211.5377   -1.6254   69.2391 O   0  0  0  0  0  0  0  0  0  0  0  0
  209.5369   -0.2937   68.4840 O   0  0  0  0  0  0  0  0  0  0  0  0
  210.2783   -3.1968   66.6210 O   0  0  0  0  0  0  0  0  0  0  0  0
  208.9383   -4.9676   68.0016 O   0  0  0  0  0  0  0  0  0  0  0  0
  202.0261   -4.1267   66.8717 O   0  0  0  0  0  0  0  0  0  0  0  0
  203.2879   -1.6190   67.2558 O   0  0  0  0  0  0  0  0  0  0  0  0
  209.3417   -2.7617   69.0091 O   0  0  0  0  0  0  0  0  0  0  0  0
  207.8286   -2.8835   67.0262 O   0  0  0  0  0  0  0  0  0  0  0  0
  205.4012   -3.5082   65.6844 O   0  0  0  0  0  0  0  0  0  0  0  0
  203.2182   -8.0938   61.2412 N   0  0  0  0  0  0  0  0  0  0  0  0
  202.3742   -5.8700   61.0475 N   0  0  0  0  0  0  0  0  0  0  0  0
  202.7515   -4.2324   62.7329 N   0  0  0  0  0  0  0  0  0  0  0  0
  204.3726   -7.1586   63.9355 N   0  0  0  0  0  0  0  0  0  0  0  0
  204.0428   -5.0869   64.6636 N   0  0  0  0  0  0  0  0  0  0  0  0
  206.5706   -3.1146   67.7011 C   0  0  0  0  0  0  0  0  0  0  0  0
  202.2212   -4.6298   61.5461 C   0  0  0  0  0  0  0  0  0  0  0  0
  204.6215   -6.2928   64.9465 C   0  0  0  0  0  0  0  0  0  0  0  0
  203.4531   -4.0406   66.8499 C   0  0  2  0  0  0  0  0  0  0  0  0
  204.0519   -2.8268   67.5391 C   0  0  1  0  0  0  0  0  0  0  0  0
  204.0523   -3.8693   65.4555 C   0  0  1  0  0  0  0  0  0  0  0  0
  203.0477   -6.8420   61.7171 C   0  0  0  0  0  0  0  0  0  0  0  0
  205.3992   -2.6807   66.8431 C   0  0  2  0  0  0  0  0  0  0  0  0
  203.4348   -5.1433   63.4853 C   0  0  0  0  0  0  0  0  0  0  0  0
  203.6549   -6.4933   63.0028 C   0  0  0  0  0  0  0  0  0  0  0  0
  208.6179   -1.0456   70.8512 H   0  0  0  0  0  0  0  0  0  0  0  0
  211.7499   -1.7328   68.2678 H   0  0  0  0  0  0  0  0  0  0  0  0
  210.2786   -2.2071   66.4780 H   0  0  0  0  0  0  0  0  0  0  0  0
  201.7348   -4.9561   66.3949 H   0  0  0  0  0  0  0  0  0  0  0  0
  203.7082   -0.8414   67.7234 H   0  0  0  0  0  0  0  0  0  0  0  0
  203.7237   -8.7686   61.7789 H   0  0  0  0  0  0  0  0  0  0  0  0
  202.8389   -8.3462   60.3510 H   0  0  0  0  0  0  0  0  0  0  0  0
  206.5588   -2.5952   68.5555 H   0  0  0  0  0  0  0  0  0  0  0  0
  206.4832   -4.0901   67.9027 H   0  0  0  0  0  0  0  0  0  0  0  0
  201.6908   -3.9673   61.0172 H   0  0  0  0  0  0  0  0  0  0  0  0
  205.1466   -6.5027   65.7713 H   0  0  0  0  0  0  0  0  0  0  0  0
  203.8328   -4.8674   67.2650 H   0  0  0  0  0  0  0  0  0  0  0  0
  204.1579   -2.9749   68.5224 H   0  0  0  0  0  0  0  0  0  0  0  0
  203.5789   -3.1372   64.9657 H   0  0  0  0  0  0  0  0  0  0  0  0
  205.5269   -1.7278   66.5682 H   0  0  0  0  0  0  0  0  0  0  0  0
  1  3  1  0  0  0  0
  1  4  1  0  0  0  0
  1  5  2  0  0  0  0
  1 10  1  0  0  0  0
  2  6  1  0  0  0  0
  2  7  2  0  0  0  0
  2 10  1  0  0  0  0
  2 11  1  0  0  0  0
  8 21  1  0  0  0  0
  9 22  1  0  0  0  0
 11 18  1  0  0  0  0
 12 23  1  0  0  0  0
 12 25  1  0  0  0  0
 13 24  1  0  0  0  0
 14 19  1  0  0  0  0
 14 24  2  0  0  0  0
 15 19  2  0  0  0  0
 15 26  1  0  0  0  0
 16 20  2  0  0  0  0
 16 27  1  0  0  0  0
 17 20  1  0  0  0  0
 17 23  1  0  0  0  0
 17 26  1  0  0  0  0
 18 25  1  0  0  0  0
 21 22  1  0  0  0  0
 21 23  1  0  0  0  0
 22 25  1  0  0  0  0
 24 27  1  0  0  0  0
 26 27  2  0  0  0  0
  3 28  1  0  0  0  0
  4 29  1  0  0  0  0
  6 30  1  0  0  0  0
  8 31  1  0  0  0  0
  9 32  1  0  0  0  0
 13 33  1  0  0  0  0
 13 34  1  0  0  0  0
 18 35  1  0  0  0  0
 18 36  1  0  0  0  0
 19 37  1  0  0  0  0
 20 38  1  0  0  0  0
 21 39  1  0  0  0  0
 22 40  1  0  0  0  0
 23 41  1  0  0  0  0
 25 42  1  0  0  0  0
M  END
> <pdb_id>
3ATU

> <uniprot_id>
P08107

> <usmiles>
P(=O)(OP(=O)(O)O)(OC[C@H]1O[C@@H](N2c3ncnc(N)c3N=C2)[C@H](O)[C@@H]1O)O

$$$$
AEK_A_501
          07202407253D 1   1.00000     0.00000     0
            
 49 52  0  0  0  0            999 V2000
  103.7559   16.8327   24.0299 O   0  0  0  0  0  0  0  0  0  0  0  0
   98.4821   14.0210   18.0920 N   0  0  0  0  0  0  0  0  0  0  0  0
  103.3433   17.6073   16.4513 N   0  0  0  0  0  0  0  0  0  0  0  0
  101.6785   16.0101   24.3809 N   0  0  0  0  0  0  0  0  0  0  0  0
  100.2191   15.6837   22.5598 N   0  0  0  0  0  0  0  0  0  0  0  0
  103.6735   17.4382   18.7845 N   0  0  0  0  0  0  0  0  0  0  0  0
  101.7142   16.7938   18.0763 N   0  0  0  0  0  0  0  0  0  0  0  0
  102.4933   17.4317   15.2593 C   0  0  0  0  0  0  0  0  0  0  0  0
  100.4939   15.6318   23.8318 C   0  0  0  0  0  0  0  0  0  0  0  0
   99.6376   14.3526   18.9537 C   0  0  0  0  0  0  0  0  0  0  0  0
   97.1495   14.1707   18.7247 C   0  0  0  0  0  0  0  0  0  0  0  0
   93.6568   14.4861   17.2721 C   0  0  0  0  0  0  0  0  0  0  0  0
   94.4551   15.4543   16.3882 C   0  0  0  0  0  0  0  0  0  0  0  0
   99.4259   15.6613   19.7490 C   0  0  0  0  0  0  0  0  0  0  0  0
   94.6078   13.9435   18.3388 C   0  0  0  0  0  0  0  0  0  0  0  0
   95.9476   15.2812   16.7695 C   0  0  0  0  0  0  0  0  0  0  0  0
  103.3729   17.0281   21.2024 C   0  0  0  0  0  0  0  0  0  0  0  0
  102.9037   17.2871   17.6933 C   0  0  0  0  0  0  0  0  0  0  0  0
  102.6740   16.4803   23.5707 C   0  0  0  0  0  0  0  0  0  0  0  0
  102.9912   17.0497   19.8646 C   0  0  0  0  0  0  0  0  0  0  0  0
   96.0036   13.9991   17.6607 C   0  0  0  0  0  0  0  0  0  0  0  0
  101.1267   16.1342   21.6552 C   0  0  0  0  0  0  0  0  0  0  0  0
  101.7448   16.6391   19.4311 C   0  0  0  0  0  0  0  0  0  0  0  0
  102.3982   16.5550   22.0940 C   0  0  0  0  0  0  0  0  0  0  0  0
  100.7634   16.1622   20.3038 C   0  0  0  0  0  0  0  0  0  0  0  0
   98.5790   13.0697   17.7994 H   0  0  0  0  0  0  0  0  0  0  0  0
  104.2678   17.9720   16.3408 H   0  0  0  0  0  0  0  0  0  0  0  0
  101.8204   15.9449   25.3687 H   0  0  0  0  0  0  0  0  0  0  0  0
  104.6107   17.7871   18.7872 H   0  0  0  0  0  0  0  0  0  0  0  0
  102.9961   17.7231   14.4455 H   0  0  0  0  0  0  0  0  0  0  0  0
  102.2416   16.4682   15.1684 H   0  0  0  0  0  0  0  0  0  0  0  0
  101.6658   17.9848   15.3556 H   0  0  0  0  0  0  0  0  0  0  0  0
   99.7840   15.2900   24.4474 H   0  0  0  0  0  0  0  0  0  0  0  0
  100.4485   14.4549   18.3775 H   0  0  0  0  0  0  0  0  0  0  0  0
   99.7806   13.6036   19.6006 H   0  0  0  0  0  0  0  0  0  0  0  0
   97.0820   15.0799   19.1356 H   0  0  0  0  0  0  0  0  0  0  0  0
   97.0440   13.4751   19.4353 H   0  0  0  0  0  0  0  0  0  0  0  0
   93.3005   13.7336   16.7182 H   0  0  0  0  0  0  0  0  0  0  0  0
   92.8967   14.9691   17.7068 H   0  0  0  0  0  0  0  0  0  0  0  0
   94.1633   16.3956   16.5578 H   0  0  0  0  0  0  0  0  0  0  0  0
   94.3183   15.2318   15.4229 H   0  0  0  0  0  0  0  0  0  0  0  0
   98.7969   15.4896   20.5072 H   0  0  0  0  0  0  0  0  0  0  0  0
   99.0374   16.3567   19.1444 H   0  0  0  0  0  0  0  0  0  0  0  0
   94.3686   13.0038   18.5834 H   0  0  0  0  0  0  0  0  0  0  0  0
   94.5874   14.5166   19.1580 H   0  0  0  0  0  0  0  0  0  0  0  0
   96.2724   16.0769   17.2807 H   0  0  0  0  0  0  0  0  0  0  0  0
   96.5065   15.1613   15.9489 H   0  0  0  0  0  0  0  0  0  0  0  0
  104.2770   17.3282   21.5067 H   0  0  0  0  0  0  0  0  0  0  0  0
   96.1585   13.1849   17.1012 H   0  0  0  0  0  0  0  0  0  0  0  0
  1 19  2  0  0  0  0
  2 10  1  0  0  0  0
  2 11  1  0  0  0  0
  3  8  1  0  0  0  0
  3 18  1  0  0  0  0
  4  9  1  0  0  0  0
  4 19  1  0  0  0  0
  5  9  2  0  0  0  0
  5 22  1  0  0  0  0
  6 18  1  0  0  0  0
  6 20  1  0  0  0  0
  7 18  2  0  0  0  0
  7 23  1  0  0  0  0
 10 14  1  0  0  0  0
 11 21  1  0  0  0  0
 12 13  1  0  0  0  0
 12 15  1  0  0  0  0
 13 16  1  0  0  0  0
 14 25  1  0  0  0  0
 15 21  1  0  0  0  0
 16 21  1  0  0  0  0
 17 20  2  0  0  0  0
 17 24  1  0  0  0  0
 19 24  1  0  0  0  0
 20 23  1  0  0  0  0
 22 24  2  0  0  0  0
 22 25  1  0  0  0  0
 23 25  2  0  0  0  0
  2 26  1  0  0  0  0
  3 27  1  0  0  0  0
  4 28  1  0  0  0  0
  6 29  1  0  0  0  0
  8 30  1  0  0  0  0
  8 31  1  0  0  0  0
  8 32  1  0  0  0  0
  9 33  1  0  0  0  0
 10 34  1  0  0  0  0
 10 35  1  0  0  0  0
 11 36  1  0  0  0  0
 11 37  1  0  0  0  0
 12 38  1  0  0  0  0
 12 39  1  0  0  0  0
 13 40  1  0  0  0  0
 13 41  1  0  0  0  0
 14 42  1  0  0  0  0
 14 43  1  0  0  0  0
 15 44  1  0  0  0  0
 15 45  1  0  0  0  0
 16 46  1  0  0  0  0
 16 47  1  0  0  0  0
 17 48  1  0  0  0  0
 21 49  1  0  0  0  0
M  END
> <pdb_id>
3SM0

> <uniprot_id>
P28720

> <usmiles>
O=C1NC=Nc2c1cc3NC(=Nc3c2CCNCC4CCCC4)NC

$$$$
AEZ_A_915
          07192420383D 1   1.00000     0.00000     0
            
 26 27  0  0  0  0            999 V2000
   61.6155   68.1997   61.8956 O   0  0  0  0  0  0  0  0  0  0  0  0
   57.7297   65.6140   57.9050 O   0  0  0  0  0  0  0  0  0  0  0  0
   56.3151   64.9875   60.5951 O   0  0  0  0  0  0  0  0  0  0  0  0
   60.3531   66.6612   58.3241 O   0  0  0  0  0  0  0  0  0  0  0  0
   56.5405   67.7265   62.0900 N   0  0  0  0  0  0  0  0  0  0  0  0
   58.5628   68.5953   62.3762 N   0  0  0  0  0  0  0  0  0  0  0  0
   57.2792   68.6061   62.8049 C   0  0  0  0  0  0  0  0  0  0  0  0
   60.9337   68.3097   60.6207 C   0  0  0  0  0  0  0  0  0  0  0  0
   58.2125   65.8957   59.2260 C   0  0  2  0  0  0  0  0  0  0  0  0
   56.9836   66.1661   60.1292 C   0  0  2  0  0  0  0  0  0  0  0  0
   59.2491   67.0274   59.1553 C   0  0  1  0  0  0  0  0  0  0  0  0
   57.3252   67.1237   61.2029 C   0  0  0  0  0  0  0  0  0  0  0  0
   58.6625   67.6905   61.3873 C   0  0  0  0  0  0  0  0  0  0  0  0
   59.8153   67.2700   60.5518 C   0  0  2  0  0  0  0  0  0  0  0  0
   62.3475   68.8795   61.9418 H   0  0  0  0  0  0  0  0  0  0  0  0
   58.5041   65.4349   57.2982 H   0  0  0  0  0  0  0  0  0  0  0  0
   55.5383   65.2493   61.1678 H   0  0  0  0  0  0  0  0  0  0  0  0
   61.0120   67.4129   58.2948 H   0  0  0  0  0  0  0  0  0  0  0  0
   55.5622   67.5574   62.2097 H   0  0  0  0  0  0  0  0  0  0  0  0
   56.9275   69.1811   63.5436 H   0  0  0  0  0  0  0  0  0  0  0  0
   61.5849   68.1488   59.8791 H   0  0  0  0  0  0  0  0  0  0  0  0
   60.5436   69.2259   60.5289 H   0  0  0  0  0  0  0  0  0  0  0  0
   58.6727   65.0764   59.5679 H   0  0  0  0  0  0  0  0  0  0  0  0
   56.3214   66.6388   59.5478 H   0  0  0  0  0  0  0  0  0  0  0  0
   58.8216   67.8624   58.8090 H   0  0  0  0  0  0  0  0  0  0  0  0
   60.1654   66.4034   60.9072 H   0  0  0  0  0  0  0  0  0  0  0  0
  1  8  1  0  0  0  0
  2  9  1  0  0  0  0
  3 10  1  0  0  0  0
  4 11  1  0  0  0  0
  5  7  1  0  0  0  0
  5 12  1  0  0  0  0
  6  7  2  0  0  0  0
  6 13  1  0  0  0  0
  8 14  1  0  0  0  0
  9 10  1  0  0  0  0
  9 11  1  0  0  0  0
 10 12  1  0  0  0  0
 11 14  1  0  0  0  0
 12 13  2  0  0  0  0
 13 14  1  0  0  0  0
  1 15  1  0  0  0  0
  2 16  1  0  0  0  0
  3 17  1  0  0  0  0
  4 18  1  0  0  0  0
  5 19  1  0  0  0  0
  7 20  1  0  0  0  0
  8 21  1  0  0  0  0
  8 22  1  0  0  0  0
  9 23  1  0  0  0  0
 10 24  1  0  0  0  0
 11 25  1  0  0  0  0
 14 26  1  0  0  0  0
M  END
> <pdb_id>
5OST

> <uniprot_id>
F6BL85

> <usmiles>
O[C@@H]1[C@H](C=2N=CNC2[C@H](O)[C@H]1O)CO

$$$$
AEZ_B_505
          07192418433D 1   1.00000     0.00000     0
            
 26 27  0  0  0  0            999 V2000
   -2.5040    7.9153    8.3067 O   0  0  0  0  0  0  0  0  0  0  0  0
    0.6793   12.1858    7.4063 O   0  0  0  0  0  0  0  0  0  0  0  0
    0.6899   12.7361   10.3203 O   0  0  0  0  0  0  0  0  0  0  0  0
   -1.4242   10.7268    6.3636 O   0  0  0  0  0  0  0  0  0  0  0  0
   -0.5069   10.3487   11.7369 N   0  0  0  0  0  0  0  0  0  0  0  0
   -2.3909    9.4774   10.9938 N   0  0  0  0  0  0  0  0  0  0  0  0
   -1.5796    9.6176   12.0913 C   0  0  0  0  0  0  0  0  0  0  0  0
   -3.1850    9.1640    8.1924 C   0  0  0  0  0  0  0  0  0  0  0  0
   -0.3103   11.7048    8.2989 C   0  0  2  0  0  0  0  0  0  0  0  0
    0.3516   11.4992    9.6625 C   0  0  2  0  0  0  0  0  0  0  0  0
   -1.0768   10.4950    7.7373 C   0  0  1  0  0  0  0  0  0  0  0  0
   -0.5821   10.7138   10.4591 C   0  0  0  0  0  0  0  0  0  0  0  0
   -1.8555   10.1501    9.9570 C   0  0  0  0  0  0  0  0  0  0  0  0
   -2.3223   10.3138    8.5747 C   0  0  2  0  0  0  0  0  0  0  0  0
   -3.1202    7.1740    8.0405 H   0  0  0  0  0  0  0  0  0  0  0  0
    0.2728   12.3295    6.5040 H   0  0  0  0  0  0  0  0  0  0  0  0
    1.1172   12.5385   11.2025 H   0  0  0  0  0  0  0  0  0  0  0  0
   -1.9216    9.9358    6.0075 H   0  0  0  0  0  0  0  0  0  0  0  0
    0.2458   10.5859   12.3511 H   0  0  0  0  0  0  0  0  0  0  0  0
   -1.7556    9.2405   13.0006 H   0  0  0  0  0  0  0  0  0  0  0  0
   -3.9859    9.1497    8.7911 H   0  0  0  0  0  0  0  0  0  0  0  0
   -3.4797    9.2842    7.2444 H   0  0  0  0  0  0  0  0  0  0  0  0
   -0.9779   12.4408    8.4116 H   0  0  0  0  0  0  0  0  0  0  0  0
    1.1883   10.9667    9.5342 H   0  0  0  0  0  0  0  0  0  0  0  0
   -0.5061    9.6766    7.8047 H   0  0  0  0  0  0  0  0  0  0  0  0
   -2.8664   11.1510    8.5202 H   0  0  0  0  0  0  0  0  0  0  0  0
  1  8  1  0  0  0  0
  2  9  1  0  0  0  0
  3 10  1  0  0  0  0
  4 11  1  0  0  0  0
  5  7  1  0  0  0  0
  5 12  1  0  0  0  0
  6  7  2  0  0  0  0
  6 13  1  0  0  0  0
  8 14  1  0  0  0  0
  9 10  1  0  0  0  0
  9 11  1  0  0  0  0
 10 12  1  0  0  0  0
 11 14  1  0  0  0  0
 12 13  2  0  0  0  0
 13 14  1  0  0  0  0
  1 15  1  0  0  0  0
  2 16  1  0  0  0  0
  3 17  1  0  0  0  0
  4 18  1  0  0  0  0
  5 19  1  0  0  0  0
  7 20  1  0  0  0  0
  8 21  1  0  0  0  0
  8 22  1  0  0  0  0
  9 23  1  0  0  0  0
 10 24  1  0  0  0  0
 11 25  1  0  0  0  0
 14 26  1  0  0  0  0
M  END
> <pdb_id>
5OSS

> <uniprot_id>
Q08638

> <usmiles>
O[C@@H]1[C@H](C=2N=CNC2[C@H](O)[C@H]1O)CO

$$$$
AFQ_A_390
          07202407253D 1   1.00000     0.00000     0
            
 51 54  0  0  0  0            999 V2000
  103.7010   16.8419   23.9087 O   0  0  0  0  0  0  0  0  0  0  0  0
   99.4354   15.3312   24.7024 N   0  0  0  0  0  0  0  0  0  0  0  0
  103.5649   17.0557   16.4584 N   0  0  0  0  0  0  0  0  0  0  0  0
   98.5905   13.5693   18.1417 N   0  0  0  0  0  0  0  0  0  0  0  0
  101.5711   16.1809   24.3754 N   0  0  0  0  0  0  0  0  0  0  0  0
  103.8103   17.0271   18.7176 N   0  0  0  0  0  0  0  0  0  0  0  0
  100.2026   15.6207   22.5683 N   0  0  0  0  0  0  0  0  0  0  0  0
  101.8562   16.4227   18.0138 N   0  0  0  0  0  0  0  0  0  0  0  0
  102.9330   16.8769   15.1667 C   0  0  0  0  0  0  0  0  0  0  0  0
   99.7442   13.7842   19.0598 C   0  0  0  0  0  0  0  0  0  0  0  0
   97.2283   13.5873   18.7592 C   0  0  0  0  0  0  0  0  0  0  0  0
   94.5926   15.1447   16.4831 C   0  0  0  0  0  0  0  0  0  0  0  0
   93.7578   14.3153   17.5168 C   0  0  0  0  0  0  0  0  0  0  0  0
   99.5263   15.2180   19.6588 C   0  0  0  0  0  0  0  0  0  0  0  0
   96.0459   15.0831   17.0163 C   0  0  0  0  0  0  0  0  0  0  0  0
   94.7591   13.3284   18.1454 C   0  0  0  0  0  0  0  0  0  0  0  0
  103.3793   16.7848   21.1574 C   0  0  0  0  0  0  0  0  0  0  0  0
  100.4166   15.6904   23.8337 C   0  0  0  0  0  0  0  0  0  0  0  0
  103.0149   16.8177   17.6505 C   0  0  0  0  0  0  0  0  0  0  0  0
  102.6029   16.4680   23.5374 C   0  0  0  0  0  0  0  0  0  0  0  0
  102.9986   16.6992   19.8198 C   0  0  0  0  0  0  0  0  0  0  0  0
  101.7797   16.2758   19.3584 C   0  0  0  0  0  0  0  0  0  0  0  0
  101.1058   15.9666   21.6033 C   0  0  0  0  0  0  0  0  0  0  0  0
   96.1721   13.6718   17.6167 C   0  0  0  0  0  0  0  0  0  0  0  0
  102.3745   16.3753   22.0490 C   0  0  0  0  0  0  0  0  0  0  0  0
  100.7687   15.8734   20.2331 C   0  0  0  0  0  0  0  0  0  0  0  0
   98.5707   14.9665   24.3571 H   0  0  0  0  0  0  0  0  0  0  0  0
   99.5780   15.4315   25.6871 H   0  0  0  0  0  0  0  0  0  0  0  0
  104.5071   17.3908   16.4561 H   0  0  0  0  0  0  0  0  0  0  0  0
   98.7132   12.6784   17.7042 H   0  0  0  0  0  0  0  0  0  0  0  0
  101.6551   16.3248   25.3614 H   0  0  0  0  0  0  0  0  0  0  0  0
  104.7591   17.3429   18.7249 H   0  0  0  0  0  0  0  0  0  0  0  0
  103.5751   17.1309   14.4434 H   0  0  0  0  0  0  0  0  0  0  0  0
  102.6672   15.9193   15.0553 H   0  0  0  0  0  0  0  0  0  0  0  0
  102.1204   17.4570   15.1099 H   0  0  0  0  0  0  0  0  0  0  0  0
  100.6069   13.7414   18.5560 H   0  0  0  0  0  0  0  0  0  0  0  0
   99.7479   13.0969   19.7862 H   0  0  0  0  0  0  0  0  0  0  0  0
   97.1402   14.3817   19.3601 H   0  0  0  0  0  0  0  0  0  0  0  0
   97.0865   12.7512   19.2891 H   0  0  0  0  0  0  0  0  0  0  0  0
   94.2698   16.0904   16.4461 H   0  0  0  0  0  0  0  0  0  0  0  0
   94.5331   14.7363   15.5723 H   0  0  0  0  0  0  0  0  0  0  0  0
   93.0205   13.8211   17.0562 H   0  0  0  0  0  0  0  0  0  0  0  0
   93.3705   14.9153   18.2168 H   0  0  0  0  0  0  0  0  0  0  0  0
   98.8473   15.1481   20.3897 H   0  0  0  0  0  0  0  0  0  0  0  0
   99.1738   15.8069   18.9315 H   0  0  0  0  0  0  0  0  0  0  0  0
   96.1959   15.7807   17.7169 H   0  0  0  0  0  0  0  0  0  0  0  0
   96.7018   15.2114   16.2724 H   0  0  0  0  0  0  0  0  0  0  0  0
   94.5192   12.3925   17.8875 H   0  0  0  0  0  0  0  0  0  0  0  0
   94.7399   13.4151   19.1415 H   0  0  0  0  0  0  0  0  0  0  0  0
  104.2789   17.1060   21.4533 H   0  0  0  0  0  0  0  0  0  0  0  0
   96.4182   13.0272   16.8929 H   0  0  0  0  0  0  0  0  0  0  0  0
  1 20  2  0  0  0  0
  2 18  1  0  0  0  0
  3  9  1  0  0  0  0
  3 19  1  0  0  0  0
  4 10  1  0  0  0  0
  4 11  1  0  0  0  0
  5 18  1  0  0  0  0
  5 20  1  0  0  0  0
  6 19  1  0  0  0  0
  6 21  1  0  0  0  0
  7 18  2  0  0  0  0
  7 23  1  0  0  0  0
  8 19  2  0  0  0  0
  8 22  1  0  0  0  0
 10 14  1  0  0  0  0
 11 24  1  0  0  0  0
 12 13  1  0  0  0  0
 12 15  1  0  0  0  0
 13 16  1  0  0  0  0
 14 26  1  0  0  0  0
 15 24  1  0  0  0  0
 16 24  1  0  0  0  0
 17 21  2  0  0  0  0
 17 25  1  0  0  0  0
 20 25  1  0  0  0  0
 21 22  1  0  0  0  0
 22 26  2  0  0  0  0
 23 25  2  0  0  0  0
 23 26  1  0  0  0  0
  2 27  1  0  0  0  0
  2 28  1  0  0  0  0
  3 29  1  0  0  0  0
  4 30  1  0  0  0  0
  5 31  1  0  0  0  0
  6 32  1  0  0  0  0
  9 33  1  0  0  0  0
  9 34  1  0  0  0  0
  9 35  1  0  0  0  0
 10 36  1  0  0  0  0
 10 37  1  0  0  0  0
 11 38  1  0  0  0  0
 11 39  1  0  0  0  0
 12 40  1  0  0  0  0
 12 41  1  0  0  0  0
 13 42  1  0  0  0  0
 13 43  1  0  0  0  0
 14 44  1  0  0  0  0
 14 45  1  0  0  0  0
 15 46  1  0  0  0  0
 15 47  1  0  0  0  0
 16 48  1  0  0  0  0
 16 49  1  0  0  0  0
 17 50  1  0  0  0  0
 24 51  1  0  0  0  0
M  END
> <pdb_id>
3GE7

> <uniprot_id>
P28720

> <usmiles>
O=C1NC(=Nc2c1cc3NC(=Nc3c2CCNCC4CCCC4)NC)N

$$$$
AG0_A_577
          07202412553D 1   1.00000     0.00000     0
            
 74 78  0  0  0  0            999 V2000
   44.3910   15.1730   53.4050 O   0  0  0  0  0  0  0  0  0  0  0  0
   41.5840   11.8920   51.6950 O   0  0  0  0  0  0  0  0  0  0  0  0
   42.3030   15.0680   54.1570 O   0  0  0  0  0  0  0  0  0  0  0  0
   45.7290   14.0770   49.8250 N   0  0  0  0  0  0  0  0  0  0  0  0
   43.5340   14.5690   49.6350 N   0  0  0  0  0  0  0  0  0  0  0  0
   43.6220   15.9730   47.7660 N   0  0  0  0  0  0  0  0  0  0  0  0
   42.6520   11.6790   60.1470 N   0  0  0  0  0  0  0  0  0  0  0  0
   45.4790   14.8470   48.8200 N   0  0  0  0  0  0  0  0  0  0  0  0
   40.6310   12.9700   62.2710 C   0  0  0  0  0  0  0  0  0  0  0  0
   44.9860   10.0280   58.3810 C   0  0  0  0  0  0  0  0  0  0  0  0
   43.9820   17.4050   45.8200 C   0  0  0  0  0  0  0  0  0  0  0  0
   47.7950   15.0410   48.0970 C   0  0  0  0  0  0  0  0  0  0  0  0
   38.1800   16.9360   53.9030 C   0  0  0  0  0  0  0  0  0  0  0  0
   37.6030   15.9930   54.9470 C   0  0  0  0  0  0  0  0  0  0  0  0
   40.3700   12.1700   60.9790 C   0  0  0  0  0  0  0  0  0  0  0  0
   44.8850   11.1630   59.3880 C   0  0  0  0  0  0  0  0  0  0  0  0
   39.5430   16.3050   53.5470 C   0  0  0  0  0  0  0  0  0  0  0  0
   38.6510   14.9170   55.3320 C   0  0  0  0  0  0  0  0  0  0  0  0
   41.9230   14.4070   56.8880 C   0  0  0  0  0  0  0  0  0  0  0  0
   41.3930   13.5900   55.6550 C   0  0  0  0  0  0  0  0  0  0  0  0
   45.8850   16.2230   46.9550 C   0  0  0  0  0  0  0  0  0  0  0  0
   44.2620   13.0230   51.5630 C   0  0  0  0  0  0  0  0  0  0  0  0
   41.2750   13.2220   58.9650 C   0  0  0  0  0  0  0  0  0  0  0  0
   43.4390   12.7680   58.1400 C   0  0  0  0  0  0  0  0  0  0  0  0
   40.6630   13.3270   53.3690 C   0  0  0  0  0  0  0  0  0  0  0  0
   43.3270   14.6420   53.3930 C   0  0  0  0  0  0  0  0  0  0  0  0
   44.1590   15.1600   48.6940 C   0  0  0  0  0  0  0  0  0  0  0  0
   44.5410   13.8790   50.3340 C   0  0  0  0  0  0  0  0  0  0  0  0
   41.8380   12.9230   52.5130 C   0  0  0  0  0  0  0  0  0  0  0  0
   44.5030   16.4880   46.8930 C   0  0  0  0  0  0  0  0  0  0  0  0
   41.4860   12.3590   59.9760 C   0  0  0  0  0  0  0  0  0  0  0  0
   43.5830   11.9150   59.2220 C   0  0  0  0  0  0  0  0  0  0  0  0
   46.3370   15.3880   47.9440 C   0  0  0  0  0  0  0  0  0  0  0  0
   42.2090   13.4780   58.0000 C   0  0  0  0  0  0  0  0  0  0  0  0
   39.9540   15.4580   54.7220 C   0  0  0  0  0  0  0  0  0  0  0  0
   43.0870   13.5250   52.4850 C   0  0  0  0  0  0  0  0  0  0  0  0
   41.0500   14.4180   54.3730 C   0  0  2  0  0  0  0  0  0  0  0  0
   42.2993   11.5486   51.0864 H   0  0  0  0  0  0  0  0  0  0  0  0
   39.8771   12.8240   62.9115 H   0  0  0  0  0  0  0  0  0  0  0  0
   41.4864   12.6614   62.6871 H   0  0  0  0  0  0  0  0  0  0  0  0
   40.6988   13.9434   62.0523 H   0  0  0  0  0  0  0  0  0  0  0  0
   45.8525    9.5454   58.5085 H   0  0  0  0  0  0  0  0  0  0  0  0
   44.2268    9.3918   58.5185 H   0  0  0  0  0  0  0  0  0  0  0  0
   44.9451   10.4004   57.4538 H   0  0  0  0  0  0  0  0  0  0  0  0
   44.7413   17.7117   45.2460 H   0  0  0  0  0  0  0  0  0  0  0  0
   43.3157   16.9153   45.2576 H   0  0  0  0  0  0  0  0  0  0  0  0
   43.5427   18.1975   46.2431 H   0  0  0  0  0  0  0  0  0  0  0  0
   48.3245   15.5055   47.3871 H   0  0  0  0  0  0  0  0  0  0  0  0
   48.1149   15.3352   48.9976 H   0  0  0  0  0  0  0  0  0  0  0  0
   47.9134   14.0520   48.0078 H   0  0  0  0  0  0  0  0  0  0  0  0
   38.3006   17.8541   54.2805 H   0  0  0  0  0  0  0  0  0  0  0  0
   37.5879   16.9815   53.0985 H   0  0  0  0  0  0  0  0  0  0  0  0
   36.7905   15.5447   54.5744 H   0  0  0  0  0  0  0  0  0  0  0  0
   37.3514   16.5157   55.7615 H   0  0  0  0  0  0  0  0  0  0  0  0
   39.5111   12.4809   60.5721 H   0  0  0  0  0  0  0  0  0  0  0  0
   40.2987   11.1989   61.2068 H   0  0  0  0  0  0  0  0  0  0  0  0
   45.6481   11.7940   59.2482 H   0  0  0  0  0  0  0  0  0  0  0  0
   44.9298   10.7855   60.3129 H   0  0  0  0  0  0  0  0  0  0  0  0
   40.2218   17.0214   53.3855 H   0  0  0  0  0  0  0  0  0  0  0  0
   39.4558   15.7377   52.7281 H   0  0  0  0  0  0  0  0  0  0  0  0
   38.4133   14.0287   54.9390 H   0  0  0  0  0  0  0  0  0  0  0  0
   38.7288   14.8320   56.3253 H   0  0  0  0  0  0  0  0  0  0  0  0
   41.2293   15.0679   57.1744 H   0  0  0  0  0  0  0  0  0  0  0  0
   42.7599   14.8915   56.6334 H   0  0  0  0  0  0  0  0  0  0  0  0
   40.5625   13.1116   55.9403 H   0  0  0  0  0  0  0  0  0  0  0  0
   42.0945   12.9216   55.4077 H   0  0  0  0  0  0  0  0  0  0  0  0
   46.5177   16.6317   46.2972 H   0  0  0  0  0  0  0  0  0  0  0  0
   45.0958   12.9941   52.1144 H   0  0  0  0  0  0  0  0  0  0  0  0
   44.0364   12.1000   51.2512 H   0  0  0  0  0  0  0  0  0  0  0  0
   40.3963   13.6969   58.9176 H   0  0  0  0  0  0  0  0  0  0  0  0
   44.1770   12.8831   57.4750 H   0  0  0  0  0  0  0  0  0  0  0  0
   40.3348   12.5260   53.8697 H   0  0  0  0  0  0  0  0  0  0  0  0
   39.9339   13.6726   52.7782 H   0  0  0  0  0  0  0  0  0  0  0  0
   40.3517   16.0784   55.3980 H   0  0  0  0  0  0  0  0  0  0  0  0
  1 26  2  0  0  0  0
  2 29  1  0  0  0  0
  3 26  1  0  0  0  0
  3 37  1  0  0  0  0
  4  8  1  0  0  0  0
  4 28  2  0  0  0  0
  5 27  2  0  0  0  0
  5 28  1  0  0  0  0
  6 27  1  0  0  0  0
  6 30  2  0  0  0  0
  7 31  2  0  0  0  0
  7 32  1  0  0  0  0
  8 27  1  0  0  0  0
  8 33  1  0  0  0  0
  9 15  1  0  0  0  0
 10 16  1  0  0  0  0
 11 30  1  0  0  0  0
 12 33  1  0  0  0  0
 13 14  1  0  0  0  0
 13 17  1  0  0  0  0
 14 18  1  0  0  0  0
 15 31  1  0  0  0  0
 16 32  1  0  0  0  0
 17 35  1  0  0  0  0
 18 35  1  0  0  0  0
 19 20  1  0  0  0  0
 19 34  1  0  0  0  0
 20 37  1  0  0  0  0
 21 30  1  0  0  0  0
 21 33  2  0  0  0  0
 22 28  1  0  0  0  0
 22 36  1  0  0  0  0
 23 31  1  0  0  0  0
 23 34  2  0  0  0  0
 24 32  2  0  0  0  0
 24 34  1  0  0  0  0
 25 29  1  0  0  0  0
 25 37  1  0  0  0  0
 26 36  1  0  0  0  0
 29 36  2  0  0  0  0
 35 37  1  0  0  0  0
  2 38  1  0  0  0  0
  9 39  1  0  0  0  0
  9 40  1  0  0  0  0
  9 41  1  0  0  0  0
 10 42  1  0  0  0  0
 10 43  1  0  0  0  0
 10 44  1  0  0  0  0
 11 45  1  0  0  0  0
 11 46  1  0  0  0  0
 11 47  1  0  0  0  0
 12 48  1  0  0  0  0
 12 49  1  0  0  0  0
 12 50  1  0  0  0  0
 13 51  1  0  0  0  0
 13 52  1  0  0  0  0
 14 53  1  0  0  0  0
 14 54  1  0  0  0  0
 15 55  1  0  0  0  0
 15 56  1  0  0  0  0
 16 57  1  0  0  0  0
 16 58  1  0  0  0  0
 17 59  1  0  0  0  0
 17 60  1  0  0  0  0
 18 61  1  0  0  0  0
 18 62  1  0  0  0  0
 19 63  1  0  0  0  0
 19 64  1  0  0  0  0
 20 65  1  0  0  0  0
 20 66  1  0  0  0  0
 21 67  1  0  0  0  0
 22 68  1  0  0  0  0
 22 69  1  0  0  0  0
 23 70  1  0  0  0  0
 24 71  1  0  0  0  0
 25 72  1  0  0  0  0
 25 73  1  0  0  0  0
 35 74  1  0  0  0  0
M  END
> <pdb_id>
3FRZ

> <uniprot_id>
P26663

> <usmiles>
O=C1O[C@@](C2CCCC2)(CC(O)=C1CC3=NN4C(=N3)N=C(C=C4C)C)CCc5cc(nc(c5)CC)CC

$$$$
AGK_A_1001
          07202415563D 1   1.00000     0.00000     0
            
 22 22  0  0  0  0            999 V2000
   80.8164   88.2150   17.0545 O   0  0  0  0  0  0  0  0  0  0  0  0
   77.2257   89.6726   21.7375 O   0  0  0  0  0  0  0  0  0  0  0  0
   78.4505   87.5811   20.3768 O   0  0  0  0  0  0  0  0  0  0  0  0
   76.8496   89.6582   18.1038 N   0  0  0  0  0  0  0  0  0  0  0  0
   77.8860   88.7520   17.7701 N   0  0  0  0  0  0  0  0  0  0  0  0
   80.0310   87.8644   18.1734 C   0  0  0  0  0  0  0  0  0  0  0  0
   76.3902   89.4162   19.4941 C   0  0  0  0  0  0  0  0  0  0  0  0
   77.5743   89.8015   20.3617 C   0  0  2  0  0  0  0  0  0  0  0  0
   78.7666   88.9176   20.0348 C   0  0  2  0  0  0  0  0  0  0  0  0
   79.1082   88.9920   18.5503 C   0  0  2  0  0  0  0  0  0  0  0  0
   81.4216   87.4541   16.8205 H   0  0  0  0  0  0  0  0  0  0  0  0
   78.0086   89.9274   22.3050 H   0  0  0  0  0  0  0  0  0  0  0  0
   79.2289   86.9900   20.1657 H   0  0  0  0  0  0  0  0  0  0  0  0
   76.0828   89.5301   17.4749 H   0  0  0  0  0  0  0  0  0  0  0  0
   78.0999   88.8514   16.7983 H   0  0  0  0  0  0  0  0  0  0  0  0
   80.6326   87.6605   18.9458 H   0  0  0  0  0  0  0  0  0  0  0  0
   79.4870   87.0551   17.9520 H   0  0  0  0  0  0  0  0  0  0  0  0
   76.1550   88.4532   19.6254 H   0  0  0  0  0  0  0  0  0  0  0  0
   75.5962   89.9854   19.7075 H   0  0  0  0  0  0  0  0  0  0  0  0
   77.8160   90.7539   20.1762 H   0  0  0  0  0  0  0  0  0  0  0  0
   79.5562   89.2172   20.5704 H   0  0  0  0  0  0  0  0  0  0  0  0
   79.5120   89.8773   18.3197 H   0  0  0  0  0  0  0  0  0  0  0  0
  1  6  1  0  0  0  0
  2  8  1  0  0  0  0
  3  9  1  0  0  0  0
  4  5  1  0  0  0  0
  4  7  1  0  0  0  0
  5 10  1  0  0  0  0
  6 10  1  0  0  0  0
  7  8  1  0  0  0  0
  8  9  1  0  0  0  0
  9 10  1  0  0  0  0
  1 11  1  0  0  0  0
  2 12  1  0  0  0  0
  3 13  1  0  0  0  0
  4 14  1  0  0  0  0
  5 15  1  0  0  0  0
  6 16  1  0  0  0  0
  6 17  1  0  0  0  0
  7 18  1  0  0  0  0
  7 19  1  0  0  0  0
  8 20  1  0  0  0  0
  9 21  1  0  0  0  0
 10 22  1  0  0  0  0
M  END
> <pdb_id>
4UFI

> <uniprot_id>
P54818

> <usmiles>
O[C@H]1[C@@H](O)[C@H](NNC1)CO

$$$$
AGS_A_1008
          07192423243D 1   1.00000     0.00000     0
            
 47 49  0  0  0  0            999 V2000
  -15.7510   29.3760   -5.0110 S   0  0  0  0  0  0  0  0  0  0  0  0
  -15.0150   30.7200   -6.2090 P   0  0  0  0  0  0  0  0  0  0  0  0
  -12.2570   31.0870   -6.8890 P   0  0  0  0  0  0  0  0  0  0  0  0
  -10.1170   30.7100   -5.0030 P   0  0  0  0  0  0  0  0  0  0  0  0
  -15.0120   30.0720   -7.5800 O   0  0  0  0  0  0  0  0  0  0  0  0
  -15.8570   31.9570   -5.9450 O   0  0  0  0  0  0  0  0  0  0  0  0
  -12.5150   32.0860   -7.9800 O   0  0  0  0  0  0  0  0  0  0  0  0
  -12.0370   29.6490   -7.2840 O   0  0  0  0  0  0  0  0  0  0  0  0
  -10.4390   29.2500   -5.1760 O   0  0  0  0  0  0  0  0  0  0  0  0
  -10.2370   31.3380   -3.6350 O   0  0  0  0  0  0  0  0  0  0  0  0
   -5.1000   27.1530   -5.9830 O   0  0  0  0  0  0  0  0  0  0  0  0
   -7.6700   27.2330   -6.3740 O   0  0  0  0  0  0  0  0  0  0  0  0
  -13.4860   31.1320   -5.8360 O   0  0  0  0  0  0  0  0  0  0  0  0
  -10.9800   31.6060   -6.0440 O   0  0  0  0  0  0  0  0  0  0  0  0
   -8.5990   30.9460   -5.5010 O   0  0  0  0  0  0  0  0  0  0  0  0
   -5.8140   30.2600   -6.1610 O   0  0  0  0  0  0  0  0  0  0  0  0
   -3.8900   31.7760    0.1910 N   0  0  0  0  0  0  0  0  0  0  0  0
   -2.2210   30.6600   -1.0500 N   0  0  0  0  0  0  0  0  0  0  0  0
   -2.6910   29.7600   -3.1620 N   0  0  0  0  0  0  0  0  0  0  0  0
   -5.7030   31.1830   -2.1200 N   0  0  0  0  0  0  0  0  0  0  0  0
   -5.0350   30.0970   -3.9130 N   0  0  0  0  0  0  0  0  0  0  0  0
   -8.1640   30.4720   -6.7750 C   0  0  0  0  0  0  0  0  0  0  0  0
   -1.8330   29.9970   -2.1540 C   0  0  0  0  0  0  0  0  0  0  0  0
   -6.0810   30.7040   -3.3240 C   0  0  0  0  0  0  0  0  0  0  0  0
   -5.7680   28.1080   -5.1540 C   0  0  2  0  0  0  0  0  0  0  0  0
   -7.1540   28.3790   -5.6990 C   0  0  1  0  0  0  0  0  0  0  0  0
   -5.0580   29.4500   -5.2490 C   0  0  1  0  0  0  0  0  0  0  0  0
   -6.9500   29.5490   -6.6550 C   0  0  2  0  0  0  0  0  0  0  0  0
   -3.4950   31.1100   -0.9260 C   0  0  0  0  0  0  0  0  0  0  0  0
   -3.9820   30.1880   -3.0870 C   0  0  0  0  0  0  0  0  0  0  0  0
   -4.4030   30.8750   -1.9540 C   0  0  0  0  0  0  0  0  0  0  0  0
  -14.6421   30.7142   -8.2514 H   0  0  0  0  0  0  0  0  0  0  0  0
  -15.5412   32.7058   -6.5277 H   0  0  0  0  0  0  0  0  0  0  0  0
  -12.6420   32.9929   -7.5783 H   0  0  0  0  0  0  0  0  0  0  0  0
  -10.3108   28.9916   -6.1335 H   0  0  0  0  0  0  0  0  0  0  0  0
   -4.1853   26.9775   -5.6189 H   0  0  0  0  0  0  0  0  0  0  0  0
   -8.5843   27.4361   -6.7243 H   0  0  0  0  0  0  0  0  0  0  0  0
   -4.8316   32.1031    0.2714 H   0  0  0  0  0  0  0  0  0  0  0  0
   -3.2391   31.9389    0.9324 H   0  0  0  0  0  0  0  0  0  0  0  0
   -7.9191   31.2560   -7.3454 H   0  0  0  0  0  0  0  0  0  0  0  0
   -8.9126   29.9675   -7.2053 H   0  0  0  0  0  0  0  0  0  0  0  0
   -0.8893   29.6744   -2.2266 H   0  0  0  0  0  0  0  0  0  0  0  0
   -6.9967   30.7874   -3.7172 H   0  0  0  0  0  0  0  0  0  0  0  0
   -5.8111   27.7918   -4.2063 H   0  0  0  0  0  0  0  0  0  0  0  0
   -7.7686   28.6456   -4.9566 H   0  0  0  0  0  0  0  0  0  0  0  0
   -4.1258   29.3248   -5.5887 H   0  0  0  0  0  0  0  0  0  0  0  0
   -6.7320   29.1874   -7.5615 H   0  0  0  0  0  0  0  0  0  0  0  0
  1  2  2  0  0  0  0
  2  5  1  0  0  0  0
  2  6  1  0  0  0  0
  2 13  1  0  0  0  0
  3  7  1  0  0  0  0
  3  8  2  0  0  0  0
  3 13  1  0  0  0  0
  3 14  1  0  0  0  0
  4  9  1  0  0  0  0
  4 10  2  0  0  0  0
  4 14  1  0  0  0  0
  4 15  1  0  0  0  0
 11 25  1  0  0  0  0
 12 26  1  0  0  0  0
 15 22  1  0  0  0  0
 16 27  1  0  0  0  0
 16 28  1  0  0  0  0
 17 29  1  0  0  0  0
 18 23  1  0  0  0  0
 18 29  2  0  0  0  0
 19 23  2  0  0  0  0
 19 30  1  0  0  0  0
 20 24  2  0  0  0  0
 20 31  1  0  0  0  0
 21 24  1  0  0  0  0
 21 27  1  0  0  0  0
 21 30  1  0  0  0  0
 22 28  1  0  0  0  0
 25 26  1  0  0  0  0
 25 27  1  0  0  0  0
 26 28  1  0  0  0  0
 29 31  1  0  0  0  0
 30 31  2  0  0  0  0
  5 32  1  0  0  0  0
  6 33  1  0  0  0  0
  7 34  1  0  0  0  0
  9 35  1  0  0  0  0
 11 36  1  0  0  0  0
 12 37  1  0  0  0  0
 17 38  1  0  0  0  0
 17 39  1  0  0  0  0
 22 40  1  0  0  0  0
 22 41  1  0  0  0  0
 23 42  1  0  0  0  0
 24 43  1  0  0  0  0
 25 44  1  0  0  0  0
 26 45  1  0  0  0  0
 27 46  1  0  0  0  0
 28 47  1  0  0  0  0
M  END
> <pdb_id>
4DN5

> <uniprot_id>
Q99558

> <usmiles>
S=P(OP(=O)(OP(=O)(OC[C@H]1O[C@@H](N2c3ncnc(N)c3N=C2)[C@H](O)[C@@H]1O)O)O)(O)O

$$$$
AGS_A_340
          07202404273D 1   1.00000     0.00000     0
            
 45 47  0  0  0  0            999 V2000
   -0.2110   11.2030    9.3820 S   0  0  0  0  0  0  0  0  0  0  0  0
    1.7690   11.5600    9.2970 P   0  0  0  0  0  0  0  0  0  0  0  0
    0.9910   14.1860    9.0430 P   0  0  0  0  0  0  0  0  0  0  0  0
    2.4350   16.0670   10.5190 P   0  0  0  0  0  0  0  0  0  0  0  0
    2.3440   10.6410    8.2640 O   0  0  0  0  0  0  0  0  0  0  0  0
    2.4070   11.2620   10.6750 O   0  0  0  0  0  0  0  0  0  0  0  0
    0.1240   14.1890    7.7470 O   0  0  0  0  0  0  0  0  0  0  0  0
    0.1000   13.9520   10.2290 O   0  0  0  0  0  0  0  0  0  0  0  0
    1.4510   16.6740   11.5590 O   0  0  0  0  0  0  0  0  0  0  0  0
    3.2290   14.9790   11.1940 O   0  0  0  0  0  0  0  0  0  0  0  0
    8.8760   19.1330    9.4500 O   0  0  0  0  0  0  0  0  0  0  0  0
    7.2980   16.3040   10.1330 O   0  0  0  0  0  0  0  0  0  0  0  0
    2.0690   13.0560    8.9110 O   0  0  0  0  0  0  0  0  0  0  0  0
    1.7110   15.5830    9.1950 O   0  0  0  0  0  0  0  0  0  0  0  0
    3.4290   17.1740   10.0510 O   0  0  0  0  0  0  0  0  0  0  0  0
    5.4210   19.2140    8.7120 O   0  0  0  0  0  0  0  0  0  0  0  0
    3.9950   22.8530   14.3410 N   0  0  0  0  0  0  0  0  0  0  0  0
    5.9440   23.6620   13.2010 N   0  0  0  0  0  0  0  0  0  0  0  0
    6.8550   22.4760   11.3860 N   0  0  0  0  0  0  0  0  0  0  0  0
    4.1030   20.6120   12.3670 N   0  0  0  0  0  0  0  0  0  0  0  0
    5.6180   20.3710   10.7840 N   0  0  0  0  0  0  0  0  0  0  0  0
    4.3350   16.8450    9.0450 C   0  0  0  0  0  0  0  0  0  0  0  0
    6.8850   23.5420   12.2370 C   0  0  0  0  0  0  0  0  0  0  0  0
    4.5310   19.8160   11.3130 C   0  0  0  0  0  0  0  0  0  0  0  0
    7.5400   18.8370    9.6780 C   0  0  2  0  0  0  0  0  0  0  0  0
    6.9090   17.4730    9.5140 C   0  0  0  0  0  0  0  0  0  0  0  0
    6.3550   19.8240    9.6510 C   0  0  1  0  0  0  0  0  0  0  0  0
    5.5150   17.7770    8.9610 C   0  0  2  0  0  0  0  0  0  0  0  0
    4.9870   22.7430   13.3180 C   0  0  0  0  0  0  0  0  0  0  0  0
    5.8930   21.5540   11.5010 C   0  0  0  0  0  0  0  0  0  0  0  0
    4.9560   21.6730   12.4620 C   0  0  0  0  0  0  0  0  0  0  0  0
    3.3301   10.7921    8.1953 H   0  0  0  0  0  0  0  0  0  0  0  0
    3.3902   11.4394   10.6325 H   0  0  0  0  0  0  0  0  0  0  0  0
    0.7118   14.3445    6.9531 H   0  0  0  0  0  0  0  0  0  0  0  0
    0.9149   17.3992   11.1269 H   0  0  0  0  0  0  0  0  0  0  0  0
    9.0378   20.1033    9.6298 H   0  0  0  0  0  0  0  0  0  0  0  0
    3.2803   22.1582   14.4212 H   0  0  0  0  0  0  0  0  0  0  0  0
    4.0156   23.6248   14.9766 H   0  0  0  0  0  0  0  0  0  0  0  0
    3.8540   16.8655    8.1685 H   0  0  0  0  0  0  0  0  0  0  0  0
    4.6751   15.9205    9.2170 H   0  0  0  0  0  0  0  0  0  0  0  0
    7.6018   24.2336   12.1481 H   0  0  0  0  0  0  0  0  0  0  0  0
    4.0963   18.9700   11.0043 H   0  0  0  0  0  0  0  0  0  0  0  0
    7.6142   18.7951   10.6744 H   0  0  0  0  0  0  0  0  0  0  0  0
    6.7073   20.6265    9.1694 H   0  0  0  0  0  0  0  0  0  0  0  0
    5.7439   17.5410    8.0166 H   0  0  0  0  0  0  0  0  0  0  0  0
  1  2  2  0  0  0  0
  2  5  1  0  0  0  0
  2  6  1  0  0  0  0
  2 13  1  0  0  0  0
  3  7  1  0  0  0  0
  3  8  2  0  0  0  0
  3 13  1  0  0  0  0
  3 14  1  0  0  0  0
  4  9  1  0  0  0  0
  4 10  2  0  0  0  0
  4 14  1  0  0  0  0
  4 15  1  0  0  0  0
 11 25  1  0  0  0  0
 12 26  2  0  0  0  0
 15 22  1  0  0  0  0
 16 27  1  0  0  0  0
 16 28  1  0  0  0  0
 17 29  1  0  0  0  0
 18 23  1  0  0  0  0
 18 29  2  0  0  0  0
 19 23  2  0  0  0  0
 19 30  1  0  0  0  0
 20 24  2  0  0  0  0
 20 31  1  0  0  0  0
 21 24  1  0  0  0  0
 21 27  1  0  0  0  0
 21 30  1  0  0  0  0
 22 28  1  0  0  0  0
 25 26  1  0  0  0  0
 25 27  1  0  0  0  0
 26 28  1  0  0  0  0
 29 31  1  0  0  0  0
 30 31  2  0  0  0  0
  5 32  1  0  0  0  0
  6 33  1  0  0  0  0
  7 34  1  0  0  0  0
  9 35  1  0  0  0  0
 11 36  1  0  0  0  0
 17 37  1  0  0  0  0
 17 38  1  0  0  0  0
 22 39  1  0  0  0  0
 22 40  1  0  0  0  0
 23 41  1  0  0  0  0
 24 42  1  0  0  0  0
 25 43  1  0  0  0  0
 27 44  1  0  0  0  0
 28 45  1  0  0  0  0
M  END
> <pdb_id>
3ORM

> <uniprot_id>
A5TY84

> <usmiles>
S=P(OP(=O)(OP(=O)(OC[C@H]1O[C@@H](N2c3ncnc(N)c3N=C2)[C@H](O)C1=O)O)O)(O)O

$$$$
AGS_A_401
          07202400143D 1   1.00000     0.00000     0
            
 47 49  0  0  0  0            999 V2000
  -10.2473   32.1625    0.1444 S   0  0  0  0  0  0  0  0  0  0  0  0
  -10.2363   32.4342   -1.8409 P   0  0  0  0  0  0  0  0  0  0  0  0
  -11.1007   30.4875   -3.8157 P   0  0  0  0  0  0  0  0  0  0  0  0
  -14.0050   30.3597   -4.2302 P   0  0  0  0  0  0  0  0  0  0  0  0
  -11.4307   33.3487   -2.1889 O   0  0  0  0  0  0  0  0  0  0  0  0
   -8.9612   33.0418   -2.2476 O   0  0  0  0  0  0  0  0  0  0  0  0
  -10.9451   31.5559   -4.8365 O   0  0  0  0  0  0  0  0  0  0  0  0
  -10.7331   29.1025   -4.1334 O   0  0  0  0  0  0  0  0  0  0  0  0
  -14.6862   31.6837   -4.1239 O   0  0  0  0  0  0  0  0  0  0  0  0
  -13.8405   29.6208   -5.5270 O   0  0  0  0  0  0  0  0  0  0  0  0
  -17.5371   25.0123   -4.0861 O   0  0  0  0  0  0  0  0  0  0  0  0
  -15.3522   26.0926   -5.3771 O   0  0  0  0  0  0  0  0  0  0  0  0
  -10.3367   30.9064   -2.4469 O   0  0  0  0  0  0  0  0  0  0  0  0
  -12.6506   30.5275   -3.3674 O   0  0  0  0  0  0  0  0  0  0  0  0
  -14.8752   29.3337   -3.2821 O   0  0  0  0  0  0  0  0  0  0  0  0
  -16.4727   27.2620   -2.2471 O   0  0  0  0  0  0  0  0  0  0  0  0
  -21.7385   31.5913   -2.8540 N   0  0  0  0  0  0  0  0  0  0  0  0
  -22.4210   29.2669   -2.9065 N   0  0  0  0  0  0  0  0  0  0  0  0
  -20.8320   27.5236   -2.9312 N   0  0  0  0  0  0  0  0  0  0  0  0
  -18.9678   30.5113   -2.9019 N   0  0  0  0  0  0  0  0  0  0  0  0
  -18.5125   28.3098   -2.8840 N   0  0  0  0  0  0  0  0  0  0  0  0
  -14.3470   28.0316   -3.0605 C   0  0  0  0  0  0  0  0  0  0  0  0
  -22.1256   27.9489   -2.9412 C   0  0  0  0  0  0  0  0  0  0  0  0
  -18.0066   29.5562   -2.8697 C   0  0  0  0  0  0  0  0  0  0  0  0
  -17.4880   26.4293   -4.2141 C   0  0  2  0  0  0  0  0  0  0  0  0
  -16.0838   26.9455   -4.5318 C   0  0  1  0  0  0  0  0  0  0  0  0
  -17.7515   27.0139   -2.8549 C   0  0  1  0  0  0  0  0  0  0  0  0
  -15.4326   26.9737   -3.1871 C   0  0  2  0  0  0  0  0  0  0  0  0
  -21.4976   30.2427   -2.8707 C   0  0  0  0  0  0  0  0  0  0  0  0
  -19.8273   28.4092   -2.8897 C   0  0  0  0  0  0  0  0  0  0  0  0
  -20.1086   29.8166   -2.9116 C   0  0  0  0  0  0  0  0  0  0  0  0
  -11.4543   33.5048   -3.1763 H   0  0  0  0  0  0  0  0  0  0  0  0
   -8.9573   33.1768   -3.2384 H   0  0  0  0  0  0  0  0  0  0  0  0
  -11.2411   32.4302   -4.4518 H   0  0  0  0  0  0  0  0  0  0  0  0
  -14.6799   31.9862   -3.1708 H   0  0  0  0  0  0  0  0  0  0  0  0
  -18.4734   24.7285   -3.8793 H   0  0  0  0  0  0  0  0  0  0  0  0
  -14.4480   26.4852   -5.5453 H   0  0  0  0  0  0  0  0  0  0  0  0
  -20.9742   32.2355   -2.8270 H   0  0  0  0  0  0  0  0  0  0  0  0
  -22.6788   31.9315   -2.8687 H   0  0  0  0  0  0  0  0  0  0  0  0
  -13.9552   27.9897   -2.1414 H   0  0  0  0  0  0  0  0  0  0  0  0
  -13.6325   27.8493   -3.7361 H   0  0  0  0  0  0  0  0  0  0  0  0
  -22.8659   27.2775   -2.9746 H   0  0  0  0  0  0  0  0  0  0  0  0
  -17.0273   29.7564   -2.8387 H   0  0  0  0  0  0  0  0  0  0  0  0
  -18.1544   26.7558   -4.8843 H   0  0  0  0  0  0  0  0  0  0  0  0
  -16.1287   27.8668   -4.9182 H   0  0  0  0  0  0  0  0  0  0  0  0
  -18.2548   26.3491   -2.3028 H   0  0  0  0  0  0  0  0  0  0  0  0
  -15.0444   26.0741   -2.9872 H   0  0  0  0  0  0  0  0  0  0  0  0
  1  2  2  0  0  0  0
  2  5  1  0  0  0  0
  2  6  1  0  0  0  0
  2 13  1  0  0  0  0
  3  7  1  0  0  0  0
  3  8  2  0  0  0  0
  3 13  1  0  0  0  0
  3 14  1  0  0  0  0
  4  9  1  0  0  0  0
  4 10  2  0  0  0  0
  4 14  1  0  0  0  0
  4 15  1  0  0  0  0
 11 25  1  0  0  0  0
 12 26  1  0  0  0  0
 15 22  1  0  0  0  0
 16 27  1  0  0  0  0
 16 28  1  0  0  0  0
 17 29  1  0  0  0  0
 18 23  1  0  0  0  0
 18 29  2  0  0  0  0
 19 23  2  0  0  0  0
 19 30  1  0  0  0  0
 20 24  2  0  0  0  0
 20 31  1  0  0  0  0
 21 24  1  0  0  0  0
 21 27  1  0  0  0  0
 21 30  1  0  0  0  0
 22 28  1  0  0  0  0
 25 26  1  0  0  0  0
 25 27  1  0  0  0  0
 26 28  1  0  0  0  0
 29 31  1  0  0  0  0
 30 31  2  0  0  0  0
  5 32  1  0  0  0  0
  6 33  1  0  0  0  0
  7 34  1  0  0  0  0
  9 35  1  0  0  0  0
 11 36  1  0  0  0  0
 12 37  1  0  0  0  0
 17 38  1  0  0  0  0
 17 39  1  0  0  0  0
 22 40  1  0  0  0  0
 22 41  1  0  0  0  0
 23 42  1  0  0  0  0
 24 43  1  0  0  0  0
 25 44  1  0  0  0  0
 26 45  1  0  0  0  0
 27 46  1  0  0  0  0
 28 47  1  0  0  0  0
M  END
> <pdb_id>
3W8Q

> <uniprot_id>
Q02750

> <usmiles>
S=P(OP(=O)(OP(=O)(OC[C@H]1O[C@@H](N2c3ncnc(N)c3N=C2)[C@H](O)[C@@H]1O)O)O)(O)O

$$$$
AGS_A_401
          07202402503D 1   1.00000     0.00000     0
            
 47 49  0  0  0  0            999 V2000
    9.7968   -1.5278   14.0523 S   0  0  0  0  0  0  0  0  0  0  0  0
    9.0652   -0.8378   12.9608 P   0  0  0  0  0  0  0  0  0  0  0  0
    7.0482    1.1464   12.9249 P   0  0  0  0  0  0  0  0  0  0  0  0
    6.8788    3.6460   14.3468 P   0  0  0  0  0  0  0  0  0  0  0  0
    5.6128    0.8222   12.5869 O   0  0  0  0  0  0  0  0  0  0  0  0
    7.9627    1.6958   11.8619 O   0  0  0  0  0  0  0  0  0  0  0  0
    8.1544    4.3495   14.7394 O   0  0  0  0  0  0  0  0  0  0  0  0
    6.0750    4.0766   13.1367 O   0  0  0  0  0  0  0  0  0  0  0  0
    2.3427    4.7713   14.2999 O   0  0  0  0  0  0  0  0  0  0  0  0
   10.0170    0.3020   12.3462 O   0  0  0  0  0  0  0  0  0  0  0  0
    8.5147   -2.1712   11.4603 O   0  0  0  0  0  0  0  0  0  0  0  0
    1.1648    5.3791   16.7162 O   0  0  0  0  0  0  0  0  0  0  0  0
    7.7352   -0.1651   13.5650 O   0  0  0  0  0  0  0  0  0  0  0  0
    7.1067    2.0483   14.2656 O   0  0  0  0  0  0  0  0  0  0  0  0
    5.8930    3.6340   15.6098 O   0  0  0  0  0  0  0  0  0  0  0  0
    3.9272    4.1159   17.4867 O   0  0  0  0  0  0  0  0  0  0  0  0
    6.7865   10.1266   19.2343 N   0  0  0  0  0  0  0  0  0  0  0  0
    4.5241    9.9933   19.9703 N   0  0  0  0  0  0  0  0  0  0  0  0
    3.1713    8.1292   19.3974 N   0  0  0  0  0  0  0  0  0  0  0  0
    6.2886    7.4520   17.8907 N   0  0  0  0  0  0  0  0  0  0  0  0
    4.3321    6.4151   18.0036 N   0  0  0  0  0  0  0  0  0  0  0  0
    3.3559    9.3173   20.0081 C   0  0  0  0  0  0  0  0  0  0  0  0
    5.5836    6.3593   17.5158 C   0  0  0  0  0  0  0  0  0  0  0  0
    4.6749    2.9205   15.4939 C   0  0  0  0  0  0  0  0  0  0  0  0
    5.5966    9.5067   19.3083 C   0  0  0  0  0  0  0  0  0  0  0  0
    4.1742    7.5367   18.7026 C   0  0  0  0  0  0  0  0  0  0  0  0
    5.4688    8.2132   18.6253 C   0  0  0  0  0  0  0  0  0  0  0  0
    3.1838    4.9860   15.4111 C   0  0  1  0  0  0  0  0  0  0  0  0
    2.5177    5.7813   16.5350 C   0  0  2  0  0  0  0  0  0  0  0  0
    3.3111    5.3817   17.7776 C   0  0  1  0  0  0  0  0  0  0  0  0
    3.5665    3.6934   16.1579 C   0  0  2  0  0  0  0  0  0  0  0  0
   10.8569    0.0594   11.9331 H   0  0  0  0  0  0  0  0  0  0  0  0
    7.8561   -1.5194   10.5059 H   0  0  0  0  0  0  0  0  0  0  0  0
    0.6046    5.8328   16.0720 H   0  0  0  0  0  0  0  0  0  0  0  0
    6.9274   10.9978   19.6838 H   0  0  0  0  0  0  0  0  0  0  0  0
    7.5444    9.6991   18.7195 H   0  0  0  0  0  0  0  0  0  0  0  0
    2.5281    9.7498   20.5547 H   0  0  0  0  0  0  0  0  0  0  0  0
    5.9739    5.5520   16.9079 H   0  0  0  0  0  0  0  0  0  0  0  0
    4.4357    2.7649   14.4402 H   0  0  0  0  0  0  0  0  0  0  0  0
    4.7740    1.9397   15.9641 H   0  0  0  0  0  0  0  0  0  0  0  0
    4.0322    5.4989   14.9370 H   0  0  0  0  0  0  0  0  0  0  0  0
    2.5091    6.8597   16.3270 H   0  0  0  0  0  0  0  0  0  0  0  0
    2.6721    5.2977   18.6667 H   0  0  0  0  0  0  0  0  0  0  0  0
    2.7240    2.9877   16.1679 H   0  0  0  0  0  0  0  0  0  0  0  0
    5.1500    0.4702   13.4006 H   0  0  0  0  0  0  0  0  0  0  0  0
    8.5331    3.9200   15.5592 H   0  0  0  0  0  0  0  0  0  0  0  0
    2.8359    4.2484   13.6047 H   0  0  0  0  0  0  0  0  0  0  0  0
  1  2  2  0  0  0  0
  2 10  1  0  0  0  0
  2 11  1  0  0  0  0
  2 13  1  0  0  0  0
  3  5  1  0  0  0  0
  3  6  2  0  0  0  0
  3 13  1  0  0  0  0
  3 14  1  0  0  0  0
  4  7  1  0  0  0  0
  4  8  2  0  0  0  0
  4 14  1  0  0  0  0
  4 15  1  0  0  0  0
  9 28  1  0  0  0  0
 10 32  1  0  0  0  0
 11 33  1  0  0  0  0
 12 29  1  0  0  0  0
 12 34  1  0  0  0  0
 15 24  1  0  0  0  0
 16 30  1  0  0  0  0
 16 31  1  0  0  0  0
 17 25  1  0  0  0  0
 17 35  1  0  0  0  0
 17 36  1  0  0  0  0
 18 22  1  0  0  0  0
 18 25  2  0  0  0  0
 19 22  2  0  0  0  0
 19 26  1  0  0  0  0
 20 23  2  0  0  0  0
 20 27  1  0  0  0  0
 21 23  1  0  0  0  0
 21 26  1  0  0  0  0
 21 30  1  0  0  0  0
 22 37  1  0  0  0  0
 23 38  1  0  0  0  0
 24 31  1  0  0  0  0
 24 39  1  0  0  0  0
 24 40  1  0  0  0  0
 25 27  1  0  0  0  0
 26 27  2  0  0  0  0
 28 29  1  0  0  0  0
 28 31  1  0  0  0  0
 28 41  1  0  0  0  0
 29 30  1  0  0  0  0
 29 42  1  0  0  0  0
 30 43  1  0  0  0  0
 31 44  1  0  0  0  0
  5 45  1  0  0  0  0
  7 46  1  0  0  0  0
  9 47  1  0  0  0  0
M  END
> <pdb_id>
7AKM

> <uniprot_id>
O14757

> <usmiles>
S=P(OP(=O)(OP(=O)(OC[C@H]1O[C@@H](N2c3ncnc(N)c3N=C2)[C@H](O)[C@@H]1O)O)O)(O)O

$$$$
AGS_A_901
          07192417023D 1   1.00000     0.00000     0
            
 47 49  0  0  0  0            999 V2000
   58.6060  -15.8090   15.4370 S   0  0  0  0  0  0  0  0  0  0  0  0
   57.8870  -14.0510   14.6970 P   0  0  0  0  0  0  0  0  0  0  0  0
   59.9190  -13.2960   12.7840 P   0  0  0  0  0  0  0  0  0  0  0  0
   58.0740  -11.5690   11.4080 P   0  0  0  0  0  0  0  0  0  0  0  0
   57.3970  -13.2060   15.8460 O   0  0  0  0  0  0  0  0  0  0  0  0
   57.0070  -14.3740   13.5140 O   0  0  0  0  0  0  0  0  0  0  0  0
   59.4430  -14.4850   12.0040 O   0  0  0  0  0  0  0  0  0  0  0  0
   61.4040  -13.1610   13.0910 O   0  0  0  0  0  0  0  0  0  0  0  0
   57.3320  -12.8240   11.0500 O   0  0  0  0  0  0  0  0  0  0  0  0
   57.4130  -10.5660   12.2800 O   0  0  0  0  0  0  0  0  0  0  0  0
   57.0440   -8.6300    6.0260 O   0  0  0  0  0  0  0  0  0  0  0  0
   56.3530   -8.4100    8.5280 O   0  0  0  0  0  0  0  0  0  0  0  0
   59.1620  -13.2090   14.1920 O   0  0  0  0  0  0  0  0  0  0  0  0
   59.4970  -11.9330   12.0800 O   0  0  0  0  0  0  0  0  0  0  0  0
   58.5930  -10.8590   10.0840 O   0  0  0  0  0  0  0  0  0  0  0  0
   59.4740   -9.8590    7.6640 O   0  0  0  0  0  0  0  0  0  0  0  0
   59.0460  -15.9220    4.6620 N   0  0  0  0  0  0  0  0  0  0  0  0
   58.6920  -14.0880    3.1640 N   0  0  0  0  0  0  0  0  0  0  0  0
   58.5160  -11.8730    3.9520 N   0  0  0  0  0  0  0  0  0  0  0  0
   59.0350  -13.8700    6.8570 N   0  0  0  0  0  0  0  0  0  0  0  0
   58.7530  -11.7070    6.3970 N   0  0  0  0  0  0  0  0  0  0  0  0
   59.0280   -9.5210    9.9990 C   0  0  0  0  0  0  0  0  0  0  0  0
   58.5150  -12.7620    2.9490 C   0  0  0  0  0  0  0  0  0  0  0  0
   58.9510  -12.6250    7.3730 C   0  0  0  0  0  0  0  0  0  0  0  0
   57.2470   -9.8060    6.7920 C   0  0  2  0  0  0  0  0  0  0  0  0
   57.2330   -9.4950    8.2470 C   0  0  1  0  0  0  0  0  0  0  0  0
   58.6630  -10.2500    6.5480 C   0  0  1  0  0  0  0  0  0  0  0  0
   58.6670   -9.1150    8.5810 C   0  0  2  0  0  0  0  0  0  0  0  0
   58.8700  -14.6140    4.4030 C   0  0  0  0  0  0  0  0  0  0  0  0
   58.7000  -12.2960    5.2310 C   0  0  0  0  0  0  0  0  0  0  0  0
   58.8770  -13.7150    5.5370 C   0  0  0  0  0  0  0  0  0  0  0  0
   57.0414  -12.3398   15.4949 H   0  0  0  0  0  0  0  0  0  0  0  0
   56.6398  -13.5266   13.1305 H   0  0  0  0  0  0  0  0  0  0  0  0
   58.4516  -14.4305   11.8851 H   0  0  0  0  0  0  0  0  0  0  0  0
   57.9056  -13.3941   10.4619 H   0  0  0  0  0  0  0  0  0  0  0  0
   57.0568   -8.8597    5.0528 H   0  0  0  0  0  0  0  0  0  0  0  0
   56.3607   -8.2202    9.5098 H   0  0  0  0  0  0  0  0  0  0  0  0
   59.1710  -16.2327    5.6042 H   0  0  0  0  0  0  0  0  0  0  0  0
   59.0518  -16.5838    3.9123 H   0  0  0  0  0  0  0  0  0  0  0  0
   60.0147   -9.4566   10.1482 H   0  0  0  0  0  0  0  0  0  0  0  0
   58.5519   -8.9481   10.6662 H   0  0  0  0  0  0  0  0  0  0  0  0
   58.3794  -12.4366    2.0132 H   0  0  0  0  0  0  0  0  0  0  0  0
   59.0251  -12.4093    8.3467 H   0  0  0  0  0  0  0  0  0  0  0  0
   56.5877  -10.5206    6.5581 H   0  0  0  0  0  0  0  0  0  0  0  0
   56.9606  -10.3032    8.7691 H   0  0  0  0  0  0  0  0  0  0  0  0
   59.0085   -9.8104    5.7189 H   0  0  0  0  0  0  0  0  0  0  0  0
   58.8071   -8.1332    8.4525 H   0  0  0  0  0  0  0  0  0  0  0  0
  1  2  2  0  0  0  0
  2  5  1  0  0  0  0
  2  6  1  0  0  0  0
  2 13  1  0  0  0  0
  3  7  1  0  0  0  0
  3  8  2  0  0  0  0
  3 13  1  0  0  0  0
  3 14  1  0  0  0  0
  4  9  1  0  0  0  0
  4 10  2  0  0  0  0
  4 14  1  0  0  0  0
  4 15  1  0  0  0  0
 11 25  1  0  0  0  0
 12 26  1  0  0  0  0
 15 22  1  0  0  0  0
 16 27  1  0  0  0  0
 16 28  1  0  0  0  0
 17 29  1  0  0  0  0
 18 23  1  0  0  0  0
 18 29  2  0  0  0  0
 19 23  2  0  0  0  0
 19 30  1  0  0  0  0
 20 24  2  0  0  0  0
 20 31  1  0  0  0  0
 21 24  1  0  0  0  0
 21 27  1  0  0  0  0
 21 30  1  0  0  0  0
 22 28  1  0  0  0  0
 25 26  1  0  0  0  0
 25 27  1  0  0  0  0
 26 28  1  0  0  0  0
 29 31  1  0  0  0  0
 30 31  2  0  0  0  0
  5 32  1  0  0  0  0
  6 33  1  0  0  0  0
  7 34  1  0  0  0  0
  9 35  1  0  0  0  0
 11 36  1  0  0  0  0
 12 37  1  0  0  0  0
 17 38  1  0  0  0  0
 17 39  1  0  0  0  0
 22 40  1  0  0  0  0
 22 41  1  0  0  0  0
 23 42  1  0  0  0  0
 24 43  1  0  0  0  0
 25 44  1  0  0  0  0
 26 45  1  0  0  0  0
 27 46  1  0  0  0  0
 28 47  1  0  0  0  0
M  END
> <pdb_id>
5C03

> <uniprot_id>
P29597

> <usmiles>
S=P(OP(=O)(OP(=O)(OC[C@H]1O[C@@H](N2c3ncnc(N)c3N=C2)[C@H](O)[C@@H]1O)O)O)(O)O

$$$$
AGS_B_301
          07192420423D 1   1.00000     0.00000     0
            
 47 49  0  0  0  0            999 V2000
   70.9325   42.5605   30.6674 S   0  0  0  0  0  0  0  0  0  0  0  0
   72.2391   42.2851   29.0948 P   0  0  0  0  0  0  0  0  0  0  0  0
   72.0922   39.6027   28.2539 P   0  0  0  0  0  0  0  0  0  0  0  0
   72.5308   36.8187   28.6936 P   0  0  0  0  0  0  0  0  0  0  0  0
   73.5679   43.0676   29.0610 O   0  0  0  0  0  0  0  0  0  0  0  0
   71.3345   42.4609   27.8861 O   0  0  0  0  0  0  0  0  0  0  0  0
   72.3972   40.0974   26.8383 O   0  0  0  0  0  0  0  0  0  0  0  0
   70.6695   39.2647   28.5028 O   0  0  0  0  0  0  0  0  0  0  0  0
   71.3601   36.7291   29.6264 O   0  0  0  0  0  0  0  0  0  0  0  0
   73.7349   36.0040   28.9946 O   0  0  0  0  0  0  0  0  0  0  0  0
   71.0069   37.5938   22.3474 O   0  0  0  0  0  0  0  0  0  0  0  0
   71.6645   38.9913   24.6122 O   0  0  0  0  0  0  0  0  0  0  0  0
   72.6144   40.7045   29.2638 O   0  0  0  0  0  0  0  0  0  0  0  0
   73.0144   38.3414   28.5410 O   0  0  0  0  0  0  0  0  0  0  0  0
   72.0394   36.4078   27.2305 O   0  0  0  0  0  0  0  0  0  0  0  0
   71.6560   35.3701   24.5055 O   0  0  0  0  0  0  0  0  0  0  0  0
   65.0440   33.4249   25.0534 N   0  0  0  0  0  0  0  0  0  0  0  0
   65.4683   34.5382   23.0343 N   0  0  0  0  0  0  0  0  0  0  0  0
   67.6225   35.4218   22.4879 N   0  0  0  0  0  0  0  0  0  0  0  0
   68.0917   33.8992   25.6495 N   0  0  0  0  0  0  0  0  0  0  0  0
   69.3663   34.9966   24.2093 N   0  0  0  0  0  0  0  0  0  0  0  0
   72.9753   36.4778   26.1744 C   0  0  0  0  0  0  0  0  0  0  0  0
   66.3192   35.1936   22.2007 C   0  0  0  0  0  0  0  0  0  0  0  0
   69.3348   34.3798   25.4230 C   0  0  0  0  0  0  0  0  0  0  0  0
   70.4031   37.1398   23.5776 C   0  0  2  0  0  0  0  0  0  0  0  0
   71.1941   37.6450   24.7795 C   0  0  1  0  0  0  0  0  0  0  0  0
   70.5542   35.6280   23.6276 C   0  0  1  0  0  0  0  0  0  0  0  0
   72.2856   36.5855   24.8415 C   0  0  2  0  0  0  0  0  0  0  0  0
   65.8914   34.0604   24.2165 C   0  0  0  0  0  0  0  0  0  0  0  0
   68.1536   34.9606   23.6469 C   0  0  0  0  0  0  0  0  0  0  0  0
   67.3021   34.2288   24.5697 C   0  0  0  0  0  0  0  0  0  0  0  0
   70.1266   41.9831   30.5363 H   0  0  0  0  0  0  0  0  0  0  0  0
   74.0799   42.8197   28.2385 H   0  0  0  0  0  0  0  0  0  0  0  0
   73.3731   40.3008   26.7593 H   0  0  0  0  0  0  0  0  0  0  0  0
   70.6279   37.3272   29.3007 H   0  0  0  0  0  0  0  0  0  0  0  0
   70.4765   37.2541   21.5706 H   0  0  0  0  0  0  0  0  0  0  0  0
   72.1742   39.2698   25.4262 H   0  0  0  0  0  0  0  0  0  0  0  0
   65.3753   33.0753   25.9298 H   0  0  0  0  0  0  0  0  0  0  0  0
   64.0850   33.3038   24.7971 H   0  0  0  0  0  0  0  0  0  0  0  0
   73.5397   35.6523   26.1837 H   0  0  0  0  0  0  0  0  0  0  0  0
   73.5566   37.2806   26.3065 H   0  0  0  0  0  0  0  0  0  0  0  0
   65.9628   35.5254   21.3273 H   0  0  0  0  0  0  0  0  0  0  0  0
   70.1101   34.2956   26.0490 H   0  0  0  0  0  0  0  0  0  0  0  0
   69.4424   37.4118   23.6337 H   0  0  0  0  0  0  0  0  0  0  0  0
   70.6265   37.5888   25.6009 H   0  0  0  0  0  0  0  0  0  0  0  0
   70.7371   35.2617   22.7153 H   0  0  0  0  0  0  0  0  0  0  0  0
   72.9712   36.7929   24.1437 H   0  0  0  0  0  0  0  0  0  0  0  0
  1  2  1  0  0  0  0
  2  5  1  0  0  0  0
  2  6  2  0  0  0  0
  2 13  1  0  0  0  0
  3  7  1  0  0  0  0
  3  8  2  0  0  0  0
  3 13  1  0  0  0  0
  3 14  1  0  0  0  0
  4  9  1  0  0  0  0
  4 10  2  0  0  0  0
  4 14  1  0  0  0  0
  4 15  1  0  0  0  0
 11 25  1  0  0  0  0
 12 26  1  0  0  0  0
 15 22  1  0  0  0  0
 16 27  1  0  0  0  0
 16 28  1  0  0  0  0
 17 29  1  0  0  0  0
 18 23  1  0  0  0  0
 18 29  2  0  0  0  0
 19 23  2  0  0  0  0
 19 30  1  0  0  0  0
 20 24  2  0  0  0  0
 20 31  1  0  0  0  0
 21 24  1  0  0  0  0
 21 27  1  0  0  0  0
 21 30  1  0  0  0  0
 22 28  1  0  0  0  0
 25 26  1  0  0  0  0
 25 27  1  0  0  0  0
 26 28  1  0  0  0  0
 29 31  1  0  0  0  0
 30 31  2  0  0  0  0
  1 32  1  0  0  0  0
  5 33  1  0  0  0  0
  7 34  1  0  0  0  0
  9 35  1  0  0  0  0
 11 36  1  0  0  0  0
 12 37  1  0  0  0  0
 17 38  1  0  0  0  0
 17 39  1  0  0  0  0
 22 40  1  0  0  0  0
 22 41  1  0  0  0  0
 23 42  1  0  0  0  0
 24 43  1  0  0  0  0
 25 44  1  0  0  0  0
 26 45  1  0  0  0  0
 27 46  1  0  0  0  0
 28 47  1  0  0  0  0
M  END
> <pdb_id>
3T2S

> <uniprot_id>
P07900

> <usmiles>
SP(=O)(OP(=O)(OP(=O)(OC[C@H]1O[C@@H](N2c3ncnc(N)c3N=C2)[C@H](O)[C@@H]1O)O)O)O

$$$$
AGS_B_440
          07202404273D 1   1.00000     0.00000     0
            
 47 49  0  0  0  0            999 V2000
    2.1310   10.6287    8.2556 S   0  0  0  0  0  0  0  0  0  0  0  0
    1.6153   11.4309    9.5935 P   0  0  0  0  0  0  0  0  0  0  0  0
    0.8602   14.1568    9.0845 P   0  0  0  0  0  0  0  0  0  0  0  0
    2.3657   16.1213   10.6142 P   0  0  0  0  0  0  0  0  0  0  0  0
    2.5133   10.9935   10.7752 O   0  0  0  0  0  0  0  0  0  0  0  0
    0.1151   11.0344    9.7014 O   0  0  0  0  0  0  0  0  0  0  0  0
    0.3309   14.1460    7.6743 O   0  0  0  0  0  0  0  0  0  0  0  0
   -0.3093   14.1129   10.0536 O   0  0  0  0  0  0  0  0  0  0  0  0
    1.2591   16.7975   11.3317 O   0  0  0  0  0  0  0  0  0  0  0  0
    3.0614   15.1559   11.5712 O   0  0  0  0  0  0  0  0  0  0  0  0
    8.3991   18.4698    9.5244 O   0  0  0  0  0  0  0  0  0  0  0  0
    7.3915   16.3042    9.9640 O   0  0  0  0  0  0  0  0  0  0  0  0
    1.9176   12.9838    9.3041 O   0  0  0  0  0  0  0  0  0  0  0  0
    1.8204   15.4807    9.2245 O   0  0  0  0  0  0  0  0  0  0  0  0
    3.4068   17.2294   10.0265 O   0  0  0  0  0  0  0  0  0  0  0  0
    5.4191   19.0717    8.9880 O   0  0  0  0  0  0  0  0  0  0  0  0
    3.7403   22.8354   14.2304 N   0  0  0  0  0  0  0  0  0  0  0  0
    5.7184   23.5318   13.2151 N   0  0  0  0  0  0  0  0  0  0  0  0
    6.7098   22.2240   11.4993 N   0  0  0  0  0  0  0  0  0  0  0  0
    3.8831   20.4410   12.4403 N   0  0  0  0  0  0  0  0  0  0  0  0
    5.4783   20.1791   10.9606 N   0  0  0  0  0  0  0  0  0  0  0  0
    4.2472   16.9129    8.9415 C   0  0  0  0  0  0  0  0  0  0  0  0
    6.7227   23.3442   12.2940 C   0  0  0  0  0  0  0  0  0  0  0  0
    4.3378   19.6180   11.4867 C   0  0  0  0  0  0  0  0  0  0  0  0
    7.2556   18.5716   10.3517 C   0  0  2  0  0  0  0  0  0  0  0  0
    6.4643   17.3229   10.2074 C   0  0  1  0  0  0  0  0  0  0  0  0
    6.3209   19.6535    9.8700 C   0  0  1  0  0  0  0  0  0  0  0  0
    5.5781   17.6529    9.0012 C   0  0  2  0  0  0  0  0  0  0  0  0
    4.7285   22.6128   13.3710 C   0  0  0  0  0  0  0  0  0  0  0  0
    5.7194   21.3394   11.6166 C   0  0  0  0  0  0  0  0  0  0  0  0
    4.7282   21.4912   12.5482 C   0  0  0  0  0  0  0  0  0  0  0  0
    2.2232   11.4665   11.6072 H   0  0  0  0  0  0  0  0  0  0  0  0
   -0.2912   11.4811   10.4985 H   0  0  0  0  0  0  0  0  0  0  0  0
    1.0959   14.1748    7.0309 H   0  0  0  0  0  0  0  0  0  0  0  0
    0.7981   17.4320   10.7112 H   0  0  0  0  0  0  0  0  0  0  0  0
    8.9461   19.3027    9.6078 H   0  0  0  0  0  0  0  0  0  0  0  0
    6.9104   15.4340    9.8578 H   0  0  0  0  0  0  0  0  0  0  0  0
    3.0135   22.1578   14.3430 H   0  0  0  0  0  0  0  0  0  0  0  0
    3.7231   23.6805   14.7646 H   0  0  0  0  0  0  0  0  0  0  0  0
    3.7808   17.1590    8.0918 H   0  0  0  0  0  0  0  0  0  0  0  0
    4.4262   15.9291    8.9506 H   0  0  0  0  0  0  0  0  0  0  0  0
    7.4562   24.0179   12.2037 H   0  0  0  0  0  0  0  0  0  0  0  0
    3.9231   18.7519   11.2074 H   0  0  0  0  0  0  0  0  0  0  0  0
    7.5161   18.7221   11.3054 H   0  0  0  0  0  0  0  0  0  0  0  0
    5.9189   17.1364   11.0245 H   0  0  0  0  0  0  0  0  0  0  0  0
    6.8289   20.3911    9.4251 H   0  0  0  0  0  0  0  0  0  0  0  0
    6.0918   17.4050    8.1798 H   0  0  0  0  0  0  0  0  0  0  0  0
  1  2  2  0  0  0  0
  2  5  1  0  0  0  0
  2  6  1  0  0  0  0
  2 13  1  0  0  0  0
  3  7  1  0  0  0  0
  3  8  2  0  0  0  0
  3 13  1  0  0  0  0
  3 14  1  0  0  0  0
  4  9  1  0  0  0  0
  4 10  2  0  0  0  0
  4 14  1  0  0  0  0
  4 15  1  0  0  0  0
 11 25  1  0  0  0  0
 12 26  1  0  0  0  0
 15 22  1  0  0  0  0
 16 27  1  0  0  0  0
 16 28  1  0  0  0  0
 17 29  1  0  0  0  0
 18 23  1  0  0  0  0
 18 29  2  0  0  0  0
 19 23  2  0  0  0  0
 19 30  1  0  0  0  0
 20 24  2  0  0  0  0
 20 31  1  0  0  0  0
 21 24  1  0  0  0  0
 21 27  1  0  0  0  0
 21 30  1  0  0  0  0
 22 28  1  0  0  0  0
 25 26  1  0  0  0  0
 25 27  1  0  0  0  0
 26 28  1  0  0  0  0
 29 31  1  0  0  0  0
 30 31  2  0  0  0  0
  5 32  1  0  0  0  0
  6 33  1  0  0  0  0
  7 34  1  0  0  0  0
  9 35  1  0  0  0  0
 11 36  1  0  0  0  0
 12 37  1  0  0  0  0
 17 38  1  0  0  0  0
 17 39  1  0  0  0  0
 22 40  1  0  0  0  0
 22 41  1  0  0  0  0
 23 42  1  0  0  0  0
 24 43  1  0  0  0  0
 25 44  1  0  0  0  0
 26 45  1  0  0  0  0
 27 46  1  0  0  0  0
 28 47  1  0  0  0  0
M  END
> <pdb_id>
3ORI

> <uniprot_id>
A5TY84

> <usmiles>
S=P(OP(=O)(OP(=O)(OC[C@H]1O[C@@H](N2c3ncnc(N)c3N=C2)[C@H](O)[C@@H]1O)O)O)(O)O

$$$$
AGV_A_401
          07202415543D 1   1.00000     0.00000     0
            
 37 39  0  0  0  0            999 V2000
    4.9739   -0.3091   21.5166 O   0  0  0  0  0  0  0  0  0  0  0  0
    6.8922   -3.1584   16.7152 O   0  0  0  0  0  0  0  0  0  0  0  0
    7.7206   -0.8356   17.6617 O   0  0  0  0  0  0  0  0  0  0  0  0
    0.4843   -6.0894   21.2211 N   0  0  0  0  0  0  0  0  0  0  0  0
    2.3569   -7.0926   20.2839 N   0  0  0  0  0  0  0  0  0  0  0  0
    4.4947   -6.0307   20.2680 N   0  0  0  0  0  0  0  0  0  0  0  0
    2.4011   -3.7804   21.9243 N   0  0  0  0  0  0  0  0  0  0  0  0
    6.2578   -2.7241   19.7712 N   0  0  0  0  0  0  0  0  0  0  0  0
    3.6490   -7.0399   19.9869 C   0  0  0  0  0  0  0  0  0  0  0  0
    4.9873   -0.5315   20.1052 C   0  0  0  0  0  0  0  0  0  0  0  0
    3.5426   -3.0486   21.9660 C   0  0  0  0  0  0  0  0  0  0  0  0
    5.5014   -3.3095   18.6211 C   0  0  0  0  0  0  0  0  0  0  0  0
    5.9523   -3.2868   21.1819 C   0  0  0  0  0  0  0  0  0  0  0  0
    1.7877   -6.0553   20.9401 C   0  0  0  0  0  0  0  0  0  0  0  0
    5.8837   -2.4627   17.4743 C   0  0  1  0  0  0  0  0  0  0  0  0
    6.3726   -1.1192   18.0331 C   0  0  1  0  0  0  0  0  0  0  0  0
    2.6198   -4.9778   21.2727 C   0  0  0  0  0  0  0  0  0  0  0  0
    3.9677   -4.9715   20.9054 C   0  0  0  0  0  0  0  0  0  0  0  0
    6.2245   -1.2267   19.5572 C   0  0  2  0  0  0  0  0  0  0  0  0
    4.5386   -3.7619   21.3424 C   0  0  0  0  0  0  0  0  0  0  0  0
    4.1237    0.1503   21.7736 H   0  0  0  0  0  0  0  0  0  0  0  0
    7.1647   -2.5994   15.9321 H   0  0  0  0  0  0  0  0  0  0  0  0
    7.9941    0.0458   18.0469 H   0  0  0  0  0  0  0  0  0  0  0  0
    0.0571   -5.3261   21.7059 H   0  0  0  0  0  0  0  0  0  0  0  0
   -0.0658   -6.8782   20.9470 H   0  0  0  0  0  0  0  0  0  0  0  0
    1.5248   -3.4931   22.3110 H   0  0  0  0  0  0  0  0  0  0  0  0
    4.0330   -7.8284   19.5064 H   0  0  0  0  0  0  0  0  0  0  0  0
    4.9093    0.3573   19.6536 H   0  0  0  0  0  0  0  0  0  0  0  0
    4.1925   -1.0931   19.8753 H   0  0  0  0  0  0  0  0  0  0  0  0
    3.6425   -2.1439   22.3801 H   0  0  0  0  0  0  0  0  0  0  0  0
    4.5158   -3.2638   18.7838 H   0  0  0  0  0  0  0  0  0  0  0  0
    5.7700   -4.2602   18.4661 H   0  0  0  0  0  0  0  0  0  0  0  0
    6.1224   -2.5662   21.8540 H   0  0  0  0  0  0  0  0  0  0  0  0
    6.5667   -4.0565   21.3557 H   0  0  0  0  0  0  0  0  0  0  0  0
    5.0826   -2.3083   16.8960 H   0  0  0  0  0  0  0  0  0  0  0  0
    5.7789   -0.3883   17.6965 H   0  0  0  0  0  0  0  0  0  0  0  0
    7.0334   -0.8245   19.9861 H   0  0  0  0  0  0  0  0  0  0  0  0
  1 10  1  0  0  0  0
  2 15  1  0  0  0  0
  3 16  1  0  0  0  0
  4 14  1  0  0  0  0
  5  9  1  0  0  0  0
  5 14  2  0  0  0  0
  6  9  2  0  0  0  0
  6 18  1  0  0  0  0
  7 11  1  0  0  0  0
  7 17  1  0  0  0  0
  8 12  1  0  0  0  0
  8 13  1  0  0  0  0
  8 19  1  0  0  0  0
 10 19  1  0  0  0  0
 11 20  2  0  0  0  0
 12 15  1  0  0  0  0
 13 20  1  0  0  0  0
 14 17  1  0  0  0  0
 15 16  1  0  0  0  0
 16 19  1  0  0  0  0
 17 18  2  0  0  0  0
 18 20  1  0  0  0  0
  1 21  1  0  0  0  0
  2 22  1  0  0  0  0
  3 23  1  0  0  0  0
  4 24  1  0  0  0  0
  4 25  1  0  0  0  0
  7 26  1  0  0  0  0
  9 27  1  0  0  0  0
 10 28  1  0  0  0  0
 10 29  1  0  0  0  0
 11 30  1  0  0  0  0
 12 31  1  0  0  0  0
 12 32  1  0  0  0  0
 13 33  1  0  0  0  0
 13 34  1  0  0  0  0
 15 35  1  0  0  0  0
 16 36  1  0  0  0  0
 19 37  1  0  0  0  0
M  END
> <pdb_id>
4I71

> <uniprot_id>
Q57ZL6

> <usmiles>
O[C@@H]1[C@H](N(CC=2c3ncnc(N)c3NC2)C[C@@H]1O)CO

$$$$
AH3_A_505
          07202412153D 1   1.00000     0.00000     0
            
 34 35  0  0  0  0            999 V2000
   49.1548   43.3759   61.5906 O   0  0  0  0  0  0  0  0  0  0  0  0
   44.1685   47.2672   66.6372 O   0  0  0  0  0  0  0  0  0  0  0  0
   42.9967   46.0301   64.6991 O   0  0  0  0  0  0  0  0  0  0  0  0
   48.7146   45.4044   62.5248 N   0  0  0  0  0  0  0  0  0  0  0  0
   44.7720   47.4558   67.9132 C   0  0  0  0  0  0  0  0  0  0  0  0
   40.8024   45.6094   63.9430 C   0  0  0  0  0  0  0  0  0  0  0  0
   49.5200   44.3895   62.1604 C   0  0  0  0  0  0  0  0  0  0  0  0
   42.2490   45.6001   63.5544 C   0  0  0  0  0  0  0  0  0  0  0  0
   49.2088   46.6290   63.1581 C   0  0  0  0  0  0  0  0  0  0  0  0
   47.2615   45.3200   62.3190 C   0  0  0  0  0  0  0  0  0  0  0  0
   48.6268   46.7338   64.5528 C   0  0  0  0  0  0  0  0  0  0  0  0
   45.1080   45.6852   63.5221 C   0  0  0  0  0  0  0  0  0  0  0  0
   46.3606   46.9946   65.6096 C   0  0  0  0  0  0  0  0  0  0  0  0
   44.9931   46.8306   65.6335 C   0  0  0  0  0  0  0  0  0  0  0  0
   44.3536   46.1622   64.5731 C   0  0  0  0  0  0  0  0  0  0  0  0
   46.4962   45.8584   63.5018 C   0  0  0  0  0  0  0  0  0  0  0  0
   47.1323   46.5217   64.5471 C   0  0  0  0  0  0  0  0  0  0  0  0
   44.0826   47.7733   68.5643 H   0  0  0  0  0  0  0  0  0  0  0  0
   45.1568   46.5894   68.2313 H   0  0  0  0  0  0  0  0  0  0  0  0
   45.5003   48.1372   67.8401 H   0  0  0  0  0  0  0  0  0  0  0  0
   40.2466   45.3136   63.1661 H   0  0  0  0  0  0  0  0  0  0  0  0
   40.6597   44.9857   64.7116 H   0  0  0  0  0  0  0  0  0  0  0  0
   40.5352   46.5350   64.2109 H   0  0  0  0  0  0  0  0  0  0  0  0
   50.4933   44.4737   62.3736 H   0  0  0  0  0  0  0  0  0  0  0  0
   42.5272   44.6765   63.2904 H   0  0  0  0  0  0  0  0  0  0  0  0
   42.4026   46.2259   62.7897 H   0  0  0  0  0  0  0  0  0  0  0  0
   48.9286   47.4223   62.6177 H   0  0  0  0  0  0  0  0  0  0  0  0
   50.2068   46.5987   63.2129 H   0  0  0  0  0  0  0  0  0  0  0  0
   47.0094   44.3624   62.1790 H   0  0  0  0  0  0  0  0  0  0  0  0
   47.0181   45.8508   61.5072 H   0  0  0  0  0  0  0  0  0  0  0  0
   48.8245   47.6428   64.9197 H   0  0  0  0  0  0  0  0  0  0  0  0
   49.0511   46.0399   65.1347 H   0  0  0  0  0  0  0  0  0  0  0  0
   44.6579   45.2101   62.7660 H   0  0  0  0  0  0  0  0  0  0  0  0
   46.8103   47.4627   66.3703 H   0  0  0  0  0  0  0  0  0  0  0  0
  1  7  2  0  0  0  0
  2  5  1  0  0  0  0
  2 14  1  0  0  0  0
  3  8  1  0  0  0  0
  3 15  1  0  0  0  0
  4  7  1  0  0  0  0
  4  9  1  0  0  0  0
  4 10  1  0  0  0  0
  6  8  1  0  0  0  0
  9 11  1  0  0  0  0
 10 16  1  0  0  0  0
 11 17  1  0  0  0  0
 12 15  2  0  0  0  0
 12 16  1  0  0  0  0
 13 14  2  0  0  0  0
 13 17  1  0  0  0  0
 14 15  1  0  0  0  0
 16 17  2  0  0  0  0
  5 18  1  0  0  0  0
  5 19  1  0  0  0  0
  5 20  1  0  0  0  0
  6 21  1  0  0  0  0
  6 22  1  0  0  0  0
  6 23  1  0  0  0  0
  7 24  1  0  0  0  0
  8 25  1  0  0  0  0
  8 26  1  0  0  0  0
  9 27  1  0  0  0  0
  9 28  1  0  0  0  0
 10 29  1  0  0  0  0
 10 30  1  0  0  0  0
 11 31  1  0  0  0  0
 11 32  1  0  0  0  0
 12 33  1  0  0  0  0
 13 34  1  0  0  0  0
M  END
> <pdb_id>
6IM6

> <uniprot_id>
Q08499

> <usmiles>
O=CN1Cc2c(cc(OC)c(OCC)c2)CC1

$$$$
AHN_A_1501
          07202410253D 1   1.00000     0.00000     0
            
 22 22  0  0  0  0            999 V2000
   19.8951   18.6670   57.4162 O   0  0  0  0  0  0  0  0  0  0  0  0
   12.7356   18.7478   60.9848 N   0  0  0  0  0  0  0  0  0  0  0  0
   17.8389   19.2319   58.2730 N   0  0  0  0  0  0  0  0  0  0  0  0
   14.2532   20.1521   61.5402 N   0  0  0  0  0  0  0  0  0  0  0  0
   18.3288   16.8886   57.9751 C   0  0  0  0  0  0  0  0  0  0  0  0
   13.0029   19.7835   61.7612 C   0  0  0  0  0  0  0  0  0  0  0  0
   16.5291   18.8388   58.7641 C   0  0  0  0  0  0  0  0  0  0  0  0
   13.8563   18.4467   60.2410 C   0  0  0  0  0  0  0  0  0  0  0  0
   16.2494   19.4664   60.1526 C   0  0  0  0  0  0  0  0  0  0  0  0
   18.7488   18.3443   57.8603 C   0  0  0  0  0  0  0  0  0  0  0  0
   14.8226   19.3237   60.5980 C   0  0  0  0  0  0  0  0  0  0  0  0
   11.8626   18.2619   60.9437 H   0  0  0  0  0  0  0  0  0  0  0  0
   18.0685   20.2048   58.2427 H   0  0  0  0  0  0  0  0  0  0  0  0
   17.4001   16.8376   58.3424 H   0  0  0  0  0  0  0  0  0  0  0  0
   18.3535   16.4623   57.0709 H   0  0  0  0  0  0  0  0  0  0  0  0
   18.9563   16.4079   58.5875 H   0  0  0  0  0  0  0  0  0  0  0  0
   12.3693   20.2137   62.4042 H   0  0  0  0  0  0  0  0  0  0  0  0
   16.4939   17.8424   58.8418 H   0  0  0  0  0  0  0  0  0  0  0  0
   15.8308   19.1476   58.1183 H   0  0  0  0  0  0  0  0  0  0  0  0
   13.9395   17.7159   59.5635 H   0  0  0  0  0  0  0  0  0  0  0  0
   16.4719   20.4404   60.1103 H   0  0  0  0  0  0  0  0  0  0  0  0
   16.8376   19.0191   60.8264 H   0  0  0  0  0  0  0  0  0  0  0  0
  1 10  2  0  0  0  0
  2  6  1  0  0  0  0
  2  8  1  0  0  0  0
  3  7  1  0  0  0  0
  3 10  1  0  0  0  0
  4  6  2  0  0  0  0
  4 11  1  0  0  0  0
  5 10  1  0  0  0  0
  7  9  1  0  0  0  0
  8 11  2  0  0  0  0
  9 11  1  0  0  0  0
  2 12  1  0  0  0  0
  3 13  1  0  0  0  0
  5 14  1  0  0  0  0
  5 15  1  0  0  0  0
  5 16  1  0  0  0  0
  6 17  1  0  0  0  0
  7 18  1  0  0  0  0
  7 19  1  0  0  0  0
  8 20  1  0  0  0  0
  9 21  1  0  0  0  0
  9 22  1  0  0  0  0
M  END
> <pdb_id>
2AFW

> <uniprot_id>
Q16769

> <usmiles>
O=C(NCCC=1N=CNC1)C

$$$$
AHN_B_2501
          07202410253D 1   1.00000     0.00000     0
            
 22 22  0  0  0  0            999 V2000
   19.9749   18.4620   57.6929 O   0  0  0  0  0  0  0  0  0  0  0  0
   12.6304   18.6929   60.9250 N   0  0  0  0  0  0  0  0  0  0  0  0
   17.9642   19.0165   58.6402 N   0  0  0  0  0  0  0  0  0  0  0  0
   14.1352   20.1065   61.4815 N   0  0  0  0  0  0  0  0  0  0  0  0
   18.4177   16.6806   58.2311 C   0  0  0  0  0  0  0  0  0  0  0  0
   12.9287   19.6532   61.7780 C   0  0  0  0  0  0  0  0  0  0  0  0
   16.6610   18.5889   59.1605 C   0  0  0  0  0  0  0  0  0  0  0  0
   13.6785   18.5183   60.0530 C   0  0  0  0  0  0  0  0  0  0  0  0
   15.9526   19.7648   59.7866 C   0  0  0  0  0  0  0  0  0  0  0  0
   18.8476   18.1330   58.1667 C   0  0  0  0  0  0  0  0  0  0  0  0
   14.6288   19.4193   60.3994 C   0  0  0  0  0  0  0  0  0  0  0  0
   18.1962   19.9892   58.6400 H   0  0  0  0  0  0  0  0  0  0  0  0
   14.6140   20.8364   61.9694 H   0  0  0  0  0  0  0  0  0  0  0  0
   17.5040   16.6209   58.6332 H   0  0  0  0  0  0  0  0  0  0  0  0
   18.4013   16.2965   57.3080 H   0  0  0  0  0  0  0  0  0  0  0  0
   19.0641   16.1663   58.7947 H   0  0  0  0  0  0  0  0  0  0  0  0
   12.3442   19.9816   62.5199 H   0  0  0  0  0  0  0  0  0  0  0  0
   16.7955   17.8766   59.8494 H   0  0  0  0  0  0  0  0  0  0  0  0
   16.1063   18.2273   58.4111 H   0  0  0  0  0  0  0  0  0  0  0  0
   13.7297   17.8543   59.3070 H   0  0  0  0  0  0  0  0  0  0  0  0
   15.8016   20.4549   59.0789 H   0  0  0  0  0  0  0  0  0  0  0  0
   16.5412   20.1432   60.5010 H   0  0  0  0  0  0  0  0  0  0  0  0
  1 10  2  0  0  0  0
  2  6  2  0  0  0  0
  2  8  1  0  0  0  0
  3  7  1  0  0  0  0
  3 10  1  0  0  0  0
  4  6  1  0  0  0  0
  4 11  1  0  0  0  0
  5 10  1  0  0  0  0
  7  9  1  0  0  0  0
  8 11  2  0  0  0  0
  9 11  1  0  0  0  0
  3 12  1  0  0  0  0
  4 13  1  0  0  0  0
  5 14  1  0  0  0  0
  5 15  1  0  0  0  0
  5 16  1  0  0  0  0
  6 17  1  0  0  0  0
  7 18  1  0  0  0  0
  7 19  1  0  0  0  0
  8 20  1  0  0  0  0
  9 21  1  0  0  0  0
  9 22  1  0  0  0  0
M  END
> <pdb_id>
2AFW

> <uniprot_id>
Q16769

> <usmiles>
O=C(NCCC=1NC=NC1)C

$$$$
AIJ_A_600
          07192417253D 1   1.00000     0.00000     0
            
 62 66  0  0  0  0            999 V2000
   24.4085   27.0199   69.4605 S   0  0  0  0  0  0  0  0  0  0  0  0
   25.9107   33.5936   69.9698 O   0  0  0  0  0  0  0  0  0  0  0  0
   23.7458   22.4854   67.5693 O   0  0  0  0  0  0  0  0  0  0  0  0
   29.1895   28.6561   64.6150 O   0  0  0  0  0  0  0  0  0  0  0  0
   27.1129   26.0052   70.0252 O   0  0  0  0  0  0  0  0  0  0  0  0
   30.8441   28.0649   61.8715 N   0  0  0  0  0  0  0  0  0  0  0  0
   30.4733   30.3249   62.8115 C   0  0  0  0  0  0  0  0  0  0  0  0
   30.6244   28.5999   64.4160 C   0  0  0  0  0  0  0  0  0  0  0  0
   30.9089   28.5915   60.4591 C   0  0  0  0  0  0  0  0  0  0  0  0
   29.4719   27.5874   62.0021 C   0  0  0  0  0  0  0  0  0  0  0  0
   29.8727   27.7700   59.6315 C   0  0  0  0  0  0  0  0  0  0  0  0
   29.2463   26.8328   60.6813 C   0  0  0  0  0  0  0  0  0  0  0  0
   25.2737   31.5157   68.9263 C   0  0  0  0  0  0  0  0  0  0  0  0
   26.3378   31.5830   71.1217 C   0  0  0  0  0  0  0  0  0  0  0  0
   25.8605   23.0302   68.4362 C   0  0  0  0  0  0  0  0  0  0  0  0
   29.5258   28.2997   67.0136 C   0  0  0  0  0  0  0  0  0  0  0  0
   27.3380   28.0956   66.0617 C   0  0  0  0  0  0  0  0  0  0  0  0
   26.6870   23.9334   69.0889 C   0  0  0  0  0  0  0  0  0  0  0  0
   25.1871   30.1298   68.9929 C   0  0  0  0  0  0  0  0  0  0  0  0
   26.2531   30.1879   71.1719 C   0  0  0  0  0  0  0  0  0  0  0  0
   28.9591   28.0132   68.2781 C   0  0  0  0  0  0  0  0  0  0  0  0
   26.7912   27.7978   67.3135 C   0  0  0  0  0  0  0  0  0  0  0  0
   24.0660   24.6587   68.5381 C   0  0  0  0  0  0  0  0  0  0  0  0
   24.9095   25.6247   69.0819 C   0  0  0  0  0  0  0  0  0  0  0  0
   25.8520   32.2503   69.9870 C   0  0  0  0  0  0  0  0  0  0  0  0
   24.5254   23.3823   68.2083 C   0  0  0  0  0  0  0  0  0  0  0  0
   25.6974   27.9523   70.2930 C   0  0  1  0  0  0  0  0  0  0  0  0
   28.7119   28.3534   65.8660 C   0  0  0  0  0  0  0  0  0  0  0  0
   31.1789   29.0003   62.9966 C   0  0  1  0  0  0  0  0  0  0  0  0
   26.2065   25.2043   69.4160 C   0  0  0  0  0  0  0  0  0  0  0  0
   27.0880   27.4441   69.8662 C   0  0  2  0  0  0  0  0  0  0  0  0
   25.7016   29.4524   70.1130 C   0  0  0  0  0  0  0  0  0  0  0  0
   27.5951   27.7573   68.4618 C   0  0  0  0  0  0  0  0  0  0  0  0
   26.3259   34.0857   70.7349 H   0  0  0  0  0  0  0  0  0  0  0  0
   22.7858   22.6978   67.3867 H   0  0  0  0  0  0  0  0  0  0  0  0
   30.7067   30.9355   63.5682 H   0  0  0  0  0  0  0  0  0  0  0  0
   30.7621   30.7386   61.9481 H   0  0  0  0  0  0  0  0  0  0  0  0
   29.4845   30.1765   62.7957 H   0  0  0  0  0  0  0  0  0  0  0  0
   30.9152   27.6604   64.5970 H   0  0  0  0  0  0  0  0  0  0  0  0
   31.0438   29.2133   65.0853 H   0  0  0  0  0  0  0  0  0  0  0  0
   31.8278   28.4651   60.0852 H   0  0  0  0  0  0  0  0  0  0  0  0
   30.6727   29.5631   60.4415 H   0  0  0  0  0  0  0  0  0  0  0  0
   28.8323   28.3505   62.0947 H   0  0  0  0  0  0  0  0  0  0  0  0
   29.3767   26.9756   62.7873 H   0  0  0  0  0  0  0  0  0  0  0  0
   30.3248   27.2473   58.9087 H   0  0  0  0  0  0  0  0  0  0  0  0
   29.1812   28.3686   59.2273 H   0  0  0  0  0  0  0  0  0  0  0  0
   28.2708   26.6991   60.5065 H   0  0  0  0  0  0  0  0  0  0  0  0
   29.7077   25.9457   60.6915 H   0  0  0  0  0  0  0  0  0  0  0  0
   24.9244   31.9966   68.1221 H   0  0  0  0  0  0  0  0  0  0  0  0
   26.7377   32.0960   71.8813 H   0  0  0  0  0  0  0  0  0  0  0  0
   26.2122   22.1441   68.1343 H   0  0  0  0  0  0  0  0  0  0  0  0
   30.5090   28.4647   66.9346 H   0  0  0  0  0  0  0  0  0  0  0  0
   26.7285   28.1274   65.2695 H   0  0  0  0  0  0  0  0  0  0  0  0
   27.6240   23.6757   69.3247 H   0  0  0  0  0  0  0  0  0  0  0  0
   24.7609   29.6168   68.2478 H   0  0  0  0  0  0  0  0  0  0  0  0
   26.5927   29.7051   71.9791 H   0  0  0  0  0  0  0  0  0  0  0  0
   29.5603   27.9925   69.0768 H   0  0  0  0  0  0  0  0  0  0  0  0
   25.8119   27.6108   67.3911 H   0  0  0  0  0  0  0  0  0  0  0  0
   23.1051   24.8858   68.3796 H   0  0  0  0  0  0  0  0  0  0  0  0
   25.6055   27.7729   71.2725 H   0  0  0  0  0  0  0  0  0  0  0  0
   32.1678   29.1419   63.0421 H   0  0  0  0  0  0  0  0  0  0  0  0
   27.7515   27.8237   70.5109 H   0  0  0  0  0  0  0  0  0  0  0  0
  1 24  1  0  0  0  0
  1 27  1  0  0  0  0
  2 25  1  0  0  0  0
  3 26  1  0  0  0  0
  4  8  1  0  0  0  0
  4 28  1  0  0  0  0
  5 30  1  0  0  0  0
  5 31  1  0  0  0  0
  6  9  1  0  0  0  0
  6 10  1  0  0  0  0
  6 29  1  0  0  0  0
  7 29  1  0  0  0  0
  8 29  1  0  0  0  0
  9 11  1  0  0  0  0
 10 12  1  0  0  0  0
 11 12  1  0  0  0  0
 13 19  1  0  0  0  0
 13 25  2  0  0  0  0
 14 20  2  0  0  0  0
 14 25  1  0  0  0  0
 15 18  1  0  0  0  0
 15 26  2  0  0  0  0
 16 21  2  0  0  0  0
 16 28  1  0  0  0  0
 17 22  1  0  0  0  0
 17 28  2  0  0  0  0
 18 30  2  0  0  0  0
 19 32  2  0  0  0  0
 20 32  1  0  0  0  0
 21 33  1  0  0  0  0
 22 33  2  0  0  0  0
 23 24  2  0  0  0  0
 23 26  1  0  0  0  0
 24 30  1  0  0  0  0
 27 31  1  0  0  0  0
 27 32  1  0  0  0  0
 31 33  1  0  0  0  0
  2 34  1  0  0  0  0
  3 35  1  0  0  0  0
  7 36  1  0  0  0  0
  7 37  1  0  0  0  0
  7 38  1  0  0  0  0
  8 39  1  0  0  0  0
  8 40  1  0  0  0  0
  9 41  1  0  0  0  0
  9 42  1  0  0  0  0
 10 43  1  0  0  0  0
 10 44  1  0  0  0  0
 11 45  1  0  0  0  0
 11 46  1  0  0  0  0
 12 47  1  0  0  0  0
 12 48  1  0  0  0  0
 13 49  1  0  0  0  0
 14 50  1  0  0  0  0
 15 51  1  0  0  0  0
 16 52  1  0  0  0  0
 17 53  1  0  0  0  0
 18 54  1  0  0  0  0
 19 55  1  0  0  0  0
 20 56  1  0  0  0  0
 21 57  1  0  0  0  0
 22 58  1  0  0  0  0
 23 59  1  0  0  0  0
 27 60  1  0  0  0  0
 29 61  1  0  0  0  0
 31 62  1  0  0  0  0
M  END
> <pdb_id>
1XP9

> <uniprot_id>
P03372

> <usmiles>
S1c2c(O[C@@H](c3ccc(OC[C@@H](N4CCCC4)C)cc3)[C@H]1c5ccc(O)cc5)ccc(O)c2

$$$$
AIU_A_600
          07192417253D 1   1.00000     0.00000     0
            
 65 69  0  0  0  0            999 V2000
   24.3512   26.9833   69.5112 S   0  0  0  0  0  0  0  0  0  0  0  0
   25.9623   33.5094   69.8876 O   0  0  0  0  0  0  0  0  0  0  0  0
   23.7529   22.4473   67.6042 O   0  0  0  0  0  0  0  0  0  0  0  0
   29.2285   28.6374   64.7202 O   0  0  0  0  0  0  0  0  0  0  0  0
   27.1293   26.0101   70.0902 O   0  0  0  0  0  0  0  0  0  0  0  0
   30.8073   28.0900   62.0514 N   0  0  0  0  0  0  0  0  0  0  0  0
   31.2271   27.2790   58.6730 C   0  0  0  0  0  0  0  0  0  0  0  0
   28.0783   27.1327   59.6853 C   0  0  0  0  0  0  0  0  0  0  0  0
   30.6551   28.6644   64.5374 C   0  0  0  0  0  0  0  0  0  0  0  0
   31.1026   29.0584   63.1197 C   0  0  0  0  0  0  0  0  0  0  0  0
   31.2992   28.7128   60.7957 C   0  0  0  0  0  0  0  0  0  0  0  0
   29.3632   27.8783   61.8047 C   0  0  0  0  0  0  0  0  0  0  0  0
   25.2175   31.4534   68.9349 C   0  0  0  0  0  0  0  0  0  0  0  0
   26.3225   31.5386   71.1351 C   0  0  0  0  0  0  0  0  0  0  0  0
   25.8824   22.9844   68.5019 C   0  0  0  0  0  0  0  0  0  0  0  0
   29.5128   28.3753   67.1050 C   0  0  0  0  0  0  0  0  0  0  0  0
   27.3787   28.0200   66.0706 C   0  0  0  0  0  0  0  0  0  0  0  0
   26.6864   23.9326   69.1444 C   0  0  0  0  0  0  0  0  0  0  0  0
   25.1341   30.0561   68.9952 C   0  0  0  0  0  0  0  0  0  0  0  0
   26.2478   30.1409   71.1974 C   0  0  0  0  0  0  0  0  0  0  0  0
   28.9390   28.0838   68.3652 C   0  0  0  0  0  0  0  0  0  0  0  0
   26.8180   27.7053   67.3227 C   0  0  0  0  0  0  0  0  0  0  0  0
   24.0491   24.6188   68.6015 C   0  0  0  0  0  0  0  0  0  0  0  0
   24.8721   25.5818   69.1906 C   0  0  0  0  0  0  0  0  0  0  0  0
   25.8129   32.1723   69.9869 C   0  0  0  0  0  0  0  0  0  0  0  0
   24.5332   23.3478   68.2450 C   0  0  0  0  0  0  0  0  0  0  0  0
   25.6525   27.9230   70.3303 C   0  0  1  0  0  0  0  0  0  0  0  0
   28.7301   28.3158   65.9425 C   0  0  0  0  0  0  0  0  0  0  0  0
   26.1990   25.1939   69.4736 C   0  0  0  0  0  0  0  0  0  0  0  0
   27.0694   27.4401   69.9103 C   0  0  2  0  0  0  0  0  0  0  0  0
   30.4144   28.1350   59.6675 C   0  0  2  0  0  0  0  0  0  0  0  0
   29.4244   27.2190   60.4140 C   0  0  2  0  0  0  0  0  0  0  0  0
   25.6702   29.4299   70.1338 C   0  0  0  0  0  0  0  0  0  0  0  0
   27.5785   27.7446   68.4955 C   0  0  0  0  0  0  0  0  0  0  0  0
   26.3854   34.0221   70.6347 H   0  0  0  0  0  0  0  0  0  0  0  0
   22.7975   22.6656   67.4051 H   0  0  0  0  0  0  0  0  0  0  0  0
   30.6186   26.9262   57.9622 H   0  0  0  0  0  0  0  0  0  0  0  0
   31.9391   27.8419   58.2531 H   0  0  0  0  0  0  0  0  0  0  0  0
   31.6501   26.5145   59.1594 H   0  0  0  0  0  0  0  0  0  0  0  0
   28.2081   26.6940   58.7961 H   0  0  0  0  0  0  0  0  0  0  0  0
   27.4371   26.5943   60.2322 H   0  0  0  0  0  0  0  0  0  0  0  0
   27.7116   28.0535   59.5524 H   0  0  0  0  0  0  0  0  0  0  0  0
   31.0140   27.7527   64.7374 H   0  0  0  0  0  0  0  0  0  0  0  0
   31.0414   29.3236   65.1826 H   0  0  0  0  0  0  0  0  0  0  0  0
   30.6500   29.9186   62.8851 H   0  0  0  0  0  0  0  0  0  0  0  0
   32.0927   29.1974   63.1401 H   0  0  0  0  0  0  0  0  0  0  0  0
   32.2587   28.4765   60.6420 H   0  0  0  0  0  0  0  0  0  0  0  0
   31.2037   29.7072   60.8391 H   0  0  0  0  0  0  0  0  0  0  0  0
   28.8596   28.7420   61.7842 H   0  0  0  0  0  0  0  0  0  0  0  0
   28.9553   27.2706   62.4861 H   0  0  0  0  0  0  0  0  0  0  0  0
   24.8528   31.9409   68.1417 H   0  0  0  0  0  0  0  0  0  0  0  0
   26.7247   32.0682   71.8820 H   0  0  0  0  0  0  0  0  0  0  0  0
   26.2418   22.0901   68.2352 H   0  0  0  0  0  0  0  0  0  0  0  0
   30.4793   28.6245   67.0430 H   0  0  0  0  0  0  0  0  0  0  0  0
   26.7943   28.0307   65.2592 H   0  0  0  0  0  0  0  0  0  0  0  0
   27.6317   23.6988   69.3719 H   0  0  0  0  0  0  0  0  0  0  0  0
   24.7111   29.5269   68.2597 H   0  0  0  0  0  0  0  0  0  0  0  0
   26.6037   29.6529   71.9944 H   0  0  0  0  0  0  0  0  0  0  0  0
   29.5134   28.1196   69.1830 H   0  0  0  0  0  0  0  0  0  0  0  0
   25.8532   27.4477   67.3747 H   0  0  0  0  0  0  0  0  0  0  0  0
   23.0893   24.8396   68.4285 H   0  0  0  0  0  0  0  0  0  0  0  0
   25.5634   27.7552   71.3121 H   0  0  0  0  0  0  0  0  0  0  0  0
   27.7210   27.8453   70.5515 H   0  0  0  0  0  0  0  0  0  0  0  0
   29.9281   28.8665   59.1896 H   0  0  0  0  0  0  0  0  0  0  0  0
   29.8169   26.3030   60.4973 H   0  0  0  0  0  0  0  0  0  0  0  0
  1 24  1  0  0  0  0
  1 27  1  0  0  0  0
  2 25  1  0  0  0  0
  3 26  1  0  0  0  0
  4  9  1  0  0  0  0
  4 28  1  0  0  0  0
  5 29  1  0  0  0  0
  5 30  1  0  0  0  0
  6 10  1  0  0  0  0
  6 11  1  0  0  0  0
  6 12  1  0  0  0  0
  7 31  1  0  0  0  0
  8 32  1  0  0  0  0
  9 10  1  0  0  0  0
 11 31  1  0  0  0  0
 12 32  1  0  0  0  0
 13 19  1  0  0  0  0
 13 25  2  0  0  0  0
 14 20  2  0  0  0  0
 14 25  1  0  0  0  0
 15 18  1  0  0  0  0
 15 26  2  0  0  0  0
 16 21  2  0  0  0  0
 16 28  1  0  0  0  0
 17 22  1  0  0  0  0
 17 28  2  0  0  0  0
 18 29  2  0  0  0  0
 19 33  2  0  0  0  0
 20 33  1  0  0  0  0
 21 34  1  0  0  0  0
 22 34  2  0  0  0  0
 23 24  2  0  0  0  0
 23 26  1  0  0  0  0
 24 29  1  0  0  0  0
 27 30  1  0  0  0  0
 27 33  1  0  0  0  0
 30 34  1  0  0  0  0
 31 32  1  0  0  0  0
  2 35  1  0  0  0  0
  3 36  1  0  0  0  0
  7 37  1  0  0  0  0
  7 38  1  0  0  0  0
  7 39  1  0  0  0  0
  8 40  1  0  0  0  0
  8 41  1  0  0  0  0
  8 42  1  0  0  0  0
  9 43  1  0  0  0  0
  9 44  1  0  0  0  0
 10 45  1  0  0  0  0
 10 46  1  0  0  0  0
 11 47  1  0  0  0  0
 11 48  1  0  0  0  0
 12 49  1  0  0  0  0
 12 50  1  0  0  0  0
 13 51  1  0  0  0  0
 14 52  1  0  0  0  0
 15 53  1  0  0  0  0
 16 54  1  0  0  0  0
 17 55  1  0  0  0  0
 18 56  1  0  0  0  0
 19 57  1  0  0  0  0
 20 58  1  0  0  0  0
 21 59  1  0  0  0  0
 22 60  1  0  0  0  0
 23 61  1  0  0  0  0
 27 62  1  0  0  0  0
 30 63  1  0  0  0  0
 31 64  1  0  0  0  0
 32 65  1  0  0  0  0
M  END
> <pdb_id>
1XP6

> <uniprot_id>
P03372

> <usmiles>
S1c2c(O[C@@H](c3ccc(OCCN4C[C@H]([C@@H](C4)C)C)cc3)[C@H]1c5ccc(O)cc5)ccc(O)c2

$$$$
AJ8_B_1204
          07192423423D 1   1.00000     0.00000     0
            
 34 36  0  0  0  0            999 V2000
    8.0090  -11.2995    9.3088 Cl  0  0  0  0  0  0  0  0  0  0  0  0
    4.3616   -9.6298    4.5928 O   0  0  0  0  0  0  0  0  0  0  0  0
    6.1535  -10.6127    4.4799 O   0  0  0  0  0  0  0  0  0  0  0  0
    7.5613   -9.8174   16.0674 O   0  0  0  0  0  0  0  0  0  0  0  0
    6.8647  -10.1971   14.0238 N   0  0  0  0  0  0  0  0  0  0  0  0
    4.0853  -13.2135   15.5308 C   0  0  0  0  0  0  0  0  0  0  0  0
    3.9971  -10.2418    7.4190 C   0  0  0  0  0  0  0  0  0  0  0  0
    4.2829  -12.0387   11.2904 C   0  0  0  0  0  0  0  0  0  0  0  0
    4.0259  -10.4505    8.7946 C   0  0  0  0  0  0  0  0  0  0  0  0
    4.2090  -12.3649   12.6072 C   0  0  0  0  0  0  0  0  0  0  0  0
    5.8970  -11.4565   15.8314 C   0  0  0  0  0  0  0  0  0  0  0  0
    6.4453  -10.6945    7.2607 C   0  0  0  0  0  0  0  0  0  0  0  0
    6.1070  -10.4335   11.7519 C   0  0  0  0  0  0  0  0  0  0  0  0
    5.1970  -10.1587    5.2247 C   0  0  0  0  0  0  0  0  0  0  0  0
    6.8164  -10.4648   15.3207 C   0  0  0  0  0  0  0  0  0  0  0  0
    6.4665  -10.8770    8.6259 C   0  0  0  0  0  0  0  0  0  0  0  0
    6.0125  -10.7899   13.1144 C   0  0  0  0  0  0  0  0  0  0  0  0
    5.0676  -12.1193   14.9749 C   0  0  0  0  0  0  0  0  0  0  0  0
    5.2003  -10.3759    6.6816 C   0  0  0  0  0  0  0  0  0  0  0  0
    5.2503  -11.0463   10.8575 C   0  0  0  0  0  0  0  0  0  0  0  0
    5.2637  -10.7621    9.3911 C   0  0  0  0  0  0  0  0  0  0  0  0
    5.0820  -11.7736   13.5513 C   0  0  0  0  0  0  0  0  0  0  0  0
    3.5644   -9.2344    5.0492 H   0  0  0  0  0  0  0  0  0  0  0  0
    7.5432   -9.5417   13.6921 H   0  0  0  0  0  0  0  0  0  0  0  0
    3.5535  -13.5982   14.7764 H   0  0  0  0  0  0  0  0  0  0  0  0
    4.6114  -13.9403   15.9724 H   0  0  0  0  0  0  0  0  0  0  0  0
    3.4663  -12.7980   16.1972 H   0  0  0  0  0  0  0  0  0  0  0  0
    3.1425  -10.0014    6.9588 H   0  0  0  0  0  0  0  0  0  0  0  0
    3.6775  -12.4775   10.6264 H   0  0  0  0  0  0  0  0  0  0  0  0
    3.1928  -10.3814    9.3434 H   0  0  0  0  0  0  0  0  0  0  0  0
    3.5292  -13.0313   12.9133 H   0  0  0  0  0  0  0  0  0  0  0  0
    5.8690  -11.6563   16.8108 H   0  0  0  0  0  0  0  0  0  0  0  0
    7.2733  -10.7837    6.7071 H   0  0  0  0  0  0  0  0  0  0  0  0
    6.7751   -9.7568   11.4427 H   0  0  0  0  0  0  0  0  0  0  0  0
  1 16  1  0  0  0  0
  2 14  1  0  0  0  0
  3 14  2  0  0  0  0
  4 15  2  0  0  0  0
  5 15  1  0  0  0  0
  5 17  1  0  0  0  0
  6 18  1  0  0  0  0
  7  9  1  0  0  0  0
  7 19  2  0  0  0  0
  8 10  1  0  0  0  0
  8 20  2  0  0  0  0
  9 21  2  0  0  0  0
 10 22  2  0  0  0  0
 11 15  1  0  0  0  0
 11 18  2  0  0  0  0
 12 16  2  0  0  0  0
 12 19  1  0  0  0  0
 13 17  2  0  0  0  0
 13 20  1  0  0  0  0
 14 19  1  0  0  0  0
 16 21  1  0  0  0  0
 17 22  1  0  0  0  0
 18 22  1  0  0  0  0
 20 21  1  0  0  0  0
  2 23  1  0  0  0  0
  5 24  1  0  0  0  0
  6 25  1  0  0  0  0
  6 26  1  0  0  0  0
  6 27  1  0  0  0  0
  7 28  1  0  0  0  0
  8 29  1  0  0  0  0
  9 30  1  0  0  0  0
 10 31  1  0  0  0  0
 11 32  1  0  0  0  0
 12 33  1  0  0  0  0
 13 34  1  0  0  0  0
M  END
> <pdb_id>
4J3M

> <uniprot_id>
Q9H2K2

> <usmiles>
Clc1c(c2cc3NC(=O)C=C(c3cc2)C)ccc(c1)C(=O)O

$$$$
AJD_A_500
          07192421573D 1   1.00000     0.00000     0
            
 32 33  0  0  0  0            999 V2000
   21.9188   13.4315   69.9382 Br  0  0  0  0  0  0  0  0  0  0  0  0
   24.9826   17.8458   69.6194 O   0  0  0  0  0  0  0  0  0  0  0  0
   26.3306   18.0589   71.2492 O   0  0  0  0  0  0  0  0  0  0  0  0
   27.5625   15.1017   76.3015 N   0  0  0  0  0  0  0  0  0  0  0  0
   25.6810   16.7595   73.4058 N   0  0  0  0  0  0  0  0  0  0  0  0
   28.2108   16.3101   76.8402 C   0  0  0  0  0  0  0  0  0  0  0  0
   27.2564   17.4936   76.7112 C   0  0  0  0  0  0  0  0  0  0  0  0
   26.9483   15.1979   74.9567 C   0  0  0  0  0  0  0  0  0  0  0  0
   26.8754   17.7009   75.2534 C   0  0  0  0  0  0  0  0  0  0  0  0
   23.2738   14.1702   72.4618 C   0  0  0  0  0  0  0  0  0  0  0  0
   24.1242   14.9258   73.2649 C   0  0  0  0  0  0  0  0  0  0  0  0
   23.7867   15.5585   70.5242 C   0  0  0  0  0  0  0  0  0  0  0  0
   23.1024   14.4846   71.0847 C   0  0  0  0  0  0  0  0  0  0  0  0
   25.3973   17.4655   70.6833 C   0  0  0  0  0  0  0  0  0  0  0  0
   26.0591   16.5132   74.8226 C   0  0  1  0  0  0  0  0  0  0  0  0
   24.8274   16.0135   72.6919 C   0  0  0  0  0  0  0  0  0  0  0  0
   24.6670   16.3064   71.3248 C   0  0  0  0  0  0  0  0  0  0  0  0
   24.2309   17.3602   69.1732 H   0  0  0  0  0  0  0  0  0  0  0  0
   26.8416   14.8375   76.9421 H   0  0  0  0  0  0  0  0  0  0  0  0
   26.0975   17.5455   72.9489 H   0  0  0  0  0  0  0  0  0  0  0  0
   29.0475   16.4980   76.3259 H   0  0  0  0  0  0  0  0  0  0  0  0
   28.4369   16.1667   77.8037 H   0  0  0  0  0  0  0  0  0  0  0  0
   27.7037   18.3185   77.0567 H   0  0  0  0  0  0  0  0  0  0  0  0
   26.4311   17.3128   77.2462 H   0  0  0  0  0  0  0  0  0  0  0  0
   26.3702   14.3963   74.8040 H   0  0  0  0  0  0  0  0  0  0  0  0
   27.6729   15.2224   74.2680 H   0  0  0  0  0  0  0  0  0  0  0  0
   27.7001   17.7695   74.6920 H   0  0  0  0  0  0  0  0  0  0  0  0
   26.3365   18.5378   75.1576 H   0  0  0  0  0  0  0  0  0  0  0  0
   22.7778   13.3973   72.8576 H   0  0  0  0  0  0  0  0  0  0  0  0
   24.2368   14.7034   74.2333 H   0  0  0  0  0  0  0  0  0  0  0  0
   23.6536   15.7958   69.5619 H   0  0  0  0  0  0  0  0  0  0  0  0
   25.2391   16.4344   75.3896 H   0  0  0  0  0  0  0  0  0  0  0  0
  1 13  1  0  0  0  0
  2 14  1  0  0  0  0
  3 14  2  0  0  0  0
  4  6  1  0  0  0  0
  4  8  1  0  0  0  0
  5 15  1  0  0  0  0
  5 16  1  0  0  0  0
  6  7  1  0  0  0  0
  7  9  1  0  0  0  0
  8 15  1  0  0  0  0
  9 15  1  0  0  0  0
 10 11  1  0  0  0  0
 10 13  2  0  0  0  0
 11 16  2  0  0  0  0
 12 13  1  0  0  0  0
 12 17  2  0  0  0  0
 14 17  1  0  0  0  0
 16 17  1  0  0  0  0
  2 18  1  0  0  0  0
  4 19  1  0  0  0  0
  5 20  1  0  0  0  0
  6 21  1  0  0  0  0
  6 22  1  0  0  0  0
  7 23  1  0  0  0  0
  7 24  1  0  0  0  0
  8 25  1  0  0  0  0
  8 26  1  0  0  0  0
  9 27  1  0  0  0  0
  9 28  1  0  0  0  0
 10 29  1  0  0  0  0
 11 30  1  0  0  0  0
 12 31  1  0  0  0  0
 15 32  1  0  0  0  0
M  END
> <pdb_id>
3JUO

> <uniprot_id>
Q396C9

> <usmiles>
Brc1cc(c(N[C@H]2CNCCC2)cc1)C(=O)O

$$$$
AJG_A_1482
          07202416203D 1   1.00000     0.00000     0
            
 22 23  0  0  0  0            999 V2000
   -6.4086   -0.3989   28.6447 S   0  0  0  0  0  0  0  0  0  0  0  0
   -8.3184    3.5411   27.9214 O   0  0  0  0  0  0  0  0  0  0  0  0
   -4.3882   -5.9014   30.2717 N   0  0  0  0  0  0  0  0  0  0  0  0
   -8.1715    1.6235   29.1063 N   0  0  0  0  0  0  0  0  0  0  0  0
   -8.0841   -0.3540   30.3688 N   0  0  0  0  0  0  0  0  0  0  0  0
   -6.5444    2.1149   27.2546 C   0  0  0  0  0  0  0  0  0  0  0  0
   -5.0610   -4.9513   30.3378 C   0  0  0  0  0  0  0  0  0  0  0  0
   -7.6420   -2.5040   31.3716 C   0  0  0  0  0  0  0  0  0  0  0  0
   -6.8740   -3.6646   31.3641 C   0  0  0  0  0  0  0  0  0  0  0  0
   -5.6733   -2.7707   29.5010 C   0  0  0  0  0  0  0  0  0  0  0  0
   -7.6319    0.4249   29.3792 C   0  0  0  0  0  0  0  0  0  0  0  0
   -7.7531    2.4668   28.1238 C   0  0  0  0  0  0  0  0  0  0  0  0
   -6.4315   -1.6818   29.5595 C   0  0  0  0  0  0  0  0  0  0  0  0
   -7.4237   -1.5292   30.4831 C   0  0  0  0  0  0  0  0  0  0  0  0
   -5.8679   -3.7995   30.4106 C   0  0  0  0  0  0  0  0  0  0  0  0
   -8.9424    1.9201   29.6699 H   0  0  0  0  0  0  0  0  0  0  0  0
   -6.1873    1.2212   27.5263 H   0  0  0  0  0  0  0  0  0  0  0  0
   -6.8219    2.0849   26.2943 H   0  0  0  0  0  0  0  0  0  0  0  0
   -5.8341    2.8084   27.3748 H   0  0  0  0  0  0  0  0  0  0  0  0
   -8.3676   -2.3977   32.0515 H   0  0  0  0  0  0  0  0  0  0  0  0
   -7.0417   -4.3895   32.0322 H   0  0  0  0  0  0  0  0  0  0  0  0
   -4.9627   -2.8487   28.8018 H   0  0  0  0  0  0  0  0  0  0  0  0
  1 11  1  0  0  0  0
  1 13  1  0  0  0  0
  2 12  2  0  0  0  0
  3  7  3  0  0  0  0
  4 11  1  0  0  0  0
  4 12  1  0  0  0  0
  5 11  2  0  0  0  0
  5 14  1  0  0  0  0
  6 12  1  0  0  0  0
  7 15  1  0  0  0  0
  8  9  1  0  0  0  0
  8 14  2  0  0  0  0
  9 15  2  0  0  0  0
 10 13  2  0  0  0  0
 10 15  1  0  0  0  0
 13 14  1  0  0  0  0
  4 16  1  0  0  0  0
  6 17  1  0  0  0  0
  6 18  1  0  0  0  0
  6 19  1  0  0  0  0
  8 20  1  0  0  0  0
  9 21  1  0  0  0  0
 10 22  1  0  0  0  0
M  END
> <pdb_id>
5A4T

> <uniprot_id>
Q13627

> <usmiles>
S1c2c(N=C1NC(=O)C)ccc(C#N)c2

$$$$
AJW_A_601
          07202416463D 1   1.00000     0.00000     0
            
 57 60  0  0  0  0            999 V2000
   13.5550    1.3560    4.5860 O   0  0  0  0  0  0  0  0  0  0  0  0
   19.7140    0.4510    1.3220 O   0  0  0  0  0  0  0  0  0  0  0  0
   15.4260    1.2860    3.3950 N   0  0  0  0  0  0  0  0  0  0  0  0
   22.9000    4.8340    2.5640 N   0  0  0  0  0  0  0  0  0  0  0  0
   24.1400    7.0880    3.3260 N   0  0  0  0  0  0  0  0  0  0  0  0
   20.3770    1.4810    2.0460 C   0  0  0  0  0  0  0  0  0  0  0  0
   24.1920    5.0630    1.8990 C   0  0  0  0  0  0  0  0  0  0  0  0
   22.0400    5.9850    2.8840 C   0  0  0  0  0  0  0  0  0  0  0  0
   22.1570    3.7390    1.9360 C   0  0  0  0  0  0  0  0  0  0  0  0
   24.9060    6.3480    2.3190 C   0  0  0  0  0  0  0  0  0  0  0  0
   22.7830    7.3150    2.8370 C   0  0  0  0  0  0  0  0  0  0  0  0
   21.8730    1.2880    1.7830 C   0  0  0  0  0  0  0  0  0  0  0  0
   22.6760    2.4010    2.4540 C   0  0  0  0  0  0  0  0  0  0  0  0
   26.0580   10.6750    4.2690 C   0  0  0  0  0  0  0  0  0  0  0  0
   24.6860   10.6530    4.0790 C   0  0  0  0  0  0  0  0  0  0  0  0
   26.7900    9.5060    4.1450 C   0  0  0  0  0  0  0  0  0  0  0  0
   13.8840   -0.6540    3.4250 C   0  0  0  0  0  0  0  0  0  0  0  0
   24.0440    9.4700    3.7630 C   0  0  0  0  0  0  0  0  0  0  0  0
   26.1540    8.3190    3.8260 C   0  0  0  0  0  0  0  0  0  0  0  0
   17.8500   -0.8830    0.7990 C   0  0  0  0  0  0  0  0  0  0  0  0
   14.2720   -0.8670    1.9620 C   0  0  0  0  0  0  0  0  0  0  0  0
   16.5200   -1.2170    0.9450 C   0  0  0  0  0  0  0  0  0  0  0  0
   17.5970    0.9130    2.3840 C   0  0  0  0  0  0  0  0  0  0  0  0
   14.2810    0.7320    3.8430 C   0  0  0  0  0  0  0  0  0  0  0  0
   18.3940    0.1750    1.5120 C   0  0  0  0  0  0  0  0  0  0  0  0
   16.2580    0.5690    2.5320 C   0  0  0  0  0  0  0  0  0  0  0  0
   24.7770    8.2970    3.6370 C   0  0  0  0  0  0  0  0  0  0  0  0
   15.7250   -0.4930    1.8060 C   0  0  0  0  0  0  0  0  0  0  0  0
   15.6794    2.2102    3.6807 H   0  0  0  0  0  0  0  0  0  0  0  0
   20.1828    1.3986    3.0235 H   0  0  0  0  0  0  0  0  0  0  0  0
   20.0805    2.3794    1.7219 H   0  0  0  0  0  0  0  0  0  0  0  0
   24.0322    5.1033    0.9127 H   0  0  0  0  0  0  0  0  0  0  0  0
   24.7916    4.2905    2.1083 H   0  0  0  0  0  0  0  0  0  0  0  0
   21.6691    5.8596    3.8042 H   0  0  0  0  0  0  0  0  0  0  0  0
   21.2898    6.0156    2.2235 H   0  0  0  0  0  0  0  0  0  0  0  0
   22.2782    3.7810    0.9443 H   0  0  0  0  0  0  0  0  0  0  0  0
   21.1857    3.8268    2.1571 H   0  0  0  0  0  0  0  0  0  0  0  0
   25.8000    6.1125    2.7001 H   0  0  0  0  0  0  0  0  0  0  0  0
   25.0292    6.9285    1.5141 H   0  0  0  0  0  0  0  0  0  0  0  0
   22.8129    7.6545    1.8969 H   0  0  0  0  0  0  0  0  0  0  0  0
   22.3197    7.9838    3.4184 H   0  0  0  0  0  0  0  0  0  0  0  0
   22.0402    1.3086    0.7973 H   0  0  0  0  0  0  0  0  0  0  0  0
   22.1617    0.4044    2.1517 H   0  0  0  0  0  0  0  0  0  0  0  0
   22.5584    2.3530    3.4459 H   0  0  0  0  0  0  0  0  0  0  0  0
   23.6452    2.3031    2.2281 H   0  0  0  0  0  0  0  0  0  0  0  0
   26.5188   11.5332    4.4952 H   0  0  0  0  0  0  0  0  0  0  0  0
   24.1574   11.4969    4.1708 H   0  0  0  0  0  0  0  0  0  0  0  0
   27.7799    9.5196    4.2862 H   0  0  0  0  0  0  0  0  0  0  0  0
   14.3562   -1.3243    3.9974 H   0  0  0  0  0  0  0  0  0  0  0  0
   12.8955   -0.7645    3.5286 H   0  0  0  0  0  0  0  0  0  0  0  0
   23.0536    9.4589    3.6254 H   0  0  0  0  0  0  0  0  0  0  0  0
   26.6851    7.4770    3.7314 H   0  0  0  0  0  0  0  0  0  0  0  0
   18.4272   -1.4082    0.1737 H   0  0  0  0  0  0  0  0  0  0  0  0
   13.7075   -0.2882    1.3735 H   0  0  0  0  0  0  0  0  0  0  0  0
   14.1397   -1.8262    1.7120 H   0  0  0  0  0  0  0  0  0  0  0  0
   16.1344   -1.9813    0.4282 H   0  0  0  0  0  0  0  0  0  0  0  0
   17.9827    1.6800    2.8967 H   0  0  0  0  0  0  0  0  0  0  0  0
  1 24  2  0  0  0  0
  2  6  1  0  0  0  0
  2 25  1  0  0  0  0
  3 24  1  0  0  0  0
  3 26  1  0  0  0  0
  4  7  1  0  0  0  0
  4  8  1  0  0  0  0
  4  9  1  0  0  0  0
  5 10  1  0  0  0  0
  5 11  1  0  0  0  0
  5 27  1  0  0  0  0
  6 12  1  0  0  0  0
  7 10  1  0  0  0  0
  8 11  1  0  0  0  0
  9 13  1  0  0  0  0
 12 13  1  0  0  0  0
 14 15  2  0  0  0  0
 14 16  1  0  0  0  0
 15 18  1  0  0  0  0
 16 19  2  0  0  0  0
 17 21  1  0  0  0  0
 17 24  1  0  0  0  0
 18 27  2  0  0  0  0
 19 27  1  0  0  0  0
 20 22  1  0  0  0  0
 20 25  2  0  0  0  0
 21 28  1  0  0  0  0
 22 28  2  0  0  0  0
 23 25  1  0  0  0  0
 23 26  2  0  0  0  0
 26 28  1  0  0  0  0
  3 29  1  0  0  0  0
  6 30  1  0  0  0  0
  6 31  1  0  0  0  0
  7 32  1  0  0  0  0
  7 33  1  0  0  0  0
  8 34  1  0  0  0  0
  8 35  1  0  0  0  0
  9 36  1  0  0  0  0
  9 37  1  0  0  0  0
 10 38  1  0  0  0  0
 10 39  1  0  0  0  0
 11 40  1  0  0  0  0
 11 41  1  0  0  0  0
 12 42  1  0  0  0  0
 12 43  1  0  0  0  0
 13 44  1  0  0  0  0
 13 45  1  0  0  0  0
 14 46  1  0  0  0  0
 15 47  1  0  0  0  0
 16 48  1  0  0  0  0
 17 49  1  0  0  0  0
 17 50  1  0  0  0  0
 18 51  1  0  0  0  0
 19 52  1  0  0  0  0
 20 53  1  0  0  0  0
 21 54  1  0  0  0  0
 21 55  1  0  0  0  0
 22 56  1  0  0  0  0
 23 57  1  0  0  0  0
M  END
> <pdb_id>
7X7X

> <uniprot_id>
P02768

> <usmiles>
O=C1Nc2c(ccc(OCCCCN3CCN(c4ccccc4)CC3)c2)CC1

$$$$
AK2_A_1
          07212402253D 1   1.00000     0.00000     0
            
 43 46  0  0  0  0            999 V2000
  122.4217  -26.4940    0.5217 Cl  0  0  0  0  0  0  0  0  0  0  0  0
  109.4174  -17.1108    5.2049 S   0  0  0  0  0  0  0  0  0  0  0  0
  114.5858  -21.4338    1.4644 S   0  0  0  0  0  0  0  0  0  0  0  0
  117.1939  -22.4389    1.8665 O   0  0  0  0  0  0  0  0  0  0  0  0
  114.0400  -21.9906   -0.7768 N   0  0  0  0  0  0  0  0  0  0  0  0
  110.5240  -17.3576    1.3576 N   0  0  0  0  0  0  0  0  0  0  0  0
  108.5627  -16.0840    1.6297 N   0  0  0  0  0  0  0  0  0  0  0  0
  111.6601  -18.3617    3.1451 N   0  0  0  0  0  0  0  0  0  0  0  0
  116.1819  -22.7228   -0.1504 N   0  0  0  0  0  0  0  0  0  0  0  0
  118.2585  -23.5243    0.2381 N   0  0  0  0  0  0  0  0  0  0  0  0
  107.9739  -16.2797    4.9937 C   0  0  0  0  0  0  0  0  0  0  0  0
  109.5177  -16.6174    0.8447 C   0  0  0  0  0  0  0  0  0  0  0  0
  112.6733  -18.9210    2.2395 C   0  0  0  0  0  0  0  0  0  0  0  0
  113.0173  -21.4048   -0.2863 C   0  0  0  0  0  0  0  0  0  0  0  0
  121.0322  -23.4024    2.7421 C   0  0  0  0  0  0  0  0  0  0  0  0
  107.7744  -15.8451    3.8227 C   0  0  0  0  0  0  0  0  0  0  0  0
  112.1217  -20.2500    1.7056 C   0  0  0  0  0  0  0  0  0  0  0  0
  121.8330  -24.4429    2.2707 C   0  0  0  0  0  0  0  0  0  0  0  0
  119.8485  -23.0873    2.0799 C   0  0  0  0  0  0  0  0  0  0  0  0
  120.2359  -24.8459    0.4910 C   0  0  0  0  0  0  0  0  0  0  0  0
  115.0186  -22.0992    0.1131 C   0  0  0  0  0  0  0  0  0  0  0  0
  121.4242  -25.1539    1.1480 C   0  0  0  0  0  0  0  0  0  0  0  0
  117.2003  -22.8704    0.7139 C   0  0  0  0  0  0  0  0  0  0  0  0
  113.1762  -21.0170    0.9101 C   0  0  0  0  0  0  0  0  0  0  0  0
  109.6371  -17.0343    3.5208 C   0  0  0  0  0  0  0  0  0  0  0  0
  110.6249  -17.5960    2.6924 C   0  0  0  0  0  0  0  0  0  0  0  0
  119.4435  -23.8052    0.9491 C   0  0  0  0  0  0  0  0  0  0  0  0
  108.6236  -16.2874    2.9641 C   0  0  0  0  0  0  0  0  0  0  0  0
  111.7315  -18.5482    4.1250 H   0  0  0  0  0  0  0  0  0  0  0  0
  116.2980  -23.1084   -1.0657 H   0  0  0  0  0  0  0  0  0  0  0  0
  118.2083  -23.8447   -0.7079 H   0  0  0  0  0  0  0  0  0  0  0  0
  107.3210  -16.1388    5.7379 H   0  0  0  0  0  0  0  0  0  0  0  0
  109.4809  -16.4616   -0.1424 H   0  0  0  0  0  0  0  0  0  0  0  0
  113.5267  -19.0792    2.7362 H   0  0  0  0  0  0  0  0  0  0  0  0
  112.8407  -18.2905    1.4816 H   0  0  0  0  0  0  0  0  0  0  0  0
  112.1697  -21.2649   -0.7982 H   0  0  0  0  0  0  0  0  0  0  0  0
  121.3071  -22.8849    3.5525 H   0  0  0  0  0  0  0  0  0  0  0  0
  107.0303  -15.2198    3.5879 H   0  0  0  0  0  0  0  0  0  0  0  0
  111.3400  -20.0616    1.1110 H   0  0  0  0  0  0  0  0  0  0  0  0
  111.8253  -20.8121    2.4778 H   0  0  0  0  0  0  0  0  0  0  0  0
  122.6887  -24.6740    2.7335 H   0  0  0  0  0  0  0  0  0  0  0  0
  119.2797  -22.3372    2.4172 H   0  0  0  0  0  0  0  0  0  0  0  0
  119.9547  -25.3746   -0.3099 H   0  0  0  0  0  0  0  0  0  0  0  0
  1 22  1  0  0  0  0
  2 11  1  0  0  0  0
  2 25  1  0  0  0  0
  3 21  1  0  0  0  0
  3 24  1  0  0  0  0
  4 23  2  0  0  0  0
  5 14  1  0  0  0  0
  5 21  2  0  0  0  0
  6 12  2  0  0  0  0
  6 26  1  0  0  0  0
  7 12  1  0  0  0  0
  7 28  2  0  0  0  0
  8 13  1  0  0  0  0
  8 26  1  0  0  0  0
  9 21  1  0  0  0  0
  9 23  1  0  0  0  0
 10 23  1  0  0  0  0
 10 27  1  0  0  0  0
 11 16  2  0  0  0  0
 13 17  1  0  0  0  0
 14 24  2  0  0  0  0
 15 18  2  0  0  0  0
 15 19  1  0  0  0  0
 16 28  1  0  0  0  0
 17 24  1  0  0  0  0
 18 22  1  0  0  0  0
 19 27  2  0  0  0  0
 20 22  2  0  0  0  0
 20 27  1  0  0  0  0
 25 26  2  0  0  0  0
 25 28  1  0  0  0  0
  8 29  1  0  0  0  0
  9 30  1  0  0  0  0
 10 31  1  0  0  0  0
 11 32  1  0  0  0  0
 12 33  1  0  0  0  0
 13 34  1  0  0  0  0
 13 35  1  0  0  0  0
 14 36  1  0  0  0  0
 15 37  1  0  0  0  0
 16 38  1  0  0  0  0
 17 39  1  0  0  0  0
 17 40  1  0  0  0  0
 18 41  1  0  0  0  0
 19 42  1  0  0  0  0
 20 43  1  0  0  0  0
M  END
> <pdb_id>
3D15

> <uniprot_id>
Q8C3H8

> <usmiles>
Clc1cc(NC(=O)NC=2SC(=CN2)CCNc3ncnc4c3SC=C4)ccc1

$$$$
AKD_B_500
          07192421573D 1   1.00000     0.00000     0
            
 32 33  0  0  0  0            999 V2000
   21.6390   10.7010   76.7400 Br  0  0  0  0  0  0  0  0  0  0  0  0
   23.4920   14.3990   80.0990 O   0  0  0  0  0  0  0  0  0  0  0  0
   25.3060   15.2360   79.1380 O   0  0  0  0  0  0  0  0  0  0  0  0
   27.7510   15.1110   76.2030 N   0  0  0  0  0  0  0  0  0  0  0  0
   24.9970   15.7470   76.6670 N   0  0  0  0  0  0  0  0  0  0  0  0
   28.4340   16.3720   76.4830 C   0  0  0  0  0  0  0  0  0  0  0  0
   27.4400   17.4310   76.8440 C   0  0  0  0  0  0  0  0  0  0  0  0
   26.7490   15.1390   75.1450 C   0  0  0  0  0  0  0  0  0  0  0  0
   26.4420   17.5380   75.7420 C   0  0  0  0  0  0  0  0  0  0  0  0
   23.1410   12.8000   75.4300 C   0  0  0  0  0  0  0  0  0  0  0  0
   23.8810   13.9770   75.4410 C   0  0  0  0  0  0  0  0  0  0  0  0
   23.0780   12.8940   77.8170 C   0  0  0  0  0  0  0  0  0  0  0  0
   22.7150   12.2840   76.6080 C   0  0  0  0  0  0  0  0  0  0  0  0
   24.2360   14.6140   79.1590 C   0  0  0  0  0  0  0  0  0  0  0  0
   25.7060   16.2430   75.4800 C   0  0  2  0  0  0  0  0  0  0  0  0
   24.2640   14.5970   76.6510 C   0  0  0  0  0  0  0  0  0  0  0  0
   23.8270   14.0390   77.8160 C   0  0  0  0  0  0  0  0  0  0  0  0
   22.6518   13.8744   79.9618 H   0  0  0  0  0  0  0  0  0  0  0  0
   27.2973   14.8172   77.0443 H   0  0  0  0  0  0  0  0  0  0  0  0
   25.0538   16.2710   77.5168 H   0  0  0  0  0  0  0  0  0  0  0  0
   28.9423   16.6594   75.6712 H   0  0  0  0  0  0  0  0  0  0  0  0
   29.0686   16.2416   77.2447 H   0  0  0  0  0  0  0  0  0  0  0  0
   27.9079   18.3069   76.9616 H   0  0  0  0  0  0  0  0  0  0  0  0
   26.9774   17.1833   77.6952 H   0  0  0  0  0  0  0  0  0  0  0  0
   26.2933   14.2507   75.0888 H   0  0  0  0  0  0  0  0  0  0  0  0
   27.1880   15.3444   74.2703 H   0  0  0  0  0  0  0  0  0  0  0  0
   26.9192   17.8076   74.9056 H   0  0  0  0  0  0  0  0  0  0  0  0
   25.7732   18.2405   75.9854 H   0  0  0  0  0  0  0  0  0  0  0  0
   22.9268   12.3421   74.5672 H   0  0  0  0  0  0  0  0  0  0  0  0
   24.1482   14.3942   74.5724 H   0  0  0  0  0  0  0  0  0  0  0  0
   22.7880   12.4901   78.6846 H   0  0  0  0  0  0  0  0  0  0  0  0
   25.0674   16.3568   74.7190 H   0  0  0  0  0  0  0  0  0  0  0  0
  1 13  1  0  0  0  0
  2 14  1  0  0  0  0
  3 14  2  0  0  0  0
  4  6  1  0  0  0  0
  4  8  1  0  0  0  0
  5 15  1  0  0  0  0
  5 16  1  0  0  0  0
  6  7  1  0  0  0  0
  7  9  1  0  0  0  0
  8 15  1  0  0  0  0
  9 15  1  0  0  0  0
 10 11  1  0  0  0  0
 10 13  2  0  0  0  0
 11 16  2  0  0  0  0
 12 13  1  0  0  0  0
 12 17  2  0  0  0  0
 14 17  1  0  0  0  0
 16 17  1  0  0  0  0
  2 18  1  0  0  0  0
  4 19  1  0  0  0  0
  5 20  1  0  0  0  0
  6 21  1  0  0  0  0
  6 22  1  0  0  0  0
  7 23  1  0  0  0  0
  7 24  1  0  0  0  0
  8 25  1  0  0  0  0
  8 26  1  0  0  0  0
  9 27  1  0  0  0  0
  9 28  1  0  0  0  0
 10 29  1  0  0  0  0
 11 30  1  0  0  0  0
 12 31  1  0  0  0  0
 15 32  1  0  0  0  0
M  END
> <pdb_id>
3JUP

> <uniprot_id>
Q396C9

> <usmiles>
Brc1cc(c(N[C@@H]2CNCCC2)cc1)C(=O)O

$$$$
AKG_A_417
          07212403323D 1   1.00000     0.00000     0
            
 16 15  0  0  0  0            999 V2000
   16.6598    1.6974   25.6920 O   0  0  0  0  0  0  0  0  0  0  0  0
   15.2270    3.3540   25.7901 O   0  0  0  0  0  0  0  0  0  0  0  0
   17.9578    0.8346   31.8978 O   0  0  0  0  0  0  0  0  0  0  0  0
   18.3469   -0.3515   30.0934 O   0  0  0  0  0  0  0  0  0  0  0  0
   15.9010    2.0263   30.5145 O   0  0  0  0  0  0  0  0  0  0  0  0
   16.0373    2.5188   27.8519 C   0  0  0  0  0  0  0  0  0  0  0  0
   16.6555    1.2370   28.4089 C   0  0  0  0  0  0  0  0  0  0  0  0
   15.9732    2.5168   26.3417 C   0  0  0  0  0  0  0  0  0  0  0  0
   17.7228    0.5591   30.6815 C   0  0  0  0  0  0  0  0  0  0  0  0
   16.7048    1.3157   29.9258 C   0  0  0  0  0  0  0  0  0  0  0  0
   17.2444    1.0434   26.1720 H   0  0  0  0  0  0  0  0  0  0  0  0
   17.4492    1.5660   32.3521 H   0  0  0  0  0  0  0  0  0  0  0  0
   16.5897    3.2976   28.1492 H   0  0  0  0  0  0  0  0  0  0  0  0
   15.1093    2.6113   28.2129 H   0  0  0  0  0  0  0  0  0  0  0  0
   17.5829    1.1311   28.0503 H   0  0  0  0  0  0  0  0  0  0  0  0
   16.1001    0.4522   28.1337 H   0  0  0  0  0  0  0  0  0  0  0  0
  1  8  1  0  0  0  0
  2  8  2  0  0  0  0
  3  9  1  0  0  0  0
  4  9  2  0  0  0  0
  5 10  2  0  0  0  0
  6  7  1  0  0  0  0
  6  8  1  0  0  0  0
  7 10  1  0  0  0  0
  9 10  1  0  0  0  0
  1 11  1  0  0  0  0
  3 12  1  0  0  0  0
  6 13  1  0  0  0  0
  6 14  1  0  0  0  0
  7 15  1  0  0  0  0
  7 16  1  0  0  0  0
M  END
> <pdb_id>
3OUJ

> <uniprot_id>
Q9GZT9

> <usmiles>
O=C(O)C(=O)CCC(=O)O

$$$$
AKG_B_302
          07202417403D 1   1.00000     0.00000     0
            
 16 15  0  0  0  0            999 V2000
   -0.9800    2.9680  -20.3300 O   0  0  0  0  0  0  0  0  0  0  0  0
   -2.3220    1.4930  -21.2150 O   0  0  0  0  0  0  0  0  0  0  0  0
   -0.1920    1.5190  -15.2600 O   0  0  0  0  0  0  0  0  0  0  0  0
    0.0400   -0.6650  -15.1010 O   0  0  0  0  0  0  0  0  0  0  0  0
    0.5350   -0.7540  -17.6700 O   0  0  0  0  0  0  0  0  0  0  0  0
   -0.9720    0.7390  -19.4730 C   0  0  0  0  0  0  0  0  0  0  0  0
   -0.4510    1.3340  -18.1780 C   0  0  0  0  0  0  0  0  0  0  0  0
   -1.4470    1.8070  -20.3980 C   0  0  0  0  0  0  0  0  0  0  0  0
   -0.0310    0.4080  -15.7800 C   0  0  0  0  0  0  0  0  0  0  0  0
    0.0570    0.2700  -17.2340 C   0  0  0  0  0  0  0  0  0  0  0  0
   -0.2733    3.1840  -19.6562 H   0  0  0  0  0  0  0  0  0  0  0  0
   -0.2421    2.3368  -15.8333 H   0  0  0  0  0  0  0  0  0  0  0  0
   -1.7321    0.1226  -19.2673 H   0  0  0  0  0  0  0  0  0  0  0  0
   -0.2371    0.2256  -19.9161 H   0  0  0  0  0  0  0  0  0  0  0  0
   -1.1920    1.8355  -17.7314 H   0  0  0  0  0  0  0  0  0  0  0  0
    0.2972    1.9629  -18.3891 H   0  0  0  0  0  0  0  0  0  0  0  0
  1  8  1  0  0  0  0
  2  8  2  0  0  0  0
  3  9  1  0  0  0  0
  4  9  2  0  0  0  0
  5 10  2  0  0  0  0
  6  7  1  0  0  0  0
  6  8  1  0  0  0  0
  7 10  1  0  0  0  0
  9 10  1  0  0  0  0
  1 11  1  0  0  0  0
  3 12  1  0  0  0  0
  6 13  1  0  0  0  0
  6 14  1  0  0  0  0
  7 15  1  0  0  0  0
  7 16  1  0  0  0  0
M  END
> <pdb_id>
4QKD

> <uniprot_id>
Q9BT30

> <usmiles>
O=C(O)C(=O)CCC(=O)O

$$$$
AKG_B_502
          07202417003D 1   1.00000     0.00000     0
            
 16 15  0  0  0  0            999 V2000
   -3.9064   13.0093  -21.9790 O   0  0  0  0  0  0  0  0  0  0  0  0
   -2.6227   14.7930  -21.7345 O   0  0  0  0  0  0  0  0  0  0  0  0
   -7.6821   17.3633  -18.6784 O   0  0  0  0  0  0  0  0  0  0  0  0
   -8.3111   15.2183  -18.7200 O   0  0  0  0  0  0  0  0  0  0  0  0
   -6.8996   16.9733  -21.1849 O   0  0  0  0  0  0  0  0  0  0  0  0
   -4.9609   15.2150  -21.7695 C   0  0  0  0  0  0  0  0  0  0  0  0
   -6.2027   14.7553  -20.9713 C   0  0  0  0  0  0  0  0  0  0  0  0
   -3.7664   14.2578  -21.8286 C   0  0  0  0  0  0  0  0  0  0  0  0
   -7.6908   16.1920  -19.2164 C   0  0  0  0  0  0  0  0  0  0  0  0
   -6.9532   16.0074  -20.4938 C   0  0  0  0  0  0  0  0  0  0  0  0
   -4.8221   12.6139  -22.0504 H   0  0  0  0  0  0  0  0  0  0  0  0
   -7.1737   18.1082  -19.1105 H   0  0  0  0  0  0  0  0  0  0  0  0
   -4.6406   16.0693  -21.3600 H   0  0  0  0  0  0  0  0  0  0  0  0
   -5.2551   15.3858  -22.7098 H   0  0  0  0  0  0  0  0  0  0  0  0
   -5.9165   14.2105  -20.1831 H   0  0  0  0  0  0  0  0  0  0  0  0
   -6.7982   14.2061  -21.5576 H   0  0  0  0  0  0  0  0  0  0  0  0
  1  8  1  0  0  0  0
  2  8  2  0  0  0  0
  3  9  1  0  0  0  0
  4  9  2  0  0  0  0
  5 10  2  0  0  0  0
  6  7  1  0  0  0  0
  6  8  1  0  0  0  0
  7 10  1  0  0  0  0
  9 10  1  0  0  0  0
  1 11  1  0  0  0  0
  3 12  1  0  0  0  0
  6 13  1  0  0  0  0
  6 14  1  0  0  0  0
  7 15  1  0  0  0  0
  7 16  1  0  0  0  0
M  END
> <pdb_id>
4OCT

> <uniprot_id>
Q6P6C2

> <usmiles>
O=C(O)C(=O)CCC(=O)O

$$$$
AKJ_A_601
          07202412153D 1   1.00000     0.00000     0
            
 42 43  0  0  0  0            999 V2000
   41.1353   44.7146   63.6909 F   0  0  0  0  0  0  0  0  0  0  0  0
   41.1777   46.8773   63.1541 F   0  0  0  0  0  0  0  0  0  0  0  0
   48.6370   45.2194   63.7264 O   0  0  0  0  0  0  0  0  0  0  0  0
   44.6875   47.2745   69.3149 O   0  0  0  0  0  0  0  0  0  0  0  0
   42.4958   46.1467   64.8460 O   0  0  0  0  0  0  0  0  0  0  0  0
   44.5438   46.1821   66.4339 O   0  0  0  0  0  0  0  0  0  0  0  0
   49.4372   45.9331   59.5341 C   0  0  0  0  0  0  0  0  0  0  0  0
   48.1971   47.4054   61.1580 C   0  0  0  0  0  0  0  0  0  0  0  0
   45.2252   48.2910   68.4657 C   0  0  0  0  0  0  0  0  0  0  0  0
   44.9470   45.9843   68.7795 C   0  0  0  0  0  0  0  0  0  0  0  0
   46.1524   47.6054   67.4800 C   0  0  0  0  0  0  0  0  0  0  0  0
   43.9317   45.6456   62.9046 C   0  0  0  0  0  0  0  0  0  0  0  0
   45.2237   45.4151   62.4307 C   0  0  0  0  0  0  0  0  0  0  0  0
   48.1532   44.9093   61.4650 C   0  0  0  0  0  0  0  0  0  0  0  0
   46.0913   45.7033   64.6484 C   0  0  0  0  0  0  0  0  0  0  0  0
   41.2455   45.9825   64.1812 C   0  0  0  0  0  0  0  0  0  0  0  0
   47.7437   45.1818   62.8899 C   0  0  0  0  0  0  0  0  0  0  0  0
   48.9728   46.1031   60.9808 C   0  0  0  0  0  0  0  0  0  0  0  0
   45.5738   46.2139   67.4178 C   0  0  2  0  0  0  0  0  0  0  0  0
   43.7217   45.9052   64.2630 C   0  0  0  0  0  0  0  0  0  0  0  0
   44.8003   45.9280   65.1158 C   0  0  0  0  0  0  0  0  0  0  0  0
   46.3180   45.4370   63.3068 C   0  0  0  0  0  0  0  0  0  0  0  0
   49.9417   45.0743   59.4447 H   0  0  0  0  0  0  0  0  0  0  0  0
   48.6417   45.9169   58.9284 H   0  0  0  0  0  0  0  0  0  0  0  0
   50.0319   46.6967   59.2830 H   0  0  0  0  0  0  0  0  0  0  0  0
   47.9053   47.4926   62.1105 H   0  0  0  0  0  0  0  0  0  0  0  0
   48.7840   48.1784   60.9172 H   0  0  0  0  0  0  0  0  0  0  0  0
   47.3937   47.3986   60.5626 H   0  0  0  0  0  0  0  0  0  0  0  0
   45.7351   48.9576   69.0094 H   0  0  0  0  0  0  0  0  0  0  0  0
   44.4869   48.7549   67.9762 H   0  0  0  0  0  0  0  0  0  0  0  0
   44.0951   45.4687   68.6872 H   0  0  0  0  0  0  0  0  0  0  0  0
   45.5776   45.4828   69.3719 H   0  0  0  0  0  0  0  0  0  0  0  0
   47.0941   47.5923   67.8163 H   0  0  0  0  0  0  0  0  0  0  0  0
   46.1242   48.0507   66.5851 H   0  0  0  0  0  0  0  0  0  0  0  0
   43.1563   45.6252   62.2735 H   0  0  0  0  0  0  0  0  0  0  0  0
   45.3703   45.2328   61.4584 H   0  0  0  0  0  0  0  0  0  0  0  0
   47.3408   44.7993   60.8924 H   0  0  0  0  0  0  0  0  0  0  0  0
   48.7060   44.0771   61.4228 H   0  0  0  0  0  0  0  0  0  0  0  0
   46.8618   45.7341   65.2851 H   0  0  0  0  0  0  0  0  0  0  0  0
   40.5003   46.1569   64.8249 H   0  0  0  0  0  0  0  0  0  0  0  0
   49.7900   46.1594   61.5543 H   0  0  0  0  0  0  0  0  0  0  0  0
   46.2817   45.5345   67.2246 H   0  0  0  0  0  0  0  0  0  0  0  0
  1 16  1  0  0  0  0
  2 16  1  0  0  0  0
  3 17  2  0  0  0  0
  4  9  1  0  0  0  0
  4 10  1  0  0  0  0
  5 16  1  0  0  0  0
  5 20  1  0  0  0  0
  6 19  1  0  0  0  0
  6 21  1  0  0  0  0
  7 18  1  0  0  0  0
  8 18  1  0  0  0  0
  9 11  1  0  0  0  0
 10 19  1  0  0  0  0
 11 19  1  0  0  0  0
 12 13  1  0  0  0  0
 12 20  2  0  0  0  0
 13 22  2  0  0  0  0
 14 17  1  0  0  0  0
 14 18  1  0  0  0  0
 15 21  2  0  0  0  0
 15 22  1  0  0  0  0
 17 22  1  0  0  0  0
 20 21  1  0  0  0  0
  7 23  1  0  0  0  0
  7 24  1  0  0  0  0
  7 25  1  0  0  0  0
  8 26  1  0  0  0  0
  8 27  1  0  0  0  0
  8 28  1  0  0  0  0
  9 29  1  0  0  0  0
  9 30  1  0  0  0  0
 10 31  1  0  0  0  0
 10 32  1  0  0  0  0
 11 33  1  0  0  0  0
 11 34  1  0  0  0  0
 12 35  1  0  0  0  0
 13 36  1  0  0  0  0
 14 37  1  0  0  0  0
 14 38  1  0  0  0  0
 15 39  1  0  0  0  0
 16 40  1  0  0  0  0
 18 41  1  0  0  0  0
 19 42  1  0  0  0  0
M  END
> <pdb_id>
5WH6

> <uniprot_id>
Q08499

> <usmiles>
FC(F)Oc1c(O[C@@H]2COCC2)cc(cc1)C(=O)CC(C)C

$$$$
ALG_A_6
          07192419343D 1   1.00000     0.00000     0
            
 21 20  0  0  0  0            999 V2000
   46.3333   22.1749   51.1407 O   0  0  0  0  0  0  0  0  0  0  0  0
   46.4196   23.1890   49.2077 O   0  0  0  0  0  0  0  0  0  0  0  0
   46.8553   19.7428   52.9985 N   0  0  0  0  0  0  0  0  0  0  0  0
   46.8319   17.5900   53.5435 N   0  0  0  0  0  0  0  0  0  0  0  0
   46.3955   18.1965   51.3709 N   0  0  0  0  0  0  0  0  0  0  0  0
   46.2963   19.1287   50.2656 C   0  0  0  0  0  0  0  0  0  0  0  0
   44.9883   19.9073   50.2709 C   0  0  0  0  0  0  0  0  0  0  0  0
   45.0686   21.1457   49.3840 C   0  0  0  0  0  0  0  0  0  0  0  0
   45.9796   22.2005   49.9715 C   0  0  0  0  0  0  0  0  0  0  0  0
   46.6912   18.5436   52.6312 C   0  0  0  0  0  0  0  0  0  0  0  0
   46.0179   21.4412   51.7425 H   0  0  0  0  0  0  0  0  0  0  0  0
   46.7568   20.4863   52.3371 H   0  0  0  0  0  0  0  0  0  0  0  0
   47.0834   19.9473   53.9504 H   0  0  0  0  0  0  0  0  0  0  0  0
   46.7092   16.6311   53.2875 H   0  0  0  0  0  0  0  0  0  0  0  0
   46.2322   17.2285   51.1803 H   0  0  0  0  0  0  0  0  0  0  0  0
   46.3609   18.6172   49.4087 H   0  0  0  0  0  0  0  0  0  0  0  0
   47.0551   19.7773   50.3247 H   0  0  0  0  0  0  0  0  0  0  0  0
   44.7836   20.1916   51.2076 H   0  0  0  0  0  0  0  0  0  0  0  0
   44.2563   19.3145   49.9351 H   0  0  0  0  0  0  0  0  0  0  0  0
   44.1514   21.5307   49.2822 H   0  0  0  0  0  0  0  0  0  0  0  0
   45.4196   20.8786   48.4865 H   0  0  0  0  0  0  0  0  0  0  0  0
  1  9  1  0  0  0  0
  2  9  2  0  0  0  0
  3 10  1  0  0  0  0
  4 10  2  0  0  0  0
  5  6  1  0  0  0  0
  5 10  1  0  0  0  0
  6  7  1  0  0  0  0
  7  8  1  0  0  0  0
  8  9  1  0  0  0  0
  1 11  1  0  0  0  0
  3 12  1  0  0  0  0
  3 13  1  0  0  0  0
  4 14  1  0  0  0  0
  5 15  1  0  0  0  0
  6 16  1  0  0  0  0
  6 17  1  0  0  0  0
  7 18  1  0  0  0  0
  7 19  1  0  0  0  0
  8 20  1  0  0  0  0
  8 21  1  0  0  0  0
M  END
> <pdb_id>
3RXB

> <uniprot_id>
P00760

> <usmiles>
O=C(O)CCCNC(=N)N

$$$$
AMF_C_1446
          07192418433D 1   1.00000     0.00000     0
            
 50 51  0  0  0  0            999 V2000
   -3.7919    8.7253    9.6988 S   0  0  0  0  0  0  0  0  0  0  0  0
    0.2420    9.6703   11.1881 O   0  0  0  0  0  0  0  0  0  0  0  0
    0.9151   12.7129   10.2961 O   0  0  0  0  0  0  0  0  0  0  0  0
    0.8420   12.2193    7.4602 O   0  0  0  0  0  0  0  0  0  0  0  0
   -1.5148   10.9960    6.4348 O   0  0  0  0  0  0  0  0  0  0  0  0
   -2.1285    8.5790   11.8327 N   0  0  0  0  0  0  0  0  0  0  0  0
   -1.6605   10.1442   10.0325 N   0  0  0  0  0  0  0  0  0  0  0  0
   -2.6903   -0.8449   14.9828 C   0  0  0  0  0  0  0  0  0  0  0  0
   -3.1592    9.4772    8.1937 C   0  0  0  0  0  0  0  0  0  0  0  0
   -3.0095    7.6099   12.5363 C   0  0  0  0  0  0  0  0  0  0  0  0
   -3.4674    0.4062   14.5977 C   0  0  0  0  0  0  0  0  0  0  0  0
   -2.2682    6.3149   12.7469 C   0  0  0  0  0  0  0  0  0  0  0  0
   -2.5951    1.6608   14.7154 C   0  0  0  0  0  0  0  0  0  0  0  0
   -3.1604    5.3340   13.5319 C   0  0  0  0  0  0  0  0  0  0  0  0
   -3.3916    2.9404   14.4143 C   0  0  0  0  0  0  0  0  0  0  0  0
   -2.5087    3.9593   13.6348 C   0  0  0  0  0  0  0  0  0  0  0  0
   -2.4255    9.1750   10.6745 C   0  0  0  0  0  0  0  0  0  0  0  0
   -0.5118   10.7630   10.6341 C   0  0  2  0  0  0  0  0  0  0  0  0
    0.3644   11.5444    9.6305 C   0  0  1  0  0  0  0  0  0  0  0  0
   -0.2737   11.9347    8.3233 C   0  0  2  0  0  0  0  0  0  0  0  0
   -1.0194   10.7321    7.7540 C   0  0  1  0  0  0  0  0  0  0  0  0
   -2.1776   10.5448    8.7019 C   0  0  2  0  0  0  0  0  0  0  0  0
    1.0666   10.0242   11.6295 H   0  0  0  0  0  0  0  0  0  0  0  0
    1.4843   13.2254    9.6532 H   0  0  0  0  0  0  0  0  0  0  0  0
    0.5052   12.4904    6.5585 H   0  0  0  0  0  0  0  0  0  0  0  0
   -1.9969   10.1896    6.0922 H   0  0  0  0  0  0  0  0  0  0  0  0
   -3.2833   -1.6454   14.8965 H   0  0  0  0  0  0  0  0  0  0  0  0
   -1.9017   -0.9473   14.3765 H   0  0  0  0  0  0  0  0  0  0  0  0
   -2.3753   -0.7637   15.9285 H   0  0  0  0  0  0  0  0  0  0  0  0
   -3.8987    9.8954    7.6663 H   0  0  0  0  0  0  0  0  0  0  0  0
   -2.6879    8.8003    7.6282 H   0  0  0  0  0  0  0  0  0  0  0  0
   -3.8258    7.4404   11.9841 H   0  0  0  0  0  0  0  0  0  0  0  0
   -3.2789    7.9873   13.4223 H   0  0  0  0  0  0  0  0  0  0  0  0
   -4.2563    0.4997   15.2050 H   0  0  0  0  0  0  0  0  0  0  0  0
   -3.7827    0.3161   13.6530 H   0  0  0  0  0  0  0  0  0  0  0  0
   -1.4306    6.4906   13.2642 H   0  0  0  0  0  0  0  0  0  0  0  0
   -2.0349    5.9164   11.8599 H   0  0  0  0  0  0  0  0  0  0  0  0
   -1.8378    1.5906   14.0661 H   0  0  0  0  0  0  0  0  0  0  0  0
   -2.2325    1.7168   15.6457 H   0  0  0  0  0  0  0  0  0  0  0  0
   -4.0388    5.2445   13.0624 H   0  0  0  0  0  0  0  0  0  0  0  0
   -3.3098    5.6941   14.4528 H   0  0  0  0  0  0  0  0  0  0  0  0
   -3.6894    3.3534   15.2750 H   0  0  0  0  0  0  0  0  0  0  0  0
   -4.1920    2.7078   13.8617 H   0  0  0  0  0  0  0  0  0  0  0  0
   -1.6331    4.0537   14.1084 H   0  0  0  0  0  0  0  0  0  0  0  0
   -2.3522    3.6083   12.7116 H   0  0  0  0  0  0  0  0  0  0  0  0
   -0.8063   11.3739   11.3690 H   0  0  0  0  0  0  0  0  0  0  0  0
    1.1383   10.9525    9.4053 H   0  0  0  0  0  0  0  0  0  0  0  0
   -0.8740   12.7279    8.4264 H   0  0  0  0  0  0  0  0  0  0  0  0
   -0.4319    9.9229    7.7532 H   0  0  0  0  0  0  0  0  0  0  0  0
   -2.6641   11.4136    8.7928 H   0  0  0  0  0  0  0  0  0  0  0  0
  1  9  1  0  0  0  0
  1 17  1  0  0  0  0
  2 18  1  0  0  0  0
  3 19  1  0  0  0  0
  4 20  1  0  0  0  0
  5 21  1  0  0  0  0
  6 10  1  0  0  0  0
  6 17  2  0  0  0  0
  7 17  1  0  0  0  0
  7 18  1  0  0  0  0
  7 22  1  0  0  0  0
  8 11  1  0  0  0  0
  9 22  1  0  0  0  0
 10 12  1  0  0  0  0
 11 13  1  0  0  0  0
 12 14  1  0  0  0  0
 13 15  1  0  0  0  0
 14 16  1  0  0  0  0
 15 16  1  0  0  0  0
 18 19  1  0  0  0  0
 19 20  1  0  0  0  0
 20 21  1  0  0  0  0
 21 22  1  0  0  0  0
  2 23  1  0  0  0  0
  3 24  1  0  0  0  0
  4 25  1  0  0  0  0
  5 26  1  0  0  0  0
  8 27  1  0  0  0  0
  8 28  1  0  0  0  0
  8 29  1  0  0  0  0
  9 30  1  0  0  0  0
  9 31  1  0  0  0  0
 10 32  1  0  0  0  0
 10 33  1  0  0  0  0
 11 34  1  0  0  0  0
 11 35  1  0  0  0  0
 12 36  1  0  0  0  0
 12 37  1  0  0  0  0
 13 38  1  0  0  0  0
 13 39  1  0  0  0  0
 14 40  1  0  0  0  0
 14 41  1  0  0  0  0
 15 42  1  0  0  0  0
 15 43  1  0  0  0  0
 16 44  1  0  0  0  0
 16 45  1  0  0  0  0
 18 46  1  0  0  0  0
 19 47  1  0  0  0  0
 20 48  1  0  0  0  0
 21 49  1  0  0  0  0
 22 50  1  0  0  0  0
M  END
> <pdb_id>
2WC4

> <uniprot_id>
Q08638

> <usmiles>
S1C(=NCCCCCCCC)N2[C@@H](O)[C@H](O)[C@@H](O)[C@H](O)[C@H]2C1

$$$$
AMP_B_201
          07202403243D 1   1.00000     0.00000     0
            
 37 39  0  0  0  0            999 V2000
  -31.6255    4.1215  -23.9604 P   0  0  0  0  0  0  0  0  0  0  0  0
  -32.4583    4.9904  -23.0448 O   0  0  0  0  0  0  0  0  0  0  0  0
  -30.1789    4.0069  -23.5474 O   0  0  0  0  0  0  0  0  0  0  0  0
  -32.2633    2.8084  -24.3261 O   0  0  0  0  0  0  0  0  0  0  0  0
  -29.3024    8.0654  -28.9743 O   0  0  0  0  0  0  0  0  0  0  0  0
  -28.7200    7.2677  -26.4037 O   0  0  0  0  0  0  0  0  0  0  0  0
  -31.5844    4.9308  -25.3334 O   0  0  0  0  0  0  0  0  0  0  0  0
  -29.2229    4.5851  -28.1417 O   0  0  0  0  0  0  0  0  0  0  0  0
  -28.7167    4.0250  -34.9120 N   0  0  0  0  0  0  0  0  0  0  0  0
  -26.8095    4.6702  -33.6788 N   0  0  0  0  0  0  0  0  0  0  0  0
  -26.9135    5.2978  -31.3883 N   0  0  0  0  0  0  0  0  0  0  0  0
  -30.2579    4.5348  -32.2038 N   0  0  0  0  0  0  0  0  0  0  0  0
  -29.1760    5.2197  -30.3809 N   0  0  0  0  0  0  0  0  0  0  0  0
  -30.9737    4.3751  -26.4974 C   0  0  0  0  0  0  0  0  0  0  0  0
  -26.2306    5.0827  -32.5313 C   0  0  0  0  0  0  0  0  0  0  0  0
  -30.3740    4.8844  -30.8964 C   0  0  0  0  0  0  0  0  0  0  0  0
  -29.8011    6.8169  -28.5449 C   0  0  2  0  0  0  0  0  0  0  0  0
  -29.8319    6.6155  -27.0259 C   0  0  1  0  0  0  0  0  0  0  0  0
  -28.9215    5.6566  -29.0043 C   0  0  1  0  0  0  0  0  0  0  0  0
  -28.1382    4.4344  -33.7595 C   0  0  0  0  0  0  0  0  0  0  0  0
  -29.6995    5.0971  -26.8677 C   0  0  2  0  0  0  0  0  0  0  0  0
  -28.2505    5.0973  -31.3341 C   0  0  0  0  0  0  0  0  0  0  0  0
  -28.9573    4.6506  -32.5437 C   0  0  0  0  0  0  0  0  0  0  0  0
  -33.4004    5.0196  -23.3789 H   0  0  0  0  0  0  0  0  0  0  0  0
  -29.6927    3.4207  -24.1954 H   0  0  0  0  0  0  0  0  0  0  0  0
  -29.3201    8.1057  -29.9733 H   0  0  0  0  0  0  0  0  0  0  0  0
  -28.7597    7.1237  -25.4149 H   0  0  0  0  0  0  0  0  0  0  0  0
  -29.7020    3.8576  -34.9449 H   0  0  0  0  0  0  0  0  0  0  0  0
  -28.1589    3.8898  -35.7309 H   0  0  0  0  0  0  0  0  0  0  0  0
  -31.6156    4.4407  -27.2614 H   0  0  0  0  0  0  0  0  0  0  0  0
  -30.7608    3.4138  -26.3225 H   0  0  0  0  0  0  0  0  0  0  0  0
  -25.2426    5.2371  -32.5285 H   0  0  0  0  0  0  0  0  0  0  0  0
  -31.2336    4.8918  -30.3854 H   0  0  0  0  0  0  0  0  0  0  0  0
  -30.7238    6.6912  -28.9095 H   0  0  0  0  0  0  0  0  0  0  0  0
  -30.6960    6.9397  -26.6410 H   0  0  0  0  0  0  0  0  0  0  0  0
  -27.9583    5.9063  -28.9046 H   0  0  0  0  0  0  0  0  0  0  0  0
  -29.0099    4.9075  -26.1688 H   0  0  0  0  0  0  0  0  0  0  0  0
  1  2  1  0  0  0  0
  1  3  1  0  0  0  0
  1  4  2  0  0  0  0
  1  7  1  0  0  0  0
  5 17  1  0  0  0  0
  6 18  1  0  0  0  0
  7 14  1  0  0  0  0
  8 19  1  0  0  0  0
  8 21  1  0  0  0  0
  9 20  1  0  0  0  0
 10 15  1  0  0  0  0
 10 20  2  0  0  0  0
 11 15  2  0  0  0  0
 11 22  1  0  0  0  0
 12 16  2  0  0  0  0
 12 23  1  0  0  0  0
 13 16  1  0  0  0  0
 13 19  1  0  0  0  0
 13 22  1  0  0  0  0
 14 21  1  0  0  0  0
 17 18  1  0  0  0  0
 17 19  1  0  0  0  0
 18 21  1  0  0  0  0
 20 23  1  0  0  0  0
 22 23  2  0  0  0  0
  2 24  1  0  0  0  0
  3 25  1  0  0  0  0
  5 26  1  0  0  0  0
  6 27  1  0  0  0  0
  9 28  1  0  0  0  0
  9 29  1  0  0  0  0
 14 30  1  0  0  0  0
 14 31  1  0  0  0  0
 15 32  1  0  0  0  0
 16 33  1  0  0  0  0
 17 34  1  0  0  0  0
 18 35  1  0  0  0  0
 19 36  1  0  0  0  0
 21 37  1  0  0  0  0
M  END
> <pdb_id>
5KLZ

> <uniprot_id>
P49773

> <usmiles>
P(=O)(OC[C@H]1O[C@@H](N2c3ncnc(N)c3N=C2)[C@H](O)[C@@H]1O)(O)O

$$$$
AMQ_B_427
          07202403063D 1   1.00000     0.00000     0
            
 23 23  0  0  0  0            999 V2000
   15.9578    0.5242   18.4495 O   0  0  0  0  0  0  0  0  0  0  0  0
   14.1342    1.6281   19.1429 O   0  0  0  0  0  0  0  0  0  0  0  0
   16.3061    0.3977   13.8312 O   0  0  0  0  0  0  0  0  0  0  0  0
   14.9305    3.2573   12.5231 O   0  0  0  0  0  0  0  0  0  0  0  0
   13.3186    2.3913   16.7070 N   0  0  0  0  0  0  0  0  0  0  0  0
   15.4614    1.9341   12.2797 N   0  0  0  0  0  0  0  0  0  0  0  0
   14.4851    4.8935   14.2702 C   0  0  0  0  0  0  0  0  0  0  0  0
   15.7216    2.2766   16.0493 C   0  0  0  0  0  0  0  0  0  0  0  0
   14.9231    1.2109   18.2491 C   0  0  0  0  0  0  0  0  0  0  0  0
   15.7670    1.5726   13.5010 C   0  0  0  0  0  0  0  0  0  0  0  0
   14.9848    3.5370   13.8789 C   0  0  0  0  0  0  0  0  0  0  0  0
   14.5580    1.5471   16.7662 C   0  0  1  0  0  0  0  0  0  0  0  0
   15.5081    2.4889   14.5657 C   0  0  0  0  0  0  0  0  0  0  0  0
   16.5249    0.2375   17.6774 H   0  0  0  0  0  0  0  0  0  0  0  0
   12.5700    1.9173   17.1707 H   0  0  0  0  0  0  0  0  0  0  0  0
   13.4897    3.2667   17.1592 H   0  0  0  0  0  0  0  0  0  0  0  0
   15.5660    1.4349   11.4196 H   0  0  0  0  0  0  0  0  0  0  0  0
   14.5626    5.0043   15.2610 H   0  0  0  0  0  0  0  0  0  0  0  0
   15.0318    5.5948   13.8126 H   0  0  0  0  0  0  0  0  0  0  0  0
   13.5274    4.9872   13.9982 H   0  0  0  0  0  0  0  0  0  0  0  0
   16.5529    1.7342   16.1710 H   0  0  0  0  0  0  0  0  0  0  0  0
   15.8416    3.1715   16.4791 H   0  0  0  0  0  0  0  0  0  0  0  0
   14.3787    0.6898   16.2837 H   0  0  0  0  0  0  0  0  0  0  0  0
  1  9  1  0  0  0  0
  2  9  2  0  0  0  0
  3 10  2  0  0  0  0
  4  6  1  0  0  0  0
  4 11  1  0  0  0  0
  5 12  1  0  0  0  0
  6 10  1  0  0  0  0
  7 11  1  0  0  0  0
  8 12  1  0  0  0  0
  8 13  1  0  0  0  0
  9 12  1  0  0  0  0
 10 13  1  0  0  0  0
 11 13  2  0  0  0  0
  1 14  1  0  0  0  0
  5 15  1  0  0  0  0
  5 16  1  0  0  0  0
  6 17  1  0  0  0  0
  7 18  1  0  0  0  0
  7 19  1  0  0  0  0
  7 20  1  0  0  0  0
  8 21  1  0  0  0  0
  8 22  1  0  0  0  0
 12 23  1  0  0  0  0
M  END
> <pdb_id>
1P1W

> <uniprot_id>
P19491

> <usmiles>
O=C(O)[C@@H](N)CC=1C(=O)NOC1C

$$$$
ANV_A_302
          07192416293D 1   1.00000     0.00000     0
            
 37 39  0  0  0  0            999 V2000
   -5.9002    0.9560   16.8598 S   0  0  0  0  0  0  0  0  0  0  0  0
   -5.3856    1.0664   18.1930 O   0  0  0  0  0  0  0  0  0  0  0  0
   -7.3195    1.0528   16.6654 O   0  0  0  0  0  0  0  0  0  0  0  0
   -0.1930    8.2809   13.3381 O   0  0  0  0  0  0  0  0  0  0  0  0
   -5.3941   -0.4297   16.2454 N   0  0  0  0  0  0  0  0  0  0  0  0
   -4.0270    6.3764   13.2808 N   0  0  0  0  0  0  0  0  0  0  0  0
   -3.1722    7.1850   12.6965 N   0  0  0  0  0  0  0  0  0  0  0  0
   -3.3057    5.3727   13.8336 N   0  0  0  0  0  0  0  0  0  0  0  0
   -1.9901    5.5512   13.5906 C   0  0  0  0  0  0  0  0  0  0  0  0
   -1.4769   12.1878   13.7724 C   0  0  0  0  0  0  0  0  0  0  0  0
   -0.5125   11.6497   14.6001 C   0  0  0  0  0  0  0  0  0  0  0  0
   -2.0476   11.4108   12.7864 C   0  0  0  0  0  0  0  0  0  0  0  0
   -0.1079   10.3347   14.4447 C   0  0  0  0  0  0  0  0  0  0  0  0
   -1.6550   10.0948   12.6150 C   0  0  0  0  0  0  0  0  0  0  0  0
   -3.7974    2.2124   15.6812 C   0  0  0  0  0  0  0  0  0  0  0  0
   -5.9294    3.3137   15.4681 C   0  0  0  0  0  0  0  0  0  0  0  0
   -3.1949    3.2507   15.0008 C   0  0  0  0  0  0  0  0  0  0  0  0
   -5.3199    4.3480   14.7727 C   0  0  0  0  0  0  0  0  0  0  0  0
   -0.7148    7.4099   12.3351 C   0  0  0  0  0  0  0  0  0  0  0  0
   -5.1602    2.2509   15.9218 C   0  0  0  0  0  0  0  0  0  0  0  0
   -0.6777    9.5607   13.4456 C   0  0  0  0  0  0  0  0  0  0  0  0
   -1.9097    6.7051   12.8717 C   0  0  0  0  0  0  0  0  0  0  0  0
   -3.9461    4.3145   14.5430 C   0  0  0  0  0  0  0  0  0  0  0  0
   -5.0112   -0.5450   15.3111 H   0  0  0  0  0  0  0  0  0  0  0  0
   -5.3280   -1.3098   16.7517 H   0  0  0  0  0  0  0  0  0  0  0  0
   -1.1903    4.8902   13.9187 H   0  0  0  0  0  0  0  0  0  0  0  0
   -1.7744   13.2278   13.8981 H   0  0  0  0  0  0  0  0  0  0  0  0
   -0.0589   12.2552   15.3825 H   0  0  0  0  0  0  0  0  0  0  0  0
   -2.8127   11.8333   12.1366 H   0  0  0  0  0  0  0  0  0  0  0  0
    0.6522    9.9152   15.1024 H   0  0  0  0  0  0  0  0  0  0  0  0
   -2.1627    9.5582   11.8155 H   0  0  0  0  0  0  0  0  0  0  0  0
   -3.1995    1.3683   16.0208 H   0  0  0  0  0  0  0  0  0  0  0  0
   -7.0022    3.3534   15.6514 H   0  0  0  0  0  0  0  0  0  0  0  0
   -2.1191    3.2101   14.8465 H   0  0  0  0  0  0  0  0  0  0  0  0
   -5.9388    5.1711   14.4201 H   0  0  0  0  0  0  0  0  0  0  0  0
   -0.8702    7.8773   11.3645 H   0  0  0  0  0  0  0  0  0  0  0  0
    0.1025    6.7003   12.2212 H   0  0  0  0  0  0  0  0  0  0  0  0
  1  2  2  0  0  0  0
  1  3  2  0  0  0  0
  1  5  1  0  0  0  0
  1 20  1  0  0  0  0
  4 19  1  0  0  0  0
  4 21  1  0  0  0  0
  5 24  1  0  0  0  0
  5 25  1  0  0  0  0
  6  7  2  0  0  0  0
  6  8  1  0  0  0  0
  7 22  1  0  0  0  0
  8  9  1  0  0  0  0
  8 23  1  0  0  0  0
  9 22  2  0  0  0  0
  9 26  1  0  0  0  0
 10 11  2  0  0  0  0
 10 12  1  0  0  0  0
 10 27  1  0  0  0  0
 11 13  1  0  0  0  0
 11 28  1  0  0  0  0
 12 14  2  0  0  0  0
 12 29  1  0  0  0  0
 13 21  2  0  0  0  0
 13 30  1  0  0  0  0
 14 21  1  0  0  0  0
 14 31  1  0  0  0  0
 15 17  1  0  0  0  0
 15 20  2  0  0  0  0
 15 32  1  0  0  0  0
 16 18  2  0  0  0  0
 16 20  1  0  0  0  0
 16 33  1  0  0  0  0
 17 23  2  0  0  0  0
 17 34  1  0  0  0  0
 18 23  1  0  0  0  0
 18 35  1  0  0  0  0
 19 22  1  0  0  0  0
 19 36  1  0  0  0  0
 19 37  1  0  0  0  0
M  END
> <pdb_id>
5LJQ

> <uniprot_id>
P00918

> <usmiles>
S(=O)(=O)(N)c1ccc(N2N=NC(=C2)COc3ccccc3)cc1

$$$$
AOL_A_5009
          07202412393D 1   1.00000     0.00000     0
            
 21 21  0  0  0  0            999 V2000
   33.9236   66.4231    7.0170 O   0  0  0  0  0  0  0  0  0  0  0  0
   31.7835   68.0143    5.7595 O   0  0  0  0  0  0  0  0  0  0  0  0
   33.5709   65.7560    9.5935 O   0  0  0  0  0  0  0  0  0  0  0  0
   30.8420   65.5780    6.9661 O   0  0  0  0  0  0  0  0  0  0  0  0
   30.9867   65.3098    9.5670 N   0  0  0  0  0  0  0  0  0  0  0  0
   33.1861   67.4167    7.7052 C   0  0  1  0  0  0  0  0  0  0  0  0
   31.8237   67.8413    7.1560 C   0  0  2  0  0  0  0  0  0  0  0  0
   32.9324   66.9396    9.1445 C   0  0  1  0  0  0  0  0  0  0  0  0
   30.9095   66.7629    7.7409 C   0  0  2  0  0  0  0  0  0  0  0  0
   31.4284   66.6568    9.1764 C   0  0  1  0  0  0  0  0  0  0  0  0
   34.7855   66.2563    7.4958 H   0  0  0  0  0  0  0  0  0  0  0  0
   30.8626   68.2901    5.4842 H   0  0  0  0  0  0  0  0  0  0  0  0
   33.3105   65.5760   10.5421 H   0  0  0  0  0  0  0  0  0  0  0  0
   30.2290   64.9242    7.4096 H   0  0  0  0  0  0  0  0  0  0  0  0
   29.9879   65.2670    9.5444 H   0  0  0  0  0  0  0  0  0  0  0  0
   31.3637   64.6376    8.9299 H   0  0  0  0  0  0  0  0  0  0  0  0
   33.7584   68.2351    7.7560 H   0  0  0  0  0  0  0  0  0  0  0  0
   31.5801   68.7133    7.5804 H   0  0  0  0  0  0  0  0  0  0  0  0
   33.1396   67.6847    9.7784 H   0  0  0  0  0  0  0  0  0  0  0  0
   29.9863   67.1448    7.7842 H   0  0  0  0  0  0  0  0  0  0  0  0
   30.9717   67.3379    9.7486 H   0  0  0  0  0  0  0  0  0  0  0  0
  1  6  1  0  0  0  0
  2  7  1  0  0  0  0
  3  8  1  0  0  0  0
  4  9  1  0  0  0  0
  5 10  1  0  0  0  0
  6  7  1  0  0  0  0
  6  8  1  0  0  0  0
  7  9  1  0  0  0  0
  8 10  1  0  0  0  0
  9 10  1  0  0  0  0
  1 11  1  0  0  0  0
  2 12  1  0  0  0  0
  3 13  1  0  0  0  0
  4 14  1  0  0  0  0
  5 15  1  0  0  0  0
  5 16  1  0  0  0  0
  6 17  1  0  0  0  0
  7 18  1  0  0  0  0
  8 19  1  0  0  0  0
  9 20  1  0  0  0  0
 10 21  1  0  0  0  0
M  END
> <pdb_id>
2F7Q

> <uniprot_id>
nan

> <usmiles>
O[C@H]1[C@@H](O)[C@@H](O)[C@@H](O)[C@H]1N

$$$$
AOM_A_301
          07212403273D 1   1.00000     0.00000     0
            
 53 56  0  0  0  0            999 V2000
  -16.9686  -27.2201   -2.9559 O   0  0  0  0  0  0  0  0  0  0  0  0
  -10.6676  -35.6425   -7.0158 O   0  0  0  0  0  0  0  0  0  0  0  0
  -12.1598  -33.3427   -8.0250 C   0  0  0  0  0  0  0  0  0  0  0  0
  -15.1096  -29.9273   -6.3568 C   0  0  0  0  0  0  0  0  0  0  0  0
   -9.4261  -33.5537   -6.8248 C   0  0  0  0  0  0  0  0  0  0  0  0
  -11.6362  -29.7587   -5.1790 C   0  0  0  0  0  0  0  0  0  0  0  0
  -12.6321  -28.5839   -5.0732 C   0  0  0  0  0  0  0  0  0  0  0  0
  -16.8110  -29.5005   -3.8169 C   0  0  0  0  0  0  0  0  0  0  0  0
   -9.8600  -32.0491   -6.5468 C   0  0  0  0  0  0  0  0  0  0  0  0
  -14.1469  -32.7619   -5.6494 C   0  0  0  0  0  0  0  0  0  0  0  0
  -14.8527  -27.8396   -4.0393 C   0  0  0  0  0  0  0  0  0  0  0  0
  -15.8092  -30.6851   -4.0428 C   0  0  0  0  0  0  0  0  0  0  0  0
  -13.1011  -33.9257   -5.7344 C   0  0  0  0  0  0  0  0  0  0  0  0
  -16.0503  -28.3104   -3.1695 C   0  0  1  0  0  0  0  0  0  0  0  0
  -10.6032  -34.3985   -6.2964 C   0  0  1  0  0  0  0  0  0  0  0  0
  -12.2460  -31.0327   -5.8223 C   0  0  1  0  0  0  0  0  0  0  0  0
  -13.8602  -29.0123   -4.2259 C   0  0  1  0  0  0  0  0  0  0  0  0
  -11.2360  -32.2163   -5.8372 C   0  0  1  0  0  0  0  0  0  0  0  0
  -13.5393  -31.4642   -5.0138 C   0  0  1  0  0  0  0  0  0  0  0  0
  -11.8310  -33.5020   -6.4966 C   0  0  1  0  0  0  0  0  0  0  0  0
  -14.5805  -30.2739   -4.9096 C   0  0  2  0  0  0  0  0  0  0  0  0
  -16.4827  -26.4518   -2.5392 H   0  0  0  0  0  0  0  0  0  0  0  0
  -11.4316  -36.1879   -6.6709 H   0  0  0  0  0  0  0  0  0  0  0  0
  -11.3336  -33.0677   -8.5168 H   0  0  0  0  0  0  0  0  0  0  0  0
  -12.4890  -34.2145   -8.3878 H   0  0  0  0  0  0  0  0  0  0  0  0
  -12.8659  -32.6446   -8.1431 H   0  0  0  0  0  0  0  0  0  0  0  0
  -14.3409  -29.6589   -6.9374 H   0  0  0  0  0  0  0  0  0  0  0  0
  -15.5589  -30.7302   -6.7486 H   0  0  0  0  0  0  0  0  0  0  0  0
  -15.7641  -29.1733   -6.3007 H   0  0  0  0  0  0  0  0  0  0  0  0
   -8.5836  -33.7752   -6.3339 H   0  0  0  0  0  0  0  0  0  0  0  0
   -9.2918  -33.7078   -7.8037 H   0  0  0  0  0  0  0  0  0  0  0  0
  -11.3202  -29.9893   -4.2587 H   0  0  0  0  0  0  0  0  0  0  0  0
  -10.8585  -29.4650   -5.7347 H   0  0  0  0  0  0  0  0  0  0  0  0
  -12.9356  -28.3221   -5.9894 H   0  0  0  0  0  0  0  0  0  0  0  0
  -12.1821  -27.8053   -4.6360 H   0  0  0  0  0  0  0  0  0  0  0  0
  -17.5488  -29.7965   -3.2102 H   0  0  0  0  0  0  0  0  0  0  0  0
  -17.1956  -29.2147   -4.6946 H   0  0  0  0  0  0  0  0  0  0  0  0
   -9.9542  -31.5371   -7.4006 H   0  0  0  0  0  0  0  0  0  0  0  0
   -9.2013  -31.5877   -5.9524 H   0  0  0  0  0  0  0  0  0  0  0  0
  -14.9191  -33.0631   -5.0901 H   0  0  0  0  0  0  0  0  0  0  0  0
  -14.4670  -32.5487   -6.5725 H   0  0  0  0  0  0  0  0  0  0  0  0
  -14.3888  -27.0792   -3.5847 H   0  0  0  0  0  0  0  0  0  0  0  0
  -15.1868  -27.5399   -4.9329 H   0  0  0  0  0  0  0  0  0  0  0  0
  -16.2920  -31.4294   -4.5043 H   0  0  0  0  0  0  0  0  0  0  0  0
  -15.4816  -31.0018   -3.1526 H   0  0  0  0  0  0  0  0  0  0  0  0
  -13.5185  -34.7015   -6.2076 H   0  0  0  0  0  0  0  0  0  0  0  0
  -12.8456  -34.1992   -4.8071 H   0  0  0  0  0  0  0  0  0  0  0  0
  -15.6987  -28.6060   -2.2812 H   0  0  0  0  0  0  0  0  0  0  0  0
  -10.4753  -34.5804   -5.3215 H   0  0  0  0  0  0  0  0  0  0  0  0
  -12.5100  -30.8231   -6.7638 H   0  0  0  0  0  0  0  0  0  0  0  0
  -13.5338  -29.2913   -3.3228 H   0  0  0  0  0  0  0  0  0  0  0  0
  -11.0433  -32.4438   -4.8827 H   0  0  0  0  0  0  0  0  0  0  0  0
  -13.2500  -31.6923   -4.0841 H   0  0  0  0  0  0  0  0  0  0  0  0
  1 14  1  0  0  0  0
  2 15  1  0  0  0  0
  3 20  1  0  0  0  0
  4 21  1  0  0  0  0
  5  9  1  0  0  0  0
  5 15  1  0  0  0  0
  6  7  1  0  0  0  0
  6 16  1  0  0  0  0
  7 17  1  0  0  0  0
  8 12  1  0  0  0  0
  8 14  1  0  0  0  0
  9 18  1  0  0  0  0
 10 13  1  0  0  0  0
 10 19  1  0  0  0  0
 11 14  1  0  0  0  0
 11 17  1  0  0  0  0
 12 21  1  0  0  0  0
 13 20  1  0  0  0  0
 15 20  1  0  0  0  0
 16 18  1  0  0  0  0
 16 19  1  0  0  0  0
 17 21  1  0  0  0  0
 18 20  1  0  0  0  0
 19 21  1  0  0  0  0
  1 22  1  0  0  0  0
  2 23  1  0  0  0  0
  3 24  1  0  0  0  0
  3 25  1  0  0  0  0
  3 26  1  0  0  0  0
  4 27  1  0  0  0  0
  4 28  1  0  0  0  0
  4 29  1  0  0  0  0
  5 30  1  0  0  0  0
  5 31  1  0  0  0  0
  6 32  1  0  0  0  0
  6 33  1  0  0  0  0
  7 34  1  0  0  0  0
  7 35  1  0  0  0  0
  8 36  1  0  0  0  0
  8 37  1  0  0  0  0
  9 38  1  0  0  0  0
  9 39  1  0  0  0  0
 10 40  1  0  0  0  0
 10 41  1  0  0  0  0
 11 42  1  0  0  0  0
 11 43  1  0  0  0  0
 12 44  1  0  0  0  0
 12 45  1  0  0  0  0
 13 46  1  0  0  0  0
 13 47  1  0  0  0  0
 14 48  1  0  0  0  0
 15 49  1  0  0  0  0
 16 50  1  0  0  0  0
 17 51  1  0  0  0  0
 18 52  1  0  0  0  0
 19 53  1  0  0  0  0
M  END
> <pdb_id>
1LHO

> <uniprot_id>
P04278

> <usmiles>
O[C@@H]1[C@@]2([C@H]([C@H]3[C@@H]([C@@]4([C@H](C[C@@H](O)CC4)CC3)C)CC2)CC1)C

$$$$
AOY_A_901
          07202407493D 1   1.00000     0.00000     0
            
 28 29  0  0  0  0            999 V2000
    8.5616   -8.1346   42.9054 O   0  0  0  0  0  0  0  0  0  0  0  0
    9.1611   -6.5797   44.3108 O   0  0  0  0  0  0  0  0  0  0  0  0
   11.4601   -7.2493   40.1846 N   0  0  0  0  0  0  0  0  0  0  0  0
   10.0966   -5.5324   44.7242 C   0  0  0  0  0  0  0  0  0  0  0  0
   11.5484   -5.7483   44.3488 C   0  0  0  0  0  0  0  0  0  0  0  0
   11.0616   -8.2311   36.1193 C   0  0  0  0  0  0  0  0  0  0  0  0
   10.1118   -8.6615   37.0327 C   0  0  0  0  0  0  0  0  0  0  0  0
   12.1521   -7.4929   36.5553 C   0  0  0  0  0  0  0  0  0  0  0  0
   10.6074   -7.5697   41.1483 C   0  0  0  0  0  0  0  0  0  0  0  0
   10.2344   -8.3374   38.3769 C   0  0  0  0  0  0  0  0  0  0  0  0
   12.2824   -7.1579   37.8982 C   0  0  0  0  0  0  0  0  0  0  0  0
   11.6760   -6.0863   42.8801 C   0  0  0  0  0  0  0  0  0  0  0  0
    9.3887   -7.3030   43.1943 C   0  0  0  0  0  0  0  0  0  0  0  0
   11.3217   -7.5781   38.8151 C   0  0  0  0  0  0  0  0  0  0  0  0
   10.5918   -7.0257   42.4094 C   0  0  0  0  0  0  0  0  0  0  0  0
   12.2725   -6.7295   40.4488 H   0  0  0  0  0  0  0  0  0  0  0  0
   10.0470   -5.4542   45.7199 H   0  0  0  0  0  0  0  0  0  0  0  0
    9.7977   -4.6740   44.3072 H   0  0  0  0  0  0  0  0  0  0  0  0
   11.9196   -6.5010   44.8924 H   0  0  0  0  0  0  0  0  0  0  0  0
   12.0645   -4.9132   44.5395 H   0  0  0  0  0  0  0  0  0  0  0  0
   10.9610   -8.4521   35.1492 H   0  0  0  0  0  0  0  0  0  0  0  0
    9.3343   -9.2083   36.7217 H   0  0  0  0  0  0  0  0  0  0  0  0
   12.8483   -7.2000   35.9000 H   0  0  0  0  0  0  0  0  0  0  0  0
    9.9191   -8.2645   40.9397 H   0  0  0  0  0  0  0  0  0  0  0  0
    9.5446   -8.6474   39.0311 H   0  0  0  0  0  0  0  0  0  0  0  0
   13.0648   -6.6161   38.2054 H   0  0  0  0  0  0  0  0  0  0  0  0
   12.5645   -6.5185   42.7260 H   0  0  0  0  0  0  0  0  0  0  0  0
   11.6204   -5.2403   42.3498 H   0  0  0  0  0  0  0  0  0  0  0  0
  1 13  2  0  0  0  0
  2  4  1  0  0  0  0
  2 13  1  0  0  0  0
  3  9  1  0  0  0  0
  3 14  1  0  0  0  0
  4  5  1  0  0  0  0
  5 12  1  0  0  0  0
  6  7  2  0  0  0  0
  6  8  1  0  0  0  0
  7 10  1  0  0  0  0
  8 11  2  0  0  0  0
  9 15  2  0  0  0  0
 10 14  2  0  0  0  0
 11 14  1  0  0  0  0
 12 15  1  0  0  0  0
 13 15  1  0  0  0  0
  3 16  1  0  0  0  0
  4 17  1  0  0  0  0
  4 18  1  0  0  0  0
  5 19  1  0  0  0  0
  5 20  1  0  0  0  0
  6 21  1  0  0  0  0
  7 22  1  0  0  0  0
  8 23  1  0  0  0  0
  9 24  1  0  0  0  0
 10 25  1  0  0  0  0
 11 26  1  0  0  0  0
 12 27  1  0  0  0  0
 12 28  1  0  0  0  0
M  END
> <pdb_id>
5WI1

> <uniprot_id>
P43490

> <usmiles>
O=C/1OCCC\C1=C/Nc2ccccc2

$$$$
AOZ_A_303
          07202417243D 1   1.00000     0.00000     0
            
 29 29  0  0  0  0            999 V2000
    6.7402   20.8497    1.6501 O   0  0  0  0  0  0  0  0  0  0  0  0
    5.6521   19.0982    0.9138 O   0  0  0  0  0  0  0  0  0  0  0  0
    1.2199   18.3436    3.2532 O   0  0  0  0  0  0  0  0  0  0  0  0
    2.4463   16.8233    4.2410 O   0  0  0  0  0  0  0  0  0  0  0  0
    2.9609   21.3782    6.7574 N   0  0  0  0  0  0  0  0  0  0  0  0
    4.4676   19.8318    6.7941 N   0  0  0  0  0  0  0  0  0  0  0  0
    3.2766   19.7597    2.2813 N   0  0  0  0  0  0  0  0  0  0  0  0
    3.7424   21.7339    0.9019 C   0  0  0  0  0  0  0  0  0  0  0  0
    3.8291   20.7381    7.5229 C   0  0  0  0  0  0  0  0  0  0  0  0
    3.0250   20.8582    5.5181 C   0  0  0  0  0  0  0  0  0  0  0  0
    4.5036   18.9859    4.4098 C   0  0  0  0  0  0  0  0  0  0  0  0
    5.6491   20.2149    1.4658 C   0  0  0  0  0  0  0  0  0  0  0  0
    2.3510   17.9147    3.6045 C   0  0  0  0  0  0  0  0  0  0  0  0
    4.0092   19.8664    5.5305 C   0  0  0  0  0  0  0  0  0  0  0  0
    4.2941   20.7770    1.9375 C   0  0  2  0  0  0  0  0  0  0  0  0
    3.5903   18.6949    3.2173 C   0  0  1  0  0  0  0  0  0  0  0  0
    6.7285   21.7457    2.0941 H   0  0  0  0  0  0  0  0  0  0  0  0
    1.1457   19.2051    2.7509 H   0  0  0  0  0  0  0  0  0  0  0  0
    2.3596   22.1218    7.0498 H   0  0  0  0  0  0  0  0  0  0  0  0
    3.0100   19.3191    1.4241 H   0  0  0  0  0  0  0  0  0  0  0  0
    4.4366   22.4173    0.6760 H   0  0  0  0  0  0  0  0  0  0  0  0
    3.4942   21.2257    0.0772 H   0  0  0  0  0  0  0  0  0  0  0  0
    2.9318   22.1908    1.2684 H   0  0  0  0  0  0  0  0  0  0  0  0
    3.9801   20.9099    8.4964 H   0  0  0  0  0  0  0  0  0  0  0  0
    2.4701   21.1314    4.7323 H   0  0  0  0  0  0  0  0  0  0  0  0
    4.7400   18.1035    4.8166 H   0  0  0  0  0  0  0  0  0  0  0  0
    5.3291   19.4166    4.0449 H   0  0  0  0  0  0  0  0  0  0  0  0
    4.4691   21.3093    2.7658 H   0  0  0  0  0  0  0  0  0  0  0  0
    4.1170   18.0454    2.6689 H   0  0  0  0  0  0  0  0  0  0  0  0
  1 12  1  0  0  0  0
  2 12  2  0  0  0  0
  3 13  1  0  0  0  0
  4 13  2  0  0  0  0
  5  9  1  0  0  0  0
  5 10  1  0  0  0  0
  6  9  2  0  0  0  0
  6 14  1  0  0  0  0
  7 15  1  0  0  0  0
  7 16  1  0  0  0  0
  8 15  1  0  0  0  0
 10 14  2  0  0  0  0
 11 14  1  0  0  0  0
 11 16  1  0  0  0  0
 12 15  1  0  0  0  0
 13 16  1  0  0  0  0
  1 17  1  0  0  0  0
  3 18  1  0  0  0  0
  5 19  1  0  0  0  0
  7 20  1  0  0  0  0
  8 21  1  0  0  0  0
  8 22  1  0  0  0  0
  8 23  1  0  0  0  0
  9 24  1  0  0  0  0
 10 25  1  0  0  0  0
 11 26  1  0  0  0  0
 11 27  1  0  0  0  0
 15 28  1  0  0  0  0
 16 29  1  0  0  0  0
M  END
> <pdb_id>
5OT9

> <uniprot_id>
P35120

> <usmiles>
O=C(O)[C@H](N[C@H](C(=O)O)CC=1N=CNC1)C

$$$$
AP4_A_1650
          07192421173D 1   1.00000     0.00000     0
            
 23 25  0  0  0  0            999 V2000
   -0.8296    2.7291   54.9866 O   0  0  0  0  0  0  0  0  0  0  0  0
    0.4809    3.4391   57.5866 O   0  0  0  0  0  0  0  0  0  0  0  0
    0.5282    1.7874   53.3856 O   0  0  0  0  0  0  0  0  0  0  0  0
    1.9804    7.7851   57.8751 N   0  0  0  0  0  0  0  0  0  0  0  0
    3.0338    5.2444   54.0011 N   0  0  0  0  0  0  0  0  0  0  0  0
    1.2395    5.6330   57.7306 N   0  0  0  0  0  0  0  0  0  0  0  0
    2.4996    6.5468   55.9721 N   0  0  0  0  0  0  0  0  0  0  0  0
    1.6768    3.0429   55.0577 N   0  0  0  0  0  0  0  0  0  0  0  0
    1.9044    1.7369   53.0899 C   0  0  0  0  0  0  0  0  0  0  0  0
    2.9750    4.0465   53.2533 C   0  0  0  0  0  0  0  0  0  0  0  0
    0.3187    2.5804   54.5548 C   0  0  0  0  0  0  0  0  0  0  0  0
    1.1124    4.3826   57.0676 C   0  0  0  0  0  0  0  0  0  0  0  0
    1.9198    6.6767   57.1848 C   0  0  0  0  0  0  0  0  0  0  0  0
    2.4191    5.3356   55.2641 C   0  0  0  0  0  0  0  0  0  0  0  0
    2.6410    2.8391   53.8914 C   0  0  1  0  0  0  0  0  0  0  0  0
    1.7211    4.2390   55.7925 C   0  0  0  0  0  0  0  0  0  0  0  0
    2.4710    8.5759   57.5091 H   0  0  0  0  0  0  0  0  0  0  0  0
    1.5361    7.8423   58.7691 H   0  0  0  0  0  0  0  0  0  0  0  0
    0.8147    5.7495   58.6283 H   0  0  0  0  0  0  0  0  0  0  0  0
    2.0415    1.8876   52.1109 H   0  0  0  0  0  0  0  0  0  0  0  0
    2.2678    0.8403   53.3432 H   0  0  0  0  0  0  0  0  0  0  0  0
    3.1705    4.0577   52.2727 H   0  0  0  0  0  0  0  0  0  0  0  0
    3.4832    2.4419   54.2559 H   0  0  0  0  0  0  0  0  0  0  0  0
  1 11  2  0  0  0  0
  2 12  2  0  0  0  0
  3  9  1  0  0  0  0
  3 11  1  0  0  0  0
  4 13  1  0  0  0  0
  5 10  2  0  0  0  0
  5 14  1  0  0  0  0
  6 12  1  0  0  0  0
  6 13  1  0  0  0  0
  7 13  2  0  0  0  0
  7 14  1  0  0  0  0
  8 11  1  0  0  0  0
  8 15  1  0  0  0  0
  8 16  1  0  0  0  0
  9 15  1  0  0  0  0
 10 15  1  0  0  0  0
 12 16  1  0  0  0  0
 14 16  2  0  0  0  0
  4 17  1  0  0  0  0
  4 18  1  0  0  0  0
  6 19  1  0  0  0  0
  9 20  1  0  0  0  0
  9 21  1  0  0  0  0
 10 22  1  0  0  0  0
 15 23  1  0  0  0  0
M  END
> <pdb_id>
1DMJ

> <uniprot_id>
P29473

> <usmiles>
O=C1OC[C@@H]2N1C=3C(=O)NC(=NC3N=C2)N

$$$$
AP4_B_2650
          07192421173D 1   1.00000     0.00000     0
            
 25 27  0  0  0  0            999 V2000
   -0.6282    2.5801   54.7221 O   0  0  0  0  0  0  0  0  0  0  0  0
    0.6371    3.2749   57.4019 O   0  0  0  0  0  0  0  0  0  0  0  0
    0.7937    1.6195   53.1868 O   0  0  0  0  0  0  0  0  0  0  0  0
    1.9612    7.6740   57.6479 N   0  0  0  0  0  0  0  0  0  0  0  0
    3.1590    5.1326   53.8354 N   0  0  0  0  0  0  0  0  0  0  0  0
    1.3009    5.4900   57.5393 N   0  0  0  0  0  0  0  0  0  0  0  0
    2.5546    6.4359   55.7770 N   0  0  0  0  0  0  0  0  0  0  0  0
    1.8750    2.8911   54.8912 N   0  0  0  0  0  0  0  0  0  0  0  0
    2.1796    1.5738   52.9567 C   0  0  0  0  0  0  0  0  0  0  0  0
    3.1623    3.9184   53.1055 C   0  0  0  0  0  0  0  0  0  0  0  0
    0.5356    2.4201   54.3425 C   0  0  0  0  0  0  0  0  0  0  0  0
    1.2339    4.2320   56.8857 C   0  0  0  0  0  0  0  0  0  0  0  0
    1.9468    6.5597   56.9776 C   0  0  0  0  0  0  0  0  0  0  0  0
    2.5239    5.2152   55.0822 C   0  0  0  0  0  0  0  0  0  0  0  0
    2.8679    2.7050   53.7547 C   0  0  1  0  0  0  0  0  0  0  0  0
    1.8679    4.0973   55.6181 C   0  0  0  0  0  0  0  0  0  0  0  0
    2.4224    8.4777   57.2719 H   0  0  0  0  0  0  0  0  0  0  0  0
    1.5112    7.7271   58.5393 H   0  0  0  0  0  0  0  0  0  0  0  0
    3.6143    5.9387   53.4573 H   0  0  0  0  0  0  0  0  0  0  0  0
    0.8654    5.5984   58.4330 H   0  0  0  0  0  0  0  0  0  0  0  0
    2.3603    1.6959   51.9808 H   0  0  0  0  0  0  0  0  0  0  0  0
    2.5386    0.6891   53.2540 H   0  0  0  0  0  0  0  0  0  0  0  0
    4.0765    3.8207   52.7122 H   0  0  0  0  0  0  0  0  0  0  0  0
    2.4924    4.0220   52.3703 H   0  0  0  0  0  0  0  0  0  0  0  0
    3.7172    2.3431   54.1390 H   0  0  0  0  0  0  0  0  0  0  0  0
  1 11  2  0  0  0  0
  2 12  2  0  0  0  0
  3  9  1  0  0  0  0
  3 11  1  0  0  0  0
  4 13  1  0  0  0  0
  5 10  1  0  0  0  0
  5 14  1  0  0  0  0
  6 12  1  0  0  0  0
  6 13  1  0  0  0  0
  7 13  2  0  0  0  0
  7 14  1  0  0  0  0
  8 11  1  0  0  0  0
  8 15  1  0  0  0  0
  8 16  1  0  0  0  0
  9 15  1  0  0  0  0
 10 15  1  0  0  0  0
 12 16  1  0  0  0  0
 14 16  2  0  0  0  0
  4 17  1  0  0  0  0
  4 18  1  0  0  0  0
  5 19  1  0  0  0  0
  6 20  1  0  0  0  0
  9 21  1  0  0  0  0
  9 22  1  0  0  0  0
 10 23  1  0  0  0  0
 10 24  1  0  0  0  0
 15 25  1  0  0  0  0
M  END
> <pdb_id>
1DMJ

> <uniprot_id>
P29473

> <usmiles>
O=C1OC[C@@H]2N1C=3C(=O)NC(=NC3NC2)N

$$$$
AP6_B_2660
          07192421173D 1   1.00000     0.00000     0
            
 32 34  0  0  0  0            999 V2000
    2.0570    8.0580   58.2620 N   0  0  0  0  0  0  0  0  0  0  0  0
    0.3710    3.4790   57.5950 N   0  0  0  0  0  0  0  0  0  0  0  0
    3.3370    5.6940   54.2750 N   0  0  0  0  0  0  0  0  0  0  0  0
    1.2680    5.8340   57.8790 N   0  0  0  0  0  0  0  0  0  0  0  0
    2.7140    6.8610   56.2150 N   0  0  0  0  0  0  0  0  0  0  0  0
    1.8140    3.4240   55.1520 N   0  0  0  0  0  0  0  0  0  0  0  0
    3.4570    4.3990   53.5690 C   0  0  0  0  0  0  0  0  0  0  0  0
    2.2850   -0.2590   51.6880 C   0  0  0  0  0  0  0  0  0  0  0  0
    3.4240    0.5750   51.5710 C   0  0  0  0  0  0  0  0  0  0  0  0
    1.1520    0.1300   52.4570 C   0  0  0  0  0  0  0  0  0  0  0  0
    3.4600    1.8170   52.2140 C   0  0  0  0  0  0  0  0  0  0  0  0
    1.1260    1.3810   53.1320 C   0  0  0  0  0  0  0  0  0  0  0  0
    1.9980    6.9610   57.5130 C   0  0  0  0  0  0  0  0  0  0  0  0
    1.1660    4.6260   57.1350 C   0  0  0  0  0  0  0  0  0  0  0  0
    2.6670    5.7240   55.4420 C   0  0  0  0  0  0  0  0  0  0  0  0
    2.1430    3.6030   53.7790 C   0  0  1  0  0  0  0  0  0  0  0  0
    1.8920    4.6200   55.8990 C   0  0  0  0  0  0  0  0  0  0  0  0
    2.2120    2.2590   53.0600 C   0  0  0  0  0  0  0  0  0  0  0  0
    2.5954    8.8435   57.9567 H   0  0  0  0  0  0  0  0  0  0  0  0
    1.5630    8.0976   59.1306 H   0  0  0  0  0  0  0  0  0  0  0  0
    0.3258    2.6476   57.0411 H   0  0  0  0  0  0  0  0  0  0  0  0
   -0.1249    3.5298   58.4619 H   0  0  0  0  0  0  0  0  0  0  0  0
    3.7431    6.5251   53.8950 H   0  0  0  0  0  0  0  0  0  0  0  0
    1.5545    2.5427   55.5469 H   0  0  0  0  0  0  0  0  0  0  0  0
    4.2281    3.8820   53.9407 H   0  0  0  0  0  0  0  0  0  0  0  0
    3.6025    4.5589   52.5927 H   0  0  0  0  0  0  0  0  0  0  0  0
    2.2766   -1.1422   51.2191 H   0  0  0  0  0  0  0  0  0  0  0  0
    4.2066    0.2744   51.0258 H   0  0  0  0  0  0  0  0  0  0  0  0
    0.3653   -0.4837   52.5232 H   0  0  0  0  0  0  0  0  0  0  0  0
    4.2616    2.4098   52.1369 H   0  0  0  0  0  0  0  0  0  0  0  0
    0.3199    1.6366   53.6657 H   0  0  0  0  0  0  0  0  0  0  0  0
    1.4034    4.1295   53.3598 H   0  0  0  0  0  0  0  0  0  0  0  0
  1 13  1  0  0  0  0
  2 14  1  0  0  0  0
  3  7  1  0  0  0  0
  3 15  1  0  0  0  0
  4 13  2  0  0  0  0
  4 14  1  0  0  0  0
  5 13  1  0  0  0  0
  5 15  2  0  0  0  0
  6 16  1  0  0  0  0
  6 17  1  0  0  0  0
  7 16  1  0  0  0  0
  8  9  2  0  0  0  0
  8 10  1  0  0  0  0
  9 11  1  0  0  0  0
 10 12  2  0  0  0  0
 11 18  2  0  0  0  0
 12 18  1  0  0  0  0
 14 17  2  0  0  0  0
 15 17  1  0  0  0  0
 16 18  1  0  0  0  0
  1 19  1  0  0  0  0
  1 20  1  0  0  0  0
  2 21  1  0  0  0  0
  2 22  1  0  0  0  0
  3 23  1  0  0  0  0
  6 24  1  0  0  0  0
  7 25  1  0  0  0  0
  7 26  1  0  0  0  0
  8 27  1  0  0  0  0
  9 28  1  0  0  0  0
 10 29  1  0  0  0  0
 11 30  1  0  0  0  0
 12 31  1  0  0  0  0
 16 32  1  0  0  0  0
M  END
> <pdb_id>
1DMK

> <uniprot_id>
P29473

> <usmiles>
n1c(nc(N)c2N[C@H](c3ccccc3)CNc12)N

$$$$
APC_A_302
          07192420423D 1   1.00000     0.00000     0
            
 49 51  0  0  0  0            999 V2000
   71.9513   42.5010   29.4804 P   0  0  0  0  0  0  0  0  0  0  0  0
   72.0346   39.8988   27.9701 P   0  0  0  0  0  0  0  0  0  0  0  0
   72.5438   36.9763   28.5884 P   0  0  0  0  0  0  0  0  0  0  0  0
   73.1849   43.3181   29.8450 O   0  0  0  0  0  0  0  0  0  0  0  0
   71.0602   43.2515   28.4947 O   0  0  0  0  0  0  0  0  0  0  0  0
   71.2014   41.9557   30.6844 O   0  0  0  0  0  0  0  0  0  0  0  0
   70.6553   39.4983   28.4359 O   0  0  0  0  0  0  0  0  0  0  0  0
   72.1567   40.1258   26.4758 O   0  0  0  0  0  0  0  0  0  0  0  0
   71.3733   36.9957   29.5231 O   0  0  0  0  0  0  0  0  0  0  0  0
   73.6657   36.0331   28.9886 O   0  0  0  0  0  0  0  0  0  0  0  0
   70.9548   37.5133   22.1476 O   0  0  0  0  0  0  0  0  0  0  0  0
   71.5450   38.9705   24.3704 O   0  0  0  0  0  0  0  0  0  0  0  0
   72.5540   41.1995   28.7223 O   0  0  0  0  0  0  0  0  0  0  0  0
   72.0827   36.6092   27.0960 O   0  0  0  0  0  0  0  0  0  0  0  0
   71.6285   35.3776   24.3382 O   0  0  0  0  0  0  0  0  0  0  0  0
   65.0232   33.4327   25.1362 N   0  0  0  0  0  0  0  0  0  0  0  0
   65.4345   34.4565   23.0798 N   0  0  0  0  0  0  0  0  0  0  0  0
   67.5938   35.2923   22.4212 N   0  0  0  0  0  0  0  0  0  0  0  0
   68.0477   33.8516   25.6734 N   0  0  0  0  0  0  0  0  0  0  0  0
   69.3077   34.9037   24.1372 N   0  0  0  0  0  0  0  0  0  0  0  0
   73.2438   38.6504   28.4968 C   0  0  0  0  0  0  0  0  0  0  0  0
   72.9877   36.6079   25.9621 C   0  0  0  0  0  0  0  0  0  0  0  0
   66.2912   35.0646   22.2517 C   0  0  0  0  0  0  0  0  0  0  0  0
   69.2434   34.3067   25.3797 C   0  0  0  0  0  0  0  0  0  0  0  0
   70.3188   37.0742   23.3375 C   0  0  2  0  0  0  0  0  0  0  0  0
   71.0473   37.6449   24.5598 C   0  0  1  0  0  0  0  0  0  0  0  0
   70.4773   35.5595   23.5289 C   0  0  1  0  0  0  0  0  0  0  0  0
   65.8933   33.9892   24.2776 C   0  0  0  0  0  0  0  0  0  0  0  0
   72.2195   36.6644   24.6560 C   0  0  2  0  0  0  0  0  0  0  0  0
   68.0267   34.8350   23.6155 C   0  0  0  0  0  0  0  0  0  0  0  0
   67.2594   34.1891   24.5719 C   0  0  0  0  0  0  0  0  0  0  0  0
   73.7479   42.8018   30.4904 H   0  0  0  0  0  0  0  0  0  0  0  0
   70.2612   42.6918   28.2749 H   0  0  0  0  0  0  0  0  0  0  0  0
   70.6627   39.3694   29.4275 H   0  0  0  0  0  0  0  0  0  0  0  0
   70.6870   37.6394   29.1846 H   0  0  0  0  0  0  0  0  0  0  0  0
   70.4748   37.1376   21.3549 H   0  0  0  0  0  0  0  0  0  0  0  0
   72.0056   39.2759   25.2038 H   0  0  0  0  0  0  0  0  0  0  0  0
   65.3432   33.0855   26.0177 H   0  0  0  0  0  0  0  0  0  0  0  0
   64.0553   33.3655   24.8939 H   0  0  0  0  0  0  0  0  0  0  0  0
   73.5875   38.9018   29.4016 H   0  0  0  0  0  0  0  0  0  0  0  0
   74.0002   38.6439   27.8428 H   0  0  0  0  0  0  0  0  0  0  0  0
   73.5373   35.7727   25.9828 H   0  0  0  0  0  0  0  0  0  0  0  0
   73.5894   37.4044   26.0227 H   0  0  0  0  0  0  0  0  0  0  0  0
   65.9027   35.3922   21.3905 H   0  0  0  0  0  0  0  0  0  0  0  0
   70.0284   34.2286   25.9943 H   0  0  0  0  0  0  0  0  0  0  0  0
   69.3535   37.3354   23.3433 H   0  0  0  0  0  0  0  0  0  0  0  0
   70.4708   37.5932   25.3753 H   0  0  0  0  0  0  0  0  0  0  0  0
   70.6471   35.1423   22.6361 H   0  0  0  0  0  0  0  0  0  0  0  0
   72.8681   36.8909   23.9293 H   0  0  0  0  0  0  0  0  0  0  0  0
  1  4  1  0  0  0  0
  1  5  1  0  0  0  0
  1  6  2  0  0  0  0
  1 13  1  0  0  0  0
  2  7  1  0  0  0  0
  2  8  2  0  0  0  0
  2 13  1  0  0  0  0
  2 21  1  0  0  0  0
  3  9  1  0  0  0  0
  3 10  2  0  0  0  0
  3 14  1  0  0  0  0
  3 21  1  0  0  0  0
 11 25  1  0  0  0  0
 12 26  1  0  0  0  0
 14 22  1  0  0  0  0
 15 27  1  0  0  0  0
 15 29  1  0  0  0  0
 16 28  1  0  0  0  0
 17 23  1  0  0  0  0
 17 28  2  0  0  0  0
 18 23  2  0  0  0  0
 18 30  1  0  0  0  0
 19 24  2  0  0  0  0
 19 31  1  0  0  0  0
 20 24  1  0  0  0  0
 20 27  1  0  0  0  0
 20 30  1  0  0  0  0
 22 29  1  0  0  0  0
 25 26  1  0  0  0  0
 25 27  1  0  0  0  0
 26 29  1  0  0  0  0
 28 31  1  0  0  0  0
 30 31  2  0  0  0  0
  4 32  1  0  0  0  0
  5 33  1  0  0  0  0
  7 34  1  0  0  0  0
  9 35  1  0  0  0  0
 11 36  1  0  0  0  0
 12 37  1  0  0  0  0
 16 38  1  0  0  0  0
 16 39  1  0  0  0  0
 21 40  1  0  0  0  0
 21 41  1  0  0  0  0
 22 42  1  0  0  0  0
 22 43  1  0  0  0  0
 23 44  1  0  0  0  0
 24 45  1  0  0  0  0
 25 46  1  0  0  0  0
 26 47  1  0  0  0  0
 27 48  1  0  0  0  0
 29 49  1  0  0  0  0
M  END
> <pdb_id>
6GQR

> <uniprot_id>
P07900

> <usmiles>
P(=O)(OP(=O)(O)CP(=O)(OC[C@H]1O[C@@H](N2c3ncnc(N)c3N=C2)[C@H](O)[C@@H]1O)O)(O)O

$$$$
APC_A_401
          07202414123D 1   1.00000     0.00000     0
            
 49 51  0  0  0  0            999 V2000
   18.0810   55.6620   -5.0470 P   0  0  0  0  0  0  0  0  0  0  0  0
   15.9820   56.5940   -6.9430 P   0  0  0  0  0  0  0  0  0  0  0  0
   15.0060   53.7590   -6.1410 P   0  0  0  0  0  0  0  0  0  0  0  0
   17.6760   54.9000   -3.8560 O   0  0  0  0  0  0  0  0  0  0  0  0
   18.4150   54.7760   -6.2200 O   0  0  0  0  0  0  0  0  0  0  0  0
   19.1280   56.6740   -4.7860 O   0  0  0  0  0  0  0  0  0  0  0  0
   15.4070   57.9660   -7.1400 O   0  0  0  0  0  0  0  0  0  0  0  0
   16.7590   56.0920   -8.1160 O   0  0  0  0  0  0  0  0  0  0  0  0
   15.1520   53.7450   -4.6410 O   0  0  0  0  0  0  0  0  0  0  0  0
   16.1270   53.2360   -6.9770 O   0  0  0  0  0  0  0  0  0  0  0  0
   10.8490   49.5800   -8.3720 O   0  0  0  0  0  0  0  0  0  0  0  0
   12.9030   51.2250   -9.6250 O   0  0  0  0  0  0  0  0  0  0  0  0
   16.8170   56.5110   -5.5960 O   0  0  0  0  0  0  0  0  0  0  0  0
   13.6570   52.9500   -6.4840 O   0  0  0  0  0  0  0  0  0  0  0  0
   10.3510   52.6070   -7.4740 O   0  0  0  0  0  0  0  0  0  0  0  0
    4.2930   53.4410  -10.3540 N   0  0  0  0  0  0  0  0  0  0  0  0
    4.5510   52.8140   -8.1250 N   0  0  0  0  0  0  0  0  0  0  0  0
    6.6910   52.1640   -7.2070 N   0  0  0  0  0  0  0  0  0  0  0  0
    7.3030   52.9360  -10.6290 N   0  0  0  0  0  0  0  0  0  0  0  0
    8.4780   52.2420   -8.8680 N   0  0  0  0  0  0  0  0  0  0  0  0
   14.6020   55.4730   -6.6690 C   0  0  0  0  0  0  0  0  0  0  0  0
   12.6510   53.4080   -7.3950 C   0  0  0  0  0  0  0  0  0  0  0  0
    5.3680   52.4270   -7.1480 C   0  0  0  0  0  0  0  0  0  0  0  0
    8.4720   52.5420  -10.2060 C   0  0  0  0  0  0  0  0  0  0  0  0
   10.5080   50.7980   -9.0090 C   0  0  2  0  0  0  0  0  0  0  0  0
   11.6750   51.7820   -9.1680 C   0  0  1  0  0  0  0  0  0  0  0  0
    9.5720   51.6350   -8.1210 C   0  0  1  0  0  0  0  0  0  0  0  0
    5.0850   53.0630   -9.3480 C   0  0  0  0  0  0  0  0  0  0  0  0
   11.7340   52.2580   -7.7140 C   0  0  2  0  0  0  0  0  0  0  0  0
    7.1810   52.3920   -8.4320 C   0  0  0  0  0  0  0  0  0  0  0  0
    6.4690   52.8230   -9.5240 C   0  0  0  0  0  0  0  0  0  0  0  0
   17.4665   55.5329   -3.1107 H   0  0  0  0  0  0  0  0  0  0  0  0
   18.6828   55.3420   -6.9997 H   0  0  0  0  0  0  0  0  0  0  0  0
   14.9026   58.2369   -6.3201 H   0  0  0  0  0  0  0  0  0  0  0  0
   14.3266   54.1235   -4.2222 H   0  0  0  0  0  0  0  0  0  0  0  0
   10.0378   48.9987   -8.3081 H   0  0  0  0  0  0  0  0  0  0  0  0
   13.5916   51.9469   -9.6931 H   0  0  0  0  0  0  0  0  0  0  0  0
    4.6837   53.6251  -11.2559 H   0  0  0  0  0  0  0  0  0  0  0  0
    3.3090   53.5401  -10.2056 H   0  0  0  0  0  0  0  0  0  0  0  0
   14.0896   55.4113   -7.5255 H   0  0  0  0  0  0  0  0  0  0  0  0
   14.0218   55.8770   -5.9618 H   0  0  0  0  0  0  0  0  0  0  0  0
   13.0819   53.7384   -8.2347 H   0  0  0  0  0  0  0  0  0  0  0  0
   12.1280   54.1495   -6.9747 H   0  0  0  0  0  0  0  0  0  0  0  0
    4.9447   52.3161   -6.2488 H   0  0  0  0  0  0  0  0  0  0  0  0
    9.2773   52.4668  -10.7941 H   0  0  0  0  0  0  0  0  0  0  0  0
   10.0799   50.6196   -9.8950 H   0  0  0  0  0  0  0  0  0  0  0  0
   11.4029   52.5387   -9.7625 H   0  0  0  0  0  0  0  0  0  0  0  0
    9.1800   51.0335   -7.4249 H   0  0  0  0  0  0  0  0  0  0  0  0
   11.9759   51.4823   -7.1311 H   0  0  0  0  0  0  0  0  0  0  0  0
  1  4  1  0  0  0  0
  1  5  1  0  0  0  0
  1  6  2  0  0  0  0
  1 13  1  0  0  0  0
  2  7  1  0  0  0  0
  2  8  2  0  0  0  0
  2 13  1  0  0  0  0
  2 21  1  0  0  0  0
  3  9  1  0  0  0  0
  3 10  2  0  0  0  0
  3 14  1  0  0  0  0
  3 21  1  0  0  0  0
 11 25  1  0  0  0  0
 12 26  1  0  0  0  0
 14 22  1  0  0  0  0
 15 27  1  0  0  0  0
 15 29  1  0  0  0  0
 16 28  1  0  0  0  0
 17 23  1  0  0  0  0
 17 28  2  0  0  0  0
 18 23  2  0  0  0  0
 18 30  1  0  0  0  0
 19 24  2  0  0  0  0
 19 31  1  0  0  0  0
 20 24  1  0  0  0  0
 20 27  1  0  0  0  0
 20 30  1  0  0  0  0
 22 29  1  0  0  0  0
 25 26  1  0  0  0  0
 25 27  1  0  0  0  0
 26 29  1  0  0  0  0
 28 31  1  0  0  0  0
 30 31  2  0  0  0  0
  4 32  1  0  0  0  0
  5 33  1  0  0  0  0
  7 34  1  0  0  0  0
  9 35  1  0  0  0  0
 11 36  1  0  0  0  0
 12 37  1  0  0  0  0
 16 38  1  0  0  0  0
 16 39  1  0  0  0  0
 21 40  1  0  0  0  0
 21 41  1  0  0  0  0
 22 42  1  0  0  0  0
 22 43  1  0  0  0  0
 23 44  1  0  0  0  0
 24 45  1  0  0  0  0
 25 46  1  0  0  0  0
 26 47  1  0  0  0  0
 27 48  1  0  0  0  0
 29 49  1  0  0  0  0
M  END
> <pdb_id>
6VD0

> <uniprot_id>
P17562

> <usmiles>
P(=O)(OP(=O)(O)CP(=O)(OC[C@H]1O[C@@H](N2c3ncnc(N)c3N=C2)[C@H](O)[C@@H]1O)O)(O)O

$$$$
APC_B_802
          07202402463D 1   1.00000     0.00000     0
            
 49 51  0  0  0  0            999 V2000
   21.3190    8.3510   78.1170 P   0  0  0  0  0  0  0  0  0  0  0  0
   19.1920   10.3360   78.1540 P   0  0  0  0  0  0  0  0  0  0  0  0
   19.1680   11.2760   75.4800 P   0  0  0  0  0  0  0  0  0  0  0  0
   22.3750    9.4170   77.7940 O   0  0  0  0  0  0  0  0  0  0  0  0
   21.4640    7.1130   77.2050 O   0  0  0  0  0  0  0  0  0  0  0  0
   21.3730    7.9100   79.6560 O   0  0  0  0  0  0  0  0  0  0  0  0
   18.3300   10.0950   79.3340 O   0  0  0  0  0  0  0  0  0  0  0  0
   20.2350   11.4300   78.4580 O   0  0  0  0  0  0  0  0  0  0  0  0
   18.6150   10.7010   74.2560 O   0  0  0  0  0  0  0  0  0  0  0  0
   20.6070   11.0790   75.5630 O   0  0  0  0  0  0  0  0  0  0  0  0
   19.4940   16.7350   77.7230 O   0  0  0  0  0  0  0  0  0  0  0  0
   18.0350   17.2420   75.4170 O   0  0  0  0  0  0  0  0  0  0  0  0
   19.8700    8.9510   77.8060 O   0  0  0  0  0  0  0  0  0  0  0  0
   18.9370   12.9260   75.3490 O   0  0  0  0  0  0  0  0  0  0  0  0
   16.7030   14.5870   76.7170 O   0  0  0  0  0  0  0  0  0  0  0  0
   16.8860   14.2180   83.5350 N   0  0  0  0  0  0  0  0  0  0  0  0
   16.0280   16.1910   82.5650 N   0  0  0  0  0  0  0  0  0  0  0  0
   16.1810   16.7230   80.2300 N   0  0  0  0  0  0  0  0  0  0  0  0
   17.7550   13.5120   80.7080 N   0  0  0  0  0  0  0  0  0  0  0  0
   17.3380   14.9440   78.9940 N   0  0  0  0  0  0  0  0  0  0  0  0
   18.3740   10.7560   76.8130 C   0  0  0  0  0  0  0  0  0  0  0  0
   17.7110   13.4790   74.7820 C   0  0  0  0  0  0  0  0  0  0  0  0
   15.8140   16.9830   81.4870 C   0  0  0  0  0  0  0  0  0  0  0  0
   17.8610   13.7660   79.4360 C   0  0  0  0  0  0  0  0  0  0  0  0
   18.7330   15.6640   77.1520 C   0  0  2  0  0  0  0  0  0  0  0  0
   18.4860   15.8550   75.6980 C   0  0  1  0  0  0  0  0  0  0  0  0
   17.3100   15.5090   77.6610 C   0  0  1  0  0  0  0  0  0  0  0  0
   16.6760   14.9840   82.4410 C   0  0  0  0  0  0  0  0  0  0  0  0
   17.2920   14.8340   75.4070 C   0  0  2  0  0  0  0  0  0  0  0  0
   16.8290   15.5060   80.1260 C   0  0  0  0  0  0  0  0  0  0  0  0
   17.1040   14.6040   81.1660 C   0  0  0  0  0  0  0  0  0  0  0  0
   22.2525   10.2022   78.4010 H   0  0  0  0  0  0  0  0  0  0  0  0
   20.7627    6.4406   77.4418 H   0  0  0  0  0  0  0  0  0  0  0  0
   17.6610    9.3837   79.1184 H   0  0  0  0  0  0  0  0  0  0  0  0
   17.6271   10.8544   74.2324 H   0  0  0  0  0  0  0  0  0  0  0  0
   19.6335   16.5619   78.6980 H   0  0  0  0  0  0  0  0  0  0  0  0
   17.8751   17.3481   74.4356 H   0  0  0  0  0  0  0  0  0  0  0  0
   17.3568   13.3401   83.4478 H   0  0  0  0  0  0  0  0  0  0  0  0
   16.5705   14.5293   84.4314 H   0  0  0  0  0  0  0  0  0  0  0  0
   17.7487   11.4901   77.0778 H   0  0  0  0  0  0  0  0  0  0  0  0
   17.8468    9.9526   76.5364 H   0  0  0  0  0  0  0  0  0  0  0  0
   16.9714   12.8219   74.9275 H   0  0  0  0  0  0  0  0  0  0  0  0
   17.8494   13.6132   73.8008 H   0  0  0  0  0  0  0  0  0  0  0  0
   15.3348   17.8458   81.6484 H   0  0  0  0  0  0  0  0  0  0  0  0
   18.3065   13.1251   78.8108 H   0  0  0  0  0  0  0  0  0  0  0  0
   19.2247   14.8042   77.2897 H   0  0  0  0  0  0  0  0  0  0  0  0
   19.2972   15.6238   75.1609 H   0  0  0  0  0  0  0  0  0  0  0  0
   16.8329   16.3878   77.6569 H   0  0  0  0  0  0  0  0  0  0  0  0
   16.6153   15.2753   74.8176 H   0  0  0  0  0  0  0  0  0  0  0  0
  1  4  1  0  0  0  0
  1  5  1  0  0  0  0
  1  6  2  0  0  0  0
  1 13  1  0  0  0  0
  2  7  1  0  0  0  0
  2  8  2  0  0  0  0
  2 13  1  0  0  0  0
  2 21  1  0  0  0  0
  3  9  1  0  0  0  0
  3 10  2  0  0  0  0
  3 14  1  0  0  0  0
  3 21  1  0  0  0  0
 11 25  1  0  0  0  0
 12 26  1  0  0  0  0
 14 22  1  0  0  0  0
 15 27  1  0  0  0  0
 15 29  1  0  0  0  0
 16 28  1  0  0  0  0
 17 23  1  0  0  0  0
 17 28  2  0  0  0  0
 18 23  2  0  0  0  0
 18 30  1  0  0  0  0
 19 24  2  0  0  0  0
 19 31  1  0  0  0  0
 20 24  1  0  0  0  0
 20 27  1  0  0  0  0
 20 30  1  0  0  0  0
 22 29  1  0  0  0  0
 25 26  1  0  0  0  0
 25 27  1  0  0  0  0
 26 29  1  0  0  0  0
 28 31  1  0  0  0  0
 30 31  2  0  0  0  0
  4 32  1  0  0  0  0
  5 33  1  0  0  0  0
  7 34  1  0  0  0  0
  9 35  1  0  0  0  0
 11 36  1  0  0  0  0
 12 37  1  0  0  0  0
 16 38  1  0  0  0  0
 16 39  1  0  0  0  0
 21 40  1  0  0  0  0
 21 41  1  0  0  0  0
 22 42  1  0  0  0  0
 22 43  1  0  0  0  0
 23 44  1  0  0  0  0
 24 45  1  0  0  0  0
 25 46  1  0  0  0  0
 26 47  1  0  0  0  0
 27 48  1  0  0  0  0
 29 49  1  0  0  0  0
M  END
> <pdb_id>
1N2B

> <uniprot_id>
P0A5R0

> <usmiles>
P(=O)(OP(=O)(O)CP(=O)(OC[C@H]1O[C@@H](N2c3ncnc(N)c3N=C2)[C@H](O)[C@@H]1O)O)(O)O

$$$$
APZ_A_400
          07202407253D 1   1.00000     0.00000     0
            
 20 21  0  0  0  0            999 V2000
   98.8444   15.4590   22.9913 O   0  0  0  0  0  0  0  0  0  0  0  0
  103.8003   17.0030   23.8980 O   0  0  0  0  0  0  0  0  0  0  0  0
  103.5244   16.6515   18.8404 N   0  0  0  0  0  0  0  0  0  0  0  0
  100.4687   16.0274   24.4025 N   0  0  0  0  0  0  0  0  0  0  0  0
  101.7811   16.4360   24.6452 N   0  0  0  0  0  0  0  0  0  0  0  0
  101.3451   16.0335   19.6192 C   0  0  0  0  0  0  0  0  0  0  0  0
  100.4599   15.8227   20.6860 C   0  0  0  0  0  0  0  0  0  0  0  0
  103.1040   16.6468   21.1912 C   0  0  0  0  0  0  0  0  0  0  0  0
  100.0088   15.8222   23.1635 C   0  0  0  0  0  0  0  0  0  0  0  0
  102.6516   16.6423   23.6526 C   0  0  0  0  0  0  0  0  0  0  0  0
  102.6687   16.4460   19.8727 C   0  0  0  0  0  0  0  0  0  0  0  0
  100.8965   16.0174   22.0115 C   0  0  0  0  0  0  0  0  0  0  0  0
  102.2210   16.4410   22.2630 C   0  0  0  0  0  0  0  0  0  0  0  0
  104.4636   16.9442   19.0201 H   0  0  0  0  0  0  0  0  0  0  0  0
  103.2161   16.5102   17.8996 H   0  0  0  0  0  0  0  0  0  0  0  0
   99.8540   15.8839   25.1781 H   0  0  0  0  0  0  0  0  0  0  0  0
  102.0786   16.5784   25.5893 H   0  0  0  0  0  0  0  0  0  0  0  0
  101.0372   15.8911   18.6784 H   0  0  0  0  0  0  0  0  0  0  0  0
   99.5194   15.5343   20.5063 H   0  0  0  0  0  0  0  0  0  0  0  0
  104.0446   16.9368   21.3678 H   0  0  0  0  0  0  0  0  0  0  0  0
  1  9  2  0  0  0  0
  2 10  2  0  0  0  0
  3 11  1  0  0  0  0
  4  5  1  0  0  0  0
  4  9  1  0  0  0  0
  5 10  1  0  0  0  0
  6  7  1  0  0  0  0
  6 11  2  0  0  0  0
  7 12  2  0  0  0  0
  8 11  1  0  0  0  0
  8 13  2  0  0  0  0
  9 12  1  0  0  0  0
 10 13  1  0  0  0  0
 12 13  1  0  0  0  0
  3 14  1  0  0  0  0
  3 15  1  0  0  0  0
  4 16  1  0  0  0  0
  5 17  1  0  0  0  0
  6 18  1  0  0  0  0
  7 19  1  0  0  0  0
  8 20  1  0  0  0  0
M  END
> <pdb_id>
1ENU

> <uniprot_id>
P28720

> <usmiles>
O=C1NNC(=O)c2c1cc(N)cc2

$$$$
AQ5_A_504
          07192420493D 1   1.00000     0.00000     0
            
 50 54  0  0  0  0            999 V2000
   15.6530    3.4340   24.8790 N   0  0  0  0  0  0  0  0  0  0  0  0
   15.2950    1.1290   24.6570 N   0  0  0  0  0  0  0  0  0  0  0  0
   14.1310   -2.7630   29.0180 N   0  0  0  0  0  0  0  0  0  0  0  0
   13.5980   -2.1330   26.7490 N   0  0  0  0  0  0  0  0  0  0  0  0
   18.2480    2.8440   31.9040 N   0  0  0  0  0  0  0  0  0  0  0  0
   16.4490    0.7280   29.1910 N   0  0  0  0  0  0  0  0  0  0  0  0
   15.6110    2.3150   24.1560 C   0  0  0  0  0  0  0  0  0  0  0  0
   15.3780    3.3830   26.1800 C   0  0  0  0  0  0  0  0  0  0  0  0
   14.7750   -2.4420   30.1260 C   0  0  0  0  0  0  0  0  0  0  0  0
   17.2650    2.9940   32.9840 C   0  0  0  0  0  0  0  0  0  0  0  0
   13.8740   -1.0840   25.9620 C   0  0  0  0  0  0  0  0  0  0  0  0
   17.5770    0.8030   28.2100 C   0  0  0  0  0  0  0  0  0  0  0  0
   16.4260    4.2240   32.7670 C   0  0  0  0  0  0  0  0  0  0  0  0
   18.1500    2.2090   28.1870 C   0  0  0  0  0  0  0  0  0  0  0  0
   15.6570    4.0510   31.4440 C   0  0  0  0  0  0  0  0  0  0  0  0
   16.6760    1.3950   30.5430 C   0  0  0  0  0  0  0  0  0  0  0  0
   15.0350    2.1510   26.7540 C   0  0  0  0  0  0  0  0  0  0  0  0
   15.5160   -1.2590   30.1640 C   0  0  0  0  0  0  0  0  0  0  0  0
   18.6910    2.6150   29.5640 C   0  0  0  0  0  0  0  0  0  0  0  0
   16.6690    3.9440   30.3270 C   0  0  0  0  0  0  0  0  0  0  0  0
   14.1650   -1.9540   27.9430 C   0  0  0  0  0  0  0  0  0  0  0  0
   15.0620    0.9840   25.9970 C   0  0  0  0  0  0  0  0  0  0  0  0
   15.5800   -0.3750   29.0630 C   0  0  0  0  0  0  0  0  0  0  0  0
   14.6700   -0.2260   26.5890 C   0  0  0  0  0  0  0  0  0  0  0  0
   14.8690   -0.7330   27.9030 C   0  0  0  0  0  0  0  0  0  0  0  0
   17.5530    2.6900   30.5720 C   0  0  2  0  0  0  0  0  0  0  0  0
   13.0516   -2.9270   26.4824 H   0  0  0  0  0  0  0  0  0  0  0  0
   18.8074    2.0337   32.0787 H   0  0  0  0  0  0  0  0  0  0  0  0
   15.8299    2.3733   23.1820 H   0  0  0  0  0  0  0  0  0  0  0  0
   15.4155    4.2109   26.7396 H   0  0  0  0  0  0  0  0  0  0  0  0
   14.7324   -3.0387   30.9274 H   0  0  0  0  0  0  0  0  0  0  0  0
   17.7455    3.0734   33.8574 H   0  0  0  0  0  0  0  0  0  0  0  0
   16.6711    2.1897   33.0022 H   0  0  0  0  0  0  0  0  0  0  0  0
   13.5283   -0.9641   25.0314 H   0  0  0  0  0  0  0  0  0  0  0  0
   17.2398    0.5675   27.2985 H   0  0  0  0  0  0  0  0  0  0  0  0
   18.2926    0.1578   28.4777 H   0  0  0  0  0  0  0  0  0  0  0  0
   17.0145    5.0308   32.7140 H   0  0  0  0  0  0  0  0  0  0  0  0
   15.7802    4.3315   33.5229 H   0  0  0  0  0  0  0  0  0  0  0  0
   17.4304    2.8493   27.9183 H   0  0  0  0  0  0  0  0  0  0  0  0
   18.8949    2.2460   27.5208 H   0  0  0  0  0  0  0  0  0  0  0  0
   15.0640    4.8413   31.2902 H   0  0  0  0  0  0  0  0  0  0  0  0
   15.1021    3.2199   31.4801 H   0  0  0  0  0  0  0  0  0  0  0  0
   17.1153    0.7225   31.1387 H   0  0  0  0  0  0  0  0  0  0  0  0
   15.7784    1.6329   30.9140 H   0  0  0  0  0  0  0  0  0  0  0  0
   14.7683    2.1105   27.7169 H   0  0  0  0  0  0  0  0  0  0  0  0
   16.0180   -1.0297   30.9979 H   0  0  0  0  0  0  0  0  0  0  0  0
   19.1316    3.5101   29.4954 H   0  0  0  0  0  0  0  0  0  0  0  0
   19.3594    1.9370   29.8697 H   0  0  0  0  0  0  0  0  0  0  0  0
   17.2431    4.7627   30.3138 H   0  0  0  0  0  0  0  0  0  0  0  0
   16.1948    3.8552   29.4511 H   0  0  0  0  0  0  0  0  0  0  0  0
  1  7  2  0  0  0  0
  1  8  1  0  0  0  0
  2  7  1  0  0  0  0
  2 22  2  0  0  0  0
  3  9  2  0  0  0  0
  3 21  1  0  0  0  0
  4 11  1  0  0  0  0
  4 21  1  0  0  0  0
  5 10  1  0  0  0  0
  5 26  1  0  0  0  0
  6 12  1  0  0  0  0
  6 16  1  0  0  0  0
  6 23  1  0  0  0  0
  8 17  2  0  0  0  0
  9 18  1  0  0  0  0
 10 13  1  0  0  0  0
 11 24  2  0  0  0  0
 12 14  1  0  0  0  0
 13 15  1  0  0  0  0
 14 19  1  0  0  0  0
 15 20  1  0  0  0  0
 16 26  1  0  0  0  0
 17 22  1  0  0  0  0
 18 23  2  0  0  0  0
 19 26  1  0  0  0  0
 20 26  1  0  0  0  0
 21 25  2  0  0  0  0
 22 24  1  0  0  0  0
 23 25  1  0  0  0  0
 24 25  1  0  0  0  0
  4 27  1  0  0  0  0
  5 28  1  0  0  0  0
  7 29  1  0  0  0  0
  8 30  1  0  0  0  0
  9 31  1  0  0  0  0
 10 32  1  0  0  0  0
 10 33  1  0  0  0  0
 11 34  1  0  0  0  0
 12 35  1  0  0  0  0
 12 36  1  0  0  0  0
 13 37  1  0  0  0  0
 13 38  1  0  0  0  0
 14 39  1  0  0  0  0
 14 40  1  0  0  0  0
 15 41  1  0  0  0  0
 15 42  1  0  0  0  0
 16 43  1  0  0  0  0
 16 44  1  0  0  0  0
 17 45  1  0  0  0  0
 18 46  1  0  0  0  0
 19 47  1  0  0  0  0
 19 48  1  0  0  0  0
 20 49  1  0  0  0  0
 20 50  1  0  0  0  0
M  END
> <pdb_id>
5OTF

> <uniprot_id>
Q9Y5S2

> <usmiles>
n1c2NC=C(c3ncncc3)c2c(N4C[C@@]5(NCCCC5)CCC4)cc1

$$$$
AQK_A_301
          07202417243D 1   1.00000     0.00000     0
            
 27 26  0  0  0  0            999 V2000
    6.4248   20.7277    1.5313 O   0  0  0  0  0  0  0  0  0  0  0  0
    4.5695   21.8174    1.0696 O   0  0  0  0  0  0  0  0  0  0  0  0
    2.3543   16.8424    4.2300 O   0  0  0  0  0  0  0  0  0  0  0  0
    1.1514   18.1531    2.9722 O   0  0  0  0  0  0  0  0  0  0  0  0
    4.1670   20.3754    8.2652 N   0  0  0  0  0  0  0  0  0  0  0  0
    3.1734   19.7123    2.3345 N   0  0  0  0  0  0  0  0  0  0  0  0
    3.7421   20.7579    6.9379 C   0  0  0  0  0  0  0  0  0  0  0  0
    4.0473   19.7724    5.8775 C   0  0  0  0  0  0  0  0  0  0  0  0
    4.3841   19.5438    1.5395 C   0  0  0  0  0  0  0  0  0  0  0  0
    3.1504   19.8606    4.6782 C   0  0  0  0  0  0  0  0  0  0  0  0
    5.1804   20.7514    1.3702 C   0  0  0  0  0  0  0  0  0  0  0  0
    2.2315   17.9257    3.5768 C   0  0  0  0  0  0  0  0  0  0  0  0
    3.3126   18.9127    3.5573 C   0  0  1  0  0  0  0  0  0  0  0  0
    6.8820   19.8707    1.7688 H   0  0  0  0  0  0  0  0  0  0  0  0
    3.2056   16.6454    4.7163 H   0  0  0  0  0  0  0  0  0  0  0  0
    3.9218   21.0956    8.9142 H   0  0  0  0  0  0  0  0  0  0  0  0
    3.7150   19.5227    8.5271 H   0  0  0  0  0  0  0  0  0  0  0  0
    2.3798   19.3984    1.8133 H   0  0  0  0  0  0  0  0  0  0  0  0
    4.1952   21.6177    6.7025 H   0  0  0  0  0  0  0  0  0  0  0  0
    2.7520   20.8972    6.9568 H   0  0  0  0  0  0  0  0  0  0  0  0
    3.9603   18.8556    6.2672 H   0  0  0  0  0  0  0  0  0  0  0  0
    4.9894   19.9183    5.5757 H   0  0  0  0  0  0  0  0  0  0  0  0
    4.1172   19.2182    0.6325 H   0  0  0  0  0  0  0  0  0  0  0  0
    4.9555   18.8552    1.9860 H   0  0  0  0  0  0  0  0  0  0  0  0
    3.2673   20.7782    4.2983 H   0  0  0  0  0  0  0  0  0  0  0  0
    2.2134   19.7547    5.0112 H   0  0  0  0  0  0  0  0  0  0  0  0
    4.2064   18.4656    3.5929 H   0  0  0  0  0  0  0  0  0  0  0  0
  1 11  1  0  0  0  0
  2 11  2  0  0  0  0
  3 12  1  0  0  0  0
  4 12  2  0  0  0  0
  5  7  1  0  0  0  0
  6  9  1  0  0  0  0
  6 13  1  0  0  0  0
  7  8  1  0  0  0  0
  8 10  1  0  0  0  0
  9 11  1  0  0  0  0
 10 13  1  0  0  0  0
 12 13  1  0  0  0  0
  1 14  1  0  0  0  0
  3 15  1  0  0  0  0
  5 16  1  0  0  0  0
  5 17  1  0  0  0  0
  6 18  1  0  0  0  0
  7 19  1  0  0  0  0
  7 20  1  0  0  0  0
  8 21  1  0  0  0  0
  8 22  1  0  0  0  0
  9 23  1  0  0  0  0
  9 24  1  0  0  0  0
 10 25  1  0  0  0  0
 10 26  1  0  0  0  0
 13 27  1  0  0  0  0
M  END
> <pdb_id>
5OTC

> <uniprot_id>
P35120

> <usmiles>
O=C(O)[C@@H](NCC(=O)O)CCCN

$$$$
AQO_A_900
          07202407253D 1   1.00000     0.00000     0
            
 19 20  0  0  0  0            999 V2000
  103.5314   16.6698   23.7881 O   0  0  0  0  0  0  0  0  0  0  0  0
   99.0405   15.5425   24.7666 N   0  0  0  0  0  0  0  0  0  0  0  0
  101.3250   16.1153   24.2657 N   0  0  0  0  0  0  0  0  0  0  0  0
   99.7920   15.4568   22.5122 N   0  0  0  0  0  0  0  0  0  0  0  0
  101.5287   15.5130   19.1920 C   0  0  0  0  0  0  0  0  0  0  0  0
  102.8441   15.9311   19.5587 C   0  0  0  0  0  0  0  0  0  0  0  0
  100.5230   15.3564   20.1768 C   0  0  0  0  0  0  0  0  0  0  0  0
  103.1438   16.1907   20.9163 C   0  0  0  0  0  0  0  0  0  0  0  0
  100.0260   15.6883   23.7849 C   0  0  0  0  0  0  0  0  0  0  0  0
  102.4293   16.3036   23.3426 C   0  0  0  0  0  0  0  0  0  0  0  0
  100.8048   15.6152   21.5584 C   0  0  0  0  0  0  0  0  0  0  0  0
  102.1392   16.0380   21.9250 C   0  0  0  0  0  0  0  0  0  0  0  0
   98.1189   15.2509   24.5105 H   0  0  0  0  0  0  0  0  0  0  0  0
   99.2574   15.7299   25.7246 H   0  0  0  0  0  0  0  0  0  0  0  0
   98.8808   15.1643   22.2221 H   0  0  0  0  0  0  0  0  0  0  0  0
  101.3161   15.3294   18.2323 H   0  0  0  0  0  0  0  0  0  0  0  0
  103.5500   16.0398   18.8588 H   0  0  0  0  0  0  0  0  0  0  0  0
   99.6066   15.0623   19.9055 H   0  0  0  0  0  0  0  0  0  0  0  0
  104.0647   16.4833   21.1737 H   0  0  0  0  0  0  0  0  0  0  0  0
  1 10  2  0  0  0  0
  2  9  1  0  0  0  0
  3  9  2  0  0  0  0
  3 10  1  0  0  0  0
  4  9  1  0  0  0  0
  4 11  1  0  0  0  0
  5  6  2  0  0  0  0
  5  7  1  0  0  0  0
  6  8  1  0  0  0  0
  7 11  2  0  0  0  0
  8 12  2  0  0  0  0
 10 12  1  0  0  0  0
 11 12  1  0  0  0  0
  2 13  1  0  0  0  0
  2 14  1  0  0  0  0
  4 15  1  0  0  0  0
  5 16  1  0  0  0  0
  6 17  1  0  0  0  0
  7 18  1  0  0  0  0
  8 19  1  0  0  0  0
M  END
> <pdb_id>
1S39

> <uniprot_id>
P28720

> <usmiles>
O=C1N=C(Nc2c1cccc2)N

$$$$
AQQ_A_301
          07202417243D 1   1.00000     0.00000     0
            
 30 29  0  0  0  0            999 V2000
    5.8134   19.1242    1.2898 O   0  0  0  0  0  0  0  0  0  0  0  0
    6.7249   21.0536    1.6375 O   0  0  0  0  0  0  0  0  0  0  0  0
    2.4809   17.1174    4.3648 O   0  0  0  0  0  0  0  0  0  0  0  0
    1.2907   18.3243    3.0026 O   0  0  0  0  0  0  0  0  0  0  0  0
    4.2489   20.2393    8.3571 N   0  0  0  0  0  0  0  0  0  0  0  0
    3.2835   19.8865    2.2492 N   0  0  0  0  0  0  0  0  0  0  0  0
    3.7680   21.6467    0.6056 C   0  0  0  0  0  0  0  0  0  0  0  0
    3.9790   20.7053    6.9934 C   0  0  0  0  0  0  0  0  0  0  0  0
    4.1662   19.6085    5.9586 C   0  0  0  0  0  0  0  0  0  0  0  0
    3.5574   20.0941    4.6482 C   0  0  0  0  0  0  0  0  0  0  0  0
    5.6862   20.3271    1.5735 C   0  0  0  0  0  0  0  0  0  0  0  0
    2.3845   18.1271    3.6061 C   0  0  0  0  0  0  0  0  0  0  0  0
    4.2749   20.9066    1.8424 C   0  0  2  0  0  0  0  0  0  0  0  0
    3.5332   19.1313    3.4446 C   0  0  1  0  0  0  0  0  0  0  0  0
    5.0069   18.5355    1.2345 H   0  0  0  0  0  0  0  0  0  0  0  0
    3.3349   16.9388    4.8535 H   0  0  0  0  0  0  0  0  0  0  0  0
    4.1130   20.9931    9.0000 H   0  0  0  0  0  0  0  0  0  0  0  0
    3.6249   19.4915    8.5835 H   0  0  0  0  0  0  0  0  0  0  0  0
    3.2065   19.2323    1.4968 H   0  0  0  0  0  0  0  0  0  0  0  0
    4.4387   22.3360    0.3315 H   0  0  0  0  0  0  0  0  0  0  0  0
    3.6350   20.9954   -0.1414 H   0  0  0  0  0  0  0  0  0  0  0  0
    2.8987   22.0933    0.8173 H   0  0  0  0  0  0  0  0  0  0  0  0
    4.6035   21.4569    6.7814 H   0  0  0  0  0  0  0  0  0  0  0  0
    3.0353   21.0329    6.9469 H   0  0  0  0  0  0  0  0  0  0  0  0
    3.7041   18.7744    6.2597 H   0  0  0  0  0  0  0  0  0  0  0  0
    5.1407   19.4228    5.8325 H   0  0  0  0  0  0  0  0  0  0  0  0
    4.0711   20.9047    4.3670 H   0  0  0  0  0  0  0  0  0  0  0  0
    2.6100   20.3499    4.8403 H   0  0  0  0  0  0  0  0  0  0  0  0
    4.3533   21.5708    2.5859 H   0  0  0  0  0  0  0  0  0  0  0  0
    4.4058   18.6484    3.3716 H   0  0  0  0  0  0  0  0  0  0  0  0
  1 11  1  0  0  0  0
  2 11  2  0  0  0  0
  3 12  1  0  0  0  0
  4 12  2  0  0  0  0
  5  8  1  0  0  0  0
  6 13  1  0  0  0  0
  6 14  1  0  0  0  0
  7 13  1  0  0  0  0
  8  9  1  0  0  0  0
  9 10  1  0  0  0  0
 10 14  1  0  0  0  0
 11 13  1  0  0  0  0
 12 14  1  0  0  0  0
  1 15  1  0  0  0  0
  3 16  1  0  0  0  0
  5 17  1  0  0  0  0
  5 18  1  0  0  0  0
  6 19  1  0  0  0  0
  7 20  1  0  0  0  0
  7 21  1  0  0  0  0
  7 22  1  0  0  0  0
  8 23  1  0  0  0  0
  8 24  1  0  0  0  0
  9 25  1  0  0  0  0
  9 26  1  0  0  0  0
 10 27  1  0  0  0  0
 10 28  1  0  0  0  0
 13 29  1  0  0  0  0
 14 30  1  0  0  0  0
M  END
> <pdb_id>
5OTA

> <uniprot_id>
P35120

> <usmiles>
O=C(O)[C@H](N[C@H](C(=O)O)CCCN)C

$$$$
ARG_A_301
          07192416273D 1   1.00000     0.00000     0
            
 26 25  0  0  0  0            999 V2000
    3.1820  -24.2100   12.9190 N   0  0  0  0  0  0  0  0  0  0  0  0
    3.6680  -23.5400   11.6610 C   0  0  2  0  0  0  0  0  0  0  0  0
    4.9610  -22.8600   11.9240 C   0  0  0  0  0  0  0  0  0  0  0  0
    5.6710  -22.4530   10.9280 O   0  0  0  0  0  0  0  0  0  0  0  0
    2.7110  -22.5140   11.1350 C   0  0  0  0  0  0  0  0  0  0  0  0
    2.3190  -21.4590   12.1860 C   0  0  0  0  0  0  0  0  0  0  0  0
    1.5890  -20.2800   11.5690 C   0  0  0  0  0  0  0  0  0  0  0  0
    0.9190  -19.4620   12.5650 N   0  3  0  0  0  0  0  0  0  0  0  0
    0.1810  -18.3940   12.3150 C   0  0  0  0  0  0  0  0  0  0  0  0
   -0.4120  -17.7520   13.3000 N   0  0  0  0  0  0  0  0  0  0  0  0
   -0.0200  -18.0580   11.0640 N   0  0  0  0  0  0  0  0  0  0  0  0
    5.3750  -22.7000   13.0930 O   0  5  0  0  0  0  0  0  0  0  0  0
    3.8585  -24.8813   13.2218 H   0  0  0  0  0  0  0  0  0  0  0  0
    3.0514  -23.5228   13.6336 H   0  0  0  0  0  0  0  0  0  0  0  0
    3.8089  -24.2380   10.9589 H   0  0  0  0  0  0  0  0  0  0  0  0
    1.8816  -22.9804   10.8275 H   0  0  0  0  0  0  0  0  0  0  0  0
    3.1381  -22.0480   10.3602 H   0  0  0  0  0  0  0  0  0  0  0  0
    3.1491  -21.1258   12.6332 H   0  0  0  0  0  0  0  0  0  0  0  0
    1.7232  -21.8871   12.8655 H   0  0  0  0  0  0  0  0  0  0  0  0
    0.9064  -20.6259   10.9253 H   0  0  0  0  0  0  0  0  0  0  0  0
    2.2512  -19.7124   11.0797 H   0  0  0  0  0  0  0  0  0  0  0  0
    1.0252  -19.7299   13.5226 H   0  0  0  0  0  0  0  0  0  0  0  0
   -0.9694  -16.9446   13.1066 H   0  0  0  0  0  0  0  0  0  0  0  0
   -0.3050  -18.0719   14.2414 H   0  0  0  0  0  0  0  0  0  0  0  0
   -0.5741  -17.2549   10.8448 H   0  0  0  0  0  0  0  0  0  0  0  0
    0.3808  -18.6047   10.3288 H   0  0  0  0  0  0  0  0  0  0  0  0
  1  2  1  0  0  0  0
  2  5  1  0  0  0  0
  2  3  1  0  0  0  0
  5  6  1  0  0  0  0
  6  7  1  0  0  0  0
  7  8  1  0  0  0  0
  8  9  2  0  0  0  0
  9 10  1  0  0  0  0
  9 11  1  0  0  0  0
  3  4  2  0  0  0  0
  3 12  1  0  0  0  0
  1 13  1  0  0  0  0
  1 14  1  0  0  0  0
  2 15  1  0  0  0  0
  5 16  1  0  0  0  0
  5 17  1  0  0  0  0
  6 18  1  0  0  0  0
  6 19  1  0  0  0  0
  7 20  1  0  0  0  0
  7 21  1  0  0  0  0
  8 22  1  0  0  0  0
 10 23  1  0  0  0  0
 10 24  1  0  0  0  0
 11 25  1  0  0  0  0
 11 26  1  0  0  0  0
M  CHG  2   8   1  12  -1
M  END
> <pdb_id>
4ZV1

> <uniprot_id>
nan

> <usmiles>
[O-]C(=O)[C@@H](N)CCC[NH+]=C(N)N

$$$$
ARG_C_902
          07202408503D 1   1.00000     0.00000     0
            
 26 25  0  0  0  0            999 V2000
   36.7840    4.5000   38.6710 N   0  0  0  0  0  0  0  0  0  0  0  0
   37.7220    5.5460   38.1590 C   0  0  2  0  0  0  0  0  0  0  0  0
   38.5350    6.1010   39.3160 C   0  0  0  0  0  0  0  0  0  0  0  0
   39.5120    6.7920   39.0780 O   0  0  0  0  0  0  0  0  0  0  0  0
   36.9710    6.6470   37.4390 C   0  0  0  0  0  0  0  0  0  0  0  0
   35.8760    7.2520   38.3070 C   0  0  0  0  0  0  0  0  0  0  0  0
   35.4170    8.5820   37.7590 C   0  0  0  0  0  0  0  0  0  0  0  0
   34.1330    8.9550   38.3880 N   0  3  0  0  0  0  0  0  0  0  0  0
   33.4450   10.0690   38.1300 C   0  0  0  0  0  0  0  0  0  0  0  0
   33.8810   10.9720   37.2400 N   0  0  0  0  0  0  0  0  0  0  0  0
   32.3030   10.2860   38.7710 N   0  0  0  0  0  0  0  0  0  0  0  0
   38.2620    5.8330   40.4880 O   0  5  0  0  0  0  0  0  0  0  0  0
   37.3043    3.7869   39.1409 H   0  0  0  0  0  0  0  0  0  0  0  0
   36.1370    4.9163   39.3098 H   0  0  0  0  0  0  0  0  0  0  0  0
   38.3498    5.1161   37.5101 H   0  0  0  0  0  0  0  0  0  0  0  0
   36.5552    6.2672   36.6127 H   0  0  0  0  0  0  0  0  0  0  0  0
   37.6174    7.3669   37.1862 H   0  0  0  0  0  0  0  0  0  0  0  0
   36.2299    7.3853   39.2327 H   0  0  0  0  0  0  0  0  0  0  0  0
   35.0978    6.6246   38.3348 H   0  0  0  0  0  0  0  0  0  0  0  0
   35.2953    8.5109   36.7690 H   0  0  0  0  0  0  0  0  0  0  0  0
   36.1031    9.2809   37.9612 H   0  0  0  0  0  0  0  0  0  0  0  0
   33.7490    8.3223   39.0605 H   0  0  0  0  0  0  0  0  0  0  0  0
   33.3470   11.7991   37.0643 H   0  0  0  0  0  0  0  0  0  0  0  0
   34.7402   10.8184   36.7519 H   0  0  0  0  0  0  0  0  0  0  0  0
   31.7768   11.1164   38.5878 H   0  0  0  0  0  0  0  0  0  0  0  0
   31.9689    9.6191   39.4370 H   0  0  0  0  0  0  0  0  0  0  0  0
  1  2  1  0  0  0  0
  2  5  1  0  0  0  0
  2  3  1  0  0  0  0
  5  6  1  0  0  0  0
  6  7  1  0  0  0  0
  7  8  1  0  0  0  0
  8  9  2  0  0  0  0
  9 10  1  0  0  0  0
  9 11  1  0  0  0  0
  3  4  2  0  0  0  0
  3 12  1  0  0  0  0
  1 13  1  0  0  0  0
  1 14  1  0  0  0  0
  2 15  1  0  0  0  0
  5 16  1  0  0  0  0
  5 17  1  0  0  0  0
  6 18  1  0  0  0  0
  6 19  1  0  0  0  0
  7 20  1  0  0  0  0
  7 21  1  0  0  0  0
  8 22  1  0  0  0  0
 10 23  1  0  0  0  0
 10 24  1  0  0  0  0
 11 25  1  0  0  0  0
 11 26  1  0  0  0  0
M  CHG  2   8   1  12  -1
M  END
> <pdb_id>
2Q2A

> <uniprot_id>
nan

> <usmiles>
[O-]C(=O)[C@@H](N)CCC[NH+]=C(N)N

$$$$
ARG_E_301
          07202403193D 1   1.00000     0.00000     0
            
 26 25  0  0  0  0            999 V2000
   -0.0630   -1.2000  -12.1790 N   0  0  0  0  0  0  0  0  0  0  0  0
    0.1080   -2.0000  -10.9610 C   0  0  2  0  0  0  0  0  0  0  0  0
   -0.4070   -1.2140   -9.7670 C   0  0  0  0  0  0  0  0  0  0  0  0
   -0.7000   -0.0180   -9.9140 O   0  0  0  0  0  0  0  0  0  0  0  0
    1.5760   -2.3760  -10.7450 C   0  0  0  0  0  0  0  0  0  0  0  0
    2.5190   -1.1860  -10.8430 C   0  0  0  0  0  0  0  0  0  0  0  0
    3.8880   -1.4720  -10.2420 C   0  0  0  0  0  0  0  0  0  0  0  0
    4.8480   -0.4290  -10.5870 N   0  3  0  0  0  0  0  0  0  0  0  0
    6.1230   -0.4100  -10.1960 C   0  0  0  0  0  0  0  0  0  0  0  0
    6.5900   -1.3760   -9.4250 N   0  0  0  0  0  0  0  0  0  0  0  0
    6.9390    0.5760  -10.5760 N   0  0  0  0  0  0  0  0  0  0  0  0
   -0.5230   -1.7240   -8.6540 O   0  5  0  0  0  0  0  0  0  0  0  0
   -1.0294   -0.9699  -12.2937 H   0  0  0  0  0  0  0  0  0  0  0  0
    0.4732   -0.3593  -12.1036 H   0  0  0  0  0  0  0  0  0  0  0  0
   -0.4290   -2.8389  -11.0494 H   0  0  0  0  0  0  0  0  0  0  0  0
    1.8378   -3.0471  -11.4386 H   0  0  0  0  0  0  0  0  0  0  0  0
    1.6698   -2.7821   -9.8360 H   0  0  0  0  0  0  0  0  0  0  0  0
    2.1110   -0.4133  -10.3568 H   0  0  0  0  0  0  0  0  0  0  0  0
    2.6360   -0.9488  -11.8074 H   0  0  0  0  0  0  0  0  0  0  0  0
    4.2200   -2.3484  -10.5908 H   0  0  0  0  0  0  0  0  0  0  0  0
    3.8031   -1.5200   -9.2468 H   0  0  0  0  0  0  0  0  0  0  0  0
    4.5268    0.3265  -11.1581 H   0  0  0  0  0  0  0  0  0  0  0  0
    7.5457   -1.3632   -9.1310 H   0  0  0  0  0  0  0  0  0  0  0  0
    5.9877   -2.1199   -9.1355 H   0  0  0  0  0  0  0  0  0  0  0  0
    7.8930    0.5790  -10.2762 H   0  0  0  0  0  0  0  0  0  0  0  0
    6.5962    1.3115  -11.1604 H   0  0  0  0  0  0  0  0  0  0  0  0
  1  2  1  0  0  0  0
  2  5  1  0  0  0  0
  2  3  1  0  0  0  0
  5  6  1  0  0  0  0
  6  7  1  0  0  0  0
  7  8  1  0  0  0  0
  8  9  2  0  0  0  0
  9 10  1  0  0  0  0
  9 11  1  0  0  0  0
  3  4  2  0  0  0  0
  3 12  1  0  0  0  0
  1 13  1  0  0  0  0
  1 14  1  0  0  0  0
  2 15  1  0  0  0  0
  5 16  1  0  0  0  0
  5 17  1  0  0  0  0
  6 18  1  0  0  0  0
  6 19  1  0  0  0  0
  7 20  1  0  0  0  0
  7 21  1  0  0  0  0
  8 22  1  0  0  0  0
 10 23  1  0  0  0  0
 10 24  1  0  0  0  0
 11 25  1  0  0  0  0
 11 26  1  0  0  0  0
M  CHG  2   8   1  12  -1
M  END
> <pdb_id>
6MKU

> <uniprot_id>
P02911

> <usmiles>
[O-]C(=O)[C@@H](N)CCC[NH+]=C(N)N

$$$$
ARW_C_1115
          07202403043D 1   1.00000     0.00000     0
            
 23 23  0  0  0  0            999 V2000
   19.7351   20.4697  -23.9272 O   0  0  0  0  0  0  0  0  0  0  0  0
   16.2060   20.6276  -21.6037 O   0  0  0  0  0  0  0  0  0  0  0  0
   18.9244   20.1072  -21.2691 O   0  0  0  0  0  0  0  0  0  0  0  0
   15.6754   18.5420  -23.3887 O   0  0  0  0  0  0  0  0  0  0  0  0
   17.1770   19.4787  -24.9704 O   0  0  0  0  0  0  0  0  0  0  0  0
   14.8160   17.8907  -24.3410 C   0  0  0  0  0  0  0  0  0  0  0  0
   18.3064   18.6543  -24.6840 C   0  0  0  0  0  0  0  0  0  0  0  0
   16.2601   19.7675  -23.8896 C   0  0  2  0  0  0  0  0  0  0  0  0
   19.1040   19.2355  -23.5178 C   0  0  2  0  0  0  0  0  0  0  0  0
   17.0371   20.4434  -22.7540 C   0  0  2  0  0  0  0  0  0  0  0  0
   18.1749   19.5134  -22.3459 C   0  0  2  0  0  0  0  0  0  0  0  0
   20.2562   20.8475  -23.1619 H   0  0  0  0  0  0  0  0  0  0  0  0
   16.7339   21.0691  -20.8782 H   0  0  0  0  0  0  0  0  0  0  0  0
   18.3135   20.2898  -20.4987 H   0  0  0  0  0  0  0  0  0  0  0  0
   14.4448   17.0543  -23.9376 H   0  0  0  0  0  0  0  0  0  0  0  0
   14.0653   18.5040  -24.5865 H   0  0  0  0  0  0  0  0  0  0  0  0
   15.3405   17.6610  -25.1608 H   0  0  0  0  0  0  0  0  0  0  0  0
   18.8926   18.6050  -25.4927 H   0  0  0  0  0  0  0  0  0  0  0  0
   17.9921   17.7359  -24.4437 H   0  0  0  0  0  0  0  0  0  0  0  0
   15.5376   20.3780  -24.2141 H   0  0  0  0  0  0  0  0  0  0  0  0
   19.8059   18.5810  -23.2369 H   0  0  0  0  0  0  0  0  0  0  0  0
   17.4024   21.3224  -23.0606 H   0  0  0  0  0  0  0  0  0  0  0  0
   17.7865   18.6479  -22.0297 H   0  0  0  0  0  0  0  0  0  0  0  0
  1  9  1  0  0  0  0
  2 10  1  0  0  0  0
  3 11  1  0  0  0  0
  4  6  1  0  0  0  0
  4  8  1  0  0  0  0
  5  7  1  0  0  0  0
  5  8  1  0  0  0  0
  7  9  1  0  0  0  0
  8 10  1  0  0  0  0
  9 11  1  0  0  0  0
 10 11  1  0  0  0  0
  1 12  1  0  0  0  0
  2 13  1  0  0  0  0
  3 14  1  0  0  0  0
  6 15  1  0  0  0  0
  6 16  1  0  0  0  0
  6 17  1  0  0  0  0
  7 18  1  0  0  0  0
  7 19  1  0  0  0  0
  8 20  1  0  0  0  0
  9 21  1  0  0  0  0
 10 22  1  0  0  0  0
 11 23  1  0  0  0  0
M  END
> <pdb_id>
2BOJ

> <uniprot_id>
Q9HYN5

> <usmiles>
O1[C@@H](OC)[C@@H](O)[C@H](O)[C@H](O)C1

$$$$
AS6_A_1889
          07192418133D 1   1.00000     0.00000     0
            
 69 72  0  0  0  0            999 V2000
    9.8340    9.8680    9.7150 S   0  0  0  0  0  0  0  0  0  0  0  0
    9.5170   11.2920    9.6360 O   0  0  0  0  0  0  0  0  0  0  0  0
    9.8070    9.0460    8.5010 O   0  0  0  0  0  0  0  0  0  0  0  0
    8.6610   -0.6650   10.2410 O   0  0  0  0  0  0  0  0  0  0  0  0
   15.8920   14.1100   10.1080 O   0  0  0  0  0  0  0  0  0  0  0  0
   14.2340    5.1050   12.2260 N   0  0  0  0  0  0  0  0  0  0  0  0
   12.0610    5.9950   11.9470 N   0  0  0  0  0  0  0  0  0  0  0  0
   14.0050    7.3550   11.6870 N   0  0  0  0  0  0  0  0  0  0  0  0
   14.2400   12.1100   10.8490 N   0  0  0  0  0  0  0  0  0  0  0  0
   10.1490    4.5810   12.2350 N   0  0  0  0  0  0  0  0  0  0  0  0
    8.8000    9.1190   10.9360 C   0  0  0  0  0  0  0  0  0  0  0  0
    9.4220    5.6620   10.0960 C   0  0  0  0  0  0  0  0  0  0  0  0
    7.8960    5.6550   12.0780 C   0  0  0  0  0  0  0  0  0  0  0  0
    9.7380    3.5730   14.9230 C   0  0  0  0  0  0  0  0  0  0  0  0
    8.0420    0.6170   10.2800 C   0  0  0  0  0  0  0  0  0  0  0  0
   16.1790   13.3930   11.3150 C   0  0  0  0  0  0  0  0  0  0  0  0
   14.4760   14.2820    9.9660 C   0  0  0  0  0  0  0  0  0  0  0  0
   13.7070    3.8980   12.5000 C   0  0  0  0  0  0  0  0  0  0  0  0
   15.6390   11.9890   11.1620 C   0  0  0  0  0  0  0  0  0  0  0  0
   13.9010   12.9190    9.6850 C   0  0  0  0  0  0  0  0  0  0  0  0
   12.3610    3.6850   12.5100 C   0  0  0  0  0  0  0  0  0  0  0  0
    8.6910    1.5920   13.8680 C   0  0  0  0  0  0  0  0  0  0  0  0
    8.2720    0.8710   12.7730 C   0  0  0  0  0  0  0  0  0  0  0  0
   12.0410    8.5380   10.7630 C   0  0  0  0  0  0  0  0  0  0  0  0
   12.2370   10.9080   10.3720 C   0  0  0  0  0  0  0  0  0  0  0  0
   14.0770    9.6960   11.2580 C   0  0  0  0  0  0  0  0  0  0  0  0
    9.1100    2.5870   11.3410 C   0  0  0  0  0  0  0  0  0  0  0  0
   13.3990    6.1120   11.9600 C   0  0  0  0  0  0  0  0  0  0  0  0
   11.5080    9.7430   10.3410 C   0  0  0  0  0  0  0  0  0  0  0  0
   11.5570    4.7790   12.2250 C   0  0  0  0  0  0  0  0  0  0  0  0
    9.3460    5.6460   11.6120 C   0  0  0  0  0  0  0  0  0  0  0  0
   13.3490    8.5200   11.2320 C   0  0  0  0  0  0  0  0  0  0  0  0
   13.5360   10.8980   10.8320 C   0  0  0  0  0  0  0  0  0  0  0  0
    9.5240    3.3320   12.4340 C   0  0  0  0  0  0  0  0  0  0  0  0
    9.3110    2.8190   13.7070 C   0  0  0  0  0  0  0  0  0  0  0  0
    8.4860    1.3680   11.5030 C   0  0  0  0  0  0  0  0  0  0  0  0
    8.3591   -1.1562    9.4240 H   0  0  0  0  0  0  0  0  0  0  0  0
   14.9929    7.4179   11.8289 H   0  0  0  0  0  0  0  0  0  0  0  0
    9.0098    8.1432   10.9974 H   0  0  0  0  0  0  0  0  0  0  0  0
    8.9640    9.5516   11.8225 H   0  0  0  0  0  0  0  0  0  0  0  0
    7.8409    9.2382   10.6792 H   0  0  0  0  0  0  0  0  0  0  0  0
    8.8560    6.4064    9.7417 H   0  0  0  0  0  0  0  0  0  0  0  0
   10.3706    5.8000    9.8112 H   0  0  0  0  0  0  0  0  0  0  0  0
    9.0895    4.7902    9.7364 H   0  0  0  0  0  0  0  0  0  0  0  0
    7.4040    6.3967   11.6222 H   0  0  0  0  0  0  0  0  0  0  0  0
    7.4671    4.7809   11.8499 H   0  0  0  0  0  0  0  0  0  0  0  0
    7.8649    5.7933   13.0679 H   0  0  0  0  0  0  0  0  0  0  0  0
   10.1671    4.4334   14.6481 H   0  0  0  0  0  0  0  0  0  0  0  0
    8.9394    3.7660   15.4931 H   0  0  0  0  0  0  0  0  0  0  0  0
   10.3935    3.0246   15.4422 H   0  0  0  0  0  0  0  0  0  0  0  0
    7.0487    0.5040   10.3038 H   0  0  0  0  0  0  0  0  0  0  0  0
    8.2993    1.1334    9.4632 H   0  0  0  0  0  0  0  0  0  0  0  0
   15.7379   13.8439   12.0910 H   0  0  0  0  0  0  0  0  0  0  0  0
   17.1672   13.3623   11.4650 H   0  0  0  0  0  0  0  0  0  0  0  0
   14.2785   14.9026    9.2071 H   0  0  0  0  0  0  0  0  0  0  0  0
   14.0875   14.6528   10.8095 H   0  0  0  0  0  0  0  0  0  0  0  0
   14.3208    3.1349   12.7022 H   0  0  0  0  0  0  0  0  0  0  0  0
   16.1170   11.5156   10.4221 H   0  0  0  0  0  0  0  0  0  0  0  0
   15.7577   11.4803   12.0147 H   0  0  0  0  0  0  0  0  0  0  0  0
   12.9087   12.9738    9.5737 H   0  0  0  0  0  0  0  0  0  0  0  0
   14.3082   12.5309    8.8583 H   0  0  0  0  0  0  0  0  0  0  0  0
   11.9727    2.7860   12.7124 H   0  0  0  0  0  0  0  0  0  0  0  0
    8.5463    1.2264   14.7874 H   0  0  0  0  0  0  0  0  0  0  0  0
    7.8143   -0.0094   12.8969 H   0  0  0  0  0  0  0  0  0  0  0  0
   11.4975    7.6992   10.7312 H   0  0  0  0  0  0  0  0  0  0  0  0
   11.8242   11.7638   10.0604 H   0  0  0  0  0  0  0  0  0  0  0  0
   15.0189    9.6779   11.5933 H   0  0  0  0  0  0  0  0  0  0  0  0
    9.2666    2.9398   10.4185 H   0  0  0  0  0  0  0  0  0  0  0  0
    9.7430    6.5106   11.9200 H   0  0  0  0  0  0  0  0  0  0  0  0
  1  2  2  0  0  0  0
  1  3  2  0  0  0  0
  1 11  1  0  0  0  0
  1 29  1  0  0  0  0
  4 15  1  0  0  0  0
  5 16  1  0  0  0  0
  5 17  1  0  0  0  0
  6 18  2  0  0  0  0
  6 28  1  0  0  0  0
  7 28  2  0  0  0  0
  7 30  1  0  0  0  0
  8 28  1  0  0  0  0
  8 32  1  0  0  0  0
  9 19  1  0  0  0  0
  9 20  1  0  0  0  0
  9 33  1  0  0  0  0
 10 30  1  0  0  0  0
 10 31  1  0  0  0  0
 10 34  1  0  0  0  0
 12 31  1  0  0  0  0
 13 31  1  0  0  0  0
 14 35  1  0  0  0  0
 15 36  1  0  0  0  0
 16 19  1  0  0  0  0
 17 20  1  0  0  0  0
 18 21  1  0  0  0  0
 21 30  2  0  0  0  0
 22 23  1  0  0  0  0
 22 35  2  0  0  0  0
 23 36  2  0  0  0  0
 24 29  1  0  0  0  0
 24 32  2  0  0  0  0
 25 29  2  0  0  0  0
 25 33  1  0  0  0  0
 26 32  1  0  0  0  0
 26 33  2  0  0  0  0
 27 34  2  0  0  0  0
 27 36  1  0  0  0  0
 34 35  1  0  0  0  0
  4 37  1  0  0  0  0
  8 38  1  0  0  0  0
 11 39  1  0  0  0  0
 11 40  1  0  0  0  0
 11 41  1  0  0  0  0
 12 42  1  0  0  0  0
 12 43  1  0  0  0  0
 12 44  1  0  0  0  0
 13 45  1  0  0  0  0
 13 46  1  0  0  0  0
 13 47  1  0  0  0  0
 14 48  1  0  0  0  0
 14 49  1  0  0  0  0
 14 50  1  0  0  0  0
 15 51  1  0  0  0  0
 15 52  1  0  0  0  0
 16 53  1  0  0  0  0
 16 54  1  0  0  0  0
 17 55  1  0  0  0  0
 17 56  1  0  0  0  0
 18 57  1  0  0  0  0
 19 58  1  0  0  0  0
 19 59  1  0  0  0  0
 20 60  1  0  0  0  0
 20 61  1  0  0  0  0
 21 62  1  0  0  0  0
 22 63  1  0  0  0  0
 23 64  1  0  0  0  0
 24 65  1  0  0  0  0
 25 66  1  0  0  0  0
 26 67  1  0  0  0  0
 27 68  1  0  0  0  0
 31 69  1  0  0  0  0
M  END
> <pdb_id>
2XVD

> <uniprot_id>
P54760

> <usmiles>
S(=O)(=O)(c1cc(N2CCOCC2)cc(Nc3nc(N(c4c(ccc(c4)CO)C)C(C)C)ccn3)c1)C

$$$$
AT1_A_258
          07202409023D 1   1.00000     0.00000     0
            
 40 40  0  0  0  0            999 V2000
   -5.9373   -8.8591   15.9474 P   0  0  0  0  0  0  0  0  0  0  0  0
   -6.9218   -8.9720   14.8395 O   0  0  0  0  0  0  0  0  0  0  0  0
   -4.9790  -10.0117   16.0759 O   0  0  0  0  0  0  0  0  0  0  0  0
   -6.6148   -8.6128   17.3369 O   0  0  0  0  0  0  0  0  0  0  0  0
  -10.3149   -3.9112   13.7299 O   0  0  0  0  0  0  0  0  0  0  0  0
   -9.8250   -5.3917   15.3406 O   0  0  0  0  0  0  0  0  0  0  0  0
   -3.6237   -3.4648   15.6907 O   0  0  0  0  0  0  0  0  0  0  0  0
   -5.7097   -6.2303   15.6006 O   0  0  0  0  0  0  0  0  0  0  0  0
   -7.8175   -3.1807   13.1838 N   0  0  0  0  0  0  0  0  0  0  0  0
   -3.7897   -4.8685   15.6581 N   0  0  0  0  0  0  0  0  0  0  0  0
   -4.0504   -0.9490   17.0753 C   0  0  0  0  0  0  0  0  0  0  0  0
   -3.8458   -0.8139   14.5874 C   0  0  0  0  0  0  0  0  0  0  0  0
   -6.0642   -0.6038   15.6729 C   0  0  0  0  0  0  0  0  0  0  0  0
   -4.8669   -7.4286   15.6534 C   0  0  0  0  0  0  0  0  0  0  0  0
   -7.3276   -3.7762   15.6007 C   0  0  0  0  0  0  0  0  0  0  0  0
   -9.5057   -4.5439   14.4751 C   0  0  0  0  0  0  0  0  0  0  0  0
   -5.0911   -5.0341   15.6252 C   0  0  0  0  0  0  0  0  0  0  0  0
   -4.8370   -2.8460   15.6785 C   0  0  0  0  0  0  0  0  0  0  0  0
   -7.9666   -4.2379   14.2882 C   0  0  1  0  0  0  0  0  0  0  0  0
   -5.8288   -3.8057   15.6306 C   0  0  0  0  0  0  0  0  0  0  0  0
   -4.7208   -1.3188   15.7304 C   0  0  0  0  0  0  0  0  0  0  0  0
   -7.5117   -8.1646   14.8341 H   0  0  0  0  0  0  0  0  0  0  0  0
   -4.3599   -9.8464   16.8436 H   0  0  0  0  0  0  0  0  0  0  0  0
   -9.9690   -3.2500   13.0642 H   0  0  0  0  0  0  0  0  0  0  0  0
   -8.2446   -3.5141   12.3433 H   0  0  0  0  0  0  0  0  0  0  0  0
   -8.2640   -2.3333   13.4711 H   0  0  0  0  0  0  0  0  0  0  0  0
   -4.6172   -1.2762   17.8314 H   0  0  0  0  0  0  0  0  0  0  0  0
   -3.1477   -1.3762   17.1264 H   0  0  0  0  0  0  0  0  0  0  0  0
   -3.9531    0.0443   17.1373 H   0  0  0  0  0  0  0  0  0  0  0  0
   -4.2712   -1.0484   13.7133 H   0  0  0  0  0  0  0  0  0  0  0  0
   -3.7490    0.1791   14.6553 H   0  0  0  0  0  0  0  0  0  0  0  0
   -2.9436   -1.2414   14.6443 H   0  0  0  0  0  0  0  0  0  0  0  0
   -6.5226   -0.8243   14.8119 H   0  0  0  0  0  0  0  0  0  0  0  0
   -6.6334   -0.9015   16.4393 H   0  0  0  0  0  0  0  0  0  0  0  0
   -5.9188    0.3839   15.7297 H   0  0  0  0  0  0  0  0  0  0  0  0
   -4.3827   -7.5406   14.7856 H   0  0  0  0  0  0  0  0  0  0  0  0
   -4.2034   -7.3436   16.3967 H   0  0  0  0  0  0  0  0  0  0  0  0
   -7.6627   -4.3695   16.3326 H   0  0  0  0  0  0  0  0  0  0  0  0
   -7.6213   -2.8360   15.7730 H   0  0  0  0  0  0  0  0  0  0  0  0
   -7.5098   -5.0759   13.9897 H   0  0  0  0  0  0  0  0  0  0  0  0
  1  2  1  0  0  0  0
  1  3  1  0  0  0  0
  1  4  2  0  0  0  0
  1 14  1  0  0  0  0
  5 16  1  0  0  0  0
  6 16  2  0  0  0  0
  7 10  1  0  0  0  0
  7 18  1  0  0  0  0
  8 14  1  0  0  0  0
  8 17  1  0  0  0  0
  9 19  1  0  0  0  0
 10 17  2  0  0  0  0
 11 21  1  0  0  0  0
 12 21  1  0  0  0  0
 13 21  1  0  0  0  0
 15 19  1  0  0  0  0
 15 20  1  0  0  0  0
 16 19  1  0  0  0  0
 17 20  1  0  0  0  0
 18 20  2  0  0  0  0
 18 21  1  0  0  0  0
  2 22  1  0  0  0  0
  3 23  1  0  0  0  0
  5 24  1  0  0  0  0
  9 25  1  0  0  0  0
  9 26  1  0  0  0  0
 11 27  1  0  0  0  0
 11 28  1  0  0  0  0
 11 29  1  0  0  0  0
 12 30  1  0  0  0  0
 12 31  1  0  0  0  0
 12 32  1  0  0  0  0
 13 33  1  0  0  0  0
 13 34  1  0  0  0  0
 13 35  1  0  0  0  0
 14 36  1  0  0  0  0
 14 37  1  0  0  0  0
 15 38  1  0  0  0  0
 15 39  1  0  0  0  0
 19 40  1  0  0  0  0
M  END
> <pdb_id>
1VSO

> <uniprot_id>
P22756

> <usmiles>
P(=O)(O)(O)COC1=NOC(=C1C[C@H](N)C(=O)O)C(C)(C)C

$$$$
AT2_A_906
          07202412353D 1   1.00000     0.00000     0
            
 40 41  0  0  0  0            999 V2000
  125.9142  117.0260   87.2798 O   0  0  0  0  0  0  0  0  0  0  0  0
  128.0052  117.9515   87.3626 O   0  0  0  0  0  0  0  0  0  0  0  0
  126.7285  116.4907   94.7793 N   0  0  0  0  0  0  0  0  0  0  0  0
  127.6167  116.1486   92.5858 N   0  0  0  0  0  0  0  0  0  0  0  0
  127.0994  117.0537   89.2080 N   0  0  0  0  0  0  0  0  0  0  0  0
  129.2626  118.9199   85.6591 C   0  0  0  0  0  0  0  0  0  0  0  0
  125.9222  112.2596   95.0971 C   0  0  0  0  0  0  0  0  0  0  0  0
  127.9252  118.2707   85.9982 C   0  0  0  0  0  0  0  0  0  0  0  0
  126.1438  115.9690   95.9294 C   0  0  0  0  0  0  0  0  0  0  0  0
  126.0923  116.3691   90.0144 C   0  0  0  0  0  0  0  0  0  0  0  0
  128.2961  117.3935   89.9780 C   0  0  0  0  0  0  0  0  0  0  0  0
  125.8773  114.5863   96.0311 C   0  0  0  0  0  0  0  0  0  0  0  0
  126.6891  115.0810   90.6022 C   0  0  0  0  0  0  0  0  0  0  0  0
  128.9186  116.1370   90.5330 C   0  0  0  0  0  0  0  0  0  0  0  0
  126.7848  114.2510   93.8218 C   0  0  0  0  0  0  0  0  0  0  0  0
  126.9668  117.3414   87.9034 C   0  0  0  0  0  0  0  0  0  0  0  0
  127.0506  115.6251   93.7170 C   0  0  0  0  0  0  0  0  0  0  0  0
  127.9692  115.3503   91.4249 C   0  0  0  0  0  0  0  0  0  0  0  0
  126.2034  113.7394   94.9769 C   0  0  0  0  0  0  0  0  0  0  0  0
  127.7970  117.1318   92.5574 H   0  0  0  0  0  0  0  0  0  0  0  0
  129.2738  119.1747   84.6922 H   0  0  0  0  0  0  0  0  0  0  0  0
  129.3880  119.7377   86.2208 H   0  0  0  0  0  0  0  0  0  0  0  0
  130.0030  118.2731   85.8420 H   0  0  0  0  0  0  0  0  0  0  0  0
  126.2134  111.7959   94.2603 H   0  0  0  0  0  0  0  0  0  0  0  0
  126.4253  111.8870   95.8769 H   0  0  0  0  0  0  0  0  0  0  0  0
  124.9420  112.1165   95.2337 H   0  0  0  0  0  0  0  0  0  0  0  0
  127.1735  118.9087   85.8310 H   0  0  0  0  0  0  0  0  0  0  0  0
  127.7884  117.4441   85.4523 H   0  0  0  0  0  0  0  0  0  0  0  0
  125.9110  116.5772   96.6883 H   0  0  0  0  0  0  0  0  0  0  0  0
  125.3062  116.1397   89.4404 H   0  0  0  0  0  0  0  0  0  0  0  0
  125.7979  116.9689   90.7584 H   0  0  0  0  0  0  0  0  0  0  0  0
  128.0449  118.0007   90.7317 H   0  0  0  0  0  0  0  0  0  0  0  0
  128.9540  117.8553   89.3830 H   0  0  0  0  0  0  0  0  0  0  0  0
  125.4551  114.2167   96.8589 H   0  0  0  0  0  0  0  0  0  0  0  0
  126.9138  114.4591   89.8520 H   0  0  0  0  0  0  0  0  0  0  0  0
  126.0084  114.6534   91.1971 H   0  0  0  0  0  0  0  0  0  0  0  0
  129.7241  116.3898   91.0689 H   0  0  0  0  0  0  0  0  0  0  0  0
  129.1958  115.5540   89.7693 H   0  0  0  0  0  0  0  0  0  0  0  0
  127.0137  113.6390   93.0648 H   0  0  0  0  0  0  0  0  0  0  0  0
  128.3898  114.4885   91.7084 H   0  0  0  0  0  0  0  0  0  0  0  0
  1 16  2  0  0  0  0
  2  8  1  0  0  0  0
  2 16  1  0  0  0  0
  3  9  2  0  0  0  0
  3 17  1  0  0  0  0
  4 17  1  0  0  0  0
  4 18  1  0  0  0  0
  5 10  1  0  0  0  0
  5 11  1  0  0  0  0
  5 16  1  0  0  0  0
  6  8  1  0  0  0  0
  7 19  1  0  0  0  0
  9 12  1  0  0  0  0
 10 13  1  0  0  0  0
 11 14  1  0  0  0  0
 12 19  2  0  0  0  0
 13 18  1  0  0  0  0
 14 18  1  0  0  0  0
 15 17  2  0  0  0  0
 15 19  1  0  0  0  0
  4 20  1  0  0  0  0
  6 21  1  0  0  0  0
  6 22  1  0  0  0  0
  6 23  1  0  0  0  0
  7 24  1  0  0  0  0
  7 25  1  0  0  0  0
  7 26  1  0  0  0  0
  8 27  1  0  0  0  0
  8 28  1  0  0  0  0
  9 29  1  0  0  0  0
 10 30  1  0  0  0  0
 10 31  1  0  0  0  0
 11 32  1  0  0  0  0
 11 33  1  0  0  0  0
 12 34  1  0  0  0  0
 13 35  1  0  0  0  0
 13 36  1  0  0  0  0
 14 37  1  0  0  0  0
 14 38  1  0  0  0  0
 15 39  1  0  0  0  0
 18 40  1  0  0  0  0
M  END
> <pdb_id>
3NQS

> <uniprot_id>
P29477

> <usmiles>
O=C(OCC)N1CCC(Nc2nccc(c2)C)CC1

$$$$
AT6_A_905
          07202412353D 1   1.00000     0.00000     0
            
 37 38  0  0  0  0            999 V2000
  127.5925  116.7044   88.9749 O   0  0  0  0  0  0  0  0  0  0  0  0
  132.5906  118.7995   83.7631 N   0  0  0  0  0  0  0  0  0  0  0  0
  126.1497  117.1853   95.7513 N   0  0  0  0  0  0  0  0  0  0  0  0
  129.0363  115.0600   89.5097 N   0  0  0  0  0  0  0  0  0  0  0  0
  127.2690  116.2881   93.8703 N   0  0  0  0  0  0  0  0  0  0  0  0
  125.9838  112.2831   94.8835 C   0  0  0  0  0  0  0  0  0  0  0  0
  131.9666  118.3023   84.5902 C   0  0  0  0  0  0  0  0  0  0  0  0
  128.2128  114.5643   90.6096 C   0  0  0  0  0  0  0  0  0  0  0  0
  128.5138  115.4559   91.8503 C   0  0  0  0  0  0  0  0  0  0  0  0
  129.8297  118.1023   85.7054 C   0  0  0  0  0  0  0  0  0  0  0  0
  131.7295  116.8063   86.5484 C   0  0  0  0  0  0  0  0  0  0  0  0
  129.0218  117.5637   86.7212 C   0  0  0  0  0  0  0  0  0  0  0  0
  130.9044  116.2633   87.5701 C   0  0  0  0  0  0  0  0  0  0  0  0
  126.0675  114.8113   95.3327 C   0  0  0  0  0  0  0  0  0  0  0  0
  127.2295  113.9115   93.4009 C   0  0  0  0  0  0  0  0  0  0  0  0
  128.6536  116.1191   88.7639 C   0  0  0  0  0  0  0  0  0  0  0  0
  126.4983  116.1234   94.9849 C   0  0  0  0  0  0  0  0  0  0  0  0
  127.6427  115.2236   93.0780 C   0  0  0  0  0  0  0  0  0  0  0  0
  126.4349  113.6965   94.5322 C   0  0  0  0  0  0  0  0  0  0  0  0
  131.1772  117.7304   85.6190 C   0  0  0  0  0  0  0  0  0  0  0  0
  129.5392  116.6515   87.6555 C   0  0  0  0  0  0  0  0  0  0  0  0
  125.5847  117.0505   96.5653 H   0  0  0  0  0  0  0  0  0  0  0  0
  126.4575  118.1038   95.5029 H   0  0  0  0  0  0  0  0  0  0  0  0
  129.9028  114.6051   89.3043 H   0  0  0  0  0  0  0  0  0  0  0  0
  126.3411  111.6409   94.2052 H   0  0  0  0  0  0  0  0  0  0  0  0
  126.3299  112.0381   95.7892 H   0  0  0  0  0  0  0  0  0  0  0  0
  124.9846  112.2431   94.8864 H   0  0  0  0  0  0  0  0  0  0  0  0
  128.4441  113.6119   90.8082 H   0  0  0  0  0  0  0  0  0  0  0  0
  127.2445  114.6289   90.3684 H   0  0  0  0  0  0  0  0  0  0  0  0
  128.4015  116.4103   91.5736 H   0  0  0  0  0  0  0  0  0  0  0  0
  129.4642  115.2957   92.1168 H   0  0  0  0  0  0  0  0  0  0  0  0
  129.4440  118.7486   85.0468 H   0  0  0  0  0  0  0  0  0  0  0  0
  132.6913  116.5407   86.4835 H   0  0  0  0  0  0  0  0  0  0  0  0
  128.0611  117.8348   86.7799 H   0  0  0  0  0  0  0  0  0  0  0  0
  131.2825  115.6106   88.2266 H   0  0  0  0  0  0  0  0  0  0  0  0
  125.5024  114.6736   96.1462 H   0  0  0  0  0  0  0  0  0  0  0  0
  127.5033  113.1415   92.8246 H   0  0  0  0  0  0  0  0  0  0  0  0
  1 16  2  0  0  0  0
  2  7  3  0  0  0  0
  3 17  1  0  0  0  0
  4  8  1  0  0  0  0
  4 16  1  0  0  0  0
  5 17  2  0  0  0  0
  5 18  1  0  0  0  0
  6 19  1  0  0  0  0
  7 20  1  0  0  0  0
  8  9  1  0  0  0  0
  9 18  1  0  0  0  0
 10 12  1  0  0  0  0
 10 20  2  0  0  0  0
 11 13  2  0  0  0  0
 11 20  1  0  0  0  0
 12 21  2  0  0  0  0
 13 21  1  0  0  0  0
 14 17  1  0  0  0  0
 14 19  2  0  0  0  0
 15 18  2  0  0  0  0
 15 19  1  0  0  0  0
 16 21  1  0  0  0  0
  3 22  1  0  0  0  0
  3 23  1  0  0  0  0
  4 24  1  0  0  0  0
  6 25  1  0  0  0  0
  6 26  1  0  0  0  0
  6 27  1  0  0  0  0
  8 28  1  0  0  0  0
  8 29  1  0  0  0  0
  9 30  1  0  0  0  0
  9 31  1  0  0  0  0
 10 32  1  0  0  0  0
 11 33  1  0  0  0  0
 12 34  1  0  0  0  0
 13 35  1  0  0  0  0
 14 36  1  0  0  0  0
 15 37  1  0  0  0  0
M  END
> <pdb_id>
3E68

> <uniprot_id>
P29477

> <usmiles>
O=C(NCCc1nc(N)cc(c1)C)c2ccc(C#N)cc2

$$$$
ATZ_L_502
          07212403273D 1   1.00000     0.00000     0
            
 28 28  0  0  0  0            999 V2000
  131.1382   69.9301   -0.5088 Cl  0  0  0  0  0  0  0  0  0  0  0  0
  132.9010   71.9743   -4.5828 N   0  0  0  0  0  0  0  0  0  0  0  0
  132.0520   70.9837   -2.6809 N   0  0  0  0  0  0  0  0  0  0  0  0
  131.3597   68.6812   -2.7881 N   0  0  0  0  0  0  0  0  0  0  0  0
  132.2586   69.7637   -4.7392 N   0  0  0  0  0  0  0  0  0  0  0  0
  131.6156   67.5751   -4.8426 N   0  0  0  0  0  0  0  0  0  0  0  0
  133.7649   74.1636   -4.9154 C   0  0  0  0  0  0  0  0  0  0  0  0
  131.7566   65.7014   -3.1767 C   0  0  0  0  0  0  0  0  0  0  0  0
  129.5887   66.2682   -4.4572 C   0  0  0  0  0  0  0  0  0  0  0  0
  133.1217   73.2598   -3.9325 C   0  0  0  0  0  0  0  0  0  0  0  0
  131.5649   69.8576   -2.2028 C   0  0  0  0  0  0  0  0  0  0  0  0
  132.3894   70.8663   -3.9986 C   0  0  0  0  0  0  0  0  0  0  0  0
  131.7464   68.7066   -4.1060 C   0  0  0  0  0  0  0  0  0  0  0  0
  131.0937   66.2661   -4.4504 C   0  0  0  0  0  0  0  0  0  0  0  0
  133.1502   71.9049   -5.5487 H   0  0  0  0  0  0  0  0  0  0  0  0
  131.9203   67.6462   -5.7924 H   0  0  0  0  0  0  0  0  0  0  0  0
  133.9274   75.0549   -4.4921 H   0  0  0  0  0  0  0  0  0  0  0  0
  134.6361   73.7705   -5.2094 H   0  0  0  0  0  0  0  0  0  0  0  0
  133.1652   74.2753   -5.7078 H   0  0  0  0  0  0  0  0  0  0  0  0
  131.3592   64.8094   -2.9615 H   0  0  0  0  0  0  0  0  0  0  0  0
  132.7397   65.6002   -3.3294 H   0  0  0  0  0  0  0  0  0  0  0  0
  131.6007   66.3287   -2.4137 H   0  0  0  0  0  0  0  0  0  0  0  0
  129.2528   65.3659   -4.1868 H   0  0  0  0  0  0  0  0  0  0  0  0
  129.2534   66.9555   -3.8129 H   0  0  0  0  0  0  0  0  0  0  0  0
  129.2598   66.4845   -5.3765 H   0  0  0  0  0  0  0  0  0  0  0  0
  133.7186   73.1409   -3.1390 H   0  0  0  0  0  0  0  0  0  0  0  0
  132.2477   73.6457   -3.6374 H   0  0  0  0  0  0  0  0  0  0  0  0
  131.3608   65.6435   -5.1860 H   0  0  0  0  0  0  0  0  0  0  0  0
  1 11  1  0  0  0  0
  2 10  1  0  0  0  0
  2 12  1  0  0  0  0
  3 11  1  0  0  0  0
  3 12  2  0  0  0  0
  4 11  2  0  0  0  0
  4 13  1  0  0  0  0
  5 12  1  0  0  0  0
  5 13  2  0  0  0  0
  6 13  1  0  0  0  0
  6 14  1  0  0  0  0
  7 10  1  0  0  0  0
  8 14  1  0  0  0  0
  9 14  1  0  0  0  0
  2 15  1  0  0  0  0
  6 16  1  0  0  0  0
  7 17  1  0  0  0  0
  7 18  1  0  0  0  0
  7 19  1  0  0  0  0
  8 20  1  0  0  0  0
  8 21  1  0  0  0  0
  8 22  1  0  0  0  0
  9 23  1  0  0  0  0
  9 24  1  0  0  0  0
  9 25  1  0  0  0  0
 10 26  1  0  0  0  0
 10 27  1  0  0  0  0
 14 28  1  0  0  0  0
M  END
> <pdb_id>
5PRC

> <uniprot_id>
P06009

> <usmiles>
Clc1nc(nc(n1)NCC)NC(C)C

$$$$
AU8_A_403
          07192420503D 1   1.00000     0.00000     0
            
 27 28  0  0  0  0            999 V2000
 -113.8594 -178.1824  310.1493 Cl  0  0  0  0  0  0  0  0  0  0  0  0
 -112.5281 -173.1225  308.7866 Cl  0  0  0  0  0  0  0  0  0  0  0  0
 -118.1312 -175.6260  307.7189 N   0  0  0  0  0  0  0  0  0  0  0  0
 -117.4613 -174.7725  308.7010 C   0  0  0  0  0  0  0  0  0  0  0  0
 -109.2250 -176.7080  310.4293 C   0  0  0  0  0  0  0  0  0  0  0  0
 -110.1028 -176.2915  311.4184 C   0  0  0  0  0  0  0  0  0  0  0  0
 -109.6439 -176.7360  309.1071 C   0  0  0  0  0  0  0  0  0  0  0  0
 -111.3975 -175.9140  311.0902 C   0  0  0  0  0  0  0  0  0  0  0  0
 -110.9376 -176.3605  308.7760 C   0  0  0  0  0  0  0  0  0  0  0  0
 -115.5960 -176.3501  309.2792 C   0  0  0  0  0  0  0  0  0  0  0  0
 -115.0139 -174.1070  308.7221 C   0  0  0  0  0  0  0  0  0  0  0  0
 -114.2703 -176.6107  309.5628 C   0  0  0  0  0  0  0  0  0  0  0  0
 -113.6858 -174.3956  308.9847 C   0  0  0  0  0  0  0  0  0  0  0  0
 -115.9928 -175.0792  308.8854 C   0  0  0  0  0  0  0  0  0  0  0  0
 -111.8423 -175.9580  309.7646 C   0  0  0  0  0  0  0  0  0  0  0  0
 -113.2680 -175.6544  309.4270 C   0  0  0  0  0  0  0  0  0  0  0  0
 -119.0943 -175.3649  307.6522 H   0  0  0  0  0  0  0  0  0  0  0  0
 -117.6932 -175.5149  306.8269 H   0  0  0  0  0  0  0  0  0  0  0  0
 -117.9194 -174.8885  309.5823 H   0  0  0  0  0  0  0  0  0  0  0  0
 -117.5486 -173.8221  308.4026 H   0  0  0  0  0  0  0  0  0  0  0  0
 -108.2947 -176.9868  310.6678 H   0  0  0  0  0  0  0  0  0  0  0  0
 -109.8020 -176.2630  312.3716 H   0  0  0  0  0  0  0  0  0  0  0  0
 -109.0109 -177.0280  308.3901 H   0  0  0  0  0  0  0  0  0  0  0  0
 -112.0199 -175.6069  311.8102 H   0  0  0  0  0  0  0  0  0  0  0  0
 -111.2271 -176.3777  307.8190 H   0  0  0  0  0  0  0  0  0  0  0  0
 -116.2742 -177.0807  309.3579 H   0  0  0  0  0  0  0  0  0  0  0  0
 -115.2707 -173.1915  308.4124 H   0  0  0  0  0  0  0  0  0  0  0  0
  1 12  1  0  0  0  0
  2 13  1  0  0  0  0
  3  4  1  0  0  0  0
  4 14  1  0  0  0  0
  5  6  2  0  0  0  0
  5  7  1  0  0  0  0
  6  8  1  0  0  0  0
  7  9  2  0  0  0  0
  8 15  2  0  0  0  0
  9 15  1  0  0  0  0
 10 12  2  0  0  0  0
 10 14  1  0  0  0  0
 11 13  1  0  0  0  0
 11 14  2  0  0  0  0
 12 16  1  0  0  0  0
 13 16  2  0  0  0  0
 15 16  1  0  0  0  0
  3 17  1  0  0  0  0
  3 18  1  0  0  0  0
  4 19  1  0  0  0  0
  4 20  1  0  0  0  0
  5 21  1  0  0  0  0
  6 22  1  0  0  0  0
  7 23  1  0  0  0  0
  8 24  1  0  0  0  0
  9 25  1  0  0  0  0
 10 26  1  0  0  0  0
 11 27  1  0  0  0  0
M  END
> <pdb_id>
5OTR

> <uniprot_id>
P68400

> <usmiles>
Clc1c(c(Cl)cc(c1)CN)c2ccccc2

$$$$
AUQ_A_502
          07212402413D 1   1.00000     0.00000     0
            
 37 38  0  0  0  0            999 V2000
  136.3132   13.1421   -1.9347 I   0  0  0  0  0  0  0  0  0  0  0  0
  133.2602   14.0375    4.5095 O   0  0  0  0  0  0  0  0  0  0  0  0
  128.1419   18.0086    4.3902 O   0  0  0  0  0  0  0  0  0  0  0  0
  132.7270   15.6257    6.5903 O   0  0  0  0  0  0  0  0  0  0  0  0
  135.0860   15.2880    3.8367 N   0  0  0  0  0  0  0  0  0  0  0  0
  128.0847   18.4157    3.0413 C   0  0  0  0  0  0  0  0  0  0  0  0
  134.9909   15.1809    7.0650 C   0  0  0  0  0  0  0  0  0  0  0  0
  136.3680   15.0335    0.4169 C   0  0  0  0  0  0  0  0  0  0  0  0
  135.1142   13.0278    0.8833 C   0  0  0  0  0  0  0  0  0  0  0  0
  129.2436   16.5172    5.8974 C   0  0  0  0  0  0  0  0  0  0  0  0
  130.6049   17.8071    4.3992 C   0  0  0  0  0  0  0  0  0  0  0  0
  130.3771   15.9319    6.4354 C   0  0  0  0  0  0  0  0  0  0  0  0
  131.7513   17.2177    4.9433 C   0  0  0  0  0  0  0  0  0  0  0  0
  136.0888   15.4930    1.6875 C   0  0  0  0  0  0  0  0  0  0  0  0
  134.8369   13.4922    2.1600 C   0  0  0  0  0  0  0  0  0  0  0  0
  135.8782   13.8059    0.0223 C   0  0  0  0  0  0  0  0  0  0  0  0
  134.0608   14.9260    4.7420 C   0  0  0  0  0  0  0  0  0  0  0  0
  129.3451   17.4484    4.8751 C   0  0  0  0  0  0  0  0  0  0  0  0
  131.6348   16.2716    5.9643 C   0  0  0  0  0  0  0  0  0  0  0  0
  134.0121   15.7140    6.0370 C   0  0  1  0  0  0  0  0  0  0  0  0
  135.3288   14.7279    2.5557 C   0  0  0  0  0  0  0  0  0  0  0  0
  135.7052   16.0161    4.1307 H   0  0  0  0  0  0  0  0  0  0  0  0
  127.1784   18.7895    2.8441 H   0  0  0  0  0  0  0  0  0  0  0  0
  128.7779   19.1171    2.8752 H   0  0  0  0  0  0  0  0  0  0  0  0
  128.2573   17.6294    2.4482 H   0  0  0  0  0  0  0  0  0  0  0  0
  135.9198   15.2310    6.6982 H   0  0  0  0  0  0  0  0  0  0  0  0
  134.9315   15.7306    7.8983 H   0  0  0  0  0  0  0  0  0  0  0  0
  134.7669   14.2296    7.2765 H   0  0  0  0  0  0  0  0  0  0  0  0
  136.9189   15.5839   -0.2105 H   0  0  0  0  0  0  0  0  0  0  0  0
  134.7667   12.1390    0.5844 H   0  0  0  0  0  0  0  0  0  0  0  0
  128.3422   16.2657    6.2498 H   0  0  0  0  0  0  0  0  0  0  0  0
  130.6895   18.4854    3.6693 H   0  0  0  0  0  0  0  0  0  0  0  0
  130.2872   15.2589    7.1696 H   0  0  0  0  0  0  0  0  0  0  0  0
  132.6551   17.4741    4.6008 H   0  0  0  0  0  0  0  0  0  0  0  0
  136.4369   16.3828    1.9827 H   0  0  0  0  0  0  0  0  0  0  0  0
  134.2879   12.9421    2.7894 H   0  0  0  0  0  0  0  0  0  0  0  0
  134.2237   16.6728    5.8472 H   0  0  0  0  0  0  0  0  0  0  0  0
  1 16  1  0  0  0  0
  2 17  2  0  0  0  0
  3  6  1  0  0  0  0
  3 18  1  0  0  0  0
  4 19  1  0  0  0  0
  4 20  1  0  0  0  0
  5 17  1  0  0  0  0
  5 21  1  0  0  0  0
  7 20  1  0  0  0  0
  8 14  1  0  0  0  0
  8 16  2  0  0  0  0
  9 15  2  0  0  0  0
  9 16  1  0  0  0  0
 10 12  2  0  0  0  0
 10 18  1  0  0  0  0
 11 13  1  0  0  0  0
 11 18  2  0  0  0  0
 12 19  1  0  0  0  0
 13 19  2  0  0  0  0
 14 21  2  0  0  0  0
 15 21  1  0  0  0  0
 17 20  1  0  0  0  0
  5 22  1  0  0  0  0
  6 23  1  0  0  0  0
  6 24  1  0  0  0  0
  6 25  1  0  0  0  0
  7 26  1  0  0  0  0
  7 27  1  0  0  0  0
  7 28  1  0  0  0  0
  8 29  1  0  0  0  0
  9 30  1  0  0  0  0
 10 31  1  0  0  0  0
 11 32  1  0  0  0  0
 12 33  1  0  0  0  0
 13 34  1  0  0  0  0
 14 35  1  0  0  0  0
 15 36  1  0  0  0  0
 20 37  1  0  0  0  0
M  END
> <pdb_id>
5OU1

> <uniprot_id>
G7CNL4

> <usmiles>
Ic1ccc(NC(=O)[C@@H](Oc2ccc(OC)cc2)C)cc1

$$$$
AUT_A_404
          07192420503D 1   1.00000     0.00000     0
            
 33 34  0  0  0  0            999 V2000
 -112.4940 -172.9510  308.8990 Cl  0  0  0  0  0  0  0  0  0  0  0  0
 -113.6110 -178.1800  309.6750 Cl  0  0  0  0  0  0  0  0  0  0  0  0
 -117.9610 -175.7380  307.6980 N   0  0  0  0  0  0  0  0  0  0  0  0
 -110.8530 -175.3290  306.3140 C   0  0  0  0  0  0  0  0  0  0  0  0
 -117.3480 -174.7430  308.5690 C   0  0  0  0  0  0  0  0  0  0  0  0
 -109.1140 -176.4620  310.3730 C   0  0  0  0  0  0  0  0  0  0  0  0
 -110.0040 -176.0030  311.3150 C   0  0  0  0  0  0  0  0  0  0  0  0
 -111.2420 -176.4560  307.2280 C   0  0  0  0  0  0  0  0  0  0  0  0
 -109.5070 -176.5980  309.0550 C   0  0  0  0  0  0  0  0  0  0  0  0
 -111.2980 -175.6770  310.9480 C   0  0  0  0  0  0  0  0  0  0  0  0
 -114.9460 -174.0150  308.7120 C   0  0  0  0  0  0  0  0  0  0  0  0
 -115.4460 -176.3200  309.0690 C   0  0  0  0  0  0  0  0  0  0  0  0
 -113.6150 -174.2720  308.9730 C   0  0  0  0  0  0  0  0  0  0  0  0
 -114.1100 -176.5590  309.3230 C   0  0  0  0  0  0  0  0  0  0  0  0
 -115.8850 -175.0380  308.7710 C   0  0  0  0  0  0  0  0  0  0  0  0
 -110.8060 -176.2820  308.6650 C   0  0  0  0  0  0  0  0  0  0  0  0
 -111.7180 -175.8190  309.6250 C   0  0  0  0  0  0  0  0  0  0  0  0
 -113.1530 -175.5480  309.2960 C   0  0  0  0  0  0  0  0  0  0  0  0
 -118.9303 -175.5236  307.5775 H   0  0  0  0  0  0  0  0  0  0  0  0
 -117.5044 -175.7288  306.8084 H   0  0  0  0  0  0  0  0  0  0  0  0
 -111.1780 -175.5231  305.3884 H   0  0  0  0  0  0  0  0  0  0  0  0
 -111.2646 -174.4780  306.6402 H   0  0  0  0  0  0  0  0  0  0  0  0
 -109.8574 -175.2356  306.3050 H   0  0  0  0  0  0  0  0  0  0  0  0
 -117.8102 -174.7542  309.4557 H   0  0  0  0  0  0  0  0  0  0  0  0
 -117.4458 -173.8387  308.1535 H   0  0  0  0  0  0  0  0  0  0  0  0
 -108.1802 -176.6980  310.6421 H   0  0  0  0  0  0  0  0  0  0  0  0
 -109.7157 -175.9045  312.2675 H   0  0  0  0  0  0  0  0  0  0  0  0
 -110.8311 -177.2976  306.8774 H   0  0  0  0  0  0  0  0  0  0  0  0
 -112.2383 -176.5400  307.2126 H   0  0  0  0  0  0  0  0  0  0  0  0
 -108.8520 -176.9266  308.3746 H   0  0  0  0  0  0  0  0  0  0  0  0
 -111.9377 -175.3366  311.6372 H   0  0  0  0  0  0  0  0  0  0  0  0
 -115.2364 -173.0869  308.4790 H   0  0  0  0  0  0  0  0  0  0  0  0
 -116.1008 -177.0751  309.1000 H   0  0  0  0  0  0  0  0  0  0  0  0
  1 13  1  0  0  0  0
  2 14  1  0  0  0  0
  3  5  1  0  0  0  0
  4  8  1  0  0  0  0
  5 15  1  0  0  0  0
  6  7  2  0  0  0  0
  6  9  1  0  0  0  0
  7 10  1  0  0  0  0
  8 16  1  0  0  0  0
  9 16  2  0  0  0  0
 10 17  2  0  0  0  0
 11 13  2  0  0  0  0
 11 15  1  0  0  0  0
 12 14  1  0  0  0  0
 12 15  2  0  0  0  0
 13 18  1  0  0  0  0
 14 18  2  0  0  0  0
 16 17  1  0  0  0  0
 17 18  1  0  0  0  0
  3 19  1  0  0  0  0
  3 20  1  0  0  0  0
  4 21  1  0  0  0  0
  4 22  1  0  0  0  0
  4 23  1  0  0  0  0
  5 24  1  0  0  0  0
  5 25  1  0  0  0  0
  6 26  1  0  0  0  0
  7 27  1  0  0  0  0
  8 28  1  0  0  0  0
  8 29  1  0  0  0  0
  9 30  1  0  0  0  0
 10 31  1  0  0  0  0
 11 32  1  0  0  0  0
 12 33  1  0  0  0  0
M  END
> <pdb_id>
5OTZ

> <uniprot_id>
P68400

> <usmiles>
Clc1c(c(Cl)cc(c1)CN)c2c(cccc2)CC

$$$$
AV9_A_3169
          07192423583D 1   1.00000     0.00000     0
            
 51 54  0  0  0  0            999 V2000
   29.6063  -30.0683  -11.8243 Cl  0  0  0  0  0  0  0  0  0  0  0  0
   28.5243  -29.8855  -16.6343 O   0  0  0  0  0  0  0  0  0  0  0  0
   32.1548  -31.6033  -19.4637 O   0  0  0  0  0  0  0  0  0  0  0  0
   19.2584  -25.7778   -9.9637 O   0  0  0  0  0  0  0  0  0  0  0  0
   19.6652  -28.3713  -10.3085 O   0  0  0  0  0  0  0  0  0  0  0  0
   24.5718  -28.8545  -11.8735 O   0  0  0  0  0  0  0  0  0  0  0  0
   31.9228  -31.9533  -18.1397 N   0  0  0  0  0  0  0  0  0  0  0  0
   23.8386  -24.7085  -11.3374 N   0  0  0  0  0  0  0  0  0  0  0  0
   30.3318  -31.3641  -16.4641 N   0  0  0  0  0  0  0  0  0  0  0  0
   28.9498  -31.0149  -14.6477 N   0  0  0  0  0  0  0  0  0  0  0  0
   18.9523  -24.3874   -9.7565 C   0  0  0  0  0  0  0  0  0  0  0  0
   19.8098  -29.7885  -10.4771 C   0  0  0  0  0  0  0  0  0  0  0  0
   31.3156  -30.2070  -21.2566 C   0  0  0  0  0  0  0  0  0  0  0  0
   25.0671  -25.1244  -11.7626 C   0  0  0  0  0  0  0  0  0  0  0  0
   25.4044  -26.4614  -11.9693 C   0  0  0  0  0  0  0  0  0  0  0  0
   25.4669  -29.8497  -13.8263 C   0  0  0  0  0  0  0  0  0  0  0  0
   26.5556  -30.3901  -14.5223 C   0  0  0  0  0  0  0  0  0  0  0  0
   26.9543  -29.4489  -11.8745 C   0  0  0  0  0  0  0  0  0  0  0  0
   30.3829  -30.4372  -18.8420 C   0  0  0  0  0  0  0  0  0  0  0  0
   21.5990  -25.2079  -10.6579 C   0  0  0  0  0  0  0  0  0  0  0  0
   22.0352  -27.9789  -11.0141 C   0  0  0  0  0  0  0  0  0  0  0  0
   29.2088  -30.6754  -15.9851 C   0  0  0  0  0  0  0  0  0  0  0  0
   28.0530  -29.9949  -12.5896 C   0  0  0  0  0  0  0  0  0  0  0  0
   30.8491  -31.2486  -17.7617 C   0  0  0  0  0  0  0  0  0  0  0  0
   31.2279  -30.6967  -19.8701 C   0  0  0  0  0  0  0  0  0  0  0  0
   25.6617  -29.3815  -12.5154 C   0  0  0  0  0  0  0  0  0  0  0  0
   20.5290  -26.1320  -10.3923 C   0  0  0  0  0  0  0  0  0  0  0  0
   20.7494  -27.5380  -10.5762 C   0  0  0  0  0  0  0  0  0  0  0  0
   24.4034  -27.4574  -11.7221 C   0  0  0  0  0  0  0  0  0  0  0  0
   27.8591  -30.4699  -13.9236 C   0  0  0  0  0  0  0  0  0  0  0  0
   22.8676  -25.6351  -11.0954 C   0  0  0  0  0  0  0  0  0  0  0  0
   23.0972  -27.0559  -11.2776 C   0  0  0  0  0  0  0  0  0  0  0  0
   30.7985  -31.9839  -15.8332 H   0  0  0  0  0  0  0  0  0  0  0  0
   29.5563  -31.6644  -14.1892 H   0  0  0  0  0  0  0  0  0  0  0  0
   18.0046  -24.2966   -9.4506 H   0  0  0  0  0  0  0  0  0  0  0  0
   19.5646  -24.0113   -9.0609 H   0  0  0  0  0  0  0  0  0  0  0  0
   19.0751  -23.8877  -10.6139 H   0  0  0  0  0  0  0  0  0  0  0  0
   18.9486  -30.2412  -10.2462 H   0  0  0  0  0  0  0  0  0  0  0  0
   20.0472  -29.9885  -11.4277 H   0  0  0  0  0  0  0  0  0  0  0  0
   20.5345  -30.1236   -9.8749 H   0  0  0  0  0  0  0  0  0  0  0  0
   30.5806  -29.5501  -21.4252 H   0  0  0  0  0  0  0  0  0  0  0  0
   32.1997  -29.7614  -21.3975 H   0  0  0  0  0  0  0  0  0  0  0  0
   31.2259  -30.9769  -21.8884 H   0  0  0  0  0  0  0  0  0  0  0  0
   25.7656  -24.4301  -11.9359 H   0  0  0  0  0  0  0  0  0  0  0  0
   26.3191  -26.7184  -12.2813 H   0  0  0  0  0  0  0  0  0  0  0  0
   24.5651  -29.7978  -14.2553 H   0  0  0  0  0  0  0  0  0  0  0  0
   26.4229  -30.7272  -15.4544 H   0  0  0  0  0  0  0  0  0  0  0  0
   27.0740  -29.1154  -10.9394 H   0  0  0  0  0  0  0  0  0  0  0  0
   29.6019  -29.8128  -18.8400 H   0  0  0  0  0  0  0  0  0  0  0  0
   21.4366  -24.2298  -10.5274 H   0  0  0  0  0  0  0  0  0  0  0  0
   22.1979  -28.9575  -11.1399 H   0  0  0  0  0  0  0  0  0  0  0  0
  1 23  1  0  0  0  0
  2 22  2  0  0  0  0
  3  7  1  0  0  0  0
  3 25  1  0  0  0  0
  4 11  1  0  0  0  0
  4 27  1  0  0  0  0
  5 12  1  0  0  0  0
  5 28  1  0  0  0  0
  6 26  1  0  0  0  0
  6 29  1  0  0  0  0
  7 24  2  0  0  0  0
  8 14  2  0  0  0  0
  8 31  1  0  0  0  0
  9 22  1  0  0  0  0
  9 24  1  0  0  0  0
 10 22  1  0  0  0  0
 10 30  1  0  0  0  0
 13 25  1  0  0  0  0
 14 15  1  0  0  0  0
 15 29  2  0  0  0  0
 16 17  2  0  0  0  0
 16 26  1  0  0  0  0
 17 30  1  0  0  0  0
 18 23  1  0  0  0  0
 18 26  2  0  0  0  0
 19 24  1  0  0  0  0
 19 25  2  0  0  0  0
 20 27  1  0  0  0  0
 20 31  2  0  0  0  0
 21 28  1  0  0  0  0
 21 32  2  0  0  0  0
 23 30  2  0  0  0  0
 27 28  2  0  0  0  0
 29 32  1  0  0  0  0
 31 32  1  0  0  0  0
  9 33  1  0  0  0  0
 10 34  1  0  0  0  0
 11 35  1  0  0  0  0
 11 36  1  0  0  0  0
 11 37  1  0  0  0  0
 12 38  1  0  0  0  0
 12 39  1  0  0  0  0
 12 40  1  0  0  0  0
 13 41  1  0  0  0  0
 13 42  1  0  0  0  0
 13 43  1  0  0  0  0
 14 44  1  0  0  0  0
 15 45  1  0  0  0  0
 16 46  1  0  0  0  0
 17 47  1  0  0  0  0
 18 48  1  0  0  0  0
 19 49  1  0  0  0  0
 20 50  1  0  0  0  0
 21 51  1  0  0  0  0
M  END
> <pdb_id>
4ASE

> <uniprot_id>
P35968

> <usmiles>
Clc1c(NC(=O)NC2=NOC(=C2)C)ccc(Oc3c4c(ncc3)cc(OC)c(OC)c4)c1

$$$$
AVI_A_401
          07212403133D 1   1.00000     0.00000     0
            
 27 27  0  0  0  0            999 V2000
   29.2712   -8.4591   22.2167 O   0  0  0  0  0  0  0  0  0  0  0  0
   29.1113   -6.7395   23.5491 O   0  0  0  0  0  0  0  0  0  0  0  0
   25.7685   -7.0204   20.7806 N   0  0  0  0  0  0  0  0  0  0  0  0
   25.1948   -5.5445   22.2107 N   0  0  0  0  0  0  0  0  0  0  0  0
   30.6315   -6.6433   20.4932 N   0  3  0  0  0  0  0  0  0  0  0  0
   30.7586   -5.7694   19.3285 C   0  0  0  0  0  0  0  0  0  0  0  0
   31.7241   -6.2801   21.4000 C   0  0  0  0  0  0  0  0  0  0  0  0
   24.7644   -6.5721   21.5091 C   0  0  0  0  0  0  0  0  0  0  0  0
   26.5182   -5.3470   21.9039 C   0  0  0  0  0  0  0  0  0  0  0  0
   28.1571   -6.5707   20.3060 C   0  0  0  0  0  0  0  0  0  0  0  0
   29.2509   -7.2462   22.4371 C   0  0  0  0  0  0  0  0  0  0  0  0
   26.8561   -6.2973   20.9933 C   0  0  0  0  0  0  0  0  0  0  0  0
   29.3824   -6.3565   21.2004 C   0  0  1  0  0  0  0  0  0  0  0  0
   24.7292   -5.0789   22.7622 H   0  0  0  0  0  0  0  0  0  0  0  0
   30.6759   -7.4714   20.2667 H   0  0  0  0  0  0  0  0  0  0  0  0
   30.5325   -4.8518   19.5868 H   0  0  0  0  0  0  0  0  0  0  0  0
   31.6830   -5.7960   19.0041 H   0  0  0  0  0  0  0  0  0  0  0  0
   30.1557   -6.0640   18.6151 H   0  0  0  0  0  0  0  0  0  0  0  0
   31.8419   -6.9860   22.0694 H   0  0  0  0  0  0  0  0  0  0  0  0
   31.5090   -5.4362   21.8493 H   0  0  0  0  0  0  0  0  0  0  0  0
   32.5524   -6.1751   20.8863 H   0  0  0  0  0  0  0  0  0  0  0  0
   23.9024   -6.9217   21.5249 H   0  0  0  0  0  0  0  0  0  0  0  0
   27.0761   -4.6887   22.2522 H   0  0  0  0  0  0  0  0  0  0  0  0
   28.1459   -7.4921   20.0027 H   0  0  0  0  0  0  0  0  0  0  0  0
   28.2191   -5.9797   19.5389 H   0  0  0  0  0  0  0  0  0  0  0  0
   29.3866   -5.4220   21.4949 H   0  0  0  0  0  0  0  0  0  0  0  0
   29.3890   -8.7956   21.2824 H   0  0  0  0  0  0  0  0  0  0  0  0
  1 11  1  0  0  0  0
  2 11  2  0  0  0  0
  3  8  2  0  0  0  0
  3 12  1  0  0  0  0
  4  8  1  0  0  0  0
  4  9  1  0  0  0  0
  4 14  1  0  0  0  0
  5  6  1  0  0  0  0
  5  7  1  0  0  0  0
  5 13  1  0  0  0  0
  5 15  1  0  0  0  0
  6 16  1  0  0  0  0
  6 17  1  0  0  0  0
  6 18  1  0  0  0  0
  7 19  1  0  0  0  0
  7 20  1  0  0  0  0
  7 21  1  0  0  0  0
  8 22  1  0  0  0  0
  9 12  2  0  0  0  0
  9 23  1  0  0  0  0
 10 12  1  0  0  0  0
 10 13  1  0  0  0  0
 10 24  1  0  0  0  0
 10 25  1  0  0  0  0
 11 13  1  0  0  0  0
 13 26  1  0  0  0  0
  1 27  1  0  0  0  0
M  CHG  1   5   1
M  END
> <pdb_id>
4PIN

> <uniprot_id>
A0R5M8

> <usmiles>
O=C(O)[C@@H]([NH+](C)C)CC=1N=CNC1

$$$$
AVJ_A_401
          07212403133D 1   1.00000     0.00000     0
            
 30 30  0  0  0  0            999 V2000
   29.0131   -6.6735   23.4677 O   0  0  0  0  0  0  0  0  0  0  0  0
   29.2530   -8.3383   22.0741 O   0  0  0  0  0  0  0  0  0  0  0  0
   24.9996   -5.4441   22.2210 N   0  0  0  0  0  0  0  0  0  0  0  0
   25.6832   -6.9463   20.6939 N   0  0  0  0  0  0  0  0  0  0  0  0
   30.6074   -6.1212   20.4901 N   0  3  0  0  0  0  0  0  0  0  0  0
   30.6680   -7.2095   19.5320 C   0  0  0  0  0  0  0  0  0  0  0  0
   30.8347   -4.8765   19.7279 C   0  0  0  0  0  0  0  0  0  0  0  0
   31.6968   -6.2476   21.4208 C   0  0  0  0  0  0  0  0  0  0  0  0
   24.6218   -6.5397   21.4929 C   0  0  0  0  0  0  0  0  0  0  0  0
   26.3238   -5.1662   21.8842 C   0  0  0  0  0  0  0  0  0  0  0  0
   28.1171   -6.1814   20.2427 C   0  0  0  0  0  0  0  0  0  0  0  0
   29.1594   -7.0823   22.2939 C   0  0  0  0  0  0  0  0  0  0  0  0
   26.7394   -6.0911   20.9410 C   0  0  0  0  0  0  0  0  0  0  0  0
   29.3122   -6.0563   21.1930 C   0  0  1  0  0  0  0  0  0  0  0  0
   25.6827   -7.6547   20.1089 H   0  0  0  0  0  0  0  0  0  0  0  0
   31.5688   -7.2537   19.1441 H   0  0  0  0  0  0  0  0  0  0  0  0
   30.0123   -7.0551   18.8188 H   0  0  0  0  0  0  0  0  0  0  0  0
   30.4651   -8.0563   19.9844 H   0  0  0  0  0  0  0  0  0  0  0  0
   30.0120   -4.6306   19.2502 H   0  0  0  0  0  0  0  0  0  0  0  0
   31.5602   -5.0167   19.0805 H   0  0  0  0  0  0  0  0  0  0  0  0
   31.0828   -4.1540   20.3467 H   0  0  0  0  0  0  0  0  0  0  0  0
   31.7954   -5.4132   21.9216 H   0  0  0  0  0  0  0  0  0  0  0  0
   32.5225   -6.4343   20.9321 H   0  0  0  0  0  0  0  0  0  0  0  0
   31.5116   -6.9803   22.0419 H   0  0  0  0  0  0  0  0  0  0  0  0
   23.7420   -6.9684   21.5284 H   0  0  0  0  0  0  0  0  0  0  0  0
   26.8667   -4.4418   22.2517 H   0  0  0  0  0  0  0  0  0  0  0  0
   28.1739   -5.4597   19.5796 H   0  0  0  0  0  0  0  0  0  0  0  0
   28.1750   -7.0493   19.7874 H   0  0  0  0  0  0  0  0  0  0  0  0
   29.3159   -5.1687   21.6017 H   0  0  0  0  0  0  0  0  0  0  0  0
   28.9389   -5.6930   23.6501 H   0  0  0  0  0  0  0  0  0  0  0  0
  1 12  1  0  0  0  0
  2 12  2  0  0  0  0
  3  9  2  0  0  0  0
  3 10  1  0  0  0  0
  4  9  1  0  0  0  0
  4 13  1  0  0  0  0
  4 15  1  0  0  0  0
  5  6  1  0  0  0  0
  5  7  1  0  0  0  0
  5  8  1  0  0  0  0
  5 14  1  0  0  0  0
  6 16  1  0  0  0  0
  6 17  1  0  0  0  0
  6 18  1  0  0  0  0
  7 19  1  0  0  0  0
  7 20  1  0  0  0  0
  7 21  1  0  0  0  0
  8 22  1  0  0  0  0
  8 23  1  0  0  0  0
  8 24  1  0  0  0  0
  9 25  1  0  0  0  0
 10 13  2  0  0  0  0
 10 26  1  0  0  0  0
 11 13  1  0  0  0  0
 11 14  1  0  0  0  0
 11 27  1  0  0  0  0
 11 28  1  0  0  0  0
 12 14  1  0  0  0  0
 14 29  1  0  0  0  0
  1 30  1  0  0  0  0
M  CHG  1   5   1
M  END
> <pdb_id>
6FNQ

> <uniprot_id>
nan

> <usmiles>
O=C(O)[C@@H]([N+](C)(C)C)CC=1NC=NC1

$$$$
AVO_B_401
          07212403133D 1   1.00000     0.00000     0
            
 31 32  0  0  0  0            999 V2000
   29.0292   -6.6362   23.4145 O   0  0  0  0  0  0  0  0  0  0  0  0
   29.3953   -8.3558   22.1445 O   0  0  0  0  0  0  0  0  0  0  0  0
   25.2211   -5.3785   22.2077 N   0  0  0  0  0  0  0  0  0  0  0  0
   25.6643   -6.9995   20.7692 N   0  0  0  0  0  0  0  0  0  0  0  0
   30.4971   -6.4129   20.3306 N   0  3  0  0  0  0  0  0  0  0  0  0
   24.6909   -6.4669   21.5913 C   0  0  0  0  0  0  0  0  0  0  0  0
   26.5115   -5.2277   21.7794 C   0  0  0  0  0  0  0  0  0  0  0  0
   30.5526   -5.6016   19.1526 C   0  0  0  0  0  0  0  0  0  0  0  0
   31.5965   -6.1216   21.1686 C   0  0  0  0  0  0  0  0  0  0  0  0
   32.0550   -5.2628   18.9451 C   0  0  0  0  0  0  0  0  0  0  0  0
   32.5828   -5.2203   20.3677 C   0  0  0  0  0  0  0  0  0  0  0  0
   28.0662   -6.4638   20.1622 C   0  0  0  0  0  0  0  0  0  0  0  0
   29.2269   -7.1202   22.2699 C   0  0  0  0  0  0  0  0  0  0  0  0
   26.7847   -6.2376   20.8940 C   0  0  0  0  0  0  0  0  0  0  0  0
   29.2766   -6.1957   21.0493 C   0  0  1  0  0  0  0  0  0  0  0  0
   25.5743   -7.7345   20.2404 H   0  0  0  0  0  0  0  0  0  0  0  0
   30.5417   -7.2970   20.0834 H   0  0  0  0  0  0  0  0  0  0  0  0
   23.7876   -6.8108   21.7092 H   0  0  0  0  0  0  0  0  0  0  0  0
   27.1277   -4.5311   22.0575 H   0  0  0  0  0  0  0  0  0  0  0  0
   30.2060   -6.1036   18.3764 H   0  0  0  0  0  0  0  0  0  0  0  0
   30.0340   -4.7798   19.2831 H   0  0  0  0  0  0  0  0  0  0  0  0
   32.0468   -6.9588   21.4299 H   0  0  0  0  0  0  0  0  0  0  0  0
   31.2851   -5.6424   21.9731 H   0  0  0  0  0  0  0  0  0  0  0  0
   32.1599   -4.3722   18.5014 H   0  0  0  0  0  0  0  0  0  0  0  0
   32.5090   -5.9782   18.4209 H   0  0  0  0  0  0  0  0  0  0  0  0
   32.5671   -4.3075   20.7100 H   0  0  0  0  0  0  0  0  0  0  0  0
   33.4735   -5.5810   20.4062 H   0  0  0  0  0  0  0  0  0  0  0  0
   28.1002   -5.8639   19.3845 H   0  0  0  0  0  0  0  0  0  0  0  0
   28.0979   -7.3987   19.8489 H   0  0  0  0  0  0  0  0  0  0  0  0
   29.2469   -5.2518   21.3577 H   0  0  0  0  0  0  0  0  0  0  0  0
   28.8939   -5.6515   23.5245 H   0  0  0  0  0  0  0  0  0  0  0  0
  1 13  1  0  0  0  0
  2 13  2  0  0  0  0
  3  6  2  0  0  0  0
  3  7  1  0  0  0  0
  4  6  1  0  0  0  0
  4 14  1  0  0  0  0
  4 16  1  0  0  0  0
  5  8  1  0  0  0  0
  5  9  1  0  0  0  0
  5 15  1  0  0  0  0
  5 17  1  0  0  0  0
  6 18  1  0  0  0  0
  7 14  2  0  0  0  0
  7 19  1  0  0  0  0
  8 10  1  0  0  0  0
  8 20  1  0  0  0  0
  8 21  1  0  0  0  0
  9 11  1  0  0  0  0
  9 22  1  0  0  0  0
  9 23  1  0  0  0  0
 10 11  1  0  0  0  0
 10 24  1  0  0  0  0
 10 25  1  0  0  0  0
 11 26  1  0  0  0  0
 11 27  1  0  0  0  0
 12 14  1  0  0  0  0
 12 15  1  0  0  0  0
 12 28  1  0  0  0  0
 12 29  1  0  0  0  0
 13 15  1  0  0  0  0
 15 30  1  0  0  0  0
  1 31  1  0  0  0  0
M  CHG  1   5   1
M  END
> <pdb_id>
6FNT

> <uniprot_id>
nan

> <usmiles>
O=C(O)[C@@H]([NH+]1CCCC1)CC=2NC=NC2

$$$$
AWF_A_1500
          07192418053D 1   1.00000     0.00000     0
            
 55 58  0  0  0  0            999 V2000
    4.5552   19.8784    7.4971 S   0  0  0  0  0  0  0  0  0  0  0  0
    8.8696   16.5621   12.0201 F   0  0  0  0  0  0  0  0  0  0  0  0
    5.9904   22.0646    6.2206 O   0  0  0  0  0  0  0  0  0  0  0  0
    5.1254   14.7634    9.0336 O   0  0  0  0  0  0  0  0  0  0  0  0
    3.0619   14.2095   10.7661 N   0  0  0  0  0  0  0  0  0  0  0  0
    7.2668   18.5463    6.1622 N   0  0  0  0  0  0  0  0  0  0  0  0
    7.8587   16.3972    5.6009 N   0  0  0  0  0  0  0  0  0  0  0  0
    2.0106   16.3116   10.2357 N   0  0  0  0  0  0  0  0  0  0  0  0
    2.4754   21.1145    6.6704 N   0  0  0  0  0  0  0  0  0  0  0  0
    7.6871   17.3131    6.5825 N   0  0  0  0  0  0  0  0  0  0  0  0
    6.9010   13.5518    7.9721 C   0  0  0  0  0  0  0  0  0  0  0  0
    0.5311   19.8069    7.3833 C   0  0  0  0  0  0  0  0  0  0  0  0
    4.2308   23.6477    6.6172 C   0  0  0  0  0  0  0  0  0  0  0  0
    4.3194   22.2672    4.5126 C   0  0  0  0  0  0  0  0  0  0  0  0
    7.1707   18.3857    4.8433 C   0  0  0  0  0  0  0  0  0  0  0  0
    7.5296   17.0848    4.5040 C   0  0  0  0  0  0  0  0  0  0  0  0
    2.0009   17.5041    9.5408 C   0  0  0  0  0  0  0  0  0  0  0  0
    9.1675   17.7545    9.9921 C   0  0  0  0  0  0  0  0  0  0  0  0
    8.8502   17.9179    8.6241 C   0  0  0  0  0  0  0  0  0  0  0  0
    7.6534   15.8294   10.1097 C   0  0  0  0  0  0  0  0  0  0  0  0
    4.0547   16.9563    8.4608 C   0  0  0  0  0  0  0  0  0  0  0  0
    3.7933   21.1750    6.6824 C   0  0  0  0  0  0  0  0  0  0  0  0
    8.5697   16.7141   10.7228 C   0  0  0  0  0  0  0  0  0  0  0  0
    3.0205   19.1605    7.8687 C   0  0  0  0  0  0  0  0  0  0  0  0
    6.2795   14.9468    8.1462 C   0  0  2  0  0  0  0  0  0  0  0  0
    3.0596   15.4257   10.0447 C   0  0  0  0  0  0  0  0  0  0  0  0
    4.1196   15.7150    9.1504 C   0  0  0  0  0  0  0  0  0  0  0  0
    2.0144   19.9829    7.3345 C   0  0  0  0  0  0  0  0  0  0  0  0
    7.9246   17.0388    7.9683 C   0  0  0  0  0  0  0  0  0  0  0  0
    3.0063   17.8869    8.6273 C   0  0  0  0  0  0  0  0  0  0  0  0
    7.3008   15.9609    8.7143 C   0  0  0  0  0  0  0  0  0  0  0  0
    4.5855   22.2850    6.0244 C   0  0  0  0  0  0  0  0  0  0  0  0
    6.2448   21.1759    5.8391 H   0  0  0  0  0  0  0  0  0  0  0  0
    3.8092   13.5566   10.6431 H   0  0  0  0  0  0  0  0  0  0  0  0
    2.3161   14.0024   11.3993 H   0  0  0  0  0  0  0  0  0  0  0  0
    7.6984   13.6147    7.3719 H   0  0  0  0  0  0  0  0  0  0  0  0
    7.1824   13.1985    8.8643 H   0  0  0  0  0  0  0  0  0  0  0  0
    6.2266   12.9346    7.5668 H   0  0  0  0  0  0  0  0  0  0  0  0
    0.3112   18.9676    7.8805 H   0  0  0  0  0  0  0  0  0  0  0  0
    0.1178   20.5888    7.8501 H   0  0  0  0  0  0  0  0  0  0  0  0
    0.1717   19.7465    6.4521 H   0  0  0  0  0  0  0  0  0  0  0  0
    3.2542   23.8220    6.4912 H   0  0  0  0  0  0  0  0  0  0  0  0
    4.4471   23.6531    7.5935 H   0  0  0  0  0  0  0  0  0  0  0  0
    4.7589   24.3600    6.1548 H   0  0  0  0  0  0  0  0  0  0  0  0
    3.3454   22.4188    4.3438 H   0  0  0  0  0  0  0  0  0  0  0  0
    4.8506   22.9910    4.0721 H   0  0  0  0  0  0  0  0  0  0  0  0
    4.5888   21.3804    4.1372 H   0  0  0  0  0  0  0  0  0  0  0  0
    6.8843   19.0921    4.1961 H   0  0  0  0  0  0  0  0  0  0  0  0
    7.5397   16.7179    3.5738 H   0  0  0  0  0  0  0  0  0  0  0  0
    1.2383   18.1327    9.6933 H   0  0  0  0  0  0  0  0  0  0  0  0
    9.8131   18.3754   10.4366 H   0  0  0  0  0  0  0  0  0  0  0  0
    9.2778   18.6580    8.1051 H   0  0  0  0  0  0  0  0  0  0  0  0
    7.2408   15.0978   10.6525 H   0  0  0  0  0  0  0  0  0  0  0  0
    4.7913   17.1825    7.8235 H   0  0  0  0  0  0  0  0  0  0  0  0
    5.9576   15.2727    7.2573 H   0  0  0  0  0  0  0  0  0  0  0  0
  1 22  1  0  0  0  0
  1 24  1  0  0  0  0
  2 23  1  0  0  0  0
  3 32  1  0  0  0  0
  4 25  1  0  0  0  0
  4 27  1  0  0  0  0
  5 26  1  0  0  0  0
  6 10  1  0  0  0  0
  6 15  2  0  0  0  0
  7 10  1  0  0  0  0
  7 16  2  0  0  0  0
  8 17  1  0  0  0  0
  8 26  2  0  0  0  0
  9 22  2  0  0  0  0
  9 28  1  0  0  0  0
 10 29  1  0  0  0  0
 11 25  1  0  0  0  0
 12 28  1  0  0  0  0
 13 32  1  0  0  0  0
 14 32  1  0  0  0  0
 15 16  1  0  0  0  0
 17 30  2  0  0  0  0
 18 19  2  0  0  0  0
 18 23  1  0  0  0  0
 19 29  1  0  0  0  0
 20 23  2  0  0  0  0
 20 31  1  0  0  0  0
 21 27  2  0  0  0  0
 21 30  1  0  0  0  0
 22 32  1  0  0  0  0
 24 28  2  0  0  0  0
 24 30  1  0  0  0  0
 25 31  1  0  0  0  0
 26 27  1  0  0  0  0
 29 31  2  0  0  0  0
  3 33  1  0  0  0  0
  5 34  1  0  0  0  0
  5 35  1  0  0  0  0
 11 36  1  0  0  0  0
 11 37  1  0  0  0  0
 11 38  1  0  0  0  0
 12 39  1  0  0  0  0
 12 40  1  0  0  0  0
 12 41  1  0  0  0  0
 13 42  1  0  0  0  0
 13 43  1  0  0  0  0
 13 44  1  0  0  0  0
 14 45  1  0  0  0  0
 14 46  1  0  0  0  0
 14 47  1  0  0  0  0
 15 48  1  0  0  0  0
 16 49  1  0  0  0  0
 17 50  1  0  0  0  0
 18 51  1  0  0  0  0
 19 52  1  0  0  0  0
 20 53  1  0  0  0  0
 21 54  1  0  0  0  0
 25 55  1  0  0  0  0
M  END
> <pdb_id>
4CCU

> <uniprot_id>
Q9UM73

> <usmiles>
S1C(=NC(=C1c2cnc(N)c(O[C@@H](c3c(N4N=CC=N4)ccc(F)c3)C)c2)C)C(O)(C)C

$$$$
AWJ_A_1500
          07192422563D 1   1.00000     0.00000     0
            
 56 59  0  0  0  0            999 V2000
  -30.3770  -20.7870   59.8380 S   0  0  0  0  0  0  0  0  0  0  0  0
  -34.5630  -17.4060   64.4710 F   0  0  0  0  0  0  0  0  0  0  0  0
  -30.2270  -24.6790   60.2710 O   0  0  0  0  0  0  0  0  0  0  0  0
  -31.8620  -23.0180   58.5860 O   0  0  0  0  0  0  0  0  0  0  0  0
  -30.8500  -15.6430   61.4380 O   0  0  0  0  0  0  0  0  0  0  0  0
  -28.7520  -15.1840   63.1190 N   0  0  0  0  0  0  0  0  0  0  0  0
  -32.9210  -19.1390   58.5650 N   0  0  0  0  0  0  0  0  0  0  0  0
  -33.8920  -17.1180   58.0570 N   0  0  0  0  0  0  0  0  0  0  0  0
  -27.7500  -17.2760   62.5280 N   0  0  0  0  0  0  0  0  0  0  0  0
  -28.3290  -21.9930   58.8970 N   0  0  0  0  0  0  0  0  0  0  0  0
  -33.5250  -18.0030   59.0160 N   0  0  0  0  0  0  0  0  0  0  0  0
  -32.6020  -14.3720   60.3940 C   0  0  0  0  0  0  0  0  0  0  0  0
  -26.3750  -20.6650   59.5350 C   0  0  0  0  0  0  0  0  0  0  0  0
  -30.2670  -23.1540   56.8200 C   0  0  0  0  0  0  0  0  0  0  0  0
  -30.0550  -24.5870   58.8570 C   0  0  0  0  0  0  0  0  0  0  0  0
  -32.9120  -18.9510   57.2450 C   0  0  0  0  0  0  0  0  0  0  0  0
  -33.5000  -17.7270   56.9370 C   0  0  0  0  0  0  0  0  0  0  0  0
  -27.7740  -18.4490   61.8100 C   0  0  0  0  0  0  0  0  0  0  0  0
  -34.9600  -18.5260   62.4220 C   0  0  0  0  0  0  0  0  0  0  0  0
  -34.6800  -18.6560   61.0450 C   0  0  0  0  0  0  0  0  0  0  0  0
  -33.3690  -16.6570   62.5660 C   0  0  0  0  0  0  0  0  0  0  0  0
  -29.8340  -17.8500   60.7890 C   0  0  0  0  0  0  0  0  0  0  0  0
  -29.6450  -22.0700   58.9720 C   0  0  0  0  0  0  0  0  0  0  0  0
  -34.3010  -17.5270   63.1720 C   0  0  0  0  0  0  0  0  0  0  0  0
  -28.8360  -20.0590   60.1410 C   0  0  0  0  0  0  0  0  0  0  0  0
  -32.0210  -15.7850   60.5740 C   0  0  2  0  0  0  0  0  0  0  0  0
  -28.7830  -16.3740   62.3790 C   0  0  0  0  0  0  0  0  0  0  0  0
  -29.8650  -16.6240   61.5060 C   0  0  0  0  0  0  0  0  0  0  0  0
  -27.8510  -20.8620   59.5530 C   0  0  0  0  0  0  0  0  0  0  0  0
  -33.7390  -17.7880   60.4030 C   0  0  0  0  0  0  0  0  0  0  0  0
  -28.7970  -18.8000   60.9140 C   0  0  0  0  0  0  0  0  0  0  0  0
  -33.0600  -16.7620   61.1610 C   0  0  0  0  0  0  0  0  0  0  0  0
  -30.4640  -23.1960   58.3400 C   0  0  2  0  0  0  0  0  0  0  0  0
  -29.9551  -25.5899   60.5813 H   0  0  0  0  0  0  0  0  0  0  0  0
  -32.0325  -23.0394   59.5711 H   0  0  0  0  0  0  0  0  0  0  0  0
  -29.4914  -14.5174   63.0250 H   0  0  0  0  0  0  0  0  0  0  0  0
  -27.9904  -15.0016   63.7409 H   0  0  0  0  0  0  0  0  0  0  0  0
  -33.4102  -14.4162   59.8067 H   0  0  0  0  0  0  0  0  0  0  0  0
  -32.8584  -14.0008   61.2865 H   0  0  0  0  0  0  0  0  0  0  0  0
  -31.9151  -13.7804   59.9718 H   0  0  0  0  0  0  0  0  0  0  0  0
  -26.1443  -19.8284   60.0319 H   0  0  0  0  0  0  0  0  0  0  0  0
  -25.9291  -21.4461   59.9722 H   0  0  0  0  0  0  0  0  0  0  0  0
  -26.0605  -20.5882   58.5889 H   0  0  0  0  0  0  0  0  0  0  0  0
  -29.2977  -23.2754   56.6060 H   0  0  0  0  0  0  0  0  0  0  0  0
  -30.7967  -23.8879   56.3948 H   0  0  0  0  0  0  0  0  0  0  0  0
  -30.5780  -22.2713   56.4678 H   0  0  0  0  0  0  0  0  0  0  0  0
  -30.6222  -25.2806   58.4129 H   0  0  0  0  0  0  0  0  0  0  0  0
  -29.0939  -24.7492   58.6334 H   0  0  0  0  0  0  0  0  0  0  0  0
  -32.5385  -19.5934   56.5758 H   0  0  0  0  0  0  0  0  0  0  0  0
  -33.6117  -17.3594   56.0138 H   0  0  0  0  0  0  0  0  0  0  0  0
  -27.0171  -19.0908   61.9335 H   0  0  0  0  0  0  0  0  0  0  0  0
  -35.6189  -19.1356   62.8627 H   0  0  0  0  0  0  0  0  0  0  0  0
  -35.1442  -19.3627   60.5111 H   0  0  0  0  0  0  0  0  0  0  0  0
  -32.9163  -15.9575   63.1190 H   0  0  0  0  0  0  0  0  0  0  0  0
  -30.5869  -18.0509   60.1623 H   0  0  0  0  0  0  0  0  0  0  0  0
  -31.7242  -16.1274   59.6826 H   0  0  0  0  0  0  0  0  0  0  0  0
  1 23  1  0  0  0  0
  1 25  1  0  0  0  0
  2 24  1  0  0  0  0
  3 15  1  0  0  0  0
  4 33  1  0  0  0  0
  5 26  1  0  0  0  0
  5 28  1  0  0  0  0
  6 27  1  0  0  0  0
  7 11  1  0  0  0  0
  7 16  2  0  0  0  0
  8 11  1  0  0  0  0
  8 17  2  0  0  0  0
  9 18  1  0  0  0  0
  9 27  2  0  0  0  0
 10 23  2  0  0  0  0
 10 29  1  0  0  0  0
 11 30  1  0  0  0  0
 12 26  1  0  0  0  0
 13 29  1  0  0  0  0
 14 33  1  0  0  0  0
 15 33  1  0  0  0  0
 16 17  1  0  0  0  0
 18 31  2  0  0  0  0
 19 20  2  0  0  0  0
 19 24  1  0  0  0  0
 20 30  1  0  0  0  0
 21 24  2  0  0  0  0
 21 32  1  0  0  0  0
 22 28  2  0  0  0  0
 22 31  1  0  0  0  0
 23 33  1  0  0  0  0
 25 29  2  0  0  0  0
 25 31  1  0  0  0  0
 26 32  1  0  0  0  0
 27 28  1  0  0  0  0
 30 32  2  0  0  0  0
  3 34  1  0  0  0  0
  4 35  1  0  0  0  0
  6 36  1  0  0  0  0
  6 37  1  0  0  0  0
 12 38  1  0  0  0  0
 12 39  1  0  0  0  0
 12 40  1  0  0  0  0
 13 41  1  0  0  0  0
 13 42  1  0  0  0  0
 13 43  1  0  0  0  0
 14 44  1  0  0  0  0
 14 45  1  0  0  0  0
 14 46  1  0  0  0  0
 15 47  1  0  0  0  0
 15 48  1  0  0  0  0
 16 49  1  0  0  0  0
 17 50  1  0  0  0  0
 18 51  1  0  0  0  0
 19 52  1  0  0  0  0
 20 53  1  0  0  0  0
 21 54  1  0  0  0  0
 22 55  1  0  0  0  0
 26 56  1  0  0  0  0
M  END
> <pdb_id>
4CD0

> <uniprot_id>
Q9UM73

> <usmiles>
S1C(=NC(=C1c2cnc(N)c(O[C@@H](c3c(N4N=CC=N4)ccc(F)c3)C)c2)C)[C@](O)(CO)C

$$$$
AWT_A_1101
          07192420503D 1   1.00000     0.00000     0
            
 52 55  0  0  0  0            999 V2000
    0.3059  -28.0937   48.0380 O   0  0  0  0  0  0  0  0  0  0  0  0
   -1.5699  -28.9881   46.3078 O   0  0  0  0  0  0  0  0  0  0  0  0
    3.7534  -38.2714   45.0449 N   0  0  0  0  0  0  0  0  0  0  0  0
    2.7872  -38.6849   45.6898 N   0  0  0  0  0  0  0  0  0  0  0  0
    3.2841  -31.6359   43.7234 N   0  0  0  0  0  0  0  0  0  0  0  0
    3.7396  -30.3637   45.6224 N   0  0  0  0  0  0  0  0  0  0  0  0
    1.1314  -31.8699   42.8536 N   0  0  0  0  0  0  0  0  0  0  0  0
    1.2767  -27.1011   48.4101 C   0  0  0  0  0  0  0  0  0  0  0  0
   -2.6112  -29.5604   45.5088 C   0  0  0  0  0  0  0  0  0  0  0  0
    5.6547  -31.4730   44.5042 C   0  0  0  0  0  0  0  0  0  0  0  0
    0.9341  -32.5692   40.4914 C   0  0  0  0  0  0  0  0  0  0  0  0
    3.3388  -37.3451   44.1853 C   0  0  0  0  0  0  0  0  0  0  0  0
    1.6787  -38.0590   45.3017 C   0  0  0  0  0  0  0  0  0  0  0  0
   -1.0173  -35.7081   42.8302 C   0  0  0  0  0  0  0  0  0  0  0  0
   -0.4986  -34.5308   42.3077 C   0  0  0  0  0  0  0  0  0  0  0  0
   -0.1857  -36.6029   43.5006 C   0  0  0  0  0  0  0  0  0  0  0  0
    2.0405  -29.2407   46.8189 C   0  0  0  0  0  0  0  0  0  0  0  0
    0.1411  -30.1829   45.0228 C   0  0  0  0  0  0  0  0  0  0  0  0
    1.6973  -35.1312   43.1225 C   0  0  0  0  0  0  0  0  0  0  0  0
    4.1642  -31.1460   44.6205 C   0  0  0  0  0  0  0  0  0  0  0  0
    1.9566  -31.3688   43.7940 C   0  0  0  0  0  0  0  0  0  0  0  0
    0.6973  -28.8866   46.9890 C   0  0  0  0  0  0  0  0  0  0  0  0
   -0.2629  -29.3628   46.0908 C   0  0  0  0  0  0  0  0  0  0  0  0
    1.4671  -32.9452   41.8952 C   0  0  2  0  0  0  0  0  0  0  0  0
    2.4376  -30.0498   45.7559 C   0  0  0  0  0  0  0  0  0  0  0  0
    2.0229  -37.2081   44.3371 C   0  0  0  0  0  0  0  0  0  0  0  0
    0.8644  -34.2435   42.4412 C   0  0  0  0  0  0  0  0  0  0  0  0
    1.1808  -36.3235   43.6501 C   0  0  0  0  0  0  0  0  0  0  0  0
    1.4920  -30.5401   44.8405 C   0  0  0  0  0  0  0  0  0  0  0  0
    4.6977  -38.5827   45.1512 H   0  0  0  0  0  0  0  0  0  0  0  0
    0.2119  -31.4807   42.7990 H   0  0  0  0  0  0  0  0  0  0  0  0
    0.9262  -26.5630   49.1766 H   0  0  0  0  0  0  0  0  0  0  0  0
    2.1273  -27.5519   48.6806 H   0  0  0  0  0  0  0  0  0  0  0  0
    1.4518  -26.4980   47.6319 H   0  0  0  0  0  0  0  0  0  0  0  0
   -3.4936  -29.1848   45.7923 H   0  0  0  0  0  0  0  0  0  0  0  0
   -2.4502  -29.3432   44.5461 H   0  0  0  0  0  0  0  0  0  0  0  0
   -2.6171  -30.5530   45.6302 H   0  0  0  0  0  0  0  0  0  0  0  0
    6.1526  -31.0283   45.2488 H   0  0  0  0  0  0  0  0  0  0  0  0
    5.7842  -32.4630   44.5612 H   0  0  0  0  0  0  0  0  0  0  0  0
    6.0013  -31.1415   43.6267 H   0  0  0  0  0  0  0  0  0  0  0  0
    1.1609  -33.2960   39.8431 H   0  0  0  0  0  0  0  0  0  0  0  0
   -0.0586  -32.4558   40.5311 H   0  0  0  0  0  0  0  0  0  0  0  0
    1.3558  -31.7129   40.1931 H   0  0  0  0  0  0  0  0  0  0  0  0
    3.9130  -36.8412   43.5399 H   0  0  0  0  0  0  0  0  0  0  0  0
    0.7585  -38.2012   45.6666 H   0  0  0  0  0  0  0  0  0  0  0  0
   -1.9902  -35.9143   42.7252 H   0  0  0  0  0  0  0  0  0  0  0  0
   -1.1003  -33.8870   41.8351 H   0  0  0  0  0  0  0  0  0  0  0  0
   -0.5648  -37.4483   43.8769 H   0  0  0  0  0  0  0  0  0  0  0  0
    2.7243  -28.9088   47.4686 H   0  0  0  0  0  0  0  0  0  0  0  0
   -0.5452  -30.5202   44.3784 H   0  0  0  0  0  0  0  0  0  0  0  0
    2.6675  -34.9164   43.2351 H   0  0  0  0  0  0  0  0  0  0  0  0
    2.4614  -33.0420   41.8502 H   0  0  0  0  0  0  0  0  0  0  0  0
  1  8  1  0  0  0  0
  1 22  1  0  0  0  0
  2  9  1  0  0  0  0
  2 23  1  0  0  0  0
  3  4  1  0  0  0  0
  3 12  1  0  0  0  0
  4 13  2  0  0  0  0
  5 20  2  0  0  0  0
  5 21  1  0  0  0  0
  6 20  1  0  0  0  0
  6 25  2  0  0  0  0
  7 21  1  0  0  0  0
  7 24  1  0  0  0  0
 10 20  1  0  0  0  0
 11 24  1  0  0  0  0
 12 26  2  0  0  0  0
 13 26  1  0  0  0  0
 14 15  2  0  0  0  0
 14 16  1  0  0  0  0
 15 27  1  0  0  0  0
 16 28  2  0  0  0  0
 17 22  2  0  0  0  0
 17 25  1  0  0  0  0
 18 23  2  0  0  0  0
 18 29  1  0  0  0  0
 19 27  2  0  0  0  0
 19 28  1  0  0  0  0
 21 29  2  0  0  0  0
 22 23  1  0  0  0  0
 24 27  1  0  0  0  0
 25 29  1  0  0  0  0
 26 28  1  0  0  0  0
  3 30  1  0  0  0  0
  7 31  1  0  0  0  0
  8 32  1  0  0  0  0
  8 33  1  0  0  0  0
  8 34  1  0  0  0  0
  9 35  1  0  0  0  0
  9 36  1  0  0  0  0
  9 37  1  0  0  0  0
 10 38  1  0  0  0  0
 10 39  1  0  0  0  0
 10 40  1  0  0  0  0
 11 41  1  0  0  0  0
 11 42  1  0  0  0  0
 11 43  1  0  0  0  0
 12 44  1  0  0  0  0
 13 45  1  0  0  0  0
 14 46  1  0  0  0  0
 15 47  1  0  0  0  0
 16 48  1  0  0  0  0
 17 49  1  0  0  0  0
 18 50  1  0  0  0  0
 19 51  1  0  0  0  0
 24 52  1  0  0  0  0
M  END
> <pdb_id>
5OVF

> <uniprot_id>
Q07889

> <usmiles>
O(c1c(OC)cc2c(nc(nc2c1)C)N[C@@H](c3cc(ccc3)C=4C=NNC4)C)C

$$$$
AWV_A_406
          07192421513D 1   1.00000     0.00000     0
            
 37 39  0  0  0  0            999 V2000
    8.4052   14.5928  177.2941 N   0  0  0  0  0  0  0  0  0  0  0  0
    9.4074   18.5376  175.2339 N   0  0  0  0  0  0  0  0  0  0  0  0
    8.6057   15.9489  177.3640 C   0  0  0  0  0  0  0  0  0  0  0  0
    9.1758   20.0221  175.1996 C   0  0  0  0  0  0  0  0  0  0  0  0
    9.5264   17.8482  173.9167 C   0  0  0  0  0  0  0  0  0  0  0  0
    8.1339   18.0126  176.0183 C   0  0  0  0  0  0  0  0  0  0  0  0
   10.2767   20.7710  174.5518 C   0  0  0  0  0  0  0  0  0  0  0  0
   10.7798   18.2953  173.1390 C   0  0  0  0  0  0  0  0  0  0  0  0
   10.0168   20.8070  173.0463 C   0  0  0  0  0  0  0  0  0  0  0  0
   10.4825   19.5470  172.3347 C   0  0  0  0  0  0  0  0  0  0  0  0
    6.5679   13.1188  174.4494 C   0  0  0  0  0  0  0  0  0  0  0  0
    6.3465   14.3758  173.7356 C   0  0  0  0  0  0  0  0  0  0  0  0
    7.2200   13.0495  175.6612 C   0  0  0  0  0  0  0  0  0  0  0  0
    6.7756   15.5778  174.2659 C   0  0  0  0  0  0  0  0  0  0  0  0
    7.6734   14.2988  176.1562 C   0  0  0  0  0  0  0  0  0  0  0  0
    8.0678   16.5685  176.2697 C   0  0  0  0  0  0  0  0  0  0  0  0
    7.4522   15.5492  175.4753 C   0  0  0  0  0  0  0  0  0  0  0  0
    8.7353   13.9234  177.9596 H   0  0  0  0  0  0  0  0  0  0  0  0
    9.0786   16.4179  178.1100 H   0  0  0  0  0  0  0  0  0  0  0  0
    9.0786   20.3500  176.1393 H   0  0  0  0  0  0  0  0  0  0  0  0
    8.3309   20.2001  174.6953 H   0  0  0  0  0  0  0  0  0  0  0  0
    8.7160   18.0567  173.3693 H   0  0  0  0  0  0  0  0  0  0  0  0
    9.5786   16.8618  174.0727 H   0  0  0  0  0  0  0  0  0  0  0  0
    7.3249   18.2658  175.4878 H   0  0  0  0  0  0  0  0  0  0  0  0
    8.1104   18.4764  176.9039 H   0  0  0  0  0  0  0  0  0  0  0  0
   11.1478   20.3147  174.7332 H   0  0  0  0  0  0  0  0  0  0  0  0
   10.3077   21.7036  174.9114 H   0  0  0  0  0  0  0  0  0  0  0  0
   11.0612   17.5635  172.5182 H   0  0  0  0  0  0  0  0  0  0  0  0
   11.5184   18.4863  173.7855 H   0  0  0  0  0  0  0  0  0  0  0  0
   10.5016   21.5905  172.6575 H   0  0  0  0  0  0  0  0  0  0  0  0
    9.0342   20.9143  172.8946 H   0  0  0  0  0  0  0  0  0  0  0  0
    9.7699   19.3059  171.6759 H   0  0  0  0  0  0  0  0  0  0  0  0
   11.3222   19.7837  171.8458 H   0  0  0  0  0  0  0  0  0  0  0  0
    6.2309   12.2712  174.0395 H   0  0  0  0  0  0  0  0  0  0  0  0
    5.8784   14.3655  172.8520 H   0  0  0  0  0  0  0  0  0  0  0  0
    7.3617   12.1893  176.1512 H   0  0  0  0  0  0  0  0  0  0  0  0
    6.6032   16.4413  173.7919 H   0  0  0  0  0  0  0  0  0  0  0  0
  1  3  1  0  0  0  0
  1 15  1  0  0  0  0
  2  4  1  0  0  0  0
  2  5  1  0  0  0  0
  2  6  1  0  0  0  0
  3 16  2  0  0  0  0
  4  7  1  0  0  0  0
  5  8  1  0  0  0  0
  6 16  1  0  0  0  0
  7  9  1  0  0  0  0
  8 10  1  0  0  0  0
  9 10  1  0  0  0  0
 11 12  2  0  0  0  0
 11 13  1  0  0  0  0
 12 14  1  0  0  0  0
 13 15  2  0  0  0  0
 14 17  2  0  0  0  0
 15 17  1  0  0  0  0
 16 17  1  0  0  0  0
  1 18  1  0  0  0  0
  3 19  1  0  0  0  0
  4 20  1  0  0  0  0
  4 21  1  0  0  0  0
  5 22  1  0  0  0  0
  5 23  1  0  0  0  0
  6 24  1  0  0  0  0
  6 25  1  0  0  0  0
  7 26  1  0  0  0  0
  7 27  1  0  0  0  0
  8 28  1  0  0  0  0
  8 29  1  0  0  0  0
  9 30  1  0  0  0  0
  9 31  1  0  0  0  0
 10 32  1  0  0  0  0
 10 33  1  0  0  0  0
 11 34  1  0  0  0  0
 12 35  1  0  0  0  0
 13 36  1  0  0  0  0
 14 37  1  0  0  0  0
M  END
> <pdb_id>
5QPG

> <uniprot_id>
Q8WS26

> <usmiles>
N1(CC=2c3c(NC2)cccc3)CCCCCC1

$$$$
AX4_B_271
          07192417503D 1   1.00000     0.00000     0
            
 28 29  0  0  0  0            999 V2000
  -18.2906   17.8600    2.2190 S   0  0  0  0  0  0  0  0  0  0  0  0
  -20.6427   13.3865    2.3044 N   0  0  0  0  0  0  0  0  0  0  0  0
  -17.5252   14.1193    5.6391 N   0  0  0  0  0  0  0  0  0  0  0  0
  -19.5018   15.4715    2.3049 N   0  0  0  0  0  0  0  0  0  0  0  0
  -19.0750   13.8143    3.9248 N   0  0  0  0  0  0  0  0  0  0  0  0
  -15.1453   20.9761    6.2588 C   0  0  0  0  0  0  0  0  0  0  0  0
  -16.0342   18.6799    3.3863 C   0  0  0  0  0  0  0  0  0  0  0  0
  -18.1339   19.5479    4.2688 C   0  0  0  0  0  0  0  0  0  0  0  0
  -15.2883   19.3811    4.3216 C   0  0  0  0  0  0  0  0  0  0  0  0
  -17.3671   20.2472    5.2008 C   0  0  0  0  0  0  0  0  0  0  0  0
  -17.9092   15.8836    4.0666 C   0  0  0  0  0  0  0  0  0  0  0  0
  -19.7610   14.2230    2.8323 C   0  0  0  0  0  0  0  0  0  0  0  0
  -18.5919   16.2352    2.9310 C   0  0  0  0  0  0  0  0  0  0  0  0
  -18.1698   14.5826    4.5691 C   0  0  0  0  0  0  0  0  0  0  0  0
  -17.4476   18.7343    3.3563 C   0  0  0  0  0  0  0  0  0  0  0  0
  -15.9657   20.1898    5.2269 C   0  0  0  0  0  0  0  0  0  0  0  0
  -20.7957   12.4914    2.7233 H   0  0  0  0  0  0  0  0  0  0  0  0
  -21.1551   13.6502    1.4871 H   0  0  0  0  0  0  0  0  0  0  0  0
  -16.8570   14.6962    6.1089 H   0  0  0  0  0  0  0  0  0  0  0  0
  -17.7096   13.1947    5.9724 H   0  0  0  0  0  0  0  0  0  0  0  0
  -15.7616   21.5093    6.8383 H   0  0  0  0  0  0  0  0  0  0  0  0
  -14.6233   20.3386    6.8254 H   0  0  0  0  0  0  0  0  0  0  0  0
  -14.5166   21.5927    5.7850 H   0  0  0  0  0  0  0  0  0  0  0  0
  -15.5574   18.1172    2.7109 H   0  0  0  0  0  0  0  0  0  0  0  0
  -19.1309   19.6237    4.2523 H   0  0  0  0  0  0  0  0  0  0  0  0
  -14.2913   19.3072    4.3441 H   0  0  0  0  0  0  0  0  0  0  0  0
  -17.8360   20.8132    5.8788 H   0  0  0  0  0  0  0  0  0  0  0  0
  -17.2668   16.5061    4.5136 H   0  0  0  0  0  0  0  0  0  0  0  0
  1 13  1  0  0  0  0
  1 15  1  0  0  0  0
  2 12  1  0  0  0  0
  3 14  1  0  0  0  0
  4 12  2  0  0  0  0
  4 13  1  0  0  0  0
  5 12  1  0  0  0  0
  5 14  2  0  0  0  0
  6 16  1  0  0  0  0
  7  9  1  0  0  0  0
  7 15  2  0  0  0  0
  8 10  2  0  0  0  0
  8 15  1  0  0  0  0
  9 16  2  0  0  0  0
 10 16  1  0  0  0  0
 11 13  2  0  0  0  0
 11 14  1  0  0  0  0
  2 17  1  0  0  0  0
  2 18  1  0  0  0  0
  3 19  1  0  0  0  0
  3 20  1  0  0  0  0
  6 21  1  0  0  0  0
  6 22  1  0  0  0  0
  6 23  1  0  0  0  0
  7 24  1  0  0  0  0
  8 25  1  0  0  0  0
  9 26  1  0  0  0  0
 10 27  1  0  0  0  0
 11 28  1  0  0  0  0
M  END
> <pdb_id>
3BMO

> <uniprot_id>
O76290

> <usmiles>
S(c1nc(nc(N)c1)N)c2ccc(cc2)C

$$$$
AX5_A_270
          07192417503D 1   1.00000     0.00000     0
            
 28 29  0  0  0  0            999 V2000
  -17.8022   17.7759    2.4109 S   0  0  0  0  0  0  0  0  0  0  0  0
  -20.6060   13.3596    2.2448 N   0  0  0  0  0  0  0  0  0  0  0  0
  -17.4446   14.0128    5.6720 N   0  0  0  0  0  0  0  0  0  0  0  0
  -19.3392   15.4077    2.3313 N   0  0  0  0  0  0  0  0  0  0  0  0
  -19.0169   13.6926    3.9256 N   0  0  0  0  0  0  0  0  0  0  0  0
  -16.1955   18.0235    3.2130 C   0  0  0  0  0  0  0  0  0  0  0  0
  -16.2664   20.5126    6.7632 C   0  0  0  0  0  0  0  0  0  0  0  0
  -17.4641   20.1239    6.1489 C   0  0  0  0  0  0  0  0  0  0  0  0
  -15.0527   20.0869    6.2332 C   0  0  0  0  0  0  0  0  0  0  0  0
  -17.4427   19.3272    5.0018 C   0  0  0  0  0  0  0  0  0  0  0  0
  -15.0285   19.3040    5.0725 C   0  0  0  0  0  0  0  0  0  0  0  0
  -17.7098   15.7071    4.0813 C   0  0  0  0  0  0  0  0  0  0  0  0
  -18.3545   16.1426    2.9587 C   0  0  0  0  0  0  0  0  0  0  0  0
  -19.6546   14.1402    2.8177 C   0  0  0  0  0  0  0  0  0  0  0  0
  -18.0425   14.4276    4.5498 C   0  0  0  0  0  0  0  0  0  0  0  0
  -16.2145   18.8868    4.4814 C   0  0  0  0  0  0  0  0  0  0  0  0
  -20.8046   12.4551    2.6223 H   0  0  0  0  0  0  0  0  0  0  0  0
  -21.1082   13.6890    1.4453 H   0  0  0  0  0  0  0  0  0  0  0  0
  -16.7374   14.5761    6.0994 H   0  0  0  0  0  0  0  0  0  0  0  0
  -17.7046   13.1394    6.0837 H   0  0  0  0  0  0  0  0  0  0  0  0
  -15.5856   18.4609    2.5521 H   0  0  0  0  0  0  0  0  0  0  0  0
  -15.8319   17.1247    3.4579 H   0  0  0  0  0  0  0  0  0  0  0  0
  -16.2839   21.0924    7.5778 H   0  0  0  0  0  0  0  0  0  0  0  0
  -18.3389   20.4184    6.5337 H   0  0  0  0  0  0  0  0  0  0  0  0
  -14.1958   20.3405    6.6820 H   0  0  0  0  0  0  0  0  0  0  0  0
  -18.2987   19.0713    4.5525 H   0  0  0  0  0  0  0  0  0  0  0  0
  -14.1524   19.0437    4.6667 H   0  0  0  0  0  0  0  0  0  0  0  0
  -17.0315   16.2746    4.5480 H   0  0  0  0  0  0  0  0  0  0  0  0
  1  6  1  0  0  0  0
  1 13  1  0  0  0  0
  2 14  1  0  0  0  0
  3 15  1  0  0  0  0
  4 13  1  0  0  0  0
  4 14  2  0  0  0  0
  5 14  1  0  0  0  0
  5 15  2  0  0  0  0
  6 16  1  0  0  0  0
  7  8  2  0  0  0  0
  7  9  1  0  0  0  0
  8 10  1  0  0  0  0
  9 11  2  0  0  0  0
 10 16  2  0  0  0  0
 11 16  1  0  0  0  0
 12 13  2  0  0  0  0
 12 15  1  0  0  0  0
  2 17  1  0  0  0  0
  2 18  1  0  0  0  0
  3 19  1  0  0  0  0
  3 20  1  0  0  0  0
  6 21  1  0  0  0  0
  6 22  1  0  0  0  0
  7 23  1  0  0  0  0
  8 24  1  0  0  0  0
  9 25  1  0  0  0  0
 10 26  1  0  0  0  0
 11 27  1  0  0  0  0
 12 28  1  0  0  0  0
M  END
> <pdb_id>
3BMQ

> <uniprot_id>
O76290

> <usmiles>
S(c1nc(nc(N)c1)N)Cc2ccccc2

$$$$
AX6_B_270
          07192417503D 1   1.00000     0.00000     0
            
 32 33  0  0  0  0            999 V2000
  -19.2416   17.6763    1.8056 S   0  0  0  0  0  0  0  0  0  0  0  0
  -16.1559   20.6595    6.8773 O   0  0  0  0  0  0  0  0  0  0  0  0
  -20.8284   13.0790    2.2990 N   0  0  0  0  0  0  0  0  0  0  0  0
  -17.5364   14.0600    5.2855 N   0  0  0  0  0  0  0  0  0  0  0  0
  -19.9705   15.1933    2.2106 N   0  0  0  0  0  0  0  0  0  0  0  0
  -19.1717   13.6657    3.7765 N   0  0  0  0  0  0  0  0  0  0  0  0
  -14.7367   20.5025    7.0581 C   0  0  0  0  0  0  0  0  0  0  0  0
  -17.5318   18.2986    1.9153 C   0  0  0  0  0  0  0  0  0  0  0  0
  -15.5634   19.4477    4.9218 C   0  0  0  0  0  0  0  0  0  0  0  0
  -17.8417   20.1960    5.2395 C   0  0  0  0  0  0  0  0  0  0  0  0
  -15.9083   18.8752    3.6998 C   0  0  0  0  0  0  0  0  0  0  0  0
  -18.1836   19.6166    4.0174 C   0  0  0  0  0  0  0  0  0  0  0  0
  -18.2346   15.8284    3.7176 C   0  0  0  0  0  0  0  0  0  0  0  0
  -19.1170   16.1173    2.6499 C   0  0  0  0  0  0  0  0  0  0  0  0
  -19.9829   13.9687    2.7569 C   0  0  0  0  0  0  0  0  0  0  0  0
  -18.2922   14.5218    4.2729 C   0  0  0  0  0  0  0  0  0  0  0  0
  -16.5226   20.1056    5.6856 C   0  0  0  0  0  0  0  0  0  0  0  0
  -17.2133   18.9485    3.2604 C   0  0  0  0  0  0  0  0  0  0  0  0
  -20.8512   12.1609    2.6947 H   0  0  0  0  0  0  0  0  0  0  0  0
  -21.4509   13.3179    1.5538 H   0  0  0  0  0  0  0  0  0  0  0  0
  -16.8511   14.6528    5.7086 H   0  0  0  0  0  0  0  0  0  0  0  0
  -17.6600   13.1240    5.6151 H   0  0  0  0  0  0  0  0  0  0  0  0
  -14.4651   20.9076    7.9311 H   0  0  0  0  0  0  0  0  0  0  0  0
  -14.5060   19.5294    7.0561 H   0  0  0  0  0  0  0  0  0  0  0  0
  -14.2529   20.9612    6.3128 H   0  0  0  0  0  0  0  0  0  0  0  0
  -17.3936   18.9772    1.1938 H   0  0  0  0  0  0  0  0  0  0  0  0
  -16.9049   17.5320    1.7763 H   0  0  0  0  0  0  0  0  0  0  0  0
  -14.6215   19.3855    5.2520 H   0  0  0  0  0  0  0  0  0  0  0  0
  -18.5315   20.6690    5.7876 H   0  0  0  0  0  0  0  0  0  0  0  0
  -15.2150   18.4148    3.1454 H   0  0  0  0  0  0  0  0  0  0  0  0
  -19.1234   19.6784    3.6813 H   0  0  0  0  0  0  0  0  0  0  0  0
  -17.5971   16.5152    4.0668 H   0  0  0  0  0  0  0  0  0  0  0  0
  1  8  1  0  0  0  0
  1 14  1  0  0  0  0
  2  7  1  0  0  0  0
  2 17  1  0  0  0  0
  3 15  1  0  0  0  0
  4 16  1  0  0  0  0
  5 14  1  0  0  0  0
  5 15  2  0  0  0  0
  6 15  1  0  0  0  0
  6 16  2  0  0  0  0
  8 18  1  0  0  0  0
  9 11  1  0  0  0  0
  9 17  2  0  0  0  0
 10 12  2  0  0  0  0
 10 17  1  0  0  0  0
 11 18  2  0  0  0  0
 12 18  1  0  0  0  0
 13 14  2  0  0  0  0
 13 16  1  0  0  0  0
  3 19  1  0  0  0  0
  3 20  1  0  0  0  0
  4 21  1  0  0  0  0
  4 22  1  0  0  0  0
  7 23  1  0  0  0  0
  7 24  1  0  0  0  0
  7 25  1  0  0  0  0
  8 26  1  0  0  0  0
  8 27  1  0  0  0  0
  9 28  1  0  0  0  0
 10 29  1  0  0  0  0
 11 30  1  0  0  0  0
 12 31  1  0  0  0  0
 13 32  1  0  0  0  0
M  END
> <pdb_id>
3JQG

> <uniprot_id>
Q581W1

> <usmiles>
S(c1nc(nc(N)c1)N)Cc2ccc(OC)cc2

$$$$
AX7_A_201
          07192416543D 1   1.00000     0.00000     0
            
 17 18  0  0  0  0            999 V2000
   18.1285   20.4635    5.5423 N   0  0  0  0  0  0  0  0  0  0  0  0
   18.0554   21.9231    3.6781 N   0  0  0  0  0  0  0  0  0  0  0  0
   16.0828   20.7773    4.2479 N   0  0  0  0  0  0  0  0  0  0  0  0
   15.9563   23.3552    0.9369 C   0  0  0  0  0  0  0  0  0  0  0  0
   14.7646   22.6774    1.2708 C   0  0  0  0  0  0  0  0  0  0  0  0
   17.0997   23.1733    1.6781 C   0  0  0  0  0  0  0  0  0  0  0  0
   14.7004   21.8086    2.3473 C   0  0  0  0  0  0  0  0  0  0  0  0
   17.4110   21.0069    4.5484 C   0  0  0  0  0  0  0  0  0  0  0  0
   17.0484   22.3075    2.7514 C   0  0  0  0  0  0  0  0  0  0  0  0
   15.8572   21.6051    3.1096 C   0  0  0  0  0  0  0  0  0  0  0  0
   17.7003   19.8145    6.1711 H   0  0  0  0  0  0  0  0  0  0  0  0
   19.0918   20.7073    5.6547 H   0  0  0  0  0  0  0  0  0  0  0  0
   15.4356   20.1756    4.7159 H   0  0  0  0  0  0  0  0  0  0  0  0
   15.9693   23.9750    0.1522 H   0  0  0  0  0  0  0  0  0  0  0  0
   13.9462   22.8282    0.7163 H   0  0  0  0  0  0  0  0  0  0  0  0
   17.9449   23.6548    1.4460 H   0  0  0  0  0  0  0  0  0  0  0  0
   13.8480   21.3378    2.5748 H   0  0  0  0  0  0  0  0  0  0  0  0
  1  8  1  0  0  0  0
  2  8  2  0  0  0  0
  2  9  1  0  0  0  0
  3  8  1  0  0  0  0
  3 10  1  0  0  0  0
  4  5  2  0  0  0  0
  4  6  1  0  0  0  0
  5  7  1  0  0  0  0
  6  9  2  0  0  0  0
  7 10  2  0  0  0  0
  9 10  1  0  0  0  0
  1 11  1  0  0  0  0
  1 12  1  0  0  0  0
  3 13  1  0  0  0  0
  4 14  1  0  0  0  0
  5 15  1  0  0  0  0
  6 16  1  0  0  0  0
  7 17  1  0  0  0  0
M  END
> <pdb_id>
6EQ5

> <uniprot_id>
P36639

> <usmiles>
N=1c2c(NC1N)cccc2

$$$$
AX7_B_290
          07192418533D 1   1.00000     0.00000     0
            
 17 18  0  0  0  0            999 V2000
   29.1910   46.4943   18.7160 N   0  0  0  0  0  0  0  0  0  0  0  0
   28.4159   45.7606   16.2982 N   0  0  0  0  0  0  0  0  0  0  0  0
   28.3758   44.1019   18.0375 N   0  0  0  0  0  0  0  0  0  0  0  0
   27.0943   42.8244   14.0355 C   0  0  0  0  0  0  0  0  0  0  0  0
   27.0614   41.8070   15.0717 C   0  0  0  0  0  0  0  0  0  0  0  0
   27.5326   44.1684   14.3473 C   0  0  0  0  0  0  0  0  0  0  0  0
   27.4674   42.1327   16.4187 C   0  0  0  0  0  0  0  0  0  0  0  0
   28.6928   45.5120   17.7554 C   0  0  0  0  0  0  0  0  0  0  0  0
   27.9324   44.4836   15.6890 C   0  0  0  0  0  0  0  0  0  0  0  0
   27.9004   43.4635   16.7313 C   0  0  0  0  0  0  0  0  0  0  0  0
   29.3438   46.2296   19.6681 H   0  0  0  0  0  0  0  0  0  0  0  0
   29.3791   47.4311   18.4211 H   0  0  0  0  0  0  0  0  0  0  0  0
   28.5348   46.6303   15.8192 H   0  0  0  0  0  0  0  0  0  0  0  0
   26.8131   42.5956   13.1036 H   0  0  0  0  0  0  0  0  0  0  0  0
   26.7574   40.8800   14.8520 H   0  0  0  0  0  0  0  0  0  0  0  0
   27.5565   44.8699   13.6350 H   0  0  0  0  0  0  0  0  0  0  0  0
   27.4466   41.4319   17.1317 H   0  0  0  0  0  0  0  0  0  0  0  0
  1  8  1  0  0  0  0
  2  8  1  0  0  0  0
  2  9  1  0  0  0  0
  3  8  2  0  0  0  0
  3 10  1  0  0  0  0
  4  5  2  0  0  0  0
  4  6  1  0  0  0  0
  5  7  1  0  0  0  0
  6  9  2  0  0  0  0
  7 10  2  0  0  0  0
  9 10  1  0  0  0  0
  1 11  1  0  0  0  0
  1 12  1  0  0  0  0
  2 13  1  0  0  0  0
  4 14  1  0  0  0  0
  5 15  1  0  0  0  0
  6 16  1  0  0  0  0
  7 17  1  0  0  0  0
M  END
> <pdb_id>
3KQS

> <uniprot_id>
P11086

> <usmiles>
N=1c2c(NC1N)cccc2

$$$$
AX8_A_270
          07192417503D 1   1.00000     0.00000     0
            
 30 32  0  0  0  0            999 V2000
  -10.7061   20.1610   11.8429 Cl  0  0  0  0  0  0  0  0  0  0  0  0
  -10.3396   20.7305    8.6980 Cl  0  0  0  0  0  0  0  0  0  0  0  0
  -13.7958   14.5599    8.1799 N   0  0  0  0  0  0  0  0  0  0  0  0
  -15.9407   14.6371    9.1771 N   0  0  0  0  0  0  0  0  0  0  0  0
  -15.1669   16.5001    8.3557 N   0  0  0  0  0  0  0  0  0  0  0  0
  -14.2717   17.4746    7.7127 C   0  0  0  0  0  0  0  0  0  0  0  0
  -18.8584   16.7607   10.0512 C   0  0  0  0  0  0  0  0  0  0  0  0
  -18.3531   17.9537    9.5213 C   0  0  0  0  0  0  0  0  0  0  0  0
  -18.1227   15.5701    9.9841 C   0  0  0  0  0  0  0  0  0  0  0  0
  -17.0942   17.9730    8.9175 C   0  0  0  0  0  0  0  0  0  0  0  0
  -12.7218   18.5135   11.0956 C   0  0  0  0  0  0  0  0  0  0  0  0
  -13.5517   17.9014   10.1492 C   0  0  0  0  0  0  0  0  0  0  0  0
  -12.3965   19.0331    8.3633 C   0  0  0  0  0  0  0  0  0  0  0  0
  -14.9087   15.2062    8.5482 C   0  0  0  0  0  0  0  0  0  0  0  0
  -11.7297   19.3949   10.6640 C   0  0  0  0  0  0  0  0  0  0  0  0
  -11.5701   19.6490    9.2948 C   0  0  0  0  0  0  0  0  0  0  0  0
  -16.8610   15.5921    9.3783 C   0  0  0  0  0  0  0  0  0  0  0  0
  -16.3611   16.7862    8.8582 C   0  0  0  0  0  0  0  0  0  0  0  0
  -13.3859   18.1473    8.7807 C   0  0  0  0  0  0  0  0  0  0  0  0
  -13.0630   15.0533    7.7113 H   0  0  0  0  0  0  0  0  0  0  0  0
  -13.6972   13.5838    8.3733 H   0  0  0  0  0  0  0  0  0  0  0  0
  -14.8176   18.1708    7.2466 H   0  0  0  0  0  0  0  0  0  0  0  0
  -13.6916   17.0050    7.0471 H   0  0  0  0  0  0  0  0  0  0  0  0
  -19.7595   16.7581   10.4848 H   0  0  0  0  0  0  0  0  0  0  0  0
  -18.8941   18.7930    9.5753 H   0  0  0  0  0  0  0  0  0  0  0  0
  -18.4918   14.7209   10.3618 H   0  0  0  0  0  0  0  0  0  0  0  0
  -16.7250   18.8200    8.5351 H   0  0  0  0  0  0  0  0  0  0  0  0
  -12.8385   18.3213   12.0700 H   0  0  0  0  0  0  0  0  0  0  0  0
  -14.2730   17.2798   10.4545 H   0  0  0  0  0  0  0  0  0  0  0  0
  -12.2801   19.2269    7.3892 H   0  0  0  0  0  0  0  0  0  0  0  0
  1 15  1  0  0  0  0
  2 16  1  0  0  0  0
  3 14  1  0  0  0  0
  4 14  2  0  0  0  0
  4 17  1  0  0  0  0
  5  6  1  0  0  0  0
  5 14  1  0  0  0  0
  5 18  1  0  0  0  0
  6 19  1  0  0  0  0
  7  8  2  0  0  0  0
  7  9  1  0  0  0  0
  8 10  1  0  0  0  0
  9 17  2  0  0  0  0
 10 18  2  0  0  0  0
 11 12  1  0  0  0  0
 11 15  2  0  0  0  0
 12 19  2  0  0  0  0
 13 16  2  0  0  0  0
 13 19  1  0  0  0  0
 15 16  1  0  0  0  0
 17 18  1  0  0  0  0
  3 20  1  0  0  0  0
  3 21  1  0  0  0  0
  6 22  1  0  0  0  0
  6 23  1  0  0  0  0
  7 24  1  0  0  0  0
  8 25  1  0  0  0  0
  9 26  1  0  0  0  0
 10 27  1  0  0  0  0
 11 28  1  0  0  0  0
 12 29  1  0  0  0  0
 13 30  1  0  0  0  0
M  END
> <pdb_id>
3GN2

> <uniprot_id>
O76290

> <usmiles>
Clc1c(Cl)ccc(c1)CN2c3c(N=C2N)cccc3

$$$$
AXA_B_2
          07192421093D 1   1.00000     0.00000     0
            
 54 58  0  0  0  0            999 V2000
   21.8200   47.7496   45.7558 S   0  0  0  0  0  0  0  0  0  0  0  0
   20.0238   49.5193   39.3791 O   0  0  0  0  0  0  0  0  0  0  0  0
   27.4847   58.4727   49.6106 O   0  0  0  0  0  0  0  0  0  0  0  0
   27.3316   50.8667   45.3316 O   0  0  0  0  0  0  0  0  0  0  0  0
   24.4282   48.6677   41.8668 O   0  0  0  0  0  0  0  0  0  0  0  0
   25.2172   56.8202   47.4513 O   0  0  0  0  0  0  0  0  0  0  0  0
   21.8905   48.3098   38.9713 N   0  0  0  0  0  0  0  0  0  0  0  0
   26.0697   50.5989   47.1891 N   0  0  0  0  0  0  0  0  0  0  0  0
   24.3148   48.9762   45.8279 N   0  0  0  0  0  0  0  0  0  0  0  0
   27.3679   56.2352   49.1599 N   0  0  0  0  0  0  0  0  0  0  0  0
   25.4273   49.3787   43.7778 N   0  0  0  0  0  0  0  0  0  0  0  0
   26.1311   57.8396   47.8858 C   0  0  0  0  0  0  0  0  0  0  0  0
   19.3859   47.0524   42.4642 C   0  0  0  0  0  0  0  0  0  0  0  0
   26.9152   51.4477   48.0407 C   0  0  0  0  0  0  0  0  0  0  0  0
   19.7732   46.7714   43.9165 C   0  0  0  0  0  0  0  0  0  0  0  0
   20.5540   46.6439   41.5667 C   0  0  0  0  0  0  0  0  0  0  0  0
   25.1311   54.5617   46.7511 C   0  0  0  0  0  0  0  0  0  0  0  0
   25.5118   53.2356   46.9214 C   0  0  0  0  0  0  0  0  0  0  0  0
   21.4215   48.9634   41.2527 C   0  0  0  0  0  0  0  0  0  0  0  0
   27.1371   53.9126   48.5596 C   0  0  0  0  0  0  0  0  0  0  0  0
   21.0434   48.9532   39.7702 C   0  0  0  0  0  0  0  0  0  0  0  0
   23.2997   48.3893   45.1797 C   0  0  0  0  0  0  0  0  0  0  0  0
   27.0231   57.5687   48.9168 C   0  0  0  0  0  0  0  0  0  0  0  0
   21.1522   47.3573   44.2272 C   0  0  0  0  0  0  0  0  0  0  0  0
   26.3647   50.3765   45.9113 C   0  0  0  0  0  0  0  0  0  0  0  0
   24.3734   48.7655   43.0911 C   0  0  0  0  0  0  0  0  0  0  0  0
   25.7462   55.5659   47.4909 C   0  0  0  0  0  0  0  0  0  0  0  0
   25.3633   49.4898   45.1699 C   0  0  0  0  0  0  0  0  0  0  0  0
   26.5111   52.9086   47.8317 C   0  0  0  0  0  0  0  0  0  0  0  0
   26.7644   55.2397   48.3815 C   0  0  0  0  0  0  0  0  0  0  0  0
   21.7533   47.5692   41.7880 C   0  0  1  0  0  0  0  0  0  0  0  0
   23.2775   48.2693   43.7913 C   0  0  0  0  0  0  0  0  0  0  0  0
   22.1050   47.7156   43.2738 C   0  0  0  0  0  0  0  0  0  0  0  0
   27.2311   59.4225   49.4277 H   0  0  0  0  0  0  0  0  0  0  0  0
   22.7027   47.8698   39.3542 H   0  0  0  0  0  0  0  0  0  0  0  0
   21.7150   48.2663   37.9877 H   0  0  0  0  0  0  0  0  0  0  0  0
   25.2515   50.1778   47.5805 H   0  0  0  0  0  0  0  0  0  0  0  0
   24.2896   49.0324   46.8260 H   0  0  0  0  0  0  0  0  0  0  0  0
   28.0290   55.9985   49.8718 H   0  0  0  0  0  0  0  0  0  0  0  0
   26.1257   58.7392   47.4490 H   0  0  0  0  0  0  0  0  0  0  0  0
   19.1951   48.0271   42.3478 H   0  0  0  0  0  0  0  0  0  0  0  0
   18.5729   46.5225   42.2227 H   0  0  0  0  0  0  0  0  0  0  0  0
   27.8756   51.3250   47.7905 H   0  0  0  0  0  0  0  0  0  0  0  0
   26.7860   51.1967   49.0001 H   0  0  0  0  0  0  0  0  0  0  0  0
   19.7946   45.7829   44.0659 H   0  0  0  0  0  0  0  0  0  0  0  0
   19.0954   47.1858   44.5238 H   0  0  0  0  0  0  0  0  0  0  0  0
   20.2684   46.6993   40.6100 H   0  0  0  0  0  0  0  0  0  0  0  0
   20.8202   45.7041   41.7813 H   0  0  0  0  0  0  0  0  0  0  0  0
   24.4132   54.7942   46.0949 H   0  0  0  0  0  0  0  0  0  0  0  0
   25.0666   52.5158   46.3887 H   0  0  0  0  0  0  0  0  0  0  0  0
   20.6534   49.3325   41.7760 H   0  0  0  0  0  0  0  0  0  0  0  0
   22.2211   49.5515   41.3747 H   0  0  0  0  0  0  0  0  0  0  0  0
   27.8573   53.6801   49.2132 H   0  0  0  0  0  0  0  0  0  0  0  0
   22.5447   47.2068   41.2959 H   0  0  0  0  0  0  0  0  0  0  0  0
  1 22  1  0  0  0  0
  1 24  1  0  0  0  0
  2 21  2  0  0  0  0
  3 23  1  0  0  0  0
  4 25  2  0  0  0  0
  5 26  2  0  0  0  0
  6 12  1  0  0  0  0
  6 27  1  0  0  0  0
  7 21  1  0  0  0  0
  8 14  1  0  0  0  0
  8 25  1  0  0  0  0
  9 22  1  0  0  0  0
  9 28  1  0  0  0  0
 10 23  1  0  0  0  0
 10 30  1  0  0  0  0
 11 26  1  0  0  0  0
 11 28  2  0  0  0  0
 12 23  2  0  0  0  0
 13 15  1  0  0  0  0
 13 16  1  0  0  0  0
 14 29  1  0  0  0  0
 15 24  1  0  0  0  0
 16 31  1  0  0  0  0
 17 18  1  0  0  0  0
 17 27  2  0  0  0  0
 18 29  2  0  0  0  0
 19 21  1  0  0  0  0
 19 31  1  0  0  0  0
 20 29  1  0  0  0  0
 20 30  2  0  0  0  0
 22 32  2  0  0  0  0
 24 33  2  0  0  0  0
 25 28  1  0  0  0  0
 26 32  1  0  0  0  0
 27 30  1  0  0  0  0
 31 33  1  0  0  0  0
 32 33  1  0  0  0  0
  3 34  1  0  0  0  0
  7 35  1  0  0  0  0
  7 36  1  0  0  0  0
  8 37  1  0  0  0  0
  9 38  1  0  0  0  0
 10 39  1  0  0  0  0
 12 40  1  0  0  0  0
 13 41  1  0  0  0  0
 13 42  1  0  0  0  0
 14 43  1  0  0  0  0
 14 44  1  0  0  0  0
 15 45  1  0  0  0  0
 15 46  1  0  0  0  0
 16 47  1  0  0  0  0
 16 48  1  0  0  0  0
 17 49  1  0  0  0  0
 18 50  1  0  0  0  0
 19 51  1  0  0  0  0
 19 52  1  0  0  0  0
 20 53  1  0  0  0  0
 31 54  1  0  0  0  0
M  END
> <pdb_id>
3DNG

> <uniprot_id>
P22894

> <usmiles>
S1C=2NC(=NC(=O)C2C3=C1CCC[C@H]3CC(=O)N)C(=O)NCc4cc5NC(O)=COc5cc4

$$$$
AXE_A_1104
          07192420503D 1   1.00000     0.00000     0
            
 48 51  0  0  0  0            999 V2000
    0.8389  -28.3439   48.0115 O   0  0  0  0  0  0  0  0  0  0  0  0
   -1.2025  -29.2099   46.4251 O   0  0  0  0  0  0  0  0  0  0  0  0
    3.3821  -31.7924   43.3668 N   0  0  0  0  0  0  0  0  0  0  0  0
    4.0206  -30.5828   45.2337 N   0  0  0  0  0  0  0  0  0  0  0  0
    1.1666  -32.0054   42.7057 N   0  0  0  0  0  0  0  0  0  0  0  0
    1.5723  -27.1120   48.0600 C   0  0  0  0  0  0  0  0  0  0  0  0
   -2.2568  -29.5762   45.5096 C   0  0  0  0  0  0  0  0  0  0  0  0
    0.7897  -32.8799   40.4476 C   0  0  0  0  0  0  0  0  0  0  0  0
    4.3249  -31.3341   44.1835 C   0  0  0  0  0  0  0  0  0  0  0  0
    3.1050  -37.5325   44.0887 C   0  0  0  0  0  0  0  0  0  0  0  0
    3.7141  -36.4123   43.5181 C   0  0  0  0  0  0  0  0  0  0  0  0
   -1.2427  -35.6769   43.0823 C   0  0  0  0  0  0  0  0  0  0  0  0
    1.7124  -37.6154   44.1174 C   0  0  0  0  0  0  0  0  0  0  0  0
   -0.4551  -36.6920   43.6194 C   0  0  0  0  0  0  0  0  0  0  0  0
    2.9419  -35.3810   42.9777 C   0  0  0  0  0  0  0  0  0  0  0  0
   -0.6470  -34.5529   42.5106 C   0  0  0  0  0  0  0  0  0  0  0  0
    2.4439  -29.4677   46.6115 C   0  0  0  0  0  0  0  0  0  0  0  0
    0.3879  -30.3650   44.9829 C   0  0  0  0  0  0  0  0  0  0  0  0
    2.0714  -31.5235   43.5700 C   0  0  0  0  0  0  0  0  0  0  0  0
    1.1238  -29.1157   46.9146 C   0  0  0  0  0  0  0  0  0  0  0  0
    0.0829  -29.5685   46.0976 C   0  0  0  0  0  0  0  0  0  0  0  0
    1.3884  -33.1805   41.8329 C   0  0  2  0  0  0  0  0  0  0  0  0
    2.7401  -30.2613   45.5061 C   0  0  0  0  0  0  0  0  0  0  0  0
    0.9366  -36.5861   43.5796 C   0  0  0  0  0  0  0  0  0  0  0  0
    1.7123  -30.7230   44.6742 C   0  0  0  0  0  0  0  0  0  0  0  0
    0.7490  -34.4330   42.4600 C   0  0  0  0  0  0  0  0  0  0  0  0
    1.5424  -35.4590   43.0013 C   0  0  0  0  0  0  0  0  0  0  0  0
    0.2834  -31.5401   42.6466 H   0  0  0  0  0  0  0  0  0  0  0  0
    1.3155  -26.6034   48.8818 H   0  0  0  0  0  0  0  0  0  0  0  0
    2.5526  -27.3083   48.0822 H   0  0  0  0  0  0  0  0  0  0  0  0
    1.3600  -26.5656   47.2499 H   0  0  0  0  0  0  0  0  0  0  0  0
   -3.1344  -29.2567   45.8668 H   0  0  0  0  0  0  0  0  0  0  0  0
   -2.0861  -29.1548   44.6189 H   0  0  0  0  0  0  0  0  0  0  0  0
   -2.2800  -30.5708   45.4088 H   0  0  0  0  0  0  0  0  0  0  0  0
    0.9318  -33.6656   39.8454 H   0  0  0  0  0  0  0  0  0  0  0  0
   -0.1902  -32.7030   40.5392 H   0  0  0  0  0  0  0  0  0  0  0  0
    1.2386  -32.0758   40.0578 H   0  0  0  0  0  0  0  0  0  0  0  0
    5.2822  -31.5599   44.0029 H   0  0  0  0  0  0  0  0  0  0  0  0
    3.6622  -38.2685   44.4732 H   0  0  0  0  0  0  0  0  0  0  0  0
    4.7118  -36.3481   43.4962 H   0  0  0  0  0  0  0  0  0  0  0  0
   -2.2394  -35.7541   43.1067 H   0  0  0  0  0  0  0  0  0  0  0  0
    1.2687  -38.4140   44.5242 H   0  0  0  0  0  0  0  0  0  0  0  0
   -0.8851  -37.4947   44.0326 H   0  0  0  0  0  0  0  0  0  0  0  0
    3.3894  -34.5838   42.5724 H   0  0  0  0  0  0  0  0  0  0  0  0
   -1.2208  -33.8260   42.1333 H   0  0  0  0  0  0  0  0  0  0  0  0
    3.1864  -29.1442   47.1980 H   0  0  0  0  0  0  0  0  0  0  0  0
   -0.3543  -30.6855   44.3943 H   0  0  0  0  0  0  0  0  0  0  0  0
    2.3721  -33.3320   41.7358 H   0  0  0  0  0  0  0  0  0  0  0  0
  1  6  1  0  0  0  0
  1 20  1  0  0  0  0
  2  7  1  0  0  0  0
  2 21  1  0  0  0  0
  3  9  2  0  0  0  0
  3 19  1  0  0  0  0
  4  9  1  0  0  0  0
  4 23  2  0  0  0  0
  5 19  1  0  0  0  0
  5 22  1  0  0  0  0
  8 22  1  0  0  0  0
 10 11  2  0  0  0  0
 10 13  1  0  0  0  0
 11 15  1  0  0  0  0
 12 14  2  0  0  0  0
 12 16  1  0  0  0  0
 13 24  2  0  0  0  0
 14 24  1  0  0  0  0
 15 27  2  0  0  0  0
 16 26  2  0  0  0  0
 17 20  2  0  0  0  0
 17 23  1  0  0  0  0
 18 21  2  0  0  0  0
 18 25  1  0  0  0  0
 19 25  2  0  0  0  0
 20 21  1  0  0  0  0
 22 26  1  0  0  0  0
 23 25  1  0  0  0  0
 24 27  1  0  0  0  0
 26 27  1  0  0  0  0
  5 28  1  0  0  0  0
  6 29  1  0  0  0  0
  6 30  1  0  0  0  0
  6 31  1  0  0  0  0
  7 32  1  0  0  0  0
  7 33  1  0  0  0  0
  7 34  1  0  0  0  0
  8 35  1  0  0  0  0
  8 36  1  0  0  0  0
  8 37  1  0  0  0  0
  9 38  1  0  0  0  0
 10 39  1  0  0  0  0
 11 40  1  0  0  0  0
 12 41  1  0  0  0  0
 13 42  1  0  0  0  0
 14 43  1  0  0  0  0
 15 44  1  0  0  0  0
 16 45  1  0  0  0  0
 17 46  1  0  0  0  0
 18 47  1  0  0  0  0
 22 48  1  0  0  0  0
M  END
> <pdb_id>
5OVE

> <uniprot_id>
Q07889

> <usmiles>
O(c1c(OC)cc2c(ncnc2c1)N[C@@H](c3c4c(ccc3)cccc4)C)C

$$$$
AXH_A_2001
          07192420503D 1   1.00000     0.00000     0
            
 60 63  0  0  0  0            999 V2000
    2.1700  -35.0500   43.4080 S   0  0  0  0  0  0  0  0  0  0  0  0
    0.3810  -27.8510   48.0260 O   0  0  0  0  0  0  0  0  0  0  0  0
   -1.5490  -28.6860   46.3370 O   0  0  0  0  0  0  0  0  0  0  0  0
   -1.6470  -36.2520   47.2910 N   0  0  0  0  0  0  0  0  0  0  0  0
    3.0560  -31.6700   43.7090 N   0  0  0  0  0  0  0  0  0  0  0  0
    3.6450  -30.3990   45.5810 N   0  0  0  0  0  0  0  0  0  0  0  0
    0.8750  -31.7740   42.9110 N   0  0  0  0  0  0  0  0  0  0  0  0
    1.4370  -27.4300   48.9130 C   0  0  0  0  0  0  0  0  0  0  0  0
   -2.5510  -29.0830   45.3920 C   0  0  0  0  0  0  0  0  0  0  0  0
   -0.8990  -35.8610   48.5010 C   0  0  0  0  0  0  0  0  0  0  0  0
    5.4460  -31.6620   44.4270 C   0  0  0  0  0  0  0  0  0  0  0  0
    0.2270  -32.7100   40.7350 C   0  0  0  0  0  0  0  0  0  0  0  0
    1.1640  -36.3170   43.8770 C   0  0  0  0  0  0  0  0  0  0  0  0
   -0.7570  -36.8720   46.2920 C   0  0  0  0  0  0  0  0  0  0  0  0
   -3.3260  -38.6370   44.0720 C   0  0  0  0  0  0  0  0  0  0  0  0
   -2.9820  -38.2330   42.7800 C   0  0  0  0  0  0  0  0  0  0  0  0
   -2.5890  -38.1760   45.1650 C   0  0  0  0  0  0  0  0  0  0  0  0
   -1.9010  -37.3710   42.5940 C   0  0  0  0  0  0  0  0  0  0  0  0
   -0.1950  -34.8810   42.7670 C   0  0  0  0  0  0  0  0  0  0  0  0
    2.0510  -29.1270   46.8050 C   0  0  0  0  0  0  0  0  0  0  0  0
    0.0620  -29.9900   45.0690 C   0  0  0  0  0  0  0  0  0  0  0  0
    3.9870  -31.2270   44.5790 C   0  0  0  0  0  0  0  0  0  0  0  0
    0.9500  -34.2000   42.6440 C   0  0  0  0  0  0  0  0  0  0  0  0
    1.7570  -31.3080   43.8150 C   0  0  0  0  0  0  0  0  0  0  0  0
    0.7320  -28.6930   47.0010 C   0  0  0  0  0  0  0  0  0  0  0  0
   -0.2670  -29.1250   46.1240 C   0  0  0  0  0  0  0  0  0  0  0  0
    1.1550  -32.8540   41.9460 C   0  0  2  0  0  0  0  0  0  0  0  0
    2.3720  -29.9920   45.7500 C   0  0  0  0  0  0  0  0  0  0  0  0
   -0.0840  -36.0500   43.4460 C   0  0  0  0  0  0  0  0  0  0  0  0
   -1.5020  -37.3050   45.0020 C   0  0  0  0  0  0  0  0  0  0  0  0
    1.3790  -30.4340   44.8630 C   0  0  0  0  0  0  0  0  0  0  0  0
   -1.1580  -36.9080   43.6880 C   0  0  0  0  0  0  0  0  0  0  0  0
   -2.0695  -35.4385   46.8914 H   0  0  0  0  0  0  0  0  0  0  0  0
   -0.0344  -31.3586   42.8923 H   0  0  0  0  0  0  0  0  0  0  0  0
    1.0616  -26.8236   49.6139 H   0  0  0  0  0  0  0  0  0  0  0  0
    1.8450  -28.2318   49.3496 H   0  0  0  0  0  0  0  0  0  0  0  0
    2.1367  -26.9427   48.3906 H   0  0  0  0  0  0  0  0  0  0  0  0
   -3.4341  -28.6989   45.6614 H   0  0  0  0  0  0  0  0  0  0  0  0
   -2.3043  -28.7462   44.4833 H   0  0  0  0  0  0  0  0  0  0  0  0
   -2.6136  -30.0808   45.3720 H   0  0  0  0  0  0  0  0  0  0  0  0
   -1.5253  -35.4443   49.1599 H   0  0  0  0  0  0  0  0  0  0  0  0
   -0.4771  -36.6710   48.9083 H   0  0  0  0  0  0  0  0  0  0  0  0
   -0.1876  -35.2027   48.2549 H   0  0  0  0  0  0  0  0  0  0  0  0
    5.9955  -31.2441   45.1504 H   0  0  0  0  0  0  0  0  0  0  0  0
    5.5059  -32.6578   44.4960 H   0  0  0  0  0  0  0  0  0  0  0  0
    5.7902  -31.3684   43.5352 H   0  0  0  0  0  0  0  0  0  0  0  0
    0.4167  -33.4421   40.0807 H   0  0  0  0  0  0  0  0  0  0  0  0
   -0.7249  -32.7699   41.0355 H   0  0  0  0  0  0  0  0  0  0  0  0
    0.3836  -31.8240   40.2985 H   0  0  0  0  0  0  0  0  0  0  0  0
    1.4453  -37.1291   44.3883 H   0  0  0  0  0  0  0  0  0  0  0  0
   -0.3325  -37.6797   46.7011 H   0  0  0  0  0  0  0  0  0  0  0  0
   -0.0477  -36.2121   46.0441 H   0  0  0  0  0  0  0  0  0  0  0  0
   -4.0989  -39.2554   44.2142 H   0  0  0  0  0  0  0  0  0  0  0  0
   -3.5069  -38.5593   41.9939 H   0  0  0  0  0  0  0  0  0  0  0  0
   -2.8423  -38.4739   46.0854 H   0  0  0  0  0  0  0  0  0  0  0  0
   -1.6537  -37.0803   41.6697 H   0  0  0  0  0  0  0  0  0  0  0  0
   -1.0616  -34.5549   42.3893 H   0  0  0  0  0  0  0  0  0  0  0  0
    2.7710  -28.8157   47.4252 H   0  0  0  0  0  0  0  0  0  0  0  0
   -0.6590  -30.2981   44.4483 H   0  0  0  0  0  0  0  0  0  0  0  0
    2.1049  -32.7837   41.6415 H   0  0  0  0  0  0  0  0  0  0  0  0
  1 13  1  0  0  0  0
  1 23  1  0  0  0  0
  2  8  1  0  0  0  0
  2 25  1  0  0  0  0
  3  9  1  0  0  0  0
  3 26  1  0  0  0  0
  4 10  1  0  0  0  0
  4 14  1  0  0  0  0
  5 22  2  0  0  0  0
  5 24  1  0  0  0  0
  6 22  1  0  0  0  0
  6 28  2  0  0  0  0
  7 24  1  0  0  0  0
  7 27  1  0  0  0  0
 11 22  1  0  0  0  0
 12 27  1  0  0  0  0
 13 29  2  0  0  0  0
 14 30  1  0  0  0  0
 15 16  2  0  0  0  0
 15 17  1  0  0  0  0
 16 18  1  0  0  0  0
 17 30  2  0  0  0  0
 18 32  2  0  0  0  0
 19 23  2  0  0  0  0
 19 29  1  0  0  0  0
 20 25  2  0  0  0  0
 20 28  1  0  0  0  0
 21 26  2  0  0  0  0
 21 31  1  0  0  0  0
 23 27  1  0  0  0  0
 24 31  2  0  0  0  0
 25 26  1  0  0  0  0
 28 31  1  0  0  0  0
 29 32  1  0  0  0  0
 30 32  1  0  0  0  0
  4 33  1  0  0  0  0
  7 34  1  0  0  0  0
  8 35  1  0  0  0  0
  8 36  1  0  0  0  0
  8 37  1  0  0  0  0
  9 38  1  0  0  0  0
  9 39  1  0  0  0  0
  9 40  1  0  0  0  0
 10 41  1  0  0  0  0
 10 42  1  0  0  0  0
 10 43  1  0  0  0  0
 11 44  1  0  0  0  0
 11 45  1  0  0  0  0
 11 46  1  0  0  0  0
 12 47  1  0  0  0  0
 12 48  1  0  0  0  0
 12 49  1  0  0  0  0
 13 50  1  0  0  0  0
 14 51  1  0  0  0  0
 14 52  1  0  0  0  0
 15 53  1  0  0  0  0
 16 54  1  0  0  0  0
 17 55  1  0  0  0  0
 18 56  1  0  0  0  0
 19 57  1  0  0  0  0
 20 58  1  0  0  0  0
 21 59  1  0  0  0  0
 27 60  1  0  0  0  0
M  END
> <pdb_id>
5OVI

> <uniprot_id>
Q07889

> <usmiles>
S1C(=CC(c2c(cccc2)CNC)=C1)[C@H](Nc3nc(nc4c3cc(OC)c(OC)c4)C)C

$$$$
AXI_B_601
          07202400343D 1   1.00000     0.00000     0
            
 46 49  0  0  0  0            999 V2000
   18.8269   -7.8913   13.5692 S   0  0  0  0  0  0  0  0  0  0  0  0
   20.0458   -7.3941   16.1687 O   0  0  0  0  0  0  0  0  0  0  0  0
   16.2606  -10.0222    8.1628 N   0  0  0  0  0  0  0  0  0  0  0  0
   16.1043  -10.1063    9.5268 N   0  0  0  0  0  0  0  0  0  0  0  0
   21.9258   -6.1137   15.9101 N   0  0  0  0  0  0  0  0  0  0  0  0
   20.1288   -6.6053    4.7450 N   0  0  0  0  0  0  0  0  0  0  0  0
   22.6950   -6.9649   16.7942 C   0  0  0  0  0  0  0  0  0  0  0  0
   20.5038   -6.2225    3.5105 C   0  0  0  0  0  0  0  0  0  0  0  0
   19.9117   -6.8074    2.4041 C   0  0  0  0  0  0  0  0  0  0  0  0
   18.9390   -7.7813    2.5723 C   0  0  0  0  0  0  0  0  0  0  0  0
   18.2741   -3.9085   13.0567 C   0  0  0  0  0  0  0  0  0  0  0  0
   19.0950   -3.3503   14.0365 C   0  0  0  0  0  0  0  0  0  0  0  0
   18.1978   -5.2973   12.9226 C   0  0  0  0  0  0  0  0  0  0  0  0
   18.5719   -8.1567    3.8573 C   0  0  0  0  0  0  0  0  0  0  0  0
   19.2257   -7.6625   10.8359 C   0  0  0  0  0  0  0  0  0  0  0  0
   18.8009   -7.9411    6.3333 C   0  0  0  0  0  0  0  0  0  0  0  0
   19.8331   -4.1710   14.8740 C   0  0  0  0  0  0  0  0  0  0  0  0
   17.8111   -8.8727    6.5119 C   0  0  0  0  0  0  0  0  0  0  0  0
   18.9325   -7.9251    9.4824 C   0  0  0  0  0  0  0  0  0  0  0  0
   17.3793   -9.0682   11.5212 C   0  0  0  0  0  0  0  0  0  0  0  0
   20.5568   -6.4229   15.6481 C   0  0  0  0  0  0  0  0  0  0  0  0
   18.4466   -8.2399   11.8500 C   0  0  0  0  0  0  0  0  0  0  0  0
   18.9316   -6.1173   13.7575 C   0  0  0  0  0  0  0  0  0  0  0  0
   19.1906   -7.5445    4.9355 C   0  0  0  0  0  0  0  0  0  0  0  0
   17.3079   -9.2217    7.8889 C   0  0  0  0  0  0  0  0  0  0  0  0
   17.0806   -9.3372   10.1374 C   0  0  0  0  0  0  0  0  0  0  0  0
   19.7585   -5.5517   14.7411 C   0  0  0  0  0  0  0  0  0  0  0  0
   17.8440   -8.7742    9.1443 C   0  0  0  0  0  0  0  0  0  0  0  0
   15.4007  -10.6363   10.0001 H   0  0  0  0  0  0  0  0  0  0  0  0
   22.3510   -5.3142   15.4859 H   0  0  0  0  0  0  0  0  0  0  0  0
   23.6273   -6.6112   16.8697 H   0  0  0  0  0  0  0  0  0  0  0  0
   22.2690   -6.9776   17.6988 H   0  0  0  0  0  0  0  0  0  0  0  0
   22.7199   -7.8937   16.4244 H   0  0  0  0  0  0  0  0  0  0  0  0
   21.2057   -5.5200    3.3930 H   0  0  0  0  0  0  0  0  0  0  0  0
   20.1854   -6.5275    1.4839 H   0  0  0  0  0  0  0  0  0  0  0  0
   18.5073   -8.2081    1.7775 H   0  0  0  0  0  0  0  0  0  0  0  0
   17.7415   -3.3164   12.4519 H   0  0  0  0  0  0  0  0  0  0  0  0
   19.1508   -2.3567   14.1347 H   0  0  0  0  0  0  0  0  0  0  0  0
   17.6101   -5.6987   12.2201 H   0  0  0  0  0  0  0  0  0  0  0  0
   17.8728   -8.8569    4.0025 H   0  0  0  0  0  0  0  0  0  0  0  0
   19.9904   -7.0637   11.0738 H   0  0  0  0  0  0  0  0  0  0  0  0
   19.2581   -7.5303    7.1222 H   0  0  0  0  0  0  0  0  0  0  0  0
   20.4210   -3.7684   15.5757 H   0  0  0  0  0  0  0  0  0  0  0  0
   17.4161   -9.3287    5.7144 H   0  0  0  0  0  0  0  0  0  0  0  0
   19.4897   -7.5143    8.7607 H   0  0  0  0  0  0  0  0  0  0  0  0
   16.8205   -9.4763   12.2431 H   0  0  0  0  0  0  0  0  0  0  0  0
  1 22  1  0  0  0  0
  1 23  1  0  0  0  0
  2 21  2  0  0  0  0
  3  4  1  0  0  0  0
  3 25  2  0  0  0  0
  4 26  1  0  0  0  0
  5  7  1  0  0  0  0
  5 21  1  0  0  0  0
  6  8  1  0  0  0  0
  6 24  2  0  0  0  0
  8  9  2  0  0  0  0
  9 10  1  0  0  0  0
 10 14  2  0  0  0  0
 11 12  2  0  0  0  0
 11 13  1  0  0  0  0
 12 17  1  0  0  0  0
 13 23  2  0  0  0  0
 14 24  1  0  0  0  0
 15 19  1  0  0  0  0
 15 22  2  0  0  0  0
 16 18  2  0  0  0  0
 16 24  1  0  0  0  0
 17 27  2  0  0  0  0
 18 25  1  0  0  0  0
 19 28  2  0  0  0  0
 20 22  1  0  0  0  0
 20 26  2  0  0  0  0
 21 27  1  0  0  0  0
 23 27  1  0  0  0  0
 25 28  1  0  0  0  0
 26 28  1  0  0  0  0
  4 29  1  0  0  0  0
  5 30  1  0  0  0  0
  7 31  1  0  0  0  0
  7 32  1  0  0  0  0
  7 33  1  0  0  0  0
  8 34  1  0  0  0  0
  9 35  1  0  0  0  0
 10 36  1  0  0  0  0
 11 37  1  0  0  0  0
 12 38  1  0  0  0  0
 13 39  1  0  0  0  0
 14 40  1  0  0  0  0
 15 41  1  0  0  0  0
 16 42  1  0  0  0  0
 17 43  1  0  0  0  0
 18 44  1  0  0  0  0
 19 45  1  0  0  0  0
 20 46  1  0  0  0  0
M  END
> <pdb_id>
4TWP

> <uniprot_id>
P00519

> <usmiles>
S(c1c(cccc1)C(=O)NC)c2cc3NN=C(c3cc2)/C=C/c4ncccc4

$$$$
AXM_A_502
          07202411523D 1   1.00000     0.00000     0
            
 34 36  0  0  0  0            999 V2000
  -34.5985   -6.4285  -14.6415 O   0  0  0  0  0  0  0  0  0  0  0  0
  -34.6670   -5.8582  -12.0177 O   0  0  0  0  0  0  0  0  0  0  0  0
  -34.5752   -5.1329  -14.1308 N   0  0  0  0  0  0  0  0  0  0  0  0
  -32.6366   -1.3036   -9.4733 C   0  0  0  0  0  0  0  0  0  0  0  0
  -31.1899   -1.5656  -11.4691 C   0  0  0  0  0  0  0  0  0  0  0  0
  -31.4378   -3.4511   -9.8652 C   0  0  0  0  0  0  0  0  0  0  0  0
  -34.9412   -3.5218  -12.3550 C   0  0  0  0  0  0  0  0  0  0  0  0
  -33.6634   -1.4843  -11.7334 C   0  0  0  0  0  0  0  0  0  0  0  0
  -33.9063   -3.3377  -10.1102 C   0  0  0  0  0  0  0  0  0  0  0  0
  -32.4439   -3.6081  -12.1252 C   0  0  0  0  0  0  0  0  0  0  0  0
  -34.7137   -4.9413  -12.8230 C   0  0  0  0  0  0  0  0  0  0  0  0
  -32.4769   -0.9363  -10.9439 C   0  0  3  0  0  0  0  0  0  0  0  0
  -32.7139   -2.8194   -9.3153 C   0  0  3  0  0  0  0  0  0  0  0  0
  -31.2518   -3.0831  -11.3334 C   0  0  3  0  0  0  0  0  0  0  0  0
  -33.7320   -2.9979  -11.5837 C   0  0  3  0  0  0  0  0  0  0  0  0
  -34.4822   -6.3976  -15.6342 H   0  0  0  0  0  0  0  0  0  0  0  0
  -34.4552   -4.3521  -14.7440 H   0  0  0  0  0  0  0  0  0  0  0  0
  -33.4758   -0.8911   -9.1189 H   0  0  0  0  0  0  0  0  0  0  0  0
  -31.8520   -0.9573   -8.9590 H   0  0  0  0  0  0  0  0  0  0  0  0
  -30.4137   -1.2183  -10.9429 H   0  0  0  0  0  0  0  0  0  0  0  0
  -31.0738   -1.3247  -12.4327 H   0  0  0  0  0  0  0  0  0  0  0  0
  -31.4995   -4.4455   -9.7800 H   0  0  0  0  0  0  0  0  0  0  0  0
  -30.6537   -3.1196   -9.3406 H   0  0  0  0  0  0  0  0  0  0  0  0
  -35.7439   -3.4990  -11.7590 H   0  0  0  0  0  0  0  0  0  0  0  0
  -35.0999   -2.9369  -13.1504 H   0  0  0  0  0  0  0  0  0  0  0  0
  -33.5543   -1.2514  -12.6998 H   0  0  0  0  0  0  0  0  0  0  0  0
  -34.5086   -1.0782  -11.3861 H   0  0  0  0  0  0  0  0  0  0  0  0
  -34.7437   -2.9114   -9.7681 H   0  0  0  0  0  0  0  0  0  0  0  0
  -33.9699   -4.3300  -10.0038 H   0  0  0  0  0  0  0  0  0  0  0  0
  -32.4867   -4.6036  -12.0402 H   0  0  0  0  0  0  0  0  0  0  0  0
  -32.3382   -3.3601  -13.0882 H   0  0  0  0  0  0  0  0  0  0  0  0
  -32.4335    0.0578  -11.0426 H   0  0  0  0  0  0  0  0  0  0  0  0
  -32.8209   -3.0553   -8.3495 H   0  0  0  0  0  0  0  0  0  0  0  0
  -30.4071   -3.4900  -11.6812 H   0  0  0  0  0  0  0  0  0  0  0  0
  1  3  1  0  0  0  0
  2 11  2  0  0  0  0
  3 11  1  0  0  0  0
  4 12  1  0  0  0  0
  4 13  1  0  0  0  0
  5 12  1  0  0  0  0
  5 14  1  0  0  0  0
  6 13  1  0  0  0  0
  6 14  1  0  0  0  0
  7 11  1  0  0  0  0
  7 15  1  0  0  0  0
  8 12  1  0  0  0  0
  8 15  1  0  0  0  0
  9 13  1  0  0  0  0
  9 15  1  0  0  0  0
 10 14  1  0  0  0  0
 10 15  1  0  0  0  0
  1 16  1  0  0  0  0
  3 17  1  0  0  0  0
  4 18  1  0  0  0  0
  4 19  1  0  0  0  0
  5 20  1  0  0  0  0
  5 21  1  0  0  0  0
  6 22  1  0  0  0  0
  6 23  1  0  0  0  0
  7 24  1  0  0  0  0
  7 25  1  0  0  0  0
  8 26  1  0  0  0  0
  8 27  1  0  0  0  0
  9 28  1  0  0  0  0
  9 29  1  0  0  0  0
 10 30  1  0  0  0  0
 10 31  1  0  0  0  0
 12 32  1  0  0  0  0
 13 33  1  0  0  0  0
 14 34  1  0  0  0  0
M  END
> <pdb_id>
4HEV

> <uniprot_id>
P10845

> <usmiles>
O=C(NO)CC12CC3CC(C1)CC(C2)C3

$$$$
AYN_A_206
          07192420503D 1   1.00000     0.00000     0
            
 33 35  0  0  0  0            999 V2000
   -5.8528   -0.2099   -1.5192 F   0  0  0  0  0  0  0  0  0  0  0  0
   -5.5897    0.5460    0.6146 F   0  0  0  0  0  0  0  0  0  0  0  0
   -4.0189    1.0183   -0.9680 F   0  0  0  0  0  0  0  0  0  0  0  0
   -1.9483   -0.8833    3.5091 O   0  0  0  0  0  0  0  0  0  0  0  0
   -0.3781    0.6697    3.3488 N   0  0  0  0  0  0  0  0  0  0  0  0
   -0.8299   -2.1627    1.0047 N   0  0  0  0  0  0  0  0  0  0  0  0
    1.3584   -4.1951   -1.2760 C   0  0  0  0  0  0  0  0  0  0  0  0
    2.5717   -3.8061   -0.7022 C   0  0  0  0  0  0  0  0  0  0  0  0
   -4.2182   -3.5746    0.3549 C   0  0  0  0  0  0  0  0  0  0  0  0
   -2.8733   -3.5086    0.7070 C   0  0  0  0  0  0  0  0  0  0  0  0
    0.1644   -3.6990   -0.7804 C   0  0  0  0  0  0  0  0  0  0  0  0
    2.6062   -2.9429    0.3634 C   0  0  0  0  0  0  0  0  0  0  0  0
   -4.8937   -2.4230   -0.0373 C   0  0  0  0  0  0  0  0  0  0  0  0
   -2.8754   -1.1383    0.2666 C   0  0  0  0  0  0  0  0  0  0  0  0
    1.1079   -1.5319    1.9392 C   0  0  0  0  0  0  0  0  0  0  0  0
   -0.9141   -0.5128    2.9843 C   0  0  0  0  0  0  0  0  0  0  0  0
   -2.1939   -2.2825    0.6807 C   0  0  0  0  0  0  0  0  0  0  0  0
   -0.2410   -1.3733    1.9915 C   0  0  0  0  0  0  0  0  0  0  0  0
    0.1706   -2.8078    0.3070 C   0  0  0  0  0  0  0  0  0  0  0  0
    1.4060   -2.4235    0.8816 C   0  0  0  0  0  0  0  0  0  0  0  0
   -4.2164   -1.2043   -0.0855 C   0  0  0  0  0  0  0  0  0  0  0  0
   -4.9266    0.0554   -0.5063 C   0  0  0  0  0  0  0  0  0  0  0  0
    0.4710    0.9855    2.9255 H   0  0  0  0  0  0  0  0  0  0  0  0
   -0.8298    1.2308    4.0425 H   0  0  0  0  0  0  0  0  0  0  0  0
    1.3524   -4.8330   -2.0461 H   0  0  0  0  0  0  0  0  0  0  0  0
    3.4286   -4.1627   -1.0744 H   0  0  0  0  0  0  0  0  0  0  0  0
   -4.6997   -4.4506    0.3838 H   0  0  0  0  0  0  0  0  0  0  0  0
   -2.3892   -4.3399    0.9801 H   0  0  0  0  0  0  0  0  0  0  0  0
   -0.7024   -3.9746   -1.1959 H   0  0  0  0  0  0  0  0  0  0  0  0
    3.4819   -2.6836    0.7705 H   0  0  0  0  0  0  0  0  0  0  0  0
   -5.8618   -2.4688   -0.2839 H   0  0  0  0  0  0  0  0  0  0  0  0
   -2.3939   -0.2630    0.2231 H   0  0  0  0  0  0  0  0  0  0  0  0
    1.7741   -1.0945    2.5433 H   0  0  0  0  0  0  0  0  0  0  0  0
  1 22  1  0  0  0  0
  2 22  1  0  0  0  0
  3 22  1  0  0  0  0
  4 16  2  0  0  0  0
  5 16  1  0  0  0  0
  6 17  1  0  0  0  0
  6 18  1  0  0  0  0
  6 19  1  0  0  0  0
  7  8  2  0  0  0  0
  7 11  1  0  0  0  0
  8 12  1  0  0  0  0
  9 10  2  0  0  0  0
  9 13  1  0  0  0  0
 10 17  1  0  0  0  0
 11 19  2  0  0  0  0
 12 20  2  0  0  0  0
 13 21  2  0  0  0  0
 14 17  2  0  0  0  0
 14 21  1  0  0  0  0
 15 18  2  0  0  0  0
 15 20  1  0  0  0  0
 16 18  1  0  0  0  0
 19 20  1  0  0  0  0
 21 22  1  0  0  0  0
  5 23  1  0  0  0  0
  5 24  1  0  0  0  0
  7 25  1  0  0  0  0
  8 26  1  0  0  0  0
  9 27  1  0  0  0  0
 10 28  1  0  0  0  0
 11 29  1  0  0  0  0
 12 30  1  0  0  0  0
 13 31  1  0  0  0  0
 14 32  1  0  0  0  0
 15 33  1  0  0  0  0
M  END
> <pdb_id>
5OW8

> <uniprot_id>
O15496

> <usmiles>
FC(F)(F)c1cc(N2c3c(cccc3)C=C2C(=O)N)ccc1

$$$$
AYX_A_263
          07192416293D 1   1.00000     0.00000     0
            
 35 36  0  0  0  0            999 V2000
   -5.9214    0.9699   16.9083 S   0  0  0  0  0  0  0  0  0  0  0  0
   -7.3672    0.9815   16.8579 O   0  0  0  0  0  0  0  0  0  0  0  0
   -5.3434    1.1170   18.2465 O   0  0  0  0  0  0  0  0  0  0  0  0
   -8.5719    9.3700    7.8861 O   0  5  0  0  0  0  0  0  0  0  0  0
   -8.6219    7.3449    8.8639 O   0  0  0  0  0  0  0  0  0  0  0  0
   -6.4181    6.1395   12.5773 O   0  0  0  0  0  0  0  0  0  0  0  0
   -5.3053   -0.3301   16.2108 N   0  0  0  0  0  0  0  0  0  0  0  0
   -4.3282    5.6599   13.6060 N   0  0  0  0  0  0  0  0  0  0  0  0
   -4.5781    7.3653   11.9439 N   0  0  0  0  0  0  0  0  0  0  0  0
   -8.0674    8.4962    8.7125 N   0  3  0  0  0  0  0  0  0  0  0  0
   -5.0124   10.3080    9.7673 C   0  0  0  0  0  0  0  0  0  0  0  0
   -4.4823    9.4386   10.7238 C   0  0  0  0  0  0  0  0  0  0  0  0
   -6.2085    9.9958    9.1222 C   0  0  0  0  0  0  0  0  0  0  0  0
   -4.1389    2.4796   15.4666 C   0  0  0  0  0  0  0  0  0  0  0  0
   -6.3895    3.3453   15.6801 C   0  0  0  0  0  0  0  0  0  0  0  0
   -3.7856    3.5789   14.6912 C   0  0  0  0  0  0  0  0  0  0  0  0
   -6.0392    4.4516   14.9066 C   0  0  0  0  0  0  0  0  0  0  0  0
   -6.3343    7.9164   10.3424 C   0  0  0  0  0  0  0  0  0  0  0  0
   -5.2063    6.2963   12.6552 C   0  0  0  0  0  0  0  0  0  0  0  0
   -5.4384    2.3731   15.9439 C   0  0  0  0  0  0  0  0  0  0  0  0
   -4.7448    4.5452   14.4384 C   0  0  0  0  0  0  0  0  0  0  0  0
   -5.1482    8.2526   10.9872 C   0  0  0  0  0  0  0  0  0  0  0  0
   -6.8474    8.7987    9.3858 C   0  0  0  0  0  0  0  0  0  0  0  0
   -4.6269   -0.6564   16.7225 H   0  0  0  0  0  0  0  0  0  0  0  0
   -3.4441    5.8604   13.5704 H   0  0  0  0  0  0  0  0  0  0  0  0
   -3.6886    7.4861   12.1153 H   0  0  0  0  0  0  0  0  0  0  0  0
   -4.5628   11.1478    9.5752 H   0  0  0  0  0  0  0  0  0  0  0  0
   -3.6477    9.6558   11.1869 H   0  0  0  0  0  0  0  0  0  0  0  0
   -6.5745   10.6043    8.4542 H   0  0  0  0  0  0  0  0  0  0  0  0
   -3.4856    1.7867   15.6603 H   0  0  0  0  0  0  0  0  0  0  0  0
   -7.2946    3.2533   16.0254 H   0  0  0  0  0  0  0  0  0  0  0  0
   -2.8825    3.6740   14.3458 H   0  0  0  0  0  0  0  0  0  0  0  0
   -6.6905    5.1435   14.7078 H   0  0  0  0  0  0  0  0  0  0  0  0
   -6.7849    7.0786   10.5375 H   0  0  0  0  0  0  0  0  0  0  0  0
   -4.9540   -0.0882   15.3063 H   0  0  0  0  0  0  0  0  0  0  0  0
  1  2  2  0  0  0  0
  1  3  2  0  0  0  0
  1  7  1  0  0  0  0
  1 20  1  0  0  0  0
  4 10  1  0  0  0  0
  5 10  2  0  0  0  0
  6 19  2  0  0  0  0
  7 24  1  0  0  0  0
  8 19  1  0  0  0  0
  8 21  1  0  0  0  0
  8 25  1  0  0  0  0
  9 19  1  0  0  0  0
  9 22  1  0  0  0  0
  9 26  1  0  0  0  0
 10 23  1  0  0  0  0
 11 12  2  0  0  0  0
 11 13  1  0  0  0  0
 11 27  1  0  0  0  0
 12 22  1  0  0  0  0
 12 28  1  0  0  0  0
 13 23  2  0  0  0  0
 13 29  1  0  0  0  0
 14 16  1  0  0  0  0
 14 20  2  0  0  0  0
 14 30  1  0  0  0  0
 15 17  2  0  0  0  0
 15 20  1  0  0  0  0
 15 31  1  0  0  0  0
 16 21  2  0  0  0  0
 16 32  1  0  0  0  0
 17 21  1  0  0  0  0
 17 33  1  0  0  0  0
 18 22  2  0  0  0  0
 18 23  1  0  0  0  0
 18 34  1  0  0  0  0
  7 35  1  0  0  0  0
M  CHG  2   4  -1  10   1
M  END
> <pdb_id>
3N2P

> <uniprot_id>
P00918

> <usmiles>
S(=O)(=O)(N)c1ccc(NC(=O)Nc2cc([N+]([O-])=O)ccc2)cc1

$$$$
AYZ_A_202
          07192420503D 1   1.00000     0.00000     0
            
 43 45  0  0  0  0            999 V2000
   -0.5240   -6.3630   -1.6570 F   0  0  0  0  0  0  0  0  0  0  0  0
   -1.1590   -4.7650   -3.2290 F   0  0  0  0  0  0  0  0  0  0  0  0
    0.1390   -6.5710   -3.8200 F   0  0  0  0  0  0  0  0  0  0  0  0
   -6.3300    1.6610    2.4370 O   0  0  0  0  0  0  0  0  0  0  0  0
   -4.7200    1.3840    3.8810 O   0  0  0  0  0  0  0  0  0  0  0  0
   -1.7700   -0.7880    3.6750 O   0  0  0  0  0  0  0  0  0  0  0  0
    0.9890   -4.9490   -2.4690 O   0  0  0  0  0  0  0  0  0  0  0  0
   -0.1400    0.7290    3.3570 N   0  0  0  0  0  0  0  0  0  0  0  0
   -0.8620   -1.9910    1.0550 N   0  0  0  0  0  0  0  0  0  0  0  0
   -4.4700   -2.5670    0.2920 C   0  0  0  0  0  0  0  0  0  0  0  0
   -4.1580    2.0500    1.5540 C   0  0  0  0  0  0  0  0  0  0  0  0
   -3.1400   -2.8650    0.5850 C   0  0  0  0  0  0  0  0  0  0  0  0
    2.2780   -3.9760   -0.7820 C   0  0  0  0  0  0  0  0  0  0  0  0
   -4.9010   -1.2470    0.1840 C   0  0  0  0  0  0  0  0  0  0  0  0
   -4.4270    1.2430    0.2680 C   0  0  0  0  0  0  0  0  0  0  0  0
    2.4150   -3.1900    0.3210 C   0  0  0  0  0  0  0  0  0  0  0  0
   -0.1110   -3.5390   -0.8280 C   0  0  0  0  0  0  0  0  0  0  0  0
   -2.6740   -0.5000    0.6500 C   0  0  0  0  0  0  0  0  0  0  0  0
    1.1640   -1.6750    1.9870 C   0  0  0  0  0  0  0  0  0  0  0  0
   -5.1410    1.6850    2.6490 C   0  0  0  0  0  0  0  0  0  0  0  0
   -0.7370   -0.4460    3.0780 C   0  0  0  0  0  0  0  0  0  0  0  0
    1.0220   -4.1660   -1.3560 C   0  0  0  0  0  0  0  0  0  0  0  0
   -2.2310   -1.8210    0.7830 C   0  0  0  0  0  0  0  0  0  0  0  0
   -3.9980   -0.2010    0.3770 C   0  0  0  0  0  0  0  0  0  0  0  0
   -0.1490   -1.3300    2.0560 C   0  0  0  0  0  0  0  0  0  0  0  0
    0.0240   -2.7230    0.3060 C   0  0  0  0  0  0  0  0  0  0  0  0
    1.3030   -2.5480    0.8800 C   0  0  0  0  0  0  0  0  0  0  0  0
   -0.1720   -5.6630   -2.8070 C   0  0  0  0  0  0  0  0  0  0  0  0
   -6.6801    1.8808    1.5264 H   0  0  0  0  0  0  0  0  0  0  0  0
    0.6920    0.9951    2.8702 H   0  0  0  0  0  0  0  0  0  0  0  0
   -0.5288    1.3351    4.0509 H   0  0  0  0  0  0  0  0  0  0  0  0
   -5.1238   -3.3116    0.1575 H   0  0  0  0  0  0  0  0  0  0  0  0
   -4.2443    3.0253    1.3506 H   0  0  0  0  0  0  0  0  0  0  0  0
   -3.2298    1.8566    1.8718 H   0  0  0  0  0  0  0  0  0  0  0  0
   -2.8389   -3.8162    0.6529 H   0  0  0  0  0  0  0  0  0  0  0  0
    3.0808   -4.4184   -1.1817 H   0  0  0  0  0  0  0  0  0  0  0  0
   -5.8572   -1.0490   -0.0318 H   0  0  0  0  0  0  0  0  0  0  0  0
   -3.9260    1.6683   -0.4858 H   0  0  0  0  0  0  0  0  0  0  0  0
   -5.4076    1.2703    0.0739 H   0  0  0  0  0  0  0  0  0  0  0  0
    3.3171   -3.0701    0.7355 H   0  0  0  0  0  0  0  0  0  0  0  0
   -1.0065   -3.6704   -1.2532 H   0  0  0  0  0  0  0  0  0  0  0  0
   -2.0174    0.2470    0.7548 H   0  0  0  0  0  0  0  0  0  0  0  0
    1.8927   -1.3707    2.6005 H   0  0  0  0  0  0  0  0  0  0  0  0
  1 28  1  0  0  0  0
  2 28  1  0  0  0  0
  3 28  1  0  0  0  0
  4 20  1  0  0  0  0
  5 20  2  0  0  0  0
  6 21  2  0  0  0  0
  7 22  1  0  0  0  0
  7 28  1  0  0  0  0
  8 21  1  0  0  0  0
  9 23  1  0  0  0  0
  9 25  1  0  0  0  0
  9 26  1  0  0  0  0
 10 12  2  0  0  0  0
 10 14  1  0  0  0  0
 11 15  1  0  0  0  0
 11 20  1  0  0  0  0
 12 23  1  0  0  0  0
 13 16  1  0  0  0  0
 13 22  2  0  0  0  0
 14 24  2  0  0  0  0
 15 24  1  0  0  0  0
 16 27  2  0  0  0  0
 17 22  1  0  0  0  0
 17 26  2  0  0  0  0
 18 23  2  0  0  0  0
 18 24  1  0  0  0  0
 19 25  2  0  0  0  0
 19 27  1  0  0  0  0
 21 25  1  0  0  0  0
 26 27  1  0  0  0  0
  4 29  1  0  0  0  0
  8 30  1  0  0  0  0
  8 31  1  0  0  0  0
 10 32  1  0  0  0  0
 11 33  1  0  0  0  0
 11 34  1  0  0  0  0
 12 35  1  0  0  0  0
 13 36  1  0  0  0  0
 14 37  1  0  0  0  0
 15 38  1  0  0  0  0
 15 39  1  0  0  0  0
 16 40  1  0  0  0  0
 17 41  1  0  0  0  0
 18 42  1  0  0  0  0
 19 43  1  0  0  0  0
M  END
> <pdb_id>
5OWC

> <uniprot_id>
O15496

> <usmiles>
FC(F)(F)Oc1cc2N(c3cc(ccc3)CCC(=O)O)C(C(=O)N)=Cc2cc1

$$$$
AZ9_A_302
          07202406193D 1   1.00000     0.00000     0
            
 18 19  0  0  0  0            999 V2000
   75.6014    8.5756   59.3435 O   0  0  0  0  0  0  0  0  0  0  0  0
   79.4078    9.5661   61.2745 O   0  0  0  0  0  0  0  0  0  0  0  0
   77.0796   13.8882   60.5458 N   0  0  0  0  0  0  0  0  0  0  0  0
   76.2954   12.9563   60.0707 N   0  0  0  0  0  0  0  0  0  0  0  0
   78.7342   12.3591   61.1852 N   0  0  0  0  0  0  0  0  0  0  0  0
   75.9316   10.6814   59.6791 N   0  0  0  0  0  0  0  0  0  0  0  0
   77.5103    9.0569   60.2858 N   0  0  0  0  0  0  0  0  0  0  0  0
   77.8450    7.6241   60.3470 C   0  0  0  0  0  0  0  0  0  0  0  0
   78.2543   13.5816   61.0714 C   0  0  0  0  0  0  0  0  0  0  0  0
   76.3383    9.4258   59.7697 C   0  0  0  0  0  0  0  0  0  0  0  0
   76.7275   11.7113   60.1428 C   0  0  0  0  0  0  0  0  0  0  0  0
   78.3587    9.9545   60.7888 C   0  0  0  0  0  0  0  0  0  0  0  0
   77.9673   11.3688   60.7352 C   0  0  0  0  0  0  0  0  0  0  0  0
   75.0416   10.8866   59.2720 H   0  0  0  0  0  0  0  0  0  0  0  0
   78.7501    7.5104   60.7567 H   0  0  0  0  0  0  0  0  0  0  0  0
   77.1649    7.1464   60.9032 H   0  0  0  0  0  0  0  0  0  0  0  0
   77.8471    7.2425   59.4227 H   0  0  0  0  0  0  0  0  0  0  0  0
   78.8208   14.3339   61.4077 H   0  0  0  0  0  0  0  0  0  0  0  0
  1 10  2  0  0  0  0
  2 12  2  0  0  0  0
  3  4  1  0  0  0  0
  3  9  2  0  0  0  0
  4 11  2  0  0  0  0
  5  9  1  0  0  0  0
  5 13  2  0  0  0  0
  6 10  1  0  0  0  0
  6 11  1  0  0  0  0
  7  8  1  0  0  0  0
  7 10  1  0  0  0  0
  7 12  1  0  0  0  0
 11 13  1  0  0  0  0
 12 13  1  0  0  0  0
  6 14  1  0  0  0  0
  8 15  1  0  0  0  0
  8 16  1  0  0  0  0
  8 17  1  0  0  0  0
  9 18  1  0  0  0  0
M  END
> <pdb_id>
5JE5

> <uniprot_id>
Q9LBJ0

> <usmiles>
O=C1N(C(=O)c2ncnnc2N1)C

$$$$
AZF_B_1445
          07192418433D 1   1.00000     0.00000     0
            
 22 22  0  0  0  0            999 V2000
   -2.2157    8.1140    8.9074 O   0  0  0  0  0  0  0  0  0  0  0  0
    0.9187   12.2874    7.2597 O   0  0  0  0  0  0  0  0  0  0  0  0
   -1.3148   10.8296    6.5405 O   0  0  0  0  0  0  0  0  0  0  0  0
   -0.5228   11.5587   10.6251 N   0  0  0  0  0  0  0  0  0  0  0  0
   -1.4760   10.5524   10.2845 N   0  0  0  0  0  0  0  0  0  0  0  0
   -2.8761    9.3461    8.6325 C   0  0  0  0  0  0  0  0  0  0  0  0
    0.5670   11.8601    9.6881 C   0  0  0  0  0  0  0  0  0  0  0  0
   -0.0271   11.9465    8.2760 C   0  0  2  0  0  0  0  0  0  0  0  0
   -0.8387   10.7153    7.9015 C   0  0  1  0  0  0  0  0  0  0  0  0
   -1.9847   10.5511    8.9084 C   0  0  2  0  0  0  0  0  0  0  0  0
   -2.8350    7.3532    8.7131 H   0  0  0  0  0  0  0  0  0  0  0  0
    0.4570   12.3236    6.3733 H   0  0  0  0  0  0  0  0  0  0  0  0
   -1.8466   10.0164    6.3040 H   0  0  0  0  0  0  0  0  0  0  0  0
   -0.0985   11.2796   11.4866 H   0  0  0  0  0  0  0  0  0  0  0  0
   -2.2602   10.6614   10.8953 H   0  0  0  0  0  0  0  0  0  0  0  0
   -3.6913    9.4101    9.2082 H   0  0  0  0  0  0  0  0  0  0  0  0
   -3.1461    9.3590    7.6697 H   0  0  0  0  0  0  0  0  0  0  0  0
    1.2540   11.1343    9.7227 H   0  0  0  0  0  0  0  0  0  0  0  0
    0.9912   12.7325    9.9311 H   0  0  0  0  0  0  0  0  0  0  0  0
   -0.6802   12.7033    8.3030 H   0  0  0  0  0  0  0  0  0  0  0  0
   -0.2448    9.9131    7.9633 H   0  0  0  0  0  0  0  0  0  0  0  0
   -2.5634   11.3614    8.8171 H   0  0  0  0  0  0  0  0  0  0  0  0
  1  6  1  0  0  0  0
  2  8  1  0  0  0  0
  3  9  1  0  0  0  0
  4  5  1  0  0  0  0
  4  7  1  0  0  0  0
  5 10  1  0  0  0  0
  6 10  1  0  0  0  0
  7  8  1  0  0  0  0
  8  9  1  0  0  0  0
  9 10  1  0  0  0  0
  1 11  1  0  0  0  0
  2 12  1  0  0  0  0
  3 13  1  0  0  0  0
  4 14  1  0  0  0  0
  5 15  1  0  0  0  0
  6 16  1  0  0  0  0
  6 17  1  0  0  0  0
  7 18  1  0  0  0  0
  7 19  1  0  0  0  0
  8 20  1  0  0  0  0
  9 21  1  0  0  0  0
 10 22  1  0  0  0  0
M  END
> <pdb_id>
2J7H

> <uniprot_id>
Q08638

> <usmiles>
O[C@H]1[C@H](O)CNN[C@@H]1CO

$$$$
AZM_A_201
          07202403293D 1   1.00000     0.00000     0
            
 19 19  0  0  0  0            999 V2000
   29.5470  -40.6035    1.1448 S   0  0  0  0  0  0  0  0  0  0  0  0
   27.9553  -38.9599   -0.8579 S   0  0  0  0  0  0  0  0  0  0  0  0
   29.3636  -38.2551   -0.9892 O   0  0  0  0  0  0  0  0  0  0  0  0
   27.4985  -39.9840   -1.9605 O   0  0  0  0  0  0  0  0  0  0  0  0
   31.3667  -41.9471    2.7037 O   0  0  0  0  0  0  0  0  0  0  0  0
   26.8096  -37.7620   -0.5883 N   0  0  0  0  0  0  0  0  0  0  0  0
   27.0789  -39.8652    1.5387 N   0  0  0  0  0  0  0  0  0  0  0  0
   27.4131  -40.6100    2.7108 N   0  0  0  0  0  0  0  0  0  0  0  0
   29.2581  -41.7667    3.6078 N   0  0  0  0  0  0  0  0  0  0  0  0
   30.9531  -42.9399    4.8572 C   0  0  0  0  0  0  0  0  0  0  0  0
   28.0253  -39.7803    0.7224 C   0  0  0  0  0  0  0  0  0  0  0  0
   28.6186  -41.0471    2.6530 C   0  0  0  0  0  0  0  0  0  0  0  0
   30.6028  -42.1747    3.5995 C   0  0  0  0  0  0  0  0  0  0  0  0
   25.9051  -38.1794   -0.5007 H   0  0  0  0  0  0  0  0  0  0  0  0
   27.0329  -37.2706    0.2536 H   0  0  0  0  0  0  0  0  0  0  0  0
   28.7148  -42.0358    4.4030 H   0  0  0  0  0  0  0  0  0  0  0  0
   30.1484  -42.9960    5.4483 H   0  0  0  0  0  0  0  0  0  0  0  0
   31.2527  -43.8624    4.6137 H   0  0  0  0  0  0  0  0  0  0  0  0
   31.6896  -42.4670    5.3409 H   0  0  0  0  0  0  0  0  0  0  0  0
  1 11  1  0  0  0  0
  1 12  1  0  0  0  0
  2  3  2  0  0  0  0
  2  4  2  0  0  0  0
  2  6  1  0  0  0  0
  2 11  1  0  0  0  0
  5 13  2  0  0  0  0
  7  8  1  0  0  0  0
  7 11  2  0  0  0  0
  8 12  2  0  0  0  0
  9 12  1  0  0  0  0
  9 13  1  0  0  0  0
 10 13  1  0  0  0  0
  6 14  1  0  0  0  0
  6 15  1  0  0  0  0
  9 16  1  0  0  0  0
 10 17  1  0  0  0  0
 10 18  1  0  0  0  0
 10 19  1  0  0  0  0
M  END
> <pdb_id>
6MWJ

> <uniprot_id>
Q3JRA0

> <usmiles>
S(=O)(=O)(N)C=1SC(=NN1)NC(=O)C

$$$$
AZM_A_262
          07212403053D 1   1.00000     0.00000     0
            
 19 19  0  0  0  0            999 V2000
    1.6042   70.8027   56.8891 S   0  0  0  0  0  0  0  0  0  0  0  0
    3.2937   72.4472   58.7703 S   0  0  0  0  0  0  0  0  0  0  0  0
    3.3750   71.0598   59.2463 O   0  0  0  0  0  0  0  0  0  0  0  0
    2.6993   73.3963   59.6063 O   0  0  0  0  0  0  0  0  0  0  0  0
   -0.1118   69.2710   56.3052 O   0  0  0  0  0  0  0  0  0  0  0  0
    4.7494   72.8722   58.3430 N   0  0  0  0  0  0  0  0  0  0  0  0
    2.3388   73.1756   56.3776 N   0  0  0  0  0  0  0  0  0  0  0  0
    1.7295   72.7252   55.2524 N   0  0  0  0  0  0  0  0  0  0  0  0
    0.2324   70.8034   54.6557 N   0  0  0  0  0  0  0  0  0  0  0  0
   -1.1568   68.8399   54.2799 C   0  0  0  0  0  0  0  0  0  0  0  0
    2.3965   72.2531   57.2632 C   0  0  0  0  0  0  0  0  0  0  0  0
    1.2369   71.4841   55.3669 C   0  0  0  0  0  0  0  0  0  0  0  0
   -0.3062   69.6543   55.1481 C   0  0  0  0  0  0  0  0  0  0  0  0
    4.7374   73.8154   58.0111 H   0  0  0  0  0  0  0  0  0  0  0  0
    5.3614   72.8037   59.1309 H   0  0  0  0  0  0  0  0  0  0  0  0
   -0.0888   71.1666   53.7811 H   0  0  0  0  0  0  0  0  0  0  0  0
   -1.2236   69.2703   53.3798 H   0  0  0  0  0  0  0  0  0  0  0  0
   -0.7590   67.9274   54.1844 H   0  0  0  0  0  0  0  0  0  0  0  0
   -2.0693   68.7653   54.6822 H   0  0  0  0  0  0  0  0  0  0  0  0
  1 11  1  0  0  0  0
  1 12  1  0  0  0  0
  2  3  2  0  0  0  0
  2  4  2  0  0  0  0
  2  6  1  0  0  0  0
  2 11  1  0  0  0  0
  5 13  2  0  0  0  0
  7  8  1  0  0  0  0
  7 11  2  0  0  0  0
  8 12  2  0  0  0  0
  9 12  1  0  0  0  0
  9 13  1  0  0  0  0
 10 13  1  0  0  0  0
  6 14  1  0  0  0  0
  6 15  1  0  0  0  0
  9 16  1  0  0  0  0
 10 17  1  0  0  0  0
 10 18  1  0  0  0  0
 10 19  1  0  0  0  0
M  END
> <pdb_id>
1AZM

> <uniprot_id>
P00915

> <usmiles>
S(=O)(=O)(N)C=1SC(=NN1)NC(=O)C

$$$$
AZM_A_263
          07202417403D 1   1.00000     0.00000     0
            
 19 19  0  0  0  0            999 V2000
  -24.0301  -18.0786   20.2707 S   0  0  0  0  0  0  0  0  0  0  0  0
  -22.2238  -16.2671   21.9310 S   0  0  0  0  0  0  0  0  0  0  0  0
  -21.7115  -16.6716   23.1961 O   0  0  0  0  0  0  0  0  0  0  0  0
  -21.4580  -16.4701   20.7425 O   0  0  0  0  0  0  0  0  0  0  0  0
  -25.3222  -19.9482   18.5352 O   0  0  0  0  0  0  0  0  0  0  0  0
  -22.6352  -14.7558   22.0131 N   0  0  0  0  0  0  0  0  0  0  0  0
  -24.5786  -17.3634   22.6694 N   0  0  0  0  0  0  0  0  0  0  0  0
  -25.6274  -18.1643   22.2755 N   0  0  0  0  0  0  0  0  0  0  0  0
  -26.4252  -19.4227   20.4654 N   0  0  0  0  0  0  0  0  0  0  0  0
  -27.6649  -20.4752   18.6542 C   0  0  0  0  0  0  0  0  0  0  0  0
  -23.6992  -17.2423   21.7307 C   0  0  0  0  0  0  0  0  0  0  0  0
  -25.4770  -18.6053   21.0497 C   0  0  0  0  0  0  0  0  0  0  0  0
  -26.3680  -19.9400   19.1728 C   0  0  0  0  0  0  0  0  0  0  0  0
  -22.9970  -14.4604   21.1288 H   0  0  0  0  0  0  0  0  0  0  0  0
  -23.3368  -14.6390   22.7160 H   0  0  0  0  0  0  0  0  0  0  0  0
  -27.2225  -19.6643   21.0186 H   0  0  0  0  0  0  0  0  0  0  0  0
  -28.3747  -20.3603   19.3493 H   0  0  0  0  0  0  0  0  0  0  0  0
  -27.9245  -19.9765   17.8272 H   0  0  0  0  0  0  0  0  0  0  0  0
  -27.5627  -21.4465   18.4395 H   0  0  0  0  0  0  0  0  0  0  0  0
  1 11  1  0  0  0  0
  1 12  1  0  0  0  0
  2  3  2  0  0  0  0
  2  4  2  0  0  0  0
  2  6  1  0  0  0  0
  2 11  1  0  0  0  0
  5 13  2  0  0  0  0
  7  8  1  0  0  0  0
  7 11  2  0  0  0  0
  8 12  2  0  0  0  0
  9 12  1  0  0  0  0
  9 13  1  0  0  0  0
 10 13  1  0  0  0  0
  6 14  1  0  0  0  0
  6 15  1  0  0  0  0
  9 16  1  0  0  0  0
 10 17  1  0  0  0  0
 10 18  1  0  0  0  0
 10 19  1  0  0  0  0
M  END
> <pdb_id>
3CZV

> <uniprot_id>
Q8N1Q1

> <usmiles>
S(=O)(=O)(N)C=1SC(=NN1)NC(=O)C

$$$$
AZM_A_302
          07192416293D 1   1.00000     0.00000     0
            
 19 19  0  0  0  0            999 V2000
   -5.8986    3.4038   15.1546 S   0  0  0  0  0  0  0  0  0  0  0  0
   -5.9186    0.8849   16.8789 S   0  0  0  0  0  0  0  0  0  0  0  0
   -5.3903    1.0473   18.2493 O   0  0  0  0  0  0  0  0  0  0  0  0
   -7.3420    1.1917   16.6610 O   0  0  0  0  0  0  0  0  0  0  0  0
   -6.3465    5.5304   13.5516 O   0  0  0  0  0  0  0  0  0  0  0  0
   -5.2989   -0.4928   16.3174 N   0  0  0  0  0  0  0  0  0  0  0  0
   -3.7735    2.1891   15.9363 N   0  0  0  0  0  0  0  0  0  0  0  0
   -3.3993    3.1652   15.2410 N   0  0  0  0  0  0  0  0  0  0  0  0
   -4.0290    5.0143   13.9933 N   0  0  0  0  0  0  0  0  0  0  0  0
   -4.5384    6.6433   12.5334 C   0  0  0  0  0  0  0  0  0  0  0  0
   -5.1020    2.1359   15.9850 C   0  0  0  0  0  0  0  0  0  0  0  0
   -4.3460    3.9291   14.7395 C   0  0  0  0  0  0  0  0  0  0  0  0
   -5.1191    5.5308   13.4310 C   0  0  0  0  0  0  0  0  0  0  0  0
   -5.6273   -0.6510   15.3862 H   0  0  0  0  0  0  0  0  0  0  0  0
   -4.3007   -0.4319   16.3130 H   0  0  0  0  0  0  0  0  0  0  0  0
   -3.1040    5.3772   13.8806 H   0  0  0  0  0  0  0  0  0  0  0  0
   -3.5426    6.5586   12.4997 H   0  0  0  0  0  0  0  0  0  0  0  0
   -4.9119    6.5554   11.6099 H   0  0  0  0  0  0  0  0  0  0  0  0
   -4.7845    7.5369   12.9088 H   0  0  0  0  0  0  0  0  0  0  0  0
  1 11  1  0  0  0  0
  1 12  1  0  0  0  0
  2  3  2  0  0  0  0
  2  4  2  0  0  0  0
  2  6  1  0  0  0  0
  2 11  1  0  0  0  0
  5 13  2  0  0  0  0
  7  8  1  0  0  0  0
  7 11  2  0  0  0  0
  8 12  2  0  0  0  0
  9 12  1  0  0  0  0
  9 13  1  0  0  0  0
 10 13  1  0  0  0  0
  6 14  1  0  0  0  0
  6 15  1  0  0  0  0
  9 16  1  0  0  0  0
 10 17  1  0  0  0  0
 10 18  1  0  0  0  0
 10 19  1  0  0  0  0
M  END
> <pdb_id>
3V2J

> <uniprot_id>
P00918

> <usmiles>
S(=O)(=O)(N)C=1SC(=NN1)NC(=O)C

$$$$
AZM_B_2401
          07192419453D 1   1.00000     0.00000     0
            
 19 19  0  0  0  0            999 V2000
    4.6006    9.9393  -36.8307 S   0  0  0  0  0  0  0  0  0  0  0  0
    6.7491    7.8763  -36.3586 S   0  0  0  0  0  0  0  0  0  0  0  0
    5.5416    7.0618  -36.2144 O   0  0  0  0  0  0  0  0  0  0  0  0
    7.4365    7.9623  -35.0715 O   0  0  0  0  0  0  0  0  0  0  0  0
    2.5442   13.8448  -37.8900 O   0  0  0  0  0  0  0  0  0  0  0  0
    7.6366    7.3693  -37.5768 N   0  0  0  0  0  0  0  0  0  0  0  0
    7.1079   10.4031  -37.2006 N   0  0  0  0  0  0  0  0  0  0  0  0
    6.4531   11.5624  -37.5138 N   0  0  0  0  0  0  0  0  0  0  0  0
    4.4857   12.5670  -37.6715 N   0  0  0  0  0  0  0  0  0  0  0  0
    2.2507   11.5937  -37.2534 C   0  0  0  0  0  0  0  0  0  0  0  0
    6.2446    9.5065  -36.8371 C   0  0  0  0  0  0  0  0  0  0  0  0
    5.1769   11.4318  -37.3621 C   0  0  0  0  0  0  0  0  0  0  0  0
    3.1140   12.7823  -37.6321 C   0  0  0  0  0  0  0  0  0  0  0  0
    8.4537    7.9405  -37.6543 H   0  0  0  0  0  0  0  0  0  0  0  0
    7.9073    6.4196  -37.4193 H   0  0  0  0  0  0  0  0  0  0  0  0
    5.0394   13.3462  -37.9651 H   0  0  0  0  0  0  0  0  0  0  0  0
    2.8343   10.8025  -37.0709 H   0  0  0  0  0  0  0  0  0  0  0  0
    1.7216   11.8137  -36.4339 H   0  0  0  0  0  0  0  0  0  0  0  0
    1.6271   11.3815  -38.0058 H   0  0  0  0  0  0  0  0  0  0  0  0
  1 11  1  0  0  0  0
  1 12  1  0  0  0  0
  2  3  2  0  0  0  0
  2  4  2  0  0  0  0
  2  6  1  0  0  0  0
  2 11  1  0  0  0  0
  5 13  2  0  0  0  0
  7  8  1  0  0  0  0
  7 11  2  0  0  0  0
  8 12  2  0  0  0  0
  9 12  1  0  0  0  0
  9 13  1  0  0  0  0
 10 13  1  0  0  0  0
  6 14  1  0  0  0  0
  6 15  1  0  0  0  0
  9 16  1  0  0  0  0
 10 17  1  0  0  0  0
 10 18  1  0  0  0  0
 10 19  1  0  0  0  0
M  END
> <pdb_id>
1JD0

> <uniprot_id>
O43570

> <usmiles>
S(=O)(=O)(N)C=1SC(=NN1)NC(=O)C

$$$$
AZM_E_303
          07202411203D 1   1.00000     0.00000     0
            
 19 19  0  0  0  0            999 V2000
    9.3112  -40.8543  -76.6022 S   0  0  0  0  0  0  0  0  0  0  0  0
   10.4946  -38.5548  -74.9572 S   0  0  0  0  0  0  0  0  0  0  0  0
    9.7301  -37.2689  -74.8269 O   0  0  0  0  0  0  0  0  0  0  0  0
   10.1605  -39.5653  -73.9118 O   0  0  0  0  0  0  0  0  0  0  0  0
    8.1499  -43.3099  -77.5303 O   0  0  0  0  0  0  0  0  0  0  0  0
   12.0926  -38.2065  -74.9141 N   0  0  0  0  0  0  0  0  0  0  0  0
   10.1510  -38.8440  -77.7343 N   0  0  0  0  0  0  0  0  0  0  0  0
    9.7091  -39.6474  -78.7013 N   0  0  0  0  0  0  0  0  0  0  0  0
    8.6620  -41.8472  -79.1862 N   0  0  0  0  0  0  0  0  0  0  0  0
    7.6026  -44.1292  -79.6652 C   0  0  0  0  0  0  0  0  0  0  0  0
   10.0290  -39.3235  -76.4707 C   0  0  0  0  0  0  0  0  0  0  0  0
    9.1870  -40.8416  -78.3204 C   0  0  0  0  0  0  0  0  0  0  0  0
    8.1510  -43.0814  -78.6985 C   0  0  0  0  0  0  0  0  0  0  0  0
   12.6204  -39.0516  -74.9996 H   0  0  0  0  0  0  0  0  0  0  0  0
   12.3206  -37.5932  -75.6703 H   0  0  0  0  0  0  0  0  0  0  0  0
    8.6531  -41.6778  -80.1717 H   0  0  0  0  0  0  0  0  0  0  0  0
    7.6737  -43.7876  -80.6024 H   0  0  0  0  0  0  0  0  0  0  0  0
    8.1314  -44.9733  -79.5770 H   0  0  0  0  0  0  0  0  0  0  0  0
    6.6436  -44.3125  -79.4492 H   0  0  0  0  0  0  0  0  0  0  0  0
  1 11  1  0  0  0  0
  1 12  1  0  0  0  0
  2  3  2  0  0  0  0
  2  4  2  0  0  0  0
  2  6  1  0  0  0  0
  2 11  1  0  0  0  0
  5 13  2  0  0  0  0
  7  8  1  0  0  0  0
  7 11  2  0  0  0  0
  8 12  2  0  0  0  0
  9 12  1  0  0  0  0
  9 13  1  0  0  0  0
 10 13  1  0  0  0  0
  6 14  1  0  0  0  0
  6 15  1  0  0  0  0
  9 16  1  0  0  0  0
 10 17  1  0  0  0  0
 10 18  1  0  0  0  0
 10 19  1  0  0  0  0
M  END
> <pdb_id>
4YGF

> <uniprot_id>
K4NGD4

> <usmiles>
S(=O)(=O)(N)C=1SC(=NN1)NC(=O)C

$$$$
B1J_A_511
          07202416263D 1   1.00000     0.00000     0
            
 22 23  0  0  0  0            999 V2000
   31.0970   66.2535   72.8806 Cl  0  0  0  0  0  0  0  0  0  0  0  0
   21.2585   69.3835   72.3626 O   0  0  0  0  0  0  0  0  0  0  0  0
   25.3663   69.7024   72.3817 N   0  0  0  0  0  0  0  0  0  0  0  0
   24.0170   69.8039   72.2652 N   0  0  0  0  0  0  0  0  0  0  0  0
   25.7014   68.3827   72.2155 N   0  0  0  0  0  0  0  0  0  0  0  0
   22.0361   68.2600   71.8526 C   0  0  0  0  0  0  0  0  0  0  0  0
   24.5957   67.6906   72.0302 C   0  0  0  0  0  0  0  0  0  0  0  0
   29.1294   68.0697   73.2495 C   0  0  0  0  0  0  0  0  0  0  0  0
   28.5261   66.1722   71.8853 C   0  0  0  0  0  0  0  0  0  0  0  0
   27.8621   68.5776   73.0933 C   0  0  0  0  0  0  0  0  0  0  0  0
   27.2437   66.6821   71.7273 C   0  0  0  0  0  0  0  0  0  0  0  0
   29.4690   66.8775   72.6515 C   0  0  0  0  0  0  0  0  0  0  0  0
   23.5296   68.5925   72.0500 C   0  0  0  0  0  0  0  0  0  0  0  0
   26.9140   67.8865   72.3123 C   0  0  0  0  0  0  0  0  0  0  0  0
   20.2835   69.1940   72.2468 H   0  0  0  0  0  0  0  0  0  0  0  0
   21.8430   68.1258   70.8807 H   0  0  0  0  0  0  0  0  0  0  0  0
   21.8032   67.4283   72.3567 H   0  0  0  0  0  0  0  0  0  0  0  0
   24.5316   66.7013   71.8995 H   0  0  0  0  0  0  0  0  0  0  0  0
   29.8038   68.5656   73.7967 H   0  0  0  0  0  0  0  0  0  0  0  0
   28.7774   65.3054   71.4548 H   0  0  0  0  0  0  0  0  0  0  0  0
   27.6120   69.4393   73.5348 H   0  0  0  0  0  0  0  0  0  0  0  0
   26.5643   66.1793   71.1930 H   0  0  0  0  0  0  0  0  0  0  0  0
  1 12  1  0  0  0  0
  2  6  1  0  0  0  0
  3  4  2  0  0  0  0
  3  5  1  0  0  0  0
  4 13  1  0  0  0  0
  5  7  1  0  0  0  0
  5 14  1  0  0  0  0
  6 13  1  0  0  0  0
  7 13  2  0  0  0  0
  8 10  1  0  0  0  0
  8 12  2  0  0  0  0
  9 11  2  0  0  0  0
  9 12  1  0  0  0  0
 10 14  2  0  0  0  0
 11 14  1  0  0  0  0
  2 15  1  0  0  0  0
  6 16  1  0  0  0  0
  6 17  1  0  0  0  0
  7 18  1  0  0  0  0
  8 19  1  0  0  0  0
  9 20  1  0  0  0  0
 10 21  1  0  0  0  0
 11 22  1  0  0  0  0
M  END
> <pdb_id>
6ZUV

> <uniprot_id>
Q6P988

> <usmiles>
Clc1ccc(N2N=NC(=C2)CO)cc1

$$$$
B1N_A_901
          07202400133D 1   1.00000     0.00000     0
            
 40 42  0  0  0  0            999 V2000
   33.3058   18.7778   27.3407 O   0  0  0  0  0  0  0  0  0  0  0  0
   37.3558   26.7594   35.1798 O   0  0  0  0  0  0  0  0  0  0  0  0
   31.2950   20.6418   25.3539 O   0  0  0  0  0  0  0  0  0  0  0  0
   33.0866   22.6611   24.2186 O   0  0  0  0  0  0  0  0  0  0  0  0
   34.0683   24.5763   26.2362 O   0  0  0  0  0  0  0  0  0  0  0  0
   33.5273   21.5076   28.2080 O   0  0  0  0  0  0  0  0  0  0  0  0
   36.0340   23.3171   28.5452 N   0  0  0  0  0  0  0  0  0  0  0  0
   36.7502   23.8691   29.5488 N   0  0  0  0  0  0  0  0  0  0  0  0
   34.6244   24.0566   30.0362 N   0  0  0  0  0  0  0  0  0  0  0  0
   32.2108   19.5084   27.9196 C   0  0  0  0  0  0  0  0  0  0  0  0
   37.9345   25.9816   33.0025 C   0  0  0  0  0  0  0  0  0  0  0  0
   35.6875   25.7558   33.8377 C   0  0  0  0  0  0  0  0  0  0  0  0
   37.5640   25.3637   31.8051 C   0  0  0  0  0  0  0  0  0  0  0  0
   35.3100   25.1298   32.6433 C   0  0  0  0  0  0  0  0  0  0  0  0
   37.0022   26.1676   34.0154 C   0  0  0  0  0  0  0  0  0  0  0  0
   32.3622   20.9657   27.5451 C   0  0  2  0  0  0  0  0  0  0  0  0
   32.4863   21.1337   25.9900 C   0  0  2  0  0  0  0  0  0  0  0  0
   32.7237   22.5892   25.6197 C   0  0  1  0  0  0  0  0  0  0  0  0
   33.8791   23.1696   26.4925 C   0  0  2  0  0  0  0  0  0  0  0  0
   34.7449   23.4416   28.8602 C   0  0  0  0  0  0  0  0  0  0  0  0
   35.8808   24.3210   30.4551 C   0  0  0  0  0  0  0  0  0  0  0  0
   33.5993   22.9292   28.0103 C   0  0  2  0  0  0  0  0  0  0  0  0
   36.2404   24.9328   31.6065 C   0  0  0  0  0  0  0  0  0  0  0  0
   33.2231   17.8099   27.5777 H   0  0  0  0  0  0  0  0  0  0  0  0
   31.3771   20.7502   24.3632 H   0  0  0  0  0  0  0  0  0  0  0  0
   33.2452   23.6150   23.9638 H   0  0  0  0  0  0  0  0  0  0  0  0
   34.8129   24.9220   26.8073 H   0  0  0  0  0  0  0  0  0  0  0  0
   37.7470   23.9283   29.6027 H   0  0  0  0  0  0  0  0  0  0  0  0
   33.7738   24.2779   30.5132 H   0  0  0  0  0  0  0  0  0  0  0  0
   32.2280   19.4114   28.9147 H   0  0  0  0  0  0  0  0  0  0  0  0
   31.3445   19.1564   27.5653 H   0  0  0  0  0  0  0  0  0  0  0  0
   38.8764   26.2918   33.1310 H   0  0  0  0  0  0  0  0  0  0  0  0
   35.0128   25.9057   34.5604 H   0  0  0  0  0  0  0  0  0  0  0  0
   38.2444   25.2272   31.0851 H   0  0  0  0  0  0  0  0  0  0  0  0
   34.3669   24.8189   32.5258 H   0  0  0  0  0  0  0  0  0  0  0  0
   31.5536   21.4636   27.8585 H   0  0  0  0  0  0  0  0  0  0  0  0
   33.2647   20.5925   25.6717 H   0  0  0  0  0  0  0  0  0  0  0  0
   31.8881   23.1155   25.7769 H   0  0  0  0  0  0  0  0  0  0  0  0
   34.7237   22.6917   26.2509 H   0  0  0  0  0  0  0  0  0  0  0  0
   32.7406   23.3642   28.2812 H   0  0  0  0  0  0  0  0  0  0  0  0
  1 10  1  0  0  0  0
  2 15  2  0  0  0  0
  3 17  1  0  0  0  0
  4 18  1  0  0  0  0
  5 19  1  0  0  0  0
  6 16  1  0  0  0  0
  6 22  1  0  0  0  0
  7  8  1  0  0  0  0
  7 20  2  0  0  0  0
  8 21  1  0  0  0  0
  9 20  1  0  0  0  0
  9 21  1  0  0  0  0
 10 16  1  0  0  0  0
 11 13  2  0  0  0  0
 11 15  1  0  0  0  0
 12 14  2  0  0  0  0
 12 15  1  0  0  0  0
 13 23  1  0  0  0  0
 14 23  1  0  0  0  0
 16 17  1  0  0  0  0
 17 18  1  0  0  0  0
 18 19  1  0  0  0  0
 19 22  1  0  0  0  0
 20 22  1  0  0  0  0
 21 23  2  0  0  0  0
  1 24  1  0  0  0  0
  3 25  1  0  0  0  0
  4 26  1  0  0  0  0
  5 27  1  0  0  0  0
  8 28  1  0  0  0  0
  9 29  1  0  0  0  0
 10 30  1  0  0  0  0
 10 31  1  0  0  0  0
 11 32  1  0  0  0  0
 12 33  1  0  0  0  0
 13 34  1  0  0  0  0
 14 35  1  0  0  0  0
 16 36  1  0  0  0  0
 17 37  1  0  0  0  0
 18 38  1  0  0  0  0
 19 39  1  0  0  0  0
 22 40  1  0  0  0  0
M  END
> <pdb_id>
5OX3

> <uniprot_id>
P00489

> <usmiles>
O=C1C=CC(=C2NN=C(N2)[C@@H]3O[C@@H]([C@@H](O)[C@H](O)[C@H]3O)CO)C=C1

$$$$
B1Q_B_1
          07212402213D 1   1.00000     0.00000     0
            
 55 58  0  0  0  0            999 V2000
   34.7762   46.6624   35.3939 F   0  0  0  0  0  0  0  0  0  0  0  0
   36.1718   52.1816   36.8108 O   0  0  0  0  0  0  0  0  0  0  0  0
   46.8389   51.8631   36.4246 O   0  0  0  0  0  0  0  0  0  0  0  0
   45.4007   52.5728   34.1863 O   0  0  0  0  0  0  0  0  0  0  0  0
   38.3255   51.9904   34.2377 N   0  0  0  0  0  0  0  0  0  0  0  0
   40.7471   50.1136   37.2508 N   0  0  0  0  0  0  0  0  0  0  0  0
   37.1301   50.1896   36.2732 N   0  0  0  0  0  0  0  0  0  0  0  0
   47.7812   51.1867   37.2570 C   0  0  0  0  0  0  0  0  0  0  0  0
   45.1046   52.3638   32.8017 C   0  0  0  0  0  0  0  0  0  0  0  0
   34.4939   47.7694   36.1487 C   0  0  0  0  0  0  0  0  0  0  0  0
   41.5414   49.1119   37.9812 C   0  0  0  0  0  0  0  0  0  0  0  0
   39.3943   49.5596   37.0286 C   0  0  0  0  0  0  0  0  0  0  0  0
   36.8169   48.8107   35.9261 C   0  0  0  0  0  0  0  0  0  0  0  0
   42.8986   49.6690   38.3871 C   0  0  0  0  0  0  0  0  0  0  0  0
   34.8332   50.2441   36.3442 C   0  0  0  0  0  0  0  0  0  0  0  0
   40.5485   51.4042   35.0940 C   0  0  0  0  0  0  0  0  0  0  0  0
   44.8730   50.7991   37.3423 C   0  0  0  0  0  0  0  0  0  0  0  0
   43.4299   51.5011   35.0644 C   0  0  0  0  0  0  0  0  0  0  0  0
   36.1180   51.0044   36.5141 C   0  0  0  0  0  0  0  0  0  0  0  0
   45.5086   51.5006   36.3198 C   0  0  0  0  0  0  0  0  0  0  0  0
   44.7802   51.8572   35.1834 C   0  0  0  0  0  0  0  0  0  0  0  0
   39.0917   50.9600   34.9411 C   0  0  1  0  0  0  0  0  0  0  0  0
   38.5304   50.6323   36.3426 C   0  0  1  0  0  0  0  0  0  0  0  0
   41.3656   50.4022   35.9306 C   0  0  1  0  0  0  0  0  0  0  0  0
   35.3076   48.9561   35.6581 C   0  0  2  0  0  0  0  0  0  0  0  0
   43.5253   50.4372   37.2297 C   0  0  0  0  0  0  0  0  0  0  0  0
   42.7970   50.8005   36.0879 C   0  0  0  0  0  0  0  0  0  0  0  0
   37.3757   51.6926   34.1421 H   0  0  0  0  0  0  0  0  0  0  0  0
   38.3566   52.8432   34.7591 H   0  0  0  0  0  0  0  0  0  0  0  0
   48.6764   51.6239   37.1706 H   0  0  0  0  0  0  0  0  0  0  0  0
   47.4783   51.2326   38.2089 H   0  0  0  0  0  0  0  0  0  0  0  0
   47.8489   50.2298   36.9745 H   0  0  0  0  0  0  0  0  0  0  0  0
   45.6606   52.9810   32.2451 H   0  0  0  0  0  0  0  0  0  0  0  0
   45.3107   51.4166   32.5561 H   0  0  0  0  0  0  0  0  0  0  0  0
   44.1356   52.5477   32.6366 H   0  0  0  0  0  0  0  0  0  0  0  0
   34.7213   47.5848   37.1048 H   0  0  0  0  0  0  0  0  0  0  0  0
   33.5197   47.9820   36.0728 H   0  0  0  0  0  0  0  0  0  0  0  0
   41.6793   48.3145   37.3938 H   0  0  0  0  0  0  0  0  0  0  0  0
   41.0428   48.8379   38.8036 H   0  0  0  0  0  0  0  0  0  0  0  0
   38.9852   49.3080   37.9057 H   0  0  0  0  0  0  0  0  0  0  0  0
   39.4536   48.7504   36.4440 H   0  0  0  0  0  0  0  0  0  0  0  0
   37.0033   48.1836   36.6824 H   0  0  0  0  0  0  0  0  0  0  0  0
   37.3134   48.5085   35.1124 H   0  0  0  0  0  0  0  0  0  0  0  0
   43.5008   48.9137   38.6457 H   0  0  0  0  0  0  0  0  0  0  0  0
   42.7824   50.2846   39.1665 H   0  0  0  0  0  0  0  0  0  0  0  0
   34.1884   50.7458   35.7676 H   0  0  0  0  0  0  0  0  0  0  0  0
   34.4078   50.0487   37.2279 H   0  0  0  0  0  0  0  0  0  0  0  0
   40.5695   52.2962   35.5455 H   0  0  0  0  0  0  0  0  0  0  0  0
   40.9609   51.4804   34.1861 H   0  0  0  0  0  0  0  0  0  0  0  0
   45.3848   50.5517   38.1650 H   0  0  0  0  0  0  0  0  0  0  0  0
   42.9193   51.7509   34.2417 H   0  0  0  0  0  0  0  0  0  0  0  0
   39.0735   50.1246   34.3918 H   0  0  0  0  0  0  0  0  0  0  0  0
   38.5677   51.4642   36.8962 H   0  0  0  0  0  0  0  0  0  0  0  0
   41.3648   49.5410   35.4224 H   0  0  0  0  0  0  0  0  0  0  0  0
   35.1678   49.0513   34.6725 H   0  0  0  0  0  0  0  0  0  0  0  0
  1 10  1  0  0  0  0
  2 19  2  0  0  0  0
  3  8  1  0  0  0  0
  3 20  1  0  0  0  0
  4  9  1  0  0  0  0
  4 21  1  0  0  0  0
  5 22  1  0  0  0  0
  6 11  1  0  0  0  0
  6 12  1  0  0  0  0
  6 24  1  0  0  0  0
  7 13  1  0  0  0  0
  7 19  1  0  0  0  0
  7 23  1  0  0  0  0
 10 25  1  0  0  0  0
 11 14  1  0  0  0  0
 12 23  1  0  0  0  0
 13 25  1  0  0  0  0
 14 26  1  0  0  0  0
 15 19  1  0  0  0  0
 15 25  1  0  0  0  0
 16 22  1  0  0  0  0
 16 24  1  0  0  0  0
 17 20  2  0  0  0  0
 17 26  1  0  0  0  0
 18 21  2  0  0  0  0
 18 27  1  0  0  0  0
 20 21  1  0  0  0  0
 22 23  1  0  0  0  0
 24 27  1  0  0  0  0
 26 27  2  0  0  0  0
  5 28  1  0  0  0  0
  5 29  1  0  0  0  0
  8 30  1  0  0  0  0
  8 31  1  0  0  0  0
  8 32  1  0  0  0  0
  9 33  1  0  0  0  0
  9 34  1  0  0  0  0
  9 35  1  0  0  0  0
 10 36  1  0  0  0  0
 10 37  1  0  0  0  0
 11 38  1  0  0  0  0
 11 39  1  0  0  0  0
 12 40  1  0  0  0  0
 12 41  1  0  0  0  0
 13 42  1  0  0  0  0
 13 43  1  0  0  0  0
 14 44  1  0  0  0  0
 14 45  1  0  0  0  0
 15 46  1  0  0  0  0
 15 47  1  0  0  0  0
 16 48  1  0  0  0  0
 16 49  1  0  0  0  0
 17 50  1  0  0  0  0
 18 51  1  0  0  0  0
 22 52  1  0  0  0  0
 23 53  1  0  0  0  0
 24 54  1  0  0  0  0
 25 55  1  0  0  0  0
M  END
> <pdb_id>
3KWF

> <uniprot_id>
P27487

> <usmiles>
FC[C@@H]1CN(C(=O)C1)[C@@H]2[C@@H](N)C[C@@H]3N(C2)CCc4c3cc(OC)c(OC)c4

$$$$
B1V_A_501
          07202409203D 1   1.00000     0.00000     0
            
 35 36  0  0  0  0            999 V2000
    2.9563    6.0266   17.5553 S   0  0  0  0  0  0  0  0  0  0  0  0
    7.8857    7.6721   19.2367 F   0  0  0  0  0  0  0  0  0  0  0  0
    8.5930    8.4304   17.4139 F   0  0  0  0  0  0  0  0  0  0  0  0
    6.8920    9.3256   18.2809 F   0  0  0  0  0  0  0  0  0  0  0  0
    6.8230    4.8044   14.6535 O   0  0  0  0  0  0  0  0  0  0  0  0
    2.4729    5.3925   20.4623 O   0  0  0  0  0  0  0  0  0  0  0  0
    5.1006    5.4611   16.0739 N   0  0  0  0  0  0  0  0  0  0  0  0
    5.4164    7.1022   17.7220 N   0  0  0  0  0  0  0  0  0  0  0  0
    3.6888    7.1256   21.3179 N   0  0  0  0  0  0  0  0  0  0  0  0
    2.7934    7.1969   18.9317 C   0  0  0  0  0  0  0  0  0  0  0  0
    4.8903    7.8443   20.8495 C   0  0  0  0  0  0  0  0  0  0  0  0
    4.0646    6.1554   22.3660 C   0  0  0  0  0  0  0  0  0  0  0  0
    5.4597    8.7084   21.9786 C   0  0  0  0  0  0  0  0  0  0  0  0
    4.5353    6.9048   23.6055 C   0  0  0  0  0  0  0  0  0  0  0  0
    5.6262    7.9386   23.2988 C   0  0  0  0  0  0  0  0  0  0  0  0
    7.2224    6.4801   16.3161 C   0  0  0  0  0  0  0  0  0  0  0  0
    4.6299    6.2198   17.0913 C   0  0  0  0  0  0  0  0  0  0  0  0
    6.3751    5.5796   15.6766 C   0  0  0  0  0  0  0  0  0  0  0  0
    2.9743    6.4925   20.2648 C   0  0  0  0  0  0  0  0  0  0  0  0
    6.7089    7.2583   17.3540 C   0  0  0  0  0  0  0  0  0  0  0  0
    7.5515    8.1980   18.0753 C   0  0  0  0  0  0  0  0  0  0  0  0
    4.4950    4.8096   15.6169 H   0  0  0  0  0  0  0  0  0  0  0  0
    1.8847    7.6133   18.9018 H   0  0  0  0  0  0  0  0  0  0  0  0
    3.4895    7.9090   18.8403 H   0  0  0  0  0  0  0  0  0  0  0  0
    4.6455    8.4294   20.0764 H   0  0  0  0  0  0  0  0  0  0  0  0
    5.5807    7.1812   20.5601 H   0  0  0  0  0  0  0  0  0  0  0  0
    4.8027    5.5705   22.0297 H   0  0  0  0  0  0  0  0  0  0  0  0
    3.2720    5.5916   22.5982 H   0  0  0  0  0  0  0  0  0  0  0  0
    4.8402    9.4778   22.1343 H   0  0  0  0  0  0  0  0  0  0  0  0
    6.3547    9.0531   21.6956 H   0  0  0  0  0  0  0  0  0  0  0  0
    4.8985    6.2422   24.2604 H   0  0  0  0  0  0  0  0  0  0  0  0
    3.7520    7.3775   24.0093 H   0  0  0  0  0  0  0  0  0  0  0  0
    5.6368    8.6050   24.0443 H   0  0  0  0  0  0  0  0  0  0  0  0
    6.5035    7.4598   23.2672 H   0  0  0  0  0  0  0  0  0  0  0  0
    8.1789    6.5673   16.0375 H   0  0  0  0  0  0  0  0  0  0  0  0
  1 10  1  0  0  0  0
  1 17  1  0  0  0  0
  2 21  1  0  0  0  0
  3 21  1  0  0  0  0
  4 21  1  0  0  0  0
  5 18  2  0  0  0  0
  6 19  2  0  0  0  0
  7 17  1  0  0  0  0
  7 18  1  0  0  0  0
  8 17  2  0  0  0  0
  8 20  1  0  0  0  0
  9 11  1  0  0  0  0
  9 12  1  0  0  0  0
  9 19  1  0  0  0  0
 10 19  1  0  0  0  0
 11 13  1  0  0  0  0
 12 14  1  0  0  0  0
 13 15  1  0  0  0  0
 14 15  1  0  0  0  0
 16 18  1  0  0  0  0
 16 20  2  0  0  0  0
 20 21  1  0  0  0  0
  7 22  1  0  0  0  0
 10 23  1  0  0  0  0
 10 24  1  0  0  0  0
 11 25  1  0  0  0  0
 11 26  1  0  0  0  0
 12 27  1  0  0  0  0
 12 28  1  0  0  0  0
 13 29  1  0  0  0  0
 13 30  1  0  0  0  0
 14 31  1  0  0  0  0
 14 32  1  0  0  0  0
 15 33  1  0  0  0  0
 15 34  1  0  0  0  0
 16 35  1  0  0  0  0
M  END
> <pdb_id>
1TOU

> <uniprot_id>
P15090

> <usmiles>
S(C1=NC(=CC(=O)N1)C(F)(F)F)CC(=O)N2CCCCC2

$$$$
B21_A_400
          07192422123D 1   1.00000     0.00000     0
            
 26 27  0  0  0  0            999 V2000
    6.8696    0.2474    2.7792 O   0  0  0  0  0  0  0  0  0  0  0  0
    8.6259   -0.2782    4.0214 O   0  0  0  0  0  0  0  0  0  0  0  0
   11.7048    0.2887   -2.1274 O   0  0  0  0  0  0  0  0  0  0  0  0
    8.5393    0.6635    0.4992 O   0  0  0  0  0  0  0  0  0  0  0  0
   12.1596   -0.5378   -3.2037 C   0  0  0  0  0  0  0  0  0  0  0  0
    9.3983    2.2744   -4.1499 C   0  0  0  0  0  0  0  0  0  0  0  0
    8.3675    2.4899   -3.2308 C   0  0  0  0  0  0  0  0  0  0  0  0
   10.5110    1.5301   -3.7752 C   0  0  0  0  0  0  0  0  0  0  0  0
   10.3137    0.0504    1.6665 C   0  0  0  0  0  0  0  0  0  0  0  0
   10.7119    0.3605    0.4323 C   0  0  0  0  0  0  0  0  0  0  0  0
    8.4661    1.9631   -1.9577 C   0  0  0  0  0  0  0  0  0  0  0  0
    8.0969    0.0507    2.9357 C   0  0  0  0  0  0  0  0  0  0  0  0
   10.6119    1.0014   -2.4993 C   0  0  0  0  0  0  0  0  0  0  0  0
    8.9913    0.2358    1.7121 C   0  0  0  0  0  0  0  0  0  0  0  0
    9.6584    0.7351   -0.2787 C   0  0  0  0  0  0  0  0  0  0  0  0
    9.5791    1.2228   -1.5809 C   0  0  0  0  0  0  0  0  0  0  0  0
    6.5156    0.5086    1.8812 H   0  0  0  0  0  0  0  0  0  0  0  0
   12.9643   -1.0541   -2.9105 H   0  0  0  0  0  0  0  0  0  0  0  0
   11.4333   -1.1731   -3.4660 H   0  0  0  0  0  0  0  0  0  0  0  0
   12.3991    0.0364   -3.9866 H   0  0  0  0  0  0  0  0  0  0  0  0
    9.3356    2.6540   -5.0730 H   0  0  0  0  0  0  0  0  0  0  0  0
    7.5630    3.0225   -3.4935 H   0  0  0  0  0  0  0  0  0  0  0  0
   11.2468    1.3747   -4.4344 H   0  0  0  0  0  0  0  0  0  0  0  0
   10.8957   -0.2623    2.4172 H   0  0  0  0  0  0  0  0  0  0  0  0
   11.6532    0.3174    0.0975 H   0  0  0  0  0  0  0  0  0  0  0  0
    7.7283    2.1164   -1.3004 H   0  0  0  0  0  0  0  0  0  0  0  0
  1 12  1  0  0  0  0
  2 12  2  0  0  0  0
  3  5  1  0  0  0  0
  3 13  1  0  0  0  0
  4 14  1  0  0  0  0
  4 15  1  0  0  0  0
  6  7  2  0  0  0  0
  6  8  1  0  0  0  0
  7 11  1  0  0  0  0
  8 13  2  0  0  0  0
  9 10  1  0  0  0  0
  9 14  2  0  0  0  0
 10 15  2  0  0  0  0
 11 16  2  0  0  0  0
 12 14  1  0  0  0  0
 13 16  1  0  0  0  0
 15 16  1  0  0  0  0
  1 17  1  0  0  0  0
  5 18  1  0  0  0  0
  5 19  1  0  0  0  0
  5 20  1  0  0  0  0
  6 21  1  0  0  0  0
  7 22  1  0  0  0  0
  8 23  1  0  0  0  0
  9 24  1  0  0  0  0
 10 25  1  0  0  0  0
 11 26  1  0  0  0  0
M  END
> <pdb_id>
2Q93

> <uniprot_id>
P0AE18

> <usmiles>
O=C(O)C=1OC(c2c(OC)cccc2)=CC1

$$$$
B2E_A_502
          07212403323D 1   1.00000     0.00000     0
            
 29 29  0  0  0  0            999 V2000
   16.4504    1.8718   25.7347 O   0  0  0  0  0  0  0  0  0  0  0  0
   14.9446    3.4570   25.7774 O   0  0  0  0  0  0  0  0  0  0  0  0
   20.0116   -3.2389   31.1487 O   0  0  0  0  0  0  0  0  0  0  0  0
   16.1242    1.7732   30.5284 O   0  0  0  0  0  0  0  0  0  0  0  0
   17.5241   -0.9185   27.9983 O   0  0  0  0  0  0  0  0  0  0  0  0
   17.7438    0.8652   32.3934 O   0  0  0  0  0  0  0  0  0  0  0  0
   16.5597    1.4840   28.3024 N   0  0  0  0  0  0  0  0  0  0  0  0
   18.7703   -2.1463   29.4506 N   0  0  0  0  0  0  0  0  0  0  0  0
   18.9334   -1.2349   31.8497 N   0  0  0  0  0  0  0  0  0  0  0  0
   19.0872   -3.1288   28.4203 C   0  0  0  0  0  0  0  0  0  0  0  0
   19.4138   -1.3118   33.2213 C   0  0  0  0  0  0  0  0  0  0  0  0
   15.7097    2.5871   27.9028 C   0  0  0  0  0  0  0  0  0  0  0  0
   15.6978    2.6473   26.3790 C   0  0  0  0  0  0  0  0  0  0  0  0
   19.3239   -2.3235   30.8566 C   0  0  0  0  0  0  0  0  0  0  0  0
   16.7077    1.1552   29.7041 C   0  0  0  0  0  0  0  0  0  0  0  0
   17.9344   -1.0187   29.1084 C   0  0  0  0  0  0  0  0  0  0  0  0
   18.0920   -0.1183   31.4570 C   0  0  0  0  0  0  0  0  0  0  0  0
   17.5906   -0.0139   30.0989 C   0  0  0  0  0  0  0  0  0  0  0  0
   17.4529    0.4933   33.1003 H   0  0  0  0  0  0  0  0  0  0  0  0
   16.9791    1.0267   27.7068 H   0  0  0  0  0  0  0  0  0  0  0  0
   18.2858   -3.3341   27.9132 H   0  0  0  0  0  0  0  0  0  0  0  0
   19.4226   -3.9378   28.8381 H   0  0  0  0  0  0  0  0  0  0  0  0
   19.7625   -2.7669   27.8261 H   0  0  0  0  0  0  0  0  0  0  0  0
   18.6665   -1.2141   33.8326 H   0  0  0  0  0  0  0  0  0  0  0  0
   20.0557   -0.6023   33.3796 H   0  0  0  0  0  0  0  0  0  0  0  0
   19.8404   -2.1708   33.3671 H   0  0  0  0  0  0  0  0  0  0  0  0
   14.8088    2.4416   28.2324 H   0  0  0  0  0  0  0  0  0  0  0  0
   16.0603    3.4170   28.2605 H   0  0  0  0  0  0  0  0  0  0  0  0
   17.0449    1.2324   26.2222 H   0  0  0  0  0  0  0  0  0  0  0  0
  1 13  1  0  0  0  0
  2 13  2  0  0  0  0
  3 14  2  0  0  0  0
  4 15  2  0  0  0  0
  5 16  2  0  0  0  0
  6 17  1  0  0  0  0
  6 19  1  0  0  0  0
  7 12  1  0  0  0  0
  7 15  1  0  0  0  0
  7 20  1  0  0  0  0
  8 10  1  0  0  0  0
  8 14  1  0  0  0  0
  8 16  1  0  0  0  0
  9 11  1  0  0  0  0
  9 14  1  0  0  0  0
  9 17  1  0  0  0  0
 10 21  1  0  0  0  0
 10 22  1  0  0  0  0
 10 23  1  0  0  0  0
 11 24  1  0  0  0  0
 11 25  1  0  0  0  0
 11 26  1  0  0  0  0
 12 13  1  0  0  0  0
 12 27  1  0  0  0  0
 12 28  1  0  0  0  0
 15 18  1  0  0  0  0
 16 18  1  0  0  0  0
 17 18  2  0  0  0  0
  1 29  1  0  0  0  0
M  END
> <pdb_id>
5OX5

> <uniprot_id>
Q9GZT9

> <usmiles>
O=C1N(C(=O)C(C(=O)NCC(=O)O)=C(O)N1C)C

$$$$
B2J_B_2
          07192420423D 1   1.00000     0.00000     0
            
 21 21  0  0  0  0            999 V2000
   70.0223   34.1802   25.3115 S   0  0  0  0  0  0  0  0  0  0  0  0
   65.1161   33.5261   25.5362 N   0  0  0  0  0  0  0  0  0  0  0  0
   67.3902   33.9013   25.3068 N   0  0  0  0  0  0  0  0  0  0  0  0
   68.2337   34.9661   23.4090 N   0  0  0  0  0  0  0  0  0  0  0  0
   65.9412   34.5378   23.5962 N   0  0  0  0  0  0  0  0  0  0  0  0
   72.4538   35.5702   25.0527 C   0  0  0  0  0  0  0  0  0  0  0  0
   66.7229   35.6736   21.4931 C   0  0  0  0  0  0  0  0  0  0  0  0
   70.9846   35.5811   24.6062 C   0  0  0  0  0  0  0  0  0  0  0  0
   68.4240   34.3812   24.6044 C   0  0  0  0  0  0  0  0  0  0  0  0
   66.1315   34.0183   24.8301 C   0  0  0  0  0  0  0  0  0  0  0  0
   66.9765   35.0627   22.9028 C   0  0  0  0  0  0  0  0  0  0  0  0
   64.1811   33.6081   25.1913 H   0  0  0  0  0  0  0  0  0  0  0  0
   65.2884   33.0744   26.4116 H   0  0  0  0  0  0  0  0  0  0  0  0
   72.9320   36.3478   24.6445 H   0  0  0  0  0  0  0  0  0  0  0  0
   72.4998   35.6365   26.0495 H   0  0  0  0  0  0  0  0  0  0  0  0
   72.8864   34.7192   24.7549 H   0  0  0  0  0  0  0  0  0  0  0  0
   65.7427   35.6600   21.2953 H   0  0  0  0  0  0  0  0  0  0  0  0
   67.0536   36.6172   21.4742 H   0  0  0  0  0  0  0  0  0  0  0  0
   67.2094   35.1361   20.8044 H   0  0  0  0  0  0  0  0  0  0  0  0
   70.5657   36.4393   24.9030 H   0  0  0  0  0  0  0  0  0  0  0  0
   70.9523   35.5220   23.6085 H   0  0  0  0  0  0  0  0  0  0  0  0
  1  8  1  0  0  0  0
  1  9  1  0  0  0  0
  2 10  1  0  0  0  0
  3  9  1  0  0  0  0
  3 10  2  0  0  0  0
  4  9  2  0  0  0  0
  4 11  1  0  0  0  0
  5 10  1  0  0  0  0
  5 11  2  0  0  0  0
  6  8  1  0  0  0  0
  7 11  1  0  0  0  0
  2 12  1  0  0  0  0
  2 13  1  0  0  0  0
  6 14  1  0  0  0  0
  6 15  1  0  0  0  0
  6 16  1  0  0  0  0
  7 17  1  0  0  0  0
  7 18  1  0  0  0  0
  7 19  1  0  0  0  0
  8 20  1  0  0  0  0
  8 21  1  0  0  0  0
M  END
> <pdb_id>
3B24

> <uniprot_id>
P07900

> <usmiles>
S(c1nc(nc(n1)C)N)CC

$$$$
B2K_A_1
          07192420423D 1   1.00000     0.00000     0
            
 31 32  0  0  0  0            999 V2000
   70.1689   34.6221   25.2224 S   0  0  0  0  0  0  0  0  0  0  0  0
   70.9903   35.7556   24.6805 O   0  0  0  0  0  0  0  0  0  0  0  0
   70.1019   34.6700   26.7199 O   0  0  0  0  0  0  0  0  0  0  0  0
   65.2356   33.6038   25.5073 N   0  0  0  0  0  0  0  0  0  0  0  0
   67.5134   34.0726   25.2931 N   0  0  0  0  0  0  0  0  0  0  0  0
   65.9697   34.5969   23.5808 N   0  0  0  0  0  0  0  0  0  0  0  0
   66.6305   35.7841   21.4752 C   0  0  0  0  0  0  0  0  0  0  0  0
   72.7328   29.3797   23.4974 C   0  0  0  0  0  0  0  0  0  0  0  0
   70.4860   31.9109   25.2770 C   0  0  0  0  0  0  0  0  0  0  0  0
   71.9871   33.1098   23.8047 C   0  0  0  0  0  0  0  0  0  0  0  0
   71.0881   30.7128   24.8882 C   0  0  0  0  0  0  0  0  0  0  0  0
   72.5619   31.9065   23.3681 C   0  0  0  0  0  0  0  0  0  0  0  0
   68.2650   35.1758   23.3156 C   0  0  0  0  0  0  0  0  0  0  0  0
   68.5192   34.6407   24.5831 C   0  0  0  0  0  0  0  0  0  0  0  0
   66.2408   34.0877   24.8043 C   0  0  0  0  0  0  0  0  0  0  0  0
   70.9324   33.1064   24.7273 C   0  0  0  0  0  0  0  0  0  0  0  0
   66.9509   35.1825   22.8532 C   0  0  0  0  0  0  0  0  0  0  0  0
   72.1176   30.7079   23.9328 C   0  0  0  0  0  0  0  0  0  0  0  0
   64.3085   33.6231   25.1328 H   0  0  0  0  0  0  0  0  0  0  0  0
   65.4003   33.2175   26.4148 H   0  0  0  0  0  0  0  0  0  0  0  0
   67.4627   36.1722   21.0793 H   0  0  0  0  0  0  0  0  0  0  0  0
   66.2773   35.0682   20.8729 H   0  0  0  0  0  0  0  0  0  0  0  0
   65.9431   36.5032   21.5771 H   0  0  0  0  0  0  0  0  0  0  0  0
   73.4462   29.5496   22.8176 H   0  0  0  0  0  0  0  0  0  0  0  0
   73.1314   28.9208   24.2914 H   0  0  0  0  0  0  0  0  0  0  0  0
   72.0234   28.7988   23.0981 H   0  0  0  0  0  0  0  0  0  0  0  0
   69.7411   31.9087   25.9442 H   0  0  0  0  0  0  0  0  0  0  0  0
   72.3340   33.9795   23.4535 H   0  0  0  0  0  0  0  0  0  0  0  0
   70.7838   29.8507   25.2934 H   0  0  0  0  0  0  0  0  0  0  0  0
   73.2749   31.9067   22.6670 H   0  0  0  0  0  0  0  0  0  0  0  0
   69.0074   35.5441   22.7560 H   0  0  0  0  0  0  0  0  0  0  0  0
  1  2  2  0  0  0  0
  1  3  2  0  0  0  0
  1 14  1  0  0  0  0
  1 16  1  0  0  0  0
  4 15  1  0  0  0  0
  5 14  1  0  0  0  0
  5 15  2  0  0  0  0
  6 15  1  0  0  0  0
  6 17  2  0  0  0  0
  7 17  1  0  0  0  0
  8 18  1  0  0  0  0
  9 11  1  0  0  0  0
  9 16  2  0  0  0  0
 10 12  2  0  0  0  0
 10 16  1  0  0  0  0
 11 18  2  0  0  0  0
 12 18  1  0  0  0  0
 13 14  2  0  0  0  0
 13 17  1  0  0  0  0
  4 19  1  0  0  0  0
  4 20  1  0  0  0  0
  7 21  1  0  0  0  0
  7 22  1  0  0  0  0
  7 23  1  0  0  0  0
  8 24  1  0  0  0  0
  8 25  1  0  0  0  0
  8 26  1  0  0  0  0
  9 27  1  0  0  0  0
 10 28  1  0  0  0  0
 11 29  1  0  0  0  0
 12 30  1  0  0  0  0
 13 31  1  0  0  0  0
M  END
> <pdb_id>
3B25

> <uniprot_id>
P07900

> <usmiles>
S(=O)(=O)(c1nc(nc(c1)C)N)c2ccc(cc2)C

$$$$
B2L_A_1
          07192420423D 1   1.00000     0.00000     0
            
 36 39  0  0  0  0            999 V2000
   74.4529   34.9655   27.0008 O   0  0  0  0  0  0  0  0  0  0  0  0
   65.2666   33.6020   25.3137 N   0  0  0  0  0  0  0  0  0  0  0  0
   66.0033   34.6907   23.4097 N   0  0  0  0  0  0  0  0  0  0  0  0
   67.5223   34.1028   25.0890 N   0  0  0  0  0  0  0  0  0  0  0  0
   66.6680   35.8715   21.2996 C   0  0  0  0  0  0  0  0  0  0  0  0
   74.2944   36.1611   26.1583 C   0  0  0  0  0  0  0  0  0  0  0  0
   73.7858   33.8343   26.3610 C   0  0  0  0  0  0  0  0  0  0  0  0
   71.3511   37.9827   24.8193 C   0  0  0  0  0  0  0  0  0  0  0  0
   72.6326   37.7343   25.3224 C   0  0  0  0  0  0  0  0  0  0  0  0
   70.4238   36.9396   24.7104 C   0  0  0  0  0  0  0  0  0  0  0  0
   71.5704   32.9842   25.7504 C   0  0  0  0  0  0  0  0  0  0  0  0
   70.2845   33.2312   25.2540 C   0  0  0  0  0  0  0  0  0  0  0  0
   68.3122   35.1891   23.1308 C   0  0  0  0  0  0  0  0  0  0  0  0
   66.2645   34.1196   24.6009 C   0  0  0  0  0  0  0  0  0  0  0  0
   66.9981   35.2140   22.6558 C   0  0  0  0  0  0  0  0  0  0  0  0
   68.5567   34.6563   24.4111 C   0  0  0  0  0  0  0  0  0  0  0  0
   73.0050   36.4270   25.6561 C   0  0  0  0  0  0  0  0  0  0  0  0
   72.4832   34.0458   25.8509 C   0  0  0  0  0  0  0  0  0  0  0  0
   69.8594   34.5310   24.9202 C   0  0  0  0  0  0  0  0  0  0  0  0
   70.7671   35.6136   25.0601 C   0  0  0  0  0  0  0  0  0  0  0  0
   72.0806   35.3634   25.5308 C   0  0  0  0  0  0  0  0  0  0  0  0
   65.4530   33.1762   26.1991 H   0  0  0  0  0  0  0  0  0  0  0  0
   64.3306   33.6389   24.9638 H   0  0  0  0  0  0  0  0  0  0  0  0
   67.5109   36.2035   20.8761 H   0  0  0  0  0  0  0  0  0  0  0  0
   66.2360   35.1985   20.6992 H   0  0  0  0  0  0  0  0  0  0  0  0
   66.0432   36.6387   21.4444 H   0  0  0  0  0  0  0  0  0  0  0  0
   74.9078   36.0609   25.3749 H   0  0  0  0  0  0  0  0  0  0  0  0
   74.5747   36.9520   26.7021 H   0  0  0  0  0  0  0  0  0  0  0  0
   73.7267   33.1002   27.0374 H   0  0  0  0  0  0  0  0  0  0  0  0
   74.3616   33.5395   25.5985 H   0  0  0  0  0  0  0  0  0  0  0  0
   71.0968   38.9076   24.5368 H   0  0  0  0  0  0  0  0  0  0  0  0
   73.2795   38.4873   25.4431 H   0  0  0  0  0  0  0  0  0  0  0  0
   69.5011   37.1362   24.3789 H   0  0  0  0  0  0  0  0  0  0  0  0
   71.8355   32.0615   26.0302 H   0  0  0  0  0  0  0  0  0  0  0  0
   69.6528   32.4654   25.1336 H   0  0  0  0  0  0  0  0  0  0  0  0
   69.0633   35.5422   22.5730 H   0  0  0  0  0  0  0  0  0  0  0  0
  1  6  1  0  0  0  0
  1  7  1  0  0  0  0
  2 14  1  0  0  0  0
  3 14  2  0  0  0  0
  3 15  1  0  0  0  0
  4 14  1  0  0  0  0
  4 16  2  0  0  0  0
  5 15  1  0  0  0  0
  6 17  1  0  0  0  0
  7 18  1  0  0  0  0
  8  9  1  0  0  0  0
  8 10  2  0  0  0  0
  9 17  2  0  0  0  0
 10 20  1  0  0  0  0
 11 12  2  0  0  0  0
 11 18  1  0  0  0  0
 12 19  1  0  0  0  0
 13 15  2  0  0  0  0
 13 16  1  0  0  0  0
 16 19  1  0  0  0  0
 17 21  1  0  0  0  0
 18 21  2  0  0  0  0
 19 20  2  0  0  0  0
 20 21  1  0  0  0  0
  2 22  1  0  0  0  0
  2 23  1  0  0  0  0
  5 24  1  0  0  0  0
  5 25  1  0  0  0  0
  5 26  1  0  0  0  0
  6 27  1  0  0  0  0
  6 28  1  0  0  0  0
  7 29  1  0  0  0  0
  7 30  1  0  0  0  0
  8 31  1  0  0  0  0
  9 32  1  0  0  0  0
 10 33  1  0  0  0  0
 11 34  1  0  0  0  0
 12 35  1  0  0  0  0
 13 36  1  0  0  0  0
M  END
> <pdb_id>
3B26

> <uniprot_id>
P07900

> <usmiles>
O1Cc2c3c(c(c4nc(nc(c4)C)N)cc2)cccc3C1

$$$$
B2T_A_1
          07192420423D 1   1.00000     0.00000     0
            
 25 26  0  0  0  0            999 V2000
   69.2518   31.5891   25.0594 Cl  0  0  0  0  0  0  0  0  0  0  0  0
   66.2728   35.6774   21.3376 S   0  0  0  0  0  0  0  0  0  0  0  0
   64.9484   33.4074   25.5013 N   0  0  0  0  0  0  0  0  0  0  0  0
   65.6757   34.4942   23.5932 N   0  0  0  0  0  0  0  0  0  0  0  0
   67.9482   35.0073   23.3363 N   0  0  0  0  0  0  0  0  0  0  0  0
   67.1927   33.9025   25.2489 N   0  0  0  0  0  0  0  0  0  0  0  0
   67.6664   36.7497   20.9493 C   0  0  0  0  0  0  0  0  0  0  0  0
   72.0979   34.1872   26.0184 C   0  0  0  0  0  0  0  0  0  0  0  0
   71.5478   35.4418   25.7155 C   0  0  0  0  0  0  0  0  0  0  0  0
   71.3879   33.0083   25.8334 C   0  0  0  0  0  0  0  0  0  0  0  0
   70.2331   35.5243   25.2178 C   0  0  0  0  0  0  0  0  0  0  0  0
   66.6741   35.0439   22.9102 C   0  0  0  0  0  0  0  0  0  0  0  0
   65.9174   33.9627   24.8033 C   0  0  0  0  0  0  0  0  0  0  0  0
   70.0761   33.0891   25.3443 C   0  0  0  0  0  0  0  0  0  0  0  0
   68.2033   34.4261   24.5306 C   0  0  0  0  0  0  0  0  0  0  0  0
   69.5092   34.3452   25.0403 C   0  0  0  0  0  0  0  0  0  0  0  0
   65.1415   33.0154   26.4008 H   0  0  0  0  0  0  0  0  0  0  0  0
   64.0197   33.3779   25.1319 H   0  0  0  0  0  0  0  0  0  0  0  0
   67.5263   37.1663   20.0510 H   0  0  0  0  0  0  0  0  0  0  0  0
   67.7380   37.4674   21.6420 H   0  0  0  0  0  0  0  0  0  0  0  0
   68.5089   36.2110   20.9392 H   0  0  0  0  0  0  0  0  0  0  0  0
   73.0296   34.1406   26.3785 H   0  0  0  0  0  0  0  0  0  0  0  0
   72.0865   36.2731   25.8524 H   0  0  0  0  0  0  0  0  0  0  0  0
   71.8022   32.1228   26.0438 H   0  0  0  0  0  0  0  0  0  0  0  0
   69.8266   36.4106   24.9960 H   0  0  0  0  0  0  0  0  0  0  0  0
  1 14  1  0  0  0  0
  2  7  1  0  0  0  0
  2 12  1  0  0  0  0
  3 13  1  0  0  0  0
  4 12  1  0  0  0  0
  4 13  2  0  0  0  0
  5 12  2  0  0  0  0
  5 15  1  0  0  0  0
  6 13  1  0  0  0  0
  6 15  2  0  0  0  0
  8  9  2  0  0  0  0
  8 10  1  0  0  0  0
  9 11  1  0  0  0  0
 10 14  2  0  0  0  0
 11 16  2  0  0  0  0
 14 16  1  0  0  0  0
 15 16  1  0  0  0  0
  3 17  1  0  0  0  0
  3 18  1  0  0  0  0
  7 19  1  0  0  0  0
  7 20  1  0  0  0  0
  7 21  1  0  0  0  0
  8 22  1  0  0  0  0
  9 23  1  0  0  0  0
 10 24  1  0  0  0  0
 11 25  1  0  0  0  0
M  END
> <pdb_id>
3B27

> <uniprot_id>
P07900

> <usmiles>
Clc1c(c2nc(SC)nc(n2)N)cccc1

$$$$
B2X_A_237
          07192420423D 1   1.00000     0.00000     0
            
 36 39  0  0  0  0            999 V2000
   69.3971   31.5082   25.0457 Cl  0  0  0  0  0  0  0  0  0  0  0  0
   66.5406   35.7178   21.4306 S   0  0  0  0  0  0  0  0  0  0  0  0
   74.2967   34.8666   27.1254 O   0  0  0  0  0  0  0  0  0  0  0  0
   65.1910   33.4781   25.5833 N   0  0  0  0  0  0  0  0  0  0  0  0
   65.9050   34.5231   23.6439 N   0  0  0  0  0  0  0  0  0  0  0  0
   68.1957   34.9467   23.3679 N   0  0  0  0  0  0  0  0  0  0  0  0
   67.4312   33.9080   25.2918 N   0  0  0  0  0  0  0  0  0  0  0  0
   68.0175   36.6403   21.0174 C   0  0  0  0  0  0  0  0  0  0  0  0
   74.2165   35.9920   26.2244 C   0  0  0  0  0  0  0  0  0  0  0  0
   73.8323   33.7024   26.3433 C   0  0  0  0  0  0  0  0  0  0  0  0
   71.0873   37.7804   25.0817 C   0  0  0  0  0  0  0  0  0  0  0  0
   72.4226   37.5724   25.4857 C   0  0  0  0  0  0  0  0  0  0  0  0
   70.2283   36.6915   24.9160 C   0  0  0  0  0  0  0  0  0  0  0  0
   71.6333   32.7915   25.7276 C   0  0  0  0  0  0  0  0  0  0  0  0
   66.9095   35.0397   22.9777 C   0  0  0  0  0  0  0  0  0  0  0  0
   70.3281   32.9700   25.2874 C   0  0  0  0  0  0  0  0  0  0  0  0
   66.1633   33.9801   24.8399 C   0  0  0  0  0  0  0  0  0  0  0  0
   68.4611   34.3790   24.5588 C   0  0  0  0  0  0  0  0  0  0  0  0
   72.8914   36.2703   25.7235 C   0  0  0  0  0  0  0  0  0  0  0  0
   72.4827   33.8816   25.8598 C   0  0  0  0  0  0  0  0  0  0  0  0
   70.6711   35.3779   25.1492 C   0  0  0  0  0  0  0  0  0  0  0  0
   69.8145   34.2467   25.0146 C   0  0  0  0  0  0  0  0  0  0  0  0
   72.0065   35.1790   25.5804 C   0  0  0  0  0  0  0  0  0  0  0  0
   65.4000   33.0758   26.4746 H   0  0  0  0  0  0  0  0  0  0  0  0
   64.2471   33.5010   25.2539 H   0  0  0  0  0  0  0  0  0  0  0  0
   67.8995   37.0761   20.1251 H   0  0  0  0  0  0  0  0  0  0  0  0
   68.1778   37.3415   21.7121 H   0  0  0  0  0  0  0  0  0  0  0  0
   68.8002   36.0189   20.9840 H   0  0  0  0  0  0  0  0  0  0  0  0
   74.8127   35.8085   25.4428 H   0  0  0  0  0  0  0  0  0  0  0  0
   74.5429   36.8033   26.7094 H   0  0  0  0  0  0  0  0  0  0  0  0
   73.8620   32.8896   26.9251 H   0  0  0  0  0  0  0  0  0  0  0  0
   74.4418   33.5747   25.5609 H   0  0  0  0  0  0  0  0  0  0  0  0
   70.7552   38.7085   24.9137 H   0  0  0  0  0  0  0  0  0  0  0  0
   73.0362   38.3533   25.6030 H   0  0  0  0  0  0  0  0  0  0  0  0
   69.2839   36.8488   24.6272 H   0  0  0  0  0  0  0  0  0  0  0  0
   71.9625   31.8738   25.9503 H   0  0  0  0  0  0  0  0  0  0  0  0
  1 16  1  0  0  0  0
  2  8  1  0  0  0  0
  2 15  1  0  0  0  0
  3  9  1  0  0  0  0
  3 10  1  0  0  0  0
  4 17  1  0  0  0  0
  5 15  1  0  0  0  0
  5 17  2  0  0  0  0
  6 15  2  0  0  0  0
  6 18  1  0  0  0  0
  7 17  1  0  0  0  0
  7 18  2  0  0  0  0
  9 19  1  0  0  0  0
 10 20  1  0  0  0  0
 11 12  1  0  0  0  0
 11 13  2  0  0  0  0
 12 19  2  0  0  0  0
 13 21  1  0  0  0  0
 14 16  2  0  0  0  0
 14 20  1  0  0  0  0
 16 22  1  0  0  0  0
 18 22  1  0  0  0  0
 19 23  1  0  0  0  0
 20 23  2  0  0  0  0
 21 22  2  0  0  0  0
 21 23  1  0  0  0  0
  4 24  1  0  0  0  0
  4 25  1  0  0  0  0
  8 26  1  0  0  0  0
  8 27  1  0  0  0  0
  8 28  1  0  0  0  0
  9 29  1  0  0  0  0
  9 30  1  0  0  0  0
 10 31  1  0  0  0  0
 10 32  1  0  0  0  0
 11 33  1  0  0  0  0
 12 34  1  0  0  0  0
 13 35  1  0  0  0  0
 14 36  1  0  0  0  0
M  END
> <pdb_id>
3B28

> <uniprot_id>
P07900

> <usmiles>
Clc1c(c2nc(SC)nc(n2)N)c3c4c(c1)COCc4ccc3

$$$$
B2Y_D_800
          07212402213D 1   1.00000     0.00000     0
            
 27 28  0  0  0  0            999 V2000
   38.0030   51.7871   34.5940 N   0  0  0  0  0  0  0  0  0  0  0  0
   34.6201   48.4044   35.8860 C   0  0  0  0  0  0  0  0  0  0  0  0
   35.9154   47.9109   35.8555 C   0  0  0  0  0  0  0  0  0  0  0  0
   34.3565   49.6523   36.4406 C   0  0  0  0  0  0  0  0  0  0  0  0
   39.8692   52.2115   38.6994 C   0  0  0  0  0  0  0  0  0  0  0  0
   38.8043   51.7635   39.4695 C   0  0  0  0  0  0  0  0  0  0  0  0
   38.9782   50.9169   35.2641 C   0  0  0  0  0  0  0  0  0  0  0  0
   39.9109   51.9274   37.3394 C   0  0  0  0  0  0  0  0  0  0  0  0
   36.9416   48.6714   36.3815 C   0  0  0  0  0  0  0  0  0  0  0  0
   35.3783   50.4310   36.9670 C   0  0  0  0  0  0  0  0  0  0  0  0
   37.7767   51.0299   38.8850 C   0  0  0  0  0  0  0  0  0  0  0  0
   38.8938   51.1928   36.7416 C   0  0  0  0  0  0  0  0  0  0  0  0
   36.6880   49.9394   36.9358 C   0  0  0  0  0  0  0  0  0  0  0  0
   37.8065   50.7379   37.5128 C   0  0  0  0  0  0  0  0  0  0  0  0
   38.0354   51.6264   33.6075 H   0  0  0  0  0  0  0  0  0  0  0  0
   37.0852   51.5837   34.9349 H   0  0  0  0  0  0  0  0  0  0  0  0
   33.8715   47.8603   35.5073 H   0  0  0  0  0  0  0  0  0  0  0  0
   36.1049   47.0135   35.4569 H   0  0  0  0  0  0  0  0  0  0  0  0
   33.4169   49.9938   36.4605 H   0  0  0  0  0  0  0  0  0  0  0  0
   40.6059   52.7385   39.1230 H   0  0  0  0  0  0  0  0  0  0  0  0
   38.7758   51.9689   40.4478 H   0  0  0  0  0  0  0  0  0  0  0  0
   39.8996   51.1178   34.9317 H   0  0  0  0  0  0  0  0  0  0  0  0
   38.7603   49.9578   35.0832 H   0  0  0  0  0  0  0  0  0  0  0  0
   40.6781   52.2538   36.7873 H   0  0  0  0  0  0  0  0  0  0  0  0
   37.8763   48.3163   36.3680 H   0  0  0  0  0  0  0  0  0  0  0  0
   35.1816   51.3284   37.3619 H   0  0  0  0  0  0  0  0  0  0  0  0
   37.0132   50.7091   39.4456 H   0  0  0  0  0  0  0  0  0  0  0  0
  1  7  1  0  0  0  0
  2  3  2  0  0  0  0
  2  4  1  0  0  0  0
  3  9  1  0  0  0  0
  4 10  2  0  0  0  0
  5  6  2  0  0  0  0
  5  8  1  0  0  0  0
  6 11  1  0  0  0  0
  7 12  1  0  0  0  0
  8 12  2  0  0  0  0
  9 13  2  0  0  0  0
 10 13  1  0  0  0  0
 11 14  2  0  0  0  0
 12 14  1  0  0  0  0
 13 14  1  0  0  0  0
  1 15  1  0  0  0  0
  1 16  1  0  0  0  0
  2 17  1  0  0  0  0
  3 18  1  0  0  0  0
  4 19  1  0  0  0  0
  5 20  1  0  0  0  0
  6 21  1  0  0  0  0
  7 22  1  0  0  0  0
  7 23  1  0  0  0  0
  8 24  1  0  0  0  0
  9 25  1  0  0  0  0
 10 26  1  0  0  0  0
 11 27  1  0  0  0  0
M  END
> <pdb_id>
3CCB

> <uniprot_id>
P27487

> <usmiles>
NCc1c(c2ccccc2)cccc1

$$$$
B3N_A_701
          07202400553D 1   1.00000     0.00000     0
            
 47 47  0  0  0  0            999 V2000
   36.3750    3.4661    3.1750 O   0  0  0  0  0  0  0  0  0  0  0  0
   33.9189    4.3693    3.1972 O   0  0  0  0  0  0  0  0  0  0  0  0
   29.2118   -0.8137    0.6254 O   0  0  0  0  0  0  0  0  0  0  0  0
   35.8270    4.0605    2.0612 N   0  0  0  0  0  0  0  0  0  0  0  0
   28.8594    1.0228   -0.7088 N   0  0  0  0  0  0  0  0  0  0  0  0
   23.5900    0.9664    3.0142 N   0  0  0  0  0  0  0  0  0  0  0  0
   22.5550    1.8563    2.4963 C   0  0  0  0  0  0  0  0  0  0  0  0
   23.5121    0.6168    4.4285 C   0  0  0  0  0  0  0  0  0  0  0  0
   30.2091    1.0029   -1.2800 C   0  0  0  0  0  0  0  0  0  0  0  0
   31.1694    1.8532   -0.4110 C   0  0  0  0  0  0  0  0  0  0  0  0
   32.5674    2.0726   -1.0548 C   0  0  0  0  0  0  0  0  0  0  0  0
   33.4991    2.9346   -0.2218 C   0  0  0  0  0  0  0  0  0  0  0  0
   32.9636    4.2955    0.2203 C   0  0  0  0  0  0  0  0  0  0  0  0
   34.1092    5.1206    0.8215 C   0  0  0  0  0  0  0  0  0  0  0  0
   25.0070    1.4301    1.1089 C   0  0  0  0  0  0  0  0  0  0  0  0
   25.6884   -0.2143    2.6882 C   0  0  0  0  0  0  0  0  0  0  0  0
   26.1792    1.2225    0.3734 C   0  0  0  0  0  0  0  0  0  0  0  0
   26.8747   -0.3466    1.9939 C   0  0  0  0  0  0  0  0  0  0  0  0
   34.5869    4.4821    2.1164 C   0  0  0  0  0  0  0  0  0  0  0  0
   28.4685    0.1157    0.1994 C   0  0  0  0  0  0  0  0  0  0  0  0
   24.7268    0.6904    2.2553 C   0  0  0  0  0  0  0  0  0  0  0  0
   27.1404    0.3409    0.8493 C   0  0  0  0  0  0  0  0  0  0  0  0
   37.3190    3.1998    2.9803 H   0  0  0  0  0  0  0  0  0  0  0  0
   36.3648    4.1688    1.2252 H   0  0  0  0  0  0  0  0  0  0  0  0
   28.2150    1.7287   -1.0027 H   0  0  0  0  0  0  0  0  0  0  0  0
   22.7138    2.0215    1.5230 H   0  0  0  0  0  0  0  0  0  0  0  0
   21.6580    1.4320    2.6204 H   0  0  0  0  0  0  0  0  0  0  0  0
   22.5841    2.7249    2.9910 H   0  0  0  0  0  0  0  0  0  0  0  0
   24.2691    0.0072    4.6635 H   0  0  0  0  0  0  0  0  0  0  0  0
   23.5699    1.4483    4.9811 H   0  0  0  0  0  0  0  0  0  0  0  0
   22.6437    0.1554    4.6105 H   0  0  0  0  0  0  0  0  0  0  0  0
   30.1815    1.3786   -2.2063 H   0  0  0  0  0  0  0  0  0  0  0  0
   30.5404    0.0599   -1.3125 H   0  0  0  0  0  0  0  0  0  0  0  0
   31.2952    1.3898    0.4661 H   0  0  0  0  0  0  0  0  0  0  0  0
   30.7486    2.7474   -0.2582 H   0  0  0  0  0  0  0  0  0  0  0  0
   32.4394    2.5143   -1.9428 H   0  0  0  0  0  0  0  0  0  0  0  0
   32.9976    1.1794   -1.1858 H   0  0  0  0  0  0  0  0  0  0  0  0
   34.3261    3.0950   -0.7606 H   0  0  0  0  0  0  0  0  0  0  0  0
   33.7330    2.4188    0.6024 H   0  0  0  0  0  0  0  0  0  0  0  0
   32.2489    4.1659    0.9077 H   0  0  0  0  0  0  0  0  0  0  0  0
   32.5834    4.7773   -0.5691 H   0  0  0  0  0  0  0  0  0  0  0  0
   33.7860    6.0481    1.0093 H   0  0  0  0  0  0  0  0  0  0  0  0
   34.8677    5.1572    0.1709 H   0  0  0  0  0  0  0  0  0  0  0  0
   24.3558    2.1253    0.8046 H   0  0  0  0  0  0  0  0  0  0  0  0
   25.5213   -0.7697    3.5028 H   0  0  0  0  0  0  0  0  0  0  0  0
   26.3237    1.7063   -0.4898 H   0  0  0  0  0  0  0  0  0  0  0  0
   27.5684   -0.9744    2.3471 H   0  0  0  0  0  0  0  0  0  0  0  0
  1  4  1  0  0  0  0
  2 19  2  0  0  0  0
  3 20  2  0  0  0  0
  4 19  1  0  0  0  0
  5  9  1  0  0  0  0
  5 20  1  0  0  0  0
  6  7  1  0  0  0  0
  6  8  1  0  0  0  0
  6 21  1  0  0  0  0
  9 10  1  0  0  0  0
 10 11  1  0  0  0  0
 11 12  1  0  0  0  0
 12 13  1  0  0  0  0
 13 14  1  0  0  0  0
 14 19  1  0  0  0  0
 15 17  1  0  0  0  0
 15 21  2  0  0  0  0
 16 18  2  0  0  0  0
 16 21  1  0  0  0  0
 17 22  2  0  0  0  0
 18 22  1  0  0  0  0
 20 22  1  0  0  0  0
  1 23  1  0  0  0  0
  4 24  1  0  0  0  0
  5 25  1  0  0  0  0
  7 26  1  0  0  0  0
  7 27  1  0  0  0  0
  7 28  1  0  0  0  0
  8 29  1  0  0  0  0
  8 30  1  0  0  0  0
  8 31  1  0  0  0  0
  9 32  1  0  0  0  0
  9 33  1  0  0  0  0
 10 34  1  0  0  0  0
 10 35  1  0  0  0  0
 11 36  1  0  0  0  0
 11 37  1  0  0  0  0
 12 38  1  0  0  0  0
 12 39  1  0  0  0  0
 13 40  1  0  0  0  0
 13 41  1  0  0  0  0
 14 42  1  0  0  0  0
 14 43  1  0  0  0  0
 15 44  1  0  0  0  0
 16 45  1  0  0  0  0
 17 46  1  0  0  0  0
 18 47  1  0  0  0  0
M  END
> <pdb_id>
4RSY

> <uniprot_id>
P09960

> <usmiles>
O=C(NCCCCCCC(=O)NO)c1ccc(N(C)C)cc1

$$$$
B3N_B_404
          07202402263D 1   1.00000     0.00000     0
            
 47 47  0  0  0  0            999 V2000
    4.9471   13.1597  -24.5659 O   0  0  0  0  0  0  0  0  0  0  0  0
    6.5788   15.3064  -24.3076 O   0  0  0  0  0  0  0  0  0  0  0  0
   12.6903   15.9021  -28.6698 O   0  0  0  0  0  0  0  0  0  0  0  0
    6.2864   13.0844  -24.2256 N   0  0  0  0  0  0  0  0  0  0  0  0
   13.5189   14.3258  -27.3435 N   0  0  0  0  0  0  0  0  0  0  0  0
   17.8483   19.0972  -26.9970 N   0  0  0  0  0  0  0  0  0  0  0  0
   18.9356   18.7251  -26.1012 C   0  0  0  0  0  0  0  0  0  0  0  0
   17.8587   20.3977  -27.6571 C   0  0  0  0  0  0  0  0  0  0  0  0
   12.4458   13.3516  -27.5294 C   0  0  0  0  0  0  0  0  0  0  0  0
   12.3017   12.6054  -26.2047 C   0  0  0  0  0  0  0  0  0  0  0  0
   11.4952   13.4000  -25.1839 C   0  0  0  0  0  0  0  0  0  0  0  0
   10.0448   13.5425  -25.6258 C   0  0  0  0  0  0  0  0  0  0  0  0
    9.3381   14.6191  -24.8150 C   0  0  0  0  0  0  0  0  0  0  0  0
    8.4666   13.9951  -23.7346 C   0  0  0  0  0  0  0  0  0  0  0  0
   16.8157   16.9804  -26.5790 C   0  0  0  0  0  0  0  0  0  0  0  0
   15.7883   18.5791  -28.0679 C   0  0  0  0  0  0  0  0  0  0  0  0
   15.7639   16.0889  -26.8020 C   0  0  0  0  0  0  0  0  0  0  0  0
   14.7392   17.6902  -28.2845 C   0  0  0  0  0  0  0  0  0  0  0  0
    7.0191   14.1861  -24.1180 C   0  0  0  0  0  0  0  0  0  0  0  0
   13.5748   15.5225  -27.9215 C   0  0  0  0  0  0  0  0  0  0  0  0
   16.8269   18.2268  -27.2107 C   0  0  0  0  0  0  0  0  0  0  0  0
   14.7241   16.4497  -27.6574 C   0  0  0  0  0  0  0  0  0  0  0  0
    4.5594   12.2385  -24.5995 H   0  0  0  0  0  0  0  0  0  0  0  0
    6.7060   12.1921  -24.0593 H   0  0  0  0  0  0  0  0  0  0  0  0
   14.2702   14.0730  -26.7340 H   0  0  0  0  0  0  0  0  0  0  0  0
   18.7698   17.8081  -25.7386 H   0  0  0  0  0  0  0  0  0  0  0  0
   19.7997   18.7333  -26.6045 H   0  0  0  0  0  0  0  0  0  0  0  0
   18.9837   19.3787  -25.3459 H   0  0  0  0  0  0  0  0  0  0  0  0
   17.0445   20.4869  -28.2308 H   0  0  0  0  0  0  0  0  0  0  0  0
   17.8614   21.1216  -26.9673 H   0  0  0  0  0  0  0  0  0  0  0  0
   18.6774   20.4762  -28.2259 H   0  0  0  0  0  0  0  0  0  0  0  0
   12.6823   12.7128  -28.2615 H   0  0  0  0  0  0  0  0  0  0  0  0
   11.5913   13.8184  -27.7574 H   0  0  0  0  0  0  0  0  0  0  0  0
   13.2130   12.4322  -25.8313 H   0  0  0  0  0  0  0  0  0  0  0  0
   11.8396   11.7348  -26.3735 H   0  0  0  0  0  0  0  0  0  0  0  0
   11.8980   14.3100  -25.0856 H   0  0  0  0  0  0  0  0  0  0  0  0
   11.5238   12.9260  -24.3038 H   0  0  0  0  0  0  0  0  0  0  0  0
    9.5743   12.6701  -25.4935 H   0  0  0  0  0  0  0  0  0  0  0  0
   10.0197   13.7913  -26.5940 H   0  0  0  0  0  0  0  0  0  0  0  0
    8.7639   15.1653  -25.4249 H   0  0  0  0  0  0  0  0  0  0  0  0
   10.0223   15.2082  -24.3850 H   0  0  0  0  0  0  0  0  0  0  0  0
    8.6451   14.4413  -22.8576 H   0  0  0  0  0  0  0  0  0  0  0  0
    8.6698   13.0189  -23.6592 H   0  0  0  0  0  0  0  0  0  0  0  0
   17.5631   16.7259  -25.9654 H   0  0  0  0  0  0  0  0  0  0  0  0
   15.7958   19.4677  -28.5264 H   0  0  0  0  0  0  0  0  0  0  0  0
   15.7568   15.1967  -26.3505 H   0  0  0  0  0  0  0  0  0  0  0  0
   13.9905   17.9460  -28.8961 H   0  0  0  0  0  0  0  0  0  0  0  0
  1  4  1  0  0  0  0
  2 19  2  0  0  0  0
  3 20  2  0  0  0  0
  4 19  1  0  0  0  0
  5  9  1  0  0  0  0
  5 20  1  0  0  0  0
  6  7  1  0  0  0  0
  6  8  1  0  0  0  0
  6 21  1  0  0  0  0
  9 10  1  0  0  0  0
 10 11  1  0  0  0  0
 11 12  1  0  0  0  0
 12 13  1  0  0  0  0
 13 14  1  0  0  0  0
 14 19  1  0  0  0  0
 15 17  1  0  0  0  0
 15 21  2  0  0  0  0
 16 18  2  0  0  0  0
 16 21  1  0  0  0  0
 17 22  2  0  0  0  0
 18 22  1  0  0  0  0
 20 22  1  0  0  0  0
  1 23  1  0  0  0  0
  4 24  1  0  0  0  0
  5 25  1  0  0  0  0
  7 26  1  0  0  0  0
  7 27  1  0  0  0  0
  7 28  1  0  0  0  0
  8 29  1  0  0  0  0
  8 30  1  0  0  0  0
  8 31  1  0  0  0  0
  9 32  1  0  0  0  0
  9 33  1  0  0  0  0
 10 34  1  0  0  0  0
 10 35  1  0  0  0  0
 11 36  1  0  0  0  0
 11 37  1  0  0  0  0
 12 38  1  0  0  0  0
 12 39  1  0  0  0  0
 13 40  1  0  0  0  0
 13 41  1  0  0  0  0
 14 42  1  0  0  0  0
 14 43  1  0  0  0  0
 15 44  1  0  0  0  0
 16 45  1  0  0  0  0
 17 46  1  0  0  0  0
 18 47  1  0  0  0  0
M  END
> <pdb_id>
4QA1

> <uniprot_id>
Q9BY41

> <usmiles>
O=C(NCCCCCCC(=O)NO)c1ccc(N(C)C)cc1

$$$$
B3U_A_600
          07202415503D 1   1.00000     0.00000     0
            
 22 22  0  0  0  0            999 V2000
  -19.8384   15.7614  -11.0585 O   0  0  0  0  0  0  0  0  0  0  0  0
  -19.5516   15.4610  -13.1909 O   0  0  0  0  0  0  0  0  0  0  0  0
  -25.6050   14.9136  -10.5491 N   0  0  0  0  0  0  0  0  0  0  0  0
  -20.7037   17.5113  -14.0950 N   0  0  0  0  0  0  0  0  0  0  0  0
  -24.1523   14.9376  -12.5595 N   0  0  0  0  0  0  0  0  0  0  0  0
  -23.8040   16.4177  -11.0603 N   0  0  0  0  0  0  0  0  0  0  0  0
  -23.1075   15.6850  -13.0162 C   0  0  0  0  0  0  0  0  0  0  0  0
  -21.9183   17.7380  -11.9264 C   0  0  0  0  0  0  0  0  0  0  0  0
  -19.9538   16.1390  -12.2278 C   0  0  0  0  0  0  0  0  0  0  0  0
  -24.5560   15.3850  -11.3860 C   0  0  0  0  0  0  0  0  0  0  0  0
  -20.6099   17.4710  -12.6288 C   0  0  1  0  0  0  0  0  0  0  0  0
  -22.8869   16.6223  -12.0684 C   0  0  0  0  0  0  0  0  0  0  0  0
  -20.1746   16.3357  -10.3121 H   0  0  0  0  0  0  0  0  0  0  0  0
  -25.7900   15.3659   -9.6766 H   0  0  0  0  0  0  0  0  0  0  0  0
  -26.1574   14.1300  -10.8331 H   0  0  0  0  0  0  0  0  0  0  0  0
  -19.8045   17.3266  -14.4918 H   0  0  0  0  0  0  0  0  0  0  0  0
  -21.3542   16.8186  -14.4066 H   0  0  0  0  0  0  0  0  0  0  0  0
  -24.5550   14.1614  -13.0447 H   0  0  0  0  0  0  0  0  0  0  0  0
  -22.6082   15.5645  -13.8742 H   0  0  0  0  0  0  0  0  0  0  0  0
  -22.3254   18.5654  -12.3133 H   0  0  0  0  0  0  0  0  0  0  0  0
  -21.7353   17.8801  -10.9536 H   0  0  0  0  0  0  0  0  0  0  0  0
  -19.9801   18.1988  -12.3574 H   0  0  0  0  0  0  0  0  0  0  0  0
  1  9  1  0  0  0  0
  2  9  2  0  0  0  0
  3 10  1  0  0  0  0
  4 11  1  0  0  0  0
  5  7  1  0  0  0  0
  5 10  1  0  0  0  0
  6 10  2  0  0  0  0
  6 12  1  0  0  0  0
  7 12  2  0  0  0  0
  8 11  1  0  0  0  0
  8 12  1  0  0  0  0
  9 11  1  0  0  0  0
  1 13  1  0  0  0  0
  3 14  1  0  0  0  0
  3 15  1  0  0  0  0
  4 16  1  0  0  0  0
  4 17  1  0  0  0  0
  5 18  1  0  0  0  0
  7 19  1  0  0  0  0
  8 20  1  0  0  0  0
  8 21  1  0  0  0  0
 11 22  1  0  0  0  0
M  END
> <pdb_id>
3MFW

> <uniprot_id>
P05089

> <usmiles>
O=C(O)[C@@H](N)CC=1N=C(NC1)N

$$$$
B4L_A_900
          07192419583D 1   1.00000     0.00000     0
            
 38 40  0  0  0  0            999 V2000
  -20.5302   -4.4244    9.8773 O   0  0  0  0  0  0  0  0  0  0  0  0
  -20.9829   -2.4304   11.9454 N   0  0  0  0  0  0  0  0  0  0  0  0
  -17.5093   -6.6661   12.5276 N   0  0  0  0  0  0  0  0  0  0  0  0
  -18.6289   -4.6744   13.2713 N   0  0  0  0  0  0  0  0  0  0  0  0
  -15.9502   -8.5822   15.3688 N   0  0  0  0  0  0  0  0  0  0  0  0
  -19.0961   -5.4847   11.1382 N   0  0  0  0  0  0  0  0  0  0  0  0
  -15.7148   -9.7555   15.5303 C   0  0  0  0  0  0  0  0  0  0  0  0
  -18.8597   -6.4883   10.1156 C   0  0  0  0  0  0  0  0  0  0  0  0
  -20.8424   -1.8307   13.1195 C   0  0  0  0  0  0  0  0  0  0  0  0
  -14.7435   -7.7882   15.4981 C   0  0  0  0  0  0  0  0  0  0  0  0
  -16.6168   -8.3563   14.1173 C   0  0  0  0  0  0  0  0  0  0  0  0
  -15.0011   -6.2896   15.2295 C   0  0  0  0  0  0  0  0  0  0  0  0
  -19.9235   -2.5339   13.8912 C   0  0  0  0  0  0  0  0  0  0  0  0
  -15.6916   -6.0649   13.9873 C   0  0  0  0  0  0  0  0  0  0  0  0
  -18.4425   -5.5754   12.3002 C   0  0  0  0  0  0  0  0  0  0  0  0
  -19.9510   -4.5023   10.9100 C   0  0  0  0  0  0  0  0  0  0  0  0
  -16.9051   -6.8564   13.8907 C   0  0  1  0  0  0  0  0  0  0  0  0
  -19.4985   -3.6339   13.0930 C   0  0  0  0  0  0  0  0  0  0  0  0
  -20.1775   -3.5272   11.9082 C   0  0  0  0  0  0  0  0  0  0  0  0
  -21.5837   -2.1260   11.2062 H   0  0  0  0  0  0  0  0  0  0  0  0
  -17.2704   -7.2869   11.7809 H   0  0  0  0  0  0  0  0  0  0  0  0
  -16.5604  -10.2811   15.4365 H   0  0  0  0  0  0  0  0  0  0  0  0
  -15.0548  -10.0607   14.8438 H   0  0  0  0  0  0  0  0  0  0  0  0
  -15.3343   -9.8965   16.4443 H   0  0  0  0  0  0  0  0  0  0  0  0
  -19.4184   -6.2833    9.3119 H   0  0  0  0  0  0  0  0  0  0  0  0
  -17.8930   -6.4824    9.8599 H   0  0  0  0  0  0  0  0  0  0  0  0
  -19.1051   -7.3903   10.4709 H   0  0  0  0  0  0  0  0  0  0  0  0
  -21.3226   -1.0016   13.4058 H   0  0  0  0  0  0  0  0  0  0  0  0
  -14.0666   -8.1214   14.8418 H   0  0  0  0  0  0  0  0  0  0  0  0
  -14.3870   -7.8925   16.4266 H   0  0  0  0  0  0  0  0  0  0  0  0
  -17.4823   -8.8572   14.1153 H   0  0  0  0  0  0  0  0  0  0  0  0
  -16.0362   -8.6912   13.3751 H   0  0  0  0  0  0  0  0  0  0  0  0
  -14.1223   -5.8133   15.1991 H   0  0  0  0  0  0  0  0  0  0  0  0
  -15.5547   -5.9203   15.9759 H   0  0  0  0  0  0  0  0  0  0  0  0
  -19.6223   -2.3120   14.8185 H   0  0  0  0  0  0  0  0  0  0  0  0
  -15.0847   -6.3102   13.2313 H   0  0  0  0  0  0  0  0  0  0  0  0
  -15.9314   -5.0963   13.9214 H   0  0  0  0  0  0  0  0  0  0  0  0
  -17.5553   -6.5415   14.5821 H   0  0  0  0  0  0  0  0  0  0  0  0
  1 16  2  0  0  0  0
  2  9  1  0  0  0  0
  2 19  1  0  0  0  0
  3 15  1  0  0  0  0
  3 17  1  0  0  0  0
  4 15  2  0  0  0  0
  4 18  1  0  0  0  0
  5  7  1  0  0  0  0
  5 10  1  0  0  0  0
  5 11  1  0  0  0  0
  6  8  1  0  0  0  0
  6 15  1  0  0  0  0
  6 16  1  0  0  0  0
  9 13  2  0  0  0  0
 10 12  1  0  0  0  0
 11 17  1  0  0  0  0
 12 14  1  0  0  0  0
 13 18  1  0  0  0  0
 14 17  1  0  0  0  0
 16 19  1  0  0  0  0
 18 19  2  0  0  0  0
  2 20  1  0  0  0  0
  3 21  1  0  0  0  0
  7 22  1  0  0  0  0
  7 23  1  0  0  0  0
  7 24  1  0  0  0  0
  8 25  1  0  0  0  0
  8 26  1  0  0  0  0
  8 27  1  0  0  0  0
  9 28  1  0  0  0  0
 10 29  1  0  0  0  0
 10 30  1  0  0  0  0
 11 31  1  0  0  0  0
 11 32  1  0  0  0  0
 12 33  1  0  0  0  0
 12 34  1  0  0  0  0
 13 35  1  0  0  0  0
 14 36  1  0  0  0  0
 14 37  1  0  0  0  0
 17 38  1  0  0  0  0
M  END
> <pdb_id>
6J3O

> <uniprot_id>
Q92831

> <usmiles>
O=C1N(C(=NC2=C1NC=C2)N[C@H]3CN(CCC3)C)C

$$$$
B4V_D_900
          07202412083D 1   1.00000     0.00000     0
            
 57 61  0  0  0  0            999 V2000
  -61.4920  -18.0300   82.8810 S   0  0  0  0  0  0  0  0  0  0  0  0
  -68.5030  -24.4110   86.9430 O   0  0  0  0  0  0  0  0  0  0  0  0
  -64.2630  -18.4270   83.1230 O   0  0  0  0  0  0  0  0  0  0  0  0
  -72.7430  -30.2020   85.5680 O   0  0  0  0  0  0  0  0  0  0  0  0
  -70.1110  -30.5370   83.2050 N   0  0  0  0  0  0  0  0  0  0  0  0
  -72.0730  -30.8660   84.5170 N   0  0  0  0  0  0  0  0  0  0  0  0
  -71.9710  -29.0630   85.8930 N   0  0  0  0  0  0  0  0  0  0  0  0
  -68.7310  -28.1140   84.3540 N   0  0  0  0  0  0  0  0  0  0  0  0
  -67.9940  -27.0950   84.6140 N   0  0  0  0  0  0  0  0  0  0  0  0
  -66.8200  -24.6150   85.4720 N   0  0  0  0  0  0  0  0  0  0  0  0
  -62.9900  -20.2840   83.2630 N   0  0  0  0  0  0  0  0  0  0  0  0
  -60.6170  -20.3220   83.1410 N   0  0  0  0  0  0  0  0  0  0  0  0
  -69.9110  -28.0310   85.1120 N   0  0  0  0  0  0  0  0  0  0  0  0
  -57.3580  -17.7050   82.9830 N   0  0  0  0  0  0  0  0  0  0  0  0
  -57.0210  -17.4720   84.4030 C   0  0  0  0  0  0  0  0  0  0  0  0
  -70.8130  -26.3610   86.8670 C   0  0  0  0  0  0  0  0  0  0  0  0
  -57.0710  -19.0990   82.5510 C   0  0  0  0  0  0  0  0  0  0  0  0
  -66.1540  -23.3790   85.9080 C   0  0  0  0  0  0  0  0  0  0  0  0
  -58.7220  -17.2010   82.6760 C   0  0  0  0  0  0  0  0  0  0  0  0
  -67.7490  -20.8080   83.5790 C   0  0  0  0  0  0  0  0  0  0  0  0
  -58.0950  -20.1670   82.9840 C   0  0  0  0  0  0  0  0  0  0  0  0
  -67.5990  -21.8710   84.4670 C   0  0  0  0  0  0  0  0  0  0  0  0
  -66.6460  -20.0750   83.1690 C   0  0  0  0  0  0  0  0  0  0  0  0
  -65.2320  -21.4940   84.5550 C   0  0  0  0  0  0  0  0  0  0  0  0
  -61.7530  -19.6990   83.0590 C   0  0  0  0  0  0  0  0  0  0  0  0
  -67.9720  -25.0550   86.0450 C   0  0  0  0  0  0  0  0  0  0  0  0
  -64.1730  -19.6310   83.3130 C   0  0  0  0  0  0  0  0  0  0  0  0
  -59.7660  -18.2800   82.8490 C   0  0  0  0  0  0  0  0  0  0  0  0
  -71.0010  -30.1880   84.2160 C   0  0  0  0  0  0  0  0  0  0  0  0
  -70.9430  -29.0010   85.0870 C   0  0  0  0  0  0  0  0  0  0  0  0
  -59.5140  -19.6000   82.9880 C   0  0  0  0  0  0  0  0  0  0  0  0
  -69.7990  -26.8960   85.8710 C   0  0  0  0  0  0  0  0  0  0  0  0
  -68.5810  -26.3220   85.5450 C   0  0  0  0  0  0  0  0  0  0  0  0
  -66.3390  -22.2360   84.9360 C   0  0  0  0  0  0  0  0  0  0  0  0
  -65.3750  -20.4160   83.6610 C   0  0  0  0  0  0  0  0  0  0  0  0
  -69.3069  -29.9692   83.0287 H   0  0  0  0  0  0  0  0  0  0  0  0
  -70.2754  -31.3556   82.6547 H   0  0  0  0  0  0  0  0  0  0  0  0
  -66.4131  -25.1489   84.7308 H   0  0  0  0  0  0  0  0  0  0  0  0
  -63.0111  -21.2764   83.3840 H   0  0  0  0  0  0  0  0  0  0  0  0
  -57.2310  -16.5245   84.6443 H   0  0  0  0  0  0  0  0  0  0  0  0
  -57.5574  -18.0893   84.9785 H   0  0  0  0  0  0  0  0  0  0  0  0
  -56.0466  -17.6445   84.5470 H   0  0  0  0  0  0  0  0  0  0  0  0
  -70.4663  -25.5161   87.2744 H   0  0  0  0  0  0  0  0  0  0  0  0
  -71.6757  -26.1748   86.3969 H   0  0  0  0  0  0  0  0  0  0  0  0
  -70.9646  -27.0398   87.5855 H   0  0  0  0  0  0  0  0  0  0  0  0
  -56.1814  -19.3584   82.9269 H   0  0  0  0  0  0  0  0  0  0  0  0
  -57.0258  -19.1062   81.5521 H   0  0  0  0  0  0  0  0  0  0  0  0
  -65.1754  -23.5608   86.0041 H   0  0  0  0  0  0  0  0  0  0  0  0
  -66.5313  -23.1087   86.7938 H   0  0  0  0  0  0  0  0  0  0  0  0
  -58.7432  -16.8777   81.7299 H   0  0  0  0  0  0  0  0  0  0  0  0
  -58.9340  -16.4425   83.2923 H   0  0  0  0  0  0  0  0  0  0  0  0
  -68.6580  -20.5723   83.2352 H   0  0  0  0  0  0  0  0  0  0  0  0
  -57.8672  -20.4833   83.9049 H   0  0  0  0  0  0  0  0  0  0  0  0
  -58.0528  -20.9369   82.3472 H   0  0  0  0  0  0  0  0  0  0  0  0
  -68.4054  -22.3780   84.7714 H   0  0  0  0  0  0  0  0  0  0  0  0
  -66.7538  -19.3127   82.5308 H   0  0  0  0  0  0  0  0  0  0  0  0
  -64.3287  -21.7252   84.9164 H   0  0  0  0  0  0  0  0  0  0  0  0
  1 25  1  0  0  0  0
  1 28  1  0  0  0  0
  2 26  2  0  0  0  0
  3 27  2  0  0  0  0
  4  6  1  0  0  0  0
  4  7  1  0  0  0  0
  5 29  1  0  0  0  0
  6 29  2  0  0  0  0
  7 30  2  0  0  0  0
  8  9  2  0  0  0  0
  8 13  1  0  0  0  0
  9 33  1  0  0  0  0
 10 18  1  0  0  0  0
 10 26  1  0  0  0  0
 11 25  1  0  0  0  0
 11 27  1  0  0  0  0
 12 25  2  0  0  0  0
 12 31  1  0  0  0  0
 13 30  1  0  0  0  0
 13 32  1  0  0  0  0
 14 15  1  0  0  0  0
 14 17  1  0  0  0  0
 14 19  1  0  0  0  0
 16 32  1  0  0  0  0
 17 21  1  0  0  0  0
 18 34  1  0  0  0  0
 19 28  1  0  0  0  0
 20 22  2  0  0  0  0
 20 23  1  0  0  0  0
 21 31  1  0  0  0  0
 22 34  1  0  0  0  0
 23 35  2  0  0  0  0
 24 34  2  0  0  0  0
 24 35  1  0  0  0  0
 26 33  1  0  0  0  0
 27 35  1  0  0  0  0
 28 31  2  0  0  0  0
 29 30  1  0  0  0  0
 32 33  2  0  0  0  0
  5 36  1  0  0  0  0
  5 37  1  0  0  0  0
 10 38  1  0  0  0  0
 11 39  1  0  0  0  0
 15 40  1  0  0  0  0
 15 41  1  0  0  0  0
 15 42  1  0  0  0  0
 16 43  1  0  0  0  0
 16 44  1  0  0  0  0
 16 45  1  0  0  0  0
 17 46  1  0  0  0  0
 17 47  1  0  0  0  0
 18 48  1  0  0  0  0
 18 49  1  0  0  0  0
 19 50  1  0  0  0  0
 19 51  1  0  0  0  0
 20 52  1  0  0  0  0
 21 53  1  0  0  0  0
 21 54  1  0  0  0  0
 22 55  1  0  0  0  0
 23 56  1  0  0  0  0
 24 57  1  0  0  0  0
M  END
> <pdb_id>
5WNF

> <uniprot_id>
Q13464

> <usmiles>
S1C(=NC2=C1CN(CC2)C)NC(=O)c3cc(ccc3)CNC(=O)C=4N=NN(C5=NON=C5N)C4C

$$$$
B55_A_159
          07192422173D 1   1.00000     0.00000     0
            
 17 18  0  0  0  0            999 V2000
    2.7432   21.8876   10.5210 S   0  0  0  0  0  0  0  0  0  0  0  0
    0.5766   24.2904   15.3632 O   0  0  0  0  0  0  0  0  0  0  0  0
    3.6621   27.7588   14.7730 N   0  0  0  0  0  0  0  0  0  0  0  0
    3.4563   24.1306   11.8124 N   0  0  0  0  0  0  0  0  0  0  0  0
    2.1425   25.9848   15.0130 N   0  0  0  0  0  0  0  0  0  0  0  0
    1.8089   23.0544   12.8322 N   0  0  0  0  0  0  0  0  0  0  0  0
    3.6933   26.0861   13.2181 N   0  0  0  0  0  0  0  0  0  0  0  0
    2.6352   23.0725   11.8121 C   0  0  0  0  0  0  0  0  0  0  0  0
    1.5117   24.7823   14.7306 C   0  0  0  0  0  0  0  0  0  0  0  0
    3.1882   26.5764   14.3119 C   0  0  0  0  0  0  0  0  0  0  0  0
    3.0974   24.8980   12.9283 C   0  0  0  0  0  0  0  0  0  0  0  0
    2.0995   24.2208   13.5178 C   0  0  0  0  0  0  0  0  0  0  0  0
    4.4132   28.2163   14.2970 H   0  0  0  0  0  0  0  0  0  0  0  0
    3.2607   28.1742   15.5894 H   0  0  0  0  0  0  0  0  0  0  0  0
    4.1785   24.3319   11.1508 H   0  0  0  0  0  0  0  0  0  0  0  0
    1.8072   26.4836   15.8123 H   0  0  0  0  0  0  0  0  0  0  0  0
    1.1276   22.3591   13.0608 H   0  0  0  0  0  0  0  0  0  0  0  0
  1  8  2  0  0  0  0
  2  9  2  0  0  0  0
  3 10  1  0  0  0  0
  4  8  1  0  0  0  0
  4 11  1  0  0  0  0
  5  9  1  0  0  0  0
  5 10  1  0  0  0  0
  6  8  1  0  0  0  0
  6 12  1  0  0  0  0
  7 10  2  0  0  0  0
  7 11  1  0  0  0  0
  9 12  1  0  0  0  0
 11 12  2  0  0  0  0
  3 13  1  0  0  0  0
  3 14  1  0  0  0  0
  4 15  1  0  0  0  0
  5 16  1  0  0  0  0
  6 17  1  0  0  0  0
M  END
> <pdb_id>
3QBC

> <uniprot_id>
Q99W87

> <usmiles>
S=C1NC=2N=C(NC(=O)C2N1)N

$$$$
B5P_A_571
          07192423343D 1   1.00000     0.00000     0
            
 55 58  0  0  0  0            999 V2000
   28.2774   43.7882   35.6992 S   0  0  0  0  0  0  0  0  0  0  0  0
   24.5434   45.1093   39.8335 S   0  0  0  0  0  0  0  0  0  0  0  0
   29.3117   43.1692   34.9218 O   0  0  0  0  0  0  0  0  0  0  0  0
   27.0192   43.1740   35.7076 O   0  0  0  0  0  0  0  0  0  0  0  0
   23.6203   44.1082   39.2714 O   0  0  0  0  0  0  0  0  0  0  0  0
   24.4980   46.3430   39.1220 O   0  0  0  0  0  0  0  0  0  0  0  0
   22.4838   46.1102   43.1710 O   0  0  0  0  0  0  0  0  0  0  0  0
   26.4074   43.7456   44.4434 O   0  0  0  0  0  0  0  0  0  0  0  0
   28.7544   43.7325   37.2279 N   0  0  0  0  0  0  0  0  0  0  0  0
   24.1046   45.2123   41.3756 N   0  0  0  0  0  0  0  0  0  0  0  0
   23.7613   46.1948   47.4360 N   0  0  0  0  0  0  0  0  0  0  0  0
   26.0697   44.0675   42.0477 N   0  0  0  0  0  0  0  0  0  0  0  0
   23.2282   46.0940   45.3490 N   0  0  0  0  0  0  0  0  0  0  0  0
   25.1728   44.9003   46.0353 N   0  0  0  0  0  0  0  0  0  0  0  0
   28.2049   45.3908   35.1626 C   0  0  0  0  0  0  0  0  0  0  0  0
   24.5039   41.1230   48.1270 C   0  0  0  0  0  0  0  0  0  0  0  0
   24.3065   43.2067   49.3209 C   0  0  0  0  0  0  0  0  0  0  0  0
   22.6430   46.9222   47.2618 C   0  0  0  0  0  0  0  0  0  0  0  0
   22.2999   46.8534   45.9446 C   0  0  0  0  0  0  0  0  0  0  0  0
   26.0835   44.5263   47.1330 C   0  0  0  0  0  0  0  0  0  0  0  0
   25.9976   43.0497   47.4428 C   0  0  0  0  0  0  0  0  0  0  0  0
   28.6025   43.3243   39.5098 C   0  0  0  0  0  0  0  0  0  0  0  0
   27.9630   43.4312   40.7183 C   0  0  0  0  0  0  0  0  0  0  0  0
   26.7268   44.4388   38.4231 C   0  0  0  0  0  0  0  0  0  0  0  0
   24.1068   45.6978   46.2524 C   0  0  0  0  0  0  0  0  0  0  0  0
   23.3900   45.7329   44.0665 C   0  0  0  0  0  0  0  0  0  0  0  0
   25.4470   44.4641   44.7233 C   0  0  0  0  0  0  0  0  0  0  0  0
   24.8258   44.5599   42.2954 C   0  0  0  0  0  0  0  0  0  0  0  0
   26.0597   44.5325   39.6592 C   0  0  0  0  0  0  0  0  0  0  0  0
   28.0085   43.8448   38.3584 C   0  0  0  0  0  0  0  0  0  0  0  0
   26.7232   44.0364   40.8563 C   0  0  0  0  0  0  0  0  0  0  0  0
   24.6311   42.6355   47.9381 C   0  0  0  0  0  0  0  0  0  0  0  0
   24.4575   44.7920   43.6673 C   0  0  0  0  0  0  0  0  0  0  0  0
   22.5902   45.8491   42.2116 H   0  0  0  0  0  0  0  0  0  0  0  0
   29.7350   43.5965   37.3695 H   0  0  0  0  0  0  0  0  0  0  0  0
   23.3077   45.7537   41.6433 H   0  0  0  0  0  0  0  0  0  0  0  0
   27.4962   45.8807   35.6704 H   0  0  0  0  0  0  0  0  0  0  0  0
   29.0890   45.8332   35.3134 H   0  0  0  0  0  0  0  0  0  0  0  0
   27.9867   45.4061   34.1868 H   0  0  0  0  0  0  0  0  0  0  0  0
   24.7015   40.6613   47.2622 H   0  0  0  0  0  0  0  0  0  0  0  0
   25.1535   40.8183   48.8235 H   0  0  0  0  0  0  0  0  0  0  0  0
   23.5737   40.9005   48.4187 H   0  0  0  0  0  0  0  0  0  0  0  0
   24.3659   44.2045   49.2917 H   0  0  0  0  0  0  0  0  0  0  0  0
   23.3808   42.9355   49.5847 H   0  0  0  0  0  0  0  0  0  0  0  0
   24.9607   42.8532   49.9895 H   0  0  0  0  0  0  0  0  0  0  0  0
   22.1508   47.4244   47.9728 H   0  0  0  0  0  0  0  0  0  0  0  0
   21.5103   47.2851   45.5087 H   0  0  0  0  0  0  0  0  0  0  0  0
   25.8368   45.0452   47.9515 H   0  0  0  0  0  0  0  0  0  0  0  0
   27.0216   44.7489   46.8675 H   0  0  0  0  0  0  0  0  0  0  0  0
   26.6729   42.8308   48.1472 H   0  0  0  0  0  0  0  0  0  0  0  0
   26.2054   42.5357   46.6106 H   0  0  0  0  0  0  0  0  0  0  0  0
   29.4935   42.8740   39.4534 H   0  0  0  0  0  0  0  0  0  0  0  0
   28.4085   43.0579   41.5321 H   0  0  0  0  0  0  0  0  0  0  0  0
   26.2953   44.7915   37.5927 H   0  0  0  0  0  0  0  0  0  0  0  0
   23.9388   42.9435   47.2855 H   0  0  0  0  0  0  0  0  0  0  0  0
  1  3  2  0  0  0  0
  1  4  2  0  0  0  0
  1  9  1  0  0  0  0
  1 15  1  0  0  0  0
  2  5  2  0  0  0  0
  2  6  2  0  0  0  0
  2 10  1  0  0  0  0
  2 29  1  0  0  0  0
  7 26  1  0  0  0  0
  8 27  2  0  0  0  0
  9 30  1  0  0  0  0
 10 28  1  0  0  0  0
 11 18  1  0  0  0  0
 11 25  2  0  0  0  0
 12 28  2  0  0  0  0
 12 31  1  0  0  0  0
 13 19  1  0  0  0  0
 13 25  1  0  0  0  0
 13 26  1  0  0  0  0
 14 20  1  0  0  0  0
 14 25  1  0  0  0  0
 14 27  1  0  0  0  0
 16 32  1  0  0  0  0
 17 32  1  0  0  0  0
 18 19  2  0  0  0  0
 20 21  1  0  0  0  0
 21 32  1  0  0  0  0
 22 23  1  0  0  0  0
 22 30  2  0  0  0  0
 23 31  2  0  0  0  0
 24 29  2  0  0  0  0
 24 30  1  0  0  0  0
 26 33  2  0  0  0  0
 27 33  1  0  0  0  0
 28 33  1  0  0  0  0
 29 31  1  0  0  0  0
  7 34  1  0  0  0  0
  9 35  1  0  0  0  0
 10 36  1  0  0  0  0
 15 37  1  0  0  0  0
 15 38  1  0  0  0  0
 15 39  1  0  0  0  0
 16 40  1  0  0  0  0
 16 41  1  0  0  0  0
 16 42  1  0  0  0  0
 17 43  1  0  0  0  0
 17 44  1  0  0  0  0
 17 45  1  0  0  0  0
 18 46  1  0  0  0  0
 19 47  1  0  0  0  0
 20 48  1  0  0  0  0
 20 49  1  0  0  0  0
 21 50  1  0  0  0  0
 21 51  1  0  0  0  0
 22 52  1  0  0  0  0
 23 53  1  0  0  0  0
 24 54  1  0  0  0  0
 32 55  1  0  0  0  0
M  END
> <pdb_id>
3H98

> <uniprot_id>
P26663

> <usmiles>
S1(=O)(=O)NC(=Nc2c1cc(NS(=O)(=O)C)cc2)C=3C(=O)N(C4=NC=CN4C3O)CCC(C)C

$$$$
B5P_B_571
          07192423343D 1   1.00000     0.00000     0
            
 55 58  0  0  0  0            999 V2000
   28.3003   43.8065   35.7564 S   0  0  0  0  0  0  0  0  0  0  0  0
   24.5408   45.0661   39.7233 S   0  0  0  0  0  0  0  0  0  0  0  0
   29.2787   43.1306   34.9121 O   0  0  0  0  0  0  0  0  0  0  0  0
   26.9928   43.2251   35.6752 O   0  0  0  0  0  0  0  0  0  0  0  0
   23.5759   44.1095   39.2630 O   0  0  0  0  0  0  0  0  0  0  0  0
   24.3128   46.3170   39.0848 O   0  0  0  0  0  0  0  0  0  0  0  0
   22.5295   46.1262   43.1481 O   0  0  0  0  0  0  0  0  0  0  0  0
   26.4984   43.6038   44.4848 O   0  0  0  0  0  0  0  0  0  0  0  0
   28.8645   43.8003   37.2648 N   0  0  0  0  0  0  0  0  0  0  0  0
   24.1636   45.1718   41.2950 N   0  0  0  0  0  0  0  0  0  0  0  0
   23.7095   46.1284   47.4469 N   0  0  0  0  0  0  0  0  0  0  0  0
   26.1070   44.0767   41.9786 N   0  0  0  0  0  0  0  0  0  0  0  0
   23.1888   46.0450   45.3119 N   0  0  0  0  0  0  0  0  0  0  0  0
   25.1257   44.8051   46.0190 N   0  0  0  0  0  0  0  0  0  0  0  0
   28.2123   45.3976   35.2122 C   0  0  0  0  0  0  0  0  0  0  0  0
   24.3707   43.2411   49.2846 C   0  0  0  0  0  0  0  0  0  0  0  0
   24.1781   41.0069   48.1345 C   0  0  0  0  0  0  0  0  0  0  0  0
   22.5973   46.8677   47.2318 C   0  0  0  0  0  0  0  0  0  0  0  0
   22.2821   46.8353   45.9000 C   0  0  0  0  0  0  0  0  0  0  0  0
   25.9813   44.3906   47.1324 C   0  0  0  0  0  0  0  0  0  0  0  0
   25.8765   42.8521   47.3805 C   0  0  0  0  0  0  0  0  0  0  0  0
   28.7596   43.4028   39.5803 C   0  0  0  0  0  0  0  0  0  0  0  0
   28.0747   43.4646   40.7820 C   0  0  0  0  0  0  0  0  0  0  0  0
   26.8288   44.4574   38.3881 C   0  0  0  0  0  0  0  0  0  0  0  0
   24.0604   45.6167   46.2352 C   0  0  0  0  0  0  0  0  0  0  0  0
   23.3946   45.6902   44.0367 C   0  0  0  0  0  0  0  0  0  0  0  0
   25.4639   44.3376   44.7085 C   0  0  0  0  0  0  0  0  0  0  0  0
   24.8502   44.5265   42.2348 C   0  0  0  0  0  0  0  0  0  0  0  0
   26.0897   44.5430   39.5870 C   0  0  0  0  0  0  0  0  0  0  0  0
   28.1259   43.8837   38.4052 C   0  0  0  0  0  0  0  0  0  0  0  0
   26.7541   44.0106   40.8092 C   0  0  0  0  0  0  0  0  0  0  0  0
   24.5136   42.5108   47.9397 C   0  0  0  0  0  0  0  0  0  0  0  0
   24.4989   44.7113   43.6325 C   0  0  2  0  0  0  0  0  0  0  0  0
   29.8558   43.7280   37.3746 H   0  0  0  0  0  0  0  0  0  0  0  0
   23.3885   45.7413   41.5685 H   0  0  0  0  0  0  0  0  0  0  0  0
   27.5496   45.9028   35.7650 H   0  0  0  0  0  0  0  0  0  0  0  0
   29.1113   45.8280   35.2938 H   0  0  0  0  0  0  0  0  0  0  0  0
   27.9239   45.4070   34.2548 H   0  0  0  0  0  0  0  0  0  0  0  0
   24.5861   44.2100   49.1624 H   0  0  0  0  0  0  0  0  0  0  0  0
   23.4320   43.1477   49.6165 H   0  0  0  0  0  0  0  0  0  0  0  0
   25.0009   42.8409   49.9499 H   0  0  0  0  0  0  0  0  0  0  0  0
   24.2702   40.5290   47.2609 H   0  0  0  0  0  0  0  0  0  0  0  0
   24.8084   40.6083   48.8006 H   0  0  0  0  0  0  0  0  0  0  0  0
   23.2396   40.9152   48.4673 H   0  0  0  0  0  0  0  0  0  0  0  0
   22.0855   47.3607   47.9354 H   0  0  0  0  0  0  0  0  0  0  0  0
   21.5230   47.3093   45.4536 H   0  0  0  0  0  0  0  0  0  0  0  0
   25.6976   44.8749   47.9600 H   0  0  0  0  0  0  0  0  0  0  0  0
   26.9302   44.6230   46.9189 H   0  0  0  0  0  0  0  0  0  0  0  0
   26.5815   42.5729   48.0324 H   0  0  0  0  0  0  0  0  0  0  0  0
   26.0109   42.3673   46.5163 H   0  0  0  0  0  0  0  0  0  0  0  0
   29.6850   43.0257   39.5411 H   0  0  0  0  0  0  0  0  0  0  0  0
   28.5000   43.1304   41.6230 H   0  0  0  0  0  0  0  0  0  0  0  0
   26.4408   44.7990   37.5321 H   0  0  0  0  0  0  0  0  0  0  0  0
   23.8301   42.8923   47.3174 H   0  0  0  0  0  0  0  0  0  0  0  0
   23.9377   43.8869   43.7071 H   0  0  0  0  0  0  0  0  0  0  0  0
  1  3  2  0  0  0  0
  1  4  2  0  0  0  0
  1  9  1  0  0  0  0
  1 15  1  0  0  0  0
  2  5  2  0  0  0  0
  2  6  2  0  0  0  0
  2 10  1  0  0  0  0
  2 29  1  0  0  0  0
  7 26  2  0  0  0  0
  8 27  2  0  0  0  0
  9 30  1  0  0  0  0
 10 28  1  0  0  0  0
 11 18  1  0  0  0  0
 11 25  2  0  0  0  0
 12 28  2  0  0  0  0
 12 31  1  0  0  0  0
 13 19  1  0  0  0  0
 13 25  1  0  0  0  0
 13 26  1  0  0  0  0
 14 20  1  0  0  0  0
 14 25  1  0  0  0  0
 14 27  1  0  0  0  0
 16 32  1  0  0  0  0
 17 32  1  0  0  0  0
 18 19  2  0  0  0  0
 20 21  1  0  0  0  0
 21 32  1  0  0  0  0
 22 23  1  0  0  0  0
 22 30  2  0  0  0  0
 23 31  2  0  0  0  0
 24 29  2  0  0  0  0
 24 30  1  0  0  0  0
 26 33  1  0  0  0  0
 27 33  1  0  0  0  0
 28 33  1  0  0  0  0
 29 31  1  0  0  0  0
  9 34  1  0  0  0  0
 10 35  1  0  0  0  0
 15 36  1  0  0  0  0
 15 37  1  0  0  0  0
 15 38  1  0  0  0  0
 16 39  1  0  0  0  0
 16 40  1  0  0  0  0
 16 41  1  0  0  0  0
 17 42  1  0  0  0  0
 17 43  1  0  0  0  0
 17 44  1  0  0  0  0
 18 45  1  0  0  0  0
 19 46  1  0  0  0  0
 20 47  1  0  0  0  0
 20 48  1  0  0  0  0
 21 49  1  0  0  0  0
 21 50  1  0  0  0  0
 22 51  1  0  0  0  0
 23 52  1  0  0  0  0
 24 53  1  0  0  0  0
 32 54  1  0  0  0  0
 33 55  1  0  0  0  0
M  END
> <pdb_id>
3H98

> <uniprot_id>
P26663

> <usmiles>
S1(=O)(=O)NC(=Nc2c1cc(NS(=O)(=O)C)cc2)[C@@H]3C(=O)N4C(=NC=C4)N(C3=O)CCC(C)C

$$$$
B5T_C_501
          07202416203D 1   1.00000     0.00000     0
            
 39 42  0  0  0  0            999 V2000
   -5.0637    5.1205   26.3111 S   0  0  0  0  0  0  0  0  0  0  0  0
   -5.5849    4.9196   24.8880 O   0  0  0  0  0  0  0  0  0  0  0  0
   -3.5387    5.2028   26.2672 O   0  0  0  0  0  0  0  0  0  0  0  0
   -5.6696    6.4845   26.9015 N   0  0  0  0  0  0  0  0  0  0  0  0
   -4.0270   -5.4642   29.2485 N   0  0  0  0  0  0  0  0  0  0  0  0
   -8.5373   -0.4508   31.1273 N   0  0  0  0  0  0  0  0  0  0  0  0
   -8.0682   -2.7201   31.8299 N   0  0  0  0  0  0  0  0  0  0  0  0
   -2.7783   -4.8333   29.3991 C   0  0  0  0  0  0  0  0  0  0  0  0
   -5.1973   -4.8284   29.7016 C   0  0  0  0  0  0  0  0  0  0  0  0
   -8.0804    0.6270   30.3574 C   0  0  0  0  0  0  0  0  0  0  0  0
   -7.0876   -3.5720   31.5693 C   0  0  0  0  0  0  0  0  0  0  0  0
   -2.7129   -3.5781   29.9976 C   0  0  0  0  0  0  0  0  0  0  0  0
   -6.8890    3.3039   27.2069 C   0  0  0  0  0  0  0  0  0  0  0  0
   -4.6954    3.1269   28.1957 C   0  0  0  0  0  0  0  0  0  0  0  0
   -3.8764   -2.9494   30.4480 C   0  0  0  0  0  0  0  0  0  0  0  0
   -7.3214    2.2267   27.9798 C   0  0  0  0  0  0  0  0  0  0  0  0
   -5.1302    2.0455   28.9721 C   0  0  0  0  0  0  0  0  0  0  0  0
   -6.2034   -0.7140   29.7233 C   0  0  0  0  0  0  0  0  0  0  0  0
   -5.5757    3.7601   27.3106 C   0  0  0  0  0  0  0  0  0  0  0  0
   -7.8276   -1.5907   31.1721 C   0  0  0  0  0  0  0  0  0  0  0  0
   -5.1274   -3.5615   30.2939 C   0  0  0  0  0  0  0  0  0  0  0  0
   -6.8964    0.5042   29.6385 C   0  0  0  0  0  0  0  0  0  0  0  0
   -6.4470    1.5825   28.8668 C   0  0  0  0  0  0  0  0  0  0  0  0
   -6.2424   -2.9657   30.7418 C   0  0  0  0  0  0  0  0  0  0  0  0
   -6.6799   -1.7272   30.4788 C   0  0  0  0  0  0  0  0  0  0  0  0
   -5.3331    6.6231   27.8330 H   0  0  0  0  0  0  0  0  0  0  0  0
   -5.3853    7.2518   26.3268 H   0  0  0  0  0  0  0  0  0  0  0  0
   -8.8554   -2.8969   32.4209 H   0  0  0  0  0  0  0  0  0  0  0  0
   -1.9446   -5.2830   29.0787 H   0  0  0  0  0  0  0  0  0  0  0  0
   -6.0823   -5.2829   29.6004 H   0  0  0  0  0  0  0  0  0  0  0  0
   -8.6025    1.4793   30.3251 H   0  0  0  0  0  0  0  0  0  0  0  0
   -6.9995   -4.5009   31.9292 H   0  0  0  0  0  0  0  0  0  0  0  0
   -1.8285   -3.1241   30.1058 H   0  0  0  0  0  0  0  0  0  0  0  0
   -7.5233    3.7507   26.5759 H   0  0  0  0  0  0  0  0  0  0  0  0
   -3.7516    3.4482   28.2740 H   0  0  0  0  0  0  0  0  0  0  0  0
   -3.8157   -2.0522   30.8855 H   0  0  0  0  0  0  0  0  0  0  0  0
   -8.2665    1.9097   27.9004 H   0  0  0  0  0  0  0  0  0  0  0  0
   -4.4963    1.6015   29.6053 H   0  0  0  0  0  0  0  0  0  0  0  0
   -5.3481   -0.8328   29.2190 H   0  0  0  0  0  0  0  0  0  0  0  0
  1  2  2  0  0  0  0
  1  3  2  0  0  0  0
  1  4  1  0  0  0  0
  1 19  1  0  0  0  0
  5  8  2  0  0  0  0
  5  9  1  0  0  0  0
  6 10  2  0  0  0  0
  6 20  1  0  0  0  0
  7 11  1  0  0  0  0
  7 20  1  0  0  0  0
  8 12  1  0  0  0  0
  9 21  2  0  0  0  0
 10 22  1  0  0  0  0
 11 24  2  0  0  0  0
 12 15  2  0  0  0  0
 13 16  2  0  0  0  0
 13 19  1  0  0  0  0
 14 17  1  0  0  0  0
 14 19  2  0  0  0  0
 15 21  1  0  0  0  0
 16 23  1  0  0  0  0
 17 23  2  0  0  0  0
 18 22  2  0  0  0  0
 18 25  1  0  0  0  0
 20 25  2  0  0  0  0
 21 24  1  0  0  0  0
 22 23  1  0  0  0  0
 24 25  1  0  0  0  0
  4 26  1  0  0  0  0
  4 27  1  0  0  0  0
  7 28  1  0  0  0  0
  8 29  1  0  0  0  0
  9 30  1  0  0  0  0
 10 31  1  0  0  0  0
 11 32  1  0  0  0  0
 12 33  1  0  0  0  0
 13 34  1  0  0  0  0
 14 35  1  0  0  0  0
 15 36  1  0  0  0  0
 16 37  1  0  0  0  0
 17 38  1  0  0  0  0
 18 39  1  0  0  0  0
M  END
> <pdb_id>
6EIF

> <uniprot_id>
Q13627

> <usmiles>
S(=O)(=O)(N)c1ccc(c2cnc3NC=C(c3c2)c4cnccc4)cc1

$$$$
B66_A_1
          07202400533D 1   1.00000     0.00000     0
            
 43 44  0  0  0  0            999 V2000
   23.5669    3.9723    5.6922 F   0  0  0  0  0  0  0  0  0  0  0  0
   22.9481    4.4396    3.6838 F   0  0  0  0  0  0  0  0  0  0  0  0
   23.6001    2.4794    4.1531 F   0  0  0  0  0  0  0  0  0  0  0  0
   29.9330   -0.3301   12.4021 O   0  5  0  0  0  0  0  0  0  0  0  0
   28.2678    1.4711   12.3273 O   0  0  0  0  0  0  0  0  0  0  0  0
   27.3935    0.7081    4.3900 O   0  0  0  0  0  0  0  0  0  0  0  0
   30.7899    1.3362    3.5369 O   0  0  0  0  0  0  0  0  0  0  0  0
   30.1408    1.3225    6.2978 O   0  0  0  0  0  0  0  0  0  0  0  0
   24.0364    7.4531    3.8033 N   0  0  0  0  0  0  0  0  0  0  0  0
   28.6026    2.5755    3.9141 N   0  0  0  0  0  0  0  0  0  0  0  0
   29.2147    0.6458   11.6605 N   0  3  0  0  0  0  0  0  0  0  0  0
   29.6163   -0.7736    3.2469 C   0  0  0  0  0  0  0  0  0  0  0  0
   30.1554    0.1201    5.5115 C   0  0  0  0  0  0  0  0  0  0  0  0
   24.7644    6.5788    3.8339 C   0  0  0  0  0  0  0  0  0  0  0  0
   29.0131    1.9542    8.2840 C   0  0  0  0  0  0  0  0  0  0  0  0
   30.5683    0.1198    8.3360 C   0  0  0  0  0  0  0  0  0  0  0  0
   27.9972    4.8070    3.6555 C   0  0  0  0  0  0  0  0  0  0  0  0
   28.7873    1.8036    9.6484 C   0  0  0  0  0  0  0  0  0  0  0  0
   30.3445   -0.0309    9.7014 C   0  0  0  0  0  0  0  0  0  0  0  0
   27.0239    5.7988    3.6372 C   0  0  0  0  0  0  0  0  0  0  0  0
   26.2895    3.1864    4.1209 C   0  0  0  0  0  0  0  0  0  0  0  0
   28.4569    1.2703    4.1312 C   0  0  0  0  0  0  0  0  0  0  0  0
   29.9031    1.1128    7.6213 C   0  0  0  0  0  0  0  0  0  0  0  0
   27.6315    3.4883    3.8989 C   0  0  0  0  0  0  0  0  0  0  0  0
   29.4526    0.8105   10.3621 C   0  0  0  0  0  0  0  0  0  0  0  0
   25.6870    5.4839    3.8623 C   0  0  0  0  0  0  0  0  0  0  0  0
   25.2943    4.1652    4.1087 C   0  0  0  0  0  0  0  0  0  0  0  0
   23.8366    3.7641    4.4070 C   0  0  0  0  0  0  0  0  0  0  0  0
   29.7746    0.4943    4.0888 C   0  0  1  0  0  0  0  0  0  0  0  0
   30.8814    2.1594    4.0973 H   0  0  0  0  0  0  0  0  0  0  0  0
   29.5322    2.9035    3.7459 H   0  0  0  0  0  0  0  0  0  0  0  0
   28.9037   -1.3513    3.6450 H   0  0  0  0  0  0  0  0  0  0  0  0
   29.3599   -0.5238    2.3131 H   0  0  0  0  0  0  0  0  0  0  0  0
   30.4818   -1.2743    3.2322 H   0  0  0  0  0  0  0  0  0  0  0  0
   29.4960   -0.5356    5.8794 H   0  0  0  0  0  0  0  0  0  0  0  0
   31.0700   -0.2842    5.5243 H   0  0  0  0  0  0  0  0  0  0  0  0
   28.5339    2.6704    7.7765 H   0  0  0  0  0  0  0  0  0  0  0  0
   31.2092   -0.4874    7.8663 H   0  0  0  0  0  0  0  0  0  0  0  0
   28.9560    5.0409    3.4944 H   0  0  0  0  0  0  0  0  0  0  0  0
   28.1456    2.4101   10.1177 H   0  0  0  0  0  0  0  0  0  0  0  0
   30.8256   -0.7453   10.2096 H   0  0  0  0  0  0  0  0  0  0  0  0
   27.2866    6.7474    3.4608 H   0  0  0  0  0  0  0  0  0  0  0  0
   26.0305    2.2364    4.2950 H   0  0  0  0  0  0  0  0  0  0  0  0
  1 28  1  0  0  0  0
  2 28  1  0  0  0  0
  3 28  1  0  0  0  0
  4 11  1  0  0  0  0
  5 11  2  0  0  0  0
  6 22  2  0  0  0  0
  7 29  1  0  0  0  0
  8 13  1  0  0  0  0
  8 23  1  0  0  0  0
  9 14  3  0  0  0  0
 10 22  1  0  0  0  0
 10 24  1  0  0  0  0
 11 25  1  0  0  0  0
 12 29  1  0  0  0  0
 13 29  1  0  0  0  0
 14 26  1  0  0  0  0
 15 18  1  0  0  0  0
 15 23  2  0  0  0  0
 16 19  2  0  0  0  0
 16 23  1  0  0  0  0
 17 20  1  0  0  0  0
 17 24  2  0  0  0  0
 18 25  2  0  0  0  0
 19 25  1  0  0  0  0
 20 26  2  0  0  0  0
 21 24  1  0  0  0  0
 21 27  2  0  0  0  0
 22 29  1  0  0  0  0
 26 27  1  0  0  0  0
 27 28  1  0  0  0  0
  7 30  1  0  0  0  0
 10 31  1  0  0  0  0
 12 32  1  0  0  0  0
 12 33  1  0  0  0  0
 12 34  1  0  0  0  0
 13 35  1  0  0  0  0
 13 36  1  0  0  0  0
 15 37  1  0  0  0  0
 16 38  1  0  0  0  0
 17 39  1  0  0  0  0
 18 40  1  0  0  0  0
 19 41  1  0  0  0  0
 20 42  1  0  0  0  0
 21 43  1  0  0  0  0
M  CHG  2   4  -1  11   1
M  END
> <pdb_id>
3B66

> <uniprot_id>
P10275

> <usmiles>
FC(F)(F)c1c(C#N)ccc(NC(=O)[C@@](O)(COc2ccc([N+]([O-])=O)cc2)C)c1

$$$$
B67_A_1
          07202400533D 1   1.00000     0.00000     0
            
 42 43  0  0  0  0            999 V2000
   27.7200    1.7030   11.2880 F   0  0  0  0  0  0  0  0  0  0  0  0
   27.0690    3.4840    9.2820 F   0  0  0  0  0  0  0  0  0  0  0  0
   29.8010   -0.0670   10.9280 F   0  0  0  0  0  0  0  0  0  0  0  0
   28.4000    3.3310    6.8500 F   0  0  0  0  0  0  0  0  0  0  0  0
   31.2390   -0.0080    8.5390 F   0  0  0  0  0  0  0  0  0  0  0  0
   23.7470    2.4230    4.4340 F   0  0  0  0  0  0  0  0  0  0  0  0
   23.5120    4.0860    5.7540 F   0  0  0  0  0  0  0  0  0  0  0  0
   22.9060    4.2170    3.6700 F   0  0  0  0  0  0  0  0  0  0  0  0
   25.0450    7.8390    3.3770 O   0  5  0  0  0  0  0  0  0  0  0  0
   23.4250    6.4580    4.5610 O   0  0  0  0  0  0  0  0  0  0  0  0
   27.4580    1.0070    4.6460 O   0  0  0  0  0  0  0  0  0  0  0  0
   30.8560    1.5720    3.7200 O   0  0  0  0  0  0  0  0  0  0  0  0
   30.4670    1.6020    6.5180 O   0  0  0  0  0  0  0  0  0  0  0  0
   28.6020    2.7960    3.8380 N   0  0  0  0  0  0  0  0  0  0  0  0
   24.6900    6.5790    3.9270 N   0  3  0  0  0  0  0  0  0  0  0  0
   29.6730   -0.5380    3.5000 C   0  0  0  0  0  0  0  0  0  0  0  0
   30.1560    0.4360    5.7350 C   0  0  0  0  0  0  0  0  0  0  0  0
   27.8490    4.9600    3.3530 C   0  0  0  0  0  0  0  0  0  0  0  0
   26.8160    5.8900    3.3570 C   0  0  0  0  0  0  0  0  0  0  0  0
   26.2920    3.3280    4.1510 C   0  0  0  0  0  0  0  0  0  0  0  0
   28.5010    1.5400    4.2710 C   0  0  0  0  0  0  0  0  0  0  0  0
   28.4160    1.7050   10.1290 C   0  0  0  0  0  0  0  0  0  0  0  0
   28.0500    2.5710    9.0970 C   0  0  0  0  0  0  0  0  0  0  0  0
   29.4750    0.8080    9.9520 C   0  0  0  0  0  0  0  0  0  0  0  0
   28.7310    2.5220    7.8790 C   0  0  0  0  0  0  0  0  0  0  0  0
   30.1630    0.7850    8.7380 C   0  0  0  0  0  0  0  0  0  0  0  0
   29.7840    1.6280    7.6980 C   0  0  0  0  0  0  0  0  0  0  0  0
   27.5890    3.6570    3.7650 C   0  0  0  0  0  0  0  0  0  0  0  0
   25.5280    5.5560    3.7640 C   0  0  0  0  0  0  0  0  0  0  0  0
   25.2420    4.2460    4.1560 C   0  0  0  0  0  0  0  0  0  0  0  0
   23.8270    3.7490    4.5070 C   0  0  0  0  0  0  0  0  0  0  0  0
   29.8210    0.7650    4.2880 C   0  0  1  0  0  0  0  0  0  0  0  0
   30.9428    2.4197    4.2433 H   0  0  0  0  0  0  0  0  0  0  0  0
   29.5039    3.1151    3.5468 H   0  0  0  0  0  0  0  0  0  0  0  0
   28.9471   -1.0928    3.9065 H   0  0  0  0  0  0  0  0  0  0  0  0
   29.4402   -0.3286    2.5503 H   0  0  0  0  0  0  0  0  0  0  0  0
   30.5349   -1.0443    3.5281 H   0  0  0  0  0  0  0  0  0  0  0  0
   29.3701   -0.0247    6.1474 H   0  0  0  0  0  0  0  0  0  0  0  0
   30.9461   -0.1768    5.7479 H   0  0  0  0  0  0  0  0  0  0  0  0
   28.7672    5.2242    3.0578 H   0  0  0  0  0  0  0  0  0  0  0  0
   27.0038    6.8259    3.0589 H   0  0  0  0  0  0  0  0  0  0  0  0
   26.1046    2.3887    4.4383 H   0  0  0  0  0  0  0  0  0  0  0  0
  1 22  1  0  0  0  0
  2 23  1  0  0  0  0
  3 24  1  0  0  0  0
  4 25  1  0  0  0  0
  5 26  1  0  0  0  0
  6 31  1  0  0  0  0
  7 31  1  0  0  0  0
  8 31  1  0  0  0  0
  9 15  1  0  0  0  0
 10 15  2  0  0  0  0
 11 21  2  0  0  0  0
 12 32  1  0  0  0  0
 13 17  1  0  0  0  0
 13 27  1  0  0  0  0
 14 21  1  0  0  0  0
 14 28  1  0  0  0  0
 15 29  1  0  0  0  0
 16 32  1  0  0  0  0
 17 32  1  0  0  0  0
 18 19  1  0  0  0  0
 18 28  2  0  0  0  0
 19 29  2  0  0  0  0
 20 28  1  0  0  0  0
 20 30  2  0  0  0  0
 21 32  1  0  0  0  0
 22 23  2  0  0  0  0
 22 24  1  0  0  0  0
 23 25  1  0  0  0  0
 24 26  2  0  0  0  0
 25 27  2  0  0  0  0
 26 27  1  0  0  0  0
 29 30  1  0  0  0  0
 30 31  1  0  0  0  0
 12 33  1  0  0  0  0
 14 34  1  0  0  0  0
 16 35  1  0  0  0  0
 16 36  1  0  0  0  0
 16 37  1  0  0  0  0
 17 38  1  0  0  0  0
 17 39  1  0  0  0  0
 18 40  1  0  0  0  0
 19 41  1  0  0  0  0
 20 42  1  0  0  0  0
M  CHG  2   9  -1  15   1
M  END
> <pdb_id>
3B67

> <uniprot_id>
P10275

> <usmiles>
Fc1c(F)c(F)c(OC[C@](O)(C(=O)Nc2cc(c([N+]([O-])=O)cc2)C(F)(F)F)C)c(F)c1F

$$$$
B68_A_1
          07202400533D 1   1.00000     0.00000     0
            
 49 50  0  0  0  0            999 V2000
   23.2820    4.2029    5.5711 F   0  0  0  0  0  0  0  0  0  0  0  0
   22.9104    4.1945    3.4500 F   0  0  0  0  0  0  0  0  0  0  0  0
   23.6643    2.4543    4.4081 F   0  0  0  0  0  0  0  0  0  0  0  0
   23.2838    6.4482    4.2055 O   0  5  0  0  0  0  0  0  0  0  0  0
   25.1051    7.9096    3.5499 O   0  0  0  0  0  0  0  0  0  0  0  0
   31.1471   -0.6017   12.6462 O   0  0  0  0  0  0  0  0  0  0  0  0
   27.3505    0.9340    4.6438 O   0  0  0  0  0  0  0  0  0  0  0  0
   30.8058    1.5747    4.0772 O   0  0  0  0  0  0  0  0  0  0  0  0
   30.2129    1.4027    6.7533 O   0  0  0  0  0  0  0  0  0  0  0  0
   29.2241    0.4603   12.0728 N   0  0  0  0  0  0  0  0  0  0  0  0
   28.5579    2.7899    4.1288 N   0  0  0  0  0  0  0  0  0  0  0  0
   24.6522    6.5988    3.8565 N   0  3  0  0  0  0  0  0  0  0  0  0
   29.4781   -0.2995   14.3477 C   0  0  0  0  0  0  0  0  0  0  0  0
   29.6655   -0.5073    3.5625 C   0  0  0  0  0  0  0  0  0  0  0  0
   29.9577    0.2658    5.9126 C   0  0  0  0  0  0  0  0  0  0  0  0
   30.9085    0.4531    8.8347 C   0  0  0  0  0  0  0  0  0  0  0  0
   28.7931    1.5858    8.6586 C   0  0  0  0  0  0  0  0  0  0  0  0
   30.6719    0.2252   10.1874 C   0  0  0  0  0  0  0  0  0  0  0  0
   28.5615    1.3578   10.0123 C   0  0  0  0  0  0  0  0  0  0  0  0
   27.8757    4.9888    3.7243 C   0  0  0  0  0  0  0  0  0  0  0  0
   26.8592    5.9372    3.6632 C   0  0  0  0  0  0  0  0  0  0  0  0
   26.2267    3.3336    4.2418 C   0  0  0  0  0  0  0  0  0  0  0  0
   30.0294   -0.1693   12.9262 C   0  0  0  0  0  0  0  0  0  0  0  0
   28.4201    1.4962    4.4141 C   0  0  0  0  0  0  0  0  0  0  0  0
   29.9686    1.1319    8.0648 C   0  0  0  0  0  0  0  0  0  0  0  0
   29.4964    0.6760   10.7852 C   0  0  0  0  0  0  0  0  0  0  0  0
   27.5619    3.6695    4.0245 C   0  0  0  0  0  0  0  0  0  0  0  0
   25.5299    5.5962    3.8985 C   0  0  0  0  0  0  0  0  0  0  0  0
   25.1923    4.2679    4.1816 C   0  0  0  0  0  0  0  0  0  0  0  0
   23.7465    3.7816    4.3986 C   0  0  0  0  0  0  0  0  0  0  0  0
   29.7341    0.7168    4.4775 C   0  0  1  0  0  0  0  0  0  0  0  0
   30.8399    2.3701    4.6824 H   0  0  0  0  0  0  0  0  0  0  0  0
   28.3500    0.7964   12.4235 H   0  0  0  0  0  0  0  0  0  0  0  0
   29.4866    3.1299    3.9804 H   0  0  0  0  0  0  0  0  0  0  0  0
   28.5642    0.1043   14.3891 H   0  0  0  0  0  0  0  0  0  0  0  0
   29.4270   -1.2662   14.5982 H   0  0  0  0  0  0  0  0  0  0  0  0
   30.0828    0.1785   14.9848 H   0  0  0  0  0  0  0  0  0  0  0  0
   28.9131   -1.0986    3.8525 H   0  0  0  0  0  0  0  0  0  0  0  0
   29.5121   -0.2106    2.6199 H   0  0  0  0  0  0  0  0  0  0  0  0
   30.5267   -1.0127    3.6168 H   0  0  0  0  0  0  0  0  0  0  0  0
   29.1423   -0.2114    6.2403 H   0  0  0  0  0  0  0  0  0  0  0  0
   30.7423   -0.3533    5.9464 H   0  0  0  0  0  0  0  0  0  0  0  0
   31.7561    0.1283    8.4150 H   0  0  0  0  0  0  0  0  0  0  0  0
   28.1145    2.0760    8.1116 H   0  0  0  0  0  0  0  0  0  0  0  0
   31.3503   -0.2655   10.7342 H   0  0  0  0  0  0  0  0  0  0  0  0
   27.7161    1.6870   10.4329 H   0  0  0  0  0  0  0  0  0  0  0  0
   28.8243    5.2550    3.5534 H   0  0  0  0  0  0  0  0  0  0  0  0
   27.0888    6.8857    3.4452 H   0  0  0  0  0  0  0  0  0  0  0  0
   26.0004    2.3820    4.4498 H   0  0  0  0  0  0  0  0  0  0  0  0
  1 30  1  0  0  0  0
  2 30  1  0  0  0  0
  3 30  1  0  0  0  0
  4 12  1  0  0  0  0
  5 12  2  0  0  0  0
  6 23  2  0  0  0  0
  7 24  2  0  0  0  0
  8 31  1  0  0  0  0
  9 15  1  0  0  0  0
  9 25  1  0  0  0  0
 10 23  1  0  0  0  0
 10 26  1  0  0  0  0
 11 24  1  0  0  0  0
 11 27  1  0  0  0  0
 12 28  1  0  0  0  0
 13 23  1  0  0  0  0
 14 31  1  0  0  0  0
 15 31  1  0  0  0  0
 16 18  1  0  0  0  0
 16 25  2  0  0  0  0
 17 19  2  0  0  0  0
 17 25  1  0  0  0  0
 18 26  2  0  0  0  0
 19 26  1  0  0  0  0
 20 21  1  0  0  0  0
 20 27  2  0  0  0  0
 21 28  2  0  0  0  0
 22 27  1  0  0  0  0
 22 29  2  0  0  0  0
 24 31  1  0  0  0  0
 28 29  1  0  0  0  0
 29 30  1  0  0  0  0
  8 32  1  0  0  0  0
 10 33  1  0  0  0  0
 11 34  1  0  0  0  0
 13 35  1  0  0  0  0
 13 36  1  0  0  0  0
 13 37  1  0  0  0  0
 14 38  1  0  0  0  0
 14 39  1  0  0  0  0
 14 40  1  0  0  0  0
 15 41  1  0  0  0  0
 15 42  1  0  0  0  0
 16 43  1  0  0  0  0
 17 44  1  0  0  0  0
 18 45  1  0  0  0  0
 19 46  1  0  0  0  0
 20 47  1  0  0  0  0
 21 48  1  0  0  0  0
 22 49  1  0  0  0  0
M  CHG  2   4  -1  12   1
M  END
> <pdb_id>
3B68

> <uniprot_id>
P10275

> <usmiles>
FC(F)(F)c1c([N+]([O-])=O)ccc(NC(=O)[C@@](O)(COc2ccc(NC(=O)C)cc2)C)c1

$$$$
B6A_A_1
          07202405313D 1   1.00000     0.00000     0
            
 47 50  0  0  0  0            999 V2000
   18.9501  -19.2405    1.6745 O   0  0  0  0  0  0  0  0  0  0  0  0
   12.7016  -23.3524    2.6427 N   0  0  0  0  0  0  0  0  0  0  0  0
   12.2518  -18.1615    5.0434 N   0  0  0  0  0  0  0  0  0  0  0  0
   14.9873  -23.9809    2.4656 N   0  0  0  0  0  0  0  0  0  0  0  0
   14.4631  -21.9006    2.1503 N   0  0  0  0  0  0  0  0  0  0  0  0
   13.0070  -19.3238    5.5292 C   0  0  0  0  0  0  0  0  0  0  0  0
   13.0199  -17.4661    4.0146 C   0  0  0  0  0  0  0  0  0  0  0  0
   13.6400  -20.6877    2.0177 C   0  0  0  0  0  0  0  0  0  0  0  0
   22.6526  -21.4606   -0.9115 C   0  0  0  0  0  0  0  0  0  0  0  0
   22.7557  -20.5820    0.1684 C   0  0  0  0  0  0  0  0  0  0  0  0
   21.4217  -21.9991   -1.2608 C   0  0  0  0  0  0  0  0  0  0  0  0
   13.0958  -20.3493    4.4058 C   0  0  0  0  0  0  0  0  0  0  0  0
   13.1414  -18.3894    2.8069 C   0  0  0  0  0  0  0  0  0  0  0  0
   17.4420  -23.7193    2.0996 C   0  0  0  0  0  0  0  0  0  0  0  0
   21.6089  -20.2343    0.8769 C   0  0  0  0  0  0  0  0  0  0  0  0
   20.2869  -21.6593   -0.5491 C   0  0  0  0  0  0  0  0  0  0  0  0
   18.4335  -22.7828    1.8050 C   0  0  0  0  0  0  0  0  0  0  0  0
   16.7602  -21.0494    1.7150 C   0  0  0  0  0  0  0  0  0  0  0  0
   13.9877  -23.0962    2.4278 C   0  0  0  0  0  0  0  0  0  0  0  0
   19.1294  -20.4017    1.3020 C   0  0  0  0  0  0  0  0  0  0  0  0
   16.1141  -23.3177    2.2044 C   0  0  0  0  0  0  0  0  0  0  0  0
   15.7767  -21.9839    2.0056 C   0  0  0  0  0  0  0  0  0  0  0  0
   13.7824  -19.7360    3.1929 C   0  0  0  0  0  0  0  0  0  0  0  0
   20.3820  -20.7799    0.5218 C   0  0  0  0  0  0  0  0  0  0  0  0
   18.0861  -21.4499    1.6102 C   0  0  0  0  0  0  0  0  0  0  0  0
   12.0291  -22.6141    2.5902 H   0  0  0  0  0  0  0  0  0  0  0  0
   12.4062  -24.2835    2.8569 H   0  0  0  0  0  0  0  0  0  0  0  0
   12.0765  -17.5377    5.8051 H   0  0  0  0  0  0  0  0  0  0  0  0
   12.5382  -19.7255    6.3159 H   0  0  0  0  0  0  0  0  0  0  0  0
   13.9269  -19.0391    5.7990 H   0  0  0  0  0  0  0  0  0  0  0  0
   13.9302  -17.2437    4.3638 H   0  0  0  0  0  0  0  0  0  0  0  0
   12.5490  -16.6242    3.7513 H   0  0  0  0  0  0  0  0  0  0  0  0
   12.6808  -20.9610    1.9447 H   0  0  0  0  0  0  0  0  0  0  0  0
   13.9140  -20.2072    1.1847 H   0  0  0  0  0  0  0  0  0  0  0  0
   23.4689  -21.7032   -1.4357 H   0  0  0  0  0  0  0  0  0  0  0  0
   23.6446  -20.2061    0.4305 H   0  0  0  0  0  0  0  0  0  0  0  0
   21.3560  -22.6349   -2.0298 H   0  0  0  0  0  0  0  0  0  0  0  0
   12.1742  -20.6424    4.1515 H   0  0  0  0  0  0  0  0  0  0  0  0
   13.6221  -21.1395    4.7198 H   0  0  0  0  0  0  0  0  0  0  0  0
   13.7089  -17.9455    2.1134 H   0  0  0  0  0  0  0  0  0  0  0  0
   12.2294  -18.5582    2.4330 H   0  0  0  0  0  0  0  0  0  0  0  0
   17.6859  -24.6795    2.2355 H   0  0  0  0  0  0  0  0  0  0  0  0
   21.6685  -19.5921    1.6411 H   0  0  0  0  0  0  0  0  0  0  0  0
   19.4004  -22.0452   -0.8043 H   0  0  0  0  0  0  0  0  0  0  0  0
   19.3892  -23.0684    1.7341 H   0  0  0  0  0  0  0  0  0  0  0  0
   16.5149  -20.0892    1.5813 H   0  0  0  0  0  0  0  0  0  0  0  0
   14.7522  -19.5977    3.3938 H   0  0  0  0  0  0  0  0  0  0  0  0
  1 20  2  0  0  0  0
  2 19  1  0  0  0  0
  3  6  1  0  0  0  0
  3  7  1  0  0  0  0
  4 19  2  0  0  0  0
  4 21  1  0  0  0  0
  5  8  1  0  0  0  0
  5 19  1  0  0  0  0
  5 22  1  0  0  0  0
  6 12  1  0  0  0  0
  7 13  1  0  0  0  0
  8 23  1  0  0  0  0
  9 10  2  0  0  0  0
  9 11  1  0  0  0  0
 10 15  1  0  0  0  0
 11 16  2  0  0  0  0
 12 23  1  0  0  0  0
 13 23  1  0  0  0  0
 14 17  1  0  0  0  0
 14 21  2  0  0  0  0
 15 24  2  0  0  0  0
 16 24  1  0  0  0  0
 17 25  2  0  0  0  0
 18 22  2  0  0  0  0
 18 25  1  0  0  0  0
 20 24  1  0  0  0  0
 20 25  1  0  0  0  0
 21 22  1  0  0  0  0
  2 26  1  0  0  0  0
  2 27  1  0  0  0  0
  3 28  1  0  0  0  0
  6 29  1  0  0  0  0
  6 30  1  0  0  0  0
  7 31  1  0  0  0  0
  7 32  1  0  0  0  0
  8 33  1  0  0  0  0
  8 34  1  0  0  0  0
  9 35  1  0  0  0  0
 10 36  1  0  0  0  0
 11 37  1  0  0  0  0
 12 38  1  0  0  0  0
 12 39  1  0  0  0  0
 13 40  1  0  0  0  0
 13 41  1  0  0  0  0
 14 42  1  0  0  0  0
 15 43  1  0  0  0  0
 16 44  1  0  0  0  0
 17 45  1  0  0  0  0
 18 46  1  0  0  0  0
 23 47  1  0  0  0  0
M  END
> <pdb_id>
3UPX

> <uniprot_id>
Q9BJF5

> <usmiles>
O=C(c1cc2N(C(=Nc2cc1)N)CC3CCNCC3)c4ccccc4

$$$$
B6O_A_409
          07212403373D 1   1.00000     0.00000     0
            
 48 52  0  0  0  0            999 V2000
   31.0320  -10.6767  -21.2819 F   0  0  0  0  0  0  0  0  0  0  0  0
   34.0150   -8.5872  -24.2149 F   0  0  0  0  0  0  0  0  0  0  0  0
   34.5183  -17.4786  -25.8402 O   0  0  0  0  0  0  0  0  0  0  0  0
   34.1511  -14.0514  -21.6807 O   0  0  0  0  0  0  0  0  0  0  0  0
   33.2389  -13.4936  -25.8912 N   0  0  0  0  0  0  0  0  0  0  0  0
   33.5712  -14.6916  -26.1975 N   0  0  0  0  0  0  0  0  0  0  0  0
   33.4132  -13.2750  -24.5249 N   0  0  0  0  0  0  0  0  0  0  0  0
   31.1778   -4.7927  -23.2519 N   0  0  0  0  0  0  0  0  0  0  0  0
   30.9440   -4.9955  -24.6771 C   0  0  0  0  0  0  0  0  0  0  0  0
   31.0416   -3.4267  -22.7548 C   0  0  0  0  0  0  0  0  0  0  0  0
   35.5970  -18.8159  -21.9785 C   0  0  0  0  0  0  0  0  0  0  0  0
   35.5050  -17.9171  -20.9355 C   0  0  0  0  0  0  0  0  0  0  0  0
   32.1336   -6.7586  -20.2160 C   0  0  0  0  0  0  0  0  0  0  0  0
   31.7402   -5.6804  -21.0039 C   0  0  0  0  0  0  0  0  0  0  0  0
   32.3758   -8.0077  -20.7639 C   0  0  0  0  0  0  0  0  0  0  0  0
   35.2543  -18.4247  -23.2675 C   0  0  0  0  0  0  0  0  0  0  0  0
   35.0508  -16.6257  -21.1665 C   0  0  0  0  0  0  0  0  0  0  0  0
   32.1965  -11.9721  -22.8659 C   0  0  0  0  0  0  0  0  0  0  0  0
   33.7271  -10.8815  -24.3700 C   0  0  0  0  0  0  0  0  0  0  0  0
   31.8240   -7.1435  -22.9220 C   0  0  0  0  0  0  0  0  0  0  0  0
   31.9013  -10.7216  -22.2791 C   0  0  0  0  0  0  0  0  0  0  0  0
   33.4065   -9.6735  -23.7545 C   0  0  0  0  0  0  0  0  0  0  0  0
   34.4353  -16.7146  -24.8954 C   0  0  0  0  0  0  0  0  0  0  0  0
   34.2393  -14.8285  -22.6186 C   0  0  0  0  0  0  0  0  0  0  0  0
   31.5710   -5.8637  -22.3769 C   0  0  0  0  0  0  0  0  0  0  0  0
   33.1252  -12.0493  -23.9153 C   0  0  0  0  0  0  0  0  0  0  0  0
   33.9831  -15.3536  -25.0278 C   0  0  0  0  0  0  0  0  0  0  0  0
   33.8747  -14.4447  -23.9728 C   0  0  0  0  0  0  0  0  0  0  0  0
   32.2178   -8.2204  -22.1261 C   0  0  0  0  0  0  0  0  0  0  0  0
   34.8005  -17.1237  -23.5165 C   0  0  0  0  0  0  0  0  0  0  0  0
   34.6974  -16.2222  -22.4525 C   0  0  0  0  0  0  0  0  0  0  0  0
   32.4942   -9.5246  -22.6965 C   0  0  0  0  0  0  0  0  0  0  0  0
   30.4394   -5.9291  -24.9742 H   0  0  0  0  0  0  0  0  0  0  0  0
   31.9048   -4.9602  -25.2194 H   0  0  0  0  0  0  0  0  0  0  0  0
   30.3337   -4.1859  -25.1257 H   0  0  0  0  0  0  0  0  0  0  0  0
   31.9505   -3.1173  -22.2176 H   0  0  0  0  0  0  0  0  0  0  0  0
   30.1790   -3.2194  -22.0951 H   0  0  0  0  0  0  0  0  0  0  0  0
   30.9318   -2.7178  -23.5996 H   0  0  0  0  0  0  0  0  0  0  0  0
   35.9582  -19.8294  -21.7791 H   0  0  0  0  0  0  0  0  0  0  0  0
   35.7725  -18.2248  -19.9198 H   0  0  0  0  0  0  0  0  0  0  0  0
   32.2543   -6.6078  -19.1374 H   0  0  0  0  0  0  0  0  0  0  0  0
   31.5542   -4.7122  -20.5275 H   0  0  0  0  0  0  0  0  0  0  0  0
   32.6850   -8.8160  -20.0977 H   0  0  0  0  0  0  0  0  0  0  0  0
   35.3525  -19.1626  -24.0660 H   0  0  0  0  0  0  0  0  0  0  0  0
   34.9786  -15.9355  -20.3244 H   0  0  0  0  0  0  0  0  0  0  0  0
   31.7003  -12.8718  -22.4947 H   0  0  0  0  0  0  0  0  0  0  0  0
   34.4538  -10.8853  -25.1890 H   0  0  0  0  0  0  0  0  0  0  0  0
   31.7052   -7.2794  -23.9965 H   0  0  0  0  0  0  0  0  0  0  0  0
  1 21  1  0  0  0  0
  2 22  1  0  0  0  0
  3 23  2  0  0  0  0
  4 24  2  0  0  0  0
  5  6  2  0  0  0  0
  5  7  1  0  0  0  0
  6 27  1  0  0  0  0
  7 26  1  0  0  0  0
  7 28  1  0  0  0  0
  8  9  1  0  0  0  0
  8 10  1  0  0  0  0
  8 25  1  0  0  0  0
  9 33  1  0  0  0  0
  9 34  1  0  0  0  0
  9 35  1  0  0  0  0
 10 36  1  0  0  0  0
 10 37  1  0  0  0  0
 10 38  1  0  0  0  0
 11 12  2  0  0  0  0
 11 16  1  0  0  0  0
 11 39  1  0  0  0  0
 12 17  1  0  0  0  0
 12 40  1  0  0  0  0
 13 14  1  0  0  0  0
 13 15  2  0  0  0  0
 13 41  1  0  0  0  0
 14 25  2  0  0  0  0
 14 42  1  0  0  0  0
 15 29  1  0  0  0  0
 15 43  1  0  0  0  0
 16 30  2  0  0  0  0
 16 44  1  0  0  0  0
 17 31  2  0  0  0  0
 17 45  1  0  0  0  0
 18 21  2  0  0  0  0
 18 26  1  0  0  0  0
 18 46  1  0  0  0  0
 19 22  1  0  0  0  0
 19 26  2  0  0  0  0
 19 47  1  0  0  0  0
 20 25  1  0  0  0  0
 20 29  2  0  0  0  0
 20 48  1  0  0  0  0
 21 32  1  0  0  0  0
 22 32  2  0  0  0  0
 23 27  1  0  0  0  0
 23 30  1  0  0  0  0
 24 28  1  0  0  0  0
 24 31  1  0  0  0  0
 27 28  2  0  0  0  0
 29 32  1  0  0  0  0
 30 31  1  0  0  0  0
M  END
> <pdb_id>
6LP8

> <uniprot_id>
Q02127

> <usmiles>
Fc1c(c(F)cc(N2N=NC=3C(=O)c4c(cccc4)C(=O)C23)c1)c5cc(N(C)C)ccc5

$$$$
B6U_A_409
          07212403373D 1   1.00000     0.00000     0
            
 44 48  0  0  0  0            999 V2000
   32.6189   -9.0792  -19.8067 F   0  0  0  0  0  0  0  0  0  0  0  0
   34.0700   -8.4551  -24.0358 F   0  0  0  0  0  0  0  0  0  0  0  0
   30.9214  -10.5924  -21.2472 F   0  0  0  0  0  0  0  0  0  0  0  0
   34.4517  -17.2610  -25.8904 O   0  0  0  0  0  0  0  0  0  0  0  0
   34.0850  -13.9463  -21.7146 O   0  0  0  0  0  0  0  0  0  0  0  0
   30.4727   -3.7290  -22.0743 O   0  0  0  0  0  0  0  0  0  0  0  0
   33.1568  -13.2642  -25.8594 N   0  0  0  0  0  0  0  0  0  0  0  0
   33.4938  -14.4513  -26.2000 N   0  0  0  0  0  0  0  0  0  0  0  0
   33.3375  -13.1043  -24.4883 N   0  0  0  0  0  0  0  0  0  0  0  0
   35.5788  -18.7386  -22.0583 C   0  0  0  0  0  0  0  0  0  0  0  0
   35.4934  -17.8742  -20.9885 C   0  0  0  0  0  0  0  0  0  0  0  0
   32.0804   -6.7941  -19.8998 C   0  0  0  0  0  0  0  0  0  0  0  0
   35.2233  -18.2934  -23.3251 C   0  0  0  0  0  0  0  0  0  0  0  0
   35.0260  -16.5823  -21.1856 C   0  0  0  0  0  0  0  0  0  0  0  0
   31.7591   -5.6773  -20.6603 C   0  0  0  0  0  0  0  0  0  0  0  0
   33.7150  -10.7384  -24.2640 C   0  0  0  0  0  0  0  0  0  0  0  0
   32.1073  -11.8451  -22.8357 C   0  0  0  0  0  0  0  0  0  0  0  0
   31.8830   -6.9904  -22.6680 C   0  0  0  0  0  0  0  0  0  0  0  0
   31.3038   -4.5285  -22.8576 C   0  0  0  0  0  0  0  0  0  0  0  0
   32.3034   -8.0100  -20.5513 C   0  0  0  0  0  0  0  0  0  0  0  0
   33.4075   -9.5406  -23.6213 C   0  0  0  0  0  0  0  0  0  0  0  0
   31.8368  -10.6153  -22.2260 C   0  0  0  0  0  0  0  0  0  0  0  0
   34.3812  -16.5173  -24.9199 C   0  0  0  0  0  0  0  0  0  0  0  0
   34.1855  -14.7316  -22.6482 C   0  0  0  0  0  0  0  0  0  0  0  0
   33.9091  -15.1519  -25.0738 C   0  0  0  0  0  0  0  0  0  0  0  0
   33.0519  -11.8983  -23.8556 C   0  0  0  0  0  0  0  0  0  0  0  0
   33.8096  -14.2831  -23.9890 C   0  0  0  0  0  0  0  0  0  0  0  0
   31.6584   -5.7580  -22.0523 C   0  0  0  0  0  0  0  0  0  0  0  0
   34.7635  -16.9947  -23.5492 C   0  0  0  0  0  0  0  0  0  0  0  0
   34.6627  -16.1197  -22.4523 C   0  0  0  0  0  0  0  0  0  0  0  0
   32.1997   -8.1353  -21.9405 C   0  0  0  0  0  0  0  0  0  0  0  0
   32.4619   -9.4162  -22.5902 C   0  0  0  0  0  0  0  0  0  0  0  0
   29.7673   -4.3021  -21.7598 H   0  0  0  0  0  0  0  0  0  0  0  0
   35.9461  -19.7635  -21.8866 H   0  0  0  0  0  0  0  0  0  0  0  0
   35.7723  -18.2396  -19.9885 H   0  0  0  0  0  0  0  0  0  0  0  0
   32.1563   -6.7144  -18.8117 H   0  0  0  0  0  0  0  0  0  0  0  0
   35.3340  -19.0406  -24.1157 H   0  0  0  0  0  0  0  0  0  0  0  0
   34.9819  -15.9632  -20.2863 H   0  0  0  0  0  0  0  0  0  0  0  0
   31.5851   -4.7359  -20.1363 H   0  0  0  0  0  0  0  0  0  0  0  0
   34.4572  -10.7701  -25.0637 H   0  0  0  0  0  0  0  0  0  0  0  0
   31.5813  -12.7477  -22.5190 H   0  0  0  0  0  0  0  0  0  0  0  0
   31.8123   -7.0752  -23.7521 H   0  0  0  0  0  0  0  0  0  0  0  0
   30.7880   -4.7830  -23.8167 H   0  0  0  0  0  0  0  0  0  0  0  0
   32.2023   -3.9608  -23.1923 H   0  0  0  0  0  0  0  0  0  0  0  0
  1 20  1  0  0  0  0
  2 21  1  0  0  0  0
  3 22  1  0  0  0  0
  4 23  2  0  0  0  0
  5 24  2  0  0  0  0
  6 19  1  0  0  0  0
  6 33  1  0  0  0  0
  7  8  2  0  0  0  0
  7  9  1  0  0  0  0
  8 25  1  0  0  0  0
  9 26  1  0  0  0  0
  9 27  1  0  0  0  0
 10 11  2  0  0  0  0
 10 13  1  0  0  0  0
 10 34  1  0  0  0  0
 11 14  1  0  0  0  0
 11 35  1  0  0  0  0
 12 15  2  0  0  0  0
 12 20  1  0  0  0  0
 12 36  1  0  0  0  0
 13 29  2  0  0  0  0
 13 37  1  0  0  0  0
 14 30  2  0  0  0  0
 14 38  1  0  0  0  0
 15 28  1  0  0  0  0
 15 39  1  0  0  0  0
 16 21  2  0  0  0  0
 16 26  1  0  0  0  0
 16 40  1  0  0  0  0
 17 22  1  0  0  0  0
 17 26  2  0  0  0  0
 17 41  1  0  0  0  0
 18 28  2  0  0  0  0
 18 31  1  0  0  0  0
 18 42  1  0  0  0  0
 19 28  1  0  0  0  0
 19 43  1  0  0  0  0
 19 44  1  0  0  0  0
 20 31  2  0  0  0  0
 21 32  1  0  0  0  0
 22 32  2  0  0  0  0
 23 25  1  0  0  0  0
 23 29  1  0  0  0  0
 24 27  1  0  0  0  0
 24 30  1  0  0  0  0
 25 27  2  0  0  0  0
 29 30  1  0  0  0  0
 31 32  1  0  0  0  0
M  END
> <pdb_id>
6LP6

> <uniprot_id>
Q02127

> <usmiles>
Fc1c(c(F)cc(N2N=NC=3C(=O)c4c(cccc4)C(=O)C23)c1)c5c(F)ccc(c5)CO

$$$$
B72_A_1
          07192421523D 1   1.00000     0.00000     0
            
 54 55  0  0  0  0            999 V2000
   25.4500   35.5030   38.0430 O   0  0  0  0  0  0  0  0  0  0  0  0
   23.7260   36.9660   37.9300 O   0  0  0  0  0  0  0  0  0  0  0  0
   32.6850   38.8050   28.7710 O   0  0  0  0  0  0  0  0  0  0  0  0
   25.3920   37.4440   35.5560 O   0  0  0  0  0  0  0  0  0  0  0  0
   30.1830   41.1610   26.6390 C   0  0  0  0  0  0  0  0  0  0  0  0
   31.0290   42.3220   28.7780 C   0  0  0  0  0  0  0  0  0  0  0  0
   27.3350   40.7470   32.3190 C   0  0  0  0  0  0  0  0  0  0  0  0
   26.4700   35.6840   30.9280 C   0  0  0  0  0  0  0  0  0  0  0  0
   24.9020   36.1460   35.8840 C   0  0  0  0  0  0  0  0  0  0  0  0
   30.8520   37.5930   29.9920 C   0  0  0  0  0  0  0  0  0  0  0  0
   29.4490   37.5360   30.3330 C   0  0  0  0  0  0  0  0  0  0  0  0
   26.3330   39.0540   33.9930 C   0  0  0  0  0  0  0  0  0  0  0  0
   25.8890   36.5610   33.3160 C   0  0  0  0  0  0  0  0  0  0  0  0
   29.0520   39.7790   29.0910 C   0  0  0  0  0  0  0  0  0  0  0  0
   27.0230   38.6030   30.1100 C   0  0  0  0  0  0  0  0  0  0  0  0
   24.6510   36.0900   37.3860 C   0  0  0  0  0  0  0  0  0  0  0  0
   25.6130   37.7470   34.2010 C   0  0  3  0  0  0  0  0  0  0  0  0
   31.3770   38.7720   29.1960 C   0  0  0  0  0  0  0  0  0  0  0  0
   30.9900   41.0390   27.9320 C   0  0  0  0  0  0  0  0  0  0  0  0
   28.5480   38.6500   29.8610 C   0  0  0  0  0  0  0  0  0  0  0  0
   26.5820   39.4410   32.5460 C   0  0  2  0  0  0  0  0  0  0  0  0
   26.1890   36.8660   31.8570 C   0  0  1  0  0  0  0  0  0  0  0  0
   30.4810   39.8400   28.7560 C   0  0  0  0  0  0  0  0  0  0  0  0
   26.8450   38.2500   31.5830 C   0  0  3  0  0  0  0  0  0  0  0  0
   26.0980   34.8806   37.6040 H   0  0  0  0  0  0  0  0  0  0  0  0
   33.0208   39.5875   28.2466 H   0  0  0  0  0  0  0  0  0  0  0  0
   30.2059   40.2900   26.1483 H   0  0  0  0  0  0  0  0  0  0  0  0
   29.2359   41.3954   26.8581 H   0  0  0  0  0  0  0  0  0  0  0  0
   30.5794   41.8775   26.0650 H   0  0  0  0  0  0  0  0  0  0  0  0
   31.5728   42.1617   29.6018 H   0  0  0  0  0  0  0  0  0  0  0  0
   31.4416   43.0605   28.2447 H   0  0  0  0  0  0  0  0  0  0  0  0
   30.0980   42.5784   29.0378 H   0  0  0  0  0  0  0  0  0  0  0  0
   27.4430   40.9032   31.3372 H   0  0  0  0  0  0  0  0  0  0  0  0
   26.8197   41.5033   32.7222 H   0  0  0  0  0  0  0  0  0  0  0  0
   28.2362   40.6912   32.7487 H   0  0  0  0  0  0  0  0  0  0  0  0
   26.6505   36.0217   30.0042 H   0  0  0  0  0  0  0  0  0  0  0  0
   27.2675   35.1808   31.2607 H   0  0  0  0  0  0  0  0  0  0  0  0
   25.6757   35.0767   30.9117 H   0  0  0  0  0  0  0  0  0  0  0  0
   25.5788   35.4554   35.6290 H   0  0  0  0  0  0  0  0  0  0  0  0
   24.0483   35.9735   35.3926 H   0  0  0  0  0  0  0  0  0  0  0  0
   31.4710   36.8617   30.2783 H   0  0  0  0  0  0  0  0  0  0  0  0
   29.0836   36.7754   30.8697 H   0  0  0  0  0  0  0  0  0  0  0  0
   27.2191   38.9940   34.4526 H   0  0  0  0  0  0  0  0  0  0  0  0
   25.7867   39.7772   34.4155 H   0  0  0  0  0  0  0  0  0  0  0  0
   25.0857   35.9661   33.3442 H   0  0  0  0  0  0  0  0  0  0  0  0
   26.6770   36.0752   33.6942 H   0  0  0  0  0  0  0  0  0  0  0  0
   28.4318   40.5049   28.7936 H   0  0  0  0  0  0  0  0  0  0  0  0
   26.5985   37.9058   29.5324 H   0  0  0  0  0  0  0  0  0  0  0  0
   26.6119   39.4934   29.9145 H   0  0  0  0  0  0  0  0  0  0  0  0
   24.6885   37.9911   33.9081 H   0  0  0  0  0  0  0  0  0  0  0  0
   31.9328   40.8336   27.6694 H   0  0  0  0  0  0  0  0  0  0  0  0
   25.6602   39.7072   32.2641 H   0  0  0  0  0  0  0  0  0  0  0  0
   25.2599   37.0776   31.5538 H   0  0  0  0  0  0  0  0  0  0  0  0
   27.7926   38.0409   31.8245 H   0  0  0  0  0  0  0  0  0  0  0  0
  1 16  1  0  0  0  0
  2 16  2  0  0  0  0
  3 18  1  0  0  0  0
  4  9  1  0  0  0  0
  4 17  1  0  0  0  0
  5 19  1  0  0  0  0
  6 19  1  0  0  0  0
  7 21  1  0  0  0  0
  8 22  1  0  0  0  0
  9 16  1  0  0  0  0
 10 11  1  0  0  0  0
 10 18  2  0  0  0  0
 11 20  2  0  0  0  0
 12 17  1  0  0  0  0
 12 21  1  0  0  0  0
 13 17  1  0  0  0  0
 13 22  1  0  0  0  0
 14 20  1  0  0  0  0
 14 23  2  0  0  0  0
 15 20  1  0  0  0  0
 15 24  1  0  0  0  0
 18 23  1  0  0  0  0
 19 23  1  0  0  0  0
 21 24  1  0  0  0  0
 22 24  1  0  0  0  0
  1 25  1  0  0  0  0
  3 26  1  0  0  0  0
  5 27  1  0  0  0  0
  5 28  1  0  0  0  0
  5 29  1  0  0  0  0
  6 30  1  0  0  0  0
  6 31  1  0  0  0  0
  6 32  1  0  0  0  0
  7 33  1  0  0  0  0
  7 34  1  0  0  0  0
  7 35  1  0  0  0  0
  8 36  1  0  0  0  0
  8 37  1  0  0  0  0
  8 38  1  0  0  0  0
  9 39  1  0  0  0  0
  9 40  1  0  0  0  0
 10 41  1  0  0  0  0
 11 42  1  0  0  0  0
 12 43  1  0  0  0  0
 12 44  1  0  0  0  0
 13 45  1  0  0  0  0
 13 46  1  0  0  0  0
 14 47  1  0  0  0  0
 15 48  1  0  0  0  0
 15 49  1  0  0  0  0
 17 50  1  0  0  0  0
 19 51  1  0  0  0  0
 21 52  1  0  0  0  0
 22 53  1  0  0  0  0
 24 54  1  0  0  0  0
M  END
> <pdb_id>
3ILZ

> <uniprot_id>
Q59FW3

> <usmiles>
O=C(O)COC1C[C@H](C([C@H](C1)C)Cc2cc(c(O)cc2)C(C)C)C

$$$$
B7E_A_901
          07202405583D 1   1.00000     0.00000     0
            
 54 58  0  0  0  0            999 V2000
   66.5326   53.8942   12.1357 O   0  0  0  0  0  0  0  0  0  0  0  0
   66.7664   47.3604    8.3025 O   0  0  0  0  0  0  0  0  0  0  0  0
   65.7288   48.3313    6.3849 N   0  0  0  0  0  0  0  0  0  0  0  0
   73.7813   46.4238    5.2576 N   0  0  0  0  0  0  0  0  0  0  0  0
   71.9871   47.0321    3.9292 N   0  0  0  0  0  0  0  0  0  0  0  0
   67.1940   49.4711    7.7855 N   0  0  0  0  0  0  0  0  0  0  0  0
   65.5102   54.8803   11.9112 C   0  0  0  0  0  0  0  0  0  0  0  0
   65.4664   51.2065   12.9119 C   0  0  0  0  0  0  0  0  0  0  0  0
   73.1389   46.3957    4.0957 C   0  0  0  0  0  0  0  0  0  0  0  0
   67.4948   47.8421    9.4622 C   0  0  0  0  0  0  0  0  0  0  0  0
   73.3071   47.1018    6.3020 C   0  0  0  0  0  0  0  0  0  0  0  0
   71.4589   47.7446    4.9181 C   0  0  0  0  0  0  0  0  0  0  0  0
   72.2706   49.1435    8.3240 C   0  0  0  0  0  0  0  0  0  0  0  0
   71.6582   49.7347    9.4263 C   0  0  0  0  0  0  0  0  0  0  0  0
   67.7226   52.9718   10.2449 C   0  0  0  0  0  0  0  0  0  0  0  0
   70.0806   48.5132    7.4695 C   0  0  0  0  0  0  0  0  0  0  0  0
   67.8548   51.7688    9.2881 C   0  0  0  0  0  0  0  0  0  0  0  0
   69.3701   50.2745   10.6563 C   0  0  0  0  0  0  0  0  0  0  0  0
   66.8494   50.2420   11.0672 C   0  0  0  0  0  0  0  0  0  0  0  0
   66.5550   48.3941    7.4724 C   0  0  0  0  0  0  0  0  0  0  0  0
   72.1099   47.8341    6.1634 C   0  0  0  0  0  0  0  0  0  0  0  0
   71.4832   48.5420    7.3196 C   0  0  0  0  0  0  0  0  0  0  0  0
   70.2646   49.7140    9.5582 C   0  0  0  0  0  0  0  0  0  0  0  0
   69.4713   49.0953    8.5837 C   0  0  0  0  0  0  0  0  0  0  0  0
   66.5513   52.7693   11.2298 C   0  0  1  0  0  0  0  0  0  0  0  0
   66.6963   51.4521   12.0192 C   0  0  1  0  0  0  0  0  0  0  0  0
   68.0153   49.2221    8.9789 C   0  0  1  0  0  0  0  0  0  0  0  0
   67.9602   50.3973   10.0032 C   0  0  1  0  0  0  0  0  0  0  0  0
   65.6220   52.7235   10.6518 H   0  0  0  0  0  0  0  0  0  0  0  0
   67.5720   51.5268   12.6636 H   0  0  0  0  0  0  0  0  0  0  0  0
   65.6093   49.1341    5.8008 H   0  0  0  0  0  0  0  0  0  0  0  0
   65.2440   47.4826    6.1736 H   0  0  0  0  0  0  0  0  0  0  0  0
   65.5930   55.6074   12.5928 H   0  0  0  0  0  0  0  0  0  0  0  0
   65.6164   55.2681   10.9956 H   0  0  0  0  0  0  0  0  0  0  0  0
   64.6103   54.4512   11.9892 H   0  0  0  0  0  0  0  0  0  0  0  0
   65.3485   51.9784   13.5366 H   0  0  0  0  0  0  0  0  0  0  0  0
   64.6519   51.1137   12.3392 H   0  0  0  0  0  0  0  0  0  0  0  0
   65.5999   50.3678   13.4399 H   0  0  0  0  0  0  0  0  0  0  0  0
   73.5314   45.8846    3.3310 H   0  0  0  0  0  0  0  0  0  0  0  0
   68.2517   47.2308    9.6937 H   0  0  0  0  0  0  0  0  0  0  0  0
   66.8913   47.9399   10.2536 H   0  0  0  0  0  0  0  0  0  0  0  0
   73.7950   47.0914    7.1749 H   0  0  0  0  0  0  0  0  0  0  0  0
   70.5914   48.2217    4.7768 H   0  0  0  0  0  0  0  0  0  0  0  0
   73.2674   49.1454    8.2444 H   0  0  0  0  0  0  0  0  0  0  0  0
   72.2174   50.1766   10.1278 H   0  0  0  0  0  0  0  0  0  0  0  0
   67.5594   53.7999    9.7086 H   0  0  0  0  0  0  0  0  0  0  0  0
   68.5720   53.0723   10.7632 H   0  0  0  0  0  0  0  0  0  0  0  0
   69.5171   48.0719    6.7712 H   0  0  0  0  0  0  0  0  0  0  0  0
   68.6771   51.8976    8.7339 H   0  0  0  0  0  0  0  0  0  0  0  0
   67.0512   51.7514    8.6932 H   0  0  0  0  0  0  0  0  0  0  0  0
   69.6988   51.1706   10.9545 H   0  0  0  0  0  0  0  0  0  0  0  0
   69.3422   49.6524   11.4388 H   0  0  0  0  0  0  0  0  0  0  0  0
   65.9797   50.1063   10.5927 H   0  0  0  0  0  0  0  0  0  0  0  0
   67.0572   49.4348   11.6197 H   0  0  0  0  0  0  0  0  0  0  0  0
  1  7  1  0  0  0  0
  1 25  1  0  0  0  0
  2 10  1  0  0  0  0
  2 20  1  0  0  0  0
  3 20  1  0  0  0  0
  4  9  2  0  0  0  0
  4 11  1  0  0  0  0
  5  9  1  0  0  0  0
  5 12  2  0  0  0  0
  6 20  2  0  0  0  0
  6 27  1  0  0  0  0
  8 26  1  0  0  0  0
 10 27  1  0  0  0  0
 11 21  2  0  0  0  0
 12 21  1  0  0  0  0
 13 14  2  0  0  0  0
 13 22  1  0  0  0  0
 14 23  1  0  0  0  0
 15 17  1  0  0  0  0
 15 25  1  0  0  0  0
 16 22  2  0  0  0  0
 16 24  1  0  0  0  0
 17 28  1  0  0  0  0
 18 23  1  0  0  0  0
 18 28  1  0  0  0  0
 19 26  1  0  0  0  0
 19 28  1  0  0  0  0
 21 22  1  0  0  0  0
 23 24  2  0  0  0  0
 24 27  1  0  0  0  0
 25 26  1  0  0  0  0
 25 29  1  0  0  0  0
 26 30  1  0  0  0  0
 27 28  1  0  0  0  0
  3 31  1  0  0  0  0
  3 32  1  0  0  0  0
  7 33  1  0  0  0  0
  7 34  1  0  0  0  0
  7 35  1  0  0  0  0
  8 36  1  0  0  0  0
  8 37  1  0  0  0  0
  8 38  1  0  0  0  0
  9 39  1  0  0  0  0
 10 40  1  0  0  0  0
 10 41  1  0  0  0  0
 11 42  1  0  0  0  0
 12 43  1  0  0  0  0
 13 44  1  0  0  0  0
 14 45  1  0  0  0  0
 15 46  1  0  0  0  0
 15 47  1  0  0  0  0
 16 48  1  0  0  0  0
 17 49  1  0  0  0  0
 17 50  1  0  0  0  0
 18 51  1  0  0  0  0
 18 52  1  0  0  0  0
 19 53  1  0  0  0  0
 19 54  1  0  0  0  0
M  END
> <pdb_id>
6EJ2

> <uniprot_id>
P56817

> <usmiles>
O1C(=N[C@]2(c3c(ccc(c4cncnc4)c3)C[C@]25C[C@@H]([C@@H](OC)CC5)C)C1)N

$$$$
B7H_A_1555
          07202405383D 1   1.00000     0.00000     0
            
 34 36  0  0  0  0            999 V2000
   -1.4438    8.2528   32.2409 F   0  0  0  0  0  0  0  0  0  0  0  0
   -0.4607   13.3586   32.5153 O   0  0  0  0  0  0  0  0  0  0  0  0
   -7.4721    8.2620   24.8451 N   0  0  0  0  0  0  0  0  0  0  0  0
   -4.7902    7.2674   26.9048 N   0  0  0  0  0  0  0  0  0  0  0  0
   -3.9274    7.5432   27.9034 N   0  0  0  0  0  0  0  0  0  0  0  0
   -1.0728   11.0876   32.2564 N   0  0  0  0  0  0  0  0  0  0  0  0
   -5.9184   10.6479   27.6508 C   0  0  0  0  0  0  0  0  0  0  0  0
   -3.2254   13.4806   31.2529 C   0  0  0  0  0  0  0  0  0  0  0  0
   -1.2920   13.3561   29.6252 C   0  0  0  0  0  0  0  0  0  0  0  0
   -6.6541    8.2919   25.6610 C   0  0  0  0  0  0  0  0  0  0  0  0
   -2.8613    8.5499   30.3161 C   0  0  0  0  0  0  0  0  0  0  0  0
   -3.2397   10.7546   29.4372 C   0  0  0  0  0  0  0  0  0  0  0  0
   -1.0866   12.4512   31.9640 C   0  0  0  0  0  0  0  0  0  0  0  0
   -2.0559    9.0403   31.3179 C   0  0  0  0  0  0  0  0  0  0  0  0
   -5.6415    8.3096   26.6630 C   0  0  0  0  0  0  0  0  0  0  0  0
   -4.2255    8.7871   28.3016 C   0  0  0  0  0  0  0  0  0  0  0  0
   -1.8482   10.3960   31.3426 C   0  0  0  0  0  0  0  0  0  0  0  0
   -3.4577    9.3880   29.3744 C   0  0  0  0  0  0  0  0  0  0  0  0
   -5.2933    9.3118   27.5319 C   0  0  0  0  0  0  0  0  0  0  0  0
   -2.4231   11.2492   30.4477 C   0  0  0  0  0  0  0  0  0  0  0  0
   -2.0098   12.6741   30.7725 C   0  0  0  0  0  0  0  0  0  0  0  0
   -3.2147    6.9450   28.2698 H   0  0  0  0  0  0  0  0  0  0  0  0
   -0.5747   10.6702   33.0164 H   0  0  0  0  0  0  0  0  0  0  0  0
   -5.4576   11.1687   28.3694 H   0  0  0  0  0  0  0  0  0  0  0  0
   -5.8344   11.1338   26.7808 H   0  0  0  0  0  0  0  0  0  0  0  0
   -6.8856   10.5439   27.8825 H   0  0  0  0  0  0  0  0  0  0  0  0
   -3.6688   12.9975   32.0078 H   0  0  0  0  0  0  0  0  0  0  0  0
   -2.9252   14.3821   31.5647 H   0  0  0  0  0  0  0  0  0  0  0  0
   -3.8736   13.5875   30.4989 H   0  0  0  0  0  0  0  0  0  0  0  0
   -0.5098   12.8002   29.3437 H   0  0  0  0  0  0  0  0  0  0  0  0
   -1.9204   13.4618   28.8545 H   0  0  0  0  0  0  0  0  0  0  0  0
   -0.9720   14.2564   29.9203 H   0  0  0  0  0  0  0  0  0  0  0  0
   -3.0237    7.5647   30.2616 H   0  0  0  0  0  0  0  0  0  0  0  0
   -3.6598   11.3709   28.7711 H   0  0  0  0  0  0  0  0  0  0  0  0
  1 14  1  0  0  0  0
  2 13  2  0  0  0  0
  3 10  3  0  0  0  0
  4  5  1  0  0  0  0
  4 15  2  0  0  0  0
  5 16  1  0  0  0  0
  6 13  1  0  0  0  0
  6 17  1  0  0  0  0
  7 19  1  0  0  0  0
  8 21  1  0  0  0  0
  9 21  1  0  0  0  0
 10 15  1  0  0  0  0
 11 14  1  0  0  0  0
 11 18  2  0  0  0  0
 12 18  1  0  0  0  0
 12 20  2  0  0  0  0
 13 21  1  0  0  0  0
 14 17  2  0  0  0  0
 15 19  1  0  0  0  0
 16 18  1  0  0  0  0
 16 19  2  0  0  0  0
 17 20  1  0  0  0  0
 20 21  1  0  0  0  0
  5 22  1  0  0  0  0
  6 23  1  0  0  0  0
  7 24  1  0  0  0  0
  7 25  1  0  0  0  0
  7 26  1  0  0  0  0
  8 27  1  0  0  0  0
  8 28  1  0  0  0  0
  8 29  1  0  0  0  0
  9 30  1  0  0  0  0
  9 31  1  0  0  0  0
  9 32  1  0  0  0  0
 11 33  1  0  0  0  0
 12 34  1  0  0  0  0
M  END
> <pdb_id>
5ALY

> <uniprot_id>
P34913

> <usmiles>
Fc1c2NC(=O)C(c2cc(c1)C=3NN=C(C#N)C3C)(C)C

$$$$
B7V_B_2001
          07212403553D 1   1.00000     0.00000     0
            
 44 46  0  0  0  0            999 V2000
   46.8522   26.4913  245.9420 Cl  0  0  0  0  0  0  0  0  0  0  0  0
   39.8339   22.9743  248.9170 O   0  0  0  0  0  0  0  0  0  0  0  0
   40.1316   22.2913  240.8601 O   0  0  0  0  0  0  0  0  0  0  0  0
   45.5405   24.7098  244.0913 O   0  0  0  0  0  0  0  0  0  0  0  0
   40.7823   18.1788  244.0226 N   0  0  0  0  0  0  0  0  0  0  0  0
   38.1945   21.5706  248.3087 N   0  0  0  0  0  0  0  0  0  0  0  0
   41.3163   22.5391  244.9563 N   0  0  0  0  0  0  0  0  0  0  0  0
   41.8799   23.4947  247.0889 N   0  0  0  0  0  0  0  0  0  0  0  0
   40.2110   21.8406  244.5609 N   0  0  0  0  0  0  0  0  0  0  0  0
   44.9999   23.9021  243.0305 C   0  0  0  0  0  0  0  0  0  0  0  0
   41.2066   21.4393  240.4573 C   0  0  0  0  0  0  0  0  0  0  0  0
   40.3022   22.6946  242.2356 C   0  0  0  0  0  0  0  0  0  0  0  0
   40.9766   19.1360  243.4404 C   0  0  0  0  0  0  0  0  0  0  0  0
   39.3234   21.6264  245.5444 C   0  0  0  0  0  0  0  0  0  0  0  0
   41.1402   20.1379  241.2197 C   0  0  0  0  0  0  0  0  0  0  0  0
   44.8293   25.6475  247.5285 C   0  0  0  0  0  0  0  0  0  0  0  0
   43.6805   24.9304  247.8008 C   0  0  0  0  0  0  0  0  0  0  0  0
   43.6861   24.0664  245.5464 C   0  0  0  0  0  0  0  0  0  0  0  0
   39.2813   22.2851  248.0483 C   0  0  0  0  0  0  0  0  0  0  0  0
   45.4120   25.5752  246.2706 C   0  0  0  0  0  0  0  0  0  0  0  0
   44.8570   24.7770  245.2750 C   0  0  0  0  0  0  0  0  0  0  0  0
   41.0940   22.7676  246.2393 C   0  0  0  0  0  0  0  0  0  0  0  0
   43.1013   24.1416  246.8093 C   0  0  0  0  0  0  0  0  0  0  0  0
   40.1168   21.4681  243.1301 C   0  0  1  0  0  0  0  0  0  0  0  0
   41.2190   20.3955  242.7335 C   0  0  1  0  0  0  0  0  0  0  0  0
   39.8431   22.2113  246.6723 C   0  0  0  0  0  0  0  0  0  0  0  0
   37.7706   21.0238  247.5867 H   0  0  0  0  0  0  0  0  0  0  0  0
   37.7990   21.5787  249.2272 H   0  0  0  0  0  0  0  0  0  0  0  0
   41.5463   23.5785  248.0279 H   0  0  0  0  0  0  0  0  0  0  0  0
   45.6033   23.9500  242.2345 H   0  0  0  0  0  0  0  0  0  0  0  0
   44.9279   22.9532  243.3376 H   0  0  0  0  0  0  0  0  0  0  0  0
   44.0928   24.2418  242.7821 H   0  0  0  0  0  0  0  0  0  0  0  0
   42.0780   21.8916  240.6476 H   0  0  0  0  0  0  0  0  0  0  0  0
   41.1342   21.2542  239.4773 H   0  0  0  0  0  0  0  0  0  0  0  0
   39.6215   23.3886  242.4701 H   0  0  0  0  0  0  0  0  0  0  0  0
   41.2198   23.0704  242.3651 H   0  0  0  0  0  0  0  0  0  0  0  0
   38.4545   21.1371  245.4703 H   0  0  0  0  0  0  0  0  0  0  0  0
   41.9056   19.5561  240.9447 H   0  0  0  0  0  0  0  0  0  0  0  0
   40.2783   19.6767  241.0088 H   0  0  0  0  0  0  0  0  0  0  0  0
   45.2414   26.2192  248.2379 H   0  0  0  0  0  0  0  0  0  0  0  0
   43.2649   24.9774  248.7092 H   0  0  0  0  0  0  0  0  0  0  0  0
   43.2669   23.5032  244.8344 H   0  0  0  0  0  0  0  0  0  0  0  0
   39.2121   21.0783  242.9581 H   0  0  0  0  0  0  0  0  0  0  0  0
   42.1265   20.7436  242.9684 H   0  0  0  0  0  0  0  0  0  0  0  0
  1 20  1  0  0  0  0
  2 19  2  0  0  0  0
  3 11  1  0  0  0  0
  3 12  1  0  0  0  0
  4 10  1  0  0  0  0
  4 21  1  0  0  0  0
  5 13  3  0  0  0  0
  6 19  1  0  0  0  0
  7  9  1  0  0  0  0
  7 22  2  0  0  0  0
  8 22  1  0  0  0  0
  8 23  1  0  0  0  0
  9 14  1  0  0  0  0
  9 24  1  0  0  0  0
 11 15  1  0  0  0  0
 12 24  1  0  0  0  0
 13 25  1  0  0  0  0
 14 26  2  0  0  0  0
 15 25  1  0  0  0  0
 16 17  1  0  0  0  0
 16 20  2  0  0  0  0
 17 23  2  0  0  0  0
 18 21  2  0  0  0  0
 18 23  1  0  0  0  0
 19 26  1  0  0  0  0
 20 21  1  0  0  0  0
 22 26  1  0  0  0  0
 24 25  1  0  0  0  0
  6 27  1  0  0  0  0
  6 28  1  0  0  0  0
  8 29  1  0  0  0  0
 10 30  1  0  0  0  0
 10 31  1  0  0  0  0
 10 32  1  0  0  0  0
 11 33  1  0  0  0  0
 11 34  1  0  0  0  0
 12 35  1  0  0  0  0
 12 36  1  0  0  0  0
 14 37  1  0  0  0  0
 15 38  1  0  0  0  0
 15 39  1  0  0  0  0
 16 40  1  0  0  0  0
 17 41  1  0  0  0  0
 18 42  1  0  0  0  0
 24 43  1  0  0  0  0
 25 44  1  0  0  0  0
M  END
> <pdb_id>
5WO4

> <uniprot_id>
P23458

> <usmiles>
Clc1c(OC)cc(NC2=NN(C=C2C(=O)N)[C@@H]3[C@@H](C#N)CCOC3)cc1

$$$$
B90_A_1
          07192422043D 1   1.00000     0.00000     0
            
 54 58  0  0  0  0            999 V2000
   38.7440   -6.4260  -32.1840 P   0  0  0  0  0  0  0  0  0  0  0  0
   38.8470   -7.4690  -33.2170 O   0  0  0  0  0  0  0  0  0  0  0  0
   34.2750   -7.8030  -17.4230 N   0  0  0  0  0  0  0  0  0  0  0  0
   34.4640   -8.7540  -16.5000 N   0  0  0  0  0  0  0  0  0  0  0  0
   37.2640   -7.7440  -25.4940 N   0  0  0  0  0  0  0  0  0  0  0  0
   36.7000   -8.2890  -23.2350 N   0  0  0  0  0  0  0  0  0  0  0  0
   34.3870  -10.1680  -25.2330 N   0  0  0  0  0  0  0  0  0  0  0  0
   36.0390   -8.7250  -27.2980 N   0  0  0  0  0  0  0  0  0  0  0  0
   34.7920   -9.9020  -23.0510 N   0  0  0  0  0  0  0  0  0  0  0  0
   40.4190   -5.7360  -31.7720 C   0  0  0  0  0  0  0  0  0  0  0  0
   37.8000   -4.9630  -32.8030 C   0  0  0  0  0  0  0  0  0  0  0  0
   36.4690  -12.9690  -19.7130 C   0  0  0  0  0  0  0  0  0  0  0  0
   37.4390   -7.6350  -24.1440 C   0  0  0  0  0  0  0  0  0  0  0  0
   34.0260  -10.5100  -23.9910 C   0  0  0  0  0  0  0  0  0  0  0  0
   34.6230   -8.2210  -18.6310 C   0  0  0  0  0  0  0  0  0  0  0  0
   34.6530  -10.0660  -21.5910 C   0  0  0  0  0  0  0  0  0  0  0  0
   36.8140   -7.8760  -30.8100 C   0  0  0  0  0  0  0  0  0  0  0  0
   38.5470   -6.8800  -29.3980 C   0  0  0  0  0  0  0  0  0  0  0  0
   36.1840   -8.4100  -29.6670 C   0  0  0  0  0  0  0  0  0  0  0  0
   37.9220   -7.4110  -28.2470 C   0  0  0  0  0  0  0  0  0  0  0  0
   35.3190  -11.1430  -16.5450 C   0  0  0  0  0  0  0  0  0  0  0  0
   35.8120  -12.1370  -17.4220 C   0  0  0  0  0  0  0  0  0  0  0  0
   35.7100  -10.2770  -20.7860 C   0  0  0  0  0  0  0  0  0  0  0  0
   37.9860   -7.1120  -30.6780 C   0  0  0  0  0  0  0  0  0  0  0  0
   36.2650   -8.5690  -25.9620 C   0  0  0  0  0  0  0  0  0  0  0  0
   35.7130   -9.1000  -23.7070 C   0  0  0  0  0  0  0  0  0  0  0  0
   36.7240   -8.1820  -28.3700 C   0  0  0  0  0  0  0  0  0  0  0  0
   34.9610   -9.9030  -17.0400 C   0  0  0  0  0  0  0  0  0  0  0  0
   35.4560   -9.2820  -25.0910 C   0  0  0  0  0  0  0  0  0  0  0  0
   35.9430  -11.8760  -18.8160 C   0  0  0  0  0  0  0  0  0  0  0  0
   35.0800   -9.5950  -18.4450 C   0  0  0  0  0  0  0  0  0  0  0  0
   35.5730  -10.5790  -19.3290 C   0  0  0  0  0  0  0  0  0  0  0  0
   34.2639   -8.6354  -15.5274 H   0  0  0  0  0  0  0  0  0  0  0  0
   35.2684   -9.3161  -27.5364 H   0  0  0  0  0  0  0  0  0  0  0  0
   40.3253   -5.0305  -31.0695 H   0  0  0  0  0  0  0  0  0  0  0  0
   41.0071   -6.4695  -31.4314 H   0  0  0  0  0  0  0  0  0  0  0  0
   40.8262   -5.3366  -32.5934 H   0  0  0  0  0  0  0  0  0  0  0  0
   37.7458   -4.2720  -32.0822 H   0  0  0  0  0  0  0  0  0  0  0  0
   38.2663   -4.5781  -33.5995 H   0  0  0  0  0  0  0  0  0  0  0  0
   36.8770   -5.2473  -33.0623 H   0  0  0  0  0  0  0  0  0  0  0  0
   36.5037  -12.6384  -20.6561 H   0  0  0  0  0  0  0  0  0  0  0  0
   37.3880  -13.2296  -19.4171 H   0  0  0  0  0  0  0  0  0  0  0  0
   35.8640  -13.7635  -19.6603 H   0  0  0  0  0  0  0  0  0  0  0  0
   38.1630   -7.0301  -23.8123 H   0  0  0  0  0  0  0  0  0  0  0  0
   33.2788  -11.1402  -23.7802 H   0  0  0  0  0  0  0  0  0  0  0  0
   34.5815   -7.7057  -19.4870 H   0  0  0  0  0  0  0  0  0  0  0  0
   33.7402  -10.0186  -21.1854 H   0  0  0  0  0  0  0  0  0  0  0  0
   36.4258   -8.0414  -31.7166 H   0  0  0  0  0  0  0  0  0  0  0  0
   39.3846   -6.3410  -29.3090 H   0  0  0  0  0  0  0  0  0  0  0  0
   35.3508   -8.9535  -29.7686 H   0  0  0  0  0  0  0  0  0  0  0  0
   38.3188   -7.2470  -27.3438 H   0  0  0  0  0  0  0  0  0  0  0  0
   35.2295  -11.3370  -15.5681 H   0  0  0  0  0  0  0  0  0  0  0  0
   36.0713  -13.0323  -17.0596 H   0  0  0  0  0  0  0  0  0  0  0  0
   36.6279  -10.2296  -21.1801 H   0  0  0  0  0  0  0  0  0  0  0  0
  1  2  2  0  0  0  0
  1 10  1  0  0  0  0
  1 11  1  0  0  0  0
  1 24  1  0  0  0  0
  3  4  1  0  0  0  0
  3 15  2  0  0  0  0
  4 28  1  0  0  0  0
  5 13  2  0  0  0  0
  5 25  1  0  0  0  0
  6 13  1  0  0  0  0
  6 26  2  0  0  0  0
  7 14  2  0  0  0  0
  7 29  1  0  0  0  0
  8 25  1  0  0  0  0
  8 27  1  0  0  0  0
  9 14  1  0  0  0  0
  9 16  1  0  0  0  0
  9 26  1  0  0  0  0
 12 30  1  0  0  0  0
 15 31  1  0  0  0  0
 16 23  2  0  0  0  0
 17 19  1  0  0  0  0
 17 24  2  0  0  0  0
 18 20  2  0  0  0  0
 18 24  1  0  0  0  0
 19 27  2  0  0  0  0
 20 27  1  0  0  0  0
 21 22  1  0  0  0  0
 21 28  2  0  0  0  0
 22 30  2  0  0  0  0
 23 32  1  0  0  0  0
 25 29  2  0  0  0  0
 26 29  1  0  0  0  0
 28 31  1  0  0  0  0
 30 32  1  0  0  0  0
 31 32  2  0  0  0  0
  4 33  1  0  0  0  0
  8 34  1  0  0  0  0
 10 35  1  0  0  0  0
 10 36  1  0  0  0  0
 10 37  1  0  0  0  0
 11 38  1  0  0  0  0
 11 39  1  0  0  0  0
 11 40  1  0  0  0  0
 12 41  1  0  0  0  0
 12 42  1  0  0  0  0
 12 43  1  0  0  0  0
 13 44  1  0  0  0  0
 14 45  1  0  0  0  0
 15 46  1  0  0  0  0
 16 47  1  0  0  0  0
 17 48  1  0  0  0  0
 18 49  1  0  0  0  0
 19 50  1  0  0  0  0
 20 51  1  0  0  0  0
 21 52  1  0  0  0  0
 22 53  1  0  0  0  0
 23 54  1  0  0  0  0
M  END
> <pdb_id>
3KF4

> <uniprot_id>
P00520

> <usmiles>
P(=O)(c1ccc(Nc2ncnc3N(/C=C/c4c5c(NN=C5)ccc4C)C=Nc32)cc1)(C)C

$$$$
B9C_A_801
          07202411103D 1   1.00000     0.00000     0
            
 61 65  0  0  0  0            999 V2000
  -16.9030  -12.9540  -21.0500 S   0  0  0  0  0  0  0  0  0  0  0  0
  -15.8900  -12.7360  -22.1410 O   0  0  0  0  0  0  0  0  0  0  0  0
  -18.2750  -12.4700  -21.5210 O   0  0  0  0  0  0  0  0  0  0  0  0
  -16.8940  -14.5600  -20.5990 N   0  0  0  0  0  0  0  0  0  0  0  0
  -15.4530  -21.3200  -20.9980 N   0  0  0  0  0  0  0  0  0  0  0  0
  -15.8950  -21.0250  -22.2170 N   0  0  0  0  0  0  0  0  0  0  0  0
  -19.3050  -15.9460  -29.0550 N   0  0  0  0  0  0  0  0  0  0  0  0
  -17.3200  -19.2020  -25.7510 N   0  0  0  0  0  0  0  0  0  0  0  0
  -15.3970  -16.3970  -18.9070 N   0  0  0  0  0  0  0  0  0  0  0  0
  -18.1160  -17.2000  -26.8310 N   0  0  0  0  0  0  0  0  0  0  0  0
  -16.4950  -12.0370  -19.5960 C   0  0  0  0  0  0  0  0  0  0  0  0
  -19.1750  -17.3920  -29.0290 C   0  0  0  0  0  0  0  0  0  0  0  0
  -17.9840  -15.4460  -28.5470 C   0  0  0  0  0  0  0  0  0  0  0  0
  -16.8420  -19.8320  -24.5910 C   0  0  0  0  0  0  0  0  0  0  0  0
  -16.4890  -15.9130  -18.0630 C   0  0  0  0  0  0  0  0  0  0  0  0
  -19.2220  -17.7660  -27.6320 C   0  0  0  0  0  0  0  0  0  0  0  0
  -17.8610  -15.7640  -27.0850 C   0  0  0  0  0  0  0  0  0  0  0  0
  -20.2870  -15.6140  -19.7890 C   0  0  0  0  0  0  0  0  0  0  0  0
  -20.1140  -16.2790  -18.6040 C   0  0  0  0  0  0  0  0  0  0  0  0
  -17.3250  -17.1660  -24.5980 C   0  0  0  0  0  0  0  0  0  0  0  0
  -14.9770  -18.7010  -18.4900 C   0  0  0  0  0  0  0  0  0  0  0  0
  -19.2180  -15.0210  -20.4430 C   0  0  0  0  0  0  0  0  0  0  0  0
  -15.0020  -19.9960  -19.0130 C   0  0  0  0  0  0  0  0  0  0  0  0
  -18.8220  -16.3440  -18.0890 C   0  0  0  0  0  0  0  0  0  0  0  0
  -16.8100  -17.7660  -23.4620 C   0  0  0  0  0  0  0  0  0  0  0  0
  -15.7560  -17.9470  -20.6290 C   0  0  0  0  0  0  0  0  0  0  0  0
  -17.5740  -17.8770  -25.7710 C   0  0  0  0  0  0  0  0  0  0  0  0
  -15.3640  -17.6590  -19.3270 C   0  0  0  0  0  0  0  0  0  0  0  0
  -17.9380  -15.0910  -19.9300 C   0  0  0  0  0  0  0  0  0  0  0  0
  -15.3780  -20.1960  -20.2910 C   0  0  0  0  0  0  0  0  0  0  0  0
  -16.0680  -19.7170  -22.2980 C   0  0  0  0  0  0  0  0  0  0  0  0
  -17.7190  -15.7830  -18.7300 C   0  0  0  0  0  0  0  0  0  0  0  0
  -16.5350  -19.1090  -23.4300 C   0  0  0  0  0  0  0  0  0  0  0  0
  -15.7710  -19.1950  -21.0880 C   0  0  0  0  0  0  0  0  0  0  0  0
  -16.1076  -15.1342  -20.8266 H   0  0  0  0  0  0  0  0  0  0  0  0
  -15.2166  -22.2339  -20.6681 H   0  0  0  0  0  0  0  0  0  0  0  0
  -20.0501  -15.6465  -28.4591 H   0  0  0  0  0  0  0  0  0  0  0  0
  -14.6644  -15.7702  -19.1723 H   0  0  0  0  0  0  0  0  0  0  0  0
  -17.1857  -12.2033  -18.8923 H   0  0  0  0  0  0  0  0  0  0  0  0
  -15.5993  -12.3274  -19.2591 H   0  0  0  0  0  0  0  0  0  0  0  0
  -16.4690  -11.0613  -19.8136 H   0  0  0  0  0  0  0  0  0  0  0  0
  -18.3048  -17.6709  -29.4352 H   0  0  0  0  0  0  0  0  0  0  0  0
  -19.9284  -17.8186  -29.5294 H   0  0  0  0  0  0  0  0  0  0  0  0
  -17.9283  -14.4564  -28.6793 H   0  0  0  0  0  0  0  0  0  0  0  0
  -17.2429  -15.8916  -29.0491 H   0  0  0  0  0  0  0  0  0  0  0  0
  -16.7171  -20.8242  -24.5930 H   0  0  0  0  0  0  0  0  0  0  0  0
  -16.2322  -15.0167  -17.7014 H   0  0  0  0  0  0  0  0  0  0  0  0
  -16.6090  -16.5558  -17.3064 H   0  0  0  0  0  0  0  0  0  0  0  0
  -20.0875  -17.4448  -27.2476 H   0  0  0  0  0  0  0  0  0  0  0  0
  -19.1793  -18.7632  -27.5700 H   0  0  0  0  0  0  0  0  0  0  0  0
  -16.9370  -15.5366  -26.7775 H   0  0  0  0  0  0  0  0  0  0  0  0
  -18.5259  -15.2186  -26.5747 H   0  0  0  0  0  0  0  0  0  0  0  0
  -21.2013  -15.5552  -20.1898 H   0  0  0  0  0  0  0  0  0  0  0  0
  -20.8852  -16.7012  -18.1276 H   0  0  0  0  0  0  0  0  0  0  0  0
  -17.5258  -16.1866  -24.5765 H   0  0  0  0  0  0  0  0  0  0  0  0
  -14.6911  -18.5289  -17.5473 H   0  0  0  0  0  0  0  0  0  0  0  0
  -19.3768  -14.5338  -21.3017 H   0  0  0  0  0  0  0  0  0  0  0  0
  -14.7413  -20.7730  -18.4399 H   0  0  0  0  0  0  0  0  0  0  0  0
  -18.6789  -16.8152  -17.2186 H   0  0  0  0  0  0  0  0  0  0  0  0
  -16.6352  -17.2098  -22.6495 H   0  0  0  0  0  0  0  0  0  0  0  0
  -16.0326  -17.1999  -21.2334 H   0  0  0  0  0  0  0  0  0  0  0  0
  1  2  2  0  0  0  0
  1  3  2  0  0  0  0
  1  4  1  0  0  0  0
  1 11  1  0  0  0  0
  4 29  1  0  0  0  0
  5  6  1  0  0  0  0
  5 30  1  0  0  0  0
  6 31  2  0  0  0  0
  7 12  1  0  0  0  0
  7 13  1  0  0  0  0
  8 14  1  0  0  0  0
  8 27  2  0  0  0  0
  9 15  1  0  0  0  0
  9 28  1  0  0  0  0
 10 16  1  0  0  0  0
 10 17  1  0  0  0  0
 10 27  1  0  0  0  0
 12 16  1  0  0  0  0
 13 17  1  0  0  0  0
 14 33  2  0  0  0  0
 15 32  1  0  0  0  0
 18 19  2  0  0  0  0
 18 22  1  0  0  0  0
 19 24  1  0  0  0  0
 20 25  2  0  0  0  0
 20 27  1  0  0  0  0
 21 23  1  0  0  0  0
 21 28  2  0  0  0  0
 22 29  2  0  0  0  0
 23 30  2  0  0  0  0
 24 32  2  0  0  0  0
 25 33  1  0  0  0  0
 26 28  1  0  0  0  0
 26 34  2  0  0  0  0
 29 32  1  0  0  0  0
 30 34  1  0  0  0  0
 31 33  1  0  0  0  0
 31 34  1  0  0  0  0
  4 35  1  0  0  0  0
  5 36  1  0  0  0  0
  7 37  1  0  0  0  0
  9 38  1  0  0  0  0
 11 39  1  0  0  0  0
 11 40  1  0  0  0  0
 11 41  1  0  0  0  0
 12 42  1  0  0  0  0
 12 43  1  0  0  0  0
 13 44  1  0  0  0  0
 13 45  1  0  0  0  0
 14 46  1  0  0  0  0
 15 47  1  0  0  0  0
 15 48  1  0  0  0  0
 16 49  1  0  0  0  0
 16 50  1  0  0  0  0
 17 51  1  0  0  0  0
 17 52  1  0  0  0  0
 18 53  1  0  0  0  0
 19 54  1  0  0  0  0
 20 55  1  0  0  0  0
 21 56  1  0  0  0  0
 22 57  1  0  0  0  0
 23 58  1  0  0  0  0
 24 59  1  0  0  0  0
 25 60  1  0  0  0  0
 26 61  1  0  0  0  0
M  END
> <pdb_id>
6J5L

> <uniprot_id>
P04629

> <usmiles>
S(=O)(=O)(Nc1c(cccc1)CNc2cc3c(NN=C3c4cnc(N5CCNCC5)cc4)cc2)C

$$$$
B9T_A_802
          07202405093D 1   1.00000     0.00000     0
            
 48 50  0  0  0  0            999 V2000
   35.7308   17.6794    9.5918 Br  0  0  0  0  0  0  0  0  0  0  0  0
   32.5043   22.3538   16.4291 F   0  0  0  0  0  0  0  0  0  0  0  0
   32.7134   20.4828   17.5534 F   0  0  0  0  0  0  0  0  0  0  0  0
   33.8824   19.2495   15.3796 O   0  0  0  0  0  0  0  0  0  0  0  0
   34.3459   19.9144   10.9914 O   0  0  0  0  0  0  0  0  0  0  0  0
   36.9654   21.9888    5.1718 N   0  0  0  0  0  0  0  0  0  0  0  0
   36.4613   22.9354   13.9544 N   0  0  0  0  0  0  0  0  0  0  0  0
   37.4113   20.7835   13.5886 N   0  0  0  0  0  0  0  0  0  0  0  0
   32.7874   20.8699   14.1592 N   0  0  0  0  0  0  0  0  0  0  0  0
   31.6470   19.9704   12.2127 C   0  0  0  0  0  0  0  0  0  0  0  0
   34.6360   21.6563   16.9497 C   0  0  0  0  0  0  0  0  0  0  0  0
   36.5148   21.5976    6.1647 C   0  0  0  0  0  0  0  0  0  0  0  0
   35.3663   22.5544   13.2772 C   0  0  0  0  0  0  0  0  0  0  0  0
   36.2972   20.4445   12.9276 C   0  0  0  0  0  0  0  0  0  0  0  0
   34.7454   21.7070    9.3769 C   0  0  0  0  0  0  0  0  0  0  0  0
   35.2920   22.0902    8.1677 C   0  0  0  0  0  0  0  0  0  0  0  0
   40.0462   22.0262   14.4234 C   0  0  0  0  0  0  0  0  0  0  0  0
   39.4446   21.4670   15.6810 C   0  0  0  0  0  0  0  0  0  0  0  0
   36.0904   19.8546    7.7989 C   0  0  0  0  0  0  0  0  0  0  0  0
   35.5425   19.4825    9.0095 C   0  0  0  0  0  0  0  0  0  0  0  0
   33.3448   20.3482   15.3125 C   0  0  0  0  0  0  0  0  0  0  0  0
   34.8790   20.4018    9.8027 C   0  0  0  0  0  0  0  0  0  0  0  0
   33.9844   20.8873   11.9763 C   0  0  1  0  0  0  0  0  0  0  0  0
   37.4575   22.0333   14.0903 C   0  0  0  0  0  0  0  0  0  0  0  0
   32.9816   20.1907   12.8910 C   0  0  1  0  0  0  0  0  0  0  0  0
   35.9545   21.1647    7.3898 C   0  0  0  0  0  0  0  0  0  0  0  0
   35.2211   21.2981   12.7358 C   0  0  0  0  0  0  0  0  0  0  0  0
   38.6667   22.4508   14.8464 C   0  0  0  0  0  0  0  0  0  0  0  0
   33.2515   21.2207   16.5402 C   0  0  0  0  0  0  0  0  0  0  0  0
   32.2516   21.7133   14.1988 H   0  0  0  0  0  0  0  0  0  0  0  0
   31.7896   19.5024   11.3405 H   0  0  0  0  0  0  0  0  0  0  0  0
   31.0630   19.4101   12.8000 H   0  0  0  0  0  0  0  0  0  0  0  0
   31.2064   20.8531   12.0492 H   0  0  0  0  0  0  0  0  0  0  0  0
   35.2239   20.8529   17.0442 H   0  0  0  0  0  0  0  0  0  0  0  0
   35.0137   22.2655   16.2523 H   0  0  0  0  0  0  0  0  0  0  0  0
   34.5885   22.1393   17.8240 H   0  0  0  0  0  0  0  0  0  0  0  0
   34.6231   23.2133   13.1612 H   0  0  0  0  0  0  0  0  0  0  0  0
   36.2375   19.5206   12.5498 H   0  0  0  0  0  0  0  0  0  0  0  0
   34.2556   22.3721    9.9406 H   0  0  0  0  0  0  0  0  0  0  0  0
   35.2073   23.0370    7.8571 H   0  0  0  0  0  0  0  0  0  0  0  0
   40.1648   21.4393   13.6224 H   0  0  0  0  0  0  0  0  0  0  0  0
   40.8069   22.6730   14.4781 H   0  0  0  0  0  0  0  0  0  0  0  0
   39.8043   21.7422   16.5726 H   0  0  0  0  0  0  0  0  0  0  0  0
   39.1622   20.5084   15.7169 H   0  0  0  0  0  0  0  0  0  0  0  0
   36.5751   19.1894    7.2310 H   0  0  0  0  0  0  0  0  0  0  0  0
   33.5634   21.6830   11.5409 H   0  0  0  0  0  0  0  0  0  0  0  0
   33.3557   19.2869   13.0988 H   0  0  0  0  0  0  0  0  0  0  0  0
   38.6168   23.3723   15.2314 H   0  0  0  0  0  0  0  0  0  0  0  0
  1 20  1  0  0  0  0
  2 29  1  0  0  0  0
  3 29  1  0  0  0  0
  4 21  2  0  0  0  0
  5 22  1  0  0  0  0
  5 23  1  0  0  0  0
  6 12  3  0  0  0  0
  7 13  2  0  0  0  0
  7 24  1  0  0  0  0
  8 14  1  0  0  0  0
  8 24  2  0  0  0  0
  9 21  1  0  0  0  0
  9 25  1  0  0  0  0
 10 25  1  0  0  0  0
 11 29  1  0  0  0  0
 12 26  1  0  0  0  0
 13 27  1  0  0  0  0
 14 27  2  0  0  0  0
 15 16  1  0  0  0  0
 15 22  2  0  0  0  0
 16 26  2  0  0  0  0
 17 18  1  0  0  0  0
 17 28  1  0  0  0  0
 18 28  1  0  0  0  0
 19 20  2  0  0  0  0
 19 26  1  0  0  0  0
 20 22  1  0  0  0  0
 21 29  1  0  0  0  0
 23 25  1  0  0  0  0
 23 27  1  0  0  0  0
 24 28  1  0  0  0  0
  9 30  1  0  0  0  0
 10 31  1  0  0  0  0
 10 32  1  0  0  0  0
 10 33  1  0  0  0  0
 11 34  1  0  0  0  0
 11 35  1  0  0  0  0
 11 36  1  0  0  0  0
 13 37  1  0  0  0  0
 14 38  1  0  0  0  0
 15 39  1  0  0  0  0
 16 40  1  0  0  0  0
 17 41  1  0  0  0  0
 17 42  1  0  0  0  0
 18 43  1  0  0  0  0
 18 44  1  0  0  0  0
 19 45  1  0  0  0  0
 23 46  1  0  0  0  0
 25 47  1  0  0  0  0
 28 48  1  0  0  0  0
M  END
> <pdb_id>
6EL7

> <uniprot_id>
P04150

> <usmiles>
Brc1c(O[C@H](c2cnc(nc2)C3CC3)[C@@H](NC(=O)C(F)(F)C)C)ccc(C#N)c1

$$$$
BA8_A_301
          07192420423D 1   1.00000     0.00000     0
            
 46 49  0  0  0  0            999 V2000
   70.4516   36.5957   22.8007 Cl  0  0  0  0  0  0  0  0  0  0  0  0
   67.3697   32.2622   27.4956 O   0  0  0  0  0  0  0  0  0  0  0  0
   64.6050   34.4206   24.3035 O   0  0  0  0  0  0  0  0  0  0  0  0
   67.2828   37.2764   21.5845 N   0  0  0  0  0  0  0  0  0  0  0  0
   73.0191   32.6297   25.6426 N   0  0  0  0  0  0  0  0  0  0  0  0
   67.4932   36.7278   22.8612 N   0  0  0  0  0  0  0  0  0  0  0  0
   66.5952   36.4273   20.8664 C   0  0  0  0  0  0  0  0  0  0  0  0
   74.2457   32.1183   25.7826 C   0  0  0  0  0  0  0  0  0  0  0  0
   74.5042   30.7952   25.4128 C   0  0  0  0  0  0  0  0  0  0  0  0
   69.4287   38.3987   26.2297 C   0  0  0  0  0  0  0  0  0  0  0  0
   73.4625   30.0112   24.9042 C   0  0  0  0  0  0  0  0  0  0  0  0
   68.0320   38.4166   26.1240 C   0  0  0  0  0  0  0  0  0  0  0  0
   70.1924   37.8524   25.2017 C   0  0  0  0  0  0  0  0  0  0  0  0
   66.3626   35.2728   21.6215 C   0  0  0  0  0  0  0  0  0  0  0  0
   72.1940   30.5979   24.7487 C   0  0  0  0  0  0  0  0  0  0  0  0
   67.3828   37.8527   25.0326 C   0  0  0  0  0  0  0  0  0  0  0  0
   70.6619   32.5692   24.8795 C   0  0  0  0  0  0  0  0  0  0  0  0
   69.8022   32.9334   26.0958 C   0  0  0  0  0  0  0  0  0  0  0  0
   65.9885   33.3196   25.8704 C   0  0  0  0  0  0  0  0  0  0  0  0
   68.2657   34.1588   24.5036 C   0  0  0  0  0  0  0  0  0  0  0  0
   69.5382   37.3086   24.0856 C   0  0  0  0  0  0  0  0  0  0  0  0
   67.2605   32.9619   26.3353 C   0  0  0  0  0  0  0  0  0  0  0  0
   65.8520   34.1267   24.7374 C   0  0  0  0  0  0  0  0  0  0  0  0
   72.0006   31.9189   25.1578 C   0  0  0  0  0  0  0  0  0  0  0  0
   68.1440   37.3386   23.9699 C   0  0  0  0  0  0  0  0  0  0  0  0
   66.9483   35.4636   22.8533 C   0  0  0  0  0  0  0  0  0  0  0  0
   68.4119   33.3788   25.6445 C   0  0  0  0  0  0  0  0  0  0  0  0
   66.9968   34.5486   24.0278 C   0  0  0  0  0  0  0  0  0  0  0  0
   68.2718   32.0005   27.8387 H   0  0  0  0  0  0  0  0  0  0  0  0
   64.4794   34.9959   23.4953 H   0  0  0  0  0  0  0  0  0  0  0  0
   66.2853   36.5788   19.9278 H   0  0  0  0  0  0  0  0  0  0  0  0
   74.9818   32.6845   26.1534 H   0  0  0  0  0  0  0  0  0  0  0  0
   75.4231   30.4132   25.5107 H   0  0  0  0  0  0  0  0  0  0  0  0
   69.8756   38.7768   27.0405 H   0  0  0  0  0  0  0  0  0  0  0  0
   73.6168   29.0547   24.6567 H   0  0  0  0  0  0  0  0  0  0  0  0
   67.4913   38.8438   26.8487 H   0  0  0  0  0  0  0  0  0  0  0  0
   71.1908   37.8476   25.2578 H   0  0  0  0  0  0  0  0  0  0  0  0
   65.8634   34.4596   21.3222 H   0  0  0  0  0  0  0  0  0  0  0  0
   71.4400   30.0757   24.3503 H   0  0  0  0  0  0  0  0  0  0  0  0
   66.3840   37.8132   25.0040 H   0  0  0  0  0  0  0  0  0  0  0  0
   70.8352   33.4113   24.3689 H   0  0  0  0  0  0  0  0  0  0  0  0
   70.1317   31.9387   24.3126 H   0  0  0  0  0  0  0  0  0  0  0  0
   70.2406   33.6781   26.5991 H   0  0  0  0  0  0  0  0  0  0  0  0
   69.7162   32.1343   26.6908 H   0  0  0  0  0  0  0  0  0  0  0  0
   65.1739   32.9958   26.3516 H   0  0  0  0  0  0  0  0  0  0  0  0
   69.0825   34.4515   24.0065 H   0  0  0  0  0  0  0  0  0  0  0  0
  1 21  1  0  0  0  0
  2 22  1  0  0  0  0
  3 23  1  0  0  0  0
  4  6  1  0  0  0  0
  4  7  2  0  0  0  0
  5  8  2  0  0  0  0
  5 24  1  0  0  0  0
  6 25  1  0  0  0  0
  6 26  1  0  0  0  0
  7 14  1  0  0  0  0
  8  9  1  0  0  0  0
  9 11  2  0  0  0  0
 10 12  2  0  0  0  0
 10 13  1  0  0  0  0
 11 15  1  0  0  0  0
 12 16  1  0  0  0  0
 13 21  2  0  0  0  0
 14 26  2  0  0  0  0
 15 24  2  0  0  0  0
 16 25  2  0  0  0  0
 17 18  1  0  0  0  0
 17 24  1  0  0  0  0
 18 27  1  0  0  0  0
 19 22  2  0  0  0  0
 19 23  1  0  0  0  0
 20 27  2  0  0  0  0
 20 28  1  0  0  0  0
 21 25  1  0  0  0  0
 22 27  1  0  0  0  0
 23 28  2  0  0  0  0
 26 28  1  0  0  0  0
  2 29  1  0  0  0  0
  3 30  1  0  0  0  0
  7 31  1  0  0  0  0
  8 32  1  0  0  0  0
  9 33  1  0  0  0  0
 10 34  1  0  0  0  0
 11 35  1  0  0  0  0
 12 36  1  0  0  0  0
 13 37  1  0  0  0  0
 14 38  1  0  0  0  0
 15 39  1  0  0  0  0
 16 40  1  0  0  0  0
 17 41  1  0  0  0  0
 17 42  1  0  0  0  0
 18 43  1  0  0  0  0
 18 44  1  0  0  0  0
 19 45  1  0  0  0  0
 20 46  1  0  0  0  0
M  END
> <pdb_id>
6ELP

> <uniprot_id>
P07900

> <usmiles>
Clc1c(N2N=CC=C2c3c(O)cc(O)c(c3)CCc4ncccc4)cccc1

$$$$
BAI_H_410
          07202416143D 1   1.00000     0.00000     0
            
 37 40  0  0  0  0            999 V2000
   18.2206  -12.3575   11.3840 N   0  0  0  0  0  0  0  0  0  0  0  0
   17.7884  -10.1426   10.9988 N   0  3  0  0  0  0  0  0  0  0  0  0
   11.7429  -12.1290   17.9576 N   0  0  0  0  0  0  0  0  0  0  0  0
   13.6842  -11.6144   15.3805 N   0  0  0  0  0  0  0  0  0  0  0  0
   12.5247  -13.9251   18.8075 N   0  0  0  0  0  0  0  0  0  0  0  0
   14.3500  -13.4167   14.4867 N   0  0  0  0  0  0  0  0  0  0  0  0
   11.3591  -11.0068   21.3577 C   0  0  0  0  0  0  0  0  0  0  0  0
   11.8711  -12.1838   21.9569 C   0  0  0  0  0  0  0  0  0  0  0  0
   11.2715  -10.8962   19.9659 C   0  0  0  0  0  0  0  0  0  0  0  0
   12.3064  -13.2752   21.1660 C   0  0  0  0  0  0  0  0  0  0  0  0
   15.1378  -10.0696   14.2061 C   0  0  0  0  0  0  0  0  0  0  0  0
   16.1410  -10.0751   13.2342 C   0  0  0  0  0  0  0  0  0  0  0  0
   16.0248  -12.4930   13.0171 C   0  0  0  0  0  0  0  0  0  0  0  0
   12.4369  -13.7398   16.2053 C   0  0  0  0  0  0  0  0  0  0  0  0
   17.5618  -11.2607   11.6496 C   0  0  0  0  0  0  0  0  0  0  0  0
   12.2365  -13.2923   17.6879 C   0  0  0  0  0  0  0  0  0  0  0  0
   13.5101  -12.9107   15.3556 C   0  0  0  0  0  0  0  0  0  0  0  0
   11.7110  -11.9883   19.2439 C   0  0  0  0  0  0  0  0  0  0  0  0
   14.6248  -11.3009   14.5356 C   0  0  0  0  0  0  0  0  0  0  0  0
   12.2040  -13.1178   19.7936 C   0  0  0  0  0  0  0  0  0  0  0  0
   15.0456  -12.4433   13.9693 C   0  0  0  0  0  0  0  0  0  0  0  0
   16.5985  -11.2703   12.6233 C   0  0  0  0  0  0  0  0  0  0  0  0
   18.0343  -13.2045   11.8951 H   0  0  0  0  0  0  0  0  0  0  0  0
   18.8241  -12.4334   10.5946 H   0  0  0  0  0  0  0  0  0  0  0  0
   17.2215   -9.3325   11.1956 H   0  0  0  0  0  0  0  0  0  0  0  0
   18.4436  -10.0681   10.2526 H   0  0  0  0  0  0  0  0  0  0  0  0
   12.8901  -14.8291   18.8995 H   0  0  0  0  0  0  0  0  0  0  0  0
   14.4384  -14.3659   14.2530 H   0  0  0  0  0  0  0  0  0  0  0  0
   11.0304  -10.1832   21.9730 H   0  0  0  0  0  0  0  0  0  0  0  0
   11.9260  -12.2455   23.0332 H   0  0  0  0  0  0  0  0  0  0  0  0
   10.8859  -10.0068   19.4888 H   0  0  0  0  0  0  0  0  0  0  0  0
   12.6978  -14.1784   21.6079 H   0  0  0  0  0  0  0  0  0  0  0  0
   14.7899   -9.1585   14.6681 H   0  0  0  0  0  0  0  0  0  0  0  0
   16.5761   -9.1329   12.9423 H   0  0  0  0  0  0  0  0  0  0  0  0
   16.3396  -13.4352   12.5908 H   0  0  0  0  0  0  0  0  0  0  0  0
   12.7125  -14.7857   16.1962 H   0  0  0  0  0  0  0  0  0  0  0  0
   11.4847  -13.6454   15.7048 H   0  0  0  0  0  0  0  0  0  0  0  0
  1 15  1  0  0  0  0
  1 23  1  0  0  0  0
  1 24  1  0  0  0  0
  2 15  2  0  0  0  0
  2 25  1  0  0  0  0
  2 26  1  0  0  0  0
  3 16  2  0  0  0  0
  3 18  1  0  0  0  0
  4 17  2  0  0  0  0
  4 19  1  0  0  0  0
  5 16  1  0  0  0  0
  5 20  1  0  0  0  0
  5 27  1  0  0  0  0
  6 17  1  0  0  0  0
  6 21  1  0  0  0  0
  6 28  1  0  0  0  0
  7  8  2  0  0  0  0
  7  9  1  0  0  0  0
  7 29  1  0  0  0  0
  8 10  1  0  0  0  0
  8 30  1  0  0  0  0
  9 18  2  0  0  0  0
  9 31  1  0  0  0  0
 10 20  2  0  0  0  0
 10 32  1  0  0  0  0
 11 12  1  0  0  0  0
 11 19  2  0  0  0  0
 11 33  1  0  0  0  0
 12 22  2  0  0  0  0
 12 34  1  0  0  0  0
 13 21  2  0  0  0  0
 13 22  1  0  0  0  0
 13 35  1  0  0  0  0
 14 16  1  0  0  0  0
 14 17  1  0  0  0  0
 14 36  1  0  0  0  0
 14 37  1  0  0  0  0
 15 22  1  0  0  0  0
 18 20  1  0  0  0  0
 19 21  1  0  0  0  0
M  CHG  1   2   1
M  END
> <pdb_id>
1C1U

> <uniprot_id>
P00734

> <usmiles>
[NH2+]=C(N)c1cc2NC(=Nc2cc1)CC3=Nc4c(N3)cccc4

$$$$
BAU_A_400
          07202412443D 1   1.00000     0.00000     0
            
 36 37  0  0  0  0            999 V2000
   42.2123   68.8591  -26.0554 O   0  0  0  0  0  0  0  0  0  0  0  0
   42.1450   74.0444  -27.6940 O   0  0  0  0  0  0  0  0  0  0  0  0
   38.1763   72.9683  -29.4036 O   0  0  0  0  0  0  0  0  0  0  0  0
   43.8238   70.8958  -28.1240 O   0  0  0  0  0  0  0  0  0  0  0  0
   40.1082   73.5327  -28.5776 N   0  0  0  0  0  0  0  0  0  0  0  0
   41.8800   72.0258  -28.6095 N   0  0  0  0  0  0  0  0  0  0  0  0
   43.1633   72.0914  -28.1873 C   0  0  0  0  0  0  0  0  0  0  0  0
   43.4880   69.5588  -25.8724 C   0  0  0  0  0  0  0  0  0  0  0  0
   43.6032   70.8881  -26.6875 C   0  0  0  0  0  0  0  0  0  0  0  0
   41.1948   70.9936  -29.1867 C   0  0  0  0  0  0  0  0  0  0  0  0
   36.6639   68.0402  -27.2494 C   0  0  0  0  0  0  0  0  0  0  0  0
   38.0614   67.9296  -27.2819 C   0  0  0  0  0  0  0  0  0  0  0  0
   36.0138   68.8731  -28.1561 C   0  0  0  0  0  0  0  0  0  0  0  0
   38.8220   68.6279  -28.2177 C   0  0  0  0  0  0  0  0  0  0  0  0
   36.7768   69.5906  -29.0963 C   0  0  0  0  0  0  0  0  0  0  0  0
   38.9972   70.2416  -30.1571 C   0  0  0  0  0  0  0  0  0  0  0  0
   41.3548   73.2451  -28.2682 C   0  0  0  0  0  0  0  0  0  0  0  0
   39.3490   72.5894  -29.1654 C   0  0  0  0  0  0  0  0  0  0  0  0
   38.1867   69.4695  -29.1231 C   0  0  0  0  0  0  0  0  0  0  0  0
   39.8501   71.3060  -29.4903 C   0  0  0  0  0  0  0  0  0  0  0  0
   42.2093   68.0226  -25.5074 H   0  0  0  0  0  0  0  0  0  0  0  0
   39.7312   74.4374  -28.3791 H   0  0  0  0  0  0  0  0  0  0  0  0
   43.6642   72.6872  -28.8151 H   0  0  0  0  0  0  0  0  0  0  0  0
   43.1664   72.4939  -27.2719 H   0  0  0  0  0  0  0  0  0  0  0  0
   44.2262   68.9483  -26.1595 H   0  0  0  0  0  0  0  0  0  0  0  0
   43.5925   69.7746  -24.9015 H   0  0  0  0  0  0  0  0  0  0  0  0
   42.7496   71.3856  -26.5330 H   0  0  0  0  0  0  0  0  0  0  0  0
   44.3637   71.3978  -26.2851 H   0  0  0  0  0  0  0  0  0  0  0  0
   41.6059   70.1019  -29.3762 H   0  0  0  0  0  0  0  0  0  0  0  0
   36.1356   67.5222  -26.5767 H   0  0  0  0  0  0  0  0  0  0  0  0
   38.5215   67.3376  -26.6202 H   0  0  0  0  0  0  0  0  0  0  0  0
   35.0177   68.9604  -28.1394 H   0  0  0  0  0  0  0  0  0  0  0  0
   39.8164   68.5243  -28.2376 H   0  0  0  0  0  0  0  0  0  0  0  0
   36.3185   70.1914  -29.7514 H   0  0  0  0  0  0  0  0  0  0  0  0
   38.3719   70.6799  -30.8028 H   0  0  0  0  0  0  0  0  0  0  0  0
   39.5920   69.6055  -30.6486 H   0  0  0  0  0  0  0  0  0  0  0  0
  1  8  1  0  0  0  0
  2 17  2  0  0  0  0
  3 18  2  0  0  0  0
  4  7  1  0  0  0  0
  4  9  1  0  0  0  0
  5 17  1  0  0  0  0
  5 18  1  0  0  0  0
  6  7  1  0  0  0  0
  6 10  1  0  0  0  0
  6 17  1  0  0  0  0
  8  9  1  0  0  0  0
 10 20  2  0  0  0  0
 11 12  2  0  0  0  0
 11 13  1  0  0  0  0
 12 14  1  0  0  0  0
 13 15  2  0  0  0  0
 14 19  2  0  0  0  0
 15 19  1  0  0  0  0
 16 19  1  0  0  0  0
 16 20  1  0  0  0  0
 18 20  1  0  0  0  0
  1 21  1  0  0  0  0
  5 22  1  0  0  0  0
  7 23  1  0  0  0  0
  7 24  1  0  0  0  0
  8 25  1  0  0  0  0
  8 26  1  0  0  0  0
  9 27  1  0  0  0  0
  9 28  1  0  0  0  0
 10 29  1  0  0  0  0
 11 30  1  0  0  0  0
 12 31  1  0  0  0  0
 13 32  1  0  0  0  0
 14 33  1  0  0  0  0
 15 34  1  0  0  0  0
 16 35  1  0  0  0  0
 16 36  1  0  0  0  0
M  END
> <pdb_id>
3EUF

> <uniprot_id>
Q16831

> <usmiles>
O=C1N(C=C(C(=O)N1)Cc2ccccc2)COCCO

$$$$
BAU_A_5400
          07192421043D 1   1.00000     0.00000     0
            
 36 37  0  0  0  0            999 V2000
  -12.7174  162.6083    0.1364 O   0  0  0  0  0  0  0  0  0  0  0  0
  -11.9339  167.4479   -2.4111 O   0  0  0  0  0  0  0  0  0  0  0  0
  -16.4185  167.0107   -3.2753 O   0  0  0  0  0  0  0  0  0  0  0  0
  -11.2229  163.5343   -2.3444 O   0  0  0  0  0  0  0  0  0  0  0  0
  -14.1834  167.2455   -2.8746 N   0  0  0  0  0  0  0  0  0  0  0  0
  -12.7172  165.2940   -3.0689 N   0  0  0  0  0  0  0  0  0  0  0  0
  -11.5251  164.6521   -3.0130 C   0  0  0  0  0  0  0  0  0  0  0  0
  -11.4933  163.2358    0.0940 C   0  0  0  0  0  0  0  0  0  0  0  0
  -10.9768  163.9417   -1.0946 C   0  0  0  0  0  0  0  0  0  0  0  0
  -13.8688  164.5022   -3.4312 C   0  0  0  0  0  0  0  0  0  0  0  0
  -18.4955  163.0868   -0.0550 C   0  0  0  0  0  0  0  0  0  0  0  0
  -17.2962  162.3641   -0.4027 C   0  0  0  0  0  0  0  0  0  0  0  0
  -19.0085  164.1083   -0.9309 C   0  0  0  0  0  0  0  0  0  0  0  0
  -16.6240  162.6771   -1.6431 C   0  0  0  0  0  0  0  0  0  0  0  0
  -18.3502  164.4223   -2.1572 C   0  0  0  0  0  0  0  0  0  0  0  0
  -16.4026  164.1053   -3.7927 C   0  0  0  0  0  0  0  0  0  0  0  0
  -12.8701  166.7105   -2.7754 C   0  0  0  0  0  0  0  0  0  0  0  0
  -15.3070  166.4505   -3.2322 C   0  0  0  0  0  0  0  0  0  0  0  0
  -17.1470  163.7116   -2.5179 C   0  0  0  0  0  0  0  0  0  0  0  0
  -15.1649  165.0419   -3.5105 C   0  0  0  0  0  0  0  0  0  0  0  0
  -12.8519  162.2008    1.0397 H   0  0  0  0  0  0  0  0  0  0  0  0
  -14.3225  168.2176   -2.6858 H   0  0  0  0  0  0  0  0  0  0  0  0
  -11.3044  164.4446   -3.9660 H   0  0  0  0  0  0  0  0  0  0  0  0
  -10.8851  165.3367   -2.6641 H   0  0  0  0  0  0  0  0  0  0  0  0
  -10.8176  162.5300    0.3069 H   0  0  0  0  0  0  0  0  0  0  0  0
  -11.5092  163.9143    0.8284 H   0  0  0  0  0  0  0  0  0  0  0  0
  -11.3274  164.8763   -1.0348 H   0  0  0  0  0  0  0  0  0  0  0  0
   -9.9815  163.9523   -0.9986 H   0  0  0  0  0  0  0  0  0  0  0  0
  -13.7396  163.5315   -3.6337 H   0  0  0  0  0  0  0  0  0  0  0  0
  -18.9728  162.8774    0.7984 H   0  0  0  0  0  0  0  0  0  0  0  0
  -16.9354  161.6571    0.2056 H   0  0  0  0  0  0  0  0  0  0  0  0
  -19.8383  164.6048   -0.6760 H   0  0  0  0  0  0  0  0  0  0  0  0
  -15.7956  162.1793   -1.9001 H   0  0  0  0  0  0  0  0  0  0  0  0
  -18.7193  165.1285   -2.7614 H   0  0  0  0  0  0  0  0  0  0  0  0
  -17.0368  164.5868   -4.3977 H   0  0  0  0  0  0  0  0  0  0  0  0
  -16.0783  163.2737   -4.2435 H   0  0  0  0  0  0  0  0  0  0  0  0
  1  8  1  0  0  0  0
  2 17  2  0  0  0  0
  3 18  2  0  0  0  0
  4  7  1  0  0  0  0
  4  9  1  0  0  0  0
  5 17  1  0  0  0  0
  5 18  1  0  0  0  0
  6  7  1  0  0  0  0
  6 10  1  0  0  0  0
  6 17  1  0  0  0  0
  8  9  1  0  0  0  0
 10 20  2  0  0  0  0
 11 12  2  0  0  0  0
 11 13  1  0  0  0  0
 12 14  1  0  0  0  0
 13 15  2  0  0  0  0
 14 19  2  0  0  0  0
 15 19  1  0  0  0  0
 16 19  1  0  0  0  0
 16 20  1  0  0  0  0
 18 20  1  0  0  0  0
  1 21  1  0  0  0  0
  5 22  1  0  0  0  0
  7 23  1  0  0  0  0
  7 24  1  0  0  0  0
  8 25  1  0  0  0  0
  8 26  1  0  0  0  0
  9 27  1  0  0  0  0
  9 28  1  0  0  0  0
 10 29  1  0  0  0  0
 11 30  1  0  0  0  0
 12 31  1  0  0  0  0
 13 32  1  0  0  0  0
 14 33  1  0  0  0  0
 15 34  1  0  0  0  0
 16 35  1  0  0  0  0
 16 36  1  0  0  0  0
M  END
> <pdb_id>
1U1C

> <uniprot_id>
P12758

> <usmiles>
O=C1N(C=C(C(=O)N1)Cc2ccccc2)COCCO

$$$$
BAU_B_400
          07202412443D 1   1.00000     0.00000     0
            
 35 36  0  0  0  0            999 V2000
   42.3980   69.1180  -25.6190 O   0  0  0  0  0  0  0  0  0  0  0  0
   42.2430   74.0580  -27.7140 O   0  0  0  0  0  0  0  0  0  0  0  0
   38.2940   72.9790  -29.3290 O   0  0  0  0  0  0  0  0  0  0  0  0
   43.9590   70.9680  -28.1890 O   0  0  0  0  0  0  0  0  0  0  0  0
   40.1730   73.5660  -28.5250 N   0  0  0  0  0  0  0  0  0  0  0  0
   41.9650   72.0260  -28.6050 N   0  3  0  0  0  0  0  0  0  0  0  0
   43.6540   69.7930  -25.8120 C   0  0  0  0  0  0  0  0  0  0  0  0
   41.3150   71.0380  -29.1800 C   0  0  0  0  0  0  0  0  0  0  0  0
   36.7510   68.1890  -27.1970 C   0  0  0  0  0  0  0  0  0  0  0  0
   38.1340   68.0220  -27.2100 C   0  0  0  0  0  0  0  0  0  0  0  0
   36.1410   69.0280  -28.1220 C   0  0  0  0  0  0  0  0  0  0  0  0
   38.9550   68.6600  -28.1400 C   0  0  0  0  0  0  0  0  0  0  0  0
   36.9490   69.6890  -29.0480 C   0  0  0  0  0  0  0  0  0  0  0  0
   39.1860   70.2060  -30.1090 C   0  0  0  0  0  0  0  0  0  0  0  0
   41.4330   73.2540  -28.2350 C   0  0  0  0  0  0  0  0  0  0  0  0
   39.4500   72.6070  -29.1250 C   0  0  0  0  0  0  0  0  0  0  0  0
   43.2550   72.1320  -28.2770 C   0  0  0  0  0  0  0  0  0  0  0  0
   43.5960   71.0170  -26.7710 C   0  0  0  0  0  0  0  0  0  0  0  0
   38.3420   69.4950  -29.0850 C   0  0  0  0  0  0  0  0  0  0  0  0
   39.9740   71.3240  -29.4680 C   0  0  0  0  0  0  0  0  0  0  0  0
   42.5257   68.3490  -24.9927 H   0  0  0  0  0  0  0  0  0  0  0  0
   39.7867   74.4627  -28.3087 H   0  0  0  0  0  0  0  0  0  0  0  0
   44.3067   69.1346  -26.1869 H   0  0  0  0  0  0  0  0  0  0  0  0
   43.9764   70.1112  -24.9205 H   0  0  0  0  0  0  0  0  0  0  0  0
   41.7409   70.1587  -29.3932 H   0  0  0  0  0  0  0  0  0  0  0  0
   36.1961   67.7043  -26.5209 H   0  0  0  0  0  0  0  0  0  0  0  0
   38.5534   67.4230  -26.5279 H   0  0  0  0  0  0  0  0  0  0  0  0
   35.1491   69.1547  -28.1239 H   0  0  0  0  0  0  0  0  0  0  0  0
   39.9460   68.5265  -28.1330 H   0  0  0  0  0  0  0  0  0  0  0  0
   36.5271   70.3167  -29.7021 H   0  0  0  0  0  0  0  0  0  0  0  0
   38.5915   70.5874  -30.8169 H   0  0  0  0  0  0  0  0  0  0  0  0
   39.8201   69.5527  -30.5226 H   0  0  0  0  0  0  0  0  0  0  0  0
   43.6826   73.0194  -28.1048 H   0  0  0  0  0  0  0  0  0  0  0  0
   42.6486   71.3361  -26.7452 H   0  0  0  0  0  0  0  0  0  0  0  0
   44.1919   71.7087  -26.3630 H   0  0  0  0  0  0  0  0  0  0  0  0
  1  7  1  0  0  0  0
  2 15  2  0  0  0  0
  3 16  2  0  0  0  0
  4 17  1  0  0  0  0
  4 18  1  0  0  0  0
  5 15  1  0  0  0  0
  5 16  1  0  0  0  0
  6  8  1  0  0  0  0
  6 15  1  0  0  0  0
  6 17  2  0  0  0  0
  7 18  1  0  0  0  0
  8 20  2  0  0  0  0
  9 10  2  0  0  0  0
  9 11  1  0  0  0  0
 10 12  1  0  0  0  0
 11 13  2  0  0  0  0
 12 19  2  0  0  0  0
 13 19  1  0  0  0  0
 14 19  1  0  0  0  0
 14 20  1  0  0  0  0
 16 20  1  0  0  0  0
  1 21  1  0  0  0  0
  5 22  1  0  0  0  0
  7 23  1  0  0  0  0
  7 24  1  0  0  0  0
  8 25  1  0  0  0  0
  9 26  1  0  0  0  0
 10 27  1  0  0  0  0
 11 28  1  0  0  0  0
 12 29  1  0  0  0  0
 13 30  1  0  0  0  0
 14 31  1  0  0  0  0
 14 32  1  0  0  0  0
 17 33  1  0  0  0  0
 18 34  1  0  0  0  0
 18 35  1  0  0  0  0
M  CHG  1   6   1
M  END
> <pdb_id>
3EUF

> <uniprot_id>
Q16831

> <usmiles>
O=C1[N+](=COCCO)C=C(C(=O)N1)Cc2ccccc2

$$$$
BAW_A_301
          07192420423D 1   1.00000     0.00000     0
            
 40 42  0  0  0  0            999 V2000
   70.0897   36.7941   22.3008 F   0  0  0  0  0  0  0  0  0  0  0  0
   66.9718   31.9389   27.6671 O   0  0  0  0  0  0  0  0  0  0  0  0
   64.4746   34.4060   24.5279 O   0  0  0  0  0  0  0  0  0  0  0  0
   66.1786   35.9087   21.0715 N   0  0  0  0  0  0  0  0  0  0  0  0
   66.0185   34.8642   22.0057 N   0  0  0  0  0  0  0  0  0  0  0  0
   69.6580   31.0342   25.4607 C   0  0  0  0  0  0  0  0  0  0  0  0
   67.4612   38.0817   20.8589 C   0  0  0  0  0  0  0  0  0  0  0  0
   69.4866   32.4000   26.1672 C   0  0  0  0  0  0  0  0  0  0  0  0
   70.0473   38.3235   25.6425 C   0  0  0  0  0  0  0  0  0  0  0  0
   68.6971   38.1851   25.9489 C   0  0  0  0  0  0  0  0  0  0  0  0
   70.5217   37.8653   24.4147 C   0  0  0  0  0  0  0  0  0  0  0  0
   67.8260   37.5604   25.0451 C   0  0  0  0  0  0  0  0  0  0  0  0
   65.7528   33.1822   26.0891 C   0  0  0  0  0  0  0  0  0  0  0  0
   68.0893   33.7965   24.6865 C   0  0  0  0  0  0  0  0  0  0  0  0
   69.6629   37.2168   23.5145 C   0  0  0  0  0  0  0  0  0  0  0  0
   66.9751   32.6974   26.5397 C   0  0  0  0  0  0  0  0  0  0  0  0
   65.6874   33.9541   24.9395 C   0  0  0  0  0  0  0  0  0  0  0  0
   67.0758   36.7966   21.5590 C   0  0  0  0  0  0  0  0  0  0  0  0
   66.7728   35.1257   23.0428 C   0  0  0  0  0  0  0  0  0  0  0  0
   68.1407   32.9621   25.8131 C   0  0  0  0  0  0  0  0  0  0  0  0
   68.3057   37.0634   23.8225 C   0  0  0  0  0  0  0  0  0  0  0  0
   66.8537   34.2858   24.2484 C   0  0  0  0  0  0  0  0  0  0  0  0
   67.4047   36.3911   22.8375 C   0  0  0  0  0  0  0  0  0  0  0  0
   67.8302   31.5708   28.0246 H   0  0  0  0  0  0  0  0  0  0  0  0
   64.4032   34.9645   23.7015 H   0  0  0  0  0  0  0  0  0  0  0  0
   65.7065   35.9812   20.1929 H   0  0  0  0  0  0  0  0  0  0  0  0
   70.5524   30.6503   25.6900 H   0  0  0  0  0  0  0  0  0  0  0  0
   68.9390   30.4092   25.7646 H   0  0  0  0  0  0  0  0  0  0  0  0
   69.5933   31.1606   24.4708 H   0  0  0  0  0  0  0  0  0  0  0  0
   68.1382   38.5708   21.4089 H   0  0  0  0  0  0  0  0  0  0  0  0
   67.8505   37.8691   19.9626 H   0  0  0  0  0  0  0  0  0  0  0  0
   66.6497   38.6543   20.7425 H   0  0  0  0  0  0  0  0  0  0  0  0
   70.2034   33.0277   25.8637 H   0  0  0  0  0  0  0  0  0  0  0  0
   69.5491   32.2763   27.1575 H   0  0  0  0  0  0  0  0  0  0  0  0
   70.6721   38.7482   26.2978 H   0  0  0  0  0  0  0  0  0  0  0  0
   68.3461   38.5330   26.8183 H   0  0  0  0  0  0  0  0  0  0  0  0
   71.4828   37.9999   24.1733 H   0  0  0  0  0  0  0  0  0  0  0  0
   66.8567   37.4681   25.2727 H   0  0  0  0  0  0  0  0  0  0  0  0
   64.9168   32.9731   26.5965 H   0  0  0  0  0  0  0  0  0  0  0  0
   68.9288   34.0395   24.2005 H   0  0  0  0  0  0  0  0  0  0  0  0
  1 15  1  0  0  0  0
  2 16  1  0  0  0  0
  3 17  1  0  0  0  0
  4  5  1  0  0  0  0
  4 18  1  0  0  0  0
  5 19  2  0  0  0  0
  6  8  1  0  0  0  0
  7 18  1  0  0  0  0
  8 20  1  0  0  0  0
  9 10  2  0  0  0  0
  9 11  1  0  0  0  0
 10 12  1  0  0  0  0
 11 15  2  0  0  0  0
 12 21  2  0  0  0  0
 13 16  2  0  0  0  0
 13 17  1  0  0  0  0
 14 20  2  0  0  0  0
 14 22  1  0  0  0  0
 15 21  1  0  0  0  0
 16 20  1  0  0  0  0
 17 22  2  0  0  0  0
 18 23  2  0  0  0  0
 19 22  1  0  0  0  0
 19 23  1  0  0  0  0
 21 23  1  0  0  0  0
  2 24  1  0  0  0  0
  3 25  1  0  0  0  0
  4 26  1  0  0  0  0
  6 27  1  0  0  0  0
  6 28  1  0  0  0  0
  6 29  1  0  0  0  0
  7 30  1  0  0  0  0
  7 31  1  0  0  0  0
  7 32  1  0  0  0  0
  8 33  1  0  0  0  0
  8 34  1  0  0  0  0
  9 35  1  0  0  0  0
 10 36  1  0  0  0  0
 11 37  1  0  0  0  0
 12 38  1  0  0  0  0
 13 39  1  0  0  0  0
 14 40  1  0  0  0  0
M  END
> <pdb_id>
6ELO

> <uniprot_id>
P07900

> <usmiles>
Fc1c(cccc1)C=2C(=NNC2C)c3c(O)cc(O)c(c3)CC

$$$$
BBB_B_4300
          07192421043D 1   1.00000     0.00000     0
            
 51 53  0  0  0  0            999 V2000
  -12.4850  162.9150    0.4410 O   0  0  0  0  0  0  0  0  0  0  0  0
  -11.9400  167.3250   -2.4930 O   0  0  0  0  0  0  0  0  0  0  0  0
  -16.4100  167.2350   -3.2430 O   0  0  0  0  0  0  0  0  0  0  0  0
  -13.9810  163.1950   -3.7190 O   0  0  0  0  0  0  0  0  0  0  0  0
  -11.3820  163.6130   -1.9970 O   0  0  0  0  0  0  0  0  0  0  0  0
  -16.8360  161.3950    0.1940 O   0  0  0  0  0  0  0  0  0  0  0  0
  -14.1740  167.2900   -2.8950 N   0  0  0  0  0  0  0  0  0  0  0  0
  -12.8470  165.2390   -3.1210 N   0  0  0  0  0  0  0  0  0  0  0  0
  -11.6190  164.5400   -3.0720 C   0  0  0  0  0  0  0  0  0  0  0  0
  -11.1310  163.3730    0.4500 C   0  0  0  0  0  0  0  0  0  0  0  0
  -10.8430  164.2160   -0.7910 C   0  0  0  0  0  0  0  0  0  0  0  0
  -16.7490  159.8970    0.4270 C   0  0  0  0  0  0  0  0  0  0  0  0
  -20.4940  157.9250   -0.2530 C   0  0  0  0  0  0  0  0  0  0  0  0
  -19.4810  157.9070   -1.2930 C   0  0  0  0  0  0  0  0  0  0  0  0
  -20.2510  158.5820    1.0110 C   0  0  0  0  0  0  0  0  0  0  0  0
  -19.2050  164.1450   -0.8080 C   0  0  0  0  0  0  0  0  0  0  0  0
  -18.5970  163.0890   -0.0520 C   0  0  0  0  0  0  0  0  0  0  0  0
  -18.2120  158.5520   -1.0610 C   0  0  0  0  0  0  0  0  0  0  0  0
  -18.9800  159.2280    1.2390 C   0  0  0  0  0  0  0  0  0  0  0  0
  -18.6060  164.5440   -2.0580 C   0  0  0  0  0  0  0  0  0  0  0  0
  -16.8060  162.8470   -1.7870 C   0  0  0  0  0  0  0  0  0  0  0  0
  -16.6690  164.4000   -3.8180 C   0  0  0  0  0  0  0  0  0  0  0  0
  -12.9130  166.6430   -2.8290 C   0  0  0  0  0  0  0  0  0  0  0  0
  -15.3580  166.5770   -3.2330 C   0  0  0  0  0  0  0  0  0  0  0  0
  -14.0600  164.5300   -3.4630 C   0  0  0  0  0  0  0  0  0  0  0  0
  -17.3990  162.4340   -0.5270 C   0  0  0  0  0  0  0  0  0  0  0  0
  -17.9650  159.2150    0.2040 C   0  0  0  0  0  0  0  0  0  0  0  0
  -17.4040  163.9110   -2.5460 C   0  0  0  0  0  0  0  0  0  0  0  0
  -15.3350  165.1710   -3.5230 C   0  0  0  0  0  0  0  0  0  0  0  0
  -12.6565  162.3657    1.2588 H   0  0  0  0  0  0  0  0  0  0  0  0
  -14.8055  162.6820   -3.9577 H   0  0  0  0  0  0  0  0  0  0  0  0
  -14.2319  168.2690   -2.6996 H   0  0  0  0  0  0  0  0  0  0  0  0
  -11.5421  164.0241   -3.9252 H   0  0  0  0  0  0  0  0  0  0  0  0
  -10.8932  165.2267   -3.0312 H   0  0  0  0  0  0  0  0  0  0  0  0
  -10.5168  162.5839    0.4616 H   0  0  0  0  0  0  0  0  0  0  0  0
  -10.9767  163.9276    1.2677 H   0  0  0  0  0  0  0  0  0  0  0  0
  -11.2548  165.1192   -0.6701 H   0  0  0  0  0  0  0  0  0  0  0  0
   -9.8529  164.3120   -0.8931 H   0  0  0  0  0  0  0  0  0  0  0  0
  -16.4688  159.7408    1.3742 H   0  0  0  0  0  0  0  0  0  0  0  0
  -16.0586  159.5212   -0.1911 H   0  0  0  0  0  0  0  0  0  0  0  0
  -21.3730  157.4761   -0.4138 H   0  0  0  0  0  0  0  0  0  0  0  0
  -19.6619  157.4505   -2.1642 H   0  0  0  0  0  0  0  0  0  0  0  0
  -20.9558  158.5891    1.7204 H   0  0  0  0  0  0  0  0  0  0  0  0
  -20.0316  164.5978   -0.4737 H   0  0  0  0  0  0  0  0  0  0  0  0
  -19.0066  162.8023    0.8141 H   0  0  0  0  0  0  0  0  0  0  0  0
  -17.5062  158.5418   -1.7693 H   0  0  0  0  0  0  0  0  0  0  0  0
  -18.7999  159.6842    2.1105 H   0  0  0  0  0  0  0  0  0  0  0  0
  -19.0309  165.2720   -2.5960 H   0  0  0  0  0  0  0  0  0  0  0  0
  -15.9827  162.3916   -2.1259 H   0  0  0  0  0  0  0  0  0  0  0  0
  -17.2812  165.0104   -4.3206 H   0  0  0  0  0  0  0  0  0  0  0  0
  -16.4542  163.6037   -4.3835 H   0  0  0  0  0  0  0  0  0  0  0  0
  1 10  1  0  0  0  0
  2 23  2  0  0  0  0
  3 24  2  0  0  0  0
  4 25  1  0  0  0  0
  5  9  1  0  0  0  0
  5 11  1  0  0  0  0
  6 12  1  0  0  0  0
  6 26  1  0  0  0  0
  7 23  1  0  0  0  0
  7 24  1  0  0  0  0
  8  9  1  0  0  0  0
  8 23  1  0  0  0  0
  8 25  1  0  0  0  0
 10 11  1  0  0  0  0
 12 27  1  0  0  0  0
 13 14  2  0  0  0  0
 13 15  1  0  0  0  0
 14 18  1  0  0  0  0
 15 19  2  0  0  0  0
 16 17  2  0  0  0  0
 16 20  1  0  0  0  0
 17 26  1  0  0  0  0
 18 27  2  0  0  0  0
 19 27  1  0  0  0  0
 20 28  2  0  0  0  0
 21 26  2  0  0  0  0
 21 28  1  0  0  0  0
 22 28  1  0  0  0  0
 22 29  1  0  0  0  0
 24 29  1  0  0  0  0
 25 29  2  0  0  0  0
  1 30  1  0  0  0  0
  4 31  1  0  0  0  0
  7 32  1  0  0  0  0
  9 33  1  0  0  0  0
  9 34  1  0  0  0  0
 10 35  1  0  0  0  0
 10 36  1  0  0  0  0
 11 37  1  0  0  0  0
 11 38  1  0  0  0  0
 12 39  1  0  0  0  0
 12 40  1  0  0  0  0
 13 41  1  0  0  0  0
 14 42  1  0  0  0  0
 15 43  1  0  0  0  0
 16 44  1  0  0  0  0
 17 45  1  0  0  0  0
 18 46  1  0  0  0  0
 19 47  1  0  0  0  0
 20 48  1  0  0  0  0
 21 49  1  0  0  0  0
 22 50  1  0  0  0  0
 22 51  1  0  0  0  0
M  END
> <pdb_id>
1U1G

> <uniprot_id>
P12758

> <usmiles>
O=C1N(C(O)=C(C(=O)N1)Cc2cc(OCc3ccccc3)ccc2)COCCO

$$$$
BBE_C_400
          07192422273D 1   1.00000     0.00000     0
            
 48 50  0  0  0  0            999 V2000
   30.7247  -18.8792   58.8921 S   0  0  0  0  0  0  0  0  0  0  0  0
   30.5618  -20.4023   58.9143 O   0  0  0  0  0  0  0  0  0  0  0  0
   30.0886  -18.2930   60.1858 O   0  0  0  0  0  0  0  0  0  0  0  0
   35.9169  -19.6481   54.9826 O   0  0  0  0  0  0  0  0  0  0  0  0
   32.8199  -16.8078   56.7186 O   0  0  0  0  0  0  0  0  0  0  0  0
   33.7358  -20.8658   58.8214 N   0  0  0  0  0  0  0  0  0  0  0  0
   34.3819  -18.2019   55.8091 N   0  0  0  0  0  0  0  0  0  0  0  0
   32.3211  -18.4534   58.8409 N   0  0  0  0  0  0  0  0  0  0  0  0
   34.8688  -20.3025   56.8377 N   0  0  0  0  0  0  0  0  0  0  0  0
   32.7833  -17.3904   59.7748 C   0  0  0  0  0  0  0  0  0  0  0  0
   27.7607  -15.3333   56.5510 C   0  0  0  0  0  0  0  0  0  0  0  0
   35.6722  -21.5801   56.8128 C   0  0  0  0  0  0  0  0  0  0  0  0
   33.5770  -24.5990   54.5857 C   0  0  0  0  0  0  0  0  0  0  0  0
   34.3141  -23.6090   53.9242 C   0  0  0  0  0  0  0  0  0  0  0  0
   33.5379  -24.5887   55.9880 C   0  0  0  0  0  0  0  0  0  0  0  0
   29.5306  -18.2749   55.1551 C   0  0  0  0  0  0  0  0  0  0  0  0
   30.1551  -18.8106   56.2716 C   0  0  0  0  0  0  0  0  0  0  0  0
   28.7518  -17.1257   55.2655 C   0  0  0  0  0  0  0  0  0  0  0  0
   34.9899  -22.6265   54.6489 C   0  0  0  0  0  0  0  0  0  0  0  0
   34.2318  -23.5913   56.6976 C   0  0  0  0  0  0  0  0  0  0  0  0
   29.1791  -17.0415   57.6070 C   0  0  0  0  0  0  0  0  0  0  0  0
   35.0749  -19.4182   55.8479 C   0  0  0  0  0  0  0  0  0  0  0  0
   33.4350  -17.8758   56.8083 C   0  0  0  0  0  0  0  0  0  0  0  0
   29.9659  -18.1948   57.4996 C   0  0  0  0  0  0  0  0  0  0  0  0
   33.9627  -20.0096   57.8305 C   0  0  0  0  0  0  0  0  0  0  0  0
   28.5646  -16.5019   56.4825 C   0  0  0  0  0  0  0  0  0  0  0  0
   33.1977  -18.8130   57.8290 C   0  0  0  0  0  0  0  0  0  0  0  0
   34.9670  -22.5893   56.0511 C   0  0  0  0  0  0  0  0  0  0  0  0
   33.0742  -20.6393   59.5362 H   0  0  0  0  0  0  0  0  0  0  0  0
   34.2267  -21.7365   58.8522 H   0  0  0  0  0  0  0  0  0  0  0  0
   34.5585  -17.5562   55.0663 H   0  0  0  0  0  0  0  0  0  0  0  0
   33.7614  -17.2312   59.6408 H   0  0  0  0  0  0  0  0  0  0  0  0
   32.2801  -16.5455   59.5933 H   0  0  0  0  0  0  0  0  0  0  0  0
   32.6188  -17.6804   60.7176 H   0  0  0  0  0  0  0  0  0  0  0  0
   27.7262  -15.0074   57.4958 H   0  0  0  0  0  0  0  0  0  0  0  0
   28.1546  -14.6231   55.9676 H   0  0  0  0  0  0  0  0  0  0  0  0
   26.8352  -15.5466   56.2380 H   0  0  0  0  0  0  0  0  0  0  0  0
   35.8076  -21.9052   57.7487 H   0  0  0  0  0  0  0  0  0  0  0  0
   36.5608  -21.4051   56.3888 H   0  0  0  0  0  0  0  0  0  0  0  0
   33.0874  -25.3005   54.0680 H   0  0  0  0  0  0  0  0  0  0  0  0
   34.3564  -23.6061   52.9251 H   0  0  0  0  0  0  0  0  0  0  0  0
   33.0192  -25.2871   56.4810 H   0  0  0  0  0  0  0  0  0  0  0  0
   29.6402  -18.7169   54.2649 H   0  0  0  0  0  0  0  0  0  0  0  0
   30.7304  -19.6247   56.1927 H   0  0  0  0  0  0  0  0  0  0  0  0
   28.3201  -16.7452   54.4476 H   0  0  0  0  0  0  0  0  0  0  0  0
   35.5062  -21.9278   54.1537 H   0  0  0  0  0  0  0  0  0  0  0  0
   34.1990  -23.5979   57.6971 H   0  0  0  0  0  0  0  0  0  0  0  0
   29.0585  -16.6033   58.4978 H   0  0  0  0  0  0  0  0  0  0  0  0
  1  2  2  0  0  0  0
  1  3  2  0  0  0  0
  1  8  1  0  0  0  0
  1 24  1  0  0  0  0
  4 22  2  0  0  0  0
  5 23  2  0  0  0  0
  6 25  1  0  0  0  0
  7 22  1  0  0  0  0
  7 23  1  0  0  0  0
  8 10  1  0  0  0  0
  8 27  1  0  0  0  0
  9 12  1  0  0  0  0
  9 22  1  0  0  0  0
  9 25  1  0  0  0  0
 11 26  1  0  0  0  0
 12 28  1  0  0  0  0
 13 14  2  0  0  0  0
 13 15  1  0  0  0  0
 14 19  1  0  0  0  0
 15 20  2  0  0  0  0
 16 17  2  0  0  0  0
 16 18  1  0  0  0  0
 17 24  1  0  0  0  0
 18 26  2  0  0  0  0
 19 28  2  0  0  0  0
 20 28  1  0  0  0  0
 21 24  2  0  0  0  0
 21 26  1  0  0  0  0
 23 27  1  0  0  0  0
 25 27  2  0  0  0  0
  6 29  1  0  0  0  0
  6 30  1  0  0  0  0
  7 31  1  0  0  0  0
 10 32  1  0  0  0  0
 10 33  1  0  0  0  0
 10 34  1  0  0  0  0
 11 35  1  0  0  0  0
 11 36  1  0  0  0  0
 11 37  1  0  0  0  0
 12 38  1  0  0  0  0
 12 39  1  0  0  0  0
 13 40  1  0  0  0  0
 14 41  1  0  0  0  0
 15 42  1  0  0  0  0
 16 43  1  0  0  0  0
 17 44  1  0  0  0  0
 18 45  1  0  0  0  0
 19 46  1  0  0  0  0
 20 47  1  0  0  0  0
 21 48  1  0  0  0  0
M  END
> <pdb_id>
4B5B

> <uniprot_id>
Q9HU22

> <usmiles>
S(=O)(=O)(N(C=1C(=O)NC(=O)N(C1N)Cc2ccccc2)C)c3cc(ccc3)C

$$$$
BC5_A_302
          07192416293D 1   1.00000     0.00000     0
            
 29 30  0  0  0  0            999 V2000
   -5.9286    0.9922   16.7428 S   0  0  0  0  0  0  0  0  0  0  0  0
   -7.3122    1.1799   16.4062 O   0  0  0  0  0  0  0  0  0  0  0  0
   -5.5575    0.8905   18.1264 O   0  0  0  0  0  0  0  0  0  0  0  0
   -5.4332   -0.3543   16.0116 N   0  0  0  0  0  0  0  0  0  0  0  0
   -0.7050    8.7726   12.7229 N   0  0  0  0  0  0  0  0  0  0  0  0
   -5.6850    3.5066   15.6736 C   0  0  0  0  0  0  0  0  0  0  0  0
   -3.6471    2.2388   15.8690 C   0  0  0  0  0  0  0  0  0  0  0  0
   -1.2159    6.4292   12.7882 C   0  0  0  0  0  0  0  0  0  0  0  0
   -2.3216    7.9493   14.2933 C   0  0  0  0  0  0  0  0  0  0  0  0
   -4.9728    4.5668   15.1256 C   0  0  0  0  0  0  0  0  0  0  0  0
   -2.9349    3.3000   15.3210 C   0  0  0  0  0  0  0  0  0  0  0  0
   -1.9271    5.3690   13.3361 C   0  0  0  0  0  0  0  0  0  0  0  0
   -3.0338    6.8881   14.8413 C   0  0  0  0  0  0  0  0  0  0  0  0
   -5.0221    2.3426   16.0447 C   0  0  0  0  0  0  0  0  0  0  0  0
   -1.4122    7.7194   13.2668 C   0  0  0  0  0  0  0  0  0  0  0  0
   -3.5978    4.4640   14.9489 C   0  0  0  0  0  0  0  0  0  0  0  0
   -2.8365    5.5980   14.3627 C   0  0  0  0  0  0  0  0  0  0  0  0
   -4.4698   -0.5149   16.2260 H   0  0  0  0  0  0  0  0  0  0  0  0
   -5.9796   -1.1280   16.3321 H   0  0  0  0  0  0  0  0  0  0  0  0
   -0.8464    9.7007   13.0674 H   0  0  0  0  0  0  0  0  0  0  0  0
   -0.0513    8.6075   11.9843 H   0  0  0  0  0  0  0  0  0  0  0  0
   -6.6740    3.5811   15.8008 H   0  0  0  0  0  0  0  0  0  0  0  0
   -3.1703    1.4014   16.1364 H   0  0  0  0  0  0  0  0  0  0  0  0
   -0.5627    6.2642   12.0493 H   0  0  0  0  0  0  0  0  0  0  0  0
   -2.4634    8.8775   14.6374 H   0  0  0  0  0  0  0  0  0  0  0  0
   -5.4497    5.4041   14.8584 H   0  0  0  0  0  0  0  0  0  0  0  0
   -1.9457    3.2258   15.1946 H   0  0  0  0  0  0  0  0  0  0  0  0
   -1.7849    4.4409   12.9921 H   0  0  0  0  0  0  0  0  0  0  0  0
   -3.6878    7.0530   15.5796 H   0  0  0  0  0  0  0  0  0  0  0  0
  1  2  2  0  0  0  0
  1  3  2  0  0  0  0
  1  4  1  0  0  0  0
  1 14  1  0  0  0  0
  5 15  1  0  0  0  0
  6 10  2  0  0  0  0
  6 14  1  0  0  0  0
  7 11  1  0  0  0  0
  7 14  2  0  0  0  0
  8 12  1  0  0  0  0
  8 15  2  0  0  0  0
  9 13  2  0  0  0  0
  9 15  1  0  0  0  0
 10 16  1  0  0  0  0
 11 16  2  0  0  0  0
 12 17  2  0  0  0  0
 13 17  1  0  0  0  0
 16 17  1  0  0  0  0
  4 18  1  0  0  0  0
  4 19  1  0  0  0  0
  5 20  1  0  0  0  0
  5 21  1  0  0  0  0
  6 22  1  0  0  0  0
  7 23  1  0  0  0  0
  8 24  1  0  0  0  0
  9 25  1  0  0  0  0
 10 26  1  0  0  0  0
 11 27  1  0  0  0  0
 12 28  1  0  0  0  0
 13 29  1  0  0  0  0
M  END
> <pdb_id>
5E28

> <uniprot_id>
P00918

> <usmiles>
S(=O)(=O)(N)c1ccc(c2ccc(N)cc2)cc1

$$$$
BC6_A_500
          07192418153D 1   1.00000     0.00000     0
            
 78 79  0  0  0  0            999 V2000
  -19.6750    3.2862   -5.5105 O   0  0  0  0  0  0  0  0  0  0  0  0
  -11.4493    4.2474    0.2759 O   0  0  0  0  0  0  0  0  0  0  0  0
  -12.6104    6.1380   -6.2623 O   0  0  0  0  0  0  0  0  0  0  0  0
  -14.4382    0.7218   -9.1653 O   0  0  0  0  0  0  0  0  0  0  0  0
  -13.8220   -1.1408   -7.2416 O   0  0  0  0  0  0  0  0  0  0  0  0
  -18.1741    4.1136   -3.9972 O   0  0  0  0  0  0  0  0  0  0  0  0
  -20.0959    5.2981   -4.5269 N   0  0  0  0  0  0  0  0  0  0  0  0
  -11.4996    4.7657   -1.8772 N   0  0  0  0  0  0  0  0  0  0  0  0
  -14.7832   -2.1242   -6.9277 C   0  0  0  0  0  0  0  0  0  0  0  0
  -12.4794    0.1772   -4.3598 C   0  0  0  0  0  0  0  0  0  0  0  0
  -11.8199    1.4540   -0.4411 C   0  0  0  0  0  0  0  0  0  0  0  0
  -17.5792    2.2877   -1.7032 C   0  0  0  0  0  0  0  0  0  0  0  0
  -16.6334    2.5660   -8.6705 C   0  0  0  0  0  0  0  0  0  0  0  0
  -15.6830    4.4204   -5.4275 C   0  0  0  0  0  0  0  0  0  0  0  0
  -14.6399    1.4799   -1.7664 C   0  0  0  0  0  0  0  0  0  0  0  0
  -13.7472    2.6598   -1.5515 C   0  0  0  0  0  0  0  0  0  0  0  0
  -15.4646    1.7755   -3.0224 C   0  0  0  0  0  0  0  0  0  0  0  0
  -12.0153    5.4096   -4.0921 C   0  0  0  0  0  0  0  0  0  0  0  0
  -11.6430    3.9501   -5.9914 C   0  0  0  0  0  0  0  0  0  0  0  0
  -12.9633    1.0782   -6.7065 C   0  0  0  0  0  0  0  0  0  0  0  0
  -11.0845    3.2375   -3.7346 C   0  0  0  0  0  0  0  0  0  0  0  0
  -10.7093    1.6014   -5.5914 C   0  0  0  0  0  0  0  0  0  0  0  0
  -16.4527    2.1664   -6.2854 C   0  0  0  0  0  0  0  0  0  0  0  0
  -19.3919    4.1999   -4.7531 C   0  0  0  0  0  0  0  0  0  0  0  0
  -11.7943    3.9390   -0.8616 C   0  0  0  0  0  0  0  0  0  0  0  0
  -12.0711    5.1674   -5.4664 C   0  0  0  0  0  0  0  0  0  0  0  0
  -15.1664    0.7330   -7.9175 C   0  0  1  0  0  0  0  0  0  0  0  0
  -14.1999    0.1992   -6.8599 C   0  0  1  0  0  0  0  0  0  0  0  0
  -17.3967    2.9350   -4.1490 C   0  0  2  0  0  0  0  0  0  0  0  0
  -11.5282    4.4551   -3.2154 C   0  0  0  0  0  0  0  0  0  0  0  0
  -11.8712    0.5845   -5.7139 C   0  0  1  0  0  0  0  0  0  0  0  0
  -11.1568    2.9649   -5.1055 C   0  0  0  0  0  0  0  0  0  0  0  0
  -12.4963    2.6717   -0.9984 C   0  0  0  0  0  0  0  0  0  0  0  0
  -16.6240    2.7470   -2.8177 C   0  0  1  0  0  0  0  0  0  0  0  0
  -15.6501    2.1487   -7.5820 C   0  0  1  0  0  0  0  0  0  0  0  0
  -16.4785    3.1432   -5.3327 C   0  0  0  0  0  0  0  0  0  0  0  0
  -12.6669    5.9997   -7.2510 H   0  0  0  0  0  0  0  0  0  0  0  0
  -15.0268    1.0638   -9.8978 H   0  0  0  0  0  0  0  0  0  0  0  0
  -19.7608    5.9823   -3.8792 H   0  0  0  0  0  0  0  0  0  0  0  0
  -20.9628    5.4434   -5.0039 H   0  0  0  0  0  0  0  0  0  0  0  0
  -11.2332    5.6990   -1.6363 H   0  0  0  0  0  0  0  0  0  0  0  0
  -14.4511   -3.0206   -7.2211 H   0  0  0  0  0  0  0  0  0  0  0  0
  -14.9402   -2.1337   -5.9402 H   0  0  0  0  0  0  0  0  0  0  0  0
  -15.6399   -1.9154   -7.3994 H   0  0  0  0  0  0  0  0  0  0  0  0
  -11.7522   -0.1340   -3.7479 H   0  0  0  0  0  0  0  0  0  0  0  0
  -12.9436    0.9639   -3.9528 H   0  0  0  0  0  0  0  0  0  0  0  0
  -13.1374   -0.5628   -4.4990 H   0  0  0  0  0  0  0  0  0  0  0  0
  -10.9166    1.7045   -0.0927 H   0  0  0  0  0  0  0  0  0  0  0  0
  -12.3716    1.0775    0.3032 H   0  0  0  0  0  0  0  0  0  0  0  0
  -11.7207    0.7684   -1.1622 H   0  0  0  0  0  0  0  0  0  0  0  0
  -18.3203    2.9518   -1.6047 H   0  0  0  0  0  0  0  0  0  0  0  0
  -17.9613    1.3942   -1.9389 H   0  0  0  0  0  0  0  0  0  0  0  0
  -17.0768    2.2185   -0.8413 H   0  0  0  0  0  0  0  0  0  0  0  0
  -16.1673    2.5752   -9.5551 H   0  0  0  0  0  0  0  0  0  0  0  0
  -17.3929    1.9161   -8.7006 H   0  0  0  0  0  0  0  0  0  0  0  0
  -16.9850    3.4803   -8.4694 H   0  0  0  0  0  0  0  0  0  0  0  0
  -15.8581    4.9830   -4.6196 H   0  0  0  0  0  0  0  0  0  0  0  0
  -14.7081    4.2030   -5.4774 H   0  0  0  0  0  0  0  0  0  0  0  0
  -15.9549    4.9223   -6.2486 H   0  0  0  0  0  0  0  0  0  0  0  0
  -15.2436    1.3564   -0.9788 H   0  0  0  0  0  0  0  0  0  0  0  0
  -14.0928    0.6536   -1.8999 H   0  0  0  0  0  0  0  0  0  0  0  0
  -14.1071    3.5448   -1.8469 H   0  0  0  0  0  0  0  0  0  0  0  0
  -15.8394    0.9113   -3.3581 H   0  0  0  0  0  0  0  0  0  0  0  0
  -14.8525    2.1634   -3.7115 H   0  0  0  0  0  0  0  0  0  0  0  0
  -12.3328    6.2880   -3.7350 H   0  0  0  0  0  0  0  0  0  0  0  0
  -11.6795    3.7779   -6.9758 H   0  0  0  0  0  0  0  0  0  0  0  0
  -13.2686    1.9788   -6.3972 H   0  0  0  0  0  0  0  0  0  0  0  0
  -12.5378    1.1618   -7.6076 H   0  0  0  0  0  0  0  0  0  0  0  0
  -10.7083    2.5478   -3.1159 H   0  0  0  0  0  0  0  0  0  0  0  0
  -10.2845    1.7083   -6.4904 H   0  0  0  0  0  0  0  0  0  0  0  0
  -10.0368    1.2392   -4.9460 H   0  0  0  0  0  0  0  0  0  0  0  0
  -17.0286    1.3673   -6.1127 H   0  0  0  0  0  0  0  0  0  0  0  0
  -15.9539    0.1206   -7.9870 H   0  0  0  0  0  0  0  0  0  0  0  0
  -14.6760    0.1599   -5.9814 H   0  0  0  0  0  0  0  0  0  0  0  0
  -17.9936    2.1496   -4.3125 H   0  0  0  0  0  0  0  0  0  0  0  0
  -11.4809   -0.2461   -6.1112 H   0  0  0  0  0  0  0  0  0  0  0  0
  -16.2427    3.6328   -2.5533 H   0  0  0  0  0  0  0  0  0  0  0  0
  -14.8808    2.7859   -7.5335 H   0  0  0  0  0  0  0  0  0  0  0  0
  1 24  2  0  0  0  0
  2 25  2  0  0  0  0
  3 26  1  0  0  0  0
  4 27  1  0  0  0  0
  5  9  1  0  0  0  0
  5 28  1  0  0  0  0
  6 24  1  0  0  0  0
  6 29  1  0  0  0  0
  7 24  1  0  0  0  0
  8 25  1  0  0  0  0
  8 30  1  0  0  0  0
 10 31  1  0  0  0  0
 11 33  1  0  0  0  0
 12 34  1  0  0  0  0
 13 35  1  0  0  0  0
 14 36  1  0  0  0  0
 15 16  1  0  0  0  0
 15 17  1  0  0  0  0
 16 33  2  0  0  0  0
 17 34  1  0  0  0  0
 18 26  1  0  0  0  0
 18 30  2  0  0  0  0
 19 26  2  0  0  0  0
 19 32  1  0  0  0  0
 20 28  1  0  0  0  0
 20 31  1  0  0  0  0
 21 30  1  0  0  0  0
 21 32  2  0  0  0  0
 22 31  1  0  0  0  0
 22 32  1  0  0  0  0
 23 35  1  0  0  0  0
 23 36  2  0  0  0  0
 25 33  1  0  0  0  0
 27 28  1  0  0  0  0
 27 35  1  0  0  0  0
 29 34  1  0  0  0  0
 29 36  1  0  0  0  0
  3 37  1  0  0  0  0
  4 38  1  0  0  0  0
  7 39  1  0  0  0  0
  7 40  1  0  0  0  0
  8 41  1  0  0  0  0
  9 42  1  0  0  0  0
  9 43  1  0  0  0  0
  9 44  1  0  0  0  0
 10 45  1  0  0  0  0
 10 46  1  0  0  0  0
 10 47  1  0  0  0  0
 11 48  1  0  0  0  0
 11 49  1  0  0  0  0
 11 50  1  0  0  0  0
 12 51  1  0  0  0  0
 12 52  1  0  0  0  0
 12 53  1  0  0  0  0
 13 54  1  0  0  0  0
 13 55  1  0  0  0  0
 13 56  1  0  0  0  0
 14 57  1  0  0  0  0
 14 58  1  0  0  0  0
 14 59  1  0  0  0  0
 15 60  1  0  0  0  0
 15 61  1  0  0  0  0
 16 62  1  0  0  0  0
 17 63  1  0  0  0  0
 17 64  1  0  0  0  0
 18 65  1  0  0  0  0
 19 66  1  0  0  0  0
 20 67  1  0  0  0  0
 20 68  1  0  0  0  0
 21 69  1  0  0  0  0
 22 70  1  0  0  0  0
 22 71  1  0  0  0  0
 23 72  1  0  0  0  0
 27 73  1  0  0  0  0
 28 74  1  0  0  0  0
 29 75  1  0  0  0  0
 31 76  1  0  0  0  0
 34 77  1  0  0  0  0
 35 78  1  0  0  0  0
M  END
> <pdb_id>
2VW5

> <uniprot_id>
P02829

> <usmiles>
O=C(O[C@H]1/C(=C/[C@@H]([C@@H](O)[C@@H](OC)C[C@@H](Cc2cc(O)cc(NC(=O)/C(=C/CC[C@@H]1C)/C)c2)C)C)/C)N

$$$$
BD0_A_901
          07192420423D 1   1.00000     0.00000     0
            
 53 56  0  0  0  0            999 V2000
   69.6364   32.6859   26.2423 Cl  0  0  0  0  0  0  0  0  0  0  0  0
   76.4526   35.1333   27.1856 F   0  0  0  0  0  0  0  0  0  0  0  0
   74.9268   34.9187   28.7214 F   0  0  0  0  0  0  0  0  0  0  0  0
   66.1824   34.1641   21.6427 O   0  0  0  0  0  0  0  0  0  0  0  0
   66.9455   32.2401   27.6167 O   0  0  0  0  0  0  0  0  0  0  0  0
   64.2889   34.2340   24.1382 O   0  0  0  0  0  0  0  0  0  0  0  0
   73.2386   36.2219   26.5852 N   0  0  0  0  0  0  0  0  0  0  0  0
   66.9652   36.1972   22.4899 N   0  0  0  0  0  0  0  0  0  0  0  0
   66.8159   36.8402   21.1864 C   0  0  0  0  0  0  0  0  0  0  0  0
   73.3807   34.9948   25.7794 C   0  0  0  0  0  0  0  0  0  0  0  0
   72.7130   37.3897   25.8760 C   0  0  0  0  0  0  0  0  0  0  0  0
   74.5700   36.5219   27.0880 C   0  0  0  0  0  0  0  0  0  0  0  0
   67.2785   38.2740   21.3433 C   0  0  0  0  0  0  0  0  0  0  0  0
   67.1607   38.5524   22.8376 C   0  0  0  0  0  0  0  0  0  0  0  0
   71.1496   36.9534   23.9160 C   0  0  0  0  0  0  0  0  0  0  0  0
   70.1793   37.5820   26.0883 C   0  0  0  0  0  0  0  0  0  0  0  0
   69.8558   36.8985   23.3504 C   0  0  0  0  0  0  0  0  0  0  0  0
   68.8773   37.5292   25.5241 C   0  0  0  0  0  0  0  0  0  0  0  0
   65.6189   33.2202   25.8989 C   0  0  0  0  0  0  0  0  0  0  0  0
   67.9885   33.7658   24.3991 C   0  0  0  0  0  0  0  0  0  0  0  0
   74.3726   34.1628   26.5716 C   0  0  0  0  0  0  0  0  0  0  0  0
   68.0808   33.1215   25.6547 C   0  0  0  0  0  0  0  0  0  0  0  0
   66.6091   34.8309   22.5831 C   0  0  0  0  0  0  0  0  0  0  0  0
   66.9019   32.8535   26.3999 C   0  0  0  0  0  0  0  0  0  0  0  0
   65.5218   33.8688   24.6377 C   0  0  0  0  0  0  0  0  0  0  0  0
   67.2662   37.1866   23.5676 C   0  0  2  0  0  0  0  0  0  0  0  0
   71.3239   37.2996   25.2885 C   0  0  0  0  0  0  0  0  0  0  0  0
   68.6941   37.1911   24.1406 C   0  0  0  0  0  0  0  0  0  0  0  0
   66.7100   34.1423   23.8942 C   0  0  0  0  0  0  0  0  0  0  0  0
   75.1214   35.1750   27.4152 C   0  0  0  0  0  0  0  0  0  0  0  0
   67.8242   31.9654   28.0070 H   0  0  0  0  0  0  0  0  0  0  0  0
   64.2241   34.6901   23.2507 H   0  0  0  0  0  0  0  0  0  0  0  0
   65.8579   36.8179   20.9003 H   0  0  0  0  0  0  0  0  0  0  0  0
   67.3781   36.3706   20.5056 H   0  0  0  0  0  0  0  0  0  0  0  0
   73.7370   35.2045   24.8688 H   0  0  0  0  0  0  0  0  0  0  0  0
   72.5046   34.5203   25.6933 H   0  0  0  0  0  0  0  0  0  0  0  0
   73.3414   37.5879   25.1238 H   0  0  0  0  0  0  0  0  0  0  0  0
   72.7137   38.1539   26.5210 H   0  0  0  0  0  0  0  0  0  0  0  0
   74.5240   37.0985   27.9037 H   0  0  0  0  0  0  0  0  0  0  0  0
   75.1233   36.9760   26.3897 H   0  0  0  0  0  0  0  0  0  0  0  0
   66.6924   38.8935   20.8211 H   0  0  0  0  0  0  0  0  0  0  0  0
   68.2255   38.3751   21.0386 H   0  0  0  0  0  0  0  0  0  0  0  0
   66.2797   38.9811   23.0380 H   0  0  0  0  0  0  0  0  0  0  0  0
   67.9004   39.1570   23.1329 H   0  0  0  0  0  0  0  0  0  0  0  0
   71.9482   36.7480   23.3502 H   0  0  0  0  0  0  0  0  0  0  0  0
   70.2935   37.8188   27.0531 H   0  0  0  0  0  0  0  0  0  0  0  0
   69.7484   36.6526   22.3870 H   0  0  0  0  0  0  0  0  0  0  0  0
   68.0811   37.7292   26.0951 H   0  0  0  0  0  0  0  0  0  0  0  0
   64.7947   33.0230   26.4297 H   0  0  0  0  0  0  0  0  0  0  0  0
   68.8149   33.9559   23.8690 H   0  0  0  0  0  0  0  0  0  0  0  0
   74.9985   33.6798   25.9592 H   0  0  0  0  0  0  0  0  0  0  0  0
   73.8967   33.5013   27.1512 H   0  0  0  0  0  0  0  0  0  0  0  0
   66.5907   37.1254   24.3023 H   0  0  0  0  0  0  0  0  0  0  0  0
  1 22  1  0  0  0  0
  2 30  1  0  0  0  0
  3 30  1  0  0  0  0
  4 23  2  0  0  0  0
  5 24  1  0  0  0  0
  6 25  1  0  0  0  0
  7 10  1  0  0  0  0
  7 11  1  0  0  0  0
  7 12  1  0  0  0  0
  8  9  1  0  0  0  0
  8 23  1  0  0  0  0
  8 26  1  0  0  0  0
  9 13  1  0  0  0  0
 10 21  1  0  0  0  0
 11 27  1  0  0  0  0
 12 30  1  0  0  0  0
 13 14  1  0  0  0  0
 14 26  1  0  0  0  0
 15 17  2  0  0  0  0
 15 27  1  0  0  0  0
 16 18  1  0  0  0  0
 16 27  2  0  0  0  0
 17 28  1  0  0  0  0
 18 28  2  0  0  0  0
 19 24  2  0  0  0  0
 19 25  1  0  0  0  0
 20 22  2  0  0  0  0
 20 29  1  0  0  0  0
 21 30  1  0  0  0  0
 22 24  1  0  0  0  0
 23 29  1  0  0  0  0
 25 29  2  0  0  0  0
 26 28  1  0  0  0  0
  5 31  1  0  0  0  0
  6 32  1  0  0  0  0
  9 33  1  0  0  0  0
  9 34  1  0  0  0  0
 10 35  1  0  0  0  0
 10 36  1  0  0  0  0
 11 37  1  0  0  0  0
 11 38  1  0  0  0  0
 12 39  1  0  0  0  0
 12 40  1  0  0  0  0
 13 41  1  0  0  0  0
 13 42  1  0  0  0  0
 14 43  1  0  0  0  0
 14 44  1  0  0  0  0
 15 45  1  0  0  0  0
 16 46  1  0  0  0  0
 17 47  1  0  0  0  0
 18 48  1  0  0  0  0
 19 49  1  0  0  0  0
 20 50  1  0  0  0  0
 21 51  1  0  0  0  0
 21 52  1  0  0  0  0
 26 53  1  0  0  0  0
M  END
> <pdb_id>
3HEK

> <uniprot_id>
P07900

> <usmiles>
Clc1c(O)cc(O)c(c1)C(=O)N2[C@@H](c3ccc(cc3)CN4CC(F)(F)CC4)CCC2

$$$$
BDI_A_600
          07202407253D 1   1.00000     0.00000     0
            
 27 28  0  0  0  0            999 V2000
   98.4126   15.4777   23.5106 O   0  0  0  0  0  0  0  0  0  0  0  0
  103.6217   16.8240   23.8275 O   0  0  0  0  0  0  0  0  0  0  0  0
  100.2347   16.0040   24.7398 N   0  0  0  0  0  0  0  0  0  0  0  0
  101.6024   16.3562   24.8263 N   0  0  0  0  0  0  0  0  0  0  0  0
  100.1131   15.7929   21.0210 N   0  0  0  0  0  0  0  0  0  0  0  0
  102.2737   16.3531   21.1940 N   0  0  0  0  0  0  0  0  0  0  0  0
  101.0517   18.7441   16.1903 C   0  0  0  0  0  0  0  0  0  0  0  0
  101.3692   17.3973   16.7811 C   0  0  0  0  0  0  0  0  0  0  0  0
  101.2120   17.4658   18.3167 C   0  0  0  0  0  0  0  0  0  0  0  0
  101.4450   16.0727   18.8887 C   0  0  0  0  0  0  0  0  0  0  0  0
  101.2740   16.0588   20.3795 C   0  0  0  0  0  0  0  0  0  0  0  0
   99.5806   15.7784   23.5545 C   0  0  0  0  0  0  0  0  0  0  0  0
  102.4256   16.5157   23.7718 C   0  0  0  0  0  0  0  0  0  0  0  0
  100.3749   15.9221   22.3231 C   0  0  0  0  0  0  0  0  0  0  0  0
  101.7919   16.2898   22.4323 C   0  0  0  0  0  0  0  0  0  0  0  0
   99.7157   15.9145   25.5898 H   0  0  0  0  0  0  0  0  0  0  0  0
  101.9868   16.4973   25.7386 H   0  0  0  0  0  0  0  0  0  0  0  0
  103.2112   16.5797   20.9299 H   0  0  0  0  0  0  0  0  0  0  0  0
  101.1523   18.7041   15.1962 H   0  0  0  0  0  0  0  0  0  0  0  0
  100.1117   18.9958   16.4204 H   0  0  0  0  0  0  0  0  0  0  0  0
  101.6802   19.4275   16.5617 H   0  0  0  0  0  0  0  0  0  0  0  0
  102.3093   17.1449   16.5521 H   0  0  0  0  0  0  0  0  0  0  0  0
  100.7407   16.7132   16.4108 H   0  0  0  0  0  0  0  0  0  0  0  0
  100.2897   17.7756   18.5480 H   0  0  0  0  0  0  0  0  0  0  0  0
  101.8827   18.1030   18.6964 H   0  0  0  0  0  0  0  0  0  0  0  0
  102.3747   15.7802   18.6649 H   0  0  0  0  0  0  0  0  0  0  0  0
  100.7885   15.4388   18.4798 H   0  0  0  0  0  0  0  0  0  0  0  0
  1 12  2  0  0  0  0
  2 13  2  0  0  0  0
  3  4  1  0  0  0  0
  3 12  1  0  0  0  0
  4 13  1  0  0  0  0
  5 11  2  0  0  0  0
  5 14  1  0  0  0  0
  6 11  1  0  0  0  0
  6 15  1  0  0  0  0
  7  8  1  0  0  0  0
  8  9  1  0  0  0  0
  9 10  1  0  0  0  0
 10 11  1  0  0  0  0
 12 14  1  0  0  0  0
 13 15  1  0  0  0  0
 14 15  2  0  0  0  0
  3 16  1  0  0  0  0
  4 17  1  0  0  0  0
  6 18  1  0  0  0  0
  7 19  1  0  0  0  0
  7 20  1  0  0  0  0
  7 21  1  0  0  0  0
  8 22  1  0  0  0  0
  8 23  1  0  0  0  0
  9 24  1  0  0  0  0
  9 25  1  0  0  0  0
 10 26  1  0  0  0  0
 10 27  1  0  0  0  0
M  END
> <pdb_id>
2Z1W

> <uniprot_id>
P28720

> <usmiles>
O=C1NNC(=O)C=2NC(=NC12)CCCC

$$$$
BDS_B_250
          07192419033D 1   1.00000     0.00000     0
            
 46 49  0  0  0  0            999 V2000
   24.7180   -2.2070   14.3340 O   0  0  0  0  0  0  0  0  0  0  0  0
   26.5620   -1.9380   15.4310 O   0  0  0  0  0  0  0  0  0  0  0  0
   24.3200    0.6350   15.3330 O   0  0  0  0  0  0  0  0  0  0  0  0
   25.8170    1.4130   16.6610 O   0  0  0  0  0  0  0  0  0  0  0  0
   25.6790   -8.0200   14.9670 O   0  0  0  0  0  0  0  0  0  0  0  0
   24.7210    4.3520   21.3440 O   0  0  0  0  0  0  0  0  0  0  0  0
   27.6050   -7.0370   15.6980 O   0  0  0  0  0  0  0  0  0  0  0  0
   23.4380    4.5590   19.4680 O   0  0  0  0  0  0  0  0  0  0  0  0
   27.1090   -8.1690   14.9660 C   0  0  0  0  0  0  0  0  0  0  0  0
   24.0360    5.3150   20.5450 C   0  0  0  0  0  0  0  0  0  0  0  0
   24.1400   -6.2760   15.7960 C   0  0  0  0  0  0  0  0  0  0  0  0
   25.1050    1.9310   21.1290 C   0  0  0  0  0  0  0  0  0  0  0  0
   24.1210   -5.0600   16.4960 C   0  0  0  0  0  0  0  0  0  0  0  0
   24.7750    0.7910   20.3780 C   0  0  0  0  0  0  0  0  0  0  0  0
   26.5430   -5.0460   16.7250 C   0  0  0  0  0  0  0  0  0  0  0  0
   23.4790    2.1610   18.8500 C   0  0  0  0  0  0  0  0  0  0  0  0
   25.1990   -3.0960   17.6910 C   0  0  0  0  0  0  0  0  0  0  0  0
   23.6780   -0.3610   18.4260 C   0  0  0  0  0  0  0  0  0  0  0  0
   25.3170   -2.0600   15.4140 C   0  0  0  0  0  0  0  0  0  0  0  0
   24.9600    0.5230   16.4060 C   0  0  0  0  0  0  0  0  0  0  0  0
   25.3890   -6.8800   15.6020 C   0  0  0  0  0  0  0  0  0  0  0  0
   24.5390    3.1480   20.7900 C   0  0  0  0  0  0  0  0  0  0  0  0
   26.5540   -6.2590   16.0310 C   0  0  0  0  0  0  0  0  0  0  0  0
   23.8000    3.2760   19.6090 C   0  0  0  0  0  0  0  0  0  0  0  0
   25.2950   -4.4250   16.9530 C   0  0  0  0  0  0  0  0  0  0  0  0
   23.9780    0.8920   19.2280 C   0  0  0  0  0  0  0  0  0  0  0  0
   24.5510   -2.0160   16.7380 C   0  0  2  0  0  0  0  0  0  0  0  0
   24.7650   -0.6260   17.3730 C   0  0  2  0  0  0  0  0  0  0  0  0
   23.7228   -2.3043   14.3234 H   0  0  0  0  0  0  0  0  0  0  0  0
   23.6304   -0.0467   15.0886 H   0  0  0  0  0  0  0  0  0  0  0  0
   27.4617   -8.1636   14.0303 H   0  0  0  0  0  0  0  0  0  0  0  0
   27.3732   -9.0216   15.4169 H   0  0  0  0  0  0  0  0  0  0  0  0
   24.6780    5.9914   20.1841 H   0  0  0  0  0  0  0  0  0  0  0  0
   23.3308    5.7780   21.0819 H   0  0  0  0  0  0  0  0  0  0  0  0
   23.2991   -6.6930   15.4509 H   0  0  0  0  0  0  0  0  0  0  0  0
   25.7404    1.8645   21.8983 H   0  0  0  0  0  0  0  0  0  0  0  0
   23.2389   -4.6256   16.6784 H   0  0  0  0  0  0  0  0  0  0  0  0
   25.1127   -0.1048   20.6670 H   0  0  0  0  0  0  0  0  0  0  0  0
   27.3925   -4.6305   17.0501 H   0  0  0  0  0  0  0  0  0  0  0  0
   22.8987    2.2530   18.0408 H   0  0  0  0  0  0  0  0  0  0  0  0
   26.1142   -2.7970   17.9613 H   0  0  0  0  0  0  0  0  0  0  0  0
   24.6302   -3.2067   18.5060 H   0  0  0  0  0  0  0  0  0  0  0  0
   22.7981   -0.2489   17.9643 H   0  0  0  0  0  0  0  0  0  0  0  0
   23.6306   -1.1422   19.0485 H   0  0  0  0  0  0  0  0  0  0  0  0
   23.5783   -2.1999   16.5962 H   0  0  0  0  0  0  0  0  0  0  0  0
   25.6218   -0.6942   17.8840 H   0  0  0  0  0  0  0  0  0  0  0  0
  1 19  1  0  0  0  0
  2 19  2  0  0  0  0
  3 20  1  0  0  0  0
  4 20  2  0  0  0  0
  5  9  1  0  0  0  0
  5 21  1  0  0  0  0
  6 10  1  0  0  0  0
  6 22  1  0  0  0  0
  7  9  1  0  0  0  0
  7 23  1  0  0  0  0
  8 10  1  0  0  0  0
  8 24  1  0  0  0  0
 11 13  2  0  0  0  0
 11 21  1  0  0  0  0
 12 14  2  0  0  0  0
 12 22  1  0  0  0  0
 13 25  1  0  0  0  0
 14 26  1  0  0  0  0
 15 23  1  0  0  0  0
 15 25  2  0  0  0  0
 16 24  1  0  0  0  0
 16 26  2  0  0  0  0
 17 25  1  0  0  0  0
 17 27  1  0  0  0  0
 18 26  1  0  0  0  0
 18 28  1  0  0  0  0
 19 27  1  0  0  0  0
 20 28  1  0  0  0  0
 21 23  2  0  0  0  0
 22 24  2  0  0  0  0
 27 28  1  0  0  0  0
  1 29  1  0  0  0  0
  3 30  1  0  0  0  0
  9 31  1  0  0  0  0
  9 32  1  0  0  0  0
 10 33  1  0  0  0  0
 10 34  1  0  0  0  0
 11 35  1  0  0  0  0
 12 36  1  0  0  0  0
 13 37  1  0  0  0  0
 14 38  1  0  0  0  0
 15 39  1  0  0  0  0
 16 40  1  0  0  0  0
 17 41  1  0  0  0  0
 17 42  1  0  0  0  0
 18 43  1  0  0  0  0
 18 44  1  0  0  0  0
 27 45  1  0  0  0  0
 28 46  1  0  0  0  0
M  END
> <pdb_id>
1JJT

> <uniprot_id>
P52699

> <usmiles>
O=C(O)[C@H]([C@@H](C(=O)O)Cc1cc2OCOc2cc1)Cc3cc4OCOc4cc3

$$$$
BEA_A_801
          07202409213D 1   1.00000     0.00000     0
            
 20 22  0  0  0  0            999 V2000
    5.2863  -10.9054    3.5983 S   0  0  0  0  0  0  0  0  0  0  0  0
    7.7953  -13.1361    2.0096 N   0  0  0  0  0  0  0  0  0  0  0  0
    6.7393  -12.5854    1.8503 N   0  0  0  0  0  0  0  0  0  0  0  0
    7.4078  -12.0612    3.8407 N   0  0  0  0  0  0  0  0  0  0  0  0
    9.2341  -12.1137    6.1179 C   0  0  0  0  0  0  0  0  0  0  0  0
    8.2749  -12.8632    3.2158 C   0  0  0  0  0  0  0  0  0  0  0  0
    6.5124   -9.9568    7.2682 C   0  0  0  0  0  0  0  0  0  0  0  0
    5.7087   -9.9982    6.1390 C   0  0  0  0  0  0  0  0  0  0  0  0
    7.6959  -10.6771    7.2426 C   0  0  0  0  0  0  0  0  0  0  0  0
    6.4280  -11.8937    2.9404 C   0  0  0  0  0  0  0  0  0  0  0  0
    6.0706  -10.7015    5.0662 C   0  0  0  0  0  0  0  0  0  0  0  0
    7.2255  -11.4130    5.0219 C   0  0  0  0  0  0  0  0  0  0  0  0
    8.0298  -11.4003    6.1009 C   0  0  0  0  0  0  0  0  0  0  0  0
    9.3542  -12.5858    5.2445 H   0  0  0  0  0  0  0  0  0  0  0  0
    9.9946  -11.4805    6.2619 H   0  0  0  0  0  0  0  0  0  0  0  0
    9.2138  -12.7844    6.8593 H   0  0  0  0  0  0  0  0  0  0  0  0
    9.1376  -13.1999    3.5930 H   0  0  0  0  0  0  0  0  0  0  0  0
    6.2473   -9.4257    8.0729 H   0  0  0  0  0  0  0  0  0  0  0  0
    4.8455   -9.4933    6.1294 H   0  0  0  0  0  0  0  0  0  0  0  0
    8.3040  -10.6775    8.0364 H   0  0  0  0  0  0  0  0  0  0  0  0
  1 10  1  0  0  0  0
  1 11  1  0  0  0  0
  2  3  1  0  0  0  0
  2  6  2  0  0  0  0
  3 10  2  0  0  0  0
  4  6  1  0  0  0  0
  4 10  1  0  0  0  0
  4 12  1  0  0  0  0
  5 13  1  0  0  0  0
  7  8  2  0  0  0  0
  7  9  1  0  0  0  0
  8 11  1  0  0  0  0
  9 13  2  0  0  0  0
 11 12  2  0  0  0  0
 12 13  1  0  0  0  0
  5 14  1  0  0  0  0
  5 15  1  0  0  0  0
  5 16  1  0  0  0  0
  6 17  1  0  0  0  0
  7 18  1  0  0  0  0
  8 19  1  0  0  0  0
  9 20  1  0  0  0  0
M  END
> <pdb_id>
5EQ1

> <uniprot_id>
P55201

> <usmiles>
S1c2c(N3C1=NN=C3)c(ccc2)C

$$$$
BEU_A_1594
          07202405173D 1   1.00000     0.00000     0
            
 31 31  0  0  0  0            999 V2000
   25.3000    3.6480  288.2261 O   0  0  0  0  0  0  0  0  0  0  0  0
   27.4826    1.5414  293.3677 O   0  0  0  0  0  0  0  0  0  0  0  0
   30.1790    4.0152  291.1568 O   0  0  0  0  0  0  0  0  0  0  0  0
   27.9169    5.0838  289.8572 O   0  0  0  0  0  0  0  0  0  0  0  0
   28.5759    0.3087  289.2662 N   0  0  0  0  0  0  0  0  0  0  0  0
   29.5520    1.3793  292.5559 N   0  0  0  0  0  0  0  0  0  0  0  0
   29.1345    0.8393  294.8771 C   0  0  0  0  0  0  0  0  0  0  0  0
   25.4771    3.5556  289.6338 C   0  0  0  0  0  0  0  0  0  0  0  0
   26.8373    1.6224  290.3054 C   0  0  0  0  0  0  0  0  0  0  0  0
   28.6490    1.2873  293.5401 C   0  0  0  0  0  0  0  0  0  0  0  0
   28.9396    3.2986  291.1316 C   0  0  1  0  0  0  0  0  0  0  0  0
   28.1284    3.6690  289.8751 C   0  0  1  0  0  0  0  0  0  0  0  0
   28.1359    0.8932  290.5415 C   0  0  2  0  0  0  0  0  0  0  0  0
   29.2262    1.7904  291.1865 C   0  0  2  0  0  0  0  0  0  0  0  0
   26.8186    2.9163  289.9356 C   0  0  0  0  0  0  0  0  0  0  0  0
   24.4150    4.0697  288.0285 H   0  0  0  0  0  0  0  0  0  0  0  0
   30.6927    3.7639  291.9771 H   0  0  0  0  0  0  0  0  0  0  0  0
   27.3906    5.3319  289.0439 H   0  0  0  0  0  0  0  0  0  0  0  0
   29.4375   -0.1800  289.4032 H   0  0  0  0  0  0  0  0  0  0  0  0
   27.8805   -0.3284  288.9340 H   0  0  0  0  0  0  0  0  0  0  0  0
   30.5034    1.1548  292.7668 H   0  0  0  0  0  0  0  0  0  0  0  0
   30.1200    0.6751  294.8360 H   0  0  0  0  0  0  0  0  0  0  0  0
   28.9426    1.5479  295.5560 H   0  0  0  0  0  0  0  0  0  0  0  0
   28.6663   -0.0057  295.1357 H   0  0  0  0  0  0  0  0  0  0  0  0
   24.7462    2.9966  290.0254 H   0  0  0  0  0  0  0  0  0  0  0  0
   25.4470    4.4715  290.0341 H   0  0  0  0  0  0  0  0  0  0  0  0
   25.9726    1.1348  290.4260 H   0  0  0  0  0  0  0  0  0  0  0  0
   28.4085    3.5518  291.9402 H   0  0  0  0  0  0  0  0  0  0  0  0
   28.6343    3.3956  289.0570 H   0  0  0  0  0  0  0  0  0  0  0  0
   27.9505    0.1399  291.1725 H   0  0  0  0  0  0  0  0  0  0  0  0
   30.0570    1.6466  290.6489 H   0  0  0  0  0  0  0  0  0  0  0  0
  1  8  1  0  0  0  0
  2 10  2  0  0  0  0
  3 11  1  0  0  0  0
  4 12  1  0  0  0  0
  5 13  1  0  0  0  0
  6 10  1  0  0  0  0
  6 14  1  0  0  0  0
  7 10  1  0  0  0  0
  8 15  1  0  0  0  0
  9 13  1  0  0  0  0
  9 15  2  0  0  0  0
 11 12  1  0  0  0  0
 11 14  1  0  0  0  0
 12 15  1  0  0  0  0
 13 14  1  0  0  0  0
  1 16  1  0  0  0  0
  3 17  1  0  0  0  0
  4 18  1  0  0  0  0
  5 19  1  0  0  0  0
  5 20  1  0  0  0  0
  6 21  1  0  0  0  0
  7 22  1  0  0  0  0
  7 23  1  0  0  0  0
  7 24  1  0  0  0  0
  8 25  1  0  0  0  0
  8 26  1  0  0  0  0
  9 27  1  0  0  0  0
 11 28  1  0  0  0  0
 12 29  1  0  0  0  0
 13 30  1  0  0  0  0
 14 31  1  0  0  0  0
M  END
> <pdb_id>
2JIW

> <uniprot_id>
Q89ZI2

> <usmiles>
O=C(N[C@@H]1[C@@H](O)[C@H](O)C(=C[C@H]1N)CO)C

$$$$
BG6_A_401
          07202401053D 1   1.00000     0.00000     0
            
 29 29  0  0  0  0            999 V2000
   38.2053   80.2504   45.7585 P   0  0  0  0  0  0  0  0  0  0  0  0
   38.8582   80.2654   47.1257 O   0  0  0  0  0  0  0  0  0  0  0  0
   36.7064   80.0780   45.8376 O   0  0  0  0  0  0  0  0  0  0  0  0
   38.9063   79.3238   44.7713 O   0  0  0  0  0  0  0  0  0  0  0  0
   41.6133   85.5266   44.3424 O   0  0  0  0  0  0  0  0  0  0  0  0
   41.6898   86.1192   41.6647 O   0  0  0  0  0  0  0  0  0  0  0  0
   39.9898   84.4204   39.8971 O   0  0  0  0  0  0  0  0  0  0  0  0
   37.3952   83.9040   41.5703 O   0  0  0  0  0  0  0  0  0  0  0  0
   38.4642   81.7436   45.2157 O   0  0  0  0  0  0  0  0  0  0  0  0
   40.1316   83.6742   43.9655 O   0  0  0  0  0  0  0  0  0  0  0  0
   38.2225   82.1183   43.8416 C   0  0  0  0  0  0  0  0  0  0  0  0
   40.5679   84.9871   43.5544 C   0  0  2  0  0  0  0  0  0  0  0  0
   40.9446   84.9516   42.0685 C   0  0  1  0  0  0  0  0  0  0  0  0
   39.6431   84.8109   41.2736 C   0  0  2  0  0  0  0  0  0  0  0  0
   38.7651   83.7026   41.9339 C   0  0  1  0  0  0  0  0  0  0  0  0
   38.7989   83.4944   43.4714 C   0  0  2  0  0  0  0  0  0  0  0  0
   39.8461   80.3812   47.0221 H   0  0  0  0  0  0  0  0  0  0  0  0
   36.3221   80.0743   44.9144 H   0  0  0  0  0  0  0  0  0  0  0  0
   41.8581   86.4324   43.9966 H   0  0  0  0  0  0  0  0  0  0  0  0
   41.9126   86.0526   40.6922 H   0  0  0  0  0  0  0  0  0  0  0  0
   39.1535   84.3222   39.3578 H   0  0  0  0  0  0  0  0  0  0  0  0
   36.8305   83.1948   41.9924 H   0  0  0  0  0  0  0  0  0  0  0  0
   37.2346   82.1370   43.6876 H   0  0  0  0  0  0  0  0  0  0  0  0
   38.6395   81.4302   43.2478 H   0  0  0  0  0  0  0  0  0  0  0  0
   39.7834   85.6006   43.6452 H   0  0  0  0  0  0  0  0  0  0  0  0
   41.5077   84.1420   41.9025 H   0  0  0  0  0  0  0  0  0  0  0  0
   39.1495   85.6806   41.2685 H   0  0  0  0  0  0  0  0  0  0  0  0
   39.0446   82.8350   41.5226 H   0  0  0  0  0  0  0  0  0  0  0  0
   38.2188   84.1935   43.8894 H   0  0  0  0  0  0  0  0  0  0  0  0
  1  2  1  0  0  0  0
  1  3  1  0  0  0  0
  1  4  2  0  0  0  0
  1  9  1  0  0  0  0
  5 12  1  0  0  0  0
  6 13  1  0  0  0  0
  7 14  1  0  0  0  0
  8 15  1  0  0  0  0
  9 11  1  0  0  0  0
 10 12  1  0  0  0  0
 10 16  1  0  0  0  0
 11 16  1  0  0  0  0
 12 13  1  0  0  0  0
 13 14  1  0  0  0  0
 14 15  1  0  0  0  0
 15 16  1  0  0  0  0
  2 17  1  0  0  0  0
  3 18  1  0  0  0  0
  5 19  1  0  0  0  0
  6 20  1  0  0  0  0
  7 21  1  0  0  0  0
  8 22  1  0  0  0  0
 11 23  1  0  0  0  0
 11 24  1  0  0  0  0
 12 25  1  0  0  0  0
 13 26  1  0  0  0  0
 14 27  1  0  0  0  0
 15 28  1  0  0  0  0
 16 29  1  0  0  0  0
M  END
> <pdb_id>
3BXG

> <uniprot_id>
O32253

> <usmiles>
P(=O)(OC[C@H]1O[C@@H](O)[C@H](O)[C@@H](O)[C@@H]1O)(O)O

$$$$
BGU_A_400
          07202407253D 1   1.00000     0.00000     0
            
 24 26  0  0  0  0            999 V2000
  103.5093   16.8894   24.0512 O   0  0  0  0  0  0  0  0  0  0  0  0
   99.2611   15.5587   24.8666 N   0  0  0  0  0  0  0  0  0  0  0  0
  102.9612   17.1399   16.5022 N   0  0  0  0  0  0  0  0  0  0  0  0
  101.3933   16.2327   24.4390 N   0  0  0  0  0  0  0  0  0  0  0  0
  101.5075   16.3644   18.1179 N   0  0  0  0  0  0  0  0  0  0  0  0
  103.4974   17.0059   18.7429 N   0  0  0  0  0  0  0  0  0  0  0  0
   99.9836   15.6029   22.7187 N   0  0  0  0  0  0  0  0  0  0  0  0
  100.5877   15.8208   20.3879 C   0  0  0  0  0  0  0  0  0  0  0  0
  103.1631   16.7504   21.2127 C   0  0  0  0  0  0  0  0  0  0  0  0
  100.2336   15.7678   24.0022 C   0  0  0  0  0  0  0  0  0  0  0  0
  102.6599   16.7703   17.7552 C   0  0  0  0  0  0  0  0  0  0  0  0
  102.3939   16.5304   23.6093 C   0  0  0  0  0  0  0  0  0  0  0  0
  101.5457   16.2442   19.4781 C   0  0  0  0  0  0  0  0  0  0  0  0
  102.7995   16.7292   19.8731 C   0  0  0  0  0  0  0  0  0  0  0  0
  100.9144   15.8969   21.7419 C   0  0  0  0  0  0  0  0  0  0  0  0
  102.1762   16.3840   22.1289 C   0  0  0  0  0  0  0  0  0  0  0  0
   98.3793   15.2077   24.5518 H   0  0  0  0  0  0  0  0  0  0  0  0
   99.4050   15.7511   25.8373 H   0  0  0  0  0  0  0  0  0  0  0  0
  103.8859   17.4497   16.2810 H   0  0  0  0  0  0  0  0  0  0  0  0
  102.2613   17.1057   15.7889 H   0  0  0  0  0  0  0  0  0  0  0  0
  101.5231   16.3648   25.4217 H   0  0  0  0  0  0  0  0  0  0  0  0
  100.7274   16.1715   17.5228 H   0  0  0  0  0  0  0  0  0  0  0  0
   99.6994   15.4751   20.0854 H   0  0  0  0  0  0  0  0  0  0  0  0
  104.0823   17.0139   21.5053 H   0  0  0  0  0  0  0  0  0  0  0  0
  1 12  2  0  0  0  0
  2 10  1  0  0  0  0
  3 11  1  0  0  0  0
  4 10  1  0  0  0  0
  4 12  1  0  0  0  0
  5 11  1  0  0  0  0
  5 13  1  0  0  0  0
  6 11  2  0  0  0  0
  6 14  1  0  0  0  0
  7 10  2  0  0  0  0
  7 15  1  0  0  0  0
  8 13  1  0  0  0  0
  8 15  2  0  0  0  0
  9 14  1  0  0  0  0
  9 16  2  0  0  0  0
 12 16  1  0  0  0  0
 13 14  2  0  0  0  0
 15 16  1  0  0  0  0
  2 17  1  0  0  0  0
  2 18  1  0  0  0  0
  3 19  1  0  0  0  0
  3 20  1  0  0  0  0
  4 21  1  0  0  0  0
  5 22  1  0  0  0  0
  8 23  1  0  0  0  0
  9 24  1  0  0  0  0
M  END
> <pdb_id>
2Z7K

> <uniprot_id>
P28720

> <usmiles>
O=C1NC(=Nc2c1cc3N=C(Nc3c2)N)N

$$$$
BHM_A_1
          07202400533D 1   1.00000     0.00000     0
            
 31 31  0  0  0  0            999 V2000
   30.5192    1.4901    6.2866 Br  0  0  0  0  0  0  0  0  0  0  0  0
   23.3800    4.2270    5.6130 F   0  0  0  0  0  0  0  0  0  0  0  0
   22.9254    4.4237    3.5085 F   0  0  0  0  0  0  0  0  0  0  0  0
   23.5829    2.5643    4.2736 F   0  0  0  0  0  0  0  0  0  0  0  0
   23.4557    6.5655    4.4483 O   0  5  0  0  0  0  0  0  0  0  0  0
   25.2916    7.9568    3.6906 O   0  0  0  0  0  0  0  0  0  0  0  0
   27.2236    0.8334    4.3462 O   0  0  0  0  0  0  0  0  0  0  0  0
   30.5671    1.2611    3.2022 O   0  0  0  0  0  0  0  0  0  0  0  0
   28.4708    2.6290    3.7251 N   0  0  0  0  0  0  0  0  0  0  0  0
   24.7924    6.6579    3.9780 N   0  3  0  0  0  0  0  0  0  0  0  0
   29.2016   -0.7242    2.9064 C   0  0  0  0  0  0  0  0  0  0  0  0
   30.0229   -0.0196    5.1675 C   0  0  0  0  0  0  0  0  0  0  0  0
   27.8988    4.8865    3.5256 C   0  0  0  0  0  0  0  0  0  0  0  0
   26.9404    5.8921    3.5815 C   0  0  0  0  0  0  0  0  0  0  0  0
   26.2025    3.2961    4.1034 C   0  0  0  0  0  0  0  0  0  0  0  0
   28.2842    1.3337    3.9708 C   0  0  0  0  0  0  0  0  0  0  0  0
   27.5325    3.5724    3.7974 C   0  0  0  0  0  0  0  0  0  0  0  0
   25.6156    5.6107    3.9044 C   0  0  0  0  0  0  0  0  0  0  0  0
   25.2249    4.2918    4.1535 C   0  0  0  0  0  0  0  0  0  0  0  0
   23.7608    3.8772    4.3881 C   0  0  0  0  0  0  0  0  0  0  0  0
   29.5366    0.4703    3.8013 C   0  0  1  0  0  0  0  0  0  0  0  0
   30.7780    2.0384    3.7950 H   0  0  0  0  0  0  0  0  0  0  0  0
   29.3920    2.9179    3.4645 H   0  0  0  0  0  0  0  0  0  0  0  0
   28.4809   -1.2696    3.3344 H   0  0  0  0  0  0  0  0  0  0  0  0
   28.8868   -0.3957    2.0159 H   0  0  0  0  0  0  0  0  0  0  0  0
   30.0182   -1.2883    2.7839 H   0  0  0  0  0  0  0  0  0  0  0  0
   29.2906   -0.5343    5.6134 H   0  0  0  0  0  0  0  0  0  0  0  0
   30.8182   -0.6126    5.0415 H   0  0  0  0  0  0  0  0  0  0  0  0
   28.8458    5.1066    3.2914 H   0  0  0  0  0  0  0  0  0  0  0  0
   27.2077    6.8357    3.3861 H   0  0  0  0  0  0  0  0  0  0  0  0
   25.9380    2.3508    4.2940 H   0  0  0  0  0  0  0  0  0  0  0  0
  1 12  1  0  0  0  0
  2 20  1  0  0  0  0
  3 20  1  0  0  0  0
  4 20  1  0  0  0  0
  5 10  1  0  0  0  0
  6 10  2  0  0  0  0
  7 16  2  0  0  0  0
  8 21  1  0  0  0  0
  9 16  1  0  0  0  0
  9 17  1  0  0  0  0
 10 18  1  0  0  0  0
 11 21  1  0  0  0  0
 12 21  1  0  0  0  0
 13 14  1  0  0  0  0
 13 17  2  0  0  0  0
 14 18  2  0  0  0  0
 15 17  1  0  0  0  0
 15 19  2  0  0  0  0
 16 21  1  0  0  0  0
 18 19  1  0  0  0  0
 19 20  1  0  0  0  0
  8 22  1  0  0  0  0
  9 23  1  0  0  0  0
 11 24  1  0  0  0  0
 11 25  1  0  0  0  0
 11 26  1  0  0  0  0
 12 27  1  0  0  0  0
 12 28  1  0  0  0  0
 13 29  1  0  0  0  0
 14 30  1  0  0  0  0
 15 31  1  0  0  0  0
M  CHG  2   5  -1  10   1
M  END
> <pdb_id>
2AX9

> <uniprot_id>
P10275

> <usmiles>
BrC[C@](O)(C(=O)Nc1cc(c([N+]([O-])=O)cc1)C(F)(F)F)C

$$$$
BHX_A_1
          07202412173D 1   1.00000     0.00000     0
            
 33 32  0  0  0  0            999 V2000
   17.5343   43.7839   43.5840 P   0  0  0  0  0  0  0  0  0  0  0  0
   18.2593   42.8704   42.5447 O   0  0  0  0  0  0  0  0  0  0  0  0
   16.7253   42.9914   44.5270 O   0  0  0  0  0  0  0  0  0  0  0  0
   19.7041   46.8890   45.9690 O   0  0  0  0  0  0  0  0  0  0  0  0
   20.4820   47.7994   44.2030 O   0  0  0  0  0  0  0  0  0  0  0  0
   13.1595   46.8831   39.2699 O   0  0  0  0  0  0  0  0  0  0  0  0
   13.9292   48.6612   40.3299 O   0  0  0  0  0  0  0  0  0  0  0  0
   18.0103   45.3018   40.4710 O   0  0  0  0  0  0  0  0  0  0  0  0
   17.1249   43.6268   39.3238 O   0  0  0  0  0  0  0  0  0  0  0  0
   18.6944   44.6762   44.5999 C   0  0  0  0  0  0  0  0  0  0  0  0
   16.3389   44.8463   42.7413 C   0  0  0  0  0  0  0  0  0  0  0  0
   19.4159   45.6934   43.8099 C   0  0  0  0  0  0  0  0  0  0  0  0
   15.0080   46.6171   40.7751 C   0  0  0  0  0  0  0  0  0  0  0  0
   14.6988   45.1121   40.7036 C   0  0  0  0  0  0  0  0  0  0  0  0
   19.8981   46.8365   44.7415 C   0  0  0  0  0  0  0  0  0  0  0  0
   13.9353   47.4284   40.0965 C   0  0  0  0  0  0  0  0  0  0  0  0
   17.1000   44.4405   40.3407 C   0  0  0  0  0  0  0  0  0  0  0  0
   15.9266   44.3429   41.3207 C   0  0  1  0  0  0  0  0  0  0  0  0
   18.7980   43.4372   41.9213 H   0  0  0  0  0  0  0  0  0  0  0  0
   19.2393   46.1357   46.4344 H   0  0  0  0  0  0  0  0  0  0  0  0
   13.2036   45.8955   39.1192 H   0  0  0  0  0  0  0  0  0  0  0  0
   17.9971   45.9295   41.2493 H   0  0  0  0  0  0  0  0  0  0  0  0
   19.3552   44.0318   44.9849 H   0  0  0  0  0  0  0  0  0  0  0  0
   18.1992   45.1287   45.3415 H   0  0  0  0  0  0  0  0  0  0  0  0
   16.7403   45.7574   42.6472 H   0  0  0  0  0  0  0  0  0  0  0  0
   15.5154   44.9017   43.3059 H   0  0  0  0  0  0  0  0  0  0  0  0
   18.8041   46.0684   43.1134 H   0  0  0  0  0  0  0  0  0  0  0  0
   20.2063   45.2706   43.3666 H   0  0  0  0  0  0  0  0  0  0  0  0
   15.8832   46.7918   40.3240 H   0  0  0  0  0  0  0  0  0  0  0  0
   15.0667   46.8924   41.7347 H   0  0  0  0  0  0  0  0  0  0  0  0
   14.5672   44.8360   39.7515 H   0  0  0  0  0  0  0  0  0  0  0  0
   13.8713   44.9088   41.2269 H   0  0  0  0  0  0  0  0  0  0  0  0
   15.6743   43.3784   41.3998 H   0  0  0  0  0  0  0  0  0  0  0  0
  1  2  1  0  0  0  0
  1  3  2  0  0  0  0
  1 10  1  0  0  0  0
  1 11  1  0  0  0  0
  4 15  1  0  0  0  0
  5 15  2  0  0  0  0
  6 16  1  0  0  0  0
  7 16  2  0  0  0  0
  8 17  1  0  0  0  0
  9 17  2  0  0  0  0
 10 12  1  0  0  0  0
 11 18  1  0  0  0  0
 12 15  1  0  0  0  0
 13 14  1  0  0  0  0
 13 16  1  0  0  0  0
 14 18  1  0  0  0  0
 17 18  1  0  0  0  0
  2 19  1  0  0  0  0
  4 20  1  0  0  0  0
  6 21  1  0  0  0  0
  8 22  1  0  0  0  0
 10 23  1  0  0  0  0
 10 24  1  0  0  0  0
 11 25  1  0  0  0  0
 11 26  1  0  0  0  0
 12 27  1  0  0  0  0
 12 28  1  0  0  0  0
 13 29  1  0  0  0  0
 13 30  1  0  0  0  0
 14 31  1  0  0  0  0
 14 32  1  0  0  0  0
 18 33  1  0  0  0  0
M  END
> <pdb_id>
3BHX

> <uniprot_id>
Q04609

> <usmiles>
P(=O)(O)(C[C@H](C(=O)O)CCC(=O)O)CCC(=O)O

$$$$
BI7_A_1244
          07192422073D 1   1.00000     0.00000     0
            
 59 63  0  0  0  0            999 V2000
   42.1897   28.6981   12.0167 Cl  0  0  0  0  0  0  0  0  0  0  0  0
   39.8812   27.6110   13.6109 S   0  0  0  0  0  0  0  0  0  0  0  0
   32.3770   31.0642   18.2407 O   0  0  0  0  0  0  0  0  0  0  0  0
   36.3496   29.4126   17.1251 O   0  0  0  0  0  0  0  0  0  0  0  0
   37.4383   26.5368   14.7199 O   0  0  0  0  0  0  0  0  0  0  0  0
   36.2719   26.3811   15.5218 N   0  0  0  0  0  0  0  0  0  0  0  0
   34.5537   30.3937   18.1188 N   0  0  0  0  0  0  0  0  0  0  0  0
   33.1351   28.5125   15.0303 N   0  0  0  0  0  0  0  0  0  0  0  0
   36.9352   33.7436   20.6562 N   0  3  0  0  0  0  0  0  0  0  0  0
   37.9665   32.7870   21.0664 C   0  0  0  0  0  0  0  0  0  0  0  0
   37.5915   35.0440   20.5381 C   0  0  0  0  0  0  0  0  0  0  0  0
   35.8933   33.8419   21.7020 C   0  0  0  0  0  0  0  0  0  0  0  0
   35.0693   31.7597   17.8862 C   0  0  0  0  0  0  0  0  0  0  0  0
   32.4239   27.7426   13.9954 C   0  0  0  0  0  0  0  0  0  0  0  0
   36.3636   33.4357   19.3297 C   0  0  0  0  0  0  0  0  0  0  0  0
   35.7161   32.0671   19.2314 C   0  0  0  0  0  0  0  0  0  0  0  0
   31.1770   27.1492   14.6471 C   0  0  0  0  0  0  0  0  0  0  0  0
   39.4589   29.1185   11.4314 C   0  0  0  0  0  0  0  0  0  0  0  0
   38.1884   28.8151   11.9223 C   0  0  0  0  0  0  0  0  0  0  0  0
   31.0205   27.8386   15.9994 C   0  0  0  0  0  0  0  0  0  0  0  0
   36.0426   28.2303   14.1525 C   0  0  0  0  0  0  0  0  0  0  0  0
   40.4081   28.5480   12.2674 C   0  0  0  0  0  0  0  0  0  0  0  0
   33.1964   30.1999   17.9457 C   0  0  0  0  0  0  0  0  0  0  0  0
   35.1554   29.3742   17.4229 C   0  0  0  0  0  0  0  0  0  0  0  0
   38.2870   28.0328   13.0661 C   0  0  0  0  0  0  0  0  0  0  0  0
   37.2597   27.5847   13.8899 C   0  0  0  0  0  0  0  0  0  0  0  0
   35.4677   27.4042   15.1447 C   0  0  0  0  0  0  0  0  0  0  0  0
   32.1465   28.8720   16.0757 C   0  0  1  0  0  0  0  0  0  0  0  0
   34.1276   27.6814   15.7313 C   0  0  1  0  0  0  0  0  0  0  0  0
   32.8463   28.8386   17.4211 C   0  0  1  0  0  0  0  0  0  0  0  0
   34.2114   28.2244   17.1598 C   0  0  2  0  0  0  0  0  0  0  0  0
   37.5599   31.8782   21.1600 H   0  0  0  0  0  0  0  0  0  0  0  0
   38.6891   32.7593   20.3756 H   0  0  0  0  0  0  0  0  0  0  0  0
   38.3544   33.0706   21.9434 H   0  0  0  0  0  0  0  0  0  0  0  0
   36.9213   35.7314   20.2585 H   0  0  0  0  0  0  0  0  0  0  0  0
   37.9838   35.3008   21.4213 H   0  0  0  0  0  0  0  0  0  0  0  0
   38.3185   34.9895   19.8536 H   0  0  0  0  0  0  0  0  0  0  0  0
   35.1936   34.4961   21.4150 H   0  0  0  0  0  0  0  0  0  0  0  0
   35.4741   32.9446   21.8402 H   0  0  0  0  0  0  0  0  0  0  0  0
   36.3081   34.1514   22.5577 H   0  0  0  0  0  0  0  0  0  0  0  0
   34.3295   32.4003   17.6807 H   0  0  0  0  0  0  0  0  0  0  0  0
   35.7403   31.7765   17.1449 H   0  0  0  0  0  0  0  0  0  0  0  0
   33.0108   27.0104   13.6498 H   0  0  0  0  0  0  0  0  0  0  0  0
   32.1622   28.3442   13.2407 H   0  0  0  0  0  0  0  0  0  0  0  0
   37.0985   33.4839   18.6532 H   0  0  0  0  0  0  0  0  0  0  0  0
   35.6711   34.1257   19.1192 H   0  0  0  0  0  0  0  0  0  0  0  0
   36.4196   31.3773   19.4029 H   0  0  0  0  0  0  0  0  0  0  0  0
   35.0101   32.0058   19.9369 H   0  0  0  0  0  0  0  0  0  0  0  0
   31.2898   26.1637   14.7734 H   0  0  0  0  0  0  0  0  0  0  0  0
   30.3741   27.3225   14.0767 H   0  0  0  0  0  0  0  0  0  0  0  0
   39.6532   29.6581   10.6122 H   0  0  0  0  0  0  0  0  0  0  0  0
   37.3292   29.1177   11.5095 H   0  0  0  0  0  0  0  0  0  0  0  0
   31.1077   27.1735   16.7411 H   0  0  0  0  0  0  0  0  0  0  0  0
   30.1299   28.2894   16.0590 H   0  0  0  0  0  0  0  0  0  0  0  0
   35.6746   29.0644   13.7416 H   0  0  0  0  0  0  0  0  0  0  0  0
   31.7829   29.7872   15.9021 H   0  0  0  0  0  0  0  0  0  0  0  0
   33.6951   26.7843   15.8215 H   0  0  0  0  0  0  0  0  0  0  0  0
   32.3274   28.3087   18.0919 H   0  0  0  0  0  0  0  0  0  0  0  0
   34.3850   27.4794   17.8038 H   0  0  0  0  0  0  0  0  0  0  0  0
  1 22  1  0  0  0  0
  2 22  1  0  0  0  0
  2 25  1  0  0  0  0
  3 23  2  0  0  0  0
  4 24  2  0  0  0  0
  5  6  1  0  0  0  0
  5 26  1  0  0  0  0
  6 27  2  0  0  0  0
  7 13  1  0  0  0  0
  7 23  1  0  0  0  0
  7 24  1  0  0  0  0
  8 14  1  0  0  0  0
  8 28  1  0  0  0  0
  8 29  1  0  0  0  0
  9 10  1  0  0  0  0
  9 11  1  0  0  0  0
  9 12  1  0  0  0  0
  9 15  1  0  0  0  0
 13 16  1  0  0  0  0
 14 17  1  0  0  0  0
 15 16  1  0  0  0  0
 17 20  1  0  0  0  0
 18 19  1  0  0  0  0
 18 22  2  0  0  0  0
 19 25  2  0  0  0  0
 20 28  1  0  0  0  0
 21 26  2  0  0  0  0
 21 27  1  0  0  0  0
 23 30  1  0  0  0  0
 24 31  1  0  0  0  0
 25 26  1  0  0  0  0
 27 29  1  0  0  0  0
 28 30  1  0  0  0  0
 29 31  1  0  0  0  0
 30 31  1  0  0  0  0
 10 32  1  0  0  0  0
 10 33  1  0  0  0  0
 10 34  1  0  0  0  0
 11 35  1  0  0  0  0
 11 36  1  0  0  0  0
 11 37  1  0  0  0  0
 12 38  1  0  0  0  0
 12 39  1  0  0  0  0
 12 40  1  0  0  0  0
 13 41  1  0  0  0  0
 13 42  1  0  0  0  0
 14 43  1  0  0  0  0
 14 44  1  0  0  0  0
 15 45  1  0  0  0  0
 15 46  1  0  0  0  0
 16 47  1  0  0  0  0
 16 48  1  0  0  0  0
 17 49  1  0  0  0  0
 17 50  1  0  0  0  0
 18 51  1  0  0  0  0
 19 52  1  0  0  0  0
 20 53  1  0  0  0  0
 20 54  1  0  0  0  0
 21 55  1  0  0  0  0
 28 56  1  0  0  0  0
 29 57  1  0  0  0  0
 30 58  1  0  0  0  0
 31 59  1  0  0  0  0
M  CHG  1   9   1
M  END
> <pdb_id>
2JKH

> <uniprot_id>
P00742

> <usmiles>
ClC=1SC(C=2ON=C(C2)[C@@H]3N4[C@H]([C@@H]5C(=O)N(C(=O)[C@H]35)CCC[N+](C)(C)C)CCC4)=CC1

$$$$
BIG_A_301
          07202415043D 1   1.00000     0.00000     0
            
 48 50  0  0  0  0            999 V2000
  -24.3456   12.3849    4.6161 S   0  0  0  0  0  0  0  0  0  0  0  0
  -25.5642    8.1956    4.5570 O   0  0  0  0  0  0  0  0  0  0  0  0
  -19.7994   12.0146   -1.7104 N   0  0  0  0  0  0  0  0  0  0  0  0
  -19.3380   10.7129    0.2634 N   0  0  0  0  0  0  0  0  0  0  0  0
  -20.9376    9.1434    1.1318 N   0  0  0  0  0  0  0  0  0  0  0  0
  -22.5115   10.5479   -1.7076 N   0  0  0  0  0  0  0  0  0  0  0  0
  -24.6352    8.3133    1.7620 N   0  0  0  0  0  0  0  0  0  0  0  0
  -27.8384   15.6877    4.4268 C   0  0  0  0  0  0  0  0  0  0  0  0
  -25.7332   13.4633    4.3355 C   0  0  0  0  0  0  0  0  0  0  0  0
  -24.4450   11.4266    3.1317 C   0  0  0  0  0  0  0  0  0  0  0  0
  -19.7277    9.7694    1.1633 C   0  0  0  0  0  0  0  0  0  0  0  0
  -23.4976    9.7048   -1.3233 C   0  0  0  0  0  0  0  0  0  0  0  0
  -23.7189    8.3486    2.9202 C   0  0  0  0  0  0  0  0  0  0  0  0
  -25.3809    9.5789    1.7822 C   0  0  0  0  0  0  0  0  0  0  0  0
  -24.0395    7.9513    0.4688 C   0  0  0  0  0  0  0  0  0  0  0  0
  -27.3108   15.0034    5.6475 C   0  0  0  0  0  0  0  0  0  0  0  0
  -25.8700   14.4989    5.4482 C   0  0  0  0  0  0  0  0  0  0  0  0
  -20.1459   11.0763   -0.7888 C   0  0  0  0  0  0  0  0  0  0  0  0
  -24.5780    9.0396    3.9709 C   0  0  1  0  0  0  0  0  0  0  0  0
  -21.4588   10.4559   -0.8737 C   0  0  0  0  0  0  0  0  0  0  0  0
  -21.7994    9.4807    0.1483 C   0  0  0  0  0  0  0  0  0  0  0  0
  -25.2634   10.1436    3.2012 C   0  0  1  0  0  0  0  0  0  0  0  0
  -23.1518    8.9821   -0.2002 C   0  0  0  0  0  0  0  0  0  0  0  0
  -26.0871    8.7140    5.2336 H   0  0  0  0  0  0  0  0  0  0  0  0
  -20.4272   12.2392   -2.4557 H   0  0  0  0  0  0  0  0  0  0  0  0
  -18.9168   12.4798   -1.6429 H   0  0  0  0  0  0  0  0  0  0  0  0
  -22.5582   11.1550   -2.5009 H   0  0  0  0  0  0  0  0  0  0  0  0
  -28.7732   15.9992    4.5971 H   0  0  0  0  0  0  0  0  0  0  0  0
  -27.2597   16.4736    4.2089 H   0  0  0  0  0  0  0  0  0  0  0  0
  -27.8350   15.0479    3.6583 H   0  0  0  0  0  0  0  0  0  0  0  0
  -26.5685   12.9149    4.2974 H   0  0  0  0  0  0  0  0  0  0  0  0
  -25.6055   13.9372    3.4642 H   0  0  0  0  0  0  0  0  0  0  0  0
  -23.5130   11.1780    2.8682 H   0  0  0  0  0  0  0  0  0  0  0  0
  -24.8484   12.0057    2.4232 H   0  0  0  0  0  0  0  0  0  0  0  0
  -19.0883    9.5208    1.8909 H   0  0  0  0  0  0  0  0  0  0  0  0
  -24.3736    9.6161   -1.7973 H   0  0  0  0  0  0  0  0  0  0  0  0
  -22.8948    8.8775    2.7174 H   0  0  0  0  0  0  0  0  0  0  0  0
  -23.4605    7.4267    3.2091 H   0  0  0  0  0  0  0  0  0  0  0  0
  -26.3411    9.4157    1.5556 H   0  0  0  0  0  0  0  0  0  0  0  0
  -24.9873   10.2202    1.1235 H   0  0  0  0  0  0  0  0  0  0  0  0
  -24.7891    7.7465   -0.1605 H   0  0  0  0  0  0  0  0  0  0  0  0
  -23.4895    7.1283    0.6112 H   0  0  0  0  0  0  0  0  0  0  0  0
  -27.8994   14.2235    5.8603 H   0  0  0  0  0  0  0  0  0  0  0  0
  -27.3241   15.6492    6.4109 H   0  0  0  0  0  0  0  0  0  0  0  0
  -25.2891   15.2817    5.2246 H   0  0  0  0  0  0  0  0  0  0  0  0
  -25.5583   14.0863    6.3041 H   0  0  0  0  0  0  0  0  0  0  0  0
  -23.9962    9.4310    4.6840 H   0  0  0  0  0  0  0  0  0  0  0  0
  -26.1699   10.3261    3.5821 H   0  0  0  0  0  0  0  0  0  0  0  0
  1  9  1  0  0  0  0
  1 10  1  0  0  0  0
  2 19  1  0  0  0  0
  3 18  1  0  0  0  0
  4 11  1  0  0  0  0
  4 18  2  0  0  0  0
  5 11  2  0  0  0  0
  5 21  1  0  0  0  0
  6 12  1  0  0  0  0
  6 20  1  0  0  0  0
  7 13  1  0  0  0  0
  7 14  1  0  0  0  0
  7 15  1  0  0  0  0
  8 16  1  0  0  0  0
  9 17  1  0  0  0  0
 10 22  1  0  0  0  0
 12 23  2  0  0  0  0
 13 19  1  0  0  0  0
 14 22  1  0  0  0  0
 15 23  1  0  0  0  0
 16 17  1  0  0  0  0
 18 20  1  0  0  0  0
 19 22  1  0  0  0  0
 20 21  2  0  0  0  0
 21 23  1  0  0  0  0
  2 24  1  0  0  0  0
  3 25  1  0  0  0  0
  3 26  1  0  0  0  0
  6 27  1  0  0  0  0
  8 28  1  0  0  0  0
  8 29  1  0  0  0  0
  8 30  1  0  0  0  0
  9 31  1  0  0  0  0
  9 32  1  0  0  0  0
 10 33  1  0  0  0  0
 10 34  1  0  0  0  0
 11 35  1  0  0  0  0
 12 36  1  0  0  0  0
 13 37  1  0  0  0  0
 13 38  1  0  0  0  0
 14 39  1  0  0  0  0
 14 40  1  0  0  0  0
 15 41  1  0  0  0  0
 15 42  1  0  0  0  0
 16 43  1  0  0  0  0
 16 44  1  0  0  0  0
 17 45  1  0  0  0  0
 17 46  1  0  0  0  0
 19 47  1  0  0  0  0
 22 48  1  0  0  0  0
M  END
> <pdb_id>
4F3C

> <uniprot_id>
E8NLP5

> <usmiles>
S(C[C@@H]1[C@@H](O)CN(CC=2c3ncnc(N)c3NC2)C1)CCCC

$$$$
BIG_A_301
          07212402473D 1   1.00000     0.00000     0
            
 48 50  0  0  0  0            999 V2000
  -33.6687  -35.6028  -57.1791 S   0  0  0  0  0  0  0  0  0  0  0  0
  -29.6523  -36.9259  -55.9345 O   0  0  0  0  0  0  0  0  0  0  0  0
  -33.0702  -28.2865  -55.3383 N   0  0  0  0  0  0  0  0  0  0  0  0
  -32.9212  -30.0635  -53.7328 N   0  0  0  0  0  0  0  0  0  0  0  0
  -31.2726  -31.7856  -53.8933 N   0  0  0  0  0  0  0  0  0  0  0  0
  -30.6749  -29.7001  -56.7054 N   0  0  0  0  0  0  0  0  0  0  0  0
  -29.1847  -34.1389  -56.0486 N   0  0  0  0  0  0  0  0  0  0  0  0
  -34.2676  -37.6797  -61.3377 C   0  0  0  0  0  0  0  0  0  0  0  0
  -33.8703  -36.0006  -58.8955 C   0  0  0  0  0  0  0  0  0  0  0  0
  -32.2818  -34.5307  -57.2046 C   0  0  0  0  0  0  0  0  0  0  0  0
  -32.3252  -31.1982  -53.2642 C   0  0  0  0  0  0  0  0  0  0  0  0
  -29.6873  -30.6328  -56.9345 C   0  0  0  0  0  0  0  0  0  0  0  0
  -30.0555  -34.7420  -55.0287 C   0  0  0  0  0  0  0  0  0  0  0  0
  -29.8305  -34.2945  -57.3806 C   0  0  0  0  0  0  0  0  0  0  0  0
  -28.7557  -32.7920  -55.7455 C   0  0  0  0  0  0  0  0  0  0  0  0
  -35.4215  -37.2867  -60.4596 C   0  0  0  0  0  0  0  0  0  0  0  0
  -34.9812  -37.0409  -59.0263 C   0  0  0  0  0  0  0  0  0  0  0  0
  -32.4881  -29.4280  -54.8492 C   0  0  0  0  0  0  0  0  0  0  0  0
  -30.6446  -35.9016  -55.8105 C   0  0  1  0  0  0  0  0  0  0  0  0
  -31.3636  -30.0083  -55.5863 C   0  0  0  0  0  0  0  0  0  0  0  0
  -30.7930  -31.2187  -55.0212 C   0  0  0  0  0  0  0  0  0  0  0  0
  -30.9572  -35.2899  -57.1696 C   0  0  1  0  0  0  0  0  0  0  0  0
  -29.7022  -31.6217  -55.9237 C   0  0  0  0  0  0  0  0  0  0  0  0
  -30.0304  -37.6958  -56.4487 H   0  0  0  0  0  0  0  0  0  0  0  0
  -32.7106  -27.8575  -56.1669 H   0  0  0  0  0  0  0  0  0  0  0  0
  -33.8542  -27.8833  -54.8663 H   0  0  0  0  0  0  0  0  0  0  0  0
  -30.8560  -28.9065  -57.2863 H   0  0  0  0  0  0  0  0  0  0  0  0
  -34.5953  -37.8326  -62.2701 H   0  0  0  0  0  0  0  0  0  0  0  0
  -33.5859  -36.9481  -61.3397 H   0  0  0  0  0  0  0  0  0  0  0  0
  -33.8536  -38.5201  -60.9879 H   0  0  0  0  0  0  0  0  0  0  0  0
  -33.0157  -36.3726  -59.2579 H   0  0  0  0  0  0  0  0  0  0  0  0
  -34.1181  -35.1769  -59.4055 H   0  0  0  0  0  0  0  0  0  0  0  0
  -32.3274  -33.9279  -56.4080 H   0  0  0  0  0  0  0  0  0  0  0  0
  -32.3153  -33.9822  -58.0401 H   0  0  0  0  0  0  0  0  0  0  0  0
  -32.6763  -31.6139  -52.4252 H   0  0  0  0  0  0  0  0  0  0  0  0
  -29.0508  -30.6133  -57.7056 H   0  0  0  0  0  0  0  0  0  0  0  0
  -30.7638  -34.1046  -54.7254 H   0  0  0  0  0  0  0  0  0  0  0  0
  -29.5318  -35.0591  -54.2380 H   0  0  0  0  0  0  0  0  0  0  0  0
  -29.1742  -34.6456  -58.0485 H   0  0  0  0  0  0  0  0  0  0  0  0
  -30.1928  -33.4182  -57.6981 H   0  0  0  0  0  0  0  0  0  0  0  0
  -27.9612  -32.6079  -56.3243 H   0  0  0  0  0  0  0  0  0  0  0  0
  -28.4763  -32.7902  -54.7854 H   0  0  0  0  0  0  0  0  0  0  0  0
  -36.0999  -38.0214  -60.4684 H   0  0  0  0  0  0  0  0  0  0  0  0
  -35.8322  -36.4493  -60.8202 H   0  0  0  0  0  0  0  0  0  0  0  0
  -35.7726  -36.7254  -58.5026 H   0  0  0  0  0  0  0  0  0  0  0  0
  -34.6517  -37.9045  -58.6447 H   0  0  0  0  0  0  0  0  0  0  0  0
  -31.4725  -36.2507  -55.3715 H   0  0  0  0  0  0  0  0  0  0  0  0
  -30.9393  -35.9928  -57.8807 H   0  0  0  0  0  0  0  0  0  0  0  0
  1  9  1  0  0  0  0
  1 10  1  0  0  0  0
  2 19  1  0  0  0  0
  3 18  1  0  0  0  0
  4 11  1  0  0  0  0
  4 18  2  0  0  0  0
  5 11  2  0  0  0  0
  5 21  1  0  0  0  0
  6 12  1  0  0  0  0
  6 20  1  0  0  0  0
  7 13  1  0  0  0  0
  7 14  1  0  0  0  0
  7 15  1  0  0  0  0
  8 16  1  0  0  0  0
  9 17  1  0  0  0  0
 10 22  1  0  0  0  0
 12 23  2  0  0  0  0
 13 19  1  0  0  0  0
 14 22  1  0  0  0  0
 15 23  1  0  0  0  0
 16 17  1  0  0  0  0
 18 20  1  0  0  0  0
 19 22  1  0  0  0  0
 20 21  2  0  0  0  0
 21 23  1  0  0  0  0
  2 24  1  0  0  0  0
  3 25  1  0  0  0  0
  3 26  1  0  0  0  0
  6 27  1  0  0  0  0
  8 28  1  0  0  0  0
  8 29  1  0  0  0  0
  8 30  1  0  0  0  0
  9 31  1  0  0  0  0
  9 32  1  0  0  0  0
 10 33  1  0  0  0  0
 10 34  1  0  0  0  0
 11 35  1  0  0  0  0
 12 36  1  0  0  0  0
 13 37  1  0  0  0  0
 13 38  1  0  0  0  0
 14 39  1  0  0  0  0
 14 40  1  0  0  0  0
 15 41  1  0  0  0  0
 15 42  1  0  0  0  0
 16 43  1  0  0  0  0
 16 44  1  0  0  0  0
 17 45  1  0  0  0  0
 17 46  1  0  0  0  0
 19 47  1  0  0  0  0
 22 48  1  0  0  0  0
M  END
> <pdb_id>
4FFS

> <uniprot_id>
Q9ZMY2

> <usmiles>
S(C[C@@H]1[C@@H](O)CN(CC=2c3ncnc(N)c3NC2)C1)CCCC

$$$$
BIG_B_301
          07202413423D 1   1.00000     0.00000     0
            
 48 50  0  0  0  0            999 V2000
  -27.3351   27.3155    6.8775 S   0  0  0  0  0  0  0  0  0  0  0  0
  -26.8049   24.3480    3.4692 O   0  0  0  0  0  0  0  0  0  0  0  0
  -24.3715   23.0516   12.2856 N   0  0  0  0  0  0  0  0  0  0  0  0
  -26.3869   22.6164   11.1331 N   0  0  0  0  0  0  0  0  0  0  0  0
  -26.4651   22.3201    8.7719 N   0  0  0  0  0  0  0  0  0  0  0  0
  -23.0323   22.8816    9.4401 N   0  0  0  0  0  0  0  0  0  0  0  0
  -25.1734   23.2836    5.3417 N   0  0  0  0  0  0  0  0  0  0  0  0
  -27.3357   32.4044    5.7819 C   0  0  0  0  0  0  0  0  0  0  0  0
  -26.4031   28.6943    6.2697 C   0  0  0  0  0  0  0  0  0  0  0  0
  -26.1582   26.0393    6.8373 C   0  0  0  0  0  0  0  0  0  0  0  0
  -27.0657   22.3872    9.9851 C   0  0  0  0  0  0  0  0  0  0  0  0
  -22.9585   22.7291    8.0938 C   0  0  0  0  0  0  0  0  0  0  0  0
  -26.6241   23.2788    5.5667 C   0  0  0  0  0  0  0  0  0  0  0  0
  -24.6672   24.6610    5.4537 C   0  0  0  0  0  0  0  0  0  0  0  0
  -24.4928   22.2329    6.0830 C   0  0  0  0  0  0  0  0  0  0  0  0
  -26.4459   31.1748    5.8460 C   0  0  0  0  0  0  0  0  0  0  0  0
  -27.2502   29.9512    6.3018 C   0  0  0  0  0  0  0  0  0  0  0  0
  -25.0283   22.8084   11.1424 C   0  0  0  0  0  0  0  0  0  0  0  0
  -26.9652   24.5696    4.8795 C   0  0  1  0  0  0  0  0  0  0  0  0
  -24.3018   22.7409    9.8612 C   0  0  0  0  0  0  0  0  0  0  0  0
  -25.1311   22.4826    8.6898 C   0  0  0  0  0  0  0  0  0  0  0  0
  -25.9162   25.5141    5.4138 C   0  0  1  0  0  0  0  0  0  0  0  0
  -24.2201   22.4749    7.5403 C   0  0  0  0  0  0  0  0  0  0  0  0
  -27.0236   25.1882    2.9728 H   0  0  0  0  0  0  0  0  0  0  0  0
  -23.3811   23.1891   12.2737 H   0  0  0  0  0  0  0  0  0  0  0  0
  -24.8721   23.0956   13.1502 H   0  0  0  0  0  0  0  0  0  0  0  0
  -22.2520   23.0719   10.0358 H   0  0  0  0  0  0  0  0  0  0  0  0
  -26.7958   33.1914    5.4835 H   0  0  0  0  0  0  0  0  0  0  0  0
  -28.0790   32.2445    5.1323 H   0  0  0  0  0  0  0  0  0  0  0  0
  -27.7181   32.5867    6.6878 H   0  0  0  0  0  0  0  0  0  0  0  0
  -26.1181   28.5116    5.3287 H   0  0  0  0  0  0  0  0  0  0  0  0
  -25.5947   28.8256    6.8434 H   0  0  0  0  0  0  0  0  0  0  0  0
  -26.4826   25.2847    7.4077 H   0  0  0  0  0  0  0  0  0  0  0  0
  -25.2947   26.3864    7.2032 H   0  0  0  0  0  0  0  0  0  0  0  0
  -28.0565   22.2616   10.0342 H   0  0  0  0  0  0  0  0  0  0  0  0
  -22.1122   22.7904    7.5646 H   0  0  0  0  0  0  0  0  0  0  0  0
  -26.8538   23.2987    6.5397 H   0  0  0  0  0  0  0  0  0  0  0  0
  -27.0690   22.4940    5.1351 H   0  0  0  0  0  0  0  0  0  0  0  0
  -24.0620   24.8807    4.6884 H   0  0  0  0  0  0  0  0  0  0  0  0
  -24.1758   24.7902    6.3149 H   0  0  0  0  0  0  0  0  0  0  0  0
  -23.6123   22.0738    5.6363 H   0  0  0  0  0  0  0  0  0  0  0  0
  -25.0542   21.4081    6.0165 H   0  0  0  0  0  0  0  0  0  0  0  0
  -25.7028   31.3401    6.4944 H   0  0  0  0  0  0  0  0  0  0  0  0
  -26.0637   30.9979    4.9390 H   0  0  0  0  0  0  0  0  0  0  0  0
  -27.5732   30.1029    7.2359 H   0  0  0  0  0  0  0  0  0  0  0  0
  -28.0346   29.8314    5.6932 H   0  0  0  0  0  0  0  0  0  0  0  0
  -27.8900   24.8765    5.1041 H   0  0  0  0  0  0  0  0  0  0  0  0
  -25.7894   26.2792    4.7824 H   0  0  0  0  0  0  0  0  0  0  0  0
  1  9  1  0  0  0  0
  1 10  1  0  0  0  0
  2 19  1  0  0  0  0
  3 18  1  0  0  0  0
  4 11  1  0  0  0  0
  4 18  2  0  0  0  0
  5 11  2  0  0  0  0
  5 21  1  0  0  0  0
  6 12  1  0  0  0  0
  6 20  1  0  0  0  0
  7 13  1  0  0  0  0
  7 14  1  0  0  0  0
  7 15  1  0  0  0  0
  8 16  1  0  0  0  0
  9 17  1  0  0  0  0
 10 22  1  0  0  0  0
 12 23  2  0  0  0  0
 13 19  1  0  0  0  0
 14 22  1  0  0  0  0
 15 23  1  0  0  0  0
 16 17  1  0  0  0  0
 18 20  1  0  0  0  0
 19 22  1  0  0  0  0
 20 21  2  0  0  0  0
 21 23  1  0  0  0  0
  2 24  1  0  0  0  0
  3 25  1  0  0  0  0
  3 26  1  0  0  0  0
  6 27  1  0  0  0  0
  8 28  1  0  0  0  0
  8 29  1  0  0  0  0
  8 30  1  0  0  0  0
  9 31  1  0  0  0  0
  9 32  1  0  0  0  0
 10 33  1  0  0  0  0
 10 34  1  0  0  0  0
 11 35  1  0  0  0  0
 12 36  1  0  0  0  0
 13 37  1  0  0  0  0
 13 38  1  0  0  0  0
 14 39  1  0  0  0  0
 14 40  1  0  0  0  0
 15 41  1  0  0  0  0
 15 42  1  0  0  0  0
 16 43  1  0  0  0  0
 16 44  1  0  0  0  0
 17 45  1  0  0  0  0
 17 46  1  0  0  0  0
 19 47  1  0  0  0  0
 22 48  1  0  0  0  0
M  END
> <pdb_id>
6AYR

> <uniprot_id>
nan

> <usmiles>
S(C[C@@H]1[C@@H](O)CN(CC=2c3ncnc(N)c3NC2)C1)CCCC

$$$$
BIG_C_301
          07212402473D 1   1.00000     0.00000     0
            
 48 50  0  0  0  0            999 V2000
   84.6864  157.7176  177.3861 S   0  0  0  0  0  0  0  0  0  0  0  0
   85.5709  162.3696  179.6818 O   0  0  0  0  0  0  0  0  0  0  0  0
   81.0168  161.5985  171.4714 N   0  0  0  0  0  0  0  0  0  0  0  0
   81.1720  163.2037  173.1580 N   0  0  0  0  0  0  0  0  0  0  0  0
   83.0566  163.5063  174.5440 N   0  0  0  0  0  0  0  0  0  0  0  0
   83.9623  160.8347  172.3274 N   0  0  0  0  0  0  0  0  0  0  0  0
   86.0008  161.9789  176.3779 N   0  0  0  0  0  0  0  0  0  0  0  0
   89.4209  157.2320  179.0210 C   0  0  0  0  0  0  0  0  0  0  0  0
   85.6192  157.2437  178.7712 C   0  0  0  0  0  0  0  0  0  0  0  0
   84.2103  159.3205  178.0142 C   0  0  0  0  0  0  0  0  0  0  0  0
   81.8045  163.7986  174.1635 C   0  0  0  0  0  0  0  0  0  0  0  0
   85.1081  160.9272  173.0643 C   0  0  0  0  0  0  0  0  0  0  0  0
   84.9934  162.6025  177.2562 C   0  0  0  0  0  0  0  0  0  0  0  0
   85.7609  160.5023  176.4732 C   0  0  0  0  0  0  0  0  0  0  0  0
   85.9611  162.4192  175.0050 C   0  0  0  0  0  0  0  0  0  0  0  0
   87.9872  157.4361  179.4607 C   0  0  0  0  0  0  0  0  0  0  0  0
   87.0617  157.1231  178.3015 C   0  0  0  0  0  0  0  0  0  0  0  0
   81.6907  162.1808  172.4569 C   0  0  0  0  0  0  0  0  0  0  0  0
   85.1128  161.7202  178.4759 C   0  0  1  0  0  0  0  0  0  0  0  0
   83.0673  161.7704  172.7588 C   0  0  0  0  0  0  0  0  0  0  0  0
   83.6391  162.4995  173.8427 C   0  0  0  0  0  0  0  0  0  0  0  0
   85.3917  160.2991  177.9400 C   0  0  1  0  0  0  0  0  0  0  0  0
   84.9851  161.9298  174.0200 C   0  0  0  0  0  0  0  0  0  0  0  0
   85.6143  161.7012  180.4244 H   0  0  0  0  0  0  0  0  0  0  0  0
   81.4266  160.8392  170.9659 H   0  0  0  0  0  0  0  0  0  0  0  0
   80.0996  161.9194  171.2350 H   0  0  0  0  0  0  0  0  0  0  0  0
   83.8036  160.1823  171.5864 H   0  0  0  0  0  0  0  0  0  0  0  0
   90.0355  157.4373  179.7827 H   0  0  0  0  0  0  0  0  0  0  0  0
   89.5500  156.2825  178.7352 H   0  0  0  0  0  0  0  0  0  0  0  0
   89.6245  157.8414  178.2548 H   0  0  0  0  0  0  0  0  0  0  0  0
   85.2954  156.3647  179.1212 H   0  0  0  0  0  0  0  0  0  0  0  0
   85.5467  157.9357  179.4895 H   0  0  0  0  0  0  0  0  0  0  0  0
   83.9190  159.2277  178.9664 H   0  0  0  0  0  0  0  0  0  0  0  0
   83.4529  159.6768  177.4671 H   0  0  0  0  0  0  0  0  0  0  0  0
   81.3156  164.5097  174.6688 H   0  0  0  0  0  0  0  0  0  0  0  0
   85.9189  160.3563  172.9352 H   0  0  0  0  0  0  0  0  0  0  0  0
   84.0775  162.5595  176.8570 H   0  0  0  0  0  0  0  0  0  0  0  0
   85.2221  163.5536  177.4640 H   0  0  0  0  0  0  0  0  0  0  0  0
   86.5865  159.9895  176.2375 H   0  0  0  0  0  0  0  0  0  0  0  0
   85.0117  160.2218  175.8733 H   0  0  0  0  0  0  0  0  0  0  0  0
   86.8616  162.2078  174.6248 H   0  0  0  0  0  0  0  0  0  0  0  0
   85.8388  163.4111  175.0403 H   0  0  0  0  0  0  0  0  0  0  0  0
   87.8567  158.3855  179.7461 H   0  0  0  0  0  0  0  0  0  0  0  0
   87.7821  156.8266  180.2265 H   0  0  0  0  0  0  0  0  0  0  0  0
   87.2269  157.7698  177.5568 H   0  0  0  0  0  0  0  0  0  0  0  0
   87.2323  156.1922  177.9784 H   0  0  0  0  0  0  0  0  0  0  0  0
   84.1436  161.6220  178.7016 H   0  0  0  0  0  0  0  0  0  0  0  0
   86.1739  159.9101  178.4267 H   0  0  0  0  0  0  0  0  0  0  0  0
  1  9  1  0  0  0  0
  1 10  1  0  0  0  0
  2 19  1  0  0  0  0
  3 18  1  0  0  0  0
  4 11  1  0  0  0  0
  4 18  2  0  0  0  0
  5 11  2  0  0  0  0
  5 21  1  0  0  0  0
  6 12  1  0  0  0  0
  6 20  1  0  0  0  0
  7 13  1  0  0  0  0
  7 14  1  0  0  0  0
  7 15  1  0  0  0  0
  8 16  1  0  0  0  0
  9 17  1  0  0  0  0
 10 22  1  0  0  0  0
 12 23  2  0  0  0  0
 13 19  1  0  0  0  0
 14 22  1  0  0  0  0
 15 23  1  0  0  0  0
 16 17  1  0  0  0  0
 18 20  1  0  0  0  0
 19 22  1  0  0  0  0
 20 21  2  0  0  0  0
 21 23  1  0  0  0  0
  2 24  1  0  0  0  0
  3 25  1  0  0  0  0
  3 26  1  0  0  0  0
  6 27  1  0  0  0  0
  8 28  1  0  0  0  0
  8 29  1  0  0  0  0
  8 30  1  0  0  0  0
  9 31  1  0  0  0  0
  9 32  1  0  0  0  0
 10 33  1  0  0  0  0
 10 34  1  0  0  0  0
 11 35  1  0  0  0  0
 12 36  1  0  0  0  0
 13 37  1  0  0  0  0
 13 38  1  0  0  0  0
 14 39  1  0  0  0  0
 14 40  1  0  0  0  0
 15 41  1  0  0  0  0
 15 42  1  0  0  0  0
 16 43  1  0  0  0  0
 16 44  1  0  0  0  0
 17 45  1  0  0  0  0
 17 46  1  0  0  0  0
 19 47  1  0  0  0  0
 22 48  1  0  0  0  0
M  END
> <pdb_id>
5TC5

> <uniprot_id>
Q13126

> <usmiles>
S(C[C@@H]1[C@@H](O)CN(CC=2c3ncnc(N)c3NC2)C1)CCCC

$$$$
BIR_A_2001
          07192420533D 1   1.00000     0.00000     0
            
 56 57  0  0  0  0            999 V2000
   29.0160   43.5020   31.0260 P   0  0  0  0  0  0  0  0  0  0  0  0
   30.2300   42.6500   31.2230 O   0  0  0  0  0  0  0  0  0  0  0  0
   28.9360   44.3150   29.7670 O   0  0  0  0  0  0  0  0  0  0  0  0
   27.6000   40.9770   34.6580 O   0  0  0  0  0  0  0  0  0  0  0  0
   28.6470   39.8160   36.1230 O   0  0  0  0  0  0  0  0  0  0  0  0
   31.5010   43.1770   34.3910 O   0  0  0  0  0  0  0  0  0  0  0  0
   26.4000   42.9990   31.0150 N   0  0  0  0  0  0  0  0  0  0  0  0
   29.3100   42.9860   34.6650 N   0  0  0  0  0  0  0  0  0  0  0  0
   27.8590   41.3560   29.9450 C   0  0  0  0  0  0  0  0  0  0  0  0
   29.4470   42.4720   37.0530 C   0  0  0  0  0  0  0  0  0  0  0  0
   28.8610   44.5560   32.3940 C   0  0  0  0  0  0  0  0  0  0  0  0
   37.3650   47.5440   38.2380 C   0  0  0  0  0  0  0  0  0  0  0  0
   37.3100   46.5740   37.2400 C   0  0  0  0  0  0  0  0  0  0  0  0
   36.2260   48.2850   38.5470 C   0  0  0  0  0  0  0  0  0  0  0  0
   36.1210   46.3480   36.5520 C   0  0  0  0  0  0  0  0  0  0  0  0
   35.0370   48.0560   37.8620 C   0  0  0  0  0  0  0  0  0  0  0  0
   31.3180   46.4890   36.1320 C   0  0  0  0  0  0  0  0  0  0  0  0
   32.5330   46.4480   34.0540 C   0  0  0  0  0  0  0  0  0  0  0  0
   32.5010   46.7400   36.8190 C   0  0  0  0  0  0  0  0  0  0  0  0
   33.7170   46.6950   34.7390 C   0  0  0  0  0  0  0  0  0  0  0  0
   30.0520   46.0510   34.0090 C   0  0  0  0  0  0  0  0  0  0  0  0
   27.7080   42.3620   31.0920 C   0  0  1  0  0  0  0  0  0  0  0  0
   28.5250   40.8350   35.4610 C   0  0  0  0  0  0  0  0  0  0  0  0
   30.3750   43.5780   34.1410 C   0  0  0  0  0  0  0  0  0  0  0  0
   29.5280   41.9220   35.6310 C   0  0  1  0  0  0  0  0  0  0  0  0
   31.3280   46.3400   34.7470 C   0  0  0  0  0  0  0  0  0  0  0  0
   30.1480   44.7420   33.2110 C   0  0  1  0  0  0  0  0  0  0  0  0
   34.9700   47.0860   36.8550 C   0  0  0  0  0  0  0  0  0  0  0  0
   33.7170   46.8410   36.1310 C   0  0  0  0  0  0  0  0  0  0  0  0
   30.1584   42.1641   32.0941 H   0  0  0  0  0  0  0  0  0  0  0  0
   27.5230   41.8216   34.1282 H   0  0  0  0  0  0  0  0  0  0  0  0
   25.6859   42.3002   31.0572 H   0  0  0  0  0  0  0  0  0  0  0  0
   26.2921   43.6325   31.7812 H   0  0  0  0  0  0  0  0  0  0  0  0
   28.3854   43.2632   34.4035 H   0  0  0  0  0  0  0  0  0  0  0  0
   27.1077   40.6969   29.9786 H   0  0  0  0  0  0  0  0  0  0  0  0
   27.8378   41.8414   29.0710 H   0  0  0  0  0  0  0  0  0  0  0  0
   28.7300   40.8735   30.0373 H   0  0  0  0  0  0  0  0  0  0  0  0
   29.5986   41.7303   37.7064 H   0  0  0  0  0  0  0  0  0  0  0  0
   30.1467   43.1753   37.1787 H   0  0  0  0  0  0  0  0  0  0  0  0
   28.5426   42.8706   37.2052 H   0  0  0  0  0  0  0  0  0  0  0  0
   28.1597   44.1794   32.9993 H   0  0  0  0  0  0  0  0  0  0  0  0
   28.5693   45.4537   32.0639 H   0  0  0  0  0  0  0  0  0  0  0  0
   38.2192   47.7082   38.7313 H   0  0  0  0  0  0  0  0  0  0  0  0
   38.1253   46.0394   37.0175 H   0  0  0  0  0  0  0  0  0  0  0  0
   36.2634   48.9827   39.2625 H   0  0  0  0  0  0  0  0  0  0  0  0
   36.0885   45.6521   35.8346 H   0  0  0  0  0  0  0  0  0  0  0  0
   34.2227   48.5893   38.0911 H   0  0  0  0  0  0  0  0  0  0  0  0
   30.4566   46.4152   36.6345 H   0  0  0  0  0  0  0  0  0  0  0  0
   32.5455   46.3473   33.0592 H   0  0  0  0  0  0  0  0  0  0  0  0
   32.4833   46.8493   37.8128 H   0  0  0  0  0  0  0  0  0  0  0  0
   34.5763   46.7690   34.2329 H   0  0  0  0  0  0  0  0  0  0  0  0
   29.8640   46.8035   33.3778 H   0  0  0  0  0  0  0  0  0  0  0  0
   29.3047   45.9752   34.6692 H   0  0  0  0  0  0  0  0  0  0  0  0
   27.7663   41.8647   31.9576 H   0  0  0  0  0  0  0  0  0  0  0  0
   30.4411   41.5406   35.4867 H   0  0  0  0  0  0  0  0  0  0  0  0
   30.9221   44.8057   32.5811 H   0  0  0  0  0  0  0  0  0  0  0  0
  1  2  1  0  0  0  0
  1  3  2  0  0  0  0
  1 11  1  0  0  0  0
  1 22  1  0  0  0  0
  4 23  1  0  0  0  0
  5 23  2  0  0  0  0
  6 24  2  0  0  0  0
  7 22  1  0  0  0  0
  8 24  1  0  0  0  0
  8 25  1  0  0  0  0
  9 22  1  0  0  0  0
 10 25  1  0  0  0  0
 11 27  1  0  0  0  0
 12 13  2  0  0  0  0
 12 14  1  0  0  0  0
 13 15  1  0  0  0  0
 14 16  2  0  0  0  0
 15 28  2  0  0  0  0
 16 28  1  0  0  0  0
 17 19  2  0  0  0  0
 17 26  1  0  0  0  0
 18 20  1  0  0  0  0
 18 26  2  0  0  0  0
 19 29  1  0  0  0  0
 20 29  2  0  0  0  0
 21 26  1  0  0  0  0
 21 27  1  0  0  0  0
 23 25  1  0  0  0  0
 24 27  1  0  0  0  0
 28 29  1  0  0  0  0
  2 30  1  0  0  0  0
  4 31  1  0  0  0  0
  7 32  1  0  0  0  0
  7 33  1  0  0  0  0
  8 34  1  0  0  0  0
  9 35  1  0  0  0  0
  9 36  1  0  0  0  0
  9 37  1  0  0  0  0
 10 38  1  0  0  0  0
 10 39  1  0  0  0  0
 10 40  1  0  0  0  0
 11 41  1  0  0  0  0
 11 42  1  0  0  0  0
 12 43  1  0  0  0  0
 13 44  1  0  0  0  0
 14 45  1  0  0  0  0
 15 46  1  0  0  0  0
 16 47  1  0  0  0  0
 17 48  1  0  0  0  0
 18 49  1  0  0  0  0
 19 50  1  0  0  0  0
 20 51  1  0  0  0  0
 21 52  1  0  0  0  0
 21 53  1  0  0  0  0
 22 54  1  0  0  0  0
 25 55  1  0  0  0  0
 27 56  1  0  0  0  0
M  END
> <pdb_id>
1R1H

> <uniprot_id>
P08473

> <usmiles>
P(=O)(O)([C@@H](N)C)C[C@H](C(=O)N[C@H](C(=O)O)C)Cc1ccc(c2ccccc2)cc1

$$$$
BIR_L_1001
          07202400553D 1   1.00000     0.00000     0
            
 56 57  0  0  0  0            999 V2000
   34.9260    3.8990    2.2280 P   0  0  0  0  0  0  0  0  0  0  0  0
   36.3960    3.6750    2.6340 O   0  0  0  0  0  0  0  0  0  0  0  0
   34.0400    4.0820    3.5170 O   0  0  0  0  0  0  0  0  0  0  0  0
   33.9410   10.2050   -2.0880 O   0  0  0  0  0  0  0  0  0  0  0  0
   34.3970   10.8460    0.0160 O   0  0  0  0  0  0  0  0  0  0  0  0
   35.0260    7.5960   -0.3910 O   0  0  0  0  0  0  0  0  0  0  0  0
   34.1820    1.3220    2.4450 N   0  0  0  0  0  0  0  0  0  0  0  0
   33.1880    8.2850    0.7060 N   0  0  0  0  0  0  0  0  0  0  0  0
   32.8250    2.6140    0.8130 C   0  0  0  0  0  0  0  0  0  0  0  0
   31.4260    9.8110    0.0460 C   0  0  0  0  0  0  0  0  0  0  0  0
   34.5310    5.3200    1.1620 C   0  0  0  0  0  0  0  0  0  0  0  0
   35.8640   15.1660    5.2190 C   0  0  0  0  0  0  0  0  0  0  0  0
   35.1200   14.1300    5.8460 C   0  0  0  0  0  0  0  0  0  0  0  0
   36.7050   14.8250    4.1400 C   0  0  0  0  0  0  0  0  0  0  0  0
   35.2070   12.7980    5.4030 C   0  0  0  0  0  0  0  0  0  0  0  0
   36.7770   13.5090    3.6730 C   0  0  0  0  0  0  0  0  0  0  0  0
   36.3890    9.5610    1.9820 C   0  0  0  0  0  0  0  0  0  0  0  0
   36.0170    8.6500    4.1580 C   0  0  0  0  0  0  0  0  0  0  0  0
   36.3110   10.8720    2.4490 C   0  0  0  0  0  0  0  0  0  0  0  0
   35.9600    9.9610    4.6360 C   0  0  0  0  0  0  0  0  0  0  0  0
   36.1370    7.0320    2.2490 C   0  0  0  0  0  0  0  0  0  0  0  0
   34.2170    2.3640    1.4430 C   0  0  1  0  0  0  0  0  0  0  0  0
   33.7680   10.1380   -0.7670 C   0  0  0  0  0  0  0  0  0  0  0  0
   34.4030    7.6590    0.6470 C   0  0  0  0  0  0  0  0  0  0  0  0
   32.6930    9.0770   -0.3730 C   0  0  1  0  0  0  0  0  0  0  0  0
   36.2480    8.4320    2.8160 C   0  0  0  0  0  0  0  0  0  0  0  0
   34.7190    6.6990    1.7610 C   0  0  1  0  0  0  0  0  0  0  0  0
   36.0680   12.4610    4.3410 C   0  0  0  0  0  0  0  0  0  0  0  0
   36.1590   11.0730    3.8250 C   0  0  0  0  0  0  0  0  0  0  0  0
   36.9547    3.5593    1.8127 H   0  0  0  0  0  0  0  0  0  0  0  0
   33.4096    9.6116   -2.6926 H   0  0  0  0  0  0  0  0  0  0  0  0
   33.8041    0.4872    2.0447 H   0  0  0  0  0  0  0  0  0  0  0  0
   35.1096    1.1440    2.7733 H   0  0  0  0  0  0  0  0  0  0  0  0
   32.6301    8.1846    1.5298 H   0  0  0  0  0  0  0  0  0  0  0  0
   32.4862    1.7658    0.4059 H   0  0  0  0  0  0  0  0  0  0  0  0
   32.1890    2.9212    1.5209 H   0  0  0  0  0  0  0  0  0  0  0  0
   32.9007    3.3165    0.1053 H   0  0  0  0  0  0  0  0  0  0  0  0
   31.0910   10.3611   -0.7190 H   0  0  0  0  0  0  0  0  0  0  0  0
   30.7272    9.1460    0.3095 H   0  0  0  0  0  0  0  0  0  0  0  0
   31.6279   10.4078    0.8225 H   0  0  0  0  0  0  0  0  0  0  0  0
   33.5722    5.2367    0.8904 H   0  0  0  0  0  0  0  0  0  0  0  0
   35.1135    5.2607    0.3513 H   0  0  0  0  0  0  0  0  0  0  0  0
   35.7928   16.1121    5.5349 H   0  0  0  0  0  0  0  0  0  0  0  0
   34.5232   14.3524    6.6169 H   0  0  0  0  0  0  0  0  0  0  0  0
   37.2578   15.5343    3.7025 H   0  0  0  0  0  0  0  0  0  0  0  0
   34.6563   12.0888    5.8431 H   0  0  0  0  0  0  0  0  0  0  0  0
   37.3284   13.2986    2.8657 H   0  0  0  0  0  0  0  0  0  0  0  0
   36.5532    9.4133    1.0067 H   0  0  0  0  0  0  0  0  0  0  0  0
   35.8918    7.8783    4.7816 H   0  0  0  0  0  0  0  0  0  0  0  0
   36.3622   11.6465    1.8186 H   0  0  0  0  0  0  0  0  0  0  0  0
   35.7672   10.1068    5.6063 H   0  0  0  0  0  0  0  0  0  0  0  0
   36.3919    6.3777    2.9609 H   0  0  0  0  0  0  0  0  0  0  0  0
   36.7683    6.9484    1.4779 H   0  0  0  0  0  0  0  0  0  0  0  0
   34.8383    2.0731    0.7155 H   0  0  0  0  0  0  0  0  0  0  0  0
   32.4969    8.4898   -1.1583 H   0  0  0  0  0  0  0  0  0  0  0  0
   34.0687    6.8298    2.5094 H   0  0  0  0  0  0  0  0  0  0  0  0
  1  2  1  0  0  0  0
  1  3  2  0  0  0  0
  1 11  1  0  0  0  0
  1 22  1  0  0  0  0
  4 23  1  0  0  0  0
  5 23  2  0  0  0  0
  6 24  2  0  0  0  0
  7 22  1  0  0  0  0
  8 24  1  0  0  0  0
  8 25  1  0  0  0  0
  9 22  1  0  0  0  0
 10 25  1  0  0  0  0
 11 27  1  0  0  0  0
 12 13  2  0  0  0  0
 12 14  1  0  0  0  0
 13 15  1  0  0  0  0
 14 16  2  0  0  0  0
 15 28  2  0  0  0  0
 16 28  1  0  0  0  0
 17 19  1  0  0  0  0
 17 26  2  0  0  0  0
 18 20  2  0  0  0  0
 18 26  1  0  0  0  0
 19 29  2  0  0  0  0
 20 29  1  0  0  0  0
 21 26  1  0  0  0  0
 21 27  1  0  0  0  0
 23 25  1  0  0  0  0
 24 27  1  0  0  0  0
 28 29  1  0  0  0  0
  2 30  1  0  0  0  0
  4 31  1  0  0  0  0
  7 32  1  0  0  0  0
  7 33  1  0  0  0  0
  8 34  1  0  0  0  0
  9 35  1  0  0  0  0
  9 36  1  0  0  0  0
  9 37  1  0  0  0  0
 10 38  1  0  0  0  0
 10 39  1  0  0  0  0
 10 40  1  0  0  0  0
 11 41  1  0  0  0  0
 11 42  1  0  0  0  0
 12 43  1  0  0  0  0
 13 44  1  0  0  0  0
 14 45  1  0  0  0  0
 15 46  1  0  0  0  0
 16 47  1  0  0  0  0
 17 48  1  0  0  0  0
 18 49  1  0  0  0  0
 19 50  1  0  0  0  0
 20 51  1  0  0  0  0
 21 52  1  0  0  0  0
 21 53  1  0  0  0  0
 22 54  1  0  0  0  0
 25 55  1  0  0  0  0
 27 56  1  0  0  0  0
M  END
> <pdb_id>
3B7R

> <uniprot_id>
P09960

> <usmiles>
P(=O)(O)([C@@H](N)C)C[C@H](C(=O)N[C@H](C(=O)O)C)Cc1ccc(c2ccccc2)cc1

$$$$
BIT_A_902
          07202403593D 1   1.00000     0.00000     0
            
 38 41  0  0  0  0            999 V2000
   20.8794  -35.6400   36.1570 O   0  0  0  0  0  0  0  0  0  0  0  0
   20.9615  -32.8762   37.8272 O   0  0  0  0  0  0  0  0  0  0  0  0
   21.5411  -35.8203   40.0578 N   0  0  0  0  0  0  0  0  0  0  0  0
   23.1699  -34.0104   39.6064 N   0  0  0  0  0  0  0  0  0  0  0  0
   16.6799  -38.3738   38.2548 C   0  0  0  0  0  0  0  0  0  0  0  0
   23.5752  -33.4954   38.3151 C   0  0  0  0  0  0  0  0  0  0  0  0
   25.2301  -33.2515   43.2828 C   0  0  0  0  0  0  0  0  0  0  0  0
   24.0994  -34.0880   43.2773 C   0  0  0  0  0  0  0  0  0  0  0  0
   25.6753  -32.6709   42.0806 C   0  0  0  0  0  0  0  0  0  0  0  0
   19.5502  -37.2339   40.5060 C   0  0  0  0  0  0  0  0  0  0  0  0
   23.4090  -34.3408   42.0695 C   0  0  0  0  0  0  0  0  0  0  0  0
   25.0028  -32.9231   40.8705 C   0  0  0  0  0  0  0  0  0  0  0  0
   18.3723  -37.8487   40.0481 C   0  0  0  0  0  0  0  0  0  0  0  0
   18.6777  -36.9184   37.8002 C   0  0  0  0  0  0  0  0  0  0  0  0
   22.5391  -34.1190   37.3588 C   0  0  0  0  0  0  0  0  0  0  0  0
   22.0246  -34.7726   39.3946 C   0  0  0  0  0  0  0  0  0  0  0  0
   20.3325  -36.4452   39.6303 C   0  0  0  0  0  0  0  0  0  0  0  0
   20.6844  -35.4272   37.3513 C   0  0  0  0  0  0  0  0  0  0  0  0
   23.8518  -33.7612   40.8463 C   0  0  0  0  0  0  0  0  0  0  0  0
   17.9411  -37.6990   38.7081 C   0  0  0  0  0  0  0  0  0  0  0  0
   19.8656  -36.2870   38.2379 C   0  0  0  0  0  0  0  0  0  0  0  0
   21.1920  -34.2400   38.1783 C   0  0  2  0  0  0  0  0  0  0  0  0
   20.0933  -32.5730   38.2200 H   0  0  0  0  0  0  0  0  0  0  0  0
   16.5200  -38.1678   37.2894 H   0  0  0  0  0  0  0  0  0  0  0  0
   16.7694  -39.3626   38.3742 H   0  0  0  0  0  0  0  0  0  0  0  0
   15.9096  -38.0408   38.7986 H   0  0  0  0  0  0  0  0  0  0  0  0
   24.5022  -33.7908   38.0842 H   0  0  0  0  0  0  0  0  0  0  0  0
   23.5288  -32.4967   38.2948 H   0  0  0  0  0  0  0  0  0  0  0  0
   25.7159  -33.0700   44.1378 H   0  0  0  0  0  0  0  0  0  0  0  0
   23.7831  -34.5049   44.1294 H   0  0  0  0  0  0  0  0  0  0  0  0
   26.4771  -32.0735   42.0863 H   0  0  0  0  0  0  0  0  0  0  0  0
   19.8369  -37.3548   41.4564 H   0  0  0  0  0  0  0  0  0  0  0  0
   22.6024  -34.9319   42.0743 H   0  0  0  0  0  0  0  0  0  0  0  0
   25.3353  -32.5112   40.0221 H   0  0  0  0  0  0  0  0  0  0  0  0
   17.8292  -38.4017   40.6799 H   0  0  0  0  0  0  0  0  0  0  0  0
   18.3657  -36.8108   36.8562 H   0  0  0  0  0  0  0  0  0  0  0  0
   22.8446  -35.0231   37.0598 H   0  0  0  0  0  0  0  0  0  0  0  0
   22.4070  -33.5311   36.5608 H   0  0  0  0  0  0  0  0  0  0  0  0
  1 18  2  0  0  0  0
  2 22  1  0  0  0  0
  3 16  2  0  0  0  0
  3 17  1  0  0  0  0
  4  6  1  0  0  0  0
  4 16  1  0  0  0  0
  4 19  1  0  0  0  0
  5 20  1  0  0  0  0
  6 15  1  0  0  0  0
  7  8  2  0  0  0  0
  7  9  1  0  0  0  0
  8 11  1  0  0  0  0
  9 12  2  0  0  0  0
 10 13  1  0  0  0  0
 10 17  2  0  0  0  0
 11 19  2  0  0  0  0
 12 19  1  0  0  0  0
 13 20  2  0  0  0  0
 14 20  1  0  0  0  0
 14 21  2  0  0  0  0
 15 22  1  0  0  0  0
 16 22  1  0  0  0  0
 17 21  1  0  0  0  0
 18 21  1  0  0  0  0
 18 22  1  0  0  0  0
  2 23  1  0  0  0  0
  5 24  1  0  0  0  0
  5 25  1  0  0  0  0
  5 26  1  0  0  0  0
  6 27  1  0  0  0  0
  6 28  1  0  0  0  0
  7 29  1  0  0  0  0
  8 30  1  0  0  0  0
  9 31  1  0  0  0  0
 10 32  1  0  0  0  0
 11 33  1  0  0  0  0
 12 34  1  0  0  0  0
 13 35  1  0  0  0  0
 14 36  1  0  0  0  0
 15 37  1  0  0  0  0
 15 38  1  0  0  0  0
M  END
> <pdb_id>
3MJX

> <uniprot_id>
P08799

> <usmiles>
O=C1c2c(N=C3N(c4ccccc4)CC[C@]13O)ccc(c2)C

$$$$
BIT_X_800
          07202403593D 1   1.00000     0.00000     0
            
 38 41  0  0  0  0            999 V2000
   20.9210  -35.7100   36.1480 O   0  0  0  0  0  0  0  0  0  0  0  0
   20.7560  -33.2370   38.1410 O   0  0  0  0  0  0  0  0  0  0  0  0
   21.3370  -35.3880   40.1200 N   0  0  0  0  0  0  0  0  0  0  0  0
   23.3740  -33.9580   39.6300 N   0  0  0  0  0  0  0  0  0  0  0  0
   16.8940  -38.3920   38.2190 C   0  0  0  0  0  0  0  0  0  0  0  0
   23.7560  -33.1200   38.4320 C   0  0  0  0  0  0  0  0  0  0  0  0
   25.1310  -33.5750   43.5460 C   0  0  0  0  0  0  0  0  0  0  0  0
   24.4600  -34.7370   43.1200 C   0  0  0  0  0  0  0  0  0  0  0  0
   25.2450  -32.4760   42.6220 C   0  0  0  0  0  0  0  0  0  0  0  0
   19.4390  -36.7370   40.5460 C   0  0  0  0  0  0  0  0  0  0  0  0
   23.8700  -34.8440   41.8220 C   0  0  0  0  0  0  0  0  0  0  0  0
   24.6300  -32.5900   41.3760 C   0  0  0  0  0  0  0  0  0  0  0  0
   18.3130  -37.4920   40.1300 C   0  0  0  0  0  0  0  0  0  0  0  0
   18.9290  -36.9560   37.7720 C   0  0  0  0  0  0  0  0  0  0  0  0
   23.0160  -33.8430   37.2850 C   0  0  0  0  0  0  0  0  0  0  0  0
   22.2670  -34.6900   39.3440 C   0  0  0  0  0  0  0  0  0  0  0  0
   20.2440  -36.1000   39.6090 C   0  0  0  0  0  0  0  0  0  0  0  0
   20.9160  -35.5190   37.3460 C   0  0  0  0  0  0  0  0  0  0  0  0
   23.9410  -33.7260   40.9270 C   0  0  0  0  0  0  0  0  0  0  0  0
   18.0750  -37.5670   38.7230 C   0  0  0  0  0  0  0  0  0  0  0  0
   20.0480  -36.2330   38.2270 C   0  0  0  0  0  0  0  0  0  0  0  0
   21.7330  -34.3080   37.9620 C   0  0  1  0  0  0  0  0  0  0  0  0
   19.9394  -33.6020   38.5882 H   0  0  0  0  0  0  0  0  0  0  0  0
   16.8586  -38.3480   37.2206 H   0  0  0  0  0  0  0  0  0  0  0  0
   17.0048  -39.3432   38.5070 H   0  0  0  0  0  0  0  0  0  0  0  0
   16.0449  -38.0253   38.5992 H   0  0  0  0  0  0  0  0  0  0  0  0
   24.7453  -33.1246   38.2859 H   0  0  0  0  0  0  0  0  0  0  0  0
   23.4382  -32.1771   38.5320 H   0  0  0  0  0  0  0  0  0  0  0  0
   25.5183  -33.5142   44.4659 H   0  0  0  0  0  0  0  0  0  0  0  0
   24.3938  -35.5137   43.7463 H   0  0  0  0  0  0  0  0  0  0  0  0
   25.7532  -31.6508   42.8684 H   0  0  0  0  0  0  0  0  0  0  0  0
   19.6552  -36.6624   41.5195 H   0  0  0  0  0  0  0  0  0  0  0  0
   23.4134  -35.6884   41.5418 H   0  0  0  0  0  0  0  0  0  0  0  0
   24.6840  -31.8055   40.7582 H   0  0  0  0  0  0  0  0  0  0  0  0
   17.7152  -37.9492   40.7885 H   0  0  0  0  0  0  0  0  0  0  0  0
   18.7400  -37.0370   36.7934 H   0  0  0  0  0  0  0  0  0  0  0  0
   23.5470  -34.6192   36.9450 H   0  0  0  0  0  0  0  0  0  0  0  0
   22.8199  -33.2170   36.5302 H   0  0  0  0  0  0  0  0  0  0  0  0
  1 18  2  0  0  0  0
  2 22  1  0  0  0  0
  3 16  2  0  0  0  0
  3 17  1  0  0  0  0
  4  6  1  0  0  0  0
  4 16  1  0  0  0  0
  4 19  1  0  0  0  0
  5 20  1  0  0  0  0
  6 15  1  0  0  0  0
  7  8  2  0  0  0  0
  7  9  1  0  0  0  0
  8 11  1  0  0  0  0
  9 12  2  0  0  0  0
 10 13  1  0  0  0  0
 10 17  2  0  0  0  0
 11 19  2  0  0  0  0
 12 19  1  0  0  0  0
 13 20  2  0  0  0  0
 14 20  1  0  0  0  0
 14 21  2  0  0  0  0
 15 22  1  0  0  0  0
 16 22  1  0  0  0  0
 17 21  1  0  0  0  0
 18 21  1  0  0  0  0
 18 22  1  0  0  0  0
  2 23  1  0  0  0  0
  5 24  1  0  0  0  0
  5 25  1  0  0  0  0
  5 26  1  0  0  0  0
  6 27  1  0  0  0  0
  6 28  1  0  0  0  0
  7 29  1  0  0  0  0
  8 30  1  0  0  0  0
  9 31  1  0  0  0  0
 10 32  1  0  0  0  0
 11 33  1  0  0  0  0
 12 34  1  0  0  0  0
 13 35  1  0  0  0  0
 14 36  1  0  0  0  0
 15 37  1  0  0  0  0
 15 38  1  0  0  0  0
M  END
> <pdb_id>
3MYH

> <uniprot_id>
P08799

> <usmiles>
O=C1c2c(N=C3N(c4ccccc4)CC[C@@]13O)ccc(c2)C

$$$$
BIX_A_1
          07202412173D 1   1.00000     0.00000     0
            
 38 37  0  0  0  0            999 V2000
   17.5688   43.7524   43.5708 P   0  0  0  0  0  0  0  0  0  0  0  0
   18.2741   42.8758   42.4775 O   0  0  0  0  0  0  0  0  0  0  0  0
   16.7606   42.9725   44.5518 O   0  0  0  0  0  0  0  0  0  0  0  0
   13.0807   46.9031   39.3640 O   0  0  0  0  0  0  0  0  0  0  0  0
   13.8875   48.6850   40.3286 O   0  0  0  0  0  0  0  0  0  0  0  0
   20.9693   46.2205   46.3979 O   0  0  0  0  0  0  0  0  0  0  0  0
   19.6192   47.7179   45.7546 O   0  0  0  0  0  0  0  0  0  0  0  0
   17.0903   43.6243   39.2670 O   0  0  0  0  0  0  0  0  0  0  0  0
   17.9685   45.2484   40.4422 O   0  0  0  0  0  0  0  0  0  0  0  0
   21.8529   45.6160   44.1120 N   0  0  0  0  0  0  0  0  0  0  0  0
   18.7962   44.7012   44.4775 C   0  0  0  0  0  0  0  0  0  0  0  0
   16.3720   44.8754   42.7216 C   0  0  0  0  0  0  0  0  0  0  0  0
   19.4906   45.5832   43.4686 C   0  0  0  0  0  0  0  0  0  0  0  0
   15.0185   46.6652   40.8554 C   0  0  0  0  0  0  0  0  0  0  0  0
   14.7687   45.1630   40.7033 C   0  0  0  0  0  0  0  0  0  0  0  0
   13.9201   47.4538   40.1133 C   0  0  0  0  0  0  0  0  0  0  0  0
   20.3882   46.8303   45.4875 C   0  0  0  0  0  0  0  0  0  0  0  0
   17.0852   44.3996   40.2838 C   0  0  0  0  0  0  0  0  0  0  0  0
   20.6407   46.4312   44.0637 C   0  0  1  0  0  0  0  0  0  0  0  0
   15.9514   44.3359   41.2955 C   0  0  1  0  0  0  0  0  0  0  0  0
   18.7937   43.4668   41.8605 H   0  0  0  0  0  0  0  0  0  0  0  0
   13.1238   45.9169   39.2046 H   0  0  0  0  0  0  0  0  0  0  0  0
   21.6080   45.4833   46.1776 H   0  0  0  0  0  0  0  0  0  0  0  0
   16.3673   42.9426   39.1544 H   0  0  0  0  0  0  0  0  0  0  0  0
   22.6024   46.1557   44.4955 H   0  0  0  0  0  0  0  0  0  0  0  0
   21.6922   44.8134   44.6864 H   0  0  0  0  0  0  0  0  0  0  0  0
   19.4558   44.0871   44.9110 H   0  0  0  0  0  0  0  0  0  0  0  0
   18.3519   45.2607   45.1772 H   0  0  0  0  0  0  0  0  0  0  0  0
   16.7961   45.7745   42.6131 H   0  0  0  0  0  0  0  0  0  0  0  0
   15.5524   44.9596   43.2883 H   0  0  0  0  0  0  0  0  0  0  0  0
   18.8132   46.2041   43.0740 H   0  0  0  0  0  0  0  0  0  0  0  0
   19.8685   45.0011   42.7486 H   0  0  0  0  0  0  0  0  0  0  0  0
   15.9114   46.8944   40.4679 H   0  0  0  0  0  0  0  0  0  0  0  0
   15.0038   46.9079   41.8254 H   0  0  0  0  0  0  0  0  0  0  0  0
   14.6709   44.9445   39.7324 H   0  0  0  0  0  0  0  0  0  0  0  0
   13.9268   44.9211   41.1858 H   0  0  0  0  0  0  0  0  0  0  0  0
   20.7951   47.2436   43.5014 H   0  0  0  0  0  0  0  0  0  0  0  0
   15.6598   43.3838   41.3881 H   0  0  0  0  0  0  0  0  0  0  0  0
  1  2  1  0  0  0  0
  1  3  2  0  0  0  0
  1 11  1  0  0  0  0
  1 12  1  0  0  0  0
  4 16  1  0  0  0  0
  5 16  2  0  0  0  0
  6 17  1  0  0  0  0
  7 17  2  0  0  0  0
  8 18  1  0  0  0  0
  9 18  2  0  0  0  0
 10 19  1  0  0  0  0
 11 13  1  0  0  0  0
 12 20  1  0  0  0  0
 13 19  1  0  0  0  0
 14 15  1  0  0  0  0
 14 16  1  0  0  0  0
 15 20  1  0  0  0  0
 17 19  1  0  0  0  0
 18 20  1  0  0  0  0
  2 21  1  0  0  0  0
  4 22  1  0  0  0  0
  6 23  1  0  0  0  0
  8 24  1  0  0  0  0
 10 25  1  0  0  0  0
 10 26  1  0  0  0  0
 11 27  1  0  0  0  0
 11 28  1  0  0  0  0
 12 29  1  0  0  0  0
 12 30  1  0  0  0  0
 13 31  1  0  0  0  0
 13 32  1  0  0  0  0
 14 33  1  0  0  0  0
 14 34  1  0  0  0  0
 15 35  1  0  0  0  0
 15 36  1  0  0  0  0
 19 37  1  0  0  0  0
 20 38  1  0  0  0  0
M  END
> <pdb_id>
3BI0

> <uniprot_id>
Q04609

> <usmiles>
P(=O)(O)(C[C@H](C(=O)O)CCC(=O)O)CC[C@H](N)C(=O)O

$$$$
BIX_A_1
          07202412473D 1   1.00000     0.00000     0
            
 38 37  0  0  0  0            999 V2000
   19.8950   44.7490   19.0050 P   0  0  0  0  0  0  0  0  0  0  0  0
   20.5680   43.8330   19.9820 O   0  0  0  0  0  0  0  0  0  0  0  0
   19.2410   45.8780   19.6660 O   0  0  0  0  0  0  0  0  0  0  0  0
   14.8810   40.5640   16.7220 O   0  0  0  0  0  0  0  0  0  0  0  0
   15.4790   41.3710   14.8060 O   0  0  0  0  0  0  0  0  0  0  0  0
   22.8480   46.9960   15.6410 O   0  0  0  0  0  0  0  0  0  0  0  0
   21.7070   45.9640   14.0650 O   0  0  0  0  0  0  0  0  0  0  0  0
   19.1900   40.4590   19.3500 O   0  0  0  0  0  0  0  0  0  0  0  0
   19.9940   41.5290   17.6280 O   0  0  0  0  0  0  0  0  0  0  0  0
   23.9310   44.7870   16.5960 N   0  0  0  0  0  0  0  0  0  0  0  0
   21.0930   45.2890   17.7790 C   0  0  0  0  0  0  0  0  0  0  0  0
   18.5420   43.8280   18.1310 C   0  0  0  0  0  0  0  0  0  0  0  0
   21.5760   44.2040   16.7940 C   0  0  0  0  0  0  0  0  0  0  0  0
   16.8510   41.8730   16.6490 C   0  0  0  0  0  0  0  0  0  0  0  0
   16.8120   41.9870   18.1830 C   0  0  0  0  0  0  0  0  0  0  0  0
   15.6400   41.2130   16.0280 C   0  0  0  0  0  0  0  0  0  0  0  0
   22.4110   45.9540   15.1150 C   0  0  0  0  0  0  0  0  0  0  0  0
   19.1500   41.4400   18.5880 C   0  0  0  0  0  0  0  0  0  0  0  0
   22.7110   44.6760   15.8310 C   0  0  1  0  0  0  0  0  0  0  0  0
   18.1300   42.5160   18.7980 C   0  0  1  0  0  0  0  0  0  0  0  0
   21.0002   43.0784   19.4882 H   0  0  0  0  0  0  0  0  0  0  0  0
   15.0574   40.4684   17.7017 H   0  0  0  0  0  0  0  0  0  0  0  0
   23.4015   46.9424   16.4721 H   0  0  0  0  0  0  0  0  0  0  0  0
   18.5347   40.3825   20.1015 H   0  0  0  0  0  0  0  0  0  0  0  0
   24.6733   45.0887   15.9977 H   0  0  0  0  0  0  0  0  0  0  0  0
   23.8040   45.4527   17.3313 H   0  0  0  0  0  0  0  0  0  0  0  0
   21.8929   45.6411   18.2650 H   0  0  0  0  0  0  0  0  0  0  0  0
   20.6764   46.0251   17.2455 H   0  0  0  0  0  0  0  0  0  0  0  0
   18.8541   43.6216   17.2036 H   0  0  0  0  0  0  0  0  0  0  0  0
   17.7384   44.4216   18.0879 H   0  0  0  0  0  0  0  0  0  0  0  0
   20.7957   43.9126   16.2406 H   0  0  0  0  0  0  0  0  0  0  0  0
   21.9169   43.4278   17.3244 H   0  0  0  0  0  0  0  0  0  0  0  0
   17.6586   41.3394   16.3977 H   0  0  0  0  0  0  0  0  0  0  0  0
   16.9300   42.7954   16.2710 H   0  0  0  0  0  0  0  0  0  0  0  0
   16.6272   41.0806   18.5629 H   0  0  0  0  0  0  0  0  0  0  0  0
   16.0725   42.6112   18.4350 H   0  0  0  0  0  0  0  0  0  0  0  0
   22.8448   43.9632   15.1425 H   0  0  0  0  0  0  0  0  0  0  0  0
   18.0026   42.6669   19.7783 H   0  0  0  0  0  0  0  0  0  0  0  0
  1  2  1  0  0  0  0
  1  3  2  0  0  0  0
  1 11  1  0  0  0  0
  1 12  1  0  0  0  0
  4 16  1  0  0  0  0
  5 16  2  0  0  0  0
  6 17  1  0  0  0  0
  7 17  2  0  0  0  0
  8 18  1  0  0  0  0
  9 18  2  0  0  0  0
 10 19  1  0  0  0  0
 11 13  1  0  0  0  0
 12 20  1  0  0  0  0
 13 19  1  0  0  0  0
 14 15  1  0  0  0  0
 14 16  1  0  0  0  0
 15 20  1  0  0  0  0
 17 19  1  0  0  0  0
 18 20  1  0  0  0  0
  2 21  1  0  0  0  0
  4 22  1  0  0  0  0
  6 23  1  0  0  0  0
  8 24  1  0  0  0  0
 10 25  1  0  0  0  0
 10 26  1  0  0  0  0
 11 27  1  0  0  0  0
 11 28  1  0  0  0  0
 12 29  1  0  0  0  0
 12 30  1  0  0  0  0
 13 31  1  0  0  0  0
 13 32  1  0  0  0  0
 14 33  1  0  0  0  0
 14 34  1  0  0  0  0
 15 35  1  0  0  0  0
 15 36  1  0  0  0  0
 19 37  1  0  0  0  0
 20 38  1  0  0  0  0
M  END
> <pdb_id>
3FED

> <uniprot_id>
Q9Y3Q0

> <usmiles>
P(=O)(O)(C[C@H](C(=O)O)CCC(=O)O)CC[C@H](N)C(=O)O

$$$$
BJ2_D_702
          07202401113D 1   1.00000     0.00000     0
            
 58 59  0  0  0  0            999 V2000
   -6.0614  -20.8847  -22.0813 O   0  0  0  0  0  0  0  0  0  0  0  0
   -6.0256  -19.0482  -20.7756 O   0  0  0  0  0  0  0  0  0  0  0  0
   -1.0074  -16.4608  -21.6200 O   0  0  0  0  0  0  0  0  0  0  0  0
   -0.6473  -17.3145  -23.6132 O   0  0  0  0  0  0  0  0  0  0  0  0
    2.8431  -10.5638  -20.6190 O   0  0  0  0  0  0  0  0  0  0  0  0
    3.7032  -11.5860  -22.3532 O   0  0  0  0  0  0  0  0  0  0  0  0
   -3.5013  -17.5436  -25.0525 O   0  0  0  0  0  0  0  0  0  0  0  0
    0.7716  -12.5882  -22.4991 O   0  0  0  0  0  0  0  0  0  0  0  0
   -6.2908  -17.8622  -24.3429 N   0  0  0  0  0  0  0  0  0  0  0  0
   -0.1600  -14.4153  -24.4099 N   0  0  0  0  0  0  0  0  0  0  0  0
   -3.6685  -15.6900  -23.6259 N   0  0  0  0  0  0  0  0  0  0  0  0
    2.4897  -13.9384  -21.7513 N   0  0  0  0  0  0  0  0  0  0  0  0
    2.2507  -14.4100  -24.9020 C   0  0  0  0  0  0  0  0  0  0  0  0
   -4.2891  -14.9690  -22.6190 C   0  0  0  0  0  0  0  0  0  0  0  0
    3.2859  -15.0293  -21.8119 C   0  0  0  0  0  0  0  0  0  0  0  0
    4.1267  -15.0089  -20.4653 C   0  0  0  0  0  0  0  0  0  0  0  0
   -3.8544  -13.4698  -22.8323 C   0  0  0  0  0  0  0  0  0  0  0  0
    4.0347  -13.5352  -19.9717 C   0  0  0  0  0  0  0  0  0  0  0  0
   -3.1155  -13.4949  -24.2053 C   0  0  0  0  0  0  0  0  0  0  0  0
   -4.6504  -19.0465  -22.7581 C   0  0  0  0  0  0  0  0  0  0  0  0
   -5.6543  -19.7097  -21.7911 C   0  0  0  0  0  0  0  0  0  0  0  0
   -0.9452  -16.3167  -22.8706 C   0  0  0  0  0  0  0  0  0  0  0  0
    3.1550  -11.6322  -21.1971 C   0  0  0  0  0  0  0  0  0  0  0  0
   -4.0520  -16.9784  -24.1145 C   0  0  0  0  0  0  0  0  0  0  0  0
    1.4084  -13.5973  -22.6770 C   0  0  0  0  0  0  0  0  0  0  0  0
   -5.2411  -17.6822  -23.3457 C   0  0  1  0  0  0  0  0  0  0  0  0
    1.1982  -14.6028  -23.8223 C   0  0  1  0  0  0  0  0  0  0  0  0
   -1.2075  -14.8837  -23.4588 C   0  0  2  0  0  0  0  0  0  0  0  0
    2.8958  -12.9801  -20.5434 C   0  0  1  0  0  0  0  0  0  0  0  0
   -2.5597  -14.7806  -24.2780 C   0  0  1  0  0  0  0  0  0  0  0  0
   -7.0356  -17.4630  -24.0647 H   0  0  0  0  0  0  0  0  0  0  0  0
   -6.4448  -18.7315  -24.4600 H   0  0  0  0  0  0  0  0  0  0  0  0
   -0.2208  -14.8768  -25.1680 H   0  0  0  0  0  0  0  0  0  0  0  0
    1.9059  -14.7307  -25.7495 H   0  0  0  0  0  0  0  0  0  0  0  0
    3.0487  -14.9082  -24.6670 H   0  0  0  0  0  0  0  0  0  0  0  0
    2.4679  -13.4679  -24.9781 H   0  0  0  0  0  0  0  0  0  0  0  0
   -3.9905  -15.2828  -21.7517 H   0  0  0  0  0  0  0  0  0  0  0  0
   -5.2521  -15.0514  -22.6961 H   0  0  0  0  0  0  0  0  0  0  0  0
    3.8781  -14.9717  -22.5783 H   0  0  0  0  0  0  0  0  0  0  0  0
    2.7469  -15.8338  -21.8573 H   0  0  0  0  0  0  0  0  0  0  0  0
    5.0494  -15.2511  -20.6403 H   0  0  0  0  0  0  0  0  0  0  0  0
    3.7298  -15.6076  -19.8129 H   0  0  0  0  0  0  0  0  0  0  0  0
   -3.2510  -13.1881  -22.1274 H   0  0  0  0  0  0  0  0  0  0  0  0
   -4.6331  -12.8916  -22.8733 H   0  0  0  0  0  0  0  0  0  0  0  0
    3.9619  -13.5139  -19.0054 H   0  0  0  0  0  0  0  0  0  0  0  0
    4.8196  -13.0427  -20.2606 H   0  0  0  0  0  0  0  0  0  0  0  0
   -2.4171  -12.8222  -24.2242 H   0  0  0  0  0  0  0  0  0  0  0  0
   -3.7467  -13.3568  -24.9286 H   0  0  0  0  0  0  0  0  0  0  0  0
   -4.4628  -19.6537  -23.4901 H   0  0  0  0  0  0  0  0  0  0  0  0
   -3.8278  -18.8570  -22.2800 H   0  0  0  0  0  0  0  0  0  0  0  0
   -5.5539  -17.1136  -22.6247 H   0  0  0  0  0  0  0  0  0  0  0  0
    1.2699  -15.5032  -23.4684 H   0  0  0  0  0  0  0  0  0  0  0  0
   -1.2496  -14.2562  -22.7199 H   0  0  0  0  0  0  0  0  0  0  0  0
    2.1774  -12.9239  -19.8944 H   0  0  0  0  0  0  0  0  0  0  0  0
   -2.4186  -15.0332  -25.2035 H   0  0  0  0  0  0  0  0  0  0  0  0
   -5.7215  -21.3431  -22.9025 H   0  0  0  0  0  0  0  0  0  0  0  0
   -1.2402  -15.6818  -21.0379 H   0  0  0  0  0  0  0  0  0  0  0  0
    2.4145  -10.5906  -19.7159 H   0  0  0  0  0  0  0  0  0  0  0  0
  1 21  1  0  0  0  0
  2 21  2  0  0  0  0
  3 22  1  0  0  0  0
  4 22  2  0  0  0  0
  5 23  1  0  0  0  0
  6 23  2  0  0  0  0
  7 24  2  0  0  0  0
  8 25  2  0  0  0  0
  9 26  1  0  0  0  0
  9 31  1  0  0  0  0
  9 32  1  0  0  0  0
 10 27  1  0  0  0  0
 10 28  1  0  0  0  0
 10 33  1  0  0  0  0
 11 14  1  0  0  0  0
 11 24  1  0  0  0  0
 11 30  1  0  0  0  0
 12 15  1  0  0  0  0
 12 25  1  0  0  0  0
 12 29  1  0  0  0  0
 13 27  1  0  0  0  0
 13 34  1  0  0  0  0
 13 35  1  0  0  0  0
 13 36  1  0  0  0  0
 14 17  1  0  0  0  0
 14 37  1  0  0  0  0
 14 38  1  0  0  0  0
 15 16  1  0  0  0  0
 15 39  1  0  0  0  0
 15 40  1  0  0  0  0
 16 18  1  0  0  0  0
 16 41  1  0  0  0  0
 16 42  1  0  0  0  0
 17 19  1  0  0  0  0
 17 43  1  0  0  0  0
 17 44  1  0  0  0  0
 18 29  1  0  0  0  0
 18 45  1  0  0  0  0
 18 46  1  0  0  0  0
 19 30  1  0  0  0  0
 19 47  1  0  0  0  0
 19 48  1  0  0  0  0
 20 21  1  0  0  0  0
 20 26  1  0  0  0  0
 20 49  1  0  0  0  0
 20 50  1  0  0  0  0
 22 28  1  0  0  0  0
 23 29  1  0  0  0  0
 24 26  1  0  0  0  0
 25 27  1  0  0  0  0
 26 51  1  0  0  0  0
 27 52  1  0  0  0  0
 28 30  1  0  0  0  0
 28 53  1  0  0  0  0
 29 54  1  0  0  0  0
 30 55  1  0  0  0  0
  1 56  1  0  0  0  0
  3 57  1  0  0  0  0
  5 58  1  0  0  0  0
M  END
> <pdb_id>
6EN5

> <uniprot_id>
P12821

> <usmiles>
O=C(O)[C@H]1N(C(=O)[C@@H](N[C@H](C(=O)O)[C@H]2N(C(=O)[C@@H](N)CC(=O)O)CCC2)C)CCC1

$$$$
BK3_A_701
          07202405313D 1   1.00000     0.00000     0
            
 52 56  0  0  0  0            999 V2000
   17.9895  -23.8784    1.9862 N   0  0  0  0  0  0  0  0  0  0  0  0
   14.0347  -16.6258    5.9585 N   0  0  0  0  0  0  0  0  0  0  0  0
   17.0310  -19.5915    2.1279 N   0  0  0  0  0  0  0  0  0  0  0  0
   15.7116  -23.8936    2.1650 N   0  0  0  0  0  0  0  0  0  0  0  0
   14.4655  -21.9156    2.2482 N   0  0  0  0  0  0  0  0  0  0  0  0
   15.8294  -19.8442    2.2228 N   0  0  0  0  0  0  0  0  0  0  0  0
   14.5438  -23.2439    2.2551 C   0  0  0  0  0  0  0  0  0  0  0  0
   12.8464  -17.1648    5.2648 C   0  0  0  0  0  0  0  0  0  0  0  0
   15.0721  -17.6810    6.0707 C   0  0  0  0  0  0  0  0  0  0  0  0
   23.9779  -20.7930   -0.0710 C   0  0  0  0  0  0  0  0  0  0  0  0
   23.4457  -20.4250    1.1668 C   0  0  0  0  0  0  0  0  0  0  0  0
   19.5612  -21.9282   -1.6387 C   0  0  0  0  0  0  0  0  0  0  0  0
   14.8368  -18.7839    2.3056 C   0  0  0  0  0  0  0  0  0  0  0  0
   13.2556  -17.4646    3.8017 C   0  0  0  0  0  0  0  0  0  0  0  0
   15.5485  -18.0591    4.6565 C   0  0  0  0  0  0  0  0  0  0  0  0
   23.1302  -21.2609   -1.0693 C   0  0  0  0  0  0  0  0  0  0  0  0
   20.9197  -21.8265   -1.8461 C   0  0  0  0  0  0  0  0  0  0  0  0
   19.0121  -21.5744   -0.4000 C   0  0  0  0  0  0  0  0  0  0  0  0
   22.0705  -20.5329    1.3790 C   0  0  0  0  0  0  0  0  0  0  0  0
   19.2341  -20.7410    1.9679 C   0  0  0  0  0  0  0  0  0  0  0  0
   16.8567  -23.2014    2.0804 C   0  0  0  0  0  0  0  0  0  0  0  0
   15.5803  -21.1665    2.2099 C   0  0  0  0  0  0  0  0  0  0  0  0
   17.7238  -20.7264    2.0633 C   0  0  0  0  0  0  0  0  0  0  0  0
   14.3708  -18.5326    3.7658 C   0  0  0  0  0  0  0  0  0  0  0  0
   21.7527  -21.3598   -0.8420 C   0  0  0  0  0  0  0  0  0  0  0  0
   19.8400  -21.1166    0.6193 C   0  0  0  0  0  0  0  0  0  0  0  0
   21.2158  -21.0048    0.3800 C   0  0  0  0  0  0  0  0  0  0  0  0
   16.8102  -21.7936    2.1237 C   0  0  0  0  0  0  0  0  0  0  0  0
   18.8598  -23.3902    1.9215 H   0  0  0  0  0  0  0  0  0  0  0  0
   17.9754  -24.8783    1.9796 H   0  0  0  0  0  0  0  0  0  0  0  0
   13.7739  -16.3178    6.8735 H   0  0  0  0  0  0  0  0  0  0  0  0
   13.7006  -23.7762    2.3301 H   0  0  0  0  0  0  0  0  0  0  0  0
   12.1072  -16.4915    5.2812 H   0  0  0  0  0  0  0  0  0  0  0  0
   12.5418  -18.0052    5.7129 H   0  0  0  0  0  0  0  0  0  0  0  0
   14.6859  -18.4856    6.5217 H   0  0  0  0  0  0  0  0  0  0  0  0
   15.8444  -17.3378    6.6052 H   0  0  0  0  0  0  0  0  0  0  0  0
   24.9612  -20.7207   -0.2381 H   0  0  0  0  0  0  0  0  0  0  0  0
   24.0440  -20.0877    1.8936 H   0  0  0  0  0  0  0  0  0  0  0  0
   18.9669  -22.2551   -2.3735 H   0  0  0  0  0  0  0  0  0  0  0  0
   14.0435  -19.0410    1.7537 H   0  0  0  0  0  0  0  0  0  0  0  0
   15.2349  -17.9406    1.9445 H   0  0  0  0  0  0  0  0  0  0  0  0
   13.5892  -16.6247    3.3735 H   0  0  0  0  0  0  0  0  0  0  0  0
   12.4596  -17.8016    3.2988 H   0  0  0  0  0  0  0  0  0  0  0  0
   16.2197  -18.7970    4.7265 H   0  0  0  0  0  0  0  0  0  0  0  0
   15.9749  -17.2597    4.2330 H   0  0  0  0  0  0  0  0  0  0  0  0
   23.5076  -21.5286   -1.9559 H   0  0  0  0  0  0  0  0  0  0  0  0
   21.3077  -22.0918   -2.7287 H   0  0  0  0  0  0  0  0  0  0  0  0
   18.0266  -21.6507   -0.2488 H   0  0  0  0  0  0  0  0  0  0  0  0
   21.6892  -20.2669    2.2644 H   0  0  0  0  0  0  0  0  0  0  0  0
   19.5726  -21.3959    2.6435 H   0  0  0  0  0  0  0  0  0  0  0  0
   19.5597  -19.8244    2.1999 H   0  0  0  0  0  0  0  0  0  0  0  0
   14.0093  -19.3870    4.1390 H   0  0  0  0  0  0  0  0  0  0  0  0
  1 21  1  0  0  0  0
  2  8  1  0  0  0  0
  2  9  1  0  0  0  0
  3  6  1  0  0  0  0
  3 23  2  0  0  0  0
  4  7  1  0  0  0  0
  4 21  2  0  0  0  0
  5  7  2  0  0  0  0
  5 22  1  0  0  0  0
  6 13  1  0  0  0  0
  6 22  1  0  0  0  0
  8 14  1  0  0  0  0
  9 15  1  0  0  0  0
 10 11  2  0  0  0  0
 10 16  1  0  0  0  0
 11 19  1  0  0  0  0
 12 17  2  0  0  0  0
 12 18  1  0  0  0  0
 13 24  1  0  0  0  0
 14 24  1  0  0  0  0
 15 24  1  0  0  0  0
 16 25  2  0  0  0  0
 17 25  1  0  0  0  0
 18 26  2  0  0  0  0
 19 27  2  0  0  0  0
 20 23  1  0  0  0  0
 20 26  1  0  0  0  0
 21 28  1  0  0  0  0
 22 28  2  0  0  0  0
 23 28  1  0  0  0  0
 25 27  1  0  0  0  0
 26 27  1  0  0  0  0
  1 29  1  0  0  0  0
  1 30  1  0  0  0  0
  2 31  1  0  0  0  0
  7 32  1  0  0  0  0
  8 33  1  0  0  0  0
  8 34  1  0  0  0  0
  9 35  1  0  0  0  0
  9 36  1  0  0  0  0
 10 37  1  0  0  0  0
 11 38  1  0  0  0  0
 12 39  1  0  0  0  0
 13 40  1  0  0  0  0
 13 41  1  0  0  0  0
 14 42  1  0  0  0  0
 14 43  1  0  0  0  0
 15 44  1  0  0  0  0
 15 45  1  0  0  0  0
 16 46  1  0  0  0  0
 17 47  1  0  0  0  0
 18 48  1  0  0  0  0
 19 49  1  0  0  0  0
 20 50  1  0  0  0  0
 20 51  1  0  0  0  0
 24 52  1  0  0  0  0
M  END
> <pdb_id>
3N51

> <uniprot_id>
Q9BJF5

> <usmiles>
n1c2N(N=C(c2c(nc1)N)Cc3c4c(ccc3)cccc4)CC5CCNCC5

$$$$
BK4_A_701
          07202405313D 1   1.00000     0.00000     0
            
 44 47  0  0  0  0            999 V2000
   24.7158  -21.4519   -1.0594 O   0  0  0  0  0  0  0  0  0  0  0  0
   17.9977  -23.8569    1.4661 N   0  0  0  0  0  0  0  0  0  0  0  0
   16.7654  -19.6750    2.0098 N   0  0  0  0  0  0  0  0  0  0  0  0
   15.7723  -24.0219    2.0299 N   0  0  0  0  0  0  0  0  0  0  0  0
   14.4431  -22.2035    2.4726 N   0  0  0  0  0  0  0  0  0  0  0  0
   15.6111  -20.0421    2.2841 N   0  0  0  0  0  0  0  0  0  0  0  0
   25.5980  -20.9262   -0.0249 C   0  0  0  0  0  0  0  0  0  0  0  0
   14.5746  -17.7801    1.9489 C   0  0  0  0  0  0  0  0  0  0  0  0
   14.4259  -18.9697    4.1535 C   0  0  0  0  0  0  0  0  0  0  0  0
   14.5744  -23.5232    2.3579 C   0  0  0  0  0  0  0  0  0  0  0  0
   22.5004  -22.1531   -1.4744 C   0  0  0  0  0  0  0  0  0  0  0  0
   21.1594  -22.1414   -1.1506 C   0  0  0  0  0  0  0  0  0  0  0  0
   19.7827  -20.0089    2.1403 C   0  0  0  0  0  0  0  0  0  0  0  0
   21.1407  -19.9886    1.8119 C   0  0  0  0  0  0  0  0  0  0  0  0
   22.9623  -20.6952    0.3819 C   0  0  0  0  0  0  0  0  0  0  0  0
   19.3408  -21.4609    0.2719 C   0  0  0  0  0  0  0  0  0  0  0  0
   16.8608  -23.2562    1.7914 C   0  0  0  0  0  0  0  0  0  0  0  0
   23.4069  -21.4299   -0.7067 C   0  0  0  0  0  0  0  0  0  0  0  0
   15.4886  -21.3716    2.2493 C   0  0  0  0  0  0  0  0  0  0  0  0
   14.4793  -19.1441    2.6305 C   0  0  0  0  0  0  0  0  0  0  0  0
   17.5273  -20.7369    1.7337 C   0  0  0  0  0  0  0  0  0  0  0  0
   18.8762  -20.7509    1.3808 C   0  0  0  0  0  0  0  0  0  0  0  0
   21.6073  -20.7044    0.7130 C   0  0  0  0  0  0  0  0  0  0  0  0
   20.6988  -21.4386   -0.0565 C   0  0  0  0  0  0  0  0  0  0  0  0
   16.7344  -21.8687    1.8912 C   0  0  0  0  0  0  0  0  0  0  0  0
   18.8167  -23.3125    1.2849 H   0  0  0  0  0  0  0  0  0  0  0  0
   18.0358  -24.8541    1.4019 H   0  0  0  0  0  0  0  0  0  0  0  0
   26.5455  -20.9683   -0.3419 H   0  0  0  0  0  0  0  0  0  0  0  0
   25.3538  -19.9764    0.1703 H   0  0  0  0  0  0  0  0  0  0  0  0
   25.5000  -21.4733    0.8064 H   0  0  0  0  0  0  0  0  0  0  0  0
   13.7914  -17.2186    2.2158 H   0  0  0  0  0  0  0  0  0  0  0  0
   15.4208  -17.3263    2.2283 H   0  0  0  0  0  0  0  0  0  0  0  0
   14.5742  -17.9027    0.9565 H   0  0  0  0  0  0  0  0  0  0  0  0
   13.6657  -18.3659    4.3934 H   0  0  0  0  0  0  0  0  0  0  0  0
   14.2930  -19.8612    4.5866 H   0  0  0  0  0  0  0  0  0  0  0  0
   15.2841  -18.5683    4.4733 H   0  0  0  0  0  0  0  0  0  0  0  0
   13.7944  -24.1292    2.5134 H   0  0  0  0  0  0  0  0  0  0  0  0
   22.8205  -22.6813   -2.2609 H   0  0  0  0  0  0  0  0  0  0  0  0
   20.5114  -22.6502   -1.7175 H   0  0  0  0  0  0  0  0  0  0  0  0
   19.4565  -19.4862    2.9279 H   0  0  0  0  0  0  0  0  0  0  0  0
   21.7799  -19.4578    2.3685 H   0  0  0  0  0  0  0  0  0  0  0  0
   23.6094  -20.1616    0.9265 H   0  0  0  0  0  0  0  0  0  0  0  0
   18.7004  -21.9864   -0.2884 H   0  0  0  0  0  0  0  0  0  0  0  0
   13.6303  -19.5826    2.3358 H   0  0  0  0  0  0  0  0  0  0  0  0
  1  7  1  0  0  0  0
  1 18  1  0  0  0  0
  2 17  1  0  0  0  0
  3  6  1  0  0  0  0
  3 21  2  0  0  0  0
  4 10  1  0  0  0  0
  4 17  2  0  0  0  0
  5 10  2  0  0  0  0
  5 19  1  0  0  0  0
  6 19  1  0  0  0  0
  6 20  1  0  0  0  0
  8 20  1  0  0  0  0
  9 20  1  0  0  0  0
 11 12  2  0  0  0  0
 11 18  1  0  0  0  0
 12 24  1  0  0  0  0
 13 14  1  0  0  0  0
 13 22  2  0  0  0  0
 14 23  2  0  0  0  0
 15 18  2  0  0  0  0
 15 23  1  0  0  0  0
 16 22  1  0  0  0  0
 16 24  2  0  0  0  0
 17 25  1  0  0  0  0
 19 25  2  0  0  0  0
 21 22  1  0  0  0  0
 21 25  1  0  0  0  0
 23 24  1  0  0  0  0
  2 26  1  0  0  0  0
  2 27  1  0  0  0  0
  7 28  1  0  0  0  0
  7 29  1  0  0  0  0
  7 30  1  0  0  0  0
  8 31  1  0  0  0  0
  8 32  1  0  0  0  0
  8 33  1  0  0  0  0
  9 34  1  0  0  0  0
  9 35  1  0  0  0  0
  9 36  1  0  0  0  0
 10 37  1  0  0  0  0
 11 38  1  0  0  0  0
 12 39  1  0  0  0  0
 13 40  1  0  0  0  0
 14 41  1  0  0  0  0
 15 42  1  0  0  0  0
 16 43  1  0  0  0  0
 20 44  1  0  0  0  0
M  END
> <pdb_id>
3T3V

> <uniprot_id>
Q9BJF5

> <usmiles>
O(c1cc2c(cc(cc2)C3=NN(c4ncnc(N)c43)C(C)C)cc1)C

$$$$
BKD_B_1201
          07192420223D 1   1.00000     0.00000     0
            
 47 51  0  0  0  0            999 V2000
    5.6470   14.1937    8.8621 O   0  0  0  0  0  0  0  0  0  0  0  0
   11.8745   14.4688    7.9931 N   0  0  0  0  0  0  0  0  0  0  0  0
   14.2349   10.1350    7.1309 N   0  0  0  0  0  0  0  0  0  0  0  0
   11.0350   15.5360    7.9879 N   0  0  0  0  0  0  0  0  0  0  0  0
    7.6918   13.9719    9.6566 N   0  0  0  0  0  0  0  0  0  0  0  0
    6.4520   11.9337    8.9018 C   0  0  0  0  0  0  0  0  0  0  0  0
   13.9997   11.0170    6.1152 C   0  0  0  0  0  0  0  0  0  0  0  0
    7.8025   15.4144    9.8977 C   0  0  0  0  0  0  0  0  0  0  0  0
   11.3521   16.7759    7.2992 C   0  0  0  0  0  0  0  0  0  0  0  0
    8.9505   13.2218    9.9101 C   0  0  0  0  0  0  0  0  0  0  0  0
   12.6890   10.4807   10.5327 C   0  0  0  0  0  0  0  0  0  0  0  0
    8.6840   16.0847    8.8327 C   0  0  0  0  0  0  0  0  0  0  0  0
   13.1250   11.9768    6.5690 C   0  0  0  0  0  0  0  0  0  0  0  0
   13.4895    9.8679    9.5645 C   0  0  0  0  0  0  0  0  0  0  0  0
   11.8465   18.4600    9.2227 C   0  0  0  0  0  0  0  0  0  0  0  0
   12.4551   19.0640    7.9485 C   0  0  0  0  0  0  0  0  0  0  0  0
   11.9827   11.6627   10.2095 C   0  0  0  0  0  0  0  0  0  0  0  0
    6.5982   13.4404    9.1049 C   0  0  0  0  0  0  0  0  0  0  0  0
   13.5542   10.4652    8.2933 C   0  0  0  0  0  0  0  0  0  0  0  0
   11.2936   13.5240    8.6868 C   0  0  0  0  0  0  0  0  0  0  0  0
    9.8932   15.2049    8.6383 C   0  0  0  0  0  0  0  0  0  0  0  0
   12.3812   17.5425    8.1395 C   0  0  0  0  0  0  0  0  0  0  0  0
   10.0274   13.9339    9.1122 C   0  0  0  0  0  0  0  0  0  0  0  0
   12.8202   11.6601    7.9568 C   0  0  0  0  0  0  0  0  0  0  0  0
   11.9916   12.2375    8.9454 C   0  0  0  0  0  0  0  0  0  0  0  0
   14.8299    9.3732    7.0552 H   0  0  0  0  0  0  0  0  0  0  0  0
    7.3097   11.4800    9.1437 H   0  0  0  0  0  0  0  0  0  0  0  0
    5.7164   11.5886    9.4846 H   0  0  0  0  0  0  0  0  0  0  0  0
    6.2343   11.7460    7.9439 H   0  0  0  0  0  0  0  0  0  0  0  0
   14.3957   10.9727    5.1980 H   0  0  0  0  0  0  0  0  0  0  0  0
    8.2075   15.5651   10.7995 H   0  0  0  0  0  0  0  0  0  0  0  0
    6.8895   15.8216    9.8701 H   0  0  0  0  0  0  0  0  0  0  0  0
   10.5236   17.3260    7.1943 H   0  0  0  0  0  0  0  0  0  0  0  0
   11.7345   16.5739    6.3976 H   0  0  0  0  0  0  0  0  0  0  0  0
    8.8589   12.2747    9.6026 H   0  0  0  0  0  0  0  0  0  0  0  0
    9.1734   13.2357   10.8849 H   0  0  0  0  0  0  0  0  0  0  0  0
   12.6161   10.0857   11.4485 H   0  0  0  0  0  0  0  0  0  0  0  0
    8.9667   16.9923    9.1433 H   0  0  0  0  0  0  0  0  0  0  0  0
    8.1794   16.1687    7.9734 H   0  0  0  0  0  0  0  0  0  0  0  0
   12.7655   12.7481    6.0437 H   0  0  0  0  0  0  0  0  0  0  0  0
   13.9993    9.0323    9.7691 H   0  0  0  0  0  0  0  0  0  0  0  0
   10.8614   18.5218    9.3829 H   0  0  0  0  0  0  0  0  0  0  0  0
   12.3315   18.5396   10.0936 H   0  0  0  0  0  0  0  0  0  0  0  0
   13.3377   19.5325    7.9871 H   0  0  0  0  0  0  0  0  0  0  0  0
   11.8675   19.5147    7.2765 H   0  0  0  0  0  0  0  0  0  0  0  0
   11.4491   12.1077   10.9288 H   0  0  0  0  0  0  0  0  0  0  0  0
   13.2420   17.0721    8.3341 H   0  0  0  0  0  0  0  0  0  0  0  0
  1 18  2  0  0  0  0
  2  4  1  0  0  0  0
  2 20  2  0  0  0  0
  3  7  1  0  0  0  0
  3 19  1  0  0  0  0
  3 26  1  0  0  0  0
  4  9  1  0  0  0  0
  4 21  1  0  0  0  0
  5  8  1  0  0  0  0
  5 10  1  0  0  0  0
  5 18  1  0  0  0  0
  6 18  1  0  0  0  0
  7 13  2  0  0  0  0
  8 12  1  0  0  0  0
  9 22  1  0  0  0  0
 10 23  1  0  0  0  0
 11 14  2  0  0  0  0
 11 17  1  0  0  0  0
 12 21  1  0  0  0  0
 13 24  1  0  0  0  0
 14 19  1  0  0  0  0
 15 16  1  0  0  0  0
 15 22  1  0  0  0  0
 16 22  1  0  0  0  0
 17 25  2  0  0  0  0
 19 24  2  0  0  0  0
 20 23  1  0  0  0  0
 20 25  1  0  0  0  0
 21 23  2  0  0  0  0
 24 25  1  0  0  0  0
  6 27  1  0  0  0  0
  6 28  1  0  0  0  0
  6 29  1  0  0  0  0
  7 30  1  0  0  0  0
  8 31  1  0  0  0  0
  8 32  1  0  0  0  0
  9 33  1  0  0  0  0
  9 34  1  0  0  0  0
 10 35  1  0  0  0  0
 10 36  1  0  0  0  0
 11 37  1  0  0  0  0
 12 38  1  0  0  0  0
 12 39  1  0  0  0  0
 13 40  1  0  0  0  0
 14 41  1  0  0  0  0
 15 42  1  0  0  0  0
 15 43  1  0  0  0  0
 16 44  1  0  0  0  0
 16 45  1  0  0  0  0
 17 46  1  0  0  0  0
 22 47  1  0  0  0  0
M  END
> <pdb_id>
6ALC

> <uniprot_id>
Q92793

> <usmiles>
O=C(N1CC=2C(=NN(C2CC1)CC3CC3)c4c5c(NC=C5)ccc4)C

$$$$
BL0_A_300
          07192416293D 1   1.00000     0.00000     0
            
 23 23  0  0  0  0            999 V2000
   -5.8713    3.7269   14.0520 S   0  0  0  0  0  0  0  0  0  0  0  0
   -5.3458    1.0534   16.3021 S   0  0  0  0  0  0  0  0  0  0  0  0
   -6.6767    1.3952   16.1936 O   0  0  0  0  0  0  0  0  0  0  0  0
   -4.6570    1.6295   17.4014 O   0  0  0  0  0  0  0  0  0  0  0  0
   -5.2601   -0.4709   16.5759 N   0  0  0  0  0  0  0  0  0  0  0  0
   -3.6773    5.0131   14.0279 N   0  0  0  0  0  0  0  0  0  0  0  0
   -3.3640    3.7167   14.4586 N   0  0  0  0  0  0  0  0  0  0  0  0
   -5.4793    6.3675   13.2786 N   0  0  0  0  0  0  0  0  0  0  0  0
   -4.5849    7.4310   12.8768 C   0  0  0  0  0  0  0  0  0  0  0  0
   -6.8859    6.5991   13.0377 C   0  0  0  0  0  0  0  0  0  0  0  0
   -4.5350    1.4270   14.9015 C   0  0  0  0  0  0  0  0  0  0  0  0
   -4.9742    5.1770   13.7567 C   0  0  0  0  0  0  0  0  0  0  0  0
   -4.4269    2.8827   14.5314 C   0  0  0  0  0  0  0  0  0  0  0  0
   -4.3009   -0.7413   16.6584 H   0  0  0  0  0  0  0  0  0  0  0  0
   -5.7409   -0.6844   17.4264 H   0  0  0  0  0  0  0  0  0  0  0  0
   -3.6424    7.1709   13.0863 H   0  0  0  0  0  0  0  0  0  0  0  0
   -4.6762    7.5898   11.8937 H   0  0  0  0  0  0  0  0  0  0  0  0
   -4.8179    8.2676   13.3726 H   0  0  0  0  0  0  0  0  0  0  0  0
   -7.4122    5.8081   13.3498 H   0  0  0  0  0  0  0  0  0  0  0  0
   -7.1801    7.4136   13.5378 H   0  0  0  0  0  0  0  0  0  0  0  0
   -7.0384    6.7357   12.0589 H   0  0  0  0  0  0  0  0  0  0  0  0
   -5.0023    0.9603   14.1506 H   0  0  0  0  0  0  0  0  0  0  0  0
   -3.6050    1.0697   14.9887 H   0  0  0  0  0  0  0  0  0  0  0  0
  1 12  1  0  0  0  0
  1 13  1  0  0  0  0
  2  3  2  0  0  0  0
  2  4  2  0  0  0  0
  2  5  1  0  0  0  0
  2 11  1  0  0  0  0
  6  7  1  0  0  0  0
  6 12  2  0  0  0  0
  7 13  2  0  0  0  0
  8  9  1  0  0  0  0
  8 10  1  0  0  0  0
  8 12  1  0  0  0  0
 11 13  1  0  0  0  0
  5 14  1  0  0  0  0
  5 15  1  0  0  0  0
  9 16  1  0  0  0  0
  9 17  1  0  0  0  0
  9 18  1  0  0  0  0
 10 19  1  0  0  0  0
 10 20  1  0  0  0  0
 10 21  1  0  0  0  0
 11 22  1  0  0  0  0
 11 23  1  0  0  0  0
M  END
> <pdb_id>
3BL0

> <uniprot_id>
P00918

> <usmiles>
S(=O)(=O)(N)CC=1SC(=NN1)N(C)C

$$$$
BLI_A_300
          07202416143D 1   1.00000     0.00000     0
            
 66 69  0  0  0  0            999 V2000
    8.9375  -17.2196   12.0268 S   0  0  0  0  0  0  0  0  0  0  0  0
    8.6671  -17.8518   13.3080 O   0  0  0  0  0  0  0  0  0  0  0  0
    9.9408  -17.7399   11.1772 O   0  0  0  0  0  0  0  0  0  0  0  0
   18.2703   -8.8349   10.2970 O   0  0  0  0  0  0  0  0  0  0  0  0
   13.4863  -13.4880   14.4922 O   0  0  0  0  0  0  0  0  0  0  0  0
   12.2449  -13.3655   11.8792 O   0  0  0  0  0  0  0  0  0  0  0  0
   18.7134  -12.2668   10.2729 N   0  0  0  0  0  0  0  0  0  0  0  0
   17.8895  -10.1959   10.0843 N   0  0  0  0  0  0  0  0  0  0  0  0
   13.5823  -11.3328   15.1384 N   0  0  0  0  0  0  0  0  0  0  0  0
    9.5095  -15.6356   12.4377 N   0  0  0  0  0  0  0  0  0  0  0  0
   17.7951  -11.4031   12.1953 N   0  0  0  0  0  0  0  0  0  0  0  0
   10.8374  -13.4500   13.6610 N   0  0  0  0  0  0  0  0  0  0  0  0
    7.3475  -16.9933   11.2054 C   0  0  0  0  0  0  0  0  0  0  0  0
   14.9961  -11.4116   15.4794 C   0  0  0  0  0  0  0  0  0  0  0  0
   17.1970  -10.1464   12.6579 C   0  0  0  0  0  0  0  0  0  0  0  0
   17.0942  -12.6520   12.5422 C   0  0  0  0  0  0  0  0  0  0  0  0
    7.8677  -13.5290    8.9293 C   0  0  0  0  0  0  0  0  0  0  0  0
    6.6772  -13.6782    9.6147 C   0  0  0  0  0  0  0  0  0  0  0  0
    8.7317  -14.5989    8.7446 C   0  0  0  0  0  0  0  0  0  0  0  0
   10.9510  -15.3986   12.2867 C   0  0  0  0  0  0  0  0  0  0  0  0
    8.7887  -14.8139   13.4041 C   0  0  0  0  0  0  0  0  0  0  0  0
   16.6269  -10.2047   14.0651 C   0  0  0  0  0  0  0  0  0  0  0  0
   16.5171  -12.6974   13.9576 C   0  0  0  0  0  0  0  0  0  0  0  0
    6.4023  -14.8732   10.2350 C   0  0  0  0  0  0  0  0  0  0  0  0
    8.4539  -15.7887    9.3541 C   0  0  0  0  0  0  0  0  0  0  0  0
    9.1855  -12.9869   15.2164 C   0  0  0  0  0  0  0  0  0  0  0  0
   10.4728  -12.2598   15.6316 C   0  0  0  0  0  0  0  0  0  0  0  0
   12.9263  -12.4270   14.6808 C   0  0  0  0  0  0  0  0  0  0  0  0
   18.1300  -11.2878   10.8422 C   0  0  0  0  0  0  0  0  0  0  0  0
   11.4055  -13.9606   12.5649 C   0  0  0  0  0  0  0  0  0  0  0  0
    9.7490  -14.1133   14.3527 C   0  0  2  0  0  0  0  0  0  0  0  0
    7.3687  -15.8686   10.2140 C   0  0  0  0  0  0  0  0  0  0  0  0
   15.7259  -11.4138   14.1658 C   0  0  0  0  0  0  0  0  0  0  0  0
   11.3834  -12.2989   14.3781 C   0  0  1  0  0  0  0  0  0  0  0  0
   17.9322   -8.2723    9.5425 H   0  0  0  0  0  0  0  0  0  0  0  0
   18.9143  -13.0986   10.7903 H   0  0  0  0  0  0  0  0  0  0  0  0
   17.3664  -10.3652    9.2490 H   0  0  0  0  0  0  0  0  0  0  0  0
   13.0930  -10.4669   15.2424 H   0  0  0  0  0  0  0  0  0  0  0  0
    6.6536  -16.7970   11.8982 H   0  0  0  0  0  0  0  0  0  0  0  0
    7.1106  -17.8386   10.7265 H   0  0  0  0  0  0  0  0  0  0  0  0
   15.1870  -12.2520   15.9867 H   0  0  0  0  0  0  0  0  0  0  0  0
   15.2677  -10.6215   16.0289 H   0  0  0  0  0  0  0  0  0  0  0  0
   16.4576   -9.9021   12.0305 H   0  0  0  0  0  0  0  0  0  0  0  0
   17.9017   -9.4373   12.6348 H   0  0  0  0  0  0  0  0  0  0  0  0
   17.7419  -13.4079   12.4469 H   0  0  0  0  0  0  0  0  0  0  0  0
   16.3411  -12.7748   11.8960 H   0  0  0  0  0  0  0  0  0  0  0  0
    8.1113  -12.6325    8.5591 H   0  0  0  0  0  0  0  0  0  0  0  0
    6.0221  -12.9240    9.6588 H   0  0  0  0  0  0  0  0  0  0  0  0
    9.5464  -14.4999    8.1733 H   0  0  0  0  0  0  0  0  0  0  0  0
   11.2061  -15.6281   11.3474 H   0  0  0  0  0  0  0  0  0  0  0  0
   11.4327  -16.0040   12.9203 H   0  0  0  0  0  0  0  0  0  0  0  0
    8.1737  -15.3974   13.9344 H   0  0  0  0  0  0  0  0  0  0  0  0
    8.2545  -14.1256   12.9132 H   0  0  0  0  0  0  0  0  0  0  0  0
   16.1005   -9.3750   14.2507 H   0  0  0  0  0  0  0  0  0  0  0  0
   17.3715  -10.2823   14.7280 H   0  0  0  0  0  0  0  0  0  0  0  0
   17.2574  -12.7553   14.6273 H   0  0  0  0  0  0  0  0  0  0  0  0
   15.9154  -13.4900   14.0564 H   0  0  0  0  0  0  0  0  0  0  0  0
    5.5252  -15.0221   10.6916 H   0  0  0  0  0  0  0  0  0  0  0  0
    9.0250  -16.5915    9.1827 H   0  0  0  0  0  0  0  0  0  0  0  0
    8.5800  -12.3894   14.6907 H   0  0  0  0  0  0  0  0  0  0  0  0
    8.6938  -13.3444   16.0104 H   0  0  0  0  0  0  0  0  0  0  0  0
   10.9101  -12.7309   16.3976 H   0  0  0  0  0  0  0  0  0  0  0  0
   10.2737  -11.3149   15.8911 H   0  0  0  0  0  0  0  0  0  0  0  0
   10.1426  -14.8029   14.9606 H   0  0  0  0  0  0  0  0  0  0  0  0
   15.0450  -11.3510   13.4362 H   0  0  0  0  0  0  0  0  0  0  0  0
   11.2259  -11.4735   13.8360 H   0  0  0  0  0  0  0  0  0  0  0  0
  1  2  2  0  0  0  0
  1  3  2  0  0  0  0
  1 10  1  0  0  0  0
  1 13  1  0  0  0  0
  4  8  1  0  0  0  0
  5 28  2  0  0  0  0
  6 30  2  0  0  0  0
  7 29  2  0  0  0  0
  8 29  1  0  0  0  0
  9 14  1  0  0  0  0
  9 28  1  0  0  0  0
 10 20  1  0  0  0  0
 10 21  1  0  0  0  0
 11 15  1  0  0  0  0
 11 16  1  0  0  0  0
 11 29  1  0  0  0  0
 12 30  1  0  0  0  0
 12 31  1  0  0  0  0
 12 34  1  0  0  0  0
 13 32  1  0  0  0  0
 14 33  1  0  0  0  0
 15 22  1  0  0  0  0
 16 23  1  0  0  0  0
 17 18  2  0  0  0  0
 17 19  1  0  0  0  0
 18 24  1  0  0  0  0
 19 25  2  0  0  0  0
 20 30  1  0  0  0  0
 21 31  1  0  0  0  0
 22 33  1  0  0  0  0
 23 33  1  0  0  0  0
 24 32  2  0  0  0  0
 25 32  1  0  0  0  0
 26 27  1  0  0  0  0
 26 31  1  0  0  0  0
 27 34  1  0  0  0  0
 28 34  1  0  0  0  0
  4 35  1  0  0  0  0
  7 36  1  0  0  0  0
  8 37  1  0  0  0  0
  9 38  1  0  0  0  0
 13 39  1  0  0  0  0
 13 40  1  0  0  0  0
 14 41  1  0  0  0  0
 14 42  1  0  0  0  0
 15 43  1  0  0  0  0
 15 44  1  0  0  0  0
 16 45  1  0  0  0  0
 16 46  1  0  0  0  0
 17 47  1  0  0  0  0
 18 48  1  0  0  0  0
 19 49  1  0  0  0  0
 20 50  1  0  0  0  0
 20 51  1  0  0  0  0
 21 52  1  0  0  0  0
 21 53  1  0  0  0  0
 22 54  1  0  0  0  0
 22 55  1  0  0  0  0
 23 56  1  0  0  0  0
 23 57  1  0  0  0  0
 24 58  1  0  0  0  0
 25 59  1  0  0  0  0
 26 60  1  0  0  0  0
 26 61  1  0  0  0  0
 27 62  1  0  0  0  0
 27 63  1  0  0  0  0
 31 64  1  0  0  0  0
 33 65  1  0  0  0  0
 34 66  1  0  0  0  0
M  END
> <pdb_id>
1JWT

> <uniprot_id>
P00734

> <usmiles>
S(=O)(=O)(N1CC(=O)N2[C@H](C(=O)NCC3CCN(C(=N)NO)CC3)CC[C@H]2C1)Cc4ccccc4

$$$$
BMP_A_2001
          07202402263D 1   1.00000     0.00000     0
            
 35 36  0  0  0  0            999 V2000
   39.1166   34.6800   35.2197 P   0  0  0  0  0  0  0  0  0  0  0  0
   40.3607   34.7668   34.3793 O   0  0  0  0  0  0  0  0  0  0  0  0
   37.9502   34.4228   34.3478 O   0  0  0  0  0  0  0  0  0  0  0  0
   39.1312   33.5082   36.3354 O   0  0  0  0  0  0  0  0  0  0  0  0
   42.2761   38.5726   36.2287 O   0  0  0  0  0  0  0  0  0  0  0  0
   45.7212   40.8213   38.1082 O   0  0  0  0  0  0  0  0  0  0  0  0
   41.3498   41.6424   39.4542 O   0  0  0  0  0  0  0  0  0  0  0  0
   39.2424   41.2687   35.9739 O   0  0  0  0  0  0  0  0  0  0  0  0
   37.3224   39.6124   36.9973 O   0  0  0  0  0  0  0  0  0  0  0  0
   38.7792   36.0357   35.9951 O   0  0  0  0  0  0  0  0  0  0  0  0
   39.9975   38.6034   38.2367 O   0  0  0  0  0  0  0  0  0  0  0  0
   43.9939   39.7296   37.1928 N   0  0  0  0  0  0  0  0  0  0  0  0
   41.7725   40.1192   37.8255 N   0  0  0  0  0  0  0  0  0  0  0  0
   39.7202   36.6813   36.8455 C   0  0  0  0  0  0  0  0  0  0  0  0
   43.5290   41.3405   38.8851 C   0  0  0  0  0  0  0  0  0  0  0  0
   42.6772   39.4104   37.0157 C   0  0  0  0  0  0  0  0  0  0  0  0
   44.5150   40.6672   38.0838 C   0  0  0  0  0  0  0  0  0  0  0  0
   42.2248   41.0735   38.7567 C   0  0  0  0  0  0  0  0  0  0  0  0
   39.6485   39.9339   36.3302 C   0  0  2  0  0  0  0  0  0  0  0  0
   38.4823   38.9515   36.4604 C   0  0  1  0  0  0  0  0  0  0  0  0
   40.3312   39.8431   37.6966 C   0  0  1  0  0  0  0  0  0  0  0  0
   39.0522   37.9160   37.4076 C   0  0  2  0  0  0  0  0  0  0  0  0
   41.1496   34.9407   34.9687 H   0  0  0  0  0  0  0  0  0  0  0  0
   37.1228   34.3650   34.9064 H   0  0  0  0  0  0  0  0  0  0  0  0
   46.1278   41.4855   38.7354 H   0  0  0  0  0  0  0  0  0  0  0  0
   40.0492   41.8556   35.9060 H   0  0  0  0  0  0  0  0  0  0  0  0
   36.5714   38.9567   37.0754 H   0  0  0  0  0  0  0  0  0  0  0  0
   44.6535   39.2391   36.6233 H   0  0  0  0  0  0  0  0  0  0  0  0
   40.5318   36.9405   36.3220 H   0  0  0  0  0  0  0  0  0  0  0  0
   39.9852   36.0678   37.5894 H   0  0  0  0  0  0  0  0  0  0  0  0
   43.8249   42.0233   39.5531 H   0  0  0  0  0  0  0  0  0  0  0  0
   40.2791   39.5932   35.6329 H   0  0  0  0  0  0  0  0  0  0  0  0
   38.2716   38.5381   35.5746 H   0  0  0  0  0  0  0  0  0  0  0  0
   39.8738   40.5207   38.2726 H   0  0  0  0  0  0  0  0  0  0  0  0
   38.3058   37.6088   37.9978 H   0  0  0  0  0  0  0  0  0  0  0  0
  1  2  1  0  0  0  0
  1  3  1  0  0  0  0
  1  4  2  0  0  0  0
  1 10  1  0  0  0  0
  5 16  2  0  0  0  0
  6 17  1  0  0  0  0
  7 18  2  0  0  0  0
  8 19  1  0  0  0  0
  9 20  1  0  0  0  0
 10 14  1  0  0  0  0
 11 21  1  0  0  0  0
 11 22  1  0  0  0  0
 12 16  1  0  0  0  0
 12 17  1  0  0  0  0
 13 16  1  0  0  0  0
 13 18  1  0  0  0  0
 13 21  1  0  0  0  0
 14 22  1  0  0  0  0
 15 17  2  0  0  0  0
 15 18  1  0  0  0  0
 19 20  1  0  0  0  0
 19 21  1  0  0  0  0
 20 22  1  0  0  0  0
  2 23  1  0  0  0  0
  3 24  1  0  0  0  0
  6 25  1  0  0  0  0
  8 26  1  0  0  0  0
  9 27  1  0  0  0  0
 12 28  1  0  0  0  0
 14 29  1  0  0  0  0
 14 30  1  0  0  0  0
 15 31  1  0  0  0  0
 19 32  1  0  0  0  0
 20 33  1  0  0  0  0
 21 34  1  0  0  0  0
 22 35  1  0  0  0  0
M  END
> <pdb_id>
1LOR

> <uniprot_id>
O26232

> <usmiles>
P(=O)(OC[C@H]1O[C@@H](N2C(=O)NC(O)=CC2=O)[C@H](O)[C@@H]1O)(O)O

$$$$
BMP_A_229
          07202402273D 1   1.00000     0.00000     0
            
 35 36  0  0  0  0            999 V2000
   25.1040   -2.4000    8.4060 P   0  0  0  0  0  0  0  0  0  0  0  0
   24.3820   -3.2060    7.3830 O   0  0  0  0  0  0  0  0  0  0  0  0
   25.8470   -3.3000    9.4770 O   0  0  0  0  0  0  0  0  0  0  0  0
   26.0820   -1.3600    7.7470 O   0  0  0  0  0  0  0  0  0  0  0  0
   20.0510   -1.4980    7.4750 O   0  0  0  0  0  0  0  0  0  0  0  0
   16.4950    0.3020    5.4860 O   0  0  0  0  0  0  0  0  0  0  0  0
   17.8570    1.8590    9.6520 O   0  0  0  0  0  0  0  0  0  0  0  0
   19.1480   -1.5330   11.4340 O   0  0  0  0  0  0  0  0  0  0  0  0
   21.5180   -0.4650   12.1960 O   0  0  0  0  0  0  0  0  0  0  0  0
   24.0790   -1.6210    9.3330 O   0  0  0  0  0  0  0  0  0  0  0  0
   21.1490    0.5500    9.3250 O   0  0  0  0  0  0  0  0  0  0  0  0
   18.2740   -0.6010    6.5010 N   0  0  0  0  0  0  0  0  0  0  0  0
   18.9710    0.1200    8.6100 N   0  0  0  0  0  0  0  0  0  0  0  0
   22.9020   -1.0220    8.8100 C   0  0  0  0  0  0  0  0  0  0  0  0
   17.0550    1.1380    7.5560 C   0  0  0  0  0  0  0  0  0  0  0  0
   19.1410   -0.6800    7.5360 C   0  0  0  0  0  0  0  0  0  0  0  0
   17.2480    0.2850    6.4690 C   0  0  0  0  0  0  0  0  0  0  0  0
   17.9500    1.0530    8.5970 C   0  0  0  0  0  0  0  0  0  0  0  0
   20.0960   -1.2700   10.4180 C   0  0  2  0  0  0  0  0  0  0  0  0
   21.5240   -1.1480   10.9420 C   0  0  1  0  0  0  0  0  0  0  0  0
   19.8800    0.1090    9.7710 C   0  0  1  0  0  0  0  0  0  0  0  0
   22.1900   -0.2740    9.8970 C   0  0  2  0  0  0  0  0  0  0  0  0
   23.9317   -2.5937    6.7332 H   0  0  0  0  0  0  0  0  0  0  0  0
   26.3144   -2.7136   10.1386 H   0  0  0  0  0  0  0  0  0  0  0  0
   17.1359    2.5507    9.6907 H   0  0  0  0  0  0  0  0  0  0  0  0
   18.2361   -1.6016   11.0294 H   0  0  0  0  0  0  0  0  0  0  0  0
   22.4547   -0.3863   12.5372 H   0  0  0  0  0  0  0  0  0  0  0  0
   18.3947   -1.2222    5.7267 H   0  0  0  0  0  0  0  0  0  0  0  0
   22.3002   -1.7333    8.4468 H   0  0  0  0  0  0  0  0  0  0  0  0
   23.1491   -0.3881    8.0771 H   0  0  0  0  0  0  0  0  0  0  0  0
   16.2944    1.7869    7.5775 H   0  0  0  0  0  0  0  0  0  0  0  0
   20.0509   -1.9836    9.7189 H   0  0  0  0  0  0  0  0  0  0  0  0
   21.9679   -2.0413   11.0117 H   0  0  0  0  0  0  0  0  0  0  0  0
   19.5365    0.7449   10.4621 H   0  0  0  0  0  0  0  0  0  0  0  0
   22.8493    0.3217   10.3558 H   0  0  0  0  0  0  0  0  0  0  0  0
  1  2  1  0  0  0  0
  1  3  1  0  0  0  0
  1  4  2  0  0  0  0
  1 10  1  0  0  0  0
  5 16  2  0  0  0  0
  6 17  2  0  0  0  0
  7 18  1  0  0  0  0
  8 19  1  0  0  0  0
  9 20  1  0  0  0  0
 10 14  1  0  0  0  0
 11 21  1  0  0  0  0
 11 22  1  0  0  0  0
 12 16  1  0  0  0  0
 12 17  1  0  0  0  0
 13 16  1  0  0  0  0
 13 18  1  0  0  0  0
 13 21  1  0  0  0  0
 14 22  1  0  0  0  0
 15 17  1  0  0  0  0
 15 18  2  0  0  0  0
 19 20  1  0  0  0  0
 19 21  1  0  0  0  0
 20 22  1  0  0  0  0
  2 23  1  0  0  0  0
  3 24  1  0  0  0  0
  7 25  1  0  0  0  0
  8 26  1  0  0  0  0
  9 27  1  0  0  0  0
 12 28  1  0  0  0  0
 14 29  1  0  0  0  0
 14 30  1  0  0  0  0
 15 31  1  0  0  0  0
 19 32  1  0  0  0  0
 20 33  1  0  0  0  0
 21 34  1  0  0  0  0
 22 35  1  0  0  0  0
M  END
> <pdb_id>
3SIZ

> <uniprot_id>
O26232

> <usmiles>
P(=O)(OC[C@H]1O[C@@H](N2C(=O)NC(=O)C=C2O)[C@H](O)[C@@H]1O)(O)O

$$$$
BMP_A_301
          07202400023D 1   1.00000     0.00000     0
            
 35 36  0  0  0  0            999 V2000
   19.0491   34.7212   38.6208 P   0  0  0  0  0  0  0  0  0  0  0  0
   17.7786   34.9588   39.3589 O   0  0  0  0  0  0  0  0  0  0  0  0
   20.2465   34.6262   39.5321 O   0  0  0  0  0  0  0  0  0  0  0  0
   18.9662   33.5826   37.6532 O   0  0  0  0  0  0  0  0  0  0  0  0
   15.9104   38.5842   37.4440 O   0  0  0  0  0  0  0  0  0  0  0  0
   12.5814   41.0776   35.7669 O   0  0  0  0  0  0  0  0  0  0  0  0
   16.9345   42.1998   34.8496 O   0  0  0  0  0  0  0  0  0  0  0  0
   19.0420   41.2726   38.0356 O   0  0  0  0  0  0  0  0  0  0  0  0
   20.7883   39.6647   36.8505 O   0  0  0  0  0  0  0  0  0  0  0  0
   19.4109   36.0398   37.7527 O   0  0  0  0  0  0  0  0  0  0  0  0
   18.1806   38.7534   35.6723 O   0  0  0  0  0  0  0  0  0  0  0  0
   14.2534   39.8459   36.5994 N   0  0  0  0  0  0  0  0  0  0  0  0
   16.5196   40.3493   36.1802 N   0  0  0  0  0  0  0  0  0  0  0  0
   18.3593   36.8426   37.1757 C   0  0  0  0  0  0  0  0  0  0  0  0
   14.7362   41.7606   35.2933 C   0  0  0  0  0  0  0  0  0  0  0  0
   15.5582   39.5495   36.7484 C   0  0  0  0  0  0  0  0  0  0  0  0
   13.8220   40.9090   35.8816 C   0  0  0  0  0  0  0  0  0  0  0  0
   16.0790   41.4692   35.4212 C   0  0  0  0  0  0  0  0  0  0  0  0
   18.5119   39.9961   37.6608 C   0  0  2  0  0  0  0  0  0  0  0  0
   19.6589   39.0029   37.4854 C   0  0  1  0  0  0  0  0  0  0  0  0
   17.9582   40.0688   36.2609 C   0  0  1  0  0  0  0  0  0  0  0  0
   19.0989   37.9856   36.4996 C   0  0  2  0  0  0  0  0  0  0  0  0
   17.0206   35.0131   38.7089 H   0  0  0  0  0  0  0  0  0  0  0  0
   21.0691   34.4669   38.9862 H   0  0  0  0  0  0  0  0  0  0  0  0
   12.2285   41.8531   35.2433 H   0  0  0  0  0  0  0  0  0  0  0  0
   18.2922   41.9241   38.1508 H   0  0  0  0  0  0  0  0  0  0  0  0
   21.5369   39.0114   36.7375 H   0  0  0  0  0  0  0  0  0  0  0  0
   13.5749   39.2561   37.0372 H   0  0  0  0  0  0  0  0  0  0  0  0
   17.7449   37.1872   37.8855 H   0  0  0  0  0  0  0  0  0  0  0  0
   17.8344   36.3145   36.5082 H   0  0  0  0  0  0  0  0  0  0  0  0
   14.4329   42.5681   34.7874 H   0  0  0  0  0  0  0  0  0  0  0  0
   17.8306   39.6680   38.3152 H   0  0  0  0  0  0  0  0  0  0  0  0
   19.9173   38.5769   38.3524 H   0  0  0  0  0  0  0  0  0  0  0  0
   18.4617   40.7571   35.7386 H   0  0  0  0  0  0  0  0  0  0  0  0
   19.8386   37.6212   35.9339 H   0  0  0  0  0  0  0  0  0  0  0  0
  1  2  1  0  0  0  0
  1  3  1  0  0  0  0
  1  4  2  0  0  0  0
  1 10  1  0  0  0  0
  5 16  2  0  0  0  0
  6 17  1  0  0  0  0
  7 18  2  0  0  0  0
  8 19  1  0  0  0  0
  9 20  1  0  0  0  0
 10 14  1  0  0  0  0
 11 21  1  0  0  0  0
 11 22  1  0  0  0  0
 12 16  1  0  0  0  0
 12 17  1  0  0  0  0
 13 16  1  0  0  0  0
 13 18  1  0  0  0  0
 13 21  1  0  0  0  0
 14 22  1  0  0  0  0
 15 17  2  0  0  0  0
 15 18  1  0  0  0  0
 19 20  1  0  0  0  0
 19 21  1  0  0  0  0
 20 22  1  0  0  0  0
  2 23  1  0  0  0  0
  3 24  1  0  0  0  0
  6 25  1  0  0  0  0
  8 26  1  0  0  0  0
  9 27  1  0  0  0  0
 12 28  1  0  0  0  0
 14 29  1  0  0  0  0
 14 30  1  0  0  0  0
 15 31  1  0  0  0  0
 19 32  1  0  0  0  0
 20 33  1  0  0  0  0
 21 34  1  0  0  0  0
 22 35  1  0  0  0  0
M  END
> <pdb_id>
2ZZ7

> <uniprot_id>
O26232

> <usmiles>
P(=O)(OC[C@H]1O[C@@H](N2C(=O)NC(O)=CC2=O)[C@H](O)[C@@H]1O)(O)O

$$$$
BMP_A_501
          07202408053D 1   1.00000     0.00000     0
            
 35 36  0  0  0  0            999 V2000
   12.2160   13.4380   42.1190 P   0  0  0  0  0  0  0  0  0  0  0  0
   12.5680   14.8850   41.7960 O   0  0  0  0  0  0  0  0  0  0  0  0
   13.3700   12.6970   42.7730 O   0  0  0  0  0  0  0  0  0  0  0  0
   10.9350   13.3180   42.9010 O   0  0  0  0  0  0  0  0  0  0  0  0
   15.2320   10.6690   39.0720 O   0  0  0  0  0  0  0  0  0  0  0  0
   18.6780    9.6690   36.3600 O   0  0  0  0  0  0  0  0  0  0  0  0
   14.3510    9.9590   34.6560 O   0  0  0  0  0  0  0  0  0  0  0  0
   11.9400    8.4780   37.6030 O   0  0  0  0  0  0  0  0  0  0  0  0
   10.3060   10.4900   37.9090 O   0  0  0  0  0  0  0  0  0  0  0  0
   11.8580   12.7210   40.7260 O   0  0  0  0  0  0  0  0  0  0  0  0
   13.1040   11.8510   37.4390 O   0  0  0  0  0  0  0  0  0  0  0  0
   16.9110   10.0990   37.6880 N   0  0  0  0  0  0  0  0  0  0  0  0
   14.7170   10.2000   36.8880 N   0  0  0  0  0  0  0  0  0  0  0  0
   16.5350    9.6270   35.4040 C   0  0  0  0  0  0  0  0  0  0  0  0
   12.8720   12.4280   39.7790 C   0  0  0  0  0  0  0  0  0  0  0  0
   15.6250   10.3340   37.9390 C   0  0  0  0  0  0  0  0  0  0  0  0
   17.4400    9.7680   36.4490 C   0  0  0  0  0  0  0  0  0  0  0  0
   15.2090    9.9200   35.5780 C   0  0  0  0  0  0  0  0  0  0  0  0
   12.5580    9.6390   38.1450 C   0  0  2  0  0  0  0  0  0  0  0  0
   11.5040   10.5990   38.6800 C   0  0  1  0  0  0  0  0  0  0  0  0
   13.2900   10.4770   37.0760 C   0  0  1  0  0  0  0  0  0  0  0  0
   12.1700   11.9580   38.5260 C   0  0  2  0  0  0  0  0  0  0  0  0
   11.2490    8.7420   36.9800 H   0  0  0  0  0  0  0  0  0  0  0  0
    9.5580   10.3230   38.4980 H   0  0  0  0  0  0  0  0  0  0  0  0
   17.5730   10.1690   38.4870 H   0  0  0  0  0  0  0  0  0  0  0  0
   13.5400   11.6520   40.1580 H   0  0  0  0  0  0  0  0  0  0  0  0
   13.4720   13.3170   39.5720 H   0  0  0  0  0  0  0  0  0  0  0  0
   13.3100    9.4030   38.9110 H   0  0  0  0  0  0  0  0  0  0  0  0
   11.2970   10.4190   39.7440 H   0  0  0  0  0  0  0  0  0  0  0  0
   12.7890   10.2860   36.1170 H   0  0  0  0  0  0  0  0  0  0  0  0
   11.4160   12.7030   38.2340 H   0  0  0  0  0  0  0  0  0  0  0  0
   11.7821   15.3318   41.3686 H   0  0  0  0  0  0  0  0  0  0  0  0
   13.0947   11.7553   42.9663 H   0  0  0  0  0  0  0  0  0  0  0  0
   19.0990    9.4321   35.4844 H   0  0  0  0  0  0  0  0  0  0  0  0
   16.8566    9.3072   34.5128 H   0  0  0  0  0  0  0  0  0  0  0  0
  1  2  1  0  0  0  0
  1  3  1  0  0  0  0
  1  4  2  0  0  0  0
  1 10  1  0  0  0  0
  5 16  2  0  0  0  0
  6 17  1  0  0  0  0
  7 18  2  0  0  0  0
  8 19  1  0  0  0  0
  8 23  1  0  0  0  0
  9 20  1  0  0  0  0
  9 24  1  0  0  0  0
 10 15  1  0  0  0  0
 11 21  1  0  0  0  0
 11 22  1  0  0  0  0
 12 16  1  0  0  0  0
 12 17  1  0  0  0  0
 12 25  1  0  0  0  0
 13 16  1  0  0  0  0
 13 18  1  0  0  0  0
 13 21  1  0  0  0  0
 14 17  2  0  0  0  0
 14 18  1  0  0  0  0
 15 22  1  0  0  0  0
 15 26  1  0  0  0  0
 15 27  1  0  0  0  0
 19 20  1  0  0  0  0
 19 21  1  0  0  0  0
 19 28  1  0  0  0  0
 20 22  1  0  0  0  0
 20 29  1  0  0  0  0
 21 30  1  0  0  0  0
 22 31  1  0  0  0  0
  2 32  1  0  0  0  0
  3 33  1  0  0  0  0
  6 34  1  0  0  0  0
 14 35  1  0  0  0  0
M  END
> <pdb_id>
7OTU

> <uniprot_id>
P11172

> <usmiles>
P(=O)(OC[C@H]1O[C@@H](N2C(=O)NC(O)=CC2=O)[C@H](O)[C@@H]1O)(O)O

$$$$
BMP_B_229
          07202402263D 1   1.00000     0.00000     0
            
 35 36  0  0  0  0            999 V2000
   39.0938   34.6459   35.3114 P   0  0  0  0  0  0  0  0  0  0  0  0
   40.3617   34.7964   34.5708 O   0  0  0  0  0  0  0  0  0  0  0  0
   37.8467   34.4573   34.3396 O   0  0  0  0  0  0  0  0  0  0  0  0
   39.1849   33.4465   36.3525 O   0  0  0  0  0  0  0  0  0  0  0  0
   42.2635   38.5775   36.2985 O   0  0  0  0  0  0  0  0  0  0  0  0
   45.5970   40.7833   38.1035 O   0  0  0  0  0  0  0  0  0  0  0  0
   41.3042   41.7726   39.5248 O   0  0  0  0  0  0  0  0  0  0  0  0
   39.2050   41.2431   36.0216 O   0  0  0  0  0  0  0  0  0  0  0  0
   37.3798   39.5580   37.0025 O   0  0  0  0  0  0  0  0  0  0  0  0
   38.6867   36.0001   36.0703 O   0  0  0  0  0  0  0  0  0  0  0  0
   40.0301   38.5661   38.2542 O   0  0  0  0  0  0  0  0  0  0  0  0
   43.9243   39.6914   37.1959 N   0  0  0  0  0  0  0  0  0  0  0  0
   41.7350   40.1660   37.8475 N   0  0  0  0  0  0  0  0  0  0  0  0
   39.7615   36.7067   36.6914 C   0  0  0  0  0  0  0  0  0  0  0  0
   43.5139   41.3579   38.8597 C   0  0  0  0  0  0  0  0  0  0  0  0
   42.6149   39.4489   37.0877 C   0  0  0  0  0  0  0  0  0  0  0  0
   44.3926   40.6176   38.0435 C   0  0  0  0  0  0  0  0  0  0  0  0
   42.1788   41.1052   38.7437 C   0  0  0  0  0  0  0  0  0  0  0  0
   39.7019   39.9391   36.3192 C   0  0  2  0  0  0  0  0  0  0  0  0
   38.5393   38.9371   36.4275 C   0  0  1  0  0  0  0  0  0  0  0  0
   40.2922   39.8935   37.7488 C   0  0  1  0  0  0  0  0  0  0  0  0
   39.0800   37.8792   37.4041 C   0  0  2  0  0  0  0  0  0  0  0  0
   41.1146   34.9118   35.2188 H   0  0  0  0  0  0  0  0  0  0  0  0
   37.0127   34.3596   34.8826 H   0  0  0  0  0  0  0  0  0  0  0  0
   41.6355   42.4558   40.1756 H   0  0  0  0  0  0  0  0  0  0  0  0
   39.9698   41.8838   35.9540 H   0  0  0  0  0  0  0  0  0  0  0  0
   36.6389   38.8892   37.0629 H   0  0  0  0  0  0  0  0  0  0  0  0
   44.5673   39.1716   36.6335 H   0  0  0  0  0  0  0  0  0  0  0  0
   40.4110   37.0372   36.0067 H   0  0  0  0  0  0  0  0  0  0  0  0
   40.2379   36.1216   37.3477 H   0  0  0  0  0  0  0  0  0  0  0  0
   43.8572   42.0440   39.5011 H   0  0  0  0  0  0  0  0  0  0  0  0
   40.3735   39.6433   35.6399 H   0  0  0  0  0  0  0  0  0  0  0  0
   38.3279   38.5322   35.5379 H   0  0  0  0  0  0  0  0  0  0  0  0
   39.8027   40.5543   38.3177 H   0  0  0  0  0  0  0  0  0  0  0  0
   38.3276   37.5322   37.9639 H   0  0  0  0  0  0  0  0  0  0  0  0
  1  2  1  0  0  0  0
  1  3  1  0  0  0  0
  1  4  2  0  0  0  0
  1 10  1  0  0  0  0
  5 16  2  0  0  0  0
  6 17  2  0  0  0  0
  7 18  1  0  0  0  0
  8 19  1  0  0  0  0
  9 20  1  0  0  0  0
 10 14  1  0  0  0  0
 11 21  1  0  0  0  0
 11 22  1  0  0  0  0
 12 16  1  0  0  0  0
 12 17  1  0  0  0  0
 13 16  1  0  0  0  0
 13 18  1  0  0  0  0
 13 21  1  0  0  0  0
 14 22  1  0  0  0  0
 15 17  1  0  0  0  0
 15 18  2  0  0  0  0
 19 20  1  0  0  0  0
 19 21  1  0  0  0  0
 20 22  1  0  0  0  0
  2 23  1  0  0  0  0
  3 24  1  0  0  0  0
  7 25  1  0  0  0  0
  8 26  1  0  0  0  0
  9 27  1  0  0  0  0
 12 28  1  0  0  0  0
 14 29  1  0  0  0  0
 14 30  1  0  0  0  0
 15 31  1  0  0  0  0
 19 32  1  0  0  0  0
 20 33  1  0  0  0  0
 21 34  1  0  0  0  0
 22 35  1  0  0  0  0
M  END
> <pdb_id>
3NQ7

> <uniprot_id>
O26232

> <usmiles>
P(=O)(OC[C@H]1O[C@@H](N2C(=O)NC(=O)C=C2O)[C@H](O)[C@@H]1O)(O)O

$$$$
BMP_B_229
          07202404163D 1   1.00000     0.00000     0
            
 35 36  0  0  0  0            999 V2000
   -4.8660    2.0150   25.3170 P   0  0  0  0  0  0  0  0  0  0  0  0
   -5.3630    2.7020   24.0970 O   0  0  0  0  0  0  0  0  0  0  0  0
   -4.3920    3.0430   26.4390 O   0  0  0  0  0  0  0  0  0  0  0  0
   -5.9330    0.9930   25.8990 O   0  0  0  0  0  0  0  0  0  0  0  0
   -3.0800    0.7410   20.6800 O   0  0  0  0  0  0  0  0  0  0  0  0
   -2.9140   -1.3510   16.7750 O   0  0  0  0  0  0  0  0  0  0  0  0
    0.0820   -2.5160   20.1480 O   0  0  0  0  0  0  0  0  0  0  0  0
    0.7880    1.0720   21.9550 O   0  0  0  0  0  0  0  0  0  0  0  0
    0.2740    0.2250   24.4350 O   0  0  0  0  0  0  0  0  0  0  0  0
   -3.5100    1.2080   25.0230 O   0  0  0  0  0  0  0  0  0  0  0  0
   -1.9390   -1.1290   22.7460 O   0  0  0  0  0  0  0  0  0  0  0  0
   -2.9690   -0.3040   18.7290 N   0  0  0  0  0  0  0  0  0  0  0  0
   -1.4690   -0.8160   20.4510 N   0  0  0  0  0  0  0  0  0  0  0  0
   -3.4190    0.5440   23.7610 C   0  0  0  0  0  0  0  0  0  0  0  0
   -1.3330   -1.9870   18.3720 C   0  0  0  0  0  0  0  0  0  0  0  0
   -2.5210   -0.0910   19.9860 C   0  0  0  0  0  0  0  0  0  0  0  0
   -2.4210   -1.2150   17.9010 C   0  0  0  0  0  0  0  0  0  0  0  0
   -0.9070   -1.7710   19.6510 C   0  0  0  0  0  0  0  0  0  0  0  0
   -0.5870    0.7840   22.2110 C   0  0  2  0  0  0  0  0  0  0  0  0
   -0.8540    0.7630   23.7230 C   0  0  1  0  0  0  0  0  0  0  0  0
   -0.9390   -0.6680   21.8150 C   0  0  1  0  0  0  0  0  0  0  0  0
   -2.0630   -0.1880   23.8350 C   0  0  2  0  0  0  0  0  0  0  0  0
   -5.6482    2.0202   23.4233 H   0  0  0  0  0  0  0  0  0  0  0  0
   -4.0670    2.5376   27.2383 H   0  0  0  0  0  0  0  0  0  0  0  0
    0.5095   -3.2213   19.5824 H   0  0  0  0  0  0  0  0  0  0  0  0
    0.9482    1.0827   20.9680 H   0  0  0  0  0  0  0  0  0  0  0  0
    0.0781    0.2209   25.4156 H   0  0  0  0  0  0  0  0  0  0  0  0
   -3.7414    0.2385   18.3986 H   0  0  0  0  0  0  0  0  0  0  0  0
   -3.4287    1.2031   23.0090 H   0  0  0  0  0  0  0  0  0  0  0  0
   -4.1700   -0.1059   23.6443 H   0  0  0  0  0  0  0  0  0  0  0  0
   -0.8910   -2.6678   17.7879 H   0  0  0  0  0  0  0  0  0  0  0  0
   -1.1847    1.4388   21.7484 H   0  0  0  0  0  0  0  0  0  0  0  0
   -1.0855    1.6764   24.0578 H   0  0  0  0  0  0  0  0  0  0  0  0
   -0.1219   -1.2368   21.9088 H   0  0  0  0  0  0  0  0  0  0  0  0
   -2.0078   -0.6840   24.7016 H   0  0  0  0  0  0  0  0  0  0  0  0
  1  2  1  0  0  0  0
  1  3  1  0  0  0  0
  1  4  2  0  0  0  0
  1 10  1  0  0  0  0
  5 16  2  0  0  0  0
  6 17  2  0  0  0  0
  7 18  1  0  0  0  0
  8 19  1  0  0  0  0
  9 20  1  0  0  0  0
 10 14  1  0  0  0  0
 11 21  1  0  0  0  0
 11 22  1  0  0  0  0
 12 16  1  0  0  0  0
 12 17  1  0  0  0  0
 13 16  1  0  0  0  0
 13 18  1  0  0  0  0
 13 21  1  0  0  0  0
 14 22  1  0  0  0  0
 15 17  1  0  0  0  0
 15 18  2  0  0  0  0
 19 20  1  0  0  0  0
 19 21  1  0  0  0  0
 20 22  1  0  0  0  0
  2 23  1  0  0  0  0
  3 24  1  0  0  0  0
  7 25  1  0  0  0  0
  8 26  1  0  0  0  0
  9 27  1  0  0  0  0
 12 28  1  0  0  0  0
 14 29  1  0  0  0  0
 14 30  1  0  0  0  0
 15 31  1  0  0  0  0
 19 32  1  0  0  0  0
 20 33  1  0  0  0  0
 21 34  1  0  0  0  0
 22 35  1  0  0  0  0
M  END
> <pdb_id>
3NQF

> <uniprot_id>
O26232

> <usmiles>
P(=O)(OC[C@H]1O[C@@H](N2C(=O)NC(=O)C=C2O)[C@H](O)[C@@H]1O)(O)O

$$$$
BMP_B_301
          07192419073D 1   1.00000     0.00000     0
            
 35 36  0  0  0  0            999 V2000
   28.2762   51.1854   22.0289 P   0  0  0  0  0  0  0  0  0  0  0  0
   27.2900   50.2181   21.4812 O   0  0  0  0  0  0  0  0  0  0  0  0
   29.1366   52.0722   21.0216 O   0  0  0  0  0  0  0  0  0  0  0  0
   27.3780   52.1805   22.9253 O   0  0  0  0  0  0  0  0  0  0  0  0
   27.4458   46.4760   23.8896 O   0  0  0  0  0  0  0  0  0  0  0  0
   25.8639   42.9408   26.0875 O   0  0  0  0  0  0  0  0  0  0  0  0
   30.0549   44.6583   27.1437 O   0  0  0  0  0  0  0  0  0  0  0  0
   31.4598   45.6638   23.6710 O   0  0  0  0  0  0  0  0  0  0  0  0
   32.2248   48.1693   24.4088 O   0  0  0  0  0  0  0  0  0  0  0  0
   29.2540   50.4470   23.0461 O   0  0  0  0  0  0  0  0  0  0  0  0
   29.3715   47.8345   25.6133 O   0  0  0  0  0  0  0  0  0  0  0  0
   26.6251   44.7160   24.9633 N   0  0  0  0  0  0  0  0  0  0  0  0
   28.7529   45.5922   25.4685 N   0  0  0  0  0  0  0  0  0  0  0  0
   28.7768   49.4542   23.9397 C   0  0  0  0  0  0  0  0  0  0  0  0
   27.9419   43.7052   26.6684 C   0  0  0  0  0  0  0  0  0  0  0  0
   27.6090   45.6280   24.7497 C   0  0  0  0  0  0  0  0  0  0  0  0
   26.7615   43.7556   25.8992 C   0  0  0  0  0  0  0  0  0  0  0  0
   28.9122   44.6422   26.4343 C   0  0  0  0  0  0  0  0  0  0  0  0
   30.4369   46.6256   23.8825 C   0  0  2  0  0  0  0  0  0  0  0  0
   30.9211   48.0715   23.8218 C   0  0  1  0  0  0  0  0  0  0  0  0
   29.8600   46.5472   25.3040 C   0  0  1  0  0  0  0  0  0  0  0  0
   29.9127   48.8091   24.6928 C   0  0  2  0  0  0  0  0  0  0  0  0
   26.8352   49.7430   22.2345 H   0  0  0  0  0  0  0  0  0  0  0  0
   29.7490   52.6678   21.5414 H   0  0  0  0  0  0  0  0  0  0  0  0
   30.2081   43.9778   27.8603 H   0  0  0  0  0  0  0  0  0  0  0  0
   31.0696   44.7447   23.7250 H   0  0  0  0  0  0  0  0  0  0  0  0
   32.5388   49.1179   24.3673 H   0  0  0  0  0  0  0  0  0  0  0  0
   25.7876   44.7578   24.4184 H   0  0  0  0  0  0  0  0  0  0  0  0
   28.2904   48.7527   23.4188 H   0  0  0  0  0  0  0  0  0  0  0  0
   28.1504   49.8779   24.5940 H   0  0  0  0  0  0  0  0  0  0  0  0
   28.0675   43.0019   27.3682 H   0  0  0  0  0  0  0  0  0  0  0  0
   29.7047   46.4887   23.2153 H   0  0  0  0  0  0  0  0  0  0  0  0
   30.9162   48.4189   22.8841 H   0  0  0  0  0  0  0  0  0  0  0  0
   30.5928   46.3125   25.9427 H   0  0  0  0  0  0  0  0  0  0  0  0
   30.3932   49.5133   25.2156 H   0  0  0  0  0  0  0  0  0  0  0  0
  1  2  1  0  0  0  0
  1  3  1  0  0  0  0
  1  4  2  0  0  0  0
  1 10  1  0  0  0  0
  5 16  2  0  0  0  0
  6 17  2  0  0  0  0
  7 18  1  0  0  0  0
  8 19  1  0  0  0  0
  9 20  1  0  0  0  0
 10 14  1  0  0  0  0
 11 21  1  0  0  0  0
 11 22  1  0  0  0  0
 12 16  1  0  0  0  0
 12 17  1  0  0  0  0
 13 16  1  0  0  0  0
 13 18  1  0  0  0  0
 13 21  1  0  0  0  0
 14 22  1  0  0  0  0
 15 17  1  0  0  0  0
 15 18  2  0  0  0  0
 19 20  1  0  0  0  0
 19 21  1  0  0  0  0
 20 22  1  0  0  0  0
  2 23  1  0  0  0  0
  3 24  1  0  0  0  0
  7 25  1  0  0  0  0
  8 26  1  0  0  0  0
  9 27  1  0  0  0  0
 12 28  1  0  0  0  0
 14 29  1  0  0  0  0
 14 30  1  0  0  0  0
 15 31  1  0  0  0  0
 19 32  1  0  0  0  0
 20 33  1  0  0  0  0
 21 34  1  0  0  0  0
 22 35  1  0  0  0  0
M  END
> <pdb_id>
4FX8

> <uniprot_id>
O26232

> <usmiles>
P(=O)(OC[C@H]1O[C@@H](N2C(=O)NC(=O)C=C2O)[C@H](O)[C@@H]1O)(O)O

$$$$
BMP_B_602
          07192421183D 1   1.00000     0.00000     0
            
 35 36  0  0  0  0            999 V2000
   56.9240   90.0970   91.2430 P   0  0  0  0  0  0  0  0  0  0  0  0
   56.0410   89.3540   92.2590 O   0  0  0  0  0  0  0  0  0  0  0  0
   56.9270   91.5980   91.5590 O   0  0  0  0  0  0  0  0  0  0  0  0
   56.5330   89.7960   89.7940 O   0  0  0  0  0  0  0  0  0  0  0  0
   59.8290   87.7060   94.6730 O   0  0  0  0  0  0  0  0  0  0  0  0
   62.5960   86.7310   97.9880 O   0  0  0  0  0  0  0  0  0  0  0  0
   64.5540   87.0240   93.7080 O   0  0  0  0  0  0  0  0  0  0  0  0
   61.6020   85.3110   91.4070 O   0  0  0  0  0  0  0  0  0  0  0  0
   61.1510   87.1890   89.3550 O   0  0  0  0  0  0  0  0  0  0  0  0
   58.3620   89.5190   91.5990 O   0  0  0  0  0  0  0  0  0  0  0  0
   61.3860   88.9110   92.2380 O   0  0  0  0  0  0  0  0  0  0  0  0
   61.2000   87.2200   96.3230 N   0  0  0  0  0  0  0  0  0  0  0  0
   62.0820   87.4050   93.9820 N   0  0  0  0  0  0  0  0  0  0  0  0
   59.5140   89.8270   90.8560 C   0  0  0  0  0  0  0  0  0  0  0  0
   63.7090   86.8600   95.8100 C   0  0  0  0  0  0  0  0  0  0  0  0
   60.9920   87.4610   94.9570 C   0  0  0  0  0  0  0  0  0  0  0  0
   62.4730   86.8980   96.8000 C   0  0  0  0  0  0  0  0  0  0  0  0
   63.4810   87.1060   94.4840 C   0  0  0  0  0  0  0  0  0  0  0  0
   61.0590   86.5900   91.6800 C   0  0  2  0  0  0  0  0  0  0  0  0
   60.4350   87.3540   90.5600 C   0  0  1  0  0  0  0  0  0  0  0  0
   61.9030   87.6140   92.5010 C   0  0  1  0  0  0  0  0  0  0  0  0
   60.6250   88.7850   91.0450 C   0  0  2  0  0  0  0  0  0  0  0  0
   56.0420   88.3762   92.0493 H   0  0  0  0  0  0  0  0  0  0  0  0
   57.5023   92.0771   90.8960 H   0  0  0  0  0  0  0  0  0  0  0  0
   65.4474   86.8228   94.1097 H   0  0  0  0  0  0  0  0  0  0  0  0
   61.9819   84.9239   92.2472 H   0  0  0  0  0  0  0  0  0  0  0  0
   60.7063   87.7130   88.6286 H   0  0  0  0  0  0  0  0  0  0  0  0
   60.4315   87.2791   96.9601 H   0  0  0  0  0  0  0  0  0  0  0  0
   59.8568   90.7194   91.1494 H   0  0  0  0  0  0  0  0  0  0  0  0
   59.2708   89.8656   89.8868 H   0  0  0  0  0  0  0  0  0  0  0  0
   64.6301   86.6617   96.1451 H   0  0  0  0  0  0  0  0  0  0  0  0
   60.2866   86.3901   92.2828 H   0  0  0  0  0  0  0  0  0  0  0  0
   59.4676   87.1258   90.4500 H   0  0  0  0  0  0  0  0  0  0  0  0
   62.8214   87.5963   92.1056 H   0  0  0  0  0  0  0  0  0  0  0  0
   61.2909   89.1124   90.3746 H   0  0  0  0  0  0  0  0  0  0  0  0
  1  2  1  0  0  0  0
  1  3  1  0  0  0  0
  1  4  2  0  0  0  0
  1 10  1  0  0  0  0
  5 16  2  0  0  0  0
  6 17  2  0  0  0  0
  7 18  1  0  0  0  0
  8 19  1  0  0  0  0
  9 20  1  0  0  0  0
 10 14  1  0  0  0  0
 11 21  1  0  0  0  0
 11 22  1  0  0  0  0
 12 16  1  0  0  0  0
 12 17  1  0  0  0  0
 13 16  1  0  0  0  0
 13 18  1  0  0  0  0
 13 21  1  0  0  0  0
 14 22  1  0  0  0  0
 15 17  1  0  0  0  0
 15 18  2  0  0  0  0
 19 20  1  0  0  0  0
 19 21  1  0  0  0  0
 20 22  1  0  0  0  0
  2 23  1  0  0  0  0
  3 24  1  0  0  0  0
  7 25  1  0  0  0  0
  8 26  1  0  0  0  0
  9 27  1  0  0  0  0
 12 28  1  0  0  0  0
 14 29  1  0  0  0  0
 14 30  1  0  0  0  0
 15 31  1  0  0  0  0
 19 32  1  0  0  0  0
 20 33  1  0  0  0  0
 21 34  1  0  0  0  0
 22 35  1  0  0  0  0
M  END
> <pdb_id>
1DQX

> <uniprot_id>
P03962

> <usmiles>
P(=O)(OC[C@H]1O[C@@H](N2C(=O)NC(=O)C=C2O)[C@H](O)[C@@H]1O)(O)O

$$$$
BMP_I_1
          07202404143D 1   1.00000     0.00000     0
            
 35 36  0  0  0  0            999 V2000
   24.9840   -2.3630    8.3400 P   0  0  0  0  0  0  0  0  0  0  0  0
   24.2670   -3.1530    7.3050 O   0  0  0  0  0  0  0  0  0  0  0  0
   25.6940   -3.3240    9.3770 O   0  0  0  0  0  0  0  0  0  0  0  0
   25.9960   -1.3430    7.6910 O   0  0  0  0  0  0  0  0  0  0  0  0
   19.9500   -1.3060    7.4890 O   0  0  0  0  0  0  0  0  0  0  0  0
   16.3670    0.5300    5.6670 O   0  0  0  0  0  0  0  0  0  0  0  0
   17.8370    2.0400    9.7970 O   0  0  0  0  0  0  0  0  0  0  0  0
   19.1790   -1.4430   11.4870 O   0  0  0  0  0  0  0  0  0  0  0  0
   21.5340   -0.4310   12.2280 O   0  0  0  0  0  0  0  0  0  0  0  0
   24.0110   -1.5130    9.3060 O   0  0  0  0  0  0  0  0  0  0  0  0
   21.1490    0.6750    9.3740 O   0  0  0  0  0  0  0  0  0  0  0  0
   18.1590   -0.3990    6.5990 N   0  0  0  0  0  0  0  0  0  0  0  0
   18.9370    0.3040    8.6790 N   0  0  0  0  0  0  0  0  0  0  0  0
   22.8240   -0.9720    8.7240 C   0  0  0  0  0  0  0  0  0  0  0  0
   17.0000    1.3400    7.7200 C   0  0  0  0  0  0  0  0  0  0  0  0
   19.0420   -0.5000    7.6020 C   0  0  0  0  0  0  0  0  0  0  0  0
   17.1360    0.4880    6.6240 C   0  0  0  0  0  0  0  0  0  0  0  0
   17.9090    1.2240    8.7410 C   0  0  0  0  0  0  0  0  0  0  0  0
   20.0760   -1.1690   10.4110 C   0  0  2  0  0  0  0  0  0  0  0  0
   21.5220   -1.0770   10.9420 C   0  0  1  0  0  0  0  0  0  0  0  0
   19.8640    0.2470    9.8220 C   0  0  1  0  0  0  0  0  0  0  0  0
   22.1890   -0.1820    9.8830 C   0  0  2  0  0  0  0  0  0  0  0  0
   23.8245   -2.5315    6.6585 H   0  0  0  0  0  0  0  0  0  0  0  0
   26.1710   -2.7775   10.0654 H   0  0  0  0  0  0  0  0  0  0  0  0
   17.0998    2.7128    9.8597 H   0  0  0  0  0  0  0  0  0  0  0  0
   18.2446   -1.5011   11.1355 H   0  0  0  0  0  0  0  0  0  0  0  0
   22.4741   -0.3756   12.5644 H   0  0  0  0  0  0  0  0  0  0  0  0
   18.2589   -0.9989    5.8052 H   0  0  0  0  0  0  0  0  0  0  0  0
   22.2146   -1.7004    8.4108 H   0  0  0  0  0  0  0  0  0  0  0  0
   23.0438   -0.3687    7.9574 H   0  0  0  0  0  0  0  0  0  0  0  0
   16.2628    2.0145    7.7603 H   0  0  0  0  0  0  0  0  0  0  0  0
   20.0016   -1.8665    9.6983 H   0  0  0  0  0  0  0  0  0  0  0  0
   21.9538   -1.9781   10.9824 H   0  0  0  0  0  0  0  0  0  0  0  0
   19.5416    0.8614   10.5421 H   0  0  0  0  0  0  0  0  0  0  0  0
   22.8912    0.3787   10.3219 H   0  0  0  0  0  0  0  0  0  0  0  0
  1  2  1  0  0  0  0
  1  3  1  0  0  0  0
  1  4  2  0  0  0  0
  1 10  1  0  0  0  0
  5 16  2  0  0  0  0
  6 17  2  0  0  0  0
  7 18  1  0  0  0  0
  8 19  1  0  0  0  0
  9 20  1  0  0  0  0
 10 14  1  0  0  0  0
 11 21  1  0  0  0  0
 11 22  1  0  0  0  0
 12 16  1  0  0  0  0
 12 17  1  0  0  0  0
 13 16  1  0  0  0  0
 13 18  1  0  0  0  0
 13 21  1  0  0  0  0
 14 22  1  0  0  0  0
 15 17  1  0  0  0  0
 15 18  2  0  0  0  0
 19 20  1  0  0  0  0
 19 21  1  0  0  0  0
 20 22  1  0  0  0  0
  2 23  1  0  0  0  0
  3 24  1  0  0  0  0
  7 25  1  0  0  0  0
  8 26  1  0  0  0  0
  9 27  1  0  0  0  0
 12 28  1  0  0  0  0
 14 29  1  0  0  0  0
 14 30  1  0  0  0  0
 15 31  1  0  0  0  0
 19 32  1  0  0  0  0
 20 33  1  0  0  0  0
 21 34  1  0  0  0  0
 22 35  1  0  0  0  0
M  END
> <pdb_id>
3NQC

> <uniprot_id>
O26232

> <usmiles>
P(=O)(OC[C@H]1O[C@@H](N2C(=O)NC(=O)C=C2O)[C@H](O)[C@@H]1O)(O)O

$$$$
BMP_I_2
          07202404173D 1   1.00000     0.00000     0
            
 35 36  0  0  0  0            999 V2000
   -4.8030    1.8980   25.2070 P   0  0  0  0  0  0  0  0  0  0  0  0
   -5.2980    2.5840   24.0050 O   0  0  0  0  0  0  0  0  0  0  0  0
   -4.3250    2.9090   26.3260 O   0  0  0  0  0  0  0  0  0  0  0  0
   -5.8750    0.8700   25.7690 O   0  0  0  0  0  0  0  0  0  0  0  0
   -2.9350    0.6610   20.5220 O   0  0  0  0  0  0  0  0  0  0  0  0
   -2.8290   -1.5160   16.6580 O   0  0  0  0  0  0  0  0  0  0  0  0
    0.1520   -2.6880   20.0500 O   0  0  0  0  0  0  0  0  0  0  0  0
    0.8700    0.9740   21.8980 O   0  0  0  0  0  0  0  0  0  0  0  0
    0.3170    0.1180   24.3180 O   0  0  0  0  0  0  0  0  0  0  0  0
   -3.4370    1.1120   24.8930 O   0  0  0  0  0  0  0  0  0  0  0  0
   -1.8850   -1.2240   22.5970 O   0  0  0  0  0  0  0  0  0  0  0  0
   -2.8470   -0.4280   18.5920 N   0  0  0  0  0  0  0  0  0  0  0  0
   -1.3630   -0.9360   20.3240 N   0  0  0  0  0  0  0  0  0  0  0  0
   -3.3650    0.4170   23.6490 C   0  0  0  0  0  0  0  0  0  0  0  0
   -1.2550   -2.1590   18.2620 C   0  0  0  0  0  0  0  0  0  0  0  0
   -2.4010   -0.2060   19.8440 C   0  0  0  0  0  0  0  0  0  0  0  0
   -2.3240   -1.3690   17.7740 C   0  0  0  0  0  0  0  0  0  0  0  0
   -0.8130   -1.9210   19.5400 C   0  0  0  0  0  0  0  0  0  0  0  0
   -0.5210    0.6960   22.1010 C   0  0  2  0  0  0  0  0  0  0  0  0
   -0.8140    0.6610   23.6120 C   0  0  1  0  0  0  0  0  0  0  0  0
   -0.8570   -0.7550   21.6920 C   0  0  1  0  0  0  0  0  0  0  0  0
   -2.0150   -0.3090   23.7090 C   0  0  2  0  0  0  0  0  0  0  0  0
   -5.5873    1.9058   23.3295 H   0  0  0  0  0  0  0  0  0  0  0  0
   -3.9985    2.3969   27.1204 H   0  0  0  0  0  0  0  0  0  0  0  0
    0.5636   -3.4097   19.4935 H   0  0  0  0  0  0  0  0  0  0  0  0
    1.0656    0.9978   20.9176 H   0  0  0  0  0  0  0  0  0  0  0  0
    0.1199    0.0982   25.2982 H   0  0  0  0  0  0  0  0  0  0  0  0
   -3.6026    0.1312   18.2508 H   0  0  0  0  0  0  0  0  0  0  0  0
   -3.3905    1.0577   22.8816 H   0  0  0  0  0  0  0  0  0  0  0  0
   -4.1169   -0.2366   23.5627 H   0  0  0  0  0  0  0  0  0  0  0  0
   -0.8355   -2.8673   17.6943 H   0  0  0  0  0  0  0  0  0  0  0  0
   -1.1027    1.3573   21.6273 H   0  0  0  0  0  0  0  0  0  0  0  0
   -1.0533    1.5691   23.9556 H   0  0  0  0  0  0  0  0  0  0  0  0
   -0.0408   -1.3204   21.8109 H   0  0  0  0  0  0  0  0  0  0  0  0
   -1.9552   -0.8218   24.5654 H   0  0  0  0  0  0  0  0  0  0  0  0
  1  2  1  0  0  0  0
  1  3  1  0  0  0  0
  1  4  2  0  0  0  0
  1 10  1  0  0  0  0
  5 16  2  0  0  0  0
  6 17  2  0  0  0  0
  7 18  1  0  0  0  0
  8 19  1  0  0  0  0
  9 20  1  0  0  0  0
 10 14  1  0  0  0  0
 11 21  1  0  0  0  0
 11 22  1  0  0  0  0
 12 16  1  0  0  0  0
 12 17  1  0  0  0  0
 13 16  1  0  0  0  0
 13 18  1  0  0  0  0
 13 21  1  0  0  0  0
 14 22  1  0  0  0  0
 15 17  1  0  0  0  0
 15 18  2  0  0  0  0
 19 20  1  0  0  0  0
 19 21  1  0  0  0  0
 20 22  1  0  0  0  0
  2 23  1  0  0  0  0
  3 24  1  0  0  0  0
  7 25  1  0  0  0  0
  8 26  1  0  0  0  0
  9 27  1  0  0  0  0
 12 28  1  0  0  0  0
 14 29  1  0  0  0  0
 14 30  1  0  0  0  0
 15 31  1  0  0  0  0
 19 32  1  0  0  0  0
 20 33  1  0  0  0  0
 21 34  1  0  0  0  0
 22 35  1  0  0  0  0
M  END
> <pdb_id>
3NQM

> <uniprot_id>
O26232

> <usmiles>
P(=O)(OC[C@H]1O[C@@H](N2C(=O)NC(=O)C=C2O)[C@H](O)[C@@H]1O)(O)O

$$$$
BMZ_A_246
          07192419343D 1   1.00000     0.00000     0
            
 32 34  0  0  0  0            999 V2000
   44.5185   23.2943   46.6649 O   0  0  0  0  0  0  0  0  0  0  0  0
   47.4328   18.7674   53.5028 N   0  0  0  0  0  0  0  0  0  0  0  0
   46.2189   17.1347   52.4570 N   0  3  0  0  0  0  0  0  0  0  0  0
   46.4874   22.7390   50.2996 N   0  0  0  0  0  0  0  0  0  0  0  0
   45.6476   21.8734   48.4225 N   0  0  0  0  0  0  0  0  0  0  0  0
   45.5837   26.7060   47.2079 C   0  0  0  0  0  0  0  0  0  0  0  0
   46.3451   26.5913   48.3523 C   0  0  0  0  0  0  0  0  0  0  0  0
   44.9905   25.5921   46.6682 C   0  0  0  0  0  0  0  0  0  0  0  0
   45.6074   19.5450   49.0636 C   0  0  0  0  0  0  0  0  0  0  0  0
   46.5003   25.3501   48.9694 C   0  0  0  0  0  0  0  0  0  0  0  0
   45.9036   18.7264   50.1599 C   0  0  0  0  0  0  0  0  0  0  0  0
   46.6671   20.6333   51.4744 C   0  0  0  0  0  0  0  0  0  0  0  0
   46.7025   18.3544   52.4819 C   0  0  0  0  0  0  0  0  0  0  0  0
   45.1417   24.3516   47.2751 C   0  0  0  0  0  0  0  0  0  0  0  0
   46.0240   22.9287   49.0674 C   0  0  0  0  0  0  0  0  0  0  0  0
   46.3517   21.4167   50.3750 C   0  0  0  0  0  0  0  0  0  0  0  0
   45.8468   20.8831   49.2334 C   0  0  0  0  0  0  0  0  0  0  0  0
   46.4428   19.2343   51.3917 C   0  0  0  0  0  0  0  0  0  0  0  0
   45.9050   24.1914   48.4498 C   0  0  0  0  0  0  0  0  0  0  0  0
   47.8323   19.6950   53.4999 H   0  0  0  0  0  0  0  0  0  0  0  0
   47.6013   18.2296   54.3305 H   0  0  0  0  0  0  0  0  0  0  0  0
   45.6857   16.8342   51.6499 H   0  0  0  0  0  0  0  0  0  0  0  0
   46.3617   16.4657   53.1727 H   0  0  0  0  0  0  0  0  0  0  0  0
   45.2980   21.8927   47.5032 H   0  0  0  0  0  0  0  0  0  0  0  0
   45.4674   27.6667   46.7304 H   0  0  0  0  0  0  0  0  0  0  0  0
   46.8189   27.4678   48.7776 H   0  0  0  0  0  0  0  0  0  0  0  0
   44.4025   25.6789   45.7672 H   0  0  0  0  0  0  0  0  0  0  0  0
   45.2129   19.1523   48.1410 H   0  0  0  0  0  0  0  0  0  0  0  0
   47.1015   25.2880   49.8667 H   0  0  0  0  0  0  0  0  0  0  0  0
   45.7465   17.6661   50.0482 H   0  0  0  0  0  0  0  0  0  0  0  0
   47.0639   21.0798   52.3743 H   0  0  0  0  0  0  0  0  0  0  0  0
   44.5920   22.3770   47.0563 H   0  0  0  0  0  0  0  0  0  0  0  0
  1 14  1  0  0  0  0
  2 13  1  0  0  0  0
  2 20  1  0  0  0  0
  2 21  1  0  0  0  0
  3 13  2  0  0  0  0
  3 22  1  0  0  0  0
  3 23  1  0  0  0  0
  4 15  2  0  0  0  0
  4 16  1  0  0  0  0
  5 15  1  0  0  0  0
  5 17  1  0  0  0  0
  5 24  1  0  0  0  0
  6  7  2  0  0  0  0
  6  8  1  0  0  0  0
  6 25  1  0  0  0  0
  7 10  1  0  0  0  0
  7 26  1  0  0  0  0
  8 14  2  0  0  0  0
  8 27  1  0  0  0  0
  9 11  1  0  0  0  0
  9 17  2  0  0  0  0
  9 28  1  0  0  0  0
 10 19  2  0  0  0  0
 10 29  1  0  0  0  0
 11 18  2  0  0  0  0
 11 30  1  0  0  0  0
 12 16  2  0  0  0  0
 12 18  1  0  0  0  0
 12 31  1  0  0  0  0
 13 18  1  0  0  0  0
 14 19  1  0  0  0  0
 15 19  1  0  0  0  0
 16 17  1  0  0  0  0
  1 32  1  0  0  0  0
M  CHG  1   3   1
M  END
> <pdb_id>
1GI1

> <uniprot_id>
P00760

> <usmiles>
Oc1c(cccc1)C2=Nc3c(N2)ccc(c3)C(=[NH2+])N

$$$$
BMZ_B_246
          07202413303D 1   1.00000     0.00000     0
            
 32 34  0  0  0  0            999 V2000
  -25.1519  -14.0289   -5.7867 O   0  0  0  0  0  0  0  0  0  0  0  0
  -30.6997  -19.3112   -1.9865 N   0  0  0  0  0  0  0  0  0  0  0  0
  -31.6050  -19.5602   -4.0767 N   0  3  0  0  0  0  0  0  0  0  0  0
  -27.0834  -15.9500   -2.6166 N   0  0  0  0  0  0  0  0  0  0  0  0
  -26.7195  -15.7677   -4.7817 N   0  0  0  0  0  0  0  0  0  0  0  0
  -23.4248  -12.4489   -2.9561 C   0  0  0  0  0  0  0  0  0  0  0  0
  -23.9807  -13.1361   -1.8797 C   0  0  0  0  0  0  0  0  0  0  0  0
  -23.8236  -12.7526   -4.2497 C   0  0  0  0  0  0  0  0  0  0  0  0
  -28.4338  -17.2704   -5.6145 C   0  0  0  0  0  0  0  0  0  0  0  0
  -24.9311  -14.1215   -2.1016 C   0  0  0  0  0  0  0  0  0  0  0  0
  -29.4485  -18.0981   -5.1431 C   0  0  0  0  0  0  0  0  0  0  0  0
  -28.8897  -17.4861   -2.8555 C   0  0  0  0  0  0  0  0  0  0  0  0
  -30.7025  -19.0576   -3.2633 C   0  0  0  0  0  0  0  0  0  0  0  0
  -24.7841  -13.7455   -4.4728 C   0  0  0  0  0  0  0  0  0  0  0  0
  -26.3665  -15.3947   -3.5812 C   0  0  0  0  0  0  0  0  0  0  0  0
  -27.9017  -16.6787   -3.3397 C   0  0  0  0  0  0  0  0  0  0  0  0
  -27.7024  -16.5837   -4.6641 C   0  0  0  0  0  0  0  0  0  0  0  0
  -29.7075  -18.2297   -3.7602 C   0  0  0  0  0  0  0  0  0  0  0  0
  -25.3626  -14.4494   -3.3875 C   0  0  0  0  0  0  0  0  0  0  0  0
  -30.0060  -18.9084   -1.3787 H   0  0  0  0  0  0  0  0  0  0  0  0
  -31.3770  -19.8855   -1.5293 H   0  0  0  0  0  0  0  0  0  0  0  0
  -31.5904  -19.3637   -5.0636 H   0  0  0  0  0  0  0  0  0  0  0  0
  -32.3438  -20.1393   -3.7419 H   0  0  0  0  0  0  0  0  0  0  0  0
  -26.2889  -15.4515   -5.5991 H   0  0  0  0  0  0  0  0  0  0  0  0
  -22.6862  -11.6843   -2.7810 H   0  0  0  0  0  0  0  0  0  0  0  0
  -23.6801  -12.9144   -0.8658 H   0  0  0  0  0  0  0  0  0  0  0  0
  -23.3848  -12.2272   -5.0875 H   0  0  0  0  0  0  0  0  0  0  0  0
  -28.2333  -17.1738   -6.6713 H   0  0  0  0  0  0  0  0  0  0  0  0
  -25.3402  -14.6634   -1.2696 H   0  0  0  0  0  0  0  0  0  0  0  0
  -30.0422  -18.6590   -5.8539 H   0  0  0  0  0  0  0  0  0  0  0  0
  -29.0381  -17.5410   -1.7924 H   0  0  0  0  0  0  0  0  0  0  0  0
  -25.8361  -14.7339   -5.9735 H   0  0  0  0  0  0  0  0  0  0  0  0
  1 14  1  0  0  0  0
  2 13  1  0  0  0  0
  2 20  1  0  0  0  0
  2 21  1  0  0  0  0
  3 13  2  0  0  0  0
  3 22  1  0  0  0  0
  3 23  1  0  0  0  0
  4 15  2  0  0  0  0
  4 16  1  0  0  0  0
  5 15  1  0  0  0  0
  5 17  1  0  0  0  0
  5 24  1  0  0  0  0
  6  7  2  0  0  0  0
  6  8  1  0  0  0  0
  6 25  1  0  0  0  0
  7 10  1  0  0  0  0
  7 26  1  0  0  0  0
  8 14  2  0  0  0  0
  8 27  1  0  0  0  0
  9 11  1  0  0  0  0
  9 17  2  0  0  0  0
  9 28  1  0  0  0  0
 10 19  2  0  0  0  0
 10 29  1  0  0  0  0
 11 18  2  0  0  0  0
 11 30  1  0  0  0  0
 12 16  2  0  0  0  0
 12 18  1  0  0  0  0
 12 31  1  0  0  0  0
 13 18  1  0  0  0  0
 14 19  1  0  0  0  0
 15 19  1  0  0  0  0
 16 17  1  0  0  0  0
  1 32  1  0  0  0  0
M  CHG  1   3   1
M  END
> <pdb_id>
1GI8

> <uniprot_id>
P00749

> <usmiles>
Oc1c(cccc1)C2=Nc3c(N2)ccc(c3)C(=[NH2+])N

$$$$
BMZ_H_246
          07202416143D 1   1.00000     0.00000     0
            
 32 34  0  0  0  0            999 V2000
   12.6704  -10.4663   17.9165 O   0  0  0  0  0  0  0  0  0  0  0  0
   18.2914  -12.2545   11.7249 N   0  0  0  0  0  0  0  0  0  0  0  0
   17.7108  -10.1471   11.0179 N   0  3  0  0  0  0  0  0  0  0  0  0
   14.9496  -12.9058   15.4552 N   0  0  0  0  0  0  0  0  0  0  0  0
   14.3959  -10.8735   16.1455 N   0  0  0  0  0  0  0  0  0  0  0  0
   11.9230  -13.7150   19.4537 C   0  0  0  0  0  0  0  0  0  0  0  0
   12.7072  -14.5675   18.6798 C   0  0  0  0  0  0  0  0  0  0  0  0
   11.9194  -12.3459   19.1913 C   0  0  0  0  0  0  0  0  0  0  0  0
   15.5965   -9.5963   14.5088 C   0  0  0  0  0  0  0  0  0  0  0  0
   13.4808  -14.0539   17.6494 C   0  0  0  0  0  0  0  0  0  0  0  0
   16.4194   -9.7613   13.4127 C   0  0  0  0  0  0  0  0  0  0  0  0
   16.3063  -12.1663   13.6263 C   0  0  0  0  0  0  0  0  0  0  0  0
   17.6155  -11.1464   11.8726 C   0  0  0  0  0  0  0  0  0  0  0  0
   12.6951  -11.8213   18.1581 C   0  0  0  0  0  0  0  0  0  0  0  0
   14.2729  -12.1592   16.3379 C   0  0  0  0  0  0  0  0  0  0  0  0
   15.4866  -11.9703   14.7167 C   0  0  0  0  0  0  0  0  0  0  0  0
   15.1565  -10.7230   15.1260 C   0  0  0  0  0  0  0  0  0  0  0  0
   16.7814  -11.0303   12.9651 C   0  0  0  0  0  0  0  0  0  0  0  0
   13.4863  -12.6748   17.3802 C   0  0  0  0  0  0  0  0  0  0  0  0
   18.1716  -12.9838   12.4146 H   0  0  0  0  0  0  0  0  0  0  0  0
   18.9112  -12.4483   10.9685 H   0  0  0  0  0  0  0  0  0  0  0  0
   17.1393   -9.3307   11.1754 H   0  0  0  0  0  0  0  0  0  0  0  0
   18.2926  -10.1491   10.2088 H   0  0  0  0  0  0  0  0  0  0  0  0
   13.9627  -10.1915   16.7094 H   0  0  0  0  0  0  0  0  0  0  0  0
   11.3230  -14.1149   20.2582 H   0  0  0  0  0  0  0  0  0  0  0  0
   12.7134  -15.6289   18.8767 H   0  0  0  0  0  0  0  0  0  0  0  0
   11.3081  -11.6993   19.7948 H   0  0  0  0  0  0  0  0  0  0  0  0
   15.3049   -8.6228   14.8729 H   0  0  0  0  0  0  0  0  0  0  0  0
   14.0840  -14.7305   17.0586 H   0  0  0  0  0  0  0  0  0  0  0  0
   16.7811   -8.8844   12.9026 H   0  0  0  0  0  0  0  0  0  0  0  0
   16.5658  -13.1622   13.3039 H   0  0  0  0  0  0  0  0  0  0  0  0
   13.2230  -10.0799   17.1780 H   0  0  0  0  0  0  0  0  0  0  0  0
  1 14  1  0  0  0  0
  2 13  1  0  0  0  0
  2 20  1  0  0  0  0
  2 21  1  0  0  0  0
  3 13  2  0  0  0  0
  3 22  1  0  0  0  0
  3 23  1  0  0  0  0
  4 15  2  0  0  0  0
  4 16  1  0  0  0  0
  5 15  1  0  0  0  0
  5 17  1  0  0  0  0
  5 24  1  0  0  0  0
  6  7  2  0  0  0  0
  6  8  1  0  0  0  0
  6 25  1  0  0  0  0
  7 10  1  0  0  0  0
  7 26  1  0  0  0  0
  8 14  2  0  0  0  0
  8 27  1  0  0  0  0
  9 11  1  0  0  0  0
  9 17  2  0  0  0  0
  9 28  1  0  0  0  0
 10 19  2  0  0  0  0
 10 29  1  0  0  0  0
 11 18  2  0  0  0  0
 11 30  1  0  0  0  0
 12 16  2  0  0  0  0
 12 18  1  0  0  0  0
 12 31  1  0  0  0  0
 13 18  1  0  0  0  0
 14 19  1  0  0  0  0
 15 19  1  0  0  0  0
 16 17  1  0  0  0  0
  1 32  1  0  0  0  0
M  CHG  1   3   1
M  END
> <pdb_id>
1GHW

> <uniprot_id>
P00734

> <usmiles>
Oc1c(cccc1)C2=Nc3c(N2)ccc(c3)C(=[NH2+])N

$$$$
BNK_A_201
          07212401333D 1   1.00000     0.00000     0
            
 37 39  0  0  0  0            999 V2000
  -12.4765  -20.4180  -16.5228 Cl  0  0  0  0  0  0  0  0  0  0  0  0
  -17.3088  -21.0701  -23.4216 S   0  0  0  0  0  0  0  0  0  0  0  0
  -14.0775  -23.3091  -17.0136 S   0  0  0  0  0  0  0  0  0  0  0  0
  -14.1211  -22.8269  -15.6291 O   0  0  0  0  0  0  0  0  0  0  0  0
  -15.2243  -24.1609  -17.3484 O   0  0  0  0  0  0  0  0  0  0  0  0
  -17.3652  -23.8038  -23.4761 O   0  0  0  0  0  0  0  0  0  0  0  0
  -12.7343  -24.2032  -17.2847 N   0  0  0  0  0  0  0  0  0  0  0  0
  -16.1248  -22.5603  -21.8535 N   0  0  0  0  0  0  0  0  0  0  0  0
  -16.4104  -20.2780  -22.2238 C   0  0  0  0  0  0  0  0  0  0  0  0
   -9.4880  -24.8966  -17.2681 C   0  0  0  0  0  0  0  0  0  0  0  0
   -9.8614  -24.0564  -18.4205 C   0  0  0  0  0  0  0  0  0  0  0  0
  -10.6300  -24.7779  -16.2855 C   0  0  0  0  0  0  0  0  0  0  0  0
  -10.7956  -23.0521  -17.9148 C   0  0  0  0  0  0  0  0  0  0  0  0
  -13.5392  -19.7053  -18.8758 C   0  0  0  0  0  0  0  0  0  0  0  0
  -14.2927  -19.8584  -20.0291 C   0  0  0  0  0  0  0  0  0  0  0  0
  -14.8690  -22.0777  -19.2999 C   0  0  0  0  0  0  0  0  0  0  0  0
  -16.9473  -22.6396  -22.9118 C   0  0  0  0  0  0  0  0  0  0  0  0
  -13.4426  -20.7240  -17.9308 C   0  0  0  0  0  0  0  0  0  0  0  0
  -14.1172  -21.9351  -18.1381 C   0  0  0  0  0  0  0  0  0  0  0  0
  -11.5239  -23.6754  -16.7948 C   0  0  0  0  0  0  0  0  0  0  0  0
  -15.8021  -21.2874  -21.4465 C   0  0  0  0  0  0  0  0  0  0  0  0
  -14.9485  -21.0599  -20.2447 C   0  0  0  0  0  0  0  0  0  0  0  0
  -12.6387  -24.3174  -18.2735 H   0  0  0  0  0  0  0  0  0  0  0  0
  -15.7703  -23.3735  -21.3918 H   0  0  0  0  0  0  0  0  0  0  0  0
  -16.3273  -19.2901  -22.0930 H   0  0  0  0  0  0  0  0  0  0  0  0
   -8.6387  -24.5659  -16.8567 H   0  0  0  0  0  0  0  0  0  0  0  0
   -9.3718  -25.8478  -17.5538 H   0  0  0  0  0  0  0  0  0  0  0  0
  -10.3004  -24.6127  -19.1260 H   0  0  0  0  0  0  0  0  0  0  0  0
   -9.0504  -23.6130  -18.8022 H   0  0  0  0  0  0  0  0  0  0  0  0
  -10.2810  -24.5473  -15.3771 H   0  0  0  0  0  0  0  0  0  0  0  0
  -11.1363  -25.6390  -16.2393 H   0  0  0  0  0  0  0  0  0  0  0  0
  -11.4354  -22.7834  -18.6348 H   0  0  0  0  0  0  0  0  0  0  0  0
  -10.2960  -22.2469  -17.5952 H   0  0  0  0  0  0  0  0  0  0  0  0
  -13.0546  -18.8448  -18.7188 H   0  0  0  0  0  0  0  0  0  0  0  0
  -14.3618  -19.1147  -20.6941 H   0  0  0  0  0  0  0  0  0  0  0  0
  -15.3639  -22.9319  -19.4596 H   0  0  0  0  0  0  0  0  0  0  0  0
  -11.6997  -23.0049  -16.0740 H   0  0  0  0  0  0  0  0  0  0  0  0
  1 18  1  0  0  0  0
  2  9  1  0  0  0  0
  2 17  1  0  0  0  0
  3  4  2  0  0  0  0
  3  5  2  0  0  0  0
  3  7  1  0  0  0  0
  3 19  1  0  0  0  0
  6 17  2  0  0  0  0
  7 20  1  0  0  0  0
  8 17  1  0  0  0  0
  8 21  1  0  0  0  0
  9 21  2  0  0  0  0
 10 11  1  0  0  0  0
 10 12  1  0  0  0  0
 11 13  1  0  0  0  0
 12 20  1  0  0  0  0
 13 20  1  0  0  0  0
 14 15  1  0  0  0  0
 14 18  2  0  0  0  0
 15 22  2  0  0  0  0
 16 19  2  0  0  0  0
 16 22  1  0  0  0  0
 18 19  1  0  0  0  0
 21 22  1  0  0  0  0
  7 23  1  0  0  0  0
  8 24  1  0  0  0  0
  9 25  1  0  0  0  0
 10 26  1  0  0  0  0
 10 27  1  0  0  0  0
 11 28  1  0  0  0  0
 11 29  1  0  0  0  0
 12 30  1  0  0  0  0
 12 31  1  0  0  0  0
 13 32  1  0  0  0  0
 13 33  1  0  0  0  0
 14 34  1  0  0  0  0
 15 35  1  0  0  0  0
 16 36  1  0  0  0  0
 20 37  1  0  0  0  0
M  END
> <pdb_id>
4QR4

> <uniprot_id>
O60885

> <usmiles>
Clc1c(S(=O)(=O)NC2CCCC2)cc(cc1)C=3NC(SC3)=O

$$$$
BNY_A_300
          07202413403D 1   1.00000     0.00000     0
            
 32 33  0  0  0  0            999 V2000
  -12.2350  -37.3510  -28.8900 O   0  5  0  0  0  0  0  0  0  0  0  0
  -13.9150  -35.8460  -29.5480 O   0  0  0  0  0  0  0  0  0  0  0  0
  -12.4230  -45.3360  -31.6550 O   0  0  0  0  0  0  0  0  0  0  0  0
  -12.0820  -43.1870  -31.1260 O   0  0  0  0  0  0  0  0  0  0  0  0
  -13.5670  -41.2900  -32.1030 N   0  0  0  0  0  0  0  0  0  0  0  0
  -13.2390  -37.0260  -29.7810 N   0  3  0  0  0  0  0  0  0  0  0  0
  -12.8550  -40.0510  -29.7640 C   0  0  0  0  0  0  0  0  0  0  0  0
  -16.0940  -42.9740  -34.1140 C   0  0  0  0  0  0  0  0  0  0  0  0
  -15.7270  -44.2850  -33.9790 C   0  0  0  0  0  0  0  0  0  0  0  0
  -14.3070  -37.8430  -33.2100 C   0  0  0  0  0  0  0  0  0  0  0  0
  -15.4610  -41.9640  -33.4620 C   0  0  0  0  0  0  0  0  0  0  0  0
  -14.1360  -39.2250  -33.2440 C   0  0  0  0  0  0  0  0  0  0  0  0
  -14.0000  -37.1570  -32.0350 C   0  0  0  0  0  0  0  0  0  0  0  0
  -14.6040  -44.5850  -33.1990 C   0  0  0  0  0  0  0  0  0  0  0  0
  -12.7110  -44.0520  -31.7170 C   0  0  0  0  0  0  0  0  0  0  0  0
  -13.6460  -39.9290  -32.1450 C   0  0  0  0  0  0  0  0  0  0  0  0
  -14.3070  -42.2440  -32.7020 C   0  0  0  0  0  0  0  0  0  0  0  0
  -13.5260  -37.8330  -30.9140 C   0  0  0  0  0  0  0  0  0  0  0  0
  -13.3730  -39.2270  -30.9450 C   0  0  0  0  0  0  0  0  0  0  0  0
  -13.8920  -43.5830  -32.5600 C   0  0  0  0  0  0  0  0  0  0  0  0
  -12.9757  -45.9974  -32.1620 H   0  0  0  0  0  0  0  0  0  0  0  0
  -12.8301  -41.6421  -31.5260 H   0  0  0  0  0  0  0  0  0  0  0  0
  -12.7002  -39.4495  -28.9803 H   0  0  0  0  0  0  0  0  0  0  0  0
  -13.5306  -40.7473  -29.5215 H   0  0  0  0  0  0  0  0  0  0  0  0
  -11.9957  -40.4947  -30.0185 H   0  0  0  0  0  0  0  0  0  0  0  0
  -16.8595  -42.7500  -34.7172 H   0  0  0  0  0  0  0  0  0  0  0  0
  -16.2484  -45.0114  -34.4267 H   0  0  0  0  0  0  0  0  0  0  0  0
  -14.6437  -37.3517  -34.0133 H   0  0  0  0  0  0  0  0  0  0  0  0
  -15.8110  -41.0291  -33.5207 H   0  0  0  0  0  0  0  0  0  0  0  0
  -14.3706  -39.7248  -34.0778 H   0  0  0  0  0  0  0  0  0  0  0  0
  -14.1221  -36.1652  -31.9972 H   0  0  0  0  0  0  0  0  0  0  0  0
  -14.3115  -45.5363  -33.1016 H   0  0  0  0  0  0  0  0  0  0  0  0
  1  6  1  0  0  0  0
  2  6  2  0  0  0  0
  3 15  1  0  0  0  0
  4 15  2  0  0  0  0
  5 16  1  0  0  0  0
  5 17  1  0  0  0  0
  6 18  1  0  0  0  0
  7 19  1  0  0  0  0
  8  9  2  0  0  0  0
  8 11  1  0  0  0  0
  9 14  1  0  0  0  0
 10 12  2  0  0  0  0
 10 13  1  0  0  0  0
 11 17  2  0  0  0  0
 12 16  1  0  0  0  0
 13 18  2  0  0  0  0
 14 20  2  0  0  0  0
 15 20  1  0  0  0  0
 16 19  2  0  0  0  0
 17 20  1  0  0  0  0
 18 19  1  0  0  0  0
  3 21  1  0  0  0  0
  5 22  1  0  0  0  0
  7 23  1  0  0  0  0
  7 24  1  0  0  0  0
  7 25  1  0  0  0  0
  8 26  1  0  0  0  0
  9 27  1  0  0  0  0
 10 28  1  0  0  0  0
 11 29  1  0  0  0  0
 12 30  1  0  0  0  0
 13 31  1  0  0  0  0
 14 32  1  0  0  0  0
M  CHG  2   1  -1   6   1
M  END
> <pdb_id>
6AP7

> <uniprot_id>
J9U5U9

> <usmiles>
[O-][N+](=O)c1c(c(Nc2c(cccc2)C(=O)O)ccc1)C

$$$$
BO1_A_264
          07192416293D 1   1.00000     0.00000     0
            
 40 41  0  0  0  0            999 V2000
   -5.9408    0.9768   16.8410 S   0  0  0  0  0  0  0  0  0  0  0  0
   -5.3971    1.1085   18.1634 O   0  0  0  0  0  0  0  0  0  0  0  0
   -7.3639    1.0671   16.6705 O   0  0  0  0  0  0  0  0  0  0  0  0
   -6.7140    6.5021   10.3191 O   0  0  0  0  0  0  0  0  0  0  0  0
   -2.4468    9.4767   11.3826 O   0  0  0  0  0  0  0  0  0  0  0  0
   -1.6393    7.4956   13.2827 O   0  0  0  0  0  0  0  0  0  0  0  0
   -5.2313    9.7949   10.9632 O   0  0  0  0  0  0  0  0  0  0  0  0
   -5.0868    6.4173   12.5040 O   0  0  0  0  0  0  0  0  0  0  0  0
   -5.4506   -0.4311   16.2623 N   0  0  0  0  0  0  0  0  0  0  0  0
   -3.3278    5.2807   13.6132 N   0  0  0  0  0  0  0  0  0  0  0  0
   -6.9514    7.4216   11.3790 C   0  0  0  0  0  0  0  0  0  0  0  0
   -5.9823    3.3551   15.4238 C   0  0  0  0  0  0  0  0  0  0  0  0
   -3.8368    2.1951   15.5785 C   0  0  0  0  0  0  0  0  0  0  0  0
   -5.3814    4.3605   14.6732 C   0  0  0  0  0  0  0  0  0  0  0  0
   -3.2329    3.1935   14.8319 C   0  0  0  0  0  0  0  0  0  0  0  0
   -5.2135    2.2574   15.8869 C   0  0  0  0  0  0  0  0  0  0  0  0
   -3.4085    8.7333   12.1308 C   0  0  2  0  0  0  0  0  0  0  0  0
   -2.8167    7.3646   12.4784 C   0  0  2  0  0  0  0  0  0  0  0  0
   -4.6587    8.5271   11.3022 C   0  0  1  0  0  0  0  0  0  0  0  0
   -3.8403    6.5617   13.2834 C   0  0  1  0  0  0  0  0  0  0  0  0
   -5.6803    7.7022   12.1290 C   0  0  2  0  0  0  0  0  0  0  0  0
   -3.9788    4.3023   14.3559 C   0  0  0  0  0  0  0  0  0  0  0  0
   -7.5695    6.3273    9.8316 H   0  0  0  0  0  0  0  0  0  0  0  0
   -2.8251   10.3730   11.1509 H   0  0  0  0  0  0  0  0  0  0  0  0
   -1.2765    6.5878   13.4930 H   0  0  0  0  0  0  0  0  0  0  0  0
   -6.0562    9.6525   10.4162 H   0  0  0  0  0  0  0  0  0  0  0  0
   -5.8126   -0.5560   15.3385 H   0  0  0  0  0  0  0  0  0  0  0  0
   -4.4512   -0.4501   16.2340 H   0  0  0  0  0  0  0  0  0  0  0  0
   -2.4110    5.0607   13.2799 H   0  0  0  0  0  0  0  0  0  0  0  0
   -7.6249    7.0322   12.0073 H   0  0  0  0  0  0  0  0  0  0  0  0
   -7.3048    8.2766   10.9995 H   0  0  0  0  0  0  0  0  0  0  0  0
   -6.9579    3.4067   15.6371 H   0  0  0  0  0  0  0  0  0  0  0  0
   -3.2920    1.4218   15.9027 H   0  0  0  0  0  0  0  0  0  0  0  0
   -5.9299    5.1319   14.3506 H   0  0  0  0  0  0  0  0  0  0  0  0
   -2.2565    3.1316   14.6253 H   0  0  0  0  0  0  0  0  0  0  0  0
   -3.6372    9.2257   12.9707 H   0  0  0  0  0  0  0  0  0  0  0  0
   -2.5936    6.8732   11.6365 H   0  0  0  0  0  0  0  0  0  0  0  0
   -4.4271    8.0306   10.4656 H   0  0  0  0  0  0  0  0  0  0  0  0
   -4.0442    7.0550   14.1290 H   0  0  0  0  0  0  0  0  0  0  0  0
   -5.9035    8.2085   12.9619 H   0  0  0  0  0  0  0  0  0  0  0  0
  1  2  2  0  0  0  0
  1  3  2  0  0  0  0
  1  9  1  0  0  0  0
  1 16  1  0  0  0  0
  4 11  1  0  0  0  0
  5 17  1  0  0  0  0
  6 18  1  0  0  0  0
  7 19  1  0  0  0  0
  8 20  1  0  0  0  0
  8 21  1  0  0  0  0
 10 20  1  0  0  0  0
 10 22  1  0  0  0  0
 11 21  1  0  0  0  0
 12 14  1  0  0  0  0
 12 16  2  0  0  0  0
 13 15  2  0  0  0  0
 13 16  1  0  0  0  0
 14 22  2  0  0  0  0
 15 22  1  0  0  0  0
 17 18  1  0  0  0  0
 17 19  1  0  0  0  0
 18 20  1  0  0  0  0
 19 21  1  0  0  0  0
  4 23  1  0  0  0  0
  5 24  1  0  0  0  0
  6 25  1  0  0  0  0
  7 26  1  0  0  0  0
  9 27  1  0  0  0  0
  9 28  1  0  0  0  0
 10 29  1  0  0  0  0
 11 30  1  0  0  0  0
 11 31  1  0  0  0  0
 12 32  1  0  0  0  0
 13 33  1  0  0  0  0
 14 34  1  0  0  0  0
 15 35  1  0  0  0  0
 17 36  1  0  0  0  0
 18 37  1  0  0  0  0
 19 38  1  0  0  0  0
 20 39  1  0  0  0  0
 21 40  1  0  0  0  0
M  END
> <pdb_id>
2HL4

> <uniprot_id>
P00918

> <usmiles>
S(=O)(=O)(N)c1ccc(N[C@@H]2O[C@@H]([C@@H](O)[C@H](O)[C@H]2O)CO)cc1

$$$$
BOF_A_201
          07212401333D 1   1.00000     0.00000     0
            
 54 58  0  0  0  0            999 V2000
  -17.1035  -23.8545  -23.5008 O   0  0  0  0  0  0  0  0  0  0  0  0
  -11.1555  -17.9210  -18.0843 N   0  0  0  0  0  0  0  0  0  0  0  0
  -11.8757  -18.1511  -19.2158 N   0  0  0  0  0  0  0  0  0  0  0  0
  -16.6223  -21.8072  -22.5643 N   0  0  0  0  0  0  0  0  0  0  0  0
  -12.6580  -19.3842  -17.6282 N   0  0  0  0  0  0  0  0  0  0  0  0
  -14.8635  -23.3191  -20.8718 N   0  0  0  0  0  0  0  0  0  0  0  0
  -17.7895  -21.1200  -23.1277 C   0  0  0  0  0  0  0  0  0  0  0  0
  -11.1811  -18.7814  -15.6630 C   0  0  0  0  0  0  0  0  0  0  0  0
  -13.8856  -23.5354  -23.1050 C   0  0  0  0  0  0  0  0  0  0  0  0
  -16.4574  -22.9239  -14.6411 C   0  0  0  0  0  0  0  0  0  0  0  0
  -14.0989  -24.4079  -18.5639 C   0  0  0  0  0  0  0  0  0  0  0  0
  -14.1009  -25.5455  -19.5853 C   0  0  0  0  0  0  0  0  0  0  0  0
  -13.0057  -21.6162  -16.3003 C   0  0  0  0  0  0  0  0  0  0  0  0
  -14.9719  -19.8598  -16.7486 C   0  0  0  0  0  0  0  0  0  0  0  0
  -15.6990  -19.5062  -21.7012 C   0  0  0  0  0  0  0  0  0  0  0  0
  -14.0018  -22.4923  -15.5410 C   0  0  0  0  0  0  0  0  0  0  0  0
  -15.9597  -20.7356  -15.9915 C   0  0  0  0  0  0  0  0  0  0  0  0
  -14.7255  -18.7665  -20.7638 C   0  0  0  0  0  0  0  0  0  0  0  0
  -13.8156  -21.1706  -19.8604 C   0  0  0  0  0  0  0  0  0  0  0  0
  -11.6568  -18.6771  -17.1211 C   0  0  0  0  0  0  0  0  0  0  0  0
  -16.3736  -23.2112  -22.8282 C   0  0  0  0  0  0  0  0  0  0  0  0
  -12.7980  -19.0220  -18.9052 C   0  0  0  0  0  0  0  0  0  0  0  0
  -15.1314  -23.8153  -22.1949 C   0  0  2  0  0  0  0  0  0  0  0  0
  -13.5160  -20.3038  -16.8951 C   0  0  0  0  0  0  0  0  0  0  0  0
  -13.9451  -24.1047  -20.0531 C   0  0  0  0  0  0  0  0  0  0  0  0
  -15.6992  -21.0531  -21.7042 C   0  0  0  0  0  0  0  0  0  0  0  0
  -14.7884  -21.8681  -20.8057 C   0  0  0  0  0  0  0  0  0  0  0  0
  -15.4582  -22.0462  -15.3980 C   0  0  0  0  0  0  0  0  0  0  0  0
  -13.8114  -19.6288  -19.8517 C   0  0  0  0  0  0  0  0  0  0  0  0
  -17.7871  -20.1640  -22.8344 H   0  0  0  0  0  0  0  0  0  0  0  0
  -17.7515  -21.1624  -24.1261 H   0  0  0  0  0  0  0  0  0  0  0  0
  -18.6254  -21.5651  -22.8067 H   0  0  0  0  0  0  0  0  0  0  0  0
  -11.7554  -19.4358  -15.1711 H   0  0  0  0  0  0  0  0  0  0  0  0
  -10.2307  -19.0917  -15.6439 H   0  0  0  0  0  0  0  0  0  0  0  0
  -11.2479  -17.8846  -15.2257 H   0  0  0  0  0  0  0  0  0  0  0  0
  -14.0633  -23.8775  -24.0277 H   0  0  0  0  0  0  0  0  0  0  0  0
  -13.7141  -22.5509  -23.1417 H   0  0  0  0  0  0  0  0  0  0  0  0
  -13.0849  -23.9994  -22.7259 H   0  0  0  0  0  0  0  0  0  0  0  0
  -17.3559  -22.4848  -14.6441 H   0  0  0  0  0  0  0  0  0  0  0  0
  -16.5213  -23.8167  -15.0869 H   0  0  0  0  0  0  0  0  0  0  0  0
  -16.1481  -23.0437  -13.6977 H   0  0  0  0  0  0  0  0  0  0  0  0
  -13.3211  -24.2911  -17.9463 H   0  0  0  0  0  0  0  0  0  0  0  0
  -14.9428  -24.1615  -18.0874 H   0  0  0  0  0  0  0  0  0  0  0  0
  -14.9463  -26.0444  -19.7762 H   0  0  0  0  0  0  0  0  0  0  0  0
  -13.3246  -26.1739  -19.6351 H   0  0  0  0  0  0  0  0  0  0  0  0
  -12.0504  -21.8928  -16.4047 H   0  0  0  0  0  0  0  0  0  0  0  0
  -15.2745  -18.9952  -17.1497 H   0  0  0  0  0  0  0  0  0  0  0  0
  -16.3193  -18.9957  -22.2967 H   0  0  0  0  0  0  0  0  0  0  0  0
  -13.7016  -23.3568  -15.1378 H   0  0  0  0  0  0  0  0  0  0  0  0
  -16.9146  -20.4578  -15.8863 H   0  0  0  0  0  0  0  0  0  0  0  0
  -14.6838  -17.7676  -20.7435 H   0  0  0  0  0  0  0  0  0  0  0  0
  -13.2031  -21.6940  -19.2681 H   0  0  0  0  0  0  0  0  0  0  0  0
  -15.2601  -24.8053  -22.1372 H   0  0  0  0  0  0  0  0  0  0  0  0
  -12.9934  -23.9014  -20.2831 H   0  0  0  0  0  0  0  0  0  0  0  0
  1 21  2  0  0  0  0
  2  3  1  0  0  0  0
  2 20  2  0  0  0  0
  3 22  2  0  0  0  0
  4  7  1  0  0  0  0
  4 21  1  0  0  0  0
  4 26  1  0  0  0  0
  5 20  1  0  0  0  0
  5 22  1  0  0  0  0
  5 24  1  0  0  0  0
  6 23  1  0  0  0  0
  6 25  1  0  0  0  0
  6 27  1  0  0  0  0
  8 20  1  0  0  0  0
  9 23  1  0  0  0  0
 10 28  1  0  0  0  0
 11 12  1  0  0  0  0
 11 25  1  0  0  0  0
 12 25  1  0  0  0  0
 13 16  1  0  0  0  0
 13 24  2  0  0  0  0
 14 17  2  0  0  0  0
 14 24  1  0  0  0  0
 15 18  1  0  0  0  0
 15 26  2  0  0  0  0
 16 28  2  0  0  0  0
 17 28  1  0  0  0  0
 18 29  2  0  0  0  0
 19 27  2  0  0  0  0
 19 29  1  0  0  0  0
 21 23  1  0  0  0  0
 22 29  1  0  0  0  0
 26 27  1  0  0  0  0
  7 30  1  0  0  0  0
  7 31  1  0  0  0  0
  7 32  1  0  0  0  0
  8 33  1  0  0  0  0
  8 34  1  0  0  0  0
  8 35  1  0  0  0  0
  9 36  1  0  0  0  0
  9 37  1  0  0  0  0
  9 38  1  0  0  0  0
 10 39  1  0  0  0  0
 10 40  1  0  0  0  0
 10 41  1  0  0  0  0
 11 42  1  0  0  0  0
 11 43  1  0  0  0  0
 12 44  1  0  0  0  0
 12 45  1  0  0  0  0
 13 46  1  0  0  0  0
 14 47  1  0  0  0  0
 15 48  1  0  0  0  0
 16 49  1  0  0  0  0
 17 50  1  0  0  0  0
 18 51  1  0  0  0  0
 19 52  1  0  0  0  0
 23 53  1  0  0  0  0
 25 54  1  0  0  0  0
M  END
> <pdb_id>
6JI4

> <uniprot_id>
O60885

> <usmiles>
O=C1N(c2c(N([C@@H]1C)C3CC3)cc(cc2)C4=NN=C(N4c5ccc(cc5)C)C)C

$$$$
BOW_A_300
          07192416293D 1   1.00000     0.00000     0
            
 32 31  0  0  0  0            999 V2000
   -5.7749    0.9123   16.8820 S   0  0  0  0  0  0  0  0  0  0  0  0
   -7.1157    1.1812   16.5141 O   0  0  0  0  0  0  0  0  0  0  0  0
   -5.4342    0.9378   18.2583 O   0  0  0  0  0  0  0  0  0  0  0  0
   -4.8612    2.0129   16.1983 O   0  0  0  0  0  0  0  0  0  0  0  0
   -5.3355   -0.4824   16.2793 N   0  0  0  0  0  0  0  0  0  0  0  0
   -1.6465    8.9392   15.1065 C   0  0  0  0  0  0  0  0  0  0  0  0
   -4.7301    2.0376   14.7324 C   0  0  0  0  0  0  0  0  0  0  0  0
   -1.1794    7.9745   14.0454 C   0  0  0  0  0  0  0  0  0  0  0  0
   -5.4739    3.2655   14.2266 C   0  0  0  0  0  0  0  0  0  0  0  0
   -2.2666    7.1011   13.4450 C   0  0  0  0  0  0  0  0  0  0  0  0
   -4.8830    4.5807   14.6757 C   0  0  0  0  0  0  0  0  0  0  0  0
   -2.9660    6.1977   14.4324 C   0  0  0  0  0  0  0  0  0  0  0  0
   -3.7695    5.0965   13.7951 C   0  0  0  0  0  0  0  0  0  0  0  0
   -4.3888   -0.6739   16.5382 H   0  0  0  0  0  0  0  0  0  0  0  0
   -5.9309   -1.2022   16.6363 H   0  0  0  0  0  0  0  0  0  0  0  0
   -0.8673    9.4687   15.4419 H   0  0  0  0  0  0  0  0  0  0  0  0
   -2.3278    9.5590   14.7169 H   0  0  0  0  0  0  0  0  0  0  0  0
   -2.0542    8.4296   15.8642 H   0  0  0  0  0  0  0  0  0  0  0  0
   -5.1312    1.2099   14.3399 H   0  0  0  0  0  0  0  0  0  0  0  0
   -3.7650    2.0938   14.4770 H   0  0  0  0  0  0  0  0  0  0  0  0
   -0.4906    7.3752   14.4533 H   0  0  0  0  0  0  0  0  0  0  0  0
   -0.7643    8.5045   13.3060 H   0  0  0  0  0  0  0  0  0  0  0  0
   -6.4170    3.2177   14.5556 H   0  0  0  0  0  0  0  0  0  0  0  0
   -5.4681    3.2451   13.2268 H   0  0  0  0  0  0  0  0  0  0  0  0
   -1.8514    6.5283   12.7383 H   0  0  0  0  0  0  0  0  0  0  0  0
   -2.9524    7.6987   13.0294 H   0  0  0  0  0  0  0  0  0  0  0  0
   -4.5211    4.4616   15.6003 H   0  0  0  0  0  0  0  0  0  0  0  0
   -5.6134    5.2636   14.6889 H   0  0  0  0  0  0  0  0  0  0  0  0
   -3.5830    6.7562   14.9868 H   0  0  0  0  0  0  0  0  0  0  0  0
   -2.2738    5.7808   15.0215 H   0  0  0  0  0  0  0  0  0  0  0  0
   -4.1708    5.4460   12.9484 H   0  0  0  0  0  0  0  0  0  0  0  0
   -3.1546    4.3368   13.5837 H   0  0  0  0  0  0  0  0  0  0  0  0
  1  2  2  0  0  0  0
  1  3  2  0  0  0  0
  1  4  1  0  0  0  0
  1  5  1  0  0  0  0
  4  7  1  0  0  0  0
  6  8  1  0  0  0  0
  7  9  1  0  0  0  0
  8 10  1  0  0  0  0
  9 11  1  0  0  0  0
 10 12  1  0  0  0  0
 11 13  1  0  0  0  0
 12 13  1  0  0  0  0
  5 14  1  0  0  0  0
  5 15  1  0  0  0  0
  6 16  1  0  0  0  0
  6 17  1  0  0  0  0
  6 18  1  0  0  0  0
  7 19  1  0  0  0  0
  7 20  1  0  0  0  0
  8 21  1  0  0  0  0
  8 22  1  0  0  0  0
  9 23  1  0  0  0  0
  9 24  1  0  0  0  0
 10 25  1  0  0  0  0
 10 26  1  0  0  0  0
 11 27  1  0  0  0  0
 11 28  1  0  0  0  0
 12 29  1  0  0  0  0
 12 30  1  0  0  0  0
 13 31  1  0  0  0  0
 13 32  1  0  0  0  0
M  END
> <pdb_id>
3IBI

> <uniprot_id>
P00918

> <usmiles>
S(=O)(=O)(OCCCCCCCC)N

$$$$
BPG_A_1
          07192419053D 1   1.00000     0.00000     0
            
 39 41  0  0  0  0            999 V2000
   16.0113   93.6515   43.4035 O   0  0  0  0  0  0  0  0  0  0  0  0
   25.3887   96.4997   44.7499 O   0  0  0  0  0  0  0  0  0  0  0  0
   22.5687   97.7517   44.3576 N   0  0  0  0  0  0  0  0  0  0  0  0
   24.3486   94.5037   44.5576 N   0  0  0  0  0  0  0  0  0  0  0  0
   23.3470   92.4040   44.3368 N   0  0  0  0  0  0  0  0  0  0  0  0
   21.9692   94.2651   44.2397 N   0  0  0  0  0  0  0  0  0  0  0  0
   20.7808   96.4052   44.0513 N   0  0  0  0  0  0  0  0  0  0  0  0
   17.3533   93.7419   43.7983 C   0  0  0  0  0  0  0  0  0  0  0  0
   21.2834   97.6551   44.1350 C   0  0  0  0  0  0  0  0  0  0  0  0
   19.3877   95.9858   43.8349 C   0  0  0  0  0  0  0  0  0  0  0  0
   17.2841   94.8898   44.7808 C   0  0  0  0  0  0  0  0  0  0  0  0
   18.6990   95.3732   45.0781 C   0  0  0  0  0  0  0  0  0  0  0  0
   20.3836   89.4827   43.8171 C   0  0  0  0  0  0  0  0  0  0  0  0
   20.1724   90.7855   43.3129 C   0  0  0  0  0  0  0  0  0  0  0  0
   21.5836   89.1588   44.4607 C   0  0  0  0  0  0  0  0  0  0  0  0
   21.1428   91.7553   43.4897 C   0  0  0  0  0  0  0  0  0  0  0  0
   22.5455   90.1359   44.6368 C   0  0  0  0  0  0  0  0  0  0  0  0
   23.2086   93.7629   44.3515 C   0  0  0  0  0  0  0  0  0  0  0  0
   24.3447   95.8919   44.5865 C   0  0  0  0  0  0  0  0  0  0  0  0
   22.3291   91.4439   44.1413 C   0  0  0  0  0  0  0  0  0  0  0  0
   21.9364   95.5894   44.2447 C   0  0  0  0  0  0  0  0  0  0  0  0
   23.0069   96.4280   44.4109 C   0  0  0  0  0  0  0  0  0  0  0  0
   15.9090   92.9132   42.7369 H   0  0  0  0  0  0  0  0  0  0  0  0
   25.2153   94.0234   44.6922 H   0  0  0  0  0  0  0  0  0  0  0  0
   24.2710   92.0495   44.4802 H   0  0  0  0  0  0  0  0  0  0  0  0
   17.9506   93.9550   43.0251 H   0  0  0  0  0  0  0  0  0  0  0  0
   17.6649   92.8996   44.2381 H   0  0  0  0  0  0  0  0  0  0  0  0
   20.7042   98.4639   44.0324 H   0  0  0  0  0  0  0  0  0  0  0  0
   19.3773   95.3030   43.1044 H   0  0  0  0  0  0  0  0  0  0  0  0
   18.8614   96.7869   43.5498 H   0  0  0  0  0  0  0  0  0  0  0  0
   16.8504   94.5811   45.6273 H   0  0  0  0  0  0  0  0  0  0  0  0
   16.7502   95.6375   44.3861 H   0  0  0  0  0  0  0  0  0  0  0  0
   18.6566   96.0677   45.7963 H   0  0  0  0  0  0  0  0  0  0  0  0
   19.2431   94.5970   45.3966 H   0  0  0  0  0  0  0  0  0  0  0  0
   19.6717   88.7881   43.7136 H   0  0  0  0  0  0  0  0  0  0  0  0
   19.3248   91.0057   42.8301 H   0  0  0  0  0  0  0  0  0  0  0  0
   21.7437   88.2284   44.7904 H   0  0  0  0  0  0  0  0  0  0  0  0
   20.9898   92.6825   43.1478 H   0  0  0  0  0  0  0  0  0  0  0  0
   23.3962   89.9181   45.1154 H   0  0  0  0  0  0  0  0  0  0  0  0
  1  8  1  0  0  0  0
  2 19  2  0  0  0  0
  3  9  2  0  0  0  0
  3 22  1  0  0  0  0
  4 18  1  0  0  0  0
  4 19  1  0  0  0  0
  5 18  1  0  0  0  0
  5 20  1  0  0  0  0
  6 18  2  0  0  0  0
  6 21  1  0  0  0  0
  7  9  1  0  0  0  0
  7 10  1  0  0  0  0
  7 21  1  0  0  0  0
  8 11  1  0  0  0  0
 10 12  1  0  0  0  0
 11 12  1  0  0  0  0
 13 14  2  0  0  0  0
 13 15  1  0  0  0  0
 14 16  1  0  0  0  0
 15 17  2  0  0  0  0
 16 20  2  0  0  0  0
 17 20  1  0  0  0  0
 19 22  1  0  0  0  0
 21 22  2  0  0  0  0
  1 23  1  0  0  0  0
  4 24  1  0  0  0  0
  5 25  1  0  0  0  0
  8 26  1  0  0  0  0
  8 27  1  0  0  0  0
  9 28  1  0  0  0  0
 10 29  1  0  0  0  0
 10 30  1  0  0  0  0
 11 31  1  0  0  0  0
 11 32  1  0  0  0  0
 12 33  1  0  0  0  0
 12 34  1  0  0  0  0
 13 35  1  0  0  0  0
 14 36  1  0  0  0  0
 15 37  1  0  0  0  0
 16 38  1  0  0  0  0
 17 39  1  0  0  0  0
M  END
> <pdb_id>
1QHI

> <uniprot_id>
P03176

> <usmiles>
O=C1NC(=NC=2N(C=NC12)CCCCO)Nc3ccccc3

$$$$
BQM_C_1
          07202401043D 1   1.00000     0.00000     0
            
 50 52  0  0  0  0            999 V2000
  -19.7125   16.4645   -4.2657 S   0  0  0  0  0  0  0  0  0  0  0  0
  -16.5740   14.1568   -6.0998 F   0  0  0  0  0  0  0  0  0  0  0  0
  -18.7247   13.9210   -6.3270 F   0  0  0  0  0  0  0  0  0  0  0  0
  -17.7487   14.5970   -4.5088 F   0  0  0  0  0  0  0  0  0  0  0  0
  -14.9528   15.4821   -7.8065 F   0  0  0  0  0  0  0  0  0  0  0  0
  -16.8300   14.5810   -8.3171 F   0  0  0  0  0  0  0  0  0  0  0  0
  -16.2653   16.1396   -9.3956 F   0  0  0  0  0  0  0  0  0  0  0  0
  -14.3669   19.3817  -10.3974 O   0  0  0  0  0  0  0  0  0  0  0  0
  -14.3707   24.1023  -10.5923 O   0  0  0  0  0  0  0  0  0  0  0  0
  -23.1937   20.2099   -3.7753 N   0  0  0  0  0  0  0  0  0  0  0  0
  -15.1840   21.4740  -10.4590 N   0  0  0  0  0  0  0  0  0  0  0  0
  -13.4988   23.0945  -11.1110 C   0  0  0  0  0  0  0  0  0  0  0  0
  -15.2198   23.6673   -9.5266 C   0  0  0  0  0  0  0  0  0  0  0  0
  -14.3045   21.8833  -11.5741 C   0  0  0  0  0  0  0  0  0  0  0  0
  -16.1051   22.5101   -9.9766 C   0  0  0  0  0  0  0  0  0  0  0  0
  -20.4098   19.3593   -1.6116 C   0  0  0  0  0  0  0  0  0  0  0  0
  -19.8711   18.2664   -2.2921 C   0  0  0  0  0  0  0  0  0  0  0  0
  -21.5251   20.0151   -2.1182 C   0  0  0  0  0  0  0  0  0  0  0  0
  -18.7233   18.3341   -5.8733 C   0  0  0  0  0  0  0  0  0  0  0  0
  -16.0313   19.8054   -8.8689 C   0  0  0  0  0  0  0  0  0  0  0  0
  -17.9425   18.8297   -6.9150 C   0  0  0  0  0  0  0  0  0  0  0  0
  -16.2812   18.5055   -8.7153 C   0  0  0  0  0  0  0  0  0  0  0  0
  -21.5606   18.4623   -3.9879 C   0  0  0  0  0  0  0  0  0  0  0  0
  -20.4359   17.8038   -3.4814 C   0  0  0  0  0  0  0  0  0  0  0  0
  -18.6883   16.9826   -5.5345 C   0  0  0  0  0  0  0  0  0  0  0  0
  -15.1405   20.2214   -9.9731 C   0  0  0  0  0  0  0  0  0  0  0  0
  -22.1004   19.5631   -3.3013 C   0  0  0  0  0  0  0  0  0  0  0  0
  -17.1210   17.9687   -7.6239 C   0  0  0  0  0  0  0  0  0  0  0  0
  -17.8587   16.1077   -6.2555 C   0  0  0  0  0  0  0  0  0  0  0  0
  -17.0456   16.6110   -7.2856 C   0  0  0  0  0  0  0  0  0  0  0  0
  -17.7689   14.6528   -5.8325 C   0  0  0  0  0  0  0  0  0  0  0  0
  -16.1971   15.7110   -8.1539 C   0  0  0  0  0  0  0  0  0  0  0  0
  -23.6264   19.9050   -4.6237 H   0  0  0  0  0  0  0  0  0  0  0  0
  -23.5674   20.9918   -3.2763 H   0  0  0  0  0  0  0  0  0  0  0  0
  -12.8595   22.8115  -10.3960 H   0  0  0  0  0  0  0  0  0  0  0  0
  -12.9884   23.4670  -11.8861 H   0  0  0  0  0  0  0  0  0  0  0  0
  -15.7988   24.4295   -9.2370 H   0  0  0  0  0  0  0  0  0  0  0  0
  -14.6541   23.3677   -8.7584 H   0  0  0  0  0  0  0  0  0  0  0  0
  -14.8568   22.1266  -12.3715 H   0  0  0  0  0  0  0  0  0  0  0  0
  -13.6864   21.1343  -11.8126 H   0  0  0  0  0  0  0  0  0  0  0  0
  -16.6468   22.1662   -9.2096 H   0  0  0  0  0  0  0  0  0  0  0  0
  -16.7166   22.8035  -10.7115 H   0  0  0  0  0  0  0  0  0  0  0  0
  -19.9925   19.6709   -0.7579 H   0  0  0  0  0  0  0  0  0  0  0  0
  -19.0650   17.8060   -1.9203 H   0  0  0  0  0  0  0  0  0  0  0  0
  -21.9099   20.8032   -1.6377 H   0  0  0  0  0  0  0  0  0  0  0  0
  -19.3166   18.9559   -5.3621 H   0  0  0  0  0  0  0  0  0  0  0  0
  -16.4357   20.4818   -8.2534 H   0  0  0  0  0  0  0  0  0  0  0  0
  -17.9749   19.8012   -7.1496 H   0  0  0  0  0  0  0  0  0  0  0  0
  -15.8818   17.8630   -9.3692 H   0  0  0  0  0  0  0  0  0  0  0  0
  -21.9812   18.1495   -4.8395 H   0  0  0  0  0  0  0  0  0  0  0  0
  1 24  1  0  0  0  0
  1 25  1  0  0  0  0
  2 31  1  0  0  0  0
  3 31  1  0  0  0  0
  4 31  1  0  0  0  0
  5 32  1  0  0  0  0
  6 32  1  0  0  0  0
  7 32  1  0  0  0  0
  8 26  2  0  0  0  0
  9 12  1  0  0  0  0
  9 13  1  0  0  0  0
 10 27  1  0  0  0  0
 11 14  1  0  0  0  0
 11 15  1  0  0  0  0
 11 26  1  0  0  0  0
 12 14  1  0  0  0  0
 13 15  1  0  0  0  0
 16 17  2  0  0  0  0
 16 18  1  0  0  0  0
 17 24  1  0  0  0  0
 18 27  2  0  0  0  0
 19 21  1  0  0  0  0
 19 25  2  0  0  0  0
 20 22  2  0  0  0  0
 20 26  1  0  0  0  0
 21 28  2  0  0  0  0
 22 28  1  0  0  0  0
 23 24  2  0  0  0  0
 23 27  1  0  0  0  0
 25 29  1  0  0  0  0
 28 30  1  0  0  0  0
 29 30  2  0  0  0  0
 29 31  1  0  0  0  0
 30 32  1  0  0  0  0
 10 33  1  0  0  0  0
 10 34  1  0  0  0  0
 12 35  1  0  0  0  0
 12 36  1  0  0  0  0
 13 37  1  0  0  0  0
 13 38  1  0  0  0  0
 14 39  1  0  0  0  0
 14 40  1  0  0  0  0
 15 41  1  0  0  0  0
 15 42  1  0  0  0  0
 16 43  1  0  0  0  0
 17 44  1  0  0  0  0
 18 45  1  0  0  0  0
 19 46  1  0  0  0  0
 20 47  1  0  0  0  0
 21 48  1  0  0  0  0
 22 49  1  0  0  0  0
 23 50  1  0  0  0  0
M  END
> <pdb_id>
3BQM

> <uniprot_id>
P20701

> <usmiles>
S(c1c(c(c(cc1)/C=C/C(=O)N2CCOCC2)C(F)(F)F)C(F)(F)F)c3cc(N)ccc3

$$$$
BQN_B_1
          07202401043D 1   1.00000     0.00000     0
            
 61 64  0  0  0  0            999 V2000
  -19.4660   16.4980   -4.0820 S   0  0  0  0  0  0  0  0  0  0  0  0
  -16.4800   14.1720   -6.0020 F   0  0  0  0  0  0  0  0  0  0  0  0
  -18.5800   13.8670   -6.3770 F   0  0  0  0  0  0  0  0  0  0  0  0
  -17.8700   14.4780   -4.4710 F   0  0  0  0  0  0  0  0  0  0  0  0
  -15.0300   15.3760   -7.7680 F   0  0  0  0  0  0  0  0  0  0  0  0
  -16.9400   14.5360   -8.3230 F   0  0  0  0  0  0  0  0  0  0  0  0
  -16.1880   16.1090   -9.4230 F   0  0  0  0  0  0  0  0  0  0  0  0
  -14.4270   19.4050  -10.5810 O   0  0  0  0  0  0  0  0  0  0  0  0
  -14.2470   24.0100  -10.6240 O   0  0  0  0  0  0  0  0  0  0  0  0
  -21.8030   17.6580   -5.5100 O   0  0  0  0  0  0  0  0  0  0  0  0
  -24.0360   20.6300   -8.4770 N   0  0  0  0  0  0  0  0  0  0  0  0
  -15.2430   21.4760  -10.5150 N   0  0  0  0  0  0  0  0  0  0  0  0
  -15.0780   23.6440   -9.5100 C   0  0  0  0  0  0  0  0  0  0  0  0
  -13.4870   22.9190  -11.1400 C   0  0  0  0  0  0  0  0  0  0  0  0
  -23.0700   17.8350   -6.1600 C   0  0  0  0  0  0  0  0  0  0  0  0
  -22.8710   20.9690   -9.0510 C   0  0  0  0  0  0  0  0  0  0  0  0
  -24.1150   19.6460   -7.5650 C   0  0  0  0  0  0  0  0  0  0  0  0
  -16.0540   22.5330   -9.9050 C   0  0  0  0  0  0  0  0  0  0  0  0
  -14.4670   21.8870  -11.6850 C   0  0  0  0  0  0  0  0  0  0  0  0
  -21.6960   20.2970   -8.7080 C   0  0  0  0  0  0  0  0  0  0  0  0
  -20.7930   19.5720   -1.9520 C   0  0  0  0  0  0  0  0  0  0  0  0
  -21.8700   20.0360   -2.7040 C   0  0  0  0  0  0  0  0  0  0  0  0
  -20.0600   18.4700   -2.3890 C   0  0  0  0  0  0  0  0  0  0  0  0
  -18.5800   18.3390   -5.7660 C   0  0  0  0  0  0  0  0  0  0  0  0
  -15.9980   19.7810   -8.9150 C   0  0  0  0  0  0  0  0  0  0  0  0
  -22.2140   19.3960   -3.8910 C   0  0  0  0  0  0  0  0  0  0  0  0
  -21.7480   19.2700   -7.7660 C   0  0  0  0  0  0  0  0  0  0  0  0
  -17.8710   18.8190   -6.8580 C   0  0  0  0  0  0  0  0  0  0  0  0
  -16.3410   18.4940   -8.7910 C   0  0  0  0  0  0  0  0  0  0  0  0
  -20.3990   17.8290   -3.5760 C   0  0  0  0  0  0  0  0  0  0  0  0
  -18.5370   16.9850   -5.4240 C   0  0  0  0  0  0  0  0  0  0  0  0
  -15.1820   20.2170  -10.0710 C   0  0  0  0  0  0  0  0  0  0  0  0
  -21.4770   18.2930   -4.3330 C   0  0  0  0  0  0  0  0  0  0  0  0
  -22.9720   18.9430   -7.1870 C   0  0  0  0  0  0  0  0  0  0  0  0
  -17.1120   17.9480   -7.6350 C   0  0  0  0  0  0  0  0  0  0  0  0
  -17.7770   16.0890   -6.1920 C   0  0  0  0  0  0  0  0  0  0  0  0
  -17.0390   16.5820   -7.2980 C   0  0  0  0  0  0  0  0  0  0  0  0
  -17.7030   14.6230   -5.7750 C   0  0  0  0  0  0  0  0  0  0  0  0
  -16.2440   15.6510   -8.1910 C   0  0  0  0  0  0  0  0  0  0  0  0
  -15.5963   24.4449   -9.2100 H   0  0  0  0  0  0  0  0  0  0  0  0
  -14.4994   23.3216   -8.7608 H   0  0  0  0  0  0  0  0  0  0  0  0
  -12.9357   22.5132  -10.4110 H   0  0  0  0  0  0  0  0  0  0  0  0
  -12.8868   23.2388  -11.8731 H   0  0  0  0  0  0  0  0  0  0  0  0
  -23.7616   18.0747   -5.4786 H   0  0  0  0  0  0  0  0  0  0  0  0
  -23.3312   16.9835   -6.6148 H   0  0  0  0  0  0  0  0  0  0  0  0
  -22.8444   21.7056   -9.7268 H   0  0  0  0  0  0  0  0  0  0  0  0
  -24.9981   19.4170   -7.1555 H   0  0  0  0  0  0  0  0  0  0  0  0
  -16.5277   22.1838   -9.0965 H   0  0  0  0  0  0  0  0  0  0  0  0
  -16.7249   22.8779  -10.5614 H   0  0  0  0  0  0  0  0  0  0  0  0
  -15.0607   22.2937  -12.3793 H   0  0  0  0  0  0  0  0  0  0  0  0
  -13.9791   21.1078  -12.0785 H   0  0  0  0  0  0  0  0  0  0  0  0
  -20.8268   20.5494   -9.1332 H   0  0  0  0  0  0  0  0  0  0  0  0
  -20.5456   20.0299   -1.0981 H   0  0  0  0  0  0  0  0  0  0  0  0
  -22.3950   20.8276   -2.3914 H   0  0  0  0  0  0  0  0  0  0  0  0
  -19.2875   18.1389   -1.8471 H   0  0  0  0  0  0  0  0  0  0  0  0
  -19.1284   18.9699   -5.2171 H   0  0  0  0  0  0  0  0  0  0  0  0
  -16.2918   20.4466   -8.2290 H   0  0  0  0  0  0  0  0  0  0  0  0
  -22.9899   19.7257   -4.4289 H   0  0  0  0  0  0  0  0  0  0  0  0
  -20.9178   18.7750   -7.5096 H   0  0  0  0  0  0  0  0  0  0  0  0
  -17.9053   19.7918   -7.0872 H   0  0  0  0  0  0  0  0  0  0  0  0
  -16.0651   17.8611   -9.5144 H   0  0  0  0  0  0  0  0  0  0  0  0
  1 30  1  0  0  0  0
  1 31  1  0  0  0  0
  2 38  1  0  0  0  0
  3 38  1  0  0  0  0
  4 38  1  0  0  0  0
  5 39  1  0  0  0  0
  6 39  1  0  0  0  0
  7 39  1  0  0  0  0
  8 32  2  0  0  0  0
  9 13  1  0  0  0  0
  9 14  1  0  0  0  0
 10 15  1  0  0  0  0
 10 33  1  0  0  0  0
 11 16  2  0  0  0  0
 11 17  1  0  0  0  0
 12 18  1  0  0  0  0
 12 19  1  0  0  0  0
 12 32  1  0  0  0  0
 13 18  1  0  0  0  0
 14 19  1  0  0  0  0
 15 34  1  0  0  0  0
 16 20  1  0  0  0  0
 17 34  2  0  0  0  0
 20 27  2  0  0  0  0
 21 22  2  0  0  0  0
 21 23  1  0  0  0  0
 22 26  1  0  0  0  0
 23 30  2  0  0  0  0
 24 28  1  0  0  0  0
 24 31  2  0  0  0  0
 25 29  2  0  0  0  0
 25 32  1  0  0  0  0
 26 33  2  0  0  0  0
 27 34  1  0  0  0  0
 28 35  2  0  0  0  0
 29 35  1  0  0  0  0
 30 33  1  0  0  0  0
 31 36  1  0  0  0  0
 35 37  1  0  0  0  0
 36 37  2  0  0  0  0
 36 38  1  0  0  0  0
 37 39  1  0  0  0  0
 13 40  1  0  0  0  0
 13 41  1  0  0  0  0
 14 42  1  0  0  0  0
 14 43  1  0  0  0  0
 15 44  1  0  0  0  0
 15 45  1  0  0  0  0
 16 46  1  0  0  0  0
 17 47  1  0  0  0  0
 18 48  1  0  0  0  0
 18 49  1  0  0  0  0
 19 50  1  0  0  0  0
 19 51  1  0  0  0  0
 20 52  1  0  0  0  0
 21 53  1  0  0  0  0
 22 54  1  0  0  0  0
 23 55  1  0  0  0  0
 24 56  1  0  0  0  0
 25 57  1  0  0  0  0
 26 58  1  0  0  0  0
 27 59  1  0  0  0  0
 28 60  1  0  0  0  0
 29 61  1  0  0  0  0
M  END
> <pdb_id>
3BQN

> <uniprot_id>
P20701

> <usmiles>
S(c1c(OCc2cnccc2)cccc1)c3c(c(c(cc3)/C=C/C(=O)N4CCOCC4)C(F)(F)F)C(F)(F)F

$$$$
BQY_B_201
          07202413403D 1   1.00000     0.00000     0
            
 38 39  0  0  0  0            999 V2000
   -6.0748   43.1556  126.8358 O   0  0  0  0  0  0  0  0  0  0  0  0
   -9.6706   47.5320  128.9248 O   0  0  0  0  0  0  0  0  0  0  0  0
   -6.3905   46.0954  126.8101 O   0  0  0  0  0  0  0  0  0  0  0  0
   -8.2421   48.1414  126.5281 O   0  0  0  0  0  0  0  0  0  0  0  0
   -7.6598   44.7850  132.5574 O   0  0  0  0  0  0  0  0  0  0  0  0
   -8.7746   45.2268  130.1609 O   0  0  0  0  0  0  0  0  0  0  0  0
   -8.1584   44.3235  128.1437 O   0  0  0  0  0  0  0  0  0  0  0  0
   -6.7208   44.3516  133.5210 C   0  0  0  0  0  0  0  0  0  0  0  0
   -9.8232   41.7704  132.3297 C   0  0  0  0  0  0  0  0  0  0  0  0
  -10.4116   41.9810  131.0824 C   0  0  0  0  0  0  0  0  0  0  0  0
   -8.9123   42.6827  132.8380 C   0  0  0  0  0  0  0  0  0  0  0  0
  -10.0821   43.1159  130.3364 C   0  0  0  0  0  0  0  0  0  0  0  0
   -7.2955   43.2685  126.1751 C   0  0  0  0  0  0  0  0  0  0  0  0
   -8.5788   43.8146  132.0949 C   0  0  0  0  0  0  0  0  0  0  0  0
   -9.1653   44.0242  130.8526 C   0  0  0  0  0  0  0  0  0  0  0  0
   -9.0075   45.2472  128.7599 C   0  0  2  0  0  0  0  0  0  0  0  0
   -8.1631   44.4183  126.7651 C   0  0  2  0  0  0  0  0  0  0  0  0
   -8.6954   46.6819  128.3649 C   0  0  1  0  0  0  0  0  0  0  0  0
   -7.6881   45.8009  126.3249 C   0  0  1  0  0  0  0  0  0  0  0  0
   -8.6610   46.8231  126.8664 C   0  0  2  0  0  0  0  0  0  0  0  0
   -6.2145   42.8510  127.6788 H   0  0  0  0  0  0  0  0  0  0  0  0
   -9.8002   47.3102  129.8170 H   0  0  0  0  0  0  0  0  0  0  0  0
   -5.7783   45.7180  126.2748 H   0  0  0  0  0  0  0  0  0  0  0  0
   -7.9313   48.5611  127.2726 H   0  0  0  0  0  0  0  0  0  0  0  0
   -5.9485   44.9550  133.5192 H   0  0  0  0  0  0  0  0  0  0  0  0
   -6.4227   43.4338  133.3008 H   0  0  0  0  0  0  0  0  0  0  0  0
   -7.1368   44.3574  134.4040 H   0  0  0  0  0  0  0  0  0  0  0  0
  -10.0529   40.9751  132.8469 H   0  0  0  0  0  0  0  0  0  0  0  0
  -11.0490   41.3376  130.7311 H   0  0  0  0  0  0  0  0  0  0  0  0
   -8.4917   42.5267  133.7285 H   0  0  0  0  0  0  0  0  0  0  0  0
  -10.4958   43.2699  129.4579 H   0  0  0  0  0  0  0  0  0  0  0  0
   -7.1260   43.4516  125.2068 H   0  0  0  0  0  0  0  0  0  0  0  0
   -7.7813   42.4293  126.2601 H   0  0  0  0  0  0  0  0  0  0  0  0
   -9.9639   45.0299  128.5620 H   0  0  0  0  0  0  0  0  0  0  0  0
   -9.0923   44.2984  126.4506 H   0  0  0  0  0  0  0  0  0  0  0  0
   -7.8129   46.9267  128.7289 H   0  0  0  0  0  0  0  0  0  0  0  0
   -7.6839   45.8432  125.3601 H   0  0  0  0  0  0  0  0  0  0  0  0
   -9.5473   46.6572  126.5008 H   0  0  0  0  0  0  0  0  0  0  0  0
  1 13  1  0  0  0  0
  1 21  1  0  0  0  0
  2 18  1  0  0  0  0
  2 22  1  0  0  0  0
  3 19  1  0  0  0  0
  3 23  1  0  0  0  0
  4 20  1  0  0  0  0
  4 24  1  0  0  0  0
  5  8  1  0  0  0  0
  5 14  1  0  0  0  0
  6 15  1  0  0  0  0
  6 16  1  0  0  0  0
  7 16  1  0  0  0  0
  7 17  1  0  0  0  0
  8 25  1  0  0  0  0
  8 26  1  0  0  0  0
  8 27  1  0  0  0  0
  9 10  2  0  0  0  0
  9 11  1  0  0  0  0
  9 28  1  0  0  0  0
 10 12  1  0  0  0  0
 10 29  1  0  0  0  0
 11 14  2  0  0  0  0
 11 30  1  0  0  0  0
 12 15  2  0  0  0  0
 12 31  1  0  0  0  0
 13 17  1  0  0  0  0
 13 32  1  0  0  0  0
 13 33  1  0  0  0  0
 14 15  1  0  0  0  0
 16 18  1  0  0  0  0
 16 34  1  0  0  0  0
 17 19  1  0  0  0  0
 17 35  1  0  0  0  0
 18 20  1  0  0  0  0
 18 36  1  0  0  0  0
 19 20  1  0  0  0  0
 19 37  1  0  0  0  0
 20 38  1  0  0  0  0
M  END
> <pdb_id>
6ARN

> <uniprot_id>
Q1RBS0

> <usmiles>
O(c1c(OC)cccc1)[C@@H]2O[C@@H]([C@H](O)[C@H](O)[C@H]2O)CO

$$$$
BRE_A_397
          07212403373D 1   1.00000     0.00000     0
            
 43 46  0  0  0  0            999 V2000
   35.7165  -19.2533  -22.5067 F   0  0  0  0  0  0  0  0  0  0  0  0
   33.2897  -16.9475  -26.4137 O   0  0  0  0  0  0  0  0  0  0  0  0
   34.9564  -15.5987  -26.9158 O   0  0  0  0  0  0  0  0  0  0  0  0
   34.0489  -14.1778  -22.2626 N   0  0  0  0  0  0  0  0  0  0  0  0
   32.9162  -13.4344  -25.7870 C   0  0  0  0  0  0  0  0  0  0  0  0
   31.4380   -5.5083  -21.1723 C   0  0  0  0  0  0  0  0  0  0  0  0
   31.9788   -6.4093  -20.2732 C   0  0  0  0  0  0  0  0  0  0  0  0
   31.0852   -5.9307  -22.4366 C   0  0  0  0  0  0  0  0  0  0  0  0
   35.4135  -17.3834  -21.2634 C   0  0  0  0  0  0  0  0  0  0  0  0
   34.9622  -16.0756  -21.2241 C   0  0  0  0  0  0  0  0  0  0  0  0
   32.1981   -7.7182  -20.6712 C   0  0  0  0  0  0  0  0  0  0  0  0
   31.3057   -7.2355  -22.8536 C   0  0  0  0  0  0  0  0  0  0  0  0
   33.3762  -11.1124  -23.8381 C   0  0  0  0  0  0  0  0  0  0  0  0
   32.2208  -11.9555  -21.8920 C   0  0  0  0  0  0  0  0  0  0  0  0
   32.9538   -9.8539  -23.4709 C   0  0  0  0  0  0  0  0  0  0  0  0
   31.8119  -10.6816  -21.5327 C   0  0  0  0  0  0  0  0  0  0  0  0
   34.9475  -17.4196  -23.6199 C   0  0  0  0  0  0  0  0  0  0  0  0
   34.0251  -16.0708  -26.0620 C   0  0  0  0  0  0  0  0  0  0  0  0
   35.3872  -18.0583  -22.4744 C   0  0  0  0  0  0  0  0  0  0  0  0
   34.5166  -15.4312  -22.3737 C   0  0  0  0  0  0  0  0  0  0  0  0
   33.4874  -13.5421  -23.3276 C   0  0  0  0  0  0  0  0  0  0  0  0
   33.4876  -14.1387  -24.5742 C   0  0  0  0  0  0  0  0  0  0  0  0
   32.9837  -12.1743  -23.0163 C   0  0  0  0  0  0  0  0  0  0  0  0
   31.8146   -8.1597  -21.9486 C   0  0  0  0  0  0  0  0  0  0  0  0
   32.1682   -9.6023  -22.3576 C   0  0  0  0  0  0  0  0  0  0  0  0
   34.5085  -16.1004  -23.5916 C   0  0  0  0  0  0  0  0  0  0  0  0
   34.0004  -15.4260  -24.7023 C   0  0  0  0  0  0  0  0  0  0  0  0
   32.5973  -17.3016  -25.7852 H   0  0  0  0  0  0  0  0  0  0  0  0
   33.0081  -14.0243  -26.5892 H   0  0  0  0  0  0  0  0  0  0  0  0
   31.9493  -13.2327  -25.6306 H   0  0  0  0  0  0  0  0  0  0  0  0
   33.4138  -12.5810  -25.9421 H   0  0  0  0  0  0  0  0  0  0  0  0
   31.3033   -4.5538  -20.9065 H   0  0  0  0  0  0  0  0  0  0  0  0
   32.2093   -6.1188  -19.3445 H   0  0  0  0  0  0  0  0  0  0  0  0
   30.6605   -5.2814  -23.0676 H   0  0  0  0  0  0  0  0  0  0  0  0
   35.7514  -17.8321  -20.4360 H   0  0  0  0  0  0  0  0  0  0  0  0
   34.9564  -15.5846  -20.3530 H   0  0  0  0  0  0  0  0  0  0  0  0
   32.6359   -8.3582  -20.0397 H   0  0  0  0  0  0  0  0  0  0  0  0
   31.1009   -7.5078  -23.7938 H   0  0  0  0  0  0  0  0  0  0  0  0
   33.9366  -11.2600  -24.6531 H   0  0  0  0  0  0  0  0  0  0  0  0
   31.9559  -12.7331  -21.3219 H   0  0  0  0  0  0  0  0  0  0  0  0
   33.2293   -9.0787  -24.0393 H   0  0  0  0  0  0  0  0  0  0  0  0
   31.2738  -10.5335  -20.7028 H   0  0  0  0  0  0  0  0  0  0  0  0
   34.9452  -17.9173  -24.4873 H   0  0  0  0  0  0  0  0  0  0  0  0
  1 19  1  0  0  0  0
  2 18  1  0  0  0  0
  3 18  2  0  0  0  0
  4 20  2  0  0  0  0
  4 21  1  0  0  0  0
  5 22  1  0  0  0  0
  6  7  2  0  0  0  0
  6  8  1  0  0  0  0
  7 11  1  0  0  0  0
  8 12  2  0  0  0  0
  9 10  2  0  0  0  0
  9 19  1  0  0  0  0
 10 20  1  0  0  0  0
 11 24  2  0  0  0  0
 12 24  1  0  0  0  0
 13 15  2  0  0  0  0
 13 23  1  0  0  0  0
 14 16  1  0  0  0  0
 14 23  2  0  0  0  0
 15 25  1  0  0  0  0
 16 25  2  0  0  0  0
 17 19  2  0  0  0  0
 17 26  1  0  0  0  0
 18 27  1  0  0  0  0
 20 26  1  0  0  0  0
 21 22  2  0  0  0  0
 21 23  1  0  0  0  0
 22 27  1  0  0  0  0
 24 25  1  0  0  0  0
 26 27  2  0  0  0  0
  2 28  1  0  0  0  0
  5 29  1  0  0  0  0
  5 30  1  0  0  0  0
  5 31  1  0  0  0  0
  6 32  1  0  0  0  0
  7 33  1  0  0  0  0
  8 34  1  0  0  0  0
  9 35  1  0  0  0  0
 10 36  1  0  0  0  0
 11 37  1  0  0  0  0
 12 38  1  0  0  0  0
 13 39  1  0  0  0  0
 14 40  1  0  0  0  0
 15 41  1  0  0  0  0
 16 42  1  0  0  0  0
 17 43  1  0  0  0  0
M  END
> <pdb_id>
1D3G

> <uniprot_id>
Q02127

> <usmiles>
Fc1cc2c(nc(c3ccc(c4ccccc4)cc3)c(c2C(=O)O)C)cc1

$$$$
BRU_B_608
          07202402513D 1   1.00000     0.00000     0
            
 33 34  0  0  0  0            999 V2000
   23.5097   40.2397   95.9312 Br  0  0  0  0  0  0  0  0  0  0  0  0
   27.4113   38.0235   94.2484 P   0  0  0  0  0  0  0  0  0  0  0  0
   27.0305   36.7050   94.8218 O   0  0  0  0  0  0  0  0  0  0  0  0
   26.1863   38.7435   93.8844 O   0  0  0  0  0  0  0  0  0  0  0  0
   28.2423   37.8321   93.0443 O   0  0  0  0  0  0  0  0  0  0  0  0
   26.9851   38.1404  100.4312 O   0  0  0  0  0  0  0  0  0  0  0  0
   22.9727   38.2013   98.1730 O   0  0  0  0  0  0  0  0  0  0  0  0
   31.2279   39.8801   98.2351 O   0  0  0  0  0  0  0  0  0  0  0  0
   28.2009   38.7941   95.3559 O   0  0  0  0  0  0  0  0  0  0  0  0
   28.6921   41.0077   97.4447 O   0  0  0  0  0  0  0  0  0  0  0  0
   24.9987   38.1974   99.2578 N   0  0  0  0  0  0  0  0  0  0  0  0
   26.8636   39.5260   98.4858 N   0  0  0  0  0  0  0  0  0  0  0  0
   29.0477   39.9662   95.1488 C   0  0  0  0  0  0  0  0  0  0  0  0
   25.9651   39.9565   97.4469 C   0  0  0  0  0  0  0  0  0  0  0  0
   29.0488   38.7237   98.1695 C   0  0  0  0  0  0  0  0  0  0  0  0
   24.6811   39.5759   97.2872 C   0  0  0  0  0  0  0  0  0  0  0  0
   26.3470   38.5813   99.4832 C   0  0  0  0  0  0  0  0  0  0  0  0
   24.1171   38.6250   98.2158 C   0  0  0  0  0  0  0  0  0  0  0  0
   28.2729   40.0571   98.5346 C   0  0  1  0  0  0  0  0  0  0  0  0
   30.2719   39.3038   97.3386 C   0  0  1  0  0  0  0  0  0  0  0  0
   29.7058   40.4518   96.4865 C   0  0  2  0  0  0  0  0  0  0  0  0
   27.8560   36.2008   95.0755 H   0  0  0  0  0  0  0  0  0  0  0  0
   26.4256   39.6337   93.4967 H   0  0  0  0  0  0  0  0  0  0  0  0
   31.9978   40.2452   97.7117 H   0  0  0  0  0  0  0  0  0  0  0  0
   24.6164   37.5443   99.9115 H   0  0  0  0  0  0  0  0  0  0  0  0
   28.4896   40.7069   94.7749 H   0  0  0  0  0  0  0  0  0  0  0  0
   29.7705   39.7326   94.4984 H   0  0  0  0  0  0  0  0  0  0  0  0
   26.3295   40.6026   96.7762 H   0  0  0  0  0  0  0  0  0  0  0  0
   28.4856   38.1111   97.6150 H   0  0  0  0  0  0  0  0  0  0  0  0
   29.3573   38.2419   98.9896 H   0  0  0  0  0  0  0  0  0  0  0  0
   28.5155   40.3965   99.4434 H   0  0  0  0  0  0  0  0  0  0  0  0
   30.6897   38.5982   96.7663 H   0  0  0  0  0  0  0  0  0  0  0  0
   30.4166   41.1298   96.2991 H   0  0  0  0  0  0  0  0  0  0  0  0
  1 16  1  0  0  0  0
  2  3  1  0  0  0  0
  2  4  1  0  0  0  0
  2  5  2  0  0  0  0
  2  9  1  0  0  0  0
  6 17  2  0  0  0  0
  7 18  2  0  0  0  0
  8 20  1  0  0  0  0
  9 13  1  0  0  0  0
 10 19  1  0  0  0  0
 10 21  1  0  0  0  0
 11 17  1  0  0  0  0
 11 18  1  0  0  0  0
 12 14  1  0  0  0  0
 12 17  1  0  0  0  0
 12 19  1  0  0  0  0
 13 21  1  0  0  0  0
 14 16  2  0  0  0  0
 15 19  1  0  0  0  0
 15 20  1  0  0  0  0
 16 18  1  0  0  0  0
 20 21  1  0  0  0  0
  3 22  1  0  0  0  0
  4 23  1  0  0  0  0
  8 24  1  0  0  0  0
 11 25  1  0  0  0  0
 13 26  1  0  0  0  0
 13 27  1  0  0  0  0
 14 28  1  0  0  0  0
 15 29  1  0  0  0  0
 15 30  1  0  0  0  0
 19 31  1  0  0  0  0
 20 32  1  0  0  0  0
 21 33  1  0  0  0  0
M  END
> <pdb_id>
1O27

> <uniprot_id>
Q9WYT0

> <usmiles>
BrC=1C(=O)NC(=O)N(C1)[C@@H]2O[C@@H]([C@@H](O)C2)COP(=O)(O)O

$$$$
BRU_C_2603
          07192421333D 1   1.00000     0.00000     0
            
 33 34  0  0  0  0            999 V2000
  -10.6972   39.3885  -63.7716 Br  0  0  0  0  0  0  0  0  0  0  0  0
   -6.2937   37.9652  -63.5316 P   0  0  0  0  0  0  0  0  0  0  0  0
   -6.0276   37.7210  -65.0032 O   0  0  0  0  0  0  0  0  0  0  0  0
   -7.2684   39.0550  -63.1773 O   0  0  0  0  0  0  0  0  0  0  0  0
   -4.9919   38.2017  -62.8933 O   0  0  0  0  0  0  0  0  0  0  0  0
   -9.9417   33.7602  -65.5418 O   0  0  0  0  0  0  0  0  0  0  0  0
  -11.1748   37.9852  -66.5544 O   0  0  0  0  0  0  0  0  0  0  0  0
   -7.1225   32.5125  -61.5156 O   0  0  0  0  0  0  0  0  0  0  0  0
   -6.8791   36.5887  -62.9278 O   0  0  0  0  0  0  0  0  0  0  0  0
   -8.9093   34.9138  -61.6416 O   0  0  0  0  0  0  0  0  0  0  0  0
  -10.5540   35.8756  -66.0444 N   0  0  0  0  0  0  0  0  0  0  0  0
   -9.7282   35.3293  -63.8554 N   0  0  0  0  0  0  0  0  0  0  0  0
   -6.8173   36.2456  -61.5339 C   0  0  0  0  0  0  0  0  0  0  0  0
   -9.8960   36.6272  -63.4540 C   0  0  0  0  0  0  0  0  0  0  0  0
   -7.8235   33.8296  -63.4077 C   0  0  0  0  0  0  0  0  0  0  0  0
  -10.4080   37.5890  -64.3349 C   0  0  0  0  0  0  0  0  0  0  0  0
  -10.0783   34.9548  -65.1698 C   0  0  0  0  0  0  0  0  0  0  0  0
  -10.7323   37.1611  -65.7114 C   0  0  0  0  0  0  0  0  0  0  0  0
   -9.1836   34.3337  -62.9177 C   0  0  1  0  0  0  0  0  0  0  0  0
   -6.9374   33.7833  -62.1707 C   0  0  1  0  0  0  0  0  0  0  0  0
   -7.5157   34.8844  -61.3063 C   0  0  2  0  0  0  0  0  0  0  0  0
   -5.3670   36.9770  -65.1035 H   0  0  0  0  0  0  0  0  0  0  0  0
   -7.3549   39.1144  -62.1828 H   0  0  0  0  0  0  0  0  0  0  0  0
   -6.5447   32.4704  -60.7005 H   0  0  0  0  0  0  0  0  0  0  0  0
  -10.7804   35.5839  -66.9737 H   0  0  0  0  0  0  0  0  0  0  0  0
   -7.2789   36.9511  -60.9961 H   0  0  0  0  0  0  0  0  0  0  0  0
   -5.8610   36.1814  -61.2485 H   0  0  0  0  0  0  0  0  0  0  0  0
   -9.6502   36.8920  -62.5215 H   0  0  0  0  0  0  0  0  0  0  0  0
   -7.4425   34.4566  -64.0873 H   0  0  0  0  0  0  0  0  0  0  0  0
   -7.9123   32.9177  -63.8084 H   0  0  0  0  0  0  0  0  0  0  0  0
   -9.8199   33.5685  -62.8191 H   0  0  0  0  0  0  0  0  0  0  0  0
   -5.9771   33.9507  -62.3940 H   0  0  0  0  0  0  0  0  0  0  0  0
   -7.4188   34.6268  -60.3449 H   0  0  0  0  0  0  0  0  0  0  0  0
  1 16  1  0  0  0  0
  2  3  1  0  0  0  0
  2  4  1  0  0  0  0
  2  5  2  0  0  0  0
  2  9  1  0  0  0  0
  6 17  2  0  0  0  0
  7 18  2  0  0  0  0
  8 20  1  0  0  0  0
  9 13  1  0  0  0  0
 10 19  1  0  0  0  0
 10 21  1  0  0  0  0
 11 17  1  0  0  0  0
 11 18  1  0  0  0  0
 12 14  1  0  0  0  0
 12 17  1  0  0  0  0
 12 19  1  0  0  0  0
 13 21  1  0  0  0  0
 14 16  2  0  0  0  0
 15 19  1  0  0  0  0
 15 20  1  0  0  0  0
 16 18  1  0  0  0  0
 20 21  1  0  0  0  0
  3 22  1  0  0  0  0
  4 23  1  0  0  0  0
  8 24  1  0  0  0  0
 11 25  1  0  0  0  0
 13 26  1  0  0  0  0
 13 27  1  0  0  0  0
 14 28  1  0  0  0  0
 15 29  1  0  0  0  0
 15 30  1  0  0  0  0
 19 31  1  0  0  0  0
 20 32  1  0  0  0  0
 21 33  1  0  0  0  0
M  END
> <pdb_id>
2AF6

> <uniprot_id>
P66930

> <usmiles>
BrC=1C(=O)NC(=O)N(C1)[C@@H]2O[C@@H]([C@@H](O)C2)COP(=O)(O)O

$$$$
BS7_B_201
          07202413403D 1   1.00000     0.00000     0
            
 39 41  0  0  0  0            999 V2000
   -6.0790   43.1070  126.8530 O   0  0  0  0  0  0  0  0  0  0  0  0
   -9.6830   47.4320  129.0790 O   0  0  0  0  0  0  0  0  0  0  0  0
   -6.3880   46.0370  126.8730 O   0  0  0  0  0  0  0  0  0  0  0  0
   -8.2590   48.1350  126.7260 O   0  0  0  0  0  0  0  0  0  0  0  0
   -8.9670   44.9490  130.1750 O   0  0  0  0  0  0  0  0  0  0  0  0
   -8.2400   44.2170  128.1700 O   0  0  0  0  0  0  0  0  0  0  0  0
   -8.0750   44.3280  132.5580 N   0  0  0  0  0  0  0  0  0  0  0  0
   -7.5850   44.0380  133.8070 C   0  0  0  0  0  0  0  0  0  0  0  0
   -7.9580   42.9080  134.4690 C   0  0  0  0  0  0  0  0  0  0  0  0
  -10.7330   41.7370  130.7630 C   0  0  0  0  0  0  0  0  0  0  0  0
  -10.3030   42.9000  130.1150 C   0  0  0  0  0  0  0  0  0  0  0  0
   -8.8620   42.0050  133.8770 C   0  0  0  0  0  0  0  0  0  0  0  0
  -10.2600   41.4530  131.9860 C   0  0  0  0  0  0  0  0  0  0  0  0
   -7.3260   43.2400  126.1720 C   0  0  0  0  0  0  0  0  0  0  0  0
   -9.4340   43.7740  130.7450 C   0  0  0  0  0  0  0  0  0  0  0  0
   -9.3690   42.3070  132.6210 C   0  0  0  0  0  0  0  0  0  0  0  0
   -8.9560   43.4620  131.9900 C   0  0  0  0  0  0  0  0  0  0  0  0
   -9.1140   45.1240  128.7930 C   0  0  2  0  0  0  0  0  0  0  0  0
   -8.1880   44.3800  126.7750 C   0  0  2  0  0  0  0  0  0  0  0  0
   -8.7230   46.5450  128.4770 C   0  0  1  0  0  0  0  0  0  0  0  0
   -7.6950   45.7600  126.3930 C   0  0  1  0  0  0  0  0  0  0  0  0
   -8.6750   46.7780  126.9900 C   0  0  2  0  0  0  0  0  0  0  0  0
   -5.5280   43.7520  126.5900 H   0  0  0  0  0  0  0  0  0  0  0  0
   -9.5410   47.4750  129.9330 H   0  0  0  0  0  0  0  0  0  0  0  0
   -5.8970   46.2920  126.2280 H   0  0  0  0  0  0  0  0  0  0  0  0
   -8.2690   48.2860  125.8410 H   0  0  0  0  0  0  0  0  0  0  0  0
   -6.9560   44.6580  134.2320 H   0  0  0  0  0  0  0  0  0  0  0  0
   -7.6000   42.7250  135.3580 H   0  0  0  0  0  0  0  0  0  0  0  0
  -11.3620   41.1320  130.3240 H   0  0  0  0  0  0  0  0  0  0  0  0
  -10.6520   43.1180  129.2570 H   0  0  0  0  0  0  0  0  0  0  0  0
   -9.1450   41.1820  134.3550 H   0  0  0  0  0  0  0  0  0  0  0  0
  -10.5460   40.6260  132.4370 H   0  0  0  0  0  0  0  0  0  0  0  0
   -7.1560   43.4320  125.2370 H   0  0  0  0  0  0  0  0  0  0  0  0
   -7.8170   42.4020  126.2400 H   0  0  0  0  0  0  0  0  0  0  0  0
  -10.0580   44.9500  128.5130 H   0  0  0  0  0  0  0  0  0  0  0  0
   -9.0900   44.2810  126.4320 H   0  0  0  0  0  0  0  0  0  0  0  0
   -7.8520   46.7240  128.8530 H   0  0  0  0  0  0  0  0  0  0  0  0
   -7.7020   45.8440  125.4120 H   0  0  0  0  0  0  0  0  0  0  0  0
   -9.5880   46.6290  126.6000 H   0  0  0  0  0  0  0  0  0  0  0  0
  1 14  1  0  0  0  0
  1 23  1  0  0  0  0
  2 20  1  0  0  0  0
  2 24  1  0  0  0  0
  3 21  1  0  0  0  0
  3 25  1  0  0  0  0
  4 22  1  0  0  0  0
  4 26  1  0  0  0  0
  5 15  1  0  0  0  0
  5 18  1  0  0  0  0
  6 18  1  0  0  0  0
  6 19  1  0  0  0  0
  7  8  2  0  0  0  0
  7 17  1  0  0  0  0
  8  9  1  0  0  0  0
  8 27  1  0  0  0  0
  9 12  2  0  0  0  0
  9 28  1  0  0  0  0
 10 11  2  0  0  0  0
 10 13  1  0  0  0  0
 10 29  1  0  0  0  0
 11 15  1  0  0  0  0
 11 30  1  0  0  0  0
 12 16  1  0  0  0  0
 12 31  1  0  0  0  0
 13 16  2  0  0  0  0
 13 32  1  0  0  0  0
 14 19  1  0  0  0  0
 14 33  1  0  0  0  0
 14 34  1  0  0  0  0
 15 17  2  0  0  0  0
 16 17  1  0  0  0  0
 18 20  1  0  0  0  0
 18 35  1  0  0  0  0
 19 21  1  0  0  0  0
 19 36  1  0  0  0  0
 20 22  1  0  0  0  0
 20 37  1  0  0  0  0
 21 22  1  0  0  0  0
 21 38  1  0  0  0  0
 22 39  1  0  0  0  0
M  END
> <pdb_id>
6ARO

> <uniprot_id>
Q1RBS0

> <usmiles>
O(c1c2ncccc2ccc1)[C@@H]3O[C@@H]([C@H](O)[C@H](O)[C@H]3O)CO

$$$$
BS8_A_201
          07192416543D 1   1.00000     0.00000     0
            
 25 27  0  0  0  0            999 V2000
   14.6253   24.8423    2.9502 F   0  0  0  0  0  0  0  0  0  0  0  0
   16.7993   19.1058    6.4337 N   0  0  0  0  0  0  0  0  0  0  0  0
   11.8558   22.6560    2.2350 N   0  0  0  0  0  0  0  0  0  0  0  0
   18.6769   22.0936    3.0745 N   0  0  0  0  0  0  0  0  0  0  0  0
   18.1280   20.4816    4.8928 N   0  0  0  0  0  0  0  0  0  0  0  0
   15.9757   20.6409    4.6900 N   0  0  0  0  0  0  0  0  0  0  0  0
   12.4434   21.4755    2.1459 C   0  0  0  0  0  0  0  0  0  0  0  0
   18.2177   22.9144    2.1397 C   0  0  0  0  0  0  0  0  0  0  0  0
   12.5572   23.7445    2.4957 C   0  0  0  0  0  0  0  0  0  0  0  0
   13.8115   21.3438    2.3188 C   0  0  0  0  0  0  0  0  0  0  0  0
   16.8405   23.0541    1.9658 C   0  0  0  0  0  0  0  0  0  0  0  0
   16.9652   20.0596    5.3594 C   0  0  0  0  0  0  0  0  0  0  0  0
   13.9301   23.6988    2.6852 C   0  0  0  0  0  0  0  0  0  0  0  0
   17.8713   21.3655    3.8877 C   0  0  0  0  0  0  0  0  0  0  0  0
   16.5094   21.4740    3.7485 C   0  0  0  0  0  0  0  0  0  0  0  0
   14.5698   22.4694    2.5945 C   0  0  0  0  0  0  0  0  0  0  0  0
   15.9469   22.3428    2.7675 C   0  0  0  0  0  0  0  0  0  0  0  0
   15.8817   18.8386    6.7278 H   0  0  0  0  0  0  0  0  0  0  0  0
   17.6023   18.7136    6.8824 H   0  0  0  0  0  0  0  0  0  0  0  0
   19.0316   20.2028    5.2182 H   0  0  0  0  0  0  0  0  0  0  0  0
   11.8917   20.6646    1.9505 H   0  0  0  0  0  0  0  0  0  0  0  0
   18.8532   23.4290    1.5641 H   0  0  0  0  0  0  0  0  0  0  0  0
   12.0860   24.6244    2.5579 H   0  0  0  0  0  0  0  0  0  0  0  0
   14.2465   20.4463    2.2455 H   0  0  0  0  0  0  0  0  0  0  0  0
   16.4904   23.6699    1.2599 H   0  0  0  0  0  0  0  0  0  0  0  0
  1 13  1  0  0  0  0
  2 12  1  0  0  0  0
  3  7  2  0  0  0  0
  3  9  1  0  0  0  0
  4  8  1  0  0  0  0
  4 14  2  0  0  0  0
  5 12  1  0  0  0  0
  5 14  1  0  0  0  0
  6 12  2  0  0  0  0
  6 15  1  0  0  0  0
  7 10  1  0  0  0  0
  8 11  2  0  0  0  0
  9 13  2  0  0  0  0
 10 16  2  0  0  0  0
 11 17  1  0  0  0  0
 13 16  1  0  0  0  0
 14 15  1  0  0  0  0
 15 17  2  0  0  0  0
 16 17  1  0  0  0  0
  2 18  1  0  0  0  0
  2 19  1  0  0  0  0
  5 20  1  0  0  0  0
  7 21  1  0  0  0  0
  8 22  1  0  0  0  0
  9 23  1  0  0  0  0
 10 24  1  0  0  0  0
 11 25  1  0  0  0  0
M  END
> <pdb_id>
6EQ7

> <uniprot_id>
P36639

> <usmiles>
Fc1c(c2c3N=C(Nc3ncc2)N)ccnc1

$$$$
BSI_A_250
          07192421093D 1   1.00000     0.00000     0
            
 47 50  0  0  0  0            999 V2000
   28.4470   59.8400   49.7700 S   0  0  0  0  0  0  0  0  0  0  0  0
   29.8250   59.6520   49.3690 O   0  0  0  0  0  0  0  0  0  0  0  0
   27.6780   60.9140   49.2150 O   0  0  0  0  0  0  0  0  0  0  0  0
   25.1420   59.0600   52.5280 O   0  0  0  0  0  0  0  0  0  0  0  0
   27.0290   58.0640   52.8840 O   0  0  0  0  0  0  0  0  0  0  0  0
   28.4190   59.9900   51.3650 N   0  0  0  0  0  0  0  0  0  0  0  0
   25.1650   52.2760   46.4320 C   0  0  0  0  0  0  0  0  0  0  0  0
   24.7090   53.5400   45.9710 C   0  0  0  0  0  0  0  0  0  0  0  0
   26.0530   52.2050   47.5400 C   0  0  0  0  0  0  0  0  0  0  0  0
   30.3900   59.3230   55.7800 C   0  0  0  0  0  0  0  0  0  0  0  0
   29.4510   60.2230   56.3240 C   0  0  0  0  0  0  0  0  0  0  0  0
   29.5570   59.4040   52.1020 C   0  0  0  0  0  0  0  0  0  0  0  0
   28.3570   57.1120   49.5420 C   0  0  0  0  0  0  0  0  0  0  0  0
   26.3100   58.3200   48.8060 C   0  0  0  0  0  0  0  0  0  0  0  0
   30.4040   59.0550   54.3880 C   0  0  0  0  0  0  0  0  0  0  0  0
   25.1270   54.7500   46.6090 C   0  0  0  0  0  0  0  0  0  0  0  0
   26.4680   53.3980   48.1780 C   0  0  0  0  0  0  0  0  0  0  0  0
   28.4960   60.8580   55.4930 C   0  0  0  0  0  0  0  0  0  0  0  0
   27.7630   55.9340   49.0370 C   0  0  0  0  0  0  0  0  0  0  0  0
   25.7260   57.1190   48.3240 C   0  0  0  0  0  0  0  0  0  0  0  0
   27.4340   61.2220   53.2390 C   0  0  0  0  0  0  0  0  0  0  0  0
   27.6250   58.3170   49.3640 C   0  0  0  0  0  0  0  0  0  0  0  0
   26.3880   59.0790   52.4950 C   0  0  0  0  0  0  0  0  0  0  0  0
   27.1290   60.3290   52.0360 C   0  0  2  0  0  0  0  0  0  0  0  0
   29.4640   59.6780   53.5540 C   0  0  0  0  0  0  0  0  0  0  0  0
   26.0010   54.6670   47.7170 C   0  0  0  0  0  0  0  0  0  0  0  0
   26.4710   55.9070   48.3830 C   0  0  0  0  0  0  0  0  0  0  0  0
   28.4930   60.5630   54.0960 C   0  0  0  0  0  0  0  0  0  0  0  0
   24.6215   59.8574   52.2227 H   0  0  0  0  0  0  0  0  0  0  0  0
   24.8620   51.4380   45.9781 H   0  0  0  0  0  0  0  0  0  0  0  0
   24.0869   53.5844   45.1893 H   0  0  0  0  0  0  0  0  0  0  0  0
   26.3819   51.3187   47.8660 H   0  0  0  0  0  0  0  0  0  0  0  0
   31.0502   58.8709   56.3798 H   0  0  0  0  0  0  0  0  0  0  0  0
   29.4594   60.4147   57.3054 H   0  0  0  0  0  0  0  0  0  0  0  0
   30.4074   59.7962   51.7514 H   0  0  0  0  0  0  0  0  0  0  0  0
   29.5621   58.4144   51.9580 H   0  0  0  0  0  0  0  0  0  0  0  0
   29.2456   57.0987   50.0005 H   0  0  0  0  0  0  0  0  0  0  0  0
   25.7959   59.1762   48.7544 H   0  0  0  0  0  0  0  0  0  0  0  0
   31.0795   58.4260   54.0033 H   0  0  0  0  0  0  0  0  0  0  0  0
   24.8071   55.6376   46.2776 H   0  0  0  0  0  0  0  0  0  0  0  0
   27.0929   53.3524   48.9574 H   0  0  0  0  0  0  0  0  0  0  0  0
   27.8350   61.5020   55.8781 H   0  0  0  0  0  0  0  0  0  0  0  0
   28.2612   55.0727   49.1364 H   0  0  0  0  0  0  0  0  0  0  0  0
   24.8000   57.1242   47.9466 H   0  0  0  0  0  0  0  0  0  0  0  0
   26.6017   61.3522   53.7778 H   0  0  0  0  0  0  0  0  0  0  0  0
   27.7669   62.1094   52.9203 H   0  0  0  0  0  0  0  0  0  0  0  0
   26.5509   60.8332   51.3944 H   0  0  0  0  0  0  0  0  0  0  0  0
  1  2  2  0  0  0  0
  1  3  2  0  0  0  0
  1  6  1  0  0  0  0
  1 22  1  0  0  0  0
  4 23  1  0  0  0  0
  5 23  2  0  0  0  0
  6 12  1  0  0  0  0
  6 24  1  0  0  0  0
  7  8  2  0  0  0  0
  7  9  1  0  0  0  0
  8 16  1  0  0  0  0
  9 17  2  0  0  0  0
 10 11  2  0  0  0  0
 10 15  1  0  0  0  0
 11 18  1  0  0  0  0
 12 25  1  0  0  0  0
 13 19  1  0  0  0  0
 13 22  2  0  0  0  0
 14 20  2  0  0  0  0
 14 22  1  0  0  0  0
 15 25  2  0  0  0  0
 16 26  2  0  0  0  0
 17 26  1  0  0  0  0
 18 28  2  0  0  0  0
 19 27  2  0  0  0  0
 20 27  1  0  0  0  0
 21 24  1  0  0  0  0
 21 28  1  0  0  0  0
 23 24  1  0  0  0  0
 25 28  1  0  0  0  0
 26 27  1  0  0  0  0
  4 29  1  0  0  0  0
  7 30  1  0  0  0  0
  8 31  1  0  0  0  0
  9 32  1  0  0  0  0
 10 33  1  0  0  0  0
 11 34  1  0  0  0  0
 12 35  1  0  0  0  0
 12 36  1  0  0  0  0
 13 37  1  0  0  0  0
 14 38  1  0  0  0  0
 15 39  1  0  0  0  0
 16 40  1  0  0  0  0
 17 41  1  0  0  0  0
 18 42  1  0  0  0  0
 19 43  1  0  0  0  0
 20 44  1  0  0  0  0
 21 45  1  0  0  0  0
 21 46  1  0  0  0  0
 24 47  1  0  0  0  0
M  END
> <pdb_id>
1BZS

> <uniprot_id>
P22894

> <usmiles>
S(=O)(=O)(N1[C@@H](C(=O)O)Cc2c(cccc2)C1)c3ccc(c4ccccc4)cc3

$$$$
BSM_A_1
          07192420423D 1   1.00000     0.00000     0
            
 45 47  0  0  0  0            999 V2000
   69.4057   32.4193   26.9170 Cl  0  0  0  0  0  0  0  0  0  0  0  0
   68.2392   38.6094   21.4696 O   0  0  0  0  0  0  0  0  0  0  0  0
   66.6848   32.0689   27.9569 O   0  0  0  0  0  0  0  0  0  0  0  0
   64.3182   34.2365   24.4537 O   0  0  0  0  0  0  0  0  0  0  0  0
   71.1907   38.7561   26.4809 O   0  0  0  0  0  0  0  0  0  0  0  0
   66.4276   35.5837   21.2501 N   0  0  0  0  0  0  0  0  0  0  0  0
   66.1412   34.6177   22.1493 N   0  0  0  0  0  0  0  0  0  0  0  0
   67.6115   37.4129   19.6067 N   0  0  0  0  0  0  0  0  0  0  0  0
   70.6698   39.3068   27.6879 C   0  0  0  0  0  0  0  0  0  0  0  0
   69.0972   38.2519   17.8484 C   0  0  0  0  0  0  0  0  0  0  0  0
   67.8796   38.5081   18.6948 C   0  0  0  0  0  0  0  0  0  0  0  0
   70.6312   37.6538   24.4825 C   0  0  0  0  0  0  0  0  0  0  0  0
   68.8765   38.0983   26.0280 C   0  0  0  0  0  0  0  0  0  0  0  0
   69.7311   37.0648   23.6245 C   0  0  0  0  0  0  0  0  0  0  0  0
   67.9832   37.4683   25.1632 C   0  0  0  0  0  0  0  0  0  0  0  0
   65.5061   33.1610   26.2098 C   0  0  0  0  0  0  0  0  0  0  0  0
   67.9330   33.7403   25.0033 C   0  0  0  0  0  0  0  0  0  0  0  0
   67.7212   37.6330   20.9648 C   0  0  0  0  0  0  0  0  0  0  0  0
   67.9212   33.0015   26.1660 C   0  0  0  0  0  0  0  0  0  0  0  0
   66.7073   32.7501   26.7568 C   0  0  0  0  0  0  0  0  0  0  0  0
   65.5287   33.8515   25.0206 C   0  0  0  0  0  0  0  0  0  0  0  0
   70.2119   38.1640   25.6897 C   0  0  0  0  0  0  0  0  0  0  0  0
   67.2601   36.5409   21.7454 C   0  0  0  0  0  0  0  0  0  0  0  0
   66.7978   34.9850   23.2555 C   0  0  0  0  0  0  0  0  0  0  0  0
   68.3937   36.9518   23.9558 C   0  0  0  0  0  0  0  0  0  0  0  0
   66.7428   34.1721   24.4372 C   0  0  0  0  0  0  0  0  0  0  0  0
   67.5139   36.2045   23.0592 C   0  0  0  0  0  0  0  0  0  0  0  0
   67.5404   31.7611   28.3732 H   0  0  0  0  0  0  0  0  0  0  0  0
   64.3084   34.7395   23.5894 H   0  0  0  0  0  0  0  0  0  0  0  0
   66.0660   35.5950   20.3178 H   0  0  0  0  0  0  0  0  0  0  0  0
   67.3512   36.5128   19.2572 H   0  0  0  0  0  0  0  0  0  0  0  0
   71.4136   39.7174   28.2152 H   0  0  0  0  0  0  0  0  0  0  0  0
   69.9903   40.0070   27.4689 H   0  0  0  0  0  0  0  0  0  0  0  0
   70.2399   38.5821   28.2266 H   0  0  0  0  0  0  0  0  0  0  0  0
   69.2466   39.0281   17.2358 H   0  0  0  0  0  0  0  0  0  0  0  0
   69.8954   38.1353   18.4394 H   0  0  0  0  0  0  0  0  0  0  0  0
   68.9587   37.4223   17.3076 H   0  0  0  0  0  0  0  0  0  0  0  0
   68.0257   39.3424   19.2264 H   0  0  0  0  0  0  0  0  0  0  0  0
   67.0890   38.6294   18.0946 H   0  0  0  0  0  0  0  0  0  0  0  0
   71.5963   37.7115   24.2271 H   0  0  0  0  0  0  0  0  0  0  0  0
   68.5523   38.4987   26.8851 H   0  0  0  0  0  0  0  0  0  0  0  0
   70.0503   36.7119   22.7450 H   0  0  0  0  0  0  0  0  0  0  0  0
   67.0216   37.3899   25.4264 H   0  0  0  0  0  0  0  0  0  0  0  0
   64.6402   32.9607   26.6683 H   0  0  0  0  0  0  0  0  0  0  0  0
   68.8034   33.9661   24.5656 H   0  0  0  0  0  0  0  0  0  0  0  0
  1 19  1  0  0  0  0
  2 18  2  0  0  0  0
  3 20  1  0  0  0  0
  4 21  1  0  0  0  0
  5  9  1  0  0  0  0
  5 22  1  0  0  0  0
  6  7  1  0  0  0  0
  6 23  1  0  0  0  0
  7 24  2  0  0  0  0
  8 11  1  0  0  0  0
  8 18  1  0  0  0  0
 10 11  1  0  0  0  0
 12 14  2  0  0  0  0
 12 22  1  0  0  0  0
 13 15  1  0  0  0  0
 13 22  2  0  0  0  0
 14 25  1  0  0  0  0
 15 25  2  0  0  0  0
 16 20  2  0  0  0  0
 16 21  1  0  0  0  0
 17 19  2  0  0  0  0
 17 26  1  0  0  0  0
 18 23  1  0  0  0  0
 19 20  1  0  0  0  0
 21 26  2  0  0  0  0
 23 27  2  0  0  0  0
 24 26  1  0  0  0  0
 24 27  1  0  0  0  0
 25 27  1  0  0  0  0
  3 28  1  0  0  0  0
  4 29  1  0  0  0  0
  6 30  1  0  0  0  0
  8 31  1  0  0  0  0
  9 32  1  0  0  0  0
  9 33  1  0  0  0  0
  9 34  1  0  0  0  0
 10 35  1  0  0  0  0
 10 36  1  0  0  0  0
 10 37  1  0  0  0  0
 11 38  1  0  0  0  0
 11 39  1  0  0  0  0
 12 40  1  0  0  0  0
 13 41  1  0  0  0  0
 14 42  1  0  0  0  0
 15 43  1  0  0  0  0
 16 44  1  0  0  0  0
 17 45  1  0  0  0  0
M  END
> <pdb_id>
3OWB

> <uniprot_id>
P07900

> <usmiles>
Clc1c(O)cc(O)c(c1)C2=NNC(C(=O)NCC)=C2c3ccc(OC)cc3

$$$$
BSV_A_802
          07202413413D 1   1.00000     0.00000     0
            
 34 35  0  0  0  0            999 V2000
   37.9058   81.1860   65.3295 O   0  0  0  0  0  0  0  0  0  0  0  0
   39.1612   81.3840   63.5040 O   0  0  0  0  0  0  0  0  0  0  0  0
   37.0264   82.1430   62.0327 O   0  0  0  0  0  0  0  0  0  0  0  0
   35.5751   80.0854   61.0234 O   0  0  0  0  0  0  0  0  0  0  0  0
   35.6777   77.3198   64.0525 C   0  0  0  0  0  0  0  0  0  0  0  0
   33.5251   76.4856   63.1919 C   0  0  0  0  0  0  0  0  0  0  0  0
   32.3866   76.5647   62.4001 C   0  0  0  0  0  0  0  0  0  0  0  0
   29.5429   77.2191   61.1271 C   0  0  0  0  0  0  0  0  0  0  0  0
   30.2787   76.5414   60.0117 C   0  0  0  0  0  0  0  0  0  0  0  0
   35.8382   80.4927   63.3318 C   0  0  0  0  0  0  0  0  0  0  0  0
   33.1189   78.6794   61.5426 C   0  0  0  0  0  0  0  0  0  0  0  0
   38.0344   81.4014   63.9943 C   0  0  0  0  0  0  0  0  0  0  0  0
   36.7826   81.4484   63.1965 C   0  0  1  0  0  0  0  0  0  0  0  0
   35.2575   79.7545   62.1938 C   0  0  0  0  0  0  0  0  0  0  0  0
   34.4850   77.5023   63.1956 C   0  0  0  0  0  0  0  0  0  0  0  0
   30.9242   77.7136   60.7282 C   0  0  0  0  0  0  0  0  0  0  0  0
   32.1529   77.6548   61.5560 C   0  0  0  0  0  0  0  0  0  0  0  0
   34.2727   78.6292   62.3523 C   0  0  0  0  0  0  0  0  0  0  0  0
   36.9997   81.1951   65.7525 H   0  0  0  0  0  0  0  0  0  0  0  0
   37.7704   82.7941   62.1827 H   0  0  0  0  0  0  0  0  0  0  0  0
   36.2783   78.1142   63.9614 H   0  0  0  0  0  0  0  0  0  0  0  0
   35.3918   77.2257   65.0061 H   0  0  0  0  0  0  0  0  0  0  0  0
   36.1690   76.4963   63.7690 H   0  0  0  0  0  0  0  0  0  0  0  0
   33.6614   75.6831   63.7728 H   0  0  0  0  0  0  0  0  0  0  0  0
   31.7168   75.8229   62.4347 H   0  0  0  0  0  0  0  0  0  0  0  0
   29.4144   76.7472   61.9994 H   0  0  0  0  0  0  0  0  0  0  0  0
   28.7366   77.7758   60.9273 H   0  0  0  0  0  0  0  0  0  0  0  0
   29.9618   76.6463   59.0691 H   0  0  0  0  0  0  0  0  0  0  0  0
   30.6397   75.6178   60.1411 H   0  0  0  0  0  0  0  0  0  0  0  0
   35.0681   80.9330   63.7935 H   0  0  0  0  0  0  0  0  0  0  0  0
   36.2353   79.7995   63.9333 H   0  0  0  0  0  0  0  0  0  0  0  0
   32.9827   79.4663   60.9407 H   0  0  0  0  0  0  0  0  0  0  0  0
   36.3201   82.1769   63.7018 H   0  0  0  0  0  0  0  0  0  0  0  0
   30.8783   78.5532   60.1870 H   0  0  0  0  0  0  0  0  0  0  0  0
  1 12  1  0  0  0  0
  2 12  2  0  0  0  0
  3 13  1  0  0  0  0
  4 14  2  0  0  0  0
  5 15  1  0  0  0  0
  6  7  1  0  0  0  0
  6 15  2  0  0  0  0
  7 17  2  0  0  0  0
  8  9  1  0  0  0  0
  8 16  1  0  0  0  0
  9 16  1  0  0  0  0
 10 13  1  0  0  0  0
 10 14  1  0  0  0  0
 11 17  1  0  0  0  0
 11 18  2  0  0  0  0
 12 13  1  0  0  0  0
 14 18  1  0  0  0  0
 15 18  1  0  0  0  0
 16 17  1  0  0  0  0
  1 19  1  0  0  0  0
  3 20  1  0  0  0  0
  5 21  1  0  0  0  0
  5 22  1  0  0  0  0
  5 23  1  0  0  0  0
  6 24  1  0  0  0  0
  7 25  1  0  0  0  0
  8 26  1  0  0  0  0
  8 27  1  0  0  0  0
  9 28  1  0  0  0  0
  9 29  1  0  0  0  0
 10 30  1  0  0  0  0
 10 31  1  0  0  0  0
 11 32  1  0  0  0  0
 13 33  1  0  0  0  0
 16 34  1  0  0  0  0
M  END
> <pdb_id>
6AS6

> <uniprot_id>
A5U3K4

> <usmiles>
O=C(O)[C@@H](O)CC(=O)c1c(ccc(c1)C2CC2)C

$$$$
BSW_A_201
          07192416543D 1   1.00000     0.00000     0
            
 24 26  0  0  0  0            999 V2000
   14.0021   20.4048    2.5925 F   0  0  0  0  0  0  0  0  0  0  0  0
   11.7603   23.2633    2.3637 N   0  0  0  0  0  0  0  0  0  0  0  0
   18.0226   20.4819    5.1300 N   0  0  0  0  0  0  0  0  0  0  0  0
   18.6706   21.9469    3.2393 N   0  0  0  0  0  0  0  0  0  0  0  0
   12.6119   24.3162    2.5474 C   0  0  0  0  0  0  0  0  0  0  0  0
   16.8080   20.1544    5.7465 C   0  0  0  0  0  0  0  0  0  0  0  0
   18.2216   22.7754    2.2829 C   0  0  0  0  0  0  0  0  0  0  0  0
   12.2021   21.9805    2.3834 C   0  0  0  0  0  0  0  0  0  0  0  0
   13.9963   24.0921    2.7516 C   0  0  0  0  0  0  0  0  0  0  0  0
   15.7617   20.8181    5.0648 C   0  0  0  0  0  0  0  0  0  0  0  0
   16.8464   23.0742    2.1006 C   0  0  0  0  0  0  0  0  0  0  0  0
   17.7845   21.3691    4.0947 C   0  0  0  0  0  0  0  0  0  0  0  0
   13.5644   21.7414    2.5935 C   0  0  0  0  0  0  0  0  0  0  0  0
   16.3894   21.6048    3.9997 C   0  0  0  0  0  0  0  0  0  0  0  0
   14.4941   22.7660    2.7926 C   0  0  0  0  0  0  0  0  0  0  0  0
   15.9124   22.4871    2.9830 C   0  0  0  0  0  0  0  0  0  0  0  0
   18.9201   20.1301    5.3960 H   0  0  0  0  0  0  0  0  0  0  0  0
   12.2560   25.2506    2.5377 H   0  0  0  0  0  0  0  0  0  0  0  0
   16.6990   19.5517    6.5370 H   0  0  0  0  0  0  0  0  0  0  0  0
   18.8873   23.2018    1.6705 H   0  0  0  0  0  0  0  0  0  0  0  0
   11.5660   21.2204    2.2503 H   0  0  0  0  0  0  0  0  0  0  0  0
   14.6190   24.8662    2.8663 H   0  0  0  0  0  0  0  0  0  0  0  0
   14.7845   20.7616    5.2696 H   0  0  0  0  0  0  0  0  0  0  0  0
   16.5464   23.6840    1.3670 H   0  0  0  0  0  0  0  0  0  0  0  0
  1 13  1  0  0  0  0
  2  5  2  0  0  0  0
  2  8  1  0  0  0  0
  3  6  1  0  0  0  0
  3 12  1  0  0  0  0
  4  7  2  0  0  0  0
  4 12  1  0  0  0  0
  5  9  1  0  0  0  0
  6 10  2  0  0  0  0
  7 11  1  0  0  0  0
  8 13  2  0  0  0  0
  9 15  2  0  0  0  0
 10 14  1  0  0  0  0
 11 16  2  0  0  0  0
 12 14  2  0  0  0  0
 13 15  1  0  0  0  0
 14 16  1  0  0  0  0
 15 16  1  0  0  0  0
  3 17  1  0  0  0  0
  5 18  1  0  0  0  0
  6 19  1  0  0  0  0
  7 20  1  0  0  0  0
  8 21  1  0  0  0  0
  9 22  1  0  0  0  0
 10 23  1  0  0  0  0
 11 24  1  0  0  0  0
M  END
> <pdb_id>
6EQ4

> <uniprot_id>
P36639

> <usmiles>
Fc1c(c2c3c(ncc2)NC=C3)ccnc1

$$$$
BTD_B_2
          07192419053D 1   1.00000     0.00000     0
            
 35 37  0  0  0  0            999 V2000
   21.3080   87.0240   42.7950 Br  0  0  0  0  0  0  0  0  0  0  0  0
   21.8910   89.8260   43.2260 S   0  0  0  0  0  0  0  0  0  0  0  0
   17.5440   93.9230   44.1300 O   0  0  0  0  0  0  0  0  0  0  0  0
   22.5190   96.3110   44.6790 O   0  0  0  0  0  0  0  0  0  0  0  0
   23.6450   92.1350   44.1060 O   0  0  0  0  0  0  0  0  0  0  0  0
   17.8620   97.9330   44.9220 O   0  0  0  0  0  0  0  0  0  0  0  0
   19.0020   95.4720   45.7050 O   0  0  0  0  0  0  0  0  0  0  0  0
   23.0060   94.1580   44.4280 N   0  0  0  0  0  0  0  0  0  0  0  0
   20.7950   94.8020   44.5360 N   0  0  0  0  0  0  0  0  0  0  0  0
   16.9490   94.6050   45.2350 C   0  0  0  0  0  0  0  0  0  0  0  0
   20.3740   93.4750   44.3920 C   0  0  0  0  0  0  0  0  0  0  0  0
   19.5920   89.2150   44.1340 C   0  0  0  0  0  0  0  0  0  0  0  0
   19.6780   90.5510   44.4360 C   0  0  0  0  0  0  0  0  0  0  0  0
   18.9560   96.3200   43.6600 C   0  0  0  0  0  0  0  0  0  0  0  0
   20.6860   88.6580   43.4860 C   0  0  0  0  0  0  0  0  0  0  0  0
   22.1290   95.1500   44.5550 C   0  0  0  0  0  0  0  0  0  0  0  0
   20.8530   91.1090   44.0690 C   0  0  0  0  0  0  0  0  0  0  0  0
   22.6740   92.8490   44.2430 C   0  0  0  0  0  0  0  0  0  0  0  0
   19.8710   95.9860   44.7410 C   0  0  1  0  0  0  0  0  0  0  0  0
   17.6780   96.7600   44.2740 C   0  0  1  0  0  0  0  0  0  0  0  0
   17.6410   95.8500   45.3890 C   0  0  2  0  0  0  0  0  0  0  0  0
   21.2490   92.4610   44.2220 C   0  0  0  0  0  0  0  0  0  0  0  0
   17.0839   93.0458   43.9928 H   0  0  0  0  0  0  0  0  0  0  0  0
   16.9989   98.2253   45.3338 H   0  0  0  0  0  0  0  0  0  0  0  0
   23.9780   94.3890   44.4713 H   0  0  0  0  0  0  0  0  0  0  0  0
   17.0420   94.0566   46.0660 H   0  0  0  0  0  0  0  0  0  0  0  0
   15.9801   94.7722   45.0526 H   0  0  0  0  0  0  0  0  0  0  0  0
   19.3952   93.2717   44.4158 H   0  0  0  0  0  0  0  0  0  0  0  0
   18.7853   88.6724   44.3680 H   0  0  0  0  0  0  0  0  0  0  0  0
   18.9436   91.0613   44.8835 H   0  0  0  0  0  0  0  0  0  0  0  0
   18.7995   95.5168   43.0852 H   0  0  0  0  0  0  0  0  0  0  0  0
   19.3393   97.0579   43.1045 H   0  0  0  0  0  0  0  0  0  0  0  0
   20.3637   96.7900   45.0741 H   0  0  0  0  0  0  0  0  0  0  0  0
   16.8815   96.7270   43.6703 H   0  0  0  0  0  0  0  0  0  0  0  0
   17.2554   96.3306   46.1766 H   0  0  0  0  0  0  0  0  0  0  0  0
  1 15  1  0  0  0  0
  2 15  1  0  0  0  0
  2 17  1  0  0  0  0
  3 10  1  0  0  0  0
  4 16  2  0  0  0  0
  5 18  2  0  0  0  0
  6 20  1  0  0  0  0
  7 19  1  0  0  0  0
  7 21  1  0  0  0  0
  8 16  1  0  0  0  0
  8 18  1  0  0  0  0
  9 11  1  0  0  0  0
  9 16  1  0  0  0  0
  9 19  1  0  0  0  0
 10 21  1  0  0  0  0
 11 22  2  0  0  0  0
 12 13  1  0  0  0  0
 12 15  2  0  0  0  0
 13 17  2  0  0  0  0
 14 19  1  0  0  0  0
 14 20  1  0  0  0  0
 17 22  1  0  0  0  0
 18 22  1  0  0  0  0
 20 21  1  0  0  0  0
  3 23  1  0  0  0  0
  6 24  1  0  0  0  0
  8 25  1  0  0  0  0
 10 26  1  0  0  0  0
 10 27  1  0  0  0  0
 11 28  1  0  0  0  0
 12 29  1  0  0  0  0
 13 30  1  0  0  0  0
 14 31  1  0  0  0  0
 14 32  1  0  0  0  0
 19 33  1  0  0  0  0
 20 34  1  0  0  0  0
 21 35  1  0  0  0  0
M  END
> <pdb_id>
1KI4

> <uniprot_id>
P03176

> <usmiles>
BrC=1SC(C=2C(=O)NC(=O)N(C2)[C@@H]3O[C@@H]([C@@H](O)C3)CO)=CC1

$$$$
BTN_A_1001
          07192415303D 1   1.00000     0.00000     0
            
 32 33  0  0  0  0            999 V2000
   15.7853  -27.0574    5.6147 S   0  0  0  0  0  0  0  0  0  0  0  0
   16.8690  -27.0453   -0.9121 O   0  0  0  0  0  0  0  0  0  0  0  0
   18.7218  -25.9398   -0.4918 O   0  0  0  0  0  0  0  0  0  0  0  0
   13.1625  -30.4998    7.1129 O   0  0  0  0  0  0  0  0  0  0  0  0
   13.0057  -28.1632    7.0145 N   0  0  0  0  0  0  0  0  0  0  0  0
   13.4828  -29.2819    5.0932 N   0  0  0  0  0  0  0  0  0  0  0  0
   14.3923  -26.2205    6.3385 C   0  0  0  0  0  0  0  0  0  0  0  0
   17.2832  -28.6870    1.4148 C   0  0  0  0  0  0  0  0  0  0  0  0
   16.5482  -27.7216    2.3388 C   0  0  0  0  0  0  0  0  0  0  0  0
   18.4241  -27.9568    0.6766 C   0  0  0  0  0  0  0  0  0  0  0  0
   15.4419  -28.3628    3.1569 C   0  0  0  0  0  0  0  0  0  0  0  0
   17.9532  -26.9255   -0.2855 C   0  0  0  0  0  0  0  0  0  0  0  0
   13.2246  -29.3589    6.3933 C   0  0  0  0  0  0  0  0  0  0  0  0
   14.7435  -27.3872    4.1865 C   0  0  1  0  0  0  0  0  0  0  0  0
   13.2228  -27.0754    6.0039 C   0  0  1  0  0  0  0  0  0  0  0  0
   13.4255  -27.8693    4.7156 C   0  0  2  0  0  0  0  0  0  0  0  0
   16.2743  -27.8299   -0.7368 H   0  0  0  0  0  0  0  0  0  0  0  0
   12.7470  -28.0352    7.9719 H   0  0  0  0  0  0  0  0  0  0  0  0
   13.6803  -30.0493    4.4833 H   0  0  0  0  0  0  0  0  0  0  0  0
   14.2859  -25.3075    5.9448 H   0  0  0  0  0  0  0  0  0  0  0  0
   14.5021  -26.1454    7.3296 H   0  0  0  0  0  0  0  0  0  0  0  0
   16.6398  -29.0566    0.7444 H   0  0  0  0  0  0  0  0  0  0  0  0
   17.6664  -29.4351    1.9566 H   0  0  0  0  0  0  0  0  0  0  0  0
   16.1449  -26.9977    1.7790 H   0  0  0  0  0  0  0  0  0  0  0  0
   17.2141  -27.3233    2.9696 H   0  0  0  0  0  0  0  0  0  0  0  0
   18.9596  -28.6355    0.1741 H   0  0  0  0  0  0  0  0  0  0  0  0
   19.0054  -27.5109    1.3572 H   0  0  0  0  0  0  0  0  0  0  0  0
   15.8336  -29.1283    3.6674 H   0  0  0  0  0  0  0  0  0  0  0  0
   14.7445  -28.7043    2.5269 H   0  0  0  0  0  0  0  0  0  0  0  0
   14.5836  -26.5173    3.7200 H   0  0  0  0  0  0  0  0  0  0  0  0
   12.4002  -26.5116    5.9296 H   0  0  0  0  0  0  0  0  0  0  0  0
   12.6875  -27.6974    4.0631 H   0  0  0  0  0  0  0  0  0  0  0  0
  1  7  1  0  0  0  0
  1 14  1  0  0  0  0
  2 12  1  0  0  0  0
  3 12  2  0  0  0  0
  4 13  2  0  0  0  0
  5 13  1  0  0  0  0
  5 15  1  0  0  0  0
  6 13  1  0  0  0  0
  6 16  1  0  0  0  0
  7 15  1  0  0  0  0
  8  9  1  0  0  0  0
  8 10  1  0  0  0  0
  9 11  1  0  0  0  0
 10 12  1  0  0  0  0
 11 14  1  0  0  0  0
 14 16  1  0  0  0  0
 15 16  1  0  0  0  0
  2 17  1  0  0  0  0
  5 18  1  0  0  0  0
  6 19  1  0  0  0  0
  7 20  1  0  0  0  0
  7 21  1  0  0  0  0
  8 22  1  0  0  0  0
  8 23  1  0  0  0  0
  9 24  1  0  0  0  0
  9 25  1  0  0  0  0
 10 26  1  0  0  0  0
 10 27  1  0  0  0  0
 11 28  1  0  0  0  0
 11 29  1  0  0  0  0
 14 30  1  0  0  0  0
 15 31  1  0  0  0  0
 16 32  1  0  0  0  0
M  END
> <pdb_id>
3WYP

> <uniprot_id>
P22629

> <usmiles>
S1[C@H]([C@H]2NC(=O)N[C@H]2C1)CCCCC(=O)O

$$$$
BTN_A_300
          07202401443D 1   1.00000     0.00000     0
            
 32 33  0  0  0  0            999 V2000
  -26.6390  -17.9760    8.6980 S   0  0  0  0  0  0  0  0  0  0  0  0
  -23.8120  -20.7430   14.1980 O   0  0  0  0  0  0  0  0  0  0  0  0
  -25.4260  -19.6630   15.1460 O   0  0  0  0  0  0  0  0  0  0  0  0
  -29.2060  -14.1630    8.2800 O   0  0  0  0  0  0  0  0  0  0  0  0
  -29.4290  -16.4380    7.7140 N   0  0  0  0  0  0  0  0  0  0  0  0
  -28.9660  -15.9710    9.8160 N   0  0  0  0  0  0  0  0  0  0  0  0
  -28.0780  -18.5030    7.7250 C   0  0  0  0  0  0  0  0  0  0  0  0
  -25.1660  -17.5860   13.1570 C   0  0  0  0  0  0  0  0  0  0  0  0
  -25.8300  -18.2890   11.9640 C   0  0  0  0  0  0  0  0  0  0  0  0
  -23.9890  -18.4020   13.6940 C   0  0  0  0  0  0  0  0  0  0  0  0
  -26.9730  -17.4360   11.4130 C   0  0  0  0  0  0  0  0  0  0  0  0
  -24.4410  -19.6750   14.3640 C   0  0  0  0  0  0  0  0  0  0  0  0
  -29.1930  -15.4960    8.5970 C   0  0  0  0  0  0  0  0  0  0  0  0
  -27.5900  -18.0400   10.1280 C   0  0  1  0  0  0  0  0  0  0  0  0
  -29.2640  -17.7400    8.3090 C   0  0  1  0  0  0  0  0  0  0  0  0
  -28.9560  -17.4300    9.7770 C   0  0  2  0  0  0  0  0  0  0  0  0
  -23.0265  -20.7697   13.5798 H   0  0  0  0  0  0  0  0  0  0  0  0
  -29.0203  -13.4794    8.9858 H   0  0  0  0  0  0  0  0  0  0  0  0
  -28.8238  -15.4147   10.6347 H   0  0  0  0  0  0  0  0  0  0  0  0
  -28.2183  -19.4891    7.8140 H   0  0  0  0  0  0  0  0  0  0  0  0
  -27.9526  -18.2699    6.7607 H   0  0  0  0  0  0  0  0  0  0  0  0
  -25.8418  -17.4702   13.8849 H   0  0  0  0  0  0  0  0  0  0  0  0
  -24.8346  -16.6891   12.8641 H   0  0  0  0  0  0  0  0  0  0  0  0
  -26.1918  -19.1725   12.2616 H   0  0  0  0  0  0  0  0  0  0  0  0
  -25.1496  -18.4324   11.2454 H   0  0  0  0  0  0  0  0  0  0  0  0
  -23.4888  -17.8475   14.3591 H   0  0  0  0  0  0  0  0  0  0  0  0
  -23.3842  -18.6354   12.9326 H   0  0  0  0  0  0  0  0  0  0  0  0
  -26.6211  -16.5239   11.2028 H   0  0  0  0  0  0  0  0  0  0  0  0
  -27.6866  -17.3655   12.1100 H   0  0  0  0  0  0  0  0  0  0  0  0
  -27.7518  -19.0083   10.3185 H   0  0  0  0  0  0  0  0  0  0  0  0
  -30.1046  -18.2757    8.2285 H   0  0  0  0  0  0  0  0  0  0  0  0
  -29.6693  -17.8017   10.3712 H   0  0  0  0  0  0  0  0  0  0  0  0
  1  7  1  0  0  0  0
  1 14  1  0  0  0  0
  2 12  1  0  0  0  0
  3 12  2  0  0  0  0
  4 13  1  0  0  0  0
  5 13  2  0  0  0  0
  5 15  1  0  0  0  0
  6 13  1  0  0  0  0
  6 16  1  0  0  0  0
  7 15  1  0  0  0  0
  8  9  1  0  0  0  0
  8 10  1  0  0  0  0
  9 11  1  0  0  0  0
 10 12  1  0  0  0  0
 11 14  1  0  0  0  0
 14 16  1  0  0  0  0
 15 16  1  0  0  0  0
  2 17  1  0  0  0  0
  4 18  1  0  0  0  0
  6 19  1  0  0  0  0
  7 20  1  0  0  0  0
  7 21  1  0  0  0  0
  8 22  1  0  0  0  0
  8 23  1  0  0  0  0
  9 24  1  0  0  0  0
  9 25  1  0  0  0  0
 10 26  1  0  0  0  0
 10 27  1  0  0  0  0
 11 28  1  0  0  0  0
 11 29  1  0  0  0  0
 14 30  1  0  0  0  0
 15 31  1  0  0  0  0
 16 32  1  0  0  0  0
M  END
> <pdb_id>
3RDO

> <uniprot_id>
P22629

> <usmiles>
S1[C@H]([C@H]2NC(O)=N[C@H]2C1)CCCCC(=O)O

$$$$
BTN_A_900
          07202415303D 1   1.00000     0.00000     0
            
 32 33  0  0  0  0            999 V2000
   10.6575  -13.7480   17.5213 S   0  0  0  0  0  0  0  0  0  0  0  0
   14.8739  -18.8284   17.7125 O   0  0  0  0  0  0  0  0  0  0  0  0
   15.0203  -18.8777   15.5243 O   0  0  0  0  0  0  0  0  0  0  0  0
   10.4971  -11.6261   21.6635 O   0  0  0  0  0  0  0  0  0  0  0  0
    9.0850  -12.9865   20.3480 N   0  0  0  0  0  0  0  0  0  0  0  0
   11.1534  -13.6862   20.6875 N   0  0  0  0  0  0  0  0  0  0  0  0
    8.9760  -14.0489   18.1364 C   0  0  0  0  0  0  0  0  0  0  0  0
   14.9089  -15.9110   17.6714 C   0  0  0  0  0  0  0  0  0  0  0  0
   13.3797  -15.8670   17.5560 C   0  0  0  0  0  0  0  0  0  0  0  0
   15.5010  -16.7704   16.5446 C   0  0  0  0  0  0  0  0  0  0  0  0
   12.7531  -15.0066   18.6770 C   0  0  0  0  0  0  0  0  0  0  0  0
   15.1043  -18.2306   16.6074 C   0  0  0  0  0  0  0  0  0  0  0  0
   10.2667  -12.7460   20.9200 C   0  0  0  0  0  0  0  0  0  0  0  0
   11.2195  -14.9734   18.5440 C   0  0  1  0  0  0  0  0  0  0  0  0
    9.1157  -14.2523   19.6454 C   0  0  1  0  0  0  0  0  0  0  0  0
   10.5214  -14.7376   19.8871 C   0  0  2  0  0  0  0  0  0  0  0  0
   14.9374  -18.3266   18.5751 H   0  0  0  0  0  0  0  0  0  0  0  0
    8.2919  -12.3794   20.3976 H   0  0  0  0  0  0  0  0  0  0  0  0
   12.1020  -13.6846   21.0040 H   0  0  0  0  0  0  0  0  0  0  0  0
    8.5898  -14.8663   17.7089 H   0  0  0  0  0  0  0  0  0  0  0  0
    8.3887  -13.2628   17.9437 H   0  0  0  0  0  0  0  0  0  0  0  0
   15.1623  -16.3047   18.5550 H   0  0  0  0  0  0  0  0  0  0  0  0
   15.2722  -14.9818   17.6039 H   0  0  0  0  0  0  0  0  0  0  0  0
   13.0217  -16.7983   17.6221 H   0  0  0  0  0  0  0  0  0  0  0  0
   13.1317  -15.4767   16.6693 H   0  0  0  0  0  0  0  0  0  0  0  0
   16.4980  -16.7132   16.5968 H   0  0  0  0  0  0  0  0  0  0  0  0
   15.1912  -16.3981   15.6697 H   0  0  0  0  0  0  0  0  0  0  0  0
   13.1085  -14.0741   18.6129 H   0  0  0  0  0  0  0  0  0  0  0  0
   12.9972  -15.3960   19.5652 H   0  0  0  0  0  0  0  0  0  0  0  0
   10.9148  -15.8535   18.1797 H   0  0  0  0  0  0  0  0  0  0  0  0
    8.4341  -14.8923   20.0001 H   0  0  0  0  0  0  0  0  0  0  0  0
   10.4983  -15.5903   20.4091 H   0  0  0  0  0  0  0  0  0  0  0  0
  1  7  1  0  0  0  0
  1 14  1  0  0  0  0
  2 12  1  0  0  0  0
  3 12  2  0  0  0  0
  4 13  2  0  0  0  0
  5 13  1  0  0  0  0
  5 15  1  0  0  0  0
  6 13  1  0  0  0  0
  6 16  1  0  0  0  0
  7 15  1  0  0  0  0
  8  9  1  0  0  0  0
  8 10  1  0  0  0  0
  9 11  1  0  0  0  0
 10 12  1  0  0  0  0
 11 14  1  0  0  0  0
 14 16  1  0  0  0  0
 15 16  1  0  0  0  0
  2 17  1  0  0  0  0
  5 18  1  0  0  0  0
  6 19  1  0  0  0  0
  7 20  1  0  0  0  0
  7 21  1  0  0  0  0
  8 22  1  0  0  0  0
  8 23  1  0  0  0  0
  9 24  1  0  0  0  0
  9 25  1  0  0  0  0
 10 26  1  0  0  0  0
 10 27  1  0  0  0  0
 11 28  1  0  0  0  0
 11 29  1  0  0  0  0
 14 30  1  0  0  0  0
 15 31  1  0  0  0  0
 16 32  1  0  0  0  0
M  END
> <pdb_id>
4GGZ

> <uniprot_id>
Q89U61

> <usmiles>
S1[C@H]([C@H]2NC(=O)N[C@H]2C1)CCCCC(=O)O

$$$$
BTN_B_300
          07192421253D 1   1.00000     0.00000     0
            
 32 33  0  0  0  0            999 V2000
   32.2448   12.0134   -4.5342 S   0  0  0  0  0  0  0  0  0  0  0  0
   30.1981   14.0227  -10.5927 O   0  0  0  0  0  0  0  0  0  0  0  0
   28.2986   14.1605   -9.5323 O   0  0  0  0  0  0  0  0  0  0  0  0
   36.7894   12.5576   -4.0240 O   0  0  0  0  0  0  0  0  0  0  0  0
   35.3375   10.8009   -4.0886 N   0  0  0  0  0  0  0  0  0  0  0  0
   35.3846   12.1905   -5.8018 N   0  0  0  0  0  0  0  0  0  0  0  0
   32.9857   10.3931   -4.2045 C   0  0  0  0  0  0  0  0  0  0  0  0
   31.5492   14.9181   -8.2705 C   0  0  0  0  0  0  0  0  0  0  0  0
   31.5172   13.6189   -7.4788 C   0  0  0  0  0  0  0  0  0  0  0  0
   30.1245   15.3506   -8.6313 C   0  0  0  0  0  0  0  0  0  0  0  0
   32.9498   13.3011   -6.9936 C   0  0  0  0  0  0  0  0  0  0  0  0
   29.4865   14.4267   -9.6767 C   0  0  0  0  0  0  0  0  0  0  0  0
   35.9035   11.9042   -4.6039 C   0  0  0  0  0  0  0  0  0  0  0  0
   32.9257   11.9510   -6.1826 C   0  0  1  0  0  0  0  0  0  0  0  0
   34.3307   10.2417   -4.9541 C   0  0  1  0  0  0  0  0  0  0  0  0
   34.3454   11.2392   -6.1791 C   0  0  2  0  0  0  0  0  0  0  0  0
   35.5492   10.3913   -3.2304 H   0  0  0  0  0  0  0  0  0  0  0  0
   35.6514   12.9482   -6.3774 H   0  0  0  0  0  0  0  0  0  0  0  0
   32.2909    9.6334   -4.5303 H   0  0  0  0  0  0  0  0  0  0  0  0
   33.1295   10.2897   -3.1367 H   0  0  0  0  0  0  0  0  0  0  0  0
   32.1343   14.7821   -9.1681 H   0  0  0  0  0  0  0  0  0  0  0  0
   32.0158   15.6911   -7.6765 H   0  0  0  0  0  0  0  0  0  0  0  0
   30.8465   13.7104   -6.6355 H   0  0  0  0  0  0  0  0  0  0  0  0
   31.1710   12.8286   -8.1237 H   0  0  0  0  0  0  0  0  0  0  0  0
   30.1416   16.3583   -9.0223 H   0  0  0  0  0  0  0  0  0  0  0  0
   29.5166   15.3365   -7.7419 H   0  0  0  0  0  0  0  0  0  0  0  0
   33.6085   13.2115   -7.8470 H   0  0  0  0  0  0  0  0  0  0  0  0
   33.3091   14.1023   -6.3597 H   0  0  0  0  0  0  0  0  0  0  0  0
   32.2826   11.2830   -6.7345 H   0  0  0  0  0  0  0  0  0  0  0  0
   34.5878    9.2322   -5.2280 H   0  0  0  0  0  0  0  0  0  0  0  0
   34.5881   10.7438   -7.1093 H   0  0  0  0  0  0  0  0  0  0  0  0
   31.1608   14.2903  -10.6333 H   0  0  0  0  0  0  0  0  0  0  0  0
  1  7  1  0  0  0  0
  1 14  1  0  0  0  0
  2 12  1  0  0  0  0
  3 12  2  0  0  0  0
  4 13  2  0  0  0  0
  5 13  1  0  0  0  0
  5 15  1  0  0  0  0
  5 17  1  0  0  0  0
  6 13  1  0  0  0  0
  6 16  1  0  0  0  0
  6 18  1  0  0  0  0
  7 15  1  0  0  0  0
  7 19  1  0  0  0  0
  7 20  1  0  0  0  0
  8  9  1  0  0  0  0
  8 10  1  0  0  0  0
  8 21  1  0  0  0  0
  8 22  1  0  0  0  0
  9 11  1  0  0  0  0
  9 23  1  0  0  0  0
  9 24  1  0  0  0  0
 10 12  1  0  0  0  0
 10 25  1  0  0  0  0
 10 26  1  0  0  0  0
 11 14  1  0  0  0  0
 11 27  1  0  0  0  0
 11 28  1  0  0  0  0
 14 16  1  0  0  0  0
 14 29  1  0  0  0  0
 15 16  1  0  0  0  0
 15 30  1  0  0  0  0
 16 31  1  0  0  0  0
  2 32  1  0  0  0  0
M  END
> <pdb_id>
2RTE

> <uniprot_id>
P22629

> <usmiles>
S1[C@H]([C@H]2NC(=O)N[C@H]2C1)CCCCC(=O)O

$$$$
BTN_B_500
          07202412443D 1   1.00000     0.00000     0
            
 32 33  0  0  0  0            999 V2000
   16.3859   28.6719   20.2788 S   0  0  0  0  0  0  0  0  0  0  0  0
   20.7914   26.5648   24.1821 O   0  0  0  0  0  0  0  0  0  0  0  0
   21.9595   28.3631   23.9788 O   0  0  0  0  0  0  0  0  0  0  0  0
   12.1193   26.7345   21.7128 O   0  0  0  0  0  0  0  0  0  0  0  0
   13.5010   26.8111   19.7216 N   0  0  0  0  0  0  0  0  0  0  0  0
   14.4907   26.2459   21.5786 N   0  0  0  0  0  0  0  0  0  0  0  0
   15.4859   27.9349   18.8920 C   0  0  0  0  0  0  0  0  0  0  0  0
   18.3930   27.8316   24.3469 C   0  0  0  0  0  0  0  0  0  0  0  0
   18.2675   27.4731   22.8709 C   0  0  0  0  0  0  0  0  0  0  0  0
   19.6602   28.6374   24.6073 C   0  0  0  0  0  0  0  0  0  0  0  0
   16.8057   27.3154   22.4693 C   0  0  0  0  0  0  0  0  0  0  0  0
   20.8685   27.8111   24.2359 C   0  0  0  0  0  0  0  0  0  0  0  0
   13.3411   26.6001   21.0213 C   0  0  0  0  0  0  0  0  0  0  0  0
   16.6669   27.1720   20.9584 C   0  0  1  0  0  0  0  0  0  0  0  0
   14.8764   26.6074   19.3084 C   0  0  1  0  0  0  0  0  0  0  0  0
   15.5617   26.1816   20.6020 C   0  0  2  0  0  0  0  0  0  0  0  0
   19.9251   26.1082   24.3851 H   0  0  0  0  0  0  0  0  0  0  0  0
   12.7629   27.0781   19.1019 H   0  0  0  0  0  0  0  0  0  0  0  0
   14.6055   26.0476   22.5520 H   0  0  0  0  0  0  0  0  0  0  0  0
   16.1171   27.7844   18.1312 H   0  0  0  0  0  0  0  0  0  0  0  0
   14.7578   28.5565   18.6030 H   0  0  0  0  0  0  0  0  0  0  0  0
   18.4239   26.9901   24.8863 H   0  0  0  0  0  0  0  0  0  0  0  0
   17.5986   28.3739   24.6205 H   0  0  0  0  0  0  0  0  0  0  0  0
   18.7479   26.6126   22.7014 H   0  0  0  0  0  0  0  0  0  0  0  0
   18.6810   28.1994   22.3218 H   0  0  0  0  0  0  0  0  0  0  0  0
   19.7076   28.8801   25.5762 H   0  0  0  0  0  0  0  0  0  0  0  0
   19.6443   29.4711   24.0553 H   0  0  0  0  0  0  0  0  0  0  0  0
   16.2953   28.1212   22.7697 H   0  0  0  0  0  0  0  0  0  0  0  0
   16.4314   26.5000   22.9110 H   0  0  0  0  0  0  0  0  0  0  0  0
   17.5305   26.8211   20.5965 H   0  0  0  0  0  0  0  0  0  0  0  0
   14.9568   25.9138   18.5925 H   0  0  0  0  0  0  0  0  0  0  0  0
   15.9234   25.2523   20.5272 H   0  0  0  0  0  0  0  0  0  0  0  0
  1  7  1  0  0  0  0
  1 14  1  0  0  0  0
  2 12  1  0  0  0  0
  3 12  2  0  0  0  0
  4 13  2  0  0  0  0
  5 13  1  0  0  0  0
  5 15  1  0  0  0  0
  6 13  1  0  0  0  0
  6 16  1  0  0  0  0
  7 15  1  0  0  0  0
  8  9  1  0  0  0  0
  8 10  1  0  0  0  0
  9 11  1  0  0  0  0
 10 12  1  0  0  0  0
 11 14  1  0  0  0  0
 14 16  1  0  0  0  0
 15 16  1  0  0  0  0
  2 17  1  0  0  0  0
  5 18  1  0  0  0  0
  6 19  1  0  0  0  0
  7 20  1  0  0  0  0
  7 21  1  0  0  0  0
  8 22  1  0  0  0  0
  8 23  1  0  0  0  0
  9 24  1  0  0  0  0
  9 25  1  0  0  0  0
 10 26  1  0  0  0  0
 10 27  1  0  0  0  0
 11 28  1  0  0  0  0
 11 29  1  0  0  0  0
 14 30  1  0  0  0  0
 15 31  1  0  0  0  0
 16 32  1  0  0  0  0
M  END
> <pdb_id>
3EW2

> <uniprot_id>
Q8KKW2

> <usmiles>
S1[C@H]([C@H]2NC(=O)N[C@H]2C1)CCCCC(=O)O

$$$$
BTN_C_201
          07202408093D 1   1.00000     0.00000     0
            
 32 33  0  0  0  0            999 V2000
  -16.6887   11.6343  -47.9334 S   0  0  0  0  0  0  0  0  0  0  0  0
  -11.4543    7.9579  -49.9693 O   0  0  0  0  0  0  0  0  0  0  0  0
  -13.0755    7.5199  -51.3449 O   0  0  0  0  0  0  0  0  0  0  0  0
  -21.3949   11.0450  -48.7669 O   0  0  0  0  0  0  0  0  0  0  0  0
  -19.6003   12.6888  -48.8851 N   0  0  0  0  0  0  0  0  0  0  0  0
  -19.3007   10.8001  -49.7950 N   0  0  0  0  0  0  0  0  0  0  0  0
  -17.3185   13.2861  -48.5594 C   0  0  0  0  0  0  0  0  0  0  0  0
  -15.0669    7.4369  -49.3949 C   0  0  0  0  0  0  0  0  0  0  0  0
  -15.2907    8.9212  -49.3749 C   0  0  0  0  0  0  0  0  0  0  0  0
  -13.5965    6.9512  -49.1873 C   0  0  0  0  0  0  0  0  0  0  0  0
  -16.7447    9.4053  -49.4147 C   0  0  0  0  0  0  0  0  0  0  0  0
  -12.6249    7.5085  -50.2116 C   0  0  0  0  0  0  0  0  0  0  0  0
  -20.1930   11.4674  -49.0938 C   0  0  0  0  0  0  0  0  0  0  0  0
  -16.8138   10.9089  -49.5390 C   0  0  1  0  0  0  0  0  0  0  0  0
  -18.3478   12.9217  -49.5781 C   0  0  1  0  0  0  0  0  0  0  0  0
  -18.0625   11.5206  -50.0988 C   0  0  2  0  0  0  0  0  0  0  0  0
  -11.0964    7.9430  -49.0356 H   0  0  0  0  0  0  0  0  0  0  0  0
  -20.0097   13.3791  -48.2885 H   0  0  0  0  0  0  0  0  0  0  0  0
  -19.4583    9.8610  -50.1006 H   0  0  0  0  0  0  0  0  0  0  0  0
  -16.5780   13.8134  -48.9760 H   0  0  0  0  0  0  0  0  0  0  0  0
  -17.7270   13.8151  -47.8156 H   0  0  0  0  0  0  0  0  0  0  0  0
  -15.3777    7.0947  -50.2817 H   0  0  0  0  0  0  0  0  0  0  0  0
  -15.6250    7.0357  -48.6686 H   0  0  0  0  0  0  0  0  0  0  0  0
  -14.8220    9.3079  -50.1692 H   0  0  0  0  0  0  0  0  0  0  0  0
  -14.8767    9.2777  -48.5374 H   0  0  0  0  0  0  0  0  0  0  0  0
  -13.5814    5.9531  -49.2469 H   0  0  0  0  0  0  0  0  0  0  0  0
  -13.2947    7.2355  -48.2773 H   0  0  0  0  0  0  0  0  0  0  0  0
  -17.2052    9.1257  -48.5722 H   0  0  0  0  0  0  0  0  0  0  0  0
  -17.2055    8.9911  -50.1996 H   0  0  0  0  0  0  0  0  0  0  0  0
  -16.0366   11.2174  -50.0875 H   0  0  0  0  0  0  0  0  0  0  0  0
  -18.4282   13.5992  -50.3092 H   0  0  0  0  0  0  0  0  0  0  0  0
  -17.9668   11.5708  -51.0929 H   0  0  0  0  0  0  0  0  0  0  0  0
  1  7  1  0  0  0  0
  1 14  1  0  0  0  0
  2 12  1  0  0  0  0
  3 12  2  0  0  0  0
  4 13  2  0  0  0  0
  5 13  1  0  0  0  0
  5 15  1  0  0  0  0
  6 13  1  0  0  0  0
  6 16  1  0  0  0  0
  7 15  1  0  0  0  0
  8  9  1  0  0  0  0
  8 10  1  0  0  0  0
  9 11  1  0  0  0  0
 10 12  1  0  0  0  0
 11 14  1  0  0  0  0
 14 16  1  0  0  0  0
 15 16  1  0  0  0  0
  2 17  1  0  0  0  0
  5 18  1  0  0  0  0
  6 19  1  0  0  0  0
  7 20  1  0  0  0  0
  7 21  1  0  0  0  0
  8 22  1  0  0  0  0
  8 23  1  0  0  0  0
  9 24  1  0  0  0  0
  9 25  1  0  0  0  0
 10 26  1  0  0  0  0
 10 27  1  0  0  0  0
 11 28  1  0  0  0  0
 11 29  1  0  0  0  0
 14 30  1  0  0  0  0
 15 31  1  0  0  0  0
 16 32  1  0  0  0  0
M  END
> <pdb_id>
7P8Z

> <uniprot_id>
nan

> <usmiles>
S1[C@H]([C@H]2NC(=O)N[C@H]2C1)CCCCC(=O)O

$$$$
BTN_C_900
          07202415303D 1   1.00000     0.00000     0
            
 32 33  0  0  0  0            999 V2000
   10.5850  -13.8040   17.4940 S   0  0  0  0  0  0  0  0  0  0  0  0
   15.1240  -18.9740   15.5030 O   0  0  0  0  0  0  0  0  0  0  0  0
   14.9200  -18.8290   17.6450 O   0  0  0  0  0  0  0  0  0  0  0  0
   10.6350  -11.5580   21.5350 O   0  0  0  0  0  0  0  0  0  0  0  0
    9.0770  -12.9420   20.3450 N   0  0  0  0  0  0  0  0  0  0  0  0
   11.1420  -13.6870   20.6550 N   0  0  0  0  0  0  0  0  0  0  0  0
    8.9130  -14.0250   18.1380 C   0  0  0  0  0  0  0  0  0  0  0  0
   14.8320  -16.0250   17.6150 C   0  0  0  0  0  0  0  0  0  0  0  0
   13.3220  -15.7900   17.4050 C   0  0  0  0  0  0  0  0  0  0  0  0
   15.4430  -16.7930   16.4440 C   0  0  0  0  0  0  0  0  0  0  0  0
   12.6750  -15.1160   18.6200 C   0  0  0  0  0  0  0  0  0  0  0  0
   15.1510  -18.2740   16.5390 C   0  0  0  0  0  0  0  0  0  0  0  0
   10.2920  -12.7050   20.8560 C   0  0  0  0  0  0  0  0  0  0  0  0
   11.1390  -15.0140   18.5260 C   0  0  1  0  0  0  0  0  0  0  0  0
    9.0940  -14.1990   19.6430 C   0  0  1  0  0  0  0  0  0  0  0  0
   10.4950  -14.7430   19.8890 C   0  0  2  0  0  0  0  0  0  0  0  0
   15.3042  -18.5563   14.6125 H   0  0  0  0  0  0  0  0  0  0  0  0
   11.5628  -11.4462   21.8910 H   0  0  0  0  0  0  0  0  0  0  0  0
    8.2832  -12.3408   20.4365 H   0  0  0  0  0  0  0  0  0  0  0  0
    8.4861  -14.8363   17.7385 H   0  0  0  0  0  0  0  0  0  0  0  0
    8.3509  -13.2216   17.9415 H   0  0  0  0  0  0  0  0  0  0  0  0
   14.9660  -16.5511   18.4548 H   0  0  0  0  0  0  0  0  0  0  0  0
   15.2907  -15.1404   17.6990 H   0  0  0  0  0  0  0  0  0  0  0  0
   12.8762  -16.6713   17.2485 H   0  0  0  0  0  0  0  0  0  0  0  0
   13.1940  -15.2049   16.6042 H   0  0  0  0  0  0  0  0  0  0  0  0
   16.4336  -16.6563   16.4474 H   0  0  0  0  0  0  0  0  0  0  0  0
   15.0608  -16.4407   15.5897 H   0  0  0  0  0  0  0  0  0  0  0  0
   13.0484  -14.1922   18.7049 H   0  0  0  0  0  0  0  0  0  0  0  0
   12.9071  -15.6456   19.4359 H   0  0  0  0  0  0  0  0  0  0  0  0
   10.7918  -15.8893   18.1894 H   0  0  0  0  0  0  0  0  0  0  0  0
    8.4032  -14.8202   20.0130 H   0  0  0  0  0  0  0  0  0  0  0  0
   10.4514  -15.5852   20.4263 H   0  0  0  0  0  0  0  0  0  0  0  0
  1  7  1  0  0  0  0
  1 14  1  0  0  0  0
  2 12  1  0  0  0  0
  3 12  2  0  0  0  0
  4 13  1  0  0  0  0
  5 13  1  0  0  0  0
  5 15  1  0  0  0  0
  6 13  2  0  0  0  0
  6 16  1  0  0  0  0
  7 15  1  0  0  0  0
  8  9  1  0  0  0  0
  8 10  1  0  0  0  0
  9 11  1  0  0  0  0
 10 12  1  0  0  0  0
 11 14  1  0  0  0  0
 14 16  1  0  0  0  0
 15 16  1  0  0  0  0
  2 17  1  0  0  0  0
  4 18  1  0  0  0  0
  5 19  1  0  0  0  0
  7 20  1  0  0  0  0
  7 21  1  0  0  0  0
  8 22  1  0  0  0  0
  8 23  1  0  0  0  0
  9 24  1  0  0  0  0
  9 25  1  0  0  0  0
 10 26  1  0  0  0  0
 10 27  1  0  0  0  0
 11 28  1  0  0  0  0
 11 29  1  0  0  0  0
 14 30  1  0  0  0  0
 15 31  1  0  0  0  0
 16 32  1  0  0  0  0
M  END
> <pdb_id>
4GGZ

> <uniprot_id>
Q89U61

> <usmiles>
S1[C@H]([C@H]2N=C(O)N[C@H]2C1)CCCCC(=O)O

$$$$
BTN_D_201
          07202408093D 1   1.00000     0.00000     0
            
 30 31  0  0  0  0            999 V2000
  -16.6200   11.5930  -47.9070 S   0  0  0  0  0  0  0  0  0  0  0  0
  -13.0760    7.6020  -51.2930 O   0  0  0  0  0  0  0  0  0  0  0  0
  -11.3840    7.7380  -50.0300 O   0  0  0  0  0  0  0  0  0  0  0  0
  -21.3270   10.9980  -48.9110 O   0  0  0  0  0  0  0  0  0  0  0  0
  -19.6310   12.6500  -48.8810 N   0  0  0  0  0  0  0  0  0  0  0  0
  -19.2400   10.6060  -49.6620 N   0  0  0  0  0  0  0  0  0  0  0  0
  -17.2170   13.2040  -48.4620 C   0  0  0  0  0  0  0  0  0  0  0  0
  -15.0730    7.4260  -49.2320 C   0  0  0  0  0  0  0  0  0  0  0  0
  -15.3720    8.8080  -49.5780 C   0  0  0  0  0  0  0  0  0  0  0  0
  -13.5890    6.9760  -49.2150 C   0  0  0  0  0  0  0  0  0  0  0  0
  -16.7590    9.3170  -49.4890 C   0  0  0  0  0  0  0  0  0  0  0  0
  -12.6300    7.5390  -50.2150 C   0  0  0  0  0  0  0  0  0  0  0  0
  -20.1510   11.3660  -49.0690 C   0  0  0  0  0  0  0  0  0  0  0  0
  -16.8080   10.8560  -49.5670 C   0  0  1  0  0  0  0  0  0  0  0  0
  -18.3150   12.8570  -49.4790 C   0  0  1  0  0  0  0  0  0  0  0  0
  -18.0650   11.4480  -50.0480 C   0  0  2  0  0  0  0  0  0  0  0  0
  -14.0528    7.4462  -51.4399 H   0  0  0  0  0  0  0  0  0  0  0  0
  -20.1184   13.3652  -48.3801 H   0  0  0  0  0  0  0  0  0  0  0  0
  -19.3252    9.6232  -49.8256 H   0  0  0  0  0  0  0  0  0  0  0  0
  -16.4824   13.7263  -48.8951 H   0  0  0  0  0  0  0  0  0  0  0  0
  -17.5923   13.7277  -47.6972 H   0  0  0  0  0  0  0  0  0  0  0  0
  -15.8061    6.7829  -49.0108 H   0  0  0  0  0  0  0  0  0  0  0  0
  -14.6369    9.4163  -49.8772 H   0  0  0  0  0  0  0  0  0  0  0  0
  -13.5860    5.9836  -49.3378 H   0  0  0  0  0  0  0  0  0  0  0  0
  -13.2286    7.2009  -48.3097 H   0  0  0  0  0  0  0  0  0  0  0  0
  -17.1566    9.0238  -48.6195 H   0  0  0  0  0  0  0  0  0  0  0  0
  -17.2927    8.9371  -50.2446 H   0  0  0  0  0  0  0  0  0  0  0  0
  -16.0586   11.1737  -50.1479 H   0  0  0  0  0  0  0  0  0  0  0  0
  -18.3557   13.5379  -50.2103 H   0  0  0  0  0  0  0  0  0  0  0  0
  -18.0288   11.5080  -51.0455 H   0  0  0  0  0  0  0  0  0  0  0  0
  1  7  1  0  0  0  0
  1 14  1  0  0  0  0
  2 12  1  0  0  0  0
  3 12  2  0  0  0  0
  4 13  2  0  0  0  0
  5 13  1  0  0  0  0
  5 15  1  0  0  0  0
  6 13  1  0  0  0  0
  6 16  1  0  0  0  0
  7 15  1  0  0  0  0
  8  9  2  0  0  0  0
  8 10  1  0  0  0  0
  9 11  1  0  0  0  0
 10 12  1  0  0  0  0
 11 14  1  0  0  0  0
 14 16  1  0  0  0  0
 15 16  1  0  0  0  0
  2 17  1  0  0  0  0
  5 18  1  0  0  0  0
  6 19  1  0  0  0  0
  7 20  1  0  0  0  0
  7 21  1  0  0  0  0
  8 22  1  0  0  0  0
  9 23  1  0  0  0  0
 10 24  1  0  0  0  0
 10 25  1  0  0  0  0
 11 26  1  0  0  0  0
 11 27  1  0  0  0  0
 14 28  1  0  0  0  0
 15 29  1  0  0  0  0
 16 30  1  0  0  0  0
M  END
> <pdb_id>
7P8Z

> <uniprot_id>
nan

> <usmiles>
S1[C@H]([C@H]2NC(=O)N[C@H]2C1)C/C=C/CC(=O)O

$$$$
BTN_G_350
          07202412443D 1   1.00000     0.00000     0
            
 32 33  0  0  0  0            999 V2000
   16.1720   28.6530   20.5130 S   0  0  0  0  0  0  0  0  0  0  0  0
   20.9100   26.4740   24.2700 O   0  0  0  0  0  0  0  0  0  0  0  0
   22.2300   28.2260   24.0300 O   0  0  0  0  0  0  0  0  0  0  0  0
   11.9490   26.4480   21.2160 O   0  0  0  0  0  0  0  0  0  0  0  0
   13.7000   26.8400   19.6250 N   0  0  0  0  0  0  0  0  0  0  0  0
   14.3660   26.1930   21.5620 N   0  0  0  0  0  0  0  0  0  0  0  0
   15.7900   27.7900   18.9700 C   0  0  0  0  0  0  0  0  0  0  0  0
   18.6000   27.8660   24.3430 C   0  0  0  0  0  0  0  0  0  0  0  0
   18.3360   27.6660   22.8560 C   0  0  0  0  0  0  0  0  0  0  0  0
   19.9250   28.5620   24.5980 C   0  0  0  0  0  0  0  0  0  0  0  0
   16.8990   27.2080   22.6230 C   0  0  0  0  0  0  0  0  0  0  0  0
   21.0970   27.7120   24.2760 C   0  0  0  0  0  0  0  0  0  0  0  0
   13.3130   26.5060   20.8310 C   0  0  0  0  0  0  0  0  0  0  0  0
   16.6290   27.1400   21.1280 C   0  0  1  0  0  0  0  0  0  0  0  0
   15.0750   26.5210   19.3750 C   0  0  1  0  0  0  0  0  0  0  0  0
   15.5660   26.1160   20.7530 C   0  0  2  0  0  0  0  0  0  0  0  0
   20.0023   26.1045   24.4688 H   0  0  0  0  0  0  0  0  0  0  0  0
   11.7037   26.1873   22.1497 H   0  0  0  0  0  0  0  0  0  0  0  0
   14.3394   26.0298   22.5482 H   0  0  0  0  0  0  0  0  0  0  0  0
   16.6312   27.5730   18.4747 H   0  0  0  0  0  0  0  0  0  0  0  0
   15.1992   28.3536   18.3927 H   0  0  0  0  0  0  0  0  0  0  0  0
   18.6135   26.9723   24.7914 H   0  0  0  0  0  0  0  0  0  0  0  0
   17.8640   28.4218   24.7295 H   0  0  0  0  0  0  0  0  0  0  0  0
   18.9635   26.9731   22.5010 H   0  0  0  0  0  0  0  0  0  0  0  0
   18.4875   28.5301   22.3761 H   0  0  0  0  0  0  0  0  0  0  0  0
   19.9710   28.8156   25.5642 H   0  0  0  0  0  0  0  0  0  0  0  0
   19.9652   29.3871   24.0345 H   0  0  0  0  0  0  0  0  0  0  0  0
   16.2684   27.8580   23.0471 H   0  0  0  0  0  0  0  0  0  0  0  0
   16.7671   26.3031   23.0277 H   0  0  0  0  0  0  0  0  0  0  0  0
   17.4807   26.8732   20.6770 H   0  0  0  0  0  0  0  0  0  0  0  0
   15.1816   25.7901   18.7009 H   0  0  0  0  0  0  0  0  0  0  0  0
   15.9410   25.1890   20.7469 H   0  0  0  0  0  0  0  0  0  0  0  0
  1  7  1  0  0  0  0
  1 14  1  0  0  0  0
  2 12  1  0  0  0  0
  3 12  2  0  0  0  0
  4 13  1  0  0  0  0
  5 13  2  0  0  0  0
  5 15  1  0  0  0  0
  6 13  1  0  0  0  0
  6 16  1  0  0  0  0
  7 15  1  0  0  0  0
  8  9  1  0  0  0  0
  8 10  1  0  0  0  0
  9 11  1  0  0  0  0
 10 12  1  0  0  0  0
 11 14  1  0  0  0  0
 14 16  1  0  0  0  0
 15 16  1  0  0  0  0
  2 17  1  0  0  0  0
  4 18  1  0  0  0  0
  6 19  1  0  0  0  0
  7 20  1  0  0  0  0
  7 21  1  0  0  0  0
  8 22  1  0  0  0  0
  8 23  1  0  0  0  0
  9 24  1  0  0  0  0
  9 25  1  0  0  0  0
 10 26  1  0  0  0  0
 10 27  1  0  0  0  0
 11 28  1  0  0  0  0
 11 29  1  0  0  0  0
 14 30  1  0  0  0  0
 15 31  1  0  0  0  0
 16 32  1  0  0  0  0
M  END
> <pdb_id>
3EW2

> <uniprot_id>
Q8KKW2

> <usmiles>
S1[C@H]([C@H]2NC(O)=N[C@H]2C1)CCCCC(=O)O

$$$$
BTN_X_801
          07192419213D 1   1.00000     0.00000     0
            
 32 33  0  0  0  0            999 V2000
   62.8041   25.2112   24.2054 S   0  0  0  0  0  0  0  0  0  0  0  0
   68.3332   28.4099   22.6817 O   0  0  0  0  0  0  0  0  0  0  0  0
   69.5405   27.1187   21.1332 O   0  0  0  0  0  0  0  0  0  0  0  0
   58.9736   27.9374   23.8149 O   0  0  0  0  0  0  0  0  0  0  0  0
   60.1183   26.7550   25.5695 N   0  0  0  0  0  0  0  0  0  0  0  0
   61.3067   28.0832   24.1734 N   0  0  0  0  0  0  0  0  0  0  0  0
   62.0262   25.2535   25.8442 C   0  0  0  0  0  0  0  0  0  0  0  0
   65.8617   27.4145   21.5072 C   0  0  0  0  0  0  0  0  0  0  0  0
   65.3778   26.8667   22.8543 C   0  0  0  0  0  0  0  0  0  0  0  0
   67.1697   26.8064   21.0619 C   0  0  0  0  0  0  0  0  0  0  0  0
   64.0140   27.4590   23.2191 C   0  0  0  0  0  0  0  0  0  0  0  0
   68.3773   27.4765   21.6404 C   0  0  0  0  0  0  0  0  0  0  0  0
   60.1098   27.5958   24.4933 C   0  0  0  0  0  0  0  0  0  0  0  0
   63.4092   26.7864   24.4640 C   0  0  1  0  0  0  0  0  0  0  0  0
   61.4933   26.6781   26.0250 C   0  0  1  0  0  0  0  0  0  0  0  0
   62.2981   27.5878   25.1149 C   0  0  2  0  0  0  0  0  0  0  0  0
   67.4535   28.6847   23.0699 H   0  0  0  0  0  0  0  0  0  0  0  0
   59.3302   26.2842   25.9660 H   0  0  0  0  0  0  0  0  0  0  0  0
   61.4947   28.6950   23.4050 H   0  0  0  0  0  0  0  0  0  0  0  0
   62.6989   25.0420   26.5532 H   0  0  0  0  0  0  0  0  0  0  0  0
   61.2758   24.5940   25.8892 H   0  0  0  0  0  0  0  0  0  0  0  0
   65.9813   28.4039   21.5894 H   0  0  0  0  0  0  0  0  0  0  0  0
   65.1669   27.2191   20.8151 H   0  0  0  0  0  0  0  0  0  0  0  0
   66.0405   27.1067   23.5637 H   0  0  0  0  0  0  0  0  0  0  0  0
   65.2986   25.8717   22.7950 H   0  0  0  0  0  0  0  0  0  0  0  0
   67.2225   26.8678   20.0652 H   0  0  0  0  0  0  0  0  0  0  0  0
   67.1803   25.8453   21.3377 H   0  0  0  0  0  0  0  0  0  0  0  0
   63.3900   27.3322   22.4481 H   0  0  0  0  0  0  0  0  0  0  0  0
   64.1244   28.4361   23.4013 H   0  0  0  0  0  0  0  0  0  0  0  0
   64.1440   26.7083   25.1378 H   0  0  0  0  0  0  0  0  0  0  0  0
   61.5699   26.9692   26.9787 H   0  0  0  0  0  0  0  0  0  0  0  0
   62.6834   28.3466   25.6401 H   0  0  0  0  0  0  0  0  0  0  0  0
  1  7  1  0  0  0  0
  1 14  1  0  0  0  0
  2 12  1  0  0  0  0
  3 12  2  0  0  0  0
  4 13  2  0  0  0  0
  5 13  1  0  0  0  0
  5 15  1  0  0  0  0
  6 13  1  0  0  0  0
  6 16  1  0  0  0  0
  7 15  1  0  0  0  0
  8  9  1  0  0  0  0
  8 10  1  0  0  0  0
  9 11  1  0  0  0  0
 10 12  1  0  0  0  0
 11 14  1  0  0  0  0
 14 16  1  0  0  0  0
 15 16  1  0  0  0  0
  2 17  1  0  0  0  0
  5 18  1  0  0  0  0
  6 19  1  0  0  0  0
  7 20  1  0  0  0  0
  7 21  1  0  0  0  0
  8 22  1  0  0  0  0
  8 23  1  0  0  0  0
  9 24  1  0  0  0  0
  9 25  1  0  0  0  0
 10 26  1  0  0  0  0
 10 27  1  0  0  0  0
 11 28  1  0  0  0  0
 11 29  1  0  0  0  0
 14 30  1  0  0  0  0
 15 31  1  0  0  0  0
 16 32  1  0  0  0  0
M  END
> <pdb_id>
1Y52

> <uniprot_id>
P56734

> <usmiles>
S1[C@H]([C@H]2NC(=O)N[C@H]2C1)CCCCC(=O)O

$$$$
BTN_Y_802
          07192419213D 1   1.00000     0.00000     0
            
 32 33  0  0  0  0            999 V2000
   62.7520   25.2220   24.2120 S   0  0  0  0  0  0  0  0  0  0  0  0
   68.2930   28.3670   22.7210 O   0  0  0  0  0  0  0  0  0  0  0  0
   69.5550   26.9710   21.4120 O   0  0  0  0  0  0  0  0  0  0  0  0
   58.9730   27.9570   23.7770 O   0  0  0  0  0  0  0  0  0  0  0  0
   60.1400   26.7470   25.4790 N   0  0  0  0  0  0  0  0  0  0  0  0
   61.2990   28.1000   24.1570 N   0  0  0  0  0  0  0  0  0  0  0  0
   62.0340   25.2830   25.8460 C   0  0  0  0  0  0  0  0  0  0  0  0
   65.8770   27.4470   21.5150 C   0  0  0  0  0  0  0  0  0  0  0  0
   65.4080   26.8520   22.8400 C   0  0  0  0  0  0  0  0  0  0  0  0
   67.1690   26.8170   21.0310 C   0  0  0  0  0  0  0  0  0  0  0  0
   64.0180   27.3780   23.1960 C   0  0  0  0  0  0  0  0  0  0  0  0
   68.3590   27.4020   21.7360 C   0  0  0  0  0  0  0  0  0  0  0  0
   60.1160   27.6210   24.4630 C   0  0  0  0  0  0  0  0  0  0  0  0
   63.4040   26.7940   24.4740 C   0  0  1  0  0  0  0  0  0  0  0  0
   61.4880   26.6870   26.0190 C   0  0  1  0  0  0  0  0  0  0  0  0
   62.2940   27.6060   25.1170 C   0  0  2  0  0  0  0  0  0  0  0  0
   67.4061   28.7304   23.0063 H   0  0  0  0  0  0  0  0  0  0  0  0
   59.0159   28.6164   23.0264 H   0  0  0  0  0  0  0  0  0  0  0  0
   59.3571   26.2213   25.8116 H   0  0  0  0  0  0  0  0  0  0  0  0
   62.7312   25.0950   26.5378 H   0  0  0  0  0  0  0  0  0  0  0  0
   61.2964   24.6125   25.9253 H   0  0  0  0  0  0  0  0  0  0  0  0
   66.0229   28.4288   21.6363 H   0  0  0  0  0  0  0  0  0  0  0  0
   65.1679   27.2980   20.8259 H   0  0  0  0  0  0  0  0  0  0  0  0
   66.0516   27.1062   23.5619 H   0  0  0  0  0  0  0  0  0  0  0  0
   65.3731   25.8558   22.7602 H   0  0  0  0  0  0  0  0  0  0  0  0
   67.2614   26.9772   20.0483 H   0  0  0  0  0  0  0  0  0  0  0  0
   67.1375   25.8331   21.2068 H   0  0  0  0  0  0  0  0  0  0  0  0
   63.4042   27.1688   22.4348 H   0  0  0  0  0  0  0  0  0  0  0  0
   64.0825   28.3695   23.3094 H   0  0  0  0  0  0  0  0  0  0  0  0
   64.1389   26.7056   25.1464 H   0  0  0  0  0  0  0  0  0  0  0  0
   61.5192   26.9827   26.9738 H   0  0  0  0  0  0  0  0  0  0  0  0
   62.6769   28.3645   25.6442 H   0  0  0  0  0  0  0  0  0  0  0  0
  1  7  1  0  0  0  0
  1 14  1  0  0  0  0
  2 12  1  0  0  0  0
  3 12  2  0  0  0  0
  4 13  1  0  0  0  0
  5 13  1  0  0  0  0
  5 15  1  0  0  0  0
  6 13  2  0  0  0  0
  6 16  1  0  0  0  0
  7 15  1  0  0  0  0
  8  9  1  0  0  0  0
  8 10  1  0  0  0  0
  9 11  1  0  0  0  0
 10 12  1  0  0  0  0
 11 14  1  0  0  0  0
 14 16  1  0  0  0  0
 15 16  1  0  0  0  0
  2 17  1  0  0  0  0
  4 18  1  0  0  0  0
  5 19  1  0  0  0  0
  7 20  1  0  0  0  0
  7 21  1  0  0  0  0
  8 22  1  0  0  0  0
  8 23  1  0  0  0  0
  9 24  1  0  0  0  0
  9 25  1  0  0  0  0
 10 26  1  0  0  0  0
 10 27  1  0  0  0  0
 11 28  1  0  0  0  0
 11 29  1  0  0  0  0
 14 30  1  0  0  0  0
 15 31  1  0  0  0  0
 16 32  1  0  0  0  0
M  END
> <pdb_id>
1Y52

> <uniprot_id>
P56734

> <usmiles>
S1[C@H]([C@H]2N=C(O)N[C@H]2C1)CCCCC(=O)O

$$$$
BU5_A_201
          07192416543D 1   1.00000     0.00000     0
            
 27 29  0  0  0  0            999 V2000
   13.8397   24.2627    2.8713 S   0  0  0  0  0  0  0  0  0  0  0  0
   10.0624   22.9429    4.7829 O   0  0  0  0  0  0  0  0  0  0  0  0
   18.6314   21.7944    3.3060 N   0  0  0  0  0  0  0  0  0  0  0  0
   18.1727   20.3414    5.2487 N   0  0  0  0  0  0  0  0  0  0  0  0
   13.6153   22.2326    4.4516 N   0  0  0  0  0  0  0  0  0  0  0  0
   12.3130   23.9468    3.5664 C   0  0  0  0  0  0  0  0  0  0  0  0
   11.2230   22.2586    5.1685 C   0  0  0  0  0  0  0  0  0  0  0  0
   18.0373   22.6712    2.4898 C   0  0  0  0  0  0  0  0  0  0  0  0
   17.0313   20.0824    6.0185 C   0  0  0  0  0  0  0  0  0  0  0  0
   16.6718   23.0653    2.5737 C   0  0  0  0  0  0  0  0  0  0  0  0
   15.9652   20.8289    5.5512 C   0  0  0  0  0  0  0  0  0  0  0  0
   14.4780   22.8808    3.6960 C   0  0  0  0  0  0  0  0  0  0  0  0
   12.3586   22.8458    4.3807 C   0  0  0  0  0  0  0  0  0  0  0  0
   17.8105   21.2838    4.2590 C   0  0  0  0  0  0  0  0  0  0  0  0
   15.8701   22.5165    3.5553 C   0  0  0  0  0  0  0  0  0  0  0  0
   16.4307   21.5937    4.4361 C   0  0  0  0  0  0  0  0  0  0  0  0
    9.2786   22.5804    5.2870 H   0  0  0  0  0  0  0  0  0  0  0  0
   19.5943   21.5377    3.2218 H   0  0  0  0  0  0  0  0  0  0  0  0
   19.0773   19.9344    5.3757 H   0  0  0  0  0  0  0  0  0  0  0  0
   13.8271   21.4211    4.9963 H   0  0  0  0  0  0  0  0  0  0  0  0
   11.4924   24.4939    3.4009 H   0  0  0  0  0  0  0  0  0  0  0  0
   11.1310   21.2839    4.9647 H   0  0  0  0  0  0  0  0  0  0  0  0
   11.3846   22.3806    6.1477 H   0  0  0  0  0  0  0  0  0  0  0  0
   18.5935   23.0806    1.7666 H   0  0  0  0  0  0  0  0  0  0  0  0
   16.9930   19.4504    6.7925 H   0  0  0  0  0  0  0  0  0  0  0  0
   16.2974   23.7320    1.9293 H   0  0  0  0  0  0  0  0  0  0  0  0
   15.0376   20.8332    5.9249 H   0  0  0  0  0  0  0  0  0  0  0  0
  1  6  1  0  0  0  0
  1 12  1  0  0  0  0
  2  7  1  0  0  0  0
  3  8  1  0  0  0  0
  3 14  1  0  0  0  0
  4  9  1  0  0  0  0
  4 14  1  0  0  0  0
  5 12  1  0  0  0  0
  5 13  1  0  0  0  0
  6 13  2  0  0  0  0
  7 13  1  0  0  0  0
  8 10  2  0  0  0  0
  9 11  2  0  0  0  0
 10 15  1  0  0  0  0
 11 16  1  0  0  0  0
 12 15  2  0  0  0  0
 14 16  2  0  0  0  0
 15 16  1  0  0  0  0
  2 17  1  0  0  0  0
  3 18  1  0  0  0  0
  4 19  1  0  0  0  0
  5 20  1  0  0  0  0
  6 21  1  0  0  0  0
  7 22  1  0  0  0  0
  7 23  1  0  0  0  0
  8 24  1  0  0  0  0
  9 25  1  0  0  0  0
 10 26  1  0  0  0  0
 11 27  1  0  0  0  0
M  END
> <pdb_id>
6EQ3

> <uniprot_id>
P36639

> <usmiles>
S1/C(/NC(=C1)CO)=C\2/C3=C(NC=C2)NC=C3

$$$$
BU8_A_201
          07192416543D 1   1.00000     0.00000     0
            
 16 17  0  0  0  0            999 V2000
   17.0444   19.0930    6.3626 N   0  0  0  0  0  0  0  0  0  0  0  0
   18.6283   22.1853    3.0372 N   0  0  0  0  0  0  0  0  0  0  0  0
   18.1551   20.5643    4.8282 N   0  0  0  0  0  0  0  0  0  0  0  0
   15.8907   20.4817    4.6625 N   0  0  0  0  0  0  0  0  0  0  0  0
   17.9789   22.9264    2.1149 C   0  0  0  0  0  0  0  0  0  0  0  0
   16.6035   22.9454    1.9366 C   0  0  0  0  0  0  0  0  0  0  0  0
   15.7857   22.1573    2.7368 C   0  0  0  0  0  0  0  0  0  0  0  0
   17.0308   20.0219    5.3194 C   0  0  0  0  0  0  0  0  0  0  0  0
   17.8345   21.4353    3.8094 C   0  0  0  0  0  0  0  0  0  0  0  0
   16.4013   21.3762    3.7061 C   0  0  0  0  0  0  0  0  0  0  0  0
   16.1853   18.7102    6.7025 H   0  0  0  0  0  0  0  0  0  0  0  0
   17.9131   18.8108    6.7696 H   0  0  0  0  0  0  0  0  0  0  0  0
   19.0809   20.3673    5.1507 H   0  0  0  0  0  0  0  0  0  0  0  0
   18.5309   23.5053    1.5148 H   0  0  0  0  0  0  0  0  0  0  0  0
   16.1998   23.5275    1.2308 H   0  0  0  0  0  0  0  0  0  0  0  0
   14.7927   22.1527    2.6193 H   0  0  0  0  0  0  0  0  0  0  0  0
  1  8  1  0  0  0  0
  2  5  1  0  0  0  0
  2  9  2  0  0  0  0
  3  8  1  0  0  0  0
  3  9  1  0  0  0  0
  4  8  2  0  0  0  0
  4 10  1  0  0  0  0
  5  6  2  0  0  0  0
  6  7  1  0  0  0  0
  7 10  2  0  0  0  0
  9 10  1  0  0  0  0
  1 11  1  0  0  0  0
  1 12  1  0  0  0  0
  3 13  1  0  0  0  0
  5 14  1  0  0  0  0
  6 15  1  0  0  0  0
  7 16  1  0  0  0  0
M  END
> <pdb_id>
6EQ2

> <uniprot_id>
P36639

> <usmiles>
n1c2NC(=Nc2ccc1)N

$$$$
BU8_A_201
          07202410333D 1   1.00000     0.00000     0
            
 16 17  0  0  0  0            999 V2000
   20.6604   12.9533   -9.5574 N   0  0  0  0  0  0  0  0  0  0  0  0
   16.9135   15.0058  -11.7993 N   0  0  0  0  0  0  0  0  0  0  0  0
   19.0078   13.9866  -10.9864 N   0  0  0  0  0  0  0  0  0  0  0  0
   18.3598   13.6118   -8.9393 N   0  0  0  0  0  0  0  0  0  0  0  0
   15.6761   15.3575  -11.4637 C   0  0  0  0  0  0  0  0  0  0  0  0
   15.1905   15.1424  -10.1757 C   0  0  0  0  0  0  0  0  0  0  0  0
   16.0080   14.5511   -9.2156 C   0  0  0  0  0  0  0  0  0  0  0  0
   19.3592   13.4957   -9.8103 C   0  0  0  0  0  0  0  0  0  0  0  0
   17.7300   14.4245  -10.8815 C   0  0  0  0  0  0  0  0  0  0  0  0
   17.3195   14.1832   -9.6006 C   0  0  0  0  0  0  0  0  0  0  0  0
   20.8843   12.5920   -8.6522 H   0  0  0  0  0  0  0  0  0  0  0  0
   21.3451   12.9358  -10.2860 H   0  0  0  0  0  0  0  0  0  0  0  0
   19.5810   14.0273  -11.8048 H   0  0  0  0  0  0  0  0  0  0  0  0
   15.0838   15.7837  -12.1475 H   0  0  0  0  0  0  0  0  0  0  0  0
   14.2566   15.4121   -9.9410 H   0  0  0  0  0  0  0  0  0  0  0  0
   15.6792   14.3917   -8.2848 H   0  0  0  0  0  0  0  0  0  0  0  0
  1  8  1  0  0  0  0
  2  5  1  0  0  0  0
  2  9  2  0  0  0  0
  3  8  1  0  0  0  0
  3  9  1  0  0  0  0
  4  8  2  0  0  0  0
  4 10  1  0  0  0  0
  5  6  2  0  0  0  0
  6  7  1  0  0  0  0
  7 10  2  0  0  0  0
  9 10  1  0  0  0  0
  1 11  1  0  0  0  0
  1 12  1  0  0  0  0
  3 13  1  0  0  0  0
  5 14  1  0  0  0  0
  6 15  1  0  0  0  0
  7 16  1  0  0  0  0
M  END
> <pdb_id>
6GLQ

> <uniprot_id>
P36639

> <usmiles>
n1c2NC(=Nc2ccc1)N

$$$$
BVU_A_409
          07212403373D 1   1.00000     0.00000     0
            
 40 44  0  0  0  0            999 V2000
   31.2306   -7.1795  -24.0030 F   0  0  0  0  0  0  0  0  0  0  0  0
   33.7642   -8.4003  -24.2291 F   0  0  0  0  0  0  0  0  0  0  0  0
   31.0555  -10.5657  -21.1385 F   0  0  0  0  0  0  0  0  0  0  0  0
   34.4395  -17.4046  -25.8981 O   0  0  0  0  0  0  0  0  0  0  0  0
   34.1295  -14.0023  -21.7990 O   0  0  0  0  0  0  0  0  0  0  0  0
   33.0486  -13.3725  -25.9116 N   0  0  0  0  0  0  0  0  0  0  0  0
   33.3861  -14.5596  -26.2580 N   0  0  0  0  0  0  0  0  0  0  0  0
   33.2695  -13.1696  -24.5340 N   0  0  0  0  0  0  0  0  0  0  0  0
   31.5374   -5.4793  -20.8573 C   0  0  0  0  0  0  0  0  0  0  0  0
   32.1055   -6.4974  -20.0983 C   0  0  0  0  0  0  0  0  0  0  0  0
   35.7232  -18.7917  -22.0616 C   0  0  0  0  0  0  0  0  0  0  0  0
   35.6442  -17.9061  -21.0066 C   0  0  0  0  0  0  0  0  0  0  0  0
   31.2439   -5.7234  -22.1826 C   0  0  0  0  0  0  0  0  0  0  0  0
   32.3752   -7.7408  -20.6605 C   0  0  0  0  0  0  0  0  0  0  0  0
   35.3120  -18.3731  -23.3282 C   0  0  0  0  0  0  0  0  0  0  0  0
   35.1510  -16.6218  -21.2332 C   0  0  0  0  0  0  0  0  0  0  0  0
   33.5121  -10.7151  -24.3625 C   0  0  0  0  0  0  0  0  0  0  0  0
   32.1369  -11.8154  -22.7956 C   0  0  0  0  0  0  0  0  0  0  0  0
   31.5174   -6.9907  -22.7610 C   0  0  0  0  0  0  0  0  0  0  0  0
   33.2279   -9.4681  -23.7442 C   0  0  0  0  0  0  0  0  0  0  0  0
   31.8398  -10.5685  -22.1632 C   0  0  0  0  0  0  0  0  0  0  0  0
   34.3763  -16.6461  -24.9711 C   0  0  0  0  0  0  0  0  0  0  0  0
   34.2149  -14.7940  -22.7034 C   0  0  0  0  0  0  0  0  0  0  0  0
   33.8668  -15.2583  -25.1249 C   0  0  0  0  0  0  0  0  0  0  0  0
   32.9744  -11.9147  -23.9075 C   0  0  0  0  0  0  0  0  0  0  0  0
   33.7830  -14.3678  -24.0558 C   0  0  0  0  0  0  0  0  0  0  0  0
   32.0945   -8.0380  -21.9933 C   0  0  0  0  0  0  0  0  0  0  0  0
   34.8165  -17.0836  -23.5809 C   0  0  0  0  0  0  0  0  0  0  0  0
   34.7338  -16.1891  -22.5057 C   0  0  0  0  0  0  0  0  0  0  0  0
   32.3796   -9.3330  -22.6170 C   0  0  0  0  0  0  0  0  0  0  0  0
   31.3194   -4.4981  -20.4164 H   0  0  0  0  0  0  0  0  0  0  0  0
   32.3307   -6.2862  -19.0466 H   0  0  0  0  0  0  0  0  0  0  0  0
   36.1155  -19.8116  -21.8662 H   0  0  0  0  0  0  0  0  0  0  0  0
   35.9683  -18.2417  -19.9996 H   0  0  0  0  0  0  0  0  0  0  0  0
   30.7937   -4.9344  -22.7973 H   0  0  0  0  0  0  0  0  0  0  0  0
   32.8227   -8.4931  -20.0166 H   0  0  0  0  0  0  0  0  0  0  0  0
   35.4165  -19.1458  -24.0997 H   0  0  0  0  0  0  0  0  0  0  0  0
   35.1213  -15.9871  -20.3404 H   0  0  0  0  0  0  0  0  0  0  0  0
   34.1809  -10.6809  -25.2250 H   0  0  0  0  0  0  0  0  0  0  0  0
   31.6713  -12.7049  -22.3660 H   0  0  0  0  0  0  0  0  0  0  0  0
  1 19  1  0  0  0  0
  2 20  1  0  0  0  0
  3 21  1  0  0  0  0
  4 22  2  0  0  0  0
  5 23  2  0  0  0  0
  6  7  2  0  0  0  0
  6  8  1  0  0  0  0
  7 24  1  0  0  0  0
  8 25  1  0  0  0  0
  8 26  1  0  0  0  0
  9 10  2  0  0  0  0
  9 13  1  0  0  0  0
  9 31  1  0  0  0  0
 10 14  1  0  0  0  0
 10 32  1  0  0  0  0
 11 12  2  0  0  0  0
 11 15  1  0  0  0  0
 11 33  1  0  0  0  0
 12 16  1  0  0  0  0
 12 34  1  0  0  0  0
 13 19  2  0  0  0  0
 13 35  1  0  0  0  0
 14 27  2  0  0  0  0
 14 36  1  0  0  0  0
 15 28  2  0  0  0  0
 15 37  1  0  0  0  0
 16 29  2  0  0  0  0
 16 38  1  0  0  0  0
 17 20  2  0  0  0  0
 17 25  1  0  0  0  0
 17 39  1  0  0  0  0
 18 21  1  0  0  0  0
 18 25  2  0  0  0  0
 18 40  1  0  0  0  0
 19 27  1  0  0  0  0
 20 30  1  0  0  0  0
 21 30  2  0  0  0  0
 22 24  1  0  0  0  0
 22 28  1  0  0  0  0
 23 26  1  0  0  0  0
 23 29  1  0  0  0  0
 24 26  2  0  0  0  0
 27 30  1  0  0  0  0
 28 29  1  0  0  0  0
M  END
> <pdb_id>
6JME

> <uniprot_id>
Q02127

> <usmiles>
Fc1c(c(F)cc(N2N=NC=3C(=O)c4c(cccc4)C(=O)C23)c1)c5c(F)cccc5

$$$$
BW7_A_502
          07202411373D 1   1.00000     0.00000     0
            
 59 62  0  0  0  0            999 V2000
   13.3643   18.8356   75.2034 O   0  0  0  0  0  0  0  0  0  0  0  0
    2.3876   25.3363   77.4371 O   0  0  0  0  0  0  0  0  0  0  0  0
   12.2528   20.9890   76.9158 O   0  0  0  0  0  0  0  0  0  0  0  0
   13.8738   16.4598   77.0089 N   0  0  0  0  0  0  0  0  0  0  0  0
    4.8772   20.3545   80.8053 N   0  0  0  0  0  0  0  0  0  0  0  0
    7.7546   21.4740   79.3465 N   0  0  0  0  0  0  0  0  0  0  0  0
    6.0946   20.2253   80.6173 N   0  0  0  0  0  0  0  0  0  0  0  0
    4.5303   23.8379   78.3797 N   0  0  0  0  0  0  0  0  0  0  0  0
    6.4879   18.6855   82.6148 C   0  0  0  0  0  0  0  0  0  0  0  0
    6.8518   17.9360   80.2742 C   0  0  0  0  0  0  0  0  0  0  0  0
    3.6659   26.0067   77.3933 C   0  0  0  0  0  0  0  0  0  0  0  0
    2.1626   24.7106   78.7450 C   0  0  0  0  0  0  0  0  0  0  0  0
   11.8250   19.6145   76.8999 C   0  0  0  0  0  0  0  0  0  0  0  0
   12.6536   17.2627   76.9035 C   0  0  0  0  0  0  0  0  0  0  0  0
    4.4126   21.4209   80.1447 C   0  0  0  0  0  0  0  0  0  0  0  0
    4.7521   24.9420   77.3857 C   0  0  0  0  0  0  0  0  0  0  0  0
    3.1766   23.5754   78.9602 C   0  0  0  0  0  0  0  0  0  0  0  0
   10.9543   24.3160   77.3439 C   0  0  0  0  0  0  0  0  0  0  0  0
   11.8049   23.2583   77.0566 C   0  0  0  0  0  0  0  0  0  0  0  0
    9.6742   24.0729   77.8401 C   0  0  0  0  0  0  0  0  0  0  0  0
   10.0823   21.6944   77.7401 C   0  0  0  0  0  0  0  0  0  0  0  0
    6.8543   23.3373   78.1999 C   0  0  0  0  0  0  0  0  0  0  0  0
   13.0234   18.7306   76.5973 C   0  0  1  0  0  0  0  0  0  0  0  0
   11.3680   21.9525   77.2289 C   0  0  0  0  0  0  0  0  0  0  0  0
    6.5156   21.1954   79.8241 C   0  0  0  0  0  0  0  0  0  0  0  0
    6.9353   19.1307   81.1965 C   0  0  0  0  0  0  0  0  0  0  0  0
    7.9479   22.5288   78.5364 C   0  0  0  0  0  0  0  0  0  0  0  0
    5.5811   23.0407   78.7014 C   0  0  0  0  0  0  0  0  0  0  0  0
    9.2393   22.7703   78.0327 C   0  0  0  0  0  0  0  0  0  0  0  0
    5.4529   21.9637   79.5117 C   0  0  0  0  0  0  0  0  0  0  0  0
   14.1531   18.2527   75.0084 H   0  0  0  0  0  0  0  0  0  0  0  0
   13.6317   15.5100   77.2072 H   0  0  0  0  0  0  0  0  0  0  0  0
   14.3765   16.5024   76.1455 H   0  0  0  0  0  0  0  0  0  0  0  0
    7.0890   17.9556   82.9402 H   0  0  0  0  0  0  0  0  0  0  0  0
    6.5398   19.4639   83.2404 H   0  0  0  0  0  0  0  0  0  0  0  0
    5.5465   18.3501   82.5774 H   0  0  0  0  0  0  0  0  0  0  0  0
    7.4076   17.1908   80.6427 H   0  0  0  0  0  0  0  0  0  0  0  0
    5.9002   17.6373   80.2009 H   0  0  0  0  0  0  0  0  0  0  0  0
    7.1923   18.1894   79.3687 H   0  0  0  0  0  0  0  0  0  0  0  0
    3.7700   26.5926   78.1970 H   0  0  0  0  0  0  0  0  0  0  0  0
    3.7295   26.5630   76.5648 H   0  0  0  0  0  0  0  0  0  0  0  0
    1.2351   24.3383   78.7798 H   0  0  0  0  0  0  0  0  0  0  0  0
    2.2739   25.3961   79.4646 H   0  0  0  0  0  0  0  0  0  0  0  0
   11.1277   19.4880   76.1944 H   0  0  0  0  0  0  0  0  0  0  0  0
   11.4447   19.3708   77.7920 H   0  0  0  0  0  0  0  0  0  0  0  0
   12.1512   17.2194   77.7670 H   0  0  0  0  0  0  0  0  0  0  0  0
   12.0814   16.9031   76.1665 H   0  0  0  0  0  0  0  0  0  0  0  0
    3.4677   21.7478   80.1287 H   0  0  0  0  0  0  0  0  0  0  0  0
    4.7915   24.5391   76.4713 H   0  0  0  0  0  0  0  0  0  0  0  0
    5.6256   25.3821   77.5938 H   0  0  0  0  0  0  0  0  0  0  0  0
    3.2808   23.4315   79.9443 H   0  0  0  0  0  0  0  0  0  0  0  0
    2.8111   22.7455   78.5388 H   0  0  0  0  0  0  0  0  0  0  0  0
   11.2605   25.2561   77.1945 H   0  0  0  0  0  0  0  0  0  0  0  0
   12.7315   23.4367   76.7258 H   0  0  0  0  0  0  0  0  0  0  0  0
    9.0690   24.8388   78.0574 H   0  0  0  0  0  0  0  0  0  0  0  0
    9.7762   20.7546   77.8918 H   0  0  0  0  0  0  0  0  0  0  0  0
    6.9832   24.1274   77.6006 H   0  0  0  0  0  0  0  0  0  0  0  0
   13.8019   19.0094   77.1596 H   0  0  0  0  0  0  0  0  0  0  0  0
    7.8852   19.4405   81.2393 H   0  0  0  0  0  0  0  0  0  0  0  0
  1 23  1  0  0  0  0
  2 11  1  0  0  0  0
  2 12  1  0  0  0  0
  3 13  1  0  0  0  0
  3 24  1  0  0  0  0
  4 14  1  0  0  0  0
  5  7  1  0  0  0  0
  5 15  2  0  0  0  0
  6 25  2  0  0  0  0
  6 27  1  0  0  0  0
  7 25  1  0  0  0  0
  7 26  1  0  0  0  0
  8 16  1  0  0  0  0
  8 17  1  0  0  0  0
  8 28  1  0  0  0  0
  9 26  1  0  0  0  0
 10 26  1  0  0  0  0
 11 16  1  0  0  0  0
 12 17  1  0  0  0  0
 13 23  1  0  0  0  0
 14 23  1  0  0  0  0
 15 30  1  0  0  0  0
 18 19  2  0  0  0  0
 18 20  1  0  0  0  0
 19 24  1  0  0  0  0
 20 29  2  0  0  0  0
 21 24  2  0  0  0  0
 21 29  1  0  0  0  0
 22 27  2  0  0  0  0
 22 28  1  0  0  0  0
 25 30  1  0  0  0  0
 27 29  1  0  0  0  0
 28 30  2  0  0  0  0
  1 31  1  0  0  0  0
  4 32  1  0  0  0  0
  4 33  1  0  0  0  0
  9 34  1  0  0  0  0
  9 35  1  0  0  0  0
  9 36  1  0  0  0  0
 10 37  1  0  0  0  0
 10 38  1  0  0  0  0
 10 39  1  0  0  0  0
 11 40  1  0  0  0  0
 11 41  1  0  0  0  0
 12 42  1  0  0  0  0
 12 43  1  0  0  0  0
 13 44  1  0  0  0  0
 13 45  1  0  0  0  0
 14 46  1  0  0  0  0
 14 47  1  0  0  0  0
 15 48  1  0  0  0  0
 16 49  1  0  0  0  0
 16 50  1  0  0  0  0
 17 51  1  0  0  0  0
 17 52  1  0  0  0  0
 18 53  1  0  0  0  0
 19 54  1  0  0  0  0
 20 55  1  0  0  0  0
 21 56  1  0  0  0  0
 22 57  1  0  0  0  0
 23 58  1  0  0  0  0
 26 59  1  0  0  0  0
M  END
> <pdb_id>
6ARV

> <uniprot_id>
Q86X55

> <usmiles>
O(c1cc(c2nc3N(N=Cc3c(N4CCOCC4)c2)C(C)C)ccc1)C[C@H](O)CN

$$$$
BX4_A_302
          07192416293D 1   1.00000     0.00000     0
            
 29 30  0  0  0  0            999 V2000
   -5.8877    1.0310   16.7385 S   0  0  0  0  0  0  0  0  0  0  0  0
   -5.5153    0.9579   18.1239 O   0  0  0  0  0  0  0  0  0  0  0  0
   -7.2736    1.1940   16.3994 O   0  0  0  0  0  0  0  0  0  0  0  0
   -5.3743   -0.3205   16.0294 N   0  0  0  0  0  0  0  0  0  0  0  0
   -0.2981    6.2230   11.7186 N   0  0  0  0  0  0  0  0  0  0  0  0
   -2.3987    7.9968   14.1479 C   0  0  0  0  0  0  0  0  0  0  0  0
   -3.6282    2.2833   15.8164 C   0  0  0  0  0  0  0  0  0  0  0  0
   -5.6741    3.5413   15.6520 C   0  0  0  0  0  0  0  0  0  0  0  0
   -1.4630    7.7589   13.1470 C   0  0  0  0  0  0  0  0  0  0  0  0
   -3.0962    6.9358   14.7133 C   0  0  0  0  0  0  0  0  0  0  0  0
   -2.9307    3.3433   15.2499 C   0  0  0  0  0  0  0  0  0  0  0  0
   -4.9766    4.6013   15.0866 C   0  0  0  0  0  0  0  0  0  0  0  0
   -1.9233    5.3989   13.2790 C   0  0  0  0  0  0  0  0  0  0  0  0
   -5.0004    2.3817   16.0174 C   0  0  0  0  0  0  0  0  0  0  0  0
   -1.2258    6.4599   12.7125 C   0  0  0  0  0  0  0  0  0  0  0  0
   -3.6044    4.5028   14.8855 C   0  0  0  0  0  0  0  0  0  0  0  0
   -2.8590    5.6378   14.2789 C   0  0  0  0  0  0  0  0  0  0  0  0
   -5.6185   -0.3017   15.0598 H   0  0  0  0  0  0  0  0  0  0  0  0
   -4.3809   -0.3887   16.1216 H   0  0  0  0  0  0  0  0  0  0  0  0
   -0.1277    5.2885   11.4062 H   0  0  0  0  0  0  0  0  0  0  0  0
    0.2036    6.9859   11.3108 H   0  0  0  0  0  0  0  0  0  0  0  0
   -2.5697    8.9311   14.4607 H   0  0  0  0  0  0  0  0  0  0  0  0
   -3.1430    1.4494   16.0795 H   0  0  0  0  0  0  0  0  0  0  0  0
   -6.6611    3.6125   15.7962 H   0  0  0  0  0  0  0  0  0  0  0  0
   -0.9610    8.5220   12.7399 H   0  0  0  0  0  0  0  0  0  0  0  0
   -3.7690    7.1068   15.4331 H   0  0  0  0  0  0  0  0  0  0  0  0
   -1.9439    3.2717   15.1045 H   0  0  0  0  0  0  0  0  0  0  0  0
   -5.4616    5.4355   14.8240 H   0  0  0  0  0  0  0  0  0  0  0  0
   -1.7519    4.4643   12.9672 H   0  0  0  0  0  0  0  0  0  0  0  0
  1  2  2  0  0  0  0
  1  3  2  0  0  0  0
  1  4  1  0  0  0  0
  1 14  1  0  0  0  0
  5 15  1  0  0  0  0
  6  9  1  0  0  0  0
  6 10  2  0  0  0  0
  7 11  2  0  0  0  0
  7 14  1  0  0  0  0
  8 12  1  0  0  0  0
  8 14  2  0  0  0  0
  9 15  2  0  0  0  0
 10 17  1  0  0  0  0
 11 16  1  0  0  0  0
 12 16  2  0  0  0  0
 13 15  1  0  0  0  0
 13 17  2  0  0  0  0
 16 17  1  0  0  0  0
  4 18  1  0  0  0  0
  4 19  1  0  0  0  0
  5 20  1  0  0  0  0
  5 21  1  0  0  0  0
  6 22  1  0  0  0  0
  7 23  1  0  0  0  0
  8 24  1  0  0  0  0
  9 25  1  0  0  0  0
 10 26  1  0  0  0  0
 11 27  1  0  0  0  0
 12 28  1  0  0  0  0
 13 29  1  0  0  0  0
M  END
> <pdb_id>
5E2K

> <uniprot_id>
P00918

> <usmiles>
S(=O)(=O)(N)c1ccc(c2cc(N)ccc2)cc1

$$$$
BXK_A_820
          07202412173D 1   1.00000     0.00000     0
            
 40 39  0  0  0  0            999 V2000
   18.4639   43.5483   42.3068 O   0  0  0  0  0  0  0  0  0  0  0  0
   13.8189   48.5714   40.5118 O   0  0  0  0  0  0  0  0  0  0  0  0
   13.0611   46.7406   39.4809 O   0  0  0  0  0  0  0  0  0  0  0  0
   17.8694   45.4161   40.1575 O   0  0  0  0  0  0  0  0  0  0  0  0
   16.9129   43.6847   39.1545 O   0  0  0  0  0  0  0  0  0  0  0  0
   21.1346   47.2728   44.3490 O   0  0  0  0  0  0  0  0  0  0  0  0
   19.3760   47.1268   45.7001 O   0  0  0  0  0  0  0  0  0  0  0  0
   16.5421   44.7677   42.5199 O   0  0  0  0  0  0  0  0  0  0  0  0
   18.4421   45.3721   43.6600 N   0  0  0  0  0  0  0  0  0  0  0  0
   22.3883   43.7894   44.8988 C   0  0  0  0  0  0  0  0  0  0  0  0
   21.2205   43.0101   46.9684 C   0  0  0  0  0  0  0  0  0  0  0  0
   14.9230   46.5074   40.9817 C   0  0  0  0  0  0  0  0  0  0  0  0
   14.6849   44.9779   40.9421 C   0  0  0  0  0  0  0  0  0  0  0  0
   19.8903   44.1667   45.2129 C   0  0  0  0  0  0  0  0  0  0  0  0
   17.8578   44.5257   42.7960 C   0  0  0  0  0  0  0  0  0  0  0  0
   13.8355   47.3307   40.2716 C   0  0  0  0  0  0  0  0  0  0  0  0
   17.0124   44.4939   40.0965 C   0  0  0  0  0  0  0  0  0  0  0  0
   20.1224   46.6949   44.7942 C   0  0  0  0  0  0  0  0  0  0  0  0
   16.0189   44.2758   41.2703 C   0  0  1  0  0  0  0  0  0  0  0  0
   21.2601   44.1059   45.9091 C   0  0  0  0  0  0  0  0  0  0  0  0
   19.8011   45.3066   44.1702 C   0  0  2  0  0  0  0  0  0  0  0  0
   14.4731   48.9643   41.1581 H   0  0  0  0  0  0  0  0  0  0  0  0
   17.8889   46.0292   40.9472 H   0  0  0  0  0  0  0  0  0  0  0  0
   21.6724   46.8487   43.6203 H   0  0  0  0  0  0  0  0  0  0  0  0
   17.8797   46.1310   43.9884 H   0  0  0  0  0  0  0  0  0  0  0  0
   22.4205   44.5043   44.2003 H   0  0  0  0  0  0  0  0  0  0  0  0
   23.2648   43.7525   45.3787 H   0  0  0  0  0  0  0  0  0  0  0  0
   22.2087   42.9068   44.4643 H   0  0  0  0  0  0  0  0  0  0  0  0
   20.4931   43.2079   47.6255 H   0  0  0  0  0  0  0  0  0  0  0  0
   21.0431   42.1290   46.5300 H   0  0  0  0  0  0  0  0  0  0  0  0
   22.0992   42.9748   47.4444 H   0  0  0  0  0  0  0  0  0  0  0  0
   15.8001   46.7002   40.5419 H   0  0  0  0  0  0  0  0  0  0  0  0
   14.9597   46.7948   41.9388 H   0  0  0  0  0  0  0  0  0  0  0  0
   14.3744   44.7068   40.0310 H   0  0  0  0  0  0  0  0  0  0  0  0
   13.9934   44.7250   41.6188 H   0  0  0  0  0  0  0  0  0  0  0  0
   19.1849   44.3117   45.9067 H   0  0  0  0  0  0  0  0  0  0  0  0
   19.7279   43.2956   44.7494 H   0  0  0  0  0  0  0  0  0  0  0  0
   15.8470   43.2950   41.3624 H   0  0  0  0  0  0  0  0  0  0  0  0
   21.4469   44.9843   46.3488 H   0  0  0  0  0  0  0  0  0  0  0  0
   20.4333   45.1229   43.4175 H   0  0  0  0  0  0  0  0  0  0  0  0
  1 15  2  0  0  0  0
  2 16  1  0  0  0  0
  3 16  2  0  0  0  0
  4 17  1  0  0  0  0
  5 17  2  0  0  0  0
  6 18  1  0  0  0  0
  7 18  2  0  0  0  0
  8 15  1  0  0  0  0
  8 19  1  0  0  0  0
  9 15  1  0  0  0  0
  9 21  1  0  0  0  0
 10 20  1  0  0  0  0
 11 20  1  0  0  0  0
 12 13  1  0  0  0  0
 12 16  1  0  0  0  0
 13 19  1  0  0  0  0
 14 20  1  0  0  0  0
 14 21  1  0  0  0  0
 17 19  1  0  0  0  0
 18 21  1  0  0  0  0
  2 22  1  0  0  0  0
  4 23  1  0  0  0  0
  6 24  1  0  0  0  0
  9 25  1  0  0  0  0
 10 26  1  0  0  0  0
 10 27  1  0  0  0  0
 10 28  1  0  0  0  0
 11 29  1  0  0  0  0
 11 30  1  0  0  0  0
 11 31  1  0  0  0  0
 12 32  1  0  0  0  0
 12 33  1  0  0  0  0
 13 34  1  0  0  0  0
 13 35  1  0  0  0  0
 14 36  1  0  0  0  0
 14 37  1  0  0  0  0
 19 38  1  0  0  0  0
 20 39  1  0  0  0  0
 21 40  1  0  0  0  0
M  END
> <pdb_id>
6ETY

> <uniprot_id>
Q04609

> <usmiles>
O=C(O[C@H](C(=O)O)CCC(=O)O)N[C@@H](C(=O)O)CC(C)C

$$$$
BXS_A_802
          07202413413D 1   1.00000     0.00000     0
            
 28 29  0  0  0  0            999 V2000
   39.0809   81.5614   63.6059 O   0  0  0  0  0  0  0  0  0  0  0  0
   37.7932   81.0826   65.3373 O   0  0  0  0  0  0  0  0  0  0  0  0
   37.0386   81.9915   62.0512 O   0  0  0  0  0  0  0  0  0  0  0  0
   35.4770   80.1719   60.9713 O   0  0  0  0  0  0  0  0  0  0  0  0
   30.9700   75.9819   62.1867 O   0  0  0  0  0  0  0  0  0  0  0  0
   31.0620   78.0592   60.2375 O   0  0  0  0  0  0  0  0  0  0  0  0
   29.7780   76.5276   61.6110 C   0  0  0  0  0  0  0  0  0  0  0  0
   30.0552   77.0368   60.2132 C   0  0  0  0  0  0  0  0  0  0  0  0
   33.0565   76.7789   63.1451 C   0  0  0  0  0  0  0  0  0  0  0  0
   34.0992   77.7239   63.1618 C   0  0  0  0  0  0  0  0  0  0  0  0
   35.8844   80.2445   63.2635 C   0  0  0  0  0  0  0  0  0  0  0  0
   33.0730   78.8487   61.2613 C   0  0  0  0  0  0  0  0  0  0  0  0
   37.8549   81.4368   64.1688 C   0  0  0  0  0  0  0  0  0  0  0  0
   36.7985   81.2376   63.1469 C   0  0  0  0  0  0  0  0  0  0  0  0
   35.1561   79.7830   62.0899 C   0  0  0  0  0  0  0  0  0  0  0  0
   32.0232   76.8838   62.1911 C   0  0  0  0  0  0  0  0  0  0  0  0
   32.0347   77.9298   61.2298 C   0  0  0  0  0  0  0  0  0  0  0  0
   34.0864   78.7521   62.2193 C   0  0  0  0  0  0  0  0  0  0  0  0
   39.1663   81.8491   62.6521 H   0  0  0  0  0  0  0  0  0  0  0  0
   37.7419   82.7019   62.0774 H   0  0  0  0  0  0  0  0  0  0  0  0
   29.4535   77.2838   62.1792 H   0  0  0  0  0  0  0  0  0  0  0  0
   29.0761   75.8165   61.5698 H   0  0  0  0  0  0  0  0  0  0  0  0
   30.3713   76.2780   59.6438 H   0  0  0  0  0  0  0  0  0  0  0  0
   29.2130   77.4142   59.8281 H   0  0  0  0  0  0  0  0  0  0  0  0
   33.0483   76.0324   63.8103 H   0  0  0  0  0  0  0  0  0  0  0  0
   34.8349   77.6595   63.8361 H   0  0  0  0  0  0  0  0  0  0  0  0
   35.7097   79.8283   64.1558 H   0  0  0  0  0  0  0  0  0  0  0  0
   33.0970   79.5897   60.5903 H   0  0  0  0  0  0  0  0  0  0  0  0
  1 13  1  0  0  0  0
  2 13  2  0  0  0  0
  3 14  1  0  0  0  0
  4 15  2  0  0  0  0
  5  7  1  0  0  0  0
  5 16  1  0  0  0  0
  6  8  1  0  0  0  0
  6 17  1  0  0  0  0
  7  8  1  0  0  0  0
  9 10  1  0  0  0  0
  9 16  2  0  0  0  0
 10 18  2  0  0  0  0
 11 14  2  0  0  0  0
 11 15  1  0  0  0  0
 12 17  2  0  0  0  0
 12 18  1  0  0  0  0
 13 14  1  0  0  0  0
 15 18  1  0  0  0  0
 16 17  1  0  0  0  0
  1 19  1  0  0  0  0
  3 20  1  0  0  0  0
  7 21  1  0  0  0  0
  7 22  1  0  0  0  0
  8 23  1  0  0  0  0
  8 24  1  0  0  0  0
  9 25  1  0  0  0  0
 10 26  1  0  0  0  0
 11 27  1  0  0  0  0
 12 28  1  0  0  0  0
M  END
> <pdb_id>
6AU9

> <uniprot_id>
A5U3K4

> <usmiles>
O=C(O)\C(\O)=C\C(=O)c1cc2OCCOc2cc1

$$$$
BXU_B_301
          07212402403D 1   1.00000     0.00000     0
            
 33 33  0  0  0  0            999 V2000
   21.4008   14.3778    4.2484 S   0  0  0  0  0  0  0  0  0  0  0  0
   22.0847   19.4110    8.8960 F   0  0  0  0  0  0  0  0  0  0  0  0
   24.5334   12.8378    7.6576 O   0  0  0  0  0  0  0  0  0  0  0  0
   19.7828   13.2253   10.3686 O   0  0  0  0  0  0  0  0  0  0  0  0
   21.5628   11.9285   11.0246 O   0  0  0  0  0  0  0  0  0  0  0  0
   23.0396   13.3857    8.9935 N   0  0  0  0  0  0  0  0  0  0  0  0
   23.0490   12.0377    5.3864 C   0  0  0  0  0  0  0  0  0  0  0  0
   22.2221   14.3844    5.8626 C   0  0  0  0  0  0  0  0  0  0  0  0
   21.0855   17.3895    8.4465 C   0  0  0  0  0  0  0  0  0  0  0  0
   23.0509   17.3826    9.7820 C   0  0  0  0  0  0  0  0  0  0  0  0
   20.9995   16.0321    8.5527 C   0  0  0  0  0  0  0  0  0  0  0  0
   22.9843   16.0039    9.8876 C   0  0  0  0  0  0  0  0  0  0  0  0
   22.0862   18.0649    9.0658 C   0  0  0  0  0  0  0  0  0  0  0  0
   23.4038   13.0716    7.6706 C   0  0  0  0  0  0  0  0  0  0  0  0
   21.7297   13.7950    9.2599 C   0  0  2  0  0  0  0  0  0  0  0  0
   22.4665   12.9842    6.4442 C   0  0  2  0  0  0  0  0  0  0  0  0
   21.9214   15.3231    9.2781 C   0  0  0  0  0  0  0  0  0  0  0  0
   21.0975   13.1144   10.5288 B   0  0  0  0  0  0  0  0  0  0  0  0
   21.2756   15.3189    3.9343 H   0  0  0  0  0  0  0  0  0  0  0  0
   19.5667   14.1305   10.0026 H   0  0  0  0  0  0  0  0  0  0  0  0
   22.5593   11.9664   11.0993 H   0  0  0  0  0  0  0  0  0  0  0  0
   23.7091   13.3169    9.7332 H   0  0  0  0  0  0  0  0  0  0  0  0
   23.1977   11.1357    5.7917 H   0  0  0  0  0  0  0  0  0  0  0  0
   22.4094   11.9582    4.6218 H   0  0  0  0  0  0  0  0  0  0  0  0
   23.9197   12.4023    5.0561 H   0  0  0  0  0  0  0  0  0  0  0  0
   21.6506   14.8962    6.5042 H   0  0  0  0  0  0  0  0  0  0  0  0
   23.1054   14.8428    5.7643 H   0  0  0  0  0  0  0  0  0  0  0  0
   20.4068   17.8899    7.9089 H   0  0  0  0  0  0  0  0  0  0  0  0
   23.7956   17.8836   10.2230 H   0  0  0  0  0  0  0  0  0  0  0  0
   20.2537   15.5479    8.0951 H   0  0  0  0  0  0  0  0  0  0  0  0
   23.6854   15.5002   10.3923 H   0  0  0  0  0  0  0  0  0  0  0  0
   21.1645   13.5622    8.4685 H   0  0  0  0  0  0  0  0  0  0  0  0
   21.5886   12.6132    6.7469 H   0  0  0  0  0  0  0  0  0  0  0  0
  1  8  1  0  0  0  0
  2 13  1  0  0  0  0
  3 14  2  0  0  0  0
  4 18  1  0  0  0  0
  5 18  1  0  0  0  0
  6 14  1  0  0  0  0
  6 15  1  0  0  0  0
  7 16  1  0  0  0  0
  8 16  1  0  0  0  0
  9 11  2  0  0  0  0
  9 13  1  0  0  0  0
 10 12  1  0  0  0  0
 10 13  2  0  0  0  0
 11 17  1  0  0  0  0
 12 17  2  0  0  0  0
 14 16  1  0  0  0  0
 15 17  1  0  0  0  0
 15 18  1  0  0  0  0
  1 19  1  0  0  0  0
  4 20  1  0  0  0  0
  5 21  1  0  0  0  0
  6 22  1  0  0  0  0
  7 23  1  0  0  0  0
  7 24  1  0  0  0  0
  7 25  1  0  0  0  0
  8 26  1  0  0  0  0
  8 27  1  0  0  0  0
  9 28  1  0  0  0  0
 10 29  1  0  0  0  0
 11 30  1  0  0  0  0
 12 31  1  0  0  0  0
 15 32  1  0  0  0  0
 16 33  1  0  0  0  0
M  END
> <pdb_id>
6JN5

> <uniprot_id>
Q93LQ9

> <usmiles>
SC[C@H](C(=O)N[C@H](c1ccc(F)cc1)B(O)O)C

$$$$
BXZ_A_1
          07192420423D 1   1.00000     0.00000     0
            
 27 29  0  0  0  0            999 V2000
   69.6888   32.3748   26.1622 Br  0  0  0  0  0  0  0  0  0  0  0  0
   69.3772   39.0510   20.0779 O   0  0  0  0  0  0  0  0  0  0  0  0
   66.9880   32.1708   27.5101 O   0  0  0  0  0  0  0  0  0  0  0  0
   64.3817   34.4399   24.2538 O   0  0  0  0  0  0  0  0  0  0  0  0
   66.0207   35.6713   20.7038 O   0  0  0  0  0  0  0  0  0  0  0  0
   65.7537   34.7662   21.7196 N   0  0  0  0  0  0  0  0  0  0  0  0
   69.3018   37.7028   22.0634 C   0  0  0  0  0  0  0  0  0  0  0  0
   68.6957   36.6804   22.8087 C   0  0  0  0  0  0  0  0  0  0  0  0
   65.6788   33.3011   25.8881 C   0  0  0  0  0  0  0  0  0  0  0  0
   67.6715   37.4258   20.2590 C   0  0  0  0  0  0  0  0  0  0  0  0
   67.9793   33.7724   24.3548 C   0  0  0  0  0  0  0  0  0  0  0  0
   68.0430   33.0702   25.5571 C   0  0  0  0  0  0  0  0  0  0  0  0
   68.7889   38.0564   20.8141 C   0  0  0  0  0  0  0  0  0  0  0  0
   66.9125   32.8323   26.3168 C   0  0  0  0  0  0  0  0  0  0  0  0
   65.6020   34.0062   24.6854 C   0  0  0  0  0  0  0  0  0  0  0  0
   67.1056   36.4232   21.0292 C   0  0  0  0  0  0  0  0  0  0  0  0
   66.6847   34.9829   22.6576 C   0  0  0  0  0  0  0  0  0  0  0  0
   66.7419   34.2452   23.9088 C   0  0  0  0  0  0  0  0  0  0  0  0
   67.5692   36.0296   22.2696 C   0  0  0  0  0  0  0  0  0  0  0  0
   69.0040   39.2987   19.1838 H   0  0  0  0  0  0  0  0  0  0  0  0
   67.8683   31.8257   27.8357 H   0  0  0  0  0  0  0  0  0  0  0  0
   64.3062   34.9466   23.3950 H   0  0  0  0  0  0  0  0  0  0  0  0
   70.1023   38.1789   22.4275 H   0  0  0  0  0  0  0  0  0  0  0  0
   69.0561   36.4192   23.7042 H   0  0  0  0  0  0  0  0  0  0  0  0
   64.8565   33.1363   26.4328 H   0  0  0  0  0  0  0  0  0  0  0  0
   67.3047   37.6818   19.3646 H   0  0  0  0  0  0  0  0  0  0  0  0
   68.8075   33.9357   23.8186 H   0  0  0  0  0  0  0  0  0  0  0  0
  1 12  1  0  0  0  0
  2 13  1  0  0  0  0
  3 14  1  0  0  0  0
  4 15  1  0  0  0  0
  5  6  1  0  0  0  0
  5 16  1  0  0  0  0
  6 17  2  0  0  0  0
  7  8  1  0  0  0  0
  7 13  2  0  0  0  0
  8 19  2  0  0  0  0
  9 14  2  0  0  0  0
  9 15  1  0  0  0  0
 10 13  1  0  0  0  0
 10 16  2  0  0  0  0
 11 12  2  0  0  0  0
 11 18  1  0  0  0  0
 12 14  1  0  0  0  0
 15 18  2  0  0  0  0
 16 19  1  0  0  0  0
 17 18  1  0  0  0  0
 17 19  1  0  0  0  0
  2 20  1  0  0  0  0
  3 21  1  0  0  0  0
  4 22  1  0  0  0  0
  7 23  1  0  0  0  0
  8 24  1  0  0  0  0
  9 25  1  0  0  0  0
 10 26  1  0  0  0  0
 11 27  1  0  0  0  0
M  END
> <pdb_id>
3BM9

> <uniprot_id>
P07900

> <usmiles>
Brc1c(O)cc(O)c(c1)C2=NOc3c2ccc(O)c3

$$$$
BYE_A_600
          07202417403D 1   1.00000     0.00000     0
            
 36 38  0  0  0  0            999 V2000
   93.7910   22.6549   12.1601 Cl  0  0  0  0  0  0  0  0  0  0  0  0
   98.3936   16.8798   11.8303 F   0  0  0  0  0  0  0  0  0  0  0  0
   98.0327   18.4638   13.3423 F   0  0  0  0  0  0  0  0  0  0  0  0
  100.0183   18.2998   12.3667 F   0  0  0  0  0  0  0  0  0  0  0  0
   95.5451   20.6183    6.5544 O   0  0  0  0  0  0  0  0  0  0  0  0
   95.1159   24.2173    8.7714 N   0  0  0  0  0  0  0  0  0  0  0  0
   96.0572   19.8269    8.6100 N   0  0  0  0  0  0  0  0  0  0  0  0
   96.0359   21.3225   10.4406 N   0  0  0  0  0  0  0  0  0  0  0  0
   95.4328   23.6619    9.8459 N   0  0  0  0  0  0  0  0  0  0  0  0
   98.9785   18.7786    9.7820 C   0  0  0  0  0  0  0  0  0  0  0  0
   95.1156   23.3430    7.7399 C   0  0  0  0  0  0  0  0  0  0  0  0
   96.0726   25.6748   13.4100 C   0  0  0  0  0  0  0  0  0  0  0  0
   96.7436   26.0503   12.2529 C   0  0  0  0  0  0  0  0  0  0  0  0
   95.1730   24.6140   13.3700 C   0  0  0  0  0  0  0  0  0  0  0  0
   96.5162   25.3672   11.0617 C   0  0  0  0  0  0  0  0  0  0  0  0
   96.7163   18.9604   10.8494 C   0  0  0  0  0  0  0  0  0  0  0  0
   94.9433   23.9337   12.1779 C   0  0  0  0  0  0  0  0  0  0  0  0
   95.6779   20.8419    7.7561 C   0  0  0  0  0  0  0  0  0  0  0  0
   96.2345   20.0750    9.9350 C   0  0  0  0  0  0  0  0  0  0  0  0
   95.6620   22.3482    9.6301 C   0  0  0  0  0  0  0  0  0  0  0  0
   95.6172   24.3083   11.0216 C   0  0  0  0  0  0  0  0  0  0  0  0
   98.2240   19.1109   11.0707 C   0  0  1  0  0  0  0  0  0  0  0  0
   95.4752   22.1149    8.2753 C   0  0  0  0  0  0  0  0  0  0  0  0
   98.6768   18.1623   12.1834 C   0  0  0  0  0  0  0  0  0  0  0  0
   96.2023   18.9043    8.2527 H   0  0  0  0  0  0  0  0  0  0  0  0
   99.9614   18.8796    9.9358 H   0  0  0  0  0  0  0  0  0  0  0  0
   98.7783   17.8368    9.5120 H   0  0  0  0  0  0  0  0  0  0  0  0
   98.6889   19.4023    9.0560 H   0  0  0  0  0  0  0  0  0  0  0  0
   94.8997   23.5417    6.7839 H   0  0  0  0  0  0  0  0  0  0  0  0
   96.2352   26.1641   14.2668 H   0  0  0  0  0  0  0  0  0  0  0  0
   97.3907   26.8124   12.2759 H   0  0  0  0  0  0  0  0  0  0  0  0
   94.6896   24.3394   14.2012 H   0  0  0  0  0  0  0  0  0  0  0  0
   97.0019   25.6396   10.2311 H   0  0  0  0  0  0  0  0  0  0  0  0
   96.5267   18.0744   10.4261 H   0  0  0  0  0  0  0  0  0  0  0  0
   96.2414   19.0186   11.7275 H   0  0  0  0  0  0  0  0  0  0  0  0
   98.4259   20.0532   11.3379 H   0  0  0  0  0  0  0  0  0  0  0  0
  1 17  1  0  0  0  0
  2 24  1  0  0  0  0
  3 24  1  0  0  0  0
  4 24  1  0  0  0  0
  5 18  2  0  0  0  0
  6  9  1  0  0  0  0
  6 11  2  0  0  0  0
  7 18  1  0  0  0  0
  7 19  1  0  0  0  0
  8 19  2  0  0  0  0
  8 20  1  0  0  0  0
  9 20  1  0  0  0  0
  9 21  1  0  0  0  0
 10 22  1  0  0  0  0
 11 23  1  0  0  0  0
 12 13  2  0  0  0  0
 12 14  1  0  0  0  0
 13 15  1  0  0  0  0
 14 17  2  0  0  0  0
 15 21  2  0  0  0  0
 16 19  1  0  0  0  0
 16 22  1  0  0  0  0
 17 21  1  0  0  0  0
 18 23  1  0  0  0  0
 20 23  2  0  0  0  0
 22 24  1  0  0  0  0
  7 25  1  0  0  0  0
 10 26  1  0  0  0  0
 10 27  1  0  0  0  0
 10 28  1  0  0  0  0
 11 29  1  0  0  0  0
 12 30  1  0  0  0  0
 13 31  1  0  0  0  0
 14 32  1  0  0  0  0
 15 33  1  0  0  0  0
 16 34  1  0  0  0  0
 16 35  1  0  0  0  0
 22 36  1  0  0  0  0
M  END
> <pdb_id>
3K3H

> <uniprot_id>
O76083

> <usmiles>
Clc1c(N2N=CC=3C(=O)NC(=NC23)C[C@@H](C(F)(F)F)C)cccc1

$$$$
BYS_B_250
          07192419033D 1   1.00000     0.00000     0
            
 43 45  0  0  0  0            999 V2000
   24.7078   -2.1318   14.3010 O   0  0  0  0  0  0  0  0  0  0  0  0
   26.6227   -2.0949   15.3040 O   0  0  0  0  0  0  0  0  0  0  0  0
   24.2796    0.3942   15.3492 O   0  0  0  0  0  0  0  0  0  0  0  0
   25.8548    1.3665   16.5760 O   0  0  0  0  0  0  0  0  0  0  0  0
   24.5378    4.4257   21.2217 O   0  0  0  0  0  0  0  0  0  0  0  0
   23.4646    4.5822   19.2091 O   0  0  0  0  0  0  0  0  0  0  0  0
   23.8657    5.3684   20.3592 C   0  0  0  0  0  0  0  0  0  0  0  0
   24.7242   -6.9170   15.7471 C   0  0  0  0  0  0  0  0  0  0  0  0
   26.0203   -6.3821   15.8136 C   0  0  0  0  0  0  0  0  0  0  0  0
   23.6338   -6.1793   16.1871 C   0  0  0  0  0  0  0  0  0  0  0  0
   26.2099   -5.1543   16.4667 C   0  0  0  0  0  0  0  0  0  0  0  0
   23.8351   -4.9388   16.7948 C   0  0  0  0  0  0  0  0  0  0  0  0
   24.8859    1.9815   21.1464 C   0  0  0  0  0  0  0  0  0  0  0  0
   24.6772    0.8529   20.3318 C   0  0  0  0  0  0  0  0  0  0  0  0
   23.5189    2.1934   18.6742 C   0  0  0  0  0  0  0  0  0  0  0  0
   25.3494   -3.0815   17.5872 C   0  0  0  0  0  0  0  0  0  0  0  0
   23.7667   -0.3109   18.3179 C   0  0  0  0  0  0  0  0  0  0  0  0
   25.3744   -2.0630   15.3431 C   0  0  0  0  0  0  0  0  0  0  0  0
   25.0331    0.4441   16.3358 C   0  0  0  0  0  0  0  0  0  0  0  0
   24.3785    3.2032   20.7014 C   0  0  0  0  0  0  0  0  0  0  0  0
   23.6981    3.2942   19.4918 C   0  0  0  0  0  0  0  0  0  0  0  0
   25.1312   -4.4327   16.9313 C   0  0  0  0  0  0  0  0  0  0  0  0
   23.9821    0.9396   19.1214 C   0  0  0  0  0  0  0  0  0  0  0  0
   24.6941   -1.9869   16.7115 C   0  0  2  0  0  0  0  0  0  0  0  0
   24.9582   -0.6419   17.3806 C   0  0  2  0  0  0  0  0  0  0  0  0
   23.7090   -2.1053   14.3437 H   0  0  0  0  0  0  0  0  0  0  0  0
   23.6550   -0.3785   15.2357 H   0  0  0  0  0  0  0  0  0  0  0  0
   24.4865    6.1034   20.0864 H   0  0  0  0  0  0  0  0  0  0  0  0
   23.0670    5.7594   20.8166 H   0  0  0  0  0  0  0  0  0  0  0  0
   24.5853   -7.8367   15.3798 H   0  0  0  0  0  0  0  0  0  0  0  0
   26.7934   -6.8663   15.4037 H   0  0  0  0  0  0  0  0  0  0  0  0
   22.7069   -6.5354   16.0691 H   0  0  0  0  0  0  0  0  0  0  0  0
   27.1359   -4.7997   16.5962 H   0  0  0  0  0  0  0  0  0  0  0  0
   23.0538   -4.4133   17.1317 H   0  0  0  0  0  0  0  0  0  0  0  0
   25.3799    1.9106   22.0130 H   0  0  0  0  0  0  0  0  0  0  0  0
   25.0350   -0.0333   20.6260 H   0  0  0  0  0  0  0  0  0  0  0  0
   23.0705    2.2850   17.7850 H   0  0  0  0  0  0  0  0  0  0  0  0
   26.3299   -2.9029   17.6697 H   0  0  0  0  0  0  0  0  0  0  0  0
   24.9324   -3.0784   18.4961 H   0  0  0  0  0  0  0  0  0  0  0  0
   22.9453   -0.1936   17.7599 H   0  0  0  0  0  0  0  0  0  0  0  0
   23.6351   -1.0759   18.9483 H   0  0  0  0  0  0  0  0  0  0  0  0
   23.7112   -2.1487   16.6244 H   0  0  0  0  0  0  0  0  0  0  0  0
   25.8098   -0.6775   17.9036 H   0  0  0  0  0  0  0  0  0  0  0  0
  1 18  1  0  0  0  0
  2 18  2  0  0  0  0
  3 19  1  0  0  0  0
  4 19  2  0  0  0  0
  5  7  1  0  0  0  0
  5 20  1  0  0  0  0
  6  7  1  0  0  0  0
  6 21  1  0  0  0  0
  8  9  2  0  0  0  0
  8 10  1  0  0  0  0
  9 11  1  0  0  0  0
 10 12  2  0  0  0  0
 11 22  2  0  0  0  0
 12 22  1  0  0  0  0
 13 14  2  0  0  0  0
 13 20  1  0  0  0  0
 14 23  1  0  0  0  0
 15 21  1  0  0  0  0
 15 23  2  0  0  0  0
 16 22  1  0  0  0  0
 16 24  1  0  0  0  0
 17 23  1  0  0  0  0
 17 25  1  0  0  0  0
 18 24  1  0  0  0  0
 19 25  1  0  0  0  0
 20 21  2  0  0  0  0
 24 25  1  0  0  0  0
  1 26  1  0  0  0  0
  3 27  1  0  0  0  0
  7 28  1  0  0  0  0
  7 29  1  0  0  0  0
  8 30  1  0  0  0  0
  9 31  1  0  0  0  0
 10 32  1  0  0  0  0
 11 33  1  0  0  0  0
 12 34  1  0  0  0  0
 13 35  1  0  0  0  0
 14 36  1  0  0  0  0
 15 37  1  0  0  0  0
 16 38  1  0  0  0  0
 16 39  1  0  0  0  0
 17 40  1  0  0  0  0
 17 41  1  0  0  0  0
 24 42  1  0  0  0  0
 25 43  1  0  0  0  0
M  END
> <pdb_id>
1JJE

> <uniprot_id>
P52699

> <usmiles>
O=C(O)[C@H]([C@@H](C(=O)O)Cc1ccccc1)Cc2cc3OCOc3cc2

$$$$
BZ3_A_401
          07202402463D 1   1.00000     0.00000     0
            
 20 21  0  0  0  0            999 V2000
   15.1450   17.1847   82.3024 O   0  0  0  0  0  0  0  0  0  0  0  0
   17.8834   13.5572   79.2136 N   0  0  0  0  0  0  0  0  0  0  0  0
   14.5622   18.2705   81.5204 C   0  0  0  0  0  0  0  0  0  0  0  0
   17.4486   13.9137   77.9968 C   0  0  0  0  0  0  0  0  0  0  0  0
   16.5860   14.9354   78.1339 C   0  0  0  0  0  0  0  0  0  0  0  0
   16.6934   15.3654   82.2384 C   0  0  0  0  0  0  0  0  0  0  0  0
   17.4328   14.4172   81.5254 C   0  0  0  0  0  0  0  0  0  0  0  0
   15.7510   16.1944   80.1538 C   0  0  0  0  0  0  0  0  0  0  0  0
   15.8556   16.2647   81.5606 C   0  0  0  0  0  0  0  0  0  0  0  0
   17.3184   14.3467   80.1286 C   0  0  0  0  0  0  0  0  0  0  0  0
   16.4837   15.2319   79.4385 C   0  0  0  0  0  0  0  0  0  0  0  0
   18.5284   12.8173   79.4050 H   0  0  0  0  0  0  0  0  0  0  0  0
   14.0666   18.8906   82.1286 H   0  0  0  0  0  0  0  0  0  0  0  0
   15.2900   18.7728   81.0534 H   0  0  0  0  0  0  0  0  0  0  0  0
   13.9309   17.8922   80.8434 H   0  0  0  0  0  0  0  0  0  0  0  0
   17.7203   13.4907   77.1324 H   0  0  0  0  0  0  0  0  0  0  0  0
   16.1025   15.3964   77.3897 H   0  0  0  0  0  0  0  0  0  0  0  0
   16.7617   15.4032   83.2354 H   0  0  0  0  0  0  0  0  0  0  0  0
   18.0424   13.7900   82.0101 H   0  0  0  0  0  0  0  0  0  0  0  0
   15.1541   16.8311   79.6656 H   0  0  0  0  0  0  0  0  0  0  0  0
  1  3  1  0  0  0  0
  1  9  1  0  0  0  0
  2  4  1  0  0  0  0
  2 10  1  0  0  0  0
  4  5  2  0  0  0  0
  5 11  1  0  0  0  0
  6  7  1  0  0  0  0
  6  9  2  0  0  0  0
  7 10  2  0  0  0  0
  8  9  1  0  0  0  0
  8 11  2  0  0  0  0
 10 11  1  0  0  0  0
  2 12  1  0  0  0  0
  3 13  1  0  0  0  0
  3 14  1  0  0  0  0
  3 15  1  0  0  0  0
  4 16  1  0  0  0  0
  5 17  1  0  0  0  0
  6 18  1  0  0  0  0
  7 19  1  0  0  0  0
  8 20  1  0  0  0  0
M  END
> <pdb_id>
3IMG

> <uniprot_id>
P0A5R0

> <usmiles>
O(c1cc2c(NC=C2)cc1)C

$$$$
BZ8_A_1225
          07192420423D 1   1.00000     0.00000     0
            
 36 38  0  0  0  0            999 V2000
   69.4468   32.5505   26.5284 Cl  0  0  0  0  0  0  0  0  0  0  0  0
   66.8917   36.5831   21.0617 S   0  0  0  0  0  0  0  0  0  0  0  0
   66.8418   32.2263   27.8532 O   0  0  0  0  0  0  0  0  0  0  0  0
   64.3215   34.1972   24.3271 O   0  0  0  0  0  0  0  0  0  0  0  0
   70.6566   39.0867   26.0813 O   0  0  0  0  0  0  0  0  0  0  0  0
   65.9593   35.3000   20.8636 N   0  0  0  0  0  0  0  0  0  0  0  0
   65.8807   34.5280   21.8705 N   0  0  0  0  0  0  0  0  0  0  0  0
   71.3628   40.3072   27.9725 C   0  0  0  0  0  0  0  0  0  0  0  0
   70.2224   39.4771   27.4128 C   0  0  0  0  0  0  0  0  0  0  0  0
   70.2513   38.0266   24.0925 C   0  0  0  0  0  0  0  0  0  0  0  0
   68.4771   38.0109   25.6613 C   0  0  0  0  0  0  0  0  0  0  0  0
   69.4389   37.2981   23.1667 C   0  0  0  0  0  0  0  0  0  0  0  0
   67.7029   37.2234   24.8261 C   0  0  0  0  0  0  0  0  0  0  0  0
   65.5311   33.1871   26.0781 C   0  0  0  0  0  0  0  0  0  0  0  0
   67.9179   33.8067   24.7242 C   0  0  0  0  0  0  0  0  0  0  0  0
   67.8733   33.1175   25.9278 C   0  0  0  0  0  0  0  0  0  0  0  0
   67.3204   36.1437   22.7186 C   0  0  0  0  0  0  0  0  0  0  0  0
   66.7625   32.7934   26.6143 C   0  0  0  0  0  0  0  0  0  0  0  0
   65.5652   33.8395   24.8304 C   0  0  0  0  0  0  0  0  0  0  0  0
   69.7408   38.3473   25.3675 C   0  0  0  0  0  0  0  0  0  0  0  0
   66.6183   34.9515   22.9352 C   0  0  0  0  0  0  0  0  0  0  0  0
   68.1545   36.9131   23.5426 C   0  0  0  0  0  0  0  0  0  0  0  0
   66.6891   34.2215   24.1584 C   0  0  0  0  0  0  0  0  0  0  0  0
   67.7300   31.9507   28.2210 H   0  0  0  0  0  0  0  0  0  0  0  0
   64.2544   34.6648   23.4458 H   0  0  0  0  0  0  0  0  0  0  0  0
   71.1307   40.6128   28.8960 H   0  0  0  0  0  0  0  0  0  0  0  0
   72.1944   39.7528   28.0041 H   0  0  0  0  0  0  0  0  0  0  0  0
   71.5147   41.1031   27.3864 H   0  0  0  0  0  0  0  0  0  0  0  0
   70.0638   38.6698   27.9812 H   0  0  0  0  0  0  0  0  0  0  0  0
   69.3841   40.0201   27.3636 H   0  0  0  0  0  0  0  0  0  0  0  0
   71.1765   38.3070   23.8367 H   0  0  0  0  0  0  0  0  0  0  0  0
   68.0781   38.3414   26.5166 H   0  0  0  0  0  0  0  0  0  0  0  0
   69.7900   37.0679   22.2591 H   0  0  0  0  0  0  0  0  0  0  0  0
   66.8199   36.8769   25.1427 H   0  0  0  0  0  0  0  0  0  0  0  0
   64.6704   33.0140   26.5569 H   0  0  0  0  0  0  0  0  0  0  0  0
   68.7881   34.0034   24.2725 H   0  0  0  0  0  0  0  0  0  0  0  0
  1 16  1  0  0  0  0
  2  6  1  0  0  0  0
  2 17  1  0  0  0  0
  3 18  1  0  0  0  0
  4 19  1  0  0  0  0
  5  9  1  0  0  0  0
  5 20  1  0  0  0  0
  6  7  2  0  0  0  0
  7 21  1  0  0  0  0
  8  9  1  0  0  0  0
 10 12  2  0  0  0  0
 10 20  1  0  0  0  0
 11 13  1  0  0  0  0
 11 20  2  0  0  0  0
 12 22  1  0  0  0  0
 13 22  2  0  0  0  0
 14 18  2  0  0  0  0
 14 19  1  0  0  0  0
 15 16  2  0  0  0  0
 15 23  1  0  0  0  0
 16 18  1  0  0  0  0
 17 21  2  0  0  0  0
 17 22  1  0  0  0  0
 19 23  2  0  0  0  0
 21 23  1  0  0  0  0
  3 24  1  0  0  0  0
  4 25  1  0  0  0  0
  8 26  1  0  0  0  0
  8 27  1  0  0  0  0
  8 28  1  0  0  0  0
  9 29  1  0  0  0  0
  9 30  1  0  0  0  0
 10 31  1  0  0  0  0
 11 32  1  0  0  0  0
 12 33  1  0  0  0  0
 13 34  1  0  0  0  0
 14 35  1  0  0  0  0
 15 36  1  0  0  0  0
M  END
> <pdb_id>
2YI7

> <uniprot_id>
P07900

> <usmiles>
Clc1c(O)cc(O)c(c1)C=2N=NSC2c3ccc(OCC)cc3

$$$$
BZS_A_405
          07192423203D 1   1.00000     0.00000     0
            
 27 27  0  0  0  0            999 V2000
   63.6457  -52.9041   10.5240 O   0  0  0  0  0  0  0  0  0  0  0  0
   62.2133  -53.1209   12.1604 O   0  0  0  0  0  0  0  0  0  0  0  0
   65.8287  -50.2228   10.6505 O   0  0  0  0  0  0  0  0  0  0  0  0
   63.9351  -49.7450    9.6796 O   0  0  0  0  0  0  0  0  0  0  0  0
   63.3633  -45.1960   12.3384 C   0  0  0  0  0  0  0  0  0  0  0  0
   62.4687  -46.1599   11.8874 C   0  0  0  0  0  0  0  0  0  0  0  0
   64.5084  -45.5727   13.0448 C   0  0  0  0  0  0  0  0  0  0  0  0
   62.7210  -47.5136   12.1339 C   0  0  0  0  0  0  0  0  0  0  0  0
   64.7622  -46.9209   13.2914 C   0  0  0  0  0  0  0  0  0  0  0  0
   64.1206  -51.7068   12.4871 C   0  0  0  0  0  0  0  0  0  0  0  0
   64.1991  -49.3370   13.1173 C   0  0  0  0  0  0  0  0  0  0  0  0
   63.2644  -52.6463   11.6751 C   0  0  0  0  0  0  0  0  0  0  0  0
   64.5864  -50.0629   10.6948 C   0  0  0  0  0  0  0  0  0  0  0  0
   63.8737  -47.8895   12.8324 C   0  0  0  0  0  0  0  0  0  0  0  0
   63.8266  -50.2939   11.9874 C   0  0  1  0  0  0  0  0  0  0  0  0
   64.4929  -52.5024   10.1762 H   0  0  0  0  0  0  0  0  0  0  0  0
   66.3297  -50.4778   11.4775 H   0  0  0  0  0  0  0  0  0  0  0  0
   63.1864  -44.2287   12.1563 H   0  0  0  0  0  0  0  0  0  0  0  0
   61.6468  -45.8862   11.3879 H   0  0  0  0  0  0  0  0  0  0  0  0
   65.1456  -44.8755   13.3734 H   0  0  0  0  0  0  0  0  0  0  0  0
   62.0798  -48.2102   11.8121 H   0  0  0  0  0  0  0  0  0  0  0  0
   65.5811  -47.1920   13.7971 H   0  0  0  0  0  0  0  0  0  0  0  0
   65.0881  -51.9234   12.3563 H   0  0  0  0  0  0  0  0  0  0  0  0
   63.8902  -51.7833   13.4572 H   0  0  0  0  0  0  0  0  0  0  0  0
   63.7029  -49.6143   13.9400 H   0  0  0  0  0  0  0  0  0  0  0  0
   65.1829  -49.4115   13.2803 H   0  0  0  0  0  0  0  0  0  0  0  0
   62.8466  -50.2129   11.8052 H   0  0  0  0  0  0  0  0  0  0  0  0
  1 12  1  0  0  0  0
  2 12  2  0  0  0  0
  3 13  1  0  0  0  0
  4 13  2  0  0  0  0
  5  6  2  0  0  0  0
  5  7  1  0  0  0  0
  6  8  1  0  0  0  0
  7  9  2  0  0  0  0
  8 14  2  0  0  0  0
  9 14  1  0  0  0  0
 10 12  1  0  0  0  0
 10 15  1  0  0  0  0
 11 14  1  0  0  0  0
 11 15  1  0  0  0  0
 13 15  1  0  0  0  0
  1 16  1  0  0  0  0
  3 17  1  0  0  0  0
  5 18  1  0  0  0  0
  6 19  1  0  0  0  0
  7 20  1  0  0  0  0
  8 21  1  0  0  0  0
  9 22  1  0  0  0  0
 10 23  1  0  0  0  0
 10 24  1  0  0  0  0
 11 25  1  0  0  0  0
 11 26  1  0  0  0  0
 15 27  1  0  0  0  0
M  END
> <pdb_id>
4DUK

> <uniprot_id>
P29068

> <usmiles>
O=C(O)[C@H](Cc1ccccc1)CC(=O)O

$$$$
BZW_B_302
          07212403053D 1   1.00000     0.00000     0
            
 51 53  0  0  0  0            999 V2000
    3.3930   72.2170   58.8960 S   0  0  0  0  0  0  0  0  0  0  0  0
    3.5580   71.1640   59.8480 O   0  0  0  0  0  0  0  0  0  0  0  0
    2.4210   73.2540   59.2250 O   0  0  0  0  0  0  0  0  0  0  0  0
   -2.0230   72.4990   50.1630 O   0  0  0  0  0  0  0  0  0  0  0  0
    1.8240   68.1970   53.7900 O   0  0  0  0  0  0  0  0  0  0  0  0
    4.7790   72.9730   58.5990 N   0  0  0  0  0  0  0  0  0  0  0  0
    1.2610   70.0980   52.7400 N   0  0  0  0  0  0  0  0  0  0  0  0
   -0.7590   70.7620   50.8710 N   0  0  0  0  0  0  0  0  0  0  0  0
   -1.4190   70.9070   48.4980 C   0  0  0  0  0  0  0  0  0  0  0  0
    1.2770   69.4890   51.3900 C   0  0  0  0  0  0  0  0  0  0  0  0
   -0.1460   69.4300   50.8250 C   0  0  0  0  0  0  0  0  0  0  0  0
    0.6020   71.4070   52.8370 C   0  0  0  0  0  0  0  0  0  0  0  0
   -5.3770   69.5470   50.9320 C   0  0  0  0  0  0  0  0  0  0  0  0
   -5.1670   70.8300   51.4320 C   0  0  0  0  0  0  0  0  0  0  0  0
   -4.4600   68.5370   51.2100 C   0  0  0  0  0  0  0  0  0  0  0  0
    3.2600   71.8860   56.1740 C   0  0  0  0  0  0  0  0  0  0  0  0
    2.0970   70.2430   57.5030 C   0  0  0  0  0  0  0  0  0  0  0  0
   -4.0290   71.1030   52.1840 C   0  0  0  0  0  0  0  0  0  0  0  0
   -3.3690   68.7980   52.0370 C   0  0  0  0  0  0  0  0  0  0  0  0
    2.8180   71.2520   55.0220 C   0  0  0  0  0  0  0  0  0  0  0  0
    1.6390   69.6400   56.3470 C   0  0  0  0  0  0  0  0  0  0  0  0
   -1.7910   70.4120   53.1500 C   0  0  0  0  0  0  0  0  0  0  0  0
   -1.3750   71.4820   49.8900 C   0  0  0  0  0  0  0  0  0  0  0  0
    2.8370   71.4250   57.4130 C   0  0  0  0  0  0  0  0  0  0  0  0
    1.6420   69.3960   53.8320 C   0  0  0  0  0  0  0  0  0  0  0  0
   -0.8050   71.2230   52.2800 C   0  0  2  0  0  0  0  0  0  0  0  0
   -3.0900   70.0950   52.4440 C   0  0  0  0  0  0  0  0  0  0  0  0
    1.9930   70.1300   55.0980 C   0  0  0  0  0  0  0  0  0  0  0  0
    4.6252   73.7008   57.9307 H   0  0  0  0  0  0  0  0  0  0  0  0
    5.1315   73.3683   59.4472 H   0  0  0  0  0  0  0  0  0  0  0  0
   -0.8412   70.0919   48.4556 H   0  0  0  0  0  0  0  0  0  0  0  0
   -2.3606   70.6603   48.2688 H   0  0  0  0  0  0  0  0  0  0  0  0
   -1.0844   71.5871   47.8457 H   0  0  0  0  0  0  0  0  0  0  0  0
    1.6486   68.5625   51.4490 H   0  0  0  0  0  0  0  0  0  0  0  0
    1.8511   70.0404   50.7847 H   0  0  0  0  0  0  0  0  0  0  0  0
   -0.1132   69.1130   49.8771 H   0  0  0  0  0  0  0  0  0  0  0  0
   -0.6928   68.7947   51.3703 H   0  0  0  0  0  0  0  0  0  0  0  0
    1.1010   72.0861   52.2987 H   0  0  0  0  0  0  0  0  0  0  0  0
    0.5602   71.7033   53.7912 H   0  0  0  0  0  0  0  0  0  0  0  0
   -6.1842   69.3519   50.3749 H   0  0  0  0  0  0  0  0  0  0  0  0
   -5.8331   71.5535   51.2507 H   0  0  0  0  0  0  0  0  0  0  0  0
   -4.5839   67.6259   50.8170 H   0  0  0  0  0  0  0  0  0  0  0  0
    3.8787   72.6692   56.1123 H   0  0  0  0  0  0  0  0  0  0  0  0
    1.9007   69.8373   58.3957 H   0  0  0  0  0  0  0  0  0  0  0  0
   -3.8797   72.0248   52.5417 H   0  0  0  0  0  0  0  0  0  0  0  0
   -2.7834   68.0458   52.3391 H   0  0  0  0  0  0  0  0  0  0  0  0
    3.0939   71.6033   54.1273 H   0  0  0  0  0  0  0  0  0  0  0  0
    1.0439   68.8390   56.4115 H   0  0  0  0  0  0  0  0  0  0  0  0
   -1.9979   70.9414   53.9728 H   0  0  0  0  0  0  0  0  0  0  0  0
   -1.3522   69.5515   53.4089 H   0  0  0  0  0  0  0  0  0  0  0  0
   -1.1912   72.1445   52.2396 H   0  0  0  0  0  0  0  0  0  0  0  0
  1  2  2  0  0  0  0
  1  3  2  0  0  0  0
  1  6  1  0  0  0  0
  1 24  1  0  0  0  0
  4 23  2  0  0  0  0
  5 25  2  0  0  0  0
  7 10  1  0  0  0  0
  7 12  1  0  0  0  0
  7 25  1  0  0  0  0
  8 11  1  0  0  0  0
  8 23  1  0  0  0  0
  8 26  1  0  0  0  0
  9 23  1  0  0  0  0
 10 11  1  0  0  0  0
 12 26  1  0  0  0  0
 13 14  2  0  0  0  0
 13 15  1  0  0  0  0
 14 18  1  0  0  0  0
 15 19  2  0  0  0  0
 16 20  2  0  0  0  0
 16 24  1  0  0  0  0
 17 21  1  0  0  0  0
 17 24  2  0  0  0  0
 18 27  2  0  0  0  0
 19 27  1  0  0  0  0
 20 28  1  0  0  0  0
 21 28  2  0  0  0  0
 22 26  1  0  0  0  0
 22 27  1  0  0  0  0
 25 28  1  0  0  0  0
  6 29  1  0  0  0  0
  6 30  1  0  0  0  0
  9 31  1  0  0  0  0
  9 32  1  0  0  0  0
  9 33  1  0  0  0  0
 10 34  1  0  0  0  0
 10 35  1  0  0  0  0
 11 36  1  0  0  0  0
 11 37  1  0  0  0  0
 12 38  1  0  0  0  0
 12 39  1  0  0  0  0
 13 40  1  0  0  0  0
 14 41  1  0  0  0  0
 15 42  1  0  0  0  0
 16 43  1  0  0  0  0
 17 44  1  0  0  0  0
 18 45  1  0  0  0  0
 19 46  1  0  0  0  0
 20 47  1  0  0  0  0
 21 48  1  0  0  0  0
 22 49  1  0  0  0  0
 22 50  1  0  0  0  0
 26 51  1  0  0  0  0
M  END
> <pdb_id>
6EVR

> <uniprot_id>
P00915

> <usmiles>
S(=O)(=O)(N)c1ccc(cc1)C(=O)N2C[C@@H](N(C(=O)C)CC2)Cc3ccccc3

$$$$
BZX_B_1
          07202400463D 1   1.00000     0.00000     0
            
 16 17  0  0  0  0            999 V2000
   13.9190    0.8970   20.1870 O   0  0  0  0  0  0  0  0  0  0  0  0
   11.4370    0.3950   15.3500 O   0  0  0  0  0  0  0  0  0  0  0  0
   10.3620   -0.4370   17.1840 O   0  0  0  0  0  0  0  0  0  0  0  0
   10.2770   -0.3470   15.7560 C   0  0  0  0  0  0  0  0  0  0  0  0
   14.0330    1.3200   17.8330 C   0  0  0  0  0  0  0  0  0  0  0  0
   13.4860    1.2470   16.5390 C   0  0  0  0  0  0  0  0  0  0  0  0
   12.1090    0.1750   18.8550 C   0  0  0  0  0  0  0  0  0  0  0  0
   13.3590    0.7980   18.9530 C   0  0  0  0  0  0  0  0  0  0  0  0
   12.2400    0.6330   16.4330 C   0  0  0  0  0  0  0  0  0  0  0  0
   11.5540    0.0950   17.5970 C   0  0  0  0  0  0  0  0  0  0  0  0
   13.4416    0.5267   20.9839 H   0  0  0  0  0  0  0  0  0  0  0  0
   10.2848   -1.2595   15.3470 H   0  0  0  0  0  0  0  0  0  0  0  0
    9.4425    0.1327   15.4849 H   0  0  0  0  0  0  0  0  0  0  0  0
   14.9246    1.7544   17.9606 H   0  0  0  0  0  0  0  0  0  0  0  0
   13.9640    1.6146   15.7413 H   0  0  0  0  0  0  0  0  0  0  0  0
   11.6421   -0.1937   19.6588 H   0  0  0  0  0  0  0  0  0  0  0  0
  1  8  1  0  0  0  0
  2  4  1  0  0  0  0
  2  9  1  0  0  0  0
  3  4  1  0  0  0  0
  3 10  1  0  0  0  0
  5  6  1  0  0  0  0
  5  8  2  0  0  0  0
  6  9  2  0  0  0  0
  7  8  1  0  0  0  0
  7 10  2  0  0  0  0
  9 10  1  0  0  0  0
  1 11  1  0  0  0  0
  4 12  1  0  0  0  0
  4 13  1  0  0  0  0
  5 14  1  0  0  0  0
  6 15  1  0  0  0  0
  7 16  1  0  0  0  0
M  END
> <pdb_id>
3AO1

> <uniprot_id>
Q72498

> <usmiles>
O1c2c(OC1)ccc(O)c2

$$$$
C03_A_478
          07202408433D 1   1.00000     0.00000     0
            
 62 66  0  0  0  0            999 V2000
   19.5630    5.6330    8.7920 Cl  0  0  0  0  0  0  0  0  0  0  0  0
   19.9500    4.6200   16.9880 F   0  0  0  0  0  0  0  0  0  0  0  0
   19.1280    3.2360   15.5240 F   0  0  0  0  0  0  0  0  0  0  0  0
   18.0820    3.6260   17.4220 F   0  0  0  0  0  0  0  0  0  0  0  0
   14.1880   11.0690    7.2330 O   0  0  0  0  0  0  0  0  0  0  0  0
   13.6520    9.3050    8.4960 O   0  0  0  0  0  0  0  0  0  0  0  0
    9.9160    4.8200   13.0360 O   0  0  0  0  0  0  0  0  0  0  0  0
    9.1060    1.3610   16.4600 O   0  0  0  0  0  0  0  0  0  0  0  0
   15.5840    9.9040   10.3050 O   0  0  0  0  0  0  0  0  0  0  0  0
   18.1770    5.2480   15.8840 O   0  0  0  0  0  0  0  0  0  0  0  0
   11.0630    5.2530   12.4460 N   0  0  0  0  0  0  0  0  0  0  0  0
   15.7630    4.9160   11.4830 N   0  0  0  0  0  0  0  0  0  0  0  0
    8.3730    2.0540   17.4470 C   0  0  0  0  0  0  0  0  0  0  0  0
   14.1280   11.7970   10.2660 C   0  0  0  0  0  0  0  0  0  0  0  0
   13.6790    4.6670    9.9520 C   0  0  0  0  0  0  0  0  0  0  0  0
   16.8450    5.0030   10.4580 C   0  0  0  0  0  0  0  0  0  0  0  0
   18.6650    8.1390    8.8330 C   0  0  0  0  0  0  0  0  0  0  0  0
   17.7510    9.1930    9.1630 C   0  0  0  0  0  0  0  0  0  0  0  0
   11.3960    1.8370   15.6000 C   0  0  0  0  0  0  0  0  0  0  0  0
   15.7060    5.0230   15.8040 C   0  0  0  0  0  0  0  0  0  0  0  0
   12.2150    2.6010   14.7370 C   0  0  0  0  0  0  0  0  0  0  0  0
   14.5690    4.8940   15.0080 C   0  0  0  0  0  0  0  0  0  0  0  0
    9.3930    3.0830   14.7690 C   0  0  0  0  0  0  0  0  0  0  0  0
   17.1240    5.1010   13.7060 C   0  0  0  0  0  0  0  0  0  0  0  0
   16.2810    7.5630   10.3110 C   0  0  0  0  0  0  0  0  0  0  0  0
   14.2750   10.4740    8.2450 C   0  0  0  0  0  0  0  0  0  0  0  0
   18.3910    6.7900    9.2440 C   0  0  0  0  0  0  0  0  0  0  0  0
    9.9840    2.0600   15.6400 C   0  0  0  0  0  0  0  0  0  0  0  0
   16.5450    8.9190    9.9100 C   0  0  0  0  0  0  0  0  0  0  0  0
   17.0010    5.1260   15.1730 C   0  0  0  0  0  0  0  0  0  0  0  0
   15.1050   10.9540    9.4340 C   0  0  2  0  0  0  0  0  0  0  0  0
   10.2160    3.8320   13.9190 C   0  0  0  0  0  0  0  0  0  0  0  0
   14.3400    4.7660   11.3250 C   0  0  0  0  0  0  0  0  0  0  0  0
   15.9600    4.9680   12.8790 C   0  0  0  0  0  0  0  0  0  0  0  0
   12.1760    4.5870   12.8970 C   0  0  0  0  0  0  0  0  0  0  0  0
   17.1860    6.4530    9.9960 C   0  0  0  0  0  0  0  0  0  0  0  0
   11.6320    3.6550   13.8470 C   0  0  0  0  0  0  0  0  0  0  0  0
   14.7540    4.8640   13.4680 C   0  0  0  0  0  0  0  0  0  0  0  0
   13.6520    4.7270   12.5630 C   0  0  0  0  0  0  0  0  0  0  0  0
   18.8370    4.1520   16.4650 C   0  0  0  0  0  0  0  0  0  0  0  0
   14.6795   11.9321    7.1166 H   0  0  0  0  0  0  0  0  0  0  0  0
    7.7930    1.4096   17.9454 H   0  0  0  0  0  0  0  0  0  0  0  0
    9.0055    2.4946   18.0840 H   0  0  0  0  0  0  0  0  0  0  0  0
    7.8011    2.7488   17.0110 H   0  0  0  0  0  0  0  0  0  0  0  0
   13.7673   12.5411    9.7037 H   0  0  0  0  0  0  0  0  0  0  0  0
   13.3736   11.2203   10.5796 H   0  0  0  0  0  0  0  0  0  0  0  0
   14.6068   12.1786   11.0567 H   0  0  0  0  0  0  0  0  0  0  0  0
   12.6903    4.5678   10.0644 H   0  0  0  0  0  0  0  0  0  0  0  0
   13.8734    5.4962    9.4279 H   0  0  0  0  0  0  0  0  0  0  0  0
   14.0405    3.8722    9.4646 H   0  0  0  0  0  0  0  0  0  0  0  0
   16.5577    4.4794    9.6559 H   0  0  0  0  0  0  0  0  0  0  0  0
   17.6730    4.5954   10.8431 H   0  0  0  0  0  0  0  0  0  0  0  0
   19.4957    8.3434    8.3152 H   0  0  0  0  0  0  0  0  0  0  0  0
   17.9505   10.1289    8.8727 H   0  0  0  0  0  0  0  0  0  0  0  0
   11.8061    1.1374   16.1852 H   0  0  0  0  0  0  0  0  0  0  0  0
   15.6259    5.0440   16.8006 H   0  0  0  0  0  0  0  0  0  0  0  0
   13.2009    2.4346   14.7206 H   0  0  0  0  0  0  0  0  0  0  0  0
   13.6597    4.8228   15.4181 H   0  0  0  0  0  0  0  0  0  0  0  0
    8.4062    3.2445   14.7826 H   0  0  0  0  0  0  0  0  0  0  0  0
   18.0268    5.1774   13.2828 H   0  0  0  0  0  0  0  0  0  0  0  0
   15.4459    7.3693   10.8258 H   0  0  0  0  0  0  0  0  0  0  0  0
   15.8682   11.5181    9.1189 H   0  0  0  0  0  0  0  0  0  0  0  0
  1 27  1  0  0  0  0
  2 40  1  0  0  0  0
  3 40  1  0  0  0  0
  4 40  1  0  0  0  0
  5 26  1  0  0  0  0
  6 26  2  0  0  0  0
  7 11  1  0  0  0  0
  7 32  1  0  0  0  0
  8 13  1  0  0  0  0
  8 28  1  0  0  0  0
  9 29  1  0  0  0  0
  9 31  1  0  0  0  0
 10 30  1  0  0  0  0
 10 40  1  0  0  0  0
 11 35  2  0  0  0  0
 12 16  1  0  0  0  0
 12 33  1  0  0  0  0
 12 34  1  0  0  0  0
 14 31  1  0  0  0  0
 15 33  1  0  0  0  0
 16 36  1  0  0  0  0
 17 18  1  0  0  0  0
 17 27  2  0  0  0  0
 18 29  2  0  0  0  0
 19 21  1  0  0  0  0
 19 28  2  0  0  0  0
 20 22  1  0  0  0  0
 20 30  2  0  0  0  0
 21 37  2  0  0  0  0
 22 38  2  0  0  0  0
 23 28  1  0  0  0  0
 23 32  2  0  0  0  0
 24 30  1  0  0  0  0
 24 34  2  0  0  0  0
 25 29  1  0  0  0  0
 25 36  2  0  0  0  0
 26 31  1  0  0  0  0
 27 36  1  0  0  0  0
 32 37  1  0  0  0  0
 33 39  2  0  0  0  0
 34 38  1  0  0  0  0
 35 37  1  0  0  0  0
 35 39  1  0  0  0  0
 38 39  1  0  0  0  0
  5 41  1  0  0  0  0
 13 42  1  0  0  0  0
 13 43  1  0  0  0  0
 13 44  1  0  0  0  0
 14 45  1  0  0  0  0
 14 46  1  0  0  0  0
 14 47  1  0  0  0  0
 15 48  1  0  0  0  0
 15 49  1  0  0  0  0
 15 50  1  0  0  0  0
 16 51  1  0  0  0  0
 16 52  1  0  0  0  0
 17 53  1  0  0  0  0
 18 54  1  0  0  0  0
 19 55  1  0  0  0  0
 20 56  1  0  0  0  0
 21 57  1  0  0  0  0
 22 58  1  0  0  0  0
 23 59  1  0  0  0  0
 24 60  1  0  0  0  0
 25 61  1  0  0  0  0
 31 62  1  0  0  0  0
M  END
> <pdb_id>
2P4Y

> <uniprot_id>
P37231

> <usmiles>
Clc1c(cc(O[C@@H](C(=O)O)C)cc1)CN2c3c(ccc(OC(F)(F)F)c3)C(C4=NOc5c4ccc(OC)c5)=C2C

$$$$
C0P_A_1001
          07192420423D 1   1.00000     0.00000     0
            
 42 44  0  0  0  0            999 V2000
   66.2674   35.5263   21.3454 Cl  0  0  0  0  0  0  0  0  0  0  0  0
   74.0385   33.9582   26.2754 Cl  0  0  0  0  0  0  0  0  0  0  0  0
   69.5052   31.4128   24.9336 Cl  0  0  0  0  0  0  0  0  0  0  0  0
   75.9397   37.6067   23.0982 O   0  0  0  0  0  0  0  0  0  0  0  0
   72.4929   36.4058   25.8134 O   0  0  0  0  0  0  0  0  0  0  0  0
   65.0045   33.4710   25.6325 N   0  0  0  0  0  0  0  0  0  0  0  0
   65.6562   34.4331   23.6408 N   0  0  0  0  0  0  0  0  0  0  0  0
   67.2830   33.8147   25.3043 N   0  0  0  0  0  0  0  0  0  0  0  0
   74.1330   38.7525   25.0194 N   0  0  0  0  0  0  0  0  0  0  0  0
   75.0716   38.6994   22.7344 C   0  0  0  0  0  0  0  0  0  0  0  0
   76.2944   37.6860   24.4875 C   0  0  0  0  0  0  0  0  0  0  0  0
   71.9107   37.6890   25.4929 C   0  0  0  0  0  0  0  0  0  0  0  0
   73.7938   38.7071   23.5615 C   0  0  0  0  0  0  0  0  0  0  0  0
   75.0643   37.6308   25.3777 C   0  0  0  0  0  0  0  0  0  0  0  0
   72.8997   38.7528   25.8826 C   0  0  0  0  0  0  0  0  0  0  0  0
   67.9808   34.8059   23.2765 C   0  0  0  0  0  0  0  0  0  0  0  0
   71.6693   32.8712   25.5774 C   0  0  0  0  0  0  0  0  0  0  0  0
   70.3988   35.3316   25.1744 C   0  0  0  0  0  0  0  0  0  0  0  0
   66.6718   34.8545   22.8871 C   0  0  0  0  0  0  0  0  0  0  0  0
   66.0051   33.9267   24.8388 C   0  0  0  0  0  0  0  0  0  0  0  0
   72.3678   34.0482   25.7849 C   0  0  0  0  0  0  0  0  0  0  0  0
   70.3360   32.9132   25.1757 C   0  0  0  0  0  0  0  0  0  0  0  0
   71.7279   35.2940   25.5960 C   0  0  0  0  0  0  0  0  0  0  0  0
   68.2636   34.2698   24.5106 C   0  0  0  0  0  0  0  0  0  0  0  0
   69.6658   34.1530   24.9972 C   0  0  0  0  0  0  0  0  0  0  0  0
   65.2151   33.0861   26.5312 H   0  0  0  0  0  0  0  0  0  0  0  0
   64.0561   33.5197   25.3192 H   0  0  0  0  0  0  0  0  0  0  0  0
   74.8307   38.6131   21.7677 H   0  0  0  0  0  0  0  0  0  0  0  0
   75.5573   39.5611   22.8813 H   0  0  0  0  0  0  0  0  0  0  0  0
   76.7765   38.5466   24.6516 H   0  0  0  0  0  0  0  0  0  0  0  0
   76.8948   36.9191   24.7143 H   0  0  0  0  0  0  0  0  0  0  0  0
   71.0593   37.8131   26.0026 H   0  0  0  0  0  0  0  0  0  0  0  0
   71.7229   37.7420   24.5122 H   0  0  0  0  0  0  0  0  0  0  0  0
   73.2486   39.5105   23.3224 H   0  0  0  0  0  0  0  0  0  0  0  0
   73.2685   37.8783   23.3686 H   0  0  0  0  0  0  0  0  0  0  0  0
   74.5977   36.7561   25.2468 H   0  0  0  0  0  0  0  0  0  0  0  0
   75.3414   37.7209   26.3343 H   0  0  0  0  0  0  0  0  0  0  0  0
   72.4556   39.6453   25.8038 H   0  0  0  0  0  0  0  0  0  0  0  0
   73.1748   38.6000   26.8318 H   0  0  0  0  0  0  0  0  0  0  0  0
   68.7091   35.1490   22.6833 H   0  0  0  0  0  0  0  0  0  0  0  0
   72.1220   31.9903   25.7160 H   0  0  0  0  0  0  0  0  0  0  0  0
   69.9634   36.2140   24.9961 H   0  0  0  0  0  0  0  0  0  0  0  0
  1 19  1  0  0  0  0
  2 21  1  0  0  0  0
  3 22  1  0  0  0  0
  4 10  1  0  0  0  0
  4 11  1  0  0  0  0
  5 12  1  0  0  0  0
  5 23  1  0  0  0  0
  6 20  1  0  0  0  0
  7 19  1  0  0  0  0
  7 20  2  0  0  0  0
  8 20  1  0  0  0  0
  8 24  2  0  0  0  0
  9 13  1  0  0  0  0
  9 14  1  0  0  0  0
  9 15  1  0  0  0  0
 10 13  1  0  0  0  0
 11 14  1  0  0  0  0
 12 15  1  0  0  0  0
 16 19  2  0  0  0  0
 16 24  1  0  0  0  0
 17 21  2  0  0  0  0
 17 22  1  0  0  0  0
 18 23  2  0  0  0  0
 18 25  1  0  0  0  0
 21 23  1  0  0  0  0
 22 25  2  0  0  0  0
 24 25  1  0  0  0  0
  6 26  1  0  0  0  0
  6 27  1  0  0  0  0
 10 28  1  0  0  0  0
 10 29  1  0  0  0  0
 11 30  1  0  0  0  0
 11 31  1  0  0  0  0
 12 32  1  0  0  0  0
 12 33  1  0  0  0  0
 13 34  1  0  0  0  0
 13 35  1  0  0  0  0
 14 36  1  0  0  0  0
 14 37  1  0  0  0  0
 15 38  1  0  0  0  0
 15 39  1  0  0  0  0
 16 40  1  0  0  0  0
 17 41  1  0  0  0  0
 18 42  1  0  0  0  0
M  END
> <pdb_id>
2XHR

> <uniprot_id>
P07900

> <usmiles>
Clc1nc(nc(c2c(Cl)cc(Cl)c(OCCN3CCOCC3)c2)c1)N

$$$$
C0V_A_802
          07202413413D 1   1.00000     0.00000     0
            
 28 29  0  0  0  0            999 V2000
   39.2790   81.4440   63.6730 O   0  0  0  0  0  0  0  0  0  0  0  0
   37.9010   81.1290   65.3640 O   0  0  0  0  0  0  0  0  0  0  0  0
   37.2060   81.9360   62.0040 O   0  0  0  0  0  0  0  0  0  0  0  0
   35.4130   80.4600   61.0150 O   0  0  0  0  0  0  0  0  0  0  0  0
   30.1130   75.9560   61.4150 C   0  0  0  0  0  0  0  0  0  0  0  0
   30.0800   76.9450   60.3950 C   0  0  0  0  0  0  0  0  0  0  0  0
   31.1240   75.9320   62.3380 C   0  0  0  0  0  0  0  0  0  0  0  0
   31.0610   77.9000   60.3320 C   0  0  0  0  0  0  0  0  0  0  0  0
   33.2240   76.9050   63.2490 C   0  0  0  0  0  0  0  0  0  0  0  0
   34.2110   77.8650   63.1880 C   0  0  0  0  0  0  0  0  0  0  0  0
   36.1110   80.1870   63.2660 C   0  0  0  0  0  0  0  0  0  0  0  0
   33.1430   78.8660   61.2430 C   0  0  0  0  0  0  0  0  0  0  0  0
   38.1100   81.5290   64.0750 C   0  0  0  0  0  0  0  0  0  0  0  0
   36.9890   81.4000   63.1010 C   0  0  0  0  0  0  0  0  0  0  0  0
   35.1920   79.9190   62.0950 C   0  0  0  0  0  0  0  0  0  0  0  0
   32.1590   76.8980   62.3010 C   0  0  0  0  0  0  0  0  0  0  0  0
   34.1640   78.8660   62.1710 C   0  0  0  0  0  0  0  0  0  0  0  0
   32.1180   77.8890   61.2870 C   0  0  0  0  0  0  0  0  0  0  0  0
   39.5079   81.7191   62.7392 H   0  0  0  0  0  0  0  0  0  0  0  0
   29.3882   75.2685   61.4592 H   0  0  0  0  0  0  0  0  0  0  0  0
   29.3400   76.9441   59.7224 H   0  0  0  0  0  0  0  0  0  0  0  0
   31.1317   75.2252   63.0454 H   0  0  0  0  0  0  0  0  0  0  0  0
   31.0349   78.6010   59.6193 H   0  0  0  0  0  0  0  0  0  0  0  0
   33.2551   76.2071   63.9645 H   0  0  0  0  0  0  0  0  0  0  0  0
   34.9573   77.8605   63.8536 H   0  0  0  0  0  0  0  0  0  0  0  0
   35.5482   80.3166   64.0824 H   0  0  0  0  0  0  0  0  0  0  0  0
   36.7002   79.3887   63.3906 H   0  0  0  0  0  0  0  0  0  0  0  0
   33.1263   79.5658   60.5289 H   0  0  0  0  0  0  0  0  0  0  0  0
  1 13  1  0  0  0  0
  2 13  2  0  0  0  0
  3 14  2  0  0  0  0
  4 15  2  0  0  0  0
  5  6  1  0  0  0  0
  5  7  2  0  0  0  0
  6  8  2  0  0  0  0
  7 16  1  0  0  0  0
  8 18  1  0  0  0  0
  9 10  1  0  0  0  0
  9 16  2  0  0  0  0
 10 17  2  0  0  0  0
 11 14  1  0  0  0  0
 11 15  1  0  0  0  0
 12 17  1  0  0  0  0
 12 18  2  0  0  0  0
 13 14  1  0  0  0  0
 15 17  1  0  0  0  0
 16 18  1  0  0  0  0
  1 19  1  0  0  0  0
  5 20  1  0  0  0  0
  6 21  1  0  0  0  0
  7 22  1  0  0  0  0
  8 23  1  0  0  0  0
  9 24  1  0  0  0  0
 10 25  1  0  0  0  0
 11 26  1  0  0  0  0
 11 27  1  0  0  0  0
 12 28  1  0  0  0  0
M  END
> <pdb_id>
6AXB

> <uniprot_id>
A5U3K4

> <usmiles>
O=C(O)C(=O)CC(=O)c1cc2c(cc1)cccc2

$$$$
C0Z_A_1245
          07192422073D 1   1.00000     0.00000     0
            
 59 63  0  0  0  0            999 V2000
   42.5252   28.8444   12.2945 Cl  0  0  0  0  0  0  0  0  0  0  0  0
   34.5709   27.0890   14.5140 S   0  0  0  0  0  0  0  0  0  0  0  0
   34.3888   25.7916   15.0488 O   0  0  0  0  0  0  0  0  0  0  0  0
   33.8961   27.4359   13.3099 O   0  0  0  0  0  0  0  0  0  0  0  0
   36.1908   29.7261   16.8841 O   0  0  0  0  0  0  0  0  0  0  0  0
   34.1340   28.0613   15.7189 N   0  0  0  0  0  0  0  0  0  0  0  0
   36.2462   35.3770   21.8613 N   0  0  0  0  0  0  0  0  0  0  0  0
   34.5387   31.3134   17.0339 N   0  0  0  0  0  0  0  0  0  0  0  0
   35.7837   34.1811   22.5998 C   0  0  0  0  0  0  0  0  0  0  0  0
   35.0220   36.1367   21.5340 C   0  0  0  0  0  0  0  0  0  0  0  0
   33.2222   31.5555   16.4171 C   0  0  0  0  0  0  0  0  0  0  0  0
   39.9064   29.1116   11.5644 C   0  0  0  0  0  0  0  0  0  0  0  0
   32.8033   30.1694   15.9061 C   0  0  0  0  0  0  0  0  0  0  0  0
   37.2186   26.8457   15.1586 C   0  0  0  0  0  0  0  0  0  0  0  0
   34.6813   33.5650   17.8746 C   0  0  0  0  0  0  0  0  0  0  0  0
   38.2509   34.2088   20.8866 C   0  0  0  0  0  0  0  0  0  0  0  0
   38.5528   28.9266   11.7398 C   0  0  0  0  0  0  0  0  0  0  0  0
   38.5596   27.0391   14.9758 C   0  0  0  0  0  0  0  0  0  0  0  0
   37.7977   32.7514   20.6563 C   0  0  0  0  0  0  0  0  0  0  0  0
   35.2318   34.5203   18.7020 C   0  0  0  0  0  0  0  0  0  0  0  0
   40.3943   27.9381   13.6202 C   0  0  0  0  0  0  0  0  0  0  0  0
   36.7053   28.0205   13.1128 C   0  0  0  0  0  0  0  0  0  0  0  0
   36.1524   31.8964   18.8002 C   0  0  0  0  0  0  0  0  0  0  0  0
   40.8121   28.6082   12.5019 C   0  0  0  0  0  0  0  0  0  0  0  0
   36.2974   27.3393   14.2304 C   0  0  0  0  0  0  0  0  0  0  0  0
   35.0978   30.1589   16.5796 C   0  0  0  0  0  0  0  0  0  0  0  0
   34.1652   29.5135   15.5840 C   0  0  1  0  0  0  0  0  0  0  0  0
   35.1296   32.2380   17.9144 C   0  0  0  0  0  0  0  0  0  0  0  0
   36.9846   35.0466   20.5979 C   0  0  1  0  0  0  0  0  0  0  0  0
   39.0197   27.7288   13.8344 C   0  0  0  0  0  0  0  0  0  0  0  0
   38.0837   28.2321   12.8798 C   0  0  0  0  0  0  0  0  0  0  0  0
   36.7043   32.8706   19.6280 C   0  0  0  0  0  0  0  0  0  0  0  0
   36.2373   34.1779   19.5950 C   0  0  0  0  0  0  0  0  0  0  0  0
   34.7300   27.8380   16.4902 H   0  0  0  0  0  0  0  0  0  0  0  0
   36.5718   33.6199   22.8525 H   0  0  0  0  0  0  0  0  0  0  0  0
   35.2990   34.4667   23.4266 H   0  0  0  0  0  0  0  0  0  0  0  0
   35.1675   33.6486   22.0195 H   0  0  0  0  0  0  0  0  0  0  0  0
   35.2681   36.9644   21.0297 H   0  0  0  0  0  0  0  0  0  0  0  0
   34.4189   35.5708   20.9718 H   0  0  0  0  0  0  0  0  0  0  0  0
   34.5503   36.3889   22.3789 H   0  0  0  0  0  0  0  0  0  0  0  0
   33.2959   32.2072   15.6622 H   0  0  0  0  0  0  0  0  0  0  0  0
   32.5694   31.8996   17.0920 H   0  0  0  0  0  0  0  0  0  0  0  0
   40.2420   29.6077   10.7636 H   0  0  0  0  0  0  0  0  0  0  0  0
   32.2334   30.2419   15.0876 H   0  0  0  0  0  0  0  0  0  0  0  0
   32.3118   29.6569   16.6102 H   0  0  0  0  0  0  0  0  0  0  0  0
   36.8942   26.3473   15.9626 H   0  0  0  0  0  0  0  0  0  0  0  0
   33.9536   33.8220   17.2386 H   0  0  0  0  0  0  0  0  0  0  0  0
   38.9898   34.4543   20.2590 H   0  0  0  0  0  0  0  0  0  0  0  0
   38.5568   34.3408   21.8295 H   0  0  0  0  0  0  0  0  0  0  0  0
   37.9053   29.2811   11.0652 H   0  0  0  0  0  0  0  0  0  0  0  0
   39.2125   26.6926   15.6494 H   0  0  0  0  0  0  0  0  0  0  0  0
   37.4479   32.3496   21.5026 H   0  0  0  0  0  0  0  0  0  0  0  0
   38.5526   32.1945   20.3101 H   0  0  0  0  0  0  0  0  0  0  0  0
   34.9051   35.4644   18.6584 H   0  0  0  0  0  0  0  0  0  0  0  0
   41.0631   27.5990   14.2818 H   0  0  0  0  0  0  0  0  0  0  0  0
   36.0288   28.3673   12.4632 H   0  0  0  0  0  0  0  0  0  0  0  0
   36.4879   30.9552   18.8403 H   0  0  0  0  0  0  0  0  0  0  0  0
   34.4442   29.7583   14.6554 H   0  0  0  0  0  0  0  0  0  0  0  0
   37.2555   35.8983   20.1494 H   0  0  0  0  0  0  0  0  0  0  0  0
  1 24  1  0  0  0  0
  2  3  2  0  0  0  0
  2  4  2  0  0  0  0
  2  6  1  0  0  0  0
  2 25  1  0  0  0  0
  5 26  2  0  0  0  0
  6 27  1  0  0  0  0
  7  9  1  0  0  0  0
  7 10  1  0  0  0  0
  7 29  1  0  0  0  0
  8 11  1  0  0  0  0
  8 26  1  0  0  0  0
  8 28  1  0  0  0  0
 11 13  1  0  0  0  0
 12 17  2  0  0  0  0
 12 24  1  0  0  0  0
 13 27  1  0  0  0  0
 14 18  1  0  0  0  0
 14 25  2  0  0  0  0
 15 20  1  0  0  0  0
 15 28  2  0  0  0  0
 16 19  1  0  0  0  0
 16 29  1  0  0  0  0
 17 31  1  0  0  0  0
 18 30  2  0  0  0  0
 19 32  1  0  0  0  0
 20 33  2  0  0  0  0
 21 24  2  0  0  0  0
 21 30  1  0  0  0  0
 22 25  1  0  0  0  0
 22 31  2  0  0  0  0
 23 28  1  0  0  0  0
 23 32  2  0  0  0  0
 26 27  1  0  0  0  0
 29 33  1  0  0  0  0
 30 31  1  0  0  0  0
 32 33  1  0  0  0  0
  6 34  1  0  0  0  0
  9 35  1  0  0  0  0
  9 36  1  0  0  0  0
  9 37  1  0  0  0  0
 10 38  1  0  0  0  0
 10 39  1  0  0  0  0
 10 40  1  0  0  0  0
 11 41  1  0  0  0  0
 11 42  1  0  0  0  0
 12 43  1  0  0  0  0
 13 44  1  0  0  0  0
 13 45  1  0  0  0  0
 14 46  1  0  0  0  0
 15 47  1  0  0  0  0
 16 48  1  0  0  0  0
 16 49  1  0  0  0  0
 17 50  1  0  0  0  0
 18 51  1  0  0  0  0
 19 52  1  0  0  0  0
 19 53  1  0  0  0  0
 20 54  1  0  0  0  0
 21 55  1  0  0  0  0
 22 56  1  0  0  0  0
 23 57  1  0  0  0  0
 27 58  1  0  0  0  0
 29 59  1  0  0  0  0
M  END
> <pdb_id>
2Y7Z

> <uniprot_id>
P00742

> <usmiles>
Clc1cc2c(cc(S(=O)(=O)N[C@@H]3C(=O)N(c4cc5c(cc4)[C@@H](N(C)C)CC5)CC3)cc2)cc1

$$$$
C17_B_1498
          07212403183D 1   1.00000     0.00000     0
            
 33 35  0  0  0  0            999 V2000
   14.3904  131.4327   29.6146 Cl  0  0  0  0  0  0  0  0  0  0  0  0
   18.3778  129.8227   20.4238 O   0  0  0  0  0  0  0  0  0  0  0  0
   17.2332  124.0060   20.8646 O   0  0  0  0  0  0  0  0  0  0  0  0
   14.0174  128.9464   24.9051 O   0  0  0  0  0  0  0  0  0  0  0  0
   16.2420  125.5880   22.1288 O   0  0  0  0  0  0  0  0  0  0  0  0
   18.5104  128.6003   20.1301 C   0  0  0  0  0  0  0  0  0  0  0  0
   11.2316  129.6193   28.5572 C   0  0  0  0  0  0  0  0  0  0  0  0
   13.5684  128.0698   25.9661 C   0  0  0  0  0  0  0  0  0  0  0  0
   12.1063  130.4682   29.2439 C   0  0  0  0  0  0  0  0  0  0  0  0
   11.7064  128.8236   27.5106 C   0  0  0  0  0  0  0  0  0  0  0  0
   15.6970  129.5666   23.2074 C   0  0  0  0  0  0  0  0  0  0  0  0
   16.5816  129.3077   22.2398 C   0  0  0  0  0  0  0  0  0  0  0  0
   13.9209  129.7438   27.8285 C   0  0  0  0  0  0  0  0  0  0  0  0
   15.1296  127.3112   23.4975 C   0  0  0  0  0  0  0  0  0  0  0  0
   17.8737  126.1986   20.4973 C   0  0  0  0  0  0  0  0  0  0  0  0
   13.4539  130.5224   28.8791 C   0  0  0  0  0  0  0  0  0  0  0  0
   17.1225  125.2182   21.1502 C   0  0  0  0  0  0  0  0  0  0  0  0
   14.9708  128.5949   23.8352 C   0  0  0  0  0  0  0  0  0  0  0  0
   13.0532  128.8989   27.1368 C   0  0  0  0  0  0  0  0  0  0  0  0
   16.0866  126.9156   22.4576 C   0  0  0  0  0  0  0  0  0  0  0  0
   17.7165  127.5432   20.8381 C   0  0  0  0  0  0  0  0  0  0  0  0
   16.8170  127.9023   21.8268 C   0  0  0  0  0  0  0  0  0  0  0  0
   19.1554  128.3338   19.4138 H   0  0  0  0  0  0  0  0  0  0  0  0
   10.2662  129.5818   28.8152 H   0  0  0  0  0  0  0  0  0  0  0  0
   14.3318  127.5011   26.2724 H   0  0  0  0  0  0  0  0  0  0  0  0
   12.8329  127.4846   25.6245 H   0  0  0  0  0  0  0  0  0  0  0  0
   11.7676  131.0353   29.9947 H   0  0  0  0  0  0  0  0  0  0  0  0
   11.0863  128.2030   27.0308 H   0  0  0  0  0  0  0  0  0  0  0  0
   15.5601  130.5174   23.4852 H   0  0  0  0  0  0  0  0  0  0  0  0
   17.0800  130.0539   21.7985 H   0  0  0  0  0  0  0  0  0  0  0  0
   14.8849  129.7891   27.5664 H   0  0  0  0  0  0  0  0  0  0  0  0
   14.5879  126.6097   23.9605 H   0  0  0  0  0  0  0  0  0  0  0  0
   18.5249  125.9369   19.7850 H   0  0  0  0  0  0  0  0  0  0  0  0
  1 16  1  0  0  0  0
  2  6  2  0  0  0  0
  3 17  2  0  0  0  0
  4  8  1  0  0  0  0
  4 18  1  0  0  0  0
  5 17  1  0  0  0  0
  5 20  1  0  0  0  0
  6 21  1  0  0  0  0
  7  9  2  0  0  0  0
  7 10  1  0  0  0  0
  8 19  1  0  0  0  0
  9 16  1  0  0  0  0
 10 19  2  0  0  0  0
 11 12  1  0  0  0  0
 11 18  2  0  0  0  0
 12 22  2  0  0  0  0
 13 16  2  0  0  0  0
 13 19  1  0  0  0  0
 14 18  1  0  0  0  0
 14 20  2  0  0  0  0
 15 17  1  0  0  0  0
 15 21  2  0  0  0  0
 20 22  1  0  0  0  0
 21 22  1  0  0  0  0
  6 23  1  0  0  0  0
  7 24  1  0  0  0  0
  8 25  1  0  0  0  0
  8 26  1  0  0  0  0
  9 27  1  0  0  0  0
 10 28  1  0  0  0  0
 11 29  1  0  0  0  0
 12 30  1  0  0  0  0
 13 31  1  0  0  0  0
 14 32  1  0  0  0  0
 15 33  1  0  0  0  0
M  END
> <pdb_id>
2V60

> <uniprot_id>
P27338

> <usmiles>
Clc1cc(ccc1)COc2cc3OC(=O)C=C(c3cc2)C=O

$$$$
C1M_B_1250
          07202416143D 1   1.00000     0.00000     0
            
 17 18  0  0  0  0            999 V2000
   16.6269   -8.1169   10.7461 Cl  0  0  0  0  0  0  0  0  0  0  0  0
   16.9300  -14.3190   15.9157 N   0  0  0  0  0  0  0  0  0  0  0  0
   17.1245  -13.0959   15.5576 N   0  0  0  0  0  0  0  0  0  0  0  0
   16.3684  -14.9740   14.9768 N   0  0  0  0  0  0  0  0  0  0  0  0
   16.6506  -12.9595   14.2396 N   0  0  0  0  0  0  0  0  0  0  0  0
   16.1922  -14.2010   13.9362 C   0  0  0  0  0  0  0  0  0  0  0  0
   17.5239  -10.5566   11.5295 C   0  0  0  0  0  0  0  0  0  0  0  0
   15.7253   -9.6513   12.8183 C   0  0  0  0  0  0  0  0  0  0  0  0
   17.5383  -11.6861   12.3472 C   0  0  0  0  0  0  0  0  0  0  0  0
   15.7407  -10.7659   13.6382 C   0  0  0  0  0  0  0  0  0  0  0  0
   16.6164   -9.5376   11.7591 C   0  0  0  0  0  0  0  0  0  0  0  0
   16.6502  -11.7999   13.4144 C   0  0  0  0  0  0  0  0  0  0  0  0
   15.7404  -14.4950   13.0022 H   0  0  0  0  0  0  0  0  0  0  0  0
   18.2229  -10.4779   10.7128 H   0  0  0  0  0  0  0  0  0  0  0  0
   15.0239   -8.8537   13.0132 H   0  0  0  0  0  0  0  0  0  0  0  0
   18.2456  -12.4777   12.1554 H   0  0  0  0  0  0  0  0  0  0  0  0
   15.0366  -10.8395   14.4530 H   0  0  0  0  0  0  0  0  0  0  0  0
  1 11  1  0  0  0  0
  2  3  2  0  0  0  0
  2  4  1  0  0  0  0
  3  5  1  0  0  0  0
  4  6  2  0  0  0  0
  5  6  1  0  0  0  0
  5 12  1  0  0  0  0
  6 13  1  0  0  0  0
  7  9  2  0  0  0  0
  7 11  1  0  0  0  0
  7 14  1  0  0  0  0
  8 10  1  0  0  0  0
  8 11  2  0  0  0  0
  8 15  1  0  0  0  0
  9 12  1  0  0  0  0
  9 16  1  0  0  0  0
 10 12  2  0  0  0  0
 10 17  1  0  0  0  0
M  END
> <pdb_id>
2C90

> <uniprot_id>
P00734

> <usmiles>
Clc1ccc(N2N=NN=C2)cc1

$$$$
C1Y_A_301
          07202413423D 1   1.00000     0.00000     0
            
 41 43  0  0  0  0            999 V2000
  -27.1427   24.3326    3.5194 O   0  0  0  0  0  0  0  0  0  0  0  0
  -24.4146   23.1926   12.3634 N   0  0  0  0  0  0  0  0  0  0  0  0
  -26.3785   22.6155   11.1784 N   0  0  0  0  0  0  0  0  0  0  0  0
  -26.4262   22.3126    8.8310 N   0  0  0  0  0  0  0  0  0  0  0  0
  -23.0682   23.1667    9.5375 N   0  0  0  0  0  0  0  0  0  0  0  0
  -25.2097   23.3913    5.4034 N   0  0  0  0  0  0  0  0  0  0  0  0
  -26.9814   28.9569    6.5404 C   0  0  0  0  0  0  0  0  0  0  0  0
  -27.0250   22.3211   10.0301 C   0  0  0  0  0  0  0  0  0  0  0  0
  -22.9623   23.0118    8.1849 C   0  0  0  0  0  0  0  0  0  0  0  0
  -26.6689   23.2871    5.6053 C   0  0  0  0  0  0  0  0  0  0  0  0
  -24.4271   22.4119    6.1547 C   0  0  0  0  0  0  0  0  0  0  0  0
  -24.8388   24.8238    5.5732 C   0  0  0  0  0  0  0  0  0  0  0  0
  -25.9716   27.8286    6.6830 C   0  0  0  0  0  0  0  0  0  0  0  0
  -26.5627   26.4049    6.6134 C   0  0  0  0  0  0  0  0  0  0  0  0
  -25.0541   22.9105   11.2095 C   0  0  0  0  0  0  0  0  0  0  0  0
  -27.1424   24.5536    4.9376 C   0  0  1  0  0  0  0  0  0  0  0  0
  -24.3192   22.9263    9.9360 C   0  0  0  0  0  0  0  0  0  0  0  0
  -25.1042   22.6033    8.7572 C   0  0  0  0  0  0  0  0  0  0  0  0
  -24.1837   22.6813    7.6195 C   0  0  0  0  0  0  0  0  0  0  0  0
  -26.1322   25.6118    5.3636 C   0  0  2  0  0  0  0  0  0  0  0  0
  -27.4539   25.1607    3.0531 H   0  0  0  0  0  0  0  0  0  0  0  0
  -23.4377   23.4063   12.3543 H   0  0  0  0  0  0  0  0  0  0  0  0
  -24.9174   23.1880   13.2277 H   0  0  0  0  0  0  0  0  0  0  0  0
  -22.3153   23.4236   10.1435 H   0  0  0  0  0  0  0  0  0  0  0  0
  -26.5089   29.8364    6.5977 H   0  0  0  0  0  0  0  0  0  0  0  0
  -27.4414   28.8828    5.6556 H   0  0  0  0  0  0  0  0  0  0  0  0
  -27.6579   28.8936    7.2741 H   0  0  0  0  0  0  0  0  0  0  0  0
  -27.9987   22.0984   10.0766 H   0  0  0  0  0  0  0  0  0  0  0  0
  -22.1130   23.1227    7.6688 H   0  0  0  0  0  0  0  0  0  0  0  0
  -26.9053   23.2735    6.5769 H   0  0  0  0  0  0  0  0  0  0  0  0
  -27.0443   22.4744    5.1596 H   0  0  0  0  0  0  0  0  0  0  0  0
  -23.5333   22.3410    5.7118 H   0  0  0  0  0  0  0  0  0  0  0  0
  -24.9028   21.5349    6.0876 H   0  0  0  0  0  0  0  0  0  0  0  0
  -24.1543   25.0899    4.8945 H   0  0  0  0  0  0  0  0  0  0  0  0
  -24.4774   24.9842    6.4917 H   0  0  0  0  0  0  0  0  0  0  0  0
  -25.5157   27.9314    7.5670 H   0  0  0  0  0  0  0  0  0  0  0  0
  -25.2993   27.9207    5.9485 H   0  0  0  0  0  0  0  0  0  0  0  0
  -27.5601   26.4775    6.6124 H   0  0  0  0  0  0  0  0  0  0  0  0
  -26.2659   25.9006    7.4243 H   0  0  0  0  0  0  0  0  0  0  0  0
  -28.0592   24.7959    5.2551 H   0  0  0  0  0  0  0  0  0  0  0  0
  -25.9993   26.2520    4.6070 H   0  0  0  0  0  0  0  0  0  0  0  0
  1 16  1  0  0  0  0
  2 15  1  0  0  0  0
  3  8  1  0  0  0  0
  3 15  2  0  0  0  0
  4  8  2  0  0  0  0
  4 18  1  0  0  0  0
  5  9  1  0  0  0  0
  5 17  1  0  0  0  0
  6 10  1  0  0  0  0
  6 11  1  0  0  0  0
  6 12  1  0  0  0  0
  7 13  1  0  0  0  0
  9 19  2  0  0  0  0
 10 16  1  0  0  0  0
 11 19  1  0  0  0  0
 12 20  1  0  0  0  0
 13 14  1  0  0  0  0
 14 20  1  0  0  0  0
 15 17  1  0  0  0  0
 16 20  1  0  0  0  0
 17 18  2  0  0  0  0
 18 19  1  0  0  0  0
  1 21  1  0  0  0  0
  2 22  1  0  0  0  0
  2 23  1  0  0  0  0
  5 24  1  0  0  0  0
  7 25  1  0  0  0  0
  7 26  1  0  0  0  0
  7 27  1  0  0  0  0
  8 28  1  0  0  0  0
  9 29  1  0  0  0  0
 10 30  1  0  0  0  0
 10 31  1  0  0  0  0
 11 32  1  0  0  0  0
 11 33  1  0  0  0  0
 12 34  1  0  0  0  0
 12 35  1  0  0  0  0
 13 36  1  0  0  0  0
 13 37  1  0  0  0  0
 14 38  1  0  0  0  0
 14 39  1  0  0  0  0
 16 40  1  0  0  0  0
 20 41  1  0  0  0  0
M  END
> <pdb_id>
6AYO

> <uniprot_id>
nan

> <usmiles>
O[C@@H]1[C@H](CN(CC=2c3ncnc(N)c3NC2)C1)CCC

$$$$
C2P_A_126
          07202402503D 1   1.00000     0.00000     0
            
 35 36  0  0  0  0            999 V2000
   36.4251    3.4743   12.9221 P   0  0  0  0  0  0  0  0  0  0  0  0
   34.9214    3.2716   13.0700 O   0  0  0  0  0  0  0  0  0  0  0  0
   36.8863    4.5776   12.0927 O   0  0  0  0  0  0  0  0  0  0  0  0
   36.9714    3.5814   14.3520 O   0  0  0  0  0  0  0  0  0  0  0  0
   40.5294   -1.4182   13.3255 O   0  0  0  0  0  0  0  0  0  0  0  0
   34.8698   -0.8937   10.5665 O   0  0  0  0  0  0  0  0  0  0  0  0
   38.6463    1.4417   14.4142 O   0  0  0  0  0  0  0  0  0  0  0  0
   37.0462    2.1987   12.3559 O   0  0  0  0  0  0  0  0  0  0  0  0
   38.3907   -0.6053   11.5040 O   0  0  0  0  0  0  0  0  0  0  0  0
   34.7046   -5.2306   12.2381 N   0  0  0  0  0  0  0  0  0  0  0  0
   34.7454   -3.0162   11.3848 N   0  0  0  0  0  0  0  0  0  0  0  0
   36.3912   -1.5644   11.9410 N   0  0  0  0  0  0  0  0  0  0  0  0
   40.5763   -0.0533   12.9496 C   0  0  0  0  0  0  0  0  0  0  0  0
   36.9423   -2.5220   12.6613 C   0  0  0  0  0  0  0  0  0  0  0  0
   36.4430   -3.7513   12.7718 C   0  0  0  0  0  0  0  0  0  0  0  0
   35.2826   -1.8058   11.2157 C   0  0  0  0  0  0  0  0  0  0  0  0
   38.1410    0.3510   13.6217 C   0  0  2  0  0  0  0  0  0  0  0  0
   36.9786   -0.3110   11.6293 C   0  0  1  0  0  0  0  0  0  0  0  0
   35.2388   -4.0162   12.1046 C   0  0  0  0  0  0  0  0  0  0  0  0
   39.1531    0.1932   12.4498 C   0  0  2  0  0  0  0  0  0  0  0  0
   36.9022    0.7784   12.7287 C   0  0  2  0  0  0  0  0  0  0  0  0
   34.7478    2.4846   13.6620 H   0  0  0  0  0  0  0  0  0  0  0  0
   37.8861    4.5930   12.0843 H   0  0  0  0  0  0  0  0  0  0  0  0
   41.4233   -1.6984   13.6753 H   0  0  0  0  0  0  0  0  0  0  0  0
   38.0376    1.5985   15.1920 H   0  0  0  0  0  0  0  0  0  0  0  0
   35.1581   -5.9165   12.8071 H   0  0  0  0  0  0  0  0  0  0  0  0
   33.8503   -5.4553   11.7693 H   0  0  0  0  0  0  0  0  0  0  0  0
   41.2471    0.1000   12.2240 H   0  0  0  0  0  0  0  0  0  0  0  0
   40.7921    0.5310   13.7320 H   0  0  0  0  0  0  0  0  0  0  0  0
   37.7865   -2.3120   13.1544 H   0  0  0  0  0  0  0  0  0  0  0  0
   36.9075   -4.4561   13.3081 H   0  0  0  0  0  0  0  0  0  0  0  0
   37.9920   -0.4900   14.1418 H   0  0  0  0  0  0  0  0  0  0  0  0
   36.6168    0.0389   10.7652 H   0  0  0  0  0  0  0  0  0  0  0  0
   39.1915    1.1011   12.0323 H   0  0  0  0  0  0  0  0  0  0  0  0
   36.0598    0.6587   13.2540 H   0  0  0  0  0  0  0  0  0  0  0  0
  1  2  1  0  0  0  0
  1  3  1  0  0  0  0
  1  4  2  0  0  0  0
  1  8  1  0  0  0  0
  5 13  1  0  0  0  0
  6 16  2  0  0  0  0
  7 17  1  0  0  0  0
  8 21  1  0  0  0  0
  9 18  1  0  0  0  0
  9 20  1  0  0  0  0
 10 19  1  0  0  0  0
 11 16  1  0  0  0  0
 11 19  2  0  0  0  0
 12 14  1  0  0  0  0
 12 16  1  0  0  0  0
 12 18  1  0  0  0  0
 13 20  1  0  0  0  0
 14 15  2  0  0  0  0
 15 19  1  0  0  0  0
 17 20  1  0  0  0  0
 17 21  1  0  0  0  0
 18 21  1  0  0  0  0
  2 22  1  0  0  0  0
  3 23  1  0  0  0  0
  5 24  1  0  0  0  0
  7 25  1  0  0  0  0
 10 26  1  0  0  0  0
 10 27  1  0  0  0  0
 13 28  1  0  0  0  0
 13 29  1  0  0  0  0
 14 30  1  0  0  0  0
 15 31  1  0  0  0  0
 17 32  1  0  0  0  0
 18 33  1  0  0  0  0
 20 34  1  0  0  0  0
 21 35  1  0  0  0  0
M  END
> <pdb_id>
1ROB

> <uniprot_id>
P61823

> <usmiles>
P(=O)(O[C@H]1[C@@H](O[C@@H]([C@H]1O)CO)N2C(=O)N=C(N)C=C2)(O)O

$$$$
C2U_A_351
          07202404183D 1   1.00000     0.00000     0
            
 16 16  0  0  0  0            999 V2000
    5.4369   -5.6631   13.8847 Cl  0  0  0  0  0  0  0  0  0  0  0  0
    3.7743   -8.1471   18.4038 Cl  0  0  0  0  0  0  0  0  0  0  0  0
    7.1603   -2.8587   18.0086 O   0  0  0  0  0  0  0  0  0  0  0  0
    6.3209   -3.8297   19.8100 O   0  0  0  0  0  0  0  0  0  0  0  0
    5.1675   -6.0113   19.7320 O   0  0  0  0  0  0  0  0  0  0  0  0
    4.6806   -6.8162   16.2222 C   0  0  0  0  0  0  0  0  0  0  0  0
    5.9796   -4.7651   16.3893 C   0  0  0  0  0  0  0  0  0  0  0  0
    5.3739   -5.7681   15.6459 C   0  0  0  0  0  0  0  0  0  0  0  0
    6.5419   -3.7792   18.5887 C   0  0  0  0  0  0  0  0  0  0  0  0
    4.6507   -6.8485   17.6002 C   0  0  0  0  0  0  0  0  0  0  0  0
    5.2556   -5.8953   18.3809 C   0  0  0  0  0  0  0  0  0  0  0  0
    5.9151   -4.8457   17.7664 C   0  0  0  0  0  0  0  0  0  0  0  0
    7.2958   -2.8940   17.0185 H   0  0  0  0  0  0  0  0  0  0  0  0
    5.6001   -5.3292   20.3217 H   0  0  0  0  0  0  0  0  0  0  0  0
    4.2250   -7.5137   15.6690 H   0  0  0  0  0  0  0  0  0  0  0  0
    6.4497   -4.0051   15.9405 H   0  0  0  0  0  0  0  0  0  0  0  0
  1  8  1  0  0  0  0
  2 10  1  0  0  0  0
  3  9  1  0  0  0  0
  4  9  2  0  0  0  0
  5 11  1  0  0  0  0
  6  8  2  0  0  0  0
  6 10  1  0  0  0  0
  7  8  1  0  0  0  0
  7 12  2  0  0  0  0
  9 12  1  0  0  0  0
 10 11  2  0  0  0  0
 11 12  1  0  0  0  0
  3 13  1  0  0  0  0
  5 14  1  0  0  0  0
  6 15  1  0  0  0  0
  7 16  1  0  0  0  0
M  END
> <pdb_id>
3C3U

> <uniprot_id>
Q04828

> <usmiles>
Clc1c(O)c(cc(Cl)c1)C(=O)O

$$$$
C2Y_B_1202
          07192420223D 1   1.00000     0.00000     0
            
 22 23  0  0  0  0            999 V2000
    6.0435   14.2113    8.7977 O   0  0  0  0  0  0  0  0  0  0  0  0
    7.5231   12.5421    9.0632 O   0  0  0  0  0  0  0  0  0  0  0  0
    9.5492   16.5675    8.5597 N   0  0  0  0  0  0  0  0  0  0  0  0
    6.4558   11.5772    8.9314 C   0  0  0  0  0  0  0  0  0  0  0  0
    8.2903   16.0689    8.7409 C   0  0  0  0  0  0  0  0  0  0  0  0
   12.5097   14.3322    8.5092 C   0  0  0  0  0  0  0  0  0  0  0  0
   11.8246   13.1511    8.7553 C   0  0  0  0  0  0  0  0  0  0  0  0
   11.8350   15.5387    8.4298 C   0  0  0  0  0  0  0  0  0  0  0  0
   10.4451   13.1503    8.9297 C   0  0  0  0  0  0  0  0  0  0  0  0
    7.1769   13.8243    8.9259 C   0  0  0  0  0  0  0  0  0  0  0  0
   10.4519   15.5345    8.5975 C   0  0  0  0  0  0  0  0  0  0  0  0
    8.3407   14.7041    8.8907 C   0  0  0  0  0  0  0  0  0  0  0  0
    9.7388   14.3418    8.8335 C   0  0  0  0  0  0  0  0  0  0  0  0
    9.7766   17.5314    8.4215 H   0  0  0  0  0  0  0  0  0  0  0  0
    6.8235   10.6550    9.0512 H   0  0  0  0  0  0  0  0  0  0  0  0
    5.7604   11.7519    9.6284 H   0  0  0  0  0  0  0  0  0  0  0  0
    6.0448   11.6568    8.0232 H   0  0  0  0  0  0  0  0  0  0  0  0
    7.4542   16.6171    8.7614 H   0  0  0  0  0  0  0  0  0  0  0  0
   13.5020   14.3119    8.3877 H   0  0  0  0  0  0  0  0  0  0  0  0
   12.3293   12.2894    8.8080 H   0  0  0  0  0  0  0  0  0  0  0  0
   12.3279   16.3914    8.2565 H   0  0  0  0  0  0  0  0  0  0  0  0
    9.9639   12.2955    9.1234 H   0  0  0  0  0  0  0  0  0  0  0  0
  1 10  2  0  0  0  0
  2  4  1  0  0  0  0
  2 10  1  0  0  0  0
  3  5  1  0  0  0  0
  3 11  1  0  0  0  0
  5 12  2  0  0  0  0
  6  7  2  0  0  0  0
  6  8  1  0  0  0  0
  7  9  1  0  0  0  0
  8 11  2  0  0  0  0
  9 13  2  0  0  0  0
 10 12  1  0  0  0  0
 11 13  1  0  0  0  0
 12 13  1  0  0  0  0
  3 14  1  0  0  0  0
  4 15  1  0  0  0  0
  4 16  1  0  0  0  0
  4 17  1  0  0  0  0
  5 18  1  0  0  0  0
  6 19  1  0  0  0  0
  7 20  1  0  0  0  0
  8 21  1  0  0  0  0
  9 22  1  0  0  0  0
M  END
> <pdb_id>
6AXQ

> <uniprot_id>
Q92793

> <usmiles>
O=C(OC)C=1c2c(NC1)cccc2

$$$$
C3B_A_998
          07202400133D 1   1.00000     0.00000     0
            
 34 35  0  0  0  0            999 V2000
   33.2851   18.6391   27.3800 O   0  0  0  0  0  0  0  0  0  0  0  0
   32.4698   24.1723   30.1398 O   0  0  0  0  0  0  0  0  0  0  0  0
   33.9522   24.5886   26.1166 O   0  0  0  0  0  0  0  0  0  0  0  0
   32.9594   22.6650   24.1645 O   0  0  0  0  0  0  0  0  0  0  0  0
   31.4979   20.5056   25.1528 O   0  0  0  0  0  0  0  0  0  0  0  0
   33.2553   21.5263   28.3093 O   0  0  0  0  0  0  0  0  0  0  0  0
   36.5647   25.0889   32.0287 N   0  0  0  0  0  0  0  0  0  0  0  0
   34.5638   24.6064   31.0238 N   0  0  0  0  0  0  0  0  0  0  0  0
   34.3928   23.4866   28.8963 N   0  0  0  0  0  0  0  0  0  0  0  0
   32.1445   19.4145   27.9347 C   0  0  0  0  0  0  0  0  0  0  0  0
   35.8498   23.4322   28.8392 C   0  0  0  0  0  0  0  0  0  0  0  0
   36.6418   23.9558   29.8583 C   0  0  0  0  0  0  0  0  0  0  0  0
   33.7518   24.0687   29.9797 C   0  0  0  0  0  0  0  0  0  0  0  0
   35.9008   24.5852   31.0335 C   0  0  0  0  0  0  0  0  0  0  0  0
   33.4208   22.9793   27.9260 C   0  0  1  0  0  0  0  0  0  0  0  0
   33.7977   23.1694   26.4198 C   0  0  1  0  0  0  0  0  0  0  0  0
   32.6626   22.5395   25.5607 C   0  0  2  0  0  0  0  0  0  0  0  0
   32.5430   21.0874   25.9210 C   0  0  1  0  0  0  0  0  0  0  0  0
   32.2481   20.9122   27.4512 C   0  0  2  0  0  0  0  0  0  0  0  0
   33.2219   17.6889   27.6850 H   0  0  0  0  0  0  0  0  0  0  0  0
   34.1928   24.6992   25.1523 H   0  0  0  0  0  0  0  0  0  0  0  0
   32.2209   22.2557   23.6287 H   0  0  0  0  0  0  0  0  0  0  0  0
   31.4115   19.5373   25.3870 H   0  0  0  0  0  0  0  0  0  0  0  0
   37.5645   25.0672   32.0248 H   0  0  0  0  0  0  0  0  0  0  0  0
   36.0765   25.4986   32.7993 H   0  0  0  0  0  0  0  0  0  0  0  0
   32.1737   19.3831   28.9337 H   0  0  0  0  0  0  0  0  0  0  0  0
   31.2841   19.0187   27.6138 H   0  0  0  0  0  0  0  0  0  0  0  0
   36.2909   23.0081   28.0482 H   0  0  0  0  0  0  0  0  0  0  0  0
   37.6405   23.9210   29.8216 H   0  0  0  0  0  0  0  0  0  0  0  0
   32.5501   23.4435   28.0883 H   0  0  0  0  0  0  0  0  0  0  0  0
   34.6576   22.6951   26.2312 H   0  0  0  0  0  0  0  0  0  0  0  0
   31.7992   23.0032   25.7597 H   0  0  0  0  0  0  0  0  0  0  0  0
   33.4028   20.6265   25.7012 H   0  0  0  0  0  0  0  0  0  0  0  0
   31.3728   21.3554   27.6448 H   0  0  0  0  0  0  0  0  0  0  0  0
  1 10  1  0  0  0  0
  2 13  2  0  0  0  0
  3 16  1  0  0  0  0
  4 17  1  0  0  0  0
  5 18  1  0  0  0  0
  6 15  1  0  0  0  0
  6 19  1  0  0  0  0
  7 14  1  0  0  0  0
  8 13  1  0  0  0  0
  8 14  2  0  0  0  0
  9 11  1  0  0  0  0
  9 13  1  0  0  0  0
  9 15  1  0  0  0  0
 10 19  1  0  0  0  0
 11 12  2  0  0  0  0
 12 14  1  0  0  0  0
 15 16  1  0  0  0  0
 16 17  1  0  0  0  0
 17 18  1  0  0  0  0
 18 19  1  0  0  0  0
  1 20  1  0  0  0  0
  3 21  1  0  0  0  0
  4 22  1  0  0  0  0
  5 23  1  0  0  0  0
  7 24  1  0  0  0  0
  7 25  1  0  0  0  0
 10 26  1  0  0  0  0
 10 27  1  0  0  0  0
 11 28  1  0  0  0  0
 12 29  1  0  0  0  0
 15 30  1  0  0  0  0
 16 31  1  0  0  0  0
 17 32  1  0  0  0  0
 18 33  1  0  0  0  0
 19 34  1  0  0  0  0
M  END
> <pdb_id>
3BD8

> <uniprot_id>
P00489

> <usmiles>
O=C1N=C(N)C=CN1[C@@H]2O[C@@H]([C@@H](O)[C@H](O)[C@H]2O)CO

$$$$
C3D_A_999
          07192417253D 1   1.00000     0.00000     0
            
 62 66  0  0  0  0            999 V2000
   24.2045   22.2344   67.8749 O   0  0  0  0  0  0  0  0  0  0  0  0
   29.3322   28.9996   64.7141 O   0  0  0  0  0  0  0  0  0  0  0  0
   30.8512   28.3632   62.1131 N   0  0  0  0  0  0  0  0  0  0  0  0
   30.7133   28.9817   64.5556 C   0  0  0  0  0  0  0  0  0  0  0  0
   30.9947   29.4207   63.1277 C   0  0  0  0  0  0  0  0  0  0  0  0
   31.5574   28.6637   60.8312 C   0  0  0  0  0  0  0  0  0  0  0  0
   29.4378   28.1822   61.6807 C   0  0  0  0  0  0  0  0  0  0  0  0
   30.6148   28.3634   59.6506 C   0  0  0  0  0  0  0  0  0  0  0  0
   29.4884   27.5213   60.2785 C   0  0  0  0  0  0  0  0  0  0  0  0
   27.0711   32.3236   70.1414 C   0  0  0  0  0  0  0  0  0  0  0  0
   27.1664   31.4344   71.1637 C   0  0  0  0  0  0  0  0  0  0  0  0
   26.4346   31.8998   69.0057 C   0  0  0  0  0  0  0  0  0  0  0  0
   26.0935   23.5826   68.3737 C   0  0  0  0  0  0  0  0  0  0  0  0
   26.6377   30.1428   71.0875 C   0  0  0  0  0  0  0  0  0  0  0  0
   25.9265   30.6205   68.9084 C   0  0  0  0  0  0  0  0  0  0  0  0
   27.3887   28.1229   65.7128 C   0  0  0  0  0  0  0  0  0  0  0  0
   29.2670   28.5565   67.1261 C   0  0  0  0  0  0  0  0  0  0  0  0
   26.6728   27.7408   66.7941 C   0  0  0  0  0  0  0  0  0  0  0  0
   28.5414   28.1583   68.2223 C   0  0  0  0  0  0  0  0  0  0  0  0
   23.4087   26.8455   69.2948 C   0  0  0  0  0  0  0  0  0  0  0  0
   26.6215   24.7919   68.7764 C   0  0  0  0  0  0  0  0  0  0  0  0
   24.0644   28.2165   69.1089 C   0  0  0  0  0  0  0  0  0  0  0  0
   23.8721   24.5029   68.5834 C   0  0  0  0  0  0  0  0  0  0  0  0
   24.7275   23.4314   68.2882 C   0  0  0  0  0  0  0  0  0  0  0  0
   28.6826   28.5630   65.8638 C   0  0  0  0  0  0  0  0  0  0  0  0
   26.0275   29.7020   69.9483 C   0  0  0  0  0  0  0  0  0  0  0  0
   27.2547   27.7080   68.0502 C   0  0  0  0  0  0  0  0  0  0  0  0
   24.3967   25.7219   68.9794 C   0  0  0  0  0  0  0  0  0  0  0  0
   25.4219   28.2905   69.8642 C   0  0  2  0  0  0  0  0  0  0  0  0
   25.7895   25.8766   69.0850 C   0  0  0  0  0  0  0  0  0  0  0  0
   26.4649   27.2485   69.2924 C   0  0  1  0  0  0  0  0  0  0  0  0
   23.2135   22.1174   67.8104 H   0  0  0  0  0  0  0  0  0  0  0  0
   31.0658   28.0584   64.7082 H   0  0  0  0  0  0  0  0  0  0  0  0
   31.1426   29.6133   65.2013 H   0  0  0  0  0  0  0  0  0  0  0  0
   30.3597   30.1586   62.8989 H   0  0  0  0  0  0  0  0  0  0  0  0
   31.9331   29.7640   63.0876 H   0  0  0  0  0  0  0  0  0  0  0  0
   32.3760   28.0938   60.7588 H   0  0  0  0  0  0  0  0  0  0  0  0
   31.8201   29.6284   60.8123 H   0  0  0  0  0  0  0  0  0  0  0  0
   28.9761   29.0678   61.6289 H   0  0  0  0  0  0  0  0  0  0  0  0
   28.9525   27.5905   62.3244 H   0  0  0  0  0  0  0  0  0  0  0  0
   31.0902   27.8467   58.9385 H   0  0  0  0  0  0  0  0  0  0  0  0
   30.2513   29.2099   59.2617 H   0  0  0  0  0  0  0  0  0  0  0  0
   28.6247   27.6239   59.7850 H   0  0  0  0  0  0  0  0  0  0  0  0
   29.7298   26.5522   60.3300 H   0  0  0  0  0  0  0  0  0  0  0  0
   27.4490   33.2466   70.2149 H   0  0  0  0  0  0  0  0  0  0  0  0
   27.6325   31.7145   72.0028 H   0  0  0  0  0  0  0  0  0  0  0  0
   26.3362   32.5279   68.2338 H   0  0  0  0  0  0  0  0  0  0  0  0
   26.6991   22.8203   68.1453 H   0  0  0  0  0  0  0  0  0  0  0  0
   26.7073   29.5337   71.8775 H   0  0  0  0  0  0  0  0  0  0  0  0
   25.4706   30.3446   68.0623 H   0  0  0  0  0  0  0  0  0  0  0  0
   26.9769   28.0854   64.8023 H   0  0  0  0  0  0  0  0  0  0  0  0
   30.2188   28.8429   67.2360 H   0  0  0  0  0  0  0  0  0  0  0  0
   25.7137   27.4793   66.6857 H   0  0  0  0  0  0  0  0  0  0  0  0
   28.9454   28.1957   69.1363 H   0  0  0  0  0  0  0  0  0  0  0  0
   22.6226   26.7724   68.6810 H   0  0  0  0  0  0  0  0  0  0  0  0
   23.1015   26.7551   70.2421 H   0  0  0  0  0  0  0  0  0  0  0  0
   27.6134   24.8961   68.8491 H   0  0  0  0  0  0  0  0  0  0  0  0
   23.4527   28.9228   69.4652 H   0  0  0  0  0  0  0  0  0  0  0  0
   24.2232   28.3738   68.1342 H   0  0  0  0  0  0  0  0  0  0  0  0
   22.8818   24.3866   68.5078 H   0  0  0  0  0  0  0  0  0  0  0  0
   25.2339   28.0102   70.8056 H   0  0  0  0  0  0  0  0  0  0  0  0
   27.1431   27.1143   70.0149 H   0  0  0  0  0  0  0  0  0  0  0  0
  1 24  1  0  0  0  0
  2  4  1  0  0  0  0
  2 25  1  0  0  0  0
  3  5  1  0  0  0  0
  3  6  1  0  0  0  0
  3  7  1  0  0  0  0
  4  5  1  0  0  0  0
  6  8  1  0  0  0  0
  7  9  1  0  0  0  0
  8  9  1  0  0  0  0
 10 11  2  0  0  0  0
 10 12  1  0  0  0  0
 11 14  1  0  0  0  0
 12 15  2  0  0  0  0
 13 21  1  0  0  0  0
 13 24  2  0  0  0  0
 14 26  2  0  0  0  0
 15 26  1  0  0  0  0
 16 18  2  0  0  0  0
 16 25  1  0  0  0  0
 17 19  1  0  0  0  0
 17 25  2  0  0  0  0
 18 27  1  0  0  0  0
 19 27  2  0  0  0  0
 20 22  1  0  0  0  0
 20 28  1  0  0  0  0
 21 30  2  0  0  0  0
 22 29  1  0  0  0  0
 23 24  1  0  0  0  0
 23 28  2  0  0  0  0
 26 29  1  0  0  0  0
 27 31  1  0  0  0  0
 28 30  1  0  0  0  0
 29 31  1  0  0  0  0
 30 31  1  0  0  0  0
  1 32  1  0  0  0  0
  4 33  1  0  0  0  0
  4 34  1  0  0  0  0
  5 35  1  0  0  0  0
  5 36  1  0  0  0  0
  6 37  1  0  0  0  0
  6 38  1  0  0  0  0
  7 39  1  0  0  0  0
  7 40  1  0  0  0  0
  8 41  1  0  0  0  0
  8 42  1  0  0  0  0
  9 43  1  0  0  0  0
  9 44  1  0  0  0  0
 10 45  1  0  0  0  0
 11 46  1  0  0  0  0
 12 47  1  0  0  0  0
 13 48  1  0  0  0  0
 14 49  1  0  0  0  0
 15 50  1  0  0  0  0
 16 51  1  0  0  0  0
 17 52  1  0  0  0  0
 18 53  1  0  0  0  0
 19 54  1  0  0  0  0
 20 55  1  0  0  0  0
 20 56  1  0  0  0  0
 21 57  1  0  0  0  0
 22 58  1  0  0  0  0
 22 59  1  0  0  0  0
 23 60  1  0  0  0  0
 29 61  1  0  0  0  0
 31 62  1  0  0  0  0
M  END
> <pdb_id>
2OUZ

> <uniprot_id>
P03372

> <usmiles>
O(c1ccc(cc1)[C@@H]2c3c(cc(O)cc3)CC[C@@H]2c4ccccc4)CCN5CCCC5

$$$$
C5A_A_1001
          07192418483D 1   1.00000     0.00000     0
            
 23 23  0  0  0  0            999 V2000
   23.2081   -7.4425   53.2707 O   0  0  0  0  0  0  0  0  0  0  0  0
   24.1503   -6.0159   51.9354 O   0  0  0  0  0  0  0  0  0  0  0  0
   19.8057   -4.1805   48.2187 O   0  0  0  0  0  0  0  0  0  0  0  0
   21.0109   -2.7512   49.3060 O   0  0  0  0  0  0  0  0  0  0  0  0
   19.3316   -5.7828   50.4425 N   0  0  0  0  0  0  0  0  0  0  0  0
   21.3008   -4.8001   52.7507 C   0  0  0  0  0  0  0  0  0  0  0  0
   20.3466   -4.0277   51.7589 C   0  0  0  0  0  0  0  0  0  0  0  0
   21.7249   -5.6188   50.5139 C   0  0  0  0  0  0  0  0  0  0  0  0
   23.1223   -6.5294   52.4217 C   0  0  0  0  0  0  0  0  0  0  0  0
   20.4244   -3.8462   49.2440 C   0  0  0  0  0  0  0  0  0  0  0  0
   21.7414   -6.0505   51.9759 C   0  0  1  0  0  0  0  0  0  0  0  0
   20.4510   -4.7943   50.4497 C   0  0  1  0  0  0  0  0  0  0  0  0
   22.3785   -7.8478   53.6547 H   0  0  0  0  0  0  0  0  0  0  0  0
   19.3385   -5.0638   48.1824 H   0  0  0  0  0  0  0  0  0  0  0  0
   19.3606   -6.3130   49.5951 H   0  0  0  0  0  0  0  0  0  0  0  0
   19.4260   -6.3989   51.2245 H   0  0  0  0  0  0  0  0  0  0  0  0
   20.8104   -5.0564   53.5837 H   0  0  0  0  0  0  0  0  0  0  0  0
   22.0916   -4.2366   52.9895 H   0  0  0  0  0  0  0  0  0  0  0  0
   20.6515   -3.0828   51.6399 H   0  0  0  0  0  0  0  0  0  0  0  0
   19.4057   -4.0341   52.0975 H   0  0  0  0  0  0  0  0  0  0  0  0
   21.6794   -6.4080   49.9014 H   0  0  0  0  0  0  0  0  0  0  0  0
   22.5277   -5.0672   50.2877 H   0  0  0  0  0  0  0  0  0  0  0  0
   21.0737   -6.7818   52.1153 H   0  0  0  0  0  0  0  0  0  0  0  0
  1  9  1  0  0  0  0
  2  9  2  0  0  0  0
  3 10  1  0  0  0  0
  4 10  2  0  0  0  0
  5 12  1  0  0  0  0
  6  7  1  0  0  0  0
  6 11  1  0  0  0  0
  7 12  1  0  0  0  0
  8 11  1  0  0  0  0
  8 12  1  0  0  0  0
  9 11  1  0  0  0  0
 10 12  1  0  0  0  0
  1 13  1  0  0  0  0
  3 14  1  0  0  0  0
  5 15  1  0  0  0  0
  5 16  1  0  0  0  0
  6 17  1  0  0  0  0
  6 18  1  0  0  0  0
  7 19  1  0  0  0  0
  7 20  1  0  0  0  0
  8 21  1  0  0  0  0
  8 22  1  0  0  0  0
 11 23  1  0  0  0  0
M  END
> <pdb_id>
2E4W

> <uniprot_id>
P31422

> <usmiles>
O=C(O)[C@@]1(N)C[C@@H](C(=O)O)CC1

$$$$
C5I_A_1201
          07212403553D 1   1.00000     0.00000     0
            
 38 41  0  0  0  0            999 V2000
   39.2380   23.1439  240.3442 O   0  0  0  0  0  0  0  0  0  0  0  0
   36.8863   22.1813  238.0726 N   0  0  0  0  0  0  0  0  0  0  0  0
   42.3087   23.0268  244.8272 N   0  0  0  0  0  0  0  0  0  0  0  0
   42.5217   23.4383  246.0322 N   0  0  0  0  0  0  0  0  0  0  0  0
   37.9409   21.6322  248.4253 N   0  0  0  0  0  0  0  0  0  0  0  0
   40.1097   22.8201  248.7866 N   0  0  0  0  0  0  0  0  0  0  0  0
   41.0240   22.4700  244.7865 N   0  0  0  0  0  0  0  0  0  0  0  0
   40.3740   21.4301  241.2691 N   0  0  0  0  0  0  0  0  0  0  0  0
   37.7426   21.6807  238.6196 C   0  0  0  0  0  0  0  0  0  0  0  0
   37.3479   21.1049  247.3035 C   0  0  0  0  0  0  0  0  0  0  0  0
   41.2312   23.2673  248.2323 C   0  0  0  0  0  0  0  0  0  0  0  0
   40.6701   19.9771  241.3543 C   0  0  0  0  0  0  0  0  0  0  0  0
   40.9709   22.2937  242.3019 C   0  0  0  0  0  0  0  0  0  0  0  0
   40.0800   19.4537  242.6813 C   0  0  0  0  0  0  0  0  0  0  0  0
   38.8522   21.0259  239.3317 C   0  0  0  0  0  0  0  0  0  0  0  0
   38.1274   21.3148  246.2162 C   0  0  0  0  0  0  0  0  0  0  0  0
   40.6825   20.2668  243.8228 C   0  0  0  0  0  0  0  0  0  0  0  0
   39.4890   21.9386  240.3604 C   0  0  0  0  0  0  0  0  0  0  0  0
   39.1525   22.2036  248.0786 C   0  0  0  0  0  0  0  0  0  0  0  0
   41.4824   23.1209  246.8482 C   0  0  0  0  0  0  0  0  0  0  0  0
   40.4044   21.7896  243.6422 C   0  0  1  0  0  0  0  0  0  0  0  0
   40.5040   22.4968  246.0571 C   0  0  0  0  0  0  0  0  0  0  0  0
   39.3164   22.0245  246.6771 C   0  0  0  0  0  0  0  0  0  0  0  0
   37.5568   21.6069  249.3483 H   0  0  0  0  0  0  0  0  0  0  0  0
   36.4662   20.6333  247.2917 H   0  0  0  0  0  0  0  0  0  0  0  0
   41.9139   23.7181  248.8074 H   0  0  0  0  0  0  0  0  0  0  0  0
   41.6591   19.8297  241.3400 H   0  0  0  0  0  0  0  0  0  0  0  0
   40.2506   19.4984  240.5830 H   0  0  0  0  0  0  0  0  0  0  0  0
   40.7128   23.2479  242.1507 H   0  0  0  0  0  0  0  0  0  0  0  0
   41.9675   22.2124  242.2915 H   0  0  0  0  0  0  0  0  0  0  0  0
   40.3093   18.4871  242.7961 H   0  0  0  0  0  0  0  0  0  0  0  0
   39.0859   19.5621  242.6761 H   0  0  0  0  0  0  0  0  0  0  0  0
   39.5478   20.7562  238.6658 H   0  0  0  0  0  0  0  0  0  0  0  0
   38.5018   20.2124  239.7958 H   0  0  0  0  0  0  0  0  0  0  0  0
   37.9266   21.0366  245.2769 H   0  0  0  0  0  0  0  0  0  0  0  0
   41.6709   20.1165  243.8435 H   0  0  0  0  0  0  0  0  0  0  0  0
   40.2810   19.9627  244.6867 H   0  0  0  0  0  0  0  0  0  0  0  0
   39.4172   21.9475  243.6616 H   0  0  0  0  0  0  0  0  0  0  0  0
  1 18  2  0  0  0  0
  2  9  3  0  0  0  0
  3  4  2  0  0  0  0
  3  7  1  0  0  0  0
  4 20  1  0  0  0  0
  5 10  1  0  0  0  0
  5 19  1  0  0  0  0
  6 11  1  0  0  0  0
  6 19  2  0  0  0  0
  7 21  1  0  0  0  0
  7 22  1  0  0  0  0
  8 12  1  0  0  0  0
  8 13  1  0  0  0  0
  8 18  1  0  0  0  0
  9 15  1  0  0  0  0
 10 16  2  0  0  0  0
 11 20  2  0  0  0  0
 12 14  1  0  0  0  0
 13 21  1  0  0  0  0
 14 17  1  0  0  0  0
 15 18  1  0  0  0  0
 16 23  1  0  0  0  0
 17 21  1  0  0  0  0
 19 23  1  0  0  0  0
 20 22  1  0  0  0  0
 22 23  2  0  0  0  0
  5 24  1  0  0  0  0
 10 25  1  0  0  0  0
 11 26  1  0  0  0  0
 12 27  1  0  0  0  0
 12 28  1  0  0  0  0
 13 29  1  0  0  0  0
 13 30  1  0  0  0  0
 14 31  1  0  0  0  0
 14 32  1  0  0  0  0
 15 33  1  0  0  0  0
 15 34  1  0  0  0  0
 16 35  1  0  0  0  0
 17 36  1  0  0  0  0
 17 37  1  0  0  0  0
 21 38  1  0  0  0  0
M  END
> <pdb_id>
4I5C

> <uniprot_id>
P23458

> <usmiles>
O=C(N1C[C@H](N2N=Nc3c2c4c(nc3)NC=C4)CCC1)CC#N

$$$$
C68_A_820
          07212403113D 1   1.00000     0.00000     0
            
 40 39  0  0  0  0            999 V2000
   18.6728   43.8511   42.7409 O   0  0  0  0  0  0  0  0  0  0  0  0
   13.8335   48.7925   40.8744 O   0  0  0  0  0  0  0  0  0  0  0  0
   13.0908   46.9902   39.8645 O   0  0  0  0  0  0  0  0  0  0  0  0
   19.8769   47.0872   46.2111 O   0  0  0  0  0  0  0  0  0  0  0  0
   20.8308   45.1551   46.8298 O   0  0  0  0  0  0  0  0  0  0  0  0
   18.1044   45.5554   40.3923 O   0  0  0  0  0  0  0  0  0  0  0  0
   16.8707   43.8702   39.6005 O   0  0  0  0  0  0  0  0  0  0  0  0
   18.7978   45.5557   44.2331 O   0  0  0  0  0  0  0  0  0  0  0  0
   17.0143   45.3346   42.8219 N   0  0  0  0  0  0  0  0  0  0  0  0
   23.2147   47.1448   42.8789 C   0  0  0  0  0  0  0  0  0  0  0  0
   23.1269   44.9220   44.0222 C   0  0  0  0  0  0  0  0  0  0  0  0
   15.1902   46.8721   41.0439 C   0  0  0  0  0  0  0  0  0  0  0  0
   14.9308   45.4155   41.4515 C   0  0  0  0  0  0  0  0  0  0  0  0
   21.0003   46.2268   43.5606 C   0  0  0  0  0  0  0  0  0  0  0  0
   18.1996   44.8725   43.2390 C   0  0  0  0  0  0  0  0  0  0  0  0
   13.9078   47.5972   40.5876 C   0  0  0  0  0  0  0  0  0  0  0  0
   20.3232   45.9321   45.9911 C   0  0  0  0  0  0  0  0  0  0  0  0
   17.1497   44.7312   40.4555 C   0  0  0  0  0  0  0  0  0  0  0  0
   20.1839   45.3955   44.5578 C   0  0  1  0  0  0  0  0  0  0  0  0
   22.4924   46.3207   43.9420 C   0  0  0  0  0  0  0  0  0  0  0  0
   16.2822   44.6892   41.7258 C   0  0  1  0  0  0  0  0  0  0  0  0
   14.5275   49.2100   41.4609 H   0  0  0  0  0  0  0  0  0  0  0  0
   19.4902   47.6248   45.4618 H   0  0  0  0  0  0  0  0  0  0  0  0
   18.2481   46.2119   41.1328 H   0  0  0  0  0  0  0  0  0  0  0  0
   16.6189   46.1379   43.2674 H   0  0  0  0  0  0  0  0  0  0  0  0
   22.8031   48.0546   42.8257 H   0  0  0  0  0  0  0  0  0  0  0  0
   24.1809   47.2298   43.1225 H   0  0  0  0  0  0  0  0  0  0  0  0
   23.1334   46.6898   41.9921 H   0  0  0  0  0  0  0  0  0  0  0  0
   22.6546   44.3811   44.7183 H   0  0  0  0  0  0  0  0  0  0  0  0
   23.0456   44.4676   43.1351 H   0  0  0  0  0  0  0  0  0  0  0  0
   24.0931   45.0077   44.2655 H   0  0  0  0  0  0  0  0  0  0  0  0
   15.8487   46.8818   40.2914 H   0  0  0  0  0  0  0  0  0  0  0  0
   15.5728   47.3609   41.8279 H   0  0  0  0  0  0  0  0  0  0  0  0
   14.4468   44.9462   40.7130 H   0  0  0  0  0  0  0  0  0  0  0  0
   14.3716   45.3982   42.2803 H   0  0  0  0  0  0  0  0  0  0  0  0
   20.6199   47.1510   43.5281 H   0  0  0  0  0  0  0  0  0  0  0  0
   20.9273   45.8043   42.6572 H   0  0  0  0  0  0  0  0  0  0  0  0
   20.4479   44.4320   44.5140 H   0  0  0  0  0  0  0  0  0  0  0  0
   22.5794   46.7749   44.8286 H   0  0  0  0  0  0  0  0  0  0  0  0
   16.1001   43.7363   41.9683 H   0  0  0  0  0  0  0  0  0  0  0  0
  1 15  2  0  0  0  0
  2 16  1  0  0  0  0
  3 16  2  0  0  0  0
  4 17  1  0  0  0  0
  5 17  2  0  0  0  0
  6 18  1  0  0  0  0
  7 18  2  0  0  0  0
  8 15  1  0  0  0  0
  8 19  1  0  0  0  0
  9 15  1  0  0  0  0
  9 21  1  0  0  0  0
 10 20  1  0  0  0  0
 11 20  1  0  0  0  0
 12 13  1  0  0  0  0
 12 16  1  0  0  0  0
 13 21  1  0  0  0  0
 14 19  1  0  0  0  0
 14 20  1  0  0  0  0
 17 19  1  0  0  0  0
 18 21  1  0  0  0  0
  2 22  1  0  0  0  0
  4 23  1  0  0  0  0
  6 24  1  0  0  0  0
  9 25  1  0  0  0  0
 10 26  1  0  0  0  0
 10 27  1  0  0  0  0
 10 28  1  0  0  0  0
 11 29  1  0  0  0  0
 11 30  1  0  0  0  0
 11 31  1  0  0  0  0
 12 32  1  0  0  0  0
 12 33  1  0  0  0  0
 13 34  1  0  0  0  0
 13 35  1  0  0  0  0
 14 36  1  0  0  0  0
 14 37  1  0  0  0  0
 19 38  1  0  0  0  0
 20 39  1  0  0  0  0
 21 40  1  0  0  0  0
M  END
> <pdb_id>
6EZ9

> <uniprot_id>
Q04609

> <usmiles>
O=C(O[C@H](C(=O)O)CC(C)C)N[C@H](C(=O)O)CCC(=O)O

$$$$
C6R_A_508
          07202405583D 1   1.00000     0.00000     0
            
 54 57  0  0  0  0            999 V2000
   66.6521   47.2078    8.4780 S   0  0  0  0  0  0  0  0  0  0  0  0
   73.5117   44.4138   -0.8520 F   0  0  0  0  0  0  0  0  0  0  0  0
   70.4049   50.4734   10.5342 F   0  0  0  0  0  0  0  0  0  0  0  0
   73.3704   47.1812    5.7151 O   0  0  0  0  0  0  0  0  0  0  0  0
   71.5627   44.4003    0.3675 O   0  0  0  0  0  0  0  0  0  0  0  0
   65.7288   48.4256    6.3625 N   0  0  0  0  0  0  0  0  0  0  0  0
   72.8542   44.8647    2.3219 N   0  0  0  0  0  0  0  0  0  0  0  0
   70.9721   46.6169    3.1510 N   0  0  0  0  0  0  0  0  0  0  0  0
   71.1671   47.7584    5.7658 N   0  0  0  0  0  0  0  0  0  0  0  0
   67.0790   49.6357    7.6807 N   0  0  0  0  0  0  0  0  0  0  0  0
   68.0204   51.4799    8.9110 C   0  0  0  0  0  0  0  0  0  0  0  0
   72.5843   43.6016   -0.2451 C   0  0  0  0  0  0  0  0  0  0  0  0
   67.3778   47.7508   10.0203 C   0  0  0  0  0  0  0  0  0  0  0  0
   70.7792   45.9676    1.9907 C   0  0  0  0  0  0  0  0  0  0  0  0
   73.0431   45.5090    3.4862 C   0  0  0  0  0  0  0  0  0  0  0  0
   64.0419   51.2835   11.8351 C   0  0  0  0  0  0  0  0  0  0  0  0
   65.3137   51.4201   12.4046 C   0  0  0  0  0  0  0  0  0  0  0  0
   63.8673   50.4962   10.6906 C   0  0  0  0  0  0  0  0  0  0  0  0
   71.8870   49.4074    9.0267 C   0  0  0  0  0  0  0  0  0  0  0  0
   72.0973   48.7183    7.8284 C   0  0  0  0  0  0  0  0  0  0  0  0
   66.4129   50.7591   11.8375 C   0  0  0  0  0  0  0  0  0  0  0  0
   64.9714   49.8372   10.1285 C   0  0  0  0  0  0  0  0  0  0  0  0
   69.7319   48.8214    7.2884 C   0  0  0  0  0  0  0  0  0  0  0  0
   66.4919   48.5256    7.4490 C   0  0  0  0  0  0  0  0  0  0  0  0
   70.5950   49.8148    9.3800 C   0  0  0  0  0  0  0  0  0  0  0  0
   72.2501   47.1603    5.2211 C   0  0  0  0  0  0  0  0  0  0  0  0
   71.7454   45.0612    1.5579 C   0  0  0  0  0  0  0  0  0  0  0  0
   71.0308   48.4188    6.9572 C   0  0  0  0  0  0  0  0  0  0  0  0
   72.0739   46.4153    3.9220 C   0  0  0  0  0  0  0  0  0  0  0  0
   66.2643   49.9508   10.6958 C   0  0  0  0  0  0  0  0  0  0  0  0
   67.4985   49.2922   10.1252 C   0  0  2  0  0  0  0  0  0  0  0  0
   69.4296   49.5195    8.4705 C   0  0  0  0  0  0  0  0  0  0  0  0
   67.9917   49.9478    8.8015 C   0  0  1  0  0  0  0  0  0  0  0  0
   65.6304   49.2074    5.7469 H   0  0  0  0  0  0  0  0  0  0  0  0
   65.2540   47.5686    6.1622 H   0  0  0  0  0  0  0  0  0  0  0  0
   70.3358   47.7112    5.2120 H   0  0  0  0  0  0  0  0  0  0  0  0
   68.6269   51.7493    9.6590 H   0  0  0  0  0  0  0  0  0  0  0  0
   68.3558   51.8692    8.0531 H   0  0  0  0  0  0  0  0  0  0  0  0
   67.0970   51.8185    9.0922 H   0  0  0  0  0  0  0  0  0  0  0  0
   73.0358   43.0474    0.4541 H   0  0  0  0  0  0  0  0  0  0  0  0
   72.1703   43.0018   -0.9298 H   0  0  0  0  0  0  0  0  0  0  0  0
   68.2923   47.3538   10.0990 H   0  0  0  0  0  0  0  0  0  0  0  0
   66.8067   47.4242   10.7733 H   0  0  0  0  0  0  0  0  0  0  0  0
   69.9563   46.1319    1.4467 H   0  0  0  0  0  0  0  0  0  0  0  0
   73.8644   45.3420    4.0318 H   0  0  0  0  0  0  0  0  0  0  0  0
   63.2578   51.7487   12.2461 H   0  0  0  0  0  0  0  0  0  0  0  0
   65.4385   51.9897   13.2170 H   0  0  0  0  0  0  0  0  0  0  0  0
   62.9617   50.4040   10.2765 H   0  0  0  0  0  0  0  0  0  0  0  0
   72.6583   49.6090    9.6305 H   0  0  0  0  0  0  0  0  0  0  0  0
   73.0239   48.4320    7.5844 H   0  0  0  0  0  0  0  0  0  0  0  0
   67.3172   50.8642   12.2514 H   0  0  0  0  0  0  0  0  0  0  0  0
   64.8429   49.2761    9.3108 H   0  0  0  0  0  0  0  0  0  0  0  0
   68.9874   48.6032    6.6574 H   0  0  0  0  0  0  0  0  0  0  0  0
   68.2239   49.4590   10.7929 H   0  0  0  0  0  0  0  0  0  0  0  0
  1 13  1  0  0  0  0
  1 24  1  0  0  0  0
  2 12  1  0  0  0  0
  3 25  1  0  0  0  0
  4 26  2  0  0  0  0
  5 12  1  0  0  0  0
  5 27  1  0  0  0  0
  6 24  1  0  0  0  0
  7 15  2  0  0  0  0
  7 27  1  0  0  0  0
  8 14  1  0  0  0  0
  8 29  2  0  0  0  0
  9 26  1  0  0  0  0
  9 28  1  0  0  0  0
 10 24  2  0  0  0  0
 10 33  1  0  0  0  0
 11 33  1  0  0  0  0
 13 31  1  0  0  0  0
 14 27  2  0  0  0  0
 15 29  1  0  0  0  0
 16 17  2  0  0  0  0
 16 18  1  0  0  0  0
 17 21  1  0  0  0  0
 18 22  2  0  0  0  0
 19 20  1  0  0  0  0
 19 25  2  0  0  0  0
 20 28  2  0  0  0  0
 21 30  2  0  0  0  0
 22 30  1  0  0  0  0
 23 28  1  0  0  0  0
 23 32  2  0  0  0  0
 25 32  1  0  0  0  0
 26 29  1  0  0  0  0
 30 31  1  0  0  0  0
 31 33  1  0  0  0  0
 32 33  1  0  0  0  0
  6 34  1  0  0  0  0
  6 35  1  0  0  0  0
  9 36  1  0  0  0  0
 11 37  1  0  0  0  0
 11 38  1  0  0  0  0
 11 39  1  0  0  0  0
 12 40  1  0  0  0  0
 12 41  1  0  0  0  0
 13 42  1  0  0  0  0
 13 43  1  0  0  0  0
 14 44  1  0  0  0  0
 15 45  1  0  0  0  0
 16 46  1  0  0  0  0
 17 47  1  0  0  0  0
 18 48  1  0  0  0  0
 19 49  1  0  0  0  0
 20 50  1  0  0  0  0
 21 51  1  0  0  0  0
 22 52  1  0  0  0  0
 23 53  1  0  0  0  0
 31 54  1  0  0  0  0
M  END
> <pdb_id>
6JSE

> <uniprot_id>
P56817

> <usmiles>
S1C(=N[C@](c2c(F)ccc(NC(=O)c3ncc(OCF)nc3)c2)([C@@H](c4ccccc4)C1)C)N

$$$$
C6U_A_507
          07202405583D 1   1.00000     0.00000     0
            
 41 43  0  0  0  0            999 V2000
   71.3216   44.4400    0.0475 Cl  0  0  0  0  0  0  0  0  0  0  0  0
   66.4530   46.8613    8.3398 S   0  0  0  0  0  0  0  0  0  0  0  0
   70.2437   50.3852   10.5911 F   0  0  0  0  0  0  0  0  0  0  0  0
   73.4274   47.3393    5.7842 O   0  0  0  0  0  0  0  0  0  0  0  0
   65.5191   48.3404    6.4119 N   0  0  0  0  0  0  0  0  0  0  0  0
   71.0818   46.8462    3.2188 N   0  0  0  0  0  0  0  0  0  0  0  0
   71.2060   47.8330    5.8028 N   0  0  0  0  0  0  0  0  0  0  0  0
   66.9874   49.3336    7.7822 N   0  0  0  0  0  0  0  0  0  0  0  0
   67.6144   50.9473    9.4052 C   0  0  0  0  0  0  0  0  0  0  0  0
   67.5519   47.0872    9.7138 C   0  0  0  0  0  0  0  0  0  0  0  0
   70.8314   46.2301    2.0520 C   0  0  0  0  0  0  0  0  0  0  0  0
   72.7879   44.8484    2.4046 C   0  0  0  0  0  0  0  0  0  0  0  0
   71.7996   49.5516    9.0280 C   0  0  0  0  0  0  0  0  0  0  0  0
   72.0635   48.9028    7.8218 C   0  0  0  0  0  0  0  0  0  0  0  0
   73.0249   45.4993    3.6203 C   0  0  0  0  0  0  0  0  0  0  0  0
   69.6852   48.6716    7.3632 C   0  0  0  0  0  0  0  0  0  0  0  0
   67.5498   48.5686   10.1145 C   0  0  0  0  0  0  0  0  0  0  0  0
   66.3284   48.2889    7.4701 C   0  0  0  0  0  0  0  0  0  0  0  0
   71.6766   45.2153    1.6228 C   0  0  0  0  0  0  0  0  0  0  0  0
   72.3127   47.2631    5.2937 C   0  0  0  0  0  0  0  0  0  0  0  0
   70.4773   49.7673    9.4258 C   0  0  0  0  0  0  0  0  0  0  0  0
   71.0152   48.4587    6.9955 C   0  0  0  0  0  0  0  0  0  0  0  0
   72.1371   46.5093    4.0111 C   0  0  0  0  0  0  0  0  0  0  0  0
   69.3404   49.3166    8.5556 C   0  0  0  0  0  0  0  0  0  0  0  0
   67.8752   49.5196    8.9420 C   0  0  1  0  0  0  0  0  0  0  0  0
   65.4371   49.1869    5.8858 H   0  0  0  0  0  0  0  0  0  0  0  0
   64.9941   47.5325    6.1442 H   0  0  0  0  0  0  0  0  0  0  0  0
   70.3990   47.7902    5.2138 H   0  0  0  0  0  0  0  0  0  0  0  0
   68.1877   51.1501   10.1990 H   0  0  0  0  0  0  0  0  0  0  0  0
   67.8331   51.5830    8.6649 H   0  0  0  0  0  0  0  0  0  0  0  0
   66.6513   51.0458    9.6556 H   0  0  0  0  0  0  0  0  0  0  0  0
   68.4769   46.8115    9.4525 H   0  0  0  0  0  0  0  0  0  0  0  0
   67.2435   46.5305   10.4851 H   0  0  0  0  0  0  0  0  0  0  0  0
   70.0439   46.4995    1.4977 H   0  0  0  0  0  0  0  0  0  0  0  0
   73.4050   44.1260    2.0928 H   0  0  0  0  0  0  0  0  0  0  0  0
   72.5542   49.8614    9.6064 H   0  0  0  0  0  0  0  0  0  0  0  0
   73.0111   48.7511    7.5406 H   0  0  0  0  0  0  0  0  0  0  0  0
   73.8057   45.2505    4.1935 H   0  0  0  0  0  0  0  0  0  0  0  0
   68.9572   48.3534    6.7559 H   0  0  0  0  0  0  0  0  0  0  0  0
   68.2330   48.7042   10.8320 H   0  0  0  0  0  0  0  0  0  0  0  0
   66.6438   48.8002   10.4688 H   0  0  0  0  0  0  0  0  0  0  0  0
  1 19  1  0  0  0  0
  2 10  1  0  0  0  0
  2 18  1  0  0  0  0
  3 21  1  0  0  0  0
  4 20  2  0  0  0  0
  5 18  1  0  0  0  0
  6 11  1  0  0  0  0
  6 23  2  0  0  0  0
  7 20  1  0  0  0  0
  7 22  1  0  0  0  0
  8 18  2  0  0  0  0
  8 25  1  0  0  0  0
  9 25  1  0  0  0  0
 10 17  1  0  0  0  0
 11 19  2  0  0  0  0
 12 15  2  0  0  0  0
 12 19  1  0  0  0  0
 13 14  1  0  0  0  0
 13 21  2  0  0  0  0
 14 22  2  0  0  0  0
 15 23  1  0  0  0  0
 16 22  1  0  0  0  0
 16 24  2  0  0  0  0
 17 25  1  0  0  0  0
 20 23  1  0  0  0  0
 21 24  1  0  0  0  0
 24 25  1  0  0  0  0
  5 26  1  0  0  0  0
  5 27  1  0  0  0  0
  7 28  1  0  0  0  0
  9 29  1  0  0  0  0
  9 30  1  0  0  0  0
  9 31  1  0  0  0  0
 10 32  1  0  0  0  0
 10 33  1  0  0  0  0
 11 34  1  0  0  0  0
 12 35  1  0  0  0  0
 13 36  1  0  0  0  0
 14 37  1  0  0  0  0
 15 38  1  0  0  0  0
 16 39  1  0  0  0  0
 17 40  1  0  0  0  0
 17 41  1  0  0  0  0
M  END
> <pdb_id>
6JSG

> <uniprot_id>
P56817

> <usmiles>
Clc1cnc(cc1)C(=O)Nc2cc(c(F)cc2)[C@]3(N=C(SCC3)N)C

$$$$
C70_A_1
          07202402503D 1   1.00000     0.00000     0
            
 44 47  0  0  0  0            999 V2000
   -3.8518    7.3520   22.3691 Cl  0  0  0  0  0  0  0  0  0  0  0  0
    2.5760    8.7116   20.0462 S   0  0  0  0  0  0  0  0  0  0  0  0
    4.8227   10.3180   20.2813 O   0  0  0  0  0  0  0  0  0  0  0  0
    6.7145   10.1455   19.0981 N   0  0  0  0  0  0  0  0  0  0  0  0
    4.7005    5.1592   13.0725 N   0  0  0  0  0  0  0  0  0  0  0  0
    5.4349    6.7273   17.3246 N   0  0  0  0  0  0  0  0  0  0  0  0
    5.8813    7.8046   18.0025 N   0  0  0  0  0  0  0  0  0  0  0  0
    3.7721    5.1618   16.7338 N   0  0  0  0  0  0  0  0  0  0  0  0
    4.3120    3.7658   12.7872 C   0  0  0  0  0  0  0  0  0  0  0  0
    4.8067    2.8545   13.9318 C   0  0  0  0  0  0  0  0  0  0  0  0
    4.0621    5.6175   14.3414 C   0  0  0  0  0  0  0  0  0  0  0  0
   -1.8949    6.2781   20.8241 C   0  0  0  0  0  0  0  0  0  0  0  0
   -1.5368    8.5669   21.5720 C   0  0  0  0  0  0  0  0  0  0  0  0
    4.1248    3.2932   15.2498 C   0  0  0  0  0  0  0  0  0  0  0  0
   -0.6682    6.3096   20.1604 C   0  0  0  0  0  0  0  0  0  0  0  0
   -0.2975    8.6112   20.9188 C   0  0  0  0  0  0  0  0  0  0  0  0
    1.9812    6.5951   18.7096 C   0  0  0  0  0  0  0  0  0  0  0  0
   -2.3195    7.4065   21.5058 C   0  0  0  0  0  0  0  0  0  0  0  0
    5.5148    9.6863   19.4693 C   0  0  0  0  0  0  0  0  0  0  0  0
    1.4380    7.5205   19.5991 C   0  0  0  0  0  0  0  0  0  0  0  0
    3.8108    8.0413   19.0512 C   0  0  0  0  0  0  0  0  0  0  0  0
    4.5135    4.7383   15.5598 C   0  0  2  0  0  0  0  0  0  0  0  0
    4.2107    6.2511   17.4615 C   0  0  0  0  0  0  0  0  0  0  0  0
    0.1289    7.4792   20.2122 C   0  0  0  0  0  0  0  0  0  0  0  0
    5.0580    8.4772   18.8650 C   0  0  0  0  0  0  0  0  0  0  0  0
    3.3328    6.9087   18.3832 C   0  0  0  0  0  0  0  0  0  0  0  0
    7.2664    9.6298   18.4427 H   0  0  0  0  0  0  0  0  0  0  0  0
    7.0598   11.0046   19.4758 H   0  0  0  0  0  0  0  0  0  0  0  0
    4.4019    5.7468   12.3205 H   0  0  0  0  0  0  0  0  0  0  0  0
    2.9490    4.6680   17.0141 H   0  0  0  0  0  0  0  0  0  0  0  0
    4.7253    3.4734   11.9248 H   0  0  0  0  0  0  0  0  0  0  0  0
    3.3163    3.7040   12.7175 H   0  0  0  0  0  0  0  0  0  0  0  0
    5.7990    2.9383   14.0229 H   0  0  0  0  0  0  0  0  0  0  0  0
    4.5695    1.9040   13.7310 H   0  0  0  0  0  0  0  0  0  0  0  0
    3.0685    5.5561   14.2464 H   0  0  0  0  0  0  0  0  0  0  0  0
    4.3225    6.5678   14.5118 H   0  0  0  0  0  0  0  0  0  0  0  0
   -2.4594    5.4528   20.8080 H   0  0  0  0  0  0  0  0  0  0  0  0
   -1.8618    9.3618   22.0843 H   0  0  0  0  0  0  0  0  0  0  0  0
    4.4250    2.6987   15.9957 H   0  0  0  0  0  0  0  0  0  0  0  0
    3.1319    3.2278   15.1505 H   0  0  0  0  0  0  0  0  0  0  0  0
   -0.3530    5.5095   19.6501 H   0  0  0  0  0  0  0  0  0  0  0  0
    0.2703    9.4335   20.9563 H   0  0  0  0  0  0  0  0  0  0  0  0
    1.4839    5.8078   18.3452 H   0  0  0  0  0  0  0  0  0  0  0  0
    5.4986    4.8180   15.7118 H   0  0  0  0  0  0  0  0  0  0  0  0
  1 18  1  0  0  0  0
  2 20  1  0  0  0  0
  2 21  1  0  0  0  0
  3 19  2  0  0  0  0
  4 19  1  0  0  0  0
  5  9  1  0  0  0  0
  5 11  1  0  0  0  0
  6  7  1  0  0  0  0
  6 23  2  0  0  0  0
  7 25  2  0  0  0  0
  8 22  1  0  0  0  0
  8 23  1  0  0  0  0
  9 10  1  0  0  0  0
 10 14  1  0  0  0  0
 11 22  1  0  0  0  0
 12 15  1  0  0  0  0
 12 18  2  0  0  0  0
 13 16  2  0  0  0  0
 13 18  1  0  0  0  0
 14 22  1  0  0  0  0
 15 24  2  0  0  0  0
 16 24  1  0  0  0  0
 17 20  2  0  0  0  0
 17 26  1  0  0  0  0
 19 25  1  0  0  0  0
 20 24  1  0  0  0  0
 21 25  1  0  0  0  0
 21 26  2  0  0  0  0
 23 26  1  0  0  0  0
  4 27  1  0  0  0  0
  4 28  1  0  0  0  0
  5 29  1  0  0  0  0
  8 30  1  0  0  0  0
  9 31  1  0  0  0  0
  9 32  1  0  0  0  0
 10 33  1  0  0  0  0
 10 34  1  0  0  0  0
 11 35  1  0  0  0  0
 11 36  1  0  0  0  0
 12 37  1  0  0  0  0
 13 38  1  0  0  0  0
 14 39  1  0  0  0  0
 14 40  1  0  0  0  0
 15 41  1  0  0  0  0
 16 42  1  0  0  0  0
 17 43  1  0  0  0  0
 22 44  1  0  0  0  0
M  END
> <pdb_id>
3PA3

> <uniprot_id>
O14757

> <usmiles>
Clc1ccc(cc1)C=2Sc3c(nnc(N[C@@H]4CNCCC4)c3C2)C(=O)N

$$$$
C72_A_1
          07202402503D 1   1.00000     0.00000     0
            
 45 48  0  0  0  0            999 V2000
   -4.0913    7.6111   22.0323 Cl  0  0  0  0  0  0  0  0  0  0  0  0
    2.5508    8.6767   20.0206 S   0  0  0  0  0  0  0  0  0  0  0  0
    4.9252   10.1886   20.3534 O   0  0  0  0  0  0  0  0  0  0  0  0
    6.7988   10.1295   18.9975 N   0  0  0  0  0  0  0  0  0  0  0  0
    4.6014    5.0770   13.0772 N   0  0  0  0  0  0  0  0  0  0  0  0
    5.4329    6.6084   17.3495 N   0  0  0  0  0  0  0  0  0  0  0  0
    3.7573    5.0448   16.7743 N   0  0  0  0  0  0  0  0  0  0  0  0
    4.1641    3.7025   12.7832 C   0  0  0  0  0  0  0  0  0  0  0  0
    4.6571    2.7408   13.8784 C   0  0  0  0  0  0  0  0  0  0  0  0
    4.0144    5.5902   14.3588 C   0  0  0  0  0  0  0  0  0  0  0  0
    5.8440    7.6984   17.9503 C   0  0  0  0  0  0  0  0  0  0  0  0
   -1.6840    8.7024   21.4700 C   0  0  0  0  0  0  0  0  0  0  0  0
   -2.0798    6.4562   20.6444 C   0  0  0  0  0  0  0  0  0  0  0  0
    4.0649    3.2045   15.2273 C   0  0  0  0  0  0  0  0  0  0  0  0
   -0.4136    8.6824   20.9088 C   0  0  0  0  0  0  0  0  0  0  0  0
   -0.8038    6.4462   20.0749 C   0  0  0  0  0  0  0  0  0  0  0  0
    1.9006    6.5808   18.7305 C   0  0  0  0  0  0  0  0  0  0  0  0
   -2.5047    7.5879   21.3227 C   0  0  0  0  0  0  0  0  0  0  0  0
    5.5742    9.6338   19.4422 C   0  0  0  0  0  0  0  0  0  0  0  0
    1.3844    7.5222   19.6170 C   0  0  0  0  0  0  0  0  0  0  0  0
    3.7510    7.9784   19.0155 C   0  0  0  0  0  0  0  0  0  0  0  0
    4.4591    4.6699   15.5376 C   0  0  2  0  0  0  0  0  0  0  0  0
    4.1556    6.1646   17.4665 C   0  0  0  0  0  0  0  0  0  0  0  0
    0.0290    7.5550   20.2141 C   0  0  0  0  0  0  0  0  0  0  0  0
    5.0711    8.4370   18.7854 C   0  0  0  0  0  0  0  0  0  0  0  0
    3.2641    6.8407   18.3799 C   0  0  0  0  0  0  0  0  0  0  0  0
    7.2922    9.6600   18.2653 H   0  0  0  0  0  0  0  0  0  0  0  0
    7.1839   10.9548   19.4107 H   0  0  0  0  0  0  0  0  0  0  0  0
    4.3145    5.6744   12.3284 H   0  0  0  0  0  0  0  0  0  0  0  0
    2.9961    4.4896   17.1095 H   0  0  0  0  0  0  0  0  0  0  0  0
    4.5394    3.4183   11.9010 H   0  0  0  0  0  0  0  0  0  0  0  0
    3.1652    3.6749   12.7449 H   0  0  0  0  0  0  0  0  0  0  0  0
    5.6560    2.7606   13.9222 H   0  0  0  0  0  0  0  0  0  0  0  0
    4.3507    1.8107   13.6756 H   0  0  0  0  0  0  0  0  0  0  0  0
    3.0166    5.5891   14.2927 H   0  0  0  0  0  0  0  0  0  0  0  0
    4.3365    6.5225   14.5235 H   0  0  0  0  0  0  0  0  0  0  0  0
    6.7816    8.0032   17.7833 H   0  0  0  0  0  0  0  0  0  0  0  0
   -2.0042    9.5055   21.9725 H   0  0  0  0  0  0  0  0  0  0  0  0
   -2.6776    5.6586   20.5639 H   0  0  0  0  0  0  0  0  0  0  0  0
    4.4099    2.6126   15.9558 H   0  0  0  0  0  0  0  0  0  0  0  0
    3.0680    3.1364   15.1865 H   0  0  0  0  0  0  0  0  0  0  0  0
    0.1856    9.4775   21.0025 H   0  0  0  0  0  0  0  0  0  0  0  0
   -0.4886    5.6441   19.5677 H   0  0  0  0  0  0  0  0  0  0  0  0
    1.3756    5.8067   18.3769 H   0  0  0  0  0  0  0  0  0  0  0  0
    5.4479    4.7377   15.6709 H   0  0  0  0  0  0  0  0  0  0  0  0
  1 18  1  0  0  0  0
  2 20  1  0  0  0  0
  2 21  1  0  0  0  0
  3 19  2  0  0  0  0
  4 19  1  0  0  0  0
  5  8  1  0  0  0  0
  5 10  1  0  0  0  0
  6 11  1  0  0  0  0
  6 23  2  0  0  0  0
  7 22  1  0  0  0  0
  7 23  1  0  0  0  0
  8  9  1  0  0  0  0
  9 14  1  0  0  0  0
 10 22  1  0  0  0  0
 11 25  2  0  0  0  0
 12 15  1  0  0  0  0
 12 18  2  0  0  0  0
 13 16  2  0  0  0  0
 13 18  1  0  0  0  0
 14 22  1  0  0  0  0
 15 24  2  0  0  0  0
 16 24  1  0  0  0  0
 17 20  2  0  0  0  0
 17 26  1  0  0  0  0
 19 25  1  0  0  0  0
 20 24  1  0  0  0  0
 21 25  1  0  0  0  0
 21 26  2  0  0  0  0
 23 26  1  0  0  0  0
  4 27  1  0  0  0  0
  4 28  1  0  0  0  0
  5 29  1  0  0  0  0
  7 30  1  0  0  0  0
  8 31  1  0  0  0  0
  8 32  1  0  0  0  0
  9 33  1  0  0  0  0
  9 34  1  0  0  0  0
 10 35  1  0  0  0  0
 10 36  1  0  0  0  0
 11 37  1  0  0  0  0
 12 38  1  0  0  0  0
 13 39  1  0  0  0  0
 14 40  1  0  0  0  0
 14 41  1  0  0  0  0
 15 42  1  0  0  0  0
 16 43  1  0  0  0  0
 17 44  1  0  0  0  0
 22 45  1  0  0  0  0
M  END
> <pdb_id>
3PA4

> <uniprot_id>
O14757

> <usmiles>
Clc1ccc(cc1)C=2Sc3c(cnc(N[C@@H]4CNCCC4)c3C2)C(=O)N

$$$$
C7X_A_510
          07202405583D 1   1.00000     0.00000     0
            
 54 57  0  0  0  0            999 V2000
   66.5815   46.7970    8.4615 S   0  0  0  0  0  0  0  0  0  0  0  0
   73.4908   44.4058   -0.8519 F   0  0  0  0  0  0  0  0  0  0  0  0
   70.6194   51.0215    9.7953 F   0  0  0  0  0  0  0  0  0  0  0  0
   73.4497   47.1286    5.3899 O   0  0  0  0  0  0  0  0  0  0  0  0
   71.4549   44.2548    0.1737 O   0  0  0  0  0  0  0  0  0  0  0  0
   65.5558   48.2893    6.5846 N   0  0  0  0  0  0  0  0  0  0  0  0
   72.8297   44.7227    2.0687 N   0  0  0  0  0  0  0  0  0  0  0  0
   70.9457   46.4724    2.9750 N   0  0  0  0  0  0  0  0  0  0  0  0
   71.2362   47.5708    5.5398 N   0  0  0  0  0  0  0  0  0  0  0  0
   67.2077   49.2259    7.7584 N   0  0  0  0  0  0  0  0  0  0  0  0
   67.7815   50.8513    9.3171 C   0  0  0  0  0  0  0  0  0  0  0  0
   72.4797   43.5440   -0.5259 C   0  0  0  0  0  0  0  0  0  0  0  0
   67.9163   46.9764    9.6028 C   0  0  0  0  0  0  0  0  0  0  0  0
   70.7228   45.8107    1.8216 C   0  0  0  0  0  0  0  0  0  0  0  0
   73.0507   45.3733    3.2191 C   0  0  0  0  0  0  0  0  0  0  0  0
   71.2804   48.8457   12.9262 C   0  0  0  0  0  0  0  0  0  0  0  0
   70.1072   49.5956   13.0539 C   0  0  0  0  0  0  0  0  0  0  0  0
   71.4363   47.9563   11.8571 C   0  0  0  0  0  0  0  0  0  0  0  0
   72.0412   50.0550    8.1762 C   0  0  0  0  0  0  0  0  0  0  0  0
   72.2262   49.1847    7.0965 C   0  0  0  0  0  0  0  0  0  0  0  0
   69.0910   49.4540   12.1075 C   0  0  0  0  0  0  0  0  0  0  0  0
   70.4059   47.8127   10.9175 C   0  0  0  0  0  0  0  0  0  0  0  0
   69.8813   48.5626    7.1637 C   0  0  0  0  0  0  0  0  0  0  0  0
   66.4615   48.2115    7.5594 C   0  0  0  0  0  0  0  0  0  0  0  0
   70.7737   50.1891    8.7622 C   0  0  0  0  0  0  0  0  0  0  0  0
   72.3111   47.0291    4.9601 C   0  0  0  0  0  0  0  0  0  0  0  0
   71.6845   44.9195    1.3522 C   0  0  0  0  0  0  0  0  0  0  0  0
   71.1506   48.4335    6.5958 C   0  0  0  0  0  0  0  0  0  0  0  0
   72.0899   46.2756    3.6856 C   0  0  0  0  0  0  0  0  0  0  0  0
   69.2159   48.5665   11.0311 C   0  0  0  0  0  0  0  0  0  0  0  0
   68.0922   48.4496   10.0304 C   0  0  1  0  0  0  0  0  0  0  0  0
   69.6025   49.4156    8.2374 C   0  0  0  0  0  0  0  0  0  0  0  0
   68.1891   49.4602    8.8335 C   0  0  1  0  0  0  0  0  0  0  0  0
   65.4758   49.1256    6.0421 H   0  0  0  0  0  0  0  0  0  0  0  0
   64.9563   47.5116    6.3958 H   0  0  0  0  0  0  0  0  0  0  0  0
   70.3597   47.3039    5.1393 H   0  0  0  0  0  0  0  0  0  0  0  0
   68.3836   51.1343   10.0637 H   0  0  0  0  0  0  0  0  0  0  0  0
   67.8582   51.5024    8.5620 H   0  0  0  0  0  0  0  0  0  0  0  0
   66.8361   50.8275    9.6421 H   0  0  0  0  0  0  0  0  0  0  0  0
   72.8380   42.8154    0.0579 H   0  0  0  0  0  0  0  0  0  0  0  0
   72.0991   43.1458   -1.3604 H   0  0  0  0  0  0  0  0  0  0  0  0
   68.7603   46.6596    9.1698 H   0  0  0  0  0  0  0  0  0  0  0  0
   67.7290   46.4217   10.4134 H   0  0  0  0  0  0  0  0  0  0  0  0
   69.8768   45.9582    1.3092 H   0  0  0  0  0  0  0  0  0  0  0  0
   73.8915   45.2156    3.7370 H   0  0  0  0  0  0  0  0  0  0  0  0
   72.0111   48.9454   13.6016 H   0  0  0  0  0  0  0  0  0  0  0  0
   69.9968   50.2298   13.8191 H   0  0  0  0  0  0  0  0  0  0  0  0
   72.2787   47.4256   11.7638 H   0  0  0  0  0  0  0  0  0  0  0  0
   72.8136   50.5821    8.5307 H   0  0  0  0  0  0  0  0  0  0  0  0
   73.1304   49.0970    6.6785 H   0  0  0  0  0  0  0  0  0  0  0  0
   68.2566   49.9974   12.2000 H   0  0  0  0  0  0  0  0  0  0  0  0
   70.5141   47.1701   10.1590 H   0  0  0  0  0  0  0  0  0  0  0  0
   69.1337   48.0178    6.7839 H   0  0  0  0  0  0  0  0  0  0  0  0
   67.2582   48.6920   10.5261 H   0  0  0  0  0  0  0  0  0  0  0  0
  1 13  1  0  0  0  0
  1 24  1  0  0  0  0
  2 12  1  0  0  0  0
  3 25  1  0  0  0  0
  4 26  2  0  0  0  0
  5 12  1  0  0  0  0
  5 27  1  0  0  0  0
  6 24  1  0  0  0  0
  7 15  2  0  0  0  0
  7 27  1  0  0  0  0
  8 14  1  0  0  0  0
  8 29  2  0  0  0  0
  9 26  1  0  0  0  0
  9 28  1  0  0  0  0
 10 24  2  0  0  0  0
 10 33  1  0  0  0  0
 11 33  1  0  0  0  0
 13 31  1  0  0  0  0
 14 27  2  0  0  0  0
 15 29  1  0  0  0  0
 16 17  2  0  0  0  0
 16 18  1  0  0  0  0
 17 21  1  0  0  0  0
 18 22  2  0  0  0  0
 19 20  1  0  0  0  0
 19 25  2  0  0  0  0
 20 28  2  0  0  0  0
 21 30  2  0  0  0  0
 22 30  1  0  0  0  0
 23 28  1  0  0  0  0
 23 32  2  0  0  0  0
 25 32  1  0  0  0  0
 26 29  1  0  0  0  0
 30 31  1  0  0  0  0
 31 33  1  0  0  0  0
 32 33  1  0  0  0  0
  6 34  1  0  0  0  0
  6 35  1  0  0  0  0
  9 36  1  0  0  0  0
 11 37  1  0  0  0  0
 11 38  1  0  0  0  0
 11 39  1  0  0  0  0
 12 40  1  0  0  0  0
 12 41  1  0  0  0  0
 13 42  1  0  0  0  0
 13 43  1  0  0  0  0
 14 44  1  0  0  0  0
 15 45  1  0  0  0  0
 16 46  1  0  0  0  0
 17 47  1  0  0  0  0
 18 48  1  0  0  0  0
 19 49  1  0  0  0  0
 20 50  1  0  0  0  0
 21 51  1  0  0  0  0
 22 52  1  0  0  0  0
 23 53  1  0  0  0  0
 31 54  1  0  0  0  0
M  END
> <pdb_id>
6JSF

> <uniprot_id>
P56817

> <usmiles>
S1C(=N[C@](c2c(F)ccc(NC(=O)c3ncc(OCF)nc3)c2)([C@H](c4ccccc4)C1)C)N

$$$$
C7Y_A_601
          07202413423D 1   1.00000     0.00000     0
            
 47 51  0  0  0  0            999 V2000
   16.9590  -17.6400   17.3420 N   0  0  0  0  0  0  0  0  0  0  0  0
   17.9650  -17.7570   16.3820 N   0  0  0  0  0  0  0  0  0  0  0  0
   11.4410  -14.7890   16.1550 N   0  0  0  0  0  0  0  0  0  0  0  0
   17.7290  -10.2220   14.2670 N   0  0  0  0  0  0  0  0  0  0  0  0
   13.7010  -15.2580   15.9460 N   0  0  0  0  0  0  0  0  0  0  0  0
   14.8440  -16.5600   17.5780 N   0  0  0  0  0  0  0  0  0  0  0  0
   12.6330  -13.9770   14.3130 N   0  0  0  0  0  0  0  0  0  0  0  0
   15.9290  -12.9840   13.1090 N   0  0  0  0  0  0  0  0  0  0  0  0
   13.3500  -13.9200   11.9810 C   0  0  0  0  0  0  0  0  0  0  0  0
   11.3620  -15.4650   17.2910 C   0  0  0  0  0  0  0  0  0  0  0  0
   18.6520  -10.6910   13.3740 C   0  0  0  0  0  0  0  0  0  0  0  0
   12.4990  -16.0720   17.7910 C   0  0  0  0  0  0  0  0  0  0  0  0
   18.1810  -11.7980   12.7750 C   0  0  0  0  0  0  0  0  0  0  0  0
   15.3970  -11.0090   14.9560 C   0  0  0  0  0  0  0  0  0  0  0  0
   14.4730  -12.0060   14.6880 C   0  0  0  0  0  0  0  0  0  0  0  0
   17.8180  -16.3840   12.7520 C   0  0  0  0  0  0  0  0  0  0  0  0
   18.8530  -15.5600   13.5230 C   0  0  0  0  0  0  0  0  0  0  0  0
   16.3940  -16.4940   15.5510 C   0  0  0  0  0  0  0  0  0  0  0  0
   12.5910  -14.6900   15.4990 C   0  0  0  0  0  0  0  0  0  0  0  0
   16.0070  -16.8820   16.8540 C   0  0  0  0  0  0  0  0  0  0  0  0
   13.6980  -15.9570   17.0760 C   0  0  0  0  0  0  0  0  0  0  0  0
   13.7970  -14.0790   13.4350 C   0  0  1  0  0  0  0  0  0  0  0  0
   16.6110  -11.0270   14.2620 C   0  0  0  0  0  0  0  0  0  0  0  0
   17.6050  -17.0520   15.2900 C   0  0  0  0  0  0  0  0  0  0  0  0
   14.7820  -12.9840   13.7490 C   0  0  0  0  0  0  0  0  0  0  0  0
   16.8490  -12.0510   13.3250 C   0  0  0  0  0  0  0  0  0  0  0  0
   18.4450  -16.9460   14.0310 C   0  0  0  0  0  0  0  0  0  0  0  0
   16.9634  -18.0626   18.2483 H   0  0  0  0  0  0  0  0  0  0  0  0
   17.8482   -9.4118   14.8408 H   0  0  0  0  0  0  0  0  0  0  0  0
   14.8426  -16.7883   18.5516 H   0  0  0  0  0  0  0  0  0  0  0  0
   11.8648  -13.3905   14.0563 H   0  0  0  0  0  0  0  0  0  0  0  0
   14.1450  -13.9895   11.3784 H   0  0  0  0  0  0  0  0  0  0  0  0
   12.6949  -14.6403   11.7530 H   0  0  0  0  0  0  0  0  0  0  0  0
   12.9178  -13.0262   11.8610 H   0  0  0  0  0  0  0  0  0  0  0  0
   10.4926  -15.5354   17.7800 H   0  0  0  0  0  0  0  0  0  0  0  0
   19.5427  -10.2735   13.1939 H   0  0  0  0  0  0  0  0  0  0  0  0
   12.4660  -16.5847   18.6489 H   0  0  0  0  0  0  0  0  0  0  0  0
   18.6522  -12.3457   12.0836 H   0  0  0  0  0  0  0  0  0  0  0  0
   15.2009  -10.2951   15.6282 H   0  0  0  0  0  0  0  0  0  0  0  0
   13.5939  -12.0221   15.1644 H   0  0  0  0  0  0  0  0  0  0  0  0
   18.0541  -16.7789   11.8641 H   0  0  0  0  0  0  0  0  0  0  0  0
   16.8583  -16.1032   12.7473 H   0  0  0  0  0  0  0  0  0  0  0  0
   18.5692  -14.7411   14.0219 H   0  0  0  0  0  0  0  0  0  0  0  0
   19.7650  -15.4168   13.1387 H   0  0  0  0  0  0  0  0  0  0  0  0
   15.8689  -15.9114   14.9306 H   0  0  0  0  0  0  0  0  0  0  0  0
   14.2339  -14.9701   13.5574 H   0  0  0  0  0  0  0  0  0  0  0  0
   19.1206  -17.6714   13.8992 H   0  0  0  0  0  0  0  0  0  0  0  0
  1  2  1  0  0  0  0
  1 20  1  0  0  0  0
  2 24  2  0  0  0  0
  3 10  1  0  0  0  0
  3 19  2  0  0  0  0
  4 11  1  0  0  0  0
  4 23  1  0  0  0  0
  5 19  1  0  0  0  0
  5 21  2  0  0  0  0
  6 20  1  0  0  0  0
  6 21  1  0  0  0  0
  7 19  1  0  0  0  0
  7 22  1  0  0  0  0
  8 25  1  0  0  0  0
  8 26  2  0  0  0  0
  9 22  1  0  0  0  0
 10 12  2  0  0  0  0
 11 13  2  0  0  0  0
 12 21  1  0  0  0  0
 13 26  1  0  0  0  0
 14 15  1  0  0  0  0
 14 23  2  0  0  0  0
 15 25  2  0  0  0  0
 16 17  1  0  0  0  0
 16 27  1  0  0  0  0
 17 27  1  0  0  0  0
 18 20  2  0  0  0  0
 18 24  1  0  0  0  0
 22 25  1  0  0  0  0
 23 26  1  0  0  0  0
 24 27  1  0  0  0  0
  1 28  1  0  0  0  0
  4 29  1  0  0  0  0
  6 30  1  0  0  0  0
  7 31  1  0  0  0  0
  9 32  1  0  0  0  0
  9 33  1  0  0  0  0
  9 34  1  0  0  0  0
 10 35  1  0  0  0  0
 11 36  1  0  0  0  0
 12 37  1  0  0  0  0
 13 38  1  0  0  0  0
 14 39  1  0  0  0  0
 15 40  1  0  0  0  0
 16 41  1  0  0  0  0
 16 42  1  0  0  0  0
 17 43  1  0  0  0  0
 17 44  1  0  0  0  0
 18 45  1  0  0  0  0
 22 46  1  0  0  0  0
 27 47  1  0  0  0  0
M  END
> <pdb_id>
6B16

> <uniprot_id>
Q13153

> <usmiles>
n1c(nccc1NC=2NN=C(C2)C3CC3)N[C@H](c4nc5c(NC=C5)cc4)C

$$$$
C8M_A_368
          07202412333D 1   1.00000     0.00000     0
            
 49 51  0  0  0  0            999 V2000
  -29.8840   -5.3990   42.1200 O   0  0  0  0  0  0  0  0  0  0  0  0
  -23.6130   -2.2600   38.1860 O   0  0  0  0  0  0  0  0  0  0  0  0
  -22.8640   -4.8020   37.9810 O   0  0  0  0  0  0  0  0  0  0  0  0
  -25.6680   -4.8320   37.6720 O   0  0  0  0  0  0  0  0  0  0  0  0
  -30.4720   -6.8300   40.6090 N   0  0  0  0  0  0  0  0  0  0  0  0
  -30.5700   -0.6220   38.0120 N   0  0  0  0  0  0  0  0  0  0  0  0
  -29.8090   -2.2650   39.5530 N   0  0  0  0  0  0  0  0  0  0  0  0
  -27.8400   -3.2880   39.1410 N   0  0  0  0  0  0  0  0  0  0  0  0
  -27.9140   -1.3540   36.5830 N   0  0  0  0  0  0  0  0  0  0  0  0
  -26.7820   -6.2130   40.1900 N   0  0  0  0  0  0  0  0  0  0  0  0
  -26.5290   -2.7500   37.2110 N   0  0  0  0  0  0  0  0  0  0  0  0
  -26.7490   -7.3860   39.4680 C   0  0  0  0  0  0  0  0  0  0  0  0
  -26.2090   -1.4590   35.1790 C   0  0  0  0  0  0  0  0  0  0  0  0
  -28.8220   -3.1280   39.8230 C   0  0  0  0  0  0  0  0  0  0  0  0
  -27.1590   -6.2370   41.4900 C   0  0  0  0  0  0  0  0  0  0  0  0
  -25.5610   -5.5320   39.9620 C   0  0  0  0  0  0  0  0  0  0  0  0
  -28.3340   -6.9870   41.8730 C   0  0  0  0  0  0  0  0  0  0  0  0
  -29.5850   -6.3880   41.5300 C   0  0  0  0  0  0  0  0  0  0  0  0
  -25.4450   -3.5950   37.3640 C   0  0  1  0  0  0  0  0  0  0  0  0
  -29.6210   -1.5670   38.4310 C   0  0  0  0  0  0  0  0  0  0  0  0
  -24.4250   -3.1390   38.4040 C   0  0  1  0  0  0  0  0  0  0  0  0
  -23.7670   -4.5030   38.7980 C   0  0  1  0  0  0  0  0  0  0  0  0
  -25.0900   -5.2440   38.5560 C   0  0  2  0  0  0  0  0  0  0  0  0
  -26.8680   -1.8770   36.3400 C   0  0  0  0  0  0  0  0  0  0  0  0
  -27.5300   -2.7080   38.0690 C   0  0  0  0  0  0  0  0  0  0  0  0
  -28.4370   -1.8010   37.6660 C   0  0  0  0  0  0  0  0  0  0  0  0
  -23.0457   -2.1215   38.9978 H   0  0  0  0  0  0  0  0  0  0  0  0
  -22.4522   -5.6745   38.2439 H   0  0  0  0  0  0  0  0  0  0  0  0
  -30.2752   -7.6566   40.0817 H   0  0  0  0  0  0  0  0  0  0  0  0
  -31.3244   -6.3301   40.4556 H   0  0  0  0  0  0  0  0  0  0  0  0
  -30.4212   -0.1034   37.1700 H   0  0  0  0  0  0  0  0  0  0  0  0
  -31.3951   -0.4672   38.5554 H   0  0  0  0  0  0  0  0  0  0  0  0
  -26.4517   -7.1935   38.5328 H   0  0  0  0  0  0  0  0  0  0  0  0
  -26.1088   -8.0234   39.8967 H   0  0  0  0  0  0  0  0  0  0  0  0
  -27.6625   -7.7924   39.4504 H   0  0  0  0  0  0  0  0  0  0  0  0
  -25.3513   -1.9640   35.0824 H   0  0  0  0  0  0  0  0  0  0  0  0
  -26.7903   -1.6342   34.3844 H   0  0  0  0  0  0  0  0  0  0  0  0
  -26.0144   -0.4800   35.2403 H   0  0  0  0  0  0  0  0  0  0  0  0
  -28.9049   -3.6813   40.6519 H   0  0  0  0  0  0  0  0  0  0  0  0
  -27.3158   -5.2886   41.7657 H   0  0  0  0  0  0  0  0  0  0  0  0
  -26.3913   -6.6125   42.0093 H   0  0  0  0  0  0  0  0  0  0  0  0
  -24.8444   -6.0768   40.3974 H   0  0  0  0  0  0  0  0  0  0  0  0
  -25.6358   -4.6487   40.4248 H   0  0  0  0  0  0  0  0  0  0  0  0
  -28.3122   -7.1081   42.8654 H   0  0  0  0  0  0  0  0  0  0  0  0
  -28.2879   -7.8808   41.4270 H   0  0  0  0  0  0  0  0  0  0  0  0
  -24.9677   -3.6042   36.4853 H   0  0  0  0  0  0  0  0  0  0  0  0
  -24.9515   -2.8420   39.2006 H   0  0  0  0  0  0  0  0  0  0  0  0
  -23.4645   -4.5353   39.7506 H   0  0  0  0  0  0  0  0  0  0  0  0
  -24.7898   -6.1407   38.2308 H   0  0  0  0  0  0  0  0  0  0  0  0
  1 18  2  0  0  0  0
  2 21  1  0  0  0  0
  3 22  1  0  0  0  0
  4 19  1  0  0  0  0
  4 23  1  0  0  0  0
  5 18  1  0  0  0  0
  6 20  1  0  0  0  0
  7 14  1  0  0  0  0
  7 20  2  0  0  0  0
  8 14  2  0  0  0  0
  8 25  1  0  0  0  0
  9 24  2  0  0  0  0
  9 26  1  0  0  0  0
 10 12  1  0  0  0  0
 10 15  1  0  0  0  0
 10 16  1  0  0  0  0
 11 19  1  0  0  0  0
 11 24  1  0  0  0  0
 11 25  1  0  0  0  0
 13 24  1  0  0  0  0
 15 17  1  0  0  0  0
 16 23  1  0  0  0  0
 17 18  1  0  0  0  0
 19 21  1  0  0  0  0
 20 26  1  0  0  0  0
 21 22  1  0  0  0  0
 22 23  1  0  0  0  0
 25 26  2  0  0  0  0
  2 27  1  0  0  0  0
  3 28  1  0  0  0  0
  5 29  1  0  0  0  0
  5 30  1  0  0  0  0
  6 31  1  0  0  0  0
  6 32  1  0  0  0  0
 12 33  1  0  0  0  0
 12 34  1  0  0  0  0
 12 35  1  0  0  0  0
 13 36  1  0  0  0  0
 13 37  1  0  0  0  0
 13 38  1  0  0  0  0
 14 39  1  0  0  0  0
 15 40  1  0  0  0  0
 15 41  1  0  0  0  0
 16 42  1  0  0  0  0
 16 43  1  0  0  0  0
 17 44  1  0  0  0  0
 17 45  1  0  0  0  0
 19 46  1  0  0  0  0
 21 47  1  0  0  0  0
 22 48  1  0  0  0  0
 23 49  1  0  0  0  0
M  END
> <pdb_id>
3DZ4

> <uniprot_id>
P17707

> <usmiles>
O=C(N)CCN(C[C@H]1O[C@@H](N2c3ncnc(N)c3N=C2C)[C@H](O)[C@@H]1O)C

$$$$
C8Z_A_201
          07192416543D 1   1.00000     0.00000     0
            
 37 40  0  0  0  0            999 V2000
   18.5907   21.9904    3.1900 N   0  0  0  0  0  0  0  0  0  0  0  0
   17.8466   20.5642    4.9470 N   0  0  0  0  0  0  0  0  0  0  0  0
   14.6420   21.5711    1.6697 N   0  0  0  0  0  0  0  0  0  0  0  0
   18.1705   22.5963    2.0847 C   0  0  0  0  0  0  0  0  0  0  0  0
   16.6902   19.9145    5.3045 C   0  0  0  0  0  0  0  0  0  0  0  0
   14.1378   22.3729    0.5398 C   0  0  0  0  0  0  0  0  0  0  0  0
   12.7105   21.8190    0.3284 C   0  0  0  0  0  0  0  0  0  0  0  0
   11.2482   21.5840    5.4835 C   0  0  0  0  0  0  0  0  0  0  0  0
   11.1944   20.2935    4.9451 C   0  0  0  0  0  0  0  0  0  0  0  0
   12.0773   22.5441    4.9162 C   0  0  0  0  0  0  0  0  0  0  0  0
   16.8789   22.4814    1.5592 C   0  0  0  0  0  0  0  0  0  0  0  0
   15.7116   20.1754    4.3825 C   0  0  0  0  0  0  0  0  0  0  0  0
   12.8393   20.3728    0.8105 C   0  0  0  0  0  0  0  0  0  0  0  0
   11.9932   19.9746    3.8490 C   0  0  0  0  0  0  0  0  0  0  0  0
   12.8781   22.2163    3.8256 C   0  0  0  0  0  0  0  0  0  0  0  0
   17.6510   21.2558    3.7821 C   0  0  0  0  0  0  0  0  0  0  0  0
   13.6861   20.5469    2.0953 C   0  0  2  0  0  0  0  0  0  0  0  0
   15.8947   21.7100    2.2079 C   0  0  0  0  0  0  0  0  0  0  0  0
   12.8362   20.9336    3.2834 C   0  0  0  0  0  0  0  0  0  0  0  0
   16.2955   21.0483    3.3953 C   0  0  0  0  0  0  0  0  0  0  0  0
   18.7038   20.5362    5.4613 H   0  0  0  0  0  0  0  0  0  0  0  0
   18.8227   23.1745    1.5943 H   0  0  0  0  0  0  0  0  0  0  0  0
   16.5798   19.3386    6.1146 H   0  0  0  0  0  0  0  0  0  0  0  0
   14.7001   22.2375   -0.2759 H   0  0  0  0  0  0  0  0  0  0  0  0
   14.1151   23.3455    0.7713 H   0  0  0  0  0  0  0  0  0  0  0  0
   12.4480   21.8561   -0.6358 H   0  0  0  0  0  0  0  0  0  0  0  0
   12.0427   22.3238    0.8754 H   0  0  0  0  0  0  0  0  0  0  0  0
   10.6883   21.8160    6.2790 H   0  0  0  0  0  0  0  0  0  0  0  0
   10.5876   19.6058    5.3438 H   0  0  0  0  0  0  0  0  0  0  0  0
   12.0988   23.4708    5.2914 H   0  0  0  0  0  0  0  0  0  0  0  0
   16.6504   22.9550    0.7086 H   0  0  0  0  0  0  0  0  0  0  0  0
   14.7740   19.8278    4.3923 H   0  0  0  0  0  0  0  0  0  0  0  0
   13.3113   19.8043    0.1367 H   0  0  0  0  0  0  0  0  0  0  0  0
   11.9447   19.9751    1.0142 H   0  0  0  0  0  0  0  0  0  0  0  0
   11.9626   19.0521    3.4644 H   0  0  0  0  0  0  0  0  0  0  0  0
   13.4861   22.9045    3.4297 H   0  0  0  0  0  0  0  0  0  0  0  0
   14.1726   19.6961    2.2939 H   0  0  0  0  0  0  0  0  0  0  0  0
  1  4  2  0  0  0  0
  1 16  1  0  0  0  0
  2  5  1  0  0  0  0
  2 16  1  0  0  0  0
  3  6  1  0  0  0  0
  3 17  1  0  0  0  0
  3 18  1  0  0  0  0
  4 11  1  0  0  0  0
  5 12  2  0  0  0  0
  6  7  1  0  0  0  0
  7 13  1  0  0  0  0
  8  9  2  0  0  0  0
  8 10  1  0  0  0  0
  9 14  1  0  0  0  0
 10 15  2  0  0  0  0
 11 18  2  0  0  0  0
 12 20  1  0  0  0  0
 13 17  1  0  0  0  0
 14 19  2  0  0  0  0
 15 19  1  0  0  0  0
 16 20  2  0  0  0  0
 17 19  1  0  0  0  0
 18 20  1  0  0  0  0
  2 21  1  0  0  0  0
  4 22  1  0  0  0  0
  5 23  1  0  0  0  0
  6 24  1  0  0  0  0
  6 25  1  0  0  0  0
  7 26  1  0  0  0  0
  7 27  1  0  0  0  0
  8 28  1  0  0  0  0
  9 29  1  0  0  0  0
 10 30  1  0  0  0  0
 11 31  1  0  0  0  0
 12 32  1  0  0  0  0
 13 33  1  0  0  0  0
 13 34  1  0  0  0  0
 14 35  1  0  0  0  0
 15 36  1  0  0  0  0
 17 37  1  0  0  0  0
M  END
> <pdb_id>
6F23

> <uniprot_id>
P36639

> <usmiles>
n1c2NC=Cc2c(N3[C@@H](c4ccccc4)CCC3)cc1

$$$$
C93_B_303
          07192419033D 1   1.00000     0.00000     0
            
 34 35  0  0  0  0            999 V2000
   25.6398    1.6549   17.4773 O   0  0  0  0  0  0  0  0  0  0  0  0
   24.9601    0.9125   15.5661 O   0  0  0  0  0  0  0  0  0  0  0  0
   26.7188   -1.9309   15.1668 O   0  0  0  0  0  0  0  0  0  0  0  0
   24.6827   -1.8897   14.3592 O   0  0  0  0  0  0  0  0  0  0  0  0
   25.3199   -8.0017   15.1164 O   0  0  0  0  0  0  0  0  0  0  0  0
   24.8114   -4.1480   16.6105 N   0  0  0  0  0  0  0  0  0  0  0  0
   23.6107   -5.0111   16.6479 C   0  0  0  0  0  0  0  0  0  0  0  0
   26.0433   -4.8501   17.0090 C   0  0  0  0  0  0  0  0  0  0  0  0
   24.0430   -1.7886   19.3893 C   0  0  0  0  0  0  0  0  0  0  0  0
   23.7900   -6.2152   15.7232 C   0  0  0  0  0  0  0  0  0  0  0  0
   26.2607   -5.9788   16.0086 C   0  0  0  0  0  0  0  0  0  0  0  0
   24.1790   -2.9920   18.6981 C   0  0  0  0  0  0  0  0  0  0  0  0
   24.3714   -0.5877   18.7549 C   0  0  0  0  0  0  0  0  0  0  0  0
   25.1668    0.7399   16.7810 C   0  0  0  0  0  0  0  0  0  0  0  0
   25.4705   -1.8576   15.3272 C   0  0  0  0  0  0  0  0  0  0  0  0
   25.0884   -6.9510   16.0652 C   0  0  0  0  0  0  0  0  0  0  0  0
   24.6458   -2.9792   17.3732 C   0  0  0  0  0  0  0  0  0  0  0  0
   24.8318   -0.5758   17.4308 C   0  0  0  0  0  0  0  0  0  0  0  0
   24.9540   -1.7759   16.7405 C   0  0  0  0  0  0  0  0  0  0  0  0
   25.8028    1.5076   18.4529 H   0  0  0  0  0  0  0  0  0  0  0  0
   27.3273   -1.9027   15.9599 H   0  0  0  0  0  0  0  0  0  0  0  0
   26.1690   -8.4772   15.3462 H   0  0  0  0  0  0  0  0  0  0  0  0
   22.8158   -4.4825   16.3501 H   0  0  0  0  0  0  0  0  0  0  0  0
   23.4655   -5.3329   17.5835 H   0  0  0  0  0  0  0  0  0  0  0  0
   25.9418   -5.2240   17.9309 H   0  0  0  0  0  0  0  0  0  0  0  0
   26.8192   -4.2196   16.9885 H   0  0  0  0  0  0  0  0  0  0  0  0
   23.7126   -1.7850   20.3331 H   0  0  0  0  0  0  0  0  0  0  0  0
   23.8274   -5.9013   14.7745 H   0  0  0  0  0  0  0  0  0  0  0  0
   23.0164   -6.8385   15.8378 H   0  0  0  0  0  0  0  0  0  0  0  0
   27.1057   -6.4639   16.2337 H   0  0  0  0  0  0  0  0  0  0  0  0
   26.3311   -5.5967   15.0871 H   0  0  0  0  0  0  0  0  0  0  0  0
   23.9461   -3.8573   19.1421 H   0  0  0  0  0  0  0  0  0  0  0  0
   24.2767    0.2748   19.2520 H   0  0  0  0  0  0  0  0  0  0  0  0
   25.0204   -7.3394   16.9841 H   0  0  0  0  0  0  0  0  0  0  0  0
  1 14  1  0  0  0  0
  2 14  2  0  0  0  0
  3 15  1  0  0  0  0
  4 15  2  0  0  0  0
  5 16  1  0  0  0  0
  6  7  1  0  0  0  0
  6  8  1  0  0  0  0
  6 17  1  0  0  0  0
  7 10  1  0  0  0  0
  8 11  1  0  0  0  0
  9 12  2  0  0  0  0
  9 13  1  0  0  0  0
 10 16  1  0  0  0  0
 11 16  1  0  0  0  0
 12 17  1  0  0  0  0
 13 18  2  0  0  0  0
 14 18  1  0  0  0  0
 15 19  1  0  0  0  0
 17 19  2  0  0  0  0
 18 19  1  0  0  0  0
  1 20  1  0  0  0  0
  3 21  1  0  0  0  0
  5 22  1  0  0  0  0
  7 23  1  0  0  0  0
  7 24  1  0  0  0  0
  8 25  1  0  0  0  0
  8 26  1  0  0  0  0
  9 27  1  0  0  0  0
 10 28  1  0  0  0  0
 10 29  1  0  0  0  0
 11 30  1  0  0  0  0
 11 31  1  0  0  0  0
 12 32  1  0  0  0  0
 13 33  1  0  0  0  0
 16 34  1  0  0  0  0
M  END
> <pdb_id>
3WXC

> <uniprot_id>
Q79MP6

> <usmiles>
O=C(O)c1c(N2CCC(O)CC2)cccc1C(=O)O

$$$$
C9B_A_200
          07192416543D 1   1.00000     0.00000     0
            
 37 40  0  0  0  0            999 V2000
   12.0363   21.4170    0.7703 O   0  0  0  0  0  0  0  0  0  0  0  0
   16.4966   19.4187    5.5012 N   0  0  0  0  0  0  0  0  0  0  0  0
   17.6358   20.0740    5.1910 N   0  0  0  0  0  0  0  0  0  0  0  0
   18.4451   21.7175    3.5529 N   0  0  0  0  0  0  0  0  0  0  0  0
   14.4564   21.5553    2.1016 N   0  0  0  0  0  0  0  0  0  0  0  0
   13.0316   22.2646    0.2130 C   0  0  0  0  0  0  0  0  0  0  0  0
   18.0031   22.4485    2.5130 C   0  0  0  0  0  0  0  0  0  0  0  0
   12.6134   20.1871    1.1783 C   0  0  0  0  0  0  0  0  0  0  0  0
   15.6044   19.8306    4.6388 C   0  0  0  0  0  0  0  0  0  0  0  0
   14.0062   22.6991    1.3153 C   0  0  0  0  0  0  0  0  0  0  0  0
   11.0183   21.0613    5.8300 C   0  0  0  0  0  0  0  0  0  0  0  0
   11.0702   19.7981    5.2236 C   0  0  0  0  0  0  0  0  0  0  0  0
   11.7805   22.1251    5.3271 C   0  0  0  0  0  0  0  0  0  0  0  0
   16.6916   22.4133    2.0203 C   0  0  0  0  0  0  0  0  0  0  0  0
   11.8964   19.6143    4.1042 C   0  0  0  0  0  0  0  0  0  0  0  0
   12.6049   21.9435    4.2075 C   0  0  0  0  0  0  0  0  0  0  0  0
   17.5051   20.9259    4.1195 C   0  0  0  0  0  0  0  0  0  0  0  0
   13.5395   20.4498    2.3841 C   0  0  2  0  0  0  0  0  0  0  0  0
   15.7474   21.5769    2.6290 C   0  0  0  0  0  0  0  0  0  0  0  0
   12.6591   20.6798    3.5963 C   0  0  0  0  0  0  0  0  0  0  0  0
   16.1531   20.7894    3.7270 C   0  0  0  0  0  0  0  0  0  0  0  0
   18.4923   19.9516    5.6925 H   0  0  0  0  0  0  0  0  0  0  0  0
   12.5970   23.0722   -0.1855 H   0  0  0  0  0  0  0  0  0  0  0  0
   13.5312   21.7698   -0.4981 H   0  0  0  0  0  0  0  0  0  0  0  0
   18.6545   23.0581    2.0614 H   0  0  0  0  0  0  0  0  0  0  0  0
   13.1440   19.7983    0.4251 H   0  0  0  0  0  0  0  0  0  0  0  0
   11.8911   19.5477    1.4419 H   0  0  0  0  0  0  0  0  0  0  0  0
   14.6557   19.5151    4.6183 H   0  0  0  0  0  0  0  0  0  0  0  0
   14.7999   23.1385    0.8945 H   0  0  0  0  0  0  0  0  0  0  0  0
   13.5464   23.3498    1.9195 H   0  0  0  0  0  0  0  0  0  0  0  0
   10.4327   21.2046    6.6278 H   0  0  0  0  0  0  0  0  0  0  0  0
   10.5268   19.0396    5.5834 H   0  0  0  0  0  0  0  0  0  0  0  0
   11.7360   23.0204    5.7704 H   0  0  0  0  0  0  0  0  0  0  0  0
   16.4318   22.9814    1.2394 H   0  0  0  0  0  0  0  0  0  0  0  0
   11.9428   18.7175    3.6642 H   0  0  0  0  0  0  0  0  0  0  0  0
   13.1470   22.7034    3.8489 H   0  0  0  0  0  0  0  0  0  0  0  0
   14.0835   19.6264    2.5452 H   0  0  0  0  0  0  0  0  0  0  0  0
  1  6  1  0  0  0  0
  1  8  1  0  0  0  0
  2  3  1  0  0  0  0
  2  9  2  0  0  0  0
  3 17  1  0  0  0  0
  4  7  1  0  0  0  0
  4 17  2  0  0  0  0
  5 10  1  0  0  0  0
  5 18  1  0  0  0  0
  5 19  1  0  0  0  0
  6 10  1  0  0  0  0
  7 14  2  0  0  0  0
  8 18  1  0  0  0  0
  9 21  1  0  0  0  0
 11 12  2  0  0  0  0
 11 13  1  0  0  0  0
 12 15  1  0  0  0  0
 13 16  2  0  0  0  0
 14 19  1  0  0  0  0
 15 20  2  0  0  0  0
 16 20  1  0  0  0  0
 17 21  1  0  0  0  0
 18 20  1  0  0  0  0
 19 21  2  0  0  0  0
  3 22  1  0  0  0  0
  6 23  1  0  0  0  0
  6 24  1  0  0  0  0
  7 25  1  0  0  0  0
  8 26  1  0  0  0  0
  8 27  1  0  0  0  0
  9 28  1  0  0  0  0
 10 29  1  0  0  0  0
 10 30  1  0  0  0  0
 11 31  1  0  0  0  0
 12 32  1  0  0  0  0
 13 33  1  0  0  0  0
 14 34  1  0  0  0  0
 15 35  1  0  0  0  0
 16 36  1  0  0  0  0
 18 37  1  0  0  0  0
M  END
> <pdb_id>
6F22

> <uniprot_id>
P36639

> <usmiles>
O1C[C@@H](N(c2c3c(ncc2)NN=C3)CC1)c4ccccc4

$$$$
C9E_A_201
          07192416543D 1   1.00000     0.00000     0
            
 24 25  0  0  0  0            999 V2000
   13.7514   23.3733    2.2484 O   0  0  0  0  0  0  0  0  0  0  0  0
   13.4073   22.8204    4.3390 O   0  0  0  0  0  0  0  0  0  0  0  0
   18.4713   21.8084    3.1628 N   0  0  0  0  0  0  0  0  0  0  0  0
   17.9502   20.4781    5.0872 N   0  0  0  0  0  0  0  0  0  0  0  0
   11.3952   22.3050    5.5905 C   0  0  0  0  0  0  0  0  0  0  0  0
   11.9942   23.0038    4.3754 C   0  0  0  0  0  0  0  0  0  0  0  0
   17.9069   22.6180    2.2500 C   0  0  0  0  0  0  0  0  0  0  0  0
   16.8506   20.1281    5.8320 C   0  0  0  0  0  0  0  0  0  0  0  0
   16.5380   22.8870    2.2139 C   0  0  0  0  0  0  0  0  0  0  0  0
   15.7369   20.7551    5.2669 C   0  0  0  0  0  0  0  0  0  0  0  0
   14.1411   22.6597    3.1727 C   0  0  0  0  0  0  0  0  0  0  0  0
   17.6083   21.3099    4.0639 C   0  0  0  0  0  0  0  0  0  0  0  0
   15.6260   22.3565    3.1606 C   0  0  0  0  0  0  0  0  0  0  0  0
   16.1895   21.5017    4.1206 C   0  0  0  0  0  0  0  0  0  0  0  0
   18.8811   20.1631    5.2722 H   0  0  0  0  0  0  0  0  0  0  0  0
   10.4049   22.4437    5.6003 H   0  0  0  0  0  0  0  0  0  0  0  0
   11.5942   21.3261    5.5437 H   0  0  0  0  0  0  0  0  0  0  0  0
   11.7935   22.6867    6.4245 H   0  0  0  0  0  0  0  0  0  0  0  0
   11.5913   22.6211    3.5440 H   0  0  0  0  0  0  0  0  0  0  0  0
   11.7906   23.9817    4.4248 H   0  0  0  0  0  0  0  0  0  0  0  0
   18.4954   23.0476    1.5651 H   0  0  0  0  0  0  0  0  0  0  0  0
   16.8474   19.5316    6.6346 H   0  0  0  0  0  0  0  0  0  0  0  0
   16.1854   23.4791    1.4893 H   0  0  0  0  0  0  0  0  0  0  0  0
   14.7953   20.6963    5.5983 H   0  0  0  0  0  0  0  0  0  0  0  0
  1 11  2  0  0  0  0
  2  6  1  0  0  0  0
  2 11  1  0  0  0  0
  3  7  2  0  0  0  0
  3 12  1  0  0  0  0
  4  8  1  0  0  0  0
  4 12  1  0  0  0  0
  5  6  1  0  0  0  0
  7  9  1  0  0  0  0
  8 10  2  0  0  0  0
  9 13  2  0  0  0  0
 10 14  1  0  0  0  0
 11 13  1  0  0  0  0
 12 14  2  0  0  0  0
 13 14  1  0  0  0  0
  4 15  1  0  0  0  0
  5 16  1  0  0  0  0
  5 17  1  0  0  0  0
  5 18  1  0  0  0  0
  6 19  1  0  0  0  0
  6 20  1  0  0  0  0
  7 21  1  0  0  0  0
  8 22  1  0  0  0  0
  9 23  1  0  0  0  0
 10 24  1  0  0  0  0
M  END
> <pdb_id>
6F20

> <uniprot_id>
P36639

> <usmiles>
O=C(OCC)c1c2c(ncc1)NC=C2

$$$$
C9G_C_201
          07202405323D 1   1.00000     0.00000     0
            
 37 40  0  0  0  0            999 V2000
  -12.8148   -0.9291   -7.0504 O   0  0  0  0  0  0  0  0  0  0  0  0
  -16.8269   -2.8482    4.5543 O   0  0  0  0  0  0  0  0  0  0  0  0
  -15.5564   -1.6596   -1.6320 N   0  0  0  0  0  0  0  0  0  0  0  0
  -14.7408   -1.3628   -2.6245 N   0  0  0  0  0  0  0  0  0  0  0  0
  -12.4960   -1.0048   -4.3063 N   0  0  0  0  0  0  0  0  0  0  0  0
  -14.7943   -1.7805   -0.5150 N   0  0  0  0  0  0  0  0  0  0  0  0
  -10.6224   -0.4045   -7.3652 N   0  0  0  0  0  0  0  0  0  0  0  0
  -10.8450   -0.3298   -8.8073 C   0  0  0  0  0  0  0  0  0  0  0  0
   -9.3737   -0.1519   -6.8615 C   0  0  0  0  0  0  0  0  0  0  0  0
  -13.4953   -1.5674   -0.8056 C   0  0  0  0  0  0  0  0  0  0  0  0
   -9.1143   -0.1720   -5.5583 C   0  0  0  0  0  0  0  0  0  0  0  0
  -17.1803   -1.9738    2.3169 C   0  0  0  0  0  0  0  0  0  0  0  0
  -15.0974   -2.9852    2.9626 C   0  0  0  0  0  0  0  0  0  0  0  0
  -11.0485   -0.7613   -2.4063 C   0  0  0  0  0  0  0  0  0  0  0  0
  -16.6690   -1.7237    1.0533 C   0  0  0  0  0  0  0  0  0  0  0  0
  -14.5929   -2.7438    1.7018 C   0  0  0  0  0  0  0  0  0  0  0  0
   -9.9841   -0.5002   -3.2422 C   0  0  0  0  0  0  0  0  0  0  0  0
  -11.7252   -0.7096   -6.5568 C   0  0  0  0  0  0  0  0  0  0  0  0
  -16.3890   -2.5954    3.2769 C   0  0  0  0  0  0  0  0  0  0  0  0
  -13.4614   -1.3023   -2.1457 C   0  0  0  0  0  0  0  0  0  0  0  0
  -12.2891   -1.0051   -2.9799 C   0  0  0  0  0  0  0  0  0  0  0  0
  -11.4489   -0.7303   -5.1117 C   0  0  0  0  0  0  0  0  0  0  0  0
  -15.3691   -2.1054    0.7496 C   0  0  0  0  0  0  0  0  0  0  0  0
  -10.1607   -0.4681   -4.6250 C   0  0  0  0  0  0  0  0  0  0  0  0
  -16.2213   -3.2980    5.2107 H   0  0  0  0  0  0  0  0  0  0  0  0
  -11.8018   -0.5398   -9.0082 H   0  0  0  0  0  0  0  0  0  0  0  0
  -10.6312    0.5921   -9.1303 H   0  0  0  0  0  0  0  0  0  0  0  0
  -10.2544   -0.9906   -9.2705 H   0  0  0  0  0  0  0  0  0  0  0  0
   -8.6304    0.0552   -7.4976 H   0  0  0  0  0  0  0  0  0  0  0  0
  -12.7205   -1.5969   -0.1741 H   0  0  0  0  0  0  0  0  0  0  0  0
   -8.1896    0.0192   -5.2292 H   0  0  0  0  0  0  0  0  0  0  0  0
  -18.1184   -1.7073    2.5384 H   0  0  0  0  0  0  0  0  0  0  0  0
  -14.5312   -3.4412    3.6493 H   0  0  0  0  0  0  0  0  0  0  0  0
  -10.9303   -0.7746   -1.4134 H   0  0  0  0  0  0  0  0  0  0  0  0
  -17.2336   -1.2704    0.3636 H   0  0  0  0  0  0  0  0  0  0  0  0
  -13.6624   -3.0312    1.4745 H   0  0  0  0  0  0  0  0  0  0  0  0
   -9.0779   -0.3326   -2.8539 H   0  0  0  0  0  0  0  0  0  0  0  0
  1 18  2  0  0  0  0
  2 19  1  0  0  0  0
  3  4  2  0  0  0  0
  3  6  1  0  0  0  0
  4 20  1  0  0  0  0
  5 21  1  0  0  0  0
  5 22  2  0  0  0  0
  6 10  1  0  0  0  0
  6 23  1  0  0  0  0
  7  8  1  0  0  0  0
  7  9  1  0  0  0  0
  7 18  1  0  0  0  0
  9 11  2  0  0  0  0
 10 20  2  0  0  0  0
 11 24  1  0  0  0  0
 12 15  1  0  0  0  0
 12 19  2  0  0  0  0
 13 16  2  0  0  0  0
 13 19  1  0  0  0  0
 14 17  1  0  0  0  0
 14 21  2  0  0  0  0
 15 23  2  0  0  0  0
 16 23  1  0  0  0  0
 17 24  2  0  0  0  0
 18 22  1  0  0  0  0
 20 21  1  0  0  0  0
 22 24  1  0  0  0  0
  2 25  1  0  0  0  0
  8 26  1  0  0  0  0
  8 27  1  0  0  0  0
  8 28  1  0  0  0  0
  9 29  1  0  0  0  0
 10 30  1  0  0  0  0
 11 31  1  0  0  0  0
 12 32  1  0  0  0  0
 13 33  1  0  0  0  0
 14 34  1  0  0  0  0
 15 35  1  0  0  0  0
 16 36  1  0  0  0  0
 17 37  1  0  0  0  0
M  END
> <pdb_id>
6B1K

> <uniprot_id>
P14174

> <usmiles>
O=C1N(C=Cc2c1nc(cc2)C=3N=NN(c4ccc(O)cc4)C3)C

$$$$
C9J_A_202
          07202405323D 1   1.00000     0.00000     0
            
 37 40  0  0  0  0            999 V2000
  -18.4182   -1.8275    2.5658 F   0  0  0  0  0  0  0  0  0  0  0  0
  -13.9470   -1.7560   -7.3637 O   0  0  0  0  0  0  0  0  0  0  0  0
  -16.7228   -2.9307    4.4814 O   0  0  0  0  0  0  0  0  0  0  0  0
  -15.8318   -1.9088   -1.7127 N   0  0  0  0  0  0  0  0  0  0  0  0
  -15.1596   -1.6207   -2.7969 N   0  0  0  0  0  0  0  0  0  0  0  0
  -13.2333   -1.2531   -4.7212 N   0  0  0  0  0  0  0  0  0  0  0  0
  -14.9571   -1.8200   -0.6832 N   0  0  0  0  0  0  0  0  0  0  0  0
  -11.8668   -1.1401   -8.1031 N   0  0  0  0  0  0  0  0  0  0  0  0
  -12.2812   -1.4177   -9.4805 C   0  0  0  0  0  0  0  0  0  0  0  0
  -10.5881   -0.6902   -7.8407 C   0  0  0  0  0  0  0  0  0  0  0  0
  -13.7321   -1.4749   -1.1123 C   0  0  0  0  0  0  0  0  0  0  0  0
  -14.9981   -2.9427    2.8573 C   0  0  0  0  0  0  0  0  0  0  0  0
  -10.1509   -0.4211   -6.6063 C   0  0  0  0  0  0  0  0  0  0  0  0
  -11.5851   -0.5469   -3.1175 C   0  0  0  0  0  0  0  0  0  0  0  0
  -14.5503   -2.6617    1.5787 C   0  0  0  0  0  0  0  0  0  0  0  0
  -10.6772   -0.3418   -4.1398 C   0  0  0  0  0  0  0  0  0  0  0  0
  -16.7249   -1.8200    0.9696 C   0  0  0  0  0  0  0  0  0  0  0  0
  -12.8223   -1.3523   -7.0896 C   0  0  0  0  0  0  0  0  0  0  0  0
  -17.1347   -2.1052    2.2360 C   0  0  0  0  0  0  0  0  0  0  0  0
  -16.3081   -2.6622    3.2190 C   0  0  0  0  0  0  0  0  0  0  0  0
  -13.8754   -1.3053   -2.4625 C   0  0  0  0  0  0  0  0  0  0  0  0
  -12.8538   -0.9925   -3.4624 C   0  0  0  0  0  0  0  0  0  0  0  0
  -15.4060   -2.0986    0.6405 C   0  0  0  0  0  0  0  0  0  0  0  0
  -12.3446   -1.0556   -5.7192 C   0  0  0  0  0  0  0  0  0  0  0  0
  -11.0262   -0.5948   -5.4779 C   0  0  0  0  0  0  0  0  0  0  0  0
  -17.6650   -2.7319    4.7511 H   0  0  0  0  0  0  0  0  0  0  0  0
  -13.2304   -1.7324   -9.4860 H   0  0  0  0  0  0  0  0  0  0  0  0
  -12.2033   -0.5836  -10.0265 H   0  0  0  0  0  0  0  0  0  0  0  0
  -11.6927   -2.1267   -9.8691 H   0  0  0  0  0  0  0  0  0  0  0  0
   -9.9608   -0.5599   -8.6085 H   0  0  0  0  0  0  0  0  0  0  0  0
  -12.9010   -1.3663   -0.5669 H   0  0  0  0  0  0  0  0  0  0  0  0
  -14.3745   -3.3502    3.5243 H   0  0  0  0  0  0  0  0  0  0  0  0
   -9.2145   -0.0988   -6.4671 H   0  0  0  0  0  0  0  0  0  0  0  0
  -11.3366   -0.3802   -2.1633 H   0  0  0  0  0  0  0  0  0  0  0  0
  -13.6038   -2.8655    1.3283 H   0  0  0  0  0  0  0  0  0  0  0  0
   -9.7593   -0.0088   -3.9243 H   0  0  0  0  0  0  0  0  0  0  0  0
  -17.3525   -1.4234    0.2997 H   0  0  0  0  0  0  0  0  0  0  0  0
  1 19  1  0  0  0  0
  2 18  2  0  0  0  0
  3 20  1  0  0  0  0
  4  5  2  0  0  0  0
  4  7  1  0  0  0  0
  5 21  1  0  0  0  0
  6 22  1  0  0  0  0
  6 24  2  0  0  0  0
  7 11  1  0  0  0  0
  7 23  1  0  0  0  0
  8  9  1  0  0  0  0
  8 10  1  0  0  0  0
  8 18  1  0  0  0  0
 10 13  2  0  0  0  0
 11 21  2  0  0  0  0
 12 15  1  0  0  0  0
 12 20  2  0  0  0  0
 13 25  1  0  0  0  0
 14 16  1  0  0  0  0
 14 22  2  0  0  0  0
 15 23  2  0  0  0  0
 16 25  2  0  0  0  0
 17 19  2  0  0  0  0
 17 23  1  0  0  0  0
 18 24  1  0  0  0  0
 19 20  1  0  0  0  0
 21 22  1  0  0  0  0
 24 25  1  0  0  0  0
  3 26  1  0  0  0  0
  9 27  1  0  0  0  0
  9 28  1  0  0  0  0
  9 29  1  0  0  0  0
 10 30  1  0  0  0  0
 11 31  1  0  0  0  0
 12 32  1  0  0  0  0
 13 33  1  0  0  0  0
 14 34  1  0  0  0  0
 15 35  1  0  0  0  0
 16 36  1  0  0  0  0
 17 37  1  0  0  0  0
M  END
> <pdb_id>
6B1C

> <uniprot_id>
P14174

> <usmiles>
Fc1c(O)ccc(N2N=NC(c3nc4c(cc3)C=CN(C4=O)C)=C2)c1

$$$$
C9Q_A_200
          07192416543D 1   1.00000     0.00000     0
            
 35 37  0  0  0  0            999 V2000
   11.2813   22.7309    5.5393 Cl  0  0  0  0  0  0  0  0  0  0  0  0
   15.1433   17.8041    6.8655 O   0  0  0  0  0  0  0  0  0  0  0  0
   17.3122   17.7266    7.4410 N   0  0  0  0  0  0  0  0  0  0  0  0
   18.5998   21.3759    3.7266 N   0  0  0  0  0  0  0  0  0  0  0  0
   17.7544   19.7784    5.2743 N   0  0  0  0  0  0  0  0  0  0  0  0
   18.2158   16.3989    9.3482 C   0  0  0  0  0  0  0  0  0  0  0  0
   17.1857   16.5029    8.2339 C   0  0  0  0  0  0  0  0  0  0  0  0
   18.1713   22.2854    2.8104 C   0  0  0  0  0  0  0  0  0  0  0  0
   12.4084   22.3704    1.7026 C   0  0  0  0  0  0  0  0  0  0  0  0
   11.6436   22.5376    2.8583 C   0  0  0  0  0  0  0  0  0  0  0  0
   13.7819   22.1390    1.7756 C   0  0  0  0  0  0  0  0  0  0  0  0
   16.8631   22.5674    2.5081 C   0  0  0  0  0  0  0  0  0  0  0  0
   13.6311   22.2904    4.1716 C   0  0  0  0  0  0  0  0  0  0  0  0
   15.5925   19.9884    4.9868 C   0  0  0  0  0  0  0  0  0  0  0  0
   16.2753   18.2378    6.6873 C   0  0  0  0  0  0  0  0  0  0  0  0
   12.2573   22.5069    4.1024 C   0  0  0  0  0  0  0  0  0  0  0  0
   17.5929   20.7415    4.3211 C   0  0  0  0  0  0  0  0  0  0  0  0
   16.5434   19.2917    5.7124 C   0  0  0  0  0  0  0  0  0  0  0  0
   14.4244   22.0801    3.0015 C   0  0  0  0  0  0  0  0  0  0  0  0
   15.8533   21.8625    3.1754 C   0  0  0  0  0  0  0  0  0  0  0  0
   16.2495   20.9201    4.1250 C   0  0  0  0  0  0  0  0  0  0  0  0
   18.1863   18.2123    7.4455 H   0  0  0  0  0  0  0  0  0  0  0  0
   18.6419   19.4653    5.6125 H   0  0  0  0  0  0  0  0  0  0  0  0
   18.0779   15.5456    9.8511 H   0  0  0  0  0  0  0  0  0  0  0  0
   19.1350   16.4089    8.9545 H   0  0  0  0  0  0  0  0  0  0  0  0
   18.1118   17.1738    9.9717 H   0  0  0  0  0  0  0  0  0  0  0  0
   17.2964   15.7173    7.6251 H   0  0  0  0  0  0  0  0  0  0  0  0
   16.2732   16.4822    8.6423 H   0  0  0  0  0  0  0  0  0  0  0  0
   18.8732   22.7944    2.3122 H   0  0  0  0  0  0  0  0  0  0  0  0
   11.9643   22.4173    0.8079 H   0  0  0  0  0  0  0  0  0  0  0  0
   10.6561   22.6791    2.7898 H   0  0  0  0  0  0  0  0  0  0  0  0
   14.3082   22.0144    0.9345 H   0  0  0  0  0  0  0  0  0  0  0  0
   16.6352   23.2618    1.8255 H   0  0  0  0  0  0  0  0  0  0  0  0
   14.0761   22.2818    5.0671 H   0  0  0  0  0  0  0  0  0  0  0  0
   14.6031   19.8602    5.0548 H   0  0  0  0  0  0  0  0  0  0  0  0
  1 16  1  0  0  0  0
  2 15  2  0  0  0  0
  3  7  1  0  0  0  0
  3 15  1  0  0  0  0
  4  8  1  0  0  0  0
  4 17  2  0  0  0  0
  5 17  1  0  0  0  0
  5 18  1  0  0  0  0
  6  7  1  0  0  0  0
  8 12  2  0  0  0  0
  9 10  2  0  0  0  0
  9 11  1  0  0  0  0
 10 16  1  0  0  0  0
 11 19  2  0  0  0  0
 12 20  1  0  0  0  0
 13 16  2  0  0  0  0
 13 19  1  0  0  0  0
 14 18  2  0  0  0  0
 14 21  1  0  0  0  0
 15 18  1  0  0  0  0
 17 21  1  0  0  0  0
 19 20  1  0  0  0  0
 20 21  2  0  0  0  0
  3 22  1  0  0  0  0
  5 23  1  0  0  0  0
  6 24  1  0  0  0  0
  6 25  1  0  0  0  0
  6 26  1  0  0  0  0
  7 27  1  0  0  0  0
  7 28  1  0  0  0  0
  8 29  1  0  0  0  0
  9 30  1  0  0  0  0
 10 31  1  0  0  0  0
 11 32  1  0  0  0  0
 12 33  1  0  0  0  0
 13 34  1  0  0  0  0
 14 35  1  0  0  0  0
M  END
> <pdb_id>
6F1X

> <uniprot_id>
P36639

> <usmiles>
Clc1cc(c2c3c(ncc2)NC(C(=O)NCC)=C3)ccc1

$$$$
C9U_A_501
          07202411143D 1   1.00000     0.00000     0
            
 58 62  0  0  0  0            999 V2000
    6.3740   23.1260   17.4530 N   0  0  0  0  0  0  0  0  0  0  0  0
    5.1510   25.6560    6.0830 N   0  0  0  0  0  0  0  0  0  0  0  0
    6.4690   24.2400   21.4390 N   0  0  0  0  0  0  0  0  0  0  0  0
    7.0780   29.3300   15.8320 N   0  0  0  0  0  0  0  0  0  0  0  0
    6.2440   28.9850   13.7650 N   0  0  0  0  0  0  0  0  0  0  0  0
    6.4180   27.1460   15.1830 N   0  0  0  0  0  0  0  0  0  0  0  0
    6.6280   23.0540   16.1020 N   0  0  0  0  0  0  0  0  0  0  0  0
    4.9370   26.9800    8.7000 N   0  0  0  0  0  0  0  0  0  0  0  0
    5.4570   20.9800   15.2110 C   0  0  0  0  0  0  0  0  0  0  0  0
    5.3350   27.0910    6.2240 C   0  0  0  0  0  0  0  0  0  0  0  0
    4.1740   25.1870    7.0680 C   0  0  0  0  0  0  0  0  0  0  0  0
    5.6430   25.2740   21.8050 C   0  0  0  0  0  0  0  0  0  0  0  0
    7.3690   28.8410   17.0170 C   0  0  0  0  0  0  0  0  0  0  0  0
    6.7400   21.7760   15.3220 C   0  0  0  0  0  0  0  0  0  0  0  0
    5.9120   27.3280    7.6550 C   0  0  0  0  0  0  0  0  0  0  0  0
    4.5980   25.5380    8.4990 C   0  0  0  0  0  0  0  0  0  0  0  0
    6.6740   24.0460   20.1690 C   0  0  0  0  0  0  0  0  0  0  0  0
    6.7360   24.3400   15.6040 C   0  0  0  0  0  0  0  0  0  0  0  0
    5.0380   26.1380   20.8190 C   0  0  0  0  0  0  0  0  0  0  0  0
    7.2370   27.5130   17.3620 C   0  0  0  0  0  0  0  0  0  0  0  0
    5.6420   27.0430   12.3690 C   0  0  0  0  0  0  0  0  0  0  0  0
    5.7750   29.2150   11.4480 C   0  0  0  0  0  0  0  0  0  0  0  0
    5.3360   26.5570   11.1380 C   0  0  0  0  0  0  0  0  0  0  0  0
    5.4770   28.7540   10.2350 C   0  0  0  0  0  0  0  0  0  0  0  0
    5.2740   25.8960   19.5010 C   0  0  0  0  0  0  0  0  0  0  0  0
    6.5760   28.4700   14.9510 C   0  0  0  0  0  0  0  0  0  0  0  0
    5.8810   28.4030   12.5870 C   0  0  0  0  0  0  0  0  0  0  0  0
    5.2220   27.4060    9.9860 C   0  0  0  0  0  0  0  0  0  0  0  0
    6.7180   26.6940   16.4090 C   0  0  0  0  0  0  0  0  0  0  0  0
    6.3800   24.4600   17.7710 C   0  0  0  0  0  0  0  0  0  0  0  0
    6.1430   24.7990   19.1110 C   0  0  0  0  0  0  0  0  0  0  0  0
    6.5890   25.2140   16.6220 C   0  0  0  0  0  0  0  0  0  0  0  0
    6.0241   25.1921    6.2333 H   0  0  0  0  0  0  0  0  0  0  0  0
    6.2656   29.9843   13.7352 H   0  0  0  0  0  0  0  0  0  0  0  0
    5.6245   20.1504   14.6784 H   0  0  0  0  0  0  0  0  0  0  0  0
    5.1394   20.7304   16.1258 H   0  0  0  0  0  0  0  0  0  0  0  0
    4.7597   21.5334   14.7555 H   0  0  0  0  0  0  0  0  0  0  0  0
    4.4591   27.5628    6.1226 H   0  0  0  0  0  0  0  0  0  0  0  0
    5.9761   27.4262    5.5336 H   0  0  0  0  0  0  0  0  0  0  0  0
    4.0867   24.1939    6.9903 H   0  0  0  0  0  0  0  0  0  0  0  0
    3.2906   25.6152    6.8775 H   0  0  0  0  0  0  0  0  0  0  0  0
    5.4566   25.4319   22.7747 H   0  0  0  0  0  0  0  0  0  0  0  0
    7.7081   29.4735   17.7134 H   0  0  0  0  0  0  0  0  0  0  0  0
    7.4251   21.1997   15.7675 H   0  0  0  0  0  0  0  0  0  0  0  0
    7.0455   22.0027   14.3972 H   0  0  0  0  0  0  0  0  0  0  0  0
    6.7286   26.7629    7.7727 H   0  0  0  0  0  0  0  0  0  0  0  0
    6.1577   28.2927    7.7495 H   0  0  0  0  0  0  0  0  0  0  0  0
    3.8464   25.3034    9.1155 H   0  0  0  0  0  0  0  0  0  0  0  0
    5.4025   24.9912    8.7310 H   0  0  0  0  0  0  0  0  0  0  0  0
    7.2707   23.2826   19.9218 H   0  0  0  0  0  0  0  0  0  0  0  0
    6.8966   24.5823   14.6472 H   0  0  0  0  0  0  0  0  0  0  0  0
    4.4557   26.9009   21.0999 H   0  0  0  0  0  0  0  0  0  0  0  0
    7.5076   27.1714   18.2621 H   0  0  0  0  0  0  0  0  0  0  0  0
    5.6979   26.4100   13.1411 H   0  0  0  0  0  0  0  0  0  0  0  0
    5.9324   30.1969   11.5532 H   0  0  0  0  0  0  0  0  0  0  0  0
    5.1850   25.5743   11.0306 H   0  0  0  0  0  0  0  0  0  0  0  0
    5.4344   29.3998    9.4727 H   0  0  0  0  0  0  0  0  0  0  0  0
    4.8501   26.4721   18.8021 H   0  0  0  0  0  0  0  0  0  0  0  0
  1  7  1  0  0  0  0
  1 30  2  0  0  0  0
  2 10  1  0  0  0  0
  2 11  1  0  0  0  0
  3 12  2  0  0  0  0
  3 17  1  0  0  0  0
  4 13  1  0  0  0  0
  4 26  2  0  0  0  0
  5 26  1  0  0  0  0
  5 27  1  0  0  0  0
  6 26  1  0  0  0  0
  6 29  2  0  0  0  0
  7 14  1  0  0  0  0
  7 18  1  0  0  0  0
  8 15  1  0  0  0  0
  8 16  1  0  0  0  0
  8 28  1  0  0  0  0
  9 14  1  0  0  0  0
 10 15  1  0  0  0  0
 11 16  1  0  0  0  0
 12 19  1  0  0  0  0
 13 20  2  0  0  0  0
 17 31  2  0  0  0  0
 18 32  2  0  0  0  0
 19 25  2  0  0  0  0
 20 29  1  0  0  0  0
 21 23  1  0  0  0  0
 21 27  2  0  0  0  0
 22 24  2  0  0  0  0
 22 27  1  0  0  0  0
 23 28  2  0  0  0  0
 24 28  1  0  0  0  0
 25 31  1  0  0  0  0
 29 32  1  0  0  0  0
 30 31  1  0  0  0  0
 30 32  1  0  0  0  0
  2 33  1  0  0  0  0
  5 34  1  0  0  0  0
  9 35  1  0  0  0  0
  9 36  1  0  0  0  0
  9 37  1  0  0  0  0
 10 38  1  0  0  0  0
 10 39  1  0  0  0  0
 11 40  1  0  0  0  0
 11 41  1  0  0  0  0
 12 42  1  0  0  0  0
 13 43  1  0  0  0  0
 14 44  1  0  0  0  0
 14 45  1  0  0  0  0
 15 46  1  0  0  0  0
 15 47  1  0  0  0  0
 16 48  1  0  0  0  0
 16 49  1  0  0  0  0
 17 50  1  0  0  0  0
 18 51  1  0  0  0  0
 19 52  1  0  0  0  0
 20 53  1  0  0  0  0
 21 54  1  0  0  0  0
 22 55  1  0  0  0  0
 23 56  1  0  0  0  0
 24 57  1  0  0  0  0
 25 58  1  0  0  0  0
M  END
> <pdb_id>
6JUX

> <uniprot_id>
Q04771

> <usmiles>
n1c(nccc1C=2C(=NN(C2)CC)c3cnccc3)Nc4ccc(N5CCNCC5)cc4

$$$$
CA2_A_147
          07192422283D 1   1.00000     0.00000     0
            
 40 41  0  0  0  0            999 V2000
   31.2382   42.4311    6.2488 O   0  0  0  0  0  0  0  0  0  0  0  0
   29.4403   42.8933    4.9329 O   0  0  0  0  0  0  0  0  0  0  0  0
   29.6253   43.0876   11.0252 O   0  0  0  0  0  0  0  0  0  0  0  0
   27.8366   45.5207   10.6512 O   0  0  0  0  0  0  0  0  0  0  0  0
   27.9664   42.2863    7.3552 O   0  0  0  0  0  0  0  0  0  0  0  0
   28.9397   49.9165    7.6061 O   0  0  0  0  0  0  0  0  0  0  0  0
   28.0892   48.8541    7.5249 C   0  0  0  0  0  0  0  0  0  0  0  0
   28.2878   47.8431    8.4518 C   0  0  0  0  0  0  0  0  0  0  0  0
   30.3976   51.9214    4.2843 C   0  0  0  0  0  0  0  0  0  0  0  0
   29.9920   50.6001    4.1336 C   0  0  0  0  0  0  0  0  0  0  0  0
   30.2842   52.5632    5.5414 C   0  0  0  0  0  0  0  0  0  0  0  0
   29.4940   49.9142    5.2599 C   0  0  0  0  0  0  0  0  0  0  0  0
   29.7771   51.8767    6.6428 C   0  0  0  0  0  0  0  0  0  0  0  0
   28.4859   46.6800    7.7503 C   0  0  0  0  0  0  0  0  0  0  0  0
   29.8601   42.9712    8.6414 C   0  0  0  0  0  0  0  0  0  0  0  0
   28.8619   44.5201    7.1149 C   0  0  0  0  0  0  0  0  0  0  0  0
   30.0197   42.7969    6.0627 C   0  0  0  0  0  0  0  0  0  0  0  0
   28.9820   43.4556    9.8052 C   0  0  2  0  0  0  0  0  0  0  0  0
   29.3745   50.5465    6.4869 C   0  0  0  0  0  0  0  0  0  0  0  0
   28.8375   44.9869    9.6967 C   0  0  1  0  0  0  0  0  0  0  0  0
   28.6174   45.3809    8.2041 C   0  0  0  0  0  0  0  0  0  0  0  0
   29.1501   43.1493    7.2916 C   0  0  2  0  0  0  0  0  0  0  0  0
   31.6101   42.3842    7.1759 H   0  0  0  0  0  0  0  0  0  0  0  0
   29.0711   43.3930   11.7996 H   0  0  0  0  0  0  0  0  0  0  0  0
   27.7742   46.5134   10.5482 H   0  0  0  0  0  0  0  0  0  0  0  0
   27.4557   42.3573    6.4984 H   0  0  0  0  0  0  0  0  0  0  0  0
   28.1841   48.4555    6.6127 H   0  0  0  0  0  0  0  0  0  0  0  0
   27.1578   49.1984    7.6430 H   0  0  0  0  0  0  0  0  0  0  0  0
   28.2869   47.9425    9.4468 H   0  0  0  0  0  0  0  0  0  0  0  0
   30.7708   52.4203    3.5021 H   0  0  0  0  0  0  0  0  0  0  0  0
   30.0524   50.1458    3.2448 H   0  0  0  0  0  0  0  0  0  0  0  0
   30.5702   53.5164    5.6395 H   0  0  0  0  0  0  0  0  0  0  0  0
   29.2225   48.9558    5.1719 H   0  0  0  0  0  0  0  0  0  0  0  0
   29.7022   52.3286    7.5317 H   0  0  0  0  0  0  0  0  0  0  0  0
   28.5442   46.7893    6.7580 H   0  0  0  0  0  0  0  0  0  0  0  0
   30.0698   42.0024    8.7734 H   0  0  0  0  0  0  0  0  0  0  0  0
   30.7100   43.4982    8.6339 H   0  0  0  0  0  0  0  0  0  0  0  0
   28.8302   44.8924    6.1873 H   0  0  0  0  0  0  0  0  0  0  0  0
   28.0810   43.0249    9.7529 H   0  0  0  0  0  0  0  0  0  0  0  0
   29.7195   45.3744    9.9649 H   0  0  0  0  0  0  0  0  0  0  0  0
  1 17  1  0  0  0  0
  2 17  2  0  0  0  0
  3 18  1  0  0  0  0
  4 20  1  0  0  0  0
  5 22  1  0  0  0  0
  6  7  1  0  0  0  0
  6 19  1  0  0  0  0
  7  8  1  0  0  0  0
  8 14  2  0  0  0  0
  9 10  2  0  0  0  0
  9 11  1  0  0  0  0
 10 12  1  0  0  0  0
 11 13  2  0  0  0  0
 12 19  2  0  0  0  0
 13 19  1  0  0  0  0
 14 21  1  0  0  0  0
 15 18  1  0  0  0  0
 15 22  1  0  0  0  0
 16 21  2  0  0  0  0
 16 22  1  0  0  0  0
 17 22  1  0  0  0  0
 18 20  1  0  0  0  0
 20 21  1  0  0  0  0
  1 23  1  0  0  0  0
  3 24  1  0  0  0  0
  4 25  1  0  0  0  0
  5 26  1  0  0  0  0
  7 27  1  0  0  0  0
  7 28  1  0  0  0  0
  8 29  1  0  0  0  0
  9 30  1  0  0  0  0
 10 31  1  0  0  0  0
 11 32  1  0  0  0  0
 12 33  1  0  0  0  0
 13 34  1  0  0  0  0
 14 35  1  0  0  0  0
 15 36  1  0  0  0  0
 15 37  1  0  0  0  0
 16 38  1  0  0  0  0
 18 39  1  0  0  0  0
 20 40  1  0  0  0  0
M  END
> <pdb_id>
3N76

> <uniprot_id>
P0A4Z6

> <usmiles>
O=C(O)[C@]1(O)C=C(/C=C/COc2ccccc2)[C@@H](O)[C@H](O)C1

$$$$
CCK_A_336
          07202401373D 1   1.00000     0.00000     0
            
 48 51  0  0  0  0            999 V2000
   22.3269  -36.8141   13.8010 O   0  0  0  0  0  0  0  0  0  0  0  0
   22.3221  -36.7083   16.0047 O   0  0  0  0  0  0  0  0  0  0  0  0
   23.0002  -26.4973   12.7092 N   0  0  0  0  0  0  0  0  0  0  0  0
   23.2901  -29.4711    9.9198 N   0  0  0  0  0  0  0  0  0  0  0  0
   23.0338  -29.9925   12.6252 N   0  0  0  0  0  0  0  0  0  0  0  0
   21.5483  -29.3752   17.5197 N   0  0  0  0  0  0  0  0  0  0  0  0
   22.8427  -27.6786   13.0643 N   0  0  0  0  0  0  0  0  0  0  0  0
   23.1946  -32.2390   12.1771 N   0  0  0  0  0  0  0  0  0  0  0  0
   20.6776  -31.6987   17.2671 C   0  0  0  0  0  0  0  0  0  0  0  0
   23.0000  -31.2299   18.2655 C   0  0  0  0  0  0  0  0  0  0  0  0
   22.8438  -25.6414   13.7312 C   0  0  0  0  0  0  0  0  0  0  0  0
   23.1256  -28.4589   10.7948 C   0  0  0  0  0  0  0  0  0  0  0  0
   23.3154  -30.7238   10.3479 C   0  0  0  0  0  0  0  0  0  0  0  0
   23.3295  -33.5090   11.4654 C   0  0  0  0  0  0  0  0  0  0  0  0
   23.1148  -32.7881   13.5130 C   0  0  0  0  0  0  0  0  0  0  0  0
   23.3684  -34.6385   12.2891 C   0  0  0  0  0  0  0  0  0  0  0  0
   21.8600  -27.0558   17.0678 C   0  0  0  0  0  0  0  0  0  0  0  0
   22.1786  -26.0115   16.1785 C   0  0  0  0  0  0  0  0  0  0  0  0
   23.2898  -34.9005   14.9171 C   0  0  0  0  0  0  0  0  0  0  0  0
   22.2002  -28.7404   15.2642 C   0  0  0  0  0  0  0  0  0  0  0  0
   22.5856  -36.2498   14.8916 C   0  0  0  0  0  0  0  0  0  0  0  0
   21.9019  -30.7700   17.3044 C   0  0  0  0  0  0  0  0  0  0  0  0
   22.9943  -28.7113   12.1893 C   0  0  0  0  0  0  0  0  0  0  0  0
   23.1802  -30.9729   11.7376 C   0  0  0  0  0  0  0  0  0  0  0  0
   21.8705  -28.4030   16.6192 C   0  0  0  0  0  0  0  0  0  0  0  0
   22.5115  -27.6906   14.3795 C   0  0  0  0  0  0  0  0  0  0  0  0
   23.2484  -34.1498   13.6078 C   0  0  0  0  0  0  0  0  0  0  0  0
   22.4887  -26.3851   14.8712 C   0  0  0  0  0  0  0  0  0  0  0  0
   22.5749  -36.3729   12.9386 H   0  0  0  0  0  0  0  0  0  0  0  0
   21.0549  -29.1222   18.3519 H   0  0  0  0  0  0  0  0  0  0  0  0
   20.9782  -32.6406   17.1172 H   0  0  0  0  0  0  0  0  0  0  0  0
   20.1877  -31.6396   18.1369 H   0  0  0  0  0  0  0  0  0  0  0  0
   20.0705  -31.4202   16.5229 H   0  0  0  0  0  0  0  0  0  0  0  0
   23.2167  -32.1901   18.0892 H   0  0  0  0  0  0  0  0  0  0  0  0
   23.8187  -30.6726   18.1274 H   0  0  0  0  0  0  0  0  0  0  0  0
   22.6822  -31.1276   19.2082 H   0  0  0  0  0  0  0  0  0  0  0  0
   22.9593  -24.6490   13.6896 H   0  0  0  0  0  0  0  0  0  0  0  0
   23.0954  -27.5174   10.4593 H   0  0  0  0  0  0  0  0  0  0  0  0
   23.4279  -31.4801    9.7035 H   0  0  0  0  0  0  0  0  0  0  0  0
   23.3891  -33.5655   10.4688 H   0  0  0  0  0  0  0  0  0  0  0  0
   22.9712  -32.2110   14.3170 H   0  0  0  0  0  0  0  0  0  0  0  0
   23.4618  -35.5924   12.0037 H   0  0  0  0  0  0  0  0  0  0  0  0
   21.6258  -26.8481   18.0175 H   0  0  0  0  0  0  0  0  0  0  0  0
   22.1824  -25.0545   16.4685 H   0  0  0  0  0  0  0  0  0  0  0  0
   24.2478  -35.0524   15.1603 H   0  0  0  0  0  0  0  0  0  0  0  0
   22.8542  -34.3337   15.6164 H   0  0  0  0  0  0  0  0  0  0  0  0
   22.2087  -29.6922   14.9577 H   0  0  0  0  0  0  0  0  0  0  0  0
   22.3043  -30.8117   16.3899 H   0  0  0  0  0  0  0  0  0  0  0  0
  1 21  1  0  0  0  0
  2 21  2  0  0  0  0
  3  7  1  0  0  0  0
  3 11  2  0  0  0  0
  4 12  1  0  0  0  0
  4 13  2  0  0  0  0
  5 23  1  0  0  0  0
  5 24  2  0  0  0  0
  6 22  1  0  0  0  0
  6 25  1  0  0  0  0
  7 23  1  0  0  0  0
  7 26  1  0  0  0  0
  8 14  1  0  0  0  0
  8 15  1  0  0  0  0
  8 24  1  0  0  0  0
  9 22  1  0  0  0  0
 10 22  1  0  0  0  0
 11 28  1  0  0  0  0
 12 23  2  0  0  0  0
 13 24  1  0  0  0  0
 14 16  2  0  0  0  0
 15 27  2  0  0  0  0
 16 27  1  0  0  0  0
 17 18  1  0  0  0  0
 17 25  2  0  0  0  0
 18 28  2  0  0  0  0
 19 21  1  0  0  0  0
 19 27  1  0  0  0  0
 20 25  1  0  0  0  0
 20 26  2  0  0  0  0
 26 28  1  0  0  0  0
  1 29  1  0  0  0  0
  6 30  1  0  0  0  0
  9 31  1  0  0  0  0
  9 32  1  0  0  0  0
  9 33  1  0  0  0  0
 10 34  1  0  0  0  0
 10 35  1  0  0  0  0
 10 36  1  0  0  0  0
 11 37  1  0  0  0  0
 12 38  1  0  0  0  0
 13 39  1  0  0  0  0
 14 40  1  0  0  0  0
 15 41  1  0  0  0  0
 16 42  1  0  0  0  0
 17 43  1  0  0  0  0
 18 44  1  0  0  0  0
 19 45  1  0  0  0  0
 19 46  1  0  0  0  0
 20 47  1  0  0  0  0
 22 48  1  0  0  0  0
M  END
> <pdb_id>
3AT4

> <uniprot_id>
P68400

> <usmiles>
O=C(O)CC1=CN(c2nc(N3N=Cc4c3cc(NC(C)C)cc4)cnc2)C=C1

$$$$
CCT_B_2001
          07202412553D 1   1.00000     0.00000     0
            
 41 43  0  0  0  0            999 V2000
   43.5157   14.3472   57.8528 S   0  0  0  0  0  0  0  0  0  0  0  0
   41.1171   12.9877   53.4433 S   0  0  0  0  0  0  0  0  0  0  0  0
   40.7359   11.6784   53.9443 O   0  0  0  0  0  0  0  0  0  0  0  0
   41.3249   12.9913   52.0036 O   0  0  0  0  0  0  0  0  0  0  0  0
   45.5159   15.8305   56.1454 O   0  0  0  0  0  0  0  0  0  0  0  0
   44.5484   15.3976   54.2137 O   0  0  0  0  0  0  0  0  0  0  0  0
   39.5080   11.0647   63.9000 N   0  0  0  0  0  0  0  0  0  0  0  0
   42.6340   13.3413   54.1202 N   0  0  0  0  0  0  0  0  0  0  0  0
   41.0418   16.1535   52.5948 C   0  0  0  0  0  0  0  0  0  0  0  0
   39.9508   11.3995   62.8547 C   0  0  0  0  0  0  0  0  0  0  0  0
   37.6286   14.5974   54.8782 C   0  0  0  0  0  0  0  0  0  0  0  0
   37.6730   15.9537   54.4619 C   0  0  0  0  0  0  0  0  0  0  0  0
   38.6963   13.7270   54.5463 C   0  0  0  0  0  0  0  0  0  0  0  0
   38.7960   16.4331   53.7234 C   0  0  0  0  0  0  0  0  0  0  0  0
   39.7035   11.8806   60.4136 C   0  0  0  0  0  0  0  0  0  0  0  0
   41.8705   12.2241   61.5215 C   0  0  0  0  0  0  0  0  0  0  0  0
   40.2626   12.3147   59.1797 C   0  0  0  0  0  0  0  0  0  0  0  0
   42.4258   12.6539   60.2942 C   0  0  0  0  0  0  0  0  0  0  0  0
   41.9519   12.8553   56.5264 C   0  0  0  0  0  0  0  0  0  0  0  0
   44.6419   15.2645   55.4494 C   0  0  0  0  0  0  0  0  0  0  0  0
   42.2508   13.1946   57.8367 C   0  0  0  0  0  0  0  0  0  0  0  0
   43.6621   14.4036   56.1626 C   0  0  0  0  0  0  0  0  0  0  0  0
   39.8318   14.1929   53.8048 C   0  0  0  0  0  0  0  0  0  0  0  0
   42.7597   13.5429   55.5538 C   0  0  0  0  0  0  0  0  0  0  0  0
   39.8864   15.5654   53.3819 C   0  0  0  0  0  0  0  0  0  0  0  0
   40.5026   11.8289   61.6013 C   0  0  0  0  0  0  0  0  0  0  0  0
   41.6381   12.7132   59.1003 C   0  0  0  0  0  0  0  0  0  0  0  0
   45.5397   15.6842   57.1343 H   0  0  0  0  0  0  0  0  0  0  0  0
   43.4402   13.4108   53.5326 H   0  0  0  0  0  0  0  0  0  0  0  0
   41.7262   15.4440   52.4269 H   0  0  0  0  0  0  0  0  0  0  0  0
   40.7052   16.5054   51.7213 H   0  0  0  0  0  0  0  0  0  0  0  0
   41.4557   16.8990   53.1172 H   0  0  0  0  0  0  0  0  0  0  0  0
   36.8479   14.2579   55.4030 H   0  0  0  0  0  0  0  0  0  0  0  0
   36.9192   16.5716   54.6855 H   0  0  0  0  0  0  0  0  0  0  0  0
   38.6573   12.7702   54.8344 H   0  0  0  0  0  0  0  0  0  0  0  0
   38.8235   17.3913   53.4388 H   0  0  0  0  0  0  0  0  0  0  0  0
   38.7420   11.6086   60.4523 H   0  0  0  0  0  0  0  0  0  0  0  0
   42.4425   12.1969   62.3413 H   0  0  0  0  0  0  0  0  0  0  0  0
   39.6910   12.3422   58.3596 H   0  0  0  0  0  0  0  0  0  0  0  0
   43.3885   12.9221   60.2595 H   0  0  0  0  0  0  0  0  0  0  0  0
   41.2422   12.1952   56.2803 H   0  0  0  0  0  0  0  0  0  0  0  0
  1 21  1  0  0  0  0
  1 22  1  0  0  0  0
  2  3  2  0  0  0  0
  2  4  2  0  0  0  0
  2  8  1  0  0  0  0
  2 23  1  0  0  0  0
  5 20  1  0  0  0  0
  6 20  2  0  0  0  0
  7 10  3  0  0  0  0
  8 24  1  0  0  0  0
  9 25  1  0  0  0  0
 10 26  1  0  0  0  0
 11 12  2  0  0  0  0
 11 13  1  0  0  0  0
 12 14  1  0  0  0  0
 13 23  2  0  0  0  0
 14 25  2  0  0  0  0
 15 17  1  0  0  0  0
 15 26  2  0  0  0  0
 16 18  2  0  0  0  0
 16 26  1  0  0  0  0
 17 27  2  0  0  0  0
 18 27  1  0  0  0  0
 19 21  2  0  0  0  0
 19 24  1  0  0  0  0
 20 22  1  0  0  0  0
 21 27  1  0  0  0  0
 22 24  2  0  0  0  0
 23 25  1  0  0  0  0
  5 28  1  0  0  0  0
  8 29  1  0  0  0  0
  9 30  1  0  0  0  0
  9 31  1  0  0  0  0
  9 32  1  0  0  0  0
 11 33  1  0  0  0  0
 12 34  1  0  0  0  0
 13 35  1  0  0  0  0
 14 36  1  0  0  0  0
 15 37  1  0  0  0  0
 16 38  1  0  0  0  0
 17 39  1  0  0  0  0
 18 40  1  0  0  0  0
 19 41  1  0  0  0  0
M  END
> <pdb_id>
2D3U

> <uniprot_id>
Q99AU2

> <usmiles>
S(=O)(=O)(NC1=C(SC(c2ccc(C#N)cc2)=C1)C(=O)O)c3c(cccc3)C

$$$$
CDP_A_301
          07212402383D 1   1.00000     0.00000     0
            
 40 41  0  0  0  0            999 V2000
   -6.6913  -32.8690   21.8408 P   0  0  0  0  0  0  0  0  0  0  0  0
   -8.7523  -34.9259   22.0383 P   0  0  0  0  0  0  0  0  0  0  0  0
   -5.3701  -33.3866   22.3438 O   0  0  0  0  0  0  0  0  0  0  0  0
   -6.8620  -33.0806   20.3702 O   0  0  0  0  0  0  0  0  0  0  0  0
   -6.8473  -31.3973   22.1588 O   0  0  0  0  0  0  0  0  0  0  0  0
   -9.6320  -34.4067   20.9297 O   0  0  0  0  0  0  0  0  0  0  0  0
   -7.8612  -36.0415   21.5546 O   0  0  0  0  0  0  0  0  0  0  0  0
  -14.5904  -38.6077   24.3871 O   0  0  0  0  0  0  0  0  0  0  0  0
  -11.5662  -39.2060   22.6972 O   0  0  0  0  0  0  0  0  0  0  0  0
   -9.5716  -39.4685   24.2444 O   0  0  0  0  0  0  0  0  0  0  0  0
   -7.8523  -33.6861   22.6691 O   0  0  0  0  0  0  0  0  0  0  0  0
   -9.6605  -35.3577   23.3334 O   0  0  0  0  0  0  0  0  0  0  0  0
  -10.8603  -37.1349   25.4664 O   0  0  0  0  0  0  0  0  0  0  0  0
  -16.4244  -34.1669   24.1028 N   0  0  0  0  0  0  0  0  0  0  0  0
  -15.5373  -36.5101   24.2537 N   0  0  0  0  0  0  0  0  0  0  0  0
  -12.9931  -36.9218   24.3573 N   0  0  0  0  0  0  0  0  0  0  0  0
   -8.9228  -35.8968   24.3969 C   0  0  0  0  0  0  0  0  0  0  0  0
  -12.7384  -35.4793   24.3009 C   0  0  0  0  0  0  0  0  0  0  0  0
  -13.8933  -34.5347   24.2195 C   0  0  0  0  0  0  0  0  0  0  0  0
  -14.4002  -37.4588   24.3416 C   0  0  0  0  0  0  0  0  0  0  0  0
  -11.2306  -37.9553   23.3664 C   0  0  2  0  0  0  0  0  0  0  0  0
   -9.6489  -38.0964   23.8149 C   0  0  1  0  0  0  0  0  0  0  0  0
  -11.8437  -37.8433   24.4647 C   0  0  1  0  0  0  0  0  0  0  0  0
  -15.3037  -35.0738   24.1888 C   0  0  0  0  0  0  0  0  0  0  0  0
   -9.4697  -37.3121   24.8117 C   0  0  2  0  0  0  0  0  0  0  0  0
   -5.3012  -33.2238   23.3281 H   0  0  0  0  0  0  0  0  0  0  0  0
   -7.7503  -32.7225   20.0828 H   0  0  0  0  0  0  0  0  0  0  0  0
  -10.2099  -33.6697   21.2801 H   0  0  0  0  0  0  0  0  0  0  0  0
  -12.5208  -39.1795   22.4002 H   0  0  0  0  0  0  0  0  0  0  0  0
   -8.6397  -39.6719   24.5445 H   0  0  0  0  0  0  0  0  0  0  0  0
  -16.2670  -33.1804   24.0582 H   0  0  0  0  0  0  0  0  0  0  0  0
  -17.3578  -34.5255   24.0879 H   0  0  0  0  0  0  0  0  0  0  0  0
   -8.9849  -35.2806   25.1820 H   0  0  0  0  0  0  0  0  0  0  0  0
   -7.9666  -35.9860   24.1180 H   0  0  0  0  0  0  0  0  0  0  0  0
  -11.8011  -35.1309   24.3167 H   0  0  0  0  0  0  0  0  0  0  0  0
  -13.7328  -33.5483   24.1854 H   0  0  0  0  0  0  0  0  0  0  0  0
  -11.3805  -37.1640   22.7737 H   0  0  0  0  0  0  0  0  0  0  0  0
   -9.0223  -37.8997   23.0607 H   0  0  0  0  0  0  0  0  0  0  0  0
  -12.1292  -38.7369   24.8110 H   0  0  0  0  0  0  0  0  0  0  0  0
   -8.8425  -37.7365   25.4647 H   0  0  0  0  0  0  0  0  0  0  0  0
  1  3  1  0  0  0  0
  1  4  1  0  0  0  0
  1  5  2  0  0  0  0
  1 11  1  0  0  0  0
  2  6  1  0  0  0  0
  2  7  2  0  0  0  0
  2 11  1  0  0  0  0
  2 12  1  0  0  0  0
  8 20  2  0  0  0  0
  9 21  1  0  0  0  0
 10 22  1  0  0  0  0
 12 17  1  0  0  0  0
 13 23  1  0  0  0  0
 13 25  1  0  0  0  0
 14 24  1  0  0  0  0
 15 20  1  0  0  0  0
 15 24  2  0  0  0  0
 16 18  1  0  0  0  0
 16 20  1  0  0  0  0
 16 23  1  0  0  0  0
 17 25  1  0  0  0  0
 18 19  2  0  0  0  0
 19 24  1  0  0  0  0
 21 22  1  0  0  0  0
 21 23  1  0  0  0  0
 22 25  1  0  0  0  0
  3 26  1  0  0  0  0
  4 27  1  0  0  0  0
  6 28  1  0  0  0  0
  9 29  1  0  0  0  0
 10 30  1  0  0  0  0
 14 31  1  0  0  0  0
 14 32  1  0  0  0  0
 17 33  1  0  0  0  0
 17 34  1  0  0  0  0
 18 35  1  0  0  0  0
 19 36  1  0  0  0  0
 21 37  1  0  0  0  0
 22 38  1  0  0  0  0
 23 39  1  0  0  0  0
 25 40  1  0  0  0  0
M  END
> <pdb_id>
6CVF

> <uniprot_id>
P9WPQ5

> <usmiles>
P(=O)(OP(=O)(O)O)(OC[C@H]1O[C@@H](N2C(=O)N=C(N)C=C2)[C@H](O)[C@@H]1O)O

$$$$
CEB_L_502
          07212403273D 1   1.00000     0.00000     0
            
 32 32  0  0  0  0            999 V2000
  131.2300   69.8650   -0.5320 Cl  0  0  0  0  0  0  0  0  0  0  0  0
  131.7750   65.0570   -2.5430 N   0  0  0  0  0  0  0  0  0  0  0  0
  133.0310   71.7780   -4.6260 N   0  0  0  0  0  0  0  0  0  0  0  0
  132.1620   70.8490   -2.7220 N   0  0  0  0  0  0  0  0  0  0  0  0
  131.1660   68.6770   -2.8340 N   0  0  0  0  0  0  0  0  0  0  0  0
  132.0950   69.6650   -4.8100 N   0  0  0  0  0  0  0  0  0  0  0  0
  131.1100   67.5990   -4.8670 N   0  0  0  0  0  0  0  0  0  0  0  0
  133.5770   74.1430   -4.8680 C   0  0  0  0  0  0  0  0  0  0  0  0
  128.9030   64.8120   -5.7040 C   0  0  0  0  0  0  0  0  0  0  0  0
  129.0590   66.8690   -3.7540 C   0  0  0  0  0  0  0  0  0  0  0  0
  133.4340   72.9970   -3.9230 C   0  0  0  0  0  0  0  0  0  0  0  0
  131.1720   65.6720   -3.3290 C   0  0  0  0  0  0  0  0  0  0  0  0
  130.2860   65.3830   -5.4860 C   0  0  0  0  0  0  0  0  0  0  0  0
  131.5570   69.7910   -2.2450 C   0  0  0  0  0  0  0  0  0  0  0  0
  132.4120   70.7240   -4.0550 C   0  0  0  0  0  0  0  0  0  0  0  0
  131.4760   68.6810   -4.1640 C   0  0  0  0  0  0  0  0  0  0  0  0
  130.4050   66.4260   -4.3700 C   0  0  2  0  0  0  0  0  0  0  0  0
  133.2297   71.7222   -5.6045 H   0  0  0  0  0  0  0  0  0  0  0  0
  131.3472   67.5978   -5.8385 H   0  0  0  0  0  0  0  0  0  0  0  0
  133.8523   74.9602   -4.3617 H   0  0  0  0  0  0  0  0  0  0  0  0
  134.2722   73.9254   -5.5531 H   0  0  0  0  0  0  0  0  0  0  0  0
  132.7023   74.3114   -5.3225 H   0  0  0  0  0  0  0  0  0  0  0  0
  128.9313   64.1451   -6.4486 H   0  0  0  0  0  0  0  0  0  0  0  0
  128.5918   64.3632   -4.8663 H   0  0  0  0  0  0  0  0  0  0  0  0
  128.2713   65.5500   -5.9412 H   0  0  0  0  0  0  0  0  0  0  0  0
  128.5697   66.0674   -3.4106 H   0  0  0  0  0  0  0  0  0  0  0  0
  129.2301   67.5033   -3.0001 H   0  0  0  0  0  0  0  0  0  0  0  0
  128.5061   67.3231   -4.4526 H   0  0  0  0  0  0  0  0  0  0  0  0
  134.3107   72.8371   -3.4692 H   0  0  0  0  0  0  0  0  0  0  0  0
  132.7408   73.2231   -3.2387 H   0  0  0  0  0  0  0  0  0  0  0  0
  130.5796   65.8120   -6.3403 H   0  0  0  0  0  0  0  0  0  0  0  0
  130.9001   64.6253   -5.2653 H   0  0  0  0  0  0  0  0  0  0  0  0
  1 14  1  0  0  0  0
  2 12  3  0  0  0  0
  3 11  1  0  0  0  0
  3 15  1  0  0  0  0
  4 14  1  0  0  0  0
  4 15  2  0  0  0  0
  5 14  2  0  0  0  0
  5 16  1  0  0  0  0
  6 15  1  0  0  0  0
  6 16  2  0  0  0  0
  7 16  1  0  0  0  0
  7 17  1  0  0  0  0
  8 11  1  0  0  0  0
  9 13  1  0  0  0  0
 10 17  1  0  0  0  0
 12 17  1  0  0  0  0
 13 17  1  0  0  0  0
  3 18  1  0  0  0  0
  7 19  1  0  0  0  0
  8 20  1  0  0  0  0
  8 21  1  0  0  0  0
  8 22  1  0  0  0  0
  9 23  1  0  0  0  0
  9 24  1  0  0  0  0
  9 25  1  0  0  0  0
 10 26  1  0  0  0  0
 10 27  1  0  0  0  0
 10 28  1  0  0  0  0
 11 29  1  0  0  0  0
 11 30  1  0  0  0  0
 13 31  1  0  0  0  0
 13 32  1  0  0  0  0
M  END
> <pdb_id>
6PRC

> <uniprot_id>
P06009

> <usmiles>
Clc1nc(nc(n1)NCC)N[C@](C#N)(CC)C

$$$$
CG8_A_302
          07212403073D 1   1.00000     0.00000     0
            
 32 33  0  0  0  0            999 V2000
  -41.6340  -19.7000  -17.4840 O   0  0  0  0  0  0  0  0  0  0  0  0
  -42.0160  -19.9890  -19.6300 O   0  0  0  0  0  0  0  0  0  0  0  0
  -44.6000  -22.9970  -20.6090 O   0  0  0  0  0  0  0  0  0  0  0  0
  -48.3270  -25.0580  -18.9770 O   0  0  0  0  0  0  0  0  0  0  0  0
  -43.6120  -21.1830  -16.6410 N   0  0  0  0  0  0  0  0  0  0  0  0
  -46.4630  -24.0020  -19.7780 N   0  0  0  0  0  0  0  0  0  0  0  0
  -48.3450  -21.4950  -16.3200 N   0  0  0  0  0  0  0  0  0  0  0  0
  -45.7000  -21.9200  -18.8630 N   0  0  0  0  0  0  0  0  0  0  0  0
  -48.3110  -21.4990  -14.8630 C   0  0  0  0  0  0  0  0  0  0  0  0
  -47.1110  -20.9780  -16.9410 C   0  0  0  0  0  0  0  0  0  0  0  0
  -48.7100  -22.7860  -16.9360 C   0  0  0  0  0  0  0  0  0  0  0  0
  -44.7360  -20.8430  -18.8550 C   0  0  0  0  0  0  0  0  0  0  0  0
  -42.2680  -20.2170  -18.4300 C   0  0  0  0  0  0  0  0  0  0  0  0
  -45.5250  -22.9690  -19.7970 C   0  0  0  0  0  0  0  0  0  0  0  0
  -47.5600  -24.0990  -18.9150 C   0  0  0  0  0  0  0  0  0  0  0  0
  -43.4160  -21.1810  -18.1000 C   0  0  1  0  0  0  0  0  0  0  0  0
  -46.7800  -21.9990  -17.9980 C   0  0  0  0  0  0  0  0  0  0  0  0
  -47.6640  -22.9890  -17.9880 C   0  0  0  0  0  0  0  0  0  0  0  0
  -41.8790  -19.9185  -16.5394 H   0  0  0  0  0  0  0  0  0  0  0  0
  -42.7476  -21.4029  -16.1889 H   0  0  0  0  0  0  0  0  0  0  0  0
  -43.9225  -20.2796  -16.3451 H   0  0  0  0  0  0  0  0  0  0  0  0
  -46.3399  -24.7400  -20.4415 H   0  0  0  0  0  0  0  0  0  0  0  0
  -49.1745  -21.8597  -14.5104 H   0  0  0  0  0  0  0  0  0  0  0  0
  -47.5561  -22.0747  -14.5488 H   0  0  0  0  0  0  0  0  0  0  0  0
  -48.1791  -20.5653  -14.5301 H   0  0  0  0  0  0  0  0  0  0  0  0
  -46.3748  -20.9120  -16.2675 H   0  0  0  0  0  0  0  0  0  0  0  0
  -47.2689  -20.0798  -17.3513 H   0  0  0  0  0  0  0  0  0  0  0  0
  -49.6217  -22.7406  -17.3444 H   0  0  0  0  0  0  0  0  0  0  0  0
  -48.6836  -23.5230  -16.2606 H   0  0  0  0  0  0  0  0  0  0  0  0
  -45.1553  -20.0487  -18.4154 H   0  0  0  0  0  0  0  0  0  0  0  0
  -44.5078  -20.6179  -19.8023 H   0  0  0  0  0  0  0  0  0  0  0  0
  -43.1329  -22.1004  -18.3730 H   0  0  0  0  0  0  0  0  0  0  0  0
  1 13  1  0  0  0  0
  2 13  2  0  0  0  0
  3 14  2  0  0  0  0
  4 15  2  0  0  0  0
  5 16  1  0  0  0  0
  6 14  1  0  0  0  0
  6 15  1  0  0  0  0
  7  9  1  0  0  0  0
  7 10  1  0  0  0  0
  7 11  1  0  0  0  0
  8 12  1  0  0  0  0
  8 14  1  0  0  0  0
  8 17  1  0  0  0  0
 10 17  1  0  0  0  0
 11 18  1  0  0  0  0
 12 16  1  0  0  0  0
 13 16  1  0  0  0  0
 15 18  1  0  0  0  0
 17 18  2  0  0  0  0
  1 19  1  0  0  0  0
  5 20  1  0  0  0  0
  5 21  1  0  0  0  0
  6 22  1  0  0  0  0
  9 23  1  0  0  0  0
  9 24  1  0  0  0  0
  9 25  1  0  0  0  0
 10 26  1  0  0  0  0
 10 27  1  0  0  0  0
 11 28  1  0  0  0  0
 11 29  1  0  0  0  0
 12 30  1  0  0  0  0
 12 31  1  0  0  0  0
 16 32  1  0  0  0  0
M  END
> <pdb_id>
6F28

> <uniprot_id>
P42264

> <usmiles>
O=C1N(C2=C(C(=O)N1)CN(C2)C)C[C@H](N)C(=O)O

$$$$
CIE_A_703
          07212402443D 1   1.00000     0.00000     0
            
 42 43  0  0  0  0            999 V2000
   59.5641   55.4154   77.6508 Cl  0  0  0  0  0  0  0  0  0  0  0  0
   51.9487   59.2274   79.9165 S   0  0  0  0  0  0  0  0  0  0  0  0
   50.6791   58.6271   79.4736 O   0  0  0  0  0  0  0  0  0  0  0  0
   51.8936   59.1424   81.2910 O   0  0  0  0  0  0  0  0  0  0  0  0
   54.7769   59.6100   80.3336 O   0  0  0  0  0  0  0  0  0  0  0  0
   52.6480   59.7130   76.6023 O   0  0  0  0  0  0  0  0  0  0  0  0
   59.4288   59.7865   80.6297 O   0  0  0  0  0  0  0  0  0  0  0  0
   54.7162   60.3599   77.1035 O   0  0  0  0  0  0  0  0  0  0  0  0
   53.1823   58.2861   79.3386 N   0  0  0  0  0  0  0  0  0  0  0  0
   57.4997   56.7995   78.5359 N   0  0  0  0  0  0  0  0  0  0  0  0
   55.4609   57.7252   79.0994 N   0  0  0  0  0  0  0  0  0  0  0  0
   57.4036   58.7085   79.8351 N   0  0  0  0  0  0  0  0  0  0  0  0
   60.7432   59.9276   80.3672 C   0  0  0  0  0  0  0  0  0  0  0  0
   56.6717   59.7095   76.0609 C   0  0  0  0  0  0  0  0  0  0  0  0
   55.2063   59.6205   75.9988 C   0  0  0  0  0  0  0  0  0  0  0  0
   51.6790   63.3077   80.0329 C   0  0  0  0  0  0  0  0  0  0  0  0
   52.3126   63.7322   78.8132 C   0  0  0  0  0  0  0  0  0  0  0  0
   51.5862   61.9265   80.3446 C   0  0  0  0  0  0  0  0  0  0  0  0
   52.8383   62.7796   77.9140 C   0  0  0  0  0  0  0  0  0  0  0  0
   59.5542   57.7151   79.2228 C   0  0  0  0  0  0  0  0  0  0  0  0
   58.8354   56.7218   78.5218 C   0  0  0  0  0  0  0  0  0  0  0  0
   54.5216   58.6376   79.6643 C   0  0  0  0  0  0  0  0  0  0  0  0
   53.3298   60.4197   77.2251 C   0  0  0  0  0  0  0  0  0  0  0  0
   52.1071   60.9803   79.4493 C   0  0  0  0  0  0  0  0  0  0  0  0
   58.7893   58.7335   79.8915 C   0  0  0  0  0  0  0  0  0  0  0  0
   56.8215   57.7972   79.2025 C   0  0  0  0  0  0  0  0  0  0  0  0
   52.7391   61.4141   78.2046 C   0  0  0  0  0  0  0  0  0  0  0  0
   52.9893   57.4856   78.7713 H   0  0  0  0  0  0  0  0  0  0  0  0
   55.0876   56.9584   78.5773 H   0  0  0  0  0  0  0  0  0  0  0  0
   61.1143   60.6763   80.9166 H   0  0  0  0  0  0  0  0  0  0  0  0
   61.2214   59.0791   80.5937 H   0  0  0  0  0  0  0  0  0  0  0  0
   60.8692   60.1323   79.3965 H   0  0  0  0  0  0  0  0  0  0  0  0
   57.0692   59.2004   75.2975 H   0  0  0  0  0  0  0  0  0  0  0  0
   56.9502   60.6682   76.0032 H   0  0  0  0  0  0  0  0  0  0  0  0
   56.9930   59.3204   76.9243 H   0  0  0  0  0  0  0  0  0  0  0  0
   54.8714   60.0141   75.1427 H   0  0  0  0  0  0  0  0  0  0  0  0
   54.9142   58.6663   76.0638 H   0  0  0  0  0  0  0  0  0  0  0  0
   51.3031   63.9876   80.6626 H   0  0  0  0  0  0  0  0  0  0  0  0
   52.3809   64.7071   78.6013 H   0  0  0  0  0  0  0  0  0  0  0  0
   51.1530   61.6299   81.1957 H   0  0  0  0  0  0  0  0  0  0  0  0
   53.2816   63.0802   77.0696 H   0  0  0  0  0  0  0  0  0  0  0  0
   60.5537   57.7106   79.2531 H   0  0  0  0  0  0  0  0  0  0  0  0
  1 21  1  0  0  0  0
  2  3  2  0  0  0  0
  2  4  2  0  0  0  0
  2  9  1  0  0  0  0
  2 24  1  0  0  0  0
  5 22  2  0  0  0  0
  6 23  2  0  0  0  0
  7 13  1  0  0  0  0
  7 25  1  0  0  0  0
  8 15  1  0  0  0  0
  8 23  1  0  0  0  0
  9 22  1  0  0  0  0
 10 21  1  0  0  0  0
 10 26  2  0  0  0  0
 11 22  1  0  0  0  0
 11 26  1  0  0  0  0
 12 25  2  0  0  0  0
 12 26  1  0  0  0  0
 14 15  1  0  0  0  0
 16 17  2  0  0  0  0
 16 18  1  0  0  0  0
 17 19  1  0  0  0  0
 18 24  2  0  0  0  0
 19 27  2  0  0  0  0
 20 21  2  0  0  0  0
 20 25  1  0  0  0  0
 23 27  1  0  0  0  0
 24 27  1  0  0  0  0
  9 28  1  0  0  0  0
 11 29  1  0  0  0  0
 13 30  1  0  0  0  0
 13 31  1  0  0  0  0
 13 32  1  0  0  0  0
 14 33  1  0  0  0  0
 14 34  1  0  0  0  0
 14 35  1  0  0  0  0
 15 36  1  0  0  0  0
 15 37  1  0  0  0  0
 16 38  1  0  0  0  0
 17 39  1  0  0  0  0
 18 40  1  0  0  0  0
 19 41  1  0  0  0  0
 20 42  1  0  0  0  0
M  END
> <pdb_id>
6DEL

> <uniprot_id>
nan

> <usmiles>
Clc1nc(nc(OC)c1)NC(=O)NS(=O)(=O)c2c(cccc2)C(=O)OCC

$$$$
CIY_A_404
          07202401373D 1   1.00000     0.00000     0
            
 23 23  0  0  0  0            999 V2000
   23.0624  -28.6111   14.6023 O   0  0  0  0  0  0  0  0  0  0  0  0
   22.3977  -37.4060   14.1914 O   0  0  0  0  0  0  0  0  0  0  0  0
   22.2491  -35.7650   16.2928 O   0  0  0  0  0  0  0  0  0  0  0  0
   22.2487  -34.9119   17.4289 C   0  0  0  0  0  0  0  0  0  0  0  0
   23.1391  -29.4929   13.7658 C   0  0  0  0  0  0  0  0  0  0  0  0
   22.9257  -30.9340   14.1646 C   0  0  0  0  0  0  0  0  0  0  0  0
   22.8100  -35.5778   12.6594 C   0  0  0  0  0  0  0  0  0  0  0  0
   23.0907  -31.8795   13.2249 C   0  0  0  0  0  0  0  0  0  0  0  0
   22.9859  -34.2249   12.4497 C   0  0  0  0  0  0  0  0  0  0  0  0
   22.6633  -33.8141   14.8195 C   0  0  0  0  0  0  0  0  0  0  0  0
   22.5738  -36.0472   13.9408 C   0  0  0  0  0  0  0  0  0  0  0  0
   22.4964  -35.1901   15.0328 C   0  0  0  0  0  0  0  0  0  0  0  0
   22.9016  -33.3514   13.5250 C   0  0  0  0  0  0  0  0  0  0  0  0
   22.2282  -37.7246   15.1240 H   0  0  0  0  0  0  0  0  0  0  0  0
   22.0609  -35.4506   18.2502 H   0  0  0  0  0  0  0  0  0  0  0  0
   23.1425  -34.4720   17.5159 H   0  0  0  0  0  0  0  0  0  0  0  0
   21.5422  -34.2125   17.3203 H   0  0  0  0  0  0  0  0  0  0  0  0
   23.3436  -29.2627   12.8144 H   0  0  0  0  0  0  0  0  0  0  0  0
   22.6693  -31.1769   15.1001 H   0  0  0  0  0  0  0  0  0  0  0  0
   22.8529  -36.2156   11.8904 H   0  0  0  0  0  0  0  0  0  0  0  0
   23.3464  -31.6027   12.2986 H   0  0  0  0  0  0  0  0  0  0  0  0
   23.1725  -33.8771   11.5309 H   0  0  0  0  0  0  0  0  0  0  0  0
   22.6122  -33.1729   15.5852 H   0  0  0  0  0  0  0  0  0  0  0  0
  1  5  2  0  0  0  0
  2 11  1  0  0  0  0
  3  4  1  0  0  0  0
  3 12  1  0  0  0  0
  5  6  1  0  0  0  0
  6  8  2  0  0  0  0
  7  9  1  0  0  0  0
  7 11  2  0  0  0  0
  8 13  1  0  0  0  0
  9 13  2  0  0  0  0
 10 12  2  0  0  0  0
 10 13  1  0  0  0  0
 11 12  1  0  0  0  0
  2 14  1  0  0  0  0
  4 15  1  0  0  0  0
  4 16  1  0  0  0  0
  4 17  1  0  0  0  0
  5 18  1  0  0  0  0
  6 19  1  0  0  0  0
  7 20  1  0  0  0  0
  8 21  1  0  0  0  0
  9 22  1  0  0  0  0
 10 23  1  0  0  0  0
M  END
> <pdb_id>
6HOT

> <uniprot_id>
P68400

> <usmiles>
O=C/C=C/c1cc(OC)c(O)cc1

$$$$
CJB_A_998
          07202400133D 1   1.00000     0.00000     0
            
 33 34  0  0  0  0            999 V2000
   33.3278   18.6602   27.3227 O   0  0  0  0  0  0  0  0  0  0  0  0
   32.4112   24.2358   30.0275 O   0  0  0  0  0  0  0  0  0  0  0  0
   36.5223   25.5278   31.4851 O   0  0  0  0  0  0  0  0  0  0  0  0
   33.8568   24.5152   26.0857 O   0  0  0  0  0  0  0  0  0  0  0  0
   33.1207   22.5075   24.0913 O   0  0  0  0  0  0  0  0  0  0  0  0
   31.2791   20.4775   25.1794 O   0  0  0  0  0  0  0  0  0  0  0  0
   33.3377   21.4645   28.1333 O   0  0  0  0  0  0  0  0  0  0  0  0
   34.4552   24.9112   30.8148 N   0  0  0  0  0  0  0  0  0  0  0  0
   34.2344   23.5890   28.8151 N   0  0  0  0  0  0  0  0  0  0  0  0
   32.1939   19.3671   27.8246 C   0  0  0  0  0  0  0  0  0  0  0  0
   35.6385   23.5947   28.6708 C   0  0  0  0  0  0  0  0  0  0  0  0
   36.4524   24.2616   29.5905 C   0  0  0  0  0  0  0  0  0  0  0  0
   33.6392   24.2413   29.8961 C   0  0  0  0  0  0  0  0  0  0  0  0
   35.8462   24.9248   30.6595 C   0  0  0  0  0  0  0  0  0  0  0  0
   33.3505   22.8861   27.8482 C   0  0  1  0  0  0  0  0  0  0  0  0
   33.7240   23.1135   26.3659 C   0  0  1  0  0  0  0  0  0  0  0  0
   32.6751   22.4543   25.4460 C   0  0  2  0  0  0  0  0  0  0  0  0
   32.4363   20.9913   25.8529 C   0  0  1  0  0  0  0  0  0  0  0  0
   32.2627   20.8350   27.3866 C   0  0  2  0  0  0  0  0  0  0  0  0
   33.2786   17.7038   27.6107 H   0  0  0  0  0  0  0  0  0  0  0  0
   34.0983   24.6414   25.1236 H   0  0  0  0  0  0  0  0  0  0  0  0
   32.4382   22.0794   23.4989 H   0  0  0  0  0  0  0  0  0  0  0  0
   31.1311   19.5262   25.4495 H   0  0  0  0  0  0  0  0  0  0  0  0
   34.0397   25.3855   31.5910 H   0  0  0  0  0  0  0  0  0  0  0  0
   32.1875   19.3184   28.8234 H   0  0  0  0  0  0  0  0  0  0  0  0
   31.3580   18.9521   27.4653 H   0  0  0  0  0  0  0  0  0  0  0  0
   36.0567   23.1147   27.8996 H   0  0  0  0  0  0  0  0  0  0  0  0
   37.4468   24.2638   29.4854 H   0  0  0  0  0  0  0  0  0  0  0  0
   32.4212   23.2301   27.9824 H   0  0  0  0  0  0  0  0  0  0  0  0
   34.6071   22.6761   26.1958 H   0  0  0  0  0  0  0  0  0  0  0  0
   31.8142   22.9570   25.5239 H   0  0  0  0  0  0  0  0  0  0  0  0
   33.2299   20.4527   25.5699 H   0  0  0  0  0  0  0  0  0  0  0  0
   31.4043   21.2767   27.6476 H   0  0  0  0  0  0  0  0  0  0  0  0
  1 10  1  0  0  0  0
  2 13  2  0  0  0  0
  3 14  2  0  0  0  0
  4 16  1  0  0  0  0
  5 17  1  0  0  0  0
  6 18  1  0  0  0  0
  7 15  1  0  0  0  0
  7 19  1  0  0  0  0
  8 13  1  0  0  0  0
  8 14  1  0  0  0  0
  9 11  1  0  0  0  0
  9 13  1  0  0  0  0
  9 15  1  0  0  0  0
 10 19  1  0  0  0  0
 11 12  2  0  0  0  0
 12 14  1  0  0  0  0
 15 16  1  0  0  0  0
 16 17  1  0  0  0  0
 17 18  1  0  0  0  0
 18 19  1  0  0  0  0
  1 20  1  0  0  0  0
  4 21  1  0  0  0  0
  5 22  1  0  0  0  0
  6 23  1  0  0  0  0
  8 24  1  0  0  0  0
 10 25  1  0  0  0  0
 10 26  1  0  0  0  0
 11 27  1  0  0  0  0
 12 28  1  0  0  0  0
 15 29  1  0  0  0  0
 16 30  1  0  0  0  0
 17 31  1  0  0  0  0
 18 32  1  0  0  0  0
 19 33  1  0  0  0  0
M  END
> <pdb_id>
3BCS

> <uniprot_id>
P00489

> <usmiles>
O=C1N(C=CC(=O)N1)[C@@H]2O[C@@H]([C@@H](O)[C@H](O)[C@H]2O)CO

$$$$
CJC_A_301
          07202407153D 1   1.00000     0.00000     0
            
 49 53  0  0  0  0            999 V2000
   10.1321   -2.0956   11.7571 Cl  0  0  0  0  0  0  0  0  0  0  0  0
   11.7094   -7.8865   16.0532 S   0  0  0  0  0  0  0  0  0  0  0  0
    6.3604   -6.4934   20.8557 O   0  0  0  0  0  0  0  0  0  0  0  0
    8.1955   -1.9092   16.1930 N   0  0  0  0  0  0  0  0  0  0  0  0
    7.3723   -9.6087   19.5464 N   0  0  0  0  0  0  0  0  0  0  0  0
    9.0892  -10.0768   17.9926 N   0  0  0  0  0  0  0  0  0  0  0  0
   12.4334   -6.0874   14.3548 N   0  0  0  0  0  0  0  0  0  0  0  0
   10.1779   -5.9546   15.0882 N   0  0  0  0  0  0  0  0  0  0  0  0
    8.0057   -6.8821   19.3826 N   0  0  0  0  0  0  0  0  0  0  0  0
   13.2206   -4.4593   12.6934 N   0  0  0  0  0  0  0  0  0  0  0  0
    8.5974   -4.3505   14.4191 N   0  0  0  0  0  0  0  0  0  0  0  0
   14.4401   -3.3424   10.1732 C   0  0  0  0  0  0  0  0  0  0  0  0
    7.5489   -5.0237   15.1802 C   0  0  0  0  0  0  0  0  0  0  0  0
    6.6968   -8.6929   20.2592 C   0  0  0  0  0  0  0  0  0  0  0  0
   10.0865   -9.6538   17.1947 C   0  0  0  0  0  0  0  0  0  0  0  0
    8.2937   -2.9871   14.0127 C   0  0  0  0  0  0  0  0  0  0  0  0
   13.4308   -2.5472   10.9874 C   0  0  0  0  0  0  0  0  0  0  0  0
    6.7687   -3.8240   15.7178 C   0  0  0  0  0  0  0  0  0  0  0  0
    9.7417   -7.3344   17.8158 C   0  0  0  0  0  0  0  0  0  0  0  0
   11.4035   -6.5308   15.0988 C   0  0  0  0  0  0  0  0  0  0  0  0
    7.0111   -7.3271   20.1784 C   0  0  0  0  0  0  0  0  0  0  0  0
   11.3081   -3.3251   12.4451 C   0  0  0  0  0  0  0  0  0  0  0  0
   10.4254   -8.3031   17.0807 C   0  0  0  0  0  0  0  0  0  0  0  0
    7.3942   -2.5467   15.1648 C   0  0  1  0  0  0  0  0  0  0  0  0
    8.3804   -9.1988   18.7334 C   0  0  0  0  0  0  0  0  0  0  0  0
   12.3156   -5.0424   13.5160 C   0  0  0  0  0  0  0  0  0  0  0  0
    9.8804   -4.9017   14.2944 C   0  0  0  0  0  0  0  0  0  0  0  0
   12.7114   -3.4243   11.9937 C   0  0  0  0  0  0  0  0  0  0  0  0
    8.7086   -7.7481   18.6499 C   0  0  0  0  0  0  0  0  0  0  0  0
   10.9969   -4.3619   13.4474 C   0  0  0  0  0  0  0  0  0  0  0  0
    7.6039   -1.6218   16.9463 H   0  0  0  0  0  0  0  0  0  0  0  0
    8.8776   -2.5566   16.5332 H   0  0  0  0  0  0  0  0  0  0  0  0
    8.2157   -5.9052   19.3420 H   0  0  0  0  0  0  0  0  0  0  0  0
   14.1694   -4.7649   12.6131 H   0  0  0  0  0  0  0  0  0  0  0  0
   14.8949   -2.7355    9.5215 H   0  0  0  0  0  0  0  0  0  0  0  0
   15.1208   -3.7436   10.7861 H   0  0  0  0  0  0  0  0  0  0  0  0
   13.9681   -4.0709    9.6768 H   0  0  0  0  0  0  0  0  0  0  0  0
    7.9297   -5.5769   15.9211 H   0  0  0  0  0  0  0  0  0  0  0  0
    6.9799   -5.5994   14.5929 H   0  0  0  0  0  0  0  0  0  0  0  0
    5.9547   -8.9899   20.8600 H   0  0  0  0  0  0  0  0  0  0  0  0
   10.6021  -10.3282   16.6661 H   0  0  0  0  0  0  0  0  0  0  0  0
    7.8111   -2.9618   13.1372 H   0  0  0  0  0  0  0  0  0  0  0  0
    9.1198   -2.4267   13.9544 H   0  0  0  0  0  0  0  0  0  0  0  0
   12.7573   -2.1456   10.3669 H   0  0  0  0  0  0  0  0  0  0  0  0
   13.9101   -1.8183   11.4762 H   0  0  0  0  0  0  0  0  0  0  0  0
    6.8118   -3.8147   16.7168 H   0  0  0  0  0  0  0  0  0  0  0  0
    5.8142   -3.8850   15.4259 H   0  0  0  0  0  0  0  0  0  0  0  0
    9.9880   -6.3678   17.7448 H   0  0  0  0  0  0  0  0  0  0  0  0
    6.6849   -1.9229   14.8366 H   0  0  0  0  0  0  0  0  0  0  0  0
  1 22  1  0  0  0  0
  2 20  1  0  0  0  0
  2 23  1  0  0  0  0
  3 21  2  0  0  0  0
  4 24  1  0  0  0  0
  5 14  2  0  0  0  0
  5 25  1  0  0  0  0
  6 15  1  0  0  0  0
  6 25  2  0  0  0  0
  7 20  2  0  0  0  0
  7 26  1  0  0  0  0
  8 20  1  0  0  0  0
  8 27  2  0  0  0  0
  9 21  1  0  0  0  0
  9 29  1  0  0  0  0
 10 26  1  0  0  0  0
 10 28  1  0  0  0  0
 11 13  1  0  0  0  0
 11 16  1  0  0  0  0
 11 27  1  0  0  0  0
 12 17  1  0  0  0  0
 13 18  1  0  0  0  0
 14 21  1  0  0  0  0
 15 23  2  0  0  0  0
 16 24  1  0  0  0  0
 17 28  1  0  0  0  0
 18 24  1  0  0  0  0
 19 23  1  0  0  0  0
 19 29  2  0  0  0  0
 22 28  2  0  0  0  0
 22 30  1  0  0  0  0
 25 29  1  0  0  0  0
 26 30  2  0  0  0  0
 27 30  1  0  0  0  0
  4 31  1  0  0  0  0
  4 32  1  0  0  0  0
  9 33  1  0  0  0  0
 10 34  1  0  0  0  0
 12 35  1  0  0  0  0
 12 36  1  0  0  0  0
 12 37  1  0  0  0  0
 13 38  1  0  0  0  0
 13 39  1  0  0  0  0
 14 40  1  0  0  0  0
 15 41  1  0  0  0  0
 16 42  1  0  0  0  0
 16 43  1  0  0  0  0
 17 44  1  0  0  0  0
 17 45  1  0  0  0  0
 18 46  1  0  0  0  0
 18 47  1  0  0  0  0
 19 48  1  0  0  0  0
 24 49  1  0  0  0  0
M  END
> <pdb_id>
4GGL

> <uniprot_id>
Q839Z1

> <usmiles>
ClC=1c2c(nc(Sc3cnc4N=CC(=O)Nc4c3)nc2NC1CC)N5C[C@H](N)CC5

$$$$
CJK_A_302
          07212403053D 1   1.00000     0.00000     0
            
 40 41  0  0  0  0            999 V2000
    3.3202   72.4591   58.4476 S   0  0  0  0  0  0  0  0  0  0  0  0
    3.4032   71.1185   58.9439 O   0  0  0  0  0  0  0  0  0  0  0  0
    2.5929   73.4286   59.2078 O   0  0  0  0  0  0  0  0  0  0  0  0
   -0.3364   68.4414   53.5486 O   0  0  0  0  0  0  0  0  0  0  0  0
    0.8216   72.2667   53.0769 O   0  0  0  0  0  0  0  0  0  0  0  0
    4.8329   73.0081   58.2755 N   0  0  0  0  0  0  0  0  0  0  0  0
   -1.1253   70.3055   54.5651 N   0  0  0  0  0  0  0  0  0  0  0  0
    1.1332   69.8974   54.5202 N   0  0  0  0  0  0  0  0  0  0  0  0
   -4.3558   71.7033   49.0183 C   0  0  0  0  0  0  0  0  0  0  0  0
   -2.5207   70.0016   54.2852 C   0  0  0  0  0  0  0  0  0  0  0  0
    2.4585   73.5655   56.1025 C   0  0  0  0  0  0  0  0  0  0  0  0
    1.8484   73.5288   54.8550 C   0  0  0  0  0  0  0  0  0  0  0  0
   -2.9751   72.0276   51.1062 C   0  0  0  0  0  0  0  0  0  0  0  0
   -4.2142   70.0105   50.8865 C   0  0  0  0  0  0  0  0  0  0  0  0
   -2.5400   71.6263   52.3577 C   0  0  0  0  0  0  0  0  0  0  0  0
   -3.7690   69.5992   52.1334 C   0  0  0  0  0  0  0  0  0  0  0  0
    2.1373   71.1802   56.3345 C   0  0  0  0  0  0  0  0  0  0  0  0
   -0.1295   69.4853   54.1659 C   0  0  0  0  0  0  0  0  0  0  0  0
    2.5845   72.3951   56.8388 C   0  0  0  0  0  0  0  0  0  0  0  0
    1.3926   72.3244   54.3273 C   0  0  0  0  0  0  0  0  0  0  0  0
    1.5426   71.1421   55.0663 C   0  0  0  0  0  0  0  0  0  0  0  0
   -3.8314   71.2344   50.3539 C   0  0  0  0  0  0  0  0  0  0  0  0
   -2.9369   70.4065   52.8929 C   0  0  0  0  0  0  0  0  0  0  0  0
    0.4998   71.3921   52.7141 H   0  0  0  0  0  0  0  0  0  0  0  0
    4.8098   73.9458   57.9290 H   0  0  0  0  0  0  0  0  0  0  0  0
    5.2964   72.9913   59.1614 H   0  0  0  0  0  0  0  0  0  0  0  0
   -0.8985   71.1414   55.0648 H   0  0  0  0  0  0  0  0  0  0  0  0
    1.8627   69.2294   54.3732 H   0  0  0  0  0  0  0  0  0  0  0  0
   -4.9530   71.0016   48.6298 H   0  0  0  0  0  0  0  0  0  0  0  0
   -4.8731   72.5501   49.1420 H   0  0  0  0  0  0  0  0  0  0  0  0
   -3.5887   71.8687   48.3985 H   0  0  0  0  0  0  0  0  0  0  0  0
   -3.0928   70.4894   54.9446 H   0  0  0  0  0  0  0  0  0  0  0  0
   -2.6603   69.0167   54.3871 H   0  0  0  0  0  0  0  0  0  0  0  0
    2.8048   74.4295   56.4679 H   0  0  0  0  0  0  0  0  0  0  0  0
    1.7359   74.3739   54.3324 H   0  0  0  0  0  0  0  0  0  0  0  0
   -2.6672   72.9045   50.7373 H   0  0  0  0  0  0  0  0  0  0  0  0
   -4.8221   69.4151   50.3611 H   0  0  0  0  0  0  0  0  0  0  0  0
   -1.9324   72.2217   52.8834 H   0  0  0  0  0  0  0  0  0  0  0  0
   -4.0519   68.7085   52.4893 H   0  0  0  0  0  0  0  0  0  0  0  0
    2.2387   70.3422   56.8706 H   0  0  0  0  0  0  0  0  0  0  0  0
  1  2  2  0  0  0  0
  1  3  2  0  0  0  0
  1  6  1  0  0  0  0
  1 19  1  0  0  0  0
  4 18  2  0  0  0  0
  5 20  1  0  0  0  0
  7 10  1  0  0  0  0
  7 18  1  0  0  0  0
  8 18  1  0  0  0  0
  8 21  1  0  0  0  0
  9 22  1  0  0  0  0
 10 23  1  0  0  0  0
 11 12  1  0  0  0  0
 11 19  2  0  0  0  0
 12 20  2  0  0  0  0
 13 15  1  0  0  0  0
 13 22  2  0  0  0  0
 14 16  2  0  0  0  0
 14 22  1  0  0  0  0
 15 23  2  0  0  0  0
 16 23  1  0  0  0  0
 17 19  1  0  0  0  0
 17 21  2  0  0  0  0
 20 21  1  0  0  0  0
  5 24  1  0  0  0  0
  6 25  1  0  0  0  0
  6 26  1  0  0  0  0
  7 27  1  0  0  0  0
  8 28  1  0  0  0  0
  9 29  1  0  0  0  0
  9 30  1  0  0  0  0
  9 31  1  0  0  0  0
 10 32  1  0  0  0  0
 10 33  1  0  0  0  0
 11 34  1  0  0  0  0
 12 35  1  0  0  0  0
 13 36  1  0  0  0  0
 14 37  1  0  0  0  0
 15 38  1  0  0  0  0
 16 39  1  0  0  0  0
 17 40  1  0  0  0  0
M  END
> <pdb_id>
6F3B

> <uniprot_id>
P00915

> <usmiles>
S(=O)(=O)(N)c1cc(NC(=O)NCc2ccc(cc2)C)c(O)cc1

$$$$
CK1_A_500
          07192421083D 1   1.00000     0.00000     0
            
 19 20  0  0  0  0            999 V2000
   -0.8172   23.1934    9.1775 Cl  0  0  0  0  0  0  0  0  0  0  0  0
   -0.2368   28.1449   11.4303 Cl  0  0  0  0  0  0  0  0  0  0  0  0
   -0.7448   25.4496   11.0998 S   0  0  0  0  0  0  0  0  0  0  0  0
   -0.3137   31.5636    7.7413 N   0  0  0  0  0  0  0  0  0  0  0  0
    1.1849   30.2808    6.7134 N   0  0  0  0  0  0  0  0  0  0  0  0
   -0.1389   29.3884    8.3630 N   0  0  0  0  0  0  0  0  0  0  0  0
    1.8496   29.0724    6.4936 C   0  0  0  0  0  0  0  0  0  0  0  0
    1.4768   27.9780    7.3146 C   0  0  0  0  0  0  0  0  0  0  0  0
   -0.1402   25.6996    8.5365 C   0  0  0  0  0  0  0  0  0  0  0  0
   -0.5629   24.7803    9.5798 C   0  0  0  0  0  0  0  0  0  0  0  0
   -0.2869   26.9209   10.4366 C   0  0  0  0  0  0  0  0  0  0  0  0
    0.2336   30.3526    7.5703 C   0  0  0  0  0  0  0  0  0  0  0  0
    0.4245   28.1401    8.2830 C   0  0  0  0  0  0  0  0  0  0  0  0
    0.0246   27.0025    9.1162 C   0  0  0  0  0  0  0  0  0  0  0  0
   -1.0601   31.6871    8.3952 H   0  0  0  0  0  0  0  0  0  0  0  0
    0.0244   32.3439    7.2151 H   0  0  0  0  0  0  0  0  0  0  0  0
    2.5550   28.9831    5.7905 H   0  0  0  0  0  0  0  0  0  0  0  0
    1.9428   27.0982    7.2213 H   0  0  0  0  0  0  0  0  0  0  0  0
    0.0105   25.4642    7.5763 H   0  0  0  0  0  0  0  0  0  0  0  0
  1 10  1  0  0  0  0
  2 11  1  0  0  0  0
  3 10  1  0  0  0  0
  3 11  1  0  0  0  0
  4 12  1  0  0  0  0
  5  7  1  0  0  0  0
  5 12  2  0  0  0  0
  6 12  1  0  0  0  0
  6 13  2  0  0  0  0
  7  8  2  0  0  0  0
  8 13  1  0  0  0  0
  9 10  2  0  0  0  0
  9 14  1  0  0  0  0
 11 14  2  0  0  0  0
 13 14  1  0  0  0  0
  4 15  1  0  0  0  0
  4 16  1  0  0  0  0
  7 17  1  0  0  0  0
  8 18  1  0  0  0  0
  9 19  1  0  0  0  0
M  END
> <pdb_id>
1PXI

> <uniprot_id>
P24941

> <usmiles>
ClC=1SC(Cl)=CC1c2nc(ncc2)N

$$$$
CK2_A_300
          07192421083D 1   1.00000     0.00000     0
            
 24 25  0  0  0  0            999 V2000
    0.0418   25.3096    8.2275 S   0  0  0  0  0  0  0  0  0  0  0  0
   -0.1541   31.4760    7.6413 N   0  0  0  0  0  0  0  0  0  0  0  0
    1.4430   30.2122    6.5474 N   0  0  0  0  0  0  0  0  0  0  0  0
   -0.6639   25.6845   10.6178 N   0  0  0  0  0  0  0  0  0  0  0  0
   -0.0206   29.3030    8.2317 N   0  0  0  0  0  0  0  0  0  0  0  0
   -0.9213   23.2919   10.0444 C   0  0  0  0  0  0  0  0  0  0  0  0
   -0.3954   27.9928   11.1442 C   0  0  0  0  0  0  0  0  0  0  0  0
    1.9928   29.0120    6.3428 C   0  0  0  0  0  0  0  0  0  0  0  0
    1.5717   27.9410    7.1224 C   0  0  0  0  0  0  0  0  0  0  0  0
   -0.5462   24.7245    9.7240 C   0  0  0  0  0  0  0  0  0  0  0  0
    0.4147   30.3328    7.4398 C   0  0  0  0  0  0  0  0  0  0  0  0
    0.1036   26.9449    8.8182 C   0  0  0  0  0  0  0  0  0  0  0  0
   -0.3155   26.9232   10.1611 C   0  0  0  0  0  0  0  0  0  0  0  0
    0.5390   28.0771    8.0666 C   0  0  0  0  0  0  0  0  0  0  0  0
   -0.9055   31.5520    8.2967 H   0  0  0  0  0  0  0  0  0  0  0  0
    0.1573   32.2844    7.1416 H   0  0  0  0  0  0  0  0  0  0  0  0
   -1.2343   23.2333   10.9923 H   0  0  0  0  0  0  0  0  0  0  0  0
   -1.6540   22.9944    9.4324 H   0  0  0  0  0  0  0  0  0  0  0  0
   -0.1231   22.7026    9.9199 H   0  0  0  0  0  0  0  0  0  0  0  0
   -0.1233   28.8564   10.7200 H   0  0  0  0  0  0  0  0  0  0  0  0
   -1.3344   28.0676   11.4799 H   0  0  0  0  0  0  0  0  0  0  0  0
    0.2165   27.7894   11.9085 H   0  0  0  0  0  0  0  0  0  0  0  0
    2.6945   28.8864    5.6416 H   0  0  0  0  0  0  0  0  0  0  0  0
    2.0143   27.0515    7.0087 H   0  0  0  0  0  0  0  0  0  0  0  0
  1 10  1  0  0  0  0
  1 12  1  0  0  0  0
  2 11  1  0  0  0  0
  3  8  1  0  0  0  0
  3 11  2  0  0  0  0
  4 10  2  0  0  0  0
  4 13  1  0  0  0  0
  5 11  1  0  0  0  0
  5 14  2  0  0  0  0
  6 10  1  0  0  0  0
  7 13  1  0  0  0  0
  8  9  2  0  0  0  0
  9 14  1  0  0  0  0
 12 13  2  0  0  0  0
 12 14  1  0  0  0  0
  2 15  1  0  0  0  0
  2 16  1  0  0  0  0
  6 17  1  0  0  0  0
  6 18  1  0  0  0  0
  6 19  1  0  0  0  0
  7 20  1  0  0  0  0
  7 21  1  0  0  0  0
  7 22  1  0  0  0  0
  8 23  1  0  0  0  0
  9 24  1  0  0  0  0
M  END
> <pdb_id>
4FKL

> <uniprot_id>
P24941

> <usmiles>
S1C(=NC(=C1c2nc(ncc2)N)C)C

$$$$
CKB_A_998
          07202400133D 1   1.00000     0.00000     0
            
 36 37  0  0  0  0            999 V2000
   33.0535   18.7306   27.3905 O   0  0  0  0  0  0  0  0  0  0  0  0
   32.2565   24.3681   29.9605 O   0  0  0  0  0  0  0  0  0  0  0  0
   36.1622   25.5877   31.7251 O   0  0  0  0  0  0  0  0  0  0  0  0
   33.9051   24.5775   26.1643 O   0  0  0  0  0  0  0  0  0  0  0  0
   32.8835   22.6629   24.2115 O   0  0  0  0  0  0  0  0  0  0  0  0
   31.2712   20.5276   25.1637 O   0  0  0  0  0  0  0  0  0  0  0  0
   33.0481   21.5286   28.3245 O   0  0  0  0  0  0  0  0  0  0  0  0
   34.2090   24.9319   30.8103 N   0  0  0  0  0  0  0  0  0  0  0  0
   34.2330   23.5630   28.8653 N   0  0  0  0  0  0  0  0  0  0  0  0
   37.9226   24.1236   29.7499 C   0  0  0  0  0  0  0  0  0  0  0  0
   31.8562   19.4772   27.8816 C   0  0  0  0  0  0  0  0  0  0  0  0
   35.6712   23.5064   28.8401 C   0  0  0  0  0  0  0  0  0  0  0  0
   33.4909   24.2696   29.8664 C   0  0  0  0  0  0  0  0  0  0  0  0
   35.6021   24.9301   30.8372 C   0  0  0  0  0  0  0  0  0  0  0  0
   33.2525   22.9695   27.9554 C   0  0  1  0  0  0  0  0  0  0  0  0
   33.7014   23.1866   26.4574 C   0  0  1  0  0  0  0  0  0  0  0  0
   32.5542   22.5444   25.6025 C   0  0  2  0  0  0  0  0  0  0  0  0
   32.3637   21.0925   25.9405 C   0  0  1  0  0  0  0  0  0  0  0  0
   32.0306   20.9460   27.4476 C   0  0  2  0  0  0  0  0  0  0  0  0
   36.4034   24.1767   29.8021 C   0  0  0  0  0  0  0  0  0  0  0  0
   32.9776   17.7688   27.6535 H   0  0  0  0  0  0  0  0  0  0  0  0
   34.1878   24.6793   25.2105 H   0  0  0  0  0  0  0  0  0  0  0  0
   32.1554   22.2550   23.6606 H   0  0  0  0  0  0  0  0  0  0  0  0
   31.1580   19.5626   25.4003 H   0  0  0  0  0  0  0  0  0  0  0  0
   33.7171   25.4422   31.5157 H   0  0  0  0  0  0  0  0  0  0  0  0
   38.3010   24.6542   30.5083 H   0  0  0  0  0  0  0  0  0  0  0  0
   38.2256   23.1735   29.8240 H   0  0  0  0  0  0  0  0  0  0  0  0
   38.2400   24.5081   28.8830 H   0  0  0  0  0  0  0  0  0  0  0  0
   31.7999   19.4182   28.8783 H   0  0  0  0  0  0  0  0  0  0  0  0
   31.0246   19.0963   27.4775 H   0  0  0  0  0  0  0  0  0  0  0  0
   36.1397   22.9833   28.1282 H   0  0  0  0  0  0  0  0  0  0  0  0
   32.3835   23.4464   28.0875 H   0  0  0  0  0  0  0  0  0  0  0  0
   34.5525   22.6878   26.2934 H   0  0  0  0  0  0  0  0  0  0  0  0
   31.7012   23.0355   25.7792 H   0  0  0  0  0  0  0  0  0  0  0  0
   33.2060   20.5929   25.7382 H   0  0  0  0  0  0  0  0  0  0  0  0
   31.1679   21.4217   27.6193 H   0  0  0  0  0  0  0  0  0  0  0  0
  1 11  1  0  0  0  0
  2 13  2  0  0  0  0
  3 14  2  0  0  0  0
  4 16  1  0  0  0  0
  5 17  1  0  0  0  0
  6 18  1  0  0  0  0
  7 15  1  0  0  0  0
  7 19  1  0  0  0  0
  8 13  1  0  0  0  0
  8 14  1  0  0  0  0
  9 12  1  0  0  0  0
  9 13  1  0  0  0  0
  9 15  1  0  0  0  0
 10 20  1  0  0  0  0
 11 19  1  0  0  0  0
 12 20  2  0  0  0  0
 14 20  1  0  0  0  0
 15 16  1  0  0  0  0
 16 17  1  0  0  0  0
 17 18  1  0  0  0  0
 18 19  1  0  0  0  0
  1 21  1  0  0  0  0
  4 22  1  0  0  0  0
  5 23  1  0  0  0  0
  6 24  1  0  0  0  0
  8 25  1  0  0  0  0
 10 26  1  0  0  0  0
 10 27  1  0  0  0  0
 10 28  1  0  0  0  0
 11 29  1  0  0  0  0
 11 30  1  0  0  0  0
 12 31  1  0  0  0  0
 15 32  1  0  0  0  0
 16 33  1  0  0  0  0
 17 34  1  0  0  0  0
 18 35  1  0  0  0  0
 19 36  1  0  0  0  0
M  END
> <pdb_id>
3BD7

> <uniprot_id>
P00489

> <usmiles>
O=C1N(C=C(C(=O)N1)C)[C@@H]2O[C@@H]([C@@H](O)[C@H](O)[C@H]2O)CO

$$$$
CKR_A_407
          07202407253D 1   1.00000     0.00000     0
            
 43 46  0  0  0  0            999 V2000
  103.5198   16.8770   24.1219 O   0  0  0  0  0  0  0  0  0  0  0  0
   98.6037   19.6166   12.3277 O   0  0  0  0  0  0  0  0  0  0  0  0
   99.2065   15.5228   24.8671 N   0  0  0  0  0  0  0  0  0  0  0  0
  103.1354   17.2559   16.5011 N   0  0  0  0  0  0  0  0  0  0  0  0
  101.3709   16.2182   24.4406 N   0  0  0  0  0  0  0  0  0  0  0  0
   99.9703   15.6196   22.6869 N   0  0  0  0  0  0  0  0  0  0  0  0
  101.5640   16.4564   18.0805 N   0  0  0  0  0  0  0  0  0  0  0  0
  103.5873   17.0999   18.7876 N   0  0  0  0  0  0  0  0  0  0  0  0
  100.2106   18.4114   14.3613 N   0  0  0  0  0  0  0  0  0  0  0  0
   99.6744   18.7380   11.9863 C   0  0  0  0  0  0  0  0  0  0  0  0
   98.0308   19.2257   13.5681 C   0  0  0  0  0  0  0  0  0  0  0  0
  102.2264   17.2853   15.3648 C   0  0  0  0  0  0  0  0  0  0  0  0
  100.7679   18.7739   13.0248 C   0  0  0  0  0  0  0  0  0  0  0  0
   99.0438   19.2872   14.6852 C   0  0  0  0  0  0  0  0  0  0  0  0
  101.2573   18.4482   15.4341 C   0  0  0  0  0  0  0  0  0  0  0  0
  100.6705   15.8911   20.3860 C   0  0  0  0  0  0  0  0  0  0  0  0
  103.1880   16.7320   21.2651 C   0  0  0  0  0  0  0  0  0  0  0  0
  102.4523   16.5081   23.6395 C   0  0  0  0  0  0  0  0  0  0  0  0
  100.1726   15.7781   24.0056 C   0  0  0  0  0  0  0  0  0  0  0  0
  102.7486   16.9317   17.7398 C   0  0  0  0  0  0  0  0  0  0  0  0
  101.6364   16.3108   19.4653 C   0  0  0  0  0  0  0  0  0  0  0  0
  102.8917   16.7187   19.9168 C   0  0  0  0  0  0  0  0  0  0  0  0
  100.9679   15.9183   21.7463 C   0  0  0  0  0  0  0  0  0  0  0  0
  102.2302   16.3432   22.1959 C   0  0  0  0  0  0  0  0  0  0  0  0
   98.3192   15.1966   24.5412 H   0  0  0  0  0  0  0  0  0  0  0  0
   99.3617   15.6554   25.8461 H   0  0  0  0  0  0  0  0  0  0  0  0
  104.0956   17.4894   16.3484 H   0  0  0  0  0  0  0  0  0  0  0  0
  101.4831   16.3443   25.4262 H   0  0  0  0  0  0  0  0  0  0  0  0
  100.7910   16.2483   17.4813 H   0  0  0  0  0  0  0  0  0  0  0  0
  100.0544   19.0156   11.1039 H   0  0  0  0  0  0  0  0  0  0  0  0
   99.3208   17.8051   11.9183 H   0  0  0  0  0  0  0  0  0  0  0  0
   97.6905   18.2887   13.4886 H   0  0  0  0  0  0  0  0  0  0  0  0
   97.2710   19.8391   13.7835 H   0  0  0  0  0  0  0  0  0  0  0  0
  101.7046   16.4323   15.3481 H   0  0  0  0  0  0  0  0  0  0  0  0
  102.7636   17.3638   14.5251 H   0  0  0  0  0  0  0  0  0  0  0  0
  101.4834   18.1213   12.7757 H   0  0  0  0  0  0  0  0  0  0  0  0
  101.1561   19.6946   13.0659 H   0  0  0  0  0  0  0  0  0  0  0  0
   99.3576   20.2301   14.7969 H   0  0  0  0  0  0  0  0  0  0  0  0
   98.6198   18.9742   15.5351 H   0  0  0  0  0  0  0  0  0  0  0  0
  100.8011   18.4288   16.3237 H   0  0  0  0  0  0  0  0  0  0  0  0
  101.7751   19.2989   15.3435 H   0  0  0  0  0  0  0  0  0  0  0  0
   99.7757   15.5748   20.0707 H   0  0  0  0  0  0  0  0  0  0  0  0
  104.0940   17.0220   21.5735 H   0  0  0  0  0  0  0  0  0  0  0  0
  1 18  2  0  0  0  0
  2 10  1  0  0  0  0
  2 11  1  0  0  0  0
  3 19  1  0  0  0  0
  4 12  1  0  0  0  0
  4 20  1  0  0  0  0
  5 18  1  0  0  0  0
  5 19  1  0  0  0  0
  6 19  2  0  0  0  0
  6 23  1  0  0  0  0
  7 20  1  0  0  0  0
  7 21  1  0  0  0  0
  8 20  2  0  0  0  0
  8 22  1  0  0  0  0
  9 13  1  0  0  0  0
  9 14  1  0  0  0  0
  9 15  1  0  0  0  0
 10 13  1  0  0  0  0
 11 14  1  0  0  0  0
 12 15  1  0  0  0  0
 16 21  1  0  0  0  0
 16 23  2  0  0  0  0
 17 22  1  0  0  0  0
 17 24  2  0  0  0  0
 18 24  1  0  0  0  0
 21 22  2  0  0  0  0
 23 24  1  0  0  0  0
  3 25  1  0  0  0  0
  3 26  1  0  0  0  0
  4 27  1  0  0  0  0
  5 28  1  0  0  0  0
  7 29  1  0  0  0  0
 10 30  1  0  0  0  0
 10 31  1  0  0  0  0
 11 32  1  0  0  0  0
 11 33  1  0  0  0  0
 12 34  1  0  0  0  0
 12 35  1  0  0  0  0
 13 36  1  0  0  0  0
 13 37  1  0  0  0  0
 14 38  1  0  0  0  0
 14 39  1  0  0  0  0
 15 40  1  0  0  0  0
 15 41  1  0  0  0  0
 16 42  1  0  0  0  0
 17 43  1  0  0  0  0
M  END
> <pdb_id>
4PUJ

> <uniprot_id>
P28720

> <usmiles>
O=C1NC(=Nc2c1cc3N=C(Nc3c2)NCCN4CCOCC4)N

$$$$
CKX_B_701
          07202411143D 1   1.00000     0.00000     0
            
 31 31  0  0  0  0            999 V2000
  127.4914 -878.6287  302.5681 O   0  0  0  0  0  0  0  0  0  0  0  0
  128.7265 -879.5359  300.9788 O   0  0  0  0  0  0  0  0  0  0  0  0
  123.9349 -879.2104  298.2653 O   0  0  0  0  0  0  0  0  0  0  0  0
  126.6619 -878.6815  298.9455 O   0  0  0  0  0  0  0  0  0  0  0  0
  124.2887 -881.1844  301.3526 N   0  0  0  0  0  0  0  0  0  0  0  0
  125.3895 -881.9475  305.5369 C   0  0  0  0  0  0  0  0  0  0  0  0
  123.6152 -880.5744  300.2198 C   0  0  0  0  0  0  0  0  0  0  0  0
  124.7884 -881.3933  304.2594 C   0  0  0  0  0  0  0  0  0  0  0  0
  125.8717 -881.1865  303.2021 C   0  0  0  0  0  0  0  0  0  0  0  0
  127.6209 -879.4057  301.4993 C   0  0  0  0  0  0  0  0  0  0  0  0
  124.6340 -880.0260  299.2152 C   0  0  2  0  0  0  0  0  0  0  0  0
  125.3522 -880.4230  301.9907 C   0  0  1  0  0  0  0  0  0  0  0  0
  125.7209 -879.2011  299.9005 C   0  0  1  0  0  0  0  0  0  0  0  0
  126.4041 -880.0936  300.9309 C   0  0  1  0  0  0  0  0  0  0  0  0
  126.5960 -878.5163  302.9990 H   0  0  0  0  0  0  0  0  0  0  0  0
  124.5845 -878.8426  297.5999 H   0  0  0  0  0  0  0  0  0  0  0  0
  127.3599 -878.1471  299.4222 H   0  0  0  0  0  0  0  0  0  0  0  0
  124.6852 -882.0464  301.0368 H   0  0  0  0  0  0  0  0  0  0  0  0
  124.6674 -882.0763  306.2166 H   0  0  0  0  0  0  0  0  0  0  0  0
  125.8277 -882.8257  305.3455 H   0  0  0  0  0  0  0  0  0  0  0  0
  126.0698 -881.3057  305.8910 H   0  0  0  0  0  0  0  0  0  0  0  0
  123.0389 -879.8247  300.5453 H   0  0  0  0  0  0  0  0  0  0  0  0
  123.0455 -881.2609  299.7680 H   0  0  0  0  0  0  0  0  0  0  0  0
  124.3492 -880.5167  304.4560 H   0  0  0  0  0  0  0  0  0  0  0  0
  124.1071 -882.0368  303.9106 H   0  0  0  0  0  0  0  0  0  0  0  0
  126.2038 -882.0806  302.9016 H   0  0  0  0  0  0  0  0  0  0  0  0
  126.6254 -880.6707  303.6094 H   0  0  0  0  0  0  0  0  0  0  0  0
  125.0612 -880.7917  298.7344 H   0  0  0  0  0  0  0  0  0  0  0  0
  124.9617 -879.5613  302.3146 H   0  0  0  0  0  0  0  0  0  0  0  0
  125.2898 -878.4342  300.3759 H   0  0  0  0  0  0  0  0  0  0  0  0
  126.6906 -880.9416  300.4851 H   0  0  0  0  0  0  0  0  0  0  0  0
  1 10  1  0  0  0  0
  2 10  2  0  0  0  0
  3 11  1  0  0  0  0
  4 13  1  0  0  0  0
  5  7  1  0  0  0  0
  5 12  1  0  0  0  0
  6  8  1  0  0  0  0
  7 11  1  0  0  0  0
  8  9  1  0  0  0  0
  9 12  1  0  0  0  0
 10 14  1  0  0  0  0
 11 13  1  0  0  0  0
 12 14  1  0  0  0  0
 13 14  1  0  0  0  0
  1 15  1  0  0  0  0
  3 16  1  0  0  0  0
  4 17  1  0  0  0  0
  5 18  1  0  0  0  0
  6 19  1  0  0  0  0
  6 20  1  0  0  0  0
  6 21  1  0  0  0  0
  7 22  1  0  0  0  0
  7 23  1  0  0  0  0
  8 24  1  0  0  0  0
  8 25  1  0  0  0  0
  9 26  1  0  0  0  0
  9 27  1  0  0  0  0
 11 28  1  0  0  0  0
 12 29  1  0  0  0  0
 13 30  1  0  0  0  0
 14 31  1  0  0  0  0
M  END
> <pdb_id>
6JZ6

> <uniprot_id>
Q6W7J7

> <usmiles>
O=C(O)[C@@H]1[C@@H](O)[C@H](O)CN[C@H]1CCC

$$$$
CKX_B_701
          07202403153D 1   1.00000     0.00000     0
            
 31 31  0  0  0  0            999 V2000
   -4.1210   10.8780  -50.4330 O   0  0  0  0  0  0  0  0  0  0  0  0
   -3.3050    8.8810  -50.0250 O   0  0  0  0  0  0  0  0  0  0  0  0
   -2.9760    9.5730  -55.6460 O   0  0  0  0  0  0  0  0  0  0  0  0
   -4.4990   10.2600  -53.3120 O   0  0  0  0  0  0  0  0  0  0  0  0
   -0.3740    9.7740  -53.0370 N   0  0  0  0  0  0  0  0  0  0  0  0
    0.4200    7.2150  -50.9540 C   0  0  0  0  0  0  0  0  0  0  0  0
   -0.9250    9.6530  -54.3810 C   0  0  0  0  0  0  0  0  0  0  0  0
    0.7970    8.6240  -50.5470 C   0  0  0  0  0  0  0  0  0  0  0  0
   -0.4130    9.5500  -50.5980 C   0  0  0  0  0  0  0  0  0  0  0  0
   -3.3470    9.9910  -50.7610 C   0  0  0  0  0  0  0  0  0  0  0  0
   -2.3790   10.1120  -54.4630 C   0  0  2  0  0  0  0  0  0  0  0  0
   -1.1790    9.3690  -51.9030 C   0  0  1  0  0  0  0  0  0  0  0  0
   -3.1880    9.6950  -53.2400 C   0  0  1  0  0  0  0  0  0  0  0  0
   -2.4760   10.1650  -51.9760 C   0  0  1  0  0  0  0  0  0  0  0  0
   -4.1716   11.7209  -50.9688 H   0  0  0  0  0  0  0  0  0  0  0  0
   -3.9288    9.8710  -55.7041 H   0  0  0  0  0  0  0  0  0  0  0  0
   -5.0256    9.9838  -52.5080 H   0  0  0  0  0  0  0  0  0  0  0  0
   -0.1430   10.7375  -52.9018 H   0  0  0  0  0  0  0  0  0  0  0  0
    1.2288    6.6284  -50.9125 H   0  0  0  0  0  0  0  0  0  0  0  0
   -0.2789    6.8638  -50.3309 H   0  0  0  0  0  0  0  0  0  0  0  0
    0.0611    7.2224  -51.8874 H   0  0  0  0  0  0  0  0  0  0  0  0
   -0.8753    8.6947  -54.6625 H   0  0  0  0  0  0  0  0  0  0  0  0
   -0.3771   10.2120  -55.0033 H   0  0  0  0  0  0  0  0  0  0  0  0
    1.4985    8.9680  -51.1712 H   0  0  0  0  0  0  0  0  0  0  0  0
    1.1585    8.6094  -49.6147 H   0  0  0  0  0  0  0  0  0  0  0  0
   -0.1032   10.4983  -50.5286 H   0  0  0  0  0  0  0  0  0  0  0  0
   -1.0188    9.3403  -49.8305 H   0  0  0  0  0  0  0  0  0  0  0  0
   -2.3932   11.1098  -54.5272 H   0  0  0  0  0  0  0  0  0  0  0  0
   -1.3999    8.3991  -52.0053 H   0  0  0  0  0  0  0  0  0  0  0  0
   -3.2623    8.6979  -53.2217 H   0  0  0  0  0  0  0  0  0  0  0  0
   -2.2526   11.1347  -52.0749 H   0  0  0  0  0  0  0  0  0  0  0  0
  1 10  1  0  0  0  0
  2 10  2  0  0  0  0
  3 11  1  0  0  0  0
  4 13  1  0  0  0  0
  5  7  1  0  0  0  0
  5 12  1  0  0  0  0
  6  8  1  0  0  0  0
  7 11  1  0  0  0  0
  8  9  1  0  0  0  0
  9 12  1  0  0  0  0
 10 14  1  0  0  0  0
 11 13  1  0  0  0  0
 12 14  1  0  0  0  0
 13 14  1  0  0  0  0
  1 15  1  0  0  0  0
  3 16  1  0  0  0  0
  4 17  1  0  0  0  0
  5 18  1  0  0  0  0
  6 19  1  0  0  0  0
  6 20  1  0  0  0  0
  6 21  1  0  0  0  0
  7 22  1  0  0  0  0
  7 23  1  0  0  0  0
  8 24  1  0  0  0  0
  8 25  1  0  0  0  0
  9 26  1  0  0  0  0
  9 27  1  0  0  0  0
 11 28  1  0  0  0  0
 12 29  1  0  0  0  0
 13 30  1  0  0  0  0
 14 31  1  0  0  0  0
M  END
> <pdb_id>
6LDD

> <uniprot_id>
D2Q7B1

> <usmiles>
O=C(O)[C@@H]1[C@@H](O)[C@H](O)CN[C@H]1CCC

$$$$
CLT_A_392
          07192423263D 1   1.00000     0.00000     0
            
 24 24  0  0  0  0            999 V2000
   -8.3203  -31.7846   12.1011 O   0  0  0  0  0  0  0  0  0  0  0  0
   -7.1433  -32.4855   13.8356 O   0  0  0  0  0  0  0  0  0  0  0  0
   -8.7886  -32.2694   20.1035 C   0  0  0  0  0  0  0  0  0  0  0  0
   -8.1144  -33.0764   19.1944 C   0  0  0  0  0  0  0  0  0  0  0  0
   -9.7628  -31.3924   19.6449 C   0  0  0  0  0  0  0  0  0  0  0  0
   -8.6700  -30.9302   15.5583 C   0  0  0  0  0  0  0  0  0  0  0  0
   -8.5468  -30.5652   14.0876 C   0  0  0  0  0  0  0  0  0  0  0  0
   -8.4023  -33.0224   17.8356 C   0  0  0  0  0  0  0  0  0  0  0  0
  -10.0596  -31.3393   18.2841 C   0  0  0  0  0  0  0  0  0  0  0  0
   -9.6714  -32.0469   15.9129 C   0  0  0  0  0  0  0  0  0  0  0  0
   -7.9547  -31.6965   13.2886 C   0  0  0  0  0  0  0  0  0  0  0  0
   -9.3924  -32.1634   17.3869 C   0  0  0  0  0  0  0  0  0  0  0  0
   -8.9699  -31.1225   11.7275 H   0  0  0  0  0  0  0  0  0  0  0  0
   -8.5742  -32.3200   21.0789 H   0  0  0  0  0  0  0  0  0  0  0  0
   -7.4107  -33.7061   19.5234 H   0  0  0  0  0  0  0  0  0  0  0  0
  -10.2492  -30.8013   20.2884 H   0  0  0  0  0  0  0  0  0  0  0  0
   -8.9473  -30.1064   16.0527 H   0  0  0  0  0  0  0  0  0  0  0  0
   -7.7672  -31.2211   15.8749 H   0  0  0  0  0  0  0  0  0  0  0  0
   -7.9579  -29.7617   14.0000 H   0  0  0  0  0  0  0  0  0  0  0  0
   -9.4554  -30.3533   13.7277 H   0  0  0  0  0  0  0  0  0  0  0  0
   -7.9003  -33.5970   17.1892 H   0  0  0  0  0  0  0  0  0  0  0  0
  -10.7570  -30.7043   17.9518 H   0  0  0  0  0  0  0  0  0  0  0  0
   -9.4712  -32.8972   15.4260 H   0  0  0  0  0  0  0  0  0  0  0  0
  -10.6161  -31.7735   15.7316 H   0  0  0  0  0  0  0  0  0  0  0  0
  1 11  1  0  0  0  0
  2 11  2  0  0  0  0
  3  4  2  0  0  0  0
  3  5  1  0  0  0  0
  4  8  1  0  0  0  0
  5  9  2  0  0  0  0
  6  7  1  0  0  0  0
  6 10  1  0  0  0  0
  7 11  1  0  0  0  0
  8 12  2  0  0  0  0
  9 12  1  0  0  0  0
 10 12  1  0  0  0  0
  1 13  1  0  0  0  0
  3 14  1  0  0  0  0
  4 15  1  0  0  0  0
  5 16  1  0  0  0  0
  6 17  1  0  0  0  0
  6 18  1  0  0  0  0
  7 19  1  0  0  0  0
  7 20  1  0  0  0  0
  8 21  1  0  0  0  0
  9 22  1  0  0  0  0
 10 23  1  0  0  0  0
 10 24  1  0  0  0  0
M  END
> <pdb_id>
3TZ5

> <uniprot_id>
Q00972

> <usmiles>
O=C(O)CCCc1ccccc1

$$$$
CLW_B_402
          07202417493D 1   1.00000     0.00000     0
            
 15 16  0  0  0  0            999 V2000
    5.9252    1.8228    9.5433 Cl  0  0  0  0  0  0  0  0  0  0  0  0
   13.2645    1.2834    9.4034 O   0  0  0  0  0  0  0  0  0  0  0  0
   11.4339   -0.0389    9.2611 O   0  0  0  0  0  0  0  0  0  0  0  0
   11.1159    2.1384    9.4614 N   0  0  0  0  0  0  0  0  0  0  0  0
    7.7300   -0.1731    9.3045 C   0  0  0  0  0  0  0  0  0  0  0  0
    9.0203   -0.6816    9.2229 C   0  0  0  0  0  0  0  0  0  0  0  0
    8.5898    2.0834    9.4642 C   0  0  0  0  0  0  0  0  0  0  0  0
   12.0658    1.1842    9.3794 C   0  0  0  0  0  0  0  0  0  0  0  0
    7.5387    1.1961    9.4243 C   0  0  0  0  0  0  0  0  0  0  0  0
   10.0777    0.2052    9.2800 C   0  0  0  0  0  0  0  0  0  0  0  0
    9.8680    1.5632    9.4030 C   0  0  0  0  0  0  0  0  0  0  0  0
   13.6900    2.1842    9.4900 H   0  0  0  0  0  0  0  0  0  0  0  0
    6.9436   -0.7903    9.2771 H   0  0  0  0  0  0  0  0  0  0  0  0
    9.1794   -1.6640    9.1253 H   0  0  0  0  0  0  0  0  0  0  0  0
    8.4341    3.0686    9.5350 H   0  0  0  0  0  0  0  0  0  0  0  0
  1  9  1  0  0  0  0
  2  8  1  0  0  0  0
  3  8  1  0  0  0  0
  3 10  1  0  0  0  0
  4  8  2  0  0  0  0
  4 11  1  0  0  0  0
  5  6  1  0  0  0  0
  5  9  2  0  0  0  0
  6 10  2  0  0  0  0
  7  9  1  0  0  0  0
  7 11  2  0  0  0  0
 10 11  1  0  0  0  0
  2 12  1  0  0  0  0
  5 13  1  0  0  0  0
  6 14  1  0  0  0  0
  7 15  1  0  0  0  0
M  END
> <pdb_id>
8I2L

> <uniprot_id>
P00954

> <usmiles>
Clc1cc2N=C(Oc2cc1)O

$$$$
CLZ_A_194
          07192417253D 1   1.00000     0.00000     0
            
 22 23  0  0  0  0            999 V2000
   11.7150   35.4133   18.2771 Cl  0  0  0  0  0  0  0  0  0  0  0  0
    5.0676   34.5767   18.9207 N   0  0  0  0  0  0  0  0  0  0  0  0
    9.4681   33.5794   17.6908 N   0  0  0  0  0  0  0  0  0  0  0  0
   11.9166   38.1079   19.3225 N   0  0  0  0  0  0  0  0  0  0  0  0
    7.3047   34.1059   18.3233 N   0  0  0  0  0  0  0  0  0  0  0  0
    6.6587   36.2344   19.2991 N   0  0  0  0  0  0  0  0  0  0  0  0
    9.5648   38.4161   19.7925 C   0  0  0  0  0  0  0  0  0  0  0  0
    8.3057   37.9354   19.7937 C   0  0  0  0  0  0  0  0  0  0  0  0
    6.3469   34.9336   18.9054 C   0  0  0  0  0  0  0  0  0  0  0  0
    8.5921   34.4858   18.2560 C   0  0  0  0  0  0  0  0  0  0  0  0
   10.6551   37.6150   19.2671 C   0  0  0  0  0  0  0  0  0  0  0  0
   10.3160   36.3221   18.8075 C   0  0  0  0  0  0  0  0  0  0  0  0
    7.9640   36.6594   19.2868 C   0  0  0  0  0  0  0  0  0  0  0  0
    9.0213   35.8166   18.7501 C   0  0  0  0  0  0  0  0  0  0  0  0
    4.3863   35.1764   19.3405 H   0  0  0  0  0  0  0  0  0  0  0  0
    4.7858   33.7084   18.5126 H   0  0  0  0  0  0  0  0  0  0  0  0
   10.4393   33.8047   17.6127 H   0  0  0  0  0  0  0  0  0  0  0  0
    9.1311   32.6980   17.3597 H   0  0  0  0  0  0  0  0  0  0  0  0
   12.6799   37.5696   18.9652 H   0  0  0  0  0  0  0  0  0  0  0  0
   12.0839   39.0098   19.7206 H   0  0  0  0  0  0  0  0  0  0  0  0
    9.7488   39.3296   20.1555 H   0  0  0  0  0  0  0  0  0  0  0  0
    7.5779   38.5082   20.1710 H   0  0  0  0  0  0  0  0  0  0  0  0
  1 12  1  0  0  0  0
  2  9  1  0  0  0  0
  3 10  1  0  0  0  0
  4 11  1  0  0  0  0
  5  9  2  0  0  0  0
  5 10  1  0  0  0  0
  6  9  1  0  0  0  0
  6 13  2  0  0  0  0
  7  8  2  0  0  0  0
  7 11  1  0  0  0  0
  8 13  1  0  0  0  0
 10 14  2  0  0  0  0
 11 12  2  0  0  0  0
 12 14  1  0  0  0  0
 13 14  1  0  0  0  0
  2 15  1  0  0  0  0
  2 16  1  0  0  0  0
  3 17  1  0  0  0  0
  3 18  1  0  0  0  0
  4 19  1  0  0  0  0
  4 20  1  0  0  0  0
  7 21  1  0  0  0  0
  8 22  1  0  0  0  0
M  END
> <pdb_id>
1M78

> <uniprot_id>
P22906

> <usmiles>
Clc1c2c(nc(nc2ccc1N)N)N

$$$$
CM3_A_600
          07192417253D 1   1.00000     0.00000     0
            
 67 71  0  0  0  0            999 V2000
   23.1459   25.2967   68.3492 F   0  0  0  0  0  0  0  0  0  0  0  0
   25.9119   33.7811   69.9381 O   0  0  0  0  0  0  0  0  0  0  0  0
   23.8105   22.8332   67.9298 O   0  0  0  0  0  0  0  0  0  0  0  0
   29.2948   28.9818   64.5017 O   0  0  0  0  0  0  0  0  0  0  0  0
   27.5840   26.2404   69.9444 O   0  0  0  0  0  0  0  0  0  0  0  0
   30.8567   28.0934   61.8365 N   0  0  0  0  0  0  0  0  0  0  0  0
   23.6840   27.6553   70.4273 C   0  0  0  0  0  0  0  0  0  0  0  0
   30.7076   28.9576   64.2340 C   0  0  0  0  0  0  0  0  0  0  0  0
   31.0607   29.2226   62.7685 C   0  0  0  0  0  0  0  0  0  0  0  0
   31.2874   28.6279   60.5445 C   0  0  0  0  0  0  0  0  0  0  0  0
   29.4374   27.7327   61.7385 C   0  0  0  0  0  0  0  0  0  0  0  0
   31.2827   27.4761   59.5634 C   0  0  0  0  0  0  0  0  0  0  0  0
   29.0909   26.8496   60.5160 C   0  0  0  0  0  0  0  0  0  0  0  0
   29.8073   27.2651   59.2076 C   0  0  0  0  0  0  0  0  0  0  0  0
   25.4258   31.6659   68.9404 C   0  0  0  0  0  0  0  0  0  0  0  0
   26.5154   31.7852   71.0775 C   0  0  0  0  0  0  0  0  0  0  0  0
   26.0681   23.2316   68.6292 C   0  0  0  0  0  0  0  0  0  0  0  0
   29.7120   28.7003   66.8643 C   0  0  0  0  0  0  0  0  0  0  0  0
   27.5514   28.2252   65.9429 C   0  0  0  0  0  0  0  0  0  0  0  0
   26.9863   24.1376   69.1519 C   0  0  0  0  0  0  0  0  0  0  0  0
   25.4470   30.2757   68.9743 C   0  0  0  0  0  0  0  0  0  0  0  0
   26.5494   30.3994   71.1121 C   0  0  0  0  0  0  0  0  0  0  0  0
   29.2344   28.4148   68.1496 C   0  0  0  0  0  0  0  0  0  0  0  0
   27.1104   27.8766   67.2081 C   0  0  0  0  0  0  0  0  0  0  0  0
   25.9541   32.4388   69.9824 C   0  0  0  0  0  0  0  0  0  0  0  0
   24.3931   24.9809   68.7023 C   0  0  0  0  0  0  0  0  0  0  0  0
   24.7513   23.6489   68.4362 C   0  0  0  0  0  0  0  0  0  0  0  0
   28.8674   28.6631   65.7431 C   0  0  0  0  0  0  0  0  0  0  0  0
   26.6178   25.4524   69.4450 C   0  0  0  0  0  0  0  0  0  0  0  0
   27.5079   27.6668   69.7636 C   0  0  1  0  0  0  0  0  0  0  0  0
   27.9162   27.9902   68.3531 C   0  0  0  0  0  0  0  0  0  0  0  0
   26.0261   29.6220   70.0764 C   0  0  0  0  0  0  0  0  0  0  0  0
   24.9222   27.3480   69.5986 C   0  0  2  0  0  0  0  0  0  0  0  0
   25.2850   25.9015   69.2865 C   0  0  0  0  0  0  0  0  0  0  0  0
   26.1173   28.1185   70.2228 C   0  0  1  0  0  0  0  0  0  0  0  0
   26.2935   34.3184   70.6902 H   0  0  0  0  0  0  0  0  0  0  0  0
   22.8756   23.1652   67.8046 H   0  0  0  0  0  0  0  0  0  0  0  0
   23.5936   28.6451   70.5372 H   0  0  0  0  0  0  0  0  0  0  0  0
   22.8745   27.2962   69.9629 H   0  0  0  0  0  0  0  0  0  0  0  0
   23.7700   27.2265   71.3266 H   0  0  0  0  0  0  0  0  0  0  0  0
   31.0613   28.0568   64.4861 H   0  0  0  0  0  0  0  0  0  0  0  0
   31.1475   29.6577   64.7964 H   0  0  0  0  0  0  0  0  0  0  0  0
   30.4976   29.9859   62.4517 H   0  0  0  0  0  0  0  0  0  0  0  0
   32.0258   29.4813   62.7286 H   0  0  0  0  0  0  0  0  0  0  0  0
   32.2084   29.0098   60.6210 H   0  0  0  0  0  0  0  0  0  0  0  0
   30.6553   29.3405   60.2401 H   0  0  0  0  0  0  0  0  0  0  0  0
   28.9030   28.5757   61.6781 H   0  0  0  0  0  0  0  0  0  0  0  0
   29.1823   27.2350   62.5675 H   0  0  0  0  0  0  0  0  0  0  0  0
   31.6638   26.6534   59.9853 H   0  0  0  0  0  0  0  0  0  0  0  0
   31.8117   27.7075   58.7469 H   0  0  0  0  0  0  0  0  0  0  0  0
   28.1040   26.9001   60.3626 H   0  0  0  0  0  0  0  0  0  0  0  0
   29.3475   25.9066   60.7279 H   0  0  0  0  0  0  0  0  0  0  0  0
   29.7178   26.5435   58.5212 H   0  0  0  0  0  0  0  0  0  0  0  0
   29.4134   28.1131   58.8531 H   0  0  0  0  0  0  0  0  0  0  0  0
   25.0221   32.1267   68.1500 H   0  0  0  0  0  0  0  0  0  0  0  0
   26.8932   32.3146   71.8371 H   0  0  0  0  0  0  0  0  0  0  0  0
   26.3470   22.2999   68.3967 H   0  0  0  0  0  0  0  0  0  0  0  0
   30.6762   28.9360   66.7423 H   0  0  0  0  0  0  0  0  0  0  0  0
   26.9256   28.1640   65.1653 H   0  0  0  0  0  0  0  0  0  0  0  0
   27.9266   23.8418   69.3206 H   0  0  0  0  0  0  0  0  0  0  0  0
   25.0544   29.7462   68.2224 H   0  0  0  0  0  0  0  0  0  0  0  0
   26.9604   29.9434   71.9015 H   0  0  0  0  0  0  0  0  0  0  0  0
   29.8452   28.5159   68.9349 H   0  0  0  0  0  0  0  0  0  0  0  0
   26.1784   27.5292   67.3113 H   0  0  0  0  0  0  0  0  0  0  0  0
   28.1789   28.0851   70.3758 H   0  0  0  0  0  0  0  0  0  0  0  0
   24.7620   27.7796   68.7108 H   0  0  0  0  0  0  0  0  0  0  0  0
   26.0794   27.9353   71.2051 H   0  0  0  0  0  0  0  0  0  0  0  0
  1 26  1  0  0  0  0
  2 25  1  0  0  0  0
  3 27  1  0  0  0  0
  4  8  1  0  0  0  0
  4 28  1  0  0  0  0
  5 29  1  0  0  0  0
  5 30  1  0  0  0  0
  6  9  1  0  0  0  0
  6 10  1  0  0  0  0
  6 11  1  0  0  0  0
  7 33  1  0  0  0  0
  8  9  1  0  0  0  0
 10 12  1  0  0  0  0
 11 13  1  0  0  0  0
 12 14  1  0  0  0  0
 13 14  1  0  0  0  0
 15 21  1  0  0  0  0
 15 25  2  0  0  0  0
 16 22  2  0  0  0  0
 16 25  1  0  0  0  0
 17 20  1  0  0  0  0
 17 27  2  0  0  0  0
 18 23  2  0  0  0  0
 18 28  1  0  0  0  0
 19 24  1  0  0  0  0
 19 28  2  0  0  0  0
 20 29  2  0  0  0  0
 21 32  2  0  0  0  0
 22 32  1  0  0  0  0
 23 31  1  0  0  0  0
 24 31  2  0  0  0  0
 26 27  1  0  0  0  0
 26 34  2  0  0  0  0
 29 34  1  0  0  0  0
 30 31  1  0  0  0  0
 30 35  1  0  0  0  0
 32 35  1  0  0  0  0
 33 34  1  0  0  0  0
 33 35  1  0  0  0  0
  2 36  1  0  0  0  0
  3 37  1  0  0  0  0
  7 38  1  0  0  0  0
  7 39  1  0  0  0  0
  7 40  1  0  0  0  0
  8 41  1  0  0  0  0
  8 42  1  0  0  0  0
  9 43  1  0  0  0  0
  9 44  1  0  0  0  0
 10 45  1  0  0  0  0
 10 46  1  0  0  0  0
 11 47  1  0  0  0  0
 11 48  1  0  0  0  0
 12 49  1  0  0  0  0
 12 50  1  0  0  0  0
 13 51  1  0  0  0  0
 13 52  1  0  0  0  0
 14 53  1  0  0  0  0
 14 54  1  0  0  0  0
 15 55  1  0  0  0  0
 16 56  1  0  0  0  0
 17 57  1  0  0  0  0
 18 58  1  0  0  0  0
 19 59  1  0  0  0  0
 20 60  1  0  0  0  0
 21 61  1  0  0  0  0
 22 62  1  0  0  0  0
 23 63  1  0  0  0  0
 24 64  1  0  0  0  0
 30 65  1  0  0  0  0
 33 66  1  0  0  0  0
 35 67  1  0  0  0  0
M  END
> <pdb_id>
1YIN

> <uniprot_id>
P03372

> <usmiles>
Fc1c(O)ccc2O[C@@H](c3ccc(OCCN4CCCCC4)cc3)[C@@H](c5ccc(O)cc5)[C@@H](c12)C

$$$$
CM4_A_600
          07192417253D 1   1.00000     0.00000     0
            
 64 68  0  0  0  0            999 V2000
   25.9745   33.7110   69.8896 O   0  0  0  0  0  0  0  0  0  0  0  0
   23.7155   22.6376   67.6432 O   0  0  0  0  0  0  0  0  0  0  0  0
   29.5170   28.8157   64.4606 O   0  0  0  0  0  0  0  0  0  0  0  0
   27.4283   26.1071   69.7563 O   0  0  0  0  0  0  0  0  0  0  0  0
   30.8642   28.0506   61.8767 N   0  0  0  0  0  0  0  0  0  0  0  0
   23.4825   27.3862   69.9551 C   0  0  0  0  0  0  0  0  0  0  0  0
   30.9284   28.7784   64.2490 C   0  0  0  0  0  0  0  0  0  0  0  0
   31.2617   29.1233   62.7976 C   0  0  0  0  0  0  0  0  0  0  0  0
   31.2506   28.4734   60.5193 C   0  0  0  0  0  0  0  0  0  0  0  0
   29.4095   27.8346   61.8144 C   0  0  0  0  0  0  0  0  0  0  0  0
   30.3193   27.7349   59.5565 C   0  0  0  0  0  0  0  0  0  0  0  0
   29.2073   27.1651   60.4482 C   0  0  0  0  0  0  0  0  0  0  0  0
   25.4643   31.6229   68.8313 C   0  0  0  0  0  0  0  0  0  0  0  0
   26.5397   31.6808   71.0071 C   0  0  0  0  0  0  0  0  0  0  0  0
   25.8745   23.1032   68.4691 C   0  0  0  0  0  0  0  0  0  0  0  0
   29.8012   28.5836   66.8081 C   0  0  0  0  0  0  0  0  0  0  0  0
   27.6750   28.1457   65.7537 C   0  0  0  0  0  0  0  0  0  0  0  0
   26.8126   23.9881   69.0020 C   0  0  0  0  0  0  0  0  0  0  0  0
   29.2525   28.2922   68.0748 C   0  0  0  0  0  0  0  0  0  0  0  0
   27.1740   27.8075   67.0188 C   0  0  0  0  0  0  0  0  0  0  0  0
   25.4572   30.2153   68.8082 C   0  0  0  0  0  0  0  0  0  0  0  0
   26.4808   30.2719   71.0256 C   0  0  0  0  0  0  0  0  0  0  0  0
   24.2198   24.8604   68.4559 C   0  0  0  0  0  0  0  0  0  0  0  0
   25.9972   32.3496   69.9088 C   0  0  0  0  0  0  0  0  0  0  0  0
   24.5757   23.5288   68.1951 C   0  0  0  0  0  0  0  0  0  0  0  0
   28.9994   28.5640   65.6766 C   0  0  0  0  0  0  0  0  0  0  0  0
   26.4637   25.3134   69.2461 C   0  0  0  0  0  0  0  0  0  0  0  0
   27.4131   27.5404   69.5860 C   0  0  1  0  0  0  0  0  0  0  0  0
   24.8420   27.2546   69.2716 C   0  0  2  0  0  0  0  0  0  0  0  0
   27.9257   27.8795   68.1933 C   0  0  0  0  0  0  0  0  0  0  0  0
   25.9876   29.5519   69.9246 C   0  0  0  0  0  0  0  0  0  0  0  0
   25.1697   25.7829   68.9833 C   0  0  0  0  0  0  0  0  0  0  0  0
   26.0210   28.0193   70.0044 C   0  0  2  0  0  0  0  0  0  0  0  0
   26.3538   34.2283   70.6567 H   0  0  0  0  0  0  0  0  0  0  0  0
   22.7768   22.9121   67.4347 H   0  0  0  0  0  0  0  0  0  0  0  0
   23.2908   28.3514   70.1327 H   0  0  0  0  0  0  0  0  0  0  0  0
   22.7725   27.0093   69.3603 H   0  0  0  0  0  0  0  0  0  0  0  0
   23.4942   26.8840   70.8198 H   0  0  0  0  0  0  0  0  0  0  0  0
   31.2679   27.8607   64.4555 H   0  0  0  0  0  0  0  0  0  0  0  0
   31.3695   29.4410   64.8543 H   0  0  0  0  0  0  0  0  0  0  0  0
   30.7790   29.9619   62.5452 H   0  0  0  0  0  0  0  0  0  0  0  0
   32.2477   29.2694   62.7179 H   0  0  0  0  0  0  0  0  0  0  0  0
   32.2024   28.2263   60.3378 H   0  0  0  0  0  0  0  0  0  0  0  0
   31.1380   29.4620   60.4197 H   0  0  0  0  0  0  0  0  0  0  0  0
   28.9164   28.7031   61.8637 H   0  0  0  0  0  0  0  0  0  0  0  0
   29.1047   27.2357   62.5549 H   0  0  0  0  0  0  0  0  0  0  0  0
   30.8080   26.9985   59.0886 H   0  0  0  0  0  0  0  0  0  0  0  0
   29.9398   28.3658   58.8797 H   0  0  0  0  0  0  0  0  0  0  0  0
   28.3074   27.3919   60.0756 H   0  0  0  0  0  0  0  0  0  0  0  0
   29.2947   26.1721   60.5273 H   0  0  0  0  0  0  0  0  0  0  0  0
   25.0776   32.1216   68.0555 H   0  0  0  0  0  0  0  0  0  0  0  0
   26.9590   32.1870   71.7607 H   0  0  0  0  0  0  0  0  0  0  0  0
   26.1360   22.1563   68.2822 H   0  0  0  0  0  0  0  0  0  0  0  0
   30.7728   28.8052   66.7258 H   0  0  0  0  0  0  0  0  0  0  0  0
   27.1012   28.0883   64.9367 H   0  0  0  0  0  0  0  0  0  0  0  0
   27.7376   23.6695   69.2091 H   0  0  0  0  0  0  0  0  0  0  0  0
   29.8192   28.3824   68.8937 H   0  0  0  0  0  0  0  0  0  0  0  0
   26.2255   27.4974   67.0835 H   0  0  0  0  0  0  0  0  0  0  0  0
   25.0893   29.7093   68.0281 H   0  0  0  0  0  0  0  0  0  0  0  0
   26.7952   29.7772   71.8357 H   0  0  0  0  0  0  0  0  0  0  0  0
   23.2864   25.1667   68.2691 H   0  0  0  0  0  0  0  0  0  0  0  0
   28.0652   27.9220   70.2411 H   0  0  0  0  0  0  0  0  0  0  0  0
   24.7436   27.6937   68.3786 H   0  0  0  0  0  0  0  0  0  0  0  0
   25.9333   27.7932   70.9745 H   0  0  0  0  0  0  0  0  0  0  0  0
  1 24  1  0  0  0  0
  2 25  1  0  0  0  0
  3  7  1  0  0  0  0
  3 26  1  0  0  0  0
  4 27  1  0  0  0  0
  4 28  1  0  0  0  0
  5  8  1  0  0  0  0
  5  9  1  0  0  0  0
  5 10  1  0  0  0  0
  6 29  1  0  0  0  0
  7  8  1  0  0  0  0
  9 11  1  0  0  0  0
 10 12  1  0  0  0  0
 11 12  1  0  0  0  0
 13 21  1  0  0  0  0
 13 24  2  0  0  0  0
 14 22  2  0  0  0  0
 14 24  1  0  0  0  0
 15 18  1  0  0  0  0
 15 25  2  0  0  0  0
 16 19  2  0  0  0  0
 16 26  1  0  0  0  0
 17 20  1  0  0  0  0
 17 26  2  0  0  0  0
 18 27  2  0  0  0  0
 19 30  1  0  0  0  0
 20 30  2  0  0  0  0
 21 31  2  0  0  0  0
 22 31  1  0  0  0  0
 23 25  1  0  0  0  0
 23 32  2  0  0  0  0
 27 32  1  0  0  0  0
 28 30  1  0  0  0  0
 28 33  1  0  0  0  0
 29 32  1  0  0  0  0
 29 33  1  0  0  0  0
 31 33  1  0  0  0  0
  1 34  1  0  0  0  0
  2 35  1  0  0  0  0
  6 36  1  0  0  0  0
  6 37  1  0  0  0  0
  6 38  1  0  0  0  0
  7 39  1  0  0  0  0
  7 40  1  0  0  0  0
  8 41  1  0  0  0  0
  8 42  1  0  0  0  0
  9 43  1  0  0  0  0
  9 44  1  0  0  0  0
 10 45  1  0  0  0  0
 10 46  1  0  0  0  0
 11 47  1  0  0  0  0
 11 48  1  0  0  0  0
 12 49  1  0  0  0  0
 12 50  1  0  0  0  0
 13 51  1  0  0  0  0
 14 52  1  0  0  0  0
 15 53  1  0  0  0  0
 16 54  1  0  0  0  0
 17 55  1  0  0  0  0
 18 56  1  0  0  0  0
 19 57  1  0  0  0  0
 20 58  1  0  0  0  0
 21 59  1  0  0  0  0
 22 60  1  0  0  0  0
 23 61  1  0  0  0  0
 28 62  1  0  0  0  0
 29 63  1  0  0  0  0
 33 64  1  0  0  0  0
M  END
> <pdb_id>
1YIM

> <uniprot_id>
P03372

> <usmiles>
O1c2c(cc(O)cc2)[C@H]([C@H](c3ccc(O)cc3)[C@@H]1c4ccc(OCCN5CCCC5)cc4)C

$$$$
CN0_A_701
          07202411143D 1   1.00000     0.00000     0
            
 23 23  0  0  0  0            999 V2000
  127.6947 -878.8941  302.7542 O   0  0  0  0  0  0  0  0  0  0  0  0
  128.8441 -879.4172  300.9159 O   0  0  0  0  0  0  0  0  0  0  0  0
  122.8834 -881.5087  299.9624 O   0  0  0  0  0  0  0  0  0  0  0  0
  124.0709 -879.3853  298.4107 O   0  0  0  0  0  0  0  0  0  0  0  0
  126.6827 -878.7402  298.9592 O   0  0  0  0  0  0  0  0  0  0  0  0
  125.6364 -880.3098  302.1714 N   0  0  0  0  0  0  0  0  0  0  0  0
  124.4748 -881.0827  301.7273 C   0  0  0  0  0  0  0  0  0  0  0  0
  127.7928 -879.4040  301.5895 C   0  0  0  0  0  0  0  0  0  0  0  0
  123.8103 -880.5663  300.4637 C   0  0  1  0  0  0  0  0  0  0  0  0
  124.7527 -880.1272  299.3940 C   0  0  2  0  0  0  0  0  0  0  0  0
  125.8015 -879.2589  299.9726 C   0  0  1  0  0  0  0  0  0  0  0  0
  126.5548 -880.0434  301.0313 C   0  0  2  0  0  0  0  0  0  0  0  0
  122.2644 -881.6715  300.5769 H   0  0  0  0  0  0  0  0  0  0  0  0
  124.4956 -879.4628  297.6345 H   0  0  0  0  0  0  0  0  0  0  0  0
  126.3376 -878.9002  298.1566 H   0  0  0  0  0  0  0  0  0  0  0  0
  126.0810 -880.7746  302.8176 H   0  0  0  0  0  0  0  0  0  0  0  0
  124.7594 -882.0032  301.5708 H   0  0  0  0  0  0  0  0  0  0  0  0
  123.8129 -881.0824  302.4447 H   0  0  0  0  0  0  0  0  0  0  0  0
  123.2963 -879.7779  300.7224 H   0  0  0  0  0  0  0  0  0  0  0  0
  125.1669 -880.9097  298.9836 H   0  0  0  0  0  0  0  0  0  0  0  0
  125.3641 -878.5035  300.4090 H   0  0  0  0  0  0  0  0  0  0  0  0
  126.8939 -880.8658  300.6288 H   0  0  0  0  0  0  0  0  0  0  0  0
  126.8201 -878.9182  303.2384 H   0  0  0  0  0  0  0  0  0  0  0  0
  1  8  1  0  0  0  0
  2  8  2  0  0  0  0
  3  9  1  0  0  0  0
  3 13  1  0  0  0  0
  4 10  1  0  0  0  0
  4 14  1  0  0  0  0
  5 11  1  0  0  0  0
  5 15  1  0  0  0  0
  6  7  1  0  0  0  0
  6 12  1  0  0  0  0
  6 16  1  0  0  0  0
  7  9  1  0  0  0  0
  7 17  1  0  0  0  0
  7 18  1  0  0  0  0
  8 12  1  0  0  0  0
  9 10  1  0  0  0  0
  9 19  1  0  0  0  0
 10 11  1  0  0  0  0
 10 20  1  0  0  0  0
 11 12  1  0  0  0  0
 11 21  1  0  0  0  0
 12 22  1  0  0  0  0
  1 23  1  0  0  0  0
M  END
> <pdb_id>
6JZ3

> <uniprot_id>
Q6W7J7

> <usmiles>
O=C(O)[C@H]1NC[C@H](O)[C@@H](O)[C@@H]1O

$$$$
CNI_A_400
          07192423413D 1   1.00000     0.00000     0
            
 21 22  0  0  0  0            999 V2000
   43.6787   39.7525   12.4989 O   0  5  0  0  0  0  0  0  0  0  0  0
   42.1211   38.2305   11.5395 O   0  0  0  0  0  0  0  0  0  0  0  0
   47.1012   38.7435    5.4521 O   0  0  0  0  0  0  0  0  0  0  0  0
   48.3374   36.2904    6.2211 O   0  0  0  0  0  0  0  0  0  0  0  0
   44.3477   35.9390   13.4031 N   0  0  0  0  0  0  0  0  0  0  0  0
   45.8948   38.6894    7.4251 N   0  0  0  0  0  0  0  0  0  0  0  0
   47.2104   36.3382    8.2454 N   0  0  0  0  0  0  0  0  0  0  0  0
   43.3773   38.8144   11.4958 N   0  3  0  0  0  0  0  0  0  0  0  0
   44.6596   36.3680   12.4059 C   0  0  0  0  0  0  0  0  0  0  0  0
   44.6316   38.7733    9.4062 C   0  0  0  0  0  0  0  0  0  0  0  0
   45.9887   36.3538   10.2870 C   0  0  0  0  0  0  0  0  0  0  0  0
   46.7786   38.1351    6.6541 C   0  0  0  0  0  0  0  0  0  0  0  0
   47.4872   36.8930    7.0997 C   0  0  0  0  0  0  0  0  0  0  0  0
   45.6015   38.1482    8.6094 C   0  0  0  0  0  0  0  0  0  0  0  0
   46.2981   36.9305    9.0412 C   0  0  0  0  0  0  0  0  0  0  0  0
   44.3625   38.2238   10.6144 C   0  0  0  0  0  0  0  0  0  0  0  0
   45.0413   36.9806   11.0701 C   0  0  0  0  0  0  0  0  0  0  0  0
   45.4314   39.5254    7.1310 H   0  0  0  0  0  0  0  0  0  0  0  0
   47.6641   35.4930    8.5278 H   0  0  0  0  0  0  0  0  0  0  0  0
   44.1557   39.5954    9.0935 H   0  0  0  0  0  0  0  0  0  0  0  0
   46.4409   35.5168   10.5948 H   0  0  0  0  0  0  0  0  0  0  0  0
  1  8  1  0  0  0  0
  2  8  2  0  0  0  0
  3 12  2  0  0  0  0
  4 13  2  0  0  0  0
  5  9  3  0  0  0  0
  6 12  1  0  0  0  0
  6 14  1  0  0  0  0
  7 13  1  0  0  0  0
  7 15  1  0  0  0  0
  8 16  1  0  0  0  0
  9 17  1  0  0  0  0
 10 14  2  0  0  0  0
 10 16  1  0  0  0  0
 11 15  2  0  0  0  0
 11 17  1  0  0  0  0
 12 13  1  0  0  0  0
 14 15  1  0  0  0  0
 16 17  2  0  0  0  0
  6 18  1  0  0  0  0
  7 19  1  0  0  0  0
 10 20  1  0  0  0  0
 11 21  1  0  0  0  0
M  CHG  2   1  -1   8   1
M  END
> <pdb_id>
3T9V

> <uniprot_id>
P19491

> <usmiles>
[O-][N+](=O)c1c(C#N)cc2NC(=O)C(=O)Nc2c1

$$$$
CNI_C_400
          07202402433D 1   1.00000     0.00000     0
            
 21 22  0  0  0  0            999 V2000
    9.5880   68.8520   24.5490 O   0  5  0  0  0  0  0  0  0  0  0  0
    7.6330   68.4750   24.2620 O   0  0  0  0  0  0  0  0  0  0  0  0
    5.3380   67.6580   31.4200 O   0  0  0  0  0  0  0  0  0  0  0  0
    6.5540   69.9320   32.3490 O   0  0  0  0  0  0  0  0  0  0  0  0
   10.2400   71.5560   25.4430 N   0  0  0  0  0  0  0  0  0  0  0  0
    6.3380   67.9380   29.3270 N   0  0  0  0  0  0  0  0  0  0  0  0
    7.5790   70.2160   30.3200 N   0  0  0  0  0  0  0  0  0  0  0  0
    8.4890   68.7580   25.0350 N   0  3  0  0  0  0  0  0  0  0  0  0
    9.5870   70.9640   26.1700 C   0  0  0  0  0  0  0  0  0  0  0  0
    7.3800   68.2780   27.2170 C   0  0  0  0  0  0  0  0  0  0  0  0
    8.6130   70.6460   28.2850 C   0  0  0  0  0  0  0  0  0  0  0  0
    6.1310   68.3250   30.6110 C   0  0  0  0  0  0  0  0  0  0  0  0
    6.7780   69.5190   31.1080 C   0  0  0  0  0  0  0  0  0  0  0  0
    7.1810   68.6700   28.5550 C   0  0  0  0  0  0  0  0  0  0  0  0
    7.7920   69.8380   29.0680 C   0  0  0  0  0  0  0  0  0  0  0  0
    8.2310   69.0500   26.4080 C   0  0  0  0  0  0  0  0  0  0  0  0
    8.8540   70.2660   26.9660 C   0  0  0  0  0  0  0  0  0  0  0  0
    5.8790   67.1302   28.9571 H   0  0  0  0  0  0  0  0  0  0  0  0
    8.0286   71.0367   30.6725 H   0  0  0  0  0  0  0  0  0  0  0  0
    6.9249   67.4667   26.8501 H   0  0  0  0  0  0  0  0  0  0  0  0
    9.0198   71.4789   28.6603 H   0  0  0  0  0  0  0  0  0  0  0  0
  1  8  1  0  0  0  0
  2  8  2  0  0  0  0
  3 12  2  0  0  0  0
  4 13  2  0  0  0  0
  5  9  3  0  0  0  0
  6 12  1  0  0  0  0
  6 14  1  0  0  0  0
  7 13  1  0  0  0  0
  7 15  1  0  0  0  0
  8 16  1  0  0  0  0
  9 17  1  0  0  0  0
 10 14  2  0  0  0  0
 10 16  1  0  0  0  0
 11 15  2  0  0  0  0
 11 17  1  0  0  0  0
 12 13  1  0  0  0  0
 14 15  1  0  0  0  0
 16 17  2  0  0  0  0
  6 18  1  0  0  0  0
  7 19  1  0  0  0  0
 10 20  1  0  0  0  0
 11 21  1  0  0  0  0
M  CHG  2   1  -1   8   1
M  END
> <pdb_id>
3T9U

> <uniprot_id>
P19491

> <usmiles>
[O-][N+](=O)c1c(C#N)cc2NC(=O)C(=O)Nc2c1

$$$$
CO4_A_187
          07202413363D 1   1.00000     0.00000     0
            
 52 54  0  0  0  0            999 V2000
   10.7199    6.1287   -0.6063 O   0  0  0  0  0  0  0  0  0  0  0  0
   10.1739    1.3474   -0.8271 O   0  0  0  0  0  0  0  0  0  0  0  0
    9.0485    4.0500   -0.2304 O   0  0  0  0  0  0  0  0  0  0  0  0
   18.3709    7.2128    4.6175 N   0  0  0  0  0  0  0  0  0  0  0  0
   18.9504    8.2708    0.2284 N   0  0  0  0  0  0  0  0  0  0  0  0
   15.7697    4.8164    1.8239 N   0  0  0  0  0  0  0  0  0  0  0  0
   18.6640    7.7659    2.3319 N   0  0  0  0  0  0  0  0  0  0  0  0
   17.1858    6.1062    3.1789 N   0  0  0  0  0  0  0  0  0  0  0  0
   14.2722    3.4568   -2.0587 N   0  0  0  0  0  0  0  0  0  0  0  0
   11.9023    6.9252   -0.9066 C   0  0  0  0  0  0  0  0  0  0  0  0
   10.9016    0.1554   -1.1716 C   0  0  0  0  0  0  0  0  0  0  0  0
    8.1729    3.0226    0.0556 C   0  0  0  0  0  0  0  0  0  0  0  0
   14.7246    2.1037   -2.2890 C   0  0  0  0  0  0  0  0  0  0  0  0
   17.1994    6.7938   -1.7510 C   0  0  0  0  0  0  0  0  0  0  0  0
   15.2823    4.4583    0.5908 C   0  0  0  0  0  0  0  0  0  0  0  0
   15.1843    4.5896   -1.9548 C   0  0  0  0  0  0  0  0  0  0  0  0
   12.3964    4.7935   -1.3134 C   0  0  0  0  0  0  0  0  0  0  0  0
   12.1974    2.4353   -1.4578 C   0  0  0  0  0  0  0  0  0  0  0  0
   18.1045    7.1117    3.3644 C   0  0  0  0  0  0  0  0  0  0  0  0
   18.2708    7.5013    1.1053 C   0  0  0  0  0  0  0  0  0  0  0  0
   16.7537    5.8294    1.9160 C   0  0  0  0  0  0  0  0  0  0  0  0
   11.1162    4.8205   -0.8414 C   0  0  0  0  0  0  0  0  0  0  0  0
   10.8786    2.4983   -0.9512 C   0  0  0  0  0  0  0  0  0  0  0  0
   10.3335    3.7155   -0.6692 C   0  0  0  0  0  0  0  0  0  0  0  0
   12.9770    3.5433   -1.6190 C   0  0  0  0  0  0  0  0  0  0  0  0
   15.7768    5.0786   -0.5952 C   0  0  0  0  0  0  0  0  0  0  0  0
   16.7033    6.0946   -0.4717 C   0  0  0  0  0  0  0  0  0  0  0  0
   17.2455    6.5424    0.7926 C   0  0  0  0  0  0  0  0  0  0  0  0
   17.8695    6.6582    5.2816 H   0  0  0  0  0  0  0  0  0  0  0  0
   19.0795    7.8461    4.9285 H   0  0  0  0  0  0  0  0  0  0  0  0
   18.7687    8.1916   -0.7518 H   0  0  0  0  0  0  0  0  0  0  0  0
   19.6354    8.9199    0.5591 H   0  0  0  0  0  0  0  0  0  0  0  0
   11.6981    7.8932   -0.7604 H   0  0  0  0  0  0  0  0  0  0  0  0
   12.6521    6.6483   -0.3057 H   0  0  0  0  0  0  0  0  0  0  0  0
   12.1682    6.7809   -1.8597 H   0  0  0  0  0  0  0  0  0  0  0  0
   10.3105   -0.6422   -1.0522 H   0  0  0  0  0  0  0  0  0  0  0  0
   11.1991    0.2103   -2.1247 H   0  0  0  0  0  0  0  0  0  0  0  0
   11.7012    0.0697   -0.5772 H   0  0  0  0  0  0  0  0  0  0  0  0
    7.2985    3.4037    0.3558 H   0  0  0  0  0  0  0  0  0  0  0  0
    8.0310    2.4677   -0.7641 H   0  0  0  0  0  0  0  0  0  0  0  0
    8.5549    2.4518    0.7825 H   0  0  0  0  0  0  0  0  0  0  0  0
   13.9358    1.4901   -2.3250 H   0  0  0  0  0  0  0  0  0  0  0  0
   15.2199    2.0610   -3.1567 H   0  0  0  0  0  0  0  0  0  0  0  0
   15.3310    1.8237   -1.5448 H   0  0  0  0  0  0  0  0  0  0  0  0
   17.8618    7.5024   -1.5081 H   0  0  0  0  0  0  0  0  0  0  0  0
   17.6345    6.1222   -2.3506 H   0  0  0  0  0  0  0  0  0  0  0  0
   16.4239    7.2109   -2.2250 H   0  0  0  0  0  0  0  0  0  0  0  0
   14.5737    3.7558    0.5235 H   0  0  0  0  0  0  0  0  0  0  0  0
   14.6971    5.3727   -2.3412 H   0  0  0  0  0  0  0  0  0  0  0  0
   15.9687    4.3665   -2.5335 H   0  0  0  0  0  0  0  0  0  0  0  0
   12.9121    5.6409   -1.4402 H   0  0  0  0  0  0  0  0  0  0  0  0
   12.5735    1.5431   -1.7078 H   0  0  0  0  0  0  0  0  0  0  0  0
  1 10  1  0  0  0  0
  1 22  1  0  0  0  0
  2 11  1  0  0  0  0
  2 23  1  0  0  0  0
  3 12  1  0  0  0  0
  3 24  1  0  0  0  0
  4 19  1  0  0  0  0
  5 20  1  0  0  0  0
  6 15  2  0  0  0  0
  6 21  1  0  0  0  0
  7 19  2  0  0  0  0
  7 20  1  0  0  0  0
  8 19  1  0  0  0  0
  8 21  2  0  0  0  0
  9 13  1  0  0  0  0
  9 16  1  0  0  0  0
  9 25  1  0  0  0  0
 14 27  1  0  0  0  0
 15 26  1  0  0  0  0
 16 26  1  0  0  0  0
 17 22  1  0  0  0  0
 17 25  2  0  0  0  0
 18 23  2  0  0  0  0
 18 25  1  0  0  0  0
 20 28  2  0  0  0  0
 21 28  1  0  0  0  0
 22 24  2  0  0  0  0
 23 24  1  0  0  0  0
 26 27  2  0  0  0  0
 27 28  1  0  0  0  0
  4 29  1  0  0  0  0
  4 30  1  0  0  0  0
  5 31  1  0  0  0  0
  5 32  1  0  0  0  0
 10 33  1  0  0  0  0
 10 34  1  0  0  0  0
 10 35  1  0  0  0  0
 11 36  1  0  0  0  0
 11 37  1  0  0  0  0
 11 38  1  0  0  0  0
 12 39  1  0  0  0  0
 12 40  1  0  0  0  0
 12 41  1  0  0  0  0
 13 42  1  0  0  0  0
 13 43  1  0  0  0  0
 13 44  1  0  0  0  0
 14 45  1  0  0  0  0
 14 46  1  0  0  0  0
 14 47  1  0  0  0  0
 15 48  1  0  0  0  0
 16 49  1  0  0  0  0
 16 50  1  0  0  0  0
 17 51  1  0  0  0  0
 18 52  1  0  0  0  0
M  END
> <pdb_id>
1PD9

> <uniprot_id>
P00374

> <usmiles>
O(c1c(OC)cc(N(Cc2c(c3c(nc(nc3N)N)nc2)C)C)cc1OC)C

$$$$
COG_A_307
          07202402443D 1   1.00000     0.00000     0
            
 46 48  0  0  0  0            999 V2000
   15.4558    4.3836    8.1452 O   0  0  0  0  0  0  0  0  0  0  0  0
   18.7852    1.4439   11.4588 O   0  0  0  0  0  0  0  0  0  0  0  0
    9.5920   -3.2534   11.8275 N   0  0  0  0  0  0  0  0  0  0  0  0
   10.5696    0.4727   14.6836 N   0  0  0  0  0  0  0  0  0  0  0  0
   10.1266   -1.3303   13.2302 N   0  0  0  0  0  0  0  0  0  0  0  0
   11.5976   -1.9635   11.4168 N   0  0  0  0  0  0  0  0  0  0  0  0
   14.8796    2.3323   12.7202 N   0  0  0  0  0  0  0  0  0  0  0  0
   15.8430    4.9507    6.9413 C   0  0  0  0  0  0  0  0  0  0  0  0
   19.8674    1.7385   12.2899 C   0  0  0  0  0  0  0  0  0  0  0  0
   13.9986    3.3574   13.2569 C   0  0  0  0  0  0  0  0  0  0  0  0
   16.3143    2.3741   12.6262 C   0  0  0  0  0  0  0  0  0  0  0  0
   17.4793    3.1945    8.5509 C   0  0  0  0  0  0  0  0  0  0  0  0
   18.3123    2.4684    9.3867 C   0  0  0  0  0  0  0  0  0  0  0  0
   13.5798   -0.7231   10.9324 C   0  0  0  0  0  0  0  0  0  0  0  0
   14.4099    0.3427   11.2757 C   0  0  0  0  0  0  0  0  0  0  0  0
   15.8910    3.3967   10.3497 C   0  0  0  0  0  0  0  0  0  0  0  0
   12.9722    1.0299   13.0959 C   0  0  0  0  0  0  0  0  0  0  0  0
   10.4610   -2.1965   12.1661 C   0  0  0  0  0  0  0  0  0  0  0  0
   10.9483   -0.2890   13.5587 C   0  0  0  0  0  0  0  0  0  0  0  0
   16.2673    3.6675    9.0401 C   0  0  0  0  0  0  0  0  0  0  0  0
   17.9427    2.1902   10.7043 C   0  0  0  0  0  0  0  0  0  0  0  0
   12.4073   -0.8921   11.7169 C   0  0  0  0  0  0  0  0  0  0  0  0
   14.1328    1.2071   12.3165 C   0  0  0  0  0  0  0  0  0  0  0  0
   16.7084    2.6394   11.1646 C   0  0  0  0  0  0  0  0  0  0  0  0
   12.1132   -0.0475   12.8050 C   0  0  0  0  0  0  0  0  0  0  0  0
    9.8239   -3.8697   11.0750 H   0  0  0  0  0  0  0  0  0  0  0  0
    8.7437   -3.3869   12.3399 H   0  0  0  0  0  0  0  0  0  0  0  0
   11.1304    1.2480   14.9742 H   0  0  0  0  0  0  0  0  0  0  0  0
    9.7404    0.2374   15.1905 H   0  0  0  0  0  0  0  0  0  0  0  0
   15.0568    5.3986    6.5156 H   0  0  0  0  0  0  0  0  0  0  0  0
   16.5620    5.6257    7.1067 H   0  0  0  0  0  0  0  0  0  0  0  0
   16.1897    4.2368    6.3328 H   0  0  0  0  0  0  0  0  0  0  0  0
   20.2326    0.8908   12.6747 H   0  0  0  0  0  0  0  0  0  0  0  0
   20.5798    2.1979   11.7594 H   0  0  0  0  0  0  0  0  0  0  0  0
   19.5649    2.3378   13.0311 H   0  0  0  0  0  0  0  0  0  0  0  0
   13.0496    3.0491   13.1911 H   0  0  0  0  0  0  0  0  0  0  0  0
   14.2286    3.5262   14.2153 H   0  0  0  0  0  0  0  0  0  0  0  0
   14.1118    4.2018   12.7332 H   0  0  0  0  0  0  0  0  0  0  0  0
   16.6961    1.4989   12.9235 H   0  0  0  0  0  0  0  0  0  0  0  0
   16.6679    3.1068   13.2078 H   0  0  0  0  0  0  0  0  0  0  0  0
   17.7475    3.3766    7.6049 H   0  0  0  0  0  0  0  0  0  0  0  0
   19.1910    2.1387    9.0414 H   0  0  0  0  0  0  0  0  0  0  0  0
   13.7981   -1.3367   10.1736 H   0  0  0  0  0  0  0  0  0  0  0  0
   15.2443    0.4880   10.7440 H   0  0  0  0  0  0  0  0  0  0  0  0
   15.0253    3.7513   10.7032 H   0  0  0  0  0  0  0  0  0  0  0  0
   12.7619    1.6594   13.8439 H   0  0  0  0  0  0  0  0  0  0  0  0
  1  8  1  0  0  0  0
  1 20  1  0  0  0  0
  2  9  1  0  0  0  0
  2 21  1  0  0  0  0
  3 18  1  0  0  0  0
  4 19  1  0  0  0  0
  5 18  2  0  0  0  0
  5 19  1  0  0  0  0
  6 18  1  0  0  0  0
  6 22  2  0  0  0  0
  7 10  1  0  0  0  0
  7 11  1  0  0  0  0
  7 23  1  0  0  0  0
 11 24  1  0  0  0  0
 12 13  1  0  0  0  0
 12 20  2  0  0  0  0
 13 21  2  0  0  0  0
 14 15  2  0  0  0  0
 14 22  1  0  0  0  0
 15 23  1  0  0  0  0
 16 20  1  0  0  0  0
 16 24  2  0  0  0  0
 17 23  2  0  0  0  0
 17 25  1  0  0  0  0
 19 25  2  0  0  0  0
 21 24  1  0  0  0  0
 22 25  1  0  0  0  0
  3 26  1  0  0  0  0
  3 27  1  0  0  0  0
  4 28  1  0  0  0  0
  4 29  1  0  0  0  0
  8 30  1  0  0  0  0
  8 31  1  0  0  0  0
  8 32  1  0  0  0  0
  9 33  1  0  0  0  0
  9 34  1  0  0  0  0
  9 35  1  0  0  0  0
 10 36  1  0  0  0  0
 10 37  1  0  0  0  0
 10 38  1  0  0  0  0
 11 39  1  0  0  0  0
 11 40  1  0  0  0  0
 12 41  1  0  0  0  0
 13 42  1  0  0  0  0
 14 43  1  0  0  0  0
 15 44  1  0  0  0  0
 16 45  1  0  0  0  0
 17 46  1  0  0  0  0
M  END
> <pdb_id>
1LY3

> <uniprot_id>
P16184

> <usmiles>
O(c1c(cc(OC)cc1)CN(c2cc3c(nc(nc3cc2)N)N)C)C

$$$$
CQU_A_999
          07192421293D 1   1.00000     0.00000     0
            
 35 38  0  0  0  0            999 V2000
   19.5922    1.2768   41.8697 N   0  0  0  0  0  0  0  0  0  0  0  0
   20.8386    1.6766   41.8501 N   0  0  0  0  0  0  0  0  0  0  0  0
   24.2639    7.2566   42.9318 N   0  0  0  0  0  0  0  0  0  0  0  0
   24.7593    4.9676   42.8495 N   0  0  0  0  0  0  0  0  0  0  0  0
   21.9062    7.8273   42.5039 N   0  0  0  0  0  0  0  0  0  0  0  0
   20.8407   -0.1959   42.8667 N   0  0  0  0  0  0  0  0  0  0  0  0
   23.1092    3.2984   42.2583 N   0  0  0  0  0  0  0  0  0  0  0  0
   18.4366   -0.7730   42.8035 C   0  0  0  0  0  0  0  0  0  0  0  0
   25.0995    6.2433   43.0095 C   0  0  0  0  0  0  0  0  0  0  0  0
   20.8058    7.0777   42.2189 C   0  0  0  0  0  0  0  0  0  0  0  0
   25.8793    0.9314   42.9367 C   0  0  0  0  0  0  0  0  0  0  0  0
   25.2209   -0.2579   43.0408 C   0  0  0  0  0  0  0  0  0  0  0  0
   21.1615    5.7828   42.1399 C   0  0  0  0  0  0  0  0  0  0  0  0
   25.2057    2.0936   42.6610 C   0  0  0  0  0  0  0  0  0  0  0  0
   23.8520   -0.2581   42.9004 C   0  0  0  0  0  0  0  0  0  0  0  0
   19.5856    0.1209   42.4987 C   0  0  0  0  0  0  0  0  0  0  0  0
   22.9914    7.0338   42.6199 C   0  0  0  0  0  0  0  0  0  0  0  0
   21.6471    0.8161   42.4522 C   0  0  0  0  0  0  0  0  0  0  0  0
   23.5207    4.6135   42.5079 C   0  0  0  0  0  0  0  0  0  0  0  0
   23.8338    2.1229   42.5188 C   0  0  0  0  0  0  0  0  0  0  0  0
   22.5717    5.6896   42.4128 C   0  0  0  0  0  0  0  0  0  0  0  0
   23.1286    0.9029   42.6433 C   0  0  0  0  0  0  0  0  0  0  0  0
   18.8029    1.7542   41.4837 H   0  0  0  0  0  0  0  0  0  0  0  0
   21.9097    8.8215   42.6117 H   0  0  0  0  0  0  0  0  0  0  0  0
   22.2030    3.1835   41.8513 H   0  0  0  0  0  0  0  0  0  0  0  0
   18.7634   -1.5800   43.2953 H   0  0  0  0  0  0  0  0  0  0  0  0
   17.7742   -0.2829   43.3700 H   0  0  0  0  0  0  0  0  0  0  0  0
   17.9998   -1.0570   41.9500 H   0  0  0  0  0  0  0  0  0  0  0  0
   26.0593    6.4470   43.2026 H   0  0  0  0  0  0  0  0  0  0  0  0
   19.8802    7.4333   42.0888 H   0  0  0  0  0  0  0  0  0  0  0  0
   26.8709    0.9566   43.0636 H   0  0  0  0  0  0  0  0  0  0  0  0
   25.7193   -1.1072   43.2145 H   0  0  0  0  0  0  0  0  0  0  0  0
   20.5524    5.0183   41.9286 H   0  0  0  0  0  0  0  0  0  0  0  0
   25.7233    2.9434   42.5602 H   0  0  0  0  0  0  0  0  0  0  0  0
   23.3590   -1.1239   42.9861 H   0  0  0  0  0  0  0  0  0  0  0  0
  1  2  1  0  0  0  0
  1 16  1  0  0  0  0
  2 18  2  0  0  0  0
  3  9  2  0  0  0  0
  3 17  1  0  0  0  0
  4  9  1  0  0  0  0
  4 19  2  0  0  0  0
  5 10  1  0  0  0  0
  5 17  1  0  0  0  0
  6 16  2  0  0  0  0
  6 18  1  0  0  0  0
  7 19  1  0  0  0  0
  7 20  1  0  0  0  0
  8 16  1  0  0  0  0
 10 13  2  0  0  0  0
 11 12  2  0  0  0  0
 11 14  1  0  0  0  0
 12 15  1  0  0  0  0
 13 21  1  0  0  0  0
 14 20  2  0  0  0  0
 15 22  2  0  0  0  0
 17 21  2  0  0  0  0
 18 22  1  0  0  0  0
 19 21  1  0  0  0  0
 20 22  1  0  0  0  0
  1 23  1  0  0  0  0
  5 24  1  0  0  0  0
  7 25  1  0  0  0  0
  8 26  1  0  0  0  0
  8 27  1  0  0  0  0
  8 28  1  0  0  0  0
  9 29  1  0  0  0  0
 10 30  1  0  0  0  0
 11 31  1  0  0  0  0
 12 32  1  0  0  0  0
 13 33  1  0  0  0  0
 14 34  1  0  0  0  0
 15 35  1  0  0  0  0
M  END
> <pdb_id>
3CQU

> <uniprot_id>
P31749

> <usmiles>
n1c(Nc2c(cccc2)C3=NNC(=N3)C)c4c(nc1)NC=C4

$$$$
CQW_A_999
          07192421293D 1   1.00000     0.00000     0
            
 30 33  0  0  0  0            999 V2000
   19.6445    4.6054   40.4961 Cl  0  0  0  0  0  0  0  0  0  0  0  0
   23.8374    6.9579   42.5699 N   0  0  0  0  0  0  0  0  0  0  0  0
   24.3346    4.7396   42.1666 N   0  0  0  0  0  0  0  0  0  0  0  0
   21.5305    7.6698   42.0303 N   0  0  0  0  0  0  0  0  0  0  0  0
   20.7649    0.7842   43.5180 N   0  0  0  0  0  0  0  0  0  0  0  0
   22.6986    0.0415   44.1994 N   0  0  0  0  0  0  0  0  0  0  0  0
   22.8446    3.1514   41.3090 N   0  0  0  0  0  0  0  0  0  0  0  0
   24.7086    5.9406   42.6028 C   0  0  0  0  0  0  0  0  0  0  0  0
   21.3631   -0.0606   44.3524 C   0  0  0  0  0  0  0  0  0  0  0  0
   20.4516    7.0179   41.4937 C   0  0  0  0  0  0  0  0  0  0  0  0
   23.9479    2.1649   41.2271 C   0  0  0  0  0  0  0  0  0  0  0  0
   21.5998    2.4392   41.6820 C   0  0  0  0  0  0  0  0  0  0  0  0
   24.1975    1.4260   42.5612 C   0  0  0  0  0  0  0  0  0  0  0  0
   22.5909    6.7800   42.1268 C   0  0  0  0  0  0  0  0  0  0  0  0
   20.7521    5.7361   41.2236 C   0  0  0  0  0  0  0  0  0  0  0  0
   23.0929    4.4709   41.7440 C   0  0  0  0  0  0  0  0  0  0  0  0
   21.7430    1.4605   42.8221 C   0  0  0  0  0  0  0  0  0  0  0  0
   22.9339    1.0191   43.2567 C   0  0  0  0  0  0  0  0  0  0  0  0
   22.1490    5.5185   41.6700 C   0  0  0  0  0  0  0  0  0  0  0  0
   21.5506    8.6305   42.3073 H   0  0  0  0  0  0  0  0  0  0  0  0
   19.7780    0.9072   43.4137 H   0  0  0  0  0  0  0  0  0  0  0  0
   25.6344    6.0825   42.9531 H   0  0  0  0  0  0  0  0  0  0  0  0
   20.8972   -0.6732   44.9909 H   0  0  0  0  0  0  0  0  0  0  0  0
   19.5603    7.4392   41.3256 H   0  0  0  0  0  0  0  0  0  0  0  0
   24.7858    2.6448   40.9670 H   0  0  0  0  0  0  0  0  0  0  0  0
   23.7197    1.4890   40.5263 H   0  0  0  0  0  0  0  0  0  0  0  0
   21.2778    1.9363   40.8799 H   0  0  0  0  0  0  0  0  0  0  0  0
   20.9178    3.1223   41.9431 H   0  0  0  0  0  0  0  0  0  0  0  0
   24.7134    2.0309   43.1678 H   0  0  0  0  0  0  0  0  0  0  0  0
   24.7356    0.6043   42.3735 H   0  0  0  0  0  0  0  0  0  0  0  0
  1 15  1  0  0  0  0
  2  8  2  0  0  0  0
  2 14  1  0  0  0  0
  3  8  1  0  0  0  0
  3 16  2  0  0  0  0
  4 10  1  0  0  0  0
  4 14  1  0  0  0  0
  5  9  1  0  0  0  0
  5 17  1  0  0  0  0
  6  9  2  0  0  0  0
  6 18  1  0  0  0  0
  7 11  1  0  0  0  0
  7 12  1  0  0  0  0
  7 16  1  0  0  0  0
 10 15  2  0  0  0  0
 11 13  1  0  0  0  0
 12 17  1  0  0  0  0
 13 18  1  0  0  0  0
 14 19  2  0  0  0  0
 15 19  1  0  0  0  0
 16 19  1  0  0  0  0
 17 18  2  0  0  0  0
  4 20  1  0  0  0  0
  5 21  1  0  0  0  0
  8 22  1  0  0  0  0
  9 23  1  0  0  0  0
 10 24  1  0  0  0  0
 11 25  1  0  0  0  0
 11 26  1  0  0  0  0
 12 27  1  0  0  0  0
 12 28  1  0  0  0  0
 13 29  1  0  0  0  0
 13 30  1  0  0  0  0
M  END
> <pdb_id>
3CQW

> <uniprot_id>
P31749

> <usmiles>
ClC=1c2c(ncnc2NC1)N3CC=4NC=NC4CC3

$$$$
CRZ_A_501
          07202409203D 1   1.00000     0.00000     0
            
 34 36  0  0  0  0            999 V2000
    6.3109    5.0328   15.2691 O   0  0  0  0  0  0  0  0  0  0  0  0
    6.3657    7.2127   15.0669 O   0  0  0  0  0  0  0  0  0  0  0  0
    4.9942    7.5465   18.9412 N   0  0  0  0  0  0  0  0  0  0  0  0
    5.8329    8.3383   18.0281 C   0  0  0  0  0  0  0  0  0  0  0  0
    7.1757    7.6606   17.6990 C   0  0  0  0  0  0  0  0  0  0  0  0
    2.3756    5.3935   17.2982 C   0  0  0  0  0  0  0  0  0  0  0  0
    5.7649    8.0885   22.5731 C   0  0  0  0  0  0  0  0  0  0  0  0
    1.8184    4.8732   18.4780 C   0  0  0  0  0  0  0  0  0  0  0  0
    4.7744    7.2441   23.0950 C   0  0  0  0  0  0  0  0  0  0  0  0
    7.0223    6.2023   17.2251 C   0  0  0  0  0  0  0  0  0  0  0  0
    3.4472    6.3029   17.3150 C   0  0  0  0  0  0  0  0  0  0  0  0
    5.9509    8.2794   21.1990 C   0  0  0  0  0  0  0  0  0  0  0  0
    2.3018    5.2513   19.7384 C   0  0  0  0  0  0  0  0  0  0  0  0
    3.9088    6.5337   22.2548 C   0  0  0  0  0  0  0  0  0  0  0  0
    6.5458    6.1128   15.7916 C   0  0  0  0  0  0  0  0  0  0  0  0
    3.9768    6.7136   18.5396 C   0  0  0  0  0  0  0  0  0  0  0  0
    5.1103    7.6067   20.3044 C   0  0  0  0  0  0  0  0  0  0  0  0
    3.3641    6.1454   19.7614 C   0  0  0  0  0  0  0  0  0  0  0  0
    4.0808    6.7206   20.8830 C   0  0  0  0  0  0  0  0  0  0  0  0
    6.4369    4.1879   15.7890 H   0  0  0  0  0  0  0  0  0  0  0  0
    6.0193    9.2234   18.4545 H   0  0  0  0  0  0  0  0  0  0  0  0
    5.3299    8.4784   17.1753 H   0  0  0  0  0  0  0  0  0  0  0  0
    7.7454    7.6692   18.5208 H   0  0  0  0  0  0  0  0  0  0  0  0
    7.6263    8.1837   16.9756 H   0  0  0  0  0  0  0  0  0  0  0  0
    1.9976    5.1076   16.4176 H   0  0  0  0  0  0  0  0  0  0  0  0
    6.3636    8.5749   23.2094 H   0  0  0  0  0  0  0  0  0  0  0  0
    1.0628    4.2210   18.4178 H   0  0  0  0  0  0  0  0  0  0  0  0
    4.6848    7.1475   24.0863 H   0  0  0  0  0  0  0  0  0  0  0  0
    6.3590    5.7406   17.8141 H   0  0  0  0  0  0  0  0  0  0  0  0
    7.9086    5.7450   17.2988 H   0  0  0  0  0  0  0  0  0  0  0  0
    3.8265    6.6522   16.4582 H   0  0  0  0  0  0  0  0  0  0  0  0
    6.6714    8.8855   20.8623 H   0  0  0  0  0  0  0  0  0  0  0  0
    1.9004    4.8938   20.5817 H   0  0  0  0  0  0  0  0  0  0  0  0
    3.2043    5.9244   22.6188 H   0  0  0  0  0  0  0  0  0  0  0  0
  1 15  1  0  0  0  0
  2 15  2  0  0  0  0
  3  4  1  0  0  0  0
  3 16  1  0  0  0  0
  3 17  1  0  0  0  0
  4  5  1  0  0  0  0
  5 10  1  0  0  0  0
  6  8  2  0  0  0  0
  6 11  1  0  0  0  0
  7  9  2  0  0  0  0
  7 12  1  0  0  0  0
  8 13  1  0  0  0  0
  9 14  1  0  0  0  0
 10 15  1  0  0  0  0
 11 16  2  0  0  0  0
 12 17  2  0  0  0  0
 13 18  2  0  0  0  0
 14 19  2  0  0  0  0
 16 18  1  0  0  0  0
 17 19  1  0  0  0  0
 18 19  1  0  0  0  0
  1 20  1  0  0  0  0
  4 21  1  0  0  0  0
  4 22  1  0  0  0  0
  5 23  1  0  0  0  0
  5 24  1  0  0  0  0
  6 25  1  0  0  0  0
  7 26  1  0  0  0  0
  8 27  1  0  0  0  0
  9 28  1  0  0  0  0
 10 29  1  0  0  0  0
 10 30  1  0  0  0  0
 11 31  1  0  0  0  0
 12 32  1  0  0  0  0
 13 33  1  0  0  0  0
 14 34  1  0  0  0  0
M  END
> <pdb_id>
1TOW

> <uniprot_id>
P15090

> <usmiles>
O=C(O)CCCN1c2c(c3c1cccc3)cccc2

$$$$
CT6_A_1297
          07192421083D 1   1.00000     0.00000     0
            
 38 41  0  0  0  0            999 V2000
   -1.0794   22.3467    9.4016 Br  0  0  0  0  0  0  0  0  0  0  0  0
    1.4679   30.6725    6.9372 N   0  0  0  0  0  0  0  0  0  0  0  0
    5.1048   24.3308    4.8167 N   0  0  0  0  0  0  0  0  0  0  0  0
    3.2346   28.3664    7.0090 N   0  0  0  0  0  0  0  0  0  0  0  0
   -0.3853   28.6451    9.0615 N   0  0  0  0  0  0  0  0  0  0  0  0
    1.2280   29.5532    7.5992 N   0  0  0  0  0  0  0  0  0  0  0  0
    0.4196   31.5279    7.1719 C   0  0  0  0  0  0  0  0  0  0  0  0
    4.7013   25.5388    4.3364 C   0  0  0  0  0  0  0  0  0  0  0  0
    5.2874   24.1436    6.1677 C   0  0  0  0  0  0  0  0  0  0  0  0
    4.3393   27.5618    7.5413 C   0  0  0  0  0  0  0  0  0  0  0  0
   -0.9948   25.5310   12.1436 C   0  0  0  0  0  0  0  0  0  0  0  0
   -0.4632   30.8823    8.0218 C   0  0  0  0  0  0  0  0  0  0  0  0
    4.4632   26.6024    5.2123 C   0  0  0  0  0  0  0  0  0  0  0  0
    5.0476   25.1863    7.0625 C   0  0  0  0  0  0  0  0  0  0  0  0
   -1.1554   24.2561   11.5608 C   0  0  0  0  0  0  0  0  0  0  0  0
   -0.4940   26.5965   11.3725 C   0  0  0  0  0  0  0  0  0  0  0  0
    1.5530   27.3892    8.5004 C   0  0  0  0  0  0  0  0  0  0  0  0
   -0.3535   25.1090    9.4343 C   0  0  0  0  0  0  0  0  0  0  0  0
   -0.8251   24.0496   10.2026 C   0  0  0  0  0  0  0  0  0  0  0  0
    2.0034   28.4536    7.7141 C   0  0  0  0  0  0  0  0  0  0  0  0
    0.0890   29.6635    8.2793 C   0  0  0  0  0  0  0  0  0  0  0  0
    0.3289   27.5114    9.1778 C   0  0  0  0  0  0  0  0  0  0  0  0
    4.6281   26.4192    6.5805 C   0  0  0  0  0  0  0  0  0  0  0  0
   -0.1796   26.3890   10.0136 C   0  0  0  0  0  0  0  0  0  0  0  0
    3.3482   28.8565    6.1448 H   0  0  0  0  0  0  0  0  0  0  0  0
    0.3129   32.4490    6.7974 H   0  0  0  0  0  0  0  0  0  0  0  0
    4.5746   25.6661    3.3526 H   0  0  0  0  0  0  0  0  0  0  0  0
    5.5938   23.2553    6.5097 H   0  0  0  0  0  0  0  0  0  0  0  0
    4.0845   27.1921    8.4349 H   0  0  0  0  0  0  0  0  0  0  0  0
    5.1543   28.1333    7.6372 H   0  0  0  0  0  0  0  0  0  0  0  0
   -1.2364   25.6773   13.1028 H   0  0  0  0  0  0  0  0  0  0  0  0
   -1.3287   31.2379    8.3745 H   0  0  0  0  0  0  0  0  0  0  0  0
    4.1755   27.4914    4.8559 H   0  0  0  0  0  0  0  0  0  0  0  0
    5.1767   25.0470    8.0443 H   0  0  0  0  0  0  0  0  0  0  0  0
   -1.5039   23.4968   12.1104 H   0  0  0  0  0  0  0  0  0  0  0  0
   -0.3616   27.4970   11.7866 H   0  0  0  0  0  0  0  0  0  0  0  0
    2.0948   26.5524    8.5793 H   0  0  0  0  0  0  0  0  0  0  0  0
   -0.1363   24.9658    8.4688 H   0  0  0  0  0  0  0  0  0  0  0  0
  1 19  1  0  0  0  0
  2  6  1  0  0  0  0
  2  7  2  0  0  0  0
  3  8  2  0  0  0  0
  3  9  1  0  0  0  0
  4 10  1  0  0  0  0
  4 20  1  0  0  0  0
  5 21  1  0  0  0  0
  5 22  2  0  0  0  0
  6 20  1  0  0  0  0
  6 21  1  0  0  0  0
  7 12  1  0  0  0  0
  8 13  1  0  0  0  0
  9 14  2  0  0  0  0
 10 23  1  0  0  0  0
 11 15  2  0  0  0  0
 11 16  1  0  0  0  0
 12 21  2  0  0  0  0
 13 23  2  0  0  0  0
 14 23  1  0  0  0  0
 15 19  1  0  0  0  0
 16 24  2  0  0  0  0
 17 20  2  0  0  0  0
 17 22  1  0  0  0  0
 18 19  2  0  0  0  0
 18 24  1  0  0  0  0
 22 24  1  0  0  0  0
  4 25  1  0  0  0  0
  7 26  1  0  0  0  0
  8 27  1  0  0  0  0
  9 28  1  0  0  0  0
 10 29  1  0  0  0  0
 10 30  1  0  0  0  0
 11 31  1  0  0  0  0
 12 32  1  0  0  0  0
 13 33  1  0  0  0  0
 14 34  1  0  0  0  0
 15 35  1  0  0  0  0
 16 36  1  0  0  0  0
 17 37  1  0  0  0  0
 18 38  1  0  0  0  0
M  END
> <pdb_id>
2C68

> <uniprot_id>
P24941

> <usmiles>
Brc1cc(ccc1)C2=NC=3N(N=CC3)C(NCc4ccncc4)=C2

$$$$
CT7_A_401
          07192421083D 1   1.00000     0.00000     0
            
 32 34  0  0  0  0            999 V2000
   -0.8046   26.0642    9.3643 Cl  0  0  0  0  0  0  0  0  0  0  0  0
    6.9660   23.8676    7.5056 S   0  0  0  0  0  0  0  0  0  0  0  0
    7.5312   23.4457    6.2066 O   0  0  0  0  0  0  0  0  0  0  0  0
    8.0115   24.4325    8.3246 O   0  0  0  0  0  0  0  0  0  0  0  0
    1.5713   30.4772    6.8767 N   0  0  0  0  0  0  0  0  0  0  0  0
   -0.5956   28.4684    8.7247 N   0  0  0  0  0  0  0  0  0  0  0  0
    2.9086   27.9818    6.6437 N   0  0  0  0  0  0  0  0  0  0  0  0
    1.1607   29.3345    7.3780 N   0  0  0  0  0  0  0  0  0  0  0  0
    6.3348   22.3074    8.1491 C   0  0  0  0  0  0  0  0  0  0  0  0
    0.6638   31.4464    7.2285 C   0  0  0  0  0  0  0  0  0  0  0  0
   -0.3556   30.8345    7.9688 C   0  0  0  0  0  0  0  0  0  0  0  0
    5.5935   25.5985    5.9429 C   0  0  0  0  0  0  0  0  0  0  0  0
    4.9944   25.4917    8.3566 C   0  0  0  0  0  0  0  0  0  0  0  0
    4.6240   26.5593    5.7312 C   0  0  0  0  0  0  0  0  0  0  0  0
    4.0286   26.4494    8.1311 C   0  0  0  0  0  0  0  0  0  0  0  0
    1.1110   27.0238    7.9312 C   0  0  0  0  0  0  0  0  0  0  0  0
   -0.0838   27.2288    8.6350 C   0  0  0  0  0  0  0  0  0  0  0  0
    5.7324   25.0611    7.2389 C   0  0  0  0  0  0  0  0  0  0  0  0
    0.0071   29.5067    8.0509 C   0  0  0  0  0  0  0  0  0  0  0  0
    1.7546   28.1162    7.3379 C   0  0  0  0  0  0  0  0  0  0  0  0
    3.8342   26.9854    6.8436 C   0  0  0  0  0  0  0  0  0  0  0  0
    3.1023   28.6577    5.9326 H   0  0  0  0  0  0  0  0  0  0  0  0
    5.9177   22.4607    9.0449 H   0  0  0  0  0  0  0  0  0  0  0  0
    5.6491   21.9406    7.5204 H   0  0  0  0  0  0  0  0  0  0  0  0
    7.0874   21.6551    8.2391 H   0  0  0  0  0  0  0  0  0  0  0  0
    0.7209   32.4175    6.9970 H   0  0  0  0  0  0  0  0  0  0  0  0
   -1.1705   31.2671    8.3544 H   0  0  0  0  0  0  0  0  0  0  0  0
    6.1824   25.2915    5.1952 H   0  0  0  0  0  0  0  0  0  0  0  0
    5.1623   25.1213    9.2701 H   0  0  0  0  0  0  0  0  0  0  0  0
    4.4782   26.9475    4.8213 H   0  0  0  0  0  0  0  0  0  0  0  0
    3.4600   26.7667    8.8901 H   0  0  0  0  0  0  0  0  0  0  0  0
    1.4999   26.1058    7.8536 H   0  0  0  0  0  0  0  0  0  0  0  0
  1 17  1  0  0  0  0
  2  3  2  0  0  0  0
  2  4  2  0  0  0  0
  2  9  1  0  0  0  0
  2 18  1  0  0  0  0
  5  8  1  0  0  0  0
  5 10  2  0  0  0  0
  6 17  2  0  0  0  0
  6 19  1  0  0  0  0
  7 20  1  0  0  0  0
  7 21  1  0  0  0  0
  8 19  1  0  0  0  0
  8 20  1  0  0  0  0
 10 11  1  0  0  0  0
 11 19  2  0  0  0  0
 12 14  1  0  0  0  0
 12 18  2  0  0  0  0
 13 15  2  0  0  0  0
 13 18  1  0  0  0  0
 14 21  2  0  0  0  0
 15 21  1  0  0  0  0
 16 17  1  0  0  0  0
 16 20  2  0  0  0  0
  7 22  1  0  0  0  0
  9 23  1  0  0  0  0
  9 24  1  0  0  0  0
  9 25  1  0  0  0  0
 10 26  1  0  0  0  0
 11 27  1  0  0  0  0
 12 28  1  0  0  0  0
 13 29  1  0  0  0  0
 14 30  1  0  0  0  0
 15 31  1  0  0  0  0
 16 32  1  0  0  0  0
M  END
> <pdb_id>
1Y8Y

> <uniprot_id>
P24941

> <usmiles>
ClC1=NC=2N(N=CC2)C(Nc3ccc(S(=O)(=O)C)cc3)=C1

$$$$
CTP_A_301
          07212402383D 1   1.00000     0.00000     0
            
 45 46  0  0  0  0            999 V2000
   -3.9720  -33.4420   21.1090 P   0  0  0  0  0  0  0  0  0  0  0  0
   -6.7500  -32.8570   21.7090 P   0  0  0  0  0  0  0  0  0  0  0  0
   -8.8550  -34.8320   22.0550 P   0  0  0  0  0  0  0  0  0  0  0  0
   -4.4040  -33.4480   19.6420 O   0  0  0  0  0  0  0  0  0  0  0  0
   -3.0150  -32.2800   21.3740 O   0  0  0  0  0  0  0  0  0  0  0  0
   -3.3140  -34.7560   21.4490 O   0  0  0  0  0  0  0  0  0  0  0  0
   -7.0240  -33.1500   20.2510 O   0  0  0  0  0  0  0  0  0  0  0  0
   -6.8060  -31.3760   22.0170 O   0  0  0  0  0  0  0  0  0  0  0  0
   -9.8110  -34.3860   20.9760 O   0  0  0  0  0  0  0  0  0  0  0  0
   -7.9720  -35.9450   21.5440 O   0  0  0  0  0  0  0  0  0  0  0  0
  -14.5940  -38.5430   24.4080 O   0  0  0  0  0  0  0  0  0  0  0  0
  -11.7370  -39.2170   22.7030 O   0  0  0  0  0  0  0  0  0  0  0  0
   -9.7670  -39.5620   24.1220 O   0  0  0  0  0  0  0  0  0  0  0  0
   -5.2610  -33.3650   22.1390 O   0  0  0  0  0  0  0  0  0  0  0  0
   -7.9150  -33.5960   22.6060 O   0  0  0  0  0  0  0  0  0  0  0  0
   -9.7390  -35.2820   23.4060 O   0  0  0  0  0  0  0  0  0  0  0  0
  -10.7950  -36.9150   25.4670 O   0  0  0  0  0  0  0  0  0  0  0  0
  -16.5390  -34.2060   24.0800 N   0  0  0  0  0  0  0  0  0  0  0  0
  -15.5190  -36.4620   24.2580 N   0  0  0  0  0  0  0  0  0  0  0  0
  -12.9730  -36.8420   24.4450 N   0  0  0  0  0  0  0  0  0  0  0  0
   -9.0300  -35.8440   24.4790 C   0  0  0  0  0  0  0  0  0  0  0  0
  -12.8020  -35.3980   24.4110 C   0  0  0  0  0  0  0  0  0  0  0  0
  -13.9740  -34.4790   24.2850 C   0  0  0  0  0  0  0  0  0  0  0  0
  -14.3660  -37.3850   24.3780 C   0  0  0  0  0  0  0  0  0  0  0  0
  -11.1620  -37.9900   23.2890 C   0  0  2  0  0  0  0  0  0  0  0  0
   -9.9060  -38.2000   23.6710 C   0  0  1  0  0  0  0  0  0  0  0  0
  -11.9010  -37.6500   24.5900 C   0  0  1  0  0  0  0  0  0  0  0  0
  -15.3490  -35.0470   24.2150 C   0  0  0  0  0  0  0  0  0  0  0  0
   -9.6370  -37.1620   24.9170 C   0  0  2  0  0  0  0  0  0  0  0  0
   -5.0291  -34.2119   19.4817 H   0  0  0  0  0  0  0  0  0  0  0  0
   -2.7402  -32.2871   22.3355 H   0  0  0  0  0  0  0  0  0  0  0  0
   -6.9767  -34.1366   20.0947 H   0  0  0  0  0  0  0  0  0  0  0  0
  -10.3894  -33.6495   21.3267 H   0  0  0  0  0  0  0  0  0  0  0  0
  -12.6804  -39.0416   22.4216 H   0  0  0  0  0  0  0  0  0  0  0  0
   -8.8230  -39.7230   24.4101 H   0  0  0  0  0  0  0  0  0  0  0  0
  -16.4468  -33.2108   24.0474 H   0  0  0  0  0  0  0  0  0  0  0  0
  -17.4443  -34.6265   24.0203 H   0  0  0  0  0  0  0  0  0  0  0  0
   -9.0473  -35.2065   25.2492 H   0  0  0  0  0  0  0  0  0  0  0  0
   -8.0835  -36.0001   24.1967 H   0  0  0  0  0  0  0  0  0  0  0  0
  -11.8815  -35.0122   24.4732 H   0  0  0  0  0  0  0  0  0  0  0  0
  -13.8358  -33.4893   24.2479 H   0  0  0  0  0  0  0  0  0  0  0  0
  -11.2139  -37.2294   22.6419 H   0  0  0  0  0  0  0  0  0  0  0  0
   -9.2750  -38.0142   22.9178 H   0  0  0  0  0  0  0  0  0  0  0  0
  -12.1800  -38.4954   25.0455 H   0  0  0  0  0  0  0  0  0  0  0  0
   -9.0368  -37.5972   25.5881 H   0  0  0  0  0  0  0  0  0  0  0  0
  1  4  1  0  0  0  0
  1  5  1  0  0  0  0
  1  6  2  0  0  0  0
  1 14  1  0  0  0  0
  2  7  1  0  0  0  0
  2  8  2  0  0  0  0
  2 14  1  0  0  0  0
  2 15  1  0  0  0  0
  3  9  1  0  0  0  0
  3 10  2  0  0  0  0
  3 15  1  0  0  0  0
  3 16  1  0  0  0  0
 11 24  2  0  0  0  0
 12 25  1  0  0  0  0
 13 26  1  0  0  0  0
 16 21  1  0  0  0  0
 17 27  1  0  0  0  0
 17 29  1  0  0  0  0
 18 28  1  0  0  0  0
 19 24  1  0  0  0  0
 19 28  2  0  0  0  0
 20 22  1  0  0  0  0
 20 24  1  0  0  0  0
 20 27  1  0  0  0  0
 21 29  1  0  0  0  0
 22 23  2  0  0  0  0
 23 28  1  0  0  0  0
 25 26  1  0  0  0  0
 25 27  1  0  0  0  0
 26 29  1  0  0  0  0
  4 30  1  0  0  0  0
  5 31  1  0  0  0  0
  7 32  1  0  0  0  0
  9 33  1  0  0  0  0
 12 34  1  0  0  0  0
 13 35  1  0  0  0  0
 18 36  1  0  0  0  0
 18 37  1  0  0  0  0
 21 38  1  0  0  0  0
 21 39  1  0  0  0  0
 22 40  1  0  0  0  0
 23 41  1  0  0  0  0
 25 42  1  0  0  0  0
 26 43  1  0  0  0  0
 27 44  1  0  0  0  0
 29 45  1  0  0  0  0
M  END
> <pdb_id>
6CVE

> <uniprot_id>
P9WPQ5

> <usmiles>
P(=O)(OP(=O)(OC[C@H]1O[C@@H](N2C(=O)N=C(N)C=C2)[C@H](O)[C@@H]1O)O)(OP(=O)(O)O)O

$$$$
CU8_A_916
          07192416553D 1   1.00000     0.00000     0
            
 31 33  0  0  0  0            999 V2000
  -14.7926   19.7352  -38.9148 O   0  0  0  0  0  0  0  0  0  0  0  0
  -14.5981   21.7015  -38.1076 N   0  0  0  0  0  0  0  0  0  0  0  0
  -12.1980   18.6353  -35.8341 N   0  0  0  0  0  0  0  0  0  0  0  0
  -13.3744   21.9222  -35.5760 N   0  0  0  0  0  0  0  0  0  0  0  0
  -12.3379   19.8693  -35.2744 N   0  0  0  0  0  0  0  0  0  0  0  0
  -10.2156   18.2260  -29.8898 C   0  0  0  0  0  0  0  0  0  0  0  0
  -12.8497   22.4164  -34.4799 C   0  0  0  0  0  0  0  0  0  0  0  0
  -12.9097   18.6258  -36.9452 C   0  0  0  0  0  0  0  0  0  0  0  0
   -9.0343   17.9250  -33.3792 C   0  0  0  0  0  0  0  0  0  0  0  0
  -12.0342   21.5826  -33.7479 C   0  0  0  0  0  0  0  0  0  0  0  0
   -9.1518   17.7685  -32.0383 C   0  0  0  0  0  0  0  0  0  0  0  0
   -9.8980   18.7609  -34.0274 C   0  0  0  0  0  0  0  0  0  0  0  0
  -11.0067   19.2590  -32.0118 C   0  0  0  0  0  0  0  0  0  0  0  0
  -14.3542   20.4361  -38.0847 C   0  0  0  0  0  0  0  0  0  0  0  0
  -13.0820   20.6741  -35.9289 C   0  0  0  0  0  0  0  0  0  0  0  0
  -11.7884   20.2953  -34.1561 C   0  0  0  0  0  0  0  0  0  0  0  0
  -10.1269   18.4269  -31.3586 C   0  0  0  0  0  0  0  0  0  0  0  0
  -10.9016   19.4212  -33.3704 C   0  0  0  0  0  0  0  0  0  0  0  0
  -13.4825   19.8572  -37.0644 C   0  0  0  0  0  0  0  0  0  0  0  0
  -14.2219   22.2961  -37.3970 H   0  0  0  0  0  0  0  0  0  0  0  0
  -15.1636   22.0887  -38.8358 H   0  0  0  0  0  0  0  0  0  0  0  0
  -10.9729   18.7674  -29.5245 H   0  0  0  0  0  0  0  0  0  0  0  0
  -10.3733   17.2580  -29.6946 H   0  0  0  0  0  0  0  0  0  0  0  0
   -9.3604   18.5174  -29.4613 H   0  0  0  0  0  0  0  0  0  0  0  0
  -13.0334   23.3554  -34.1893 H   0  0  0  0  0  0  0  0  0  0  0  0
  -13.0101   17.8598  -37.5802 H   0  0  0  0  0  0  0  0  0  0  0  0
   -8.3254   17.4353  -33.8867 H   0  0  0  0  0  0  0  0  0  0  0  0
  -11.6144   21.9203  -32.9054 H   0  0  0  0  0  0  0  0  0  0  0  0
   -8.5200   17.1679  -31.5484 H   0  0  0  0  0  0  0  0  0  0  0  0
   -9.7942   18.8951  -35.0129 H   0  0  0  0  0  0  0  0  0  0  0  0
  -11.7175   19.7419  -31.5003 H   0  0  0  0  0  0  0  0  0  0  0  0
  1 14  2  0  0  0  0
  2 14  1  0  0  0  0
  3  5  1  0  0  0  0
  3  8  2  0  0  0  0
  4  7  2  0  0  0  0
  4 15  1  0  0  0  0
  5 15  1  0  0  0  0
  5 16  1  0  0  0  0
  6 17  1  0  0  0  0
  7 10  1  0  0  0  0
  8 19  1  0  0  0  0
  9 11  1  0  0  0  0
  9 12  2  0  0  0  0
 10 16  2  0  0  0  0
 11 17  2  0  0  0  0
 12 18  1  0  0  0  0
 13 17  1  0  0  0  0
 13 18  2  0  0  0  0
 14 19  1  0  0  0  0
 15 19  2  0  0  0  0
 16 18  1  0  0  0  0
  2 20  1  0  0  0  0
  2 21  1  0  0  0  0
  6 22  1  0  0  0  0
  6 23  1  0  0  0  0
  6 24  1  0  0  0  0
  7 25  1  0  0  0  0
  8 26  1  0  0  0  0
  9 27  1  0  0  0  0
 10 28  1  0  0  0  0
 11 29  1  0  0  0  0
 12 30  1  0  0  0  0
 13 31  1  0  0  0  0
M  END
> <pdb_id>
5WYX

> <uniprot_id>
Q9NR97

> <usmiles>
O=C(N)C1=C2N=CC=C(N2N=C1)c3cc(ccc3)C

$$$$
CUE_A_401
          07202401373D 1   1.00000     0.00000     0
            
 28 31  0  0  0  0            999 V2000
   22.3928  -30.6877   16.4847 O   0  0  0  0  0  0  0  0  0  0  0  0
   22.5863  -37.4211   14.1514 O   0  0  0  0  0  0  0  0  0  0  0  0
   23.1223  -26.1760   11.1816 O   0  0  0  0  0  0  0  0  0  0  0  0
   22.4513  -32.7931   15.7983 O   0  0  0  0  0  0  0  0  0  0  0  0
   22.9508  -31.0706   12.0157 O   0  0  0  0  0  0  0  0  0  0  0  0
   22.8138  -35.5569   12.5726 C   0  0  0  0  0  0  0  0  0  0  0  0
   22.8319  -27.1392   13.4073 C   0  0  0  0  0  0  0  0  0  0  0  0
   22.8668  -34.1709   12.3159 C   0  0  0  0  0  0  0  0  0  0  0  0
   22.7123  -28.2566   14.2341 C   0  0  0  0  0  0  0  0  0  0  0  0
   22.5158  -35.1196   14.9751 C   0  0  0  0  0  0  0  0  0  0  0  0
   23.0529  -28.5850   11.4729 C   0  0  0  0  0  0  0  0  0  0  0  0
   22.5003  -31.4493   15.5487 C   0  0  0  0  0  0  0  0  0  0  0  0
   22.6403  -36.0314   13.9067 C   0  0  0  0  0  0  0  0  0  0  0  0
   23.0017  -27.3048   12.0222 C   0  0  0  0  0  0  0  0  0  0  0  0
   22.5698  -33.7296   14.7184 C   0  0  0  0  0  0  0  0  0  0  0  0
   22.9323  -29.7187   12.3124 C   0  0  0  0  0  0  0  0  0  0  0  0
   22.7953  -31.8118   13.1579 C   0  0  0  0  0  0  0  0  0  0  0  0
   22.7453  -33.2581   13.3813 C   0  0  0  0  0  0  0  0  0  0  0  0
   22.7635  -29.5607   13.6763 C   0  0  0  0  0  0  0  0  0  0  0  0
   22.6758  -30.9390   14.2194 C   0  0  0  0  0  0  0  0  0  0  0  0
   22.4648  -37.7602   15.0843 H   0  0  0  0  0  0  0  0  0  0  0  0
   23.2431  -26.2970   10.1963 H   0  0  0  0  0  0  0  0  0  0  0  0
   22.8979  -36.2079   11.8183 H   0  0  0  0  0  0  0  0  0  0  0  0
   22.7969  -26.2203   13.8004 H   0  0  0  0  0  0  0  0  0  0  0  0
   22.9901  -33.8379   11.3811 H   0  0  0  0  0  0  0  0  0  0  0  0
   22.5906  -28.1387   15.2196 H   0  0  0  0  0  0  0  0  0  0  0  0
   22.3900  -35.4538   15.9092 H   0  0  0  0  0  0  0  0  0  0  0  0
   23.1746  -28.7025   10.4873 H   0  0  0  0  0  0  0  0  0  0  0  0
  1 12  2  0  0  0  0
  2 13  1  0  0  0  0
  3 14  1  0  0  0  0
  4 12  1  0  0  0  0
  4 15  1  0  0  0  0
  5 16  1  0  0  0  0
  5 17  1  0  0  0  0
  6  8  1  0  0  0  0
  6 13  2  0  0  0  0
  7  9  1  0  0  0  0
  7 14  2  0  0  0  0
  8 18  2  0  0  0  0
  9 19  2  0  0  0  0
 10 13  1  0  0  0  0
 10 15  2  0  0  0  0
 11 14  1  0  0  0  0
 11 16  2  0  0  0  0
 12 20  1  0  0  0  0
 15 18  1  0  0  0  0
 16 19  1  0  0  0  0
 17 18  1  0  0  0  0
 17 20  2  0  0  0  0
 19 20  1  0  0  0  0
  2 21  1  0  0  0  0
  3 22  1  0  0  0  0
  6 23  1  0  0  0  0
  7 24  1  0  0  0  0
  8 25  1  0  0  0  0
  9 26  1  0  0  0  0
 10 27  1  0  0  0  0
 11 28  1  0  0  0  0
M  END
> <pdb_id>
6HNW

> <uniprot_id>
P68400

> <usmiles>
O=C1Oc2c(ccc(O)c2)C=3Oc4c(ccc(O)c4)C13

$$$$
CUH_A_300
          07212403093D 1   1.00000     0.00000     0
            
 27 28  0  0  0  0            999 V2000
   -9.5580  -13.6710   32.8360 O   0  0  0  0  0  0  0  0  0  0  0  0
   -6.8220   -9.8520   28.6970 O   0  0  0  0  0  0  0  0  0  0  0  0
   -5.7100  -11.5800   30.5160 O   0  0  0  0  0  0  0  0  0  0  0  0
   -7.3080  -13.0020   32.2150 O   0  0  0  0  0  0  0  0  0  0  0  0
  -14.3030  -12.2040   32.3910 C   0  0  0  0  0  0  0  0  0  0  0  0
  -13.7760  -13.4260   32.0290 C   0  0  0  0  0  0  0  0  0  0  0  0
  -13.4630  -11.1510   32.6900 C   0  0  0  0  0  0  0  0  0  0  0  0
  -12.4090  -13.6090   31.9680 C   0  0  0  0  0  0  0  0  0  0  0  0
  -12.0970  -11.3130   32.6150 C   0  0  0  0  0  0  0  0  0  0  0  0
   -9.0580  -10.4030   29.4440 C   0  0  0  0  0  0  0  0  0  0  0  0
   -9.8650  -11.1390   30.2940 C   0  0  0  0  0  0  0  0  0  0  0  0
   -7.6780  -10.5680   29.5200 C   0  0  0  0  0  0  0  0  0  0  0  0
  -11.5750  -12.5630   32.2840 C   0  0  0  0  0  0  0  0  0  0  0  0
  -10.0860  -12.8220   32.1910 C   0  0  0  0  0  0  0  0  0  0  0  0
   -7.1040  -11.4210   30.4410 C   0  0  0  0  0  0  0  0  0  0  0  0
   -7.9040  -12.1440   31.2940 C   0  0  0  0  0  0  0  0  0  0  0  0
   -9.2750  -11.9990   31.2240 C   0  0  0  0  0  0  0  0  0  0  0  0
   -6.0320  -10.1560   28.7770 H   0  0  0  0  0  0  0  0  0  0  0  0
   -5.5170  -12.0710   31.1830 H   0  0  0  0  0  0  0  0  0  0  0  0
   -7.3300  -12.6480   32.9880 H   0  0  0  0  0  0  0  0  0  0  0  0
  -15.2250  -12.0870   32.4240 H   0  0  0  0  0  0  0  0  0  0  0  0
  -14.3460  -14.1350   31.8330 H   0  0  0  0  0  0  0  0  0  0  0  0
  -13.8200  -10.3250   32.9230 H   0  0  0  0  0  0  0  0  0  0  0  0
  -12.0560  -14.4370   31.7350 H   0  0  0  0  0  0  0  0  0  0  0  0
  -11.5290  -10.6090   32.8300 H   0  0  0  0  0  0  0  0  0  0  0  0
   -9.4320   -9.8250   28.8200 H   0  0  0  0  0  0  0  0  0  0  0  0
  -10.7890  -11.0450   30.2620 H   0  0  0  0  0  0  0  0  0  0  0  0
  1 14  2  0  0  0  0
  2 12  1  0  0  0  0
  2 18  1  0  0  0  0
  3 15  1  0  0  0  0
  3 19  1  0  0  0  0
  4 16  1  0  0  0  0
  4 20  1  0  0  0  0
  5  6  2  0  0  0  0
  5  7  1  0  0  0  0
  5 21  1  0  0  0  0
  6  8  1  0  0  0  0
  6 22  1  0  0  0  0
  7  9  2  0  0  0  0
  7 23  1  0  0  0  0
  8 13  2  0  0  0  0
  8 24  1  0  0  0  0
  9 13  1  0  0  0  0
  9 25  1  0  0  0  0
 10 11  1  0  0  0  0
 10 12  2  0  0  0  0
 10 26  1  0  0  0  0
 11 17  2  0  0  0  0
 11 27  1  0  0  0  0
 12 15  1  0  0  0  0
 13 14  1  0  0  0  0
 14 17  1  0  0  0  0
 15 16  2  0  0  0  0
 16 17  1  0  0  0  0
M  END
> <pdb_id>
6F69

> <uniprot_id>
nan

> <usmiles>
O=C(c1c(O)c(O)c(O)cc1)c2ccccc2

$$$$
CUT_A_300
          07212403093D 1   1.00000     0.00000     0
            
 26 27  0  0  0  0            999 V2000
   -9.5736  -13.7567   32.9263 O   0  0  0  0  0  0  0  0  0  0  0  0
   -6.9859   -9.8501   28.6447 O   0  0  0  0  0  0  0  0  0  0  0  0
   -7.3291  -13.2048   32.1509 O   0  0  0  0  0  0  0  0  0  0  0  0
  -14.2986  -12.0408   32.1579 C   0  0  0  0  0  0  0  0  0  0  0  0
  -13.4182  -11.1564   32.7586 C   0  0  0  0  0  0  0  0  0  0  0  0
  -13.8121  -13.1648   31.5626 C   0  0  0  0  0  0  0  0  0  0  0  0
   -9.1566  -10.4664   29.5360 C   0  0  0  0  0  0  0  0  0  0  0  0
  -12.0664  -11.4521   32.7967 C   0  0  0  0  0  0  0  0  0  0  0  0
  -12.4673  -13.4545   31.5967 C   0  0  0  0  0  0  0  0  0  0  0  0
   -9.9054  -11.2094   30.4270 C   0  0  0  0  0  0  0  0  0  0  0  0
   -7.1485  -11.5194   30.3664 C   0  0  0  0  0  0  0  0  0  0  0  0
   -7.7697  -10.6140   29.5307 C   0  0  0  0  0  0  0  0  0  0  0  0
   -7.8962  -12.2863   31.2504 C   0  0  0  0  0  0  0  0  0  0  0  0
  -11.5840  -12.6273   32.2472 C   0  0  0  0  0  0  0  0  0  0  0  0
  -10.0941  -12.9319   32.2425 C   0  0  0  0  0  0  0  0  0  0  0  0
   -9.2662  -12.1068   31.2798 C   0  0  0  0  0  0  0  0  0  0  0  0
   -6.8711   -9.0723   28.9677 H   0  0  0  0  0  0  0  0  0  0  0  0
   -6.5927  -13.4900   31.8381 H   0  0  0  0  0  0  0  0  0  0  0  0
  -15.2074  -11.8443   32.1182 H   0  0  0  0  0  0  0  0  0  0  0  0
  -13.7385  -10.3827   33.1649 H   0  0  0  0  0  0  0  0  0  0  0  0
  -14.3997  -13.7571   31.1505 H   0  0  0  0  0  0  0  0  0  0  0  0
   -9.5675   -9.8502   28.9735 H   0  0  0  0  0  0  0  0  0  0  0  0
  -11.4798  -10.8699   33.2218 H   0  0  0  0  0  0  0  0  0  0  0  0
  -12.1570  -14.2403   31.2073 H   0  0  0  0  0  0  0  0  0  0  0  0
  -10.8304  -11.1171   30.4529 H   0  0  0  0  0  0  0  0  0  0  0  0
   -6.2225  -11.6087   30.3455 H   0  0  0  0  0  0  0  0  0  0  0  0
  1 15  2  0  0  0  0
  2 12  1  0  0  0  0
  2 17  1  0  0  0  0
  3 13  1  0  0  0  0
  3 18  1  0  0  0  0
  4  5  2  0  0  0  0
  4  6  1  0  0  0  0
  4 19  1  0  0  0  0
  5  8  1  0  0  0  0
  5 20  1  0  0  0  0
  6  9  2  0  0  0  0
  6 21  1  0  0  0  0
  7 10  1  0  0  0  0
  7 12  2  0  0  0  0
  7 22  1  0  0  0  0
  8 14  2  0  0  0  0
  8 23  1  0  0  0  0
  9 14  1  0  0  0  0
  9 24  1  0  0  0  0
 10 16  2  0  0  0  0
 10 25  1  0  0  0  0
 11 12  1  0  0  0  0
 11 13  2  0  0  0  0
 11 26  1  0  0  0  0
 13 16  1  0  0  0  0
 14 15  1  0  0  0  0
 15 16  1  0  0  0  0
M  END
> <pdb_id>
6F66

> <uniprot_id>
nan

> <usmiles>
O=C(c1c(O)cc(O)cc1)c2ccccc2

$$$$
CV7_A_1782
          07202405093D 1   1.00000     0.00000     0
            
 72 77  0  0  0  0            999 V2000
   32.6570   22.9010   16.9600 O   0  0  0  0  0  0  0  0  0  0  0  0
   37.3090   20.9500    5.8470 O   0  0  0  0  0  0  0  0  0  0  0  0
   32.9560   21.6660   11.0050 O   0  0  0  0  0  0  0  0  0  0  0  0
   33.2200   20.3030   16.5450 O   0  0  0  0  0  0  0  0  0  0  0  0
   36.8830   19.2350   15.5700 O   0  0  0  0  0  0  0  0  0  0  0  0
   36.1810   21.3390   15.0310 O   0  0  0  0  0  0  0  0  0  0  0  0
   33.3900   19.7910    8.7220 C   0  0  0  0  0  0  0  0  0  0  0  0
   32.9180   20.0630   13.5090 C   0  0  0  0  0  0  0  0  0  0  0  0
   33.8690   22.5590   16.2680 C   0  0  0  0  0  0  0  0  0  0  0  0
   40.7790   22.7280   14.8430 C   0  0  0  0  0  0  0  0  0  0  0  0
   40.6590   21.2240   14.5510 C   0  0  0  0  0  0  0  0  0  0  0  0
   40.0900   23.0640   16.1810 C   0  0  0  0  0  0  0  0  0  0  0  0
   35.7110   21.8490    7.2800 C   0  0  0  0  0  0  0  0  0  0  0  0
   39.1620   20.8490   14.4500 C   0  0  0  0  0  0  0  0  0  0  0  0
   38.6130   22.6110   16.1630 C   0  0  0  0  0  0  0  0  0  0  0  0
   35.8750   17.9290    9.2790 C   0  0  0  0  0  0  0  0  0  0  0  0
   36.0560   18.1350   10.7930 C   0  0  0  0  0  0  0  0  0  0  0  0
   34.9070   21.6400    8.3140 C   0  0  0  0  0  0  0  0  0  0  0  0
   36.5940   19.4650    7.5060 C   0  0  0  0  0  0  0  0  0  0  0  0
   35.3880   18.3020   13.9230 C   0  0  0  0  0  0  0  0  0  0  0  0
   34.6230   21.8170   12.7630 C   0  0  0  0  0  0  0  0  0  0  0  0
   36.5890   20.7610    6.7990 C   0  0  0  0  0  0  0  0  0  0  0  0
   37.0590   20.6270   15.9250 C   0  0  2  0  0  0  0  0  0  0  0  0
   34.3670   21.6730   11.2480 C   0  0  1  0  0  0  0  0  0  0  0  0
   33.9550   21.0730   15.9800 C   0  0  0  0  0  0  0  0  0  0  0  0
   35.4800   19.0850   15.2710 C   0  0  2  0  0  0  0  0  0  0  0  0
   38.5090   21.1140   15.8140 C   0  0  0  0  0  0  0  0  0  0  0  0
   35.7930   19.2770    8.5540 C   0  0  0  0  0  0  0  0  0  0  0  0
   35.0390   19.1550   11.3670 C   0  0  1  0  0  0  0  0  0  0  0  0
   35.3690   19.4350   12.8710 C   0  0  1  0  0  0  0  0  0  0  0  0
   35.1590   20.5090   10.5710 C   0  0  1  0  0  0  0  0  0  0  0  0
   34.8190   20.3130    9.0530 C   0  0  2  0  0  0  0  0  0  0  0  0
   34.9660   20.5390   14.9750 C   0  0  2  0  0  0  0  0  0  0  0  0
   34.4180   20.4950   13.5290 C   0  0  2  0  0  0  0  0  0  0  0  0
   32.6375   23.8860   17.1312 H   0  0  0  0  0  0  0  0  0  0  0  0
   32.7872   21.5728   10.0238 H   0  0  0  0  0  0  0  0  0  0  0  0
   33.2439   18.9106    9.1732 H   0  0  0  0  0  0  0  0  0  0  0  0
   32.7110   20.4491    9.0475 H   0  0  0  0  0  0  0  0  0  0  0  0
   33.2972   19.6780    7.7327 H   0  0  0  0  0  0  0  0  0  0  0  0
   32.8115   19.2049   14.0112 H   0  0  0  0  0  0  0  0  0  0  0  0
   32.3609   20.7728   13.9400 H   0  0  0  0  0  0  0  0  0  0  0  0
   32.6207   19.9346   12.5629 H   0  0  0  0  0  0  0  0  0  0  0  0
   34.6500   22.8246   16.8332 H   0  0  0  0  0  0  0  0  0  0  0  0
   33.8990   23.0585   15.4022 H   0  0  0  0  0  0  0  0  0  0  0  0
   40.3412   23.2439   14.1067 H   0  0  0  0  0  0  0  0  0  0  0  0
   41.7456   22.9785   14.8965 H   0  0  0  0  0  0  0  0  0  0  0  0
   41.0859   20.7037   15.2906 H   0  0  0  0  0  0  0  0  0  0  0  0
   41.1167   21.0125   13.6874 H   0  0  0  0  0  0  0  0  0  0  0  0
   40.1286   24.0519   16.3312 H   0  0  0  0  0  0  0  0  0  0  0  0
   40.5683   22.5950   16.9235 H   0  0  0  0  0  0  0  0  0  0  0  0
   35.7233   22.7403    6.8268 H   0  0  0  0  0  0  0  0  0  0  0  0
   39.0704   19.8819   14.2128 H   0  0  0  0  0  0  0  0  0  0  0  0
   38.7195   21.4076   13.7484 H   0  0  0  0  0  0  0  0  0  0  0  0
   38.1143   23.1433   15.4789 H   0  0  0  0  0  0  0  0  0  0  0  0
   38.2105   22.7669   17.0650 H   0  0  0  0  0  0  0  0  0  0  0  0
   35.0317   17.4169    9.1160 H   0  0  0  0  0  0  0  0  0  0  0  0
   36.6532   17.4117    8.9229 H   0  0  0  0  0  0  0  0  0  0  0  0
   36.9820   18.4712   10.9645 H   0  0  0  0  0  0  0  0  0  0  0  0
   35.9290   17.2575   11.2555 H   0  0  0  0  0  0  0  0  0  0  0  0
   34.3283   22.3942    8.6241 H   0  0  0  0  0  0  0  0  0  0  0  0
   37.1977   18.7293    7.1988 H   0  0  0  0  0  0  0  0  0  0  0  0
   34.5514   17.7560   13.8797 H   0  0  0  0  0  0  0  0  0  0  0  0
   36.1815   17.7066   13.7972 H   0  0  0  0  0  0  0  0  0  0  0  0
   33.9926   22.5008   13.1305 H   0  0  0  0  0  0  0  0  0  0  0  0
   35.5648   22.1238   12.9006 H   0  0  0  0  0  0  0  0  0  0  0  0
   36.7435   20.7632   16.8641 H   0  0  0  0  0  0  0  0  0  0  0  0
   34.7111   22.5148   10.8322 H   0  0  0  0  0  0  0  0  0  0  0  0
   34.9739   18.6405   16.0101 H   0  0  0  0  0  0  0  0  0  0  0  0
   39.0410   20.6143   16.4976 H   0  0  0  0  0  0  0  0  0  0  0  0
   34.1105   18.7929   11.2842 H   0  0  0  0  0  0  0  0  0  0  0  0
   36.2837   19.8389   12.8829 H   0  0  0  0  0  0  0  0  0  0  0  0
   36.1237   20.7697   10.6089 H   0  0  0  0  0  0  0  0  0  0  0  0
  1  9  1  0  0  0  0
  2 22  2  0  0  0  0
  3 24  1  0  0  0  0
  4 25  2  0  0  0  0
  5 23  1  0  0  0  0
  5 26  1  0  0  0  0
  6 23  1  0  0  0  0
  6 33  1  0  0  0  0
  7 32  1  0  0  0  0
  8 34  1  0  0  0  0
  9 25  1  0  0  0  0
 10 11  1  0  0  0  0
 10 12  1  0  0  0  0
 11 14  1  0  0  0  0
 12 15  1  0  0  0  0
 13 18  2  0  0  0  0
 13 22  1  0  0  0  0
 14 27  1  0  0  0  0
 15 27  1  0  0  0  0
 16 17  1  0  0  0  0
 16 28  1  0  0  0  0
 17 29  1  0  0  0  0
 18 32  1  0  0  0  0
 19 22  1  0  0  0  0
 19 28  2  0  0  0  0
 20 26  1  0  0  0  0
 20 30  1  0  0  0  0
 21 24  1  0  0  0  0
 21 34  1  0  0  0  0
 23 27  1  0  0  0  0
 24 31  1  0  0  0  0
 25 33  1  0  0  0  0
 26 33  1  0  0  0  0
 28 32  1  0  0  0  0
 29 30  1  0  0  0  0
 29 31  1  0  0  0  0
 30 34  1  0  0  0  0
 31 32  1  0  0  0  0
 33 34  1  0  0  0  0
  1 35  1  0  0  0  0
  3 36  1  0  0  0  0
  7 37  1  0  0  0  0
  7 38  1  0  0  0  0
  7 39  1  0  0  0  0
  8 40  1  0  0  0  0
  8 41  1  0  0  0  0
  8 42  1  0  0  0  0
  9 43  1  0  0  0  0
  9 44  1  0  0  0  0
 10 45  1  0  0  0  0
 10 46  1  0  0  0  0
 11 47  1  0  0  0  0
 11 48  1  0  0  0  0
 12 49  1  0  0  0  0
 12 50  1  0  0  0  0
 13 51  1  0  0  0  0
 14 52  1  0  0  0  0
 14 53  1  0  0  0  0
 15 54  1  0  0  0  0
 15 55  1  0  0  0  0
 16 56  1  0  0  0  0
 16 57  1  0  0  0  0
 17 58  1  0  0  0  0
 17 59  1  0  0  0  0
 18 60  1  0  0  0  0
 19 61  1  0  0  0  0
 20 62  1  0  0  0  0
 20 63  1  0  0  0  0
 21 64  1  0  0  0  0
 21 65  1  0  0  0  0
 23 66  1  0  0  0  0
 24 67  1  0  0  0  0
 26 68  1  0  0  0  0
 27 69  1  0  0  0  0
 29 70  1  0  0  0  0
 30 71  1  0  0  0  0
 31 72  1  0  0  0  0
M  END
> <pdb_id>
4UDD

> <uniprot_id>
P04150

> <usmiles>
O=C1C=C2[C@](C=C1)([C@H]3[C@@H](O)C[C@@]4([C@@]5(O[C@@H](O[C@@H]5C[C@H]4[C@@H]3CC2)C6CCCCC6)C(=O)CO)C)C

$$$$
CV7_A_1987
          07202405093D 1   1.00000     0.00000     0
            
 72 77  0  0  0  0            999 V2000
  -26.8740   -2.6100    0.7060 O   0  0  0  0  0  0  0  0  0  0  0  0
  -30.5930    8.7610    0.5510 O   0  0  0  0  0  0  0  0  0  0  0  0
  -27.2200    3.0930   -0.4550 O   0  0  0  0  0  0  0  0  0  0  0  0
  -25.7210   -1.4950    2.8020 O   0  0  0  0  0  0  0  0  0  0  0  0
  -27.4210    0.2950    5.4560 O   0  0  0  0  0  0  0  0  0  0  0  0
  -28.6720    0.0860    3.5160 O   0  0  0  0  0  0  0  0  0  0  0  0
  -26.4550    5.9080    0.2970 C   0  0  0  0  0  0  0  0  0  0  0  0
  -25.7680    1.4550    1.4950 C   0  0  0  0  0  0  0  0  0  0  0  0
  -27.6940   -1.7740    1.5230 C   0  0  0  0  0  0  0  0  0  0  0  0
  -32.3910    1.0030    6.7450 C   0  0  0  0  0  0  0  0  0  0  0  0
  -31.6900    1.9710    5.8180 C   0  0  0  0  0  0  0  0  0  0  0  0
  -31.4090    0.1060    7.4750 C   0  0  0  0  0  0  0  0  0  0  0  0
  -29.7120    6.8360   -0.4170 C   0  0  0  0  0  0  0  0  0  0  0  0
  -30.7070    1.2700    4.8990 C   0  0  0  0  0  0  0  0  0  0  0  0
  -30.4870   -0.6020    6.5010 C   0  0  0  0  0  0  0  0  0  0  0  0
  -27.2790    6.5600    3.2370 C   0  0  0  0  0  0  0  0  0  0  0  0
  -27.3850    5.1320    3.7740 C   0  0  0  0  0  0  0  0  0  0  0  0
  -28.8050    5.8650   -0.2690 C   0  0  0  0  0  0  0  0  0  0  0  0
  -28.9730    7.7010    1.8980 C   0  0  0  0  0  0  0  0  0  0  0  0
  -26.3440    2.1580    4.3820 C   0  0  0  0  0  0  0  0  0  0  0  0
  -28.2830    1.7540    1.2250 C   0  0  0  0  0  0  0  0  0  0  0  0
  -29.8050    7.8390    0.6680 C   0  0  0  0  0  0  0  0  0  0  0  0
  -28.6310   -0.2130    4.9070 C   0  0  2  0  0  0  0  0  0  0  0  0
  -28.2380    3.1190    0.5490 C   0  0  1  0  0  0  0  0  0  0  0  0
  -26.8080   -1.0270    2.5000 C   0  0  0  0  0  0  0  0  0  0  0  0
  -26.5520    0.6450    4.3840 C   0  0  2  0  0  0  0  0  0  0  0  0
  -29.7380    0.4350    5.6980 C   0  0  0  0  0  0  0  0  0  0  0  0
  -28.0800    6.7080    1.9790 C   0  0  0  0  0  0  0  0  0  0  0  0
  -27.1220    4.0770    2.6920 C   0  0  1  0  0  0  0  0  0  0  0  0
  -27.2150    2.6480    3.2410 C   0  0  1  0  0  0  0  0  0  0  0  0
  -28.1190    4.3110    1.5230 C   0  0  1  0  0  0  0  0  0  0  0  0
  -27.8590    5.6950    0.8830 C   0  0  2  0  0  0  0  0  0  0  0  0
  -27.3040    0.2860    3.1070 C   0  0  2  0  0  0  0  0  0  0  0  0
  -27.1310    1.5260    2.2100 C   0  0  2  0  0  0  0  0  0  0  0  0
  -27.4485   -3.1084    0.0567 H   0  0  0  0  0  0  0  0  0  0  0  0
  -27.1770    3.9828   -0.9093 H   0  0  0  0  0  0  0  0  0  0  0  0
  -25.7727    5.8070    1.0211 H   0  0  0  0  0  0  0  0  0  0  0  0
  -26.2856    5.2293   -0.4176 H   0  0  0  0  0  0  0  0  0  0  0  0
  -26.3928    6.8263   -0.0939 H   0  0  0  0  0  0  0  0  0  0  0  0
  -25.0451    1.3059    2.1696 H   0  0  0  0  0  0  0  0  0  0  0  0
  -25.7740    0.6991    0.8403 H   0  0  0  0  0  0  0  0  0  0  0  0
  -25.6003    2.3139    1.0110 H   0  0  0  0  0  0  0  0  0  0  0  0
  -28.3507   -2.3357    2.0263 H   0  0  0  0  0  0  0  0  0  0  0  0
  -28.1861   -1.1205    0.9480 H   0  0  0  0  0  0  0  0  0  0  0  0
  -33.0117    0.4325    6.2072 H   0  0  0  0  0  0  0  0  0  0  0  0
  -32.9159    1.5233    7.4187 H   0  0  0  0  0  0  0  0  0  0  0  0
  -31.1943    2.6429    6.3682 H   0  0  0  0  0  0  0  0  0  0  0  0
  -32.3763    2.4379    5.2603 H   0  0  0  0  0  0  0  0  0  0  0  0
  -31.9179   -0.5774    7.9984 H   0  0  0  0  0  0  0  0  0  0  0  0
  -30.8599    0.6624    8.0986 H   0  0  0  0  0  0  0  0  0  0  0  0
  -30.3008    6.8827   -1.2239 H   0  0  0  0  0  0  0  0  0  0  0  0
  -30.1984    1.9551    4.3775 H   0  0  0  0  0  0  0  0  0  0  0  0
  -31.2101    0.6778    4.2696 H   0  0  0  0  0  0  0  0  0  0  0  0
  -31.0259   -1.1781    5.8864 H   0  0  0  0  0  0  0  0  0  0  0  0
  -29.8370   -1.1700    7.0059 H   0  0  0  0  0  0  0  0  0  0  0  0
  -26.3204    6.7685    3.0433 H   0  0  0  0  0  0  0  0  0  0  0  0
  -27.6262    7.1971    3.9252 H   0  0  0  0  0  0  0  0  0  0  0  0
  -28.3056    4.9942    4.1393 H   0  0  0  0  0  0  0  0  0  0  0  0
  -26.7146    5.0142    4.5066 H   0  0  0  0  0  0  0  0  0  0  0  0
  -28.7518    5.1839   -0.9992 H   0  0  0  0  0  0  0  0  0  0  0  0
  -29.0816    8.3449    2.6554 H   0  0  0  0  0  0  0  0  0  0  0  0
  -25.3838    2.3844    4.2185 H   0  0  0  0  0  0  0  0  0  0  0  0
  -26.6376    2.5581    5.2502 H   0  0  0  0  0  0  0  0  0  0  0  0
  -28.2402    1.0482    0.5179 H   0  0  0  0  0  0  0  0  0  0  0  0
  -29.1466    1.6749    1.7230 H   0  0  0  0  0  0  0  0  0  0  0  0
  -28.6653   -1.2041    5.0360 H   0  0  0  0  0  0  0  0  0  0  0  0
  -29.1087    3.2285    0.0694 H   0  0  0  0  0  0  0  0  0  0  0  0
  -25.6815    0.1566    4.4450 H   0  0  0  0  0  0  0  0  0  0  0  0
  -29.3016    1.0492    6.3554 H   0  0  0  0  0  0  0  0  0  0  0  0
  -26.1955    4.2154    2.3422 H   0  0  0  0  0  0  0  0  0  0  0  0
  -28.1466    2.5830    3.5985 H   0  0  0  0  0  0  0  0  0  0  0  0
  -29.0173    4.3868    1.9557 H   0  0  0  0  0  0  0  0  0  0  0  0
  1  9  1  0  0  0  0
  2 22  2  0  0  0  0
  3 24  1  0  0  0  0
  4 25  2  0  0  0  0
  5 23  1  0  0  0  0
  5 26  1  0  0  0  0
  6 23  1  0  0  0  0
  6 33  1  0  0  0  0
  7 32  1  0  0  0  0
  8 34  1  0  0  0  0
  9 25  1  0  0  0  0
 10 11  1  0  0  0  0
 10 12  1  0  0  0  0
 11 14  1  0  0  0  0
 12 15  1  0  0  0  0
 13 18  2  0  0  0  0
 13 22  1  0  0  0  0
 14 27  1  0  0  0  0
 15 27  1  0  0  0  0
 16 17  1  0  0  0  0
 16 28  1  0  0  0  0
 17 29  1  0  0  0  0
 18 32  1  0  0  0  0
 19 22  1  0  0  0  0
 19 28  2  0  0  0  0
 20 26  1  0  0  0  0
 20 30  1  0  0  0  0
 21 24  1  0  0  0  0
 21 34  1  0  0  0  0
 23 27  1  0  0  0  0
 24 31  1  0  0  0  0
 25 33  1  0  0  0  0
 26 33  1  0  0  0  0
 28 32  1  0  0  0  0
 29 30  1  0  0  0  0
 29 31  1  0  0  0  0
 30 34  1  0  0  0  0
 31 32  1  0  0  0  0
 33 34  1  0  0  0  0
  1 35  1  0  0  0  0
  3 36  1  0  0  0  0
  7 37  1  0  0  0  0
  7 38  1  0  0  0  0
  7 39  1  0  0  0  0
  8 40  1  0  0  0  0
  8 41  1  0  0  0  0
  8 42  1  0  0  0  0
  9 43  1  0  0  0  0
  9 44  1  0  0  0  0
 10 45  1  0  0  0  0
 10 46  1  0  0  0  0
 11 47  1  0  0  0  0
 11 48  1  0  0  0  0
 12 49  1  0  0  0  0
 12 50  1  0  0  0  0
 13 51  1  0  0  0  0
 14 52  1  0  0  0  0
 14 53  1  0  0  0  0
 15 54  1  0  0  0  0
 15 55  1  0  0  0  0
 16 56  1  0  0  0  0
 16 57  1  0  0  0  0
 17 58  1  0  0  0  0
 17 59  1  0  0  0  0
 18 60  1  0  0  0  0
 19 61  1  0  0  0  0
 20 62  1  0  0  0  0
 20 63  1  0  0  0  0
 21 64  1  0  0  0  0
 21 65  1  0  0  0  0
 23 66  1  0  0  0  0
 24 67  1  0  0  0  0
 26 68  1  0  0  0  0
 27 69  1  0  0  0  0
 29 70  1  0  0  0  0
 30 71  1  0  0  0  0
 31 72  1  0  0  0  0
M  END
> <pdb_id>
4UDB

> <uniprot_id>
P08235

> <usmiles>
O=C1C=C2[C@](C=C1)([C@H]3[C@@H](O)C[C@@]4([C@@]5(O[C@@H](O[C@@H]5C[C@H]4[C@@H]3CC2)C6CCCCC6)C(=O)CO)C)C

$$$$
CVW_C_201
          07212403093D 1   1.00000     0.00000     0
            
 27 28  0  0  0  0            999 V2000
  131.2468  108.5268   13.6660 N   0  0  0  0  0  0  0  0  0  0  0  0
  126.2246  111.6782   12.6742 N   0  0  0  0  0  0  0  0  0  0  0  0
  126.2590  107.0288    9.4427 C   0  0  0  0  0  0  0  0  0  0  0  0
  130.1753  109.4439   13.2081 C   0  0  0  0  0  0  0  0  0  0  0  0
  127.2007  111.3274   13.5589 C   0  0  0  0  0  0  0  0  0  0  0  0
  128.8316  109.3629   14.0210 C   0  0  0  0  0  0  0  0  0  0  0  0
  125.2379  110.4739   10.6810 C   0  0  0  0  0  0  0  0  0  0  0  0
  125.3084  109.2581    9.9221 C   0  0  0  0  0  0  0  0  0  0  0  0
  127.0819  108.4123   11.3608 C   0  0  0  0  0  0  0  0  0  0  0  0
  126.1118  110.6033   11.7688 C   0  0  0  0  0  0  0  0  0  0  0  0
  126.1980  108.2794   10.2501 C   0  0  0  0  0  0  0  0  0  0  0  0
  127.7445  110.0326   13.2875 C   0  0  0  0  0  0  0  0  0  0  0  0
  127.0475  109.5724   12.1323 C   0  0  0  0  0  0  0  0  0  0  0  0
  132.0573  108.6488   13.0932 H   0  0  0  0  0  0  0  0  0  0  0  0
  131.4770  108.7317   14.6173 H   0  0  0  0  0  0  0  0  0  0  0  0
  125.6955  112.5268   12.6685 H   0  0  0  0  0  0  0  0  0  0  0  0
  126.9608  106.4234    9.8183 H   0  0  0  0  0  0  0  0  0  0  0  0
  125.3715  106.5690    9.4726 H   0  0  0  0  0  0  0  0  0  0  0  0
  126.4857  107.2544    8.4952 H   0  0  0  0  0  0  0  0  0  0  0  0
  129.9721  109.2297   12.2527 H   0  0  0  0  0  0  0  0  0  0  0  0
  130.5205  110.3801   13.2737 H   0  0  0  0  0  0  0  0  0  0  0  0
  127.5027  111.9102   14.3134 H   0  0  0  0  0  0  0  0  0  0  0  0
  128.9553  109.8101   14.9068 H   0  0  0  0  0  0  0  0  0  0  0  0
  128.5902  108.4029   14.1630 H   0  0  0  0  0  0  0  0  0  0  0  0
  124.5917  111.1991   10.4433 H   0  0  0  0  0  0  0  0  0  0  0  0
  124.6964  109.1273    9.1421 H   0  0  0  0  0  0  0  0  0  0  0  0
  127.7225  107.6779   11.5849 H   0  0  0  0  0  0  0  0  0  0  0  0
  1  4  1  0  0  0  0
  2  5  1  0  0  0  0
  2 10  1  0  0  0  0
  3 11  1  0  0  0  0
  4  6  1  0  0  0  0
  5 12  2  0  0  0  0
  6 12  1  0  0  0  0
  7  8  1  0  0  0  0
  7 10  2  0  0  0  0
  8 11  2  0  0  0  0
  9 11  1  0  0  0  0
  9 13  2  0  0  0  0
 10 13  1  0  0  0  0
 12 13  1  0  0  0  0
  1 14  1  0  0  0  0
  1 15  1  0  0  0  0
  2 16  1  0  0  0  0
  3 17  1  0  0  0  0
  3 18  1  0  0  0  0
  3 19  1  0  0  0  0
  4 20  1  0  0  0  0
  4 21  1  0  0  0  0
  5 22  1  0  0  0  0
  6 23  1  0  0  0  0
  6 24  1  0  0  0  0
  7 25  1  0  0  0  0
  8 26  1  0  0  0  0
  9 27  1  0  0  0  0
M  END
> <pdb_id>
6F7G

> <uniprot_id>
P0A881

> <usmiles>
N1c2c(cc(cc2)C)C(=C1)CCN

$$$$
CWC_A_1200
          07202414463D 1   1.00000     0.00000     0
            
 46 48  0  0  0  0            999 V2000
   -4.1640   -7.0688   70.1197 O   0  0  0  0  0  0  0  0  0  0  0  0
   -3.3950   -5.5542   66.3209 N   0  0  0  0  0  0  0  0  0  0  0  0
   -3.6018   -7.7640   60.3770 N   0  0  0  0  0  0  0  0  0  0  0  0
   -5.0377   -8.2046   68.2849 N   0  0  0  0  0  0  0  0  0  0  0  0
   -6.1614   -9.6110   73.9110 N   0  0  0  0  0  0  0  0  0  0  0  0
   -5.6364   -8.8738   75.0479 C   0  0  0  0  0  0  0  0  0  0  0  0
   -7.4910  -10.0628   74.2870 C   0  0  0  0  0  0  0  0  0  0  0  0
   -4.1098   -6.5671   60.7870 C   0  0  0  0  0  0  0  0  0  0  0  0
   -4.0158   -6.2095   67.3070 C   0  0  0  0  0  0  0  0  0  0  0  0
   -3.1443   -6.2782   65.2236 C   0  0  0  0  0  0  0  0  0  0  0  0
   -6.3231   -8.6646   72.8202 C   0  0  0  0  0  0  0  0  0  0  0  0
   -5.4726   -9.1048   71.6523 C   0  0  0  0  0  0  0  0  0  0  0  0
   -2.3819  -10.2945   62.6847 C   0  0  0  0  0  0  0  0  0  0  0  0
   -4.0484   -6.5635   62.1600 C   0  0  0  0  0  0  0  0  0  0  0  0
   -6.0457   -8.5276   70.3808 C   0  0  0  0  0  0  0  0  0  0  0  0
   -2.6672   -9.7851   61.4396 C   0  0  0  0  0  0  0  0  0  0  0  0
   -2.6356   -9.5909   63.8385 C   0  0  0  0  0  0  0  0  0  0  0  0
   -4.1096   -8.2381   66.0911 C   0  0  0  0  0  0  0  0  0  0  0  0
   -4.9657   -7.8397   69.6094 C   0  0  0  0  0  0  0  0  0  0  0  0
   -4.3840   -7.5353   67.2401 C   0  0  0  0  0  0  0  0  0  0  0  0
   -3.2158   -8.5243   61.4440 C   0  0  0  0  0  0  0  0  0  0  0  0
   -3.4726   -7.6054   65.0465 C   0  0  0  0  0  0  0  0  0  0  0  0
   -3.4859   -7.7936   62.5880 C   0  0  0  0  0  0  0  0  0  0  0  0
   -3.1904   -8.3302   63.8313 C   0  0  0  0  0  0  0  0  0  0  0  0
   -3.5222   -8.0478   59.4214 H   0  0  0  0  0  0  0  0  0  0  0  0
   -5.5945   -9.0017   68.0511 H   0  0  0  0  0  0  0  0  0  0  0  0
   -4.7177   -8.5416   74.8343 H   0  0  0  0  0  0  0  0  0  0  0  0
   -6.2341   -8.0970   75.2462 H   0  0  0  0  0  0  0  0  0  0  0  0
   -5.5961   -9.4756   75.8456 H   0  0  0  0  0  0  0  0  0  0  0  0
   -7.8942  -10.5782   73.5308 H   0  0  0  0  0  0  0  0  0  0  0  0
   -7.4278  -10.6499   75.0941 H   0  0  0  0  0  0  0  0  0  0  0  0
   -8.0657   -9.2713   74.4948 H   0  0  0  0  0  0  0  0  0  0  0  0
   -4.4590   -5.8346   60.2026 H   0  0  0  0  0  0  0  0  0  0  0  0
   -4.2258   -5.7061   68.1451 H   0  0  0  0  0  0  0  0  0  0  0  0
   -2.6793   -5.8173   64.4678 H   0  0  0  0  0  0  0  0  0  0  0  0
   -6.0346   -7.7554   73.1204 H   0  0  0  0  0  0  0  0  0  0  0  0
   -7.2833   -8.6349   72.5425 H   0  0  0  0  0  0  0  0  0  0  0  0
   -5.4712  -10.1032   71.5962 H   0  0  0  0  0  0  0  0  0  0  0  0
   -4.5363   -8.7765   71.7771 H   0  0  0  0  0  0  0  0  0  0  0  0
   -1.9767  -11.2062   62.7532 H   0  0  0  0  0  0  0  0  0  0  0  0
   -4.3494   -5.8195   62.7565 H   0  0  0  0  0  0  0  0  0  0  0  0
   -6.7630   -7.8690   70.6083 H   0  0  0  0  0  0  0  0  0  0  0  0
   -6.4331   -9.2641   69.8263 H   0  0  0  0  0  0  0  0  0  0  0  0
   -2.4895  -10.2924   60.5963 H   0  0  0  0  0  0  0  0  0  0  0  0
   -2.4084  -10.0108   64.7171 H   0  0  0  0  0  0  0  0  0  0  0  0
   -4.3702   -9.2005   66.0142 H   0  0  0  0  0  0  0  0  0  0  0  0
  1 19  2  0  0  0  0
  2  9  1  0  0  0  0
  2 10  2  0  0  0  0
  3  8  1  0  0  0  0
  3 21  1  0  0  0  0
  4 19  1  0  0  0  0
  4 20  1  0  0  0  0
  5  6  1  0  0  0  0
  5  7  1  0  0  0  0
  5 11  1  0  0  0  0
  8 14  2  0  0  0  0
  9 20  2  0  0  0  0
 10 22  1  0  0  0  0
 11 12  1  0  0  0  0
 12 15  1  0  0  0  0
 13 16  2  0  0  0  0
 13 17  1  0  0  0  0
 14 23  1  0  0  0  0
 15 19  1  0  0  0  0
 16 21  1  0  0  0  0
 17 24  2  0  0  0  0
 18 20  1  0  0  0  0
 18 22  2  0  0  0  0
 21 23  2  0  0  0  0
 22 24  1  0  0  0  0
 23 24  1  0  0  0  0
  3 25  1  0  0  0  0
  4 26  1  0  0  0  0
  6 27  1  0  0  0  0
  6 28  1  0  0  0  0
  6 29  1  0  0  0  0
  7 30  1  0  0  0  0
  7 31  1  0  0  0  0
  7 32  1  0  0  0  0
  8 33  1  0  0  0  0
  9 34  1  0  0  0  0
 10 35  1  0  0  0  0
 11 36  1  0  0  0  0
 11 37  1  0  0  0  0
 12 38  1  0  0  0  0
 12 39  1  0  0  0  0
 13 40  1  0  0  0  0
 14 41  1  0  0  0  0
 15 42  1  0  0  0  0
 15 43  1  0  0  0  0
 16 44  1  0  0  0  0
 17 45  1  0  0  0  0
 18 46  1  0  0  0  0
M  END
> <pdb_id>
5AIS

> <uniprot_id>
O60760

> <usmiles>
O=C(Nc1cncc(c2c3c(NC=C3)ccc2)c1)CCCN(C)C

$$$$
CWM_B_201
          07212402373D 1   1.00000     0.00000     0
            
 19 20  0  0  0  0            999 V2000
   30.6026   -7.8084   34.4794 O   0  0  0  0  0  0  0  0  0  0  0  0
   27.6444   -9.3744   31.2258 N   0  0  0  0  0  0  0  0  0  0  0  0
   28.0106   -7.9580   32.9102 N   0  0  0  0  0  0  0  0  0  0  0  0
   25.7740   -7.8190   31.8108 C   0  0  0  0  0  0  0  0  0  0  0  0
   31.1357  -10.4579   32.0228 C   0  0  0  0  0  0  0  0  0  0  0  0
   31.3614   -9.5795   33.0723 C   0  0  0  0  0  0  0  0  0  0  0  0
   29.9243  -10.4698   31.3508 C   0  0  0  0  0  0  0  0  0  0  0  0
   27.1397   -8.3934   31.9652 C   0  0  0  0  0  0  0  0  0  0  0  0
   30.3697   -8.6840   33.4649 C   0  0  0  0  0  0  0  0  0  0  0  0
   28.9266   -9.5763   31.7405 C   0  0  0  0  0  0  0  0  0  0  0  0
   29.1525   -8.7128   32.7698 C   0  0  0  0  0  0  0  0  0  0  0  0
   29.8889   -7.1664   34.7595 H   0  0  0  0  0  0  0  0  0  0  0  0
   27.2048   -9.8597   30.4700 H   0  0  0  0  0  0  0  0  0  0  0  0
   25.6386   -7.0947   32.4868 H   0  0  0  0  0  0  0  0  0  0  0  0
   25.6740   -7.4394   30.8910 H   0  0  0  0  0  0  0  0  0  0  0  0
   25.0925   -8.5373   31.9508 H   0  0  0  0  0  0  0  0  0  0  0  0
   31.8581  -11.0920   31.7472 H   0  0  0  0  0  0  0  0  0  0  0  0
   32.2404   -9.5892   33.5491 H   0  0  0  0  0  0  0  0  0  0  0  0
   29.7676  -11.1091   30.5980 H   0  0  0  0  0  0  0  0  0  0  0  0
  1  9  1  0  0  0  0
  2  8  1  0  0  0  0
  2 10  1  0  0  0  0
  3  8  2  0  0  0  0
  3 11  1  0  0  0  0
  4  8  1  0  0  0  0
  5  6  1  0  0  0  0
  5  7  2  0  0  0  0
  6  9  2  0  0  0  0
  7 10  1  0  0  0  0
  9 11  1  0  0  0  0
 10 11  2  0  0  0  0
  1 12  1  0  0  0  0
  2 13  1  0  0  0  0
  4 14  1  0  0  0  0
  4 15  1  0  0  0  0
  4 16  1  0  0  0  0
  5 17  1  0  0  0  0
  6 18  1  0  0  0  0
  7 19  1  0  0  0  0
M  END
> <pdb_id>
6B7A

> <uniprot_id>
P0A6I6

> <usmiles>
Oc1c2N=C(Nc2ccc1)C

$$$$
CWP_B_201
          07212402373D 1   1.00000     0.00000     0
            
 35 37  0  0  0  0            999 V2000
   23.0206  -10.9062   33.0641 N   0  0  0  0  0  0  0  0  0  0  0  0
   25.5042   -7.2479   31.8413 N   0  0  0  0  0  0  0  0  0  0  0  0
   27.6268   -7.7758   32.4336 N   0  0  0  0  0  0  0  0  0  0  0  0
   29.8195   -8.8690   32.5889 N   0  0  0  0  0  0  0  0  0  0  0  0
   26.7611   -8.9904   30.9053 N   0  0  0  0  0  0  0  0  0  0  0  0
   23.1222  -10.0385   32.0352 N   0  0  0  0  0  0  0  0  0  0  0  0
   22.4628  -10.2269   30.7530 C   0  0  0  0  0  0  0  0  0  0  0  0
   23.8213  -11.2103   35.3709 C   0  0  0  0  0  0  0  0  0  0  0  0
   31.9578  -10.0523   32.6195 C   0  0  0  0  0  0  0  0  0  0  0  0
   24.2148   -7.8474   31.5027 C   0  0  0  0  0  0  0  0  0  0  0  0
   30.0312  -10.6941   31.0613 C   0  0  0  0  0  0  0  0  0  0  0  0
   28.7379  -10.5082   30.5638 C   0  0  0  0  0  0  0  0  0  0  0  0
   24.2969   -9.2264   33.6466 C   0  0  0  0  0  0  0  0  0  0  0  0
   26.5904   -7.9771   31.7309 C   0  0  0  0  0  0  0  0  0  0  0  0
   28.5868   -8.6616   32.1279 C   0  0  0  0  0  0  0  0  0  0  0  0
   23.6942  -10.4989   34.0519 C   0  0  0  0  0  0  0  0  0  0  0  0
   30.5489   -9.8642   32.0682 C   0  0  0  0  0  0  0  0  0  0  0  0
   23.8860   -9.0347   32.3862 C   0  0  0  0  0  0  0  0  0  0  0  0
   28.0156   -9.4540   31.1417 C   0  0  0  0  0  0  0  0  0  0  0  0
   25.5581   -6.2988   32.1517 H   0  0  0  0  0  0  0  0  0  0  0  0
   27.7162   -7.0555   33.1215 H   0  0  0  0  0  0  0  0  0  0  0  0
   22.6820   -9.4602   30.1496 H   0  0  0  0  0  0  0  0  0  0  0  0
   22.7796  -11.0794   30.3373 H   0  0  0  0  0  0  0  0  0  0  0  0
   21.4732  -10.2706   30.8904 H   0  0  0  0  0  0  0  0  0  0  0  0
   24.4093  -10.6791   35.9809 H   0  0  0  0  0  0  0  0  0  0  0  0
   22.9162  -11.3105   35.7842 H   0  0  0  0  0  0  0  0  0  0  0  0
   24.2228  -12.1144   35.2247 H   0  0  0  0  0  0  0  0  0  0  0  0
   32.3978  -10.8206   32.1547 H   0  0  0  0  0  0  0  0  0  0  0  0
   32.4901   -9.2200   32.4649 H   0  0  0  0  0  0  0  0  0  0  0  0
   31.9096  -10.2397   33.6006 H   0  0  0  0  0  0  0  0  0  0  0  0
   24.2412   -8.1519   30.5506 H   0  0  0  0  0  0  0  0  0  0  0  0
   23.4998   -7.1568   31.6121 H   0  0  0  0  0  0  0  0  0  0  0  0
   30.5976  -11.4316   30.6933 H   0  0  0  0  0  0  0  0  0  0  0  0
   28.3540  -11.0875   29.8448 H   0  0  0  0  0  0  0  0  0  0  0  0
   24.8866   -8.6308   34.1921 H   0  0  0  0  0  0  0  0  0  0  0  0
  1  6  1  0  0  0  0
  1 16  2  0  0  0  0
  2 10  1  0  0  0  0
  2 14  1  0  0  0  0
  3 14  1  0  0  0  0
  3 15  1  0  0  0  0
  4 15  2  0  0  0  0
  4 17  1  0  0  0  0
  5 14  2  0  0  0  0
  5 19  1  0  0  0  0
  6  7  1  0  0  0  0
  6 18  1  0  0  0  0
  8 16  1  0  0  0  0
  9 17  1  0  0  0  0
 10 18  1  0  0  0  0
 11 12  1  0  0  0  0
 11 17  2  0  0  0  0
 12 19  2  0  0  0  0
 13 16  1  0  0  0  0
 13 18  2  0  0  0  0
 15 19  1  0  0  0  0
  2 20  1  0  0  0  0
  3 21  1  0  0  0  0
  7 22  1  0  0  0  0
  7 23  1  0  0  0  0
  7 24  1  0  0  0  0
  8 25  1  0  0  0  0
  8 26  1  0  0  0  0
  8 27  1  0  0  0  0
  9 28  1  0  0  0  0
  9 29  1  0  0  0  0
  9 30  1  0  0  0  0
 10 31  1  0  0  0  0
 10 32  1  0  0  0  0
 11 33  1  0  0  0  0
 12 34  1  0  0  0  0
 13 35  1  0  0  0  0
M  END
> <pdb_id>
6B7C

> <uniprot_id>
P0A6I6

> <usmiles>
n1c2NC(=Nc2ccc1C)NCC=3N(N=C(C3)C)C

$$$$
CWS_C_1391
          07192416553D 1   1.00000     0.00000     0
            
 21 22  0  0  0  0            999 V2000
  204.1764   -4.5015   64.3300 N   0  0  0  0  0  0  0  0  0  0  0  0
  202.8064   -4.2184   62.5166 N   0  0  0  0  0  0  0  0  0  0  0  0
  202.0807   -6.0231   61.1331 N   0  0  0  0  0  0  0  0  0  0  0  0
  204.9265   -9.7776   64.3241 C   0  0  0  0  0  0  0  0  0  0  0  0
  202.1470   -4.7542   61.4870 C   0  0  0  0  0  0  0  0  0  0  0  0
  202.7536   -8.2630   61.6259 C   0  0  0  0  0  0  0  0  0  0  0  0
  203.4333   -9.1576   62.3933 C   0  0  0  0  0  0  0  0  0  0  0  0
  204.2113   -7.4246   63.8204 C   0  0  0  0  0  0  0  0  0  0  0  0
  203.4970   -5.0344   63.3065 C   0  0  0  0  0  0  0  0  0  0  0  0
  202.7775   -6.8883   61.9320 C   0  0  0  0  0  0  0  0  0  0  0  0
  204.1763   -8.7601   63.5021 C   0  0  0  0  0  0  0  0  0  0  0  0
  203.5214   -6.4590   63.0543 C   0  0  0  0  0  0  0  0  0  0  0  0
  204.7048   -5.0914   64.9406 H   0  0  0  0  0  0  0  0  0  0  0  0
  204.1553   -3.5136   64.4837 H   0  0  0  0  0  0  0  0  0  0  0  0
  205.4000   -9.3163   65.0744 H   0  0  0  0  0  0  0  0  0  0  0  0
  204.2823  -10.4454   64.6969 H   0  0  0  0  0  0  0  0  0  0  0  0
  205.5947  -10.2459   63.7460 H   0  0  0  0  0  0  0  0  0  0  0  0
  201.6394   -4.1128   60.9117 H   0  0  0  0  0  0  0  0  0  0  0  0
  202.2314   -8.5849   60.8361 H   0  0  0  0  0  0  0  0  0  0  0  0
  203.3984  -10.1280   62.1544 H   0  0  0  0  0  0  0  0  0  0  0  0
  204.7395   -7.1278   64.6160 H   0  0  0  0  0  0  0  0  0  0  0  0
  1  9  1  0  0  0  0
  2  5  1  0  0  0  0
  2  9  2  0  0  0  0
  3  5  2  0  0  0  0
  3 10  1  0  0  0  0
  4 11  1  0  0  0  0
  6  7  1  0  0  0  0
  6 10  2  0  0  0  0
  7 11  2  0  0  0  0
  8 11  1  0  0  0  0
  8 12  2  0  0  0  0
  9 12  1  0  0  0  0
 10 12  1  0  0  0  0
  1 13  1  0  0  0  0
  1 14  1  0  0  0  0
  4 15  1  0  0  0  0
  4 16  1  0  0  0  0
  4 17  1  0  0  0  0
  5 18  1  0  0  0  0
  6 19  1  0  0  0  0
  7 20  1  0  0  0  0
  8 21  1  0  0  0  0
M  END
> <pdb_id>
5AQO

> <uniprot_id>
P11142

> <usmiles>
n1c(N)c2c(nc1)ccc(c2)C

$$$$
CWW_A_500
          07202407183D 1   1.00000     0.00000     0
            
 43 45  0  0  0  0            999 V2000
   28.6522   22.1051   -9.2671 Br  0  0  0  0  0  0  0  0  0  0  0  0
   27.4182   18.5545   -2.9020 O   0  0  0  0  0  0  0  0  0  0  0  0
   32.8498   18.4815   -7.6207 O   0  0  0  0  0  0  0  0  0  0  0  0
   31.3329   20.8226   -6.6987 N   0  0  0  0  0  0  0  0  0  0  0  0
   37.4435   20.4662   -6.8484 N   0  0  0  0  0  0  0  0  0  0  0  0
   27.2595   16.8772   -1.4235 N   0  0  0  0  0  0  0  0  0  0  0  0
   31.1350   16.9657   -3.6758 N   0  0  0  0  0  0  0  0  0  0  0  0
   29.0701   16.9897   -2.8076 N   0  0  0  0  0  0  0  0  0  0  0  0
   34.2476   18.9388   -5.9031 N   0  0  0  0  0  0  0  0  0  0  0  0
   30.4161   19.8305   -6.5195 N   0  0  0  0  0  0  0  0  0  0  0  0
   25.9997   16.9777    0.6613 C   0  0  0  0  0  0  0  0  0  0  0  0
   25.9818   17.3088   -0.8335 C   0  0  0  0  0  0  0  0  0  0  0  0
   37.7409   19.8081   -8.0581 C   0  0  0  0  0  0  0  0  0  0  0  0
   30.8942   21.6671   -7.6099 C   0  0  0  0  0  0  0  0  0  0  0  0
   36.2457   20.1493   -6.1537 C   0  0  0  0  0  0  0  0  0  0  0  0
   32.1571   17.3483   -4.5567 C   0  0  0  0  0  0  0  0  0  0  0  0
   29.3855   20.1019   -7.3171 C   0  0  0  0  0  0  0  0  0  0  0  0
   36.8662   18.8607   -8.5605 C   0  0  0  0  0  0  0  0  0  0  0  0
   35.6932   18.5519   -7.8576 C   0  0  0  0  0  0  0  0  0  0  0  0
   29.6473   18.4806   -4.7273 C   0  0  0  0  0  0  0  0  0  0  0  0
   27.8876   17.5294   -2.4204 C   0  0  0  0  0  0  0  0  0  0  0  0
   33.0419   18.6226   -6.4212 C   0  0  0  0  0  0  0  0  0  0  0  0
   29.8998   17.5013   -3.7374 C   0  0  0  0  0  0  0  0  0  0  0  0
   29.7082   21.2148   -7.9685 C   0  0  0  0  0  0  0  0  0  0  0  0
   35.3533   19.1986   -6.6519 C   0  0  0  0  0  0  0  0  0  0  0  0
   30.6587   18.8673   -5.6287 C   0  0  0  0  0  0  0  0  0  0  0  0
   31.9629   18.3113   -5.5318 C   0  0  0  0  0  0  0  0  0  0  0  0
   27.6873   16.0489   -1.0619 H   0  0  0  0  0  0  0  0  0  0  0  0
   29.3504   16.1382   -2.3644 H   0  0  0  0  0  0  0  0  0  0  0  0
   34.3333   18.9850   -4.9079 H   0  0  0  0  0  0  0  0  0  0  0  0
   25.1369   17.2655    1.0769 H   0  0  0  0  0  0  0  0  0  0  0  0
   26.1159   15.9920    0.7830 H   0  0  0  0  0  0  0  0  0  0  0  0
   26.7581   17.4594    1.1004 H   0  0  0  0  0  0  0  0  0  0  0  0
   25.2259   16.8269   -1.2766 H   0  0  0  0  0  0  0  0  0  0  0  0
   25.8682   18.2944   -0.9593 H   0  0  0  0  0  0  0  0  0  0  0  0
   38.5824   20.0252   -8.5528 H   0  0  0  0  0  0  0  0  0  0  0  0
   31.3620   22.4800   -7.9568 H   0  0  0  0  0  0  0  0  0  0  0  0
   36.0384   20.6151   -5.2935 H   0  0  0  0  0  0  0  0  0  0  0  0
   33.0535   16.9122   -4.4778 H   0  0  0  0  0  0  0  0  0  0  0  0
   28.5401   19.5755   -7.4078 H   0  0  0  0  0  0  0  0  0  0  0  0
   37.0704   18.3974   -9.4229 H   0  0  0  0  0  0  0  0  0  0  0  0
   35.0792   17.8520   -8.2223 H   0  0  0  0  0  0  0  0  0  0  0  0
   28.7424   18.9020   -4.7876 H   0  0  0  0  0  0  0  0  0  0  0  0
  1 24  1  0  0  0  0
  2 21  2  0  0  0  0
  3 22  2  0  0  0  0
  4 10  1  0  0  0  0
  4 14  2  0  0  0  0
  5 13  2  0  0  0  0
  5 15  1  0  0  0  0
  6 12  1  0  0  0  0
  6 21  1  0  0  0  0
  7 16  1  0  0  0  0
  7 23  2  0  0  0  0
  8 21  1  0  0  0  0
  8 23  1  0  0  0  0
  9 22  1  0  0  0  0
  9 25  1  0  0  0  0
 10 17  1  0  0  0  0
 10 26  1  0  0  0  0
 11 12  1  0  0  0  0
 13 18  1  0  0  0  0
 14 24  1  0  0  0  0
 15 25  2  0  0  0  0
 16 27  2  0  0  0  0
 17 24  2  0  0  0  0
 18 19  2  0  0  0  0
 19 25  1  0  0  0  0
 20 23  1  0  0  0  0
 20 26  2  0  0  0  0
 22 27  1  0  0  0  0
 26 27  1  0  0  0  0
  6 28  1  0  0  0  0
  8 29  1  0  0  0  0
  9 30  1  0  0  0  0
 11 31  1  0  0  0  0
 11 32  1  0  0  0  0
 11 33  1  0  0  0  0
 12 34  1  0  0  0  0
 12 35  1  0  0  0  0
 13 36  1  0  0  0  0
 14 37  1  0  0  0  0
 15 38  1  0  0  0  0
 16 39  1  0  0  0  0
 17 40  1  0  0  0  0
 18 41  1  0  0  0  0
 19 42  1  0  0  0  0
 20 43  1  0  0  0  0
M  END
> <pdb_id>
6F86

> <uniprot_id>
P0AES7

> <usmiles>
BrC=1C=NN(c2c(cnc(NC(=O)NCC)c2)C(=O)Nc3cnccc3)C1

$$$$
CX6_E_802
          07202410523D 1   1.00000     0.00000     0
            
 31 34  0  0  0  0            999 V2000
   73.0266   47.3493   41.7703 O   0  0  0  0  0  0  0  0  0  0  0  0
   78.0966   43.8448   39.8458 O   0  0  0  0  0  0  0  0  0  0  0  0
   75.4315   42.9352   40.4528 O   0  0  0  0  0  0  0  0  0  0  0  0
   76.6311   48.4126   40.3523 O   0  0  0  0  0  0  0  0  0  0  0  0
   74.3100   48.9049   40.6891 N   0  0  0  0  0  0  0  0  0  0  0  0
   77.8126   42.4326   40.0364 C   0  0  0  0  0  0  0  0  0  0  0  0
   76.3770   42.0946   39.7277 C   0  0  0  0  0  0  0  0  0  0  0  0
   73.6718   50.1228   41.1848 C   0  0  0  0  0  0  0  0  0  0  0  0
   74.8305   51.1289   41.0813 C   0  0  0  0  0  0  0  0  0  0  0  0
   75.6906   50.6589   39.9459 C   0  0  0  0  0  0  0  0  0  0  0  0
   77.3596   46.1162   40.1013 C   0  0  0  0  0  0  0  0  0  0  0  0
   74.7439   45.2225   40.6997 C   0  0  0  0  0  0  0  0  0  0  0  0
   75.4884   49.1649   39.8591 C   0  0  1  0  0  0  0  0  0  0  0  0
   74.0167   47.6212   41.1069 C   0  0  0  0  0  0  0  0  0  0  0  0
   77.0599   44.7466   40.1264 C   0  0  0  0  0  0  0  0  0  0  0  0
   75.7677   44.2857   40.4183 C   0  0  0  0  0  0  0  0  0  0  0  0
   76.3371   47.0497   40.3825 C   0  0  0  0  0  0  0  0  0  0  0  0
   75.0177   46.6026   40.6915 C   0  0  0  0  0  0  0  0  0  0  0  0
   78.0030   42.1913   40.9880 H   0  0  0  0  0  0  0  0  0  0  0  0
   78.4059   41.9003   39.4325 H   0  0  0  0  0  0  0  0  0  0  0  0
   76.2242   42.2142   38.7467 H   0  0  0  0  0  0  0  0  0  0  0  0
   76.2126   41.1401   39.9768 H   0  0  0  0  0  0  0  0  0  0  0  0
   73.3622   50.0160   42.1296 H   0  0  0  0  0  0  0  0  0  0  0  0
   72.8996   50.3924   40.6095 H   0  0  0  0  0  0  0  0  0  0  0  0
   75.3558   51.1419   41.9321 H   0  0  0  0  0  0  0  0  0  0  0  0
   74.4782   52.0457   40.8931 H   0  0  0  0  0  0  0  0  0  0  0  0
   76.6512   50.8692   40.1278 H   0  0  0  0  0  0  0  0  0  0  0  0
   75.4092   51.0975   39.0924 H   0  0  0  0  0  0  0  0  0  0  0  0
   78.2852   46.4282   39.8871 H   0  0  0  0  0  0  0  0  0  0  0  0
   73.8197   44.9010   40.9057 H   0  0  0  0  0  0  0  0  0  0  0  0
   75.2975   48.9054   38.9124 H   0  0  0  0  0  0  0  0  0  0  0  0
  1 14  2  0  0  0  0
  2  6  1  0  0  0  0
  2 15  1  0  0  0  0
  3  7  1  0  0  0  0
  3 16  1  0  0  0  0
  4 13  1  0  0  0  0
  4 17  1  0  0  0  0
  5  8  1  0  0  0  0
  5 13  1  0  0  0  0
  5 14  1  0  0  0  0
  6  7  1  0  0  0  0
  8  9  1  0  0  0  0
  9 10  1  0  0  0  0
 10 13  1  0  0  0  0
 11 15  1  0  0  0  0
 11 17  2  0  0  0  0
 12 16  1  0  0  0  0
 12 18  2  0  0  0  0
 14 18  1  0  0  0  0
 15 16  2  0  0  0  0
 17 18  1  0  0  0  0
  6 19  1  0  0  0  0
  6 20  1  0  0  0  0
  7 21  1  0  0  0  0
  7 22  1  0  0  0  0
  8 23  1  0  0  0  0
  8 24  1  0  0  0  0
  9 25  1  0  0  0  0
  9 26  1  0  0  0  0
 10 27  1  0  0  0  0
 10 28  1  0  0  0  0
 11 29  1  0  0  0  0
 12 30  1  0  0  0  0
 13 31  1  0  0  0  0
M  END
> <pdb_id>
2AL4

> <uniprot_id>
P19491

> <usmiles>
O=C1N2[C@H](Oc3c1cc4OCCOc4c3)CCC2

$$$$
CXA_A_401
          07192423203D 1   1.00000     0.00000     0
            
 28 28  0  0  0  0            999 V2000
   63.9960  -53.1790   11.7940 S   0  0  0  0  0  0  0  0  0  0  0  0
   64.7830  -54.2200   12.4070 O   0  0  0  0  0  0  0  0  0  0  0  0
   64.4120  -52.9340   10.4420 O   0  0  0  0  0  0  0  0  0  0  0  0
   63.9220  -49.8340    9.7440 O   0  0  0  0  0  0  0  0  0  0  0  0
   65.7750  -50.0990   10.8450 O   0  0  0  0  0  0  0  0  0  0  0  0
   62.4420  -53.5330   11.8850 N   0  0  0  0  0  0  0  0  0  0  0  0
   64.2520  -51.8170   12.5810 N   0  0  0  0  0  0  0  0  0  0  0  0
   63.1560  -45.5010   12.3590 C   0  0  0  0  0  0  0  0  0  0  0  0
   64.3430  -45.8380   13.0070 C   0  0  0  0  0  0  0  0  0  0  0  0
   62.2360  -46.4850   12.0020 C   0  0  0  0  0  0  0  0  0  0  0  0
   64.6230  -47.1740   13.2920 C   0  0  0  0  0  0  0  0  0  0  0  0
   62.5110  -47.8210   12.2870 C   0  0  0  0  0  0  0  0  0  0  0  0
   64.0240  -49.5980   13.2350 C   0  0  0  0  0  0  0  0  0  0  0  0
   64.5330  -50.1340   10.7990 C   0  0  0  0  0  0  0  0  0  0  0  0
   63.7850  -50.5490   12.0530 C   0  0  1  0  0  0  0  0  0  0  0  0
   63.7070  -48.1610   12.9280 C   0  0  0  0  0  0  0  0  0  0  0  0
   62.9228  -49.8657    9.7186 H   0  0  0  0  0  0  0  0  0  0  0  0
   61.9084  -52.8037   11.4567 H   0  0  0  0  0  0  0  0  0  0  0  0
   62.2683  -54.3959   11.4104 H   0  0  0  0  0  0  0  0  0  0  0  0
   65.2427  -51.7326   12.6882 H   0  0  0  0  0  0  0  0  0  0  0  0
   62.9624  -44.5429   12.1480 H   0  0  0  0  0  0  0  0  0  0  0  0
   64.9924  -45.1234   13.2670 H   0  0  0  0  0  0  0  0  0  0  0  0
   61.3833  -46.2338   11.5439 H   0  0  0  0  0  0  0  0  0  0  0  0
   65.4743  -47.4227   13.7540 H   0  0  0  0  0  0  0  0  0  0  0  0
   61.8563  -48.5335   12.0344 H   0  0  0  0  0  0  0  0  0  0  0  0
   64.9863  -49.6594   13.5000 H   0  0  0  0  0  0  0  0  0  0  0  0
   63.4487  -49.8921   13.9982 H   0  0  0  0  0  0  0  0  0  0  0  0
   62.8058  -50.6051   11.8583 H   0  0  0  0  0  0  0  0  0  0  0  0
  1  2  2  0  0  0  0
  1  3  2  0  0  0  0
  1  6  1  0  0  0  0
  1  7  1  0  0  0  0
  4 14  1  0  0  0  0
  5 14  2  0  0  0  0
  7 15  1  0  0  0  0
  8  9  2  0  0  0  0
  8 10  1  0  0  0  0
  9 11  1  0  0  0  0
 10 12  2  0  0  0  0
 11 16  2  0  0  0  0
 12 16  1  0  0  0  0
 13 15  1  0  0  0  0
 13 16  1  0  0  0  0
 14 15  1  0  0  0  0
  4 17  1  0  0  0  0
  6 18  1  0  0  0  0
  6 19  1  0  0  0  0
  7 20  1  0  0  0  0
  8 21  1  0  0  0  0
  9 22  1  0  0  0  0
 10 23  1  0  0  0  0
 11 24  1  0  0  0  0
 12 25  1  0  0  0  0
 13 26  1  0  0  0  0
 13 27  1  0  0  0  0
 15 28  1  0  0  0  0
M  END
> <pdb_id>
4DJL

> <uniprot_id>
P29068

> <usmiles>
S(=O)(=O)(N[C@H](C(=O)O)Cc1ccccc1)N

$$$$
CXA_A_402
          07202408473D 1   1.00000     0.00000     0
            
 28 28  0  0  0  0            999 V2000
   32.8077    5.0430   11.7278 S   0  0  0  0  0  0  0  0  0  0  0  0
   33.7353    4.2524   12.4919 O   0  0  0  0  0  0  0  0  0  0  0  0
   31.6391    4.2754   11.3753 O   0  0  0  0  0  0  0  0  0  0  0  0
   30.6497    5.2972    8.4560 O   0  0  0  0  0  0  0  0  0  0  0  0
   32.2703    3.8203    8.4884 O   0  0  0  0  0  0  0  0  0  0  0  0
   32.4481    6.3503   12.5180 N   0  0  0  0  0  0  0  0  0  0  0  0
   33.5422    5.5465   10.3936 N   0  0  0  0  0  0  0  0  0  0  0  0
   31.8038    8.2069    4.6826 C   0  0  0  0  0  0  0  0  0  0  0  0
   31.7746    6.8233    4.8494 C   0  0  0  0  0  0  0  0  0  0  0  0
   32.4550    9.0017    5.6261 C   0  0  0  0  0  0  0  0  0  0  0  0
   32.3914    6.2404    5.9617 C   0  0  0  0  0  0  0  0  0  0  0  0
   33.0642    8.4177    6.7423 C   0  0  0  0  0  0  0  0  0  0  0  0
   33.7281    6.4275    8.1300 C   0  0  0  0  0  0  0  0  0  0  0  0
   31.8350    4.9763    8.7111 C   0  0  0  0  0  0  0  0  0  0  0  0
   32.7718    6.0215    9.2538 C   0  0  1  0  0  0  0  0  0  0  0  0
   33.0327    7.0379    6.9254 C   0  0  0  0  0  0  0  0  0  0  0  0
   30.3316    6.2263    8.6445 H   0  0  0  0  0  0  0  0  0  0  0  0
   31.8033    6.8963   11.9832 H   0  0  0  0  0  0  0  0  0  0  0  0
   32.0320    6.1065   13.3940 H   0  0  0  0  0  0  0  0  0  0  0  0
   34.0945    4.7802   10.0653 H   0  0  0  0  0  0  0  0  0  0  0  0
   31.3605    8.6274    3.8909 H   0  0  0  0  0  0  0  0  0  0  0  0
   31.3130    6.2477    4.1744 H   0  0  0  0  0  0  0  0  0  0  0  0
   32.4866    9.9937    5.5041 H   0  0  0  0  0  0  0  0  0  0  0  0
   32.3759    5.2467    6.0722 H   0  0  0  0  0  0  0  0  0  0  0  0
   33.5263    8.9965    7.4143 H   0  0  0  0  0  0  0  0  0  0  0  0
   34.2244    5.6133    7.8287 H   0  0  0  0  0  0  0  0  0  0  0  0
   34.3756    7.0972    8.4934 H   0  0  0  0  0  0  0  0  0  0  0  0
   32.2398    6.8212    9.5321 H   0  0  0  0  0  0  0  0  0  0  0  0
  1  2  2  0  0  0  0
  1  3  2  0  0  0  0
  1  6  1  0  0  0  0
  1  7  1  0  0  0  0
  4 14  1  0  0  0  0
  5 14  2  0  0  0  0
  7 15  1  0  0  0  0
  8  9  2  0  0  0  0
  8 10  1  0  0  0  0
  9 11  1  0  0  0  0
 10 12  2  0  0  0  0
 11 16  2  0  0  0  0
 12 16  1  0  0  0  0
 13 15  1  0  0  0  0
 13 16  1  0  0  0  0
 14 15  1  0  0  0  0
  4 17  1  0  0  0  0
  6 18  1  0  0  0  0
  6 19  1  0  0  0  0
  7 20  1  0  0  0  0
  8 21  1  0  0  0  0
  9 22  1  0  0  0  0
 10 23  1  0  0  0  0
 11 24  1  0  0  0  0
 12 25  1  0  0  0  0
 13 26  1  0  0  0  0
 13 27  1  0  0  0  0
 15 28  1  0  0  0  0
M  END
> <pdb_id>
5J1Q

> <uniprot_id>
P09955

> <usmiles>
S(=O)(=O)(N[C@H](C(=O)O)Cc1ccccc1)N

$$$$
CXA_A_500
          07192419023D 1   1.00000     0.00000     0
            
 28 28  0  0  0  0            999 V2000
    5.5240   -9.0860   18.0720 S   0  0  0  0  0  0  0  0  0  0  0  0
    5.9080   -9.9330   19.1610 O   0  0  0  0  0  0  0  0  0  0  0  0
    4.2640   -8.4050   18.0460 O   0  0  0  0  0  0  0  0  0  0  0  0
    3.4260   -7.9600   14.7460 O   0  0  0  0  0  0  0  0  0  0  0  0
    3.0340   -9.9880   15.5480 O   0  0  0  0  0  0  0  0  0  0  0  0
    6.5090   -7.7220   18.3080 N   0  0  0  0  0  0  0  0  0  0  0  0
    5.6840   -9.9530   16.5590 N   0  0  0  0  0  0  0  0  0  0  0  0
    4.9950   -8.4330   10.0260 C   0  0  0  0  0  0  0  0  0  0  0  0
    6.1860   -8.0880   10.7100 C   0  0  0  0  0  0  0  0  0  0  0  0
    4.0960   -9.3430   10.6130 C   0  0  0  0  0  0  0  0  0  0  0  0
    6.4700   -8.6550   11.9840 C   0  0  0  0  0  0  0  0  0  0  0  0
    4.3830   -9.9050   11.8760 C   0  0  0  0  0  0  0  0  0  0  0  0
    5.8360  -10.1860   13.9590 C   0  0  0  0  0  0  0  0  0  0  0  0
    3.8240   -9.1650   15.2020 C   0  0  0  0  0  0  0  0  0  0  0  0
    5.3710   -9.3430   15.2250 C   0  0  1  0  0  0  0  0  0  0  0  0
    5.5640   -9.5750   12.5890 C   0  0  0  0  0  0  0  0  0  0  0  0
    4.1055   -7.2840   14.4608 H   0  0  0  0  0  0  0  0  0  0  0  0
    6.3239   -7.0492   17.5917 H   0  0  0  0  0  0  0  0  0  0  0  0
    6.3125   -7.3196   19.2021 H   0  0  0  0  0  0  0  0  0  0  0  0
    5.0934  -10.7560   16.6390 H   0  0  0  0  0  0  0  0  0  0  0  0
    4.7941   -8.0327    9.1319 H   0  0  0  0  0  0  0  0  0  0  0  0
    6.8295   -7.4439   10.2965 H   0  0  0  0  0  0  0  0  0  0  0  0
    3.2535   -9.5917   10.1352 H   0  0  0  0  0  0  0  0  0  0  0  0
    7.3135   -8.4057   12.4598 H   0  0  0  0  0  0  0  0  0  0  0  0
    3.7365  -10.5530   12.2786 H   0  0  0  0  0  0  0  0  0  0  0  0
    5.3679  -11.0689   13.9949 H   0  0  0  0  0  0  0  0  0  0  0  0
    6.8228  -10.3285   14.0362 H   0  0  0  0  0  0  0  0  0  0  0  0
    5.7966   -8.4392   15.1800 H   0  0  0  0  0  0  0  0  0  0  0  0
  1  2  2  0  0  0  0
  1  3  2  0  0  0  0
  1  6  1  0  0  0  0
  1  7  1  0  0  0  0
  4 14  1  0  0  0  0
  5 14  2  0  0  0  0
  7 15  1  0  0  0  0
  8  9  2  0  0  0  0
  8 10  1  0  0  0  0
  9 11  1  0  0  0  0
 10 12  2  0  0  0  0
 11 16  2  0  0  0  0
 12 16  1  0  0  0  0
 13 15  1  0  0  0  0
 13 16  1  0  0  0  0
 14 15  1  0  0  0  0
  4 17  1  0  0  0  0
  6 18  1  0  0  0  0
  6 19  1  0  0  0  0
  7 20  1  0  0  0  0
  8 21  1  0  0  0  0
  9 22  1  0  0  0  0
 10 23  1  0  0  0  0
 11 24  1  0  0  0  0
 12 25  1  0  0  0  0
 13 26  1  0  0  0  0
 13 27  1  0  0  0  0
 15 28  1  0  0  0  0
M  END
> <pdb_id>
1IY7

> <uniprot_id>
P00730

> <usmiles>
S(=O)(=O)(N[C@H](C(=O)O)Cc1ccccc1)N

$$$$
CZ5_A_500
          07202407183D 1   1.00000     0.00000     0
            
 43 45  0  0  0  0            999 V2000
   27.4184   18.5530   -2.8688 O   0  0  0  0  0  0  0  0  0  0  0  0
   32.7396   18.5134   -7.6924 O   0  0  0  0  0  0  0  0  0  0  0  0
   31.0638   20.9277   -6.9221 N   0  0  0  0  0  0  0  0  0  0  0  0
   37.4130   20.4874   -6.8716 N   0  0  0  0  0  0  0  0  0  0  0  0
   27.2909   16.8187   -1.4541 N   0  0  0  0  0  0  0  0  0  0  0  0
   31.1561   16.9916   -3.7218 N   0  0  0  0  0  0  0  0  0  0  0  0
   29.0881   16.9900   -2.8322 N   0  0  0  0  0  0  0  0  0  0  0  0
   34.1554   19.0671   -5.9763 N   0  0  0  0  0  0  0  0  0  0  0  0
   30.2552   19.9118   -6.5537 N   0  0  0  0  0  0  0  0  0  0  0  0
   25.9940   16.8319    0.6420 C   0  0  0  0  0  0  0  0  0  0  0  0
   26.0289   17.2444   -0.8318 C   0  0  0  0  0  0  0  0  0  0  0  0
   30.4012   21.7294   -7.7647 C   0  0  0  0  0  0  0  0  0  0  0  0
   37.7012   19.8410   -8.0881 C   0  0  0  0  0  0  0  0  0  0  0  0
   36.2098   20.1998   -6.1915 C   0  0  0  0  0  0  0  0  0  0  0  0
   32.1483   17.4128   -4.6224 C   0  0  0  0  0  0  0  0  0  0  0  0
   29.0754   20.1376   -7.1603 C   0  0  0  0  0  0  0  0  0  0  0  0
   29.1707   21.2437   -7.9041 C   0  0  0  0  0  0  0  0  0  0  0  0
   36.7902   18.9353   -8.6032 C   0  0  0  0  0  0  0  0  0  0  0  0
   35.5981   18.6656   -7.9296 C   0  0  0  0  0  0  0  0  0  0  0  0
   29.6289   18.4962   -4.7466 C   0  0  0  0  0  0  0  0  0  0  0  0
   27.9013   17.5079   -2.4354 C   0  0  0  0  0  0  0  0  0  0  0  0
   32.9546   18.7090   -6.4968 C   0  0  0  0  0  0  0  0  0  0  0  0
   29.9149   17.5162   -3.7630 C   0  0  0  0  0  0  0  0  0  0  0  0
   35.2733   19.3016   -6.7131 C   0  0  0  0  0  0  0  0  0  0  0  0
   30.5950   18.9330   -5.6745 C   0  0  0  0  0  0  0  0  0  0  0  0
   31.9014   18.3947   -5.5935 C   0  0  0  0  0  0  0  0  0  0  0  0
   27.7174   15.9737   -1.1317 H   0  0  0  0  0  0  0  0  0  0  0  0
   29.3799   16.1389   -2.3959 H   0  0  0  0  0  0  0  0  0  0  0  0
   34.2225   19.1650   -4.9834 H   0  0  0  0  0  0  0  0  0  0  0  0
   25.1307   17.1281    1.0507 H   0  0  0  0  0  0  0  0  0  0  0  0
   26.0719   15.8373    0.7117 H   0  0  0  0  0  0  0  0  0  0  0  0
   26.7565   17.2607    1.1264 H   0  0  0  0  0  0  0  0  0  0  0  0
   25.2637   16.8157   -1.3121 H   0  0  0  0  0  0  0  0  0  0  0  0
   25.9484   18.2390   -0.8974 H   0  0  0  0  0  0  0  0  0  0  0  0
   30.7660   22.5472   -8.2098 H   0  0  0  0  0  0  0  0  0  0  0  0
   38.5536   20.0338   -8.5742 H   0  0  0  0  0  0  0  0  0  0  0  0
   36.0230   20.6483   -5.3174 H   0  0  0  0  0  0  0  0  0  0  0  0
   33.0578   17.0004   -4.5698 H   0  0  0  0  0  0  0  0  0  0  0  0
   28.2581   19.5687   -7.0690 H   0  0  0  0  0  0  0  0  0  0  0  0
   28.4441   21.6374   -8.4671 H   0  0  0  0  0  0  0  0  0  0  0  0
   36.9879   18.4700   -9.4659 H   0  0  0  0  0  0  0  0  0  0  0  0
   34.9574   18.0042   -8.3194 H   0  0  0  0  0  0  0  0  0  0  0  0
   28.7107   18.8907   -4.7832 H   0  0  0  0  0  0  0  0  0  0  0  0
  1 21  2  0  0  0  0
  2 22  2  0  0  0  0
  3  9  1  0  0  0  0
  3 12  2  0  0  0  0
  4 13  2  0  0  0  0
  4 14  1  0  0  0  0
  5 11  1  0  0  0  0
  5 21  1  0  0  0  0
  6 15  1  0  0  0  0
  6 23  2  0  0  0  0
  7 21  1  0  0  0  0
  7 23  1  0  0  0  0
  8 22  1  0  0  0  0
  8 24  1  0  0  0  0
  9 16  1  0  0  0  0
  9 25  1  0  0  0  0
 10 11  1  0  0  0  0
 12 17  1  0  0  0  0
 13 18  1  0  0  0  0
 14 24  2  0  0  0  0
 15 26  2  0  0  0  0
 16 17  2  0  0  0  0
 18 19  2  0  0  0  0
 19 24  1  0  0  0  0
 20 23  1  0  0  0  0
 20 25  2  0  0  0  0
 22 26  1  0  0  0  0
 25 26  1  0  0  0  0
  5 27  1  0  0  0  0
  7 28  1  0  0  0  0
  8 29  1  0  0  0  0
 10 30  1  0  0  0  0
 10 31  1  0  0  0  0
 10 32  1  0  0  0  0
 11 33  1  0  0  0  0
 11 34  1  0  0  0  0
 12 35  1  0  0  0  0
 13 36  1  0  0  0  0
 14 37  1  0  0  0  0
 15 38  1  0  0  0  0
 16 39  1  0  0  0  0
 17 40  1  0  0  0  0
 18 41  1  0  0  0  0
 19 42  1  0  0  0  0
 20 43  1  0  0  0  0
M  END
> <pdb_id>
6F8J

> <uniprot_id>
P0AES7

> <usmiles>
O=C(Nc1ncc(c(N2N=CC=C2)c1)C(=O)Nc3cnccc3)NCC

$$$$
CZV_A_1003
          07202411583D 1   1.00000     0.00000     0
            
 35 38  0  0  0  0            999 V2000
   10.7234    4.0366   16.0329 Cl  0  0  0  0  0  0  0  0  0  0  0  0
   18.5160    6.0845   22.2812 F   0  0  0  0  0  0  0  0  0  0  0  0
   17.7810    5.7528   24.2854 F   0  0  0  0  0  0  0  0  0  0  0  0
   19.1931    4.4281   23.4026 F   0  0  0  0  0  0  0  0  0  0  0  0
   15.8356    0.9815   17.2234 N   0  0  0  0  0  0  0  0  0  0  0  0
   15.0099    1.3898   16.2175 N   0  0  0  0  0  0  0  0  0  0  0  0
   12.8613    2.6036   16.0627 N   0  0  0  0  0  0  0  0  0  0  0  0
   11.9252    3.2392   18.1703 N   0  0  0  0  0  0  0  0  0  0  0  0
   12.8154    2.5983   20.1930 N   0  0  0  0  0  0  0  0  0  0  0  0
   15.2487    1.3451   18.3477 C   0  0  0  0  0  0  0  0  0  0  0  0
   16.8574    2.9753   22.9618 C   0  0  0  0  0  0  0  0  0  0  0  0
   16.0334    4.8550   21.7373 C   0  0  0  0  0  0  0  0  0  0  0  0
   15.8092    2.2069   22.4876 C   0  0  0  0  0  0  0  0  0  0  0  0
   14.9754    4.0869   21.2707 C   0  0  0  0  0  0  0  0  0  0  0  0
   13.7128    0.4024   21.1295 C   0  0  0  0  0  0  0  0  0  0  0  0
   12.9685    1.0769   22.2290 C   0  0  0  0  0  0  0  0  0  0  0  0
   11.9773    3.1794   16.8518 C   0  0  0  0  0  0  0  0  0  0  0  0
   13.9038    2.0126   16.6652 C   0  0  0  0  0  0  0  0  0  0  0  0
   12.9236    2.6431   18.8420 C   0  0  0  0  0  0  0  0  0  0  0  0
   16.9842    4.3095   22.5949 C   0  0  0  0  0  0  0  0  0  0  0  0
   14.8440    2.7518   21.6428 C   0  0  0  0  0  0  0  0  0  0  0  0
   14.0126    2.0035   18.1555 C   0  0  0  0  0  0  0  0  0  0  0  0
   18.1033    5.1416   23.1358 C   0  0  0  0  0  0  0  0  0  0  0  0
   13.6650    1.9172   21.1764 C   0  0  0  0  0  0  0  0  0  0  0  0
   15.2060    1.2419   15.2481 H   0  0  0  0  0  0  0  0  0  0  0  0
   12.0423    3.1042   20.5755 H   0  0  0  0  0  0  0  0  0  0  0  0
   15.6412    1.1712   19.2508 H   0  0  0  0  0  0  0  0  0  0  0  0
   17.5319    2.5656   23.5760 H   0  0  0  0  0  0  0  0  0  0  0  0
   16.1132    5.8108   21.4543 H   0  0  0  0  0  0  0  0  0  0  0  0
   15.7432    1.2456   22.7551 H   0  0  0  0  0  0  0  0  0  0  0  0
   14.2990    4.4979   20.6594 H   0  0  0  0  0  0  0  0  0  0  0  0
   13.2122   -0.0904   20.4177 H   0  0  0  0  0  0  0  0  0  0  0  0
   14.5686   -0.0758   21.3270 H   0  0  0  0  0  0  0  0  0  0  0  0
   13.3259    1.0504   23.1625 H   0  0  0  0  0  0  0  0  0  0  0  0
   11.9696    1.0358   22.2532 H   0  0  0  0  0  0  0  0  0  0  0  0
  1 17  1  0  0  0  0
  2 23  1  0  0  0  0
  3 23  1  0  0  0  0
  4 23  1  0  0  0  0
  5  6  1  0  0  0  0
  5 10  2  0  0  0  0
  6 18  1  0  0  0  0
  7 17  1  0  0  0  0
  7 18  2  0  0  0  0
  8 17  2  0  0  0  0
  8 19  1  0  0  0  0
  9 19  1  0  0  0  0
  9 24  1  0  0  0  0
 10 22  1  0  0  0  0
 11 13  2  0  0  0  0
 11 20  1  0  0  0  0
 12 14  1  0  0  0  0
 12 20  2  0  0  0  0
 13 21  1  0  0  0  0
 14 21  2  0  0  0  0
 15 16  1  0  0  0  0
 15 24  1  0  0  0  0
 16 24  1  0  0  0  0
 18 22  1  0  0  0  0
 19 22  2  0  0  0  0
 20 23  1  0  0  0  0
 21 24  1  0  0  0  0
  6 25  1  0  0  0  0
  9 26  1  0  0  0  0
 10 27  1  0  0  0  0
 11 28  1  0  0  0  0
 12 29  1  0  0  0  0
 13 30  1  0  0  0  0
 14 31  1  0  0  0  0
 15 32  1  0  0  0  0
 15 33  1  0  0  0  0
 16 34  1  0  0  0  0
 16 35  1  0  0  0  0
M  END
> <pdb_id>
6B96

> <uniprot_id>
O00408

> <usmiles>
Clc1nc2NN=Cc2c(n1)NC3(c4ccc(cc4)C(F)(F)F)CC3

$$$$
CZY_A_1003
          07202411583D 1   1.00000     0.00000     0
            
 37 39  0  0  0  0            999 V2000
   10.6663    4.3533   16.6049 Cl  0  0  0  0  0  0  0  0  0  0  0  0
   19.2712    5.1335   22.9069 F   0  0  0  0  0  0  0  0  0  0  0  0
   18.0169    5.8053   24.5022 F   0  0  0  0  0  0  0  0  0  0  0  0
   17.9884    6.7173   22.6053 F   0  0  0  0  0  0  0  0  0  0  0  0
   15.6554    1.0006   17.2558 N   0  0  0  0  0  0  0  0  0  0  0  0
   11.9248    3.2847   18.6017 N   0  0  0  0  0  0  0  0  0  0  0  0
   12.7097    2.7755   16.3952 N   0  0  0  0  0  0  0  0  0  0  0  0
   12.9850    2.5111   20.5041 N   0  0  0  0  0  0  0  0  0  0  0  0
   14.7629    1.5193   16.3519 N   0  0  0  0  0  0  0  0  0  0  0  0
   15.0167    1.3497   14.9287 C   0  0  0  0  0  0  0  0  0  0  0  0
   13.1392    1.2329   22.5662 C   0  0  0  0  0  0  0  0  0  0  0  0
   15.1726    1.2800   18.4469 C   0  0  0  0  0  0  0  0  0  0  0  0
   14.9853    4.1283   21.4916 C   0  0  0  0  0  0  0  0  0  0  0  0
   16.0298    2.3770   22.7369 C   0  0  0  0  0  0  0  0  0  0  0  0
   15.9570    5.0166   21.9234 C   0  0  0  0  0  0  0  0  0  0  0  0
   16.9935    3.2683   23.1825 C   0  0  0  0  0  0  0  0  0  0  0  0
   11.8966    3.3296   17.2798 C   0  0  0  0  0  0  0  0  0  0  0  0
   12.9476    2.6108   19.1558 C   0  0  0  0  0  0  0  0  0  0  0  0
   13.7323    2.1252   16.9833 C   0  0  0  0  0  0  0  0  0  0  0  0
   13.9300    1.8360   21.4078 C   0  0  2  0  0  0  0  0  0  0  0  0
   15.0082    2.7942   21.8856 C   0  0  0  0  0  0  0  0  0  0  0  0
   16.9761    4.5985   22.7723 C   0  0  0  0  0  0  0  0  0  0  0  0
   13.9544    1.9906   18.3558 C   0  0  0  0  0  0  0  0  0  0  0  0
   18.0518    5.5506   23.2048 C   0  0  0  0  0  0  0  0  0  0  0  0
   12.2357    2.9808   20.9709 H   0  0  0  0  0  0  0  0  0  0  0  0
   14.2813    1.7800   14.4053 H   0  0  0  0  0  0  0  0  0  0  0  0
   15.8888    1.7781   14.6923 H   0  0  0  0  0  0  0  0  0  0  0  0
   15.0544    0.3745   14.7107 H   0  0  0  0  0  0  0  0  0  0  0  0
   13.7663    0.7690   23.1920 H   0  0  0  0  0  0  0  0  0  0  0  0
   12.6575    1.9601   23.0553 H   0  0  0  0  0  0  0  0  0  0  0  0
   12.4760    0.5747   22.2101 H   0  0  0  0  0  0  0  0  0  0  0  0
   15.6118    1.0223   19.3075 H   0  0  0  0  0  0  0  0  0  0  0  0
   14.2566    4.4510   20.8876 H   0  0  0  0  0  0  0  0  0  0  0  0
   16.0681    1.4218   23.0302 H   0  0  0  0  0  0  0  0  0  0  0  0
   15.9251    5.9693   21.6212 H   0  0  0  0  0  0  0  0  0  0  0  0
   17.7091    2.9523   23.8055 H   0  0  0  0  0  0  0  0  0  0  0  0
   14.3699    1.0917   20.9052 H   0  0  0  0  0  0  0  0  0  0  0  0
  1 17  1  0  0  0  0
  2 24  1  0  0  0  0
  3 24  1  0  0  0  0
  4 24  1  0  0  0  0
  5  9  1  0  0  0  0
  5 12  2  0  0  0  0
  6 17  2  0  0  0  0
  6 18  1  0  0  0  0
  7 17  1  0  0  0  0
  7 19  2  0  0  0  0
  8 18  1  0  0  0  0
  8 20  1  0  0  0  0
  9 10  1  0  0  0  0
  9 19  1  0  0  0  0
 11 20  1  0  0  0  0
 12 23  1  0  0  0  0
 13 15  2  0  0  0  0
 13 21  1  0  0  0  0
 14 16  1  0  0  0  0
 14 21  2  0  0  0  0
 15 22  1  0  0  0  0
 16 22  2  0  0  0  0
 18 23  2  0  0  0  0
 19 23  1  0  0  0  0
 20 21  1  0  0  0  0
 22 24  1  0  0  0  0
  8 25  1  0  0  0  0
 10 26  1  0  0  0  0
 10 27  1  0  0  0  0
 10 28  1  0  0  0  0
 11 29  1  0  0  0  0
 11 30  1  0  0  0  0
 11 31  1  0  0  0  0
 12 32  1  0  0  0  0
 13 33  1  0  0  0  0
 14 34  1  0  0  0  0
 15 35  1  0  0  0  0
 16 36  1  0  0  0  0
 20 37  1  0  0  0  0
M  END
> <pdb_id>
6B97

> <uniprot_id>
O00408

> <usmiles>
Clc1nc2N(N=Cc2c(n1)N[C@@H](c3ccc(cc3)C(F)(F)F)C)C

$$$$
D0A_A_601
          07192421333D 1   1.00000     0.00000     0
            
 37 40  0  0  0  0            999 V2000
   19.5149   68.9714    3.9885 F   0  0  0  0  0  0  0  0  0  0  0  0
   10.2661   63.1997    6.5387 F   0  0  0  0  0  0  0  0  0  0  0  0
    9.8778   64.7699    5.1679 F   0  0  0  0  0  0  0  0  0  0  0  0
    9.7133   62.7449    4.4901 F   0  0  0  0  0  0  0  0  0  0  0  0
   17.3308   68.7398    1.0831 N   0  0  0  0  0  0  0  0  0  0  0  0
   14.4840   65.7800    7.3170 N   0  0  0  0  0  0  0  0  0  0  0  0
   15.7352   66.2242    5.3321 N   0  0  0  0  0  0  0  0  0  0  0  0
   12.6495   64.4312    5.6158 N   0  0  0  0  0  0  0  0  0  0  0  0
   15.1967   67.1248    9.2424 N   0  0  0  0  0  0  0  0  0  0  0  0
   17.3587   67.8675    5.1934 N   0  0  0  0  0  0  0  0  0  0  0  0
   16.2522   68.2290    1.6808 C   0  0  0  0  0  0  0  0  0  0  0  0
   16.0725   68.1645    9.4391 C   0  0  0  0  0  0  0  0  0  0  0  0
   18.4190   68.9256    1.8364 C   0  0  0  0  0  0  0  0  0  0  0  0
   13.6548   63.2276    3.3271 C   0  0  0  0  0  0  0  0  0  0  0  0
   16.2028   67.8876    3.0218 C   0  0  0  0  0  0  0  0  0  0  0  0
   16.7273   68.4501    8.2832 C   0  0  0  0  0  0  0  0  0  0  0  0
   14.4577   64.0587    4.0864 C   0  0  0  0  0  0  0  0  0  0  0  0
   12.3502   63.0068    3.7128 C   0  0  0  0  0  0  0  0  0  0  0  0
   14.7705   65.5918    6.0153 C   0  0  0  0  0  0  0  0  0  0  0  0
   15.2283   66.7141    7.9424 C   0  0  0  0  0  0  0  0  0  0  0  0
   16.4386   67.1835    5.9298 C   0  0  0  0  0  0  0  0  0  0  0  0
   18.4594   68.6436    3.1978 C   0  0  0  0  0  0  0  0  0  0  0  0
   13.9241   64.6518    5.2297 C   0  0  0  0  0  0  0  0  0  0  0  0
   17.3364   68.1001    3.8118 C   0  0  0  0  0  0  0  0  0  0  0  0
   11.8782   63.6355    4.8546 C   0  0  0  0  0  0  0  0  0  0  0  0
   16.2330   67.5262    7.2979 C   0  0  0  0  0  0  0  0  0  0  0  0
   10.4304   63.5850    5.2633 C   0  0  0  0  0  0  0  0  0  0  0  0
   14.6288   66.6787    9.9514 H   0  0  0  0  0  0  0  0  0  0  0  0
   18.1454   68.2440    5.7113 H   0  0  0  0  0  0  0  0  0  0  0  0
   15.3787   68.1110    1.0446 H   0  0  0  0  0  0  0  0  0  0  0  0
   16.1909   68.6380   10.4112 H   0  0  0  0  0  0  0  0  0  0  0  0
   19.3107   69.2740    1.3203 H   0  0  0  0  0  0  0  0  0  0  0  0
   14.0568   62.7201    2.4542 H   0  0  0  0  0  0  0  0  0  0  0  0
   15.2557   67.5132    3.4055 H   0  0  0  0  0  0  0  0  0  0  0  0
   17.4597   69.2402    8.1258 H   0  0  0  0  0  0  0  0  0  0  0  0
   15.4883   64.2125    3.7719 H   0  0  0  0  0  0  0  0  0  0  0  0
   11.7235   62.3565    3.1045 H   0  0  0  0  0  0  0  0  0  0  0  0
  1 22  1  0  0  0  0
  2 27  1  0  0  0  0
  3 27  1  0  0  0  0
  4 27  1  0  0  0  0
  5 11  2  0  0  0  0
  5 13  1  0  0  0  0
  6 19  2  0  0  0  0
  6 20  1  0  0  0  0
  7 19  1  0  0  0  0
  7 21  2  0  0  0  0
  8 23  2  0  0  0  0
  8 25  1  0  0  0  0
  9 12  1  0  0  0  0
  9 20  1  0  0  0  0
  9 28  1  0  0  0  0
 10 21  1  0  0  0  0
 10 24  1  0  0  0  0
 10 29  1  0  0  0  0
 11 15  1  0  0  0  0
 11 30  1  0  0  0  0
 12 16  2  0  0  0  0
 12 31  1  0  0  0  0
 13 22  2  0  0  0  0
 13 32  1  0  0  0  0
 14 17  2  0  0  0  0
 14 18  1  0  0  0  0
 14 33  1  0  0  0  0
 15 24  2  0  0  0  0
 15 34  1  0  0  0  0
 16 26  1  0  0  0  0
 16 35  1  0  0  0  0
 17 23  1  0  0  0  0
 17 36  1  0  0  0  0
 18 25  2  0  0  0  0
 18 37  1  0  0  0  0
 19 23  1  0  0  0  0
 20 26  2  0  0  0  0
 21 26  1  0  0  0  0
 22 24  1  0  0  0  0
 25 27  1  0  0  0  0
M  END
> <pdb_id>
6B8Y

> <uniprot_id>
P36897

> <usmiles>
Fc1c(Nc2nc(nc3NC=Cc23)c4nc(ccc4)C(F)(F)F)ccnc1

$$$$
D1Q_A_700
          07192422073D 1   1.00000     0.00000     0
            
 63 66  0  0  0  0            999 V2000
   42.7280   28.6847   12.2064 Cl  0  0  0  0  0  0  0  0  0  0  0  0
   34.3670   33.6838   17.2221 S   0  0  0  0  0  0  0  0  0  0  0  0
   27.9198   29.8878   12.3283 O   0  0  0  0  0  0  0  0  0  0  0  0
   27.8712   30.6440   14.4189 O   0  0  0  0  0  0  0  0  0  0  0  0
   36.3517   26.9965   14.5222 O   0  0  0  0  0  0  0  0  0  0  0  0
   32.8189   32.4900   15.1707 O   0  0  0  0  0  0  0  0  0  0  0  0
   34.7070   31.2088   17.9487 N   0  0  0  0  0  0  0  0  0  0  0  0
   36.8176   28.4828   12.8481 N   0  0  0  0  0  0  0  0  0  0  0  0
   32.8126   30.3389   15.8697 N   0  0  0  0  0  0  0  0  0  0  0  0
   36.7203   33.8673   20.5891 N   0  0  0  0  0  0  0  0  0  0  0  0
   37.4539   34.3988   22.8856 C   0  0  0  0  0  0  0  0  0  0  0  0
   38.8572   35.2054   20.9241 C   0  0  0  0  0  0  0  0  0  0  0  0
   37.3184   32.4706   20.4640 C   0  0  0  0  0  0  0  0  0  0  0  0
   36.0957   34.4183   19.3317 C   0  0  0  0  0  0  0  0  0  0  0  0
   40.4732   28.0541   13.5321 C   0  0  0  0  0  0  0  0  0  0  0  0
   40.1532   28.9749   11.3040 C   0  0  0  0  0  0  0  0  0  0  0  0
   34.5304   27.9914   13.3619 C   0  0  0  0  0  0  0  0  0  0  0  0
   36.3007   31.4279   19.9302 C   0  0  0  0  0  0  0  0  0  0  0  0
   39.0933   27.9516   13.6728 C   0  0  0  0  0  0  0  0  0  0  0  0
   38.7674   28.8796   11.4446 C   0  0  0  0  0  0  0  0  0  0  0  0
   33.6652   27.7390   14.6087 C   0  0  0  0  0  0  0  0  0  0  0  0
   30.1919   28.2659   13.2041 C   0  0  0  0  0  0  0  0  0  0  0  0
   31.4409   27.7371   13.4944 C   0  0  0  0  0  0  0  0  0  0  0  0
   30.6489   30.1460   14.6571 C   0  0  0  0  0  0  0  0  0  0  0  0
   34.0845   32.0149   17.0711 C   0  0  0  0  0  0  0  0  0  0  0  0
   28.4386   30.0300   13.4793 C   0  0  0  0  0  0  0  0  0  0  0  0
   40.9873   28.5627   12.3512 C   0  0  0  0  0  0  0  0  0  0  0  0
   36.0037   27.7790   13.6325 C   0  0  0  0  0  0  0  0  0  0  0  0
   33.1704   31.6166   15.9506 C   0  0  0  0  0  0  0  0  0  0  0  0
   35.3783   33.3272   18.5414 C   0  0  0  0  0  0  0  0  0  0  0  0
   37.4399   34.8722   21.4289 C   0  0  0  0  0  0  0  0  0  0  0  0
   38.2347   28.3694   12.6343 C   0  0  0  0  0  0  0  0  0  0  0  0
   35.4499   31.9818   18.7876 C   0  0  0  0  0  0  0  0  0  0  0  0
   31.9144   29.6333   14.9657 C   0  0  0  0  0  0  0  0  0  0  0  0
   29.7909   29.4656   13.7831 C   0  0  0  0  0  0  0  0  0  0  0  0
   32.3025   28.4133   14.3746 C   0  0  0  0  0  0  0  0  0  0  0  0
   28.4136   29.3901   11.6153 H   0  0  0  0  0  0  0  0  0  0  0  0
   36.3709   29.2071   12.3228 H   0  0  0  0  0  0  0  0  0  0  0  0
   33.2398   29.7526   16.5580 H   0  0  0  0  0  0  0  0  0  0  0  0
   37.9350   35.0700   23.4496 H   0  0  0  0  0  0  0  0  0  0  0  0
   36.5142   34.3006   23.2132 H   0  0  0  0  0  0  0  0  0  0  0  0
   37.9215   33.5169   22.9451 H   0  0  0  0  0  0  0  0  0  0  0  0
   39.2770   35.8805   21.5307 H   0  0  0  0  0  0  0  0  0  0  0  0
   39.4123   34.3736   20.9162 H   0  0  0  0  0  0  0  0  0  0  0  0
   38.8021   35.5781   19.9978 H   0  0  0  0  0  0  0  0  0  0  0  0
   37.6345   32.1762   21.3659 H   0  0  0  0  0  0  0  0  0  0  0  0
   38.0949   32.5105   19.8353 H   0  0  0  0  0  0  0  0  0  0  0  0
   36.8130   34.8161   18.7596 H   0  0  0  0  0  0  0  0  0  0  0  0
   35.4358   35.1274   19.5801 H   0  0  0  0  0  0  0  0  0  0  0  0
   41.0830   27.7658   14.2703 H   0  0  0  0  0  0  0  0  0  0  0  0
   40.5486   29.3359   10.4594 H   0  0  0  0  0  0  0  0  0  0  0  0
   34.3917   28.9345   13.0598 H   0  0  0  0  0  0  0  0  0  0  0  0
   34.2427   27.3639   12.6384 H   0  0  0  0  0  0  0  0  0  0  0  0
   35.6962   31.1558   20.6789 H   0  0  0  0  0  0  0  0  0  0  0  0
   36.8025   30.6286   19.5996 H   0  0  0  0  0  0  0  0  0  0  0  0
   38.7068   27.5789   14.5165 H   0  0  0  0  0  0  0  0  0  0  0  0
   38.1625   29.1723   10.7040 H   0  0  0  0  0  0  0  0  0  0  0  0
   34.1063   28.1328   15.4152 H   0  0  0  0  0  0  0  0  0  0  0  0
   33.5404   26.7560   14.7437 H   0  0  0  0  0  0  0  0  0  0  0  0
   29.5789   27.7842   12.5779 H   0  0  0  0  0  0  0  0  0  0  0  0
   31.7282   26.8748   13.0773 H   0  0  0  0  0  0  0  0  0  0  0  0
   30.3533   31.0095   15.0660 H   0  0  0  0  0  0  0  0  0  0  0  0
   36.9083   35.7187   21.3980 H   0  0  0  0  0  0  0  0  0  0  0  0
  1 27  1  0  0  0  0
  2 25  1  0  0  0  0
  2 30  1  0  0  0  0
  3 26  1  0  0  0  0
  4 26  2  0  0  0  0
  5 28  2  0  0  0  0
  6 29  2  0  0  0  0
  7 25  2  0  0  0  0
  7 33  1  0  0  0  0
  8 28  1  0  0  0  0
  8 32  1  0  0  0  0
  9 29  1  0  0  0  0
  9 34  1  0  0  0  0
 10 13  1  0  0  0  0
 10 14  1  0  0  0  0
 10 31  1  0  0  0  0
 11 31  1  0  0  0  0
 12 31  1  0  0  0  0
 13 18  1  0  0  0  0
 14 30  1  0  0  0  0
 15 19  1  0  0  0  0
 15 27  2  0  0  0  0
 16 20  2  0  0  0  0
 16 27  1  0  0  0  0
 17 21  1  0  0  0  0
 17 28  1  0  0  0  0
 18 33  1  0  0  0  0
 19 32  2  0  0  0  0
 20 32  1  0  0  0  0
 21 36  1  0  0  0  0
 22 23  1  0  0  0  0
 22 35  2  0  0  0  0
 23 36  2  0  0  0  0
 24 34  2  0  0  0  0
 24 35  1  0  0  0  0
 25 29  1  0  0  0  0
 26 35  1  0  0  0  0
 30 33  2  0  0  0  0
 34 36  1  0  0  0  0
  3 37  1  0  0  0  0
  8 38  1  0  0  0  0
  9 39  1  0  0  0  0
 11 40  1  0  0  0  0
 11 41  1  0  0  0  0
 11 42  1  0  0  0  0
 12 43  1  0  0  0  0
 12 44  1  0  0  0  0
 12 45  1  0  0  0  0
 13 46  1  0  0  0  0
 13 47  1  0  0  0  0
 14 48  1  0  0  0  0
 14 49  1  0  0  0  0
 15 50  1  0  0  0  0
 16 51  1  0  0  0  0
 17 52  1  0  0  0  0
 17 53  1  0  0  0  0
 18 54  1  0  0  0  0
 18 55  1  0  0  0  0
 19 56  1  0  0  0  0
 20 57  1  0  0  0  0
 21 58  1  0  0  0  0
 21 59  1  0  0  0  0
 22 60  1  0  0  0  0
 23 61  1  0  0  0  0
 24 62  1  0  0  0  0
 31 63  1  0  0  0  0
M  END
> <pdb_id>
3TK5

> <uniprot_id>
P00742

> <usmiles>
Clc1ccc(NC(=O)CCc2c(NC(=O)C=3SC4=C(N3)CCN(C(C)C)C4)cc(cc2)C(=O)O)cc1

$$$$
D1X_G_147
          07192422283D 1   1.00000     0.00000     0
            
 16 16  0  0  0  0            999 V2000
   31.1920   42.4214    6.0411 O   0  0  0  0  0  0  0  0  0  0  0  0
   29.3552   42.8476    4.8950 O   0  0  0  0  0  0  0  0  0  0  0  0
   27.6459   46.5787    7.9040 O   0  0  0  0  0  0  0  0  0  0  0  0
   29.3328   43.3213   10.7965 O   0  0  0  0  0  0  0  0  0  0  0  0
   28.4503   45.0168    9.3610 N   0  0  0  0  0  0  0  0  0  0  0  0
   28.7745   44.8402    6.9675 C   0  0  0  0  0  0  0  0  0  0  0  0
   29.6661   43.1349    8.4371 C   0  0  0  0  0  0  0  0  0  0  0  0
   30.0447   42.9062    5.9357 C   0  0  0  0  0  0  0  0  0  0  0  0
   28.2657   45.5299    8.0664 C   0  0  0  0  0  0  0  0  0  0  0  0
   29.1548   43.8148    9.5425 C   0  0  0  0  0  0  0  0  0  0  0  0
   29.4735   43.6461    7.1517 C   0  0  0  0  0  0  0  0  0  0  0  0
   31.6918   42.5026    6.9034 H   0  0  0  0  0  0  0  0  0  0  0  0
   29.8335   42.4661   10.9309 H   0  0  0  0  0  0  0  0  0  0  0  0
   28.0813   45.5058   10.1514 H   0  0  0  0  0  0  0  0  0  0  0  0
   28.6385   45.2015    6.0450 H   0  0  0  0  0  0  0  0  0  0  0  0
   30.1707   42.2811    8.5650 H   0  0  0  0  0  0  0  0  0  0  0  0
  1  8  1  0  0  0  0
  2  8  2  0  0  0  0
  3  9  2  0  0  0  0
  4 10  1  0  0  0  0
  5  9  1  0  0  0  0
  5 10  1  0  0  0  0
  6  9  1  0  0  0  0
  6 11  2  0  0  0  0
  7 10  2  0  0  0  0
  7 11  1  0  0  0  0
  8 11  1  0  0  0  0
  1 12  1  0  0  0  0
  4 13  1  0  0  0  0
  5 14  1  0  0  0  0
  6 15  1  0  0  0  0
  7 16  1  0  0  0  0
M  END
> <pdb_id>
3N8K

> <uniprot_id>
P0A4Z6

> <usmiles>
O=C(O)C1=CC(=O)NC(O)=C1

$$$$
D23_A_299
          07192421083D 1   1.00000     0.00000     0
            
 45 47  0  0  0  0            999 V2000
   -2.4163   30.3217    9.8158 F   0  0  0  0  0  0  0  0  0  0  0  0
   -1.6348   31.1860    7.9764 F   0  0  0  0  0  0  0  0  0  0  0  0
   -3.1394   29.6401    7.9223 F   0  0  0  0  0  0  0  0  0  0  0  0
    6.5926   23.0288    9.1302 N   0  0  0  0  0  0  0  0  0  0  0  0
   -1.2142   27.9403    9.3764 N   0  0  0  0  0  0  0  0  0  0  0  0
   -0.0603   29.1481    7.6577 N   0  0  0  0  0  0  0  0  0  0  0  0
   -0.5312   26.0283   10.4121 N   0  0  0  0  0  0  0  0  0  0  0  0
   -1.2922   27.0266   12.5426 C   0  0  0  0  0  0  0  0  0  0  0  0
   -2.9032   25.7831   11.0833 C   0  0  0  0  0  0  0  0  0  0  0  0
   -1.0674   24.4612   12.2286 C   0  0  0  0  0  0  0  0  0  0  0  0
    6.0678   24.1636    5.5864 C   0  0  0  0  0  0  0  0  0  0  0  0
    6.6814   23.4949    6.7168 C   0  0  0  0  0  0  0  0  0  0  0  0
    4.9264   25.0287    5.8535 C   0  0  0  0  0  0  0  0  0  0  0  0
    2.0880   28.4677    6.6282 C   0  0  0  0  0  0  0  0  0  0  0  0
    3.1766   27.5219    6.5610 C   0  0  0  0  0  0  0  0  0  0  0  0
    4.9695   24.6047    8.2960 C   0  0  0  0  0  0  0  0  0  0  0  0
    2.0844   26.1115    8.3843 C   0  0  0  0  0  0  0  0  0  0  0  0
   -0.2202   26.9856    9.3867 C   0  0  0  0  0  0  0  0  0  0  0  0
    6.0931   23.7175    8.0362 C   0  0  0  0  0  0  0  0  0  0  0  0
   -1.1041   29.0028    8.5180 C   0  0  0  0  0  0  0  0  0  0  0  0
    0.9909   28.2519    7.5743 C   0  0  0  0  0  0  0  0  0  0  0  0
    4.3468   25.3175    7.1903 C   0  0  0  0  0  0  0  0  0  0  0  0
    3.2185   26.3083    7.4132 C   0  0  0  0  0  0  0  0  0  0  0  0
    0.9580   27.0505    8.5016 C   0  0  0  0  0  0  0  0  0  0  0  0
   -2.1188   30.0969    8.5606 C   0  0  0  0  0  0  0  0  0  0  0  0
   -1.4384   25.8114   11.5705 C   0  0  0  0  0  0  0  0  0  0  0  0
    6.1962   23.1749   10.0366 H   0  0  0  0  0  0  0  0  0  0  0  0
    7.3495   22.3858    9.0132 H   0  0  0  0  0  0  0  0  0  0  0  0
    0.0689   25.2346   10.3126 H   0  0  0  0  0  0  0  0  0  0  0  0
   -1.8959   26.8985   13.3295 H   0  0  0  0  0  0  0  0  0  0  0  0
   -0.3448   27.0905   12.8563 H   0  0  0  0  0  0  0  0  0  0  0  0
   -1.5423   27.8683   12.0641 H   0  0  0  0  0  0  0  0  0  0  0  0
   -3.5112   25.6372   11.8637 H   0  0  0  0  0  0  0  0  0  0  0  0
   -3.1257   26.6542   10.6456 H   0  0  0  0  0  0  0  0  0  0  0  0
   -3.0212   25.0396   10.4251 H   0  0  0  0  0  0  0  0  0  0  0  0
   -1.6672   24.2961   13.0115 H   0  0  0  0  0  0  0  0  0  0  0  0
   -1.1786   23.7239   11.5622 H   0  0  0  0  0  0  0  0  0  0  0  0
   -0.1168   24.4910   12.5373 H   0  0  0  0  0  0  0  0  0  0  0  0
    6.4152   24.0357    4.6575 H   0  0  0  0  0  0  0  0  0  0  0  0
    7.4784   22.9028    6.5982 H   0  0  0  0  0  0  0  0  0  0  0  0
    4.4942   25.4678    5.0658 H   0  0  0  0  0  0  0  0  0  0  0  0
    2.0829   29.2689    6.0297 H   0  0  0  0  0  0  0  0  0  0  0  0
    3.9257   27.6901    5.9202 H   0  0  0  0  0  0  0  0  0  0  0  0
    4.6275   24.7240    9.2281 H   0  0  0  0  0  0  0  0  0  0  0  0
    2.0977   25.3057    8.9764 H   0  0  0  0  0  0  0  0  0  0  0  0
  1 25  1  0  0  0  0
  2 25  1  0  0  0  0
  3 25  1  0  0  0  0
  4 19  1  0  0  0  0
  5 18  2  0  0  0  0
  5 20  1  0  0  0  0
  6 20  2  0  0  0  0
  6 21  1  0  0  0  0
  7 18  1  0  0  0  0
  7 26  1  0  0  0  0
  8 26  1  0  0  0  0
  9 26  1  0  0  0  0
 10 26  1  0  0  0  0
 11 12  1  0  0  0  0
 11 13  2  0  0  0  0
 12 19  2  0  0  0  0
 13 22  1  0  0  0  0
 14 15  1  0  0  0  0
 14 21  2  0  0  0  0
 15 23  2  0  0  0  0
 16 19  1  0  0  0  0
 16 22  2  0  0  0  0
 17 23  1  0  0  0  0
 17 24  2  0  0  0  0
 18 24  1  0  0  0  0
 20 25  1  0  0  0  0
 21 24  1  0  0  0  0
 22 23  1  0  0  0  0
  4 27  1  0  0  0  0
  4 28  1  0  0  0  0
  7 29  1  0  0  0  0
  8 30  1  0  0  0  0
  8 31  1  0  0  0  0
  8 32  1  0  0  0  0
  9 33  1  0  0  0  0
  9 34  1  0  0  0  0
  9 35  1  0  0  0  0
 10 36  1  0  0  0  0
 10 37  1  0  0  0  0
 10 38  1  0  0  0  0
 11 39  1  0  0  0  0
 12 40  1  0  0  0  0
 13 41  1  0  0  0  0
 14 42  1  0  0  0  0
 15 43  1  0  0  0  0
 16 44  1  0  0  0  0
 17 45  1  0  0  0  0
M  END
> <pdb_id>
2B53

> <uniprot_id>
P24941

> <usmiles>
FC(F)(F)c1nc(NC(C)(C)C)c2c(n1)ccc(c3cc(N)ccc3)c2

$$$$
D25_B_1201
          07202414463D 1   1.00000     0.00000     0
            
 25 27  0  0  0  0            999 V2000
   -4.0362   -5.8374   66.9413 O   0  0  0  0  0  0  0  0  0  0  0  0
   -3.7903   -5.7874   65.7349 N   0  0  0  0  0  0  0  0  0  0  0  0
   -5.1145   -8.8130   70.4404 N   0  0  0  0  0  0  0  0  0  0  0  0
   -4.9705   -8.7637   69.0475 N   0  0  0  0  0  0  0  0  0  0  0  0
   -4.7318   -7.6164   70.9474 C   0  0  0  0  0  0  0  0  0  0  0  0
   -3.1529   -8.1822   61.1465 C   0  0  0  0  0  0  0  0  0  0  0  0
   -3.6882   -6.9255   61.4238 C   0  0  0  0  0  0  0  0  0  0  0  0
   -2.8097   -9.0348   62.1763 C   0  0  0  0  0  0  0  0  0  0  0  0
   -4.3515   -6.8325   69.9110 C   0  0  0  0  0  0  0  0  0  0  0  0
   -3.8865   -6.5105   62.7279 C   0  0  0  0  0  0  0  0  0  0  0  0
   -3.0014   -8.6317   63.4841 C   0  0  0  0  0  0  0  0  0  0  0  0
   -4.0602   -7.8889   66.2454 C   0  0  0  0  0  0  0  0  0  0  0  0
   -4.2239   -7.1049   67.3535 C   0  0  0  0  0  0  0  0  0  0  0  0
   -3.7698   -6.9817   65.1923 C   0  0  0  0  0  0  0  0  0  0  0  0
   -4.5205   -7.5711   68.7218 C   0  0  0  0  0  0  0  0  0  0  0  0
   -3.5360   -7.3675   63.7740 C   0  0  0  0  0  0  0  0  0  0  0  0
   -5.1746   -9.5071   68.4105 H   0  0  0  0  0  0  0  0  0  0  0  0
   -4.7305   -7.3585   71.9135 H   0  0  0  0  0  0  0  0  0  0  0  0
   -3.0170   -8.4673   60.1977 H   0  0  0  0  0  0  0  0  0  0  0  0
   -3.9321   -6.3159   60.6696 H   0  0  0  0  0  0  0  0  0  0  0  0
   -2.4257   -9.9365   61.9776 H   0  0  0  0  0  0  0  0  0  0  0  0
   -4.0108   -5.8947   69.9773 H   0  0  0  0  0  0  0  0  0  0  0  0
   -4.2755   -5.6094   62.9194 H   0  0  0  0  0  0  0  0  0  0  0  0
   -2.7561   -9.2482   64.2324 H   0  0  0  0  0  0  0  0  0  0  0  0
   -4.1297   -8.8849   66.1888 H   0  0  0  0  0  0  0  0  0  0  0  0
  1  2  1  0  0  0  0
  1 13  1  0  0  0  0
  2 14  2  0  0  0  0
  3  4  1  0  0  0  0
  3  5  2  0  0  0  0
  4 15  1  0  0  0  0
  5  9  1  0  0  0  0
  6  7  2  0  0  0  0
  6  8  1  0  0  0  0
  7 10  1  0  0  0  0
  8 11  2  0  0  0  0
  9 15  2  0  0  0  0
 10 16  2  0  0  0  0
 11 16  1  0  0  0  0
 12 13  2  0  0  0  0
 12 14  1  0  0  0  0
 13 15  1  0  0  0  0
 14 16  1  0  0  0  0
  4 17  1  0  0  0  0
  5 18  1  0  0  0  0
  6 19  1  0  0  0  0
  7 20  1  0  0  0  0
  8 21  1  0  0  0  0
  9 22  1  0  0  0  0
 10 23  1  0  0  0  0
 11 24  1  0  0  0  0
 12 25  1  0  0  0  0
M  END
> <pdb_id>
2VCQ

> <uniprot_id>
O60760

> <usmiles>
O1N=C(c2ccccc2)C=C1C=3NN=CC3

$$$$
D26_B_1201
          07202414463D 1   1.00000     0.00000     0
            
 25 27  0  0  0  0            999 V2000
   -4.0438   -8.2240   66.1205 S   0  0  0  0  0  0  0  0  0  0  0  0
   -5.1487   -9.0508   70.5064 N   0  0  0  0  0  0  0  0  0  0  0  0
   -5.0292   -8.9136   69.1269 N   0  0  0  0  0  0  0  0  0  0  0  0
   -3.8370   -5.8256   65.7665 N   0  0  0  0  0  0  0  0  0  0  0  0
   -4.7327   -7.8986   71.0928 C   0  0  0  0  0  0  0  0  0  0  0  0
   -4.1007   -5.9335   67.0463 C   0  0  0  0  0  0  0  0  0  0  0  0
   -3.1053   -7.3480   60.8121 C   0  0  0  0  0  0  0  0  0  0  0  0
   -3.4058   -6.0995   61.3283 C   0  0  0  0  0  0  0  0  0  0  0  0
   -2.9970   -8.4497   61.6433 C   0  0  0  0  0  0  0  0  0  0  0  0
   -4.3483   -7.0401   70.1192 C   0  0  0  0  0  0  0  0  0  0  0  0
   -3.5988   -5.9307   62.6834 C   0  0  0  0  0  0  0  0  0  0  0  0
   -3.1851   -8.2936   63.0073 C   0  0  0  0  0  0  0  0  0  0  0  0
   -3.7293   -6.8946   64.9804 C   0  0  0  0  0  0  0  0  0  0  0  0
   -4.2791   -7.1974   67.5549 C   0  0  0  0  0  0  0  0  0  0  0  0
   -4.5634   -7.7042   68.9005 C   0  0  0  0  0  0  0  0  0  0  0  0
   -3.4785   -7.0315   63.5310 C   0  0  0  0  0  0  0  0  0  0  0  0
   -5.4844   -9.8617   70.9856 H   0  0  0  0  0  0  0  0  0  0  0  0
   -4.7136   -7.7157   72.0758 H   0  0  0  0  0  0  0  0  0  0  0  0
   -4.1696   -5.1253   67.6311 H   0  0  0  0  0  0  0  0  0  0  0  0
   -2.9649   -7.4554   59.8278 H   0  0  0  0  0  0  0  0  0  0  0  0
   -3.4836   -5.3141   60.7142 H   0  0  0  0  0  0  0  0  0  0  0  0
   -2.7850   -9.3499   61.2630 H   0  0  0  0  0  0  0  0  0  0  0  0
   -3.9839   -6.1171   70.2431 H   0  0  0  0  0  0  0  0  0  0  0  0
   -3.8225   -5.0292   63.0539 H   0  0  0  0  0  0  0  0  0  0  0  0
   -3.1110   -9.0832   63.6164 H   0  0  0  0  0  0  0  0  0  0  0  0
  1 13  1  0  0  0  0
  1 14  1  0  0  0  0
  2  3  1  0  0  0  0
  2  5  1  0  0  0  0
  3 15  2  0  0  0  0
  4  6  1  0  0  0  0
  4 13  2  0  0  0  0
  5 10  2  0  0  0  0
  6 14  2  0  0  0  0
  7  8  2  0  0  0  0
  7  9  1  0  0  0  0
  8 11  1  0  0  0  0
  9 12  2  0  0  0  0
 10 15  1  0  0  0  0
 11 16  2  0  0  0  0
 12 16  1  0  0  0  0
 13 16  1  0  0  0  0
 14 15  1  0  0  0  0
  2 17  1  0  0  0  0
  5 18  1  0  0  0  0
  6 19  1  0  0  0  0
  7 20  1  0  0  0  0
  8 21  1  0  0  0  0
  9 22  1  0  0  0  0
 10 23  1  0  0  0  0
 11 24  1  0  0  0  0
 12 25  1  0  0  0  0
M  END
> <pdb_id>
2VCX

> <uniprot_id>
O60760

> <usmiles>
S1C(=NC=C1C2=NNC=C2)c3ccccc3

$$$$
D2R_A_302
          07202402443D 1   1.00000     0.00000     0
            
 53 55  0  0  0  0            999 V2000
   11.5420    4.9540    7.0480 O   0  0  0  0  0  0  0  0  0  0  0  0
   12.0690    6.5540    5.6200 O   0  0  0  0  0  0  0  0  0  0  0  0
   18.7740    1.5370   14.4300 O   0  0  0  0  0  0  0  0  0  0  0  0
    9.8870   -3.2100   11.8780 N   0  0  0  0  0  0  0  0  0  0  0  0
   10.7220    0.5680   14.4510 N   0  0  0  0  0  0  0  0  0  0  0  0
   13.3720   -0.5460   10.5490 N   0  0  0  0  0  0  0  0  0  0  0  0
   10.3280   -1.2690   13.1140 N   0  0  0  0  0  0  0  0  0  0  0  0
   11.6560   -1.8720   11.2790 N   0  0  0  0  0  0  0  0  0  0  0  0
   18.1600    2.3660   15.4310 C   0  0  0  0  0  0  0  0  0  0  0  0
   12.8520    2.4190   13.7090 C   0  0  0  0  0  0  0  0  0  0  0  0
   14.1290    0.5520   10.6830 C   0  0  0  0  0  0  0  0  0  0  0  0
   15.7670    3.7770    7.0630 C   0  0  0  0  0  0  0  0  0  0  0  0
   14.2800    4.0420    7.1810 C   0  0  0  0  0  0  0  0  0  0  0  0
   16.2630    3.3810    8.3950 C   0  0  0  0  0  0  0  0  0  0  0  0
   13.8040    5.0530    6.1520 C   0  0  0  0  0  0  0  0  0  0  0  0
   19.1820    2.0170   12.0960 C   0  0  0  0  0  0  0  0  0  0  0  0
   16.7330    3.0650    9.4700 C   0  0  0  0  0  0  0  0  0  0  0  0
   18.6620    2.4060   10.8630 C   0  0  0  0  0  0  0  0  0  0  0  0
   16.9190    2.1510   13.0570 C   0  0  0  0  0  0  0  0  0  0  0  0
   14.9320    2.7700   11.6970 C   0  0  0  0  0  0  0  0  0  0  0  0
   12.3590    5.5540    6.3010 C   0  0  0  0  0  0  0  0  0  0  0  0
   10.6290   -2.1000   12.1000 C   0  0  0  0  0  0  0  0  0  0  0  0
   18.2950    1.9090   13.2040 C   0  0  0  0  0  0  0  0  0  0  0  0
   11.0600   -0.1900   13.4000 C   0  0  0  0  0  0  0  0  0  0  0  0
   12.3830   -0.7550   11.4300 C   0  0  0  0  0  0  0  0  0  0  0  0
   13.9930    1.5120   11.6850 C   0  0  0  0  0  0  0  0  0  0  0  0
   17.2810    2.6560   10.7320 C   0  0  0  0  0  0  0  0  0  0  0  0
   16.4050    2.5040   11.8220 C   0  0  0  0  0  0  0  0  0  0  0  0
   12.9640    1.3230   12.6220 C   0  0  0  0  0  0  0  0  0  0  0  0
   12.1480    0.1490   12.5120 C   0  0  0  0  0  0  0  0  0  0  0  0
   11.8369    4.1543    7.5711 H   0  0  0  0  0  0  0  0  0  0  0  0
   10.1175   -3.8226   11.1220 H   0  0  0  0  0  0  0  0  0  0  0  0
    9.1083   -3.4175   12.4700 H   0  0  0  0  0  0  0  0  0  0  0  0
   11.2616    1.3791   14.6766 H   0  0  0  0  0  0  0  0  0  0  0  0
    9.9300    0.3229   15.0102 H   0  0  0  0  0  0  0  0  0  0  0  0
   18.5008    2.1056   16.3344 H   0  0  0  0  0  0  0  0  0  0  0  0
   18.3843    3.3243   15.2536 H   0  0  0  0  0  0  0  0  0  0  0  0
   17.1678    2.2449   15.4014 H   0  0  0  0  0  0  0  0  0  0  0  0
   12.0964    2.2002   14.3264 H   0  0  0  0  0  0  0  0  0  0  0  0
   13.7054    2.4616   14.2286 H   0  0  0  0  0  0  0  0  0  0  0  0
   12.6819    3.3034   13.2744 H   0  0  0  0  0  0  0  0  0  0  0  0
   14.8523    0.6947   10.0074 H   0  0  0  0  0  0  0  0  0  0  0  0
   16.2368    4.6053    6.7578 H   0  0  0  0  0  0  0  0  0  0  0  0
   15.9300    3.0403    6.4067 H   0  0  0  0  0  0  0  0  0  0  0  0
   14.0858    4.3955    8.0961 H   0  0  0  0  0  0  0  0  0  0  0  0
   13.7862    3.1833    7.0436 H   0  0  0  0  0  0  0  0  0  0  0  0
   13.8876    4.6304    5.2495 H   0  0  0  0  0  0  0  0  0  0  0  0
   14.4083    5.8480    6.2050 H   0  0  0  0  0  0  0  0  0  0  0  0
   20.1565    1.8182   12.2000 H   0  0  0  0  0  0  0  0  0  0  0  0
   19.2670    2.5075   10.0733 H   0  0  0  0  0  0  0  0  0  0  0  0
   16.3103    2.0680   13.8460 H   0  0  0  0  0  0  0  0  0  0  0  0
   14.6603    3.3449   12.4688 H   0  0  0  0  0  0  0  0  0  0  0  0
   14.7844    3.2678   10.8424 H   0  0  0  0  0  0  0  0  0  0  0  0
  1 21  1  0  0  0  0
  2 21  2  0  0  0  0
  3  9  1  0  0  0  0
  3 23  1  0  0  0  0
  4 22  1  0  0  0  0
  5 24  1  0  0  0  0
  6 11  2  0  0  0  0
  6 25  1  0  0  0  0
  7 22  2  0  0  0  0
  7 24  1  0  0  0  0
  8 22  1  0  0  0  0
  8 25  2  0  0  0  0
 10 29  1  0  0  0  0
 11 26  1  0  0  0  0
 12 13  1  0  0  0  0
 12 14  1  0  0  0  0
 13 15  1  0  0  0  0
 14 17  3  0  0  0  0
 15 21  1  0  0  0  0
 16 18  1  0  0  0  0
 16 23  2  0  0  0  0
 17 27  1  0  0  0  0
 18 27  2  0  0  0  0
 19 23  1  0  0  0  0
 19 28  2  0  0  0  0
 20 26  1  0  0  0  0
 20 28  1  0  0  0  0
 24 30  2  0  0  0  0
 25 30  1  0  0  0  0
 26 29  2  0  0  0  0
 27 28  1  0  0  0  0
 29 30  1  0  0  0  0
  1 31  1  0  0  0  0
  4 32  1  0  0  0  0
  4 33  1  0  0  0  0
  5 34  1  0  0  0  0
  5 35  1  0  0  0  0
  9 36  1  0  0  0  0
  9 37  1  0  0  0  0
  9 38  1  0  0  0  0
 10 39  1  0  0  0  0
 10 40  1  0  0  0  0
 10 41  1  0  0  0  0
 11 42  1  0  0  0  0
 12 43  1  0  0  0  0
 12 44  1  0  0  0  0
 13 45  1  0  0  0  0
 13 46  1  0  0  0  0
 15 47  1  0  0  0  0
 15 48  1  0  0  0  0
 16 49  1  0  0  0  0
 18 50  1  0  0  0  0
 19 51  1  0  0  0  0
 20 52  1  0  0  0  0
 20 53  1  0  0  0  0
M  END
> <pdb_id>
3TD8

> <uniprot_id>
P16184

> <usmiles>
O=C(O)CCCC#Cc1c(cc(OC)cc1)Cc2c(c3c(nc(nc3N)N)nc2)C

$$$$
D3A_A_402
          07202400003D 1   1.00000     0.00000     0
            
 69 73  0  0  0  0            999 V2000
   12.9763  -68.8272   -6.5895 Cl  0  0  0  0  0  0  0  0  0  0  0  0
   19.1083  -62.9107    3.6864 O   0  0  0  0  0  0  0  0  0  0  0  0
   17.8283  -61.6958    2.3815 O   0  0  0  0  0  0  0  0  0  0  0  0
   16.7841  -68.7386   -0.1364 O   0  0  0  0  0  0  0  0  0  0  0  0
   19.4326  -69.6074   -9.6706 O   0  0  0  0  0  0  0  0  0  0  0  0
   18.5857  -71.0029   -7.4488 O   0  0  0  0  0  0  0  0  0  0  0  0
   18.2683  -69.0337   -3.7739 O   0  0  0  0  0  0  0  0  0  0  0  0
   18.5763  -67.6598    0.7552 N   0  0  0  0  0  0  0  0  0  0  0  0
   16.9147  -71.8053   -3.3272 N   0  0  0  0  0  0  0  0  0  0  0  0
   19.8281  -68.9656  -10.8973 C   0  0  0  0  0  0  0  0  0  0  0  0
   19.8016  -71.7907   -7.4940 C   0  0  0  0  0  0  0  0  0  0  0  0
   17.1647  -73.1588   -3.1412 C   0  0  0  0  0  0  0  0  0  0  0  0
   17.7474  -67.0662    1.8619 C   0  0  0  0  0  0  0  0  0  0  0  0
   19.9825  -67.1325    0.5466 C   0  0  0  0  0  0  0  0  0  0  0  0
   18.2505  -73.3070   -2.2651 C   0  0  0  0  0  0  0  0  0  0  0  0
   18.8183  -66.8103   -7.2706 C   0  0  0  0  0  0  0  0  0  0  0  0
   19.1604  -67.4669   -8.4453 C   0  0  0  0  0  0  0  0  0  0  0  0
   17.8311  -65.5224    1.8877 C   0  0  0  0  0  0  0  0  0  0  0  0
   19.9598  -65.6052    0.3939 C   0  0  0  0  0  0  0  0  0  0  0  0
   13.7266  -70.7221   -4.8041 C   0  0  0  0  0  0  0  0  0  0  0  0
   18.6796  -72.0579   -1.8855 C   0  0  0  0  0  0  0  0  0  0  0  0
   18.3951  -67.5563   -6.1773 C   0  0  0  0  0  0  0  0  0  0  0  0
   14.6086  -71.4465   -4.0234 C   0  0  0  0  0  0  0  0  0  0  0  0
   18.7568  -68.7849   -1.4907 C   0  0  0  0  0  0  0  0  0  0  0  0
   19.1679  -63.3820    1.3721 C   0  0  0  0  0  0  0  0  0  0  0  0
   15.4871  -69.3649   -5.7182 C   0  0  0  0  0  0  0  0  0  0  0  0
   18.6675  -62.5991    2.5693 C   0  0  0  0  0  0  0  0  0  0  0  0
   17.9805  -68.3762   -0.2276 C   0  0  0  0  0  0  0  0  0  0  0  0
   14.1504  -69.7050   -5.6440 C   0  0  0  0  0  0  0  0  0  0  0  0
   19.1233  -68.8763   -8.5280 C   0  0  0  0  0  0  0  0  0  0  0  0
   17.8746  -69.5808   -2.4936 C   0  0  2  0  0  0  0  0  0  0  0  0
   18.6830  -69.6268   -7.4248 C   0  0  0  0  0  0  0  0  0  0  0  0
   17.8943  -69.7258   -5.0056 C   0  0  2  0  0  0  0  0  0  0  0  0
   17.8531  -71.1271   -2.5111 C   0  0  0  0  0  0  0  0  0  0  0  0
   16.0017  -71.1405   -4.0439 C   0  0  0  0  0  0  0  0  0  0  0  0
   19.2343  -64.9156    1.5814 C   0  0  0  0  0  0  0  0  0  0  0  0
   18.3387  -68.9579   -6.2548 C   0  0  0  0  0  0  0  0  0  0  0  0
   16.4114  -70.0885   -4.9177 C   0  0  0  0  0  0  0  0  0  0  0  0
   19.7813  -63.6455    3.7711 H   0  0  0  0  0  0  0  0  0  0  0  0
   20.0058  -69.6600  -11.5946 H   0  0  0  0  0  0  0  0  0  0  0  0
   19.0950  -68.3607  -11.2084 H   0  0  0  0  0  0  0  0  0  0  0  0
   20.6581  -68.4302  -10.7408 H   0  0  0  0  0  0  0  0  0  0  0  0
   19.5685  -72.7631   -7.5069 H   0  0  0  0  0  0  0  0  0  0  0  0
   20.3173  -71.5606   -8.3193 H   0  0  0  0  0  0  0  0  0  0  0  0
   20.3578  -71.5920   -6.6871 H   0  0  0  0  0  0  0  0  0  0  0  0
   16.6534  -73.9071   -3.5638 H   0  0  0  0  0  0  0  0  0  0  0  0
   18.0760  -67.4216    2.7370 H   0  0  0  0  0  0  0  0  0  0  0  0
   16.7933  -67.3352    1.7300 H   0  0  0  0  0  0  0  0  0  0  0  0
   20.3691  -67.5412   -0.2801 H   0  0  0  0  0  0  0  0  0  0  0  0
   20.5471  -67.3771    1.3348 H   0  0  0  0  0  0  0  0  0  0  0  0
   18.6457  -74.1758   -1.9668 H   0  0  0  0  0  0  0  0  0  0  0  0
   18.8757  -65.8136   -7.2122 H   0  0  0  0  0  0  0  0  0  0  0  0
   19.4372  -66.9337   -9.2447 H   0  0  0  0  0  0  0  0  0  0  0  0
   17.5558  -65.2151    2.7986 H   0  0  0  0  0  0  0  0  0  0  0  0
   17.1885  -65.1686    1.2081 H   0  0  0  0  0  0  0  0  0  0  0  0
   19.4848  -65.3720   -0.4547 H   0  0  0  0  0  0  0  0  0  0  0  0
   20.9012  -65.2704    0.3517 H   0  0  0  0  0  0  0  0  0  0  0  0
   12.7515  -70.9394   -4.7611 H   0  0  0  0  0  0  0  0  0  0  0  0
   19.4439  -71.8547   -1.2735 H   0  0  0  0  0  0  0  0  0  0  0  0
   18.1296  -67.0935   -5.3315 H   0  0  0  0  0  0  0  0  0  0  0  0
   14.2690  -72.1866   -3.4430 H   0  0  0  0  0  0  0  0  0  0  0  0
   19.5322  -69.3558   -1.2210 H   0  0  0  0  0  0  0  0  0  0  0  0
   19.0927  -67.9587   -1.9432 H   0  0  0  0  0  0  0  0  0  0  0  0
   20.0877  -63.0579    1.1507 H   0  0  0  0  0  0  0  0  0  0  0  0
   18.5559  -63.1991    0.6027 H   0  0  0  0  0  0  0  0  0  0  0  0
   15.7962  -68.6284   -6.3199 H   0  0  0  0  0  0  0  0  0  0  0  0
   16.9319  -69.2861   -2.3374 H   0  0  0  0  0  0  0  0  0  0  0  0
   18.3979  -70.5898   -5.0096 H   0  0  0  0  0  0  0  0  0  0  0  0
   19.7982  -65.0711    2.3925 H   0  0  0  0  0  0  0  0  0  0  0  0
  1 29  1  0  0  0  0
  2 27  1  0  0  0  0
  3 27  2  0  0  0  0
  4 28  2  0  0  0  0
  5 10  1  0  0  0  0
  5 30  1  0  0  0  0
  6 11  1  0  0  0  0
  6 32  1  0  0  0  0
  7 31  1  0  0  0  0
  7 33  1  0  0  0  0
  8 13  1  0  0  0  0
  8 14  1  0  0  0  0
  8 28  1  0  0  0  0
  9 12  1  0  0  0  0
  9 34  1  0  0  0  0
  9 35  1  0  0  0  0
 12 15  2  0  0  0  0
 13 18  1  0  0  0  0
 14 19  1  0  0  0  0
 15 21  1  0  0  0  0
 16 17  2  0  0  0  0
 16 22  1  0  0  0  0
 17 30  1  0  0  0  0
 18 36  1  0  0  0  0
 19 36  1  0  0  0  0
 20 23  1  0  0  0  0
 20 29  2  0  0  0  0
 21 34  2  0  0  0  0
 22 37  2  0  0  0  0
 23 35  2  0  0  0  0
 24 28  1  0  0  0  0
 24 31  1  0  0  0  0
 25 27  1  0  0  0  0
 25 36  1  0  0  0  0
 26 29  1  0  0  0  0
 26 38  2  0  0  0  0
 30 32  2  0  0  0  0
 31 34  1  0  0  0  0
 32 37  1  0  0  0  0
 33 37  1  0  0  0  0
 33 38  1  0  0  0  0
 35 38  1  0  0  0  0
  2 39  1  0  0  0  0
 10 40  1  0  0  0  0
 10 41  1  0  0  0  0
 10 42  1  0  0  0  0
 11 43  1  0  0  0  0
 11 44  1  0  0  0  0
 11 45  1  0  0  0  0
 12 46  1  0  0  0  0
 13 47  1  0  0  0  0
 13 48  1  0  0  0  0
 14 49  1  0  0  0  0
 14 50  1  0  0  0  0
 15 51  1  0  0  0  0
 16 52  1  0  0  0  0
 17 53  1  0  0  0  0
 18 54  1  0  0  0  0
 18 55  1  0  0  0  0
 19 56  1  0  0  0  0
 19 57  1  0  0  0  0
 20 58  1  0  0  0  0
 21 59  1  0  0  0  0
 22 60  1  0  0  0  0
 23 61  1  0  0  0  0
 24 62  1  0  0  0  0
 24 63  1  0  0  0  0
 25 64  1  0  0  0  0
 25 65  1  0  0  0  0
 26 66  1  0  0  0  0
 31 67  1  0  0  0  0
 33 68  1  0  0  0  0
 36 69  1  0  0  0  0
M  END
> <pdb_id>
3V66

> <uniprot_id>
P37268

> <usmiles>
Clc1cc2c(N3C(=CC=C3)[C@H](O[C@@H]2c4c(OC)c(OC)ccc4)CC(=O)N5CCC(CC(=O)O)CC5)cc1

$$$$
D45_B_301
          07202410523D 1   1.00000     0.00000     0
            
 50 53  0  0  0  0            999 V2000
   79.4518   43.1244   43.5662 S   0  0  0  0  0  0  0  0  0  0  0  0
   72.6559   49.0949   43.9454 S   0  0  0  0  0  0  0  0  0  0  0  0
   80.8691   43.0351   43.1955 O   0  0  0  0  0  0  0  0  0  0  0  0
   79.0466   43.6846   44.8708 O   0  0  0  0  0  0  0  0  0  0  0  0
   73.1220   48.4616   45.1793 O   0  0  0  0  0  0  0  0  0  0  0  0
   71.2242   49.2555   43.6757 O   0  0  0  0  0  0  0  0  0  0  0  0
   78.8534   41.5747   43.4178 N   0  0  0  0  0  0  0  0  0  0  0  0
   73.2895   50.6325   43.8108 N   0  0  0  0  0  0  0  0  0  0  0  0
   77.9427   41.7822   41.1734 N   0  0  0  0  0  0  0  0  0  0  0  0
   74.0752   50.5487   41.5570 N   0  0  0  0  0  0  0  0  0  0  0  0
   77.2088   41.1273   40.0858 C   0  0  0  0  0  0  0  0  0  0  0  0
   74.8064   51.2506   40.4997 C   0  0  0  0  0  0  0  0  0  0  0  0
   78.6885   40.9398   42.1223 C   0  0  0  0  0  0  0  0  0  0  0  0
   73.3322   51.3353   42.5393 C   0  0  0  0  0  0  0  0  0  0  0  0
   78.5801   45.2937   42.2895 C   0  0  0  0  0  0  0  0  0  0  0  0
   73.3816   46.9803   42.5181 C   0  0  0  0  0  0  0  0  0  0  0  0
   77.9405   46.0357   41.3180 C   0  0  0  0  0  0  0  0  0  0  0  0
   73.9349   46.3071   41.4453 C   0  0  0  0  0  0  0  0  0  0  0  0
   76.6320   46.2170   39.2049 C   0  0  0  0  0  0  0  0  0  0  0  0
   75.1155   46.2478   39.2536 C   0  0  0  0  0  0  0  0  0  0  0  0
   77.2912   43.9699   40.2173 C   0  0  0  0  0  0  0  0  0  0  0  0
   74.5923   48.4256   40.4461 C   0  0  0  0  0  0  0  0  0  0  0  0
   78.5901   43.9182   42.2442 C   0  0  0  0  0  0  0  0  0  0  0  0
   73.4076   48.3585   42.5384 C   0  0  0  0  0  0  0  0  0  0  0  0
   77.9406   43.1952   41.2201 C   0  0  0  0  0  0  0  0  0  0  0  0
   74.0314   49.1361   41.5277 C   0  0  0  0  0  0  0  0  0  0  0  0
   77.2991   45.3775   40.2724 C   0  0  0  0  0  0  0  0  0  0  0  0
   74.5407   47.0203   40.4134 C   0  0  0  0  0  0  0  0  0  0  0  0
   77.9492   41.5806   43.8449 H   0  0  0  0  0  0  0  0  0  0  0  0
   74.2348   50.5757   44.1320 H   0  0  0  0  0  0  0  0  0  0  0  0
   76.7542   41.8201   39.5260 H   0  0  0  0  0  0  0  0  0  0  0  0
   77.8473   40.6070   39.5187 H   0  0  0  0  0  0  0  0  0  0  0  0
   76.5244   40.5082   40.4709 H   0  0  0  0  0  0  0  0  0  0  0  0
   75.2613   50.5836   39.9097 H   0  0  0  0  0  0  0  0  0  0  0  0
   74.1667   51.7945   39.9566 H   0  0  0  0  0  0  0  0  0  0  0  0
   75.4905   51.8531   40.9110 H   0  0  0  0  0  0  0  0  0  0  0  0
   78.1925   40.0805   42.2469 H   0  0  0  0  0  0  0  0  0  0  0  0
   79.5931   40.7502   41.7406 H   0  0  0  0  0  0  0  0  0  0  0  0
   73.7827   52.2192   42.6647 H   0  0  0  0  0  0  0  0  0  0  0  0
   72.3993   51.4804   42.2099 H   0  0  0  0  0  0  0  0  0  0  0  0
   79.0447   45.7637   43.0400 H   0  0  0  0  0  0  0  0  0  0  0  0
   72.9662   46.4724   43.2727 H   0  0  0  0  0  0  0  0  0  0  0  0
   77.9377   47.0346   41.3644 H   0  0  0  0  0  0  0  0  0  0  0  0
   73.9003   45.3083   41.4099 H   0  0  0  0  0  0  0  0  0  0  0  0
   76.9627   47.1559   39.2993 H   0  0  0  0  0  0  0  0  0  0  0  0
   76.9046   45.8556   38.3132 H   0  0  0  0  0  0  0  0  0  0  0  0
   74.7860   45.3054   39.3126 H   0  0  0  0  0  0  0  0  0  0  0  0
   74.7845   46.6642   38.4068 H   0  0  0  0  0  0  0  0  0  0  0  0
   76.8232   43.5085   39.4636 H   0  0  0  0  0  0  0  0  0  0  0  0
   75.0294   48.9241   39.6976 H   0  0  0  0  0  0  0  0  0  0  0  0
  1  3  2  0  0  0  0
  1  4  2  0  0  0  0
  1  7  1  0  0  0  0
  1 23  1  0  0  0  0
  2  5  2  0  0  0  0
  2  6  2  0  0  0  0
  2  8  1  0  0  0  0
  2 24  1  0  0  0  0
  7 13  1  0  0  0  0
  8 14  1  0  0  0  0
  9 11  1  0  0  0  0
  9 13  1  0  0  0  0
  9 25  1  0  0  0  0
 10 12  1  0  0  0  0
 10 14  1  0  0  0  0
 10 26  1  0  0  0  0
 15 17  1  0  0  0  0
 15 23  2  0  0  0  0
 16 18  1  0  0  0  0
 16 24  2  0  0  0  0
 17 27  2  0  0  0  0
 18 28  2  0  0  0  0
 19 20  1  0  0  0  0
 19 27  1  0  0  0  0
 20 28  1  0  0  0  0
 21 25  2  0  0  0  0
 21 27  1  0  0  0  0
 22 26  2  0  0  0  0
 22 28  1  0  0  0  0
 23 25  1  0  0  0  0
 24 26  1  0  0  0  0
  7 29  1  0  0  0  0
  8 30  1  0  0  0  0
 11 31  1  0  0  0  0
 11 32  1  0  0  0  0
 11 33  1  0  0  0  0
 12 34  1  0  0  0  0
 12 35  1  0  0  0  0
 12 36  1  0  0  0  0
 13 37  1  0  0  0  0
 13 38  1  0  0  0  0
 14 39  1  0  0  0  0
 14 40  1  0  0  0  0
 15 41  1  0  0  0  0
 16 42  1  0  0  0  0
 17 43  1  0  0  0  0
 18 44  1  0  0  0  0
 19 45  1  0  0  0  0
 19 46  1  0  0  0  0
 20 47  1  0  0  0  0
 20 48  1  0  0  0  0
 21 49  1  0  0  0  0
 22 50  1  0  0  0  0
M  END
> <pdb_id>
6FAZ

> <uniprot_id>
P19491

> <usmiles>
S1(=O)(=O)NCN(c2c1ccc(c2)CCc3cc4N(CNS(=O)(=O)c4cc3)C)C

$$$$
D45_B_304
          07202410513D 1   1.00000     0.00000     0
            
 50 53  0  0  0  0            999 V2000
   25.0789  165.4174  -30.5712 S   0  0  0  0  0  0  0  0  0  0  0  0
   34.0925  167.6994  -30.4777 S   0  0  0  0  0  0  0  0  0  0  0  0
   23.7602  165.9912  -30.2414 O   0  0  0  0  0  0  0  0  0  0  0  0
   25.7415  165.7310  -31.8517 O   0  0  0  0  0  0  0  0  0  0  0  0
   33.4259  167.4380  -31.7679 O   0  0  0  0  0  0  0  0  0  0  0  0
   35.3746  167.0269  -30.1731 O   0  0  0  0  0  0  0  0  0  0  0  0
   24.8975  163.7523  -30.3634 N   0  0  0  0  0  0  0  0  0  0  0  0
   34.3259  169.3550  -30.2409 N   0  0  0  0  0  0  0  0  0  0  0  0
   25.7768  163.5499  -28.1608 N   0  0  0  0  0  0  0  0  0  0  0  0
   33.4743  169.5005  -28.0002 N   0  0  0  0  0  0  0  0  0  0  0  0
   26.1337  162.6269  -27.0850 C   0  0  0  0  0  0  0  0  0  0  0  0
   33.0424  170.4794  -26.9989 C   0  0  0  0  0  0  0  0  0  0  0  0
   26.8015  167.0108  -29.2562 C   0  0  0  0  0  0  0  0  0  0  0  0
   32.3017  166.1237  -29.2418 C   0  0  0  0  0  0  0  0  0  0  0  0
   27.6735  167.3691  -28.2324 C   0  0  0  0  0  0  0  0  0  0  0  0
   31.4016  165.7573  -28.2417 C   0  0  0  0  0  0  0  0  0  0  0  0
   27.2996  165.2082  -27.1653 C   0  0  0  0  0  0  0  0  0  0  0  0
   31.8595  167.8642  -27.0822 C   0  0  0  0  0  0  0  0  0  0  0  0
   24.6642  163.1871  -29.0464 C   0  0  0  0  0  0  0  0  0  0  0  0
   34.5531  169.9080  -28.9127 C   0  0  0  0  0  0  0  0  0  0  0  0
   28.8623  166.9127  -26.0927 C   0  0  0  0  0  0  0  0  0  0  0  0
   30.2081  166.1896  -26.0851 C   0  0  0  0  0  0  0  0  0  0  0  0
   26.1824  165.7611  -29.2279 C   0  0  0  0  0  0  0  0  0  0  0  0
   32.9736  167.3482  -29.1528 C   0  0  0  0  0  0  0  0  0  0  0  0
   26.4028  164.8187  -28.1918 C   0  0  0  0  0  0  0  0  0  0  0  0
   32.7804  168.2659  -28.0896 C   0  0  0  0  0  0  0  0  0  0  0  0
   27.9206  166.4748  -27.1904 C   0  0  0  0  0  0  0  0  0  0  0  0
   31.1766  166.6266  -27.1665 C   0  0  0  0  0  0  0  0  0  0  0  0
   24.9472  163.2240  -31.0780 H   0  0  0  0  0  0  0  0  0  0  0  0
   34.3084  169.8914  -30.9510 H   0  0  0  0  0  0  0  0  0  0  0  0
   25.5974  161.8198  -27.1258 H   0  0  0  0  0  0  0  0  0  0  0  0
   27.0622  162.3539  -27.1411 H   0  0  0  0  0  0  0  0  0  0  0  0
   26.0030  163.0396  -26.2168 H   0  0  0  0  0  0  0  0  0  0  0  0
   33.0317  170.0984  -26.1069 H   0  0  0  0  0  0  0  0  0  0  0  0
   33.6402  171.2433  -26.9819 H   0  0  0  0  0  0  0  0  0  0  0  0
   32.1443  170.7948  -27.1838 H   0  0  0  0  0  0  0  0  0  0  0  0
   26.6196  167.5979  -29.9535 H   0  0  0  0  0  0  0  0  0  0  0  0
   32.4637  165.5623  -29.9646 H   0  0  0  0  0  0  0  0  0  0  0  0
   28.0822  168.2051  -28.2456 H   0  0  0  0  0  0  0  0  0  0  0  0
   30.9556  164.9429  -28.2957 H   0  0  0  0  0  0  0  0  0  0  0  0
   27.4902  164.6459  -26.4495 H   0  0  0  0  0  0  0  0  0  0  0  0
   31.6855  168.4043  -26.3448 H   0  0  0  0  0  0  0  0  0  0  0  0
   23.8210  163.5260  -28.7084 H   0  0  0  0  0  0  0  0  0  0  0  0
   24.5773  162.2232  -29.1063 H   0  0  0  0  0  0  0  0  0  0  0  0
   35.4156  169.5995  -28.5950 H   0  0  0  0  0  0  0  0  0  0  0  0
   34.6053  170.8761  -28.9622 H   0  0  0  0  0  0  0  0  0  0  0  0
   29.0159  167.8669  -26.1762 H   0  0  0  0  0  0  0  0  0  0  0  0
   28.4262  166.7943  -25.2341 H   0  0  0  0  0  0  0  0  0  0  0  0
   30.0603  165.2335  -26.1626 H   0  0  0  0  0  0  0  0  0  0  0  0
   30.6294  166.3170  -25.2215 H   0  0  0  0  0  0  0  0  0  0  0  0
  1  3  2  0  0  0  0
  1  4  2  0  0  0  0
  1  7  1  0  0  0  0
  1 23  1  0  0  0  0
  2  5  2  0  0  0  0
  2  6  2  0  0  0  0
  2  8  1  0  0  0  0
  2 24  1  0  0  0  0
  7 19  1  0  0  0  0
  7 29  1  0  0  0  0
  8 20  1  0  0  0  0
  8 30  1  0  0  0  0
  9 11  1  0  0  0  0
  9 19  1  0  0  0  0
  9 25  1  0  0  0  0
 10 12  1  0  0  0  0
 10 20  1  0  0  0  0
 10 26  1  0  0  0  0
 11 31  1  0  0  0  0
 11 32  1  0  0  0  0
 11 33  1  0  0  0  0
 12 34  1  0  0  0  0
 12 35  1  0  0  0  0
 12 36  1  0  0  0  0
 13 15  1  0  0  0  0
 13 23  2  0  0  0  0
 13 37  1  0  0  0  0
 14 16  1  0  0  0  0
 14 24  2  0  0  0  0
 14 38  1  0  0  0  0
 15 27  2  0  0  0  0
 15 39  1  0  0  0  0
 16 28  2  0  0  0  0
 16 40  1  0  0  0  0
 17 25  2  0  0  0  0
 17 27  1  0  0  0  0
 17 41  1  0  0  0  0
 18 26  2  0  0  0  0
 18 28  1  0  0  0  0
 18 42  1  0  0  0  0
 19 43  1  0  0  0  0
 19 44  1  0  0  0  0
 20 45  1  0  0  0  0
 20 46  1  0  0  0  0
 21 22  1  0  0  0  0
 21 27  1  0  0  0  0
 21 47  1  0  0  0  0
 21 48  1  0  0  0  0
 22 28  1  0  0  0  0
 22 49  1  0  0  0  0
 22 50  1  0  0  0  0
 23 25  1  0  0  0  0
 24 26  1  0  0  0  0
M  END
> <pdb_id>
6HCB

> <uniprot_id>
P19491

> <usmiles>
S1(=O)(=O)NCN(c2c1ccc(c2)CCc3cc4N(CNS(=O)(=O)c4cc3)C)C

$$$$
D46_A_700
          07192422073D 1   1.00000     0.00000     0
            
 48 51  0  0  0  0            999 V2000
   42.2938   28.6228   11.9595 Cl  0  0  0  0  0  0  0  0  0  0  0  0
   39.8393   27.7593   13.5163 S   0  0  0  0  0  0  0  0  0  0  0  0
   34.5853   33.8574   17.2485 S   0  0  0  0  0  0  0  0  0  0  0  0
   37.4489   27.1447   14.8476 O   0  0  0  0  0  0  0  0  0  0  0  0
   32.8580   32.3956   15.2902 O   0  0  0  0  0  0  0  0  0  0  0  0
   35.9524   28.3436   13.6274 N   0  0  0  0  0  0  0  0  0  0  0  0
   34.8354   31.3898   18.1024 N   0  0  0  0  0  0  0  0  0  0  0  0
   33.3102   30.3221   16.0606 N   0  0  0  0  0  0  0  0  0  0  0  0
   36.8295   34.0464   20.7760 N   0  0  0  0  0  0  0  0  0  0  0  0
   37.7545   34.9592   21.4757 C   0  0  0  0  0  0  0  0  0  0  0  0
   35.0308   28.3633   14.7623 C   0  0  0  0  0  0  0  0  0  0  0  0
   37.3638   32.6346   20.7872 C   0  0  0  0  0  0  0  0  0  0  0  0
   36.3427   34.5654   19.4319 C   0  0  0  0  0  0  0  0  0  0  0  0
   30.9574   29.0017   13.4476 C   0  0  0  0  0  0  0  0  0  0  0  0
   31.7575   28.0520   12.8258 C   0  0  0  0  0  0  0  0  0  0  0  0
   36.4111   31.6133   20.1058 C   0  0  0  0  0  0  0  0  0  0  0  0
   39.6553   29.1088   11.3290 C   0  0  0  0  0  0  0  0  0  0  0  0
   31.4318   29.7532   14.5150 C   0  0  0  0  0  0  0  0  0  0  0  0
   33.0751   27.8740   13.2466 C   0  0  0  0  0  0  0  0  0  0  0  0
   38.3341   28.9526   11.7756 C   0  0  0  0  0  0  0  0  0  0  0  0
   40.5495   28.5239   12.1872 C   0  0  0  0  0  0  0  0  0  0  0  0
   34.2527   32.1806   17.1967 C   0  0  0  0  0  0  0  0  0  0  0  0
   37.1797   27.8214   13.8496 C   0  0  0  0  0  0  0  0  0  0  0  0
   33.3890   31.6478   16.1064 C   0  0  0  0  0  0  0  0  0  0  0  0
   35.5559   33.5129   18.6260 C   0  0  0  0  0  0  0  0  0  0  0  0
   38.3080   28.2446   12.9354 C   0  0  0  0  0  0  0  0  0  0  0  0
   35.6037   32.1706   18.9128 C   0  0  0  0  0  0  0  0  0  0  0  0
   32.7572   29.5521   14.9630 C   0  0  0  0  0  0  0  0  0  0  0  0
   33.5753   28.6161   14.3157 C   0  0  0  0  0  0  0  0  0  0  0  0
   35.6880   28.6989   12.7308 H   0  0  0  0  0  0  0  0  0  0  0  0
   33.6609   29.8138   16.8471 H   0  0  0  0  0  0  0  0  0  0  0  0
   37.3838   35.8878   21.4576 H   0  0  0  0  0  0  0  0  0  0  0  0
   37.8624   34.6618   22.4244 H   0  0  0  0  0  0  0  0  0  0  0  0
   38.6442   34.9466   21.0192 H   0  0  0  0  0  0  0  0  0  0  0  0
   35.3072   29.0903   15.3908 H   0  0  0  0  0  0  0  0  0  0  0  0
   35.0767   27.4815   15.2316 H   0  0  0  0  0  0  0  0  0  0  0  0
   37.5024   32.3549   21.7372 H   0  0  0  0  0  0  0  0  0  0  0  0
   38.2398   32.6227   20.3050 H   0  0  0  0  0  0  0  0  0  0  0  0
   37.1364   34.8499   18.8942 H   0  0  0  0  0  0  0  0  0  0  0  0
   35.7483   35.3536   19.5915 H   0  0  0  0  0  0  0  0  0  0  0  0
   30.0234   29.1470   13.1212 H   0  0  0  0  0  0  0  0  0  0  0  0
   31.3901   27.4978   12.0790 H   0  0  0  0  0  0  0  0  0  0  0  0
   35.7630   31.2866   20.7937 H   0  0  0  0  0  0  0  0  0  0  0  0
   36.9623   30.8467   19.7764 H   0  0  0  0  0  0  0  0  0  0  0  0
   39.9122   29.5873   10.4893 H   0  0  0  0  0  0  0  0  0  0  0  0
   30.8434   30.4278   14.9607 H   0  0  0  0  0  0  0  0  0  0  0  0
   33.6625   27.2126   12.7803 H   0  0  0  0  0  0  0  0  0  0  0  0
   37.5266   29.3111   11.3070 H   0  0  0  0  0  0  0  0  0  0  0  0
  1 21  1  0  0  0  0
  2 21  1  0  0  0  0
  2 26  1  0  0  0  0
  3 22  1  0  0  0  0
  3 25  1  0  0  0  0
  4 23  2  0  0  0  0
  5 24  2  0  0  0  0
  6 11  1  0  0  0  0
  6 23  1  0  0  0  0
  7 22  2  0  0  0  0
  7 27  1  0  0  0  0
  8 24  1  0  0  0  0
  8 28  1  0  0  0  0
  9 10  1  0  0  0  0
  9 12  1  0  0  0  0
  9 13  1  0  0  0  0
 11 29  1  0  0  0  0
 12 16  1  0  0  0  0
 13 25  1  0  0  0  0
 14 15  2  0  0  0  0
 14 18  1  0  0  0  0
 15 19  1  0  0  0  0
 16 27  1  0  0  0  0
 17 20  1  0  0  0  0
 17 21  2  0  0  0  0
 18 28  2  0  0  0  0
 19 29  2  0  0  0  0
 20 26  2  0  0  0  0
 22 24  1  0  0  0  0
 23 26  1  0  0  0  0
 25 27  2  0  0  0  0
 28 29  1  0  0  0  0
  6 30  1  0  0  0  0
  8 31  1  0  0  0  0
 10 32  1  0  0  0  0
 10 33  1  0  0  0  0
 10 34  1  0  0  0  0
 11 35  1  0  0  0  0
 11 36  1  0  0  0  0
 12 37  1  0  0  0  0
 12 38  1  0  0  0  0
 13 39  1  0  0  0  0
 13 40  1  0  0  0  0
 14 41  1  0  0  0  0
 15 42  1  0  0  0  0
 16 43  1  0  0  0  0
 16 44  1  0  0  0  0
 17 45  1  0  0  0  0
 18 46  1  0  0  0  0
 19 47  1  0  0  0  0
 20 48  1  0  0  0  0
M  END
> <pdb_id>
3TK6

> <uniprot_id>
P00742

> <usmiles>
ClC=1SC(C(=O)NCc2c(NC(=O)C=3SC4=C(N3)CCN(C4)C)cccc2)=CC1

$$$$
D4L_A_803
          07192416573D 1   1.00000     0.00000     0
            
 62 67  0  0  0  0            999 V2000
   18.3810   -8.3964   27.9959 O   0  0  0  0  0  0  0  0  0  0  0  0
   19.5234   -4.7615   22.4998 N   0  0  0  0  0  0  0  0  0  0  0  0
   22.9780   -4.3338   22.6800 N   0  0  0  0  0  0  0  0  0  0  0  0
   19.9513   -6.4179   24.7209 N   0  0  0  0  0  0  0  0  0  0  0  0
   16.6865   -2.0767   20.0807 N   0  0  0  0  0  0  0  0  0  0  0  0
   18.9884   -3.3264   19.1443 N   0  0  0  0  0  0  0  0  0  0  0  0
   20.6791   -4.9590   23.0178 N   0  0  0  0  0  0  0  0  0  0  0  0
   24.6476   -5.1867   24.2004 N   0  0  0  0  0  0  0  0  0  0  0  0
   17.1607   -2.6072   22.4460 C   0  0  0  0  0  0  0  0  0  0  0  0
   17.8208   -2.1555   14.5453 C   0  0  0  0  0  0  0  0  0  0  0  0
   18.4667   -9.2255   26.8321 C   0  0  0  0  0  0  0  0  0  0  0  0
   19.5932   -7.7017   28.2677 C   0  0  0  0  0  0  0  0  0  0  0  0
   25.7819   -4.6420   23.4578 C   0  0  0  0  0  0  0  0  0  0  0  0
   25.1476   -5.7685   25.4627 C   0  0  0  0  0  0  0  0  0  0  0  0
   27.0231   -4.8008   24.3174 C   0  0  0  0  0  0  0  0  0  0  0  0
   26.5409   -5.2148   25.6895 C   0  0  0  0  0  0  0  0  0  0  0  0
   18.9216   -8.4810   25.5637 C   0  0  0  0  0  0  0  0  0  0  0  0
   19.8317   -6.6840   27.1430 C   0  0  0  0  0  0  0  0  0  0  0  0
   16.1032   -1.5092   17.8457 C   0  0  0  0  0  0  0  0  0  0  0  0
   16.3932   -1.5304   16.4919 C   0  0  0  0  0  0  0  0  0  0  0  0
   22.3237   -5.8198   24.4804 C   0  0  0  0  0  0  0  0  0  0  0  0
   21.0108   -3.6333   21.3455 C   0  0  0  0  0  0  0  0  0  0  0  0
   18.4216   -2.7508   16.9087 C   0  0  0  0  0  0  0  0  0  0  0  0
   21.6455   -4.3050   22.3389 C   0  0  0  0  0  0  0  0  0  0  0  0
   20.9859   -5.7191   24.0816 C   0  0  0  0  0  0  0  0  0  0  0  0
   23.3064   -5.1182   23.7814 C   0  0  0  0  0  0  0  0  0  0  0  0
   17.5491   -2.6837   20.9769 C   0  0  0  0  0  0  0  0  0  0  0  0
   20.0176   -7.4112   25.8046 C   0  0  0  0  0  0  0  0  0  0  0  0
   19.6768   -3.9317   21.4395 C   0  0  0  0  0  0  0  0  0  0  0  0
   16.9775   -2.0970   18.7319 C   0  0  0  0  0  0  0  0  0  0  0  0
   18.1303   -2.7231   18.2601 C   0  0  0  0  0  0  0  0  0  0  0  0
   18.7020   -3.3238   20.4945 C   0  0  0  0  0  0  0  0  0  0  0  0
   17.5412   -2.1459   16.0248 C   0  0  0  0  0  0  0  0  0  0  0  0
   19.0306   -6.2100   24.3907 H   0  0  0  0  0  0  0  0  0  0  0  0
   17.8506   -3.0754   22.9980 H   0  0  0  0  0  0  0  0  0  0  0  0
   17.1037   -1.6489   22.7262 H   0  0  0  0  0  0  0  0  0  0  0  0
   16.2724   -3.0468   22.5793 H   0  0  0  0  0  0  0  0  0  0  0  0
   18.6810   -2.6349   14.3717 H   0  0  0  0  0  0  0  0  0  0  0  0
   17.0765   -2.6232   14.0685 H   0  0  0  0  0  0  0  0  0  0  0  0
   17.8904   -1.2149   14.2131 H   0  0  0  0  0  0  0  0  0  0  0  0
   17.5636   -9.6185   26.6590 H   0  0  0  0  0  0  0  0  0  0  0  0
   19.1199   -9.9598   27.0169 H   0  0  0  0  0  0  0  0  0  0  0  0
   20.3535   -8.3504   28.3029 H   0  0  0  0  0  0  0  0  0  0  0  0
   19.5204   -7.2256   29.1440 H   0  0  0  0  0  0  0  0  0  0  0  0
   25.6262   -3.6739   23.2618 H   0  0  0  0  0  0  0  0  0  0  0  0
   25.8972   -5.1416   22.5993 H   0  0  0  0  0  0  0  0  0  0  0  0
   25.1825   -6.7653   25.3905 H   0  0  0  0  0  0  0  0  0  0  0  0
   24.5484   -5.5099   26.2204 H   0  0  0  0  0  0  0  0  0  0  0  0
   27.5194   -3.9344   24.3719 H   0  0  0  0  0  0  0  0  0  0  0  0
   27.6217   -5.5043   23.9342 H   0  0  0  0  0  0  0  0  0  0  0  0
   27.1397   -5.9162   26.0760 H   0  0  0  0  0  0  0  0  0  0  0  0
   26.5106   -4.4267   26.3043 H   0  0  0  0  0  0  0  0  0  0  0  0
   18.1246   -8.0273   25.1651 H   0  0  0  0  0  0  0  0  0  0  0  0
   19.2795   -9.1549   24.9174 H   0  0  0  0  0  0  0  0  0  0  0  0
   20.6534   -6.1519   27.3472 H   0  0  0  0  0  0  0  0  0  0  0  0
   19.0445   -6.0706   27.0795 H   0  0  0  0  0  0  0  0  0  0  0  0
   15.2672   -1.0714   18.1763 H   0  0  0  0  0  0  0  0  0  0  0  0
   15.7663   -1.0964   15.8449 H   0  0  0  0  0  0  0  0  0  0  0  0
   22.5737   -6.3914   25.2619 H   0  0  0  0  0  0  0  0  0  0  0  0
   21.4375   -3.0320   20.6700 H   0  0  0  0  0  0  0  0  0  0  0  0
   19.2513   -3.1985   16.5752 H   0  0  0  0  0  0  0  0  0  0  0  0
   20.9153   -7.8518   25.7920 H   0  0  0  0  0  0  0  0  0  0  0  0
  1 11  1  0  0  0  0
  1 12  1  0  0  0  0
  2  7  1  0  0  0  0
  2 29  2  0  0  0  0
  3 24  1  0  0  0  0
  3 26  2  0  0  0  0
  4 25  1  0  0  0  0
  4 28  1  0  0  0  0
  5 27  2  0  0  0  0
  5 30  1  0  0  0  0
  6 31  1  0  0  0  0
  6 32  2  0  0  0  0
  7 24  1  0  0  0  0
  7 25  1  0  0  0  0
  8 13  1  0  0  0  0
  8 14  1  0  0  0  0
  8 26  1  0  0  0  0
  9 27  1  0  0  0  0
 10 33  1  0  0  0  0
 11 17  1  0  0  0  0
 12 18  1  0  0  0  0
 13 15  1  0  0  0  0
 14 16  1  0  0  0  0
 15 16  1  0  0  0  0
 17 28  1  0  0  0  0
 18 28  1  0  0  0  0
 19 20  1  0  0  0  0
 19 30  2  0  0  0  0
 20 33  2  0  0  0  0
 21 25  2  0  0  0  0
 21 26  1  0  0  0  0
 22 24  2  0  0  0  0
 22 29  1  0  0  0  0
 23 31  2  0  0  0  0
 23 33  1  0  0  0  0
 27 32  1  0  0  0  0
 29 32  1  0  0  0  0
 30 31  1  0  0  0  0
  4 34  1  0  0  0  0
  9 35  1  0  0  0  0
  9 36  1  0  0  0  0
  9 37  1  0  0  0  0
 10 38  1  0  0  0  0
 10 39  1  0  0  0  0
 10 40  1  0  0  0  0
 11 41  1  0  0  0  0
 11 42  1  0  0  0  0
 12 43  1  0  0  0  0
 12 44  1  0  0  0  0
 13 45  1  0  0  0  0
 13 46  1  0  0  0  0
 14 47  1  0  0  0  0
 14 48  1  0  0  0  0
 15 49  1  0  0  0  0
 15 50  1  0  0  0  0
 16 51  1  0  0  0  0
 16 52  1  0  0  0  0
 17 53  1  0  0  0  0
 17 54  1  0  0  0  0
 18 55  1  0  0  0  0
 18 56  1  0  0  0  0
 19 57  1  0  0  0  0
 20 58  1  0  0  0  0
 21 59  1  0  0  0  0
 22 60  1  0  0  0  0
 23 61  1  0  0  0  0
 28 62  1  0  0  0  0
M  END
> <pdb_id>
6K9U

> <uniprot_id>
Q9QYJ6

> <usmiles>
O1CCC(NC=2N3N=C(c4nc5c(nc4C)ccc(c5)C)C=C3N=C(N6CCCC6)C2)CC1

$$$$
D58_A_301
          07202402503D 1   1.00000     0.00000     0
            
 48 51  0  0  0  0            999 V2000
    2.5951    8.8532   20.0798 S   0  0  0  0  0  0  0  0  0  0  0  0
    4.9567   10.3343   20.6611 O   0  0  0  0  0  0  0  0  0  0  0  0
    6.8690   10.2682   19.4025 N   0  0  0  0  0  0  0  0  0  0  0  0
    5.6544    6.7600   17.6090 N   0  0  0  0  0  0  0  0  0  0  0  0
    4.6615    5.1558   13.1696 N   0  0  0  0  0  0  0  0  0  0  0  0
    3.9493    5.2042   16.9051 N   0  0  0  0  0  0  0  0  0  0  0  0
    4.0051    7.0906   14.3974 C   0  0  0  0  0  0  0  0  0  0  0  0
    4.8272    3.6775   12.9895 C   0  0  0  0  0  0  0  0  0  0  0  0
    6.0294    7.8318   18.3169 C   0  0  0  0  0  0  0  0  0  0  0  0
    5.6364    3.1775   14.1711 C   0  0  0  0  0  0  0  0  0  0  0  0
   -2.5947    7.9629   20.7179 C   0  0  0  0  0  0  0  0  0  0  0  0
   -1.6888    8.9071   21.1573 C   0  0  0  0  0  0  0  0  0  0  0  0
   -2.1735    6.9147   19.9186 C   0  0  0  0  0  0  0  0  0  0  0  0
    4.9111    3.5134   15.4712 C   0  0  0  0  0  0  0  0  0  0  0  0
   -0.3645    8.8085   20.7725 C   0  0  0  0  0  0  0  0  0  0  0  0
   -0.8432    6.8170   19.5462 C   0  0  0  0  0  0  0  0  0  0  0  0
    2.0820    6.7977   18.6898 C   0  0  0  0  0  0  0  0  0  0  0  0
    5.6570    9.7896   19.8191 C   0  0  0  0  0  0  0  0  0  0  0  0
    1.4537    7.6942   19.5321 C   0  0  0  0  0  0  0  0  0  0  0  0
    3.8886    8.1440   19.1862 C   0  0  0  0  0  0  0  0  0  0  0  0
    4.3792    6.3363   17.6560 C   0  0  0  0  0  0  0  0  0  0  0  0
    3.9385    5.5766   14.4216 C   0  0  2  0  0  0  0  0  0  0  0  0
    4.6726    5.0080   15.6433 C   0  0  1  0  0  0  0  0  0  0  0  0
    0.0689    7.7729   19.9621 C   0  0  0  0  0  0  0  0  0  0  0  0
    5.1955    8.5781   19.1204 C   0  0  0  0  0  0  0  0  0  0  0  0
    3.4705    7.0229   18.4684 C   0  0  0  0  0  0  0  0  0  0  0  0
    7.3909    9.7718   18.7089 H   0  0  0  0  0  0  0  0  0  0  0  0
    7.2330   11.1144   19.7917 H   0  0  0  0  0  0  0  0  0  0  0  0
    4.1501    5.5068   12.3852 H   0  0  0  0  0  0  0  0  0  0  0  0
    3.2174    4.5956   17.2115 H   0  0  0  0  0  0  0  0  0  0  0  0
    3.5424    7.4576   15.2044 H   0  0  0  0  0  0  0  0  0  0  0  0
    4.9616    7.3823   14.4002 H   0  0  0  0  0  0  0  0  0  0  0  0
    3.5553    7.4309   13.5717 H   0  0  0  0  0  0  0  0  0  0  0  0
    5.3118    3.4872   12.1357 H   0  0  0  0  0  0  0  0  0  0  0  0
    3.9326    3.2308   12.9717 H   0  0  0  0  0  0  0  0  0  0  0  0
    6.9875    8.1123   18.2583 H   0  0  0  0  0  0  0  0  0  0  0  0
    6.5346    3.6172   14.1686 H   0  0  0  0  0  0  0  0  0  0  0  0
    5.7501    2.1865   14.1005 H   0  0  0  0  0  0  0  0  0  0  0  0
   -3.5575    8.0365   20.9778 H   0  0  0  0  0  0  0  0  0  0  0  0
   -1.9878    9.6560   21.7487 H   0  0  0  0  0  0  0  0  0  0  0  0
   -2.8304    6.2269   19.6096 H   0  0  0  0  0  0  0  0  0  0  0  0
    5.4630    3.1873   16.2387 H   0  0  0  0  0  0  0  0  0  0  0  0
    4.0270    3.0461   15.4741 H   0  0  0  0  0  0  0  0  0  0  0  0
    0.2910    9.4962   21.0846 H   0  0  0  0  0  0  0  0  0  0  0  0
   -0.5402    6.0540   18.9753 H   0  0  0  0  0  0  0  0  0  0  0  0
    1.5923    6.0379   18.2622 H   0  0  0  0  0  0  0  0  0  0  0  0
    2.9887    5.2644   14.4031 H   0  0  0  0  0  0  0  0  0  0  0  0
    5.5607    5.4619   15.7160 H   0  0  0  0  0  0  0  0  0  0  0  0
  1 19  1  0  0  0  0
  1 20  1  0  0  0  0
  2 18  2  0  0  0  0
  3 18  1  0  0  0  0
  4  9  1  0  0  0  0
  4 21  2  0  0  0  0
  5  8  1  0  0  0  0
  5 22  1  0  0  0  0
  6 21  1  0  0  0  0
  6 23  1  0  0  0  0
  7 22  1  0  0  0  0
  8 10  1  0  0  0  0
  9 25  2  0  0  0  0
 10 14  1  0  0  0  0
 11 12  2  0  0  0  0
 11 13  1  0  0  0  0
 12 15  1  0  0  0  0
 13 16  2  0  0  0  0
 14 23  1  0  0  0  0
 15 24  2  0  0  0  0
 16 24  1  0  0  0  0
 17 19  2  0  0  0  0
 17 26  1  0  0  0  0
 18 25  1  0  0  0  0
 19 24  1  0  0  0  0
 20 25  1  0  0  0  0
 20 26  2  0  0  0  0
 21 26  1  0  0  0  0
 22 23  1  0  0  0  0
  3 27  1  0  0  0  0
  3 28  1  0  0  0  0
  5 29  1  0  0  0  0
  6 30  1  0  0  0  0
  7 31  1  0  0  0  0
  7 32  1  0  0  0  0
  7 33  1  0  0  0  0
  8 34  1  0  0  0  0
  8 35  1  0  0  0  0
  9 36  1  0  0  0  0
 10 37  1  0  0  0  0
 10 38  1  0  0  0  0
 11 39  1  0  0  0  0
 12 40  1  0  0  0  0
 13 41  1  0  0  0  0
 14 42  1  0  0  0  0
 14 43  1  0  0  0  0
 15 44  1  0  0  0  0
 16 45  1  0  0  0  0
 17 46  1  0  0  0  0
 22 47  1  0  0  0  0
 23 48  1  0  0  0  0
M  END
> <pdb_id>
6FCF

> <uniprot_id>
O14757

> <usmiles>
S1c2c(c(ncc2C(=O)N)N[C@@H]3[C@H](NCCC3)C)C=C1c4ccccc4

$$$$
D66_A_1087
          07212402543D 1   1.00000     0.00000     0
            
 50 50  0  0  0  0            999 V2000
  169.5155  226.1043   11.9725 O   0  0  0  0  0  0  0  0  0  0  0  0
  168.4471  227.9715   12.5463 O   0  0  0  0  0  0  0  0  0  0  0  0
  165.4209  226.9632   11.7440 O   0  0  0  0  0  0  0  0  0  0  0  0
  164.1333  229.4057    9.8330 O   0  0  0  0  0  0  0  0  0  0  0  0
  163.1981  227.7887   18.6651 O   0  0  0  0  0  0  0  0  0  0  0  0
  162.5592  229.8163   11.9549 N   0  0  0  0  0  0  0  0  0  0  0  0
  166.8185  228.0410   10.4421 N   0  0  0  0  0  0  0  0  0  0  0  0
  163.4872  226.4486   19.0879 C   0  0  0  0  0  0  0  0  0  0  0  0
  167.3220  224.7125    8.3085 C   0  0  0  0  0  0  0  0  0  0  0  0
  168.8049  226.2211    6.8971 C   0  0  0  0  0  0  0  0  0  0  0  0
  163.4636  229.5872   17.0862 C   0  0  0  0  0  0  0  0  0  0  0  0
  163.8922  227.3676   16.3707 C   0  0  0  0  0  0  0  0  0  0  0  0
  163.7746  230.0800   15.7995 C   0  0  0  0  0  0  0  0  0  0  0  0
  164.2174  227.8374   15.0770 C   0  0  0  0  0  0  0  0  0  0  0  0
  168.5455  226.7409    9.2670 C   0  0  0  0  0  0  0  0  0  0  0  0
  164.4961  229.7763   13.4278 C   0  0  0  0  0  0  0  0  0  0  0  0
  168.6005  226.9369   11.7315 C   0  0  0  0  0  0  0  0  0  0  0  0
  165.6988  227.9966   11.1048 C   0  0  0  0  0  0  0  0  0  0  0  0
  163.5103  228.2374   17.3782 C   0  0  0  0  0  0  0  0  0  0  0  0
  164.7993  229.2406   11.0824 C   0  0  2  0  0  0  0  0  0  0  0  0
  163.8192  229.1212   12.2325 C   0  0  2  0  0  0  0  0  0  0  0  0
  167.6830  226.8597   10.5293 C   0  0  1  0  0  0  0  0  0  0  0  0
  167.8245  226.1367    8.0593 C   0  0  0  0  0  0  0  0  0  0  0  0
  164.1495  229.2031   14.7919 C   0  0  0  0  0  0  0  0  0  0  0  0
  169.6470  225.3174   11.3695 H   0  0  0  0  0  0  0  0  0  0  0  0
  163.5614  230.2254    9.8659 H   0  0  0  0  0  0  0  0  0  0  0  0
  162.1093  229.3903   11.1700 H   0  0  0  0  0  0  0  0  0  0  0  0
  161.9619  229.7559   12.7547 H   0  0  0  0  0  0  0  0  0  0  0  0
  167.0764  228.8411    9.9004 H   0  0  0  0  0  0  0  0  0  0  0  0
  163.1893  226.3262   20.0347 H   0  0  0  0  0  0  0  0  0  0  0  0
  163.0024  225.8014   18.4996 H   0  0  0  0  0  0  0  0  0  0  0  0
  164.4715  226.2840   19.0243 H   0  0  0  0  0  0  0  0  0  0  0  0
  166.6842  224.7140    9.0787 H   0  0  0  0  0  0  0  0  0  0  0  0
  166.8559  224.3755    7.4904 H   0  0  0  0  0  0  0  0  0  0  0  0
  168.0976  224.1174    8.5192 H   0  0  0  0  0  0  0  0  0  0  0  0
  169.1003  227.1691    6.7784 H   0  0  0  0  0  0  0  0  0  0  0  0
  169.6000  225.6458    7.0892 H   0  0  0  0  0  0  0  0  0  0  0  0
  168.3583  225.9039    6.0605 H   0  0  0  0  0  0  0  0  0  0  0  0
  163.2028  230.2321   17.8047 H   0  0  0  0  0  0  0  0  0  0  0  0
  163.9390  226.3871   16.5617 H   0  0  0  0  0  0  0  0  0  0  0  0
  163.7244  231.0615   15.6147 H   0  0  0  0  0  0  0  0  0  0  0  0
  164.4960  227.1917   14.3661 H   0  0  0  0  0  0  0  0  0  0  0  0
  169.3339  226.1641    9.4807 H   0  0  0  0  0  0  0  0  0  0  0  0
  168.8604  227.6565    9.0167 H   0  0  0  0  0  0  0  0  0  0  0  0
  164.2424  230.7436   13.4299 H   0  0  0  0  0  0  0  0  0  0  0  0
  165.4846  229.6912   13.3032 H   0  0  0  0  0  0  0  0  0  0  0  0
  165.3723  230.0447   11.2409 H   0  0  0  0  0  0  0  0  0  0  0  0
  163.6401  228.1571   12.4287 H   0  0  0  0  0  0  0  0  0  0  0  0
  167.1106  226.0437   10.6095 H   0  0  0  0  0  0  0  0  0  0  0  0
  167.0360  226.7133    7.8454 H   0  0  0  0  0  0  0  0  0  0  0  0
  1 17  1  0  0  0  0
  2 17  2  0  0  0  0
  3 18  2  0  0  0  0
  4 20  1  0  0  0  0
  5  8  1  0  0  0  0
  5 19  1  0  0  0  0
  6 21  1  0  0  0  0
  7 18  1  0  0  0  0
  7 22  1  0  0  0  0
  9 23  1  0  0  0  0
 10 23  1  0  0  0  0
 11 13  2  0  0  0  0
 11 19  1  0  0  0  0
 12 14  1  0  0  0  0
 12 19  2  0  0  0  0
 13 24  1  0  0  0  0
 14 24  2  0  0  0  0
 15 22  1  0  0  0  0
 15 23  1  0  0  0  0
 16 21  1  0  0  0  0
 16 24  1  0  0  0  0
 17 22  1  0  0  0  0
 18 20  1  0  0  0  0
 20 21  1  0  0  0  0
  1 25  1  0  0  0  0
  4 26  1  0  0  0  0
  6 27  1  0  0  0  0
  6 28  1  0  0  0  0
  7 29  1  0  0  0  0
  8 30  1  0  0  0  0
  8 31  1  0  0  0  0
  8 32  1  0  0  0  0
  9 33  1  0  0  0  0
  9 34  1  0  0  0  0
  9 35  1  0  0  0  0
 10 36  1  0  0  0  0
 10 37  1  0  0  0  0
 10 38  1  0  0  0  0
 11 39  1  0  0  0  0
 12 40  1  0  0  0  0
 13 41  1  0  0  0  0
 14 42  1  0  0  0  0
 15 43  1  0  0  0  0
 15 44  1  0  0  0  0
 16 45  1  0  0  0  0
 16 46  1  0  0  0  0
 20 47  1  0  0  0  0
 21 48  1  0  0  0  0
 22 49  1  0  0  0  0
 23 50  1  0  0  0  0
M  END
> <pdb_id>
3Q43

> <uniprot_id>
O96935

> <usmiles>
O=C(O)[C@@H](NC(=O)[C@@H](O)[C@H](N)Cc1ccc(OC)cc1)CC(C)C

$$$$
D6E_A_821
          07212403113D 1   1.00000     0.00000     0
            
 41 40  0  0  0  0            999 V2000
   18.5930   43.8100   42.7300 O   0  0  0  0  0  0  0  0  0  0  0  0
   13.1030   46.9940   39.8140 O   0  0  0  0  0  0  0  0  0  0  0  0
   13.8560   48.7940   40.8410 O   0  0  0  0  0  0  0  0  0  0  0  0
   16.9800   43.8240   39.5470 O   0  0  0  0  0  0  0  0  0  0  0  0
   17.9920   45.5850   40.4310 O   0  0  0  0  0  0  0  0  0  0  0  0
   19.7790   47.1630   46.1180 O   0  0  0  0  0  0  0  0  0  0  0  0
   20.7420   45.2280   46.7370 O   0  0  0  0  0  0  0  0  0  0  0  0
   16.8350   45.2030   42.8170 N   0  0  0  0  0  0  0  0  0  0  0  0
   18.6780   45.6370   44.0590 N   0  0  0  0  0  0  0  0  0  0  0  0
   23.1790   47.1410   42.8670 C   0  0  0  0  0  0  0  0  0  0  0  0
   23.0390   44.8840   43.9490 C   0  0  0  0  0  0  0  0  0  0  0  0
   15.0650   46.7920   41.1590 C   0  0  0  0  0  0  0  0  0  0  0  0
   14.8010   45.2630   41.3540 C   0  0  0  0  0  0  0  0  0  0  0  0
   20.9430   46.1700   43.4770 C   0  0  0  0  0  0  0  0  0  0  0  0
   18.0990   44.8640   43.1620 C   0  0  0  0  0  0  0  0  0  0  0  0
   13.8640   47.5640   40.6240 C   0  0  0  0  0  0  0  0  0  0  0  0
   17.1090   44.6850   40.4570 C   0  0  0  0  0  0  0  0  0  0  0  0
   20.2220   46.0070   45.9090 C   0  0  0  0  0  0  0  0  0  0  0  0
   22.4100   46.2990   43.9050 C   0  0  0  0  0  0  0  0  0  0  0  0
   16.1530   44.5590   41.6920 C   0  0  1  0  0  0  0  0  0  0  0  0
   20.0620   45.4250   44.5220 C   0  0  1  0  0  0  0  0  0  0  0  0
   13.1600   46.0038   39.6862 H   0  0  0  0  0  0  0  0  0  0  0  0
   16.2633   43.1298   39.6135 H   0  0  0  0  0  0  0  0  0  0  0  0
   19.3833   47.6903   45.3661 H   0  0  0  0  0  0  0  0  0  0  0  0
   16.3567   45.9078   43.3410 H   0  0  0  0  0  0  0  0  0  0  0  0
   18.1566   46.3996   44.4418 H   0  0  0  0  0  0  0  0  0  0  0  0
   22.7856   48.0594   42.8253 H   0  0  0  0  0  0  0  0  0  0  0  0
   24.1408   47.2022   43.1340 H   0  0  0  0  0  0  0  0  0  0  0  0
   23.1094   46.7075   41.9686 H   0  0  0  0  0  0  0  0  0  0  0  0
   22.5516   44.3232   44.6184 H   0  0  0  0  0  0  0  0  0  0  0  0
   22.9700   44.4603   43.0458 H   0  0  0  0  0  0  0  0  0  0  0  0
   24.0014   44.9550   44.2112 H   0  0  0  0  0  0  0  0  0  0  0  0
   15.8217   46.9010   40.5144 H   0  0  0  0  0  0  0  0  0  0  0  0
   15.3215   47.1823   42.0432 H   0  0  0  0  0  0  0  0  0  0  0  0
   14.4221   44.8772   40.5128 H   0  0  0  0  0  0  0  0  0  0  0  0
   14.1541   45.1265   42.1042 H   0  0  0  0  0  0  0  0  0  0  0  0
   20.9069   45.6661   42.6140 H   0  0  0  0  0  0  0  0  0  0  0  0
   20.5693   47.0878   43.3429 H   0  0  0  0  0  0  0  0  0  0  0  0
   22.4680   46.7285   44.8062 H   0  0  0  0  0  0  0  0  0  0  0  0
   15.9913   43.5943   41.8997 H   0  0  0  0  0  0  0  0  0  0  0  0
   20.2805   44.4492   44.5277 H   0  0  0  0  0  0  0  0  0  0  0  0
  1 15  2  0  0  0  0
  2 16  1  0  0  0  0
  3 16  2  0  0  0  0
  4 17  1  0  0  0  0
  5 17  2  0  0  0  0
  6 18  1  0  0  0  0
  7 18  2  0  0  0  0
  8 15  1  0  0  0  0
  8 20  1  0  0  0  0
  9 15  1  0  0  0  0
  9 21  1  0  0  0  0
 10 19  1  0  0  0  0
 11 19  1  0  0  0  0
 12 13  1  0  0  0  0
 12 16  1  0  0  0  0
 13 20  1  0  0  0  0
 14 19  1  0  0  0  0
 14 21  1  0  0  0  0
 17 20  1  0  0  0  0
 18 21  1  0  0  0  0
  2 22  1  0  0  0  0
  4 23  1  0  0  0  0
  6 24  1  0  0  0  0
  8 25  1  0  0  0  0
  9 26  1  0  0  0  0
 10 27  1  0  0  0  0
 10 28  1  0  0  0  0
 10 29  1  0  0  0  0
 11 30  1  0  0  0  0
 11 31  1  0  0  0  0
 11 32  1  0  0  0  0
 12 33  1  0  0  0  0
 12 34  1  0  0  0  0
 13 35  1  0  0  0  0
 13 36  1  0  0  0  0
 14 37  1  0  0  0  0
 14 38  1  0  0  0  0
 19 39  1  0  0  0  0
 20 40  1  0  0  0  0
 21 41  1  0  0  0  0
M  END
> <pdb_id>
6FE5

> <uniprot_id>
Q04609

> <usmiles>
O=C(N[C@H](C(=O)O)CC(C)C)N[C@H](C(=O)O)CCC(=O)O

$$$$
D6X_A_803
          07192416573D 1   1.00000     0.00000     0
            
 42 45  0  0  0  0            999 V2000
   17.6695   -2.4732   20.5391 N   0  0  0  0  0  0  0  0  0  0  0  0
   20.6651   -5.0189   22.9947 N   0  0  0  0  0  0  0  0  0  0  0  0
   19.3617   -3.4597   19.3369 N   0  0  0  0  0  0  0  0  0  0  0  0
   18.5495   -2.7562   17.1566 N   0  0  0  0  0  0  0  0  0  0  0  0
   23.0349   -4.6106   23.0797 N   0  0  0  0  0  0  0  0  0  0  0  0
   17.5147   -2.2633   19.2143 N   0  0  0  0  0  0  0  0  0  0  0  0
   17.5968   -1.9768   15.1449 C   0  0  0  0  0  0  0  0  0  0  0  0
   15.4271   -1.0356   19.5310 C   0  0  0  0  0  0  0  0  0  0  0  0
   20.6832   -4.1921   21.8162 C   0  0  0  0  0  0  0  0  0  0  0  0
   26.5460   -4.3210   24.0333 C   0  0  0  0  0  0  0  0  0  0  0  0
   26.5170   -4.8386   25.3186 C   0  0  0  0  0  0  0  0  0  0  0  0
   19.2978   -3.6282   21.8499 C   0  0  0  0  0  0  0  0  0  0  0  0
   21.8052   -5.5719   24.9366 C   0  0  0  0  0  0  0  0  0  0  0  0
   25.3742   -4.2584   23.2955 C   0  0  0  0  0  0  0  0  0  0  0  0
   25.3243   -5.2768   25.8590 C   0  0  0  0  0  0  0  0  0  0  0  0
   22.9629   -5.6442   25.6805 C   0  0  0  0  0  0  0  0  0  0  0  0
   16.4266   -1.4558   17.2976 C   0  0  0  0  0  0  0  0  0  0  0  0
   18.5271   -2.8551   18.5147 C   0  0  0  0  0  0  0  0  0  0  0  0
   18.7886   -3.1914   20.5596 C   0  0  0  0  0  0  0  0  0  0  0  0
   21.8874   -5.0481   23.6570 C   0  0  0  0  0  0  0  0  0  0  0  0
   17.5653   -2.0984   16.6193 C   0  0  0  0  0  0  0  0  0  0  0  0
   16.4745   -1.5991   18.6200 C   0  0  0  0  0  0  0  0  0  0  0  0
   24.1563   -4.7025   23.8120 C   0  0  0  0  0  0  0  0  0  0  0  0
   24.1495   -5.2083   25.1082 C   0  0  0  0  0  0  0  0  0  0  0  0
   19.8574   -5.5203   23.3047 H   0  0  0  0  0  0  0  0  0  0  0  0
   16.8005   -1.4566   14.8363 H   0  0  0  0  0  0  0  0  0  0  0  0
   18.4325   -1.5030   14.8673 H   0  0  0  0  0  0  0  0  0  0  0  0
   17.5787   -2.8887   14.7348 H   0  0  0  0  0  0  0  0  0  0  0  0
   14.7243   -0.5770   18.9873 H   0  0  0  0  0  0  0  0  0  0  0  0
   15.0104   -1.7762   20.0581 H   0  0  0  0  0  0  0  0  0  0  0  0
   15.8476   -0.3776   20.1556 H   0  0  0  0  0  0  0  0  0  0  0  0
   20.8409   -4.7324   20.9896 H   0  0  0  0  0  0  0  0  0  0  0  0
   21.3751   -3.4730   21.8814 H   0  0  0  0  0  0  0  0  0  0  0  0
   27.4062   -3.9951   23.6409 H   0  0  0  0  0  0  0  0  0  0  0  0
   27.3594   -4.8947   25.8545 H   0  0  0  0  0  0  0  0  0  0  0  0
   19.2964   -2.8420   22.4678 H   0  0  0  0  0  0  0  0  0  0  0  0
   18.6833   -4.3326   22.2051 H   0  0  0  0  0  0  0  0  0  0  0  0
   20.9326   -5.8879   25.3091 H   0  0  0  0  0  0  0  0  0  0  0  0
   25.4023   -3.8850   22.3682 H   0  0  0  0  0  0  0  0  0  0  0  0
   25.3021   -5.6435   26.7891 H   0  0  0  0  0  0  0  0  0  0  0  0
   22.9482   -6.0035   26.6136 H   0  0  0  0  0  0  0  0  0  0  0  0
   15.6985   -0.9662   16.8179 H   0  0  0  0  0  0  0  0  0  0  0  0
  1  6  1  0  0  0  0
  1 19  2  0  0  0  0
  2  9  1  0  0  0  0
  2 20  1  0  0  0  0
  3 18  2  0  0  0  0
  3 19  1  0  0  0  0
  4 18  1  0  0  0  0
  4 21  2  0  0  0  0
  5 20  2  0  0  0  0
  5 23  1  0  0  0  0
  6 18  1  0  0  0  0
  6 22  1  0  0  0  0
  7 21  1  0  0  0  0
  8 22  1  0  0  0  0
  9 12  1  0  0  0  0
 10 11  2  0  0  0  0
 10 14  1  0  0  0  0
 11 15  1  0  0  0  0
 12 19  1  0  0  0  0
 13 16  2  0  0  0  0
 13 20  1  0  0  0  0
 14 23  2  0  0  0  0
 15 24  2  0  0  0  0
 16 24  1  0  0  0  0
 17 21  1  0  0  0  0
 17 22  2  0  0  0  0
 23 24  1  0  0  0  0
  2 25  1  0  0  0  0
  7 26  1  0  0  0  0
  7 27  1  0  0  0  0
  7 28  1  0  0  0  0
  8 29  1  0  0  0  0
  8 30  1  0  0  0  0
  8 31  1  0  0  0  0
  9 32  1  0  0  0  0
  9 33  1  0  0  0  0
 10 34  1  0  0  0  0
 11 35  1  0  0  0  0
 12 36  1  0  0  0  0
 12 37  1  0  0  0  0
 13 38  1  0  0  0  0
 14 39  1  0  0  0  0
 15 40  1  0  0  0  0
 16 41  1  0  0  0  0
 17 42  1  0  0  0  0
M  END
> <pdb_id>
6KDX

> <uniprot_id>
Q9Y233

> <usmiles>
n1c(NCCC2=NN3C(=N2)N=C(C=C3C)C)ccc4c1cccc4

$$$$
D71_D_904
          07202412153D 1   1.00000     0.00000     0
            
 41 44  0  0  0  0            999 V2000
   46.8124   50.6082   68.6245 O   0  0  0  0  0  0  0  0  0  0  0  0
   46.7141   49.7810   70.6661 O   0  5  0  0  0  0  0  0  0  0  0  0
   47.3776   47.3050   65.0099 O   0  0  0  0  0  0  0  0  0  0  0  0
   44.7780   46.1408   61.3383 O   0  0  0  0  0  0  0  0  0  0  0  0
   49.9002   43.6342   62.9673 N   0  0  0  0  0  0  0  0  0  0  0  0
   42.8167   46.3632   65.6083 N   0  0  0  0  0  0  0  0  0  0  0  0
   46.5017   49.7015   69.3338 N   0  3  0  0  0  0  0  0  0  0  0  0
   46.1544   46.7456   63.1055 N   0  0  0  0  0  0  0  0  0  0  0  0
   45.1441   46.8505   65.4385 N   0  0  0  0  0  0  0  0  0  0  0  0
   50.2274   44.7645   63.5195 C   0  0  0  0  0  0  0  0  0  0  0  0
   48.7758   43.4421   62.1318 C   0  0  0  0  0  0  0  0  0  0  0  0
   41.5636   45.9867   65.1083 C   0  0  0  0  0  0  0  0  0  0  0  0
   41.4254   45.7567   63.7978 C   0  0  0  0  0  0  0  0  0  0  0  0
   45.4029   46.1478   69.1452 C   0  0  0  0  0  0  0  0  0  0  0  0
   47.3262   46.8703   62.1942 C   0  0  0  0  0  0  0  0  0  0  0  0
   49.3830   45.9490   63.3058 C   0  0  0  0  0  0  0  0  0  0  0  0
   47.9854   44.4730   61.8833 C   0  0  0  0  0  0  0  0  0  0  0  0
   45.8121   47.3242   69.6514 C   0  0  0  0  0  0  0  0  0  0  0  0
   45.1576   46.0175   67.7036 C   0  0  0  0  0  0  0  0  0  0  0  0
   42.5767   45.8588   62.9193 C   0  0  0  0  0  0  0  0  0  0  0  0
   45.8115   48.3662   67.4291 C   0  0  0  0  0  0  0  0  0  0  0  0
   46.2897   46.9535   64.5369 C   0  0  0  0  0  0  0  0  0  0  0  0
   44.9138   46.3555   62.5623 C   0  0  0  0  0  0  0  0  0  0  0  0
   43.8666   46.4713   64.8694 C   0  0  0  0  0  0  0  0  0  0  0  0
   46.0274   48.4990   68.7720 C   0  0  0  0  0  0  0  0  0  0  0  0
   45.3608   47.0818   66.8745 C   0  0  0  0  0  0  0  0  0  0  0  0
   48.3168   45.7806   62.4895 C   0  0  0  0  0  0  0  0  0  0  0  0
   43.7570   46.2050   63.4252 C   0  0  0  0  0  0  0  0  0  0  0  0
   51.0487   44.8281   64.0864 H   0  0  0  0  0  0  0  0  0  0  0  0
   48.5820   42.5443   61.7365 H   0  0  0  0  0  0  0  0  0  0  0  0
   40.7813   45.8909   65.7239 H   0  0  0  0  0  0  0  0  0  0  0  0
   40.5302   45.5147   63.4236 H   0  0  0  0  0  0  0  0  0  0  0  0
   45.2659   45.3629   69.7495 H   0  0  0  0  0  0  0  0  0  0  0  0
   47.7607   47.7604   62.3317 H   0  0  0  0  0  0  0  0  0  0  0  0
   47.0193   46.7921   61.2457 H   0  0  0  0  0  0  0  0  0  0  0  0
   49.5847   46.8277   63.7384 H   0  0  0  0  0  0  0  0  0  0  0  0
   47.1810   44.3705   61.2981 H   0  0  0  0  0  0  0  0  0  0  0  0
   45.9736   47.4083   70.6347 H   0  0  0  0  0  0  0  0  0  0  0  0
   44.8408   45.1464   67.3284 H   0  0  0  0  0  0  0  0  0  0  0  0
   42.4830   45.6704   61.9417 H   0  0  0  0  0  0  0  0  0  0  0  0
   45.9609   49.1461   66.8213 H   0  0  0  0  0  0  0  0  0  0  0  0
  1  7  2  0  0  0  0
  2  7  1  0  0  0  0
  3 22  2  0  0  0  0
  4 23  2  0  0  0  0
  5 10  2  0  0  0  0
  5 11  1  0  0  0  0
  6 12  1  0  0  0  0
  6 24  2  0  0  0  0
  7 25  1  0  0  0  0
  8 15  1  0  0  0  0
  8 22  1  0  0  0  0
  8 23  1  0  0  0  0
  9 22  1  0  0  0  0
  9 24  1  0  0  0  0
  9 26  1  0  0  0  0
 10 16  1  0  0  0  0
 11 17  2  0  0  0  0
 12 13  2  0  0  0  0
 13 20  1  0  0  0  0
 14 18  1  0  0  0  0
 14 19  2  0  0  0  0
 15 27  1  0  0  0  0
 16 27  2  0  0  0  0
 17 27  1  0  0  0  0
 18 25  2  0  0  0  0
 19 26  1  0  0  0  0
 20 28  2  0  0  0  0
 21 25  1  0  0  0  0
 21 26  2  0  0  0  0
 23 28  1  0  0  0  0
 24 28  1  0  0  0  0
 10 29  1  0  0  0  0
 11 30  1  0  0  0  0
 12 31  1  0  0  0  0
 13 32  1  0  0  0  0
 14 33  1  0  0  0  0
 15 34  1  0  0  0  0
 15 35  1  0  0  0  0
 16 36  1  0  0  0  0
 17 37  1  0  0  0  0
 18 38  1  0  0  0  0
 19 39  1  0  0  0  0
 20 40  1  0  0  0  0
 21 41  1  0  0  0  0
M  CHG  2   2  -1   7   1
M  END
> <pdb_id>
3G4G

> <uniprot_id>
Q08499

> <usmiles>
[O-][N+](=O)c1cc(N2c3ncccc3C(=O)N(C2=O)Cc4ccncc4)ccc1

$$$$
D72_A_701
          07202404183D 1   1.00000     0.00000     0
            
 37 38  0  0  0  0            999 V2000
   23.2060   23.2380   15.9420 Cl  0  0  0  0  0  0  0  0  0  0  0  0
   28.5050   23.4420   16.1920 Cl  0  0  0  0  0  0  0  0  0  0  0  0
   28.4780   19.8440   21.0200 F   0  0  0  0  0  0  0  0  0  0  0  0
   27.2190   21.4330   20.3250 F   0  0  0  0  0  0  0  0  0  0  0  0
   29.4060   21.5790   20.1130 F   0  0  0  0  0  0  0  0  0  0  0  0
   28.5000   17.1820   18.9710 O   0  0  0  0  0  0  0  0  0  0  0  0
   26.2570   16.9950   19.2030 O   0  0  0  0  0  0  0  0  0  0  0  0
   25.6730   24.4170   15.5180 O   0  0  0  0  0  0  0  0  0  0  0  0
   28.3180   20.9120   17.5050 O   0  0  0  0  0  0  0  0  0  0  0  0
   24.9560   23.5680   12.6470 C   0  0  0  0  0  0  0  0  0  0  0  0
   26.5260   25.3050   12.0140 C   0  0  0  0  0  0  0  0  0  0  0  0
   26.4710   24.4290   14.3350 C   0  0  0  0  0  0  0  0  0  0  0  0
   24.6830   21.2580   17.0520 C   0  0  0  0  0  0  0  0  0  0  0  0
   26.0050   19.4020   18.0360 C   0  0  0  0  0  0  0  0  0  0  0  0
   27.3200   17.6270   18.9790 C   0  0  0  0  0  0  0  0  0  0  0  0
   24.6660   22.4920   16.4330 C   0  0  0  0  0  0  0  0  0  0  0  0
   27.0260   22.6270   16.5220 C   0  0  0  0  0  0  0  0  0  0  0  0
   25.6490   24.8110   13.1350 C   0  0  0  0  0  0  0  0  0  0  0  0
   25.8180   23.1820   16.1510 C   0  0  0  0  0  0  0  0  0  0  0  0
   27.0590   21.4030   17.1610 C   0  0  0  0  0  0  0  0  0  0  0  0
   28.3190   20.0310   18.6400 C   0  0  2  0  0  0  0  0  0  0  0  0
   25.8920   20.7180   17.4390 C   0  0  0  0  0  0  0  0  0  0  0  0
   27.1910   19.0690   18.5350 C   0  0  0  0  0  0  0  0  0  0  0  0
   28.3410   20.7370   20.0050 C   0  0  0  0  0  0  0  0  0  0  0  0
   29.2647   17.7963   18.7764 H   0  0  0  0  0  0  0  0  0  0  0  0
   24.3630   23.2117   13.3691 H   0  0  0  0  0  0  0  0  0  0  0  0
   24.4054   23.7877   11.8416 H   0  0  0  0  0  0  0  0  0  0  0  0
   25.6389   22.8784   12.4059 H   0  0  0  0  0  0  0  0  0  0  0  0
   27.0038   26.1338   12.3051 H   0  0  0  0  0  0  0  0  0  0  0  0
   27.1949   24.5999   11.7786 H   0  0  0  0  0  0  0  0  0  0  0  0
   25.9614   25.5091   11.2143 H   0  0  0  0  0  0  0  0  0  0  0  0
   26.8561   23.5175   14.1910 H   0  0  0  0  0  0  0  0  0  0  0  0
   27.2127   25.0903   14.4474 H   0  0  0  0  0  0  0  0  0  0  0  0
   23.8304   20.7623   17.2176 H   0  0  0  0  0  0  0  0  0  0  0  0
   25.2273   18.7743   18.0708 H   0  0  0  0  0  0  0  0  0  0  0  0
   24.9767   25.5086   13.3827 H   0  0  0  0  0  0  0  0  0  0  0  0
   29.1598   19.4927   18.5831 H   0  0  0  0  0  0  0  0  0  0  0  0
  1 16  1  0  0  0  0
  2 17  1  0  0  0  0
  3 24  1  0  0  0  0
  4 24  1  0  0  0  0
  5 24  1  0  0  0  0
  6 15  1  0  0  0  0
  7 15  2  0  0  0  0
  8 12  1  0  0  0  0
  8 19  1  0  0  0  0
  9 20  1  0  0  0  0
  9 21  1  0  0  0  0
 10 18  1  0  0  0  0
 11 18  1  0  0  0  0
 12 18  1  0  0  0  0
 13 16  1  0  0  0  0
 13 22  2  0  0  0  0
 14 22  1  0  0  0  0
 14 23  2  0  0  0  0
 15 23  1  0  0  0  0
 16 19  2  0  0  0  0
 17 19  1  0  0  0  0
 17 20  2  0  0  0  0
 20 22  1  0  0  0  0
 21 23  1  0  0  0  0
 21 24  1  0  0  0  0
  6 25  1  0  0  0  0
 10 26  1  0  0  0  0
 10 27  1  0  0  0  0
 10 28  1  0  0  0  0
 11 29  1  0  0  0  0
 11 30  1  0  0  0  0
 11 31  1  0  0  0  0
 12 32  1  0  0  0  0
 12 33  1  0  0  0  0
 13 34  1  0  0  0  0
 14 35  1  0  0  0  0
 18 36  1  0  0  0  0
 21 37  1  0  0  0  0
M  END
> <pdb_id>
3NTG

> <uniprot_id>
Q05769

> <usmiles>
Clc1c2O[C@H](C(C(=O)O)=Cc2cc(Cl)c1OCC(C)C)C(F)(F)F

$$$$
D7D_A_1201
          07202414163D 1   1.00000     0.00000     0
            
 43 45  0  0  0  0            999 V2000
   56.7701   -6.6237   27.7026 S   0  0  0  0  0  0  0  0  0  0  0  0
   56.1783   -5.8301   28.7172 O   0  0  0  0  0  0  0  0  0  0  0  0
   58.1817   -6.7090   27.5997 O   0  0  0  0  0  0  0  0  0  0  0  0
   49.8801  -12.3563   31.9033 N   0  0  0  0  0  0  0  0  0  0  0  0
   52.2053  -11.6325   32.2289 N   0  0  0  0  0  0  0  0  0  0  0  0
   56.1955   -8.1524   27.8759 N   0  0  0  0  0  0  0  0  0  0  0  0
   48.8957  -11.5470   29.8020 N   0  0  0  0  0  0  0  0  0  0  0  0
   53.4232  -10.3721   30.6749 N   0  0  0  0  0  0  0  0  0  0  0  0
   54.6300  -10.6679   31.4605 C   0  0  0  0  0  0  0  0  0  0  0  0
   55.2252   -3.7878   26.4677 C   0  0  0  0  0  0  0  0  0  0  0  0
   51.0525  -12.2856   32.5676 C   0  0  0  0  0  0  0  0  0  0  0  0
   49.3354  -10.7279   28.7489 C   0  0  0  0  0  0  0  0  0  0  0  0
   50.6317  -10.3294   28.9897 C   0  0  0  0  0  0  0  0  0  0  0  0
   56.1516   -6.1359   26.2038 C   0  0  0  0  0  0  0  0  0  0  0  0
   56.3778   -4.6361   25.9538 C   0  0  0  0  0  0  0  0  0  0  0  0
   54.4438   -8.1615   29.7643 C   0  0  0  0  0  0  0  0  0  0  0  0
   54.2511   -9.7928   28.3212 C   0  0  0  0  0  0  0  0  0  0  0  0
   49.9203  -11.6388   30.7287 C   0  0  0  0  0  0  0  0  0  0  0  0
   52.2098  -10.9414   31.0409 C   0  0  0  0  0  0  0  0  0  0  0  0
   51.0377  -10.8936   30.2413 C   0  0  0  0  0  0  0  0  0  0  0  0
   54.8112   -8.3483   28.2592 C   0  0  0  0  0  0  0  0  0  0  0  0
   53.4925   -9.3862   29.6201 C   0  0  0  0  0  0  0  0  0  0  0  0
   56.7491   -9.0047   27.8213 H   0  0  0  0  0  0  0  0  0  0  0  0
   47.9811  -11.9619   29.8977 H   0  0  0  0  0  0  0  0  0  0  0  0
   55.5425  -10.5081   30.8595 H   0  0  0  0  0  0  0  0  0  0  0  0
   54.6635  -11.7223   31.7934 H   0  0  0  0  0  0  0  0  0  0  0  0
   54.7036  -10.0387   32.3658 H   0  0  0  0  0  0  0  0  0  0  0  0
   54.2716   -4.0418   25.9848 H   0  0  0  0  0  0  0  0  0  0  0  0
   55.3991   -2.7193   26.2724 H   0  0  0  0  0  0  0  0  0  0  0  0
   55.0693   -3.8800   27.5528 H   0  0  0  0  0  0  0  0  0  0  0  0
   51.1036  -12.8266   33.5290 H   0  0  0  0  0  0  0  0  0  0  0  0
   48.6864  -10.4996   27.9076 H   0  0  0  0  0  0  0  0  0  0  0  0
   51.2325   -9.6954   28.3496 H   0  0  0  0  0  0  0  0  0  0  0  0
   56.5877   -6.6798   25.3356 H   0  0  0  0  0  0  0  0  0  0  0  0
   55.0748   -6.3386   26.0334 H   0  0  0  0  0  0  0  0  0  0  0  0
   56.5197   -4.4552   24.8684 H   0  0  0  0  0  0  0  0  0  0  0  0
   57.3403   -4.3145   26.4095 H   0  0  0  0  0  0  0  0  0  0  0  0
   53.9678   -7.2053   30.0254 H   0  0  0  0  0  0  0  0  0  0  0  0
   55.2855   -8.2683   30.4658 H   0  0  0  0  0  0  0  0  0  0  0  0
   55.0034  -10.5866   28.4489 H   0  0  0  0  0  0  0  0  0  0  0  0
   53.6258  -10.1058   27.4711 H   0  0  0  0  0  0  0  0  0  0  0  0
   54.1629   -7.7036   27.6078 H   0  0  0  0  0  0  0  0  0  0  0  0
   52.4675   -8.9980   29.3783 H   0  0  0  0  0  0  0  0  0  0  0  0
  1  2  2  0  0  0  0
  1  3  2  0  0  0  0
  1  6  1  0  0  0  0
  1 14  1  0  0  0  0
  4 11  2  0  0  0  0
  4 18  1  0  0  0  0
  5 11  1  0  0  0  0
  5 19  2  0  0  0  0
  6 21  1  0  0  0  0
  6 23  1  0  0  0  0
  7 12  1  0  0  0  0
  7 18  1  0  0  0  0
  7 24  1  0  0  0  0
  8  9  1  0  0  0  0
  8 19  1  0  0  0  0
  8 22  1  0  0  0  0
  9 25  1  0  0  0  0
  9 26  1  0  0  0  0
  9 27  1  0  0  0  0
 10 15  1  0  0  0  0
 10 28  1  0  0  0  0
 10 29  1  0  0  0  0
 10 30  1  0  0  0  0
 11 31  1  0  0  0  0
 12 13  2  0  0  0  0
 12 32  1  0  0  0  0
 13 20  1  0  0  0  0
 13 33  1  0  0  0  0
 14 15  1  0  0  0  0
 14 34  1  0  0  0  0
 14 35  1  0  0  0  0
 15 36  1  0  0  0  0
 15 37  1  0  0  0  0
 16 21  1  0  0  0  0
 16 22  1  0  0  0  0
 16 38  1  0  0  0  0
 16 39  1  0  0  0  0
 17 21  1  0  0  0  0
 17 22  1  0  0  0  0
 17 40  1  0  0  0  0
 17 41  1  0  0  0  0
 18 20  2  0  0  0  0
 19 20  1  0  0  0  0
 21 42  1  0  0  0  0
 22 43  1  0  0  0  0
M  END
> <pdb_id>
6BBV

> <uniprot_id>
O60674

> <usmiles>
S(=O)(=O)(NC1CC(N(c2ncnc3NC=Cc23)C)C1)CCC

$$$$
D7D_A_4000
          07212403553D 1   1.00000     0.00000     0
            
 43 45  0  0  0  0            999 V2000
   40.8600   20.4108  239.0106 S   0  0  0  0  0  0  0  0  0  0  0  0
   41.7338   19.5798  238.2615 O   0  0  0  0  0  0  0  0  0  0  0  0
   41.0777   21.8096  239.0373 O   0  0  0  0  0  0  0  0  0  0  0  0
   40.3002   22.7797  248.5832 N   0  0  0  0  0  0  0  0  0  0  0  0
   41.7490   22.9084  246.6073 N   0  0  0  0  0  0  0  0  0  0  0  0
   40.9155   19.8472  240.5504 N   0  0  0  0  0  0  0  0  0  0  0  0
   38.1904   21.5866  248.1648 N   0  0  0  0  0  0  0  0  0  0  0  0
   41.2910   21.8643  244.5607 N   0  0  0  0  0  0  0  0  0  0  0  0
   42.6785   22.1490  244.1653 C   0  0  0  0  0  0  0  0  0  0  0  0
   37.1703   21.0606  237.4565 C   0  0  0  0  0  0  0  0  0  0  0  0
   41.4118   23.1461  247.9099 C   0  0  0  0  0  0  0  0  0  0  0  0
   37.6107   20.9554  247.0517 C   0  0  0  0  0  0  0  0  0  0  0  0
   38.4609   21.0595  245.9704 C   0  0  0  0  0  0  0  0  0  0  0  0
   39.2676   20.1117  238.5017 C   0  0  0  0  0  0  0  0  0  0  0  0
   38.5394   21.3780  238.0271 C   0  0  0  0  0  0  0  0  0  0  0  0
   40.4597   19.9501  243.0750 C   0  0  0  0  0  0  0  0  0  0  0  0
   40.5239   21.8950  242.0768 C   0  0  0  0  0  0  0  0  0  0  0  0
   39.4196   22.0960  247.7744 C   0  0  0  0  0  0  0  0  0  0  0  0
   40.8634   22.1884  245.8441 C   0  0  0  0  0  0  0  0  0  0  0  0
   39.6238   21.7782  246.3967 C   0  0  0  0  0  0  0  0  0  0  0  0
   40.1578   20.4415  241.6347 C   0  0  0  0  0  0  0  0  0  0  0  0
   40.3479   21.4353  243.5538 C   0  0  0  0  0  0  0  0  0  0  0  0
   41.5100   19.0718  240.8454 H   0  0  0  0  0  0  0  0  0  0  0  0
   37.7899   21.6695  249.0863 H   0  0  0  0  0  0  0  0  0  0  0  0
   43.3941   21.9481  244.9841 H   0  0  0  0  0  0  0  0  0  0  0  0
   42.8200   23.2017  243.8608 H   0  0  0  0  0  0  0  0  0  0  0  0
   42.9891   21.5034  243.3245 H   0  0  0  0  0  0  0  0  0  0  0  0
   37.2220   20.4093  236.5724 H   0  0  0  0  0  0  0  0  0  0  0  0
   36.5199   20.5534  238.1836 H   0  0  0  0  0  0  0  0  0  0  0  0
   36.6418   21.9740  237.1429 H   0  0  0  0  0  0  0  0  0  0  0  0
   42.1584   23.7286  248.4761 H   0  0  0  0  0  0  0  0  0  0  0  0
   36.6360   20.4790  247.1203 H   0  0  0  0  0  0  0  0  0  0  0  0
   38.2811   20.6707  244.9766 H   0  0  0  0  0  0  0  0  0  0  0  0
   38.5999   19.5981  239.2266 H   0  0  0  0  0  0  0  0  0  0  0  0
   39.2130   19.3699  237.6672 H   0  0  0  0  0  0  0  0  0  0  0  0
   38.4469   22.0964  238.8708 H   0  0  0  0  0  0  0  0  0  0  0  0
   39.1543   21.9011  237.2634 H   0  0  0  0  0  0  0  0  0  0  0  0
   39.7323   19.2469  243.5067 H   0  0  0  0  0  0  0  0  0  0  0  0
   41.4514   19.4938  243.2255 H   0  0  0  0  0  0  0  0  0  0  0  0
   41.5250   22.2382  241.7720 H   0  0  0  0  0  0  0  0  0  0  0  0
   39.8334   22.6846  241.7401 H   0  0  0  0  0  0  0  0  0  0  0  0
   39.0625   20.3564  241.4058 H   0  0  0  0  0  0  0  0  0  0  0  0
   39.2996   21.6735  243.8773 H   0  0  0  0  0  0  0  0  0  0  0  0
  1  2  2  0  0  0  0
  1  3  2  0  0  0  0
  1  6  1  0  0  0  0
  1 14  1  0  0  0  0
  4 11  2  0  0  0  0
  4 18  1  0  0  0  0
  5 11  1  0  0  0  0
  5 19  2  0  0  0  0
  6 21  1  0  0  0  0
  6 23  1  0  0  0  0
  7 12  1  0  0  0  0
  7 18  1  0  0  0  0
  7 24  1  0  0  0  0
  8  9  1  0  0  0  0
  8 19  1  0  0  0  0
  8 22  1  0  0  0  0
  9 25  1  0  0  0  0
  9 26  1  0  0  0  0
  9 27  1  0  0  0  0
 10 15  1  0  0  0  0
 10 28  1  0  0  0  0
 10 29  1  0  0  0  0
 10 30  1  0  0  0  0
 11 31  1  0  0  0  0
 12 13  2  0  0  0  0
 12 32  1  0  0  0  0
 13 20  1  0  0  0  0
 13 33  1  0  0  0  0
 14 15  1  0  0  0  0
 14 34  1  0  0  0  0
 14 35  1  0  0  0  0
 15 36  1  0  0  0  0
 15 37  1  0  0  0  0
 16 21  1  0  0  0  0
 16 22  1  0  0  0  0
 16 38  1  0  0  0  0
 16 39  1  0  0  0  0
 17 21  1  0  0  0  0
 17 22  1  0  0  0  0
 17 40  1  0  0  0  0
 17 41  1  0  0  0  0
 18 20  2  0  0  0  0
 19 20  1  0  0  0  0
 21 42  1  0  0  0  0
 22 43  1  0  0  0  0
M  END
> <pdb_id>
6BBU

> <uniprot_id>
P23458

> <usmiles>
S(=O)(=O)(NC1CC(N(c2ncnc3NC=Cc23)C)C1)CCC

$$$$
D87_A_901
          07192416553D 1   1.00000     0.00000     0
            
 34 36  0  0  0  0            999 V2000
   -9.7975   19.2015  -34.8133 O   0  0  0  0  0  0  0  0  0  0  0  0
   -7.3306   18.4750  -36.0429 N   0  0  0  0  0  0  0  0  0  0  0  0
   -6.5731   20.6014  -35.7361 N   0  0  0  0  0  0  0  0  0  0  0  0
  -10.2410   18.0948  -30.9209 C   0  0  0  0  0  0  0  0  0  0  0  0
  -11.3702   18.7370  -31.6725 C   0  0  0  0  0  0  0  0  0  0  0  0
  -11.8171   18.1163  -32.9818 C   0  0  0  0  0  0  0  0  0  0  0  0
   -5.8732   24.0302  -34.9291 C   0  0  0  0  0  0  0  0  0  0  0  0
   -7.0915   24.3940  -34.3569 C   0  0  0  0  0  0  0  0  0  0  0  0
  -12.1336   19.2932  -33.8589 C   0  0  0  0  0  0  0  0  0  0  0  0
   -5.6871   22.7684  -35.3926 C   0  0  0  0  0  0  0  0  0  0  0  0
   -8.1609   23.5049  -34.2376 C   0  0  0  0  0  0  0  0  0  0  0  0
  -10.3028   21.2120  -33.9894 C   0  0  0  0  0  0  0  0  0  0  0  0
   -7.5435   19.6991  -35.6442 C   0  0  0  0  0  0  0  0  0  0  0  0
  -10.8040   19.9174  -34.2225 C   0  0  0  0  0  0  0  0  0  0  0  0
   -8.7523   20.0087  -35.0257 C   0  0  0  0  0  0  0  0  0  0  0  0
   -6.7928   21.8801  -35.2949 C   0  0  0  0  0  0  0  0  0  0  0  0
   -8.9952   21.2549  -34.5801 C   0  0  0  0  0  0  0  0  0  0  0  0
   -7.9837   22.2030  -34.6701 C   0  0  0  0  0  0  0  0  0  0  0  0
   -8.0590   17.7932  -35.9751 H   0  0  0  0  0  0  0  0  0  0  0  0
   -6.4390   18.2186  -36.4162 H   0  0  0  0  0  0  0  0  0  0  0  0
  -10.0607   18.6120  -30.0842 H   0  0  0  0  0  0  0  0  0  0  0  0
  -10.4892   17.1553  -30.6851 H   0  0  0  0  0  0  0  0  0  0  0  0
   -9.4206   18.0893  -31.4927 H   0  0  0  0  0  0  0  0  0  0  0  0
  -11.0947   19.6775  -31.8712 H   0  0  0  0  0  0  0  0  0  0  0  0
  -12.1634   18.7435  -31.0636 H   0  0  0  0  0  0  0  0  0  0  0  0
  -12.6281   17.5472  -32.8458 H   0  0  0  0  0  0  0  0  0  0  0  0
  -11.0851   17.5637  -33.3803 H   0  0  0  0  0  0  0  0  0  0  0  0
   -5.1346   24.7008  -34.9981 H   0  0  0  0  0  0  0  0  0  0  0  0
   -7.2036   25.3284  -34.0188 H   0  0  0  0  0  0  0  0  0  0  0  0
  -12.7020   19.9510  -33.3648 H   0  0  0  0  0  0  0  0  0  0  0  0
  -12.6125   18.9922  -34.6836 H   0  0  0  0  0  0  0  0  0  0  0  0
   -4.8142   22.4774  -35.7840 H   0  0  0  0  0  0  0  0  0  0  0  0
   -9.0333   23.8017  -33.8492 H   0  0  0  0  0  0  0  0  0  0  0  0
  -10.7664   21.9554  -33.5072 H   0  0  0  0  0  0  0  0  0  0  0  0
  1 14  1  0  0  0  0
  1 15  1  0  0  0  0
  2 13  1  0  0  0  0
  3 13  2  0  0  0  0
  3 16  1  0  0  0  0
  4  5  1  0  0  0  0
  5  6  1  0  0  0  0
  6  9  1  0  0  0  0
  7  8  2  0  0  0  0
  7 10  1  0  0  0  0
  8 11  1  0  0  0  0
  9 14  1  0  0  0  0
 10 16  2  0  0  0  0
 11 18  2  0  0  0  0
 12 14  2  0  0  0  0
 12 17  1  0  0  0  0
 13 15  1  0  0  0  0
 15 17  2  0  0  0  0
 16 18  1  0  0  0  0
 17 18  1  0  0  0  0
  2 19  1  0  0  0  0
  2 20  1  0  0  0  0
  4 21  1  0  0  0  0
  4 22  1  0  0  0  0
  4 23  1  0  0  0  0
  5 24  1  0  0  0  0
  5 25  1  0  0  0  0
  6 26  1  0  0  0  0
  6 27  1  0  0  0  0
  7 28  1  0  0  0  0
  8 29  1  0  0  0  0
  9 30  1  0  0  0  0
  9 31  1  0  0  0  0
 10 32  1  0  0  0  0
 11 33  1  0  0  0  0
 12 34  1  0  0  0  0
M  END
> <pdb_id>
3WN4

> <uniprot_id>
Q9NR97

> <usmiles>
O1c2c(nc3c(c2C=C1CCCC)cccc3)N

$$$$
D8W_A_301
          07192416293D 1   1.00000     0.00000     0
            
 27 28  0  0  0  0            999 V2000
   -5.8118    3.3739   15.1749 S   0  0  0  0  0  0  0  0  0  0  0  0
   -5.8139    0.8388   16.7510 S   0  0  0  0  0  0  0  0  0  0  0  0
   -5.1806    5.9935   13.2837 S   0  0  0  0  0  0  0  0  0  0  0  0
   -5.2503    1.1555   18.0295 O   0  0  0  0  0  0  0  0  0  0  0  0
   -7.2016    1.0907   16.7055 O   0  0  0  0  0  0  0  0  0  0  0  0
   -6.1012    6.2255   14.3820 O   0  0  0  0  0  0  0  0  0  0  0  0
   -5.7792    6.4780   12.0132 O   0  0  0  0  0  0  0  0  0  0  0  0
   -5.4378   -0.6456   16.3464 N   0  0  0  0  0  0  0  0  0  0  0  0
   -4.6433    4.5965   13.0572 N   0  0  0  0  0  0  0  0  0  0  0  0
   -4.0584    1.5477   14.8638 N   0  0  0  0  0  0  0  0  0  0  0  0
   -3.8040    2.5042   13.8441 N   0  0  0  0  0  0  0  0  0  0  0  0
   -1.7328    8.4424   14.2671 C   0  0  0  0  0  0  0  0  0  0  0  0
   -2.5120    7.9276   15.3005 C   0  0  0  0  0  0  0  0  0  0  0  0
   -2.0259    8.2043   12.9279 C   0  0  0  0  0  0  0  0  0  0  0  0
   -3.6115    7.1397   14.9708 C   0  0  0  0  0  0  0  0  0  0  0  0
   -3.1245    7.4024   12.5982 C   0  0  0  0  0  0  0  0  0  0  0  0
   -5.1000    1.8689   15.6508 C   0  0  0  0  0  0  0  0  0  0  0  0
   -4.6739    3.5407   13.9115 C   0  0  0  0  0  0  0  0  0  0  0  0
   -3.8767    6.8774   13.6357 C   0  0  0  0  0  0  0  0  0  0  0  0
   -5.8347   -0.8585   15.4535 H   0  0  0  0  0  0  0  0  0  0  0  0
   -4.4430   -0.7363   16.2991 H   0  0  0  0  0  0  0  0  0  0  0  0
   -4.2130    4.4306   12.1699 H   0  0  0  0  0  0  0  0  0  0  0  0
   -0.9361    9.0020   14.4953 H   0  0  0  0  0  0  0  0  0  0  0  0
   -2.2873    8.1192   16.2559 H   0  0  0  0  0  0  0  0  0  0  0  0
   -1.4572    8.6022   12.2081 H   0  0  0  0  0  0  0  0  0  0  0  0
   -4.2018    6.7680   15.6873 H   0  0  0  0  0  0  0  0  0  0  0  0
   -3.3586    7.2146   11.6443 H   0  0  0  0  0  0  0  0  0  0  0  0
  1 17  1  0  0  0  0
  1 18  1  0  0  0  0
  2  4  2  0  0  0  0
  2  5  2  0  0  0  0
  2  8  1  0  0  0  0
  2 17  1  0  0  0  0
  3  6  2  0  0  0  0
  3  7  2  0  0  0  0
  3  9  1  0  0  0  0
  3 19  1  0  0  0  0
  9 18  1  0  0  0  0
 10 11  1  0  0  0  0
 10 17  2  0  0  0  0
 11 18  2  0  0  0  0
 12 13  2  0  0  0  0
 12 14  1  0  0  0  0
 13 15  1  0  0  0  0
 14 16  2  0  0  0  0
 15 19  2  0  0  0  0
 16 19  1  0  0  0  0
  8 20  1  0  0  0  0
  8 21  1  0  0  0  0
  9 22  1  0  0  0  0
 12 23  1  0  0  0  0
 13 24  1  0  0  0  0
 14 25  1  0  0  0  0
 15 26  1  0  0  0  0
 16 27  1  0  0  0  0
M  END
> <pdb_id>
3D8W

> <uniprot_id>
P00918

> <usmiles>
S(=O)(=O)(NC=1SC(S(=O)(=O)N)=NN1)c2ccccc2

$$$$
D8W_A_303
          07202411203D 1   1.00000     0.00000     0
            
 27 28  0  0  0  0            999 V2000
    9.2720  -40.8660  -76.7190 S   0  0  0  0  0  0  0  0  0  0  0  0
   10.2810  -38.5510  -74.8180 S   0  0  0  0  0  0  0  0  0  0  0  0
    8.6100  -43.2990  -78.9110 S   0  0  0  0  0  0  0  0  0  0  0  0
    9.5790  -37.2170  -74.6780 O   0  0  0  0  0  0  0  0  0  0  0  0
    9.8330  -39.4700  -73.7210 O   0  0  0  0  0  0  0  0  0  0  0  0
    9.3210  -43.4880  -77.5990 O   0  0  0  0  0  0  0  0  0  0  0  0
    9.2560  -44.1890  -79.9730 O   0  0  0  0  0  0  0  0  0  0  0  0
   11.9060  -38.3270  -74.7150 N   0  0  0  0  0  0  0  0  0  0  0  0
    8.7230  -41.7290  -79.3720 N   0  0  0  0  0  0  0  0  0  0  0  0
    9.9770  -38.7040  -77.6250 N   0  0  0  0  0  0  0  0  0  0  0  0
    9.6020  -39.4780  -78.6860 N   0  0  0  0  0  0  0  0  0  0  0  0
    4.2110  -44.4320  -78.4370 C   0  0  0  0  0  0  0  0  0  0  0  0
    4.5660  -43.1060  -78.6300 C   0  0  0  0  0  0  0  0  0  0  0  0
    5.1920  -45.4150  -78.3880 C   0  0  0  0  0  0  0  0  0  0  0  0
    5.9050  -42.7590  -78.7750 C   0  0  0  0  0  0  0  0  0  0  0  0
    6.5360  -45.0670  -78.5330 C   0  0  0  0  0  0  0  0  0  0  0  0
    9.8760  -39.2780  -76.4100 C   0  0  0  0  0  0  0  0  0  0  0  0
    9.1680  -40.7340  -78.4290 C   0  0  0  0  0  0  0  0  0  0  0  0
    6.8910  -43.7450  -78.7250 C   0  0  0  0  0  0  0  0  0  0  0  0
   12.3704  -39.2078  -74.8074 H   0  0  0  0  0  0  0  0  0  0  0  0
   12.2050  -37.7141  -75.4464 H   0  0  0  0  0  0  0  0  0  0  0  0
    8.4836  -41.4626  -80.3057 H   0  0  0  0  0  0  0  0  0  0  0  0
    3.2482  -44.6814  -78.3330 H   0  0  0  0  0  0  0  0  0  0  0  0
    3.8595  -42.3991  -78.6650 H   0  0  0  0  0  0  0  0  0  0  0  0
    4.9352  -46.3714  -78.2489 H   0  0  0  0  0  0  0  0  0  0  0  0
    6.1612  -41.8026  -78.9151 H   0  0  0  0  0  0  0  0  0  0  0  0
    7.2421  -45.7742  -78.4980 H   0  0  0  0  0  0  0  0  0  0  0  0
  1 17  1  0  0  0  0
  1 18  1  0  0  0  0
  2  4  2  0  0  0  0
  2  5  2  0  0  0  0
  2  8  1  0  0  0  0
  2 17  1  0  0  0  0
  3  6  2  0  0  0  0
  3  7  2  0  0  0  0
  3  9  1  0  0  0  0
  3 19  1  0  0  0  0
  9 18  1  0  0  0  0
 10 11  1  0  0  0  0
 10 17  2  0  0  0  0
 11 18  2  0  0  0  0
 12 13  2  0  0  0  0
 12 14  1  0  0  0  0
 13 15  1  0  0  0  0
 14 16  2  0  0  0  0
 15 19  2  0  0  0  0
 16 19  1  0  0  0  0
  8 20  1  0  0  0  0
  8 21  1  0  0  0  0
  9 22  1  0  0  0  0
 12 23  1  0  0  0  0
 13 24  1  0  0  0  0
 14 25  1  0  0  0  0
 15 26  1  0  0  0  0
 16 27  1  0  0  0  0
M  END
> <pdb_id>
5TT8

> <uniprot_id>
nan

> <usmiles>
S(=O)(=O)(NC=1SC(S(=O)(=O)N)=NN1)c2ccccc2

$$$$
D90_A_700
          07192422073D 1   1.00000     0.00000     0
            
 52 56  0  0  0  0            999 V2000
   42.8089   28.5763   12.4137 Cl  0  0  0  0  0  0  0  0  0  0  0  0
   34.6223   33.5875   17.2703 S   0  0  0  0  0  0  0  0  0  0  0  0
   32.9785   32.1854   15.3426 O   0  0  0  0  0  0  0  0  0  0  0  0
   35.3299   26.7921   14.9372 O   0  0  0  0  0  0  0  0  0  0  0  0
   35.0287   31.1859   18.1103 N   0  0  0  0  0  0  0  0  0  0  0  0
   33.3447   30.0068   15.9600 N   0  0  0  0  0  0  0  0  0  0  0  0
   34.6428   28.6952   13.8514 N   0  0  0  0  0  0  0  0  0  0  0  0
   37.0404   28.5653   12.5543 N   0  0  0  0  0  0  0  0  0  0  0  0
   36.9922   34.0317   20.5716 N   0  0  0  0  0  0  0  0  0  0  0  0
   37.7955   35.0601   21.2135 C   0  0  0  0  0  0  0  0  0  0  0  0
   37.3649   32.6748   20.8565 C   0  0  0  0  0  0  0  0  0  0  0  0
   36.3299   34.4628   19.3749 C   0  0  0  0  0  0  0  0  0  0  0  0
   30.5229   28.5575   14.2326 C   0  0  0  0  0  0  0  0  0  0  0  0
   31.1562   27.8982   13.1807 C   0  0  0  0  0  0  0  0  0  0  0  0
   36.6170   31.5489   20.1319 C   0  0  0  0  0  0  0  0  0  0  0  0
   40.4768   29.1587   11.2713 C   0  0  0  0  0  0  0  0  0  0  0  0
   31.2618   29.2644   15.1620 C   0  0  0  0  0  0  0  0  0  0  0  0
   32.5376   27.9466   13.0556 C   0  0  0  0  0  0  0  0  0  0  0  0
   39.0827   29.1899   11.2541 C   0  0  0  0  0  0  0  0  0  0  0  0
   40.4291   28.0137   13.4900 C   0  0  0  0  0  0  0  0  0  0  0  0
   38.0468   27.5888   14.3890 C   0  0  0  0  0  0  0  0  0  0  0  0
   34.3623   31.8773   17.1621 C   0  0  0  0  0  0  0  0  0  0  0  0
   41.0983   28.5677   12.4158 C   0  0  0  0  0  0  0  0  0  0  0  0
   33.4771   31.3346   16.0622 C   0  0  0  0  0  0  0  0  0  0  0  0
   35.5413   27.7458   14.2157 C   0  0  0  0  0  0  0  0  0  0  0  0
   35.6623   33.3434   18.6503 C   0  0  0  0  0  0  0  0  0  0  0  0
   36.8324   27.9450   13.7374 C   0  0  0  0  0  0  0  0  0  0  0  0
   35.7966   32.0581   18.9903 C   0  0  0  0  0  0  0  0  0  0  0  0
   32.6389   29.3120   15.0397 C   0  0  0  0  0  0  0  0  0  0  0  0
   33.2919   28.6421   13.9889 C   0  0  0  0  0  0  0  0  0  0  0  0
   38.3903   28.6530   12.3440 C   0  0  0  0  0  0  0  0  0  0  0  0
   39.0245   28.0394   13.4795 C   0  0  0  0  0  0  0  0  0  0  0  0
   33.8260   29.4628   16.6474 H   0  0  0  0  0  0  0  0  0  0  0  0
   35.0157   29.5250   13.4362 H   0  0  0  0  0  0  0  0  0  0  0  0
   36.3292   28.9027   11.9377 H   0  0  0  0  0  0  0  0  0  0  0  0
   37.4542   35.9625   20.9501 H   0  0  0  0  0  0  0  0  0  0  0  0
   37.7363   34.9581   22.2065 H   0  0  0  0  0  0  0  0  0  0  0  0
   38.7485   34.9670   20.9251 H   0  0  0  0  0  0  0  0  0  0  0  0
   37.2363   32.5321   21.8379 H   0  0  0  0  0  0  0  0  0  0  0  0
   38.3343   32.5801   20.6302 H   0  0  0  0  0  0  0  0  0  0  0  0
   37.0064   34.8787   18.7671 H   0  0  0  0  0  0  0  0  0  0  0  0
   35.6386   35.1428   19.6192 H   0  0  0  0  0  0  0  0  0  0  0  0
   29.5271   28.5186   14.3154 H   0  0  0  0  0  0  0  0  0  0  0  0
   30.6133   27.3883   12.5135 H   0  0  0  0  0  0  0  0  0  0  0  0
   36.0122   31.0923   20.7844 H   0  0  0  0  0  0  0  0  0  0  0  0
   37.2849   30.8927   19.7808 H   0  0  0  0  0  0  0  0  0  0  0  0
   41.0174   29.5326   10.5176 H   0  0  0  0  0  0  0  0  0  0  0  0
   30.8053   29.7372   15.9158 H   0  0  0  0  0  0  0  0  0  0  0  0
   32.9882   27.4808   12.2940 H   0  0  0  0  0  0  0  0  0  0  0  0
   38.5894   29.5872   10.4802 H   0  0  0  0  0  0  0  0  0  0  0  0
   40.9303   27.6060   14.2533 H   0  0  0  0  0  0  0  0  0  0  0  0
   38.1741   27.1336   15.2702 H   0  0  0  0  0  0  0  0  0  0  0  0
  1 23  1  0  0  0  0
  2 22  1  0  0  0  0
  2 26  1  0  0  0  0
  3 24  2  0  0  0  0
  4 25  2  0  0  0  0
  5 22  2  0  0  0  0
  5 28  1  0  0  0  0
  6 24  1  0  0  0  0
  6 29  1  0  0  0  0
  7 25  1  0  0  0  0
  7 30  1  0  0  0  0
  8 27  1  0  0  0  0
  8 31  1  0  0  0  0
  9 10  1  0  0  0  0
  9 11  1  0  0  0  0
  9 12  1  0  0  0  0
 11 15  1  0  0  0  0
 12 26  1  0  0  0  0
 13 14  2  0  0  0  0
 13 17  1  0  0  0  0
 14 18  1  0  0  0  0
 15 28  1  0  0  0  0
 16 19  1  0  0  0  0
 16 23  2  0  0  0  0
 17 29  2  0  0  0  0
 18 30  2  0  0  0  0
 19 31  2  0  0  0  0
 20 23  1  0  0  0  0
 20 32  2  0  0  0  0
 21 27  2  0  0  0  0
 21 32  1  0  0  0  0
 22 24  1  0  0  0  0
 25 27  1  0  0  0  0
 26 28  2  0  0  0  0
 29 30  1  0  0  0  0
 31 32  1  0  0  0  0
  6 33  1  0  0  0  0
  7 34  1  0  0  0  0
  8 35  1  0  0  0  0
 10 36  1  0  0  0  0
 10 37  1  0  0  0  0
 10 38  1  0  0  0  0
 11 39  1  0  0  0  0
 11 40  1  0  0  0  0
 12 41  1  0  0  0  0
 12 42  1  0  0  0  0
 13 43  1  0  0  0  0
 14 44  1  0  0  0  0
 15 45  1  0  0  0  0
 15 46  1  0  0  0  0
 16 47  1  0  0  0  0
 17 48  1  0  0  0  0
 18 49  1  0  0  0  0
 19 50  1  0  0  0  0
 20 51  1  0  0  0  0
 21 52  1  0  0  0  0
M  END
> <pdb_id>
3Q3K

> <uniprot_id>
P00742

> <usmiles>
Clc1cc2c(NC(C(=O)Nc3c(NC(=O)C=4SC5=C(N4)CCN(C5)C)cccc3)=C2)cc1

$$$$
D9W_A_501
          07202405583D 1   1.00000     0.00000     0
            
 41 43  0  0  0  0            999 V2000
   71.7146   44.5968   -0.0921 Br  0  0  0  0  0  0  0  0  0  0  0  0
   73.4166   47.3024    5.9731 O   0  0  0  0  0  0  0  0  0  0  0  0
   67.3007   47.3527    9.3108 O   0  0  0  0  0  0  0  0  0  0  0  0
   65.5028   48.4189    6.3581 N   0  0  0  0  0  0  0  0  0  0  0  0
   71.1390   46.8930    3.2693 N   0  0  0  0  0  0  0  0  0  0  0  0
   71.2117   47.9255    5.8427 N   0  0  0  0  0  0  0  0  0  0  0  0
   66.9274   49.5744    7.6941 N   0  0  0  0  0  0  0  0  0  0  0  0
   67.3677   51.1048    9.4223 C   0  0  0  0  0  0  0  0  0  0  0  0
   66.2103   47.2934    8.3640 C   0  0  0  0  0  0  0  0  0  0  0  0
   67.3558   48.6072   10.0059 C   0  0  0  0  0  0  0  0  0  0  0  0
   70.9480   46.3169    2.0488 C   0  0  0  0  0  0  0  0  0  0  0  0
   71.6503   49.7543    9.1404 C   0  0  0  0  0  0  0  0  0  0  0  0
   73.0247   45.0936    2.3591 C   0  0  0  0  0  0  0  0  0  0  0  0
   72.0074   49.0897    7.9464 C   0  0  0  0  0  0  0  0  0  0  0  0
   70.2887   49.9504    9.4709 C   0  0  0  0  0  0  0  0  0  0  0  0
   73.2024   45.6996    3.6180 C   0  0  0  0  0  0  0  0  0  0  0  0
   69.6471   48.8257    7.4192 C   0  0  0  0  0  0  0  0  0  0  0  0
   71.9012   45.3968    1.5608 C   0  0  0  0  0  0  0  0  0  0  0  0
   72.3392   47.3204    5.3896 C   0  0  0  0  0  0  0  0  0  0  0  0
   66.2332   48.5085    7.4421 C   0  0  0  0  0  0  0  0  0  0  0  0
   70.9922   48.6166    7.0698 C   0  0  0  0  0  0  0  0  0  0  0  0
   72.2263   46.6219    4.0603 C   0  0  0  0  0  0  0  0  0  0  0  0
   69.2477   49.4888    8.6083 C   0  0  0  0  0  0  0  0  0  0  0  0
   67.7298   49.6731    8.9267 C   0  0  1  0  0  0  0  0  0  0  0  0
   64.9735   47.5896    6.1790 H   0  0  0  0  0  0  0  0  0  0  0  0
   65.4747   49.1798    5.7099 H   0  0  0  0  0  0  0  0  0  0  0  0
   70.4237   47.8800    5.2287 H   0  0  0  0  0  0  0  0  0  0  0  0
   67.8591   51.2977   10.2716 H   0  0  0  0  0  0  0  0  0  0  0  0
   67.6287   51.7742    8.7268 H   0  0  0  0  0  0  0  0  0  0  0  0
   66.3830   51.1615    9.5867 H   0  0  0  0  0  0  0  0  0  0  0  0
   65.3433   47.2750    8.8620 H   0  0  0  0  0  0  0  0  0  0  0  0
   66.2969   46.4623    7.8147 H   0  0  0  0  0  0  0  0  0  0  0  0
   68.0522   48.5781   10.7230 H   0  0  0  0  0  0  0  0  0  0  0  0
   66.4673   48.8198   10.4126 H   0  0  0  0  0  0  0  0  0  0  0  0
   70.1405   46.5438    1.5043 H   0  0  0  0  0  0  0  0  0  0  0  0
   72.3642   50.0882    9.7559 H   0  0  0  0  0  0  0  0  0  0  0  0
   73.7040   44.4395    2.0263 H   0  0  0  0  0  0  0  0  0  0  0  0
   72.9712   48.9521    7.7180 H   0  0  0  0  0  0  0  0  0  0  0  0
   70.0513   50.4195   10.3215 H   0  0  0  0  0  0  0  0  0  0  0  0
   73.9979   45.4834    4.1840 H   0  0  0  0  0  0  0  0  0  0  0  0
   68.9370   48.4909    6.7997 H   0  0  0  0  0  0  0  0  0  0  0  0
  1 18  1  0  0  0  0
  2 19  2  0  0  0  0
  3  9  1  0  0  0  0
  3 10  1  0  0  0  0
  4 20  1  0  0  0  0
  5 11  1  0  0  0  0
  5 22  2  0  0  0  0
  6 19  1  0  0  0  0
  6 21  1  0  0  0  0
  7 20  2  0  0  0  0
  7 24  1  0  0  0  0
  8 24  1  0  0  0  0
  9 20  1  0  0  0  0
 10 24  1  0  0  0  0
 11 18  2  0  0  0  0
 12 14  1  0  0  0  0
 12 15  2  0  0  0  0
 13 16  2  0  0  0  0
 13 18  1  0  0  0  0
 14 21  2  0  0  0  0
 15 23  1  0  0  0  0
 16 22  1  0  0  0  0
 17 21  1  0  0  0  0
 17 23  2  0  0  0  0
 19 22  1  0  0  0  0
 23 24  1  0  0  0  0
  4 25  1  0  0  0  0
  4 26  1  0  0  0  0
  6 27  1  0  0  0  0
  8 28  1  0  0  0  0
  8 29  1  0  0  0  0
  8 30  1  0  0  0  0
  9 31  1  0  0  0  0
  9 32  1  0  0  0  0
 10 33  1  0  0  0  0
 10 34  1  0  0  0  0
 11 35  1  0  0  0  0
 12 36  1  0  0  0  0
 13 37  1  0  0  0  0
 14 38  1  0  0  0  0
 15 39  1  0  0  0  0
 16 40  1  0  0  0  0
 17 41  1  0  0  0  0
M  END
> <pdb_id>
6FGY

> <uniprot_id>
P56817

> <usmiles>
Brc1cnc(cc1)C(=O)Nc2cc(ccc2)[C@]3(N=C(N)COC3)C

$$$$
D9Z_A_263
          07192416293D 1   1.00000     0.00000     0
            
 22 23  0  0  0  0            999 V2000
   -6.2229    5.7283   13.4150 Cl  0  0  0  0  0  0  0  0  0  0  0  0
   -5.7028    3.3714   15.1737 S   0  0  0  0  0  0  0  0  0  0  0  0
   -5.9092    0.8570   16.9011 S   0  0  0  0  0  0  0  0  0  0  0  0
   -7.3010    1.1064   16.6676 O   0  0  0  0  0  0  0  0  0  0  0  0
   -5.5304    0.9543   18.2723 O   0  0  0  0  0  0  0  0  0  0  0  0
   -5.4908   -0.5645   16.3345 N   0  0  0  0  0  0  0  0  0  0  0  0
   -3.7818    2.1111   16.3143 N   0  0  0  0  0  0  0  0  0  0  0  0
   -3.2192    3.1064   15.5575 N   0  0  0  0  0  0  0  0  0  0  0  0
   -2.8148    7.1067   12.5593 C   0  0  0  0  0  0  0  0  0  0  0  0
   -1.8714    6.3404   13.2210 C   0  0  0  0  0  0  0  0  0  0  0  0
   -4.1810    6.8252   12.6766 C   0  0  0  0  0  0  0  0  0  0  0  0
   -2.2674    5.2456   14.0133 C   0  0  0  0  0  0  0  0  0  0  0  0
   -5.1197    2.1046   16.1718 C   0  0  0  0  0  0  0  0  0  0  0  0
   -4.5269    5.7582   13.4759 C   0  0  0  0  0  0  0  0  0  0  0  0
   -4.0765    3.8893   14.8818 C   0  0  0  0  0  0  0  0  0  0  0  0
   -3.6216    4.9650   14.1167 C   0  0  0  0  0  0  0  0  0  0  0  0
   -4.5179   -0.7190   16.5071 H   0  0  0  0  0  0  0  0  0  0  0  0
   -6.0270   -1.2756   16.7892 H   0  0  0  0  0  0  0  0  0  0  0  0
   -2.5164    7.8722   11.9892 H   0  0  0  0  0  0  0  0  0  0  0  0
   -0.9009    6.5659   13.1359 H   0  0  0  0  0  0  0  0  0  0  0  0
   -4.8718    7.3719   12.2034 H   0  0  0  0  0  0  0  0  0  0  0  0
   -1.5896    4.6850   14.4891 H   0  0  0  0  0  0  0  0  0  0  0  0
  1 14  1  0  0  0  0
  2 13  1  0  0  0  0
  2 15  1  0  0  0  0
  3  4  2  0  0  0  0
  3  5  2  0  0  0  0
  3  6  1  0  0  0  0
  3 13  1  0  0  0  0
  7  8  1  0  0  0  0
  7 13  2  0  0  0  0
  8 15  2  0  0  0  0
  9 10  2  0  0  0  0
  9 11  1  0  0  0  0
 10 12  1  0  0  0  0
 11 14  2  0  0  0  0
 12 16  2  0  0  0  0
 14 16  1  0  0  0  0
 15 16  1  0  0  0  0
  6 17  1  0  0  0  0
  6 18  1  0  0  0  0
  9 19  1  0  0  0  0
 10 20  1  0  0  0  0
 11 21  1  0  0  0  0
 12 22  1  0  0  0  0
M  END
> <pdb_id>
3D9Z

> <uniprot_id>
P00918

> <usmiles>
Clc1c(cccc1)C=2SC(S(=O)(=O)N)=NN2

$$$$
DAO_B_1552
          07202407143D 1   1.00000     0.00000     0
            
 38 37  0  0  0  0            999 V2000
   34.5678   56.1585   51.9523 O   0  0  0  0  0  0  0  0  0  0  0  0
   36.7176   55.9539   51.6400 O   0  0  0  0  0  0  0  0  0  0  0  0
   35.9973   44.4879   58.3237 C   0  0  0  0  0  0  0  0  0  0  0  0
   36.4621   45.7110   57.5462 C   0  0  0  0  0  0  0  0  0  0  0  0
   35.6592   46.9450   57.9594 C   0  0  0  0  0  0  0  0  0  0  0  0
   36.0166   48.1694   57.1115 C   0  0  0  0  0  0  0  0  0  0  0  0
   35.1505   49.3680   57.4813 C   0  0  0  0  0  0  0  0  0  0  0  0
   35.4396   50.5548   56.5640 C   0  0  0  0  0  0  0  0  0  0  0  0
   34.5906   51.7656   56.9567 C   0  0  0  0  0  0  0  0  0  0  0  0
   34.8999   53.0088   56.1080 C   0  0  0  0  0  0  0  0  0  0  0  0
   34.5304   52.8287   54.6391 C   0  0  0  0  0  0  0  0  0  0  0  0
   34.4109   54.1457   53.8637 C   0  0  0  0  0  0  0  0  0  0  0  0
   35.7751   54.6485   53.3859 C   0  0  0  0  0  0  0  0  0  0  0  0
   35.6705   55.6519   52.2549 C   0  0  0  0  0  0  0  0  0  0  0  0
   33.7441   55.9019   52.4580 H   0  0  0  0  0  0  0  0  0  0  0  0
   36.5316   43.6909   58.0420 H   0  0  0  0  0  0  0  0  0  0  0  0
   36.1262   44.6464   59.3026 H   0  0  0  0  0  0  0  0  0  0  0  0
   35.0288   44.3227   58.1374 H   0  0  0  0  0  0  0  0  0  0  0  0
   36.3340   45.5474   56.5680 H   0  0  0  0  0  0  0  0  0  0  0  0
   37.4313   45.8711   57.7332 H   0  0  0  0  0  0  0  0  0  0  0  0
   35.8515   47.1492   58.9193 H   0  0  0  0  0  0  0  0  0  0  0  0
   34.6849   46.7486   57.8491 H   0  0  0  0  0  0  0  0  0  0  0  0
   35.8750   47.9502   56.1462 H   0  0  0  0  0  0  0  0  0  0  0  0
   36.9772   48.4020   57.2631 H   0  0  0  0  0  0  0  0  0  0  0  0
   35.3424   49.6310   58.4269 H   0  0  0  0  0  0  0  0  0  0  0  0
   34.1870   49.1146   57.3948 H   0  0  0  0  0  0  0  0  0  0  0  0
   35.2287   50.2988   55.6206 H   0  0  0  0  0  0  0  0  0  0  0  0
   36.4074   50.7962   56.6355 H   0  0  0  0  0  0  0  0  0  0  0  0
   34.7672   51.9820   57.9169 H   0  0  0  0  0  0  0  0  0  0  0  0
   33.6256   51.5308   56.8399 H   0  0  0  0  0  0  0  0  0  0  0  0
   35.8790   53.2023   56.1697 H   0  0  0  0  0  0  0  0  0  0  0  0
   34.3834   53.7826   56.4748 H   0  0  0  0  0  0  0  0  0  0  0  0
   33.6515   52.3540   54.5912 H   0  0  0  0  0  0  0  0  0  0  0  0
   35.2355   52.2694   54.2032 H   0  0  0  0  0  0  0  0  0  0  0  0
   34.0017   54.8365   54.4598 H   0  0  0  0  0  0  0  0  0  0  0  0
   33.8223   54.0010   53.0683 H   0  0  0  0  0  0  0  0  0  0  0  0
   36.3108   53.8656   53.0694 H   0  0  0  0  0  0  0  0  0  0  0  0
   36.2426   55.0829   54.1557 H   0  0  0  0  0  0  0  0  0  0  0  0
  1 14  1  0  0  0  0
  2 14  2  0  0  0  0
  3  4  1  0  0  0  0
  4  5  1  0  0  0  0
  5  6  1  0  0  0  0
  6  7  1  0  0  0  0
  7  8  1  0  0  0  0
  8  9  1  0  0  0  0
  9 10  1  0  0  0  0
 10 11  1  0  0  0  0
 11 12  1  0  0  0  0
 12 13  1  0  0  0  0
 13 14  1  0  0  0  0
  1 15  1  0  0  0  0
  3 16  1  0  0  0  0
  3 17  1  0  0  0  0
  3 18  1  0  0  0  0
  4 19  1  0  0  0  0
  4 20  1  0  0  0  0
  5 21  1  0  0  0  0
  5 22  1  0  0  0  0
  6 23  1  0  0  0  0
  6 24  1  0  0  0  0
  7 25  1  0  0  0  0
  7 26  1  0  0  0  0
  8 27  1  0  0  0  0
  8 28  1  0  0  0  0
  9 29  1  0  0  0  0
  9 30  1  0  0  0  0
 10 31  1  0  0  0  0
 10 32  1  0  0  0  0
 11 33  1  0  0  0  0
 11 34  1  0  0  0  0
 12 35  1  0  0  0  0
 12 36  1  0  0  0  0
 13 37  1  0  0  0  0
 13 38  1  0  0  0  0
M  END
> <pdb_id>
2WYD

> <uniprot_id>
Q9I194

> <usmiles>
O=C(O)CCCCCCCCCCC

$$$$
DBQ_A_1
          07202411083D 1   1.00000     0.00000     0
            
 29 31  0  0  0  0            999 V2000
   19.3412   44.8838    7.2072 O   0  0  0  0  0  0  0  0  0  0  0  0
   22.3514   41.1293   12.5789 O   0  0  0  0  0  0  0  0  0  0  0  0
   19.7209   42.7950   15.8663 N   0  0  0  0  0  0  0  0  0  0  0  0
   20.2821   42.9850    8.0019 N   0  0  0  0  0  0  0  0  0  0  0  0
   18.7024   45.9403    9.5195 N   0  0  0  0  0  0  0  0  0  0  0  0
   21.2772   41.6819   14.5023 N   0  0  0  0  0  0  0  0  0  0  0  0
   19.8720   43.3053   13.6262 N   0  0  0  0  0  0  0  0  0  0  0  0
   20.7297   42.0626    9.0498 C   0  0  0  0  0  0  0  0  0  0  0  0
   18.5374   46.3154   10.8026 C   0  0  0  0  0  0  0  0  0  0  0  0
   21.5658   42.6810   10.1702 C   0  0  0  0  0  0  0  0  0  0  0  0
   19.2062   45.4419   11.5990 C   0  0  0  0  0  0  0  0  0  0  0  0
   20.2923   42.5721   14.6759 C   0  0  0  0  0  0  0  0  0  0  0  0
   19.7350   44.1764    8.1520 C   0  0  0  0  0  0  0  0  0  0  0  0
   21.4991   41.8394   13.2011 C   0  0  0  0  0  0  0  0  0  0  0  0
   19.4620   44.8431    9.4378 C   0  0  0  0  0  0  0  0  0  0  0  0
   20.6436   42.8875   12.6067 C   0  0  0  0  0  0  0  0  0  0  0  0
   19.7735   44.4320   10.8125 C   0  0  0  0  0  0  0  0  0  0  0  0
   20.6430   43.3168   11.1944 C   0  0  0  0  0  0  0  0  0  0  0  0
   22.4987   41.2686   11.5996 H   0  0  0  0  0  0  0  0  0  0  0  0
   18.9877   43.4698   15.9505 H   0  0  0  0  0  0  0  0  0  0  0  0
   20.0273   42.2866   16.6711 H   0  0  0  0  0  0  0  0  0  0  0  0
   20.4065   42.6738    7.0598 H   0  0  0  0  0  0  0  0  0  0  0  0
   19.1525   43.9995   13.6092 H   0  0  0  0  0  0  0  0  0  0  0  0
   21.2791   41.3488    8.6156 H   0  0  0  0  0  0  0  0  0  0  0  0
   19.9174   41.6523    9.4643 H   0  0  0  0  0  0  0  0  0  0  0  0
   18.0103   47.1052   11.1164 H   0  0  0  0  0  0  0  0  0  0  0  0
   22.1719   43.3787    9.7883 H   0  0  0  0  0  0  0  0  0  0  0  0
   22.1129   41.9690   10.6104 H   0  0  0  0  0  0  0  0  0  0  0  0
   19.2819   45.5097   12.5938 H   0  0  0  0  0  0  0  0  0  0  0  0
  1 13  2  0  0  0  0
  2 14  1  0  0  0  0
  3 12  1  0  0  0  0
  4  8  1  0  0  0  0
  4 13  1  0  0  0  0
  5  9  1  0  0  0  0
  5 15  2  0  0  0  0
  6 12  2  0  0  0  0
  6 14  1  0  0  0  0
  7 12  1  0  0  0  0
  7 16  1  0  0  0  0
  8 10  1  0  0  0  0
  9 11  2  0  0  0  0
 10 18  1  0  0  0  0
 11 17  1  0  0  0  0
 13 15  1  0  0  0  0
 14 16  2  0  0  0  0
 15 17  1  0  0  0  0
 16 18  1  0  0  0  0
 17 18  2  0  0  0  0
  2 19  1  0  0  0  0
  3 20  1  0  0  0  0
  3 21  1  0  0  0  0
  4 22  1  0  0  0  0
  7 23  1  0  0  0  0
  8 24  1  0  0  0  0
  8 25  1  0  0  0  0
  9 26  1  0  0  0  0
 10 27  1  0  0  0  0
 10 28  1  0  0  0  0
 11 29  1  0  0  0  0
M  END
> <pdb_id>
1Z57

> <uniprot_id>
P49759

> <usmiles>
O=C1NCCC(C=2NC(=NC2O)N)=C3C1=NC=C3

$$$$
DBQ_A_398
          07212404153D 1   1.00000     0.00000     0
            
 29 31  0  0  0  0            999 V2000
   14.4392   52.7543   -9.6234 O   0  0  0  0  0  0  0  0  0  0  0  0
   13.0988   45.6946   -9.3979 O   0  0  0  0  0  0  0  0  0  0  0  0
   10.6494   45.3529  -13.1421 N   0  0  0  0  0  0  0  0  0  0  0  0
   14.8895   50.6507   -9.1077 N   0  0  0  0  0  0  0  0  0  0  0  0
   12.1407   52.2179  -11.0393 N   0  0  0  0  0  0  0  0  0  0  0  0
   11.9152   45.1659  -11.1917 N   0  0  0  0  0  0  0  0  0  0  0  0
   11.4155   47.2856  -11.9469 N   0  0  0  0  0  0  0  0  0  0  0  0
   14.8168   49.2209   -9.2631 C   0  0  0  0  0  0  0  0  0  0  0  0
   11.1167   51.7557  -11.6583 C   0  0  0  0  0  0  0  0  0  0  0  0
   13.4430   48.6764   -8.8940 C   0  0  0  0  0  0  0  0  0  0  0  0
   10.9914   50.2592  -11.5042 C   0  0  0  0  0  0  0  0  0  0  0  0
   11.3269   45.9378  -12.1184 C   0  0  0  0  0  0  0  0  0  0  0  0
   14.0859   51.5583   -9.6765 C   0  0  0  0  0  0  0  0  0  0  0  0
   12.4437   46.0610  -10.3952 C   0  0  0  0  0  0  0  0  0  0  0  0
   12.8380   51.2298  -10.4310 C   0  0  0  0  0  0  0  0  0  0  0  0
   12.1719   47.4608  -10.8325 C   0  0  0  0  0  0  0  0  0  0  0  0
   12.2266   50.0393  -10.6634 C   0  0  0  0  0  0  0  0  0  0  0  0
   12.6091   48.7176  -10.1488 C   0  0  0  0  0  0  0  0  0  0  0  0
   10.2076   45.9195  -13.8377 H   0  0  0  0  0  0  0  0  0  0  0  0
   10.5928   44.3561  -13.1994 H   0  0  0  0  0  0  0  0  0  0  0  0
   15.6141   51.0016   -8.5145 H   0  0  0  0  0  0  0  0  0  0  0  0
   12.3921   53.1853  -11.0099 H   0  0  0  0  0  0  0  0  0  0  0  0
   11.0093   47.9968  -12.5206 H   0  0  0  0  0  0  0  0  0  0  0  0
   15.5020   48.7965   -8.6712 H   0  0  0  0  0  0  0  0  0  0  0  0
   15.0105   48.9894  -10.2164 H   0  0  0  0  0  0  0  0  0  0  0  0
   10.4773   52.3198  -12.1809 H   0  0  0  0  0  0  0  0  0  0  0  0
   13.0262   49.2447   -8.1845 H   0  0  0  0  0  0  0  0  0  0  0  0
   13.5224   47.7358   -8.5638 H   0  0  0  0  0  0  0  0  0  0  0  0
   10.3072   49.6169  -11.8495 H   0  0  0  0  0  0  0  0  0  0  0  0
  1 13  2  0  0  0  0
  2 14  2  0  0  0  0
  3 12  1  0  0  0  0
  4  8  1  0  0  0  0
  4 13  1  0  0  0  0
  5  9  1  0  0  0  0
  5 15  1  0  0  0  0
  6 12  2  0  0  0  0
  6 14  1  0  0  0  0
  7 12  1  0  0  0  0
  7 16  1  0  0  0  0
  8 10  1  0  0  0  0
  9 11  2  0  0  0  0
 10 18  1  0  0  0  0
 11 17  1  0  0  0  0
 13 15  1  0  0  0  0
 14 16  1  0  0  0  0
 15 17  2  0  0  0  0
 16 18  2  0  0  0  0
 17 18  1  0  0  0  0
  3 19  1  0  0  0  0
  3 20  1  0  0  0  0
  4 21  1  0  0  0  0
  5 22  1  0  0  0  0
  7 23  1  0  0  0  0
  8 24  1  0  0  0  0
  8 25  1  0  0  0  0
  9 26  1  0  0  0  0
 10 27  1  0  0  0  0
 10 28  1  0  0  0  0
 11 29  1  0  0  0  0
M  END
> <pdb_id>
1U4D

> <uniprot_id>
Q07912

> <usmiles>
O=C\1N=C(N/C1=C/2\C3=C(NC=C3)C(=O)NCC2)N

$$$$
DC8_A_80
          07202400333D 1   1.00000     0.00000     0
            
 39 42  0  0  0  0            999 V2000
   74.2950   40.0060   66.2830 F   0  0  0  0  0  0  0  0  0  0  0  0
   75.2520   41.8020   67.3130 F   0  0  0  0  0  0  0  0  0  0  0  0
   73.6130   35.8070   73.7130 O   0  0  0  0  0  0  0  0  0  0  0  0
   80.8680   43.4340   67.7210 O   0  0  0  0  0  0  0  0  0  0  0  0
   77.4200   40.0300   70.6300 O   0  0  0  0  0  0  0  0  0  0  0  0
   74.5450   36.0760   71.4990 C   0  0  0  0  0  0  0  0  0  0  0  0
   75.1660   37.6160   73.3030 C   0  0  0  0  0  0  0  0  0  0  0  0
   79.8840   42.7000   69.7970 C   0  0  0  0  0  0  0  0  0  0  0  0
   79.0180   41.8470   70.5110 C   0  0  0  0  0  0  0  0  0  0  0  0
   75.3940   36.7880   70.6010 C   0  0  0  0  0  0  0  0  0  0  0  0
   76.0110   38.3250   72.4150 C   0  0  0  0  0  0  0  0  0  0  0  0
   79.2840   41.5630   67.7070 C   0  0  0  0  0  0  0  0  0  0  0  0
   75.2700   39.6550   68.4640 C   0  0  0  0  0  0  0  0  0  0  0  0
   76.7040   40.1040   66.4950 C   0  0  0  0  0  0  0  0  0  0  0  0
   74.4340   36.4900   72.8470 C   0  0  0  0  0  0  0  0  0  0  0  0
   80.0240   42.5650   68.3980 C   0  0  0  0  0  0  0  0  0  0  0  0
   78.2600   40.8340   69.8430 C   0  0  0  0  0  0  0  0  0  0  0  0
   76.1450   37.9260   71.0440 C   0  0  0  0  0  0  0  0  0  0  0  0
   77.1140   38.7230   70.0700 C   0  0  1  0  0  0  0  0  0  0  0  0
   78.3850   40.6910   68.4310 C   0  0  0  0  0  0  0  0  0  0  0  0
   76.6010   38.8260   68.6060 C   0  0  2  0  0  0  0  0  0  0  0  0
   77.5710   39.6040   67.6790 C   0  0  1  0  0  0  0  0  0  0  0  0
   75.3500   40.4150   67.1180 C   0  0  0  0  0  0  0  0  0  0  0  0
   73.5358   36.1011   74.6656 H   0  0  0  0  0  0  0  0  0  0  0  0
   80.9791   43.3529   66.7305 H   0  0  0  0  0  0  0  0  0  0  0  0
   74.0279   35.2836   71.1754 H   0  0  0  0  0  0  0  0  0  0  0  0
   75.0851   37.9103   74.2553 H   0  0  0  0  0  0  0  0  0  0  0  0
   80.4016   43.4040   70.2833 H   0  0  0  0  0  0  0  0  0  0  0  0
   78.9320   41.9518   71.5018 H   0  0  0  0  0  0  0  0  0  0  0  0
   75.4664   36.4894   69.6494 H   0  0  0  0  0  0  0  0  0  0  0  0
   76.5225   39.1166   72.7492 H   0  0  0  0  0  0  0  0  0  0  0  0
   79.3864   41.4619   66.7174 H   0  0  0  0  0  0  0  0  0  0  0  0
   75.1876   40.3041   69.2203 H   0  0  0  0  0  0  0  0  0  0  0  0
   74.4811   39.0404   68.4648 H   0  0  0  0  0  0  0  0  0  0  0  0
   76.6168   39.3939   65.7963 H   0  0  0  0  0  0  0  0  0  0  0  0
   77.1025   40.9256   66.0874 H   0  0  0  0  0  0  0  0  0  0  0  0
   77.9742   38.2140   70.0390 H   0  0  0  0  0  0  0  0  0  0  0  0
   76.4590   37.9065   68.2395 H   0  0  0  0  0  0  0  0  0  0  0  0
   78.2253   38.9434   67.3109 H   0  0  0  0  0  0  0  0  0  0  0  0
  1 23  1  0  0  0  0
  2 23  1  0  0  0  0
  3 15  1  0  0  0  0
  4 16  1  0  0  0  0
  5 17  1  0  0  0  0
  5 19  1  0  0  0  0
  6 10  1  0  0  0  0
  6 15  2  0  0  0  0
  7 11  2  0  0  0  0
  7 15  1  0  0  0  0
  8  9  1  0  0  0  0
  8 16  2  0  0  0  0
  9 17  2  0  0  0  0
 10 18  2  0  0  0  0
 11 18  1  0  0  0  0
 12 16  1  0  0  0  0
 12 20  2  0  0  0  0
 13 21  1  0  0  0  0
 13 23  1  0  0  0  0
 14 22  1  0  0  0  0
 14 23  1  0  0  0  0
 17 20  1  0  0  0  0
 18 19  1  0  0  0  0
 19 21  1  0  0  0  0
 20 22  1  0  0  0  0
 21 22  1  0  0  0  0
  3 24  1  0  0  0  0
  4 25  1  0  0  0  0
  6 26  1  0  0  0  0
  7 27  1  0  0  0  0
  8 28  1  0  0  0  0
  9 29  1  0  0  0  0
 10 30  1  0  0  0  0
 11 31  1  0  0  0  0
 12 32  1  0  0  0  0
 13 33  1  0  0  0  0
 13 34  1  0  0  0  0
 14 35  1  0  0  0  0
 14 36  1  0  0  0  0
 19 37  1  0  0  0  0
 21 38  1  0  0  0  0
 22 39  1  0  0  0  0
M  END
> <pdb_id>
2Z4B

> <uniprot_id>
Q92731

> <usmiles>
FC1(F)C[C@H]2c3c(O[C@@H](c4ccc(O)cc4)[C@H]2C1)ccc(O)c3

$$$$
DCF_A_501
          07202408473D 1   1.00000     0.00000     0
            
 35 37  0  0  0  0            999 V2000
   32.3100   21.0290   34.9480 O   0  0  0  0  0  0  0  0  0  0  0  0
   33.9720   24.3200   38.0870 O   0  0  0  0  0  0  0  0  0  0  0  0
   25.5380   24.4390   36.4650 O   0  0  0  0  0  0  0  0  0  0  0  0
   31.6240   23.3420   36.2640 O   0  0  0  0  0  0  0  0  0  0  0  0
   26.4700   26.1610   38.5660 N   0  0  0  0  0  0  0  0  0  0  0  0
   28.6080   25.5900   37.6560 N   0  0  0  0  0  0  0  0  0  0  0  0
   27.8590   22.2110   37.5320 N   0  0  0  0  0  0  0  0  0  0  0  0
   29.6330   23.4800   37.5310 N   0  0  0  0  0  0  0  0  0  0  0  0
   27.6640   26.4140   38.0680 C   0  0  0  0  0  0  0  0  0  0  0  0
   32.8580   21.2420   36.2610 C   0  0  0  0  0  0  0  0  0  0  0  0
   29.1910   22.2250   37.4820 C   0  0  0  0  0  0  0  0  0  0  0  0
   25.8050   24.8700   38.8350 C   0  0  0  0  0  0  0  0  0  0  0  0
   31.8770   23.2440   38.6290 C   0  0  0  0  0  0  0  0  0  0  0  0
   31.0680   23.8790   37.4860 C   0  0  1  0  0  0  0  0  0  0  0  0
   33.2550   23.0770   38.0090 C   0  0  1  0  0  0  0  0  0  0  0  0
   25.9780   23.8670   37.6970 C   0  0  2  0  0  0  0  0  0  0  0  0
   32.9320   22.7540   36.5460 C   0  0  2  0  0  0  0  0  0  0  0  0
   28.5620   24.2690   37.6190 C   0  0  0  0  0  0  0  0  0  0  0  0
   27.4450   23.4640   37.6110 C   0  0  0  0  0  0  0  0  0  0  0  0
   32.2616   20.0476   34.7622 H   0  0  0  0  0  0  0  0  0  0  0  0
   34.8780   24.2084   37.6788 H   0  0  0  0  0  0  0  0  0  0  0  0
   25.6559   23.7738   35.7277 H   0  0  0  0  0  0  0  0  0  0  0  0
   25.9298   26.9700   38.7980 H   0  0  0  0  0  0  0  0  0  0  0  0
   27.8900   27.3850   37.9902 H   0  0  0  0  0  0  0  0  0  0  0  0
   33.7762   20.8486   36.3071 H   0  0  0  0  0  0  0  0  0  0  0  0
   32.2725   20.8025   36.9421 H   0  0  0  0  0  0  0  0  0  0  0  0
   29.7719   21.4136   37.4173 H   0  0  0  0  0  0  0  0  0  0  0  0
   24.8280   25.0357   38.9691 H   0  0  0  0  0  0  0  0  0  0  0  0
   26.1941   24.4777   39.6685 H   0  0  0  0  0  0  0  0  0  0  0  0
   31.4920   22.3605   38.8959 H   0  0  0  0  0  0  0  0  0  0  0  0
   31.9106   23.8474   39.4257 H   0  0  0  0  0  0  0  0  0  0  0  0
   31.1564   24.8749   37.5042 H   0  0  0  0  0  0  0  0  0  0  0  0
   33.7637   22.3338   38.4436 H   0  0  0  0  0  0  0  0  0  0  0  0
   25.4286   23.0548   37.8930 H   0  0  0  0  0  0  0  0  0  0  0  0
   33.6201   23.1717   35.9527 H   0  0  0  0  0  0  0  0  0  0  0  0
  1 10  1  0  0  0  0
  2 15  1  0  0  0  0
  3 16  1  0  0  0  0
  4 14  1  0  0  0  0
  4 17  1  0  0  0  0
  5  9  1  0  0  0  0
  5 12  1  0  0  0  0
  6  9  2  0  0  0  0
  6 18  1  0  0  0  0
  7 11  2  0  0  0  0
  7 19  1  0  0  0  0
  8 11  1  0  0  0  0
  8 14  1  0  0  0  0
  8 18  1  0  0  0  0
 10 17  1  0  0  0  0
 12 16  1  0  0  0  0
 13 14  1  0  0  0  0
 13 15  1  0  0  0  0
 15 17  1  0  0  0  0
 16 19  1  0  0  0  0
 18 19  2  0  0  0  0
  1 20  1  0  0  0  0
  2 21  1  0  0  0  0
  3 22  1  0  0  0  0
  5 23  1  0  0  0  0
  9 24  1  0  0  0  0
 10 25  1  0  0  0  0
 10 26  1  0  0  0  0
 11 27  1  0  0  0  0
 12 28  1  0  0  0  0
 12 29  1  0  0  0  0
 13 30  1  0  0  0  0
 13 31  1  0  0  0  0
 14 32  1  0  0  0  0
 15 33  1  0  0  0  0
 16 34  1  0  0  0  0
 17 35  1  0  0  0  0
M  END
> <pdb_id>
2PGR

> <uniprot_id>
A5KE01

> <usmiles>
O1[C@@H](N2C=3N=CNC[C@@H](O)C3N=C2)C[C@H](O)[C@H]1CO

$$$$
DCZ_A_1210
          07192417363D 1   1.00000     0.00000     0
            
 29 30  0  0  0  0            999 V2000
   57.5956   20.8822   11.9075 O   0  0  0  0  0  0  0  0  0  0  0  0
   61.7082   17.0454    9.1552 O   0  0  0  0  0  0  0  0  0  0  0  0
   57.7645   19.9238    7.8974 O   0  0  0  0  0  0  0  0  0  0  0  0
   59.9007   20.2973   10.2899 O   0  0  0  0  0  0  0  0  0  0  0  0
   62.5016   15.6716   13.5103 N   0  0  0  0  0  0  0  0  0  0  0  0
   62.0863   16.3916   11.3427 N   0  0  0  0  0  0  0  0  0  0  0  0
   60.5368   18.0906   10.8948 N   0  0  0  0  0  0  0  0  0  0  0  0
   58.1375   21.7818   10.9391 C   0  0  0  0  0  0  0  0  0  0  0  0
   60.2553   18.2300   12.1954 C   0  0  0  0  0  0  0  0  0  0  0  0
   60.9111   17.4187   13.1247 C   0  0  0  0  0  0  0  0  0  0  0  0
   58.4305   18.5476    9.6725 C   0  0  0  0  0  0  0  0  0  0  0  0
   61.4378   17.1841   10.4768 C   0  0  0  0  0  0  0  0  0  0  0  0
   59.8886   18.9224    9.8891 C   0  0  1  0  0  0  0  0  0  0  0  0
   57.7928   19.8648    9.3127 C   0  0  1  0  0  0  0  0  0  0  0  0
   61.8430   16.4894   12.6600 C   0  0  0  0  0  0  0  0  0  0  0  0
   58.7298   20.9592    9.8085 C   0  0  2  0  0  0  0  0  0  0  0  0
   57.1994   21.4044   12.6627 H   0  0  0  0  0  0  0  0  0  0  0  0
   57.3475   20.7854    7.6079 H   0  0  0  0  0  0  0  0  0  0  0  0
   62.3318   15.7317   14.4940 H   0  0  0  0  0  0  0  0  0  0  0  0
   63.1587   15.0063   13.1560 H   0  0  0  0  0  0  0  0  0  0  0  0
   58.8507   22.3427   11.3596 H   0  0  0  0  0  0  0  0  0  0  0  0
   57.4138   22.3737   10.5843 H   0  0  0  0  0  0  0  0  0  0  0  0
   59.5839   18.9063   12.4985 H   0  0  0  0  0  0  0  0  0  0  0  0
   60.7170   17.5021   14.1021 H   0  0  0  0  0  0  0  0  0  0  0  0
   58.0286   18.1696   10.5066 H   0  0  0  0  0  0  0  0  0  0  0  0
   58.3358   17.8869    8.9278 H   0  0  0  0  0  0  0  0  0  0  0  0
   60.3809   18.8307    9.0235 H   0  0  0  0  0  0  0  0  0  0  0  0
   56.8778   19.9537    9.7060 H   0  0  0  0  0  0  0  0  0  0  0  0
   58.9738   21.5612    9.0482 H   0  0  0  0  0  0  0  0  0  0  0  0
  1  8  1  0  0  0  0
  2 12  2  0  0  0  0
  3 14  1  0  0  0  0
  4 13  1  0  0  0  0
  4 16  1  0  0  0  0
  5 15  1  0  0  0  0
  6 12  1  0  0  0  0
  6 15  2  0  0  0  0
  7  9  1  0  0  0  0
  7 12  1  0  0  0  0
  7 13  1  0  0  0  0
  8 16  1  0  0  0  0
  9 10  2  0  0  0  0
 10 15  1  0  0  0  0
 11 13  1  0  0  0  0
 11 14  1  0  0  0  0
 14 16  1  0  0  0  0
  1 17  1  0  0  0  0
  3 18  1  0  0  0  0
  5 19  1  0  0  0  0
  5 20  1  0  0  0  0
  8 21  1  0  0  0  0
  8 22  1  0  0  0  0
  9 23  1  0  0  0  0
 10 24  1  0  0  0  0
 11 25  1  0  0  0  0
 11 26  1  0  0  0  0
 13 27  1  0  0  0  0
 14 28  1  0  0  0  0
 16 29  1  0  0  0  0
M  END
> <pdb_id>
2VP5

> <uniprot_id>
Q9XZT6

> <usmiles>
O=C1N=C(N)C=CN1[C@@H]2O[C@@H]([C@@H](O)C2)CO

$$$$
DCZ_B_302
          07212402383D 1   1.00000     0.00000     0
            
 29 30  0  0  0  0            999 V2000
   -8.1501  -35.8367   25.2539 O   0  0  0  0  0  0  0  0  0  0  0  0
  -14.7960  -38.4325   24.8848 O   0  0  0  0  0  0  0  0  0  0  0  0
   -9.8742  -39.3783   24.1368 O   0  0  0  0  0  0  0  0  0  0  0  0
  -11.1576  -37.4576   26.0118 O   0  0  0  0  0  0  0  0  0  0  0  0
  -16.6363  -34.0168   24.2557 N   0  0  0  0  0  0  0  0  0  0  0  0
  -15.7536  -36.3398   24.5787 N   0  0  0  0  0  0  0  0  0  0  0  0
  -13.2222  -36.7791   24.6253 N   0  0  0  0  0  0  0  0  0  0  0  0
   -9.5176  -35.8948   25.5422 C   0  0  0  0  0  0  0  0  0  0  0  0
  -12.9734  -35.3722   24.3983 C   0  0  0  0  0  0  0  0  0  0  0  0
  -14.1205  -34.4310   24.2698 C   0  0  0  0  0  0  0  0  0  0  0  0
  -11.4098  -37.7005   23.6805 C   0  0  0  0  0  0  0  0  0  0  0  0
  -14.6116  -37.2760   24.7106 C   0  0  0  0  0  0  0  0  0  0  0  0
  -12.1247  -37.7459   24.7360 C   0  0  1  0  0  0  0  0  0  0  0  0
  -10.0310  -38.0107   24.1385 C   0  0  1  0  0  0  0  0  0  0  0  0
  -15.5200  -34.9307   24.3702 C   0  0  0  0  0  0  0  0  0  0  0  0
   -9.9850  -37.4106   25.5845 C   0  0  2  0  0  0  0  0  0  0  0  0
   -7.8554  -34.8815   25.2273 H   0  0  0  0  0  0  0  0  0  0  0  0
   -8.9503  -39.6083   24.4428 H   0  0  0  0  0  0  0  0  0  0  0  0
  -16.4711  -33.0412   24.1113 H   0  0  0  0  0  0  0  0  0  0  0  0
  -17.5730  -34.3610   24.3210 H   0  0  0  0  0  0  0  0  0  0  0  0
  -10.0286  -35.4080   24.8338 H   0  0  0  0  0  0  0  0  0  0  0  0
   -9.6895  -35.4681   26.4301 H   0  0  0  0  0  0  0  0  0  0  0  0
  -12.0353  -35.0331   24.3279 H   0  0  0  0  0  0  0  0  0  0  0  0
  -13.9501  -33.4578   24.1152 H   0  0  0  0  0  0  0  0  0  0  0  0
  -11.4473  -36.7898   23.2691 H   0  0  0  0  0  0  0  0  0  0  0  0
  -11.7207  -38.3796   23.0156 H   0  0  0  0  0  0  0  0  0  0  0  0
  -12.5111  -38.6639   24.8249 H   0  0  0  0  0  0  0  0  0  0  0  0
   -9.3522  -37.5730   23.5488 H   0  0  0  0  0  0  0  0  0  0  0  0
   -9.3772  -37.9489   26.1683 H   0  0  0  0  0  0  0  0  0  0  0  0
  1  8  1  0  0  0  0
  2 12  2  0  0  0  0
  3 14  1  0  0  0  0
  4 13  1  0  0  0  0
  4 16  1  0  0  0  0
  5 15  1  0  0  0  0
  6 12  1  0  0  0  0
  6 15  2  0  0  0  0
  7  9  1  0  0  0  0
  7 12  1  0  0  0  0
  7 13  1  0  0  0  0
  8 16  1  0  0  0  0
  9 10  2  0  0  0  0
 10 15  1  0  0  0  0
 11 13  1  0  0  0  0
 11 14  1  0  0  0  0
 14 16  1  0  0  0  0
  1 17  1  0  0  0  0
  3 18  1  0  0  0  0
  5 19  1  0  0  0  0
  5 20  1  0  0  0  0
  8 21  1  0  0  0  0
  8 22  1  0  0  0  0
  9 23  1  0  0  0  0
 10 24  1  0  0  0  0
 11 25  1  0  0  0  0
 11 26  1  0  0  0  0
 13 27  1  0  0  0  0
 14 28  1  0  0  0  0
 16 29  1  0  0  0  0
M  END
> <pdb_id>
6NKA

> <uniprot_id>
P9WPQ5

> <usmiles>
O=C1N=C(N)C=CN1[C@@H]2O[C@@H]([C@@H](O)C2)CO

$$$$
DEA_B_502
          07202406313D 1   1.00000     0.00000     0
            
 29 30  0  0  0  0            999 V2000
  -29.1788  -23.2537   -6.2288 O   0  0  0  0  0  0  0  0  0  0  0  0
  -30.0372  -25.2766   -6.1995 O   0  0  0  0  0  0  0  0  0  0  0  0
  -26.8585  -25.8369   -6.6485 O   0  0  0  0  0  0  0  0  0  0  0  0
  -27.2138  -23.8155   -4.6376 O   0  0  0  0  0  0  0  0  0  0  0  0
  -23.8549  -31.4497   -3.7252 N   0  0  0  0  0  0  0  0  0  0  0  0
  -25.1820  -30.3086   -2.1318 N   0  0  0  0  0  0  0  0  0  0  0  0
  -26.8332  -28.7338   -2.7821 N   0  0  0  0  0  0  0  0  0  0  0  0
  -25.4865  -29.8273   -5.8211 N   0  0  0  0  0  0  0  0  0  0  0  0
  -27.0730  -28.4047   -5.2030 N   0  0  0  0  0  0  0  0  0  0  0  0
  -26.1545  -29.4205   -1.8442 C   0  0  0  0  0  0  0  0  0  0  0  0
  -26.4179  -28.9438   -6.2480 C   0  0  0  0  0  0  0  0  0  0  0  0
  -28.1143  -27.3866   -5.2731 C   0  0  0  0  0  0  0  0  0  0  0  0
  -29.1951  -24.4383   -5.8170 C   0  0  0  0  0  0  0  0  0  0  0  0
  -24.8265  -30.5659   -3.4144 C   0  0  0  0  0  0  0  0  0  0  0  0
  -27.3452  -26.0644   -5.3175 C   0  0  2  0  0  0  0  0  0  0  0  0
  -28.1486  -24.8672   -4.8308 C   0  0  1  0  0  0  0  0  0  0  0  0
  -26.5728  -28.9082   -4.0815 C   0  0  0  0  0  0  0  0  0  0  0  0
  -25.5386  -29.8491   -4.4814 C   0  0  0  0  0  0  0  0  0  0  0  0
  -28.4841  -22.6173   -5.8934 H   0  0  0  0  0  0  0  0  0  0  0  0
  -26.3561  -24.9727   -6.6765 H   0  0  0  0  0  0  0  0  0  0  0  0
  -26.5181  -24.1046   -3.9800 H   0  0  0  0  0  0  0  0  0  0  0  0
  -23.6176  -31.6158   -4.6823 H   0  0  0  0  0  0  0  0  0  0  0  0
  -23.3723  -31.9384   -2.9983 H   0  0  0  0  0  0  0  0  0  0  0  0
  -26.3838  -29.2635   -0.8835 H   0  0  0  0  0  0  0  0  0  0  0  0
  -26.5951  -28.7220   -7.2069 H   0  0  0  0  0  0  0  0  0  0  0  0
  -28.7042  -27.4267   -4.4666 H   0  0  0  0  0  0  0  0  0  0  0  0
  -28.6684  -27.5023   -6.0975 H   0  0  0  0  0  0  0  0  0  0  0  0
  -26.5504  -26.1578   -4.7179 H   0  0  0  0  0  0  0  0  0  0  0  0
  -28.5841  -25.0904   -3.9587 H   0  0  0  0  0  0  0  0  0  0  0  0
  1 13  1  0  0  0  0
  2 13  2  0  0  0  0
  3 15  1  0  0  0  0
  4 16  1  0  0  0  0
  5 14  1  0  0  0  0
  6 10  1  0  0  0  0
  6 14  2  0  0  0  0
  7 10  2  0  0  0  0
  7 17  1  0  0  0  0
  8 11  2  0  0  0  0
  8 18  1  0  0  0  0
  9 11  1  0  0  0  0
  9 12  1  0  0  0  0
  9 17  1  0  0  0  0
 12 15  1  0  0  0  0
 13 16  1  0  0  0  0
 14 18  1  0  0  0  0
 15 16  1  0  0  0  0
 17 18  2  0  0  0  0
  1 19  1  0  0  0  0
  3 20  1  0  0  0  0
  4 21  1  0  0  0  0
  5 22  1  0  0  0  0
  5 23  1  0  0  0  0
 10 24  1  0  0  0  0
 11 25  1  0  0  0  0
 12 26  1  0  0  0  0
 12 27  1  0  0  0  0
 15 28  1  0  0  0  0
 16 29  1  0  0  0  0
M  END
> <pdb_id>
5JPI

> <uniprot_id>
Q5CPH1

> <usmiles>
O=C(O)[C@H](O)[C@H](O)CN1c2ncnc(N)c2N=C1

$$$$
DEE_B_501
          07202412153D 1   1.00000     0.00000     0
            
 24 24  0  0  0  0            999 V2000
   44.0842   46.7738   66.1700 O   0  0  0  0  0  0  0  0  0  0  0  0
   43.2891   45.8305   64.2518 O   0  0  0  0  0  0  0  0  0  0  0  0
   47.8888   46.1572   64.3617 N   0  0  0  0  0  0  0  0  0  0  0  0
   47.3577   45.4224   63.3725 N   0  0  0  0  0  0  0  0  0  0  0  0
   41.0126   45.2906   63.7415 C   0  0  0  0  0  0  0  0  0  0  0  0
   47.0280   47.4264   66.2699 C   0  0  0  0  0  0  0  0  0  0  0  0
   45.2373   44.5851   62.3879 C   0  0  0  0  0  0  0  0  0  0  0  0
   41.9314   46.0355   64.6849 C   0  0  0  0  0  0  0  0  0  0  0  0
   44.2725   46.3657   65.0329 C   0  0  0  0  0  0  0  0  0  0  0  0
   46.8315   46.5739   65.0691 C   0  0  0  0  0  0  0  0  0  0  0  0
   45.9951   45.3532   63.4054 C   0  0  0  0  0  0  0  0  0  0  0  0
   45.6075   46.0998   64.5177 C   0  0  0  0  0  0  0  0  0  0  0  0
   48.8552   46.3498   64.5318 H   0  0  0  0  0  0  0  0  0  0  0  0
   40.0634   45.4220   64.0277 H   0  0  0  0  0  0  0  0  0  0  0  0
   41.1324   45.6417   62.8129 H   0  0  0  0  0  0  0  0  0  0  0  0
   41.2345   44.3157   63.7605 H   0  0  0  0  0  0  0  0  0  0  0  0
   46.1392   47.6434   66.6737 H   0  0  0  0  0  0  0  0  0  0  0  0
   47.5872   46.9364   66.9386 H   0  0  0  0  0  0  0  0  0  0  0  0
   47.4898   48.2731   66.0057 H   0  0  0  0  0  0  0  0  0  0  0  0
   44.2582   44.6537   62.5795 H   0  0  0  0  0  0  0  0  0  0  0  0
   45.4262   44.9583   61.4796 H   0  0  0  0  0  0  0  0  0  0  0  0
   45.5165   43.6254   62.4186 H   0  0  0  0  0  0  0  0  0  0  0  0
   41.7148   47.0116   64.6670 H   0  0  0  0  0  0  0  0  0  0  0  0
   41.8169   45.6856   65.6146 H   0  0  0  0  0  0  0  0  0  0  0  0
  1  9  2  0  0  0  0
  2  8  1  0  0  0  0
  2  9  1  0  0  0  0
  3  4  1  0  0  0  0
  3 10  1  0  0  0  0
  4 11  2  0  0  0  0
  5  8  1  0  0  0  0
  6 10  1  0  0  0  0
  7 11  1  0  0  0  0
  9 12  1  0  0  0  0
 10 12  2  0  0  0  0
 11 12  1  0  0  0  0
  3 13  1  0  0  0  0
  5 14  1  0  0  0  0
  5 15  1  0  0  0  0
  5 16  1  0  0  0  0
  6 17  1  0  0  0  0
  6 18  1  0  0  0  0
  6 19  1  0  0  0  0
  7 20  1  0  0  0  0
  7 21  1  0  0  0  0
  7 22  1  0  0  0  0
  8 23  1  0  0  0  0
  8 24  1  0  0  0  0
M  END
> <pdb_id>
1Y2B

> <uniprot_id>
Q08499

> <usmiles>
O=C(OCC)C=1C(=NNC1C)C

$$$$
DEG_A_501
          07202405373D 1   1.00000     0.00000     0
            
 36 36  0  0  0  0            999 V2000
   13.9279   13.7303  -13.5371 O   0  0  0  0  0  0  0  0  0  0  0  0
   10.4498   11.3070  -14.8043 O   0  0  0  0  0  0  0  0  0  0  0  0
   11.2083   13.8875  -11.4139 O   0  0  0  0  0  0  0  0  0  0  0  0
    9.2288   12.0398  -12.1594 O   0  0  0  0  0  0  0  0  0  0  0  0
    9.4201   14.6562  -15.3534 O   0  0  0  0  0  0  0  0  0  0  0  0
   11.5402   14.2362  -15.1218 O   0  0  0  0  0  0  0  0  0  0  0  0
    7.0679   18.0013  -15.4617 C   0  0  0  0  0  0  0  0  0  0  0  0
    9.5451   15.4382  -16.5425 C   0  0  0  0  0  0  0  0  0  0  0  0
   13.1202   14.8813  -13.4088 C   0  0  0  0  0  0  0  0  0  0  0  0
    8.4705   17.5580  -15.7995 C   0  0  0  0  0  0  0  0  0  0  0  0
    8.3858   16.3868  -16.7588 C   0  0  0  0  0  0  0  0  0  0  0  0
   10.3270   13.5456  -15.4030 C   0  0  1  0  0  0  0  0  0  0  0  0
   11.6637   14.5377  -13.7076 C   0  0  2  0  0  0  0  0  0  0  0  0
    9.6403   12.4732  -14.5747 C   0  0  2  0  0  0  0  0  0  0  0  0
   11.1209   13.4205  -12.7514 C   0  0  2  0  0  0  0  0  0  0  0  0
    9.6821   12.9845  -13.1156 C   0  0  2  0  0  0  0  0  0  0  0  0
   14.8792   13.9669  -13.3392 H   0  0  0  0  0  0  0  0  0  0  0  0
   10.0734   10.5341  -14.2934 H   0  0  0  0  0  0  0  0  0  0  0  0
   10.8648   13.1838  -10.7920 H   0  0  0  0  0  0  0  0  0  0  0  0
    9.2845   12.4388  -11.2442 H   0  0  0  0  0  0  0  0  0  0  0  0
    7.1061   18.7745  -14.8287 H   0  0  0  0  0  0  0  0  0  0  0  0
    6.5953   18.2784  -16.2982 H   0  0  0  0  0  0  0  0  0  0  0  0
    6.5730   17.2447  -15.0342 H   0  0  0  0  0  0  0  0  0  0  0  0
    9.5990   14.8187  -17.3257 H   0  0  0  0  0  0  0  0  0  0  0  0
   10.3872   15.9742  -16.4830 H   0  0  0  0  0  0  0  0  0  0  0  0
   13.4341   15.5788  -14.0531 H   0  0  0  0  0  0  0  0  0  0  0  0
   13.1920   15.2332  -12.4755 H   0  0  0  0  0  0  0  0  0  0  0  0
    8.9459   17.2776  -14.9657 H   0  0  0  0  0  0  0  0  0  0  0  0
    8.9681   18.3112  -16.2297 H   0  0  0  0  0  0  0  0  0  0  0  0
    7.5273   15.8974  -16.6054 H   0  0  0  0  0  0  0  0  0  0  0  0
    8.4113   16.7286  -17.6982 H   0  0  0  0  0  0  0  0  0  0  0  0
   10.3683   13.2243  -16.3491 H   0  0  0  0  0  0  0  0  0  0  0  0
   11.1248   15.3619  -13.5338 H   0  0  0  0  0  0  0  0  0  0  0  0
    8.6994   12.3268  -14.8803 H   0  0  0  0  0  0  0  0  0  0  0  0
   11.7170   12.6224  -12.8393 H   0  0  0  0  0  0  0  0  0  0  0  0
    9.0924   13.7899  -13.0553 H   0  0  0  0  0  0  0  0  0  0  0  0
  1  9  1  0  0  0  0
  2 14  1  0  0  0  0
  3 15  1  0  0  0  0
  4 16  1  0  0  0  0
  5  8  1  0  0  0  0
  5 12  1  0  0  0  0
  6 12  1  0  0  0  0
  6 13  1  0  0  0  0
  7 10  1  0  0  0  0
  8 11  1  0  0  0  0
  9 13  1  0  0  0  0
 10 11  1  0  0  0  0
 12 14  1  0  0  0  0
 13 15  1  0  0  0  0
 14 16  1  0  0  0  0
 15 16  1  0  0  0  0
  1 17  1  0  0  0  0
  2 18  1  0  0  0  0
  3 19  1  0  0  0  0
  4 20  1  0  0  0  0
  7 21  1  0  0  0  0
  7 22  1  0  0  0  0
  7 23  1  0  0  0  0
  8 24  1  0  0  0  0
  8 25  1  0  0  0  0
  9 26  1  0  0  0  0
  9 27  1  0  0  0  0
 10 28  1  0  0  0  0
 10 29  1  0  0  0  0
 11 30  1  0  0  0  0
 11 31  1  0  0  0  0
 12 32  1  0  0  0  0
 13 33  1  0  0  0  0
 14 34  1  0  0  0  0
 15 35  1  0  0  0  0
 16 36  1  0  0  0  0
M  END
> <pdb_id>
1TR7

> <uniprot_id>
P08191

> <usmiles>
O1[C@@H]([C@@H](O)[C@H](O)[C@H](O)[C@H]1OCCCC)CO

$$$$
DEO_A_1
          07192418003D 1   1.00000     0.00000     0
            
 60 63  0  0  0  0            999 V2000
   16.1498   30.1303    1.9359 O   0  0  0  0  0  0  0  0  0  0  0  0
   18.0294   29.3866    2.9100 O   0  0  0  0  0  0  0  0  0  0  0  0
   13.5149   31.5137    4.0913 O   0  0  0  0  0  0  0  0  0  0  0  0
   17.4501   30.5307    6.2460 O   0  0  0  0  0  0  0  0  0  0  0  0
   17.1766   25.2526    2.2205 O   0  0  0  0  0  0  0  0  0  0  0  0
   21.4651   28.6805   -7.1919 O   0  0  0  0  0  0  0  0  0  0  0  0
   15.3706   30.6702    5.1996 N   0  0  0  0  0  0  0  0  0  0  0  0
   23.0055   28.4901   -9.0292 C   0  0  0  0  0  0  0  0  0  0  0  0
   22.5659   27.9192   -7.6828 C   0  0  0  0  0  0  0  0  0  0  0  0
   14.9351   29.2703    5.3428 C   0  0  0  0  0  0  0  0  0  0  0  0
   16.0783   35.1913    4.4745 C   0  0  0  0  0  0  0  0  0  0  0  0
   17.2923   34.8830    5.1498 C   0  0  0  0  0  0  0  0  0  0  0  0
   14.7539   28.4648    4.0350 C   0  0  0  0  0  0  0  0  0  0  0  0
   21.3248   27.2404   -5.1310 C   0  0  0  0  0  0  0  0  0  0  0  0
   19.8019   29.0908   -5.5084 C   0  0  0  0  0  0  0  0  0  0  0  0
   15.1128   34.1784    4.2268 C   0  0  0  0  0  0  0  0  0  0  0  0
   17.5596   33.5567    5.5973 C   0  0  0  0  0  0  0  0  0  0  0  0
   20.6742   26.9566   -3.9226 C   0  0  0  0  0  0  0  0  0  0  0  0
   19.1504   28.7927   -4.2801 C   0  0  0  0  0  0  0  0  0  0  0  0
   16.9024   27.4970   -0.6680 C   0  0  0  0  0  0  0  0  0  0  0  0
   18.8085   26.1485    0.0131 C   0  0  0  0  0  0  0  0  0  0  0  0
   17.5753   27.8375   -1.8575 C   0  0  0  0  0  0  0  0  0  0  0  0
   19.4706   26.5014   -1.1873 C   0  0  0  0  0  0  0  0  0  0  0  0
   15.6553   27.0812    2.0956 C   0  0  0  0  0  0  0  0  0  0  0  0
   16.7225   29.3068    2.6104 C   0  0  0  0  0  0  0  0  0  0  0  0
   14.6180   31.6481    4.5879 C   0  0  0  0  0  0  0  0  0  0  0  0
   16.5739   31.1637    5.6687 C   0  0  0  0  0  0  0  0  0  0  0  0
   16.8377   26.2349    1.5676 C   0  0  0  0  0  0  0  0  0  0  0  0
   20.8991   28.3160   -5.9592 C   0  0  0  0  0  0  0  0  0  0  0  0
   16.0203   28.0723    3.2328 C   0  0  1  0  0  0  0  0  0  0  0  0
   17.5042   26.6401    0.2945 C   0  0  0  0  0  0  0  0  0  0  0  0
   19.5714   27.7113   -3.4551 C   0  0  0  0  0  0  0  0  0  0  0  0
   18.8738   27.3554   -2.1581 C   0  0  0  0  0  0  0  0  0  0  0  0
   15.3985   32.8705    4.6896 C   0  0  0  0  0  0  0  0  0  0  0  0
   16.5878   32.5700    5.3324 C   0  0  0  0  0  0  0  0  0  0  0  0
   15.1746   30.0260    1.7406 H   0  0  0  0  0  0  0  0  0  0  0  0
   23.7779   27.9605   -9.3796 H   0  0  0  0  0  0  0  0  0  0  0  0
   22.2453   28.4395   -9.6769 H   0  0  0  0  0  0  0  0  0  0  0  0
   23.2811   29.4443   -8.9126 H   0  0  0  0  0  0  0  0  0  0  0  0
   22.2889   26.9652   -7.7977 H   0  0  0  0  0  0  0  0  0  0  0  0
   23.3247   27.9700   -7.0334 H   0  0  0  0  0  0  0  0  0  0  0  0
   14.0573   29.2730    5.8216 H   0  0  0  0  0  0  0  0  0  0  0  0
   15.6170   28.7958    5.8994 H   0  0  0  0  0  0  0  0  0  0  0  0
   15.9033   36.1282    4.1718 H   0  0  0  0  0  0  0  0  0  0  0  0
   17.9651   35.6048    5.3121 H   0  0  0  0  0  0  0  0  0  0  0  0
   14.1766   29.0112    3.4283 H   0  0  0  0  0  0  0  0  0  0  0  0
   14.2794   27.6172    4.2726 H   0  0  0  0  0  0  0  0  0  0  0  0
   22.1009   26.6778   -5.4157 H   0  0  0  0  0  0  0  0  0  0  0  0
   19.4809   29.8589   -6.0624 H   0  0  0  0  0  0  0  0  0  0  0  0
   14.2616   34.3819    3.7429 H   0  0  0  0  0  0  0  0  0  0  0  0
   18.4056   33.3338    6.0815 H   0  0  0  0  0  0  0  0  0  0  0  0
   21.0017   26.1910   -3.3689 H   0  0  0  0  0  0  0  0  0  0  0  0
   18.3777   29.3565   -3.9885 H   0  0  0  0  0  0  0  0  0  0  0  0
   15.9876   27.8632   -0.4976 H   0  0  0  0  0  0  0  0  0  0  0  0
   19.2629   25.5470    0.6702 H   0  0  0  0  0  0  0  0  0  0  0  0
   17.1210   28.4407   -2.5130 H   0  0  0  0  0  0  0  0  0  0  0  0
   20.3868   26.1394   -1.3591 H   0  0  0  0  0  0  0  0  0  0  0  0
   14.9551   26.4562    2.4406 H   0  0  0  0  0  0  0  0  0  0  0  0
   15.2843   27.6082    1.3310 H   0  0  0  0  0  0  0  0  0  0  0  0
   16.6620   27.6213    3.8531 H   0  0  0  0  0  0  0  0  0  0  0  0
  1 25  1  0  0  0  0
  2 25  2  0  0  0  0
  3 26  2  0  0  0  0
  4 27  2  0  0  0  0
  5 28  2  0  0  0  0
  6  9  1  0  0  0  0
  6 29  1  0  0  0  0
  7 10  1  0  0  0  0
  7 26  1  0  0  0  0
  7 27  1  0  0  0  0
  8  9  1  0  0  0  0
 10 13  1  0  0  0  0
 11 12  2  0  0  0  0
 11 16  1  0  0  0  0
 12 17  1  0  0  0  0
 13 30  1  0  0  0  0
 14 18  1  0  0  0  0
 14 29  2  0  0  0  0
 15 19  2  0  0  0  0
 15 29  1  0  0  0  0
 16 34  2  0  0  0  0
 17 35  2  0  0  0  0
 18 32  2  0  0  0  0
 19 32  1  0  0  0  0
 20 22  1  0  0  0  0
 20 31  2  0  0  0  0
 21 23  2  0  0  0  0
 21 31  1  0  0  0  0
 22 33  2  0  0  0  0
 23 33  1  0  0  0  0
 24 28  1  0  0  0  0
 24 30  1  0  0  0  0
 25 30  1  0  0  0  0
 26 34  1  0  0  0  0
 27 35  1  0  0  0  0
 28 31  1  0  0  0  0
 32 33  1  0  0  0  0
 34 35  1  0  0  0  0
  1 36  1  0  0  0  0
  8 37  1  0  0  0  0
  8 38  1  0  0  0  0
  8 39  1  0  0  0  0
  9 40  1  0  0  0  0
  9 41  1  0  0  0  0
 10 42  1  0  0  0  0
 10 43  1  0  0  0  0
 11 44  1  0  0  0  0
 12 45  1  0  0  0  0
 13 46  1  0  0  0  0
 13 47  1  0  0  0  0
 14 48  1  0  0  0  0
 15 49  1  0  0  0  0
 16 50  1  0  0  0  0
 17 51  1  0  0  0  0
 18 52  1  0  0  0  0
 19 53  1  0  0  0  0
 20 54  1  0  0  0  0
 21 55  1  0  0  0  0
 22 56  1  0  0  0  0
 23 57  1  0  0  0  0
 24 58  1  0  0  0  0
 24 59  1  0  0  0  0
 30 60  1  0  0  0  0
M  END
> <pdb_id>
1ROS

> <uniprot_id>
P39900

> <usmiles>
O=C1N(C(=O)c2c1cccc2)CC[C@H](C(=O)O)CC(=O)c3ccc(c4ccc(OCC)cc4)cc3

$$$$
DF9_B_233
          07202415043D 1   1.00000     0.00000     0
            
 49 52  0  0  0  0            999 V2000
  -24.2296   12.0534    3.7929 S   0  0  0  0  0  0  0  0  0  0  0  0
  -25.7084    7.9636    4.5884 O   0  0  0  0  0  0  0  0  0  0  0  0
  -19.7052   11.8681   -1.7330 N   0  0  0  0  0  0  0  0  0  0  0  0
  -19.3822   10.6549    0.2962 N   0  0  0  0  0  0  0  0  0  0  0  0
  -21.0394    9.2103    1.1412 N   0  0  0  0  0  0  0  0  0  0  0  0
  -22.4047   10.5503   -1.8022 N   0  0  0  0  0  0  0  0  0  0  0  0
  -24.5074    8.6987    1.7428 N   0  0  0  0  0  0  0  0  0  0  0  0
  -24.4517   13.2353    5.0709 C   0  0  0  0  0  0  0  0  0  0  0  0
  -25.8254   11.3368    3.5276 C   0  0  0  0  0  0  0  0  0  0  0  0
  -19.8243    9.7765    1.2193 C   0  0  0  0  0  0  0  0  0  0  0  0
  -23.4458    9.7603   -1.4298 C   0  0  0  0  0  0  0  0  0  0  0  0
  -28.0573   15.6113    4.8458 C   0  0  0  0  0  0  0  0  0  0  0  0
  -27.3189   15.3624    3.6903 C   0  0  0  0  0  0  0  0  0  0  0  0
  -27.6340   15.0842    6.0642 C   0  0  0  0  0  0  0  0  0  0  0  0
  -23.9091    8.3858    3.0411 C   0  0  0  0  0  0  0  0  0  0  0  0
  -25.5912    9.6585    1.7200 C   0  0  0  0  0  0  0  0  0  0  0  0
  -24.0155    8.1105    0.5050 C   0  0  0  0  0  0  0  0  0  0  0  0
  -26.1540   14.5937    3.7440 C   0  0  0  0  0  0  0  0  0  0  0  0
  -26.4651   14.3223    6.1127 C   0  0  0  0  0  0  0  0  0  0  0  0
  -20.1498   10.9929   -0.7801 C   0  0  0  0  0  0  0  0  0  0  0  0
  -24.9123    8.9979    4.0136 C   0  0  1  0  0  0  0  0  0  0  0  0
  -21.4125   10.4290   -0.8963 C   0  0  0  0  0  0  0  0  0  0  0  0
  -21.8310    9.5331    0.0746 C   0  0  0  0  0  0  0  0  0  0  0  0
  -25.7226   14.0665    4.9616 C   0  0  0  0  0  0  0  0  0  0  0  0
  -25.8609    9.8545    3.1998 C   0  0  1  0  0  0  0  0  0  0  0  0
  -23.1171    9.0905   -0.2373 C   0  0  0  0  0  0  0  0  0  0  0  0
  -26.3662    8.3646    5.2260 H   0  0  0  0  0  0  0  0  0  0  0  0
  -20.2887   12.0982   -2.5118 H   0  0  0  0  0  0  0  0  0  0  0  0
  -18.7966   12.2777   -1.6507 H   0  0  0  0  0  0  0  0  0  0  0  0
  -22.3783   11.1290   -2.6174 H   0  0  0  0  0  0  0  0  0  0  0  0
  -23.6703   13.8592    5.0563 H   0  0  0  0  0  0  0  0  0  0  0  0
  -24.4731   12.7483    5.9441 H   0  0  0  0  0  0  0  0  0  0  0  0
  -26.2546   11.8256    2.7680 H   0  0  0  0  0  0  0  0  0  0  0  0
  -26.3624   11.4763    4.3596 H   0  0  0  0  0  0  0  0  0  0  0  0
  -19.2281    9.5392    1.9863 H   0  0  0  0  0  0  0  0  0  0  0  0
  -24.3095    9.6694   -1.9254 H   0  0  0  0  0  0  0  0  0  0  0  0
  -28.8880   16.1662    4.8006 H   0  0  0  0  0  0  0  0  0  0  0  0
  -27.6257   15.7373    2.8155 H   0  0  0  0  0  0  0  0  0  0  0  0
  -28.1628   15.2502    6.8966 H   0  0  0  0  0  0  0  0  0  0  0  0
  -23.0077    8.8082    3.1362 H   0  0  0  0  0  0  0  0  0  0  0  0
  -23.8302    7.3980    3.1754 H   0  0  0  0  0  0  0  0  0  0  0  0
  -26.3933    9.2914    1.2489 H   0  0  0  0  0  0  0  0  0  0  0  0
  -25.3113   10.5139    1.2842 H   0  0  0  0  0  0  0  0  0  0  0  0
  -24.7931    7.8727   -0.0771 H   0  0  0  0  0  0  0  0  0  0  0  0
  -23.4940    7.2844    0.7187 H   0  0  0  0  0  0  0  0  0  0  0  0
  -25.6295   14.4213    2.9103 H   0  0  0  0  0  0  0  0  0  0  0  0
  -26.1551   13.9537    6.9891 H   0  0  0  0  0  0  0  0  0  0  0  0
  -24.4517    9.5362    4.7194 H   0  0  0  0  0  0  0  0  0  0  0  0
  -26.7891    9.5295    3.3812 H   0  0  0  0  0  0  0  0  0  0  0  0
  1  8  1  0  0  0  0
  1  9  1  0  0  0  0
  2 21  1  0  0  0  0
  3 20  1  0  0  0  0
  4 10  1  0  0  0  0
  4 20  2  0  0  0  0
  5 10  2  0  0  0  0
  5 23  1  0  0  0  0
  6 11  1  0  0  0  0
  6 22  1  0  0  0  0
  7 15  1  0  0  0  0
  7 16  1  0  0  0  0
  7 17  1  0  0  0  0
  8 24  1  0  0  0  0
  9 25  1  0  0  0  0
 11 26  2  0  0  0  0
 12 13  2  0  0  0  0
 12 14  1  0  0  0  0
 13 18  1  0  0  0  0
 14 19  2  0  0  0  0
 15 21  1  0  0  0  0
 16 25  1  0  0  0  0
 17 26  1  0  0  0  0
 18 24  2  0  0  0  0
 19 24  1  0  0  0  0
 20 22  1  0  0  0  0
 21 25  1  0  0  0  0
 22 23  2  0  0  0  0
 23 26  1  0  0  0  0
  2 27  1  0  0  0  0
  3 28  1  0  0  0  0
  3 29  1  0  0  0  0
  6 30  1  0  0  0  0
  8 31  1  0  0  0  0
  8 32  1  0  0  0  0
  9 33  1  0  0  0  0
  9 34  1  0  0  0  0
 10 35  1  0  0  0  0
 11 36  1  0  0  0  0
 12 37  1  0  0  0  0
 13 38  1  0  0  0  0
 14 39  1  0  0  0  0
 15 40  1  0  0  0  0
 15 41  1  0  0  0  0
 16 42  1  0  0  0  0
 16 43  1  0  0  0  0
 17 44  1  0  0  0  0
 17 45  1  0  0  0  0
 18 46  1  0  0  0  0
 19 47  1  0  0  0  0
 21 48  1  0  0  0  0
 25 49  1  0  0  0  0
M  END
> <pdb_id>
3DF9

> <uniprot_id>
P0AF14

> <usmiles>
S(Cc1ccccc1)C[C@@H]2[C@@H](O)CN(CC=3c4ncnc(N)c4NC3)C2

$$$$
DFU_C_1472
          07192418093D 1   1.00000     0.00000     0
            
 23 23  0  0  0  0            999 V2000
  -27.1905    0.9588   29.3974 O   0  0  0  0  0  0  0  0  0  0  0  0
  -24.4280    1.0207   29.5501 O   0  0  0  0  0  0  0  0  0  0  0  0
  -24.2987    3.8860   29.1985 O   0  0  0  0  0  0  0  0  0  0  0  0
  -26.5249    3.9924   27.3324 N   0  0  0  0  0  0  0  0  0  0  0  0
  -24.3722    4.8936   26.5294 C   0  0  0  0  0  0  0  0  0  0  0  0
  -27.2447    2.7645   27.7441 C   0  0  0  0  0  0  0  0  0  0  0  0
  -26.5084    2.1177   28.9319 C   0  0  2  0  0  0  0  0  0  0  0  0
  -25.1452    3.6525   26.9583 C   0  0  1  0  0  0  0  0  0  0  0  0
  -25.1270    1.7190   28.5016 C   0  0  1  0  0  0  0  0  0  0  0  0
  -24.3923    2.9812   28.1003 C   0  0  2  0  0  0  0  0  0  0  0  0
  -26.6887    0.5632   30.1666 H   0  0  0  0  0  0  0  0  0  0  0  0
  -23.5138    0.7700   29.2317 H   0  0  0  0  0  0  0  0  0  0  0  0
  -23.8049    3.4483   29.9499 H   0  0  0  0  0  0  0  0  0  0  0  0
  -26.5133    4.6421   28.0926 H   0  0  0  0  0  0  0  0  0  0  0  0
  -23.4387    4.6354   26.2806 H   0  0  0  0  0  0  0  0  0  0  0  0
  -24.8237    5.3116   25.7411 H   0  0  0  0  0  0  0  0  0  0  0  0
  -24.3468    5.5482   27.2849 H   0  0  0  0  0  0  0  0  0  0  0  0
  -27.2736    2.1216   26.9787 H   0  0  0  0  0  0  0  0  0  0  0  0
  -28.1775    2.9997   28.0172 H   0  0  0  0  0  0  0  0  0  0  0  0
  -26.4416    2.7810   29.6773 H   0  0  0  0  0  0  0  0  0  0  0  0
  -25.1758    3.0182   26.1858 H   0  0  0  0  0  0  0  0  0  0  0  0
  -25.1974    1.1189   27.7049 H   0  0  0  0  0  0  0  0  0  0  0  0
  -23.4716    2.7420   27.7917 H   0  0  0  0  0  0  0  0  0  0  0  0
  1  7  1  0  0  0  0
  2  9  1  0  0  0  0
  3 10  1  0  0  0  0
  4  6  1  0  0  0  0
  4  8  1  0  0  0  0
  5  8  1  0  0  0  0
  6  7  1  0  0  0  0
  7  9  1  0  0  0  0
  8 10  1  0  0  0  0
  9 10  1  0  0  0  0
  1 11  1  0  0  0  0
  2 12  1  0  0  0  0
  3 13  1  0  0  0  0
  4 14  1  0  0  0  0
  5 15  1  0  0  0  0
  5 16  1  0  0  0  0
  5 17  1  0  0  0  0
  6 18  1  0  0  0  0
  6 19  1  0  0  0  0
  7 20  1  0  0  0  0
  8 21  1  0  0  0  0
  9 22  1  0  0  0  0
 10 23  1  0  0  0  0
M  END
> <pdb_id>
2XIB

> <uniprot_id>
Q8A3I4

> <usmiles>
O[C@H]1[C@@H](O)[C@H](O)CN[C@H]1C

$$$$
DGL_A_287
          07202407113D 1   1.00000     0.00000     0
            
 19 18  0  0  0  0            999 V2000
    9.7650   39.7264   14.1043 O   0  0  0  0  0  0  0  0  0  0  0  0
    7.9681   38.5109   14.4515 O   0  0  0  0  0  0  0  0  0  0  0  0
    7.1525   36.3050   10.8326 O   0  0  0  0  0  0  0  0  0  0  0  0
    7.9587   36.1918    8.7982 O   0  0  0  0  0  0  0  0  0  0  0  0
    9.3849   38.4332    8.9826 N   0  0  0  0  0  0  0  0  0  0  0  0
    8.3112   39.3515   12.2580 C   0  0  0  0  0  0  0  0  0  0  0  0
    9.0117   38.2893   11.4216 C   0  0  0  0  0  0  0  0  0  0  0  0
    8.7118   39.1841   13.7080 C   0  0  0  0  0  0  0  0  0  0  0  0
    7.7914   36.7954    9.8814 C   0  0  0  0  0  0  0  0  0  0  0  0
    8.3730   38.1670   10.0375 C   0  0  2  0  0  0  0  0  0  0  0  0
   10.3254   40.2555   13.4672 H   0  0  0  0  0  0  0  0  0  0  0  0
    7.0431   36.8228   11.6811 H   0  0  0  0  0  0  0  0  0  0  0  0
    8.9575   38.3508    8.0823 H   0  0  0  0  0  0  0  0  0  0  0  0
    9.7488   39.3577    9.0954 H   0  0  0  0  0  0  0  0  0  0  0  0
    7.3205   39.2473   12.1701 H   0  0  0  0  0  0  0  0  0  0  0  0
    8.5804   40.2602   11.9390 H   0  0  0  0  0  0  0  0  0  0  0  0
    8.9456   37.4085   11.8906 H   0  0  0  0  0  0  0  0  0  0  0  0
    9.9742   38.5393   11.3160 H   0  0  0  0  0  0  0  0  0  0  0  0
    7.6385   38.8411    9.9591 H   0  0  0  0  0  0  0  0  0  0  0  0
  1  8  1  0  0  0  0
  2  8  2  0  0  0  0
  3  9  1  0  0  0  0
  4  9  2  0  0  0  0
  5 10  1  0  0  0  0
  6  7  1  0  0  0  0
  6  8  1  0  0  0  0
  7 10  1  0  0  0  0
  9 10  1  0  0  0  0
  1 11  1  0  0  0  0
  3 12  1  0  0  0  0
  5 13  1  0  0  0  0
  5 14  1  0  0  0  0
  6 15  1  0  0  0  0
  6 16  1  0  0  0  0
  7 17  1  0  0  0  0
  7 18  1  0  0  0  0
 10 19  1  0  0  0  0
M  END
> <pdb_id>
3OEL

> <uniprot_id>
Q62645

> <usmiles>
O=C(O)[C@H](N)CCC(=O)O

$$$$
DHB_A_401
          07202417153D 1   1.00000     0.00000     0
            
 17 17  0  0  0  0            999 V2000
    7.2640   50.6180    5.3100 O   0  0  0  0  0  0  0  0  0  0  0  0
    5.6050   49.3730    6.1170 O   0  0  0  0  0  0  0  0  0  0  0  0
    9.5020   45.1030    3.4600 O   0  0  0  0  0  0  0  0  0  0  0  0
   10.4500   47.5660    3.1370 O   0  0  0  0  0  0  0  0  0  0  0  0
    7.5680   45.9300    4.6560 C   0  0  0  0  0  0  0  0  0  0  0  0
    6.8840   47.0280    5.1550 C   0  0  0  0  0  0  0  0  0  0  0  0
    8.6020   48.4780    4.3170 C   0  0  0  0  0  0  0  0  0  0  0  0
    6.7090   49.4960    5.4950 C   0  0  0  0  0  0  0  0  0  0  0  0
    8.7710   46.1320    3.9970 C   0  0  0  0  0  0  0  0  0  0  0  0
    9.2690   47.3850    3.8270 C   0  0  0  0  0  0  0  0  0  0  0  0
    7.4130   48.2910    4.9790 C   0  0  0  0  0  0  0  0  0  0  0  0
    9.9390   44.6830    4.1050 H   0  0  0  0  0  0  0  0  0  0  0  0
   11.0820   47.8310    3.6980 H   0  0  0  0  0  0  0  0  0  0  0  0
    7.2170   45.0340    4.7780 H   0  0  0  0  0  0  0  0  0  0  0  0
    6.0490   46.9090    5.6330 H   0  0  0  0  0  0  0  0  0  0  0  0
    8.9580   49.3710    4.1880 H   0  0  0  0  0  0  0  0  0  0  0  0
    8.1318   50.6712    4.8159 H   0  0  0  0  0  0  0  0  0  0  0  0
  1  8  1  0  0  0  0
  2  8  2  0  0  0  0
  3  9  1  0  0  0  0
  3 12  1  0  0  0  0
  4 10  1  0  0  0  0
  4 13  1  0  0  0  0
  5  6  1  0  0  0  0
  5  9  2  0  0  0  0
  5 14  1  0  0  0  0
  6 11  2  0  0  0  0
  6 15  1  0  0  0  0
  7 10  2  0  0  0  0
  7 11  1  0  0  0  0
  7 16  1  0  0  0  0
  8 11  1  0  0  0  0
  9 10  1  0  0  0  0
  1 17  1  0  0  0  0
M  END
> <pdb_id>
4PAF

> <uniprot_id>
Q5LSJ5

> <usmiles>
O=C(O)c1cc(O)c(O)cc1

$$$$
DHB_B_1542
          07192418323D 1   1.00000     0.00000     0
            
 17 17  0  0  0  0            999 V2000
   13.9950  -13.6890   42.9500 O   0  0  0  0  0  0  0  0  0  0  0  0
   14.1970  -15.1670   41.3600 O   0  0  0  0  0  0  0  0  0  0  0  0
    8.4270  -12.8270   40.0750 O   0  0  0  0  0  0  0  0  0  0  0  0
    8.7140  -13.9070   42.6010 O   0  0  0  0  0  0  0  0  0  0  0  0
   10.7930  -12.9990   39.7170 C   0  0  0  0  0  0  0  0  0  0  0  0
   12.0530  -13.3620   40.1760 C   0  0  0  0  0  0  0  0  0  0  0  0
   11.0860  -14.0810   42.2540 C   0  0  0  0  0  0  0  0  0  0  0  0
   13.5210  -14.2720   41.9400 C   0  0  0  0  0  0  0  0  0  0  0  0
    9.6810  -13.1840   40.5280 C   0  0  0  0  0  0  0  0  0  0  0  0
    9.8260  -13.7250   41.7910 C   0  0  0  0  0  0  0  0  0  0  0  0
   12.1990  -13.9010   41.4500 C   0  0  0  0  0  0  0  0  0  0  0  0
   13.4637  -12.9795   43.4130 H   0  0  0  0  0  0  0  0  0  0  0  0
    7.6272  -12.9608   40.6601 H   0  0  0  0  0  0  0  0  0  0  0  0
    7.8062  -13.6511   42.2688 H   0  0  0  0  0  0  0  0  0  0  0  0
   10.6870  -12.6051   38.8040 H   0  0  0  0  0  0  0  0  0  0  0  0
   12.8542  -13.2359   39.5911 H   0  0  0  0  0  0  0  0  0  0  0  0
   11.1898  -14.4682   43.1701 H   0  0  0  0  0  0  0  0  0  0  0  0
  1  8  1  0  0  0  0
  2  8  2  0  0  0  0
  3  9  1  0  0  0  0
  4 10  1  0  0  0  0
  5  6  1  0  0  0  0
  5  9  2  0  0  0  0
  6 11  2  0  0  0  0
  7 10  2  0  0  0  0
  7 11  1  0  0  0  0
  8 11  1  0  0  0  0
  9 10  1  0  0  0  0
  1 12  1  0  0  0  0
  3 13  1  0  0  0  0
  4 14  1  0  0  0  0
  5 15  1  0  0  0  0
  6 16  1  0  0  0  0
  7 17  1  0  0  0  0
M  END
> <pdb_id>
2BUV

> <uniprot_id>
P20371

> <usmiles>
O=C(O)c1cc(O)c(O)cc1

$$$$
DHB_B_999
          07192417113D 1   1.00000     0.00000     0
            
 17 17  0  0  0  0            999 V2000
   12.8170  -16.6860   39.3520 O   0  0  0  0  0  0  0  0  0  0  0  0
   14.2830  -15.3320   40.1880 O   0  0  0  0  0  0  0  0  0  0  0  0
    8.9510  -12.2670   41.7220 O   0  0  0  0  0  0  0  0  0  0  0  0
    8.3450  -14.5780   40.3690 O   0  0  0  0  0  0  0  0  0  0  0  0
   11.2890  -12.7560   41.5360 C   0  0  0  0  0  0  0  0  0  0  0  0
   12.3110  -13.5810   41.1030 C   0  0  0  0  0  0  0  0  0  0  0  0
   10.6920  -15.0830   40.1750 C   0  0  0  0  0  0  0  0  0  0  0  0
   13.0890  -15.6260   39.9670 C   0  0  0  0  0  0  0  0  0  0  0  0
    9.9730  -13.0940   41.2860 C   0  0  0  0  0  0  0  0  0  0  0  0
    9.6730  -14.2560   40.6080 C   0  0  0  0  0  0  0  0  0  0  0  0
   12.0130  -14.7460   40.4240 C   0  0  0  0  0  0  0  0  0  0  0  0
   11.8639  -16.9286   39.1711 H   0  0  0  0  0  0  0  0  0  0  0  0
    7.9984  -12.5115   41.5411 H   0  0  0  0  0  0  0  0  0  0  0  0
    7.6179  -13.9702   40.6881 H   0  0  0  0  0  0  0  0  0  0  0  0
   11.5029  -11.9137   42.0307 H   0  0  0  0  0  0  0  0  0  0  0  0
   13.2636  -13.3345   41.2812 H   0  0  0  0  0  0  0  0  0  0  0  0
   10.4759  -15.9255   39.6815 H   0  0  0  0  0  0  0  0  0  0  0  0
  1  8  1  0  0  0  0
  2  8  2  0  0  0  0
  3  9  1  0  0  0  0
  4 10  1  0  0  0  0
  5  6  1  0  0  0  0
  5  9  2  0  0  0  0
  6 11  2  0  0  0  0
  7 10  2  0  0  0  0
  7 11  1  0  0  0  0
  8 11  1  0  0  0  0
  9 10  1  0  0  0  0
  1 12  1  0  0  0  0
  3 13  1  0  0  0  0
  4 14  1  0  0  0  0
  5 15  1  0  0  0  0
  6 16  1  0  0  0  0
  7 17  1  0  0  0  0
M  END
> <pdb_id>
1EOB

> <uniprot_id>
P20371

> <usmiles>
O=C(O)c1cc(O)c(O)cc1

$$$$
DHJ_B_1101
          07192419003D 1   1.00000     0.00000     0
            
 24 23  0  0  0  0            999 V2000
   58.8620   31.0580   48.1020 P   0  0  0  0  0  0  0  0  0  0  0  0
   59.7210   30.5200   49.2200 O   0  0  0  0  0  0  0  0  0  0  0  0
   59.2300   30.8350   46.6950 O   0  0  0  0  0  0  0  0  0  0  0  0
   54.4340   29.5330   47.8160 O   0  0  0  0  0  0  0  0  0  0  0  0
   54.5280   29.4830   49.9590 O   0  0  0  0  0  0  0  0  0  0  0  0
   61.8110   33.3710   45.3720 O   0  0  0  0  0  0  0  0  0  0  0  0
   60.1060   32.9020   44.0820 O   0  0  0  0  0  0  0  0  0  0  0  0
   60.9950   33.6070   48.0850 O   0  0  0  0  0  0  0  0  0  0  0  0
   57.2380   30.4650   48.0510 C   0  0  0  0  0  0  0  0  0  0  0  0
   58.7350   32.8540   48.3400 C   0  0  0  0  0  0  0  0  0  0  0  0
   56.4730   30.2600   49.1020 C   0  0  0  0  0  0  0  0  0  0  0  0
   59.5660   33.9290   46.1460 C   0  0  0  0  0  0  0  0  0  0  0  0
   55.0610   29.7370   48.9060 C   0  0  0  0  0  0  0  0  0  0  0  0
   60.5810   33.3540   45.1470 C   0  0  0  0  0  0  0  0  0  0  0  0
   59.8670   33.4640   47.5680 C   0  0  0  0  0  0  0  0  0  0  0  0
   59.3163   30.7679   50.1002 H   0  0  0  0  0  0  0  0  0  0  0  0
   54.8711   29.7418   46.9411 H   0  0  0  0  0  0  0  0  0  0  0  0
   62.1564   33.7400   46.2349 H   0  0  0  0  0  0  0  0  0  0  0  0
   56.8498   30.2619   47.1521 H   0  0  0  0  0  0  0  0  0  0  0  0
   58.8162   33.0810   49.3105 H   0  0  0  0  0  0  0  0  0  0  0  0
   57.8591   33.1880   47.9917 H   0  0  0  0  0  0  0  0  0  0  0  0
   56.8185   30.4470   50.0216 H   0  0  0  0  0  0  0  0  0  0  0  0
   58.6484   33.6243   45.8906 H   0  0  0  0  0  0  0  0  0  0  0  0
   59.6066   34.9277   46.1139 H   0  0  0  0  0  0  0  0  0  0  0  0
  1  2  1  0  0  0  0
  1  3  2  0  0  0  0
  1  9  1  0  0  0  0
  1 10  1  0  0  0  0
  4 13  1  0  0  0  0
  5 13  2  0  0  0  0
  6 14  1  0  0  0  0
  7 14  2  0  0  0  0
  8 15  2  0  0  0  0
  9 11  2  0  0  0  0
 10 15  1  0  0  0  0
 11 13  1  0  0  0  0
 12 14  1  0  0  0  0
 12 15  1  0  0  0  0
  2 16  1  0  0  0  0
  4 17  1  0  0  0  0
  6 18  1  0  0  0  0
  9 19  1  0  0  0  0
 10 20  1  0  0  0  0
 10 21  1  0  0  0  0
 11 22  1  0  0  0  0
 12 23  1  0  0  0  0
 12 24  1  0  0  0  0
M  END
> <pdb_id>
2HZY

> <uniprot_id>
P35505

> <usmiles>
P(=O)(O)(/C=C/C(=O)O)CC(=O)CC(=O)O

$$$$
DHY_C_403
          07192416203D 1   1.00000     0.00000     0
            
 20 20  0  0  0  0            999 V2000
    4.4920   40.7760   34.8470 O   0  0  0  0  0  0  0  0  0  0  0  0
    3.0670   40.9960   36.3010 O   0  0  0  0  0  0  0  0  0  0  0  0
    3.2620   34.3180   36.4120 O   0  0  0  0  0  0  0  0  0  0  0  0
    1.3920   36.2780   36.4660 O   0  0  0  0  0  0  0  0  0  0  0  0
    5.4630   37.2410   36.8270 C   0  0  0  0  0  0  0  0  0  0  0  0
    5.0560   35.9050   36.7170 C   0  0  0  0  0  0  0  0  0  0  0  0
    4.8470   39.7070   36.9610 C   0  0  0  0  0  0  0  0  0  0  0  0
    3.0980   37.9090   36.8080 C   0  0  0  0  0  0  0  0  0  0  0  0
    4.0540   40.5470   35.9620 C   0  0  0  0  0  0  0  0  0  0  0  0
    4.4860   38.2340   36.9050 C   0  0  0  0  0  0  0  0  0  0  0  0
    3.6800   35.5730   36.5980 C   0  0  0  0  0  0  0  0  0  0  0  0
    2.6890   36.5840   36.6220 C   0  0  0  0  0  0  0  0  0  0  0  0
    5.3619   40.3753   34.5595 H   0  0  0  0  0  0  0  0  0  0  0  0
    2.2844   34.1232   36.3328 H   0  0  0  0  0  0  0  0  0  0  0  0
    1.1152   35.3262   36.3340 H   0  0  0  0  0  0  0  0  0  0  0  0
    6.4342   37.4782   36.8492 H   0  0  0  0  0  0  0  0  0  0  0  0
    5.7417   35.1771   36.7223 H   0  0  0  0  0  0  0  0  0  0  0  0
    4.6616   40.0469   37.8830 H   0  0  0  0  0  0  0  0  0  0  0  0
    5.8215   39.8054   36.7592 H   0  0  0  0  0  0  0  0  0  0  0  0
    2.4131   38.6347   36.8736 H   0  0  0  0  0  0  0  0  0  0  0  0
  1  9  1  0  0  0  0
  2  9  2  0  0  0  0
  3 11  1  0  0  0  0
  4 12  1  0  0  0  0
  5  6  1  0  0  0  0
  5 10  2  0  0  0  0
  6 11  2  0  0  0  0
  7  9  1  0  0  0  0
  7 10  1  0  0  0  0
  8 10  1  0  0  0  0
  8 12  2  0  0  0  0
 11 12  1  0  0  0  0
  1 13  1  0  0  0  0
  3 14  1  0  0  0  0
  4 15  1  0  0  0  0
  5 16  1  0  0  0  0
  6 17  1  0  0  0  0
  7 18  1  0  0  0  0
  7 19  1  0  0  0  0
  8 20  1  0  0  0  0
M  END
> <pdb_id>
4Z6O

> <uniprot_id>
Q45135

> <usmiles>
O=C(O)Cc1cc(O)c(O)cc1

$$$$
DIH_A_301
          07202400583D 1   1.00000     0.00000     0
            
 35 37  0  0  0  0            999 V2000
   17.4940   12.1340   59.8980 O   0  0  0  0  0  0  0  0  0  0  0  0
   15.3310    8.9110   53.5410 O   0  0  0  0  0  0  0  0  0  0  0  0
   14.1980   12.6870   62.3130 O   0  0  0  0  0  0  0  0  0  0  0  0
   13.6190    8.4360   54.9600 N   0  0  0  0  0  0  0  0  0  0  0  0
   12.9580    9.9320   56.6180 N   0  0  0  0  0  0  0  0  0  0  0  0
   15.6060   11.6060   54.9580 N   0  0  0  0  0  0  0  0  0  0  0  0
   14.6250   12.6590   58.9290 N   0  0  0  0  0  0  0  0  0  0  0  0
   12.8200    8.7810   55.9870 C   0  0  0  0  0  0  0  0  0  0  0  0
   16.7320   10.9600   60.1650 C   0  0  0  0  0  0  0  0  0  0  0  0
   15.3140   12.5680   55.8720 C   0  0  0  0  0  0  0  0  0  0  0  0
   14.7430   13.6140   60.0630 C   0  0  0  0  0  0  0  0  0  0  0  0
   14.4050   11.3140   59.5270 C   0  0  0  0  0  0  0  0  0  0  0  0
   13.6400   12.9170   57.8490 C   0  0  0  0  0  0  0  0  0  0  0  0
   14.5940    9.2850   54.4940 C   0  0  0  0  0  0  0  0  0  0  0  0
   15.2100   12.7530   61.2600 C   0  0  2  0  0  0  0  0  0  0  0  0
   14.7670   10.5260   55.1120 C   0  0  0  0  0  0  0  0  0  0  0  0
   13.9200   10.8040   56.1780 C   0  0  0  0  0  0  0  0  0  0  0  0
   15.3500   11.3370   60.7030 C   0  0  2  0  0  0  0  0  0  0  0  0
   14.2510   12.1500   56.6800 C   0  0  0  0  0  0  0  0  0  0  0  0
   18.3939   11.8747   59.5474 H   0  0  0  0  0  0  0  0  0  0  0  0
   14.5370   12.1233   63.0662 H   0  0  0  0  0  0  0  0  0  0  0  0
   13.5005    7.5425   54.5268 H   0  0  0  0  0  0  0  0  0  0  0  0
   16.3288   11.6733   54.2702 H   0  0  0  0  0  0  0  0  0  0  0  0
   12.1029    8.1484   56.2796 H   0  0  0  0  0  0  0  0  0  0  0  0
   17.2102   10.4034   60.8443 H   0  0  0  0  0  0  0  0  0  0  0  0
   16.6257   10.4361   59.3199 H   0  0  0  0  0  0  0  0  0  0  0  0
   15.7883   13.4444   55.9549 H   0  0  0  0  0  0  0  0  0  0  0  0
   13.8592   14.0390   60.2587 H   0  0  0  0  0  0  0  0  0  0  0  0
   15.4160   14.3242   59.8565 H   0  0  0  0  0  0  0  0  0  0  0  0
   14.6431   10.5866   58.8834 H   0  0  0  0  0  0  0  0  0  0  0  0
   13.4572   11.1989   59.8244 H   0  0  0  0  0  0  0  0  0  0  0  0
   13.5692   13.8937   57.6465 H   0  0  0  0  0  0  0  0  0  0  0  0
   12.7369   12.5595   58.0868 H   0  0  0  0  0  0  0  0  0  0  0  0
   16.0818   13.0840   61.6210 H   0  0  0  0  0  0  0  0  0  0  0  0
   15.0575   10.6704   61.3886 H   0  0  0  0  0  0  0  0  0  0  0  0
  1  9  1  0  0  0  0
  2 14  2  0  0  0  0
  3 15  1  0  0  0  0
  4  8  1  0  0  0  0
  4 14  1  0  0  0  0
  5  8  2  0  0  0  0
  5 17  1  0  0  0  0
  6 10  1  0  0  0  0
  6 16  1  0  0  0  0
  7 11  1  0  0  0  0
  7 12  1  0  0  0  0
  7 13  1  0  0  0  0
  9 18  1  0  0  0  0
 10 19  2  0  0  0  0
 11 15  1  0  0  0  0
 12 18  1  0  0  0  0
 13 19  1  0  0  0  0
 14 16  1  0  0  0  0
 15 18  1  0  0  0  0
 16 17  2  0  0  0  0
 17 19  1  0  0  0  0
  1 20  1  0  0  0  0
  3 21  1  0  0  0  0
  4 22  1  0  0  0  0
  6 23  1  0  0  0  0
  8 24  1  0  0  0  0
  9 25  1  0  0  0  0
  9 26  1  0  0  0  0
 10 27  1  0  0  0  0
 11 28  1  0  0  0  0
 11 29  1  0  0  0  0
 12 30  1  0  0  0  0
 12 31  1  0  0  0  0
 13 32  1  0  0  0  0
 13 33  1  0  0  0  0
 15 34  1  0  0  0  0
 18 35  1  0  0  0  0
M  END
> <pdb_id>
3BGS

> <uniprot_id>
P00491

> <usmiles>
O=C1NC=NC2=C1NC=C2CN3C[C@@H](O)[C@H](CO)C3

$$$$
DJL_B_1721
          07192422303D 1   1.00000     0.00000     0
            
 35 36  0  0  0  0            999 V2000
    5.0519   17.4381  -39.5780 Cl  0  0  0  0  0  0  0  0  0  0  0  0
    3.4114   12.9489  -41.2622 F   0  0  0  0  0  0  0  0  0  0  0  0
    5.4136   14.4973  -40.3917 O   0  0  0  0  0  0  0  0  0  0  0  0
    0.7123   12.4310  -40.9450 N   0  3  0  0  0  0  0  0  0  0  0  0
    0.4810   14.8835  -43.8281 C   0  0  0  0  0  0  0  0  0  0  0  0
    7.4428   13.5906  -36.8816 C   0  0  0  0  0  0  0  0  0  0  0  0
    6.1432   14.0485  -36.7744 C   0  0  0  0  0  0  0  0  0  0  0  0
    8.0278   13.4478  -38.1234 C   0  0  0  0  0  0  0  0  0  0  0  0
    5.4206   14.3648  -37.9132 C   0  0  0  0  0  0  0  0  0  0  0  0
    7.3130   13.7617  -39.2639 C   0  0  0  0  0  0  0  0  0  0  0  0
    2.5327   16.8330  -40.2695 C   0  0  0  0  0  0  0  0  0  0  0  0
    1.5179   16.0028  -40.7245 C   0  0  0  0  0  0  0  0  0  0  0  0
    0.6256   13.6082  -43.0828 C   0  0  0  0  0  0  0  0  0  0  0  0
    3.8231   16.3566  -40.1522 C   0  0  0  0  0  0  0  0  0  0  0  0
    6.0049   14.2222  -39.1611 C   0  0  0  0  0  0  0  0  0  0  0  0
    3.1140   14.2189  -40.9401 C   0  0  0  0  0  0  0  0  0  0  0  0
    4.1358   15.0350  -40.4874 C   0  0  0  0  0  0  0  0  0  0  0  0
    1.7845   14.6794  -41.0701 C   0  0  0  0  0  0  0  0  0  0  0  0
    0.6557   13.7857  -41.5678 C   0  0  2  0  0  0  0  0  0  0  0  0
   -0.0791   11.9866  -41.0843 H   0  0  0  0  0  0  0  0  0  0  0  0
    1.3955   11.9391  -41.3155 H   0  0  0  0  0  0  0  0  0  0  0  0
    0.8556   12.5035  -40.0399 H   0  0  0  0  0  0  0  0  0  0  0  0
    1.3515   15.3206  -43.9003 H   0  0  0  0  0  0  0  0  0  0  0  0
    0.1350   14.7020  -44.7242 H   0  0  0  0  0  0  0  0  0  0  0  0
   -0.1387   15.4717  -43.3544 H   0  0  0  0  0  0  0  0  0  0  0  0
    7.9316   13.3756  -36.1023 H   0  0  0  0  0  0  0  0  0  0  0  0
    5.7461   14.1447  -35.9238 H   0  0  0  0  0  0  0  0  0  0  0  0
    8.9161   13.1345  -38.1936 H   0  0  0  0  0  0  0  0  0  0  0  0
    4.5318   14.6773  -37.8390 H   0  0  0  0  0  0  0  0  0  0  0  0
    7.7105   13.6645  -40.1075 H   0  0  0  0  0  0  0  0  0  0  0  0
    2.3413   17.7248  -40.0399 H   0  0  0  0  0  0  0  0  0  0  0  0
    0.6377   16.3374  -40.8018 H   0  0  0  0  0  0  0  0  0  0  0  0
   -0.1207   13.0193  -43.3155 H   0  0  0  0  0  0  0  0  0  0  0  0
    1.4547   13.1699  -43.3643 H   0  0  0  0  0  0  0  0  0  0  0  0
   -0.1989   14.1925  -41.2901 H   0  0  0  0  0  0  0  0  0  0  0  0
  1 14  1  0  0  0  0
  2 16  1  0  0  0  0
  3 15  1  0  0  0  0
  3 17  1  0  0  0  0
  4 19  1  0  0  0  0
  4 20  1  0  0  0  0
  4 21  1  0  0  0  0
  4 22  1  0  0  0  0
  5 13  1  0  0  0  0
  5 23  1  0  0  0  0
  5 24  1  0  0  0  0
  5 25  1  0  0  0  0
  6  7  2  0  0  0  0
  6  8  1  0  0  0  0
  6 26  1  0  0  0  0
  7  9  1  0  0  0  0
  7 27  1  0  0  0  0
  8 10  2  0  0  0  0
  8 28  1  0  0  0  0
  9 15  2  0  0  0  0
  9 29  1  0  0  0  0
 10 15  1  0  0  0  0
 10 30  1  0  0  0  0
 11 12  2  0  0  0  0
 11 14  1  0  0  0  0
 11 31  1  0  0  0  0
 12 18  1  0  0  0  0
 12 32  1  0  0  0  0
 13 19  1  0  0  0  0
 13 33  1  0  0  0  0
 13 34  1  0  0  0  0
 14 17  2  0  0  0  0
 16 17  1  0  0  0  0
 16 18  2  0  0  0  0
 18 19  1  0  0  0  0
 19 35  1  0  0  0  0
M  CHG  1   4   1
M  END
> <pdb_id>
4B71

> <uniprot_id>
P26663

> <usmiles>
Clc1c(Oc2ccccc2)c(F)c(cc1)[C@H]([NH3+])CC

$$$$
DMA_B_998
          07202416533D 1   1.00000     0.00000     0
            
 26 25  0  0  0  0            999 V2000
    4.4532    0.6976  -16.9308 P   0  0  0  0  0  0  0  0  0  0  0  0
    4.2887   -2.1100  -16.5868 P   0  0  0  0  0  0  0  0  0  0  0  0
    3.4854    1.8244  -16.3575 O   0  0  0  0  0  0  0  0  0  0  0  0
    4.7753    1.0139  -18.3536 O   0  0  0  0  0  0  0  0  0  0  0  0
    5.7948    0.6817  -16.0862 O   0  0  0  0  0  0  0  0  0  0  0  0
    3.4119   -3.1514  -17.1790 O   0  0  0  0  0  0  0  0  0  0  0  0
    5.7614   -2.2413  -17.1579 O   0  0  0  0  0  0  0  0  0  0  0  0
    3.5981   -0.6755  -16.8919 O   0  0  0  0  0  0  0  0  0  0  0  0
    4.3453   -2.3513  -15.0073 O   0  0  0  0  0  0  0  0  0  0  0  0
    1.6065    1.1256  -13.1460 C   0  0  0  0  0  0  0  0  0  0  0  0
    0.4294   -0.8755  -14.2212 C   0  0  0  0  0  0  0  0  0  0  0  0
    3.1668   -2.3241  -14.1901 C   0  0  0  0  0  0  0  0  0  0  0  0
    2.9103   -0.9244  -13.6864 C   0  0  0  0  0  0  0  0  0  0  0  0
    1.7227   -0.2733  -13.6906 C   0  0  0  0  0  0  0  0  0  0  0  0
    3.2642    1.6203  -15.4039 H   0  0  0  0  0  0  0  0  0  0  0  0
    5.3833    0.3106  -18.7220 H   0  0  0  0  0  0  0  0  0  0  0  0
    2.4869   -3.0573  -16.8107 H   0  0  0  0  0  0  0  0  0  0  0  0
    2.5017    1.4331  -12.8233 H   0  0  0  0  0  0  0  0  0  0  0  0
    1.2837    1.7384  -13.8673 H   0  0  0  0  0  0  0  0  0  0  0  0
    0.9570    1.1345  -12.3857 H   0  0  0  0  0  0  0  0  0  0  0  0
    0.6061   -1.8000  -14.5591 H   0  0  0  0  0  0  0  0  0  0  0  0
   -0.2472   -0.9131  -13.4858 H   0  0  0  0  0  0  0  0  0  0  0  0
    0.0795   -0.3092  -14.9674 H   0  0  0  0  0  0  0  0  0  0  0  0
    3.2920   -2.9375  -13.4103 H   0  0  0  0  0  0  0  0  0  0  0  0
    2.3831   -2.6287  -14.7314 H   0  0  0  0  0  0  0  0  0  0  0  0
    3.6946   -0.4290  -13.3129 H   0  0  0  0  0  0  0  0  0  0  0  0
  1  3  1  0  0  0  0
  1  4  1  0  0  0  0
  1  5  2  0  0  0  0
  1  8  1  0  0  0  0
  2  6  1  0  0  0  0
  2  7  2  0  0  0  0
  2  8  1  0  0  0  0
  2  9  1  0  0  0  0
  9 12  1  0  0  0  0
 10 14  1  0  0  0  0
 11 14  1  0  0  0  0
 12 13  1  0  0  0  0
 13 14  2  0  0  0  0
  3 15  1  0  0  0  0
  4 16  1  0  0  0  0
  6 17  1  0  0  0  0
 10 18  1  0  0  0  0
 10 19  1  0  0  0  0
 10 20  1  0  0  0  0
 11 21  1  0  0  0  0
 11 22  1  0  0  0  0
 11 23  1  0  0  0  0
 12 24  1  0  0  0  0
 12 25  1  0  0  0  0
 13 26  1  0  0  0  0
M  END
> <pdb_id>
3KEF

> <uniprot_id>
P62623

> <usmiles>
P(=O)(OP(=O)(O)O)(OCC=C(C)C)O

$$$$
DMD_A_999
          07192421153D 1   1.00000     0.00000     0
            
 21 22  0  0  0  0            999 V2000
   56.7500   41.6980   14.4410 N   0  0  0  0  0  0  0  0  0  0  0  0
   57.4150   41.1780   12.3790 N   0  0  0  0  0  0  0  0  0  0  0  0
   60.2480   45.3160   15.0820 C   0  0  0  0  0  0  0  0  0  0  0  0
   61.1710   44.6270   12.4110 C   0  0  0  0  0  0  0  0  0  0  0  0
   56.5630   40.9320   13.3470 C   0  0  0  0  0  0  0  0  0  0  0  0
   58.4610   43.5390   14.8560 C   0  0  0  0  0  0  0  0  0  0  0  0
   59.3270   42.8820   12.3000 C   0  0  0  0  0  0  0  0  0  0  0  0
   57.8100   42.5460   14.1350 C   0  0  0  0  0  0  0  0  0  0  0  0
   58.2390   42.2100   12.8740 C   0  0  0  0  0  0  0  0  0  0  0  0
   59.5490   44.2100   14.3020 C   0  0  0  0  0  0  0  0  0  0  0  0
   59.9830   43.8870   13.0090 C   0  0  0  0  0  0  0  0  0  0  0  0
   56.2331   41.6637   15.2964 H   0  0  0  0  0  0  0  0  0  0  0  0
   61.0009   45.6840   14.5364 H   0  0  0  0  0  0  0  0  0  0  0  0
   59.5947   46.0458   15.2836 H   0  0  0  0  0  0  0  0  0  0  0  0
   60.6072   44.9443   15.9380 H   0  0  0  0  0  0  0  0  0  0  0  0
   61.5042   45.3061   13.0650 H   0  0  0  0  0  0  0  0  0  0  0  0
   61.9011   43.9751   12.2063 H   0  0  0  0  0  0  0  0  0  0  0  0
   60.8882   45.0860   11.5688 H   0  0  0  0  0  0  0  0  0  0  0  0
   55.8429   40.2414   13.2794 H   0  0  0  0  0  0  0  0  0  0  0  0
   58.1475   43.7731   15.7763 H   0  0  0  0  0  0  0  0  0  0  0  0
   59.6334   42.6398   11.3794 H   0  0  0  0  0  0  0  0  0  0  0  0
  1  5  1  0  0  0  0
  1  8  1  0  0  0  0
  2  5  2  0  0  0  0
  2  9  1  0  0  0  0
  3 10  1  0  0  0  0
  4 11  1  0  0  0  0
  6  8  2  0  0  0  0
  6 10  1  0  0  0  0
  7  9  2  0  0  0  0
  7 11  1  0  0  0  0
  8  9  1  0  0  0  0
 10 11  2  0  0  0  0
  1 12  1  0  0  0  0
  3 13  1  0  0  0  0
  3 14  1  0  0  0  0
  3 15  1  0  0  0  0
  4 16  1  0  0  0  0
  4 17  1  0  0  0  0
  4 18  1  0  0  0  0
  5 19  1  0  0  0  0
  6 20  1  0  0  0  0
  7 21  1  0  0  0  0
M  END
> <pdb_id>
1D0S

> <uniprot_id>
Q05603

> <usmiles>
N=1c2c(NC1)cc(c(c2)C)C

$$$$
DMJ_A_1103
          07202412393D 1   1.00000     0.00000     0
            
 24 24  0  0  0  0            999 V2000
   28.0524   67.5482    7.7716 O   0  0  0  0  0  0  0  0  0  0  0  0
   33.1842   65.7418    9.4782 O   0  0  0  0  0  0  0  0  0  0  0  0
   34.0918   66.7877    7.0620 O   0  0  0  0  0  0  0  0  0  0  0  0
   31.7932   67.5407    5.5853 O   0  0  0  0  0  0  0  0  0  0  0  0
   30.4534   67.3443    9.0462 N   0  0  0  0  0  0  0  0  0  0  0  0
   29.2113   67.4422    6.9679 C   0  0  0  0  0  0  0  0  0  0  0  0
   31.6747   67.5747    9.8922 C   0  0  0  0  0  0  0  0  0  0  0  0
   32.9642   67.1281    9.2418 C   0  0  2  0  0  0  0  0  0  0  0  0
   33.0144   67.4740    7.6914 C   0  0  2  0  0  0  0  0  0  0  0  0
   31.7260   67.1141    6.9499 C   0  0  1  0  0  0  0  0  0  0  0  0
   30.5606   67.7626    7.6135 C   0  0  2  0  0  0  0  0  0  0  0  0
   27.2470   67.3125    7.2279 H   0  0  0  0  0  0  0  0  0  0  0  0
   34.0395   65.4610    9.0428 H   0  0  0  0  0  0  0  0  0  0  0  0
   34.1091   67.0159    6.0886 H   0  0  0  0  0  0  0  0  0  0  0  0
   30.9435   67.2971    5.1176 H   0  0  0  0  0  0  0  0  0  0  0  0
   29.6960   67.8516    9.4573 H   0  0  0  0  0  0  0  0  0  0  0  0
   29.0955   68.0653    6.1944 H   0  0  0  0  0  0  0  0  0  0  0  0
   29.2570   66.5008    6.6336 H   0  0  0  0  0  0  0  0  0  0  0  0
   31.5635   67.0713   10.7490 H   0  0  0  0  0  0  0  0  0  0  0  0
   31.7427   68.5532   10.0868 H   0  0  0  0  0  0  0  0  0  0  0  0
   33.7095   67.6279    9.6831 H   0  0  0  0  0  0  0  0  0  0  0  0
   33.1686   68.4572    7.5939 H   0  0  0  0  0  0  0  0  0  0  0  0
   31.6033   66.1220    6.9746 H   0  0  0  0  0  0  0  0  0  0  0  0
   30.6946   68.7532    7.5851 H   0  0  0  0  0  0  0  0  0  0  0  0
  1  6  1  0  0  0  0
  2  8  1  0  0  0  0
  3  9  1  0  0  0  0
  4 10  1  0  0  0  0
  5  7  1  0  0  0  0
  5 11  1  0  0  0  0
  6 11  1  0  0  0  0
  7  8  1  0  0  0  0
  8  9  1  0  0  0  0
  9 10  1  0  0  0  0
 10 11  1  0  0  0  0
  1 12  1  0  0  0  0
  2 13  1  0  0  0  0
  3 14  1  0  0  0  0
  4 15  1  0  0  0  0
  5 16  1  0  0  0  0
  6 17  1  0  0  0  0
  6 18  1  0  0  0  0
  7 19  1  0  0  0  0
  7 20  1  0  0  0  0
  8 21  1  0  0  0  0
  9 22  1  0  0  0  0
 10 23  1  0  0  0  0
 11 24  1  0  0  0  0
M  END
> <pdb_id>
1HXK

> <uniprot_id>
Q24451

> <usmiles>
O[C@H]1[C@H](O)[C@H](NC[C@H]1O)CO

$$$$
DMJ_A_506
          07192420163D 1   1.00000     0.00000     0
            
 24 24  0  0  0  0            999 V2000
   25.7625   21.9813   48.1832 O   0  0  0  0  0  0  0  0  0  0  0  0
   26.7291   16.3972   47.3536 O   0  0  0  0  0  0  0  0  0  0  0  0
   25.6836   17.8999   49.3093 O   0  0  0  0  0  0  0  0  0  0  0  0
   22.8116   18.3310   46.9771 O   0  0  0  0  0  0  0  0  0  0  0  0
   25.9407   19.5238   46.9200 N   0  0  0  0  0  0  0  0  0  0  0  0
   24.9173   20.9284   48.6735 C   0  0  0  0  0  0  0  0  0  0  0  0
   25.8848   18.2999   46.0353 C   0  0  0  0  0  0  0  0  0  0  0  0
   25.5132   17.1050   46.9716 C   0  0  2  0  0  0  0  0  0  0  0  0
   24.7524   17.5189   48.2776 C   0  0  2  0  0  0  0  0  0  0  0  0
   23.7967   18.7086   47.9774 C   0  0  1  0  0  0  0  0  0  0  0  0
   24.5948   19.9698   47.5236 C   0  0  2  0  0  0  0  0  0  0  0  0
   25.9771   22.6113   48.9295 H   0  0  0  0  0  0  0  0  0  0  0  0
   26.4949   15.6318   47.9529 H   0  0  0  0  0  0  0  0  0  0  0  0
   25.1803   18.1602   50.1332 H   0  0  0  0  0  0  0  0  0  0  0  0
   22.2063   19.1062   46.7962 H   0  0  0  0  0  0  0  0  0  0  0  0
   26.2998   20.2814   46.3750 H   0  0  0  0  0  0  0  0  0  0  0  0
   24.0693   21.3189   49.0319 H   0  0  0  0  0  0  0  0  0  0  0  0
   25.3893   20.4314   49.4016 H   0  0  0  0  0  0  0  0  0  0  0  0
   26.7739   18.1410   45.6061 H   0  0  0  0  0  0  0  0  0  0  0  0
   25.1885   18.4153   45.3269 H   0  0  0  0  0  0  0  0  0  0  0  0
   24.9322   16.4739   46.4577 H   0  0  0  0  0  0  0  0  0  0  0  0
   24.2119   16.7413   48.5989 H   0  0  0  0  0  0  0  0  0  0  0  0
   23.3105   18.9363   48.8210 H   0  0  0  0  0  0  0  0  0  0  0  0
   24.0687   20.4580   46.8273 H   0  0  0  0  0  0  0  0  0  0  0  0
  1  6  1  0  0  0  0
  2  8  1  0  0  0  0
  3  9  1  0  0  0  0
  4 10  1  0  0  0  0
  5  7  1  0  0  0  0
  5 11  1  0  0  0  0
  6 11  1  0  0  0  0
  7  8  1  0  0  0  0
  8  9  1  0  0  0  0
  9 10  1  0  0  0  0
 10 11  1  0  0  0  0
  1 12  1  0  0  0  0
  2 13  1  0  0  0  0
  3 14  1  0  0  0  0
  4 15  1  0  0  0  0
  5 16  1  0  0  0  0
  6 17  1  0  0  0  0
  6 18  1  0  0  0  0
  7 19  1  0  0  0  0
  7 20  1  0  0  0  0
  8 21  1  0  0  0  0
  9 22  1  0  0  0  0
 10 23  1  0  0  0  0
 11 24  1  0  0  0  0
M  END
> <pdb_id>
5MEH

> <uniprot_id>
B0SWV2

> <usmiles>
O[C@H]1[C@H](O)[C@H](NC[C@H]1O)CO

$$$$
DMO_A_551
          07202415503D 1   1.00000     0.00000     0
            
 24 23  0  0  0  0            999 V2000
  -19.6931   18.8670  -11.8034 F   0  0  0  0  0  0  0  0  0  0  0  0
  -21.0452   17.9739  -10.1072 F   0  0  0  0  0  0  0  0  0  0  0  0
  -19.9682   15.5800  -10.9364 O   0  0  0  0  0  0  0  0  0  0  0  0
  -19.5228   15.5544  -13.0639 O   0  0  0  0  0  0  0  0  0  0  0  0
  -24.7186   13.4884  -12.3733 N   0  0  0  0  0  0  0  0  0  0  0  0
  -21.3740   17.3493  -13.8001 N   0  0  0  0  0  0  0  0  0  0  0  0
  -24.2015   14.7132  -11.7140 C   0  0  0  0  0  0  0  0  0  0  0  0
  -23.2353   15.3227  -12.6323 C   0  0  0  0  0  0  0  0  0  0  0  0
  -22.7324   16.5646  -11.9170 C   0  0  0  0  0  0  0  0  0  0  0  0
  -21.0169   18.3179  -11.5088 C   0  0  0  0  0  0  0  0  0  0  0  0
  -20.2098   16.0070  -12.1112 C   0  0  0  0  0  0  0  0  0  0  0  0
  -21.3137   17.0520  -12.3748 C   0  0  2  0  0  0  0  0  0  0  0  0
  -20.4987   15.9225  -10.1610 H   0  0  0  0  0  0  0  0  0  0  0  0
  -25.3838   13.0429  -11.7741 H   0  0  0  0  0  0  0  0  0  0  0  0
  -25.1600   13.7353  -13.2360 H   0  0  0  0  0  0  0  0  0  0  0  0
  -20.4776   17.6626  -14.1135 H   0  0  0  0  0  0  0  0  0  0  0  0
  -21.6330   16.5241  -14.3021 H   0  0  0  0  0  0  0  0  0  0  0  0
  -23.7527   14.4754  -10.8525 H   0  0  0  0  0  0  0  0  0  0  0  0
  -24.9521   15.3490  -11.5344 H   0  0  0  0  0  0  0  0  0  0  0  0
  -23.6787   15.5700  -13.4939 H   0  0  0  0  0  0  0  0  0  0  0  0
  -22.4800   14.6933  -12.8148 H   0  0  0  0  0  0  0  0  0  0  0  0
  -22.6931   16.3661  -10.9377 H   0  0  0  0  0  0  0  0  0  0  0  0
  -23.3845   17.3047  -12.0812 H   0  0  0  0  0  0  0  0  0  0  0  0
  -21.7113   19.0137  -11.6922 H   0  0  0  0  0  0  0  0  0  0  0  0
  1 10  1  0  0  0  0
  2 10  1  0  0  0  0
  3 11  1  0  0  0  0
  4 11  2  0  0  0  0
  5  7  1  0  0  0  0
  6 12  1  0  0  0  0
  7  8  1  0  0  0  0
  8  9  1  0  0  0  0
  9 12  1  0  0  0  0
 10 12  1  0  0  0  0
 11 12  1  0  0  0  0
  3 13  1  0  0  0  0
  5 14  1  0  0  0  0
  5 15  1  0  0  0  0
  6 16  1  0  0  0  0
  6 17  1  0  0  0  0
  7 18  1  0  0  0  0
  7 19  1  0  0  0  0
  8 20  1  0  0  0  0
  8 21  1  0  0  0  0
  9 22  1  0  0  0  0
  9 23  1  0  0  0  0
 10 24  1  0  0  0  0
M  END
> <pdb_id>
3GN0

> <uniprot_id>
P05089

> <usmiles>
FC(F)[C@@](N)(C(=O)O)CCCN

$$$$
DN6_A_301
          07192423183D 1   1.00000     0.00000     0
            
 34 36  0  0  0  0            999 V2000
  -11.6650   60.6230   12.0830 F   0  0  0  0  0  0  0  0  0  0  0  0
  -13.2820   59.8910   10.6590 F   0  0  0  0  0  0  0  0  0  0  0  0
  -13.0950   59.0460   12.5880 F   0  0  0  0  0  0  0  0  0  0  0  0
   -9.3930   55.8160   13.5050 O   0  0  0  0  0  0  0  0  0  0  0  0
   -1.4790   54.0080   11.6210 N   0  0  0  0  0  0  0  0  0  0  0  0
   -1.1950   53.2680   12.7760 N   0  0  0  0  0  0  0  0  0  0  0  0
   -2.8540   54.2250   11.6950 N   0  0  0  0  0  0  0  0  0  0  0  0
   -2.3690   53.0960   13.4750 N   0  0  0  0  0  0  0  0  0  0  0  0
   -7.8410   55.2870   11.8990 N   0  0  0  0  0  0  0  0  0  0  0  0
   -6.5480   53.0840   14.5770 C   0  0  0  0  0  0  0  0  0  0  0  0
  -10.2940   57.6200    9.1320 C   0  0  0  0  0  0  0  0  0  0  0  0
   -7.4730   53.7920   13.8030 C   0  0  0  0  0  0  0  0  0  0  0  0
   -9.5550   56.7830    9.9860 C   0  0  0  0  0  0  0  0  0  0  0  0
   -5.2130   53.0540   14.2180 C   0  0  0  0  0  0  0  0  0  0  0  0
  -11.1870   58.5210    9.6860 C   0  0  0  0  0  0  0  0  0  0  0  0
   -5.6600   54.4710   12.3580 C   0  0  0  0  0  0  0  0  0  0  0  0
  -10.6660   57.7330   11.8940 C   0  0  0  0  0  0  0  0  0  0  0  0
   -8.9580   55.9070   12.3460 C   0  0  0  0  0  0  0  0  0  0  0  0
   -6.9980   54.5020   12.7140 C   0  0  0  0  0  0  0  0  0  0  0  0
   -3.4010   53.6620   12.7650 C   0  0  0  0  0  0  0  0  0  0  0  0
   -9.7500   56.7960   11.3880 C   0  0  0  0  0  0  0  0  0  0  0  0
   -4.7610   53.7190   13.1030 C   0  0  0  0  0  0  0  0  0  0  0  0
  -11.4100   58.5750   11.0490 C   0  0  0  0  0  0  0  0  0  0  0  0
  -12.3940   59.5840   11.6020 C   0  0  0  0  0  0  0  0  0  0  0  0
   -3.3710   54.7472   11.0168 H   0  0  0  0  0  0  0  0  0  0  0  0
   -7.5989   55.3914   10.9344 H   0  0  0  0  0  0  0  0  0  0  0  0
   -6.8539   52.5966   15.3949 H   0  0  0  0  0  0  0  0  0  0  0  0
  -10.1765   57.5654    8.1404 H   0  0  0  0  0  0  0  0  0  0  0  0
   -8.4470   53.7855   14.0293 H   0  0  0  0  0  0  0  0  0  0  0  0
   -8.8751   56.1634    9.5936 H   0  0  0  0  0  0  0  0  0  0  0  0
   -4.5649   52.5395   14.7794 H   0  0  0  0  0  0  0  0  0  0  0  0
  -11.6829   59.1482    9.0854 H   0  0  0  0  0  0  0  0  0  0  0  0
   -5.3413   54.9899   11.5648 H   0  0  0  0  0  0  0  0  0  0  0  0
  -10.7925   57.8032   12.8835 H   0  0  0  0  0  0  0  0  0  0  0  0
  1 24  1  0  0  0  0
  2 24  1  0  0  0  0
  3 24  1  0  0  0  0
  4 18  2  0  0  0  0
  5  6  2  0  0  0  0
  5  7  1  0  0  0  0
  6  8  1  0  0  0  0
  7 20  1  0  0  0  0
  8 20  2  0  0  0  0
  9 18  1  0  0  0  0
  9 19  1  0  0  0  0
 10 12  1  0  0  0  0
 10 14  2  0  0  0  0
 11 13  1  0  0  0  0
 11 15  2  0  0  0  0
 12 19  2  0  0  0  0
 13 21  2  0  0  0  0
 14 22  1  0  0  0  0
 15 23  1  0  0  0  0
 16 19  1  0  0  0  0
 16 22  2  0  0  0  0
 17 21  1  0  0  0  0
 17 23  2  0  0  0  0
 18 21  1  0  0  0  0
 20 22  1  0  0  0  0
 23 24  1  0  0  0  0
  7 25  1  0  0  0  0
  9 26  1  0  0  0  0
 10 27  1  0  0  0  0
 11 28  1  0  0  0  0
 12 29  1  0  0  0  0
 13 30  1  0  0  0  0
 14 31  1  0  0  0  0
 15 32  1  0  0  0  0
 16 33  1  0  0  0  0
 17 34  1  0  0  0  0
M  END
> <pdb_id>
4DDY

> <uniprot_id>
Q9L5C8

> <usmiles>
FC(F)(F)c1cc(ccc1)C(=O)Nc2cc(ccc2)C3=NN=NN3

$$$$
DN8_A_301
          07192423183D 1   1.00000     0.00000     0
            
 31 33  0  0  0  0            999 V2000
  -12.3870   59.9118   11.6562 Br  0  0  0  0  0  0  0  0  0  0  0  0
   -9.2467   55.9088   13.5430 O   0  0  0  0  0  0  0  0  0  0  0  0
   -1.4734   53.8510   11.6785 N   0  0  0  0  0  0  0  0  0  0  0  0
   -1.2057   53.2266   12.8432 N   0  0  0  0  0  0  0  0  0  0  0  0
   -2.8207   54.0715   11.6577 N   0  0  0  0  0  0  0  0  0  0  0  0
   -2.4271   53.1292   13.5077 N   0  0  0  0  0  0  0  0  0  0  0  0
   -8.0399   55.0676   11.8278 N   0  0  0  0  0  0  0  0  0  0  0  0
   -9.9901   57.6308    9.1331 C   0  0  0  0  0  0  0  0  0  0  0  0
   -6.5240   53.1420   14.6103 C   0  0  0  0  0  0  0  0  0  0  0  0
  -10.9131   58.5841    9.6271 C   0  0  0  0  0  0  0  0  0  0  0  0
   -7.4646   53.7887   13.7980 C   0  0  0  0  0  0  0  0  0  0  0  0
   -9.3546   56.7762   10.0234 C   0  0  0  0  0  0  0  0  0  0  0  0
   -5.1671   53.0812   14.2855 C   0  0  0  0  0  0  0  0  0  0  0  0
  -10.5581   57.7601   11.8811 C   0  0  0  0  0  0  0  0  0  0  0  0
   -5.7004   54.3714   12.3019 C   0  0  0  0  0  0  0  0  0  0  0  0
  -11.1808   58.6358   10.9879 C   0  0  0  0  0  0  0  0  0  0  0  0
   -8.9479   55.8860   12.3446 C   0  0  0  0  0  0  0  0  0  0  0  0
   -7.0633   54.4362   12.6265 C   0  0  0  0  0  0  0  0  0  0  0  0
   -3.4026   53.6548   12.7724 C   0  0  0  0  0  0  0  0  0  0  0  0
   -9.6464   56.8297   11.3959 C   0  0  0  0  0  0  0  0  0  0  0  0
   -4.7553   53.6978   13.1003 C   0  0  0  0  0  0  0  0  0  0  0  0
   -0.8148   54.1029   10.9694 H   0  0  0  0  0  0  0  0  0  0  0  0
   -8.0483   54.8932   10.8432 H   0  0  0  0  0  0  0  0  0  0  0  0
   -9.7980   57.5739    8.1534 H   0  0  0  0  0  0  0  0  0  0  0  0
   -6.8362   52.7073   15.4550 H   0  0  0  0  0  0  0  0  0  0  0  0
  -11.3690   59.2156    8.9999 H   0  0  0  0  0  0  0  0  0  0  0  0
   -8.4301   53.7869   14.0584 H   0  0  0  0  0  0  0  0  0  0  0  0
   -8.6833   56.1170    9.6846 H   0  0  0  0  0  0  0  0  0  0  0  0
   -4.5131   52.6131   14.8798 H   0  0  0  0  0  0  0  0  0  0  0  0
  -10.7660   57.8022   12.8584 H   0  0  0  0  0  0  0  0  0  0  0  0
   -5.3857   54.8232   11.4671 H   0  0  0  0  0  0  0  0  0  0  0  0
  1 16  1  0  0  0  0
  2 17  2  0  0  0  0
  3  4  1  0  0  0  0
  3  5  1  0  0  0  0
  4  6  2  0  0  0  0
  5 19  2  0  0  0  0
  6 19  1  0  0  0  0
  7 17  1  0  0  0  0
  7 18  1  0  0  0  0
  8 10  2  0  0  0  0
  8 12  1  0  0  0  0
  9 11  2  0  0  0  0
  9 13  1  0  0  0  0
 10 16  1  0  0  0  0
 11 18  1  0  0  0  0
 12 20  2  0  0  0  0
 13 21  2  0  0  0  0
 14 16  2  0  0  0  0
 14 20  1  0  0  0  0
 15 18  2  0  0  0  0
 15 21  1  0  0  0  0
 17 20  1  0  0  0  0
 19 21  1  0  0  0  0
  3 22  1  0  0  0  0
  7 23  1  0  0  0  0
  8 24  1  0  0  0  0
  9 25  1  0  0  0  0
 10 26  1  0  0  0  0
 11 27  1  0  0  0  0
 12 28  1  0  0  0  0
 13 29  1  0  0  0  0
 14 30  1  0  0  0  0
 15 31  1  0  0  0  0
M  END
> <pdb_id>
4DE3

> <uniprot_id>
Q9L5C8

> <usmiles>
Brc1cc(ccc1)C(=O)Nc2cc(ccc2)C=3N=NNN3

$$$$
DNC_A_301
          07192415273D 1   1.00000     0.00000     0
            
 18 18  0  0  0  0            999 V2000
   17.3458   -7.4191   -3.7583 O   0  5  0  0  0  0  0  0  0  0  0  0
   18.9836   -8.0084   -5.0600 O   0  0  0  0  0  0  0  0  0  0  0  0
   12.6682  -10.9387   -5.5296 O   0  5  0  0  0  0  0  0  0  0  0  0
   13.2881   -9.7674   -3.8505 O   0  0  0  0  0  0  0  0  0  0  0  0
   17.0074  -11.3587   -8.1090 O   0  0  0  0  0  0  0  0  0  0  0  0
   14.5792  -11.8261   -7.1977 O   0  0  0  0  0  0  0  0  0  0  0  0
   17.8083   -8.0645   -4.6809 N   0  3  0  0  0  0  0  0  0  0  0  0
   13.5043  -10.3045   -4.9145 N   0  3  0  0  0  0  0  0  0  0  0  0
   17.4604   -9.7290   -6.4441 C   0  0  0  0  0  0  0  0  0  0  0  0
   15.6721   -9.1843   -4.8391 C   0  0  0  0  0  0  0  0  0  0  0  0
   16.6114  -10.6412   -7.0505 C   0  0  0  0  0  0  0  0  0  0  0  0
   16.9529   -9.0006   -5.3502 C   0  0  0  0  0  0  0  0  0  0  0  0
   15.3067  -10.8814   -6.5640 C   0  0  0  0  0  0  0  0  0  0  0  0
   14.8417  -10.1312   -5.4673 C   0  0  0  0  0  0  0  0  0  0  0  0
   16.3803  -12.0121   -8.5330 H   0  0  0  0  0  0  0  0  0  0  0  0
   13.6503  -12.0318   -6.8901 H   0  0  0  0  0  0  0  0  0  0  0  0
   18.3960   -9.5933   -6.7699 H   0  0  0  0  0  0  0  0  0  0  0  0
   15.3516   -8.6600   -4.0502 H   0  0  0  0  0  0  0  0  0  0  0  0
  1  7  1  0  0  0  0
  2  7  2  0  0  0  0
  3  8  1  0  0  0  0
  4  8  2  0  0  0  0
  5 11  1  0  0  0  0
  6 13  1  0  0  0  0
  7 12  1  0  0  0  0
  8 14  1  0  0  0  0
  9 11  1  0  0  0  0
  9 12  2  0  0  0  0
 10 12  1  0  0  0  0
 10 14  2  0  0  0  0
 11 13  2  0  0  0  0
 13 14  1  0  0  0  0
  5 15  1  0  0  0  0
  6 16  1  0  0  0  0
  9 17  1  0  0  0  0
 10 18  1  0  0  0  0
M  CHG  4   1  -1   3  -1   7   1   8   1
M  END
> <pdb_id>
6I3D

> <uniprot_id>
P21964

> <usmiles>
[O-][N+](=O)c1c(O)c(O)cc([N+]([O-])=O)c1

$$$$
DOB_A_396
          07202403093D 1   1.00000     0.00000     0
            
 17 17  0  0  0  0            999 V2000
   17.6600   91.2140   45.9540 O   0  0  0  0  0  0  0  0  0  0  0  0
   18.2640   97.3860   46.7300 O   0  0  0  0  0  0  0  0  0  0  0  0
   16.3600   97.3010   45.7070 O   0  0  0  0  0  0  0  0  0  0  0  0
   19.5660   95.1510   47.2500 O   0  0  0  0  0  0  0  0  0  0  0  0
   16.4410   93.1060   45.5950 C   0  0  0  0  0  0  0  0  0  0  0  0
   16.3650   94.4890   45.6650 C   0  0  0  0  0  0  0  0  0  0  0  0
   18.6700   93.2130   46.5670 C   0  0  0  0  0  0  0  0  0  0  0  0
   17.5990   92.5020   46.0410 C   0  0  0  0  0  0  0  0  0  0  0  0
   17.3580   96.7240   46.1940 C   0  0  0  0  0  0  0  0  0  0  0  0
   18.5550   94.6060   46.6400 C   0  0  0  0  0  0  0  0  0  0  0  0
   17.4060   95.2870   46.1870 C   0  0  0  0  0  0  0  0  0  0  0  0
   18.4783   90.7301   46.2642 H   0  0  0  0  0  0  0  0  0  0  0  0
   19.0600   96.9216   47.1181 H   0  0  0  0  0  0  0  0  0  0  0  0
   19.6032   96.1434   47.3676 H   0  0  0  0  0  0  0  0  0  0  0  0
   15.6820   92.5645   45.2334 H   0  0  0  0  0  0  0  0  0  0  0  0
   15.5373   94.9403   45.3314 H   0  0  0  0  0  0  0  0  0  0  0  0
   19.4955   92.7453   46.8829 H   0  0  0  0  0  0  0  0  0  0  0  0
  1  8  1  0  0  0  0
  2  9  1  0  0  0  0
  3  9  2  0  0  0  0
  4 10  1  0  0  0  0
  5  6  1  0  0  0  0
  5  8  2  0  0  0  0
  6 11  2  0  0  0  0
  7  8  1  0  0  0  0
  7 10  2  0  0  0  0
  9 11  1  0  0  0  0
 10 11  1  0  0  0  0
  1 12  1  0  0  0  0
  2 13  1  0  0  0  0
  4 14  1  0  0  0  0
  5 15  1  0  0  0  0
  6 16  1  0  0  0  0
  7 17  1  0  0  0  0
M  END
> <pdb_id>
1PBB

> <uniprot_id>
P00438

> <usmiles>
O=C(O)c1c(O)cc(O)cc1

$$$$
DOG_A_201
          07202407013D 1   1.00000     0.00000     0
            
 62 66  0  0  0  0            999 V2000
   -0.2626  -24.6138   31.3072 O   0  0  0  0  0  0  0  0  0  0  0  0
   -1.8086  -36.8524   36.2653 O   0  0  0  0  0  0  0  0  0  0  0  0
   -0.2749  -31.1256   31.3225 O   0  0  0  0  0  0  0  0  0  0  0  0
   -2.0657  -29.0831   35.0719 O   0  0  0  0  0  0  0  0  0  0  0  0
   -1.1463  -25.4567   33.0403 O   0  0  0  0  0  0  0  0  0  0  0  0
   -3.8851  -33.7061   33.8938 C   0  0  0  0  0  0  0  0  0  0  0  0
   -2.3230  -29.5590   32.3392 C   0  0  0  0  0  0  0  0  0  0  0  0
   -1.3088  -26.6367   33.5661 C   0  0  0  0  0  0  0  0  0  0  0  0
   -0.7133  -35.4046   34.6986 C   0  0  0  0  0  0  0  0  0  0  0  0
   -3.3349  -32.7094   36.6845 C   0  0  0  0  0  0  0  0  0  0  0  0
   -2.4471  -31.5864   36.4012 C   0  0  0  0  0  0  0  0  0  0  0  0
    0.5362  -28.8770   34.5827 C   0  0  0  0  0  0  0  0  0  0  0  0
   -0.0711  -30.0660   35.2437 C   0  0  0  0  0  0  0  0  0  0  0  0
   -1.9581  -35.1196   34.0143 C   0  0  0  0  0  0  0  0  0  0  0  0
    0.0849  -26.8855   31.8862 C   0  0  0  0  0  0  0  0  0  0  0  0
   -1.6412  -34.5093   36.7612 C   0  0  0  0  0  0  0  0  0  0  0  0
   -1.4646  -32.4141   32.8114 C   0  0  0  0  0  0  0  0  0  0  0  0
   -0.5062  -25.5878   31.9632 C   0  0  0  0  0  0  0  0  0  0  0  0
   -0.9922  -35.7236   36.1171 C   0  0  1  0  0  0  0  0  0  0  0  0
   -0.5104  -31.2833   32.6234 C   0  0  2  0  0  0  0  0  0  0  0  0
   -0.4306  -27.5545   32.8338 C   0  0  0  0  0  0  0  0  0  0  0  0
   -2.8608  -34.0191   36.0365 C   0  0  2  0  0  0  0  0  0  0  0  0
   -2.2675  -31.3980   34.9247 C   0  0  2  0  0  0  0  0  0  0  0  0
    0.0300  -28.8795   33.2107 C   0  0  2  0  0  0  0  0  0  0  0  0
   -1.7078  -32.6417   34.2703 C   0  0  1  0  0  0  0  0  0  0  0  0
   -1.4115  -30.1167   34.6410 C   0  0  1  0  0  0  0  0  0  0  0  0
   -2.6107  -33.8627   34.5389 C   0  0  2  0  0  0  0  0  0  0  0  0
   -1.1060  -29.9444   33.1696 C   0  0  1  0  0  0  0  0  0  0  0  0
    0.2447  -24.7024   30.4500 H   0  0  0  0  0  0  0  0  0  0  0  0
   -1.9663  -37.0244   37.2377 H   0  0  0  0  0  0  0  0  0  0  0  0
    0.3646  -30.3685   31.1889 H   0  0  0  0  0  0  0  0  0  0  0  0
   -2.9861  -29.0844   34.6810 H   0  0  0  0  0  0  0  0  0  0  0  0
   -4.3299  -32.8766   34.2316 H   0  0  0  0  0  0  0  0  0  0  0  0
   -3.7517  -33.6339   32.9054 H   0  0  0  0  0  0  0  0  0  0  0  0
   -4.4604  -34.4987   34.0956 H   0  0  0  0  0  0  0  0  0  0  0  0
   -2.7060  -28.7030   32.6864 H   0  0  0  0  0  0  0  0  0  0  0  0
   -2.0507  -29.4394   31.3845 H   0  0  0  0  0  0  0  0  0  0  0  0
   -3.0114  -30.2817   32.4015 H   0  0  0  0  0  0  0  0  0  0  0  0
   -1.9165  -26.8721   34.3246 H   0  0  0  0  0  0  0  0  0  0  0  0
   -0.1145  -34.6052   34.6481 H   0  0  0  0  0  0  0  0  0  0  0  0
   -0.2647  -36.1851   34.2633 H   0  0  0  0  0  0  0  0  0  0  0  0
   -4.2467  -32.4920   36.3363 H   0  0  0  0  0  0  0  0  0  0  0  0
   -3.3788  -32.8403   37.6750 H   0  0  0  0  0  0  0  0  0  0  0  0
   -1.5555  -31.7618   36.8187 H   0  0  0  0  0  0  0  0  0  0  0  0
   -2.8398  -30.7535   36.7911 H   0  0  0  0  0  0  0  0  0  0  0  0
    1.5336  -28.9488   34.5856 H   0  0  0  0  0  0  0  0  0  0  0  0
    0.2610  -28.0388   35.0535 H   0  0  0  0  0  0  0  0  0  0  0  0
   -0.1249  -29.9404   36.2343 H   0  0  0  0  0  0  0  0  0  0  0  0
    0.4478  -30.8964   35.0407 H   0  0  0  0  0  0  0  0  0  0  0  0
   -2.5836  -35.8885   34.1462 H   0  0  0  0  0  0  0  0  0  0  0  0
   -1.7722  -35.0048   33.0384 H   0  0  0  0  0  0  0  0  0  0  0  0
    0.7639  -27.2016   31.2236 H   0  0  0  0  0  0  0  0  0  0  0  0
   -0.9698  -33.7686   36.7856 H   0  0  0  0  0  0  0  0  0  0  0  0
   -1.9051  -34.7509   37.6951 H   0  0  0  0  0  0  0  0  0  0  0  0
   -1.0793  -33.2434   32.4066 H   0  0  0  0  0  0  0  0  0  0  0  0
   -2.3305  -32.1950   32.3617 H   0  0  0  0  0  0  0  0  0  0  0  0
   -0.1227  -35.8994   36.5786 H   0  0  0  0  0  0  0  0  0  0  0  0
    0.3468  -31.4862   33.0967 H   0  0  0  0  0  0  0  0  0  0  0  0
   -3.5834  -34.6998   36.1571 H   0  0  0  0  0  0  0  0  0  0  0  0
   -3.1744  -31.2405   34.5339 H   0  0  0  0  0  0  0  0  0  0  0  0
    0.7636  -29.1595   32.5916 H   0  0  0  0  0  0  0  0  0  0  0  0
   -0.8214  -32.8279   34.6943 H   0  0  0  0  0  0  0  0  0  0  0  0
  1 18  1  0  0  0  0
  2 19  1  0  0  0  0
  3 20  1  0  0  0  0
  4 26  1  0  0  0  0
  5  8  1  0  0  0  0
  5 18  1  0  0  0  0
  6 27  1  0  0  0  0
  7 28  1  0  0  0  0
  8 21  2  0  0  0  0
  9 14  1  0  0  0  0
  9 19  1  0  0  0  0
 10 11  1  0  0  0  0
 10 22  1  0  0  0  0
 11 23  1  0  0  0  0
 12 13  1  0  0  0  0
 12 24  1  0  0  0  0
 13 26  1  0  0  0  0
 14 27  1  0  0  0  0
 15 18  2  0  0  0  0
 15 21  1  0  0  0  0
 16 19  1  0  0  0  0
 16 22  1  0  0  0  0
 17 20  1  0  0  0  0
 17 25  1  0  0  0  0
 20 28  1  0  0  0  0
 21 24  1  0  0  0  0
 22 27  1  0  0  0  0
 23 25  1  0  0  0  0
 23 26  1  0  0  0  0
 24 28  1  0  0  0  0
 25 27  1  0  0  0  0
 26 28  1  0  0  0  0
  1 29  1  0  0  0  0
  2 30  1  0  0  0  0
  3 31  1  0  0  0  0
  4 32  1  0  0  0  0
  6 33  1  0  0  0  0
  6 34  1  0  0  0  0
  6 35  1  0  0  0  0
  7 36  1  0  0  0  0
  7 37  1  0  0  0  0
  7 38  1  0  0  0  0
  8 39  1  0  0  0  0
  9 40  1  0  0  0  0
  9 41  1  0  0  0  0
 10 42  1  0  0  0  0
 10 43  1  0  0  0  0
 11 44  1  0  0  0  0
 11 45  1  0  0  0  0
 12 46  1  0  0  0  0
 12 47  1  0  0  0  0
 13 48  1  0  0  0  0
 13 49  1  0  0  0  0
 14 50  1  0  0  0  0
 14 51  1  0  0  0  0
 15 52  1  0  0  0  0
 16 53  1  0  0  0  0
 16 54  1  0  0  0  0
 17 55  1  0  0  0  0
 17 56  1  0  0  0  0
 19 57  1  0  0  0  0
 20 58  1  0  0  0  0
 22 59  1  0  0  0  0
 23 60  1  0  0  0  0
 24 61  1  0  0  0  0
 25 62  1  0  0  0  0
M  END
> <pdb_id>
4J8T

> <uniprot_id>
Q9HYR3

> <usmiles>
O1C(O)=CC(=C1)[C@@H]2[C@@]3([C@@](O)([C@H]4[C@@H]([C@@]5([C@@H](C[C@@H](O)CC5)CC4)C)C[C@H]3O)CC2)C

$$$$
DOG_A_500
          07192419063D 1   1.00000     0.00000     0
            
 62 66  0  0  0  0            999 V2000
   15.2650  -21.2770   37.4530 O   0  0  0  0  0  0  0  0  0  0  0  0
    3.7660  -28.0980   36.7460 O   0  0  0  0  0  0  0  0  0  0  0  0
    9.6080  -22.8950   35.5440 O   0  0  0  0  0  0  0  0  0  0  0  0
   11.2120  -25.9320   39.0410 O   0  0  0  0  0  0  0  0  0  0  0  0
   14.8390  -23.3060   38.2920 O   0  0  0  0  0  0  0  0  0  0  0  0
    6.0900  -24.7760   38.9900 C   0  0  0  0  0  0  0  0  0  0  0  0
   10.5420  -23.2570   38.1900 C   0  0  0  0  0  0  0  0  0  0  0  0
   13.9160  -24.3950   38.0480 C   0  0  0  0  0  0  0  0  0  0  0  0
    5.2890  -26.5800   35.6480 C   0  0  0  0  0  0  0  0  0  0  0  0
    7.2120  -27.6550   39.4110 C   0  0  0  0  0  0  0  0  0  0  0  0
    8.6220  -27.4280   38.8860 C   0  0  0  0  0  0  0  0  0  0  0  0
   12.1300  -26.1830   36.3780 C   0  0  0  0  0  0  0  0  0  0  0  0
   10.8390  -26.8230   36.9020 C   0  0  0  0  0  0  0  0  0  0  0  0
    5.2750  -25.5600   36.7670 C   0  0  0  0  0  0  0  0  0  0  0  0
   13.4710  -22.6250   36.6410 C   0  0  0  0  0  0  0  0  0  0  0  0
    6.0880  -28.3180   37.2770 C   0  0  0  0  0  0  0  0  0  0  0  0
    8.0680  -24.2710   36.6520 C   0  0  0  0  0  0  0  0  0  0  0  0
   14.6030  -22.2720   37.4610 C   0  0  0  0  0  0  0  0  0  0  0  0
    5.0730  -27.9620   36.1890 C   0  0  1  0  0  0  0  0  0  0  0  0
    9.4700  -24.2150   36.1290 C   0  0  2  0  0  0  0  0  0  0  0  0
   13.0620  -23.8540   36.9790 C   0  0  0  0  0  0  0  0  0  0  0  0
    6.1190  -27.2550   38.3960 C   0  0  2  0  0  0  0  0  0  0  0  0
    8.8450  -26.0090   38.3570 C   0  0  2  0  0  0  0  0  0  0  0  0
   11.9260  -24.6400   36.4590 C   0  0  2  0  0  0  0  0  0  0  0  0
    7.7830  -25.6750   37.2840 C   0  0  1  0  0  0  0  0  0  0  0  0
   10.3040  -25.7990   37.9190 C   0  0  1  0  0  0  0  0  0  0  0  0
    6.3470  -25.8090   37.8600 C   0  0  2  0  0  0  0  0  0  0  0  0
   10.5510  -24.4330   37.2170 C   0  0  1  0  0  0  0  0  0  0  0  0
   15.0482  -20.5373   36.8159 H   0  0  0  0  0  0  0  0  0  0  0  0
    3.6488  -29.0264   37.0985 H   0  0  0  0  0  0  0  0  0  0  0  0
   10.5304  -22.7899   35.1722 H   0  0  0  0  0  0  0  0  0  0  0  0
   10.9426  -25.2970   39.7650 H   0  0  0  0  0  0  0  0  0  0  0  0
    6.7636  -24.9037   39.7179 H   0  0  0  0  0  0  0  0  0  0  0  0
    6.1704  -23.8504   38.6201 H   0  0  0  0  0  0  0  0  0  0  0  0
    5.1704  -24.9084   39.3599 H   0  0  0  0  0  0  0  0  0  0  0  0
   11.2403  -23.3994   38.8915 H   0  0  0  0  0  0  0  0  0  0  0  0
   10.7366  -22.4115   37.6928 H   0  0  0  0  0  0  0  0  0  0  0  0
    9.6432  -23.1896   38.6232 H   0  0  0  0  0  0  0  0  0  0  0  0
   13.8706  -25.2891   38.4936 H   0  0  0  0  0  0  0  0  0  0  0  0
    6.1731  -26.5442   35.1820 H   0  0  0  0  0  0  0  0  0  0  0  0
    4.5605  -26.3643   34.9978 H   0  0  0  0  0  0  0  0  0  0  0  0
    7.0898  -27.1117   40.2416 H   0  0  0  0  0  0  0  0  0  0  0  0
    7.1052  -28.6252   39.6286 H   0  0  0  0  0  0  0  0  0  0  0  0
    8.7929  -28.0751   38.1430 H   0  0  0  0  0  0  0  0  0  0  0  0
    9.2692  -27.5958   39.6296 H   0  0  0  0  0  0  0  0  0  0  0  0
   12.2931  -26.4603   35.4312 H   0  0  0  0  0  0  0  0  0  0  0  0
   12.9065  -26.4587   36.9446 H   0  0  0  0  0  0  0  0  0  0  0  0
   11.0306  -27.6984   37.3458 H   0  0  0  0  0  0  0  0  0  0  0  0
   10.1841  -26.9622   36.1592 H   0  0  0  0  0  0  0  0  0  0  0  0
    4.3738  -25.5803   37.1999 H   0  0  0  0  0  0  0  0  0  0  0  0
    5.4341  -24.6559   36.3705 H   0  0  0  0  0  0  0  0  0  0  0  0
   13.0594  -22.0472   35.9362 H   0  0  0  0  0  0  0  0  0  0  0  0
    6.9968  -28.3815   36.8646 H   0  0  0  0  0  0  0  0  0  0  0  0
    5.8403  -29.2012   37.6753 H   0  0  0  0  0  0  0  0  0  0  0  0
    7.4283  -24.1110   35.9002 H   0  0  0  0  0  0  0  0  0  0  0  0
    7.9468  -23.5642   37.3489 H   0  0  0  0  0  0  0  0  0  0  0  0
    5.1686  -28.6159   35.4385 H   0  0  0  0  0  0  0  0  0  0  0  0
    9.5811  -24.9044   35.4132 H   0  0  0  0  0  0  0  0  0  0  0  0
    5.2370  -27.2752   38.8668 H   0  0  0  0  0  0  0  0  0  0  0  0
    8.6833  -25.3880   39.1240 H   0  0  0  0  0  0  0  0  0  0  0  0
   11.7772  -24.3284   35.5205 H   0  0  0  0  0  0  0  0  0  0  0  0
    7.8747  -26.3529   36.5546 H   0  0  0  0  0  0  0  0  0  0  0  0
  1 18  1  0  0  0  0
  2 19  1  0  0  0  0
  3 20  1  0  0  0  0
  4 26  1  0  0  0  0
  5  8  1  0  0  0  0
  5 18  1  0  0  0  0
  6 27  1  0  0  0  0
  7 28  1  0  0  0  0
  8 21  2  0  0  0  0
  9 14  1  0  0  0  0
  9 19  1  0  0  0  0
 10 11  1  0  0  0  0
 10 22  1  0  0  0  0
 11 23  1  0  0  0  0
 12 13  1  0  0  0  0
 12 24  1  0  0  0  0
 13 26  1  0  0  0  0
 14 27  1  0  0  0  0
 15 18  2  0  0  0  0
 15 21  1  0  0  0  0
 16 19  1  0  0  0  0
 16 22  1  0  0  0  0
 17 20  1  0  0  0  0
 17 25  1  0  0  0  0
 20 28  1  0  0  0  0
 21 24  1  0  0  0  0
 22 27  1  0  0  0  0
 23 25  1  0  0  0  0
 23 26  1  0  0  0  0
 24 28  1  0  0  0  0
 25 27  1  0  0  0  0
 26 28  1  0  0  0  0
  1 29  1  0  0  0  0
  2 30  1  0  0  0  0
  3 31  1  0  0  0  0
  4 32  1  0  0  0  0
  6 33  1  0  0  0  0
  6 34  1  0  0  0  0
  6 35  1  0  0  0  0
  7 36  1  0  0  0  0
  7 37  1  0  0  0  0
  7 38  1  0  0  0  0
  8 39  1  0  0  0  0
  9 40  1  0  0  0  0
  9 41  1  0  0  0  0
 10 42  1  0  0  0  0
 10 43  1  0  0  0  0
 11 44  1  0  0  0  0
 11 45  1  0  0  0  0
 12 46  1  0  0  0  0
 12 47  1  0  0  0  0
 13 48  1  0  0  0  0
 13 49  1  0  0  0  0
 14 50  1  0  0  0  0
 14 51  1  0  0  0  0
 15 52  1  0  0  0  0
 16 53  1  0  0  0  0
 16 54  1  0  0  0  0
 17 55  1  0  0  0  0
 17 56  1  0  0  0  0
 19 57  1  0  0  0  0
 20 58  1  0  0  0  0
 22 59  1  0  0  0  0
 23 60  1  0  0  0  0
 24 61  1  0  0  0  0
 25 62  1  0  0  0  0
M  END
> <pdb_id>
1LKE

> <uniprot_id>
P09464

> <usmiles>
O1C(O)=CC(=C1)[C@@H]2[C@@]3([C@@](O)([C@H]4[C@@H]([C@@]5([C@@H](C[C@@H](O)CC5)CC4)C)C[C@H]3O)CC2)C

$$$$
DOG_B_201
          07202407013D 1   1.00000     0.00000     0
            
 62 66  0  0  0  0            999 V2000
   -0.2230  -24.6320   31.2040 O   0  0  0  0  0  0  0  0  0  0  0  0
   -1.4710  -36.8320   36.1570 O   0  0  0  0  0  0  0  0  0  0  0  0
   -0.1930  -31.1140   31.2510 O   0  0  0  0  0  0  0  0  0  0  0  0
   -2.3100  -29.3120   34.9110 O   0  0  0  0  0  0  0  0  0  0  0  0
   -1.1680  -25.4670   32.9120 O   0  0  0  0  0  0  0  0  0  0  0  0
   -3.7310  -33.7180   33.7250 C   0  0  0  0  0  0  0  0  0  0  0  0
   -2.2960  -29.5790   32.2770 C   0  0  0  0  0  0  0  0  0  0  0  0
   -1.0800  -26.5740   33.6290 C   0  0  0  0  0  0  0  0  0  0  0  0
   -0.5840  -35.5790   34.4470 C   0  0  0  0  0  0  0  0  0  0  0  0
   -3.3160  -32.9800   36.4600 C   0  0  0  0  0  0  0  0  0  0  0  0
   -2.4790  -31.7760   36.2660 C   0  0  0  0  0  0  0  0  0  0  0  0
    0.6480  -29.0930   34.5640 C   0  0  0  0  0  0  0  0  0  0  0  0
   -0.1590  -30.0620   35.3130 C   0  0  0  0  0  0  0  0  0  0  0  0
   -1.8450  -35.1920   33.7650 C   0  0  0  0  0  0  0  0  0  0  0  0
    0.2140  -26.8820   31.8710 C   0  0  0  0  0  0  0  0  0  0  0  0
   -1.5000  -34.6010   36.5380 C   0  0  0  0  0  0  0  0  0  0  0  0
   -1.3660  -32.5000   32.7000 C   0  0  0  0  0  0  0  0  0  0  0  0
   -0.2740  -25.5360   31.9950 C   0  0  0  0  0  0  0  0  0  0  0  0
   -0.7530  -35.7550   35.9400 C   0  0  1  0  0  0  0  0  0  0  0  0
   -0.4860  -31.2990   32.5170 C   0  0  2  0  0  0  0  0  0  0  0  0
   -0.2960  -27.5390   32.8350 C   0  0  0  0  0  0  0  0  0  0  0  0
   -2.7260  -34.2330   35.8160 C   0  0  2  0  0  0  0  0  0  0  0  0
   -2.2250  -31.5460   34.8080 C   0  0  2  0  0  0  0  0  0  0  0  0
    0.0480  -28.9410   33.1700 C   0  0  2  0  0  0  0  0  0  0  0  0
   -1.5450  -32.7540   34.1560 C   0  0  1  0  0  0  0  0  0  0  0  0
   -1.4860  -30.2230   34.5670 C   0  0  1  0  0  0  0  0  0  0  0  0
   -2.4490  -33.9790   34.3580 C   0  0  2  0  0  0  0  0  0  0  0  0
   -1.1230  -29.9880   33.0820 C   0  0  1  0  0  0  0  0  0  0  0  0
   -1.5905  -36.9602   37.1415 H   0  0  0  0  0  0  0  0  0  0  0  0
    0.3930  -30.3090   31.1587 H   0  0  0  0  0  0  0  0  0  0  0  0
   -3.1689  -29.4343   34.4137 H   0  0  0  0  0  0  0  0  0  0  0  0
   -4.1398  -32.8980   34.1256 H   0  0  0  0  0  0  0  0  0  0  0  0
   -3.5961  -33.5780   32.7441 H   0  0  0  0  0  0  0  0  0  0  0  0
   -4.3393  -34.4984   33.8698 H   0  0  0  0  0  0  0  0  0  0  0  0
   -2.6851  -28.7400   32.6573 H   0  0  0  0  0  0  0  0  0  0  0  0
   -2.0115  -29.4161   31.3323 H   0  0  0  0  0  0  0  0  0  0  0  0
   -2.9838  -30.3046   32.2976 H   0  0  0  0  0  0  0  0  0  0  0  0
   -1.9930  -26.9395   33.8103 H   0  0  0  0  0  0  0  0  0  0  0  0
   -0.6179  -26.3863   34.4957 H   0  0  0  0  0  0  0  0  0  0  0  0
    0.0983  -34.8662   34.2848 H   0  0  0  0  0  0  0  0  0  0  0  0
   -0.2628  -36.4425   34.0581 H   0  0  0  0  0  0  0  0  0  0  0  0
   -4.2158  -32.8097   36.0582 H   0  0  0  0  0  0  0  0  0  0  0  0
   -3.4148  -33.1436   37.4416 H   0  0  0  0  0  0  0  0  0  0  0  0
   -1.6058  -31.9024   36.7366 H   0  0  0  0  0  0  0  0  0  0  0  0
   -2.9513  -30.9814   36.6475 H   0  0  0  0  0  0  0  0  0  0  0  0
    1.5897  -29.4217   34.4922 H   0  0  0  0  0  0  0  0  0  0  0  0
    0.6380  -28.2104   35.0340 H   0  0  0  0  0  0  0  0  0  0  0  0
   -0.3260  -29.7247   36.2394 H   0  0  0  0  0  0  0  0  0  0  0  0
    0.3165  -30.9405   35.3588 H   0  0  0  0  0  0  0  0  0  0  0  0
   -2.4969  -35.9465   33.8403 H   0  0  0  0  0  0  0  0  0  0  0  0
   -1.6489  -35.0159   32.8004 H   0  0  0  0  0  0  0  0  0  0  0  0
    0.8316  -27.2330   31.1672 H   0  0  0  0  0  0  0  0  0  0  0  0
   -0.8926  -33.8067   36.5484 H   0  0  0  0  0  0  0  0  0  0  0  0
   -1.7496  -34.8421   37.4759 H   0  0  0  0  0  0  0  0  0  0  0  0
   -0.9396  -33.2963   32.2709 H   0  0  0  0  0  0  0  0  0  0  0  0
   -2.2564  -32.3305   32.2775 H   0  0  0  0  0  0  0  0  0  0  0  0
    0.1418  -35.8466   36.3771 H   0  0  0  0  0  0  0  0  0  0  0  0
    0.3680  -31.4644   33.0103 H   0  0  0  0  0  0  0  0  0  0  0  0
   -3.3860  -34.9801   35.8955 H   0  0  0  0  0  0  0  0  0  0  0  0
   -3.1211  -31.4549   34.3737 H   0  0  0  0  0  0  0  0  0  0  0  0
    0.7484  -29.2324   32.5184 H   0  0  0  0  0  0  0  0  0  0  0  0
   -0.6556  -32.9145   34.5841 H   0  0  0  0  0  0  0  0  0  0  0  0
  1 18  2  0  0  0  0
  2 19  1  0  0  0  0
  3 20  1  0  0  0  0
  4 26  1  0  0  0  0
  5  8  1  0  0  0  0
  5 18  1  0  0  0  0
  6 27  1  0  0  0  0
  7 28  1  0  0  0  0
  8 21  1  0  0  0  0
  9 14  1  0  0  0  0
  9 19  1  0  0  0  0
 10 11  1  0  0  0  0
 10 22  1  0  0  0  0
 11 23  1  0  0  0  0
 12 13  1  0  0  0  0
 12 24  1  0  0  0  0
 13 26  1  0  0  0  0
 14 27  1  0  0  0  0
 15 18  1  0  0  0  0
 15 21  2  0  0  0  0
 16 19  1  0  0  0  0
 16 22  1  0  0  0  0
 17 20  1  0  0  0  0
 17 25  1  0  0  0  0
 20 28  1  0  0  0  0
 21 24  1  0  0  0  0
 22 27  1  0  0  0  0
 23 25  1  0  0  0  0
 23 26  1  0  0  0  0
 24 28  1  0  0  0  0
 25 27  1  0  0  0  0
 26 28  1  0  0  0  0
  2 29  1  0  0  0  0
  3 30  1  0  0  0  0
  4 31  1  0  0  0  0
  6 32  1  0  0  0  0
  6 33  1  0  0  0  0
  6 34  1  0  0  0  0
  7 35  1  0  0  0  0
  7 36  1  0  0  0  0
  7 37  1  0  0  0  0
  8 38  1  0  0  0  0
  8 39  1  0  0  0  0
  9 40  1  0  0  0  0
  9 41  1  0  0  0  0
 10 42  1  0  0  0  0
 10 43  1  0  0  0  0
 11 44  1  0  0  0  0
 11 45  1  0  0  0  0
 12 46  1  0  0  0  0
 12 47  1  0  0  0  0
 13 48  1  0  0  0  0
 13 49  1  0  0  0  0
 14 50  1  0  0  0  0
 14 51  1  0  0  0  0
 15 52  1  0  0  0  0
 16 53  1  0  0  0  0
 16 54  1  0  0  0  0
 17 55  1  0  0  0  0
 17 56  1  0  0  0  0
 19 57  1  0  0  0  0
 20 58  1  0  0  0  0
 22 59  1  0  0  0  0
 23 60  1  0  0  0  0
 24 61  1  0  0  0  0
 25 62  1  0  0  0  0
M  END
> <pdb_id>
4J8T

> <uniprot_id>
Q9HYR3

> <usmiles>
O=C1OCC(=C1)[C@@H]2[C@@]3([C@@](O)([C@H]4[C@@H]([C@@]5([C@@H](C[C@@H](O)CC5)CC4)C)C[C@H]3O)CC2)C

$$$$
DOO_A_301
          07202407153D 1   1.00000     0.00000     0
            
 55 60  0  0  0  0            999 V2000
   10.1500   -1.2810   10.2870 F   0  0  0  0  0  0  0  0  0  0  0  0
   11.3950   -7.7090   16.5000 O   0  0  0  0  0  0  0  0  0  0  0  0
   14.3640   -3.4510   10.9630 N   0  0  0  0  0  0  0  0  0  0  0  0
    9.2840  -10.2120   17.9940 N   0  0  0  0  0  0  0  0  0  0  0  0
    8.7230   -8.0970   18.8710 N   0  0  0  0  0  0  0  0  0  0  0  0
    8.5150   -2.1670   16.7220 N   0  0  0  0  0  0  0  0  0  0  0  0
   12.2490   -6.3760   14.9000 N   0  0  0  0  0  0  0  0  0  0  0  0
    9.9670   -6.1370   15.5200 N   0  0  0  0  0  0  0  0  0  0  0  0
   13.0250   -4.9380   13.1260 N   0  0  0  0  0  0  0  0  0  0  0  0
    8.4540   -4.6020   14.7160 N   0  0  0  0  0  0  0  0  0  0  0  0
   15.0220   -2.8670    9.8120 C   0  0  0  0  0  0  0  0  0  0  0  0
    7.4900  -10.0690   19.6860 C   0  0  0  0  0  0  0  0  0  0  0  0
    8.2600   -2.6500   18.0630 C   0  0  0  0  0  0  0  0  0  0  0  0
   10.2150   -9.6730   17.1950 C   0  0  0  0  0  0  0  0  0  0  0  0
    9.6600   -7.5190   18.1110 C   0  0  0  0  0  0  0  0  0  0  0  0
    8.2430   -3.1960   14.4240 C   0  0  0  0  0  0  0  0  0  0  0  0
    7.3740   -5.1940   15.5000 C   0  0  0  0  0  0  0  0  0  0  0  0
    7.7090   -4.0470   17.8050 C   0  0  0  0  0  0  0  0  0  0  0  0
   12.2350   -2.2990   10.6100 C   0  0  0  0  0  0  0  0  0  0  0  0
   10.2770   -2.8850   12.0080 C   0  0  0  0  0  0  0  0  0  0  0  0
   11.1850   -6.6990   15.6350 C   0  0  0  0  0  0  0  0  0  0  0  0
    8.5410   -9.4330   18.8110 C   0  0  0  0  0  0  0  0  0  0  0  0
   10.8940   -2.1540   10.9870 C   0  0  0  0  0  0  0  0  0  0  0  0
   12.1180   -5.4330   13.9720 C   0  0  0  0  0  0  0  0  0  0  0  0
   10.4190   -8.3010   17.2530 C   0  0  0  0  0  0  0  0  0  0  0  0
    9.7050   -5.1710   14.6220 C   0  0  0  0  0  0  0  0  0  0  0  0
   13.0680   -3.2140   11.2470 C   0  0  0  0  0  0  0  0  0  0  0  0
    7.6020   -2.7590   15.7470 C   0  0  1  0  0  0  0  0  0  0  0  0
   12.4810   -4.0040   12.3220 C   0  0  0  0  0  0  0  0  0  0  0  0
    7.0490   -4.0050   16.4180 C   0  0  1  0  0  0  0  0  0  0  0  0
   11.0740   -3.8030   12.6800 C   0  0  0  0  0  0  0  0  0  0  0  0
   10.8410   -4.7380   13.7790 C   0  0  0  0  0  0  0  0  0  0  0  0
   14.8892   -4.0502   11.5672 H   0  0  0  0  0  0  0  0  0  0  0  0
    9.4540   -2.3988   16.4680 H   0  0  0  0  0  0  0  0  0  0  0  0
   13.9829   -5.2234   13.0936 H   0  0  0  0  0  0  0  0  0  0  0  0
   15.9752   -3.1682    9.7845 H   0  0  0  0  0  0  0  0  0  0  0  0
   14.5557   -3.1599    8.9773 H   0  0  0  0  0  0  0  0  0  0  0  0
   14.9893   -1.8698    9.8797 H   0  0  0  0  0  0  0  0  0  0  0  0
    7.0329   -9.3619   20.2255 H   0  0  0  0  0  0  0  0  0  0  0  0
    6.8179  -10.5375   19.1127 H   0  0  0  0  0  0  0  0  0  0  0  0
    7.9224  -10.7293   20.3000 H   0  0  0  0  0  0  0  0  0  0  0  0
    7.5886   -2.0769   18.5329 H   0  0  0  0  0  0  0  0  0  0  0  0
    9.1021   -2.6864   18.6011 H   0  0  0  0  0  0  0  0  0  0  0  0
   10.7495  -10.2447   16.5725 H   0  0  0  0  0  0  0  0  0  0  0  0
    9.8118   -6.5319   18.1611 H   0  0  0  0  0  0  0  0  0  0  0  0
    7.6256   -3.0642   13.6484 H   0  0  0  0  0  0  0  0  0  0  0  0
    9.1037   -2.7175   14.2500 H   0  0  0  0  0  0  0  0  0  0  0  0
    7.6825   -5.9920   16.0177 H   0  0  0  0  0  0  0  0  0  0  0  0
    6.5939   -5.4486   14.9285 H   0  0  0  0  0  0  0  0  0  0  0  0
    7.0333   -4.2863   18.5022 H   0  0  0  0  0  0  0  0  0  0  0  0
    8.4502   -4.7182   17.8149 H   0  0  0  0  0  0  0  0  0  0  0  0
   12.6006   -1.7348    9.8697 H   0  0  0  0  0  0  0  0  0  0  0  0
    9.3136   -2.7536   12.2415 H   0  0  0  0  0  0  0  0  0  0  0  0
    6.8545   -2.1214   15.5605 H   0  0  0  0  0  0  0  0  0  0  0  0
    6.0578   -3.9201   16.5199 H   0  0  0  0  0  0  0  0  0  0  0  0
  1 23  1  0  0  0  0
  2 21  1  0  0  0  0
  2 25  1  0  0  0  0
  3 11  1  0  0  0  0
  3 27  1  0  0  0  0
  4 14  2  0  0  0  0
  4 22  1  0  0  0  0
  5 15  1  0  0  0  0
  5 22  2  0  0  0  0
  6 13  1  0  0  0  0
  6 28  1  0  0  0  0
  7 21  1  0  0  0  0
  7 24  2  0  0  0  0
  8 21  2  0  0  0  0
  8 26  1  0  0  0  0
  9 24  1  0  0  0  0
  9 29  1  0  0  0  0
 10 16  1  0  0  0  0
 10 17  1  0  0  0  0
 10 26  1  0  0  0  0
 12 22  1  0  0  0  0
 13 18  1  0  0  0  0
 14 25  1  0  0  0  0
 15 25  2  0  0  0  0
 16 28  1  0  0  0  0
 17 30  1  0  0  0  0
 18 30  1  0  0  0  0
 19 23  1  0  0  0  0
 19 27  2  0  0  0  0
 20 23  2  0  0  0  0
 20 31  1  0  0  0  0
 24 32  1  0  0  0  0
 26 32  2  0  0  0  0
 27 29  1  0  0  0  0
 28 30  1  0  0  0  0
 29 31  2  0  0  0  0
 31 32  1  0  0  0  0
  3 33  1  0  0  0  0
  6 34  1  0  0  0  0
  9 35  1  0  0  0  0
 11 36  1  0  0  0  0
 11 37  1  0  0  0  0
 11 38  1  0  0  0  0
 12 39  1  0  0  0  0
 12 40  1  0  0  0  0
 12 41  1  0  0  0  0
 13 42  1  0  0  0  0
 13 43  1  0  0  0  0
 14 44  1  0  0  0  0
 15 45  1  0  0  0  0
 16 46  1  0  0  0  0
 16 47  1  0  0  0  0
 17 48  1  0  0  0  0
 17 49  1  0  0  0  0
 18 50  1  0  0  0  0
 18 51  1  0  0  0  0
 19 52  1  0  0  0  0
 20 53  1  0  0  0  0
 28 54  1  0  0  0  0
 30 55  1  0  0  0  0
M  END
> <pdb_id>
4K4O

> <uniprot_id>
Q839Z1

> <usmiles>
Fc1cc(NC)c2Nc3nc(Oc4cnc(nc4)C)nc(N5C[C@@H]6NCC[C@@H]6C5)c3c2c1

$$$$
DOO_A_303
          07202407183D 1   1.00000     0.00000     0
            
 55 60  0  0  0  0            999 V2000
   24.6700   20.3480   -2.3660 F   0  0  0  0  0  0  0  0  0  0  0  0
   32.6970   17.5810   -5.3440 O   0  0  0  0  0  0  0  0  0  0  0  0
   27.0160   16.5900   -0.5420 N   0  0  0  0  0  0  0  0  0  0  0  0
   33.6470   18.6590   -8.5760 N   0  0  0  0  0  0  0  0  0  0  0  0
   35.3630   19.3050   -7.0750 N   0  0  0  0  0  0  0  0  0  0  0  0
   27.2530   19.0740   -8.2450 N   0  0  0  0  0  0  0  0  0  0  0  0
   30.9790   17.3080   -3.9910 N   0  0  0  0  0  0  0  0  0  0  0  0
   30.8790   19.0510   -5.6150 N   0  0  0  0  0  0  0  0  0  0  0  0
   29.0880   17.1290   -2.5640 N   0  0  0  0  0  0  0  0  0  0  0  0
   29.1120   20.4740   -6.0120 N   0  0  0  0  0  0  0  0  0  0  0  0
   26.1190   16.4430    0.5960 C   0  0  0  0  0  0  0  0  0  0  0  0
   35.5730   19.8190   -9.5090 C   0  0  0  0  0  0  0  0  0  0  0  0
   28.1680   18.6730   -9.3110 C   0  0  0  0  0  0  0  0  0  0  0  0
   32.9270   18.1310   -7.5900 C   0  0  0  0  0  0  0  0  0  0  0  0
   34.6730   18.7720   -6.0410 C   0  0  0  0  0  0  0  0  0  0  0  0
   27.6590   20.5240   -6.1820 C   0  0  0  0  0  0  0  0  0  0  0  0
   29.8720   21.1190   -7.0800 C   0  0  0  0  0  0  0  0  0  0  0  0
   29.4200   19.5270   -9.0650 C   0  0  0  0  0  0  0  0  0  0  0  0
   25.8030   18.4880   -1.4880 C   0  0  0  0  0  0  0  0  0  0  0  0
   26.7490   19.7610   -3.3610 C   0  0  0  0  0  0  0  0  0  0  0  0
   31.4800   18.0120   -4.9970 C   0  0  0  0  0  0  0  0  0  0  0  0
   34.8350   19.2440   -8.3320 C   0  0  0  0  0  0  0  0  0  0  0  0
   25.7340   19.5210   -2.4250 C   0  0  0  0  0  0  0  0  0  0  0  0
   29.8000   17.6620   -3.5260 C   0  0  0  0  0  0  0  0  0  0  0  0
   33.4400   18.1890   -6.3070 C   0  0  0  0  0  0  0  0  0  0  0  0
   29.6850   19.5240   -5.2200 C   0  0  0  0  0  0  0  0  0  0  0  0
   26.8760   17.6060   -1.4090 C   0  0  0  0  0  0  0  0  0  0  0  0
   27.5730   20.3990   -7.7100 C   0  0  1  0  0  0  0  0  0  0  0  0
   27.9490   17.8120   -2.3710 C   0  0  0  0  0  0  0  0  0  0  0  0
   28.9580   20.7400   -8.2570 C   0  0  1  0  0  0  0  0  0  0  0  0
   27.8220   18.8930   -3.3440 C   0  0  0  0  0  0  0  0  0  0  0  0
   29.0610   18.7800   -4.1120 C   0  0  0  0  0  0  0  0  0  0  0  0
   27.7484   15.9232   -0.6801 H   0  0  0  0  0  0  0  0  0  0  0  0
   27.3095   18.4052   -7.5037 H   0  0  0  0  0  0  0  0  0  0  0  0
   29.3578   16.3197   -2.0422 H   0  0  0  0  0  0  0  0  0  0  0  0
   26.3788   15.6337    1.1229 H   0  0  0  0  0  0  0  0  0  0  0  0
   26.1827   17.2540    1.1776 H   0  0  0  0  0  0  0  0  0  0  0  0
   25.1796   16.3403    0.2689 H   0  0  0  0  0  0  0  0  0  0  0  0
   36.4340   20.2216   -9.1982 H   0  0  0  0  0  0  0  0  0  0  0  0
   35.7638   19.0931  -10.1698 H   0  0  0  0  0  0  0  0  0  0  0  0
   35.0120   20.5247   -9.9418 H   0  0  0  0  0  0  0  0  0  0  0  0
   27.7749   18.8687  -10.2094 H   0  0  0  0  0  0  0  0  0  0  0  0
   28.3838   17.6987   -9.2466 H   0  0  0  0  0  0  0  0  0  0  0  0
   32.0408   17.7046   -7.7711 H   0  0  0  0  0  0  0  0  0  0  0  0
   35.0399   18.7968   -5.1111 H   0  0  0  0  0  0  0  0  0  0  0  0
   27.2757   21.3886   -5.8570 H   0  0  0  0  0  0  0  0  0  0  0  0
   27.2037   19.7629   -5.7200 H   0  0  0  0  0  0  0  0  0  0  0  0
   30.7905   20.7353   -7.1755 H   0  0  0  0  0  0  0  0  0  0  0  0
   29.9358   22.1090   -6.9541 H   0  0  0  0  0  0  0  0  0  0  0  0
   29.8157   19.8206   -9.9352 H   0  0  0  0  0  0  0  0  0  0  0  0
   30.0994   19.0053   -8.5490 H   0  0  0  0  0  0  0  0  0  0  0  0
   25.0461   18.3771   -0.8439 H   0  0  0  0  0  0  0  0  0  0  0  0
   26.6985   20.5219   -4.0079 H   0  0  0  0  0  0  0  0  0  0  0  0
   26.9101   21.0624   -8.0572 H   0  0  0  0  0  0  0  0  0  0  0  0
   28.8786   21.5257   -8.8705 H   0  0  0  0  0  0  0  0  0  0  0  0
  1 23  1  0  0  0  0
  2 21  1  0  0  0  0
  2 25  1  0  0  0  0
  3 11  1  0  0  0  0
  3 27  1  0  0  0  0
  4 14  2  0  0  0  0
  4 22  1  0  0  0  0
  5 15  1  0  0  0  0
  5 22  2  0  0  0  0
  6 13  1  0  0  0  0
  6 28  1  0  0  0  0
  7 21  1  0  0  0  0
  7 24  2  0  0  0  0
  8 21  2  0  0  0  0
  8 26  1  0  0  0  0
  9 24  1  0  0  0  0
  9 29  1  0  0  0  0
 10 16  1  0  0  0  0
 10 17  1  0  0  0  0
 10 26  1  0  0  0  0
 12 22  1  0  0  0  0
 13 18  1  0  0  0  0
 14 25  1  0  0  0  0
 15 25  2  0  0  0  0
 16 28  1  0  0  0  0
 17 30  1  0  0  0  0
 18 30  1  0  0  0  0
 19 23  1  0  0  0  0
 19 27  2  0  0  0  0
 20 23  2  0  0  0  0
 20 31  1  0  0  0  0
 24 32  1  0  0  0  0
 26 32  2  0  0  0  0
 27 29  1  0  0  0  0
 28 30  1  0  0  0  0
 29 31  2  0  0  0  0
 31 32  1  0  0  0  0
  3 33  1  0  0  0  0
  6 34  1  0  0  0  0
  9 35  1  0  0  0  0
 11 36  1  0  0  0  0
 11 37  1  0  0  0  0
 11 38  1  0  0  0  0
 12 39  1  0  0  0  0
 12 40  1  0  0  0  0
 12 41  1  0  0  0  0
 13 42  1  0  0  0  0
 13 43  1  0  0  0  0
 14 44  1  0  0  0  0
 15 45  1  0  0  0  0
 16 46  1  0  0  0  0
 16 47  1  0  0  0  0
 17 48  1  0  0  0  0
 17 49  1  0  0  0  0
 18 50  1  0  0  0  0
 18 51  1  0  0  0  0
 19 52  1  0  0  0  0
 20 53  1  0  0  0  0
 28 54  1  0  0  0  0
 30 55  1  0  0  0  0
M  END
> <pdb_id>
4KFG

> <uniprot_id>
P0AES6

> <usmiles>
Fc1cc(NC)c2Nc3nc(Oc4cnc(nc4)C)nc(N5C[C@@H]6NCC[C@@H]6C5)c3c2c1

$$$$
DOO_A_403
          07202407233D 1   1.00000     0.00000     0
            
 55 60  0  0  0  0            999 V2000
   14.6510   20.4770   -1.9640 F   0  0  0  0  0  0  0  0  0  0  0  0
   15.0000   28.9130    1.2890 O   0  0  0  0  0  0  0  0  0  0  0  0
   10.7010   23.0570   -1.5730 N   0  0  0  0  0  0  0  0  0  0  0  0
   17.7470   31.2570    1.1910 N   0  0  0  0  0  0  0  0  0  0  0  0
   18.2070   29.6230    2.8220 N   0  0  0  0  0  0  0  0  0  0  0  0
   17.9240   23.1010    2.7890 N   0  0  0  0  0  0  0  0  0  0  0  0
   13.6870   27.2010    0.4720 N   0  0  0  0  0  0  0  0  0  0  0  0
   16.0490   26.9170    0.7070 N   0  0  0  0  0  0  0  0  0  0  0  0
   12.4930   25.2460   -0.4510 N   0  0  0  0  0  0  0  0  0  0  0  0
   17.3160   24.9360    0.2690 N   0  0  0  0  0  0  0  0  0  0  0  0
    9.8490   21.9120   -1.7940 C   0  0  0  0  0  0  0  0  0  0  0  0
   19.8700   31.4130    2.4690 C   0  0  0  0  0  0  0  0  0  0  0  0
   18.4050   24.0670    3.7650 C   0  0  0  0  0  0  0  0  0  0  0  0
   16.5850   30.6730    0.8800 C   0  0  0  0  0  0  0  0  0  0  0  0
   17.0490   29.0170    2.5600 C   0  0  0  0  0  0  0  0  0  0  0  0
   17.3610   23.4830    0.3820 C   0  0  0  0  0  0  0  0  0  0  0  0
   18.5880   25.6040    0.5330 C   0  0  0  0  0  0  0  0  0  0  0  0
   19.1610   25.1240    2.9530 C   0  0  0  0  0  0  0  0  0  0  0  0
   12.7170   21.7350   -1.7720 C   0  0  0  0  0  0  0  0  0  0  0  0
   14.9010   22.6610   -1.0940 C   0  0  0  0  0  0  0  0  0  0  0  0
   14.9200   27.6560    0.8140 C   0  0  0  0  0  0  0  0  0  0  0  0
   18.5590   30.7400    2.1490 C   0  0  0  0  0  0  0  0  0  0  0  0
   14.0930   21.6330   -1.6050 C   0  0  0  0  0  0  0  0  0  0  0  0
   13.5590   25.9500   -0.0160 C   0  0  0  0  0  0  0  0  0  0  0  0
   16.2080   29.5250    1.5680 C   0  0  0  0  0  0  0  0  0  0  0  0
   16.0870   25.6400    0.2170 C   0  0  0  0  0  0  0  0  0  0  0  0
   12.0410   22.8900   -1.4130 C   0  0  0  0  0  0  0  0  0  0  0  0
   18.4460   23.3100    1.4430 C   0  0  1  0  0  0  0  0  0  0  0  0
   12.8240   23.9950   -0.8670 C   0  0  0  0  0  0  0  0  0  0  0  0
   19.2250   24.6190    1.5070 C   0  0  1  0  0  0  0  0  0  0  0  0
   14.2810   23.8330   -0.7260 C   0  0  0  0  0  0  0  0  0  0  0  0
   14.7590   25.0880   -0.1530 C   0  0  0  0  0  0  0  0  0  0  0  0
   10.3047   23.9744   -1.5376 H   0  0  0  0  0  0  0  0  0  0  0  0
   16.9264   23.1605    2.7525 H   0  0  0  0  0  0  0  0  0  0  0  0
   11.5601   25.6059   -0.4657 H   0  0  0  0  0  0  0  0  0  0  0  0
    8.9010   22.2154   -1.8895 H   0  0  0  0  0  0  0  0  0  0  0  0
   10.1339   21.4407   -2.6287 H   0  0  0  0  0  0  0  0  0  0  0  0
    9.9222   21.2870   -1.0168 H   0  0  0  0  0  0  0  0  0  0  0  0
   20.3378   30.9048    3.1921 H   0  0  0  0  0  0  0  0  0  0  0  0
   20.4436   31.4318    1.6501 H   0  0  0  0  0  0  0  0  0  0  0  0
   19.6979   32.3487    2.7770 H   0  0  0  0  0  0  0  0  0  0  0  0
   19.0173   23.6260    4.4213 H   0  0  0  0  0  0  0  0  0  0  0  0
   17.6376   24.4833    4.2527 H   0  0  0  0  0  0  0  0  0  0  0  0
   15.9981   31.0547    0.1660 H   0  0  0  0  0  0  0  0  0  0  0  0
   16.7833   28.2006    3.0727 H   0  0  0  0  0  0  0  0  0  0  0  0
   17.6213   23.0547   -0.4834 H   0  0  0  0  0  0  0  0  0  0  0  0
   16.4848   23.1106    0.6879 H   0  0  0  0  0  0  0  0  0  0  0  0
   18.4531   26.5019    0.9520 H   0  0  0  0  0  0  0  0  0  0  0  0
   19.1323   25.7032   -0.3000 H   0  0  0  0  0  0  0  0  0  0  0  0
   20.0851   25.2404    3.3171 H   0  0  0  0  0  0  0  0  0  0  0  0
   18.6755   25.9975    2.9903 H   0  0  0  0  0  0  0  0  0  0  0  0
   12.2081   20.9647   -2.1563 H   0  0  0  0  0  0  0  0  0  0  0  0
   15.8900   22.5459   -1.0009 H   0  0  0  0  0  0  0  0  0  0  0  0
   19.0563   22.5591    1.1909 H   0  0  0  0  0  0  0  0  0  0  0  0
   20.1773   24.4574    1.2483 H   0  0  0  0  0  0  0  0  0  0  0  0
  1 23  1  0  0  0  0
  2 21  1  0  0  0  0
  2 25  1  0  0  0  0
  3 11  1  0  0  0  0
  3 27  1  0  0  0  0
  4 14  2  0  0  0  0
  4 22  1  0  0  0  0
  5 15  1  0  0  0  0
  5 22  2  0  0  0  0
  6 13  1  0  0  0  0
  6 28  1  0  0  0  0
  7 21  1  0  0  0  0
  7 24  2  0  0  0  0
  8 21  2  0  0  0  0
  8 26  1  0  0  0  0
  9 24  1  0  0  0  0
  9 29  1  0  0  0  0
 10 16  1  0  0  0  0
 10 17  1  0  0  0  0
 10 26  1  0  0  0  0
 12 22  1  0  0  0  0
 13 18  1  0  0  0  0
 14 25  1  0  0  0  0
 15 25  2  0  0  0  0
 16 28  1  0  0  0  0
 17 30  1  0  0  0  0
 18 30  1  0  0  0  0
 19 23  1  0  0  0  0
 19 27  2  0  0  0  0
 20 23  2  0  0  0  0
 20 31  1  0  0  0  0
 24 32  1  0  0  0  0
 26 32  2  0  0  0  0
 27 29  1  0  0  0  0
 28 30  1  0  0  0  0
 29 31  2  0  0  0  0
 31 32  1  0  0  0  0
  3 33  1  0  0  0  0
  6 34  1  0  0  0  0
  9 35  1  0  0  0  0
 11 36  1  0  0  0  0
 11 37  1  0  0  0  0
 11 38  1  0  0  0  0
 12 39  1  0  0  0  0
 12 40  1  0  0  0  0
 12 41  1  0  0  0  0
 13 42  1  0  0  0  0
 13 43  1  0  0  0  0
 14 44  1  0  0  0  0
 15 45  1  0  0  0  0
 16 46  1  0  0  0  0
 16 47  1  0  0  0  0
 17 48  1  0  0  0  0
 17 49  1  0  0  0  0
 18 50  1  0  0  0  0
 18 51  1  0  0  0  0
 19 52  1  0  0  0  0
 20 53  1  0  0  0  0
 28 54  1  0  0  0  0
 30 55  1  0  0  0  0
M  END
> <pdb_id>
4KQV

> <uniprot_id>
Q2A1P5

> <usmiles>
Fc1cc(NC)c2Nc3nc(Oc4cnc(nc4)C)nc(N5C[C@@H]6NCC[C@@H]6C5)c3c2c1

$$$$
DP8_A_611
          07202400553D 1   1.00000     0.00000     0
            
 38 39  0  0  0  0            999 V2000
   30.2204    0.8001   -0.8735 O   0  0  0  0  0  0  0  0  0  0  0  0
   25.2680   -0.4590    1.3907 O   0  0  0  0  0  0  0  0  0  0  0  0
   32.5882    2.0239   -0.8809 N   0  0  0  0  0  0  0  0  0  0  0  0
   32.1568    3.0602    0.0077 C   0  0  0  0  0  0  0  0  0  0  0  0
   33.9696    2.2994   -1.2164 C   0  0  0  0  0  0  0  0  0  0  0  0
   30.3200    1.8272   -1.8453 C   0  0  0  0  0  0  0  0  0  0  0  0
   31.8042    2.0059   -2.0971 C   0  0  0  0  0  0  0  0  0  0  0  0
   23.5114    2.0200    4.2623 C   0  0  0  0  0  0  0  0  0  0  0  0
   23.8246    2.5454    3.0203 C   0  0  0  0  0  0  0  0  0  0  0  0
   23.7926    0.6858    4.5451 C   0  0  0  0  0  0  0  0  0  0  0  0
   24.4286    1.7297    2.0527 C   0  0  0  0  0  0  0  0  0  0  0  0
   24.3870   -0.1208    3.5868 C   0  0  0  0  0  0  0  0  0  0  0  0
   28.8719    0.0411    0.9762 C   0  0  0  0  0  0  0  0  0  0  0  0
   27.7706    0.6456   -1.0844 C   0  0  0  0  0  0  0  0  0  0  0  0
   27.6708   -0.2503    1.5495 C   0  0  0  0  0  0  0  0  0  0  0  0
   26.5645    0.3332   -0.5116 C   0  0  0  0  0  0  0  0  0  0  0  0
   28.9271    0.5061   -0.3362 C   0  0  0  0  0  0  0  0  0  0  0  0
   24.7065    0.3977    2.3486 C   0  0  0  0  0  0  0  0  0  0  0  0
   26.5167   -0.0997    0.8101 C   0  0  0  0  0  0  0  0  0  0  0  0
   31.2027    2.9042    0.2634 H   0  0  0  0  0  0  0  0  0  0  0  0
   32.7273    3.0539    0.8290 H   0  0  0  0  0  0  0  0  0  0  0  0
   32.2390    3.9462   -0.4486 H   0  0  0  0  0  0  0  0  0  0  0  0
   34.3086    1.5939   -1.8387 H   0  0  0  0  0  0  0  0  0  0  0  0
   34.0329    3.1935   -1.6599 H   0  0  0  0  0  0  0  0  0  0  0  0
   34.5212    2.3012   -0.3823 H   0  0  0  0  0  0  0  0  0  0  0  0
   29.9198    2.6757   -1.4991 H   0  0  0  0  0  0  0  0  0  0  0  0
   29.8529    1.5577   -2.6874 H   0  0  0  0  0  0  0  0  0  0  0  0
   32.1230    1.2509   -2.6702 H   0  0  0  0  0  0  0  0  0  0  0  0
   31.9434    2.8714   -2.5783 H   0  0  0  0  0  0  0  0  0  0  0  0
   23.0832    2.5986    4.9564 H   0  0  0  0  0  0  0  0  0  0  0  0
   23.6211    3.5025    2.8141 H   0  0  0  0  0  0  0  0  0  0  0  0
   23.5649    0.3081    5.4426 H   0  0  0  0  0  0  0  0  0  0  0  0
   24.6588    2.1030    1.1539 H   0  0  0  0  0  0  0  0  0  0  0  0
   24.5844   -1.0792    3.7932 H   0  0  0  0  0  0  0  0  0  0  0  0
   29.7161   -0.0791    1.4986 H   0  0  0  0  0  0  0  0  0  0  0  0
   27.8143    0.9697   -2.0294 H   0  0  0  0  0  0  0  0  0  0  0  0
   27.6266   -0.5698    2.4960 H   0  0  0  0  0  0  0  0  0  0  0  0
   25.7211    0.4163   -1.0425 H   0  0  0  0  0  0  0  0  0  0  0  0
  1  6  1  0  0  0  0
  1 17  1  0  0  0  0
  2 18  1  0  0  0  0
  2 19  1  0  0  0  0
  3  4  1  0  0  0  0
  3  5  1  0  0  0  0
  3  7  1  0  0  0  0
  6  7  1  0  0  0  0
  8  9  2  0  0  0  0
  8 10  1  0  0  0  0
  9 11  1  0  0  0  0
 10 12  2  0  0  0  0
 11 18  2  0  0  0  0
 12 18  1  0  0  0  0
 13 15  2  0  0  0  0
 13 17  1  0  0  0  0
 14 16  1  0  0  0  0
 14 17  2  0  0  0  0
 15 19  1  0  0  0  0
 16 19  2  0  0  0  0
  4 20  1  0  0  0  0
  4 21  1  0  0  0  0
  4 22  1  0  0  0  0
  5 23  1  0  0  0  0
  5 24  1  0  0  0  0
  5 25  1  0  0  0  0
  6 26  1  0  0  0  0
  6 27  1  0  0  0  0
  7 28  1  0  0  0  0
  7 29  1  0  0  0  0
  8 30  1  0  0  0  0
  9 31  1  0  0  0  0
 10 32  1  0  0  0  0
 11 33  1  0  0  0  0
 12 34  1  0  0  0  0
 13 35  1  0  0  0  0
 14 36  1  0  0  0  0
 15 37  1  0  0  0  0
 16 38  1  0  0  0  0
M  END
> <pdb_id>
5AEN

> <uniprot_id>
P09960

> <usmiles>
O(c1ccc(OCCN(C)C)cc1)c2ccccc2

$$$$
DPN_A_506
          07202409323D 1   1.00000     0.00000     0
            
 23 23  0  0  0  0            999 V2000
  -83.3605   61.8103  -16.3084 O   0  0  0  0  0  0  0  0  0  0  0  0
  -83.4156   60.0664  -14.9765 O   0  0  0  0  0  0  0  0  0  0  0  0
  -81.1354   60.6883  -13.8172 N   0  0  0  0  0  0  0  0  0  0  0  0
  -83.4396   66.4586  -15.2900 C   0  0  0  0  0  0  0  0  0  0  0  0
  -84.4382   65.6154  -14.8187 C   0  0  0  0  0  0  0  0  0  0  0  0
  -82.1050   66.0895  -15.1686 C   0  0  0  0  0  0  0  0  0  0  0  0
  -84.1032   64.4041  -14.2259 C   0  0  0  0  0  0  0  0  0  0  0  0
  -81.7710   64.8792  -14.5737 C   0  0  0  0  0  0  0  0  0  0  0  0
  -82.4017   62.7195  -13.4569 C   0  0  0  0  0  0  0  0  0  0  0  0
  -82.9466   61.1734  -15.3164 C   0  0  0  0  0  0  0  0  0  0  0  0
  -81.8357   61.7593  -14.4962 C   0  0  2  0  0  0  0  0  0  0  0  0
  -82.7696   64.0339  -14.1064 C   0  0  0  0  0  0  0  0  0  0  0  0
  -82.9533   62.6935  -16.5410 H   0  0  0  0  0  0  0  0  0  0  0  0
  -80.7609   60.0537  -14.4932 H   0  0  0  0  0  0  0  0  0  0  0  0
  -80.3905   61.0710  -13.2707 H   0  0  0  0  0  0  0  0  0  0  0  0
  -83.6808   67.3304  -15.7164 H   0  0  0  0  0  0  0  0  0  0  0  0
  -85.3984   65.8804  -14.9061 H   0  0  0  0  0  0  0  0  0  0  0  0
  -81.3856   66.6949  -15.5091 H   0  0  0  0  0  0  0  0  0  0  0  0
  -84.8224   63.7985  -13.8852 H   0  0  0  0  0  0  0  0  0  0  0  0
  -80.8106   64.6161  -14.4819 H   0  0  0  0  0  0  0  0  0  0  0  0
  -81.7149   62.8819  -12.7485 H   0  0  0  0  0  0  0  0  0  0  0  0
  -83.2178   62.3154  -13.0437 H   0  0  0  0  0  0  0  0  0  0  0  0
  -81.2005   62.2488  -15.0937 H   0  0  0  0  0  0  0  0  0  0  0  0
  1 10  1  0  0  0  0
  2 10  2  0  0  0  0
  3 11  1  0  0  0  0
  4  5  2  0  0  0  0
  4  6  1  0  0  0  0
  5  7  1  0  0  0  0
  6  8  2  0  0  0  0
  7 12  2  0  0  0  0
  8 12  1  0  0  0  0
  9 11  1  0  0  0  0
  9 12  1  0  0  0  0
 10 11  1  0  0  0  0
  1 13  1  0  0  0  0
  3 14  1  0  0  0  0
  3 15  1  0  0  0  0
  4 16  1  0  0  0  0
  5 17  1  0  0  0  0
  6 18  1  0  0  0  0
  7 19  1  0  0  0  0
  8 20  1  0  0  0  0
  9 21  1  0  0  0  0
  9 22  1  0  0  0  0
 11 23  1  0  0  0  0
M  END
> <pdb_id>
5E7Z

> <uniprot_id>
nan

> <usmiles>
O=C(O)[C@H](N)Cc1ccccc1

$$$$
DPN_B_509
          07202400323D 1   1.00000     0.00000     0
            
 23 23  0  0  0  0            999 V2000
   88.9178  -72.9188   13.4311 O   0  0  0  0  0  0  0  0  0  0  0  0
   89.8389  -73.8834   11.7692 O   0  0  0  0  0  0  0  0  0  0  0  0
   87.8777  -75.8049   11.7370 N   0  0  0  0  0  0  0  0  0  0  0  0
   84.4328  -70.6024   13.3951 C   0  0  0  0  0  0  0  0  0  0  0  0
   85.4152  -70.2371   12.4824 C   0  0  0  0  0  0  0  0  0  0  0  0
   84.1807  -71.9505   13.6242 C   0  0  0  0  0  0  0  0  0  0  0  0
   86.1593  -71.2096   11.8116 C   0  0  0  0  0  0  0  0  0  0  0  0
   84.9175  -72.9226   12.9404 C   0  0  0  0  0  0  0  0  0  0  0  0
   86.7260  -73.5983   11.2768 C   0  0  0  0  0  0  0  0  0  0  0  0
   88.8509  -73.7058   12.4927 C   0  0  0  0  0  0  0  0  0  0  0  0
   87.5752  -74.4299   12.2425 C   0  0  2  0  0  0  0  0  0  0  0  0
   85.9204  -72.5547   12.0345 C   0  0  0  0  0  0  0  0  0  0  0  0
   88.1219  -72.7721   14.0185 H   0  0  0  0  0  0  0  0  0  0  0  0
   88.4323  -76.2933   12.4107 H   0  0  0  0  0  0  0  0  0  0  0  0
   87.0223  -76.3007   11.5870 H   0  0  0  0  0  0  0  0  0  0  0  0
   83.9119  -69.9018   13.8827 H   0  0  0  0  0  0  0  0  0  0  0  0
   85.5908  -69.2688   12.3045 H   0  0  0  0  0  0  0  0  0  0  0  0
   83.4739  -72.2242   14.2766 H   0  0  0  0  0  0  0  0  0  0  0  0
   86.8702  -70.9323   11.1652 H   0  0  0  0  0  0  0  0  0  0  0  0
   84.7262  -73.8911   13.1000 H   0  0  0  0  0  0  0  0  0  0  0  0
   86.0998  -74.2035   10.7853 H   0  0  0  0  0  0  0  0  0  0  0  0
   87.3271  -73.1385   10.6232 H   0  0  0  0  0  0  0  0  0  0  0  0
   87.0819  -74.5119   13.1085 H   0  0  0  0  0  0  0  0  0  0  0  0
  1 10  1  0  0  0  0
  2 10  2  0  0  0  0
  3 11  1  0  0  0  0
  4  5  2  0  0  0  0
  4  6  1  0  0  0  0
  5  7  1  0  0  0  0
  6  8  2  0  0  0  0
  7 12  2  0  0  0  0
  8 12  1  0  0  0  0
  9 11  1  0  0  0  0
  9 12  1  0  0  0  0
 10 11  1  0  0  0  0
  1 13  1  0  0  0  0
  3 14  1  0  0  0  0
  3 15  1  0  0  0  0
  4 16  1  0  0  0  0
  5 17  1  0  0  0  0
  6 18  1  0  0  0  0
  7 19  1  0  0  0  0
  8 20  1  0  0  0  0
  9 21  1  0  0  0  0
  9 22  1  0  0  0  0
 11 23  1  0  0  0  0
M  END
> <pdb_id>
5E2L

> <uniprot_id>
nan

> <usmiles>
O=C(O)[C@H](N)Cc1ccccc1

$$$$
DPZ_A_400
          07202407253D 1   1.00000     0.00000     0
            
 22 23  0  0  0  0            999 V2000
  103.8661   17.0341   24.0632 O   0  0  0  0  0  0  0  0  0  0  0  0
   98.8826   15.4726   23.0644 O   0  0  0  0  0  0  0  0  0  0  0  0
  103.7681   16.6939   19.0074 N   0  0  0  0  0  0  0  0  0  0  0  0
   99.3562   15.4471   20.3976 N   0  0  0  0  0  0  0  0  0  0  0  0
  101.8283   16.4683   24.8142 N   0  0  0  0  0  0  0  0  0  0  0  0
  100.4676   16.0439   24.5356 N   0  0  0  0  0  0  0  0  0  0  0  0
  101.5535   16.0685   19.7142 C   0  0  0  0  0  0  0  0  0  0  0  0
  103.2314   16.6736   21.3469 C   0  0  0  0  0  0  0  0  0  0  0  0
  102.7242   16.6705   23.8277 C   0  0  0  0  0  0  0  0  0  0  0  0
  100.0339   15.8290   23.2737 C   0  0  0  0  0  0  0  0  0  0  0  0
  102.8686   16.4757   20.0061 C   0  0  0  0  0  0  0  0  0  0  0  0
  100.6086   15.8472   20.7371 C   0  0  0  0  0  0  0  0  0  0  0  0
  102.3049   16.4625   22.3863 C   0  0  0  0  0  0  0  0  0  0  0  0
  100.9909   16.0404   22.0955 C   0  0  0  0  0  0  0  0  0  0  0  0
  104.6996   16.9830   19.2279 H   0  0  0  0  0  0  0  0  0  0  0  0
  103.4971   16.5651   18.0535 H   0  0  0  0  0  0  0  0  0  0  0  0
   98.6728   15.2853   21.1095 H   0  0  0  0  0  0  0  0  0  0  0  0
   99.1173   15.3144   19.4357 H   0  0  0  0  0  0  0  0  0  0  0  0
  102.1080   16.6143   25.7631 H   0  0  0  0  0  0  0  0  0  0  0  0
   99.8348   15.9070   25.2977 H   0  0  0  0  0  0  0  0  0  0  0  0
  101.2833   15.9333   18.7610 H   0  0  0  0  0  0  0  0  0  0  0  0
  104.1610   16.9688   21.5677 H   0  0  0  0  0  0  0  0  0  0  0  0
  1  9  2  0  0  0  0
  2 10  2  0  0  0  0
  3 11  1  0  0  0  0
  4 12  1  0  0  0  0
  5  6  1  0  0  0  0
  5  9  1  0  0  0  0
  6 10  1  0  0  0  0
  7 11  2  0  0  0  0
  7 12  1  0  0  0  0
  8 11  1  0  0  0  0
  8 13  2  0  0  0  0
  9 13  1  0  0  0  0
 10 14  1  0  0  0  0
 12 14  2  0  0  0  0
 13 14  1  0  0  0  0
  3 15  1  0  0  0  0
  3 16  1  0  0  0  0
  4 17  1  0  0  0  0
  4 18  1  0  0  0  0
  5 19  1  0  0  0  0
  6 20  1  0  0  0  0
  7 21  1  0  0  0  0
  8 22  1  0  0  0  0
M  END
> <pdb_id>
1F3E

> <uniprot_id>
P28720

> <usmiles>
O=C1NNC(=O)c2c1c(N)cc(N)c2

$$$$
DQJ_A_601
          07202406033D 1   1.00000     0.00000     0
            
 43 45  0  0  0  0            999 V2000
  -23.6255   19.8688    9.9057 O   0  0  0  0  0  0  0  0  0  0  0  0
  -23.7002   17.2921    3.5372 O   0  0  0  0  0  0  0  0  0  0  0  0
  -22.2417   18.6726    1.6428 N   0  0  0  0  0  0  0  0  0  0  0  0
  -21.4850   19.5490    0.9429 N   0  0  0  0  0  0  0  0  0  0  0  0
  -23.6069   20.2326    7.6892 N   0  0  0  0  0  0  0  0  0  0  0  0
  -22.8542   18.3679    5.2825 N   0  0  0  0  0  0  0  0  0  0  0  0
  -18.6086   21.0277    1.1004 C   0  0  0  0  0  0  0  0  0  0  0  0
  -20.5983   22.0705   -0.0968 C   0  0  0  0  0  0  0  0  0  0  0  0
  -23.6094   17.5442    6.2535 C   0  0  0  0  0  0  0  0  0  0  0  0
  -22.0386   19.3521    6.0117 C   0  0  0  0  0  0  0  0  0  0  0  0
  -22.9180   17.8435    7.6198 C   0  0  0  0  0  0  0  0  0  0  0  0
  -25.4221   22.1667   10.3312 C   0  0  0  0  0  0  0  0  0  0  0  0
  -26.3578   20.9902   10.0367 C   0  0  0  0  0  0  0  0  0  0  0  0
  -21.3849   20.1163    3.0827 C   0  0  0  0  0  0  0  0  0  0  0  0
  -24.1039   20.4299    8.9206 C   0  0  0  0  0  0  0  0  0  0  0  0
  -22.9837   18.1447    3.9542 C   0  0  0  0  0  0  0  0  0  0  0  0
  -22.4722   19.3379    7.4728 C   0  0  2  0  0  0  0  0  0  0  0  0
  -22.2137   18.9758    2.9552 C   0  0  0  0  0  0  0  0  0  0  0  0
  -20.9563   20.4273    1.7760 C   0  0  0  0  0  0  0  0  0  0  0  0
  -20.0633   21.5236    1.2474 C   0  0  0  0  0  0  0  0  0  0  0  0
  -25.2732   21.3777    9.0261 C   0  0  0  0  0  0  0  0  0  0  0  0
  -22.7491   17.9092    1.2432 H   0  0  0  0  0  0  0  0  0  0  0  0
  -24.0188   20.7043    6.9096 H   0  0  0  0  0  0  0  0  0  0  0  0
  -18.2846   20.6795    1.9801 H   0  0  0  0  0  0  0  0  0  0  0  0
  -18.5728   20.2968    0.4189 H   0  0  0  0  0  0  0  0  0  0  0  0
  -18.0260   21.7858    0.8071 H   0  0  0  0  0  0  0  0  0  0  0  0
  -21.5400   22.3852    0.0225 H   0  0  0  0  0  0  0  0  0  0  0  0
  -20.0270   22.8344   -0.3969 H   0  0  0  0  0  0  0  0  0  0  0  0
  -20.5738   21.3454   -0.7851 H   0  0  0  0  0  0  0  0  0  0  0  0
  -23.5405   16.5731    6.0253 H   0  0  0  0  0  0  0  0  0  0  0  0
  -24.5721   17.8140    6.2756 H   0  0  0  0  0  0  0  0  0  0  0  0
  -22.1809   20.2632    5.6249 H   0  0  0  0  0  0  0  0  0  0  0  0
  -21.0713   19.1081    5.9430 H   0  0  0  0  0  0  0  0  0  0  0  0
  -22.1289   17.2457    7.7613 H   0  0  0  0  0  0  0  0  0  0  0  0
  -23.5599   17.7334    8.3787 H   0  0  0  0  0  0  0  0  0  0  0  0
  -24.7274   22.0863   11.0460 H   0  0  0  0  0  0  0  0  0  0  0  0
  -25.7742   23.1025   10.3123 H   0  0  0  0  0  0  0  0  0  0  0  0
  -27.3208   21.1579    9.8257 H   0  0  0  0  0  0  0  0  0  0  0  0
  -26.2740   20.1418   10.5594 H   0  0  0  0  0  0  0  0  0  0  0  0
  -21.1516   20.6013    3.9255 H   0  0  0  0  0  0  0  0  0  0  0  0
  -21.7111   19.5558    8.0837 H   0  0  0  0  0  0  0  0  0  0  0  0
  -20.0688   22.2728    1.9097 H   0  0  0  0  0  0  0  0  0  0  0  0
  -25.5734   21.8270    8.1847 H   0  0  0  0  0  0  0  0  0  0  0  0
  1 15  2  0  0  0  0
  2 16  2  0  0  0  0
  3  4  1  0  0  0  0
  3 18  1  0  0  0  0
  4 19  2  0  0  0  0
  5 15  1  0  0  0  0
  5 17  1  0  0  0  0
  6  9  1  0  0  0  0
  6 10  1  0  0  0  0
  6 16  1  0  0  0  0
  7 20  1  0  0  0  0
  8 20  1  0  0  0  0
  9 11  1  0  0  0  0
 10 17  1  0  0  0  0
 11 17  1  0  0  0  0
 12 13  1  0  0  0  0
 12 21  1  0  0  0  0
 13 21  1  0  0  0  0
 14 18  2  0  0  0  0
 14 19  1  0  0  0  0
 15 21  1  0  0  0  0
 16 18  1  0  0  0  0
 19 20  1  0  0  0  0
  3 22  1  0  0  0  0
  5 23  1  0  0  0  0
  7 24  1  0  0  0  0
  7 25  1  0  0  0  0
  7 26  1  0  0  0  0
  8 27  1  0  0  0  0
  8 28  1  0  0  0  0
  8 29  1  0  0  0  0
  9 30  1  0  0  0  0
  9 31  1  0  0  0  0
 10 32  1  0  0  0  0
 10 33  1  0  0  0  0
 11 34  1  0  0  0  0
 11 35  1  0  0  0  0
 12 36  1  0  0  0  0
 12 37  1  0  0  0  0
 13 38  1  0  0  0  0
 13 39  1  0  0  0  0
 14 40  1  0  0  0  0
 17 41  1  0  0  0  0
 20 42  1  0  0  0  0
 21 43  1  0  0  0  0
M  END
> <pdb_id>
6BH3

> <uniprot_id>
P29375

> <usmiles>
O=C(N1C[C@@H](NC(=O)C2CC2)CC1)C=3NN=C(C3)C(C)C

$$$$
DQU_A_900
          07202407253D 1   1.00000     0.00000     0
            
 21 22  0  0  0  0            999 V2000
  103.6509   17.0220   23.8775 O   0  0  0  0  0  0  0  0  0  0  0  0
   99.2493   15.6066   24.7720 N   0  0  0  0  0  0  0  0  0  0  0  0
  104.0985   16.6231   18.5903 N   0  0  0  0  0  0  0  0  0  0  0  0
  101.4886   16.3264   24.3069 N   0  0  0  0  0  0  0  0  0  0  0  0
  100.0140   15.6326   22.5241 N   0  0  0  0  0  0  0  0  0  0  0  0
  101.7670   15.8895   19.2333 C   0  0  0  0  0  0  0  0  0  0  0  0
  100.7639   15.6460   20.1990 C   0  0  0  0  0  0  0  0  0  0  0  0
  103.3286   16.6084   20.9893 C   0  0  0  0  0  0  0  0  0  0  0  0
  100.2244   15.8391   23.8042 C   0  0  0  0  0  0  0  0  0  0  0  0
  102.5846   16.6057   23.4084 C   0  0  0  0  0  0  0  0  0  0  0  0
  103.0523   16.3723   19.6239 C   0  0  0  0  0  0  0  0  0  0  0  0
  101.0221   15.8780   21.5893 C   0  0  0  0  0  0  0  0  0  0  0  0
  102.3254   16.3698   21.9811 C   0  0  0  0  0  0  0  0  0  0  0  0
   98.3477   15.2685   24.5023 H   0  0  0  0  0  0  0  0  0  0  0  0
   99.4511   15.7778   25.7364 H   0  0  0  0  0  0  0  0  0  0  0  0
  104.9994   16.9613   18.8625 H   0  0  0  0  0  0  0  0  0  0  0  0
  103.8989   16.4531   17.6253 H   0  0  0  0  0  0  0  0  0  0  0  0
   99.1239   15.2966   22.2161 H   0  0  0  0  0  0  0  0  0  0  0  0
  101.5742   15.7219   18.2665 H   0  0  0  0  0  0  0  0  0  0  0  0
   99.8677   15.3093   19.9099 H   0  0  0  0  0  0  0  0  0  0  0  0
  104.2297   16.9440   21.2638 H   0  0  0  0  0  0  0  0  0  0  0  0
  1 10  2  0  0  0  0
  2  9  1  0  0  0  0
  3 11  1  0  0  0  0
  4  9  2  0  0  0  0
  4 10  1  0  0  0  0
  5  9  1  0  0  0  0
  5 12  1  0  0  0  0
  6  7  1  0  0  0  0
  6 11  2  0  0  0  0
  7 12  2  0  0  0  0
  8 11  1  0  0  0  0
  8 13  2  0  0  0  0
 10 13  1  0  0  0  0
 12 13  1  0  0  0  0
  2 14  1  0  0  0  0
  2 15  1  0  0  0  0
  3 16  1  0  0  0  0
  3 17  1  0  0  0  0
  5 18  1  0  0  0  0
  6 19  1  0  0  0  0
  7 20  1  0  0  0  0
  8 21  1  0  0  0  0
M  END
> <pdb_id>
1Q4W

> <uniprot_id>
P28720

> <usmiles>
O=C1N=C(Nc2c1cc(N)cc2)N

$$$$
DRL_A_601
          07202407403D 1   1.00000     0.00000     0
            
 22 23  0  0  0  0            999 V2000
   16.2020   -9.6910    9.7953 S   0  0  0  0  0  0  0  0  0  0  0  0
   14.6632   -5.6688   11.3493 O   0  0  0  0  0  0  0  0  0  0  0  0
   16.6595   -5.1068   12.1849 N   0  0  0  0  0  0  0  0  0  0  0  0
   18.3846   -6.6855   12.1585 N   0  0  0  0  0  0  0  0  0  0  0  0
   18.9117   -4.4308   13.1056 C   0  0  0  0  0  0  0  0  0  0  0  0
   17.3354  -10.1259   11.1473 C   0  0  0  0  0  0  0  0  0  0  0  0
   15.3033   -8.3285   10.6349 C   0  0  0  0  0  0  0  0  0  0  0  0
   18.3057   -8.9614   11.3740 C   0  0  0  0  0  0  0  0  0  0  0  0
   17.9677   -5.4522   12.4582 C   0  0  0  0  0  0  0  0  0  0  0  0
   15.8163   -6.0248   11.5849 C   0  0  0  0  0  0  0  0  0  0  0  0
   17.5954   -7.6142   11.5865 C   0  0  0  0  0  0  0  0  0  0  0  0
   16.2583   -7.3140   11.2804 C   0  0  0  0  0  0  0  0  0  0  0  0
   16.3222   -4.1953   12.4200 H   0  0  0  0  0  0  0  0  0  0  0  0
   19.8136   -4.8438   13.2321 H   0  0  0  0  0  0  0  0  0  0  0  0
   18.9923   -3.6292   12.5133 H   0  0  0  0  0  0  0  0  0  0  0  0
   18.5446   -4.1536   13.9935 H   0  0  0  0  0  0  0  0  0  0  0  0
   17.8492  -10.9485   10.9034 H   0  0  0  0  0  0  0  0  0  0  0  0
   16.8125  -10.2949   11.9827 H   0  0  0  0  0  0  0  0  0  0  0  0
   14.7192   -8.7186   11.3466 H   0  0  0  0  0  0  0  0  0  0  0  0
   14.7365   -7.8537    9.9616 H   0  0  0  0  0  0  0  0  0  0  0  0
   18.9016   -8.8839   10.5747 H   0  0  0  0  0  0  0  0  0  0  0  0
   18.8579   -9.1607   12.1835 H   0  0  0  0  0  0  0  0  0  0  0  0
  1  6  1  0  0  0  0
  1  7  1  0  0  0  0
  2 10  2  0  0  0  0
  3  9  1  0  0  0  0
  3 10  1  0  0  0  0
  4  9  2  0  0  0  0
  4 11  1  0  0  0  0
  5  9  1  0  0  0  0
  6  8  1  0  0  0  0
  7 12  1  0  0  0  0
  8 11  1  0  0  0  0
 10 12  1  0  0  0  0
 11 12  2  0  0  0  0
  3 13  1  0  0  0  0
  5 14  1  0  0  0  0
  5 15  1  0  0  0  0
  5 16  1  0  0  0  0
  6 17  1  0  0  0  0
  6 18  1  0  0  0  0
  7 19  1  0  0  0  0
  7 20  1  0  0  0  0
  8 21  1  0  0  0  0
  8 22  1  0  0  0  0
M  END
> <pdb_id>
3C4H

> <uniprot_id>
Q9Y6F1

> <usmiles>
S1CC=2C(=O)NC(=NC2CC1)C

$$$$
DSK_A_4001
          07192422103D 1   1.00000     0.00000     0
            
 47 47  0  0  0  0            999 V2000
   43.5833   93.1656   34.2112 S   0  3  0  0  0  0  0  0  0  0  0  0
   42.3254   95.6440   36.1935 O   0  0  0  0  0  0  0  0  0  0  0  0
   41.2529   84.0352   30.4171 O   0  0  0  0  0  0  0  0  0  0  0  0
   47.0459   95.1149   33.9744 O   0  0  0  0  0  0  0  0  0  0  0  0
   44.0273   90.8750   32.0134 O   0  0  0  0  0  0  0  0  0  0  0  0
   43.3204   86.1752   30.2034 O   0  0  0  0  0  0  0  0  0  0  0  0
   46.0243   95.0512   36.6297 O   0  0  0  0  0  0  0  0  0  0  0  0
   42.4331   88.8157   34.5156 O   0  0  0  0  0  0  0  0  0  0  0  0
   43.9829   86.3254   32.8504 O   0  0  0  0  0  0  0  0  0  0  0  0
   41.5163   88.8138   31.8581 O   0  0  0  0  0  0  0  0  0  0  0  0
   44.9407   93.9711   33.2664 C   0  0  0  0  0  0  0  0  0  0  0  0
   43.8816   91.3912   34.4146 C   0  0  0  0  0  0  0  0  0  0  0  0
   42.8421   94.4033   36.6853 C   0  0  0  0  0  0  0  0  0  0  0  0
   41.9961   84.5890   31.4899 C   0  0  0  0  0  0  0  0  0  0  0  0
   44.0308   93.8442   35.8554 C   0  0  2  0  0  0  0  0  0  0  0  0
   45.9773   94.2082   34.3839 C   0  0  2  0  0  0  0  0  0  0  0  0
   43.3212   90.5742   33.2087 C   0  0  2  0  0  0  0  0  0  0  0  0
   42.2674   86.0651   31.1725 C   0  0  1  0  0  0  0  0  0  0  0  0
   45.1440   94.8753   35.5125 C   0  0  2  0  0  0  0  0  0  0  0  0
   43.3558   89.0659   33.4411 C   0  0  2  0  0  0  0  0  0  0  0  0
   42.6913   86.8054   32.4599 C   0  0  2  0  0  0  0  0  0  0  0  0
   42.8027   88.3080   32.2115 C   0  0  1  0  0  0  0  0  0  0  0  0
   41.5669   95.9423   36.7729 H   0  0  0  0  0  0  0  0  0  0  0  0
   41.0649   83.0711   30.6044 H   0  0  0  0  0  0  0  0  0  0  0  0
   47.6890   95.2353   34.7307 H   0  0  0  0  0  0  0  0  0  0  0  0
   43.6486   90.3391   31.2588 H   0  0  0  0  0  0  0  0  0  0  0  0
   43.4896   87.1403   30.0034 H   0  0  0  0  0  0  0  0  0  0  0  0
   46.7333   95.7159   36.3940 H   0  0  0  0  0  0  0  0  0  0  0  0
   42.4118   87.8361   34.7154 H   0  0  0  0  0  0  0  0  0  0  0  0
   44.2747   86.7943   33.6841 H   0  0  0  0  0  0  0  0  0  0  0  0
   41.1696   88.3165   31.0628 H   0  0  0  0  0  0  0  0  0  0  0  0
   44.6410   94.8319   32.8549 H   0  0  0  0  0  0  0  0  0  0  0  0
   45.3001   93.3684   32.5540 H   0  0  0  0  0  0  0  0  0  0  0  0
   43.4342   91.0806   35.2533 H   0  0  0  0  0  0  0  0  0  0  0  0
   44.8666   91.2333   34.4841 H   0  0  0  0  0  0  0  0  0  0  0  0
   42.1046   93.7281   36.6736 H   0  0  0  0  0  0  0  0  0  0  0  0
   43.1522   94.5420   37.6258 H   0  0  0  0  0  0  0  0  0  0  0  0
   42.8622   84.0994   31.5900 H   0  0  0  0  0  0  0  0  0  0  0  0
   41.4718   84.5158   32.3383 H   0  0  0  0  0  0  0  0  0  0  0  0
   44.4513   93.1072   36.3846 H   0  0  0  0  0  0  0  0  0  0  0  0
   46.3580   93.3385   34.6980 H   0  0  0  0  0  0  0  0  0  0  0  0
   42.3668   90.8412   33.0756 H   0  0  0  0  0  0  0  0  0  0  0  0
   41.4359   86.4840   30.8076 H   0  0  0  0  0  0  0  0  0  0  0  0
   44.7552   95.7467   35.2131 H   0  0  0  0  0  0  0  0  0  0  0  0
   44.2774   88.7557   33.6744 H   0  0  0  0  0  0  0  0  0  0  0  0
   42.0285   86.6291   33.1877 H   0  0  0  0  0  0  0  0  0  0  0  0
   43.4239   88.4566   31.4421 H   0  0  0  0  0  0  0  0  0  0  0  0
  1 11  1  0  0  0  0
  1 12  1  0  0  0  0
  1 15  1  0  0  0  0
  2 13  1  0  0  0  0
  3 14  1  0  0  0  0
  4 16  1  0  0  0  0
  5 17  1  0  0  0  0
  6 18  1  0  0  0  0
  7 19  1  0  0  0  0
  8 20  1  0  0  0  0
  9 21  1  0  0  0  0
 10 22  1  0  0  0  0
 11 16  1  0  0  0  0
 12 17  1  0  0  0  0
 13 15  1  0  0  0  0
 14 18  1  0  0  0  0
 15 19  1  0  0  0  0
 16 19  1  0  0  0  0
 17 20  1  0  0  0  0
 18 21  1  0  0  0  0
 20 22  1  0  0  0  0
 21 22  1  0  0  0  0
  2 23  1  0  0  0  0
  3 24  1  0  0  0  0
  4 25  1  0  0  0  0
  5 26  1  0  0  0  0
  6 27  1  0  0  0  0
  7 28  1  0  0  0  0
  8 29  1  0  0  0  0
  9 30  1  0  0  0  0
 10 31  1  0  0  0  0
 11 32  1  0  0  0  0
 11 33  1  0  0  0  0
 12 34  1  0  0  0  0
 12 35  1  0  0  0  0
 13 36  1  0  0  0  0
 13 37  1  0  0  0  0
 14 38  1  0  0  0  0
 14 39  1  0  0  0  0
 15 40  1  0  0  0  0
 16 41  1  0  0  0  0
 17 42  1  0  0  0  0
 18 43  1  0  0  0  0
 19 44  1  0  0  0  0
 20 45  1  0  0  0  0
 21 46  1  0  0  0  0
 22 47  1  0  0  0  0
M  CHG  1   1   1
M  END
> <pdb_id>
3L4U

> <uniprot_id>
O43451

> <usmiles>
[S+]1([C@@H]([C@@H](O)[C@H](O)C1)CO)C[C@@H](O)[C@@H](O)[C@H](O)[C@H](O)[C@@H](O)CO

$$$$
DSZ_A_500
          07202401403D 1   1.00000     0.00000     0
            
 50 52  0  0  0  0            999 V2000
   31.3215   16.6297  -18.1528 S   0  0  0  0  0  0  0  0  0  0  0  0
   30.6992   15.4281  -18.7299 O   0  0  0  0  0  0  0  0  0  0  0  0
   30.4953   17.8250  -18.3882 O   0  0  0  0  0  0  0  0  0  0  0  0
   30.2753   19.1549  -12.7937 O   0  0  0  0  0  0  0  0  0  0  0  0
   32.3077   19.2439  -13.6187 O   0  0  0  0  0  0  0  0  0  0  0  0
   33.0821   17.9164  -16.2061 O   0  0  0  0  0  0  0  0  0  0  0  0
   34.9971   18.7466  -22.3115 O   0  0  0  0  0  0  0  0  0  0  0  0
   36.4569   17.1941  -20.5608 O   0  0  0  0  0  0  0  0  0  0  0  0
   32.7901   16.8855  -18.7890 O   0  0  0  0  0  0  0  0  0  0  0  0
   33.7321   15.5860  -21.1545 O   0  0  0  0  0  0  0  0  0  0  0  0
   30.0275   15.9859  -26.7628 N   0  0  0  0  0  0  0  0  0  0  0  0
   33.6398   16.8581  -13.7941 N   0  0  0  0  0  0  0  0  0  0  0  0
   31.5044   16.3496  -16.6513 N   0  0  0  0  0  0  0  0  0  0  0  0
   32.2136   15.0846  -26.8463 N   0  0  0  0  0  0  0  0  0  0  0  0
   33.7470   15.2977  -25.0353 N   0  0  0  0  0  0  0  0  0  0  0  0
   30.8338   16.9673  -23.9449 N   0  0  0  0  0  0  0  0  0  0  0  0
   32.8538   16.5632  -23.1215 N   0  0  0  0  0  0  0  0  0  0  0  0
   33.7412   15.8274  -18.7511 C   0  0  0  0  0  0  0  0  0  0  0  0
   33.4149   14.8667  -26.2657 C   0  0  0  0  0  0  0  0  0  0  0  0
   31.6559   17.1420  -22.8894 C   0  0  0  0  0  0  0  0  0  0  0  0
   31.1672   17.1147  -13.6424 C   0  0  0  0  0  0  0  0  0  0  0  0
   31.2653   18.6035  -13.3388 C   0  0  0  0  0  0  0  0  0  0  0  0
   32.3477   17.0056  -15.8466 C   0  0  0  0  0  0  0  0  0  0  0  0
   34.2845   17.8222  -21.4853 C   0  0  2  0  0  0  0  0  0  0  0  0
   35.0679   17.3491  -20.2762 C   0  0  1  0  0  0  0  0  0  0  0  0
   34.0038   16.5158  -22.2033 C   0  0  1  0  0  0  0  0  0  0  0  0
   31.2379   15.7627  -26.2141 C   0  0  0  0  0  0  0  0  0  0  0  0
   34.5511   15.9389  -20.0255 C   0  0  2  0  0  0  0  0  0  0  0  0
   32.3610   16.5438  -14.4170 C   0  0  1  0  0  0  0  0  0  0  0  0
   32.8422   15.9978  -24.3246 C   0  0  0  0  0  0  0  0  0  0  0  0
   31.5141   16.2714  -24.8708 C   0  0  0  0  0  0  0  0  0  0  0  0
   29.4580   18.6188  -12.5825 H   0  0  0  0  0  0  0  0  0  0  0  0
   34.4224   19.0139  -23.0850 H   0  0  0  0  0  0  0  0  0  0  0  0
   36.9329   16.8820  -19.7385 H   0  0  0  0  0  0  0  0  0  0  0  0
   29.3340   16.4956  -26.2537 H   0  0  0  0  0  0  0  0  0  0  0  0
   29.8229   15.6419  -27.6792 H   0  0  0  0  0  0  0  0  0  0  0  0
   34.3810   16.4639  -14.3374 H   0  0  0  0  0  0  0  0  0  0  0  0
   33.7526   17.8506  -13.7468 H   0  0  0  0  0  0  0  0  0  0  0  0
   30.9508   15.6219  -16.2462 H   0  0  0  0  0  0  0  0  0  0  0  0
   33.2748   14.9436  -18.7134 H   0  0  0  0  0  0  0  0  0  0  0  0
   34.3360   15.9247  -17.9531 H   0  0  0  0  0  0  0  0  0  0  0  0
   34.0994   14.3532  -26.7831 H   0  0  0  0  0  0  0  0  0  0  0  0
   31.4122   17.6317  -22.0523 H   0  0  0  0  0  0  0  0  0  0  0  0
   30.3408   16.9601  -14.1838 H   0  0  0  0  0  0  0  0  0  0  0  0
   31.0940   16.6232  -12.7746 H   0  0  0  0  0  0  0  0  0  0  0  0
   33.4230   18.2333  -21.1873 H   0  0  0  0  0  0  0  0  0  0  0  0
   34.9180   17.9422  -19.4851 H   0  0  0  0  0  0  0  0  0  0  0  0
   34.8200   16.2268  -22.7037 H   0  0  0  0  0  0  0  0  0  0  0  0
   35.3273   15.3104  -19.9756 H   0  0  0  0  0  0  0  0  0  0  0  0
   32.2666   15.5483  -14.4225 H   0  0  0  0  0  0  0  0  0  0  0  0
  1  2  2  0  0  0  0
  1  3  2  0  0  0  0
  1  9  1  0  0  0  0
  1 13  1  0  0  0  0
  4 22  1  0  0  0  0
  5 22  2  0  0  0  0
  6 23  2  0  0  0  0
  7 24  1  0  0  0  0
  8 25  1  0  0  0  0
  9 18  1  0  0  0  0
 10 26  1  0  0  0  0
 10 28  1  0  0  0  0
 11 27  1  0  0  0  0
 12 29  1  0  0  0  0
 13 23  1  0  0  0  0
 14 19  1  0  0  0  0
 14 27  2  0  0  0  0
 15 19  2  0  0  0  0
 15 30  1  0  0  0  0
 16 20  2  0  0  0  0
 16 31  1  0  0  0  0
 17 20  1  0  0  0  0
 17 26  1  0  0  0  0
 17 30  1  0  0  0  0
 18 28  1  0  0  0  0
 21 22  1  0  0  0  0
 21 29  1  0  0  0  0
 23 29  1  0  0  0  0
 24 25  1  0  0  0  0
 24 26  1  0  0  0  0
 25 28  1  0  0  0  0
 27 31  1  0  0  0  0
 30 31  2  0  0  0  0
  4 32  1  0  0  0  0
  7 33  1  0  0  0  0
  8 34  1  0  0  0  0
 11 35  1  0  0  0  0
 11 36  1  0  0  0  0
 12 37  1  0  0  0  0
 12 38  1  0  0  0  0
 13 39  1  0  0  0  0
 18 40  1  0  0  0  0
 18 41  1  0  0  0  0
 19 42  1  0  0  0  0
 20 43  1  0  0  0  0
 21 44  1  0  0  0  0
 21 45  1  0  0  0  0
 24 46  1  0  0  0  0
 25 47  1  0  0  0  0
 26 48  1  0  0  0  0
 28 49  1  0  0  0  0
 29 50  1  0  0  0  0
M  END
> <pdb_id>
3R9E

> <uniprot_id>
Q47510

> <usmiles>
S(=O)(=O)(OC[C@H]1O[C@@H](N2c3ncnc(N)c3N=C2)[C@H](O)[C@@H]1O)NC(=O)[C@@H](N)CC(=O)O

$$$$
DTB_A_300
          07202401443D 1   1.00000     0.00000     0
            
 33 33  0  0  0  0            999 V2000
  -29.1160  -14.2630    8.2678 O   0  0  0  0  0  0  0  0  0  0  0  0
  -23.7985  -20.8554   14.3979 O   0  0  0  0  0  0  0  0  0  0  0  0
  -25.4459  -19.7716   15.3616 O   0  0  0  0  0  0  0  0  0  0  0  0
  -29.2587  -16.4908    7.7217 N   0  0  0  0  0  0  0  0  0  0  0  0
  -28.3505  -15.9525    9.6319 N   0  0  0  0  0  0  0  0  0  0  0  0
  -27.9021  -18.5075    7.4832 C   0  0  0  0  0  0  0  0  0  0  0  0
  -25.5883  -18.3632   12.1599 C   0  0  0  0  0  0  0  0  0  0  0  0
  -25.0127  -17.6367   13.3874 C   0  0  0  0  0  0  0  0  0  0  0  0
  -26.7965  -17.5905   11.6142 C   0  0  0  0  0  0  0  0  0  0  0  0
  -23.8985  -18.4743   14.0612 C   0  0  0  0  0  0  0  0  0  0  0  0
  -27.1161  -17.9662   10.1605 C   0  0  0  0  0  0  0  0  0  0  0  0
  -28.8874  -15.5211    8.5494 C   0  0  0  0  0  0  0  0  0  0  0  0
  -24.4157  -19.7881   14.6196 C   0  0  0  0  0  0  0  0  0  0  0  0
  -28.9569  -17.7930    8.3053 C   0  0  1  0  0  0  0  0  0  0  0  0
  -28.4822  -17.4254    9.7339 C   0  0  2  0  0  0  0  0  0  0  0  0
  -22.9887  -20.8521   13.8112 H   0  0  0  0  0  0  0  0  0  0  0  0
  -29.6838  -16.3488    6.8278 H   0  0  0  0  0  0  0  0  0  0  0  0
  -27.9039  -15.3737   10.3141 H   0  0  0  0  0  0  0  0  0  0  0  0
  -27.7053  -19.3976    7.8944 H   0  0  0  0  0  0  0  0  0  0  0  0
  -28.2384  -18.6382    6.5505 H   0  0  0  0  0  0  0  0  0  0  0  0
  -27.0669  -17.9580    7.4624 H   0  0  0  0  0  0  0  0  0  0  0  0
  -25.8755  -19.2840   12.4241 H   0  0  0  0  0  0  0  0  0  0  0  0
  -24.8858  -18.4238   11.4509 H   0  0  0  0  0  0  0  0  0  0  0  0
  -25.7471  -17.4793   14.0476 H   0  0  0  0  0  0  0  0  0  0  0  0
  -24.6311  -16.7589   13.0978 H   0  0  0  0  0  0  0  0  0  0  0  0
  -26.5989  -16.6112   11.6578 H   0  0  0  0  0  0  0  0  0  0  0  0
  -27.5933  -17.7954   12.1825 H   0  0  0  0  0  0  0  0  0  0  0  0
  -23.5044  -17.9408   14.8096 H   0  0  0  0  0  0  0  0  0  0  0  0
  -23.1904  -18.6708   13.3829 H   0  0  0  0  0  0  0  0  0  0  0  0
  -27.1189  -18.9625   10.0746 H   0  0  0  0  0  0  0  0  0  0  0  0
  -26.4126  -17.5821    9.5625 H   0  0  0  0  0  0  0  0  0  0  0  0
  -29.7876  -18.3477    8.3528 H   0  0  0  0  0  0  0  0  0  0  0  0
  -29.1803  -17.6682   10.4075 H   0  0  0  0  0  0  0  0  0  0  0  0
  1 12  2  0  0  0  0
  2 13  1  0  0  0  0
  3 13  2  0  0  0  0
  4 12  1  0  0  0  0
  4 14  1  0  0  0  0
  5 12  1  0  0  0  0
  5 15  1  0  0  0  0
  6 14  1  0  0  0  0
  7  8  1  0  0  0  0
  7  9  1  0  0  0  0
  8 10  1  0  0  0  0
  9 11  1  0  0  0  0
 10 13  1  0  0  0  0
 11 15  1  0  0  0  0
 14 15  1  0  0  0  0
  2 16  1  0  0  0  0
  4 17  1  0  0  0  0
  5 18  1  0  0  0  0
  6 19  1  0  0  0  0
  6 20  1  0  0  0  0
  6 21  1  0  0  0  0
  7 22  1  0  0  0  0
  7 23  1  0  0  0  0
  8 24  1  0  0  0  0
  8 25  1  0  0  0  0
  9 26  1  0  0  0  0
  9 27  1  0  0  0  0
 10 28  1  0  0  0  0
 10 29  1  0  0  0  0
 11 30  1  0  0  0  0
 11 31  1  0  0  0  0
 14 32  1  0  0  0  0
 15 33  1  0  0  0  0
M  END
> <pdb_id>
3RDQ

> <uniprot_id>
P22629

> <usmiles>
O=C1N[C@@H]([C@@H](N1)C)CCCCCC(=O)O

$$$$
DTM_A_187
          07202413363D 1   1.00000     0.00000     0
            
 49 51  0  0  0  0            999 V2000
   10.6956    6.2406   -0.8465 O   0  0  0  0  0  0  0  0  0  0  0  0
   10.5729    1.5695   -0.7610 O   0  0  0  0  0  0  0  0  0  0  0  0
    9.4162    4.0765   -0.4359 O   0  0  0  0  0  0  0  0  0  0  0  0
   18.5672    7.3691    4.7949 N   0  0  0  0  0  0  0  0  0  0  0  0
   19.1665    8.4715    0.4537 N   0  0  0  0  0  0  0  0  0  0  0  0
   15.9087    5.0225    1.8164 N   0  0  0  0  0  0  0  0  0  0  0  0
   18.7462    7.8354    2.5122 N   0  0  0  0  0  0  0  0  0  0  0  0
   17.2406    6.2250    3.2782 N   0  0  0  0  0  0  0  0  0  0  0  0
   15.5158    5.0947   -1.8629 N   0  0  0  0  0  0  0  0  0  0  0  0
   10.5909    7.0481   -2.0337 C   0  0  0  0  0  0  0  0  0  0  0  0
   11.4727    0.4359   -0.9289 C   0  0  0  0  0  0  0  0  0  0  0  0
    8.8591    3.2317    0.5907 C   0  0  0  0  0  0  0  0  0  0  0  0
   15.8575    5.8639   -3.0653 C   0  0  0  0  0  0  0  0  0  0  0  0
   15.4383    4.7304    0.5721 C   0  0  0  0  0  0  0  0  0  0  0  0
   14.8558    3.7091   -2.1251 C   0  0  0  0  0  0  0  0  0  0  0  0
   12.7961    5.1085   -1.4980 C   0  0  0  0  0  0  0  0  0  0  0  0
   12.6961    2.6518   -1.4833 C   0  0  0  0  0  0  0  0  0  0  0  0
   16.9384    6.3578   -0.3490 C   0  0  0  0  0  0  0  0  0  0  0  0
   18.1675    7.1334    3.5275 C   0  0  0  0  0  0  0  0  0  0  0  0
   18.4208    7.6276    1.2138 C   0  0  0  0  0  0  0  0  0  0  0  0
   16.8585    5.9713    1.9990 C   0  0  0  0  0  0  0  0  0  0  0  0
   11.4768    5.1135   -1.0959 C   0  0  0  0  0  0  0  0  0  0  0  0
   11.3129    2.7151   -1.0450 C   0  0  0  0  0  0  0  0  0  0  0  0
   10.7347    3.9555   -0.8480 C   0  0  0  0  0  0  0  0  0  0  0  0
   15.9554    5.3881   -0.5931 C   0  0  0  0  0  0  0  0  0  0  0  0
   13.3965    3.8587   -1.6838 C   0  0  0  0  0  0  0  0  0  0  0  0
   17.4212    6.7025    0.9265 C   0  0  0  0  0  0  0  0  0  0  0  0
   18.1534    6.8633    5.5519 H   0  0  0  0  0  0  0  0  0  0  0  0
   19.2770    8.0496    4.9770 H   0  0  0  0  0  0  0  0  0  0  0  0
   19.0677    8.4676   -0.5414 H   0  0  0  0  0  0  0  0  0  0  0  0
   19.8143    9.0965    0.8894 H   0  0  0  0  0  0  0  0  0  0  0  0
   10.0287    7.8523   -1.8412 H   0  0  0  0  0  0  0  0  0  0  0  0
   11.5035    7.3401   -2.3197 H   0  0  0  0  0  0  0  0  0  0  0  0
   10.1678    6.5127   -2.7647 H   0  0  0  0  0  0  0  0  0  0  0  0
   10.9803   -0.4123   -0.7339 H   0  0  0  0  0  0  0  0  0  0  0  0
   11.8117    0.4159   -1.8695 H   0  0  0  0  0  0  0  0  0  0  0  0
   12.2438    0.5262   -0.2986 H   0  0  0  0  0  0  0  0  0  0  0  0
    7.9012    3.4767    0.7405 H   0  0  0  0  0  0  0  0  0  0  0  0
    8.9177    2.2756    0.3037 H   0  0  0  0  0  0  0  0  0  0  0  0
    9.3720    3.3568    1.4400 H   0  0  0  0  0  0  0  0  0  0  0  0
   16.2734    6.7331   -2.7980 H   0  0  0  0  0  0  0  0  0  0  0  0
   16.5040    5.3423   -3.6221 H   0  0  0  0  0  0  0  0  0  0  0  0
   15.0279    6.0403   -3.5951 H   0  0  0  0  0  0  0  0  0  0  0  0
   14.7184    4.0440    0.4687 H   0  0  0  0  0  0  0  0  0  0  0  0
   15.3115    2.9983   -1.5892 H   0  0  0  0  0  0  0  0  0  0  0  0
   14.9048    3.4771   -3.0965 H   0  0  0  0  0  0  0  0  0  0  0  0
   13.3001    5.9588   -1.6496 H   0  0  0  0  0  0  0  0  0  0  0  0
   13.1423    1.7706   -1.6395 H   0  0  0  0  0  0  0  0  0  0  0  0
   17.3232    6.8381   -1.1371 H   0  0  0  0  0  0  0  0  0  0  0  0
  1 10  1  0  0  0  0
  1 22  1  0  0  0  0
  2 11  1  0  0  0  0
  2 23  1  0  0  0  0
  3 12  1  0  0  0  0
  3 24  1  0  0  0  0
  4 19  1  0  0  0  0
  5 20  1  0  0  0  0
  6 14  2  0  0  0  0
  6 21  1  0  0  0  0
  7 19  2  0  0  0  0
  7 20  1  0  0  0  0
  8 19  1  0  0  0  0
  8 21  2  0  0  0  0
  9 13  1  0  0  0  0
  9 15  1  0  0  0  0
  9 25  1  0  0  0  0
 14 25  1  0  0  0  0
 15 26  1  0  0  0  0
 16 22  1  0  0  0  0
 16 26  2  0  0  0  0
 17 23  2  0  0  0  0
 17 26  1  0  0  0  0
 18 25  2  0  0  0  0
 18 27  1  0  0  0  0
 20 27  2  0  0  0  0
 21 27  1  0  0  0  0
 22 24  2  0  0  0  0
 23 24  1  0  0  0  0
  4 28  1  0  0  0  0
  4 29  1  0  0  0  0
  5 30  1  0  0  0  0
  5 31  1  0  0  0  0
 10 32  1  0  0  0  0
 10 33  1  0  0  0  0
 10 34  1  0  0  0  0
 11 35  1  0  0  0  0
 11 36  1  0  0  0  0
 11 37  1  0  0  0  0
 12 38  1  0  0  0  0
 12 39  1  0  0  0  0
 12 40  1  0  0  0  0
 13 41  1  0  0  0  0
 13 42  1  0  0  0  0
 13 43  1  0  0  0  0
 14 44  1  0  0  0  0
 15 45  1  0  0  0  0
 15 46  1  0  0  0  0
 16 47  1  0  0  0  0
 17 48  1  0  0  0  0
 18 49  1  0  0  0  0
M  END
> <pdb_id>
1MVS

> <uniprot_id>
P00374

> <usmiles>
O(c1c(OC)cc(cc1OC)CN(c2cnc3nc(nc(N)c3c2)N)C)C

$$$$
DTQ_A_1337
          07202401123D 1   1.00000     0.00000     0
            
 37 39  0  0  0  0            999 V2000
   65.7660   37.2840    3.8903 O   0  0  0  0  0  0  0  0  0  0  0  0
   73.3208   41.3381   -2.7221 O   0  0  0  0  0  0  0  0  0  0  0  0
   70.6440   41.5890   -2.2252 O   0  0  0  0  0  0  0  0  0  0  0  0
   71.3927   36.6542    1.1401 N   0  0  0  0  0  0  0  0  0  0  0  0
   73.3809   37.4248    0.0563 N   0  0  0  0  0  0  0  0  0  0  0  0
   69.3414   37.8212    0.8736 N   0  0  0  0  0  0  0  0  0  0  0  0
   74.7406   41.2398   -2.7712 C   0  0  0  0  0  0  0  0  0  0  0  0
   69.8984   42.3120   -1.2349 C   0  0  0  0  0  0  0  0  0  0  0  0
   72.6907   36.5933    0.8363 C   0  0  0  0  0  0  0  0  0  0  0  0
   67.9985   34.7653    2.5437 C   0  0  0  0  0  0  0  0  0  0  0  0
   66.9712   35.3182    3.2863 C   0  0  0  0  0  0  0  0  0  0  0  0
   68.7849   35.5727    1.7444 C   0  0  0  0  0  0  0  0  0  0  0  0
   67.5585   37.4899    2.4080 C   0  0  0  0  0  0  0  0  0  0  0  0
   73.3470   39.3256   -1.3168 C   0  0  0  0  0  0  0  0  0  0  0  0
   70.6655   39.6536   -0.7997 C   0  0  0  0  0  0  0  0  0  0  0  0
   66.7801   36.6826    3.2032 C   0  0  0  0  0  0  0  0  0  0  0  0
   70.7184   37.6743    0.5961 C   0  0  0  0  0  0  0  0  0  0  0  0
   72.6900   40.3997   -1.8804 C   0  0  0  0  0  0  0  0  0  0  0  0
   71.3389   40.5517   -1.6132 C   0  0  0  0  0  0  0  0  0  0  0  0
   68.5838   36.9411    1.6734 C   0  0  0  0  0  0  0  0  0  0  0  0
   72.7007   38.4309   -0.4895 C   0  0  0  0  0  0  0  0  0  0  0  0
   71.3494   38.6009   -0.2224 C   0  0  0  0  0  0  0  0  0  0  0  0
   65.6351   38.2732    3.8242 H   0  0  0  0  0  0  0  0  0  0  0  0
   68.8692   38.6067    0.4736 H   0  0  0  0  0  0  0  0  0  0  0  0
   75.1019   41.9389   -3.3882 H   0  0  0  0  0  0  0  0  0  0  0  0
   75.1162   41.3778   -1.8548 H   0  0  0  0  0  0  0  0  0  0  0  0
   75.0007   40.3338   -3.1052 H   0  0  0  0  0  0  0  0  0  0  0  0
   69.3980   43.0585   -1.6735 H   0  0  0  0  0  0  0  0  0  0  0  0
   69.2514   41.6943   -0.7880 H   0  0  0  0  0  0  0  0  0  0  0  0
   70.5264   42.6872   -0.5530 H   0  0  0  0  0  0  0  0  0  0  0  0
   73.2046   35.8366    1.2404 H   0  0  0  0  0  0  0  0  0  0  0  0
   68.1722   33.7814    2.5852 H   0  0  0  0  0  0  0  0  0  0  0  0
   66.3865   34.7486    3.8639 H   0  0  0  0  0  0  0  0  0  0  0  0
   69.5173   35.1587    1.2038 H   0  0  0  0  0  0  0  0  0  0  0  0
   67.3799   38.4728    2.3638 H   0  0  0  0  0  0  0  0  0  0  0  0
   74.3183   39.1919   -1.5134 H   0  0  0  0  0  0  0  0  0  0  0  0
   69.6865   39.7675   -0.6309 H   0  0  0  0  0  0  0  0  0  0  0  0
  1 16  1  0  0  0  0
  2  7  1  0  0  0  0
  2 18  1  0  0  0  0
  3  8  1  0  0  0  0
  3 19  1  0  0  0  0
  4  9  1  0  0  0  0
  4 17  2  0  0  0  0
  5  9  2  0  0  0  0
  5 21  1  0  0  0  0
  6 17  1  0  0  0  0
  6 20  1  0  0  0  0
 10 11  1  0  0  0  0
 10 12  2  0  0  0  0
 11 16  2  0  0  0  0
 12 20  1  0  0  0  0
 13 16  1  0  0  0  0
 13 20  2  0  0  0  0
 14 18  1  0  0  0  0
 14 21  2  0  0  0  0
 15 19  1  0  0  0  0
 15 22  2  0  0  0  0
 17 22  1  0  0  0  0
 18 19  2  0  0  0  0
 21 22  1  0  0  0  0
  1 23  1  0  0  0  0
  6 24  1  0  0  0  0
  7 25  1  0  0  0  0
  7 26  1  0  0  0  0
  7 27  1  0  0  0  0
  8 28  1  0  0  0  0
  8 29  1  0  0  0  0
  8 30  1  0  0  0  0
  9 31  1  0  0  0  0
 10 32  1  0  0  0  0
 11 33  1  0  0  0  0
 12 34  1  0  0  0  0
 13 35  1  0  0  0  0
 14 36  1  0  0  0  0
 15 37  1  0  0  0  0
M  END
> <pdb_id>
4BTK

> <uniprot_id>
Q5TCY1

> <usmiles>
O(c1c(OC)cc2c(ncnc2c1)Nc3cc(O)ccc3)C

$$$$
DTQ_A_500
          07192421083D 1   1.00000     0.00000     0
            
 37 39  0  0  0  0            999 V2000
   -4.1599   27.3678   11.8987 O   0  0  0  0  0  0  0  0  0  0  0  0
    5.1596   26.5091    5.7781 O   0  0  0  0  0  0  0  0  0  0  0  0
    3.7442   25.2450    7.8224 O   0  0  0  0  0  0  0  0  0  0  0  0
    0.2841   30.6607    7.6217 N   0  0  0  0  0  0  0  0  0  0  0  0
    2.2300   30.6339    6.1758 N   0  0  0  0  0  0  0  0  0  0  0  0
   -0.4587   28.7220    8.9670 N   0  0  0  0  0  0  0  0  0  0  0  0
    6.1945   27.0846    4.9717 C   0  0  0  0  0  0  0  0  0  0  0  0
    3.0222   24.4720    8.7873 C   0  0  0  0  0  0  0  0  0  0  0  0
    1.1216   31.2839    6.7102 C   0  0  0  0  0  0  0  0  0  0  0  0
   -3.5758   30.7285   10.2314 C   0  0  0  0  0  0  0  0  0  0  0  0
   -4.1700   29.6801   11.0814 C   0  0  0  0  0  0  0  0  0  0  0  0
   -2.3447   30.4467    9.4725 C   0  0  0  0  0  0  0  0  0  0  0  0
   -2.2713   28.0893   10.4568 C   0  0  0  0  0  0  0  0  0  0  0  0
    3.7528   28.6327    5.9880 C   0  0  0  0  0  0  0  0  0  0  0  0
    2.1307   27.2410    8.0659 C   0  0  0  0  0  0  0  0  0  0  0  0
   -3.5424   28.3557   11.1636 C   0  0  0  0  0  0  0  0  0  0  0  0
    0.4829   29.3059    8.0824 C   0  0  0  0  0  0  0  0  0  0  0  0
    4.1159   27.2548    6.3824 C   0  0  0  0  0  0  0  0  0  0  0  0
    3.3243   26.5616    7.4626 C   0  0  0  0  0  0  0  0  0  0  0  0
   -1.6504   29.1209    9.5940 C   0  0  0  0  0  0  0  0  0  0  0  0
    2.5827   29.3040    6.5669 C   0  0  0  0  0  0  0  0  0  0  0  0
    1.7028   28.5746    7.6128 C   0  0  0  0  0  0  0  0  0  0  0  0
   -3.7451   26.4603   11.9646 H   0  0  0  0  0  0  0  0  0  0  0  0
   -0.2100   27.7834    9.2064 H   0  0  0  0  0  0  0  0  0  0  0  0
    6.8124   26.3636    4.6579 H   0  0  0  0  0  0  0  0  0  0  0  0
    5.7861   27.5410    4.1811 H   0  0  0  0  0  0  0  0  0  0  0  0
    6.7073   27.7508    5.5131 H   0  0  0  0  0  0  0  0  0  0  0  0
    3.4674   23.5842    8.9038 H   0  0  0  0  0  0  0  0  0  0  0  0
    3.0112   24.9567    9.6619 H   0  0  0  0  0  0  0  0  0  0  0  0
    2.0838   24.3353    8.4702 H   0  0  0  0  0  0  0  0  0  0  0  0
    0.9247   32.2234    6.4298 H   0  0  0  0  0  0  0  0  0  0  0  0
   -4.0074   31.6285   10.1702 H   0  0  0  0  0  0  0  0  0  0  0  0
   -5.0017   29.8717   11.6025 H   0  0  0  0  0  0  0  0  0  0  0  0
   -1.9664   31.1480    8.8683 H   0  0  0  0  0  0  0  0  0  0  0  0
   -1.8248   27.2008   10.5626 H   0  0  0  0  0  0  0  0  0  0  0  0
    4.3138   29.1155    5.3155 H   0  0  0  0  0  0  0  0  0  0  0  0
    1.6165   26.7796    8.7889 H   0  0  0  0  0  0  0  0  0  0  0  0
  1 16  1  0  0  0  0
  2  7  1  0  0  0  0
  2 18  1  0  0  0  0
  3  8  1  0  0  0  0
  3 19  1  0  0  0  0
  4  9  1  0  0  0  0
  4 17  2  0  0  0  0
  5  9  2  0  0  0  0
  5 21  1  0  0  0  0
  6 17  1  0  0  0  0
  6 20  1  0  0  0  0
 10 11  1  0  0  0  0
 10 12  2  0  0  0  0
 11 16  2  0  0  0  0
 12 20  1  0  0  0  0
 13 16  1  0  0  0  0
 13 20  2  0  0  0  0
 14 18  1  0  0  0  0
 14 21  2  0  0  0  0
 15 19  1  0  0  0  0
 15 22  2  0  0  0  0
 17 22  1  0  0  0  0
 18 19  2  0  0  0  0
 21 22  1  0  0  0  0
  1 23  1  0  0  0  0
  6 24  1  0  0  0  0
  7 25  1  0  0  0  0
  7 26  1  0  0  0  0
  7 27  1  0  0  0  0
  8 28  1  0  0  0  0
  8 29  1  0  0  0  0
  8 30  1  0  0  0  0
  9 31  1  0  0  0  0
 10 32  1  0  0  0  0
 11 33  1  0  0  0  0
 12 34  1  0  0  0  0
 13 35  1  0  0  0  0
 14 36  1  0  0  0  0
 15 37  1  0  0  0  0
M  END
> <pdb_id>
1DI8

> <uniprot_id>
P24941

> <usmiles>
O(c1c(OC)cc2c(ncnc2c1)Nc3cc(O)ccc3)C

$$$$
DTX_A_700
          07192419063D 1   1.00000     0.00000     0
            
 61 65  0  0  0  0            999 V2000
   14.8898  -21.2494   37.2400 O   0  0  0  0  0  0  0  0  0  0  0  0
    3.7308  -28.5436   37.3233 O   0  0  0  0  0  0  0  0  0  0  0  0
   10.9855  -25.8637   38.8390 O   0  0  0  0  0  0  0  0  0  0  0  0
   14.3613  -23.2265   38.0521 O   0  0  0  0  0  0  0  0  0  0  0  0
    5.6653  -24.9315   39.3350 C   0  0  0  0  0  0  0  0  0  0  0  0
   10.2002  -23.1219   38.0828 C   0  0  0  0  0  0  0  0  0  0  0  0
   13.3632  -24.2387   37.7925 C   0  0  0  0  0  0  0  0  0  0  0  0
    7.1854  -27.7095   39.7961 C   0  0  0  0  0  0  0  0  0  0  0  0
    5.0142  -26.8939   36.0988 C   0  0  0  0  0  0  0  0  0  0  0  0
    8.5680  -27.3345   39.2232 C   0  0  0  0  0  0  0  0  0  0  0  0
   11.7033  -26.0260   36.2445 C   0  0  0  0  0  0  0  0  0  0  0  0
    7.5112  -24.3749   36.8672 C   0  0  0  0  0  0  0  0  0  0  0  0
   10.4179  -26.6798   36.7488 C   0  0  0  0  0  0  0  0  0  0  0  0
    4.8571  -25.9058   37.2475 C   0  0  0  0  0  0  0  0  0  0  0  0
    8.8668  -24.1638   36.2058 C   0  0  0  0  0  0  0  0  0  0  0  0
   13.0192  -22.4959   36.3031 C   0  0  0  0  0  0  0  0  0  0  0  0
    6.1121  -28.4661   37.6809 C   0  0  0  0  0  0  0  0  0  0  0  0
   14.1569  -22.1719   37.1693 C   0  0  0  0  0  0  0  0  0  0  0  0
    5.0051  -28.3043   36.6544 C   0  0  1  0  0  0  0  0  0  0  0  0
   12.5484  -23.7168   36.6689 C   0  0  0  0  0  0  0  0  0  0  0  0
    6.0376  -27.4312   38.8143 C   0  0  2  0  0  0  0  0  0  0  0  0
   11.3362  -24.4933   36.2563 C   0  0  2  0  0  0  0  0  0  0  0  0
    8.5777  -25.9796   38.5104 C   0  0  2  0  0  0  0  0  0  0  0  0
    7.3736  -25.7738   37.5296 C   0  0  1  0  0  0  0  0  0  0  0  0
    9.9429  -25.7313   37.8250 C   0  0  1  0  0  0  0  0  0  0  0  0
    6.0237  -26.0191   38.2688 C   0  0  2  0  0  0  0  0  0  0  0  0
   10.1033  -24.3181   37.1416 C   0  0  1  0  0  0  0  0  0  0  0  0
   14.7753  -20.4714   36.6222 H   0  0  0  0  0  0  0  0  0  0  0  0
    3.7175  -29.4728   37.6926 H   0  0  0  0  0  0  0  0  0  0  0  0
   10.7733  -25.2696   39.6149 H   0  0  0  0  0  0  0  0  0  0  0  0
    6.3649  -24.9218   40.0494 H   0  0  0  0  0  0  0  0  0  0  0  0
    5.6253  -24.0342   38.8954 H   0  0  0  0  0  0  0  0  0  0  0  0
    4.7766  -25.1434   39.7416 H   0  0  0  0  0  0  0  0  0  0  0  0
   10.9960  -23.2301   38.6786 H   0  0  0  0  0  0  0  0  0  0  0  0
   10.2967  -22.2831   37.5469 H   0  0  0  0  0  0  0  0  0  0  0  0
    9.3715  -23.0680   38.6399 H   0  0  0  0  0  0  0  0  0  0  0  0
   13.2464  -25.1092   38.2707 H   0  0  0  0  0  0  0  0  0  0  0  0
    7.0297  -27.1775   40.6284 H   0  0  0  0  0  0  0  0  0  0  0  0
    7.1858  -28.6844   40.0188 H   0  0  0  0  0  0  0  0  0  0  0  0
    5.8798  -26.7250   35.6275 H   0  0  0  0  0  0  0  0  0  0  0  0
    4.2570  -26.7825   35.4552 H   0  0  0  0  0  0  0  0  0  0  0  0
    8.8431  -28.0396   38.5696 H   0  0  0  0  0  0  0  0  0  0  0  0
    9.2259  -27.3026   39.9756 H   0  0  0  0  0  0  0  0  0  0  0  0
   11.9279  -26.3363   35.3207 H   0  0  0  0  0  0  0  0  0  0  0  0
   12.4704  -26.2183   36.8564 H   0  0  0  0  0  0  0  0  0  0  0  0
    6.7986  -24.2793   36.1722 H   0  0  0  0  0  0  0  0  0  0  0  0
    7.3868  -23.6750   37.5706 H   0  0  0  0  0  0  0  0  0  0  0  0
   10.6023  -27.5870   37.1270 H   0  0  0  0  0  0  0  0  0  0  0  0
    9.7430  -26.7555   36.0149 H   0  0  0  0  0  0  0  0  0  0  0  0
    3.9949  -26.0915   37.7188 H   0  0  0  0  0  0  0  0  0  0  0  0
    4.8409  -24.9775   36.8761 H   0  0  0  0  0  0  0  0  0  0  0  0
    8.8827  -23.2394   35.8247 H   0  0  0  0  0  0  0  0  0  0  0  0
    8.9555  -24.8309   35.4661 H   0  0  0  0  0  0  0  0  0  0  0  0
   12.6541  -21.9198   35.5718 H   0  0  0  0  0  0  0  0  0  0  0  0
    6.9928  -28.3681   37.2176 H   0  0  0  0  0  0  0  0  0  0  0  0
    6.0453  -29.3807   38.0798 H   0  0  0  0  0  0  0  0  0  0  0  0
    5.1294  -28.9633   35.9127 H   0  0  0  0  0  0  0  0  0  0  0  0
    5.1774  -27.5769   39.3030 H   0  0  0  0  0  0  0  0  0  0  0  0
   11.0935  -24.2226   35.3248 H   0  0  0  0  0  0  0  0  0  0  0  0
    8.4865  -25.2833   39.2223 H   0  0  0  0  0  0  0  0  0  0  0  0
    7.4516  -26.4600   36.8064 H   0  0  0  0  0  0  0  0  0  0  0  0
  1 18  1  0  0  0  0
  2 19  1  0  0  0  0
  3 25  1  0  0  0  0
  4  7  1  0  0  0  0
  4 18  1  0  0  0  0
  5 26  1  0  0  0  0
  6 27  1  0  0  0  0
  7 20  2  0  0  0  0
  8 10  1  0  0  0  0
  8 21  1  0  0  0  0
  9 14  1  0  0  0  0
  9 19  1  0  0  0  0
 10 23  1  0  0  0  0
 11 13  1  0  0  0  0
 11 22  1  0  0  0  0
 12 15  1  0  0  0  0
 12 24  1  0  0  0  0
 13 25  1  0  0  0  0
 14 26  1  0  0  0  0
 15 27  1  0  0  0  0
 16 18  2  0  0  0  0
 16 20  1  0  0  0  0
 17 19  1  0  0  0  0
 17 21  1  0  0  0  0
 20 22  1  0  0  0  0
 21 26  1  0  0  0  0
 22 27  1  0  0  0  0
 23 24  1  0  0  0  0
 23 25  1  0  0  0  0
 24 26  1  0  0  0  0
 25 27  1  0  0  0  0
  1 28  1  0  0  0  0
  2 29  1  0  0  0  0
  3 30  1  0  0  0  0
  5 31  1  0  0  0  0
  5 32  1  0  0  0  0
  5 33  1  0  0  0  0
  6 34  1  0  0  0  0
  6 35  1  0  0  0  0
  6 36  1  0  0  0  0
  7 37  1  0  0  0  0
  8 38  1  0  0  0  0
  8 39  1  0  0  0  0
  9 40  1  0  0  0  0
  9 41  1  0  0  0  0
 10 42  1  0  0  0  0
 10 43  1  0  0  0  0
 11 44  1  0  0  0  0
 11 45  1  0  0  0  0
 12 46  1  0  0  0  0
 12 47  1  0  0  0  0
 13 48  1  0  0  0  0
 13 49  1  0  0  0  0
 14 50  1  0  0  0  0
 14 51  1  0  0  0  0
 15 52  1  0  0  0  0
 15 53  1  0  0  0  0
 16 54  1  0  0  0  0
 17 55  1  0  0  0  0
 17 56  1  0  0  0  0
 19 57  1  0  0  0  0
 21 58  1  0  0  0  0
 22 59  1  0  0  0  0
 23 60  1  0  0  0  0
 24 61  1  0  0  0  0
M  END
> <pdb_id>
1LNM

> <uniprot_id>
P09464

> <usmiles>
O1C(O)=CC(=C1)[C@@H]2[C@@]3([C@@](O)([C@H]4[C@@H]([C@@]5([C@@H](C[C@@H](O)CC5)CC4)C)CC3)CC2)C

$$$$
DTY_A_505
          07202409323D 1   1.00000     0.00000     0
            
 24 24  0  0  0  0            999 V2000
  -83.4610   61.7050  -16.3800 O   0  0  0  0  0  0  0  0  0  0  0  0
  -83.0690   59.9490  -15.1530 O   0  0  0  0  0  0  0  0  0  0  0  0
  -83.8630   67.9780  -15.4560 O   0  0  0  0  0  0  0  0  0  0  0  0
  -81.0950   61.0700  -13.6670 N   0  0  0  0  0  0  0  0  0  0  0  0
  -84.5970   65.9050  -14.5850 C   0  0  0  0  0  0  0  0  0  0  0  0
  -82.2780   66.2620  -15.0800 C   0  0  0  0  0  0  0  0  0  0  0  0
  -84.3050   64.6390  -14.1390 C   0  0  0  0  0  0  0  0  0  0  0  0
  -81.9870   64.9800  -14.6250 C   0  0  0  0  0  0  0  0  0  0  0  0
  -82.7580   62.7620  -13.6550 C   0  0  0  0  0  0  0  0  0  0  0  0
  -82.8720   61.0960  -15.4170 C   0  0  0  0  0  0  0  0  0  0  0  0
  -83.5840   66.7230  -15.0410 C   0  0  0  0  0  0  0  0  0  0  0  0
  -81.9550   61.9730  -14.5840 C   0  0  2  0  0  0  0  0  0  0  0  0
  -83.0110   64.1670  -14.1750 C   0  0  0  0  0  0  0  0  0  0  0  0
  -83.2603   62.6680  -16.5597 H   0  0  0  0  0  0  0  0  0  0  0  0
  -83.1282   68.5703  -15.7864 H   0  0  0  0  0  0  0  0  0  0  0  0
  -80.5067   60.4884  -14.2288 H   0  0  0  0  0  0  0  0  0  0  0  0
  -80.5291   61.6413  -13.0725 H   0  0  0  0  0  0  0  0  0  0  0  0
  -85.5417   66.2329  -14.5792 H   0  0  0  0  0  0  0  0  0  0  0  0
  -81.5485   66.8477  -15.4333 H   0  0  0  0  0  0  0  0  0  0  0  0
  -85.0366   64.0559  -13.7858 H   0  0  0  0  0  0  0  0  0  0  0  0
  -81.0435   64.6486  -14.6234 H   0  0  0  0  0  0  0  0  0  0  0  0
  -82.2749   62.8229  -12.7815 H   0  0  0  0  0  0  0  0  0  0  0  0
  -83.6369   62.3048  -13.5187 H   0  0  0  0  0  0  0  0  0  0  0  0
  -81.3843   62.5571  -15.1611 H   0  0  0  0  0  0  0  0  0  0  0  0
  1 10  1  0  0  0  0
  2 10  2  0  0  0  0
  3 11  1  0  0  0  0
  4 12  1  0  0  0  0
  5  7  1  0  0  0  0
  5 11  2  0  0  0  0
  6  8  2  0  0  0  0
  6 11  1  0  0  0  0
  7 13  2  0  0  0  0
  8 13  1  0  0  0  0
  9 12  1  0  0  0  0
  9 13  1  0  0  0  0
 10 12  1  0  0  0  0
  1 14  1  0  0  0  0
  3 15  1  0  0  0  0
  4 16  1  0  0  0  0
  4 17  1  0  0  0  0
  5 18  1  0  0  0  0
  6 19  1  0  0  0  0
  7 20  1  0  0  0  0
  8 21  1  0  0  0  0
  9 22  1  0  0  0  0
  9 23  1  0  0  0  0
 12 24  1  0  0  0  0
M  END
> <pdb_id>
5E4N

> <uniprot_id>
nan

> <usmiles>
O=C(O)[C@H](N)Cc1ccc(O)cc1

$$$$
DUH_A_401
          07212403373D 1   1.00000     0.00000     0
            
 40 43  0  0  0  0            999 V2000
   31.9019  -12.8522  -21.7699 F   0  0  0  0  0  0  0  0  0  0  0  0
   34.3012  -10.9059  -25.3813 F   0  0  0  0  0  0  0  0  0  0  0  0
   31.1560  -10.3719  -20.9222 F   0  0  0  0  0  0  0  0  0  0  0  0
   33.5655   -8.4456  -24.5606 F   0  0  0  0  0  0  0  0  0  0  0  0
   33.6935  -15.1011  -26.0640 O   0  0  0  0  0  0  0  0  0  0  0  0
   34.4676  -13.7238  -22.0324 O   0  0  0  0  0  0  0  0  0  0  0  0
   34.2954  -17.1549  -25.2084 N   0  0  0  0  0  0  0  0  0  0  0  0
   33.5031  -13.1924  -24.0191 N   0  0  0  0  0  0  0  0  0  0  0  0
   34.6914  -17.5454  -23.9186 N   0  0  0  0  0  0  0  0  0  0  0  0
   34.9979  -18.8933  -23.5966 C   0  0  0  0  0  0  0  0  0  0  0  0
   35.4054  -19.1765  -22.2834 C   0  0  0  0  0  0  0  0  0  0  0  0
   31.4590   -5.3687  -21.3218 C   0  0  0  0  0  0  0  0  0  0  0  0
   35.5213  -18.1048  -21.3202 C   0  0  0  0  0  0  0  0  0  0  0  0
   32.0856   -6.2273  -20.5303 C   0  0  0  0  0  0  0  0  0  0  0  0
   31.0439   -5.7860  -22.7074 C   0  0  0  0  0  0  0  0  0  0  0  0
   35.1908  -16.7665  -21.7001 C   0  0  0  0  0  0  0  0  0  0  0  0
   32.3966   -7.6421  -20.9831 C   0  0  0  0  0  0  0  0  0  0  0  0
   31.3081   -7.0195  -23.1689 C   0  0  0  0  0  0  0  0  0  0  0  0
   34.1220  -15.8365  -25.0286 C   0  0  0  0  0  0  0  0  0  0  0  0
   34.2391  -14.0670  -23.1599 C   0  0  0  0  0  0  0  0  0  0  0  0
   32.3467  -11.7948  -22.4627 C   0  0  0  0  0  0  0  0  0  0  0  0
   33.5277  -10.7131  -24.3009 C   0  0  0  0  0  0  0  0  0  0  0  0
   31.9108  -10.4530  -22.0142 C   0  0  0  0  0  0  0  0  0  0  0  0
   33.1612   -9.5415  -23.8938 C   0  0  0  0  0  0  0  0  0  0  0  0
   33.1101  -11.9118  -23.5585 C   0  0  0  0  0  0  0  0  0  0  0  0
   34.8068  -16.5179  -23.0052 C   0  0  0  0  0  0  0  0  0  0  0  0
   31.9849   -7.9927  -22.2390 C   0  0  0  0  0  0  0  0  0  0  0  0
   34.4532  -15.4458  -23.7276 C   0  0  0  0  0  0  0  0  0  0  0  0
   32.3235   -9.3800  -22.6790 C   0  0  0  0  0  0  0  0  0  0  0  0
   34.1756  -17.7073  -26.0333 H   0  0  0  0  0  0  0  0  0  0  0  0
   33.2657  -13.4849  -24.9455 H   0  0  0  0  0  0  0  0  0  0  0  0
   34.9259  -19.6174  -24.2826 H   0  0  0  0  0  0  0  0  0  0  0  0
   35.6149  -20.1168  -22.0151 H   0  0  0  0  0  0  0  0  0  0  0  0
   31.2619   -4.4431  -20.9985 H   0  0  0  0  0  0  0  0  0  0  0  0
   35.8320  -18.2990  -20.3898 H   0  0  0  0  0  0  0  0  0  0  0  0
   32.3598   -5.9363  -19.6137 H   0  0  0  0  0  0  0  0  0  0  0  0
   30.5634   -5.1341  -23.2940 H   0  0  0  0  0  0  0  0  0  0  0  0
   35.2365  -16.0228  -21.0332 H   0  0  0  0  0  0  0  0  0  0  0  0
   32.8797   -8.2872  -20.3910 H   0  0  0  0  0  0  0  0  0  0  0  0
   31.0630   -7.2839  -24.1016 H   0  0  0  0  0  0  0  0  0  0  0  0
  1 21  1  0  0  0  0
  2 22  1  0  0  0  0
  3 23  1  0  0  0  0
  4 24  1  0  0  0  0
  5 19  2  0  0  0  0
  6 20  2  0  0  0  0
  7  9  1  0  0  0  0
  7 19  1  0  0  0  0
  8 20  1  0  0  0  0
  8 25  1  0  0  0  0
  9 10  1  0  0  0  0
  9 26  1  0  0  0  0
 10 11  2  0  0  0  0
 11 13  1  0  0  0  0
 12 14  2  0  0  0  0
 12 15  1  0  0  0  0
 13 16  2  0  0  0  0
 14 17  1  0  0  0  0
 15 18  2  0  0  0  0
 16 26  1  0  0  0  0
 17 27  2  0  0  0  0
 18 27  1  0  0  0  0
 19 28  1  0  0  0  0
 20 28  1  0  0  0  0
 21 23  2  0  0  0  0
 21 25  1  0  0  0  0
 22 24  1  0  0  0  0
 22 25  2  0  0  0  0
 23 29  1  0  0  0  0
 24 29  2  0  0  0  0
 26 28  2  0  0  0  0
 27 29  1  0  0  0  0
  7 30  1  0  0  0  0
  8 31  1  0  0  0  0
 10 32  1  0  0  0  0
 11 33  1  0  0  0  0
 12 34  1  0  0  0  0
 13 35  1  0  0  0  0
 14 36  1  0  0  0  0
 15 37  1  0  0  0  0
 16 38  1  0  0  0  0
 17 39  1  0  0  0  0
 18 40  1  0  0  0  0
M  END
> <pdb_id>
6FMD

> <uniprot_id>
Q02127

> <usmiles>
Fc1c(F)c(c(F)c(F)c1NC(=O)C=2C(=O)NN3C2C=CC=C3)c4ccccc4

$$$$
DUR_A_1266
          07202400203D 1   1.00000     0.00000     0
            
 28 29  0  0  0  0            999 V2000
  -47.2749   36.6031  -37.6542 O   0  0  0  0  0  0  0  0  0  0  0  0
  -52.3046   41.6375  -36.5555 O   0  0  0  0  0  0  0  0  0  0  0  0
  -50.0606   44.9163  -34.5682 O   0  0  0  0  0  0  0  0  0  0  0  0
  -50.6230   37.3988  -38.2740 O   0  0  0  0  0  0  0  0  0  0  0  0
  -49.3447   38.8340  -35.5519 O   0  0  0  0  0  0  0  0  0  0  0  0
  -51.1998   43.2818  -35.5962 N   0  0  0  0  0  0  0  0  0  0  0  0
  -50.2457   41.1002  -35.6321 N   0  0  0  0  0  0  0  0  0  0  0  0
  -47.6108   37.4123  -36.5056 C   0  0  0  0  0  0  0  0  0  0  0  0
  -49.1755   41.5338  -34.9733 C   0  0  0  0  0  0  0  0  0  0  0  0
  -49.1083   42.8613  -34.6001 C   0  0  0  0  0  0  0  0  0  0  0  0
  -50.0851   39.6834  -37.5775 C   0  0  0  0  0  0  0  0  0  0  0  0
  -51.2917   42.0028  -35.9404 C   0  0  0  0  0  0  0  0  0  0  0  0
  -50.1410   43.7207  -34.9123 C   0  0  0  0  0  0  0  0  0  0  0  0
  -50.3228   39.7177  -36.0794 C   0  0  1  0  0  0  0  0  0  0  0  0
  -49.5837   38.2774  -37.8302 C   0  0  1  0  0  0  0  0  0  0  0  0
  -49.0921   37.7923  -36.4839 C   0  0  2  0  0  0  0  0  0  0  0  0
  -46.3009   36.3776  -37.6298 H   0  0  0  0  0  0  0  0  0  0  0  0
  -50.2449   36.4858  -38.4270 H   0  0  0  0  0  0  0  0  0  0  0  0
  -51.9272   43.9192  -35.8505 H   0  0  0  0  0  0  0  0  0  0  0  0
  -47.0635   38.2489  -36.5292 H   0  0  0  0  0  0  0  0  0  0  0  0
  -47.3976   36.8978  -35.6750 H   0  0  0  0  0  0  0  0  0  0  0  0
  -48.4290   40.9066  -34.7509 H   0  0  0  0  0  0  0  0  0  0  0  0
  -48.3097   43.2003  -34.1028 H   0  0  0  0  0  0  0  0  0  0  0  0
  -49.3992   40.3600  -37.8452 H   0  0  0  0  0  0  0  0  0  0  0  0
  -50.9344   39.8541  -38.0771 H   0  0  0  0  0  0  0  0  0  0  0  0
  -51.2343   39.3572  -35.8815 H   0  0  0  0  0  0  0  0  0  0  0  0
  -48.8330   38.2894  -38.4907 H   0  0  0  0  0  0  0  0  0  0  0  0
  -49.6252   36.9889  -36.2187 H   0  0  0  0  0  0  0  0  0  0  0  0
  1  8  1  0  0  0  0
  2 12  2  0  0  0  0
  3 13  2  0  0  0  0
  4 15  1  0  0  0  0
  5 14  1  0  0  0  0
  5 16  1  0  0  0  0
  6 12  1  0  0  0  0
  6 13  1  0  0  0  0
  7  9  1  0  0  0  0
  7 12  1  0  0  0  0
  7 14  1  0  0  0  0
  8 16  1  0  0  0  0
  9 10  2  0  0  0  0
 10 13  1  0  0  0  0
 11 14  1  0  0  0  0
 11 15  1  0  0  0  0
 15 16  1  0  0  0  0
  1 17  1  0  0  0  0
  4 18  1  0  0  0  0
  6 19  1  0  0  0  0
  8 20  1  0  0  0  0
  8 21  1  0  0  0  0
  9 22  1  0  0  0  0
 10 23  1  0  0  0  0
 11 24  1  0  0  0  0
 11 25  1  0  0  0  0
 14 26  1  0  0  0  0
 15 27  1  0  0  0  0
 16 28  1  0  0  0  0
M  END
> <pdb_id>
2YB0

> <uniprot_id>
O15826

> <usmiles>
O=C1N(C=CC(=O)N1)[C@@H]2O[C@@H]([C@@H](O)C2)CO

$$$$
DV1_A_1716
          07202405173D 1   1.00000     0.00000     0
            
 33 34  0  0  0  0            999 V2000
   27.4616    1.0963  292.7181 S   0  0  0  0  0  0  0  0  0  0  0  0
   26.2702    3.0730  287.7727 O   0  0  0  0  0  0  0  0  0  0  0  0
   27.8842    5.1631  289.9203 O   0  0  0  0  0  0  0  0  0  0  0  0
   30.3056    4.0727  290.8539 O   0  0  0  0  0  0  0  0  0  0  0  0
   27.0225    1.6225  290.0858 O   0  0  0  0  0  0  0  0  0  0  0  0
   29.8658    1.5579  292.3857 N   0  0  0  0  0  0  0  0  0  0  0  0
   29.3446    1.1181  294.5739 N   0  0  0  0  0  0  0  0  0  0  0  0
   28.4849    0.1755  297.9744 C   0  0  0  0  0  0  0  0  0  0  0  0
   29.0916    0.2210  296.8034 C   0  0  0  0  0  0  0  0  0  0  0  0
   25.7790    3.4407  289.0662 C   0  0  0  0  0  0  0  0  0  0  0  0
   28.3733    0.7248  295.5680 C   0  0  0  0  0  0  0  0  0  0  0  0
   29.0232    1.2746  293.2957 C   0  0  0  0  0  0  0  0  0  0  0  0
   27.9864    1.1007  291.0176 C   0  0  1  0  0  0  0  0  0  0  0  0
   28.1048    3.7517  289.9027 C   0  0  1  0  0  0  0  0  0  0  0  0
   29.0647    3.3835  291.0272 C   0  0  1  0  0  0  0  0  0  0  0  0
   26.8010    3.0320  290.1355 C   0  0  2  0  0  0  0  0  0  0  0  0
   29.3012    1.8816  291.0606 C   0  0  1  0  0  0  0  0  0  0  0  0
   25.6272    3.3300  287.0984 H   0  0  0  0  0  0  0  0  0  0  0  0
   28.7222    5.6214  289.7700 H   0  0  0  0  0  0  0  0  0  0  0  0
   30.8977    3.8607  291.5885 H   0  0  0  0  0  0  0  0  0  0  0  0
   30.3020    1.2446  294.8685 H   0  0  0  0  0  0  0  0  0  0  0  0
   29.0141   -0.1859  298.8407 H   0  0  0  0  0  0  0  0  0  0  0  0
   27.4620    0.4996  298.0643 H   0  0  0  0  0  0  0  0  0  0  0  0
   30.1145   -0.1052  296.7244 H   0  0  0  0  0  0  0  0  0  0  0  0
   24.8256    2.9418  289.2553 H   0  0  0  0  0  0  0  0  0  0  0  0
   25.6130    4.5198  289.1052 H   0  0  0  0  0  0  0  0  0  0  0  0
   27.7439    1.5788  295.8284 H   0  0  0  0  0  0  0  0  0  0  0  0
   27.7315   -0.0624  295.1666 H   0  0  0  0  0  0  0  0  0  0  0  0
   28.2276    0.0692  290.7241 H   0  0  0  0  0  0  0  0  0  0  0  0
   28.5301    3.4372  288.9395 H   0  0  0  0  0  0  0  0  0  0  0  0
   28.6098    3.6831  291.9816 H   0  0  0  0  0  0  0  0  0  0  0  0
   26.4118    3.3152  291.1234 H   0  0  0  0  0  0  0  0  0  0  0  0
   29.9687    1.5703  290.2449 H   0  0  0  0  0  0  0  0  0  0  0  0
  1 12  1  0  0  0  0
  1 13  1  0  0  0  0
  2 10  1  0  0  0  0
  2 18  1  0  0  0  0
  3 14  1  0  0  0  0
  3 19  1  0  0  0  0
  4 15  1  0  0  0  0
  4 20  1  0  0  0  0
  5 13  1  0  0  0  0
  5 16  1  0  0  0  0
  6 12  2  0  0  0  0
  6 17  1  0  0  0  0
  7 11  1  0  0  0  0
  7 12  1  0  0  0  0
  7 21  1  0  0  0  0
  8  9  2  0  0  0  0
  8 22  1  0  0  0  0
  8 23  1  0  0  0  0
  9 11  1  0  0  0  0
  9 24  1  0  0  0  0
 10 16  1  0  0  0  0
 10 25  1  0  0  0  0
 10 26  1  0  0  0  0
 11 27  1  0  0  0  0
 11 28  1  0  0  0  0
 13 17  1  0  0  0  0
 13 29  1  0  0  0  0
 14 15  1  0  0  0  0
 14 16  1  0  0  0  0
 14 30  1  0  0  0  0
 15 17  1  0  0  0  0
 15 31  1  0  0  0  0
 16 32  1  0  0  0  0
 17 33  1  0  0  0  0
M  END
> <pdb_id>
5FL1

> <uniprot_id>
Q89ZI2

> <usmiles>
S1C(=N[C@H]2[C@@H]1O[C@@H]([C@@H](O)[C@@H]2O)CO)NCC=C

$$$$
DVD_A_705
          07202413473D 1   1.00000     0.00000     0
            
 63 68  0  0  0  0            999 V2000
   99.9360  115.2320   -5.2360 S   0  0  0  0  0  0  0  0  0  0  0  0
   97.2760  111.7210   -8.4150 O   0  0  0  0  0  0  0  0  0  0  0  0
   99.9410  114.3630   -8.0450 O   0  0  0  0  0  0  0  0  0  0  0  0
   95.6390  107.9480  -13.3240 O   0  0  0  0  0  0  0  0  0  0  0  0
   97.2580  110.4660  -11.5300 N   0  0  0  0  0  0  0  0  0  0  0  0
   95.2330  111.9930  -16.0900 N   0  0  0  0  0  0  0  0  0  0  0  0
   97.8360  114.7950   -8.6920 N   0  0  0  0  0  0  0  0  0  0  0  0
   95.0820  109.9090  -14.9690 N   0  0  0  0  0  0  0  0  0  0  0  0
   96.7690  109.2260  -11.8880 N   0  0  0  0  0  0  0  0  0  0  0  0
   94.9690  112.4210  -17.3750 N   0  0  0  0  0  0  0  0  0  0  0  0
   94.1840  112.9220  -19.9980 N   0  0  0  0  0  0  0  0  0  0  0  0
   94.2180  112.9980  -21.4720 C   0  0  0  0  0  0  0  0  0  0  0  0
   96.5910  112.3720   -9.4880 C   0  0  0  0  0  0  0  0  0  0  0  0
   95.1200  113.7950  -17.8640 C   0  0  0  0  0  0  0  0  0  0  0  0
   95.2800  113.6960  -19.3970 C   0  0  0  0  0  0  0  0  0  0  0  0
   94.1710  111.4970  -19.5760 C   0  0  0  0  0  0  0  0  0  0  0  0
   98.2720  116.3710   -1.7050 C   0  0  0  0  0  0  0  0  0  0  0  0
   96.9550  116.4600   -2.1260 C   0  0  0  0  0  0  0  0  0  0  0  0
   98.9390  114.7480  -12.2410 C   0  0  0  0  0  0  0  0  0  0  0  0
   99.2520  115.9990   -2.5940 C   0  0  0  0  0  0  0  0  0  0  0  0
   98.7610  115.1360  -10.9280 C   0  0  0  0  0  0  0  0  0  0  0  0
   96.6020  116.1870   -3.4120 C   0  0  0  0  0  0  0  0  0  0  0  0
   98.3770  113.5640  -12.6640 C   0  0  0  0  0  0  0  0  0  0  0  0
   94.5120  110.3070  -17.3350 C   0  0  0  0  0  0  0  0  0  0  0  0
   96.2910  111.4470  -13.4840 C   0  0  0  0  0  0  0  0  0  0  0  0
   97.4160  115.4860   -5.7350 C   0  0  0  0  0  0  0  0  0  0  0  0
   98.8160  114.7700   -7.7570 C   0  0  0  0  0  0  0  0  0  0  0  0
   96.0650  109.0760  -13.0110 C   0  0  0  0  0  0  0  0  0  0  0  0
   94.9600  110.7180  -16.0650 C   0  0  0  0  0  0  0  0  0  0  0  0
   98.5850  115.1810   -6.3640 C   0  0  0  0  0  0  0  0  0  0  0  0
   98.9040  115.7180   -3.9090 C   0  0  0  0  0  0  0  0  0  0  0  0
   97.0360  111.5310  -12.2750 C   0  0  0  0  0  0  0  0  0  0  0  0
   95.8120  110.1930  -13.8270 C   0  0  0  0  0  0  0  0  0  0  0  0
   98.0290  114.3780  -10.0240 C   0  0  0  0  0  0  0  0  0  0  0  0
   94.5310  111.3890  -18.1070 C   0  0  0  0  0  0  0  0  0  0  0  0
   97.5690  115.8070   -4.3630 C   0  0  0  0  0  0  0  0  0  0  0  0
   97.4480  113.1780  -10.4380 C   0  0  0  0  0  0  0  0  0  0  0  0
   97.6250  112.7910  -11.7830 C   0  0  0  0  0  0  0  0  0  0  0  0
   96.9480  108.4570  -11.3250 H   0  0  0  0  0  0  0  0  0  0  0  0
   96.6168  111.2207   -7.8536 H   0  0  0  0  0  0  0  0  0  0  0  0
   96.9312  115.1256   -8.4237 H   0  0  0  0  0  0  0  0  0  0  0  0
   94.6004  109.0330  -14.9946 H   0  0  0  0  0  0  0  0  0  0  0  0
   93.4626  112.4633  -21.8509 H   0  0  0  0  0  0  0  0  0  0  0  0
   94.1280  113.9518  -21.7588 H   0  0  0  0  0  0  0  0  0  0  0  0
   95.0864  112.6304  -21.8048 H   0  0  0  0  0  0  0  0  0  0  0  0
   95.9153  112.9908   -9.0873 H   0  0  0  0  0  0  0  0  0  0  0  0
   96.1229  111.6682  -10.0223 H   0  0  0  0  0  0  0  0  0  0  0  0
   95.9294  114.2197  -17.4583 H   0  0  0  0  0  0  0  0  0  0  0  0
   94.3100  114.3348  -17.6348 H   0  0  0  0  0  0  0  0  0  0  0  0
   95.2793  114.6176  -19.7851 H   0  0  0  0  0  0  0  0  0  0  0  0
   96.1488  113.2471  -19.6058 H   0  0  0  0  0  0  0  0  0  0  0  0
   94.8365  110.9846  -20.1188 H   0  0  0  0  0  0  0  0  0  0  0  0
   93.2579  111.1165  -19.7222 H   0  0  0  0  0  0  0  0  0  0  0  0
   98.5092  116.5771   -0.7557 H   0  0  0  0  0  0  0  0  0  0  0  0
   96.2490  116.7304   -1.4714 H   0  0  0  0  0  0  0  0  0  0  0  0
   99.4661  115.3161  -12.8730 H   0  0  0  0  0  0  0  0  0  0  0  0
  100.2046  115.9314   -2.2975 H   0  0  0  0  0  0  0  0  0  0  0  0
   99.1735  115.9924  -10.6175 H   0  0  0  0  0  0  0  0  0  0  0  0
   95.6427  116.2572   -3.6854 H   0  0  0  0  0  0  0  0  0  0  0  0
   98.5094  113.2584  -13.6069 H   0  0  0  0  0  0  0  0  0  0  0  0
   94.2346  109.3844  -17.6030 H   0  0  0  0  0  0  0  0  0  0  0  0
   96.1221  112.2499  -14.0556 H   0  0  0  0  0  0  0  0  0  0  0  0
   96.5302  115.4837   -6.1991 H   0  0  0  0  0  0  0  0  0  0  0  0
  1 30  1  0  0  0  0
  1 31  1  0  0  0  0
  2 13  1  0  0  0  0
  3 27  2  0  0  0  0
  4 28  2  0  0  0  0
  5  9  1  0  0  0  0
  5 32  2  0  0  0  0
  6 10  1  0  0  0  0
  6 29  2  0  0  0  0
  7 27  1  0  0  0  0
  7 34  1  0  0  0  0
  8 29  1  0  0  0  0
  8 33  1  0  0  0  0
  9 28  1  0  0  0  0
  9 39  1  0  0  0  0
 10 14  1  0  0  0  0
 10 35  1  0  0  0  0
 11 12  1  0  0  0  0
 11 15  1  0  0  0  0
 11 16  1  0  0  0  0
 13 37  1  0  0  0  0
 14 15  1  0  0  0  0
 16 35  1  0  0  0  0
 17 18  2  0  0  0  0
 17 20  1  0  0  0  0
 18 22  1  0  0  0  0
 19 21  2  0  0  0  0
 19 23  1  0  0  0  0
 20 31  2  0  0  0  0
 21 34  1  0  0  0  0
 22 36  2  0  0  0  0
 23 38  2  0  0  0  0
 24 29  1  0  0  0  0
 24 35  2  0  0  0  0
 25 32  1  0  0  0  0
 25 33  2  0  0  0  0
 26 30  2  0  0  0  0
 26 36  1  0  0  0  0
 27 30  1  0  0  0  0
 28 33  1  0  0  0  0
 31 36  1  0  0  0  0
 32 38  1  0  0  0  0
 34 37  2  0  0  0  0
 37 38  1  0  0  0  0
  2 40  1  0  0  0  0
  7 41  1  0  0  0  0
  8 42  1  0  0  0  0
 12 43  1  0  0  0  0
 12 44  1  0  0  0  0
 12 45  1  0  0  0  0
 13 46  1  0  0  0  0
 13 47  1  0  0  0  0
 14 48  1  0  0  0  0
 14 49  1  0  0  0  0
 15 50  1  0  0  0  0
 15 51  1  0  0  0  0
 16 52  1  0  0  0  0
 16 53  1  0  0  0  0
 17 54  1  0  0  0  0
 18 55  1  0  0  0  0
 19 56  1  0  0  0  0
 20 57  1  0  0  0  0
 21 58  1  0  0  0  0
 22 59  1  0  0  0  0
 23 60  1  0  0  0  0
 24 61  1  0  0  0  0
 25 62  1  0  0  0  0
 26 63  1  0  0  0  0
M  END
> <pdb_id>
6BKH

> <uniprot_id>
Q06187

> <usmiles>
S1c2c(cccc2)C=C1C(=O)Nc3c(c(ccc3)C4=NNC(=O)C(NC5=NN6C(=C5)CN(CC6)C)=C4)CO

$$$$
DWX_A_936
          07192420443D 1   1.00000     0.00000     0
            
 53 56  0  0  0  0            999 V2000
    7.5993  -22.9680   46.7283 Cl  0  0  0  0  0  0  0  0  0  0  0  0
    8.7975  -20.4899   48.2109 Cl  0  0  0  0  0  0  0  0  0  0  0  0
   10.6587  -21.8168   53.1259 S   0  0  0  0  0  0  0  0  0  0  0  0
    8.0832  -23.0646   55.7229 O   0  0  0  0  0  0  0  0  0  0  0  0
   19.9926  -24.2260   52.2732 O   0  0  0  0  0  0  0  0  0  0  0  0
   20.6300  -21.9834   51.1268 O   0  0  0  0  0  0  0  0  0  0  0  0
   10.2778  -22.0351   55.5668 N   0  0  0  0  0  0  0  0  0  0  0  0
   15.1708  -21.4945   55.8344 N   0  0  0  0  0  0  0  0  0  0  0  0
   12.5061  -21.0065   55.0783 N   0  0  0  0  0  0  0  0  0  0  0  0
   14.0613  -21.7895   56.7235 C   0  0  0  0  0  0  0  0  0  0  0  0
   14.7618  -21.3573   54.4589 C   0  0  0  0  0  0  0  0  0  0  0  0
   12.8228  -20.9831   56.4701 C   0  0  0  0  0  0  0  0  0  0  0  0
   13.5479  -20.5211   54.2557 C   0  0  0  0  0  0  0  0  0  0  0  0
   19.0959  -19.8522   54.9787 C   0  0  0  0  0  0  0  0  0  0  0  0
   16.3700  -22.2952   56.0651 C   0  0  0  0  0  0  0  0  0  0  0  0
    7.3031  -24.0785   49.1834 C   0  0  0  0  0  0  0  0  0  0  0  0
   17.9974  -20.4336   55.6695 C   0  0  0  0  0  0  0  0  0  0  0  0
   19.7200  -20.5702   53.9425 C   0  0  0  0  0  0  0  0  0  0  0  0
    7.4089  -24.0771   50.5876 C   0  0  0  0  0  0  0  0  0  0  0  0
    8.3761  -21.8482   50.5374 C   0  0  0  0  0  0  0  0  0  0  0  0
    8.0144  -23.0243   52.7693 C   0  0  0  0  0  0  0  0  0  0  0  0
   18.1511  -22.4388   54.2886 C   0  0  0  0  0  0  0  0  0  0  0  0
   11.2221  -21.5643   54.6943 C   0  0  0  0  0  0  0  0  0  0  0  0
    7.7363  -22.9682   48.4613 C   0  0  0  0  0  0  0  0  0  0  0  0
    8.2732  -21.8527   49.1253 C   0  0  0  0  0  0  0  0  0  0  0  0
    9.1497  -22.5505   54.9525 C   0  0  0  0  0  0  0  0  0  0  0  0
    9.1431  -22.5341   53.5560 C   0  0  0  0  0  0  0  0  0  0  0  0
   17.5331  -21.7169   55.3277 C   0  0  0  0  0  0  0  0  0  0  0  0
    7.9579  -22.9655   51.2656 C   0  0  0  0  0  0  0  0  0  0  0  0
   19.2556  -21.8576   53.5938 C   0  0  0  0  0  0  0  0  0  0  0  0
   20.1095  -22.7488   52.2931 B   0  0  0  0  0  0  0  0  0  0  0  0
    7.2723  -23.4348   55.2698 H   0  0  0  0  0  0  0  0  0  0  0  0
   19.6242  -24.5430   53.1472 H   0  0  0  0  0  0  0  0  0  0  0  0
   20.6285  -21.0067   51.3416 H   0  0  0  0  0  0  0  0  0  0  0  0
   14.3596  -21.6153   57.6620 H   0  0  0  0  0  0  0  0  0  0  0  0
   13.8292  -22.7568   56.6215 H   0  0  0  0  0  0  0  0  0  0  0  0
   14.5762  -22.2704   54.0957 H   0  0  0  0  0  0  0  0  0  0  0  0
   15.5155  -20.9426   53.9490 H   0  0  0  0  0  0  0  0  0  0  0  0
   12.0620  -21.3711   56.9901 H   0  0  0  0  0  0  0  0  0  0  0  0
   12.9770  -20.0384   56.7595 H   0  0  0  0  0  0  0  0  0  0  0  0
   13.7510  -19.5724   54.4979 H   0  0  0  0  0  0  0  0  0  0  0  0
   13.2665  -20.5675   53.2972 H   0  0  0  0  0  0  0  0  0  0  0  0
   19.4222  -18.9403   55.2276 H   0  0  0  0  0  0  0  0  0  0  0  0
   16.2090  -23.2291   55.7458 H   0  0  0  0  0  0  0  0  0  0  0  0
   16.5741  -22.3081   57.0440 H   0  0  0  0  0  0  0  0  0  0  0  0
    6.9200  -24.8704   48.7080 H   0  0  0  0  0  0  0  0  0  0  0  0
   17.5504  -19.9252   56.4056 H   0  0  0  0  0  0  0  0  0  0  0  0
   20.4935  -20.1685   53.4522 H   0  0  0  0  0  0  0  0  0  0  0  0
    7.0929  -24.8695   51.1094 H   0  0  0  0  0  0  0  0  0  0  0  0
    8.7462  -21.0494   51.0116 H   0  0  0  0  0  0  0  0  0  0  0  0
    7.2158  -22.5164   53.0923 H   0  0  0  0  0  0  0  0  0  0  0  0
    7.9143  -23.9901   53.0084 H   0  0  0  0  0  0  0  0  0  0  0  0
   17.8203  -23.3491   54.0397 H   0  0  0  0  0  0  0  0  0  0  0  0
  1 24  1  0  0  0  0
  2 25  1  0  0  0  0
  3 23  1  0  0  0  0
  3 27  1  0  0  0  0
  4 26  1  0  0  0  0
  5 31  1  0  0  0  0
  6 31  1  0  0  0  0
  7 23  2  0  0  0  0
  7 26  1  0  0  0  0
  8 10  1  0  0  0  0
  8 11  1  0  0  0  0
  8 15  1  0  0  0  0
  9 12  1  0  0  0  0
  9 13  1  0  0  0  0
  9 23  1  0  0  0  0
 10 12  1  0  0  0  0
 11 13  1  0  0  0  0
 14 17  2  0  0  0  0
 14 18  1  0  0  0  0
 15 28  1  0  0  0  0
 16 19  2  0  0  0  0
 16 24  1  0  0  0  0
 17 28  1  0  0  0  0
 18 30  2  0  0  0  0
 19 29  1  0  0  0  0
 20 25  1  0  0  0  0
 20 29  2  0  0  0  0
 21 27  1  0  0  0  0
 21 29  1  0  0  0  0
 22 28  2  0  0  0  0
 22 30  1  0  0  0  0
 24 25  2  0  0  0  0
 26 27  2  0  0  0  0
 30 31  1  0  0  0  0
  4 32  1  0  0  0  0
  5 33  1  0  0  0  0
  6 34  1  0  0  0  0
 10 35  1  0  0  0  0
 10 36  1  0  0  0  0
 11 37  1  0  0  0  0
 11 38  1  0  0  0  0
 12 39  1  0  0  0  0
 12 40  1  0  0  0  0
 13 41  1  0  0  0  0
 13 42  1  0  0  0  0
 14 43  1  0  0  0  0
 15 44  1  0  0  0  0
 15 45  1  0  0  0  0
 16 46  1  0  0  0  0
 17 47  1  0  0  0  0
 18 48  1  0  0  0  0
 19 49  1  0  0  0  0
 20 50  1  0  0  0  0
 21 51  1  0  0  0  0
 21 52  1  0  0  0  0
 22 53  1  0  0  0  0
M  END
> <pdb_id>
3WAX

> <uniprot_id>
Q9R1E6

> <usmiles>
Clc1c(Cl)ccc(c1)CC=2SC(=NC2O)N3CCN(Cc4cc(ccc4)B(O)O)CC3

$$$$
DX1_C_270
          07192417503D 1   1.00000     0.00000     0
            
 36 37  0  0  0  0            999 V2000
  -20.3575   13.4751    2.4696 N   0  0  0  0  0  0  0  0  0  0  0  0
  -17.4170   14.0774    6.0872 N   0  0  0  0  0  0  0  0  0  0  0  0
  -18.8823   13.7424    4.2767 N   0  0  0  0  0  0  0  0  0  0  0  0
  -19.1909   15.4913    2.6987 N   0  0  0  0  0  0  0  0  0  0  0  0
  -18.0347   17.5372    2.9469 N   0  0  0  0  0  0  0  0  0  0  0  0
  -16.8427   16.5890    5.2177 N   0  0  0  0  0  0  0  0  0  0  0  0
  -15.8644   19.5823    1.9509 C   0  0  0  0  0  0  0  0  0  0  0  0
  -18.1552   20.4024    2.6797 C   0  0  0  0  0  0  0  0  0  0  0  0
  -16.3292   19.4671    6.6342 C   0  0  0  0  0  0  0  0  0  0  0  0
  -14.5185   17.7987    6.2657 C   0  0  0  0  0  0  0  0  0  0  0  0
  -19.4816   14.2388    3.1531 C   0  0  0  0  0  0  0  0  0  0  0  0
  -18.0128   14.5220    4.9631 C   0  0  0  0  0  0  0  0  0  0  0  0
  -18.3300   16.2869    3.3734 C   0  0  0  0  0  0  0  0  0  0  0  0
  -17.7166   15.8074    4.5239 C   0  0  0  0  0  0  0  0  0  0  0  0
  -17.1548   18.3250    3.6252 C   0  0  0  0  0  0  0  0  0  0  0  0
  -16.5412   17.8415    4.7898 C   0  0  0  0  0  0  0  0  0  0  0  0
  -16.8648   19.6968    3.1016 C   0  0  0  0  0  0  0  0  0  0  0  0
  -15.5766   18.6597    5.5826 C   0  0  0  0  0  0  0  0  0  0  0  0
  -20.7983   13.8343    1.6470 H   0  0  0  0  0  0  0  0  0  0  0  0
  -20.5663   12.5495    2.7852 H   0  0  0  0  0  0  0  0  0  0  0  0
  -16.7777   14.6670    6.5810 H   0  0  0  0  0  0  0  0  0  0  0  0
  -17.6142   13.1581    6.4276 H   0  0  0  0  0  0  0  0  0  0  0  0
  -15.0396   19.1164    2.2714 H   0  0  0  0  0  0  0  0  0  0  0  0
  -16.2740   19.0586    1.2040 H   0  0  0  0  0  0  0  0  0  0  0  0
  -15.6253   20.4969    1.6249 H   0  0  0  0  0  0  0  0  0  0  0  0
  -18.7774   20.4545    3.4608 H   0  0  0  0  0  0  0  0  0  0  0  0
  -17.9415   21.3261    2.3616 H   0  0  0  0  0  0  0  0  0  0  0  0
  -18.5902   19.8878    1.9408 H   0  0  0  0  0  0  0  0  0  0  0  0
  -17.0229   20.0319    6.1873 H   0  0  0  0  0  0  0  0  0  0  0  0
  -16.7714   18.8441    7.2793 H   0  0  0  0  0  0  0  0  0  0  0  0
  -15.6868   20.0551    7.1258 H   0  0  0  0  0  0  0  0  0  0  0  0
  -14.0243   17.2687    5.5766 H   0  0  0  0  0  0  0  0  0  0  0  0
  -13.8765   18.3870    6.7574 H   0  0  0  0  0  0  0  0  0  0  0  0
  -14.9612   17.1760    6.9109 H   0  0  0  0  0  0  0  0  0  0  0  0
  -16.4410   20.2294    3.8343 H   0  0  0  0  0  0  0  0  0  0  0  0
  -15.1165   19.2960    4.9634 H   0  0  0  0  0  0  0  0  0  0  0  0
  1 11  1  0  0  0  0
  2 12  1  0  0  0  0
  3 11  2  0  0  0  0
  3 12  1  0  0  0  0
  4 11  1  0  0  0  0
  4 13  2  0  0  0  0
  5 13  1  0  0  0  0
  5 15  2  0  0  0  0
  6 14  1  0  0  0  0
  6 16  2  0  0  0  0
  7 17  1  0  0  0  0
  8 17  1  0  0  0  0
  9 18  1  0  0  0  0
 10 18  1  0  0  0  0
 12 14  2  0  0  0  0
 13 14  1  0  0  0  0
 15 16  1  0  0  0  0
 15 17  1  0  0  0  0
 16 18  1  0  0  0  0
  1 19  1  0  0  0  0
  1 20  1  0  0  0  0
  2 21  1  0  0  0  0
  2 22  1  0  0  0  0
  7 23  1  0  0  0  0
  7 24  1  0  0  0  0
  7 25  1  0  0  0  0
  8 26  1  0  0  0  0
  8 27  1  0  0  0  0
  8 28  1  0  0  0  0
  9 29  1  0  0  0  0
  9 30  1  0  0  0  0
  9 31  1  0  0  0  0
 10 32  1  0  0  0  0
 10 33  1  0  0  0  0
 10 34  1  0  0  0  0
 17 35  1  0  0  0  0
 18 36  1  0  0  0  0
M  END
> <pdb_id>
3JQ6

> <uniprot_id>
Q581W1

> <usmiles>
n1c(nc(N)c2nc(c(nc12)C(C)C)C(C)C)N

$$$$
DX4_A_401
          07202409463D 1   1.00000     0.00000     0
            
 16 17  0  0  0  0            999 V2000
   -8.1712   18.1583  -18.0629 S   0  0  0  0  0  0  0  0  0  0  0  0
  -11.6296   19.4608  -21.3406 N   0  0  0  0  0  0  0  0  0  0  0  0
   -7.9233   22.3784  -20.6275 N   0  0  0  0  0  0  0  0  0  0  0  0
   -6.9666   21.0643  -19.0876 N   0  0  0  0  0  0  0  0  0  0  0  0
   -9.9307   18.9598  -19.8191 N   0  0  0  0  0  0  0  0  0  0  0  0
   -9.8876   20.9736  -21.0790 N   0  0  0  0  0  0  0  0  0  0  0  0
   -6.8697   22.2201  -19.7861 C   0  0  0  0  0  0  0  0  0  0  0  0
  -10.4626   19.8037  -20.7358 C   0  0  0  0  0  0  0  0  0  0  0  0
   -8.7778   19.1807  -19.1526 C   0  0  0  0  0  0  0  0  0  0  0  0
   -8.7279   21.3243  -20.4952 C   0  0  0  0  0  0  0  0  0  0  0  0
   -8.1037   20.4527  -19.4874 C   0  0  0  0  0  0  0  0  0  0  0  0
  -12.0385   20.0701  -22.0200 H   0  0  0  0  0  0  0  0  0  0  0  0
  -12.0799   18.5992  -21.1063 H   0  0  0  0  0  0  0  0  0  0  0  0
   -8.0705   23.1536  -21.2418 H   0  0  0  0  0  0  0  0  0  0  0  0
  -10.4269   18.1141  -19.6224 H   0  0  0  0  0  0  0  0  0  0  0  0
   -6.1184   22.8736  -19.6940 H   0  0  0  0  0  0  0  0  0  0  0  0
  1  9  2  0  0  0  0
  2  8  1  0  0  0  0
  3  7  1  0  0  0  0
  3 10  1  0  0  0  0
  4  7  2  0  0  0  0
  4 11  1  0  0  0  0
  5  8  1  0  0  0  0
  5  9  1  0  0  0  0
  6  8  2  0  0  0  0
  6 10  1  0  0  0  0
  9 11  1  0  0  0  0
 10 11  2  0  0  0  0
  2 12  1  0  0  0  0
  2 13  1  0  0  0  0
  3 14  1  0  0  0  0
  5 15  1  0  0  0  0
  7 16  1  0  0  0  0
M  END
> <pdb_id>
4M5M

> <uniprot_id>
P26281

> <usmiles>
S=C1NC(=NC=2NC=NC12)N

$$$$
DXG_A_499
          07192417113D 1   1.00000     0.00000     0
            
 23 22  0  0  0  0            999 V2000
   16.7862   -5.9408   19.7846 O   0  0  0  0  0  0  0  0  0  0  0  0
   15.0364   -5.8141   21.1290 O   0  0  0  0  0  0  0  0  0  0  0  0
   20.2703   -6.0277   25.6125 O   0  0  0  0  0  0  0  0  0  0  0  0
   21.5431   -7.2893   24.2560 O   0  0  0  0  0  0  0  0  0  0  0  0
   16.7028   -5.1888   23.3336 O   0  0  0  0  0  0  0  0  0  0  0  0
   20.7762   -4.3443   22.6740 O   0  0  0  0  0  0  0  0  0  0  0  0
   19.9646   -7.1424   22.1684 O   0  0  0  0  0  0  0  0  0  0  0  0
   18.6009   -4.8455   21.6775 C   0  0  0  0  0  0  0  0  0  0  0  0
   16.2718   -5.6335   20.9036 C   0  0  0  0  0  0  0  0  0  0  0  0
   20.5215   -6.5764   24.4693 C   0  0  0  0  0  0  0  0  0  0  0  0
   17.1173   -4.9994   21.9639 C   0  0  1  0  0  0  0  0  0  0  0  0
   19.4816   -4.9168   22.9161 C   0  0  1  0  0  0  0  0  0  0  0  0
   19.6074   -6.3571   23.3154 C   0  0  1  0  0  0  0  0  0  0  0  0
   17.7620   -5.7913   19.6249 H   0  0  0  0  0  0  0  0  0  0  0  0
   19.4473   -5.4719   25.7302 H   0  0  0  0  0  0  0  0  0  0  0  0
   15.7072   -5.2746   23.3718 H   0  0  0  0  0  0  0  0  0  0  0  0
   21.3290   -4.4067   23.5051 H   0  0  0  0  0  0  0  0  0  0  0  0
   19.3217   -6.9582   21.4250 H   0  0  0  0  0  0  0  0  0  0  0  0
   18.7461   -3.9585   21.2392 H   0  0  0  0  0  0  0  0  0  0  0  0
   18.8778   -5.5755   21.0526 H   0  0  0  0  0  0  0  0  0  0  0  0
   16.8339   -4.0479   21.8435 H   0  0  0  0  0  0  0  0  0  0  0  0
   19.0385   -4.4130   23.6576 H   0  0  0  0  0  0  0  0  0  0  0  0
   18.6986   -6.6594   23.6030 H   0  0  0  0  0  0  0  0  0  0  0  0
  1  9  1  0  0  0  0
  2  9  2  0  0  0  0
  3 10  1  0  0  0  0
  4 10  2  0  0  0  0
  5 11  1  0  0  0  0
  6 12  1  0  0  0  0
  7 13  1  0  0  0  0
  8 11  1  0  0  0  0
  8 12  1  0  0  0  0
  9 11  1  0  0  0  0
 10 13  1  0  0  0  0
 12 13  1  0  0  0  0
  1 14  1  0  0  0  0
  3 15  1  0  0  0  0
  5 16  1  0  0  0  0
  6 17  1  0  0  0  0
  7 18  1  0  0  0  0
  8 19  1  0  0  0  0
  8 20  1  0  0  0  0
 11 21  1  0  0  0  0
 12 22  1  0  0  0  0
 13 23  1  0  0  0  0
M  END
> <pdb_id>
1ECQ

> <uniprot_id>
P76637

> <usmiles>
O=C(O)[C@H](O)[C@@H](O)C[C@H](O)C(=O)O

$$$$
DXM_A_704
          07202413473D 1   1.00000     0.00000     0
            
 60 64  0  0  0  0            999 V2000
   99.7866  115.5687   -5.2828 S   0  0  0  0  0  0  0  0  0  0  0  0
   98.7496  116.6505  -10.4165 F   0  0  0  0  0  0  0  0  0  0  0  0
   96.6196  112.6130   -9.3831 F   0  0  0  0  0  0  0  0  0  0  0  0
   99.6829  114.9318   -8.1440 O   0  0  0  0  0  0  0  0  0  0  0  0
   95.4616  108.0387  -13.0570 O   0  0  0  0  0  0  0  0  0  0  0  0
   95.2703  112.0588  -16.0432 N   0  0  0  0  0  0  0  0  0  0  0  0
   96.9085  110.6634  -11.2349 N   0  0  0  0  0  0  0  0  0  0  0  0
   97.5154  114.9819   -8.5091 N   0  0  0  0  0  0  0  0  0  0  0  0
   95.1668  109.9642  -14.8743 N   0  0  0  0  0  0  0  0  0  0  0  0
   96.4359  109.3989  -11.5509 N   0  0  0  0  0  0  0  0  0  0  0  0
   94.8812  112.4179  -17.3259 N   0  0  0  0  0  0  0  0  0  0  0  0
   96.5586  108.3415  -10.5471 C   0  0  0  0  0  0  0  0  0  0  0  0
   95.1291  113.8352  -17.6958 C   0  0  0  0  0  0  0  0  0  0  0  0
   93.7732  111.2545  -19.3642 C   0  0  0  0  0  0  0  0  0  0  0  0
   97.3129  115.7556   -5.6050 C   0  0  0  0  0  0  0  0  0  0  0  0
   96.2277  111.4901  -13.3164 C   0  0  0  0  0  0  0  0  0  0  0  0
   98.4104  115.0621  -12.1168 C   0  0  0  0  0  0  0  0  0  0  0  0
   97.9348  113.8316  -12.5543 C   0  0  0  0  0  0  0  0  0  0  0  0
   94.3989  110.2827  -17.1655 C   0  0  0  0  0  0  0  0  0  0  0  0
   98.2699  116.8988   -1.7368 C   0  0  0  0  0  0  0  0  0  0  0  0
   96.9237  116.2056   -1.8730 C   0  0  0  0  0  0  0  0  0  0  0  0
   99.3149  116.2153   -2.6007 C   0  0  0  0  0  0  0  0  0  0  0  0
   96.4183  116.2681   -3.3094 C   0  0  0  0  0  0  0  0  0  0  0  0
   98.3979  115.4871   -6.2432 C   0  0  0  0  0  0  0  0  0  0  0  0
   98.7927  115.9589   -4.0013 C   0  0  0  0  0  0  0  0  0  0  0  0
   98.5563  115.1236   -7.6845 C   0  0  0  0  0  0  0  0  0  0  0  0
   94.9727  110.7491  -15.9940 C   0  0  0  0  0  0  0  0  0  0  0  0
   98.2774  115.4420  -10.7906 C   0  0  0  0  0  0  0  0  0  0  0  0
   95.8983  109.1805  -12.7417 C   0  0  0  0  0  0  0  0  0  0  0  0
   97.2020  113.3966  -10.3037 C   0  0  0  0  0  0  0  0  0  0  0  0
   96.7921  111.6658  -12.1217 C   0  0  0  0  0  0  0  0  0  0  0  0
   95.7731  110.3058  -13.6853 C   0  0  0  0  0  0  0  0  0  0  0  0
   94.3624  111.3935  -17.9834 C   0  0  0  0  0  0  0  0  0  0  0  0
   97.6726  114.6210   -9.8713 C   0  0  0  0  0  0  0  0  0  0  0  0
   97.4999  115.9884   -4.3469 C   0  0  0  0  0  0  0  0  0  0  0  0
   97.3194  112.9876  -11.6463 C   0  0  0  0  0  0  0  0  0  0  0  0
   96.1009  108.6558   -9.6453 H   0  0  0  0  0  0  0  0  0  0  0  0
   97.5825  108.1390  -10.3714 H   0  0  0  0  0  0  0  0  0  0  0  0
   96.0806  107.4646  -10.8975 H   0  0  0  0  0  0  0  0  0  0  0  0
   95.4871  114.3633  -16.8498 H   0  0  0  0  0  0  0  0  0  0  0  0
   94.2261  114.2747  -18.0299 H   0  0  0  0  0  0  0  0  0  0  0  0
   95.8508  113.8765  -18.4696 H   0  0  0  0  0  0  0  0  0  0  0  0
   92.7919  110.8624  -19.2915 H   0  0  0  0  0  0  0  0  0  0  0  0
   94.3738  110.6000  -19.9404 H   0  0  0  0  0  0  0  0  0  0  0  0
   93.7395  112.2052  -19.8308 H   0  0  0  0  0  0  0  0  0  0  0  0
   98.8873  115.7330  -12.8201 H   0  0  0  0  0  0  0  0  0  0  0  0
   98.0354  113.5422  -13.5926 H   0  0  0  0  0  0  0  0  0  0  0  0
   94.0377  109.2846  -17.3793 H   0  0  0  0  0  0  0  0  0  0  0  0
   98.5872  116.8756   -0.6927 H   0  0  0  0  0  0  0  0  0  0  0  0
   98.1734  117.9435   -2.0371 H   0  0  0  0  0  0  0  0  0  0  0  0
   96.1993  116.6842   -1.2114 H   0  0  0  0  0  0  0  0  0  0  0  0
   97.0193  115.1617   -1.5658 H   0  0  0  0  0  0  0  0  0  0  0  0
   99.6025  115.2673   -2.1411 H   0  0  0  0  0  0  0  0  0  0  0  0
  100.2070  116.8436   -2.6554 H   0  0  0  0  0  0  0  0  0  0  0  0
   95.9980  117.2580   -3.4938 H   0  0  0  0  0  0  0  0  0  0  0  0
   95.6120  115.5414   -3.4334 H   0  0  0  0  0  0  0  0  0  0  0  0
   96.5934  115.1355   -8.1536 H   0  0  0  0  0  0  0  0  0  0  0  0
   94.8229  109.0271  -14.9344 H   0  0  0  0  0  0  0  0  0  0  0  0
   96.4128  115.7816   -6.0398 H   0  0  0  0  0  0  0  0  0  0  0  0
   96.1472  112.2658  -13.9424 H   0  0  0  0  0  0  0  0  0  0  0  0
  1 24  1  0  0  0  0
  1 25  1  0  0  0  0
  2 28  1  0  0  0  0
  3 30  1  0  0  0  0
  4 26  2  0  0  0  0
  5 29  2  0  0  0  0
  6 11  1  0  0  0  0
  6 27  2  0  0  0  0
  7 10  1  0  0  0  0
  7 31  2  0  0  0  0
  8 26  1  0  0  0  0
  8 34  1  0  0  0  0
  9 27  1  0  0  0  0
  9 32  1  0  0  0  0
 10 12  1  0  0  0  0
 10 29  1  0  0  0  0
 11 13  1  0  0  0  0
 11 33  1  0  0  0  0
 12 37  1  0  0  0  0
 12 38  1  0  0  0  0
 12 39  1  0  0  0  0
 13 40  1  0  0  0  0
 13 41  1  0  0  0  0
 13 42  1  0  0  0  0
 14 33  1  0  0  0  0
 14 43  1  0  0  0  0
 14 44  1  0  0  0  0
 14 45  1  0  0  0  0
 15 24  2  0  0  0  0
 15 35  1  0  0  0  0
 16 31  1  0  0  0  0
 16 32  2  0  0  0  0
 17 18  1  0  0  0  0
 17 28  2  0  0  0  0
 17 46  1  0  0  0  0
 18 36  2  0  0  0  0
 18 47  1  0  0  0  0
 19 27  1  0  0  0  0
 19 33  2  0  0  0  0
 19 48  1  0  0  0  0
 20 21  1  0  0  0  0
 20 22  1  0  0  0  0
 20 49  1  0  0  0  0
 20 50  1  0  0  0  0
 21 23  1  0  0  0  0
 21 51  1  0  0  0  0
 21 52  1  0  0  0  0
 22 25  1  0  0  0  0
 22 53  1  0  0  0  0
 22 54  1  0  0  0  0
 23 35  1  0  0  0  0
 23 55  1  0  0  0  0
 23 56  1  0  0  0  0
 24 26  1  0  0  0  0
 25 35  2  0  0  0  0
 28 34  1  0  0  0  0
 29 32  1  0  0  0  0
 30 34  2  0  0  0  0
 30 36  1  0  0  0  0
 31 36  1  0  0  0  0
  8 57  1  0  0  0  0
  9 58  1  0  0  0  0
 15 59  1  0  0  0  0
 16 60  1  0  0  0  0
M  END
> <pdb_id>
6BKW

> <uniprot_id>
Q06187

> <usmiles>
S1C(C(=O)Nc2c(F)c(ccc2F)C3=NN(C(=O)C(NC4=NN(C(=C4)C)C)=C3)C)=CC5=C1CCCC5

$$$$
DY1_B_1000
          07202411583D 1   1.00000     0.00000     0
            
 57 60  0  0  0  0            999 V2000
   14.5415    0.5843   18.1889 S   0  0  0  0  0  0  0  0  0  0  0  0
   11.9825    3.4782   14.9592 F   0  0  0  0  0  0  0  0  0  0  0  0
   17.7349    6.9306   22.7538 F   0  0  0  0  0  0  0  0  0  0  0  0
   19.0846    5.3241   23.0212 F   0  0  0  0  0  0  0  0  0  0  0  0
   17.7737    5.9153   24.6123 F   0  0  0  0  0  0  0  0  0  0  0  0
   15.8072    1.1518   18.5581 O   0  0  0  0  0  0  0  0  0  0  0  0
   13.9174   -0.3229   19.1103 O   0  0  0  0  0  0  0  0  0  0  0  0
    9.3012    2.8842   24.6487 O   0  0  0  0  0  0  0  0  0  0  0  0
   11.4451    3.2683   24.9412 O   0  0  0  0  0  0  0  0  0  0  0  0
   12.9542    2.6986   20.3222 N   0  0  0  0  0  0  0  0  0  0  0  0
   14.7367   -0.2466   16.6582 C   0  0  0  0  0  0  0  0  0  0  0  0
   13.3694    0.8911   22.0262 C   0  0  0  0  0  0  0  0  0  0  0  0
   10.3254    5.8895   21.4357 C   0  0  0  0  0  0  0  0  0  0  0  0
   11.4498    5.4440   22.3700 C   0  0  0  0  0  0  0  0  0  0  0  0
   10.5894    5.5179   19.9674 C   0  0  0  0  0  0  0  0  0  0  0  0
   15.1416    4.1990   21.1562 C   0  0  0  0  0  0  0  0  0  0  0  0
   15.7147    2.6328   22.8691 C   0  0  0  0  0  0  0  0  0  0  0  0
   16.0590    5.0982   21.6674 C   0  0  0  0  0  0  0  0  0  0  0  0
   16.6393    3.5296   23.3782 C   0  0  0  0  0  0  0  0  0  0  0  0
   13.1068    2.1640   16.5407 C   0  0  0  0  0  0  0  0  0  0  0  0
   10.6359    3.0040   22.6988 C   0  0  0  0  0  0  0  0  0  0  0  0
   11.6300    3.9677   17.2150 C   0  0  0  0  0  0  0  0  0  0  0  0
   10.4499    3.0566   24.2144 C   0  0  0  0  0  0  0  0  0  0  0  0
   13.4085    1.9273   17.8797 C   0  0  0  0  0  0  0  0  0  0  0  0
   12.2315    3.1896   16.2576 C   0  0  0  0  0  0  0  0  0  0  0  0
   13.9824    1.9604   21.1206 C   0  0  2  0  0  0  0  0  0  0  0  0
   12.8453    2.6961   18.9142 C   0  0  0  0  0  0  0  0  0  0  0  0
   12.0865    3.6723   20.7996 C   0  0  0  0  0  0  0  0  0  0  0  0
   14.9584    2.9492   21.7441 C   0  0  0  0  0  0  0  0  0  0  0  0
   11.7518    3.9501   22.2326 C   0  0  1  0  0  0  0  0  0  0  0  0
   16.8271    4.7710   22.7795 C   0  0  0  0  0  0  0  0  0  0  0  0
   11.4894    4.3307   19.7698 C   0  0  0  0  0  0  0  0  0  0  0  0
   11.9428    3.7179   18.5495 C   0  0  0  0  0  0  0  0  0  0  0  0
   17.8527    5.7241   23.2934 C   0  0  0  0  0  0  0  0  0  0  0  0
    8.5463    2.7188   24.0141 H   0  0  0  0  0  0  0  0  0  0  0  0
   13.8636   -0.6494   16.3838 H   0  0  0  0  0  0  0  0  0  0  0  0
   15.0370    0.4048   15.9613 H   0  0  0  0  0  0  0  0  0  0  0  0
   15.4211   -0.9691   16.7561 H   0  0  0  0  0  0  0  0  0  0  0  0
   14.0956    0.4294   22.5355 H   0  0  0  0  0  0  0  0  0  0  0  0
   12.7343    1.3215   22.6675 H   0  0  0  0  0  0  0  0  0  0  0  0
   12.8775    0.2232   21.4676 H   0  0  0  0  0  0  0  0  0  0  0  0
   10.2295    6.8827   21.5018 H   0  0  0  0  0  0  0  0  0  0  0  0
    9.4749    5.4523   21.7280 H   0  0  0  0  0  0  0  0  0  0  0  0
   11.1791    5.6331   23.3139 H   0  0  0  0  0  0  0  0  0  0  0  0
   12.2765    5.9620   22.1502 H   0  0  0  0  0  0  0  0  0  0  0  0
   11.0106    6.3058   19.5180 H   0  0  0  0  0  0  0  0  0  0  0  0
    9.7106    5.3176   19.5343 H   0  0  0  0  0  0  0  0  0  0  0  0
   14.6016    4.4493   20.3526 H   0  0  0  0  0  0  0  0  0  0  0  0
   15.5889    1.7468   23.3153 H   0  0  0  0  0  0  0  0  0  0  0  0
   16.1712    5.9921   21.2334 H   0  0  0  0  0  0  0  0  0  0  0  0
   17.1770    3.2823   24.1842 H   0  0  0  0  0  0  0  0  0  0  0  0
   13.5102    1.6103   15.8123 H   0  0  0  0  0  0  0  0  0  0  0  0
    9.7791    3.2706   22.2573 H   0  0  0  0  0  0  0  0  0  0  0  0
   10.8711    2.0691   22.4330 H   0  0  0  0  0  0  0  0  0  0  0  0
   10.9874    4.6912   16.9627 H   0  0  0  0  0  0  0  0  0  0  0  0
   14.5203    1.4536   20.4470 H   0  0  0  0  0  0  0  0  0  0  0  0
   12.5658    3.7528   22.7789 H   0  0  0  0  0  0  0  0  0  0  0  0
  1  6  2  0  0  0  0
  1  7  2  0  0  0  0
  1 11  1  0  0  0  0
  1 24  1  0  0  0  0
  2 25  1  0  0  0  0
  3 34  1  0  0  0  0
  4 34  1  0  0  0  0
  5 34  1  0  0  0  0
  8 23  1  0  0  0  0
  9 23  2  0  0  0  0
 10 26  1  0  0  0  0
 10 27  1  0  0  0  0
 10 28  1  0  0  0  0
 12 26  1  0  0  0  0
 13 14  1  0  0  0  0
 13 15  1  0  0  0  0
 14 30  1  0  0  0  0
 15 32  1  0  0  0  0
 16 18  2  0  0  0  0
 16 29  1  0  0  0  0
 17 19  1  0  0  0  0
 17 29  2  0  0  0  0
 18 31  1  0  0  0  0
 19 31  2  0  0  0  0
 20 24  1  0  0  0  0
 20 25  2  0  0  0  0
 21 23  1  0  0  0  0
 21 30  1  0  0  0  0
 22 25  1  0  0  0  0
 22 33  2  0  0  0  0
 24 27  2  0  0  0  0
 26 29  1  0  0  0  0
 27 33  1  0  0  0  0
 28 30  1  0  0  0  0
 28 32  2  0  0  0  0
 31 34  1  0  0  0  0
 32 33  1  0  0  0  0
  8 35  1  0  0  0  0
 11 36  1  0  0  0  0
 11 37  1  0  0  0  0
 11 38  1  0  0  0  0
 12 39  1  0  0  0  0
 12 40  1  0  0  0  0
 12 41  1  0  0  0  0
 13 42  1  0  0  0  0
 13 43  1  0  0  0  0
 14 44  1  0  0  0  0
 14 45  1  0  0  0  0
 15 46  1  0  0  0  0
 15 47  1  0  0  0  0
 16 48  1  0  0  0  0
 17 49  1  0  0  0  0
 18 50  1  0  0  0  0
 19 51  1  0  0  0  0
 20 52  1  0  0  0  0
 21 53  1  0  0  0  0
 21 54  1  0  0  0  0
 22 55  1  0  0  0  0
 26 56  1  0  0  0  0
 30 57  1  0  0  0  0
M  END
> <pdb_id>
6BLF

> <uniprot_id>
O00408

> <usmiles>
S(=O)(=O)(c1c2N(C3=C(c2cc(F)c1)CCC[C@H]3CC(=O)O)[C@@H](c4ccc(cc4)C(F)(F)F)C)C

$$$$
DY4_A_704
          07202413473D 1   1.00000     0.00000     0
            
 57 61  0  0  0  0            999 V2000
   99.8391  115.6129   -5.3478 S   0  0  0  0  0  0  0  0  0  0  0  0
   98.6943  116.6004  -10.4079 F   0  0  0  0  0  0  0  0  0  0  0  0
   96.7432  112.4846   -9.4352 F   0  0  0  0  0  0  0  0  0  0  0  0
   95.5119  107.9866  -13.1855 O   0  0  0  0  0  0  0  0  0  0  0  0
   99.7612  115.0371   -8.2380 O   0  0  0  0  0  0  0  0  0  0  0  0
   96.5619  109.2869  -11.7087 N   0  0  0  0  0  0  0  0  0  0  0  0
   97.0455  110.5429  -11.3265 N   0  0  0  0  0  0  0  0  0  0  0  0
   95.3269  112.0299  -16.0731 N   0  0  0  0  0  0  0  0  0  0  0  0
   97.5795  114.9077   -8.5447 N   0  0  0  0  0  0  0  0  0  0  0  0
   95.1437  109.9508  -14.9564 N   0  0  0  0  0  0  0  0  0  0  0  0
   94.9966  112.4318  -17.3388 N   0  0  0  0  0  0  0  0  0  0  0  0
   95.2555  113.8468  -17.6838 C   0  0  0  0  0  0  0  0  0  0  0  0
   93.8408  111.4189  -19.4143 C   0  0  0  0  0  0  0  0  0  0  0  0
   97.3751  115.7040   -5.6171 C   0  0  0  0  0  0  0  0  0  0  0  0
   98.4344  115.0461  -12.1521 C   0  0  0  0  0  0  0  0  0  0  0  0
   97.9918  113.8009  -12.5753 C   0  0  0  0  0  0  0  0  0  0  0  0
   94.4299  110.3081  -17.2625 C   0  0  0  0  0  0  0  0  0  0  0  0
   96.3012  111.4768  -13.3777 C   0  0  0  0  0  0  0  0  0  0  0  0
   98.3576  116.9312   -1.7920 C   0  0  0  0  0  0  0  0  0  0  0  0
   97.0289  116.1863   -1.9041 C   0  0  0  0  0  0  0  0  0  0  0  0
   99.4093  116.2312   -2.6457 C   0  0  0  0  0  0  0  0  0  0  0  0
   96.4629  116.2603   -3.3154 C   0  0  0  0  0  0  0  0  0  0  0  0
   98.4595  115.4951   -6.3094 C   0  0  0  0  0  0  0  0  0  0  0  0
   98.8575  115.9612   -4.0312 C   0  0  0  0  0  0  0  0  0  0  0  0
   95.9392  109.1322  -12.8639 C   0  0  0  0  0  0  0  0  0  0  0  0
   98.6306  115.1416   -7.7502 C   0  0  0  0  0  0  0  0  0  0  0  0
   94.9855  110.7408  -16.0669 C   0  0  0  0  0  0  0  0  0  0  0  0
   98.2897  115.3795  -10.8321 C   0  0  0  0  0  0  0  0  0  0  0  0
   97.2822  113.2979  -10.3357 C   0  0  0  0  0  0  0  0  0  0  0  0
   96.9343  111.5919  -12.1423 C   0  0  0  0  0  0  0  0  0  0  0  0
   95.8012  110.2412  -13.7949 C   0  0  0  0  0  0  0  0  0  0  0  0
   94.4361  111.4518  -18.0235 C   0  0  0  0  0  0  0  0  0  0  0  0
   97.7298  114.5484   -9.9106 C   0  0  0  0  0  0  0  0  0  0  0  0
   97.5539  115.9792   -4.3563 C   0  0  0  0  0  0  0  0  0  0  0  0
   97.4428  112.9090  -11.6684 C   0  0  0  0  0  0  0  0  0  0  0  0
   94.3501  114.3090  -17.9797 H   0  0  0  0  0  0  0  0  0  0  0  0
   95.9512  113.8942  -18.4810 H   0  0  0  0  0  0  0  0  0  0  0  0
   95.6495  114.3502  -16.8398 H   0  0  0  0  0  0  0  0  0  0  0  0
   93.8487  112.3948  -19.8244 H   0  0  0  0  0  0  0  0  0  0  0  0
   92.8438  111.0655  -19.3639 H   0  0  0  0  0  0  0  0  0  0  0  0
   94.4131  110.7735  -20.0280 H   0  0  0  0  0  0  0  0  0  0  0  0
   98.8813  115.7416  -12.8521 H   0  0  0  0  0  0  0  0  0  0  0  0
   98.1001  113.5152  -13.6146 H   0  0  0  0  0  0  0  0  0  0  0  0
   94.0349  109.3306  -17.5109 H   0  0  0  0  0  0  0  0  0  0  0  0
   96.3067  112.3145  -14.0651 H   0  0  0  0  0  0  0  0  0  0  0  0
   98.2321  117.9621   -2.1316 H   0  0  0  0  0  0  0  0  0  0  0  0
   98.6830  116.9526   -0.7506 H   0  0  0  0  0  0  0  0  0  0  0  0
   97.1769  115.1402   -1.6264 H   0  0  0  0  0  0  0  0  0  0  0  0
   96.3117  116.6191   -1.2035 H   0  0  0  0  0  0  0  0  0  0  0  0
  100.2991  116.8597   -2.7216 H   0  0  0  0  0  0  0  0  0  0  0  0
   99.6981  115.2898   -2.1753 H   0  0  0  0  0  0  0  0  0  0  0  0
   95.6585  115.5298   -3.4248 H   0  0  0  0  0  0  0  0  0  0  0  0
   96.0421  117.2531   -3.4883 H   0  0  0  0  0  0  0  0  0  0  0  0
   96.6883  108.5009  -11.1035 H   0  0  0  0  0  0  0  0  0  0  0  0
   96.6582  114.9884   -8.1643 H   0  0  0  0  0  0  0  0  0  0  0  0
   94.7232  109.0447  -15.0035 H   0  0  0  0  0  0  0  0  0  0  0  0
   96.4644  115.6560   -6.0274 H   0  0  0  0  0  0  0  0  0  0  0  0
  1 23  1  0  0  0  0
  1 24  1  0  0  0  0
  2 28  1  0  0  0  0
  3 29  1  0  0  0  0
  4 25  2  0  0  0  0
  5 26  2  0  0  0  0
  6  7  1  0  0  0  0
  6 25  1  0  0  0  0
  7 30  2  0  0  0  0
  8 11  1  0  0  0  0
  8 27  2  0  0  0  0
  9 26  1  0  0  0  0
  9 33  1  0  0  0  0
 10 27  1  0  0  0  0
 10 31  1  0  0  0  0
 11 12  1  0  0  0  0
 11 32  1  0  0  0  0
 12 36  1  0  0  0  0
 12 37  1  0  0  0  0
 12 38  1  0  0  0  0
 13 32  1  0  0  0  0
 13 39  1  0  0  0  0
 13 40  1  0  0  0  0
 13 41  1  0  0  0  0
 14 23  2  0  0  0  0
 14 34  1  0  0  0  0
 15 16  2  0  0  0  0
 15 28  1  0  0  0  0
 15 42  1  0  0  0  0
 16 35  1  0  0  0  0
 16 43  1  0  0  0  0
 17 27  1  0  0  0  0
 17 32  2  0  0  0  0
 17 44  1  0  0  0  0
 18 30  1  0  0  0  0
 18 31  2  0  0  0  0
 18 45  1  0  0  0  0
 19 20  1  0  0  0  0
 19 21  1  0  0  0  0
 19 46  1  0  0  0  0
 19 47  1  0  0  0  0
 20 22  1  0  0  0  0
 20 48  1  0  0  0  0
 20 49  1  0  0  0  0
 21 24  1  0  0  0  0
 21 50  1  0  0  0  0
 21 51  1  0  0  0  0
 22 34  1  0  0  0  0
 22 52  1  0  0  0  0
 22 53  1  0  0  0  0
 23 26  1  0  0  0  0
 24 34  2  0  0  0  0
 25 31  1  0  0  0  0
 28 33  2  0  0  0  0
 29 33  1  0  0  0  0
 29 35  2  0  0  0  0
 30 35  1  0  0  0  0
  6 54  1  0  0  0  0
  9 55  1  0  0  0  0
 10 56  1  0  0  0  0
 14 57  1  0  0  0  0
M  END
> <pdb_id>
6BLN

> <uniprot_id>
Q06187

> <usmiles>
S1C(C(=O)Nc2c(F)c(ccc2F)C3=NNC(=O)C(NC4=NN(C(=C4)C)C)=C3)=CC5=C1CCCC5

$$$$
DY8_B_401
          07212403133D 1   1.00000     0.00000     0
            
 32 33  0  0  0  0            999 V2000
   29.3320   -8.3480   22.0660 O   0  0  0  0  0  0  0  0  0  0  0  0
   29.0970   -6.6990   23.3470 O   0  0  0  0  0  0  0  0  0  0  0  0
   32.2130   -4.3240   19.3840 O   0  0  0  0  0  0  0  0  0  0  0  0
   25.1840   -5.3810   22.1960 N   0  0  0  0  0  0  0  0  0  0  0  0
   25.6260   -7.0580   20.8120 N   0  0  0  0  0  0  0  0  0  0  0  0
   30.5150   -6.4040   20.3370 N   0  3  0  0  0  0  0  0  0  0  0  0
   24.6480   -6.4940   21.6260 C   0  0  0  0  0  0  0  0  0  0  0  0
   26.4860   -5.2390   21.7600 C   0  0  0  0  0  0  0  0  0  0  0  0
   32.5740   -4.8730   20.6230 C   0  0  0  0  0  0  0  0  0  0  0  0
   31.7870   -5.3150   18.4980 C   0  0  0  0  0  0  0  0  0  0  0  0
   31.5500   -5.8550   21.1730 C   0  0  0  0  0  0  0  0  0  0  0  0
   30.4910   -5.9050   18.9900 C   0  0  0  0  0  0  0  0  0  0  0  0
   28.0550   -6.5510   20.1620 C   0  0  0  0  0  0  0  0  0  0  0  0
   29.2240   -7.1480   22.2270 C   0  0  0  0  0  0  0  0  0  0  0  0
   26.7590   -6.2870   20.9030 C   0  0  0  0  0  0  0  0  0  0  0  0
   29.2610   -6.2210   21.0250 C   0  0  1  0  0  0  0  0  0  0  0  0
   25.5330   -7.8140   20.3110 H   0  0  0  0  0  0  0  0  0  0  0  0
   30.6640   -7.3080   20.2840 H   0  0  0  0  0  0  0  0  0  0  0  0
   23.7420   -6.8320   21.7600 H   0  0  0  0  0  0  0  0  0  0  0  0
   27.1040   -4.5260   22.0120 H   0  0  0  0  0  0  0  0  0  0  0  0
   33.4310   -5.3380   20.5220 H   0  0  0  0  0  0  0  0  0  0  0  0
   32.6870   -4.1440   21.2680 H   0  0  0  0  0  0  0  0  0  0  0  0
   32.4670   -6.0200   18.4450 H   0  0  0  0  0  0  0  0  0  0  0  0
   31.6510   -4.9240   17.6110 H   0  0  0  0  0  0  0  0  0  0  0  0
   31.1030   -5.4100   21.9230 H   0  0  0  0  0  0  0  0  0  0  0  0
   32.0500   -6.6130   21.5410 H   0  0  0  0  0  0  0  0  0  0  0  0
   29.7980   -5.2150   18.9310 H   0  0  0  0  0  0  0  0  0  0  0  0
   30.2440   -6.6420   18.3940 H   0  0  0  0  0  0  0  0  0  0  0  0
   28.0920   -7.4940   19.9080 H   0  0  0  0  0  0  0  0  0  0  0  0
   28.0790   -6.0000   19.3540 H   0  0  0  0  0  0  0  0  0  0  0  0
   29.1940   -5.2940   21.3310 H   0  0  0  0  0  0  0  0  0  0  0  0
   29.4368   -8.7214   21.1443 H   0  0  0  0  0  0  0  0  0  0  0  0
  1 14  1  0  0  0  0
  2 14  2  0  0  0  0
  3  9  1  0  0  0  0
  3 10  1  0  0  0  0
  4  7  2  0  0  0  0
  4  8  1  0  0  0  0
  5  7  1  0  0  0  0
  5 15  1  0  0  0  0
  5 17  1  0  0  0  0
  6 11  1  0  0  0  0
  6 12  1  0  0  0  0
  6 16  1  0  0  0  0
  6 18  1  0  0  0  0
  7 19  1  0  0  0  0
  8 15  2  0  0  0  0
  8 20  1  0  0  0  0
  9 11  1  0  0  0  0
  9 21  1  0  0  0  0
  9 22  1  0  0  0  0
 10 12  1  0  0  0  0
 10 23  1  0  0  0  0
 10 24  1  0  0  0  0
 11 25  1  0  0  0  0
 11 26  1  0  0  0  0
 12 27  1  0  0  0  0
 12 28  1  0  0  0  0
 13 15  1  0  0  0  0
 13 16  1  0  0  0  0
 13 29  1  0  0  0  0
 13 30  1  0  0  0  0
 14 16  1  0  0  0  0
 16 31  1  0  0  0  0
  1 32  1  0  0  0  0
M  CHG  1   6   1
M  END
> <pdb_id>
6FNS

> <uniprot_id>
nan

> <usmiles>
O=C(O)[C@@H]([NH+]1CCOCC1)CC=2NC=NC2

$$$$
DYT_A_403
          07212403133D 1   1.00000     0.00000     0
            
 18 18  0  0  0  0            999 V2000
   30.8068   -6.5815   20.4016 Cl  0  0  0  0  0  0  0  0  0  0  0  0
   28.9976   -6.7896   23.5667 O   0  0  0  0  0  0  0  0  0  0  0  0
   29.2792   -8.4248   22.1570 O   0  0  0  0  0  0  0  0  0  0  0  0
   25.1382   -5.4631   22.2107 N   0  0  0  0  0  0  0  0  0  0  0  0
   25.7747   -7.0072   20.7391 N   0  0  0  0  0  0  0  0  0  0  0  0
   24.7203   -6.5709   21.5192 C   0  0  0  0  0  0  0  0  0  0  0  0
   26.4499   -5.2070   21.8678 C   0  0  0  0  0  0  0  0  0  0  0  0
   28.1869   -6.2922   20.2845 C   0  0  0  0  0  0  0  0  0  0  0  0
   29.1846   -7.1949   22.3955 C   0  0  0  0  0  0  0  0  0  0  0  0
   26.8404   -6.1741   20.9574 C   0  0  0  0  0  0  0  0  0  0  0  0
   29.3364   -6.2016   21.2638 C   0  0  1  0  0  0  0  0  0  0  0  0
   25.7645   -7.7270   20.1794 H   0  0  0  0  0  0  0  0  0  0  0  0
   23.8357   -6.9798   21.5705 H   0  0  0  0  0  0  0  0  0  0  0  0
   27.0036   -4.4775   22.2067 H   0  0  0  0  0  0  0  0  0  0  0  0
   28.2333   -7.1519   19.8208 H   0  0  0  0  0  0  0  0  0  0  0  0
   28.2747   -5.5733   19.6268 H   0  0  0  0  0  0  0  0  0  0  0  0
   29.3910   -5.2960   21.6256 H   0  0  0  0  0  0  0  0  0  0  0  0
   28.9231   -5.8096   23.7507 H   0  0  0  0  0  0  0  0  0  0  0  0
  1 11  1  0  0  0  0
  2  9  1  0  0  0  0
  3  9  2  0  0  0  0
  4  6  2  0  0  0  0
  4  7  1  0  0  0  0
  5  6  1  0  0  0  0
  5 10  1  0  0  0  0
  5 12  1  0  0  0  0
  6 13  1  0  0  0  0
  7 10  2  0  0  0  0
  7 14  1  0  0  0  0
  8 10  1  0  0  0  0
  8 11  1  0  0  0  0
  8 15  1  0  0  0  0
  8 16  1  0  0  0  0
  9 11  1  0  0  0  0
 11 17  1  0  0  0  0
  2 18  1  0  0  0  0
M  END
> <pdb_id>
6FNR

> <uniprot_id>
nan

> <usmiles>
Cl[C@H](C(=O)O)CC=1NC=NC1

$$$$
DYZ_A_201
          07212401333D 1   1.00000     0.00000     0
            
 34 36  0  0  0  0            999 V2000
  -13.8811  -24.9473  -19.7542 O   0  0  0  0  0  0  0  0  0  0  0  0
  -16.5651  -23.7521  -23.1675 O   0  0  0  0  0  0  0  0  0  0  0  0
  -14.6151  -20.4266  -20.6160 N   0  0  0  0  0  0  0  0  0  0  0  0
  -15.2125  -24.3188  -21.4751 N   0  0  0  0  0  0  0  0  0  0  0  0
  -15.9136  -20.7713  -22.3499 N   0  0  0  0  0  0  0  0  0  0  0  0
  -14.1122  -22.7618  -20.0683 N   0  0  0  0  0  0  0  0  0  0  0  0
  -18.2924  -20.7232  -22.8657 C   0  0  0  0  0  0  0  0  0  0  0  0
  -15.3284  -19.8750  -21.5928 C   0  0  0  0  0  0  0  0  0  0  0  0
  -16.8991  -20.5135  -23.3807 C   0  0  0  0  0  0  0  0  0  0  0  0
  -13.3502  -22.3594  -18.8327 C   0  0  0  0  0  0  0  0  0  0  0  0
  -16.1368  -21.7431  -15.5250 C   0  0  0  0  0  0  0  0  0  0  0  0
  -15.7669  -22.9503  -15.9381 C   0  0  0  0  0  0  0  0  0  0  0  0
  -15.4977  -20.7048  -16.1479 C   0  0  0  0  0  0  0  0  0  0  0  0
  -14.8984  -23.1712  -17.0086 C   0  0  0  0  0  0  0  0  0  0  0  0
  -14.5913  -20.8006  -17.2443 C   0  0  0  0  0  0  0  0  0  0  0  0
  -14.3716  -24.0242  -20.3960 C   0  0  0  0  0  0  0  0  0  0  0  0
  -15.8310  -23.2953  -22.2869 C   0  0  0  0  0  0  0  0  0  0  0  0
  -14.7635  -21.7185  -20.8586 C   0  0  0  0  0  0  0  0  0  0  0  0
  -15.5421  -22.0388  -21.8592 C   0  0  0  0  0  0  0  0  0  0  0  0
  -14.2802  -22.1186  -17.7203 C   0  0  0  0  0  0  0  0  0  0  0  0
  -15.3932  -25.2777  -21.6937 H   0  0  0  0  0  0  0  0  0  0  0  0
  -18.9493  -20.5386  -23.5967 H   0  0  0  0  0  0  0  0  0  0  0  0
  -18.3948  -21.6686  -22.5564 H   0  0  0  0  0  0  0  0  0  0  0  0
  -18.4619  -20.1020  -22.1005 H   0  0  0  0  0  0  0  0  0  0  0  0
  -15.4095  -18.8883  -21.7341 H   0  0  0  0  0  0  0  0  0  0  0  0
  -16.7383  -21.1344  -24.1480 H   0  0  0  0  0  0  0  0  0  0  0  0
  -16.8055  -19.5678  -23.6920 H   0  0  0  0  0  0  0  0  0  0  0  0
  -12.8351  -21.5229  -19.0198 H   0  0  0  0  0  0  0  0  0  0  0  0
  -12.7171  -23.0916  -18.5816 H   0  0  0  0  0  0  0  0  0  0  0  0
  -16.8274  -21.6037  -14.8153 H   0  0  0  0  0  0  0  0  0  0  0  0
  -16.1314  -23.7462  -15.4546 H   0  0  0  0  0  0  0  0  0  0  0  0
  -15.6856  -19.7867  -15.7988 H   0  0  0  0  0  0  0  0  0  0  0  0
  -14.7057  -24.1134  -17.2830 H   0  0  0  0  0  0  0  0  0  0  0  0
  -14.1902  -19.9859  -17.6630 H   0  0  0  0  0  0  0  0  0  0  0  0
  1 16  2  0  0  0  0
  2 17  2  0  0  0  0
  3  8  2  0  0  0  0
  3 18  1  0  0  0  0
  4 16  1  0  0  0  0
  4 17  1  0  0  0  0
  5  8  1  0  0  0  0
  5  9  1  0  0  0  0
  5 19  1  0  0  0  0
  6 10  1  0  0  0  0
  6 16  1  0  0  0  0
  6 18  1  0  0  0  0
  7  9  1  0  0  0  0
 10 20  1  0  0  0  0
 11 12  2  0  0  0  0
 11 13  1  0  0  0  0
 12 14  1  0  0  0  0
 13 15  2  0  0  0  0
 14 20  2  0  0  0  0
 15 20  1  0  0  0  0
 17 19  1  0  0  0  0
 18 19  2  0  0  0  0
  4 21  1  0  0  0  0
  7 22  1  0  0  0  0
  7 23  1  0  0  0  0
  7 24  1  0  0  0  0
  8 25  1  0  0  0  0
  9 26  1  0  0  0  0
  9 27  1  0  0  0  0
 10 28  1  0  0  0  0
 10 29  1  0  0  0  0
 11 30  1  0  0  0  0
 12 31  1  0  0  0  0
 13 32  1  0  0  0  0
 14 33  1  0  0  0  0
 15 34  1  0  0  0  0
M  END
> <pdb_id>
6FNX

> <uniprot_id>
O60885

> <usmiles>
O=C1N(C=2N=CN(C2C(=O)N1)CC)Cc3ccccc3

$$$$
DZ5_A_304
          07202406303D 1   1.00000     0.00000     0
            
 20 20  0  0  0  0            999 V2000
   61.5930    4.0650   24.9250 S   0  0  0  0  0  0  0  0  0  0  0  0
   56.9830    7.3900   28.3000 F   0  0  0  0  0  0  0  0  0  0  0  0
   64.3000    2.9290   25.6230 O   0  0  0  0  0  0  0  0  0  0  0  0
   64.7610    4.3050   27.2860 O   0  0  0  0  0  0  0  0  0  0  0  0
   58.7300    7.0160   26.7140 C   0  0  0  0  0  0  0  0  0  0  0  0
   58.9100    6.3060   29.0260 C   0  0  0  0  0  0  0  0  0  0  0  0
   60.0040    6.5130   26.4650 C   0  0  0  0  0  0  0  0  0  0  0  0
   60.1830    5.8130   28.7370 C   0  0  0  0  0  0  0  0  0  0  0  0
   62.1190    5.3060   27.2770 C   0  0  0  0  0  0  0  0  0  0  0  0
   58.2350    6.8970   28.0220 C   0  0  0  0  0  0  0  0  0  0  0  0
   62.5810    4.4920   26.2790 C   0  0  0  0  0  0  0  0  0  0  0  0
   63.9900    3.8960   26.3660 C   0  0  0  0  0  0  0  0  0  0  0  0
   60.7780    5.8790   27.4540 C   0  0  0  0  0  0  0  0  0  0  0  0
   61.9561    3.4681   24.2096 H   0  0  0  0  0  0  0  0  0  0  0  0
   63.6718    2.6283   24.9054 H   0  0  0  0  0  0  0  0  0  0  0  0
   58.1894    7.4448   25.9902 H   0  0  0  0  0  0  0  0  0  0  0  0
   58.5153    6.2238   29.9411 H   0  0  0  0  0  0  0  0  0  0  0  0
   60.3847    6.6062   25.5450 H   0  0  0  0  0  0  0  0  0  0  0  0
   60.7043    5.3893   29.4777 H   0  0  0  0  0  0  0  0  0  0  0  0
   62.7860    5.5436   27.9831 H   0  0  0  0  0  0  0  0  0  0  0  0
  1 11  1  0  0  0  0
  2 10  1  0  0  0  0
  3 12  1  0  0  0  0
  4 12  2  0  0  0  0
  5  7  2  0  0  0  0
  5 10  1  0  0  0  0
  6  8  1  0  0  0  0
  6 10  2  0  0  0  0
  7 13  1  0  0  0  0
  8 13  2  0  0  0  0
  9 11  2  0  0  0  0
  9 13  1  0  0  0  0
 11 12  1  0  0  0  0
  1 14  1  0  0  0  0
  3 15  1  0  0  0  0
  5 16  1  0  0  0  0
  6 17  1  0  0  0  0
  7 18  1  0  0  0  0
  8 19  1  0  0  0  0
  9 20  1  0  0  0  0
M  END
> <pdb_id>
5JMX

> <uniprot_id>
P04190

> <usmiles>
S/C(/C(=O)O)=C\c1ccc(F)cc1

$$$$
DZX_A_1001
          07202415563D 1   1.00000     0.00000     0
            
 27 28  0  0  0  0            999 V2000
   80.8609   88.1938   16.8624 O   0  0  0  0  0  0  0  0  0  0  0  0
   77.2795   89.4164   21.5277 O   0  0  0  0  0  0  0  0  0  0  0  0
   78.9812   87.9787   20.4606 O   0  0  0  0  0  0  0  0  0  0  0  0
   76.8056   89.8150   17.8688 N   0  0  0  0  0  0  0  0  0  0  0  0
   80.1531   87.8301   18.0175 C   0  0  0  0  0  0  0  0  0  0  0  0
   76.2209   87.9899   19.1895 C   0  0  0  0  0  0  0  0  0  0  0  0
   77.0960   87.5009   18.0321 C   0  0  0  0  0  0  0  0  0  0  0  0
   77.5569   89.8807   20.2349 C   0  0  1  0  0  0  0  0  0  0  0  0
   78.9062   89.2259   19.8413 C   0  0  2  0  0  0  0  0  0  0  0  0
   76.4118   89.5135   19.2495 C   0  0  1  0  0  0  0  0  0  0  0  0
   77.8221   88.7683   17.5569 C   0  0  2  0  0  0  0  0  0  0  0  0
   79.1553   88.9788   18.3213 C   0  0  2  0  0  0  0  0  0  0  0  0
   81.5172   87.4748   16.6334 H   0  0  0  0  0  0  0  0  0  0  0  0
   76.4139   89.8054   21.8431 H   0  0  0  0  0  0  0  0  0  0  0  0
   79.8460   87.5382   20.2194 H   0  0  0  0  0  0  0  0  0  0  0  0
   77.2035   90.7300   17.8028 H   0  0  0  0  0  0  0  0  0  0  0  0
   80.7845   87.7126   18.7840 H   0  0  0  0  0  0  0  0  0  0  0  0
   79.6562   86.9766   17.8610 H   0  0  0  0  0  0  0  0  0  0  0  0
   76.5131   87.5688   20.0481 H   0  0  0  0  0  0  0  0  0  0  0  0
   75.2613   87.7663   19.0182 H   0  0  0  0  0  0  0  0  0  0  0  0
   76.5345   87.1166   17.2992 H   0  0  0  0  0  0  0  0  0  0  0  0
   77.7500   86.8130   18.3466 H   0  0  0  0  0  0  0  0  0  0  0  0
   77.6666   90.8744   20.2577 H   0  0  0  0  0  0  0  0  0  0  0  0
   79.6478   89.7971   20.1930 H   0  0  0  0  0  0  0  0  0  0  0  0
   75.5600   89.9769   19.4937 H   0  0  0  0  0  0  0  0  0  0  0  0
   77.9880   88.7263   16.5717 H   0  0  0  0  0  0  0  0  0  0  0  0
   79.5640   89.8163   17.9585 H   0  0  0  0  0  0  0  0  0  0  0  0
  1  5  1  0  0  0  0
  2  8  1  0  0  0  0
  3  9  1  0  0  0  0
  4 10  1  0  0  0  0
  4 11  1  0  0  0  0
  5 12  1  0  0  0  0
  6  7  1  0  0  0  0
  6 10  1  0  0  0  0
  7 11  1  0  0  0  0
  8  9  1  0  0  0  0
  8 10  1  0  0  0  0
  9 12  1  0  0  0  0
 11 12  1  0  0  0  0
  1 13  1  0  0  0  0
  2 14  1  0  0  0  0
  3 15  1  0  0  0  0
  4 16  1  0  0  0  0
  5 17  1  0  0  0  0
  5 18  1  0  0  0  0
  6 19  1  0  0  0  0
  6 20  1  0  0  0  0
  7 21  1  0  0  0  0
  7 22  1  0  0  0  0
  8 23  1  0  0  0  0
  9 24  1  0  0  0  0
 10 25  1  0  0  0  0
 11 26  1  0  0  0  0
 12 27  1  0  0  0  0
M  END
> <pdb_id>
4UFL

> <uniprot_id>
P54818

> <usmiles>
O[C@H]1[C@@H](O)[C@H]([C@@H]2N[C@H]1CC2)CO

$$$$
E04_A_400
          07202415063D 1   1.00000     0.00000     0
            
 62 66  0  0  0  0            999 V2000
   -1.5646   10.0258   17.0737 O   0  0  0  0  0  0  0  0  0  0  0  0
   -7.2111   -2.3312   16.3919 O   0  0  0  0  0  0  0  0  0  0  0  0
   -2.3051    8.1531   16.0339 O   0  0  0  0  0  0  0  0  0  0  0  0
   -7.9930   -1.5501   18.3519 N   0  0  0  0  0  0  0  0  0  0  0  0
   -1.9707   11.4420   14.5732 C   0  0  0  0  0  0  0  0  0  0  0  0
   -4.0124   11.2953   15.9771 C   0  0  0  0  0  0  0  0  0  0  0  0
   -2.3838    5.5752   16.5093 C   0  0  0  0  0  0  0  0  0  0  0  0
   -7.1303    1.1327   17.7393 C   0  0  0  0  0  0  0  0  0  0  0  0
   -5.0623    1.6239   13.9827 C   0  0  0  0  0  0  0  0  0  0  0  0
   -6.6714    2.4054   17.3802 C   0  0  0  0  0  0  0  0  0  0  0  0
   -4.8247    3.0821   13.5863 C   0  0  0  0  0  0  0  0  0  0  0  0
   -5.2554    4.8446   16.9987 C   0  0  0  0  0  0  0  0  0  0  0  0
   -2.6739    5.5379   13.5440 C   0  0  0  0  0  0  0  0  0  0  0  0
   -6.2423    0.2387   15.6871 C   0  0  0  0  0  0  0  0  0  0  0  0
   -2.2409    6.9829   13.8514 C   0  0  0  0  0  0  0  0  0  0  0  0
   -4.7918    6.2503   16.5862 C   0  0  0  0  0  0  0  0  0  0  0  0
   -4.2405    8.3635   14.5702 C   0  0  0  0  0  0  0  0  0  0  0  0
   -3.6995    9.7080   14.0934 C   0  0  0  0  0  0  0  0  0  0  0  0
   -2.2383    9.5824   16.1570 C   0  0  0  0  0  0  0  0  0  0  0  0
   -7.4004   -1.3349   17.2538 C   0  0  0  0  0  0  0  0  0  0  0  0
   -6.9159    0.0448   16.8937 C   0  0  0  0  0  0  0  0  0  0  0  0
   -5.7808    1.5025   15.3198 C   0  0  0  0  0  0  0  0  0  0  0  0
   -5.9923    2.5871   16.1703 C   0  0  0  0  0  0  0  0  0  0  0  0
   -5.5294    3.9524   15.7790 C   0  0  2  0  0  0  0  0  0  0  0  0
   -4.3492    3.8887   14.7943 C   0  0  2  0  0  0  0  0  0  0  0  0
   -3.8826    5.3149   14.4541 C   0  0  1  0  0  0  0  0  0  0  0  0
   -3.0927    7.4617   15.0443 C   0  0  2  0  0  0  0  0  0  0  0  0
   -2.9799   10.4912   15.1979 C   0  0  0  0  0  0  0  0  0  0  0  0
   -3.5548    6.1545   15.6898 C   0  0  2  0  0  0  0  0  0  0  0  0
   -8.1348   -0.8009   18.9988 H   0  0  0  0  0  0  0  0  0  0  0  0
   -8.3193   -2.4694   18.5722 H   0  0  0  0  0  0  0  0  0  0  0  0
   -1.2911   10.9172   14.0606 H   0  0  0  0  0  0  0  0  0  0  0  0
   -2.4429   12.0699   13.9545 H   0  0  0  0  0  0  0  0  0  0  0  0
   -1.5144   11.9643   15.2937 H   0  0  0  0  0  0  0  0  0  0  0  0
   -4.6777   10.6729   16.3893 H   0  0  0  0  0  0  0  0  0  0  0  0
   -3.5544   11.8177   16.6964 H   0  0  0  0  0  0  0  0  0  0  0  0
   -4.4828   11.9233   15.3572 H   0  0  0  0  0  0  0  0  0  0  0  0
   -1.5716    5.5097   15.9296 H   0  0  0  0  0  0  0  0  0  0  0  0
   -2.1915    6.1751   17.2859 H   0  0  0  0  0  0  0  0  0  0  0  0
   -2.6289    4.6652   16.8437 H   0  0  0  0  0  0  0  0  0  0  0  0
   -7.6135    1.0032   18.6052 H   0  0  0  0  0  0  0  0  0  0  0  0
   -4.1790    1.1597   14.0482 H   0  0  0  0  0  0  0  0  0  0  0  0
   -5.6183    1.1846   13.2771 H   0  0  0  0  0  0  0  0  0  0  0  0
   -6.8288    3.1840   17.9876 H   0  0  0  0  0  0  0  0  0  0  0  0
   -5.6783    3.4740   13.2430 H   0  0  0  0  0  0  0  0  0  0  0  0
   -4.1285    3.1199   12.8694 H   0  0  0  0  0  0  0  0  0  0  0  0
   -6.0952    4.9255   17.5356 H   0  0  0  0  0  0  0  0  0  0  0  0
   -4.5426    4.4197   17.5568 H   0  0  0  0  0  0  0  0  0  0  0  0
   -1.9412    4.8930   13.7613 H   0  0  0  0  0  0  0  0  0  0  0  0
   -2.9298    5.4401   12.5823 H   0  0  0  0  0  0  0  0  0  0  0  0
   -6.0883   -0.5390   15.0776 H   0  0  0  0  0  0  0  0  0  0  0  0
   -2.4035    7.5671   13.0563 H   0  0  0  0  0  0  0  0  0  0  0  0
   -1.2702    7.0075   14.0902 H   0  0  0  0  0  0  0  0  0  0  0  0
   -4.5667    6.7779   17.4053 H   0  0  0  0  0  0  0  0  0  0  0  0
   -5.5275    6.7078   16.0867 H   0  0  0  0  0  0  0  0  0  0  0  0
   -4.7212    7.9158   13.8162 H   0  0  0  0  0  0  0  0  0  0  0  0
   -4.8756    8.5139   15.3279 H   0  0  0  0  0  0  0  0  0  0  0  0
   -4.4645   10.2587   13.7593 H   0  0  0  0  0  0  0  0  0  0  0  0
   -3.0548    9.5452   13.3466 H   0  0  0  0  0  0  0  0  0  0  0  0
   -6.2877    4.3763   15.2838 H   0  0  0  0  0  0  0  0  0  0  0  0
   -3.5938    3.3993   15.2299 H   0  0  0  0  0  0  0  0  0  0  0  0
   -4.6565    5.7639   14.0074 H   0  0  0  0  0  0  0  0  0  0  0  0
  1 19  2  0  0  0  0
  2 20  2  0  0  0  0
  3 19  1  0  0  0  0
  3 27  1  0  0  0  0
  4 20  1  0  0  0  0
  5 28  1  0  0  0  0
  6 28  1  0  0  0  0
  7 29  1  0  0  0  0
  8 10  1  0  0  0  0
  8 21  2  0  0  0  0
  9 11  1  0  0  0  0
  9 22  1  0  0  0  0
 10 23  2  0  0  0  0
 11 25  1  0  0  0  0
 12 16  1  0  0  0  0
 12 24  1  0  0  0  0
 13 15  1  0  0  0  0
 13 26  1  0  0  0  0
 14 21  1  0  0  0  0
 14 22  2  0  0  0  0
 15 27  1  0  0  0  0
 16 29  1  0  0  0  0
 17 18  1  0  0  0  0
 17 27  1  0  0  0  0
 18 28  1  0  0  0  0
 19 28  1  0  0  0  0
 20 21  1  0  0  0  0
 22 23  1  0  0  0  0
 23 24  1  0  0  0  0
 24 25  1  0  0  0  0
 25 26  1  0  0  0  0
 26 29  1  0  0  0  0
 27 29  1  0  0  0  0
  4 30  1  0  0  0  0
  4 31  1  0  0  0  0
  5 32  1  0  0  0  0
  5 33  1  0  0  0  0
  5 34  1  0  0  0  0
  6 35  1  0  0  0  0
  6 36  1  0  0  0  0
  6 37  1  0  0  0  0
  7 38  1  0  0  0  0
  7 39  1  0  0  0  0
  7 40  1  0  0  0  0
  8 41  1  0  0  0  0
  9 42  1  0  0  0  0
  9 43  1  0  0  0  0
 10 44  1  0  0  0  0
 11 45  1  0  0  0  0
 11 46  1  0  0  0  0
 12 47  1  0  0  0  0
 12 48  1  0  0  0  0
 13 49  1  0  0  0  0
 13 50  1  0  0  0  0
 14 51  1  0  0  0  0
 15 52  1  0  0  0  0
 15 53  1  0  0  0  0
 16 54  1  0  0  0  0
 16 55  1  0  0  0  0
 17 56  1  0  0  0  0
 17 57  1  0  0  0  0
 18 58  1  0  0  0  0
 18 59  1  0  0  0  0
 24 60  1  0  0  0  0
 25 61  1  0  0  0  0
 26 62  1  0  0  0  0
M  END
> <pdb_id>
1ZQ5

> <uniprot_id>
P42330

> <usmiles>
O=C(N)c1cc2c(cc1)[C@@H]3[C@H]([C@H]4[C@@]([C@@]5(OC(=O)C(CC5)(C)C)CC4)(CC3)C)CC2

$$$$
E0A_A_202
          07212401333D 1   1.00000     0.00000     0
            
 43 45  0  0  0  0            999 V2000
  -13.1310  -19.5729  -16.7597 S   0  0  0  0  0  0  0  0  0  0  0  0
  -12.8489  -18.1666  -17.2383 O   0  0  0  0  0  0  0  0  0  0  0  0
  -12.3081  -19.9241  -15.5270 O   0  0  0  0  0  0  0  0  0  0  0  0
  -16.3357  -23.5977  -23.2560 O   0  0  0  0  0  0  0  0  0  0  0  0
  -12.8177  -20.6424  -17.9171 N   0  0  0  0  0  0  0  0  0  0  0  0
  -15.8222  -21.5322  -22.4196 N   0  0  0  0  0  0  0  0  0  0  0  0
  -17.9321  -20.5093  -22.8278 C   0  0  0  0  0  0  0  0  0  0  0  0
  -16.8302  -22.2619  -14.7482 C   0  0  0  0  0  0  0  0  0  0  0  0
  -14.8844  -19.6156  -16.3029 C   0  0  0  0  0  0  0  0  0  0  0  0
  -16.5654  -20.8041  -23.4145 C   0  0  0  0  0  0  0  0  0  0  0  0
  -16.5416  -20.8749  -15.1843 C   0  0  0  0  0  0  0  0  0  0  0  0
  -15.1281  -20.9834  -15.6957 C   0  0  0  0  0  0  0  0  0  0  0  0
  -13.8113  -24.4621  -19.6816 C   0  0  0  0  0  0  0  0  0  0  0  0
  -14.0878  -19.6034  -19.7468 C   0  0  0  0  0  0  0  0  0  0  0  0
  -14.8630  -19.7951  -20.9086 C   0  0  0  0  0  0  0  0  0  0  0  0
  -14.5720  -24.4389  -20.8631 C   0  0  0  0  0  0  0  0  0  0  0  0
  -13.4395  -23.2625  -19.0465 C   0  0  0  0  0  0  0  0  0  0  0  0
  -15.7270  -22.8832  -22.4269 C   0  0  0  0  0  0  0  0  0  0  0  0
  -13.5939  -20.7254  -19.0507 C   0  0  0  0  0  0  0  0  0  0  0  0
  -15.1123  -21.0587  -21.3632 C   0  0  0  0  0  0  0  0  0  0  0  0
  -14.9944  -23.2594  -21.3571 C   0  0  0  0  0  0  0  0  0  0  0  0
  -13.8866  -22.0230  -19.5746 C   0  0  0  0  0  0  0  0  0  0  0  0
  -14.6261  -22.1112  -20.7139 C   0  0  0  0  0  0  0  0  0  0  0  0
  -12.0402  -21.2624  -17.8114 H   0  0  0  0  0  0  0  0  0  0  0  0
  -18.4786  -20.0021  -23.4942 H   0  0  0  0  0  0  0  0  0  0  0  0
  -18.3917  -21.3690  -22.6050 H   0  0  0  0  0  0  0  0  0  0  0  0
  -17.8273  -19.9624  -21.9972 H   0  0  0  0  0  0  0  0  0  0  0  0
  -17.7601  -22.3100  -14.3836 H   0  0  0  0  0  0  0  0  0  0  0  0
  -16.7457  -22.8811  -15.5288 H   0  0  0  0  0  0  0  0  0  0  0  0
  -16.1794  -22.5302  -14.0379 H   0  0  0  0  0  0  0  0  0  0  0  0
  -15.4572  -19.4883  -17.1127 H   0  0  0  0  0  0  0  0  0  0  0  0
  -15.0867  -18.8987  -15.6356 H   0  0  0  0  0  0  0  0  0  0  0  0
  -16.6601  -21.3560  -24.2431 H   0  0  0  0  0  0  0  0  0  0  0  0
  -16.0958  -19.9493  -23.6353 H   0  0  0  0  0  0  0  0  0  0  0  0
  -16.6009  -20.2351  -14.4181 H   0  0  0  0  0  0  0  0  0  0  0  0
  -17.1673  -20.5860  -15.9090 H   0  0  0  0  0  0  0  0  0  0  0  0
  -14.4880  -21.1654  -14.9493 H   0  0  0  0  0  0  0  0  0  0  0  0
  -15.0489  -21.7030  -16.3856 H   0  0  0  0  0  0  0  0  0  0  0  0
  -13.5319  -25.3383  -19.2889 H   0  0  0  0  0  0  0  0  0  0  0  0
  -13.8900  -18.6795  -19.4193 H   0  0  0  0  0  0  0  0  0  0  0  0
  -15.2304  -19.0055  -21.4002 H   0  0  0  0  0  0  0  0  0  0  0  0
  -14.7979  -25.2919  -21.3335 H   0  0  0  0  0  0  0  0  0  0  0  0
  -12.8643  -23.2832  -18.2288 H   0  0  0  0  0  0  0  0  0  0  0  0
  1  2  2  0  0  0  0
  1  3  2  0  0  0  0
  1  5  1  0  0  0  0
  1  9  1  0  0  0  0
  4 18  2  0  0  0  0
  5 19  1  0  0  0  0
  6 10  1  0  0  0  0
  6 18  1  0  0  0  0
  6 20  1  0  0  0  0
  7 10  1  0  0  0  0
  8 11  1  0  0  0  0
  9 12  1  0  0  0  0
 11 12  1  0  0  0  0
 13 16  2  0  0  0  0
 13 17  1  0  0  0  0
 14 15  1  0  0  0  0
 14 19  2  0  0  0  0
 15 20  2  0  0  0  0
 16 21  1  0  0  0  0
 17 22  2  0  0  0  0
 18 21  1  0  0  0  0
 19 22  1  0  0  0  0
 20 23  1  0  0  0  0
 21 23  2  0  0  0  0
 22 23  1  0  0  0  0
  5 24  1  0  0  0  0
  7 25  1  0  0  0  0
  7 26  1  0  0  0  0
  7 27  1  0  0  0  0
  8 28  1  0  0  0  0
  8 29  1  0  0  0  0
  8 30  1  0  0  0  0
  9 31  1  0  0  0  0
  9 32  1  0  0  0  0
 10 33  1  0  0  0  0
 10 34  1  0  0  0  0
 11 35  1  0  0  0  0
 11 36  1  0  0  0  0
 12 37  1  0  0  0  0
 12 38  1  0  0  0  0
 13 39  1  0  0  0  0
 14 40  1  0  0  0  0
 15 41  1  0  0  0  0
 16 42  1  0  0  0  0
 17 43  1  0  0  0  0
M  END
> <pdb_id>
5CY9

> <uniprot_id>
O60885

> <usmiles>
S(=O)(=O)(Nc1c2c3c(N(C(=O)c3ccc2)CC)cc1)CCCC

$$$$
E0C_A_201
          07212401333D 1   1.00000     0.00000     0
            
 45 48  0  0  0  0            999 V2000
  -17.3935  -21.6286  -15.0160 Br  0  0  0  0  0  0  0  0  0  0  0  0
  -12.3891  -20.4419  -17.1367 S   0  0  0  0  0  0  0  0  0  0  0  0
  -13.1908  -19.1418  -17.2349 O   0  0  0  0  0  0  0  0  0  0  0  0
  -11.1070  -20.2621  -16.3312 O   0  0  0  0  0  0  0  0  0  0  0  0
  -16.7648  -23.7332  -22.9573 O   0  0  0  0  0  0  0  0  0  0  0  0
  -11.6120  -23.1455  -16.2382 O   0  0  0  0  0  0  0  0  0  0  0  0
  -12.0347  -20.9715  -18.7100 N   0  0  0  0  0  0  0  0  0  0  0  0
  -16.0158  -21.6353  -22.3721 N   0  0  0  0  0  0  0  0  0  0  0  0
  -11.1095  -24.4868  -16.0476 C   0  0  0  0  0  0  0  0  0  0  0  0
  -18.1591  -20.5249  -22.4515 C   0  0  0  0  0  0  0  0  0  0  0  0
  -16.9087  -20.7828  -23.2339 C   0  0  0  0  0  0  0  0  0  0  0  0
  -13.7007  -24.6694  -20.0290 C   0  0  0  0  0  0  0  0  0  0  0  0
  -15.1279  -23.3944  -14.9853 C   0  0  0  0  0  0  0  0  0  0  0  0
  -13.8033  -23.7619  -15.2544 C   0  0  0  0  0  0  0  0  0  0  0  0
  -14.7202  -24.5871  -20.9865 C   0  0  0  0  0  0  0  0  0  0  0  0
  -13.1009  -23.5011  -19.5430 C   0  0  0  0  0  0  0  0  0  0  0  0
  -13.5888  -19.8741  -20.2204 C   0  0  0  0  0  0  0  0  0  0  0  0
  -14.6193  -19.9864  -21.1733 C   0  0  0  0  0  0  0  0  0  0  0  0
  -14.7494  -21.2664  -16.0191 C   0  0  0  0  0  0  0  0  0  0  0  0
  -15.5990  -22.1462  -15.3625 C   0  0  0  0  0  0  0  0  0  0  0  0
  -13.4277  -21.6239  -16.3060 C   0  0  0  0  0  0  0  0  0  0  0  0
  -16.0278  -22.9760  -22.3076 C   0  0  0  0  0  0  0  0  0  0  0  0
  -12.9354  -22.8795  -15.9144 C   0  0  0  0  0  0  0  0  0  0  0  0
  -13.0393  -21.0217  -19.6261 C   0  0  0  0  0  0  0  0  0  0  0  0
  -15.0729  -21.2001  -21.5213 C   0  0  0  0  0  0  0  0  0  0  0  0
  -15.1101  -23.3896  -21.4267 C   0  0  0  0  0  0  0  0  0  0  0  0
  -13.5468  -22.2681  -20.0302 C   0  0  0  0  0  0  0  0  0  0  0  0
  -14.5294  -22.2847  -20.9544 C   0  0  0  0  0  0  0  0  0  0  0  0
  -11.1046  -21.2415  -18.9590 H   0  0  0  0  0  0  0  0  0  0  0  0
  -10.1486  -24.5249  -16.3220 H   0  0  0  0  0  0  0  0  0  0  0  0
  -11.1912  -24.7395  -15.0835 H   0  0  0  0  0  0  0  0  0  0  0  0
  -11.6409  -25.1243  -16.6055 H   0  0  0  0  0  0  0  0  0  0  0  0
  -18.7806  -19.9589  -22.9932 H   0  0  0  0  0  0  0  0  0  0  0  0
  -18.6029  -21.3948  -22.2360 H   0  0  0  0  0  0  0  0  0  0  0  0
  -17.9290  -20.0488  -21.6027 H   0  0  0  0  0  0  0  0  0  0  0  0
  -17.1280  -21.2644  -24.0824 H   0  0  0  0  0  0  0  0  0  0  0  0
  -16.4542  -19.9184  -23.4491 H   0  0  0  0  0  0  0  0  0  0  0  0
  -13.4015  -25.5623  -19.6926 H   0  0  0  0  0  0  0  0  0  0  0  0
  -15.7369  -24.0358  -14.5187 H   0  0  0  0  0  0  0  0  0  0  0  0
  -13.4729  -24.6628  -14.9730 H   0  0  0  0  0  0  0  0  0  0  0  0
  -15.1517  -25.4185  -21.3367 H   0  0  0  0  0  0  0  0  0  0  0  0
  -12.3697  -23.5473  -18.8625 H   0  0  0  0  0  0  0  0  0  0  0  0
  -13.2455  -18.9703  -19.9649 H   0  0  0  0  0  0  0  0  0  0  0  0
  -15.0112  -19.1655  -21.5886 H   0  0  0  0  0  0  0  0  0  0  0  0
  -15.0867  -20.3650  -16.2906 H   0  0  0  0  0  0  0  0  0  0  0  0
  1 20  1  0  0  0  0
  2  3  2  0  0  0  0
  2  4  2  0  0  0  0
  2  7  1  0  0  0  0
  2 21  1  0  0  0  0
  5 22  2  0  0  0  0
  6  9  1  0  0  0  0
  6 23  1  0  0  0  0
  7 24  1  0  0  0  0
  8 11  1  0  0  0  0
  8 22  1  0  0  0  0
  8 25  1  0  0  0  0
 10 11  1  0  0  0  0
 12 15  2  0  0  0  0
 12 16  1  0  0  0  0
 13 14  2  0  0  0  0
 13 20  1  0  0  0  0
 14 23  1  0  0  0  0
 15 26  1  0  0  0  0
 16 27  2  0  0  0  0
 17 18  1  0  0  0  0
 17 24  2  0  0  0  0
 18 25  2  0  0  0  0
 19 20  2  0  0  0  0
 19 21  1  0  0  0  0
 21 23  2  0  0  0  0
 22 26  1  0  0  0  0
 24 27  1  0  0  0  0
 25 28  1  0  0  0  0
 26 28  2  0  0  0  0
 27 28  1  0  0  0  0
  7 29  1  0  0  0  0
  9 30  1  0  0  0  0
  9 31  1  0  0  0  0
  9 32  1  0  0  0  0
 10 33  1  0  0  0  0
 10 34  1  0  0  0  0
 10 35  1  0  0  0  0
 11 36  1  0  0  0  0
 11 37  1  0  0  0  0
 12 38  1  0  0  0  0
 13 39  1  0  0  0  0
 14 40  1  0  0  0  0
 15 41  1  0  0  0  0
 16 42  1  0  0  0  0
 17 43  1  0  0  0  0
 18 44  1  0  0  0  0
 19 45  1  0  0  0  0
M  END
> <pdb_id>
5DX4

> <uniprot_id>
O60885

> <usmiles>
Brc1cc(S(=O)(=O)Nc2c3c4c(N(C(=O)c4ccc3)CC)cc2)c(OC)cc1

$$$$
E0K_A_201
          07212401333D 1   1.00000     0.00000     0
            
 40 43  0  0  0  0            999 V2000
  -12.2419  -18.5241  -15.8757 O   0  0  0  0  0  0  0  0  0  0  0  0
  -16.2690  -23.4510  -23.1561 O   0  0  0  0  0  0  0  0  0  0  0  0
  -13.5209  -21.2917  -17.5942 O   0  0  0  0  0  0  0  0  0  0  0  0
  -17.2406  -22.4233  -23.2987 N   0  0  0  0  0  0  0  0  0  0  0  0
  -13.0502  -18.5971  -17.9721 N   0  0  0  0  0  0  0  0  0  0  0  0
  -14.1593  -23.8277  -21.9817 C   0  0  0  0  0  0  0  0  0  0  0  0
  -17.7630  -20.1930  -22.3968 C   0  0  0  0  0  0  0  0  0  0  0  0
  -14.2267  -18.7753  -20.1570 C   0  0  0  0  0  0  0  0  0  0  0  0
  -15.5503  -22.3611  -14.7272 C   0  0  0  0  0  0  0  0  0  0  0  0
  -16.7074  -21.6146  -14.9253 C   0  0  0  0  0  0  0  0  0  0  0  0
  -14.8877  -19.5657  -21.1030 C   0  0  0  0  0  0  0  0  0  0  0  0
  -14.9304  -20.1711  -15.9873 C   0  0  0  0  0  0  0  0  0  0  0  0
  -14.6646  -21.5072  -19.6973 C   0  0  0  0  0  0  0  0  0  0  0  0
  -12.8512  -19.1872  -16.7238 C   0  0  0  0  0  0  0  0  0  0  0  0
  -15.3809  -22.9835  -22.2948 C   0  0  0  0  0  0  0  0  0  0  0  0
  -13.5016  -20.4191  -16.4298 C   0  0  2  0  0  0  0  0  0  0  0  0
  -13.9626  -20.7336  -18.7859 C   0  0  0  0  0  0  0  0  0  0  0  0
  -16.8745  -21.3972  -22.5153 C   0  0  0  0  0  0  0  0  0  0  0  0
  -13.7752  -19.3608  -18.9798 C   0  0  0  0  0  0  0  0  0  0  0  0
  -15.6159  -21.5769  -15.9162 C   0  0  0  0  0  0  0  0  0  0  0  0
  -15.0638  -20.9345  -20.9328 C   0  0  0  0  0  0  0  0  0  0  0  0
  -15.7347  -21.7261  -21.8524 C   0  0  0  0  0  0  0  0  0  0  0  0
  -12.7063  -17.6790  -18.1693 H   0  0  0  0  0  0  0  0  0  0  0  0
  -13.5834  -23.3480  -21.3198 H   0  0  0  0  0  0  0  0  0  0  0  0
  -14.4494  -24.7043  -21.5977 H   0  0  0  0  0  0  0  0  0  0  0  0
  -13.6401  -23.9871  -22.8214 H   0  0  0  0  0  0  0  0  0  0  0  0
  -17.3432  -19.5286  -21.7785 H   0  0  0  0  0  0  0  0  0  0  0  0
  -17.8848  -19.7786  -23.2987 H   0  0  0  0  0  0  0  0  0  0  0  0
  -18.6530  -20.4698  -22.0342 H   0  0  0  0  0  0  0  0  0  0  0  0
  -14.0807  -17.8005  -20.3256 H   0  0  0  0  0  0  0  0  0  0  0  0
  -15.5908  -23.3581  -14.7925 H   0  0  0  0  0  0  0  0  0  0  0  0
  -14.9150  -22.1002  -14.0003 H   0  0  0  0  0  0  0  0  0  0  0  0
  -16.8923  -20.8157  -14.3530 H   0  0  0  0  0  0  0  0  0  0  0  0
  -17.5682  -22.0736  -15.1452 H   0  0  0  0  0  0  0  0  0  0  0  0
  -15.2458  -19.1317  -21.9297 H   0  0  0  0  0  0  0  0  0  0  0  0
  -15.4021  -19.5885  -16.6491 H   0  0  0  0  0  0  0  0  0  0  0  0
  -14.9438  -19.7331  -15.0884 H   0  0  0  0  0  0  0  0  0  0  0  0
  -14.8874  -22.4589  -19.4863 H   0  0  0  0  0  0  0  0  0  0  0  0
  -13.0085  -20.8772  -15.6901 H   0  0  0  0  0  0  0  0  0  0  0  0
  -15.7614  -22.0614  -16.7788 H   0  0  0  0  0  0  0  0  0  0  0  0
  1 14  2  0  0  0  0
  2  4  1  0  0  0  0
  2 15  1  0  0  0  0
  3 16  1  0  0  0  0
  3 17  1  0  0  0  0
  4 18  2  0  0  0  0
  5 14  1  0  0  0  0
  5 19  1  0  0  0  0
  6 15  1  0  0  0  0
  7 18  1  0  0  0  0
  8 11  1  0  0  0  0
  8 19  2  0  0  0  0
  9 10  1  0  0  0  0
  9 20  1  0  0  0  0
 10 20  1  0  0  0  0
 11 21  2  0  0  0  0
 12 16  1  0  0  0  0
 12 20  1  0  0  0  0
 13 17  2  0  0  0  0
 13 21  1  0  0  0  0
 14 16  1  0  0  0  0
 15 22  2  0  0  0  0
 17 19  1  0  0  0  0
 18 22  1  0  0  0  0
 21 22  1  0  0  0  0
  5 23  1  0  0  0  0
  6 24  1  0  0  0  0
  6 25  1  0  0  0  0
  6 26  1  0  0  0  0
  7 27  1  0  0  0  0
  7 28  1  0  0  0  0
  7 29  1  0  0  0  0
  8 30  1  0  0  0  0
  9 31  1  0  0  0  0
  9 32  1  0  0  0  0
 10 33  1  0  0  0  0
 10 34  1  0  0  0  0
 11 35  1  0  0  0  0
 12 36  1  0  0  0  0
 12 37  1  0  0  0  0
 13 38  1  0  0  0  0
 16 39  1  0  0  0  0
 20 40  1  0  0  0  0
M  END
> <pdb_id>
5YQX

> <uniprot_id>
O60885

> <usmiles>
O=C1Nc2c(O[C@@H]1CC3CC3)cc(cc2)C4=C(ON=C4C)C

$$$$
E0Q_A_504
          07192420153D 1   1.00000     0.00000     0
            
 30 31  0  0  0  0            999 V2000
   12.2246  -34.7438   44.5631 Cl  0  0  0  0  0  0  0  0  0  0  0  0
   10.7737  -28.2384   45.3392 O   0  0  0  0  0  0  0  0  0  0  0  0
    8.9759  -28.3568   44.0323 O   0  0  0  0  0  0  0  0  0  0  0  0
    8.9324  -28.8833   48.0031 O   0  0  0  0  0  0  0  0  0  0  0  0
    9.6877  -32.0280   49.1229 O   0  0  0  0  0  0  0  0  0  0  0  0
    9.8161  -30.6254   46.8195 N   0  0  0  0  0  0  0  0  0  0  0  0
   11.8397  -36.1086   47.3041 C   0  0  0  0  0  0  0  0  0  0  0  0
   11.2349  -31.9759   44.3856 C   0  0  0  0  0  0  0  0  0  0  0  0
   10.7268  -33.9718   48.2063 C   0  0  0  0  0  0  0  0  0  0  0  0
   10.0100  -30.6754   49.2292 C   0  0  0  0  0  0  0  0  0  0  0  0
    9.2455  -30.0739   45.6008 C   0  0  0  0  0  0  0  0  0  0  0  0
    9.7780  -28.8213   45.0425 C   0  0  0  0  0  0  0  0  0  0  0  0
    9.5228  -29.9292   47.9739 C   0  0  0  0  0  0  0  0  0  0  0  0
   11.4564  -33.9340   45.9507 C   0  0  0  0  0  0  0  0  0  0  0  0
   10.2531  -32.6509   48.0570 C   0  0  0  0  0  0  0  0  0  0  0  0
   10.4092  -31.9257   46.8419 C   0  0  0  0  0  0  0  0  0  0  0  0
   11.3437  -34.6720   47.1517 C   0  0  0  0  0  0  0  0  0  0  0  0
   11.0202  -32.6200   45.7475 C   0  0  0  0  0  0  0  0  0  0  0  0
   11.5799  -36.5677   48.0812 H   0  0  0  0  0  0  0  0  0  0  0  0
   12.7694  -36.2382   47.3202 H   0  0  0  0  0  0  0  0  0  0  0  0
   11.5841  -36.7203   46.6389 H   0  0  0  0  0  0  0  0  0  0  0  0
   11.4257  -31.0248   44.3949 H   0  0  0  0  0  0  0  0  0  0  0  0
   10.4887  -32.0345   43.7696 H   0  0  0  0  0  0  0  0  0  0  0  0
   11.9695  -32.3330   43.8626 H   0  0  0  0  0  0  0  0  0  0  0  0
   10.6416  -34.4172   49.0167 H   0  0  0  0  0  0  0  0  0  0  0  0
   10.9651  -30.5644   49.3606 H   0  0  0  0  0  0  0  0  0  0  0  0
    9.6292  -30.2984   50.0378 H   0  0  0  0  0  0  0  0  0  0  0  0
    8.2965  -29.9264   45.7331 H   0  0  0  0  0  0  0  0  0  0  0  0
    9.3153  -30.7329   44.8922 H   0  0  0  0  0  0  0  0  0  0  0  0
   11.3539  -28.5831   46.0771 H   0  0  0  0  0  0  0  0  0  0  0  0
  1 14  1  0  0  0  0
  2 12  1  0  0  0  0
  3 12  2  0  0  0  0
  4 13  2  0  0  0  0
  5 10  1  0  0  0  0
  5 15  1  0  0  0  0
  6 11  1  0  0  0  0
  6 13  1  0  0  0  0
  6 16  1  0  0  0  0
  7 17  1  0  0  0  0
  7 19  1  0  0  0  0
  7 20  1  0  0  0  0
  7 21  1  0  0  0  0
  8 18  1  0  0  0  0
  8 22  1  0  0  0  0
  8 23  1  0  0  0  0
  8 24  1  0  0  0  0
  9 15  1  0  0  0  0
  9 17  2  0  0  0  0
  9 25  1  0  0  0  0
 10 13  1  0  0  0  0
 10 26  1  0  0  0  0
 10 27  1  0  0  0  0
 11 12  1  0  0  0  0
 11 28  1  0  0  0  0
 11 29  1  0  0  0  0
 14 17  1  0  0  0  0
 14 18  2  0  0  0  0
 15 16  2  0  0  0  0
 16 18  1  0  0  0  0
  2 30  1  0  0  0  0
M  END
> <pdb_id>
6FP1

> <uniprot_id>
Q84HF5

> <usmiles>
Clc1c(c2N(C(=O)COc2cc1C)CC(=O)O)C

$$$$
E0R_A_301
          07202407183D 1   1.00000     0.00000     0
            
 40 42  0  0  0  0            999 V2000
   37.4114   19.6828   -7.6129 O   0  0  0  0  0  0  0  0  0  0  0  0
   36.4457   20.5743   -9.3497 O   0  0  0  0  0  0  0  0  0  0  0  0
   30.0764   20.0643   -6.2618 O   0  0  0  0  0  0  0  0  0  0  0  0
   30.6957   16.9878   -3.8744 O   0  0  0  0  0  0  0  0  0  0  0  0
   26.9648   16.7751   -0.5170 N   0  0  0  0  0  0  0  0  0  0  0  0
   31.5712   18.4927   -5.5949 N   0  0  0  0  0  0  0  0  0  0  0  0
   28.8124   17.3441   -2.6904 N   0  0  0  0  0  0  0  0  0  0  0  0
   26.2464   16.4799    0.6938 C   0  0  0  0  0  0  0  0  0  0  0  0
   25.3533   19.6107   -2.2179 C   0  0  0  0  0  0  0  0  0  0  0  0
   25.6006   18.5721   -1.2952 C   0  0  0  0  0  0  0  0  0  0  0  0
   33.8486   18.4105   -5.8613 C   0  0  0  0  0  0  0  0  0  0  0  0
   32.6218   19.7086   -7.4690 C   0  0  0  0  0  0  0  0  0  0  0  0
   26.2098   19.9178   -3.2385 C   0  0  0  0  0  0  0  0  0  0  0  0
   35.0271   18.8109   -6.4797 C   0  0  0  0  0  0  0  0  0  0  0  0
   33.8160   20.1065   -8.0959 C   0  0  0  0  0  0  0  0  0  0  0  0
   28.2192   19.5162   -4.4396 C   0  0  0  0  0  0  0  0  0  0  0  0
   36.3789   19.9896   -8.2363 C   0  0  0  0  0  0  0  0  0  0  0  0
   30.3609   19.0874   -5.6322 C   0  0  0  0  0  0  0  0  0  0  0  0
   29.6431   17.6304   -3.7055 C   0  0  0  0  0  0  0  0  0  0  0  0
   32.6322   18.8674   -6.3380 C   0  0  0  0  0  0  0  0  0  0  0  0
   26.7153   17.7497   -1.3900 C   0  0  0  0  0  0  0  0  0  0  0  0
   27.6906   18.0439   -2.4987 C   0  0  0  0  0  0  0  0  0  0  0  0
   35.0413   19.6282   -7.6019 C   0  0  0  0  0  0  0  0  0  0  0  0
   27.3692   19.1784   -3.4094 C   0  0  0  0  0  0  0  0  0  0  0  0
   29.3481   18.7364   -4.6076 C   0  0  0  0  0  0  0  0  0  0  0  0
   37.3430   19.2187   -6.7298 H   0  0  0  0  0  0  0  0  0  0  0  0
   27.7407   16.1803   -0.7275 H   0  0  0  0  0  0  0  0  0  0  0  0
   31.6899   17.7193   -4.9722 H   0  0  0  0  0  0  0  0  0  0  0  0
   29.0371   16.5948   -2.0675 H   0  0  0  0  0  0  0  0  0  0  0  0
   26.6632   15.6907    1.1447 H   0  0  0  0  0  0  0  0  0  0  0  0
   26.2834   17.2708    1.3046 H   0  0  0  0  0  0  0  0  0  0  0  0
   25.2931   16.2731    0.4737 H   0  0  0  0  0  0  0  0  0  0  0  0
   24.5142   20.1460   -2.1210 H   0  0  0  0  0  0  0  0  0  0  0  0
   24.9518   18.4234   -0.5488 H   0  0  0  0  0  0  0  0  0  0  0  0
   33.8794   17.7943   -5.0744 H   0  0  0  0  0  0  0  0  0  0  0  0
   31.7472   20.0290   -7.8330 H   0  0  0  0  0  0  0  0  0  0  0  0
   26.0003   20.6733   -3.8594 H   0  0  0  0  0  0  0  0  0  0  0  0
   35.8985   18.4982   -6.1018 H   0  0  0  0  0  0  0  0  0  0  0  0
   33.7935   20.7223   -8.8836 H   0  0  0  0  0  0  0  0  0  0  0  0
   28.0276   20.2924   -5.0403 H   0  0  0  0  0  0  0  0  0  0  0  0
  1 17  1  0  0  0  0
  2 17  2  0  0  0  0
  3 18  2  0  0  0  0
  4 19  2  0  0  0  0
  5  8  1  0  0  0  0
  5 21  1  0  0  0  0
  6 18  1  0  0  0  0
  6 20  1  0  0  0  0
  7 19  1  0  0  0  0
  7 22  1  0  0  0  0
  9 10  2  0  0  0  0
  9 13  1  0  0  0  0
 10 21  1  0  0  0  0
 11 14  1  0  0  0  0
 11 20  2  0  0  0  0
 12 15  2  0  0  0  0
 12 20  1  0  0  0  0
 13 24  2  0  0  0  0
 14 23  2  0  0  0  0
 15 23  1  0  0  0  0
 16 24  1  0  0  0  0
 16 25  2  0  0  0  0
 17 23  1  0  0  0  0
 18 25  1  0  0  0  0
 19 25  1  0  0  0  0
 21 22  2  0  0  0  0
 22 24  1  0  0  0  0
  1 26  1  0  0  0  0
  5 27  1  0  0  0  0
  6 28  1  0  0  0  0
  7 29  1  0  0  0  0
  8 30  1  0  0  0  0
  8 31  1  0  0  0  0
  8 32  1  0  0  0  0
  9 33  1  0  0  0  0
 10 34  1  0  0  0  0
 11 35  1  0  0  0  0
 12 36  1  0  0  0  0
 13 37  1  0  0  0  0
 14 38  1  0  0  0  0
 15 39  1  0  0  0  0
 16 40  1  0  0  0  0
M  END
> <pdb_id>
6KZZ

> <uniprot_id>
nan

> <usmiles>
O=C(O)c1ccc(NC(=O)C=2C(=O)Nc3c(NC)cccc3C2)cc1

$$$$
E1B_A_338
          07202401373D 1   1.00000     0.00000     0
            
 38 41  0  0  0  0            999 V2000
   22.6087  -36.2530   15.4229 O   0  0  0  0  0  0  0  0  0  0  0  0
   22.2115  -37.0591   13.2472 O   0  0  0  0  0  0  0  0  0  0  0  0
   23.5743  -29.3777   10.1702 N   0  0  0  0  0  0  0  0  0  0  0  0
   23.3456  -28.5764   12.3711 N   0  0  0  0  0  0  0  0  0  0  0  0
   22.8741  -29.1625   15.2581 N   0  0  0  0  0  0  0  0  0  0  0  0
   22.8219  -31.3834   14.7074 N   0  0  0  0  0  0  0  0  0  0  0  0
   23.9143  -31.8572   20.3352 C   0  0  0  0  0  0  0  0  0  0  0  0
   23.5392  -28.3548   11.0583 C   0  0  0  0  0  0  0  0  0  0  0  0
   23.4237  -30.6581   10.5899 C   0  0  0  0  0  0  0  0  0  0  0  0
   22.1151  -27.6255   18.5447 C   0  0  0  0  0  0  0  0  0  0  0  0
   23.5356  -30.9376   19.6592 C   0  0  0  0  0  0  0  0  0  0  0  0
   22.2079  -27.7466   17.1658 C   0  0  0  0  0  0  0  0  0  0  0  0
   22.5346  -28.6511   19.3748 C   0  0  0  0  0  0  0  0  0  0  0  0
   22.8975  -34.6985   12.2225 C   0  0  0  0  0  0  0  0  0  0  0  0
   23.0698  -33.4244   11.6687 C   0  0  0  0  0  0  0  0  0  0  0  0
   23.1585  -29.9338   17.4590 C   0  0  0  0  0  0  0  0  0  0  0  0
   22.6763  -33.7781   14.4492 C   0  0  0  0  0  0  0  0  0  0  0  0
   22.5153  -36.2619   14.1681 C   0  0  0  0  0  0  0  0  0  0  0  0
   22.9683  -30.1399   14.2438 C   0  0  0  0  0  0  0  0  0  0  0  0
   22.7320  -28.9102   16.6369 C   0  0  0  0  0  0  0  0  0  0  0  0
   22.8498  -32.4811   13.8814 C   0  0  0  0  0  0  0  0  0  0  0  0
   23.0667  -29.8058   18.8240 C   0  0  0  0  0  0  0  0  0  0  0  0
   23.1820  -29.8636   12.8548 C   0  0  0  0  0  0  0  0  0  0  0  0
   22.7111  -34.8879   13.6072 C   0  0  0  0  0  0  0  0  0  0  0  0
   23.2159  -30.9315   11.9778 C   0  0  0  0  0  0  0  0  0  0  0  0
   23.0322  -32.2895   12.5287 C   0  0  0  0  0  0  0  0  0  0  0  0
   22.8911  -35.4192   15.8974 H   0  0  0  0  0  0  0  0  0  0  0  0
   22.9334  -28.2722   14.8068 H   0  0  0  0  0  0  0  0  0  0  0  0
   24.2292  -32.6220   20.8973 H   0  0  0  0  0  0  0  0  0  0  0  0
   23.6594  -27.4173   10.7317 H   0  0  0  0  0  0  0  0  0  0  0  0
   23.4578  -31.4092    9.9305 H   0  0  0  0  0  0  0  0  0  0  0  0
   21.7412  -26.7882   18.9435 H   0  0  0  0  0  0  0  0  0  0  0  0
   21.9016  -27.0066   16.5669 H   0  0  0  0  0  0  0  0  0  0  0  0
   22.4539  -28.5589   20.3673 H   0  0  0  0  0  0  0  0  0  0  0  0
   22.9067  -35.4961   11.6194 H   0  0  0  0  0  0  0  0  0  0  0  0
   23.2169  -33.3128   10.6859 H   0  0  0  0  0  0  0  0  0  0  0  0
   23.5349  -30.7702   17.0604 H   0  0  0  0  0  0  0  0  0  0  0  0
   22.5325  -33.8889   15.4326 H   0  0  0  0  0  0  0  0  0  0  0  0
  1 18  1  0  0  0  0
  2 18  2  0  0  0  0
  3  8  2  0  0  0  0
  3  9  1  0  0  0  0
  4  8  1  0  0  0  0
  4 23  2  0  0  0  0
  5 19  1  0  0  0  0
  5 20  1  0  0  0  0
  6 19  2  0  0  0  0
  6 21  1  0  0  0  0
  7 11  3  0  0  0  0
  9 25  2  0  0  0  0
 10 12  1  0  0  0  0
 10 13  2  0  0  0  0
 11 22  1  0  0  0  0
 12 20  2  0  0  0  0
 13 22  1  0  0  0  0
 14 15  1  0  0  0  0
 14 24  2  0  0  0  0
 15 26  2  0  0  0  0
 16 20  1  0  0  0  0
 16 22  2  0  0  0  0
 17 21  2  0  0  0  0
 17 24  1  0  0  0  0
 18 24  1  0  0  0  0
 19 23  1  0  0  0  0
 21 26  1  0  0  0  0
 23 25  1  0  0  0  0
 25 26  1  0  0  0  0
  1 27  1  0  0  0  0
  5 28  1  0  0  0  0
  7 29  1  0  0  0  0
  8 30  1  0  0  0  0
  9 31  1  0  0  0  0
 10 32  1  0  0  0  0
 12 33  1  0  0  0  0
 13 34  1  0  0  0  0
 14 35  1  0  0  0  0
 15 36  1  0  0  0  0
 16 37  1  0  0  0  0
 17 38  1  0  0  0  0
M  END
> <pdb_id>
3PE2

> <uniprot_id>
P68400

> <usmiles>
O=C(O)c1cc2nc(Nc3cc(C#C)ccc3)c4ncncc4c2cc1

$$$$
E1F_A_302
          07192416293D 1   1.00000     0.00000     0
            
 31 32  0  0  0  0            999 V2000
   -6.7916    4.0069   17.3379 Cl  0  0  0  0  0  0  0  0  0  0  0  0
   -2.0216    6.4499   11.8094 S   0  0  0  0  0  0  0  0  0  0  0  0
   -5.9408    0.8815   16.9109 S   0  0  0  0  0  0  0  0  0  0  0  0
   -5.4138    1.1393   18.4521 O   0  0  0  0  0  0  0  0  0  0  0  0
   -7.4847    0.9558   16.8343 O   0  0  0  0  0  0  0  0  0  0  0  0
   -4.4478    6.2367   13.1220 O   0  0  0  0  0  0  0  0  0  0  0  0
   -5.1544   -0.5639   16.3469 N   0  0  0  0  0  0  0  0  0  0  0  0
   -1.4315    8.9564   12.4748 N   0  0  0  0  0  0  0  0  0  0  0  0
   -1.5840    7.4561   14.3668 N   0  0  0  0  0  0  0  0  0  0  0  0
   -2.3193    5.1230   13.0153 C   0  0  0  0  0  0  0  0  0  0  0  0
   -1.1525    9.9789   13.3543 C   0  0  0  0  0  0  0  0  0  0  0  0
   -1.2740    8.4615   15.2403 C   0  0  0  0  0  0  0  0  0  0  0  0
   -1.0627    9.7334   14.7445 C   0  0  0  0  0  0  0  0  0  0  0  0
   -4.4318    1.7968   14.8344 C   0  0  0  0  0  0  0  0  0  0  0  0
   -3.9213    2.8157   14.0096 C   0  0  0  0  0  0  0  0  0  0  0  0
   -5.2225    4.5459   15.2218 C   0  0  0  0  0  0  0  0  0  0  0  0
   -1.6417    7.7085   13.0065 C   0  0  0  0  0  0  0  0  0  0  0  0
   -5.7219    3.5380   16.0425 C   0  0  0  0  0  0  0  0  0  0  0  0
   -5.3140    2.1889   15.8427 C   0  0  0  0  0  0  0  0  0  0  0  0
   -3.7547    5.2516   13.4045 C   0  0  0  0  0  0  0  0  0  0  0  0
   -4.3072    4.1648   14.2364 C   0  0  0  0  0  0  0  0  0  0  0  0
   -5.4468   -0.7587   15.4107 H   0  0  0  0  0  0  0  0  0  0  0  0
   -4.1632   -0.4332   16.3662 H   0  0  0  0  0  0  0  0  0  0  0  0
   -1.7290    5.2381   13.8143 H   0  0  0  0  0  0  0  0  0  0  0  0
   -2.1485    4.2292   12.6006 H   0  0  0  0  0  0  0  0  0  0  0  0
   -1.0117   10.9057   13.0060 H   0  0  0  0  0  0  0  0  0  0  0  0
   -1.2015    8.2791   16.2208 H   0  0  0  0  0  0  0  0  0  0  0  0
   -0.8457   10.4827   15.3702 H   0  0  0  0  0  0  0  0  0  0  0  0
   -4.1753    0.8389   14.7047 H   0  0  0  0  0  0  0  0  0  0  0  0
   -3.2899    2.5918   13.2672 H   0  0  0  0  0  0  0  0  0  0  0  0
   -5.5055    5.4987   15.3322 H   0  0  0  0  0  0  0  0  0  0  0  0
  1 18  1  0  0  0  0
  2 10  1  0  0  0  0
  2 17  1  0  0  0  0
  3  4  2  0  0  0  0
  3  5  2  0  0  0  0
  3  7  1  0  0  0  0
  3 19  1  0  0  0  0
  6 20  2  0  0  0  0
  8 11  2  0  0  0  0
  8 17  1  0  0  0  0
  9 12  1  0  0  0  0
  9 17  2  0  0  0  0
 10 20  1  0  0  0  0
 11 13  1  0  0  0  0
 12 13  2  0  0  0  0
 14 15  1  0  0  0  0
 14 19  2  0  0  0  0
 15 21  2  0  0  0  0
 16 18  2  0  0  0  0
 16 21  1  0  0  0  0
 18 19  1  0  0  0  0
 20 21  1  0  0  0  0
  7 22  1  0  0  0  0
  7 23  1  0  0  0  0
 10 24  1  0  0  0  0
 10 25  1  0  0  0  0
 11 26  1  0  0  0  0
 12 27  1  0  0  0  0
 13 28  1  0  0  0  0
 14 29  1  0  0  0  0
 15 30  1  0  0  0  0
 16 31  1  0  0  0  0
M  END
> <pdb_id>
4KNJ

> <uniprot_id>
P00918

> <usmiles>
Clc1c(S(=O)(=O)N)ccc(c1)C(=O)CSc2ncccn2

$$$$
E1F_D_302
          07192419453D 1   1.00000     0.00000     0
            
 31 32  0  0  0  0            999 V2000
    4.7111    9.0995  -33.8767 Cl  0  0  0  0  0  0  0  0  0  0  0  0
    1.9451   15.0509  -36.2802 S   0  0  0  0  0  0  0  0  0  0  0  0
    6.5732    7.7004  -36.1656 S   0  0  0  0  0  0  0  0  0  0  0  0
    7.4279    7.8440  -34.9485 O   0  0  0  0  0  0  0  0  0  0  0  0
    5.4372    6.7605  -36.0519 O   0  0  0  0  0  0  0  0  0  0  0  0
    3.6925   13.5027  -38.0481 O   0  0  0  0  0  0  0  0  0  0  0  0
    7.4543    7.4281  -37.4711 N   0  0  0  0  0  0  0  0  0  0  0  0
    3.1534   17.4648  -36.4331 N   0  0  0  0  0  0  0  0  0  0  0  0
    4.5062   15.6705  -35.7711 N   0  0  0  0  0  0  0  0  0  0  0  0
    2.6224   13.3758  -35.9295 C   0  0  0  0  0  0  0  0  0  0  0  0
    4.2084   18.2930  -36.3383 C   0  0  0  0  0  0  0  0  0  0  0  0
    5.5754   16.4172  -35.6458 C   0  0  0  0  0  0  0  0  0  0  0  0
    5.4369   17.7575  -35.9624 C   0  0  0  0  0  0  0  0  0  0  0  0
    5.8692    9.9679  -37.6513 C   0  0  0  0  0  0  0  0  0  0  0  0
    5.1835   11.1946  -37.8056 C   0  0  0  0  0  0  0  0  0  0  0  0
    4.1627   10.9960  -35.6424 C   0  0  0  0  0  0  0  0  0  0  0  0
    3.3148   16.1609  -36.1409 C   0  0  0  0  0  0  0  0  0  0  0  0
    4.8846    9.8341  -35.4132 C   0  0  0  0  0  0  0  0  0  0  0  0
    5.7584    9.3633  -36.3969 C   0  0  0  0  0  0  0  0  0  0  0  0
    3.5478   12.9266  -37.0092 C   0  0  0  0  0  0  0  0  0  0  0  0
    4.3417   11.6665  -36.8209 C   0  0  0  0  0  0  0  0  0  0  0  0
    6.8538    7.3371  -38.2655 H   0  0  0  0  0  0  0  0  0  0  0  0
    8.0830    8.1924  -37.6143 H   0  0  0  0  0  0  0  0  0  0  0  0
    1.8650   12.7266  -35.8592 H   0  0  0  0  0  0  0  0  0  0  0  0
    3.1212   13.4012  -35.0631 H   0  0  0  0  0  0  0  0  0  0  0  0
    4.1128   19.2692  -36.5329 H   0  0  0  0  0  0  0  0  0  0  0  0
    6.4477   16.0379  -35.3370 H   0  0  0  0  0  0  0  0  0  0  0  0
    6.2378   18.3548  -35.9201 H   0  0  0  0  0  0  0  0  0  0  0  0
    6.4002    9.5589  -38.3934 H   0  0  0  0  0  0  0  0  0  0  0  0
    5.3109   11.7282  -38.6417 H   0  0  0  0  0  0  0  0  0  0  0  0
    3.5208   11.3384  -34.9562 H   0  0  0  0  0  0  0  0  0  0  0  0
  1 18  1  0  0  0  0
  2 10  1  0  0  0  0
  2 17  1  0  0  0  0
  3  4  2  0  0  0  0
  3  5  2  0  0  0  0
  3  7  1  0  0  0  0
  3 19  1  0  0  0  0
  6 20  2  0  0  0  0
  8 11  2  0  0  0  0
  8 17  1  0  0  0  0
  9 12  1  0  0  0  0
  9 17  2  0  0  0  0
 10 20  1  0  0  0  0
 11 13  1  0  0  0  0
 12 13  2  0  0  0  0
 14 15  1  0  0  0  0
 14 19  2  0  0  0  0
 15 21  2  0  0  0  0
 16 18  2  0  0  0  0
 16 21  1  0  0  0  0
 18 19  1  0  0  0  0
 20 21  1  0  0  0  0
  7 22  1  0  0  0  0
  7 23  1  0  0  0  0
 10 24  1  0  0  0  0
 10 25  1  0  0  0  0
 11 26  1  0  0  0  0
 12 27  1  0  0  0  0
 13 28  1  0  0  0  0
 14 29  1  0  0  0  0
 15 30  1  0  0  0  0
 16 31  1  0  0  0  0
M  END
> <pdb_id>
4KP5

> <uniprot_id>
O43570

> <usmiles>
Clc1c(S(=O)(=O)N)ccc(c1)C(=O)CSc2ncccn2

$$$$
E1G_B_302
          07192419453D 1   1.00000     0.00000     0
            
 31 32  0  0  0  0            999 V2000
    3.0867   13.7954  -35.5228 S   0  0  0  0  0  0  0  0  0  0  0  0
    6.6939    7.9371  -36.4277 S   0  0  0  0  0  0  0  0  0  0  0  0
    7.4415    8.1064  -35.1114 O   0  0  0  0  0  0  0  0  0  0  0  0
    5.3986    7.1970  -36.2092 O   0  0  0  0  0  0  0  0  0  0  0  0
    2.1521   10.8341  -37.1263 O   0  0  0  0  0  0  0  0  0  0  0  0
    7.6535    7.0903  -37.5974 N   0  0  0  0  0  0  0  0  0  0  0  0
    4.7856   15.9484  -35.2639 N   0  0  0  0  0  0  0  0  0  0  0  0
    4.2373   15.4302  -37.4920 N   0  0  0  0  0  0  0  0  0  0  0  0
    2.6394   13.0911  -37.1333 C   0  0  0  0  0  0  0  0  0  0  0  0
    5.5538   16.9966  -35.6934 C   0  0  0  0  0  0  0  0  0  0  0  0
    5.0172   16.4693  -37.9472 C   0  0  0  0  0  0  0  0  0  0  0  0
    5.7065   17.2802  -37.0453 C   0  0  0  0  0  0  0  0  0  0  0  0
    6.8710   11.8609  -37.5221 C   0  0  0  0  0  0  0  0  0  0  0  0
    7.2927   10.5287  -37.2310 C   0  0  0  0  0  0  0  0  0  0  0  0
    5.5215   12.2361  -37.5352 C   0  0  0  0  0  0  0  0  0  0  0  0
    4.9503    9.9888  -36.8716 C   0  0  0  0  0  0  0  0  0  0  0  0
    4.1083   15.1596  -36.1480 C   0  0  0  0  0  0  0  0  0  0  0  0
    6.2933    9.5985  -36.9104 C   0  0  0  0  0  0  0  0  0  0  0  0
    3.0632   11.6586  -37.1509 C   0  0  0  0  0  0  0  0  0  0  0  0
    4.5291   11.2843  -37.1933 C   0  0  0  0  0  0  0  0  0  0  0  0
    7.1359    6.9958  -38.4478 H   0  0  0  0  0  0  0  0  0  0  0  0
    8.4936    7.6033  -37.7737 H   0  0  0  0  0  0  0  0  0  0  0  0
    3.1062   13.5911  -37.8627 H   0  0  0  0  0  0  0  0  0  0  0  0
    1.6503   13.1531  -37.2668 H   0  0  0  0  0  0  0  0  0  0  0  0
    6.0161   17.5719  -35.0185 H   0  0  0  0  0  0  0  0  0  0  0  0
    5.0900   16.6437  -38.9292 H   0  0  0  0  0  0  0  0  0  0  0  0
    6.2854   18.0332  -37.3581 H   0  0  0  0  0  0  0  0  0  0  0  0
    7.5648   12.5522  -37.7242 H   0  0  0  0  0  0  0  0  0  0  0  0
    8.2584   10.2699  -37.2545 H   0  0  0  0  0  0  0  0  0  0  0  0
    5.2604   13.1688  -37.7840 H   0  0  0  0  0  0  0  0  0  0  0  0
    4.2628    9.3142  -36.6029 H   0  0  0  0  0  0  0  0  0  0  0  0
  1  9  1  0  0  0  0
  1 17  1  0  0  0  0
  2  3  2  0  0  0  0
  2  4  2  0  0  0  0
  2  6  1  0  0  0  0
  2 18  1  0  0  0  0
  5 19  2  0  0  0  0
  7 10  2  0  0  0  0
  7 17  1  0  0  0  0
  8 11  1  0  0  0  0
  8 17  2  0  0  0  0
  9 19  1  0  0  0  0
 10 12  1  0  0  0  0
 11 12  2  0  0  0  0
 13 14  2  0  0  0  0
 13 15  1  0  0  0  0
 14 18  1  0  0  0  0
 15 20  2  0  0  0  0
 16 18  2  0  0  0  0
 16 20  1  0  0  0  0
 19 20  1  0  0  0  0
  6 21  1  0  0  0  0
  6 22  1  0  0  0  0
  9 23  1  0  0  0  0
  9 24  1  0  0  0  0
 10 25  1  0  0  0  0
 11 26  1  0  0  0  0
 12 27  1  0  0  0  0
 13 28  1  0  0  0  0
 14 29  1  0  0  0  0
 15 30  1  0  0  0  0
 16 31  1  0  0  0  0
M  END
> <pdb_id>
4KP8

> <uniprot_id>
O43570

> <usmiles>
S(=O)(=O)(N)c1cc(ccc1)C(=O)CSc2ncccn2

$$$$
E1N_A_604
          07192421493D 1   1.00000     0.00000     0
            
 44 47  0  0  0  0            999 V2000
    7.3264   70.9936   69.8167 Cl  0  0  0  0  0  0  0  0  0  0  0  0
    1.6823   69.0038   66.6738 N   0  0  0  0  0  0  0  0  0  0  0  0
    5.4856   69.4346   65.3745 N   0  3  0  0  0  0  0  0  0  0  0  0
    6.8494   69.5802   64.9093 C   0  0  0  0  0  0  0  0  0  0  0  0
    3.2395   64.3401   65.4403 C   0  0  0  0  0  0  0  0  0  0  0  0
    3.4435   64.6914   63.9867 C   0  0  0  0  0  0  0  0  0  0  0  0
    4.6777   70.3537   69.3119 C   0  0  0  0  0  0  0  0  0  0  0  0
    3.6455   69.9170   68.4641 C   0  0  0  0  0  0  0  0  0  0  0  0
    6.2424   70.1627   67.4772 C   0  0  0  0  0  0  0  0  0  0  0  0
    5.0579   68.7327   63.1922 C   0  0  0  0  0  0  0  0  0  0  0  0
    4.1510   66.5696   62.7960 C   0  0  0  0  0  0  0  0  0  0  0  0
    2.1851   66.8123   64.3015 C   0  0  0  0  0  0  0  0  0  0  0  0
    2.6872   68.4933   62.5733 C   0  0  0  0  0  0  0  0  0  0  0  0
    5.9797   70.4802   68.8019 C   0  0  0  0  0  0  0  0  0  0  0  0
    2.9442   69.1464   66.2362 C   0  0  0  0  0  0  0  0  0  0  0  0
    5.2126   69.7179   66.6521 C   0  0  0  0  0  0  0  0  0  0  0  0
    4.5885   68.9827   64.5044 C   0  0  0  0  0  0  0  0  0  0  0  0
    3.2709   66.0543   63.7411 C   0  0  0  0  0  0  0  0  0  0  0  0
    4.0918   67.8947   62.3854 C   0  0  1  0  0  0  0  0  0  0  0  0
    2.2925   68.3423   64.0296 C   0  0  2  0  0  0  0  0  0  0  0  0
    3.9187   69.5945   67.1337 C   0  0  0  0  0  0  0  0  0  0  0  0
    3.2631   68.8380   64.9077 C   0  0  0  0  0  0  0  0  0  0  0  0
    0.9696   68.6847   66.0491 H   0  0  0  0  0  0  0  0  0  0  0  0
    1.4557   69.2165   67.6242 H   0  0  0  0  0  0  0  0  0  0  0  0
    6.8994   69.3347   63.9412 H   0  0  0  0  0  0  0  0  0  0  0  0
    7.1427   70.5289   65.0281 H   0  0  0  0  0  0  0  0  0  0  0  0
    7.4479   68.9777   65.4373 H   0  0  0  0  0  0  0  0  0  0  0  0
    3.3729   63.3572   65.5675 H   0  0  0  0  0  0  0  0  0  0  0  0
    3.8994   64.8412   66.0001 H   0  0  0  0  0  0  0  0  0  0  0  0
    2.3112   64.5890   65.7163 H   0  0  0  0  0  0  0  0  0  0  0  0
    2.7836   64.1796   63.4366 H   0  0  0  0  0  0  0  0  0  0  0  0
    4.3718   64.4319   63.7204 H   0  0  0  0  0  0  0  0  0  0  0  0
    4.4867   70.5721   70.2689 H   0  0  0  0  0  0  0  0  0  0  0  0
    2.7125   69.8371   68.8149 H   0  0  0  0  0  0  0  0  0  0  0  0
    7.1702   70.2532   67.1152 H   0  0  0  0  0  0  0  0  0  0  0  0
    5.9315   68.2497   63.2500 H   0  0  0  0  0  0  0  0  0  0  0  0
    5.1908   69.6076   62.7264 H   0  0  0  0  0  0  0  0  0  0  0  0
    4.8462   65.9690   62.4010 H   0  0  0  0  0  0  0  0  0  0  0  0
    2.1742   66.6663   65.2908 H   0  0  0  0  0  0  0  0  0  0  0  0
    1.3291   66.4795   63.9060 H   0  0  0  0  0  0  0  0  0  0  0  0
    2.0328   68.0072   61.9940 H   0  0  0  0  0  0  0  0  0  0  0  0
    2.6970   69.4619   62.3248 H   0  0  0  0  0  0  0  0  0  0  0  0
    4.3424   67.9480   61.4188 H   0  0  0  0  0  0  0  0  0  0  0  0
    1.4129   68.7870   64.1983 H   0  0  0  0  0  0  0  0  0  0  0  0
  1 14  1  0  0  0  0
  2 15  1  0  0  0  0
  3  4  1  0  0  0  0
  3 16  2  0  0  0  0
  3 17  1  0  0  0  0
  5  6  1  0  0  0  0
  6 18  1  0  0  0  0
  7  8  2  0  0  0  0
  7 14  1  0  0  0  0
  8 21  1  0  0  0  0
  9 14  2  0  0  0  0
  9 16  1  0  0  0  0
 10 17  1  0  0  0  0
 10 19  1  0  0  0  0
 11 18  2  0  0  0  0
 11 19  1  0  0  0  0
 12 18  1  0  0  0  0
 12 20  1  0  0  0  0
 13 19  1  0  0  0  0
 13 20  1  0  0  0  0
 15 21  2  0  0  0  0
 15 22  1  0  0  0  0
 16 21  1  0  0  0  0
 17 22  2  0  0  0  0
 20 22  1  0  0  0  0
  2 23  1  0  0  0  0
  2 24  1  0  0  0  0
  4 25  1  0  0  0  0
  4 26  1  0  0  0  0
  4 27  1  0  0  0  0
  5 28  1  0  0  0  0
  5 29  1  0  0  0  0
  5 30  1  0  0  0  0
  6 31  1  0  0  0  0
  6 32  1  0  0  0  0
  7 33  1  0  0  0  0
  8 34  1  0  0  0  0
  9 35  1  0  0  0  0
 10 36  1  0  0  0  0
 10 37  1  0  0  0  0
 11 38  1  0  0  0  0
 12 39  1  0  0  0  0
 12 40  1  0  0  0  0
 13 41  1  0  0  0  0
 13 42  1  0  0  0  0
 19 43  1  0  0  0  0
 20 44  1  0  0  0  0
M  CHG  1   3   1
M  END
> <pdb_id>
6G1V

> <uniprot_id>
P04058

> <usmiles>
Clc1cc2[n+](c3c(c(N)c2cc1)[C@@H]4CC(=C[C@H](C3)C4)CC)C

$$$$
E1Z_A_1801
          07212402463D 1   1.00000     0.00000     0
            
 44 44  0  0  0  0            999 V2000
  -46.7909  -10.7972   25.7519 O   0  0  0  0  0  0  0  0  0  0  0  0
  -44.1162  -10.9612   25.9238 O   0  0  0  0  0  0  0  0  0  0  0  0
  -40.6625   -7.4101   31.3422 O   0  0  0  0  0  0  0  0  0  0  0  0
  -45.9204   -9.7569   25.5250 N   0  0  0  0  0  0  0  0  0  0  0  0
  -42.0214   -1.5050   33.5159 N   0  0  0  0  0  0  0  0  0  0  0  0
  -42.1735   -1.5056   34.9763 C   0  0  0  0  0  0  0  0  0  0  0  0
  -42.1273   -0.2098   32.8483 C   0  0  0  0  0  0  0  0  0  0  0  0
  -42.8886   -6.0422   27.1648 C   0  0  0  0  0  0  0  0  0  0  0  0
  -39.0814   -6.6186   28.8535 C   0  0  0  0  0  0  0  0  0  0  0  0
  -44.0085   -8.6091   26.3124 C   0  0  0  0  0  0  0  0  0  0  0  0
  -41.6693   -3.9274   33.4852 C   0  0  0  0  0  0  0  0  0  0  0  0
  -41.5099   -2.6793   31.4087 C   0  0  0  0  0  0  0  0  0  0  0  0
  -43.0160   -8.6140   27.2062 C   0  0  0  0  0  0  0  0  0  0  0  0
  -41.3515   -5.0942   32.7766 C   0  0  0  0  0  0  0  0  0  0  0  0
  -41.2076   -3.8522   30.7101 C   0  0  0  0  0  0  0  0  0  0  0  0
  -41.3850   -7.5134   28.5508 C   0  0  0  0  0  0  0  0  0  0  0  0
  -44.6581   -9.8647   25.9016 C   0  0  0  0  0  0  0  0  0  0  0  0
  -40.7663   -6.3693   30.6852 C   0  0  0  0  0  0  0  0  0  0  0  0
  -41.7414   -2.6962   32.8061 C   0  0  0  0  0  0  0  0  0  0  0  0
  -42.3775   -7.3733   27.6567 C   0  0  0  0  0  0  0  0  0  0  0  0
  -40.5570   -6.4095   29.1861 C   0  0  1  0  0  0  0  0  0  0  0  0
  -41.1110   -5.0775   31.3895 C   0  0  0  0  0  0  0  0  0  0  0  0
  -47.6980  -10.5537   25.4087 H   0  0  0  0  0  0  0  0  0  0  0  0
  -46.2411   -8.9224   25.0770 H   0  0  0  0  0  0  0  0  0  0  0  0
  -42.0828   -2.4401   35.3205 H   0  0  0  0  0  0  0  0  0  0  0  0
  -41.4659   -0.9295   35.3854 H   0  0  0  0  0  0  0  0  0  0  0  0
  -43.0755   -1.1476   35.2176 H   0  0  0  0  0  0  0  0  0  0  0  0
  -42.0080   -0.3320   31.8630 H   0  0  0  0  0  0  0  0  0  0  0  0
  -43.0280    0.1854   33.0286 H   0  0  0  0  0  0  0  0  0  0  0  0
  -41.4183    0.4035   33.1964 H   0  0  0  0  0  0  0  0  0  0  0  0
  -42.3439   -5.3066   27.5674 H   0  0  0  0  0  0  0  0  0  0  0  0
  -42.8149   -6.0045   26.1682 H   0  0  0  0  0  0  0  0  0  0  0  0
  -43.8459   -5.9331   27.4325 H   0  0  0  0  0  0  0  0  0  0  0  0
  -38.5388   -5.8907   29.2729 H   0  0  0  0  0  0  0  0  0  0  0  0
  -38.7820   -7.5042   29.2084 H   0  0  0  0  0  0  0  0  0  0  0  0
  -38.9571   -6.5977   27.8615 H   0  0  0  0  0  0  0  0  0  0  0  0
  -44.3139   -7.7426   25.9176 H   0  0  0  0  0  0  0  0  0  0  0  0
  -41.8441   -3.9692   34.4689 H   0  0  0  0  0  0  0  0  0  0  0  0
  -41.5637   -1.8126   30.9127 H   0  0  0  0  0  0  0  0  0  0  0  0
  -42.7000   -9.4869   27.5779 H   0  0  0  0  0  0  0  0  0  0  0  0
  -41.2941   -5.9623   33.2697 H   0  0  0  0  0  0  0  0  0  0  0  0
  -41.0595   -3.8183   29.7217 H   0  0  0  0  0  0  0  0  0  0  0  0
  -41.1667   -8.4487   28.8292 H   0  0  0  0  0  0  0  0  0  0  0  0
  -40.8478   -5.5334   28.8016 H   0  0  0  0  0  0  0  0  0  0  0  0
  1  4  1  0  0  0  0
  2 17  2  0  0  0  0
  3 18  2  0  0  0  0
  4 17  1  0  0  0  0
  5  6  1  0  0  0  0
  5  7  1  0  0  0  0
  5 19  1  0  0  0  0
  8 20  1  0  0  0  0
  9 21  1  0  0  0  0
 10 13  2  0  0  0  0
 10 17  1  0  0  0  0
 11 14  1  0  0  0  0
 11 19  2  0  0  0  0
 12 15  2  0  0  0  0
 12 19  1  0  0  0  0
 13 20  1  0  0  0  0
 14 22  2  0  0  0  0
 15 22  1  0  0  0  0
 16 20  2  0  0  0  0
 16 21  1  0  0  0  0
 18 21  1  0  0  0  0
 18 22  1  0  0  0  0
  1 23  1  0  0  0  0
  4 24  1  0  0  0  0
  6 25  1  0  0  0  0
  6 26  1  0  0  0  0
  6 27  1  0  0  0  0
  7 28  1  0  0  0  0
  7 29  1  0  0  0  0
  7 30  1  0  0  0  0
  8 31  1  0  0  0  0
  8 32  1  0  0  0  0
  8 33  1  0  0  0  0
  9 34  1  0  0  0  0
  9 35  1  0  0  0  0
  9 36  1  0  0  0  0
 10 37  1  0  0  0  0
 11 38  1  0  0  0  0
 12 39  1  0  0  0  0
 13 40  1  0  0  0  0
 14 41  1  0  0  0  0
 15 42  1  0  0  0  0
 16 43  1  0  0  0  0
 21 44  1  0  0  0  0
M  END
> <pdb_id>
5G0H

> <uniprot_id>
F8W4B7

> <usmiles>
O=C(NO)/C=C/C(=C/[C@@H](C(=O)c1ccc(N(C)C)cc1)C)/C

$$$$
E26_A_501
          07202411143D 1   1.00000     0.00000     0
            
 55 56  0  0  0  0            999 V2000
    6.9905   27.9167   17.8526 O   0  0  0  0  0  0  0  0  0  0  0  0
    6.1397   21.4319   17.7882 O   0  0  0  0  0  0  0  0  0  0  0  0
    6.9701   29.6474   16.1058 O   0  0  0  0  0  0  0  0  0  0  0  0
    7.6871   21.2946   13.4664 O   0  0  0  0  0  0  0  0  0  0  0  0
    6.3644   19.8412   15.6704 O   0  0  0  0  0  0  0  0  0  0  0  0
    6.3320   25.7863   17.5698 O   0  0  0  0  0  0  0  0  0  0  0  0
    5.9045   28.3613   11.5320 N   0  0  0  0  0  0  0  0  0  0  0  0
    5.5706   29.8091    9.6338 C   0  0  0  0  0  0  0  0  0  0  0  0
    5.2875   25.9419   19.7550 C   0  0  0  0  0  0  0  0  0  0  0  0
    7.0150   23.6009   20.4865 C   0  0  0  0  0  0  0  0  0  0  0  0
    6.0009   23.9401   14.0808 C   0  0  0  0  0  0  0  0  0  0  0  0
    8.1856   22.6664   17.4097 C   0  0  0  0  0  0  0  0  0  0  0  0
    5.8605   24.8788   15.0206 C   0  0  0  0  0  0  0  0  0  0  0  0
    8.0422   23.7334   18.1986 C   0  0  0  0  0  0  0  0  0  0  0  0
    6.4429   29.0215   13.8405 C   0  0  0  0  0  0  0  0  0  0  0  0
    5.9062   26.7213   13.3448 C   0  0  0  0  0  0  0  0  0  0  0  0
    5.9635   29.7508   11.1146 C   0  0  0  0  0  0  0  0  0  0  0  0
    5.8491   22.4481   14.4234 C   0  0  0  0  0  0  0  0  0  0  0  0
    6.6298   27.0709   17.0965 C   0  0  0  0  0  0  0  0  0  0  0  0
    7.1191   21.5962   17.1318 C   0  0  0  0  0  0  0  0  0  0  0  0
    6.6155   28.6706   15.1715 C   0  0  0  0  0  0  0  0  0  0  0  0
    6.0870   28.0339   12.9294 C   0  0  0  0  0  0  0  0  0  0  0  0
    6.0627   26.3592   14.6678 C   0  0  0  0  0  0  0  0  0  0  0  0
    6.4257   27.3504   15.6050 C   0  0  0  0  0  0  0  0  0  0  0  0
    6.5013   25.5468   18.9590 C   0  0  1  0  0  0  0  0  0  0  0  0
    7.2484   21.8650   14.6654 C   0  0  1  0  0  0  0  0  0  0  0  0
    7.3191   20.8225   15.8014 C   0  0  2  0  0  0  0  0  0  0  0  0
    6.7956   24.0404   19.0423 C   0  0  2  0  0  0  0  0  0  0  0  0
    7.8074   29.6148   16.2459 H   0  0  0  0  0  0  0  0  0  0  0  0
    7.0826   20.7814   13.1598 H   0  0  0  0  0  0  0  0  0  0  0  0
    6.2092   19.7030   14.8463 H   0  0  0  0  0  0  0  0  0  0  0  0
    5.7610   27.7335   10.9493 H   0  0  0  0  0  0  0  0  0  0  0  0
    5.2490   30.6664    9.4281 H   0  0  0  0  0  0  0  0  0  0  0  0
    4.9003   29.1738    9.4628 H   0  0  0  0  0  0  0  0  0  0  0  0
    6.3222   29.6209    9.1028 H   0  0  0  0  0  0  0  0  0  0  0  0
    4.7137   25.2033   19.8379 H   0  0  0  0  0  0  0  0  0  0  0  0
    4.8389   26.6398   19.3168 H   0  0  0  0  0  0  0  0  0  0  0  0
    5.5531   26.2282   20.6095 H   0  0  0  0  0  0  0  0  0  0  0  0
    7.6952   24.1201   20.8721 H   0  0  0  0  0  0  0  0  0  0  0  0
    7.2633   22.6956   20.5031 H   0  0  0  0  0  0  0  0  0  0  0  0
    6.2201   23.7166   20.9726 H   0  0  0  0  0  0  0  0  0  0  0  0
    6.1930   24.1910   13.2066 H   0  0  0  0  0  0  0  0  0  0  0  0
    9.0080   22.5604   16.9890 H   0  0  0  0  0  0  0  0  0  0  0  0
    5.6392   24.6357   15.8902 H   0  0  0  0  0  0  0  0  0  0  0  0
    8.7496   24.3364   18.2419 H   0  0  0  0  0  0  0  0  0  0  0  0
    6.5629   29.8997   13.5629 H   0  0  0  0  0  0  0  0  0  0  0  0
    5.6763   26.0740   12.7195 H   0  0  0  0  0  0  0  0  0  0  0  0
    6.8343   30.0831   11.2277 H   0  0  0  0  0  0  0  0  0  0  0  0
    5.3657   30.2645   11.6244 H   0  0  0  0  0  0  0  0  0  0  0  0
    5.3228   22.3487   15.1941 H   0  0  0  0  0  0  0  0  0  0  0  0
    5.4344   21.9976   13.7117 H   0  0  0  0  0  0  0  0  0  0  0  0
    7.2012   26.0837   19.2816 H   0  0  0  0  0  0  0  0  0  0  0  0
    7.8324   22.5627   14.8996 H   0  0  0  0  0  0  0  0  0  0  0  0
    8.1208   20.3348   15.7690 H   0  0  0  0  0  0  0  0  0  0  0  0
    6.0561   23.5657   18.7103 H   0  0  0  0  0  0  0  0  0  0  0  0
  1 19  2  0  0  0  0
  2 20  2  0  0  0  0
  3 21  1  0  0  0  0
  3 29  1  0  0  0  0
  4 26  1  0  0  0  0
  4 30  1  0  0  0  0
  5 27  1  0  0  0  0
  5 31  1  0  0  0  0
  6 19  1  0  0  0  0
  6 25  1  0  0  0  0
  7 17  1  0  0  0  0
  7 22  1  0  0  0  0
  7 32  1  0  0  0  0
  8 17  1  0  0  0  0
  8 33  1  0  0  0  0
  8 34  1  0  0  0  0
  8 35  1  0  0  0  0
  9 25  1  0  0  0  0
  9 36  1  0  0  0  0
  9 37  1  0  0  0  0
  9 38  1  0  0  0  0
 10 28  1  0  0  0  0
 10 39  1  0  0  0  0
 10 40  1  0  0  0  0
 10 41  1  0  0  0  0
 11 13  2  0  0  0  0
 11 18  1  0  0  0  0
 11 42  1  0  0  0  0
 12 14  2  0  0  0  0
 12 20  1  0  0  0  0
 12 43  1  0  0  0  0
 13 23  1  0  0  0  0
 13 44  1  0  0  0  0
 14 28  1  0  0  0  0
 14 45  1  0  0  0  0
 15 21  1  0  0  0  0
 15 22  2  0  0  0  0
 15 46  1  0  0  0  0
 16 22  1  0  0  0  0
 16 23  2  0  0  0  0
 16 47  1  0  0  0  0
 17 48  1  0  0  0  0
 17 49  1  0  0  0  0
 18 26  1  0  0  0  0
 18 50  1  0  0  0  0
 18 51  1  0  0  0  0
 19 24  1  0  0  0  0
 20 27  1  0  0  0  0
 21 24  2  0  0  0  0
 23 24  1  0  0  0  0
 25 28  1  0  0  0  0
 25 52  1  0  0  0  0
 26 27  1  0  0  0  0
 26 53  1  0  0  0  0
 27 54  1  0  0  0  0
 28 55  1  0  0  0  0
M  END
> <pdb_id>
6I1S

> <uniprot_id>
Q04771

> <usmiles>
O=C1O[C@H]([C@@H](/C=C\C(=O)[C@@H](O)[C@@H](O)C/C=C/c2c1c(O)cc(NCC)c2)C)C

$$$$
E38_A_265
          07192416293D 1   1.00000     0.00000     0
            
 36 38  0  0  0  0            999 V2000
   -1.3827    8.8915   15.2381 Br  0  0  0  0  0  0  0  0  0  0  0  0
   -6.7856    3.9260   17.6454 Cl  0  0  0  0  0  0  0  0  0  0  0  0
   -1.7069    2.2885   11.0463 S   0  0  0  0  0  0  0  0  0  0  0  0
   -5.9772    0.8988   16.8761 S   0  0  0  0  0  0  0  0  0  0  0  0
   -7.4762    0.8127   16.8851 O   0  0  0  0  0  0  0  0  0  0  0  0
   -5.3468    1.1715   18.1567 O   0  0  0  0  0  0  0  0  0  0  0  0
   -4.7218    3.4559   11.2574 O   0  0  0  0  0  0  0  0  0  0  0  0
   -5.3689   -0.4361   16.1923 N   0  0  0  0  0  0  0  0  0  0  0  0
   -0.3609    4.7351   11.2018 N   0  0  0  0  0  0  0  0  0  0  0  0
   -1.9051    4.4175   12.7874 N   0  0  0  0  0  0  0  0  0  0  0  0
   -3.0886    1.8728   12.2171 C   0  0  0  0  0  0  0  0  0  0  0  0
    0.1157    7.9669   12.8830 C   0  0  0  0  0  0  0  0  0  0  0  0
   -5.8373    4.6624   15.3102 C   0  0  0  0  0  0  0  0  0  0  0  0
    0.3767    6.9862   11.9125 C   0  0  0  0  0  0  0  0  0  0  0  0
   -5.2766    4.4440   14.1042 C   0  0  0  0  0  0  0  0  0  0  0  0
   -1.6950    6.5657   13.8991 C   0  0  0  0  0  0  0  0  0  0  0  0
   -5.0859    2.1064   14.6057 C   0  0  0  0  0  0  0  0  0  0  0  0
   -0.9102    7.6936   13.8400 C   0  0  0  0  0  0  0  0  0  0  0  0
   -6.0562    3.5899   16.1945 C   0  0  0  0  0  0  0  0  0  0  0  0
   -1.2833    3.8954   11.7022 C   0  0  0  0  0  0  0  0  0  0  0  0
   -5.6295    2.3208   15.8137 C   0  0  0  0  0  0  0  0  0  0  0  0
   -4.2536    2.8629   12.2956 C   0  0  0  0  0  0  0  0  0  0  0  0
   -0.4021    5.8123   11.9888 C   0  0  0  0  0  0  0  0  0  0  0  0
   -1.3760    5.6190   12.9504 C   0  0  0  0  0  0  0  0  0  0  0  0
   -4.8540    3.1719   13.7044 C   0  0  0  0  0  0  0  0  0  0  0  0
   -4.3704   -0.3815   16.1849 H   0  0  0  0  0  0  0  0  0  0  0  0
   -5.6550   -1.2387   16.7156 H   0  0  0  0  0  0  0  0  0  0  0  0
    0.2300    4.5848   10.4092 H   0  0  0  0  0  0  0  0  0  0  0  0
   -2.6951    1.7964   13.1332 H   0  0  0  0  0  0  0  0  0  0  0  0
   -3.4628    0.9877   11.9401 H   0  0  0  0  0  0  0  0  0  0  0  0
    0.6288    8.8250   12.9038 H   0  0  0  0  0  0  0  0  0  0  0  0
   -6.0986    5.5899   15.5776 H   0  0  0  0  0  0  0  0  0  0  0  0
    1.0747    7.1126   11.2076 H   0  0  0  0  0  0  0  0  0  0  0  0
   -5.1594    5.2139   13.4769 H   0  0  0  0  0  0  0  0  0  0  0  0
   -2.4284    6.4442   14.5679 H   0  0  0  0  0  0  0  0  0  0  0  0
   -4.8398    1.1751   14.3373 H   0  0  0  0  0  0  0  0  0  0  0  0
  1 18  1  0  0  0  0
  2 19  1  0  0  0  0
  3 11  1  0  0  0  0
  3 20  1  0  0  0  0
  4  5  2  0  0  0  0
  4  6  2  0  0  0  0
  4  8  1  0  0  0  0
  4 21  1  0  0  0  0
  7 22  2  0  0  0  0
  9 20  1  0  0  0  0
  9 23  1  0  0  0  0
 10 20  2  0  0  0  0
 10 24  1  0  0  0  0
 11 22  1  0  0  0  0
 12 14  1  0  0  0  0
 12 18  2  0  0  0  0
 13 15  2  0  0  0  0
 13 19  1  0  0  0  0
 14 23  2  0  0  0  0
 15 25  1  0  0  0  0
 16 18  1  0  0  0  0
 16 24  2  0  0  0  0
 17 21  1  0  0  0  0
 17 25  2  0  0  0  0
 19 21  2  0  0  0  0
 22 25  1  0  0  0  0
 23 24  1  0  0  0  0
  8 26  1  0  0  0  0
  8 27  1  0  0  0  0
  9 28  1  0  0  0  0
 11 29  1  0  0  0  0
 11 30  1  0  0  0  0
 12 31  1  0  0  0  0
 13 32  1  0  0  0  0
 14 33  1  0  0  0  0
 15 34  1  0  0  0  0
 16 35  1  0  0  0  0
 17 36  1  0  0  0  0
M  END
> <pdb_id>
3M96

> <uniprot_id>
P00918

> <usmiles>
Brc1cc2N=C(SCC(=O)c3cc(S(=O)(=O)N)c(Cl)cc3)Nc2cc1

$$$$
E3T_B_1201
          07192420223D 1   1.00000     0.00000     0
            
 57 60  0  0  0  0            999 V2000
   13.2863   11.7551    5.2476 O   0  0  0  0  0  0  0  0  0  0  0  0
    5.5818   14.2237    8.7136 O   0  0  0  0  0  0  0  0  0  0  0  0
   12.4175    9.6991   13.7615 O   0  0  0  0  0  0  0  0  0  0  0  0
   11.8147   14.9841    8.1123 O   0  0  0  0  0  0  0  0  0  0  0  0
   15.0630   10.5647    3.6244 O   0  0  0  0  0  0  0  0  0  0  0  0
   13.6925    9.8267   13.5796 N   0  0  0  0  0  0  0  0  0  0  0  0
   13.9620   10.4853    7.0782 N   0  0  0  0  0  0  0  0  0  0  0  0
   12.5936   16.9271    9.2939 C   0  0  0  0  0  0  0  0  0  0  0  0
    6.1973   12.0628    9.5687 C   0  0  0  0  0  0  0  0  0  0  0  0
   10.2480   10.0352   12.5131 C   0  0  0  0  0  0  0  0  0  0  0  0
   15.3481   10.5422   11.8604 C   0  0  0  0  0  0  0  0  0  0  0  0
   12.0591   16.3861    7.9577 C   0  0  0  0  0  0  0  0  0  0  0  0
   16.0436    9.6592    3.1688 C   0  0  0  0  0  0  0  0  0  0  0  0
   16.3911    8.8892    4.2104 C   0  0  0  0  0  0  0  0  0  0  0  0
   15.6882    9.2511    5.2882 C   0  0  0  0  0  0  0  0  0  0  0  0
    9.4614   15.5368    8.1905 C   0  0  0  0  0  0  0  0  0  0  0  0
    8.1556   15.1342    8.4287 C   0  0  0  0  0  0  0  0  0  0  0  0
   12.1276   11.9408    7.8409 C   0  0  0  0  0  0  0  0  0  0  0  0
   13.3165   10.4885    9.3332 C   0  0  0  0  0  0  0  0  0  0  0  0
   11.5568   11.8624   10.1771 C   0  0  0  0  0  0  0  0  0  0  0  0
    8.9439   12.9313    9.0037 C   0  0  0  0  0  0  0  0  0  0  0  0
   13.9944   10.8922    5.7579 C   0  0  0  0  0  0  0  0  0  0  0  0
    6.5121   13.4757    9.0454 C   0  0  0  0  0  0  0  0  0  0  0  0
   11.7882   10.0700   12.6076 C   0  0  0  0  0  0  0  0  0  0  0  0
   14.8788   10.2616    4.9568 C   0  0  0  0  0  0  0  0  0  0  0  0
   10.5127   14.6385    8.3474 C   0  0  0  0  0  0  0  0  0  0  0  0
   13.9083   10.2735   12.3459 C   0  0  0  0  0  0  0  0  0  0  0  0
   13.1402   10.9828    8.0410 C   0  0  0  0  0  0  0  0  0  0  0  0
    7.8732   13.8303    8.8399 C   0  0  0  0  0  0  0  0  0  0  0  0
   11.3270   12.3864    8.9116 C   0  0  0  0  0  0  0  0  0  0  0  0
   12.5427   10.9060   10.4303 C   0  0  0  0  0  0  0  0  0  0  0  0
   10.2748   13.3230    8.7538 C   0  0  0  0  0  0  0  0  0  0  0  0
   12.7289   10.4401   11.7001 C   0  0  0  0  0  0  0  0  0  0  0  0
   14.5978    9.7625    7.3491 H   0  0  0  0  0  0  0  0  0  0  0  0
   12.7718   17.9075    9.2092 H   0  0  0  0  0  0  0  0  0  0  0  0
   11.9146   16.7726   10.0116 H   0  0  0  0  0  0  0  0  0  0  0  0
   13.4420   16.4533    9.5300 H   0  0  0  0  0  0  0  0  0  0  0  0
    7.0510   11.5918    9.7910 H   0  0  0  0  0  0  0  0  0  0  0  0
    5.6301   12.1300   10.3896 H   0  0  0  0  0  0  0  0  0  0  0  0
    5.7063   11.5486    8.8655 H   0  0  0  0  0  0  0  0  0  0  0  0
    9.9629   10.3369   11.6033 H   0  0  0  0  0  0  0  0  0  0  0  0
    9.9253    9.1019   12.6711 H   0  0  0  0  0  0  0  0  0  0  0  0
    9.8578   10.6441   13.2037 H   0  0  0  0  0  0  0  0  0  0  0  0
   15.3256   10.8712   10.9164 H   0  0  0  0  0  0  0  0  0  0  0  0
   15.7731   11.2338   12.4444 H   0  0  0  0  0  0  0  0  0  0  0  0
   15.8786    9.6958   11.9059 H   0  0  0  0  0  0  0  0  0  0  0  0
   11.2085   16.8542    7.7183 H   0  0  0  0  0  0  0  0  0  0  0  0
   12.7358   16.5349    7.2366 H   0  0  0  0  0  0  0  0  0  0  0  0
   16.4117    9.6019    2.2408 H   0  0  0  0  0  0  0  0  0  0  0  0
   17.0716    8.1569    4.1847 H   0  0  0  0  0  0  0  0  0  0  0  0
   15.7567    8.8340    6.1944 H   0  0  0  0  0  0  0  0  0  0  0  0
    9.6482   16.4767    7.9048 H   0  0  0  0  0  0  0  0  0  0  0  0
    7.4074   15.7859    8.3044 H   0  0  0  0  0  0  0  0  0  0  0  0
   11.9742   12.3107    6.9246 H   0  0  0  0  0  0  0  0  0  0  0  0
   14.0284    9.8033    9.4870 H   0  0  0  0  0  0  0  0  0  0  0  0
   10.9932   12.1831   10.9384 H   0  0  0  0  0  0  0  0  0  0  0  0
    8.7567   11.9959    9.3036 H   0  0  0  0  0  0  0  0  0  0  0  0
  1 22  2  0  0  0  0
  2 23  2  0  0  0  0
  3  6  1  0  0  0  0
  3 24  1  0  0  0  0
  4 12  1  0  0  0  0
  4 26  1  0  0  0  0
  5 13  1  0  0  0  0
  5 25  1  0  0  0  0
  6 27  2  0  0  0  0
  7 22  1  0  0  0  0
  7 28  1  0  0  0  0
  8 12  1  0  0  0  0
  9 23  1  0  0  0  0
 10 24  1  0  0  0  0
 11 27  1  0  0  0  0
 13 14  2  0  0  0  0
 14 15  1  0  0  0  0
 15 25  2  0  0  0  0
 16 17  1  0  0  0  0
 16 26  2  0  0  0  0
 17 29  2  0  0  0  0
 18 28  2  0  0  0  0
 18 30  1  0  0  0  0
 19 28  1  0  0  0  0
 19 31  2  0  0  0  0
 20 30  2  0  0  0  0
 20 31  1  0  0  0  0
 21 29  1  0  0  0  0
 21 32  2  0  0  0  0
 22 25  1  0  0  0  0
 23 29  1  0  0  0  0
 24 33  2  0  0  0  0
 26 32  1  0  0  0  0
 27 33  1  0  0  0  0
 30 32  1  0  0  0  0
 31 33  1  0  0  0  0
  7 34  1  0  0  0  0
  8 35  1  0  0  0  0
  8 36  1  0  0  0  0
  8 37  1  0  0  0  0
  9 38  1  0  0  0  0
  9 39  1  0  0  0  0
  9 40  1  0  0  0  0
 10 41  1  0  0  0  0
 10 42  1  0  0  0  0
 10 43  1  0  0  0  0
 11 44  1  0  0  0  0
 11 45  1  0  0  0  0
 11 46  1  0  0  0  0
 12 47  1  0  0  0  0
 12 48  1  0  0  0  0
 13 49  1  0  0  0  0
 14 50  1  0  0  0  0
 15 51  1  0  0  0  0
 16 52  1  0  0  0  0
 17 53  1  0  0  0  0
 18 54  1  0  0  0  0
 19 55  1  0  0  0  0
 20 56  1  0  0  0  0
 21 57  1  0  0  0  0
M  END
> <pdb_id>
6FRF

> <uniprot_id>
Q92793

> <usmiles>
O=C(Nc1cc(c2c(OCC)ccc(c2)C(=O)C)cc(c1)C3=C(ON=C3C)C)C=4OC=CC4

$$$$
E3X_C_101
          07202403153D 1   1.00000     0.00000     0
            
 27 28  0  0  0  0            999 V2000
   -6.5842    7.1079   29.9216 O   0  0  0  0  0  0  0  0  0  0  0  0
   -6.7777   11.1095   22.5209 N   0  0  0  0  0  0  0  0  0  0  0  0
   -7.1044   11.9220   21.3571 C   0  0  0  0  0  0  0  0  0  0  0  0
   -7.9539   10.3718   23.0621 C   0  0  0  0  0  0  0  0  0  0  0  0
   -6.4380   11.9312   23.6981 C   0  0  0  0  0  0  0  0  0  0  0  0
   -7.9017    9.5752   24.1932 C   0  0  0  0  0  0  0  0  0  0  0  0
   -6.0352   10.8782   24.7706 C   0  0  0  0  0  0  0  0  0  0  0  0
   -7.4056    7.2807   27.6869 C   0  0  0  0  0  0  0  0  0  0  0  0
   -6.0241    9.0176   28.6092 C   0  0  0  0  0  0  0  0  0  0  0  0
   -7.5220    8.0271   26.5174 C   0  0  0  0  0  0  0  0  0  0  0  0
   -6.1048    9.7323   27.4135 C   0  0  0  0  0  0  0  0  0  0  0  0
   -6.6722    7.7947   28.7488 C   0  0  0  0  0  0  0  0  0  0  0  0
   -6.9510    9.9211   25.1413 C   0  0  0  0  0  0  0  0  0  0  0  0
   -6.7956    9.1991   26.3260 C   0  0  0  0  0  0  0  0  0  0  0  0
   -6.0547    7.4833   30.6824 H   0  0  0  0  0  0  0  0  0  0  0  0
   -6.2819   12.3924   21.0374 H   0  0  0  0  0  0  0  0  0  0  0  0
   -7.4568   11.3345   20.6286 H   0  0  0  0  0  0  0  0  0  0  0  0
   -7.7989   12.5971   21.6061 H   0  0  0  0  0  0  0  0  0  0  0  0
   -8.8274   10.4566   22.5828 H   0  0  0  0  0  0  0  0  0  0  0  0
   -7.2270   12.4660   24.0006 H   0  0  0  0  0  0  0  0  0  0  0  0
   -5.6758   12.5464   23.4969 H   0  0  0  0  0  0  0  0  0  0  0  0
   -8.5145    8.7951   24.3191 H   0  0  0  0  0  0  0  0  0  0  0  0
   -5.1247   10.8969   25.1838 H   0  0  0  0  0  0  0  0  0  0  0  0
   -7.8447    6.3854   27.7615 H   0  0  0  0  0  0  0  0  0  0  0  0
   -5.4953    9.3880   29.3729 H   0  0  0  0  0  0  0  0  0  0  0  0
   -8.1419    7.7139   25.7979 H   0  0  0  0  0  0  0  0  0  0  0  0
   -5.6668   10.6280   27.3365 H   0  0  0  0  0  0  0  0  0  0  0  0
  1 12  1  0  0  0  0
  2  3  1  0  0  0  0
  2  4  1  0  0  0  0
  2  5  1  0  0  0  0
  4  6  2  0  0  0  0
  5  7  1  0  0  0  0
  6 13  1  0  0  0  0
  7 13  2  0  0  0  0
  8 10  1  0  0  0  0
  8 12  2  0  0  0  0
  9 11  2  0  0  0  0
  9 12  1  0  0  0  0
 10 14  2  0  0  0  0
 11 14  1  0  0  0  0
 13 14  1  0  0  0  0
  1 15  1  0  0  0  0
  3 16  1  0  0  0  0
  3 17  1  0  0  0  0
  3 18  1  0  0  0  0
  4 19  1  0  0  0  0
  5 20  1  0  0  0  0
  5 21  1  0  0  0  0
  6 22  1  0  0  0  0
  7 23  1  0  0  0  0
  8 24  1  0  0  0  0
  9 25  1  0  0  0  0
 10 26  1  0  0  0  0
 11 27  1  0  0  0  0
M  END
> <pdb_id>
6L1P

> <uniprot_id>
A8MW92

> <usmiles>
Oc1ccc(cc1)C=2C=CN(CC2)C

$$$$
E3X_D_101
          07202403153D 1   1.00000     0.00000     0
            
 29 30  0  0  0  0            999 V2000
   -6.5270    7.0220   29.9520 O   0  0  0  0  0  0  0  0  0  0  0  0
   -6.8920   11.1150   22.5820 N   0  0  0  0  0  0  0  0  0  0  0  0
   -7.2210   11.9440   21.4230 C   0  0  0  0  0  0  0  0  0  0  0  0
   -8.0510   10.3110   23.0870 C   0  0  0  0  0  0  0  0  0  0  0  0
   -6.6340   11.9250   23.7950 C   0  0  0  0  0  0  0  0  0  0  0  0
   -7.9680    9.4940   24.2130 C   0  0  0  0  0  0  0  0  0  0  0  0
   -6.2060   10.8910   24.8620 C   0  0  0  0  0  0  0  0  0  0  0  0
   -7.3080    7.1610   27.6980 C   0  0  0  0  0  0  0  0  0  0  0  0
   -6.1460    9.0080   28.7030 C   0  0  0  0  0  0  0  0  0  0  0  0
   -7.4830    7.9090   26.5380 C   0  0  0  0  0  0  0  0  0  0  0  0
   -6.2850    9.7250   27.5140 C   0  0  0  0  0  0  0  0  0  0  0  0
   -6.6600    7.7240   28.7940 C   0  0  0  0  0  0  0  0  0  0  0  0
   -7.0730    9.8760   25.2030 C   0  0  0  0  0  0  0  0  0  0  0  0
   -6.8840    9.1540   26.3890 C   0  0  0  0  0  0  0  0  0  0  0  0
   -6.0603    7.4330   30.7351 H   0  0  0  0  0  0  0  0  0  0  0  0
   -6.4094   12.4529   21.1360 H   0  0  0  0  0  0  0  0  0  0  0  0
   -7.5309   11.3601   20.6727 H   0  0  0  0  0  0  0  0  0  0  0  0
   -7.9477   12.5859   21.6678 H   0  0  0  0  0  0  0  0  0  0  0  0
   -8.3239    9.7147   22.3321 H   0  0  0  0  0  0  0  0  0  0  0  0
   -8.7820   10.9671   23.2745 H   0  0  0  0  0  0  0  0  0  0  0  0
   -7.4618   12.4074   24.0814 H   0  0  0  0  0  0  0  0  0  0  0  0
   -5.9028   12.5869   23.6299 H   0  0  0  0  0  0  0  0  0  0  0  0
   -7.7045    8.5801   23.9041 H   0  0  0  0  0  0  0  0  0  0  0  0
   -8.8777    9.4566   24.6266 H   0  0  0  0  0  0  0  0  0  0  0  0
   -5.3095   10.9583   25.2999 H   0  0  0  0  0  0  0  0  0  0  0  0
   -7.6468    6.2213   27.7444 H   0  0  0  0  0  0  0  0  0  0  0  0
   -5.6779    9.4185   29.4855 H   0  0  0  0  0  0  0  0  0  0  0  0
   -8.0495    7.5445   25.7989 H   0  0  0  0  0  0  0  0  0  0  0  0
   -5.9493   10.6658   27.4665 H   0  0  0  0  0  0  0  0  0  0  0  0
  1 12  1  0  0  0  0
  2  3  1  0  0  0  0
  2  4  1  0  0  0  0
  2  5  1  0  0  0  0
  4  6  1  0  0  0  0
  5  7  1  0  0  0  0
  6 13  1  0  0  0  0
  7 13  2  0  0  0  0
  8 10  1  0  0  0  0
  8 12  2  0  0  0  0
  9 11  2  0  0  0  0
  9 12  1  0  0  0  0
 10 14  2  0  0  0  0
 11 14  1  0  0  0  0
 13 14  1  0  0  0  0
  1 15  1  0  0  0  0
  3 16  1  0  0  0  0
  3 17  1  0  0  0  0
  3 18  1  0  0  0  0
  4 19  1  0  0  0  0
  4 20  1  0  0  0  0
  5 21  1  0  0  0  0
  5 22  1  0  0  0  0
  6 23  1  0  0  0  0
  6 24  1  0  0  0  0
  7 25  1  0  0  0  0
  8 26  1  0  0  0  0
  9 27  1  0  0  0  0
 10 28  1  0  0  0  0
 11 29  1  0  0  0  0
M  END
> <pdb_id>
6L1P

> <uniprot_id>
A8MW92

> <usmiles>
Oc1ccc(cc1)C2=CCN(CC2)C

$$$$
E41_B_401
          07202412413D 1   1.00000     0.00000     0
            
 55 56  0  0  0  0            999 V2000
   17.5426    1.6264   62.7224 S   0  0  0  0  0  0  0  0  0  0  0  0
   17.2788    2.5375   63.8186 O   0  0  0  0  0  0  0  0  0  0  0  0
   17.1214    0.2573   62.8076 O   0  0  0  0  0  0  0  0  0  0  0  0
   19.8416    5.7313   60.4666 O   0  0  0  0  0  0  0  0  0  0  0  0
   18.3757    3.8405   59.4315 O   0  0  0  0  0  0  0  0  0  0  0  0
   18.7249    5.2281   61.1481 N   0  0  0  0  0  0  0  0  0  0  0  0
   16.7752    2.2988   61.3919 N   0  0  0  0  0  0  0  0  0  0  0  0
   14.0915   -1.1261   58.8400 C   0  0  0  0  0  0  0  0  0  0  0  0
   15.3642    0.5912   57.5444 C   0  0  0  0  0  0  0  0  0  0  0  0
   14.3091    3.9832   61.4065 C   0  0  0  0  0  0  0  0  0  0  0  0
   15.6440    5.7126   60.1475 C   0  0  0  0  0  0  0  0  0  0  0  0
   16.7317    1.4636   60.1856 C   0  0  0  0  0  0  0  0  0  0  0  0
   24.0153    0.7119   61.0433 C   0  0  0  0  0  0  0  0  0  0  0  0
   23.2576   -0.3849   60.6360 C   0  0  0  0  0  0  0  0  0  0  0  0
   15.3912    0.7045   60.0590 C   0  0  0  0  0  0  0  0  0  0  0  0
   20.0236    2.7794   62.8196 C   0  0  0  0  0  0  0  0  0  0  0  0
   23.3930    1.7778   61.7014 C   0  0  0  0  0  0  0  0  0  0  0  0
   21.8799   -0.4527   60.8823 C   0  0  0  0  0  0  0  0  0  0  0  0
   21.3795    2.8440   62.5914 C   0  0  0  0  0  0  0  0  0  0  0  0
   19.8469    0.5572   61.7961 C   0  0  0  0  0  0  0  0  0  0  0  0
   18.0651    4.2520   60.5667 C   0  0  0  0  0  0  0  0  0  0  0  0
   19.2852    1.6537   62.4209 C   0  0  0  0  0  0  0  0  0  0  0  0
   15.3532   -0.2345   58.8340 C   0  0  0  0  0  0  0  0  0  0  0  0
   16.8246    3.7589   61.2792 C   0  0  1  0  0  0  0  0  0  0  0  0
   15.5579    4.2315   60.5303 C   0  0  0  0  0  0  0  0  0  0  0  0
   22.0051    1.7469   61.9521 C   0  0  0  0  0  0  0  0  0  0  0  0
   21.2327    0.6180   61.5506 C   0  0  0  0  0  0  0  0  0  0  0  0
   20.2576    6.4647   61.0042 H   0  0  0  0  0  0  0  0  0  0  0  0
   18.4437    5.5947   62.0349 H   0  0  0  0  0  0  0  0  0  0  0  0
   14.0725   -1.6711   59.6782 H   0  0  0  0  0  0  0  0  0  0  0  0
   13.2756   -0.5493   58.7988 H   0  0  0  0  0  0  0  0  0  0  0  0
   14.1098   -1.7348   58.0468 H   0  0  0  0  0  0  0  0  0  0  0  0
   16.1771    1.1734   57.5282 H   0  0  0  0  0  0  0  0  0  0  0  0
   15.3784   -0.0230   56.7554 H   0  0  0  0  0  0  0  0  0  0  0  0
   14.5443    1.1625   57.5073 H   0  0  0  0  0  0  0  0  0  0  0  0
   14.2609    3.0148   61.6514 H   0  0  0  0  0  0  0  0  0  0  0  0
   14.3706    4.5348   62.2384 H   0  0  0  0  0  0  0  0  0  0  0  0
   13.4879    4.2393   60.8966 H   0  0  0  0  0  0  0  0  0  0  0  0
   16.4542    5.8639   59.5811 H   0  0  0  0  0  0  0  0  0  0  0  0
   14.8257    5.9726   59.6349 H   0  0  0  0  0  0  0  0  0  0  0  0
   15.7084    6.2680   60.9766 H   0  0  0  0  0  0  0  0  0  0  0  0
   17.4775    0.7986   60.2256 H   0  0  0  0  0  0  0  0  0  0  0  0
   16.8493    2.0484   59.3829 H   0  0  0  0  0  0  0  0  0  0  0  0
   24.9991    0.7365   60.8660 H   0  0  0  0  0  0  0  0  0  0  0  0
   23.7068   -1.1395   60.1576 H   0  0  0  0  0  0  0  0  0  0  0  0
   14.6519    1.3724   59.9735 H   0  0  0  0  0  0  0  0  0  0  0  0
   15.2532    0.1585   60.8854 H   0  0  0  0  0  0  0  0  0  0  0  0
   19.5605    3.5408   63.2733 H   0  0  0  0  0  0  0  0  0  0  0  0
   23.9345    2.5654   61.9955 H   0  0  0  0  0  0  0  0  0  0  0  0
   21.3555   -1.2519   60.5885 H   0  0  0  0  0  0  0  0  0  0  0  0
   21.9090    3.6453   62.8700 H   0  0  0  0  0  0  0  0  0  0  0  0
   19.2993   -0.2369   61.5324 H   0  0  0  0  0  0  0  0  0  0  0  0
   16.1635   -0.8204   58.8501 H   0  0  0  0  0  0  0  0  0  0  0  0
   16.8121    4.1484   62.2001 H   0  0  0  0  0  0  0  0  0  0  0  0
   15.4675    3.6935   59.6922 H   0  0  0  0  0  0  0  0  0  0  0  0
  1  2  2  0  0  0  0
  1  3  2  0  0  0  0
  1  7  1  0  0  0  0
  1 22  1  0  0  0  0
  4  6  1  0  0  0  0
  5 21  2  0  0  0  0
  6 21  1  0  0  0  0
  7 12  1  0  0  0  0
  7 24  1  0  0  0  0
  8 23  1  0  0  0  0
  9 23  1  0  0  0  0
 10 25  1  0  0  0  0
 11 25  1  0  0  0  0
 12 15  1  0  0  0  0
 13 14  2  0  0  0  0
 13 17  1  0  0  0  0
 14 18  1  0  0  0  0
 15 23  1  0  0  0  0
 16 19  2  0  0  0  0
 16 22  1  0  0  0  0
 17 26  2  0  0  0  0
 18 27  2  0  0  0  0
 19 26  1  0  0  0  0
 20 22  2  0  0  0  0
 20 27  1  0  0  0  0
 21 24  1  0  0  0  0
 24 25  1  0  0  0  0
 26 27  1  0  0  0  0
  4 28  1  0  0  0  0
  6 29  1  0  0  0  0
  8 30  1  0  0  0  0
  8 31  1  0  0  0  0
  8 32  1  0  0  0  0
  9 33  1  0  0  0  0
  9 34  1  0  0  0  0
  9 35  1  0  0  0  0
 10 36  1  0  0  0  0
 10 37  1  0  0  0  0
 10 38  1  0  0  0  0
 11 39  1  0  0  0  0
 11 40  1  0  0  0  0
 11 41  1  0  0  0  0
 12 42  1  0  0  0  0
 12 43  1  0  0  0  0
 13 44  1  0  0  0  0
 14 45  1  0  0  0  0
 15 46  1  0  0  0  0
 15 47  1  0  0  0  0
 16 48  1  0  0  0  0
 17 49  1  0  0  0  0
 18 50  1  0  0  0  0
 19 51  1  0  0  0  0
 20 52  1  0  0  0  0
 23 53  1  0  0  0  0
 24 54  1  0  0  0  0
 25 55  1  0  0  0  0
M  END
> <pdb_id>
3ZXH

> <uniprot_id>
P45452

> <usmiles>
S(=O)(=O)(N([C@@H](C(=O)NO)C(C)C)CCC(C)C)c1cc2c(cc1)cccc2

$$$$
E49_A_266
          07192416293D 1   1.00000     0.00000     0
            
 37 38  0  0  0  0            999 V2000
   -6.8600    3.9259   17.5695 Cl  0  0  0  0  0  0  0  0  0  0  0  0
   -1.9429    2.5743   10.8247 S   0  0  0  0  0  0  0  0  0  0  0  0
   -5.9681    0.9387   16.8136 S   0  0  0  0  0  0  0  0  0  0  0  0
   -7.4721    0.8894   16.8467 O   0  0  0  0  0  0  0  0  0  0  0  0
   -5.3699    1.1546   18.0778 O   0  0  0  0  0  0  0  0  0  0  0  0
   -4.6887    3.6854   11.3247 O   0  0  0  0  0  0  0  0  0  0  0  0
   -5.3124   -0.4058   16.1886 N   0  0  0  0  0  0  0  0  0  0  0  0
   -0.7835    4.8370   10.3229 N   0  0  0  0  0  0  0  0  0  0  0  0
   -1.8987    4.8080   12.3660 N   0  0  0  0  0  0  0  0  0  0  0  0
    0.3987    6.8073    9.5434 C   0  0  0  0  0  0  0  0  0  0  0  0
   -2.1777    6.8180   13.8952 C   0  0  0  0  0  0  0  0  0  0  0  0
   -3.0925    2.0444   12.1740 C   0  0  0  0  0  0  0  0  0  0  0  0
   -5.9430    4.7328   15.2431 C   0  0  0  0  0  0  0  0  0  0  0  0
   -5.4382    4.4502   14.0663 C   0  0  0  0  0  0  0  0  0  0  0  0
   -5.0716    2.1780   14.5753 C   0  0  0  0  0  0  0  0  0  0  0  0
   -0.9025    6.7800   11.6695 C   0  0  0  0  0  0  0  0  0  0  0  0
   -1.5272    4.2247   11.2236 C   0  0  0  0  0  0  0  0  0  0  0  0
   -6.2082    3.5926   16.0380 C   0  0  0  0  0  0  0  0  0  0  0  0
   -5.6485    2.3747   15.7554 C   0  0  0  0  0  0  0  0  0  0  0  0
   -4.2395    3.0453   12.3385 C   0  0  0  0  0  0  0  0  0  0  0  0
   -0.4451    6.1334   10.5143 C   0  0  0  0  0  0  0  0  0  0  0  0
   -1.6373    6.0999   12.6264 C   0  0  0  0  0  0  0  0  0  0  0  0
   -4.8554    3.2099   13.7008 C   0  0  0  0  0  0  0  0  0  0  0  0
   -4.3159   -0.3221   16.1894 H   0  0  0  0  0  0  0  0  0  0  0  0
   -5.5811   -1.1953   16.7403 H   0  0  0  0  0  0  0  0  0  0  0  0
    0.5513    7.7521    9.8333 H   0  0  0  0  0  0  0  0  0  0  0  0
    1.2764    6.3327    9.4783 H   0  0  0  0  0  0  0  0  0  0  0  0
   -0.0507    6.8012    8.6501 H   0  0  0  0  0  0  0  0  0  0  0  0
   -1.8692    7.7693   13.8967 H   0  0  0  0  0  0  0  0  0  0  0  0
   -3.1773    6.7918   13.8928 H   0  0  0  0  0  0  0  0  0  0  0  0
   -1.8340    6.3549   14.7122 H   0  0  0  0  0  0  0  0  0  0  0  0
   -2.5840    1.9850   13.0330 H   0  0  0  0  0  0  0  0  0  0  0  0
   -3.4711    1.1469   11.9479 H   0  0  0  0  0  0  0  0  0  0  0  0
   -6.1237    5.6672   15.5501 H   0  0  0  0  0  0  0  0  0  0  0  0
   -5.4664    5.1674   13.3701 H   0  0  0  0  0  0  0  0  0  0  0  0
   -4.7881    1.2539   14.3189 H   0  0  0  0  0  0  0  0  0  0  0  0
   -0.6951    7.7487   11.8056 H   0  0  0  0  0  0  0  0  0  0  0  0
  1 18  1  0  0  0  0
  2 12  1  0  0  0  0
  2 17  1  0  0  0  0
  3  4  2  0  0  0  0
  3  5  2  0  0  0  0
  3  7  1  0  0  0  0
  3 19  1  0  0  0  0
  6 20  2  0  0  0  0
  8 17  2  0  0  0  0
  8 21  1  0  0  0  0
  9 17  1  0  0  0  0
  9 22  2  0  0  0  0
 10 21  1  0  0  0  0
 11 22  1  0  0  0  0
 12 20  1  0  0  0  0
 13 14  2  0  0  0  0
 13 18  1  0  0  0  0
 14 23  1  0  0  0  0
 15 19  1  0  0  0  0
 15 23  2  0  0  0  0
 16 21  2  0  0  0  0
 16 22  1  0  0  0  0
 18 19  2  0  0  0  0
 20 23  1  0  0  0  0
  7 24  1  0  0  0  0
  7 25  1  0  0  0  0
 10 26  1  0  0  0  0
 10 27  1  0  0  0  0
 10 28  1  0  0  0  0
 11 29  1  0  0  0  0
 11 30  1  0  0  0  0
 11 31  1  0  0  0  0
 12 32  1  0  0  0  0
 12 33  1  0  0  0  0
 13 34  1  0  0  0  0
 14 35  1  0  0  0  0
 15 36  1  0  0  0  0
 16 37  1  0  0  0  0
M  END
> <pdb_id>
3S9T

> <uniprot_id>
P00918

> <usmiles>
Clc1c(S(=O)(=O)N)cc(cc1)C(=O)CSc2nc(cc(n2)C)C

$$$$
E57_A_401
          07212404193D 1   1.00000     0.00000     0
            
 57 59  0  0  0  0            999 V2000
    0.0333   11.6569   49.4922 Cl  0  0  0  0  0  0  0  0  0  0  0  0
    4.4722    8.0664   46.2836 O   0  0  0  0  0  0  0  0  0  0  0  0
   11.3097   10.3311   39.5072 O   0  0  0  0  0  0  0  0  0  0  0  0
    2.1953   10.5435   43.0327 O   0  0  0  0  0  0  0  0  0  0  0  0
   12.2324    6.4975   43.6281 N   0  0  0  0  0  0  0  0  0  0  0  0
   10.4988    8.1181   43.3382 N   0  0  0  0  0  0  0  0  0  0  0  0
    6.5383    9.0999   43.5608 N   0  0  0  0  0  0  0  0  0  0  0  0
   12.5615    8.2956   42.3008 N   0  0  0  0  0  0  0  0  0  0  0  0
    4.1378    9.7932   44.8931 N   0  0  0  0  0  0  0  0  0  0  0  0
   14.7058   10.4252   41.8942 C   0  0  0  0  0  0  0  0  0  0  0  0
    9.2885    5.3501   45.6690 C   0  0  0  0  0  0  0  0  0  0  0  0
   11.4101    5.8081   44.4201 C   0  0  0  0  0  0  0  0  0  0  0  0
    7.7610    8.6828   43.1693 C   0  0  0  0  0  0  0  0  0  0  0  0
    3.8813   11.9160   48.5325 C   0  0  0  0  0  0  0  0  0  0  0  0
    2.7006   11.9583   49.2504 C   0  0  0  0  0  0  0  0  0  0  0  0
    3.9037   11.3729   47.2591 C   0  0  0  0  0  0  0  0  0  0  0  0
    1.5735   10.8542   47.4315 C   0  0  0  0  0  0  0  0  0  0  0  0
    7.3404    7.8522   45.1895 C   0  0  0  0  0  0  0  0  0  0  0  0
   11.2567    9.3605   40.5468 C   0  0  0  0  0  0  0  0  0  0  0  0
    2.1672   11.0995   44.3331 C   0  0  0  0  0  0  0  0  0  0  0  0
   13.6942    9.9309   40.9179 C   0  0  0  0  0  0  0  0  0  0  0  0
   11.7337    7.6276   43.1227 C   0  0  0  0  0  0  0  0  0  0  0  0
    4.8928    8.8130   45.4094 C   0  0  0  0  0  0  0  0  0  0  0  0
    1.5570   11.4513   48.6780 C   0  0  0  0  0  0  0  0  0  0  0  0
    6.2568    8.6133   44.8170 C   0  0  0  0  0  0  0  0  0  0  0  0
    9.6712    7.3953   44.1172 C   0  0  0  0  0  0  0  0  0  0  0  0
   10.1135    6.1882   44.7298 C   0  0  0  0  0  0  0  0  0  0  0  0
    8.3084    7.9127   44.1731 C   0  0  0  0  0  0  0  0  0  0  0  0
    2.7627   10.8119   46.7102 C   0  0  0  0  0  0  0  0  0  0  0  0
   12.3611    9.5491   41.5735 C   0  0  2  0  0  0  0  0  0  0  0  0
    2.7952   10.1521   45.3460 C   0  0  2  0  0  0  0  0  0  0  0  0
   11.2577   11.2285   39.9281 H   0  0  0  0  0  0  0  0  0  0  0  0
    1.5092    9.8288   43.0044 H   0  0  0  0  0  0  0  0  0  0  0  0
    5.9194    9.6457   42.9760 H   0  0  0  0  0  0  0  0  0  0  0  0
   13.4673    7.8539   42.1684 H   0  0  0  0  0  0  0  0  0  0  0  0
    4.4905   10.4372   44.1930 H   0  0  0  0  0  0  0  0  0  0  0  0
   15.7082   10.4767   41.4719 H   0  0  0  0  0  0  0  0  0  0  0  0
   14.4804   11.4232   42.2651 H   0  0  0  0  0  0  0  0  0  0  0  0
   14.7696    9.7667   42.7581 H   0  0  0  0  0  0  0  0  0  0  0  0
    8.2809    5.1684   45.2949 H   0  0  0  0  0  0  0  0  0  0  0  0
    9.7461    4.3729   45.8092 H   0  0  0  0  0  0  0  0  0  0  0  0
    9.2042    5.8226   46.6462 H   0  0  0  0  0  0  0  0  0  0  0  0
   11.8363    4.8890   44.8115 H   0  0  0  0  0  0  0  0  0  0  0  0
    8.1817    8.9295   42.1965 H   0  0  0  0  0  0  0  0  0  0  0  0
    4.7976   12.2971   48.9792 H   0  0  0  0  0  0  0  0  0  0  0  0
    2.6643   12.3669   50.2578 H   0  0  0  0  0  0  0  0  0  0  0  0
    4.8352   11.4448   46.7037 H   0  0  0  0  0  0  0  0  0  0  0  0
    0.6517   10.4307   47.0419 H   0  0  0  0  0  0  0  0  0  0  0  0
    7.4692    7.2977   46.1147 H   0  0  0  0  0  0  0  0  0  0  0  0
   11.2837    8.3543   40.1323 H   0  0  0  0  0  0  0  0  0  0  0  0
   10.2781    9.4871   41.0098 H   0  0  0  0  0  0  0  0  0  0  0  0
    2.7999   11.9758   44.1939 H   0  0  0  0  0  0  0  0  0  0  0  0
    1.1851   11.4724   44.6168 H   0  0  0  0  0  0  0  0  0  0  0  0
   13.5357   10.7164   40.1813 H   0  0  0  0  0  0  0  0  0  0  0  0
   14.0940    9.1091   40.3282 H   0  0  0  0  0  0  0  0  0  0  0  0
   12.0796   10.3369   42.2714 H   0  0  0  0  0  0  0  0  0  0  0  0
    2.1990    9.2465   45.4367 H   0  0  0  0  0  0  0  0  0  0  0  0
  1 24  1  0  0  0  0
  2 23  2  0  0  0  0
  3 19  1  0  0  0  0
  3 32  1  0  0  0  0
  4 20  1  0  0  0  0
  4 33  1  0  0  0  0
  5 12  1  0  0  0  0
  5 22  2  0  0  0  0
  6 22  1  0  0  0  0
  6 26  2  0  0  0  0
  7 13  1  0  0  0  0
  7 25  1  0  0  0  0
  7 34  1  0  0  0  0
  8 22  1  0  0  0  0
  8 30  1  0  0  0  0
  8 35  1  0  0  0  0
  9 23  1  0  0  0  0
  9 31  1  0  0  0  0
  9 36  1  0  0  0  0
 10 21  1  0  0  0  0
 10 37  1  0  0  0  0
 10 38  1  0  0  0  0
 10 39  1  0  0  0  0
 11 27  1  0  0  0  0
 11 40  1  0  0  0  0
 11 41  1  0  0  0  0
 11 42  1  0  0  0  0
 12 27  2  0  0  0  0
 12 43  1  0  0  0  0
 13 28  2  0  0  0  0
 13 44  1  0  0  0  0
 14 15  2  0  0  0  0
 14 16  1  0  0  0  0
 14 45  1  0  0  0  0
 15 24  1  0  0  0  0
 15 46  1  0  0  0  0
 16 29  2  0  0  0  0
 16 47  1  0  0  0  0
 17 24  2  0  0  0  0
 17 29  1  0  0  0  0
 17 48  1  0  0  0  0
 18 25  2  0  0  0  0
 18 28  1  0  0  0  0
 18 49  1  0  0  0  0
 19 30  1  0  0  0  0
 19 50  1  0  0  0  0
 19 51  1  0  0  0  0
 20 31  1  0  0  0  0
 20 52  1  0  0  0  0
 20 53  1  0  0  0  0
 21 30  1  0  0  0  0
 21 54  1  0  0  0  0
 21 55  1  0  0  0  0
 23 25  1  0  0  0  0
 26 27  1  0  0  0  0
 26 28  1  0  0  0  0
 29 31  1  0  0  0  0
 30 56  1  0  0  0  0
 31 57  1  0  0  0  0
M  END
> <pdb_id>
4FV6

> <uniprot_id>
P28482

> <usmiles>
Clc1cc(ccc1)[C@H](NC(=O)C=2NC=C(c3nc(ncc3C)N[C@H](CO)CC)C2)CO

$$$$
E5Q_A_203
          07212401333D 1   1.00000     0.00000     0
            
 38 40  0  0  0  0            999 V2000
  -13.9989  -17.4547  -20.3233 O   0  0  0  0  0  0  0  0  0  0  0  0
  -12.4918  -20.8722  -16.8078 O   0  0  0  0  0  0  0  0  0  0  0  0
  -16.1478  -23.5502  -23.0557 O   0  0  0  0  0  0  0  0  0  0  0  0
  -17.1106  -22.6432  -23.3083 N   0  0  0  0  0  0  0  0  0  0  0  0
  -16.0112  -22.9907  -14.9632 N   0  0  0  0  0  0  0  0  0  0  0  0
  -14.1680  -23.9896  -21.8289 C   0  0  0  0  0  0  0  0  0  0  0  0
  -17.7215  -20.2950  -22.5062 C   0  0  0  0  0  0  0  0  0  0  0  0
  -16.7996  -21.9791  -14.6192 C   0  0  0  0  0  0  0  0  0  0  0  0
  -14.9658  -22.8528  -15.7979 C   0  0  0  0  0  0  0  0  0  0  0  0
  -16.6262  -20.7533  -15.2324 C   0  0  0  0  0  0  0  0  0  0  0  0
  -15.5570  -20.5955  -16.1363 C   0  0  0  0  0  0  0  0  0  0  0  0
  -13.7404  -19.4144  -18.9011 C   0  0  0  0  0  0  0  0  0  0  0  0
  -14.7920  -19.5668  -21.0642 C   0  0  0  0  0  0  0  0  0  0  0  0
  -14.6077  -21.5310  -19.6347 C   0  0  0  0  0  0  0  0  0  0  0  0
  -14.1698  -18.8048  -20.0971 C   0  0  0  0  0  0  0  0  0  0  0  0
  -15.3062  -23.0762  -22.2190 C   0  0  0  0  0  0  0  0  0  0  0  0
  -13.5405  -21.5456  -17.4125 C   0  0  1  0  0  0  0  0  0  0  0  0
  -16.8679  -21.5365  -22.5312 C   0  0  0  0  0  0  0  0  0  0  0  0
  -14.7080  -21.6370  -16.4287 C   0  0  0  0  0  0  0  0  0  0  0  0
  -13.9530  -20.7978  -18.6713 C   0  0  0  0  0  0  0  0  0  0  0  0
  -15.0383  -20.9295  -20.8233 C   0  0  0  0  0  0  0  0  0  0  0  0
  -15.7045  -21.7970  -21.8219 C   0  0  0  0  0  0  0  0  0  0  0  0
  -14.3130  -17.0477  -21.1810 H   0  0  0  0  0  0  0  0  0  0  0  0
  -11.7244  -20.8087  -17.4459 H   0  0  0  0  0  0  0  0  0  0  0  0
  -13.5741  -23.5214  -21.1746 H   0  0  0  0  0  0  0  0  0  0  0  0
  -14.5355  -24.8201  -21.4103 H   0  0  0  0  0  0  0  0  0  0  0  0
  -13.6409  -24.2320  -22.6434 H   0  0  0  0  0  0  0  0  0  0  0  0
  -17.3337  -19.6368  -21.8609 H   0  0  0  0  0  0  0  0  0  0  0  0
  -17.7477  -19.8900  -23.4201 H   0  0  0  0  0  0  0  0  0  0  0  0
  -18.6496  -20.5343  -22.2209 H   0  0  0  0  0  0  0  0  0  0  0  0
  -17.5094  -22.1029  -13.9257 H   0  0  0  0  0  0  0  0  0  0  0  0
  -14.3649  -23.6337  -15.9684 H   0  0  0  0  0  0  0  0  0  0  0  0
  -17.2468  -19.9936  -15.0386 H   0  0  0  0  0  0  0  0  0  0  0  0
  -15.4126  -19.7081  -16.5742 H   0  0  0  0  0  0  0  0  0  0  0  0
  -13.2796  -18.8640  -18.2049 H   0  0  0  0  0  0  0  0  0  0  0  0
  -15.0663  -19.1520  -21.9318 H   0  0  0  0  0  0  0  0  0  0  0  0
  -14.7778  -22.5048  -19.4838 H   0  0  0  0  0  0  0  0  0  0  0  0
  -13.2429  -22.4679  -17.6587 H   0  0  0  0  0  0  0  0  0  0  0  0
  1 15  1  0  0  0  0
  2 17  1  0  0  0  0
  3  4  1  0  0  0  0
  3 16  1  0  0  0  0
  4 18  2  0  0  0  0
  5  8  2  0  0  0  0
  5  9  1  0  0  0  0
  6 16  1  0  0  0  0
  7 18  1  0  0  0  0
  8 10  1  0  0  0  0
  9 19  2  0  0  0  0
 10 11  2  0  0  0  0
 11 19  1  0  0  0  0
 12 15  2  0  0  0  0
 12 20  1  0  0  0  0
 13 15  1  0  0  0  0
 13 21  2  0  0  0  0
 14 20  2  0  0  0  0
 14 21  1  0  0  0  0
 16 22  2  0  0  0  0
 17 19  1  0  0  0  0
 17 20  1  0  0  0  0
 18 22  1  0  0  0  0
 21 22  1  0  0  0  0
  1 23  1  0  0  0  0
  2 24  1  0  0  0  0
  6 25  1  0  0  0  0
  6 26  1  0  0  0  0
  6 27  1  0  0  0  0
  7 28  1  0  0  0  0
  7 29  1  0  0  0  0
  7 30  1  0  0  0  0
  8 31  1  0  0  0  0
  9 32  1  0  0  0  0
 10 33  1  0  0  0  0
 11 34  1  0  0  0  0
 12 35  1  0  0  0  0
 13 36  1  0  0  0  0
 14 37  1  0  0  0  0
 17 38  1  0  0  0  0
M  END
> <pdb_id>
6FSY

> <uniprot_id>
O60885

> <usmiles>
O1N=C(C(c2cc(O)cc(c2)[C@@H](O)c3cnccc3)=C1C)C

$$$$
E5S_B_401
          07202400003D 1   1.00000     0.00000     0
            
 63 67  0  0  0  0            999 V2000
   21.5530  -67.5850   -6.8520 O   0  0  0  0  0  0  0  0  0  0  0  0
   13.6400  -75.7510   -4.2660 O   0  0  0  0  0  0  0  0  0  0  0  0
   21.1310  -68.0260   -9.6280 O   0  0  0  0  0  0  0  0  0  0  0  0
   17.5560  -70.0040   -5.4700 N   0  0  0  0  0  0  0  0  0  0  0  0
   14.2770  -75.3620   -0.9380 N   0  0  0  0  0  0  0  0  0  0  0  0
   19.3200  -69.4730   -6.8410 N   0  0  0  0  0  0  0  0  0  0  0  0
   20.9790  -68.9330  -10.7240 C   0  0  0  0  0  0  0  0  0  0  0  0
   14.3040  -73.9380   -0.5660 C   0  0  0  0  0  0  0  0  0  0  0  0
   12.8830  -75.8190   -1.0520 C   0  0  0  0  0  0  0  0  0  0  0  0
   19.1930  -68.0250   -6.5500 C   0  0  0  0  0  0  0  0  0  0  0  0
   20.1670  -69.6410   -8.0450 C   0  0  0  0  0  0  0  0  0  0  0  0
   14.9480  -75.5490   -2.2320 C   0  0  0  0  0  0  0  0  0  0  0  0
   12.8320  -68.5460   -6.7330 C   0  0  0  0  0  0  0  0  0  0  0  0
   13.8290  -67.7960   -6.1200 C   0  0  0  0  0  0  0  0  0  0  0  0
   12.7270  -69.9060   -6.4630 C   0  0  0  0  0  0  0  0  0  0  0  0
   13.6810  -73.0800   -1.6560 C   0  0  0  0  0  0  0  0  0  0  0  0
   12.1100  -74.9460   -2.0290 C   0  0  0  0  0  0  0  0  0  0  0  0
   18.7090  -71.7490   -6.5860 C   0  0  0  0  0  0  0  0  0  0  0  0
   14.7330  -68.4120   -5.2610 C   0  0  0  0  0  0  0  0  0  0  0  0
   13.6330  -70.5200   -5.6040 C   0  0  0  0  0  0  0  0  0  0  0  0
   17.8490  -72.6800   -6.0150 C   0  0  0  0  0  0  0  0  0  0  0  0
   15.9270  -73.1550   -4.5670 C   0  0  0  0  0  0  0  0  0  0  0  0
   15.1450  -73.9160   -4.0200 C   0  0  0  0  0  0  0  0  0  0  0  0
   15.5990  -70.3960   -4.2030 C   0  0  0  0  0  0  0  0  0  0  0  0
   20.2550  -67.3870   -7.4310 C   0  0  2  0  0  0  0  0  0  0  0  0
   18.5450  -70.4020   -6.2830 C   0  0  0  0  0  0  0  0  0  0  0  0
   20.0920  -68.2550   -8.6640 C   0  0  1  0  0  0  0  0  0  0  0  0
   16.6830  -70.8700   -4.9390 C   0  0  0  0  0  0  0  0  0  0  0  0
   14.6540  -69.7780   -5.0180 C   0  0  0  0  0  0  0  0  0  0  0  0
   16.8260  -72.2310   -5.1850 C   0  0  0  0  0  0  0  0  0  0  0  0
   13.0800  -73.9940   -2.7120 C   0  0  0  0  0  0  0  0  0  0  0  0
   14.2010  -74.8110   -3.3350 C   0  0  1  0  0  0  0  0  0  0  0  0
   22.2464  -67.1632   -7.4361 H   0  0  0  0  0  0  0  0  0  0  0  0
   13.1521  -75.2568   -4.9855 H   0  0  0  0  0  0  0  0  0  0  0  0
   21.7039  -68.7712  -11.3936 H   0  0  0  0  0  0  0  0  0  0  0  0
   21.0384  -69.8734  -10.3891 H   0  0  0  0  0  0  0  0  0  0  0  0
   20.0885  -68.7884  -11.1553 H   0  0  0  0  0  0  0  0  0  0  0  0
   15.2527  -73.6537   -0.4278 H   0  0  0  0  0  0  0  0  0  0  0  0
   13.7912  -73.8117    0.2831 H   0  0  0  0  0  0  0  0  0  0  0  0
   12.4472  -75.7713   -0.1532 H   0  0  0  0  0  0  0  0  0  0  0  0
   12.8729  -76.7645   -1.3775 H   0  0  0  0  0  0  0  0  0  0  0  0
   19.3715  -67.8382   -5.5839 H   0  0  0  0  0  0  0  0  0  0  0  0
   18.2817  -67.6912   -6.7912 H   0  0  0  0  0  0  0  0  0  0  0  0
   19.7944  -70.3362   -8.6597 H   0  0  0  0  0  0  0  0  0  0  0  0
   21.1063  -69.8814   -7.8002 H   0  0  0  0  0  0  0  0  0  0  0  0
   14.9757  -76.5246   -2.4498 H   0  0  0  0  0  0  0  0  0  0  0  0
   15.8810  -75.1941   -2.1727 H   0  0  0  0  0  0  0  0  0  0  0  0
   12.1927  -68.1091   -7.3658 H   0  0  0  0  0  0  0  0  0  0  0  0
   13.8963  -66.8140   -6.2965 H   0  0  0  0  0  0  0  0  0  0  0  0
   11.9986  -70.4440   -6.8872 H   0  0  0  0  0  0  0  0  0  0  0  0
   14.3831  -72.5018   -2.0716 H   0  0  0  0  0  0  0  0  0  0  0  0
   12.9646  -72.5038   -1.2625 H   0  0  0  0  0  0  0  0  0  0  0  0
   11.4168  -74.4215   -1.5347 H   0  0  0  0  0  0  0  0  0  0  0  0
   11.6658  -75.5221   -2.7151 H   0  0  0  0  0  0  0  0  0  0  0  0
   19.4358  -72.0441   -7.2063 H   0  0  0  0  0  0  0  0  0  0  0  0
   15.4443  -67.8685   -4.8154 H   0  0  0  0  0  0  0  0  0  0  0  0
   13.5503  -71.4970   -5.4072 H   0  0  0  0  0  0  0  0  0  0  0  0
   17.9635  -73.6565   -6.1976 H   0  0  0  0  0  0  0  0  0  0  0  0
   15.9289  -69.7341   -3.5299 H   0  0  0  0  0  0  0  0  0  0  0  0
   15.1669  -71.1644   -3.7309 H   0  0  0  0  0  0  0  0  0  0  0  0
   20.0652  -66.4230   -7.6173 H   0  0  0  0  0  0  0  0  0  0  0  0
   19.1939  -68.1067   -9.0781 H   0  0  0  0  0  0  0  0  0  0  0  0
   12.6085  -73.4571   -3.4116 H   0  0  0  0  0  0  0  0  0  0  0  0
  1 25  1  0  0  0  0
  2 32  1  0  0  0  0
  3  7  1  0  0  0  0
  3 27  1  0  0  0  0
  4 26  2  0  0  0  0
  4 28  1  0  0  0  0
  5  8  1  0  0  0  0
  5  9  1  0  0  0  0
  5 12  1  0  0  0  0
  6 10  1  0  0  0  0
  6 11  1  0  0  0  0
  6 26  1  0  0  0  0
  8 16  1  0  0  0  0
  9 17  1  0  0  0  0
 10 25  1  0  0  0  0
 11 27  1  0  0  0  0
 12 32  1  0  0  0  0
 13 14  2  0  0  0  0
 13 15  1  0  0  0  0
 14 19  1  0  0  0  0
 15 20  2  0  0  0  0
 16 31  1  0  0  0  0
 17 31  1  0  0  0  0
 18 21  2  0  0  0  0
 18 26  1  0  0  0  0
 19 29  2  0  0  0  0
 20 29  1  0  0  0  0
 21 30  1  0  0  0  0
 22 23  3  0  0  0  0
 22 30  1  0  0  0  0
 23 32  1  0  0  0  0
 24 28  1  0  0  0  0
 24 29  1  0  0  0  0
 25 27  1  0  0  0  0
 28 30  2  0  0  0  0
 31 32  1  0  0  0  0
  1 33  1  0  0  0  0
  2 34  1  0  0  0  0
  7 35  1  0  0  0  0
  7 36  1  0  0  0  0
  7 37  1  0  0  0  0
  8 38  1  0  0  0  0
  8 39  1  0  0  0  0
  9 40  1  0  0  0  0
  9 41  1  0  0  0  0
 10 42  1  0  0  0  0
 10 43  1  0  0  0  0
 11 44  1  0  0  0  0
 11 45  1  0  0  0  0
 12 46  1  0  0  0  0
 12 47  1  0  0  0  0
 13 48  1  0  0  0  0
 14 49  1  0  0  0  0
 15 50  1  0  0  0  0
 16 51  1  0  0  0  0
 16 52  1  0  0  0  0
 17 53  1  0  0  0  0
 17 54  1  0  0  0  0
 18 55  1  0  0  0  0
 19 56  1  0  0  0  0
 20 57  1  0  0  0  0
 21 58  1  0  0  0  0
 24 59  1  0  0  0  0
 24 60  1  0  0  0  0
 25 61  1  0  0  0  0
 27 62  1  0  0  0  0
 31 63  1  0  0  0  0
M  END
> <pdb_id>
3WCJ

> <uniprot_id>
P37268

> <usmiles>
O([C@@H]1[C@H](O)CN(c2nc(c(C#C[C@]3(O)C4CCN(C3)CC4)cc2)Cc5ccccc5)C1)C

$$$$
E5T_A_202
          07212401333D 1   1.00000     0.00000     0
            
 36 38  0  0  0  0            999 V2000
  -13.9355  -17.4758  -20.4420 O   0  0  0  0  0  0  0  0  0  0  0  0
  -13.9806  -22.3586  -16.8285 O   0  0  0  0  0  0  0  0  0  0  0  0
  -15.9688  -23.6681  -22.7784 O   0  0  0  0  0  0  0  0  0  0  0  0
  -16.7920  -22.7358  -23.2157 N   0  0  0  0  0  0  0  0  0  0  0  0
  -14.2677  -24.1912  -21.1940 C   0  0  0  0  0  0  0  0  0  0  0  0
  -17.3593  -20.3286  -22.5921 C   0  0  0  0  0  0  0  0  0  0  0  0
  -16.5827  -21.8106  -15.9159 C   0  0  0  0  0  0  0  0  0  0  0  0
  -15.7757  -21.3417  -14.7427 C   0  0  0  0  0  0  0  0  0  0  0  0
  -14.0225  -19.1769  -18.6842 C   0  0  0  0  0  0  0  0  0  0  0  0
  -14.7332  -19.6751  -20.9099 C   0  0  0  0  0  0  0  0  0  0  0  0
  -14.9094  -21.4018  -19.2599 C   0  0  0  0  0  0  0  0  0  0  0  0
  -14.2303  -18.7499  -19.9847 C   0  0  0  0  0  0  0  0  0  0  0  0
  -15.2672  -23.2418  -21.8108 C   0  0  0  0  0  0  0  0  0  0  0  0
  -14.3033  -20.9550  -16.9162 C   0  0  2  0  0  0  0  0  0  0  0  0
  -16.5894  -21.6258  -22.4597 C   0  0  0  0  0  0  0  0  0  0  0  0
  -15.5845  -20.6842  -16.1109 C   0  0  0  0  0  0  0  0  0  0  0  0
  -14.4041  -20.4875  -18.3035 C   0  0  0  0  0  0  0  0  0  0  0  0
  -15.0657  -20.9886  -20.5358 C   0  0  0  0  0  0  0  0  0  0  0  0
  -15.6107  -21.9278  -21.5500 C   0  0  0  0  0  0  0  0  0  0  0  0
  -14.1114  -17.2340  -21.3963 H   0  0  0  0  0  0  0  0  0  0  0  0
  -13.1476  -22.5423  -17.3504 H   0  0  0  0  0  0  0  0  0  0  0  0
  -13.7867  -23.7304  -20.4482 H   0  0  0  0  0  0  0  0  0  0  0  0
  -14.7464  -24.9931  -20.8367 H   0  0  0  0  0  0  0  0  0  0  0  0
  -13.6084  -24.4786  -21.8887 H   0  0  0  0  0  0  0  0  0  0  0  0
  -17.0193  -19.6693  -21.9214 H   0  0  0  0  0  0  0  0  0  0  0  0
  -17.2359  -19.9603  -23.5136 H   0  0  0  0  0  0  0  0  0  0  0  0
  -18.3309  -20.4994  -22.4287 H   0  0  0  0  0  0  0  0  0  0  0  0
  -17.5634  -21.6185  -15.9539 H   0  0  0  0  0  0  0  0  0  0  0  0
  -16.4033  -22.7093  -16.3160 H   0  0  0  0  0  0  0  0  0  0  0  0
  -15.0579  -21.9262  -14.3645 H   0  0  0  0  0  0  0  0  0  0  0  0
  -16.2179  -20.8353  -14.0024 H   0  0  0  0  0  0  0  0  0  0  0  0
  -13.6044  -18.5622  -18.0154 H   0  0  0  0  0  0  0  0  0  0  0  0
  -14.8588  -19.3933  -21.8611 H   0  0  0  0  0  0  0  0  0  0  0  0
  -15.1462  -22.3366  -18.9949 H   0  0  0  0  0  0  0  0  0  0  0  0
  -13.5603  -20.4471  -16.4802 H   0  0  0  0  0  0  0  0  0  0  0  0
  -15.9758  -19.7695  -16.2118 H   0  0  0  0  0  0  0  0  0  0  0  0
  1 12  1  0  0  0  0
  2 14  1  0  0  0  0
  3  4  1  0  0  0  0
  3 13  1  0  0  0  0
  4 15  2  0  0  0  0
  5 13  1  0  0  0  0
  6 15  1  0  0  0  0
  7  8  1  0  0  0  0
  7 16  1  0  0  0  0
  8 16  1  0  0  0  0
  9 12  2  0  0  0  0
  9 17  1  0  0  0  0
 10 12  1  0  0  0  0
 10 18  2  0  0  0  0
 11 17  2  0  0  0  0
 11 18  1  0  0  0  0
 13 19  2  0  0  0  0
 14 16  1  0  0  0  0
 14 17  1  0  0  0  0
 15 19  1  0  0  0  0
 18 19  1  0  0  0  0
  1 20  1  0  0  0  0
  2 21  1  0  0  0  0
  5 22  1  0  0  0  0
  5 23  1  0  0  0  0
  5 24  1  0  0  0  0
  6 25  1  0  0  0  0
  6 26  1  0  0  0  0
  6 27  1  0  0  0  0
  7 28  1  0  0  0  0
  7 29  1  0  0  0  0
  8 30  1  0  0  0  0
  8 31  1  0  0  0  0
  9 32  1  0  0  0  0
 10 33  1  0  0  0  0
 11 34  1  0  0  0  0
 14 35  1  0  0  0  0
 16 36  1  0  0  0  0
M  END
> <pdb_id>
6FT3

> <uniprot_id>
O60885

> <usmiles>
O1N=C(C(c2cc(O)cc(c2)[C@H](O)C3CC3)=C1C)C

$$$$
E5W_A_201
          07212401333D 1   1.00000     0.00000     0
            
 43 45  0  0  0  0            999 V2000
  -17.4339  -22.3893  -13.6447 F   0  0  0  0  0  0  0  0  0  0  0  0
  -16.0143  -20.9872  -13.1392 F   0  0  0  0  0  0  0  0  0  0  0  0
  -13.9726  -17.3344  -20.3393 O   0  0  0  0  0  0  0  0  0  0  0  0
  -16.1768  -23.4042  -23.0275 O   0  0  0  0  0  0  0  0  0  0  0  0
  -17.1491  -22.5072  -23.2087 N   0  0  0  0  0  0  0  0  0  0  0  0
  -14.5272  -21.6708  -16.4374 N   0  0  0  0  0  0  0  0  0  0  0  0
  -14.1406  -23.9027  -21.9081 C   0  0  0  0  0  0  0  0  0  0  0  0
  -17.6557  -20.1900  -22.4093 C   0  0  0  0  0  0  0  0  0  0  0  0
  -15.5053  -20.5439  -16.1951 C   0  0  0  0  0  0  0  0  0  0  0  0
  -14.0630  -22.1292  -15.1197 C   0  0  0  0  0  0  0  0  0  0  0  0
  -13.3764  -21.2458  -17.3201 C   0  0  0  0  0  0  0  0  0  0  0  0
  -13.6447  -19.2189  -18.9035 C   0  0  0  0  0  0  0  0  0  0  0  0
  -14.7671  -19.4216  -21.0458 C   0  0  0  0  0  0  0  0  0  0  0  0
  -14.4866  -21.3667  -19.6274 C   0  0  0  0  0  0  0  0  0  0  0  0
  -16.7223  -20.9001  -15.2948 C   0  0  0  0  0  0  0  0  0  0  0  0
  -15.2716  -22.7707  -14.4444 C   0  0  0  0  0  0  0  0  0  0  0  0
  -14.1169  -18.6587  -20.0830 C   0  0  0  0  0  0  0  0  0  0  0  0
  -15.2912  -22.9726  -22.2014 C   0  0  0  0  0  0  0  0  0  0  0  0
  -16.8464  -21.4408  -22.4236 C   0  0  0  0  0  0  0  0  0  0  0  0
  -13.8309  -20.5862  -18.6608 C   0  0  0  0  0  0  0  0  0  0  0  0
  -14.9548  -20.8063  -20.8105 C   0  0  0  0  0  0  0  0  0  0  0  0
  -15.6492  -21.6881  -21.8009 C   0  0  0  0  0  0  0  0  0  0  0  0
  -16.3530  -21.7568  -14.0988 C   0  0  0  0  0  0  0  0  0  0  0  0
  -14.3196  -16.9499  -21.1947 H   0  0  0  0  0  0  0  0  0  0  0  0
  -13.5176  -23.4676  -21.2581 H   0  0  0  0  0  0  0  0  0  0  0  0
  -14.4912  -24.7531  -21.5156 H   0  0  0  0  0  0  0  0  0  0  0  0
  -13.6503  -24.1042  -22.7560 H   0  0  0  0  0  0  0  0  0  0  0  0
  -17.2548  -19.5410  -21.7628 H   0  0  0  0  0  0  0  0  0  0  0  0
  -17.6631  -19.7873  -23.3246 H   0  0  0  0  0  0  0  0  0  0  0  0
  -18.5925  -20.4023  -22.1310 H   0  0  0  0  0  0  0  0  0  0  0  0
  -15.8552  -20.2428  -17.0822 H   0  0  0  0  0  0  0  0  0  0  0  0
  -15.0089  -19.7926  -15.7601 H   0  0  0  0  0  0  0  0  0  0  0  0
  -13.7339  -21.3550  -14.5791 H   0  0  0  0  0  0  0  0  0  0  0  0
  -13.3280  -22.7991  -15.2245 H   0  0  0  0  0  0  0  0  0  0  0  0
  -12.8271  -22.0533  -17.5348 H   0  0  0  0  0  0  0  0  0  0  0  0
  -12.8177  -20.5868  -16.8165 H   0  0  0  0  0  0  0  0  0  0  0  0
  -13.1739  -18.6490  -18.2302 H   0  0  0  0  0  0  0  0  0  0  0  0
  -15.0970  -19.0003  -21.8906 H   0  0  0  0  0  0  0  0  0  0  0  0
  -14.6191  -22.3439  -19.4614 H   0  0  0  0  0  0  0  0  0  0  0  0
  -17.3911  -21.3977  -15.8472 H   0  0  0  0  0  0  0  0  0  0  0  0
  -17.1309  -20.0501  -14.9623 H   0  0  0  0  0  0  0  0  0  0  0  0
  -14.9690  -23.2164  -13.6019 H   0  0  0  0  0  0  0  0  0  0  0  0
  -15.6590  -23.4545  -15.0627 H   0  0  0  0  0  0  0  0  0  0  0  0
  1 23  1  0  0  0  0
  2 23  1  0  0  0  0
  3 17  1  0  0  0  0
  4  5  1  0  0  0  0
  4 18  1  0  0  0  0
  5 19  2  0  0  0  0
  6  9  1  0  0  0  0
  6 10  1  0  0  0  0
  6 11  1  0  0  0  0
  7 18  1  0  0  0  0
  8 19  1  0  0  0  0
  9 15  1  0  0  0  0
 10 16  1  0  0  0  0
 11 20  1  0  0  0  0
 12 17  2  0  0  0  0
 12 20  1  0  0  0  0
 13 17  1  0  0  0  0
 13 21  2  0  0  0  0
 14 20  2  0  0  0  0
 14 21  1  0  0  0  0
 15 23  1  0  0  0  0
 16 23  1  0  0  0  0
 18 22  2  0  0  0  0
 19 22  1  0  0  0  0
 21 22  1  0  0  0  0
  3 24  1  0  0  0  0
  7 25  1  0  0  0  0
  7 26  1  0  0  0  0
  7 27  1  0  0  0  0
  8 28  1  0  0  0  0
  8 29  1  0  0  0  0
  8 30  1  0  0  0  0
  9 31  1  0  0  0  0
  9 32  1  0  0  0  0
 10 33  1  0  0  0  0
 10 34  1  0  0  0  0
 11 35  1  0  0  0  0
 11 36  1  0  0  0  0
 12 37  1  0  0  0  0
 13 38  1  0  0  0  0
 14 39  1  0  0  0  0
 15 40  1  0  0  0  0
 15 41  1  0  0  0  0
 16 42  1  0  0  0  0
 16 43  1  0  0  0  0
M  END
> <pdb_id>
6FT4

> <uniprot_id>
O60885

> <usmiles>
FC1(F)CCN(Cc2cc(O)cc(c2)C3=C(ON=C3C)C)CC1

$$$$
E63_A_401
          07212404193D 1   1.00000     0.00000     0
            
 54 59  0  0  0  0            999 V2000
    4.9706    8.4956   45.5072 O   0  0  0  0  0  0  0  0  0  0  0  0
   11.4280    5.2208   44.8355 N   0  0  0  0  0  0  0  0  0  0  0  0
   11.5648   11.0105   40.3143 N   0  0  0  0  0  0  0  0  0  0  0  0
   11.1005    9.3238   42.0319 N   0  0  0  0  0  0  0  0  0  0  0  0
   12.3311    5.8360   44.0692 N   0  0  0  0  0  0  0  0  0  0  0  0
    4.2424    8.7287   43.2936 N   0  0  0  0  0  0  0  0  0  0  0  0
    4.8062    9.2097   42.0496 N   0  0  0  0  0  0  0  0  0  0  0  0
    9.3890   10.6549   41.1017 N   0  0  0  0  0  0  0  0  0  0  0  0
   12.7721    7.9105   42.8867 N   0  0  0  0  0  0  0  0  0  0  0  0
   14.7517    9.4155   41.4639 N   0  0  0  0  0  0  0  0  0  0  0  0
   12.8833   10.6946   40.4362 C   0  0  0  0  0  0  0  0  0  0  0  0
   17.8603   12.0006   42.6003 C   0  0  0  0  0  0  0  0  0  0  0  0
   16.5644   12.5155   42.4357 C   0  0  0  0  0  0  0  0  0  0  0  0
   18.0792   10.6173   42.4977 C   0  0  0  0  0  0  0  0  0  0  0  0
   15.4908   11.6760   42.1440 C   0  0  0  0  0  0  0  0  0  0  0  0
   17.0283    9.7476   42.1941 C   0  0  0  0  0  0  0  0  0  0  0  0
    8.6190   10.1726   43.3767 C   0  0  0  0  0  0  0  0  0  0  0  0
    7.6545    9.6553   44.2373 C   0  0  0  0  0  0  0  0  0  0  0  0
   10.6842    7.2794   44.2566 C   0  0  0  0  0  0  0  0  0  0  0  0
    7.0797   10.1330   41.4848 C   0  0  0  0  0  0  0  0  0  0  0  0
    7.9251    6.2457   45.3068 C   0  0  0  0  0  0  0  0  0  0  0  0
    8.5711    6.8914   46.5241 C   0  0  0  0  0  0  0  0  0  0  0  0
   10.7168   10.2997   41.1507 C   0  0  0  0  0  0  0  0  0  0  0  0
    5.2097    8.8196   44.3505 C   0  0  0  0  0  0  0  0  0  0  0  0
   11.9507    7.0819   43.6820 C   0  0  0  0  0  0  0  0  0  0  0  0
   12.4184    9.0040   42.1062 C   0  0  0  0  0  0  0  0  0  0  0  0
   15.7327   10.2722   41.9804 C   0  0  0  0  0  0  0  0  0  0  0  0
    8.3430   10.4033   41.9918 C   0  0  0  0  0  0  0  0  0  0  0  0
   10.4181    6.0793   44.9725 C   0  0  0  0  0  0  0  0  0  0  0  0
   13.3872    9.7070   41.3308 C   0  0  0  0  0  0  0  0  0  0  0  0
    6.1315    9.5968   42.3539 C   0  0  0  0  0  0  0  0  0  0  0  0
    6.4070    9.3643   43.7217 C   0  0  0  0  0  0  0  0  0  0  0  0
    9.2694    5.7594   45.7944 C   0  0  0  0  0  0  0  0  0  0  0  0
   13.1848    5.3559   43.8280 H   0  0  0  0  0  0  0  0  0  0  0  0
    3.7647    7.8498   43.1362 H   0  0  0  0  0  0  0  0  0  0  0  0
    4.7275    8.4847   41.3431 H   0  0  0  0  0  0  0  0  0  0  0  0
    9.1366   11.2002   40.2844 H   0  0  0  0  0  0  0  0  0  0  0  0
   13.7442    7.6230   42.9184 H   0  0  0  0  0  0  0  0  0  0  0  0
   15.0204    8.4576   41.2661 H   0  0  0  0  0  0  0  0  0  0  0  0
   13.5389   11.2714   39.7865 H   0  0  0  0  0  0  0  0  0  0  0  0
   18.6951   12.6743   42.7882 H   0  0  0  0  0  0  0  0  0  0  0  0
   16.3951   13.5872   42.5289 H   0  0  0  0  0  0  0  0  0  0  0  0
   19.0759   10.2072   42.6510 H   0  0  0  0  0  0  0  0  0  0  0  0
   14.4935   12.1080   42.0856 H   0  0  0  0  0  0  0  0  0  0  0  0
   17.2232    8.6782   42.1399 H   0  0  0  0  0  0  0  0  0  0  0  0
    9.5794   10.4415   43.8120 H   0  0  0  0  0  0  0  0  0  0  0  0
    7.8649    9.4955   45.2935 H   0  0  0  0  0  0  0  0  0  0  0  0
   10.0390    8.1510   44.1854 H   0  0  0  0  0  0  0  0  0  0  0  0
    6.8098   10.3492   40.4531 H   0  0  0  0  0  0  0  0  0  0  0  0
    7.0670    5.5832   45.4033 H   0  0  0  0  0  0  0  0  0  0  0  0
    7.8444    6.7895   44.3670 H   0  0  0  0  0  0  0  0  0  0  0  0
    8.1569    6.7428   47.5197 H   0  0  0  0  0  0  0  0  0  0  0  0
    8.9919    7.8934   46.4653 H   0  0  0  0  0  0  0  0  0  0  0  0
    9.3458    4.7881   46.2800 H   0  0  0  0  0  0  0  0  0  0  0  0
  1 24  2  0  0  0  0
  2  5  1  0  0  0  0
  2 29  2  0  0  0  0
  3 11  1  0  0  0  0
  3 23  2  0  0  0  0
  4 23  1  0  0  0  0
  4 26  2  0  0  0  0
  5 25  1  0  0  0  0
  5 34  1  0  0  0  0
  6  7  1  0  0  0  0
  6 24  1  0  0  0  0
  6 35  1  0  0  0  0
  7 31  1  0  0  0  0
  7 36  1  0  0  0  0
  8 23  1  0  0  0  0
  8 28  1  0  0  0  0
  8 37  1  0  0  0  0
  9 25  1  0  0  0  0
  9 26  1  0  0  0  0
  9 38  1  0  0  0  0
 10 27  1  0  0  0  0
 10 30  1  0  0  0  0
 10 39  1  0  0  0  0
 11 30  2  0  0  0  0
 11 40  1  0  0  0  0
 12 13  2  0  0  0  0
 12 14  1  0  0  0  0
 12 41  1  0  0  0  0
 13 15  1  0  0  0  0
 13 42  1  0  0  0  0
 14 16  2  0  0  0  0
 14 43  1  0  0  0  0
 15 27  2  0  0  0  0
 15 44  1  0  0  0  0
 16 27  1  0  0  0  0
 16 45  1  0  0  0  0
 17 18  1  0  0  0  0
 17 28  2  0  0  0  0
 17 46  1  0  0  0  0
 18 32  2  0  0  0  0
 18 47  1  0  0  0  0
 19 25  2  0  0  0  0
 19 29  1  0  0  0  0
 19 48  1  0  0  0  0
 20 28  1  0  0  0  0
 20 31  2  0  0  0  0
 20 49  1  0  0  0  0
 21 22  1  0  0  0  0
 21 33  1  0  0  0  0
 21 50  1  0  0  0  0
 21 51  1  0  0  0  0
 22 33  1  0  0  0  0
 22 52  1  0  0  0  0
 22 53  1  0  0  0  0
 24 32  1  0  0  0  0
 26 30  1  0  0  0  0
 29 33  1  0  0  0  0
 31 32  1  0  0  0  0
 33 54  1  0  0  0  0
M  END
> <pdb_id>
4FV8

> <uniprot_id>
P28482

> <usmiles>
O=C1NNc2c1ccc(Nc3nc(NC=4NN=C(C4)C5CC5)c(Nc6ccccc6)cn3)c2

$$$$
E6T_A_501
          07202411083D 1   1.00000     0.00000     0
            
 32 35  0  0  0  0            999 V2000
   19.0515   44.8124    7.2021 O   0  0  0  0  0  0  0  0  0  0  0  0
   15.7112   48.5531   15.6426 O   0  0  0  0  0  0  0  0  0  0  0  0
   20.2551   42.9509    7.8099 N   0  0  0  0  0  0  0  0  0  0  0  0
   18.3465   46.4189   10.0021 N   0  0  0  0  0  0  0  0  0  0  0  0
   20.7945   42.3228    9.0016 C   0  0  0  0  0  0  0  0  0  0  0  0
   17.9539   47.0289   11.1685 C   0  0  0  0  0  0  0  0  0  0  0  0
   18.9954   47.0019   15.9254 C   0  0  0  0  0  0  0  0  0  0  0  0
   17.8251   47.6516   16.2778 C   0  0  0  0  0  0  0  0  0  0  0  0
   19.1973   46.5820   14.6211 C   0  0  0  0  0  0  0  0  0  0  0  0
   20.4305   43.1497   11.4745 C   0  0  0  0  0  0  0  0  0  0  0  0
   19.8783   44.1321   12.2862 C   0  0  0  0  0  0  0  0  0  0  0  0
   17.0495   47.4577   14.0099 C   0  0  0  0  0  0  0  0  0  0  0  0
   19.5677   44.0887    8.0581 C   0  0  0  0  0  0  0  0  0  0  0  0
   16.8587   47.8867   15.3136 C   0  0  0  0  0  0  0  0  0  0  0  0
   19.0924   45.3075   10.3136 C   0  0  0  0  0  0  0  0  0  0  0  0
   20.3038   43.2351   10.0887 C   0  0  0  0  0  0  0  0  0  0  0  0
   18.2297   46.7982   13.6610 C   0  0  0  0  0  0  0  0  0  0  0  0
   18.4507   46.3472   12.2565 C   0  0  0  0  0  0  0  0  0  0  0  0
   19.1980   45.2159   11.7142 C   0  0  0  0  0  0  0  0  0  0  0  0
   19.6528   44.3090    9.5155 C   0  0  0  0  0  0  0  0  0  0  0  0
   15.0140   48.7223   14.9459 H   0  0  0  0  0  0  0  0  0  0  0  0
   20.3802   42.5773    6.8908 H   0  0  0  0  0  0  0  0  0  0  0  0
   18.1258   46.7319    9.0783 H   0  0  0  0  0  0  0  0  0  0  0  0
   21.7937   42.2938    8.9758 H   0  0  0  0  0  0  0  0  0  0  0  0
   20.4370   41.3961    9.1167 H   0  0  0  0  0  0  0  0  0  0  0  0
   17.3875   47.8514   11.2200 H   0  0  0  0  0  0  0  0  0  0  0  0
   19.6989   46.8349   16.6163 H   0  0  0  0  0  0  0  0  0  0  0  0
   17.6784   47.9491   17.2212 H   0  0  0  0  0  0  0  0  0  0  0  0
   20.0487   46.1196   14.3737 H   0  0  0  0  0  0  0  0  0  0  0  0
   20.9198   42.3800   11.8846 H   0  0  0  0  0  0  0  0  0  0  0  0
   19.9662   44.0660   13.2802 H   0  0  0  0  0  0  0  0  0  0  0  0
   16.3436   47.6200   13.3206 H   0  0  0  0  0  0  0  0  0  0  0  0
  1 13  2  0  0  0  0
  2 14  1  0  0  0  0
  3  5  1  0  0  0  0
  3 13  1  0  0  0  0
  4  6  1  0  0  0  0
  4 15  1  0  0  0  0
  5 16  1  0  0  0  0
  6 18  2  0  0  0  0
  7  8  2  0  0  0  0
  7  9  1  0  0  0  0
  8 14  1  0  0  0  0
  9 17  2  0  0  0  0
 10 11  1  0  0  0  0
 10 16  2  0  0  0  0
 11 19  2  0  0  0  0
 12 14  2  0  0  0  0
 12 17  1  0  0  0  0
 13 20  1  0  0  0  0
 15 19  1  0  0  0  0
 15 20  2  0  0  0  0
 16 20  1  0  0  0  0
 17 18  1  0  0  0  0
 18 19  1  0  0  0  0
  2 21  1  0  0  0  0
  3 22  1  0  0  0  0
  4 23  1  0  0  0  0
  5 24  1  0  0  0  0
  5 25  1  0  0  0  0
  6 26  1  0  0  0  0
  7 27  1  0  0  0  0
  8 28  1  0  0  0  0
  9 29  1  0  0  0  0
 10 30  1  0  0  0  0
 11 31  1  0  0  0  0
 12 32  1  0  0  0  0
M  END
> <pdb_id>
6FT8

> <uniprot_id>
P49759

> <usmiles>
O=C1NCc2c1c3NC=C(c3cc2)c4cc(O)ccc4

$$$$
E6W_C_501
          07202411083D 1   1.00000     0.00000     0
            
 31 34  0  0  0  0            999 V2000
   16.8145   47.7578   11.8810 Br  0  0  0  0  0  0  0  0  0  0  0  0
   19.1720   44.8613    7.2976 O   0  0  0  0  0  0  0  0  0  0  0  0
   20.3224   42.9238    7.6638 N   0  0  0  0  0  0  0  0  0  0  0  0
   18.4268   46.0474   10.3503 N   0  0  0  0  0  0  0  0  0  0  0  0
   18.4454   46.0013   16.8272 C   0  0  0  0  0  0  0  0  0  0  0  0
   17.8353   44.9432   16.1795 C   0  0  0  0  0  0  0  0  0  0  0  0
   19.1845   46.9090   16.1096 C   0  0  0  0  0  0  0  0  0  0  0  0
   20.8803   42.1443    8.7492 C   0  0  0  0  0  0  0  0  0  0  0  0
   17.9522   44.8063   14.8113 C   0  0  0  0  0  0  0  0  0  0  0  0
   19.3011   46.7846   14.7374 C   0  0  0  0  0  0  0  0  0  0  0  0
   20.6995   42.7268   11.2908 C   0  0  0  0  0  0  0  0  0  0  0  0
   20.1815   43.5847   12.2370 C   0  0  0  0  0  0  0  0  0  0  0  0
   18.1041   46.4452   11.6021 C   0  0  0  0  0  0  0  0  0  0  0  0
   19.6834   44.0409    8.0547 C   0  0  0  0  0  0  0  0  0  0  0  0
   20.4572   42.9434    9.9417 C   0  0  0  0  0  0  0  0  0  0  0  0
   18.6669   45.7466   14.0665 C   0  0  0  0  0  0  0  0  0  0  0  0
   19.2206   44.9349   10.4725 C   0  0  0  0  0  0  0  0  0  0  0  0
   19.4249   44.6767   11.8443 C   0  0  0  0  0  0  0  0  0  0  0  0
   18.6849   45.6816   12.5811 C   0  0  0  0  0  0  0  0  0  0  0  0
   19.7300   44.0440    9.5268 C   0  0  0  0  0  0  0  0  0  0  0  0
   20.4052   42.6542    6.7044 H   0  0  0  0  0  0  0  0  0  0  0  0
   18.1407   46.4823    9.4964 H   0  0  0  0  0  0  0  0  0  0  0  0
   18.3484   46.1055   17.8170 H   0  0  0  0  0  0  0  0  0  0  0  0
   17.3077   44.2749   16.7040 H   0  0  0  0  0  0  0  0  0  0  0  0
   19.6406   47.6634   16.5815 H   0  0  0  0  0  0  0  0  0  0  0  0
   21.8764   42.0871    8.6829 H   0  0  0  0  0  0  0  0  0  0  0  0
   20.4942   41.2222    8.7722 H   0  0  0  0  0  0  0  0  0  0  0  0
   17.5228   44.0294   14.3507 H   0  0  0  0  0  0  0  0  0  0  0  0
   19.8463   47.4472   14.2239 H   0  0  0  0  0  0  0  0  0  0  0  0
   21.2525   41.9446   11.5779 H   0  0  0  0  0  0  0  0  0  0  0  0
   20.3521   43.4188   13.2083 H   0  0  0  0  0  0  0  0  0  0  0  0
  1 13  1  0  0  0  0
  2 14  2  0  0  0  0
  3  8  1  0  0  0  0
  3 14  1  0  0  0  0
  4 13  1  0  0  0  0
  4 17  1  0  0  0  0
  5  6  2  0  0  0  0
  5  7  1  0  0  0  0
  6  9  1  0  0  0  0
  7 10  2  0  0  0  0
  8 15  1  0  0  0  0
  9 16  2  0  0  0  0
 10 16  1  0  0  0  0
 11 12  1  0  0  0  0
 11 15  2  0  0  0  0
 12 18  2  0  0  0  0
 13 19  2  0  0  0  0
 14 20  1  0  0  0  0
 15 20  1  0  0  0  0
 16 19  1  0  0  0  0
 17 18  1  0  0  0  0
 17 20  2  0  0  0  0
 18 19  1  0  0  0  0
  3 21  1  0  0  0  0
  4 22  1  0  0  0  0
  5 23  1  0  0  0  0
  6 24  1  0  0  0  0
  7 25  1  0  0  0  0
  8 26  1  0  0  0  0
  8 27  1  0  0  0  0
  9 28  1  0  0  0  0
 10 29  1  0  0  0  0
 11 30  1  0  0  0  0
 12 31  1  0  0  0  0
M  END
> <pdb_id>
6FT9

> <uniprot_id>
P49759

> <usmiles>
BrC=1Nc2c3c(ccc2C1c4ccccc4)CNC3=O

$$$$
E71_A_401
          07212404193D 1   1.00000     0.00000     0
            
 40 44  0  0  0  0            999 V2000
    5.0794    5.3089   49.5215 F   0  0  0  0  0  0  0  0  0  0  0  0
    4.9630    6.3704   47.0662 F   0  0  0  0  0  0  0  0  0  0  0  0
    7.6515    8.3535   43.8032 O   0  0  0  0  0  0  0  0  0  0  0  0
    6.4383    8.9878   44.1621 N   0  0  0  0  0  0  0  0  0  0  0  0
   13.1930   11.7293   39.9361 N   0  0  0  0  0  0  0  0  0  0  0  0
   12.6340    6.3753   43.5566 N   0  0  0  0  0  0  0  0  0  0  0  0
   10.9189    5.3214   44.9100 N   0  0  0  0  0  0  0  0  0  0  0  0
   14.0925   11.0305   40.6345 C   0  0  0  0  0  0  0  0  0  0  0  0
   11.9112   11.3820   40.0914 C   0  0  0  0  0  0  0  0  0  0  0  0
    8.4957    6.4287   49.1462 C   0  0  0  0  0  0  0  0  0  0  0  0
    6.1938    8.5787   45.3738 C   0  0  0  0  0  0  0  0  0  0  0  0
   12.9234    7.4263   42.7779 C   0  0  0  0  0  0  0  0  0  0  0  0
    9.6450    5.6819   45.2577 C   0  0  0  0  0  0  0  0  0  0  0  0
    7.3825    5.8014   49.6842 C   0  0  0  0  0  0  0  0  0  0  0  0
   13.7640    9.9989   41.4943 C   0  0  0  0  0  0  0  0  0  0  0  0
   11.4863   10.3631   40.9252 C   0  0  0  0  0  0  0  0  0  0  0  0
    8.4200    7.0675   47.9197 C   0  0  0  0  0  0  0  0  0  0  0  0
   10.7724    8.3647   43.0673 C   0  0  0  0  0  0  0  0  0  0  0  0
    6.1994    5.8385   48.9825 C   0  0  0  0  0  0  0  0  0  0  0  0
    6.1192    6.4414   47.7493 C   0  0  0  0  0  0  0  0  0  0  0  0
   11.4089    6.3050   44.1017 C   0  0  0  0  0  0  0  0  0  0  0  0
    8.0850    7.5898   44.8282 C   0  0  0  0  0  0  0  0  0  0  0  0
   12.0299    8.4457   42.4658 C   0  0  0  0  0  0  0  0  0  0  0  0
   12.4261    9.6438   41.6675 C   0  0  0  0  0  0  0  0  0  0  0  0
    7.1759    7.7045   45.8631 C   0  0  0  0  0  0  0  0  0  0  0  0
    9.3126    6.8827   44.6694 C   0  0  0  0  0  0  0  0  0  0  0  0
    7.2212    7.0638   47.2053 C   0  0  0  0  0  0  0  0  0  0  0  0
   10.4673    7.2887   43.8993 C   0  0  0  0  0  0  0  0  0  0  0  0
   11.4147    4.4814   45.1902 H   0  0  0  0  0  0  0  0  0  0  0  0
   15.1274   11.3356   40.4869 H   0  0  0  0  0  0  0  0  0  0  0  0
   11.1968   11.9630   39.5113 H   0  0  0  0  0  0  0  0  0  0  0  0
    9.4349    6.4165   49.6964 H   0  0  0  0  0  0  0  0  0  0  0  0
    5.3119    8.9023   45.9244 H   0  0  0  0  0  0  0  0  0  0  0  0
   13.9394    7.3927   42.3943 H   0  0  0  0  0  0  0  0  0  0  0  0
    9.0366    5.0683   45.9180 H   0  0  0  0  0  0  0  0  0  0  0  0
    7.4459    5.2558   50.6211 H   0  0  0  0  0  0  0  0  0  0  0  0
   14.5694    9.5083   42.0415 H   0  0  0  0  0  0  0  0  0  0  0  0
   10.4273   10.1185   40.9538 H   0  0  0  0  0  0  0  0  0  0  0  0
    9.2940    7.5687   47.5062 H   0  0  0  0  0  0  0  0  0  0  0  0
   10.0222    9.1405   42.9247 H   0  0  0  0  0  0  0  0  0  0  0  0
  1 19  1  0  0  0  0
  2 20  1  0  0  0  0
  3  4  1  0  0  0  0
  3 22  1  0  0  0  0
  4 11  2  0  0  0  0
  5  8  2  0  0  0  0
  5  9  1  0  0  0  0
  6 12  1  0  0  0  0
  6 21  2  0  0  0  0
  7 13  1  0  0  0  0
  7 21  1  0  0  0  0
  7 29  1  0  0  0  0
  8 15  1  0  0  0  0
  8 30  1  0  0  0  0
  9 16  2  0  0  0  0
  9 31  1  0  0  0  0
 10 14  2  0  0  0  0
 10 17  1  0  0  0  0
 10 32  1  0  0  0  0
 11 25  1  0  0  0  0
 11 33  1  0  0  0  0
 12 23  2  0  0  0  0
 12 34  1  0  0  0  0
 13 26  2  0  0  0  0
 13 35  1  0  0  0  0
 14 19  1  0  0  0  0
 14 36  1  0  0  0  0
 15 24  2  0  0  0  0
 15 37  1  0  0  0  0
 16 24  1  0  0  0  0
 16 38  1  0  0  0  0
 17 27  2  0  0  0  0
 17 39  1  0  0  0  0
 18 23  1  0  0  0  0
 18 28  2  0  0  0  0
 18 40  1  0  0  0  0
 19 20  2  0  0  0  0
 20 27  1  0  0  0  0
 21 28  1  0  0  0  0
 22 25  2  0  0  0  0
 22 26  1  0  0  0  0
 23 24  1  0  0  0  0
 25 27  1  0  0  0  0
 26 28  1  0  0  0  0
M  END
> <pdb_id>
4FV9

> <uniprot_id>
P28482

> <usmiles>
Fc1c(F)cccc1C2=C(ON=C2)C=3c4c(ncc(c5ccncc5)c4)NC3

$$$$
E7Z_A_1501
          07202410113D 1   1.00000     0.00000     0
            
 19 19  0  0  0  0            999 V2000
   82.9224   37.3665   23.1567 O   0  0  0  0  0  0  0  0  0  0  0  0
   84.5663   38.3901   22.0942 O   0  0  0  0  0  0  0  0  0  0  0  0
   80.0927   42.7893   21.4860 O   0  0  0  0  0  0  0  0  0  0  0  0
   82.3606   43.0755   23.0408 O   0  0  0  0  0  0  0  0  0  0  0  0
   81.3815   39.3737   21.4964 N   0  0  0  0  0  0  0  0  0  0  0  0
   81.0344   38.0667   20.9491 C   0  0  0  0  0  0  0  0  0  0  0  0
   80.5633   40.4622   21.2303 C   0  0  0  0  0  0  0  0  0  0  0  0
   82.8486   40.8460   22.8028 C   0  0  0  0  0  0  0  0  0  0  0  0
   83.3838   38.3422   22.5208 C   0  0  0  0  0  0  0  0  0  0  0  0
   80.8800   41.6652   21.7284 C   0  0  0  0  0  0  0  0  0  0  0  0
   82.0947   41.8227   22.5494 C   0  0  0  0  0  0  0  0  0  0  0  0
   82.4880   39.5274   22.2415 C   0  0  0  0  0  0  0  0  0  0  0  0
   81.9741   37.3796   23.4736 H   0  0  0  0  0  0  0  0  0  0  0  0
   80.3534   43.6748   21.8708 H   0  0  0  0  0  0  0  0  0  0  0  0
   81.7194   37.3947   21.2308 H   0  0  0  0  0  0  0  0  0  0  0  0
   80.1361   37.7902   21.2907 H   0  0  0  0  0  0  0  0  0  0  0  0
   81.0097   38.1192   19.9508 H   0  0  0  0  0  0  0  0  0  0  0  0
   79.7425   40.3497   20.6702 H   0  0  0  0  0  0  0  0  0  0  0  0
   83.6665   40.9595   23.3669 H   0  0  0  0  0  0  0  0  0  0  0  0
  1  9  1  0  0  0  0
  2  9  2  0  0  0  0
  3 10  1  0  0  0  0
  4 11  2  0  0  0  0
  5  6  1  0  0  0  0
  5  7  1  0  0  0  0
  5 12  1  0  0  0  0
  7 10  2  0  0  0  0
  8 11  1  0  0  0  0
  8 12  2  0  0  0  0
  9 12  1  0  0  0  0
 10 11  1  0  0  0  0
  1 13  1  0  0  0  0
  3 14  1  0  0  0  0
  6 15  1  0  0  0  0
  6 16  1  0  0  0  0
  6 17  1  0  0  0  0
  7 18  1  0  0  0  0
  8 19  1  0  0  0  0
M  END
> <pdb_id>
6FUL

> <uniprot_id>
O15550

> <usmiles>
O=C(O)C=1N(C=C(O)C(=O)C1)C

$$$$
E8Z_B_602
          07212403183D 1   1.00000     0.00000     0
            
 37 39  0  0  0  0            999 V2000
   15.6450  130.6040   24.1420 O   0  0  0  0  0  0  0  0  0  0  0  0
   15.4160  126.6060   23.0490 O   0  0  0  0  0  0  0  0  0  0  0  0
   17.6790  129.1750   20.9070 O   0  0  0  0  0  0  0  0  0  0  0  0
   14.5360  128.6820   24.5700 N   0  0  0  0  0  0  0  0  0  0  0  0
   11.5070  129.7860   29.3020 C   0  0  0  0  0  0  0  0  0  0  0  0
   13.8470  131.4710   28.6270 C   0  0  0  0  0  0  0  0  0  0  0  0
   16.9360  129.6500   21.9780 C   0  0  0  0  0  0  0  0  0  0  0  0
   18.9340  126.0730   19.4530 C   0  0  0  0  0  0  0  0  0  0  0  0
   18.2160  125.1330   20.1850 C   0  0  0  0  0  0  0  0  0  0  0  0
   18.7310  127.4200   19.7100 C   0  0  0  0  0  0  0  0  0  0  0  0
   17.3130  125.5190   21.1830 C   0  0  0  0  0  0  0  0  0  0  0  0
   12.7210  128.2150   26.0810 C   0  0  0  0  0  0  0  0  0  0  0  0
   11.9750  128.4710   27.2340 C   0  0  0  0  0  0  0  0  0  0  0  0
   14.1730  130.0620   26.6150 C   0  0  0  0  0  0  0  0  0  0  0  0
   15.4290  129.4090   23.8700 C   0  0  0  0  0  0  0  0  0  0  0  0
   16.1900  127.3710   22.4600 C   0  0  0  0  0  0  0  0  0  0  0  0
   17.8380  127.8150   20.7000 C   0  0  0  0  0  0  0  0  0  0  0  0
   13.8350  129.0050   25.7630 C   0  0  0  0  0  0  0  0  0  0  0  0
   12.3190  129.5270   28.0740 C   0  0  0  0  0  0  0  0  0  0  0  0
   13.4260  130.3200   27.7620 C   0  0  0  0  0  0  0  0  0  0  0  0
   16.1720  128.7990   22.7630 C   0  0  0  0  0  0  0  0  0  0  0  0
   17.1150  126.8890   21.4470 C   0  0  0  0  0  0  0  0  0  0  0  0
   14.3363  127.7778   24.1925 H   0  0  0  0  0  0  0  0  0  0  0  0
   11.8836  130.5729   29.7908 H   0  0  0  0  0  0  0  0  0  0  0  0
   10.5606  129.9771   29.0416 H   0  0  0  0  0  0  0  0  0  0  0  0
   11.5336  128.9813   29.8951 H   0  0  0  0  0  0  0  0  0  0  0  0
   13.2294  131.5427   29.4102 H   0  0  0  0  0  0  0  0  0  0  0  0
   14.7808  131.3200   28.9515 H   0  0  0  0  0  0  0  0  0  0  0  0
   13.8115  132.3176   28.0959 H   0  0  0  0  0  0  0  0  0  0  0  0
   16.9516  130.6274   22.1887 H   0  0  0  0  0  0  0  0  0  0  0  0
   19.5859  125.7818   18.7528 H   0  0  0  0  0  0  0  0  0  0  0  0
   18.3477  124.1602   19.9943 H   0  0  0  0  0  0  0  0  0  0  0  0
   19.2278  128.1090   19.1823 H   0  0  0  0  0  0  0  0  0  0  0  0
   16.8125  124.8279   21.7044 H   0  0  0  0  0  0  0  0  0  0  0  0
   12.4584  127.4622   25.4774 H   0  0  0  0  0  0  0  0  0  0  0  0
   11.1901  127.8931   27.4572 H   0  0  0  0  0  0  0  0  0  0  0  0
   14.9603  130.6392   26.3979 H   0  0  0  0  0  0  0  0  0  0  0  0
  1 15  2  0  0  0  0
  2 16  2  0  0  0  0
  3  7  1  0  0  0  0
  3 17  1  0  0  0  0
  4 15  1  0  0  0  0
  4 18  1  0  0  0  0
  5 19  1  0  0  0  0
  6 20  1  0  0  0  0
  7 21  2  0  0  0  0
  8  9  2  0  0  0  0
  8 10  1  0  0  0  0
  9 11  1  0  0  0  0
 10 17  2  0  0  0  0
 11 22  2  0  0  0  0
 12 13  1  0  0  0  0
 12 18  2  0  0  0  0
 13 19  2  0  0  0  0
 14 18  1  0  0  0  0
 14 20  2  0  0  0  0
 15 21  1  0  0  0  0
 16 21  1  0  0  0  0
 16 22  1  0  0  0  0
 17 22  1  0  0  0  0
 19 20  1  0  0  0  0
  4 23  1  0  0  0  0
  5 24  1  0  0  0  0
  5 25  1  0  0  0  0
  5 26  1  0  0  0  0
  6 27  1  0  0  0  0
  6 28  1  0  0  0  0
  6 29  1  0  0  0  0
  7 30  1  0  0  0  0
  8 31  1  0  0  0  0
  9 32  1  0  0  0  0
 10 33  1  0  0  0  0
 11 34  1  0  0  0  0
 12 35  1  0  0  0  0
 13 36  1  0  0  0  0
 14 37  1  0  0  0  0
M  END
> <pdb_id>
6FVZ

> <uniprot_id>
P27338

> <usmiles>
O=C(Nc1cc(c(cc1)C)C)C=2C(=O)c3c(OC2)cccc3

$$$$
E90_A_266
          07192416293D 1   1.00000     0.00000     0
            
 31 32  0  0  0  0            999 V2000
   -1.5765    6.5656   12.0382 S   0  0  0  0  0  0  0  0  0  0  0  0
   -5.9479    0.9647   16.9337 S   0  0  0  0  0  0  0  0  0  0  0  0
   -5.3950    1.1675   18.2597 O   0  0  0  0  0  0  0  0  0  0  0  0
   -7.4025    1.0574   16.7915 O   0  0  0  0  0  0  0  0  0  0  0  0
   -4.3081    6.3583   13.2462 O   0  0  0  0  0  0  0  0  0  0  0  0
   -5.3291   -0.4184   16.3278 N   0  0  0  0  0  0  0  0  0  0  0  0
   -1.4640    7.7607   14.4474 N   0  0  0  0  0  0  0  0  0  0  0  0
   -1.1391    9.0589   12.4334 N   0  0  0  0  0  0  0  0  0  0  0  0
   -2.1158    5.2634   13.2099 C   0  0  0  0  0  0  0  0  0  0  0  0
   -1.2846    8.8402   15.2093 C   0  0  0  0  0  0  0  0  0  0  0  0
   -0.9666   10.1806   13.2080 C   0  0  0  0  0  0  0  0  0  0  0  0
   -0.9624   10.0867   14.6165 C   0  0  0  0  0  0  0  0  0  0  0  0
   -3.9444    2.2519   15.6548 C   0  0  0  0  0  0  0  0  0  0  0  0
   -6.1194    3.3231   15.5613 C   0  0  0  0  0  0  0  0  0  0  0  0
   -3.3983    3.2551   14.8917 C   0  0  0  0  0  0  0  0  0  0  0  0
   -5.5364    4.3715   14.8461 C   0  0  0  0  0  0  0  0  0  0  0  0
   -1.4002    7.9037   13.0858 C   0  0  0  0  0  0  0  0  0  0  0  0
   -5.2989    2.2997   15.9621 C   0  0  0  0  0  0  0  0  0  0  0  0
   -3.5943    5.4060   13.6134 C   0  0  0  0  0  0  0  0  0  0  0  0
   -4.1957    4.3353   14.4737 C   0  0  0  0  0  0  0  0  0  0  0  0
   -5.6989   -0.5761   15.4122 H   0  0  0  0  0  0  0  0  0  0  0  0
   -4.3332   -0.3438   16.2767 H   0  0  0  0  0  0  0  0  0  0  0  0
   -1.5520    5.3204   14.0338 H   0  0  0  0  0  0  0  0  0  0  0  0
   -1.9862    4.3707   12.7783 H   0  0  0  0  0  0  0  0  0  0  0  0
   -1.3777    8.7702   16.2024 H   0  0  0  0  0  0  0  0  0  0  0  0
   -0.8431   11.0711   12.7702 H   0  0  0  0  0  0  0  0  0  0  0  0
   -0.7376   10.8801   15.1822 H   0  0  0  0  0  0  0  0  0  0  0  0
   -3.3757    1.4982   15.9844 H   0  0  0  0  0  0  0  0  0  0  0  0
   -7.0968    3.3187   15.7730 H   0  0  0  0  0  0  0  0  0  0  0  0
   -2.4330    3.2172   14.6332 H   0  0  0  0  0  0  0  0  0  0  0  0
   -6.0931    5.1638   14.5966 H   0  0  0  0  0  0  0  0  0  0  0  0
  1  9  1  0  0  0  0
  1 17  1  0  0  0  0
  2  3  2  0  0  0  0
  2  4  2  0  0  0  0
  2  6  1  0  0  0  0
  2 18  1  0  0  0  0
  5 19  2  0  0  0  0
  7 10  2  0  0  0  0
  7 17  1  0  0  0  0
  8 11  1  0  0  0  0
  8 17  2  0  0  0  0
  9 19  1  0  0  0  0
 10 12  1  0  0  0  0
 11 12  2  0  0  0  0
 13 15  1  0  0  0  0
 13 18  2  0  0  0  0
 14 16  2  0  0  0  0
 14 18  1  0  0  0  0
 15 20  2  0  0  0  0
 16 20  1  0  0  0  0
 19 20  1  0  0  0  0
  6 21  1  0  0  0  0
  6 22  1  0  0  0  0
  9 23  1  0  0  0  0
  9 24  1  0  0  0  0
 10 25  1  0  0  0  0
 11 26  1  0  0  0  0
 12 27  1  0  0  0  0
 13 28  1  0  0  0  0
 14 29  1  0  0  0  0
 15 30  1  0  0  0  0
 16 31  1  0  0  0  0
M  END
> <pdb_id>
3SBI

> <uniprot_id>
P00918

> <usmiles>
S(=O)(=O)(N)c1ccc(cc1)C(=O)CSc2ncccn2

$$$$
E92_B_602
          07212403183D 1   1.00000     0.00000     0
            
 31 33  0  0  0  0            999 V2000
   14.0687  131.3099   29.2337 Cl  0  0  0  0  0  0  0  0  0  0  0  0
   15.4911  130.5625   24.5181 O   0  0  0  0  0  0  0  0  0  0  0  0
   14.9999  126.6445   23.2285 O   0  0  0  0  0  0  0  0  0  0  0  0
   17.4794  129.1379   21.2913 O   0  0  0  0  0  0  0  0  0  0  0  0
   14.2599  128.6697   24.7973 N   0  0  0  0  0  0  0  0  0  0  0  0
   16.7885  129.5630   22.3800 C   0  0  0  0  0  0  0  0  0  0  0  0
   18.5496  125.9762   19.8154 C   0  0  0  0  0  0  0  0  0  0  0  0
   17.7316  125.0979   20.5113 C   0  0  0  0  0  0  0  0  0  0  0  0
   11.8736  128.4937   27.5509 C   0  0  0  0  0  0  0  0  0  0  0  0
   12.3509  129.4327   28.4618 C   0  0  0  0  0  0  0  0  0  0  0  0
   18.4675  127.3475   20.0830 C   0  0  0  0  0  0  0  0  0  0  0  0
   12.5379  128.2731   26.3367 C   0  0  0  0  0  0  0  0  0  0  0  0
   16.8247  125.5309   21.4719 C   0  0  0  0  0  0  0  0  0  0  0  0
   14.1775  129.9376   26.9271 C   0  0  0  0  0  0  0  0  0  0  0  0
   13.4944  130.1441   28.1324 C   0  0  0  0  0  0  0  0  0  0  0  0
   15.2035  129.4006   24.1698 C   0  0  0  0  0  0  0  0  0  0  0  0
   15.8323  127.4093   22.7139 C   0  0  0  0  0  0  0  0  0  0  0  0
   17.5725  127.7856   21.0426 C   0  0  0  0  0  0  0  0  0  0  0  0
   13.7033  128.9916   25.9963 C   0  0  0  0  0  0  0  0  0  0  0  0
   15.8271  128.7961   23.0365 C   0  0  0  0  0  0  0  0  0  0  0  0
   16.7325  126.9163   21.7515 C   0  0  0  0  0  0  0  0  0  0  0  0
   13.9472  127.8319   24.3498 H   0  0  0  0  0  0  0  0  0  0  0  0
   16.9803  130.4794   22.7313 H   0  0  0  0  0  0  0  0  0  0  0  0
   19.1914  125.6329   19.1296 H   0  0  0  0  0  0  0  0  0  0  0  0
   17.7966  124.1195   20.3151 H   0  0  0  0  0  0  0  0  0  0  0  0
   11.0484  127.9712   27.7654 H   0  0  0  0  0  0  0  0  0  0  0  0
   11.8812  129.5897   29.3305 H   0  0  0  0  0  0  0  0  0  0  0  0
   19.0448  127.9983   19.5899 H   0  0  0  0  0  0  0  0  0  0  0  0
   12.1783  127.5925   25.6984 H   0  0  0  0  0  0  0  0  0  0  0  0
   16.2469  124.8749   21.9576 H   0  0  0  0  0  0  0  0  0  0  0  0
   15.0043  130.4631   26.7265 H   0  0  0  0  0  0  0  0  0  0  0  0
  1 15  1  0  0  0  0
  2 16  2  0  0  0  0
  3 17  2  0  0  0  0
  4  6  1  0  0  0  0
  4 18  1  0  0  0  0
  5 16  1  0  0  0  0
  5 19  1  0  0  0  0
  6 20  2  0  0  0  0
  7  8  2  0  0  0  0
  7 11  1  0  0  0  0
  8 13  1  0  0  0  0
  9 10  2  0  0  0  0
  9 12  1  0  0  0  0
 10 15  1  0  0  0  0
 11 18  2  0  0  0  0
 12 19  2  0  0  0  0
 13 21  2  0  0  0  0
 14 15  2  0  0  0  0
 14 19  1  0  0  0  0
 16 20  1  0  0  0  0
 17 20  1  0  0  0  0
 17 21  1  0  0  0  0
 18 21  1  0  0  0  0
  5 22  1  0  0  0  0
  6 23  1  0  0  0  0
  7 24  1  0  0  0  0
  8 25  1  0  0  0  0
  9 26  1  0  0  0  0
 10 27  1  0  0  0  0
 11 28  1  0  0  0  0
 12 29  1  0  0  0  0
 13 30  1  0  0  0  0
 14 31  1  0  0  0  0
M  END
> <pdb_id>
6FW0

> <uniprot_id>
P27338

> <usmiles>
Clc1cc(NC(=O)C=2C(=O)c3c(OC2)cccc3)ccc1

$$$$
E98_B_602
          07212403183D 1   1.00000     0.00000     0
            
 31 33  0  0  0  0            999 V2000
   13.8625  131.3144   28.8836 F   0  0  0  0  0  0  0  0  0  0  0  0
   15.4847  130.6620   24.3952 O   0  0  0  0  0  0  0  0  0  0  0  0
   15.0095  126.7131   23.2530 O   0  0  0  0  0  0  0  0  0  0  0  0
   17.4771  129.1666   21.2461 O   0  0  0  0  0  0  0  0  0  0  0  0
   14.2631  128.7564   24.7642 N   0  0  0  0  0  0  0  0  0  0  0  0
   16.8090  129.5949   22.3414 C   0  0  0  0  0  0  0  0  0  0  0  0
   18.5818  126.0133   19.8091 C   0  0  0  0  0  0  0  0  0  0  0  0
   17.7747  125.1187   20.5126 C   0  0  0  0  0  0  0  0  0  0  0  0
   11.9394  128.5762   27.5928 C   0  0  0  0  0  0  0  0  0  0  0  0
   12.3774  129.5840   28.4493 C   0  0  0  0  0  0  0  0  0  0  0  0
   18.4685  127.3806   20.0719 C   0  0  0  0  0  0  0  0  0  0  0  0
   12.6005  128.3425   26.3930 C   0  0  0  0  0  0  0  0  0  0  0  0
   16.8654  125.5584   21.4820 C   0  0  0  0  0  0  0  0  0  0  0  0
   14.1545  130.1154   26.8511 C   0  0  0  0  0  0  0  0  0  0  0  0
   13.4705  130.3350   28.0630 C   0  0  0  0  0  0  0  0  0  0  0  0
   15.2061  129.4798   24.1071 C   0  0  0  0  0  0  0  0  0  0  0  0
   15.8425  127.4544   22.7060 C   0  0  0  0  0  0  0  0  0  0  0  0
   17.5763  127.8134   21.0263 C   0  0  0  0  0  0  0  0  0  0  0  0
   13.7185  129.0996   25.9806 C   0  0  0  0  0  0  0  0  0  0  0  0
   15.8732  128.8346   23.0296 C   0  0  0  0  0  0  0  0  0  0  0  0
   16.7451  126.9447   21.7498 C   0  0  0  0  0  0  0  0  0  0  0  0
   13.9412  127.9134   24.3331 H   0  0  0  0  0  0  0  0  0  0  0  0
   17.0012  130.5172   22.6765 H   0  0  0  0  0  0  0  0  0  0  0  0
   19.2322  125.6804   19.1263 H   0  0  0  0  0  0  0  0  0  0  0  0
   17.8474  124.1401   20.3198 H   0  0  0  0  0  0  0  0  0  0  0  0
   11.1471  128.0193   27.8422 H   0  0  0  0  0  0  0  0  0  0  0  0
   11.9141  129.7585   29.3181 H   0  0  0  0  0  0  0  0  0  0  0  0
   19.0306  128.0390   19.5711 H   0  0  0  0  0  0  0  0  0  0  0  0
   12.2712  127.6092   25.7982 H   0  0  0  0  0  0  0  0  0  0  0  0
   16.3046  124.8986   21.9822 H   0  0  0  0  0  0  0  0  0  0  0  0
   14.9453  130.6783   26.6109 H   0  0  0  0  0  0  0  0  0  0  0  0
  1 15  1  0  0  0  0
  2 16  2  0  0  0  0
  3 17  2  0  0  0  0
  4  6  1  0  0  0  0
  4 18  1  0  0  0  0
  5 16  1  0  0  0  0
  5 19  1  0  0  0  0
  6 20  2  0  0  0  0
  7  8  2  0  0  0  0
  7 11  1  0  0  0  0
  8 13  1  0  0  0  0
  9 10  2  0  0  0  0
  9 12  1  0  0  0  0
 10 15  1  0  0  0  0
 11 18  2  0  0  0  0
 12 19  2  0  0  0  0
 13 21  2  0  0  0  0
 14 15  2  0  0  0  0
 14 19  1  0  0  0  0
 16 20  1  0  0  0  0
 17 20  1  0  0  0  0
 17 21  1  0  0  0  0
 18 21  1  0  0  0  0
  5 22  1  0  0  0  0
  6 23  1  0  0  0  0
  7 24  1  0  0  0  0
  8 25  1  0  0  0  0
  9 26  1  0  0  0  0
 10 27  1  0  0  0  0
 11 28  1  0  0  0  0
 12 29  1  0  0  0  0
 13 30  1  0  0  0  0
 14 31  1  0  0  0  0
M  END
> <pdb_id>
6FWC

> <uniprot_id>
P27338

> <usmiles>
Fc1cc(NC(=O)C=2C(=O)c3c(OC2)cccc3)ccc1

$$$$
E9S_A_805
          07202413413D 1   1.00000     0.00000     0
            
 23 23  0  0  0  0            999 V2000
   32.5453   79.5608   60.7755 Br  0  0  0  0  0  0  0  0  0  0  0  0
   37.8785   81.1986   65.3646 O   0  0  0  0  0  0  0  0  0  0  0  0
   39.2132   81.4403   63.6232 O   0  0  0  0  0  0  0  0  0  0  0  0
   31.3033   76.8998   61.5468 O   0  0  0  0  0  0  0  0  0  0  0  0
   37.0420   82.1245   62.0363 O   0  0  0  0  0  0  0  0  0  0  0  0
   35.4573   80.0623   61.1427 O   0  0  0  0  0  0  0  0  0  0  0  0
   34.2381   76.3499   63.7000 C   0  0  0  0  0  0  0  0  0  0  0  0
   33.0082   76.1242   63.0666 C   0  0  0  0  0  0  0  0  0  0  0  0
   34.9851   77.5119   63.4726 C   0  0  0  0  0  0  0  0  0  0  0  0
   35.8044   80.5975   63.3797 C   0  0  0  0  0  0  0  0  0  0  0  0
   38.1055   81.3599   64.1689 C   0  0  0  0  0  0  0  0  0  0  0  0
   33.2823   78.2466   61.9641 C   0  0  0  0  0  0  0  0  0  0  0  0
   32.5092   77.0845   62.1917 C   0  0  0  0  0  0  0  0  0  0  0  0
   36.8754   81.4659   63.2090 C   0  0  0  0  0  0  0  0  0  0  0  0
   35.2829   79.7852   62.2704 C   0  0  0  0  0  0  0  0  0  0  0  0
   34.5002   78.4941   62.5863 C   0  0  0  0  0  0  0  0  0  0  0  0
   36.9350   81.1484   65.6921 H   0  0  0  0  0  0  0  0  0  0  0  0
   30.9585   77.5995   60.9210 H   0  0  0  0  0  0  0  0  0  0  0  0
   34.5922   75.6610   64.3325 H   0  0  0  0  0  0  0  0  0  0  0  0
   32.4956   75.2836   63.2413 H   0  0  0  0  0  0  0  0  0  0  0  0
   35.8604   77.6445   63.9378 H   0  0  0  0  0  0  0  0  0  0  0  0
   35.0398   81.1545   63.7039 H   0  0  0  0  0  0  0  0  0  0  0  0
   36.0754   79.9543   64.0959 H   0  0  0  0  0  0  0  0  0  0  0  0
  1 12  1  0  0  0  0
  2 11  1  0  0  0  0
  3 11  2  0  0  0  0
  4 13  1  0  0  0  0
  5 14  2  0  0  0  0
  6 15  2  0  0  0  0
  7  8  1  0  0  0  0
  7  9  2  0  0  0  0
  8 13  2  0  0  0  0
  9 16  1  0  0  0  0
 10 14  1  0  0  0  0
 10 15  1  0  0  0  0
 11 14  1  0  0  0  0
 12 13  1  0  0  0  0
 12 16  2  0  0  0  0
 15 16  1  0  0  0  0
  2 17  1  0  0  0  0
  4 18  1  0  0  0  0
  7 19  1  0  0  0  0
  8 20  1  0  0  0  0
  9 21  1  0  0  0  0
 10 22  1  0  0  0  0
 10 23  1  0  0  0  0
M  END
> <pdb_id>
6BU1

> <uniprot_id>
A5U3K4

> <usmiles>
Brc1c(O)cccc1C(=O)CC(=O)C(=O)O

$$$$
EA4_A_301
          07202407013D 1   1.00000     0.00000     0
            
 35 35  0  0  0  0            999 V2000
    4.9242   20.0591   19.6276 O   0  0  0  0  0  0  0  0  0  0  0  0
    3.3523   17.9348   16.9675 O   0  0  0  0  0  0  0  0  0  0  0  0
    6.2766   20.9230   18.0196 O   0  0  0  0  0  0  0  0  0  0  0  0
    0.5434   14.9143   23.4915 N   0  0  0  0  0  0  0  0  0  0  0  0
    2.8961   19.8708   17.9618 N   0  0  0  0  0  0  0  0  0  0  0  0
    1.5204   18.2070   18.3550 N   0  0  0  0  0  0  0  0  0  0  0  0
    8.4632   21.7732   18.3821 C   0  0  0  0  0  0  0  0  0  0  0  0
    7.3569   20.9512   18.9841 C   0  0  0  0  0  0  0  0  0  0  0  0
    4.0354   20.5613   17.4304 C   0  0  0  0  0  0  0  0  0  0  0  0
    0.9957   16.8686   18.3137 C   0  0  0  0  0  0  0  0  0  0  0  0
   -0.3767   15.1713   21.3169 C   0  0  0  0  0  0  0  0  0  0  0  0
    1.7620   16.0982   21.8536 C   0  0  0  0  0  0  0  0  0  0  0  0
   -0.2589   15.6681   20.0200 C   0  0  0  0  0  0  0  0  0  0  0  0
    1.8899   16.5880   20.5655 C   0  0  0  0  0  0  0  0  0  0  0  0
    5.1141   20.4989   18.4913 C   0  0  0  0  0  0  0  0  0  0  0  0
    2.6399   18.6192   17.7287 C   0  0  0  0  0  0  0  0  0  0  0  0
    0.6349   15.3947   22.2458 C   0  0  0  0  0  0  0  0  0  0  0  0
    0.8642   16.3846   19.6299 C   0  0  0  0  0  0  0  0  0  0  0  0
    1.2787   15.0832   24.1478 H   0  0  0  0  0  0  0  0  0  0  0  0
   -0.2603   14.3863   23.7660 H   0  0  0  0  0  0  0  0  0  0  0  0
    2.2638   20.3817   18.5443 H   0  0  0  0  0  0  0  0  0  0  0  0
    1.0152   18.8842   18.8899 H   0  0  0  0  0  0  0  0  0  0  0  0
    9.2315   21.8169   19.0207 H   0  0  0  0  0  0  0  0  0  0  0  0
    8.7643   21.3515   17.5268 H   0  0  0  0  0  0  0  0  0  0  0  0
    8.1294   22.6978   18.1985 H   0  0  0  0  0  0  0  0  0  0  0  0
    7.6793   20.0222   19.1659 H   0  0  0  0  0  0  0  0  0  0  0  0
    7.0445   21.3685   19.8375 H   0  0  0  0  0  0  0  0  0  0  0  0
    3.8007   21.5131   17.2329 H   0  0  0  0  0  0  0  0  0  0  0  0
    4.3495   20.1148   16.5926 H   0  0  0  0  0  0  0  0  0  0  0  0
    1.6206   16.2796   17.8012 H   0  0  0  0  0  0  0  0  0  0  0  0
    0.1008   16.8733   17.8676 H   0  0  0  0  0  0  0  0  0  0  0  0
   -1.1903   14.6530   21.5805 H   0  0  0  0  0  0  0  0  0  0  0  0
    2.4968   16.2550   22.5135 H   0  0  0  0  0  0  0  0  0  0  0  0
   -0.9937   15.5062   19.3613 H   0  0  0  0  0  0  0  0  0  0  0  0
    2.7147   17.0877   20.3011 H   0  0  0  0  0  0  0  0  0  0  0  0
  1 15  2  0  0  0  0
  2 16  2  0  0  0  0
  3  8  1  0  0  0  0
  3 15  1  0  0  0  0
  4 17  1  0  0  0  0
  5  9  1  0  0  0  0
  5 16  1  0  0  0  0
  6 10  1  0  0  0  0
  6 16  1  0  0  0  0
  7  8  1  0  0  0  0
  9 15  1  0  0  0  0
 10 18  1  0  0  0  0
 11 13  1  0  0  0  0
 11 17  2  0  0  0  0
 12 14  2  0  0  0  0
 12 17  1  0  0  0  0
 13 18  2  0  0  0  0
 14 18  1  0  0  0  0
  4 19  1  0  0  0  0
  4 20  1  0  0  0  0
  5 21  1  0  0  0  0
  6 22  1  0  0  0  0
  7 23  1  0  0  0  0
  7 24  1  0  0  0  0
  7 25  1  0  0  0  0
  8 26  1  0  0  0  0
  8 27  1  0  0  0  0
  9 28  1  0  0  0  0
  9 29  1  0  0  0  0
 10 30  1  0  0  0  0
 10 31  1  0  0  0  0
 11 32  1  0  0  0  0
 12 33  1  0  0  0  0
 13 34  1  0  0  0  0
 14 35  1  0  0  0  0
M  END
> <pdb_id>
4ZSC

> <uniprot_id>
P30405

> <usmiles>
O=C(NCc1ccc(N)cc1)NCC(=O)OCC

$$$$
EAE_C_501
          07202411083D 1   1.00000     0.00000     0
            
 32 33  0  0  0  0            999 V2000
   21.3506   42.1292   12.0048 S   0  0  0  0  0  0  0  0  0  0  0  0
   21.9498   41.4596   14.6261 O   0  0  0  0  0  0  0  0  0  0  0  0
   19.0888   44.9144    7.3774 O   0  0  0  0  0  0  0  0  0  0  0  0
   19.6638   44.0486   12.2339 N   0  0  0  0  0  0  0  0  0  0  0  0
   18.1955   46.0221    7.5310 C   0  0  0  0  0  0  0  0  0  0  0  0
   19.4177   46.3340   13.1335 C   0  0  0  0  0  0  0  0  0  0  0  0
   21.1701   42.4570   16.6422 C   0  0  0  0  0  0  0  0  0  0  0  0
   18.7401   45.0325   12.8113 C   0  0  0  0  0  0  0  0  0  0  0  0
   21.0228   42.5584    9.2378 C   0  0  0  0  0  0  0  0  0  0  0  0
   20.4348   43.2807    8.2148 C   0  0  0  0  0  0  0  0  0  0  0  0
   20.4366   43.2198   14.3823 C   0  0  0  0  0  0  0  0  0  0  0  0
   19.3117   44.6740    9.8317 C   0  0  0  0  0  0  0  0  0  0  0  0
   20.3968   43.1964   13.0030 C   0  0  0  0  0  0  0  0  0  0  0  0
   21.2220   42.3292   15.1457 C   0  0  0  0  0  0  0  0  0  0  0  0
   20.7378   42.8827   10.5588 C   0  0  0  0  0  0  0  0  0  0  0  0
   19.5948   44.3367    8.5104 C   0  0  0  0  0  0  0  0  0  0  0  0
   19.8638   43.9153   10.8626 C   0  0  0  0  0  0  0  0  0  0  0  0
   17.9050   46.3435    6.6297 H   0  0  0  0  0  0  0  0  0  0  0  0
   17.3947   45.7342    8.0563 H   0  0  0  0  0  0  0  0  0  0  0  0
   18.6626   46.7625    8.0144 H   0  0  0  0  0  0  0  0  0  0  0  0
   18.7509   46.9695   13.5227 H   0  0  0  0  0  0  0  0  0  0  0  0
   20.1506   46.1735   13.7947 H   0  0  0  0  0  0  0  0  0  0  0  0
   19.8027   46.7253   12.2977 H   0  0  0  0  0  0  0  0  0  0  0  0
   20.5444   43.1958   16.8921 H   0  0  0  0  0  0  0  0  0  0  0  0
   20.8470   41.5979   17.0391 H   0  0  0  0  0  0  0  0  0  0  0  0
   22.0845   42.6622   16.9911 H   0  0  0  0  0  0  0  0  0  0  0  0
   18.3533   44.6549   13.6526 H   0  0  0  0  0  0  0  0  0  0  0  0
   18.0054   45.2067   12.1555 H   0  0  0  0  0  0  0  0  0  0  0  0
   21.6490   41.8075    9.0280 H   0  0  0  0  0  0  0  0  0  0  0  0
   20.6178   43.0385    7.2620 H   0  0  0  0  0  0  0  0  0  0  0  0
   19.8831   43.8995   14.8636 H   0  0  0  0  0  0  0  0  0  0  0  0
   18.7187   45.4522   10.0386 H   0  0  0  0  0  0  0  0  0  0  0  0
  1 13  1  0  0  0  0
  1 15  1  0  0  0  0
  2 14  2  0  0  0  0
  3  5  1  0  0  0  0
  3 16  1  0  0  0  0
  4  8  1  0  0  0  0
  4 13  1  0  0  0  0
  4 17  1  0  0  0  0
  6  8  1  0  0  0  0
  7 14  1  0  0  0  0
  9 10  1  0  0  0  0
  9 15  2  0  0  0  0
 10 16  2  0  0  0  0
 11 13  2  0  0  0  0
 11 14  1  0  0  0  0
 12 16  1  0  0  0  0
 12 17  2  0  0  0  0
 15 17  1  0  0  0  0
  5 18  1  0  0  0  0
  5 19  1  0  0  0  0
  5 20  1  0  0  0  0
  6 21  1  0  0  0  0
  6 22  1  0  0  0  0
  6 23  1  0  0  0  0
  7 24  1  0  0  0  0
  7 25  1  0  0  0  0
  7 26  1  0  0  0  0
  8 27  1  0  0  0  0
  8 28  1  0  0  0  0
  9 29  1  0  0  0  0
 10 30  1  0  0  0  0
 11 31  1  0  0  0  0
 12 32  1  0  0  0  0
M  END
> <pdb_id>
6YTE

> <uniprot_id>
P49759

> <usmiles>
S/1c2c(N(\C1=C\C(=O)C)CC)cc(OC)cc2

$$$$
EAR_A_935
          07192420443D 1   1.00000     0.00000     0
            
 40 42  0  0  0  0            999 V2000
    6.2863  -23.7056   45.7937 Cl  0  0  0  0  0  0  0  0  0  0  0  0
   11.0944  -18.9907   51.8619 O   0  0  0  0  0  0  0  0  0  0  0  0
    8.3341  -22.8792   55.2617 O   0  0  0  0  0  0  0  0  0  0  0  0
   12.5293  -19.4696   50.2013 O   0  0  0  0  0  0  0  0  0  0  0  0
    9.9304  -22.1160   51.1900 N   0  0  0  0  0  0  0  0  0  0  0  0
    9.1818  -22.4756   53.1865 N   0  0  0  0  0  0  0  0  0  0  0  0
   11.3543  -21.4508   53.0523 N   0  0  0  0  0  0  0  0  0  0  0  0
   10.6173  -18.4289   48.8745 C   0  0  0  0  0  0  0  0  0  0  0  0
   12.6983  -20.8395   55.0893 C   0  0  0  0  0  0  0  0  0  0  0  0
   12.0432  -18.3293   49.4384 C   0  0  0  0  0  0  0  0  0  0  0  0
   12.4455  -20.9391   52.1811 C   0  0  0  0  0  0  0  0  0  0  0  0
    8.2709  -22.9183   52.3125 C   0  0  0  0  0  0  0  0  0  0  0  0
    6.4311  -23.9757   48.4825 C   0  0  0  0  0  0  0  0  0  0  0  0
    8.1293  -22.6021   47.4577 C   0  0  0  0  0  0  0  0  0  0  0  0
    6.9914  -23.7411   49.7372 C   0  0  0  0  0  0  0  0  0  0  0  0
    8.7015  -22.3916   48.7136 C   0  0  0  0  0  0  0  0  0  0  0  0
   10.3916  -21.9094   55.2096 C   0  0  0  0  0  0  0  0  0  0  0  0
   11.9411  -19.7421   51.3847 C   0  0  0  0  0  0  0  0  0  0  0  0
    9.2636  -22.4419   54.5873 C   0  0  0  0  0  0  0  0  0  0  0  0
    6.9972  -23.4086   47.3488 C   0  0  0  0  0  0  0  0  0  0  0  0
   10.2276  -21.9692   52.4489 C   0  0  0  0  0  0  0  0  0  0  0  0
    8.7196  -22.6453   51.0847 C   0  0  0  0  0  0  0  0  0  0  0  0
   11.4439  -21.4254   54.4371 C   0  0  0  0  0  0  0  0  0  0  0  0
    8.1176  -22.9256   49.8541 C   0  0  0  0  0  0  0  0  0  0  0  0
   10.3977  -17.5918   48.3734 H   0  0  0  0  0  0  0  0  0  0  0  0
   10.5572  -19.2128   48.2565 H   0  0  0  0  0  0  0  0  0  0  0  0
    9.9689  -18.5469   49.6266 H   0  0  0  0  0  0  0  0  0  0  0  0
   12.6124  -20.8924   56.0842 H   0  0  0  0  0  0  0  0  0  0  0  0
   13.5004  -21.3597   54.7959 H   0  0  0  0  0  0  0  0  0  0  0  0
   12.8017  -19.8838   54.8139 H   0  0  0  0  0  0  0  0  0  0  0  0
   12.6648  -18.1946   48.6667 H   0  0  0  0  0  0  0  0  0  0  0  0
   12.0765  -17.5288   50.0368 H   0  0  0  0  0  0  0  0  0  0  0  0
   12.7352  -21.6600   51.5515 H   0  0  0  0  0  0  0  0  0  0  0  0
   13.2209  -20.6597   52.7474 H   0  0  0  0  0  0  0  0  0  0  0  0
    7.4089  -23.3722   52.5381 H   0  0  0  0  0  0  0  0  0  0  0  0
    5.6195  -24.5538   48.3989 H   0  0  0  0  0  0  0  0  0  0  0  0
    8.5276  -22.1786   46.6441 H   0  0  0  0  0  0  0  0  0  0  0  0
    6.5869  -24.1565   50.5520 H   0  0  0  0  0  0  0  0  0  0  0  0
    9.5394  -21.8514   48.7922 H   0  0  0  0  0  0  0  0  0  0  0  0
   10.4447  -21.8751   56.2076 H   0  0  0  0  0  0  0  0  0  0  0  0
  1 20  1  0  0  0  0
  2 18  2  0  0  0  0
  3 19  2  0  0  0  0
  4 10  1  0  0  0  0
  4 18  1  0  0  0  0
  5 21  2  0  0  0  0
  5 22  1  0  0  0  0
  6 12  1  0  0  0  0
  6 19  1  0  0  0  0
  6 21  1  0  0  0  0
  7 11  1  0  0  0  0
  7 21  1  0  0  0  0
  7 23  1  0  0  0  0
  8 10  1  0  0  0  0
  9 23  1  0  0  0  0
 11 18  1  0  0  0  0
 12 22  2  0  0  0  0
 13 15  1  0  0  0  0
 13 20  2  0  0  0  0
 14 16  2  0  0  0  0
 14 20  1  0  0  0  0
 15 24  2  0  0  0  0
 16 24  1  0  0  0  0
 17 19  1  0  0  0  0
 17 23  2  0  0  0  0
 22 24  1  0  0  0  0
  8 25  1  0  0  0  0
  8 26  1  0  0  0  0
  8 27  1  0  0  0  0
  9 28  1  0  0  0  0
  9 29  1  0  0  0  0
  9 30  1  0  0  0  0
 10 31  1  0  0  0  0
 10 32  1  0  0  0  0
 11 33  1  0  0  0  0
 11 34  1  0  0  0  0
 12 35  1  0  0  0  0
 13 36  1  0  0  0  0
 14 37  1  0  0  0  0
 15 38  1  0  0  0  0
 16 39  1  0  0  0  0
 17 40  1  0  0  0  0
M  END
> <pdb_id>
6LEH

> <uniprot_id>
Q9R1E6

> <usmiles>
Clc1ccc(cc1)C=2N=C3N(C(=O)C=C(N3CC(=O)OCC)C)C2

$$$$
EAT_A_501
          07192418093D 1   1.00000     0.00000     0
            
 32 34  0  0  0  0            999 V2000
  -24.1431    3.7400   29.2357 O   0  0  0  0  0  0  0  0  0  0  0  0
  -24.4267    0.8406   29.5396 O   0  0  0  0  0  0  0  0  0  0  0  0
  -28.3824    0.6279   29.1896 N   0  0  0  0  0  0  0  0  0  0  0  0
  -27.5823    0.4926   27.1877 N   0  0  0  0  0  0  0  0  0  0  0  0
  -26.4457    3.3092   27.6385 N   0  0  0  0  0  0  0  0  0  0  0  0
  -24.7019    4.9098   26.6683 C   0  0  0  0  0  0  0  0  0  0  0  0
  -30.8859   -1.7727   27.8314 C   0  0  0  0  0  0  0  0  0  0  0  0
  -30.3540   -1.8250   26.5489 C   0  0  0  0  0  0  0  0  0  0  0  0
  -30.2618   -0.9479   28.7863 C   0  0  0  0  0  0  0  0  0  0  0  0
  -29.2135   -1.0631   26.2867 C   0  0  0  0  0  0  0  0  0  0  0  0
  -27.4168    1.0527   28.3638 C   0  0  0  0  0  0  0  0  0  0  0  0
  -25.1244    3.4972   27.0285 C   0  0  1  0  0  0  0  0  0  0  0  0
  -29.1648   -0.2115   28.4736 C   0  0  0  0  0  0  0  0  0  0  0  0
  -28.6495   -0.2995   27.2406 C   0  0  0  0  0  0  0  0  0  0  0  0
  -24.2098    2.9157   28.1048 C   0  0  2  0  0  0  0  0  0  0  0  0
  -24.9261    1.5946   28.4002 C   0  0  2  0  0  0  0  0  0  0  0  0
  -26.3049    2.1057   28.6403 C   0  0  1  0  0  0  0  0  0  0  0  0
  -23.5367    3.3260   29.9146 H   0  0  0  0  0  0  0  0  0  0  0  0
  -24.9602    0.0012   29.6435 H   0  0  0  0  0  0  0  0  0  0  0  0
  -28.5017    0.8822   30.1493 H   0  0  0  0  0  0  0  0  0  0  0  0
  -27.1242    3.0964   26.9354 H   0  0  0  0  0  0  0  0  0  0  0  0
  -23.7874    4.8914   26.2641 H   0  0  0  0  0  0  0  0  0  0  0  0
  -25.3495    5.2937   26.0101 H   0  0  0  0  0  0  0  0  0  0  0  0
  -24.6905    5.4749   27.4932 H   0  0  0  0  0  0  0  0  0  0  0  0
  -31.6949   -2.3095   28.0709 H   0  0  0  0  0  0  0  0  0  0  0  0
  -30.7735   -2.3892   25.8378 H   0  0  0  0  0  0  0  0  0  0  0  0
  -30.6338   -0.9035   29.7134 H   0  0  0  0  0  0  0  0  0  0  0  0
  -28.8082   -1.0853   25.3728 H   0  0  0  0  0  0  0  0  0  0  0  0
  -25.0632    2.9248   26.2108 H   0  0  0  0  0  0  0  0  0  0  0  0
  -23.2954    2.7467   27.7370 H   0  0  0  0  0  0  0  0  0  0  0  0
  -24.9181    1.0169   27.5840 H   0  0  0  0  0  0  0  0  0  0  0  0
  -26.3821    2.4386   29.5801 H   0  0  0  0  0  0  0  0  0  0  0  0
  1 15  1  0  0  0  0
  2 16  1  0  0  0  0
  3 11  1  0  0  0  0
  3 13  1  0  0  0  0
  4 11  2  0  0  0  0
  4 14  1  0  0  0  0
  5 12  1  0  0  0  0
  5 17  1  0  0  0  0
  6 12  1  0  0  0  0
  7  8  2  0  0  0  0
  7  9  1  0  0  0  0
  8 10  1  0  0  0  0
  9 13  2  0  0  0  0
 10 14  2  0  0  0  0
 11 17  1  0  0  0  0
 12 15  1  0  0  0  0
 13 14  1  0  0  0  0
 15 16  1  0  0  0  0
 16 17  1  0  0  0  0
  1 18  1  0  0  0  0
  2 19  1  0  0  0  0
  3 20  1  0  0  0  0
  5 21  1  0  0  0  0
  6 22  1  0  0  0  0
  6 23  1  0  0  0  0
  6 24  1  0  0  0  0
  7 25  1  0  0  0  0
  8 26  1  0  0  0  0
  9 27  1  0  0  0  0
 10 28  1  0  0  0  0
 12 29  1  0  0  0  0
 15 30  1  0  0  0  0
 16 31  1  0  0  0  0
 17 32  1  0  0  0  0
M  END
> <pdb_id>
4J28

> <uniprot_id>
Q8A3I4

> <usmiles>
O[C@H]1[C@@H](O)[C@@H](N[C@H]1C)C2=Nc3c(N2)cccc3

$$$$
EAU_U_301
          07202413303D 1   1.00000     0.00000     0
            
 46 48  0  0  0  0            999 V2000
  -30.6430  -18.6790   -4.7650 O   0  0  0  0  0  0  0  0  0  0  0  0
  -28.3800  -17.2980    1.1010 O   0  0  0  0  0  0  0  0  0  0  0  0
  -32.4990  -20.5730   -1.6340 N   0  0  0  0  0  0  0  0  0  0  0  0
  -32.1120  -20.6540   -3.9470 N   0  0  0  0  0  0  0  0  0  0  0  0
  -28.8410  -16.7080   -5.2470 N   0  0  0  0  0  0  0  0  0  0  0  0
  -31.0230  -19.1330   -2.5920 N   0  0  0  0  0  0  0  0  0  0  0  0
  -27.4490  -16.1920   -3.4480 N   0  0  0  0  0  0  0  0  0  0  0  0
  -28.8120  -17.9070   -1.8640 N   0  0  0  0  0  0  0  0  0  0  0  0
  -25.9550  -15.5100   -1.7410 N   0  0  0  0  0  0  0  0  0  0  0  0
  -27.8000  -17.8280    2.2420 C   0  0  0  0  0  0  0  0  0  0  0  0
  -25.4150  -15.4350   -0.3850 C   0  0  0  0  0  0  0  0  0  0  0  0
  -25.2740  -14.6320   -2.6780 C   0  0  0  0  0  0  0  0  0  0  0  0
  -26.6270  -18.4590    1.8920 C   0  0  0  0  0  0  0  0  0  0  0  0
  -26.1290  -14.2570    0.2610 C   0  0  0  0  0  0  0  0  0  0  0  0
  -26.0270  -13.3120   -2.8490 C   0  0  0  0  0  0  0  0  0  0  0  0
  -25.5910  -12.9520   -0.3210 C   0  0  0  0  0  0  0  0  0  0  0  0
  -26.3590  -12.5320   -1.5690 C   0  0  0  0  0  0  0  0  0  0  0  0
  -26.4660  -18.3250    0.5290 C   0  0  0  0  0  0  0  0  0  0  0  0
  -31.8820  -20.1280   -2.7370 C   0  0  0  0  0  0  0  0  0  0  0  0
  -30.3380  -18.5740   -3.5980 C   0  0  0  0  0  0  0  0  0  0  0  0
  -28.4810  -16.8850   -3.9540 C   0  0  0  0  0  0  0  0  0  0  0  0
  -27.5400  -17.5730    0.0610 C   0  0  0  0  0  0  0  0  0  0  0  0
  -27.0440  -16.3170   -2.1500 C   0  0  0  0  0  0  0  0  0  0  0  0
  -29.1710  -17.7600   -3.1500 C   0  0  0  0  0  0  0  0  0  0  0  0
  -27.7750  -17.2200   -1.3520 C   0  0  0  0  0  0  0  0  0  0  0  0
  -32.3013  -20.1549   -0.7474 H   0  0  0  0  0  0  0  0  0  0  0  0
  -33.1572  -21.3232   -1.6974 H   0  0  0  0  0  0  0  0  0  0  0  0
  -31.6321  -20.2952   -4.7476 H   0  0  0  0  0  0  0  0  0  0  0  0
  -32.7636  -21.4056   -4.0499 H   0  0  0  0  0  0  0  0  0  0  0  0
  -29.6095  -17.2228   -5.6270 H   0  0  0  0  0  0  0  0  0  0  0  0
  -28.3385  -16.0624   -5.8221 H   0  0  0  0  0  0  0  0  0  0  0  0
  -28.1721  -17.7630    3.1679 H   0  0  0  0  0  0  0  0  0  0  0  0
  -24.4278  -15.2773   -0.4084 H   0  0  0  0  0  0  0  0  0  0  0  0
  -25.6059  -16.2790    0.1162 H   0  0  0  0  0  0  0  0  0  0  0  0
  -25.2109  -15.0885   -3.5655 H   0  0  0  0  0  0  0  0  0  0  0  0
  -24.3542  -14.4405   -2.3356 H   0  0  0  0  0  0  0  0  0  0  0  0
  -26.0031  -18.9304    2.5153 H   0  0  0  0  0  0  0  0  0  0  0  0
  -25.9701  -14.2719    1.2482 H   0  0  0  0  0  0  0  0  0  0  0  0
  -27.1104  -14.3226    0.0803 H   0  0  0  0  0  0  0  0  0  0  0  0
  -26.8899  -13.5141   -3.3122 H   0  0  0  0  0  0  0  0  0  0  0  0
  -25.4686  -12.7183   -3.4285 H   0  0  0  0  0  0  0  0  0  0  0  0
  -24.6279  -13.0764   -0.5597 H   0  0  0  0  0  0  0  0  0  0  0  0
  -25.6733  -12.2318    0.3678 H   0  0  0  0  0  0  0  0  0  0  0  0
  -27.3347  -12.6480   -1.3829 H   0  0  0  0  0  0  0  0  0  0  0  0
  -26.1646  -11.5659   -1.7388 H   0  0  0  0  0  0  0  0  0  0  0  0
  -25.7181  -18.6980   -0.0201 H   0  0  0  0  0  0  0  0  0  0  0  0
  1 20  2  0  0  0  0
  2 10  1  0  0  0  0
  2 22  1  0  0  0  0
  3 19  1  0  0  0  0
  4 19  1  0  0  0  0
  5 21  1  0  0  0  0
  6 19  2  0  0  0  0
  6 20  1  0  0  0  0
  7 21  2  0  0  0  0
  7 23  1  0  0  0  0
  8 24  2  0  0  0  0
  8 25  1  0  0  0  0
  9 11  1  0  0  0  0
  9 12  1  0  0  0  0
  9 23  1  0  0  0  0
 10 13  2  0  0  0  0
 11 14  1  0  0  0  0
 12 15  1  0  0  0  0
 13 18  1  0  0  0  0
 14 16  1  0  0  0  0
 15 17  1  0  0  0  0
 16 17  1  0  0  0  0
 18 22  2  0  0  0  0
 20 24  1  0  0  0  0
 21 24  1  0  0  0  0
 22 25  1  0  0  0  0
 23 25  2  0  0  0  0
  3 26  1  0  0  0  0
  3 27  1  0  0  0  0
  4 28  1  0  0  0  0
  4 29  1  0  0  0  0
  5 30  1  0  0  0  0
  5 31  1  0  0  0  0
 10 32  1  0  0  0  0
 11 33  1  0  0  0  0
 11 34  1  0  0  0  0
 12 35  1  0  0  0  0
 12 36  1  0  0  0  0
 13 37  1  0  0  0  0
 14 38  1  0  0  0  0
 14 39  1  0  0  0  0
 15 40  1  0  0  0  0
 15 41  1  0  0  0  0
 16 42  1  0  0  0  0
 16 43  1  0  0  0  0
 17 44  1  0  0  0  0
 17 45  1  0  0  0  0
 18 46  1  0  0  0  0
M  END
> <pdb_id>
5ZAE

> <uniprot_id>
P00749

> <usmiles>
O=C(N=C(N)N)c1nc(c(nc1N)N2CCCCCC2)C=3OC=CC3

$$$$
EB0_A_201
          07212401333D 1   1.00000     0.00000     0
            
 41 44  0  0  0  0            999 V2000
  -12.4769  -20.8647  -17.5844 S   0  0  0  0  0  0  0  0  0  0  0  0
  -18.2267  -22.3856  -14.6595 F   0  0  0  0  0  0  0  0  0  0  0  0
  -12.5283  -19.3864  -17.2019 O   0  0  0  0  0  0  0  0  0  0  0  0
  -11.0663  -21.3152  -17.9366 O   0  0  0  0  0  0  0  0  0  0  0  0
  -16.5417  -23.6505  -23.1124 O   0  0  0  0  0  0  0  0  0  0  0  0
  -13.0436  -21.8101  -16.4214 N   0  0  0  0  0  0  0  0  0  0  0  0
  -15.9685  -21.6110  -22.2408 N   0  0  0  0  0  0  0  0  0  0  0  0
  -18.0772  -20.5540  -22.5727 C   0  0  0  0  0  0  0  0  0  0  0  0
  -16.7109  -20.7105  -23.1719 C   0  0  0  0  0  0  0  0  0  0  0  0
  -13.7557  -24.7442  -19.8416 C   0  0  0  0  0  0  0  0  0  0  0  0
  -14.0832  -19.8940  -19.5793 C   0  0  0  0  0  0  0  0  0  0  0  0
  -16.5741  -20.9770  -15.6133 C   0  0  0  0  0  0  0  0  0  0  0  0
  -16.0811  -23.2415  -15.0385 C   0  0  0  0  0  0  0  0  0  0  0  0
  -13.3549  -23.5720  -19.1649 C   0  0  0  0  0  0  0  0  0  0  0  0
  -14.6311  -24.6273  -20.9367 C   0  0  0  0  0  0  0  0  0  0  0  0
  -15.2630  -20.8145  -16.0822 C   0  0  0  0  0  0  0  0  0  0  0  0
  -14.7780  -23.0642  -15.4928 C   0  0  0  0  0  0  0  0  0  0  0  0
  -14.9619  -19.9884  -20.6672 C   0  0  0  0  0  0  0  0  0  0  0  0
  -13.5279  -21.0523  -19.0221 C   0  0  0  0  0  0  0  0  0  0  0  0
  -16.9861  -22.1914  -15.0957 C   0  0  0  0  0  0  0  0  0  0  0  0
  -15.8904  -22.9585  -22.3102 C   0  0  0  0  0  0  0  0  0  0  0  0
  -14.3472  -21.8667  -16.0436 C   0  0  0  0  0  0  0  0  0  0  0  0
  -15.2125  -21.2078  -21.2125 C   0  0  0  0  0  0  0  0  0  0  0  0
  -13.8338  -22.3113  -19.6084 C   0  0  0  0  0  0  0  0  0  0  0  0
  -15.0777  -23.4152  -21.3272 C   0  0  0  0  0  0  0  0  0  0  0  0
  -14.6822  -22.3115  -20.6602 C   0  0  0  0  0  0  0  0  0  0  0  0
  -12.3933  -22.3986  -15.9410 H   0  0  0  0  0  0  0  0  0  0  0  0
  -18.6295  -19.9563  -23.1539 H   0  0  0  0  0  0  0  0  0  0  0  0
  -18.5156  -21.4501  -22.5039 H   0  0  0  0  0  0  0  0  0  0  0  0
  -17.9971  -20.1511  -21.6609 H   0  0  0  0  0  0  0  0  0  0  0  0
  -16.7730  -21.1221  -24.0811 H   0  0  0  0  0  0  0  0  0  0  0  0
  -16.2545  -19.8232  -23.2382 H   0  0  0  0  0  0  0  0  0  0  0  0
  -13.4237  -25.6406  -19.5482 H   0  0  0  0  0  0  0  0  0  0  0  0
  -13.8525  -18.9978  -19.2004 H   0  0  0  0  0  0  0  0  0  0  0  0
  -17.2150  -20.2104  -15.6533 H   0  0  0  0  0  0  0  0  0  0  0  0
  -16.3657  -24.1267  -14.6705 H   0  0  0  0  0  0  0  0  0  0  0  0
  -12.7387  -23.6292  -18.3795 H   0  0  0  0  0  0  0  0  0  0  0  0
  -14.9241  -25.4472  -21.4286 H   0  0  0  0  0  0  0  0  0  0  0  0
  -14.9791  -19.9293  -16.4507 H   0  0  0  0  0  0  0  0  0  0  0  0
  -14.1319  -23.8240  -15.4198 H   0  0  0  0  0  0  0  0  0  0  0  0
  -15.3990  -19.1688  -21.0375 H   0  0  0  0  0  0  0  0  0  0  0  0
  1  3  2  0  0  0  0
  1  4  2  0  0  0  0
  1  6  1  0  0  0  0
  1 19  1  0  0  0  0
  2 20  1  0  0  0  0
  5 21  2  0  0  0  0
  6 22  1  0  0  0  0
  7  9  1  0  0  0  0
  7 21  1  0  0  0  0
  7 23  1  0  0  0  0
  8  9  1  0  0  0  0
 10 14  1  0  0  0  0
 10 15  2  0  0  0  0
 11 18  1  0  0  0  0
 11 19  2  0  0  0  0
 12 16  1  0  0  0  0
 12 20  2  0  0  0  0
 13 17  2  0  0  0  0
 13 20  1  0  0  0  0
 14 24  2  0  0  0  0
 15 25  1  0  0  0  0
 16 22  2  0  0  0  0
 17 22  1  0  0  0  0
 18 23  2  0  0  0  0
 19 24  1  0  0  0  0
 21 25  1  0  0  0  0
 23 26  1  0  0  0  0
 24 26  1  0  0  0  0
 25 26  2  0  0  0  0
  6 27  1  0  0  0  0
  8 28  1  0  0  0  0
  8 29  1  0  0  0  0
  8 30  1  0  0  0  0
  9 31  1  0  0  0  0
  9 32  1  0  0  0  0
 10 33  1  0  0  0  0
 11 34  1  0  0  0  0
 12 35  1  0  0  0  0
 13 36  1  0  0  0  0
 14 37  1  0  0  0  0
 15 38  1  0  0  0  0
 16 39  1  0  0  0  0
 17 40  1  0  0  0  0
 18 41  1  0  0  0  0
M  END
> <pdb_id>
5CP5

> <uniprot_id>
O60885

> <usmiles>
S(=O)(=O)(Nc1ccc(F)cc1)c2c3c4c(N(C(=O)c4ccc3)CC)cc2

$$$$
EB2_A_203
          07212401333D 1   1.00000     0.00000     0
            
 50 53  0  0  0  0            999 V2000
  -12.6286  -20.4615  -16.8974 S   0  0  0  0  0  0  0  0  0  0  0  0
  -11.3301  -21.1101  -17.3338 O   0  0  0  0  0  0  0  0  0  0  0  0
  -12.6720  -19.0543  -16.7054 O   0  0  0  0  0  0  0  0  0  0  0  0
  -16.3968  -23.2355  -22.7497 O   0  0  0  0  0  0  0  0  0  0  0  0
  -13.4439  -21.3132  -15.8852 N   0  0  0  0  0  0  0  0  0  0  0  0
  -15.8243  -21.2621  -21.8606 N   0  0  0  0  0  0  0  0  0  0  0  0
  -17.9868  -20.1859  -22.3901 C   0  0  0  0  0  0  0  0  0  0  0  0
  -16.5279  -20.4043  -22.8208 C   0  0  0  0  0  0  0  0  0  0  0  0
  -16.9405  -22.1280  -13.2854 C   0  0  0  0  0  0  0  0  0  0  0  0
  -16.6969  -20.7908  -12.5623 C   0  0  0  0  0  0  0  0  0  0  0  0
  -16.9818  -21.9828  -14.8099 C   0  0  0  0  0  0  0  0  0  0  0  0
  -15.7594  -19.7975  -13.2622 C   0  0  0  0  0  0  0  0  0  0  0  0
  -13.8075  -24.3562  -19.2108 C   0  0  0  0  0  0  0  0  0  0  0  0
  -15.5909  -22.1849  -15.3048 C   0  0  0  0  0  0  0  0  0  0  0  0
  -14.5251  -20.3976  -13.8251 C   0  0  0  0  0  0  0  0  0  0  0  0
  -14.1249  -19.5448  -19.0774 C   0  0  0  0  0  0  0  0  0  0  0  0
  -14.6000  -24.2969  -20.3826 C   0  0  0  0  0  0  0  0  0  0  0  0
  -13.4511  -23.1853  -18.5242 C   0  0  0  0  0  0  0  0  0  0  0  0
  -14.8712  -19.6764  -20.2534 C   0  0  0  0  0  0  0  0  0  0  0  0
  -15.7461  -22.6026  -21.9107 C   0  0  0  0  0  0  0  0  0  0  0  0
  -13.5954  -20.6792  -18.4298 C   0  0  0  0  0  0  0  0  0  0  0  0
  -14.7375  -20.8938  -15.2871 C   0  0  0  0  0  0  0  0  0  0  0  0
  -15.1278  -20.8767  -20.7912 C   0  0  0  0  0  0  0  0  0  0  0  0
  -15.0055  -23.0682  -20.8413 C   0  0  0  0  0  0  0  0  0  0  0  0
  -13.8618  -21.9273  -19.0403 C   0  0  0  0  0  0  0  0  0  0  0  0
  -14.6460  -21.9863  -20.1596 C   0  0  0  0  0  0  0  0  0  0  0  0
  -12.8298  -21.4747  -15.1127 H   0  0  0  0  0  0  0  0  0  0  0  0
  -18.4471  -19.5998  -23.0569 H   0  0  0  0  0  0  0  0  0  0  0  0
  -18.4557  -21.0679  -22.3418 H   0  0  0  0  0  0  0  0  0  0  0  0
  -18.0070  -19.7480  -21.4913 H   0  0  0  0  0  0  0  0  0  0  0  0
  -16.5134  -20.8392  -23.7211 H   0  0  0  0  0  0  0  0  0  0  0  0
  -16.0648  -19.5194  -22.8706 H   0  0  0  0  0  0  0  0  0  0  0  0
  -17.8148  -22.5029  -12.9769 H   0  0  0  0  0  0  0  0  0  0  0  0
  -16.2035  -22.7597  -13.0449 H   0  0  0  0  0  0  0  0  0  0  0  0
  -16.3067  -20.9968  -11.6649 H   0  0  0  0  0  0  0  0  0  0  0  0
  -17.5830  -20.3422  -12.4455 H   0  0  0  0  0  0  0  0  0  0  0  0
  -17.3057  -21.0702  -15.0593 H   0  0  0  0  0  0  0  0  0  0  0  0
  -17.5900  -22.6717  -15.2041 H   0  0  0  0  0  0  0  0  0  0  0  0
  -15.4910  -19.1012  -12.5965 H   0  0  0  0  0  0  0  0  0  0  0  0
  -16.2648  -19.3668  -14.0099 H   0  0  0  0  0  0  0  0  0  0  0  0
  -13.4979  -25.2433  -18.8683 H   0  0  0  0  0  0  0  0  0  0  0  0
  -15.6351  -22.5226  -16.2450 H   0  0  0  0  0  0  0  0  0  0  0  0
  -15.1448  -22.8676  -14.7261 H   0  0  0  0  0  0  0  0  0  0  0  0
  -14.2539  -21.1738  -13.2560 H   0  0  0  0  0  0  0  0  0  0  0  0
  -13.7990  -19.7100  -13.8190 H   0  0  0  0  0  0  0  0  0  0  0  0
  -13.9655  -18.6359  -18.6919 H   0  0  0  0  0  0  0  0  0  0  0  0
  -14.8591  -25.1329  -20.8663 H   0  0  0  0  0  0  0  0  0  0  0  0
  -12.9146  -23.2360  -17.6818 H   0  0  0  0  0  0  0  0  0  0  0  0
  -15.2215  -18.8551  -20.7035 H   0  0  0  0  0  0  0  0  0  0  0  0
  -15.1667  -20.1809  -15.8417 H   0  0  0  0  0  0  0  0  0  0  0  0
  1  2  2  0  0  0  0
  1  3  2  0  0  0  0
  1  5  1  0  0  0  0
  1 21  1  0  0  0  0
  4 20  2  0  0  0  0
  5 22  1  0  0  0  0
  6  8  1  0  0  0  0
  6 20  1  0  0  0  0
  6 23  1  0  0  0  0
  7  8  1  0  0  0  0
  9 10  1  0  0  0  0
  9 11  1  0  0  0  0
 10 12  1  0  0  0  0
 11 14  1  0  0  0  0
 12 15  1  0  0  0  0
 13 17  2  0  0  0  0
 13 18  1  0  0  0  0
 14 22  1  0  0  0  0
 15 22  1  0  0  0  0
 16 19  1  0  0  0  0
 16 21  2  0  0  0  0
 17 24  1  0  0  0  0
 18 25  2  0  0  0  0
 19 23  2  0  0  0  0
 20 24  1  0  0  0  0
 21 25  1  0  0  0  0
 23 26  1  0  0  0  0
 24 26  2  0  0  0  0
 25 26  1  0  0  0  0
  5 27  1  0  0  0  0
  7 28  1  0  0  0  0
  7 29  1  0  0  0  0
  7 30  1  0  0  0  0
  8 31  1  0  0  0  0
  8 32  1  0  0  0  0
  9 33  1  0  0  0  0
  9 34  1  0  0  0  0
 10 35  1  0  0  0  0
 10 36  1  0  0  0  0
 11 37  1  0  0  0  0
 11 38  1  0  0  0  0
 12 39  1  0  0  0  0
 12 40  1  0  0  0  0
 13 41  1  0  0  0  0
 14 42  1  0  0  0  0
 14 43  1  0  0  0  0
 15 44  1  0  0  0  0
 15 45  1  0  0  0  0
 16 46  1  0  0  0  0
 17 47  1  0  0  0  0
 18 48  1  0  0  0  0
 19 49  1  0  0  0  0
 22 50  1  0  0  0  0
M  END
> <pdb_id>
5CPE

> <uniprot_id>
O60885

> <usmiles>
S(=O)(=O)(NC1CCCCCC1)c2c3c4c(N(C(=O)c4ccc3)CC)cc2

$$$$
EB3_A_201
          07212401333D 1   1.00000     0.00000     0
            
 47 50  0  0  0  0            999 V2000
  -12.6887  -20.4588  -16.9251 S   0  0  0  0  0  0  0  0  0  0  0  0
  -12.7178  -19.0309  -16.4486 O   0  0  0  0  0  0  0  0  0  0  0  0
  -11.3380  -21.0383  -17.2712 O   0  0  0  0  0  0  0  0  0  0  0  0
  -16.3641  -23.1944  -22.7353 O   0  0  0  0  0  0  0  0  0  0  0  0
  -13.2353  -21.5443  -15.6976 N   0  0  0  0  0  0  0  0  0  0  0  0
  -15.8109  -21.2451  -21.8291 N   0  0  0  0  0  0  0  0  0  0  0  0
  -17.9512  -20.1964  -22.2835 C   0  0  0  0  0  0  0  0  0  0  0  0
  -16.4872  -20.3727  -22.7603 C   0  0  0  0  0  0  0  0  0  0  0  0
  -16.7898  -21.7438  -13.3676 C   0  0  0  0  0  0  0  0  0  0  0  0
  -16.0580  -20.3663  -13.2682 C   0  0  0  0  0  0  0  0  0  0  0  0
  -16.9064  -22.2497  -14.8118 C   0  0  0  0  0  0  0  0  0  0  0  0
  -13.7848  -24.3532  -19.2146 C   0  0  0  0  0  0  0  0  0  0  0  0
  -14.6921  -20.4739  -13.8688 C   0  0  0  0  0  0  0  0  0  0  0  0
  -15.6316  -22.2384  -15.5931 C   0  0  0  0  0  0  0  0  0  0  0  0
  -14.1571  -19.5302  -19.0163 C   0  0  0  0  0  0  0  0  0  0  0  0
  -14.5577  -24.2422  -20.3972 C   0  0  0  0  0  0  0  0  0  0  0  0
  -13.4432  -23.1847  -18.5044 C   0  0  0  0  0  0  0  0  0  0  0  0
  -14.9064  -19.6482  -20.1978 C   0  0  0  0  0  0  0  0  0  0  0  0
  -15.7092  -22.5671  -21.8969 C   0  0  0  0  0  0  0  0  0  0  0  0
  -13.6398  -20.6810  -18.3914 C   0  0  0  0  0  0  0  0  0  0  0  0
  -14.4532  -21.6142  -14.8354 C   0  0  0  0  0  0  0  0  0  0  0  0
  -15.1217  -20.8528  -20.7481 C   0  0  0  0  0  0  0  0  0  0  0  0
  -14.9813  -23.0392  -20.8352 C   0  0  0  0  0  0  0  0  0  0  0  0
  -13.8799  -21.9307  -19.0065 C   0  0  0  0  0  0  0  0  0  0  0  0
  -14.6193  -21.9538  -20.1343 C   0  0  0  0  0  0  0  0  0  0  0  0
  -12.4896  -21.5240  -15.0316 H   0  0  0  0  0  0  0  0  0  0  0  0
  -18.4376  -19.5942  -22.9165 H   0  0  0  0  0  0  0  0  0  0  0  0
  -18.4031  -21.0881  -22.2579 H   0  0  0  0  0  0  0  0  0  0  0  0
  -17.9574  -19.7932  -21.3684 H   0  0  0  0  0  0  0  0  0  0  0  0
  -16.4754  -20.7787  -23.6740 H   0  0  0  0  0  0  0  0  0  0  0  0
  -16.0298  -19.4838  -22.7845 H   0  0  0  0  0  0  0  0  0  0  0  0
  -17.7096  -21.6456  -12.9878 H   0  0  0  0  0  0  0  0  0  0  0  0
  -16.2786  -22.4169  -12.8332 H   0  0  0  0  0  0  0  0  0  0  0  0
  -15.9783  -20.1013  -12.3072 H   0  0  0  0  0  0  0  0  0  0  0  0
  -16.5844  -19.6743  -13.7622 H   0  0  0  0  0  0  0  0  0  0  0  0
  -17.5678  -21.6718  -15.2900 H   0  0  0  0  0  0  0  0  0  0  0  0
  -17.2443  -23.1904  -14.7842 H   0  0  0  0  0  0  0  0  0  0  0  0
  -13.4854  -25.2497  -18.8879 H   0  0  0  0  0  0  0  0  0  0  0  0
  -14.0395  -20.5736  -13.1178 H   0  0  0  0  0  0  0  0  0  0  0  0
  -14.5097  -19.6209  -14.3579 H   0  0  0  0  0  0  0  0  0  0  0  0
  -15.7800  -21.7160  -16.4328 H   0  0  0  0  0  0  0  0  0  0  0  0
  -15.3944  -23.1818  -15.8249 H   0  0  0  0  0  0  0  0  0  0  0  0
  -13.9907  -18.6280  -18.6183 H   0  0  0  0  0  0  0  0  0  0  0  0
  -14.7918  -25.0662  -20.9133 H   0  0  0  0  0  0  0  0  0  0  0  0
  -12.9041  -23.2379  -17.6639 H   0  0  0  0  0  0  0  0  0  0  0  0
  -15.2820  -18.8293  -20.6318 H   0  0  0  0  0  0  0  0  0  0  0  0
  -14.2083  -22.3543  -14.2092 H   0  0  0  0  0  0  0  0  0  0  0  0
  1  2  2  0  0  0  0
  1  3  2  0  0  0  0
  1  5  1  0  0  0  0
  1 20  1  0  0  0  0
  4 19  2  0  0  0  0
  5 21  1  0  0  0  0
  6  8  1  0  0  0  0
  6 19  1  0  0  0  0
  6 22  1  0  0  0  0
  7  8  1  0  0  0  0
  9 10  1  0  0  0  0
  9 11  1  0  0  0  0
 10 13  1  0  0  0  0
 11 14  1  0  0  0  0
 12 16  2  0  0  0  0
 12 17  1  0  0  0  0
 13 21  1  0  0  0  0
 14 21  1  0  0  0  0
 15 18  1  0  0  0  0
 15 20  2  0  0  0  0
 16 23  1  0  0  0  0
 17 24  2  0  0  0  0
 18 22  2  0  0  0  0
 19 23  1  0  0  0  0
 20 24  1  0  0  0  0
 22 25  1  0  0  0  0
 23 25  2  0  0  0  0
 24 25  1  0  0  0  0
  5 26  1  0  0  0  0
  7 27  1  0  0  0  0
  7 28  1  0  0  0  0
  7 29  1  0  0  0  0
  8 30  1  0  0  0  0
  8 31  1  0  0  0  0
  9 32  1  0  0  0  0
  9 33  1  0  0  0  0
 10 34  1  0  0  0  0
 10 35  1  0  0  0  0
 11 36  1  0  0  0  0
 11 37  1  0  0  0  0
 12 38  1  0  0  0  0
 13 39  1  0  0  0  0
 13 40  1  0  0  0  0
 14 41  1  0  0  0  0
 14 42  1  0  0  0  0
 15 43  1  0  0  0  0
 16 44  1  0  0  0  0
 17 45  1  0  0  0  0
 18 46  1  0  0  0  0
 21 47  1  0  0  0  0
M  END
> <pdb_id>
5CQT

> <uniprot_id>
O60885

> <usmiles>
S(=O)(=O)(NC1CCCCC1)c2c3c4c(N(C(=O)c4ccc3)CC)cc2

$$$$
EB7_A_204
          07212401333D 1   1.00000     0.00000     0
            
 41 44  0  0  0  0            999 V2000
  -12.3559  -23.3348  -15.8809 Cl  0  0  0  0  0  0  0  0  0  0  0  0
  -12.5152  -20.3167  -17.1054 S   0  0  0  0  0  0  0  0  0  0  0  0
  -17.2277  -22.8285  -14.7157 F   0  0  0  0  0  0  0  0  0  0  0  0
  -12.7707  -18.8278  -17.2871 O   0  0  0  0  0  0  0  0  0  0  0  0
  -11.2824  -20.4771  -16.2177 O   0  0  0  0  0  0  0  0  0  0  0  0
  -16.6926  -23.6549  -23.0849 O   0  0  0  0  0  0  0  0  0  0  0  0
  -12.2422  -21.0433  -18.5490 N   0  0  0  0  0  0  0  0  0  0  0  0
  -16.0082  -21.5861  -22.3861 N   0  0  0  0  0  0  0  0  0  0  0  0
  -18.2404  -20.9413  -23.0834 C   0  0  0  0  0  0  0  0  0  0  0  0
  -16.7383  -20.7171  -23.2693 C   0  0  0  0  0  0  0  0  0  0  0  0
  -13.8279  -24.6939  -19.9996 C   0  0  0  0  0  0  0  0  0  0  0  0
  -15.1117  -20.4054  -16.3310 C   0  0  0  0  0  0  0  0  0  0  0  0
  -16.2367  -20.9916  -15.7645 C   0  0  0  0  0  0  0  0  0  0  0  0
  -13.6972  -19.8773  -20.0804 C   0  0  0  0  0  0  0  0  0  0  0  0
  -14.6719  -19.9710  -21.0820 C   0  0  0  0  0  0  0  0  0  0  0  0
  -14.7924  -24.5774  -21.0076 C   0  0  0  0  0  0  0  0  0  0  0  0
  -13.2562  -23.5349  -19.4615 C   0  0  0  0  0  0  0  0  0  0  0  0
  -14.9663  -22.9871  -15.2877 C   0  0  0  0  0  0  0  0  0  0  0  0
  -13.8328  -22.4043  -15.8541 C   0  0  0  0  0  0  0  0  0  0  0  0
  -13.9048  -21.1007  -16.3731 C   0  0  0  0  0  0  0  0  0  0  0  0
  -16.1669  -22.2821  -15.2430 C   0  0  0  0  0  0  0  0  0  0  0  0
  -16.0182  -22.9238  -22.3566 C   0  0  0  0  0  0  0  0  0  0  0  0
  -13.1936  -21.0472  -19.4934 C   0  0  0  0  0  0  0  0  0  0  0  0
  -15.1134  -21.1778  -21.4791 C   0  0  0  0  0  0  0  0  0  0  0  0
  -15.1608  -23.3663  -21.4399 C   0  0  0  0  0  0  0  0  0  0  0  0
  -13.6747  -22.2882  -19.9475 C   0  0  0  0  0  0  0  0  0  0  0  0
  -14.6056  -22.2772  -20.9165 C   0  0  0  0  0  0  0  0  0  0  0  0
  -11.3627  -21.4852  -18.7259 H   0  0  0  0  0  0  0  0  0  0  0  0
  -18.7463  -20.3363  -23.6983 H   0  0  0  0  0  0  0  0  0  0  0  0
  -18.4640  -21.8930  -23.2938 H   0  0  0  0  0  0  0  0  0  0  0  0
  -18.4927  -20.7411  -22.1367 H   0  0  0  0  0  0  0  0  0  0  0  0
  -16.4865  -20.9172  -24.2162 H   0  0  0  0  0  0  0  0  0  0  0  0
  -16.5152  -19.7653  -23.0591 H   0  0  0  0  0  0  0  0  0  0  0  0
  -13.5503  -25.5954  -19.6676 H   0  0  0  0  0  0  0  0  0  0  0  0
  -15.1683  -19.4816  -16.7098 H   0  0  0  0  0  0  0  0  0  0  0  0
  -17.0989  -20.4862  -15.7309 H   0  0  0  0  0  0  0  0  0  0  0  0
  -13.3626  -18.9821  -19.7859 H   0  0  0  0  0  0  0  0  0  0  0  0
  -15.0394  -19.1410  -21.5016 H   0  0  0  0  0  0  0  0  0  0  0  0
  -15.2050  -25.3977  -21.4036 H   0  0  0  0  0  0  0  0  0  0  0  0
  -12.5623  -23.5951  -18.7440 H   0  0  0  0  0  0  0  0  0  0  0  0
  -14.9171  -23.9129  -14.9130 H   0  0  0  0  0  0  0  0  0  0  0  0
  1 19  1  0  0  0  0
  2  4  2  0  0  0  0
  2  5  2  0  0  0  0
  2  7  1  0  0  0  0
  2 20  1  0  0  0  0
  3 21  1  0  0  0  0
  6 22  2  0  0  0  0
  7 23  1  0  0  0  0
  8 10  1  0  0  0  0
  8 22  1  0  0  0  0
  8 24  1  0  0  0  0
  9 10  1  0  0  0  0
 11 16  2  0  0  0  0
 11 17  1  0  0  0  0
 12 13  2  0  0  0  0
 12 20  1  0  0  0  0
 13 21  1  0  0  0  0
 14 15  1  0  0  0  0
 14 23  2  0  0  0  0
 15 24  2  0  0  0  0
 16 25  1  0  0  0  0
 17 26  2  0  0  0  0
 18 19  1  0  0  0  0
 18 21  2  0  0  0  0
 19 20  2  0  0  0  0
 22 25  1  0  0  0  0
 23 26  1  0  0  0  0
 24 27  1  0  0  0  0
 25 27  2  0  0  0  0
 26 27  1  0  0  0  0
  7 28  1  0  0  0  0
  9 29  1  0  0  0  0
  9 30  1  0  0  0  0
  9 31  1  0  0  0  0
 10 32  1  0  0  0  0
 10 33  1  0  0  0  0
 11 34  1  0  0  0  0
 12 35  1  0  0  0  0
 13 36  1  0  0  0  0
 14 37  1  0  0  0  0
 15 38  1  0  0  0  0
 16 39  1  0  0  0  0
 17 40  1  0  0  0  0
 18 41  1  0  0  0  0
M  END
> <pdb_id>
5CRZ

> <uniprot_id>
O60885

> <usmiles>
Clc1c(S(=O)(=O)Nc2c3c4c(N(C(=O)c4ccc3)CC)cc2)ccc(F)c1

$$$$
EBB_B_1901
          07212403193D 1   1.00000     0.00000     0
            
 35 37  0  0  0  0            999 V2000
  -15.1926  -98.2282   -5.3900 S   0  0  0  0  0  0  0  0  0  0  0  0
  -11.7368 -101.4197   -5.2577 O   0  0  0  0  0  0  0  0  0  0  0  0
  -16.2772  -96.2352   -6.7116 N   0  0  0  0  0  0  0  0  0  0  0  0
  -16.1439  -96.0201   -4.3334 N   0  0  0  0  0  0  0  0  0  0  0  0
  -13.3610 -100.1345   -6.1770 N   0  0  0  0  0  0  0  0  0  0  0  0
  -14.1772 -100.5073   -8.4334 N   0  0  0  0  0  0  0  0  0  0  0  0
  -12.3472 -104.1094  -11.1931 C   0  0  0  0  0  0  0  0  0  0  0  0
  -14.2060 -101.8528  -10.8635 C   0  0  0  0  0  0  0  0  0  0  0  0
  -15.1433  -98.6931   -7.1317 C   0  0  0  0  0  0  0  0  0  0  0  0
  -16.8585  -95.0291   -6.7564 C   0  0  0  0  0  0  0  0  0  0  0  0
  -16.7298  -94.8198   -4.4410 C   0  0  0  0  0  0  0  0  0  0  0  0
  -17.1126  -94.2684   -5.6399 C   0  0  0  0  0  0  0  0  0  0  0  0
  -11.5446 -103.6784   -8.8577 C   0  0  0  0  0  0  0  0  0  0  0  0
  -11.5506 -102.9902   -7.6600 C   0  0  0  0  0  0  0  0  0  0  0  0
  -15.9557  -96.6544   -5.4896 C   0  0  0  0  0  0  0  0  0  0  0  0
  -12.4546 -101.1671   -6.2211 C   0  0  0  0  0  0  0  0  0  0  0  0
  -14.1882  -99.8427   -7.2867 C   0  0  0  0  0  0  0  0  0  0  0  0
  -13.2859 -101.5531   -8.5295 C   0  0  0  0  0  0  0  0  0  0  0  0
  -12.3910 -103.3292   -9.9059 C   0  0  0  0  0  0  0  0  0  0  0  0
  -13.2759 -102.2535   -9.7451 C   0  0  0  0  0  0  0  0  0  0  0  0
  -12.4230 -101.9194   -7.4841 C   0  0  0  0  0  0  0  0  0  0  0  0
  -13.4367  -99.5810   -5.3476 H   0  0  0  0  0  0  0  0  0  0  0  0
  -13.0135 -103.7305  -11.8353 H   0  0  0  0  0  0  0  0  0  0  0  0
  -11.4308 -104.0484  -11.5888 H   0  0  0  0  0  0  0  0  0  0  0  0
  -12.5681 -105.0673  -11.0099 H   0  0  0  0  0  0  0  0  0  0  0  0
  -14.0633 -102.4562  -11.6480 H   0  0  0  0  0  0  0  0  0  0  0  0
  -15.1533 -101.9287  -10.5525 H   0  0  0  0  0  0  0  0  0  0  0  0
  -14.0177 -100.9078  -11.1312 H   0  0  0  0  0  0  0  0  0  0  0  0
  -14.8304  -97.9175   -7.6799 H   0  0  0  0  0  0  0  0  0  0  0  0
  -16.0558  -98.9686   -7.4341 H   0  0  0  0  0  0  0  0  0  0  0  0
  -17.1215  -94.6629   -7.6490 H   0  0  0  0  0  0  0  0  0  0  0  0
  -16.8972  -94.2978   -3.6047 H   0  0  0  0  0  0  0  0  0  0  0  0
  -17.5487  -93.3702   -5.6967 H   0  0  0  0  0  0  0  0  0  0  0  0
  -10.9159 -104.4472   -8.9746 H   0  0  0  0  0  0  0  0  0  0  0  0
  -10.9312 -103.2599   -6.9226 H   0  0  0  0  0  0  0  0  0  0  0  0
  1  9  1  0  0  0  0
  1 15  1  0  0  0  0
  2 16  2  0  0  0  0
  3 10  2  0  0  0  0
  3 15  1  0  0  0  0
  4 11  1  0  0  0  0
  4 15  2  0  0  0  0
  5 16  1  0  0  0  0
  5 17  1  0  0  0  0
  6 17  2  0  0  0  0
  6 18  1  0  0  0  0
  7 19  1  0  0  0  0
  8 20  1  0  0  0  0
  9 17  1  0  0  0  0
 10 12  1  0  0  0  0
 11 12  2  0  0  0  0
 13 14  1  0  0  0  0
 13 19  2  0  0  0  0
 14 21  2  0  0  0  0
 16 21  1  0  0  0  0
 18 20  2  0  0  0  0
 18 21  1  0  0  0  0
 19 20  1  0  0  0  0
  5 22  1  0  0  0  0
  7 23  1  0  0  0  0
  7 24  1  0  0  0  0
  7 25  1  0  0  0  0
  8 26  1  0  0  0  0
  8 27  1  0  0  0  0
  8 28  1  0  0  0  0
  9 29  1  0  0  0  0
  9 30  1  0  0  0  0
 10 31  1  0  0  0  0
 11 32  1  0  0  0  0
 12 33  1  0  0  0  0
 13 34  1  0  0  0  0
 14 35  1  0  0  0  0
M  END
> <pdb_id>
6FYM

> <uniprot_id>
Q460N5

> <usmiles>
S(c1ncccn1)CC2=Nc3c(ccc(c3C)C)C(=O)N2

$$$$
EBB_D_1901
          07212403193D 1   1.00000     0.00000     0
            
 35 37  0  0  0  0            999 V2000
  -15.4130  -98.3520   -5.4510 S   0  0  0  0  0  0  0  0  0  0  0  0
  -11.5000 -101.7920   -5.2280 O   0  0  0  0  0  0  0  0  0  0  0  0
  -15.9130  -96.1630   -6.9310 N   0  0  0  0  0  0  0  0  0  0  0  0
  -16.3010  -96.0960   -4.5650 N   0  0  0  0  0  0  0  0  0  0  0  0
  -13.1790 -100.4580   -5.9990 N   0  0  0  0  0  0  0  0  0  0  0  0
  -14.1500 -100.7840   -8.2010 N   0  0  0  0  0  0  0  0  0  0  0  0
  -12.0770 -103.7800  -11.4440 C   0  0  0  0  0  0  0  0  0  0  0  0
  -14.3330 -101.9990  -10.6910 C   0  0  0  0  0  0  0  0  0  0  0  0
  -14.8840  -98.8320   -7.0990 C   0  0  0  0  0  0  0  0  0  0  0  0
  -16.4140  -94.9200   -7.0160 C   0  0  0  0  0  0  0  0  0  0  0  0
  -16.7820  -94.8510   -4.7110 C   0  0  0  0  0  0  0  0  0  0  0  0
  -16.8670  -94.2060   -5.9260 C   0  0  0  0  0  0  0  0  0  0  0  0
  -11.3540 -103.7100   -9.0420 C   0  0  0  0  0  0  0  0  0  0  0  0
  -11.3840 -103.1860   -7.7620 C   0  0  0  0  0  0  0  0  0  0  0  0
  -15.8960  -96.6800   -5.6980 C   0  0  0  0  0  0  0  0  0  0  0  0
  -12.2830 -101.5050   -6.1340 C   0  0  0  0  0  0  0  0  0  0  0  0
  -14.0740 -100.1210   -7.0750 C   0  0  0  0  0  0  0  0  0  0  0  0
  -13.2590 -101.8040   -8.4080 C   0  0  0  0  0  0  0  0  0  0  0  0
  -12.2610 -103.3040  -10.0250 C   0  0  0  0  0  0  0  0  0  0  0  0
  -13.2560 -102.3670   -9.6970 C   0  0  0  0  0  0  0  0  0  0  0  0
  -12.3230 -102.2050   -7.4380 C   0  0  0  0  0  0  0  0  0  0  0  0
  -14.8376 -100.5530   -8.8894 H   0  0  0  0  0  0  0  0  0  0  0  0
  -12.8034 -103.4032  -12.0188 H   0  0  0  0  0  0  0  0  0  0  0  0
  -11.1886 -103.4736  -11.7858 H   0  0  0  0  0  0  0  0  0  0  0  0
  -12.1170 -104.7789  -11.4683 H   0  0  0  0  0  0  0  0  0  0  0  0
  -14.1763 -102.4886  -11.5488 H   0  0  0  0  0  0  0  0  0  0  0  0
  -15.2275 -102.2511  -10.3219 H   0  0  0  0  0  0  0  0  0  0  0  0
  -14.3079 -101.0137  -10.8602 H   0  0  0  0  0  0  0  0  0  0  0  0
  -14.3201  -98.1016   -7.4843 H   0  0  0  0  0  0  0  0  0  0  0  0
  -15.6919  -98.9672   -7.6726 H   0  0  0  0  0  0  0  0  0  0  0  0
  -16.4612  -94.4891   -7.9172 H   0  0  0  0  0  0  0  0  0  0  0  0
  -17.0953  -94.3658   -3.8946 H   0  0  0  0  0  0  0  0  0  0  0  0
  -17.2336  -93.2796   -6.0120 H   0  0  0  0  0  0  0  0  0  0  0  0
  -10.6648 -104.3978   -9.2701 H   0  0  0  0  0  0  0  0  0  0  0  0
  -10.7360 -103.5085   -7.0720 H   0  0  0  0  0  0  0  0  0  0  0  0
  1  9  1  0  0  0  0
  1 15  1  0  0  0  0
  2 16  2  0  0  0  0
  3 10  2  0  0  0  0
  3 15  1  0  0  0  0
  4 11  1  0  0  0  0
  4 15  2  0  0  0  0
  5 16  1  0  0  0  0
  5 17  2  0  0  0  0
  6 17  1  0  0  0  0
  6 18  1  0  0  0  0
  7 19  1  0  0  0  0
  8 20  1  0  0  0  0
  9 17  1  0  0  0  0
 10 12  1  0  0  0  0
 11 12  2  0  0  0  0
 13 14  1  0  0  0  0
 13 19  2  0  0  0  0
 14 21  2  0  0  0  0
 16 21  1  0  0  0  0
 18 20  2  0  0  0  0
 18 21  1  0  0  0  0
 19 20  1  0  0  0  0
  6 22  1  0  0  0  0
  7 23  1  0  0  0  0
  7 24  1  0  0  0  0
  7 25  1  0  0  0  0
  8 26  1  0  0  0  0
  8 27  1  0  0  0  0
  8 28  1  0  0  0  0
  9 29  1  0  0  0  0
  9 30  1  0  0  0  0
 10 31  1  0  0  0  0
 11 32  1  0  0  0  0
 12 33  1  0  0  0  0
 13 34  1  0  0  0  0
 14 35  1  0  0  0  0
M  END
> <pdb_id>
6FYM

> <uniprot_id>
Q460N5

> <usmiles>
S(c1ncccn1)CC2=NC(=O)c3c(N2)c(c(cc3)C)C

$$$$
EBI_A_201
          07202404193D 1   1.00000     0.00000     0
            
 58 63  0  0  0  0            999 V2000
  -11.7942   -0.4643   14.4047 F   0  0  0  0  0  0  0  0  0  0  0  0
  -16.4179    0.7158   10.2711 O   0  0  0  0  0  0  0  0  0  0  0  0
  -19.4936    3.2418   14.4539 N   0  0  0  0  0  0  0  0  0  0  0  0
  -19.5748    1.9043   14.6385 N   0  0  0  0  0  0  0  0  0  0  0  0
  -16.3575    6.3144    9.7422 N   0  0  0  0  0  0  0  0  0  0  0  0
  -13.9285    0.1464   13.5249 N   0  0  0  0  0  0  0  0  0  0  0  0
  -17.2477    4.5218   10.9071 N   0  0  0  0  0  0  0  0  0  0  0  0
  -14.7593    2.2723   10.7076 N   0  0  0  0  0  0  0  0  0  0  0  0
  -18.5043    4.9130   12.8968 N   0  0  0  0  0  0  0  0  0  0  0  0
  -16.8753    7.2191   10.6511 N   0  0  0  0  0  0  0  0  0  0  0  0
  -16.0194    4.1324    8.9569 N   0  0  0  0  0  0  0  0  0  0  0  0
  -17.9000    2.5624    8.6546 C   0  0  0  0  0  0  0  0  0  0  0  0
  -14.6505    0.8312   12.6007 C   0  0  0  0  0  0  0  0  0  0  0  0
  -16.8253    8.5811   10.7352 C   0  0  0  0  0  0  0  0  0  0  0  0
  -15.0787    4.5846    7.9592 C   0  0  0  0  0  0  0  0  0  0  0  0
  -17.5299    9.0219   11.8765 C   0  0  0  0  0  0  0  0  0  0  0  0
  -14.5368    3.3216    7.3221 C   0  0  0  0  0  0  0  0  0  0  0  0
  -11.8422    0.9339   12.5694 C   0  0  0  0  0  0  0  0  0  0  0  0
  -12.6002    1.6248   11.6349 C   0  0  0  0  0  0  0  0  0  0  0  0
  -18.0399    7.9038   12.5317 C   0  0  0  0  0  0  0  0  0  0  0  0
  -19.9282   -0.3616   12.5958 C   0  0  0  0  0  0  0  0  0  0  0  0
  -18.5342   -0.5083   12.0963 C   0  0  0  0  0  0  0  0  0  0  0  0
  -15.5805    2.2573    7.6564 C   0  0  0  0  0  0  0  0  0  0  0  0
  -18.3790    2.2630   12.8336 C   0  0  0  0  0  0  0  0  0  0  0  0
  -12.5544    0.1967   13.5103 C   0  0  0  0  0  0  0  0  0  0  0  0
  -16.5398    4.9852    9.8647 C   0  0  0  0  0  0  0  0  0  0  0  0
  -15.8494    1.7824   10.0378 C   0  0  0  0  0  0  0  0  0  0  0  0
  -18.7657    3.5425   13.3498 C   0  0  0  0  0  0  0  0  0  0  0  0
  -17.7776    5.3828   11.8281 C   0  0  0  0  0  0  0  0  0  0  0  0
  -14.0173    1.5969   11.6184 C   0  0  0  0  0  0  0  0  0  0  0  0
  -18.9088    1.2363   13.6724 C   0  0  0  0  0  0  0  0  0  0  0  0
  -17.6128    6.7766   11.7391 C   0  0  0  0  0  0  0  0  0  0  0  0
  -18.7749   -0.3033   13.5475 C   0  0  0  0  0  0  0  0  0  0  0  0
  -16.3723    2.7086    8.8844 C   0  0  1  0  0  0  0  0  0  0  0  0
  -19.9157    3.9211   15.0541 H   0  0  0  0  0  0  0  0  0  0  0  0
  -14.4866    3.2131   10.5062 H   0  0  0  0  0  0  0  0  0  0  0  0
  -18.9250    5.6247   13.4594 H   0  0  0  0  0  0  0  0  0  0  0  0
  -18.1384    1.5925    8.6055 H   0  0  0  0  0  0  0  0  0  0  0  0
  -18.3934    2.9890    9.4126 H   0  0  0  0  0  0  0  0  0  0  0  0
  -18.1527    3.0116    7.7976 H   0  0  0  0  0  0  0  0  0  0  0  0
  -15.6493    0.7869   12.6236 H   0  0  0  0  0  0  0  0  0  0  0  0
  -16.3580    9.1788   10.0837 H   0  0  0  0  0  0  0  0  0  0  0  0
  -14.3402    5.1073    8.3850 H   0  0  0  0  0  0  0  0  0  0  0  0
  -15.5381    5.1525    7.2762 H   0  0  0  0  0  0  0  0  0  0  0  0
  -17.6432    9.9727   12.1647 H   0  0  0  0  0  0  0  0  0  0  0  0
  -13.6476    3.0812    7.7114 H   0  0  0  0  0  0  0  0  0  0  0  0
  -14.4481    3.4332    6.3324 H   0  0  0  0  0  0  0  0  0  0  0  0
  -10.8426    0.9640   12.5668 H   0  0  0  0  0  0  0  0  0  0  0  0
  -12.1253    2.1669   10.9418 H   0  0  0  0  0  0  0  0  0  0  0  0
  -18.5845    7.8861   13.3702 H   0  0  0  0  0  0  0  0  0  0  0  0
  -20.5434   -1.1500   12.6022 H   0  0  0  0  0  0  0  0  0  0  0  0
  -20.4496    0.4664   12.3894 H   0  0  0  0  0  0  0  0  0  0  0  0
  -18.1202    0.2208   11.5513 H   0  0  0  0  0  0  0  0  0  0  0  0
  -18.2140   -1.3956   11.7641 H   0  0  0  0  0  0  0  0  0  0  0  0
  -15.1242    1.3892    7.8516 H   0  0  0  0  0  0  0  0  0  0  0  0
  -16.2012    2.1407    6.8810 H   0  0  0  0  0  0  0  0  0  0  0  0
  -17.8251    2.1128   12.0147 H   0  0  0  0  0  0  0  0  0  0  0  0
  -18.5738   -0.9484   14.2846 H   0  0  0  0  0  0  0  0  0  0  0  0
  1 25  1  0  0  0  0
  2 27  2  0  0  0  0
  3  4  1  0  0  0  0
  3 28  1  0  0  0  0
  4 31  2  0  0  0  0
  5 10  1  0  0  0  0
  5 26  2  0  0  0  0
  6 13  2  0  0  0  0
  6 25  1  0  0  0  0
  7 26  1  0  0  0  0
  7 29  2  0  0  0  0
  8 27  1  0  0  0  0
  8 30  1  0  0  0  0
  9 28  1  0  0  0  0
  9 29  1  0  0  0  0
 10 14  1  0  0  0  0
 10 32  1  0  0  0  0
 11 15  1  0  0  0  0
 11 26  1  0  0  0  0
 11 34  1  0  0  0  0
 12 34  1  0  0  0  0
 13 30  1  0  0  0  0
 14 16  2  0  0  0  0
 15 17  1  0  0  0  0
 16 20  1  0  0  0  0
 17 23  1  0  0  0  0
 18 19  1  0  0  0  0
 18 25  2  0  0  0  0
 19 30  2  0  0  0  0
 20 32  2  0  0  0  0
 21 22  1  0  0  0  0
 21 33  1  0  0  0  0
 22 33  1  0  0  0  0
 23 34  1  0  0  0  0
 24 28  2  0  0  0  0
 24 31  1  0  0  0  0
 27 34  1  0  0  0  0
 29 32  1  0  0  0  0
 31 33  1  0  0  0  0
  3 35  1  0  0  0  0
  8 36  1  0  0  0  0
  9 37  1  0  0  0  0
 12 38  1  0  0  0  0
 12 39  1  0  0  0  0
 12 40  1  0  0  0  0
 13 41  1  0  0  0  0
 14 42  1  0  0  0  0
 15 43  1  0  0  0  0
 15 44  1  0  0  0  0
 16 45  1  0  0  0  0
 17 46  1  0  0  0  0
 17 47  1  0  0  0  0
 18 48  1  0  0  0  0
 19 49  1  0  0  0  0
 20 50  1  0  0  0  0
 21 51  1  0  0  0  0
 21 52  1  0  0  0  0
 22 53  1  0  0  0  0
 22 54  1  0  0  0  0
 23 55  1  0  0  0  0
 23 56  1  0  0  0  0
 24 57  1  0  0  0  0
 33 58  1  0  0  0  0
M  END
> <pdb_id>
3I81

> <uniprot_id>
P08069

> <usmiles>
Fc1ncc(NC(=O)[C@]2(N(C3=NN4C(C(=N3)NC=5NN=C(C5)C6CC6)=CC=C4)CCC2)C)cc1

$$$$
EC0_A_201
          07212401333D 1   1.00000     0.00000     0
            
 20 21  0  0  0  0            999 V2000
  -17.9460  -20.3766  -23.5720 Cl  0  0  0  0  0  0  0  0  0  0  0  0
  -14.2959  -18.4703  -20.4645 O   0  5  0  0  0  0  0  0  0  0  0  0
  -13.7265  -19.8256  -19.0519 O   0  0  0  0  0  0  0  0  0  0  0  0
  -17.1195  -23.3294  -23.1908 O   0  0  0  0  0  0  0  0  0  0  0  0
  -15.2632  -24.1617  -21.5549 N   0  0  0  0  0  0  0  0  0  0  0  0
  -14.2685  -19.5873  -20.0785 N   0  3  0  0  0  0  0  0  0  0  0  0
  -14.3625  -24.7315  -20.7689 C   0  0  0  0  0  0  0  0  0  0  0  0
  -13.5771  -23.9390  -19.9528 C   0  0  0  0  0  0  0  0  0  0  0  0
  -13.7432  -22.5647  -19.9512 C   0  0  0  0  0  0  0  0  0  0  0  0
  -15.9405  -20.1569  -21.7210 C   0  0  0  0  0  0  0  0  0  0  0  0
  -16.6704  -21.0273  -22.5035 C   0  0  0  0  0  0  0  0  0  0  0  0
  -16.4248  -22.3902  -22.4220 C   0  0  0  0  0  0  0  0  0  0  0  0
  -15.4360  -22.8509  -21.5679 C   0  0  0  0  0  0  0  0  0  0  0  0
  -14.9524  -20.6085  -20.8604 C   0  0  0  0  0  0  0  0  0  0  0  0
  -14.6960  -21.9790  -20.7742 C   0  0  0  0  0  0  0  0  0  0  0  0
  -16.9100  -24.3030  -23.1002 H   0  0  0  0  0  0  0  0  0  0  0  0
  -14.2517  -25.7254  -20.7658 H   0  0  0  0  0  0  0  0  0  0  0  0
  -12.8878  -24.3591  -19.3626 H   0  0  0  0  0  0  0  0  0  0  0  0
  -13.1769  -21.9935  -19.3570 H   0  0  0  0  0  0  0  0  0  0  0  0
  -16.1288  -19.1763  -21.7759 H   0  0  0  0  0  0  0  0  0  0  0  0
  1 11  1  0  0  0  0
  2  6  1  0  0  0  0
  3  6  2  0  0  0  0
  4 12  1  0  0  0  0
  5  7  1  0  0  0  0
  5 13  2  0  0  0  0
  6 14  1  0  0  0  0
  7  8  2  0  0  0  0
  8  9  1  0  0  0  0
  9 15  2  0  0  0  0
 10 11  1  0  0  0  0
 10 14  2  0  0  0  0
 11 12  2  0  0  0  0
 12 13  1  0  0  0  0
 13 15  1  0  0  0  0
 14 15  1  0  0  0  0
  4 16  1  0  0  0  0
  7 17  1  0  0  0  0
  8 18  1  0  0  0  0
  9 19  1  0  0  0  0
 10 20  1  0  0  0  0
M  CHG  2   2  -1   6   1
M  END
> <pdb_id>
6LG4

> <uniprot_id>
O60885

> <usmiles>
Clc1c(O)c2ncccc2c([N+]([O-])=O)c1

$$$$
EC8_A_307
          07202409023D 1   1.00000     0.00000     0
            
 36 38  0  0  0  0            999 V2000
   -3.7033   -3.3962   16.7679 F   0  0  0  0  0  0  0  0  0  0  0  0
   -3.3450   -1.2217   14.8484 F   0  0  0  0  0  0  0  0  0  0  0  0
   -4.9757    0.1460   15.1821 F   0  0  0  0  0  0  0  0  0  0  0  0
   -3.8929   -0.6462   16.8133 F   0  0  0  0  0  0  0  0  0  0  0  0
  -10.7795   -3.9908   14.1387 O   0  0  0  0  0  0  0  0  0  0  0  0
   -7.2247   -7.4996   14.2844 O   0  0  0  0  0  0  0  0  0  0  0  0
   -9.9025   -6.3161   15.3248 O   0  0  0  0  0  0  0  0  0  0  0  0
   -6.9465   -9.9985   14.0703 O   0  0  0  0  0  0  0  0  0  0  0  0
   -7.4220   -6.5713   16.3629 N   0  0  0  0  0  0  0  0  0  0  0  0
   -8.7560   -3.0714   14.6265 N   0  0  0  0  0  0  0  0  0  0  0  0
   -7.8616   -5.3614   15.7441 N   0  0  0  0  0  0  0  0  0  0  0  0
   -5.8033  -11.2314   17.3178 C   0  0  0  0  0  0  0  0  0  0  0  0
   -5.8785  -10.0835   18.1068 C   0  0  0  0  0  0  0  0  0  0  0  0
   -6.1668  -11.1831   15.9749 C   0  0  0  0  0  0  0  0  0  0  0  0
   -6.3017   -8.8728   17.5204 C   0  0  0  0  0  0  0  0  0  0  0  0
   -5.7458   -4.3672   16.2664 C   0  0  0  0  0  0  0  0  0  0  0  0
   -6.6334   -1.9689   15.1315 C   0  0  0  0  0  0  0  0  0  0  0  0
   -9.6352   -4.0616   14.6220 C   0  0  0  0  0  0  0  0  0  0  0  0
   -7.1523   -7.5782   15.5249 C   0  0  0  0  0  0  0  0  0  0  0  0
   -9.1410   -5.3635   15.2355 C   0  0  0  0  0  0  0  0  0  0  0  0
   -4.9139   -3.2636   16.2185 C   0  0  0  0  0  0  0  0  0  0  0  0
   -6.6068   -9.9950   15.3980 C   0  0  0  0  0  0  0  0  0  0  0  0
   -7.4697   -3.0742   15.1653 C   0  0  0  0  0  0  0  0  0  0  0  0
   -7.0185   -4.2742   15.7494 C   0  0  0  0  0  0  0  0  0  0  0  0
   -6.6962   -8.8533   16.1737 C   0  0  0  0  0  0  0  0  0  0  0  0
   -5.3485   -2.0853   15.6636 C   0  0  0  0  0  0  0  0  0  0  0  0
   -4.3751   -0.9290   15.6301 C   0  0  0  0  0  0  0  0  0  0  0  0
   -7.2652   -9.1573   13.6335 H   0  0  0  0  0  0  0  0  0  0  0  0
   -7.3227   -6.6595   17.3541 H   0  0  0  0  0  0  0  0  0  0  0  0
   -9.0495   -2.2200   14.1917 H   0  0  0  0  0  0  0  0  0  0  0  0
   -5.4873  -12.0916   17.7180 H   0  0  0  0  0  0  0  0  0  0  0  0
   -5.6354  -10.1187   19.0762 H   0  0  0  0  0  0  0  0  0  0  0  0
   -6.1113  -12.0118   15.4179 H   0  0  0  0  0  0  0  0  0  0  0  0
   -6.3205   -8.0321   18.0616 H   0  0  0  0  0  0  0  0  0  0  0  0
   -5.4265   -5.2235   16.6722 H   0  0  0  0  0  0  0  0  0  0  0  0
   -6.9446   -1.1058   14.7339 H   0  0  0  0  0  0  0  0  0  0  0  0
  1 21  1  0  0  0  0
  2 27  1  0  0  0  0
  3 27  1  0  0  0  0
  4 27  1  0  0  0  0
  5 18  2  0  0  0  0
  6 19  2  0  0  0  0
  7 20  2  0  0  0  0
  8 22  1  0  0  0  0
  9 11  1  0  0  0  0
  9 19  1  0  0  0  0
 10 18  1  0  0  0  0
 10 23  1  0  0  0  0
 11 20  1  0  0  0  0
 11 24  1  0  0  0  0
 12 13  2  0  0  0  0
 12 14  1  0  0  0  0
 13 15  1  0  0  0  0
 14 22  2  0  0  0  0
 15 25  2  0  0  0  0
 16 21  1  0  0  0  0
 16 24  2  0  0  0  0
 17 23  2  0  0  0  0
 17 26  1  0  0  0  0
 18 20  1  0  0  0  0
 19 25  1  0  0  0  0
 21 26  2  0  0  0  0
 22 25  1  0  0  0  0
 23 24  1  0  0  0  0
 26 27  1  0  0  0  0
  8 28  1  0  0  0  0
  9 29  1  0  0  0  0
 10 30  1  0  0  0  0
 12 31  1  0  0  0  0
 13 32  1  0  0  0  0
 14 33  1  0  0  0  0
 15 34  1  0  0  0  0
 16 35  1  0  0  0  0
 17 36  1  0  0  0  0
M  END
> <pdb_id>
6FZ4

> <uniprot_id>
P22756

> <usmiles>
Fc1c(cc2NC(=O)C(=O)N(NC(=O)c3c(O)cccc3)c2c1)C(F)(F)F

$$$$
EDB_A_355
          07202400263D 1   1.00000     0.00000     0
            
 49 52  0  0  0  0            999 V2000
   -6.2768   -0.0042   18.0052 Cl  0  0  0  0  0  0  0  0  0  0  0  0
   -5.0939    1.6154   15.5955 Cl  0  0  0  0  0  0  0  0  0  0  0  0
    4.4177    3.2333   10.8844 S   0  0  0  0  0  0  0  0  0  0  0  0
    0.3635   11.1598   10.9231 O   0  0  0  0  0  0  0  0  0  0  0  0
   -0.3695    1.5589   15.4943 O   0  0  0  0  0  0  0  0  0  0  0  0
    1.7689    9.5104   11.4666 N   0  0  0  0  0  0  0  0  0  0  0  0
    1.8020    4.3846   12.3302 N   0  0  0  0  0  0  0  0  0  0  0  0
   -0.9936    3.3280   14.2781 N   0  0  0  0  0  0  0  0  0  0  0  0
   -2.3510    2.4723   15.8861 N   0  0  0  0  0  0  0  0  0  0  0  0
    0.6070    4.5472   13.0293 N   0  0  0  0  0  0  0  0  0  0  0  0
    5.2919    1.7712   10.5551 C   0  0  0  0  0  0  0  0  0  0  0  0
    4.5855    0.7219   11.1994 C   0  0  0  0  0  0  0  0  0  0  0  0
   -2.4351    0.7230   19.1620 C   0  0  0  0  0  0  0  0  0  0  0  0
   -0.9835    7.5437   14.5756 C   0  0  0  0  0  0  0  0  0  0  0  0
   -3.7605    0.2692   19.1820 C   0  0  0  0  0  0  0  0  0  0  0  0
    3.4372    1.0205   11.9057 C   0  0  0  0  0  0  0  0  0  0  0  0
   -1.9413    1.4573   18.0758 C   0  0  0  0  0  0  0  0  0  0  0  0
   -0.4473    6.2666   14.3860 C   0  0  0  0  0  0  0  0  0  0  0  0
   -1.0290    8.4442   13.5156 C   0  0  0  0  0  0  0  0  0  0  0  0
   -0.5550    8.9684   11.1025 C   0  0  0  0  0  0  0  0  0  0  0  0
    1.0643    2.3634   13.1788 C   0  0  0  0  0  0  0  0  0  0  0  0
   -0.1808    6.7541   11.8169 C   0  0  0  0  0  0  0  0  0  0  0  0
    0.5708    9.9788   11.1603 C   0  0  0  0  0  0  0  0  0  0  0  0
   -1.1960    2.4171   15.2330 C   0  0  0  0  0  0  0  0  0  0  0  0
   -4.5722    0.5457   18.0858 C   0  0  0  0  0  0  0  0  0  0  0  0
   -4.0710    1.2732   17.0049 C   0  0  0  0  0  0  0  0  0  0  0  0
    3.2037    2.3872   11.8188 C   0  0  0  0  0  0  0  0  0  0  0  0
    0.1530    3.3594   13.5366 C   0  0  0  0  0  0  0  0  0  0  0  0
   -2.7628    1.7155   16.9510 C   0  0  0  0  0  0  0  0  0  0  0  0
    2.0309    3.0605   12.4651 C   0  0  0  0  0  0  0  0  0  0  0  0
    0.0753    5.7858   13.1701 C   0  0  0  0  0  0  0  0  0  0  0  0
   -0.5183    8.0187   12.2851 C   0  0  0  0  0  0  0  0  0  0  0  0
    1.8920    8.5357   11.6532 H   0  0  0  0  0  0  0  0  0  0  0  0
    2.5518   10.1309   11.5117 H   0  0  0  0  0  0  0  0  0  0  0  0
   -1.7040    4.0089   14.1001 H   0  0  0  0  0  0  0  0  0  0  0  0
   -3.0046    3.1545   15.5581 H   0  0  0  0  0  0  0  0  0  0  0  0
    6.1301    1.6846   10.0165 H   0  0  0  0  0  0  0  0  0  0  0  0
    4.9149   -0.2205   11.1424 H   0  0  0  0  0  0  0  0  0  0  0  0
   -1.8329    0.5198   19.9341 H   0  0  0  0  0  0  0  0  0  0  0  0
   -1.3344    7.8103   15.4733 H   0  0  0  0  0  0  0  0  0  0  0  0
   -4.1149   -0.2413   19.9655 H   0  0  0  0  0  0  0  0  0  0  0  0
    2.8681    0.3621   12.3982 H   0  0  0  0  0  0  0  0  0  0  0  0
   -1.0026    1.8015   18.0946 H   0  0  0  0  0  0  0  0  0  0  0  0
   -0.4339    5.6488   15.1722 H   0  0  0  0  0  0  0  0  0  0  0  0
   -1.4124    9.3607   13.6293 H   0  0  0  0  0  0  0  0  0  0  0  0
   -0.4717    8.4384   10.2586 H   0  0  0  0  0  0  0  0  0  0  0  0
   -1.4282    9.4557   11.1052 H   0  0  0  0  0  0  0  0  0  0  0  0
    1.0295    1.3858   13.3860 H   0  0  0  0  0  0  0  0  0  0  0  0
   -0.1048    6.4735   10.8602 H   0  0  0  0  0  0  0  0  0  0  0  0
  1 25  1  0  0  0  0
  2 26  1  0  0  0  0
  3 11  1  0  0  0  0
  3 27  1  0  0  0  0
  4 23  2  0  0  0  0
  5 24  2  0  0  0  0
  6 23  1  0  0  0  0
  7 10  1  0  0  0  0
  7 30  2  0  0  0  0
  8 24  1  0  0  0  0
  8 28  1  0  0  0  0
  9 24  1  0  0  0  0
  9 29  1  0  0  0  0
 10 28  1  0  0  0  0
 10 31  1  0  0  0  0
 11 12  2  0  0  0  0
 12 16  1  0  0  0  0
 13 15  2  0  0  0  0
 13 17  1  0  0  0  0
 14 18  2  0  0  0  0
 14 19  1  0  0  0  0
 15 25  1  0  0  0  0
 16 27  2  0  0  0  0
 17 29  2  0  0  0  0
 18 31  1  0  0  0  0
 19 32  2  0  0  0  0
 20 23  1  0  0  0  0
 20 32  1  0  0  0  0
 21 28  2  0  0  0  0
 21 30  1  0  0  0  0
 22 31  2  0  0  0  0
 22 32  1  0  0  0  0
 25 26  2  0  0  0  0
 26 29  1  0  0  0  0
 27 30  1  0  0  0  0
  6 33  1  0  0  0  0
  6 34  1  0  0  0  0
  8 35  1  0  0  0  0
  9 36  1  0  0  0  0
 11 37  1  0  0  0  0
 12 38  1  0  0  0  0
 13 39  1  0  0  0  0
 14 40  1  0  0  0  0
 15 41  1  0  0  0  0
 16 42  1  0  0  0  0
 17 43  1  0  0  0  0
 18 44  1  0  0  0  0
 19 45  1  0  0  0  0
 20 46  1  0  0  0  0
 20 47  1  0  0  0  0
 21 48  1  0  0  0  0
 22 49  1  0  0  0  0
M  END
> <pdb_id>
3NNU

> <uniprot_id>
Q16539

> <usmiles>
Clc1c(Cl)cccc1NC(=O)NC=2N(N=C(C=3SC=CC3)C2)c4cc(ccc4)CC(=O)N

$$$$
EDD_A_355
          07202400263D 1   1.00000     0.00000     0
            
 54 56  0  0  0  0            999 V2000
   -6.3634   -0.3284   17.8716 Cl  0  0  0  0  0  0  0  0  0  0  0  0
   -5.2979    1.3210   15.4119 Cl  0  0  0  0  0  0  0  0  0  0  0  0
   -0.4548    1.5608   15.2877 O   0  0  0  0  0  0  0  0  0  0  0  0
    0.4010   10.8697   10.8198 O   0  0  0  0  0  0  0  0  0  0  0  0
    1.8295    9.2792   11.3140 N   0  0  0  0  0  0  0  0  0  0  0  0
    1.6852    4.3145   12.2438 N   0  0  0  0  0  0  0  0  0  0  0  0
   -1.1884    3.2016   14.0237 N   0  0  0  0  0  0  0  0  0  0  0  0
   -2.5425    2.5301   15.7046 N   0  0  0  0  0  0  0  0  0  0  0  0
    0.4895    4.4268   12.8987 N   0  0  0  0  0  0  0  0  0  0  0  0
    4.1023    3.4874   11.4215 C   0  0  0  0  0  0  0  0  0  0  0  0
    2.7150    1.5991   10.4648 C   0  0  0  0  0  0  0  0  0  0  0  0
    3.6643    1.3814   12.7685 C   0  0  0  0  0  0  0  0  0  0  0  0
   -2.5677    0.9659   19.0100 C   0  0  0  0  0  0  0  0  0  0  0  0
   -1.1149    7.3694   14.3395 C   0  0  0  0  0  0  0  0  0  0  0  0
   -3.8226    0.3463   19.0007 C   0  0  0  0  0  0  0  0  0  0  0  0
   -2.1326    1.6925   17.9233 C   0  0  0  0  0  0  0  0  0  0  0  0
   -0.5649    6.0930   14.2147 C   0  0  0  0  0  0  0  0  0  0  0  0
   -1.1140    8.2317   13.2513 C   0  0  0  0  0  0  0  0  0  0  0  0
   -0.5491    8.7286   10.8793 C   0  0  0  0  0  0  0  0  0  0  0  0
    0.9231    2.2782   13.0238 C   0  0  0  0  0  0  0  0  0  0  0  0
   -0.0514    6.5188   11.9515 C   0  0  0  0  0  0  0  0  0  0  0  0
   -1.3699    2.3612   15.0372 C   0  0  0  0  0  0  0  0  0  0  0  0
    0.6065    9.7075   11.0217 C   0  0  0  0  0  0  0  0  0  0  0  0
   -4.6844    0.4500   17.9001 C   0  0  0  0  0  0  0  0  0  0  0  0
   -4.2096    1.1763   16.8127 C   0  0  0  0  0  0  0  0  0  0  0  0
    0.0125    3.2550   13.3738 C   0  0  0  0  0  0  0  0  0  0  0  0
   -2.9549    1.8150   16.7960 C   0  0  0  0  0  0  0  0  0  0  0  0
    1.8944    2.9969   12.3503 C   0  0  0  0  0  0  0  0  0  0  0  0
   -0.0387    5.6250   13.0281 C   0  0  0  0  0  0  0  0  0  0  0  0
   -0.5615    7.8044   12.0553 C   0  0  0  0  0  0  0  0  0  0  0  0
    3.1049    2.3578   11.7436 C   0  0  0  0  0  0  0  0  0  0  0  0
    1.9921    8.3068   11.4811 H   0  0  0  0  0  0  0  0  0  0  0  0
    2.5875    9.9293   11.3669 H   0  0  0  0  0  0  0  0  0  0  0  0
   -1.9361    3.7994   13.7347 H   0  0  0  0  0  0  0  0  0  0  0  0
   -3.1593    3.2414   15.3673 H   0  0  0  0  0  0  0  0  0  0  0  0
    4.3440    3.9689   12.2640 H   0  0  0  0  0  0  0  0  0  0  0  0
    4.9271    3.0972   11.0123 H   0  0  0  0  0  0  0  0  0  0  0  0
    3.6831    4.1291   10.7794 H   0  0  0  0  0  0  0  0  0  0  0  0
    2.0684    0.8712   10.6931 H   0  0  0  0  0  0  0  0  0  0  0  0
    2.2894    2.2322    9.8182 H   0  0  0  0  0  0  0  0  0  0  0  0
    3.5334    1.2002   10.0511 H   0  0  0  0  0  0  0  0  0  0  0  0
    2.9897    0.6658   12.9500 H   0  0  0  0  0  0  0  0  0  0  0  0
    4.5018    0.9672   12.4119 H   0  0  0  0  0  0  0  0  0  0  0  0
    3.8689    1.8695   13.6169 H   0  0  0  0  0  0  0  0  0  0  0  0
   -1.9801    0.8804   19.8146 H   0  0  0  0  0  0  0  0  0  0  0  0
   -1.5088    7.6624   15.2107 H   0  0  0  0  0  0  0  0  0  0  0  0
   -4.1113   -0.1833   19.7983 H   0  0  0  0  0  0  0  0  0  0  0  0
   -1.2337    2.1304   17.9393 H   0  0  0  0  0  0  0  0  0  0  0  0
   -0.5517    5.4946   15.0158 H   0  0  0  0  0  0  0  0  0  0  0  0
   -1.5065    9.1480   13.3300 H   0  0  0  0  0  0  0  0  0  0  0  0
   -0.4362    8.1984   10.0390 H   0  0  0  0  0  0  0  0  0  0  0  0
   -1.4116    9.2332   10.8418 H   0  0  0  0  0  0  0  0  0  0  0  0
    0.8890    1.2964   13.2104 H   0  0  0  0  0  0  0  0  0  0  0  0
    0.3217    6.2191   11.0734 H   0  0  0  0  0  0  0  0  0  0  0  0
  1 24  1  0  0  0  0
  2 25  1  0  0  0  0
  3 22  2  0  0  0  0
  4 23  2  0  0  0  0
  5 23  1  0  0  0  0
  6  9  1  0  0  0  0
  6 28  2  0  0  0  0
  7 22  1  0  0  0  0
  7 26  1  0  0  0  0
  8 22  1  0  0  0  0
  8 27  1  0  0  0  0
  9 26  1  0  0  0  0
  9 29  1  0  0  0  0
 10 31  1  0  0  0  0
 11 31  1  0  0  0  0
 12 31  1  0  0  0  0
 13 15  2  0  0  0  0
 13 16  1  0  0  0  0
 14 17  2  0  0  0  0
 14 18  1  0  0  0  0
 15 24  1  0  0  0  0
 16 27  2  0  0  0  0
 17 29  1  0  0  0  0
 18 30  2  0  0  0  0
 19 23  1  0  0  0  0
 19 30  1  0  0  0  0
 20 26  2  0  0  0  0
 20 28  1  0  0  0  0
 21 29  2  0  0  0  0
 21 30  1  0  0  0  0
 24 25  2  0  0  0  0
 25 27  1  0  0  0  0
 28 31  1  0  0  0  0
  5 32  1  0  0  0  0
  5 33  1  0  0  0  0
  7 34  1  0  0  0  0
  8 35  1  0  0  0  0
 10 36  1  0  0  0  0
 10 37  1  0  0  0  0
 10 38  1  0  0  0  0
 11 39  1  0  0  0  0
 11 40  1  0  0  0  0
 11 41  1  0  0  0  0
 12 42  1  0  0  0  0
 12 43  1  0  0  0  0
 12 44  1  0  0  0  0
 13 45  1  0  0  0  0
 14 46  1  0  0  0  0
 15 47  1  0  0  0  0
 16 48  1  0  0  0  0
 17 49  1  0  0  0  0
 18 50  1  0  0  0  0
 19 51  1  0  0  0  0
 19 52  1  0  0  0  0
 20 53  1  0  0  0  0
 21 54  1  0  0  0  0
M  END
> <pdb_id>
3NNX

> <uniprot_id>
Q16539

> <usmiles>
Clc1c(Cl)cccc1NC(=O)NC=2N(N=C(C2)C(C)(C)C)c3cc(ccc3)CC(=O)N

$$$$
EEW_A_503
          07202402463D 1   1.00000     0.00000     0
            
 49 49  0  0  0  0            999 V2000
   64.6757   12.0178    0.6917 P   0  0  0  0  0  0  0  0  0  0  0  0
   63.4694   12.1616   -0.2047 O   0  0  0  0  0  0  0  0  0  0  0  0
   64.3320   12.1099    2.1662 O   0  0  0  0  0  0  0  0  0  0  0  0
   70.9774   14.2789   -1.5722 O   0  0  0  0  0  0  0  0  0  0  0  0
   65.3339   10.5663    0.4091 O   0  0  0  0  0  0  0  0  0  0  0  0
   68.9051   14.4640    1.8420 O   0  0  0  0  0  0  0  0  0  0  0  0
   67.5479   14.4801   -2.8716 N   0  0  0  0  0  0  0  0  0  0  0  0
   69.2635   15.6000   -0.8417 N   0  0  0  0  0  0  0  0  0  0  0  0
   64.4470    9.4613    0.2703 C   0  0  0  0  0  0  0  0  0  0  0  0
   68.0273   15.4448    4.7306 C   0  0  0  0  0  0  0  0  0  0  0  0
   71.7284   15.0161    2.2005 C   0  0  0  0  0  0  0  0  0  0  0  0
   71.2851   16.6425   -1.6361 C   0  0  0  0  0  0  0  0  0  0  0  0
   68.2013   16.2821    3.5019 C   0  0  0  0  0  0  0  0  0  0  0  0
   70.6376   15.3187    3.2235 C   0  0  0  0  0  0  0  0  0  0  0  0
   66.7600   13.7483    1.1875 C   0  0  0  0  0  0  0  0  0  0  0  0
   66.2348   13.2428   -1.1363 C   0  0  0  0  0  0  0  0  0  0  0  0
   70.4931   15.3935   -1.3615 C   0  0  0  0  0  0  0  0  0  0  0  0
   65.9651   13.1193    0.2301 C   0  0  0  0  0  0  0  0  0  0  0  0
   69.3196   15.6947    2.5386 C   0  0  0  0  0  0  0  0  0  0  0  0
   67.8325   14.6531    0.8950 C   0  0  2  0  0  0  0  0  0  0  0  0
   67.0921   14.4894   -1.4686 C   0  0  1  0  0  0  0  0  0  0  0  0
   68.3396   14.4946   -0.5161 C   0  0  1  0  0  0  0  0  0  0  0  0
   63.7545   12.0931   -1.1608 H   0  0  0  0  0  0  0  0  0  0  0  0
   68.0966   15.2970   -3.0493 H   0  0  0  0  0  0  0  0  0  0  0  0
   68.1019   13.6641   -3.0368 H   0  0  0  0  0  0  0  0  0  0  0  0
   68.9667   16.5394   -0.6705 H   0  0  0  0  0  0  0  0  0  0  0  0
   64.9751    8.6293    0.1000 H   0  0  0  0  0  0  0  0  0  0  0  0
   63.9156    9.3528    1.1104 H   0  0  0  0  0  0  0  0  0  0  0  0
   63.8273    9.6257   -0.4972 H   0  0  0  0  0  0  0  0  0  0  0  0
   67.3174   15.8458    5.3095 H   0  0  0  0  0  0  0  0  0  0  0  0
   67.7587   14.5182    4.4672 H   0  0  0  0  0  0  0  0  0  0  0  0
   68.8897   15.4109    5.2357 H   0  0  0  0  0  0  0  0  0  0  0  0
   72.5741   14.7747    2.6765 H   0  0  0  0  0  0  0  0  0  0  0  0
   71.4411   14.2519    1.6231 H   0  0  0  0  0  0  0  0  0  0  0  0
   71.8849   15.8234    1.6315 H   0  0  0  0  0  0  0  0  0  0  0  0
   70.7333   17.4443   -1.4067 H   0  0  0  0  0  0  0  0  0  0  0  0
   72.1160   16.6394   -1.0797 H   0  0  0  0  0  0  0  0  0  0  0  0
   71.5325   16.6741   -2.6045 H   0  0  0  0  0  0  0  0  0  0  0  0
   68.4639   17.2074    3.7757 H   0  0  0  0  0  0  0  0  0  0  0  0
   67.3328   16.3147    3.0072 H   0  0  0  0  0  0  0  0  0  0  0  0
   70.9339   16.0804    3.7997 H   0  0  0  0  0  0  0  0  0  0  0  0
   70.4901   14.5089    3.7913 H   0  0  0  0  0  0  0  0  0  0  0  0
   66.5677   13.5537    2.1494 H   0  0  0  0  0  0  0  0  0  0  0  0
   65.3669   13.3115   -1.6283 H   0  0  0  0  0  0  0  0  0  0  0  0
   66.7264   12.4267   -1.4400 H   0  0  0  0  0  0  0  0  0  0  0  0
   69.5210   16.3864    1.8451 H   0  0  0  0  0  0  0  0  0  0  0  0
   67.4882   15.5863    0.9981 H   0  0  0  0  0  0  0  0  0  0  0  0
   66.5504   15.3138   -1.3048 H   0  0  0  0  0  0  0  0  0  0  0  0
   68.8232   13.6232   -0.5986 H   0  0  0  0  0  0  0  0  0  0  0  0
  1  2  1  0  0  0  0
  1  3  2  0  0  0  0
  1  5  1  0  0  0  0
  1 18  1  0  0  0  0
  4 17  2  0  0  0  0
  5  9  1  0  0  0  0
  6 19  1  0  0  0  0
  6 20  1  0  0  0  0
  7 21  1  0  0  0  0
  8 17  1  0  0  0  0
  8 22  1  0  0  0  0
 10 13  1  0  0  0  0
 11 14  1  0  0  0  0
 12 17  1  0  0  0  0
 13 19  1  0  0  0  0
 14 19  1  0  0  0  0
 15 18  2  0  0  0  0
 15 20  1  0  0  0  0
 16 18  1  0  0  0  0
 16 21  1  0  0  0  0
 20 22  1  0  0  0  0
 21 22  1  0  0  0  0
  2 23  1  0  0  0  0
  7 24  1  0  0  0  0
  7 25  1  0  0  0  0
  8 26  1  0  0  0  0
  9 27  1  0  0  0  0
  9 28  1  0  0  0  0
  9 29  1  0  0  0  0
 10 30  1  0  0  0  0
 10 31  1  0  0  0  0
 10 32  1  0  0  0  0
 11 33  1  0  0  0  0
 11 34  1  0  0  0  0
 11 35  1  0  0  0  0
 12 36  1  0  0  0  0
 12 37  1  0  0  0  0
 12 38  1  0  0  0  0
 13 39  1  0  0  0  0
 13 40  1  0  0  0  0
 14 41  1  0  0  0  0
 14 42  1  0  0  0  0
 15 43  1  0  0  0  0
 16 44  1  0  0  0  0
 16 45  1  0  0  0  0
 19 46  1  0  0  0  0
 20 47  1  0  0  0  0
 21 48  1  0  0  0  0
 22 49  1  0  0  0  0
M  END
> <pdb_id>
6G01

> <uniprot_id>
C6KP13

> <usmiles>
P(=O)(OC)(O)C1=C[C@@H](OC(CC)CC)[C@H](NC(=O)C)[C@@H](N)C1

$$$$
EF2_A_202
          07212403393D 1   1.00000     0.00000     0
            
 29 31  0  0  0  0            999 V2000
   21.5815   15.6777   -7.4493 O   0  0  0  0  0  0  0  0  0  0  0  0
   25.9165   16.1511   -8.5829 O   0  0  0  0  0  0  0  0  0  0  0  0
   27.2595   18.9248   -5.6071 O   0  0  0  0  0  0  0  0  0  0  0  0
   25.5205   18.9448   -9.8381 O   0  0  0  0  0  0  0  0  0  0  0  0
   23.7319   15.9810   -8.0466 N   0  0  0  0  0  0  0  0  0  0  0  0
   26.1370   18.6929   -7.6203 N   0  0  0  0  0  0  0  0  0  0  0  0
   30.0073   21.0631   -8.4495 C   0  0  0  0  0  0  0  0  0  0  0  0
   29.4795   21.0691   -9.7327 C   0  0  0  0  0  0  0  0  0  0  0  0
   22.5891   17.7070   -6.7214 C   0  0  0  0  0  0  0  0  0  0  0  0
   29.3360   20.4507   -7.3996 C   0  0  0  0  0  0  0  0  0  0  0  0
   28.2617   20.4635  -10.0121 C   0  0  0  0  0  0  0  0  0  0  0  0
   23.6957   18.6284   -7.1966 C   0  0  0  0  0  0  0  0  0  0  0  0
   22.5698   16.3853   -7.4213 C   0  0  0  0  0  0  0  0  0  0  0  0
   24.9579   16.6057   -7.9958 C   0  0  0  0  0  0  0  0  0  0  0  0
   27.1832   19.1252   -6.7975 C   0  0  0  0  0  0  0  0  0  0  0  0
   26.3035   19.1351   -8.9371 C   0  0  0  0  0  0  0  0  0  0  0  0
   25.0198   17.8850   -7.1642 C   0  0  1  0  0  0  0  0  0  0  0  0
   28.1283   19.8512   -7.6848 C   0  0  0  0  0  0  0  0  0  0  0  0
   27.6014   19.8571   -8.9649 C   0  0  0  0  0  0  0  0  0  0  0  0
   23.6778   15.1462   -8.5944 H   0  0  0  0  0  0  0  0  0  0  0  0
   30.8865   21.5076   -8.2778 H   0  0  0  0  0  0  0  0  0  0  0  0
   29.9852   21.5177  -10.4695 H   0  0  0  0  0  0  0  0  0  0  0  0
   21.7115   18.1603   -6.8772 H   0  0  0  0  0  0  0  0  0  0  0  0
   22.7113   17.5447   -5.7423 H   0  0  0  0  0  0  0  0  0  0  0  0
   29.7137   20.4449   -6.4736 H   0  0  0  0  0  0  0  0  0  0  0  0
   27.8790   20.4671  -10.9359 H   0  0  0  0  0  0  0  0  0  0  0  0
   23.7464   19.4264   -6.5960 H   0  0  0  0  0  0  0  0  0  0  0  0
   23.5033   18.9265   -8.1315 H   0  0  0  0  0  0  0  0  0  0  0  0
   25.1997   17.6237   -6.2159 H   0  0  0  0  0  0  0  0  0  0  0  0
  1 13  2  0  0  0  0
  2 14  2  0  0  0  0
  3 15  2  0  0  0  0
  4 16  2  0  0  0  0
  5 13  1  0  0  0  0
  5 14  1  0  0  0  0
  6 15  1  0  0  0  0
  6 16  1  0  0  0  0
  6 17  1  0  0  0  0
  7  8  2  0  0  0  0
  7 10  1  0  0  0  0
  8 11  1  0  0  0  0
  9 12  1  0  0  0  0
  9 13  1  0  0  0  0
 10 18  2  0  0  0  0
 11 19  2  0  0  0  0
 12 17  1  0  0  0  0
 14 17  1  0  0  0  0
 15 18  1  0  0  0  0
 16 19  1  0  0  0  0
 18 19  1  0  0  0  0
  5 20  1  0  0  0  0
  7 21  1  0  0  0  0
  8 22  1  0  0  0  0
  9 23  1  0  0  0  0
  9 24  1  0  0  0  0
 10 25  1  0  0  0  0
 11 26  1  0  0  0  0
 12 27  1  0  0  0  0
 12 28  1  0  0  0  0
 17 29  1  0  0  0  0
M  END
> <pdb_id>
6R12

> <uniprot_id>
A4TVL0

> <usmiles>
O=C1N(C(=O)c2c1cccc2)[C@@H]3C(=O)NC(=O)CC3

$$$$
EFL_A_201
          07212401333D 1   1.00000     0.00000     0
            
 43 45  0  0  0  0            999 V2000
  -17.0403  -21.8194  -14.5583 Br  0  0  0  0  0  0  0  0  0  0  0  0
  -12.0512  -21.1620  -16.7345 S   0  0  0  0  0  0  0  0  0  0  0  0
  -12.8068  -19.9793  -17.2127 O   0  0  0  0  0  0  0  0  0  0  0  0
  -10.7208  -20.9130  -16.0731 O   0  0  0  0  0  0  0  0  0  0  0  0
  -17.0167  -23.8259  -23.1240 O   0  0  0  0  0  0  0  0  0  0  0  0
  -11.4210  -23.6332  -15.3855 O   0  0  0  0  0  0  0  0  0  0  0  0
  -15.5293  -21.6112  -20.9088 O   0  0  0  0  0  0  0  0  0  0  0  0
  -11.7211  -22.2026  -18.0184 N   0  0  0  0  0  0  0  0  0  0  0  0
  -15.6088  -24.1865  -21.4663 N   0  0  0  0  0  0  0  0  0  0  0  0
  -10.8512  -24.7603  -14.6673 C   0  0  0  0  0  0  0  0  0  0  0  0
  -16.9531  -21.0980  -22.7211 C   0  0  0  0  0  0  0  0  0  0  0  0
  -14.5031  -21.8234  -23.0847 C   0  0  0  0  0  0  0  0  0  0  0  0
  -14.8860  -23.5475  -14.1420 C   0  0  0  0  0  0  0  0  0  0  0  0
  -13.5996  -24.0440  -14.3075 C   0  0  0  0  0  0  0  0  0  0  0  0
  -12.7081  -24.0578  -19.0756 C   0  0  0  0  0  0  0  0  0  0  0  0
  -13.6726  -24.5935  -19.9549 C   0  0  0  0  0  0  0  0  0  0  0  0
  -14.4543  -21.6689  -15.5777 C   0  0  0  0  0  0  0  0  0  0  0  0
  -13.6084  -21.8572  -19.4434 C   0  0  0  0  0  0  0  0  0  0  0  0
  -15.2874  -22.3935  -14.7887 C   0  0  0  0  0  0  0  0  0  0  0  0
  -13.1446  -22.0937  -15.7296 C   0  0  0  0  0  0  0  0  0  0  0  0
  -16.1832  -23.2698  -22.3380 C   0  0  0  0  0  0  0  0  0  0  0  0
  -12.7148  -23.3013  -15.1396 C   0  0  0  0  0  0  0  0  0  0  0  0
  -14.5771  -22.3896  -20.2953 C   0  0  0  0  0  0  0  0  0  0  0  0
  -12.6890  -22.6834  -18.8165 C   0  0  0  0  0  0  0  0  0  0  0  0
  -14.6280  -23.7478  -20.5435 C   0  0  0  0  0  0  0  0  0  0  0  0
  -15.7934  -21.8154  -22.2877 C   0  0  0  0  0  0  0  0  0  0  0  0
  -10.7735  -22.4710  -18.1919 H   0  0  0  0  0  0  0  0  0  0  0  0
  -15.8853  -25.1473  -21.4902 H   0  0  0  0  0  0  0  0  0  0  0  0
   -9.8995  -24.8872  -14.9469 H   0  0  0  0  0  0  0  0  0  0  0  0
  -10.8889  -24.5825  -13.6839 H   0  0  0  0  0  0  0  0  0  0  0  0
  -11.3732  -25.5872  -14.8766 H   0  0  0  0  0  0  0  0  0  0  0  0
  -17.1052  -21.2672  -23.6948 H   0  0  0  0  0  0  0  0  0  0  0  0
  -17.7495  -21.4063  -22.2008 H   0  0  0  0  0  0  0  0  0  0  0  0
  -16.8151  -20.1191  -22.5704 H   0  0  0  0  0  0  0  0  0  0  0  0
  -14.7099  -21.9683  -24.0523 H   0  0  0  0  0  0  0  0  0  0  0  0
  -14.0359  -20.9466  -22.9714 H   0  0  0  0  0  0  0  0  0  0  0  0
  -13.9128  -22.5606  -22.7559 H   0  0  0  0  0  0  0  0  0  0  0  0
  -15.5294  -24.0305  -13.5481 H   0  0  0  0  0  0  0  0  0  0  0  0
  -13.3066  -24.8890  -13.8601 H   0  0  0  0  0  0  0  0  0  0  0  0
  -12.0394  -24.6594  -18.6386 H   0  0  0  0  0  0  0  0  0  0  0  0
  -13.6763  -25.5725  -20.1586 H   0  0  0  0  0  0  0  0  0  0  0  0
  -14.7795  -20.8442  -16.0404 H   0  0  0  0  0  0  0  0  0  0  0  0
  -13.5773  -20.8705  -19.2838 H   0  0  0  0  0  0  0  0  0  0  0  0
  1 19  1  0  0  0  0
  2  3  2  0  0  0  0
  2  4  2  0  0  0  0
  2  8  1  0  0  0  0
  2 20  1  0  0  0  0
  5 21  2  0  0  0  0
  6 10  1  0  0  0  0
  6 22  1  0  0  0  0
  7 23  1  0  0  0  0
  7 26  1  0  0  0  0
  8 24  1  0  0  0  0
  9 21  1  0  0  0  0
  9 25  1  0  0  0  0
 11 26  1  0  0  0  0
 12 26  1  0  0  0  0
 13 14  2  0  0  0  0
 13 19  1  0  0  0  0
 14 22  1  0  0  0  0
 15 16  1  0  0  0  0
 15 24  2  0  0  0  0
 16 25  2  0  0  0  0
 17 19  2  0  0  0  0
 17 20  1  0  0  0  0
 18 23  2  0  0  0  0
 18 24  1  0  0  0  0
 20 22  2  0  0  0  0
 21 26  1  0  0  0  0
 23 25  1  0  0  0  0
  8 27  1  0  0  0  0
  9 28  1  0  0  0  0
 10 29  1  0  0  0  0
 10 30  1  0  0  0  0
 10 31  1  0  0  0  0
 11 32  1  0  0  0  0
 11 33  1  0  0  0  0
 11 34  1  0  0  0  0
 12 35  1  0  0  0  0
 12 36  1  0  0  0  0
 12 37  1  0  0  0  0
 13 38  1  0  0  0  0
 14 39  1  0  0  0  0
 15 40  1  0  0  0  0
 16 41  1  0  0  0  0
 17 42  1  0  0  0  0
 18 43  1  0  0  0  0
M  END
> <pdb_id>
5Z1R

> <uniprot_id>
O60885

> <usmiles>
Brc1cc(S(=O)(=O)Nc2cc3OC(C(=O)Nc3cc2)(C)C)c(OC)cc1

$$$$
EFM_A_201
          07212401333D 1   1.00000     0.00000     0
            
 47 49  0  0  0  0            999 V2000
  -16.9841  -21.9189  -14.5527 Br  0  0  0  0  0  0  0  0  0  0  0  0
  -12.0104  -21.2873  -16.8161 S   0  0  0  0  0  0  0  0  0  0  0  0
  -12.7719  -20.1216  -17.2649 O   0  0  0  0  0  0  0  0  0  0  0  0
  -10.7319  -21.0125  -16.1292 O   0  0  0  0  0  0  0  0  0  0  0  0
  -17.0893  -23.7440  -23.1402 O   0  0  0  0  0  0  0  0  0  0  0  0
  -11.3622  -23.6932  -15.4101 O   0  0  0  0  0  0  0  0  0  0  0  0
  -12.0068  -24.8406  -18.2687 O   0  0  0  0  0  0  0  0  0  0  0  0
  -15.4114  -21.5488  -21.0413 O   0  0  0  0  0  0  0  0  0  0  0  0
  -11.7023  -22.3318  -18.1005 N   0  0  0  0  0  0  0  0  0  0  0  0
  -15.7195  -24.2192  -21.4744 N   0  0  0  0  0  0  0  0  0  0  0  0
  -10.8295  -24.8676  -14.7222 C   0  0  0  0  0  0  0  0  0  0  0  0
  -12.2555  -26.2411  -18.2084 C   0  0  0  0  0  0  0  0  0  0  0  0
  -14.5838  -21.7985  -23.2427 C   0  0  0  0  0  0  0  0  0  0  0  0
  -16.8932  -21.0070  -22.7828 C   0  0  0  0  0  0  0  0  0  0  0  0
  -14.8057  -23.6503  -14.1606 C   0  0  0  0  0  0  0  0  0  0  0  0
  -13.5119  -24.1188  -14.3177 C   0  0  0  0  0  0  0  0  0  0  0  0
  -14.4031  -21.8150  -15.6394 C   0  0  0  0  0  0  0  0  0  0  0  0
  -13.5770  -21.8733  -19.6102 C   0  0  0  0  0  0  0  0  0  0  0  0
  -13.8973  -24.6478  -19.8866 C   0  0  0  0  0  0  0  0  0  0  0  0
  -15.2189  -22.4837  -14.8206 C   0  0  0  0  0  0  0  0  0  0  0  0
  -13.0715  -22.2283  -15.8050 C   0  0  0  0  0  0  0  0  0  0  0  0
  -16.2206  -23.3212  -22.3961 C   0  0  0  0  0  0  0  0  0  0  0  0
  -12.6613  -23.4180  -15.1797 C   0  0  0  0  0  0  0  0  0  0  0  0
  -12.9192  -24.0744  -19.0318 C   0  0  0  0  0  0  0  0  0  0  0  0
  -14.5282  -22.4067  -20.4036 C   0  0  0  0  0  0  0  0  0  0  0  0
  -12.7219  -22.7131  -18.9072 C   0  0  0  0  0  0  0  0  0  0  0  0
  -14.7180  -23.7436  -20.5727 C   0  0  0  0  0  0  0  0  0  0  0  0
  -15.7827  -21.9489  -22.3637 C   0  0  0  0  0  0  0  0  0  0  0  0
  -10.7751  -22.6677  -18.2663 H   0  0  0  0  0  0  0  0  0  0  0  0
  -16.0443  -25.1644  -21.4393 H   0  0  0  0  0  0  0  0  0  0  0  0
   -9.8647  -24.9833  -14.9586 H   0  0  0  0  0  0  0  0  0  0  0  0
  -10.9180  -24.7437  -13.7339 H   0  0  0  0  0  0  0  0  0  0  0  0
  -11.3413  -25.6794  -15.0035 H   0  0  0  0  0  0  0  0  0  0  0  0
  -11.5543  -26.6803  -17.6469 H   0  0  0  0  0  0  0  0  0  0  0  0
  -13.1558  -26.4028  -17.8042 H   0  0  0  0  0  0  0  0  0  0  0  0
  -12.2311  -26.6241  -19.1319 H   0  0  0  0  0  0  0  0  0  0  0  0
  -14.8179  -22.0727  -24.1755 H   0  0  0  0  0  0  0  0  0  0  0  0
  -14.2866  -20.8437  -23.2406 H   0  0  0  0  0  0  0  0  0  0  0  0
  -13.8446  -22.3785  -22.9004 H   0  0  0  0  0  0  0  0  0  0  0  0
  -17.1965  -21.2395  -23.7069 H   0  0  0  0  0  0  0  0  0  0  0  0
  -17.6612  -21.0939  -22.1482 H   0  0  0  0  0  0  0  0  0  0  0  0
  -16.5548  -20.0661  -22.7698 H   0  0  0  0  0  0  0  0  0  0  0  0
  -15.4473  -24.1454  -13.5747 H   0  0  0  0  0  0  0  0  0  0  0  0
  -13.1954  -24.9325  -13.8302 H   0  0  0  0  0  0  0  0  0  0  0  0
  -14.7420  -21.0163  -16.1367 H   0  0  0  0  0  0  0  0  0  0  0  0
  -13.4878  -20.8807  -19.5285 H   0  0  0  0  0  0  0  0  0  0  0  0
  -13.9944  -25.6375  -19.9924 H   0  0  0  0  0  0  0  0  0  0  0  0
  1 20  1  0  0  0  0
  2  3  2  0  0  0  0
  2  4  2  0  0  0  0
  2  9  1  0  0  0  0
  2 21  1  0  0  0  0
  5 22  2  0  0  0  0
  6 11  1  0  0  0  0
  6 23  1  0  0  0  0
  7 12  1  0  0  0  0
  7 24  1  0  0  0  0
  8 25  1  0  0  0  0
  8 28  1  0  0  0  0
  9 26  1  0  0  0  0
 10 22  1  0  0  0  0
 10 27  1  0  0  0  0
 13 28  1  0  0  0  0
 14 28  1  0  0  0  0
 15 16  2  0  0  0  0
 15 20  1  0  0  0  0
 16 23  1  0  0  0  0
 17 20  2  0  0  0  0
 17 21  1  0  0  0  0
 18 25  2  0  0  0  0
 18 26  1  0  0  0  0
 19 24  1  0  0  0  0
 19 27  2  0  0  0  0
 21 23  2  0  0  0  0
 22 28  1  0  0  0  0
 24 26  2  0  0  0  0
 25 27  1  0  0  0  0
  9 29  1  0  0  0  0
 10 30  1  0  0  0  0
 11 31  1  0  0  0  0
 11 32  1  0  0  0  0
 11 33  1  0  0  0  0
 12 34  1  0  0  0  0
 12 35  1  0  0  0  0
 12 36  1  0  0  0  0
 13 37  1  0  0  0  0
 13 38  1  0  0  0  0
 13 39  1  0  0  0  0
 14 40  1  0  0  0  0
 14 41  1  0  0  0  0
 14 42  1  0  0  0  0
 15 43  1  0  0  0  0
 16 44  1  0  0  0  0
 17 45  1  0  0  0  0
 18 46  1  0  0  0  0
 19 47  1  0  0  0  0
M  END
> <pdb_id>
5Z1S

> <uniprot_id>
O60885

> <usmiles>
Brc1cc(S(=O)(=O)Nc2c(OC)cc3NC(=O)C(Oc3c2)(C)C)c(OC)cc1

$$$$
EFN_A_201
          07212401333D 1   1.00000     0.00000     0
            
 44 46  0  0  0  0            999 V2000
  -17.0382  -21.8807  -14.5990 Br  0  0  0  0  0  0  0  0  0  0  0  0
  -12.0554  -21.2709  -16.8115 S   0  0  0  0  0  0  0  0  0  0  0  0
  -12.8283  -20.1263  -17.2702 O   0  0  0  0  0  0  0  0  0  0  0  0
  -10.7778  -20.9564  -16.0946 O   0  0  0  0  0  0  0  0  0  0  0  0
  -17.0906  -23.7876  -23.1442 O   0  0  0  0  0  0  0  0  0  0  0  0
  -11.9893  -24.9395  -18.3965 O   0  0  0  0  0  0  0  0  0  0  0  0
  -11.3803  -23.7022  -15.4141 O   0  0  0  0  0  0  0  0  0  0  0  0
  -15.4733  -21.5857  -20.9831 O   0  0  0  0  0  0  0  0  0  0  0  0
  -11.7248  -22.3041  -18.0735 N   0  0  0  0  0  0  0  0  0  0  0  0
  -15.6893  -24.2590  -21.4929 N   0  0  0  0  0  0  0  0  0  0  0  0
  -10.8802  -24.8937  -14.7770 C   0  0  0  0  0  0  0  0  0  0  0  0
  -14.5596  -21.7269  -23.1780 C   0  0  0  0  0  0  0  0  0  0  0  0
  -16.9259  -21.0258  -22.7377 C   0  0  0  0  0  0  0  0  0  0  0  0
  -14.8457  -23.6492  -14.1563 C   0  0  0  0  0  0  0  0  0  0  0  0
  -13.5351  -24.0956  -14.3230 C   0  0  0  0  0  0  0  0  0  0  0  0
  -14.4348  -21.8002  -15.6245 C   0  0  0  0  0  0  0  0  0  0  0  0
  -13.8505  -24.6709  -19.9388 C   0  0  0  0  0  0  0  0  0  0  0  0
  -13.6293  -21.8760  -19.5332 C   0  0  0  0  0  0  0  0  0  0  0  0
  -15.2748  -22.5065  -14.8247 C   0  0  0  0  0  0  0  0  0  0  0  0
  -13.0970  -22.2062  -15.7775 C   0  0  0  0  0  0  0  0  0  0  0  0
  -16.2201  -23.3753  -22.3825 C   0  0  0  0  0  0  0  0  0  0  0  0
  -12.8867  -24.1085  -19.0808 C   0  0  0  0  0  0  0  0  0  0  0  0
  -12.6858  -23.3968  -15.1729 C   0  0  0  0  0  0  0  0  0  0  0  0
  -14.5638  -22.4343  -20.3505 C   0  0  0  0  0  0  0  0  0  0  0  0
  -12.7447  -22.7331  -18.8641 C   0  0  0  0  0  0  0  0  0  0  0  0
  -14.7026  -23.7710  -20.5915 C   0  0  0  0  0  0  0  0  0  0  0  0
  -15.7905  -21.9686  -22.3413 C   0  0  0  0  0  0  0  0  0  0  0  0
  -11.3042  -24.5408  -17.7868 H   0  0  0  0  0  0  0  0  0  0  0  0
  -10.7876  -22.6059  -18.2483 H   0  0  0  0  0  0  0  0  0  0  0  0
  -15.9819  -25.2151  -21.4740 H   0  0  0  0  0  0  0  0  0  0  0  0
   -9.9187  -25.0229  -15.0196 H   0  0  0  0  0  0  0  0  0  0  0  0
  -10.9641  -24.8014  -13.7848 H   0  0  0  0  0  0  0  0  0  0  0  0
  -11.4106  -25.6837  -15.0843 H   0  0  0  0  0  0  0  0  0  0  0  0
  -14.7458  -21.9825  -24.1266 H   0  0  0  0  0  0  0  0  0  0  0  0
  -14.3128  -20.7587  -23.1359 H   0  0  0  0  0  0  0  0  0  0  0  0
  -13.8037  -22.2791  -22.8262 H   0  0  0  0  0  0  0  0  0  0  0  0
  -17.2111  -21.2233  -23.6756 H   0  0  0  0  0  0  0  0  0  0  0  0
  -17.7003  -21.1580  -22.1190 H   0  0  0  0  0  0  0  0  0  0  0  0
  -16.6093  -20.0791  -22.6779 H   0  0  0  0  0  0  0  0  0  0  0  0
  -15.4741  -24.1479  -13.5593 H   0  0  0  0  0  0  0  0  0  0  0  0
  -13.2107  -24.9075  -13.8377 H   0  0  0  0  0  0  0  0  0  0  0  0
  -14.7682  -20.9895  -16.1058 H   0  0  0  0  0  0  0  0  0  0  0  0
  -13.9230  -25.6590  -20.0749 H   0  0  0  0  0  0  0  0  0  0  0  0
  -13.5754  -20.8846  -19.4139 H   0  0  0  0  0  0  0  0  0  0  0  0
  1 19  1  0  0  0  0
  2  3  2  0  0  0  0
  2  4  2  0  0  0  0
  2  9  1  0  0  0  0
  2 20  1  0  0  0  0
  5 21  2  0  0  0  0
  6 22  1  0  0  0  0
  7 11  1  0  0  0  0
  7 23  1  0  0  0  0
  8 24  1  0  0  0  0
  8 27  1  0  0  0  0
  9 25  1  0  0  0  0
 10 21  1  0  0  0  0
 10 26  1  0  0  0  0
 12 27  1  0  0  0  0
 13 27  1  0  0  0  0
 14 15  2  0  0  0  0
 14 19  1  0  0  0  0
 15 23  1  0  0  0  0
 16 19  2  0  0  0  0
 16 20  1  0  0  0  0
 17 22  1  0  0  0  0
 17 26  2  0  0  0  0
 18 24  2  0  0  0  0
 18 25  1  0  0  0  0
 20 23  2  0  0  0  0
 21 27  1  0  0  0  0
 22 25  2  0  0  0  0
 24 26  1  0  0  0  0
  6 28  1  0  0  0  0
  9 29  1  0  0  0  0
 10 30  1  0  0  0  0
 11 31  1  0  0  0  0
 11 32  1  0  0  0  0
 11 33  1  0  0  0  0
 12 34  1  0  0  0  0
 12 35  1  0  0  0  0
 12 36  1  0  0  0  0
 13 37  1  0  0  0  0
 13 38  1  0  0  0  0
 13 39  1  0  0  0  0
 14 40  1  0  0  0  0
 15 41  1  0  0  0  0
 16 42  1  0  0  0  0
 17 43  1  0  0  0  0
 18 44  1  0  0  0  0
M  END
> <pdb_id>
5Z1T

> <uniprot_id>
O60885

> <usmiles>
Brc1cc(S(=O)(=O)Nc2c(O)cc3NC(=O)C(Oc3c2)(C)C)c(OC)cc1

$$$$
EFQ_A_999
          07192421083D 1   1.00000     0.00000     0
            
 41 43  0  0  0  0            999 V2000
    2.5059   26.8229    8.0729 O   0  0  0  0  0  0  0  0  0  0  0  0
   -3.1767   28.8842   10.4456 O   0  0  0  0  0  0  0  0  0  0  0  0
    4.7418   23.1164    2.9442 O   0  0  0  0  0  0  0  0  0  0  0  0
    1.8184   30.6397    6.5036 N   0  0  0  0  0  0  0  0  0  0  0  0
    3.1233   28.5607    6.7093 N   0  0  0  0  0  0  0  0  0  0  0  0
   -0.0634   30.1319    7.5335 N   0  0  0  0  0  0  0  0  0  0  0  0
    5.9485   23.1695    2.1769 C   0  0  0  0  0  0  0  0  0  0  0  0
    0.6242   31.0849    6.8786 C   0  0  0  0  0  0  0  0  0  0  0  0
    0.7138   29.0311    7.6049 C   0  0  0  0  0  0  0  0  0  0  0  0
    4.5442   23.6667    5.2475 C   0  0  0  0  0  0  0  0  0  0  0  0
    4.9976   25.4475    3.7200 C   0  0  0  0  0  0  0  0  0  0  0  0
    4.5233   24.5949    6.2719 C   0  0  0  0  0  0  0  0  0  0  0  0
    4.9758   26.3836    4.7412 C   0  0  0  0  0  0  0  0  0  0  0  0
    4.7407   26.9041    7.1897 C   0  0  0  0  0  0  0  0  0  0  0  0
   -2.4091   29.2695    8.0588 C   0  0  0  0  0  0  0  0  0  0  0  0
   -1.4405   30.3822    9.6039 C   0  0  0  0  0  0  0  0  0  0  0  0
    3.3296   27.4069    7.3746 C   0  0  0  0  0  0  0  0  0  0  0  0
    1.9140   29.3608    6.9404 C   0  0  0  0  0  0  0  0  0  0  0  0
   -2.8924   29.8325    9.4155 C   0  0  0  0  0  0  0  0  0  0  0  0
    4.7507   24.0962    3.9479 C   0  0  0  0  0  0  0  0  0  0  0  0
   -1.3754   30.4240    8.0284 C   0  0  0  0  0  0  0  0  0  0  0  0
    4.7440   25.9392    6.0471 C   0  0  0  0  0  0  0  0  0  0  0  0
   -3.4782   29.3661   11.2684 H   0  0  0  0  0  0  0  0  0  0  0  0
    3.8040   28.8766    6.0484 H   0  0  0  0  0  0  0  0  0  0  0  0
    5.9238   22.4650    1.4677 H   0  0  0  0  0  0  0  0  0  0  0  0
    6.0325   24.0698    1.7498 H   0  0  0  0  0  0  0  0  0  0  0  0
    6.7324   23.0109    2.7772 H   0  0  0  0  0  0  0  0  0  0  0  0
    0.2815   32.0068    6.6980 H   0  0  0  0  0  0  0  0  0  0  0  0
    0.4857   28.1600    8.0397 H   0  0  0  0  0  0  0  0  0  0  0  0
    4.4115   22.6951    5.4434 H   0  0  0  0  0  0  0  0  0  0  0  0
    5.1972   25.7523    2.7887 H   0  0  0  0  0  0  0  0  0  0  0  0
    4.3427   24.2829    7.2046 H   0  0  0  0  0  0  0  0  0  0  0  0
    5.1224   27.3540    4.5492 H   0  0  0  0  0  0  0  0  0  0  0  0
    5.0486   26.4442    8.0226 H   0  0  0  0  0  0  0  0  0  0  0  0
    5.3501   27.6709    6.9876 H   0  0  0  0  0  0  0  0  0  0  0  0
   -3.0905   29.3000    7.3275 H   0  0  0  0  0  0  0  0  0  0  0  0
   -2.0106   28.3535    8.1050 H   0  0  0  0  0  0  0  0  0  0  0  0
   -0.8008   29.7472   10.0368 H   0  0  0  0  0  0  0  0  0  0  0  0
   -1.3809   31.2736   10.0533 H   0  0  0  0  0  0  0  0  0  0  0  0
   -3.5842   30.5493    9.3284 H   0  0  0  0  0  0  0  0  0  0  0  0
   -1.7517   31.2691    7.6488 H   0  0  0  0  0  0  0  0  0  0  0  0
  1 17  2  0  0  0  0
  2 19  1  0  0  0  0
  3  7  1  0  0  0  0
  3 20  1  0  0  0  0
  4  8  2  0  0  0  0
  4 18  1  0  0  0  0
  5 17  1  0  0  0  0
  5 18  1  0  0  0  0
  6  8  1  0  0  0  0
  6  9  1  0  0  0  0
  6 21  1  0  0  0  0
  9 18  2  0  0  0  0
 10 12  2  0  0  0  0
 10 20  1  0  0  0  0
 11 13  1  0  0  0  0
 11 20  2  0  0  0  0
 12 22  1  0  0  0  0
 13 22  2  0  0  0  0
 14 17  1  0  0  0  0
 14 22  1  0  0  0  0
 15 19  1  0  0  0  0
 15 21  1  0  0  0  0
 16 19  1  0  0  0  0
 16 21  1  0  0  0  0
  2 23  1  0  0  0  0
  5 24  1  0  0  0  0
  7 25  1  0  0  0  0
  7 26  1  0  0  0  0
  7 27  1  0  0  0  0
  8 28  1  0  0  0  0
  9 29  1  0  0  0  0
 10 30  1  0  0  0  0
 11 31  1  0  0  0  0
 12 32  1  0  0  0  0
 13 33  1  0  0  0  0
 14 34  1  0  0  0  0
 14 35  1  0  0  0  0
 15 36  1  0  0  0  0
 15 37  1  0  0  0  0
 16 38  1  0  0  0  0
 16 39  1  0  0  0  0
 19 40  1  0  0  0  0
 21 41  1  0  0  0  0
M  END
> <pdb_id>
3IGG

> <uniprot_id>
P24941

> <usmiles>
O=C(NC=1N=CN(C1)C2CC(O)C2)Cc3ccc(OC)cc3

$$$$
EFU_A_301
          07192420423D 1   1.00000     0.00000     0
            
 52 55  0  0  0  0            999 V2000
   66.2118   34.3217   21.5613 O   0  0  0  0  0  0  0  0  0  0  0  0
   64.2544   34.0810   24.0278 O   0  0  0  0  0  0  0  0  0  0  0  0
   67.2147   32.3095   27.4709 N   0  0  0  0  0  0  0  0  0  0  0  0
   68.6071   32.3673   27.5607 N   0  0  0  0  0  0  0  0  0  0  0  0
   66.8431   36.3037   22.4291 N   0  0  0  0  0  0  0  0  0  0  0  0
   66.7545   36.9545   21.1100 C   0  0  0  0  0  0  0  0  0  0  0  0
   72.6215   29.1929   24.1030 C   0  0  0  0  0  0  0  0  0  0  0  0
   67.1630   37.1940   23.5690 C   0  0  0  0  0  0  0  0  0  0  0  0
   71.1649   37.2808   25.1339 C   0  0  0  0  0  0  0  0  0  0  0  0
   70.9668   37.0140   23.7794 C   0  0  0  0  0  0  0  0  0  0  0  0
   70.0696   37.5053   25.9643 C   0  0  0  0  0  0  0  0  0  0  0  0
   72.3802   32.7644   22.9510 C   0  0  0  0  0  0  0  0  0  0  0  0
   72.6772   31.4073   22.9649 C   0  0  0  0  0  0  0  0  0  0  0  0
   69.6825   36.9865   23.2363 C   0  0  0  0  0  0  0  0  0  0  0  0
   68.7853   37.4788   25.4252 C   0  0  0  0  0  0  0  0  0  0  0  0
   71.6577   33.3365   24.0064 C   0  0  0  0  0  0  0  0  0  0  0  0
   65.5619   33.1549   25.7483 C   0  0  0  0  0  0  0  0  0  0  0  0
   70.5853   33.2015   26.2789 C   0  0  0  0  0  0  0  0  0  0  0  0
   71.5813   31.2033   25.1285 C   0  0  0  0  0  0  0  0  0  0  0  0
   67.9208   33.9595   24.3846 C   0  0  0  0  0  0  0  0  0  0  0  0
   66.5464   34.9689   22.5503 C   0  0  0  0  0  0  0  0  0  0  0  0
   65.4788   33.8607   24.5612 C   0  0  0  0  0  0  0  0  0  0  0  0
   66.8212   32.8964   26.3045 C   0  0  0  0  0  0  0  0  0  0  0  0
   69.1186   32.8970   26.4823 C   0  0  0  0  0  0  0  0  0  0  0  0
   72.2878   30.6442   24.0641 C   0  0  0  0  0  0  0  0  0  0  0  0
   68.5862   37.2180   24.0677 C   0  0  0  0  0  0  0  0  0  0  0  0
   71.2563   32.5575   25.0916 C   0  0  0  0  0  0  0  0  0  0  0  0
   66.6467   34.2421   23.8504 C   0  0  0  0  0  0  0  0  0  0  0  0
   68.0063   33.3188   25.6317 C   0  0  0  0  0  0  0  0  0  0  0  0
   64.1664   34.5884   23.1706 H   0  0  0  0  0  0  0  0  0  0  0  0
   66.6049   31.9034   28.1516 H   0  0  0  0  0  0  0  0  0  0  0  0
   66.5357   36.2700   20.4146 H   0  0  0  0  0  0  0  0  0  0  0  0
   66.0373   37.6510   21.1294 H   0  0  0  0  0  0  0  0  0  0  0  0
   67.6305   37.3841   20.8908 H   0  0  0  0  0  0  0  0  0  0  0  0
   72.2746   28.7937   24.9516 H   0  0  0  0  0  0  0  0  0  0  0  0
   72.2000   28.7329   23.3215 H   0  0  0  0  0  0  0  0  0  0  0  0
   73.6141   29.0779   24.0618 H   0  0  0  0  0  0  0  0  0  0  0  0
   66.5835   36.9167   24.3353 H   0  0  0  0  0  0  0  0  0  0  0  0
   66.9281   38.1263   23.2938 H   0  0  0  0  0  0  0  0  0  0  0  0
   72.0917   37.3110   25.5082 H   0  0  0  0  0  0  0  0  0  0  0  0
   71.7558   36.8401   23.1901 H   0  0  0  0  0  0  0  0  0  0  0  0
   70.2039   37.6839   26.9390 H   0  0  0  0  0  0  0  0  0  0  0  0
   72.6825   33.3338   22.1866 H   0  0  0  0  0  0  0  0  0  0  0  0
   73.1622   30.9851   22.1990 H   0  0  0  0  0  0  0  0  0  0  0  0
   69.5489   36.8031   22.2624 H   0  0  0  0  0  0  0  0  0  0  0  0
   67.9971   37.6485   26.0168 H   0  0  0  0  0  0  0  0  0  0  0  0
   71.4284   34.3095   23.9815 H   0  0  0  0  0  0  0  0  0  0  0  0
   64.7321   32.8328   26.2041 H   0  0  0  0  0  0  0  0  0  0  0  0
   71.0726   32.9037   27.0998 H   0  0  0  0  0  0  0  0  0  0  0  0
   70.6772   34.1921   26.1776 H   0  0  0  0  0  0  0  0  0  0  0  0
   71.3113   30.6390   25.9087 H   0  0  0  0  0  0  0  0  0  0  0  0
   68.7493   34.2111   23.8842 H   0  0  0  0  0  0  0  0  0  0  0  0
  1 21  2  0  0  0  0
  2 22  1  0  0  0  0
  3  4  1  0  0  0  0
  3 23  1  0  0  0  0
  4 24  2  0  0  0  0
  5  6  1  0  0  0  0
  5  8  1  0  0  0  0
  5 21  1  0  0  0  0
  7 25  1  0  0  0  0
  8 26  1  0  0  0  0
  9 10  2  0  0  0  0
  9 11  1  0  0  0  0
 10 14  1  0  0  0  0
 11 15  2  0  0  0  0
 12 13  1  0  0  0  0
 12 16  2  0  0  0  0
 13 25  2  0  0  0  0
 14 26  2  0  0  0  0
 15 26  1  0  0  0  0
 16 27  1  0  0  0  0
 17 22  2  0  0  0  0
 17 23  1  0  0  0  0
 18 24  1  0  0  0  0
 18 27  1  0  0  0  0
 19 25  1  0  0  0  0
 19 27  2  0  0  0  0
 20 28  2  0  0  0  0
 20 29  1  0  0  0  0
 21 28  1  0  0  0  0
 22 28  1  0  0  0  0
 23 29  2  0  0  0  0
 24 29  1  0  0  0  0
  2 30  1  0  0  0  0
  3 31  1  0  0  0  0
  6 32  1  0  0  0  0
  6 33  1  0  0  0  0
  6 34  1  0  0  0  0
  7 35  1  0  0  0  0
  7 36  1  0  0  0  0
  7 37  1  0  0  0  0
  8 38  1  0  0  0  0
  8 39  1  0  0  0  0
  9 40  1  0  0  0  0
 10 41  1  0  0  0  0
 11 42  1  0  0  0  0
 12 43  1  0  0  0  0
 13 44  1  0  0  0  0
 14 45  1  0  0  0  0
 15 46  1  0  0  0  0
 16 47  1  0  0  0  0
 17 48  1  0  0  0  0
 18 49  1  0  0  0  0
 18 50  1  0  0  0  0
 19 51  1  0  0  0  0
 20 52  1  0  0  0  0
M  END
> <pdb_id>
4EFU

> <uniprot_id>
P07900

> <usmiles>
O=C(N(Cc1ccccc1)C)c2c(O)cc3NN=C(c3c2)Cc4cc(ccc4)C

$$$$
EFW_A_301
          07192415533D 1   1.00000     0.00000     0
            
 31 32  0  0  0  0            999 V2000
   45.8110    1.3096    6.4165 O   0  0  0  0  0  0  0  0  0  0  0  0
   41.9900    4.9534   13.2617 O   0  0  0  0  0  0  0  0  0  0  0  0
   46.8084    3.1933    5.5295 N   0  0  0  0  0  0  0  0  0  0  0  0
   44.1799    5.6420    7.3423 N   0  0  0  0  0  0  0  0  0  0  0  0
   42.6514    6.1700    9.0191 N   0  0  0  0  0  0  0  0  0  0  0  0
   44.9478    4.7434    6.7184 C   0  0  0  0  0  0  0  0  0  0  0  0
   41.6622    7.1095   12.3415 C   0  0  0  0  0  0  0  0  0  0  0  0
   43.4662    3.8887    8.8015 C   0  0  0  0  0  0  0  0  0  0  0  0
   41.4053    7.0280   10.8509 C   0  0  0  0  0  0  0  0  0  0  0  0
   44.2632    2.9727    8.1453 C   0  0  0  0  0  0  0  0  0  0  0  0
   43.2232    5.5366   11.3364 C   0  0  0  0  0  0  0  0  0  0  0  0
   45.9063    2.5254    6.3252 C   0  0  0  0  0  0  0  0  0  0  0  0
   42.6744    6.0345   12.6543 C   0  0  2  0  0  0  0  0  0  0  0  0
   43.4501    5.2055    8.3808 C   0  0  0  0  0  0  0  0  0  0  0  0
   42.1349    5.8155   10.3298 C   0  0  2  0  0  0  0  0  0  0  0  0
   45.0200    3.4221    7.0804 C   0  0  0  0  0  0  0  0  0  0  0  0
   42.6414    4.2264   13.4789 H   0  0  0  0  0  0  0  0  0  0  0  0
   46.8179    4.1931    5.5149 H   0  0  0  0  0  0  0  0  0  0  0  0
   47.4546    2.6788    4.9658 H   0  0  0  0  0  0  0  0  0  0  0  0
   42.4497    7.0524    8.5940 H   0  0  0  0  0  0  0  0  0  0  0  0
   45.5006    5.0514    5.9441 H   0  0  0  0  0  0  0  0  0  0  0  0
   40.8157    6.9466   12.8485 H   0  0  0  0  0  0  0  0  0  0  0  0
   42.0267    8.0092   12.5817 H   0  0  0  0  0  0  0  0  0  0  0  0
   42.9036    3.6016    9.5767 H   0  0  0  0  0  0  0  0  0  0  0  0
   41.7477    7.8523   10.4000 H   0  0  0  0  0  0  0  0  0  0  0  0
   40.4246    6.9366   10.6781 H   0  0  0  0  0  0  0  0  0  0  0  0
   44.2919    2.0149    8.4313 H   0  0  0  0  0  0  0  0  0  0  0  0
   43.4155    4.5564   11.3836 H   0  0  0  0  0  0  0  0  0  0  0  0
   44.0595    6.0291   11.0954 H   0  0  0  0  0  0  0  0  0  0  0  0
   43.4033    6.3815   13.2444 H   0  0  0  0  0  0  0  0  0  0  0  0
   41.5130    5.0353   10.2616 H   0  0  0  0  0  0  0  0  0  0  0  0
  1 12  2  0  0  0  0
  2 13  1  0  0  0  0
  3 12  1  0  0  0  0
  4  6  1  0  0  0  0
  4 14  2  0  0  0  0
  5 14  1  0  0  0  0
  5 15  1  0  0  0  0
  6 16  2  0  0  0  0
  7  9  1  0  0  0  0
  7 13  1  0  0  0  0
  8 10  2  0  0  0  0
  8 14  1  0  0  0  0
  9 15  1  0  0  0  0
 10 16  1  0  0  0  0
 11 13  1  0  0  0  0
 11 15  1  0  0  0  0
 12 16  1  0  0  0  0
  2 17  1  0  0  0  0
  3 18  1  0  0  0  0
  3 19  1  0  0  0  0
  5 20  1  0  0  0  0
  6 21  1  0  0  0  0
  7 22  1  0  0  0  0
  7 23  1  0  0  0  0
  8 24  1  0  0  0  0
  9 25  1  0  0  0  0
  9 26  1  0  0  0  0
 10 27  1  0  0  0  0
 11 28  1  0  0  0  0
 11 29  1  0  0  0  0
 13 30  1  0  0  0  0
 15 31  1  0  0  0  0
M  END
> <pdb_id>
4YQC

> <uniprot_id>
P43912

> <usmiles>
O=C(N)c1cnc(N[C@H]2C[C@H](O)CC2)cc1

$$$$
EFZ_A_601
          07202417453D 1   1.00000     0.00000     0
            
 32 33  0  0  0  0            999 V2000
   49.0405  -31.4519   36.1920 Cl  0  0  0  0  0  0  0  0  0  0  0  0
   54.0892  -27.9268   36.3348 F   0  0  0  0  0  0  0  0  0  0  0  0
   53.4066  -26.6585   37.9824 F   0  0  0  0  0  0  0  0  0  0  0  0
   52.7037  -28.6867   37.7724 F   0  0  0  0  0  0  0  0  0  0  0  0
   53.4079  -25.4822   33.3843 O   0  0  0  0  0  0  0  0  0  0  0  0
   52.2858  -26.2333   35.2248 O   0  0  0  0  0  0  0  0  0  0  0  0
   52.5328  -27.4502   33.3019 N   0  0  0  0  0  0  0  0  0  0  0  0
   50.2100  -30.5320   34.2166 C   0  0  0  0  0  0  0  0  0  0  0  0
   47.6404  -26.0321   38.7500 C   0  0  0  0  0  0  0  0  0  0  0  0
   48.0199  -24.3499   37.9416 C   0  0  0  0  0  0  0  0  0  0  0  0
   50.9834  -29.7235   33.3686 C   0  0  0  0  0  0  0  0  0  0  0  0
   49.9643  -26.0122   37.7740 C   0  0  0  0  0  0  0  0  0  0  0  0
   50.8578  -26.5267   37.1421 C   0  0  0  0  0  0  0  0  0  0  0  0
   50.5119  -29.3121   36.0364 C   0  0  0  0  0  0  0  0  0  0  0  0
   50.0465  -30.2788   35.4177 C   0  0  0  0  0  0  0  0  0  0  0  0
   52.7643  -26.3343   33.9717 C   0  0  0  0  0  0  0  0  0  0  0  0
   48.7443  -25.2673   38.6142 C   0  0  0  0  0  0  0  0  0  0  0  0
   51.6952  -28.4687   33.8163 C   0  0  0  0  0  0  0  0  0  0  0  0
   51.3100  -28.3799   35.3796 C   0  0  0  0  0  0  0  0  0  0  0  0
   53.0347  -27.5898   37.0980 C   0  0  0  0  0  0  0  0  0  0  0  0
   51.9029  -27.1324   36.2029 C   0  0  1  0  0  0  0  0  0  0  0  0
   52.9612  -27.5784   32.4074 H   0  0  0  0  0  0  0  0  0  0  0  0
   49.7728  -31.3463   33.8347 H   0  0  0  0  0  0  0  0  0  0  0  0
   47.8714  -26.8643   39.2542 H   0  0  0  0  0  0  0  0  0  0  0  0
   46.9411  -25.5222   39.2510 H   0  0  0  0  0  0  0  0  0  0  0  0
   47.2909  -26.2765   37.8456 H   0  0  0  0  0  0  0  0  0  0  0  0
   48.6101  -23.5866   37.6788 H   0  0  0  0  0  0  0  0  0  0  0  0
   47.6312  -24.7685   37.1209 H   0  0  0  0  0  0  0  0  0  0  0  0
   47.2814  -24.0142   38.5264 H   0  0  0  0  0  0  0  0  0  0  0  0
   51.0683  -29.9949   32.4098 H   0  0  0  0  0  0  0  0  0  0  0  0
   50.3137  -29.2010   37.0102 H   0  0  0  0  0  0  0  0  0  0  0  0
   49.0619  -24.9155   39.4948 H   0  0  0  0  0  0  0  0  0  0  0  0
  1 15  1  0  0  0  0
  2 20  1  0  0  0  0
  3 20  1  0  0  0  0
  4 20  1  0  0  0  0
  5 16  2  0  0  0  0
  6 16  1  0  0  0  0
  6 21  1  0  0  0  0
  7 16  1  0  0  0  0
  7 18  1  0  0  0  0
  8 11  1  0  0  0  0
  8 15  2  0  0  0  0
 20 21  1  0  0  0  0
  9 17  1  0  0  0  0
 10 17  1  0  0  0  0
 11 18  2  0  0  0  0
 12 13  3  0  0  0  0
 12 17  1  0  0  0  0
 13 21  1  0  0  0  0
 14 15  1  0  0  0  0
 14 19  2  0  0  0  0
 18 19  1  0  0  0  0
 19 21  1  0  0  0  0
  7 22  1  0  0  0  0
  8 23  1  0  0  0  0
  9 24  1  0  0  0  0
  9 25  1  0  0  0  0
  9 26  1  0  0  0  0
 10 27  1  0  0  0  0
 10 28  1  0  0  0  0
 10 29  1  0  0  0  0
 11 30  1  0  0  0  0
 14 31  1  0  0  0  0
 17 32  1  0  0  0  0
M  END
> <pdb_id>
6BSG

> <uniprot_id>
Q74085

> <usmiles>
Clc1cc2c(NC(=O)O[C@]2(C#CC(C)C)C(F)(F)F)cc1

$$$$
EFZ_A_999
          07202417453D 1   1.00000     0.00000     0
            
 28 30  0  0  0  0            999 V2000
   48.9714  -31.3632   35.9846 Cl  0  0  0  0  0  0  0  0  0  0  0  0
   53.9597  -26.3367   36.8576 F   0  0  0  0  0  0  0  0  0  0  0  0
   53.0591  -28.1296   37.5802 F   0  0  0  0  0  0  0  0  0  0  0  0
   54.1058  -28.1381   35.7240 F   0  0  0  0  0  0  0  0  0  0  0  0
   53.2798  -25.4893   32.8141 O   0  0  0  0  0  0  0  0  0  0  0  0
   52.2934  -26.0333   34.7294 O   0  0  0  0  0  0  0  0  0  0  0  0
   52.5524  -27.6369   33.0477 N   0  0  0  0  0  0  0  0  0  0  0  0
   50.3427  -30.5719   33.8165 C   0  0  0  0  0  0  0  0  0  0  0  0
   48.4051  -24.6645   37.9623 C   0  0  0  0  0  0  0  0  0  0  0  0
   48.1578  -25.8243   38.4457 C   0  0  0  0  0  0  0  0  0  0  0  0
   51.1878  -29.7116   33.0959 C   0  0  0  0  0  0  0  0  0  0  0  0
   50.3159  -25.9628   37.5078 C   0  0  0  0  0  0  0  0  0  0  0  0
   51.0463  -26.4369   36.7283 C   0  0  0  0  0  0  0  0  0  0  0  0
   50.4735  -29.1574   35.7557 C   0  0  0  0  0  0  0  0  0  0  0  0
   50.0008  -30.2908   35.1279 C   0  0  0  0  0  0  0  0  0  0  0  0
   52.7500  -26.3322   33.4672 C   0  0  0  0  0  0  0  0  0  0  0  0
   49.2460  -25.2677   38.6343 C   0  0  0  0  0  0  0  0  0  0  0  0
   51.6693  -28.5455   33.7201 C   0  0  0  0  0  0  0  0  0  0  0  0
   51.3459  -28.3093   35.0634 C   0  0  0  0  0  0  0  0  0  0  0  0
   53.2861  -27.4221   36.4815 C   0  0  0  0  0  0  0  0  0  0  0  0
   51.9514  -27.0514   35.7328 C   0  0  1  0  0  0  0  0  0  0  0  0
   53.0471  -27.9598   32.2409 H   0  0  0  0  0  0  0  0  0  0  0  0
   49.9844  -31.3958   33.3775 H   0  0  0  0  0  0  0  0  0  0  0  0
   48.1247  -23.8638   37.4329 H   0  0  0  0  0  0  0  0  0  0  0  0
   47.5424  -26.6019   38.5748 H   0  0  0  0  0  0  0  0  0  0  0  0
   51.4437  -29.9247   32.1529 H   0  0  0  0  0  0  0  0  0  0  0  0
   50.1968  -28.9443   36.6928 H   0  0  0  0  0  0  0  0  0  0  0  0
   49.5420  -24.9535   39.5363 H   0  0  0  0  0  0  0  0  0  0  0  0
  1 15  1  0  0  0  0
  2 20  1  0  0  0  0
  3 20  1  0  0  0  0
  4 20  1  0  0  0  0
  5 16  2  0  0  0  0
  6 16  1  0  0  0  0
  6 21  1  0  0  0  0
  7 16  1  0  0  0  0
  7 18  1  0  0  0  0
  8 11  1  0  0  0  0
  8 15  2  0  0  0  0
  9 10  2  0  0  0  0
  9 17  1  0  0  0  0
 10 17  1  0  0  0  0
 11 18  2  0  0  0  0
 12 13  3  0  0  0  0
 12 17  1  0  0  0  0
 13 21  1  0  0  0  0
 14 15  1  0  0  0  0
 14 19  2  0  0  0  0
 18 19  1  0  0  0  0
 19 21  1  0  0  0  0
 20 21  1  0  0  0  0
  7 22  1  0  0  0  0
  8 23  1  0  0  0  0
  9 24  1  0  0  0  0
 10 25  1  0  0  0  0
 11 26  1  0  0  0  0
 14 27  1  0  0  0  0
 17 28  1  0  0  0  0
M  END
> <pdb_id>
1FK9

> <uniprot_id>
P04585

> <usmiles>
Clc1cc2c(NC(=O)O[C@]2(C#CC3C=C3)C(F)(F)F)cc1

$$$$
EGB_A_1369
          07202413333D 1   1.00000     0.00000     0
            
 41 43  0  0  0  0            999 V2000
   37.6156   -3.2727   19.0744 S   0  0  0  0  0  0  0  0  0  0  0  0
   39.7890  -10.6679   16.1762 O   0  0  0  0  0  0  0  0  0  0  0  0
   40.9731   -8.6895   20.5450 O   0  0  0  0  0  0  0  0  0  0  0  0
   39.8076   -4.2578   20.2241 N   0  0  0  0  0  0  0  0  0  0  0  0
   38.2112   -5.8740   19.3295 N   0  0  0  0  0  0  0  0  0  0  0  0
   43.5730   -5.7137   19.8952 C   0  0  0  0  0  0  0  0  0  0  0  0
   44.2262   -5.4815   22.2838 C   0  0  0  0  0  0  0  0  0  0  0  0
   40.8164   -7.1787   15.8499 C   0  0  0  0  0  0  0  0  0  0  0  0
   40.6289   -8.5267   15.5226 C   0  0  0  0  0  0  0  0  0  0  0  0
   40.3746   -6.6638   17.0875 C   0  0  0  0  0  0  0  0  0  0  0  0
   39.5660   -8.8286   17.6958 C   0  0  0  0  0  0  0  0  0  0  0  0
   42.5021   -7.2266   21.6543 C   0  0  0  0  0  0  0  0  0  0  0  0
   41.8854   -4.8127   21.4942 C   0  0  0  0  0  0  0  0  0  0  0  0
   38.8514   -4.5786   19.1759 C   0  0  1  0  0  0  0  0  0  0  0  0
   39.9954   -9.3442   16.4552 C   0  0  0  0  0  0  0  0  0  0  0  0
   41.2652   -7.5205   20.7765 C   0  0  0  0  0  0  0  0  0  0  0  0
   40.6554   -5.2290   20.6119 C   0  0  0  0  0  0  0  0  0  0  0  0
   39.2077   -6.9703   19.4073 C   0  0  1  0  0  0  0  0  0  0  0  0
   39.7057   -7.4760   18.0239 C   0  0  0  0  0  0  0  0  0  0  0  0
   40.3842   -6.5511   20.3058 C   0  0  0  0  0  0  0  0  0  0  0  0
   43.0571   -5.8075   21.3377 C   0  0  0  0  0  0  0  0  0  0  0  0
   36.9574   -3.4919   18.3541 H   0  0  0  0  0  0  0  0  0  0  0  0
   39.3341  -11.2550   16.8457 H   0  0  0  0  0  0  0  0  0  0  0  0
   39.8342   -3.3493   20.6412 H   0  0  0  0  0  0  0  0  0  0  0  0
   37.6122   -6.0350   18.5451 H   0  0  0  0  0  0  0  0  0  0  0  0
   42.8287   -5.9222   19.2607 H   0  0  0  0  0  0  0  0  0  0  0  0
   43.9100   -4.7885   19.7212 H   0  0  0  0  0  0  0  0  0  0  0  0
   44.3164   -6.3695   19.7638 H   0  0  0  0  0  0  0  0  0  0  0  0
   43.9130   -5.5364   23.2320 H   0  0  0  0  0  0  0  0  0  0  0  0
   44.9659   -6.1386   22.1385 H   0  0  0  0  0  0  0  0  0  0  0  0
   44.5594   -4.5575   22.0959 H   0  0  0  0  0  0  0  0  0  0  0  0
   41.2700   -6.5716   15.1974 H   0  0  0  0  0  0  0  0  0  0  0  0
   40.9407   -8.8918   14.6454 H   0  0  0  0  0  0  0  0  0  0  0  0
   40.5400   -5.7017   17.3043 H   0  0  0  0  0  0  0  0  0  0  0  0
   39.1492   -9.4484   18.3607 H   0  0  0  0  0  0  0  0  0  0  0  0
   43.2098   -7.9079   21.4674 H   0  0  0  0  0  0  0  0  0  0  0  0
   42.2417   -7.2724   22.6188 H   0  0  0  0  0  0  0  0  0  0  0  0
   41.6043   -4.7900   22.4536 H   0  0  0  0  0  0  0  0  0  0  0  0
   42.1923   -3.9027   21.2152 H   0  0  0  0  0  0  0  0  0  0  0  0
   39.3488   -4.5901   18.3084 H   0  0  0  0  0  0  0  0  0  0  0  0
   38.7581   -7.7426   19.8561 H   0  0  0  0  0  0  0  0  0  0  0  0
  1 14  1  0  0  0  0
  2 15  1  0  0  0  0
  3 16  2  0  0  0  0
  4 14  1  0  0  0  0
  4 17  1  0  0  0  0
  5 14  1  0  0  0  0
  5 18  1  0  0  0  0
  6 21  1  0  0  0  0
  7 21  1  0  0  0  0
  8  9  1  0  0  0  0
  8 10  2  0  0  0  0
  9 15  2  0  0  0  0
 10 19  1  0  0  0  0
 11 15  1  0  0  0  0
 11 19  2  0  0  0  0
 12 16  1  0  0  0  0
 12 21  1  0  0  0  0
 13 17  1  0  0  0  0
 13 21  1  0  0  0  0
 16 20  1  0  0  0  0
 17 20  2  0  0  0  0
 18 19  1  0  0  0  0
 18 20  1  0  0  0  0
  1 22  1  0  0  0  0
  2 23  1  0  0  0  0
  4 24  1  0  0  0  0
  5 25  1  0  0  0  0
  6 26  1  0  0  0  0
  6 27  1  0  0  0  0
  6 28  1  0  0  0  0
  7 29  1  0  0  0  0
  7 30  1  0  0  0  0
  7 31  1  0  0  0  0
  8 32  1  0  0  0  0
  9 33  1  0  0  0  0
 10 34  1  0  0  0  0
 11 35  1  0  0  0  0
 12 36  1  0  0  0  0
 12 37  1  0  0  0  0
 13 38  1  0  0  0  0
 13 39  1  0  0  0  0
 14 40  1  0  0  0  0
 18 41  1  0  0  0  0
M  END
> <pdb_id>
2X7D

> <uniprot_id>
P52732

> <usmiles>
S[C@H]1NC2=C(C(=O)CC(C2)(C)C)[C@@H](N1)c3cc(O)ccc3

$$$$
EGJ_A_401
          07212402253D 1   1.00000     0.00000     0
            
 62 66  0  0  0  0            999 V2000
  112.7250  -19.3640    1.2460 Cl  0  0  0  0  0  0  0  0  0  0  0  0
  109.9940  -16.2530    3.0780 S   0  0  0  0  0  0  0  0  0  0  0  0
  112.6580  -18.0960    3.8070 F   0  0  0  0  0  0  0  0  0  0  0  0
  107.5320  -17.6940    8.2380 O   0  0  0  0  0  0  0  0  0  0  0  0
  108.8280  -16.8370    9.8820 O   0  0  0  0  0  0  0  0  0  0  0  0
  108.2870  -16.0550    1.1300 N   0  0  0  0  0  0  0  0  0  0  0  0
  108.4030  -15.2890    5.2960 N   0  0  0  0  0  0  0  0  0  0  0  0
  107.3980  -15.3810    3.1880 N   0  0  0  0  0  0  0  0  0  0  0  0
  111.2820  -19.4660    7.3880 N   0  0  0  0  0  0  0  0  0  0  0  0
  112.7340  -18.8350    9.3580 C   0  0  0  0  0  0  0  0  0  0  0  0
  110.4790  -16.7230    1.5050 C   0  0  0  0  0  0  0  0  0  0  0  0
  109.4830  -16.4540    0.5950 C   0  0  0  0  0  0  0  0  0  0  0  0
  104.9390  -13.3560    8.3690 C   0  0  0  0  0  0  0  0  0  0  0  0
  106.0220  -13.6700    9.1800 C   0  0  0  0  0  0  0  0  0  0  0  0
  111.9780  -22.1780    4.0080 C   0  0  0  0  0  0  0  0  0  0  0  0
  112.1470  -21.5490    2.7760 C   0  0  0  0  0  0  0  0  0  0  0  0
  104.9580  -13.6750    7.0220 C   0  0  0  0  0  0  0  0  0  0  0  0
  112.0000  -21.4250    5.1920 C   0  0  0  0  0  0  0  0  0  0  0  0
  107.2090  -14.1450    8.6130 C   0  0  0  0  0  0  0  0  0  0  0  0
  106.1410  -14.4720    5.0430 C   0  0  0  0  0  0  0  0  0  0  0  0
  109.9360  -19.2690    6.8100 C   0  0  0  0  0  0  0  0  0  0  0  0
  112.3520  -19.2450    6.4050 C   0  0  0  0  0  0  0  0  0  0  0  0
  109.6100  -17.8240    6.4620 C   0  0  0  0  0  0  0  0  0  0  0  0
  109.6570  -15.4260    7.3060 C   0  0  0  0  0  0  0  0  0  0  0  0
  111.0920  -17.1810    8.3890 C   0  0  0  0  0  0  0  0  0  0  0  0
  108.4690  -15.8010    2.4030 C   0  0  0  0  0  0  0  0  0  0  0  0
  112.3790  -20.1660    2.7260 C   0  0  0  0  0  0  0  0  0  0  0  0
  108.5820  -17.2050    8.6090 C   0  0  0  0  0  0  0  0  0  0  0  0
  107.3200  -14.9970    4.5460 C   0  0  0  0  0  0  0  0  0  0  0  0
  112.4210  -19.4170    3.8990 C   0  0  0  0  0  0  0  0  0  0  0  0
  108.3850  -15.0130    6.6080 C   0  0  0  0  0  0  0  0  0  0  0  0
  106.1460  -14.1210    6.4050 C   0  0  0  0  0  0  0  0  0  0  0  0
  112.2410  -20.0460    5.1350 C   0  0  0  0  0  0  0  0  0  0  0  0
  107.2810  -14.4010    7.2210 C   0  0  0  0  0  0  0  0  0  0  0  0
  111.3780  -18.6830    8.6550 C   0  0  1  0  0  0  0  0  0  0  0  0
  109.7450  -16.9090    7.6910 C   0  0  2  0  0  0  0  0  0  0  0  0
  109.1120  -17.6000   10.4320 H   0  0  0  0  0  0  0  0  0  0  0  0
  106.5840  -15.1060    2.6500 H   0  0  0  0  0  0  0  0  0  0  0  0
  113.4610  -18.1790    8.8890 H   0  0  0  0  0  0  0  0  0  0  0  0
  113.0680  -19.8650    9.2750 H   0  0  0  0  0  0  0  0  0  0  0  0
  112.6240  -18.5730   10.4060 H   0  0  0  0  0  0  0  0  0  0  0  0
  111.4650  -17.1150    1.3130 H   0  0  0  0  0  0  0  0  0  0  0  0
  109.5080  -16.7460   -0.4480 H   0  0  0  0  0  0  0  0  0  0  0  0
  104.0280  -12.9670    8.8110 H   0  0  0  0  0  0  0  0  0  0  0  0
  105.9820  -13.4410   10.2410 H   0  0  0  0  0  0  0  0  0  0  0  0
  111.7800  -23.2460    4.0470 H   0  0  0  0  0  0  0  0  0  0  0  0
  112.1310  -22.1470    1.8680 H   0  0  0  0  0  0  0  0  0  0  0  0
  104.0720  -13.4600    6.4270 H   0  0  0  0  0  0  0  0  0  0  0  0
  111.8510  -21.9180    6.1490 H   0  0  0  0  0  0  0  0  0  0  0  0
  108.0230  -14.3740    9.2920 H   0  0  0  0  0  0  0  0  0  0  0  0
  105.2840  -14.2700    4.4060 H   0  0  0  0  0  0  0  0  0  0  0  0
  109.7770  -19.8690    5.9080 H   0  0  0  0  0  0  0  0  0  0  0  0
  109.2090  -19.6170    7.5470 H   0  0  0  0  0  0  0  0  0  0  0  0
  112.4150  -18.1800    6.1670 H   0  0  0  0  0  0  0  0  0  0  0  0
  113.2990  -19.5060    6.8870 H   0  0  0  0  0  0  0  0  0  0  0  0
  108.5890  -17.7860    6.0700 H   0  0  0  0  0  0  0  0  0  0  0  0
  110.2700  -17.4750    5.6570 H   0  0  0  0  0  0  0  0  0  0  0  0
  109.8360  -14.8290    8.2010 H   0  0  0  0  0  0  0  0  0  0  0  0
  110.4990  -15.2130    6.6470 H   0  0  0  0  0  0  0  0  0  0  0  0
  111.1270  -16.6310    9.3400 H   0  0  0  0  0  0  0  0  0  0  0  0
  111.9020  -16.7560    7.7820 H   0  0  0  0  0  0  0  0  0  0  0  0
  110.6270  -19.0540    9.3630 H   0  0  0  0  0  0  0  0  0  0  0  0
  1 27  1  0  0  0  0
  2 11  1  0  0  0  0
  2 26  1  0  0  0  0
  3 30  1  0  0  0  0
  4 28  2  0  0  0  0
  5 28  1  0  0  0  0
  5 37  1  0  0  0  0
  6 12  1  0  0  0  0
  6 26  2  0  0  0  0
  7 29  2  0  0  0  0
  7 31  1  0  0  0  0
  8 26  1  0  0  0  0
  8 29  1  0  0  0  0
  8 38  1  0  0  0  0
  9 21  1  0  0  0  0
  9 22  1  0  0  0  0
  9 35  1  0  0  0  0
 10 35  1  0  0  0  0
 10 39  1  0  0  0  0
 10 40  1  0  0  0  0
 10 41  1  0  0  0  0
 11 12  2  0  0  0  0
 11 42  1  0  0  0  0
 12 43  1  0  0  0  0
 13 14  1  0  0  0  0
 13 17  2  0  0  0  0
 13 44  1  0  0  0  0
 14 19  2  0  0  0  0
 14 45  1  0  0  0  0
 15 16  2  0  0  0  0
 15 18  1  0  0  0  0
 15 46  1  0  0  0  0
 16 27  1  0  0  0  0
 16 47  1  0  0  0  0
 17 32  1  0  0  0  0
 17 48  1  0  0  0  0
 18 33  2  0  0  0  0
 18 49  1  0  0  0  0
 19 34  1  0  0  0  0
 19 50  1  0  0  0  0
 20 29  1  0  0  0  0
 20 32  2  0  0  0  0
 20 51  1  0  0  0  0
 21 23  1  0  0  0  0
 21 52  1  0  0  0  0
 21 53  1  0  0  0  0
 22 33  1  0  0  0  0
 22 54  1  0  0  0  0
 22 55  1  0  0  0  0
 23 36  1  0  0  0  0
 23 56  1  0  0  0  0
 23 57  1  0  0  0  0
 24 31  1  0  0  0  0
 24 36  1  0  0  0  0
 24 58  1  0  0  0  0
 24 59  1  0  0  0  0
 25 35  1  0  0  0  0
 25 36  1  0  0  0  0
 25 60  1  0  0  0  0
 25 61  1  0  0  0  0
 27 30  2  0  0  0  0
 28 36  1  0  0  0  0
 30 33  1  0  0  0  0
 31 34  2  0  0  0  0
 32 34  1  0  0  0  0
 35 62  1  0  0  0  0
M  END
> <pdb_id>
6C2T

> <uniprot_id>
O14965

> <usmiles>
Clc1c(F)c(ccc1)CN2[C@H](C[C@@](C(=O)O)(Cc3nc(NC=4SC=CN4)cc5c3cccc5)CC2)C

$$$$
EH6_A_201
          07202409203D 1   1.00000     0.00000     0
            
 37 39  0  0  0  0            999 V2000
    2.9377    6.3736   23.0432 Cl  0  0  0  0  0  0  0  0  0  0  0  0
    4.6385    4.8952   16.6816 O   0  0  0  0  0  0  0  0  0  0  0  0
    6.1454    4.5211   15.1432 O   0  0  0  0  0  0  0  0  0  0  0  0
    5.2321    6.7345   18.4197 N   0  0  0  0  0  0  0  0  0  0  0  0
    0.9267    4.6719   18.8166 C   0  0  0  0  0  0  0  0  0  0  0  0
    1.8062    3.9596   19.6188 C   0  0  0  0  0  0  0  0  0  0  0  0
    1.1363    6.0261   18.6152 C   0  0  0  0  0  0  0  0  0  0  0  0
    7.1912    9.2559   16.4437 C   0  0  0  0  0  0  0  0  0  0  0  0
    7.4003    8.5450   15.2739 C   0  0  0  0  0  0  0  0  0  0  0  0
    6.4170    7.8846   21.7935 C   0  0  0  0  0  0  0  0  0  0  0  0
    5.3559    7.4887   22.5837 C   0  0  0  0  0  0  0  0  0  0  0  0
    6.4817    8.6838   17.4891 C   0  0  0  0  0  0  0  0  0  0  0  0
    6.3789    7.6446   20.4304 C   0  0  0  0  0  0  0  0  0  0  0  0
    2.8862    4.5995   20.2225 C   0  0  0  0  0  0  0  0  0  0  0  0
    2.2163    6.6660   19.2229 C   0  0  0  0  0  0  0  0  0  0  0  0
    6.8988    7.2610   15.1577 C   0  0  0  0  0  0  0  0  0  0  0  0
    5.6375    5.2773   16.0123 C   0  0  0  0  0  0  0  0  0  0  0  0
    4.2727    6.8598   21.9939 C   0  0  0  0  0  0  0  0  0  0  0  0
    5.9842    7.3928   17.3719 C   0  0  0  0  0  0  0  0  0  0  0  0
    5.2828    7.0088   19.8486 C   0  0  0  0  0  0  0  0  0  0  0  0
    3.1007    5.9618   20.0411 C   0  0  0  0  0  0  0  0  0  0  0  0
    6.1933    6.6799   16.2022 C   0  0  0  0  0  0  0  0  0  0  0  0
    4.2028    6.6067   20.6349 C   0  0  0  0  0  0  0  0  0  0  0  0
    4.2380    5.4988   17.3710 H   0  0  0  0  0  0  0  0  0  0  0  0
    4.6074    6.0098   18.1290 H   0  0  0  0  0  0  0  0  0  0  0  0
    0.1490    4.2121   18.3879 H   0  0  0  0  0  0  0  0  0  0  0  0
    1.6639    2.9805   19.7646 H   0  0  0  0  0  0  0  0  0  0  0  0
    0.5117    6.5462   18.0326 H   0  0  0  0  0  0  0  0  0  0  0  0
    7.5526   10.1838   16.5349 H   0  0  0  0  0  0  0  0  0  0  0  0
    7.9101    8.9568   14.5186 H   0  0  0  0  0  0  0  0  0  0  0  0
    7.2069    8.3412   22.2027 H   0  0  0  0  0  0  0  0  0  0  0  0
    5.3697    7.6542   23.5698 H   0  0  0  0  0  0  0  0  0  0  0  0
    6.3279    9.2027   18.3300 H   0  0  0  0  0  0  0  0  0  0  0  0
    7.1464    7.9307   19.8566 H   0  0  0  0  0  0  0  0  0  0  0  0
    3.5155    4.0726   20.7938 H   0  0  0  0  0  0  0  0  0  0  0  0
    2.3590    7.6439   19.0702 H   0  0  0  0  0  0  0  0  0  0  0  0
    7.0460    6.7465   14.3129 H   0  0  0  0  0  0  0  0  0  0  0  0
  1 18  1  0  0  0  0
  2 17  1  0  0  0  0
  3 17  2  0  0  0  0
  4 19  1  0  0  0  0
  4 20  1  0  0  0  0
  5  6  2  0  0  0  0
  5  7  1  0  0  0  0
  6 14  1  0  0  0  0
  7 15  2  0  0  0  0
  8  9  2  0  0  0  0
  8 12  1  0  0  0  0
  9 16  1  0  0  0  0
 10 11  2  0  0  0  0
 10 13  1  0  0  0  0
 11 18  1  0  0  0  0
 12 19  2  0  0  0  0
 13 20  2  0  0  0  0
 14 21  2  0  0  0  0
 15 21  1  0  0  0  0
 16 22  2  0  0  0  0
 17 22  1  0  0  0  0
 18 23  2  0  0  0  0
 19 22  1  0  0  0  0
 20 23  1  0  0  0  0
 21 23  1  0  0  0  0
  2 24  1  0  0  0  0
  4 25  1  0  0  0  0
  5 26  1  0  0  0  0
  6 27  1  0  0  0  0
  7 28  1  0  0  0  0
  8 29  1  0  0  0  0
  9 30  1  0  0  0  0
 10 31  1  0  0  0  0
 11 32  1  0  0  0  0
 12 33  1  0  0  0  0
 13 34  1  0  0  0  0
 14 35  1  0  0  0  0
 15 36  1  0  0  0  0
 16 37  1  0  0  0  0
M  END
> <pdb_id>
6LJT

> <uniprot_id>
P15090

> <usmiles>
Clc1c(c(Nc2c(cccc2)C(=O)O)ccc1)c3ccccc3

$$$$
EH9_A_1906
          07202411583D 1   1.00000     0.00000     0
            
 43 44  0  0  0  0            999 V2000
   12.9116    0.5707   22.3416 O   0  0  0  0  0  0  0  0  0  0  0  0
   14.6422    1.9971   14.6657 N   0  0  0  0  0  0  0  0  0  0  0  0
   12.7008    2.9628   15.4584 N   0  0  0  0  0  0  0  0  0  0  0  0
   12.2232    3.0159   17.7230 N   0  0  0  0  0  0  0  0  0  0  0  0
   15.2771    1.4187   17.5438 N   0  0  0  0  0  0  0  0  0  0  0  0
   13.9297    1.9795   19.1436 N   0  0  0  0  0  0  0  0  0  0  0  0
   18.2604    7.3503   22.7197 C   0  0  0  0  0  0  0  0  0  0  0  0
   12.6410   -0.2821   20.0602 C   0  0  0  0  0  0  0  0  0  0  0  0
   11.9027    3.2922   16.4638 C   0  0  0  0  0  0  0  0  0  0  0  0
   15.0981    1.3955   18.8720 C   0  0  0  0  0  0  0  0  0  0  0  0
   17.3887    6.1543   23.1021 C   0  0  0  0  0  0  0  0  0  0  0  0
   16.3943    5.7807   22.0020 C   0  0  0  0  0  0  0  0  0  0  0  0
   15.4418    4.7055   22.5191 C   0  0  0  0  0  0  0  0  0  0  0  0
   14.4534    4.2199   21.4564 C   0  0  0  0  0  0  0  0  0  0  0  0
   14.3725    2.6848   21.4648 C   0  0  0  0  0  0  0  0  0  0  0  0
   13.8603    2.3279   15.6844 C   0  0  0  0  0  0  0  0  0  0  0  0
   12.5498    0.9268   20.9910 C   0  0  2  0  0  0  0  0  0  0  0  0
   13.3685    2.3850   18.0139 C   0  0  0  0  0  0  0  0  0  0  0  0
   14.2242    2.0201   16.9921 C   0  0  0  0  0  0  0  0  0  0  0  0
   13.3268    2.1826   20.4757 C   0  0  2  0  0  0  0  0  0  0  0  0
   12.8437    1.3775   22.9286 H   0  0  0  0  0  0  0  0  0  0  0  0
   15.5072    1.5238   14.8325 H   0  0  0  0  0  0  0  0  0  0  0  0
   14.3670    2.2210   13.7308 H   0  0  0  0  0  0  0  0  0  0  0  0
   18.8916    7.5554   23.4677 H   0  0  0  0  0  0  0  0  0  0  0  0
   18.7812    7.1327   21.8942 H   0  0  0  0  0  0  0  0  0  0  0  0
   17.6786    8.1451   22.5470 H   0  0  0  0  0  0  0  0  0  0  0  0
   12.3857   -0.0087   19.1328 H   0  0  0  0  0  0  0  0  0  0  0  0
   13.5778   -0.6317   20.0588 H   0  0  0  0  0  0  0  0  0  0  0  0
   12.0189   -0.9968   20.3801 H   0  0  0  0  0  0  0  0  0  0  0  0
   11.0400    3.7593   16.2702 H   0  0  0  0  0  0  0  0  0  0  0  0
   15.7304    1.0079   19.5427 H   0  0  0  0  0  0  0  0  0  0  0  0
   16.8789    6.3810   23.9321 H   0  0  0  0  0  0  0  0  0  0  0  0
   17.9815    5.3686   23.2792 H   0  0  0  0  0  0  0  0  0  0  0  0
   16.8917    5.4313   21.2080 H   0  0  0  0  0  0  0  0  0  0  0  0
   15.8706    6.5905   21.7374 H   0  0  0  0  0  0  0  0  0  0  0  0
   14.9241    5.0815   23.2877 H   0  0  0  0  0  0  0  0  0  0  0  0
   15.9826    3.9246   22.8317 H   0  0  0  0  0  0  0  0  0  0  0  0
   14.7588    4.5293   20.5559 H   0  0  0  0  0  0  0  0  0  0  0  0
   13.5484    4.5990   21.6499 H   0  0  0  0  0  0  0  0  0  0  0  0
   14.1272    2.3761   22.3838 H   0  0  0  0  0  0  0  0  0  0  0  0
   15.2651    2.3098   21.2144 H   0  0  0  0  0  0  0  0  0  0  0  0
   11.5845    1.1867   21.0189 H   0  0  0  0  0  0  0  0  0  0  0  0
   12.6530    2.9147   20.3759 H   0  0  0  0  0  0  0  0  0  0  0  0
  1 17  1  0  0  0  0
  2 16  1  0  0  0  0
  3  9  1  0  0  0  0
  3 16  2  0  0  0  0
  4  9  2  0  0  0  0
  4 18  1  0  0  0  0
  5 10  2  0  0  0  0
  5 19  1  0  0  0  0
  6 10  1  0  0  0  0
  6 18  1  0  0  0  0
  6 20  1  0  0  0  0
  7 11  1  0  0  0  0
  8 17  1  0  0  0  0
 11 12  1  0  0  0  0
 12 13  1  0  0  0  0
 13 14  1  0  0  0  0
 14 15  1  0  0  0  0
 15 20  1  0  0  0  0
 16 19  1  0  0  0  0
 17 20  1  0  0  0  0
 18 19  2  0  0  0  0
  1 21  1  0  0  0  0
  2 22  1  0  0  0  0
  2 23  1  0  0  0  0
  7 24  1  0  0  0  0
  7 25  1  0  0  0  0
  7 26  1  0  0  0  0
  8 27  1  0  0  0  0
  8 28  1  0  0  0  0
  8 29  1  0  0  0  0
  9 30  1  0  0  0  0
 10 31  1  0  0  0  0
 11 32  1  0  0  0  0
 11 33  1  0  0  0  0
 12 34  1  0  0  0  0
 12 35  1  0  0  0  0
 13 36  1  0  0  0  0
 13 37  1  0  0  0  0
 14 38  1  0  0  0  0
 14 39  1  0  0  0  0
 15 40  1  0  0  0  0
 15 41  1  0  0  0  0
 17 42  1  0  0  0  0
 20 43  1  0  0  0  0
M  END
> <pdb_id>
4C1I

> <uniprot_id>
O00408

> <usmiles>
O[C@@H]([C@H](N1c2ncnc(N)c2N=C1)CCCCCC)C

$$$$
EHH_A_401
          07212403203D 1   1.00000     0.00000     0
            
 42 44  0  0  0  0            999 V2000
   -5.3634    7.3801  -26.5726 N   0  0  0  0  0  0  0  0  0  0  0  0
   -1.7876   11.5006  -19.0133 N   0  0  0  0  0  0  0  0  0  0  0  0
   -4.2745    5.5699  -19.8896 N   0  0  0  0  0  0  0  0  0  0  0  0
   -3.3027    6.5820  -18.1612 N   0  0  0  0  0  0  0  0  0  0  0  0
   -2.7820    6.7644  -16.8076 C   0  0  0  0  0  0  0  0  0  0  0  0
   -6.8153    6.9676  -21.1114 C   0  0  0  0  0  0  0  0  0  0  0  0
   -1.8479    7.7421  -22.1794 C   0  0  0  0  0  0  0  0  0  0  0  0
   -3.8972    5.4643  -18.6374 C   0  0  0  0  0  0  0  0  0  0  0  0
   -5.3564    8.5348  -25.6384 C   0  0  0  0  0  0  0  0  0  0  0  0
   -3.0493   11.2684  -19.4008 C   0  0  0  0  0  0  0  0  0  0  0  0
   -1.0473   10.4357  -18.6791 C   0  0  0  0  0  0  0  0  0  0  0  0
   -3.6031   10.0043  -19.4848 C   0  0  0  0  0  0  0  0  0  0  0  0
   -1.5151    9.1356  -18.7164 C   0  0  0  0  0  0  0  0  0  0  0  0
   -5.9843    7.7511  -23.3273 C   0  0  0  0  0  0  0  0  0  0  0  0
   -3.6801    8.1097  -23.8169 C   0  0  0  0  0  0  0  0  0  0  0  0
   -3.9694    6.8746  -20.2578 C   0  0  0  0  0  0  0  0  0  0  0  0
   -3.3767    7.5363  -19.1997 C   0  0  0  0  0  0  0  0  0  0  0  0
   -5.6806    7.3438  -22.0301 C   0  0  0  0  0  0  0  0  0  0  0  0
   -3.3110    7.7143  -22.5354 C   0  0  0  0  0  0  0  0  0  0  0  0
   -5.0018    8.1276  -24.2351 C   0  0  0  0  0  0  0  0  0  0  0  0
   -2.8339    8.9095  -19.1010 C   0  0  0  0  0  0  0  0  0  0  0  0
   -4.3276    7.3389  -21.6253 C   0  0  0  0  0  0  0  0  0  0  0  0
   -5.6033    7.6957  -27.4907 H   0  0  0  0  0  0  0  0  0  0  0  0
   -4.4559    6.9605  -26.5908 H   0  0  0  0  0  0  0  0  0  0  0  0
   -2.3947    7.6822  -16.7203 H   0  0  0  0  0  0  0  0  0  0  0  0
   -3.5241    6.6516  -16.1469 H   0  0  0  0  0  0  0  0  0  0  0  0
   -2.0709    6.0842  -16.6295 H   0  0  0  0  0  0  0  0  0  0  0  0
   -6.4482    6.6984  -20.2211 H   0  0  0  0  0  0  0  0  0  0  0  0
   -7.4255    7.7516  -20.9971 H   0  0  0  0  0  0  0  0  0  0  0  0
   -7.3249    6.2034  -21.5068 H   0  0  0  0  0  0  0  0  0  0  0  0
   -1.7287    7.4353  -21.2351 H   0  0  0  0  0  0  0  0  0  0  0  0
   -1.3439    7.1347  -22.7934 H   0  0  0  0  0  0  0  0  0  0  0  0
   -1.4997    8.6748  -22.2733 H   0  0  0  0  0  0  0  0  0  0  0  0
   -4.0355    4.6394  -18.0895 H   0  0  0  0  0  0  0  0  0  0  0  0
   -6.2659    8.9503  -25.6330 H   0  0  0  0  0  0  0  0  0  0  0  0
   -4.6859    9.2041  -25.9586 H   0  0  0  0  0  0  0  0  0  0  0  0
   -3.6215   12.0521  -19.6423 H   0  0  0  0  0  0  0  0  0  0  0  0
   -0.1036   10.5898  -18.3864 H   0  0  0  0  0  0  0  0  0  0  0  0
   -4.5387    9.8789  -19.8151 H   0  0  0  0  0  0  0  0  0  0  0  0
   -0.9177    8.3719  -18.4717 H   0  0  0  0  0  0  0  0  0  0  0  0
   -6.9418    7.7733  -23.6149 H   0  0  0  0  0  0  0  0  0  0  0  0
   -2.9671    8.3910  -24.4591 H   0  0  0  0  0  0  0  0  0  0  0  0
  1  9  1  0  0  0  0
  2 10  2  0  0  0  0
  2 11  1  0  0  0  0
  3  8  2  0  0  0  0
  3 16  1  0  0  0  0
  4  5  1  0  0  0  0
  4  8  1  0  0  0  0
  4 17  1  0  0  0  0
  6 18  1  0  0  0  0
  7 19  1  0  0  0  0
  9 20  1  0  0  0  0
 10 12  1  0  0  0  0
 11 13  2  0  0  0  0
 12 21  2  0  0  0  0
 13 21  1  0  0  0  0
 14 18  2  0  0  0  0
 14 20  1  0  0  0  0
 15 19  1  0  0  0  0
 15 20  2  0  0  0  0
 16 17  2  0  0  0  0
 16 22  1  0  0  0  0
 17 21  1  0  0  0  0
 18 22  1  0  0  0  0
 19 22  2  0  0  0  0
  1 23  1  0  0  0  0
  1 24  1  0  0  0  0
  5 25  1  0  0  0  0
  5 26  1  0  0  0  0
  5 27  1  0  0  0  0
  6 28  1  0  0  0  0
  6 29  1  0  0  0  0
  6 30  1  0  0  0  0
  7 31  1  0  0  0  0
  7 32  1  0  0  0  0
  7 33  1  0  0  0  0
  8 34  1  0  0  0  0
  9 35  1  0  0  0  0
  9 36  1  0  0  0  0
 10 37  1  0  0  0  0
 11 38  1  0  0  0  0
 12 39  1  0  0  0  0
 13 40  1  0  0  0  0
 14 41  1  0  0  0  0
 15 42  1  0  0  0  0
M  END
> <pdb_id>
6G2E

> <uniprot_id>
Q9BZ95

> <usmiles>
n1ccc(cc1)C=2N(C=NC2c3c(cc(cc3C)CN)C)C

$$$$
EHI_B_803
          07192416573D 1   1.00000     0.00000     0
            
 43 46  0  0  0  0            999 V2000
   18.2268   -2.2414   20.4944 N   0  0  0  0  0  0  0  0  0  0  0  0
   19.4589   -3.3831   19.0408 N   0  0  0  0  0  0  0  0  0  0  0  0
   22.6975   -4.6933   22.8962 N   0  0  0  0  0  0  0  0  0  0  0  0
   17.6541   -2.2826   19.2277 N   0  0  0  0  0  0  0  0  0  0  0  0
   20.9914   -5.4352   24.0493 N   0  0  0  0  0  0  0  0  0  0  0  0
   19.6179   -5.8536   24.4317 C   0  0  0  0  0  0  0  0  0  0  0  0
   18.7657   -3.8725   16.0318 C   0  0  0  0  0  0  0  0  0  0  0  0
   16.4877   -1.6966   18.9154 C   0  0  0  0  0  0  0  0  0  0  0  0
   22.0694   -5.4769   24.8488 C   0  0  0  0  0  0  0  0  0  0  0  0
   16.0048   -1.7976   17.6089 C   0  0  0  0  0  0  0  0  0  0  0  0
   27.2110   -4.5435   25.4357 C   0  0  0  0  0  0  0  0  0  0  0  0
   26.8556   -4.2041   24.1284 C   0  0  0  0  0  0  0  0  0  0  0  0
   26.2471   -5.0399   26.3160 C   0  0  0  0  0  0  0  0  0  0  0  0
   20.3833   -3.2251   21.4123 C   0  0  0  0  0  0  0  0  0  0  0  0
   20.4929   -4.7299   21.6502 C   0  0  0  0  0  0  0  0  0  0  0  0
   16.7388   -2.5063   16.6563 C   0  0  0  0  0  0  0  0  0  0  0  0
   25.5344   -4.3600   23.7033 C   0  0  0  0  0  0  0  0  0  0  0  0
   24.9270   -5.1947   25.8908 C   0  0  0  0  0  0  0  0  0  0  0  0
   19.3695   -2.9511   20.3314 C   0  0  0  0  0  0  0  0  0  0  0  0
   21.3728   -4.9579   22.8545 C   0  0  0  0  0  0  0  0  0  0  0  0
   18.3758   -2.9611   18.3441 C   0  0  0  0  0  0  0  0  0  0  0  0
   23.1569   -5.0116   24.1203 C   0  0  0  0  0  0  0  0  0  0  0  0
   17.9439   -3.0999   17.0292 C   0  0  0  0  0  0  0  0  0  0  0  0
   24.5685   -4.8593   24.5825 C   0  0  0  0  0  0  0  0  0  0  0  0
   19.0013   -5.7225   23.6555 H   0  0  0  0  0  0  0  0  0  0  0  0
   19.6241   -6.8188   24.6931 H   0  0  0  0  0  0  0  0  0  0  0  0
   19.3040   -5.3012   25.2039 H   0  0  0  0  0  0  0  0  0  0  0  0
   19.5895   -4.2221   16.4781 H   0  0  0  0  0  0  0  0  0  0  0  0
   18.2279   -4.6378   15.6782 H   0  0  0  0  0  0  0  0  0  0  0  0
   19.0256   -3.2707   15.2766 H   0  0  0  0  0  0  0  0  0  0  0  0
   15.9713   -1.1943   19.6090 H   0  0  0  0  0  0  0  0  0  0  0  0
   22.0863   -5.7875   25.7992 H   0  0  0  0  0  0  0  0  0  0  0  0
   15.1389   -1.3651   17.3575 H   0  0  0  0  0  0  0  0  0  0  0  0
   28.1563   -4.4310   25.7417 H   0  0  0  0  0  0  0  0  0  0  0  0
   27.5460   -3.8499   23.4977 H   0  0  0  0  0  0  0  0  0  0  0  0
   26.5030   -5.2844   27.2512 H   0  0  0  0  0  0  0  0  0  0  0  0
   21.2737   -2.8679   21.1305 H   0  0  0  0  0  0  0  0  0  0  0  0
   20.0963   -2.7754   22.2582 H   0  0  0  0  0  0  0  0  0  0  0  0
   20.8969   -5.1702   20.8484 H   0  0  0  0  0  0  0  0  0  0  0  0
   19.5844   -5.1125   21.8183 H   0  0  0  0  0  0  0  0  0  0  0  0
   16.4042   -2.5872   15.7174 H   0  0  0  0  0  0  0  0  0  0  0  0
   25.2786   -4.1140   22.7683 H   0  0  0  0  0  0  0  0  0  0  0  0
   24.2366   -5.5462   26.5232 H   0  0  0  0  0  0  0  0  0  0  0  0
  1  4  1  0  0  0  0
  1 19  2  0  0  0  0
  2 19  1  0  0  0  0
  2 21  2  0  0  0  0
  3 20  2  0  0  0  0
  3 22  1  0  0  0  0
  4  8  1  0  0  0  0
  4 21  1  0  0  0  0
  5  6  1  0  0  0  0
  5  9  1  0  0  0  0
  5 20  1  0  0  0  0
  7 23  1  0  0  0  0
  8 10  2  0  0  0  0
  9 22  2  0  0  0  0
 10 16  1  0  0  0  0
 11 12  2  0  0  0  0
 11 13  1  0  0  0  0
 12 17  1  0  0  0  0
 13 18  2  0  0  0  0
 14 15  1  0  0  0  0
 14 19  1  0  0  0  0
 15 20  1  0  0  0  0
 16 23  2  0  0  0  0
 17 24  2  0  0  0  0
 18 24  1  0  0  0  0
 21 23  1  0  0  0  0
 22 24  1  0  0  0  0
  6 25  1  0  0  0  0
  6 26  1  0  0  0  0
  6 27  1  0  0  0  0
  7 28  1  0  0  0  0
  7 29  1  0  0  0  0
  7 30  1  0  0  0  0
  8 31  1  0  0  0  0
  9 32  1  0  0  0  0
 10 33  1  0  0  0  0
 11 34  1  0  0  0  0
 12 35  1  0  0  0  0
 13 36  1  0  0  0  0
 14 37  1  0  0  0  0
 14 38  1  0  0  0  0
 15 39  1  0  0  0  0
 15 40  1  0  0  0  0
 16 41  1  0  0  0  0
 17 42  1  0  0  0  0
 18 43  1  0  0  0  0
M  END
> <pdb_id>
7QPV

> <uniprot_id>
Q9Y233

> <usmiles>
N=1N2C(=NC1CCC3=NC(c4ccccc4)=CN3C)C(=CC=C2)C

$$$$
EHT_A_401
          07212403203D 1   1.00000     0.00000     0
            
 33 35  0  0  0  0            999 V2000
   -5.5746    7.6738  -23.3264 O   0  0  0  0  0  0  0  0  0  0  0  0
   -4.2533    8.1287  -23.5619 N   0  0  0  0  0  0  0  0  0  0  0  0
   -1.7629   11.4216  -19.0731 N   0  0  0  0  0  0  0  0  0  0  0  0
   -4.4098    5.5215  -19.7340 N   0  0  0  0  0  0  0  0  0  0  0  0
   -3.3796    6.5700  -18.0561 N   0  0  0  0  0  0  0  0  0  0  0  0
   -2.8488    6.7945  -16.7151 C   0  0  0  0  0  0  0  0  0  0  0  0
   -6.9754    6.6607  -21.6582 C   0  0  0  0  0  0  0  0  0  0  0  0
   -2.1252    8.2017  -22.4248 C   0  0  0  0  0  0  0  0  0  0  0  0
   -4.0256    5.4610  -18.4790 C   0  0  0  0  0  0  0  0  0  0  0  0
   -1.0402   10.3480  -18.7294 C   0  0  0  0  0  0  0  0  0  0  0  0
   -3.0366   11.2089  -19.4358 C   0  0  0  0  0  0  0  0  0  0  0  0
   -1.5385    9.0570  -18.7323 C   0  0  0  0  0  0  0  0  0  0  0  0
   -3.6267    9.9583  -19.4626 C   0  0  0  0  0  0  0  0  0  0  0  0
   -5.6488    7.1766  -22.0776 C   0  0  0  0  0  0  0  0  0  0  0  0
   -3.5773    7.8579  -22.4820 C   0  0  0  0  0  0  0  0  0  0  0  0
   -4.0597    6.7945  -20.1602 C   0  0  0  0  0  0  0  0  0  0  0  0
   -3.4435    7.4904  -19.1296 C   0  0  0  0  0  0  0  0  0  0  0  0
   -2.8685    8.8519  -19.0852 C   0  0  0  0  0  0  0  0  0  0  0  0
   -4.4107    7.2401  -21.4916 C   0  0  0  0  0  0  0  0  0  0  0  0
   -2.4196    7.6967  -16.6732 H   0  0  0  0  0  0  0  0  0  0  0  0
   -3.5939    6.7486  -16.0497 H   0  0  0  0  0  0  0  0  0  0  0  0
   -2.1693    6.0920  -16.5037 H   0  0  0  0  0  0  0  0  0  0  0  0
   -6.9184    6.3176  -20.7206 H   0  0  0  0  0  0  0  0  0  0  0  0
   -7.6492    7.3983  -21.7029 H   0  0  0  0  0  0  0  0  0  0  0  0
   -7.2526    5.9186  -22.2684 H   0  0  0  0  0  0  0  0  0  0  0  0
   -1.7536    7.9322  -21.5364 H   0  0  0  0  0  0  0  0  0  0  0  0
   -1.6387    7.7156  -23.1509 H   0  0  0  0  0  0  0  0  0  0  0  0
   -2.0108    9.1873  -22.5489 H   0  0  0  0  0  0  0  0  0  0  0  0
   -4.1952    4.6692  -17.8923 H   0  0  0  0  0  0  0  0  0  0  0  0
   -0.0884   10.4867  -18.4557 H   0  0  0  0  0  0  0  0  0  0  0  0
   -3.5901   11.9982  -19.7016 H   0  0  0  0  0  0  0  0  0  0  0  0
   -0.9529    8.2850  -18.4852 H   0  0  0  0  0  0  0  0  0  0  0  0
   -4.5792    9.8502  -19.7474 H   0  0  0  0  0  0  0  0  0  0  0  0
  1  2  1  0  0  0  0
  1 14  1  0  0  0  0
  2 15  2  0  0  0  0
  3 10  2  0  0  0  0
  3 11  1  0  0  0  0
  4  9  2  0  0  0  0
  4 16  1  0  0  0  0
  5  6  1  0  0  0  0
  5  9  1  0  0  0  0
  5 17  1  0  0  0  0
  7 14  1  0  0  0  0
  8 15  1  0  0  0  0
 10 12  1  0  0  0  0
 11 13  2  0  0  0  0
 12 18  2  0  0  0  0
 13 18  1  0  0  0  0
 14 19  2  0  0  0  0
 15 19  1  0  0  0  0
 16 17  2  0  0  0  0
 16 19  1  0  0  0  0
 17 18  1  0  0  0  0
  6 20  1  0  0  0  0
  6 21  1  0  0  0  0
  6 22  1  0  0  0  0
  7 23  1  0  0  0  0
  7 24  1  0  0  0  0
  7 25  1  0  0  0  0
  8 26  1  0  0  0  0
  8 27  1  0  0  0  0
  8 28  1  0  0  0  0
  9 29  1  0  0  0  0
 10 30  1  0  0  0  0
 11 31  1  0  0  0  0
 12 32  1  0  0  0  0
 13 33  1  0  0  0  0
M  END
> <pdb_id>
6G2C

> <uniprot_id>
Q9BZ95

> <usmiles>
O1N=C(C(=C1C)C=2N=CN(C2c3ccncc3)C)C

$$$$
EIH_B_803
          07192416573D 1   1.00000     0.00000     0
            
 38 41  0  0  0  0            999 V2000
   19.4293   -2.9636   21.6248 S   0  0  0  0  0  0  0  0  0  0  0  0
   19.1935   -3.5508   18.9803 N   0  0  0  0  0  0  0  0  0  0  0  0
   17.6198   -2.1799   19.6753 N   0  0  0  0  0  0  0  0  0  0  0  0
   22.6362   -4.5608   22.7309 N   0  0  0  0  0  0  0  0  0  0  0  0
   18.4953   -3.3152   17.9905 N   0  0  0  0  0  0  0  0  0  0  0  0
   20.9681   -5.2540   23.8300 N   0  0  0  0  0  0  0  0  0  0  0  0
   19.6149   -5.6546   24.2033 C   0  0  0  0  0  0  0  0  0  0  0  0
   20.4519   -4.5067   21.4410 C   0  0  0  0  0  0  0  0  0  0  0  0
   18.5965   -3.7744   16.6637 C   0  0  0  0  0  0  0  0  0  0  0  0
   22.0297   -5.3208   24.6453 C   0  0  0  0  0  0  0  0  0  0  0  0
   17.6530   -3.3679   15.7338 C   0  0  0  0  0  0  0  0  0  0  0  0
   27.0344   -4.4194   25.2595 C   0  0  0  0  0  0  0  0  0  0  0  0
   16.6382   -2.4900   16.1265 C   0  0  0  0  0  0  0  0  0  0  0  0
   26.0747   -4.9391   26.1218 C   0  0  0  0  0  0  0  0  0  0  0  0
   26.6831   -4.0584   23.9534 C   0  0  0  0  0  0  0  0  0  0  0  0
   16.5320   -2.0279   17.4482 C   0  0  0  0  0  0  0  0  0  0  0  0
   24.7569   -5.1096   25.6831 C   0  0  0  0  0  0  0  0  0  0  0  0
   25.3733   -4.2368   23.5267 C   0  0  0  0  0  0  0  0  0  0  0  0
   18.7105   -2.8747   20.0201 C   0  0  0  0  0  0  0  0  0  0  0  0
   21.3288   -4.7771   22.6506 C   0  0  0  0  0  0  0  0  0  0  0  0
   17.4595   -2.4375   18.3831 C   0  0  0  0  0  0  0  0  0  0  0  0
   23.0846   -4.9031   23.9401 C   0  0  0  0  0  0  0  0  0  0  0  0
   24.4027   -4.7735   24.3812 C   0  0  0  0  0  0  0  0  0  0  0  0
   18.9993   -5.5119   23.4283 H   0  0  0  0  0  0  0  0  0  0  0  0
   19.6117   -6.6216   24.4579 H   0  0  0  0  0  0  0  0  0  0  0  0
   19.3066   -5.1046   24.9795 H   0  0  0  0  0  0  0  0  0  0  0  0
   21.0380   -4.4079   20.6368 H   0  0  0  0  0  0  0  0  0  0  0  0
   19.8368   -5.2844   21.3117 H   0  0  0  0  0  0  0  0  0  0  0  0
   19.3402   -4.3867   16.3955 H   0  0  0  0  0  0  0  0  0  0  0  0
   22.0317   -5.6247   25.5980 H   0  0  0  0  0  0  0  0  0  0  0  0
   17.6975   -3.6991   14.7913 H   0  0  0  0  0  0  0  0  0  0  0  0
   27.9769   -4.3036   25.5731 H   0  0  0  0  0  0  0  0  0  0  0  0
   15.9705   -2.1831   15.4483 H   0  0  0  0  0  0  0  0  0  0  0  0
   26.3267   -5.1910   27.0562 H   0  0  0  0  0  0  0  0  0  0  0  0
   27.3684   -3.6758   23.3336 H   0  0  0  0  0  0  0  0  0  0  0  0
   15.7917   -1.4082   17.7088 H   0  0  0  0  0  0  0  0  0  0  0  0
   24.0671   -5.4746   26.3084 H   0  0  0  0  0  0  0  0  0  0  0  0
   25.1196   -3.9778   22.5948 H   0  0  0  0  0  0  0  0  0  0  0  0
  1  8  1  0  0  0  0
  1 19  1  0  0  0  0
  2  5  1  0  0  0  0
  2 19  2  0  0  0  0
  3 19  1  0  0  0  0
  3 21  2  0  0  0  0
  4 20  2  0  0  0  0
  4 22  1  0  0  0  0
  5  9  1  0  0  0  0
  5 21  1  0  0  0  0
  6  7  1  0  0  0  0
  6 10  1  0  0  0  0
  6 20  1  0  0  0  0
  8 20  1  0  0  0  0
  9 11  2  0  0  0  0
 10 22  2  0  0  0  0
 11 13  1  0  0  0  0
 12 14  2  0  0  0  0
 12 15  1  0  0  0  0
 13 16  2  0  0  0  0
 14 17  1  0  0  0  0
 15 18  2  0  0  0  0
 16 21  1  0  0  0  0
 17 23  2  0  0  0  0
 18 23  1  0  0  0  0
 22 23  1  0  0  0  0
  7 24  1  0  0  0  0
  7 25  1  0  0  0  0
  7 26  1  0  0  0  0
  8 27  1  0  0  0  0
  8 28  1  0  0  0  0
  9 29  1  0  0  0  0
 10 30  1  0  0  0  0
 11 31  1  0  0  0  0
 12 32  1  0  0  0  0
 13 33  1  0  0  0  0
 14 34  1  0  0  0  0
 15 35  1  0  0  0  0
 16 36  1  0  0  0  0
 17 37  1  0  0  0  0
 18 38  1  0  0  0  0
M  END
> <pdb_id>
7QPQ

> <uniprot_id>
Q9Y233

> <usmiles>
S(C1=NN2C(=N1)C=CC=C2)CC3=NC(c4ccccc4)=CN3C

$$$$
EIK_B_801
          07192416573D 1   1.00000     0.00000     0
            
 45 48  0  0  0  0            999 V2000
   18.2356   -2.3607   20.5770 N   0  0  0  0  0  0  0  0  0  0  0  0
   16.8194   -2.6489   16.7142 N   0  0  0  0  0  0  0  0  0  0  0  0
   19.4927   -3.5191   19.0413 N   0  0  0  0  0  0  0  0  0  0  0  0
   22.7234   -4.7000   22.8668 N   0  0  0  0  0  0  0  0  0  0  0  0
   17.6332   -2.3421   19.3633 N   0  0  0  0  0  0  0  0  0  0  0  0
   21.0560   -5.4224   24.1536 N   0  0  0  0  0  0  0  0  0  0  0  0
   19.7271   -5.7990   24.5829 C   0  0  0  0  0  0  0  0  0  0  0  0
   15.6259   -0.9633   19.9124 C   0  0  0  0  0  0  0  0  0  0  0  0
   18.7791   -3.9762   16.1403 C   0  0  0  0  0  0  0  0  0  0  0  0
   16.1005   -1.9106   17.6454 C   0  0  0  0  0  0  0  0  0  0  0  0
   22.1759   -5.4518   24.9417 C   0  0  0  0  0  0  0  0  0  0  0  0
   27.2925   -4.4664   25.1947 C   0  0  0  0  0  0  0  0  0  0  0  0
   26.3929   -4.9523   26.1333 C   0  0  0  0  0  0  0  0  0  0  0  0
   26.8667   -4.2002   23.9051 C   0  0  0  0  0  0  0  0  0  0  0  0
   20.3509   -3.3133   21.3876 C   0  0  0  0  0  0  0  0  0  0  0  0
   20.4688   -4.7826   21.7717 C   0  0  0  0  0  0  0  0  0  0  0  0
   25.0463   -5.1209   25.8052 C   0  0  0  0  0  0  0  0  0  0  0  0
   25.5323   -4.4098   23.5652 C   0  0  0  0  0  0  0  0  0  0  0  0
   19.3417   -3.0722   20.3315 C   0  0  0  0  0  0  0  0  0  0  0  0
   21.4255   -4.9695   22.9059 C   0  0  0  0  0  0  0  0  0  0  0  0
   18.4003   -3.0598   18.4725 C   0  0  0  0  0  0  0  0  0  0  0  0
   16.4495   -1.7443   18.9384 C   0  0  0  0  0  0  0  0  0  0  0  0
   17.9434   -3.1943   17.1113 C   0  0  0  0  0  0  0  0  0  0  0  0
   23.1972   -5.0082   24.1292 C   0  0  0  0  0  0  0  0  0  0  0  0
   24.5924   -4.8478   24.5098 C   0  0  0  0  0  0  0  0  0  0  0  0
   19.0873   -5.6887   23.8223 H   0  0  0  0  0  0  0  0  0  0  0  0
   19.7308   -6.7540   24.8795 H   0  0  0  0  0  0  0  0  0  0  0  0
   19.4445   -5.2148   25.3437 H   0  0  0  0  0  0  0  0  0  0  0  0
   14.8154   -0.6032   19.4502 H   0  0  0  0  0  0  0  0  0  0  0  0
   15.3437   -1.5597   20.6638 H   0  0  0  0  0  0  0  0  0  0  0  0
   16.1678   -0.2047   20.2743 H   0  0  0  0  0  0  0  0  0  0  0  0
   19.5954   -4.3201   16.6044 H   0  0  0  0  0  0  0  0  0  0  0  0
   18.2473   -4.7460   15.7872 H   0  0  0  0  0  0  0  0  0  0  0  0
   19.0514   -3.3836   15.3822 H   0  0  0  0  0  0  0  0  0  0  0  0
   15.2596   -1.4681   17.3337 H   0  0  0  0  0  0  0  0  0  0  0  0
   22.2389   -5.7339   25.8990 H   0  0  0  0  0  0  0  0  0  0  0  0
   28.2466   -4.3090   25.4498 H   0  0  0  0  0  0  0  0  0  0  0  0
   26.7119   -5.1835   27.0524 H   0  0  0  0  0  0  0  0  0  0  0  0
   27.5127   -3.8596   23.2220 H   0  0  0  0  0  0  0  0  0  0  0  0
   21.2403   -2.9978   21.0568 H   0  0  0  0  0  0  0  0  0  0  0  0
   20.0930   -2.7909   22.2003 H   0  0  0  0  0  0  0  0  0  0  0  0
   20.7946   -5.3014   20.9813 H   0  0  0  0  0  0  0  0  0  0  0  0
   19.5686   -5.1217   22.0450 H   0  0  0  0  0  0  0  0  0  0  0  0
   24.4018   -5.4389   26.5005 H   0  0  0  0  0  0  0  0  0  0  0  0
   25.2370   -4.2438   22.6243 H   0  0  0  0  0  0  0  0  0  0  0  0
  1  5  1  0  0  0  0
  1 19  2  0  0  0  0
  2 10  1  0  0  0  0
  2 23  2  0  0  0  0
  3 19  1  0  0  0  0
  3 21  2  0  0  0  0
  4 20  2  0  0  0  0
  4 24  1  0  0  0  0
  5 21  1  0  0  0  0
  5 22  1  0  0  0  0
  6  7  1  0  0  0  0
  6 11  1  0  0  0  0
  6 20  1  0  0  0  0
  8 22  1  0  0  0  0
  9 23  1  0  0  0  0
 10 22  2  0  0  0  0
 11 24  2  0  0  0  0
 12 13  2  0  0  0  0
 12 14  1  0  0  0  0
 13 17  1  0  0  0  0
 14 18  2  0  0  0  0
 15 16  1  0  0  0  0
 15 19  1  0  0  0  0
 16 20  1  0  0  0  0
 17 25  2  0  0  0  0
 18 25  1  0  0  0  0
 21 23  1  0  0  0  0
 24 25  1  0  0  0  0
  7 26  1  0  0  0  0
  7 27  1  0  0  0  0
  7 28  1  0  0  0  0
  8 29  1  0  0  0  0
  8 30  1  0  0  0  0
  8 31  1  0  0  0  0
  9 32  1  0  0  0  0
  9 33  1  0  0  0  0
  9 34  1  0  0  0  0
 10 35  1  0  0  0  0
 11 36  1  0  0  0  0
 12 37  1  0  0  0  0
 13 38  1  0  0  0  0
 14 39  1  0  0  0  0
 15 40  1  0  0  0  0
 15 41  1  0  0  0  0
 16 42  1  0  0  0  0
 16 43  1  0  0  0  0
 17 44  1  0  0  0  0
 18 45  1  0  0  0  0
M  END
> <pdb_id>
7QQ4

> <uniprot_id>
Q9Y233

> <usmiles>
N=1N2C(=NC1CCC3=NC(c4ccccc4)=CN3C)C(=NC=C2C)C

$$$$
EJ7_A_407
          07202405583D 1   1.00000     0.00000     0
            
 45 48  0  0  0  0            999 V2000
   70.3308   50.1803   10.3489 F   0  0  0  0  0  0  0  0  0  0  0  0
   73.3031   47.1300    5.4674 O   0  0  0  0  0  0  0  0  0  0  0  0
   71.3332   44.4269    0.2533 O   0  0  0  0  0  0  0  0  0  0  0  0
   66.3814   47.1562    8.1694 O   0  0  0  0  0  0  0  0  0  0  0  0
   65.6483   48.2088    6.2011 N   0  0  0  0  0  0  0  0  0  0  0  0
   72.7717   44.8789    2.0713 N   0  0  0  0  0  0  0  0  0  0  0  0
   70.8924   46.5284    2.9931 N   0  0  0  0  0  0  0  0  0  0  0  0
   67.0865   49.2937    7.6495 N   0  0  0  0  0  0  0  0  0  0  0  0
   71.1210   47.6945    5.4470 N   0  0  0  0  0  0  0  0  0  0  0  0
   72.2391   43.6130   -0.3020 C   0  0  0  0  0  0  0  0  0  0  0  0
   67.7386   50.8435    9.2800 C   0  0  0  0  0  0  0  0  0  0  0  0
   70.6886   45.8848    1.8908 C   0  0  0  0  0  0  0  0  0  0  0  0
   72.9722   45.5400    3.1962 C   0  0  0  0  0  0  0  0  0  0  0  0
   71.7958   49.3723    8.7170 C   0  0  0  0  0  0  0  0  0  0  0  0
   72.0769   48.7662    7.5224 C   0  0  0  0  0  0  0  0  0  0  0  0
   69.7497   48.6031    7.1827 C   0  0  0  0  0  0  0  0  0  0  0  0
   66.1772   48.0673   10.1986 C   0  0  0  0  0  0  0  0  0  0  0  0
   66.4191   48.2475    7.3673 C   0  0  0  0  0  0  0  0  0  0  0  0
   72.2026   47.1001    4.9145 C   0  0  0  0  0  0  0  0  0  0  0  0
   70.5147   49.5951    9.1723 C   0  0  0  0  0  0  0  0  0  0  0  0
   71.6412   45.0307    1.3942 C   0  0  0  0  0  0  0  0  0  0  0  0
   71.0290   48.3890    6.7172 C   0  0  0  0  0  0  0  0  0  0  0  0
   72.0127   46.4150    3.6883 C   0  0  0  0  0  0  0  0  0  0  0  0
   69.4265   49.2084    8.3805 C   0  0  0  0  0  0  0  0  0  0  0  0
   67.0209   47.0995    9.4332 C   0  0  2  0  0  0  0  0  0  0  0  0
   67.6144   48.4027    9.8951 C   0  0  1  0  0  0  0  0  0  0  0  0
   67.9368   49.4299    8.8102 C   0  0  2  0  0  0  0  0  0  0  0  0
   65.6375   48.9957    5.5682 H   0  0  0  0  0  0  0  0  0  0  0  0
   65.0961   47.3923    5.9784 H   0  0  0  0  0  0  0  0  0  0  0  0
   70.2833   47.6483    4.8991 H   0  0  0  0  0  0  0  0  0  0  0  0
   71.8794   43.2540   -1.1635 H   0  0  0  0  0  0  0  0  0  0  0  0
   72.4313   42.8550    0.3215 H   0  0  0  0  0  0  0  0  0  0  0  0
   73.0809   44.1231   -0.4783 H   0  0  0  0  0  0  0  0  0  0  0  0
   68.4456   51.4290    8.8858 H   0  0  0  0  0  0  0  0  0  0  0  0
   67.7992   50.8747   10.2768 H   0  0  0  0  0  0  0  0  0  0  0  0
   66.8382   51.1677    8.9917 H   0  0  0  0  0  0  0  0  0  0  0  0
   69.8278   46.0097    1.3961 H   0  0  0  0  0  0  0  0  0  0  0  0
   73.8258   45.4072    3.6989 H   0  0  0  0  0  0  0  0  0  0  0  0
   72.5604   49.6684    9.2888 H   0  0  0  0  0  0  0  0  0  0  0  0
   73.0232   48.6016    7.2422 H   0  0  0  0  0  0  0  0  0  0  0  0
   69.0054   48.2885    6.5936 H   0  0  0  0  0  0  0  0  0  0  0  0
   65.9005   47.8601   11.1381 H   0  0  0  0  0  0  0  0  0  0  0  0
   65.4406   48.5654    9.7407 H   0  0  0  0  0  0  0  0  0  0  0  0
   67.2560   46.1355    9.5543 H   0  0  0  0  0  0  0  0  0  0  0  0
   68.3849   48.6797   10.4634 H   0  0  0  0  0  0  0  0  0  0  0  0
  1 20  1  0  0  0  0
  2 19  2  0  0  0  0
  3 10  1  0  0  0  0
  3 21  1  0  0  0  0
  4 18  1  0  0  0  0
  4 25  1  0  0  0  0
  5 18  1  0  0  0  0
  5 28  1  0  0  0  0
  5 29  1  0  0  0  0
  6 13  2  0  0  0  0
  6 21  1  0  0  0  0
  7 12  1  0  0  0  0
  7 23  2  0  0  0  0
  8 18  2  0  0  0  0
  8 27  1  0  0  0  0
  9 19  1  0  0  0  0
  9 22  1  0  0  0  0
  9 30  1  0  0  0  0
 10 31  1  0  0  0  0
 10 32  1  0  0  0  0
 10 33  1  0  0  0  0
 11 27  1  0  0  0  0
 11 34  1  0  0  0  0
 11 35  1  0  0  0  0
 11 36  1  0  0  0  0
 12 21  2  0  0  0  0
 12 37  1  0  0  0  0
 13 23  1  0  0  0  0
 13 38  1  0  0  0  0
 14 15  1  0  0  0  0
 14 20  2  0  0  0  0
 14 39  1  0  0  0  0
 15 22  2  0  0  0  0
 15 40  1  0  0  0  0
 16 22  1  0  0  0  0
 16 24  2  0  0  0  0
 16 41  1  0  0  0  0
 17 25  1  0  0  0  0
 17 26  1  0  0  0  0
 17 42  1  0  0  0  0
 17 43  1  0  0  0  0
 19 23  1  0  0  0  0
 20 24  1  0  0  0  0
 24 27  1  0  0  0  0
 25 26  1  0  0  0  0
 25 44  1  0  0  0  0
 26 27  1  0  0  0  0
 26 45  1  0  0  0  0
M  END
> <pdb_id>
6C2I

> <uniprot_id>
P56817

> <usmiles>
Fc1c(cc(NC(=O)c2ncc(OC)nc2)cc1)[C@]3(N=C(O[C@H]4[C@@H]3C4)N)C

$$$$
EJE_A_401
          07212403203D 1   1.00000     0.00000     0
            
 48 51  0  0  0  0            999 V2000
    2.5940    9.8790  -18.9580 F   0  0  0  0  0  0  0  0  0  0  0  0
   -4.8050    9.3230  -26.2140 N   0  0  0  0  0  0  0  0  0  0  0  0
   -4.4750    5.4430  -19.8120 N   0  0  0  0  0  0  0  0  0  0  0  0
   -1.8900   11.3840  -19.1500 N   0  0  0  0  0  0  0  0  0  0  0  0
   -3.3460    6.4740  -18.1920 N   0  0  0  0  0  0  0  0  0  0  0  0
   -2.7260    6.6870  -16.8860 C   0  0  0  0  0  0  0  0  0  0  0  0
   -6.9740    7.1950  -20.9110 C   0  0  0  0  0  0  0  0  0  0  0  0
   -2.0550    7.0980  -22.3730 C   0  0  0  0  0  0  0  0  0  0  0  0
   -4.0120    5.3650  -18.5830 C   0  0  0  0  0  0  0  0  0  0  0  0
   -5.6800    8.2770  -25.6230 C   0  0  0  0  0  0  0  0  0  0  0  0
   -3.1820   11.0940  -19.1910 C   0  0  0  0  0  0  0  0  0  0  0  0
    0.8930    8.2660  -19.0970 C   0  0  0  0  0  0  0  0  0  0  0  0
   -3.7010    9.8120  -19.2810 C   0  0  0  0  0  0  0  0  0  0  0  0
   -0.4330    7.9530  -19.1900 C   0  0  0  0  0  0  0  0  0  0  0  0
    0.3770   10.6230  -19.0860 C   0  0  0  0  0  0  0  0  0  0  0  0
   -6.2190    7.7090  -23.2330 C   0  0  0  0  0  0  0  0  0  0  0  0
   -3.9340    7.6800  -23.9060 C   0  0  0  0  0  0  0  0  0  0  0  0
    1.2670    9.5950  -19.0730 C   0  0  0  0  0  0  0  0  0  0  0  0
   -1.0060   10.3300  -19.1440 C   0  0  0  0  0  0  0  0  0  0  0  0
   -4.1220    6.7100  -20.2630 C   0  0  0  0  0  0  0  0  0  0  0  0
   -3.4170    7.3760  -19.2860 C   0  0  0  0  0  0  0  0  0  0  0  0
   -5.2680    7.8930  -24.2280 C   0  0  0  0  0  0  0  0  0  0  0  0
   -5.8750    7.3500  -21.9330 C   0  0  0  0  0  0  0  0  0  0  0  0
   -3.5290    7.2890  -22.6320 C   0  0  0  0  0  0  0  0  0  0  0  0
   -1.4270    8.9710  -19.1880 C   0  0  0  0  0  0  0  0  0  0  0  0
   -2.8400    8.7370  -19.2630 C   0  0  0  0  0  0  0  0  0  0  0  0
   -4.5130    7.1400  -21.6300 C   0  0  0  0  0  0  0  0  0  0  0  0
   -5.1218    9.5400  -27.1373 H   0  0  0  0  0  0  0  0  0  0  0  0
   -4.8402   10.1462  -25.6474 H   0  0  0  0  0  0  0  0  0  0  0  0
   -2.3008    7.5918  -16.8625 H   0  0  0  0  0  0  0  0  0  0  0  0
   -3.4238    6.6280  -16.1721 H   0  0  0  0  0  0  0  0  0  0  0  0
   -2.0292    5.9870  -16.7297 H   0  0  0  0  0  0  0  0  0  0  0  0
   -6.5764    6.9366  -20.0306 H   0  0  0  0  0  0  0  0  0  0  0  0
   -7.4637    8.0615  -20.8141 H   0  0  0  0  0  0  0  0  0  0  0  0
   -7.6103    6.4842  -21.2109 H   0  0  0  0  0  0  0  0  0  0  0  0
   -1.9169    6.8194  -21.4226 H   0  0  0  0  0  0  0  0  0  0  0  0
   -1.6983    6.3903  -22.9829 H   0  0  0  0  0  0  0  0  0  0  0  0
   -1.5728    7.9576  -22.5418 H   0  0  0  0  0  0  0  0  0  0  0  0
   -4.1401    4.5650  -17.9968 H   0  0  0  0  0  0  0  0  0  0  0  0
   -5.6418    7.4632  -26.2029 H   0  0  0  0  0  0  0  0  0  0  0  0
   -6.6178    8.6230  -25.5954 H   0  0  0  0  0  0  0  0  0  0  0  0
   -3.8296   11.8551  -19.1544 H   0  0  0  0  0  0  0  0  0  0  0  0
    1.5827    7.5437  -19.0470 H   0  0  0  0  0  0  0  0  0  0  0  0
   -4.6878    9.6693  -19.3580 H   0  0  0  0  0  0  0  0  0  0  0  0
   -0.7093    6.9945  -19.2605 H   0  0  0  0  0  0  0  0  0  0  0  0
    0.6948   11.5707  -19.0551 H   0  0  0  0  0  0  0  0  0  0  0  0
   -7.1846    7.8389  -23.4583 H   0  0  0  0  0  0  0  0  0  0  0  0
   -3.2399    7.8120  -24.6136 H   0  0  0  0  0  0  0  0  0  0  0  0
  1 18  1  0  0  0  0
  2 10  1  0  0  0  0
  3  9  2  0  0  0  0
  3 20  1  0  0  0  0
  4 11  2  0  0  0  0
  4 19  1  0  0  0  0
  5  6  1  0  0  0  0
  5  9  1  0  0  0  0
  5 21  1  0  0  0  0
  7 23  1  0  0  0  0
  8 24  1  0  0  0  0
 10 22  1  0  0  0  0
 11 13  1  0  0  0  0
 12 14  1  0  0  0  0
 12 18  2  0  0  0  0
 13 26  2  0  0  0  0
 14 25  2  0  0  0  0
 15 18  1  0  0  0  0
 15 19  2  0  0  0  0
 16 22  1  0  0  0  0
 16 23  2  0  0  0  0
 17 22  2  0  0  0  0
 17 24  1  0  0  0  0
 19 25  1  0  0  0  0
 20 21  2  0  0  0  0
 20 27  1  0  0  0  0
 21 26  1  0  0  0  0
 23 27  1  0  0  0  0
 24 27  2  0  0  0  0
 25 26  1  0  0  0  0
  2 28  1  0  0  0  0
  2 29  1  0  0  0  0
  6 30  1  0  0  0  0
  6 31  1  0  0  0  0
  6 32  1  0  0  0  0
  7 33  1  0  0  0  0
  7 34  1  0  0  0  0
  7 35  1  0  0  0  0
  8 36  1  0  0  0  0
  8 37  1  0  0  0  0
  8 38  1  0  0  0  0
  9 39  1  0  0  0  0
 10 40  1  0  0  0  0
 10 41  1  0  0  0  0
 11 42  1  0  0  0  0
 12 43  1  0  0  0  0
 13 44  1  0  0  0  0
 14 45  1  0  0  0  0
 15 46  1  0  0  0  0
 16 47  1  0  0  0  0
 17 48  1  0  0  0  0
M  END
> <pdb_id>
6G2O

> <uniprot_id>
Q9BZ95

> <usmiles>
Fc1cc2nccc(c2cc1)C=3N(C=NC3c4c(cc(cc4C)CN)C)C

$$$$
EJK_A_301
          07202405373D 1   1.00000     0.00000     0
            
 45 47  0  0  0  0            999 V2000
    7.7098   16.8991  -14.3140 Cl  0  0  0  0  0  0  0  0  0  0  0  0
   11.7800   21.9754  -19.9700 F   0  0  0  0  0  0  0  0  0  0  0  0
    9.9428   23.5395  -15.8984 F   0  0  0  0  0  0  0  0  0  0  0  0
   11.4052   19.5025  -19.1150 F   0  0  0  0  0  0  0  0  0  0  0  0
    9.5872   21.0538  -15.0601 F   0  0  0  0  0  0  0  0  0  0  0  0
   13.8856   13.6392  -13.4531 O   0  0  0  0  0  0  0  0  0  0  0  0
   10.6058   11.5137  -14.8360 O   0  0  0  0  0  0  0  0  0  0  0  0
    9.2413   11.9867  -12.3769 O   0  0  0  0  0  0  0  0  0  0  0  0
   11.2271   13.7372  -11.3510 O   0  0  0  0  0  0  0  0  0  0  0  0
    9.5611   15.0017  -15.1574 O   0  0  0  0  0  0  0  0  0  0  0  0
   11.7146   14.1537  -14.9651 O   0  0  0  0  0  0  0  0  0  0  0  0
   11.1934   25.2059  -18.7087 N   0  0  0  0  0  0  0  0  0  0  0  0
   11.0499   24.1200  -18.3739 C   0  0  0  0  0  0  0  0  0  0  0  0
   10.9487   16.4524  -16.5517 C   0  0  0  0  0  0  0  0  0  0  0  0
   11.1145   17.7384  -17.0579 C   0  0  0  0  0  0  0  0  0  0  0  0
    9.2255   18.5019  -15.8297 C   0  0  0  0  0  0  0  0  0  0  0  0
   13.1535   14.8265  -13.1579 C   0  0  0  0  0  0  0  0  0  0  0  0
    9.0166   17.2176  -15.3664 C   0  0  0  0  0  0  0  0  0  0  0  0
   11.2389   21.7198  -18.7597 C   0  0  0  0  0  0  0  0  0  0  0  0
   10.3133   22.5095  -16.7106 C   0  0  0  0  0  0  0  0  0  0  0  0
   11.1012   20.4095  -18.3171 C   0  0  0  0  0  0  0  0  0  0  0  0
   10.1299   21.2008  -16.2869 C   0  0  0  0  0  0  0  0  0  0  0  0
    9.8883   16.2037  -15.7017 C   0  0  0  0  0  0  0  0  0  0  0  0
   10.3297   18.8092  -16.6164 C   0  0  0  0  0  0  0  0  0  0  0  0
   10.8670   22.7751  -17.9485 C   0  0  0  0  0  0  0  0  0  0  0  0
   10.4269   20.1120  -17.1310 C   0  0  0  0  0  0  0  0  0  0  0  0
   10.3725   13.8554  -15.3987 C   0  0  1  0  0  0  0  0  0  0  0  0
    9.8004   12.6867  -14.6125 C   0  0  2  0  0  0  0  0  0  0  0  0
    9.7945   13.0596  -13.1451 C   0  0  2  0  0  0  0  0  0  0  0  0
   11.2191   13.3367  -12.7158 C   0  0  1  0  0  0  0  0  0  0  0  0
   11.7361   14.4842  -13.5614 C   0  0  2  0  0  0  0  0  0  0  0  0
   14.8477   13.7725  -13.2156 H   0  0  0  0  0  0  0  0  0  0  0  0
   10.6061   11.2902  -15.8105 H   0  0  0  0  0  0  0  0  0  0  0  0
    9.7878   11.1611  -12.5150 H   0  0  0  0  0  0  0  0  0  0  0  0
   10.8871   12.9895  -10.7815 H   0  0  0  0  0  0  0  0  0  0  0  0
   11.6264   15.6503  -16.8428 H   0  0  0  0  0  0  0  0  0  0  0  0
   11.9785   17.9465  -17.6883 H   0  0  0  0  0  0  0  0  0  0  0  0
    8.5440   19.2973  -15.5277 H   0  0  0  0  0  0  0  0  0  0  0  0
   13.6566   15.5153  -13.7753 H   0  0  0  0  0  0  0  0  0  0  0  0
   13.3338   14.9061  -12.1233 H   0  0  0  0  0  0  0  0  0  0  0  0
   10.3713   13.6177  -16.4623 H   0  0  0  0  0  0  0  0  0  0  0  0
    8.7801   12.4935  -14.9416 H   0  0  0  0  0  0  0  0  0  0  0  0
    9.1917   13.9570  -13.0008 H   0  0  0  0  0  0  0  0  0  0  0  0
   11.8361   12.4500  -12.8627 H   0  0  0  0  0  0  0  0  0  0  0  0
   11.1022   15.3554  -13.4009 H   0  0  0  0  0  0  0  0  0  0  0  0
  1 18  1  0  0  0  0
  2 19  1  0  0  0  0
  3 20  1  0  0  0  0
  4 21  1  0  0  0  0
  5 22  1  0  0  0  0
  6 17  1  0  0  0  0
  6 32  1  0  0  0  0
  7 28  1  0  0  0  0
  7 33  1  0  0  0  0
  8 29  1  0  0  0  0
  8 34  1  0  0  0  0
  9 30  1  0  0  0  0
  9 35  1  0  0  0  0
 10 23  1  0  0  0  0
 10 27  1  0  0  0  0
 11 27  1  0  0  0  0
 11 31  1  0  0  0  0
 12 13  3  0  0  0  0
 13 25  1  0  0  0  0
 14 15  2  0  0  0  0
 14 23  1  0  0  0  0
 14 36  1  0  0  0  0
 15 24  1  0  0  0  0
 15 37  1  0  0  0  0
 16 18  1  0  0  0  0
 16 24  2  0  0  0  0
 16 38  1  0  0  0  0
 17 31  1  0  0  0  0
 17 39  1  0  0  0  0
 17 40  1  0  0  0  0
 18 23  2  0  0  0  0
 19 21  1  0  0  0  0
 19 25  2  0  0  0  0
 20 22  2  0  0  0  0
 20 25  1  0  0  0  0
 21 26  2  0  0  0  0
 22 26  1  0  0  0  0
 24 26  1  0  0  0  0
 27 28  1  0  0  0  0
 27 41  1  0  0  0  0
 28 29  1  0  0  0  0
 28 42  1  0  0  0  0
 29 30  1  0  0  0  0
 29 43  1  0  0  0  0
 30 31  1  0  0  0  0
 30 44  1  0  0  0  0
 31 45  1  0  0  0  0
M  END
> <pdb_id>
6G2R

> <uniprot_id>
P08191

> <usmiles>
Clc1c(O[C@H]2O[C@@H]([C@@H](O)[C@H](O)[C@@H]2O)CO)ccc(c3c(F)c(F)c(C#N)c(F)c3F)c1

$$$$
EJN_E_301
          07202405373D 1   1.00000     0.00000     0
            
 44 46  0  0  0  0            999 V2000
   12.2898   23.8596  -17.9764 F   0  0  0  0  0  0  0  0  0  0  0  0
   11.7051   22.0529  -19.9308 F   0  0  0  0  0  0  0  0  0  0  0  0
   11.9504   23.1747  -15.3569 F   0  0  0  0  0  0  0  0  0  0  0  0
   10.8699   19.5831  -19.2810 F   0  0  0  0  0  0  0  0  0  0  0  0
   11.1346   20.7047  -14.7036 F   0  0  0  0  0  0  0  0  0  0  0  0
   13.9570   13.6816  -13.5208 O   0  0  0  0  0  0  0  0  0  0  0  0
   10.5002   11.4434  -14.8613 O   0  0  0  0  0  0  0  0  0  0  0  0
    9.2296   12.0098  -12.4036 O   0  0  0  0  0  0  0  0  0  0  0  0
   11.1400   13.9237  -11.4778 O   0  0  0  0  0  0  0  0  0  0  0  0
    9.4355   14.8550  -15.3721 O   0  0  0  0  0  0  0  0  0  0  0  0
   11.6069   14.0698  -15.1111 O   0  0  0  0  0  0  0  0  0  0  0  0
   10.8969   16.2764  -16.7119 C   0  0  0  0  0  0  0  0  0  0  0  0
    9.1257   17.1768  -15.3665 C   0  0  0  0  0  0  0  0  0  0  0  0
   11.2583   17.5590  -17.0829 C   0  0  0  0  0  0  0  0  0  0  0  0
    9.4941   18.4543  -15.7455 C   0  0  0  0  0  0  0  0  0  0  0  0
   13.1386   14.8421  -13.4770 C   0  0  0  0  0  0  0  0  0  0  0  0
   11.8501   22.6313  -17.6513 C   0  0  0  0  0  0  0  0  0  0  0  0
   11.5682   21.7138  -18.6358 C   0  0  0  0  0  0  0  0  0  0  0  0
   11.6960   22.2810  -16.3298 C   0  0  0  0  0  0  0  0  0  0  0  0
   11.1452   20.4509  -18.2920 C   0  0  0  0  0  0  0  0  0  0  0  0
   11.2755   21.0120  -16.0064 C   0  0  0  0  0  0  0  0  0  0  0  0
    9.8344   16.0869  -15.8436 C   0  0  0  0  0  0  0  0  0  0  0  0
   10.5695   18.6708  -16.6034 C   0  0  0  0  0  0  0  0  0  0  0  0
   10.9924   20.0551  -16.9704 C   0  0  0  0  0  0  0  0  0  0  0  0
   10.2944   13.7477  -15.5442 C   0  0  1  0  0  0  0  0  0  0  0  0
    9.7238   12.6227  -14.6925 C   0  0  2  0  0  0  0  0  0  0  0  0
    9.7314   13.0502  -13.2328 C   0  0  2  0  0  0  0  0  0  0  0  0
   11.1422   13.4326  -12.8131 C   0  0  1  0  0  0  0  0  0  0  0  0
   11.6873   14.5126  -13.7441 C   0  0  2  0  0  0  0  0  0  0  0  0
   14.7140   13.8342  -12.8970 H   0  0  0  0  0  0  0  0  0  0  0  0
   10.5024   10.9266  -14.0136 H   0  0  0  0  0  0  0  0  0  0  0  0
    8.4786   12.3677  -11.8604 H   0  0  0  0  0  0  0  0  0  0  0  0
   11.3924   13.1801  -10.8694 H   0  0  0  0  0  0  0  0  0  0  0  0
   11.4721   15.4488  -17.1238 H   0  0  0  0  0  0  0  0  0  0  0  0
    8.2812   17.0272  -14.6956 H   0  0  0  0  0  0  0  0  0  0  0  0
   12.0986   17.6888  -17.7636 H   0  0  0  0  0  0  0  0  0  0  0  0
    8.9250   19.2981  -15.3597 H   0  0  0  0  0  0  0  0  0  0  0  0
   13.2289   15.3853  -12.5376 H   0  0  0  0  0  0  0  0  0  0  0  0
   13.5491   15.4757  -14.2614 H   0  0  0  0  0  0  0  0  0  0  0  0
   10.4253   13.4496  -16.5833 H   0  0  0  0  0  0  0  0  0  0  0  0
    8.7282   12.3240  -15.0177 H   0  0  0  0  0  0  0  0  0  0  0  0
    9.0161   13.8576  -13.0808 H   0  0  0  0  0  0  0  0  0  0  0  0
   11.7983   12.5655  -12.7543 H   0  0  0  0  0  0  0  0  0  0  0  0
   11.1189   15.4321  -13.6168 H   0  0  0  0  0  0  0  0  0  0  0  0
  1 17  1  0  0  0  0
  2 18  1  0  0  0  0
  3 19  1  0  0  0  0
  4 20  1  0  0  0  0
  5 21  1  0  0  0  0
  6 16  1  0  0  0  0
  6 30  1  0  0  0  0
  7 26  1  0  0  0  0
  7 31  1  0  0  0  0
  8 27  1  0  0  0  0
  8 32  1  0  0  0  0
  9 28  1  0  0  0  0
  9 33  1  0  0  0  0
 10 22  1  0  0  0  0
 10 25  1  0  0  0  0
 11 25  1  0  0  0  0
 11 29  1  0  0  0  0
 12 14  2  0  0  0  0
 12 22  1  0  0  0  0
 12 34  1  0  0  0  0
 13 15  1  0  0  0  0
 13 22  2  0  0  0  0
 13 35  1  0  0  0  0
 14 23  1  0  0  0  0
 14 36  1  0  0  0  0
 15 23  2  0  0  0  0
 15 37  1  0  0  0  0
 16 29  1  0  0  0  0
 16 38  1  0  0  0  0
 16 39  1  0  0  0  0
 17 18  2  0  0  0  0
 17 19  1  0  0  0  0
 18 20  1  0  0  0  0
 19 21  2  0  0  0  0
 20 24  2  0  0  0  0
 21 24  1  0  0  0  0
 23 24  1  0  0  0  0
 25 26  1  0  0  0  0
 25 40  1  0  0  0  0
 26 27  1  0  0  0  0
 26 41  1  0  0  0  0
 27 28  1  0  0  0  0
 27 42  1  0  0  0  0
 28 29  1  0  0  0  0
 28 43  1  0  0  0  0
 29 44  1  0  0  0  0
M  END
> <pdb_id>
6G2S

> <uniprot_id>
P08191

> <usmiles>
Fc1c(F)c(F)c(c(F)c1F)c2ccc(O[C@H]3O[C@@H]([C@@H](O)[C@H](O)[C@@H]3O)CO)cc2

$$$$
EK5_A_401
          07212404193D 1   1.00000     0.00000     0
            
 49 53  0  0  0  0            999 V2000
    7.4084   12.2618   44.9070 Cl  0  0  0  0  0  0  0  0  0  0  0  0
    4.7590    6.6995   46.6429 O   0  0  0  0  0  0  0  0  0  0  0  0
    2.2905   12.4553   48.8419 O   0  0  0  0  0  0  0  0  0  0  0  0
   12.4864    7.0544   44.0778 N   0  0  0  0  0  0  0  0  0  0  0  0
   11.3970    6.5549   44.7317 N   0  0  0  0  0  0  0  0  0  0  0  0
    7.5128    6.2275   46.5940 N   0  0  0  0  0  0  0  0  0  0  0  0
    4.8978    8.0996   44.8833 N   0  0  0  0  0  0  0  0  0  0  0  0
   12.0656    8.1824   43.5180 C   0  0  0  0  0  0  0  0  0  0  0  0
    8.8335    6.1847   46.2833 C   0  0  0  0  0  0  0  0  0  0  0  0
    9.4181   11.2620   41.6166 C   0  0  0  0  0  0  0  0  0  0  0  0
    8.5969   11.9425   42.5069 C   0  0  0  0  0  0  0  0  0  0  0  0
    3.9928   11.5430   47.2768 C   0  0  0  0  0  0  0  0  0  0  0  0
   10.1072   10.1264   42.0170 C   0  0  0  0  0  0  0  0  0  0  0  0
    4.2311   10.5648   46.3227 C   0  0  0  0  0  0  0  0  0  0  0  0
    9.1928   10.3613   44.2224 C   0  0  0  0  0  0  0  0  0  0  0  0
    7.8280    7.5784   44.8406 C   0  0  0  0  0  0  0  0  0  0  0  0
    2.0442    9.6455   46.6725 C   0  0  0  0  0  0  0  0  0  0  0  0
    0.9349   12.0918   49.2302 C   0  0  0  0  0  0  0  0  0  0  0  0
    3.5179    8.5575   44.9457 C   0  0  0  0  0  0  0  0  0  0  0  0
    0.5216   10.8833   48.3992 C   0  0  0  0  0  0  0  0  0  0  0  0
    8.4942   11.4701   43.7967 C   0  0  0  0  0  0  0  0  0  0  0  0
    5.4328    7.2849   45.7953 C   0  0  0  0  0  0  0  0  0  0  0  0
    2.7579   11.5605   47.9076 C   0  0  0  0  0  0  0  0  0  0  0  0
    6.8930    7.0818   45.7136 C   0  0  0  0  0  0  0  0  0  0  0  0
   10.2699    7.2793   44.5664 C   0  0  0  0  0  0  0  0  0  0  0  0
    3.2645    9.6038   46.0023 C   0  0  0  0  0  0  0  0  0  0  0  0
    9.0800    6.9823   45.1822 C   0  0  0  0  0  0  0  0  0  0  0  0
    9.9984    9.6642   43.3246 C   0  0  0  0  0  0  0  0  0  0  0  0
    1.7828   10.6250   47.6177 C   0  0  0  0  0  0  0  0  0  0  0  0
   10.7023    8.4287   43.7592 C   0  0  0  0  0  0  0  0  0  0  0  0
   11.4248    5.6063   45.0945 H   0  0  0  0  0  0  0  0  0  0  0  0
    7.1208    5.8972   47.4681 H   0  0  0  0  0  0  0  0  0  0  0  0
    5.4072    8.4345   44.0725 H   0  0  0  0  0  0  0  0  0  0  0  0
   12.7395    8.8346   42.9649 H   0  0  0  0  0  0  0  0  0  0  0  0
    9.5486    5.5940   46.8550 H   0  0  0  0  0  0  0  0  0  0  0  0
    9.5202   11.6315   40.5972 H   0  0  0  0  0  0  0  0  0  0  0  0
    8.0449   12.8265   42.1946 H   0  0  0  0  0  0  0  0  0  0  0  0
    4.7454   12.2888   47.5314 H   0  0  0  0  0  0  0  0  0  0  0  0
   10.7320    9.5830   41.3087 H   0  0  0  0  0  0  0  0  0  0  0  0
    5.1963   10.5592   45.8172 H   0  0  0  0  0  0  0  0  0  0  0  0
    9.0939   10.0261   45.2520 H   0  0  0  0  0  0  0  0  0  0  0  0
    7.6473    8.2519   44.0048 H   0  0  0  0  0  0  0  0  0  0  0  0
    1.2747    8.9043   46.4610 H   0  0  0  0  0  0  0  0  0  0  0  0
    0.3051   12.9599   49.0537 H   0  0  0  0  0  0  0  0  0  0  0  0
    0.9645   11.9030   50.3017 H   0  0  0  0  0  0  0  0  0  0  0  0
    3.1972    8.9221   43.9698 H   0  0  0  0  0  0  0  0  0  0  0  0
    2.8617    7.7169   45.1609 H   0  0  0  0  0  0  0  0  0  0  0  0
   -0.3156   11.1066   47.7406 H   0  0  0  0  0  0  0  0  0  0  0  0
    0.2164   10.0318   49.0067 H   0  0  0  0  0  0  0  0  0  0  0  0
  1 21  1  0  0  0  0
  2 22  2  0  0  0  0
  3 18  1  0  0  0  0
  3 23  1  0  0  0  0
  4  5  1  0  0  0  0
  4  8  2  0  0  0  0
  5 25  1  0  0  0  0
  5 31  1  0  0  0  0
  6  9  1  0  0  0  0
  6 24  1  0  0  0  0
  6 32  1  0  0  0  0
  7 19  1  0  0  0  0
  7 22  1  0  0  0  0
  7 33  1  0  0  0  0
  8 30  1  0  0  0  0
  8 34  1  0  0  0  0
  9 27  2  0  0  0  0
  9 35  1  0  0  0  0
 10 11  2  0  0  0  0
 10 13  1  0  0  0  0
 10 36  1  0  0  0  0
 11 21  1  0  0  0  0
 11 37  1  0  0  0  0
 12 14  2  0  0  0  0
 12 23  1  0  0  0  0
 12 38  1  0  0  0  0
 13 28  2  0  0  0  0
 13 39  1  0  0  0  0
 14 26  1  0  0  0  0
 14 40  1  0  0  0  0
 15 21  2  0  0  0  0
 15 28  1  0  0  0  0
 15 41  1  0  0  0  0
 16 24  2  0  0  0  0
 16 27  1  0  0  0  0
 16 42  1  0  0  0  0
 17 26  2  0  0  0  0
 17 29  1  0  0  0  0
 17 43  1  0  0  0  0
 18 20  1  0  0  0  0
 18 44  1  0  0  0  0
 18 45  1  0  0  0  0
 19 26  1  0  0  0  0
 19 46  1  0  0  0  0
 19 47  1  0  0  0  0
 20 29  1  0  0  0  0
 20 48  1  0  0  0  0
 20 49  1  0  0  0  0
 22 24  1  0  0  0  0
 23 29  2  0  0  0  0
 25 27  1  0  0  0  0
 25 30  2  0  0  0  0
 28 30  1  0  0  0  0
M  END
> <pdb_id>
4FV2

> <uniprot_id>
P28482

> <usmiles>
Clc1cc(ccc1)C2=C(NN=C2)C3=CNC(C(=O)NCc4cc5c(OCC5)cc4)=C3

$$$$
EK9_A_401
          07212404193D 1   1.00000     0.00000     0
            
 52 55  0  0  0  0            999 V2000
    4.1288    7.5160   46.3894 O   0  0  0  0  0  0  0  0  0  0  0  0
    1.9067   10.1889   43.3072 O   0  0  0  0  0  0  0  0  0  0  0  0
   12.1498    6.6541   44.0363 N   0  0  0  0  0  0  0  0  0  0  0  0
   10.0999    7.8837   43.4360 N   0  0  0  0  0  0  0  0  0  0  0  0
    6.2410    8.9580   43.8145 N   0  0  0  0  0  0  0  0  0  0  0  0
    3.8448    9.4859   45.1904 N   0  0  0  0  0  0  0  0  0  0  0  0
    9.2926    5.1421   45.9683 C   0  0  0  0  0  0  0  0  0  0  0  0
   11.3705    5.9229   44.8188 C   0  0  0  0  0  0  0  0  0  0  0  0
    7.5238    8.6623   43.4978 C   0  0  0  0  0  0  0  0  0  0  0  0
   13.6040   10.1940   40.5093 C   0  0  0  0  0  0  0  0  0  0  0  0
    2.0499   11.7251   49.4362 C   0  0  0  0  0  0  0  0  0  0  0  0
   12.1974   10.2429   40.6077 C   0  0  0  0  0  0  0  0  0  0  0  0
   14.2857    9.3074   41.3613 C   0  0  0  0  0  0  0  0  0  0  0  0
    0.9759   11.0504   48.8436 C   0  0  0  0  0  0  0  0  0  0  0  0
    3.3035   11.7415   48.8095 C   0  0  0  0  0  0  0  0  0  0  0  0
   11.5017    9.4713   41.5093 C   0  0  0  0  0  0  0  0  0  0  0  0
   13.6205    8.5105   42.2699 C   0  0  0  0  0  0  0  0  0  0  0  0
    1.1418   10.3921   47.6273 C   0  0  0  0  0  0  0  0  0  0  0  0
    3.4765   11.0956   47.5813 C   0  0  0  0  0  0  0  0  0  0  0  0
    6.9032    7.2811   45.1692 C   0  0  0  0  0  0  0  0  0  0  0  0
    1.8159   10.6892   44.6053 C   0  0  0  0  0  0  0  0  0  0  0  0
    4.5698    8.3215   45.5529 C   0  0  0  0  0  0  0  0  0  0  0  0
   11.4929    7.7049   43.3018 C   0  0  0  0  0  0  0  0  0  0  0  0
    5.8302    8.1289   44.8657 C   0  0  0  0  0  0  0  0  0  0  0  0
    9.3828    7.1271   44.2712 C   0  0  0  0  0  0  0  0  0  0  0  0
    9.9588    6.0576   45.0450 C   0  0  0  0  0  0  0  0  0  0  0  0
    7.9890    7.6137   44.3264 C   0  0  0  0  0  0  0  0  0  0  0  0
   12.1833    8.5462   42.4150 C   0  0  0  0  0  0  0  0  0  0  0  0
    2.3900   10.4137   46.9752 C   0  0  0  0  0  0  0  0  0  0  0  0
    2.4819    9.7277   45.6311 C   0  0  2  0  0  0  0  0  0  0  0  0
    1.0576   10.3861   42.8321 H   0  0  0  0  0  0  0  0  0  0  0  0
    5.6548    9.6394   43.3455 H   0  0  0  0  0  0  0  0  0  0  0  0
    4.3802   10.3198   44.9703 H   0  0  0  0  0  0  0  0  0  0  0  0
    9.8993    4.2908   46.2739 H   0  0  0  0  0  0  0  0  0  0  0  0
    8.9992    5.6260   46.8988 H   0  0  0  0  0  0  0  0  0  0  0  0
    8.3785    4.7057   45.5679 H   0  0  0  0  0  0  0  0  0  0  0  0
   11.8917    5.1285   45.3470 H   0  0  0  0  0  0  0  0  0  0  0  0
    8.0640    9.1950   42.7161 H   0  0  0  0  0  0  0  0  0  0  0  0
   14.1363   10.8258   39.7998 H   0  0  0  0  0  0  0  0  0  0  0  0
    1.9009   12.2413   50.3831 H   0  0  0  0  0  0  0  0  0  0  0  0
   11.6492   10.9050   39.9403 H   0  0  0  0  0  0  0  0  0  0  0  0
   15.3717    9.2635   41.2966 H   0  0  0  0  0  0  0  0  0  0  0  0
    0.0025   11.0420   49.3316 H   0  0  0  0  0  0  0  0  0  0  0  0
    4.1426   12.2546   49.2768 H   0  0  0  0  0  0  0  0  0  0  0  0
   10.4152    9.5568   41.5284 H   0  0  0  0  0  0  0  0  0  0  0  0
   14.1928    7.8466   42.9143 H   0  0  0  0  0  0  0  0  0  0  0  0
    0.3053    9.8600   47.1770 H   0  0  0  0  0  0  0  0  0  0  0  0
    4.4516   11.1527   47.1011 H   0  0  0  0  0  0  0  0  0  0  0  0
    6.8962    6.5051   45.9321 H   0  0  0  0  0  0  0  0  0  0  0  0
    0.7958   10.9420   44.8889 H   0  0  0  0  0  0  0  0  0  0  0  0
    2.3786   11.6220   44.5711 H   0  0  0  0  0  0  0  0  0  0  0  0
    1.9502    8.7773   45.6409 H   0  0  0  0  0  0  0  0  0  0  0  0
  1 22  2  0  0  0  0
  2 21  1  0  0  0  0
  2 31  1  0  0  0  0
  3  8  1  0  0  0  0
  3 23  2  0  0  0  0
  4 23  1  0  0  0  0
  4 25  2  0  0  0  0
  5  9  1  0  0  0  0
  5 24  1  0  0  0  0
  5 32  1  0  0  0  0
  6 22  1  0  0  0  0
  6 30  1  0  0  0  0
  6 33  1  0  0  0  0
  7 26  1  0  0  0  0
  7 34  1  0  0  0  0
  7 35  1  0  0  0  0
  7 36  1  0  0  0  0
  8 26  2  0  0  0  0
  8 37  1  0  0  0  0
  9 27  2  0  0  0  0
  9 38  1  0  0  0  0
 10 12  2  0  0  0  0
 10 13  1  0  0  0  0
 10 39  1  0  0  0  0
 11 14  2  0  0  0  0
 11 15  1  0  0  0  0
 11 40  1  0  0  0  0
 12 16  1  0  0  0  0
 12 41  1  0  0  0  0
 13 17  2  0  0  0  0
 13 42  1  0  0  0  0
 14 18  1  0  0  0  0
 14 43  1  0  0  0  0
 15 19  2  0  0  0  0
 15 44  1  0  0  0  0
 16 28  2  0  0  0  0
 16 45  1  0  0  0  0
 17 28  1  0  0  0  0
 17 46  1  0  0  0  0
 18 29  2  0  0  0  0
 18 47  1  0  0  0  0
 19 29  1  0  0  0  0
 19 48  1  0  0  0  0
 20 24  2  0  0  0  0
 20 27  1  0  0  0  0
 20 49  1  0  0  0  0
 21 30  1  0  0  0  0
 21 50  1  0  0  0  0
 21 51  1  0  0  0  0
 22 24  1  0  0  0  0
 23 28  1  0  0  0  0
 25 26  1  0  0  0  0
 25 27  1  0  0  0  0
 29 30  1  0  0  0  0
 30 52  1  0  0  0  0
M  END
> <pdb_id>
4FV5

> <uniprot_id>
P28482

> <usmiles>
O=C(N[C@@H](c1ccccc1)CO)C=2NC=C(c3nc(ncc3C)c4ccccc4)C2

$$$$
EKT_A_901
          07212403213D 1   1.00000     0.00000     0
            
 54 56  0  0  0  0            999 V2000
  -16.4030   10.3490   23.5830 F   0  0  0  0  0  0  0  0  0  0  0  0
  -11.9850    8.7840   24.0800 F   0  0  0  0  0  0  0  0  0  0  0  0
   -5.9250   13.1150   18.4900 O   0  0  0  0  0  0  0  0  0  0  0  0
  -14.6170    8.6050   24.8100 O   0  0  0  0  0  0  0  0  0  0  0  0
  -11.7330   13.7350   19.6810 N   0  0  0  0  0  0  0  0  0  0  0  0
  -10.7600   11.7750   20.4810 N   0  0  0  0  0  0  0  0  0  0  0  0
  -13.0170   12.3190   20.9880 N   0  0  0  0  0  0  0  0  0  0  0  0
   -8.1340   13.6830   18.6820 N   0  0  0  0  0  0  0  0  0  0  0  0
   -8.5560   11.1620   19.9940 N   0  0  0  0  0  0  0  0  0  0  0  0
   -7.9070   15.1130   18.2940 C   0  0  0  0  0  0  0  0  0  0  0  0
   -7.6970    7.7280   22.5560 C   0  0  0  0  0  0  0  0  0  0  0  0
   -8.5240    9.0560   24.5790 C   0  0  0  0  0  0  0  0  0  0  0  0
   -6.0520   10.8070   19.9050 C   0  0  0  0  0  0  0  0  0  0  0  0
   -7.5410   10.5710   17.8230 C   0  0  0  0  0  0  0  0  0  0  0  0
  -10.5710   14.1110   19.1030 C   0  0  0  0  0  0  0  0  0  0  0  0
   -8.8020    9.9260   20.7910 C   0  0  0  0  0  0  0  0  0  0  0  0
   -8.4680   10.1420   22.2870 C   0  0  0  0  0  0  0  0  0  0  0  0
  -14.6880   11.3650   22.3310 C   0  0  0  0  0  0  0  0  0  0  0  0
  -12.4120   10.5270   22.5400 C   0  0  0  0  0  0  0  0  0  0  0  0
  -11.8140   12.6300   20.4480 C   0  0  0  0  0  0  0  0  0  0  0  0
   -7.0850   12.8000   18.7510 C   0  0  0  0  0  0  0  0  0  0  0  0
  -15.1190   10.3950   23.2450 C   0  0  0  0  0  0  0  0  0  0  0  0
  -12.8450    9.6070   23.5060 C   0  0  0  0  0  0  0  0  0  0  0  0
   -9.5510   12.0870   19.9340 C   0  0  0  0  0  0  0  0  0  0  0  0
  -13.3190   11.4600   21.9960 C   0  0  0  0  0  0  0  0  0  0  0  0
  -14.2050    9.5410   23.8540 C   0  0  0  0  0  0  0  0  0  0  0  0
   -9.4280   13.2820   19.1720 C   0  0  0  0  0  0  0  0  0  0  0  0
   -8.6930    8.8210   23.0550 C   0  0  0  0  0  0  0  0  0  0  0  0
   -7.3280   11.3370   19.1830 C   0  0  0  0  0  0  0  0  0  0  0  0
  -13.9464    7.9989   25.2377 H   0  0  0  0  0  0  0  0  0  0  0  0
  -13.7996   12.7927   20.5841 H   0  0  0  0  0  0  0  0  0  0  0  0
   -8.7793   15.6019   18.2976 H   0  0  0  0  0  0  0  0  0  0  0  0
   -7.2825   15.5406   18.9476 H   0  0  0  0  0  0  0  0  0  0  0  0
   -7.5077   15.1505   17.3780 H   0  0  0  0  0  0  0  0  0  0  0  0
   -7.8193    7.5893   21.5732 H   0  0  0  0  0  0  0  0  0  0  0  0
   -6.7591    8.0242   22.7367 H   0  0  0  0  0  0  0  0  0  0  0  0
   -7.8744    6.8702   23.0383 H   0  0  0  0  0  0  0  0  0  0  0  0
   -9.1686    9.7581   24.8815 H   0  0  0  0  0  0  0  0  0  0  0  0
   -8.7049    8.2037   25.0698 H   0  0  0  0  0  0  0  0  0  0  0  0
   -7.5896    9.3577   24.7681 H   0  0  0  0  0  0  0  0  0  0  0  0
   -5.2544   10.9478   19.3185 H   0  0  0  0  0  0  0  0  0  0  0  0
   -5.9254   11.3022   20.7645 H   0  0  0  0  0  0  0  0  0  0  0  0
   -6.1577    9.8310   20.0951 H   0  0  0  0  0  0  0  0  0  0  0  0
   -6.7258   10.6715   17.2526 H   0  0  0  0  0  0  0  0  0  0  0  0
   -7.7009    9.6014   18.0081 H   0  0  0  0  0  0  0  0  0  0  0  0
   -8.3315   10.9539   17.3450 H   0  0  0  0  0  0  0  0  0  0  0  0
  -10.5190   14.9856   18.6210 H   0  0  0  0  0  0  0  0  0  0  0  0
   -8.2291    9.1887   20.4330 H   0  0  0  0  0  0  0  0  0  0  0  0
   -9.7652    9.6707   20.7063 H   0  0  0  0  0  0  0  0  0  0  0  0
   -9.0627   10.8526   22.6630 H   0  0  0  0  0  0  0  0  0  0  0  0
   -7.5129   10.4235   22.3789 H   0  0  0  0  0  0  0  0  0  0  0  0
  -15.3491   11.9899   21.9158 H   0  0  0  0  0  0  0  0  0  0  0  0
  -11.4591   10.5214   22.2366 H   0  0  0  0  0  0  0  0  0  0  0  0
   -9.6261    8.5058   22.8819 H   0  0  0  0  0  0  0  0  0  0  0  0
  1 22  1  0  0  0  0
  2 23  1  0  0  0  0
  3 21  2  0  0  0  0
  4 26  1  0  0  0  0
  5 15  1  0  0  0  0
  5 20  2  0  0  0  0
  6 20  1  0  0  0  0
  6 24  2  0  0  0  0
  7 20  1  0  0  0  0
  7 25  1  0  0  0  0
  8 10  1  0  0  0  0
  8 21  1  0  0  0  0
  8 27  1  0  0  0  0
  9 16  1  0  0  0  0
  9 24  1  0  0  0  0
  9 29  1  0  0  0  0
 11 28  1  0  0  0  0
 12 28  1  0  0  0  0
 13 29  1  0  0  0  0
 14 29  1  0  0  0  0
 15 27  2  0  0  0  0
 16 17  1  0  0  0  0
 17 28  1  0  0  0  0
 18 22  1  0  0  0  0
 18 25  2  0  0  0  0
 19 23  2  0  0  0  0
 19 25  1  0  0  0  0
 21 29  1  0  0  0  0
 22 26  2  0  0  0  0
 23 26  1  0  0  0  0
 24 27  1  0  0  0  0
  4 30  1  0  0  0  0
  7 31  1  0  0  0  0
 10 32  1  0  0  0  0
 10 33  1  0  0  0  0
 10 34  1  0  0  0  0
 11 35  1  0  0  0  0
 11 36  1  0  0  0  0
 11 37  1  0  0  0  0
 12 38  1  0  0  0  0
 12 39  1  0  0  0  0
 12 40  1  0  0  0  0
 13 41  1  0  0  0  0
 13 42  1  0  0  0  0
 13 43  1  0  0  0  0
 14 44  1  0  0  0  0
 14 45  1  0  0  0  0
 14 46  1  0  0  0  0
 15 47  1  0  0  0  0
 16 48  1  0  0  0  0
 16 49  1  0  0  0  0
 17 50  1  0  0  0  0
 17 51  1  0  0  0  0
 18 52  1  0  0  0  0
 19 53  1  0  0  0  0
 28 54  1  0  0  0  0
M  END
> <pdb_id>
6G3C

> <uniprot_id>
Q506Q0

> <usmiles>
Fc1c(O)c(F)cc(Nc2nc3N(C(C(=O)N(c3cn2)C)(C)C)CCC(C)C)c1

$$$$
ENS_B_301
          07192422073D 1   1.00000     0.00000     0
            
 65 68  0  0  0  0            999 V2000
   41.5977   28.8535   12.0471 Cl  0  0  0  0  0  0  0  0  0  0  0  0
   33.6159   26.3753   12.5017 O   0  0  0  0  0  0  0  0  0  0  0  0
   35.2129   33.3424   18.4057 O   0  0  0  0  0  0  0  0  0  0  0  0
   36.5374   29.9901   16.9381 O   0  0  0  0  0  0  0  0  0  0  0  0
   31.5485   27.3996   12.5507 O   0  0  0  0  0  0  0  0  0  0  0  0
   31.7101   30.2975   14.4715 N   0  0  0  0  0  0  0  0  0  0  0  0
   37.6781   28.9740   11.6163 N   0  0  0  0  0  0  0  0  0  0  0  0
   35.0566   28.6869   15.3944 N   0  0  0  0  0  0  0  0  0  0  0  0
   35.4595   28.0280   13.2455 N   0  0  0  0  0  0  0  0  0  0  0  0
   36.8412   33.2956   20.0231 N   0  0  0  0  0  0  0  0  0  0  0  0
   34.8101   30.6744   18.4028 N   0  0  0  0  0  0  0  0  0  0  0  0
   31.1249   26.2730   11.8053 C   0  0  0  0  0  0  0  0  0  0  0  0
   32.4825   29.2468   14.1043 C   0  0  0  0  0  0  0  0  0  0  0  0
   37.0153   34.7301   19.9603 C   0  0  0  0  0  0  0  0  0  0  0  0
   37.7292   32.6737   20.9791 C   0  0  0  0  0  0  0  0  0  0  0  0
   33.4011   30.7529   18.7693 C   0  0  0  0  0  0  0  0  0  0  0  0
   38.9405   29.2383   11.2057 C   0  0  0  0  0  0  0  0  0  0  0  0
   35.8026   31.1570   19.3655 C   0  0  0  0  0  0  0  0  0  0  0  0
   38.1237   35.0461   20.9579 C   0  0  0  0  0  0  0  0  0  0  0  0
   38.1775   33.8251   21.8708 C   0  0  0  0  0  0  0  0  0  0  0  0
   32.9259   29.4186   19.3533 C   0  0  0  0  0  0  0  0  0  0  0  0
   32.6182   28.3852   18.2667 C   0  0  0  0  0  0  0  0  0  0  0  0
   38.5172   26.9753   15.1170 C   0  0  0  0  0  0  0  0  0  0  0  0
   33.8321   28.0521   17.3870 C   0  0  0  0  0  0  0  0  0  0  0  0
   37.1587   27.1264   14.7808 C   0  0  0  0  0  0  0  0  0  0  0  0
   39.5175   27.4881   14.2805 C   0  0  0  0  0  0  0  0  0  0  0  0
   32.7451   27.3204   12.9732 C   0  0  0  0  0  0  0  0  0  0  0  0
   35.9653   32.6601   19.2991 C   0  0  0  0  0  0  0  0  0  0  0  0
   39.8525   28.7359   12.1229 C   0  0  0  0  0  0  0  0  0  0  0  0
   35.2109   30.0334   17.2538 C   0  0  0  0  0  0  0  0  0  0  0  0
   34.5821   28.3760   14.1408 C   0  0  0  0  0  0  0  0  0  0  0  0
   34.3311   29.2423   16.5292 C   0  0  1  0  0  0  0  0  0  0  0  0
   36.7668   27.8072   13.5898 C   0  0  0  0  0  0  0  0  0  0  0  0
   37.7957   28.3051   12.7832 C   0  0  0  0  0  0  0  0  0  0  0  0
   33.2075   28.2872   13.8138 C   0  0  0  0  0  0  0  0  0  0  0  0
   39.1143   28.1443   13.1200 C   0  0  0  0  0  0  0  0  0  0  0  0
   34.5513   26.3376   12.8533 H   0  0  0  0  0  0  0  0  0  0  0  0
   36.8297   29.2238   11.1495 H   0  0  0  0  0  0  0  0  0  0  0  0
   35.1756   27.9202   12.2927 H   0  0  0  0  0  0  0  0  0  0  0  0
   30.1795   26.4063   11.5079 H   0  0  0  0  0  0  0  0  0  0  0  0
   31.7137   26.1625   11.0046 H   0  0  0  0  0  0  0  0  0  0  0  0
   31.1823   25.4545   12.3768 H   0  0  0  0  0  0  0  0  0  0  0  0
   36.1692   35.1970   20.2175 H   0  0  0  0  0  0  0  0  0  0  0  0
   37.2837   35.0101   19.0385 H   0  0  0  0  0  0  0  0  0  0  0  0
   38.5119   32.2561   20.5176 H   0  0  0  0  0  0  0  0  0  0  0  0
   37.2468   31.9785   21.5121 H   0  0  0  0  0  0  0  0  0  0  0  0
   32.8606   30.9677   17.9559 H   0  0  0  0  0  0  0  0  0  0  0  0
   33.2778   31.4737   19.4514 H   0  0  0  0  0  0  0  0  0  0  0  0
   39.1806   29.7241   10.3653 H   0  0  0  0  0  0  0  0  0  0  0  0
   36.6830   30.7270   19.1657 H   0  0  0  0  0  0  0  0  0  0  0  0
   35.5093   30.9035   20.2873 H   0  0  0  0  0  0  0  0  0  0  0  0
   37.9036   35.8692   21.4814 H   0  0  0  0  0  0  0  0  0  0  0  0
   38.9967   35.1739   20.4872 H   0  0  0  0  0  0  0  0  0  0  0  0
   39.1073   33.6732   22.2060 H   0  0  0  0  0  0  0  0  0  0  0  0
   37.5570   33.9349   22.6474 H   0  0  0  0  0  0  0  0  0  0  0  0
   32.0965   29.5790   19.8885 H   0  0  0  0  0  0  0  0  0  0  0  0
   33.6420   29.0551   19.9492 H   0  0  0  0  0  0  0  0  0  0  0  0
   31.8915   28.7457   17.6820 H   0  0  0  0  0  0  0  0  0  0  0  0
   32.3050   27.5441   18.7076 H   0  0  0  0  0  0  0  0  0  0  0  0
   38.7702   26.4986   15.9589 H   0  0  0  0  0  0  0  0  0  0  0  0
   33.5799   27.3048   16.7723 H   0  0  0  0  0  0  0  0  0  0  0  0
   34.5801   27.7569   17.9814 H   0  0  0  0  0  0  0  0  0  0  0  0
   36.4572   26.7506   15.3863 H   0  0  0  0  0  0  0  0  0  0  0  0
   40.4859   27.3865   14.5084 H   0  0  0  0  0  0  0  0  0  0  0  0
   33.5563   29.7885   16.2109 H   0  0  0  0  0  0  0  0  0  0  0  0
  1 29  1  0  0  0  0
  2 27  1  0  0  0  0
  3 28  2  0  0  0  0
  4 30  2  0  0  0  0
  5 12  1  0  0  0  0
  5 27  1  0  0  0  0
  6 13  3  0  0  0  0
  7 17  1  0  0  0  0
  7 34  1  0  0  0  0
  8 31  2  0  0  0  0
  8 32  1  0  0  0  0
  9 31  1  0  0  0  0
  9 33  1  0  0  0  0
 10 14  1  0  0  0  0
 10 15  1  0  0  0  0
 10 28  1  0  0  0  0
 11 16  1  0  0  0  0
 11 18  1  0  0  0  0
 11 30  1  0  0  0  0
 13 35  1  0  0  0  0
 14 19  1  0  0  0  0
 15 20  1  0  0  0  0
 16 21  1  0  0  0  0
 17 29  2  0  0  0  0
 18 28  1  0  0  0  0
 19 20  1  0  0  0  0
 21 22  1  0  0  0  0
 22 24  1  0  0  0  0
 23 25  2  0  0  0  0
 23 26  1  0  0  0  0
 24 32  1  0  0  0  0
 25 33  1  0  0  0  0
 26 36  2  0  0  0  0
 27 35  2  0  0  0  0
 29 36  1  0  0  0  0
 30 32  1  0  0  0  0
 31 35  1  0  0  0  0
 33 34  2  0  0  0  0
 34 36  1  0  0  0  0
  2 37  1  0  0  0  0
  7 38  1  0  0  0  0
  9 39  1  0  0  0  0
 12 40  1  0  0  0  0
 12 41  1  0  0  0  0
 12 42  1  0  0  0  0
 14 43  1  0  0  0  0
 14 44  1  0  0  0  0
 15 45  1  0  0  0  0
 15 46  1  0  0  0  0
 16 47  1  0  0  0  0
 16 48  1  0  0  0  0
 17 49  1  0  0  0  0
 18 50  1  0  0  0  0
 18 51  1  0  0  0  0
 19 52  1  0  0  0  0
 19 53  1  0  0  0  0
 20 54  1  0  0  0  0
 20 55  1  0  0  0  0
 21 56  1  0  0  0  0
 21 57  1  0  0  0  0
 22 58  1  0  0  0  0
 22 59  1  0  0  0  0
 23 60  1  0  0  0  0
 24 61  1  0  0  0  0
 24 62  1  0  0  0  0
 25 63  1  0  0  0  0
 26 64  1  0  0  0  0
 32 65  1  0  0  0  0
M  END
> <pdb_id>
3ENS

> <uniprot_id>
P00742

> <usmiles>
ClC=1c2c(NC1)c(NC(=N[C@@H]3C(=O)N(CC(=O)N4CCCC4)CCCC3)/C(/C#N)=C(/OC)\O)ccc2

$$$$
ENS_D_301
          07192422073D 1   1.00000     0.00000     0
            
 65 68  0  0  0  0            999 V2000
   41.6525   28.9335   12.0035 Cl  0  0  0  0  0  0  0  0  0  0  0  0
   33.5691   26.4512   12.3448 O   0  0  0  0  0  0  0  0  0  0  0  0
   35.1242   33.1077   18.2565 O   0  0  0  0  0  0  0  0  0  0  0  0
   36.5296   30.0190   17.0292 O   0  0  0  0  0  0  0  0  0  0  0  0
   31.5188   27.4345   12.5391 O   0  0  0  0  0  0  0  0  0  0  0  0
   31.8489   30.4547   14.2377 N   0  0  0  0  0  0  0  0  0  0  0  0
   37.7207   28.9665   11.5505 N   0  0  0  0  0  0  0  0  0  0  0  0
   35.0690   29.0980   15.1605 N   0  0  0  0  0  0  0  0  0  0  0  0
   35.5123   27.9339   13.2078 N   0  0  0  0  0  0  0  0  0  0  0  0
   36.6609   33.2495   19.9798 N   0  0  0  0  0  0  0  0  0  0  0  0
   34.7388   30.4832   18.5061 N   0  0  0  0  0  0  0  0  0  0  0  0
   31.1048   26.3423   11.7296 C   0  0  0  0  0  0  0  0  0  0  0  0
   32.5701   29.3609   13.9060 C   0  0  0  0  0  0  0  0  0  0  0  0
   36.8280   34.6746   19.8072 C   0  0  0  0  0  0  0  0  0  0  0  0
   37.5169   32.7113   21.0163 C   0  0  0  0  0  0  0  0  0  0  0  0
   33.3226   30.4284   18.8655 C   0  0  0  0  0  0  0  0  0  0  0  0
   38.9779   29.2659   11.1470 C   0  0  0  0  0  0  0  0  0  0  0  0
   35.6691   31.0500   19.4875 C   0  0  0  0  0  0  0  0  0  0  0  0
   37.7901   35.1058   20.9072 C   0  0  0  0  0  0  0  0  0  0  0  0
   37.8580   33.9240   21.8737 C   0  0  0  0  0  0  0  0  0  0  0  0
   32.9165   28.9878   19.1957 C   0  0  0  0  0  0  0  0  0  0  0  0
   32.6432   28.1518   17.9387 C   0  0  0  0  0  0  0  0  0  0  0  0
   38.5925   26.9955   15.0602 C   0  0  0  0  0  0  0  0  0  0  0  0
   33.8649   27.9686   17.0232 C   0  0  0  0  0  0  0  0  0  0  0  0
   37.2311   27.1066   14.7264 C   0  0  0  0  0  0  0  0  0  0  0  0
   39.5804   27.5341   14.2228 C   0  0  0  0  0  0  0  0  0  0  0  0
   32.7307   27.3560   12.9216 C   0  0  0  0  0  0  0  0  0  0  0  0
   35.8868   32.5244   19.2166 C   0  0  0  0  0  0  0  0  0  0  0  0
   39.9020   28.7876   12.0699 C   0  0  0  0  0  0  0  0  0  0  0  0
   35.2110   29.9115   17.3454 C   0  0  0  0  0  0  0  0  0  0  0  0
   34.6250   28.3646   14.0713 C   0  0  0  0  0  0  0  0  0  0  0  0
   34.3607   29.3079   16.4305 C   0  0  1  0  0  0  0  0  0  0  0  0
   36.8311   27.7694   13.5336 C   0  0  0  0  0  0  0  0  0  0  0  0
   37.8479   28.3003   12.7194 C   0  0  0  0  0  0  0  0  0  0  0  0
   33.2611   28.3652   13.6615 C   0  0  0  0  0  0  0  0  0  0  0  0
   39.1700   28.1778   13.0612 C   0  0  0  0  0  0  0  0  0  0  0  0
   34.5210   26.3893   12.6451 H   0  0  0  0  0  0  0  0  0  0  0  0
   36.8688   29.1930   11.0783 H   0  0  0  0  0  0  0  0  0  0  0  0
   35.9665   29.5302   15.0726 H   0  0  0  0  0  0  0  0  0  0  0  0
   30.1483   26.4667   11.4657 H   0  0  0  0  0  0  0  0  0  0  0  0
   31.6744   26.3009   10.9088 H   0  0  0  0  0  0  0  0  0  0  0  0
   31.2003   25.4905   12.2448 H   0  0  0  0  0  0  0  0  0  0  0  0
   35.9506   35.1442   19.9061 H   0  0  0  0  0  0  0  0  0  0  0  0
   37.2137   34.8751   18.9067 H   0  0  0  0  0  0  0  0  0  0  0  0
   38.3437   32.3097   20.6224 H   0  0  0  0  0  0  0  0  0  0  0  0
   37.0338   32.0199   21.5535 H   0  0  0  0  0  0  0  0  0  0  0  0
   32.7738   30.7587   18.0976 H   0  0  0  0  0  0  0  0  0  0  0  0
   33.1616   31.0084   19.6641 H   0  0  0  0  0  0  0  0  0  0  0  0
   39.2085   29.7588   10.3080 H   0  0  0  0  0  0  0  0  0  0  0  0
   36.5447   30.5708   19.4268 H   0  0  0  0  0  0  0  0  0  0  0  0
   35.2896   30.9360   20.4056 H   0  0  0  0  0  0  0  0  0  0  0  0
   37.4453   35.9201   21.3742 H   0  0  0  0  0  0  0  0  0  0  0  0
   38.6942   35.2980   20.5256 H   0  0  0  0  0  0  0  0  0  0  0  0
   38.7758   33.8363   22.2611 H   0  0  0  0  0  0  0  0  0  0  0  0
   37.1932   34.0328   22.6127 H   0  0  0  0  0  0  0  0  0  0  0  0
   32.0871   29.0083   19.7539 H   0  0  0  0  0  0  0  0  0  0  0  0
   33.6559   28.5567   19.7130 H   0  0  0  0  0  0  0  0  0  0  0  0
   31.9225   28.6034   17.4127 H   0  0  0  0  0  0  0  0  0  0  0  0
   32.3288   27.2471   18.2264 H   0  0  0  0  0  0  0  0  0  0  0  0
   38.8590   26.5279   15.9030 H   0  0  0  0  0  0  0  0  0  0  0  0
   33.6152   27.3575   16.2721 H   0  0  0  0  0  0  0  0  0  0  0  0
   34.6061   27.5582   17.5545 H   0  0  0  0  0  0  0  0  0  0  0  0
   36.5384   26.7163   15.3329 H   0  0  0  0  0  0  0  0  0  0  0  0
   40.5502   27.4572   14.4543 H   0  0  0  0  0  0  0  0  0  0  0  0
   33.5749   29.9055   16.2714 H   0  0  0  0  0  0  0  0  0  0  0  0
  1 29  1  0  0  0  0
  2 27  1  0  0  0  0
  3 28  2  0  0  0  0
  4 30  2  0  0  0  0
  5 12  1  0  0  0  0
  5 27  1  0  0  0  0
  6 13  3  0  0  0  0
  7 17  1  0  0  0  0
  7 34  1  0  0  0  0
  8 31  1  0  0  0  0
  8 32  1  0  0  0  0
  9 31  2  0  0  0  0
  9 33  1  0  0  0  0
 10 14  1  0  0  0  0
 10 15  1  0  0  0  0
 10 28  1  0  0  0  0
 11 16  1  0  0  0  0
 11 18  1  0  0  0  0
 11 30  1  0  0  0  0
 13 35  1  0  0  0  0
 14 19  1  0  0  0  0
 15 20  1  0  0  0  0
 16 21  1  0  0  0  0
 17 29  2  0  0  0  0
 18 28  1  0  0  0  0
 19 20  1  0  0  0  0
 21 22  1  0  0  0  0
 22 24  1  0  0  0  0
 23 25  2  0  0  0  0
 23 26  1  0  0  0  0
 24 32  1  0  0  0  0
 25 33  1  0  0  0  0
 26 36  2  0  0  0  0
 27 35  2  0  0  0  0
 29 36  1  0  0  0  0
 30 32  1  0  0  0  0
 31 35  1  0  0  0  0
 33 34  2  0  0  0  0
 34 36  1  0  0  0  0
  2 37  1  0  0  0  0
  7 38  1  0  0  0  0
  8 39  1  0  0  0  0
 12 40  1  0  0  0  0
 12 41  1  0  0  0  0
 12 42  1  0  0  0  0
 14 43  1  0  0  0  0
 14 44  1  0  0  0  0
 15 45  1  0  0  0  0
 15 46  1  0  0  0  0
 16 47  1  0  0  0  0
 16 48  1  0  0  0  0
 17 49  1  0  0  0  0
 18 50  1  0  0  0  0
 18 51  1  0  0  0  0
 19 52  1  0  0  0  0
 19 53  1  0  0  0  0
 20 54  1  0  0  0  0
 20 55  1  0  0  0  0
 21 56  1  0  0  0  0
 21 57  1  0  0  0  0
 22 58  1  0  0  0  0
 22 59  1  0  0  0  0
 23 60  1  0  0  0  0
 24 61  1  0  0  0  0
 24 62  1  0  0  0  0
 25 63  1  0  0  0  0
 26 64  1  0  0  0  0
 32 65  1  0  0  0  0
M  END
> <pdb_id>
3ENS

> <uniprot_id>
P00742

> <usmiles>
ClC=1c2c(NC1)c(N=C(N[C@@H]3C(=O)N(CC(=O)N4CCCC4)CCCC3)/C(/C#N)=C(/OC)\O)ccc2

$$$$
EO7_A_302
          07192416293D 1   1.00000     0.00000     0
            
 37 39  0  0  0  0            999 V2000
   -1.6979   10.4999   15.0122 Cl  0  0  0  0  0  0  0  0  0  0  0  0
   -5.6263    0.9208   16.8613 S   0  0  0  0  0  0  0  0  0  0  0  0
   -5.3189    1.0669   18.2378 O   0  0  0  0  0  0  0  0  0  0  0  0
   -6.8261    1.4645   16.3556 O   0  0  0  0  0  0  0  0  0  0  0  0
   -6.2130    5.4987   13.2688 O   0  0  0  0  0  0  0  0  0  0  0  0
   -5.9281    2.8015   12.4491 O   0  0  0  0  0  0  0  0  0  0  0  0
   -4.4082    1.7860   16.2960 O   0  0  0  0  0  0  0  0  0  0  0  0
   -3.9352    4.4093   14.8602 O   0  0  0  0  0  0  0  0  0  0  0  0
   -5.3455   -0.5576   16.3430 N   0  0  0  0  0  0  0  0  0  0  0  0
    1.3856    7.7832   12.2916 N   0  0  0  0  0  0  0  0  0  0  0  0
   -0.6784    5.6919   12.3948 N   0  0  0  0  0  0  0  0  0  0  0  0
   -0.1496    9.0552   13.6306 N   0  0  0  0  0  0  0  0  0  0  0  0
   -2.3202    8.1263   14.2920 N   0  0  0  0  0  0  0  0  0  0  0  0
   -2.6464    5.8800   13.4461 N   0  0  0  0  0  0  0  0  0  0  0  0
   -4.2296    2.0829   14.9670 C   0  0  0  0  0  0  0  0  0  0  0  0
   -1.8034    5.1063   12.7071 C   0  0  0  0  0  0  0  0  0  0  0  0
   -1.3504    9.0451   14.2099 C   0  0  0  0  0  0  0  0  0  0  0  0
   -4.9066    4.9788   12.8855 C   0  0  2  0  0  0  0  0  0  0  0  0
   -4.8262    3.4458   13.0230 C   0  0  1  0  0  0  0  0  0  0  0  0
   -3.9785    5.4644   13.9240 C   0  0  1  0  0  0  0  0  0  0  0  0
   -4.8603    3.3654   14.4988 C   0  0  2  0  0  0  0  0  0  0  0  0
    0.1707    7.9407   12.9636 C   0  0  0  0  0  0  0  0  0  0  0  0
   -1.9451    7.0451   13.6370 C   0  0  0  0  0  0  0  0  0  0  0  0
   -0.7524    6.9174   12.9752 C   0  0  0  0  0  0  0  0  0  0  0  0
   -6.2197    6.4932   13.1643 H   0  0  0  0  0  0  0  0  0  0  0  0
   -5.8322    1.8126   12.5623 H   0  0  0  0  0  0  0  0  0  0  0  0
   -5.5741   -0.6192   15.3714 H   0  0  0  0  0  0  0  0  0  0  0  0
   -4.3788   -0.7783   16.4727 H   0  0  0  0  0  0  0  0  0  0  0  0
    1.5816    6.9314   11.8059 H   0  0  0  0  0  0  0  0  0  0  0  0
    2.0591    8.5224   12.2965 H   0  0  0  0  0  0  0  0  0  0  0  0
   -4.6179    1.3345   14.4294 H   0  0  0  0  0  0  0  0  0  0  0  0
   -3.2464    2.1422   14.7942 H   0  0  0  0  0  0  0  0  0  0  0  0
   -2.0262    4.1722   12.4282 H   0  0  0  0  0  0  0  0  0  0  0  0
   -4.6371    5.2854   11.9726 H   0  0  0  0  0  0  0  0  0  0  0  0
   -3.9654    3.0914   12.6581 H   0  0  0  0  0  0  0  0  0  0  0  0
   -4.4033    6.2522   14.3700 H   0  0  0  0  0  0  0  0  0  0  0  0
   -5.7755    3.5090   14.8753 H   0  0  0  0  0  0  0  0  0  0  0  0
  1 17  1  0  0  0  0
  2  3  2  0  0  0  0
  2  4  2  0  0  0  0
  2  7  1  0  0  0  0
  2  9  1  0  0  0  0
  5 18  1  0  0  0  0
  6 19  1  0  0  0  0
  7 15  1  0  0  0  0
  8 20  1  0  0  0  0
  8 21  1  0  0  0  0
 10 22  1  0  0  0  0
 11 16  2  0  0  0  0
 11 24  1  0  0  0  0
 12 17  1  0  0  0  0
 12 22  2  0  0  0  0
 13 17  2  0  0  0  0
 13 23  1  0  0  0  0
 14 16  1  0  0  0  0
 14 20  1  0  0  0  0
 14 23  1  0  0  0  0
 15 21  1  0  0  0  0
 18 19  1  0  0  0  0
 18 20  1  0  0  0  0
 19 21  1  0  0  0  0
 22 24  1  0  0  0  0
 23 24  2  0  0  0  0
  5 25  1  0  0  0  0
  6 26  1  0  0  0  0
  9 27  1  0  0  0  0
  9 28  1  0  0  0  0
 10 29  1  0  0  0  0
 10 30  1  0  0  0  0
 15 31  1  0  0  0  0
 15 32  1  0  0  0  0
 16 33  1  0  0  0  0
 18 34  1  0  0  0  0
 19 35  1  0  0  0  0
 20 36  1  0  0  0  0
 21 37  1  0  0  0  0
M  END
> <pdb_id>
6C7X

> <uniprot_id>
P00918

> <usmiles>
Clc1nc2N(C=Nc2c(n1)N)[C@@H]3O[C@@H]([C@@H](O)[C@H]3O)COS(=O)(=O)N

$$$$
EOG_D_1001
          07202411583D 1   1.00000     0.00000     0
            
 39 42  0  0  0  0            999 V2000
   12.2563    0.5174   20.5891 Cl  0  0  0  0  0  0  0  0  0  0  0  0
   10.7504    4.5423   21.6086 O   0  0  0  0  0  0  0  0  0  0  0  0
   15.5962    1.0152   17.6157 N   0  0  0  0  0  0  0  0  0  0  0  0
   15.7108    1.0209   18.9815 N   0  0  0  0  0  0  0  0  0  0  0  0
   10.1634    6.3630   20.3042 N   0  0  0  0  0  0  0  0  0  0  0  0
   12.9895    2.8706   15.9332 N   0  0  0  0  0  0  0  0  0  0  0  0
   14.0214    2.2877   18.4517 N   0  0  0  0  0  0  0  0  0  0  0  0
    9.5463    7.0728   21.3907 C   0  0  0  0  0  0  0  0  0  0  0  0
   14.6465    1.4787   14.8341 C   0  0  0  0  0  0  0  0  0  0  0  0
   14.2338    2.0048   23.6549 C   0  0  0  0  0  0  0  0  0  0  0  0
   15.3408    2.5611   23.0526 C   0  0  0  0  0  0  0  0  0  0  0  0
   13.2817    1.3795   22.8798 C   0  0  0  0  0  0  0  0  0  0  0  0
   11.3557    4.2569   16.9820 C   0  0  0  0  0  0  0  0  0  0  0  0
   15.5289    2.4990   21.6926 C   0  0  0  0  0  0  0  0  0  0  0  0
   10.7806    4.8290   18.0977 C   0  0  0  0  0  0  0  0  0  0  0  0
   12.3681    3.6979   19.4957 C   0  0  0  0  0  0  0  0  0  0  0  0
   10.7029    5.1284   20.5381 C   0  0  0  0  0  0  0  0  0  0  0  0
   13.4726    1.3244   21.5218 C   0  0  0  0  0  0  0  0  0  0  0  0
   14.5673    1.7791   17.3158 C   0  0  0  0  0  0  0  0  0  0  0  0
   14.7639    1.7810   19.4850 C   0  0  0  0  0  0  0  0  0  0  0  0
   14.0151    2.0891   16.0407 C   0  0  0  0  0  0  0  0  0  0  0  0
   12.4460    3.4159   17.1003 C   0  0  0  0  0  0  0  0  0  0  0  0
   12.9279    3.1523   18.3686 C   0  0  0  0  0  0  0  0  0  0  0  0
   11.2956    4.5393   19.3365 C   0  0  0  0  0  0  0  0  0  0  0  0
   14.5767    1.8909   20.9101 C   0  0  0  0  0  0  0  0  0  0  0  0
   10.1978    6.7663   19.3898 H   0  0  0  0  0  0  0  0  0  0  0  0
    9.2027    7.9524   21.0618 H   0  0  0  0  0  0  0  0  0  0  0  0
    8.7868    6.5326   21.7530 H   0  0  0  0  0  0  0  0  0  0  0  0
   10.2201    7.2272   22.1133 H   0  0  0  0  0  0  0  0  0  0  0  0
   15.4197    0.9098   15.1143 H   0  0  0  0  0  0  0  0  0  0  0  0
   13.9739    0.9146   14.3552 H   0  0  0  0  0  0  0  0  0  0  0  0
   14.9691    2.2027   14.2243 H   0  0  0  0  0  0  0  0  0  0  0  0
   14.1220    2.0545   24.6474 H   0  0  0  0  0  0  0  0  0  0  0  0
   16.0244    3.0216   23.6189 H   0  0  0  0  0  0  0  0  0  0  0  0
   12.4687    0.9743   23.2979 H   0  0  0  0  0  0  0  0  0  0  0  0
   10.9791    4.4532   16.0766 H   0  0  0  0  0  0  0  0  0  0  0  0
   16.3493    2.8918   21.2771 H   0  0  0  0  0  0  0  0  0  0  0  0
    9.9993    5.4462   18.0052 H   0  0  0  0  0  0  0  0  0  0  0  0
   12.7298    3.4891   20.4043 H   0  0  0  0  0  0  0  0  0  0  0  0
  1 18  1  0  0  0  0
  2 17  2  0  0  0  0
  3  4  1  0  0  0  0
  3 19  2  0  0  0  0
  4 20  2  0  0  0  0
  5  8  1  0  0  0  0
  5 17  1  0  0  0  0
  6 21  2  0  0  0  0
  6 22  1  0  0  0  0
  7 19  1  0  0  0  0
  7 20  1  0  0  0  0
  7 23  1  0  0  0  0
  9 21  1  0  0  0  0
 10 11  2  0  0  0  0
 10 12  1  0  0  0  0
 11 14  1  0  0  0  0
 12 18  2  0  0  0  0
 13 15  1  0  0  0  0
 13 22  2  0  0  0  0
 14 25  2  0  0  0  0
 15 24  2  0  0  0  0
 16 23  2  0  0  0  0
 16 24  1  0  0  0  0
 17 24  1  0  0  0  0
 18 25  1  0  0  0  0
 19 21  1  0  0  0  0
 20 25  1  0  0  0  0
 22 23  1  0  0  0  0
  5 26  1  0  0  0  0
  8 27  1  0  0  0  0
  8 28  1  0  0  0  0
  8 29  1  0  0  0  0
  9 30  1  0  0  0  0
  9 31  1  0  0  0  0
  9 32  1  0  0  0  0
 10 33  1  0  0  0  0
 11 34  1  0  0  0  0
 12 35  1  0  0  0  0
 13 36  1  0  0  0  0
 14 37  1  0  0  0  0
 15 38  1  0  0  0  0
 16 39  1  0  0  0  0
M  END
> <pdb_id>
6C7E

> <uniprot_id>
O00408

> <usmiles>
Clc1c(cccc1)C2=NN=C3N2c4c(N=C3C)ccc(c4)C(=O)NC

$$$$
EOJ_D_2001
          07202411583D 1   1.00000     0.00000     0
            
 60 66  0  0  0  0            999 V2000
   12.1388    1.1209   20.7662 Cl  0  0  0  0  0  0  0  0  0  0  0  0
   10.8044    5.1744   21.3582 O   0  0  0  0  0  0  0  0  0  0  0  0
   15.3238    0.7693   17.5784 N   0  0  0  0  0  0  0  0  0  0  0  0
   15.5409    0.8972   18.9227 N   0  0  0  0  0  0  0  0  0  0  0  0
   12.7784    2.6751   15.8863 N   0  0  0  0  0  0  0  0  0  0  0  0
   10.8337    6.9804   19.8453 N   0  0  0  0  0  0  0  0  0  0  0  0
   13.9334    2.2743   18.3770 N   0  0  0  0  0  0  0  0  0  0  0  0
   14.2265    1.0116   14.8566 C   0  0  0  0  0  0  0  0  0  0  0  0
   14.6400    2.3047   23.5701 C   0  0  0  0  0  0  0  0  0  0  0  0
   15.7683    2.6198   22.8441 C   0  0  0  0  0  0  0  0  0  0  0  0
   13.5174    1.8390   22.9338 C   0  0  0  0  0  0  0  0  0  0  0  0
   11.3496    4.3100   16.8305 C   0  0  0  0  0  0  0  0  0  0  0  0
   15.8038    2.4675   21.4784 C   0  0  0  0  0  0  0  0  0  0  0  0
   10.9079    5.0471   17.9055 C   0  0  0  0  0  0  0  0  0  0  0  0
   10.4662   10.7252   21.8565 C   0  0  0  0  0  0  0  0  0  0  0  0
    9.1102    9.1112   23.1022 C   0  0  0  0  0  0  0  0  0  0  0  0
    8.2486   10.0887   21.0185 C   0  0  0  0  0  0  0  0  0  0  0  0
   12.4867    3.9442   19.3555 C   0  0  0  0  0  0  0  0  0  0  0  0
   11.1431    8.3278   21.9061 C   0  0  0  0  0  0  0  0  0  0  0  0
   10.2877    9.3314   19.8573 C   0  0  0  0  0  0  0  0  0  0  0  0
    8.9126    7.7090   21.0913 C   0  0  0  0  0  0  0  0  0  0  0  0
   10.9895    5.6708   20.2583 C   0  0  0  0  0  0  0  0  0  0  0  0
   13.5489    1.7047   21.5628 C   0  0  0  0  0  0  0  0  0  0  0  0
   14.3432    1.5861   17.2753 C   0  0  0  0  0  0  0  0  0  0  0  0
   14.7053    1.7978   19.4054 C   0  0  0  0  0  0  0  0  0  0  0  0
   13.7314    1.8123   16.0153 C   0  0  0  0  0  0  0  0  0  0  0  0
   12.3597    3.3897   17.0040 C   0  0  0  0  0  0  0  0  0  0  0  0
   12.9126    3.2207   18.2620 C   0  0  0  0  0  0  0  0  0  0  0  0
   10.5244    9.4694   22.6993 C   0  0  3  0  0  0  0  0  0  0  0  0
    9.6508   10.4739   20.6175 C   0  0  3  0  0  0  0  0  0  0  0  0
    8.2757    8.8418   21.8709 C   0  0  3  0  0  0  0  0  0  0  0  0
   11.4825    4.8565   19.1416 C   0  0  0  0  0  0  0  0  0  0  0  0
   14.6729    2.0184   20.8300 C   0  0  0  0  0  0  0  0  0  0  0  0
   10.3202    8.0544   20.6701 C   0  0  3  0  0  0  0  0  0  0  0  0
   11.0952    7.2033   18.9062 H   0  0  0  0  0  0  0  0  0  0  0  0
   14.9613    0.4050   15.1602 H   0  0  0  0  0  0  0  0  0  0  0  0
   13.4763    0.4656   14.4837 H   0  0  0  0  0  0  0  0  0  0  0  0
   14.5737    1.6278   14.1496 H   0  0  0  0  0  0  0  0  0  0  0  0
   14.6397    2.4158   24.5639 H   0  0  0  0  0  0  0  0  0  0  0  0
   16.5767    2.9661   23.3201 H   0  0  0  0  0  0  0  0  0  0  0  0
   12.6958    1.6027   23.4526 H   0  0  0  0  0  0  0  0  0  0  0  0
   10.9393    4.4419   15.9282 H   0  0  0  0  0  0  0  0  0  0  0  0
   16.6351    2.6786   20.9642 H   0  0  0  0  0  0  0  0  0  0  0  0
   10.1744    5.7168   17.7893 H   0  0  0  0  0  0  0  0  0  0  0  0
   11.3937   10.9918   21.5945 H   0  0  0  0  0  0  0  0  0  0  0  0
   10.0451   11.4610   22.3868 H   0  0  0  0  0  0  0  0  0  0  0  0
    8.7092    9.8706   23.6146 H   0  0  0  0  0  0  0  0  0  0  0  0
    9.1266    8.2931   23.6769 H   0  0  0  0  0  0  0  0  0  0  0  0
    7.7054    9.9158   20.1969 H   0  0  0  0  0  0  0  0  0  0  0  0
    7.8364   10.8364   21.5393 H   0  0  0  0  0  0  0  0  0  0  0  0
   12.8895    3.8111   20.2611 H   0  0  0  0  0  0  0  0  0  0  0  0
   11.1702    7.5056   22.4748 H   0  0  0  0  0  0  0  0  0  0  0  0
   12.0732    8.5774   21.6366 H   0  0  0  0  0  0  0  0  0  0  0  0
   11.2250    9.5857   19.6187 H   0  0  0  0  0  0  0  0  0  0  0  0
    9.7636    9.1684   19.0214 H   0  0  0  0  0  0  0  0  0  0  0  0
    8.3641    7.5268   20.2753 H   0  0  0  0  0  0  0  0  0  0  0  0
    8.9364    6.8912   21.6664 H   0  0  0  0  0  0  0  0  0  0  0  0
   11.0715    9.6420   23.5184 H   0  0  0  0  0  0  0  0  0  0  0  0
    9.6308   11.2956   20.0479 H   0  0  0  0  0  0  0  0  0  0  0  0
    7.3452    8.5910   22.1379 H   0  0  0  0  0  0  0  0  0  0  0  0
  1 23  1  0  0  0  0
  2 22  2  0  0  0  0
  3  4  1  0  0  0  0
  3 24  2  0  0  0  0
  4 25  2  0  0  0  0
  5 26  2  0  0  0  0
  5 27  1  0  0  0  0
  6 22  1  0  0  0  0
  6 34  1  0  0  0  0
  7 24  1  0  0  0  0
  7 25  1  0  0  0  0
  7 28  1  0  0  0  0
  8 26  1  0  0  0  0
  9 10  2  0  0  0  0
  9 11  1  0  0  0  0
 10 13  1  0  0  0  0
 11 23  2  0  0  0  0
 12 14  1  0  0  0  0
 12 27  2  0  0  0  0
 13 33  2  0  0  0  0
 14 32  2  0  0  0  0
 15 29  1  0  0  0  0
 15 30  1  0  0  0  0
 16 29  1  0  0  0  0
 16 31  1  0  0  0  0
 17 30  1  0  0  0  0
 17 31  1  0  0  0  0
 18 28  2  0  0  0  0
 18 32  1  0  0  0  0
 19 29  1  0  0  0  0
 19 34  1  0  0  0  0
 20 30  1  0  0  0  0
 20 34  1  0  0  0  0
 21 31  1  0  0  0  0
 21 34  1  0  0  0  0
 22 32  1  0  0  0  0
 23 33  1  0  0  0  0
 24 26  1  0  0  0  0
 25 33  1  0  0  0  0
 27 28  1  0  0  0  0
  6 35  1  0  0  0  0
  8 36  1  0  0  0  0
  8 37  1  0  0  0  0
  8 38  1  0  0  0  0
  9 39  1  0  0  0  0
 10 40  1  0  0  0  0
 11 41  1  0  0  0  0
 12 42  1  0  0  0  0
 13 43  1  0  0  0  0
 14 44  1  0  0  0  0
 15 45  1  0  0  0  0
 15 46  1  0  0  0  0
 16 47  1  0  0  0  0
 16 48  1  0  0  0  0
 17 49  1  0  0  0  0
 17 50  1  0  0  0  0
 18 51  1  0  0  0  0
 19 52  1  0  0  0  0
 19 53  1  0  0  0  0
 20 54  1  0  0  0  0
 20 55  1  0  0  0  0
 21 56  1  0  0  0  0
 21 57  1  0  0  0  0
 29 58  1  0  0  0  0
 30 59  1  0  0  0  0
 31 60  1  0  0  0  0
M  END
> <pdb_id>
6C7D

> <uniprot_id>
O00408

> <usmiles>
Clc1c(cccc1)C2=NN=C3N2c4c(N=C3C)ccc(c4)C(=O)NC56CC7CC(C5)CC(C6)C7

$$$$
EOK_A_403
          07202413333D 1   1.00000     0.00000     0
            
 34 35  0  0  0  0            999 V2000
   38.6828   -5.3442   18.9052 S   0  0  0  0  0  0  0  0  0  0  0  0
   36.8363   -2.9591   19.3660 O   0  0  0  0  0  0  0  0  0  0  0  0
   42.8350   -7.2761   19.3848 O   0  0  0  0  0  0  0  0  0  0  0  0
   40.7197   -4.3914   20.2266 N   0  0  0  0  0  0  0  0  0  0  0  0
   38.8644   -2.7884   20.3119 N   0  0  0  0  0  0  0  0  0  0  0  0
   41.1141   -5.7667   19.6817 N   0  0  0  0  0  0  0  0  0  0  0  0
   37.1684   -0.9276   20.5985 C   0  0  0  0  0  0  0  0  0  0  0  0
   43.4652   -5.2213   20.4017 C   0  0  0  0  0  0  0  0  0  0  0  0
   39.4035   -7.5243   20.1808 C   0  0  0  0  0  0  0  0  0  0  0  0
   40.6628   -8.5295   15.3902 C   0  0  0  0  0  0  0  0  0  0  0  0
   41.0451   -7.2155   15.6049 C   0  0  0  0  0  0  0  0  0  0  0  0
   40.0376   -9.2143   16.4465 C   0  0  0  0  0  0  0  0  0  0  0  0
   40.7764   -6.5503   16.7898 C   0  0  0  0  0  0  0  0  0  0  0  0
   39.7662   -8.5535   17.6232 C   0  0  0  0  0  0  0  0  0  0  0  0
   39.3282   -4.0628   19.8184 C   0  0  0  0  0  0  0  0  0  0  0  0
   37.5569   -2.2945   20.0327 C   0  0  0  0  0  0  0  0  0  0  0  0
   42.4778   -6.2169   19.7812 C   0  0  0  0  0  0  0  0  0  0  0  0
   40.1498   -7.2335   17.8061 C   0  0  0  0  0  0  0  0  0  0  0  0
   39.8200   -6.4871   19.1418 C   0  0  1  0  0  0  0  0  0  0  0  0
   39.4817   -2.2328   20.8689 H   0  0  0  0  0  0  0  0  0  0  0  0
   37.9321   -0.5562   21.1265 H   0  0  0  0  0  0  0  0  0  0  0  0
   36.9492   -0.3057   19.8467 H   0  0  0  0  0  0  0  0  0  0  0  0
   36.3699   -1.0274   21.1922 H   0  0  0  0  0  0  0  0  0  0  0  0
   42.9764   -4.3921   20.6729 H   0  0  0  0  0  0  0  0  0  0  0  0
   43.8935   -5.6338   21.2057 H   0  0  0  0  0  0  0  0  0  0  0  0
   44.1697   -4.9887   19.7311 H   0  0  0  0  0  0  0  0  0  0  0  0
   40.1329   -8.2000   20.2882 H   0  0  0  0  0  0  0  0  0  0  0  0
   39.2375   -7.0709   21.0565 H   0  0  0  0  0  0  0  0  0  0  0  0
   38.5672   -7.9818   19.8785 H   0  0  0  0  0  0  0  0  0  0  0  0
   40.8265   -8.9769   14.5110 H   0  0  0  0  0  0  0  0  0  0  0  0
   41.5322   -6.7301   14.8789 H   0  0  0  0  0  0  0  0  0  0  0  0
   39.7909  -10.1779   16.3436 H   0  0  0  0  0  0  0  0  0  0  0  0
   41.0332   -5.5907   16.9043 H   0  0  0  0  0  0  0  0  0  0  0  0
   39.2851   -9.0327   18.3573 H   0  0  0  0  0  0  0  0  0  0  0  0
  1 15  1  0  0  0  0
  1 19  1  0  0  0  0
  2 16  2  0  0  0  0
  3 17  2  0  0  0  0
  4  6  1  0  0  0  0
  4 15  2  0  0  0  0
  5 15  1  0  0  0  0
  5 16  1  0  0  0  0
  6 17  1  0  0  0  0
  6 19  1  0  0  0  0
  7 16  1  0  0  0  0
  8 17  1  0  0  0  0
  9 19  1  0  0  0  0
 10 11  2  0  0  0  0
 10 12  1  0  0  0  0
 11 13  1  0  0  0  0
 12 14  2  0  0  0  0
 13 18  2  0  0  0  0
 14 18  1  0  0  0  0
 18 19  1  0  0  0  0
  5 20  1  0  0  0  0
  7 21  1  0  0  0  0
  7 22  1  0  0  0  0
  7 23  1  0  0  0  0
  8 24  1  0  0  0  0
  8 25  1  0  0  0  0
  8 26  1  0  0  0  0
  9 27  1  0  0  0  0
  9 28  1  0  0  0  0
  9 29  1  0  0  0  0
 10 30  1  0  0  0  0
 11 31  1  0  0  0  0
 12 32  1  0  0  0  0
 13 33  1  0  0  0  0
 14 34  1  0  0  0  0
M  END
> <pdb_id>
6G6Y

> <uniprot_id>
P52732

> <usmiles>
S1C(=NN(C(=O)C)[C@@]1(c2ccccc2)C)NC(=O)C

$$$$
EOS_C_1001
          07202411583D 1   1.00000     0.00000     0
            
 52 55  0  0  0  0            999 V2000
   12.0863    0.5079   20.3096 Cl  0  0  0  0  0  0  0  0  0  0  0  0
   10.6132    4.6306   21.3326 O   0  0  0  0  0  0  0  0  0  0  0  0
   15.9073    3.1438   23.8420 O   0  0  0  0  0  0  0  0  0  0  0  0
   15.4851    0.9165   17.4864 N   0  0  0  0  0  0  0  0  0  0  0  0
   15.5758    0.9582   18.8519 N   0  0  0  0  0  0  0  0  0  0  0  0
    9.8409    6.2271   19.8084 N   0  0  0  0  0  0  0  0  0  0  0  0
   12.8808    2.6967   15.7176 N   0  0  0  0  0  0  0  0  0  0  0  0
   13.8795    2.2023   18.2577 N   0  0  0  0  0  0  0  0  0  0  0  0
   10.0179    7.4819   20.4830 C   0  0  0  0  0  0  0  0  0  0  0  0
   14.5478    1.2851   14.6728 C   0  0  0  0  0  0  0  0  0  0  0  0
   16.2468    5.8368   22.4821 C   0  0  0  0  0  0  0  0  0  0  0  0
   18.5621    5.5505   23.3089 C   0  0  0  0  0  0  0  0  0  0  0  0
   17.0291    3.6269   23.1152 C   0  0  0  0  0  0  0  0  0  0  0  0
   13.0280    1.3636   22.6370 C   0  0  0  0  0  0  0  0  0  0  0  0
   13.9264    1.9832   23.4650 C   0  0  0  0  0  0  0  0  0  0  0  0
   11.2162    4.1017   16.7009 C   0  0  0  0  0  0  0  0  0  0  0  0
   10.6189    4.6972   17.7853 C   0  0  0  0  0  0  0  0  0  0  0  0
   15.3157    2.4955   21.5724 C   0  0  0  0  0  0  0  0  0  0  0  0
   12.2058    3.6272   19.2441 C   0  0  0  0  0  0  0  0  0  0  0  0
   10.4954    5.0891   20.1993 C   0  0  0  0  0  0  0  0  0  0  0  0
   13.2625    1.3176   21.2826 C   0  0  0  0  0  0  0  0  0  0  0  0
   15.0523    2.5504   22.9279 C   0  0  0  0  0  0  0  0  0  0  0  0
   14.4473    1.6547   17.1494 C   0  0  0  0  0  0  0  0  0  0  0  0
   14.6191    1.7377   19.3156 C   0  0  0  0  0  0  0  0  0  0  0  0
   13.9059    1.9233   15.8581 C   0  0  0  0  0  0  0  0  0  0  0  0
   12.3065    3.2738   16.8594 C   0  0  0  0  0  0  0  0  0  0  0  0
   17.1307    5.0891   23.4412 C   0  0  0  0  0  0  0  0  0  0  0  0
   12.7823    3.0498   18.1385 C   0  0  0  0  0  0  0  0  0  0  0  0
   11.1247    4.4508   19.0421 C   0  0  0  0  0  0  0  0  0  0  0  0
   14.4002    1.8801   20.7342 C   0  0  0  0  0  0  0  0  0  0  0  0
    9.2188    6.1824   19.0268 H   0  0  0  0  0  0  0  0  0  0  0  0
    9.4532    8.1797   20.0423 H   0  0  0  0  0  0  0  0  0  0  0  0
    9.7443    7.3872   21.4402 H   0  0  0  0  0  0  0  0  0  0  0  0
   10.9793    7.7527   20.4363 H   0  0  0  0  0  0  0  0  0  0  0  0
   15.3204    0.7257   14.9730 H   0  0  0  0  0  0  0  0  0  0  0  0
   13.8805    0.7072   14.2031 H   0  0  0  0  0  0  0  0  0  0  0  0
   14.8730    1.9946   14.0475 H   0  0  0  0  0  0  0  0  0  0  0  0
   15.3036    5.5201   22.5820 H   0  0  0  0  0  0  0  0  0  0  0  0
   16.2926    6.8158   22.6807 H   0  0  0  0  0  0  0  0  0  0  0  0
   16.5564    5.6718   21.5456 H   0  0  0  0  0  0  0  0  0  0  0  0
   19.1363    5.0444   23.9524 H   0  0  0  0  0  0  0  0  0  0  0  0
   18.8810    5.3843   22.3758 H   0  0  0  0  0  0  0  0  0  0  0  0
   18.6172    6.5283   23.5108 H   0  0  0  0  0  0  0  0  0  0  0  0
   16.8893    3.4981   22.1334 H   0  0  0  0  0  0  0  0  0  0  0  0
   17.8600    3.1484   23.3992 H   0  0  0  0  0  0  0  0  0  0  0  0
   12.2029    0.9453   23.0169 H   0  0  0  0  0  0  0  0  0  0  0  0
   13.7624    2.0213   24.4507 H   0  0  0  0  0  0  0  0  0  0  0  0
   10.8549    4.2713   15.7840 H   0  0  0  0  0  0  0  0  0  0  0  0
    9.8300    5.2996   17.6639 H   0  0  0  0  0  0  0  0  0  0  0  0
   16.1547    2.8941   21.2020 H   0  0  0  0  0  0  0  0  0  0  0  0
   12.5604    3.4541   20.1630 H   0  0  0  0  0  0  0  0  0  0  0  0
   16.8149    5.2451   24.3771 H   0  0  0  0  0  0  0  0  0  0  0  0
  1 21  1  0  0  0  0
  2 20  2  0  0  0  0
  3 13  1  0  0  0  0
  3 22  1  0  0  0  0
  4  5  1  0  0  0  0
  4 23  2  0  0  0  0
  5 24  2  0  0  0  0
  6  9  1  0  0  0  0
  6 20  1  0  0  0  0
  7 25  2  0  0  0  0
  7 26  1  0  0  0  0
  8 23  1  0  0  0  0
  8 24  1  0  0  0  0
  8 28  1  0  0  0  0
 10 25  1  0  0  0  0
 11 27  1  0  0  0  0
 12 27  1  0  0  0  0
 13 27  1  0  0  0  0
 14 15  2  0  0  0  0
 14 21  1  0  0  0  0
 15 22  1  0  0  0  0
 16 17  1  0  0  0  0
 16 26  2  0  0  0  0
 17 29  2  0  0  0  0
 18 22  2  0  0  0  0
 18 30  1  0  0  0  0
 19 28  2  0  0  0  0
 19 29  1  0  0  0  0
 20 29  1  0  0  0  0
 21 30  2  0  0  0  0
 23 25  1  0  0  0  0
 24 30  1  0  0  0  0
 26 28  1  0  0  0  0
  6 31  1  0  0  0  0
  9 32  1  0  0  0  0
  9 33  1  0  0  0  0
  9 34  1  0  0  0  0
 10 35  1  0  0  0  0
 10 36  1  0  0  0  0
 10 37  1  0  0  0  0
 11 38  1  0  0  0  0
 11 39  1  0  0  0  0
 11 40  1  0  0  0  0
 12 41  1  0  0  0  0
 12 42  1  0  0  0  0
 12 43  1  0  0  0  0
 13 44  1  0  0  0  0
 13 45  1  0  0  0  0
 14 46  1  0  0  0  0
 15 47  1  0  0  0  0
 16 48  1  0  0  0  0
 17 49  1  0  0  0  0
 18 50  1  0  0  0  0
 19 51  1  0  0  0  0
 27 52  1  0  0  0  0
M  END
> <pdb_id>
6C7F

> <uniprot_id>
O00408

> <usmiles>
Clc1c(cc(OCC(C)C)cc1)C2=NN=C3N2c4c(N=C3C)ccc(c4)C(=O)NC

$$$$
EP7_C_1001
          07202411583D 1   1.00000     0.00000     0
            
 52 55  0  0  0  0            999 V2000
   12.1293    0.5232   20.4156 Cl  0  0  0  0  0  0  0  0  0  0  0  0
   10.8073    4.8544   21.3985 O   0  0  0  0  0  0  0  0  0  0  0  0
   16.1047    2.9506   23.8932 O   0  0  0  0  0  0  0  0  0  0  0  0
   15.4288    0.8819   17.5209 N   0  0  0  0  0  0  0  0  0  0  0  0
   15.5411    0.9159   18.8817 N   0  0  0  0  0  0  0  0  0  0  0  0
   10.1904    6.5432   19.9290 N   0  0  0  0  0  0  0  0  0  0  0  0
   12.9075    2.7902   15.8070 N   0  0  0  0  0  0  0  0  0  0  0  0
   13.9080    2.2442   18.3331 N   0  0  0  0  0  0  0  0  0  0  0  0
   17.1943    3.3297   23.0768 C   0  0  0  0  0  0  0  0  0  0  0  0
   14.5103    1.2869   14.7525 C   0  0  0  0  0  0  0  0  0  0  0  0
   11.4169    8.1147   22.4731 C   0  0  0  0  0  0  0  0  0  0  0  0
   11.3307    8.9879   20.1668 C   0  0  0  0  0  0  0  0  0  0  0  0
    9.6060    7.3708   20.9510 C   0  0  0  0  0  0  0  0  0  0  0  0
   13.1335    1.2692   22.7508 C   0  0  0  0  0  0  0  0  0  0  0  0
   14.0724    1.8439   23.5678 C   0  0  0  0  0  0  0  0  0  0  0  0
   11.3321    4.2765   16.7810 C   0  0  0  0  0  0  0  0  0  0  0  0
   10.7752    4.9092   17.8662 C   0  0  0  0  0  0  0  0  0  0  0  0
   15.4096    2.3888   21.6468 C   0  0  0  0  0  0  0  0  0  0  0  0
   12.3121    3.7604   19.3262 C   0  0  0  0  0  0  0  0  0  0  0  0
   10.7034    5.3176   20.2728 C   0  0  0  0  0  0  0  0  0  0  0  0
   13.3375    1.2649   21.3923 C   0  0  0  0  0  0  0  0  0  0  0  0
   15.1940    2.3974   23.0123 C   0  0  0  0  0  0  0  0  0  0  0  0
   14.4290    1.6701   17.2110 C   0  0  0  0  0  0  0  0  0  0  0  0
   14.6323    1.7264   19.3774 C   0  0  0  0  0  0  0  0  0  0  0  0
   13.8945    1.9663   15.9311 C   0  0  0  0  0  0  0  0  0  0  0  0
   12.3760    3.3942   16.9452 C   0  0  0  0  0  0  0  0  0  0  0  0
   10.5084    8.5193   21.3413 C   0  0  0  0  0  0  0  0  0  0  0  0
   12.8515    3.1491   18.2187 C   0  0  0  0  0  0  0  0  0  0  0  0
   11.2755    4.6356   19.1177 C   0  0  0  0  0  0  0  0  0  0  0  0
   14.4624    1.8197   20.8180 C   0  0  0  0  0  0  0  0  0  0  0  0
   10.2223    6.8573   18.9801 H   0  0  0  0  0  0  0  0  0  0  0  0
   17.9068    3.7440   23.6432 H   0  0  0  0  0  0  0  0  0  0  0  0
   17.5624    2.5222   22.6160 H   0  0  0  0  0  0  0  0  0  0  0  0
   16.8848    3.9912   22.3938 H   0  0  0  0  0  0  0  0  0  0  0  0
   15.2544    0.6940   15.0606 H   0  0  0  0  0  0  0  0  0  0  0  0
   13.8179    0.7372   14.2852 H   0  0  0  0  0  0  0  0  0  0  0  0
   14.8712    1.9744   14.1223 H   0  0  0  0  0  0  0  0  0  0  0  0
   10.8662    7.8052   23.2483 H   0  0  0  0  0  0  0  0  0  0  0  0
   12.0149    7.3721   22.1714 H   0  0  0  0  0  0  0  0  0  0  0  0
   11.9727    8.8983   22.7508 H   0  0  0  0  0  0  0  0  0  0  0  0
   10.7224    9.2549   19.4193 H   0  0  0  0  0  0  0  0  0  0  0  0
   11.8863    9.7729   20.4409 H   0  0  0  0  0  0  0  0  0  0  0  0
   11.9285    8.2467   19.8615 H   0  0  0  0  0  0  0  0  0  0  0  0
    9.4318    6.8090   21.7597 H   0  0  0  0  0  0  0  0  0  0  0  0
    8.7420    7.7415   20.6102 H   0  0  0  0  0  0  0  0  0  0  0  0
   12.3092    0.8577   23.1395 H   0  0  0  0  0  0  0  0  0  0  0  0
   13.9391    1.8586   24.5587 H   0  0  0  0  0  0  0  0  0  0  0  0
   10.9761    4.4584   15.8644 H   0  0  0  0  0  0  0  0  0  0  0  0
   10.0214    5.5555   17.7483 H   0  0  0  0  0  0  0  0  0  0  0  0
   16.2415    2.7900   21.2635 H   0  0  0  0  0  0  0  0  0  0  0  0
   12.6605    3.5751   20.2450 H   0  0  0  0  0  0  0  0  0  0  0  0
    9.9369    9.2794   21.6506 H   0  0  0  0  0  0  0  0  0  0  0  0
  1 21  1  0  0  0  0
  2 20  2  0  0  0  0
  3  9  1  0  0  0  0
  3 22  1  0  0  0  0
  4  5  1  0  0  0  0
  4 23  2  0  0  0  0
  5 24  2  0  0  0  0
  6 13  1  0  0  0  0
  6 20  1  0  0  0  0
  7 25  2  0  0  0  0
  7 26  1  0  0  0  0
  8 23  1  0  0  0  0
  8 24  1  0  0  0  0
  8 28  1  0  0  0  0
 10 25  1  0  0  0  0
 11 27  1  0  0  0  0
 12 27  1  0  0  0  0
 13 27  1  0  0  0  0
 14 15  2  0  0  0  0
 14 21  1  0  0  0  0
 15 22  1  0  0  0  0
 16 17  1  0  0  0  0
 16 26  2  0  0  0  0
 17 29  2  0  0  0  0
 18 22  2  0  0  0  0
 18 30  1  0  0  0  0
 19 28  2  0  0  0  0
 19 29  1  0  0  0  0
 20 29  1  0  0  0  0
 21 30  2  0  0  0  0
 23 25  1  0  0  0  0
 24 30  1  0  0  0  0
 26 28  1  0  0  0  0
  6 31  1  0  0  0  0
  9 32  1  0  0  0  0
  9 33  1  0  0  0  0
  9 34  1  0  0  0  0
 10 35  1  0  0  0  0
 10 36  1  0  0  0  0
 10 37  1  0  0  0  0
 11 38  1  0  0  0  0
 11 39  1  0  0  0  0
 11 40  1  0  0  0  0
 12 41  1  0  0  0  0
 12 42  1  0  0  0  0
 12 43  1  0  0  0  0
 13 44  1  0  0  0  0
 13 45  1  0  0  0  0
 14 46  1  0  0  0  0
 15 47  1  0  0  0  0
 16 48  1  0  0  0  0
 17 49  1  0  0  0  0
 18 50  1  0  0  0  0
 19 51  1  0  0  0  0
 27 52  1  0  0  0  0
M  END
> <pdb_id>
6C7I

> <uniprot_id>
O00408

> <usmiles>
Clc1c(cc(OC)cc1)C2=NN=C3N2c4c(N=C3C)ccc(c4)C(=O)NCC(C)C

$$$$
EPK_A_503
          07192415293D 1   1.00000     0.00000     0
            
 40 42  0  0  0  0            999 V2000
  -47.1480   24.2310   -0.3050 S   0  0  0  0  0  0  0  0  0  0  0  0
  -43.9990   23.6280    0.3080 O   0  0  0  0  0  0  0  0  0  0  0  0
  -48.2760   29.6560   -3.3950 N   0  0  0  0  0  0  0  0  0  0  0  0
  -42.6890   27.7630   -1.8830 N   0  0  0  0  0  0  0  0  0  0  0  0
  -45.0390   27.1110   -1.7960 N   0  0  0  0  0  0  0  0  0  0  0  0
  -43.3200   25.6250   -0.7300 N   0  0  0  0  0  0  0  0  0  0  0  0
  -41.3210   24.5580   -1.5650 C   0  0  0  0  0  0  0  0  0  0  0  0
  -43.4670   29.9290   -1.3470 C   0  0  0  0  0  0  0  0  0  0  0  0
  -42.0800   29.5570   -3.3330 C   0  0  0  0  0  0  0  0  0  0  0  0
  -48.2050   25.3340   -1.1010 C   0  0  0  0  0  0  0  0  0  0  0  0
  -49.3460   29.2270   -4.0410 C   0  0  0  0  0  0  0  0  0  0  0  0
  -41.9370   25.2830   -0.3840 C   0  0  0  0  0  0  0  0  0  0  0  0
  -47.5160   28.7450   -2.5170 C   0  0  0  0  0  0  0  0  0  0  0  0
  -49.8800   27.8440   -3.8800 C   0  0  0  0  0  0  0  0  0  0  0  0
  -49.2200   26.9790   -3.1260 C   0  0  0  0  0  0  0  0  0  0  0  0
  -43.6650   26.8250   -1.4480 C   0  0  0  0  0  0  0  0  0  0  0  0
  -44.3350   24.7630   -0.3840 C   0  0  0  0  0  0  0  0  0  0  0  0
  -45.6810   25.0970   -0.6960 C   0  0  0  0  0  0  0  0  0  0  0  0
  -43.1930   28.9960   -2.4960 C   0  0  0  0  0  0  0  0  0  0  0  0
  -46.0270   26.2260   -1.3900 C   0  0  0  0  0  0  0  0  0  0  0  0
  -48.0410   27.4590   -2.4100 C   0  0  0  0  0  0  0  0  0  0  0  0
  -47.4490   26.3640   -1.6310 C   0  0  0  0  0  0  0  0  0  0  0  0
  -41.7097   27.5908   -1.7764 H   0  0  0  0  0  0  0  0  0  0  0  0
  -40.3751   24.3147   -1.3503 H   0  0  0  0  0  0  0  0  0  0  0  0
  -41.8438   23.7272   -1.7557 H   0  0  0  0  0  0  0  0  0  0  0  0
  -41.3379   25.1541   -2.3678 H   0  0  0  0  0  0  0  0  0  0  0  0
  -43.8166   30.7973   -1.6988 H   0  0  0  0  0  0  0  0  0  0  0  0
  -44.1461   29.5182   -0.7387 H   0  0  0  0  0  0  0  0  0  0  0  0
  -42.6203   30.0913   -0.8402 H   0  0  0  0  0  0  0  0  0  0  0  0
  -42.3855   30.4029   -3.7702 H   0  0  0  0  0  0  0  0  0  0  0  0
  -41.2897   29.7491   -2.7512 H   0  0  0  0  0  0  0  0  0  0  0  0
  -41.8235   28.8927   -4.0350 H   0  0  0  0  0  0  0  0  0  0  0  0
  -49.1987   25.2446   -1.1686 H   0  0  0  0  0  0  0  0  0  0  0  0
  -49.8160   29.8543   -4.6620 H   0  0  0  0  0  0  0  0  0  0  0  0
  -41.9258   24.6899    0.4211 H   0  0  0  0  0  0  0  0  0  0  0  0
  -41.4198   26.1168   -0.1910 H   0  0  0  0  0  0  0  0  0  0  0  0
  -46.6870   29.0293   -2.0354 H   0  0  0  0  0  0  0  0  0  0  0  0
  -50.7274   27.5730   -4.3366 H   0  0  0  0  0  0  0  0  0  0  0  0
  -49.5190   26.0278   -3.0491 H   0  0  0  0  0  0  0  0  0  0  0  0
  -44.0154   28.8285   -3.0397 H   0  0  0  0  0  0  0  0  0  0  0  0
  1 10  1  0  0  0  0
  1 18  1  0  0  0  0
  2 17  2  0  0  0  0
  3 11  2  0  0  0  0
  3 13  1  0  0  0  0
  4 16  1  0  0  0  0
  4 19  1  0  0  0  0
  5 16  2  0  0  0  0
  5 20  1  0  0  0  0
  6 12  1  0  0  0  0
  6 16  1  0  0  0  0
  6 17  1  0  0  0  0
  7 12  1  0  0  0  0
  8 19  1  0  0  0  0
  9 19  1  0  0  0  0
 10 22  2  0  0  0  0
 11 14  1  0  0  0  0
 13 21  2  0  0  0  0
 14 15  2  0  0  0  0
 15 21  1  0  0  0  0
 17 18  1  0  0  0  0
 18 20  2  0  0  0  0
 20 22  1  0  0  0  0
 21 22  1  0  0  0  0
  4 23  1  0  0  0  0
  7 24  1  0  0  0  0
  7 25  1  0  0  0  0
  7 26  1  0  0  0  0
  8 27  1  0  0  0  0
  8 28  1  0  0  0  0
  8 29  1  0  0  0  0
  9 30  1  0  0  0  0
  9 31  1  0  0  0  0
  9 32  1  0  0  0  0
 10 33  1  0  0  0  0
 11 34  1  0  0  0  0
 12 35  1  0  0  0  0
 12 36  1  0  0  0  0
 13 37  1  0  0  0  0
 14 38  1  0  0  0  0
 15 39  1  0  0  0  0
 19 40  1  0  0  0  0
M  END
> <pdb_id>
4Y2B

> <uniprot_id>
Q13946

> <usmiles>
S1C=2C(=O)N(C(=NC2C(c3cnccc3)=C1)NC(C)C)CC

$$$$
EPV_A_1001
          07202411583D 1   1.00000     0.00000     0
            
 61 64  0  0  0  0            999 V2000
   13.7054    0.5009   21.5112 Cl  0  0  0  0  0  0  0  0  0  0  0  0
   10.8850    5.5427   21.1491 O   0  0  0  0  0  0  0  0  0  0  0  0
   16.2691    5.6430   22.6613 O   0  0  0  0  0  0  0  0  0  0  0  0
   15.5916    1.0777   17.7543 N   0  0  0  0  0  0  0  0  0  0  0  0
   15.8104    1.4237   19.0549 N   0  0  0  0  0  0  0  0  0  0  0  0
   10.5462    7.1104   19.5098 N   0  0  0  0  0  0  0  0  0  0  0  0
   12.8619    2.5195   15.9092 N   0  0  0  0  0  0  0  0  0  0  0  0
   14.0842    2.5688   18.3933 N   0  0  0  0  0  0  0  0  0  0  0  0
   14.4682    0.8642   15.0525 C   0  0  0  0  0  0  0  0  0  0  0  0
    8.0324    8.7145   19.2532 C   0  0  0  0  0  0  0  0  0  0  0  0
    8.2472    9.1430   21.6640 C   0  0  0  0  0  0  0  0  0  0  0  0
   18.2403    4.2446   23.1015 C   0  0  0  0  0  0  0  0  0  0  0  0
   18.3991    6.6285   22.5148 C   0  0  0  0  0  0  0  0  0  0  0  0
   17.5113    5.9939   24.6778 C   0  0  0  0  0  0  0  0  0  0  0  0
   10.0937    8.0924   20.4611 C   0  0  0  0  0  0  0  0  0  0  0  0
   14.5932    2.4437   23.1690 C   0  0  0  0  0  0  0  0  0  0  0  0
   15.1934    3.6502   23.4566 C   0  0  0  0  0  0  0  0  0  0  0  0
   11.2677    4.1388   16.7003 C   0  0  0  0  0  0  0  0  0  0  0  0
   10.7627    4.9744   17.6819 C   0  0  0  0  0  0  0  0  0  0  0  0
   15.5788    3.9870   21.1055 C   0  0  0  0  0  0  0  0  0  0  0  0
   12.4832    4.2159   19.1859 C   0  0  0  0  0  0  0  0  0  0  0  0
   10.9056    5.8769   19.9762 C   0  0  0  0  0  0  0  0  0  0  0  0
   14.4713    2.0202   21.8548 C   0  0  0  0  0  0  0  0  0  0  0  0
   15.6814    4.4136   22.4157 C   0  0  0  0  0  0  0  0  0  0  0  0
   14.5404    1.7729   17.3748 C   0  0  0  0  0  0  0  0  0  0  0  0
   14.9247    2.3115   19.4455 C   0  0  0  0  0  0  0  0  0  0  0  0
   13.8975    1.7665   16.1068 C   0  0  0  0  0  0  0  0  0  0  0  0
   12.3763    3.3460   16.9384 C   0  0  0  0  0  0  0  0  0  0  0  0
    8.5848    8.1782   20.5528 C   0  0  0  0  0  0  0  0  0  0  0  0
   12.9667    3.3967   18.1915 C   0  0  0  0  0  0  0  0  0  0  0  0
   11.3827    4.9945   18.9102 C   0  0  0  0  0  0  0  0  0  0  0  0
   14.9675    2.7850   20.8173 C   0  0  0  0  0  0  0  0  0  0  0  0
   17.5858    5.5929   23.2306 C   0  0  0  0  0  0  0  0  0  0  0  0
   10.5960    7.3251   18.5344 H   0  0  0  0  0  0  0  0  0  0  0  0
   15.2608    0.3794   15.4221 H   0  0  0  0  0  0  0  0  0  0  0  0
   13.7745    0.2019   14.7694 H   0  0  0  0  0  0  0  0  0  0  0  0
   14.7496    1.4101   14.2633 H   0  0  0  0  0  0  0  0  0  0  0  0
    8.2517    8.0811   18.5111 H   0  0  0  0  0  0  0  0  0  0  0  0
    7.0398    8.8104   19.3272 H   0  0  0  0  0  0  0  0  0  0  0  0
    8.4400    9.6072   19.0608 H   0  0  0  0  0  0  0  0  0  0  0  0
    8.6095    8.7954   22.5288 H   0  0  0  0  0  0  0  0  0  0  0  0
    8.6544   10.0347   21.4664 H   0  0  0  0  0  0  0  0  0  0  0  0
    7.2541    9.2379   21.7328 H   0  0  0  0  0  0  0  0  0  0  0  0
   19.1503    4.2748   23.5151 H   0  0  0  0  0  0  0  0  0  0  0  0
   17.6841    3.5578   23.5695 H   0  0  0  0  0  0  0  0  0  0  0  0
   18.3217    4.0048   22.1341 H   0  0  0  0  0  0  0  0  0  0  0  0
   19.3304    6.6313   22.8792 H   0  0  0  0  0  0  0  0  0  0  0  0
   18.4240    6.4162   21.5379 H   0  0  0  0  0  0  0  0  0  0  0  0
   17.9856    7.5289   22.6498 H   0  0  0  0  0  0  0  0  0  0  0  0
   18.4261    5.9610   25.0803 H   0  0  0  0  0  0  0  0  0  0  0  0
   17.1495    6.9236   24.7478 H   0  0  0  0  0  0  0  0  0  0  0  0
   16.9087    5.3639   25.1676 H   0  0  0  0  0  0  0  0  0  0  0  0
   10.4474    8.9870   20.1880 H   0  0  0  0  0  0  0  0  0  0  0  0
   10.4543    7.8524   21.3624 H   0  0  0  0  0  0  0  0  0  0  0  0
   14.2443    1.8715   23.9111 H   0  0  0  0  0  0  0  0  0  0  0  0
   15.2738    3.9667   24.4018 H   0  0  0  0  0  0  0  0  0  0  0  0
   10.8239    4.1076   15.8047 H   0  0  0  0  0  0  0  0  0  0  0  0
    9.9653    5.5506   17.5022 H   0  0  0  0  0  0  0  0  0  0  0  0
   15.9481    4.5500   20.3662 H   0  0  0  0  0  0  0  0  0  0  0  0
   12.9200    4.2447   20.0850 H   0  0  0  0  0  0  0  0  0  0  0  0
    8.1981    7.2768   20.7476 H   0  0  0  0  0  0  0  0  0  0  0  0
  1 23  1  0  0  0  0
  2 22  2  0  0  0  0
  3 24  1  0  0  0  0
  3 33  1  0  0  0  0
  4  5  1  0  0  0  0
  4 25  2  0  0  0  0
  5 26  2  0  0  0  0
  6 15  1  0  0  0  0
  6 22  1  0  0  0  0
  7 27  2  0  0  0  0
  7 28  1  0  0  0  0
  8 25  1  0  0  0  0
  8 26  1  0  0  0  0
  8 30  1  0  0  0  0
  9 27  1  0  0  0  0
 10 29  1  0  0  0  0
 11 29  1  0  0  0  0
 12 33  1  0  0  0  0
 13 33  1  0  0  0  0
 14 33  1  0  0  0  0
 15 29  1  0  0  0  0
 16 17  2  0  0  0  0
 16 23  1  0  0  0  0
 17 24  1  0  0  0  0
 18 19  1  0  0  0  0
 18 28  2  0  0  0  0
 19 31  2  0  0  0  0
 20 24  2  0  0  0  0
 20 32  1  0  0  0  0
 21 30  2  0  0  0  0
 21 31  1  0  0  0  0
 22 31  1  0  0  0  0
 23 32  2  0  0  0  0
 25 27  1  0  0  0  0
 26 32  1  0  0  0  0
 28 30  1  0  0  0  0
  6 34  1  0  0  0  0
  9 35  1  0  0  0  0
  9 36  1  0  0  0  0
  9 37  1  0  0  0  0
 10 38  1  0  0  0  0
 10 39  1  0  0  0  0
 10 40  1  0  0  0  0
 11 41  1  0  0  0  0
 11 42  1  0  0  0  0
 11 43  1  0  0  0  0
 12 44  1  0  0  0  0
 12 45  1  0  0  0  0
 12 46  1  0  0  0  0
 13 47  1  0  0  0  0
 13 48  1  0  0  0  0
 13 49  1  0  0  0  0
 14 50  1  0  0  0  0
 14 51  1  0  0  0  0
 14 52  1  0  0  0  0
 15 53  1  0  0  0  0
 15 54  1  0  0  0  0
 16 55  1  0  0  0  0
 17 56  1  0  0  0  0
 18 57  1  0  0  0  0
 19 58  1  0  0  0  0
 20 59  1  0  0  0  0
 21 60  1  0  0  0  0
 29 61  1  0  0  0  0
M  END
> <pdb_id>
6C7J

> <uniprot_id>
O00408

> <usmiles>
Clc1c(cc(OC(C)(C)C)cc1)C2=NN=C3N2c4c(N=C3C)ccc(c4)C(=O)NCC(C)C

$$$$
EQC_A_503
          07202412153D 1   1.00000     0.00000     0
            
 51 53  0  0  0  0            999 V2000
   51.2272   43.6314   62.3950 O   0  0  0  0  0  0  0  0  0  0  0  0
   49.2772   51.1463   65.9442 O   0  0  0  0  0  0  0  0  0  0  0  0
   42.1721   46.0735   64.9632 O   0  0  0  0  0  0  0  0  0  0  0  0
   50.2955   50.8760   63.4825 O   0  0  0  0  0  0  0  0  0  0  0  0
   44.0409   46.9216   66.4529 O   0  0  0  0  0  0  0  0  0  0  0  0
   49.0292   43.3747   62.0720 O   0  0  0  0  0  0  0  0  0  0  0  0
   41.0903   45.5477   64.1730 C   0  0  0  0  0  0  0  0  0  0  0  0
   50.7727   50.7730   62.1325 C   0  0  0  0  0  0  0  0  0  0  0  0
   45.0405   47.5236   67.2831 C   0  0  0  0  0  0  0  0  0  0  0  0
   47.8277   44.1905   62.1990 C   0  0  0  0  0  0  0  0  0  0  0  0
   49.3867   48.7786   66.2713 C   0  0  0  0  0  0  0  0  0  0  0  0
   43.6582   45.7361   63.0813 C   0  0  0  0  0  0  0  0  0  0  0  0
   49.7374   47.5201   65.7786 C   0  0  0  0  0  0  0  0  0  0  0  0
   44.9514   45.8854   62.5900 C   0  0  0  0  0  0  0  0  0  0  0  0
   50.4495   48.4668   63.7128 C   0  0  0  0  0  0  0  0  0  0  0  0
   45.7089   46.7358   64.7052 C   0  0  0  0  0  0  0  0  0  0  0  0
   47.3769   46.5401   62.8507 C   0  0  0  0  0  0  0  0  0  0  0  0
   50.5990   45.9520   63.9995 C   0  0  0  0  0  0  0  0  0  0  0  0
   50.1193   44.1038   62.4207 C   0  0  0  0  0  0  0  0  0  0  0  0
   49.5901   49.8913   65.4709 C   0  0  0  0  0  0  0  0  0  0  0  0
   43.3955   46.1120   64.3776 C   0  0  0  0  0  0  0  0  0  0  0  0
   50.1286   49.7237   64.1918 C   0  0  0  0  0  0  0  0  0  0  0  0
   44.4241   46.6283   65.1871 C   0  0  0  0  0  0  0  0  0  0  0  0
   45.9792   46.3799   63.3872 C   0  0  0  0  0  0  0  0  0  0  0  0
   50.2348   47.3355   64.4943 C   0  0  0  0  0  0  0  0  0  0  0  0
   48.2185   45.3056   63.1653 C   0  0  2  0  0  0  0  0  0  0  0  0
   49.7039   45.4816   62.8532 C   0  0  1  0  0  0  0  0  0  0  0  0
   49.4239   51.9494   65.3668 H   0  0  0  0  0  0  0  0  0  0  0  0
   40.2455   45.5701   64.7075 H   0  0  0  0  0  0  0  0  0  0  0  0
   40.9784   46.1036   63.3492 H   0  0  0  0  0  0  0  0  0  0  0  0
   41.2954   44.6041   63.9131 H   0  0  0  0  0  0  0  0  0  0  0  0
   50.8476   51.6874   61.7348 H   0  0  0  0  0  0  0  0  0  0  0  0
   51.6709   50.3334   62.1291 H   0  0  0  0  0  0  0  0  0  0  0  0
   50.1320   50.2264   61.5933 H   0  0  0  0  0  0  0  0  0  0  0  0
   44.6588   47.6989   68.1906 H   0  0  0  0  0  0  0  0  0  0  0  0
   45.8227   46.9059   67.3641 H   0  0  0  0  0  0  0  0  0  0  0  0
   45.3379   48.3864   66.8743 H   0  0  0  0  0  0  0  0  0  0  0  0
   47.0722   43.6506   62.5702 H   0  0  0  0  0  0  0  0  0  0  0  0
   47.5628   44.5689   61.3121 H   0  0  0  0  0  0  0  0  0  0  0  0
   48.9953   48.8753   67.1865 H   0  0  0  0  0  0  0  0  0  0  0  0
   42.9333   45.3625   62.5025 H   0  0  0  0  0  0  0  0  0  0  0  0
   49.6267   46.7225   66.3715 H   0  0  0  0  0  0  0  0  0  0  0  0
   45.1467   45.6315   61.6426 H   0  0  0  0  0  0  0  0  0  0  0  0
   50.8392   48.3700   62.7969 H   0  0  0  0  0  0  0  0  0  0  0  0
   46.4430   47.0672   65.2980 H   0  0  0  0  0  0  0  0  0  0  0  0
   47.8004   47.3424   63.2714 H   0  0  0  0  0  0  0  0  0  0  0  0
   47.3360   46.6659   61.8595 H   0  0  0  0  0  0  0  0  0  0  0  0
   50.5117   45.3073   64.7589 H   0  0  0  0  0  0  0  0  0  0  0  0
   51.5467   45.9653   63.6808 H   0  0  0  0  0  0  0  0  0  0  0  0
   48.0861   45.0172   64.1136 H   0  0  0  0  0  0  0  0  0  0  0  0
   49.8035   46.1102   62.0818 H   0  0  0  0  0  0  0  0  0  0  0  0
  1 19  2  0  0  0  0
  2 20  1  0  0  0  0
  3  7  1  0  0  0  0
  3 21  1  0  0  0  0
  4  8  1  0  0  0  0
  4 22  1  0  0  0  0
  5  9  1  0  0  0  0
  5 23  1  0  0  0  0
  6 10  1  0  0  0  0
  6 19  1  0  0  0  0
 10 26  1  0  0  0  0
 11 13  1  0  0  0  0
 11 20  2  0  0  0  0
 12 14  2  0  0  0  0
 12 21  1  0  0  0  0
 13 25  2  0  0  0  0
 14 24  1  0  0  0  0
 15 22  2  0  0  0  0
 15 25  1  0  0  0  0
 16 23  1  0  0  0  0
 16 24  2  0  0  0  0
 17 24  1  0  0  0  0
 17 26  1  0  0  0  0
 18 25  1  0  0  0  0
 18 27  1  0  0  0  0
 19 27  1  0  0  0  0
 20 22  1  0  0  0  0
 21 23  2  0  0  0  0
 26 27  1  0  0  0  0
  2 28  1  0  0  0  0
  7 29  1  0  0  0  0
  7 30  1  0  0  0  0
  7 31  1  0  0  0  0
  8 32  1  0  0  0  0
  8 33  1  0  0  0  0
  8 34  1  0  0  0  0
  9 35  1  0  0  0  0
  9 36  1  0  0  0  0
  9 37  1  0  0  0  0
 10 38  1  0  0  0  0
 10 39  1  0  0  0  0
 11 40  1  0  0  0  0
 12 41  1  0  0  0  0
 13 42  1  0  0  0  0
 14 43  1  0  0  0  0
 15 44  1  0  0  0  0
 16 45  1  0  0  0  0
 17 46  1  0  0  0  0
 17 47  1  0  0  0  0
 18 48  1  0  0  0  0
 18 49  1  0  0  0  0
 26 50  1  0  0  0  0
 27 51  1  0  0  0  0
M  END
> <pdb_id>
6LRM

> <uniprot_id>
Q08499

> <usmiles>
O=C1OC[C@@H]([C@H]1Cc2cc(OC)c(O)cc2)Cc3cc(OC)c(OC)cc3

$$$$
EQW_A_403
          07212404193D 1   1.00000     0.00000     0
            
 26 27  0  0  0  0            999 V2000
    9.0722    5.5845   46.0308 Cl  0  0  0  0  0  0  0  0  0  0  0  0
   12.9789   11.3259   39.8127 O   0  0  0  0  0  0  0  0  0  0  0  0
   12.3458    6.5125   43.9680 N   0  0  0  0  0  0  0  0  0  0  0  0
   10.8761    8.4081   43.8856 N   0  0  0  0  0  0  0  0  0  0  0  0
   12.9212    8.4236   42.8475 N   0  0  0  0  0  0  0  0  0  0  0  0
   11.4373    5.8705   44.7154 C   0  0  0  0  0  0  0  0  0  0  0  0
    9.9926    7.7332   44.6262 C   0  0  0  0  0  0  0  0  0  0  0  0
   11.6750   10.8473   40.1824 C   0  0  0  0  0  0  0  0  0  0  0  0
   13.7707   11.5731   40.9786 C   0  0  0  0  0  0  0  0  0  0  0  0
   11.7642    9.5471   40.9540 C   0  0  0  0  0  0  0  0  0  0  0  0
   13.9999   10.3098   41.7674 C   0  0  0  0  0  0  0  0  0  0  0  0
   10.2431    6.4469   45.0691 C   0  0  0  0  0  0  0  0  0  0  0  0
   12.0120    7.7606   43.5880 C   0  0  0  0  0  0  0  0  0  0  0  0
   12.6761    9.7018   42.1716 C   0  0  0  0  0  0  0  0  0  0  0  0
   13.8519    8.0263   42.7795 H   0  0  0  0  0  0  0  0  0  0  0  0
   11.6823    4.8599   45.0282 H   0  0  0  0  0  0  0  0  0  0  0  0
    9.0682    8.2551   44.8658 H   0  0  0  0  0  0  0  0  0  0  0  0
   11.1765   10.7212   39.2227 H   0  0  0  0  0  0  0  0  0  0  0  0
   11.1053   11.6108   40.7089 H   0  0  0  0  0  0  0  0  0  0  0  0
   13.3394   12.3598   41.5953 H   0  0  0  0  0  0  0  0  0  0  0  0
   14.7049   11.9676   40.5813 H   0  0  0  0  0  0  0  0  0  0  0  0
   12.1354    8.7590   40.3022 H   0  0  0  0  0  0  0  0  0  0  0  0
   10.7643    9.2241   41.2369 H   0  0  0  0  0  0  0  0  0  0  0  0
   14.6061   10.5173   42.6470 H   0  0  0  0  0  0  0  0  0  0  0  0
   14.5959    9.6153   41.1777 H   0  0  0  0  0  0  0  0  0  0  0  0
   12.2098   10.3959   42.8696 H   0  0  0  0  0  0  0  0  0  0  0  0
  1 12  1  0  0  0  0
  2  8  1  0  0  0  0
  2  9  1  0  0  0  0
  3  6  2  0  0  0  0
  3 13  1  0  0  0  0
  4  7  1  0  0  0  0
  4 13  2  0  0  0  0
  5 13  1  0  0  0  0
  5 14  1  0  0  0  0
  5 15  1  0  0  0  0
  6 12  1  0  0  0  0
  6 16  1  0  0  0  0
  7 12  2  0  0  0  0
  7 17  1  0  0  0  0
  8 10  1  0  0  0  0
  8 18  1  0  0  0  0
  8 19  1  0  0  0  0
  9 11  1  0  0  0  0
  9 20  1  0  0  0  0
  9 21  1  0  0  0  0
 10 14  1  0  0  0  0
 10 22  1  0  0  0  0
 10 23  1  0  0  0  0
 11 14  1  0  0  0  0
 11 24  1  0  0  0  0
 11 25  1  0  0  0  0
 14 26  1  0  0  0  0
M  END
> <pdb_id>
6G91

> <uniprot_id>
P28482

> <usmiles>
Clc1cnc(nc1)NC2CCOCC2

$$$$
ER4_C_401
          07202400003D 1   1.00000     0.00000     0
            
 60 63  0  0  0  0            999 V2000
   12.0744  -74.7203   -2.7100 O   0  0  0  0  0  0  0  0  0  0  0  0
   19.8302  -69.5234  -10.0524 O   0  0  0  0  0  0  0  0  0  0  0  0
   19.1785  -71.4269   -6.5688 O   0  0  0  0  0  0  0  0  0  0  0  0
   17.2300  -70.7586   -5.2989 N   0  0  0  0  0  0  0  0  0  0  0  0
   13.0216  -74.3703    0.6467 N   0  0  0  0  0  0  0  0  0  0  0  0
   19.9806  -68.6546  -11.1730 C   0  0  0  0  0  0  0  0  0  0  0  0
   20.6076  -69.0471   -8.9501 C   0  0  0  0  0  0  0  0  0  0  0  0
   19.3677  -70.0726   -7.0126 C   0  0  0  0  0  0  0  0  0  0  0  0
   13.5086  -72.9667    0.8854 C   0  0  0  0  0  0  0  0  0  0  0  0
   11.5215  -74.3987    0.7133 C   0  0  0  0  0  0  0  0  0  0  0  0
   13.4720  -74.8584   -0.7098 C   0  0  0  0  0  0  0  0  0  0  0  0
   20.6176  -70.1551   -7.8956 C   0  0  0  0  0  0  0  0  0  0  0  0
   12.5399  -68.5494   -7.0091 C   0  0  0  0  0  0  0  0  0  0  0  0
   12.4465  -69.8894   -6.5508 C   0  0  0  0  0  0  0  0  0  0  0  0
   13.5568  -67.7125   -6.4798 C   0  0  0  0  0  0  0  0  0  0  0  0
   12.9576  -71.9984   -0.1941 C   0  0  0  0  0  0  0  0  0  0  0  0
   10.9073  -73.4491   -0.3464 C   0  0  0  0  0  0  0  0  0  0  0  0
   18.0040  -73.0540   -5.3556 C   0  0  0  0  0  0  0  0  0  0  0  0
   13.3551  -70.3820   -5.5779 C   0  0  0  0  0  0  0  0  0  0  0  0
   14.4699  -68.2030   -5.5077 C   0  0  0  0  0  0  0  0  0  0  0  0
   16.9374  -73.4165   -4.5052 C   0  0  0  0  0  0  0  0  0  0  0  0
   14.9398  -72.9381   -3.2675 C   0  0  0  0  0  0  0  0  0  0  0  0
   14.0157  -73.3963   -2.6289 C   0  0  0  0  0  0  0  0  0  0  0  0
   15.3016  -70.0146   -4.0651 C   0  0  0  0  0  0  0  0  0  0  0  0
   18.1284  -71.7042   -5.7409 C   0  0  0  0  0  0  0  0  0  0  0  0
   16.1797  -71.0600   -4.4740 C   0  0  0  0  0  0  0  0  0  0  0  0
   14.3842  -69.5433   -5.0422 C   0  0  0  0  0  0  0  0  0  0  0  0
   16.0217  -72.4318   -4.0666 C   0  0  0  0  0  0  0  0  0  0  0  0
   12.0600  -72.8185   -1.1690 C   0  0  0  0  0  0  0  0  0  0  0  0
   12.9060  -73.9513   -1.8281 C   0  0  1  0  0  0  0  0  0  0  0  0
   11.7130  -74.1270   -3.4292 H   0  0  0  0  0  0  0  0  0  0  0  0
   19.4332  -68.9975  -11.9365 H   0  0  0  0  0  0  0  0  0  0  0  0
   19.6709  -67.7363  -10.9268 H   0  0  0  0  0  0  0  0  0  0  0  0
   20.9432  -68.6208  -11.4418 H   0  0  0  0  0  0  0  0  0  0  0  0
   20.1956  -68.2178   -8.5726 H   0  0  0  0  0  0  0  0  0  0  0  0
   21.5413  -68.8492   -9.2487 H   0  0  0  0  0  0  0  0  0  0  0  0
   19.5183  -69.4601   -6.2366 H   0  0  0  0  0  0  0  0  0  0  0  0
   18.5787  -69.7557   -7.5391 H   0  0  0  0  0  0  0  0  0  0  0  0
   14.5080  -72.9572    0.8542 H   0  0  0  0  0  0  0  0  0  0  0  0
   13.2002  -72.6621    1.7865 H   0  0  0  0  0  0  0  0  0  0  0  0
   11.2279  -74.1080    1.6239 H   0  0  0  0  0  0  0  0  0  0  0  0
   11.2030  -75.3311    0.5423 H   0  0  0  0  0  0  0  0  0  0  0  0
   13.1457  -75.7935   -0.8480 H   0  0  0  0  0  0  0  0  0  0  0  0
   14.4711  -74.8448   -0.7493 H   0  0  0  0  0  0  0  0  0  0  0  0
   21.4314  -70.0561   -7.3229 H   0  0  0  0  0  0  0  0  0  0  0  0
   20.6383  -71.0439   -8.3533 H   0  0  0  0  0  0  0  0  0  0  0  0
   11.8998  -68.2006   -7.6936 H   0  0  0  0  0  0  0  0  0  0  0  0
   11.7356  -70.4906   -6.9159 H   0  0  0  0  0  0  0  0  0  0  0  0
   13.6316  -66.7663   -6.7947 H   0  0  0  0  0  0  0  0  0  0  0  0
   13.7163  -71.5859   -0.6982 H   0  0  0  0  0  0  0  0  0  0  0  0
   12.4160  -71.2790    0.2408 H   0  0  0  0  0  0  0  0  0  0  0  0
   10.3845  -72.7285    0.1090 H   0  0  0  0  0  0  0  0  0  0  0  0
   10.3035  -73.9661   -0.9532 H   0  0  0  0  0  0  0  0  0  0  0  0
   18.6568  -73.7397   -5.6774 H   0  0  0  0  0  0  0  0  0  0  0  0
   13.2753  -71.3276   -5.2625 H   0  0  0  0  0  0  0  0  0  0  0  0
   15.1804  -67.5988   -5.1472 H   0  0  0  0  0  0  0  0  0  0  0  0
   16.8294  -74.3670   -4.2136 H   0  0  0  0  0  0  0  0  0  0  0  0
   15.8641  -69.2397   -3.7769 H   0  0  0  0  0  0  0  0  0  0  0  0
   14.7713  -70.3496   -3.2863 H   0  0  0  0  0  0  0  0  0  0  0  0
   11.6859  -72.2175   -1.8752 H   0  0  0  0  0  0  0  0  0  0  0  0
  1 30  1  0  0  0  0
  2  6  1  0  0  0  0
  2  7  1  0  0  0  0
  3  8  1  0  0  0  0
  3 25  1  0  0  0  0
  4 25  2  0  0  0  0
  4 26  1  0  0  0  0
  5  9  1  0  0  0  0
  5 10  1  0  0  0  0
  5 11  1  0  0  0  0
  7 12  1  0  0  0  0
  8 12  1  0  0  0  0
  9 16  1  0  0  0  0
 10 17  1  0  0  0  0
 11 30  1  0  0  0  0
 13 14  2  0  0  0  0
 13 15  1  0  0  0  0
 14 19  1  0  0  0  0
 15 20  2  0  0  0  0
 16 29  1  0  0  0  0
 17 29  1  0  0  0  0
 18 21  2  0  0  0  0
 18 25  1  0  0  0  0
 19 27  2  0  0  0  0
 20 27  1  0  0  0  0
 21 28  1  0  0  0  0
 22 23  3  0  0  0  0
 22 28  1  0  0  0  0
 23 30  1  0  0  0  0
 24 26  1  0  0  0  0
 24 27  1  0  0  0  0
 26 28  2  0  0  0  0
 29 30  1  0  0  0  0
  1 31  1  0  0  0  0
  6 32  1  0  0  0  0
  6 33  1  0  0  0  0
  6 34  1  0  0  0  0
  7 35  1  0  0  0  0
  7 36  1  0  0  0  0
  8 37  1  0  0  0  0
  8 38  1  0  0  0  0
  9 39  1  0  0  0  0
  9 40  1  0  0  0  0
 10 41  1  0  0  0  0
 10 42  1  0  0  0  0
 11 43  1  0  0  0  0
 11 44  1  0  0  0  0
 12 45  1  0  0  0  0
 12 46  1  0  0  0  0
 13 47  1  0  0  0  0
 14 48  1  0  0  0  0
 15 49  1  0  0  0  0
 16 50  1  0  0  0  0
 16 51  1  0  0  0  0
 17 52  1  0  0  0  0
 17 53  1  0  0  0  0
 18 54  1  0  0  0  0
 19 55  1  0  0  0  0
 20 56  1  0  0  0  0
 21 57  1  0  0  0  0
 24 58  1  0  0  0  0
 24 59  1  0  0  0  0
 29 60  1  0  0  0  0
M  END
> <pdb_id>
3WCM

> <uniprot_id>
P37268

> <usmiles>
O(c1nc(c(C#C[C@]2(O)C3CCN(C2)CC3)cc1)Cc4ccccc4)CCCOC

$$$$
ERJ_A_401
          07202408473D 1   1.00000     0.00000     0
            
 37 40  0  0  0  0            999 V2000
   15.9009   53.1243   30.7478 S   0  0  0  0  0  0  0  0  0  0  0  0
   14.5722   59.8098   22.1415 O   0  0  0  0  0  0  0  0  0  0  0  0
    9.8107   58.9560   25.4118 O   0  0  0  0  0  0  0  0  0  0  0  0
   10.3257   60.7013   23.5460 O   0  0  0  0  0  0  0  0  0  0  0  0
   13.0718   58.6282   24.1425 O   0  0  0  0  0  0  0  0  0  0  0  0
   12.5346   55.0561   25.5143 N   0  0  0  0  0  0  0  0  0  0  0  0
   13.5544   53.6105   26.9911 N   0  0  0  0  0  0  0  0  0  0  0  0
   13.9105   57.1896   27.8940 N   0  0  0  0  0  0  0  0  0  0  0  0
   12.7456   57.4579   26.1001 N   0  0  0  0  0  0  0  0  0  0  0  0
   15.7826   54.7729   31.0195 C   0  0  0  0  0  0  0  0  0  0  0  0
   15.0132   52.9977   29.2351 C   0  0  0  0  0  0  0  0  0  0  0  0
   12.8409   53.8250   25.9030 C   0  0  0  0  0  0  0  0  0  0  0  0
   13.6018   60.5834   22.8374 C   0  0  0  0  0  0  0  0  0  0  0  0
   13.3515   58.0836   27.1120 C   0  0  0  0  0  0  0  0  0  0  0  0
   15.0951   55.2704   29.8769 C   0  0  0  0  0  0  0  0  0  0  0  0
   11.1778   59.3038   25.3720 C   0  0  2  0  0  0  0  0  0  0  0  0
   11.5015   60.3707   24.2906 C   0  0  1  0  0  0  0  0  0  0  0  0
   12.0622   58.1066   24.9852 C   0  0  1  0  0  0  0  0  0  0  0  0
   12.4950   59.6902   23.3605 C   0  0  2  0  0  0  0  0  0  0  0  0
   12.9206   56.1253   26.2370 C   0  0  0  0  0  0  0  0  0  0  0  0
   13.6618   55.9488   27.3810 C   0  0  0  0  0  0  0  0  0  0  0  0
   13.9708   54.6034   27.7640 C   0  0  0  0  0  0  0  0  0  0  0  0
   14.6849   54.3103   28.9217 C   0  0  0  0  0  0  0  0  0  0  0  0
   15.2961   60.4103   21.8018 H   0  0  0  0  0  0  0  0  0  0  0  0
    9.6621   58.2689   26.1231 H   0  0  0  0  0  0  0  0  0  0  0  0
   10.5508   61.3883   22.8551 H   0  0  0  0  0  0  0  0  0  0  0  0
   16.1189   55.2905   31.8063 H   0  0  0  0  0  0  0  0  0  0  0  0
   14.7947   52.1698   28.7186 H   0  0  0  0  0  0  0  0  0  0  0  0
   12.5251   53.0461   25.3613 H   0  0  0  0  0  0  0  0  0  0  0  0
   13.2120   61.2616   22.2145 H   0  0  0  0  0  0  0  0  0  0  0  0
   14.0405   61.0496   23.6056 H   0  0  0  0  0  0  0  0  0  0  0  0
   13.3756   59.0735   27.2517 H   0  0  0  0  0  0  0  0  0  0  0  0
   14.9118   56.2459   29.7557 H   0  0  0  0  0  0  0  0  0  0  0  0
   11.4582   59.6461   26.2687 H   0  0  0  0  0  0  0  0  0  0  0  0
   11.9028   61.1877   24.7047 H   0  0  0  0  0  0  0  0  0  0  0  0
   11.5187   57.4331   24.4842 H   0  0  0  0  0  0  0  0  0  0  0  0
   12.0004   59.2948   22.5865 H   0  0  0  0  0  0  0  0  0  0  0  0
  1 10  1  0  0  0  0
  1 11  1  0  0  0  0
  2 13  1  0  0  0  0
  3 16  1  0  0  0  0
  4 17  1  0  0  0  0
  5 18  1  0  0  0  0
  5 19  1  0  0  0  0
  6 12  2  0  0  0  0
  6 20  1  0  0  0  0
  7 12  1  0  0  0  0
  7 22  2  0  0  0  0
  8 14  2  0  0  0  0
  8 21  1  0  0  0  0
  9 14  1  0  0  0  0
  9 18  1  0  0  0  0
  9 20  1  0  0  0  0
 10 15  2  0  0  0  0
 11 23  2  0  0  0  0
 13 19  1  0  0  0  0
 15 23  1  0  0  0  0
 16 17  1  0  0  0  0
 16 18  1  0  0  0  0
 17 19  1  0  0  0  0
 20 21  2  0  0  0  0
 21 22  1  0  0  0  0
 22 23  1  0  0  0  0
  2 24  1  0  0  0  0
  3 25  1  0  0  0  0
  4 26  1  0  0  0  0
 10 27  1  0  0  0  0
 11 28  1  0  0  0  0
 12 29  1  0  0  0  0
 13 30  1  0  0  0  0
 13 31  1  0  0  0  0
 14 32  1  0  0  0  0
 15 33  1  0  0  0  0
 16 34  1  0  0  0  0
 17 35  1  0  0  0  0
 18 36  1  0  0  0  0
 19 37  1  0  0  0  0
M  END
> <pdb_id>
6C9R

> <uniprot_id>
A5U4N0

> <usmiles>
S1C=C(c2ncnc3N(C=Nc32)[C@@H]4O[C@@H]([C@@H](O)[C@H]4O)CO)C=C1

$$$$
ERZ_A_404
          07212404193D 1   1.00000     0.00000     0
            
 28 29  0  0  0  0            999 V2000
   12.3375   11.1227   40.6284 N   0  0  0  0  0  0  0  0  0  0  0  0
   12.5895    6.5938   44.0357 N   0  0  0  0  0  0  0  0  0  0  0  0
   11.1051    8.4650   43.8027 N   0  0  0  0  0  0  0  0  0  0  0  0
   13.2327    8.4360   42.8280 N   0  0  0  0  0  0  0  0  0  0  0  0
   13.6073   11.4157   40.9899 N   0  0  0  0  0  0  0  0  0  0  0  0
   14.2485   12.6168   40.4643 C   0  0  0  0  0  0  0  0  0  0  0  0
   15.4602   10.5641   42.3822 C   0  0  0  0  0  0  0  0  0  0  0  0
    9.3798    5.8168   45.8811 C   0  0  0  0  0  0  0  0  0  0  0  0
   12.0500    9.9985   41.2621 C   0  0  0  0  0  0  0  0  0  0  0  0
   11.6499    5.9858   44.7659 C   0  0  0  0  0  0  0  0  0  0  0  0
   10.2081    7.7979   44.5423 C   0  0  0  0  0  0  0  0  0  0  0  0
   12.2588    7.8110   43.5727 C   0  0  0  0  0  0  0  0  0  0  0  0
   13.1201    9.5476   42.0487 C   0  0  0  0  0  0  0  0  0  0  0  0
   14.0816   10.4901   41.8238 C   0  0  0  0  0  0  0  0  0  0  0  0
   10.4111    6.5339   45.0534 C   0  0  0  0  0  0  0  0  0  0  0  0
   14.1360    7.9739   42.8041 H   0  0  0  0  0  0  0  0  0  0  0  0
   13.7871   12.9427   39.5328 H   0  0  0  0  0  0  0  0  0  0  0  0
   15.3010   12.4259   40.2613 H   0  0  0  0  0  0  0  0  0  0  0  0
   14.1787   13.4448   41.1679 H   0  0  0  0  0  0  0  0  0  0  0  0
   16.2123   10.6977   41.6059 H   0  0  0  0  0  0  0  0  0  0  0  0
   15.7244    9.6639   42.9352 H   0  0  0  0  0  0  0  0  0  0  0  0
   15.5555   11.3938   43.0810 H   0  0  0  0  0  0  0  0  0  0  0  0
    8.3940    6.2713   45.7968 H   0  0  0  0  0  0  0  0  0  0  0  0
    9.6522    5.8170   46.9350 H   0  0  0  0  0  0  0  0  0  0  0  0
    9.2999    4.7819   45.5519 H   0  0  0  0  0  0  0  0  0  0  0  0
   11.0715    9.5351   41.1421 H   0  0  0  0  0  0  0  0  0  0  0  0
   11.9247    4.9961   45.1188 H   0  0  0  0  0  0  0  0  0  0  0  0
    9.2741    8.3306   44.7050 H   0  0  0  0  0  0  0  0  0  0  0  0
  1  5  1  0  0  0  0
  1  9  2  0  0  0  0
  2 10  1  0  0  0  0
  2 12  2  0  0  0  0
  3 11  2  0  0  0  0
  3 12  1  0  0  0  0
  4 12  1  0  0  0  0
  4 13  1  0  0  0  0
  4 16  1  0  0  0  0
  5  6  1  0  0  0  0
  5 14  1  0  0  0  0
  6 17  1  0  0  0  0
  6 18  1  0  0  0  0
  6 19  1  0  0  0  0
  7 14  1  0  0  0  0
  7 20  1  0  0  0  0
  7 21  1  0  0  0  0
  7 22  1  0  0  0  0
  8 15  1  0  0  0  0
  8 23  1  0  0  0  0
  8 24  1  0  0  0  0
  8 25  1  0  0  0  0
  9 13  1  0  0  0  0
  9 26  1  0  0  0  0
 10 15  2  0  0  0  0
 10 27  1  0  0  0  0
 11 15  1  0  0  0  0
 11 28  1  0  0  0  0
 13 14  2  0  0  0  0
M  END
> <pdb_id>
6G92

> <uniprot_id>
P28482

> <usmiles>
n1c(ncc(c1)C)NC2=C(N(N=C2)C)C

$$$$
ES1_A_290
          07192418533D 1   1.00000     0.00000     0
            
 18 19  0  0  0  0            999 V2000
   26.7397   44.8825   14.3734 O   0  0  0  0  0  0  0  0  0  0  0  0
   28.7589   44.3498   18.0057 N   0  0  0  0  0  0  0  0  0  0  0  0
   28.5820   45.6291   17.5014 C   0  0  0  0  0  0  0  0  0  0  0  0
   27.9578   40.8265   17.1055 C   0  0  0  0  0  0  0  0  0  0  0  0
   27.2830   41.0124   15.8716 C   0  0  0  0  0  0  0  0  0  0  0  0
   27.9073   45.8111   16.2686 C   0  0  0  0  0  0  0  0  0  0  0  0
   28.4564   41.9408   17.8259 C   0  0  0  0  0  0  0  0  0  0  0  0
   27.1038   42.3126   15.3531 C   0  0  0  0  0  0  0  0  0  0  0  0
   27.4253   44.7124   15.5781 C   0  0  0  0  0  0  0  0  0  0  0  0
   28.2721   43.2439   17.3113 C   0  0  0  0  0  0  0  0  0  0  0  0
   27.6023   43.4281   16.0835 C   0  0  0  0  0  0  0  0  0  0  0  0
   29.2389   44.2197   18.8733 H   0  0  0  0  0  0  0  0  0  0  0  0
   28.9291   46.4200   18.0055 H   0  0  0  0  0  0  0  0  0  0  0  0
   28.0826   39.9034   17.4694 H   0  0  0  0  0  0  0  0  0  0  0  0
   26.9341   40.2216   15.3689 H   0  0  0  0  0  0  0  0  0  0  0  0
   27.7796   46.7312   15.8983 H   0  0  0  0  0  0  0  0  0  0  0  0
   28.9357   41.8056   18.6930 H   0  0  0  0  0  0  0  0  0  0  0  0
   26.6318   42.4488   14.4821 H   0  0  0  0  0  0  0  0  0  0  0  0
  1  9  2  0  0  0  0
  2  3  1  0  0  0  0
  2 10  1  0  0  0  0
  3  6  2  0  0  0  0
  4  5  2  0  0  0  0
  4  7  1  0  0  0  0
  5  8  1  0  0  0  0
  6  9  1  0  0  0  0
  7 10  2  0  0  0  0
  8 11  2  0  0  0  0
  9 11  1  0  0  0  0
 10 11  1  0  0  0  0
  2 12  1  0  0  0  0
  3 13  1  0  0  0  0
  4 14  1  0  0  0  0
  5 15  1  0  0  0  0
  6 16  1  0  0  0  0
  7 17  1  0  0  0  0
  8 18  1  0  0  0  0
M  END
> <pdb_id>
3KPU

> <uniprot_id>
P11086

> <usmiles>
O=C1c2c(NC=C1)cccc2

$$$$
ES4_B_290
          07192418533D 1   1.00000     0.00000     0
            
 13 14  0  0  0  0            999 V2000
   26.5165   42.3587   14.9951 Cl  0  0  0  0  0  0  0  0  0  0  0  0
   27.5616   41.7648   17.4298 N   0  0  0  0  0  0  0  0  0  0  0  0
   28.4994   43.3679   18.9232 N   0  0  0  0  0  0  0  0  0  0  0  0
   28.4451   45.6975   18.0831 N   0  0  0  0  0  0  0  0  0  0  0  0
   27.4605   45.2162   16.1633 N   0  0  0  0  0  0  0  0  0  0  0  0
   28.1727   42.0637   18.6267 C   0  0  0  0  0  0  0  0  0  0  0  0
   27.9719   46.2360   16.9204 C   0  0  0  0  0  0  0  0  0  0  0  0
   27.2919   42.7542   16.5503 C   0  0  0  0  0  0  0  0  0  0  0  0
   28.2298   44.3626   18.0397 C   0  0  0  0  0  0  0  0  0  0  0  0
   27.6212   44.0650   16.8479 C   0  0  0  0  0  0  0  0  0  0  0  0
   28.8745   46.2006   18.8331 H   0  0  0  0  0  0  0  0  0  0  0  0
   28.3788   41.3348   19.2796 H   0  0  0  0  0  0  0  0  0  0  0  0
   27.9948   47.2032   16.6672 H   0  0  0  0  0  0  0  0  0  0  0  0
  1  8  1  0  0  0  0
  2  6  2  0  0  0  0
  2  8  1  0  0  0  0
  3  6  1  0  0  0  0
  3  9  2  0  0  0  0
  4  7  1  0  0  0  0
  4  9  1  0  0  0  0
  5  7  2  0  0  0  0
  5 10  1  0  0  0  0
  8 10  2  0  0  0  0
  9 10  1  0  0  0  0
  4 11  1  0  0  0  0
  6 12  1  0  0  0  0
  7 13  1  0  0  0  0
M  END
> <pdb_id>
3KQO

> <uniprot_id>
P11086

> <usmiles>
Clc1ncnc2NC=Nc12

$$$$
ESH_H_1246
          07202416143D 1   1.00000     0.00000     0
            
 64 68  0  0  0  0            999 V2000
    6.3776  -14.1127    9.1903 Cl  0  0  0  0  0  0  0  0  0  0  0  0
   12.2547  -13.1845   12.8528 O   0  0  0  0  0  0  0  0  0  0  0  0
   17.8185  -10.0070   10.8676 N   0  0  0  0  0  0  0  0  0  0  0  0
   18.3410  -12.2100   11.2066 N   0  3  0  0  0  0  0  0  0  0  0  0
   10.5499  -13.7338   14.2950 N   0  0  0  0  0  0  0  0  0  0  0  0
   13.4375  -12.6714   16.4012 N   0  0  0  0  0  0  0  0  0  0  0  0
    8.3725  -11.8151   14.7327 C   0  0  0  0  0  0  0  0  0  0  0  0
    8.2301  -12.7307   17.0735 C   0  0  0  0  0  0  0  0  0  0  0  0
    8.8910  -14.2183   10.2759 C   0  0  0  0  0  0  0  0  0  0  0  0
    7.0736  -14.7713   11.7590 C   0  0  0  0  0  0  0  0  0  0  0  0
    9.7724  -14.4627   11.3207 C   0  0  0  0  0  0  0  0  0  0  0  0
    7.9769  -15.0025   12.7938 C   0  0  0  0  0  0  0  0  0  0  0  0
   15.6320  -10.1947   12.7841 C   0  0  0  0  0  0  0  0  0  0  0  0
   16.2480  -12.4602   13.1715 C   0  0  0  0  0  0  0  0  0  0  0  0
   14.6271  -10.2908   13.7305 C   0  0  0  0  0  0  0  0  0  0  0  0
   15.2330  -12.5700   14.1019 C   0  0  0  0  0  0  0  0  0  0  0  0
   14.4885  -12.3601   17.4150 C   0  0  0  0  0  0  0  0  0  0  0  0
   10.3487  -15.0743   13.6990 C   0  0  0  0  0  0  0  0  0  0  0  0
   13.7737  -12.0297   18.7170 C   0  0  0  0  0  0  0  0  0  0  0  0
   12.2828  -11.9360   18.4007 C   0  0  0  0  0  0  0  0  0  0  0  0
    7.5363  -14.3818   10.5135 C   0  0  0  0  0  0  0  0  0  0  0  0
   11.6688  -12.9625   13.8684 C   0  0  0  0  0  0  0  0  0  0  0  0
   17.5702  -11.1439   11.4955 C   0  0  0  0  0  0  0  0  0  0  0  0
    9.3467  -14.8502   12.5720 C   0  0  0  0  0  0  0  0  0  0  0  0
   16.4647  -11.2546   12.4847 C   0  0  0  0  0  0  0  0  0  0  0  0
   14.3802  -11.5020   14.3896 C   0  0  0  0  0  0  0  0  0  0  0  0
   12.1497  -12.7483   17.1142 C   0  0  1  0  0  0  0  0  0  0  0  0
   13.2798  -11.5889   15.3940 C   0  0  1  0  0  0  0  0  0  0  0  0
   10.1388  -13.4364   15.6550 C   0  0  2  0  0  0  0  0  0  0  0  0
    8.6708  -12.9963   15.6556 C   0  0  0  0  0  0  0  0  0  0  0  0
   11.8678  -11.8546   14.8638 C   0  0  2  0  0  0  0  0  0  0  0  0
   11.1051  -12.3195   16.0949 C   0  0  2  0  0  0  0  0  0  0  0  0
   17.2693   -9.1912   11.0507 H   0  0  0  0  0  0  0  0  0  0  0  0
   18.5587   -9.9546   10.1929 H   0  0  0  0  0  0  0  0  0  0  0  0
   18.1896  -13.0916   11.6536 H   0  0  0  0  0  0  0  0  0  0  0  0
   19.0702  -12.1277   10.5293 H   0  0  0  0  0  0  0  0  0  0  0  0
    7.4834  -12.0237   14.1998 H   0  0  0  0  0  0  0  0  0  0  0  0
    8.2454  -10.9328   15.2931 H   0  0  0  0  0  0  0  0  0  0  0  0
    9.1665  -11.6725   14.0496 H   0  0  0  0  0  0  0  0  0  0  0  0
    7.6897  -11.8235   17.1346 H   0  0  0  0  0  0  0  0  0  0  0  0
    7.6034  -13.5237   17.3856 H   0  0  0  0  0  0  0  0  0  0  0  0
    9.0636  -12.6856   17.7251 H   0  0  0  0  0  0  0  0  0  0  0  0
    9.2522  -13.9262    9.2982 H   0  0  0  0  0  0  0  0  0  0  0  0
    6.0113  -14.9004   11.9265 H   0  0  0  0  0  0  0  0  0  0  0  0
   10.8317  -14.3305   11.1433 H   0  0  0  0  0  0  0  0  0  0  0  0
    7.6137  -15.3036   13.7674 H   0  0  0  0  0  0  0  0  0  0  0  0
   15.7688   -9.2417   12.2939 H   0  0  0  0  0  0  0  0  0  0  0  0
   16.8623  -13.3278   12.9812 H   0  0  0  0  0  0  0  0  0  0  0  0
   13.9869   -9.4382   13.9209 H   0  0  0  0  0  0  0  0  0  0  0  0
   15.0882  -13.5192   14.5992 H   0  0  0  0  0  0  0  0  0  0  0  0
   15.1385  -13.2265   17.5555 H   0  0  0  0  0  0  0  0  0  0  0  0
   15.1011  -11.5132   17.0997 H   0  0  0  0  0  0  0  0  0  0  0  0
   11.2834  -15.4850   13.3113 H   0  0  0  0  0  0  0  0  0  0  0  0
    9.9394  -15.7648   14.4395 H   0  0  0  0  0  0  0  0  0  0  0  0
   13.9546  -12.8120   19.4575 H   0  0  0  0  0  0  0  0  0  0  0  0
   14.1341  -11.0836   19.1160 H   0  0  0  0  0  0  0  0  0  0  0  0
   11.6844  -12.3726   19.2027 H   0  0  0  0  0  0  0  0  0  0  0  0
   11.9833  -10.8977   18.2443 H   0  0  0  0  0  0  0  0  0  0  0  0
   11.9643  -13.7931   17.3997 H   0  0  0  0  0  0  0  0  0  0  0  0
   13.2403  -10.6302   15.9285 H   0  0  0  0  0  0  0  0  0  0  0  0
   10.2550  -14.3187   16.2969 H   0  0  0  0  0  0  0  0  0  0  0  0
    8.0755  -13.8455   15.3007 H   0  0  0  0  0  0  0  0  0  0  0  0
   11.4237  -10.9221   14.4933 H   0  0  0  0  0  0  0  0  0  0  0  0
   10.5407  -11.4673   16.4946 H   0  0  0  0  0  0  0  0  0  0  0  0
  1 21  1  0  0  0  0
  2 22  2  0  0  0  0
  3 23  1  0  0  0  0
  3 33  1  0  0  0  0
  3 34  1  0  0  0  0
  4 23  2  0  0  0  0
  4 35  1  0  0  0  0
  4 36  1  0  0  0  0
  5 18  1  0  0  0  0
  5 22  1  0  0  0  0
  5 29  1  0  0  0  0
  6 17  1  0  0  0  0
  6 27  1  0  0  0  0
  6 28  1  0  0  0  0
  7 30  1  0  0  0  0
  7 37  1  0  0  0  0
  7 38  1  0  0  0  0
  7 39  1  0  0  0  0
  8 30  1  0  0  0  0
  8 40  1  0  0  0  0
  8 41  1  0  0  0  0
  8 42  1  0  0  0  0
  9 11  2  0  0  0  0
  9 21  1  0  0  0  0
  9 43  1  0  0  0  0
 10 12  1  0  0  0  0
 10 21  2  0  0  0  0
 10 44  1  0  0  0  0
 11 24  1  0  0  0  0
 11 45  1  0  0  0  0
 12 24  2  0  0  0  0
 12 46  1  0  0  0  0
 13 15  1  0  0  0  0
 13 25  2  0  0  0  0
 13 47  1  0  0  0  0
 14 16  2  0  0  0  0
 14 25  1  0  0  0  0
 14 48  1  0  0  0  0
 15 26  2  0  0  0  0
 15 49  1  0  0  0  0
 16 26  1  0  0  0  0
 16 50  1  0  0  0  0
 17 19  1  0  0  0  0
 17 51  1  0  0  0  0
 17 52  1  0  0  0  0
 18 24  1  0  0  0  0
 18 53  1  0  0  0  0
 18 54  1  0  0  0  0
 19 20  1  0  0  0  0
 19 55  1  0  0  0  0
 19 56  1  0  0  0  0
 20 27  1  0  0  0  0
 20 57  1  0  0  0  0
 20 58  1  0  0  0  0
 22 31  1  0  0  0  0
 23 25  1  0  0  0  0
 26 28  1  0  0  0  0
 27 32  1  0  0  0  0
 27 59  1  0  0  0  0
 28 31  1  0  0  0  0
 28 60  1  0  0  0  0
 29 30  1  0  0  0  0
 29 32  1  0  0  0  0
 29 61  1  0  0  0  0
 30 62  1  0  0  0  0
 31 32  1  0  0  0  0
 31 63  1  0  0  0  0
 32 64  1  0  0  0  0
M  CHG  1   4   1
M  END
> <pdb_id>
2CF8

> <uniprot_id>
P00734

> <usmiles>
Clc1ccc(cc1)CN2C(=O)[C@@H]3[C@@H](N4[C@H]([C@@H]3[C@H]2C(C)C)CCC4)c5ccc(cc5)C(=[NH2+])N

$$$$
ESI_A_246
          07192419343D 1   1.00000     0.00000     0
            
 21 22  0  0  0  0            999 V2000
   48.1625   23.5857   52.5491 I   0  0  0  0  0  0  0  0  0  0  0  0
   45.5502   18.9343   50.8658 S   0  0  0  0  0  0  0  0  0  0  0  0
   47.2743   18.3298   54.4384 N   0  0  0  0  0  0  0  0  0  0  0  0
   46.5710   16.9258   52.7833 N   0  3  0  0  0  0  0  0  0  0  0  0
   45.6893   22.6938   49.2052 C   0  0  0  0  0  0  0  0  0  0  0  0
   46.5074   23.3067   50.1298 C   0  0  0  0  0  0  0  0  0  0  0  0
   45.3577   21.3526   49.3647 C   0  0  0  0  0  0  0  0  0  0  0  0
   47.0785   20.4253   52.4382 C   0  0  0  0  0  0  0  0  0  0  0  0
   46.9952   22.5922   51.2300 C   0  0  0  0  0  0  0  0  0  0  0  0
   46.5980   19.1424   52.3568 C   0  0  0  0  0  0  0  0  0  0  0  0
   45.8424   20.6413   50.4538 C   0  0  0  0  0  0  0  0  0  0  0  0
   46.8209   18.1117   53.2383 C   0  0  0  0  0  0  0  0  0  0  0  0
   46.6585   21.2401   51.3854 C   0  0  0  0  0  0  0  0  0  0  0  0
   47.5196   19.2793   54.6430 H   0  0  0  0  0  0  0  0  0  0  0  0
   47.4622   17.6505   55.1333 H   0  0  0  0  0  0  0  0  0  0  0  0
   46.2845   16.8254   51.8121 H   0  0  0  0  0  0  0  0  0  0  0  0
   46.6662   16.1021   53.3088 H   0  0  0  0  0  0  0  0  0  0  0  0
   45.3170   23.2561   48.3656 H   0  0  0  0  0  0  0  0  0  0  0  0
   46.7735   24.3480   50.0079 H   0  0  0  0  0  0  0  0  0  0  0  0
   44.7163   20.8646   48.6499 H   0  0  0  0  0  0  0  0  0  0  0  0
   47.7166   20.7709   53.2361 H   0  0  0  0  0  0  0  0  0  0  0  0
  1  9  1  0  0  0  0
  2 10  1  0  0  0  0
  2 11  1  0  0  0  0
  3 12  1  0  0  0  0
  3 14  1  0  0  0  0
  3 15  1  0  0  0  0
  4 12  2  0  0  0  0
  4 16  1  0  0  0  0
  4 17  1  0  0  0  0
  5  6  2  0  0  0  0
  5  7  1  0  0  0  0
  5 18  1  0  0  0  0
  6  9  1  0  0  0  0
  6 19  1  0  0  0  0
  7 11  2  0  0  0  0
  7 20  1  0  0  0  0
  8 10  2  0  0  0  0
  8 13  1  0  0  0  0
  8 21  1  0  0  0  0
  9 13  2  0  0  0  0
 10 12  1  0  0  0  0
 11 13  1  0  0  0  0
M  CHG  1   4   1
M  END
> <pdb_id>
1C5R

> <uniprot_id>
P00760

> <usmiles>
Ic1c2c(SC(C(=[NH2+])N)=C2)ccc1

$$$$
ESI_B_251
          07202413303D 1   1.00000     0.00000     0
            
 21 22  0  0  0  0            999 V2000
  -27.9819  -17.2207    0.1924 I   0  0  0  0  0  0  0  0  0  0  0  0
  -30.3382  -18.3923   -4.8008 S   0  0  0  0  0  0  0  0  0  0  0  0
  -32.2506  -20.4674   -1.9539 N   0  0  0  0  0  0  0  0  0  0  0  0
  -32.1892  -20.6401   -4.2442 N   0  3  0  0  0  0  0  0  0  0  0  0
  -27.3708  -15.7534   -3.8414 C   0  0  0  0  0  0  0  0  0  0  0  0
  -27.3252  -15.9961   -2.4744 C   0  0  0  0  0  0  0  0  0  0  0  0
  -28.2710  -16.4425   -4.6399 C   0  0  0  0  0  0  0  0  0  0  0  0
  -29.9722  -18.5784   -2.2692 C   0  0  0  0  0  0  0  0  0  0  0  0
  -28.1714  -16.9301   -1.8887 C   0  0  0  0  0  0  0  0  0  0  0  0
  -30.7874  -19.1519   -3.2209 C   0  0  0  0  0  0  0  0  0  0  0  0
  -29.1009  -17.3689   -4.0494 C   0  0  0  0  0  0  0  0  0  0  0  0
  -31.7817  -20.1196   -3.1234 C   0  0  0  0  0  0  0  0  0  0  0  0
  -29.0771  -17.6293   -2.6886 C   0  0  0  0  0  0  0  0  0  0  0  0
  -31.8084  -20.0728   -1.1374 H   0  0  0  0  0  0  0  0  0  0  0  0
  -32.9688  -21.1383   -1.7937 H   0  0  0  0  0  0  0  0  0  0  0  0
  -31.7223  -20.3723   -5.1032 H   0  0  0  0  0  0  0  0  0  0  0  0
  -32.8916  -21.3330   -4.3251 H   0  0  0  0  0  0  0  0  0  0  0  0
  -26.7077  -15.0188   -4.2746 H   0  0  0  0  0  0  0  0  0  0  0  0
  -26.6227  -15.4499   -1.8685 H   0  0  0  0  0  0  0  0  0  0  0  0
  -28.3160  -16.2639   -5.7062 H   0  0  0  0  0  0  0  0  0  0  0  0
  -30.0398  -18.8558   -1.2298 H   0  0  0  0  0  0  0  0  0  0  0  0
  1  9  1  0  0  0  0
  2 10  1  0  0  0  0
  2 11  1  0  0  0  0
  3 12  1  0  0  0  0
  3 14  1  0  0  0  0
  3 15  1  0  0  0  0
  4 12  2  0  0  0  0
  4 16  1  0  0  0  0
  4 17  1  0  0  0  0
  5  6  2  0  0  0  0
  5  7  1  0  0  0  0
  5 18  1  0  0  0  0
  6  9  1  0  0  0  0
  6 19  1  0  0  0  0
  7 11  2  0  0  0  0
  7 20  1  0  0  0  0
  8 10  2  0  0  0  0
  8 13  1  0  0  0  0
  8 21  1  0  0  0  0
  9 13  2  0  0  0  0
 10 12  1  0  0  0  0
 11 13  1  0  0  0  0
M  CHG  1   4   1
M  END
> <pdb_id>
1C5W

> <uniprot_id>
P00749

> <usmiles>
Ic1c2c(SC(C(=[NH2+])N)=C2)ccc1

$$$$
ESP_A_246
          07192419343D 1   1.00000     0.00000     0
            
 20 21  0  0  0  0            999 V2000
   45.8432   19.0003   50.7046 S   0  0  0  0  0  0  0  0  0  0  0  0
   47.5291   18.4071   54.1345 N   0  0  0  0  0  0  0  0  0  0  0  0
   46.4125   16.9242   52.7726 N   0  3  0  0  0  0  0  0  0  0  0  0
   45.2649   21.0721   49.2255 N   0  0  0  0  0  0  0  0  0  0  0  0
   45.2347   22.3967   49.0960 C   0  0  0  0  0  0  0  0  0  0  0  0
   45.6942   23.1781   50.1610 C   0  0  0  0  0  0  0  0  0  0  0  0
   46.1724   22.6145   51.3073 C   0  0  0  0  0  0  0  0  0  0  0  0
   46.6070   20.5204   52.4502 C   0  0  0  0  0  0  0  0  0  0  0  0
   46.8196   18.1141   53.0971 C   0  0  0  0  0  0  0  0  0  0  0  0
   45.7202   20.4722   50.3218 C   0  0  0  0  0  0  0  0  0  0  0  0
   46.5046   19.1620   52.2743 C   0  0  0  0  0  0  0  0  0  0  0  0
   46.1797   21.2547   51.3808 C   0  0  0  0  0  0  0  0  0  0  0  0
   47.8280   19.3758   54.1669 H   0  0  0  0  0  0  0  0  0  0  0  0
   47.8405   17.7972   54.8406 H   0  0  0  0  0  0  0  0  0  0  0  0
   45.9848   16.8352   51.8589 H   0  0  0  0  0  0  0  0  0  0  0  0
   46.5944   16.0977   53.2730 H   0  0  0  0  0  0  0  0  0  0  0  0
   44.8537   22.8490   48.2021 H   0  0  0  0  0  0  0  0  0  0  0  0
   45.6758   24.2542   50.0734 H   0  0  0  0  0  0  0  0  0  0  0  0
   46.5278   23.2233   52.1257 H   0  0  0  0  0  0  0  0  0  0  0  0
   46.9947   20.9740   53.3510 H   0  0  0  0  0  0  0  0  0  0  0  0
  1 10  1  0  0  0  0
  1 11  1  0  0  0  0
  2  9  1  0  0  0  0
  2 13  1  0  0  0  0
  2 14  1  0  0  0  0
  3  9  2  0  0  0  0
  3 15  1  0  0  0  0
  3 16  1  0  0  0  0
  4  5  1  0  0  0  0
  4 10  2  0  0  0  0
  5  6  2  0  0  0  0
  5 17  1  0  0  0  0
  6  7  1  0  0  0  0
  6 18  1  0  0  0  0
  7 12  2  0  0  0  0
  7 19  1  0  0  0  0
  8 11  2  0  0  0  0
  8 12  1  0  0  0  0
  8 20  1  0  0  0  0
  9 11  1  0  0  0  0
 10 12  1  0  0  0  0
M  CHG  1   3   1
M  END
> <pdb_id>
1C5U

> <uniprot_id>
P00760

> <usmiles>
S1c2ncccc2C=C1C(=[NH2+])N

$$$$
ESP_B_251
          07202413303D 1   1.00000     0.00000     0
            
 20 21  0  0  0  0            999 V2000
  -30.4798  -18.4777   -4.8339 S   0  0  0  0  0  0  0  0  0  0  0  0
  -32.0435  -20.5875   -1.9294 N   0  0  0  0  0  0  0  0  0  0  0  0
  -32.1726  -20.6954   -4.2310 N   0  3  0  0  0  0  0  0  0  0  0  0
  -28.5135  -16.5221   -4.7720 N   0  0  0  0  0  0  0  0  0  0  0  0
  -27.6075  -15.7767   -4.1610 C   0  0  0  0  0  0  0  0  0  0  0  0
  -27.4399  -15.9985   -2.7961 C   0  0  0  0  0  0  0  0  0  0  0  0
  -28.1943  -16.9423   -2.1424 C   0  0  0  0  0  0  0  0  0  0  0  0
  -29.9220  -18.6364   -2.3222 C   0  0  0  0  0  0  0  0  0  0  0  0
  -31.7051  -20.2114   -3.1261 C   0  0  0  0  0  0  0  0  0  0  0  0
  -29.2684  -17.4372   -4.2195 C   0  0  0  0  0  0  0  0  0  0  0  0
  -30.7658  -19.2225   -3.2371 C   0  0  0  0  0  0  0  0  0  0  0  0
  -29.1099  -17.6677   -2.8615 C   0  0  0  0  0  0  0  0  0  0  0  0
  -31.5374  -20.1374   -1.1786 H   0  0  0  0  0  0  0  0  0  0  0  0
  -32.7348  -21.2570   -1.6931 H   0  0  0  0  0  0  0  0  0  0  0  0
  -31.7826  -20.3580   -5.0986 H   0  0  0  0  0  0  0  0  0  0  0  0
  -32.8575  -21.3973   -4.2864 H   0  0  0  0  0  0  0  0  0  0  0  0
  -27.0250  -15.0403   -4.6902 H   0  0  0  0  0  0  0  0  0  0  0  0
  -26.7164  -15.4196   -2.2378 H   0  0  0  0  0  0  0  0  0  0  0  0
  -28.0724  -17.1173   -1.0887 H   0  0  0  0  0  0  0  0  0  0  0  0
  -29.8905  -18.9054   -1.2731 H   0  0  0  0  0  0  0  0  0  0  0  0
  1 10  1  0  0  0  0
  1 11  1  0  0  0  0
  2  9  1  0  0  0  0
  2 13  1  0  0  0  0
  2 14  1  0  0  0  0
  3  9  2  0  0  0  0
  3 15  1  0  0  0  0
  3 16  1  0  0  0  0
  4  5  1  0  0  0  0
  4 10  2  0  0  0  0
  5  6  2  0  0  0  0
  5 17  1  0  0  0  0
  6  7  1  0  0  0  0
  6 18  1  0  0  0  0
  7 12  2  0  0  0  0
  7 19  1  0  0  0  0
  8 11  2  0  0  0  0
  8 12  1  0  0  0  0
  8 20  1  0  0  0  0
  9 11  1  0  0  0  0
 10 12  1  0  0  0  0
M  CHG  1   3   1
M  END
> <pdb_id>
1C5Y

> <uniprot_id>
P00749

> <usmiles>
S1c2ncccc2C=C1C(=[NH2+])N

$$$$
ESX_A_246
          07192419343D 1   1.00000     0.00000     0
            
 21 22  0  0  0  0            999 V2000
   45.7534   18.9204   50.7173 S   0  0  0  0  0  0  0  0  0  0  0  0
   47.2952   18.3326   54.4053 N   0  0  0  0  0  0  0  0  0  0  0  0
   46.4170   16.9451   52.8007 N   0  3  0  0  0  0  0  0  0  0  0  0
   45.7134   22.6313   49.0057 C   0  0  0  0  0  0  0  0  0  0  0  0
   46.3405   23.3230   50.0359 C   0  0  0  0  0  0  0  0  0  0  0  0
   45.4975   21.2721   49.1351 C   0  0  0  0  0  0  0  0  0  0  0  0
   46.7436   22.6505   51.1957 C   0  0  0  0  0  0  0  0  0  0  0  0
   46.8921   20.5025   52.4439 C   0  0  0  0  0  0  0  0  0  0  0  0
   46.7710   18.1123   53.2410 C   0  0  0  0  0  0  0  0  0  0  0  0
   45.9059   20.6266   50.2890 C   0  0  0  0  0  0  0  0  0  0  0  0
   46.5812   19.1552   52.3785 C   0  0  0  0  0  0  0  0  0  0  0  0
   46.5298   21.2832   51.3411 C   0  0  0  0  0  0  0  0  0  0  0  0
   47.6225   19.2712   54.5698 H   0  0  0  0  0  0  0  0  0  0  0  0
   47.4604   17.6617   55.1157 H   0  0  0  0  0  0  0  0  0  0  0  0
   46.1225   16.8635   51.8305 H   0  0  0  0  0  0  0  0  0  0  0  0
   46.4942   16.1060   53.3113 H   0  0  0  0  0  0  0  0  0  0  0  0
   45.4014   23.1496   48.1112 H   0  0  0  0  0  0  0  0  0  0  0  0
   46.5154   24.3845   49.9406 H   0  0  0  0  0  0  0  0  0  0  0  0
   45.0127   20.7179   48.3459 H   0  0  0  0  0  0  0  0  0  0  0  0
   47.2255   23.2088   51.9839 H   0  0  0  0  0  0  0  0  0  0  0  0
   47.3813   20.9264   53.3045 H   0  0  0  0  0  0  0  0  0  0  0  0
  1 10  1  0  0  0  0
  1 11  1  0  0  0  0
  2  9  1  0  0  0  0
  2 13  1  0  0  0  0
  2 14  1  0  0  0  0
  3  9  2  0  0  0  0
  3 15  1  0  0  0  0
  3 16  1  0  0  0  0
  4  5  2  0  0  0  0
  4  6  1  0  0  0  0
  4 17  1  0  0  0  0
  5  7  1  0  0  0  0
  5 18  1  0  0  0  0
  6 10  2  0  0  0  0
  6 19  1  0  0  0  0
  7 12  2  0  0  0  0
  7 20  1  0  0  0  0
  8 11  2  0  0  0  0
  8 12  1  0  0  0  0
  8 21  1  0  0  0  0
  9 11  1  0  0  0  0
 10 12  1  0  0  0  0
M  CHG  1   3   1
M  END
> <pdb_id>
1C5S

> <uniprot_id>
P00760

> <usmiles>
S1c2c(cccc2)C=C1C(=[NH2+])N

$$$$
EU2_A_406
          07212404193D 1   1.00000     0.00000     0
            
 41 44  0  0  0  0            999 V2000
    8.9579    5.5409   46.0007 Cl  0  0  0  0  0  0  0  0  0  0  0  0
    4.2401    7.0974   45.6763 O   0  0  0  0  0  0  0  0  0  0  0  0
   13.0682   11.0584   39.5957 O   0  0  0  0  0  0  0  0  0  0  0  0
   12.1954    6.4017   43.9397 N   0  0  0  0  0  0  0  0  0  0  0  0
   10.6062    8.1529   43.5328 N   0  0  0  0  0  0  0  0  0  0  0  0
    3.8984    9.2442   44.9357 N   0  0  0  0  0  0  0  0  0  0  0  0
   12.7136    8.1816   42.6025 N   0  0  0  0  0  0  0  0  0  0  0  0
   11.2937    5.8236   44.7289 C   0  0  0  0  0  0  0  0  0  0  0  0
    8.4174    9.7051   44.0812 C   0  0  0  0  0  0  0  0  0  0  0  0
    7.2560   10.4569   44.1504 C   0  0  0  0  0  0  0  0  0  0  0  0
    7.2054    7.7509   44.7739 C   0  0  0  0  0  0  0  0  0  0  0  0
   11.7438   10.5928   39.8520 C   0  0  0  0  0  0  0  0  0  0  0  0
   13.7313   11.3700   40.8374 C   0  0  0  0  0  0  0  0  0  0  0  0
    4.6861   10.4409   44.6810 C   0  0  0  0  0  0  0  0  0  0  0  0
   11.7646    9.3014   40.6500 C   0  0  0  0  0  0  0  0  0  0  0  0
   13.8835   10.1332   41.7132 C   0  0  0  0  0  0  0  0  0  0  0  0
    4.6565    8.1568   45.2056 C   0  0  0  0  0  0  0  0  0  0  0  0
   10.0467    6.3740   44.9486 C   0  0  0  0  0  0  0  0  0  0  0  0
   11.8163    7.5711   43.3844 C   0  0  0  0  0  0  0  0  0  0  0  0
    9.6970    7.5767   44.3052 C   0  0  0  0  0  0  0  0  0  0  0  0
    8.4197    8.3410   44.3943 C   0  0  0  0  0  0  0  0  0  0  0  0
    6.0676    9.8646   44.5291 C   0  0  0  0  0  0  0  0  0  0  0  0
    6.0452    8.5153   44.8337 C   0  0  0  0  0  0  0  0  0  0  0  0
   12.5369    9.4660   41.9626 C   0  0  0  0  0  0  0  0  0  0  0  0
    3.0503    9.1782   44.7435 H   0  0  0  0  0  0  0  0  0  0  0  0
   13.5026    7.8002   42.5303 H   0  0  0  0  0  0  0  0  0  0  0  0
   11.5239    5.0089   45.1663 H   0  0  0  0  0  0  0  0  0  0  0  0
    9.2331   10.1295   43.8218 H   0  0  0  0  0  0  0  0  0  0  0  0
    7.2773   11.3882   43.9369 H   0  0  0  0  0  0  0  0  0  0  0  0
    7.1681    6.8221   44.9859 H   0  0  0  0  0  0  0  0  0  0  0  0
   11.2841   10.4416   39.0011 H   0  0  0  0  0  0  0  0  0  0  0  0
   11.2489   11.2778   40.3508 H   0  0  0  0  0  0  0  0  0  0  0  0
   13.2116   12.0507   41.3222 H   0  0  0  0  0  0  0  0  0  0  0  0
   14.6203   11.7440   40.6456 H   0  0  0  0  0  0  0  0  0  0  0  0
    4.3922   10.8922   43.8601 H   0  0  0  0  0  0  0  0  0  0  0  0
    4.6374   11.0668   45.4351 H   0  0  0  0  0  0  0  0  0  0  0  0
   12.1862    8.5945   40.1135 H   0  0  0  0  0  0  0  0  0  0  0  0
   10.8431    9.0251   40.8474 H   0  0  0  0  0  0  0  0  0  0  0  0
   14.2830   10.3893   42.5726 H   0  0  0  0  0  0  0  0  0  0  0  0
   14.4868    9.4953   41.2743 H   0  0  0  0  0  0  0  0  0  0  0  0
   12.0098   10.0432   42.5635 H   0  0  0  0  0  0  0  0  0  0  0  0
  1 18  1  0  0  0  0
  2 17  2  0  0  0  0
  3 12  1  0  0  0  0
  3 13  1  0  0  0  0
  4  8  1  0  0  0  0
  4 19  2  0  0  0  0
  5 19  1  0  0  0  0
  5 20  2  0  0  0  0
  6 14  1  0  0  0  0
  6 17  1  0  0  0  0
  6 25  1  0  0  0  0
  7 19  1  0  0  0  0
  7 24  1  0  0  0  0
  7 26  1  0  0  0  0
  8 18  2  0  0  0  0
  8 27  1  0  0  0  0
  9 10  1  0  0  0  0
  9 21  2  0  0  0  0
  9 28  1  0  0  0  0
 10 22  2  0  0  0  0
 10 29  1  0  0  0  0
 11 21  1  0  0  0  0
 11 23  2  0  0  0  0
 11 30  1  0  0  0  0
 12 15  1  0  0  0  0
 12 31  1  0  0  0  0
 12 32  1  0  0  0  0
 13 16  1  0  0  0  0
 13 33  1  0  0  0  0
 13 34  1  0  0  0  0
 14 22  1  0  0  0  0
 14 35  1  0  0  0  0
 14 36  1  0  0  0  0
 15 24  1  0  0  0  0
 15 37  1  0  0  0  0
 15 38  1  0  0  0  0
 16 24  1  0  0  0  0
 16 39  1  0  0  0  0
 16 40  1  0  0  0  0
 17 23  1  0  0  0  0
 18 20  1  0  0  0  0
 20 21  1  0  0  0  0
 22 23  1  0  0  0  0
 24 41  1  0  0  0  0
M  END
> <pdb_id>
6G93

> <uniprot_id>
P28482

> <usmiles>
Clc1c(nc(nc1)NC2CCOCC2)c3cc4c(cc3)CNC4=O

$$$$
EUH_D_302
          07192417503D 1   1.00000     0.00000     0
            
 20 21  0  0  0  0            999 V2000
  -19.0459   15.5582    2.2095 S   0  0  0  0  0  0  0  0  0  0  0  0
  -15.0667   18.0547    5.1535 S   0  0  0  0  0  0  0  0  0  0  0  0
  -16.0870   18.2859    7.4917 F   0  0  0  0  0  0  0  0  0  0  0  0
  -16.9178   19.5206    6.0038 F   0  0  0  0  0  0  0  0  0  0  0  0
  -14.9192   20.0583    6.7068 F   0  0  0  0  0  0  0  0  0  0  0  0
  -20.6023   13.2808    2.3023 N   0  0  0  0  0  0  0  0  0  0  0  0
  -18.9800   13.7998    3.9671 N   0  0  0  0  0  0  0  0  0  0  0  0
  -16.3912   15.6641    5.8117 C   0  0  0  0  0  0  0  0  0  0  0  0
  -17.2845   14.6339    5.5426 C   0  0  0  0  0  0  0  0  0  0  0  0
  -17.0582   16.8243    3.7381 C   0  0  0  0  0  0  0  0  0  0  0  0
  -19.6512   14.0502    2.8245 C   0  0  0  0  0  0  0  0  0  0  0  0
  -16.2643   16.7429    4.8765 C   0  0  0  0  0  0  0  0  0  0  0  0
  -17.9282   15.8200    3.5165 C   0  0  0  0  0  0  0  0  0  0  0  0
  -18.0667   14.7176    4.3945 C   0  0  0  0  0  0  0  0  0  0  0  0
  -15.8195   19.0686    6.3805 C   0  0  0  0  0  0  0  0  0  0  0  0
  -20.8620   12.4288    2.7569 H   0  0  0  0  0  0  0  0  0  0  0  0
  -21.0576   13.5543    1.4550 H   0  0  0  0  0  0  0  0  0  0  0  0
  -15.8433   15.6528    6.6481 H   0  0  0  0  0  0  0  0  0  0  0  0
  -17.3634   13.8508    6.1595 H   0  0  0  0  0  0  0  0  0  0  0  0
  -16.9863   17.5980    3.1086 H   0  0  0  0  0  0  0  0  0  0  0  0
  1 11  1  0  0  0  0
  1 13  1  0  0  0  0
  2 12  1  0  0  0  0
  2 15  1  0  0  0  0
  3 15  1  0  0  0  0
  4 15  1  0  0  0  0
  5 15  1  0  0  0  0
  6 11  1  0  0  0  0
  7 11  2  0  0  0  0
  7 14  1  0  0  0  0
  8  9  1  0  0  0  0
  8 12  2  0  0  0  0
  9 14  2  0  0  0  0
 10 12  1  0  0  0  0
 10 13  2  0  0  0  0
 13 14  1  0  0  0  0
  6 16  1  0  0  0  0
  6 17  1  0  0  0  0
  8 18  1  0  0  0  0
  9 19  1  0  0  0  0
 10 20  1  0  0  0  0
M  END
> <pdb_id>
6GCQ

> <uniprot_id>
O76290

> <usmiles>
S1c2c(N=C1N)ccc(SC(F)(F)F)c2

$$$$
EUK_B_302
          07192417503D 1   1.00000     0.00000     0
            
 30 32  0  0  0  0            999 V2000
  -19.8384   21.9885    8.5025 Cl  0  0  0  0  0  0  0  0  0  0  0  0
  -19.2233   21.8334    5.5454 Cl  0  0  0  0  0  0  0  0  0  0  0  0
  -14.9943   18.0797    5.1333 S   0  0  0  0  0  0  0  0  0  0  0  0
  -18.9101   15.5979    2.2118 S   0  0  0  0  0  0  0  0  0  0  0  0
  -20.5080   13.3691    2.1538 N   0  0  0  0  0  0  0  0  0  0  0  0
  -18.9516   13.7746    3.9520 N   0  0  0  0  0  0  0  0  0  0  0  0
  -15.1467   18.6658    6.8735 C   0  0  0  0  0  0  0  0  0  0  0  0
  -17.6732   20.3434    8.9580 C   0  0  0  0  0  0  0  0  0  0  0  0
  -16.3626   15.5883    5.8453 C   0  0  0  0  0  0  0  0  0  0  0  0
  -17.2960   14.5784    5.5327 C   0  0  0  0  0  0  0  0  0  0  0  0
  -16.5895   19.5705    8.5251 C   0  0  0  0  0  0  0  0  0  0  0  0
  -17.0005   16.7180    3.7878 C   0  0  0  0  0  0  0  0  0  0  0  0
  -17.0212   20.1545    6.2265 C   0  0  0  0  0  0  0  0  0  0  0  0
  -19.5759   14.0953    2.8022 C   0  0  0  0  0  0  0  0  0  0  0  0
  -18.4445   21.0180    8.0186 C   0  0  0  0  0  0  0  0  0  0  0  0
  -18.1299   20.9275    6.6625 C   0  0  0  0  0  0  0  0  0  0  0  0
  -16.2204   16.6628    4.9469 C   0  0  0  0  0  0  0  0  0  0  0  0
  -17.8706   15.7455    3.5462 C   0  0  0  0  0  0  0  0  0  0  0  0
  -18.0260   14.6565    4.3826 C   0  0  0  0  0  0  0  0  0  0  0  0
  -16.2499   19.4638    7.1797 C   0  0  0  0  0  0  0  0  0  0  0  0
  -20.8442   12.5161    2.5531 H   0  0  0  0  0  0  0  0  0  0  0  0
  -20.8635   13.6833    1.2735 H   0  0  0  0  0  0  0  0  0  0  0  0
  -14.3244   19.1933    7.0872 H   0  0  0  0  0  0  0  0  0  0  0  0
  -15.1865   17.8578    7.4614 H   0  0  0  0  0  0  0  0  0  0  0  0
  -17.8901   20.4096    9.9319 H   0  0  0  0  0  0  0  0  0  0  0  0
  -15.8167   15.5423    6.6819 H   0  0  0  0  0  0  0  0  0  0  0  0
  -17.4229   13.8052    6.1540 H   0  0  0  0  0  0  0  0  0  0  0  0
  -16.0425   19.0799    9.2034 H   0  0  0  0  0  0  0  0  0  0  0  0
  -16.9041   17.4811    3.1487 H   0  0  0  0  0  0  0  0  0  0  0  0
  -16.7915   20.1016    5.2546 H   0  0  0  0  0  0  0  0  0  0  0  0
  1 15  1  0  0  0  0
  2 16  1  0  0  0  0
  3  7  1  0  0  0  0
  3 17  1  0  0  0  0
  4 14  1  0  0  0  0
  4 18  1  0  0  0  0
  5 14  1  0  0  0  0
  6 14  2  0  0  0  0
  6 19  1  0  0  0  0
  7 20  1  0  0  0  0
  8 11  1  0  0  0  0
  8 15  2  0  0  0  0
  9 10  1  0  0  0  0
  9 17  2  0  0  0  0
 10 19  2  0  0  0  0
 11 20  2  0  0  0  0
 12 17  1  0  0  0  0
 12 18  2  0  0  0  0
 13 16  2  0  0  0  0
 13 20  1  0  0  0  0
 15 16  1  0  0  0  0
 18 19  1  0  0  0  0
  5 21  1  0  0  0  0
  5 22  1  0  0  0  0
  7 23  1  0  0  0  0
  7 24  1  0  0  0  0
  8 25  1  0  0  0  0
  9 26  1  0  0  0  0
 10 27  1  0  0  0  0
 11 28  1  0  0  0  0
 12 29  1  0  0  0  0
 13 30  1  0  0  0  0
M  END
> <pdb_id>
6GCP

> <uniprot_id>
O76290

> <usmiles>
Clc1c(Cl)ccc(c1)CSc2cc3SC(=Nc3cc2)N

$$$$
EUN_A_501
          07202411143D 1   1.00000     0.00000     0
            
 38 41  0  0  0  0            999 V2000
    7.5357   29.5644   15.8650 O   0  0  0  0  0  0  0  0  0  0  0  0
    7.3628   23.3461   20.2522 N   0  0  0  0  0  0  0  0  0  0  0  0
    5.8859   27.2406   12.9553 N   0  0  0  0  0  0  0  0  0  0  0  0
    6.7952   29.4000   13.7224 N   0  0  0  0  0  0  0  0  0  0  0  0
    5.9323   29.1438   11.3200 C   0  0  0  0  0  0  0  0  0  0  0  0
    7.5398   27.5346   17.6861 C   0  0  0  0  0  0  0  0  0  0  0  0
    7.9891   23.0008   19.1114 C   0  0  0  0  0  0  0  0  0  0  0  0
    4.8802   25.7279   21.5834 C   0  0  0  0  0  0  0  0  0  0  0  0
    4.5648   26.4398   20.4306 C   0  0  0  0  0  0  0  0  0  0  0  0
    5.8139   24.7026   21.5169 C   0  0  0  0  0  0  0  0  0  0  0  0
    7.7114   23.7006   17.9298 C   0  0  0  0  0  0  0  0  0  0  0  0
    5.8026   25.3175   14.4648 C   0  0  0  0  0  0  0  0  0  0  0  0
    5.1853   26.1235   19.2207 C   0  0  0  0  0  0  0  0  0  0  0  0
    6.0257   24.6921   15.6704 C   0  0  0  0  0  0  0  0  0  0  0  0
    6.2150   28.5981   12.6936 C   0  0  0  0  0  0  0  0  0  0  0  0
    7.0469   28.8591   14.9997 C   0  0  0  0  0  0  0  0  0  0  0  0
    6.4436   24.3818   20.2835 C   0  0  0  0  0  0  0  0  0  0  0  0
    6.1468   26.6786   14.2693 C   0  0  0  0  0  0  0  0  0  0  0  0
    6.9221   26.7621   16.5419 C   0  0  0  0  0  0  0  0  0  0  0  0
    6.1351   25.0737   19.1533 C   0  0  0  0  0  0  0  0  0  0  0  0
    6.5714   25.4051   16.7201 C   0  0  0  0  0  0  0  0  0  0  0  0
    6.7902   24.7350   17.9237 C   0  0  0  0  0  0  0  0  0  0  0  0
    6.6991   27.4089   15.2775 C   0  0  0  0  0  0  0  0  0  0  0  0
    7.0059   30.2717   13.5508 H   0  0  0  0  0  0  0  0  0  0  0  0
    6.7533   29.5279   10.9463 H   0  0  0  0  0  0  0  0  0  0  0  0
    5.2437   29.8384   11.3798 H   0  0  0  0  0  0  0  0  0  0  0  0
    5.6179   28.4200   10.7397 H   0  0  0  0  0  0  0  0  0  0  0  0
    8.3785   27.9448   17.3885 H   0  0  0  0  0  0  0  0  0  0  0  0
    7.7207   26.9254   18.4321 H   0  0  0  0  0  0  0  0  0  0  0  0
    6.9204   28.2350   17.9801 H   0  0  0  0  0  0  0  0  0  0  0  0
    8.6335   22.2671   19.1074 H   0  0  0  0  0  0  0  0  0  0  0  0
    4.4493   25.9476   22.4316 H   0  0  0  0  0  0  0  0  0  0  0  0
    3.9087   27.1606   20.4677 H   0  0  0  0  0  0  0  0  0  0  0  0
    6.0391   24.1991   22.3219 H   0  0  0  0  0  0  0  0  0  0  0  0
    8.1718   23.4574   17.1042 H   0  0  0  0  0  0  0  0  0  0  0  0
    5.4014   24.8150   13.7315 H   0  0  0  0  0  0  0  0  0  0  0  0
    4.9647   26.6305   18.4162 H   0  0  0  0  0  0  0  0  0  0  0  0
    5.7992   23.7500   15.7839 H   0  0  0  0  0  0  0  0  0  0  0  0
  1 16  2  0  0  0  0
  2  7  2  0  0  0  0
  2 17  1  0  0  0  0
  3 15  2  0  0  0  0
  3 18  1  0  0  0  0
  4 15  1  0  0  0  0
  4 16  1  0  0  0  0
  4 24  1  0  0  0  0
  5 15  1  0  0  0  0
  5 25  1  0  0  0  0
  5 26  1  0  0  0  0
  5 27  1  0  0  0  0
  6 19  1  0  0  0  0
  6 28  1  0  0  0  0
  6 29  1  0  0  0  0
  6 30  1  0  0  0  0
  7 11  1  0  0  0  0
  7 31  1  0  0  0  0
  8  9  2  0  0  0  0
  8 10  1  0  0  0  0
  8 32  1  0  0  0  0
  9 13  1  0  0  0  0
  9 33  1  0  0  0  0
 10 17  2  0  0  0  0
 10 34  1  0  0  0  0
 11 22  2  0  0  0  0
 11 35  1  0  0  0  0
 12 14  1  0  0  0  0
 12 18  2  0  0  0  0
 12 36  1  0  0  0  0
 13 20  2  0  0  0  0
 13 37  1  0  0  0  0
 14 21  2  0  0  0  0
 14 38  1  0  0  0  0
 16 23  1  0  0  0  0
 17 20  1  0  0  0  0
 18 23  1  0  0  0  0
 19 21  1  0  0  0  0
 19 23  2  0  0  0  0
 20 22  1  0  0  0  0
 21 22  1  0  0  0  0
M  END
> <pdb_id>
6GIP

> <uniprot_id>
Q04771

> <usmiles>
O=C1NC(=Nc2c1c(c(c3c4c(ncc3)cccc4)cc2)C)C

$$$$
EUO_A_201
          07212404123D 1   1.00000     0.00000     0
            
 35 37  0  0  0  0            999 V2000
    8.0314    2.2418   -4.3346 S   0  0  0  0  0  0  0  0  0  0  0  0
    9.4646    2.1518   -4.0824 O   0  0  0  0  0  0  0  0  0  0  0  0
    7.8125    3.1090   -5.4872 O   0  0  0  0  0  0  0  0  0  0  0  0
    3.3466   -1.4624    1.9345 N   0  0  0  0  0  0  0  0  0  0  0  0
    7.2697    4.2390   -2.7552 N   0  0  0  0  0  0  0  0  0  0  0  0
    6.5459    2.1304   -2.1320 N   0  0  0  0  0  0  0  0  0  0  0  0
    6.7674    6.1927   -1.5247 N   0  0  0  0  0  0  0  0  0  0  0  0
    7.3316    0.5982   -4.5812 C   0  0  0  0  0  0  0  0  0  0  0  0
    6.2819    6.8417   -0.3163 C   0  0  0  0  0  0  0  0  0  0  0  0
    3.6792   -2.5386    1.2352 C   0  0  0  0  0  0  0  0  0  0  0  0
    4.4636   -2.1684    0.1422 C   0  0  0  0  0  0  0  0  0  0  0  0
    3.8220    1.0299    1.7100 C   0  0  0  0  0  0  0  0  0  0  0  0
    4.4761    1.9795    0.9275 C   0  0  0  0  0  0  0  0  0  0  0  0
    5.9513    3.9505   -0.8192 C   0  0  0  0  0  0  0  0  0  0  0  0
    5.2449    0.2213   -0.5464 C   0  0  0  0  0  0  0  0  0  0  0  0
    7.1926    2.9489   -2.9261 C   0  0  0  0  0  0  0  0  0  0  0  0
    6.6648    4.7600   -1.7050 C   0  0  0  0  0  0  0  0  0  0  0  0
    3.8780   -0.3493    1.3582 C   0  0  0  0  0  0  0  0  0  0  0  0
    5.9155    2.5840   -1.0793 C   0  0  0  0  0  0  0  0  0  0  0  0
    4.5802   -0.7476    0.2498 C   0  0  0  0  0  0  0  0  0  0  0  0
    5.1841    1.5714   -0.2026 C   0  0  0  0  0  0  0  0  0  0  0  0
    7.1225    6.6704   -2.1443 H   0  0  0  0  0  0  0  0  0  0  0  0
    7.7658    0.1727   -5.3376 H   0  0  0  0  0  0  0  0  0  0  0  0
    7.4733    0.0640   -3.7845 H   0  0  0  0  0  0  0  0  0  0  0  0
    6.3805    0.6751   -4.7547 H   0  0  0  0  0  0  0  0  0  0  0  0
    6.8652    6.6215    0.4261 H   0  0  0  0  0  0  0  0  0  0  0  0
    5.3822    6.5337   -0.1232 H   0  0  0  0  0  0  0  0  0  0  0  0
    6.2734    7.8026   -0.4471 H   0  0  0  0  0  0  0  0  0  0  0  0
    3.4250   -3.4087    1.4406 H   0  0  0  0  0  0  0  0  0  0  0  0
    4.8333   -2.7222   -0.5061 H   0  0  0  0  0  0  0  0  0  0  0  0
    3.3470    1.2976    2.4638 H   0  0  0  0  0  0  0  0  0  0  0  0
    4.4382    2.8800    1.1560 H   0  0  0  0  0  0  0  0  0  0  0  0
    5.5176    4.3126   -0.0808 H   0  0  0  0  0  0  0  0  0  0  0  0
    5.7200   -0.0444   -1.3009 H   0  0  0  0  0  0  0  0  0  0  0  0
    2.7875   -1.4676    2.7635 H   0  0  0  0  0  0  0  0  0  0  0  0
  1  2  2  0  0  0  0
  1  3  2  0  0  0  0
  1  8  1  0  0  0  0
  1 16  1  0  0  0  0
  4 10  1  0  0  0  0
  4 18  1  0  0  0  0
  5 16  2  0  0  0  0
  5 17  1  0  0  0  0
  6 16  1  0  0  0  0
  6 19  2  0  0  0  0
  7  9  1  0  0  0  0
  7 17  1  0  0  0  0
  7 22  1  0  0  0  0
  8 23  1  0  0  0  0
  8 24  1  0  0  0  0
  8 25  1  0  0  0  0
  9 26  1  0  0  0  0
  9 27  1  0  0  0  0
  9 28  1  0  0  0  0
 10 11  2  0  0  0  0
 10 29  1  0  0  0  0
 11 20  1  0  0  0  0
 11 30  1  0  0  0  0
 12 13  1  0  0  0  0
 12 18  2  0  0  0  0
 12 31  1  0  0  0  0
 13 21  2  0  0  0  0
 13 32  1  0  0  0  0
 14 17  2  0  0  0  0
 14 19  1  0  0  0  0
 14 33  1  0  0  0  0
 15 20  2  0  0  0  0
 15 21  1  0  0  0  0
 15 34  1  0  0  0  0
 18 20  1  0  0  0  0
 19 21  1  0  0  0  0
  4 35  1  0  0  0  0
M  END
> <pdb_id>
7F5D

> <uniprot_id>
J3QQQ8

> <usmiles>
S(=O)(=O)(c1nc(NC)cc(n1)c2cc3c(NC=C3)cc2)C

$$$$
EUY_A_401
          07202407423D 1   1.00000     0.00000     0
            
 51 53  0  0  0  0            999 V2000
   24.6630  -10.5618  -10.4293 S   0  0  0  0  0  0  0  0  0  0  0  0
   24.0285   -9.2956  -11.1333 O   0  0  0  0  0  0  0  0  0  0  0  0
   26.0821  -10.9421  -10.9829 O   0  0  0  0  0  0  0  0  0  0  0  0
   22.1565   -8.0776   -7.1755 O   0  0  0  0  0  0  0  0  0  0  0  0
   28.1510  -12.1012   -6.2191 O   0  0  0  0  0  0  0  0  0  0  0  0
   22.4167  -10.4043   -8.1435 O   0  0  0  0  0  0  0  0  0  0  0  0
   23.4625   -8.4807   -7.6230 N   0  0  0  0  0  0  0  0  0  0  0  0
   27.6740  -21.0088   -2.3016 N   0  0  0  0  0  0  0  0  0  0  0  0
   29.4252  -21.0505   -3.7568 N   0  0  0  0  0  0  0  0  0  0  0  0
   28.3488  -20.3599   -3.2872 N   0  0  0  0  0  0  0  0  0  0  0  0
   26.0060  -12.7554   -6.0049 N   0  0  0  0  0  0  0  0  0  0  0  0
   23.5914  -12.0221  -10.6145 C   0  0  0  0  0  0  0  0  0  0  0  0
   25.8863   -9.0806   -8.5912 C   0  0  0  0  0  0  0  0  0  0  0  0
   28.3406  -22.1337   -2.1402 C   0  0  0  0  0  0  0  0  0  0  0  0
   29.4259  -22.1590   -3.0469 C   0  0  0  0  0  0  0  0  0  0  0  0
   25.0803  -13.7080   -5.6900 C   0  0  0  0  0  0  0  0  0  0  0  0
   25.5301  -11.4463   -6.4790 C   0  0  0  0  0  0  0  0  0  0  0  0
   25.4375  -14.9290   -5.2715 C   0  0  0  0  0  0  0  0  0  0  0  0
   26.8599  -18.4685   -3.2625 C   0  0  0  0  0  0  0  0  0  0  0  0
   28.7407  -18.4493   -4.7405 C   0  0  0  0  0  0  0  0  0  0  0  0
   26.4814  -17.2238   -3.7218 C   0  0  0  0  0  0  0  0  0  0  0  0
   28.3727  -17.1964   -5.1875 C   0  0  0  0  0  0  0  0  0  0  0  0
   25.2547  -11.5017   -7.9840 C   0  0  0  0  0  0  0  0  0  0  0  0
   27.7549  -14.3006   -5.4735 C   0  0  0  0  0  0  0  0  0  0  0  0
   27.3569  -12.9998   -5.9265 C   0  0  0  0  0  0  0  0  0  0  0  0
   23.4614   -9.7075   -8.1102 C   0  0  0  0  0  0  0  0  0  0  0  0
   27.9836  -19.0962   -3.7761 C   0  0  0  0  0  0  0  0  0  0  0  0
   27.2344  -16.5766   -4.6863 C   0  0  0  0  0  0  0  0  0  0  0  0
   26.8327  -15.2370   -5.1616 C   0  0  0  0  0  0  0  0  0  0  0  0
   24.8089  -10.1622   -8.6128 C   0  0  2  0  0  0  0  0  0  0  0  0
   22.2005   -7.1459   -6.8150 H   0  0  0  0  0  0  0  0  0  0  0  0
   24.2752   -7.9003   -7.5711 H   0  0  0  0  0  0  0  0  0  0  0  0
   24.0154  -12.8063  -10.1614 H   0  0  0  0  0  0  0  0  0  0  0  0
   22.7014  -11.8374  -10.1977 H   0  0  0  0  0  0  0  0  0  0  0  0
   23.4690  -12.2246  -11.5861 H   0  0  0  0  0  0  0  0  0  0  0  0
   26.0466   -8.7886   -7.6483 H   0  0  0  0  0  0  0  0  0  0  0  0
   26.7339   -9.4467   -8.9753 H   0  0  0  0  0  0  0  0  0  0  0  0
   25.5842   -8.2982   -9.1357 H   0  0  0  0  0  0  0  0  0  0  0  0
   28.1157  -22.8531   -1.4830 H   0  0  0  0  0  0  0  0  0  0  0  0
   30.0893  -22.9021   -3.1349 H   0  0  0  0  0  0  0  0  0  0  0  0
   24.1084  -13.4879   -5.7742 H   0  0  0  0  0  0  0  0  0  0  0  0
   26.2281  -10.7541   -6.2955 H   0  0  0  0  0  0  0  0  0  0  0  0
   24.6875  -11.2060   -5.9969 H   0  0  0  0  0  0  0  0  0  0  0  0
   24.7445  -15.6120   -5.0404 H   0  0  0  0  0  0  0  0  0  0  0  0
   26.3191  -18.9212   -2.5536 H   0  0  0  0  0  0  0  0  0  0  0  0
   29.5562  -18.8919   -5.1135 H   0  0  0  0  0  0  0  0  0  0  0  0
   25.6594  -16.7872   -3.3562 H   0  0  0  0  0  0  0  0  0  0  0  0
   28.9288  -16.7317   -5.8766 H   0  0  0  0  0  0  0  0  0  0  0  0
   24.5329  -12.1752   -8.1432 H   0  0  0  0  0  0  0  0  0  0  0  0
   26.0929  -11.7966   -8.4426 H   0  0  0  0  0  0  0  0  0  0  0  0
   28.7274  -14.5174   -5.3873 H   0  0  0  0  0  0  0  0  0  0  0  0
  1  2  2  0  0  0  0
  1  3  2  0  0  0  0
  1 12  1  0  0  0  0
  1 30  1  0  0  0  0
  4  7  1  0  0  0  0
  5 25  2  0  0  0  0
  6 26  2  0  0  0  0
  7 26  1  0  0  0  0
  8 10  1  0  0  0  0
  8 14  2  0  0  0  0
  9 10  1  0  0  0  0
  9 15  2  0  0  0  0
 10 27  1  0  0  0  0
 11 16  1  0  0  0  0
 11 17  1  0  0  0  0
 11 25  1  0  0  0  0
 13 30  1  0  0  0  0
 14 15  1  0  0  0  0
 16 18  2  0  0  0  0
 17 23  1  0  0  0  0
 18 29  1  0  0  0  0
 19 21  1  0  0  0  0
 19 27  2  0  0  0  0
 20 22  2  0  0  0  0
 20 27  1  0  0  0  0
 21 28  2  0  0  0  0
 22 28  1  0  0  0  0
 23 30  1  0  0  0  0
 24 25  1  0  0  0  0
 24 29  2  0  0  0  0
 26 30  1  0  0  0  0
 28 29  1  0  0  0  0
  4 31  1  0  0  0  0
  7 32  1  0  0  0  0
 12 33  1  0  0  0  0
 12 34  1  0  0  0  0
 12 35  1  0  0  0  0
 13 36  1  0  0  0  0
 13 37  1  0  0  0  0
 13 38  1  0  0  0  0
 14 39  1  0  0  0  0
 15 40  1  0  0  0  0
 16 41  1  0  0  0  0
 17 42  1  0  0  0  0
 17 43  1  0  0  0  0
 18 44  1  0  0  0  0
 19 45  1  0  0  0  0
 20 46  1  0  0  0  0
 21 47  1  0  0  0  0
 22 48  1  0  0  0  0
 23 49  1  0  0  0  0
 23 50  1  0  0  0  0
 24 51  1  0  0  0  0
M  END
> <pdb_id>
6CAX

> <uniprot_id>
B7UZI4

> <usmiles>
S(=O)(=O)([C@@](C(=O)NO)(CCN1C(=O)C=C(c2ccc(N3N=CC=N3)cc2)C=C1)C)C

$$$$
EVA_A_701
          07202411143D 1   1.00000     0.00000     0
            
 22 22  0  0  0  0            999 V2000
  129.0800 -879.4830  300.5870 O   0  0  0  0  0  0  0  0  0  0  0  0
  127.9540 -879.2630  302.4770 O   0  0  0  0  0  0  0  0  0  0  0  0
  124.2390 -881.9820  302.4070 O   0  0  0  0  0  0  0  0  0  0  0  0
  122.9810 -881.6280  300.0310 O   0  0  0  0  0  0  0  0  0  0  0  0
  124.0240 -879.2860  298.5020 O   0  0  0  0  0  0  0  0  0  0  0  0
  126.7020 -878.7740  298.8810 O   0  0  0  0  0  0  0  0  0  0  0  0
  126.0800 -881.1380  301.6410 N   0  0  0  0  0  0  0  0  0  0  0  0
  128.0360 -879.6490  301.2750 C   0  0  0  0  0  0  0  0  0  0  0  0
  124.7540 -881.2880  301.5560 C   0  0  0  0  0  0  0  0  0  0  0  0
  123.9340 -880.6760  300.4420 C   0  0  1  0  0  0  0  0  0  0  0  0
  124.7560 -880.1560  299.3410 C   0  0  2  0  0  0  0  0  0  0  0  0
  125.9880 -879.3730  299.9330 C   0  0  1  0  0  0  0  0  0  0  0  0
  126.8460 -880.3610  300.6780 C   0  0  2  0  0  0  0  0  0  0  0  0
  122.2350 -881.5210  300.5010 H   0  0  0  0  0  0  0  0  0  0  0  0
  123.1740 -879.5420  298.4800 H   0  0  0  0  0  0  0  0  0  0  0  0
  126.2520 -878.0700  298.5810 H   0  0  0  0  0  0  0  0  0  0  0  0
  126.5220 -881.5420  302.3290 H   0  0  0  0  0  0  0  0  0  0  0  0
  123.3510 -879.9670  300.7730 H   0  0  0  0  0  0  0  0  0  0  0  0
  125.0840 -880.9060  298.8100 H   0  0  0  0  0  0  0  0  0  0  0  0
  125.6730 -878.6840  300.5480 H   0  0  0  0  0  0  0  0  0  0  0  0
  127.2650 -880.9420  300.0150 H   0  0  0  0  0  0  0  0  0  0  0  0
  129.1101 -879.8008  299.6393 H   0  0  0  0  0  0  0  0  0  0  0  0
  1  8  1  0  0  0  0
  2  8  2  0  0  0  0
  3  9  2  0  0  0  0
  4 10  1  0  0  0  0
  4 14  1  0  0  0  0
  5 11  1  0  0  0  0
  5 15  1  0  0  0  0
  6 12  1  0  0  0  0
  6 16  1  0  0  0  0
  7  9  1  0  0  0  0
  7 13  1  0  0  0  0
  7 17  1  0  0  0  0
  8 13  1  0  0  0  0
  9 10  1  0  0  0  0
 10 11  1  0  0  0  0
 10 18  1  0  0  0  0
 11 12  1  0  0  0  0
 11 19  1  0  0  0  0
 12 13  1  0  0  0  0
 12 20  1  0  0  0  0
 13 21  1  0  0  0  0
  1 22  1  0  0  0  0
M  END
> <pdb_id>
6JZ4

> <uniprot_id>
Q6W7J7

> <usmiles>
O=C(O)[C@H]1NC(=O)[C@H](O)[C@@H](O)[C@@H]1O

$$$$
EVD_B_1
          07192416293D 1   1.00000     0.00000     0
            
 20 21  0  0  0  0            999 V2000
   -5.9654    0.9511   16.9384 S   0  0  0  0  0  0  0  0  0  0  0  0
   -5.4569    1.0707   18.2866 O   0  0  0  0  0  0  0  0  0  0  0  0
   -7.3996    1.0962   16.7204 O   0  0  0  0  0  0  0  0  0  0  0  0
   -3.9323    2.4837   16.0717 O   0  0  0  0  0  0  0  0  0  0  0  0
   -5.3882   -0.3554   16.2328 N   0  0  0  0  0  0  0  0  0  0  0  0
   -2.3631    5.2336   14.2172 C   0  0  0  0  0  0  0  0  0  0  0  0
   -3.5765    5.8205   13.7907 C   0  0  0  0  0  0  0  0  0  0  0  0
   -2.4124    4.0889   15.0164 C   0  0  0  0  0  0  0  0  0  0  0  0
   -4.8232    5.2752   14.0533 C   0  0  0  0  0  0  0  0  0  0  0  0
   -5.9439    3.3293   15.3743 C   0  0  0  0  0  0  0  0  0  0  0  0
   -5.2913    2.2831   16.1105 C   0  0  0  0  0  0  0  0  0  0  0  0
   -3.6591    3.6094   15.3123 C   0  0  0  0  0  0  0  0  0  0  0  0
   -4.8755    4.1454   14.8796 C   0  0  0  0  0  0  0  0  0  0  0  0
   -5.7509   -0.4200   15.3031 H   0  0  0  0  0  0  0  0  0  0  0  0
   -4.3902   -0.3022   16.1982 H   0  0  0  0  0  0  0  0  0  0  0  0
   -1.4848    5.6310   13.9514 H   0  0  0  0  0  0  0  0  0  0  0  0
   -3.5329    6.6744   13.2720 H   0  0  0  0  0  0  0  0  0  0  0  0
   -1.5824    3.6445   15.3536 H   0  0  0  0  0  0  0  0  0  0  0  0
   -5.6551    5.6737   13.6671 H   0  0  0  0  0  0  0  0  0  0  0  0
   -6.9260    3.4593   15.2374 H   0  0  0  0  0  0  0  0  0  0  0  0
  1  2  2  0  0  0  0
  1  3  2  0  0  0  0
  1  5  1  0  0  0  0
  1 11  1  0  0  0  0
  4 11  1  0  0  0  0
  4 12  1  0  0  0  0
  6  7  2  0  0  0  0
  6  8  1  0  0  0  0
  7  9  1  0  0  0  0
  8 12  2  0  0  0  0
  9 13  2  0  0  0  0
 10 11  2  0  0  0  0
 10 13  1  0  0  0  0
 12 13  1  0  0  0  0
  5 14  1  0  0  0  0
  5 15  1  0  0  0  0
  6 16  1  0  0  0  0
  7 17  1  0  0  0  0
  8 18  1  0  0  0  0
  9 19  1  0  0  0  0
 10 20  1  0  0  0  0
M  END
> <pdb_id>
3S71

> <uniprot_id>
P00918

> <usmiles>
S(=O)(=O)(N)C=1Oc2c(cccc2)C1

$$$$
EVE_B_1
          07192416293D 1   1.00000     0.00000     0
            
 20 21  0  0  0  0            999 V2000
   -5.8999    0.9267   16.8609 S   0  0  0  0  0  0  0  0  0  0  0  0
   -5.3973    1.0660   18.1829 O   0  0  0  0  0  0  0  0  0  0  0  0
   -7.3207    1.0541   16.6905 O   0  0  0  0  0  0  0  0  0  0  0  0
   -5.3666   -0.4148   16.2403 N   0  0  0  0  0  0  0  0  0  0  0  0
   -5.9516    3.2302   15.3516 N   0  0  0  0  0  0  0  0  0  0  0  0
   -3.8573    2.3943   15.8213 N   0  0  0  0  0  0  0  0  0  0  0  0
   -3.9224    5.7622   13.6689 C   0  0  0  0  0  0  0  0  0  0  0  0
   -2.6385    5.2881   13.9604 C   0  0  0  0  0  0  0  0  0  0  0  0
   -5.1419    5.1889   14.0764 C   0  0  0  0  0  0  0  0  0  0  0  0
   -2.4725    4.1645   14.7488 C   0  0  0  0  0  0  0  0  0  0  0  0
   -5.2245    2.2266   15.9757 C   0  0  0  0  0  0  0  0  0  0  0  0
   -4.9840    4.0164   14.8266 C   0  0  0  0  0  0  0  0  0  0  0  0
   -3.7091    3.5344   15.0941 C   0  0  0  0  0  0  0  0  0  0  0  0
   -5.7190   -0.5149   15.3099 H   0  0  0  0  0  0  0  0  0  0  0  0
   -4.3670   -0.3975   16.2181 H   0  0  0  0  0  0  0  0  0  0  0  0
   -6.9439    3.3440   15.3021 H   0  0  0  0  0  0  0  0  0  0  0  0
   -3.9795    6.5927   13.1149 H   0  0  0  0  0  0  0  0  0  0  0  0
   -1.8376    5.7640   13.5969 H   0  0  0  0  0  0  0  0  0  0  0  0
   -6.0343    5.5805   13.8521 H   0  0  0  0  0  0  0  0  0  0  0  0
   -1.5796    3.8271   15.0469 H   0  0  0  0  0  0  0  0  0  0  0  0
  1  2  2  0  0  0  0
  1  3  2  0  0  0  0
  1  4  1  0  0  0  0
  1 11  1  0  0  0  0
  5 11  1  0  0  0  0
  5 12  1  0  0  0  0
  6 11  2  0  0  0  0
  6 13  1  0  0  0  0
  7  8  2  0  0  0  0
  7  9  1  0  0  0  0
  8 10  1  0  0  0  0
  9 12  2  0  0  0  0
 10 13  2  0  0  0  0
 12 13  1  0  0  0  0
  4 14  1  0  0  0  0
  4 15  1  0  0  0  0
  5 16  1  0  0  0  0
  7 17  1  0  0  0  0
  8 18  1  0  0  0  0
  9 19  1  0  0  0  0
 10 20  1  0  0  0  0
M  END
> <pdb_id>
3S72

> <uniprot_id>
P00918

> <usmiles>
S(=O)(=O)(N)C1=Nc2c(N1)cccc2

$$$$
EVF_B_1
          07192416293D 1   1.00000     0.00000     0
            
 19 20  0  0  0  0            999 V2000
   -6.0730    3.4082   15.2035 S   0  0  0  0  0  0  0  0  0  0  0  0
   -5.8484    0.9159   16.9119 S   0  0  0  0  0  0  0  0  0  0  0  0
   -5.3455    0.9395   18.3064 O   0  0  0  0  0  0  0  0  0  0  0  0
   -7.3251    1.1226   16.7124 O   0  0  0  0  0  0  0  0  0  0  0  0
   -5.3914   -0.4075   16.2713 N   0  0  0  0  0  0  0  0  0  0  0  0
   -3.8660    2.4107   15.9503 N   0  0  0  0  0  0  0  0  0  0  0  0
   -3.2397    5.8521   13.6732 C   0  0  0  0  0  0  0  0  0  0  0  0
   -2.1091    5.1654   14.1781 C   0  0  0  0  0  0  0  0  0  0  0  0
   -4.5214    5.2896   13.9212 C   0  0  0  0  0  0  0  0  0  0  0  0
   -2.1844    4.0234   14.9710 C   0  0  0  0  0  0  0  0  0  0  0  0
   -5.1967    2.1937   16.0545 C   0  0  0  0  0  0  0  0  0  0  0  0
   -4.6247    4.1567   14.7149 C   0  0  0  0  0  0  0  0  0  0  0  0
   -3.5172    3.5121   15.2414 C   0  0  0  0  0  0  0  0  0  0  0  0
   -5.7176   -0.4509   15.3270 H   0  0  0  0  0  0  0  0  0  0  0  0
   -4.3926   -0.4553   16.2815 H   0  0  0  0  0  0  0  0  0  0  0  0
   -3.1399    6.7042   13.1594 H   0  0  0  0  0  0  0  0  0  0  0  0
   -1.2026    5.5217   13.9516 H   0  0  0  0  0  0  0  0  0  0  0  0
   -5.3405    5.7066   13.5274 H   0  0  0  0  0  0  0  0  0  0  0  0
   -1.3656    3.5793   15.3347 H   0  0  0  0  0  0  0  0  0  0  0  0
  1 11  1  0  0  0  0
  1 12  1  0  0  0  0
  2  3  2  0  0  0  0
  2  4  2  0  0  0  0
  2  5  1  0  0  0  0
  2 11  1  0  0  0  0
  6 11  2  0  0  0  0
  6 13  1  0  0  0  0
  7  8  2  0  0  0  0
  7  9  1  0  0  0  0
  8 10  1  0  0  0  0
  9 12  2  0  0  0  0
 10 13  2  0  0  0  0
 12 13  1  0  0  0  0
  5 14  1  0  0  0  0
  5 15  1  0  0  0  0
  7 16  1  0  0  0  0
  8 17  1  0  0  0  0
  9 18  1  0  0  0  0
 10 19  1  0  0  0  0
M  END
> <pdb_id>
3S73

> <uniprot_id>
P00918

> <usmiles>
S(=O)(=O)(N)C=1Sc2c(N1)cccc2

$$$$
EVF_B_303
          07212402173D 1   1.00000     0.00000     0
            
 19 20  0  0  0  0            999 V2000
   15.9161   -1.6800   82.6666 S   0  0  0  0  0  0  0  0  0  0  0  0
   14.2104    0.5113   83.9321 S   0  0  0  0  0  0  0  0  0  0  0  0
   13.6850    1.7836   83.5245 O   0  0  0  0  0  0  0  0  0  0  0  0
   14.9795    0.7148   85.1925 O   0  0  0  0  0  0  0  0  0  0  0  0
   13.2069   -0.6647   84.0940 N   0  0  0  0  0  0  0  0  0  0  0  0
   15.7136    0.8153   81.7703 N   0  0  0  0  0  0  0  0  0  0  0  0
   18.2772   -1.4788   79.4273 C   0  0  0  0  0  0  0  0  0  0  0  0
   18.0911   -0.1389   79.0625 C   0  0  0  0  0  0  0  0  0  0  0  0
   17.6387   -2.0360   80.5440 C   0  0  0  0  0  0  0  0  0  0  0  0
   17.2843    0.7135   79.8033 C   0  0  0  0  0  0  0  0  0  0  0  0
   15.2798   -0.0392   82.7586 C   0  0  0  0  0  0  0  0  0  0  0  0
   16.7942   -1.2189   81.3020 C   0  0  0  0  0  0  0  0  0  0  0  0
   16.5999    0.2133   80.9079 C   0  0  0  0  0  0  0  0  0  0  0  0
   13.6999   -1.4866   84.3795 H   0  0  0  0  0  0  0  0  0  0  0  0
   12.5247   -0.4280   84.7857 H   0  0  0  0  0  0  0  0  0  0  0  0
   18.8820   -2.0534   78.8759 H   0  0  0  0  0  0  0  0  0  0  0  0
   18.5515    0.2124   78.2473 H   0  0  0  0  0  0  0  0  0  0  0  0
   17.7835   -2.9938   80.7923 H   0  0  0  0  0  0  0  0  0  0  0  0
   17.1955    1.6759   79.5466 H   0  0  0  0  0  0  0  0  0  0  0  0
  1 11  1  0  0  0  0
  1 12  1  0  0  0  0
  2  3  2  0  0  0  0
  2  4  2  0  0  0  0
  2  5  1  0  0  0  0
  2 11  1  0  0  0  0
  6 11  2  0  0  0  0
  6 13  1  0  0  0  0
  7  8  2  0  0  0  0
  7  9  1  0  0  0  0
  8 10  1  0  0  0  0
  9 12  2  0  0  0  0
 10 13  2  0  0  0  0
 12 13  1  0  0  0  0
  5 14  1  0  0  0  0
  5 15  1  0  0  0  0
  7 16  1  0  0  0  0
  8 17  1  0  0  0  0
  9 18  1  0  0  0  0
 10 19  1  0  0  0  0
M  END
> <pdb_id>
5JEG

> <uniprot_id>
P00918

> <usmiles>
S(=O)(=O)(N)C=1Sc2c(N1)cccc2

$$$$
EVQ_A_406
          07212404193D 1   1.00000     0.00000     0
            
 68 72  0  0  0  0            999 V2000
    8.8118    5.3613   46.2027 Cl  0  0  0  0  0  0  0  0  0  0  0  0
    2.6813    8.0018   48.4405 O   0  0  0  0  0  0  0  0  0  0  0  0
    3.9649    6.4809   45.3294 O   0  0  0  0  0  0  0  0  0  0  0  0
   -3.0307   12.0684   48.6839 O   0  0  0  0  0  0  0  0  0  0  0  0
   12.5078   11.3651   39.9049 O   0  0  0  0  0  0  0  0  0  0  0  0
   11.9407    6.4859   44.0590 N   0  0  0  0  0  0  0  0  0  0  0  0
   10.3009    8.2379   43.9090 N   0  0  0  0  0  0  0  0  0  0  0  0
   12.3612    8.3748   42.8434 N   0  0  0  0  0  0  0  0  0  0  0  0
    0.5455    8.4823   47.8996 N   0  0  0  0  0  0  0  0  0  0  0  0
    3.6459    8.6650   45.9716 N   0  0  0  0  0  0  0  0  0  0  0  0
   -2.7768   12.0898   47.2763 C   0  0  0  0  0  0  0  0  0  0  0  0
   -0.8701    6.8236   48.9729 C   0  0  0  0  0  0  0  0  0  0  0  0
   11.1022    5.7981   44.8413 C   0  0  0  0  0  0  0  0  0  0  0  0
   -1.9446   10.2968   51.6523 C   0  0  0  0  0  0  0  0  0  0  0  0
   -2.5678   11.2005   50.8185 C   0  0  0  0  0  0  0  0  0  0  0  0
   -1.1506    9.2988   51.1145 C   0  0  0  0  0  0  0  0  0  0  0  0
    8.1500    9.5232   45.3693 C   0  0  0  0  0  0  0  0  0  0  0  0
    6.9769   10.1484   45.7381 C   0  0  0  0  0  0  0  0  0  0  0  0
   -1.5729   10.1393   48.9158 C   0  0  0  0  0  0  0  0  0  0  0  0
    6.9533    7.4661   45.0612 C   0  0  0  0  0  0  0  0  0  0  0  0
   13.1420   11.6784   41.1597 C   0  0  0  0  0  0  0  0  0  0  0  0
   11.2184   10.7699   40.1363 C   0  0  0  0  0  0  0  0  0  0  0  0
    2.2109    8.6091   46.1742 C   0  0  0  0  0  0  0  0  0  0  0  0
    4.4064    9.8986   46.1222 C   0  0  0  0  0  0  0  0  0  0  0  0
   13.3892   10.4287   41.9874 C   0  0  0  0  0  0  0  0  0  0  0  0
   11.3559    9.4531   40.8869 C   0  0  0  0  0  0  0  0  0  0  0  0
   11.5057    7.6860   43.6227 C   0  0  0  0  0  0  0  0  0  0  0  0
    1.8375    8.3352   47.6158 C   0  0  0  0  0  0  0  0  0  0  0  0
    4.3995    7.6048   45.5534 C   0  0  0  0  0  0  0  0  0  0  0  0
    9.8535    6.2893   45.1701 C   0  0  0  0  0  0  0  0  0  0  0  0
   -2.3809   11.1323   49.4497 C   0  0  0  0  0  0  0  0  0  0  0  0
    9.4532    7.5270   44.6624 C   0  0  0  0  0  0  0  0  0  0  0  0
    8.1610    8.1803   45.0007 C   0  0  0  0  0  0  0  0  0  0  0  0
   -0.9397    9.2155   49.7427 C   0  0  0  0  0  0  0  0  0  0  0  0
    5.7951    9.4449   45.7753 C   0  0  0  0  0  0  0  0  0  0  0  0
    5.7882    8.1033   45.4359 C   0  0  0  0  0  0  0  0  0  0  0  0
   -0.0683    8.1072   49.1680 C   0  0  2  0  0  0  0  0  0  0  0  0
   12.0932    9.6525   42.2137 C   0  0  0  0  0  0  0  0  0  0  0  0
   13.1697    8.0451   42.7563 H   0  0  0  0  0  0  0  0  0  0  0  0
    0.0130    8.6246   47.2339 H   0  0  0  0  0  0  0  0  0  0  0  0
   -3.2750   12.8253   46.8676 H   0  0  0  0  0  0  0  0  0  0  0  0
   -3.0625   11.2437   46.8810 H   0  0  0  0  0  0  0  0  0  0  0  0
   -1.8193   12.2173   47.1201 H   0  0  0  0  0  0  0  0  0  0  0  0
   -0.3055    6.1479   48.5479 H   0  0  0  0  0  0  0  0  0  0  0  0
   -1.6419    7.0060   48.4044 H   0  0  0  0  0  0  0  0  0  0  0  0
   -1.1761    6.4957   49.8403 H   0  0  0  0  0  0  0  0  0  0  0  0
   11.3727    4.9469   45.1708 H   0  0  0  0  0  0  0  0  0  0  0  0
   -2.0760   10.3467   52.5968 H   0  0  0  0  0  0  0  0  0  0  0  0
   -3.1187   11.8859   51.1884 H   0  0  0  0  0  0  0  0  0  0  0  0
   -0.7220    8.6734   51.6941 H   0  0  0  0  0  0  0  0  0  0  0  0
    8.9644   10.0208   45.3541 H   0  0  0  0  0  0  0  0  0  0  0  0
    6.9839   11.0755   45.9665 H   0  0  0  0  0  0  0  0  0  0  0  0
   -1.4515   10.0844   47.9724 H   0  0  0  0  0  0  0  0  0  0  0  0
    6.9343    6.5390   44.8338 H   0  0  0  0  0  0  0  0  0  0  0  0
   12.5697   12.2975   41.6660 H   0  0  0  0  0  0  0  0  0  0  0  0
   13.9983   12.1271   40.9856 H   0  0  0  0  0  0  0  0  0  0  0  0
   10.7759   10.6110   39.2786 H   0  0  0  0  0  0  0  0  0  0  0  0
   10.6632   11.3880   40.6585 H   0  0  0  0  0  0  0  0  0  0  0  0
    1.8346    7.9054   45.6088 H   0  0  0  0  0  0  0  0  0  0  0  0
    1.8148    9.4649   45.8984 H   0  0  0  0  0  0  0  0  0  0  0  0
    4.0918   10.5885   45.5047 H   0  0  0  0  0  0  0  0  0  0  0  0
    4.3587   10.2372   47.0389 H   0  0  0  0  0  0  0  0  0  0  0  0
   13.7709   10.6818   42.8540 H   0  0  0  0  0  0  0  0  0  0  0  0
   14.0358    9.8546   41.5244 H   0  0  0  0  0  0  0  0  0  0  0  0
   11.8489    8.8130   40.3351 H   0  0  0  0  0  0  0  0  0  0  0  0
   10.4638    9.0815   41.0619 H   0  0  0  0  0  0  0  0  0  0  0  0
    0.6540    7.9223   49.8157 H   0  0  0  0  0  0  0  0  0  0  0  0
   11.5172   10.1801   42.8145 H   0  0  0  0  0  0  0  0  0  0  0  0
  1 30  1  0  0  0  0
  2 28  2  0  0  0  0
  3 29  2  0  0  0  0
  4 11  1  0  0  0  0
  4 31  1  0  0  0  0
  5 21  1  0  0  0  0
  5 22  1  0  0  0  0
  6 13  2  0  0  0  0
  6 27  1  0  0  0  0
  7 27  2  0  0  0  0
  7 32  1  0  0  0  0
  8 27  1  0  0  0  0
  8 38  1  0  0  0  0
  8 39  1  0  0  0  0
  9 28  1  0  0  0  0
  9 37  1  0  0  0  0
  9 40  1  0  0  0  0
 10 23  1  0  0  0  0
 10 24  1  0  0  0  0
 10 29  1  0  0  0  0
 11 41  1  0  0  0  0
 11 42  1  0  0  0  0
 11 43  1  0  0  0  0
 12 37  1  0  0  0  0
 12 44  1  0  0  0  0
 12 45  1  0  0  0  0
 12 46  1  0  0  0  0
 13 30  1  0  0  0  0
 13 47  1  0  0  0  0
 14 15  2  0  0  0  0
 14 16  1  0  0  0  0
 14 48  1  0  0  0  0
 15 31  1  0  0  0  0
 15 49  1  0  0  0  0
 16 34  2  0  0  0  0
 16 50  1  0  0  0  0
 17 18  1  0  0  0  0
 17 33  2  0  0  0  0
 17 51  1  0  0  0  0
 18 35  2  0  0  0  0
 18 52  1  0  0  0  0
 19 31  2  0  0  0  0
 19 34  1  0  0  0  0
 19 53  1  0  0  0  0
 20 33  1  0  0  0  0
 20 36  2  0  0  0  0
 20 54  1  0  0  0  0
 21 25  1  0  0  0  0
 21 55  1  0  0  0  0
 21 56  1  0  0  0  0
 22 26  1  0  0  0  0
 22 57  1  0  0  0  0
 22 58  1  0  0  0  0
 23 28  1  0  0  0  0
 23 59  1  0  0  0  0
 23 60  1  0  0  0  0
 24 35  1  0  0  0  0
 24 61  1  0  0  0  0
 24 62  1  0  0  0  0
 25 38  1  0  0  0  0
 25 63  1  0  0  0  0
 25 64  1  0  0  0  0
 26 38  1  0  0  0  0
 26 65  1  0  0  0  0
 26 66  1  0  0  0  0
 29 36  1  0  0  0  0
 30 32  2  0  0  0  0
 32 33  1  0  0  0  0
 34 37  1  0  0  0  0
 35 36  1  0  0  0  0
 37 67  1  0  0  0  0
 38 68  1  0  0  0  0
M  END
> <pdb_id>
6GE0

> <uniprot_id>
P28482

> <usmiles>
Clc1c(nc(nc1)NC2CCOCC2)c3cc4c(cc3)CN(C4=O)CC(=O)N[C@@H](c5cc(OC)ccc5)C

$$$$
EWD_C_201
          07202405323D 1   1.00000     0.00000     0
            
 33 35  0  0  0  0            999 V2000
  -15.0731   -4.6288   -3.5297 O   0  0  0  0  0  0  0  0  0  0  0  0
  -16.4862   -2.9675   -3.6377 O   0  0  0  0  0  0  0  0  0  0  0  0
  -12.9687   -2.2197   -3.2379 O   0  0  0  0  0  0  0  0  0  0  0  0
  -17.2931   -2.5990    3.2740 N   0  0  0  0  0  0  0  0  0  0  0  0
  -16.0410   -2.4812    3.8747 N   0  0  0  0  0  0  0  0  0  0  0  0
  -11.8568    1.2989   -5.1748 C   0  0  0  0  0  0  0  0  0  0  0  0
  -11.2496    0.0989   -5.4921 C   0  0  0  0  0  0  0  0  0  0  0  0
  -12.8573    1.3477   -4.2067 C   0  0  0  0  0  0  0  0  0  0  0  0
  -17.0556   -2.5613    1.9450 C   0  0  0  0  0  0  0  0  0  0  0  0
  -15.0725   -2.3847    2.9693 C   0  0  0  0  0  0  0  0  0  0  0  0
  -11.6448   -1.0596   -4.8388 C   0  0  0  0  0  0  0  0  0  0  0  0
  -13.2438    0.1895   -3.5487 C   0  0  0  0  0  0  0  0  0  0  0  0
  -13.0329   -1.6740   -0.9005 C   0  0  0  0  0  0  0  0  0  0  0  0
  -13.6981   -1.7130    0.3264 C   0  0  0  0  0  0  0  0  0  0  0  0
  -15.5007   -2.9368   -0.6993 C   0  0  0  0  0  0  0  0  0  0  0  0
  -15.5018   -3.5355   -3.1133 C   0  0  0  0  0  0  0  0  0  0  0  0
  -12.6381   -1.0320   -3.8590 C   0  0  0  0  0  0  0  0  0  0  0  0
  -13.6070   -2.2708   -2.0254 C   0  0  0  0  0  0  0  0  0  0  0  0
  -15.6769   -2.4159    1.7346 C   0  0  0  0  0  0  0  0  0  0  0  0
  -14.9452   -2.3403    0.4321 C   0  0  0  0  0  0  0  0  0  0  0  0
  -14.8458   -2.8954   -1.9249 C   0  0  0  0  0  0  0  0  0  0  0  0
  -14.2843   -5.0571   -3.0889 H   0  0  0  0  0  0  0  0  0  0  0  0
  -18.1784   -2.6917    3.7297 H   0  0  0  0  0  0  0  0  0  0  0  0
  -11.5764    2.1371   -5.6427 H   0  0  0  0  0  0  0  0  0  0  0  0
  -10.5312    0.0657   -6.1869 H   0  0  0  0  0  0  0  0  0  0  0  0
  -13.2972    2.2182   -3.9861 H   0  0  0  0  0  0  0  0  0  0  0  0
  -17.7497   -2.6265    1.2280 H   0  0  0  0  0  0  0  0  0  0  0  0
  -14.0924   -2.3048    3.1512 H   0  0  0  0  0  0  0  0  0  0  0  0
  -11.2104   -1.9291   -5.0740 H   0  0  0  0  0  0  0  0  0  0  0  0
  -13.9582    0.2281   -2.8500 H   0  0  0  0  0  0  0  0  0  0  0  0
  -12.1455   -1.2189   -0.9739 H   0  0  0  0  0  0  0  0  0  0  0  0
  -13.2824   -1.2915    1.1323 H   0  0  0  0  0  0  0  0  0  0  0  0
  -16.3834   -3.4013   -0.6281 H   0  0  0  0  0  0  0  0  0  0  0  0
  1 16  1  0  0  0  0
  2 16  2  0  0  0  0
  3 17  1  0  0  0  0
  3 18  1  0  0  0  0
  4  5  1  0  0  0  0
  4  9  1  0  0  0  0
  5 10  2  0  0  0  0
  6  7  2  0  0  0  0
  6  8  1  0  0  0  0
  7 11  1  0  0  0  0
  8 12  2  0  0  0  0
  9 19  2  0  0  0  0
 10 19  1  0  0  0  0
 11 17  2  0  0  0  0
 12 17  1  0  0  0  0
 13 14  1  0  0  0  0
 13 18  2  0  0  0  0
 14 20  2  0  0  0  0
 15 20  1  0  0  0  0
 15 21  2  0  0  0  0
 16 21  1  0  0  0  0
 18 21  1  0  0  0  0
 19 20  1  0  0  0  0
  1 22  1  0  0  0  0
  4 23  1  0  0  0  0
  6 24  1  0  0  0  0
  7 25  1  0  0  0  0
  8 26  1  0  0  0  0
  9 27  1  0  0  0  0
 10 28  1  0  0  0  0
 11 29  1  0  0  0  0
 12 30  1  0  0  0  0
 13 31  1  0  0  0  0
 14 32  1  0  0  0  0
 15 33  1  0  0  0  0
M  END
> <pdb_id>
6CBF

> <uniprot_id>
P14174

> <usmiles>
O=C(O)c1c(Oc2ccccc2)ccc(c1)C=3C=NNC3

$$$$
EWG_C_204
          07202405323D 1   1.00000     0.00000     0
            
 22 23  0  0  0  0            999 V2000
  -16.2930   -2.2241   -3.1565 O   0  0  0  0  0  0  0  0  0  0  0  0
  -14.6064   -0.9116   -3.7773 O   0  0  0  0  0  0  0  0  0  0  0  0
  -16.5540   -2.5911    4.0355 N   0  0  0  0  0  0  0  0  0  0  0  0
  -17.6680   -2.5814    3.2308 N   0  0  0  0  0  0  0  0  0  0  0  0
  -15.4332   -2.4168    3.3302 C   0  0  0  0  0  0  0  0  0  0  0  0
  -17.2083   -2.4130    1.9731 C   0  0  0  0  0  0  0  0  0  0  0  0
  -12.7270   -1.6082   -0.0627 C   0  0  0  0  0  0  0  0  0  0  0  0
  -13.2522   -1.4939   -1.3398 C   0  0  0  0  0  0  0  0  0  0  0  0
  -13.5756   -1.8673    1.0255 C   0  0  0  0  0  0  0  0  0  0  0  0
  -15.4531   -1.9576   -0.4520 C   0  0  0  0  0  0  0  0  0  0  0  0
  -15.1718   -1.5658   -2.9042 C   0  0  0  0  0  0  0  0  0  0  0  0
  -15.8256   -2.3205    2.0032 C   0  0  0  0  0  0  0  0  0  0  0  0
  -14.6138   -1.6702   -1.5320 C   0  0  0  0  0  0  0  0  0  0  0  0
  -14.9357   -2.0670    0.8391 C   0  0  0  0  0  0  0  0  0  0  0  0
  -16.7375   -2.7507   -2.4318 H   0  0  0  0  0  0  0  0  0  0  0  0
  -16.5795   -2.7138    5.0277 H   0  0  0  0  0  0  0  0  0  0  0  0
  -14.5002   -2.3659    3.6866 H   0  0  0  0  0  0  0  0  0  0  0  0
  -17.7749   -2.3629    1.1506 H   0  0  0  0  0  0  0  0  0  0  0  0
  -11.7432   -1.5061    0.0840 H   0  0  0  0  0  0  0  0  0  0  0  0
  -12.6553   -1.2863   -2.1148 H   0  0  0  0  0  0  0  0  0  0  0  0
  -13.1938   -1.9086    1.9488 H   0  0  0  0  0  0  0  0  0  0  0  0
  -16.4328   -2.0860   -0.6060 H   0  0  0  0  0  0  0  0  0  0  0  0
  1 11  1  0  0  0  0
  2 11  2  0  0  0  0
  3  4  1  0  0  0  0
  3  5  1  0  0  0  0
  4  6  2  0  0  0  0
  5 12  2  0  0  0  0
  6 12  1  0  0  0  0
  7  8  1  0  0  0  0
  7  9  2  0  0  0  0
  8 13  2  0  0  0  0
  9 14  1  0  0  0  0
 10 13  1  0  0  0  0
 10 14  2  0  0  0  0
 11 13  1  0  0  0  0
 12 14  1  0  0  0  0
  1 15  1  0  0  0  0
  3 16  1  0  0  0  0
  5 17  1  0  0  0  0
  6 18  1  0  0  0  0
  7 19  1  0  0  0  0
  8 20  1  0  0  0  0
  9 21  1  0  0  0  0
 10 22  1  0  0  0  0
M  END
> <pdb_id>
6CBG

> <uniprot_id>
P14174

> <usmiles>
O=C(O)c1cc(ccc1)C=2C=NNC2

$$$$
EWQ_A_232
          07202402453D 1   1.00000     0.00000     0
            
 32 33  0  0  0  0            999 V2000
   -5.6225   10.4952   14.6187 O   0  0  0  0  0  0  0  0  0  0  0  0
   -2.1049    4.1146   16.6724 O   0  0  0  0  0  0  0  0  0  0  0  0
   -5.8230    5.6215   14.1520 O   0  0  0  0  0  0  0  0  0  0  0  0
   -5.2848    8.3038   14.8011 N   0  0  0  0  0  0  0  0  0  0  0  0
   -1.0800    4.3242   17.6816 C   0  0  0  0  0  0  0  0  0  0  0  0
   -5.9616    4.3277   13.5904 C   0  0  0  0  0  0  0  0  0  0  0  0
   -6.4786    8.0074   13.9993 C   0  0  0  0  0  0  0  0  0  0  0  0
   -1.7090    9.3381   17.1591 C   0  0  0  0  0  0  0  0  0  0  0  0
   -3.9269    4.8567   15.4192 C   0  0  0  0  0  0  0  0  0  0  0  0
   -3.7393    9.9579   15.7780 C   0  0  0  0  0  0  0  0  0  0  0  0
   -2.4856    6.5035   16.5740 C   0  0  0  0  0  0  0  0  0  0  0  0
   -4.8899    9.6044   15.0430 C   0  0  0  0  0  0  0  0  0  0  0  0
   -2.8643    5.1814   16.2340 C   0  0  0  0  0  0  0  0  0  0  0  0
   -4.7300    5.8726   14.9165 C   0  0  0  0  0  0  0  0  0  0  0  0
   -4.4536    7.2531   15.2797 C   0  0  0  0  0  0  0  0  0  0  0  0
   -2.9505    8.9715   16.3619 C   0  0  0  0  0  0  0  0  0  0  0  0
   -3.2398    7.5697   16.0516 C   0  0  0  0  0  0  0  0  0  0  0  0
   -0.6281    3.4552   17.8833 H   0  0  0  0  0  0  0  0  0  0  0  0
   -0.4056    4.9793   17.3408 H   0  0  0  0  0  0  0  0  0  0  0  0
   -1.5010    4.6823   18.5150 H   0  0  0  0  0  0  0  0  0  0  0  0
   -6.8056    4.2850   13.0558 H   0  0  0  0  0  0  0  0  0  0  0  0
   -5.1805    4.1370   12.9959 H   0  0  0  0  0  0  0  0  0  0  0  0
   -5.9965    3.6482   14.3232 H   0  0  0  0  0  0  0  0  0  0  0  0
   -6.6003    7.0168   13.9362 H   0  0  0  0  0  0  0  0  0  0  0  0
   -7.2817    8.4148   14.4341 H   0  0  0  0  0  0  0  0  0  0  0  0
   -6.3669    8.3887   13.0816 H   0  0  0  0  0  0  0  0  0  0  0  0
   -1.2735    8.5048   17.4997 H   0  0  0  0  0  0  0  0  0  0  0  0
   -1.0689    9.8321   16.5707 H   0  0  0  0  0  0  0  0  0  0  0  0
   -1.9679    9.9185   17.9311 H   0  0  0  0  0  0  0  0  0  0  0  0
   -4.1177    3.9016   15.1926 H   0  0  0  0  0  0  0  0  0  0  0  0
   -3.4895   10.9208   15.8799 H   0  0  0  0  0  0  0  0  0  0  0  0
   -1.7015    6.6745   17.1707 H   0  0  0  0  0  0  0  0  0  0  0  0
  1 12  2  0  0  0  0
  2  5  1  0  0  0  0
  2 13  1  0  0  0  0
  3  6  1  0  0  0  0
  3 14  1  0  0  0  0
  4  7  1  0  0  0  0
  4 12  1  0  0  0  0
  4 15  1  0  0  0  0
  8 16  1  0  0  0  0
  9 13  2  0  0  0  0
  9 14  1  0  0  0  0
 10 12  1  0  0  0  0
 10 16  2  0  0  0  0
 11 13  1  0  0  0  0
 11 17  2  0  0  0  0
 14 15  2  0  0  0  0
 15 17  1  0  0  0  0
 16 17  1  0  0  0  0
  5 18  1  0  0  0  0
  5 19  1  0  0  0  0
  5 20  1  0  0  0  0
  6 21  1  0  0  0  0
  6 22  1  0  0  0  0
  6 23  1  0  0  0  0
  7 24  1  0  0  0  0
  7 25  1  0  0  0  0
  7 26  1  0  0  0  0
  8 27  1  0  0  0  0
  8 28  1  0  0  0  0
  8 29  1  0  0  0  0
  9 30  1  0  0  0  0
 10 31  1  0  0  0  0
 11 32  1  0  0  0  0
M  END
> <pdb_id>
3NFR

> <uniprot_id>
P16083

> <usmiles>
O=C1N(c2c(OC)cc(OC)cc2C(=C1)C)C

$$$$
EXD_A_201
          07212402373D 1   1.00000     0.00000     0
            
 19 20  0  0  0  0            999 V2000
   25.0350   -8.5537   32.9116 F   0  0  0  0  0  0  0  0  0  0  0  0
   25.5615   -6.8074   31.8093 F   0  0  0  0  0  0  0  0  0  0  0  0
   25.1741   -8.6172   30.7635 F   0  0  0  0  0  0  0  0  0  0  0  0
   30.5468   -7.8089   34.4082 O   0  0  0  0  0  0  0  0  0  0  0  0
   27.7239   -9.5555   31.2333 N   0  0  0  0  0  0  0  0  0  0  0  0
   27.9885   -7.9784   32.8390 N   0  0  0  0  0  0  0  0  0  0  0  0
   31.2232  -10.5563   32.0800 C   0  0  0  0  0  0  0  0  0  0  0  0
   31.4104   -9.6185   33.0877 C   0  0  0  0  0  0  0  0  0  0  0  0
   30.0254  -10.6045   31.3805 C   0  0  0  0  0  0  0  0  0  0  0  0
   30.3948   -8.7109   33.4039 C   0  0  0  0  0  0  0  0  0  0  0  0
   27.1734   -8.5169   31.9702 C   0  0  0  0  0  0  0  0  0  0  0  0
   29.0157   -9.6971   31.7148 C   0  0  0  0  0  0  0  0  0  0  0  0
   29.1601   -8.7131   32.7236 C   0  0  0  0  0  0  0  0  0  0  0  0
   25.7263   -8.1165   31.8612 C   0  0  0  0  0  0  0  0  0  0  0  0
   29.8095   -7.1675   34.6200 H   0  0  0  0  0  0  0  0  0  0  0  0
   27.2833  -10.0876   30.5103 H   0  0  0  0  0  0  0  0  0  0  0  0
   31.9554  -11.2000   31.8575 H   0  0  0  0  0  0  0  0  0  0  0  0
   32.2752   -9.5924   33.5890 H   0  0  0  0  0  0  0  0  0  0  0  0
   29.8873  -11.2751   30.6517 H   0  0  0  0  0  0  0  0  0  0  0  0
  1 14  1  0  0  0  0
  2 14  1  0  0  0  0
  3 14  1  0  0  0  0
  4 10  1  0  0  0  0
  5 11  1  0  0  0  0
  5 12  1  0  0  0  0
  6 11  2  0  0  0  0
  6 13  1  0  0  0  0
  7  8  1  0  0  0  0
  7  9  2  0  0  0  0
  8 10  2  0  0  0  0
  9 12  1  0  0  0  0
 10 13  1  0  0  0  0
 11 14  1  0  0  0  0
 12 13  2  0  0  0  0
  4 15  1  0  0  0  0
  5 16  1  0  0  0  0
  7 17  1  0  0  0  0
  8 18  1  0  0  0  0
  9 19  1  0  0  0  0
M  END
> <pdb_id>
6CCS

> <uniprot_id>
P0A6I6

> <usmiles>
FC(F)(F)C1=Nc2c(O)cccc2N1

$$$$
EXG_A_201
          07212402373D 1   1.00000     0.00000     0
            
 27 29  0  0  0  0            999 V2000
   27.4877   -7.6529   32.5165 N   0  0  0  0  0  0  0  0  0  0  0  0
   29.6240   -8.7991   32.3218 N   0  0  0  0  0  0  0  0  0  0  0  0
   26.2678   -9.2289   31.4975 N   0  0  0  0  0  0  0  0  0  0  0  0
   26.2927   -8.0164   32.1187 C   0  0  0  0  0  0  0  0  0  0  0  0
   30.2250   -9.9010   31.8339 C   0  0  0  0  0  0  0  0  0  0  0  0
   25.0877   -9.9793   31.0651 C   0  0  0  0  0  0  0  0  0  0  0  0
   29.5570  -10.9194   31.1595 C   0  0  0  0  0  0  0  0  0  0  0  0
   23.9342  -12.7911   34.1095 C   0  0  0  0  0  0  0  0  0  0  0  0
   23.3253  -11.5519   34.0389 C   0  0  0  0  0  0  0  0  0  0  0  0
   24.9095  -13.1274   33.1880 C   0  0  0  0  0  0  0  0  0  0  0  0
   28.1828  -10.8293   30.9925 C   0  0  0  0  0  0  0  0  0  0  0  0
   23.6908  -10.6491   33.0488 C   0  0  0  0  0  0  0  0  0  0  0  0
   25.2719  -12.2257   32.1969 C   0  0  0  0  0  0  0  0  0  0  0  0
   28.2960   -8.6998   32.1301 C   0  0  0  0  0  0  0  0  0  0  0  0
   27.5756   -9.6815   31.4916 C   0  0  0  0  0  0  0  0  0  0  0  0
   24.6651  -10.9764   32.1144 C   0  0  0  0  0  0  0  0  0  0  0  0
   25.4761   -7.4564   32.2580 H   0  0  0  0  0  0  0  0  0  0  0  0
   31.2122   -9.9934   31.9640 H   0  0  0  0  0  0  0  0  0  0  0  0
   25.3025  -10.4668   30.2188 H   0  0  0  0  0  0  0  0  0  0  0  0
   24.3365   -9.3402   30.9002 H   0  0  0  0  0  0  0  0  0  0  0  0
   30.0608  -11.7051   30.8006 H   0  0  0  0  0  0  0  0  0  0  0  0
   23.6710  -13.4406   34.8227 H   0  0  0  0  0  0  0  0  0  0  0  0
   22.6196  -11.3048   34.7028 H   0  0  0  0  0  0  0  0  0  0  0  0
   25.3542  -14.0218   33.2359 H   0  0  0  0  0  0  0  0  0  0  0  0
   27.6579  -11.5493   30.5386 H   0  0  0  0  0  0  0  0  0  0  0  0
   23.2476   -9.7536   33.0082 H   0  0  0  0  0  0  0  0  0  0  0  0
   25.9775  -12.4769   31.5344 H   0  0  0  0  0  0  0  0  0  0  0  0
  1  4  2  0  0  0  0
  1 14  1  0  0  0  0
  2  5  1  0  0  0  0
  2 14  2  0  0  0  0
  3  4  1  0  0  0  0
  3  6  1  0  0  0  0
  3 15  1  0  0  0  0
  5  7  2  0  0  0  0
  6 16  1  0  0  0  0
  7 11  1  0  0  0  0
  8  9  2  0  0  0  0
  8 10  1  0  0  0  0
  9 12  1  0  0  0  0
 10 13  2  0  0  0  0
 11 15  2  0  0  0  0
 12 16  2  0  0  0  0
 13 16  1  0  0  0  0
 14 15  1  0  0  0  0
  4 17  1  0  0  0  0
  5 18  1  0  0  0  0
  6 19  1  0  0  0  0
  6 20  1  0  0  0  0
  7 21  1  0  0  0  0
  8 22  1  0  0  0  0
  9 23  1  0  0  0  0
 10 24  1  0  0  0  0
 11 25  1  0  0  0  0
 12 26  1  0  0  0  0
 13 27  1  0  0  0  0
M  END
> <pdb_id>
6CCL

> <uniprot_id>
P0A6I6

> <usmiles>
n1c2N=CN(c2ccc1)Cc3ccccc3

$$$$
EXJ_A_201
          07212402373D 1   1.00000     0.00000     0
            
 36 38  0  0  0  0            999 V2000
   23.6529  -11.1907   35.3507 Cl  0  0  0  0  0  0  0  0  0  0  0  0
   27.8017  -11.1708   29.8519 O   0  0  0  0  0  0  0  0  0  0  0  0
   20.8069   -6.5731   30.7689 N   0  0  0  0  0  0  0  0  0  0  0  0
   26.5514   -8.9207   31.1821 N   0  0  0  0  0  0  0  0  0  0  0  0
   27.7245   -7.7561   32.5953 N   0  0  0  0  0  0  0  0  0  0  0  0
   29.7367   -8.9053   32.5524 N   0  0  0  0  0  0  0  0  0  0  0  0
   25.3818   -7.1858   32.1722 N   0  0  0  0  0  0  0  0  0  0  0  0
   27.8824   -9.4540   31.2761 N   0  0  0  0  0  0  0  0  0  0  0  0
   31.7985  -10.1643   32.4915 C   0  0  0  0  0  0  0  0  0  0  0  0
   21.8223   -6.4963   31.3042 C   0  0  0  0  0  0  0  0  0  0  0  0
   22.3135  -10.9535   31.5724 C   0  0  0  0  0  0  0  0  0  0  0  0
   22.5561  -11.3978   32.8759 C   0  0  0  0  0  0  0  0  0  0  0  0
   23.0880   -6.3925   32.0136 C   0  0  0  0  0  0  0  0  0  0  0  0
   22.7937   -9.6890   31.1838 C   0  0  0  0  0  0  0  0  0  0  0  0
   29.8268  -10.7364   31.0757 C   0  0  0  0  0  0  0  0  0  0  0  0
   23.8253   -9.3658   33.3654 C   0  0  0  0  0  0  0  0  0  0  0  0
   26.4398   -7.9120   31.9738 C   0  0  0  0  0  0  0  0  0  0  0  0
   28.4882   -8.6843   32.2054 C   0  0  0  0  0  0  0  0  0  0  0  0
   28.4264  -10.5040   30.6762 C   0  0  0  0  0  0  0  0  0  0  0  0
   23.3261  -10.6164   33.7480 C   0  0  0  0  0  0  0  0  0  0  0  0
   30.3804   -9.9310   32.0159 C   0  0  0  0  0  0  0  0  0  0  0  0
   24.0716   -7.5098   31.5944 C   0  0  2  0  0  0  0  0  0  0  0  0
   23.5435   -8.8836   32.0657 C   0  0  0  0  0  0  0  0  0  0  0  0
   30.1937   -8.3079   33.2114 H   0  0  0  0  0  0  0  0  0  0  0  0
   25.4630   -6.3694   32.7440 H   0  0  0  0  0  0  0  0  0  0  0  0
   32.1813  -10.9594   32.0211 H   0  0  0  0  0  0  0  0  0  0  0  0
   32.3546   -9.3580   32.2899 H   0  0  0  0  0  0  0  0  0  0  0  0
   31.7963  -10.3297   33.4778 H   0  0  0  0  0  0  0  0  0  0  0  0
   21.8071  -11.5250   30.9268 H   0  0  0  0  0  0  0  0  0  0  0  0
   22.1807  -12.2715   33.1853 H   0  0  0  0  0  0  0  0  0  0  0  0
   22.9157   -6.4641   32.9960 H   0  0  0  0  0  0  0  0  0  0  0  0
   23.5010   -5.5045   31.8114 H   0  0  0  0  0  0  0  0  0  0  0  0
   22.5988   -9.3541   30.2619 H   0  0  0  0  0  0  0  0  0  0  0  0
   30.3586  -11.4746   30.6608 H   0  0  0  0  0  0  0  0  0  0  0  0
   24.3726   -8.8216   34.0012 H   0  0  0  0  0  0  0  0  0  0  0  0
   24.1492   -7.5166   30.5975 H   0  0  0  0  0  0  0  0  0  0  0  0
  1 20  1  0  0  0  0
  2 19  2  0  0  0  0
  3 10  3  0  0  0  0
  4  8  1  0  0  0  0
  4 17  2  0  0  0  0
  5 17  1  0  0  0  0
  5 18  2  0  0  0  0
  6 18  1  0  0  0  0
  6 21  1  0  0  0  0
  7 17  1  0  0  0  0
  7 22  1  0  0  0  0
  8 18  1  0  0  0  0
  8 19  1  0  0  0  0
  9 21  1  0  0  0  0
 10 13  1  0  0  0  0
 11 12  2  0  0  0  0
 11 14  1  0  0  0  0
 12 20  1  0  0  0  0
 13 22  1  0  0  0  0
 14 23  2  0  0  0  0
 15 19  1  0  0  0  0
 15 21  2  0  0  0  0
 16 20  2  0  0  0  0
 16 23  1  0  0  0  0
 22 23  1  0  0  0  0
  6 24  1  0  0  0  0
  7 25  1  0  0  0  0
  9 26  1  0  0  0  0
  9 27  1  0  0  0  0
  9 28  1  0  0  0  0
 11 29  1  0  0  0  0
 12 30  1  0  0  0  0
 13 31  1  0  0  0  0
 13 32  1  0  0  0  0
 14 33  1  0  0  0  0
 15 34  1  0  0  0  0
 16 35  1  0  0  0  0
 22 36  1  0  0  0  0
M  END
> <pdb_id>
6CCK

> <uniprot_id>
P0A6I6

> <usmiles>
Clc1cc(ccc1)[C@H](NC2=NN3C(=N2)NC(=CC3=O)C)CC#N

$$$$
EXQ_B_402
          07202410273D 1   1.00000     0.00000     0
            
 46 49  0  0  0  0            999 V2000
  124.3270   99.7430  -46.8260 S   0  0  0  0  0  0  0  0  0  0  0  0
  123.1150  109.2360  -41.2220 N   0  0  0  0  0  0  0  0  0  0  0  0
  124.7490  103.2380  -42.6390 N   0  0  0  0  0  0  0  0  0  0  0  0
  123.0060  110.6490  -40.7970 C   0  0  0  0  0  0  0  0  0  0  0  0
  126.5830  101.8110  -41.8580 C   0  0  0  0  0  0  0  0  0  0  0  0
  122.8030   99.9840  -50.5560 C   0  0  0  0  0  0  0  0  0  0  0  0
  123.8370   99.1580  -48.3880 C   0  0  0  0  0  0  0  0  0  0  0  0
  125.0690  102.0520  -41.8660 C   0  0  0  0  0  0  0  0  0  0  0  0
  124.5030  108.8020  -41.4580 C   0  0  0  0  0  0  0  0  0  0  0  0
  125.0000  105.0550  -40.8840 C   0  0  0  0  0  0  0  0  0  0  0  0
  124.9230  106.4390  -40.6640 C   0  0  0  0  0  0  0  0  0  0  0  0
  123.7280  103.7880  -46.6490 C   0  0  0  0  0  0  0  0  0  0  0  0
  123.8430  104.8570  -45.7470 C   0  0  0  0  0  0  0  0  0  0  0  0
  123.3080  101.4210  -48.4820 C   0  0  0  0  0  0  0  0  0  0  0  0
  124.3160  102.2030  -44.9020 C   0  0  0  0  0  0  0  0  0  0  0  0
  124.3140  106.8180  -43.0100 C   0  0  0  0  0  0  0  0  0  0  0  0
  123.8230  101.3660  -47.2120 C   0  0  0  0  0  0  0  0  0  0  0  0
  124.7380  104.5560  -42.1760 C   0  0  0  0  0  0  0  0  0  0  0  0
  124.4270  103.2670  -43.9930 C   0  0  0  0  0  0  0  0  0  0  0  0
  123.3110  100.1660  -49.1600 C   0  0  0  0  0  0  0  0  0  0  0  0
  124.5740  107.3150  -41.7180 C   0  0  0  0  0  0  0  0  0  0  0  0
  123.9630  102.4560  -46.2410 C   0  0  0  0  0  0  0  0  0  0  0  0
  124.1930  104.6080  -44.4040 C   0  0  0  0  0  0  0  0  0  0  0  0
  124.3910  105.4320  -43.2480 C   0  0  0  0  0  0  0  0  0  0  0  0
  122.5977  109.1191  -42.0698 H   0  0  0  0  0  0  0  0  0  0  0  0
  122.0438  110.8807  -40.6538 H   0  0  0  0  0  0  0  0  0  0  0  0
  123.5111  110.7804  -39.9440 H   0  0  0  0  0  0  0  0  0  0  0  0
  123.3894  111.2409  -41.5060 H   0  0  0  0  0  0  0  0  0  0  0  0
  126.7873  100.9917  -41.3223 H   0  0  0  0  0  0  0  0  0  0  0  0
  126.9054  101.6848  -42.7962 H   0  0  0  0  0  0  0  0  0  0  0  0
  127.0439  102.5993  -41.4504 H   0  0  0  0  0  0  0  0  0  0  0  0
  122.4716  100.8598  -50.9069 H   0  0  0  0  0  0  0  0  0  0  0  0
  123.5434   99.6499  -51.1392 H   0  0  0  0  0  0  0  0  0  0  0  0
  122.0546   99.3208  -50.5546 H   0  0  0  0  0  0  0  0  0  0  0  0
  123.9266   98.2080  -48.6870 H   0  0  0  0  0  0  0  0  0  0  0  0
  124.6117  101.2608  -42.2721 H   0  0  0  0  0  0  0  0  0  0  0  0
  124.7501  102.1753  -40.9263 H   0  0  0  0  0  0  0  0  0  0  0  0
  125.0540  109.0189  -40.6522 H   0  0  0  0  0  0  0  0  0  0  0  0
  124.8667  109.2896  -42.2517 H   0  0  0  0  0  0  0  0  0  0  0  0
  125.2366  104.4336  -40.1371 H   0  0  0  0  0  0  0  0  0  0  0  0
  125.1164  106.8085  -39.7551 H   0  0  0  0  0  0  0  0  0  0  0  0
  123.4749  103.9726  -47.5987 H   0  0  0  0  0  0  0  0  0  0  0  0
  123.6771  105.7934  -46.0561 H   0  0  0  0  0  0  0  0  0  0  0  0
  122.9621  102.2636  -48.8948 H   0  0  0  0  0  0  0  0  0  0  0  0
  124.4876  101.2658  -44.5984 H   0  0  0  0  0  0  0  0  0  0  0  0
  124.0766  107.4444  -43.7525 H   0  0  0  0  0  0  0  0  0  0  0  0
  1  7  1  0  0  0  0
  1 17  1  0  0  0  0
  2  4  1  0  0  0  0
  2  9  1  0  0  0  0
  3  8  1  0  0  0  0
  3 18  1  0  0  0  0
  3 19  1  0  0  0  0
  5  8  1  0  0  0  0
  6 20  1  0  0  0  0
  7 20  2  0  0  0  0
  9 21  1  0  0  0  0
 10 11  1  0  0  0  0
 10 18  2  0  0  0  0
 11 21  2  0  0  0  0
 12 13  1  0  0  0  0
 12 22  2  0  0  0  0
 13 23  2  0  0  0  0
 14 17  2  0  0  0  0
 14 20  1  0  0  0  0
 15 19  2  0  0  0  0
 15 22  1  0  0  0  0
 16 21  1  0  0  0  0
 16 24  2  0  0  0  0
 17 22  1  0  0  0  0
 18 24  1  0  0  0  0
 19 23  1  0  0  0  0
 23 24  1  0  0  0  0
  2 25  1  0  0  0  0
  4 26  1  0  0  0  0
  4 27  1  0  0  0  0
  4 28  1  0  0  0  0
  5 29  1  0  0  0  0
  5 30  1  0  0  0  0
  5 31  1  0  0  0  0
  6 32  1  0  0  0  0
  6 33  1  0  0  0  0
  6 34  1  0  0  0  0
  7 35  1  0  0  0  0
  8 36  1  0  0  0  0
  8 37  1  0  0  0  0
  9 38  1  0  0  0  0
  9 39  1  0  0  0  0
 10 40  1  0  0  0  0
 11 41  1  0  0  0  0
 12 42  1  0  0  0  0
 13 43  1  0  0  0  0
 14 44  1  0  0  0  0
 15 45  1  0  0  0  0
 16 46  1  0  0  0  0
M  END
> <pdb_id>
6GGF

> <uniprot_id>
P04637

> <usmiles>
S1C(c2cc3N(c4c(c3cc2)cc(cc4)CNC)CC)=CC(=C1)C

$$$$
EXV_A_201
          07212402373D 1   1.00000     0.00000     0
            
 42 45  0  0  0  0            999 V2000
   24.4852  -14.8321   34.9499 O   0  0  0  0  0  0  0  0  0  0  0  0
   25.4382  -14.5342   32.9486 O   0  0  0  0  0  0  0  0  0  0  0  0
   30.4143   -8.2986   34.6913 O   0  0  0  0  0  0  0  0  0  0  0  0
   27.7081   -9.8711   31.3133 N   0  0  0  0  0  0  0  0  0  0  0  0
   27.8525   -8.5810   33.1573 N   0  0  0  0  0  0  0  0  0  0  0  0
   31.2942  -10.6763   32.0396 C   0  0  0  0  0  0  0  0  0  0  0  0
   23.2934  -10.7710   35.0206 C   0  0  0  0  0  0  0  0  0  0  0  0
   24.1777   -7.7309   30.2230 C   0  0  0  0  0  0  0  0  0  0  0  0
   31.4056   -9.8521   33.1609 C   0  0  0  0  0  0  0  0  0  0  0  0
   30.0920  -10.7589   31.3370 C   0  0  0  0  0  0  0  0  0  0  0  0
   23.6257  -12.1206   35.0170 C   0  0  0  0  0  0  0  0  0  0  0  0
   23.6579   -9.9615   33.9525 C   0  0  0  0  0  0  0  0  0  0  0  0
   25.5874   -7.5079   30.7955 C   0  0  0  0  0  0  0  0  0  0  0  0
   23.5212   -8.8485   31.0494 C   0  0  0  0  0  0  0  0  0  0  0  0
   24.6785  -11.8506   32.8732 C   0  0  0  0  0  0  0  0  0  0  0  0
   24.7665  -14.1046   33.9902 C   0  0  0  0  0  0  0  0  0  0  0  0
   27.0948   -9.0125   32.1611 C   0  0  0  0  0  0  0  0  0  0  0  0
   30.3037   -9.1196   33.6118 C   0  0  0  0  0  0  0  0  0  0  0  0
   29.0018  -10.0114   31.7895 C   0  0  0  0  0  0  0  0  0  0  0  0
   29.0731   -9.1997   32.9254 C   0  0  0  0  0  0  0  0  0  0  0  0
   24.3358  -12.6678   33.9492 C   0  0  0  0  0  0  0  0  0  0  0  0
   24.3479  -10.4920   32.8646 C   0  0  0  0  0  0  0  0  0  0  0  0
   25.7039   -8.4906   31.9826 C   0  0  2  0  0  0  0  0  0  0  0  0
   24.6975   -9.6352   31.6613 C   0  0  2  0  0  0  0  0  0  0  0  0
   23.9710  -14.4622   35.7238 H   0  0  0  0  0  0  0  0  0  0  0  0
   29.6209   -7.7783   35.0071 H   0  0  0  0  0  0  0  0  0  0  0  0
   27.3099  -10.3128   30.5093 H   0  0  0  0  0  0  0  0  0  0  0  0
   32.0827  -11.2120   31.7377 H   0  0  0  0  0  0  0  0  0  0  0  0
   22.7912  -10.3824   35.7931 H   0  0  0  0  0  0  0  0  0  0  0  0
   24.2374   -8.0049   29.2632 H   0  0  0  0  0  0  0  0  0  0  0  0
   23.6412   -6.8903   30.2970 H   0  0  0  0  0  0  0  0  0  0  0  0
   32.2786   -9.7853   33.6441 H   0  0  0  0  0  0  0  0  0  0  0  0
   30.0122  -11.3403   30.5273 H   0  0  0  0  0  0  0  0  0  0  0  0
   23.3541  -12.7019   35.7840 H   0  0  0  0  0  0  0  0  0  0  0  0
   23.4232   -8.9896   33.9644 H   0  0  0  0  0  0  0  0  0  0  0  0
   25.6928   -6.5644   31.1098 H   0  0  0  0  0  0  0  0  0  0  0  0
   26.2820   -7.7087   30.1047 H   0  0  0  0  0  0  0  0  0  0  0  0
   22.9691   -9.4413   30.4630 H   0  0  0  0  0  0  0  0  0  0  0  0
   22.9449   -8.4614   31.7691 H   0  0  0  0  0  0  0  0  0  0  0  0
   25.1688  -12.2424   32.0947 H   0  0  0  0  0  0  0  0  0  0  0  0
   25.4172   -8.0275   32.8212 H   0  0  0  0  0  0  0  0  0  0  0  0
   25.0935  -10.2213   30.9545 H   0  0  0  0  0  0  0  0  0  0  0  0
  1 16  1  0  0  0  0
  2 16  2  0  0  0  0
  3 18  1  0  0  0  0
  4 17  1  0  0  0  0
  4 19  1  0  0  0  0
  5 17  2  0  0  0  0
  5 20  1  0  0  0  0
  6  9  1  0  0  0  0
  6 10  2  0  0  0  0
  7 11  1  0  0  0  0
  7 12  2  0  0  0  0
  8 13  1  0  0  0  0
  8 14  1  0  0  0  0
  9 18  2  0  0  0  0
 10 19  1  0  0  0  0
 11 21  2  0  0  0  0
 12 22  1  0  0  0  0
 13 23  1  0  0  0  0
 14 24  1  0  0  0  0
 15 21  1  0  0  0  0
 15 22  2  0  0  0  0
 16 21  1  0  0  0  0
 17 23  1  0  0  0  0
 18 20  1  0  0  0  0
 19 20  2  0  0  0  0
 22 24  1  0  0  0  0
 23 24  1  0  0  0  0
  1 25  1  0  0  0  0
  3 26  1  0  0  0  0
  4 27  1  0  0  0  0
  6 28  1  0  0  0  0
  7 29  1  0  0  0  0
  8 30  1  0  0  0  0
  8 31  1  0  0  0  0
  9 32  1  0  0  0  0
 10 33  1  0  0  0  0
 11 34  1  0  0  0  0
 12 35  1  0  0  0  0
 13 36  1  0  0  0  0
 13 37  1  0  0  0  0
 14 38  1  0  0  0  0
 14 39  1  0  0  0  0
 15 40  1  0  0  0  0
 23 41  1  0  0  0  0
 24 42  1  0  0  0  0
M  END
> <pdb_id>
6CCO

> <uniprot_id>
P0A6I6

> <usmiles>
O=C(O)c1cc(ccc1)[C@@H]2[C@@H](C3=Nc4c(O)cccc4N3)CCC2

$$$$
EY2_A_401
          07202410273D 1   1.00000     0.00000     0
            
 36 38  0  0  0  0            999 V2000
  123.9586  100.7888  -47.1068 Br  0  0  0  0  0  0  0  0  0  0  0  0
  123.0229  109.2442  -41.0515 N   0  0  0  0  0  0  0  0  0  0  0  0
  124.7135  103.2470  -42.4677 N   0  0  0  0  0  0  0  0  0  0  0  0
  122.9126  110.7022  -40.8328 C   0  0  0  0  0  0  0  0  0  0  0  0
  126.5246  101.7922  -41.6399 C   0  0  0  0  0  0  0  0  0  0  0  0
  125.0096  102.0935  -41.6576 C   0  0  0  0  0  0  0  0  0  0  0  0
  124.3171  108.8309  -41.6279 C   0  0  0  0  0  0  0  0  0  0  0  0
  123.7981  103.5976  -46.4808 C   0  0  0  0  0  0  0  0  0  0  0  0
  124.8718  105.1281  -40.8040 C   0  0  0  0  0  0  0  0  0  0  0  0
  124.7638  106.5323  -40.6625 C   0  0  0  0  0  0  0  0  0  0  0  0
  123.8691  104.7234  -45.6204 C   0  0  0  0  0  0  0  0  0  0  0  0
  124.3605  102.0973  -44.6440 C   0  0  0  0  0  0  0  0  0  0  0  0
  124.2197  106.7572  -43.0343 C   0  0  0  0  0  0  0  0  0  0  0  0
  124.0434  102.2886  -45.9972 C   0  0  0  0  0  0  0  0  0  0  0  0
  124.6548  104.5459  -42.0676 C   0  0  0  0  0  0  0  0  0  0  0  0
  124.4240  103.2093  -43.7886 C   0  0  0  0  0  0  0  0  0  0  0  0
  124.4260  107.3557  -41.7706 C   0  0  0  0  0  0  0  0  0  0  0  0
  124.1823  104.5032  -44.2614 C   0  0  0  0  0  0  0  0  0  0  0  0
  124.3317  105.3579  -43.1688 C   0  0  0  0  0  0  0  0  0  0  0  0
  122.2941  108.9617  -41.6752 H   0  0  0  0  0  0  0  0  0  0  0  0
  122.0166  110.9139  -40.4426 H   0  0  0  0  0  0  0  0  0  0  0  0
  123.6295  110.9999  -40.2024 H   0  0  0  0  0  0  0  0  0  0  0  0
  123.0171  111.1790  -41.7056 H   0  0  0  0  0  0  0  0  0  0  0  0
  126.6980  100.9884  -41.0709 H   0  0  0  0  0  0  0  0  0  0  0  0
  126.8402  101.6150  -42.5721 H   0  0  0  0  0  0  0  0  0  0  0  0
  127.0165  102.5782  -41.2653 H   0  0  0  0  0  0  0  0  0  0  0  0
  124.5245  101.3018  -42.0289 H   0  0  0  0  0  0  0  0  0  0  0  0
  124.7008  102.2649  -40.7220 H   0  0  0  0  0  0  0  0  0  0  0  0
  125.0522  109.1513  -41.0304 H   0  0  0  0  0  0  0  0  0  0  0  0
  124.4152  109.2494  -42.5308 H   0  0  0  0  0  0  0  0  0  0  0  0
  123.5710  103.7303  -47.4456 H   0  0  0  0  0  0  0  0  0  0  0  0
  125.0994  104.5562  -40.0159 H   0  0  0  0  0  0  0  0  0  0  0  0
  124.9277  106.9513  -39.7695 H   0  0  0  0  0  0  0  0  0  0  0  0
  123.7020  105.6465  -45.9666 H   0  0  0  0  0  0  0  0  0  0  0  0
  124.5394  101.1785  -44.2922 H   0  0  0  0  0  0  0  0  0  0  0  0
  123.9956  107.3226  -43.8282 H   0  0  0  0  0  0  0  0  0  0  0  0
  1 14  1  0  0  0  0
  2  4  1  0  0  0  0
  2  7  1  0  0  0  0
  3  6  1  0  0  0  0
  3 15  1  0  0  0  0
  3 16  1  0  0  0  0
  5  6  1  0  0  0  0
  7 17  1  0  0  0  0
  8 11  1  0  0  0  0
  8 14  2  0  0  0  0
  9 10  1  0  0  0  0
  9 15  2  0  0  0  0
 10 17  2  0  0  0  0
 11 18  2  0  0  0  0
 12 14  1  0  0  0  0
 12 16  2  0  0  0  0
 13 17  1  0  0  0  0
 13 19  2  0  0  0  0
 15 19  1  0  0  0  0
 16 18  1  0  0  0  0
 18 19  1  0  0  0  0
  2 20  1  0  0  0  0
  4 21  1  0  0  0  0
  4 22  1  0  0  0  0
  4 23  1  0  0  0  0
  5 24  1  0  0  0  0
  5 25  1  0  0  0  0
  5 26  1  0  0  0  0
  6 27  1  0  0  0  0
  6 28  1  0  0  0  0
  7 29  1  0  0  0  0
  7 30  1  0  0  0  0
  8 31  1  0  0  0  0
  9 32  1  0  0  0  0
 10 33  1  0  0  0  0
 11 34  1  0  0  0  0
 12 35  1  0  0  0  0
 13 36  1  0  0  0  0
M  END
> <pdb_id>
6GGA

> <uniprot_id>
P04637

> <usmiles>
Brc1cc2N(c3c(c2cc1)cc(cc3)CNC)CC

$$$$
EY7_A_1309
          07212402323D 1   1.00000     0.00000     0
            
 29 30  0  0  0  0            999 V2000
    2.8613    4.0047    9.2593 O   0  0  0  0  0  0  0  0  0  0  0  0
    4.2661    3.8315    7.5072 O   0  0  0  0  0  0  0  0  0  0  0  0
   -1.3129    1.6003    8.4907 O   0  0  0  0  0  0  0  0  0  0  0  0
   -1.7977    3.2592    6.9005 N   0  0  0  0  0  0  0  0  0  0  0  0
    1.0175    3.4280    6.5150 N   0  0  0  0  0  0  0  0  0  0  0  0
   -2.6888    1.5683    8.9064 C   0  0  0  0  0  0  0  0  0  0  0  0
   -1.5619    5.7957    4.2682 C   0  0  0  0  0  0  0  0  0  0  0  0
   -0.1835    5.8644    4.0734 C   0  0  0  0  0  0  0  0  0  0  0  0
    2.9213    1.9759    7.9871 C   0  0  0  0  0  0  0  0  0  0  0  0
   -2.0987    4.9450    5.1989 C   0  0  0  0  0  0  0  0  0  0  0  0
    0.6669    5.0926    4.8182 C   0  0  0  0  0  0  0  0  0  0  0  0
    1.4431    1.7591    8.2330 C   0  0  0  0  0  0  0  0  0  0  0  0
    3.4221    3.3713    8.2168 C   0  0  0  0  0  0  0  0  0  0  0  0
   -0.9561    2.5330    7.5772 C   0  0  0  0  0  0  0  0  0  0  0  0
    0.5100    2.6128    7.4137 C   0  0  0  0  0  0  0  0  0  0  0  0
   -1.2512    4.1212    5.9809 C   0  0  0  0  0  0  0  0  0  0  0  0
    0.1530    4.1995    5.7851 C   0  0  0  0  0  0  0  0  0  0  0  0
    2.1590    3.5464    9.8039 H   0  0  0  0  0  0  0  0  0  0  0  0
   -2.8171    0.8389    9.5783 H   0  0  0  0  0  0  0  0  0  0  0  0
   -2.9334    2.4466    9.3171 H   0  0  0  0  0  0  0  0  0  0  0  0
   -3.2728    1.3972    8.1130 H   0  0  0  0  0  0  0  0  0  0  0  0
   -2.1670    6.3747    3.7218 H   0  0  0  0  0  0  0  0  0  0  0  0
    0.1881    6.4842    3.3821 H   0  0  0  0  0  0  0  0  0  0  0  0
    3.1132    1.7335    7.0361 H   0  0  0  0  0  0  0  0  0  0  0  0
    3.4268    1.3642    8.5956 H   0  0  0  0  0  0  0  0  0  0  0  0
   -3.0897    4.9054    5.3264 H   0  0  0  0  0  0  0  0  0  0  0  0
    1.6546    5.1611    4.6777 H   0  0  0  0  0  0  0  0  0  0  0  0
    1.2619    1.9461    9.1985 H   0  0  0  0  0  0  0  0  0  0  0  0
    1.2363    0.8010    8.0346 H   0  0  0  0  0  0  0  0  0  0  0  0
  1 13  1  0  0  0  0
  2 13  2  0  0  0  0
  3  6  1  0  0  0  0
  3 14  1  0  0  0  0
  4 14  2  0  0  0  0
  4 16  1  0  0  0  0
  5 15  2  0  0  0  0
  5 17  1  0  0  0  0
  7  8  2  0  0  0  0
  7 10  1  0  0  0  0
  8 11  1  0  0  0  0
  9 12  1  0  0  0  0
  9 13  1  0  0  0  0
 10 16  2  0  0  0  0
 11 17  2  0  0  0  0
 12 15  1  0  0  0  0
 14 15  1  0  0  0  0
 16 17  1  0  0  0  0
  1 18  1  0  0  0  0
  6 19  1  0  0  0  0
  6 20  1  0  0  0  0
  6 21  1  0  0  0  0
  7 22  1  0  0  0  0
  8 23  1  0  0  0  0
  9 24  1  0  0  0  0
  9 25  1  0  0  0  0
 10 26  1  0  0  0  0
 11 27  1  0  0  0  0
 12 28  1  0  0  0  0
 12 29  1  0  0  0  0
M  END
> <pdb_id>
6CEC

> <uniprot_id>
Q9UBN7

> <usmiles>
O=C(O)CCc1nc2c(nc1OC)cccc2

$$$$
EYA_A_1304
          07212402323D 1   1.00000     0.00000     0
            
 29 30  0  0  0  0            999 V2000
    4.2550    3.8450    7.5080 O   0  0  0  0  0  0  0  0  0  0  0  0
    2.8620    3.9560    9.3100 O   0  0  0  0  0  0  0  0  0  0  0  0
   -3.0340    3.0930    7.3410 O   0  0  0  0  0  0  0  0  0  0  0  0
    0.9370    3.3300    6.6560 N   0  0  0  0  0  0  0  0  0  0  0  0
   -0.9220    2.3790    7.7620 N   0  0  0  0  0  0  0  0  0  0  0  0
   -1.4110    1.4190    8.7370 C   0  0  0  0  0  0  0  0  0  0  0  0
   -0.2550    5.7710    4.1890 C   0  0  0  0  0  0  0  0  0  0  0  0
   -1.6200    5.7140    4.3810 C   0  0  0  0  0  0  0  0  0  0  0  0
    2.8530    1.9660    7.9800 C   0  0  0  0  0  0  0  0  0  0  0  0
    1.3930    1.6860    8.3200 C   0  0  0  0  0  0  0  0  0  0  0  0
    0.5910    4.9750    4.9440 C   0  0  0  0  0  0  0  0  0  0  0  0
   -2.1630    4.8730    5.3310 C   0  0  0  0  0  0  0  0  0  0  0  0
    3.3760    3.3670    8.2300 C   0  0  0  0  0  0  0  0  0  0  0  0
   -1.8570    3.1630    7.0770 C   0  0  0  0  0  0  0  0  0  0  0  0
    0.4440    2.5140    7.5200 C   0  0  0  0  0  0  0  0  0  0  0  0
    0.0600    4.1130    5.9060 C   0  0  0  0  0  0  0  0  0  0  0  0
   -1.3210    4.0620    6.0970 C   0  0  0  0  0  0  0  0  0  0  0  0
    4.5837    3.3327    6.7146 H   0  0  0  0  0  0  0  0  0  0  0  0
   -0.6371    0.9341    9.1444 H   0  0  0  0  0  0  0  0  0  0  0  0
   -1.9175    1.8996    9.4529 H   0  0  0  0  0  0  0  0  0  0  0  0
   -2.0149    0.7627    8.2847 H   0  0  0  0  0  0  0  0  0  0  0  0
    0.1255    6.3897    3.5017 H   0  0  0  0  0  0  0  0  0  0  0  0
   -2.2222    6.2880    3.8261 H   0  0  0  0  0  0  0  0  0  0  0  0
    2.9766    1.7697    7.0073 H   0  0  0  0  0  0  0  0  0  0  0  0
    3.4119    1.3372    8.5205 H   0  0  0  0  0  0  0  0  0  0  0  0
    1.2478    1.8810    9.2900 H   0  0  0  0  0  0  0  0  0  0  0  0
    1.2030    0.7205    8.1420 H   0  0  0  0  0  0  0  0  0  0  0  0
    1.5797    5.0176    4.8005 H   0  0  0  0  0  0  0  0  0  0  0  0
   -3.1528    4.8441    5.4704 H   0  0  0  0  0  0  0  0  0  0  0  0
  1 13  1  0  0  0  0
  2 13  2  0  0  0  0
  3 14  2  0  0  0  0
  4 15  2  0  0  0  0
  4 16  1  0  0  0  0
  5  6  1  0  0  0  0
  5 14  1  0  0  0  0
  5 15  1  0  0  0  0
  7  8  2  0  0  0  0
  7 11  1  0  0  0  0
  8 12  1  0  0  0  0
  9 10  1  0  0  0  0
  9 13  1  0  0  0  0
 10 15  1  0  0  0  0
 11 16  2  0  0  0  0
 12 17  2  0  0  0  0
 14 17  1  0  0  0  0
 16 17  1  0  0  0  0
  1 18  1  0  0  0  0
  6 19  1  0  0  0  0
  6 20  1  0  0  0  0
  6 21  1  0  0  0  0
  7 22  1  0  0  0  0
  8 23  1  0  0  0  0
  9 24  1  0  0  0  0
  9 25  1  0  0  0  0
 10 26  1  0  0  0  0
 10 27  1  0  0  0  0
 11 28  1  0  0  0  0
 12 29  1  0  0  0  0
M  END
> <pdb_id>
6CED

> <uniprot_id>
Q9UBN7

> <usmiles>
O=C(O)CCC1=Nc2c(cccc2)C(=O)N1C

$$$$
EYB_B_402
          07202410273D 1   1.00000     0.00000     0
            
 42 45  0  0  0  0            999 V2000
  124.2322   99.1779  -48.1309 O   0  0  0  0  0  0  0  0  0  0  0  0
  123.7435   99.9761  -49.1581 N   0  0  0  0  0  0  0  0  0  0  0  0
  123.0348  109.1482  -41.3296 N   0  0  0  0  0  0  0  0  0  0  0  0
  124.7522  103.1397  -42.7459 N   0  0  0  0  0  0  0  0  0  0  0  0
  122.9530  110.5680  -40.9003 C   0  0  0  0  0  0  0  0  0  0  0  0
  126.5804  101.7715  -41.9041 C   0  0  0  0  0  0  0  0  0  0  0  0
  124.4097   99.9402  -47.0203 C   0  0  0  0  0  0  0  0  0  0  0  0
  125.0703  101.9621  -41.9565 C   0  0  0  0  0  0  0  0  0  0  0  0
  123.6322  101.2013  -48.6343 C   0  0  0  0  0  0  0  0  0  0  0  0
  124.4262  108.6632  -41.5570 C   0  0  0  0  0  0  0  0  0  0  0  0
  124.9408  104.9168  -40.9590 C   0  0  0  0  0  0  0  0  0  0  0  0
  124.8403  106.2972  -40.7553 C   0  0  0  0  0  0  0  0  0  0  0  0
  123.8779  103.6443  -46.7338 C   0  0  0  0  0  0  0  0  0  0  0  0
  123.9506  104.7107  -45.8325 C   0  0  0  0  0  0  0  0  0  0  0  0
  124.4171  102.0483  -44.9918 C   0  0  0  0  0  0  0  0  0  0  0  0
  124.3094  106.6590  -43.0956 C   0  0  0  0  0  0  0  0  0  0  0  0
  124.7231  104.4303  -42.2546 C   0  0  0  0  0  0  0  0  0  0  0  0
  124.4857  103.1226  -44.0955 C   0  0  0  0  0  0  0  0  0  0  0  0
  124.5198  107.1785  -41.8031 C   0  0  0  0  0  0  0  0  0  0  0  0
  124.0336  101.2363  -47.2846 C   0  0  0  0  0  0  0  0  0  0  0  0
  124.1009  102.3229  -46.3303 C   0  0  0  0  0  0  0  0  0  0  0  0
  124.2589  104.4451  -44.4829 C   0  0  0  0  0  0  0  0  0  0  0  0
  124.4086  105.2684  -43.3243 C   0  0  0  0  0  0  0  0  0  0  0  0
  122.5232  109.0476  -42.1829 H   0  0  0  0  0  0  0  0  0  0  0  0
  121.9948  110.8215  -40.7678 H   0  0  0  0  0  0  0  0  0  0  0  0
  123.4509  110.6857  -40.0411 H   0  0  0  0  0  0  0  0  0  0  0  0
  123.3583  111.1526  -41.6032 H   0  0  0  0  0  0  0  0  0  0  0  0
  126.7953  100.9603  -41.3601 H   0  0  0  0  0  0  0  0  0  0  0  0
  126.9340  101.6538  -42.8321 H   0  0  0  0  0  0  0  0  0  0  0  0
  127.0035  102.5751  -41.4856 H   0  0  0  0  0  0  0  0  0  0  0  0
  124.7603   99.6091  -46.1442 H   0  0  0  0  0  0  0  0  0  0  0  0
  124.6481  101.1578  -42.3745 H   0  0  0  0  0  0  0  0  0  0  0  0
  124.7177  102.0791  -41.0281 H   0  0  0  0  0  0  0  0  0  0  0  0
  123.3031  101.9982  -49.1408 H   0  0  0  0  0  0  0  0  0  0  0  0
  124.9732  108.8842  -40.7496 H   0  0  0  0  0  0  0  0  0  0  0  0
  124.7999  109.1391  -42.3532 H   0  0  0  0  0  0  0  0  0  0  0  0
  125.1607  104.2979  -40.2049 H   0  0  0  0  0  0  0  0  0  0  0  0
  125.0007  106.6671  -39.8402 H   0  0  0  0  0  0  0  0  0  0  0  0
  123.6608  103.8307  -47.6920 H   0  0  0  0  0  0  0  0  0  0  0  0
  123.7863  105.6478  -46.1406 H   0  0  0  0  0  0  0  0  0  0  0  0
  124.5889  101.1118  -44.6859 H   0  0  0  0  0  0  0  0  0  0  0  0
  124.0896  107.2752  -43.8519 H   0  0  0  0  0  0  0  0  0  0  0  0
  1  2  1  0  0  0  0
  1  7  1  0  0  0  0
  2  9  2  0  0  0  0
  3  5  1  0  0  0  0
  3 10  1  0  0  0  0
  4  8  1  0  0  0  0
  4 17  1  0  0  0  0
  4 18  1  0  0  0  0
  6  8  1  0  0  0  0
  7 20  2  0  0  0  0
  9 20  1  0  0  0  0
 10 19  1  0  0  0  0
 11 12  1  0  0  0  0
 11 17  2  0  0  0  0
 12 19  2  0  0  0  0
 13 14  1  0  0  0  0
 13 21  2  0  0  0  0
 14 22  2  0  0  0  0
 15 18  2  0  0  0  0
 15 21  1  0  0  0  0
 16 19  1  0  0  0  0
 16 23  2  0  0  0  0
 17 23  1  0  0  0  0
 18 22  1  0  0  0  0
 20 21  1  0  0  0  0
 22 23  1  0  0  0  0
  3 24  1  0  0  0  0
  5 25  1  0  0  0  0
  5 26  1  0  0  0  0
  5 27  1  0  0  0  0
  6 28  1  0  0  0  0
  6 29  1  0  0  0  0
  6 30  1  0  0  0  0
  7 31  1  0  0  0  0
  8 32  1  0  0  0  0
  8 33  1  0  0  0  0
  9 34  1  0  0  0  0
 10 35  1  0  0  0  0
 10 36  1  0  0  0  0
 11 37  1  0  0  0  0
 12 38  1  0  0  0  0
 13 39  1  0  0  0  0
 14 40  1  0  0  0  0
 15 41  1  0  0  0  0
 16 42  1  0  0  0  0
M  END
> <pdb_id>
6GGD

> <uniprot_id>
P04637

> <usmiles>
O1N=CC(c2cc3N(c4c(c3cc2)cc(cc4)CNC)CC)=C1

$$$$
EYN_A_1102
          07202405093D 1   1.00000     0.00000     0
            
 59 62  0  0  0  0            999 V2000
  -30.1702    4.6955    7.7287 F   0  0  0  0  0  0  0  0  0  0  0  0
  -30.5504    8.4875    0.8013 O   0  0  0  0  0  0  0  0  0  0  0  0
  -26.7886   -2.6485    0.5554 O   0  0  0  0  0  0  0  0  0  0  0  0
  -27.4914    4.5371    0.5631 O   0  0  0  0  0  0  0  0  0  0  0  0
  -25.7053   -0.7762    3.3995 O   0  0  0  0  0  0  0  0  0  0  0  0
  -27.4387    7.1329    4.7958 O   0  0  0  0  0  0  0  0  0  0  0  0
  -29.4519    6.5904    0.1359 N   0  0  0  0  0  0  0  0  0  0  0  0
  -26.9950   -0.4026    0.9219 N   0  0  0  0  0  0  0  0  0  0  0  0
  -28.0165    5.3310    2.6649 N   0  0  0  0  0  0  0  0  0  0  0  0
  -30.2533    6.4450   -1.0601 C   0  0  0  0  0  0  0  0  0  0  0  0
  -29.2404    1.3162    6.8881 C   0  0  0  0  0  0  0  0  0  0  0  0
  -31.3934    0.3852    6.2134 C   0  0  0  0  0  0  0  0  0  0  0  0
  -26.4835   -1.8426    2.8067 C   0  0  0  0  0  0  0  0  0  0  0  0
  -26.7807    7.1768    3.5116 C   0  0  0  0  0  0  0  0  0  0  0  0
  -26.0335    1.5524    3.8915 C   0  0  0  0  0  0  0  0  0  0  0  0
  -26.4800    2.8049    3.4896 C   0  0  0  0  0  0  0  0  0  0  0  0
  -28.7916    5.8611    6.2465 C   0  0  0  0  0  0  0  0  0  0  0  0
  -28.8786    7.6645    2.2468 C   0  0  0  0  0  0  0  0  0  0  0  0
  -27.3136    1.9191    1.4214 C   0  0  0  0  0  0  0  0  0  0  0  0
  -30.9218    2.7773    5.7799 C   0  0  0  0  0  0  0  0  0  0  0  0
  -29.4226    4.0597    4.2251 C   0  0  0  0  0  0  0  0  0  0  0  0
  -29.7022    7.6309    0.9931 C   0  0  0  0  0  0  0  0  0  0  0  0
  -26.7360   -1.6929    1.3224 C   0  0  0  0  0  0  0  0  0  0  0  0
  -27.5809    4.3396    1.7816 C   0  0  0  0  0  0  0  0  0  0  0  0
  -29.6380    4.8022    6.4922 C   0  0  0  0  0  0  0  0  0  0  0  0
  -26.2055    0.4837    3.0249 C   0  0  0  0  0  0  0  0  0  0  0  0
  -28.2738    6.0231    4.9761 C   0  0  0  0  0  0  0  0  0  0  0  0
  -26.8426    0.6791    1.8146 C   0  0  0  0  0  0  0  0  0  0  0  0
  -30.3101    1.3933    5.8527 C   0  0  0  0  0  0  0  0  0  0  0  0
  -27.6769    6.7256    2.3589 C   0  0  2  0  0  0  0  0  0  0  0  0
  -28.5598    5.1130    3.9640 C   0  0  0  0  0  0  0  0  0  0  0  0
  -27.1322    2.9955    2.2791 C   0  0  0  0  0  0  0  0  0  0  0  0
  -29.9584    3.8937    5.4900 C   0  0  0  0  0  0  0  0  0  0  0  0
  -28.7215    5.9372    0.3357 H   0  0  0  0  0  0  0  0  0  0  0  0
  -27.2958   -0.2288   -0.0158 H   0  0  0  0  0  0  0  0  0  0  0  0
  -29.9453    5.6433   -1.5724 H   0  0  0  0  0  0  0  0  0  0  0  0
  -31.2136    6.3295   -0.8060 H   0  0  0  0  0  0  0  0  0  0  0  0
  -30.1549    7.2618   -1.6286 H   0  0  0  0  0  0  0  0  0  0  0  0
  -28.5174    1.9717    6.6699 H   0  0  0  0  0  0  0  0  0  0  0  0
  -29.6277    1.5331    7.7842 H   0  0  0  0  0  0  0  0  0  0  0  0
  -28.8586    0.3921    6.9048 H   0  0  0  0  0  0  0  0  0  0  0  0
  -32.1225    0.4206    5.5299 H   0  0  0  0  0  0  0  0  0  0  0  0
  -30.9999   -0.5339    6.2338 H   0  0  0  0  0  0  0  0  0  0  0  0
  -31.7690    0.6071    7.1132 H   0  0  0  0  0  0  0  0  0  0  0  0
  -27.3685   -1.8773    3.2710 H   0  0  0  0  0  0  0  0  0  0  0  0
  -25.9957   -2.7030    2.9542 H   0  0  0  0  0  0  0  0  0  0  0  0
  -25.9800    6.5787    3.5443 H   0  0  0  0  0  0  0  0  0  0  0  0
  -26.4877    8.1168    3.3368 H   0  0  0  0  0  0  0  0  0  0  0  0
  -25.5991    1.4248    4.7831 H   0  0  0  0  0  0  0  0  0  0  0  0
  -26.3275    3.5908    4.0888 H   0  0  0  0  0  0  0  0  0  0  0  0
  -28.5557    6.5025    6.9765 H   0  0  0  0  0  0  0  0  0  0  0  0
  -29.4914    7.4510    3.0077 H   0  0  0  0  0  0  0  0  0  0  0  0
  -28.5340    8.5977    2.3481 H   0  0  0  0  0  0  0  0  0  0  0  0
  -27.7732    2.0370    0.5412 H   0  0  0  0  0  0  0  0  0  0  0  0
  -31.3593    2.9678    6.6587 H   0  0  0  0  0  0  0  0  0  0  0  0
  -31.6133    2.7713    5.0576 H   0  0  0  0  0  0  0  0  0  0  0  0
  -29.6588    3.4171    3.4961 H   0  0  0  0  0  0  0  0  0  0  0  0
  -29.9235    1.1567    4.9613 H   0  0  0  0  0  0  0  0  0  0  0  0
  -27.1554    6.7568    1.5062 H   0  0  0  0  0  0  0  0  0  0  0  0
  1 25  1  0  0  0  0
  2 22  2  0  0  0  0
  3 23  2  0  0  0  0
  4 24  2  0  0  0  0
  5 13  1  0  0  0  0
  5 26  1  0  0  0  0
  6 14  1  0  0  0  0
  6 27  1  0  0  0  0
  7 10  1  0  0  0  0
  7 22  1  0  0  0  0
  8 23  1  0  0  0  0
  8 28  1  0  0  0  0
  9 24  1  0  0  0  0
  9 30  1  0  0  0  0
  9 31  1  0  0  0  0
 11 29  1  0  0  0  0
 12 29  1  0  0  0  0
 13 23  1  0  0  0  0
 14 30  1  0  0  0  0
 15 16  1  0  0  0  0
 15 26  2  0  0  0  0
 16 32  2  0  0  0  0
 17 25  1  0  0  0  0
 17 27  2  0  0  0  0
 18 22  1  0  0  0  0
 18 30  1  0  0  0  0
 19 28  2  0  0  0  0
 19 32  1  0  0  0  0
 20 29  1  0  0  0  0
 20 33  1  0  0  0  0
 21 31  2  0  0  0  0
 21 33  1  0  0  0  0
 24 32  1  0  0  0  0
 25 33  2  0  0  0  0
 26 28  1  0  0  0  0
 27 31  1  0  0  0  0
  7 34  1  0  0  0  0
  8 35  1  0  0  0  0
 10 36  1  0  0  0  0
 10 37  1  0  0  0  0
 10 38  1  0  0  0  0
 11 39  1  0  0  0  0
 11 40  1  0  0  0  0
 11 41  1  0  0  0  0
 12 42  1  0  0  0  0
 12 43  1  0  0  0  0
 12 44  1  0  0  0  0
 13 45  1  0  0  0  0
 13 46  1  0  0  0  0
 14 47  1  0  0  0  0
 14 48  1  0  0  0  0
 15 49  1  0  0  0  0
 16 50  1  0  0  0  0
 17 51  1  0  0  0  0
 18 52  1  0  0  0  0
 18 53  1  0  0  0  0
 19 54  1  0  0  0  0
 20 55  1  0  0  0  0
 20 56  1  0  0  0  0
 21 57  1  0  0  0  0
 29 58  1  0  0  0  0
 30 59  1  0  0  0  0
M  END
> <pdb_id>
6GGG

> <uniprot_id>
P08235

> <usmiles>
Fc1c(cc2N(C(=O)c3cc4NC(=O)COc4cc3)[C@H](COc2c1)CC(=O)NC)CC(C)C

$$$$
EZB_A_501
          07202411143D 1   1.00000     0.00000     0
            
 35 38  0  0  0  0            999 V2000
    7.5403   29.8411   15.9634 O   0  0  0  0  0  0  0  0  0  0  0  0
    5.8514   27.7687   12.9091 N   0  0  0  0  0  0  0  0  0  0  0  0
    6.3495   24.0308   21.0881 N   0  0  0  0  0  0  0  0  0  0  0  0
    6.7189   29.8617   13.8889 N   0  0  0  0  0  0  0  0  0  0  0  0
    7.6789   27.6611   17.5762 C   0  0  0  0  0  0  0  0  0  0  0  0
    6.1303   29.1700   12.7972 C   0  0  0  0  0  0  0  0  0  0  0  0
    5.5226   25.0250   21.4558 C   0  0  0  0  0  0  0  0  0  0  0  0
    5.1373   25.9889   20.5223 C   0  0  0  0  0  0  0  0  0  0  0  0
    8.1949   22.7229   18.1994 C   0  0  0  0  0  0  0  0  0  0  0  0
    7.6882   22.8495   19.4845 C   0  0  0  0  0  0  0  0  0  0  0  0
    5.8704   25.6796   14.1921 C   0  0  0  0  0  0  0  0  0  0  0  0
    5.6023   25.9177   19.2109 C   0  0  0  0  0  0  0  0  0  0  0  0
    7.8420   23.6552   17.2226 C   0  0  0  0  0  0  0  0  0  0  0  0
    6.1576   24.9601   15.3382 C   0  0  0  0  0  0  0  0  0  0  0  0
    7.0345   29.1902   15.0727 C   0  0  0  0  0  0  0  0  0  0  0  0
    6.8263   23.9371   19.7969 C   0  0  0  0  0  0  0  0  0  0  0  0
    6.1713   27.0630   14.1362 C   0  0  0  0  0  0  0  0  0  0  0  0
    7.0411   26.9563   16.3918 C   0  0  0  0  0  0  0  0  0  0  0  0
    6.4784   24.8558   18.8420 C   0  0  0  0  0  0  0  0  0  0  0  0
    6.7224   25.5835   16.4477 C   0  0  0  0  0  0  0  0  0  0  0  0
    6.9974   24.7265   17.5165 C   0  0  0  0  0  0  0  0  0  0  0  0
    6.7435   27.7051   15.2025 C   0  0  0  0  0  0  0  0  0  0  0  0
    6.8929   30.7540   13.8164 H   0  0  0  0  0  0  0  0  0  0  0  0
    8.4188   28.2214   17.2635 H   0  0  0  0  0  0  0  0  0  0  0  0
    8.0193   26.9949   18.2090 H   0  0  0  0  0  0  0  0  0  0  0  0
    7.0090   28.2223   18.0211 H   0  0  0  0  0  0  0  0  0  0  0  0
    5.9156   29.6483   11.9737 H   0  0  0  0  0  0  0  0  0  0  0  0
    5.1915   25.0722   22.3719 H   0  0  0  0  0  0  0  0  0  0  0  0
    4.5428   26.7135   20.7883 H   0  0  0  0  0  0  0  0  0  0  0  0
    8.7964   21.9866   17.9798 H   0  0  0  0  0  0  0  0  0  0  0  0
    7.9209   22.1952   20.1703 H   0  0  0  0  0  0  0  0  0  0  0  0
    5.4617   25.2363   13.4254 H   0  0  0  0  0  0  0  0  0  0  0  0
    5.3317   26.5846   18.5543 H   0  0  0  0  0  0  0  0  0  0  0  0
    8.1924   23.5560   16.3158 H   0  0  0  0  0  0  0  0  0  0  0  0
    5.9629   24.0047   15.3689 H   0  0  0  0  0  0  0  0  0  0  0  0
  1 15  2  0  0  0  0
  2  6  2  0  0  0  0
  2 17  1  0  0  0  0
  3  7  2  0  0  0  0
  3 16  1  0  0  0  0
  4  6  1  0  0  0  0
  4 15  1  0  0  0  0
  4 23  1  0  0  0  0
  5 18  1  0  0  0  0
  5 24  1  0  0  0  0
  5 25  1  0  0  0  0
  5 26  1  0  0  0  0
  6 27  1  0  0  0  0
  7  8  1  0  0  0  0
  7 28  1  0  0  0  0
  8 12  2  0  0  0  0
  8 29  1  0  0  0  0
  9 10  2  0  0  0  0
  9 13  1  0  0  0  0
  9 30  1  0  0  0  0
 10 16  1  0  0  0  0
 10 31  1  0  0  0  0
 11 14  1  0  0  0  0
 11 17  2  0  0  0  0
 11 32  1  0  0  0  0
 12 19  1  0  0  0  0
 12 33  1  0  0  0  0
 13 21  2  0  0  0  0
 13 34  1  0  0  0  0
 14 20  2  0  0  0  0
 14 35  1  0  0  0  0
 15 22  1  0  0  0  0
 16 19  2  0  0  0  0
 17 22  1  0  0  0  0
 18 20  1  0  0  0  0
 18 22  2  0  0  0  0
 19 21  1  0  0  0  0
 20 21  1  0  0  0  0
M  END
> <pdb_id>
6GI6

> <uniprot_id>
Q04771

> <usmiles>
O=C1NC=Nc2c1c(c(c3c4c(nccc4)ccc3)cc2)C

$$$$
EZN_A_403
          07202410283D 1   1.00000     0.00000     0
            
 31 33  0  0  0  0            999 V2000
 -131.8500 -187.4610  310.4190 Cl  0  0  0  0  0  0  0  0  0  0  0  0
 -137.0570 -186.0710  309.8350 N   0  0  0  0  0  0  0  0  0  0  0  0
 -131.6530 -190.5420  303.8320 N   0  0  0  0  0  0  0  0  0  0  0  0
 -136.3890 -185.6270  308.6370 C   0  0  0  0  0  0  0  0  0  0  0  0
 -131.6120 -191.0050  305.1240 C   0  0  0  0  0  0  0  0  0  0  0  0
 -133.1100 -187.2200  303.0390 C   0  0  0  0  0  0  0  0  0  0  0  0
 -132.5260 -188.4460  302.7550 C   0  0  0  0  0  0  0  0  0  0  0  0
 -132.1810 -190.1020  305.9600 C   0  0  0  0  0  0  0  0  0  0  0  0
 -133.4290 -186.8740  304.3460 C   0  0  0  0  0  0  0  0  0  0  0  0
 -134.1610 -186.5110  309.4000 C   0  0  0  0  0  0  0  0  0  0  0  0
 -132.6510 -187.5730  307.8500 C   0  0  0  0  0  0  0  0  0  0  0  0
 -134.7660 -186.7300  307.0890 C   0  0  0  0  0  0  0  0  0  0  0  0
 -132.9690 -187.1500  309.1220 C   0  0  0  0  0  0  0  0  0  0  0  0
 -135.0800 -186.3020  308.3740 C   0  0  0  0  0  0  0  0  0  0  0  0
 -132.2640 -189.3120  303.8140 C   0  0  0  0  0  0  0  0  0  0  0  0
 -133.5490 -187.3570  306.8040 C   0  0  0  0  0  0  0  0  0  0  0  0
 -132.5990 -188.9980  305.1440 C   0  0  0  0  0  0  0  0  0  0  0  0
 -133.1870 -187.7490  305.4120 C   0  0  0  0  0  0  0  0  0  0  0  0
 -137.9192 -185.5752  309.9391 H   0  0  0  0  0  0  0  0  0  0  0  0
 -137.2421 -187.0515  309.7695 H   0  0  0  0  0  0  0  0  0  0  0  0
 -131.2952 -191.0234  303.0319 H   0  0  0  0  0  0  0  0  0  0  0  0
 -136.2237 -184.6440  308.7169 H   0  0  0  0  0  0  0  0  0  0  0  0
 -136.9928 -185.8013  307.8592 H   0  0  0  0  0  0  0  0  0  0  0  0
 -131.2198 -191.8803  305.4070 H   0  0  0  0  0  0  0  0  0  0  0  0
 -133.3031 -186.5794  302.2958 H   0  0  0  0  0  0  0  0  0  0  0  0
 -132.2992 -188.7011  301.8151 H   0  0  0  0  0  0  0  0  0  0  0  0
 -132.2883 -190.1883  306.9505 H   0  0  0  0  0  0  0  0  0  0  0  0
 -133.8402 -185.9811  304.5294 H   0  0  0  0  0  0  0  0  0  0  0  0
 -134.3628 -186.2011  310.3291 H   0  0  0  0  0  0  0  0  0  0  0  0
 -131.7801 -188.0330  307.6770 H   0  0  0  0  0  0  0  0  0  0  0  0
 -135.4258 -186.5861  306.3514 H   0  0  0  0  0  0  0  0  0  0  0  0
  1 13  1  0  0  0  0
  2  4  1  0  0  0  0
  3  5  1  0  0  0  0
  3 15  1  0  0  0  0
  4 14  1  0  0  0  0
  5  8  2  0  0  0  0
  6  7  2  0  0  0  0
  6  9  1  0  0  0  0
  7 15  1  0  0  0  0
  8 17  1  0  0  0  0
  9 18  2  0  0  0  0
 10 13  2  0  0  0  0
 10 14  1  0  0  0  0
 11 13  1  0  0  0  0
 11 16  2  0  0  0  0
 12 14  2  0  0  0  0
 12 16  1  0  0  0  0
 15 17  2  0  0  0  0
 16 18  1  0  0  0  0
 17 18  1  0  0  0  0
  2 19  1  0  0  0  0
  2 20  1  0  0  0  0
  3 21  1  0  0  0  0
  4 22  1  0  0  0  0
  4 23  1  0  0  0  0
  5 24  1  0  0  0  0
  6 25  1  0  0  0  0
  7 26  1  0  0  0  0
  8 27  1  0  0  0  0
  9 28  1  0  0  0  0
 10 29  1  0  0  0  0
 11 30  1  0  0  0  0
 12 31  1  0  0  0  0
M  END
> <pdb_id>
6GIH

> <uniprot_id>
P68400

> <usmiles>
Clc1cc(c2c3c(NC=C3)ccc2)cc(c1)CN

$$$$
EZO_A_403
          07212403373D 1   1.00000     0.00000     0
            
 39 41  0  0  0  0            999 V2000
   30.4751   -8.1327  -23.6767 Cl  0  0  0  0  0  0  0  0  0  0  0  0
   31.9772  -12.2188  -20.8387 S   0  0  0  0  0  0  0  0  0  0  0  0
   34.5512  -15.6519  -26.0579 O   0  0  0  0  0  0  0  0  0  0  0  0
   34.0864  -17.8070  -26.0597 O   0  0  0  0  0  0  0  0  0  0  0  0
   33.5741  -13.6086  -22.8167 N   0  0  0  0  0  0  0  0  0  0  0  0
   32.3715  -10.2927  -22.4692 N   0  0  0  0  0  0  0  0  0  0  0  0
   33.1272  -12.3883  -23.2680 N   0  0  0  0  0  0  0  0  0  0  0  0
   33.7100  -11.8129  -24.5032 C   0  0  0  0  0  0  0  0  0  0  0  0
   31.5320  -10.6305  -20.3981 C   0  0  0  0  0  0  0  0  0  0  0  0
   34.1782  -14.4081  -23.5499 C   0  0  0  0  0  0  0  0  0  0  0  0
   31.6272   -5.4822  -20.9383 C   0  0  0  0  0  0  0  0  0  0  0  0
   35.3149  -17.0961  -21.2182 C   0  0  0  0  0  0  0  0  0  0  0  0
   32.1453   -6.3002  -19.9368 C   0  0  0  0  0  0  0  0  0  0  0  0
   35.4133  -18.1847  -22.0707 C   0  0  0  0  0  0  0  0  0  0  0  0
   31.1071   -6.0255  -22.0959 C   0  0  0  0  0  0  0  0  0  0  0  0
   34.9294  -15.8929  -21.7315 C   0  0  0  0  0  0  0  0  0  0  0  0
   32.2135   -7.6611  -20.0887 C   0  0  0  0  0  0  0  0  0  0  0  0
   35.1170  -18.0268  -23.4204 C   0  0  0  0  0  0  0  0  0  0  0  0
   32.5025  -11.6145  -22.3428 C   0  0  0  0  0  0  0  0  0  0  0  0
   34.4423  -16.7224  -25.4156 C   0  0  0  0  0  0  0  0  0  0  0  0
   31.1606   -7.4148  -22.2280 C   0  0  0  0  0  0  0  0  0  0  0  0
   31.7978   -9.6983  -21.3779 C   0  0  0  0  0  0  0  0  0  0  0  0
   34.6074  -15.7327  -23.0822 C   0  0  0  0  0  0  0  0  0  0  0  0
   31.6585   -8.2318  -21.2545 C   0  0  0  0  0  0  0  0  0  0  0  0
   34.7338  -16.7979  -23.9445 C   0  0  0  0  0  0  0  0  0  0  0  0
   34.8215  -14.8118  -25.5875 H   0  0  0  0  0  0  0  0  0  0  0  0
   33.2813  -10.9298  -24.6940 H   0  0  0  0  0  0  0  0  0  0  0  0
   34.6942  -11.6859  -24.3796 H   0  0  0  0  0  0  0  0  0  0  0  0
   33.5478  -12.4347  -25.2693 H   0  0  0  0  0  0  0  0  0  0  0  0
   31.1195  -10.3996  -19.5169 H   0  0  0  0  0  0  0  0  0  0  0  0
   34.3798  -14.1407  -24.4922 H   0  0  0  0  0  0  0  0  0  0  0  0
   31.6322   -4.4895  -20.8172 H   0  0  0  0  0  0  0  0  0  0  0  0
   35.5228  -17.1913  -20.2447 H   0  0  0  0  0  0  0  0  0  0  0  0
   32.4747   -5.8858  -19.0884 H   0  0  0  0  0  0  0  0  0  0  0  0
   35.6953  -19.0769  -21.7180 H   0  0  0  0  0  0  0  0  0  0  0  0
   30.7090   -5.4490  -22.8093 H   0  0  0  0  0  0  0  0  0  0  0  0
   34.8755  -15.1012  -21.1231 H   0  0  0  0  0  0  0  0  0  0  0  0
   32.6451   -8.2342  -19.3921 H   0  0  0  0  0  0  0  0  0  0  0  0
   35.1812  -18.8176  -24.0291 H   0  0  0  0  0  0  0  0  0  0  0  0
  1 21  1  0  0  0  0
  2  9  1  0  0  0  0
  2 19  1  0  0  0  0
  3 20  1  0  0  0  0
  4 20  2  0  0  0  0
  5  7  1  0  0  0  0
  5 10  2  0  0  0  0
  6 19  2  0  0  0  0
  6 22  1  0  0  0  0
  7  8  1  0  0  0  0
  7 19  1  0  0  0  0
  9 22  2  0  0  0  0
 10 23  1  0  0  0  0
 11 13  2  0  0  0  0
 11 15  1  0  0  0  0
 12 14  2  0  0  0  0
 12 16  1  0  0  0  0
 13 17  1  0  0  0  0
 14 18  1  0  0  0  0
 15 21  2  0  0  0  0
 16 23  2  0  0  0  0
 17 24  2  0  0  0  0
 18 25  2  0  0  0  0
 20 25  1  0  0  0  0
 21 24  1  0  0  0  0
 22 24  1  0  0  0  0
 23 25  1  0  0  0  0
  3 26  1  0  0  0  0
  8 27  1  0  0  0  0
  8 28  1  0  0  0  0
  8 29  1  0  0  0  0
  9 30  1  0  0  0  0
 10 31  1  0  0  0  0
 11 32  1  0  0  0  0
 12 33  1  0  0  0  0
 13 34  1  0  0  0  0
 14 35  1  0  0  0  0
 15 36  1  0  0  0  0
 16 37  1  0  0  0  0
 17 38  1  0  0  0  0
 18 39  1  0  0  0  0
M  END
> <pdb_id>
6M2B

> <uniprot_id>
Q02127

> <usmiles>
Clc1c(cccc1)C=2N=C(SC2)N(N=Cc3c(cccc3)C(=O)O)C

$$$$
F06_A_403
          07192415303D 1   1.00000     0.00000     0
            
 21 21  0  0  0  0            999 V2000
    3.1809   11.0928    9.3741 Cl  0  0  0  0  0  0  0  0  0  0  0  0
    1.4115    8.1370   10.4295 S   0  0  0  0  0  0  0  0  0  0  0  0
    1.9404    5.8054   11.5310 N   0  0  0  0  0  0  0  0  0  0  0  0
    2.4339    5.9211    9.2951 N   0  0  0  0  0  0  0  0  0  0  0  0
    1.4869    8.6175    8.6753 C   0  0  0  0  0  0  0  0  0  0  0  0
   -0.4780   12.4523    8.6497 C   0  0  0  0  0  0  0  0  0  0  0  0
   -1.1671   11.3137    8.3091 C   0  0  0  0  0  0  0  0  0  0  0  0
    0.8615   12.3801    8.9789 C   0  0  0  0  0  0  0  0  0  0  0  0
   -0.5288   10.0848    8.3048 C   0  0  0  0  0  0  0  0  0  0  0  0
    1.9666    6.4724   10.4254 C   0  0  0  0  0  0  0  0  0  0  0  0
    1.4937   11.1452    8.9687 C   0  0  0  0  0  0  0  0  0  0  0  0
    0.8227    9.9785    8.6429 C   0  0  0  0  0  0  0  0  0  0  0  0
    2.2525    4.8555   11.5495 H   0  0  0  0  0  0  0  0  0  0  0  0
    1.6081    6.2389   12.3687 H   0  0  0  0  0  0  0  0  0  0  0  0
    2.7497    4.9722    9.2950 H   0  0  0  0  0  0  0  0  0  0  0  0
    0.9882    7.9643    8.1055 H   0  0  0  0  0  0  0  0  0  0  0  0
    2.4350    8.6765    8.3628 H   0  0  0  0  0  0  0  0  0  0  0  0
   -0.9472   13.3354    8.6593 H   0  0  0  0  0  0  0  0  0  0  0  0
   -2.1346   11.3726    8.0631 H   0  0  0  0  0  0  0  0  0  0  0  0
    1.3688   13.2069    9.2215 H   0  0  0  0  0  0  0  0  0  0  0  0
   -1.0417    9.2630    8.0566 H   0  0  0  0  0  0  0  0  0  0  0  0
  1 11  1  0  0  0  0
  2  5  1  0  0  0  0
  2 10  1  0  0  0  0
  3 10  1  0  0  0  0
  4 10  2  0  0  0  0
  5 12  1  0  0  0  0
  6  7  2  0  0  0  0
  6  8  1  0  0  0  0
  7  9  1  0  0  0  0
  8 11  2  0  0  0  0
  9 12  2  0  0  0  0
 11 12  1  0  0  0  0
  3 13  1  0  0  0  0
  3 14  1  0  0  0  0
  4 15  1  0  0  0  0
  5 16  1  0  0  0  0
  5 17  1  0  0  0  0
  6 18  1  0  0  0  0
  7 19  1  0  0  0  0
  8 20  1  0  0  0  0
  9 21  1  0  0  0  0
M  END
> <pdb_id>
4Y3R

> <uniprot_id>
P11838

> <usmiles>
Clc1c(cccc1)CSC(=N)N

$$$$
F13_A_1
          07192423183D 1   1.00000     0.00000     0
            
 31 33  0  0  0  0            999 V2000
  -12.0031   59.6441   11.6099 F   0  0  0  0  0  0  0  0  0  0  0  0
   -9.3328   55.8400   13.5357 O   0  0  0  0  0  0  0  0  0  0  0  0
   -1.4889   53.7660   11.5415 N   0  0  0  0  0  0  0  0  0  0  0  0
   -1.1530   53.3792   12.8382 N   0  0  0  0  0  0  0  0  0  0  0  0
   -2.8675   53.9210   11.5137 N   0  0  0  0  0  0  0  0  0  0  0  0
   -2.3394   53.3046   13.5634 N   0  0  0  0  0  0  0  0  0  0  0  0
   -7.8512   55.3013   11.9273 N   0  0  0  0  0  0  0  0  0  0  0  0
  -10.1646   57.6018    9.1984 C   0  0  0  0  0  0  0  0  0  0  0  0
   -6.5814   52.9981   14.5215 C   0  0  0  0  0  0  0  0  0  0  0  0
  -11.0093   58.5770    9.7242 C   0  0  0  0  0  0  0  0  0  0  0  0
   -7.4710   53.7688   13.7723 C   0  0  0  0  0  0  0  0  0  0  0  0
   -9.4838   56.7435   10.0612 C   0  0  0  0  0  0  0  0  0  0  0  0
   -5.2307   52.9459   14.1942 C   0  0  0  0  0  0  0  0  0  0  0  0
  -10.5219   57.8324   11.9569 C   0  0  0  0  0  0  0  0  0  0  0  0
   -5.6642   54.4781   12.3621 C   0  0  0  0  0  0  0  0  0  0  0  0
  -11.1858   58.6988   11.0945 C   0  0  0  0  0  0  0  0  0  0  0  0
   -8.9327   55.9428   12.3864 C   0  0  0  0  0  0  0  0  0  0  0  0
   -7.0208   54.5252   12.6824 C   0  0  0  0  0  0  0  0  0  0  0  0
   -3.3511   53.6473   12.7393 C   0  0  0  0  0  0  0  0  0  0  0  0
   -9.6694   56.8563   11.4433 C   0  0  0  0  0  0  0  0  0  0  0  0
   -4.7845   53.6892   13.1072 C   0  0  0  0  0  0  0  0  0  0  0  0
   -3.4098   54.1905   10.7179 H   0  0  0  0  0  0  0  0  0  0  0  0
   -7.6352   55.3983   10.9557 H   0  0  0  0  0  0  0  0  0  0  0  0
  -10.0474   57.5178    8.2089 H   0  0  0  0  0  0  0  0  0  0  0  0
   -6.9197   52.4761   15.3045 H   0  0  0  0  0  0  0  0  0  0  0  0
  -11.4939   59.1964    9.1065 H   0  0  0  0  0  0  0  0  0  0  0  0
   -8.4407   53.7815   14.0161 H   0  0  0  0  0  0  0  0  0  0  0  0
   -8.8648   56.0496    9.6932 H   0  0  0  0  0  0  0  0  0  0  0  0
   -4.5958   52.3871   14.7277 H   0  0  0  0  0  0  0  0  0  0  0  0
  -10.6560   57.9098   12.9449 H   0  0  0  0  0  0  0  0  0  0  0  0
   -5.3181   55.0139   11.5920 H   0  0  0  0  0  0  0  0  0  0  0  0
  1 16  1  0  0  0  0
  2 17  2  0  0  0  0
  3  4  2  0  0  0  0
  3  5  1  0  0  0  0
  4  6  1  0  0  0  0
  5 19  1  0  0  0  0
  6 19  2  0  0  0  0
  7 17  1  0  0  0  0
  7 18  1  0  0  0  0
  8 10  2  0  0  0  0
  8 12  1  0  0  0  0
  9 11  1  0  0  0  0
  9 13  2  0  0  0  0
 10 16  1  0  0  0  0
 11 18  2  0  0  0  0
 12 20  2  0  0  0  0
 13 21  1  0  0  0  0
 14 16  2  0  0  0  0
 14 20  1  0  0  0  0
 15 18  1  0  0  0  0
 15 21  2  0  0  0  0
 17 20  1  0  0  0  0
 19 21  1  0  0  0  0
  5 22  1  0  0  0  0
  7 23  1  0  0  0  0
  8 24  1  0  0  0  0
  9 25  1  0  0  0  0
 10 26  1  0  0  0  0
 11 27  1  0  0  0  0
 12 28  1  0  0  0  0
 13 29  1  0  0  0  0
 14 30  1  0  0  0  0
 15 31  1  0  0  0  0
M  END
> <pdb_id>
3G35

> <uniprot_id>
Q9L5C8

> <usmiles>
Fc1cc(ccc1)C(=O)Nc2cc(ccc2)C3=NN=NN3

$$$$
F14_A_201
          07212402373D 1   1.00000     0.00000     0
            
 50 53  0  0  0  0            999 V2000
   27.6875  -11.0085   29.4056 O   0  0  0  0  0  0  0  0  0  0  0  0
   28.9020  -12.8840   35.9033 O   0  0  0  0  0  0  0  0  0  0  0  0
   23.9496  -10.6544   34.8672 O   0  0  0  0  0  0  0  0  0  0  0  0
   26.4525   -8.8066   30.6791 N   0  0  0  0  0  0  0  0  0  0  0  0
   27.4869   -7.6171   32.3657 N   0  0  0  0  0  0  0  0  0  0  0  0
   29.4798   -8.9797   32.4357 N   0  0  0  0  0  0  0  0  0  0  0  0
   25.2766   -6.9887   31.6440 N   0  0  0  0  0  0  0  0  0  0  0  0
   27.6864   -9.3374   30.9747 N   0  0  0  0  0  0  0  0  0  0  0  0
   29.0322  -13.9406   36.8599 C   0  0  0  0  0  0  0  0  0  0  0  0
   31.4432  -10.4337   32.5477 C   0  0  0  0  0  0  0  0  0  0  0  0
   22.9350   -6.3030   31.5563 C   0  0  0  0  0  0  0  0  0  0  0  0
   22.3613  -10.8559   31.5456 C   0  0  0  0  0  0  0  0  0  0  0  0
   22.7311  -11.2132   32.8374 C   0  0  0  0  0  0  0  0  0  0  0  0
   26.5217  -12.7385   36.4014 C   0  0  0  0  0  0  0  0  0  0  0  0
   27.5585  -11.4297   34.6631 C   0  0  0  0  0  0  0  0  0  0  0  0
   25.2937  -12.1735   36.1007 C   0  0  0  0  0  0  0  0  0  0  0  0
   26.3295  -10.8598   34.3646 C   0  0  0  0  0  0  0  0  0  0  0  0
   22.7601   -9.6315   31.0090 C   0  0  0  0  0  0  0  0  0  0  0  0
   29.5559  -10.7842   30.9008 C   0  0  0  0  0  0  0  0  0  0  0  0
   23.9269   -9.1251   33.0414 C   0  0  0  0  0  0  0  0  0  0  0  0
   26.4159   -7.8011   31.5392 C   0  0  0  0  0  0  0  0  0  0  0  0
   28.2565   -8.6126   31.9711 C   0  0  0  0  0  0  0  0  0  0  0  0
   28.2668  -10.4553   30.3448 C   0  0  0  0  0  0  0  0  0  0  0  0
   27.6534  -12.3563   35.6893 C   0  0  0  0  0  0  0  0  0  0  0  0
   25.2004  -11.2313   35.0890 C   0  0  0  0  0  0  0  0  0  0  0  0
   23.5282  -10.3443   33.5711 C   0  0  0  0  0  0  0  0  0  0  0  0
   30.1307  -10.0759   31.9158 C   0  0  0  0  0  0  0  0  0  0  0  0
   23.9384   -7.3970   31.1973 C   0  0  2  0  0  0  0  0  0  0  0  0
   23.5348   -8.7521   31.7565 C   0  0  0  0  0  0  0  0  0  0  0  0
   29.9121   -8.4475   33.1636 H   0  0  0  0  0  0  0  0  0  0  0  0
   25.3819   -6.0791   32.0461 H   0  0  0  0  0  0  0  0  0  0  0  0
   29.9890  -14.2261   36.9130 H   0  0  0  0  0  0  0  0  0  0  0  0
   28.7305  -13.6172   37.7568 H   0  0  0  0  0  0  0  0  0  0  0  0
   28.4679  -14.7166   36.5782 H   0  0  0  0  0  0  0  0  0  0  0  0
   31.8231  -11.2396   32.0937 H   0  0  0  0  0  0  0  0  0  0  0  0
   32.0786   -9.6673   32.4531 H   0  0  0  0  0  0  0  0  0  0  0  0
   31.3030  -10.6326   33.5177 H   0  0  0  0  0  0  0  0  0  0  0  0
   22.0217   -6.5762   31.2542 H   0  0  0  0  0  0  0  0  0  0  0  0
   22.9313   -6.1661   32.5469 H   0  0  0  0  0  0  0  0  0  0  0  0
   23.1949   -5.4504   31.1030 H   0  0  0  0  0  0  0  0  0  0  0  0
   21.8056  -11.4809   30.9974 H   0  0  0  0  0  0  0  0  0  0  0  0
   22.4283  -12.0810   33.2314 H   0  0  0  0  0  0  0  0  0  0  0  0
   26.5945  -13.4202   37.1293 H   0  0  0  0  0  0  0  0  0  0  0  0
   28.3717  -11.1734   34.1406 H   0  0  0  0  0  0  0  0  0  0  0  0
   24.4778  -12.4442   36.6116 H   0  0  0  0  0  0  0  0  0  0  0  0
   26.2549  -10.1841   33.6312 H   0  0  0  0  0  0  0  0  0  0  0  0
   22.4865   -9.3845   30.0794 H   0  0  0  0  0  0  0  0  0  0  0  0
   30.0514  -11.5675   30.5254 H   0  0  0  0  0  0  0  0  0  0  0  0
   24.4988   -8.5104   33.5845 H   0  0  0  0  0  0  0  0  0  0  0  0
   23.9608   -7.4739   30.2005 H   0  0  0  0  0  0  0  0  0  0  0  0
  1 23  2  0  0  0  0
  2  9  1  0  0  0  0
  2 24  1  0  0  0  0
  3 25  1  0  0  0  0
  3 26  1  0  0  0  0
  4  8  1  0  0  0  0
  4 21  2  0  0  0  0
  5 21  1  0  0  0  0
  5 22  2  0  0  0  0
  6 22  1  0  0  0  0
  6 27  1  0  0  0  0
  7 21  1  0  0  0  0
  7 28  1  0  0  0  0
  8 22  1  0  0  0  0
  8 23  1  0  0  0  0
 10 27  1  0  0  0  0
 11 28  1  0  0  0  0
 12 13  2  0  0  0  0
 12 18  1  0  0  0  0
 13 26  1  0  0  0  0
 14 16  2  0  0  0  0
 14 24  1  0  0  0  0
 15 17  1  0  0  0  0
 15 24  2  0  0  0  0
 16 25  1  0  0  0  0
 17 25  2  0  0  0  0
 18 29  2  0  0  0  0
 19 23  1  0  0  0  0
 19 27  2  0  0  0  0
 20 26  2  0  0  0  0
 20 29  1  0  0  0  0
 28 29  1  0  0  0  0
  6 30  1  0  0  0  0
  7 31  1  0  0  0  0
  9 32  1  0  0  0  0
  9 33  1  0  0  0  0
  9 34  1  0  0  0  0
 10 35  1  0  0  0  0
 10 36  1  0  0  0  0
 10 37  1  0  0  0  0
 11 38  1  0  0  0  0
 11 39  1  0  0  0  0
 11 40  1  0  0  0  0
 12 41  1  0  0  0  0
 13 42  1  0  0  0  0
 14 43  1  0  0  0  0
 15 44  1  0  0  0  0
 16 45  1  0  0  0  0
 17 46  1  0  0  0  0
 18 47  1  0  0  0  0
 19 48  1  0  0  0  0
 20 49  1  0  0  0  0
 28 50  1  0  0  0  0
M  END
> <pdb_id>
6CHO

> <uniprot_id>
P0A6I6

> <usmiles>
O=C1N2N=C(N=C2NC(=C1)C)N[C@@H](c3cc(Oc4ccc(OC)cc4)ccc3)C

$$$$
F1D_A_201
          07212402373D 1   1.00000     0.00000     0
            
 58 61  0  0  0  0            999 V2000
   29.1391  -11.8890   35.7735 O   0  0  0  0  0  0  0  0  0  0  0  0
   27.7121  -11.1774   29.6712 O   0  0  0  0  0  0  0  0  0  0  0  0
   27.8714  -12.9835   37.2849 O   0  0  0  0  0  0  0  0  0  0  0  0
   23.7788  -11.3855   33.9172 O   0  0  0  0  0  0  0  0  0  0  0  0
   20.8260   -6.3147   30.5891 N   0  0  0  0  0  0  0  0  0  0  0  0
   26.5409   -8.8764   30.8426 N   0  0  0  0  0  0  0  0  0  0  0  0
   27.6190   -7.6521   32.4529 N   0  0  0  0  0  0  0  0  0  0  0  0
   25.3748   -7.0257   31.9134 N   0  0  0  0  0  0  0  0  0  0  0  0
   29.6308   -8.9906   32.4930 N   0  0  0  0  0  0  0  0  0  0  0  0
   27.7869   -9.3855   31.1008 N   0  0  0  0  0  0  0  0  0  0  0  0
   26.8827  -11.9747   35.5748 N   0  0  0  0  0  0  0  0  0  0  0  0
   29.0662  -13.5388   37.8788 C   0  0  0  0  0  0  0  0  0  0  0  0
   31.5622  -10.4889   32.6191 C   0  0  0  0  0  0  0  0  0  0  0  0
   21.7851   -6.2550   31.1764 C   0  0  0  0  0  0  0  0  0  0  0  0
   26.7786  -11.2168   34.3212 C   0  0  0  0  0  0  0  0  0  0  0  0
   25.5700  -12.3945   36.0971 C   0  0  0  0  0  0  0  0  0  0  0  0
   22.2774  -10.5580   30.6666 C   0  0  0  0  0  0  0  0  0  0  0  0
   23.0492   -6.2168   31.9058 C   0  0  0  0  0  0  0  0  0  0  0  0
   26.0513  -12.0357   33.2466 C   0  0  0  0  0  0  0  0  0  0  0  0
   24.8287  -13.2548   35.0743 C   0  0  0  0  0  0  0  0  0  0  0  0
   22.5714  -11.2864   31.8076 C   0  0  0  0  0  0  0  0  0  0  0  0
   22.7539   -9.2640   30.5146 C   0  0  0  0  0  0  0  0  0  0  0  0
   29.6314  -10.8581   31.0360 C   0  0  0  0  0  0  0  0  0  0  0  0
   23.8194   -9.3999   32.6559 C   0  0  0  0  0  0  0  0  0  0  0  0
   28.0583  -12.2561   36.1763 C   0  0  0  0  0  0  0  0  0  0  0  0
   26.5026   -7.8564   31.6856 C   0  0  0  0  0  0  0  0  0  0  0  0
   28.3405  -10.5426   30.5156 C   0  0  0  0  0  0  0  0  0  0  0  0
   28.3957   -8.6383   32.0488 C   0  0  0  0  0  0  0  0  0  0  0  0
   24.7029  -12.5176   33.7565 C   0  0  0  0  0  0  0  0  0  0  0  0
   23.3609  -10.7037   32.7938 C   0  0  0  0  0  0  0  0  0  0  0  0
   30.2482  -10.1170   31.9970 C   0  0  0  0  0  0  0  0  0  0  0  0
   24.0463   -7.2481   31.3348 C   0  0  2  0  0  0  0  0  0  0  0  0
   23.5243   -8.6684   31.5099 C   0  0  0  0  0  0  0  0  0  0  0  0
   25.4947   -6.2327   32.5107 H   0  0  0  0  0  0  0  0  0  0  0  0
   30.0921   -8.4307   33.1813 H   0  0  0  0  0  0  0  0  0  0  0  0
   28.8208  -14.0609   38.6956 H   0  0  0  0  0  0  0  0  0  0  0  0
   29.5164  -14.1420   37.2204 H   0  0  0  0  0  0  0  0  0  0  0  0
   29.6883  -12.7976   38.1314 H   0  0  0  0  0  0  0  0  0  0  0  0
   31.9150  -11.3168   32.1830 H   0  0  0  0  0  0  0  0  0  0  0  0
   32.2145   -9.7416   32.4923 H   0  0  0  0  0  0  0  0  0  0  0  0
   31.4328  -10.6562   33.5965 H   0  0  0  0  0  0  0  0  0  0  0  0
   27.6976  -10.9930   33.9964 H   0  0  0  0  0  0  0  0  0  0  0  0
   26.2699  -10.3726   34.4900 H   0  0  0  0  0  0  0  0  0  0  0  0
   25.0230  -11.5824   36.3003 H   0  0  0  0  0  0  0  0  0  0  0  0
   25.7045  -12.9239   36.9347 H   0  0  0  0  0  0  0  0  0  0  0  0
   21.7173  -10.9681   29.9468 H   0  0  0  0  0  0  0  0  0  0  0  0
   22.8780   -6.4253   32.8688 H   0  0  0  0  0  0  0  0  0  0  0  0
   23.4445   -5.3015   31.8282 H   0  0  0  0  0  0  0  0  0  0  0  0
   26.6115  -12.8272   33.0024 H   0  0  0  0  0  0  0  0  0  0  0  0
   25.9110  -11.4644   32.4380 H   0  0  0  0  0  0  0  0  0  0  0  0
   23.9154  -13.4665   35.4220 H   0  0  0  0  0  0  0  0  0  0  0  0
   25.3355  -14.1046   34.9294 H   0  0  0  0  0  0  0  0  0  0  0  0
   22.2217  -12.2164   31.9206 H   0  0  0  0  0  0  0  0  0  0  0  0
   22.5418   -8.7534   29.6814 H   0  0  0  0  0  0  0  0  0  0  0  0
   30.1056  -11.6622   30.6775 H   0  0  0  0  0  0  0  0  0  0  0  0
   24.3644   -8.9847   33.3843 H   0  0  0  0  0  0  0  0  0  0  0  0
   24.3169  -13.1453   33.0805 H   0  0  0  0  0  0  0  0  0  0  0  0
   24.1187   -7.0779   30.3520 H   0  0  0  0  0  0  0  0  0  0  0  0
  1 25  2  0  0  0  0
  2 27  2  0  0  0  0
  3 12  1  0  0  0  0
  3 25  1  0  0  0  0
  4 29  1  0  0  0  0
  4 30  1  0  0  0  0
  5 14  3  0  0  0  0
  6 10  1  0  0  0  0
  6 26  2  0  0  0  0
  7 26  1  0  0  0  0
  7 28  2  0  0  0  0
  8 26  1  0  0  0  0
  8 32  1  0  0  0  0
  9 28  1  0  0  0  0
  9 31  1  0  0  0  0
 10 27  1  0  0  0  0
 10 28  1  0  0  0  0
 11 15  1  0  0  0  0
 11 16  1  0  0  0  0
 11 25  1  0  0  0  0
 13 31  1  0  0  0  0
 14 18  1  0  0  0  0
 15 19  1  0  0  0  0
 16 20  1  0  0  0  0
 17 21  2  0  0  0  0
 17 22  1  0  0  0  0
 18 32  1  0  0  0  0
 19 29  1  0  0  0  0
 20 29  1  0  0  0  0
 21 30  1  0  0  0  0
 22 33  2  0  0  0  0
 23 27  1  0  0  0  0
 23 31  2  0  0  0  0
 24 30  2  0  0  0  0
 24 33  1  0  0  0  0
 32 33  1  0  0  0  0
  8 34  1  0  0  0  0
  9 35  1  0  0  0  0
 12 36  1  0  0  0  0
 12 37  1  0  0  0  0
 12 38  1  0  0  0  0
 13 39  1  0  0  0  0
 13 40  1  0  0  0  0
 13 41  1  0  0  0  0
 15 42  1  0  0  0  0
 15 43  1  0  0  0  0
 16 44  1  0  0  0  0
 16 45  1  0  0  0  0
 17 46  1  0  0  0  0
 18 47  1  0  0  0  0
 18 48  1  0  0  0  0
 19 49  1  0  0  0  0
 19 50  1  0  0  0  0
 20 51  1  0  0  0  0
 20 52  1  0  0  0  0
 21 53  1  0  0  0  0
 22 54  1  0  0  0  0
 23 55  1  0  0  0  0
 24 56  1  0  0  0  0
 29 57  1  0  0  0  0
 32 58  1  0  0  0  0
M  END
> <pdb_id>
6CHN

> <uniprot_id>
P0A6I6

> <usmiles>
O=C(OC)N1CCC(Oc2cc(ccc2)[C@H](NC3=NN4C(=O)C=C(NC4=N3)C)CC#N)CC1

$$$$
F25_H_1246
          07202416143D 1   1.00000     0.00000     0
            
 58 62  0  0  0  0            999 V2000
    6.5229  -13.8069    9.1442 F   0  0  0  0  0  0  0  0  0  0  0  0
    7.9727  -12.2296   16.5234 F   0  0  0  0  0  0  0  0  0  0  0  0
    8.4711  -11.4040   14.5697 F   0  0  0  0  0  0  0  0  0  0  0  0
   12.0460  -13.0995   12.8128 O   0  0  0  0  0  0  0  0  0  0  0  0
   18.1983  -12.2305   11.3073 N   0  0  0  0  0  0  0  0  0  0  0  0
   17.6929  -10.0570   10.9489 N   0  3  0  0  0  0  0  0  0  0  0  0
   10.3717  -13.5886   14.1450 N   0  0  0  0  0  0  0  0  0  0  0  0
   13.1256  -12.6574   16.3093 N   0  0  0  0  0  0  0  0  0  0  0  0
    6.8008  -14.3964   11.4257 C   0  0  0  0  0  0  0  0  0  0  0  0
    8.7039  -13.9884   10.0118 C   0  0  0  0  0  0  0  0  0  0  0  0
    7.6602  -14.6454   12.4826 C   0  0  0  0  0  0  0  0  0  0  0  0
    9.5492  -14.2365   11.0718 C   0  0  0  0  0  0  0  0  0  0  0  0
   15.9563  -12.4886   13.1257 C   0  0  0  0  0  0  0  0  0  0  0  0
   15.5283  -10.1638   12.8862 C   0  0  0  0  0  0  0  0  0  0  0  0
   14.9174  -12.6006   14.0446 C   0  0  0  0  0  0  0  0  0  0  0  0
   14.4793  -10.2787   13.7941 C   0  0  0  0  0  0  0  0  0  0  0  0
   14.1784  -12.4392   17.3222 C   0  0  0  0  0  0  0  0  0  0  0  0
    9.9600  -14.8268   13.4905 C   0  0  0  0  0  0  0  0  0  0  0  0
   13.4371  -12.2724   18.6376 C   0  0  0  0  0  0  0  0  0  0  0  0
   11.9792  -11.9980   18.2910 C   0  0  0  0  0  0  0  0  0  0  0  0
    7.3292  -14.0540   10.1945 C   0  0  0  0  0  0  0  0  0  0  0  0
   11.4112  -12.8260   13.7772 C   0  0  0  0  0  0  0  0  0  0  0  0
   17.4181  -11.1788   11.5914 C   0  0  0  0  0  0  0  0  0  0  0  0
    8.4429  -12.5673   15.2831 C   0  0  0  0  0  0  0  0  0  0  0  0
    9.0450  -14.5623   12.3281 C   0  0  0  0  0  0  0  0  0  0  0  0
   16.2783  -11.2618   12.5565 C   0  0  0  0  0  0  0  0  0  0  0  0
   14.1603  -11.4937   14.3765 C   0  0  0  0  0  0  0  0  0  0  0  0
   11.8090  -12.7292   16.9706 C   0  0  1  0  0  0  0  0  0  0  0  0
    9.8116  -13.2020   15.4337 C   0  0  2  0  0  0  0  0  0  0  0  0
   13.0235  -11.5416   15.3400 C   0  0  1  0  0  0  0  0  0  0  0  0
   11.6342  -11.7053   14.7492 C   0  0  2  0  0  0  0  0  0  0  0  0
   10.8260  -12.1642   15.9594 C   0  0  2  0  0  0  0  0  0  0  0  0
   18.0506  -13.1139   11.7537 H   0  0  0  0  0  0  0  0  0  0  0  0
   18.9419  -12.1382   10.6459 H   0  0  0  0  0  0  0  0  0  0  0  0
   17.1476   -9.2318   11.1061 H   0  0  0  0  0  0  0  0  0  0  0  0
   18.4507  -10.0208   10.2926 H   0  0  0  0  0  0  0  0  0  0  0  0
    5.7279  -14.4535   11.5666 H   0  0  0  0  0  0  0  0  0  0  0  0
    9.1091  -13.7234    9.0442 H   0  0  0  0  0  0  0  0  0  0  0  0
    7.2529  -14.8985   13.4504 H   0  0  0  0  0  0  0  0  0  0  0  0
   10.6192  -14.1663   10.9251 H   0  0  0  0  0  0  0  0  0  0  0  0
   16.5304  -13.3726   12.8924 H   0  0  0  0  0  0  0  0  0  0  0  0
   15.7429   -9.1935   12.4617 H   0  0  0  0  0  0  0  0  0  0  0  0
   14.6938  -13.5670   14.4732 H   0  0  0  0  0  0  0  0  0  0  0  0
   13.9004   -9.4001   14.0493 H   0  0  0  0  0  0  0  0  0  0  0  0
   14.7695  -11.5471   17.1042 H   0  0  0  0  0  0  0  0  0  0  0  0
   14.8461  -13.3022   17.3677 H   0  0  0  0  0  0  0  0  0  0  0  0
    9.4443  -15.4614   14.2150 H   0  0  0  0  0  0  0  0  0  0  0  0
   10.8404  -15.3711   13.1435 H   0  0  0  0  0  0  0  0  0  0  0  0
   13.8554  -11.4440   19.2088 H   0  0  0  0  0  0  0  0  0  0  0  0
   13.5184  -13.1835   19.2342 H   0  0  0  0  0  0  0  0  0  0  0  0
   11.7994  -10.9276   18.1766 H   0  0  0  0  0  0  0  0  0  0  0  0
   11.3111  -12.4036   19.0541 H   0  0  0  0  0  0  0  0  0  0  0  0
    7.7579  -13.2840   14.8163 H   0  0  0  0  0  0  0  0  0  0  0  0
   11.5622  -13.7783   17.1830 H   0  0  0  0  0  0  0  0  0  0  0  0
    9.7463  -14.0617   16.1130 H   0  0  0  0  0  0  0  0  0  0  0  0
   13.0173  -10.5982   15.9037 H   0  0  0  0  0  0  0  0  0  0  0  0
   11.2412  -10.7544   14.3743 H   0  0  0  0  0  0  0  0  0  0  0  0
   10.3033  -11.3073   16.3979 H   0  0  0  0  0  0  0  0  0  0  0  0
  1 21  1  0  0  0  0
  2 24  1  0  0  0  0
  3 24  1  0  0  0  0
  4 22  2  0  0  0  0
  5 23  1  0  0  0  0
  5 33  1  0  0  0  0
  5 34  1  0  0  0  0
  6 23  2  0  0  0  0
  6 35  1  0  0  0  0
  6 36  1  0  0  0  0
  7 18  1  0  0  0  0
  7 22  1  0  0  0  0
  7 29  1  0  0  0  0
  8 17  1  0  0  0  0
  8 28  1  0  0  0  0
  8 30  1  0  0  0  0
  9 11  2  0  0  0  0
  9 21  1  0  0  0  0
  9 37  1  0  0  0  0
 10 12  1  0  0  0  0
 10 21  2  0  0  0  0
 10 38  1  0  0  0  0
 11 25  1  0  0  0  0
 11 39  1  0  0  0  0
 12 25  2  0  0  0  0
 12 40  1  0  0  0  0
 13 15  1  0  0  0  0
 13 26  2  0  0  0  0
 13 41  1  0  0  0  0
 14 16  2  0  0  0  0
 14 26  1  0  0  0  0
 14 42  1  0  0  0  0
 15 27  2  0  0  0  0
 15 43  1  0  0  0  0
 16 27  1  0  0  0  0
 16 44  1  0  0  0  0
 17 19  1  0  0  0  0
 17 45  1  0  0  0  0
 17 46  1  0  0  0  0
 18 25  1  0  0  0  0
 18 47  1  0  0  0  0
 18 48  1  0  0  0  0
 19 20  1  0  0  0  0
 19 49  1  0  0  0  0
 19 50  1  0  0  0  0
 20 28  1  0  0  0  0
 20 51  1  0  0  0  0
 20 52  1  0  0  0  0
 22 31  1  0  0  0  0
 23 26  1  0  0  0  0
 24 29  1  0  0  0  0
 24 53  1  0  0  0  0
 27 30  1  0  0  0  0
 28 32  1  0  0  0  0
 28 54  1  0  0  0  0
 29 32  1  0  0  0  0
 29 55  1  0  0  0  0
 30 31  1  0  0  0  0
 30 56  1  0  0  0  0
 31 32  1  0  0  0  0
 31 57  1  0  0  0  0
 32 58  1  0  0  0  0
M  CHG  1   6   1
M  END
> <pdb_id>
2CN0

> <uniprot_id>
P00734

> <usmiles>
Fc1ccc(cc1)CN2C(=O)[C@@H]3[C@@H](N4[C@H]([C@@H]3[C@H]2C(F)F)CCC4)c5ccc(cc5)C(=[NH2+])N

$$$$
F34_A_1716
          07202405173D 1   1.00000     0.00000     0
            
 30 30  0  0  0  0            999 V2000
   27.3415    1.4710  292.8808 O   0  0  0  0  0  0  0  0  0  0  0  0
   25.9785    4.0147  289.2412 O   0  0  0  0  0  0  0  0  0  0  0  0
   28.0276    5.1162  289.9207 O   0  0  0  0  0  0  0  0  0  0  0  0
   30.0681    4.1047  291.1771 O   0  0  0  0  0  0  0  0  0  0  0  0
   27.3247    0.6812  290.1958 N   0  0  0  0  0  0  0  0  0  0  0  0
   29.5071    1.3622  292.2998 N   0  0  0  0  0  0  0  0  0  0  0  0
   28.8956    0.7696  294.5600 C   0  0  0  0  0  0  0  0  0  0  0  0
   26.4529    1.8457  290.0316 C   0  0  0  0  0  0  0  0  0  0  0  0
   28.7085    0.9607  289.8366 C   0  0  0  0  0  0  0  0  0  0  0  0
   28.5074    1.2520  293.1787 C   0  0  0  0  0  0  0  0  0  0  0  0
   26.9908    3.0205  289.2038 C   0  0  2  0  0  0  0  0  0  0  0  0
   29.3947    1.8293  290.9103 C   0  0  1  0  0  0  0  0  0  0  0  0
   28.2644    3.7353  289.6765 C   0  0  2  0  0  0  0  0  0  0  0  0
   28.8987    3.2508  290.9539 C   0  0  2  0  0  0  0  0  0  0  0  0
   26.2744    4.8116  288.7144 H   0  0  0  0  0  0  0  0  0  0  0  0
   28.8748    5.5507  290.2262 H   0  0  0  0  0  0  0  0  0  0  0  0
   29.7801    5.0617  291.2127 H   0  0  0  0  0  0  0  0  0  0  0  0
   26.9856   -0.0571  289.6129 H   0  0  0  0  0  0  0  0  0  0  0  0
   30.4191    1.1022  292.6171 H   0  0  0  0  0  0  0  0  0  0  0  0
   29.8874    0.6500  294.6047 H   0  0  0  0  0  0  0  0  0  0  0  0
   28.6102    1.4440  295.2409 H   0  0  0  0  0  0  0  0  0  0  0  0
   28.4457   -0.1037  294.7467 H   0  0  0  0  0  0  0  0  0  0  0  0
   26.2427    2.1941  290.9451 H   0  0  0  0  0  0  0  0  0  0  0  0
   25.6111    1.5306  289.5932 H   0  0  0  0  0  0  0  0  0  0  0  0
   28.7276    1.4459  288.9624 H   0  0  0  0  0  0  0  0  0  0  0  0
   29.2043    0.0967  289.7493 H   0  0  0  0  0  0  0  0  0  0  0  0
   27.1177    2.7209  288.2582 H   0  0  0  0  0  0  0  0  0  0  0  0
   30.3414    1.9069  290.5979 H   0  0  0  0  0  0  0  0  0  0  0  0
   28.9458    3.6639  288.9481 H   0  0  0  0  0  0  0  0  0  0  0  0
   28.2543    3.3588  291.7110 H   0  0  0  0  0  0  0  0  0  0  0  0
  1 10  2  0  0  0  0
  2 11  1  0  0  0  0
  3 13  1  0  0  0  0
  4 14  1  0  0  0  0
  5  8  1  0  0  0  0
  5  9  1  0  0  0  0
  6 10  1  0  0  0  0
  6 12  1  0  0  0  0
  7 10  1  0  0  0  0
  8 11  1  0  0  0  0
  9 12  1  0  0  0  0
 11 13  1  0  0  0  0
 12 14  1  0  0  0  0
 13 14  1  0  0  0  0
  2 15  1  0  0  0  0
  3 16  1  0  0  0  0
  4 17  1  0  0  0  0
  5 18  1  0  0  0  0
  6 19  1  0  0  0  0
  7 20  1  0  0  0  0
  7 21  1  0  0  0  0
  7 22  1  0  0  0  0
  8 23  1  0  0  0  0
  8 24  1  0  0  0  0
  9 25  1  0  0  0  0
  9 26  1  0  0  0  0
 11 27  1  0  0  0  0
 12 28  1  0  0  0  0
 13 29  1  0  0  0  0
 14 30  1  0  0  0  0
M  END
> <pdb_id>
2W67

> <uniprot_id>
Q89ZI2

> <usmiles>
O=C(N[C@@H]1[C@@H](O)[C@H](O)[C@H](O)CNC1)C

$$$$
F3E_A_201
          07192416543D 1   1.00000     0.00000     0
            
 22 23  0  0  0  0            999 V2000
   17.7593   19.7184    5.8274 N   0  0  0  0  0  0  0  0  0  0  0  0
   18.2011   21.2671    4.0733 N   0  0  0  0  0  0  0  0  0  0  0  0
   16.0420   20.9771    4.8275 N   0  0  0  0  0  0  0  0  0  0  0  0
   17.8381   22.1450    3.1553 C   0  0  0  0  0  0  0  0  0  0  0  0
   11.5155   22.6755    3.9798 C   0  0  0  0  0  0  0  0  0  0  0  0
   12.1814   22.5431    2.7667 C   0  0  0  0  0  0  0  0  0  0  0  0
   12.2011   22.5319    5.1746 C   0  0  0  0  0  0  0  0  0  0  0  0
   16.4850   22.4708    3.0790 C   0  0  0  0  0  0  0  0  0  0  0  0
   13.5439   22.2722    2.7424 C   0  0  0  0  0  0  0  0  0  0  0  0
   13.5616   22.2611    5.1413 C   0  0  0  0  0  0  0  0  0  0  0  0
   17.3239   20.6965    4.8695 C   0  0  0  0  0  0  0  0  0  0  0  0
   15.5982   21.8595    3.9479 C   0  0  0  0  0  0  0  0  0  0  0  0
   14.2365   22.1407    3.9363 C   0  0  0  0  0  0  0  0  0  0  0  0
   17.0947   19.2826    6.4343 H   0  0  0  0  0  0  0  0  0  0  0  0
   18.7269   19.4733    5.8872 H   0  0  0  0  0  0  0  0  0  0  0  0
   18.5079   22.5596    2.5392 H   0  0  0  0  0  0  0  0  0  0  0  0
   10.5358   22.8755    3.9898 H   0  0  0  0  0  0  0  0  0  0  0  0
   11.6780   22.6431    1.9085 H   0  0  0  0  0  0  0  0  0  0  0  0
   11.7228   22.6221    6.0482 H   0  0  0  0  0  0  0  0  0  0  0  0
   16.1601   23.1359    2.4067 H   0  0  0  0  0  0  0  0  0  0  0  0
   14.0219   22.1728    1.8696 H   0  0  0  0  0  0  0  0  0  0  0  0
   14.0629   22.1512    5.9996 H   0  0  0  0  0  0  0  0  0  0  0  0
  1 11  1  0  0  0  0
  2  4  1  0  0  0  0
  2 11  2  0  0  0  0
  3 11  1  0  0  0  0
  3 12  2  0  0  0  0
  4  8  2  0  0  0  0
  5  6  2  0  0  0  0
  5  7  1  0  0  0  0
  6  9  1  0  0  0  0
  7 10  2  0  0  0  0
  8 12  1  0  0  0  0
  9 13  2  0  0  0  0
 10 13  1  0  0  0  0
 12 13  1  0  0  0  0
  1 14  1  0  0  0  0
  1 15  1  0  0  0  0
  4 16  1  0  0  0  0
  5 17  1  0  0  0  0
  6 18  1  0  0  0  0
  7 19  1  0  0  0  0
  8 20  1  0  0  0  0
  9 21  1  0  0  0  0
 10 22  1  0  0  0  0
M  END
> <pdb_id>
6GLE

> <uniprot_id>
P36639

> <usmiles>
n1c(nccc1c2ccccc2)N

$$$$
F3E_B_201
          07202410333D 1   1.00000     0.00000     0
            
 22 23  0  0  0  0            999 V2000
   20.4130   12.8920   -9.9130 N   0  0  0  0  0  0  0  0  0  0  0  0
   18.1960   13.4730   -9.2260 N   0  0  0  0  0  0  0  0  0  0  0  0
   18.6450   13.0160  -11.4680 N   0  0  0  0  0  0  0  0  0  0  0  0
   16.9180   13.7060   -9.4980 C   0  0  0  0  0  0  0  0  0  0  0  0
   16.3030   12.7900  -15.8030 C   0  0  0  0  0  0  0  0  0  0  0  0
   17.5930   12.5030  -15.3960 C   0  0  0  0  0  0  0  0  0  0  0  0
   15.3650   13.2200  -14.8780 C   0  0  0  0  0  0  0  0  0  0  0  0
   16.4800   13.5800  -10.8090 C   0  0  0  0  0  0  0  0  0  0  0  0
   17.9390   12.6500  -14.0620 C   0  0  0  0  0  0  0  0  0  0  0  0
   15.7090   13.3710  -13.5440 C   0  0  0  0  0  0  0  0  0  0  0  0
   19.0240   13.1370  -10.2040 C   0  0  0  0  0  0  0  0  0  0  0  0
   17.3840   13.2270  -11.8010 C   0  0  0  0  0  0  0  0  0  0  0  0
   17.0040   13.0890  -13.1340 C   0  0  0  0  0  0  0  0  0  0  0  0
   21.0408   12.6382  -10.6488 H   0  0  0  0  0  0  0  0  0  0  0  0
   20.7497   12.9757   -8.9751 H   0  0  0  0  0  0  0  0  0  0  0  0
   16.2823   13.9675   -8.7717 H   0  0  0  0  0  0  0  0  0  0  0  0
   16.0471   12.6873  -16.7642 H   0  0  0  0  0  0  0  0  0  0  0  0
   18.2723   12.1912  -16.0603 H   0  0  0  0  0  0  0  0  0  0  0  0
   14.4321   13.4230  -15.1755 H   0  0  0  0  0  0  0  0  0  0  0  0
   15.5200   13.7424  -11.0371 H   0  0  0  0  0  0  0  0  0  0  0  0
   18.8701   12.4381  -13.7652 H   0  0  0  0  0  0  0  0  0  0  0  0
   15.0278   13.6814  -12.8809 H   0  0  0  0  0  0  0  0  0  0  0  0
  1 11  1  0  0  0  0
  2  4  1  0  0  0  0
  2 11  2  0  0  0  0
  3 11  1  0  0  0  0
  3 12  2  0  0  0  0
  4  8  2  0  0  0  0
  5  6  2  0  0  0  0
  5  7  1  0  0  0  0
  6  9  1  0  0  0  0
  7 10  2  0  0  0  0
  8 12  1  0  0  0  0
  9 13  2  0  0  0  0
 10 13  1  0  0  0  0
 12 13  1  0  0  0  0
  1 14  1  0  0  0  0
  1 15  1  0  0  0  0
  4 16  1  0  0  0  0
  5 17  1  0  0  0  0
  6 18  1  0  0  0  0
  7 19  1  0  0  0  0
  8 20  1  0  0  0  0
  9 21  1  0  0  0  0
 10 22  1  0  0  0  0
M  END
> <pdb_id>
6GLS

> <uniprot_id>
P36639

> <usmiles>
n1c(nccc1c2ccccc2)N

$$$$
F3W_A_1201
          07192419483D 1   1.00000     0.00000     0
            
 49 53  0  0  0  0            999 V2000
   15.4842   28.1328   20.0470 N   0  0  0  0  0  0  0  0  0  0  0  0
   19.1172   20.3721   30.3390 N   0  0  0  0  0  0  0  0  0  0  0  0
   20.9891   21.2319   29.0717 N   0  0  0  0  0  0  0  0  0  0  0  0
   20.6362   24.0480   26.7324 N   0  0  0  0  0  0  0  0  0  0  0  0
   18.4873   24.1829   27.3761 N   0  0  0  0  0  0  0  0  0  0  0  0
   16.2965   28.0863   20.8385 C   0  0  0  0  0  0  0  0  0  0  0  0
   17.7791   20.6521   30.4763 C   0  0  0  0  0  0  0  0  0  0  0  0
   21.2908   22.1441   28.1471 C   0  0  0  0  0  0  0  0  0  0  0  0
   17.3371   28.0432   21.8013 C   0  0  0  0  0  0  0  0  0  0  0  0
   14.3325   24.4103   28.4052 C   0  0  0  0  0  0  0  0  0  0  0  0
   14.6567   23.9463   27.0068 C   0  0  0  0  0  0  0  0  0  0  0  0
   15.2268   25.5521   28.8231 C   0  0  0  0  0  0  0  0  0  0  0  0
   20.4617   27.7523   24.6981 C   0  0  0  0  0  0  0  0  0  0  0  0
   17.4551   21.7451   29.7442 C   0  0  0  0  0  0  0  0  0  0  0  0
   16.1277   23.5456   26.8818 C   0  0  0  0  0  0  0  0  0  0  0  0
   16.6924   25.1329   28.8070 C   0  0  0  0  0  0  0  0  0  0  0  0
   17.3158   27.1232   22.7588 C   0  0  0  0  0  0  0  0  0  0  0  0
   19.4491   27.8819   23.7665 C   0  0  0  0  0  0  0  0  0  0  0  0
   20.4238   26.7343   25.6358 C   0  0  0  0  0  0  0  0  0  0  0  0
   18.3666   25.9436   24.6906 C   0  0  0  0  0  0  0  0  0  0  0  0
   19.7071   21.2586   29.4969 C   0  0  0  0  0  0  0  0  0  0  0  0
   19.4993   24.6919   26.5832 C   0  0  0  0  0  0  0  0  0  0  0  0
   20.3760   23.0633   27.6656 C   0  0  0  0  0  0  0  0  0  0  0  0
   17.0712   24.6130   27.4292 C   0  0  0  0  0  0  0  0  0  0  0  0
   18.3764   26.9877   23.7581 C   0  0  0  0  0  0  0  0  0  0  0  0
   19.3824   25.8136   25.6371 C   0  0  0  0  0  0  0  0  0  0  0  0
   19.0472   23.1084   28.1066 C   0  0  0  0  0  0  0  0  0  0  0  0
   18.6532   22.1645   29.0817 C   0  0  0  0  0  0  0  0  0  0  0  0
   19.5910   19.6195   30.7962 H   0  0  0  0  0  0  0  0  0  0  0  0
   17.1379   20.1259   31.0350 H   0  0  0  0  0  0  0  0  0  0  0  0
   22.2226   22.1647   27.7845 H   0  0  0  0  0  0  0  0  0  0  0  0
   18.0858   28.7048   21.7592 H   0  0  0  0  0  0  0  0  0  0  0  0
   14.4594   23.6476   29.0395 H   0  0  0  0  0  0  0  0  0  0  0  0
   13.3802   24.7140   28.4354 H   0  0  0  0  0  0  0  0  0  0  0  0
   14.4655   24.6886   26.3646 H   0  0  0  0  0  0  0  0  0  0  0  0
   14.0841   23.1572   26.7843 H   0  0  0  0  0  0  0  0  0  0  0  0
   14.9792   25.8397   29.7482 H   0  0  0  0  0  0  0  0  0  0  0  0
   15.0984   26.3162   28.1909 H   0  0  0  0  0  0  0  0  0  0  0  0
   21.2259   28.3973   24.6949 H   0  0  0  0  0  0  0  0  0  0  0  0
   16.5546   22.1752   29.6791 H   0  0  0  0  0  0  0  0  0  0  0  0
   16.3386   23.3958   25.9158 H   0  0  0  0  0  0  0  0  0  0  0  0
   16.2736   22.6970   27.3903 H   0  0  0  0  0  0  0  0  0  0  0  0
   16.8376   24.4116   29.4842 H   0  0  0  0  0  0  0  0  0  0  0  0
   17.2646   25.9215   29.0319 H   0  0  0  0  0  0  0  0  0  0  0  0
   16.5395   26.4941   22.7988 H   0  0  0  0  0  0  0  0  0  0  0  0
   19.4847   28.6210   23.0938 H   0  0  0  0  0  0  0  0  0  0  0  0
   21.1516   26.6608   26.3177 H   0  0  0  0  0  0  0  0  0  0  0  0
   17.6187   25.2799   24.6777 H   0  0  0  0  0  0  0  0  0  0  0  0
   16.9957   25.3935   26.8086 H   0  0  0  0  0  0  0  0  0  0  0  0
  1  6  3  0  0  0  0
  2  7  1  0  0  0  0
  2 21  1  0  0  0  0
  3  8  2  0  0  0  0
  3 21  1  0  0  0  0
  4 22  2  0  0  0  0
  4 23  1  0  0  0  0
  5 22  1  0  0  0  0
  5 24  1  0  0  0  0
  5 27  1  0  0  0  0
  6  9  1  0  0  0  0
  7 14  2  0  0  0  0
  8 23  1  0  0  0  0
  9 17  2  0  0  0  0
 10 11  1  0  0  0  0
 10 12  1  0  0  0  0
 11 15  1  0  0  0  0
 12 16  1  0  0  0  0
 13 18  1  0  0  0  0
 13 19  2  0  0  0  0
 14 28  1  0  0  0  0
 15 24  1  0  0  0  0
 16 24  1  0  0  0  0
 17 25  1  0  0  0  0
 18 25  2  0  0  0  0
 19 26  1  0  0  0  0
 20 25  1  0  0  0  0
 20 26  2  0  0  0  0
 21 28  2  0  0  0  0
 22 26  1  0  0  0  0
 23 27  2  0  0  0  0
 27 28  1  0  0  0  0
  2 29  1  0  0  0  0
  7 30  1  0  0  0  0
  8 31  1  0  0  0  0
  9 32  1  0  0  0  0
 10 33  1  0  0  0  0
 10 34  1  0  0  0  0
 11 35  1  0  0  0  0
 11 36  1  0  0  0  0
 12 37  1  0  0  0  0
 12 38  1  0  0  0  0
 13 39  1  0  0  0  0
 14 40  1  0  0  0  0
 15 41  1  0  0  0  0
 15 42  1  0  0  0  0
 16 43  1  0  0  0  0
 16 44  1  0  0  0  0
 17 45  1  0  0  0  0
 18 46  1  0  0  0  0
 19 47  1  0  0  0  0
 20 48  1  0  0  0  0
 24 49  1  0  0  0  0
M  END
> <pdb_id>
6GL9

> <uniprot_id>
P52333

> <usmiles>
N#C/C=C/c1cc(ccc1)C2=Nc3c(N2C4CCCCC4)c5c(nc3)NC=C5

$$$$
F45_A_304
          07202416133D 1   1.00000     0.00000     0
            
 36 38  0  0  0  0            999 V2000
   -7.2120   34.0110   -9.6520 F   0  0  0  0  0  0  0  0  0  0  0  0
   -0.5790   26.8220  -13.3180 O   0  0  0  0  0  0  0  0  0  0  0  0
   -7.6140   35.0290  -12.1620 O   0  0  0  0  0  0  0  0  0  0  0  0
   -1.6090   29.0350  -14.4810 O   0  0  0  0  0  0  0  0  0  0  0  0
   -8.9190   30.9360  -14.8530 O   0  0  0  0  0  0  0  0  0  0  0  0
   -6.5880   28.8600  -13.5860 N   0  0  0  0  0  0  0  0  0  0  0  0
   -8.3860   26.7570  -13.8190 C   0  0  0  0  0  0  0  0  0  0  0  0
   -7.4640   31.8060  -10.4250 C   0  0  0  0  0  0  0  0  0  0  0  0
   -8.8300   28.0630  -13.8940 C   0  0  0  0  0  0  0  0  0  0  0  0
   -7.0400   26.5060  -13.6290 C   0  0  0  0  0  0  0  0  0  0  0  0
   -2.7880   26.0670  -12.7400 C   0  0  0  0  0  0  0  0  0  0  0  0
   -7.7460   30.9520  -11.4710 C   0  0  0  0  0  0  0  0  0  0  0  0
   -4.1560   26.2660  -12.7890 C   0  0  0  0  0  0  0  0  0  0  0  0
   -7.9470   32.8220  -12.9720 C   0  0  0  0  0  0  0  0  0  0  0  0
   -3.8240   28.3290  -13.9580 C   0  0  0  0  0  0  0  0  0  0  0  0
   -7.4340   33.1540  -10.6710 C   0  0  0  0  0  0  0  0  0  0  0  0
   -1.9290   26.9950  -13.3120 C   0  0  0  0  0  0  0  0  0  0  0  0
   -7.6600   33.6900  -11.9280 C   0  0  0  0  0  0  0  0  0  0  0  0
   -2.4540   28.1350  -13.9200 C   0  0  0  0  0  0  0  0  0  0  0  0
   -8.3160   30.5240  -13.8660 C   0  0  0  0  0  0  0  0  0  0  0  0
   -7.8980   29.0840  -13.7750 C   0  0  0  0  0  0  0  0  0  0  0  0
   -6.1650   27.5830  -13.5230 C   0  0  0  0  0  0  0  0  0  0  0  0
   -7.9910   31.4490  -12.7460 C   0  0  0  0  0  0  0  0  0  0  0  0
   -4.6970   27.3920  -13.4060 C   0  0  0  0  0  0  0  0  0  0  0  0
    0.0115   27.5106  -13.7389 H   0  0  0  0  0  0  0  0  0  0  0  0
   -7.4078   35.6604  -11.4145 H   0  0  0  0  0  0  0  0  0  0  0  0
   -0.6213   28.8826  -14.4464 H   0  0  0  0  0  0  0  0  0  0  0  0
   -9.0332   25.9992  -13.9015 H   0  0  0  0  0  0  0  0  0  0  0  0
   -7.2855   31.4496   -9.5079 H   0  0  0  0  0  0  0  0  0  0  0  0
   -9.7993   28.2675  -14.0307 H   0  0  0  0  0  0  0  0  0  0  0  0
   -6.7010   25.5671  -13.5688 H   0  0  0  0  0  0  0  0  0  0  0  0
   -2.4175   25.2534  -12.2919 H   0  0  0  0  0  0  0  0  0  0  0  0
   -7.7745   29.9654  -11.3105 H   0  0  0  0  0  0  0  0  0  0  0  0
   -4.7665   25.5908  -12.3749 H   0  0  0  0  0  0  0  0  0  0  0  0
   -8.1224   33.1832  -13.8878 H   0  0  0  0  0  0  0  0  0  0  0  0
   -4.1932   29.1531  -14.3876 H   0  0  0  0  0  0  0  0  0  0  0  0
  1 16  1  0  0  0  0
  2 17  1  0  0  0  0
  3 18  1  0  0  0  0
  4 19  1  0  0  0  0
  5 20  2  0  0  0  0
  6 21  1  0  0  0  0
  6 22  2  0  0  0  0
  7  9  1  0  0  0  0
  7 10  2  0  0  0  0
  8 12  1  0  0  0  0
  8 16  2  0  0  0  0
  9 21  2  0  0  0  0
 10 22  1  0  0  0  0
 11 13  1  0  0  0  0
 11 17  2  0  0  0  0
 12 23  2  0  0  0  0
 13 24  2  0  0  0  0
 14 18  2  0  0  0  0
 14 23  1  0  0  0  0
 15 19  2  0  0  0  0
 15 24  1  0  0  0  0
 16 18  1  0  0  0  0
 17 19  1  0  0  0  0
 20 21  1  0  0  0  0
 20 23  1  0  0  0  0
 22 24  1  0  0  0  0
  2 25  1  0  0  0  0
  3 26  1  0  0  0  0
  4 27  1  0  0  0  0
  7 28  1  0  0  0  0
  8 29  1  0  0  0  0
  9 30  1  0  0  0  0
 10 31  1  0  0  0  0
 11 32  1  0  0  0  0
 12 33  1  0  0  0  0
 13 34  1  0  0  0  0
 14 35  1  0  0  0  0
 15 36  1  0  0  0  0
M  END
> <pdb_id>
6ZR6

> <uniprot_id>
Q9BPX1

> <usmiles>
Fc1c(O)cc(cc1)C(=O)c2nc(c3cc(O)c(O)cc3)ccc2

$$$$
F47_A_2345
          07202415303D 1   1.00000     0.00000     0
            
 36 39  0  0  0  0            999 V2000
   -8.8654  -13.8491   14.8065 F   0  0  0  0  0  0  0  0  0  0  0  0
   -0.7142  -18.6635   13.9685 O   0  0  0  0  0  0  0  0  0  0  0  0
   -1.1735  -14.1160   20.7629 N   0  0  0  0  0  0  0  0  0  0  0  0
   -0.2591  -14.0723   19.7583 N   0  0  0  0  0  0  0  0  0  0  0  0
   -3.2489  -13.9528   17.9287 N   0  0  0  0  0  0  0  0  0  0  0  0
   -3.6231  -14.0893   20.6810 N   0  0  0  0  0  0  0  0  0  0  0  0
   -2.1325  -14.0087   18.8488 N   0  0  0  0  0  0  0  0  0  0  0  0
   -4.6655  -14.0407   19.8552 C   0  0  0  0  0  0  0  0  0  0  0  0
   -8.0608  -13.6625   17.0099 C   0  0  0  0  0  0  0  0  0  0  0  0
   -6.4825  -14.1264   15.1698 C   0  0  0  0  0  0  0  0  0  0  0  0
    0.3102  -17.4648   15.7757 C   0  0  0  0  0  0  0  0  0  0  0  0
   -1.4425  -16.3393   14.5246 C   0  0  0  0  0  0  0  0  0  0  0  0
    0.4634  -16.3195   16.6019 C   0  0  0  0  0  0  0  0  0  0  0  0
   -1.3350  -15.1416   15.3329 C   0  0  0  0  0  0  0  0  0  0  0  0
   -7.0263  -13.6786   17.9516 C   0  0  0  0  0  0  0  0  0  0  0  0
   -5.4284  -14.1459   16.1010 C   0  0  0  0  0  0  0  0  0  0  0  0
   -0.2088  -13.9409   17.2400 C   0  0  0  0  0  0  0  0  0  0  0  0
   -2.3813  -14.0752   20.1859 C   0  0  0  0  0  0  0  0  0  0  0  0
   -7.7874  -13.8798   15.6730 C   0  0  0  0  0  0  0  0  0  0  0  0
   -0.6182  -17.5050   14.7446 C   0  0  0  0  0  0  0  0  0  0  0  0
   -0.8434  -14.0082   18.6230 C   0  0  0  0  0  0  0  0  0  0  0  0
   -4.5151  -13.9706   18.4310 C   0  0  0  0  0  0  0  0  0  0  0  0
   -0.3593  -15.1367   16.3914 C   0  0  0  0  0  0  0  0  0  0  0  0
   -5.6855  -13.9264   17.4773 C   0  0  0  0  0  0  0  0  0  0  0  0
   -1.3770  -18.7113   13.2213 H   0  0  0  0  0  0  0  0  0  0  0  0
   -5.5875  -14.0537   20.2421 H   0  0  0  0  0  0  0  0  0  0  0  0
   -9.0010  -13.4932   17.3052 H   0  0  0  0  0  0  0  0  0  0  0  0
   -6.3199  -14.2797   14.1951 H   0  0  0  0  0  0  0  0  0  0  0  0
    0.8874  -18.2645   15.9415 H   0  0  0  0  0  0  0  0  0  0  0  0
   -2.1146  -16.3598   13.7845 H   0  0  0  0  0  0  0  0  0  0  0  0
    1.1430  -16.3256   17.3355 H   0  0  0  0  0  0  0  0  0  0  0  0
   -1.9175  -14.3470   15.1616 H   0  0  0  0  0  0  0  0  0  0  0  0
   -7.2098  -13.5235   18.9223 H   0  0  0  0  0  0  0  0  0  0  0  0
   -4.4931  -14.3154   15.7904 H   0  0  0  0  0  0  0  0  0  0  0  0
    0.7699  -13.7755   17.3620 H   0  0  0  0  0  0  0  0  0  0  0  0
   -0.6192  -13.1693   16.7541 H   0  0  0  0  0  0  0  0  0  0  0  0
  1 19  1  0  0  0  0
  2 20  1  0  0  0  0
  3  4  1  0  0  0  0
  3 18  2  0  0  0  0
  4 21  2  0  0  0  0
  5  7  1  0  0  0  0
  5 22  2  0  0  0  0
  6  8  2  0  0  0  0
  6 18  1  0  0  0  0
  7 18  1  0  0  0  0
  7 21  1  0  0  0  0
  8 22  1  0  0  0  0
  9 15  1  0  0  0  0
  9 19  2  0  0  0  0
 10 16  2  0  0  0  0
 10 19  1  0  0  0  0
 11 13  1  0  0  0  0
 11 20  2  0  0  0  0
 12 14  2  0  0  0  0
 12 20  1  0  0  0  0
 13 23  2  0  0  0  0
 14 23  1  0  0  0  0
 15 24  2  0  0  0  0
 16 24  1  0  0  0  0
 17 21  1  0  0  0  0
 17 23  1  0  0  0  0
 22 24  1  0  0  0  0
  2 25  1  0  0  0  0
  8 26  1  0  0  0  0
  9 27  1  0  0  0  0
 10 28  1  0  0  0  0
 11 29  1  0  0  0  0
 12 30  1  0  0  0  0
 13 31  1  0  0  0  0
 14 32  1  0  0  0  0
 15 33  1  0  0  0  0
 16 34  1  0  0  0  0
 17 35  1  0  0  0  0
 17 36  1  0  0  0  0
M  END
> <pdb_id>
4AP7

> <uniprot_id>
P08581

> <usmiles>
Fc1ccc(cc1)C2=NN3C(=NN=C3Cc4ccc(O)cc4)N=C2

$$$$
F48_B_1201
          07192419483D 1   1.00000     0.00000     0
            
 48 52  0  0  0  0            999 V2000
   17.7092   25.6784   25.1225 O   0  0  0  0  0  0  0  0  0  0  0  0
   13.0616   27.9218   24.0111 N   0  0  0  0  0  0  0  0  0  0  0  0
   19.2633   20.2212   30.4616 N   0  0  0  0  0  0  0  0  0  0  0  0
   21.0145   21.1879   29.0981 N   0  0  0  0  0  0  0  0  0  0  0  0
   20.4251   23.9689   26.7437 N   0  0  0  0  0  0  0  0  0  0  0  0
   18.2869   23.9265   27.4297 N   0  0  0  0  0  0  0  0  0  0  0  0
   14.1499   27.8830   24.3313 C   0  0  0  0  0  0  0  0  0  0  0  0
   17.9216   20.4383   30.6664 C   0  0  0  0  0  0  0  0  0  0  0  0
   21.2590   22.1516   28.2064 C   0  0  0  0  0  0  0  0  0  0  0  0
   15.5438   27.8871   24.7470 C   0  0  0  0  0  0  0  0  0  0  0  0
   14.2657   24.9669   27.7511 C   0  0  0  0  0  0  0  0  0  0  0  0
   15.0188   25.1472   29.0517 C   0  0  0  0  0  0  0  0  0  0  0  0
   14.4504   23.5695   27.2063 C   0  0  0  0  0  0  0  0  0  0  0  0
   16.4469   27.2294   23.7228 C   0  0  0  0  0  0  0  0  0  0  0  0
   18.9857   27.2764   24.2630 C   0  0  0  0  0  0  0  0  0  0  0  0
   17.4950   21.4843   29.9102 C   0  0  0  0  0  0  0  0  0  0  0  0
   19.7878   26.4778   25.0979 C   0  0  0  0  0  0  0  0  0  0  0  0
   16.5206   24.9463   28.8723 C   0  0  0  0  0  0  0  0  0  0  0  0
   15.9203   23.1538   27.1670 C   0  0  0  0  0  0  0  0  0  0  0  0
   17.7421   26.7805   24.3080 C   0  0  0  0  0  0  0  0  0  0  0  0
   18.9917   25.5258   25.6156 C   0  0  0  0  0  0  0  0  0  0  0  0
   19.7507   21.1134   29.5537 C   0  0  0  0  0  0  0  0  0  0  0  0
   19.2219   24.4813   26.5904 C   0  0  0  0  0  0  0  0  0  0  0  0
   20.2754   23.0108   27.7370 C   0  0  0  0  0  0  0  0  0  0  0  0
   16.8525   24.3031   27.5345 C   0  0  0  0  0  0  0  0  0  0  0  0
   18.9686   22.9299   28.2037 C   0  0  0  0  0  0  0  0  0  0  0  0
   18.6327   21.9496   29.1736 C   0  0  0  0  0  0  0  0  0  0  0  0
   19.8037   19.5113   30.9133 H   0  0  0  0  0  0  0  0  0  0  0  0
   17.3430   19.9040   31.2826 H   0  0  0  0  0  0  0  0  0  0  0  0
   22.1916   22.2587   27.8619 H   0  0  0  0  0  0  0  0  0  0  0  0
   15.6236   27.3921   25.6122 H   0  0  0  0  0  0  0  0  0  0  0  0
   15.8388   28.8338   24.8761 H   0  0  0  0  0  0  0  0  0  0  0  0
   14.6072   25.6265   27.0816 H   0  0  0  0  0  0  0  0  0  0  0  0
   13.2921   25.1290   27.9120 H   0  0  0  0  0  0  0  0  0  0  0  0
   14.6805   24.4808   29.7161 H   0  0  0  0  0  0  0  0  0  0  0  0
   14.8550   26.0722   29.3945 H   0  0  0  0  0  0  0  0  0  0  0  0
   14.0810   23.5347   26.2777 H   0  0  0  0  0  0  0  0  0  0  0  0
   13.9500   22.9285   27.7883 H   0  0  0  0  0  0  0  0  0  0  0  0
   16.6354   27.8862   22.9927 H   0  0  0  0  0  0  0  0  0  0  0  0
   15.9744   26.4345   23.3422 H   0  0  0  0  0  0  0  0  0  0  0  0
   19.2881   28.0688   23.7332 H   0  0  0  0  0  0  0  0  0  0  0  0
   16.5676   21.8568   29.8750 H   0  0  0  0  0  0  0  0  0  0  0  0
   20.7652   26.5958   25.2733 H   0  0  0  0  0  0  0  0  0  0  0  0
   16.8577   24.3569   29.6065 H   0  0  0  0  0  0  0  0  0  0  0  0
   16.9741   25.8360   28.9243 H   0  0  0  0  0  0  0  0  0  0  0  0
   16.1422   22.8415   26.2433 H   0  0  0  0  0  0  0  0  0  0  0  0
   16.0608   22.4050   27.8148 H   0  0  0  0  0  0  0  0  0  0  0  0
   16.7025   25.0108   26.8440 H   0  0  0  0  0  0  0  0  0  0  0  0
  1 20  1  0  0  0  0
  1 21  1  0  0  0  0
  2  7  3  0  0  0  0
  3  8  1  0  0  0  0
  3 22  1  0  0  0  0
  4  9  2  0  0  0  0
  4 22  1  0  0  0  0
  5 23  2  0  0  0  0
  5 24  1  0  0  0  0
  6 23  1  0  0  0  0
  6 25  1  0  0  0  0
  6 26  1  0  0  0  0
  7 10  1  0  0  0  0
  8 16  2  0  0  0  0
  9 24  1  0  0  0  0
 10 14  1  0  0  0  0
 11 12  1  0  0  0  0
 11 13  1  0  0  0  0
 12 18  1  0  0  0  0
 13 19  1  0  0  0  0
 14 20  1  0  0  0  0
 15 17  1  0  0  0  0
 15 20  2  0  0  0  0
 16 27  1  0  0  0  0
 17 21  2  0  0  0  0
 18 25  1  0  0  0  0
 19 25  1  0  0  0  0
 21 23  1  0  0  0  0
 22 27  2  0  0  0  0
 24 26  2  0  0  0  0
 26 27  1  0  0  0  0
  3 28  1  0  0  0  0
  8 29  1  0  0  0  0
  9 30  1  0  0  0  0
 10 31  1  0  0  0  0
 10 32  1  0  0  0  0
 11 33  1  0  0  0  0
 11 34  1  0  0  0  0
 12 35  1  0  0  0  0
 12 36  1  0  0  0  0
 13 37  1  0  0  0  0
 13 38  1  0  0  0  0
 14 39  1  0  0  0  0
 14 40  1  0  0  0  0
 15 41  1  0  0  0  0
 16 42  1  0  0  0  0
 17 43  1  0  0  0  0
 18 44  1  0  0  0  0
 18 45  1  0  0  0  0
 19 46  1  0  0  0  0
 19 47  1  0  0  0  0
 25 48  1  0  0  0  0
M  END
> <pdb_id>
6GLB

> <uniprot_id>
P52333

> <usmiles>
O1C(C2=Nc3c(N2C4CCCCC4)c5c(nc3)NC=C5)=CC=C1CCC#N

$$$$
F5X_A_301
          07192419343D 1   1.00000     0.00000     0
            
 28 29  0  0  0  0            999 V2000
   48.6152   25.1841   50.9986 O   0  0  0  0  0  0  0  0  0  0  0  0
   46.2899   17.5257   52.7564 N   0  0  0  0  0  0  0  0  0  0  0  0
   45.1218   22.2296   49.1643 N   0  0  0  0  0  0  0  0  0  0  0  0
   48.2139   26.3112   50.2275 C   0  0  0  0  0  0  0  0  0  0  0  0
   44.8946   20.9039   49.4223 C   0  0  0  0  0  0  0  0  0  0  0  0
   48.3760   22.9233   51.5809 C   0  0  0  0  0  0  0  0  0  0  0  0
   47.7602   21.7003   51.5005 C   0  0  0  0  0  0  0  0  0  0  0  0
   46.8256   23.8999   49.9831 C   0  0  0  0  0  0  0  0  0  0  0  0
   46.3801   18.9365   52.3291 C   0  0  0  0  0  0  0  0  0  0  0  0
   45.9070   19.0445   50.8876 C   0  0  0  0  0  0  0  0  0  0  0  0
   47.9132   24.0172   50.8300 C   0  0  0  0  0  0  0  0  0  0  0  0
   46.2031   22.6488   49.9009 C   0  0  0  0  0  0  0  0  0  0  0  0
   45.7994   20.4337   50.3344 C   0  0  0  0  0  0  0  0  0  0  0  0
   46.6566   21.5436   50.6535 C   0  0  0  0  0  0  0  0  0  0  0  0
   46.7407   16.9890   52.2079 H   0  0  0  0  0  0  0  0  0  0  0  0
   45.4483   17.2509   52.7451 H   0  0  0  0  0  0  0  0  0  0  0  0
   44.6525   22.7291   48.6171 H   0  0  0  0  0  0  0  0  0  0  0  0
   48.7890   27.0658   50.4335 H   0  0  0  0  0  0  0  0  0  0  0  0
   47.2940   26.5379   50.4417 H   0  0  0  0  0  0  0  0  0  0  0  0
   48.2837   26.0980   49.2834 H   0  0  0  0  0  0  0  0  0  0  0  0
   44.2082   20.3921   49.0231 H   0  0  0  0  0  0  0  0  0  0  0  0
   49.1222   23.0325   52.1471 H   0  0  0  0  0  0  0  0  0  0  0  0
   48.0770   20.9739   52.0104 H   0  0  0  0  0  0  0  0  0  0  0  0
   46.5131   24.6343   49.4779 H   0  0  0  0  0  0  0  0  0  0  0  0
   45.8245   19.4990   52.9100 H   0  0  0  0  0  0  0  0  0  0  0  0
   47.3079   19.2504   52.4040 H   0  0  0  0  0  0  0  0  0  0  0  0
   46.5235   18.5382   50.3272 H   0  0  0  0  0  0  0  0  0  0  0  0
   45.0307   18.6204   50.8233 H   0  0  0  0  0  0  0  0  0  0  0  0
  1  4  1  0  0  0  0
  1 11  1  0  0  0  0
  2  9  1  0  0  0  0
  2 15  1  0  0  0  0
  2 16  1  0  0  0  0
  3  5  1  0  0  0  0
  3 12  1  0  0  0  0
  3 17  1  0  0  0  0
  4 18  1  0  0  0  0
  4 19  1  0  0  0  0
  4 20  1  0  0  0  0
  5 13  2  0  0  0  0
  5 21  1  0  0  0  0
  6  7  1  0  0  0  0
  6 11  2  0  0  0  0
  6 22  1  0  0  0  0
  7 14  2  0  0  0  0
  7 23  1  0  0  0  0
  8 11  1  0  0  0  0
  8 12  2  0  0  0  0
  8 24  1  0  0  0  0
  9 10  1  0  0  0  0
  9 25  1  0  0  0  0
  9 26  1  0  0  0  0
 10 13  1  0  0  0  0
 10 27  1  0  0  0  0
 10 28  1  0  0  0  0
 12 14  1  0  0  0  0
 13 14  1  0  0  0  0
M  END
> <pdb_id>
7BRY

> <uniprot_id>
P00760

> <usmiles>
O(c1cc2NC=C(c2cc1)CCN)C

$$$$
F6D_A_201
          07212402373D 1   1.00000     0.00000     0
            
 59 62  0  0  0  0            999 V2000
   23.7150  -11.1070   35.5790 Cl  0  0  0  0  0  0  0  0  0  0  0  0
   30.0120  -15.4380   30.2960 O   0  0  0  0  0  0  0  0  0  0  0  0
   20.9340   -6.7390   30.7150 N   0  0  0  0  0  0  0  0  0  0  0  0
   26.7070  -13.8340   29.5470 N   0  0  0  0  0  0  0  0  0  0  0  0
   26.6490   -9.0890   31.1650 N   0  0  0  0  0  0  0  0  0  0  0  0
   27.8290  -11.1240   29.6960 N   0  0  0  0  0  0  0  0  0  0  0  0
   27.7270   -7.8260   32.7370 N   0  0  0  0  0  0  0  0  0  0  0  0
   29.8580   -8.9680   32.6710 N   0  0  0  0  0  0  0  0  0  0  0  0
   25.4500   -7.3580   32.2960 N   0  0  0  0  0  0  0  0  0  0  0  0
   27.9520   -9.4980   31.3210 N   0  0  0  0  0  0  0  0  0  0  0  0
   30.9190  -16.4010   30.8290 C   0  0  0  0  0  0  0  0  0  0  0  0
   31.8560  -10.3140   32.5630 C   0  0  0  0  0  0  0  0  0  0  0  0
   21.9100   -6.6770   31.2700 C   0  0  0  0  0  0  0  0  0  0  0  0
   28.3840  -12.1910   28.8820 C   0  0  0  0  0  0  0  0  0  0  0  0
   30.0900  -16.3150   26.7190 C   0  0  0  0  0  0  0  0  0  0  0  0
   29.1670  -15.4000   26.2450 C   0  0  0  0  0  0  0  0  0  0  0  0
   22.4530  -11.0990   31.7940 C   0  0  0  0  0  0  0  0  0  0  0  0
   22.7020  -11.4950   33.1020 C   0  0  0  0  0  0  0  0  0  0  0  0
   23.1810   -6.5510   31.9700 C   0  0  0  0  0  0  0  0  0  0  0  0
   30.4020  -16.3580   28.0720 C   0  0  0  0  0  0  0  0  0  0  0  0
   22.9230   -9.8780   31.3310 C   0  0  0  0  0  0  0  0  0  0  0  0
   28.5470  -14.5270   27.1210 C   0  0  0  0  0  0  0  0  0  0  0  0
   29.8980  -10.7340   31.0190 C   0  0  0  0  0  0  0  0  0  0  0  0
   23.9110   -9.4350   33.4730 C   0  0  0  0  0  0  0  0  0  0  0  0
   26.5890   -8.1040   32.0460 C   0  0  0  0  0  0  0  0  0  0  0  0
   28.5810   -8.7430   32.2840 C   0  0  0  0  0  0  0  0  0  0  0  0
   23.4330  -10.6520   33.9210 C   0  0  0  0  0  0  0  0  0  0  0  0
   29.7740  -15.4730   28.9470 C   0  0  0  0  0  0  0  0  0  0  0  0
   28.5830  -10.4990   30.6300 C   0  0  0  0  0  0  0  0  0  0  0  0
   30.4890   -9.9700   32.0570 C   0  0  0  0  0  0  0  0  0  0  0  0
   28.1550  -13.5970   29.4670 C   0  0  2  0  0  0  0  0  0  0  0  0
   24.1750   -7.6910   31.6650 C   0  0  2  0  0  0  0  0  0  0  0  0
   23.6500   -9.0320   32.1650 C   0  0  0  0  0  0  0  0  0  0  0  0
   28.8370  -14.5510   28.4850 C   0  0  0  0  0  0  0  0  0  0  0  0
   26.5386  -14.7442   29.9254 H   0  0  0  0  0  0  0  0  0  0  0  0
   26.2885  -13.1445   30.1382 H   0  0  0  0  0  0  0  0  0  0  0  0
   26.8770  -10.8474   29.5646 H   0  0  0  0  0  0  0  0  0  0  0  0
   25.5008   -6.5777   32.9193 H   0  0  0  0  0  0  0  0  0  0  0  0
   31.0039  -16.2681   31.8165 H   0  0  0  0  0  0  0  0  0  0  0  0
   30.5741  -17.3214   30.6450 H   0  0  0  0  0  0  0  0  0  0  0  0
   31.8149  -16.2887   30.3993 H   0  0  0  0  0  0  0  0  0  0  0  0
   32.2272  -11.0744   32.0300 H   0  0  0  0  0  0  0  0  0  0  0  0
   32.4553   -9.5187   32.4712 H   0  0  0  0  0  0  0  0  0  0  0  0
   31.7983  -10.5786   33.5256 H   0  0  0  0  0  0  0  0  0  0  0  0
   29.3689  -12.0418   28.7943 H   0  0  0  0  0  0  0  0  0  0  0  0
   27.9591  -12.1521   27.9776 H   0  0  0  0  0  0  0  0  0  0  0  0
   30.5344  -16.9480   26.0851 H   0  0  0  0  0  0  0  0  0  0  0  0
   28.9481  -15.3696   25.2697 H   0  0  0  0  0  0  0  0  0  0  0  0
   21.9329  -11.6962   31.1834 H   0  0  0  0  0  0  0  0  0  0  0  0
   22.3605  -12.3702   33.4445 H   0  0  0  0  0  0  0  0  0  0  0  0
   23.0001   -6.5450   32.9535 H   0  0  0  0  0  0  0  0  0  0  0  0
   23.6033   -5.6846   31.7034 H   0  0  0  0  0  0  0  0  0  0  0  0
   31.0708  -17.0176   28.4150 H   0  0  0  0  0  0  0  0  0  0  0  0
   22.7375   -9.6025   30.3878 H   0  0  0  0  0  0  0  0  0  0  0  0
   27.8807  -13.8687   26.7708 H   0  0  0  0  0  0  0  0  0  0  0  0
   30.4304  -11.4472   30.5630 H   0  0  0  0  0  0  0  0  0  0  0  0
   24.4411   -8.8471   34.0841 H   0  0  0  0  0  0  0  0  0  0  0  0
   28.5719  -13.6709   30.3729 H   0  0  0  0  0  0  0  0  0  0  0  0
   24.3093   -7.7458   30.6756 H   0  0  0  0  0  0  0  0  0  0  0  0
  1 27  1  0  0  0  0
  2 11  1  0  0  0  0
  2 28  1  0  0  0  0
  3 13  3  0  0  0  0
  4 31  1  0  0  0  0
  5 10  1  0  0  0  0
  5 25  2  0  0  0  0
  6 14  1  0  0  0  0
  6 29  1  0  0  0  0
  7 25  1  0  0  0  0
  7 26  2  0  0  0  0
  8 26  1  0  0  0  0
  8 30  2  0  0  0  0
  9 25  1  0  0  0  0
  9 32  1  0  0  0  0
 10 26  1  0  0  0  0
 10 29  1  0  0  0  0
 12 30  1  0  0  0  0
 13 19  1  0  0  0  0
 14 31  1  0  0  0  0
 15 16  2  0  0  0  0
 15 20  1  0  0  0  0
 16 22  1  0  0  0  0
 17 18  2  0  0  0  0
 17 21  1  0  0  0  0
 18 27  1  0  0  0  0
 19 32  1  0  0  0  0
 20 28  2  0  0  0  0
 21 33  2  0  0  0  0
 22 34  2  0  0  0  0
 23 29  2  0  0  0  0
 23 30  1  0  0  0  0
 24 27  2  0  0  0  0
 24 33  1  0  0  0  0
 28 34  1  0  0  0  0
 31 34  1  0  0  0  0
 32 33  1  0  0  0  0
  4 35  1  0  0  0  0
  4 36  1  0  0  0  0
  6 37  1  0  0  0  0
  9 38  1  0  0  0  0
 11 39  1  0  0  0  0
 11 40  1  0  0  0  0
 11 41  1  0  0  0  0
 12 42  1  0  0  0  0
 12 43  1  0  0  0  0
 12 44  1  0  0  0  0
 14 45  1  0  0  0  0
 14 46  1  0  0  0  0
 15 47  1  0  0  0  0
 16 48  1  0  0  0  0
 17 49  1  0  0  0  0
 18 50  1  0  0  0  0
 19 51  1  0  0  0  0
 19 52  1  0  0  0  0
 20 53  1  0  0  0  0
 21 54  1  0  0  0  0
 22 55  1  0  0  0  0
 23 56  1  0  0  0  0
 24 57  1  0  0  0  0
 31 58  1  0  0  0  0
 32 59  1  0  0  0  0
M  END
> <pdb_id>
6CKW

> <uniprot_id>
P0A6I6

> <usmiles>
Clc1cc(ccc1)[C@H](NC2=NN3C(=N2)N=C(C=C3NC[C@@H](N)c4c(OC)cccc4)C)CC#N

$$$$
F6P_B_401
          07202401053D 1   1.00000     0.00000     0
            
 29 29  0  0  0  0            999 V2000
   38.2870   80.2440   45.7790 P   0  0  0  0  0  0  0  0  0  0  0  0
   36.8080   79.9930   45.7790 O   0  0  0  0  0  0  0  0  0  0  0  0
   38.8470   80.1310   47.1700 O   0  0  0  0  0  0  0  0  0  0  0  0
   38.9350   79.3010   44.8110 O   0  0  0  0  0  0  0  0  0  0  0  0
   41.1690   86.6540   44.2890 O   0  0  0  0  0  0  0  0  0  0  0  0
   37.0510   84.8660   42.6680 O   0  0  0  0  0  0  0  0  0  0  0  0
   39.4960   85.8860   41.2040 O   0  0  0  0  0  0  0  0  0  0  0  0
   41.1240   83.7920   41.9950 O   0  0  0  0  0  0  0  0  0  0  0  0
   38.5570   81.7600   45.3290 O   0  0  0  0  0  0  0  0  0  0  0  0
   40.0700   83.8360   44.0830 O   0  0  0  0  0  0  0  0  0  0  0  0
   41.6920   85.5600   43.5740 C   0  0  0  0  0  0  0  0  0  0  0  0
   38.3200   82.1520   43.9810 C   0  0  0  0  0  0  0  0  0  0  0  0
   38.3190   84.2700   42.5550 C   0  0  2  0  0  0  0  0  0  0  0  0
   38.6830   83.6220   43.8790 C   0  0  2  0  0  0  0  0  0  0  0  0
   39.3600   85.3610   42.5010 C   0  0  1  0  0  0  0  0  0  0  0  0
   40.5870   84.6500   43.0390 C   0  0  1  0  0  0  0  0  0  0  0  0
   36.4564   80.0728   44.8463 H   0  0  0  0  0  0  0  0  0  0  0  0
   39.8321   80.3015   47.1476 H   0  0  0  0  0  0  0  0  0  0  0  0
   41.9199   87.2243   44.6220 H   0  0  0  0  0  0  0  0  0  0  0  0
   36.8055   85.2948   41.7986 H   0  0  0  0  0  0  0  0  0  0  0  0
   40.1920   86.6040   41.2063 H   0  0  0  0  0  0  0  0  0  0  0  0
   41.4904   84.3564   41.2553 H   0  0  0  0  0  0  0  0  0  0  0  0
   42.2826   85.0289   44.1816 H   0  0  0  0  0  0  0  0  0  0  0  0
   42.2292   85.9039   42.8038 H   0  0  0  0  0  0  0  0  0  0  0  0
   37.3566   82.0188   43.7485 H   0  0  0  0  0  0  0  0  0  0  0  0
   38.8902   81.6132   43.3609 H   0  0  0  0  0  0  0  0  0  0  0  0
   38.3817   83.6365   41.7838 H   0  0  0  0  0  0  0  0  0  0  0  0
   38.1906   84.1079   44.6012 H   0  0  0  0  0  0  0  0  0  0  0  0
   39.1018   86.0951   43.1290 H   0  0  0  0  0  0  0  0  0  0  0  0
  1  2  1  0  0  0  0
  1  3  1  0  0  0  0
  1  4  2  0  0  0  0
  1  9  1  0  0  0  0
  5 11  1  0  0  0  0
  6 13  1  0  0  0  0
  7 15  1  0  0  0  0
  8 16  1  0  0  0  0
  9 12  1  0  0  0  0
 10 14  1  0  0  0  0
 10 16  1  0  0  0  0
 11 16  1  0  0  0  0
 12 14  1  0  0  0  0
 13 14  1  0  0  0  0
 13 15  1  0  0  0  0
 15 16  1  0  0  0  0
  2 17  1  0  0  0  0
  3 18  1  0  0  0  0
  5 19  1  0  0  0  0
  6 20  1  0  0  0  0
  7 21  1  0  0  0  0
  8 22  1  0  0  0  0
 11 23  1  0  0  0  0
 11 24  1  0  0  0  0
 12 25  1  0  0  0  0
 12 26  1  0  0  0  0
 13 27  1  0  0  0  0
 14 28  1  0  0  0  0
 15 29  1  0  0  0  0
M  END
> <pdb_id>
3BXH

> <uniprot_id>
O32253

> <usmiles>
P(=O)(OC[C@H]1O[C@@](O)([C@@H](O)[C@@H]1O)CO)(O)O

$$$$
F83_A_2001
          07192418533D 1   1.00000     0.00000     0
            
 40 42  0  0  0  0            999 V2000
   24.3110   47.2170    9.3510 Cl  0  0  0  0  0  0  0  0  0  0  0  0
   27.3310   42.9130   14.0240 S   0  0  0  0  0  0  0  0  0  0  0  0
   25.9100   42.7710   14.0030 O   0  0  0  0  0  0  0  0  0  0  0  0
   27.9720   41.5570   13.9310 O   0  0  0  0  0  0  0  0  0  0  0  0
   29.0990   44.7580   22.6830 O   0  0  0  0  0  0  0  0  0  0  0  0
   27.8390   43.8210   12.7710 N   0  0  0  0  0  0  0  0  0  0  0  0
   29.4180   43.4930   20.0970 N   0  0  0  0  0  0  0  0  0  0  0  0
   29.5500   45.4790   21.5340 C   0  0  0  0  0  0  0  0  0  0  0  0
   28.5950   42.7870   19.1030 C   0  0  0  0  0  0  0  0  0  0  0  0
   25.0270   46.0980   11.7300 C   0  0  0  0  0  0  0  0  0  0  0  0
   26.3130   45.4760    9.7820 C   0  0  0  0  0  0  0  0  0  0  0  0
   28.0770   45.0850   15.4840 C   0  0  0  0  0  0  0  0  0  0  0  0
   25.8530   45.3110   12.5270 C   0  0  0  0  0  0  0  0  0  0  0  0
   27.1380   44.6890   10.5800 C   0  0  0  0  0  0  0  0  0  0  0  0
   28.5160   45.7200   16.6450 C   0  0  0  0  0  0  0  0  0  0  0  0
   28.0420   42.9760   16.6550 C   0  0  0  0  0  0  0  0  0  0  0  0
   29.2450   45.6850   19.0580 C   0  0  0  0  0  0  0  0  0  0  0  0
   25.2620   46.1850   10.3560 C   0  0  0  0  0  0  0  0  0  0  0  0
   27.8460   43.7140   15.4880 C   0  0  0  0  0  0  0  0  0  0  0  0
   26.9100   44.6130   11.9490 C   0  0  0  0  0  0  0  0  0  0  0  0
   28.9030   44.8560   20.2970 C   0  0  1  0  0  0  0  0  0  0  0  0
   28.4720   43.6060   17.8120 C   0  0  0  0  0  0  0  0  0  0  0  0
   28.7180   44.9830   17.8050 C   0  0  0  0  0  0  0  0  0  0  0  0
   29.5112   45.1500   23.5055 H   0  0  0  0  0  0  0  0  0  0  0  0
   28.8147   43.8410   12.5529 H   0  0  0  0  0  0  0  0  0  0  0  0
   30.3626   43.5399   19.7721 H   0  0  0  0  0  0  0  0  0  0  0  0
   30.5455   45.4160   21.4637 H   0  0  0  0  0  0  0  0  0  0  0  0
   29.2813   46.4393   21.6096 H   0  0  0  0  0  0  0  0  0  0  0  0
   27.6823   42.6350   19.4823 H   0  0  0  0  0  0  0  0  0  0  0  0
   29.0195   41.9063   18.8927 H   0  0  0  0  0  0  0  0  0  0  0  0
   24.2662   46.6006   12.1406 H   0  0  0  0  0  0  0  0  0  0  0  0
   26.4753   45.5320    8.7968 H   0  0  0  0  0  0  0  0  0  0  0  0
   27.9284   45.6151   14.6492 H   0  0  0  0  0  0  0  0  0  0  0  0
   25.6880   45.2471   13.5112 H   0  0  0  0  0  0  0  0  0  0  0  0
   27.8937   44.1790   10.1691 H   0  0  0  0  0  0  0  0  0  0  0  0
   28.6854   46.7055   16.6426 H   0  0  0  0  0  0  0  0  0  0  0  0
   27.8720   41.9906   16.6569 H   0  0  0  0  0  0  0  0  0  0  0  0
   30.2375   45.7862   18.9895 H   0  0  0  0  0  0  0  0  0  0  0  0
   28.8224   46.5880   19.1354 H   0  0  0  0  0  0  0  0  0  0  0  0
   27.9107   44.8255   20.4168 H   0  0  0  0  0  0  0  0  0  0  0  0
  1 18  1  0  0  0  0
  2  3  2  0  0  0  0
  2  4  2  0  0  0  0
  2  6  1  0  0  0  0
  2 19  1  0  0  0  0
  5  8  1  0  0  0  0
  6 20  1  0  0  0  0
  7  9  1  0  0  0  0
  7 21  1  0  0  0  0
  8 21  1  0  0  0  0
  9 22  1  0  0  0  0
 10 13  2  0  0  0  0
 10 18  1  0  0  0  0
 11 14  1  0  0  0  0
 11 18  2  0  0  0  0
 12 15  2  0  0  0  0
 12 19  1  0  0  0  0
 13 20  1  0  0  0  0
 14 20  2  0  0  0  0
 15 23  1  0  0  0  0
 16 19  2  0  0  0  0
 16 22  1  0  0  0  0
 17 21  1  0  0  0  0
 17 23  1  0  0  0  0
 22 23  2  0  0  0  0
  5 24  1  0  0  0  0
  6 25  1  0  0  0  0
  7 26  1  0  0  0  0
  8 27  1  0  0  0  0
  8 28  1  0  0  0  0
  9 29  1  0  0  0  0
  9 30  1  0  0  0  0
 10 31  1  0  0  0  0
 11 32  1  0  0  0  0
 12 33  1  0  0  0  0
 13 34  1  0  0  0  0
 14 35  1  0  0  0  0
 15 36  1  0  0  0  0
 16 37  1  0  0  0  0
 17 38  1  0  0  0  0
 17 39  1  0  0  0  0
 21 40  1  0  0  0  0
M  END
> <pdb_id>
2G8N

> <uniprot_id>
P11086

> <usmiles>
Clc1ccc(NS(=O)(=O)c2cc3c(cc2)C[C@@H](NC3)CO)cc1

$$$$
F85_A_998
          07202400133D 1   1.00000     0.00000     0
            
 53 54  0  0  0  0            999 V2000
   33.1193   18.6606   27.3768 O   0  0  0  0  0  0  0  0  0  0  0  0
   32.5242   24.0839   30.3812 O   0  0  0  0  0  0  0  0  0  0  0  0
   33.3466   25.4314   32.5917 O   0  0  0  0  0  0  0  0  0  0  0  0
   33.9678   24.4706   26.2827 O   0  0  0  0  0  0  0  0  0  0  0  0
   33.0925   22.5571   24.2632 O   0  0  0  0  0  0  0  0  0  0  0  0
   31.2272   20.5689   25.2721 O   0  0  0  0  0  0  0  0  0  0  0  0
   33.1800   21.4707   28.2984 O   0  0  0  0  0  0  0  0  0  0  0  0
   34.6592   24.7254   30.8594 N   0  0  0  0  0  0  0  0  0  0  0  0
   34.1818   23.5870   28.9617 N   0  0  0  0  0  0  0  0  0  0  0  0
   39.5263   29.0278   33.8031 C   0  0  0  0  0  0  0  0  0  0  0  0
   38.9993   28.0611   36.0414 C   0  0  0  0  0  0  0  0  0  0  0  0
   40.4220   26.7851   34.4322 C   0  0  0  0  0  0  0  0  0  0  0  0
   32.0293   19.3824   27.9571 C   0  0  0  0  0  0  0  0  0  0  0  0
   36.7322   26.4520   31.9164 C   0  0  0  0  0  0  0  0  0  0  0  0
   35.7920   26.0141   34.0988 C   0  0  0  0  0  0  0  0  0  0  0  0
   37.8603   27.0143   32.5170 C   0  0  0  0  0  0  0  0  0  0  0  0
   36.9211   26.5834   34.6984 C   0  0  0  0  0  0  0  0  0  0  0  0
   33.7261   24.1291   30.0908 C   0  0  0  0  0  0  0  0  0  0  0  0
   34.4455   25.3215   32.0444 C   0  0  0  0  0  0  0  0  0  0  0  0
   33.2666   22.9077   28.0171 C   0  0  1  0  0  0  0  0  0  0  0  0
   33.7331   23.0846   26.5649 C   0  0  1  0  0  0  0  0  0  0  0  0
   32.6639   22.4912   25.6234 C   0  0  2  0  0  0  0  0  0  0  0  0
   32.3673   21.0252   26.0027 C   0  0  1  0  0  0  0  0  0  0  0  0
   32.1149   20.8604   27.5228 C   0  0  2  0  0  0  0  0  0  0  0  0
   35.6976   25.9379   32.7079 C   0  0  0  0  0  0  0  0  0  0  0  0
   37.9728   27.0845   33.9149 C   0  0  0  0  0  0  0  0  0  0  0  0
   39.2368   27.7339   34.5614 C   0  0  0  0  0  0  0  0  0  0  0  0
   33.0693   17.7013   27.6548 H   0  0  0  0  0  0  0  0  0  0  0  0
   34.2706   24.5711   25.3349 H   0  0  0  0  0  0  0  0  0  0  0  0
   32.3860   22.1681   23.6720 H   0  0  0  0  0  0  0  0  0  0  0  0
   31.0331   19.6188   25.5165 H   0  0  0  0  0  0  0  0  0  0  0  0
   35.5982   24.7239   30.5155 H   0  0  0  0  0  0  0  0  0  0  0  0
   35.1575   23.6401   28.7493 H   0  0  0  0  0  0  0  0  0  0  0  0
   39.6821   28.8205   32.8373 H   0  0  0  0  0  0  0  0  0  0  0  0
   38.7455   29.6466   33.8895 H   0  0  0  0  0  0  0  0  0  0  0  0
   40.3409   29.4635   34.1861 H   0  0  0  0  0  0  0  0  0  0  0  0
   38.8091   27.2171   36.5430 H   0  0  0  0  0  0  0  0  0  0  0  0
   39.8146   28.4981   36.4213 H   0  0  0  0  0  0  0  0  0  0  0  0
   38.2192   28.6812   36.1247 H   0  0  0  0  0  0  0  0  0  0  0  0
   40.2280   25.9397   34.9299 H   0  0  0  0  0  0  0  0  0  0  0  0
   40.5773   26.5754   33.4668 H   0  0  0  0  0  0  0  0  0  0  0  0
   41.2384   27.2175   34.8149 H   0  0  0  0  0  0  0  0  0  0  0  0
   32.0810   19.3228   28.9539 H   0  0  0  0  0  0  0  0  0  0  0  0
   31.1640   18.9910   27.6441 H   0  0  0  0  0  0  0  0  0  0  0  0
   36.6630   26.4163   30.9195 H   0  0  0  0  0  0  0  0  0  0  0  0
   35.0502   25.6606   34.6687 H   0  0  0  0  0  0  0  0  0  0  0  0
   38.5979   27.3717   31.9440 H   0  0  0  0  0  0  0  0  0  0  0  0
   36.9794   26.6338   35.6954 H   0  0  0  0  0  0  0  0  0  0  0  0
   32.3550   23.3077   28.1113 H   0  0  0  0  0  0  0  0  0  0  0  0
   34.5880   22.5814   26.4383 H   0  0  0  0  0  0  0  0  0  0  0  0
   31.8225   23.0229   25.7197 H   0  0  0  0  0  0  0  0  0  0  0  0
   33.1549   20.4643   25.7476 H   0  0  0  0  0  0  0  0  0  0  0  0
   31.2529   21.3115   27.7540 H   0  0  0  0  0  0  0  0  0  0  0  0
  1 13  1  0  0  0  0
  2 18  2  0  0  0  0
  3 19  2  0  0  0  0
  4 21  1  0  0  0  0
  5 22  1  0  0  0  0
  6 23  1  0  0  0  0
  7 20  1  0  0  0  0
  7 24  1  0  0  0  0
  8 18  1  0  0  0  0
  8 19  1  0  0  0  0
  9 18  1  0  0  0  0
  9 20  1  0  0  0  0
 10 27  1  0  0  0  0
 11 27  1  0  0  0  0
 12 27  1  0  0  0  0
 13 24  1  0  0  0  0
 14 16  1  0  0  0  0
 14 25  2  0  0  0  0
 15 17  2  0  0  0  0
 15 25  1  0  0  0  0
 16 26  2  0  0  0  0
 17 26  1  0  0  0  0
 19 25  1  0  0  0  0
 20 21  1  0  0  0  0
 21 22  1  0  0  0  0
 22 23  1  0  0  0  0
 23 24  1  0  0  0  0
 26 27  1  0  0  0  0
  1 28  1  0  0  0  0
  4 29  1  0  0  0  0
  5 30  1  0  0  0  0
  6 31  1  0  0  0  0
  8 32  1  0  0  0  0
  9 33  1  0  0  0  0
 10 34  1  0  0  0  0
 10 35  1  0  0  0  0
 10 36  1  0  0  0  0
 11 37  1  0  0  0  0
 11 38  1  0  0  0  0
 11 39  1  0  0  0  0
 12 40  1  0  0  0  0
 12 41  1  0  0  0  0
 12 42  1  0  0  0  0
 13 43  1  0  0  0  0
 13 44  1  0  0  0  0
 14 45  1  0  0  0  0
 15 46  1  0  0  0  0
 16 47  1  0  0  0  0
 17 48  1  0  0  0  0
 20 49  1  0  0  0  0
 21 50  1  0  0  0  0
 22 51  1  0  0  0  0
 23 52  1  0  0  0  0
 24 53  1  0  0  0  0
M  END
> <pdb_id>
3ZCR

> <uniprot_id>
P00489

> <usmiles>
O=C(NC(=O)c1ccc(cc1)C(C)(C)C)N[C@@H]2O[C@@H]([C@@H](O)[C@H](O)[C@H]2O)CO

$$$$
F90_A_406
          07192415303D 1   1.00000     0.00000     0
            
 21 21  0  0  0  0            999 V2000
    1.3400   14.6850    9.3790 Cl  0  0  0  0  0  0  0  0  0  0  0  0
    1.4880    8.1070   10.4150 S   0  0  0  0  0  0  0  0  0  0  0  0
    2.4090    5.8420    9.2750 N   0  0  0  0  0  0  0  0  0  0  0  0
    1.9530    5.7470   11.4730 N   0  0  0  0  0  0  0  0  0  0  0  0
    2.0290    8.7250    8.7910 C   0  0  0  0  0  0  0  0  0  0  0  0
    0.4870   12.2000    8.7420 C   0  0  0  0  0  0  0  0  0  0  0  0
    2.7360   12.3800    9.5480 C   0  0  0  0  0  0  0  0  0  0  0  0
    0.6570   10.8340    8.5970 C   0  0  0  0  0  0  0  0  0  0  0  0
    2.8920   11.0130    9.3970 C   0  0  0  0  0  0  0  0  0  0  0  0
    1.9960    6.4260   10.4060 C   0  0  0  0  0  0  0  0  0  0  0  0
    1.5340   12.9580    9.2150 C   0  0  0  0  0  0  0  0  0  0  0  0
    1.8580   10.2200    8.9220 C   0  0  0  0  0  0  0  0  0  0  0  0
    2.6958    4.8840    9.2828 H   0  0  0  0  0  0  0  0  0  0  0  0
    2.4308    6.3636    8.4221 H   0  0  0  0  0  0  0  0  0  0  0  0
    2.2421    4.7897   11.4685 H   0  0  0  0  0  0  0  0  0  0  0  0
    1.4545    8.3604    8.0582 H   0  0  0  0  0  0  0  0  0  0  0  0
    2.9842    8.4865    8.6157 H   0  0  0  0  0  0  0  0  0  0  0  0
   -0.3844   12.6302    8.5064 H   0  0  0  0  0  0  0  0  0  0  0  0
    3.4882   12.9401    9.8950 H   0  0  0  0  0  0  0  0  0  0  0  0
   -0.0999   10.2793    8.2515 H   0  0  0  0  0  0  0  0  0  0  0  0
    3.7661   10.5894    9.6347 H   0  0  0  0  0  0  0  0  0  0  0  0
  1 11  1  0  0  0  0
  2  5  1  0  0  0  0
  2 10  1  0  0  0  0
  3 10  1  0  0  0  0
  4 10  2  0  0  0  0
  5 12  1  0  0  0  0
  6  8  2  0  0  0  0
  6 11  1  0  0  0  0
  7  9  1  0  0  0  0
  7 11  2  0  0  0  0
  8 12  1  0  0  0  0
  9 12  2  0  0  0  0
  3 13  1  0  0  0  0
  3 14  1  0  0  0  0
  4 15  1  0  0  0  0
  5 16  1  0  0  0  0
  5 17  1  0  0  0  0
  6 18  1  0  0  0  0
  7 19  1  0  0  0  0
  8 20  1  0  0  0  0
  9 21  1  0  0  0  0
M  END
> <pdb_id>
4Y35

> <uniprot_id>
P11838

> <usmiles>
Clc1ccc(cc1)CSC(=N)N

$$$$
F98_A_501
          07192418183D 1   1.00000     0.00000     0
            
 24 23  0  0  0  0            999 V2000
   14.1893   -6.1159    1.5408 P   0  0  0  0  0  0  0  0  0  0  0  0
   15.4771   -5.7089    0.6810 O   0  0  0  0  0  0  0  0  0  0  0  0
   14.5878   -6.1968    3.0606 O   0  0  0  0  0  0  0  0  0  0  0  0
   13.4764   -7.3203    1.0182 O   0  0  0  0  0  0  0  0  0  0  0  0
   15.3172   -1.0648    0.9676 O   0  0  0  0  0  0  0  0  0  0  0  0
   14.4250    0.5727    2.7756 O   0  0  0  0  0  0  0  0  0  0  0  0
   14.0361   -1.1568    1.4038 N   0  0  0  0  0  0  0  0  0  0  0  0
   12.2432   -0.3609    2.8680 C   0  0  0  0  0  0  0  0  0  0  0  0
   13.0430   -4.7310    1.3743 C   0  0  0  0  0  0  0  0  0  0  0  0
   13.2159   -2.2563    0.9119 C   0  0  0  0  0  0  0  0  0  0  0  0
   13.6752   -3.4286    1.8000 C   0  0  0  0  0  0  0  0  0  0  0  0
   13.6685   -0.2881    2.3439 C   0  0  0  0  0  0  0  0  0  0  0  0
   15.2290   -5.6561   -0.2863 H   0  0  0  0  0  0  0  0  0  0  0  0
   13.7864   -6.4508    3.6022 H   0  0  0  0  0  0  0  0  0  0  0  0
   15.4819   -1.7599    0.2679 H   0  0  0  0  0  0  0  0  0  0  0  0
   11.7605   -1.1122    2.4180 H   0  0  0  0  0  0  0  0  0  0  0  0
   12.2588   -0.5186    3.8554 H   0  0  0  0  0  0  0  0  0  0  0  0
   11.7728    0.5003    2.6754 H   0  0  0  0  0  0  0  0  0  0  0  0
   12.2408   -4.9039    1.9458 H   0  0  0  0  0  0  0  0  0  0  0  0
   12.7611   -4.6569    0.4177 H   0  0  0  0  0  0  0  0  0  0  0  0
   13.3980   -2.4403   -0.0540 H   0  0  0  0  0  0  0  0  0  0  0  0
   12.2421   -2.0664    1.0372 H   0  0  0  0  0  0  0  0  0  0  0  0
   14.6694   -3.5143    1.7353 H   0  0  0  0  0  0  0  0  0  0  0  0
   13.4181   -3.2377    2.7474 H   0  0  0  0  0  0  0  0  0  0  0  0
  1  2  1  0  0  0  0
  1  3  1  0  0  0  0
  1  4  2  0  0  0  0
  1  9  1  0  0  0  0
  5  7  1  0  0  0  0
  6 12  2  0  0  0  0
  7 10  1  0  0  0  0
  7 12  1  0  0  0  0
  8 12  1  0  0  0  0
  9 11  1  0  0  0  0
 10 11  1  0  0  0  0
  2 13  1  0  0  0  0
  3 14  1  0  0  0  0
  5 15  1  0  0  0  0
  8 16  1  0  0  0  0
  8 17  1  0  0  0  0
  8 18  1  0  0  0  0
  9 19  1  0  0  0  0
  9 20  1  0  0  0  0
 10 21  1  0  0  0  0
 10 22  1  0  0  0  0
 11 23  1  0  0  0  0
 11 24  1  0  0  0  0
M  END
> <pdb_id>
4A03

> <uniprot_id>
P64012

> <usmiles>
P(=O)(O)(O)CCCN(O)C(=O)C

$$$$
F98_A_701
          07202406173D 1   1.00000     0.00000     0
            
 24 23  0  0  0  0            999 V2000
   -1.2109   15.8938   20.7860 P   0  0  0  0  0  0  0  0  0  0  0  0
   -1.3239   15.4677   19.3362 O   0  0  0  0  0  0  0  0  0  0  0  0
   -0.8312   17.3274   20.9352 O   0  0  0  0  0  0  0  0  0  0  0  0
   -2.4023   15.4878   21.6361 O   0  0  0  0  0  0  0  0  0  0  0  0
    3.9753   15.5727   20.8288 O   0  0  0  0  0  0  0  0  0  0  0  0
    4.7729   14.6526   18.5722 O   0  0  0  0  0  0  0  0  0  0  0  0
    3.4533   14.4089   20.2887 N   0  0  0  0  0  0  0  0  0  0  0  0
    3.3667   12.7650   18.5311 C   0  0  0  0  0  0  0  0  0  0  0  0
    0.1405   15.0415   21.4407 C   0  0  0  0  0  0  0  0  0  0  0  0
    2.3963   13.8237   21.1148 C   0  0  0  0  0  0  0  0  0  0  0  0
    1.1437   14.4433   20.4835 C   0  0  0  0  0  0  0  0  0  0  0  0
    3.9071   14.0212   19.1591 C   0  0  0  0  0  0  0  0  0  0  0  0
   -1.5796   14.5020   19.2916 H   0  0  0  0  0  0  0  0  0  0  0  0
   -0.7704   17.5567   21.9067 H   0  0  0  0  0  0  0  0  0  0  0  0
    3.5354   15.7591   21.7073 H   0  0  0  0  0  0  0  0  0  0  0  0
    2.6708   12.3663   19.1285 H   0  0  0  0  0  0  0  0  0  0  0  0
    2.9591   12.9842   17.6446 H   0  0  0  0  0  0  0  0  0  0  0  0
    4.1110   12.1096   18.4029 H   0  0  0  0  0  0  0  0  0  0  0  0
   -0.2225   14.2925   21.9950 H   0  0  0  0  0  0  0  0  0  0  0  0
    0.6369   15.6807   22.0281 H   0  0  0  0  0  0  0  0  0  0  0  0
    2.4922   14.0892   22.0741 H   0  0  0  0  0  0  0  0  0  0  0  0
    2.3865   12.8262   21.0443 H   0  0  0  0  0  0  0  0  0  0  0  0
    1.4419   15.1677   19.8620 H   0  0  0  0  0  0  0  0  0  0  0  0
    0.6788   13.7275   19.9625 H   0  0  0  0  0  0  0  0  0  0  0  0
  1  2  1  0  0  0  0
  1  3  1  0  0  0  0
  1  4  2  0  0  0  0
  1  9  1  0  0  0  0
  5  7  1  0  0  0  0
  6 12  2  0  0  0  0
  7 10  1  0  0  0  0
  7 12  1  0  0  0  0
  8 12  1  0  0  0  0
  9 11  1  0  0  0  0
 10 11  1  0  0  0  0
  2 13  1  0  0  0  0
  3 14  1  0  0  0  0
  5 15  1  0  0  0  0
  8 16  1  0  0  0  0
  8 17  1  0  0  0  0
  8 18  1  0  0  0  0
  9 19  1  0  0  0  0
  9 20  1  0  0  0  0
 10 21  1  0  0  0  0
 10 22  1  0  0  0  0
 11 23  1  0  0  0  0
 11 24  1  0  0  0  0
M  END
> <pdb_id>
3AUA

> <uniprot_id>
O96693

> <usmiles>
P(=O)(O)(O)CCCN(O)C(=O)C

$$$$
F9P_A_804
          07212402463D 1   1.00000     0.00000     0
            
 23 23  0  0  0  0            999 V2000
  -46.6919  -10.6003   25.7772 O   0  0  0  0  0  0  0  0  0  0  0  0
  -44.2000  -11.1019   25.7939 O   0  0  0  0  0  0  0  0  0  0  0  0
  -45.8643   -9.5712   26.0790 N   0  0  0  0  0  0  0  0  0  0  0  0
  -42.5021   -6.6841   28.1441 C   0  0  0  0  0  0  0  0  0  0  0  0
  -41.7282   -7.9930   28.0349 C   0  0  0  0  0  0  0  0  0  0  0  0
  -43.2060   -6.3726   26.8354 C   0  0  0  0  0  0  0  0  0  0  0  0
  -42.6674   -9.1260   27.6547 C   0  0  0  0  0  0  0  0  0  0  0  0
  -44.1705   -7.4982   26.4512 C   0  0  0  0  0  0  0  0  0  0  0  0
  -44.4704   -9.9478   26.0598 C   0  0  0  0  0  0  0  0  0  0  0  0
  -43.4655   -8.8521   26.3794 C   0  0  0  0  0  0  0  0  0  0  0  0
  -47.6403  -10.2845   25.8051 H   0  0  0  0  0  0  0  0  0  0  0  0
  -46.1847   -8.6483   26.2925 H   0  0  0  0  0  0  0  0  0  0  0  0
  -41.8665   -5.9430   28.3605 H   0  0  0  0  0  0  0  0  0  0  0  0
  -43.1821   -6.7636   28.8729 H   0  0  0  0  0  0  0  0  0  0  0  0
  -41.3011   -8.1990   28.9153 H   0  0  0  0  0  0  0  0  0  0  0  0
  -41.0204   -7.9012   27.3345 H   0  0  0  0  0  0  0  0  0  0  0  0
  -42.5224   -6.2667   26.1133 H   0  0  0  0  0  0  0  0  0  0  0  0
  -43.7203   -5.5208   26.9352 H   0  0  0  0  0  0  0  0  0  0  0  0
  -43.3110   -9.2698   28.4065 H   0  0  0  0  0  0  0  0  0  0  0  0
  -42.1249   -9.9547   27.5172 H   0  0  0  0  0  0  0  0  0  0  0  0
  -44.5676   -7.2926   25.5568 H   0  0  0  0  0  0  0  0  0  0  0  0
  -44.8980   -7.5484   27.1354 H   0  0  0  0  0  0  0  0  0  0  0  0
  -42.8147   -8.8115   25.6212 H   0  0  0  0  0  0  0  0  0  0  0  0
  1  3  1  0  0  0  0
  2  9  2  0  0  0  0
  3  9  1  0  0  0  0
  4  5  1  0  0  0  0
  4  6  1  0  0  0  0
  5  7  1  0  0  0  0
  6  8  1  0  0  0  0
  7 10  1  0  0  0  0
  8 10  1  0  0  0  0
  9 10  1  0  0  0  0
  1 11  1  0  0  0  0
  3 12  1  0  0  0  0
  4 13  1  0  0  0  0
  4 14  1  0  0  0  0
  5 15  1  0  0  0  0
  5 16  1  0  0  0  0
  6 17  1  0  0  0  0
  6 18  1  0  0  0  0
  7 19  1  0  0  0  0
  7 20  1  0  0  0  0
  8 21  1  0  0  0  0
  8 22  1  0  0  0  0
 10 23  1  0  0  0  0
M  END
> <pdb_id>
6CSQ

> <uniprot_id>
A7YT55

> <usmiles>
O=C(NO)C1CCCCC1

$$$$
F9Q_A_2401
          07202406043D 1   1.00000     0.00000     0
            
 33 35  0  0  0  0            999 V2000
   -3.0105    1.7310   15.2291 Cl  0  0  0  0  0  0  0  0  0  0  0  0
    0.5172    0.3176   20.1209 F   0  0  0  0  0  0  0  0  0  0  0  0
    1.7716    8.9895   18.6478 N   0  0  0  0  0  0  0  0  0  0  0  0
   -0.3634    8.5708   17.4623 N   0  0  0  0  0  0  0  0  0  0  0  0
   -1.3790    7.6845   17.0828 N   0  0  0  0  0  0  0  0  0  0  0  0
   -4.7138    3.7250   16.1105 N   0  0  0  0  0  0  0  0  0  0  0  0
    0.8038    6.7377   18.6684 N   0  0  0  0  0  0  0  0  0  0  0  0
   -6.4378    5.4663   16.8752 C   0  0  0  0  0  0  0  0  0  0  0  0
   -1.0304    2.2068   19.7578 C   0  0  0  0  0  0  0  0  0  0  0  0
    1.5249    2.3716   19.1914 C   0  0  0  0  0  0  0  0  0  0  0  0
   -1.2277    3.6315   19.3016 C   0  0  0  0  0  0  0  0  0  0  0  0
    1.3186    3.7925   18.7282 C   0  0  0  0  0  0  0  0  0  0  0  0
   -2.1900    4.1442   16.3987 C   0  0  0  0  0  0  0  0  0  0  0  0
   -3.8610    5.8941   17.1736 C   0  0  0  0  0  0  0  0  0  0  0  0
   -3.3362    3.2752   15.9487 C   0  0  0  0  0  0  0  0  0  0  0  0
    0.7440    8.0993   18.2632 C   0  0  0  0  0  0  0  0  0  0  0  0
    0.3449    1.5768   19.7102 C   0  0  0  0  0  0  0  0  0  0  0  0
   -5.0022    5.0182   16.7137 C   0  0  0  0  0  0  0  0  0  0  0  0
   -1.3381    6.3342   17.4740 C   0  0  0  0  0  0  0  0  0  0  0  0
   -0.2029    5.8482   18.3029 C   0  0  0  0  0  0  0  0  0  0  0  0
   -0.0546    4.4196   18.7718 C   0  0  0  0  0  0  0  0  0  0  0  0
   -2.4714    5.4442   17.0179 C   0  0  0  0  0  0  0  0  0  0  0  0
    2.5365    8.6608   19.2018 H   0  0  0  0  0  0  0  0  0  0  0  0
    1.7340    9.9483   18.3661 H   0  0  0  0  0  0  0  0  0  0  0  0
   -6.4588    6.3699   17.3031 H   0  0  0  0  0  0  0  0  0  0  0  0
   -6.8756    5.5124   15.9773 H   0  0  0  0  0  0  0  0  0  0  0  0
   -6.9281    4.8129   17.4520 H   0  0  0  0  0  0  0  0  0  0  0  0
   -1.8101    1.6776   20.0923 H   0  0  0  0  0  0  0  0  0  0  0  0
    2.4345    1.9576   19.1561 H   0  0  0  0  0  0  0  0  0  0  0  0
   -2.1334    4.0526   19.3503 H   0  0  0  0  0  0  0  0  0  0  0  0
    2.0962    4.3226   18.3900 H   0  0  0  0  0  0  0  0  0  0  0  0
   -1.2461    3.8375   16.2762 H   0  0  0  0  0  0  0  0  0  0  0  0
   -4.0523    6.7847   17.5862 H   0  0  0  0  0  0  0  0  0  0  0  0
  1 15  1  0  0  0  0
  2 17  1  0  0  0  0
  3 16  1  0  0  0  0
  4  5  1  0  0  0  0
  4 16  2  0  0  0  0
  5 19  2  0  0  0  0
  6 15  2  0  0  0  0
  6 18  1  0  0  0  0
  7 16  1  0  0  0  0
  7 20  2  0  0  0  0
  8 18  1  0  0  0  0
  9 11  2  0  0  0  0
  9 17  1  0  0  0  0
 10 12  1  0  0  0  0
 10 17  2  0  0  0  0
 11 21  1  0  0  0  0
 12 21  2  0  0  0  0
 13 15  1  0  0  0  0
 13 22  2  0  0  0  0
 14 18  2  0  0  0  0
 14 22  1  0  0  0  0
 19 20  1  0  0  0  0
 19 22  1  0  0  0  0
 20 21  1  0  0  0  0
  3 23  1  0  0  0  0
  3 24  1  0  0  0  0
  8 25  1  0  0  0  0
  8 26  1  0  0  0  0
  8 27  1  0  0  0  0
  9 28  1  0  0  0  0
 10 29  1  0  0  0  0
 11 30  1  0  0  0  0
 12 31  1  0  0  0  0
 13 32  1  0  0  0  0
 14 33  1  0  0  0  0
M  END
> <pdb_id>
6GT3

> <uniprot_id>
P29274

> <usmiles>
Clc1nc(cc(c2nnc(nc2c3ccc(F)cc3)N)c1)C

$$$$
FA0_B_601
          07202415313D 1   1.00000     0.00000     0
            
 17 17  0  0  0  0            999 V2000
    0.6906  -30.5032   32.0791 F   0  0  0  0  0  0  0  0  0  0  0  0
    5.1594  -34.8993   32.8843 O   0  0  0  0  0  0  0  0  0  0  0  0
    4.2287  -35.7991   31.0961 O   0  0  0  0  0  0  0  0  0  0  0  0
    1.5997  -34.8947   30.5821 N   0  0  0  0  0  0  0  0  0  0  0  0
    2.7202  -31.5454   32.7128 C   0  0  0  0  0  0  0  0  0  0  0  0
    3.5797  -32.6328   32.6728 C   0  0  0  0  0  0  0  0  0  0  0  0
    1.1470  -32.7333   31.3374 C   0  0  0  0  0  0  0  0  0  0  0  0
    1.5062  -31.5917   32.0430 C   0  0  0  0  0  0  0  0  0  0  0  0
    4.2715  -34.9266   31.9929 C   0  0  0  0  0  0  0  0  0  0  0  0
    2.0075  -33.8272   31.2819 C   0  0  0  0  0  0  0  0  0  0  0  0
    3.2389  -33.7778   31.9659 C   0  0  0  0  0  0  0  0  0  0  0  0
    5.1486  -34.1799   33.5789 H   0  0  0  0  0  0  0  0  0  0  0  0
    2.1855  -35.7024   30.5154 H   0  0  0  0  0  0  0  0  0  0  0  0
    0.7095  -34.8836   30.1265 H   0  0  0  0  0  0  0  0  0  0  0  0
    2.9760  -30.7259   33.2257 H   0  0  0  0  0  0  0  0  0  0  0  0
    4.4533  -32.5917   33.1577 H   0  0  0  0  0  0  0  0  0  0  0  0
    0.2656  -32.7699   30.8666 H   0  0  0  0  0  0  0  0  0  0  0  0
  1  8  1  0  0  0  0
  2  9  1  0  0  0  0
  3  9  2  0  0  0  0
  4 10  1  0  0  0  0
  5  6  1  0  0  0  0
  5  8  2  0  0  0  0
  6 11  2  0  0  0  0
  7  8  1  0  0  0  0
  7 10  2  0  0  0  0
  9 11  1  0  0  0  0
 10 11  1  0  0  0  0
  2 12  1  0  0  0  0
  4 13  1  0  0  0  0
  4 14  1  0  0  0  0
  5 15  1  0  0  0  0
  6 16  1  0  0  0  0
  7 17  1  0  0  0  0
M  END
> <pdb_id>
4N8Q

> <uniprot_id>
P66992

> <usmiles>
Fc1cc(N)c(cc1)C(=O)O

$$$$
FA1_B_148
          07192422283D 1   1.00000     0.00000     0
            
 22 22  0  0  0  0            999 V2000
   31.3173   42.5501    6.1856 O   0  0  0  0  0  0  0  0  0  0  0  0
   29.3580   42.6180    4.7854 O   0  0  0  0  0  0  0  0  0  0  0  0
   28.0989   45.3538   10.6863 O   0  0  0  0  0  0  0  0  0  0  0  0
   29.6130   42.7788   10.9120 O   0  0  0  0  0  0  0  0  0  0  0  0
   27.9199   42.2073    7.0619 O   0  0  0  0  0  0  0  0  0  0  0  0
   28.4681   45.2844    8.3428 C   0  0  0  0  0  0  0  0  0  0  0  0
   28.4936   44.4292    7.2257 C   0  0  0  0  0  0  0  0  0  0  0  0
   29.7859   42.7441    8.5280 C   0  0  0  0  0  0  0  0  0  0  0  0
   29.9685   43.0777    5.9588 C   0  0  0  0  0  0  0  0  0  0  0  0
   28.9527   44.7908    9.7265 C   0  0  2  0  0  0  0  0  0  0  0  0
   28.9620   43.2372    9.7601 C   0  0  2  0  0  0  0  0  0  0  0  0
   29.0196   43.1089    7.2180 C   0  0  1  0  0  0  0  0  0  0  0  0
   31.8309   42.8234    6.9989 H   0  0  0  0  0  0  0  0  0  0  0  0
   28.3810   45.0568   11.5985 H   0  0  0  0  0  0  0  0  0  0  0  0
   29.1087   43.0788   11.7217 H   0  0  0  0  0  0  0  0  0  0  0  0
   28.2588   41.2665    7.0527 H   0  0  0  0  0  0  0  0  0  0  0  0
   28.1332   46.2211    8.2411 H   0  0  0  0  0  0  0  0  0  0  0  0
   28.1116   44.7778    6.3699 H   0  0  0  0  0  0  0  0  0  0  0  0
   29.9051   41.7526    8.5805 H   0  0  0  0  0  0  0  0  0  0  0  0
   30.6821   43.1878    8.5257 H   0  0  0  0  0  0  0  0  0  0  0  0
   29.8823   45.1245    9.8830 H   0  0  0  0  0  0  0  0  0  0  0  0
   28.0283   42.8812    9.7212 H   0  0  0  0  0  0  0  0  0  0  0  0
  1  9  1  0  0  0  0
  2  9  2  0  0  0  0
  3 10  1  0  0  0  0
  4 11  1  0  0  0  0
  5 12  1  0  0  0  0
  6  7  2  0  0  0  0
  6 10  1  0  0  0  0
  7 12  1  0  0  0  0
  8 11  1  0  0  0  0
  8 12  1  0  0  0  0
  9 12  1  0  0  0  0
 10 11  1  0  0  0  0
  1 13  1  0  0  0  0
  3 14  1  0  0  0  0
  4 15  1  0  0  0  0
  5 16  1  0  0  0  0
  6 17  1  0  0  0  0
  7 18  1  0  0  0  0
  8 19  1  0  0  0  0
  8 20  1  0  0  0  0
 10 21  1  0  0  0  0
 11 22  1  0  0  0  0
M  END
> <pdb_id>
3N7A

> <uniprot_id>
P0A4Z6

> <usmiles>
O=C(O)[C@]1(O)C=C[C@@H](O)[C@H](O)C1

$$$$
FA1_N_147
          07192422283D 1   1.00000     0.00000     0
            
 22 22  0  0  0  0            999 V2000
   31.1336   42.6667    6.1237 O   0  0  0  0  0  0  0  0  0  0  0  0
   29.2624   42.6791    4.7903 O   0  0  0  0  0  0  0  0  0  0  0  0
   29.7029   42.8335   11.1909 O   0  0  0  0  0  0  0  0  0  0  0  0
   28.0198   45.2068   10.6041 O   0  0  0  0  0  0  0  0  0  0  0  0
   27.8876   42.3440    7.1636 O   0  0  0  0  0  0  0  0  0  0  0  0
   29.9264   42.4863    9.0493 C   0  0  0  0  0  0  0  0  0  0  0  0
   29.8158   42.7512    7.6832 C   0  0  0  0  0  0  0  0  0  0  0  0
   28.6639   44.7629    8.0337 C   0  0  0  0  0  0  0  0  0  0  0  0
   29.8172   43.3273    5.8269 C   0  0  0  0  0  0  0  0  0  0  0  0
   28.9746   43.0461    9.9958 C   0  0  2  0  0  0  0  0  0  0  0  0
   28.9006   44.5302    9.6335 C   0  0  2  0  0  0  0  0  0  0  0  0
   28.8142   43.4762    7.0342 C   0  0  2  0  0  0  0  0  0  0  0  0
   31.7064   43.0062    6.8697 H   0  0  0  0  0  0  0  0  0  0  0  0
   29.1738   43.1730   11.9686 H   0  0  0  0  0  0  0  0  0  0  0  0
   28.2963   44.9607   11.5331 H   0  0  0  0  0  0  0  0  0  0  0  0
   27.0078   42.5847    6.7539 H   0  0  0  0  0  0  0  0  0  0  0  0
   30.6690   41.9046    9.3811 H   0  0  0  0  0  0  0  0  0  0  0  0
   30.5384   42.3782    7.1013 H   0  0  0  0  0  0  0  0  0  0  0  0
   29.3249   45.4505    7.7331 H   0  0  0  0  0  0  0  0  0  0  0  0
   27.7367   45.1198    7.9201 H   0  0  0  0  0  0  0  0  0  0  0  0
   28.0856   42.5885    9.9844 H   0  0  0  0  0  0  0  0  0  0  0  0
   29.8157   44.8895    9.8168 H   0  0  0  0  0  0  0  0  0  0  0  0
  1  9  1  0  0  0  0
  2  9  2  0  0  0  0
  3 10  1  0  0  0  0
  4 11  1  0  0  0  0
  5 12  1  0  0  0  0
  6  7  2  0  0  0  0
  6 10  1  0  0  0  0
  7 12  1  0  0  0  0
  8 11  1  0  0  0  0
  8 12  1  0  0  0  0
  9 12  1  0  0  0  0
 10 11  1  0  0  0  0
  1 13  1  0  0  0  0
  3 14  1  0  0  0  0
  4 15  1  0  0  0  0
  5 16  1  0  0  0  0
  6 17  1  0  0  0  0
  7 18  1  0  0  0  0
  8 19  1  0  0  0  0
  8 20  1  0  0  0  0
 10 21  1  0  0  0  0
 11 22  1  0  0  0  0
M  END
> <pdb_id>
3N7A

> <uniprot_id>
P0A4Z6

> <usmiles>
O=C(O)[C@@]1(O)C=C[C@@H](O)[C@H](O)C1

$$$$
FB1_A_1263
          07192416293D 1   1.00000     0.00000     0
            
 17 17  0  0  0  0            999 V2000
   -6.8831    3.8928   17.5121 Cl  0  0  0  0  0  0  0  0  0  0  0  0
   -5.9710    0.9193   16.8965 S   0  0  0  0  0  0  0  0  0  0  0  0
   -5.5277    1.0679   18.2190 O   0  0  0  0  0  0  0  0  0  0  0  0
   -7.4020    0.8831   16.8762 O   0  0  0  0  0  0  0  0  0  0  0  0
   -5.4870   -0.4645   16.2196 N   0  0  0  0  0  0  0  0  0  0  0  0
   -4.7565    4.4367   14.3054 C   0  0  0  0  0  0  0  0  0  0  0  0
   -4.3169    3.1512   14.0380 C   0  0  0  0  0  0  0  0  0  0  0  0
   -5.5837    4.6108   15.3788 C   0  0  0  0  0  0  0  0  0  0  0  0
   -4.6795    2.0807   14.8477 C   0  0  0  0  0  0  0  0  0  0  0  0
   -5.9223    3.5394   16.2065 C   0  0  0  0  0  0  0  0  0  0  0  0
   -5.4986    2.2342   15.9812 C   0  0  0  0  0  0  0  0  0  0  0  0
   -5.8310   -0.5151   15.2820 H   0  0  0  0  0  0  0  0  0  0  0  0
   -4.4877   -0.4995   16.2104 H   0  0  0  0  0  0  0  0  0  0  0  0
   -4.4789    5.2090   13.7340 H   0  0  0  0  0  0  0  0  0  0  0  0
   -3.7270    2.9895   13.2468 H   0  0  0  0  0  0  0  0  0  0  0  0
   -5.9521    5.5196   15.5743 H   0  0  0  0  0  0  0  0  0  0  0  0
   -4.3454    1.1672   14.6156 H   0  0  0  0  0  0  0  0  0  0  0  0
  1 10  1  0  0  0  0
  2  3  2  0  0  0  0
  2  4  2  0  0  0  0
  2  5  1  0  0  0  0
  2 11  1  0  0  0  0
  6  7  2  0  0  0  0
  6  8  1  0  0  0  0
  7  9  1  0  0  0  0
  8 10  2  0  0  0  0
  9 11  2  0  0  0  0
 10 11  1  0  0  0  0
  5 12  1  0  0  0  0
  5 13  1  0  0  0  0
  6 14  1  0  0  0  0
  7 15  1  0  0  0  0
  8 16  1  0  0  0  0
  9 17  1  0  0  0  0
M  END
> <pdb_id>
2WEH

> <uniprot_id>
P00918

> <usmiles>
Clc1c(S(=O)(=O)N)cccc1

$$$$
FB2_A_302
          07192416293D 1   1.00000     0.00000     0
            
 17 17  0  0  0  0            999 V2000
   -5.9749    0.9658   16.9619 S   0  0  0  0  0  0  0  0  0  0  0  0
   -5.4198    1.0355   18.3125 O   0  0  0  0  0  0  0  0  0  0  0  0
   -7.4227    1.0083   16.8208 O   0  0  0  0  0  0  0  0  0  0  0  0
   -5.3737   -0.3004   16.1592 N   0  0  0  0  0  0  0  0  0  0  0  0
   -4.4693    4.7282   14.8837 C   0  0  0  0  0  0  0  0  0  0  0  0
   -5.8327    4.5970   15.1932 C   0  0  0  0  0  0  0  0  0  0  0  0
   -3.5857    3.7122   15.2257 C   0  0  0  0  0  0  0  0  0  0  0  0
   -6.2935    3.4547   15.8267 C   0  0  0  0  0  0  0  0  0  0  0  0
   -4.0285    2.5439   15.8583 C   0  0  0  0  0  0  0  0  0  0  0  0
   -5.4159    2.4326   16.1627 C   0  0  0  0  0  0  0  0  0  0  0  0
   -5.7660   -0.3290   15.2398 H   0  0  0  0  0  0  0  0  0  0  0  0
   -4.3796   -0.2128   16.0949 H   0  0  0  0  0  0  0  0  0  0  0  0
   -4.1361    5.5489   14.4195 H   0  0  0  0  0  0  0  0  0  0  0  0
   -6.4716    5.3289   14.9560 H   0  0  0  0  0  0  0  0  0  0  0  0
   -2.6137    3.8173   15.0159 H   0  0  0  0  0  0  0  0  0  0  0  0
   -7.2656    3.3654   16.0437 H   0  0  0  0  0  0  0  0  0  0  0  0
   -3.3901    1.8098   16.0894 H   0  0  0  0  0  0  0  0  0  0  0  0
  1  2  2  0  0  0  0
  1  3  2  0  0  0  0
  1  4  1  0  0  0  0
  1 10  1  0  0  0  0
  5  6  2  0  0  0  0
  5  7  1  0  0  0  0
  6  8  1  0  0  0  0
  7  9  2  0  0  0  0
  8 10  2  0  0  0  0
  9 10  1  0  0  0  0
  4 11  1  0  0  0  0
  4 12  1  0  0  0  0
  5 13  1  0  0  0  0
  6 14  1  0  0  0  0
  7 15  1  0  0  0  0
  8 16  1  0  0  0  0
  9 17  1  0  0  0  0
M  END
> <pdb_id>
5NYA

> <uniprot_id>
P00918

> <usmiles>
S(=O)(=O)(N)c1ccccc1

$$$$
FB2_A_304
          07212402173D 1   1.00000     0.00000     0
            
 17 17  0  0  0  0            999 V2000
   14.3339    0.6246   83.7490 S   0  0  0  0  0  0  0  0  0  0  0  0
   13.4810   -0.6064   83.8999 O   0  0  0  0  0  0  0  0  0  0  0  0
   13.7108    1.9292   83.3005 O   0  0  0  0  0  0  0  0  0  0  0  0
   15.0864    0.8831   85.1281 N   0  0  0  0  0  0  0  0  0  0  0  0
   17.4194   -0.5877   80.5493 C   0  0  0  0  0  0  0  0  0  0  0  0
   16.9771   -1.5222   81.5000 C   0  0  0  0  0  0  0  0  0  0  0  0
   16.8867    0.7029   80.5814 C   0  0  0  0  0  0  0  0  0  0  0  0
   16.0153   -1.1873   82.4903 C   0  0  0  0  0  0  0  0  0  0  0  0
   15.9567    1.0719   81.5666 C   0  0  0  0  0  0  0  0  0  0  0  0
   15.5376    0.1272   82.5268 C   0  0  0  0  0  0  0  0  0  0  0  0
   15.6593    1.6988   85.0475 H   0  0  0  0  0  0  0  0  0  0  0  0
   14.4130    1.0193   85.8548 H   0  0  0  0  0  0  0  0  0  0  0  0
   18.1017   -0.8412   79.8636 H   0  0  0  0  0  0  0  0  0  0  0  0
   17.3500   -2.4499   81.4792 H   0  0  0  0  0  0  0  0  0  0  0  0
   17.1709    1.3720   79.8947 H   0  0  0  0  0  0  0  0  0  0  0  0
   15.6890   -1.8715   83.1426 H   0  0  0  0  0  0  0  0  0  0  0  0
   15.5921    2.0028   81.5875 H   0  0  0  0  0  0  0  0  0  0  0  0
  1  2  2  0  0  0  0
  1  3  2  0  0  0  0
  1  4  1  0  0  0  0
  1 10  1  0  0  0  0
  5  6  2  0  0  0  0
  5  7  1  0  0  0  0
  6  8  1  0  0  0  0
  7  9  2  0  0  0  0
  8 10  2  0  0  0  0
  9 10  1  0  0  0  0
  4 11  1  0  0  0  0
  4 12  1  0  0  0  0
  5 13  1  0  0  0  0
  6 14  1  0  0  0  0
  7 15  1  0  0  0  0
  8 16  1  0  0  0  0
  9 17  1  0  0  0  0
M  END
> <pdb_id>
4JSA

> <uniprot_id>
P00918

> <usmiles>
S(=O)(=O)(N)c1ccccc1

$$$$
FB2_A_504
          07202413213D 1   1.00000     0.00000     0
            
 17 17  0  0  0  0            999 V2000
    9.9650   -7.2831   26.1211 S   0  0  0  0  0  0  0  0  0  0  0  0
   10.8161   -7.1860   24.9714 O   0  0  0  0  0  0  0  0  0  0  0  0
    8.6188   -6.8083   26.0279 O   0  0  0  0  0  0  0  0  0  0  0  0
    9.9026   -8.8270   26.5364 N   0  0  0  0  0  0  0  0  0  0  0  0
   11.8448   -4.8309   29.4288 C   0  0  0  0  0  0  0  0  0  0  0  0
   11.9426   -4.4102   28.1133 C   0  0  0  0  0  0  0  0  0  0  0  0
   11.1667   -5.9942   29.7360 C   0  0  0  0  0  0  0  0  0  0  0  0
   11.3724   -5.1566   27.1064 C   0  0  0  0  0  0  0  0  0  0  0  0
   10.6090   -6.7517   28.7331 C   0  0  0  0  0  0  0  0  0  0  0  0
   10.7131   -6.3341   27.4155 C   0  0  0  0  0  0  0  0  0  0  0  0
   10.5812   -9.3178   26.2648 H   0  0  0  0  0  0  0  0  0  0  0  0
    9.5375   -9.0014   27.3203 H   0  0  0  0  0  0  0  0  0  0  0  0
   12.2351   -4.3175   30.1187 H   0  0  0  0  0  0  0  0  0  0  0  0
   12.4014   -3.6132   27.9077 H   0  0  0  0  0  0  0  0  0  0  0  0
   11.1099   -6.2802   30.6282 H   0  0  0  0  0  0  0  0  0  0  0  0
   11.4405   -4.8735   26.2076 H   0  0  0  0  0  0  0  0  0  0  0  0
   10.1531   -7.5367   28.9410 H   0  0  0  0  0  0  0  0  0  0  0  0
  1  2  2  0  0  0  0
  1  3  2  0  0  0  0
  1  4  1  0  0  0  0
  1 10  1  0  0  0  0
  4 11  1  0  0  0  0
  4 12  1  0  0  0  0
  5  6  2  0  0  0  0
  5  7  1  0  0  0  0
  5 13  1  0  0  0  0
  6  8  1  0  0  0  0
  6 14  1  0  0  0  0
  7  9  2  0  0  0  0
  7 15  1  0  0  0  0
  8 10  2  0  0  0  0
  8 16  1  0  0  0  0
  9 10  1  0  0  0  0
  9 17  1  0  0  0  0
M  END
> <pdb_id>
5JAD

> <uniprot_id>
Q13093

> <usmiles>
S(=O)(=O)(N)c1ccccc1

$$$$
FBM_B_805
          07212402463D 1   1.00000     0.00000     0
            
 21 21  0  0  0  0            999 V2000
  -44.1392  -11.0708   25.8913 O   0  0  0  0  0  0  0  0  0  0  0  0
  -46.6796  -10.6476   25.6443 O   0  0  0  0  0  0  0  0  0  0  0  0
  -45.8273   -9.6312   26.0456 N   0  0  0  0  0  0  0  0  0  0  0  0
  -44.0000   -7.4747   26.6320 C   0  0  0  0  0  0  0  0  0  0  0  0
  -43.0586   -6.4409   27.1486 C   0  0  0  0  0  0  0  0  0  0  0  0
  -42.2237   -6.9282   28.3002 C   0  0  0  0  0  0  0  0  0  0  0  0
  -41.5200   -8.2386   27.9396 C   0  0  0  0  0  0  0  0  0  0  0  0
  -42.3921   -9.2634   27.2344 C   0  0  0  0  0  0  0  0  0  0  0  0
  -44.5137   -9.9149   26.1639 C   0  0  0  0  0  0  0  0  0  0  0  0
  -43.6460   -8.7985   26.6441 C   0  0  0  0  0  0  0  0  0  0  0  0
  -47.0993  -10.8965   26.3400 H   0  0  0  0  0  0  0  0  0  0  0  0
  -46.1929   -8.8735   26.2257 H   0  0  0  0  0  0  0  0  0  0  0  0
  -44.7941   -7.1579   26.2664 H   0  0  0  0  0  0  0  0  0  0  0  0
  -42.4940   -6.0901   26.4425 H   0  0  0  0  0  0  0  0  0  0  0  0
  -43.6083   -5.6919   27.4255 H   0  0  0  0  0  0  0  0  0  0  0  0
  -42.7862   -7.0519   29.0799 H   0  0  0  0  0  0  0  0  0  0  0  0
  -41.5856   -6.2533   28.5814 H   0  0  0  0  0  0  0  0  0  0  0  0
  -40.7327   -8.0472   27.4060 H   0  0  0  0  0  0  0  0  0  0  0  0
  -41.1590   -8.6363   28.7477 H   0  0  0  0  0  0  0  0  0  0  0  0
  -42.6536   -9.9451   27.8721 H   0  0  0  0  0  0  0  0  0  0  0  0
  -41.8613   -9.7488   26.5838 H   0  0  0  0  0  0  0  0  0  0  0  0
  1  9  2  0  0  0  0
  2  3  1  0  0  0  0
  2 11  1  0  0  0  0
  3  9  1  0  0  0  0
  3 12  1  0  0  0  0
  4  5  1  0  0  0  0
  4 10  2  0  0  0  0
  4 13  1  0  0  0  0
  5  6  1  0  0  0  0
  5 14  1  0  0  0  0
  5 15  1  0  0  0  0
  6  7  1  0  0  0  0
  6 16  1  0  0  0  0
  6 17  1  0  0  0  0
  7  8  1  0  0  0  0
  7 18  1  0  0  0  0
  7 19  1  0  0  0  0
  8 10  1  0  0  0  0
  8 20  1  0  0  0  0
  8 21  1  0  0  0  0
  9 10  1  0  0  0  0
M  END
> <pdb_id>
6CSP

> <uniprot_id>
A7YT55

> <usmiles>
O=C(NO)C1=CCCCC1

$$$$
FBS_A_304
          07192416293D 1   1.00000     0.00000     0
            
 17 17  0  0  0  0            999 V2000
   -5.9593    0.9034   16.9304 S   0  0  0  0  0  0  0  0  0  0  0  0
   -4.0739    5.7422   14.2163 F   0  0  0  0  0  0  0  0  0  0  0  0
   -5.4191    1.0168   18.2437 O   0  0  0  0  0  0  0  0  0  0  0  0
   -7.4024    0.9530   16.7966 O   0  0  0  0  0  0  0  0  0  0  0  0
   -5.4050   -0.3755   16.1865 N   0  0  0  0  0  0  0  0  0  0  0  0
   -6.2931    3.3595   15.7592 C   0  0  0  0  0  0  0  0  0  0  0  0
   -4.0528    2.4686   15.7245 C   0  0  0  0  0  0  0  0  0  0  0  0
   -5.8425    4.5051   15.1242 C   0  0  0  0  0  0  0  0  0  0  0  0
   -3.6102    3.6211   15.0966 C   0  0  0  0  0  0  0  0  0  0  0  0
   -5.3987    2.3404   16.0489 C   0  0  0  0  0  0  0  0  0  0  0  0
   -4.5195    4.6070   14.8175 C   0  0  0  0  0  0  0  0  0  0  0  0
   -5.8020   -0.4263   15.2701 H   0  0  0  0  0  0  0  0  0  0  0  0
   -4.4094   -0.3144   16.1155 H   0  0  0  0  0  0  0  0  0  0  0  0
   -7.2575    3.2681   16.0072 H   0  0  0  0  0  0  0  0  0  0  0  0
   -3.4095    1.7347   15.9429 H   0  0  0  0  0  0  0  0  0  0  0  0
   -6.4768    5.2435   14.8952 H   0  0  0  0  0  0  0  0  0  0  0  0
   -2.6469    3.7312   14.8519 H   0  0  0  0  0  0  0  0  0  0  0  0
  1  3  2  0  0  0  0
  1  4  2  0  0  0  0
  1  5  1  0  0  0  0
  1 10  1  0  0  0  0
  2 11  1  0  0  0  0
  6  8  2  0  0  0  0
  6 10  1  0  0  0  0
  7  9  1  0  0  0  0
  7 10  2  0  0  0  0
  8 11  1  0  0  0  0
  9 11  2  0  0  0  0
  5 12  1  0  0  0  0
  5 13  1  0  0  0  0
  6 14  1  0  0  0  0
  7 15  1  0  0  0  0
  8 16  1  0  0  0  0
  9 17  1  0  0  0  0
M  END
> <pdb_id>
6RKN

> <uniprot_id>
P00918

> <usmiles>
S(=O)(=O)(N)c1ccc(F)cc1

$$$$
FBV_A_1263
          07192416293D 1   1.00000     0.00000     0
            
 17 17  0  0  0  0            999 V2000
   -5.9384    1.0201   16.8384 S   0  0  0  0  0  0  0  0  0  0  0  0
   -3.0726    1.4831   16.2276 F   0  0  0  0  0  0  0  0  0  0  0  0
   -5.3590    1.1932   18.1839 O   0  0  0  0  0  0  0  0  0  0  0  0
   -7.3432    1.1602   16.6607 O   0  0  0  0  0  0  0  0  0  0  0  0
   -5.4620   -0.3656   16.1895 N   0  0  0  0  0  0  0  0  0  0  0  0
   -5.4149    4.3694   14.5659 C   0  0  0  0  0  0  0  0  0  0  0  0
   -4.0366    4.3987   14.3764 C   0  0  0  0  0  0  0  0  0  0  0  0
   -6.0380    3.3637   15.3241 C   0  0  0  0  0  0  0  0  0  0  0  0
   -3.2395    3.4352   14.9190 C   0  0  0  0  0  0  0  0  0  0  0  0
   -5.2420    2.3213   15.8812 C   0  0  0  0  0  0  0  0  0  0  0  0
   -3.8306    2.4363   15.6411 C   0  0  0  0  0  0  0  0  0  0  0  0
   -5.8650   -0.4635   15.2795 H   0  0  0  0  0  0  0  0  0  0  0  0
   -4.4648   -0.3733   16.1150 H   0  0  0  0  0  0  0  0  0  0  0  0
   -5.9777    5.0841   14.1508 H   0  0  0  0  0  0  0  0  0  0  0  0
   -3.6268    5.1340   13.8366 H   0  0  0  0  0  0  0  0  0  0  0  0
   -7.0271    3.3793   15.4708 H   0  0  0  0  0  0  0  0  0  0  0  0
   -2.2479    3.4585   14.7920 H   0  0  0  0  0  0  0  0  0  0  0  0
  1  3  2  0  0  0  0
  1  4  2  0  0  0  0
  1  5  1  0  0  0  0
  1 10  1  0  0  0  0
  2 11  1  0  0  0  0
  6  7  2  0  0  0  0
  6  8  1  0  0  0  0
  7  9  1  0  0  0  0
  8 10  2  0  0  0  0
  9 11  2  0  0  0  0
 10 11  1  0  0  0  0
  5 12  1  0  0  0  0
  5 13  1  0  0  0  0
  6 14  1  0  0  0  0
  7 15  1  0  0  0  0
  8 16  1  0  0  0  0
  9 17  1  0  0  0  0
M  END
> <pdb_id>
2WEG

> <uniprot_id>
P00918

> <usmiles>
S(=O)(=O)(N)c1c(F)cccc1

$$$$
FBW_A_1263
          07192416293D 1   1.00000     0.00000     0
            
 17 17  0  0  0  0            999 V2000
   -5.8859    0.9796   16.8225 S   0  0  0  0  0  0  0  0  0  0  0  0
   -6.2207    5.4594   14.4834 F   0  0  0  0  0  0  0  0  0  0  0  0
   -5.3589    1.1498   18.1401 O   0  0  0  0  0  0  0  0  0  0  0  0
   -7.3203    1.0940   16.6877 O   0  0  0  0  0  0  0  0  0  0  0  0
   -5.3536   -0.4054   16.2138 N   0  0  0  0  0  0  0  0  0  0  0  0
   -3.2949    3.3319   14.8698 C   0  0  0  0  0  0  0  0  0  0  0  0
   -3.8499    2.2639   15.5907 C   0  0  0  0  0  0  0  0  0  0  0  0
   -4.0785    4.4111   14.5012 C   0  0  0  0  0  0  0  0  0  0  0  0
   -5.9902    3.3390   15.5535 C   0  0  0  0  0  0  0  0  0  0  0  0
   -5.2184    2.2321   15.9524 C   0  0  0  0  0  0  0  0  0  0  0  0
   -5.4292    4.4090   14.8367 C   0  0  0  0  0  0  0  0  0  0  0  0
   -5.7209   -0.5272   15.2917 H   0  0  0  0  0  0  0  0  0  0  0  0
   -4.3545   -0.3905   16.1754 H   0  0  0  0  0  0  0  0  0  0  0  0
   -2.3266    3.3131   14.6207 H   0  0  0  0  0  0  0  0  0  0  0  0
   -3.2605    1.5012   15.8573 H   0  0  0  0  0  0  0  0  0  0  0  0
   -3.6805    5.1805   14.0016 H   0  0  0  0  0  0  0  0  0  0  0  0
   -6.9624    3.3646   15.7862 H   0  0  0  0  0  0  0  0  0  0  0  0
  1  3  2  0  0  0  0
  1  4  2  0  0  0  0
  1  5  1  0  0  0  0
  1 10  1  0  0  0  0
  2 11  1  0  0  0  0
  6  7  2  0  0  0  0
  6  8  1  0  0  0  0
  7 10  1  0  0  0  0
  8 11  2  0  0  0  0
  9 10  2  0  0  0  0
  9 11  1  0  0  0  0
  5 12  1  0  0  0  0
  5 13  1  0  0  0  0
  6 14  1  0  0  0  0
  7 15  1  0  0  0  0
  8 16  1  0  0  0  0
  9 17  1  0  0  0  0
M  END
> <pdb_id>
2WEO

> <uniprot_id>
P00918

> <usmiles>
S(=O)(=O)(N)c1cc(F)ccc1

$$$$
FC2_A_999
          07192422123D 1   1.00000     0.00000     0
            
 22 23  0  0  0  0            999 V2000
    6.8843    2.7127   -3.7669 Cl  0  0  0  0  0  0  0  0  0  0  0  0
   11.9481   -0.6862   -2.2740 Cl  0  0  0  0  0  0  0  0  0  0  0  0
    7.0085    0.0706    2.7567 O   0  0  0  0  0  0  0  0  0  0  0  0
    8.6380   -0.2035    4.1622 O   0  0  0  0  0  0  0  0  0  0  0  0
    8.7721    0.3713    0.6225 O   0  0  0  0  0  0  0  0  0  0  0  0
    9.1515    1.3255   -4.3762 C   0  0  0  0  0  0  0  0  0  0  0  0
   10.2994    0.5535   -4.0237 C   0  0  0  0  0  0  0  0  0  0  0  0
   10.5575    0.1139    1.8980 C   0  0  0  0  0  0  0  0  0  0  0  0
   10.9841    0.3275    0.5483 C   0  0  0  0  0  0  0  0  0  0  0  0
    8.5320    1.4990   -2.0159 C   0  0  0  0  0  0  0  0  0  0  0  0
    8.2720    1.7925   -3.3696 C   0  0  0  0  0  0  0  0  0  0  0  0
    8.2378   -0.0039    2.9995 C   0  0  0  0  0  0  0  0  0  0  0  0
   10.5710    0.2477   -2.6605 C   0  0  0  0  0  0  0  0  0  0  0  0
    9.1758    0.1529    1.8842 C   0  0  0  0  0  0  0  0  0  0  0  0
    9.8382    0.4802   -0.2018 C   0  0  0  0  0  0  0  0  0  0  0  0
    9.6732    0.7316   -1.6455 C   0  0  0  0  0  0  0  0  0  0  0  0
    6.6923    0.2310    1.8216 H   0  0  0  0  0  0  0  0  0  0  0  0
    8.9681    1.5369   -5.3362 H   0  0  0  0  0  0  0  0  0  0  0  0
   10.9166    0.2256   -4.7390 H   0  0  0  0  0  0  0  0  0  0  0  0
   11.1438   -0.0344    2.6943 H   0  0  0  0  0  0  0  0  0  0  0  0
   11.9266    0.3596    0.2157 H   0  0  0  0  0  0  0  0  0  0  0  0
    7.9091    1.8329   -1.3085 H   0  0  0  0  0  0  0  0  0  0  0  0
  1 11  1  0  0  0  0
  2 13  1  0  0  0  0
  3 12  1  0  0  0  0
  4 12  2  0  0  0  0
  5 14  1  0  0  0  0
  5 15  1  0  0  0  0
  6  7  1  0  0  0  0
  6 11  2  0  0  0  0
  7 13  2  0  0  0  0
  8  9  1  0  0  0  0
  8 14  2  0  0  0  0
  9 15  2  0  0  0  0
 10 11  1  0  0  0  0
 10 16  2  0  0  0  0
 12 14  1  0  0  0  0
 13 16  1  0  0  0  0
 15 16  1  0  0  0  0
  3 17  1  0  0  0  0
  6 18  1  0  0  0  0
  7 19  1  0  0  0  0
  8 20  1  0  0  0  0
  9 21  1  0  0  0  0
 10 22  1  0  0  0  0
M  END
> <pdb_id>
2EVM

> <uniprot_id>
P0AE18

> <usmiles>
Clc1c(cc(Cl)cc1)C=2OC(C(=O)O)=CC2

$$$$
FCD_A_268
          07192422123D 1   1.00000     0.00000     0
            
 22 23  0  0  0  0            999 V2000
   11.6141   -0.6639   -2.3011 Cl  0  0  0  0  0  0  0  0  0  0  0  0
    6.9264    0.0307    2.7509 O   0  0  0  0  0  0  0  0  0  0  0  0
    8.5881   -0.2897    4.1301 O   0  0  0  0  0  0  0  0  0  0  0  0
    8.6660    0.5046    0.6368 O   0  0  0  0  0  0  0  0  0  0  0  0
    9.1434    1.7594   -4.2850 C   0  0  0  0  0  0  0  0  0  0  0  0
    8.3380    2.3261   -3.2791 C   0  0  0  0  0  0  0  0  0  0  0  0
   10.1625    0.8295   -3.9700 C   0  0  0  0  0  0  0  0  0  0  0  0
    8.5536    1.9560   -1.9326 C   0  0  0  0  0  0  0  0  0  0  0  0
   10.4825    0.2163    1.8866 C   0  0  0  0  0  0  0  0  0  0  0  0
   10.8962    0.5146    0.5812 C   0  0  0  0  0  0  0  0  0  0  0  0
    8.1420   -0.0331    3.0065 C   0  0  0  0  0  0  0  0  0  0  0  0
   10.3923    0.4483   -2.6266 C   0  0  0  0  0  0  0  0  0  0  0  0
    9.0743    0.2210    1.8802 C   0  0  0  0  0  0  0  0  0  0  0  0
    9.7214    0.6893   -0.1772 C   0  0  0  0  0  0  0  0  0  0  0  0
    9.5746    1.0203   -1.5889 C   0  0  0  0  0  0  0  0  0  0  0  0
    6.6212    0.2423    1.8224 H   0  0  0  0  0  0  0  0  0  0  0  0
    8.9926    2.0185   -5.2391 H   0  0  0  0  0  0  0  0  0  0  0  0
    7.6216    2.9828   -3.5148 H   0  0  0  0  0  0  0  0  0  0  0  0
   10.7232    0.4397   -4.7005 H   0  0  0  0  0  0  0  0  0  0  0  0
    7.9846    2.3541   -1.2130 H   0  0  0  0  0  0  0  0  0  0  0  0
   11.0740    0.0350    2.6722 H   0  0  0  0  0  0  0  0  0  0  0  0
   11.8379    0.5887    0.2531 H   0  0  0  0  0  0  0  0  0  0  0  0
  1 12  1  0  0  0  0
  2 11  1  0  0  0  0
  3 11  2  0  0  0  0
  4 13  1  0  0  0  0
  4 14  1  0  0  0  0
  5  6  2  0  0  0  0
  5  7  1  0  0  0  0
  6  8  1  0  0  0  0
  7 12  2  0  0  0  0
  8 15  2  0  0  0  0
  9 10  1  0  0  0  0
  9 13  2  0  0  0  0
 10 14  2  0  0  0  0
 11 13  1  0  0  0  0
 12 15  1  0  0  0  0
 14 15  1  0  0  0  0
  2 16  1  0  0  0  0
  5 17  1  0  0  0  0
  6 18  1  0  0  0  0
  7 19  1  0  0  0  0
  8 20  1  0  0  0  0
  9 21  1  0  0  0  0
 10 22  1  0  0  0  0
M  END
> <pdb_id>
1XNZ

> <uniprot_id>
P07906

> <usmiles>
Clc1c(cccc1)C=2OC(C(=O)O)=CC2

$$$$
FCD_A_288
          07202401203D 1   1.00000     0.00000     0
            
 22 23  0  0  0  0            999 V2000
  -10.3075  -46.3573    7.7934 Cl  0  0  0  0  0  0  0  0  0  0  0  0
   -7.1241  -44.3844    1.8644 O   0  0  0  0  0  0  0  0  0  0  0  0
   -8.8897  -43.2037    1.4086 O   0  0  0  0  0  0  0  0  0  0  0  0
   -7.9292  -44.8948    4.4227 O   0  0  0  0  0  0  0  0  0  0  0  0
   -6.4868  -46.9114    8.8359 C   0  0  0  0  0  0  0  0  0  0  0  0
   -5.8120  -46.2650    7.8093 C   0  0  0  0  0  0  0  0  0  0  0  0
   -7.8580  -46.9991    8.7871 C   0  0  0  0  0  0  0  0  0  0  0  0
   -6.4665  -45.6471    6.7375 C   0  0  0  0  0  0  0  0  0  0  0  0
   -9.7396  -43.5135    4.3232 C   0  0  0  0  0  0  0  0  0  0  0  0
   -9.6691  -44.0783    5.5936 C   0  0  0  0  0  0  0  0  0  0  0  0
   -8.2583  -43.8813    2.2620 C   0  0  0  0  0  0  0  0  0  0  0  0
   -8.5686  -46.2672    7.7696 C   0  0  0  0  0  0  0  0  0  0  0  0
   -8.6483  -44.0983    3.6293 C   0  0  0  0  0  0  0  0  0  0  0  0
   -8.5563  -44.9218    5.6091 C   0  0  0  0  0  0  0  0  0  0  0  0
   -7.9064  -45.6608    6.7274 C   0  0  0  0  0  0  0  0  0  0  0  0
   -6.5728  -44.9330    2.4929 H   0  0  0  0  0  0  0  0  0  0  0  0
   -5.9814  -47.3086    9.6020 H   0  0  0  0  0  0  0  0  0  0  0  0
   -4.8127  -46.2396    7.8369 H   0  0  0  0  0  0  0  0  0  0  0  0
   -8.3546  -47.5622    9.4477 H   0  0  0  0  0  0  0  0  0  0  0  0
   -5.9501  -45.2096    6.0013 H   0  0  0  0  0  0  0  0  0  0  0  0
  -10.4044  -42.8502    3.9795 H   0  0  0  0  0  0  0  0  0  0  0  0
  -10.2977  -43.9113    6.3532 H   0  0  0  0  0  0  0  0  0  0  0  0
  1 12  1  0  0  0  0
  2 11  1  0  0  0  0
  3 11  2  0  0  0  0
  4 13  1  0  0  0  0
  4 14  1  0  0  0  0
  5  6  2  0  0  0  0
  5  7  1  0  0  0  0
  6  8  1  0  0  0  0
  7 12  2  0  0  0  0
  8 15  2  0  0  0  0
  9 10  1  0  0  0  0
  9 13  2  0  0  0  0
 10 14  2  0  0  0  0
 11 13  1  0  0  0  0
 12 15  1  0  0  0  0
 14 15  1  0  0  0  0
  2 16  1  0  0  0  0
  5 17  1  0  0  0  0
  6 18  1  0  0  0  0
  7 19  1  0  0  0  0
  8 20  1  0  0  0  0
  9 21  1  0  0  0  0
 10 22  1  0  0  0  0
M  END
> <pdb_id>
3IU7

> <uniprot_id>
P0A5J2

> <usmiles>
Clc1c(cccc1)C=2OC(C(=O)O)=CC2

$$$$
FF2_B_504
          07202410573D 1   1.00000     0.00000     0
            
 20 21  0  0  0  0            999 V2000
   79.5128   30.0560   69.0423 Cl  0  0  0  0  0  0  0  0  0  0  0  0
   80.4189   33.6351   72.7298 S   0  0  0  0  0  0  0  0  0  0  0  0
   83.2907   36.9551   71.3246 O   0  0  0  0  0  0  0  0  0  0  0  0
   82.8380   34.6405   69.7673 O   0  0  0  0  0  0  0  0  0  0  0  0
   82.3916   35.9223   71.6235 N   0  0  0  0  0  0  0  0  0  0  0  0
   77.9050   30.3611   72.7484 C   0  0  0  0  0  0  0  0  0  0  0  0
   78.2105   29.9277   71.4572 C   0  0  0  0  0  0  0  0  0  0  0  0
   78.5248   31.5064   73.2533 C   0  0  0  0  0  0  0  0  0  0  0  0
   80.7191   32.5835   70.4953 C   0  0  0  0  0  0  0  0  0  0  0  0
   79.1266   30.6255   70.6858 C   0  0  0  0  0  0  0  0  0  0  0  0
   81.2127   33.6779   71.1956 C   0  0  0  0  0  0  0  0  0  0  0  0
   79.4511   32.2122   72.4671 C   0  0  0  0  0  0  0  0  0  0  0  0
   82.2222   34.7503   70.7721 C   0  0  0  0  0  0  0  0  0  0  0  0
   79.7632   31.7898   71.1960 C   0  0  0  0  0  0  0  0  0  0  0  0
   83.2447   37.6541   72.0383 H   0  0  0  0  0  0  0  0  0  0  0  0
   81.8426   35.9920   72.4565 H   0  0  0  0  0  0  0  0  0  0  0  0
   77.2477   29.8557   73.3074 H   0  0  0  0  0  0  0  0  0  0  0  0
   77.7669   29.1112   71.0875 H   0  0  0  0  0  0  0  0  0  0  0  0
   78.3089   31.8247   74.1764 H   0  0  0  0  0  0  0  0  0  0  0  0
   81.0138   32.3675   69.5644 H   0  0  0  0  0  0  0  0  0  0  0  0
  1 10  1  0  0  0  0
  2 11  1  0  0  0  0
  2 12  1  0  0  0  0
  3  5  1  0  0  0  0
  4 13  2  0  0  0  0
  5 13  1  0  0  0  0
  6  7  2  0  0  0  0
  6  8  1  0  0  0  0
  7 10  1  0  0  0  0
  8 12  2  0  0  0  0
  9 11  2  0  0  0  0
  9 14  1  0  0  0  0
 10 14  2  0  0  0  0
 11 13  1  0  0  0  0
 12 14  1  0  0  0  0
  3 15  1  0  0  0  0
  5 16  1  0  0  0  0
  6 17  1  0  0  0  0
  7 18  1  0  0  0  0
  8 19  1  0  0  0  0
  9 20  1  0  0  0  0
M  END
> <pdb_id>
6GX3

> <uniprot_id>
A5H660

> <usmiles>
Clc1c2c(SC(C(=O)NO)=C2)ccc1

$$$$
FHM_A_1
          07192418273D 1   1.00000     0.00000     0
            
 42 43  0  0  0  0            999 V2000
   28.9520    0.2740   11.6860 F   0  0  0  0  0  0  0  0  0  0  0  0
   23.3740    4.2260    5.4400 F   0  0  0  0  0  0  0  0  0  0  0  0
   22.8780    4.4110    3.3450 F   0  0  0  0  0  0  0  0  0  0  0  0
   23.5880    2.5680    4.1010 F   0  0  0  0  0  0  0  0  0  0  0  0
   23.3590    6.5580    4.1330 O   0  5  0  0  0  0  0  0  0  0  0  0
   25.1990    7.9920    3.4790 O   0  0  0  0  0  0  0  0  0  0  0  0
   27.2920    0.8750    4.1350 O   0  0  0  0  0  0  0  0  0  0  0  0
   30.7730    1.5270    3.7180 O   0  0  0  0  0  0  0  0  0  0  0  0
   29.8980    1.2770    6.3570 O   0  0  0  0  0  0  0  0  0  0  0  0
   28.5180    2.7530    3.7670 N   0  0  0  0  0  0  0  0  0  0  0  0
   24.7180    6.6810    3.7420 N   0  3  0  0  0  0  0  0  0  0  0  0
   29.6350   -0.5150    3.0750 C   0  0  0  0  0  0  0  0  0  0  0  0
   29.8800    0.1480    5.4680 C   0  0  0  0  0  0  0  0  0  0  0  0
   29.8180   -0.4570    9.5980 C   0  0  0  0  0  0  0  0  0  0  0  0
   28.7780    1.7050    9.7990 C   0  0  0  0  0  0  0  0  0  0  0  0
   30.0580   -0.2160    8.2470 C   0  0  0  0  0  0  0  0  0  0  0  0
   29.0200    1.9430    8.4490 C   0  0  0  0  0  0  0  0  0  0  0  0
   27.8830    4.9770    3.4390 C   0  0  0  0  0  0  0  0  0  0  0  0
   26.8980    5.9600    3.4480 C   0  0  0  0  0  0  0  0  0  0  0  0
   26.2000    3.3510    3.9290 C   0  0  0  0  0  0  0  0  0  0  0  0
   28.3710    1.4480    3.9910 C   0  0  0  0  0  0  0  0  0  0  0  0
   29.1790    0.5040   10.3760 C   0  0  0  0  0  0  0  0  0  0  0  0
   29.6610    0.9870    7.6660 C   0  0  0  0  0  0  0  0  0  0  0  0
   27.5380    3.6530    3.6880 C   0  0  0  0  0  0  0  0  0  0  0  0
   25.5650    5.6510    3.7100 C   0  0  0  0  0  0  0  0  0  0  0  0
   25.1960    4.3220    3.9450 C   0  0  0  0  0  0  0  0  0  0  0  0
   23.7430    3.8840    4.2080 C   0  0  0  0  0  0  0  0  0  0  0  0
   29.6840    0.6630    4.0510 C   0  0  1  0  0  0  0  0  0  0  0  0
   30.7985    2.2936    4.3596 H   0  0  0  0  0  0  0  0  0  0  0  0
   29.4521    3.0892    3.6467 H   0  0  0  0  0  0  0  0  0  0  0  0
   28.8712   -1.1145    3.3142 H   0  0  0  0  0  0  0  0  0  0  0  0
   29.5104   -0.1716    2.1441 H   0  0  0  0  0  0  0  0  0  0  0  0
   30.4914   -1.0285    3.1290 H   0  0  0  0  0  0  0  0  0  0  0  0
   29.1280   -0.4639    5.7129 H   0  0  0  0  0  0  0  0  0  0  0  0
   30.7466   -0.3469    5.5316 H   0  0  0  0  0  0  0  0  0  0  0  0
   30.1053   -1.3219   10.0095 H   0  0  0  0  0  0  0  0  0  0  0  0
   28.3161    2.3969   10.3539 H   0  0  0  0  0  0  0  0  0  0  0  0
   30.5172   -0.9093    7.6916 H   0  0  0  0  0  0  0  0  0  0  0  0
   28.7310    2.8078    8.0383 H   0  0  0  0  0  0  0  0  0  0  0  0
   28.8349    5.2216    3.2543 H   0  0  0  0  0  0  0  0  0  0  0  0
   27.1526    6.9091    3.2623 H   0  0  0  0  0  0  0  0  0  0  0  0
   25.9472    2.3983    4.0978 H   0  0  0  0  0  0  0  0  0  0  0  0
  1 22  1  0  0  0  0
  2 27  1  0  0  0  0
  3 27  1  0  0  0  0
  4 27  1  0  0  0  0
  5 11  1  0  0  0  0
  6 11  2  0  0  0  0
  7 21  2  0  0  0  0
  8 28  1  0  0  0  0
  9 13  1  0  0  0  0
  9 23  1  0  0  0  0
 10 21  1  0  0  0  0
 10 24  1  0  0  0  0
 11 25  1  0  0  0  0
 12 28  1  0  0  0  0
 13 28  1  0  0  0  0
 14 16  2  0  0  0  0
 14 22  1  0  0  0  0
 15 17  1  0  0  0  0
 15 22  2  0  0  0  0
 16 23  1  0  0  0  0
 17 23  2  0  0  0  0
 18 19  1  0  0  0  0
 18 24  2  0  0  0  0
 19 25  2  0  0  0  0
 20 24  1  0  0  0  0
 20 26  2  0  0  0  0
 21 28  1  0  0  0  0
 25 26  1  0  0  0  0
 26 27  1  0  0  0  0
  8 29  1  0  0  0  0
 10 30  1  0  0  0  0
 12 31  1  0  0  0  0
 12 32  1  0  0  0  0
 12 33  1  0  0  0  0
 13 34  1  0  0  0  0
 13 35  1  0  0  0  0
 14 36  1  0  0  0  0
 15 37  1  0  0  0  0
 16 38  1  0  0  0  0
 17 39  1  0  0  0  0
 18 40  1  0  0  0  0
 19 41  1  0  0  0  0
 20 42  1  0  0  0  0
M  CHG  2   5  -1  11   1
M  END
> <pdb_id>
2AX7

> <uniprot_id>
P10275

> <usmiles>
Fc1ccc(OC[C@](O)(C(=O)Nc2cc(c([N+]([O-])=O)cc2)C(F)(F)F)C)cc1

$$$$
FHM_A_1
          07202400533D 1   1.00000     0.00000     0
            
 42 43  0  0  0  0            999 V2000
   29.1697    0.3404   12.0861 F   0  0  0  0  0  0  0  0  0  0  0  0
   23.3762    4.1915    5.6331 F   0  0  0  0  0  0  0  0  0  0  0  0
   22.9229    4.3195    3.5219 F   0  0  0  0  0  0  0  0  0  0  0  0
   23.6392    2.5059    4.3380 F   0  0  0  0  0  0  0  0  0  0  0  0
   23.3651    6.5086    4.3038 O   0  5  0  0  0  0  0  0  0  0  0  0
   25.1548    7.9169    3.4798 O   0  0  0  0  0  0  0  0  0  0  0  0
   27.3728    0.9060    4.6132 O   0  0  0  0  0  0  0  0  0  0  0  0
   30.8293    1.5766    4.0626 O   0  0  0  0  0  0  0  0  0  0  0  0
   29.9287    1.3948    6.7399 O   0  0  0  0  0  0  0  0  0  0  0  0
   28.5653    2.7643    4.0738 N   0  0  0  0  0  0  0  0  0  0  0  0
   24.7034    6.6216    3.8437 N   0  3  0  0  0  0  0  0  0  0  0  0
   29.6989   -0.5074    3.5241 C   0  0  0  0  0  0  0  0  0  0  0  0
   29.9879    0.2444    5.8814 C   0  0  0  0  0  0  0  0  0  0  0  0
   30.2008   -0.2351   10.0227 C   0  0  0  0  0  0  0  0  0  0  0  0
   28.7058    1.6478   10.1622 C   0  0  0  0  0  0  0  0  0  0  0  0
   30.4085    0.0284    8.6708 C   0  0  0  0  0  0  0  0  0  0  0  0
   28.9155    1.9103    8.8113 C   0  0  0  0  0  0  0  0  0  0  0  0
   27.8958    4.9583    3.6341 C   0  0  0  0  0  0  0  0  0  0  0  0
   26.8951    5.9237    3.5929 C   0  0  0  0  0  0  0  0  0  0  0  0
   26.2400    3.3303    4.2181 C   0  0  0  0  0  0  0  0  0  0  0  0
   28.4387    1.4750    4.3810 C   0  0  0  0  0  0  0  0  0  0  0  0
   29.3514    0.5741   10.7703 C   0  0  0  0  0  0  0  0  0  0  0  0
   29.7658    1.1041    8.0607 C   0  0  0  0  0  0  0  0  0  0  0  0
   27.5712    3.6466    3.9607 C   0  0  0  0  0  0  0  0  0  0  0  0
   25.5699    5.6065    3.8753 C   0  0  0  0  0  0  0  0  0  0  0  0
   25.2233    4.2868    4.1779 C   0  0  0  0  0  0  0  0  0  0  0  0
   23.7726    3.8267    4.4178 C   0  0  0  0  0  0  0  0  0  0  0  0
   29.7610    0.7088    4.4502 C   0  0  1  0  0  0  0  0  0  0  0  0
   30.8571    2.3657    4.6763 H   0  0  0  0  0  0  0  0  0  0  0  0
   29.4923    3.1029    3.9129 H   0  0  0  0  0  0  0  0  0  0  0  0
   28.9481   -1.1040    3.8073 H   0  0  0  0  0  0  0  0  0  0  0  0
   29.5463   -0.2029    2.5839 H   0  0  0  0  0  0  0  0  0  0  0  0
   30.5618   -1.0101    3.5758 H   0  0  0  0  0  0  0  0  0  0  0  0
   29.2778   -0.4097    6.1419 H   0  0  0  0  0  0  0  0  0  0  0  0
   30.8854   -0.1899    5.9583 H   0  0  0  0  0  0  0  0  0  0  0  0
   30.6634   -1.0081   10.4569 H   0  0  0  0  0  0  0  0  0  0  0  0
   28.0919    2.2298   10.6956 H   0  0  0  0  0  0  0  0  0  0  0  0
   31.0200   -0.5555    8.1369 H   0  0  0  0  0  0  0  0  0  0  0  0
   28.4521    2.6831    8.3776 H   0  0  0  0  0  0  0  0  0  0  0  0
   28.8428    5.2063    3.4301 H   0  0  0  0  0  0  0  0  0  0  0  0
   27.1330    6.8655    3.3554 H   0  0  0  0  0  0  0  0  0  0  0  0
   26.0034    2.3843    4.4397 H   0  0  0  0  0  0  0  0  0  0  0  0
  1 22  1  0  0  0  0
  2 27  1  0  0  0  0
  3 27  1  0  0  0  0
  4 27  1  0  0  0  0
  5 11  1  0  0  0  0
  6 11  2  0  0  0  0
  7 21  2  0  0  0  0
  8 28  1  0  0  0  0
  9 13  1  0  0  0  0
  9 23  1  0  0  0  0
 10 21  1  0  0  0  0
 10 24  1  0  0  0  0
 11 25  1  0  0  0  0
 12 28  1  0  0  0  0
 13 28  1  0  0  0  0
 14 16  2  0  0  0  0
 14 22  1  0  0  0  0
 15 17  1  0  0  0  0
 15 22  2  0  0  0  0
 16 23  1  0  0  0  0
 17 23  2  0  0  0  0
 18 19  1  0  0  0  0
 18 24  2  0  0  0  0
 19 25  2  0  0  0  0
 20 24  1  0  0  0  0
 20 26  2  0  0  0  0
 21 28  1  0  0  0  0
 25 26  1  0  0  0  0
 26 27  1  0  0  0  0
  8 29  1  0  0  0  0
 10 30  1  0  0  0  0
 12 31  1  0  0  0  0
 12 32  1  0  0  0  0
 12 33  1  0  0  0  0
 13 34  1  0  0  0  0
 13 35  1  0  0  0  0
 14 36  1  0  0  0  0
 15 37  1  0  0  0  0
 16 38  1  0  0  0  0
 17 39  1  0  0  0  0
 18 40  1  0  0  0  0
 19 41  1  0  0  0  0
 20 42  1  0  0  0  0
M  CHG  2   5  -1  11   1
M  END
> <pdb_id>
2AXA

> <uniprot_id>
P10275

> <usmiles>
Fc1ccc(OC[C@](O)(C(=O)Nc2cc(c([N+]([O-])=O)cc2)C(F)(F)F)C)cc1

$$$$
FHN_B_1474
          07192418093D 1   1.00000     0.00000     0
            
 28 28  0  0  0  0            999 V2000
  -25.4765    5.2645   25.3856 O   0  0  0  0  0  0  0  0  0  0  0  0
  -28.6338    2.4328   25.9025 O   0  0  0  0  0  0  0  0  0  0  0  0
  -24.3517    0.9894   29.6101 O   0  0  0  0  0  0  0  0  0  0  0  0
  -24.2919    3.8128   29.1283 O   0  0  0  0  0  0  0  0  0  0  0  0
  -27.1386    0.8028   29.5295 O   0  0  0  0  0  0  0  0  0  0  0  0
  -26.6111    3.7822   27.3649 N   0  0  0  0  0  0  0  0  0  0  0  0
  -24.6178    4.8252   26.4343 C   0  0  0  0  0  0  0  0  0  0  0  0
  -27.8045    1.6458   26.7908 C   0  0  0  0  0  0  0  0  0  0  0  0
  -25.0940    1.6187   28.5349 C   0  0  0  0  0  0  0  0  0  0  0  0
  -24.4248    2.8710   28.0511 C   0  0  1  0  0  0  0  0  0  0  0  0
  -26.5026    1.9522   29.0328 C   0  0  1  0  0  0  0  0  0  0  0  0
  -25.2517    3.5105   26.9274 C   0  0  1  0  0  0  0  0  0  0  0  0
  -27.3390    2.6000   27.9061 C   0  0  1  0  0  0  0  0  0  0  0  0
  -25.1295    6.1231   25.0082 H   0  0  0  0  0  0  0  0  0  0  0  0
  -28.9637    1.8554   25.1557 H   0  0  0  0  0  0  0  0  0  0  0  0
  -24.8284    0.1609   29.9039 H   0  0  0  0  0  0  0  0  0  0  0  0
  -23.8449    4.6421   28.7928 H   0  0  0  0  0  0  0  0  0  0  0  0
  -28.0557    1.0410   29.8492 H   0  0  0  0  0  0  0  0  0  0  0  0
  -27.1256    4.1336   26.5828 H   0  0  0  0  0  0  0  0  0  0  0  0
  -24.5860    5.5004   27.1712 H   0  0  0  0  0  0  0  0  0  0  0  0
  -23.6930    4.6641   26.0896 H   0  0  0  0  0  0  0  0  0  0  0  0
  -27.0159    1.2811   26.2957 H   0  0  0  0  0  0  0  0  0  0  0  0
  -28.3326    0.8907   27.1792 H   0  0  0  0  0  0  0  0  0  0  0  0
  -25.1651    0.9757   27.7723 H   0  0  0  0  0  0  0  0  0  0  0  0
  -23.5164    2.6431   27.7008 H   0  0  0  0  0  0  0  0  0  0  0  0
  -26.4216    2.6117   29.7801 H   0  0  0  0  0  0  0  0  0  0  0  0
  -25.2891    2.8707   26.1598 H   0  0  0  0  0  0  0  0  0  0  0  0
  -28.1683    2.9536   28.3387 H   0  0  0  0  0  0  0  0  0  0  0  0
  1  7  1  0  0  0  0
  2  8  1  0  0  0  0
  3  9  1  0  0  0  0
  4 10  1  0  0  0  0
  5 11  1  0  0  0  0
  6 12  1  0  0  0  0
  6 13  1  0  0  0  0
  7 12  1  0  0  0  0
  8 13  1  0  0  0  0
  9 10  1  0  0  0  0
  9 11  1  0  0  0  0
 10 12  1  0  0  0  0
 11 13  1  0  0  0  0
  1 14  1  0  0  0  0
  2 15  1  0  0  0  0
  3 16  1  0  0  0  0
  4 17  1  0  0  0  0
  5 18  1  0  0  0  0
  6 19  1  0  0  0  0
  7 20  1  0  0  0  0
  7 21  1  0  0  0  0
  8 22  1  0  0  0  0
  8 23  1  0  0  0  0
  9 24  1  0  0  0  0
 10 25  1  0  0  0  0
 11 26  1  0  0  0  0
 12 27  1  0  0  0  0
 13 28  1  0  0  0  0
M  END
> <pdb_id>
2WVT

> <uniprot_id>
Q8A3I4

> <usmiles>
O[C@@H]1[C@@H](N[C@H]([C@@H](O)C1O)CO)CO

$$$$
FHX_A_9000
          07192419483D 1   1.00000     0.00000     0
            
 41 44  0  0  0  0            999 V2000
   15.6161   26.8892   28.9100 O   0  0  0  0  0  0  0  0  0  0  0  0
   12.6750   27.6684   30.6500 N   0  0  0  0  0  0  0  0  0  0  0  0
   21.3135   21.1038   28.6786 N   0  0  0  0  0  0  0  0  0  0  0  0
   20.5428   23.0554   27.4852 N   0  0  0  0  0  0  0  0  0  0  0  0
   19.6914   20.2083   30.1831 N   0  0  0  0  0  0  0  0  0  0  0  0
   18.4307   24.0255   27.7264 N   0  0  0  0  0  0  0  0  0  0  0  0
   15.0898   25.4153   27.2657 N   0  0  0  0  0  0  0  0  0  0  0  0
   15.6002   22.4619   25.8836 C   0  0  0  0  0  0  0  0  0  0  0  0
   21.4465   22.1106   27.8059 C   0  0  0  0  0  0  0  0  0  0  0  0
   12.9447   27.2347   29.6087 C   0  0  0  0  0  0  0  0  0  0  0  0
   18.4119   20.4905   30.5769 C   0  0  0  0  0  0  0  0  0  0  0  0
   18.6941   24.8451   26.5460 C   0  0  0  0  0  0  0  0  0  0  0  0
   14.3060   24.6560   26.3092 C   0  0  0  0  0  0  0  0  0  0  0  0
   17.0373   24.0933   28.1344 C   0  0  0  0  0  0  0  0  0  0  0  0
   13.2867   26.6868   28.2946 C   0  0  0  0  0  0  0  0  0  0  0  0
   18.0030   21.6076   29.8792 C   0  0  0  0  0  0  0  0  0  0  0  0
   17.4434   25.7234   26.4130 C   0  0  0  0  0  0  0  0  0  0  0  0
   14.7628   26.3563   28.2040 C   0  0  0  0  0  0  0  0  0  0  0  0
   20.1027   21.1202   29.2516 C   0  0  0  0  0  0  0  0  0  0  0  0
   19.3204   23.0500   28.0863 C   0  0  0  0  0  0  0  0  0  0  0  0
   15.6093   23.9791   25.8532 C   0  0  1  0  0  0  0  0  0  0  0  0
   19.0744   22.0231   29.0278 C   0  0  0  0  0  0  0  0  0  0  0  0
   16.3676   24.7943   26.9525 C   0  0  2  0  0  0  0  0  0  0  0  0
   20.2434   19.4481   30.5256 H   0  0  0  0  0  0  0  0  0  0  0  0
   16.4855   22.1170   25.5718 H   0  0  0  0  0  0  0  0  0  0  0  0
   15.4305   22.1482   26.8178 H   0  0  0  0  0  0  0  0  0  0  0  0
   14.8785   22.1208   25.2812 H   0  0  0  0  0  0  0  0  0  0  0  0
   22.3262   22.1677   27.3339 H   0  0  0  0  0  0  0  0  0  0  0  0
   17.8725   19.9807   31.2472 H   0  0  0  0  0  0  0  0  0  0  0  0
   18.8132   24.2719   25.7353 H   0  0  0  0  0  0  0  0  0  0  0  0
   19.5101   25.4076   26.6794 H   0  0  0  0  0  0  0  0  0  0  0  0
   13.8586   25.2099   25.6070 H   0  0  0  0  0  0  0  0  0  0  0  0
   13.6380   24.0354   26.7200 H   0  0  0  0  0  0  0  0  0  0  0  0
   16.9340   24.6264   28.9742 H   0  0  0  0  0  0  0  0  0  0  0  0
   16.6579   23.1783   28.2717 H   0  0  0  0  0  0  0  0  0  0  0  0
   13.0600   27.3608   27.5915 H   0  0  0  0  0  0  0  0  0  0  0  0
   12.7561   25.8533   28.1408 H   0  0  0  0  0  0  0  0  0  0  0  0
   17.1101   22.0513   29.9556 H   0  0  0  0  0  0  0  0  0  0  0  0
   17.2693   25.9703   25.4597 H   0  0  0  0  0  0  0  0  0  0  0  0
   17.5193   26.5543   26.9640 H   0  0  0  0  0  0  0  0  0  0  0  0
   15.8668   24.3043   24.9433 H   0  0  0  0  0  0  0  0  0  0  0  0
  1 18  2  0  0  0  0
  2 10  3  0  0  0  0
  3  9  2  0  0  0  0
  3 19  1  0  0  0  0
  4  9  1  0  0  0  0
  4 20  2  0  0  0  0
  5 11  1  0  0  0  0
  5 19  1  0  0  0  0
  6 12  1  0  0  0  0
  6 14  1  0  0  0  0
  6 20  1  0  0  0  0
  7 13  1  0  0  0  0
  7 18  1  0  0  0  0
  7 23  1  0  0  0  0
  8 21  1  0  0  0  0
 10 15  1  0  0  0  0
 11 16  2  0  0  0  0
 12 17  1  0  0  0  0
 13 21  1  0  0  0  0
 14 23  1  0  0  0  0
 15 18  1  0  0  0  0
 16 22  1  0  0  0  0
 17 23  1  0  0  0  0
 19 22  2  0  0  0  0
 20 22  1  0  0  0  0
 21 23  1  0  0  0  0
  5 24  1  0  0  0  0
  8 25  1  0  0  0  0
  8 26  1  0  0  0  0
  8 27  1  0  0  0  0
  9 28  1  0  0  0  0
 11 29  1  0  0  0  0
 12 30  1  0  0  0  0
 12 31  1  0  0  0  0
 13 32  1  0  0  0  0
 13 33  1  0  0  0  0
 14 34  1  0  0  0  0
 14 35  1  0  0  0  0
 15 36  1  0  0  0  0
 15 37  1  0  0  0  0
 16 38  1  0  0  0  0
 17 39  1  0  0  0  0
 17 40  1  0  0  0  0
 21 41  1  0  0  0  0
M  END
> <pdb_id>
7C3N

> <uniprot_id>
P52333

> <usmiles>
O=C(N1[C@]2([C@H](C1)C)CN(c3ncnc4NC=Cc34)CC2)CC#N

$$$$
FIC_B_201
          07202401113D 1   1.00000     0.00000     0
            
 19 20  0  0  0  0            999 V2000
  -23.9533  -33.1481  -43.0457 F   0  0  0  0  0  0  0  0  0  0  0  0
  -20.0070  -32.7176  -35.9927 O   0  0  0  0  0  0  0  0  0  0  0  0
  -19.0197  -31.1404  -37.1868 O   0  0  0  0  0  0  0  0  0  0  0  0
  -21.3904  -33.5825  -38.2887 N   0  0  0  0  0  0  0  0  0  0  0  0
  -23.5656  -34.4759  -41.1201 C   0  0  0  0  0  0  0  0  0  0  0  0
  -22.9434  -34.6539  -39.8947 C   0  0  0  0  0  0  0  0  0  0  0  0
  -22.5015  -32.3133  -41.3718 C   0  0  0  0  0  0  0  0  0  0  0  0
  -20.9912  -31.6997  -39.3778 C   0  0  0  0  0  0  0  0  0  0  0  0
  -23.3381  -33.3121  -41.8472 C   0  0  0  0  0  0  0  0  0  0  0  0
  -19.8547  -32.0746  -37.0669 C   0  0  0  0  0  0  0  0  0  0  0  0
  -22.0988  -33.6492  -39.4132 C   0  0  0  0  0  0  0  0  0  0  0  0
  -20.7401  -32.4496  -38.2328 C   0  0  0  0  0  0  0  0  0  0  0  0
  -21.8723  -32.4924  -40.1393 C   0  0  0  0  0  0  0  0  0  0  0  0
  -20.6827  -33.4530  -35.9416 H   0  0  0  0  0  0  0  0  0  0  0  0
  -21.3598  -34.2955  -37.5881 H   0  0  0  0  0  0  0  0  0  0  0  0
  -24.1758  -35.1815  -41.4803 H   0  0  0  0  0  0  0  0  0  0  0  0
  -23.0960  -35.4874  -39.3635 H   0  0  0  0  0  0  0  0  0  0  0  0
  -22.3519  -31.4794  -41.9030 H   0  0  0  0  0  0  0  0  0  0  0  0
  -20.6267  -30.7976  -39.6089 H   0  0  0  0  0  0  0  0  0  0  0  0
  1  9  1  0  0  0  0
  2 10  1  0  0  0  0
  3 10  2  0  0  0  0
  4 11  1  0  0  0  0
  4 12  1  0  0  0  0
  5  6  1  0  0  0  0
  5  9  2  0  0  0  0
  6 11  2  0  0  0  0
  7  9  1  0  0  0  0
  7 13  2  0  0  0  0
  8 12  2  0  0  0  0
  8 13  1  0  0  0  0
 10 12  1  0  0  0  0
 11 13  1  0  0  0  0
  2 14  1  0  0  0  0
  4 15  1  0  0  0  0
  5 16  1  0  0  0  0
  6 17  1  0  0  0  0
  7 18  1  0  0  0  0
  8 19  1  0  0  0  0
M  END
> <pdb_id>
7YY3

> <uniprot_id>
B1MDL6

> <usmiles>
Fc1cc2c(NC(C(=O)O)=C2)cc1

$$$$
FID_A_1320
          07202404503D 1   1.00000     0.00000     0
            
 30 32  0  0  0  0            999 V2000
   62.2220  -11.5933   42.0178 F   0  0  0  0  0  0  0  0  0  0  0  0
   67.5340   -6.0478   37.9494 O   0  0  0  0  0  0  0  0  0  0  0  0
   63.7425   -6.4013   44.2159 O   0  0  0  0  0  0  0  0  0  0  0  0
   63.0634   -6.3949   39.7214 O   0  0  0  0  0  0  0  0  0  0  0  0
   65.5273   -8.8960   38.6030 O   0  0  0  0  0  0  0  0  0  0  0  0
   67.6396   -8.2262   37.2992 N   0  0  0  0  0  0  0  0  0  0  0  0
   63.1099   -6.1363   42.0001 N   0  0  0  0  0  0  0  0  0  0  0  0
   64.9413   -7.3193   42.4862 N   0  0  0  0  0  0  0  0  0  0  0  0
   63.3434  -11.4655   39.9729 C   0  0  0  0  0  0  0  0  0  0  0  0
   64.1607  -10.7437   39.1280 C   0  0  0  0  0  0  0  0  0  0  0  0
   63.4862   -9.6802   41.5583 C   0  0  0  0  0  0  0  0  0  0  0  0
   65.9859   -7.1379   40.2331 C   0  0  0  0  0  0  0  0  0  0  0  0
   63.0365  -10.9074   41.1699 C   0  0  0  0  0  0  0  0  0  0  0  0
   67.0654   -7.1933   37.9557 C   0  0  0  0  0  0  0  0  0  0  0  0
   63.9194   -6.6052   43.0245 C   0  0  0  0  0  0  0  0  0  0  0  0
   63.5466   -6.6093   40.8118 C   0  0  0  0  0  0  0  0  0  0  0  0
   65.8128   -7.5080   38.7708 C   0  0  1  0  0  0  0  0  0  0  0  0
   64.6820   -9.5071   39.4824 C   0  0  0  0  0  0  0  0  0  0  0  0
   64.3154   -8.9556   40.7196 C   0  0  0  0  0  0  0  0  0  0  0  0
   64.7509   -7.5500   41.0535 C   0  0  2  0  0  0  0  0  0  0  0  0
   67.2228   -9.1346   37.3342 H   0  0  0  0  0  0  0  0  0  0  0  0
   68.4810   -8.0819   36.7784 H   0  0  0  0  0  0  0  0  0  0  0  0
   62.3193   -5.5363   42.1228 H   0  0  0  0  0  0  0  0  0  0  0  0
   65.7295   -7.6481   43.0064 H   0  0  0  0  0  0  0  0  0  0  0  0
   62.9913  -12.3646   39.7129 H   0  0  0  0  0  0  0  0  0  0  0  0
   64.3849  -11.1238   38.2307 H   0  0  0  0  0  0  0  0  0  0  0  0
   63.2179   -9.3050   42.4456 H   0  0  0  0  0  0  0  0  0  0  0  0
   66.1133   -6.1488   40.3076 H   0  0  0  0  0  0  0  0  0  0  0  0
   66.7914   -7.6061   40.5962 H   0  0  0  0  0  0  0  0  0  0  0  0
   65.0502   -6.9797   38.3976 H   0  0  0  0  0  0  0  0  0  0  0  0
  1 13  1  0  0  0  0
  2 14  2  0  0  0  0
  3 15  2  0  0  0  0
  4 16  2  0  0  0  0
  5 17  1  0  0  0  0
  5 18  1  0  0  0  0
  6 14  1  0  0  0  0
  7 15  1  0  0  0  0
  7 16  1  0  0  0  0
  8 15  1  0  0  0  0
  8 20  1  0  0  0  0
  9 10  2  0  0  0  0
  9 13  1  0  0  0  0
 10 18  1  0  0  0  0
 11 13  2  0  0  0  0
 11 19  1  0  0  0  0
 12 17  1  0  0  0  0
 12 20  1  0  0  0  0
 14 17  1  0  0  0  0
 16 20  1  0  0  0  0
 18 19  2  0  0  0  0
 19 20  1  0  0  0  0
  6 21  1  0  0  0  0
  6 22  1  0  0  0  0
  7 23  1  0  0  0  0
  8 24  1  0  0  0  0
  9 25  1  0  0  0  0
 10 26  1  0  0  0  0
 11 27  1  0  0  0  0
 12 28  1  0  0  0  0
 12 29  1  0  0  0  0
 17 30  1  0  0  0  0
M  END
> <pdb_id>
1PWM

> <uniprot_id>
P15121

> <usmiles>
Fc1cc2c(O[C@H](C(=O)N)C[C@]23NC(=O)NC3=O)cc1

$$$$
FID_A_320
          07192418223D 1   1.00000     0.00000     0
            
 30 32  0  0  0  0            999 V2000
   14.0990  -11.1740   18.2150 F   0  0  0  0  0  0  0  0  0  0  0  0
   19.4270   -5.5570   14.3610 O   0  0  0  0  0  0  0  0  0  0  0  0
   15.5400   -5.9250   20.4080 O   0  0  0  0  0  0  0  0  0  0  0  0
   14.9520   -5.9750   15.8850 O   0  0  0  0  0  0  0  0  0  0  0  0
   17.5050   -8.4820   14.9050 O   0  0  0  0  0  0  0  0  0  0  0  0
   19.7020   -7.7680   13.7930 N   0  0  0  0  0  0  0  0  0  0  0  0
   14.9510   -5.7300   18.1710 N   0  0  0  0  0  0  0  0  0  0  0  0
   16.7600   -6.8880   18.7200 N   0  0  0  0  0  0  0  0  0  0  0  0
   15.3230  -11.0790   16.2290 C   0  0  0  0  0  0  0  0  0  0  0  0
   16.1770  -10.3640   15.4160 C   0  0  0  0  0  0  0  0  0  0  0  0
   15.3460   -9.2400   17.7640 C   0  0  0  0  0  0  0  0  0  0  0  0
   17.8700   -6.6860   16.5260 C   0  0  0  0  0  0  0  0  0  0  0  0
   14.9360  -10.4930   17.3850 C   0  0  0  0  0  0  0  0  0  0  0  0
   19.0510   -6.7260   14.3580 C   0  0  0  0  0  0  0  0  0  0  0  0
   15.7350   -6.1760   19.2210 C   0  0  0  0  0  0  0  0  0  0  0  0
   15.4040   -6.1850   16.9930 C   0  0  0  0  0  0  0  0  0  0  0  0
   17.7700   -7.0990   15.0640 C   0  0  1  0  0  0  0  0  0  0  0  0
   16.6130   -9.0890   15.7600 C   0  0  0  0  0  0  0  0  0  0  0  0
   16.1990   -8.5290   16.9490 C   0  0  0  0  0  0  0  0  0  0  0  0
   16.6130   -7.0900   17.2880 C   0  0  2  0  0  0  0  0  0  0  0  0
   19.3127   -8.6877   13.8439 H   0  0  0  0  0  0  0  0  0  0  0  0
   20.5727   -7.6188   13.3243 H   0  0  0  0  0  0  0  0  0  0  0  0
   14.1485   -5.1429   18.2771 H   0  0  0  0  0  0  0  0  0  0  0  0
   17.5251   -7.2341   19.2629 H   0  0  0  0  0  0  0  0  0  0  0  0
   15.0034  -11.9918   15.9748 H   0  0  0  0  0  0  0  0  0  0  0  0
   16.4903  -10.7721   14.5585 H   0  0  0  0  0  0  0  0  0  0  0  0
   15.0278   -8.8455   18.6260 H   0  0  0  0  0  0  0  0  0  0  0  0
   17.9816   -5.6937   16.5798 H   0  0  0  0  0  0  0  0  0  0  0  0
   18.6627   -7.1335   16.9399 H   0  0  0  0  0  0  0  0  0  0  0  0
   17.0208   -6.5865   14.6445 H   0  0  0  0  0  0  0  0  0  0  0  0
  1 13  1  0  0  0  0
  2 14  2  0  0  0  0
  3 15  2  0  0  0  0
  4 16  2  0  0  0  0
  5 17  1  0  0  0  0
  5 18  1  0  0  0  0
  6 14  1  0  0  0  0
  7 15  1  0  0  0  0
  7 16  1  0  0  0  0
  8 15  1  0  0  0  0
  8 20  1  0  0  0  0
  9 10  2  0  0  0  0
  9 13  1  0  0  0  0
 10 18  1  0  0  0  0
 11 13  2  0  0  0  0
 11 19  1  0  0  0  0
 12 17  1  0  0  0  0
 12 20  1  0  0  0  0
 14 17  1  0  0  0  0
 16 20  1  0  0  0  0
 18 19  2  0  0  0  0
 19 20  1  0  0  0  0
  6 21  1  0  0  0  0
  6 22  1  0  0  0  0
  7 23  1  0  0  0  0
  8 24  1  0  0  0  0
  9 25  1  0  0  0  0
 10 26  1  0  0  0  0
 11 27  1  0  0  0  0
 12 28  1  0  0  0  0
 12 29  1  0  0  0  0
 17 30  1  0  0  0  0
M  END
> <pdb_id>
2AGT

> <uniprot_id>
P15121

> <usmiles>
Fc1cc2c(O[C@H](C(=O)N)C[C@]23NC(=O)NC3=O)cc1

$$$$
FIH_A_2001
          07202412553D 1   1.00000     0.00000     0
            
 40 42  0  0  0  0            999 V2000
   43.6210   14.4702   57.9997 S   0  0  0  0  0  0  0  0  0  0  0  0
   41.8465   12.6225   53.4475 S   0  0  0  0  0  0  0  0  0  0  0  0
   39.8638   11.9407   62.9360 F   0  0  0  0  0  0  0  0  0  0  0  0
   41.2949   11.3479   53.8916 O   0  0  0  0  0  0  0  0  0  0  0  0
   42.2864   12.5721   52.0558 O   0  0  0  0  0  0  0  0  0  0  0  0
   45.7063   15.8446   56.3011 O   0  0  0  0  0  0  0  0  0  0  0  0
   44.9060   15.1515   54.3683 O   0  0  0  0  0  0  0  0  0  0  0  0
   43.2518   12.8778   54.3729 N   0  0  0  0  0  0  0  0  0  0  0  0
   37.5615   17.0083   54.0505 C   0  0  0  0  0  0  0  0  0  0  0  0
   40.7604   15.1681   52.9649 C   0  0  0  0  0  0  0  0  0  0  0  0
   39.4283   13.6709   54.4117 C   0  0  0  0  0  0  0  0  0  0  0  0
   39.8277   11.9179   60.5520 C   0  0  0  0  0  0  0  0  0  0  0  0
   41.7295   12.8394   61.7916 C   0  0  0  0  0  0  0  0  0  0  0  0
   39.7687   16.1776   53.1063 C   0  0  0  0  0  0  0  0  0  0  0  0
   38.4408   14.6853   54.5501 C   0  0  0  0  0  0  0  0  0  0  0  0
   40.4770   12.2332   59.3201 C   0  0  0  0  0  0  0  0  0  0  0  0
   42.3742   13.1502   60.5693 C   0  0  0  0  0  0  0  0  0  0  0  0
   42.3441   12.6575   56.7665 C   0  0  0  0  0  0  0  0  0  0  0  0
   42.4656   13.2088   58.0418 C   0  0  0  0  0  0  0  0  0  0  0  0
   43.9475   14.3001   56.3432 C   0  0  0  0  0  0  0  0  0  0  0  0
   40.5912   13.9087   53.6195 C   0  0  0  0  0  0  0  0  0  0  0  0
   44.9227   15.1530   55.6175 C   0  0  0  0  0  0  0  0  0  0  0  0
   40.4523   12.2223   61.7990 C   0  0  0  0  0  0  0  0  0  0  0  0
   43.1939   13.2784   55.7815 C   0  0  0  0  0  0  0  0  0  0  0  0
   38.6088   15.9382   53.8989 C   0  0  0  0  0  0  0  0  0  0  0  0
   41.7659   12.8573   59.3129 C   0  0  0  0  0  0  0  0  0  0  0  0
   45.6701   15.8017   57.2995 H   0  0  0  0  0  0  0  0  0  0  0  0
   44.1451   12.7505   53.9419 H   0  0  0  0  0  0  0  0  0  0  0  0
   36.8235   16.6719   54.6355 H   0  0  0  0  0  0  0  0  0  0  0  0
   37.9721   17.8202   54.4654 H   0  0  0  0  0  0  0  0  0  0  0  0
   37.1929   17.2437   53.1512 H   0  0  0  0  0  0  0  0  0  0  0  0
   41.5740   15.3389   52.4090 H   0  0  0  0  0  0  0  0  0  0  0  0
   39.3075   12.7903   54.8699 H   0  0  0  0  0  0  0  0  0  0  0  0
   38.9284   11.4806   60.5411 H   0  0  0  0  0  0  0  0  0  0  0  0
   42.1792   13.0572   62.6579 H   0  0  0  0  0  0  0  0  0  0  0  0
   39.8857   17.0586   52.6478 H   0  0  0  0  0  0  0  0  0  0  0  0
   37.6270   14.5170   55.1063 H   0  0  0  0  0  0  0  0  0  0  0  0
   40.0274   12.0160   58.4537 H   0  0  0  0  0  0  0  0  0  0  0  0
   43.2749   13.5841   60.5876 H   0  0  0  0  0  0  0  0  0  0  0  0
   41.7247   11.9014   56.5549 H   0  0  0  0  0  0  0  0  0  0  0  0
  1 19  1  0  0  0  0
  1 20  1  0  0  0  0
  2  4  2  0  0  0  0
  2  5  2  0  0  0  0
  2  8  1  0  0  0  0
  2 21  1  0  0  0  0
  3 23  1  0  0  0  0
  6 22  1  0  0  0  0
  7 22  2  0  0  0  0
  8 24  1  0  0  0  0
  9 25  1  0  0  0  0
 10 14  1  0  0  0  0
 10 21  2  0  0  0  0
 11 15  2  0  0  0  0
 11 21  1  0  0  0  0
 12 16  1  0  0  0  0
 12 23  2  0  0  0  0
 13 17  2  0  0  0  0
 13 23  1  0  0  0  0
 14 25  2  0  0  0  0
 15 25  1  0  0  0  0
 16 26  2  0  0  0  0
 17 26  1  0  0  0  0
 18 19  2  0  0  0  0
 18 24  1  0  0  0  0
 19 26  1  0  0  0  0
 20 22  1  0  0  0  0
 20 24  2  0  0  0  0
  6 27  1  0  0  0  0
  8 28  1  0  0  0  0
  9 29  1  0  0  0  0
  9 30  1  0  0  0  0
  9 31  1  0  0  0  0
 10 32  1  0  0  0  0
 11 33  1  0  0  0  0
 12 34  1  0  0  0  0
 13 35  1  0  0  0  0
 14 36  1  0  0  0  0
 15 37  1  0  0  0  0
 16 38  1  0  0  0  0
 17 39  1  0  0  0  0
 18 40  1  0  0  0  0
M  END
> <pdb_id>
2D3Z

> <uniprot_id>
Q99AU2

> <usmiles>
S(=O)(=O)(NC1=C(SC(c2ccc(F)cc2)=C1)C(=O)O)c3ccc(cc3)C

$$$$
FJ2_A_301
          07192420423D 1   1.00000     0.00000     0
            
 41 43  0  0  0  0            999 V2000
   69.3859   32.4905   26.4367 Cl  0  0  0  0  0  0  0  0  0  0  0  0
   67.2008   39.3658   22.2850 O   0  0  0  0  0  0  0  0  0  0  0  0
   66.7834   32.1357   27.7419 O   0  0  0  0  0  0  0  0  0  0  0  0
   64.2608   34.2877   24.2627 O   0  0  0  0  0  0  0  0  0  0  0  0
   66.1724   35.8716   20.9667 O   0  0  0  0  0  0  0  0  0  0  0  0
   71.3187   38.5370   26.1804 O   0  0  0  0  0  0  0  0  0  0  0  0
   65.8883   34.9287   21.8494 N   0  0  0  0  0  0  0  0  0  0  0  0
   67.6579   37.7715   20.6917 N   0  0  0  0  0  0  0  0  0  0  0  0
   70.9897   38.9390   27.4577 C   0  0  0  0  0  0  0  0  0  0  0  0
   68.4637   40.1143   20.4210 C   0  0  0  0  0  0  0  0  0  0  0  0
   70.7075   37.5578   24.0934 C   0  0  0  0  0  0  0  0  0  0  0  0
   69.0195   37.9081   25.7754 C   0  0  0  0  0  0  0  0  0  0  0  0
   69.7581   36.9918   23.2491 C   0  0  0  0  0  0  0  0  0  0  0  0
   68.0710   37.3401   24.9220 C   0  0  0  0  0  0  0  0  0  0  0  0
   65.4999   33.2101   26.0129 C   0  0  0  0  0  0  0  0  0  0  0  0
   67.8473   33.8477   24.6790 C   0  0  0  0  0  0  0  0  0  0  0  0
   67.7914   39.0739   21.2484 C   0  0  0  0  0  0  0  0  0  0  0  0
   67.8837   33.1202   25.8585 C   0  0  0  0  0  0  0  0  0  0  0  0
   67.0758   36.6950   21.4155 C   0  0  0  0  0  0  0  0  0  0  0  0
   66.7247   32.8047   26.5356 C   0  0  0  0  0  0  0  0  0  0  0  0
   65.4585   33.9364   24.8355 C   0  0  0  0  0  0  0  0  0  0  0  0
   70.3477   38.0113   25.3518 C   0  0  0  0  0  0  0  0  0  0  0  0
   66.6124   35.1004   22.9557 C   0  0  0  0  0  0  0  0  0  0  0  0
   68.4421   36.8710   23.6603 C   0  0  0  0  0  0  0  0  0  0  0  0
   66.6267   34.2660   24.1782 C   0  0  0  0  0  0  0  0  0  0  0  0
   67.4523   36.2694   22.7288 C   0  0  0  0  0  0  0  0  0  0  0  0
   67.6668   31.8474   28.1113 H   0  0  0  0  0  0  0  0  0  0  0  0
   64.2484   34.8127   23.4117 H   0  0  0  0  0  0  0  0  0  0  0  0
   67.9841   37.6078   19.7607 H   0  0  0  0  0  0  0  0  0  0  0  0
   71.8051   39.2922   27.9164 H   0  0  0  0  0  0  0  0  0  0  0  0
   70.2952   39.6571   27.4126 H   0  0  0  0  0  0  0  0  0  0  0  0
   70.6302   38.1593   27.9704 H   0  0  0  0  0  0  0  0  0  0  0  0
   68.8860   39.6841   19.6232 H   0  0  0  0  0  0  0  0  0  0  0  0
   67.7887   40.7873   20.1187 H   0  0  0  0  0  0  0  0  0  0  0  0
   69.1678   40.5698   20.9658 H   0  0  0  0  0  0  0  0  0  0  0  0
   71.6569   37.6381   23.7897 H   0  0  0  0  0  0  0  0  0  0  0  0
   68.7512   38.2377   26.6806 H   0  0  0  0  0  0  0  0  0  0  0  0
   70.0276   36.6707   22.3412 H   0  0  0  0  0  0  0  0  0  0  0  0
   67.1182   37.2688   25.2171 H   0  0  0  0  0  0  0  0  0  0  0  0
   64.6511   32.9768   26.4874 H   0  0  0  0  0  0  0  0  0  0  0  0
   68.6942   34.0680   24.1949 H   0  0  0  0  0  0  0  0  0  0  0  0
  1 18  1  0  0  0  0
  2 17  2  0  0  0  0
  3 20  1  0  0  0  0
  4 21  1  0  0  0  0
  5  7  1  0  0  0  0
  5 19  1  0  0  0  0
  6  9  1  0  0  0  0
  6 22  1  0  0  0  0
  7 23  2  0  0  0  0
  8 17  1  0  0  0  0
  8 19  1  0  0  0  0
 10 17  1  0  0  0  0
 11 13  2  0  0  0  0
 11 22  1  0  0  0  0
 12 14  1  0  0  0  0
 12 22  2  0  0  0  0
 13 24  1  0  0  0  0
 14 24  2  0  0  0  0
 15 20  2  0  0  0  0
 15 21  1  0  0  0  0
 16 18  2  0  0  0  0
 16 25  1  0  0  0  0
 18 20  1  0  0  0  0
 19 26  2  0  0  0  0
 21 25  2  0  0  0  0
 23 25  1  0  0  0  0
 23 26  1  0  0  0  0
 24 26  1  0  0  0  0
  3 27  1  0  0  0  0
  4 28  1  0  0  0  0
  8 29  1  0  0  0  0
  9 30  1  0  0  0  0
  9 31  1  0  0  0  0
  9 32  1  0  0  0  0
 10 33  1  0  0  0  0
 10 34  1  0  0  0  0
 10 35  1  0  0  0  0
 11 36  1  0  0  0  0
 12 37  1  0  0  0  0
 13 38  1  0  0  0  0
 14 39  1  0  0  0  0
 15 40  1  0  0  0  0
 16 41  1  0  0  0  0
M  END
> <pdb_id>
4LWE

> <uniprot_id>
P07900

> <usmiles>
Clc1c(O)cc(O)c(c1)C2=NOC(NC(=O)C)=C2c3ccc(OC)cc3

$$$$
FJ6_A_301
          07192420423D 1   1.00000     0.00000     0
            
 52 55  0  0  0  0            999 V2000
   68.5406   40.1084   20.4539 O   0  0  0  0  0  0  0  0  0  0  0  0
   67.0521   32.2119   27.6897 O   0  0  0  0  0  0  0  0  0  0  0  0
   64.3652   34.4112   24.3569 O   0  0  0  0  0  0  0  0  0  0  0  0
   66.4075   35.9625   20.8154 O   0  0  0  0  0  0  0  0  0  0  0  0
   71.1457   38.5791   26.5281 O   0  0  0  0  0  0  0  0  0  0  0  0
   66.0850   34.9868   21.6542 N   0  0  0  0  0  0  0  0  0  0  0  0
   67.8678   37.9629   20.7513 N   0  0  0  0  0  0  0  0  0  0  0  0
   70.7071   39.1453   27.6901 C   0  0  0  0  0  0  0  0  0  0  0  0
   69.7641   31.4374   25.6602 C   0  0  0  0  0  0  0  0  0  0  0  0
   70.6323   33.7528   26.0243 C   0  0  0  0  0  0  0  0  0  0  0  0
   68.8712   37.9167   25.9310 C   0  0  0  0  0  0  0  0  0  0  0  0
   70.7435   37.6449   24.4113 C   0  0  0  0  0  0  0  0  0  0  0  0
   68.0145   37.3660   24.9673 C   0  0  0  0  0  0  0  0  0  0  0  0
   69.8731   37.0888   23.4424 C   0  0  0  0  0  0  0  0  0  0  0  0
   66.4753   40.7986   23.0227 C   0  0  0  0  0  0  0  0  0  0  0  0
   67.6207   40.4386   23.7061 C   0  0  0  0  0  0  0  0  0  0  0  0
   65.7285   33.2979   26.0554 C   0  0  0  0  0  0  0  0  0  0  0  0
   68.0762   33.9510   24.6221 C   0  0  0  0  0  0  0  0  0  0  0  0
   67.9726   39.3850   21.1641 C   0  0  0  0  0  0  0  0  0  0  0  0
   67.2995   36.8622   21.3671 C   0  0  0  0  0  0  0  0  0  0  0  0
   66.9713   32.9197   26.5103 C   0  0  0  0  0  0  0  0  0  0  0  0
   65.6255   34.0094   24.8781 C   0  0  0  0  0  0  0  0  0  0  0  0
   70.2620   38.0446   25.6181 C   0  0  0  0  0  0  0  0  0  0  0  0
   69.5135   32.8019   26.2800 C   0  0  0  0  0  0  0  0  0  0  0  0
   66.7883   35.1537   22.8552 C   0  0  0  0  0  0  0  0  0  0  0  0
   67.4300   40.0296   22.4025 C   0  0  0  0  0  0  0  0  0  0  0  0
   68.5116   36.9602   23.7471 C   0  0  0  0  0  0  0  0  0  0  0  0
   68.1639   33.2601   25.7933 C   0  0  0  0  0  0  0  0  0  0  0  0
   66.8154   34.3299   24.1667 C   0  0  0  0  0  0  0  0  0  0  0  0
   67.6093   36.3856   22.7207 C   0  0  0  0  0  0  0  0  0  0  0  0
   67.9435   31.9257   28.0410 H   0  0  0  0  0  0  0  0  0  0  0  0
   64.3193   34.9264   23.5011 H   0  0  0  0  0  0  0  0  0  0  0  0
   68.2849   37.7640   19.8645 H   0  0  0  0  0  0  0  0  0  0  0  0
   71.4906   39.4750   28.2168 H   0  0  0  0  0  0  0  0  0  0  0  0
   70.1008   39.9122   27.4792 H   0  0  0  0  0  0  0  0  0  0  0  0
   70.2084   38.4637   28.2256 H   0  0  0  0  0  0  0  0  0  0  0  0
   68.9905   30.8350   25.8566 H   0  0  0  0  0  0  0  0  0  0  0  0
   69.8678   31.5349   24.6704 H   0  0  0  0  0  0  0  0  0  0  0  0
   70.5989   31.0444   26.0457 H   0  0  0  0  0  0  0  0  0  0  0  0
   70.4245   34.6339   26.4490 H   0  0  0  0  0  0  0  0  0  0  0  0
   71.4771   33.3860   26.4139 H   0  0  0  0  0  0  0  0  0  0  0  0
   70.7460   33.8764   25.0385 H   0  0  0  0  0  0  0  0  0  0  0  0
   68.5179   38.2138   26.8181 H   0  0  0  0  0  0  0  0  0  0  0  0
   71.7173   37.7442   24.2067 H   0  0  0  0  0  0  0  0  0  0  0  0
   67.0394   37.2672   25.1658 H   0  0  0  0  0  0  0  0  0  0  0  0
   70.2249   36.7924   22.5544 H   0  0  0  0  0  0  0  0  0  0  0  0
   66.3388   41.7486   22.7416 H   0  0  0  0  0  0  0  0  0  0  0  0
   65.5955   40.3959   23.2748 H   0  0  0  0  0  0  0  0  0  0  0  0
   68.1783   40.4594   24.5360 H   0  0  0  0  0  0  0  0  0  0  0  0
   64.9074   33.0591   26.5738 H   0  0  0  0  0  0  0  0  0  0  0  0
   68.8984   34.1809   24.1013 H   0  0  0  0  0  0  0  0  0  0  0  0
   69.4482   32.6745   27.2697 H   0  0  0  0  0  0  0  0  0  0  0  0
  1 19  2  0  0  0  0
  2 21  1  0  0  0  0
  3 22  1  0  0  0  0
  4  6  1  0  0  0  0
  4 20  1  0  0  0  0
  5  8  1  0  0  0  0
  5 23  1  0  0  0  0
  6 25  2  0  0  0  0
  7 19  1  0  0  0  0
  7 20  1  0  0  0  0
  9 24  1  0  0  0  0
 10 24  1  0  0  0  0
 11 13  2  0  0  0  0
 11 23  1  0  0  0  0
 12 14  1  0  0  0  0
 12 23  2  0  0  0  0
 13 27  1  0  0  0  0
 14 27  2  0  0  0  0
 15 16  1  0  0  0  0
 15 26  1  0  0  0  0
 16 26  2  0  0  0  0
 17 21  2  0  0  0  0
 17 22  1  0  0  0  0
 18 28  2  0  0  0  0
 18 29  1  0  0  0  0
 19 26  1  0  0  0  0
 20 30  2  0  0  0  0
 21 28  1  0  0  0  0
 22 29  2  0  0  0  0
 24 28  1  0  0  0  0
 25 29  1  0  0  0  0
 25 30  1  0  0  0  0
 27 30  1  0  0  0  0
  2 31  1  0  0  0  0
  3 32  1  0  0  0  0
  7 33  1  0  0  0  0
  8 34  1  0  0  0  0
  8 35  1  0  0  0  0
  8 36  1  0  0  0  0
  9 37  1  0  0  0  0
  9 38  1  0  0  0  0
  9 39  1  0  0  0  0
 10 40  1  0  0  0  0
 10 41  1  0  0  0  0
 10 42  1  0  0  0  0
 11 43  1  0  0  0  0
 12 44  1  0  0  0  0
 13 45  1  0  0  0  0
 14 46  1  0  0  0  0
 15 47  1  0  0  0  0
 15 48  1  0  0  0  0
 16 49  1  0  0  0  0
 17 50  1  0  0  0  0
 18 51  1  0  0  0  0
 24 52  1  0  0  0  0
M  END
> <pdb_id>
4LWI

> <uniprot_id>
P07900

> <usmiles>
O=C(NC=1ON=C(c2c(O)cc(O)c(c2)C(C)C)C1c3ccc(OC)cc3)C4=CC4

$$$$
FKC_A_501
          07202400393D 1   1.00000     0.00000     0
            
 79 82  0  0  0  0            999 V2000
   16.4196    7.0972   19.0912 O   0  0  0  0  0  0  0  0  0  0  0  0
   17.6781    8.8334   19.3074 O   0  0  0  0  0  0  0  0  0  0  0  0
    9.5793   -2.1269   27.7977 O   0  0  0  0  0  0  0  0  0  0  0  0
   14.8732    8.2061   23.8541 C   0  0  0  0  0  0  0  0  0  0  0  0
    8.0484   -0.3022   28.1064 C   0  0  0  0  0  0  0  0  0  0  0  0
    8.0201   -1.7718   26.0769 C   0  0  0  0  0  0  0  0  0  0  0  0
   13.9524    2.9344   29.3064 C   0  0  0  0  0  0  0  0  0  0  0  0
   16.1300    5.8828   26.1175 C   0  0  0  0  0  0  0  0  0  0  0  0
   16.3396    8.3438   21.1514 C   0  0  0  0  0  0  0  0  0  0  0  0
   15.9968    7.0489   21.8428 C   0  0  0  0  0  0  0  0  0  0  0  0
   15.1463    1.5075   26.0887 C   0  0  0  0  0  0  0  0  0  0  0  0
   14.7986    0.7485   27.3558 C   0  0  0  0  0  0  0  0  0  0  0  0
   16.5535    4.7022   23.3656 C   0  0  0  0  0  0  0  0  0  0  0  0
   16.4958    3.5494   24.3628 C   0  0  0  0  0  0  0  0  0  0  0  0
   10.7114    2.0292   27.4324 C   0  0  0  0  0  0  0  0  0  0  0  0
   13.3674    4.8360   26.9471 C   0  0  0  0  0  0  0  0  0  0  0  0
   12.3847    0.3081   27.0165 C   0  0  0  0  0  0  0  0  0  0  0  0
   11.6775    2.7122   28.4048 C   0  0  0  0  0  0  0  0  0  0  0  0
   13.6739    5.5883   25.6346 C   0  0  0  0  0  0  0  0  0  0  0  0
    9.9504   -0.1555   26.4455 C   0  0  0  0  0  0  0  0  0  0  0  0
   16.8230    8.0704   19.7514 C   0  0  0  0  0  0  0  0  0  0  0  0
   15.8315    7.1227   23.3648 C   0  0  2  0  0  0  0  0  0  0  0  0
   10.9199    0.5101   27.4404 C   0  0  2  0  0  0  0  0  0  0  0  0
   14.9520    3.0037   26.2994 C   0  0  1  0  0  0  0  0  0  0  0  0
   13.4087    1.0449   27.8745 C   0  0  2  0  0  0  0  0  0  0  0  0
   15.4319    5.6825   23.7466 C   0  0  2  0  0  0  0  0  0  0  0  0
   15.1794    3.7847   25.0436 C   0  0  1  0  0  0  0  0  0  0  0  0
   13.5245    3.3292   26.7942 C   0  0  1  0  0  0  0  0  0  0  0  0
    8.9095   -1.0767   27.0975 C   0  0  0  0  0  0  0  0  0  0  0  0
   13.1460    2.5459   28.0704 C   0  0  2  0  0  0  0  0  0  0  0  0
   15.0884    5.3031   25.1647 C   0  0  1  0  0  0  0  0  0  0  0  0
    8.9463   -2.7101   28.2076 H   0  0  0  0  0  0  0  0  0  0  0  0
   14.0048    7.7771   24.2672 H   0  0  0  0  0  0  0  0  0  0  0  0
   14.5779    8.8246   23.0488 H   0  0  0  0  0  0  0  0  0  0  0  0
   15.3596    8.7982   24.5856 H   0  0  0  0  0  0  0  0  0  0  0  0
    8.2314    0.7351   28.0236 H   0  0  0  0  0  0  0  0  0  0  0  0
    8.2891   -0.6198   29.0879 H   0  0  0  0  0  0  0  0  0  0  0  0
    7.0190   -0.4783   27.9332 H   0  0  0  0  0  0  0  0  0  0  0  0
    8.3190   -1.4875   25.1017 H   0  0  0  0  0  0  0  0  0  0  0  0
    7.0050   -1.5061   26.2151 H   0  0  0  0  0  0  0  0  0  0  0  0
    8.1186   -2.8216   26.1742 H   0  0  0  0  0  0  0  0  0  0  0  0
   14.7048    3.6311   29.0490 H   0  0  0  0  0  0  0  0  0  0  0  0
   14.4138    2.0915   29.7493 H   0  0  0  0  0  0  0  0  0  0  0  0
   13.3149    3.3838   30.0249 H   0  0  0  0  0  0  0  0  0  0  0  0
   16.8452    6.4589   25.5978 H   0  0  0  0  0  0  0  0  0  0  0  0
   16.6387    5.1136   26.6319 H   0  0  0  0  0  0  0  0  0  0  0  0
   15.6525    6.5049   26.8265 H   0  0  0  0  0  0  0  0  0  0  0  0
   15.4615    8.9894   21.1035 H   0  0  0  0  0  0  0  0  0  0  0  0
   17.1163    8.8677   21.7142 H   0  0  0  0  0  0  0  0  0  0  0  0
   16.7615    6.3241   21.5894 H   0  0  0  0  0  0  0  0  0  0  0  0
   15.0652    6.6823   21.4095 H   0  0  0  0  0  0  0  0  0  0  0  0
   16.1865    1.3019   25.8290 H   0  0  0  0  0  0  0  0  0  0  0  0
   14.5224    1.1661   25.2620 H   0  0  0  0  0  0  0  0  0  0  0  0
   15.5369    0.9869   28.1235 H   0  0  0  0  0  0  0  0  0  0  0  0
   14.8820   -0.3218   27.1561 H   0  0  0  0  0  0  0  0  0  0  0  0
   17.5298    5.1878   23.4212 H   0  0  0  0  0  0  0  0  0  0  0  0
   16.4019    4.3158   22.3559 H   0  0  0  0  0  0  0  0  0  0  0  0
   17.3303    3.5868   25.0671 H   0  0  0  0  0  0  0  0  0  0  0  0
   16.5025    2.5900   23.8420 H   0  0  0  0  0  0  0  0  0  0  0  0
    9.6888    2.2641   27.7284 H   0  0  0  0  0  0  0  0  0  0  0  0
   10.8548    2.4167   26.4226 H   0  0  0  0  0  0  0  0  0  0  0  0
   12.3426    5.0745   27.2280 H   0  0  0  0  0  0  0  0  0  0  0  0
   14.0177    5.2070   27.7397 H   0  0  0  0  0  0  0  0  0  0  0  0
   12.4802    0.6462   25.9833 H   0  0  0  0  0  0  0  0  0  0  0  0
   12.6116   -0.7557   27.0228 H   0  0  0  0  0  0  0  0  0  0  0  0
   11.5006    2.2782   29.3916 H   0  0  0  0  0  0  0  0  0  0  0  0
   11.4206    3.7689   28.4839 H   0  0  0  0  0  0  0  0  0  0  0  0
   12.9600    5.2907   24.8654 H   0  0  0  0  0  0  0  0  0  0  0  0
   13.5477    6.6554   25.8200 H   0  0  0  0  0  0  0  0  0  0  0  0
    9.4216    0.6195   25.8865 H   0  0  0  0  0  0  0  0  0  0  0  0
   10.5250   -0.7366   25.7224 H   0  0  0  0  0  0  0  0  0  0  0  0
   16.8239    7.3421   23.7809 H   0  0  0  0  0  0  0  0  0  0  0  0
   10.7735    0.1220   28.4544 H   0  0  0  0  0  0  0  0  0  0  0  0
   15.6717    3.3256   27.0614 H   0  0  0  0  0  0  0  0  0  0  0  0
   13.3393    0.5745   28.8650 H   0  0  0  0  0  0  0  0  0  0  0  0
   14.5554    5.4225   23.1358 H   0  0  0  0  0  0  0  0  0  0  0  0
   14.4006    3.4667   24.3366 H   0  0  0  0  0  0  0  0  0  0  0  0
   12.8414    3.0148   25.9945 H   0  0  0  0  0  0  0  0  0  0  0  0
   15.7231    6.4890   19.4718 H   0  0  0  0  0  0  0  0  0  0  0  0
  1 21  1  0  0  0  0
  2 21  2  0  0  0  0
  3 29  1  0  0  0  0
  3 32  1  0  0  0  0
  4 22  1  0  0  0  0
  4 33  1  0  0  0  0
  4 34  1  0  0  0  0
  4 35  1  0  0  0  0
  5 29  1  0  0  0  0
  5 36  1  0  0  0  0
  5 37  1  0  0  0  0
  5 38  1  0  0  0  0
  6 29  1  0  0  0  0
  6 39  1  0  0  0  0
  6 40  1  0  0  0  0
  6 41  1  0  0  0  0
  7 30  1  0  0  0  0
  7 42  1  0  0  0  0
  7 43  1  0  0  0  0
  7 44  1  0  0  0  0
  8 31  1  0  0  0  0
  8 45  1  0  0  0  0
  8 46  1  0  0  0  0
  8 47  1  0  0  0  0
  9 10  1  0  0  0  0
  9 21  1  0  0  0  0
  9 48  1  0  0  0  0
  9 49  1  0  0  0  0
 10 22  1  0  0  0  0
 10 50  1  0  0  0  0
 10 51  1  0  0  0  0
 11 12  1  0  0  0  0
 11 24  1  0  0  0  0
 11 52  1  0  0  0  0
 11 53  1  0  0  0  0
 12 25  1  0  0  0  0
 12 54  1  0  0  0  0
 12 55  1  0  0  0  0
 13 14  1  0  0  0  0
 13 26  1  0  0  0  0
 13 56  1  0  0  0  0
 13 57  1  0  0  0  0
 14 27  1  0  0  0  0
 14 58  1  0  0  0  0
 14 59  1  0  0  0  0
 15 18  1  0  0  0  0
 15 23  1  0  0  0  0
 15 60  1  0  0  0  0
 15 61  1  0  0  0  0
 16 19  1  0  0  0  0
 16 28  1  0  0  0  0
 16 62  1  0  0  0  0
 16 63  1  0  0  0  0
 17 23  1  0  0  0  0
 17 25  1  0  0  0  0
 17 64  1  0  0  0  0
 17 65  1  0  0  0  0
 18 30  1  0  0  0  0
 18 66  1  0  0  0  0
 18 67  1  0  0  0  0
 19 31  1  0  0  0  0
 19 68  1  0  0  0  0
 19 69  1  0  0  0  0
 20 23  1  0  0  0  0
 20 29  1  0  0  0  0
 20 70  1  0  0  0  0
 20 71  1  0  0  0  0
 22 26  1  0  0  0  0
 22 72  1  0  0  0  0
 23 73  1  0  0  0  0
 24 27  1  0  0  0  0
 24 28  1  0  0  0  0
 24 74  1  0  0  0  0
 25 30  1  0  0  0  0
 25 75  1  0  0  0  0
 26 31  1  0  0  0  0
 26 76  1  0  0  0  0
 27 31  1  0  0  0  0
 27 77  1  0  0  0  0
 28 30  1  0  0  0  0
 28 78  1  0  0  0  0
  1 79  1  0  0  0  0
M  END
> <pdb_id>
7C7V

> <uniprot_id>
P13053

> <usmiles>
O=C(O)CC[C@H]([C@@H]1[C@@]2([C@H]([C@H]3[C@@H]([C@@]4([C@@H](C[C@H](CC(O)(C)C)CC4)CC3)C)CC2)CC1)C)C

$$$$
FKE_A_302
          07192416293D 1   1.00000     0.00000     0
            
 44 46  0  0  0  0            999 V2000
   -5.8240    1.0951   16.7061 S   0  0  0  0  0  0  0  0  0  0  0  0
   -5.2520    1.2776   18.0069 O   0  0  0  0  0  0  0  0  0  0  0  0
   -7.2507    1.0894   16.5846 O   0  0  0  0  0  0  0  0  0  0  0  0
   -4.5564    5.9240   12.2215 O   0  0  0  0  0  0  0  0  0  0  0  0
   -5.2861   -0.3019   16.1362 N   0  0  0  0  0  0  0  0  0  0  0  0
   -2.4681    5.6894   13.0050 N   0  0  0  0  0  0  0  0  0  0  0  0
   -1.8839    6.4645   11.8995 C   0  0  0  0  0  0  0  0  0  0  0  0
   -1.7531    5.9293   14.2666 C   0  0  0  0  0  0  0  0  0  0  0  0
   -0.9732   12.4511   14.3831 C   0  0  0  0  0  0  0  0  0  0  0  0
   -1.9485   11.9397   13.5540 C   0  0  0  0  0  0  0  0  0  0  0  0
   -0.0446   11.6028   14.9489 C   0  0  0  0  0  0  0  0  0  0  0  0
   -1.8482    7.9508   12.2138 C   0  0  0  0  0  0  0  0  0  0  0  0
   -1.7184    7.4059   14.6201 C   0  0  0  0  0  0  0  0  0  0  0  0
   -6.0578    3.4132   15.2760 C   0  0  0  0  0  0  0  0  0  0  0  0
   -3.8963    2.3576   15.2385 C   0  0  0  0  0  0  0  0  0  0  0  0
   -1.9941   10.5818   13.2866 C   0  0  0  0  0  0  0  0  0  0  0  0
   -0.0902   10.2439   14.6806 C   0  0  0  0  0  0  0  0  0  0  0  0
   -5.5857    4.3923   14.4198 C   0  0  0  0  0  0  0  0  0  0  0  0
   -3.4353    3.3397   14.3812 C   0  0  0  0  0  0  0  0  0  0  0  0
   -5.2091    2.3948   15.6799 C   0  0  0  0  0  0  0  0  0  0  0  0
   -3.7796    5.4024   13.0027 C   0  0  0  0  0  0  0  0  0  0  0  0
   -4.2739    4.3650   13.9603 C   0  0  0  0  0  0  0  0  0  0  0  0
   -1.0741    8.2249   13.5033 C   0  0  0  0  0  0  0  0  0  0  0  0
   -1.0625    9.7123   13.8426 C   0  0  0  0  0  0  0  0  0  0  0  0
   -5.6683   -0.4598   15.2257 H   0  0  0  0  0  0  0  0  0  0  0  0
   -4.2880   -0.2764   16.0788 H   0  0  0  0  0  0  0  0  0  0  0  0
   -2.4334    6.3203   11.0765 H   0  0  0  0  0  0  0  0  0  0  0  0
   -0.9504    6.1449   11.7372 H   0  0  0  0  0  0  0  0  0  0  0  0
   -0.8148    5.5957   14.1759 H   0  0  0  0  0  0  0  0  0  0  0  0
   -2.2146    5.4311   15.0006 H   0  0  0  0  0  0  0  0  0  0  0  0
   -0.9392   13.4323   14.5733 H   0  0  0  0  0  0  0  0  0  0  0  0
   -2.6253   12.5513   13.1442 H   0  0  0  0  0  0  0  0  0  0  0  0
    0.6627   11.9687   15.5536 H   0  0  0  0  0  0  0  0  0  0  0  0
   -2.7850    8.2846   12.3186 H   0  0  0  0  0  0  0  0  0  0  0  0
   -1.4049    8.4333   11.4585 H   0  0  0  0  0  0  0  0  0  0  0  0
   -1.1906    7.5280   15.4606 H   0  0  0  0  0  0  0  0  0  0  0  0
   -2.6538    7.7291   14.7639 H   0  0  0  0  0  0  0  0  0  0  0  0
   -7.0033    3.4402   15.6006 H   0  0  0  0  0  0  0  0  0  0  0  0
   -3.2857    1.6246   15.5382 H   0  0  0  0  0  0  0  0  0  0  0  0
   -2.7072   10.2214   12.6853 H   0  0  0  0  0  0  0  0  0  0  0  0
    0.5870    9.6368   15.0964 H   0  0  0  0  0  0  0  0  0  0  0  0
   -6.1958    5.1289   14.1278 H   0  0  0  0  0  0  0  0  0  0  0  0
   -2.4884    3.3120   14.0607 H   0  0  0  0  0  0  0  0  0  0  0  0
   -0.1307    7.9161   13.3827 H   0  0  0  0  0  0  0  0  0  0  0  0
  1  2  2  0  0  0  0
  1  3  2  0  0  0  0
  1  5  1  0  0  0  0
  1 20  1  0  0  0  0
  4 21  2  0  0  0  0
  6  7  1  0  0  0  0
  6  8  1  0  0  0  0
  6 21  1  0  0  0  0
  7 12  1  0  0  0  0
  8 13  1  0  0  0  0
  9 10  2  0  0  0  0
  9 11  1  0  0  0  0
 10 16  1  0  0  0  0
 11 17  2  0  0  0  0
 12 23  1  0  0  0  0
 13 23  1  0  0  0  0
 14 18  1  0  0  0  0
 14 20  2  0  0  0  0
 15 19  2  0  0  0  0
 15 20  1  0  0  0  0
 16 24  2  0  0  0  0
 17 24  1  0  0  0  0
 18 22  2  0  0  0  0
 19 22  1  0  0  0  0
 21 22  1  0  0  0  0
 23 24  1  0  0  0  0
  5 25  1  0  0  0  0
  5 26  1  0  0  0  0
  7 27  1  0  0  0  0
  7 28  1  0  0  0  0
  8 29  1  0  0  0  0
  8 30  1  0  0  0  0
  9 31  1  0  0  0  0
 10 32  1  0  0  0  0
 11 33  1  0  0  0  0
 12 34  1  0  0  0  0
 12 35  1  0  0  0  0
 13 36  1  0  0  0  0
 13 37  1  0  0  0  0
 14 38  1  0  0  0  0
 15 39  1  0  0  0  0
 16 40  1  0  0  0  0
 17 41  1  0  0  0  0
 18 42  1  0  0  0  0
 19 43  1  0  0  0  0
 23 44  1  0  0  0  0
M  END
> <pdb_id>
6H2Z

> <uniprot_id>
P00918

> <usmiles>
S(=O)(=O)(N)c1ccc(cc1)C(=O)N2CCC(c3ccccc3)CC2

$$$$
FKG_A_1003
          07202411583D 1   1.00000     0.00000     0
            
 40 42  0  0  0  0            999 V2000
   17.5407    5.7248   24.3679 F   0  0  0  0  0  0  0  0  0  0  0  0
   18.9666    4.2473   23.8687 F   0  0  0  0  0  0  0  0  0  0  0  0
   18.5571    5.8349   22.5822 F   0  0  0  0  0  0  0  0  0  0  0  0
   17.5960    0.6276   16.4960 O   0  0  0  0  0  0  0  0  0  0  0  0
   14.3656    1.3841   14.6048 O   0  0  0  0  0  0  0  0  0  0  0  0
   15.4078    0.8693   18.9321 N   0  0  0  0  0  0  0  0  0  0  0  0
   12.8188    2.6505   15.6463 N   0  0  0  0  0  0  0  0  0  0  0  0
   12.6891    2.9600   17.9974 N   0  0  0  0  0  0  0  0  0  0  0  0
   14.3497    1.7043   19.1940 N   0  0  0  0  0  0  0  0  0  0  0  0
   11.0523    4.0328   16.5555 C   0  0  0  0  0  0  0  0  0  0  0  0
   13.3931    0.6491   21.2253 C   0  0  0  0  0  0  0  0  0  0  0  0
   16.4226   -0.0830   16.8529 C   0  0  0  0  0  0  0  0  0  0  0  0
   15.0874    4.0951   21.1354 C   0  0  0  0  0  0  0  0  0  0  0  0
   15.8000    2.1188   22.2676 C   0  0  0  0  0  0  0  0  0  0  0  0
   16.0524    4.8297   21.8051 C   0  0  0  0  0  0  0  0  0  0  0  0
   16.7639    2.8529   22.9428 C   0  0  0  0  0  0  0  0  0  0  0  0
   13.9221    1.8170   15.6608 C   0  0  0  0  0  0  0  0  0  0  0  0
   12.2530    3.1752   16.7517 C   0  0  0  0  0  0  0  0  0  0  0  0
   13.7590    2.1369   18.0524 C   0  0  0  0  0  0  0  0  0  0  0  0
   15.4627    0.7642   17.6169 C   0  0  0  0  0  0  0  0  0  0  0  0
   13.8925    1.9460   20.5878 C   0  0  1  0  0  0  0  0  0  0  0  0
   14.9519    2.7292   21.3481 C   0  0  0  0  0  0  0  0  0  0  0  0
   16.9110    4.2151   22.7076 C   0  0  0  0  0  0  0  0  0  0  0  0
   14.4452    1.5325   16.9730 C   0  0  0  0  0  0  0  0  0  0  0  0
   17.9885    4.9970   23.3803 C   0  0  0  0  0  0  0  0  0  0  0  0
   18.2095    0.0237   15.9872 H   0  0  0  0  0  0  0  0  0  0  0  0
   12.4153    2.8785   14.7602 H   0  0  0  0  0  0  0  0  0  0  0  0
   10.7274    4.3595   17.4430 H   0  0  0  0  0  0  0  0  0  0  0  0
   11.2917    4.8147   15.9798 H   0  0  0  0  0  0  0  0  0  0  0  0
   10.3313    3.5005   16.1119 H   0  0  0  0  0  0  0  0  0  0  0  0
   13.0906    0.8324   22.1606 H   0  0  0  0  0  0  0  0  0  0  0  0
   12.6278    0.2887   20.6920 H   0  0  0  0  0  0  0  0  0  0  0  0
   14.1344   -0.0220   21.2401 H   0  0  0  0  0  0  0  0  0  0  0  0
   16.6801   -0.8673   17.4174 H   0  0  0  0  0  0  0  0  0  0  0  0
   15.9749   -0.4053   16.0189 H   0  0  0  0  0  0  0  0  0  0  0  0
   14.4790    4.5554   20.4889 H   0  0  0  0  0  0  0  0  0  0  0  0
   15.7134    1.1383   22.4436 H   0  0  0  0  0  0  0  0  0  0  0  0
   16.1317    5.8123   21.6371 H   0  0  0  0  0  0  0  0  0  0  0  0
   17.3588    2.3979   23.6054 H   0  0  0  0  0  0  0  0  0  0  0  0
   13.0965    2.5476   20.5197 H   0  0  0  0  0  0  0  0  0  0  0  0
  1 25  1  0  0  0  0
  2 25  1  0  0  0  0
  3 25  1  0  0  0  0
  4 12  1  0  0  0  0
  5 17  2  0  0  0  0
  6  9  1  0  0  0  0
  6 20  2  0  0  0  0
  7 17  1  0  0  0  0
  7 18  1  0  0  0  0
  8 18  2  0  0  0  0
  8 19  1  0  0  0  0
  9 19  1  0  0  0  0
  9 21  1  0  0  0  0
 10 18  1  0  0  0  0
 11 21  1  0  0  0  0
 12 20  1  0  0  0  0
 13 15  2  0  0  0  0
 13 22  1  0  0  0  0
 14 16  1  0  0  0  0
 14 22  2  0  0  0  0
 15 23  1  0  0  0  0
 16 23  2  0  0  0  0
 17 24  1  0  0  0  0
 19 24  2  0  0  0  0
 20 24  1  0  0  0  0
 21 22  1  0  0  0  0
 23 25  1  0  0  0  0
  4 26  1  0  0  0  0
  7 27  1  0  0  0  0
 10 28  1  0  0  0  0
 10 29  1  0  0  0  0
 10 30  1  0  0  0  0
 11 31  1  0  0  0  0
 11 32  1  0  0  0  0
 11 33  1  0  0  0  0
 12 34  1  0  0  0  0
 12 35  1  0  0  0  0
 13 36  1  0  0  0  0
 14 37  1  0  0  0  0
 15 38  1  0  0  0  0
 16 39  1  0  0  0  0
 21 40  1  0  0  0  0
M  END
> <pdb_id>
6CYD

> <uniprot_id>
O00408

> <usmiles>
FC(F)(F)c1ccc(cc1)[C@@H](N2N=C(C=3C(=O)NC(=NC23)C)CO)C

$$$$
FKJ_A_1003
          07202411583D 1   1.00000     0.00000     0
            
 38 40  0  0  0  0            999 V2000
   18.9992    4.3085   23.9188 F   0  0  0  0  0  0  0  0  0  0  0  0
   17.6595    5.8001   24.3773 F   0  0  0  0  0  0  0  0  0  0  0  0
   18.6507    5.8584   22.5558 F   0  0  0  0  0  0  0  0  0  0  0  0
   17.3514    0.6979   16.3493 O   0  0  0  0  0  0  0  0  0  0  0  0
   11.1060    4.1135   16.9406 O   0  0  0  0  0  0  0  0  0  0  0  0
   14.2412    1.6218   14.8337 O   0  0  0  0  0  0  0  0  0  0  0  0
   15.3373    0.9298   19.0548 N   0  0  0  0  0  0  0  0  0  0  0  0
   12.6302    2.8080   15.9064 N   0  0  0  0  0  0  0  0  0  0  0  0
   12.5491    2.9918   18.2602 N   0  0  0  0  0  0  0  0  0  0  0  0
   14.2651    1.7265   19.4292 N   0  0  0  0  0  0  0  0  0  0  0  0
   13.5736    0.5565   21.5323 C   0  0  0  0  0  0  0  0  0  0  0  0
   16.2673   -0.0243   16.9077 C   0  0  0  0  0  0  0  0  0  0  0  0
   15.7901    2.1717   22.5391 C   0  0  0  0  0  0  0  0  0  0  0  0
   15.1427    4.0543   21.2231 C   0  0  0  0  0  0  0  0  0  0  0  0
   16.7727    2.9293   23.1479 C   0  0  0  0  0  0  0  0  0  0  0  0
   16.1445    4.8066   21.8101 C   0  0  0  0  0  0  0  0  0  0  0  0
   12.0901    3.2846   17.0604 C   0  0  0  0  0  0  0  0  0  0  0  0
   13.7561    1.9834   15.8990 C   0  0  0  0  0  0  0  0  0  0  0  0
   13.6207    2.1807   18.3286 C   0  0  0  0  0  0  0  0  0  0  0  0
   15.3497    0.8527   17.7218 C   0  0  0  0  0  0  0  0  0  0  0  0
   13.8929    1.8942   20.8708 C   0  0  1  0  0  0  0  0  0  0  0  0
   14.9580    2.7214   21.5694 C   0  0  0  0  0  0  0  0  0  0  0  0
   16.9707    4.2552   22.7811 C   0  0  0  0  0  0  0  0  0  0  0  0
   14.2869    1.6379   17.1983 C   0  0  0  0  0  0  0  0  0  0  0  0
   18.0659    5.0548   23.4015 C   0  0  0  0  0  0  0  0  0  0  0  0
   17.9292    0.0760   15.8207 H   0  0  0  0  0  0  0  0  0  0  0  0
   12.2069    3.0566   15.0352 H   0  0  0  0  0  0  0  0  0  0  0  0
   12.1191    3.3572   19.0858 H   0  0  0  0  0  0  0  0  0  0  0  0
   13.3304    0.7080   22.4904 H   0  0  0  0  0  0  0  0  0  0  0  0
   12.8064    0.1248   21.0580 H   0  0  0  0  0  0  0  0  0  0  0  0
   14.3747   -0.0399   21.4821 H   0  0  0  0  0  0  0  0  0  0  0  0
   16.6315   -0.7439   17.4989 H   0  0  0  0  0  0  0  0  0  0  0  0
   15.7406   -0.4379   16.1650 H   0  0  0  0  0  0  0  0  0  0  0  0
   15.6755    1.2131   22.7999 H   0  0  0  0  0  0  0  0  0  0  0  0
   14.5442    4.4749   20.5413 H   0  0  0  0  0  0  0  0  0  0  0  0
   17.3459    2.5202   23.8579 H   0  0  0  0  0  0  0  0  0  0  0  0
   16.2753    5.7582   21.5322 H   0  0  0  0  0  0  0  0  0  0  0  0
   13.0509    2.4333   20.8900 H   0  0  0  0  0  0  0  0  0  0  0  0
  1 25  1  0  0  0  0
  2 25  1  0  0  0  0
  3 25  1  0  0  0  0
  4 12  1  0  0  0  0
  5 17  2  0  0  0  0
  6 18  2  0  0  0  0
  7 10  1  0  0  0  0
  7 20  2  0  0  0  0
  8 17  1  0  0  0  0
  8 18  1  0  0  0  0
  9 17  1  0  0  0  0
  9 19  1  0  0  0  0
 10 19  1  0  0  0  0
 10 21  1  0  0  0  0
 11 21  1  0  0  0  0
 12 20  1  0  0  0  0
 13 15  2  0  0  0  0
 13 22  1  0  0  0  0
 14 16  1  0  0  0  0
 14 22  2  0  0  0  0
 15 23  1  0  0  0  0
 16 23  2  0  0  0  0
 18 24  1  0  0  0  0
 19 24  2  0  0  0  0
 20 24  1  0  0  0  0
 21 22  1  0  0  0  0
 23 25  1  0  0  0  0
  4 26  1  0  0  0  0
  8 27  1  0  0  0  0
  9 28  1  0  0  0  0
 11 29  1  0  0  0  0
 11 30  1  0  0  0  0
 11 31  1  0  0  0  0
 12 32  1  0  0  0  0
 12 33  1  0  0  0  0
 13 34  1  0  0  0  0
 14 35  1  0  0  0  0
 15 36  1  0  0  0  0
 16 37  1  0  0  0  0
 21 38  1  0  0  0  0
M  END
> <pdb_id>
6CYC

> <uniprot_id>
O00408

> <usmiles>
FC(F)(F)c1ccc(cc1)[C@@H](N2N=C(C=3C(=O)NC(=O)NC23)CO)C

$$$$
FKQ_A_302
          07192416293D 1   1.00000     0.00000     0
            
 45 47  0  0  0  0            999 V2000
   -5.8742    1.0998   16.7945 S   0  0  0  0  0  0  0  0  0  0  0  0
   -5.2499    1.2839   18.0722 O   0  0  0  0  0  0  0  0  0  0  0  0
   -7.3030    1.1372   16.7271 O   0  0  0  0  0  0  0  0  0  0  0  0
   -4.5761    5.8159   12.1896 O   0  0  0  0  0  0  0  0  0  0  0  0
    0.2044    7.7057   13.3804 O   0  0  0  0  0  0  0  0  0  0  0  0
   -5.3965   -0.3179   16.2310 N   0  0  0  0  0  0  0  0  0  0  0  0
   -2.5082    5.6767   13.0478 N   0  0  0  0  0  0  0  0  0  0  0  0
   -1.8218    5.9487   14.3204 C   0  0  0  0  0  0  0  0  0  0  0  0
   -1.9118    6.4388   11.9363 C   0  0  0  0  0  0  0  0  0  0  0  0
   -0.8932   12.4636   14.3108 C   0  0  0  0  0  0  0  0  0  0  0  0
   -1.7826   11.9801   13.3736 C   0  0  0  0  0  0  0  0  0  0  0  0
   -0.0968   11.5853   15.0140 C   0  0  0  0  0  0  0  0  0  0  0  0
   -6.1091    3.3824   15.2993 C   0  0  0  0  0  0  0  0  0  0  0  0
   -3.9413    2.3399   15.3052 C   0  0  0  0  0  0  0  0  0  0  0  0
   -1.8746   10.6173   13.1396 C   0  0  0  0  0  0  0  0  0  0  0  0
   -0.1889   10.2225   14.7789 C   0  0  0  0  0  0  0  0  0  0  0  0
   -5.6309    4.3556   14.4377 C   0  0  0  0  0  0  0  0  0  0  0  0
   -3.4742    3.3171   14.4436 C   0  0  0  0  0  0  0  0  0  0  0  0
   -1.7958    7.4329   14.6418 C   0  0  0  0  0  0  0  0  0  0  0  0
   -1.8667    7.9318   12.2257 C   0  0  0  0  0  0  0  0  0  0  0  0
   -5.2602    2.3730   15.7281 C   0  0  0  0  0  0  0  0  0  0  0  0
   -3.8125    5.3561   13.0211 C   0  0  0  0  0  0  0  0  0  0  0  0
   -4.3120    4.3334   13.9978 C   0  0  0  0  0  0  0  0  0  0  0  0
   -1.0773    9.7170   13.8358 C   0  0  0  0  0  0  0  0  0  0  0  0
   -1.1173    8.2229   13.5254 C   0  0  0  0  0  0  0  0  0  0  0  0
    0.6791    8.2030   12.6541 H   0  0  0  0  0  0  0  0  0  0  0  0
   -5.8148   -0.4794   15.3371 H   0  0  0  0  0  0  0  0  0  0  0  0
   -4.4008   -0.3216   16.1386 H   0  0  0  0  0  0  0  0  0  0  0  0
   -0.8813    5.6144   14.2587 H   0  0  0  0  0  0  0  0  0  0  0  0
   -2.2993    5.4668   15.0551 H   0  0  0  0  0  0  0  0  0  0  0  0
   -2.4567    6.2864   11.1118 H   0  0  0  0  0  0  0  0  0  0  0  0
   -0.9791    6.1113   11.7847 H   0  0  0  0  0  0  0  0  0  0  0  0
   -0.8265   13.4470   14.4793 H   0  0  0  0  0  0  0  0  0  0  0  0
   -2.3622   12.6144   12.8620 H   0  0  0  0  0  0  0  0  0  0  0  0
    0.5484   11.9320   15.6948 H   0  0  0  0  0  0  0  0  0  0  0  0
   -7.0593    3.4074   15.6099 H   0  0  0  0  0  0  0  0  0  0  0  0
   -3.3302    1.6139   15.6208 H   0  0  0  0  0  0  0  0  0  0  0  0
   -2.5243   10.2769   12.4598 H   0  0  0  0  0  0  0  0  0  0  0  0
    0.3922    9.5933   15.2952 H   0  0  0  0  0  0  0  0  0  0  0  0
   -6.2422    5.0838   14.1278 H   0  0  0  0  0  0  0  0  0  0  0  0
   -2.5224    3.2919   14.1378 H   0  0  0  0  0  0  0  0  0  0  0  0
   -1.2928    7.5740   15.4945 H   0  0  0  0  0  0  0  0  0  0  0  0
   -2.7344    7.7604   14.7503 H   0  0  0  0  0  0  0  0  0  0  0  0
   -2.8020    8.2767   12.3047 H   0  0  0  0  0  0  0  0  0  0  0  0
   -1.4028    8.3961   11.4712 H   0  0  0  0  0  0  0  0  0  0  0  0
  1  2  2  0  0  0  0
  1  3  2  0  0  0  0
  1  6  1  0  0  0  0
  1 21  1  0  0  0  0
  4 22  2  0  0  0  0
  5 25  1  0  0  0  0
  7  8  1  0  0  0  0
  7  9  1  0  0  0  0
  7 22  1  0  0  0  0
  8 19  1  0  0  0  0
  9 20  1  0  0  0  0
 10 11  2  0  0  0  0
 10 12  1  0  0  0  0
 11 15  1  0  0  0  0
 12 16  2  0  0  0  0
 13 17  1  0  0  0  0
 13 21  2  0  0  0  0
 14 18  2  0  0  0  0
 14 21  1  0  0  0  0
 15 24  2  0  0  0  0
 16 24  1  0  0  0  0
 17 23  2  0  0  0  0
 18 23  1  0  0  0  0
 19 25  1  0  0  0  0
 20 25  1  0  0  0  0
 22 23  1  0  0  0  0
 24 25  1  0  0  0  0
  5 26  1  0  0  0  0
  6 27  1  0  0  0  0
  6 28  1  0  0  0  0
  8 29  1  0  0  0  0
  8 30  1  0  0  0  0
  9 31  1  0  0  0  0
  9 32  1  0  0  0  0
 10 33  1  0  0  0  0
 11 34  1  0  0  0  0
 12 35  1  0  0  0  0
 13 36  1  0  0  0  0
 14 37  1  0  0  0  0
 15 38  1  0  0  0  0
 16 39  1  0  0  0  0
 17 40  1  0  0  0  0
 18 41  1  0  0  0  0
 19 42  1  0  0  0  0
 19 43  1  0  0  0  0
 20 44  1  0  0  0  0
 20 45  1  0  0  0  0
M  END
> <pdb_id>
6H33

> <uniprot_id>
P00918

> <usmiles>
S(=O)(=O)(N)c1ccc(cc1)C(=O)N2CCC(O)(c3ccccc3)CC2

$$$$
FKR_A_301
          07202407183D 1   1.00000     0.00000     0
            
 40 42  0  0  0  0            999 V2000
   24.2771   20.2656   -2.0631 F   0  0  0  0  0  0  0  0  0  0  0  0
   36.7435   20.5494   -9.2023 O   0  0  0  0  0  0  0  0  0  0  0  0
   37.5935   19.4503   -7.6043 O   0  0  0  0  0  0  0  0  0  0  0  0
   30.1163   20.1744   -6.4092 O   0  0  0  0  0  0  0  0  0  0  0  0
   30.7454   17.1295   -3.9021 O   0  0  0  0  0  0  0  0  0  0  0  0
   27.0081   16.7156   -0.5081 N   0  0  0  0  0  0  0  0  0  0  0  0
   31.5689   18.5977   -5.6838 N   0  0  0  0  0  0  0  0  0  0  0  0
   28.8704   17.3977   -2.6958 N   0  0  0  0  0  0  0  0  0  0  0  0
   26.1969   16.4009    0.6677 C   0  0  0  0  0  0  0  0  0  0  0  0
   33.8510   18.3957   -5.9393 C   0  0  0  0  0  0  0  0  0  0  0  0
   32.7509   19.8569   -7.4835 C   0  0  0  0  0  0  0  0  0  0  0  0
   35.0668   18.7142   -6.5289 C   0  0  0  0  0  0  0  0  0  0  0  0
   33.9966   20.1710   -8.0862 C   0  0  0  0  0  0  0  0  0  0  0  0
   25.5913   18.4863   -1.2834 C   0  0  0  0  0  0  0  0  0  0  0  0
   26.2239   19.8692   -3.2011 C   0  0  0  0  0  0  0  0  0  0  0  0
   28.2167   19.5464   -4.4318 C   0  0  0  0  0  0  0  0  0  0  0  0
   36.5771   19.8727   -8.1776 C   0  0  0  0  0  0  0  0  0  0  0  0
   30.3818   19.2311   -5.6904 C   0  0  0  0  0  0  0  0  0  0  0  0
   29.6832   17.7386   -3.7142 C   0  0  0  0  0  0  0  0  0  0  0  0
   25.3715   19.5357   -2.1695 C   0  0  0  0  0  0  0  0  0  0  0  0
   32.6724   18.9495   -6.3993 C   0  0  0  0  0  0  0  0  0  0  0  0
   26.7437   17.7095   -1.3863 C   0  0  0  0  0  0  0  0  0  0  0  0
   27.7122   18.0493   -2.4896 C   0  0  0  0  0  0  0  0  0  0  0  0
   35.1875   19.5935   -7.6057 C   0  0  0  0  0  0  0  0  0  0  0  0
   27.3736   19.1711   -3.4003 C   0  0  0  0  0  0  0  0  0  0  0  0
   29.3904   18.8547   -4.6224 C   0  0  0  0  0  0  0  0  0  0  0  0
   35.9529   20.9104   -9.6969 H   0  0  0  0  0  0  0  0  0  0  0  0
   27.8185   16.1540   -0.6751 H   0  0  0  0  0  0  0  0  0  0  0  0
   31.6481   17.7916   -5.0974 H   0  0  0  0  0  0  0  0  0  0  0  0
   29.1316   16.6502   -2.0850 H   0  0  0  0  0  0  0  0  0  0  0  0
   26.6011   15.6260    1.1537 H   0  0  0  0  0  0  0  0  0  0  0  0
   26.1665   17.1955    1.2740 H   0  0  0  0  0  0  0  0  0  0  0  0
   25.2687   16.1660    0.3791 H   0  0  0  0  0  0  0  0  0  0  0  0
   33.8283   17.7564   -5.1707 H   0  0  0  0  0  0  0  0  0  0  0  0
   31.9153   20.2832   -7.8299 H   0  0  0  0  0  0  0  0  0  0  0  0
   35.8970   18.2927   -6.1640 H   0  0  0  0  0  0  0  0  0  0  0  0
   34.0288   20.8068   -8.8573 H   0  0  0  0  0  0  0  0  0  0  0  0
   24.9196   18.2884   -0.5695 H   0  0  0  0  0  0  0  0  0  0  0  0
   25.9946   20.6306   -3.8075 H   0  0  0  0  0  0  0  0  0  0  0  0
   27.9758   20.3102   -5.0306 H   0  0  0  0  0  0  0  0  0  0  0  0
  1 20  1  0  0  0  0
  2 17  1  0  0  0  0
  3 17  2  0  0  0  0
  4 18  2  0  0  0  0
  5 19  2  0  0  0  0
  6  9  1  0  0  0  0
  6 22  1  0  0  0  0
  7 18  1  0  0  0  0
  7 21  1  0  0  0  0
  8 19  1  0  0  0  0
  8 23  1  0  0  0  0
 10 12  1  0  0  0  0
 10 21  2  0  0  0  0
 11 13  2  0  0  0  0
 11 21  1  0  0  0  0
 12 24  2  0  0  0  0
 13 24  1  0  0  0  0
 14 20  2  0  0  0  0
 14 22  1  0  0  0  0
 15 20  1  0  0  0  0
 15 25  2  0  0  0  0
 16 25  1  0  0  0  0
 16 26  2  0  0  0  0
 17 24  1  0  0  0  0
 18 26  1  0  0  0  0
 19 26  1  0  0  0  0
 22 23  2  0  0  0  0
 23 25  1  0  0  0  0
  2 27  1  0  0  0  0
  6 28  1  0  0  0  0
  7 29  1  0  0  0  0
  8 30  1  0  0  0  0
  9 31  1  0  0  0  0
  9 32  1  0  0  0  0
  9 33  1  0  0  0  0
 10 34  1  0  0  0  0
 11 35  1  0  0  0  0
 12 36  1  0  0  0  0
 13 37  1  0  0  0  0
 14 38  1  0  0  0  0
 15 39  1  0  0  0  0
 16 40  1  0  0  0  0
M  END
> <pdb_id>
7C7N

> <uniprot_id>
nan

> <usmiles>
Fc1cc(NC)c2NC(=O)C(C(=O)Nc3ccc(cc3)C(=O)O)=Cc2c1

$$$$
FKS_B_404
          07192416273D 1   1.00000     0.00000     0
            
 38 37  0  0  0  0            999 V2000
  -17.4020  -11.8040   -3.1970 F   0  0  0  0  0  0  0  0  0  0  0  0
  -17.5500  -12.3600   -1.1460 F   0  0  0  0  0  0  0  0  0  0  0  0
  -15.6330  -12.2800   -2.0900 F   0  0  0  0  0  0  0  0  0  0  0  0
  -16.0170  -10.1740   -0.3780 O   0  0  0  0  0  0  0  0  0  0  0  0
  -18.0360   -9.7530   -1.3360 O   0  0  0  0  0  0  0  0  0  0  0  0
  -13.2160    0.5540   -1.8590 N   0  0  0  0  0  0  0  0  0  0  0  0
  -13.8900   -3.6710   -4.2120 N   0  0  0  0  0  0  0  0  0  0  0  0
  -14.0000   -0.6720   -1.8730 C   0  0  0  0  0  0  0  0  0  0  0  0
  -14.3830   -2.8020   -3.1500 C   0  0  0  0  0  0  0  0  0  0  0  0
  -14.5500   -4.9500   -4.4500 C   0  0  0  0  0  0  0  0  0  0  0  0
  -13.5220   -1.5500   -3.0220 C   0  0  0  0  0  0  0  0  0  0  0  0
  -14.7780   -5.7890   -3.1870 C   0  0  0  0  0  0  0  0  0  0  0  0
  -15.3820   -7.1290   -3.5870 C   0  0  0  0  0  0  0  0  0  0  0  0
  -15.7280   -7.9170   -2.3300 C   0  0  0  0  0  0  0  0  0  0  0  0
  -16.0070   -9.3780   -2.6830 C   0  0  0  0  0  0  0  0  0  0  0  0
  -16.8150  -11.6920   -2.0310 C   0  0  0  0  0  0  0  0  0  0  0  0
  -16.7100  -10.2320   -1.6040 C   0  0  0  0  0  0  0  0  0  0  0  0
  -15.0804  -10.4991   -0.5088 H   0  0  0  0  0  0  0  0  0  0  0  0
  -18.5743   -9.7732   -2.1785 H   0  0  0  0  0  0  0  0  0  0  0  0
  -13.5230    1.1374   -1.1071 H   0  0  0  0  0  0  0  0  0  0  0  0
  -12.2494    0.3302   -1.7339 H   0  0  0  0  0  0  0  0  0  0  0  0
  -12.9323   -3.8707   -4.0049 H   0  0  0  0  0  0  0  0  0  0  0  0
  -14.9670   -0.4507   -1.9994 H   0  0  0  0  0  0  0  0  0  0  0  0
  -13.8796   -1.1574   -1.0070 H   0  0  0  0  0  0  0  0  0  0  0  0
  -14.3640   -3.3015   -2.2839 H   0  0  0  0  0  0  0  0  0  0  0  0
  -15.3230   -2.5321   -3.3586 H   0  0  0  0  0  0  0  0  0  0  0  0
  -13.9844   -5.4813   -5.0807 H   0  0  0  0  0  0  0  0  0  0  0  0
  -15.4391   -4.7698   -4.8706 H   0  0  0  0  0  0  0  0  0  0  0  0
  -12.5742   -1.8210   -2.8537 H   0  0  0  0  0  0  0  0  0  0  0  0
  -13.5735   -1.0295   -3.8743 H   0  0  0  0  0  0  0  0  0  0  0  0
  -15.4043   -5.3083   -2.5733 H   0  0  0  0  0  0  0  0  0  0  0  0
  -13.9056   -5.9395   -2.7220 H   0  0  0  0  0  0  0  0  0  0  0  0
  -14.7215   -7.6439   -4.1335 H   0  0  0  0  0  0  0  0  0  0  0  0
  -16.2113   -6.9752   -4.1243 H   0  0  0  0  0  0  0  0  0  0  0  0
  -16.5405   -7.5191   -1.9039 H   0  0  0  0  0  0  0  0  0  0  0  0
  -14.9605   -7.8724   -1.6905 H   0  0  0  0  0  0  0  0  0  0  0  0
  -15.1302   -9.8124   -2.8892 H   0  0  0  0  0  0  0  0  0  0  0  0
  -16.5839   -9.3873   -3.4998 H   0  0  0  0  0  0  0  0  0  0  0  0
  1 16  1  0  0  0  0
  2 16  1  0  0  0  0
  3 16  1  0  0  0  0
  4 17  1  0  0  0  0
  5 17  1  0  0  0  0
  6  8  1  0  0  0  0
  7  9  1  0  0  0  0
  7 10  1  0  0  0  0
  8 11  1  0  0  0  0
  9 11  1  0  0  0  0
 10 12  1  0  0  0  0
 12 13  1  0  0  0  0
 13 14  1  0  0  0  0
 14 15  1  0  0  0  0
 15 17  1  0  0  0  0
 16 17  1  0  0  0  0
  4 18  1  0  0  0  0
  5 19  1  0  0  0  0
  6 20  1  0  0  0  0
  6 21  1  0  0  0  0
  7 22  1  0  0  0  0
  8 23  1  0  0  0  0
  8 24  1  0  0  0  0
  9 25  1  0  0  0  0
  9 26  1  0  0  0  0
 10 27  1  0  0  0  0
 10 28  1  0  0  0  0
 11 29  1  0  0  0  0
 11 30  1  0  0  0  0
 12 31  1  0  0  0  0
 12 32  1  0  0  0  0
 13 33  1  0  0  0  0
 13 34  1  0  0  0  0
 14 35  1  0  0  0  0
 14 36  1  0  0  0  0
 15 37  1  0  0  0  0
 15 38  1  0  0  0  0
M  END
> <pdb_id>
4ZUM

> <uniprot_id>
Q48935

> <usmiles>
FC(F)(F)C(O)(O)CCCCCNCCCN

$$$$
FKV_A_1008
          07202411583D 1   1.00000     0.00000     0
            
 40 42  0  0  0  0            999 V2000
   17.2481    1.5898   16.1722 F   0  0  0  0  0  0  0  0  0  0  0  0
   17.9321   -0.3884   15.8297 F   0  0  0  0  0  0  0  0  0  0  0  0
   17.9556    0.4284   17.8268 F   0  0  0  0  0  0  0  0  0  0  0  0
   17.6087    5.7725   24.3329 F   0  0  0  0  0  0  0  0  0  0  0  0
   18.9206    4.2274   23.8947 F   0  0  0  0  0  0  0  0  0  0  0  0
   18.5768    5.8067   22.4739 F   0  0  0  0  0  0  0  0  0  0  0  0
   10.9848    4.2710   17.0841 O   0  0  0  0  0  0  0  0  0  0  0  0
   13.9215    1.6181   14.8499 O   0  0  0  0  0  0  0  0  0  0  0  0
   15.0490    0.8127   19.0226 N   0  0  0  0  0  0  0  0  0  0  0  0
   12.4083    2.9061   15.9761 N   0  0  0  0  0  0  0  0  0  0  0  0
   12.3851    3.0611   18.3463 N   0  0  0  0  0  0  0  0  0  0  0  0
   14.0495    1.6676   19.4466 N   0  0  0  0  0  0  0  0  0  0  0  0
   13.3521    0.5277   21.5679 C   0  0  0  0  0  0  0  0  0  0  0  0
   15.6606    2.1221   22.5714 C   0  0  0  0  0  0  0  0  0  0  0  0
   15.0321    3.9907   21.2211 C   0  0  0  0  0  0  0  0  0  0  0  0
   16.6533    2.8862   23.1689 C   0  0  0  0  0  0  0  0  0  0  0  0
   16.0304    4.7525   21.8095 C   0  0  0  0  0  0  0  0  0  0  0  0
   15.8846   -0.1582   16.8938 C   0  0  0  0  0  0  0  0  0  0  0  0
   11.9313    3.3972   17.1570 C   0  0  0  0  0  0  0  0  0  0  0  0
   13.4663    1.9994   15.9326 C   0  0  0  0  0  0  0  0  0  0  0  0
   13.3987    2.1809   18.3749 C   0  0  0  0  0  0  0  0  0  0  0  0
   15.0025    0.7587   17.6948 C   0  0  0  0  0  0  0  0  0  0  0  0
   13.7443    1.8505   20.9106 C   0  0  1  0  0  0  0  0  0  0  0  0
   14.8338    2.6635   21.5907 C   0  0  0  0  0  0  0  0  0  0  0  0
   16.8564    4.2085   22.7851 C   0  0  0  0  0  0  0  0  0  0  0  0
   13.9817    1.6166   17.2243 C   0  0  0  0  0  0  0  0  0  0  0  0
   17.2535    0.3748   16.6836 C   0  0  0  0  0  0  0  0  0  0  0  0
   17.9824    5.0025   23.3672 C   0  0  0  0  0  0  0  0  0  0  0  0
   11.9876    3.2047   15.1194 H   0  0  0  0  0  0  0  0  0  0  0  0
   11.9951    3.4416   19.1848 H   0  0  0  0  0  0  0  0  0  0  0  0
   13.1562    0.6819   22.5363 H   0  0  0  0  0  0  0  0  0  0  0  0
   12.5384    0.1601   21.1176 H   0  0  0  0  0  0  0  0  0  0  0  0
   14.1051   -0.1244   21.4798 H   0  0  0  0  0  0  0  0  0  0  0  0
   15.5374    1.1694   22.8493 H   0  0  0  0  0  0  0  0  0  0  0  0
   14.4467    4.4005   20.5217 H   0  0  0  0  0  0  0  0  0  0  0  0
   17.2277    2.4831   23.8813 H   0  0  0  0  0  0  0  0  0  0  0  0
   16.1570    5.7038   21.5286 H   0  0  0  0  0  0  0  0  0  0  0  0
   15.4608   -0.3046   15.9999 H   0  0  0  0  0  0  0  0  0  0  0  0
   15.9551   -1.0313   17.3762 H   0  0  0  0  0  0  0  0  0  0  0  0
   12.9234    2.4207   20.9444 H   0  0  0  0  0  0  0  0  0  0  0  0
  1 27  1  0  0  0  0
  2 27  1  0  0  0  0
  3 27  1  0  0  0  0
  4 28  1  0  0  0  0
  5 28  1  0  0  0  0
  6 28  1  0  0  0  0
  7 19  2  0  0  0  0
  8 20  2  0  0  0  0
  9 12  1  0  0  0  0
  9 22  2  0  0  0  0
 10 19  1  0  0  0  0
 10 20  1  0  0  0  0
 11 19  1  0  0  0  0
 11 21  1  0  0  0  0
 12 21  1  0  0  0  0
 12 23  1  0  0  0  0
 13 23  1  0  0  0  0
 14 16  2  0  0  0  0
 14 24  1  0  0  0  0
 15 17  1  0  0  0  0
 15 24  2  0  0  0  0
 16 25  1  0  0  0  0
 17 25  2  0  0  0  0
 18 22  1  0  0  0  0
 18 27  1  0  0  0  0
 20 26  1  0  0  0  0
 21 26  2  0  0  0  0
 22 26  1  0  0  0  0
 23 24  1  0  0  0  0
 25 28  1  0  0  0  0
 10 29  1  0  0  0  0
 11 30  1  0  0  0  0
 13 31  1  0  0  0  0
 13 32  1  0  0  0  0
 13 33  1  0  0  0  0
 14 34  1  0  0  0  0
 15 35  1  0  0  0  0
 16 36  1  0  0  0  0
 17 37  1  0  0  0  0
 18 38  1  0  0  0  0
 18 39  1  0  0  0  0
 23 40  1  0  0  0  0
M  END
> <pdb_id>
6CYB

> <uniprot_id>
O00408

> <usmiles>
FC(F)(F)c1ccc(cc1)[C@@H](N2N=C(C=3C(=O)NC(=O)NC23)CC(F)(F)F)C

$$$$
FM0_A_328
          07202401293D 1   1.00000     0.00000     0
            
 32 31  0  0  0  0            999 V2000
  -61.1679  -38.9148  -20.1068 P   0  0  0  0  0  0  0  0  0  0  0  0
  -60.8146  -36.2973  -20.9215 P   0  0  0  0  0  0  0  0  0  0  0  0
  -56.4931  -32.1263  -22.2532 F   0  0  0  0  0  0  0  0  0  0  0  0
  -60.1717  -40.0414  -20.0234 O   0  0  0  0  0  0  0  0  0  0  0  0
  -61.8718  -38.8148  -18.7776 O   0  0  0  0  0  0  0  0  0  0  0  0
  -62.1712  -39.0529  -21.2390 O   0  0  0  0  0  0  0  0  0  0  0  0
  -62.2043  -35.8858  -20.4513 O   0  0  0  0  0  0  0  0  0  0  0  0
  -60.7447  -36.3467  -22.4366 O   0  0  0  0  0  0  0  0  0  0  0  0
  -61.0969  -30.8005  -20.0021 O   0  0  0  0  0  0  0  0  0  0  0  0
  -60.4748  -30.8499  -17.9040 O   0  0  0  0  0  0  0  0  0  0  0  0
  -59.1547  -31.6246  -21.7885 O   0  0  0  0  0  0  0  0  0  0  0  0
  -60.3332  -37.6230  -20.2489 O   0  0  0  0  0  0  0  0  0  0  0  0
  -59.7886  -35.2645  -20.2917 O   0  0  0  0  0  0  0  0  0  0  0  0
  -56.9564  -31.4726  -21.1710 C   0  0  0  0  0  0  0  0  0  0  0  0
  -59.6995  -33.9505  -20.6818 C   0  0  0  0  0  0  0  0  0  0  0  0
  -58.4013  -33.2489  -20.3329 C   0  0  0  0  0  0  0  0  0  0  0  0
  -58.7180  -30.9827  -19.4880 C   0  0  0  0  0  0  0  0  0  0  0  0
  -60.1756  -30.8745  -19.1212 C   0  0  0  0  0  0  0  0  0  0  0  0
  -58.3194  -31.8204  -20.6930 C   0  0  2  0  0  0  0  0  0  0  0  0
  -59.6913  -40.1269  -20.8963 H   0  0  0  0  0  0  0  0  0  0  0  0
  -62.5399  -38.0714  -18.8093 H   0  0  0  0  0  0  0  0  0  0  0  0
  -62.2242  -35.8608  -19.4518 H   0  0  0  0  0  0  0  0  0  0  0  0
  -60.8621  -30.8198  -20.9740 H   0  0  0  0  0  0  0  0  0  0  0  0
  -60.0965  -31.8430  -21.5328 H   0  0  0  0  0  0  0  0  0  0  0  0
  -56.9545  -30.4962  -21.3870 H   0  0  0  0  0  0  0  0  0  0  0  0
  -56.3210  -31.6490  -20.4193 H   0  0  0  0  0  0  0  0  0  0  0  0
  -60.4468  -33.4490  -20.2458 H   0  0  0  0  0  0  0  0  0  0  0  0
  -59.8100  -33.9165  -21.6750 H   0  0  0  0  0  0  0  0  0  0  0  0
  -57.6597  -33.7261  -20.8044 H   0  0  0  0  0  0  0  0  0  0  0  0
  -58.2699  -33.3230  -19.3443 H   0  0  0  0  0  0  0  0  0  0  0  0
  -58.2444  -31.3664  -18.6952 H   0  0  0  0  0  0  0  0  0  0  0  0
  -58.3886  -30.0535  -19.6555 H   0  0  0  0  0  0  0  0  0  0  0  0
  1  4  1  0  0  0  0
  1  5  1  0  0  0  0
  1  6  2  0  0  0  0
  1 12  1  0  0  0  0
  2  7  1  0  0  0  0
  2  8  2  0  0  0  0
  2 12  1  0  0  0  0
  2 13  1  0  0  0  0
  3 14  1  0  0  0  0
  9 18  1  0  0  0  0
 10 18  2  0  0  0  0
 11 19  1  0  0  0  0
 13 15  1  0  0  0  0
 14 19  1  0  0  0  0
 15 16  1  0  0  0  0
 16 19  1  0  0  0  0
 17 18  1  0  0  0  0
 17 19  1  0  0  0  0
  4 20  1  0  0  0  0
  5 21  1  0  0  0  0
  7 22  1  0  0  0  0
  9 23  1  0  0  0  0
 11 24  1  0  0  0  0
 14 25  1  0  0  0  0
 14 26  1  0  0  0  0
 15 27  1  0  0  0  0
 15 28  1  0  0  0  0
 16 29  1  0  0  0  0
 16 30  1  0  0  0  0
 17 31  1  0  0  0  0
 17 32  1  0  0  0  0
M  END
> <pdb_id>
3QT7

> <uniprot_id>
Q9FD73

> <usmiles>
P(=O)(OP(=O)(O)O)(OCC[C@](O)(CF)CC(=O)O)O

$$$$
FM0_A_401
          07192423253D 1   1.00000     0.00000     0
            
 32 31  0  0  0  0            999 V2000
  -19.7783  -11.6605  -57.2096 P   0  0  0  0  0  0  0  0  0  0  0  0
  -19.4498  -14.2362  -56.5997 P   0  0  0  0  0  0  0  0  0  0  0  0
  -15.1538  -18.4085  -55.4535 F   0  0  0  0  0  0  0  0  0  0  0  0
  -20.4050  -12.0290  -58.5333 O   0  0  0  0  0  0  0  0  0  0  0  0
  -18.9656  -10.4072  -57.3736 O   0  0  0  0  0  0  0  0  0  0  0  0
  -20.8675  -11.4262  -56.1828 O   0  0  0  0  0  0  0  0  0  0  0  0
  -20.7803  -14.3019  -57.3122 O   0  0  0  0  0  0  0  0  0  0  0  0
  -19.6463  -14.5664  -55.1301 O   0  0  0  0  0  0  0  0  0  0  0  0
  -19.8967  -19.5406  -57.4302 O   0  0  0  0  0  0  0  0  0  0  0  0
  -19.3206  -19.9478  -59.5076 O   0  0  0  0  0  0  0  0  0  0  0  0
  -18.0056  -18.9599  -55.6474 O   0  0  0  0  0  0  0  0  0  0  0  0
  -18.8657  -12.8094  -56.7349 O   0  0  0  0  0  0  0  0  0  0  0  0
  -18.4560  -15.2774  -57.2453 O   0  0  0  0  0  0  0  0  0  0  0  0
  -15.8193  -19.2479  -56.2438 C   0  0  0  0  0  0  0  0  0  0  0  0
  -18.3224  -16.5251  -56.6780 C   0  0  0  0  0  0  0  0  0  0  0  0
  -17.1583  -17.3824  -57.1283 C   0  0  0  0  0  0  0  0  0  0  0  0
  -17.5411  -19.6881  -57.9194 C   0  0  0  0  0  0  0  0  0  0  0  0
  -18.9962  -19.7281  -58.3096 C   0  0  0  0  0  0  0  0  0  0  0  0
  -17.1529  -18.8275  -56.7267 C   0  0  2  0  0  0  0  0  0  0  0  0
  -20.9461  -12.8629  -58.4252 H   0  0  0  0  0  0  0  0  0  0  0  0
  -18.5502  -10.1623  -56.4976 H   0  0  0  0  0  0  0  0  0  0  0  0
  -20.6514  -14.0846  -58.2797 H   0  0  0  0  0  0  0  0  0  0  0  0
  -19.6389  -19.3663  -56.4798 H   0  0  0  0  0  0  0  0  0  0  0  0
  -18.9293  -18.6875  -55.9169 H   0  0  0  0  0  0  0  0  0  0  0  0
  -15.9406  -20.1017  -55.7375 H   0  0  0  0  0  0  0  0  0  0  0  0
  -15.2496  -19.4155  -57.0483 H   0  0  0  0  0  0  0  0  0  0  0  0
  -19.1610  -17.0335  -56.8738 H   0  0  0  0  0  0  0  0  0  0  0  0
  -18.2338  -16.3961  -55.6903 H   0  0  0  0  0  0  0  0  0  0  0  0
  -16.3249  -16.9686  -56.7620 H   0  0  0  0  0  0  0  0  0  0  0  0
  -17.1347  -17.3511  -58.1275 H   0  0  0  0  0  0  0  0  0  0  0  0
  -17.0290  -19.3518  -58.7098 H   0  0  0  0  0  0  0  0  0  0  0  0
  -17.2607  -20.6260  -57.7150 H   0  0  0  0  0  0  0  0  0  0  0  0
  1  4  1  0  0  0  0
  1  5  1  0  0  0  0
  1  6  2  0  0  0  0
  1 12  1  0  0  0  0
  2  7  1  0  0  0  0
  2  8  2  0  0  0  0
  2 12  1  0  0  0  0
  2 13  1  0  0  0  0
  3 14  1  0  0  0  0
  9 18  1  0  0  0  0
 10 18  2  0  0  0  0
 11 19  1  0  0  0  0
 13 15  1  0  0  0  0
 14 19  1  0  0  0  0
 15 16  1  0  0  0  0
 16 19  1  0  0  0  0
 17 18  1  0  0  0  0
 17 19  1  0  0  0  0
  4 20  1  0  0  0  0
  5 21  1  0  0  0  0
  7 22  1  0  0  0  0
  9 23  1  0  0  0  0
 11 24  1  0  0  0  0
 14 25  1  0  0  0  0
 14 26  1  0  0  0  0
 15 27  1  0  0  0  0
 15 28  1  0  0  0  0
 16 29  1  0  0  0  0
 16 30  1  0  0  0  0
 17 31  1  0  0  0  0
 17 32  1  0  0  0  0
M  END
> <pdb_id>
4DPU

> <uniprot_id>
Q9FD73

> <usmiles>
P(=O)(OP(=O)(O)O)(OCC[C@](O)(CF)CC(=O)O)O

$$$$
FMB_B_246
          07202403103D 1   1.00000     0.00000     0
            
 31 33  0  0  0  0            999 V2000
   94.0398   66.2621   17.3538 O   0  0  0  0  0  0  0  0  0  0  0  0
   87.9005   68.4557   17.5839 O   0  0  0  0  0  0  0  0  0  0  0  0
   94.6845   63.7976   21.3357 O   0  0  0  0  0  0  0  0  0  0  0  0
   92.5646   64.8533   22.6053 O   0  0  0  0  0  0  0  0  0  0  0  0
   93.6984   66.5922   19.9899 O   0  0  0  0  0  0  0  0  0  0  0  0
   90.3332   68.9167   19.2024 N   0  0  0  0  0  0  0  0  0  0  0  0
   91.4129   68.5099   19.9755 N   0  0  0  0  0  0  0  0  0  0  0  0
   88.1717   66.1893   17.8941 N   0  0  0  0  0  0  0  0  0  0  0  0
   90.0007   65.2969   19.1809 N   0  0  0  0  0  0  0  0  0  0  0  0
   94.0885   65.0462   18.1146 C   0  0  0  0  0  0  0  0  0  0  0  0
   88.8618   65.0728   18.4236 C   0  0  0  0  0  0  0  0  0  0  0  0
   88.5579   67.5532   18.0719 C   0  0  0  0  0  0  0  0  0  0  0  0
   94.2848   65.3269   19.6120 C   0  0  2  0  0  0  0  0  0  0  0  0
   93.6396   64.2574   20.4621 C   0  0  2  0  0  0  0  0  0  0  0  0
   92.4731   64.9425   21.1897 C   0  0  2  0  0  0  0  0  0  0  0  0
   92.5503   66.4705   20.8536 C   0  0  2  0  0  0  0  0  0  0  0  0
   89.7266   67.7447   18.8493 C   0  0  0  0  0  0  0  0  0  0  0  0
   91.4779   67.1039   20.0851 C   0  0  0  0  0  0  0  0  0  0  0  0
   90.3851   66.6123   19.3643 C   0  0  0  0  0  0  0  0  0  0  0  0
   93.9116   66.0449   16.3861 H   0  0  0  0  0  0  0  0  0  0  0  0
   94.3270   63.0807   21.9343 H   0  0  0  0  0  0  0  0  0  0  0  0
   91.7807   65.3155   23.0198 H   0  0  0  0  0  0  0  0  0  0  0  0
   90.0632   69.8488   18.9608 H   0  0  0  0  0  0  0  0  0  0  0  0
   90.5214   64.5407   19.5773 H   0  0  0  0  0  0  0  0  0  0  0  0
   94.8500   64.4876   17.7861 H   0  0  0  0  0  0  0  0  0  0  0  0
   93.2306   64.5485   17.9870 H   0  0  0  0  0  0  0  0  0  0  0  0
   88.5349   64.1429   18.2550 H   0  0  0  0  0  0  0  0  0  0  0  0
   95.2645   65.3517   19.8112 H   0  0  0  0  0  0  0  0  0  0  0  0
   93.3053   63.5085   19.8901 H   0  0  0  0  0  0  0  0  0  0  0  0
   91.6020   64.5645   20.8763 H   0  0  0  0  0  0  0  0  0  0  0  0
   92.7091   66.9889   21.6939 H   0  0  0  0  0  0  0  0  0  0  0  0
  1 10  1  0  0  0  0
  2 12  2  0  0  0  0
  3 14  1  0  0  0  0
  4 15  1  0  0  0  0
  5 13  1  0  0  0  0
  5 16  1  0  0  0  0
  6  7  1  0  0  0  0
  6 17  1  0  0  0  0
  7 18  2  0  0  0  0
  8 11  2  0  0  0  0
  8 12  1  0  0  0  0
  9 11  1  0  0  0  0
  9 19  1  0  0  0  0
 10 13  1  0  0  0  0
 12 17  1  0  0  0  0
 13 14  1  0  0  0  0
 14 15  1  0  0  0  0
 15 16  1  0  0  0  0
 16 18  1  0  0  0  0
 17 19  2  0  0  0  0
 18 19  1  0  0  0  0
  1 20  1  0  0  0  0
  3 21  1  0  0  0  0
  4 22  1  0  0  0  0
  6 23  1  0  0  0  0
  9 24  1  0  0  0  0
 10 25  1  0  0  0  0
 10 26  1  0  0  0  0
 11 27  1  0  0  0  0
 13 28  1  0  0  0  0
 14 29  1  0  0  0  0
 15 30  1  0  0  0  0
 16 31  1  0  0  0  0
M  END
> <pdb_id>
1PR1

> <uniprot_id>
P09743

> <usmiles>
O=C1N=CNC2=C1NN=C2[C@@H]3O[C@@H]([C@@H](O)[C@H]3O)CO

$$$$
FMC_B_234
          07202415043D 1   1.00000     0.00000     0
            
 32 34  0  0  0  0            999 V2000
  -24.0204   11.7119    4.2352 O   0  0  0  0  0  0  0  0  0  0  0  0
  -25.6355    7.6204    3.8145 O   0  0  0  0  0  0  0  0  0  0  0  0
  -23.7367    6.4733    2.6037 O   0  0  0  0  0  0  0  0  0  0  0  0
  -25.2050    9.4122    1.4168 O   0  0  0  0  0  0  0  0  0  0  0  0
  -19.6244   11.7279   -1.8730 N   0  0  0  0  0  0  0  0  0  0  0  0
  -22.4393   10.4396   -1.6225 N   0  0  0  0  0  0  0  0  0  0  0  0
  -23.5116    9.7418   -1.0690 N   0  0  0  0  0  0  0  0  0  0  0  0
  -19.2366   10.7432    0.2800 N   0  0  0  0  0  0  0  0  0  0  0  0
  -20.8984    9.4477    1.5093 N   0  0  0  0  0  0  0  0  0  0  0  0
  -24.2032   11.1609    2.9426 C   0  0  0  0  0  0  0  0  0  0  0  0
  -19.6582   10.0107    1.3618 C   0  0  0  0  0  0  0  0  0  0  0  0
  -24.6038    8.5575    3.4818 C   0  0  1  0  0  0  0  0  0  0  0  0
  -23.7103    7.8656    2.4622 C   0  0  2  0  0  0  0  0  0  0  0  0
  -25.1510    9.8676    2.8379 C   0  0  2  0  0  0  0  0  0  0  0  0
  -20.0533   10.9881   -0.8138 C   0  0  0  0  0  0  0  0  0  0  0  0
  -24.1331    8.4721    1.0798 C   0  0  2  0  0  0  0  0  0  0  0  0
  -21.3799   10.4194   -0.7567 C   0  0  0  0  0  0  0  0  0  0  0  0
  -23.1421    9.2759    0.1511 C   0  0  0  0  0  0  0  0  0  0  0  0
  -21.7630    9.6779    0.3937 C   0  0  0  0  0  0  0  0  0  0  0  0
  -23.4162   12.5066    4.1764 H   0  0  0  0  0  0  0  0  0  0  0  0
  -26.2535    8.0294    4.4859 H   0  0  0  0  0  0  0  0  0  0  0  0
  -23.1392    6.0572    1.9183 H   0  0  0  0  0  0  0  0  0  0  0  0
  -20.2336   11.8895   -2.6494 H   0  0  0  0  0  0  0  0  0  0  0  0
  -18.7002   12.1096   -1.8747 H   0  0  0  0  0  0  0  0  0  0  0  0
  -22.4436   10.8871   -2.5168 H   0  0  0  0  0  0  0  0  0  0  0  0
  -23.3023   10.9058    2.5916 H   0  0  0  0  0  0  0  0  0  0  0  0
  -24.5975   11.8735    2.3623 H   0  0  0  0  0  0  0  0  0  0  0  0
  -19.0039    9.8767    2.1060 H   0  0  0  0  0  0  0  0  0  0  0  0
  -24.0732    8.7797    4.2998 H   0  0  0  0  0  0  0  0  0  0  0  0
  -22.7725    8.1631    2.6410 H   0  0  0  0  0  0  0  0  0  0  0  0
  -26.0685   10.0729    3.1787 H   0  0  0  0  0  0  0  0  0  0  0  0
  -24.5335    7.7363    0.5337 H   0  0  0  0  0  0  0  0  0  0  0  0
  1 10  1  0  0  0  0
  2 12  1  0  0  0  0
  3 13  1  0  0  0  0
  4 14  1  0  0  0  0
  4 16  1  0  0  0  0
  5 15  1  0  0  0  0
  6  7  1  0  0  0  0
  6 17  1  0  0  0  0
  7 18  2  0  0  0  0
  8 11  1  0  0  0  0
  8 15  2  0  0  0  0
  9 11  2  0  0  0  0
  9 19  1  0  0  0  0
 10 14  1  0  0  0  0
 12 13  1  0  0  0  0
 12 14  1  0  0  0  0
 13 16  1  0  0  0  0
 15 17  1  0  0  0  0
 16 18  1  0  0  0  0
 17 19  2  0  0  0  0
 18 19  1  0  0  0  0
  1 20  1  0  0  0  0
  2 21  1  0  0  0  0
  3 22  1  0  0  0  0
  5 23  1  0  0  0  0
  5 24  1  0  0  0  0
  6 25  1  0  0  0  0
 10 26  1  0  0  0  0
 10 27  1  0  0  0  0
 11 28  1  0  0  0  0
 12 29  1  0  0  0  0
 13 30  1  0  0  0  0
 14 31  1  0  0  0  0
 16 32  1  0  0  0  0
M  END
> <pdb_id>
1NC3

> <uniprot_id>
P24247

> <usmiles>
O1[C@@H]([C@@H](O)[C@@H](O)[C@@H]1C2=NNc3c(ncnc32)N)CO

$$$$
FMC_D_301
          07212403093D 1   1.00000     0.00000     0
            
 32 34  0  0  0  0            999 V2000
    8.6300    7.7360   -9.0070 O   0  0  0  0  0  0  0  0  0  0  0  0
    6.3990    9.2260  -12.7700 O   0  0  0  0  0  0  0  0  0  0  0  0
    8.4950   10.5300  -13.7910 O   0  0  0  0  0  0  0  0  0  0  0  0
    9.4890    9.3650  -11.2480 O   0  0  0  0  0  0  0  0  0  0  0  0
   14.1870    4.7640  -11.4680 N   0  0  0  0  0  0  0  0  0  0  0  0
   11.3370    5.8580  -12.8890 N   0  0  0  0  0  0  0  0  0  0  0  0
   10.3720    6.7960  -13.1650 N   0  0  0  0  0  0  0  0  0  0  0  0
   14.1970    6.7690  -10.7570 N   0  0  0  0  0  0  0  0  0  0  0  0
   12.6720    8.5410  -11.0990 N   0  0  0  0  0  0  0  0  0  0  0  0
    8.2060    7.5020  -10.3410 C   0  0  0  0  0  0  0  0  0  0  0  0
   13.8160    8.0630  -10.5380 C   0  0  0  0  0  0  0  0  0  0  0  0
    7.6640    8.6150  -12.5790 C   0  0  1  0  0  0  0  0  0  0  0  0
    8.7820    9.1790  -13.4730 C   0  0  2  0  0  0  0  0  0  0  0  0
    8.1590    8.7850  -11.1420 C   0  0  2  0  0  0  0  0  0  0  0  0
   13.4330    5.9720  -11.5130 C   0  0  0  0  0  0  0  0  0  0  0  0
    9.9890    9.1580  -12.5440 C   0  0  2  0  0  0  0  0  0  0  0  0
   12.2690    6.4570  -12.0800 C   0  0  0  0  0  0  0  0  0  0  0  0
   10.7050    7.9600  -12.5530 C   0  0  0  0  0  0  0  0  0  0  0  0
   11.9000    7.7340  -11.8700 C   0  0  0  0  0  0  0  0  0  0  0  0
    8.6499    6.8703   -8.5069 H   0  0  0  0  0  0  0  0  0  0  0  0
    5.7302    8.8066  -12.1562 H   0  0  0  0  0  0  0  0  0  0  0  0
    9.2213   10.8972  -14.3721 H   0  0  0  0  0  0  0  0  0  0  0  0
   13.8622    3.9534  -11.9552 H   0  0  0  0  0  0  0  0  0  0  0  0
   15.0411    4.7267  -10.9492 H   0  0  0  0  0  0  0  0  0  0  0  0
   11.3565    4.9135  -13.2170 H   0  0  0  0  0  0  0  0  0  0  0  0
    7.2925    7.0955  -10.3249 H   0  0  0  0  0  0  0  0  0  0  0  0
    8.8448    6.8691  -10.7786 H   0  0  0  0  0  0  0  0  0  0  0  0
   14.3784    8.6592   -9.9650 H   0  0  0  0  0  0  0  0  0  0  0  0
    7.5732    7.6371  -12.7673 H   0  0  0  0  0  0  0  0  0  0  0  0
    8.9268    8.6223  -14.2910 H   0  0  0  0  0  0  0  0  0  0  0  0
    7.5620    9.4351  -10.6718 H   0  0  0  0  0  0  0  0  0  0  0  0
   10.6026    9.9102  -12.7843 H   0  0  0  0  0  0  0  0  0  0  0  0
  1 10  1  0  0  0  0
  2 12  1  0  0  0  0
  3 13  1  0  0  0  0
  4 14  1  0  0  0  0
  4 16  1  0  0  0  0
  5 15  1  0  0  0  0
  6  7  1  0  0  0  0
  6 17  1  0  0  0  0
  7 18  2  0  0  0  0
  8 11  1  0  0  0  0
  8 15  2  0  0  0  0
  9 11  2  0  0  0  0
  9 19  1  0  0  0  0
 10 14  1  0  0  0  0
 12 13  1  0  0  0  0
 12 14  1  0  0  0  0
 13 16  1  0  0  0  0
 15 17  1  0  0  0  0
 16 18  1  0  0  0  0
 17 19  2  0  0  0  0
 18 19  1  0  0  0  0
  1 20  1  0  0  0  0
  2 21  1  0  0  0  0
  3 22  1  0  0  0  0
  5 23  1  0  0  0  0
  5 24  1  0  0  0  0
  6 25  1  0  0  0  0
 10 26  1  0  0  0  0
 10 27  1  0  0  0  0
 11 28  1  0  0  0  0
 12 29  1  0  0  0  0
 13 30  1  0  0  0  0
 14 31  1  0  0  0  0
 16 32  1  0  0  0  0
M  END
> <pdb_id>
6F4X

> <uniprot_id>
P56463

> <usmiles>
O1[C@@H]([C@@H](O)[C@@H](O)[C@@H]1C2=NNc3c(ncnc32)N)CO

$$$$
FO7_A_401
          07202411443D 1   1.00000     0.00000     0
            
 33 34  0  0  0  0            999 V2000
   25.3860    0.4771  -13.1933 Br  0  0  0  0  0  0  0  0  0  0  0  0
   18.9717    1.5026   -9.3328 Cl  0  0  0  0  0  0  0  0  0  0  0  0
   27.5767   -1.0435   -8.3700 S   0  0  0  0  0  0  0  0  0  0  0  0
   27.2283    0.4212   -6.5049 F   0  0  0  0  0  0  0  0  0  0  0  0
   28.0806    1.4358   -8.3229 F   0  0  0  0  0  0  0  0  0  0  0  0
   19.2316   -3.2681  -11.0390 F   0  0  0  0  0  0  0  0  0  0  0  0
   28.6147   -1.6686   -9.1249 O   0  0  0  0  0  0  0  0  0  0  0  0
   27.1941   -1.9015   -7.2697 O   0  0  0  0  0  0  0  0  0  0  0  0
   28.1311    1.3158  -10.8281 O   0  0  0  0  0  0  0  0  0  0  0  0
   23.0141   -0.2940  -11.5999 O   0  0  0  0  0  0  0  0  0  0  0  0
   27.7987    0.0341  -11.3087 C   0  0  0  0  0  0  0  0  0  0  0  0
   25.0672   -0.9409   -8.7439 C   0  0  0  0  0  0  0  0  0  0  0  0
   23.9333   -0.7479   -9.4863 C   0  0  0  0  0  0  0  0  0  0  0  0
   19.1429   -1.0412  -10.2823 C   0  0  0  0  0  0  0  0  0  0  0  0
   21.0745    0.4420  -10.5117 C   0  0  0  0  0  0  0  0  0  0  0  0
   21.1540   -1.8243  -11.3198 C   0  0  0  0  0  0  0  0  0  0  0  0
   28.0974    0.3294   -7.5592 C   0  0  0  0  0  0  0  0  0  0  0  0
   25.3155   -0.1024  -11.3697 C   0  0  0  0  0  0  0  0  0  0  0  0
   19.7883    0.1627  -10.1218 C   0  0  0  0  0  0  0  0  0  0  0  0
   26.2915   -0.7051   -9.3354 C   0  0  0  0  0  0  0  0  0  0  0  0
   19.8660   -2.0641  -10.8795 C   0  0  0  0  0  0  0  0  0  0  0  0
   21.7518   -0.5740  -11.1590 C   0  0  0  0  0  0  0  0  0  0  0  0
   24.1011   -0.3543  -10.7704 C   0  0  0  0  0  0  0  0  0  0  0  0
   26.4430   -0.2431  -10.6498 C   0  0  0  0  0  0  0  0  0  0  0  0
   29.0143    1.5945  -11.2053 H   0  0  0  0  0  0  0  0  0  0  0  0
   28.4794   -0.6424  -11.0277 H   0  0  0  0  0  0  0  0  0  0  0  0
   27.7201    0.0338  -12.3056 H   0  0  0  0  0  0  0  0  0  0  0  0
   25.0096   -1.2461   -7.7934 H   0  0  0  0  0  0  0  0  0  0  0  0
   23.0230   -0.8911   -9.0978 H   0  0  0  0  0  0  0  0  0  0  0  0
   18.1979   -1.1731   -9.9830 H   0  0  0  0  0  0  0  0  0  0  0  0
   21.4978    1.3311  -10.3372 H   0  0  0  0  0  0  0  0  0  0  0  0
   21.6668   -2.5604  -11.7617 H   0  0  0  0  0  0  0  0  0  0  0  0
   29.0236    0.1792   -7.2134 H   0  0  0  0  0  0  0  0  0  0  0  0
  1 18  1  0  0  0  0
  2 19  1  0  0  0  0
  3  7  2  0  0  0  0
  3  8  2  0  0  0  0
  3 17  1  0  0  0  0
  3 20  1  0  0  0  0
  4 17  1  0  0  0  0
  5 17  1  0  0  0  0
  6 21  1  0  0  0  0
  9 11  1  0  0  0  0
 10 22  1  0  0  0  0
 10 23  1  0  0  0  0
 11 24  1  0  0  0  0
 12 13  2  0  0  0  0
 12 20  1  0  0  0  0
 13 23  1  0  0  0  0
 14 19  2  0  0  0  0
 14 21  1  0  0  0  0
 15 19  1  0  0  0  0
 15 22  2  0  0  0  0
 16 21  2  0  0  0  0
 16 22  1  0  0  0  0
 18 23  2  0  0  0  0
 18 24  1  0  0  0  0
 20 24  2  0  0  0  0
  9 25  1  0  0  0  0
 11 26  1  0  0  0  0
 11 27  1  0  0  0  0
 12 28  1  0  0  0  0
 13 29  1  0  0  0  0
 14 30  1  0  0  0  0
 15 31  1  0  0  0  0
 16 32  1  0  0  0  0
 17 33  1  0  0  0  0
M  END
> <pdb_id>
6CZW

> <uniprot_id>
Q99814

> <usmiles>
Brc1c(Oc2cc(Cl)cc(F)c2)ccc(S(=O)(=O)C(F)F)c1CO

$$$$
FOM_A_1390
          07192418183D 1   1.00000     0.00000     0
            
 21 20  0  0  0  0            999 V2000
   14.2147   -5.8336    1.4956 P   0  0  0  0  0  0  0  0  0  0  0  0
   13.4886   -7.0665    1.0462 O   0  0  0  0  0  0  0  0  0  0  0  0
   14.6813   -6.0204    2.9227 O   0  0  0  0  0  0  0  0  0  0  0  0
   15.4179   -5.5939    0.6123 O   0  0  0  0  0  0  0  0  0  0  0  0
   14.9307   -0.7036    0.7488 O   0  0  0  0  0  0  0  0  0  0  0  0
   14.4824    0.7463    2.9564 O   0  0  0  0  0  0  0  0  0  0  0  0
   13.8532   -0.9081    1.6014 N   0  0  0  0  0  0  0  0  0  0  0  0
   13.0653   -4.4665    1.3269 C   0  0  0  0  0  0  0  0  0  0  0  0
   13.6860   -0.1440    2.7069 C   0  0  0  0  0  0  0  0  0  0  0  0
   12.9333   -1.9879    1.3211 C   0  0  0  0  0  0  0  0  0  0  0  0
   13.6617   -3.2035    1.8996 C   0  0  0  0  0  0  0  0  0  0  0  0
   13.1790   -6.9459    0.1030 H   0  0  0  0  0  0  0  0  0  0  0  0
   15.1659   -5.1996    3.2251 H   0  0  0  0  0  0  0  0  0  0  0  0
   14.8870   -1.3577   -0.0063 H   0  0  0  0  0  0  0  0  0  0  0  0
   12.2209   -4.6837    1.8168 H   0  0  0  0  0  0  0  0  0  0  0  0
   12.8616   -4.3249    0.3582 H   0  0  0  0  0  0  0  0  0  0  0  0
   12.9114   -0.3090    3.3175 H   0  0  0  0  0  0  0  0  0  0  0  0
   12.7850   -2.0900    0.3375 H   0  0  0  0  0  0  0  0  0  0  0  0
   12.0554   -1.8421    1.7772 H   0  0  0  0  0  0  0  0  0  0  0  0
   14.6318   -3.1552    1.6617 H   0  0  0  0  0  0  0  0  0  0  0  0
   13.5625   -3.2093    2.8947 H   0  0  0  0  0  0  0  0  0  0  0  0
  1  2  1  0  0  0  0
  1  3  1  0  0  0  0
  1  4  2  0  0  0  0
  1  8  1  0  0  0  0
  5  7  1  0  0  0  0
  6  9  2  0  0  0  0
  7  9  1  0  0  0  0
  7 10  1  0  0  0  0
  8 11  1  0  0  0  0
 10 11  1  0  0  0  0
  2 12  1  0  0  0  0
  3 13  1  0  0  0  0
  5 14  1  0  0  0  0
  8 15  1  0  0  0  0
  8 16  1  0  0  0  0
  9 17  1  0  0  0  0
 10 18  1  0  0  0  0
 10 19  1  0  0  0  0
 11 20  1  0  0  0  0
 11 21  1  0  0  0  0
M  END
> <pdb_id>
4AIC

> <uniprot_id>
P64012

> <usmiles>
P(=O)(O)(O)CCCN(O)C=O

$$$$
FOY_A_201
          07212401333D 1   1.00000     0.00000     0
            
 37 39  0  0  0  0            999 V2000
  -13.0714  -18.3782  -18.2604 O   0  0  0  0  0  0  0  0  0  0  0  0
  -16.0956  -23.4818  -23.1216 O   0  0  0  0  0  0  0  0  0  0  0  0
  -17.1330  -22.5997  -23.2183 N   0  0  0  0  0  0  0  0  0  0  0  0
  -13.7714  -20.5042  -18.8501 N   0  0  0  0  0  0  0  0  0  0  0  0
  -13.9014  -23.7201  -21.9759 C   0  0  0  0  0  0  0  0  0  0  0  0
  -17.7168  -20.3253  -22.3602 C   0  0  0  0  0  0  0  0  0  0  0  0
  -13.2480  -21.1312  -17.6100 C   0  0  0  0  0  0  0  0  0  0  0  0
  -14.3952  -21.2896  -19.7424 C   0  0  0  0  0  0  0  0  0  0  0  0
  -16.5786  -21.9898  -15.0058 C   0  0  0  0  0  0  0  0  0  0  0  0
  -16.4421  -20.7204  -15.5519 C   0  0  0  0  0  0  0  0  0  0  0  0
  -15.6481  -22.9674  -15.3400 C   0  0  0  0  0  0  0  0  0  0  0  0
  -14.1132  -18.5775  -20.3876 C   0  0  0  0  0  0  0  0  0  0  0  0
  -15.3503  -20.4697  -16.3666 C   0  0  0  0  0  0  0  0  0  0  0  0
  -14.5759  -22.7247  -16.1623 C   0  0  0  0  0  0  0  0  0  0  0  0
  -14.7479  -19.4225  -21.2776 C   0  0  0  0  0  0  0  0  0  0  0  0
  -13.6392  -19.1545  -19.1746 C   0  0  0  0  0  0  0  0  0  0  0  0
  -15.1457  -22.9493  -22.2776 C   0  0  0  0  0  0  0  0  0  0  0  0
  -16.8646  -21.5210  -22.4874 C   0  0  0  0  0  0  0  0  0  0  0  0
  -14.4024  -21.4413  -16.6612 C   0  0  0  0  0  0  0  0  0  0  0  0
  -14.8753  -20.7878  -20.9348 C   0  0  0  0  0  0  0  0  0  0  0  0
  -15.5625  -21.7243  -21.8630 C   0  0  0  0  0  0  0  0  0  0  0  0
  -13.3253  -23.1922  -21.3518 H   0  0  0  0  0  0  0  0  0  0  0  0
  -14.1441  -24.5912  -21.5490 H   0  0  0  0  0  0  0  0  0  0  0  0
  -13.4020  -23.8927  -22.8249 H   0  0  0  0  0  0  0  0  0  0  0  0
  -17.2773  -19.6661  -21.7500 H   0  0  0  0  0  0  0  0  0  0  0  0
  -17.8462  -19.9107  -23.2610 H   0  0  0  0  0  0  0  0  0  0  0  0
  -18.6051  -20.5876  -21.9833 H   0  0  0  0  0  0  0  0  0  0  0  0
  -12.6109  -20.5029  -17.1636 H   0  0  0  0  0  0  0  0  0  0  0  0
  -12.7720  -21.9794  -17.8421 H   0  0  0  0  0  0  0  0  0  0  0  0
  -14.5148  -22.2612  -19.5382 H   0  0  0  0  0  0  0  0  0  0  0  0
  -17.3331  -22.1973  -14.3830 H   0  0  0  0  0  0  0  0  0  0  0  0
  -17.1149  -20.0053  -15.3618 H   0  0  0  0  0  0  0  0  0  0  0  0
  -15.7649  -23.8871  -14.9652 H   0  0  0  0  0  0  0  0  0  0  0  0
  -13.9921  -17.6049  -20.5860 H   0  0  0  0  0  0  0  0  0  0  0  0
  -15.2404  -19.5557  -16.7570 H   0  0  0  0  0  0  0  0  0  0  0  0
  -13.9348  -23.4556  -16.3963 H   0  0  0  0  0  0  0  0  0  0  0  0
  -15.1085  -19.0764  -22.1437 H   0  0  0  0  0  0  0  0  0  0  0  0
  1 16  2  0  0  0  0
  2  3  1  0  0  0  0
  2 17  1  0  0  0  0
  3 18  2  0  0  0  0
  4  7  1  0  0  0  0
  4  8  1  0  0  0  0
  4 16  1  0  0  0  0
  5 17  1  0  0  0  0
  6 18  1  0  0  0  0
  7 19  1  0  0  0  0
  8 20  2  0  0  0  0
  9 10  2  0  0  0  0
  9 11  1  0  0  0  0
 10 13  1  0  0  0  0
 11 14  2  0  0  0  0
 12 15  2  0  0  0  0
 12 16  1  0  0  0  0
 13 19  2  0  0  0  0
 14 19  1  0  0  0  0
 15 20  1  0  0  0  0
 17 21  2  0  0  0  0
 18 21  1  0  0  0  0
 20 21  1  0  0  0  0
  5 22  1  0  0  0  0
  5 23  1  0  0  0  0
  5 24  1  0  0  0  0
  6 25  1  0  0  0  0
  6 26  1  0  0  0  0
  6 27  1  0  0  0  0
  7 28  1  0  0  0  0
  7 29  1  0  0  0  0
  8 30  1  0  0  0  0
  9 31  1  0  0  0  0
 10 32  1  0  0  0  0
 11 33  1  0  0  0  0
 12 34  1  0  0  0  0
 13 35  1  0  0  0  0
 14 36  1  0  0  0  0
 15 37  1  0  0  0  0
M  END
> <pdb_id>
6CZV

> <uniprot_id>
O60885

> <usmiles>
O=C1N(C=C(C2=C(ON=C2C)C)C=C1)Cc3ccccc3

$$$$
FQX_P_264
          07192423413D 1   1.00000     0.00000     0
            
 20 22  0  0  0  0            999 V2000
   42.6471   39.7258   11.4355 O   0  5  0  0  0  0  0  0  0  0  0  0
   48.5788   36.3349    6.4817 O   0  0  0  0  0  0  0  0  0  0  0  0
   47.2231   38.6162    5.5260 O   0  0  0  0  0  0  0  0  0  0  0  0
   43.5894   37.7189   12.7390 O   0  0  0  0  0  0  0  0  0  0  0  0
   44.6015   36.7932   12.3949 N   0  0  0  0  0  0  0  0  0  0  0  0
   47.3645   36.4366    8.3633 N   0  0  0  0  0  0  0  0  0  0  0  0
   46.0271   38.6873    7.3957 N   0  0  0  0  0  0  0  0  0  0  0  0
   43.5077   38.6043   11.6266 N   0  3  0  0  0  0  0  0  0  0  0  0
   46.0669   36.4954   10.4166 C   0  0  0  0  0  0  0  0  0  0  0  0
   44.6901   38.7954    9.4465 C   0  0  0  0  0  0  0  0  0  0  0  0
   47.7028   36.9409    7.0855 C   0  0  0  0  0  0  0  0  0  0  0  0
   47.0214   38.0781    6.6055 C   0  0  0  0  0  0  0  0  0  0  0  0
   45.0624   37.1150   11.1876 C   0  0  0  0  0  0  0  0  0  0  0  0
   46.3760   37.0375    9.1565 C   0  0  0  0  0  0  0  0  0  0  0  0
   45.6899   38.1829    8.6725 C   0  0  0  0  0  0  0  0  0  0  0  0
   44.3857   38.2441   10.7107 C   0  0  0  0  0  0  0  0  0  0  0  0
   44.9162   36.0303   12.9595 H   0  0  0  0  0  0  0  0  0  0  0  0
   45.5498   39.4935    7.0461 H   0  0  0  0  0  0  0  0  0  0  0  0
   46.5488   35.6885   10.7581 H   0  0  0  0  0  0  0  0  0  0  0  0
   44.2053   39.6028    9.1102 H   0  0  0  0  0  0  0  0  0  0  0  0
  1  8  1  0  0  0  0
  2 11  2  0  0  0  0
  3 12  2  0  0  0  0
  4  5  1  0  0  0  0
  4  8  1  0  0  0  0
  5 13  1  0  0  0  0
  6 11  1  0  0  0  0
  6 14  2  0  0  0  0
  7 12  1  0  0  0  0
  7 15  1  0  0  0  0
  8 16  2  0  0  0  0
  9 13  2  0  0  0  0
  9 14  1  0  0  0  0
 10 15  2  0  0  0  0
 10 16  1  0  0  0  0
 11 12  1  0  0  0  0
 13 16  1  0  0  0  0
 14 15  1  0  0  0  0
  5 17  1  0  0  0  0
  7 18  1  0  0  0  0
  9 19  1  0  0  0  0
 10 20  1  0  0  0  0
M  CHG  2   1  -1   8   1
M  END
> <pdb_id>
3BKI

> <uniprot_id>
P19491

> <usmiles>
[O-][N+]=1ONC=2C1C=C3NC(=O)C(=O)N=C3C2

$$$$
FR4_A_1001
          07202402593D 1   1.00000     0.00000     0
            
 60 63  0  0  0  0            999 V2000
   54.3543   57.4313   22.5908 O   0  0  0  0  0  0  0  0  0  0  0  0
   51.4652   52.3192   19.6884 O   0  0  0  0  0  0  0  0  0  0  0  0
   48.6226   52.0285   15.5820 O   0  0  0  0  0  0  0  0  0  0  0  0
   51.8577   51.3072   21.6503 N   0  0  0  0  0  0  0  0  0  0  0  0
   51.8868   53.9944   22.9130 N   0  0  0  0  0  0  0  0  0  0  0  0
   49.4958   52.9559   17.5056 N   0  0  0  0  0  0  0  0  0  0  0  0
   51.9918   55.9008   21.8576 N   0  0  0  0  0  0  0  0  0  0  0  0
   49.1385   57.4956   19.2121 N   0  0  0  0  0  0  0  0  0  0  0  0
   53.5561   57.7803   21.4899 C   0  0  0  0  0  0  0  0  0  0  0  0
   51.9665   55.3205   23.0684 C   0  0  0  0  0  0  0  0  0  0  0  0
   49.7509   57.3538   20.5350 C   0  0  0  0  0  0  0  0  0  0  0  0
   48.6433   58.6233   18.6307 C   0  0  0  0  0  0  0  0  0  0  0  0
   51.9322   54.8829   20.8042 C   0  0  0  0  0  0  0  0  0  0  0  0
   45.4620   48.2575   18.0216 C   0  0  0  0  0  0  0  0  0  0  0  0
   45.6837   48.2479   16.6443 C   0  0  0  0  0  0  0  0  0  0  0  0
   46.4620   48.6902   18.8802 C   0  0  0  0  0  0  0  0  0  0  0  0
   51.2053   57.8342   20.4914 C   0  0  0  0  0  0  0  0  0  0  0  0
   48.1844   58.3435   17.3392 C   0  0  0  0  0  0  0  0  0  0  0  0
   49.9057   50.6537   17.1027 C   0  0  0  0  0  0  0  0  0  0  0  0
   48.5125   54.7494   16.1907 C   0  0  0  0  0  0  0  0  0  0  0  0
   46.9114   48.6461   16.1356 C   0  0  0  0  0  0  0  0  0  0  0  0
   47.6896   49.1043   18.3714 C   0  0  0  0  0  0  0  0  0  0  0  0
   49.2810   49.4287   16.4276 C   0  0  0  0  0  0  0  0  0  0  0  0
   48.1688   56.0973   16.0856 C   0  0  0  0  0  0  0  0  0  0  0  0
   49.3559   55.1178   18.4320 C   0  0  0  0  0  0  0  0  0  0  0  0
   51.7132   52.3871   20.8776 C   0  0  0  0  0  0  0  0  0  0  0  0
   49.2605   51.9470   16.6315 C   0  0  0  0  0  0  0  0  0  0  0  0
   49.1131   54.2526   17.3619 C   0  0  0  0  0  0  0  0  0  0  0  0
   51.8407   53.7302   21.4818 C   0  0  0  0  0  0  0  0  0  0  0  0
   52.0898   57.3416   21.6521 C   0  0  1  0  0  0  0  0  0  0  0  0
   49.0153   56.4368   18.3341 C   0  0  0  0  0  0  0  0  0  0  0  0
   47.9224   49.0658   16.9973 C   0  0  0  0  0  0  0  0  0  0  0  0
   48.4167   56.9364   17.1398 C   0  0  0  0  0  0  0  0  0  0  0  0
   55.2927   57.7387   22.4329 H   0  0  0  0  0  0  0  0  0  0  0  0
   52.0614   51.4125   22.6237 H   0  0  0  0  0  0  0  0  0  0  0  0
   51.7622   50.3935   21.2555 H   0  0  0  0  0  0  0  0  0  0  0  0
   50.0001   52.7238   18.3374 H   0  0  0  0  0  0  0  0  0  0  0  0
   53.9313   57.3438   20.6721 H   0  0  0  0  0  0  0  0  0  0  0  0
   53.5818   58.7738   21.3790 H   0  0  0  0  0  0  0  0  0  0  0  0
   52.0016   55.8019   23.9442 H   0  0  0  0  0  0  0  0  0  0  0  0
   49.7275   56.3926   20.8098 H   0  0  0  0  0  0  0  0  0  0  0  0
   49.2404   57.9023   21.1971 H   0  0  0  0  0  0  0  0  0  0  0  0
   48.6121   59.5234   19.0652 H   0  0  0  0  0  0  0  0  0  0  0  0
   51.9546   55.0171   19.8135 H   0  0  0  0  0  0  0  0  0  0  0  0
   44.5834   47.9529   18.3895 H   0  0  0  0  0  0  0  0  0  0  0  0
   44.9571   47.9538   16.0233 H   0  0  0  0  0  0  0  0  0  0  0  0
   46.3005   48.7046   19.8669 H   0  0  0  0  0  0  0  0  0  0  0  0
   51.2021   58.8340   20.5068 H   0  0  0  0  0  0  0  0  0  0  0  0
   51.6116   57.5153   19.6352 H   0  0  0  0  0  0  0  0  0  0  0  0
   47.7793   58.9868   16.6895 H   0  0  0  0  0  0  0  0  0  0  0  0
   50.8815   50.6808   16.8856 H   0  0  0  0  0  0  0  0  0  0  0  0
   49.7865   50.5742   18.0924 H   0  0  0  0  0  0  0  0  0  0  0  0
   48.3304   54.1306   15.4266 H   0  0  0  0  0  0  0  0  0  0  0  0
   47.0709   48.6318   15.1486 H   0  0  0  0  0  0  0  0  0  0  0  0
   48.4041   49.4293   18.9910 H   0  0  0  0  0  0  0  0  0  0  0  0
   49.8959   48.6496   16.5494 H   0  0  0  0  0  0  0  0  0  0  0  0
   49.1762   49.6213   15.4520 H   0  0  0  0  0  0  0  0  0  0  0  0
   47.7461   56.4474   15.2497 H   0  0  0  0  0  0  0  0  0  0  0  0
   49.7790   54.7713   19.2692 H   0  0  0  0  0  0  0  0  0  0  0  0
   51.7466   57.7776   22.4841 H   0  0  0  0  0  0  0  0  0  0  0  0
  1  9  1  0  0  0  0
  2 26  2  0  0  0  0
  3 27  2  0  0  0  0
  4 26  1  0  0  0  0
  5 10  2  0  0  0  0
  5 29  1  0  0  0  0
  6 27  1  0  0  0  0
  6 28  1  0  0  0  0
  7 10  1  0  0  0  0
  7 13  1  0  0  0  0
  7 30  1  0  0  0  0
  8 11  1  0  0  0  0
  8 12  1  0  0  0  0
  8 31  1  0  0  0  0
  9 30  1  0  0  0  0
 11 17  1  0  0  0  0
 12 18  2  0  0  0  0
 13 29  2  0  0  0  0
 14 15  2  0  0  0  0
 14 16  1  0  0  0  0
 15 21  1  0  0  0  0
 16 22  2  0  0  0  0
 17 30  1  0  0  0  0
 18 33  1  0  0  0  0
 19 23  1  0  0  0  0
 19 27  1  0  0  0  0
 20 24  1  0  0  0  0
 20 28  2  0  0  0  0
 21 32  2  0  0  0  0
 22 32  1  0  0  0  0
 23 32  1  0  0  0  0
 24 33  2  0  0  0  0
 25 28  1  0  0  0  0
 25 31  2  0  0  0  0
 26 29  1  0  0  0  0
 31 33  1  0  0  0  0
  1 34  1  0  0  0  0
  4 35  1  0  0  0  0
  4 36  1  0  0  0  0
  6 37  1  0  0  0  0
  9 38  1  0  0  0  0
  9 39  1  0  0  0  0
 10 40  1  0  0  0  0
 11 41  1  0  0  0  0
 11 42  1  0  0  0  0
 12 43  1  0  0  0  0
 13 44  1  0  0  0  0
 14 45  1  0  0  0  0
 15 46  1  0  0  0  0
 16 47  1  0  0  0  0
 17 48  1  0  0  0  0
 17 49  1  0  0  0  0
 18 50  1  0  0  0  0
 19 51  1  0  0  0  0
 19 52  1  0  0  0  0
 20 53  1  0  0  0  0
 21 54  1  0  0  0  0
 22 55  1  0  0  0  0
 23 56  1  0  0  0  0
 23 57  1  0  0  0  0
 24 58  1  0  0  0  0
 25 59  1  0  0  0  0
 30 60  1  0  0  0  0
M  END
> <pdb_id>
1UML

> <uniprot_id>
P56658

> <usmiles>
O=C(N)C=1N=CN(C1)[C@@H](CO)CCN2c3c(ccc(NC(=O)CCc4ccccc4)c3)C=C2

$$$$
FR9_A_1001
          07202402593D 1   1.00000     0.00000     0
            
 59 62  0  0  0  0            999 V2000
   54.5430   57.4310   22.6980 O   0  0  0  0  0  0  0  0  0  0  0  0
   48.7460   52.3280   15.7660 O   0  0  0  0  0  0  0  0  0  0  0  0
   51.9080   51.9200   19.6970 O   0  0  0  0  0  0  0  0  0  0  0  0
   51.4150   51.0140   21.5230 N   0  0  0  0  0  0  0  0  0  0  0  0
   49.5190   51.0810   17.4430 N   0  0  0  0  0  0  0  0  0  0  0  0
   51.6380   53.6160   22.7630 N   0  0  0  0  0  0  0  0  0  0  0  0
   49.3130   53.2450   17.7210 N   0  0  0  0  0  0  0  0  0  0  0  0
   52.0530   55.5750   21.7700 N   0  0  0  0  0  0  0  0  0  0  0  0
   49.2310   57.6440   19.2360 N   0  0  0  0  0  0  0  0  0  0  0  0
   53.5120   57.6680   21.6270 C   0  0  0  0  0  0  0  0  0  0  0  0
   51.7930   54.9070   22.8850 C   0  0  0  0  0  0  0  0  0  0  0  0
   49.2960   49.8220   16.7820 C   0  0  0  0  0  0  0  0  0  0  0  0
   49.8710   57.5460   20.5300 C   0  0  0  0  0  0  0  0  0  0  0  0
   48.7350   58.8100   18.7000 C   0  0  0  0  0  0  0  0  0  0  0  0
   51.9840   54.5140   20.7520 C   0  0  0  0  0  0  0  0  0  0  0  0
   45.6590   48.1380   18.4150 C   0  0  0  0  0  0  0  0  0  0  0  0
   45.9940   47.9860   17.0600 C   0  0  0  0  0  0  0  0  0  0  0  0
   46.5700   48.7720   19.2010 C   0  0  0  0  0  0  0  0  0  0  0  0
   51.3820   57.4530   20.3350 C   0  0  0  0  0  0  0  0  0  0  0  0
   48.2680   58.5680   17.4420 C   0  0  0  0  0  0  0  0  0  0  0  0
   48.4460   54.9760   16.2970 C   0  0  0  0  0  0  0  0  0  0  0  0
   47.1680   48.5140   16.5360 C   0  0  0  0  0  0  0  0  0  0  0  0
   47.7260   49.3490   18.7000 C   0  0  0  0  0  0  0  0  0  0  0  0
   48.1540   56.3370   16.1950 C   0  0  0  0  0  0  0  0  0  0  0  0
   49.3700   55.3570   18.4790 C   0  0  0  0  0  0  0  0  0  0  0  0
   49.2560   52.2020   16.8530 C   0  0  0  0  0  0  0  0  0  0  0  0
   51.7380   51.9640   20.7950 C   0  0  0  0  0  0  0  0  0  0  0  0
   49.0830   54.5020   17.4470 C   0  0  0  0  0  0  0  0  0  0  0  0
   51.7660   53.3080   21.3420 C   0  0  0  0  0  0  0  0  0  0  0  0
   52.0850   57.0330   21.6130 C   0  0  1  0  0  0  0  0  0  0  0  0
   49.0830   56.6520   18.3890 C   0  0  0  0  0  0  0  0  0  0  0  0
   48.0320   49.2190   17.3550 C   0  0  0  0  0  0  0  0  0  0  0  0
   48.4750   57.1790   17.2260 C   0  0  0  0  0  0  0  0  0  0  0  0
   55.3722   57.9467   22.4824 H   0  0  0  0  0  0  0  0  0  0  0  0
   51.2855   51.1574   22.5041 H   0  0  0  0  0  0  0  0  0  0  0  0
   51.2840   50.1042   21.1291 H   0  0  0  0  0  0  0  0  0  0  0  0
   49.8834   51.0894   18.3742 H   0  0  0  0  0  0  0  0  0  0  0  0
   49.5559   53.0290   18.6667 H   0  0  0  0  0  0  0  0  0  0  0  0
   53.9424   57.3796   20.7717 H   0  0  0  0  0  0  0  0  0  0  0  0
   53.3657   58.6571   21.6096 H   0  0  0  0  0  0  0  0  0  0  0  0
   51.7196   55.3661   23.7704 H   0  0  0  0  0  0  0  0  0  0  0  0
   50.0697   49.2099   16.9453 H   0  0  0  0  0  0  0  0  0  0  0  0
   49.1882   49.9680   15.7986 H   0  0  0  0  0  0  0  0  0  0  0  0
   49.5438   56.7287   21.0042 H   0  0  0  0  0  0  0  0  0  0  0  0
   49.6529   58.3565   21.0735 H   0  0  0  0  0  0  0  0  0  0  0  0
   48.7194   59.6971   19.1613 H   0  0  0  0  0  0  0  0  0  0  0  0
   52.0832   54.6591   19.7676 H   0  0  0  0  0  0  0  0  0  0  0  0
   44.7941   47.7972   18.7836 H   0  0  0  0  0  0  0  0  0  0  0  0
   45.3726   47.4855   16.4571 H   0  0  0  0  0  0  0  0  0  0  0  0
   46.3979   48.8241   20.1847 H   0  0  0  0  0  0  0  0  0  0  0  0
   51.7286   58.3476   20.0528 H   0  0  0  0  0  0  0  0  0  0  0  0
   51.5764   56.7800   19.6214 H   0  0  0  0  0  0  0  0  0  0  0  0
   47.8657   59.2274   16.8069 H   0  0  0  0  0  0  0  0  0  0  0  0
   48.2027   54.3486   15.5573 H   0  0  0  0  0  0  0  0  0  0  0  0
   47.3878   48.3846   15.5691 H   0  0  0  0  0  0  0  0  0  0  0  0
   48.3370   49.8573   19.3069 H   0  0  0  0  0  0  0  0  0  0  0  0
   47.7123   56.6956   15.3726 H   0  0  0  0  0  0  0  0  0  0  0  0
   49.8002   55.0027   19.3093 H   0  0  0  0  0  0  0  0  0  0  0  0
   51.5752   57.4271   22.3777 H   0  0  0  0  0  0  0  0  0  0  0  0
  1 10  1  0  0  0  0
  2 26  2  0  0  0  0
  3 27  2  0  0  0  0
  4 27  1  0  0  0  0
  5 12  1  0  0  0  0
  5 26  1  0  0  0  0
  6 11  2  0  0  0  0
  6 29  1  0  0  0  0
  7 26  1  0  0  0  0
  7 28  1  0  0  0  0
  8 11  1  0  0  0  0
  8 15  1  0  0  0  0
  8 30  1  0  0  0  0
  9 13  1  0  0  0  0
  9 14  1  0  0  0  0
  9 31  1  0  0  0  0
 10 30  1  0  0  0  0
 12 32  1  0  0  0  0
 13 19  1  0  0  0  0
 14 20  2  0  0  0  0
 15 29  2  0  0  0  0
 16 17  2  0  0  0  0
 16 18  1  0  0  0  0
 17 22  1  0  0  0  0
 18 23  2  0  0  0  0
 19 30  1  0  0  0  0
 20 33  1  0  0  0  0
 21 24  1  0  0  0  0
 21 28  2  0  0  0  0
 22 32  2  0  0  0  0
 23 32  1  0  0  0  0
 24 33  2  0  0  0  0
 25 28  1  0  0  0  0
 25 31  2  0  0  0  0
 27 29  1  0  0  0  0
 31 33  1  0  0  0  0
  1 34  1  0  0  0  0
  4 35  1  0  0  0  0
  4 36  1  0  0  0  0
  5 37  1  0  0  0  0
  7 38  1  0  0  0  0
 10 39  1  0  0  0  0
 10 40  1  0  0  0  0
 11 41  1  0  0  0  0
 12 42  1  0  0  0  0
 12 43  1  0  0  0  0
 13 44  1  0  0  0  0
 13 45  1  0  0  0  0
 14 46  1  0  0  0  0
 15 47  1  0  0  0  0
 16 48  1  0  0  0  0
 17 49  1  0  0  0  0
 18 50  1  0  0  0  0
 19 51  1  0  0  0  0
 19 52  1  0  0  0  0
 20 53  1  0  0  0  0
 21 54  1  0  0  0  0
 22 55  1  0  0  0  0
 23 56  1  0  0  0  0
 24 57  1  0  0  0  0
 25 58  1  0  0  0  0
 30 59  1  0  0  0  0
M  END
> <pdb_id>
1O5R

> <uniprot_id>
P56658

> <usmiles>
O=C(Nc1cc2N(C=Cc2cc1)CC[C@@H](N3C=NC(C(=O)N)=C3)CO)NCc4ccccc4

$$$$
FRZ_A_1001
          07212404193D 1   1.00000     0.00000     0
            
 38 42  0  0  0  0            999 V2000
   10.9576    4.5716   45.0230 N   0  0  0  0  0  0  0  0  0  0  0  0
   12.4168    6.4232   44.3150 N   0  0  0  0  0  0  0  0  0  0  0  0
   12.1967    7.7929   43.9263 N   0  0  0  0  0  0  0  0  0  0  0  0
    9.9996    9.2124   43.7284 N   0  0  0  0  0  0  0  0  0  0  0  0
    8.4195    9.2020   43.9476 N   0  0  0  0  0  0  0  0  0  0  0  0
    4.5519    7.7974   46.3674 N   0  0  0  0  0  0  0  0  0  0  0  0
    4.1054    8.2263   45.0424 N   0  0  0  0  0  0  0  0  0  0  0  0
    2.7595    8.5205   44.7269 C   0  0  0  0  0  0  0  0  0  0  0  0
    2.4230    9.0158   43.4026 C   0  0  0  0  0  0  0  0  0  0  0  0
    8.1655    6.1005   49.7788 C   0  0  0  0  0  0  0  0  0  0  0  0
    3.5302    9.1503   42.4589 C   0  0  0  0  0  0  0  0  0  0  0  0
    6.7958    5.7183   49.4908 C   0  0  0  0  0  0  0  0  0  0  0  0
    8.7601    7.1247   48.9386 C   0  0  0  0  0  0  0  0  0  0  0  0
    4.9085    8.8280   42.8150 C   0  0  0  0  0  0  0  0  0  0  0  0
    6.0630    6.3144   48.3790 C   0  0  0  0  0  0  0  0  0  0  0  0
    8.0041    7.7089   47.8404 C   0  0  0  0  0  0  0  0  0  0  0  0
    8.6690    6.8667   44.5488 C   0  0  0  0  0  0  0  0  0  0  0  0
   11.1361    5.8888   44.5627 C   0  0  0  0  0  0  0  0  0  0  0  0
   10.8145    8.0704   43.9444 C   0  0  0  0  0  0  0  0  0  0  0  0
    7.7709    8.0168   44.3866 C   0  0  0  0  0  0  0  0  0  0  0  0
    5.9581    7.7082   46.2638 C   0  0  0  0  0  0  0  0  0  0  0  0
    5.2044    8.3658   44.1648 C   0  0  0  0  0  0  0  0  0  0  0  0
    6.6464    7.3137   47.4872 C   0  0  0  0  0  0  0  0  0  0  0  0
   10.1110    6.8787   44.3501 C   0  0  0  0  0  0  0  0  0  0  0  0
    6.4074    8.0427   44.9153 C   0  0  0  0  0  0  0  0  0  0  0  0
   10.0362    4.2207   45.1896 H   0  0  0  0  0  0  0  0  0  0  0  0
   11.7522    3.9860   45.1835 H   0  0  0  0  0  0  0  0  0  0  0  0
   12.9135    8.4458   43.6815 H   0  0  0  0  0  0  0  0  0  0  0  0
    2.0425    8.3885   45.4114 H   0  0  0  0  0  0  0  0  0  0  0  0
    1.4844    9.2517   43.1509 H   0  0  0  0  0  0  0  0  0  0  0  0
    8.6787    5.6762   50.5249 H   0  0  0  0  0  0  0  0  0  0  0  0
    3.3363    9.4758   41.5334 H   0  0  0  0  0  0  0  0  0  0  0  0
    6.3460    5.0340   50.0648 H   0  0  0  0  0  0  0  0  0  0  0  0
    9.6955    7.4309   49.1156 H   0  0  0  0  0  0  0  0  0  0  0  0
    5.6409    8.9231   42.1407 H   0  0  0  0  0  0  0  0  0  0  0  0
    5.1188    6.0259   48.2201 H   0  0  0  0  0  0  0  0  0  0  0  0
    8.4423    8.4240   47.2958 H   0  0  0  0  0  0  0  0  0  0  0  0
    8.2533    5.9984   44.8196 H   0  0  0  0  0  0  0  0  0  0  0  0
  1 18  1  0  0  0  0
  2  3  1  0  0  0  0
  2 18  2  0  0  0  0
  3 19  1  0  0  0  0
  4  5  1  0  0  0  0
  4 19  2  0  0  0  0
  5 20  2  0  0  0  0
  6  7  1  0  0  0  0
  6 21  2  0  0  0  0
  7  8  1  0  0  0  0
  7 22  1  0  0  0  0
  8  9  2  0  0  0  0
  9 11  1  0  0  0  0
 10 12  2  0  0  0  0
 10 13  1  0  0  0  0
 11 14  2  0  0  0  0
 12 15  1  0  0  0  0
 13 16  2  0  0  0  0
 14 22  1  0  0  0  0
 15 23  2  0  0  0  0
 16 23  1  0  0  0  0
 17 20  1  0  0  0  0
 17 24  2  0  0  0  0
 18 24  1  0  0  0  0
 19 24  1  0  0  0  0
 20 25  1  0  0  0  0
 21 23  1  0  0  0  0
 21 25  1  0  0  0  0
 22 25  2  0  0  0  0
  1 26  1  0  0  0  0
  1 27  1  0  0  0  0
  3 28  1  0  0  0  0
  8 29  1  0  0  0  0
  9 30  1  0  0  0  0
 10 31  1  0  0  0  0
 11 32  1  0  0  0  0
 12 33  1  0  0  0  0
 13 34  1  0  0  0  0
 14 35  1  0  0  0  0
 15 36  1  0  0  0  0
 16 37  1  0  0  0  0
 17 38  1  0  0  0  0
M  END
> <pdb_id>
1TVO

> <uniprot_id>
P28482

> <usmiles>
n1nc(cc2c1NN=C2N)C=3C(=NN4C3C=CC=C4)c5ccccc5

$$$$
FS9_A_402
          07202400003D 1   1.00000     0.00000     0
            
 45 48  0  0  0  0            999 V2000
   12.6980   -5.2260    9.1570 F   0  0  0  0  0  0  0  0  0  0  0  0
   14.1580   -4.7550    7.6960 F   0  0  0  0  0  0  0  0  0  0  0  0
   12.8440   -6.4070    7.4070 F   0  0  0  0  0  0  0  0  0  0  0  0
   12.2590  -10.0670    9.9280 O   0  0  0  0  0  0  0  0  0  0  0  0
    7.3580  -13.5180   15.3770 N   0  0  0  0  0  0  0  0  0  0  0  0
    6.2020  -13.4120   13.2200 N   0  0  0  0  0  0  0  0  0  0  0  0
    9.7850  -13.4400   15.1660 N   0  0  0  0  0  0  0  0  0  0  0  0
    8.0150  -13.2800   11.8300 N   0  0  0  0  0  0  0  0  0  0  0  0
   14.3970   -9.9860   10.8190 N   0  0  0  0  0  0  0  0  0  0  0  0
   10.9120  -13.2820   13.1090 N   0  0  0  0  0  0  0  0  0  0  0  0
    8.6170  -13.5240   15.8540 C   0  0  0  0  0  0  0  0  0  0  0  0
    6.6730  -13.3240   11.9020 C   0  0  0  0  0  0  0  0  0  0  0  0
   11.1260  -13.6990   11.7610 C   0  0  0  0  0  0  0  0  0  0  0  0
   12.0830  -12.6980   13.7590 C   0  0  0  0  0  0  0  0  0  0  0  0
   16.6980   -7.2220    9.8490 C   0  0  0  0  0  0  0  0  0  0  0  0
   16.2220   -8.3990   10.3810 C   0  0  0  0  0  0  0  0  0  0  0  0
   11.5510  -12.5400   10.8970 C   0  0  0  0  0  0  0  0  0  0  0  0
   12.8540  -11.6630   12.9070 C   0  0  0  0  0  0  0  0  0  0  0  0
   15.8560   -6.3530    9.1760 C   0  0  0  0  0  0  0  0  0  0  0  0
   14.0270   -7.8820    9.5700 C   0  0  0  0  0  0  0  0  0  0  0  0
   13.1230  -10.5720   10.6400 C   0  0  0  0  0  0  0  0  0  0  0  0
    7.3260  -13.4400   14.0250 C   0  0  0  0  0  0  0  0  0  0  0  0
    9.7160  -13.3610   13.8080 C   0  0  0  0  0  0  0  0  0  0  0  0
   14.8720   -8.7580   10.2490 C   0  0  0  0  0  0  0  0  0  0  0  0
    8.4460  -13.3580   13.1740 C   0  0  0  0  0  0  0  0  0  0  0  0
   12.8390  -11.8770   11.3500 C   0  0  0  0  0  0  0  0  0  0  0  0
   14.5290   -6.7040    9.0550 C   0  0  0  0  0  0  0  0  0  0  0  0
   13.5900   -5.7890    8.3350 C   0  0  0  0  0  0  0  0  0  0  0  0
    8.5815  -13.2082   11.0091 H   0  0  0  0  0  0  0  0  0  0  0  0
   15.0367  -10.4812   11.4068 H   0  0  0  0  0  0  0  0  0  0  0  0
    8.7037  -13.6005   16.8473 H   0  0  0  0  0  0  0  0  0  0  0  0
    6.0747  -13.2969   11.1012 H   0  0  0  0  0  0  0  0  0  0  0  0
   10.2764  -14.0824   11.3987 H   0  0  0  0  0  0  0  0  0  0  0  0
   11.8408  -14.3981   11.7447 H   0  0  0  0  0  0  0  0  0  0  0  0
   12.7121  -13.4402   13.9901 H   0  0  0  0  0  0  0  0  0  0  0  0
   11.7792  -12.2453   14.5973 H   0  0  0  0  0  0  0  0  0  0  0  0
   17.6658   -6.9913    9.9500 H   0  0  0  0  0  0  0  0  0  0  0  0
   16.8479   -9.0074   10.8690 H   0  0  0  0  0  0  0  0  0  0  0  0
   10.8228  -11.8547   10.9086 H   0  0  0  0  0  0  0  0  0  0  0  0
   11.6799  -12.8737    9.9632 H   0  0  0  0  0  0  0  0  0  0  0  0
   13.8084  -11.6760   13.2052 H   0  0  0  0  0  0  0  0  0  0  0  0
   12.4589  -10.7633   13.0928 H   0  0  0  0  0  0  0  0  0  0  0  0
   16.2002   -5.4972    8.7897 H   0  0  0  0  0  0  0  0  0  0  0  0
   13.0592   -8.1065    9.4562 H   0  0  0  0  0  0  0  0  0  0  0  0
   13.5874  -12.5027   11.1299 H   0  0  0  0  0  0  0  0  0  0  0  0
  1 28  1  0  0  0  0
  2 28  1  0  0  0  0
  3 28  1  0  0  0  0
  4 21  2  0  0  0  0
  5 11  2  0  0  0  0
  5 22  1  0  0  0  0
  6 12  2  0  0  0  0
  6 22  1  0  0  0  0
  7 11  1  0  0  0  0
  7 23  2  0  0  0  0
  8 12  1  0  0  0  0
  8 25  1  0  0  0  0
  9 21  1  0  0  0  0
  9 24  1  0  0  0  0
 10 13  1  0  0  0  0
 10 14  1  0  0  0  0
 10 23  1  0  0  0  0
 13 17  1  0  0  0  0
 14 18  1  0  0  0  0
 15 16  1  0  0  0  0
 15 19  2  0  0  0  0
 16 24  2  0  0  0  0
 17 26  1  0  0  0  0
 18 26  1  0  0  0  0
 19 27  1  0  0  0  0
 20 24  1  0  0  0  0
 20 27  2  0  0  0  0
 21 26  1  0  0  0  0
 22 25  2  0  0  0  0
 23 25  1  0  0  0  0
 27 28  1  0  0  0  0
  8 29  1  0  0  0  0
  9 30  1  0  0  0  0
 11 31  1  0  0  0  0
 12 32  1  0  0  0  0
 13 33  1  0  0  0  0
 13 34  1  0  0  0  0
 14 35  1  0  0  0  0
 14 36  1  0  0  0  0
 15 37  1  0  0  0  0
 16 38  1  0  0  0  0
 17 39  1  0  0  0  0
 17 40  1  0  0  0  0
 18 41  1  0  0  0  0
 18 42  1  0  0  0  0
 19 43  1  0  0  0  0
 20 44  1  0  0  0  0
 26 45  1  0  0  0  0
M  END
> <pdb_id>
3WF7

> <uniprot_id>
P23443

> <usmiles>
FC(F)(F)c1cc(NC(=O)C2CCN(c3ncnc4N=CNc43)CC2)ccc1

$$$$
FSG_A_600
          07192416223D 1   1.00000     0.00000     0
            
 15 14  0  0  0  0            999 V2000
   74.0862  110.5363  -92.7955 P   0  0  0  0  0  0  0  0  0  0  0  0
   74.5379  112.1000  -94.8305 F   0  0  0  0  0  0  0  0  0  0  0  0
   74.0331  110.7853  -91.3479 O   0  0  0  0  0  0  0  0  0  0  0  0
   72.7509  110.5290  -93.4009 O   0  0  0  0  0  0  0  0  0  0  0  0
   74.8934  109.3899  -93.1759 O   0  0  0  0  0  0  0  0  0  0  0  0
   78.3589  112.5579  -92.4667 O   0  0  0  0  0  0  0  0  0  0  0  0
   76.9552  111.1769  -94.3163 O   0  0  0  0  0  0  0  0  0  0  0  0
   77.0046  112.5931  -92.6002 N   0  0  0  0  0  0  0  0  0  0  0  0
   74.8977  112.0106  -93.5295 C   0  0  2  0  0  0  0  0  0  0  0  0
   76.3879  111.8804  -93.5179 C   0  0  0  0  0  0  0  0  0  0  0  0
   74.9609  110.7823  -90.9749 H   0  0  0  0  0  0  0  0  0  0  0  0
   72.8309  110.3570  -94.3827 H   0  0  0  0  0  0  0  0  0  0  0  0
   78.6361  113.1625  -91.7199 H   0  0  0  0  0  0  0  0  0  0  0  0
   76.4672  113.1729  -91.9878 H   0  0  0  0  0  0  0  0  0  0  0  0
   74.6205  112.8363  -93.0383 H   0  0  0  0  0  0  0  0  0  0  0  0
  1  3  1  0  0  0  0
  1  4  1  0  0  0  0
  1  5  2  0  0  0  0
  1  9  1  0  0  0  0
  2  9  1  0  0  0  0
  6  8  1  0  0  0  0
  7 10  2  0  0  0  0
  8 10  1  0  0  0  0
  9 10  1  0  0  0  0
  3 11  1  0  0  0  0
  4 12  1  0  0  0  0
  6 13  1  0  0  0  0
  8 14  1  0  0  0  0
  9 15  1  0  0  0  0
M  END
> <pdb_id>
2PU1

> <uniprot_id>
Q38BV6

> <usmiles>
P(=O)(O)(O)[C@H](F)C(=O)NO

$$$$
FSN_H_501
          07202416143D 1   1.00000     0.00000     0
            
 53 57  0  0  0  0            999 V2000
    6.5766  -13.6409    8.9587 F   0  0  0  0  0  0  0  0  0  0  0  0
    8.8355  -13.7212   15.7957 O   0  0  0  0  0  0  0  0  0  0  0  0
   12.1560  -13.0788   12.6831 O   0  0  0  0  0  0  0  0  0  0  0  0
   18.2870  -12.2844   11.4905 N   0  0  0  0  0  0  0  0  0  0  0  0
   17.7478  -10.1221   10.9345 N   0  0  0  0  0  0  0  0  0  0  0  0
   10.3321  -13.6212   13.9873 N   0  0  0  0  0  0  0  0  0  0  0  0
   13.0790  -12.7626   16.2711 N   0  0  0  0  0  0  0  0  0  0  0  0
   13.9165  -12.3370   17.4291 C   0  0  0  0  0  0  0  0  0  0  0  0
    9.9944  -14.8232   13.2257 C   0  0  0  0  0  0  0  0  0  0  0  0
   13.0051  -12.5581   18.6797 C   0  0  0  0  0  0  0  0  0  0  0  0
    8.7253  -14.0293    9.7450 C   0  0  0  0  0  0  0  0  0  0  0  0
    6.7853  -14.0313   11.2956 C   0  0  0  0  0  0  0  0  0  0  0  0
   11.6395  -12.0336   18.2126 C   0  0  0  0  0  0  0  0  0  0  0  0
    9.5896  -14.3189   10.8003 C   0  0  0  0  0  0  0  0  0  0  0  0
    7.6787  -14.3249   12.3566 C   0  0  0  0  0  0  0  0  0  0  0  0
   16.0019  -12.5487   13.1562 C   0  0  0  0  0  0  0  0  0  0  0  0
   15.5719  -10.1436   12.8637 C   0  0  0  0  0  0  0  0  0  0  0  0
   14.9320  -12.6269   14.0374 C   0  0  0  0  0  0  0  0  0  0  0  0
   14.4931  -10.2339   13.7488 C   0  0  0  0  0  0  0  0  0  0  0  0
    7.3579  -13.8999   10.0221 C   0  0  0  0  0  0  0  0  0  0  0  0
    9.8075  -13.2221   15.2507 C   0  0  0  0  0  0  0  0  0  0  0  0
   11.4485  -12.8271   13.6423 C   0  0  0  0  0  0  0  0  0  0  0  0
   17.4535  -11.2272   11.6656 C   0  0  0  0  0  0  0  0  0  0  0  0
   11.6644  -12.5352   16.8263 C   0  0  1  0  0  0  0  0  0  0  0  0
   13.0028  -11.6415   15.2372 C   0  0  1  0  0  0  0  0  0  0  0  0
    9.0633  -14.4745   12.0970 C   0  0  0  0  0  0  0  0  0  0  0  0
   16.3198  -11.2901   12.5736 C   0  0  0  0  0  0  0  0  0  0  0  0
   14.1882  -11.4885   14.3323 C   0  0  0  0  0  0  0  0  0  0  0  0
   10.6267  -12.1344   15.7784 C   0  0  1  0  0  0  0  0  0  0  0  0
   11.6144  -11.7418   14.6332 C   0  0  2  0  0  0  0  0  0  0  0  0
   18.1316  -13.1328   11.9964 H   0  0  0  0  0  0  0  0  0  0  0  0
   19.0563  -12.2147   10.8555 H   0  0  0  0  0  0  0  0  0  0  0  0
   17.1770   -9.3047   11.0121 H   0  0  0  0  0  0  0  0  0  0  0  0
   14.1719  -11.3738   17.3447 H   0  0  0  0  0  0  0  0  0  0  0  0
   14.7428  -12.8967   17.4915 H   0  0  0  0  0  0  0  0  0  0  0  0
    9.5489  -15.4836   13.8302 H   0  0  0  0  0  0  0  0  0  0  0  0
   10.8310  -15.2243   12.8526 H   0  0  0  0  0  0  0  0  0  0  0  0
   13.3403  -12.0373   19.4648 H   0  0  0  0  0  0  0  0  0  0  0  0
   12.9542  -13.5275   18.9199 H   0  0  0  0  0  0  0  0  0  0  0  0
    9.0725  -13.9168    8.8140 H   0  0  0  0  0  0  0  0  0  0  0  0
    5.8027  -13.9240   11.4467 H   0  0  0  0  0  0  0  0  0  0  0  0
   11.5880  -11.0356   18.2497 H   0  0  0  0  0  0  0  0  0  0  0  0
   10.8861  -12.4261   18.7403 H   0  0  0  0  0  0  0  0  0  0  0  0
   10.5717  -14.4149   10.6381 H   0  0  0  0  0  0  0  0  0  0  0  0
    7.3313  -14.4264   13.2888 H   0  0  0  0  0  0  0  0  0  0  0  0
   16.5395  -13.3623   12.9348 H   0  0  0  0  0  0  0  0  0  0  0  0
   15.8067   -9.2678   12.4420 H   0  0  0  0  0  0  0  0  0  0  0  0
   14.6959  -13.5017   14.4604 H   0  0  0  0  0  0  0  0  0  0  0  0
   13.9456   -9.4260   13.9664 H   0  0  0  0  0  0  0  0  0  0  0  0
   11.3892  -13.4837   16.9838 H   0  0  0  0  0  0  0  0  0  0  0  0
   12.9848  -10.7996   15.7765 H   0  0  0  0  0  0  0  0  0  0  0  0
   10.0719  -11.3581   16.0777 H   0  0  0  0  0  0  0  0  0  0  0  0
   11.3479  -10.8650   14.2329 H   0  0  0  0  0  0  0  0  0  0  0  0
  1 20  1  0  0  0  0
  2 21  2  0  0  0  0
  3 22  2  0  0  0  0
  4 23  1  0  0  0  0
  5 23  2  0  0  0  0
  6  9  1  0  0  0  0
  6 21  1  0  0  0  0
  6 22  1  0  0  0  0
  7  8  1  0  0  0  0
  7 24  1  0  0  0  0
  7 25  1  0  0  0  0
  8 10  1  0  0  0  0
  9 26  1  0  0  0  0
 10 13  1  0  0  0  0
 11 14  2  0  0  0  0
 11 20  1  0  0  0  0
 12 15  1  0  0  0  0
 12 20  2  0  0  0  0
 13 24  1  0  0  0  0
 14 26  1  0  0  0  0
 15 26  2  0  0  0  0
 16 18  1  0  0  0  0
 16 27  2  0  0  0  0
 17 19  2  0  0  0  0
 17 27  1  0  0  0  0
 18 28  2  0  0  0  0
 19 28  1  0  0  0  0
 21 29  1  0  0  0  0
 22 30  1  0  0  0  0
 23 27  1  0  0  0  0
 24 29  1  0  0  0  0
 25 28  1  0  0  0  0
 25 30  1  0  0  0  0
 29 30  1  0  0  0  0
  4 31  1  0  0  0  0
  4 32  1  0  0  0  0
  5 33  1  0  0  0  0
  8 34  1  0  0  0  0
  8 35  1  0  0  0  0
  9 36  1  0  0  0  0
  9 37  1  0  0  0  0
 10 38  1  0  0  0  0
 10 39  1  0  0  0  0
 11 40  1  0  0  0  0
 12 41  1  0  0  0  0
 13 42  1  0  0  0  0
 13 43  1  0  0  0  0
 14 44  1  0  0  0  0
 15 45  1  0  0  0  0
 16 46  1  0  0  0  0
 17 47  1  0  0  0  0
 18 48  1  0  0  0  0
 19 49  1  0  0  0  0
 24 50  1  0  0  0  0
 25 51  1  0  0  0  0
 29 52  1  0  0  0  0
 30 53  1  0  0  0  0
M  END
> <pdb_id>
1OYT

> <uniprot_id>
P00734

> <usmiles>
Fc1ccc(cc1)CN2C(=O)[C@H]3[C@H]4N([C@@H](c5ccc(cc5)C(=N)N)[C@H]3C2=O)CCC4

$$$$
FSU_B_1584
          07192416313D 1   1.00000     0.00000     0
            
 34 35  0  0  0  0            999 V2000
   -1.3320  -27.5450  -50.4280 O   0  0  0  0  0  0  0  0  0  0  0  0
   -4.6150  -24.9580  -48.6110 O   0  0  0  0  0  0  0  0  0  0  0  0
   -7.7620  -22.3090  -46.1100 O   0  0  0  0  0  0  0  0  0  0  0  0
   -2.5750  -25.7120  -50.1610 N   0  0  0  0  0  0  0  0  0  0  0  0
   -5.5860  -25.9060  -46.7450 N   0  0  0  0  0  0  0  0  0  0  0  0
   -8.9130  -21.5130  -45.8030 C   0  0  0  0  0  0  0  0  0  0  0  0
   -7.2250  -22.9410  -44.9380 C   0  0  0  0  0  0  0  0  0  0  0  0
   -6.6240  -24.8780  -46.4800 C   0  0  0  0  0  0  0  0  0  0  0  0
   -5.3710  -27.0290  -46.0140 C   0  0  0  0  0  0  0  0  0  0  0  0
   -6.1580  -23.9670  -45.3510 C   0  0  0  0  0  0  0  0  0  0  0  0
   -2.6030  -29.4440  -46.9750 C   0  0  0  0  0  0  0  0  0  0  0  0
   -3.6690  -28.9180  -46.2410 C   0  0  0  0  0  0  0  0  0  0  0  0
   -2.1150  -28.7630  -48.0870 C   0  0  0  0  0  0  0  0  0  0  0  0
   -2.1320  -26.9020  -49.7510 C   0  0  0  0  0  0  0  0  0  0  0  0
   -4.6740  -25.8860  -47.7320 C   0  0  0  0  0  0  0  0  0  0  0  0
   -4.2540  -27.7110  -46.6500 C   0  0  0  0  0  0  0  0  0  0  0  0
   -2.6810  -27.5590  -48.5130 C   0  0  0  0  0  0  0  0  0  0  0  0
   -3.7630  -27.0530  -47.7560 C   0  0  0  0  0  0  0  0  0  0  0  0
   -3.9163  -24.9899  -49.3257 H   0  0  0  0  0  0  0  0  0  0  0  0
   -3.2256  -25.2002  -49.5999 H   0  0  0  0  0  0  0  0  0  0  0  0
   -2.2564  -25.3319  -51.0294 H   0  0  0  0  0  0  0  0  0  0  0  0
   -9.2586  -21.0898  -46.6405 H   0  0  0  0  0  0  0  0  0  0  0  0
   -9.6234  -22.0936  -45.4053 H   0  0  0  0  0  0  0  0  0  0  0  0
   -8.6604  -20.8000  -45.1489 H   0  0  0  0  0  0  0  0  0  0  0  0
   -7.9598  -23.4053  -44.4436 H   0  0  0  0  0  0  0  0  0  0  0  0
   -6.8106  -22.2491  -44.3467 H   0  0  0  0  0  0  0  0  0  0  0  0
   -7.4779  -25.3265  -46.2159 H   0  0  0  0  0  0  0  0  0  0  0  0
   -6.7744  -24.3351  -47.3062 H   0  0  0  0  0  0  0  0  0  0  0  0
   -5.8766  -27.3268  -45.2042 H   0  0  0  0  0  0  0  0  0  0  0  0
   -5.9326  -24.5314  -44.5569 H   0  0  0  0  0  0  0  0  0  0  0  0
   -5.3413  -23.4753  -45.6531 H   0  0  0  0  0  0  0  0  0  0  0  0
   -2.1893  -30.3122  -46.7009 H   0  0  0  0  0  0  0  0  0  0  0  0
   -4.0112  -29.3971  -45.4327 H   0  0  0  0  0  0  0  0  0  0  0  0
   -1.3412  -29.1447  -48.5926 H   0  0  0  0  0  0  0  0  0  0  0  0
  1 14  2  0  0  0  0
  2 15  1  0  0  0  0
  3  6  1  0  0  0  0
  3  7  1  0  0  0  0
  4 14  1  0  0  0  0
  5  8  1  0  0  0  0
  5  9  1  0  0  0  0
  5 15  1  0  0  0  0
  7 10  1  0  0  0  0
  8 10  1  0  0  0  0
  9 16  2  0  0  0  0
 11 12  2  0  0  0  0
 11 13  1  0  0  0  0
 12 16  1  0  0  0  0
 13 17  2  0  0  0  0
 14 17  1  0  0  0  0
 15 18  2  0  0  0  0
 16 18  1  0  0  0  0
 17 18  1  0  0  0  0
  2 19  1  0  0  0  0
  4 20  1  0  0  0  0
  4 21  1  0  0  0  0
  6 22  1  0  0  0  0
  6 23  1  0  0  0  0
  6 24  1  0  0  0  0
  7 25  1  0  0  0  0
  7 26  1  0  0  0  0
  8 27  1  0  0  0  0
  8 28  1  0  0  0  0
  9 29  1  0  0  0  0
 10 30  1  0  0  0  0
 10 31  1  0  0  0  0
 11 32  1  0  0  0  0
 12 33  1  0  0  0  0
 13 34  1  0  0  0  0
M  END
> <pdb_id>
4ZZX

> <uniprot_id>
Q9UGN5

> <usmiles>
O=C(N)C=1C2=C(O)N(C=C2C=CC1)CCCOC

$$$$
FT1_A_502
          07202408293D 1   1.00000     0.00000     0
            
 26 27  0  0  0  0            999 V2000
   54.5372   88.8064   32.0670 Cl  0  0  0  0  0  0  0  0  0  0  0  0
   50.6865   88.7569   35.9196 Cl  0  0  0  0  0  0  0  0  0  0  0  0
   49.4110   97.8378   34.7244 O   0  0  0  0  0  0  0  0  0  0  0  0
   48.3787   92.1906   33.0329 O   0  0  0  0  0  0  0  0  0  0  0  0
   50.1507   91.5183   34.9742 O   0  0  0  0  0  0  0  0  0  0  0  0
   48.9278   96.9565   34.0225 C   0  0  0  0  0  0  0  0  0  0  0  0
   52.8771   90.9446   32.5452 C   0  0  0  0  0  0  0  0  0  0  0  0
   50.1911   95.1870   35.2832 C   0  0  0  0  0  0  0  0  0  0  0  0
   51.8467   91.5780   33.2332 C   0  0  0  0  0  0  0  0  0  0  0  0
   50.4976   93.8387   35.5316 C   0  0  0  0  0  0  0  0  0  0  0  0
   52.5653   88.9567   33.9271 C   0  0  0  0  0  0  0  0  0  0  0  0
   48.6414   94.5266   33.5355 C   0  0  0  0  0  0  0  0  0  0  0  0
   53.2210   89.6430   32.9122 C   0  0  0  0  0  0  0  0  0  0  0  0
   51.5347   89.6081   34.5980 C   0  0  0  0  0  0  0  0  0  0  0  0
   48.9568   93.1893   33.7698 C   0  0  0  0  0  0  0  0  0  0  0  0
   49.2635   95.5334   34.2832 C   0  0  0  0  0  0  0  0  0  0  0  0
   51.1750   90.9108   34.2671 C   0  0  0  0  0  0  0  0  0  0  0  0
   49.8694   92.8488   34.7659 C   0  0  0  0  0  0  0  0  0  0  0  0
   48.6151   91.2357   33.2127 H   0  0  0  0  0  0  0  0  0  0  0  0
   48.3081   97.1956   33.2751 H   0  0  0  0  0  0  0  0  0  0  0  0
   53.3602   91.4116   31.8046 H   0  0  0  0  0  0  0  0  0  0  0  0
   50.6346   95.9047   35.8201 H   0  0  0  0  0  0  0  0  0  0  0  0
   51.5846   92.5118   32.9894 H   0  0  0  0  0  0  0  0  0  0  0  0
   51.1539   93.5899   36.2438 H   0  0  0  0  0  0  0  0  0  0  0  0
   52.8264   88.0220   34.1683 H   0  0  0  0  0  0  0  0  0  0  0  0
   47.9709   94.7667   32.8335 H   0  0  0  0  0  0  0  0  0  0  0  0
  1 13  1  0  0  0  0
  2 14  1  0  0  0  0
  3  6  2  0  0  0  0
  4 15  1  0  0  0  0
  5 17  1  0  0  0  0
  5 18  1  0  0  0  0
  6 16  1  0  0  0  0
  7  9  2  0  0  0  0
  7 13  1  0  0  0  0
  8 10  1  0  0  0  0
  8 16  2  0  0  0  0
  9 17  1  0  0  0  0
 10 18  2  0  0  0  0
 11 13  2  0  0  0  0
 11 14  1  0  0  0  0
 12 15  2  0  0  0  0
 12 16  1  0  0  0  0
 14 17  2  0  0  0  0
 15 18  1  0  0  0  0
  4 19  1  0  0  0  0
  6 20  1  0  0  0  0
  7 21  1  0  0  0  0
  8 22  1  0  0  0  0
  9 23  1  0  0  0  0
 10 24  1  0  0  0  0
 11 25  1  0  0  0  0
 12 26  1  0  0  0  0
M  END
> <pdb_id>
3LT0

> <uniprot_id>
Q9BJJ9

> <usmiles>
Clc1c(Oc2c(O)cc(cc2)C=O)ccc(Cl)c1

$$$$
FT2_A_502
          07202408293D 1   1.00000     0.00000     0
            
 27 28  0  0  0  0            999 V2000
   48.9660   97.7682   35.2089 Cl  0  0  0  0  0  0  0  0  0  0  0  0
   54.6750   88.9139   32.1842 Cl  0  0  0  0  0  0  0  0  0  0  0  0
   50.7607   88.6073   35.8714 Cl  0  0  0  0  0  0  0  0  0  0  0  0
   48.4871   92.0906   32.9126 O   0  0  0  0  0  0  0  0  0  0  0  0
   50.1293   91.4429   34.9405 O   0  0  0  0  0  0  0  0  0  0  0  0
   48.9440   96.8063   33.7244 C   0  0  0  0  0  0  0  0  0  0  0  0
   52.9399   91.0030   32.6394 C   0  0  0  0  0  0  0  0  0  0  0  0
   50.1570   95.1104   35.1580 C   0  0  0  0  0  0  0  0  0  0  0  0
   51.8688   91.5838   33.2874 C   0  0  0  0  0  0  0  0  0  0  0  0
   50.4496   93.7916   35.4669 C   0  0  0  0  0  0  0  0  0  0  0  0
   52.6483   88.9796   33.9598 C   0  0  0  0  0  0  0  0  0  0  0  0
   48.7208   94.3897   33.3568 C   0  0  0  0  0  0  0  0  0  0  0  0
   53.3128   89.7105   32.9937 C   0  0  0  0  0  0  0  0  0  0  0  0
   51.5761   89.5683   34.6008 C   0  0  0  0  0  0  0  0  0  0  0  0
   49.0223   93.0798   33.6526 C   0  0  0  0  0  0  0  0  0  0  0  0
   49.2931   95.4010   34.1025 C   0  0  0  0  0  0  0  0  0  0  0  0
   51.1804   90.8600   34.2727 C   0  0  0  0  0  0  0  0  0  0  0  0
   49.8652   92.7702   34.7034 C   0  0  0  0  0  0  0  0  0  0  0  0
   48.7021   91.1367   33.1224 H   0  0  0  0  0  0  0  0  0  0  0  0
   49.6154   97.1632   33.0749 H   0  0  0  0  0  0  0  0  0  0  0  0
   48.0336   96.8340   33.3116 H   0  0  0  0  0  0  0  0  0  0  0  0
   53.4379   91.5012   31.9296 H   0  0  0  0  0  0  0  0  0  0  0  0
   50.5644   95.8521   35.6907 H   0  0  0  0  0  0  0  0  0  0  0  0
   51.5851   92.5144   33.0562 H   0  0  0  0  0  0  0  0  0  0  0  0
   51.0673   93.5716   36.2219 H   0  0  0  0  0  0  0  0  0  0  0  0
   52.9360   88.0496   34.1886 H   0  0  0  0  0  0  0  0  0  0  0  0
   48.0933   94.6068   32.6091 H   0  0  0  0  0  0  0  0  0  0  0  0
  1  6  1  0  0  0  0
  2 13  1  0  0  0  0
  3 14  1  0  0  0  0
  4 15  1  0  0  0  0
  5 17  1  0  0  0  0
  5 18  1  0  0  0  0
  6 16  1  0  0  0  0
  7  9  2  0  0  0  0
  7 13  1  0  0  0  0
  8 10  1  0  0  0  0
  8 16  2  0  0  0  0
  9 17  1  0  0  0  0
 10 18  2  0  0  0  0
 11 13  2  0  0  0  0
 11 14  1  0  0  0  0
 12 15  2  0  0  0  0
 12 16  1  0  0  0  0
 14 17  2  0  0  0  0
 15 18  1  0  0  0  0
  4 19  1  0  0  0  0
  6 20  1  0  0  0  0
  6 21  1  0  0  0  0
  7 22  1  0  0  0  0
  8 23  1  0  0  0  0
  9 24  1  0  0  0  0
 10 25  1  0  0  0  0
 11 26  1  0  0  0  0
 12 27  1  0  0  0  0
M  END
> <pdb_id>
3LT1

> <uniprot_id>
Q9BJJ9

> <usmiles>
Clc1c(Oc2c(O)cc(cc2)CCl)ccc(Cl)c1

$$$$
FT3_A_502
          07202408293D 1   1.00000     0.00000     0
            
 28 29  0  0  0  0            999 V2000
   54.5538   88.7998   32.0759 Cl  0  0  0  0  0  0  0  0  0  0  0  0
   50.6889   88.6249   35.8565 Cl  0  0  0  0  0  0  0  0  0  0  0  0
   49.1285   97.8331   35.1321 O   0  0  0  0  0  0  0  0  0  0  0  0
   48.4269   92.2352   32.9547 O   0  0  0  0  0  0  0  0  0  0  0  0
   50.1184   91.4863   34.9620 O   0  0  0  0  0  0  0  0  0  0  0  0
   48.8985   96.9768   34.0026 C   0  0  0  0  0  0  0  0  0  0  0  0
   52.8839   90.9578   32.5737 C   0  0  0  0  0  0  0  0  0  0  0  0
   50.1401   95.1684   35.3261 C   0  0  0  0  0  0  0  0  0  0  0  0
   51.8383   91.5644   33.2554 C   0  0  0  0  0  0  0  0  0  0  0  0
   50.4299   93.8245   35.5628 C   0  0  0  0  0  0  0  0  0  0  0  0
   52.5473   88.9485   33.8990 C   0  0  0  0  0  0  0  0  0  0  0  0
   48.6843   94.5392   33.5150 C   0  0  0  0  0  0  0  0  0  0  0  0
   53.2249   89.6474   32.9111 C   0  0  0  0  0  0  0  0  0  0  0  0
   51.5118   89.5671   34.5757 C   0  0  0  0  0  0  0  0  0  0  0  0
   48.9770   93.1983   33.7447 C   0  0  0  0  0  0  0  0  0  0  0  0
   49.2564   95.5342   34.3017 C   0  0  0  0  0  0  0  0  0  0  0  0
   51.1448   90.8746   34.2644 C   0  0  0  0  0  0  0  0  0  0  0  0
   49.8418   92.8314   34.7702 C   0  0  0  0  0  0  0  0  0  0  0  0
   48.8810   98.7723   34.8942 H   0  0  0  0  0  0  0  0  0  0  0  0
   48.6378   91.2718   33.1205 H   0  0  0  0  0  0  0  0  0  0  0  0
   49.4567   97.2958   33.2366 H   0  0  0  0  0  0  0  0  0  0  0  0
   47.9314   97.0245   33.7529 H   0  0  0  0  0  0  0  0  0  0  0  0
   53.3810   91.4480   31.8577 H   0  0  0  0  0  0  0  0  0  0  0  0
   50.5658   95.8753   35.8910 H   0  0  0  0  0  0  0  0  0  0  0  0
   51.5758   92.5018   33.0263 H   0  0  0  0  0  0  0  0  0  0  0  0
   51.0576   93.5704   36.2987 H   0  0  0  0  0  0  0  0  0  0  0  0
   52.8047   88.0077   34.1197 H   0  0  0  0  0  0  0  0  0  0  0  0
   48.0570   94.7900   32.7777 H   0  0  0  0  0  0  0  0  0  0  0  0
  1 13  1  0  0  0  0
  2 14  1  0  0  0  0
  3  6  1  0  0  0  0
  4 15  1  0  0  0  0
  5 17  1  0  0  0  0
  5 18  1  0  0  0  0
  6 16  1  0  0  0  0
  7  9  2  0  0  0  0
  7 13  1  0  0  0  0
  8 10  1  0  0  0  0
  8 16  2  0  0  0  0
  9 17  1  0  0  0  0
 10 18  2  0  0  0  0
 11 13  2  0  0  0  0
 11 14  1  0  0  0  0
 12 15  2  0  0  0  0
 12 16  1  0  0  0  0
 14 17  2  0  0  0  0
 15 18  1  0  0  0  0
  3 19  1  0  0  0  0
  4 20  1  0  0  0  0
  6 21  1  0  0  0  0
  6 22  1  0  0  0  0
  7 23  1  0  0  0  0
  8 24  1  0  0  0  0
  9 25  1  0  0  0  0
 10 26  1  0  0  0  0
 11 27  1  0  0  0  0
 12 28  1  0  0  0  0
M  END
> <pdb_id>
3LT2

> <uniprot_id>
Q9BJJ9

> <usmiles>
Clc1c(Oc2c(O)cc(cc2)CO)ccc(Cl)c1

$$$$
FTX_B_503
          07202412153D 1   1.00000     0.00000     0
            
 48 51  0  0  0  0            999 V2000
   54.5166   49.9591   64.3488 Cl  0  0  0  0  0  0  0  0  0  0  0  0
   50.0055   43.9388   63.7123 O   0  0  0  0  0  0  0  0  0  0  0  0
   42.5298   46.2153   64.8949 O   0  0  0  0  0  0  0  0  0  0  0  0
   44.2045   47.1240   66.6594 O   0  0  0  0  0  0  0  0  0  0  0  0
   52.0892   47.8232   64.6747 N   0  0  0  0  0  0  0  0  0  0  0  0
   48.4378   45.2051   62.6688 N   0  0  0  0  0  0  0  0  0  0  0  0
   41.5903   45.5944   64.0103 C   0  0  0  0  0  0  0  0  0  0  0  0
   45.0682   47.7179   67.6214 C   0  0  0  0  0  0  0  0  0  0  0  0
   49.3649   44.2203   62.7099 C   0  0  0  0  0  0  0  0  0  0  0  0
   50.8921   47.1569   64.6195 C   0  0  0  0  0  0  0  0  0  0  0  0
   47.6057   45.4766   61.5017 C   0  0  0  0  0  0  0  0  0  0  0  0
   51.2355   51.1630   62.4163 C   0  0  0  0  0  0  0  0  0  0  0  0
   52.5126   51.1000   62.9389 C   0  0  0  0  0  0  0  0  0  0  0  0
   46.2021   45.0145   61.8158 C   0  0  0  0  0  0  0  0  0  0  0  0
   50.3140   50.1671   62.6536 C   0  0  0  0  0  0  0  0  0  0  0  0
   44.3482   45.6133   63.3909 C   0  0  0  0  0  0  0  0  0  0  0  0
   46.1298   46.5883   65.2816 C   0  0  0  0  0  0  0  0  0  0  0  0
   48.5683   47.5074   63.5835 C   0  0  0  0  0  0  0  0  0  0  0  0
   52.9057   50.0198   63.7094 C   0  0  0  0  0  0  0  0  0  0  0  0
   43.8648   46.1297   64.5662 C   0  0  0  0  0  0  0  0  0  0  0  0
   44.7741   46.6261   65.5243 C   0  0  0  0  0  0  0  0  0  0  0  0
   51.9927   48.9956   63.9610 C   0  0  0  0  0  0  0  0  0  0  0  0
   48.1240   46.0543   63.8293 C   0  0  1  0  0  0  0  0  0  0  0  0
   49.9990   47.8659   63.8674 C   0  0  0  0  0  0  0  0  0  0  0  0
   45.7242   45.5889   63.1234 C   0  0  0  0  0  0  0  0  0  0  0  0
   50.6880   49.0628   63.4351 C   0  0  0  0  0  0  0  0  0  0  0  0
   46.6204   46.0709   64.0731 C   0  0  0  0  0  0  0  0  0  0  0  0
   52.9052   47.5065   65.1582 H   0  0  0  0  0  0  0  0  0  0  0  0
   40.6634   45.7285   64.3609 H   0  0  0  0  0  0  0  0  0  0  0  0
   41.6658   46.0056   63.1018 H   0  0  0  0  0  0  0  0  0  0  0  0
   41.7856   44.6155   63.9503 H   0  0  0  0  0  0  0  0  0  0  0  0
   44.5290   48.0402   68.3995 H   0  0  0  0  0  0  0  0  0  0  0  0
   45.7339   47.0407   67.9348 H   0  0  0  0  0  0  0  0  0  0  0  0
   45.5488   48.4903   67.2061 H   0  0  0  0  0  0  0  0  0  0  0  0
   49.5350   43.6949   61.8762 H   0  0  0  0  0  0  0  0  0  0  0  0
   50.7012   46.2817   65.0640 H   0  0  0  0  0  0  0  0  0  0  0  0
   47.9582   44.9785   60.7095 H   0  0  0  0  0  0  0  0  0  0  0  0
   47.6048   46.4572   61.3055 H   0  0  0  0  0  0  0  0  0  0  0  0
   50.9746   51.9477   61.8541 H   0  0  0  0  0  0  0  0  0  0  0  0
   53.1589   51.8415   62.7588 H   0  0  0  0  0  0  0  0  0  0  0  0
   46.1919   44.0162   61.8740 H   0  0  0  0  0  0  0  0  0  0  0  0
   45.5886   45.3120   61.0843 H   0  0  0  0  0  0  0  0  0  0  0  0
   49.3910   50.2301   62.2741 H   0  0  0  0  0  0  0  0  0  0  0  0
   43.7089   45.2484   62.7141 H   0  0  0  0  0  0  0  0  0  0  0  0
   46.7679   46.9317   65.9707 H   0  0  0  0  0  0  0  0  0  0  0  0
   47.9957   48.0941   64.1561 H   0  0  0  0  0  0  0  0  0  0  0  0
   48.3963   47.7118   62.6199 H   0  0  0  0  0  0  0  0  0  0  0  0
   48.5887   45.6964   64.6392 H   0  0  0  0  0  0  0  0  0  0  0  0
  1 19  1  0  0  0  0
  2  9  2  0  0  0  0
  3  7  1  0  0  0  0
  3 20  1  0  0  0  0
  4  8  1  0  0  0  0
  4 21  1  0  0  0  0
  5 10  1  0  0  0  0
  5 22  1  0  0  0  0
  6  9  1  0  0  0  0
  6 11  1  0  0  0  0
  6 23  1  0  0  0  0
 10 24  2  0  0  0  0
 11 14  1  0  0  0  0
 12 13  2  0  0  0  0
 12 15  1  0  0  0  0
 13 19  1  0  0  0  0
 14 25  1  0  0  0  0
 15 26  2  0  0  0  0
 16 20  2  0  0  0  0
 16 25  1  0  0  0  0
 17 21  2  0  0  0  0
 17 27  1  0  0  0  0
 18 23  1  0  0  0  0
 18 24  1  0  0  0  0
 19 22  2  0  0  0  0
 20 21  1  0  0  0  0
 22 26  1  0  0  0  0
 23 27  1  0  0  0  0
 24 26  1  0  0  0  0
 25 27  2  0  0  0  0
  5 28  1  0  0  0  0
  7 29  1  0  0  0  0
  7 30  1  0  0  0  0
  7 31  1  0  0  0  0
  8 32  1  0  0  0  0
  8 33  1  0  0  0  0
  8 34  1  0  0  0  0
  9 35  1  0  0  0  0
 10 36  1  0  0  0  0
 11 37  1  0  0  0  0
 11 38  1  0  0  0  0
 12 39  1  0  0  0  0
 13 40  1  0  0  0  0
 14 41  1  0  0  0  0
 14 42  1  0  0  0  0
 15 43  1  0  0  0  0
 16 44  1  0  0  0  0
 17 45  1  0  0  0  0
 18 46  1  0  0  0  0
 18 47  1  0  0  0  0
 23 48  1  0  0  0  0
M  END
> <pdb_id>
7CBJ

> <uniprot_id>
Q08499

> <usmiles>
Clc1c2NC=C(c2ccc1)C[C@@H]3N(C=O)CCc4c3cc(OC)c(OC)c4

$$$$
FU5_B_901
          07192420423D 1   1.00000     0.00000     0
            
 38 39  0  0  0  0            999 V2000
   69.3948   31.5836   24.9965 Cl  0  0  0  0  0  0  0  0  0  0  0  0
   67.8608   41.0471   23.0939 F   0  0  0  0  0  0  0  0  0  0  0  0
   67.0434   39.4501   21.7576 F   0  0  0  0  0  0  0  0  0  0  0  0
   66.2661   39.6629   23.8411 F   0  0  0  0  0  0  0  0  0  0  0  0
   69.6081   36.7721   25.1593 O   0  0  0  0  0  0  0  0  0  0  0  0
   64.8164   33.4773   25.5445 N   0  0  0  0  0  0  0  0  0  0  0  0
   65.6465   34.4859   23.5691 N   0  0  0  0  0  0  0  0  0  0  0  0
   67.1282   33.9136   25.2974 N   0  0  0  0  0  0  0  0  0  0  0  0
   66.4109   35.5548   21.4560 C   0  0  0  0  0  0  0  0  0  0  0  0
   70.0564   38.0089   25.3605 C   0  0  0  0  0  0  0  0  0  0  0  0
   69.0140   39.0646   24.9578 C   0  0  0  0  0  0  0  0  0  0  0  0
   72.2290   34.2347   26.1851 C   0  0  0  0  0  0  0  0  0  0  0  0
   71.5191   33.0323   25.8794 C   0  0  0  0  0  0  0  0  0  0  0  0
   71.6175   35.5026   25.9553 C   0  0  0  0  0  0  0  0  0  0  0  0
   67.9845   34.9482   23.2784 C   0  0  0  0  0  0  0  0  0  0  0  0
   68.4673   38.7576   23.5479 C   0  0  0  0  0  0  0  0  0  0  0  0
   70.1978   33.0795   25.3416 C   0  0  0  0  0  0  0  0  0  0  0  0
   65.8844   33.9672   24.7871 C   0  0  0  0  0  0  0  0  0  0  0  0
   70.2814   35.5845   25.4130 C   0  0  0  0  0  0  0  0  0  0  0  0
   66.6971   34.9717   22.8246 C   0  0  0  0  0  0  0  0  0  0  0  0
   68.1865   34.4065   24.5403 C   0  0  0  0  0  0  0  0  0  0  0  0
   69.5712   34.3588   25.1027 C   0  0  0  0  0  0  0  0  0  0  0  0
   67.3975   39.7465   23.0581 C   0  0  0  0  0  0  0  0  0  0  0  0
   64.9826   33.0897   26.4512 H   0  0  0  0  0  0  0  0  0  0  0  0
   63.8861   33.5146   25.1795 H   0  0  0  0  0  0  0  0  0  0  0  0
   67.2660   35.8638   21.0399 H   0  0  0  0  0  0  0  0  0  0  0  0
   65.9919   34.8555   20.8768 H   0  0  0  0  0  0  0  0  0  0  0  0
   65.7857   36.3299   21.5480 H   0  0  0  0  0  0  0  0  0  0  0  0
   70.8837   38.1462   24.8158 H   0  0  0  0  0  0  0  0  0  0  0  0
   70.2732   38.1211   26.3302 H   0  0  0  0  0  0  0  0  0  0  0  0
   69.4418   39.9685   24.9572 H   0  0  0  0  0  0  0  0  0  0  0  0
   68.2603   39.0529   25.6148 H   0  0  0  0  0  0  0  0  0  0  0  0
   73.1547   34.1869   26.5602 H   0  0  0  0  0  0  0  0  0  0  0  0
   71.9536   32.1469   26.0444 H   0  0  0  0  0  0  0  0  0  0  0  0
   72.1176   36.3412   26.1713 H   0  0  0  0  0  0  0  0  0  0  0  0
   68.7422   35.3027   22.7304 H   0  0  0  0  0  0  0  0  0  0  0  0
   68.0659   37.8418   23.5597 H   0  0  0  0  0  0  0  0  0  0  0  0
   69.2318   38.7781   22.9036 H   0  0  0  0  0  0  0  0  0  0  0  0
  1 17  1  0  0  0  0
  2 23  1  0  0  0  0
  3 23  1  0  0  0  0
  4 23  1  0  0  0  0
  5 10  1  0  0  0  0
  5 19  1  0  0  0  0
  6 18  1  0  0  0  0
  7 18  2  0  0  0  0
  7 20  1  0  0  0  0
  8 18  1  0  0  0  0
  8 21  2  0  0  0  0
  9 20  1  0  0  0  0
 10 11  1  0  0  0  0
 11 16  1  0  0  0  0
 12 13  2  0  0  0  0
 12 14  1  0  0  0  0
 13 17  1  0  0  0  0
 14 19  2  0  0  0  0
 15 20  2  0  0  0  0
 15 21  1  0  0  0  0
 16 23  1  0  0  0  0
 17 22  2  0  0  0  0
 19 22  1  0  0  0  0
 21 22  1  0  0  0  0
  6 24  1  0  0  0  0
  6 25  1  0  0  0  0
  9 26  1  0  0  0  0
  9 27  1  0  0  0  0
  9 28  1  0  0  0  0
 10 29  1  0  0  0  0
 10 30  1  0  0  0  0
 11 31  1  0  0  0  0
 11 32  1  0  0  0  0
 12 33  1  0  0  0  0
 13 34  1  0  0  0  0
 14 35  1  0  0  0  0
 15 36  1  0  0  0  0
 16 37  1  0  0  0  0
 16 38  1  0  0  0  0
M  END
> <pdb_id>
3R4N

> <uniprot_id>
P07900

> <usmiles>
Clc1c(c(OCCCC(F)(F)F)ccc1)c2nc(nc(c2)C)N

$$$$
FU9_A_338
          07202401373D 1   1.00000     0.00000     0
            
 48 52  0  0  0  0            999 V2000
   24.1160  -31.1230   20.2890 F   0  0  0  0  0  0  0  0  0  0  0  0
   22.0090  -30.9500   20.6960 F   0  0  0  0  0  0  0  0  0  0  0  0
   22.7140  -32.2580   19.1280 F   0  0  0  0  0  0  0  0  0  0  0  0
   22.4640  -36.5470   15.3420 O   0  0  0  0  0  0  0  0  0  0  0  0
   22.0860  -37.2140   13.2680 O   0  0  0  0  0  0  0  0  0  0  0  0
   23.4210  -29.4780   10.4200 N   0  0  0  0  0  0  0  0  0  0  0  0
   23.5800  -27.2160   10.9800 N   0  0  0  0  0  0  0  0  0  0  0  0
   22.9850  -29.1540   15.1960 N   0  0  0  0  0  0  0  0  0  0  0  0
   23.3100  -28.7500   12.6490 N   0  0  0  0  0  0  0  0  0  0  0  0
   22.8850  -31.5200   14.8490 N   0  0  0  0  0  0  0  0  0  0  0  0
   22.5940  -27.5560   18.4090 C   0  0  0  0  0  0  0  0  0  0  0  0
   23.2870  -30.7440   10.7970 C   0  0  0  0  0  0  0  0  0  0  0  0
   22.7770  -27.7610   17.0490 C   0  0  0  0  0  0  0  0  0  0  0  0
   23.5000  -24.7620   11.5310 C   0  0  0  0  0  0  0  0  0  0  0  0
   24.8340  -25.3070   12.0630 C   0  0  0  0  0  0  0  0  0  0  0  0
   22.6580  -28.6430   19.2690 C   0  0  0  0  0  0  0  0  0  0  0  0
   22.8000  -34.7250   12.2020 C   0  0  0  0  0  0  0  0  0  0  0  0
   22.9680  -33.4330   11.7210 C   0  0  0  0  0  0  0  0  0  0  0  0
   22.9730  -30.1300   17.4000 C   0  0  0  0  0  0  0  0  0  0  0  0
   22.7080  -33.8700   14.4480 C   0  0  0  0  0  0  0  0  0  0  0  0
   22.4860  -36.3650   14.1010 C   0  0  0  0  0  0  0  0  0  0  0  0
   23.4340  -28.4880   11.3390 C   0  0  0  0  0  0  0  0  0  0  0  0
   23.5980  -26.1970   12.0400 C   0  0  0  0  0  0  0  0  0  0  0  0
   22.8770  -29.0440   16.5270 C   0  0  0  0  0  0  0  0  0  0  0  0
   23.0930  -30.2470   14.4320 C   0  0  0  0  0  0  0  0  0  0  0  0
   22.8740  -32.5680   13.9780 C   0  0  0  0  0  0  0  0  0  0  0  0
   22.7080  -34.9500   13.5740 C   0  0  0  0  0  0  0  0  0  0  0  0
   23.1850  -30.0060   13.0720 C   0  0  0  0  0  0  0  0  0  0  0  0
   22.8430  -29.9250   18.7710 C   0  0  0  0  0  0  0  0  0  0  0  0
   23.1470  -31.0450   12.1510 C   0  0  0  0  0  0  0  0  0  0  0  0
   22.9960  -32.3520   12.6090 C   0  0  0  0  0  0  0  0  0  0  0  0
   22.9140  -31.1030   19.7470 C   0  0  0  0  0  0  0  0  0  0  0  0
   22.7966  -35.8330   15.9580 H   0  0  0  0  0  0  0  0  0  0  0  0
   23.6747  -26.9601   10.0180 H   0  0  0  0  0  0  0  0  0  0  0  0
   22.9849  -28.2870   14.6977 H   0  0  0  0  0  0  0  0  0  0  0  0
   22.4185  -26.6379   18.7643 H   0  0  0  0  0  0  0  0  0  0  0  0
   23.2865  -31.4756   10.1153 H   0  0  0  0  0  0  0  0  0  0  0  0
   22.8378  -26.9734   16.4358 H   0  0  0  0  0  0  0  0  0  0  0  0
   23.3858  -24.5840   10.5536 H   0  0  0  0  0  0  0  0  0  0  0  0
   22.9935  -24.0779   12.0558 H   0  0  0  0  0  0  0  0  0  0  0  0
   25.1973  -24.9775   12.9345 H   0  0  0  0  0  0  0  0  0  0  0  0
   25.5896  -25.4836   11.4323 H   0  0  0  0  0  0  0  0  0  0  0  0
   22.5702  -28.5015   20.2550 H   0  0  0  0  0  0  0  0  0  0  0  0
   22.7451  -35.4932   11.5642 H   0  0  0  0  0  0  0  0  0  0  0  0
   23.0691  -33.2751   10.7387 H   0  0  0  0  0  0  0  0  0  0  0  0
   23.1342  -31.0498   17.0423 H   0  0  0  0  0  0  0  0  0  0  0  0
   22.5872  -34.0288   15.4279 H   0  0  0  0  0  0  0  0  0  0  0  0
   23.1610  -26.4176   12.9120 H   0  0  0  0  0  0  0  0  0  0  0  0
  1 32  1  0  0  0  0
  2 32  1  0  0  0  0
  3 32  1  0  0  0  0
  4 21  1  0  0  0  0
  5 21  2  0  0  0  0
  6 12  1  0  0  0  0
  6 22  2  0  0  0  0
  7 22  1  0  0  0  0
  7 23  1  0  0  0  0
  8 24  1  0  0  0  0
  8 25  1  0  0  0  0
  9 22  1  0  0  0  0
  9 28  2  0  0  0  0
 10 25  2  0  0  0  0
 10 26  1  0  0  0  0
 11 13  1  0  0  0  0
 11 16  2  0  0  0  0
 12 30  2  0  0  0  0
 13 24  2  0  0  0  0
 14 15  1  0  0  0  0
 14 23  1  0  0  0  0
 15 23  1  0  0  0  0
 16 29  1  0  0  0  0
 17 18  1  0  0  0  0
 17 27  2  0  0  0  0
 18 31  2  0  0  0  0
 19 24  1  0  0  0  0
 19 29  2  0  0  0  0
 20 26  2  0  0  0  0
 20 27  1  0  0  0  0
 21 27  1  0  0  0  0
 25 28  1  0  0  0  0
 26 31  1  0  0  0  0
 28 30  1  0  0  0  0
 29 32  1  0  0  0  0
 30 31  1  0  0  0  0
  4 33  1  0  0  0  0
  7 34  1  0  0  0  0
  8 35  1  0  0  0  0
 11 36  1  0  0  0  0
 12 37  1  0  0  0  0
 13 38  1  0  0  0  0
 14 39  1  0  0  0  0
 14 40  1  0  0  0  0
 15 41  1  0  0  0  0
 15 42  1  0  0  0  0
 16 43  1  0  0  0  0
 17 44  1  0  0  0  0
 18 45  1  0  0  0  0
 19 46  1  0  0  0  0
 20 47  1  0  0  0  0
 23 48  1  0  0  0  0
M  END
> <pdb_id>
3R0T

> <uniprot_id>
P68400

> <usmiles>
FC(F)(F)c1cc(Nc2nc3c(c4c2nc(nc4)NC5CC5)ccc(c3)C(=O)O)ccc1

$$$$
FUC_A_1115
          07202403043D 1   1.00000     0.00000     0
            
 23 23  0  0  0  0            999 V2000
   15.7533   18.4631  -23.3587 O   0  0  0  0  0  0  0  0  0  0  0  0
   16.2963   20.5569  -21.5584 O   0  0  0  0  0  0  0  0  0  0  0  0
   18.9953   20.0657  -21.2234 O   0  0  0  0  0  0  0  0  0  0  0  0
   19.8279   20.3014  -23.7567 O   0  0  0  0  0  0  0  0  0  0  0  0
   17.2705   19.3931  -24.9147 O   0  0  0  0  0  0  0  0  0  0  0  0
   19.2117   18.2989  -25.8361 C   0  0  0  0  0  0  0  0  0  0  0  0
   16.3451   19.6490  -23.8437 C   0  0  2  0  0  0  0  0  0  0  0  0
   17.1295   20.2894  -22.6902 C   0  0  2  0  0  0  0  0  0  0  0  0
   18.2447   19.3951  -22.2610 C   0  0  1  0  0  0  0  0  0  0  0  0
   19.1764   19.0743  -23.3993 C   0  0  1  0  0  0  0  0  0  0  0  0
   18.3624   18.5264  -24.5906 C   0  0  1  0  0  0  0  0  0  0  0  0
   15.1194   18.6857  -22.6180 H   0  0  0  0  0  0  0  0  0  0  0  0
   16.8439   20.9722  -20.8320 H   0  0  0  0  0  0  0  0  0  0  0  0
   19.7477   19.4789  -20.9240 H   0  0  0  0  0  0  0  0  0  0  0  0
   20.4600   20.1350  -24.5135 H   0  0  0  0  0  0  0  0  0  0  0  0
   19.9757   17.6935  -25.6126 H   0  0  0  0  0  0  0  0  0  0  0  0
   18.6511   17.8786  -26.5496 H   0  0  0  0  0  0  0  0  0  0  0  0
   19.5654   19.1752  -26.1630 H   0  0  0  0  0  0  0  0  0  0  0  0
   15.6330   20.2774  -24.1567 H   0  0  0  0  0  0  0  0  0  0  0  0
   17.5189   21.1530  -23.0105 H   0  0  0  0  0  0  0  0  0  0  0  0
   17.8644   18.5451  -21.8964 H   0  0  0  0  0  0  0  0  0  0  0  0
   19.8538   18.3990  -23.1077 H   0  0  0  0  0  0  0  0  0  0  0  0
   17.9798   17.6438  -24.3176 H   0  0  0  0  0  0  0  0  0  0  0  0
  1  7  1  0  0  0  0
  2  8  1  0  0  0  0
  3  9  1  0  0  0  0
  4 10  1  0  0  0  0
  5  7  1  0  0  0  0
  5 11  1  0  0  0  0
  6 11  1  0  0  0  0
  7  8  1  0  0  0  0
  8  9  1  0  0  0  0
  9 10  1  0  0  0  0
 10 11  1  0  0  0  0
  1 12  1  0  0  0  0
  2 13  1  0  0  0  0
  3 14  1  0  0  0  0
  4 15  1  0  0  0  0
  6 16  1  0  0  0  0
  6 17  1  0  0  0  0
  6 18  1  0  0  0  0
  7 19  1  0  0  0  0
  8 20  1  0  0  0  0
  9 21  1  0  0  0  0
 10 22  1  0  0  0  0
 11 23  1  0  0  0  0
M  END
> <pdb_id>
2JDK

> <uniprot_id>
Q9HYN5

> <usmiles>
O1[C@@H](O)[C@@H](O)[C@H](O)[C@H](O)[C@@H]1C

$$$$
FUC_A_1118
          07192421293D 1   1.00000     0.00000     0
            
 23 23  0  0  0  0            999 V2000
  -27.6735  -16.5097    9.6161 O   0  0  0  0  0  0  0  0  0  0  0  0
  -25.5249  -15.1476   10.8592 O   0  0  0  0  0  0  0  0  0  0  0  0
  -24.4099  -13.9048    8.6323 O   0  0  0  0  0  0  0  0  0  0  0  0
  -26.5813  -12.4724    7.7910 O   0  0  0  0  0  0  0  0  0  0  0  0
  -28.5198  -14.4599    8.7973 O   0  0  0  0  0  0  0  0  0  0  0  0
  -28.8838  -13.7715    6.5269 C   0  0  0  0  0  0  0  0  0  0  0  0
  -27.7793  -15.1157    9.8307 C   0  0  2  0  0  0  0  0  0  0  0  0
  -26.3646  -14.5155    9.9096 C   0  0  2  0  0  0  0  0  0  0  0  0
  -25.6739  -14.5579    8.5593 C   0  0  1  0  0  0  0  0  0  0  0  0
  -26.5352  -13.8661    7.5103 C   0  0  1  0  0  0  0  0  0  0  0  0
  -27.9436  -14.4963    7.4921 C   0  0  1  0  0  0  0  0  0  0  0  0
  -27.1498  -16.9228   10.3611 H   0  0  0  0  0  0  0  0  0  0  0  0
  -24.6270  -14.7075   10.8553 H   0  0  0  0  0  0  0  0  0  0  0  0
  -23.9648  -13.9392    7.7375 H   0  0  0  0  0  0  0  0  0  0  0  0
  -27.1456  -12.0128    7.1052 H   0  0  0  0  0  0  0  0  0  0  0  0
  -28.4938  -13.7880    5.6062 H   0  0  0  0  0  0  0  0  0  0  0  0
  -29.7728  -14.2293    6.5207 H   0  0  0  0  0  0  0  0  0  0  0  0
  -28.9992  -12.8233    6.8230 H   0  0  0  0  0  0  0  0  0  0  0  0
  -28.2419  -14.9605   10.7036 H   0  0  0  0  0  0  0  0  0  0  0  0
  -26.4556  -13.5556   10.1750 H   0  0  0  0  0  0  0  0  0  0  0  0
  -25.5351  -15.5115    8.2921 H   0  0  0  0  0  0  0  0  0  0  0  0
  -26.1141  -13.9979    6.6129 H   0  0  0  0  0  0  0  0  0  0  0  0
  -27.8633  -15.4506    7.2043 H   0  0  0  0  0  0  0  0  0  0  0  0
  1  7  1  0  0  0  0
  2  8  1  0  0  0  0
  3  9  1  0  0  0  0
  4 10  1  0  0  0  0
  5  7  1  0  0  0  0
  5 11  1  0  0  0  0
  6 11  1  0  0  0  0
  7  8  1  0  0  0  0
  8  9  1  0  0  0  0
  9 10  1  0  0  0  0
 10 11  1  0  0  0  0
  1 12  1  0  0  0  0
  2 13  1  0  0  0  0
  3 14  1  0  0  0  0
  4 15  1  0  0  0  0
  6 16  1  0  0  0  0
  6 17  1  0  0  0  0
  6 18  1  0  0  0  0
  7 19  1  0  0  0  0
  8 20  1  0  0  0  0
  9 21  1  0  0  0  0
 10 22  1  0  0  0  0
 11 23  1  0  0  0  0
M  END
> <pdb_id>
2JDM

> <uniprot_id>
Q9HYN5

> <usmiles>
O1[C@@H](O)[C@@H](O)[C@H](O)[C@H](O)[C@@H]1C

$$$$
FUC_C_111
          07192418313D 1   1.00000     0.00000     0
            
 23 23  0  0  0  0            999 V2000
  -25.9053    8.7073   -9.7488 O   0  0  0  0  0  0  0  0  0  0  0  0
  -26.2838    8.2946   -7.1768 O   0  0  0  0  0  0  0  0  0  0  0  0
  -23.6488    8.4674   -6.0318 O   0  0  0  0  0  0  0  0  0  0  0  0
  -23.0805   11.1231   -7.1553 O   0  0  0  0  0  0  0  0  0  0  0  0
  -24.7073   10.7075   -9.4442 O   0  0  0  0  0  0  0  0  0  0  0  0
  -22.4872   11.2828   -9.9700 C   0  0  0  0  0  0  0  0  0  0  0  0
  -25.7129    9.8355   -8.8962 C   0  0  2  0  0  0  0  0  0  0  0  0
  -25.3514    9.3564   -7.4998 C   0  0  2  0  0  0  0  0  0  0  0  0
  -23.9331    8.8309   -7.3941 C   0  0  1  0  0  0  0  0  0  0  0  0
  -22.9700    9.9016   -7.9432 C   0  0  1  0  0  0  0  0  0  0  0  0
  -23.3647   10.2171   -9.3641 C   0  0  1  0  0  0  0  0  0  0  0  0
  -26.6053    8.1097   -9.3580 H   0  0  0  0  0  0  0  0  0  0  0  0
  -26.0858    7.9441   -6.2614 H   0  0  0  0  0  0  0  0  0  0  0  0
  -22.7127    8.1216   -5.9674 H   0  0  0  0  0  0  0  0  0  0  0  0
  -22.4528   11.8118   -7.5182 H   0  0  0  0  0  0  0  0  0  0  0  0
  -21.5327   10.9865   -9.9380 H   0  0  0  0  0  0  0  0  0  0  0  0
  -22.7570   11.4360  -10.9207 H   0  0  0  0  0  0  0  0  0  0  0  0
  -22.5900   12.1327   -9.4533 H   0  0  0  0  0  0  0  0  0  0  0  0
  -26.5739   10.3413   -8.8431 H   0  0  0  0  0  0  0  0  0  0  0  0
  -25.4725   10.1088   -6.8522 H   0  0  0  0  0  0  0  0  0  0  0  0
  -23.8550    8.0125   -7.9634 H   0  0  0  0  0  0  0  0  0  0  0  0
  -22.0299    9.5617   -7.9169 H   0  0  0  0  0  0  0  0  0  0  0  0
  -23.2903    9.3849   -9.9136 H   0  0  0  0  0  0  0  0  0  0  0  0
  1  7  1  0  0  0  0
  2  8  1  0  0  0  0
  3  9  1  0  0  0  0
  4 10  1  0  0  0  0
  5  7  1  0  0  0  0
  5 11  1  0  0  0  0
  6 11  1  0  0  0  0
  7  8  1  0  0  0  0
  8  9  1  0  0  0  0
  9 10  1  0  0  0  0
 10 11  1  0  0  0  0
  1 12  1  0  0  0  0
  2 13  1  0  0  0  0
  3 14  1  0  0  0  0
  4 15  1  0  0  0  0
  6 16  1  0  0  0  0
  6 17  1  0  0  0  0
  6 18  1  0  0  0  0
  7 19  1  0  0  0  0
  8 20  1  0  0  0  0
  9 21  1  0  0  0  0
 10 22  1  0  0  0  0
 11 23  1  0  0  0  0
M  END
> <pdb_id>
5AJC

> <uniprot_id>
D8NA05

> <usmiles>
O1[C@@H](O)[C@@H](O)[C@H](O)[C@H](O)[C@@H]1C

$$$$
FUC_C_115
          07202403043D 1   1.00000     0.00000     0
            
 23 23  0  0  0  0            999 V2000
   15.1540   20.3300  -24.2560 O   0  0  0  0  0  0  0  0  0  0  0  0
   16.2750   20.5320  -21.5650 O   0  0  0  0  0  0  0  0  0  0  0  0
   19.0300   19.9400  -21.2250 O   0  0  0  0  0  0  0  0  0  0  0  0
   19.8060   20.2670  -23.8260 O   0  0  0  0  0  0  0  0  0  0  0  0
   17.2810   19.6050  -24.9730 O   0  0  0  0  0  0  0  0  0  0  0  0
   19.1070   18.3250  -25.8140 C   0  0  0  0  0  0  0  0  0  0  0  0
   16.1960   19.7410  -23.8670 C   0  0  1  0  0  0  0  0  0  0  0  0
   17.1790   20.4210  -22.6480 C   0  0  2  0  0  0  0  0  0  0  0  0
   18.2300   19.3970  -22.2670 C   0  0  1  0  0  0  0  0  0  0  0  0
   19.1080   19.0900  -23.4470 C   0  0  1  0  0  0  0  0  0  0  0  0
   18.2410   18.6000  -24.5940 C   0  0  1  0  0  0  0  0  0  0  0  0
   14.5002   20.3841  -23.5013 H   0  0  0  0  0  0  0  0  0  0  0  0
   16.7466   20.9264  -20.7763 H   0  0  0  0  0  0  0  0  0  0  0  0
   19.7296   19.2759  -20.9614 H   0  0  0  0  0  0  0  0  0  0  0  0
   20.3923   20.0685  -24.6114 H   0  0  0  0  0  0  0  0  0  0  0  0
   19.7888   17.6290  -25.5888 H   0  0  0  0  0  0  0  0  0  0  0  0
   18.5321   17.9980  -26.5640 H   0  0  0  0  0  0  0  0  0  0  0  0
   19.5694   19.1672  -26.0912 H   0  0  0  0  0  0  0  0  0  0  0  0
   15.9376   18.8201  -23.5752 H   0  0  0  0  0  0  0  0  0  0  0  0
   17.5738   21.3003  -22.9145 H   0  0  0  0  0  0  0  0  0  0  0  0
   17.7857   18.5592  -21.9498 H   0  0  0  0  0  0  0  0  0  0  0  0
   19.7649   18.3784  -23.1978 H   0  0  0  0  0  0  0  0  0  0  0  0
   17.7645   17.7636  -24.3232 H   0  0  0  0  0  0  0  0  0  0  0  0
  1  7  1  0  0  0  0
  2  8  1  0  0  0  0
  3  9  1  0  0  0  0
  4 10  1  0  0  0  0
  5  7  1  0  0  0  0
  5 11  1  0  0  0  0
  6 11  1  0  0  0  0
  7  8  1  0  0  0  0
  8  9  1  0  0  0  0
  9 10  1  0  0  0  0
 10 11  1  0  0  0  0
  1 12  1  0  0  0  0
  2 13  1  0  0  0  0
  3 14  1  0  0  0  0
  4 15  1  0  0  0  0
  6 16  1  0  0  0  0
  6 17  1  0  0  0  0
  6 18  1  0  0  0  0
  7 19  1  0  0  0  0
  8 20  1  0  0  0  0
  9 21  1  0  0  0  0
 10 22  1  0  0  0  0
 11 23  1  0  0  0  0
M  END
> <pdb_id>
1OXC

> <uniprot_id>
Q9HYN5

> <usmiles>
O1[C@H](O)[C@@H](O)[C@H](O)[C@H](O)[C@@H]1C

$$$$
FUJ_A_301
          07212402403D 1   1.00000     0.00000     0
            
 29 30  0  0  0  0            999 V2000
   18.9918   17.0055   10.7579 P   0  0  0  0  0  0  0  0  0  0  0  0
   19.0632   17.1502   12.0117 O   0  0  0  0  0  0  0  0  0  0  0  0
   19.4771   15.5852   10.4536 O   0  0  0  0  0  0  0  0  0  0  0  0
   17.6203   17.2914   10.2332 O   0  0  0  0  0  0  0  0  0  0  0  0
   18.3823   18.6587    5.6435 O   0  0  0  0  0  0  0  0  0  0  0  0
   24.1630   15.4584    5.5174 O   0  0  0  0  0  0  0  0  0  0  0  0
   20.1635   17.6047    5.7232 O   0  0  0  0  0  0  0  0  0  0  0  0
   25.2857   14.9312    6.0237 C   0  0  0  0  0  0  0  0  0  0  0  0
   20.2410   18.1361    9.9130 C   0  0  0  0  0  0  0  0  0  0  0  0
   23.2852   16.1047    7.7706 C   0  0  0  0  0  0  0  0  0  0  0  0
   22.2586   16.7286    8.4771 C   0  0  0  0  0  0  0  0  0  0  0  0
   22.1207   16.5342    5.7934 C   0  0  0  0  0  0  0  0  0  0  0  0
   19.1914   18.4222    7.6545 C   0  0  0  0  0  0  0  0  0  0  0  0
   19.1927   18.2303    6.3135 C   0  0  0  0  0  0  0  0  0  0  0  0
   23.1947   16.0171    6.4198 C   0  0  0  0  0  0  0  0  0  0  0  0
   21.1199   17.1329    6.4448 C   0  0  0  0  0  0  0  0  0  0  0  0
   20.1778   17.8984    8.4382 C   0  0  0  0  0  0  0  0  0  0  0  0
   21.1825   17.2656    7.7817 C   0  0  0  0  0  0  0  0  0  0  0  0
   18.7544   18.0686   12.2594 H   0  0  0  0  0  0  0  0  0  0  0  0
   19.4382   15.4238    9.4675 H   0  0  0  0  0  0  0  0  0  0  0  0
   25.8568   14.5853    5.2792 H   0  0  0  0  0  0  0  0  0  0  0  0
   25.7862   15.6347    6.5285 H   0  0  0  0  0  0  0  0  0  0  0  0
   25.0523   14.1802    6.6414 H   0  0  0  0  0  0  0  0  0  0  0  0
   21.1608   17.9320   10.2481 H   0  0  0  0  0  0  0  0  0  0  0  0
   20.0186   19.0909   10.1103 H   0  0  0  0  0  0  0  0  0  0  0  0
   24.0764   15.7275    8.2520 H   0  0  0  0  0  0  0  0  0  0  0  0
   22.2962   16.7890    9.4746 H   0  0  0  0  0  0  0  0  0  0  0  0
   22.0700   16.4670    4.7969 H   0  0  0  0  0  0  0  0  0  0  0  0
   18.4575   18.9551    8.0758 H   0  0  0  0  0  0  0  0  0  0  0  0
  1  2  1  0  0  0  0
  1  3  1  0  0  0  0
  1  4  2  0  0  0  0
  1  9  1  0  0  0  0
  5 14  2  0  0  0  0
  6  8  1  0  0  0  0
  6 15  1  0  0  0  0
  7 14  1  0  0  0  0
  7 16  1  0  0  0  0
  9 17  1  0  0  0  0
 10 11  1  0  0  0  0
 10 15  2  0  0  0  0
 11 18  2  0  0  0  0
 12 15  1  0  0  0  0
 12 16  2  0  0  0  0
 13 14  1  0  0  0  0
 13 17  2  0  0  0  0
 16 18  1  0  0  0  0
 17 18  1  0  0  0  0
  2 19  1  0  0  0  0
  3 20  1  0  0  0  0
  8 21  1  0  0  0  0
  8 22  1  0  0  0  0
  8 23  1  0  0  0  0
  9 24  1  0  0  0  0
  9 25  1  0  0  0  0
 10 26  1  0  0  0  0
 11 27  1  0  0  0  0
 12 28  1  0  0  0  0
 13 29  1  0  0  0  0
M  END
> <pdb_id>
6D16

> <uniprot_id>
Q9F663

> <usmiles>
P(=O)(O)(O)CC=1c2c(OC(=O)C1)cc(OC)cc2

$$$$
FVQ_A_201
          07202405373D 1   1.00000     0.00000     0
            
 38 39  0  0  0  0            999 V2000
   14.1951   13.6193  -13.4714 O   0  0  0  0  0  0  0  0  0  0  0  0
   10.4606   11.5408  -14.9385 O   0  0  0  0  0  0  0  0  0  0  0  0
   11.0867   14.0183  -11.4135 O   0  0  0  0  0  0  0  0  0  0  0  0
    9.2061   12.1125  -12.6790 O   0  0  0  0  0  0  0  0  0  0  0  0
   10.0140   14.9397  -15.6902 O   0  0  0  0  0  0  0  0  0  0  0  0
   11.9819   13.9784  -15.0800 O   0  0  0  0  0  0  0  0  0  0  0  0
    7.5330   21.2744  -14.9515 N   0  0  0  0  0  0  0  0  0  0  0  0
   10.5401   15.9363  -16.5921 C   0  0  0  0  0  0  0  0  0  0  0  0
   13.2093   14.6185  -13.1893 C   0  0  0  0  0  0  0  0  0  0  0  0
    7.6780   22.1735  -15.9681 C   0  0  0  0  0  0  0  0  0  0  0  0
    9.8024   17.1991  -16.4729 C   0  0  0  0  0  0  0  0  0  0  0  0
    8.3635   21.8528  -17.1521 C   0  0  0  0  0  0  0  0  0  0  0  0
    8.0400   20.0139  -15.0538 C   0  0  0  0  0  0  0  0  0  0  0  0
    9.2899   18.2771  -16.3462 C   0  0  0  0  0  0  0  0  0  0  0  0
    8.8857   20.5608  -17.2865 C   0  0  0  0  0  0  0  0  0  0  0  0
   10.7067   13.7496  -15.6307 C   0  0  1  0  0  0  0  0  0  0  0  0
   11.8617   14.4531  -13.6649 C   0  0  2  0  0  0  0  0  0  0  0  0
    9.8887   12.7986  -14.8174 C   0  0  2  0  0  0  0  0  0  0  0  0
   11.1043   13.5052  -12.7923 C   0  0  2  0  0  0  0  0  0  0  0  0
    9.7974   13.1747  -13.3633 C   0  0  2  0  0  0  0  0  0  0  0  0
    8.7070   19.6497  -16.2012 C   0  0  0  0  0  0  0  0  0  0  0  0
   15.0698   13.8913  -13.0701 H   0  0  0  0  0  0  0  0  0  0  0  0
    9.9326   10.8816  -14.4030 H   0  0  0  0  0  0  0  0  0  0  0  0
   10.5801   13.3849  -10.8286 H   0  0  0  0  0  0  0  0  0  0  0  0
    9.1347   12.3402  -11.7078 H   0  0  0  0  0  0  0  0  0  0  0  0
   10.4630   15.6004  -17.5308 H   0  0  0  0  0  0  0  0  0  0  0  0
   11.5025   16.0985  -16.3741 H   0  0  0  0  0  0  0  0  0  0  0  0
   13.5487   15.4762  -13.5757 H   0  0  0  0  0  0  0  0  0  0  0  0
   13.1564   14.6992  -12.1940 H   0  0  0  0  0  0  0  0  0  0  0  0
    7.2847   23.0874  -15.8673 H   0  0  0  0  0  0  0  0  0  0  0  0
    8.4754   22.5298  -17.8796 H   0  0  0  0  0  0  0  0  0  0  0  0
    7.9288   19.3613  -14.3043 H   0  0  0  0  0  0  0  0  0  0  0  0
    9.3691   20.2843  -18.1171 H   0  0  0  0  0  0  0  0  0  0  0  0
   10.8103   13.3843  -16.5558 H   0  0  0  0  0  0  0  0  0  0  0  0
   11.4021   15.3412  -13.6571 H   0  0  0  0  0  0  0  0  0  0  0  0
    8.9643   12.7670  -15.1975 H   0  0  0  0  0  0  0  0  0  0  0  0
   11.6297   12.6546  -12.7728 H   0  0  0  0  0  0  0  0  0  0  0  0
    9.2037   13.9750  -13.2798 H   0  0  0  0  0  0  0  0  0  0  0  0
  1  9  1  0  0  0  0
  2 18  1  0  0  0  0
  3 19  1  0  0  0  0
  4 20  1  0  0  0  0
  5  8  1  0  0  0  0
  5 16  1  0  0  0  0
  6 16  1  0  0  0  0
  6 17  1  0  0  0  0
  7 10  2  0  0  0  0
  7 13  1  0  0  0  0
  8 11  1  0  0  0  0
  9 17  1  0  0  0  0
 10 12  1  0  0  0  0
 11 14  3  0  0  0  0
 12 15  2  0  0  0  0
 13 21  2  0  0  0  0
 14 21  1  0  0  0  0
 15 21  1  0  0  0  0
 16 18  1  0  0  0  0
 17 19  1  0  0  0  0
 18 20  1  0  0  0  0
 19 20  1  0  0  0  0
  1 22  1  0  0  0  0
  2 23  1  0  0  0  0
  3 24  1  0  0  0  0
  4 25  1  0  0  0  0
  8 26  1  0  0  0  0
  8 27  1  0  0  0  0
  9 28  1  0  0  0  0
  9 29  1  0  0  0  0
 10 30  1  0  0  0  0
 12 31  1  0  0  0  0
 13 32  1  0  0  0  0
 15 33  1  0  0  0  0
 16 34  1  0  0  0  0
 17 35  1  0  0  0  0
 18 36  1  0  0  0  0
 19 37  1  0  0  0  0
 20 38  1  0  0  0  0
M  END
> <pdb_id>
4AV4

> <uniprot_id>
A2IC68

> <usmiles>
O1[C@@H]([C@@H](O)[C@H](O)[C@H](O)[C@H]1OCC#Cc2cnccc2)CO

$$$$
FW7_B_2001
          07192420503D 1   1.00000     0.00000     0
            
 42 45  0  0  0  0            999 V2000
    0.2431  -32.5458   40.5849 Cl  0  0  0  0  0  0  0  0  0  0  0  0
   -0.0767  -39.4667   41.4325 Cl  0  0  0  0  0  0  0  0  0  0  0  0
   -2.4222  -41.0337   42.2948 F   0  0  0  0  0  0  0  0  0  0  0  0
   -0.8200  -37.3290   49.6525 N   0  0  0  0  0  0  0  0  0  0  0  0
    1.3894  -35.3727   45.5954 N   0  0  0  0  0  0  0  0  0  0  0  0
   -0.3379  -36.5126   46.9621 N   0  0  0  0  0  0  0  0  0  0  0  0
   -0.7560  -35.4402   44.7787 N   0  0  0  0  0  0  0  0  0  0  0  0
    0.1520  -38.0713   48.7252 C   0  0  0  0  0  0  0  0  0  0  0  0
   -1.8685  -36.5660   48.8331 C   0  0  0  0  0  0  0  0  0  0  0  0
    0.8097  -37.0892   47.7240 C   0  0  0  0  0  0  0  0  0  0  0  0
   -1.1174  -35.6205   47.8733 C   0  0  0  0  0  0  0  0  0  0  0  0
   -2.1340  -35.8825   44.5895 C   0  0  0  0  0  0  0  0  0  0  0  0
    1.9970  -33.4123   42.4649 C   0  0  0  0  0  0  0  0  0  0  0  0
   -3.2091  -39.4390   43.8384 C   0  0  0  0  0  0  0  0  0  0  0  0
    2.3491  -34.0395   43.6457 C   0  0  0  0  0  0  0  0  0  0  0  0
   -3.1310  -38.1783   44.4073 C   0  0  0  0  0  0  0  0  0  0  0  0
   -0.3590  -34.0490   42.6674 C   0  0  0  0  0  0  0  0  0  0  0  0
   -1.2170  -37.6744   43.0451 C   0  0  0  0  0  0  0  0  0  0  0  0
    0.6593  -33.4221   42.0249 C   0  0  0  0  0  0  0  0  0  0  0  0
    0.1261  -35.7928   45.8047 C   0  0  0  0  0  0  0  0  0  0  0  0
   -1.2853  -38.9532   42.5017 C   0  0  0  0  0  0  0  0  0  0  0  0
   -2.3003  -39.8337   42.8781 C   0  0  0  0  0  0  0  0  0  0  0  0
    1.3263  -34.6813   44.3625 C   0  0  0  0  0  0  0  0  0  0  0  0
    0.0046  -34.6965   43.8637 C   0  0  0  0  0  0  0  0  0  0  0  0
   -2.1542  -37.2827   44.0081 C   0  0  0  0  0  0  0  0  0  0  0  0
   -0.3072  -36.6809   50.2157 H   0  0  0  0  0  0  0  0  0  0  0  0
   -0.3492  -38.7717   48.2170 H   0  0  0  0  0  0  0  0  0  0  0  0
    0.8649  -38.5052   49.2761 H   0  0  0  0  0  0  0  0  0  0  0  0
   -2.4568  -36.0350   49.4430 H   0  0  0  0  0  0  0  0  0  0  0  0
   -2.4260  -37.2101   48.3095 H   0  0  0  0  0  0  0  0  0  0  0  0
    1.3092  -36.3712   48.2088 H   0  0  0  0  0  0  0  0  0  0  0  0
    1.4339  -37.5737   47.1111 H   0  0  0  0  0  0  0  0  0  0  0  0
   -1.7653  -35.0668   47.3502 H   0  0  0  0  0  0  0  0  0  0  0  0
   -0.5025  -35.0199   48.3845 H   0  0  0  0  0  0  0  0  0  0  0  0
   -2.5995  -35.2572   43.9631 H   0  0  0  0  0  0  0  0  0  0  0  0
   -2.6056  -35.8833   45.4713 H   0  0  0  0  0  0  0  0  0  0  0  0
    2.6962  -32.9492   41.9203 H   0  0  0  0  0  0  0  0  0  0  0  0
   -3.9307  -40.0687   44.1263 H   0  0  0  0  0  0  0  0  0  0  0  0
    3.2931  -34.0362   43.9756 H   0  0  0  0  0  0  0  0  0  0  0  0
   -3.7871  -37.9126   45.1137 H   0  0  0  0  0  0  0  0  0  0  0  0
   -1.2959  -34.0508   42.3177 H   0  0  0  0  0  0  0  0  0  0  0  0
   -0.5032  -37.0394   42.7497 H   0  0  0  0  0  0  0  0  0  0  0  0
  1 19  1  0  0  0  0
  2 21  1  0  0  0  0
  3 22  1  0  0  0  0
  4  8  1  0  0  0  0
  4  9  1  0  0  0  0
  5 20  2  0  0  0  0
  5 23  1  0  0  0  0
  6 10  1  0  0  0  0
  6 11  1  0  0  0  0
  6 20  1  0  0  0  0
  7 12  1  0  0  0  0
  7 20  1  0  0  0  0
  7 24  1  0  0  0  0
  8 10  1  0  0  0  0
  9 11  1  0  0  0  0
 12 25  1  0  0  0  0
 13 15  1  0  0  0  0
 13 19  2  0  0  0  0
 14 16  1  0  0  0  0
 14 22  2  0  0  0  0
 15 23  2  0  0  0  0
 16 25  2  0  0  0  0
 17 19  1  0  0  0  0
 17 24  2  0  0  0  0
 18 21  2  0  0  0  0
 18 25  1  0  0  0  0
 21 22  1  0  0  0  0
 23 24  1  0  0  0  0
  4 26  1  0  0  0  0
  8 27  1  0  0  0  0
  8 28  1  0  0  0  0
  9 29  1  0  0  0  0
  9 30  1  0  0  0  0
 10 31  1  0  0  0  0
 10 32  1  0  0  0  0
 11 33  1  0  0  0  0
 11 34  1  0  0  0  0
 12 35  1  0  0  0  0
 12 36  1  0  0  0  0
 13 37  1  0  0  0  0
 14 38  1  0  0  0  0
 15 39  1  0  0  0  0
 16 40  1  0  0  0  0
 17 41  1  0  0  0  0
 18 42  1  0  0  0  0
M  END
> <pdb_id>
6D5L

> <uniprot_id>
Q07889

> <usmiles>
Clc1c(F)ccc(c1)CN2c3c(N=C2N4CCNCC4)ccc(Cl)c3

$$$$
FWM_A_402
          07212402413D 1   1.00000     0.00000     0
            
 55 58  0  0  0  0            999 V2000
  130.7810   16.8130    5.9360 S   0  0  0  0  0  0  0  0  0  0  0  0
  131.4910   17.9000    6.5710 O   0  0  0  0  0  0  0  0  0  0  0  0
  130.1800   16.0880    7.0580 O   0  0  0  0  0  0  0  0  0  0  0  0
  134.6870   12.1060    3.6720 O   0  0  0  0  0  0  0  0  0  0  0  0
  130.1970   20.6000    2.1160 N   0  0  0  0  0  0  0  0  0  0  0  0
  131.9020   15.8480    5.0930 N   0  0  0  0  0  0  0  0  0  0  0  0
  133.9790   14.0870    4.4020 N   0  0  0  0  0  0  0  0  0  0  0  0
  131.2000   20.1960    2.9490 C   0  0  0  0  0  0  0  0  0  0  0  0
  128.9610   19.9700    2.1290 C   0  0  0  0  0  0  0  0  0  0  0  0
  131.6270   14.4090    5.1060 C   0  0  0  0  0  0  0  0  0  0  0  0
  133.2610   16.2140    5.3450 C   0  0  0  0  0  0  0  0  0  0  0  0
  132.8270   13.5230    4.9640 C   0  0  0  0  0  0  0  0  0  0  0  0
  134.2200   15.4940    4.4800 C   0  0  0  0  0  0  0  0  0  0  0  0
  136.1240   14.2260   -1.1230 C   0  0  0  0  0  0  0  0  0  0  0  0
  134.7410   14.3210   -0.4600 C   0  0  0  0  0  0  0  0  0  0  0  0
  137.1400   15.0820   -0.4070 C   0  0  0  0  0  0  0  0  0  0  0  0
  127.1990   17.1820    3.9330 C   0  0  0  0  0  0  0  0  0  0  0  0
  131.0000   19.1230    3.8460 C   0  0  0  0  0  0  0  0  0  0  0  0
  128.2270   16.7480    4.8220 C   0  0  0  0  0  0  0  0  0  0  0  0
  134.8010   14.2060    1.0630 C   0  0  0  0  0  0  0  0  0  0  0  0
  137.3300   14.6760    1.0520 C   0  0  0  0  0  0  0  0  0  0  0  0
  127.4330   18.2260    3.0670 C   0  0  0  0  0  0  0  0  0  0  0  0
  136.1710   13.9220    3.1150 C   0  0  0  0  0  0  0  0  0  0  0  0
  134.8970   13.2740    3.7380 C   0  0  0  0  0  0  0  0  0  0  0  0
  129.4820   17.3880    4.7980 C   0  0  0  0  0  0  0  0  0  0  0  0
  136.1710   13.8270    1.6020 C   0  0  0  0  0  0  0  0  0  0  0  0
  128.7280   18.8870    3.0420 C   0  0  0  0  0  0  0  0  0  0  0  0
  129.7350   18.4620    3.8970 C   0  0  0  0  0  0  0  0  0  0  0  0
  132.0837   20.6634    2.9241 H   0  0  0  0  0  0  0  0  0  0  0  0
  128.2374   20.2683    1.5066 H   0  0  0  0  0  0  0  0  0  0  0  0
  131.0037   14.2074    4.3504 H   0  0  0  0  0  0  0  0  0  0  0  0
  131.1815   14.1880    5.9736 H   0  0  0  0  0  0  0  0  0  0  0  0
  133.4753   16.0079    6.2998 H   0  0  0  0  0  0  0  0  0  0  0  0
  133.3620   17.1960    5.1852 H   0  0  0  0  0  0  0  0  0  0  0  0
  133.0680   13.1951    5.8774 H   0  0  0  0  0  0  0  0  0  0  0  0
  132.5618   12.7477    4.3908 H   0  0  0  0  0  0  0  0  0  0  0  0
  134.1617   15.8759    3.5577 H   0  0  0  0  0  0  0  0  0  0  0  0
  135.1410   15.6370    4.8424 H   0  0  0  0  0  0  0  0  0  0  0  0
  136.0513   14.5330   -2.0719 H   0  0  0  0  0  0  0  0  0  0  0  0
  136.4293   13.2739   -1.1031 H   0  0  0  0  0  0  0  0  0  0  0  0
  134.1667   13.5825   -0.8132 H   0  0  0  0  0  0  0  0  0  0  0  0
  134.3335   15.2028   -0.6974 H   0  0  0  0  0  0  0  0  0  0  0  0
  136.8343   16.0337   -0.4369 H   0  0  0  0  0  0  0  0  0  0  0  0
  138.0177   14.9988   -0.8790 H   0  0  0  0  0  0  0  0  0  0  0  0
  126.3082   16.7276    3.9390 H   0  0  0  0  0  0  0  0  0  0  0  0
  131.7438   18.8265    4.4450 H   0  0  0  0  0  0  0  0  0  0  0  0
  128.0580   15.9948    5.4577 H   0  0  0  0  0  0  0  0  0  0  0  0
  134.1456   13.5079    1.3515 H   0  0  0  0  0  0  0  0  0  0  0  0
  134.5421   15.0887    1.4553 H   0  0  0  0  0  0  0  0  0  0  0  0
  137.4064   15.5056    1.6052 H   0  0  0  0  0  0  0  0  0  0  0  0
  138.1750   14.1465    1.1269 H   0  0  0  0  0  0  0  0  0  0  0  0
  126.7074   18.5321    2.4507 H   0  0  0  0  0  0  0  0  0  0  0  0
  136.9792   13.4510    3.4685 H   0  0  0  0  0  0  0  0  0  0  0  0
  136.2052   14.8861    3.3784 H   0  0  0  0  0  0  0  0  0  0  0  0
  136.3449   12.8738    1.3546 H   0  0  0  0  0  0  0  0  0  0  0  0
  1  2  2  0  0  0  0
  1  3  2  0  0  0  0
  1  6  1  0  0  0  0
  1 25  1  0  0  0  0
  4 24  2  0  0  0  0
  5  8  2  0  0  0  0
  5  9  1  0  0  0  0
  6 10  1  0  0  0  0
  6 11  1  0  0  0  0
  7 12  1  0  0  0  0
  7 13  1  0  0  0  0
  7 24  1  0  0  0  0
  8 18  1  0  0  0  0
  9 27  2  0  0  0  0
 10 12  1  0  0  0  0
 11 13  1  0  0  0  0
 14 15  1  0  0  0  0
 14 16  1  0  0  0  0
 15 20  1  0  0  0  0
 16 21  1  0  0  0  0
 17 19  1  0  0  0  0
 17 22  2  0  0  0  0
 18 28  2  0  0  0  0
 19 25  2  0  0  0  0
 20 26  1  0  0  0  0
 21 26  1  0  0  0  0
 22 27  1  0  0  0  0
 23 24  1  0  0  0  0
 23 26  1  0  0  0  0
 25 28  1  0  0  0  0
 27 28  1  0  0  0  0
  8 29  1  0  0  0  0
  9 30  1  0  0  0  0
 10 31  1  0  0  0  0
 10 32  1  0  0  0  0
 11 33  1  0  0  0  0
 11 34  1  0  0  0  0
 12 35  1  0  0  0  0
 12 36  1  0  0  0  0
 13 37  1  0  0  0  0
 13 38  1  0  0  0  0
 14 39  1  0  0  0  0
 14 40  1  0  0  0  0
 15 41  1  0  0  0  0
 15 42  1  0  0  0  0
 16 43  1  0  0  0  0
 16 44  1  0  0  0  0
 17 45  1  0  0  0  0
 18 46  1  0  0  0  0
 19 47  1  0  0  0  0
 20 48  1  0  0  0  0
 20 49  1  0  0  0  0
 21 50  1  0  0  0  0
 21 51  1  0  0  0  0
 22 52  1  0  0  0  0
 23 53  1  0  0  0  0
 23 54  1  0  0  0  0
 26 55  1  0  0  0  0
M  END
> <pdb_id>
6D4V

> <uniprot_id>
G7CNL4

> <usmiles>
S(=O)(=O)(N1CCN(C(=O)CC2CCCCC2)CC1)c3c4c(cncc4)ccc3

$$$$
FX5_A_1501
          07202416373D 1   1.00000     0.00000     0
            
 38 40  0  0  0  0            999 V2000
   -5.2681   -2.6942   23.8446 O   0  0  0  0  0  0  0  0  0  0  0  0
  -10.9615   -4.2488   25.0436 N   0  0  0  0  0  0  0  0  0  0  0  0
   -8.7655   -3.7726   24.6018 N   0  0  0  0  0  0  0  0  0  0  0  0
   -7.7778   -3.0364   24.0242 N   0  0  0  0  0  0  0  0  0  0  0  0
  -14.5029   -1.0497   23.5617 N   0  3  0  0  0  0  0  0  0  0  0  0
  -11.7989   -1.9377   23.6904 N   0  0  0  0  0  0  0  0  0  0  0  0
   -4.6606    0.2447   21.8080 C   0  0  0  0  0  0  0  0  0  0  0  0
   -5.9415    0.7162   21.5933 C   0  0  0  0  0  0  0  0  0  0  0  0
   -4.4609   -0.8983   22.5592 C   0  0  0  0  0  0  0  0  0  0  0  0
   -7.0381    0.0359   22.1189 C   0  0  0  0  0  0  0  0  0  0  0  0
   -9.3779   -1.4189   23.2849 C   0  0  0  0  0  0  0  0  0  0  0  0
  -14.0026   -1.8327   24.7220 C   0  0  0  0  0  0  0  0  0  0  0  0
  -13.7522   -1.3815   22.3184 C   0  0  0  0  0  0  0  0  0  0  0  0
  -12.5244   -1.5799   24.9104 C   0  0  0  0  0  0  0  0  0  0  0  0
  -12.2645   -1.1806   22.5270 C   0  0  0  0  0  0  0  0  0  0  0  0
  -10.0523   -3.3973   24.5239 C   0  0  0  0  0  0  0  0  0  0  0  0
   -5.5585   -1.5880   23.0952 C   0  0  0  0  0  0  0  0  0  0  0  0
   -8.0545   -1.8749   23.4090 C   0  0  0  0  0  0  0  0  0  0  0  0
  -10.3955   -2.2023   23.8429 C   0  0  0  0  0  0  0  0  0  0  0  0
   -6.8720   -1.1354   22.8738 C   0  0  0  0  0  0  0  0  0  0  0  0
   -5.9371   -3.4159   23.7198 H   0  0  0  0  0  0  0  0  0  0  0  0
  -10.6562   -5.0606   25.5698 H   0  0  0  0  0  0  0  0  0  0  0  0
  -11.9670   -4.1465   24.9536 H   0  0  0  0  0  0  0  0  0  0  0  0
  -14.4097   -0.0586   23.7610 H   0  0  0  0  0  0  0  0  0  0  0  0
  -15.4936   -1.2282   23.4272 H   0  0  0  0  0  0  0  0  0  0  0  0
   -3.8079    0.7618   21.3726 H   0  0  0  0  0  0  0  0  0  0  0  0
   -6.0971    1.6291   21.0193 H   0  0  0  0  0  0  0  0  0  0  0  0
   -3.4546   -1.2703   22.7452 H   0  0  0  0  0  0  0  0  0  0  0  0
   -8.0171    0.4721   21.9357 H   0  0  0  0  0  0  0  0  0  0  0  0
   -9.6092   -0.4768   22.7907 H   0  0  0  0  0  0  0  0  0  0  0  0
  -14.5628   -1.5681   25.6183 H   0  0  0  0  0  0  0  0  0  0  0  0
  -14.1930   -2.8924   24.5646 H   0  0  0  0  0  0  0  0  0  0  0  0
  -14.1101   -0.7733   21.4884 H   0  0  0  0  0  0  0  0  0  0  0  0
  -13.9694   -2.4082   22.0266 H   0  0  0  0  0  0  0  0  0  0  0  0
  -12.1812   -2.0482   25.8319 H   0  0  0  0  0  0  0  0  0  0  0  0
  -12.3641   -0.5153   25.0674 H   0  0  0  0  0  0  0  0  0  0  0  0
  -11.7209   -1.4311   21.6250 H   0  0  0  0  0  0  0  0  0  0  0  0
  -12.0601   -0.1218   22.6767 H   0  0  0  0  0  0  0  0  0  0  0  0
  1 17  1  0  0  0  0
  1 21  1  0  0  0  0
  2 16  1  0  0  0  0
  2 22  1  0  0  0  0
  2 23  1  0  0  0  0
  3  4  1  0  0  0  0
  3 16  2  0  0  0  0
  4 18  2  0  0  0  0
  5 12  1  0  0  0  0
  5 13  1  0  0  0  0
  5 24  1  0  0  0  0
  5 25  1  0  0  0  0
  6 14  1  0  0  0  0
  6 15  1  0  0  0  0
  6 19  1  0  0  0  0
  7  8  2  0  0  0  0
  7  9  1  0  0  0  0
  7 26  1  0  0  0  0
  8 10  1  0  0  0  0
  8 27  1  0  0  0  0
  9 17  2  0  0  0  0
  9 28  1  0  0  0  0
 10 20  2  0  0  0  0
 10 29  1  0  0  0  0
 11 18  1  0  0  0  0
 11 19  2  0  0  0  0
 11 30  1  0  0  0  0
 12 14  1  0  0  0  0
 12 31  1  0  0  0  0
 12 32  1  0  0  0  0
 13 15  1  0  0  0  0
 13 33  1  0  0  0  0
 13 34  1  0  0  0  0
 14 35  1  0  0  0  0
 14 36  1  0  0  0  0
 15 37  1  0  0  0  0
 15 38  1  0  0  0  0
 16 19  1  0  0  0  0
 17 20  1  0  0  0  0
 18 20  1  0  0  0  0
M  CHG  1   5   1
M  END
> <pdb_id>
6HAZ

> <uniprot_id>
P51531

> <usmiles>
Oc1c(c2nnc(N)c(N3CC[NH2+]CC3)c2)cccc1

$$$$
FXE_C_1248
          07192422433D 1   1.00000     0.00000     0
            
 42 44  0  0  0  0            999 V2000
    2.5517  173.4652   36.1571 O   0  0  0  0  0  0  0  0  0  0  0  0
   -1.5056  173.0313   33.7971 O   0  0  0  0  0  0  0  0  0  0  0  0
    4.5734  176.9206   34.0846 O   0  0  0  0  0  0  0  0  0  0  0  0
    0.7685  175.5843   33.1954 N   0  0  0  0  0  0  0  0  0  0  0  0
    2.5891  175.0982   34.6450 N   0  0  0  0  0  0  0  0  0  0  0  0
    0.8666  173.5663   34.6773 N   0  0  0  0  0  0  0  0  0  0  0  0
    0.5356  176.4103   32.2977 N   0  0  0  0  0  0  0  0  0  0  0  0
   -2.0672  174.2531   34.1755 C   0  0  0  0  0  0  0  0  0  0  0  0
    5.9290  177.3741   33.9547 C   0  0  0  0  0  0  0  0  0  0  0  0
   -0.7307  176.4918   31.4973 C   0  0  0  0  0  0  0  0  0  0  0  0
   -1.2347  170.4912   36.4277 C   0  0  0  0  0  0  0  0  0  0  0  0
    0.0333  170.7660   36.9042 C   0  0  0  0  0  0  0  0  0  0  0  0
    3.0558  178.9542   31.4265 C   0  0  0  0  0  0  0  0  0  0  0  0
   -1.7603  171.2605   35.4045 C   0  0  0  0  0  0  0  0  0  0  0  0
    4.0251  178.5299   32.3324 C   0  0  0  0  0  0  0  0  0  0  0  0
    0.8145  171.7767   36.3296 C   0  0  0  0  0  0  0  0  0  0  0  0
    1.8421  178.2593   31.3576 C   0  0  0  0  0  0  0  0  0  0  0  0
    1.9989  174.0416   35.2012 C   0  0  0  0  0  0  0  0  0  0  0  0
    2.0184  175.7917   33.6591 C   0  0  0  0  0  0  0  0  0  0  0  0
   -1.0135  172.2925   34.8508 C   0  0  0  0  0  0  0  0  0  0  0  0
    3.7183  177.4472   33.1531 C   0  0  0  0  0  0  0  0  0  0  0  0
    0.2795  172.5336   35.2738 C   0  0  0  0  0  0  0  0  0  0  0  0
    1.6109  177.2217   32.1693 C   0  0  0  0  0  0  0  0  0  0  0  0
    2.5333  176.8357   33.0458 C   0  0  0  0  0  0  0  0  0  0  0  0
    3.4890  175.3806   34.9774 H   0  0  0  0  0  0  0  0  0  0  0  0
    0.4699  173.9771   33.8563 H   0  0  0  0  0  0  0  0  0  0  0  0
   -2.4015  174.7320   33.3638 H   0  0  0  0  0  0  0  0  0  0  0  0
   -2.8284  174.0899   34.8033 H   0  0  0  0  0  0  0  0  0  0  0  0
   -1.3740  174.8121   34.6304 H   0  0  0  0  0  0  0  0  0  0  0  0
    6.4918  176.9501   34.6643 H   0  0  0  0  0  0  0  0  0  0  0  0
    6.2807  177.1197   33.0539 H   0  0  0  0  0  0  0  0  0  0  0  0
    5.9588  178.3686   34.0555 H   0  0  0  0  0  0  0  0  0  0  0  0
   -0.6625  177.2432   30.8410 H   0  0  0  0  0  0  0  0  0  0  0  0
   -0.8706  175.6319   31.0063 H   0  0  0  0  0  0  0  0  0  0  0  0
   -1.5031  176.6546   32.1112 H   0  0  0  0  0  0  0  0  0  0  0  0
   -1.7685  169.7419   36.8195 H   0  0  0  0  0  0  0  0  0  0  0  0
    0.3980  170.2358   37.6696 H   0  0  0  0  0  0  0  0  0  0  0  0
    3.2240  179.7425   30.8346 H   0  0  0  0  0  0  0  0  0  0  0  0
   -2.6811  171.0728   35.0625 H   0  0  0  0  0  0  0  0  0  0  0  0
    4.9122  178.9877   32.3916 H   0  0  0  0  0  0  0  0  0  0  0  0
    1.7389  171.9569   36.6658 H   0  0  0  0  0  0  0  0  0  0  0  0
    1.1447  178.5402   30.6983 H   0  0  0  0  0  0  0  0  0  0  0  0
  1 18  2  0  0  0  0
  2  8  1  0  0  0  0
  2 20  1  0  0  0  0
  3  9  1  0  0  0  0
  3 21  1  0  0  0  0
  4  7  1  0  0  0  0
  4 19  2  0  0  0  0
  5 18  1  0  0  0  0
  5 19  1  0  0  0  0
  6 18  1  0  0  0  0
  6 22  1  0  0  0  0
  7 10  1  0  0  0  0
  7 23  1  0  0  0  0
 11 12  2  0  0  0  0
 11 14  1  0  0  0  0
 12 16  1  0  0  0  0
 13 15  2  0  0  0  0
 13 17  1  0  0  0  0
 14 20  2  0  0  0  0
 15 21  1  0  0  0  0
 16 22  2  0  0  0  0
 17 23  2  0  0  0  0
 19 24  1  0  0  0  0
 20 22  1  0  0  0  0
 21 24  2  0  0  0  0
 23 24  1  0  0  0  0
  5 25  1  0  0  0  0
  6 26  1  0  0  0  0
  8 27  1  0  0  0  0
  8 28  1  0  0  0  0
  8 29  1  0  0  0  0
  9 30  1  0  0  0  0
  9 31  1  0  0  0  0
  9 32  1  0  0  0  0
 10 33  1  0  0  0  0
 10 34  1  0  0  0  0
 10 35  1  0  0  0  0
 11 36  1  0  0  0  0
 12 37  1  0  0  0  0
 13 38  1  0  0  0  0
 14 39  1  0  0  0  0
 15 40  1  0  0  0  0
 16 41  1  0  0  0  0
 17 42  1  0  0  0  0
M  END
> <pdb_id>
4BO0

> <uniprot_id>
O54438

> <usmiles>
O=C(Nc1c(OC)cccc1)NC2=NN(c3c2c(OC)ccc3)C

$$$$
FXW_B_301
          07202410523D 1   1.00000     0.00000     0
            
 58 63  0  0  0  0            999 V2000
   79.4037   43.4312   43.5307 S   0  0  0  0  0  0  0  0  0  0  0  0
   72.7986   49.0011   43.9582 S   0  0  0  0  0  0  0  0  0  0  0  0
   80.8475   43.3838   43.3333 O   0  0  0  0  0  0  0  0  0  0  0  0
   78.9135   43.9816   44.7967 O   0  0  0  0  0  0  0  0  0  0  0  0
   73.3216   48.3377   45.1592 O   0  0  0  0  0  0  0  0  0  0  0  0
   71.3428   49.0903   43.8882 O   0  0  0  0  0  0  0  0  0  0  0  0
   78.9865   41.9643   43.4839 N   0  0  0  0  0  0  0  0  0  0  0  0
   73.2432   50.4492   44.0293 N   0  0  0  0  0  0  0  0  0  0  0  0
   78.1576   42.0657   41.1872 N   0  0  0  0  0  0  0  0  0  0  0  0
   73.9172   50.5213   41.6709 N   0  0  0  0  0  0  0  0  0  0  0  0
   78.5996   45.7652   42.2242 C   0  0  0  0  0  0  0  0  0  0  0  0
   73.4691   46.7997   42.4380 C   0  0  0  0  0  0  0  0  0  0  0  0
   77.9604   46.4647   41.1754 C   0  0  0  0  0  0  0  0  0  0  0  0
   73.9726   46.1706   41.3834 C   0  0  0  0  0  0  0  0  0  0  0  0
   77.4103   44.3230   40.0638 C   0  0  0  0  0  0  0  0  0  0  0  0
   74.6081   48.3801   40.2183 C   0  0  0  0  0  0  0  0  0  0  0  0
   78.8144   41.4343   42.3063 C   0  0  0  0  0  0  0  0  0  0  0  0
   73.4102   51.0722   42.9026 C   0  0  0  0  0  0  0  0  0  0  0  0
   76.6585   46.4571   38.9246 C   0  0  0  0  0  0  0  0  0  0  0  0
   75.1396   46.1433   39.0452 C   0  0  0  0  0  0  0  0  0  0  0  0
   76.0566   41.2092   39.6427 C   0  0  0  0  0  0  0  0  0  0  0  0
   76.7310   39.9969   40.2463 C   0  0  0  0  0  0  0  0  0  0  0  0
   75.8661   51.5174   40.0337 C   0  0  0  0  0  0  0  0  0  0  0  0
   75.2180   52.6975   40.7015 C   0  0  0  0  0  0  0  0  0  0  0  0
   78.6487   44.4112   42.2145 C   0  0  0  0  0  0  0  0  0  0  0  0
   73.4424   48.0746   42.5270 C   0  0  0  0  0  0  0  0  0  0  0  0
   78.0118   43.6470   41.0801 C   0  0  0  0  0  0  0  0  0  0  0  0
   74.0066   48.9310   41.4239 C   0  0  0  0  0  0  0  0  0  0  0  0
   77.3760   45.7303   40.0706 C   0  0  0  0  0  0  0  0  0  0  0  0
   74.5506   46.8813   40.2698 C   0  0  0  0  0  0  0  0  0  0  0  0
   77.5248   41.3082   40.1124 C   0  0  0  0  0  0  0  0  0  0  0  0
   74.4396   51.3676   40.6104 C   0  0  0  0  0  0  0  0  0  0  0  0
   78.8683   41.5030   44.2102 H   0  0  0  0  0  0  0  0  0  0  0  0
   73.3800   50.8434   44.7901 H   0  0  0  0  0  0  0  0  0  0  0  0
   78.9728   46.2351   42.9330 H   0  0  0  0  0  0  0  0  0  0  0  0
   73.1233   46.2956   43.1369 H   0  0  0  0  0  0  0  0  0  0  0  0
   77.9305   47.3925   41.1849 H   0  0  0  0  0  0  0  0  0  0  0  0
   73.9713   45.2410   41.3714 H   0  0  0  0  0  0  0  0  0  0  0  0
   77.0293   43.8539   39.3575 H   0  0  0  0  0  0  0  0  0  0  0  0
   74.9527   48.8785   39.5150 H   0  0  0  0  0  0  0  0  0  0  0  0
   79.6772   41.2260   42.0009 H   0  0  0  0  0  0  0  0  0  0  0  0
   78.3327   40.6425   42.4601 H   0  0  0  0  0  0  0  0  0  0  0  0
   72.5609   51.4091   42.6856 H   0  0  0  0  0  0  0  0  0  0  0  0
   73.9877   51.7846   43.1045 H   0  0  0  0  0  0  0  0  0  0  0  0
   76.9828   46.1483   38.0987 H   0  0  0  0  0  0  0  0  0  0  0  0
   76.7991   47.3822   38.9962 H   0  0  0  0  0  0  0  0  0  0  0  0
   75.0192   45.2173   39.1501 H   0  0  0  0  0  0  0  0  0  0  0  0
   74.6987   46.4286   38.2669 H   0  0  0  0  0  0  0  0  0  0  0  0
   75.4252   41.6359   40.1910 H   0  0  0  0  0  0  0  0  0  0  0  0
   75.9301   41.1804   38.7124 H   0  0  0  0  0  0  0  0  0  0  0  0
   76.4596   39.7748   41.1177 H   0  0  0  0  0  0  0  0  0  0  0  0
   76.9635   39.3192   39.6391 H   0  0  0  0  0  0  0  0  0  0  0  0
   75.9214   51.5621   39.0973 H   0  0  0  0  0  0  0  0  0  0  0  0
   76.5477   51.0985   40.5255 H   0  0  0  0  0  0  0  0  0  0  0  0
   74.9248   53.3780   40.1243 H   0  0  0  0  0  0  0  0  0  0  0  0
   75.5511   52.9134   41.5524 H   0  0  0  0  0  0  0  0  0  0  0  0
   78.0982   41.2536   39.3715 H   0  0  0  0  0  0  0  0  0  0  0  0
   73.8152   51.4217   39.9110 H   0  0  0  0  0  0  0  0  0  0  0  0
  1  3  2  0  0  0  0
  1  4  2  0  0  0  0
  1  7  1  0  0  0  0
  1 25  1  0  0  0  0
  2  5  2  0  0  0  0
  2  6  2  0  0  0  0
  2  8  1  0  0  0  0
  2 26  1  0  0  0  0
  7 17  1  0  0  0  0
  7 33  1  0  0  0  0
  8 18  1  0  0  0  0
  8 34  1  0  0  0  0
  9 17  1  0  0  0  0
  9 27  1  0  0  0  0
  9 31  1  0  0  0  0
 10 18  1  0  0  0  0
 10 28  1  0  0  0  0
 10 32  1  0  0  0  0
 11 13  1  0  0  0  0
 11 25  2  0  0  0  0
 11 35  1  0  0  0  0
 12 14  1  0  0  0  0
 12 26  2  0  0  0  0
 12 36  1  0  0  0  0
 13 29  2  0  0  0  0
 13 37  1  0  0  0  0
 14 30  2  0  0  0  0
 14 38  1  0  0  0  0
 15 27  2  0  0  0  0
 15 29  1  0  0  0  0
 15 39  1  0  0  0  0
 16 28  2  0  0  0  0
 16 30  1  0  0  0  0
 16 40  1  0  0  0  0
 17 41  1  0  0  0  0
 17 42  1  0  0  0  0
 18 43  1  0  0  0  0
 18 44  1  0  0  0  0
 19 20  1  0  0  0  0
 19 29  1  0  0  0  0
 19 45  1  0  0  0  0
 19 46  1  0  0  0  0
 20 30  1  0  0  0  0
 20 47  1  0  0  0  0
 20 48  1  0  0  0  0
 21 22  1  0  0  0  0
 21 31  1  0  0  0  0
 21 49  1  0  0  0  0
 21 50  1  0  0  0  0
 22 31  1  0  0  0  0
 22 51  1  0  0  0  0
 22 52  1  0  0  0  0
 23 24  1  0  0  0  0
 23 32  1  0  0  0  0
 23 53  1  0  0  0  0
 23 54  1  0  0  0  0
 24 32  1  0  0  0  0
 24 55  1  0  0  0  0
 24 56  1  0  0  0  0
 25 27  1  0  0  0  0
 26 28  1  0  0  0  0
 31 57  1  0  0  0  0
 32 58  1  0  0  0  0
M  END
> <pdb_id>
6HCA

> <uniprot_id>
P19491

> <usmiles>
S1(=O)(=O)NCN(c2c1ccc(c2)CCc3cc4N(C5CC5)CNS(=O)(=O)c4cc3)C6CC6

$$$$
FXW_B_313
          07202410513D 1   1.00000     0.00000     0
            
 58 63  0  0  0  0            999 V2000
   33.9940  167.3613  -30.5596 S   0  0  0  0  0  0  0  0  0  0  0  0
   25.1715  165.7454  -30.6722 S   0  0  0  0  0  0  0  0  0  0  0  0
   35.1543  166.4879  -30.3614 O   0  0  0  0  0  0  0  0  0  0  0  0
   33.2649  167.2226  -31.8235 O   0  0  0  0  0  0  0  0  0  0  0  0
   23.9426  166.5106  -30.4509 O   0  0  0  0  0  0  0  0  0  0  0  0
   25.9063  165.9945  -31.9149 O   0  0  0  0  0  0  0  0  0  0  0  0
   34.5458  168.7819  -30.5208 N   0  0  0  0  0  0  0  0  0  0  0  0
   24.7298  164.2869  -30.7217 N   0  0  0  0  0  0  0  0  0  0  0  0
   33.6272  169.2546  -28.2534 N   0  0  0  0  0  0  0  0  0  0  0  0
   25.4687  163.8296  -28.3937 N   0  0  0  0  0  0  0  0  0  0  0  0
   32.0934  165.7697  -29.2428 C   0  0  0  0  0  0  0  0  0  0  0  0
   26.9336  167.2800  -29.2708 C   0  0  0  0  0  0  0  0  0  0  0  0
   31.1912  165.4885  -28.1771 C   0  0  0  0  0  0  0  0  0  0  0  0
   27.7410  167.5982  -28.2733 C   0  0  0  0  0  0  0  0  0  0  0  0
   31.8170  167.6355  -27.0912 C   0  0  0  0  0  0  0  0  0  0  0  0
   27.2271  165.3958  -27.0247 C   0  0  0  0  0  0  0  0  0  0  0  0
   34.4673  169.4644  -29.4208 C   0  0  0  0  0  0  0  0  0  0  0  0
   24.7343  163.5993  -29.6261 C   0  0  0  0  0  0  0  0  0  0  0  0
   30.0777  166.1474  -25.9232 C   0  0  0  0  0  0  0  0  0  0  0  0
   28.8914  167.1507  -25.9975 C   0  0  0  0  0  0  0  0  0  0  0  0
   33.5045  171.8255  -27.2268 C   0  0  0  0  0  0  0  0  0  0  0  0
   32.3089  171.0816  -26.7066 C   0  0  0  0  0  0  0  0  0  0  0  0
   26.7641  161.9620  -26.8338 C   0  0  0  0  0  0  0  0  0  0  0  0
   25.6328  161.2432  -27.5048 C   0  0  0  0  0  0  0  0  0  0  0  0
   32.8246  166.9289  -29.2448 C   0  0  0  0  0  0  0  0  0  0  0  0
   26.2808  166.1894  -29.3049 C   0  0  0  0  0  0  0  0  0  0  0  0
   32.6868  167.9299  -28.1089 C   0  0  0  0  0  0  0  0  0  0  0  0
   26.3741  165.1703  -28.1871 C   0  0  0  0  0  0  0  0  0  0  0  0
   31.0548  166.4333  -27.0911 C   0  0  0  0  0  0  0  0  0  0  0  0
   27.9352  166.7290  -27.1431 C   0  0  0  0  0  0  0  0  0  0  0  0
   33.5432  170.2749  -27.2017 C   0  0  0  0  0  0  0  0  0  0  0  0
   25.5587  162.7870  -27.3633 C   0  0  0  0  0  0  0  0  0  0  0  0
   34.9089  169.1309  -31.2279 H   0  0  0  0  0  0  0  0  0  0  0  0
   24.4803  163.9255  -31.4701 H   0  0  0  0  0  0  0  0  0  0  0  0
   32.1844  165.1654  -29.9423 H   0  0  0  0  0  0  0  0  0  0  0  0
   26.8448  167.8751  -29.9796 H   0  0  0  0  0  0  0  0  0  0  0  0
   30.6961  164.7024  -28.1797 H   0  0  0  0  0  0  0  0  0  0  0  0
   28.1953  168.4079  -28.3016 H   0  0  0  0  0  0  0  0  0  0  0  0
   31.7179  168.2367  -26.3898 H   0  0  0  0  0  0  0  0  0  0  0  0
   27.3239  164.8037  -26.3148 H   0  0  0  0  0  0  0  0  0  0  0  0
   34.2578  170.3353  -29.7039 H   0  0  0  0  0  0  0  0  0  0  0  0
   35.3424  169.4557  -29.0813 H   0  0  0  0  0  0  0  0  0  0  0  0
   24.9946  162.7377  -29.8935 H   0  0  0  0  0  0  0  0  0  0  0  0
   23.8340  163.5798  -29.3602 H   0  0  0  0  0  0  0  0  0  0  0  0
   30.5267  166.2516  -25.1054 H   0  0  0  0  0  0  0  0  0  0  0  0
   29.7522  165.2695  -25.9929 H   0  0  0  0  0  0  0  0  0  0  0  0
   28.4263  167.1459  -25.1814 H   0  0  0  0  0  0  0  0  0  0  0  0
   29.2209  168.0137  -26.1651 H   0  0  0  0  0  0  0  0  0  0  0  0
   33.4009  172.2130  -28.0763 H   0  0  0  0  0  0  0  0  0  0  0  0
   34.0289  172.2536  -26.5759 H   0  0  0  0  0  0  0  0  0  0  0  0
   31.5628  171.0671  -27.2764 H   0  0  0  0  0  0  0  0  0  0  0  0
   32.1899  171.1078  -25.7760 H   0  0  0  0  0  0  0  0  0  0  0  0
   27.5535  162.0316  -27.3379 H   0  0  0  0  0  0  0  0  0  0  0  0
   26.8091  161.8642  -25.9009 H   0  0  0  0  0  0  0  0  0  0  0  0
   25.8113  160.9237  -28.3689 H   0  0  0  0  0  0  0  0  0  0  0  0
   25.0678  160.7574  -26.9328 H   0  0  0  0  0  0  0  0  0  0  0  0
   34.0428  169.9943  -26.4579 H   0  0  0  0  0  0  0  0  0  0  0  0
   24.9945  163.0038  -26.6444 H   0  0  0  0  0  0  0  0  0  0  0  0
  1  3  2  0  0  0  0
  1  4  2  0  0  0  0
  1  7  1  0  0  0  0
  1 25  1  0  0  0  0
  2  5  2  0  0  0  0
  2  6  2  0  0  0  0
  2  8  1  0  0  0  0
  2 26  1  0  0  0  0
  7 17  1  0  0  0  0
  7 33  1  0  0  0  0
  8 18  1  0  0  0  0
  8 34  1  0  0  0  0
  9 17  1  0  0  0  0
  9 27  1  0  0  0  0
  9 31  1  0  0  0  0
 10 18  1  0  0  0  0
 10 28  1  0  0  0  0
 10 32  1  0  0  0  0
 11 13  1  0  0  0  0
 11 25  2  0  0  0  0
 11 35  1  0  0  0  0
 12 14  1  0  0  0  0
 12 26  2  0  0  0  0
 12 36  1  0  0  0  0
 13 29  2  0  0  0  0
 13 37  1  0  0  0  0
 14 30  2  0  0  0  0
 14 38  1  0  0  0  0
 15 27  2  0  0  0  0
 15 29  1  0  0  0  0
 15 39  1  0  0  0  0
 16 28  2  0  0  0  0
 16 30  1  0  0  0  0
 16 40  1  0  0  0  0
 17 41  1  0  0  0  0
 17 42  1  0  0  0  0
 18 43  1  0  0  0  0
 18 44  1  0  0  0  0
 19 20  1  0  0  0  0
 19 29  1  0  0  0  0
 19 45  1  0  0  0  0
 19 46  1  0  0  0  0
 20 30  1  0  0  0  0
 20 47  1  0  0  0  0
 20 48  1  0  0  0  0
 21 22  1  0  0  0  0
 21 31  1  0  0  0  0
 21 49  1  0  0  0  0
 21 50  1  0  0  0  0
 22 31  1  0  0  0  0
 22 51  1  0  0  0  0
 22 52  1  0  0  0  0
 23 24  1  0  0  0  0
 23 32  1  0  0  0  0
 23 53  1  0  0  0  0
 23 54  1  0  0  0  0
 24 32  1  0  0  0  0
 24 55  1  0  0  0  0
 24 56  1  0  0  0  0
 25 27  1  0  0  0  0
 26 28  1  0  0  0  0
 31 57  1  0  0  0  0
 32 58  1  0  0  0  0
M  END
> <pdb_id>
6HC9

> <uniprot_id>
P19491

> <usmiles>
S1(=O)(=O)NCN(c2c1ccc(c2)CCc3cc4N(C5CC5)CNS(=O)(=O)c4cc3)C6CC6

$$$$
FXX_D_301
          07202407423D 1   1.00000     0.00000     0
            
 31 31  0  0  0  0            999 V2000
   26.6161  -15.7661   -5.4300 F   0  0  0  0  0  0  0  0  0  0  0  0
   26.0277  -16.6699   -3.5212 F   0  0  0  0  0  0  0  0  0  0  0  0
   27.9156  -15.4808   -3.7562 F   0  0  0  0  0  0  0  0  0  0  0  0
   24.8806   -8.6116   -9.8085 O   0  0  0  0  0  0  0  0  0  0  0  0
   24.1312   -9.8649  -11.3930 O   0  0  0  0  0  0  0  0  0  0  0  0
   21.6261  -11.0797   -6.7025 O   0  0  0  0  0  0  0  0  0  0  0  0
   26.1007  -14.4670   -3.6271 O   0  0  0  0  0  0  0  0  0  0  0  0
   22.2282   -8.5773   -7.7077 N   0  0  0  0  0  0  0  0  0  0  0  0
   23.8329  -11.3115   -6.1711 N   0  0  0  0  0  0  0  0  0  0  0  0
   22.4995  -14.0636   -4.0824 C   0  0  0  0  0  0  0  0  0  0  0  0
   23.6992  -14.5963   -3.6302 C   0  0  0  0  0  0  0  0  0  0  0  0
   22.4954  -12.9523   -4.9261 C   0  0  0  0  0  0  0  0  0  0  0  0
   23.2161  -10.2591   -9.2106 C   0  0  0  0  0  0  0  0  0  0  0  0
   24.8838  -12.9092   -4.8964 C   0  0  0  0  0  0  0  0  0  0  0  0
   24.1253   -9.5265  -10.1962 C   0  0  0  0  0  0  0  0  0  0  0  0
   22.8086  -10.7501   -6.8196 C   0  0  0  0  0  0  0  0  0  0  0  0
   24.8878  -14.0135   -4.0520 C   0  0  0  0  0  0  0  0  0  0  0  0
   23.1994   -9.6808   -7.7932 C   0  0  2  0  0  0  0  0  0  0  0  0
   23.7028  -12.3608   -5.3369 C   0  0  0  0  0  0  0  0  0  0  0  0
   26.6650  -15.6542   -4.1135 C   0  0  0  0  0  0  0  0  0  0  0  0
   24.8794   -8.3359   -8.8472 H   0  0  0  0  0  0  0  0  0  0  0  0
   22.2252   -8.2071   -6.7788 H   0  0  0  0  0  0  0  0  0  0  0  0
   22.4842   -7.8572   -8.3527 H   0  0  0  0  0  0  0  0  0  0  0  0
   24.7469  -10.9315   -6.3130 H   0  0  0  0  0  0  0  0  0  0  0  0
   21.6339  -14.4785   -3.8020 H   0  0  0  0  0  0  0  0  0  0  0  0
   23.7077  -15.3834   -3.0134 H   0  0  0  0  0  0  0  0  0  0  0  0
   21.6256  -12.5730   -5.2416 H   0  0  0  0  0  0  0  0  0  0  0  0
   23.5217  -11.2096   -9.1543 H   0  0  0  0  0  0  0  0  0  0  0  0
   22.2829  -10.2297   -9.5687 H   0  0  0  0  0  0  0  0  0  0  0  0
   25.7523  -12.5081   -5.1874 H   0  0  0  0  0  0  0  0  0  0  0  0
   24.1108   -9.3395   -7.5633 H   0  0  0  0  0  0  0  0  0  0  0  0
  1 20  1  0  0  0  0
  2 20  1  0  0  0  0
  3 20  1  0  0  0  0
  4 15  1  0  0  0  0
  5 15  2  0  0  0  0
  6 16  2  0  0  0  0
  7 17  1  0  0  0  0
  7 20  1  0  0  0  0
  8 18  1  0  0  0  0
  9 16  1  0  0  0  0
  9 19  1  0  0  0  0
 10 11  2  0  0  0  0
 10 12  1  0  0  0  0
 11 17  1  0  0  0  0
 12 19  2  0  0  0  0
 13 15  1  0  0  0  0
 13 18  1  0  0  0  0
 14 17  2  0  0  0  0
 14 19  1  0  0  0  0
 16 18  1  0  0  0  0
  4 21  1  0  0  0  0
  8 22  1  0  0  0  0
  8 23  1  0  0  0  0
  9 24  1  0  0  0  0
 10 25  1  0  0  0  0
 11 26  1  0  0  0  0
 12 27  1  0  0  0  0
 13 28  1  0  0  0  0
 13 29  1  0  0  0  0
 14 30  1  0  0  0  0
 18 31  1  0  0  0  0
M  END
> <pdb_id>
7CI5

> <uniprot_id>
P47205

> <usmiles>
FC(F)(F)Oc1cc(NC(=O)[C@H](N)CC(=O)O)ccc1

$$$$
FYB_A_601
          07202410533D 1   1.00000     0.00000     0
            
 41 43  0  0  0  0            999 V2000
  -22.2480   -7.3710  -26.8020 F   0  0  0  0  0  0  0  0  0  0  0  0
  -16.8590    2.2340  -22.2080 F   0  0  0  0  0  0  0  0  0  0  0  0
  -15.6020    1.0030  -21.0560 F   0  0  0  0  0  0  0  0  0  0  0  0
  -21.9210    0.9630  -24.4820 O   0  0  0  0  0  0  0  0  0  0  0  0
  -23.0860   -2.5290  -28.0340 O   0  0  0  0  0  0  0  0  0  0  0  0
  -19.6840   -0.7140  -20.5830 O   0  0  0  0  0  0  0  0  0  0  0  0
  -21.8490   -2.5940  -24.1650 O   0  0  0  0  0  0  0  0  0  0  0  0
  -21.6700   -0.3780  -22.7240 N   0  0  0  0  0  0  0  0  0  0  0  0
  -21.3470    0.6480  -21.7510 C   0  0  0  0  0  0  0  0  0  0  0  0
  -21.7050   -6.1620  -24.7950 C   0  0  0  0  0  0  0  0  0  0  0  0
  -21.6180   -4.9530  -24.1730 C   0  0  0  0  0  0  0  0  0  0  0  0
  -22.4590   -5.0740  -26.7930 C   0  0  0  0  0  0  0  0  0  0  0  0
  -22.5240   -1.3380  -26.1570 C   0  0  0  0  0  0  0  0  0  0  0  0
  -17.3740   -0.0210  -22.3630 C   0  0  0  0  0  0  0  0  0  0  0  0
  -17.7850    1.3980  -20.1810 C   0  0  0  0  0  0  0  0  0  0  0  0
  -18.9610    0.2920  -22.6260 C   0  0  0  0  0  0  0  0  0  0  0  0
  -19.3260    1.5480  -20.4350 C   0  0  0  0  0  0  0  0  0  0  0  0
  -22.1450   -6.2120  -26.1220 C   0  0  0  0  0  0  0  0  0  0  0  0
  -21.9260   -0.1110  -23.9510 C   0  0  0  0  0  0  0  0  0  0  0  0
  -22.6990   -2.5220  -26.8660 C   0  0  0  0  0  0  0  0  0  0  0  0
  -22.1210   -1.3950  -24.8270 C   0  0  0  0  0  0  0  0  0  0  0  0
  -21.9670   -3.7730  -24.8720 C   0  0  0  0  0  0  0  0  0  0  0  0
  -22.3560   -3.8100  -26.1760 C   0  0  0  0  0  0  0  0  0  0  0  0
  -16.8900    1.1210  -21.4400 C   0  0  0  0  0  0  0  0  0  0  0  0
  -19.8860    0.4690  -21.3620 C   0  0  0  0  0  0  0  0  0  0  0  0
  -18.7156   -0.7968  -20.3476 H   0  0  0  0  0  0  0  0  0  0  0  0
  -21.6939   -1.3321  -22.4254 H   0  0  0  0  0  0  0  0  0  0  0  0
  -21.9294    0.5485  -20.9442 H   0  0  0  0  0  0  0  0  0  0  0  0
  -21.4847    1.5537  -22.1519 H   0  0  0  0  0  0  0  0  0  0  0  0
  -21.4580   -7.0011  -24.3102 H   0  0  0  0  0  0  0  0  0  0  0  0
  -21.3079   -4.8995  -23.2238 H   0  0  0  0  0  0  0  0  0  0  0  0
  -22.7689   -5.1333  -27.7419 H   0  0  0  0  0  0  0  0  0  0  0  0
  -22.6862   -0.4556  -26.5987 H   0  0  0  0  0  0  0  0  0  0  0  0
  -16.8669   -0.0155  -23.2249 H   0  0  0  0  0  0  0  0  0  0  0  0
  -17.2600   -0.9077  -21.9149 H   0  0  0  0  0  0  0  0  0  0  0  0
  -17.6550    0.6389  -19.5432 H   0  0  0  0  0  0  0  0  0  0  0  0
  -17.4628    2.2460  -19.7601 H   0  0  0  0  0  0  0  0  0  0  0  0
  -19.3307   -0.4654  -23.1642 H   0  0  0  0  0  0  0  0  0  0  0  0
  -19.0157    1.1369  -23.1581 H   0  0  0  0  0  0  0  0  0  0  0  0
  -19.4953    2.4427  -20.8484 H   0  0  0  0  0  0  0  0  0  0  0  0
  -19.8008    1.4915  -19.5567 H   0  0  0  0  0  0  0  0  0  0  0  0
  1 18  1  0  0  0  0
  2 24  1  0  0  0  0
  3 24  1  0  0  0  0
  4 19  2  0  0  0  0
  5 20  2  0  0  0  0
  6 25  1  0  0  0  0
  7 21  1  0  0  0  0
  7 22  1  0  0  0  0
  8  9  1  0  0  0  0
  8 19  1  0  0  0  0
  9 25  1  0  0  0  0
 10 11  1  0  0  0  0
 10 18  2  0  0  0  0
 11 22  2  0  0  0  0
 12 18  1  0  0  0  0
 12 23  2  0  0  0  0
 13 20  1  0  0  0  0
 13 21  2  0  0  0  0
 14 16  1  0  0  0  0
 14 24  1  0  0  0  0
 15 17  1  0  0  0  0
 15 24  1  0  0  0  0
 16 25  1  0  0  0  0
 17 25  1  0  0  0  0
 19 21  1  0  0  0  0
 20 23  1  0  0  0  0
 22 23  1  0  0  0  0
  6 26  1  0  0  0  0
  8 27  1  0  0  0  0
  9 28  1  0  0  0  0
  9 29  1  0  0  0  0
 10 30  1  0  0  0  0
 11 31  1  0  0  0  0
 12 32  1  0  0  0  0
 13 33  1  0  0  0  0
 14 34  1  0  0  0  0
 14 35  1  0  0  0  0
 15 36  1  0  0  0  0
 15 37  1  0  0  0  0
 16 38  1  0  0  0  0
 16 39  1  0  0  0  0
 17 40  1  0  0  0  0
 17 41  1  0  0  0  0
M  END
> <pdb_id>
6HCU

> <uniprot_id>
Q8IDJ8

> <usmiles>
Fc1cc2c(OC(C(=O)NCC3(O)CCC(F)(F)CC3)=CC2=O)cc1

$$$$
FYE_A_601
          07202410533D 1   1.00000     0.00000     0
            
 41 43  0  0  0  0            999 V2000
  -22.3863   -7.3714  -26.8144 F   0  0  0  0  0  0  0  0  0  0  0  0
  -22.0191    1.0200  -24.5724 O   0  0  0  0  0  0  0  0  0  0  0  0
  -23.0752   -2.5699  -28.0641 O   0  0  0  0  0  0  0  0  0  0  0  0
  -19.6355   -0.5024  -20.6970 O   0  0  0  0  0  0  0  0  0  0  0  0
  -21.8187   -2.5280  -24.1863 O   0  0  0  0  0  0  0  0  0  0  0  0
  -21.5202   -0.1924  -22.7859 N   0  0  0  0  0  0  0  0  0  0  0  0
  -21.0206    0.9393  -22.0150 C   0  0  0  0  0  0  0  0  0  0  0  0
  -16.6549    1.2274  -21.5972 C   0  0  0  0  0  0  0  0  0  0  0  0
  -17.2368    0.0415  -22.3372 C   0  0  0  0  0  0  0  0  0  0  0  0
  -17.5590    1.5570  -20.3901 C   0  0  0  0  0  0  0  0  0  0  0  0
  -21.8154   -6.1707  -24.8495 C   0  0  0  0  0  0  0  0  0  0  0  0
  -21.6740   -4.9461  -24.1890 C   0  0  0  0  0  0  0  0  0  0  0  0
  -22.5349   -5.0126  -26.8465 C   0  0  0  0  0  0  0  0  0  0  0  0
  -22.5097   -1.3334  -26.1644 C   0  0  0  0  0  0  0  0  0  0  0  0
  -18.6836    0.3520  -22.7688 C   0  0  0  0  0  0  0  0  0  0  0  0
  -18.9973    1.8356  -20.8255 C   0  0  0  0  0  0  0  0  0  0  0  0
  -22.2420   -6.1958  -26.1817 C   0  0  0  0  0  0  0  0  0  0  0  0
  -21.8993   -0.0726  -24.0515 C   0  0  0  0  0  0  0  0  0  0  0  0
  -22.6794   -2.5356  -26.8700 C   0  0  0  0  0  0  0  0  0  0  0  0
  -22.0927   -1.3354  -24.8300 C   0  0  0  0  0  0  0  0  0  0  0  0
  -21.9571   -3.7526  -24.8468 C   0  0  0  0  0  0  0  0  0  0  0  0
  -22.3792   -3.8027  -26.1809 C   0  0  0  0  0  0  0  0  0  0  0  0
  -19.5810    0.6407  -21.5745 C   0  0  0  0  0  0  0  0  0  0  0  0
  -18.7121   -0.7291  -20.3872 H   0  0  0  0  0  0  0  0  0  0  0  0
  -21.5792   -1.0886  -22.3463 H   0  0  0  0  0  0  0  0  0  0  0  0
  -21.5967    1.0778  -21.2094 H   0  0  0  0  0  0  0  0  0  0  0  0
  -21.0348    1.7638  -22.5807 H   0  0  0  0  0  0  0  0  0  0  0  0
  -16.6118    2.0168  -22.2096 H   0  0  0  0  0  0  0  0  0  0  0  0
  -15.7346    1.0039  -21.2761 H   0  0  0  0  0  0  0  0  0  0  0  0
  -17.2341   -0.7581  -21.7367 H   0  0  0  0  0  0  0  0  0  0  0  0
  -16.6824   -0.1484  -23.1476 H   0  0  0  0  0  0  0  0  0  0  0  0
  -17.1981    2.3654  -19.9252 H   0  0  0  0  0  0  0  0  0  0  0  0
  -17.5552    0.7805  -19.7599 H   0  0  0  0  0  0  0  0  0  0  0  0
  -21.6124   -7.0251  -24.3713 H   0  0  0  0  0  0  0  0  0  0  0  0
  -21.3673   -4.9278  -23.2374 H   0  0  0  0  0  0  0  0  0  0  0  0
  -22.8543   -5.0308  -27.7939 H   0  0  0  0  0  0  0  0  0  0  0  0
  -22.6898   -0.4632  -26.6230 H   0  0  0  0  0  0  0  0  0  0  0  0
  -19.0491   -0.4353  -23.2653 H   0  0  0  0  0  0  0  0  0  0  0  0
  -18.6775    1.1515  -23.3695 H   0  0  0  0  0  0  0  0  0  0  0  0
  -19.0086    2.6354  -21.4257 H   0  0  0  0  0  0  0  0  0  0  0  0
  -19.5549    2.0186  -20.0158 H   0  0  0  0  0  0  0  0  0  0  0  0
  1 17  1  0  0  0  0
  2 18  2  0  0  0  0
  3 19  2  0  0  0  0
  4 23  1  0  0  0  0
  5 20  1  0  0  0  0
  5 21  1  0  0  0  0
  6  7  1  0  0  0  0
  6 18  1  0  0  0  0
  7 23  1  0  0  0  0
  8  9  1  0  0  0  0
  8 10  1  0  0  0  0
  9 15  1  0  0  0  0
 10 16  1  0  0  0  0
 11 12  1  0  0  0  0
 11 17  2  0  0  0  0
 12 21  2  0  0  0  0
 13 17  1  0  0  0  0
 13 22  2  0  0  0  0
 14 19  1  0  0  0  0
 14 20  2  0  0  0  0
 15 23  1  0  0  0  0
 16 23  1  0  0  0  0
 18 20  1  0  0  0  0
 19 22  1  0  0  0  0
 21 22  1  0  0  0  0
  4 24  1  0  0  0  0
  6 25  1  0  0  0  0
  7 26  1  0  0  0  0
  7 27  1  0  0  0  0
  8 28  1  0  0  0  0
  8 29  1  0  0  0  0
  9 30  1  0  0  0  0
  9 31  1  0  0  0  0
 10 32  1  0  0  0  0
 10 33  1  0  0  0  0
 11 34  1  0  0  0  0
 12 35  1  0  0  0  0
 13 36  1  0  0  0  0
 14 37  1  0  0  0  0
 15 38  1  0  0  0  0
 15 39  1  0  0  0  0
 16 40  1  0  0  0  0
 16 41  1  0  0  0  0
M  END
> <pdb_id>
6HCV

> <uniprot_id>
Q8IDJ8

> <usmiles>
Fc1cc2c(OC(C(=O)NCC3(O)CCCCC3)=CC2=O)cc1

$$$$
FYR_A_1300
          07202407423D 1   1.00000     0.00000     0
            
 26 27  0  0  0  0            999 V2000
   24.6567  -14.2492   -5.5171 O   0  0  0  0  0  0  0  0  0  0  0  0
   26.5493  -13.6717   -6.3650 O   0  0  0  0  0  0  0  0  0  0  0  0
   28.4609  -14.9452   -6.3468 O   0  0  0  0  0  0  0  0  0  0  0  0
   29.3573  -21.5777   -3.1735 C   0  0  0  0  0  0  0  0  0  0  0  0
   28.5080  -20.8446   -2.3388 C   0  0  0  0  0  0  0  0  0  0  0  0
   29.6513  -21.0640   -4.4549 C   0  0  0  0  0  0  0  0  0  0  0  0
   27.9359  -19.6235   -2.7257 C   0  0  0  0  0  0  0  0  0  0  0  0
   29.0759  -19.8436   -4.8578 C   0  0  0  0  0  0  0  0  0  0  0  0
   26.3602  -17.6347   -4.0908 C   0  0  0  0  0  0  0  0  0  0  0  0
   25.7510  -16.4754   -4.5196 C   0  0  0  0  0  0  0  0  0  0  0  0
   28.4238  -17.0242   -5.1993 C   0  0  0  0  0  0  0  0  0  0  0  0
   25.8808  -14.4420   -5.6851 C   0  0  0  0  0  0  0  0  0  0  0  0
   27.8142  -15.8653   -5.6089 C   0  0  0  0  0  0  0  0  0  0  0  0
   28.2401  -19.1141   -4.0075 C   0  0  0  0  0  0  0  0  0  0  0  0
   27.6841  -17.9164   -4.4443 C   0  0  0  0  0  0  0  0  0  0  0  0
   26.4767  -15.5777   -5.2423 C   0  0  0  0  0  0  0  0  0  0  0  0
   24.1222  -14.8850   -4.9603 H   0  0  0  0  0  0  0  0  0  0  0  0
   27.9894  -14.1101   -6.6302 H   0  0  0  0  0  0  0  0  0  0  0  0
   29.7478  -22.4466   -2.8693 H   0  0  0  0  0  0  0  0  0  0  0  0
   28.3001  -21.2053   -1.4296 H   0  0  0  0  0  0  0  0  0  0  0  0
   30.2622  -21.5619   -5.0706 H   0  0  0  0  0  0  0  0  0  0  0  0
   27.3269  -19.1255   -2.1084 H   0  0  0  0  0  0  0  0  0  0  0  0
   29.2696  -19.4908   -5.7732 H   0  0  0  0  0  0  0  0  0  0  0  0
   25.8512  -18.2805   -3.5217 H   0  0  0  0  0  0  0  0  0  0  0  0
   24.7913  -16.2961   -4.3035 H   0  0  0  0  0  0  0  0  0  0  0  0
   29.3749  -17.2181   -5.4395 H   0  0  0  0  0  0  0  0  0  0  0  0
  1 12  1  0  0  0  0
  2 12  2  0  0  0  0
  3 13  1  0  0  0  0
  4  5  2  0  0  0  0
  4  6  1  0  0  0  0
  5  7  1  0  0  0  0
  6  8  2  0  0  0  0
  7 14  2  0  0  0  0
  8 14  1  0  0  0  0
  9 10  1  0  0  0  0
  9 15  2  0  0  0  0
 10 16  2  0  0  0  0
 11 13  2  0  0  0  0
 11 15  1  0  0  0  0
 12 16  1  0  0  0  0
 13 16  1  0  0  0  0
 14 15  1  0  0  0  0
  1 17  1  0  0  0  0
  3 18  1  0  0  0  0
  4 19  1  0  0  0  0
  5 20  1  0  0  0  0
  6 21  1  0  0  0  0
  7 22  1  0  0  0  0
  8 23  1  0  0  0  0
  9 24  1  0  0  0  0
 10 25  1  0  0  0  0
 11 26  1  0  0  0  0
M  END
> <pdb_id>
7CIB

> <uniprot_id>
P47205

> <usmiles>
O=C(O)c1c(O)cc(c2ccccc2)cc1

$$$$
FYZ_B_201
          07202405373D 1   1.00000     0.00000     0
            
 49 51  0  0  0  0            999 V2000
   13.9843   13.7289  -13.5073 O   0  0  0  0  0  0  0  0  0  0  0  0
   10.4794   11.4788  -14.6840 O   0  0  0  0  0  0  0  0  0  0  0  0
    9.2426   12.0956  -12.2748 O   0  0  0  0  0  0  0  0  0  0  0  0
   11.1050   14.0202  -11.3426 O   0  0  0  0  0  0  0  0  0  0  0  0
    9.4945   14.8928  -15.3904 O   0  0  0  0  0  0  0  0  0  0  0  0
   11.6388   14.0651  -15.0037 O   0  0  0  0  0  0  0  0  0  0  0  0
   13.1720   14.8974  -13.3300 C   0  0  0  0  0  0  0  0  0  0  0  0
    9.7245   15.7504  -16.5536 C   0  0  0  0  0  0  0  0  0  0  0  0
    9.5968   17.1925  -16.2976 C   0  0  0  0  0  0  0  0  0  0  0  0
    8.7675   26.5232  -14.6426 C   0  0  0  0  0  0  0  0  0  0  0  0
    7.6434   25.7715  -14.9644 C   0  0  0  0  0  0  0  0  0  0  0  0
   10.0126   25.9111  -14.5620 C   0  0  0  0  0  0  0  0  0  0  0  0
    9.4935   18.3504  -16.0922 C   0  0  0  0  0  0  0  0  0  0  0  0
    7.7643   24.4077  -15.2056 C   0  0  0  0  0  0  0  0  0  0  0  0
   10.1340   24.5472  -14.8040 C   0  0  0  0  0  0  0  0  0  0  0  0
    8.1950   20.1228  -15.3579 C   0  0  0  0  0  0  0  0  0  0  0  0
   10.4471   20.4615  -16.1369 C   0  0  0  0  0  0  0  0  0  0  0  0
    8.0736   21.4867  -15.1159 C   0  0  0  0  0  0  0  0  0  0  0  0
   10.3262   21.8253  -15.8957 C   0  0  0  0  0  0  0  0  0  0  0  0
   10.3307   13.7246  -15.4753 C   0  0  1  0  0  0  0  0  0  0  0  0
    9.7029   12.6866  -14.5656 C   0  0  2  0  0  0  0  0  0  0  0  0
    9.7288   13.1476  -13.1181 C   0  0  2  0  0  0  0  0  0  0  0  0
   11.1443   13.5050  -12.6788 C   0  0  1  0  0  0  0  0  0  0  0  0
   11.7144   14.5537  -13.6451 C   0  0  2  0  0  0  0  0  0  0  0  0
    9.3811   19.6103  -15.8683 C   0  0  0  0  0  0  0  0  0  0  0  0
    9.0099   23.7965  -15.1260 C   0  0  0  0  0  0  0  0  0  0  0  0
    9.1396   22.3379  -15.3845 C   0  0  0  0  0  0  0  0  0  0  0  0
   14.9374   13.9512  -13.3019 H   0  0  0  0  0  0  0  0  0  0  0  0
   10.0890   10.7723  -14.0938 H   0  0  0  0  0  0  0  0  0  0  0  0
    9.2592   12.3978  -11.3217 H   0  0  0  0  0  0  0  0  0  0  0  0
   12.0312   14.2565  -11.0491 H   0  0  0  0  0  0  0  0  0  0  0  0
   13.4858   15.6190  -13.9470 H   0  0  0  0  0  0  0  0  0  0  0  0
   13.2435   15.2133  -12.3839 H   0  0  0  0  0  0  0  0  0  0  0  0
    9.0612   15.5007  -17.2591 H   0  0  0  0  0  0  0  0  0  0  0  0
   10.6500   15.5758  -16.8896 H   0  0  0  0  0  0  0  0  0  0  0  0
    8.6803   27.5041  -14.4691 H   0  0  0  0  0  0  0  0  0  0  0  0
    6.7474   26.2119  -15.0224 H   0  0  0  0  0  0  0  0  0  0  0  0
   10.8213   26.4515  -14.3298 H   0  0  0  0  0  0  0  0  0  0  0  0
    6.9554   23.8669  -15.4363 H   0  0  0  0  0  0  0  0  0  0  0  0
   11.0299   24.1068  -14.7465 H   0  0  0  0  0  0  0  0  0  0  0  0
    7.4283   19.5106  -15.1646 H   0  0  0  0  0  0  0  0  0  0  0  0
   11.3011   20.0926  -16.5038 H   0  0  0  0  0  0  0  0  0  0  0  0
    7.2196   21.8553  -14.7486 H   0  0  0  0  0  0  0  0  0  0  0  0
   11.0927   22.4374  -16.0899 H   0  0  0  0  0  0  0  0  0  0  0  0
   10.3722   13.3890  -16.4164 H   0  0  0  0  0  0  0  0  0  0  0  0
    8.7599   12.5128  -14.8494 H   0  0  0  0  0  0  0  0  0  0  0  0
    9.1401   13.9496  -13.0171 H   0  0  0  0  0  0  0  0  0  0  0  0
   11.7166   12.6854  -12.7023 H   0  0  0  0  0  0  0  0  0  0  0  0
   11.1661   15.3869  -13.5734 H   0  0  0  0  0  0  0  0  0  0  0  0
  1  7  1  0  0  0  0
  2 21  1  0  0  0  0
  3 22  1  0  0  0  0
  4 23  1  0  0  0  0
  5  8  1  0  0  0  0
  5 20  1  0  0  0  0
  6 20  1  0  0  0  0
  6 24  1  0  0  0  0
  7 24  1  0  0  0  0
  8  9  1  0  0  0  0
  9 13  3  0  0  0  0
 10 11  2  0  0  0  0
 10 12  1  0  0  0  0
 11 14  1  0  0  0  0
 12 15  2  0  0  0  0
 13 25  1  0  0  0  0
 14 26  2  0  0  0  0
 15 26  1  0  0  0  0
 16 18  1  0  0  0  0
 16 25  2  0  0  0  0
 17 19  2  0  0  0  0
 17 25  1  0  0  0  0
 18 27  2  0  0  0  0
 19 27  1  0  0  0  0
 20 21  1  0  0  0  0
 21 22  1  0  0  0  0
 22 23  1  0  0  0  0
 23 24  1  0  0  0  0
 26 27  1  0  0  0  0
  1 28  1  0  0  0  0
  2 29  1  0  0  0  0
  3 30  1  0  0  0  0
  4 31  1  0  0  0  0
  7 32  1  0  0  0  0
  7 33  1  0  0  0  0
  8 34  1  0  0  0  0
  8 35  1  0  0  0  0
 10 36  1  0  0  0  0
 11 37  1  0  0  0  0
 12 38  1  0  0  0  0
 14 39  1  0  0  0  0
 15 40  1  0  0  0  0
 16 41  1  0  0  0  0
 17 42  1  0  0  0  0
 18 43  1  0  0  0  0
 19 44  1  0  0  0  0
 20 45  1  0  0  0  0
 21 46  1  0  0  0  0
 22 47  1  0  0  0  0
 23 48  1  0  0  0  0
 24 49  1  0  0  0  0
M  END
> <pdb_id>
4AV5

> <uniprot_id>
A2IC68

> <usmiles>
O1[C@@H]([C@@H](O)[C@H](O)[C@H](O)[C@H]1OCC#Cc2ccc(c3ccccc3)cc2)CO

$$$$
FZ8_A_402
          07202400003D 1   1.00000     0.00000     0
            
 41 45  0  0  0  0            999 V2000
    6.6215  -12.8443   11.7210 N   0  0  0  0  0  0  0  0  0  0  0  0
    6.1647  -13.0608   12.9864 N   0  0  0  0  0  0  0  0  0  0  0  0
    7.1821  -13.4718   15.2170 N   0  0  0  0  0  0  0  0  0  0  0  0
    9.5970  -13.5163   15.1416 N   0  0  0  0  0  0  0  0  0  0  0  0
   15.0389  -10.4456   11.5541 N   0  0  0  0  0  0  0  0  0  0  0  0
   13.3598   -9.9939   10.0859 N   0  0  0  0  0  0  0  0  0  0  0  0
   10.8678  -13.2317   13.1525 N   0  0  0  0  0  0  0  0  0  0  0  0
    8.3903  -13.5951   15.7456 C   0  0  0  0  0  0  0  0  0  0  0  0
    7.9738  -12.8807   11.7666 C   0  0  0  0  0  0  0  0  0  0  0  0
   12.1171  -12.9125   13.9194 C   0  0  0  0  0  0  0  0  0  0  0  0
   11.0212  -13.5886   11.7297 C   0  0  0  0  0  0  0  0  0  0  0  0
   16.6322   -7.4255   10.0361 C   0  0  0  0  0  0  0  0  0  0  0  0
   15.5896   -7.1386    9.1380 C   0  0  0  0  0  0  0  0  0  0  0  0
   12.9195  -11.8436   13.1712 C   0  0  0  0  0  0  0  0  0  0  0  0
   11.8144  -12.4952   11.0449 C   0  0  0  0  0  0  0  0  0  0  0  0
   16.5881   -8.5002   10.9004 C   0  0  0  0  0  0  0  0  0  0  0  0
   14.4662   -7.9235    9.0674 C   0  0  0  0  0  0  0  0  0  0  0  0
    7.2203  -13.2465   13.8650 C   0  0  0  0  0  0  0  0  0  0  0  0
   13.7707  -10.8220   11.0405 C   0  0  0  0  0  0  0  0  0  0  0  0
    9.6224  -13.2831   13.8187 C   0  0  0  0  0  0  0  0  0  0  0  0
   15.4275   -9.2938   10.8344 C   0  0  0  0  0  0  0  0  0  0  0  0
   14.3750   -9.0292    9.9306 C   0  0  0  0  0  0  0  0  0  0  0  0
   13.1136  -11.9878   11.6415 C   0  0  0  0  0  0  0  0  0  0  0  0
    8.4158  -13.1410   13.1141 C   0  0  0  0  0  0  0  0  0  0  0  0
    5.1992  -13.0828   13.2459 H   0  0  0  0  0  0  0  0  0  0  0  0
   12.4999  -10.0452    9.5780 H   0  0  0  0  0  0  0  0  0  0  0  0
    8.4129  -13.7712   16.7297 H   0  0  0  0  0  0  0  0  0  0  0  0
    8.5777  -12.7467   10.9810 H   0  0  0  0  0  0  0  0  0  0  0  0
   12.6709  -13.7398   14.0128 H   0  0  0  0  0  0  0  0  0  0  0  0
   11.8725  -12.5708   14.8268 H   0  0  0  0  0  0  0  0  0  0  0  0
   10.1205  -13.6700   11.3030 H   0  0  0  0  0  0  0  0  0  0  0  0
   11.5075  -14.4587   11.6503 H   0  0  0  0  0  0  0  0  0  0  0  0
   17.4348   -6.8292   10.0490 H   0  0  0  0  0  0  0  0  0  0  0  0
   15.6685   -6.3437    8.5363 H   0  0  0  0  0  0  0  0  0  0  0  0
   13.8310  -11.8199   13.5818 H   0  0  0  0  0  0  0  0  0  0  0  0
   12.4606  -10.9690   13.3277 H   0  0  0  0  0  0  0  0  0  0  0  0
   11.2062  -11.7047   10.9721 H   0  0  0  0  0  0  0  0  0  0  0  0
   12.0336  -12.8326   10.1294 H   0  0  0  0  0  0  0  0  0  0  0  0
   17.3345   -8.7026   11.5344 H   0  0  0  0  0  0  0  0  0  0  0  0
   13.7330   -7.7147    8.4202 H   0  0  0  0  0  0  0  0  0  0  0  0
   13.7632  -12.7399   11.5304 H   0  0  0  0  0  0  0  0  0  0  0  0
  1  2  1  0  0  0  0
  1  9  2  0  0  0  0
  2 18  1  0  0  0  0
  3  8  1  0  0  0  0
  3 18  2  0  0  0  0
  4  8  2  0  0  0  0
  4 20  1  0  0  0  0
  5 19  2  0  0  0  0
  5 21  1  0  0  0  0
  6 19  1  0  0  0  0
  6 22  1  0  0  0  0
  7 10  1  0  0  0  0
  7 11  1  0  0  0  0
  7 20  1  0  0  0  0
  9 24  1  0  0  0  0
 10 14  1  0  0  0  0
 11 15  1  0  0  0  0
 12 13  2  0  0  0  0
 12 16  1  0  0  0  0
 13 17  1  0  0  0  0
 14 23  1  0  0  0  0
 15 23  1  0  0  0  0
 16 21  2  0  0  0  0
 17 22  2  0  0  0  0
 18 24  1  0  0  0  0
 19 23  1  0  0  0  0
 20 24  2  0  0  0  0
 21 22  1  0  0  0  0
  2 25  1  0  0  0  0
  6 26  1  0  0  0  0
  8 27  1  0  0  0  0
  9 28  1  0  0  0  0
 10 29  1  0  0  0  0
 10 30  1  0  0  0  0
 11 31  1  0  0  0  0
 11 32  1  0  0  0  0
 12 33  1  0  0  0  0
 13 34  1  0  0  0  0
 14 35  1  0  0  0  0
 14 36  1  0  0  0  0
 15 37  1  0  0  0  0
 15 38  1  0  0  0  0
 16 39  1  0  0  0  0
 17 40  1  0  0  0  0
 23 41  1  0  0  0  0
M  END
> <pdb_id>
3WF5

> <uniprot_id>
P23443

> <usmiles>
n1c(N2CCC(C3=Nc4c(N3)cccc4)CC2)c5c(nc1)NN=C5

$$$$
FZ9_A_402
          07202400003D 1   1.00000     0.00000     0
            
 40 44  0  0  0  0            999 V2000
    6.7578  -12.7719   11.6885 N   0  0  0  0  0  0  0  0  0  0  0  0
    6.3382  -13.0776   12.9467 N   0  0  0  0  0  0  0  0  0  0  0  0
    7.4012  -13.4427   15.1405 N   0  0  0  0  0  0  0  0  0  0  0  0
    9.8060  -13.2023   15.0835 N   0  0  0  0  0  0  0  0  0  0  0  0
   16.6456   -9.6916   11.7489 N   0  0  0  0  0  0  0  0  0  0  0  0
   11.0434  -12.6611   13.1561 N   0  0  0  0  0  0  0  0  0  0  0  0
    8.6244  -13.4473   15.6680 C   0  0  0  0  0  0  0  0  0  0  0  0
    8.0965  -12.6549   11.7346 C   0  0  0  0  0  0  0  0  0  0  0  0
   15.7871  -10.6675   12.2668 C   0  0  0  0  0  0  0  0  0  0  0  0
   11.1590  -12.2886   11.6918 C   0  0  0  0  0  0  0  0  0  0  0  0
   12.2963  -12.6504   13.9346 C   0  0  0  0  0  0  0  0  0  0  0  0
   15.4445   -7.2617    9.1988 C   0  0  0  0  0  0  0  0  0  0  0  0
   14.1302   -7.7547    9.1196 C   0  0  0  0  0  0  0  0  0  0  0  0
   12.2843  -11.4166   11.3379 C   0  0  0  0  0  0  0  0  0  0  0  0
   13.5812  -12.3531   13.1711 C   0  0  0  0  0  0  0  0  0  0  0  0
   16.3635   -7.8458   10.0350 C   0  0  0  0  0  0  0  0  0  0  0  0
   13.7155   -8.8254    9.8818 C   0  0  0  0  0  0  0  0  0  0  0  0
    7.4022  -13.1595   13.8124 C   0  0  0  0  0  0  0  0  0  0  0  0
    9.8085  -12.9176   13.7773 C   0  0  0  0  0  0  0  0  0  0  0  0
   15.9338   -8.9354   10.8141 C   0  0  0  0  0  0  0  0  0  0  0  0
   13.4273  -11.4191   12.0215 C   0  0  0  0  0  0  0  0  0  0  0  0
    8.5784  -12.8788   13.0600 C   0  0  0  0  0  0  0  0  0  0  0  0
   14.5395  -10.5527   11.6871 C   0  0  0  0  0  0  0  0  0  0  0  0
   14.6116   -9.4443   10.7674 C   0  0  0  0  0  0  0  0  0  0  0  0
    5.3835  -13.2231   13.2063 H   0  0  0  0  0  0  0  0  0  0  0  0
   17.6034   -9.5583   12.0038 H   0  0  0  0  0  0  0  0  0  0  0  0
    8.6678  -13.6655   16.6429 H   0  0  0  0  0  0  0  0  0  0  0  0
    8.6756  -12.4405   10.9481 H   0  0  0  0  0  0  0  0  0  0  0  0
   16.0398  -11.3476   12.9550 H   0  0  0  0  0  0  0  0  0  0  0  0
   10.3151  -11.8219   11.4271 H   0  0  0  0  0  0  0  0  0  0  0  0
   11.2506  -13.1348   11.1669 H   0  0  0  0  0  0  0  0  0  0  0  0
   12.3974  -13.5515   14.3564 H   0  0  0  0  0  0  0  0  0  0  0  0
   12.2021  -11.9568   14.6488 H   0  0  0  0  0  0  0  0  0  0  0  0
   15.7128   -6.4770    8.6401 H   0  0  0  0  0  0  0  0  0  0  0  0
   13.4815   -7.3186    8.4959 H   0  0  0  0  0  0  0  0  0  0  0  0
   12.1900  -10.7993   10.5568 H   0  0  0  0  0  0  0  0  0  0  0  0
   13.9421  -13.2180   12.8221 H   0  0  0  0  0  0  0  0  0  0  0  0
   14.2369  -11.9523   13.8110 H   0  0  0  0  0  0  0  0  0  0  0  0
   17.3037   -7.5092   10.0881 H   0  0  0  0  0  0  0  0  0  0  0  0
   12.7768   -9.1611    9.8040 H   0  0  0  0  0  0  0  0  0  0  0  0
  1  2  1  0  0  0  0
  1  8  2  0  0  0  0
  2 18  1  0  0  0  0
  3  7  1  0  0  0  0
  3 18  2  0  0  0  0
  4  7  2  0  0  0  0
  4 19  1  0  0  0  0
  5  9  1  0  0  0  0
  5 20  1  0  0  0  0
  6 10  1  0  0  0  0
  6 11  1  0  0  0  0
  6 19  1  0  0  0  0
  8 22  1  0  0  0  0
  9 23  2  0  0  0  0
 10 14  1  0  0  0  0
 11 15  1  0  0  0  0
 12 13  2  0  0  0  0
 12 16  1  0  0  0  0
 13 17  1  0  0  0  0
 14 21  2  0  0  0  0
 15 21  1  0  0  0  0
 16 20  2  0  0  0  0
 17 24  2  0  0  0  0
 18 22  1  0  0  0  0
 19 22  2  0  0  0  0
 20 24  1  0  0  0  0
 21 23  1  0  0  0  0
 23 24  1  0  0  0  0
  2 25  1  0  0  0  0
  5 26  1  0  0  0  0
  7 27  1  0  0  0  0
  8 28  1  0  0  0  0
  9 29  1  0  0  0  0
 10 30  1  0  0  0  0
 10 31  1  0  0  0  0
 11 32  1  0  0  0  0
 11 33  1  0  0  0  0
 12 34  1  0  0  0  0
 13 35  1  0  0  0  0
 14 36  1  0  0  0  0
 15 37  1  0  0  0  0
 15 38  1  0  0  0  0
 16 39  1  0  0  0  0
 17 40  1  0  0  0  0
M  END
> <pdb_id>
3WF6

> <uniprot_id>
P23443

> <usmiles>
n1c(N2CC=C(C=3c4c(NC3)cccc4)CC2)c5c(nc1)NN=C5

$$$$
FZL_A_801
          07192416223D 1   1.00000     0.00000     0
            
 60 64  0  0  0  0            999 V2000
   33.3594   39.2080   60.3523 O   0  0  0  0  0  0  0  0  0  0  0  0
   34.1040   34.6515   62.0057 O   0  0  0  0  0  0  0  0  0  0  0  0
   38.7887   33.8230   70.5477 N   0  0  0  0  0  0  0  0  0  0  0  0
   35.0552   32.6202   66.0826 N   0  0  0  0  0  0  0  0  0  0  0  0
   35.4869   34.8521   66.3514 N   0  0  0  0  0  0  0  0  0  0  0  0
   36.1921   31.0444   67.6980 N   0  0  0  0  0  0  0  0  0  0  0  0
   34.0199   34.1918   64.5941 N   0  0  0  0  0  0  0  0  0  0  0  0
   36.9369   35.7735   68.0269 N   0  0  0  0  0  0  0  0  0  0  0  0
   33.2816   39.4895   62.6165 N   0  0  0  0  0  0  0  0  0  0  0  0
   34.2446   34.7634   60.6105 C   0  0  0  0  0  0  0  0  0  0  0  0
   38.1333   33.3102   69.8037 C   0  0  0  0  0  0  0  0  0  0  0  0
   37.0226   31.2498   68.7101 C   0  0  0  0  0  0  0  0  0  0  0  0
   33.5983   36.6422   65.0327 C   0  0  0  0  0  0  0  0  0  0  0  0
   33.4390   37.9301   64.5283 C   0  0  0  0  0  0  0  0  0  0  0  0
   33.7056   37.0737   62.2444 C   0  0  0  0  0  0  0  0  0  0  0  0
   33.0139   40.7461   63.5032 C   0  0  0  0  0  0  0  0  0  0  0  0
   35.9249   39.7884   69.1103 C   0  0  0  0  0  0  0  0  0  0  0  0
   32.5275   41.8614   62.5231 C   0  0  0  0  0  0  0  0  0  0  0  0
   37.1317   39.6063   68.1839 C   0  0  0  0  0  0  0  0  0  0  0  0
   34.7827   38.8004   68.8464 C   0  0  0  0  0  0  0  0  0  0  0  0
   32.9321   41.4799   61.2941 C   0  0  0  0  0  0  0  0  0  0  0  0
   37.5478   38.1345   68.0141 C   0  0  0  0  0  0  0  0  0  0  0  0
   35.2644   37.3294   68.8450 C   0  0  0  0  0  0  0  0  0  0  0  0
   34.9066   33.8660   65.7179 C   0  0  0  0  0  0  0  0  0  0  0  0
   33.2116   39.8916   61.3061 C   0  0  0  0  0  0  0  0  0  0  0  0
   35.8614   32.2695   67.1288 C   0  0  0  0  0  0  0  0  0  0  0  0
   36.2860   34.6209   67.3823 C   0  0  0  0  0  0  0  0  0  0  0  0
   33.8752   35.7944   62.7654 C   0  0  0  0  0  0  0  0  0  0  0  0
   33.8243   35.5880   64.1534 C   0  0  0  0  0  0  0  0  0  0  0  0
   33.4941   38.1382   63.1264 C   0  0  0  0  0  0  0  0  0  0  0  0
   37.2578   32.6307   68.8116 C   0  0  0  0  0  0  0  0  0  0  0  0
   36.5103   33.2674   67.8082 C   0  0  0  0  0  0  0  0  0  0  0  0
   36.3976   37.1098   67.8606 C   0  0  0  0  0  0  0  0  0  0  0  0
   35.8581   30.1497   67.3912 H   0  0  0  0  0  0  0  0  0  0  0  0
   33.5320   33.4416   64.1090 H   0  0  0  0  0  0  0  0  0  0  0  0
   37.7483   35.6368   68.5794 H   0  0  0  0  0  0  0  0  0  0  0  0
   35.1905   35.2438   60.3807 H   0  0  0  0  0  0  0  0  0  0  0  0
   34.2231   33.7748   60.1656 H   0  0  0  0  0  0  0  0  0  0  0  0
   33.4301   35.3585   60.2117 H   0  0  0  0  0  0  0  0  0  0  0  0
   37.4523   30.4719   69.3605 H   0  0  0  0  0  0  0  0  0  0  0  0
   33.5459   36.4613   66.1055 H   0  0  0  0  0  0  0  0  0  0  0  0
   33.2764   38.7646   65.2007 H   0  0  0  0  0  0  0  0  0  0  0  0
   33.7384   37.2440   61.1658 H   0  0  0  0  0  0  0  0  0  0  0  0
   32.2514   40.5324   64.2248 H   0  0  0  0  0  0  0  0  0  0  0  0
   33.9175   41.0522   63.9902 H   0  0  0  0  0  0  0  0  0  0  0  0
   36.2608   39.6608   70.1415 H   0  0  0  0  0  0  0  0  0  0  0  0
   35.5409   40.8027   68.9789 H   0  0  0  0  0  0  0  0  0  0  0  0
   32.9826   42.8116   62.7855 H   0  0  0  0  0  0  0  0  0  0  0  0
   31.4452   41.9357   62.5516 H   0  0  0  0  0  0  0  0  0  0  0  0
   37.9716   40.1603   68.5977 H   0  0  0  0  0  0  0  0  0  0  0  0
   36.8816   40.0124   67.2056 H   0  0  0  0  0  0  0  0  0  0  0  0
   34.3418   39.0245   67.8821 H   0  0  0  0  0  0  0  0  0  0  0  0
   34.0318   38.9206   69.6187 H   0  0  0  0  0  0  0  0  0  0  0  0
   33.8518   42.0065   61.0376 H   0  0  0  0  0  0  0  0  0  0  0  0
   32.1490   41.7036   60.5706 H   0  0  0  0  0  0  0  0  0  0  0  0
   38.1708   38.0668   67.1333 H   0  0  0  0  0  0  0  0  0  0  0  0
   38.1268   37.8533   68.8826 H   0  0  0  0  0  0  0  0  0  0  0  0
   35.6098   37.0682   69.8469 H   0  0  0  0  0  0  0  0  0  0  0  0
   34.4280   36.6828   68.5716 H   0  0  0  0  0  0  0  0  0  0  0  0
   35.9842   37.2050   66.8636 H   0  0  0  0  0  0  0  0  0  0  0  0
  1 25  2  0  0  0  0
  2 10  1  0  0  0  0
  2 28  1  0  0  0  0
  3 11  3  0  0  0  0
  4 24  1  0  0  0  0
  4 26  2  0  0  0  0
  5 24  2  0  0  0  0
  5 27  1  0  0  0  0
  6 12  1  0  0  0  0
  6 26  1  0  0  0  0
  6 34  1  0  0  0  0
  7 24  1  0  0  0  0
  7 29  1  0  0  0  0
  7 35  1  0  0  0  0
  8 27  1  0  0  0  0
  8 33  1  0  0  0  0
  8 36  1  0  0  0  0
  9 16  1  0  0  0  0
  9 25  1  0  0  0  0
  9 30  1  0  0  0  0
 10 37  1  0  0  0  0
 10 38  1  0  0  0  0
 10 39  1  0  0  0  0
 11 31  1  0  0  0  0
 12 31  2  0  0  0  0
 12 40  1  0  0  0  0
 13 14  1  0  0  0  0
 13 29  2  0  0  0  0
 13 41  1  0  0  0  0
 14 30  2  0  0  0  0
 14 42  1  0  0  0  0
 15 28  2  0  0  0  0
 15 30  1  0  0  0  0
 15 43  1  0  0  0  0
 16 18  1  0  0  0  0
 16 44  1  0  0  0  0
 16 45  1  0  0  0  0
 17 19  1  0  0  0  0
 17 20  1  0  0  0  0
 17 46  1  0  0  0  0
 17 47  1  0  0  0  0
 18 21  1  0  0  0  0
 18 48  1  0  0  0  0
 18 49  1  0  0  0  0
 19 22  1  0  0  0  0
 19 50  1  0  0  0  0
 19 51  1  0  0  0  0
 20 23  1  0  0  0  0
 20 52  1  0  0  0  0
 20 53  1  0  0  0  0
 21 25  1  0  0  0  0
 21 54  1  0  0  0  0
 21 55  1  0  0  0  0
 22 33  1  0  0  0  0
 22 56  1  0  0  0  0
 22 57  1  0  0  0  0
 23 33  1  0  0  0  0
 23 58  1  0  0  0  0
 23 59  1  0  0  0  0
 26 32  1  0  0  0  0
 27 32  2  0  0  0  0
 28 29  1  0  0  0  0
 31 32  1  0  0  0  0
 33 60  1  0  0  0  0
M  END
> <pdb_id>
7CHN

> <uniprot_id>
P33981

> <usmiles>
O=C1N(c2cc(OC)c(Nc3nc4NC=C(C#N)c4c(n3)NC5CCCCC5)cc2)CCC1

$$$$
FZM_A_502
          07202411533D 1   1.00000     0.00000     0
            
 24 26  0  0  0  0            999 V2000
   22.4655   -2.6777   21.5029 N   0  0  0  0  0  0  0  0  0  0  0  0
   23.6190   -3.3396   19.7735 N   0  0  0  0  0  0  0  0  0  0  0  0
   24.5519   -3.0238   18.8372 C   0  0  0  0  0  0  0  0  0  0  0  0
   22.8005   -4.3977   20.1668 C   0  0  0  0  0  0  0  0  0  0  0  0
   24.9750   -1.6982   19.0501 C   0  0  0  0  0  0  0  0  0  0  0  0
   19.2712   -6.1757   23.6397 C   0  0  0  0  0  0  0  0  0  0  0  0
   19.8153   -5.0002   24.1356 C   0  0  0  0  0  0  0  0  0  0  0  0
   19.6213   -6.6296   22.3763 C   0  0  0  0  0  0  0  0  0  0  0  0
   24.2409   -1.2287   20.1756 C   0  0  0  0  0  0  0  0  0  0  0  0
   20.7088   -4.2851   23.3591 C   0  0  0  0  0  0  0  0  0  0  0  0
   20.5221   -5.9151   21.6000 C   0  0  0  0  0  0  0  0  0  0  0  0
   23.4059   -2.3271   20.5750 C   0  0  0  0  0  0  0  0  0  0  0  0
   22.0591   -3.9449   21.2705 C   0  0  0  0  0  0  0  0  0  0  0  0
   21.0574   -4.7323   22.0886 C   0  0  0  0  0  0  0  0  0  0  0  0
   22.1308   -2.0886   22.2384 H   0  0  0  0  0  0  0  0  0  0  0  0
   24.8830   -3.6324   18.1161 H   0  0  0  0  0  0  0  0  0  0  0  0
   22.7510   -5.3031   19.7450 H   0  0  0  0  0  0  0  0  0  0  0  0
   25.6530   -1.1900   18.5190 H   0  0  0  0  0  0  0  0  0  0  0  0
   18.6241   -6.6981   24.1950 H   0  0  0  0  0  0  0  0  0  0  0  0
   19.5637   -4.6727   25.0463 H   0  0  0  0  0  0  0  0  0  0  0  0
   19.2224   -7.4760   22.0235 H   0  0  0  0  0  0  0  0  0  0  0  0
   24.2951   -0.3244   20.5992 H   0  0  0  0  0  0  0  0  0  0  0  0
   21.1076   -3.4395   23.7138 H   0  0  0  0  0  0  0  0  0  0  0  0
   20.7835   -6.2502   20.6948 H   0  0  0  0  0  0  0  0  0  0  0  0
  1 12  1  0  0  0  0
  1 13  1  0  0  0  0
  2  3  1  0  0  0  0
  2  4  1  0  0  0  0
  2 12  1  0  0  0  0
  3  5  2  0  0  0  0
  4 13  2  0  0  0  0
  5  9  1  0  0  0  0
  6  7  2  0  0  0  0
  6  8  1  0  0  0  0
  7 10  1  0  0  0  0
  8 11  2  0  0  0  0
  9 12  2  0  0  0  0
 10 14  2  0  0  0  0
 11 14  1  0  0  0  0
 13 14  1  0  0  0  0
  1 15  1  0  0  0  0
  3 16  1  0  0  0  0
  4 17  1  0  0  0  0
  5 18  1  0  0  0  0
  6 19  1  0  0  0  0
  7 20  1  0  0  0  0
  8 21  1  0  0  0  0
  9 22  1  0  0  0  0
 10 23  1  0  0  0  0
 11 24  1  0  0  0  0
M  END
> <pdb_id>
6D9X

> <uniprot_id>
P61964

> <usmiles>
N12C(NC(c3ccccc3)=C1)=CC=C2

$$$$
FZX_A_304
          07202410153D 1   1.00000     0.00000     0
            
 25 26  0  0  0  0            999 V2000
  -36.1213   -6.3904   67.3006 O   0  0  0  0  0  0  0  0  0  0  0  0
  -36.2748   -7.9144   68.8362 O   0  0  0  0  0  0  0  0  0  0  0  0
  -33.7171   -8.9595   68.0695 N   0  0  0  0  0  0  0  0  0  0  0  0
  -33.2768   -7.1468   66.9999 N   0  0  0  0  0  0  0  0  0  0  0  0
  -32.4789   -9.0574   67.6481 C   0  0  0  0  0  0  0  0  0  0  0  0
  -32.2066   -7.9045   66.9679 C   0  0  0  0  0  0  0  0  0  0  0  0
  -31.8941   -2.7701   68.9874 C   0  0  0  0  0  0  0  0  0  0  0  0
  -31.7351   -4.0897   69.3477 C   0  0  0  0  0  0  0  0  0  0  0  0
  -32.5304   -2.4483   67.8075 C   0  0  0  0  0  0  0  0  0  0  0  0
  -33.3752   -5.8526   66.3780 C   0  0  0  0  0  0  0  0  0  0  0  0
  -32.2026   -5.0892   68.5055 C   0  0  0  0  0  0  0  0  0  0  0  0
  -32.9977   -3.4387   66.9672 C   0  0  0  0  0  0  0  0  0  0  0  0
  -35.6134   -7.3295   67.9549 C   0  0  0  0  0  0  0  0  0  0  0  0
  -34.2019   -7.7983   67.6693 C   0  0  0  0  0  0  0  0  0  0  0  0
  -32.8426   -4.7658   67.3121 C   0  0  0  0  0  0  0  0  0  0  0  0
  -35.5859   -5.9255   66.5954 H   0  0  0  0  0  0  0  0  0  0  0  0
  -31.8561   -9.8257   67.7958 H   0  0  0  0  0  0  0  0  0  0  0  0
  -31.3406   -7.6773   66.5223 H   0  0  0  0  0  0  0  0  0  0  0  0
  -31.5477   -2.0447   69.5821 H   0  0  0  0  0  0  0  0  0  0  0  0
  -31.2864   -4.3261   70.2095 H   0  0  0  0  0  0  0  0  0  0  0  0
  -32.6546   -1.4879   67.5580 H   0  0  0  0  0  0  0  0  0  0  0  0
  -34.3336   -5.6622   66.1649 H   0  0  0  0  0  0  0  0  0  0  0  0
  -32.8395   -5.8519   65.5336 H   0  0  0  0  0  0  0  0  0  0  0  0
  -32.0786   -6.0488   68.7578 H   0  0  0  0  0  0  0  0  0  0  0  0
  -33.4485   -3.1945   66.1086 H   0  0  0  0  0  0  0  0  0  0  0  0
  1 13  1  0  0  0  0
  2 13  2  0  0  0  0
  3  5  1  0  0  0  0
  3 14  2  0  0  0  0
  4  6  1  0  0  0  0
  4 10  1  0  0  0  0
  4 14  1  0  0  0  0
  5  6  2  0  0  0  0
  7  8  2  0  0  0  0
  7  9  1  0  0  0  0
  8 11  1  0  0  0  0
  9 12  2  0  0  0  0
 10 15  1  0  0  0  0
 11 15  2  0  0  0  0
 12 15  1  0  0  0  0
 13 14  1  0  0  0  0
  1 16  1  0  0  0  0
  5 17  1  0  0  0  0
  6 18  1  0  0  0  0
  7 19  1  0  0  0  0
  8 20  1  0  0  0  0
  9 21  1  0  0  0  0
 10 22  1  0  0  0  0
 10 23  1  0  0  0  0
 11 24  1  0  0  0  0
 12 25  1  0  0  0  0
M  END
> <pdb_id>
7CHV

> <uniprot_id>
Q9K2N0

> <usmiles>
O=C(O)C1=NC=CN1Cc2ccccc2

$$$$
G12_A_1
          07192422213D 1   1.00000     0.00000     0
            
 21 22  0  0  0  0            999 V2000
   20.9297    9.7828   20.9720 Br  0  0  0  0  0  0  0  0  0  0  0  0
   25.3380    6.5266   16.3568 Br  0  0  0  0  0  0  0  0  0  0  0  0
   23.0764    7.4091   20.5508 O   0  0  0  0  0  0  0  0  0  0  0  0
   24.8421    8.2508   13.8889 O   0  0  0  0  0  0  0  0  0  0  0  0
   23.5931    7.7608   18.3869 O   0  0  0  0  0  0  0  0  0  0  0  0
   20.8798   11.1723   18.1350 C   0  0  0  0  0  0  0  0  0  0  0  0
   23.2732    9.7793   14.7777 C   0  0  0  0  0  0  0  0  0  0  0  0
   22.5244   10.2211   15.8546 C   0  0  0  0  0  0  0  0  0  0  0  0
   22.9030    8.0920   19.5169 C   0  0  0  0  0  0  0  0  0  0  0  0
   21.9683    9.2515   19.4800 C   0  0  0  0  0  0  0  0  0  0  0  0
   24.2080    8.0288   16.1369 C   0  0  0  0  0  0  0  0  0  0  0  0
   24.1141    8.6846   14.9278 C   0  0  0  0  0  0  0  0  0  0  0  0
   23.4642    8.4606   17.2149 C   0  0  0  0  0  0  0  0  0  0  0  0
   21.8188   10.0030   18.2249 C   0  0  0  0  0  0  0  0  0  0  0  0
   22.6193    9.5593   17.0688 C   0  0  0  0  0  0  0  0  0  0  0  0
   25.4476    7.4624   13.9972 H   0  0  0  0  0  0  0  0  0  0  0  0
   20.9114   11.5550   17.2117 H   0  0  0  0  0  0  0  0  0  0  0  0
   19.9489   10.8687   18.3383 H   0  0  0  0  0  0  0  0  0  0  0  0
   21.1541   11.8716   18.7952 H   0  0  0  0  0  0  0  0  0  0  0  0
   23.2090   10.2463   13.8957 H   0  0  0  0  0  0  0  0  0  0  0  0
   21.9196   11.0116   15.7575 H   0  0  0  0  0  0  0  0  0  0  0  0
  1 10  1  0  0  0  0
  2 11  1  0  0  0  0
  3  9  2  0  0  0  0
  4 12  1  0  0  0  0
  5  9  1  0  0  0  0
  5 13  1  0  0  0  0
  6 14  1  0  0  0  0
  7  8  1  0  0  0  0
  7 12  2  0  0  0  0
  8 15  2  0  0  0  0
  9 10  1  0  0  0  0
 10 14  2  0  0  0  0
 11 12  1  0  0  0  0
 11 13  2  0  0  0  0
 13 15  1  0  0  0  0
 14 15  1  0  0  0  0
  4 16  1  0  0  0  0
  6 17  1  0  0  0  0
  6 18  1  0  0  0  0
  6 19  1  0  0  0  0
  7 20  1  0  0  0  0
  8 21  1  0  0  0  0
M  END
> <pdb_id>
2QC6

> <uniprot_id>
P28523

> <usmiles>
Brc1c2OC(=O)C(Br)=C(c2ccc1O)C

$$$$
G14_A_1165
          07192422023D 1   1.00000     0.00000     0
            
 22 23  0  0  0  0            999 V2000
   39.4246  -28.5066  -15.7008 O   0  0  0  0  0  0  0  0  0  0  0  0
   38.3409  -28.3487  -13.8837 O   0  0  0  0  0  0  0  0  0  0  0  0
   36.7995  -25.7328  -17.3344 N   0  0  0  0  0  0  0  0  0  0  0  0
   36.3593  -26.6712  -15.3895 N   0  0  0  0  0  0  0  0  0  0  0  0
   37.8548  -26.4900  -17.0562 C   0  0  0  0  0  0  0  0  0  0  0  0
   32.2110  -23.8143  -16.3782 C   0  0  0  0  0  0  0  0  0  0  0  0
   32.8621  -24.1161  -17.5951 C   0  0  0  0  0  0  0  0  0  0  0  0
   32.7866  -24.1838  -15.1424 C   0  0  0  0  0  0  0  0  0  0  0  0
   34.0819  -24.8293  -17.5654 C   0  0  0  0  0  0  0  0  0  0  0  0
   34.0340  -24.8486  -15.1197 C   0  0  0  0  0  0  0  0  0  0  0  0
   38.5064  -28.0260  -15.0786 C   0  0  0  0  0  0  0  0  0  0  0  0
   35.8867  -25.8272  -16.3476 C   0  0  0  0  0  0  0  0  0  0  0  0
   37.5824  -27.0005  -15.8241 C   0  0  0  0  0  0  0  0  0  0  0  0
   34.6734  -25.1567  -16.3402 C   0  0  0  0  0  0  0  0  0  0  0  0
   39.5659  -28.2548  -16.6582 H   0  0  0  0  0  0  0  0  0  0  0  0
   35.8998  -26.9749  -14.5549 H   0  0  0  0  0  0  0  0  0  0  0  0
   38.6638  -26.6487  -17.6222 H   0  0  0  0  0  0  0  0  0  0  0  0
   31.3339  -23.3342  -16.3919 H   0  0  0  0  0  0  0  0  0  0  0  0
   32.4648  -23.8287  -18.4666 H   0  0  0  0  0  0  0  0  0  0  0  0
   32.3134  -23.9758  -14.2864 H   0  0  0  0  0  0  0  0  0  0  0  0
   34.5229  -25.1003  -18.4211 H   0  0  0  0  0  0  0  0  0  0  0  0
   34.4586  -25.0978  -14.2493 H   0  0  0  0  0  0  0  0  0  0  0  0
  1 11  1  0  0  0  0
  2 11  2  0  0  0  0
  3  5  1  0  0  0  0
  3 12  2  0  0  0  0
  4 12  1  0  0  0  0
  4 13  1  0  0  0  0
  5 13  2  0  0  0  0
  6  7  2  0  0  0  0
  6  8  1  0  0  0  0
  7  9  1  0  0  0  0
  8 10  2  0  0  0  0
  9 14  2  0  0  0  0
 10 14  1  0  0  0  0
 11 13  1  0  0  0  0
 12 14  1  0  0  0  0
  1 15  1  0  0  0  0
  4 16  1  0  0  0  0
  5 17  1  0  0  0  0
  6 18  1  0  0  0  0
  7 19  1  0  0  0  0
  8 20  1  0  0  0  0
  9 21  1  0  0  0  0
 10 22  1  0  0  0  0
M  END
> <pdb_id>
2XP4

> <uniprot_id>
Q13526

> <usmiles>
O=C(O)C=1NC(=NC1)c2ccccc2

$$$$
G18_A_702
          07202408053D 1   1.00000     0.00000     0
            
 21 23  0  0  0  0            999 V2000
   52.2831   17.7625   14.6061 S   0  0  0  0  0  0  0  0  0  0  0  0
   49.4975   19.0396   10.4127 O   0  0  0  0  0  0  0  0  0  0  0  0
   50.6535   18.4891   12.2722 N   0  0  0  0  0  0  0  0  0  0  0  0
   53.9586   18.0854   14.3818 C   0  0  0  0  0  0  0  0  0  0  0  0
   52.8345   20.2599    8.3935 C   0  0  0  0  0  0  0  0  0  0  0  0
   54.0619   20.1440    9.0502 C   0  0  0  0  0  0  0  0  0  0  0  0
   54.1702   18.5895   13.1510 C   0  0  0  0  0  0  0  0  0  0  0  0
   51.6868   19.8586    9.0729 C   0  0  0  0  0  0  0  0  0  0  0  0
   54.1218   19.6221   10.3504 C   0  0  0  0  0  0  0  0  0  0  0  0
   51.8847   18.3714   12.9431 C   0  0  0  0  0  0  0  0  0  0  0  0
   50.5815   18.9571   10.9779 C   0  0  0  0  0  0  0  0  0  0  0  0
   53.0549   18.7510   12.3402 C   0  0  0  0  0  0  0  0  0  0  0  0
   51.7387   19.3627   10.3715 C   0  0  0  0  0  0  0  0  0  0  0  0
   52.9680   19.2371   11.0495 C   0  0  0  0  0  0  0  0  0  0  0  0
   49.8120   18.2275   12.7450 H   0  0  0  0  0  0  0  0  0  0  0  0
   54.6705   17.9227   15.0650 H   0  0  0  0  0  0  0  0  0  0  0  0
   52.7814   20.6207    7.4623 H   0  0  0  0  0  0  0  0  0  0  0  0
   54.9015   20.4344    8.5912 H   0  0  0  0  0  0  0  0  0  0  0  0
   55.0869   18.8357   12.8361 H   0  0  0  0  0  0  0  0  0  0  0  0
   50.8009   19.9289    8.6144 H   0  0  0  0  0  0  0  0  0  0  0  0
   55.0132   19.5214   10.7923 H   0  0  0  0  0  0  0  0  0  0  0  0
  1  4  1  0  0  0  0
  1 10  1  0  0  0  0
  2 11  2  0  0  0  0
  3 10  1  0  0  0  0
  3 11  1  0  0  0  0
  4  7  2  0  0  0  0
  5  6  2  0  0  0  0
  5  8  1  0  0  0  0
  6  9  1  0  0  0  0
  7 12  1  0  0  0  0
  8 13  2  0  0  0  0
  9 14  2  0  0  0  0
 10 12  2  0  0  0  0
 11 13  1  0  0  0  0
 12 14  1  0  0  0  0
 13 14  1  0  0  0  0
  3 15  1  0  0  0  0
  4 16  1  0  0  0  0
  5 17  1  0  0  0  0
  6 18  1  0  0  0  0
  7 19  1  0  0  0  0
  8 20  1  0  0  0  0
  9 21  1  0  0  0  0
M  END
> <pdb_id>
7OQQ

> <uniprot_id>
Q460N3

> <usmiles>
S1C=2NC(=O)c3c(cccc3)C2C=C1

$$$$
G2D_B_401
          07202411533D 1   1.00000     0.00000     0
            
 54 58  0  0  0  0            999 V2000
   22.3236   -3.5312   25.8483 O   0  0  0  0  0  0  0  0  0  0  0  0
   27.0712   -5.4038   27.0689 O   0  0  0  0  0  0  0  0  0  0  0  0
   21.1243   -5.4544   26.1754 N   0  0  0  0  0  0  0  0  0  0  0  0
   22.3712   -2.6083   21.2901 N   0  0  0  0  0  0  0  0  0  0  0  0
   23.7022   -3.3226   19.6863 N   0  0  0  0  0  0  0  0  0  0  0  0
   27.3828   -4.6571   25.8981 C   0  0  0  0  0  0  0  0  0  0  0  0
   26.6288   -6.8814   29.3654 C   0  0  0  0  0  0  0  0  0  0  0  0
   24.7443   -3.0006   18.7362 C   0  0  0  0  0  0  0  0  0  0  0  0
   23.0037   -4.4199   20.0339 C   0  0  0  0  0  0  0  0  0  0  0  0
   24.9040   -1.4761   18.8945 C   0  0  0  0  0  0  0  0  0  0  0  0
   24.0435   -1.0373   20.1099 C   0  0  0  0  0  0  0  0  0  0  0  0
   18.7605   -5.9510   25.6877 C   0  0  0  0  0  0  0  0  0  0  0  0
   24.1626   -6.5029   28.9830 C   0  0  0  0  0  0  0  0  0  0  0  0
   23.0964   -5.9702   28.2556 C   0  0  0  0  0  0  0  0  0  0  0  0
   18.6026   -6.8818   24.4726 C   0  0  0  0  0  0  0  0  0  0  0  0
   20.4451   -5.8185   21.2698 C   0  0  0  0  0  0  0  0  0  0  0  0
   19.5702   -6.5562   22.0860 C   0  0  0  0  0  0  0  0  0  0  0  0
   24.6764   -5.0228   26.6790 C   0  0  0  0  0  0  0  0  0  0  0  0
   21.0818   -4.4633   23.1674 C   0  0  0  0  0  0  0  0  0  0  0  0
   22.2287   -4.6543   26.3207 C   0  0  0  0  0  0  0  0  0  0  0  0
   23.3068   -2.2679   20.4472 C   0  0  0  0  0  0  0  0  0  0  0  0
   25.7480   -5.5528   27.4043 C   0  0  0  0  0  0  0  0  0  0  0  0
   22.1564   -3.9582   21.0341 C   0  0  0  0  0  0  0  0  0  0  0  0
   19.9632   -5.0248   25.4355 C   0  0  2  0  0  0  0  0  0  0  0  0
   25.4916   -6.3020   28.5675 C   0  0  0  0  0  0  0  0  0  0  0  0
   23.3539   -5.2307   27.1020 C   0  0  0  0  0  0  0  0  0  0  0  0
   21.2037   -4.7536   21.7983 C   0  0  0  0  0  0  0  0  0  0  0  0
   19.4645   -6.2378   23.4303 C   0  0  0  0  0  0  0  0  0  0  0  0
   20.2168   -5.1947   23.9673 C   0  0  0  0  0  0  0  0  0  0  0  0
   21.1240   -6.3622   26.5947 H   0  0  0  0  0  0  0  0  0  0  0  0
   28.3748   -4.6290   25.7748 H   0  0  0  0  0  0  0  0  0  0  0  0
   26.9603   -5.0923   25.1030 H   0  0  0  0  0  0  0  0  0  0  0  0
   27.0322   -3.7255   25.9937 H   0  0  0  0  0  0  0  0  0  0  0  0
   27.4969   -6.6433   28.9299 H   0  0  0  0  0  0  0  0  0  0  0  0
   26.6083   -6.5095   30.2935 H   0  0  0  0  0  0  0  0  0  0  0  0
   26.5366   -7.8765   29.4030 H   0  0  0  0  0  0  0  0  0  0  0  0
   24.4667   -3.2376   17.8052 H   0  0  0  0  0  0  0  0  0  0  0  0
   25.5947   -3.4758   18.9616 H   0  0  0  0  0  0  0  0  0  0  0  0
   23.0770   -5.3451   19.6616 H   0  0  0  0  0  0  0  0  0  0  0  0
   24.5869   -1.0123   18.0672 H   0  0  0  0  0  0  0  0  0  0  0  0
   25.8642   -1.2489   19.0568 H   0  0  0  0  0  0  0  0  0  0  0  0
   23.4169   -0.2990   19.8602 H   0  0  0  0  0  0  0  0  0  0  0  0
   24.6199   -0.7419   20.8718 H   0  0  0  0  0  0  0  0  0  0  0  0
   18.9198   -6.4948   26.5117 H   0  0  0  0  0  0  0  0  0  0  0  0
   17.9314   -5.4041   25.8045 H   0  0  0  0  0  0  0  0  0  0  0  0
   23.9792   -7.0343   29.8100 H   0  0  0  0  0  0  0  0  0  0  0  0
   22.1553   -6.1179   28.5598 H   0  0  0  0  0  0  0  0  0  0  0  0
   17.6491   -6.9223   24.1739 H   0  0  0  0  0  0  0  0  0  0  0  0
   18.9251   -7.8045   24.6839 H   0  0  0  0  0  0  0  0  0  0  0  0
   20.5307   -6.0520   20.3012 H   0  0  0  0  0  0  0  0  0  0  0  0
   19.0294   -7.3036   21.7001 H   0  0  0  0  0  0  0  0  0  0  0  0
   24.8537   -4.4905   25.8512 H   0  0  0  0  0  0  0  0  0  0  0  0
   21.6228   -3.7239   23.5680 H   0  0  0  0  0  0  0  0  0  0  0  0
   19.7339   -4.0755   25.6506 H   0  0  0  0  0  0  0  0  0  0  0  0
  1 20  2  0  0  0  0
  2  6  1  0  0  0  0
  2 22  1  0  0  0  0
  3 20  1  0  0  0  0
  3 24  1  0  0  0  0
  4 21  2  0  0  0  0
  4 23  1  0  0  0  0
  5  8  1  0  0  0  0
  5  9  1  0  0  0  0
  5 21  1  0  0  0  0
  7 25  1  0  0  0  0
  8 10  1  0  0  0  0
  9 23  2  0  0  0  0
 10 11  1  0  0  0  0
 11 21  1  0  0  0  0
 12 15  1  0  0  0  0
 12 24  1  0  0  0  0
 13 14  1  0  0  0  0
 13 25  2  0  0  0  0
 14 26  2  0  0  0  0
 15 28  1  0  0  0  0
 16 17  1  0  0  0  0
 16 27  2  0  0  0  0
 17 28  2  0  0  0  0
 18 22  2  0  0  0  0
 18 26  1  0  0  0  0
 19 27  1  0  0  0  0
 19 29  2  0  0  0  0
 20 26  1  0  0  0  0
 22 25  1  0  0  0  0
 23 27  1  0  0  0  0
 24 29  1  0  0  0  0
 28 29  1  0  0  0  0
  3 30  1  0  0  0  0
  6 31  1  0  0  0  0
  6 32  1  0  0  0  0
  6 33  1  0  0  0  0
  7 34  1  0  0  0  0
  7 35  1  0  0  0  0
  7 36  1  0  0  0  0
  8 37  1  0  0  0  0
  8 38  1  0  0  0  0
  9 39  1  0  0  0  0
 10 40  1  0  0  0  0
 10 41  1  0  0  0  0
 11 42  1  0  0  0  0
 11 43  1  0  0  0  0
 12 44  1  0  0  0  0
 12 45  1  0  0  0  0
 13 46  1  0  0  0  0
 14 47  1  0  0  0  0
 15 48  1  0  0  0  0
 15 49  1  0  0  0  0
 16 50  1  0  0  0  0
 17 51  1  0  0  0  0
 18 52  1  0  0  0  0
 19 53  1  0  0  0  0
 24 54  1  0  0  0  0
M  END
> <pdb_id>
6DAS

> <uniprot_id>
P61964

> <usmiles>
O=C(N[C@H]1c2c(ccc(c2)C=3N=C4N(C3)CCC4)CC1)c5cc(OC)c(cc5)C

$$$$
G2J_A_401
          07202411533D 1   1.00000     0.00000     0
            
 55 59  0  0  0  0            999 V2000
   21.8193   -3.4699   25.9933 O   0  0  0  0  0  0  0  0  0  0  0  0
   26.5661   -5.5694   27.1343 O   0  0  0  0  0  0  0  0  0  0  0  0
   22.2585   -2.5900   21.2622 N   0  0  0  0  0  0  0  0  0  0  0  0
   23.6403   -3.2670   19.7569 N   0  0  0  0  0  0  0  0  0  0  0  0
   20.7129   -5.4466   26.2163 N   0  0  0  0  0  0  0  0  0  0  0  0
   26.7832   -5.2804   25.7609 C   0  0  0  0  0  0  0  0  0  0  0  0
   24.7159   -2.9663   18.8259 C   0  0  0  0  0  0  0  0  0  0  0  0
   22.9337   -4.3817   20.1181 C   0  0  0  0  0  0  0  0  0  0  0  0
   20.6424   -6.8113   26.7751 C   0  0  0  0  0  0  0  0  0  0  0  0
   19.5834   -5.0596   25.3518 C   0  0  0  0  0  0  0  0  0  0  0  0
   24.9335   -1.4349   19.0098 C   0  0  0  0  0  0  0  0  0  0  0  0
   23.7664   -5.5917   29.5883 C   0  0  0  0  0  0  0  0  0  0  0  0
   19.6295   -6.7667   21.9339 C   0  0  0  0  0  0  0  0  0  0  0  0
   23.9793   -0.9650   20.1386 C   0  0  0  0  0  0  0  0  0  0  0  0
   25.0651   -5.7080   29.0649 C   0  0  0  0  0  0  0  0  0  0  0  0
   19.3327   -6.4839   23.2768 C   0  0  0  0  0  0  0  0  0  0  0  0
   22.6987   -5.2284   28.7479 C   0  0  0  0  0  0  0  0  0  0  0  0
   20.4899   -5.9188   21.2029 C   0  0  0  0  0  0  0  0  0  0  0  0
   18.2743   -7.2276   27.9108 C   0  0  0  0  0  0  0  0  0  0  0  0
   18.9997   -8.5478   27.8419 C   0  0  0  0  0  0  0  0  0  0  0  0
   24.2207   -5.1345   26.8480 C   0  0  0  0  0  0  0  0  0  0  0  0
   20.7684   -4.5171   23.1649 C   0  0  0  0  0  0  0  0  0  0  0  0
   21.7674   -4.6068   26.4688 C   0  0  0  0  0  0  0  0  0  0  0  0
   23.2466   -2.2118   20.4419 C   0  0  0  0  0  0  0  0  0  0  0  0
   25.3084   -5.4726   27.6892 C   0  0  0  0  0  0  0  0  0  0  0  0
   22.0414   -3.9406   21.0699 C   0  0  0  0  0  0  0  0  0  0  0  0
   19.2800   -7.4783   26.8113 C   0  0  0  0  0  0  0  0  0  0  0  0
   19.8887   -5.3490   23.8940 C   0  0  0  0  0  0  0  0  0  0  0  0
   22.9094   -5.0127   27.3681 C   0  0  0  0  0  0  0  0  0  0  0  0
   21.0726   -4.7830   21.8076 C   0  0  0  0  0  0  0  0  0  0  0  0
   27.7512   -5.4050   25.5430 H   0  0  0  0  0  0  0  0  0  0  0  0
   26.2329   -5.8982   25.1992 H   0  0  0  0  0  0  0  0  0  0  0  0
   26.5184   -4.3345   25.5733 H   0  0  0  0  0  0  0  0  0  0  0  0
   24.4465   -3.1794   17.8867 H   0  0  0  0  0  0  0  0  0  0  0  0
   25.5441   -3.4761   19.0589 H   0  0  0  0  0  0  0  0  0  0  0  0
   23.0415   -5.3121   19.7679 H   0  0  0  0  0  0  0  0  0  0  0  0
   20.9813   -6.7690   27.7150 H   0  0  0  0  0  0  0  0  0  0  0  0
   21.2465   -7.3913   26.2287 H   0  0  0  0  0  0  0  0  0  0  0  0
   19.4086   -4.0811   25.4610 H   0  0  0  0  0  0  0  0  0  0  0  0
   18.7715   -5.5757   25.6243 H   0  0  0  0  0  0  0  0  0  0  0  0
   25.5706   -0.8609   18.4953 H   0  0  0  0  0  0  0  0  0  0  0  0
   23.6011   -5.7672   30.5588 H   0  0  0  0  0  0  0  0  0  0  0  0
   19.2303   -7.5710   21.4939 H   0  0  0  0  0  0  0  0  0  0  0  0
   23.8850   -0.0591   20.5514 H   0  0  0  0  0  0  0  0  0  0  0  0
   25.8228   -5.9587   29.6674 H   0  0  0  0  0  0  0  0  0  0  0  0
   18.7269   -7.0887   23.7938 H   0  0  0  0  0  0  0  0  0  0  0  0
   21.7812   -5.1218   29.1311 H   0  0  0  0  0  0  0  0  0  0  0  0
   20.6893   -6.1249   20.2449 H   0  0  0  0  0  0  0  0  0  0  0  0
   18.4849   -6.5792   28.6424 H   0  0  0  0  0  0  0  0  0  0  0  0
   17.2990   -7.1814   27.6949 H   0  0  0  0  0  0  0  0  0  0  0  0
   18.5053   -9.3767   27.5803 H   0  0  0  0  0  0  0  0  0  0  0  0
   19.6912   -8.7745   28.5277 H   0  0  0  0  0  0  0  0  0  0  0  0
   24.3809   -4.9796   25.8731 H   0  0  0  0  0  0  0  0  0  0  0  0
   21.1834   -3.7267   23.6155 H   0  0  0  0  0  0  0  0  0  0  0  0
   18.8782   -7.6520   25.9122 H   0  0  0  0  0  0  0  0  0  0  0  0
  1 23  2  0  0  0  0
  2  6  1  0  0  0  0
  2 25  1  0  0  0  0
  3 24  2  0  0  0  0
  3 26  1  0  0  0  0
  4  7  1  0  0  0  0
  4  8  1  0  0  0  0
  4 24  1  0  0  0  0
  5  9  1  0  0  0  0
  5 10  1  0  0  0  0
  5 23  1  0  0  0  0
  7 11  1  0  0  0  0
  8 26  2  0  0  0  0
  9 27  1  0  0  0  0
 10 28  1  0  0  0  0
 11 14  2  0  0  0  0
 12 15  2  0  0  0  0
 12 17  1  0  0  0  0
 13 16  2  0  0  0  0
 13 18  1  0  0  0  0
 14 24  1  0  0  0  0
 15 25  1  0  0  0  0
 16 28  1  0  0  0  0
 17 29  2  0  0  0  0
 18 30  2  0  0  0  0
 19 20  1  0  0  0  0
 19 27  1  0  0  0  0
 20 27  1  0  0  0  0
 21 25  2  0  0  0  0
 21 29  1  0  0  0  0
 22 28  2  0  0  0  0
 22 30  1  0  0  0  0
 23 29  1  0  0  0  0
 26 30  1  0  0  0  0
  6 31  1  0  0  0  0
  6 32  1  0  0  0  0
  6 33  1  0  0  0  0
  7 34  1  0  0  0  0
  7 35  1  0  0  0  0
  8 36  1  0  0  0  0
  9 37  1  0  0  0  0
  9 38  1  0  0  0  0
 10 39  1  0  0  0  0
 10 40  1  0  0  0  0
 11 41  1  0  0  0  0
 12 42  1  0  0  0  0
 13 43  1  0  0  0  0
 14 44  1  0  0  0  0
 15 45  1  0  0  0  0
 16 46  1  0  0  0  0
 17 47  1  0  0  0  0
 18 48  1  0  0  0  0
 19 49  1  0  0  0  0
 19 50  1  0  0  0  0
 20 51  1  0  0  0  0
 20 52  1  0  0  0  0
 21 53  1  0  0  0  0
 22 54  1  0  0  0  0
 27 55  1  0  0  0  0
M  END
> <pdb_id>
6DAR

> <uniprot_id>
P61964

> <usmiles>
O=C(N(Cc1cc(ccc1)C=2N=C3N(C2)CC=C3)CC4CC4)c5cc(OC)ccc5

$$$$
G2V_A_503
          07202411533D 1   1.00000     0.00000     0
            
 35 38  0  0  0  0            999 V2000
   22.1968   -2.7319   21.3862 N   0  0  0  0  0  0  0  0  0  0  0  0
   18.3961   -7.6408   24.2921 N   0  0  0  0  0  0  0  0  0  0  0  0
   23.6918   -3.3427   19.8495 N   0  0  0  0  0  0  0  0  0  0  0  0
   17.5196   -8.7056   23.8369 C   0  0  0  0  0  0  0  0  0  0  0  0
   18.2293   -6.8455   25.5165 C   0  0  0  0  0  0  0  0  0  0  0  0
   24.7790   -2.8436   18.9434 C   0  0  0  0  0  0  0  0  0  0  0  0
   23.0398   -4.4400   20.2151 C   0  0  0  0  0  0  0  0  0  0  0  0
   24.9480   -1.3693   19.1717 C   0  0  0  0  0  0  0  0  0  0  0  0
   18.8206   -5.4413   25.2258 C   0  0  0  0  0  0  0  0  0  0  0  0
   23.9371   -0.9891   20.1858 C   0  0  0  0  0  0  0  0  0  0  0  0
   19.9993   -7.3249   22.0672 C   0  0  0  0  0  0  0  0  0  0  0  0
   20.8963   -6.3647   21.3267 C   0  0  0  0  0  0  0  0  0  0  0  0
   20.5318   -4.5864   23.2058 C   0  0  0  0  0  0  0  0  0  0  0  0
   23.1867   -2.2691   20.5864 C   0  0  0  0  0  0  0  0  0  0  0  0
   22.0940   -4.0635   21.1715 C   0  0  0  0  0  0  0  0  0  0  0  0
   19.3474   -6.8768   23.4031 C   0  0  0  0  0  0  0  0  0  0  0  0
   21.1490   -5.0083   21.8959 C   0  0  0  0  0  0  0  0  0  0  0  0
   19.5859   -5.5859   23.9366 C   0  0  0  0  0  0  0  0  0  0  0  0
   17.8661   -9.0773   22.9756 H   0  0  0  0  0  0  0  0  0  0  0  0
   17.4905   -9.4306   24.5251 H   0  0  0  0  0  0  0  0  0  0  0  0
   16.5986   -8.3421   23.6965 H   0  0  0  0  0  0  0  0  0  0  0  0
   18.7198   -7.2749   26.2748 H   0  0  0  0  0  0  0  0  0  0  0  0
   17.2594   -6.7691   25.7474 H   0  0  0  0  0  0  0  0  0  0  0  0
   24.5274   -3.0109   17.9902 H   0  0  0  0  0  0  0  0  0  0  0  0
   25.6349   -3.3175   19.1503 H   0  0  0  0  0  0  0  0  0  0  0  0
   23.1969   -5.3652   19.8695 H   0  0  0  0  0  0  0  0  0  0  0  0
   24.7919   -0.8667   18.3213 H   0  0  0  0  0  0  0  0  0  0  0  0
   25.8686   -1.1742   19.5099 H   0  0  0  0  0  0  0  0  0  0  0  0
   19.4319   -5.1596   25.9654 H   0  0  0  0  0  0  0  0  0  0  0  0
   18.0883   -4.7680   25.1239 H   0  0  0  0  0  0  0  0  0  0  0  0
   23.2978   -0.3245   19.7990 H   0  0  0  0  0  0  0  0  0  0  0  0
   24.3874   -0.5920   20.9855 H   0  0  0  0  0  0  0  0  0  0  0  0
   19.8265   -8.2396   21.7019 H   0  0  0  0  0  0  0  0  0  0  0  0
   21.3183   -6.6347   20.4613 H   0  0  0  0  0  0  0  0  0  0  0  0
   20.7251   -3.6863   23.5961 H   0  0  0  0  0  0  0  0  0  0  0  0
  1 14  2  0  0  0  0
  1 15  1  0  0  0  0
  2  4  1  0  0  0  0
  2  5  1  0  0  0  0
  2 16  1  0  0  0  0
  3  6  1  0  0  0  0
  3  7  1  0  0  0  0
  3 14  1  0  0  0  0
  5  9  1  0  0  0  0
  6  8  1  0  0  0  0
  7 15  2  0  0  0  0
  8 10  1  0  0  0  0
  9 18  1  0  0  0  0
 10 14  1  0  0  0  0
 11 12  1  0  0  0  0
 11 16  2  0  0  0  0
 12 17  2  0  0  0  0
 13 17  1  0  0  0  0
 13 18  2  0  0  0  0
 15 17  1  0  0  0  0
 16 18  1  0  0  0  0
  4 19  1  0  0  0  0
  4 20  1  0  0  0  0
  4 21  1  0  0  0  0
  5 22  1  0  0  0  0
  5 23  1  0  0  0  0
  6 24  1  0  0  0  0
  6 25  1  0  0  0  0
  7 26  1  0  0  0  0
  8 27  1  0  0  0  0
  8 28  1  0  0  0  0
  9 29  1  0  0  0  0
  9 30  1  0  0  0  0
 10 31  1  0  0  0  0
 10 32  1  0  0  0  0
 11 33  1  0  0  0  0
 12 34  1  0  0  0  0
 13 35  1  0  0  0  0
M  END
> <pdb_id>
6DAI

> <uniprot_id>
P61964

> <usmiles>
N1=C2N(C=C1c3cc4c(N(CC4)C)cc3)CCC2

$$$$
G3E_D_353
          07202413043D 1   1.00000     0.00000     0
            
 19 20  0  0  0  0            999 V2000
    4.6900  -72.4960   25.6080 O   0  0  0  0  0  0  0  0  0  0  0  0
    2.5910  -72.1850   27.3430 O   0  0  0  0  0  0  0  0  0  0  0  0
    5.7260  -73.9800   26.8120 N   0  0  0  0  0  0  0  0  0  0  0  0
    6.9600  -76.3520   29.2690 C   0  0  0  0  0  0  0  0  0  0  0  0
    5.9440  -76.2790   30.2140 C   0  0  0  0  0  0  0  0  0  0  0  0
    6.8960  -75.5850   28.1360 C   0  0  0  0  0  0  0  0  0  0  0  0
    4.8610  -75.4400   30.0460 C   0  0  0  0  0  0  0  0  0  0  0  0
    3.6650  -73.7960   28.6530 C   0  0  0  0  0  0  0  0  0  0  0  0
    4.7150  -73.1500   26.6080 C   0  0  0  0  0  0  0  0  0  0  0  0
    3.6360  -73.0410   27.5370 C   0  0  0  0  0  0  0  0  0  0  0  0
    5.8070  -74.7420   27.9270 C   0  0  0  0  0  0  0  0  0  0  0  0
    4.7840  -74.6790   28.8780 C   0  0  0  0  0  0  0  0  0  0  0  0
    2.5552  -71.6181   26.5200 H   0  0  0  0  0  0  0  0  0  0  0  0
    6.4487  -74.0454   26.1240 H   0  0  0  0  0  0  0  0  0  0  0  0
    7.7372  -76.9639   29.4159 H   0  0  0  0  0  0  0  0  0  0  0  0
    5.9987  -76.8475   31.0349 H   0  0  0  0  0  0  0  0  0  0  0  0
    7.6307  -75.6302   27.4592 H   0  0  0  0  0  0  0  0  0  0  0  0
    4.1481  -75.3786   30.7446 H   0  0  0  0  0  0  0  0  0  0  0  0
    2.9196  -73.7449   29.3176 H   0  0  0  0  0  0  0  0  0  0  0  0
  1  9  2  0  0  0  0
  2 10  1  0  0  0  0
  3  9  1  0  0  0  0
  3 11  1  0  0  0  0
  4  5  2  0  0  0  0
  4  6  1  0  0  0  0
  5  7  1  0  0  0  0
  6 11  2  0  0  0  0
  7 12  2  0  0  0  0
  8 10  2  0  0  0  0
  8 12  1  0  0  0  0
  9 10  1  0  0  0  0
 11 12  1  0  0  0  0
  2 13  1  0  0  0  0
  3 14  1  0  0  0  0
  4 15  1  0  0  0  0
  5 16  1  0  0  0  0
  6 17  1  0  0  0  0
  7 18  1  0  0  0  0
  8 19  1  0  0  0  0
M  END
> <pdb_id>
3G3E

> <uniprot_id>
P14920

> <usmiles>
O=C1Nc2c(cccc2)C=C1O

$$$$
G3H_A_1268
          07192421023D 1   1.00000     0.00000     0
            
 17 16  0  0  0  0            999 V2000
   48.3199   29.4003   10.0086 P   0  0  0  0  0  0  0  0  0  0  0  0
   47.0312   30.2273   10.0027 O   0  0  0  0  0  0  0  0  0  0  0  0
   48.6599   28.7149    8.6867 O   0  0  0  0  0  0  0  0  0  0  0  0
   49.4851   30.1695   10.6242 O   0  0  0  0  0  0  0  0  0  0  0  0
   47.3043   27.3788   15.1237 O   0  0  0  0  0  0  0  0  0  0  0  0
   49.5125   29.3965   13.3157 O   0  0  0  0  0  0  0  0  0  0  0  0
   48.0323   28.1132   10.9287 O   0  0  0  0  0  0  0  0  0  0  0  0
   48.2224   28.2250   14.7163 C   0  0  0  0  0  0  0  0  0  0  0  0
   47.5745   28.3260   12.2773 C   0  0  0  0  0  0  0  0  0  0  0  0
   48.7066   28.1837   13.3183 C   0  0  1  0  0  0  0  0  0  0  0  0
   46.8927   30.6350   10.9053 H   0  0  0  0  0  0  0  0  0  0  0  0
   49.5124   28.2018    8.7869 H   0  0  0  0  0  0  0  0  0  0  0  0
   49.9251   29.5205   12.4133 H   0  0  0  0  0  0  0  0  0  0  0  0
   48.5956   28.8997   15.3530 H   0  0  0  0  0  0  0  0  0  0  0  0
   46.8632   27.6542   12.4838 H   0  0  0  0  0  0  0  0  0  0  0  0
   47.1920   29.2476   12.3440 H   0  0  0  0  0  0  0  0  0  0  0  0
   49.2641   27.3716   13.1463 H   0  0  0  0  0  0  0  0  0  0  0  0
  1  2  1  0  0  0  0
  1  3  1  0  0  0  0
  1  4  2  0  0  0  0
  1  7  1  0  0  0  0
  5  8  2  0  0  0  0
  6 10  1  0  0  0  0
  7  9  1  0  0  0  0
  8 10  1  0  0  0  0
  9 10  1  0  0  0  0
  2 11  1  0  0  0  0
  3 12  1  0  0  0  0
  6 13  1  0  0  0  0
  8 14  1  0  0  0  0
  9 15  1  0  0  0  0
  9 16  1  0  0  0  0
 10 17  1  0  0  0  0
M  END
> <pdb_id>
2CLK

> <uniprot_id>
P00929

> <usmiles>
P(=O)(OC[C@@H](O)C=O)(O)O

$$$$
G3R_A_1224
          07192420423D 1   1.00000     0.00000     0
            
 46 50  0  0  0  0            999 V2000
   71.3065   39.3258   17.5324 O   0  0  0  0  0  0  0  0  0  0  0  0
   73.3818   30.2619   24.3774 O   0  0  0  0  0  0  0  0  0  0  0  0
   71.1738   30.0504   24.1113 O   0  0  0  0  0  0  0  0  0  0  0  0
   65.0692   33.1735   25.4396 N   0  0  0  0  0  0  0  0  0  0  0  0
   67.3201   33.8492   25.5365 N   0  0  0  0  0  0  0  0  0  0  0  0
   69.7134   38.4157   19.8796 N   0  0  0  0  0  0  0  0  0  0  0  0
   66.0560   34.5971   23.7787 N   0  0  0  0  0  0  0  0  0  0  0  0
   69.8832   35.8405   23.9050 N   0  0  0  0  0  0  0  0  0  0  0  0
   68.0159   34.6762   24.6633 N   0  0  0  0  0  0  0  0  0  0  0  0
   72.3945   29.3829   23.8102 C   0  0  0  0  0  0  0  0  0  0  0  0
   71.7248   39.5072   18.8849 C   0  0  0  0  0  0  0  0  0  0  0  0
   71.1639   38.3502   19.7007 C   0  0  0  0  0  0  0  0  0  0  0  0
   73.3750   32.5678   25.3351 C   0  0  0  0  0  0  0  0  0  0  0  0
   67.7394   37.2646   20.6589 C   0  0  0  0  0  0  0  0  0  0  0  0
   72.4853   33.5785   25.6871 C   0  0  0  0  0  0  0  0  0  0  0  0
   67.0959   36.4137   21.5749 C   0  0  0  0  0  0  0  0  0  0  0  0
   70.5654   32.2769   24.9994 C   0  0  0  0  0  0  0  0  0  0  0  0
   70.1620   34.5600   25.9589 C   0  0  0  0  0  0  0  0  0  0  0  0
   69.8211   37.1184   21.8924 C   0  0  0  0  0  0  0  0  0  0  0  0
   66.1322   33.8799   24.9290 C   0  0  0  0  0  0  0  0  0  0  0  0
   72.7849   31.4079   24.8109 C   0  0  0  0  0  0  0  0  0  0  0  0
   71.4509   31.2752   24.6466 C   0  0  0  0  0  0  0  0  0  0  0  0
   69.3058   35.0359   24.8103 C   0  0  0  0  0  0  0  0  0  0  0  0
   69.0947   37.6026   20.7962 C   0  0  0  0  0  0  0  0  0  0  0  0
   67.2890   35.1072   23.6435 C   0  0  0  0  0  0  0  0  0  0  0  0
   69.1815   36.2912   22.8265 C   0  0  0  0  0  0  0  0  0  0  0  0
   71.0976   33.4400   25.5287 C   0  0  0  0  0  0  0  0  0  0  0  0
   67.8210   35.9256   22.6600 C   0  0  0  0  0  0  0  0  0  0  0  0
   71.6612   40.0732   16.9707 H   0  0  0  0  0  0  0  0  0  0  0  0
   64.1823   33.2017   24.9785 H   0  0  0  0  0  0  0  0  0  0  0  0
   65.1828   32.6315   26.2723 H   0  0  0  0  0  0  0  0  0  0  0  0
   69.1716   39.0542   19.3330 H   0  0  0  0  0  0  0  0  0  0  0  0
   72.4269   28.4797   24.2382 H   0  0  0  0  0  0  0  0  0  0  0  0
   72.5201   29.2885   22.8227 H   0  0  0  0  0  0  0  0  0  0  0  0
   71.3730   40.3745   19.2370 H   0  0  0  0  0  0  0  0  0  0  0  0
   72.7235   39.5074   18.9357 H   0  0  0  0  0  0  0  0  0  0  0  0
   71.3874   37.4949   19.2332 H   0  0  0  0  0  0  0  0  0  0  0  0
   71.5954   38.3596   20.6027 H   0  0  0  0  0  0  0  0  0  0  0  0
   74.3642   32.6617   25.4478 H   0  0  0  0  0  0  0  0  0  0  0  0
   67.2188   37.6381   19.8911 H   0  0  0  0  0  0  0  0  0  0  0  0
   72.8464   34.4310   26.0651 H   0  0  0  0  0  0  0  0  0  0  0  0
   66.1358   36.1635   21.4499 H   0  0  0  0  0  0  0  0  0  0  0  0
   69.5792   32.1656   24.8768 H   0  0  0  0  0  0  0  0  0  0  0  0
   69.5679   34.2247   26.6901 H   0  0  0  0  0  0  0  0  0  0  0  0
   70.7071   35.3270   26.2977 H   0  0  0  0  0  0  0  0  0  0  0  0
   70.7847   37.3600   22.0070 H   0  0  0  0  0  0  0  0  0  0  0  0
  1 11  1  0  0  0  0
  2 10  1  0  0  0  0
  2 21  1  0  0  0  0
  3 10  1  0  0  0  0
  3 22  1  0  0  0  0
  4 20  1  0  0  0  0
  5  9  1  0  0  0  0
  5 20  2  0  0  0  0
  6 12  1  0  0  0  0
  6 24  1  0  0  0  0
  7 20  1  0  0  0  0
  7 25  2  0  0  0  0
  8 23  2  0  0  0  0
  8 26  1  0  0  0  0
  9 23  1  0  0  0  0
  9 25  1  0  0  0  0
 11 12  1  0  0  0  0
 13 15  2  0  0  0  0
 13 21  1  0  0  0  0
 14 16  1  0  0  0  0
 14 24  2  0  0  0  0
 15 27  1  0  0  0  0
 16 28  2  0  0  0  0
 17 22  1  0  0  0  0
 17 27  2  0  0  0  0
 18 23  1  0  0  0  0
 18 27  1  0  0  0  0
 19 24  1  0  0  0  0
 19 26  2  0  0  0  0
 21 22  2  0  0  0  0
 25 28  1  0  0  0  0
 26 28  1  0  0  0  0
  1 29  1  0  0  0  0
  4 30  1  0  0  0  0
  4 31  1  0  0  0  0
  6 32  1  0  0  0  0
 10 33  1  0  0  0  0
 10 34  1  0  0  0  0
 11 35  1  0  0  0  0
 11 36  1  0  0  0  0
 12 37  1  0  0  0  0
 12 38  1  0  0  0  0
 13 39  1  0  0  0  0
 14 40  1  0  0  0  0
 15 41  1  0  0  0  0
 16 42  1  0  0  0  0
 17 43  1  0  0  0  0
 18 44  1  0  0  0  0
 18 45  1  0  0  0  0
 19 46  1  0  0  0  0
M  END
> <pdb_id>
4CWS

> <uniprot_id>
P07900

> <usmiles>
O1c2c(OC1)ccc(c2)CC3=Nc4c(ccc(NCCO)c4)C5=NC(=NN53)N

$$$$
G3X_A_1
          07192421493D 1   1.00000     0.00000     0
            
 63 67  0  0  0  0            999 V2000
    4.3090   67.3090   60.6060 O   0  0  0  0  0  0  0  0  0  0  0  0
    5.7690   63.4940   63.0770 O   0  0  0  0  0  0  0  0  0  0  0  0
    5.4180   66.4380   62.9160 O   0  0  0  0  0  0  0  0  0  0  0  0
    2.9890   65.9680   69.0730 N   0  0  0  0  0  0  0  0  0  0  0  0
    1.8830   67.3520   66.7520 N   0  0  0  0  0  0  0  0  0  0  0  0
    5.4870   62.1210   62.7380 C   0  0  0  0  0  0  0  0  0  0  0  0
    1.8410   66.5920   69.7480 C   0  0  0  0  0  0  0  0  0  0  0  0
    3.1530   64.5320   69.4200 C   0  0  0  0  0  0  0  0  0  0  0  0
    4.2200   66.7890   69.1470 C   0  0  0  0  0  0  0  0  0  0  0  0
    0.7920   67.6620   67.7080 C   0  0  0  0  0  0  0  0  0  0  0  0
    2.3970   68.6250   66.1400 C   0  0  0  0  0  0  0  0  0  0  0  0
    1.4690   66.2790   65.7830 C   0  0  0  0  0  0  0  0  0  0  0  0
    0.6320   66.6180   68.8170 C   0  0  0  0  0  0  0  0  0  0  0  0
    4.2150   63.9100   68.5060 C   0  0  0  0  0  0  0  0  0  0  0  0
    5.2840   66.1830   68.2300 C   0  0  0  0  0  0  0  0  0  0  0  0
    5.5220   64.7140   68.5980 C   0  0  0  0  0  0  0  0  0  0  0  0
    3.7750   63.4550   64.5180 C   0  0  0  0  0  0  0  0  0  0  0  0
    2.7350   68.5370   61.9470 C   0  0  0  0  0  0  0  0  0  0  0  0
    2.7550   64.1640   65.1940 C   0  0  0  0  0  0  0  0  0  0  0  0
    5.1840   68.8450   62.3430 C   0  0  0  0  0  0  0  0  0  0  0  0
    3.7720   68.4980   65.4610 C   0  0  0  0  0  0  0  0  0  0  0  0
    2.5760   68.0970   63.2320 C   0  0  0  0  0  0  0  0  0  0  0  0
    4.1020   68.5730   61.2700 C   0  0  1  0  0  0  0  0  0  0  0  0
    4.7220   64.1510   63.7200 C   0  0  0  0  0  0  0  0  0  0  0  0
    4.6330   65.5580   63.6060 C   0  0  0  0  0  0  0  0  0  0  0  0
    5.1390   67.7630   63.4890 C   0  0  1  0  0  0  0  0  0  0  0  0
    2.6630   65.5720   65.0880 C   0  0  0  0  0  0  0  0  0  0  0  0
    3.6240   66.2330   64.2900 C   0  0  0  0  0  0  0  0  0  0  0  0
    3.7170   67.6190   64.1980 C   0  0  1  0  0  0  0  0  0  0  0  0
    5.2014   67.3117   60.1548 H   0  0  0  0  0  0  0  0  0  0  0  0
    6.2818   61.7202   62.2823 H   0  0  0  0  0  0  0  0  0  0  0  0
    5.2860   61.6064   63.5715 H   0  0  0  0  0  0  0  0  0  0  0  0
    4.6977   62.0843   62.1251 H   0  0  0  0  0  0  0  0  0  0  0  0
    2.0789   67.5282   70.0066 H   0  0  0  0  0  0  0  0  0  0  0  0
    1.6148   66.0668   70.5684 H   0  0  0  0  0  0  0  0  0  0  0  0
    2.2827   64.0560   69.2936 H   0  0  0  0  0  0  0  0  0  0  0  0
    3.4426   64.4494   70.3736 H   0  0  0  0  0  0  0  0  0  0  0  0
    4.5575   66.8018   70.0882 H   0  0  0  0  0  0  0  0  0  0  0  0
    4.0174   67.7230   68.8528 H   0  0  0  0  0  0  0  0  0  0  0  0
   -0.0674   67.7171   67.1996 H   0  0  0  0  0  0  0  0  0  0  0  0
    0.9856   68.5466   68.1323 H   0  0  0  0  0  0  0  0  0  0  0  0
    2.4681   69.3124   66.8628 H   0  0  0  0  0  0  0  0  0  0  0  0
    1.7369   68.9301   65.4536 H   0  0  0  0  0  0  0  0  0  0  0  0
    0.8944   66.6948   65.0780 H   0  0  0  0  0  0  0  0  0  0  0  0
    0.9408   65.5909   66.2805 H   0  0  0  0  0  0  0  0  0  0  0  0
   -0.1841   66.8363   69.3520 H   0  0  0  0  0  0  0  0  0  0  0  0
    0.5253   65.7156   68.3994 H   0  0  0  0  0  0  0  0  0  0  0  0
    3.8860   63.9192   67.5617 H   0  0  0  0  0  0  0  0  0  0  0  0
    4.3856   62.9666   68.7904 H   0  0  0  0  0  0  0  0  0  0  0  0
    6.1384   66.6924   68.3330 H   0  0  0  0  0  0  0  0  0  0  0  0
    4.9741   66.2402   67.2809 H   0  0  0  0  0  0  0  0  0  0  0  0
    6.1928   64.3227   67.9680 H   0  0  0  0  0  0  0  0  0  0  0  0
    5.8733   64.6629   69.5329 H   0  0  0  0  0  0  0  0  0  0  0  0
    3.8298   62.4600   64.6021 H   0  0  0  0  0  0  0  0  0  0  0  0
    1.9320   68.8441   61.4362 H   0  0  0  0  0  0  0  0  0  0  0  0
    2.0922   63.6653   65.7525 H   0  0  0  0  0  0  0  0  0  0  0  0
    5.0274   69.7486   62.7418 H   0  0  0  0  0  0  0  0  0  0  0  0
    6.0850   68.8234   61.9098 H   0  0  0  0  0  0  0  0  0  0  0  0
    4.4151   68.0905   66.1094 H   0  0  0  0  0  0  0  0  0  0  0  0
    4.0903   69.4107   65.2047 H   0  0  0  0  0  0  0  0  0  0  0  0
    1.6428   68.0780   63.5908 H   0  0  0  0  0  0  0  0  0  0  0  0
    4.1161   69.3084   60.5926 H   0  0  0  0  0  0  0  0  0  0  0  0
    5.8320   67.9794   64.1767 H   0  0  0  0  0  0  0  0  0  0  0  0
  1 23  1  0  0  0  0
  2  6  1  0  0  0  0
  2 24  1  0  0  0  0
  3 25  1  0  0  0  0
  3 26  1  0  0  0  0
  4  7  1  0  0  0  0
  4  8  1  0  0  0  0
  4  9  1  0  0  0  0
  5 10  1  0  0  0  0
  5 11  1  0  0  0  0
  5 12  1  0  0  0  0
  7 13  1  0  0  0  0
  8 14  1  0  0  0  0
  9 15  1  0  0  0  0
 10 13  1  0  0  0  0
 11 21  1  0  0  0  0
 12 27  1  0  0  0  0
 14 16  1  0  0  0  0
 15 16  1  0  0  0  0
 17 19  2  0  0  0  0
 17 24  1  0  0  0  0
 18 22  2  0  0  0  0
 18 23  1  0  0  0  0
 19 27  1  0  0  0  0
 20 23  1  0  0  0  0
 20 26  1  0  0  0  0
 21 29  1  0  0  0  0
 22 29  1  0  0  0  0
 24 25  2  0  0  0  0
 25 28  1  0  0  0  0
 26 29  1  0  0  0  0
 27 28  2  0  0  0  0
 28 29  1  0  0  0  0
  1 30  1  0  0  0  0
  6 31  1  0  0  0  0
  6 32  1  0  0  0  0
  6 33  1  0  0  0  0
  7 34  1  0  0  0  0
  7 35  1  0  0  0  0
  8 36  1  0  0  0  0
  8 37  1  0  0  0  0
  9 38  1  0  0  0  0
  9 39  1  0  0  0  0
 10 40  1  0  0  0  0
 10 41  1  0  0  0  0
 11 42  1  0  0  0  0
 11 43  1  0  0  0  0
 12 44  1  0  0  0  0
 12 45  1  0  0  0  0
 13 46  1  0  0  0  0
 13 47  1  0  0  0  0
 14 48  1  0  0  0  0
 14 49  1  0  0  0  0
 15 50  1  0  0  0  0
 15 51  1  0  0  0  0
 16 52  1  0  0  0  0
 16 53  1  0  0  0  0
 17 54  1  0  0  0  0
 18 55  1  0  0  0  0
 19 56  1  0  0  0  0
 20 57  1  0  0  0  0
 20 58  1  0  0  0  0
 21 59  1  0  0  0  0
 21 60  1  0  0  0  0
 22 61  1  0  0  0  0
 23 62  1  0  0  0  0
 26 63  1  0  0  0  0
M  END
> <pdb_id>
3I6M

> <uniprot_id>
P04058

> <usmiles>
O1c2c(OC)ccc3c2[C@@]4(C=C[C@H](O)C[C@H]14)CCN(C3)CCCN5CCCCC5

$$$$
G3Z_A_301
          07202407183D 1   1.00000     0.00000     0
            
 49 52  0  0  0  0            999 V2000
   27.1469   18.2663   -2.7674 O   0  0  0  0  0  0  0  0  0  0  0  0
   25.6204   21.0562   -7.0357 N   0  0  0  0  0  0  0  0  0  0  0  0
   37.0663   19.9143   -7.2229 N   0  0  0  0  0  0  0  0  0  0  0  0
   27.2146   16.6668   -1.2070 N   0  0  0  0  0  0  0  0  0  0  0  0
   31.0189   17.2013   -3.5147 N   0  0  0  0  0  0  0  0  0  0  0  0
   28.8862   16.8059   -2.7250 N   0  0  0  0  0  0  0  0  0  0  0  0
   33.7746   18.9908   -6.0070 N   0  0  0  0  0  0  0  0  0  0  0  0
   26.1052   16.4758    0.9277 C   0  0  0  0  0  0  0  0  0  0  0  0
   25.9961   17.0147   -0.4932 C   0  0  0  0  0  0  0  0  0  0  0  0
   36.9985   19.6270   -8.5375 C   0  0  0  0  0  0  0  0  0  0  0  0
   26.3736   20.7940   -8.1222 C   0  0  0  0  0  0  0  0  0  0  0  0
   26.1155   20.9166   -5.7846 C   0  0  0  0  0  0  0  0  0  0  0  0
   36.0210   19.7160   -6.3937 C   0  0  0  0  0  0  0  0  0  0  0  0
   31.9028   17.7771   -4.3345 C   0  0  0  0  0  0  0  0  0  0  0  0
   35.8212   19.0994   -9.0684 C   0  0  0  0  0  0  0  0  0  0  0  0
   27.7047   20.3733   -7.9864 C   0  0  0  0  0  0  0  0  0  0  0  0
   27.4402   20.5151   -5.5869 C   0  0  0  0  0  0  0  0  0  0  0  0
   34.7242   18.8840   -8.2304 C   0  0  0  0  0  0  0  0  0  0  0  0
   31.9943   20.1236   -7.1962 C   0  0  0  0  0  0  0  0  0  0  0  0
   30.6289   20.3919   -7.3411 C   0  0  0  0  0  0  0  0  0  0  0  0
   29.2073   18.3095   -4.6036 C   0  0  0  0  0  0  0  0  0  0  0  0
   27.7255   17.2968   -2.2633 C   0  0  0  0  0  0  0  0  0  0  0  0
   29.6975   17.4480   -3.6026 C   0  0  0  0  0  0  0  0  0  0  0  0
   34.8192   19.2037   -6.8722 C   0  0  0  0  0  0  0  0  0  0  0  0
   32.4406   19.2589   -6.1904 C   0  0  0  0  0  0  0  0  0  0  0  0
   28.2427   20.2006   -6.7005 C   0  0  0  0  0  0  0  0  0  0  0  0
   31.4823   18.6503   -5.3533 C   0  0  0  0  0  0  0  0  0  0  0  0
   29.6764   19.8102   -6.4919 C   0  0  0  0  0  0  0  0  0  0  0  0
   30.1090   18.9276   -5.4817 C   0  0  0  0  0  0  0  0  0  0  0  0
   27.7207   15.8729   -0.8700 H   0  0  0  0  0  0  0  0  0  0  0  0
   29.1728   15.9048   -2.3996 H   0  0  0  0  0  0  0  0  0  0  0  0
   34.0179   18.5865   -5.1253 H   0  0  0  0  0  0  0  0  0  0  0  0
   25.2751   16.7053    1.4359 H   0  0  0  0  0  0  0  0  0  0  0  0
   26.2150   15.4822    0.8998 H   0  0  0  0  0  0  0  0  0  0  0  0
   26.8971   16.8861    1.3799 H   0  0  0  0  0  0  0  0  0  0  0  0
   25.2071   16.6049   -0.9509 H   0  0  0  0  0  0  0  0  0  0  0  0
   25.8892   18.0088   -0.4708 H   0  0  0  0  0  0  0  0  0  0  0  0
   37.7877   19.7910   -9.1294 H   0  0  0  0  0  0  0  0  0  0  0  0
   25.9792   20.9006   -9.0350 H   0  0  0  0  0  0  0  0  0  0  0  0
   25.5299   21.1018   -4.9954 H   0  0  0  0  0  0  0  0  0  0  0  0
   36.1109   19.9399   -5.4233 H   0  0  0  0  0  0  0  0  0  0  0  0
   32.8776   17.5842   -4.2220 H   0  0  0  0  0  0  0  0  0  0  0  0
   35.7629   18.8770  -10.0416 H   0  0  0  0  0  0  0  0  0  0  0  0
   28.2646   20.1983   -8.7963 H   0  0  0  0  0  0  0  0  0  0  0  0
   27.8148   20.4517   -4.6618 H   0  0  0  0  0  0  0  0  0  0  0  0
   33.8763   18.5036   -8.5995 H   0  0  0  0  0  0  0  0  0  0  0  0
   32.6542   20.5515   -7.8139 H   0  0  0  0  0  0  0  0  0  0  0  0
   30.3258   21.0113   -8.0654 H   0  0  0  0  0  0  0  0  0  0  0  0
   28.2253   18.4787   -4.6871 H   0  0  0  0  0  0  0  0  0  0  0  0
  1 22  2  0  0  0  0
  2 11  2  0  0  0  0
  2 12  1  0  0  0  0
  3 10  2  0  0  0  0
  3 13  1  0  0  0  0
  4  9  1  0  0  0  0
  4 22  1  0  0  0  0
  5 14  1  0  0  0  0
  5 23  2  0  0  0  0
  6 22  1  0  0  0  0
  6 23  1  0  0  0  0
  7 24  1  0  0  0  0
  7 25  1  0  0  0  0
  8  9  1  0  0  0  0
 10 15  1  0  0  0  0
 11 16  1  0  0  0  0
 12 17  2  0  0  0  0
 13 24  2  0  0  0  0
 14 27  2  0  0  0  0
 15 18  2  0  0  0  0
 16 26  2  0  0  0  0
 17 26  1  0  0  0  0
 18 24  1  0  0  0  0
 19 20  1  0  0  0  0
 19 25  2  0  0  0  0
 20 28  2  0  0  0  0
 21 23  1  0  0  0  0
 21 29  2  0  0  0  0
 25 27  1  0  0  0  0
 26 28  1  0  0  0  0
 27 29  1  0  0  0  0
 28 29  1  0  0  0  0
  4 30  1  0  0  0  0
  6 31  1  0  0  0  0
  7 32  1  0  0  0  0
  8 33  1  0  0  0  0
  8 34  1  0  0  0  0
  8 35  1  0  0  0  0
  9 36  1  0  0  0  0
  9 37  1  0  0  0  0
 10 38  1  0  0  0  0
 11 39  1  0  0  0  0
 12 40  1  0  0  0  0
 13 41  1  0  0  0  0
 14 42  1  0  0  0  0
 15 43  1  0  0  0  0
 16 44  1  0  0  0  0
 17 45  1  0  0  0  0
 18 46  1  0  0  0  0
 19 47  1  0  0  0  0
 20 48  1  0  0  0  0
 21 49  1  0  0  0  0
M  END
> <pdb_id>
5MMP

> <uniprot_id>
P0AES7

> <usmiles>
O=C(Nc1ncc2c(Nc3cnccc3)ccc(c2c1)c4ccncc4)NCC

$$$$
G54_A_4000
          07192419483D 1   1.00000     0.00000     0
            
 37 40  0  0  0  0            999 V2000
   14.1187   22.6258   30.3190 N   0  0  0  0  0  0  0  0  0  0  0  0
   21.2366   21.1561   28.9240 N   0  0  0  0  0  0  0  0  0  0  0  0
   20.4768   23.1999   27.9024 N   0  0  0  0  0  0  0  0  0  0  0  0
   19.5106   20.0380   30.2153 N   0  0  0  0  0  0  0  0  0  0  0  0
   13.7153   24.4895   28.6668 N   0  0  0  0  0  0  0  0  0  0  0  0
   14.1496   23.2510   26.5157 C   0  0  0  0  0  0  0  0  0  0  0  0
   13.9062   23.5051   29.5935 C   0  0  0  0  0  0  0  0  0  0  0  0
   21.3828   22.2554   28.1821 C   0  0  0  0  0  0  0  0  0  0  0  0
   18.2102   20.2990   30.5496 C   0  0  0  0  0  0  0  0  0  0  0  0
   17.8139   21.4778   30.0057 C   0  0  0  0  0  0  0  0  0  0  0  0
   17.6627   26.3588   27.3958 C   0  0  0  0  0  0  0  0  0  0  0  0
   18.6106   25.4177   27.7566 C   0  0  0  0  0  0  0  0  0  0  0  0
   15.1341   26.8452   26.8784 C   0  0  0  0  0  0  0  0  0  0  0  0
   14.0259   25.8065   26.5829 C   0  0  0  0  0  0  0  0  0  0  0  0
   16.8932   23.7627   27.9292 C   0  0  0  0  0  0  0  0  0  0  0  0
   19.9930   21.0495   29.4423 C   0  0  0  0  0  0  0  0  0  0  0  0
   19.2495   23.0823   28.4363 C   0  0  0  0  0  0  0  0  0  0  0  0
   16.3175   26.0072   27.2986 C   0  0  0  0  0  0  0  0  0  0  0  0
   18.2444   24.1021   28.0316 C   0  0  0  0  0  0  0  0  0  0  0  0
   18.9215   22.0082   29.2689 C   0  0  0  0  0  0  0  0  0  0  0  0
   15.9267   24.6996   27.5641 C   0  0  0  0  0  0  0  0  0  0  0  0
   14.4330   24.4987   27.3587 C   0  0  1  0  0  0  0  0  0  0  0  0
   20.0273   19.2290   30.4955 H   0  0  0  0  0  0  0  0  0  0  0  0
   13.9503   25.3493   29.1203 H   0  0  0  0  0  0  0  0  0  0  0  0
   14.6536   23.3095   25.6539 H   0  0  0  0  0  0  0  0  0  0  0  0
   14.4407   22.4365   27.0175 H   0  0  0  0  0  0  0  0  0  0  0  0
   13.1696   23.1928   26.3254 H   0  0  0  0  0  0  0  0  0  0  0  0
   22.2892   22.3916   27.7822 H   0  0  0  0  0  0  0  0  0  0  0  0
   17.6345   19.7068   31.1134 H   0  0  0  0  0  0  0  0  0  0  0  0
   16.9122   21.8993   30.1019 H   0  0  0  0  0  0  0  0  0  0  0  0
   17.9449   27.2986   27.2032 H   0  0  0  0  0  0  0  0  0  0  0  0
   19.5719   25.6857   27.8208 H   0  0  0  0  0  0  0  0  0  0  0  0
   14.8560   27.4620   27.6147 H   0  0  0  0  0  0  0  0  0  0  0  0
   15.3488   27.3785   26.0601 H   0  0  0  0  0  0  0  0  0  0  0  0
   13.9735   25.6251   25.6008 H   0  0  0  0  0  0  0  0  0  0  0  0
   13.1413   26.1413   26.9076 H   0  0  0  0  0  0  0  0  0  0  0  0
   16.6115   22.8229   28.1229 H   0  0  0  0  0  0  0  0  0  0  0  0
  1  7  3  0  0  0  0
  2  8  2  0  0  0  0
  2 16  1  0  0  0  0
  3  8  1  0  0  0  0
  3 17  2  0  0  0  0
  4  9  1  0  0  0  0
  4 16  1  0  0  0  0
  5  7  1  0  0  0  0
  5 22  1  0  0  0  0
  6 22  1  0  0  0  0
  9 10  2  0  0  0  0
 10 20  1  0  0  0  0
 11 12  1  0  0  0  0
 11 18  2  0  0  0  0
 12 19  2  0  0  0  0
 13 14  1  0  0  0  0
 13 18  1  0  0  0  0
 14 22  1  0  0  0  0
 15 19  1  0  0  0  0
 15 21  2  0  0  0  0
 16 20  2  0  0  0  0
 17 19  1  0  0  0  0
 17 20  1  0  0  0  0
 18 21  1  0  0  0  0
 21 22  1  0  0  0  0
  4 23  1  0  0  0  0
  5 24  1  0  0  0  0
  6 25  1  0  0  0  0
  6 26  1  0  0  0  0
  6 27  1  0  0  0  0
  8 28  1  0  0  0  0
  9 29  1  0  0  0  0
 10 30  1  0  0  0  0
 11 31  1  0  0  0  0
 12 32  1  0  0  0  0
 13 33  1  0  0  0  0
 13 34  1  0  0  0  0
 14 35  1  0  0  0  0
 14 36  1  0  0  0  0
 15 37  1  0  0  0  0
M  END
> <pdb_id>
6DB3

> <uniprot_id>
P52333

> <usmiles>
N#CN[C@@]1(c2c(ccc(c3ncnc4NC=Cc43)c2)CC1)C

$$$$
G6P_B_401
          07202404473D 1   1.00000     0.00000     0
            
 29 29  0  0  0  0            999 V2000
  -11.8466   -9.0512    9.0779 P   0  0  0  0  0  0  0  0  0  0  0  0
  -12.7086   -9.5310    7.9495 O   0  0  0  0  0  0  0  0  0  0  0  0
  -10.9089  -10.0613    9.4522 O   0  0  0  0  0  0  0  0  0  0  0  0
  -11.1762   -7.8114    8.8480 O   0  0  0  0  0  0  0  0  0  0  0  0
  -15.6894  -11.5446   12.7773 O   0  0  0  0  0  0  0  0  0  0  0  0
  -16.0984  -10.4744   15.3118 O   0  0  0  0  0  0  0  0  0  0  0  0
  -13.9675   -8.9093   16.2015 O   0  0  0  0  0  0  0  0  0  0  0  0
  -12.6737   -7.3801   14.3853 O   0  0  0  0  0  0  0  0  0  0  0  0
  -12.7938   -8.9139   10.3355 O   0  0  0  0  0  0  0  0  0  0  0  0
  -13.9573  -10.0444   12.4196 O   0  0  0  0  0  0  0  0  0  0  0  0
  -12.3230   -8.6322   11.6143 C   0  0  0  0  0  0  0  0  0  0  0  0
  -15.0105  -10.4603   13.1666 C   0  0  2  0  0  0  0  0  0  0  0  0
  -14.8549  -10.2921   14.5828 C   0  0  1  0  0  0  0  0  0  0  0  0
  -14.2689   -8.9297   14.8499 C   0  0  2  0  0  0  0  0  0  0  0  0
  -13.0296   -8.6472   14.0437 C   0  0  1  0  0  0  0  0  0  0  0  0
  -13.4564   -8.7643   12.6062 C   0  0  2  0  0  0  0  0  0  0  0  0
  -13.3591   -8.8141    7.6989 H   0  0  0  0  0  0  0  0  0  0  0  0
  -10.3418   -9.7272   10.2049 H   0  0  0  0  0  0  0  0  0  0  0  0
  -16.4307  -11.7237   13.4242 H   0  0  0  0  0  0  0  0  0  0  0  0
  -15.9333  -10.3465   16.2898 H   0  0  0  0  0  0  0  0  0  0  0  0
  -13.5719   -8.0228   16.4414 H   0  0  0  0  0  0  0  0  0  0  0  0
  -11.8488   -7.1190   13.8840 H   0  0  0  0  0  0  0  0  0  0  0  0
  -11.9641   -7.6991   11.6398 H   0  0  0  0  0  0  0  0  0  0  0  0
  -11.5952   -9.2758   11.8513 H   0  0  0  0  0  0  0  0  0  0  0  0
  -15.6763   -9.7417   12.9658 H   0  0  0  0  0  0  0  0  0  0  0  0
  -14.2032  -10.9781   14.9062 H   0  0  0  0  0  0  0  0  0  0  0  0
  -14.9565   -8.2304   14.6544 H   0  0  0  0  0  0  0  0  0  0  0  0
  -12.3016   -9.2980   14.2592 H   0  0  0  0  0  0  0  0  0  0  0  0
  -14.1654   -8.0884   12.4052 H   0  0  0  0  0  0  0  0  0  0  0  0
  1  2  1  0  0  0  0
  1  3  1  0  0  0  0
  1  4  2  0  0  0  0
  1  9  1  0  0  0  0
  5 12  1  0  0  0  0
  6 13  1  0  0  0  0
  7 14  1  0  0  0  0
  8 15  1  0  0  0  0
  9 11  1  0  0  0  0
 10 12  1  0  0  0  0
 10 16  1  0  0  0  0
 11 16  1  0  0  0  0
 12 13  1  0  0  0  0
 13 14  1  0  0  0  0
 14 15  1  0  0  0  0
 15 16  1  0  0  0  0
  2 17  1  0  0  0  0
  3 18  1  0  0  0  0
  5 19  1  0  0  0  0
  6 20  1  0  0  0  0
  7 21  1  0  0  0  0
  8 22  1  0  0  0  0
 11 23  1  0  0  0  0
 11 24  1  0  0  0  0
 12 25  1  0  0  0  0
 13 26  1  0  0  0  0
 14 27  1  0  0  0  0
 15 28  1  0  0  0  0
 16 29  1  0  0  0  0
M  END
> <pdb_id>
4R73

> <uniprot_id>
A3N294

> <usmiles>
P(=O)(OC[C@H]1O[C@@H](O)[C@H](O)[C@@H](O)[C@@H]1O)(O)O

$$$$
G88_A_905
          07202412173D 1   1.00000     0.00000     0
            
 25 24  0  0  0  0            999 V2000
   17.6680   43.7112   43.5993 P   0  0  0  0  0  0  0  0  0  0  0  0
   16.6050   43.0040   44.2214 O   0  0  0  0  0  0  0  0  0  0  0  0
   18.3175   42.8259   42.5846 O   0  0  0  0  0  0  0  0  0  0  0  0
   18.6531   44.3914   44.5235 O   0  0  0  0  0  0  0  0  0  0  0  0
   13.8316   48.7044   40.5937 O   0  0  0  0  0  0  0  0  0  0  0  0
   13.2456   47.0560   39.3001 O   0  0  0  0  0  0  0  0  0  0  0  0
   16.9006   43.5733   39.4103 O   0  0  0  0  0  0  0  0  0  0  0  0
   18.0281   45.2116   40.3227 O   0  0  0  0  0  0  0  0  0  0  0  0
   16.7199   44.9624   42.7620 C   0  0  0  0  0  0  0  0  0  0  0  0
   15.0779   46.7221   40.8160 C   0  0  0  0  0  0  0  0  0  0  0  0
   14.8186   45.2384   41.0371 C   0  0  0  0  0  0  0  0  0  0  0  0
   13.9565   47.5471   40.1999 C   0  0  0  0  0  0  0  0  0  0  0  0
   17.0913   44.4010   40.3161 C   0  0  0  0  0  0  0  0  0  0  0  0
   16.0733   44.4393   41.4619 C   0  0  1  0  0  0  0  0  0  0  0  0
   16.1667   43.5917   44.9015 H   0  0  0  0  0  0  0  0  0  0  0  0
   19.0672   43.3189   42.1431 H   0  0  0  0  0  0  0  0  0  0  0  0
   14.4260   49.0528   41.3184 H   0  0  0  0  0  0  0  0  0  0  0  0
   16.1249   42.9444   39.4628 H   0  0  0  0  0  0  0  0  0  0  0  0
   17.3249   45.7257   42.5352 H   0  0  0  0  0  0  0  0  0  0  0  0
   15.9967   45.2810   43.3747 H   0  0  0  0  0  0  0  0  0  0  0  0
   15.8730   46.8009   40.2147 H   0  0  0  0  0  0  0  0  0  0  0  0
   15.2918   47.1247   41.7060 H   0  0  0  0  0  0  0  0  0  0  0  0
   14.4711   44.8489   40.1841 H   0  0  0  0  0  0  0  0  0  0  0  0
   14.1271   45.1429   41.7532 H   0  0  0  0  0  0  0  0  0  0  0  0
   15.7824   43.4979   41.6326 H   0  0  0  0  0  0  0  0  0  0  0  0
  1  2  1  0  0  0  0
  1  3  1  0  0  0  0
  1  4  2  0  0  0  0
  1  9  1  0  0  0  0
  5 12  1  0  0  0  0
  6 12  2  0  0  0  0
  7 13  1  0  0  0  0
  8 13  2  0  0  0  0
  9 14  1  0  0  0  0
 10 11  1  0  0  0  0
 10 12  1  0  0  0  0
 11 14  1  0  0  0  0
 13 14  1  0  0  0  0
  2 15  1  0  0  0  0
  3 16  1  0  0  0  0
  5 17  1  0  0  0  0
  7 18  1  0  0  0  0
  9 19  1  0  0  0  0
  9 20  1  0  0  0  0
 10 21  1  0  0  0  0
 10 22  1  0  0  0  0
 11 23  1  0  0  0  0
 11 24  1  0  0  0  0
 14 25  1  0  0  0  0
M  END
> <pdb_id>
6RTI

> <uniprot_id>
Q04609

> <usmiles>
P(=O)(O)(O)C[C@H](C(=O)O)CCC(=O)O

$$$$
G8B_A_401
          07202403123D 1   1.00000     0.00000     0
            
 60 63  0  0  0  0            999 V2000
   42.5078    1.7814   32.8496 S   0  0  0  0  0  0  0  0  0  0  0  0
   42.1126    0.7824   33.8028 O   0  0  0  0  0  0  0  0  0  0  0  0
   41.9793    1.9290   31.5256 O   0  0  0  0  0  0  0  0  0  0  0  0
   38.6676   10.8483   35.0225 O   0  0  0  0  0  0  0  0  0  0  0  0
   39.1991    8.2220   30.9652 O   0  0  0  0  0  0  0  0  0  0  0  0
   39.9705   10.4810   37.3175 N   0  0  0  0  0  0  0  0  0  0  0  0
   41.1348    8.4413   37.4811 N   0  0  0  0  0  0  0  0  0  0  0  0
   39.0666    9.3645   33.3195 N   0  0  0  0  0  0  0  0  0  0  0  0
   40.3604    7.8372   34.8557 N   0  0  0  0  0  0  0  0  0  0  0  0
   44.0982    1.5602   32.6205 N   0  0  0  0  0  0  0  0  0  0  0  0
   46.8763    2.2288   32.5778 N   0  0  0  0  0  0  0  0  0  0  0  0
   39.2931    7.5207   29.7230 C   0  0  0  0  0  0  0  0  0  0  0  0
   48.3361    2.0561   32.3286 C   0  0  0  0  0  0  0  0  0  0  0  0
   44.6429    2.4325   31.5601 C   0  0  0  0  0  0  0  0  0  0  0  0
   44.8837    1.4530   33.8556 C   0  0  0  0  0  0  0  0  0  0  0  0
   46.1049    2.1534   31.3099 C   0  0  0  0  0  0  0  0  0  0  0  0
   46.3404    1.2309   33.5473 C   0  0  0  0  0  0  0  0  0  0  0  0
   41.4993    7.2908   36.8795 C   0  0  0  0  0  0  0  0  0  0  0  0
   36.8268   10.8868   30.1369 C   0  0  0  0  0  0  0  0  0  0  0  0
   36.7527   11.5094   31.3523 C   0  0  0  0  0  0  0  0  0  0  0  0
   41.9433    4.4907   32.8542 C   0  0  0  0  0  0  0  0  0  0  0  0
   41.9447    3.3704   34.9869 C   0  0  0  0  0  0  0  0  0  0  0  0
   37.6327    9.7895   29.9560 C   0  0  0  0  0  0  0  0  0  0  0  0
   37.4814   11.0435   32.4217 C   0  0  0  0  0  0  0  0  0  0  0  0
   41.6180    5.6938   33.4680 C   0  0  0  0  0  0  0  0  0  0  0  0
   41.6180    4.5666   35.5820 C   0  0  0  0  0  0  0  0  0  0  0  0
   42.1114    3.3356   33.6183 C   0  0  0  0  0  0  0  0  0  0  0  0
   39.1651    9.8327   34.5668 C   0  0  0  0  0  0  0  0  0  0  0  0
   40.3719    9.3208   36.7713 C   0  0  0  0  0  0  0  0  0  0  0  0
   38.3724    9.3010   31.0182 C   0  0  0  0  0  0  0  0  0  0  0  0
   38.3078    9.9409   32.2738 C   0  0  0  0  0  0  0  0  0  0  0  0
   41.1127    6.9771   35.5624 C   0  0  0  0  0  0  0  0  0  0  0  0
   39.9941    8.9798   35.4328 C   0  0  0  0  0  0  0  0  0  0  0  0
   41.4589    5.7381   34.8540 C   0  0  0  0  0  0  0  0  0  0  0  0
   39.4112   11.1170   36.7857 H   0  0  0  0  0  0  0  0  0  0  0  0
   40.2310   10.7085   38.2558 H   0  0  0  0  0  0  0  0  0  0  0  0
   39.5755    8.5307   33.1055 H   0  0  0  0  0  0  0  0  0  0  0  0
   39.9290    6.7551   29.8198 H   0  0  0  0  0  0  0  0  0  0  0  0
   38.3907    7.1742   29.4668 H   0  0  0  0  0  0  0  0  0  0  0  0
   39.6252    8.1423   29.0136 H   0  0  0  0  0  0  0  0  0  0  0  0
   48.8311    2.1109   33.1958 H   0  0  0  0  0  0  0  0  0  0  0  0
   48.4991    1.1638   31.9076 H   0  0  0  0  0  0  0  0  0  0  0  0
   48.6573    2.7778   31.7153 H   0  0  0  0  0  0  0  0  0  0  0  0
   44.5375    3.3871   31.8387 H   0  0  0  0  0  0  0  0  0  0  0  0
   44.1326    2.2737   30.7149 H   0  0  0  0  0  0  0  0  0  0  0  0
   44.5421    0.6835   34.3952 H   0  0  0  0  0  0  0  0  0  0  0  0
   44.7852    2.2982   34.3808 H   0  0  0  0  0  0  0  0  0  0  0  0
   46.2026    1.2378   30.9197 H   0  0  0  0  0  0  0  0  0  0  0  0
   46.4633    2.8299   30.6664 H   0  0  0  0  0  0  0  0  0  0  0  0
   46.8622    1.2976   34.3978 H   0  0  0  0  0  0  0  0  0  0  0  0
   46.4505    0.3157   33.1596 H   0  0  0  0  0  0  0  0  0  0  0  0
   42.0632    6.6384   37.3858 H   0  0  0  0  0  0  0  0  0  0  0  0
   36.2874   11.2350   29.3702 H   0  0  0  0  0  0  0  0  0  0  0  0
   36.1639   12.3099   31.4644 H   0  0  0  0  0  0  0  0  0  0  0  0
   42.0572    4.4525   31.8615 H   0  0  0  0  0  0  0  0  0  0  0  0
   42.0592    2.5424   35.5358 H   0  0  0  0  0  0  0  0  0  0  0  0
   37.6845    9.3460   29.0613 H   0  0  0  0  0  0  0  0  0  0  0  0
   37.4147   11.5014   33.3082 H   0  0  0  0  0  0  0  0  0  0  0  0
   41.4987    6.5221   32.9207 H   0  0  0  0  0  0  0  0  0  0  0  0
   41.4905    4.5935   36.5734 H   0  0  0  0  0  0  0  0  0  0  0  0
  1  2  2  0  0  0  0
  1  3  2  0  0  0  0
  1 10  1  0  0  0  0
  1 27  1  0  0  0  0
  4 28  2  0  0  0  0
  5 12  1  0  0  0  0
  5 30  1  0  0  0  0
  6 29  1  0  0  0  0
  7 18  1  0  0  0  0
  7 29  2  0  0  0  0
  8 28  1  0  0  0  0
  8 31  1  0  0  0  0
  9 32  1  0  0  0  0
  9 33  2  0  0  0  0
 10 14  1  0  0  0  0
 10 15  1  0  0  0  0
 11 13  1  0  0  0  0
 11 16  1  0  0  0  0
 11 17  1  0  0  0  0
 14 16  1  0  0  0  0
 15 17  1  0  0  0  0
 18 32  2  0  0  0  0
 19 20  2  0  0  0  0
 19 23  1  0  0  0  0
 20 24  1  0  0  0  0
 21 25  1  0  0  0  0
 21 27  2  0  0  0  0
 22 26  2  0  0  0  0
 22 27  1  0  0  0  0
 23 30  2  0  0  0  0
 24 31  2  0  0  0  0
 25 34  2  0  0  0  0
 26 34  1  0  0  0  0
 28 33  1  0  0  0  0
 29 33  1  0  0  0  0
 30 31  1  0  0  0  0
 32 34  1  0  0  0  0
  6 35  1  0  0  0  0
  6 36  1  0  0  0  0
  8 37  1  0  0  0  0
 12 38  1  0  0  0  0
 12 39  1  0  0  0  0
 12 40  1  0  0  0  0
 13 41  1  0  0  0  0
 13 42  1  0  0  0  0
 13 43  1  0  0  0  0
 14 44  1  0  0  0  0
 14 45  1  0  0  0  0
 15 46  1  0  0  0  0
 15 47  1  0  0  0  0
 16 48  1  0  0  0  0
 16 49  1  0  0  0  0
 17 50  1  0  0  0  0
 17 51  1  0  0  0  0
 18 52  1  0  0  0  0
 19 53  1  0  0  0  0
 20 54  1  0  0  0  0
 21 55  1  0  0  0  0
 22 56  1  0  0  0  0
 23 57  1  0  0  0  0
 24 58  1  0  0  0  0
 25 59  1  0  0  0  0
 26 60  1  0  0  0  0
M  END
> <pdb_id>
6HK3

> <uniprot_id>
P49841

> <usmiles>
S(=O)(=O)(N1CCN(CC1)C)c2ccc(c3nc(c(nc3)N)C(=O)Nc4c(OC)cccc4)cc2

$$$$
G8E_A_408
          07202403123D 1   1.00000     0.00000     0
            
 49 52  0  0  0  0            999 V2000
   43.1818    1.6066   33.0035 S   0  0  0  0  0  0  0  0  0  0  0  0
   42.7882    0.4418   34.0926 O   0  0  0  0  0  0  0  0  0  0  0  0
   42.6288    1.3497   31.4826 O   0  0  0  0  0  0  0  0  0  0  0  0
   38.7626   10.8229   34.4321 O   0  0  0  0  0  0  0  0  0  0  0  0
   47.3026    2.6856   32.7091 O   0  0  0  0  0  0  0  0  0  0  0  0
   39.9699   10.4919   36.8008 N   0  0  0  0  0  0  0  0  0  0  0  0
   37.2846    9.7580   29.4945 N   0  0  0  0  0  0  0  0  0  0  0  0
   41.1390    8.4065   36.9981 N   0  0  0  0  0  0  0  0  0  0  0  0
   38.9486    9.1689   32.7286 N   0  0  0  0  0  0  0  0  0  0  0  0
   40.4298    7.7533   34.4221 N   0  0  0  0  0  0  0  0  0  0  0  0
   44.7193    1.6444   32.9116 N   0  0  0  0  0  0  0  0  0  0  0  0
   46.6996    2.5065   33.9608 C   0  0  0  0  0  0  0  0  0  0  0  0
   46.5517    2.2167   31.6247 C   0  0  0  0  0  0  0  0  0  0  0  0
   36.6972   10.9432   29.7160 C   0  0  0  0  0  0  0  0  0  0  0  0
   38.0086    9.1796   30.4806 C   0  0  0  0  0  0  0  0  0  0  0  0
   41.5348    7.2471   36.4717 C   0  0  0  0  0  0  0  0  0  0  0  0
   45.2091    2.1246   33.9578 C   0  0  0  0  0  0  0  0  0  0  0  0
   45.0453    2.2665   31.8849 C   0  0  0  0  0  0  0  0  0  0  0  0
   36.8498   11.5803   30.9340 C   0  0  0  0  0  0  0  0  0  0  0  0
   42.2368    4.2032   32.7236 C   0  0  0  0  0  0  0  0  0  0  0  0
   42.4276    3.3441   34.9976 C   0  0  0  0  0  0  0  0  0  0  0  0
   37.5814   11.0140   31.9063 C   0  0  0  0  0  0  0  0  0  0  0  0
   41.7657    5.4126   33.2128 C   0  0  0  0  0  0  0  0  0  0  0  0
   41.9703    4.5708   35.4623 C   0  0  0  0  0  0  0  0  0  0  0  0
   42.5620    3.1807   33.6239 C   0  0  0  0  0  0  0  0  0  0  0  0
   39.1948    9.7739   34.0494 C   0  0  0  0  0  0  0  0  0  0  0  0
   40.4093    9.2468   36.2475 C   0  0  0  0  0  0  0  0  0  0  0  0
   38.1581    9.8074   31.6972 C   0  0  0  0  0  0  0  0  0  0  0  0
   41.1556    6.9083   35.1631 C   0  0  0  0  0  0  0  0  0  0  0  0
   40.0434    8.8987   34.9476 C   0  0  0  0  0  0  0  0  0  0  0  0
   41.6339    5.5860   34.5873 C   0  0  0  0  0  0  0  0  0  0  0  0
   39.4261   11.1215   36.2459 H   0  0  0  0  0  0  0  0  0  0  0  0
   40.2068   10.7321   37.7422 H   0  0  0  0  0  0  0  0  0  0  0  0
   39.3475    8.2726   32.5349 H   0  0  0  0  0  0  0  0  0  0  0  0
   47.2114    2.6209   34.8122 H   0  0  0  0  0  0  0  0  0  0  0  0
   46.8134    1.2693   31.4401 H   0  0  0  0  0  0  0  0  0  0  0  0
   46.7572    2.7811   30.8252 H   0  0  0  0  0  0  0  0  0  0  0  0
   36.1465   11.3680   28.9975 H   0  0  0  0  0  0  0  0  0  0  0  0
   38.4380    8.2901   30.3249 H   0  0  0  0  0  0  0  0  0  0  0  0
   42.1005    6.6204   37.0077 H   0  0  0  0  0  0  0  0  0  0  0  0
   44.6452    2.2571   34.7730 H   0  0  0  0  0  0  0  0  0  0  0  0
   44.7688    3.2220   31.9873 H   0  0  0  0  0  0  0  0  0  0  0  0
   44.5710    1.8643   31.1018 H   0  0  0  0  0  0  0  0  0  0  0  0
   36.4134   12.4663   31.0908 H   0  0  0  0  0  0  0  0  0  0  0  0
   42.3431    4.0629   31.7392 H   0  0  0  0  0  0  0  0  0  0  0  0
   42.6526    2.6033   35.6305 H   0  0  0  0  0  0  0  0  0  0  0  0
   37.7000   11.4817   32.7821 H   0  0  0  0  0  0  0  0  0  0  0  0
   41.5234    6.1520   32.5845 H   0  0  0  0  0  0  0  0  0  0  0  0
   41.8831    4.7218   36.4470 H   0  0  0  0  0  0  0  0  0  0  0  0
  1  2  2  0  0  0  0
  1  3  2  0  0  0  0
  1 11  1  0  0  0  0
  1 25  1  0  0  0  0
  4 26  2  0  0  0  0
  5 12  1  0  0  0  0
  5 13  1  0  0  0  0
  6 27  1  0  0  0  0
  7 14  2  0  0  0  0
  7 15  1  0  0  0  0
  8 16  1  0  0  0  0
  8 27  2  0  0  0  0
  9 26  1  0  0  0  0
  9 28  1  0  0  0  0
 10 29  1  0  0  0  0
 10 30  2  0  0  0  0
 11 17  1  0  0  0  0
 11 18  1  0  0  0  0
 12 17  2  0  0  0  0
 13 18  1  0  0  0  0
 14 19  1  0  0  0  0
 15 28  2  0  0  0  0
 16 29  2  0  0  0  0
 19 22  2  0  0  0  0
 20 23  1  0  0  0  0
 20 25  2  0  0  0  0
 21 24  2  0  0  0  0
 21 25  1  0  0  0  0
 22 28  1  0  0  0  0
 23 31  2  0  0  0  0
 24 31  1  0  0  0  0
 26 30  1  0  0  0  0
 27 30  1  0  0  0  0
 29 31  1  0  0  0  0
  6 32  1  0  0  0  0
  6 33  1  0  0  0  0
  9 34  1  0  0  0  0
 12 35  1  0  0  0  0
 13 36  1  0  0  0  0
 13 37  1  0  0  0  0
 14 38  1  0  0  0  0
 15 39  1  0  0  0  0
 16 40  1  0  0  0  0
 17 41  1  0  0  0  0
 18 42  1  0  0  0  0
 18 43  1  0  0  0  0
 19 44  1  0  0  0  0
 20 45  1  0  0  0  0
 21 46  1  0  0  0  0
 22 47  1  0  0  0  0
 23 48  1  0  0  0  0
 24 49  1  0  0  0  0
M  END
> <pdb_id>
6HK4

> <uniprot_id>
P49841

> <usmiles>
S(=O)(=O)(N1C=COCC1)c2ccc(c3nc(c(nc3)N)C(=O)Nc4cnccc4)cc2

$$$$
G8E_B_409
          07202403123D 1   1.00000     0.00000     0
            
 51 54  0  0  0  0            999 V2000
   43.2887    1.6709   32.9311 S   0  0  0  0  0  0  0  0  0  0  0  0
   42.8842    0.3981   33.8773 O   0  0  0  0  0  0  0  0  0  0  0  0
   42.7434    1.4913   31.3973 O   0  0  0  0  0  0  0  0  0  0  0  0
   39.1549   10.9431   34.0419 O   0  0  0  0  0  0  0  0  0  0  0  0
   47.3977    2.6766   32.5278 O   0  0  0  0  0  0  0  0  0  0  0  0
   40.0167   10.5439   36.6481 N   0  0  0  0  0  0  0  0  0  0  0  0
   37.6803    9.7683   29.2999 N   0  0  0  0  0  0  0  0  0  0  0  0
   41.0982    8.4733   36.9381 N   0  0  0  0  0  0  0  0  0  0  0  0
   38.9009    9.0458   32.6829 N   0  0  0  0  0  0  0  0  0  0  0  0
   40.5435    7.7516   34.3698 N   0  0  0  0  0  0  0  0  0  0  0  0
   44.8316    1.8291   32.8122 N   0  0  0  0  0  0  0  0  0  0  0  0
   46.7114    3.0506   33.6780 C   0  0  0  0  0  0  0  0  0  0  0  0
   46.5730    2.5569   31.4034 C   0  0  0  0  0  0  0  0  0  0  0  0
   36.8478   10.8079   29.5233 C   0  0  0  0  0  0  0  0  0  0  0  0
   38.3409    9.1974   30.3295 C   0  0  0  0  0  0  0  0  0  0  0  0
   41.4993    7.2919   36.4859 C   0  0  0  0  0  0  0  0  0  0  0  0
   45.2588    2.5584   33.7370 C   0  0  0  0  0  0  0  0  0  0  0  0
   45.0795    2.3532   31.7059 C   0  0  0  0  0  0  0  0  0  0  0  0
   36.6643   11.2930   30.8062 C   0  0  0  0  0  0  0  0  0  0  0  0
   42.3958    4.2822   32.7864 C   0  0  0  0  0  0  0  0  0  0  0  0
   42.3987    3.3275   35.0201 C   0  0  0  0  0  0  0  0  0  0  0  0
   37.3348   10.7318   31.8340 C   0  0  0  0  0  0  0  0  0  0  0  0
   41.9208    5.4707   33.2913 C   0  0  0  0  0  0  0  0  0  0  0  0
   41.9247    4.5282   35.5252 C   0  0  0  0  0  0  0  0  0  0  0  0
   42.6357    3.2088   33.6511 C   0  0  0  0  0  0  0  0  0  0  0  0
   39.3671    9.7758   33.8513 C   0  0  0  0  0  0  0  0  0  0  0  0
   40.4361    9.2846   36.1366 C   0  0  0  0  0  0  0  0  0  0  0  0
   38.1663    9.6794   31.6088 C   0  0  0  0  0  0  0  0  0  0  0  0
   41.1956    6.9253   35.1751 C   0  0  0  0  0  0  0  0  0  0  0  0
   40.1366    8.9110   34.8335 C   0  0  0  0  0  0  0  0  0  0  0  0
   41.6826    5.5875   34.6535 C   0  0  0  0  0  0  0  0  0  0  0  0
   39.5129   11.1788   36.0624 H   0  0  0  0  0  0  0  0  0  0  0  0
   40.2257   10.7942   37.5934 H   0  0  0  0  0  0  0  0  0  0  0  0
   39.0956    8.0670   32.6192 H   0  0  0  0  0  0  0  0  0  0  0  0
   46.7056    4.0494   33.7280 H   0  0  0  0  0  0  0  0  0  0  0  0
   47.1997    2.6801   34.4681 H   0  0  0  0  0  0  0  0  0  0  0  0
   46.8901    1.7733   30.8692 H   0  0  0  0  0  0  0  0  0  0  0  0
   46.6676    3.3910   30.8601 H   0  0  0  0  0  0  0  0  0  0  0  0
   36.3616   11.2293   28.7577 H   0  0  0  0  0  0  0  0  0  0  0  0
   38.9557    8.4263   30.1643 H   0  0  0  0  0  0  0  0  0  0  0  0
   42.0135    6.6717   37.0783 H   0  0  0  0  0  0  0  0  0  0  0  0
   45.1570    2.0436   34.5883 H   0  0  0  0  0  0  0  0  0  0  0  0
   44.6744    3.3693   33.7659 H   0  0  0  0  0  0  0  0  0  0  0  0
   44.6328    3.2475   31.6794 H   0  0  0  0  0  0  0  0  0  0  0  0
   44.6954    1.7675   30.9922 H   0  0  0  0  0  0  0  0  0  0  0  0
   36.0381   12.0551   30.9707 H   0  0  0  0  0  0  0  0  0  0  0  0
   42.5686    4.1860   31.8061 H   0  0  0  0  0  0  0  0  0  0  0  0
   42.5690    2.5544   35.6311 H   0  0  0  0  0  0  0  0  0  0  0  0
   37.2204   11.0896   32.7608 H   0  0  0  0  0  0  0  0  0  0  0  0
   41.7485    6.2443   32.6814 H   0  0  0  0  0  0  0  0  0  0  0  0
   41.7580    4.6329   36.5056 H   0  0  0  0  0  0  0  0  0  0  0  0
  1  2  2  0  0  0  0
  1  3  2  0  0  0  0
  1 11  1  0  0  0  0
  1 25  1  0  0  0  0
  4 26  2  0  0  0  0
  5 12  1  0  0  0  0
  5 13  1  0  0  0  0
  6 27  1  0  0  0  0
  7 14  2  0  0  0  0
  7 15  1  0  0  0  0
  8 16  1  0  0  0  0
  8 27  2  0  0  0  0
  9 26  1  0  0  0  0
  9 28  1  0  0  0  0
 10 29  1  0  0  0  0
 10 30  2  0  0  0  0
 11 17  1  0  0  0  0
 11 18  1  0  0  0  0
 12 17  1  0  0  0  0
 13 18  1  0  0  0  0
 14 19  1  0  0  0  0
 15 28  2  0  0  0  0
 16 29  2  0  0  0  0
 19 22  2  0  0  0  0
 20 23  1  0  0  0  0
 20 25  2  0  0  0  0
 21 24  2  0  0  0  0
 21 25  1  0  0  0  0
 22 28  1  0  0  0  0
 23 31  2  0  0  0  0
 24 31  1  0  0  0  0
 26 30  1  0  0  0  0
 27 30  1  0  0  0  0
 29 31  1  0  0  0  0
  6 32  1  0  0  0  0
  6 33  1  0  0  0  0
  9 34  1  0  0  0  0
 12 35  1  0  0  0  0
 12 36  1  0  0  0  0
 13 37  1  0  0  0  0
 13 38  1  0  0  0  0
 14 39  1  0  0  0  0
 15 40  1  0  0  0  0
 16 41  1  0  0  0  0
 17 42  1  0  0  0  0
 17 43  1  0  0  0  0
 18 44  1  0  0  0  0
 18 45  1  0  0  0  0
 19 46  1  0  0  0  0
 20 47  1  0  0  0  0
 21 48  1  0  0  0  0
 22 49  1  0  0  0  0
 23 50  1  0  0  0  0
 24 51  1  0  0  0  0
M  END
> <pdb_id>
6HK4

> <uniprot_id>
P49841

> <usmiles>
S(=O)(=O)(N1CCOCC1)c2ccc(c3nc(c(nc3)N)C(=O)Nc4cnccc4)cc2

$$$$
G8J_A_302
          07192415263D 1   1.00000     0.00000     0
            
 51 53  0  0  0  0            999 V2000
   17.7881   21.7101   22.1961 O   0  0  0  0  0  0  0  0  0  0  0  0
   23.3232   30.6546   20.2039 N   0  0  0  0  0  0  0  0  0  0  0  0
   21.6193   26.6746   18.4774 N   0  0  0  0  0  0  0  0  0  0  0  0
   15.5452   29.1494   25.4439 N   0  0  0  0  0  0  0  0  0  0  0  0
   22.4830   28.6740   19.3245 N   0  0  0  0  0  0  0  0  0  0  0  0
   22.0439   29.2619   21.5248 N   0  0  0  0  0  0  0  0  0  0  0  0
   17.1310   20.6238   22.8559 C   0  0  0  0  0  0  0  0  0  0  0  0
   19.7641   29.0899   23.3107 C   0  0  0  0  0  0  0  0  0  0  0  0
   18.3251   23.6930   19.8715 C   0  0  0  0  0  0  0  0  0  0  0  0
   16.0358   29.0918   24.1151 C   0  0  0  0  0  0  0  0  0  0  0  0
   15.4522   27.9586   26.1841 C   0  0  0  0  0  0  0  0  0  0  0  0
   20.7408   27.9444   23.0029 C   0  0  0  0  0  0  0  0  0  0  0  0
   16.4158   27.8726   23.5437 C   0  0  0  0  0  0  0  0  0  0  0  0
   15.8377   26.7523   25.5846 C   0  0  0  0  0  0  0  0  0  0  0  0
   16.4303   23.0208   23.7180 C   0  0  0  0  0  0  0  0  0  0  0  0
   19.7857   25.1604   21.1002 C   0  0  0  0  0  0  0  0  0  0  0  0
   16.0892   24.2849   24.2018 C   0  0  0  0  0  0  0  0  0  0  0  0
   20.3936   26.0886   20.9454 C   0  0  0  0  0  0  0  0  0  0  0  0
   17.6642   25.3211   22.7333 C   0  0  0  0  0  0  0  0  0  0  0  0
   22.6190   29.5305   20.3464 C   0  0  0  0  0  0  0  0  0  0  0  0
   21.7750   27.5440   19.4850 C   0  0  0  0  0  0  0  0  0  0  0  0
   17.4016   22.9143   22.7277 C   0  0  0  0  0  0  0  0  0  0  0  0
   21.3248   28.1609   21.7504 C   0  0  0  0  0  0  0  0  0  0  0  0
   19.0032   23.9344   21.2289 C   0  0  1  0  0  0  0  0  0  0  0  0
   16.3185   26.6868   24.2659 C   0  0  0  0  0  0  0  0  0  0  0  0
   16.6938   25.4456   23.7236 C   0  0  0  0  0  0  0  0  0  0  0  0
   21.1677   27.2575   20.7179 C   0  0  0  0  0  0  0  0  0  0  0  0
   18.0250   24.0599   22.2303 C   0  0  0  0  0  0  0  0  0  0  0  0
   23.4179   31.2862   20.9734 H   0  0  0  0  0  0  0  0  0  0  0  0
   23.7565   30.8655   19.3277 H   0  0  0  0  0  0  0  0  0  0  0  0
   21.0886   25.8384   18.6160 H   0  0  0  0  0  0  0  0  0  0  0  0
   22.0337   26.8619   17.5868 H   0  0  0  0  0  0  0  0  0  0  0  0
   17.4287   19.7590   22.4514 H   0  0  0  0  0  0  0  0  0  0  0  0
   17.3639   20.6345   23.8284 H   0  0  0  0  0  0  0  0  0  0  0  0
   16.1413   20.7185   22.7491 H   0  0  0  0  0  0  0  0  0  0  0  0
   19.3444   28.9387   24.2056 H   0  0  0  0  0  0  0  0  0  0  0  0
   20.2602   29.9581   23.3176 H   0  0  0  0  0  0  0  0  0  0  0  0
   19.0521   29.1184   22.6091 H   0  0  0  0  0  0  0  0  0  0  0  0
   17.7763   22.8582   19.9168 H   0  0  0  0  0  0  0  0  0  0  0  0
   17.7341   24.4690   19.6514 H   0  0  0  0  0  0  0  0  0  0  0  0
   19.0237   23.5945   19.1627 H   0  0  0  0  0  0  0  0  0  0  0  0
   16.1113   29.9330   23.5797 H   0  0  0  0  0  0  0  0  0  0  0  0
   15.1155   27.9719   27.1256 H   0  0  0  0  0  0  0  0  0  0  0  0
   20.2455   27.0757   22.9952 H   0  0  0  0  0  0  0  0  0  0  0  0
   21.4536   27.9155   23.7037 H   0  0  0  0  0  0  0  0  0  0  0  0
   16.7612   27.8528   22.6055 H   0  0  0  0  0  0  0  0  0  0  0  0
   15.7682   25.9071   26.1145 H   0  0  0  0  0  0  0  0  0  0  0  0
   15.9824   22.2026   24.0784 H   0  0  0  0  0  0  0  0  0  0  0  0
   15.3900   24.3597   24.9128 H   0  0  0  0  0  0  0  0  0  0  0  0
   18.1107   26.1409   22.3750 H   0  0  0  0  0  0  0  0  0  0  0  0
   19.6093   23.1686   21.4439 H   0  0  0  0  0  0  0  0  0  0  0  0
  1  7  1  0  0  0  0
  1 22  1  0  0  0  0
  2 20  1  0  0  0  0
  3 21  1  0  0  0  0
  4 10  2  0  0  0  0
  4 11  1  0  0  0  0
  5 20  2  0  0  0  0
  5 21  1  0  0  0  0
  6 20  1  0  0  0  0
  6 23  2  0  0  0  0
  8 12  1  0  0  0  0
  9 24  1  0  0  0  0
 10 13  1  0  0  0  0
 11 14  2  0  0  0  0
 12 23  1  0  0  0  0
 13 25  2  0  0  0  0
 14 25  1  0  0  0  0
 15 17  1  0  0  0  0
 15 22  2  0  0  0  0
 16 18  3  0  0  0  0
 16 24  1  0  0  0  0
 17 26  2  0  0  0  0
 18 27  1  0  0  0  0
 19 26  1  0  0  0  0
 19 28  2  0  0  0  0
 21 27  2  0  0  0  0
 22 28  1  0  0  0  0
 23 27  1  0  0  0  0
 24 28  1  0  0  0  0
 25 26  1  0  0  0  0
  2 29  1  0  0  0  0
  2 30  1  0  0  0  0
  3 31  1  0  0  0  0
  3 32  1  0  0  0  0
  7 33  1  0  0  0  0
  7 34  1  0  0  0  0
  7 35  1  0  0  0  0
  8 36  1  0  0  0  0
  8 37  1  0  0  0  0
  8 38  1  0  0  0  0
  9 39  1  0  0  0  0
  9 40  1  0  0  0  0
  9 41  1  0  0  0  0
 10 42  1  0  0  0  0
 11 43  1  0  0  0  0
 12 44  1  0  0  0  0
 12 45  1  0  0  0  0
 13 46  1  0  0  0  0
 14 47  1  0  0  0  0
 15 48  1  0  0  0  0
 17 49  1  0  0  0  0
 19 50  1  0  0  0  0
 24 51  1  0  0  0  0
M  END
> <pdb_id>
6DE5

> <uniprot_id>
P71968

> <usmiles>
O(c1c(cc(c2ccncc2)cc1)[C@H](C#Cc3c(nc(nc3CC)N)N)C)C

$$$$
G8M_A_301
          07212403073D 1   1.00000     0.00000     0
            
 23 23  0  0  0  0            999 V2000
  -42.3031  -20.0181  -17.7701 O   0  0  0  0  0  0  0  0  0  0  0  0
  -42.7432  -20.4574  -19.8427 O   0  0  0  0  0  0  0  0  0  0  0  0
  -46.0207  -23.9924  -19.9967 O   0  0  0  0  0  0  0  0  0  0  0  0
  -44.3958  -23.1723  -21.1394 O   0  0  0  0  0  0  0  0  0  0  0  0
  -44.2305  -21.4488  -16.7193 N   0  0  0  0  0  0  0  0  0  0  0  0
  -47.4035  -21.5062  -19.7596 C   0  0  0  0  0  0  0  0  0  0  0  0
  -46.8749  -21.5301  -18.3165 C   0  0  0  0  0  0  0  0  0  0  0  0
  -42.9874  -20.5908  -18.6382 C   0  0  0  0  0  0  0  0  0  0  0  0
  -45.4298  -23.0136  -20.4750 C   0  0  0  0  0  0  0  0  0  0  0  0
  -44.1817  -21.4558  -18.1964 C   0  0  2  0  0  0  0  0  0  0  0  0
  -45.9377  -21.5668  -20.2338 C   0  0  2  0  0  0  0  0  0  0  0  0
  -45.5192  -21.0053  -18.8481 C   0  0  1  0  0  0  0  0  0  0  0  0
  -42.5194  -20.1410  -16.8015 H   0  0  0  0  0  0  0  0  0  0  0  0
  -46.8548  -23.8603  -19.4611 H   0  0  0  0  0  0  0  0  0  0  0  0
  -45.0007  -22.0059  -16.4086 H   0  0  0  0  0  0  0  0  0  0  0  0
  -43.3785  -21.8257  -16.3558 H   0  0  0  0  0  0  0  0  0  0  0  0
  -47.8881  -20.6685  -20.0114 H   0  0  0  0  0  0  0  0  0  0  0  0
  -47.9561  -22.3000  -20.0135 H   0  0  0  0  0  0  0  0  0  0  0  0
  -46.8336  -22.4411  -17.9062 H   0  0  0  0  0  0  0  0  0  0  0  0
  -47.3448  -20.9048  -17.6935 H   0  0  0  0  0  0  0  0  0  0  0  0
  -44.0018  -22.3946  -18.4900 H   0  0  0  0  0  0  0  0  0  0  0  0
  -45.7390  -20.9446  -20.9911 H   0  0  0  0  0  0  0  0  0  0  0  0
  -45.5462  -20.0062  -18.8796 H   0  0  0  0  0  0  0  0  0  0  0  0
  1  8  1  0  0  0  0
  2  8  2  0  0  0  0
  3  9  1  0  0  0  0
  4  9  2  0  0  0  0
  5 10  1  0  0  0  0
  6  7  1  0  0  0  0
  6 11  1  0  0  0  0
  7 12  1  0  0  0  0
  8 10  1  0  0  0  0
  9 11  1  0  0  0  0
 10 12  1  0  0  0  0
 11 12  1  0  0  0  0
  1 13  1  0  0  0  0
  3 14  1  0  0  0  0
  5 15  1  0  0  0  0
  5 16  1  0  0  0  0
  6 17  1  0  0  0  0
  6 18  1  0  0  0  0
  7 19  1  0  0  0  0
  7 20  1  0  0  0  0
 10 21  1  0  0  0  0
 11 22  1  0  0  0  0
 12 23  1  0  0  0  0
M  END
> <pdb_id>
4G8N

> <uniprot_id>
P42264

> <usmiles>
O=C(O)[C@@H](N)[C@H]1[C@@H](C(=O)O)CC1

$$$$
G9G_A_1
          07192422063D 1   1.00000     0.00000     0
            
 40 43  0  0  0  0            999 V2000
   21.6447   59.4702   10.3674 O   0  0  0  0  0  0  0  0  0  0  0  0
   21.2014   58.0412    8.7236 N   0  0  0  0  0  0  0  0  0  0  0  0
   18.3973   57.6941    6.4383 N   0  0  0  0  0  0  0  0  0  0  0  0
   17.6381   57.3964    2.2375 N   0  0  0  0  0  0  0  0  0  0  0  0
   17.9329   56.2341    4.7039 N   0  0  0  0  0  0  0  0  0  0  0  0
   18.0149   58.4180    1.2321 C   0  0  0  0  0  0  0  0  0  0  0  0
   18.7801   56.4623    2.5081 C   0  0  0  0  0  0  0  0  0  0  0  0
   16.9869   58.0134    3.4283 C   0  0  0  0  0  0  0  0  0  0  0  0
   18.4115   55.4198    3.6015 C   0  0  0  0  0  0  0  0  0  0  0  0
   16.6894   56.9710    4.5183 C   0  0  0  0  0  0  0  0  0  0  0  0
   17.9695   61.5113    9.6941 C   0  0  0  0  0  0  0  0  0  0  0  0
   17.1316   61.0046    8.7006 C   0  0  0  0  0  0  0  0  0  0  0  0
   19.9854   55.9678    5.9764 C   0  0  0  0  0  0  0  0  0  0  0  0
   20.8324   56.4425    6.9726 C   0  0  0  0  0  0  0  0  0  0  0  0
   19.2354   60.9090    9.9254 C   0  0  0  0  0  0  0  0  0  0  0  0
   17.5295   59.9044    7.9483 C   0  0  0  0  0  0  0  0  0  0  0  0
   20.8476   59.1356    9.4682 C   0  0  0  0  0  0  0  0  0  0  0  0
   18.7674   56.6021    5.7588 C   0  0  0  0  0  0  0  0  0  0  0  0
   20.3898   57.5489    7.6985 C   0  0  0  0  0  0  0  0  0  0  0  0
   19.1712   58.1728    7.4289 C   0  0  0  0  0  0  0  0  0  0  0  0
   19.6151   59.7885    9.1887 C   0  0  0  0  0  0  0  0  0  0  0  0
   18.7652   59.2838    8.1932 C   0  0  0  0  0  0  0  0  0  0  0  0
   22.0671   57.5807    8.9198 H   0  0  0  0  0  0  0  0  0  0  0  0
   17.2389   59.0273    1.0690 H   0  0  0  0  0  0  0  0  0  0  0  0
   18.7907   58.9497    1.5717 H   0  0  0  0  0  0  0  0  0  0  0  0
   18.2693   57.9662    0.3770 H   0  0  0  0  0  0  0  0  0  0  0  0
   19.5689   56.9935    2.8174 H   0  0  0  0  0  0  0  0  0  0  0  0
   19.0134   55.9800    1.6637 H   0  0  0  0  0  0  0  0  0  0  0  0
   16.1278   58.4388    3.1436 H   0  0  0  0  0  0  0  0  0  0  0  0
   17.5957   58.7115    3.8051 H   0  0  0  0  0  0  0  0  0  0  0  0
   17.6957   54.8011    3.2777 H   0  0  0  0  0  0  0  0  0  0  0  0
   19.2140   54.8882    3.8726 H   0  0  0  0  0  0  0  0  0  0  0  0
   16.4205   57.4224    5.3691 H   0  0  0  0  0  0  0  0  0  0  0  0
   15.9592   56.3551    4.2225 H   0  0  0  0  0  0  0  0  0  0  0  0
   17.6801   62.2963   10.2419 H   0  0  0  0  0  0  0  0  0  0  0  0
   16.2443   61.4327    8.5292 H   0  0  0  0  0  0  0  0  0  0  0  0
   20.2499   55.1784    5.4224 H   0  0  0  0  0  0  0  0  0  0  0  0
   21.7153   56.0118    7.1594 H   0  0  0  0  0  0  0  0  0  0  0  0
   19.8523   61.2880   10.6151 H   0  0  0  0  0  0  0  0  0  0  0  0
   16.9314   59.5529    7.2281 H   0  0  0  0  0  0  0  0  0  0  0  0
  1 17  2  0  0  0  0
  2 17  1  0  0  0  0
  2 19  1  0  0  0  0
  3 18  1  0  0  0  0
  3 20  2  0  0  0  0
  4  6  1  0  0  0  0
  4  7  1  0  0  0  0
  4  8  1  0  0  0  0
  5  9  1  0  0  0  0
  5 10  1  0  0  0  0
  5 18  1  0  0  0  0
  7  9  1  0  0  0  0
  8 10  1  0  0  0  0
 11 12  2  0  0  0  0
 11 15  1  0  0  0  0
 12 16  1  0  0  0  0
 13 14  1  0  0  0  0
 13 18  2  0  0  0  0
 14 19  2  0  0  0  0
 15 21  2  0  0  0  0
 16 22  2  0  0  0  0
 17 21  1  0  0  0  0
 19 20  1  0  0  0  0
 20 22  1  0  0  0  0
 21 22  1  0  0  0  0
  2 23  1  0  0  0  0
  6 24  1  0  0  0  0
  6 25  1  0  0  0  0
  6 26  1  0  0  0  0
  7 27  1  0  0  0  0
  7 28  1  0  0  0  0
  8 29  1  0  0  0  0
  8 30  1  0  0  0  0
  9 31  1  0  0  0  0
  9 32  1  0  0  0  0
 10 33  1  0  0  0  0
 10 34  1  0  0  0  0
 11 35  1  0  0  0  0
 12 36  1  0  0  0  0
 13 37  1  0  0  0  0
 14 38  1  0  0  0  0
 15 39  1  0  0  0  0
 16 40  1  0  0  0  0
M  END
> <pdb_id>
3KI2

> <uniprot_id>
Q5EK40

> <usmiles>
O=C1Nc2c(nc(N3CCN(CC3)C)cc2)c4c1cccc4

$$$$
G9M_A_1
          07192422063D 1   1.00000     0.00000     0
            
 57 61  0  0  0  0            999 V2000
   15.7720   55.5240    3.9670 O   0  0  0  0  0  0  0  0  0  0  0  0
   21.7120   59.5540   10.3220 O   0  0  0  0  0  0  0  0  0  0  0  0
   17.5950   55.7470    5.2600 N   0  0  0  0  0  0  0  0  0  0  0  0
   21.1690   57.9550    8.8240 N   0  0  0  0  0  0  0  0  0  0  0  0
   18.1800   57.4580    6.7850 N   0  0  0  0  0  0  0  0  0  0  0  0
   14.8060   58.0060    4.2290 N   0  0  0  0  0  0  0  0  0  0  0  0
   11.1070   59.6900    2.7320 N   0  0  0  0  0  0  0  0  0  0  0  0
   10.8610   61.1460    2.6380 C   0  0  0  0  0  0  0  0  0  0  0  0
    9.8080   59.1790    3.2070 C   0  0  0  0  0  0  0  0  0  0  0  0
   14.7570   59.4550    3.9830 C   0  0  0  0  0  0  0  0  0  0  0  0
   13.5560   57.5500    4.8900 C   0  0  0  0  0  0  0  0  0  0  0  0
    9.4020   61.2870    2.1590 C   0  0  0  0  0  0  0  0  0  0  0  0
    8.8130   59.8810    2.2810 C   0  0  0  0  0  0  0  0  0  0  0  0
   18.1440   61.6050    9.7140 C   0  0  0  0  0  0  0  0  0  0  0  0
   17.2290   61.0570    8.8100 C   0  0  0  0  0  0  0  0  0  0  0  0
   15.9850   57.6550    5.0690 C   0  0  0  0  0  0  0  0  0  0  0  0
   13.5730   59.8130    3.0560 C   0  0  0  0  0  0  0  0  0  0  0  0
   12.3250   57.8660    4.0040 C   0  0  0  0  0  0  0  0  0  0  0  0
   19.6780   55.6700    6.3560 C   0  0  0  0  0  0  0  0  0  0  0  0
   19.3620   60.9530    9.9460 C   0  0  0  0  0  0  0  0  0  0  0  0
   17.5130   59.8700    8.1220 C   0  0  0  0  0  0  0  0  0  0  0  0
   20.5860   56.2110    7.2600 C   0  0  0  0  0  0  0  0  0  0  0  0
   16.4510   56.2180    4.7340 C   0  0  0  0  0  0  0  0  0  0  0  0
   18.4640   56.3190    6.1240 C   0  0  0  0  0  0  0  0  0  0  0  0
   20.8860   59.1270    9.5090 C   0  0  0  0  0  0  0  0  0  0  0  0
   20.2670   57.3980    7.9180 C   0  0  0  0  0  0  0  0  0  0  0  0
   12.2310   59.3750    3.6670 C   0  0  0  0  0  0  0  0  0  0  0  0
   19.0500   58.0290    7.6650 C   0  0  0  0  0  0  0  0  0  0  0  0
   19.6580   59.7720    9.2640 C   0  0  0  0  0  0  0  0  0  0  0  0
   18.7410   59.2190    8.3490 C   0  0  0  0  0  0  0  0  0  0  0  0
   17.8436   54.8245    4.9646 H   0  0  0  0  0  0  0  0  0  0  0  0
   22.0434   57.4969    8.9840 H   0  0  0  0  0  0  0  0  0  0  0  0
   11.4869   61.5645    1.9799 H   0  0  0  0  0  0  0  0  0  0  0  0
   10.9788   61.5788    3.5318 H   0  0  0  0  0  0  0  0  0  0  0  0
    9.6497   59.4285    4.1623 H   0  0  0  0  0  0  0  0  0  0  0  0
    9.7533   58.1854    3.1085 H   0  0  0  0  0  0  0  0  0  0  0  0
   15.6112   59.7434    3.5505 H   0  0  0  0  0  0  0  0  0  0  0  0
   14.6471   59.9323    4.8548 H   0  0  0  0  0  0  0  0  0  0  0  0
   13.4584   58.0189    5.7678 H   0  0  0  0  0  0  0  0  0  0  0  0
   13.6062   56.5631    5.0431 H   0  0  0  0  0  0  0  0  0  0  0  0
    9.3716   61.6005    1.2099 H   0  0  0  0  0  0  0  0  0  0  0  0
    8.9015   61.9301    2.7387 H   0  0  0  0  0  0  0  0  0  0  0  0
    7.8993   59.9067    2.6865 H   0  0  0  0  0  0  0  0  0  0  0  0
    8.7695   59.4296    1.3897 H   0  0  0  0  0  0  0  0  0  0  0  0
   17.9303   62.4570   10.1920 H   0  0  0  0  0  0  0  0  0  0  0  0
   16.3570   61.5202    8.6518 H   0  0  0  0  0  0  0  0  0  0  0  0
   15.7325   57.7063    6.0352 H   0  0  0  0  0  0  0  0  0  0  0  0
   16.7285   58.2977    4.8842 H   0  0  0  0  0  0  0  0  0  0  0  0
   13.6966   59.3519    2.1773 H   0  0  0  0  0  0  0  0  0  0  0  0
   13.5585   60.8028    2.9140 H   0  0  0  0  0  0  0  0  0  0  0  0
   11.4962   57.5909    4.4913 H   0  0  0  0  0  0  0  0  0  0  0  0
   12.3980   57.3479    3.1518 H   0  0  0  0  0  0  0  0  0  0  0  0
   19.8937   54.8204    5.8746 H   0  0  0  0  0  0  0  0  0  0  0  0
   20.0176   61.3328   10.5986 H   0  0  0  0  0  0  0  0  0  0  0  0
   16.8508   59.4891    7.4767 H   0  0  0  0  0  0  0  0  0  0  0  0
   21.4578   55.7538    7.4360 H   0  0  0  0  0  0  0  0  0  0  0  0
   12.0885   59.8820    4.5171 H   0  0  0  0  0  0  0  0  0  0  0  0
  1 23  2  0  0  0  0
  2 25  2  0  0  0  0
  3 23  1  0  0  0  0
  3 24  1  0  0  0  0
  4 25  1  0  0  0  0
  4 26  1  0  0  0  0
  5 24  2  0  0  0  0
  5 28  1  0  0  0  0
  6 10  1  0  0  0  0
  6 11  1  0  0  0  0
  6 16  1  0  0  0  0
  7  8  1  0  0  0  0
  7  9  1  0  0  0  0
  7 27  1  0  0  0  0
  8 12  1  0  0  0  0
  9 13  1  0  0  0  0
 10 17  1  0  0  0  0
 11 18  1  0  0  0  0
 12 13  1  0  0  0  0
 14 15  2  0  0  0  0
 14 20  1  0  0  0  0
 15 21  1  0  0  0  0
 16 23  1  0  0  0  0
 17 27  1  0  0  0  0
 18 27  1  0  0  0  0
 19 22  2  0  0  0  0
 19 24  1  0  0  0  0
 20 29  2  0  0  0  0
 21 30  2  0  0  0  0
 22 26  1  0  0  0  0
 25 29  1  0  0  0  0
 26 28  2  0  0  0  0
 28 30  1  0  0  0  0
 29 30  1  0  0  0  0
  3 31  1  0  0  0  0
  4 32  1  0  0  0  0
  8 33  1  0  0  0  0
  8 34  1  0  0  0  0
  9 35  1  0  0  0  0
  9 36  1  0  0  0  0
 10 37  1  0  0  0  0
 10 38  1  0  0  0  0
 11 39  1  0  0  0  0
 11 40  1  0  0  0  0
 12 41  1  0  0  0  0
 12 42  1  0  0  0  0
 13 43  1  0  0  0  0
 13 44  1  0  0  0  0
 14 45  1  0  0  0  0
 15 46  1  0  0  0  0
 16 47  1  0  0  0  0
 16 48  1  0  0  0  0
 17 49  1  0  0  0  0
 17 50  1  0  0  0  0
 18 51  1  0  0  0  0
 18 52  1  0  0  0  0
 19 53  1  0  0  0  0
 20 54  1  0  0  0  0
 21 55  1  0  0  0  0
 22 56  1  0  0  0  0
 27 57  1  0  0  0  0
M  END
> <pdb_id>
3KI5

> <uniprot_id>
Q5EK40

> <usmiles>
O=C1Nc2c(nc(NC(=O)CN3CCC(N4CCCC4)CC3)cc2)c5c1cccc5

$$$$
G9Q_A_202
          07202410543D 1   1.00000     0.00000     0
            
 51 53  0  0  0  0            999 V2000
  -21.7810   -2.3700   11.9830 O   0  0  0  0  0  0  0  0  0  0  0  0
  -23.9350   -2.7020   12.5220 O   0  0  0  0  0  0  0  0  0  0  0  0
  -21.6710    5.5290   22.4110 N   0  0  0  0  0  0  0  0  0  0  0  0
  -22.9600    6.4110   24.3520 C   0  0  0  0  0  0  0  0  0  0  0  0
  -23.1040    7.5400   22.1590 C   0  0  0  0  0  0  0  0  0  0  0  0
  -18.2420    4.6660   20.9870 C   0  0  0  0  0  0  0  0  0  0  0  0
  -18.7060    2.5430   22.1830 C   0  0  0  0  0  0  0  0  0  0  0  0
  -20.3850    5.8640   23.0190 C   0  0  0  0  0  0  0  0  0  0  0  0
  -22.8920    4.4750   20.6300 C   0  0  0  0  0  0  0  0  0  0  0  0
  -22.9430    3.5840   19.5810 C   0  0  0  0  0  0  0  0  0  0  0  0
  -22.0220    1.0630   17.3580 C   0  0  0  0  0  0  0  0  0  0  0  0
  -21.9040    1.8450   18.1970 C   0  0  0  0  0  0  0  0  0  0  0  0
  -23.4330    0.1570   15.5850 C   0  0  0  0  0  0  0  0  0  0  0  0
  -21.1610   -0.5720   15.7270 C   0  0  0  0  0  0  0  0  0  0  0  0
  -23.6150   -0.6450   14.4840 C   0  0  0  0  0  0  0  0  0  0  0  0
  -21.3530   -1.3660   14.6180 C   0  0  0  0  0  0  0  0  0  0  0  0
  -19.5410    4.6550   23.1470 C   0  0  0  0  0  0  0  0  0  0  0  0
  -20.6980    2.9270   20.0270 C   0  0  0  0  0  0  0  0  0  0  0  0
  -22.7910   -2.2550   12.7570 C   0  0  0  0  0  0  0  0  0  0  0  0
  -22.9180    6.2290   22.8700 C   0  0  0  0  0  0  0  0  0  0  0  0
  -21.7130    4.6420   21.3580 C   0  0  0  0  0  0  0  0  0  0  0  0
  -22.2130    0.1840   16.2440 C   0  0  0  0  0  0  0  0  0  0  0  0
  -21.8350    2.8090   19.2560 C   0  0  0  0  0  0  0  0  0  0  0  0
  -22.5940   -1.4210   13.9950 C   0  0  0  0  0  0  0  0  0  0  0  0
  -20.6100    3.8290   21.0630 C   0  0  0  0  0  0  0  0  0  0  0  0
  -19.2860    3.9240   21.8330 C   0  0  0  0  0  0  0  0  0  0  0  0
  -20.8994   -1.9808   12.2502 H   0  0  0  0  0  0  0  0  0  0  0  0
  -23.8059    6.8797   24.6064 H   0  0  0  0  0  0  0  0  0  0  0  0
  -22.9270    5.5169   24.7987 H   0  0  0  0  0  0  0  0  0  0  0  0
  -22.1752    6.9582   24.6430 H   0  0  0  0  0  0  0  0  0  0  0  0
  -23.9403    7.9805   22.4855 H   0  0  0  0  0  0  0  0  0  0  0  0
  -22.3206    8.1335   22.3437 H   0  0  0  0  0  0  0  0  0  0  0  0
  -23.1749    7.3783   21.1747 H   0  0  0  0  0  0  0  0  0  0  0  0
  -18.5922    5.5705   20.7434 H   0  0  0  0  0  0  0  0  0  0  0  0
  -17.3972    4.7661   21.5126 H   0  0  0  0  0  0  0  0  0  0  0  0
  -18.0566    4.1448   20.1539 H   0  0  0  0  0  0  0  0  0  0  0  0
  -19.3662    2.0346   22.7359 H   0  0  0  0  0  0  0  0  0  0  0  0
  -18.5171    2.0377   21.3410 H   0  0  0  0  0  0  0  0  0  0  0  0
  -17.8577    2.6589   22.6996 H   0  0  0  0  0  0  0  0  0  0  0  0
  -20.5417    6.2535   23.9266 H   0  0  0  0  0  0  0  0  0  0  0  0
  -19.9145    6.5344   22.4453 H   0  0  0  0  0  0  0  0  0  0  0  0
  -23.7046    5.0055   20.8715 H   0  0  0  0  0  0  0  0  0  0  0  0
  -23.7844    3.4935   19.0482 H   0  0  0  0  0  0  0  0  0  0  0  0
  -24.1867    0.7260   15.9138 H   0  0  0  0  0  0  0  0  0  0  0  0
  -20.2622   -0.5373   16.1640 H   0  0  0  0  0  0  0  0  0  0  0  0
  -24.5065   -0.6635   14.0314 H   0  0  0  0  0  0  0  0  0  0  0  0
  -20.5931   -1.9074   14.2582 H   0  0  0  0  0  0  0  0  0  0  0  0
  -19.9943    4.0219   23.7745 H   0  0  0  0  0  0  0  0  0  0  0  0
  -18.6584    4.9285   23.5293 H   0  0  0  0  0  0  0  0  0  0  0  0
  -19.9137    2.3396   19.8275 H   0  0  0  0  0  0  0  0  0  0  0  0
  -23.6919    5.6463   22.6221 H   0  0  0  0  0  0  0  0  0  0  0  0
  1 19  1  0  0  0  0
  2 19  2  0  0  0  0
  3  8  1  0  0  0  0
  3 20  1  0  0  0  0
  3 21  1  0  0  0  0
  4 20  1  0  0  0  0
  5 20  1  0  0  0  0
  6 26  1  0  0  0  0
  7 26  1  0  0  0  0
  8 17  1  0  0  0  0
  9 10  1  0  0  0  0
  9 21  2  0  0  0  0
 10 23  2  0  0  0  0
 11 12  3  0  0  0  0
 11 22  1  0  0  0  0
 12 23  1  0  0  0  0
 13 15  1  0  0  0  0
 13 22  2  0  0  0  0
 14 16  2  0  0  0  0
 14 22  1  0  0  0  0
 15 24  2  0  0  0  0
 16 24  1  0  0  0  0
 17 26  1  0  0  0  0
 18 23  1  0  0  0  0
 18 25  2  0  0  0  0
 19 24  1  0  0  0  0
 21 25  1  0  0  0  0
 25 26  1  0  0  0  0
  1 27  1  0  0  0  0
  4 28  1  0  0  0  0
  4 29  1  0  0  0  0
  4 30  1  0  0  0  0
  5 31  1  0  0  0  0
  5 32  1  0  0  0  0
  5 33  1  0  0  0  0
  6 34  1  0  0  0  0
  6 35  1  0  0  0  0
  6 36  1  0  0  0  0
  7 37  1  0  0  0  0
  7 38  1  0  0  0  0
  7 39  1  0  0  0  0
  8 40  1  0  0  0  0
  8 41  1  0  0  0  0
  9 42  1  0  0  0  0
 10 43  1  0  0  0  0
 13 44  1  0  0  0  0
 14 45  1  0  0  0  0
 15 46  1  0  0  0  0
 16 47  1  0  0  0  0
 17 48  1  0  0  0  0
 17 49  1  0  0  0  0
 18 50  1  0  0  0  0
 20 51  1  0  0  0  0
M  END
> <pdb_id>
6HKR

> <uniprot_id>
P29373

> <usmiles>
O=C(O)c1ccc(C#Cc2cc3c(N(C(C)C)CCC3(C)C)cc2)cc1

$$$$
G9Z_B_401
          07202410553D 1   1.00000     0.00000     0
            
 37 37  0  0  0  0            999 V2000
   13.8579  -38.1741   26.5232 O   0  0  0  0  0  0  0  0  0  0  0  0
   12.2598  -30.1859   22.7170 O   0  0  0  0  0  0  0  0  0  0  0  0
   13.4634  -28.3787   23.1673 O   0  0  0  0  0  0  0  0  0  0  0  0
   14.9848  -33.6542   21.6561 O   0  0  0  0  0  0  0  0  0  0  0  0
   13.5688  -35.8244   28.3008 O   0  0  0  0  0  0  0  0  0  0  0  0
   15.2338  -32.0058   25.7031 O   0  0  0  0  0  0  0  0  0  0  0  0
   12.7436  -35.5571   24.7651 O   0  0  0  0  0  0  0  0  0  0  0  0
   12.5949  -33.1648   26.5072 O   0  0  0  0  0  0  0  0  0  0  0  0
   14.4195  -31.8794   22.9708 N   0  0  0  0  0  0  0  0  0  0  0  0
   12.6402  -37.5746   26.9730 C   0  0  0  0  0  0  0  0  0  0  0  0
   13.6721  -32.6283   23.9954 C   0  0  0  0  0  0  0  0  0  0  0  0
   15.6065  -31.4971   21.0470 C   0  0  0  0  0  0  0  0  0  0  0  0
   15.3485  -30.1641   21.6202 C   0  0  0  0  0  0  0  0  0  0  0  0
   13.3593  -29.6117   22.9511 C   0  0  0  0  0  0  0  0  0  0  0  0
   14.9652  -32.4366   21.8799 C   0  0  0  0  0  0  0  0  0  0  0  0
   12.8507  -36.0529   27.1102 C   0  0  2  0  0  0  0  0  0  0  0  0
   14.5947  -33.1428   25.1157 C   0  0  2  0  0  0  0  0  0  0  0  0
   13.5682  -35.3921   25.9183 C   0  0  2  0  0  0  0  0  0  0  0  0
   13.7992  -33.8713   26.2107 C   0  0  2  0  0  0  0  0  0  0  0  0
   14.5821  -30.3868   22.9452 C   0  0  1  0  0  0  0  0  0  0  0  0
   13.7294  -39.1616   26.4317 H   0  0  0  0  0  0  0  0  0  0  0  0
   12.2358  -31.1718   22.5517 H   0  0  0  0  0  0  0  0  0  0  0  0
   13.7200  -34.8426   28.4156 H   0  0  0  0  0  0  0  0  0  0  0  0
   15.8421  -32.3076   26.4371 H   0  0  0  0  0  0  0  0  0  0  0  0
   13.1879  -35.1356   23.9746 H   0  0  0  0  0  0  0  0  0  0  0  0
   12.0901  -33.6513   27.2203 H   0  0  0  0  0  0  0  0  0  0  0  0
   12.3848  -37.9591   27.8601 H   0  0  0  0  0  0  0  0  0  0  0  0
   11.9132  -37.7541   26.3102 H   0  0  0  0  0  0  0  0  0  0  0  0
   13.2230  -33.4095   23.5618 H   0  0  0  0  0  0  0  0  0  0  0  0
   12.9811  -32.0267   24.3961 H   0  0  0  0  0  0  0  0  0  0  0  0
   16.1364  -31.6973   20.2229 H   0  0  0  0  0  0  0  0  0  0  0  0
   15.6172  -29.2844   21.2278 H   0  0  0  0  0  0  0  0  0  0  0  0
   11.9521  -35.6246   27.2051 H   0  0  0  0  0  0  0  0  0  0  0  0
   15.2835  -33.7577   24.7317 H   0  0  0  0  0  0  0  0  0  0  0  0
   14.4488  -35.8412   25.7670 H   0  0  0  0  0  0  0  0  0  0  0  0
   14.3592  -33.8280   27.0381 H   0  0  0  0  0  0  0  0  0  0  0  0
   15.1576  -30.1032   23.7123 H   0  0  0  0  0  0  0  0  0  0  0  0
  1 10  1  0  0  0  0
  2 14  1  0  0  0  0
  3 14  2  0  0  0  0
  4 15  2  0  0  0  0
  5 16  1  0  0  0  0
  6 17  1  0  0  0  0
  7 18  1  0  0  0  0
  8 19  1  0  0  0  0
  9 11  1  0  0  0  0
  9 15  1  0  0  0  0
  9 20  1  0  0  0  0
 10 16  1  0  0  0  0
 11 17  1  0  0  0  0
 12 13  2  0  0  0  0
 12 15  1  0  0  0  0
 13 20  1  0  0  0  0
 14 20  1  0  0  0  0
 16 18  1  0  0  0  0
 17 19  1  0  0  0  0
 18 19  1  0  0  0  0
  1 21  1  0  0  0  0
  2 22  1  0  0  0  0
  5 23  1  0  0  0  0
  6 24  1  0  0  0  0
  7 25  1  0  0  0  0
  8 26  1  0  0  0  0
 10 27  1  0  0  0  0
 10 28  1  0  0  0  0
 11 29  1  0  0  0  0
 11 30  1  0  0  0  0
 12 31  1  0  0  0  0
 13 32  1  0  0  0  0
 16 33  1  0  0  0  0
 17 34  1  0  0  0  0
 18 35  1  0  0  0  0
 19 36  1  0  0  0  0
 20 37  1  0  0  0  0
M  END
> <pdb_id>
6HM2

> <uniprot_id>
W8FRA6

> <usmiles>
O=C(O)[C@H]1N(C(=O)C=C1)C[C@@H](O)[C@@H](O)[C@H](O)[C@H](O)CO

$$$$
G9Z_B_420
          07202410553D 1   1.00000     0.00000     0
            
 39 39  0  0  0  0            999 V2000
   13.8790  -38.2460   26.6230 O   0  0  0  0  0  0  0  0  0  0  0  0
   12.2930  -30.1970   22.6770 O   0  0  0  0  0  0  0  0  0  0  0  0
   13.4610  -28.3840   23.2520 O   0  0  0  0  0  0  0  0  0  0  0  0
   14.9740  -33.5950   21.5830 O   0  0  0  0  0  0  0  0  0  0  0  0
   13.5440  -35.9340   28.3650 O   0  0  0  0  0  0  0  0  0  0  0  0
   15.3410  -32.0630   25.6850 O   0  0  0  0  0  0  0  0  0  0  0  0
   12.6690  -35.4860   24.7480 O   0  0  0  0  0  0  0  0  0  0  0  0
   12.5360  -33.0700   26.5190 O   0  0  0  0  0  0  0  0  0  0  0  0
   14.4070  -31.8740   22.9630 N   0  0  0  0  0  0  0  0  0  0  0  0
   12.6040  -37.5950   26.8020 C   0  0  0  0  0  0  0  0  0  0  0  0
   13.6750  -32.6760   23.9950 C   0  0  0  0  0  0  0  0  0  0  0  0
   15.6300  -31.4400   21.0790 C   0  0  0  0  0  0  0  0  0  0  0  0
   15.3540  -30.0620   21.6840 C   0  0  0  0  0  0  0  0  0  0  0  0
   13.3630  -29.6100   22.9930 C   0  0  0  0  0  0  0  0  0  0  0  0
   14.9460  -32.3870   21.8450 C   0  0  0  0  0  0  0  0  0  0  0  0
   12.7950  -36.1010   27.1350 C   0  0  2  0  0  0  0  0  0  0  0  0
   14.5790  -33.1660   25.1470 C   0  0  2  0  0  0  0  0  0  0  0  0
   13.4440  -35.3350   25.9550 C   0  0  2  0  0  0  0  0  0  0  0  0
   13.7380  -33.8300   26.2620 C   0  0  2  0  0  0  0  0  0  0  0  0
   14.5790  -30.3490   22.9790 C   0  0  1  0  0  0  0  0  0  0  0  0
   13.7330  -39.2117   26.4083 H   0  0  0  0  0  0  0  0  0  0  0  0
   12.2989  -31.1785   22.4855 H   0  0  0  0  0  0  0  0  0  0  0  0
   13.6541  -34.9591   28.5585 H   0  0  0  0  0  0  0  0  0  0  0  0
   15.9223  -32.3912   26.4295 H   0  0  0  0  0  0  0  0  0  0  0  0
   13.1091  -34.9830   24.0042 H   0  0  0  0  0  0  0  0  0  0  0  0
   12.0079  -33.5158   27.2417 H   0  0  0  0  0  0  0  0  0  0  0  0
   12.1119  -38.0378   27.5515 H   0  0  0  0  0  0  0  0  0  0  0  0
   12.0722  -37.6778   25.9592 H   0  0  0  0  0  0  0  0  0  0  0  0
   13.2709  -33.4741   23.5480 H   0  0  0  0  0  0  0  0  0  0  0  0
   12.9491  -32.1074   24.3819 H   0  0  0  0  0  0  0  0  0  0  0  0
   16.6115  -31.6303   21.0997 H   0  0  0  0  0  0  0  0  0  0  0  0
   15.3049  -31.4679   20.1337 H   0  0  0  0  0  0  0  0  0  0  0  0
   14.8037  -29.5072   21.0599 H   0  0  0  0  0  0  0  0  0  0  0  0
   16.2111  -29.5873   21.8844 H   0  0  0  0  0  0  0  0  0  0  0  0
   11.8869  -35.7091   27.2824 H   0  0  0  0  0  0  0  0  0  0  0  0
   15.2167  -33.8450   24.7833 H   0  0  0  0  0  0  0  0  0  0  0  0
   14.3280  -35.7698   25.7835 H   0  0  0  0  0  0  0  0  0  0  0  0
   14.2861  -33.8031   27.0980 H   0  0  0  0  0  0  0  0  0  0  0  0
   15.1372  -30.0856   23.7658 H   0  0  0  0  0  0  0  0  0  0  0  0
  1 10  1  0  0  0  0
  2 14  1  0  0  0  0
  3 14  2  0  0  0  0
  4 15  2  0  0  0  0
  5 16  1  0  0  0  0
  6 17  1  0  0  0  0
  7 18  1  0  0  0  0
  8 19  1  0  0  0  0
  9 11  1  0  0  0  0
  9 15  1  0  0  0  0
  9 20  1  0  0  0  0
 10 16  1  0  0  0  0
 11 17  1  0  0  0  0
 12 13  1  0  0  0  0
 12 15  1  0  0  0  0
 13 20  1  0  0  0  0
 14 20  1  0  0  0  0
 16 18  1  0  0  0  0
 17 19  1  0  0  0  0
 18 19  1  0  0  0  0
  1 21  1  0  0  0  0
  2 22  1  0  0  0  0
  5 23  1  0  0  0  0
  6 24  1  0  0  0  0
  7 25  1  0  0  0  0
  8 26  1  0  0  0  0
 10 27  1  0  0  0  0
 10 28  1  0  0  0  0
 11 29  1  0  0  0  0
 11 30  1  0  0  0  0
 12 31  1  0  0  0  0
 12 32  1  0  0  0  0
 13 33  1  0  0  0  0
 13 34  1  0  0  0  0
 16 35  1  0  0  0  0
 17 36  1  0  0  0  0
 18 37  1  0  0  0  0
 19 38  1  0  0  0  0
 20 39  1  0  0  0  0
M  END
> <pdb_id>
6HLZ

> <uniprot_id>
W8FRA6

> <usmiles>
O=C(O)[C@H]1N(C(=O)CC1)C[C@@H](O)[C@@H](O)[C@H](O)[C@H](O)CO

$$$$
GA2_A_1
          07192419053D 1   1.00000     0.00000     0
            
 31 32  0  0  0  0            999 V2000
   18.0208   98.3500   44.6604 O   0  0  0  0  0  0  0  0  0  0  0  0
   16.4355   94.4150   43.8353 O   0  0  0  0  0  0  0  0  0  0  0  0
   25.4124   96.4328   44.7692 O   0  0  0  0  0  0  0  0  0  0  0  0
   18.7017   96.0392   43.5999 O   0  0  0  0  0  0  0  0  0  0  0  0
   23.8499   92.1865   44.2457 N   0  0  0  0  0  0  0  0  0  0  0  0
   22.5701   97.4159   44.2521 N   0  0  0  0  0  0  0  0  0  0  0  0
   24.5917   94.3749   44.5201 N   0  0  0  0  0  0  0  0  0  0  0  0
   22.3050   93.8103   44.0984 N   0  0  0  0  0  0  0  0  0  0  0  0
   20.9958   95.8103   43.9569 N   0  0  0  0  0  0  0  0  0  0  0  0
   19.7505   95.1026   43.6818 C   0  0  0  0  0  0  0  0  0  0  0  0
   17.1397   97.2427   44.9330 C   0  0  0  0  0  0  0  0  0  0  0  0
   16.9535   94.8268   45.0909 C   0  0  0  0  0  0  0  0  0  0  0  0
   21.3368   97.1404   44.0325 C   0  0  0  0  0  0  0  0  0  0  0  0
   24.4419   95.7340   44.5660 C   0  0  0  0  0  0  0  0  0  0  0  0
   23.5770   93.4696   44.2803 C   0  0  0  0  0  0  0  0  0  0  0  0
   17.9283   95.9993   44.8520 C   0  0  0  0  0  0  0  0  0  0  0  0
   22.1615   95.1725   44.1499 C   0  0  0  0  0  0  0  0  0  0  0  0
   23.1168   96.1348   44.3422 C   0  0  0  0  0  0  0  0  0  0  0  0
   17.5059   99.2058   44.7101 H   0  0  0  0  0  0  0  0  0  0  0  0
   15.8005   93.6544   43.9700 H   0  0  0  0  0  0  0  0  0  0  0  0
   23.1205   91.5247   44.0726 H   0  0  0  0  0  0  0  0  0  0  0  0
   24.7873   91.8706   44.3924 H   0  0  0  0  0  0  0  0  0  0  0  0
   25.5094   94.0079   44.6724 H   0  0  0  0  0  0  0  0  0  0  0  0
   19.8288   94.6098   42.8151 H   0  0  0  0  0  0  0  0  0  0  0  0
   19.5637   94.4530   44.4188 H   0  0  0  0  0  0  0  0  0  0  0  0
   16.4029   97.2214   44.2572 H   0  0  0  0  0  0  0  0  0  0  0  0
   16.7494   97.3375   45.8487 H   0  0  0  0  0  0  0  0  0  0  0  0
   17.4387   94.0663   45.5223 H   0  0  0  0  0  0  0  0  0  0  0  0
   16.2055   95.1245   45.6841 H   0  0  0  0  0  0  0  0  0  0  0  0
   20.6530   97.8615   43.9210 H   0  0  0  0  0  0  0  0  0  0  0  0
   18.5811   96.0071   45.6094 H   0  0  0  0  0  0  0  0  0  0  0  0
  1 11  1  0  0  0  0
  2 12  1  0  0  0  0
  3 14  2  0  0  0  0
  4 10  1  0  0  0  0
  4 16  1  0  0  0  0
  5 15  1  0  0  0  0
  6 13  2  0  0  0  0
  6 18  1  0  0  0  0
  7 14  1  0  0  0  0
  7 15  1  0  0  0  0
  8 15  2  0  0  0  0
  8 17  1  0  0  0  0
  9 10  1  0  0  0  0
  9 13  1  0  0  0  0
  9 17  1  0  0  0  0
 11 16  1  0  0  0  0
 12 16  1  0  0  0  0
 14 18  1  0  0  0  0
 17 18  2  0  0  0  0
  1 19  1  0  0  0  0
  2 20  1  0  0  0  0
  5 21  1  0  0  0  0
  5 22  1  0  0  0  0
  7 23  1  0  0  0  0
 10 24  1  0  0  0  0
 10 25  1  0  0  0  0
 11 26  1  0  0  0  0
 11 27  1  0  0  0  0
 12 28  1  0  0  0  0
 12 29  1  0  0  0  0
 13 30  1  0  0  0  0
 16 31  1  0  0  0  0
M  END
> <pdb_id>
1KI2

> <uniprot_id>
P03176

> <usmiles>
O=C1NC(=NC=2N(C=NC12)COC(CO)CO)N

$$$$
GA2_A_301
          07192423183D 1   1.00000     0.00000     0
            
 31 32  0  0  0  0            999 V2000
  -48.6390   20.6050   19.6400 O   0  0  0  0  0  0  0  0  0  0  0  0
  -47.2300   21.7480   23.5280 O   0  0  0  0  0  0  0  0  0  0  0  0
  -52.4620   21.2780   27.8510 O   0  0  0  0  0  0  0  0  0  0  0  0
  -49.1000   19.8500   22.3960 O   0  0  0  0  0  0  0  0  0  0  0  0
  -52.8200   24.0390   24.1650 N   0  0  0  0  0  0  0  0  0  0  0  0
  -51.1610   19.1770   26.0840 N   0  0  0  0  0  0  0  0  0  0  0  0
  -52.6380   22.6540   26.0130 N   0  0  0  0  0  0  0  0  0  0  0  0
  -51.8200   21.9030   23.9080 N   0  0  0  0  0  0  0  0  0  0  0  0
  -50.8530   19.5860   23.9230 N   0  0  0  0  0  0  0  0  0  0  0  0
  -50.4590   19.4250   22.5190 C   0  0  0  0  0  0  0  0  0  0  0  0
  -49.4870   21.3080   20.5370 C   0  0  0  0  0  0  0  0  0  0  0  0
  -47.5940   21.7150   22.1540 C   0  0  0  0  0  0  0  0  0  0  0  0
  -50.6910   18.6760   24.9250 C   0  0  0  0  0  0  0  0  0  0  0  0
  -52.2620   21.4880   26.6210 C   0  0  0  0  0  0  0  0  0  0  0  0
  -52.4270   22.8440   24.6840 C   0  0  0  0  0  0  0  0  0  0  0  0
  -49.0170   21.2140   21.9880 C   0  0  0  0  0  0  0  0  0  0  0  0
  -51.4450   20.6880   24.4130 C   0  0  0  0  0  0  0  0  0  0  0  0
  -51.6500   20.4250   25.8290 C   0  0  0  0  0  0  0  0  0  0  0  0
  -48.9895   20.6979   18.7080 H   0  0  0  0  0  0  0  0  0  0  0  0
  -46.2909   22.0802   23.6162 H   0  0  0  0  0  0  0  0  0  0  0  0
  -52.6874   24.2295   23.1923 H   0  0  0  0  0  0  0  0  0  0  0  0
  -53.2414   24.7266   24.7563 H   0  0  0  0  0  0  0  0  0  0  0  0
  -53.0731   23.3749   26.5525 H   0  0  0  0  0  0  0  0  0  0  0  0
  -50.5411   18.4652   22.2504 H   0  0  0  0  0  0  0  0  0  0  0  0
  -51.0452   19.9860   21.9345 H   0  0  0  0  0  0  0  0  0  0  0  0
  -50.4083   20.9243   20.4735 H   0  0  0  0  0  0  0  0  0  0  0  0
  -49.5079   22.2712   20.2691 H   0  0  0  0  0  0  0  0  0  0  0  0
  -46.9717   21.1044   21.6641 H   0  0  0  0  0  0  0  0  0  0  0  0
  -47.5242   22.6372   21.7737 H   0  0  0  0  0  0  0  0  0  0  0  0
  -50.2831   17.7695   24.8158 H   0  0  0  0  0  0  0  0  0  0  0  0
  -49.6241   21.7628   22.5627 H   0  0  0  0  0  0  0  0  0  0  0  0
  1 11  1  0  0  0  0
  2 12  1  0  0  0  0
  3 14  2  0  0  0  0
  4 10  1  0  0  0  0
  4 16  1  0  0  0  0
  5 15  1  0  0  0  0
  6 13  2  0  0  0  0
  6 18  1  0  0  0  0
  7 14  1  0  0  0  0
  7 15  1  0  0  0  0
  8 15  2  0  0  0  0
  8 17  1  0  0  0  0
  9 10  1  0  0  0  0
  9 13  1  0  0  0  0
  9 17  1  0  0  0  0
 11 16  1  0  0  0  0
 12 16  1  0  0  0  0
 14 18  1  0  0  0  0
 17 18  2  0  0  0  0
  1 19  1  0  0  0  0
  2 20  1  0  0  0  0
  5 21  1  0  0  0  0
  5 22  1  0  0  0  0
  7 23  1  0  0  0  0
 10 24  1  0  0  0  0
 10 25  1  0  0  0  0
 11 26  1  0  0  0  0
 11 27  1  0  0  0  0
 12 28  1  0  0  0  0
 12 29  1  0  0  0  0
 13 30  1  0  0  0  0
 16 31  1  0  0  0  0
M  END
> <pdb_id>
4DA6

> <uniprot_id>
O34925

> <usmiles>
O=C1NC(=NC=2N(C=NC12)COC(CO)CO)N

$$$$
GAL_A_1001
          07202415563D 1   1.00000     0.00000     0
            
 24 24  0  0  0  0            999 V2000
   80.9304   88.2192   16.9131 O   0  0  0  0  0  0  0  0  0  0  0  0
   76.1216   88.0726   17.1698 O   0  0  0  0  0  0  0  0  0  0  0  0
   75.4716   90.3305   19.2022 O   0  0  0  0  0  0  0  0  0  0  0  0
   77.1992   89.6725   21.6078 O   0  0  0  0  0  0  0  0  0  0  0  0
   78.5801   87.5471   20.4541 O   0  0  0  0  0  0  0  0  0  0  0  0
   78.2611   88.2965   17.8090 O   0  0  0  0  0  0  0  0  0  0  0  0
   80.5729   88.1335   18.3133 C   0  0  0  0  0  0  0  0  0  0  0  0
   76.9936   88.9325   17.8090 C   0  0  2  0  0  0  0  0  0  0  0  0
   76.4791   89.2840   19.2454 C   0  0  1  0  0  0  0  0  0  0  0  0
   77.6116   89.7581   20.2118 C   0  0  2  0  0  0  0  0  0  0  0  0
   78.8628   88.8957   20.0630 C   0  0  2  0  0  0  0  0  0  0  0  0
   79.2762   88.9185   18.6167 C   0  0  2  0  0  0  0  0  0  0  0  0
   81.7710   87.7022   16.7514 H   0  0  0  0  0  0  0  0  0  0  0  0
   75.2090   88.4807   17.1453 H   0  0  0  0  0  0  0  0  0  0  0  0
   75.1621   90.5338   20.1311 H   0  0  0  0  0  0  0  0  0  0  0  0
   77.9462   89.9828   22.1958 H   0  0  0  0  0  0  0  0  0  0  0  0
   79.4049   86.9908   20.3532 H   0  0  0  0  0  0  0  0  0  0  0  0
   81.3179   88.5120   18.8625 H   0  0  0  0  0  0  0  0  0  0  0  0
   80.4353   87.1730   18.5551 H   0  0  0  0  0  0  0  0  0  0  0  0
   77.0588   89.7765   17.2768 H   0  0  0  0  0  0  0  0  0  0  0  0
   76.0599   88.4641   19.6353 H   0  0  0  0  0  0  0  0  0  0  0  0
   77.8440   90.7073   19.9992 H   0  0  0  0  0  0  0  0  0  0  0  0
   79.5982   89.2656   20.6309 H   0  0  0  0  0  0  0  0  0  0  0  0
   79.3918   89.8677   18.3240 H   0  0  0  0  0  0  0  0  0  0  0  0
  1  7  1  0  0  0  0
  2  8  1  0  0  0  0
  3  9  1  0  0  0  0
  4 10  1  0  0  0  0
  5 11  1  0  0  0  0
  6  8  1  0  0  0  0
  6 12  1  0  0  0  0
  7 12  1  0  0  0  0
  8  9  1  0  0  0  0
  9 10  1  0  0  0  0
 10 11  1  0  0  0  0
 11 12  1  0  0  0  0
  1 13  1  0  0  0  0
  2 14  1  0  0  0  0
  3 15  1  0  0  0  0
  4 16  1  0  0  0  0
  5 17  1  0  0  0  0
  7 18  1  0  0  0  0
  7 19  1  0  0  0  0
  8 20  1  0  0  0  0
  9 21  1  0  0  0  0
 10 22  1  0  0  0  0
 11 23  1  0  0  0  0
 12 24  1  0  0  0  0
M  END
> <pdb_id>
4CCE

> <uniprot_id>
P54818

> <usmiles>
O1[C@@H](O)[C@H](O)[C@@H](O)[C@@H](O)[C@H]1CO

$$$$
GAL_A_1024
          07202404243D 1   1.00000     0.00000     0
            
 24 24  0  0  0  0            999 V2000
   -6.0446   -6.3332   -1.3939 O   0  0  0  0  0  0  0  0  0  0  0  0
  -10.2742   -6.5348   -5.2690 O   0  0  0  0  0  0  0  0  0  0  0  0
  -10.5733   -3.5181   -4.9865 O   0  0  0  0  0  0  0  0  0  0  0  0
   -9.7900   -2.6802   -2.3541 O   0  0  0  0  0  0  0  0  0  0  0  0
   -9.3993   -5.1704   -1.3061 O   0  0  0  0  0  0  0  0  0  0  0  0
   -8.7752   -6.4102   -3.7542 O   0  0  0  0  0  0  0  0  0  0  0  0
   -7.1334   -6.8706   -2.1423 C   0  0  0  0  0  0  0  0  0  0  0  0
   -9.3536   -5.5904   -4.7242 C   0  0  2  0  0  0  0  0  0  0  0  0
  -10.0749   -4.4107   -3.9931 C   0  0  1  0  0  0  0  0  0  0  0  0
   -9.0957   -3.6562   -3.1162 C   0  0  2  0  0  0  0  0  0  0  0  0
   -8.3931   -4.6240   -2.1553 C   0  0  2  0  0  0  0  0  0  0  0  0
   -7.7585   -5.7376   -2.9834 C   0  0  2  0  0  0  0  0  0  0  0  0
   -5.6292   -7.0572   -0.8432 H   0  0  0  0  0  0  0  0  0  0  0  0
  -10.7956   -6.1050   -6.0062 H   0  0  0  0  0  0  0  0  0  0  0  0
  -11.0402   -2.7530   -4.5431 H   0  0  0  0  0  0  0  0  0  0  0  0
   -9.1411   -2.1844   -1.7769 H   0  0  0  0  0  0  0  0  0  0  0  0
   -8.9803   -5.8097   -0.6615 H   0  0  0  0  0  0  0  0  0  0  0  0
   -7.8193   -7.2446   -1.5180 H   0  0  0  0  0  0  0  0  0  0  0  0
   -6.8020   -7.5953   -2.7464 H   0  0  0  0  0  0  0  0  0  0  0  0
   -8.6892   -5.2714   -5.4000 H   0  0  0  0  0  0  0  0  0  0  0  0
  -10.8298   -4.7620   -3.4391 H   0  0  0  0  0  0  0  0  0  0  0  0
   -8.4134   -3.2051   -3.6916 H   0  0  0  0  0  0  0  0  0  0  0  0
   -7.6993   -4.1453   -1.6173 H   0  0  0  0  0  0  0  0  0  0  0  0
   -7.0691   -5.3520   -3.5966 H   0  0  0  0  0  0  0  0  0  0  0  0
  1  7  1  0  0  0  0
  2  8  1  0  0  0  0
  3  9  1  0  0  0  0
  4 10  1  0  0  0  0
  5 11  1  0  0  0  0
  6  8  1  0  0  0  0
  6 12  1  0  0  0  0
  7 12  1  0  0  0  0
  8  9  1  0  0  0  0
  9 10  1  0  0  0  0
 10 11  1  0  0  0  0
 11 12  1  0  0  0  0
  1 13  1  0  0  0  0
  2 14  1  0  0  0  0
  3 15  1  0  0  0  0
  4 16  1  0  0  0  0
  5 17  1  0  0  0  0
  7 18  1  0  0  0  0
  7 19  1  0  0  0  0
  8 20  1  0  0  0  0
  9 21  1  0  0  0  0
 10 22  1  0  0  0  0
 11 23  1  0  0  0  0
 12 24  1  0  0  0  0
M  END
> <pdb_id>
3OGR

> <uniprot_id>
Q70SY0

> <usmiles>
O1[C@@H](O)[C@H](O)[C@@H](O)[C@@H](O)[C@H]1CO

$$$$
GAL_A_2495
          07192422153D 1   1.00000     0.00000     0
            
 24 24  0  0  0  0            999 V2000
  -26.1033  -12.8617  -21.1670 O   0  0  0  0  0  0  0  0  0  0  0  0
  -28.6318   -9.1245  -23.1807 O   0  0  0  0  0  0  0  0  0  0  0  0
  -26.8178   -7.2689  -24.2407 O   0  0  0  0  0  0  0  0  0  0  0  0
  -24.3061   -7.2097  -22.9515 O   0  0  0  0  0  0  0  0  0  0  0  0
  -25.0403   -8.7343  -20.6696 O   0  0  0  0  0  0  0  0  0  0  0  0
  -26.9591  -10.1969  -22.0582 O   0  0  0  0  0  0  0  0  0  0  0  0
  -25.3951  -11.6435  -20.9377 C   0  0  0  0  0  0  0  0  0  0  0  0
  -27.2643   -9.4254  -23.2073 C   0  0  2  0  0  0  0  0  0  0  0  0
  -26.5086   -8.1120  -23.1324 C   0  0  1  0  0  0  0  0  0  0  0  0
  -25.0113   -8.4391  -23.0683 C   0  0  2  0  0  0  0  0  0  0  0  0
  -24.7413   -9.3972  -21.9154 C   0  0  2  0  0  0  0  0  0  0  0  0
  -25.6171  -10.6446  -22.0718 C   0  0  2  0  0  0  0  0  0  0  0  0
  -25.9371  -13.4918  -20.4085 H   0  0  0  0  0  0  0  0  0  0  0  0
  -28.8689   -8.5792  -23.9847 H   0  0  0  0  0  0  0  0  0  0  0  0
  -26.3053   -6.4138  -24.1622 H   0  0  0  0  0  0  0  0  0  0  0  0
  -23.3238   -7.3918  -22.9074 H   0  0  0  0  0  0  0  0  0  0  0  0
  -24.8647   -9.3593  -19.9090 H   0  0  0  0  0  0  0  0  0  0  0  0
  -24.4179  -11.8439  -20.8679 H   0  0  0  0  0  0  0  0  0  0  0  0
  -25.7143  -11.2384  -20.0809 H   0  0  0  0  0  0  0  0  0  0  0  0
  -27.0274   -9.9233  -24.0415 H   0  0  0  0  0  0  0  0  0  0  0  0
  -26.7693   -7.6407  -22.2898 H   0  0  0  0  0  0  0  0  0  0  0  0
  -24.7430   -8.8827  -23.9234 H   0  0  0  0  0  0  0  0  0  0  0  0
  -23.7779   -9.6651  -21.9256 H   0  0  0  0  0  0  0  0  0  0  0  0
  -25.4198  -11.0842  -22.9481 H   0  0  0  0  0  0  0  0  0  0  0  0
  1  7  1  0  0  0  0
  2  8  1  0  0  0  0
  3  9  1  0  0  0  0
  4 10  1  0  0  0  0
  5 11  1  0  0  0  0
  6  8  1  0  0  0  0
  6 12  1  0  0  0  0
  7 12  1  0  0  0  0
  8  9  1  0  0  0  0
  9 10  1  0  0  0  0
 10 11  1  0  0  0  0
 11 12  1  0  0  0  0
  1 13  1  0  0  0  0
  2 14  1  0  0  0  0
  3 15  1  0  0  0  0
  4 16  1  0  0  0  0
  5 17  1  0  0  0  0
  7 18  1  0  0  0  0
  7 19  1  0  0  0  0
  8 20  1  0  0  0  0
  9 21  1  0  0  0  0
 10 22  1  0  0  0  0
 11 23  1  0  0  0  0
 12 24  1  0  0  0  0
M  END
> <pdb_id>
4A41

> <uniprot_id>
Q0TST1

> <usmiles>
O1[C@@H](O)[C@H](O)[C@@H](O)[C@@H](O)[C@H]1CO

$$$$
GAL_A_350
          07202413053D 1   1.00000     0.00000     0
            
 24 24  0  0  0  0            999 V2000
    2.7573   -1.2026  -43.8693 O   0  0  0  0  0  0  0  0  0  0  0  0
    1.2233   -5.7110  -42.4978 O   0  0  0  0  0  0  0  0  0  0  0  0
    0.7702   -7.2667  -44.7851 O   0  0  0  0  0  0  0  0  0  0  0  0
    0.2022   -5.7897  -47.1017 O   0  0  0  0  0  0  0  0  0  0  0  0
   -0.1739   -3.2970  -46.1192 O   0  0  0  0  0  0  0  0  0  0  0  0
    1.5139   -3.8236  -43.7774 O   0  0  0  0  0  0  0  0  0  0  0  0
    1.8530   -1.6666  -44.8617 C   0  0  0  0  0  0  0  0  0  0  0  0
    1.5948   -5.2491  -43.7417 C   0  0  2  0  0  0  0  0  0  0  0  0
    0.6764   -5.8487  -44.8088 C   0  0  1  0  0  0  0  0  0  0  0  0
    1.0996   -5.3180  -46.1613 C   0  0  2  0  0  0  0  0  0  0  0  0
    1.1476   -3.7554  -46.2060 C   0  0  2  0  0  0  0  0  0  0  0  0
    1.9807   -3.2045  -45.0119 C   0  0  2  0  0  0  0  0  0  0  0  0
    2.2905   -0.7593  -43.1787 H   0  0  0  0  0  0  0  0  0  0  0  0
    1.7879   -5.3212  -41.8397 H   0  0  0  0  0  0  0  0  0  0  0  0
   -0.1368   -7.7029  -44.7811 H   0  0  0  0  0  0  0  0  0  0  0  0
    0.1237   -6.7366  -47.0061 H   0  0  0  0  0  0  0  0  0  0  0  0
   -0.1642   -2.3431  -46.1459 H   0  0  0  0  0  0  0  0  0  0  0  0
    0.8288   -1.3759  -44.6073 H   0  0  0  0  0  0  0  0  0  0  0  0
    2.1135   -1.2065  -45.8223 H   0  0  0  0  0  0  0  0  0  0  0  0
    2.6383   -5.5626  -43.9209 H   0  0  0  0  0  0  0  0  0  0  0  0
   -0.3661   -5.5475  -44.5994 H   0  0  0  0  0  0  0  0  0  0  0  0
    2.0929   -5.7203  -46.3924 H   0  0  0  0  0  0  0  0  0  0  0  0
    1.6017   -3.4354  -47.1570 H   0  0  0  0  0  0  0  0  0  0  0  0
    3.0390   -3.4589  -45.1617 H   0  0  0  0  0  0  0  0  0  0  0  0
  1  7  1  0  0  0  0
  1 13  1  0  0  0  0
  2  8  1  0  0  0  0
  2 14  1  0  0  0  0
  3  9  1  0  0  0  0
  3 15  1  0  0  0  0
  4 10  1  0  0  0  0
  4 16  1  0  0  0  0
  5 11  1  0  0  0  0
  5 17  1  0  0  0  0
  6  8  1  0  0  0  0
  6 12  1  0  0  0  0
  7 12  1  0  0  0  0
  7 18  1  0  0  0  0
  7 19  1  0  0  0  0
  8  9  1  0  0  0  0
  8 20  1  0  0  0  0
  9 10  1  0  0  0  0
  9 21  1  0  0  0  0
 10 11  1  0  0  0  0
 10 22  1  0  0  0  0
 11 12  1  0  0  0  0
 11 23  1  0  0  0  0
 12 24  1  0  0  0  0
M  END
> <pdb_id>
1GCA

> <uniprot_id>
P23905

> <usmiles>
O1[C@@H](O)[C@H](O)[C@@H](O)[C@@H](O)[C@H]1CO

$$$$
GAL_A_401
          07202416113D 1   1.00000     0.00000     0
            
 22 22  0  0  0  0            999 V2000
  -33.6165   -6.4895  -91.3789 O   0  0  0  0  0  0  0  0  0  0  0  0
  -34.8109   -7.6880  -96.2812 O   0  0  0  0  0  0  0  0  0  0  0  0
  -33.8853   -5.4563  -97.8084 O   0  0  0  0  0  0  0  0  0  0  0  0
  -32.2392   -3.8094  -95.9493 O   0  0  0  0  0  0  0  0  0  0  0  0
  -33.9137   -3.7945  -93.7172 O   0  0  0  0  0  0  0  0  0  0  0  0
  -35.4345   -6.2559  -94.6364 O   0  0  0  0  0  0  0  0  0  0  0  0
  -34.7875   -6.2806  -92.2271 C   0  0  0  0  0  0  0  0  0  0  0  0
  -34.7990   -6.4628  -95.8029 C   0  0  0  0  0  0  0  0  0  0  0  0
  -34.2951   -5.2122  -96.5408 C   0  0  1  0  0  0  0  0  0  0  0  0
  -32.9677   -5.0054  -95.6885 C   0  0  2  0  0  0  0  0  0  0  0  0
  -33.3334   -5.0444  -94.1010 C   0  0  2  0  0  0  0  0  0  0  0  0
  -34.2693   -6.2207  -93.7243 C   0  0  2  0  0  0  0  0  0  0  0  0
  -33.9020   -6.5333  -90.4215 H   0  0  0  0  0  0  0  0  0  0  0  0
  -33.5721   -4.6041  -98.2274 H   0  0  0  0  0  0  0  0  0  0  0  0
  -31.4286   -3.7786  -95.3645 H   0  0  0  0  0  0  0  0  0  0  0  0
  -34.1388   -3.8165  -92.7432 H   0  0  0  0  0  0  0  0  0  0  0  0
  -35.2383   -5.4215  -91.9849 H   0  0  0  0  0  0  0  0  0  0  0  0
  -35.4314   -7.0377  -92.1164 H   0  0  0  0  0  0  0  0  0  0  0  0
  -34.9259   -4.4391  -96.4758 H   0  0  0  0  0  0  0  0  0  0  0  0
  -32.3615   -5.7775  -95.8792 H   0  0  0  0  0  0  0  0  0  0  0  0
  -32.4799   -5.1559  -93.5919 H   0  0  0  0  0  0  0  0  0  0  0  0
  -33.7530   -7.0621  -93.8842 H   0  0  0  0  0  0  0  0  0  0  0  0
  1  7  1  0  0  0  0
  2  8  2  0  0  0  0
  3  9  1  0  0  0  0
  4 10  1  0  0  0  0
  5 11  1  0  0  0  0
  6  8  1  0  0  0  0
  6 12  1  0  0  0  0
  7 12  1  0  0  0  0
  8  9  1  0  0  0  0
  9 10  1  0  0  0  0
 10 11  1  0  0  0  0
 11 12  1  0  0  0  0
  1 13  1  0  0  0  0
  3 14  1  0  0  0  0
  4 15  1  0  0  0  0
  5 16  1  0  0  0  0
  7 17  1  0  0  0  0
  7 18  1  0  0  0  0
  9 19  1  0  0  0  0
 10 20  1  0  0  0  0
 11 21  1  0  0  0  0
 12 22  1  0  0  0  0
M  END
> <pdb_id>
6Q8Z

> <uniprot_id>
P51570

> <usmiles>
O=C1O[C@@H]([C@H](O)[C@H](O)[C@H]1O)CO

$$$$
GAL_A_901
          07192422123D 1   1.00000     0.00000     0
            
 24 24  0  0  0  0            999 V2000
   15.4556   15.3956   63.3656 O   0  0  0  0  0  0  0  0  0  0  0  0
   13.1838   16.3450   67.5781 O   0  0  0  0  0  0  0  0  0  0  0  0
   12.0923   13.9043   68.5077 O   0  0  0  0  0  0  0  0  0  0  0  0
   11.8275   11.9262   66.6886 O   0  0  0  0  0  0  0  0  0  0  0  0
   12.1162   13.2322   64.4058 O   0  0  0  0  0  0  0  0  0  0  0  0
   13.7868   15.3093   65.6156 O   0  0  0  0  0  0  0  0  0  0  0  0
   14.3633   14.5165   63.5135 C   0  0  0  0  0  0  0  0  0  0  0  0
   13.6035   15.1226   67.0201 C   0  0  2  0  0  0  0  0  0  0  0  0
   12.4893   14.1124   67.1779 C   0  0  1  0  0  0  0  0  0  0  0  0
   12.9322   12.7865   66.6073 C   0  0  2  0  0  0  0  0  0  0  0  0
   13.2909   12.9906   65.1480 C   0  0  2  0  0  0  0  0  0  0  0  0
   14.2562   14.1420   64.9818 C   0  0  2  0  0  0  0  0  0  0  0  0
   15.5457   15.6564   62.4044 H   0  0  0  0  0  0  0  0  0  0  0  0
   13.0502   16.2335   68.5629 H   0  0  0  0  0  0  0  0  0  0  0  0
   11.3564   13.2277   68.5338 H   0  0  0  0  0  0  0  0  0  0  0  0
   12.0749   11.0302   66.3198 H   0  0  0  0  0  0  0  0  0  0  0  0
   12.3519   13.3669   63.4434 H   0  0  0  0  0  0  0  0  0  0  0  0
   14.5126   13.6946   62.9638 H   0  0  0  0  0  0  0  0  0  0  0  0
   13.5219   14.9680   63.2164 H   0  0  0  0  0  0  0  0  0  0  0  0
   14.4454   14.8000   67.4529 H   0  0  0  0  0  0  0  0  0  0  0  0
   11.6971   14.4316   66.6578 H   0  0  0  0  0  0  0  0  0  0  0  0
   13.7094   12.4192   67.1183 H   0  0  0  0  0  0  0  0  0  0  0  0
   13.7227   12.1570   64.8037 H   0  0  0  0  0  0  0  0  0  0  0  0
   15.1557   13.8926   65.3406 H   0  0  0  0  0  0  0  0  0  0  0  0
  1  7  1  0  0  0  0
  2  8  1  0  0  0  0
  3  9  1  0  0  0  0
  4 10  1  0  0  0  0
  5 11  1  0  0  0  0
  6  8  1  0  0  0  0
  6 12  1  0  0  0  0
  7 12  1  0  0  0  0
  8  9  1  0  0  0  0
  9 10  1  0  0  0  0
 10 11  1  0  0  0  0
 11 12  1  0  0  0  0
  1 13  1  0  0  0  0
  2 14  1  0  0  0  0
  3 15  1  0  0  0  0
  4 16  1  0  0  0  0
  5 17  1  0  0  0  0
  7 18  1  0  0  0  0
  7 19  1  0  0  0  0
  8 20  1  0  0  0  0
  9 21  1  0  0  0  0
 10 22  1  0  0  0  0
 11 23  1  0  0  0  0
 12 24  1  0  0  0  0
M  END
> <pdb_id>
1OKO

> <uniprot_id>
Q05097

> <usmiles>
O1[C@@H](O)[C@H](O)[C@@H](O)[C@@H](O)[C@H]1CO

$$$$
GAL_B_2001
          07202400463D 1   1.00000     0.00000     0
            
 24 24  0  0  0  0            999 V2000
    6.8721  -20.5112   30.0069 O   0  0  0  0  0  0  0  0  0  0  0  0
    8.2672  -18.0778   26.0362 O   0  0  0  0  0  0  0  0  0  0  0  0
    6.0907  -18.0710   24.2448 O   0  0  0  0  0  0  0  0  0  0  0  0
    4.3847  -20.3023   24.3740 O   0  0  0  0  0  0  0  0  0  0  0  0
    5.9162  -21.9770   26.1134 O   0  0  0  0  0  0  0  0  0  0  0  0
    7.2547  -19.7417   27.3076 O   0  0  0  0  0  0  0  0  0  0  0  0
    6.2830  -21.2310   28.9448 C   0  0  0  0  0  0  0  0  0  0  0  0
    7.0347  -18.6594   26.4063 C   0  0  2  0  0  0  0  0  0  0  0  0
    6.3397  -19.1505   25.1351 C   0  0  1  0  0  0  0  0  0  0  0  0
    5.0209  -19.8044   25.5350 C   0  0  2  0  0  0  0  0  0  0  0  0
    5.2326  -20.8613   26.6279 C   0  0  2  0  0  0  0  0  0  0  0  0
    6.0272  -20.2588   27.7939 C   0  0  2  0  0  0  0  0  0  0  0  0
    7.0481  -21.1305   30.7721 H   0  0  0  0  0  0  0  0  0  0  0  0
    8.1020  -17.3204   25.4045 H   0  0  0  0  0  0  0  0  0  0  0  0
    5.6368  -18.4148   23.4227 H   0  0  0  0  0  0  0  0  0  0  0  0
    3.5185  -20.7331   24.6273 H   0  0  0  0  0  0  0  0  0  0  0  0
    6.0444  -22.6531   26.8389 H   0  0  0  0  0  0  0  0  0  0  0  0
    5.4187  -21.6332   29.2468 H   0  0  0  0  0  0  0  0  0  0  0  0
    6.9013  -21.9570   28.6438 H   0  0  0  0  0  0  0  0  0  0  0  0
    6.4632  -17.9695   26.8506 H   0  0  0  0  0  0  0  0  0  0  0  0
    6.9199  -19.8266   24.6810 H   0  0  0  0  0  0  0  0  0  0  0  0
    4.4344  -19.0901   25.9167 H   0  0  0  0  0  0  0  0  0  0  0  0
    4.3396  -21.1583   26.9661 H   0  0  0  0  0  0  0  0  0  0  0  0
    5.4979  -19.4919   28.1569 H   0  0  0  0  0  0  0  0  0  0  0  0
  1  7  1  0  0  0  0
  2  8  1  0  0  0  0
  3  9  1  0  0  0  0
  4 10  1  0  0  0  0
  5 11  1  0  0  0  0
  6  8  1  0  0  0  0
  6 12  1  0  0  0  0
  7 12  1  0  0  0  0
  8  9  1  0  0  0  0
  9 10  1  0  0  0  0
 10 11  1  0  0  0  0
 11 12  1  0  0  0  0
  1 13  1  0  0  0  0
  2 14  1  0  0  0  0
  3 15  1  0  0  0  0
  4 16  1  0  0  0  0
  5 17  1  0  0  0  0
  7 18  1  0  0  0  0
  7 19  1  0  0  0  0
  8 20  1  0  0  0  0
  9 21  1  0  0  0  0
 10 22  1  0  0  0  0
 11 23  1  0  0  0  0
 12 24  1  0  0  0  0
M  END
> <pdb_id>
3AH4

> <uniprot_id>
P46084

> <usmiles>
O1[C@@H](O)[C@H](O)[C@@H](O)[C@@H](O)[C@H]1CO

$$$$
GAL_C_2001
          07192419033D 1   1.00000     0.00000     0
            
 24 24  0  0  0  0            999 V2000
  -15.4876   24.1655  -28.3891 O   0  0  0  0  0  0  0  0  0  0  0  0
  -10.9127   21.5171  -25.6540 O   0  0  0  0  0  0  0  0  0  0  0  0
  -12.0378   22.4746  -22.8974 O   0  0  0  0  0  0  0  0  0  0  0  0
  -13.7424   24.6740  -23.2646 O   0  0  0  0  0  0  0  0  0  0  0  0
  -13.1277   25.0225  -26.0805 O   0  0  0  0  0  0  0  0  0  0  0  0
  -12.5921   22.6111  -26.6029 O   0  0  0  0  0  0  0  0  0  0  0  0
  -14.0970   23.6891  -28.1128 C   0  0  0  0  0  0  0  0  0  0  0  0
  -12.2639   21.9512  -25.3954 C   0  0  2  0  0  0  0  0  0  0  0  0
  -12.3923   22.9331  -24.2589 C   0  0  1  0  0  0  0  0  0  0  0  0
  -13.7696   23.6168  -24.2384 C   0  0  2  0  0  0  0  0  0  0  0  0
  -14.1774   24.1776  -25.6639 C   0  0  2  0  0  0  0  0  0  0  0  0
  -13.9702   23.0956  -26.7077 C   0  0  2  0  0  0  0  0  0  0  0  0
  -15.5324   24.5456  -29.3129 H   0  0  0  0  0  0  0  0  0  0  0  0
  -10.5617   21.0268  -24.8563 H   0  0  0  0  0  0  0  0  0  0  0  0
  -12.1698   23.2239  -22.2484 H   0  0  0  0  0  0  0  0  0  0  0  0
  -14.6330   25.1280  -23.2405 H   0  0  0  0  0  0  0  0  0  0  0  0
  -13.3423   25.4016  -26.9806 H   0  0  0  0  0  0  0  0  0  0  0  0
  -13.4673   24.4614  -28.1963 H   0  0  0  0  0  0  0  0  0  0  0  0
  -13.8555   22.9880  -28.7837 H   0  0  0  0  0  0  0  0  0  0  0  0
  -12.8641   21.1646  -25.2501 H   0  0  0  0  0  0  0  0  0  0  0  0
  -11.7408   23.6624  -24.4678 H   0  0  0  0  0  0  0  0  0  0  0  0
  -14.4529   22.9436  -23.9557 H   0  0  0  0  0  0  0  0  0  0  0  0
  -15.0812   24.6046  -25.6917 H   0  0  0  0  0  0  0  0  0  0  0  0
  -14.6208   22.3473  -26.5779 H   0  0  0  0  0  0  0  0  0  0  0  0
  1  7  1  0  0  0  0
  2  8  1  0  0  0  0
  3  9  1  0  0  0  0
  4 10  1  0  0  0  0
  5 11  1  0  0  0  0
  6  8  1  0  0  0  0
  6 12  1  0  0  0  0
  7 12  1  0  0  0  0
  8  9  1  0  0  0  0
  9 10  1  0  0  0  0
 10 11  1  0  0  0  0
 11 12  1  0  0  0  0
  1 13  1  0  0  0  0
  2 14  1  0  0  0  0
  3 15  1  0  0  0  0
  4 16  1  0  0  0  0
  5 17  1  0  0  0  0
  7 18  1  0  0  0  0
  7 19  1  0  0  0  0
  8 20  1  0  0  0  0
  9 21  1  0  0  0  0
 10 22  1  0  0  0  0
 11 23  1  0  0  0  0
 12 24  1  0  0  0  0
M  END
> <pdb_id>
1JZ7

> <uniprot_id>
P00722

> <usmiles>
O1[C@@H](O)[C@H](O)[C@@H](O)[C@@H](O)[C@H]1CO

$$$$
GAL_C_706
          07202400003D 1   1.00000     0.00000     0
            
 24 24  0  0  0  0            999 V2000
   29.9827  -40.3082   58.3624 O   0  0  0  0  0  0  0  0  0  0  0  0
   31.6985  -39.5959   63.8768 O   0  0  0  0  0  0  0  0  0  0  0  0
   33.1436  -37.3885   63.1193 O   0  0  0  0  0  0  0  0  0  0  0  0
   33.7282  -37.1404   60.3163 O   0  0  0  0  0  0  0  0  0  0  0  0
   33.1620  -39.7184   59.7179 O   0  0  0  0  0  0  0  0  0  0  0  0
   31.2636  -40.0853   61.7212 O   0  0  0  0  0  0  0  0  0  0  0  0
   30.3751  -40.7395   59.6277 C   0  0  0  0  0  0  0  0  0  0  0  0
   31.5752  -39.0533   62.6007 C   0  0  2  0  0  0  0  0  0  0  0  0
   32.8623  -38.3808   62.1832 C   0  0  1  0  0  0  0  0  0  0  0  0
   32.5696  -37.7295   60.8222 C   0  0  2  0  0  0  0  0  0  0  0  0
   32.0943  -38.8218   59.8848 C   0  0  2  0  0  0  0  0  0  0  0  0
   30.8941  -39.5800   60.4583 C   0  0  2  0  0  0  0  0  0  0  0  0
   29.6451  -41.0875   57.8345 H   0  0  0  0  0  0  0  0  0  0  0  0
   31.9229  -38.8703   64.5273 H   0  0  0  0  0  0  0  0  0  0  0  0
   33.9931  -36.9245   62.8682 H   0  0  0  0  0  0  0  0  0  0  0  0
   33.5291  -36.7194   59.4314 H   0  0  0  0  0  0  0  0  0  0  0  0
   32.8846  -40.4563   59.1026 H   0  0  0  0  0  0  0  0  0  0  0  0
   31.0989  -41.4227   59.5308 H   0  0  0  0  0  0  0  0  0  0  0  0
   29.5899  -41.1492   60.0920 H   0  0  0  0  0  0  0  0  0  0  0  0
   30.8348  -38.3811   62.5973 H   0  0  0  0  0  0  0  0  0  0  0  0
   33.6113  -39.0399   62.1167 H   0  0  0  0  0  0  0  0  0  0  0  0
   31.8552  -37.0374   60.9250 H   0  0  0  0  0  0  0  0  0  0  0  0
   31.8489  -38.4231   59.0011 H   0  0  0  0  0  0  0  0  0  0  0  0
   30.1462  -38.9291   60.5885 H   0  0  0  0  0  0  0  0  0  0  0  0
  1  7  1  0  0  0  0
  2  8  1  0  0  0  0
  3  9  1  0  0  0  0
  4 10  1  0  0  0  0
  5 11  1  0  0  0  0
  6  8  1  0  0  0  0
  6 12  1  0  0  0  0
  7 12  1  0  0  0  0
  8  9  1  0  0  0  0
  9 10  1  0  0  0  0
 10 11  1  0  0  0  0
 11 12  1  0  0  0  0
  1 13  1  0  0  0  0
  2 14  1  0  0  0  0
  3 15  1  0  0  0  0
  4 16  1  0  0  0  0
  5 17  1  0  0  0  0
  7 18  1  0  0  0  0
  7 19  1  0  0  0  0
  8 20  1  0  0  0  0
  9 21  1  0  0  0  0
 10 22  1  0  0  0  0
 11 23  1  0  0  0  0
 12 24  1  0  0  0  0
M  END
> <pdb_id>
3WF3

> <uniprot_id>
P16278

> <usmiles>
O1[C@@H](O)[C@H](O)[C@@H](O)[C@@H](O)[C@H]1CO

$$$$
GAL_E_401
          07202416113D 1   1.00000     0.00000     0
            
 24 24  0  0  0  0            999 V2000
  -33.7240   -6.6570  -91.3860 O   0  0  0  0  0  0  0  0  0  0  0  0
  -35.5390   -7.4000  -96.2760 O   0  0  0  0  0  0  0  0  0  0  0  0
  -33.8220   -5.6060  -97.7520 O   0  0  0  0  0  0  0  0  0  0  0  0
  -32.1870   -3.8210  -95.9110 O   0  0  0  0  0  0  0  0  0  0  0  0
  -33.9770   -3.8060  -93.7390 O   0  0  0  0  0  0  0  0  0  0  0  0
  -35.3380   -6.1970  -94.4650 O   0  0  0  0  0  0  0  0  0  0  0  0
  -34.7770   -6.0960  -92.1650 C   0  0  0  0  0  0  0  0  0  0  0  0
  -34.6720   -6.5730  -95.6760 C   0  0  2  0  0  0  0  0  0  0  0  0
  -34.1780   -5.3050  -96.4160 C   0  0  1  0  0  0  0  0  0  0  0  0
  -32.9110   -5.0040  -95.5420 C   0  0  2  0  0  0  0  0  0  0  0  0
  -33.3150   -5.0140  -94.0290 C   0  0  2  0  0  0  0  0  0  0  0  0
  -34.2310   -6.1550  -93.5850 C   0  0  2  0  0  0  0  0  0  0  0  0
  -33.9894   -6.6631  -90.4219 H   0  0  0  0  0  0  0  0  0  0  0  0
  -35.1525   -7.7170  -97.1421 H   0  0  0  0  0  0  0  0  0  0  0  0
  -33.5069   -4.7740  -98.2085 H   0  0  0  0  0  0  0  0  0  0  0  0
  -31.4002   -3.7088  -95.3041 H   0  0  0  0  0  0  0  0  0  0  0  0
  -34.2429   -3.7947  -92.7751 H   0  0  0  0  0  0  0  0  0  0  0  0
  -34.9617   -5.1522  -91.8910 H   0  0  0  0  0  0  0  0  0  0  0  0
  -35.6134   -6.6375  -92.0799 H   0  0  0  0  0  0  0  0  0  0  0  0
  -33.8666   -7.1096  -95.4244 H   0  0  0  0  0  0  0  0  0  0  0  0
  -34.8468   -4.5631  -96.3682 H   0  0  0  0  0  0  0  0  0  0  0  0
  -32.2854   -5.7729  -95.6742 H   0  0  0  0  0  0  0  0  0  0  0  0
  -32.4789   -5.0523  -93.4817 H   0  0  0  0  0  0  0  0  0  0  0  0
  -33.7256   -7.0121  -93.6850 H   0  0  0  0  0  0  0  0  0  0  0  0
  1  7  1  0  0  0  0
  2  8  1  0  0  0  0
  3  9  1  0  0  0  0
  4 10  1  0  0  0  0
  5 11  1  0  0  0  0
  6  8  1  0  0  0  0
  6 12  1  0  0  0  0
  7 12  1  0  0  0  0
  8  9  1  0  0  0  0
  9 10  1  0  0  0  0
 10 11  1  0  0  0  0
 11 12  1  0  0  0  0
  1 13  1  0  0  0  0
  2 14  1  0  0  0  0
  3 15  1  0  0  0  0
  4 16  1  0  0  0  0
  5 17  1  0  0  0  0
  7 18  1  0  0  0  0
  7 19  1  0  0  0  0
  8 20  1  0  0  0  0
  9 21  1  0  0  0  0
 10 22  1  0  0  0  0
 11 23  1  0  0  0  0
 12 24  1  0  0  0  0
M  END
> <pdb_id>
6ZGV

> <uniprot_id>
P51570

> <usmiles>
O1[C@@H](O)[C@H](O)[C@@H](O)[C@@H](O)[C@H]1CO

$$$$
GB1_A_1804
          07202412393D 1   1.00000     0.00000     0
            
 38 39  0  0  0  0            999 V2000
   29.1530   64.0704   13.4096 O   0  0  0  0  0  0  0  0  0  0  0  0
   33.7704   66.5135    7.0653 O   0  0  0  0  0  0  0  0  0  0  0  0
   33.3642   65.8145    9.5384 O   0  0  0  0  0  0  0  0  0  0  0  0
   30.9028   66.0186    7.5620 N   0  0  0  0  0  0  0  0  0  0  0  0
   30.0342   65.8941   11.2344 N   0  0  0  0  0  0  0  0  0  0  0  0
   29.0261   65.4709   13.5847 C   0  0  0  0  0  0  0  0  0  0  0  0
   31.3969   67.2804    7.0201 C   0  0  0  0  0  0  0  0  0  0  0  0
   30.0114   66.3468    9.8448 C   0  0  0  0  0  0  0  0  0  0  0  0
   28.1561   70.3414   12.4654 C   0  0  0  0  0  0  0  0  0  0  0  0
   27.2503   69.5192   11.8157 C   0  0  0  0  0  0  0  0  0  0  0  0
   29.2668   69.7222   12.9934 C   0  0  0  0  0  0  0  0  0  0  0  0
   27.4918   68.1379   11.7122 C   0  0  0  0  0  0  0  0  0  0  0  0
   29.5512   68.3549   12.9171 C   0  0  0  0  0  0  0  0  0  0  0  0
   32.7514   67.2335    7.7260 C   0  0  1  0  0  0  0  0  0  0  0  0
   32.3823   66.7429    9.1205 C   0  0  1  0  0  0  0  0  0  0  0  0
   28.8902   66.0094   12.1677 C   0  0  1  0  0  0  0  0  0  0  0  0
   31.1649   65.8284    9.0021 C   0  0  2  0  0  0  0  0  0  0  0  0
   28.6344   67.5277   12.2553 C   0  0  0  0  0  0  0  0  0  0  0  0
   29.2485   63.6301   14.3023 H   0  0  0  0  0  0  0  0  0  0  0  0
   34.6085   66.5464    7.6098 H   0  0  0  0  0  0  0  0  0  0  0  0
   33.1389   65.4804   10.4536 H   0  0  0  0  0  0  0  0  0  0  0  0
   31.3413   65.2711    7.0630 H   0  0  0  0  0  0  0  0  0  0  0  0
   30.7869   66.3900   11.6675 H   0  0  0  0  0  0  0  0  0  0  0  0
   29.8371   65.8480   14.0318 H   0  0  0  0  0  0  0  0  0  0  0  0
   28.2147   65.6890   14.1270 H   0  0  0  0  0  0  0  0  0  0  0  0
   30.8424   68.0646    7.2987 H   0  0  0  0  0  0  0  0  0  0  0  0
   31.4793   67.2676    6.0236 H   0  0  0  0  0  0  0  0  0  0  0  0
   30.0438   67.3462    9.8400 H   0  0  0  0  0  0  0  0  0  0  0  0
   29.1558   66.0390    9.4287 H   0  0  0  0  0  0  0  0  0  0  0  0
   28.0118   71.3276   12.5464 H   0  0  0  0  0  0  0  0  0  0  0  0
   26.4201   69.9101   11.4182 H   0  0  0  0  0  0  0  0  0  0  0  0
   29.9273   70.3000   13.4728 H   0  0  0  0  0  0  0  0  0  0  0  0
   26.8242   67.5678   11.2333 H   0  0  0  0  0  0  0  0  0  0  0  0
   30.3842   67.9789   13.3229 H   0  0  0  0  0  0  0  0  0  0  0  0
   33.0690   68.1771    7.8191 H   0  0  0  0  0  0  0  0  0  0  0  0
   32.2478   67.4885    9.7732 H   0  0  0  0  0  0  0  0  0  0  0  0
   28.0931   65.5800   11.7430 H   0  0  0  0  0  0  0  0  0  0  0  0
   31.3887   64.8782    9.2189 H   0  0  0  0  0  0  0  0  0  0  0  0
  1  6  1  0  0  0  0
  2 14  1  0  0  0  0
  3 15  1  0  0  0  0
  4  7  1  0  0  0  0
  4 17  1  0  0  0  0
  5  8  1  0  0  0  0
  5 16  1  0  0  0  0
  6 16  1  0  0  0  0
  7 14  1  0  0  0  0
  8 17  1  0  0  0  0
  9 10  2  0  0  0  0
  9 11  1  0  0  0  0
 10 12  1  0  0  0  0
 11 13  2  0  0  0  0
 12 18  2  0  0  0  0
 13 18  1  0  0  0  0
 14 15  1  0  0  0  0
 15 17  1  0  0  0  0
 16 18  1  0  0  0  0
  1 19  1  0  0  0  0
  2 20  1  0  0  0  0
  3 21  1  0  0  0  0
  4 22  1  0  0  0  0
  5 23  1  0  0  0  0
  6 24  1  0  0  0  0
  6 25  1  0  0  0  0
  7 26  1  0  0  0  0
  7 27  1  0  0  0  0
  8 28  1  0  0  0  0
  8 29  1  0  0  0  0
  9 30  1  0  0  0  0
 10 31  1  0  0  0  0
 11 32  1  0  0  0  0
 12 33  1  0  0  0  0
 13 34  1  0  0  0  0
 14 35  1  0  0  0  0
 15 36  1  0  0  0  0
 16 37  1  0  0  0  0
 17 38  1  0  0  0  0
M  END
> <pdb_id>
2F18

> <uniprot_id>
nan

> <usmiles>
O[C@@H]1[C@H](NC[C@@H]1O)CN[C@H](c2ccccc2)CO

$$$$
GB7_A_5001
          07202412393D 1   1.00000     0.00000     0
            
 40 41  0  0  0  0            999 V2000
   29.3354   64.0305   13.2421 O   0  0  0  0  0  0  0  0  0  0  0  0
   31.9664   68.0060    5.8502 O   0  0  0  0  0  0  0  0  0  0  0  0
   34.1728   66.4418    7.0493 O   0  0  0  0  0  0  0  0  0  0  0  0
   33.4783   65.6536    9.7042 O   0  0  0  0  0  0  0  0  0  0  0  0
   30.1973   65.8517   11.0980 N   0  0  0  0  0  0  0  0  0  0  0  0
   30.9284   66.8190    7.4989 N   0  0  0  0  0  0  0  0  0  0  0  0
   29.6047   66.6714    6.8627 C   0  0  0  0  0  0  0  0  0  0  0  0
   29.1377   65.4337   13.2939 C   0  0  0  0  0  0  0  0  0  0  0  0
   30.1237   66.5394    9.7830 C   0  0  0  0  0  0  0  0  0  0  0  0
   28.3596   70.2760   12.7347 C   0  0  0  0  0  0  0  0  0  0  0  0
   29.4797   69.5500   13.1277 C   0  0  0  0  0  0  0  0  0  0  0  0
   27.3796   69.5241   12.1067 C   0  0  0  0  0  0  0  0  0  0  0  0
   29.7086   68.2243   12.8159 C   0  0  0  0  0  0  0  0  0  0  0  0
   27.5536   68.1751   11.7987 C   0  0  0  0  0  0  0  0  0  0  0  0
   31.9690   67.4185    6.9255 C   0  0  0  0  0  0  0  0  0  0  0  0
   33.2052   67.1750    7.7832 C   0  0  1  0  0  0  0  0  0  0  0  0
   32.6504   66.6104    9.0903 C   0  0  1  0  0  0  0  0  0  0  0  0
   28.9719   66.0398   11.8966 C   0  0  1  0  0  0  0  0  0  0  0  0
   31.2272   66.1472    8.7802 C   0  0  2  0  0  0  0  0  0  0  0  0
   28.7015   67.5143   12.1767 C   0  0  0  0  0  0  0  0  0  0  0  0
   29.4390   63.6740   14.1707 H   0  0  0  0  0  0  0  0  0  0  0  0
   34.9787   66.2881    7.6211 H   0  0  0  0  0  0  0  0  0  0  0  0
   33.0488   65.3339   10.5487 H   0  0  0  0  0  0  0  0  0  0  0  0
   30.9743   66.2184   11.6097 H   0  0  0  0  0  0  0  0  0  0  0  0
   28.9879   66.1890    7.4846 H   0  0  0  0  0  0  0  0  0  0  0  0
   29.2309   67.5759    6.6575 H   0  0  0  0  0  0  0  0  0  0  0  0
   29.6987   66.1494    6.0149 H   0  0  0  0  0  0  0  0  0  0  0  0
   29.9286   65.8554   13.7373 H   0  0  0  0  0  0  0  0  0  0  0  0
   28.3146   65.6246   13.8287 H   0  0  0  0  0  0  0  0  0  0  0  0
   30.1865   67.5243    9.9440 H   0  0  0  0  0  0  0  0  0  0  0  0
   29.2386   66.3250    9.3699 H   0  0  0  0  0  0  0  0  0  0  0  0
   28.2692   71.2593   12.8924 H   0  0  0  0  0  0  0  0  0  0  0  0
   30.1694   70.0228   13.6760 H   0  0  0  0  0  0  0  0  0  0  0  0
   26.5152   69.9652   11.8654 H   0  0  0  0  0  0  0  0  0  0  0  0
   30.5781   67.7868   13.0449 H   0  0  0  0  0  0  0  0  0  0  0  0
   26.8396   67.6840   11.2997 H   0  0  0  0  0  0  0  0  0  0  0  0
   33.6037   68.0684    7.9907 H   0  0  0  0  0  0  0  0  0  0  0  0
   32.5728   67.3775    9.7272 H   0  0  0  0  0  0  0  0  0  0  0  0
   28.1890   65.6270   11.4312 H   0  0  0  0  0  0  0  0  0  0  0  0
   31.2204   65.1561    8.6470 H   0  0  0  0  0  0  0  0  0  0  0  0
  1  8  1  0  0  0  0
  2 15  2  0  0  0  0
  3 16  1  0  0  0  0
  4 17  1  0  0  0  0
  5  9  1  0  0  0  0
  5 18  1  0  0  0  0
  6  7  1  0  0  0  0
  6 15  1  0  0  0  0
  6 19  1  0  0  0  0
  8 18  1  0  0  0  0
  9 19  1  0  0  0  0
 10 11  2  0  0  0  0
 10 12  1  0  0  0  0
 11 13  1  0  0  0  0
 12 14  2  0  0  0  0
 13 20  2  0  0  0  0
 14 20  1  0  0  0  0
 15 16  1  0  0  0  0
 16 17  1  0  0  0  0
 17 19  1  0  0  0  0
 18 20  1  0  0  0  0
  1 21  1  0  0  0  0
  3 22  1  0  0  0  0
  4 23  1  0  0  0  0
  5 24  1  0  0  0  0
  7 25  1  0  0  0  0
  7 26  1  0  0  0  0
  7 27  1  0  0  0  0
  8 28  1  0  0  0  0
  8 29  1  0  0  0  0
  9 30  1  0  0  0  0
  9 31  1  0  0  0  0
 10 32  1  0  0  0  0
 11 33  1  0  0  0  0
 12 34  1  0  0  0  0
 13 35  1  0  0  0  0
 14 36  1  0  0  0  0
 16 37  1  0  0  0  0
 17 38  1  0  0  0  0
 18 39  1  0  0  0  0
 19 40  1  0  0  0  0
M  END
> <pdb_id>
3DDG

> <uniprot_id>
Q24451

> <usmiles>
O=C1N([C@@H]([C@@H](O)[C@H]1O)CN[C@H](c2ccccc2)CO)C

$$$$
GBN_B_420
          07192418463D 1   1.00000     0.00000     0
            
 29 29  0  0  0  0            999 V2000
   -7.6740   11.4240   -6.9380 O   0  0  0  0  0  0  0  0  0  0  0  0
   -8.1220   11.0290   -4.7940 O   0  0  0  0  0  0  0  0  0  0  0  0
   -8.3480    9.3660   -9.2070 N   0  0  0  0  0  0  0  0  0  0  0  0
  -11.6260    6.4450   -6.3000 C   0  0  0  0  0  0  0  0  0  0  0  0
  -10.1520    6.5590   -5.7720 C   0  0  0  0  0  0  0  0  0  0  0  0
  -11.7520    7.2530   -7.6420 C   0  0  0  0  0  0  0  0  0  0  0  0
   -8.8430    8.9240   -7.9350 C   0  0  0  0  0  0  0  0  0  0  0  0
   -9.8000    8.0690   -5.4590 C   0  0  0  0  0  0  0  0  0  0  0  0
  -11.3960    8.7420   -7.3610 C   0  0  0  0  0  0  0  0  0  0  0  0
   -9.5820   10.4060   -6.5320 C   0  0  0  0  0  0  0  0  0  0  0  0
   -8.4130   10.9650   -6.0170 C   0  0  0  0  0  0  0  0  0  0  0  0
   -9.9190    8.8870   -6.8110 C   0  0  0  0  0  0  0  0  0  0  0  0
   -7.9580   11.3440   -7.8935 H   0  0  0  0  0  0  0  0  0  0  0  0
   -7.4486    8.9617   -9.3735 H   0  0  0  0  0  0  0  0  0  0  0  0
   -8.9800    9.0814   -9.9278 H   0  0  0  0  0  0  0  0  0  0  0  0
  -12.2556    6.8224   -5.6209 H   0  0  0  0  0  0  0  0  0  0  0  0
  -11.8499    5.4844   -6.4646 H   0  0  0  0  0  0  0  0  0  0  0  0
   -9.5239    6.2107   -6.4678 H   0  0  0  0  0  0  0  0  0  0  0  0
  -10.0575    6.0176   -4.9365 H   0  0  0  0  0  0  0  0  0  0  0  0
  -12.6887    7.1899   -7.9865 H   0  0  0  0  0  0  0  0  0  0  0  0
  -11.1210    6.8782   -8.3213 H   0  0  0  0  0  0  0  0  0  0  0  0
   -8.0693    9.2209   -7.3753 H   0  0  0  0  0  0  0  0  0  0  0  0
   -8.7789    7.9393   -8.0968 H   0  0  0  0  0  0  0  0  0  0  0  0
   -8.8676    8.1339   -5.1035 H   0  0  0  0  0  0  0  0  0  0  0  0
  -10.4405    8.4342   -4.7834 H   0  0  0  0  0  0  0  0  0  0  0  0
  -12.0335    9.1067   -6.6823 H   0  0  0  0  0  0  0  0  0  0  0  0
  -11.4797    9.2627   -8.2106 H   0  0  0  0  0  0  0  0  0  0  0  0
   -9.7026   10.8542   -7.4178 H   0  0  0  0  0  0  0  0  0  0  0  0
  -10.2996   10.7087   -5.9048 H   0  0  0  0  0  0  0  0  0  0  0  0
  1 11  1  0  0  0  0
  2 11  2  0  0  0  0
  3  7  1  0  0  0  0
  4  5  1  0  0  0  0
  4  6  1  0  0  0  0
  5  8  1  0  0  0  0
  6  9  1  0  0  0  0
  7 12  1  0  0  0  0
  8 12  1  0  0  0  0
  9 12  1  0  0  0  0
 10 11  1  0  0  0  0
 10 12  1  0  0  0  0
  1 13  1  0  0  0  0
  3 14  1  0  0  0  0
  3 15  1  0  0  0  0
  4 16  1  0  0  0  0
  4 17  1  0  0  0  0
  5 18  1  0  0  0  0
  5 19  1  0  0  0  0
  6 20  1  0  0  0  0
  6 21  1  0  0  0  0
  7 22  1  0  0  0  0
  7 23  1  0  0  0  0
  8 24  1  0  0  0  0
  8 25  1  0  0  0  0
  9 26  1  0  0  0  0
  9 27  1  0  0  0  0
 10 28  1  0  0  0  0
 10 29  1  0  0  0  0
M  END
> <pdb_id>
2COI

> <uniprot_id>
P54687

> <usmiles>
O=C(O)CC1(CN)CCCCC1

$$$$
GC2_A_1000
          07202405173D 1   1.00000     0.00000     0
            
 34 35  0  0  0  0            999 V2000
   27.3289    1.6637  293.1687 O   0  0  0  0  0  0  0  0  0  0  0  0
   26.6811    3.1088  287.7954 O   0  0  0  0  0  0  0  0  0  0  0  0
   30.4272    4.1601  291.0350 O   0  0  0  0  0  0  0  0  0  0  0  0
   28.1005    5.2084  289.9147 O   0  0  0  0  0  0  0  0  0  0  0  0
   29.5590    1.5580  292.5839 N   0  0  0  0  0  0  0  0  0  0  0  0
   27.0649    1.7149  290.5098 N   0  0  0  0  0  0  0  0  0  0  0  0
   28.9012    1.0919  294.9186 C   0  0  0  0  0  0  0  0  0  0  0  0
   25.9825    0.9853  289.8176 C   0  0  0  0  0  0  0  0  0  0  0  0
   28.4283    1.1960  290.2909 C   0  0  0  0  0  0  0  0  0  0  0  0
   25.0418    2.0563  289.2338 C   0  0  0  0  0  0  0  0  0  0  0  0
   28.5230    1.4919  293.4906 C   0  0  0  0  0  0  0  0  0  0  0  0
   25.9619    3.2664  289.0316 C   0  0  1  0  0  0  0  0  0  0  0  0
   29.2047    3.4592  291.1416 C   0  0  1  0  0  0  0  0  0  0  0  0
   28.3045    3.8125  289.9616 C   0  0  1  0  0  0  0  0  0  0  0  0
   29.4928    1.9334  291.1485 C   0  0  1  0  0  0  0  0  0  0  0  0
   26.9289    3.1651  290.2294 C   0  0  2  0  0  0  0  0  0  0  0  0
   27.2833    3.8952  287.6575 H   0  0  0  0  0  0  0  0  0  0  0  0
   31.0144    3.9260  291.8099 H   0  0  0  0  0  0  0  0  0  0  0  0
   27.5101    5.4331  289.1395 H   0  0  0  0  0  0  0  0  0  0  0  0
   30.4657    1.3249  292.9354 H   0  0  0  0  0  0  0  0  0  0  0  0
   29.8947    1.0009  294.9872 H   0  0  0  0  0  0  0  0  0  0  0  0
   28.5861    1.7949  295.5562 H   0  0  0  0  0  0  0  0  0  0  0  0
   28.4700    0.2186  295.1454 H   0  0  0  0  0  0  0  0  0  0  0  0
   25.4874    0.4054  290.4646 H   0  0  0  0  0  0  0  0  0  0  0  0
   26.3602    0.4197  289.0845 H   0  0  0  0  0  0  0  0  0  0  0  0
   28.6621    1.3073  289.3250 H   0  0  0  0  0  0  0  0  0  0  0  0
   28.4432    0.2246  290.5278 H   0  0  0  0  0  0  0  0  0  0  0  0
   24.3036    2.2710  289.8733 H   0  0  0  0  0  0  0  0  0  0  0  0
   24.6518    1.7541  288.3640 H   0  0  0  0  0  0  0  0  0  0  0  0
   25.4475    4.1237  289.0485 H   0  0  0  0  0  0  0  0  0  0  0  0
   28.7492    3.7146  291.9944 H   0  0  0  0  0  0  0  0  0  0  0  0
   28.6945    3.4797  289.1031 H   0  0  0  0  0  0  0  0  0  0  0  0
   30.3919    1.7789  290.7389 H   0  0  0  0  0  0  0  0  0  0  0  0
   26.5107    3.6099  291.0214 H   0  0  0  0  0  0  0  0  0  0  0  0
  1 11  2  0  0  0  0
  2 12  1  0  0  0  0
  3 13  1  0  0  0  0
  4 14  1  0  0  0  0
  5 11  1  0  0  0  0
  5 15  1  0  0  0  0
  6  8  1  0  0  0  0
  6  9  1  0  0  0  0
  6 16  1  0  0  0  0
  7 11  1  0  0  0  0
  8 10  1  0  0  0  0
  9 15  1  0  0  0  0
 10 12  1  0  0  0  0
 12 16  1  0  0  0  0
 13 14  1  0  0  0  0
 13 15  1  0  0  0  0
 14 16  1  0  0  0  0
  2 17  1  0  0  0  0
  3 18  1  0  0  0  0
  4 19  1  0  0  0  0
  5 20  1  0  0  0  0
  7 21  1  0  0  0  0
  7 22  1  0  0  0  0
  7 23  1  0  0  0  0
  8 24  1  0  0  0  0
  8 25  1  0  0  0  0
  9 26  1  0  0  0  0
  9 27  1  0  0  0  0
 10 28  1  0  0  0  0
 10 29  1  0  0  0  0
 12 30  1  0  0  0  0
 13 31  1  0  0  0  0
 14 32  1  0  0  0  0
 15 33  1  0  0  0  0
 16 34  1  0  0  0  0
M  END
> <pdb_id>
2XJ7

> <uniprot_id>
Q89ZI2

> <usmiles>
O=C(N[C@@H]1[C@@H](O)[C@H](O)[C@@H]2N(C1)CC[C@@H]2O)C

$$$$
GC2_A_2000
          07202402303D 1   1.00000     0.00000     0
            
 34 35  0  0  0  0            999 V2000
   33.1907   20.0717  -15.9897 O   0  0  0  0  0  0  0  0  0  0  0  0
   38.5280   15.9437  -14.9401 O   0  0  0  0  0  0  0  0  0  0  0  0
   34.2571   16.1103  -17.1637 O   0  0  0  0  0  0  0  0  0  0  0  0
   35.4681   15.8794  -14.4574 O   0  0  0  0  0  0  0  0  0  0  0  0
   33.9478   19.0185  -17.8812 N   0  0  0  0  0  0  0  0  0  0  0  0
   37.2592   18.6244  -16.1108 N   0  0  0  0  0  0  0  0  0  0  0  0
   31.9566   20.3530  -18.0398 C   0  0  0  0  0  0  0  0  0  0  0  0
   38.3550   19.4207  -15.5241 C   0  0  0  0  0  0  0  0  0  0  0  0
   36.0692   19.3933  -16.5895 C   0  0  0  0  0  0  0  0  0  0  0  0
   39.1872   18.3205  -14.8371 C   0  0  0  0  0  0  0  0  0  0  0  0
   33.1043   19.7973  -17.1959 C   0  0  0  0  0  0  0  0  0  0  0  0
   38.1762   17.2375  -14.4014 C   0  0  1  0  0  0  0  0  0  0  0  0
   34.7810   17.1707  -16.3888 C   0  0  1  0  0  0  0  0  0  0  0  0
   35.9786   16.6229  -15.5574 C   0  0  1  0  0  0  0  0  0  0  0  0
   35.1518   18.3636  -17.3058 C   0  0  1  0  0  0  0  0  0  0  0  0
   36.8536   17.7326  -15.0057 C   0  0  2  0  0  0  0  0  0  0  0  0
   37.8571   15.2648  -14.6418 H   0  0  0  0  0  0  0  0  0  0  0  0
   33.4854   16.4431  -17.7057 H   0  0  0  0  0  0  0  0  0  0  0  0
   36.2285   15.5219  -13.9151 H   0  0  0  0  0  0  0  0  0  0  0  0
   33.7548   18.8656  -18.8504 H   0  0  0  0  0  0  0  0  0  0  0  0
   32.0483   20.0294  -18.9815 H   0  0  0  0  0  0  0  0  0  0  0  0
   31.0845   20.0406  -17.6634 H   0  0  0  0  0  0  0  0  0  0  0  0
   31.9866   21.3525  -18.0264 H   0  0  0  0  0  0  0  0  0  0  0  0
   38.0106   20.0870  -14.8626 H   0  0  0  0  0  0  0  0  0  0  0  0
   38.8831   19.8936  -16.2294 H   0  0  0  0  0  0  0  0  0  0  0  0
   36.3521   20.1093  -17.2277 H   0  0  0  0  0  0  0  0  0  0  0  0
   35.5891   19.8070  -15.8160 H   0  0  0  0  0  0  0  0  0  0  0  0
   39.6648   18.6915  -14.0406 H   0  0  0  0  0  0  0  0  0  0  0  0
   39.8536   17.9375  -15.4768 H   0  0  0  0  0  0  0  0  0  0  0  0
   38.1130   17.1972  -13.4043 H   0  0  0  0  0  0  0  0  0  0  0  0
   34.0713   17.4738  -15.7529 H   0  0  0  0  0  0  0  0  0  0  0  0
   36.5324   16.0217  -16.1334 H   0  0  0  0  0  0  0  0  0  0  0  0
   35.6750   17.9906  -18.0720 H   0  0  0  0  0  0  0  0  0  0  0  0
   36.3446   18.2544  -14.3211 H   0  0  0  0  0  0  0  0  0  0  0  0
  1 11  2  0  0  0  0
  2 12  1  0  0  0  0
  3 13  1  0  0  0  0
  4 14  1  0  0  0  0
  5 11  1  0  0  0  0
  5 15  1  0  0  0  0
  6  8  1  0  0  0  0
  6  9  1  0  0  0  0
  6 16  1  0  0  0  0
  7 11  1  0  0  0  0
  8 10  1  0  0  0  0
  9 15  1  0  0  0  0
 10 12  1  0  0  0  0
 12 16  1  0  0  0  0
 13 14  1  0  0  0  0
 13 15  1  0  0  0  0
 14 16  1  0  0  0  0
  2 17  1  0  0  0  0
  3 18  1  0  0  0  0
  4 19  1  0  0  0  0
  5 20  1  0  0  0  0
  7 21  1  0  0  0  0
  7 22  1  0  0  0  0
  7 23  1  0  0  0  0
  8 24  1  0  0  0  0
  8 25  1  0  0  0  0
  9 26  1  0  0  0  0
  9 27  1  0  0  0  0
 10 28  1  0  0  0  0
 10 29  1  0  0  0  0
 12 30  1  0  0  0  0
 13 31  1  0  0  0  0
 14 32  1  0  0  0  0
 15 33  1  0  0  0  0
 16 34  1  0  0  0  0
M  END
> <pdb_id>
3SUW

> <uniprot_id>
D0VX21

> <usmiles>
O=C(N[C@@H]1[C@@H](O)[C@H](O)[C@@H]2N(C1)CC[C@@H]2O)C

$$$$
GCB_A_701
          07202411143D 1   1.00000     0.00000     0
            
 21 21  0  0  0  0            999 V2000
  127.7595 -879.0596  302.5962 O   0  0  0  0  0  0  0  0  0  0  0  0
  128.9343 -879.5025  300.8295 O   0  0  0  0  0  0  0  0  0  0  0  0
  124.0308 -881.6971  302.4909 O   0  0  0  0  0  0  0  0  0  0  0  0
  122.9768 -881.5475  300.1214 O   0  0  0  0  0  0  0  0  0  0  0  0
  124.0639 -879.4556  298.4463 O   0  0  0  0  0  0  0  0  0  0  0  0
  126.7272 -878.6895  298.9901 O   0  0  0  0  0  0  0  0  0  0  0  0
  125.8524 -880.6637  301.8229 O   0  0  0  0  0  0  0  0  0  0  0  0
  127.9204 -879.5259  301.4656 C   0  0  0  0  0  0  0  0  0  0  0  0
  124.6313 -881.1288  301.6252 C   0  0  0  0  0  0  0  0  0  0  0  0
  123.8800 -880.6086  300.5597 C   0  0  1  0  0  0  0  0  0  0  0  0
  124.7840 -880.1163  299.4093 C   0  0  2  0  0  0  0  0  0  0  0  0
  125.9275 -879.2256  299.9587 C   0  0  1  0  0  0  0  0  0  0  0  0
  126.6814 -880.1746  300.7895 C   0  0  2  0  0  0  0  0  0  0  0  0
  126.8684 -879.1308  303.0443 H   0  0  0  0  0  0  0  0  0  0  0  0
  122.4455 -881.1703  299.3628 H   0  0  0  0  0  0  0  0  0  0  0  0
  124.6796 -879.1520  297.7192 H   0  0  0  0  0  0  0  0  0  0  0  0
  127.4381 -878.1303  299.4166 H   0  0  0  0  0  0  0  0  0  0  0  0
  123.3644 -879.8233  300.9024 H   0  0  0  0  0  0  0  0  0  0  0  0
  125.2001 -880.9193  298.9826 H   0  0  0  0  0  0  0  0  0  0  0  0
  125.5487 -878.4977  300.5302 H   0  0  0  0  0  0  0  0  0  0  0  0
  126.9821 -880.9403  300.2209 H   0  0  0  0  0  0  0  0  0  0  0  0
  1  8  1  0  0  0  0
  2  8  2  0  0  0  0
  3  9  2  0  0  0  0
  4 10  1  0  0  0  0
  5 11  1  0  0  0  0
  6 12  1  0  0  0  0
  7  9  1  0  0  0  0
  7 13  1  0  0  0  0
  8 13  1  0  0  0  0
  9 10  1  0  0  0  0
 10 11  1  0  0  0  0
 11 12  1  0  0  0  0
 12 13  1  0  0  0  0
  1 14  1  0  0  0  0
  4 15  1  0  0  0  0
  5 16  1  0  0  0  0
  6 17  1  0  0  0  0
 10 18  1  0  0  0  0
 11 19  1  0  0  0  0
 12 20  1  0  0  0  0
 13 21  1  0  0  0  0
M  END
> <pdb_id>
6JZ8

> <uniprot_id>
Q6W7J7

> <usmiles>
O=C1O[C@H](C(=O)O)[C@@H](O)[C@H](O)[C@H]1O

$$$$
GD5_A_2287
          07202404193D 1   1.00000     0.00000     0
            
 50 54  0  0  0  0            999 V2000
  -19.1255   -0.1950   13.0946 Cl  0  0  0  0  0  0  0  0  0  0  0  0
  -16.2410    6.8339   10.6824 N   0  0  0  0  0  0  0  0  0  0  0  0
  -15.5851   10.9161    8.6763 N   0  0  0  0  0  0  0  0  0  0  0  0
  -19.2229    3.5440   14.1076 N   0  0  0  0  0  0  0  0  0  0  0  0
  -17.0472    0.0213    9.2768 N   0  0  0  0  0  0  0  0  0  0  0  0
  -18.5153    5.4955   13.0988 N   0  0  0  0  0  0  0  0  0  0  0  0
  -18.1864    3.4906   11.9495 N   0  0  0  0  0  0  0  0  0  0  0  0
  -17.1475    7.8048   10.9102 N   0  0  0  0  0  0  0  0  0  0  0  0
  -17.4855    2.1085    9.4879 N   0  0  0  0  0  0  0  0  0  0  0  0
  -19.1988    8.3733   12.2159 C   0  0  0  0  0  0  0  0  0  0  0  0
  -16.0087   11.2812   10.0538 C   0  0  0  0  0  0  0  0  0  0  0  0
  -16.6464   10.1494    7.9845 C   0  0  0  0  0  0  0  0  0  0  0  0
  -16.6323    5.8289   11.4727 C   0  0  0  0  0  0  0  0  0  0  0  0
  -19.3476    2.2185   14.0597 C   0  0  0  0  0  0  0  0  0  0  0  0
  -17.5337    0.1601   10.5662 C   0  0  0  0  0  0  0  0  0  0  0  0
  -17.5857    3.4365    9.1426 C   0  0  0  0  0  0  0  0  0  0  0  0
  -17.1932    3.8061    7.9151 C   0  0  0  0  0  0  0  0  0  0  0  0
  -16.6674    2.8677    6.9475 C   0  0  0  0  0  0  0  0  0  0  0  0
  -16.0186    9.9704   10.8018 C   0  0  0  0  0  0  0  0  0  0  0  0
  -16.8711    8.8518    8.7397 C   0  0  0  0  0  0  0  0  0  0  0  0
  -16.5656    1.5709    7.2843 C   0  0  0  0  0  0  0  0  0  0  0  0
  -18.6441    4.1140   13.0435 C   0  0  0  0  0  0  0  0  0  0  0  0
  -17.0138    1.1997    8.6442 C   0  0  0  0  0  0  0  0  0  0  0  0
  -18.9024    1.4967   12.9922 C   0  0  0  0  0  0  0  0  0  0  0  0
  -17.7994    6.1984   12.1957 C   0  0  0  0  0  0  0  0  0  0  0  0
  -18.1118    7.4748   11.8145 C   0  0  0  0  0  0  0  0  0  0  0  0
  -18.3262    2.1737   11.9363 C   0  0  0  0  0  0  0  0  0  0  0  0
  -17.0788    9.0811   10.2185 C   0  0  0  0  0  0  0  0  0  0  0  0
  -17.8103    1.5048   10.7091 C   0  0  0  0  0  0  0  0  0  0  0  0
  -14.7568   10.3580    8.7254 H   0  0  0  0  0  0  0  0  0  0  0  0
  -18.9719    5.9902   13.8383 H   0  0  0  0  0  0  0  0  0  0  0  0
  -19.7800    7.9140   12.8876 H   0  0  0  0  0  0  0  0  0  0  0  0
  -18.8134    9.2028   12.6203 H   0  0  0  0  0  0  0  0  0  0  0  0
  -19.7442    8.6160   11.4136 H   0  0  0  0  0  0  0  0  0  0  0  0
  -16.9205   11.6918   10.0467 H   0  0  0  0  0  0  0  0  0  0  0  0
  -15.3589   11.9195   10.4665 H   0  0  0  0  0  0  0  0  0  0  0  0
  -16.3617    9.9494    7.0469 H   0  0  0  0  0  0  0  0  0  0  0  0
  -17.4925   10.6822    7.9694 H   0  0  0  0  0  0  0  0  0  0  0  0
  -16.1706    4.9448   11.5450 H   0  0  0  0  0  0  0  0  0  0  0  0
  -19.7783    1.7412   14.8256 H   0  0  0  0  0  0  0  0  0  0  0  0
  -17.6580   -0.5604   11.2483 H   0  0  0  0  0  0  0  0  0  0  0  0
  -17.9424    4.1091    9.7909 H   0  0  0  0  0  0  0  0  0  0  0  0
  -17.2668    4.7696    7.6579 H   0  0  0  0  0  0  0  0  0  0  0  0
  -16.3837    3.1799    6.0409 H   0  0  0  0  0  0  0  0  0  0  0  0
  -16.2156   10.1374   11.7679 H   0  0  0  0  0  0  0  0  0  0  0  0
  -15.1257    9.5285   10.7152 H   0  0  0  0  0  0  0  0  0  0  0  0
  -16.0723    8.2635    8.6140 H   0  0  0  0  0  0  0  0  0  0  0  0
  -17.6809    8.3984    8.3672 H   0  0  0  0  0  0  0  0  0  0  0  0
  -16.2046    0.8901    6.6469 H   0  0  0  0  0  0  0  0  0  0  0  0
  -17.9598    9.5394   10.3355 H   0  0  0  0  0  0  0  0  0  0  0  0
  1 24  1  0  0  0  0
  2  8  1  0  0  0  0
  2 13  2  0  0  0  0
  3 11  1  0  0  0  0
  3 12  1  0  0  0  0
  4 14  1  0  0  0  0
  4 22  2  0  0  0  0
  5 15  1  0  0  0  0
  5 23  2  0  0  0  0
  6 22  1  0  0  0  0
  6 25  1  0  0  0  0
  7 22  1  0  0  0  0
  7 27  2  0  0  0  0
  8 26  1  0  0  0  0
  8 28  1  0  0  0  0
  9 16  1  0  0  0  0
  9 23  1  0  0  0  0
  9 29  1  0  0  0  0
 10 26  1  0  0  0  0
 11 19  1  0  0  0  0
 12 20  1  0  0  0  0
 13 25  1  0  0  0  0
 14 24  2  0  0  0  0
 15 29  2  0  0  0  0
 16 17  2  0  0  0  0
 17 18  1  0  0  0  0
 18 21  2  0  0  0  0
 19 28  1  0  0  0  0
 20 28  1  0  0  0  0
 21 23  1  0  0  0  0
 24 27  1  0  0  0  0
 25 26  2  0  0  0  0
 27 29  1  0  0  0  0
  3 30  1  0  0  0  0
  6 31  1  0  0  0  0
 10 32  1  0  0  0  0
 10 33  1  0  0  0  0
 10 34  1  0  0  0  0
 11 35  1  0  0  0  0
 11 36  1  0  0  0  0
 12 37  1  0  0  0  0
 12 38  1  0  0  0  0
 13 39  1  0  0  0  0
 14 40  1  0  0  0  0
 15 41  1  0  0  0  0
 16 42  1  0  0  0  0
 17 43  1  0  0  0  0
 18 44  1  0  0  0  0
 19 45  1  0  0  0  0
 19 46  1  0  0  0  0
 20 47  1  0  0  0  0
 20 48  1  0  0  0  0
 21 49  1  0  0  0  0
 28 50  1  0  0  0  0
M  END
> <pdb_id>
5FXQ

> <uniprot_id>
P08069

> <usmiles>
Clc1c(nc(nc1)NC2=C(N(N=C2)C3CCNCC3)C)C=4N5C(=NC4)C=CC=C5

$$$$
GDK_A_701
          07192419173D 1   1.00000     0.00000     0
            
 37 39  0  0  0  0            999 V2000
    1.1982   -1.0366   14.3824 O   0  0  0  0  0  0  0  0  0  0  0  0
    4.3215   -0.8179   16.2481 N   0  0  0  0  0  0  0  0  0  0  0  0
   -2.3588   -0.8968   13.6813 N   0  0  0  0  0  0  0  0  0  0  0  0
    0.6865    3.8845   10.4703 C   0  0  0  0  0  0  0  0  0  0  0  0
    5.5247   -0.2225   16.1140 C   0  0  0  0  0  0  0  0  0  0  0  0
   -2.8292   -1.9278   14.4146 C   0  0  0  0  0  0  0  0  0  0  0  0
    2.0611   -1.2854   15.4751 C   0  0  0  0  0  0  0  0  0  0  0  0
    5.8478    0.5681   15.0147 C   0  0  0  0  0  0  0  0  0  0  0  0
   -1.9875   -2.7284   15.1888 C   0  0  0  0  0  0  0  0  0  0  0  0
    4.9065    0.7687   14.0176 C   0  0  0  0  0  0  0  0  0  0  0  0
    3.6606    0.1759   14.1467 C   0  0  0  0  0  0  0  0  0  0  0  0
   -0.6181   -2.4665   15.2157 C   0  0  0  0  0  0  0  0  0  0  0  0
    0.6086    2.6369   12.6595 C   0  0  0  0  0  0  0  0  0  0  0  0
   -0.5315    1.7103   10.7550 C   0  0  0  0  0  0  0  0  0  0  0  0
    0.1965    1.5500   13.4313 C   0  0  0  0  0  0  0  0  0  0  0  0
   -0.9393    0.6220   11.5330 C   0  0  0  0  0  0  0  0  0  0  0  0
    3.3942   -0.6226   15.2704 C   0  0  0  0  0  0  0  0  0  0  0  0
   -0.1296   -1.3913   14.4602 C   0  0  0  0  0  0  0  0  0  0  0  0
    0.2448    2.7194   11.3144 C   0  0  0  0  0  0  0  0  0  0  0  0
   -1.0216   -0.6332   13.6991 C   0  0  0  0  0  0  0  0  0  0  0  0
   -0.5802    0.5300   12.8693 C   0  0  0  0  0  0  0  0  0  0  0  0
    0.3348    3.7749    9.5407 H   0  0  0  0  0  0  0  0  0  0  0  0
    0.3327    4.7335   10.8627 H   0  0  0  0  0  0  0  0  0  0  0  0
    1.6856    3.9192   10.4468 H   0  0  0  0  0  0  0  0  0  0  0  0
    6.2096   -0.3539   16.8307 H   0  0  0  0  0  0  0  0  0  0  0  0
   -3.8097   -2.1240   14.4029 H   0  0  0  0  0  0  0  0  0  0  0  0
    2.1970   -2.2719   15.5666 H   0  0  0  0  0  0  0  0  0  0  0  0
    1.6429   -0.9277   16.3101 H   0  0  0  0  0  0  0  0  0  0  0  0
    6.7525    0.9883   14.9450 H   0  0  0  0  0  0  0  0  0  0  0  0
   -2.3648   -3.4859   15.7216 H   0  0  0  0  0  0  0  0  0  0  0  0
    5.1225    1.3310   13.2193 H   0  0  0  0  0  0  0  0  0  0  0  0
    2.9593    0.3153   13.4476 H   0  0  0  0  0  0  0  0  0  0  0  0
    0.0007   -3.0321   15.7607 H   0  0  0  0  0  0  0  0  0  0  0  0
    1.1657    3.3582   13.0709 H   0  0  0  0  0  0  0  0  0  0  0  0
   -0.7991    1.7629    9.7929 H   0  0  0  0  0  0  0  0  0  0  0  0
    0.4586    1.4992   14.3950 H   0  0  0  0  0  0  0  0  0  0  0  0
   -1.4967   -0.0986   11.1206 H   0  0  0  0  0  0  0  0  0  0  0  0
  1  7  1  0  0  0  0
  1 18  1  0  0  0  0
  2  5  2  0  0  0  0
  2 17  1  0  0  0  0
  3  6  2  0  0  0  0
  3 20  1  0  0  0  0
  4 19  1  0  0  0  0
  5  8  1  0  0  0  0
  6  9  1  0  0  0  0
  7 17  1  0  0  0  0
  8 10  2  0  0  0  0
  9 12  2  0  0  0  0
 10 11  1  0  0  0  0
 11 17  2  0  0  0  0
 12 18  1  0  0  0  0
 13 15  1  0  0  0  0
 13 19  2  0  0  0  0
 14 16  2  0  0  0  0
 14 19  1  0  0  0  0
 15 21  2  0  0  0  0
 16 21  1  0  0  0  0
 18 20  2  0  0  0  0
 20 21  1  0  0  0  0
  4 22  1  0  0  0  0
  4 23  1  0  0  0  0
  4 24  1  0  0  0  0
  5 25  1  0  0  0  0
  6 26  1  0  0  0  0
  7 27  1  0  0  0  0
  7 28  1  0  0  0  0
  8 29  1  0  0  0  0
  9 30  1  0  0  0  0
 10 31  1  0  0  0  0
 11 32  1  0  0  0  0
 12 33  1  0  0  0  0
 13 34  1  0  0  0  0
 14 35  1  0  0  0  0
 15 36  1  0  0  0  0
 16 37  1  0  0  0  0
M  END
> <pdb_id>
6HM6

> <uniprot_id>
P43405

> <usmiles>
O(c1c(nccc1)c2ccc(cc2)C)Cc3ncccc3

$$$$
GDL_A_1436
          07192418133D 1   1.00000     0.00000     0
            
 28 28  0  0  0  0            999 V2000
    6.3730   17.8760   29.9300 O   0  0  0  0  0  0  0  0  0  0  0  0
   11.7260   16.2730   30.3380 O   0  0  0  0  0  0  0  0  0  0  0  0
    9.9870   17.9700   32.6770 O   0  0  0  0  0  0  0  0  0  0  0  0
    7.0830   14.2930   30.0340 O   0  0  0  0  0  0  0  0  0  0  0  0
    8.6740   13.4940   32.2220 O   0  0  0  0  0  0  0  0  0  0  0  0
    9.0250   17.3550   30.7200 O   0  0  0  0  0  0  0  0  0  0  0  0
   11.1750   15.3860   32.3920 N   0  0  0  0  0  0  0  0  0  0  0  0
   13.4570   15.1860   31.5780 C   0  0  0  0  0  0  0  0  0  0  0  0
    7.2440   17.0900   29.0960 C   0  0  0  0  0  0  0  0  0  0  0  0
   12.0270   15.6710   31.3730 C   0  0  0  0  0  0  0  0  0  0  0  0
    9.5700   17.0710   31.9520 C   0  0  0  0  0  0  0  0  0  0  0  0
    7.7650   15.2950   30.8310 C   0  0  1  0  0  0  0  0  0  0  0  0
    8.9860   14.6920   31.4790 C   0  0  1  0  0  0  0  0  0  0  0  0
    8.3220   16.3790   29.9270 C   0  0  2  0  0  0  0  0  0  0  0  0
    9.7290   15.7310   32.3730 C   0  0  1  0  0  0  0  0  0  0  0  0
    5.6837   18.3255   29.3618 H   0  0  0  0  0  0  0  0  0  0  0  0
    6.2750   14.6996   29.6076 H   0  0  0  0  0  0  0  0  0  0  0  0
    9.5096   13.1296   32.6330 H   0  0  0  0  0  0  0  0  0  0  0  0
   11.5398   14.9194   33.1977 H   0  0  0  0  0  0  0  0  0  0  0  0
   13.5283   14.7220   32.4609 H   0  0  0  0  0  0  0  0  0  0  0  0
   13.7013   14.5496   30.8463 H   0  0  0  0  0  0  0  0  0  0  0  0
   14.0799   15.9681   31.5613 H   0  0  0  0  0  0  0  0  0  0  0  0
    7.6886   17.6911   28.4319 H   0  0  0  0  0  0  0  0  0  0  0  0
    6.7002   16.4039   28.6128 H   0  0  0  0  0  0  0  0  0  0  0  0
    7.1510   15.6835   31.5181 H   0  0  0  0  0  0  0  0  0  0  0  0
    9.6127   14.4307   30.7449 H   0  0  0  0  0  0  0  0  0  0  0  0
    8.9750   15.9573   29.2979 H   0  0  0  0  0  0  0  0  0  0  0  0
    9.3758   15.6515   33.3052 H   0  0  0  0  0  0  0  0  0  0  0  0
  1  9  1  0  0  0  0
  2 10  2  0  0  0  0
  3 11  2  0  0  0  0
  4 12  1  0  0  0  0
  5 13  1  0  0  0  0
  6 11  1  0  0  0  0
  6 14  1  0  0  0  0
  7 10  1  0  0  0  0
  7 15  1  0  0  0  0
  8 10  1  0  0  0  0
  9 14  1  0  0  0  0
 11 15  1  0  0  0  0
 12 13  1  0  0  0  0
 12 14  1  0  0  0  0
 13 15  1  0  0  0  0
  1 16  1  0  0  0  0
  4 17  1  0  0  0  0
  5 18  1  0  0  0  0
  7 19  1  0  0  0  0
  8 20  1  0  0  0  0
  8 21  1  0  0  0  0
  8 22  1  0  0  0  0
  9 23  1  0  0  0  0
  9 24  1  0  0  0  0
 12 25  1  0  0  0  0
 13 26  1  0  0  0  0
 14 27  1  0  0  0  0
 15 28  1  0  0  0  0
M  END
> <pdb_id>
2XSB

> <uniprot_id>
Q2CEE3

> <usmiles>
O=C1O[C@@H]([C@@H](O)[C@H](O)[C@H]1NC(=O)C)CO

$$$$
GEO_A_1210
          07192417363D 1   1.00000     0.00000     0
            
 29 30  0  0  0  0            999 V2000
   58.5260   17.7370    8.6000 F   0  0  0  0  0  0  0  0  0  0  0  0
   57.8930   18.0860   10.6780 F   0  0  0  0  0  0  0  0  0  0  0  0
   57.2890   20.9970   11.7070 O   0  0  0  0  0  0  0  0  0  0  0  0
   61.7740   17.0490    9.2340 O   0  0  0  0  0  0  0  0  0  0  0  0
   57.8670   20.0190    7.8390 O   0  0  0  0  0  0  0  0  0  0  0  0
   59.8590   20.2730   10.5220 O   0  0  0  0  0  0  0  0  0  0  0  0
   62.4730   15.4930   13.5450 N   0  0  0  0  0  0  0  0  0  0  0  0
   62.1010   16.3070   11.4060 N   0  0  0  0  0  0  0  0  0  0  0  0
   60.5630   18.0170   10.9820 N   0  0  0  0  0  0  0  0  0  0  0  0
   58.0570   21.8500   10.8450 C   0  0  0  0  0  0  0  0  0  0  0  0
   60.2740   18.1040   12.2840 C   0  0  0  0  0  0  0  0  0  0  0  0
   60.8830   17.2630   13.1980 C   0  0  0  0  0  0  0  0  0  0  0  0
   61.4740   17.1390   10.5520 C   0  0  0  0  0  0  0  0  0  0  0  0
   61.8260   16.3500   12.7210 C   0  0  0  0  0  0  0  0  0  0  0  0
   57.8790   19.9060    9.2570 C   0  0  2  0  0  0  0  0  0  0  0  0
   59.9460   18.9270   10.0040 C   0  0  1  0  0  0  0  0  0  0  0  0
   58.7980   20.9710    9.8500 C   0  0  2  0  0  0  0  0  0  0  0  0
   58.5110   18.5770    9.6250 C   0  0  0  0  0  0  0  0  0  0  0  0
   56.7919   21.5551   12.3714 H   0  0  0  0  0  0  0  0  0  0  0  0
   57.2642   19.3201    7.4540 H   0  0  0  0  0  0  0  0  0  0  0  0
   62.2853   15.5060   14.5272 H   0  0  0  0  0  0  0  0  0  0  0  0
   63.1387   14.8469   13.1716 H   0  0  0  0  0  0  0  0  0  0  0  0
   58.7126   22.3769   11.3859 H   0  0  0  0  0  0  0  0  0  0  0  0
   57.4483   22.4756   10.3571 H   0  0  0  0  0  0  0  0  0  0  0  0
   59.6116   18.7831   12.6003 H   0  0  0  0  0  0  0  0  0  0  0  0
   60.6550   17.3074   14.1706 H   0  0  0  0  0  0  0  0  0  0  0  0
   56.9546   19.9802    9.6312 H   0  0  0  0  0  0  0  0  0  0  0  0
   60.5051   18.9363    9.1750 H   0  0  0  0  0  0  0  0  0  0  0  0
   59.1768   21.5361    9.1171 H   0  0  0  0  0  0  0  0  0  0  0  0
  1 18  1  0  0  0  0
  2 18  1  0  0  0  0
  3 10  1  0  0  0  0
  4 13  2  0  0  0  0
  5 15  1  0  0  0  0
  6 16  1  0  0  0  0
  6 17  1  0  0  0  0
  7 14  1  0  0  0  0
  8 13  1  0  0  0  0
  8 14  2  0  0  0  0
  9 11  1  0  0  0  0
  9 13  1  0  0  0  0
  9 16  1  0  0  0  0
 10 17  1  0  0  0  0
 11 12  2  0  0  0  0
 12 14  1  0  0  0  0
 15 17  1  0  0  0  0
 15 18  1  0  0  0  0
 16 18  1  0  0  0  0
  3 19  1  0  0  0  0
  5 20  1  0  0  0  0
  7 21  1  0  0  0  0
  7 22  1  0  0  0  0
 10 23  1  0  0  0  0
 10 24  1  0  0  0  0
 11 25  1  0  0  0  0
 12 26  1  0  0  0  0
 15 27  1  0  0  0  0
 16 28  1  0  0  0  0
 17 29  1  0  0  0  0
M  END
> <pdb_id>
2VPP

> <uniprot_id>
Q9XZT6

> <usmiles>
FC1(F)[C@@H](O[C@@H]([C@H]1O)CO)N2C(=O)N=C(N)C=C2

$$$$
GFA_A_999
          07202417453D 1   1.00000     0.00000     0
            
 42 44  0  0  0  0            999 V2000
   54.3160  -26.6558   37.7931 Cl  0  0  0  0  0  0  0  0  0  0  0  0
   52.1245  -31.3580   31.6207 O   0  0  0  0  0  0  0  0  0  0  0  0
   49.3586  -29.5841   35.4451 O   0  0  0  0  0  0  0  0  0  0  0  0
   50.8434  -28.6315   33.4713 O   0  0  0  0  0  0  0  0  0  0  0  0
   50.8001  -31.2817   33.5780 N   0  0  0  0  0  0  0  0  0  0  0  0
   51.3275  -29.2439   32.2952 C   0  0  0  0  0  0  0  0  0  0  0  0
   50.9368  -35.0598   35.3955 C   0  0  0  0  0  0  0  0  0  0  0  0
   47.4096  -27.2220   39.3394 C   0  0  0  0  0  0  0  0  0  0  0  0
   52.0382  -34.6546   34.6635 C   0  0  0  0  0  0  0  0  0  0  0  0
   49.8179  -34.2221   35.5153 C   0  0  0  0  0  0  0  0  0  0  0  0
   47.7483  -28.5829   39.2914 C   0  0  0  0  0  0  0  0  0  0  0  0
   47.8558  -26.3435   38.3710 C   0  0  0  0  0  0  0  0  0  0  0  0
   53.8125  -27.1990   35.2538 C   0  0  0  0  0  0  0  0  0  0  0  0
   52.0355  -33.3921   34.0341 C   0  0  0  0  0  0  0  0  0  0  0  0
   49.8064  -32.9753   34.8989 C   0  0  0  0  0  0  0  0  0  0  0  0
   48.5544  -29.0537   38.2414 C   0  0  0  0  0  0  0  0  0  0  0  0
   48.6583  -26.8068   37.3183 C   0  0  0  0  0  0  0  0  0  0  0  0
   53.0117  -27.6623   34.2067 C   0  0  0  0  0  0  0  0  0  0  0  0
   52.0560  -27.7051   36.8826 C   0  0  0  0  0  0  0  0  0  0  0  0
   51.4565  -30.7357   32.4685 C   0  0  0  0  0  0  0  0  0  0  0  0
   53.3235  -27.2288   36.5544 C   0  0  0  0  0  0  0  0  0  0  0  0
   49.8443  -28.7118   36.1296 C   0  0  0  0  0  0  0  0  0  0  0  0
   51.7221  -28.1525   34.4836 C   0  0  0  0  0  0  0  0  0  0  0  0
   50.9106  -32.5501   34.1543 C   0  0  0  0  0  0  0  0  0  0  0  0
   49.0186  -28.1830   37.2435 C   0  0  0  0  0  0  0  0  0  0  0  0
   51.2181  -28.1864   35.8307 C   0  0  0  0  0  0  0  0  0  0  0  0
   50.1509  -30.6686   34.0282 H   0  0  0  0  0  0  0  0  0  0  0  0
   52.2253  -28.8626   32.0750 H   0  0  0  0  0  0  0  0  0  0  0  0
   50.6928  -29.0567   31.5454 H   0  0  0  0  0  0  0  0  0  0  0  0
   50.9381  -35.9546   35.8418 H   0  0  0  0  0  0  0  0  0  0  0  0
   46.8368  -26.8830   40.0857 H   0  0  0  0  0  0  0  0  0  0  0  0
   52.8338  -35.2547   34.5806 H   0  0  0  0  0  0  0  0  0  0  0  0
   49.0254  -34.5226   36.0460 H   0  0  0  0  0  0  0  0  0  0  0  0
   47.4194  -29.2108   39.9968 H   0  0  0  0  0  0  0  0  0  0  0  0
   47.6064  -25.3764   38.4207 H   0  0  0  0  0  0  0  0  0  0  0  0
   54.7306  -26.8486   35.0688 H   0  0  0  0  0  0  0  0  0  0  0  0
   52.8295  -33.0949   33.5038 H   0  0  0  0  0  0  0  0  0  0  0  0
   49.0066  -32.3818   34.9884 H   0  0  0  0  0  0  0  0  0  0  0  0
   48.8006  -30.0223   38.2046 H   0  0  0  0  0  0  0  0  0  0  0  0
   48.9785  -26.1690   36.6178 H   0  0  0  0  0  0  0  0  0  0  0  0
   53.3527  -27.6456   33.2668 H   0  0  0  0  0  0  0  0  0  0  0  0
   51.7406  -27.7099   37.8316 H   0  0  0  0  0  0  0  0  0  0  0  0
  1 21  1  0  0  0  0
  2 20  2  0  0  0  0
  3 22  2  0  0  0  0
  4  6  1  0  0  0  0
  4 23  1  0  0  0  0
  5 20  1  0  0  0  0
  5 24  1  0  0  0  0
  6 20  1  0  0  0  0
  7  9  2  0  0  0  0
  7 10  1  0  0  0  0
  8 11  2  0  0  0  0
  8 12  1  0  0  0  0
  9 14  1  0  0  0  0
 10 15  2  0  0  0  0
 11 16  1  0  0  0  0
 12 17  2  0  0  0  0
 13 18  1  0  0  0  0
 13 21  2  0  0  0  0
 14 24  2  0  0  0  0
 15 24  1  0  0  0  0
 16 25  2  0  0  0  0
 17 25  1  0  0  0  0
 18 23  2  0  0  0  0
 19 21  1  0  0  0  0
 19 26  2  0  0  0  0
 22 25  1  0  0  0  0
 22 26  1  0  0  0  0
 23 26  1  0  0  0  0
  5 27  1  0  0  0  0
  6 28  1  0  0  0  0
  6 29  1  0  0  0  0
  7 30  1  0  0  0  0
  8 31  1  0  0  0  0
  9 32  1  0  0  0  0
 10 33  1  0  0  0  0
 11 34  1  0  0  0  0
 12 35  1  0  0  0  0
 13 36  1  0  0  0  0
 14 37  1  0  0  0  0
 15 38  1  0  0  0  0
 16 39  1  0  0  0  0
 17 40  1  0  0  0  0
 18 41  1  0  0  0  0
 19 42  1  0  0  0  0
M  END
> <pdb_id>
3DLE

> <uniprot_id>
P04585

> <usmiles>
Clc1cc(c(OCC(=O)Nc2ccccc2)cc1)C(=O)c3ccccc3

$$$$
GG5_A_401
          07192423243D 1   1.00000     0.00000     0
            
 28 30  0  0  0  0            999 V2000
   26.7539  -17.3731  -16.6848 F   0  0  0  0  0  0  0  0  0  0  0  0
   24.3742  -12.6415  -11.1483 N   0  0  0  0  0  0  0  0  0  0  0  0
   24.8492  -13.0632  -12.3937 N   0  0  0  0  0  0  0  0  0  0  0  0
   23.2696  -18.5951   -9.4549 N   0  0  0  0  0  0  0  0  0  0  0  0
   23.1367  -18.3923  -10.7756 C   0  0  0  0  0  0  0  0  0  0  0  0
   23.7208  -17.6441   -8.6301 C   0  0  0  0  0  0  0  0  0  0  0  0
   24.0047  -13.6533  -10.3501 C   0  0  0  0  0  0  0  0  0  0  0  0
   23.4526  -17.1622  -11.3412 C   0  0  0  0  0  0  0  0  0  0  0  0
   24.0615  -16.3951   -9.1415 C   0  0  0  0  0  0  0  0  0  0  0  0
   25.3565  -15.6325  -15.8984 C   0  0  0  0  0  0  0  0  0  0  0  0
   26.6572  -16.9784  -14.3601 C   0  0  0  0  0  0  0  0  0  0  0  0
   24.8687  -14.8909  -14.8340 C   0  0  0  0  0  0  0  0  0  0  0  0
   26.1609  -16.2253  -13.2964 C   0  0  0  0  0  0  0  0  0  0  0  0
   26.2715  -16.6606  -15.6587 C   0  0  0  0  0  0  0  0  0  0  0  0
   24.7708  -14.4021  -12.4039 C   0  0  0  0  0  0  0  0  0  0  0  0
   25.2536  -15.2045  -13.5344 C   0  0  0  0  0  0  0  0  0  0  0  0
   23.9486  -16.1661  -10.5199 C   0  0  0  0  0  0  0  0  0  0  0  0
   24.2634  -14.8209  -11.0592 C   0  0  0  0  0  0  0  0  0  0  0  0
   24.3159  -11.6801  -10.8794 H   0  0  0  0  0  0  0  0  0  0  0  0
   22.8066  -19.1344  -11.3589 H   0  0  0  0  0  0  0  0  0  0  0  0
   23.8129  -17.8291   -7.6516 H   0  0  0  0  0  0  0  0  0  0  0  0
   23.6202  -13.5825   -9.4297 H   0  0  0  0  0  0  0  0  0  0  0  0
   23.3242  -17.0013  -12.3198 H   0  0  0  0  0  0  0  0  0  0  0  0
   24.3830  -15.6698   -8.5328 H   0  0  0  0  0  0  0  0  0  0  0  0
   25.0557  -15.4332  -16.8310 H   0  0  0  0  0  0  0  0  0  0  0  0
   27.2840  -17.7390  -14.1913 H   0  0  0  0  0  0  0  0  0  0  0  0
   24.2405  -14.1308  -15.0000 H   0  0  0  0  0  0  0  0  0  0  0  0
   26.4594  -16.4216  -12.3623 H   0  0  0  0  0  0  0  0  0  0  0  0
  1 14  1  0  0  0  0
  2  3  1  0  0  0  0
  2  7  1  0  0  0  0
  3 15  2  0  0  0  0
  4  5  2  0  0  0  0
  4  6  1  0  0  0  0
  5  8  1  0  0  0  0
  6  9  2  0  0  0  0
  7 18  2  0  0  0  0
  8 17  2  0  0  0  0
  9 17  1  0  0  0  0
 10 12  2  0  0  0  0
 10 14  1  0  0  0  0
 11 13  1  0  0  0  0
 11 14  2  0  0  0  0
 12 16  1  0  0  0  0
 13 16  2  0  0  0  0
 15 16  1  0  0  0  0
 15 18  1  0  0  0  0
 17 18  1  0  0  0  0
  2 19  1  0  0  0  0
  5 20  1  0  0  0  0
  6 21  1  0  0  0  0
  7 22  1  0  0  0  0
  8 23  1  0  0  0  0
  9 24  1  0  0  0  0
 10 25  1  0  0  0  0
 11 26  1  0  0  0  0
 12 27  1  0  0  0  0
 13 28  1  0  0  0  0
M  END
> <pdb_id>
4R3C

> <uniprot_id>
Q16539

> <usmiles>
Fc1ccc(cc1)C2=NNC=C2c3ccncc3

$$$$
GG9_A_501
          07192419173D 1   1.00000     0.00000     0
            
 42 42  0  0  0  0            999 V2000
   53.7314    8.0329   27.8096 P   0  0  0  0  0  0  0  0  0  0  0  0
   60.6705    9.5142   26.7939 P   0  0  0  0  0  0  0  0  0  0  0  0
   58.4961    7.4868   28.6134 F   0  0  0  0  0  0  0  0  0  0  0  0
   60.3772    6.7351   29.3556 F   0  0  0  0  0  0  0  0  0  0  0  0
   52.7882    9.0640   27.1828 O   0  0  0  0  0  0  0  0  0  0  0  0
   53.2440    7.4987   29.2222 O   0  0  0  0  0  0  0  0  0  0  0  0
   54.2194    6.9620   26.8004 O   0  0  0  0  0  0  0  0  0  0  0  0
   61.9107    8.9278   26.0854 O   0  0  0  0  0  0  0  0  0  0  0  0
   60.5801   11.0001   26.6029 O   0  0  0  0  0  0  0  0  0  0  0  0
   59.3907    8.7771   26.3276 O   0  0  0  0  0  0  0  0  0  0  0  0
   55.1840   13.3771   26.2810 O   0  0  0  0  0  0  0  0  0  0  0  0
   56.8073   14.2754   27.3564 O   0  0  0  0  0  0  0  0  0  0  0  0
   61.4552   10.3291   30.8696 O   0  0  0  0  0  0  0  0  0  0  0  0
   61.0956    8.2523   31.6092 O   0  0  0  0  0  0  0  0  0  0  0  0
   56.7012    8.7847   30.5889 O   0  0  0  0  0  0  0  0  0  0  0  0
   55.1517    8.8381   28.1123 O   0  0  0  0  0  0  0  0  0  0  0  0
   60.8830    9.3370   28.4178 O   0  0  0  0  0  0  0  0  0  0  0  0
   59.0599   10.2118   29.7020 O   0  0  0  0  0  0  0  0  0  0  0  0
   55.1143   11.3308   28.2482 C   0  0  0  0  0  0  0  0  0  0  0  0
   57.6596   11.7226   28.3398 C   0  0  0  0  0  0  0  0  0  0  0  0
   59.4170    7.6251   29.5034 C   0  0  0  0  0  0  0  0  0  0  0  0
   56.0785   13.3596   27.1055 C   0  0  0  0  0  0  0  0  0  0  0  0
   60.9123    9.1752   30.7924 C   0  0  0  0  0  0  0  0  0  0  0  0
   56.6359   10.0488   29.9103 C   0  0  2  0  0  0  0  0  0  0  0  0
   55.2794   10.0559   29.0729 C   0  0  2  0  0  0  0  0  0  0  0  0
   57.8404   10.2782   28.9521 C   0  0  2  0  0  0  0  0  0  0  0  0
   56.2677   12.1057   27.9054 C   0  0  0  0  0  0  0  0  0  0  0  0
   60.0002    9.1138   29.5926 C   0  0  1  0  0  0  0  0  0  0  0  0
   53.1538    9.3565   26.2992 H   0  0  0  0  0  0  0  0  0  0  0  0
   53.9028    6.8326   29.5721 H   0  0  0  0  0  0  0  0  0  0  0  0
   61.9416    7.9391   26.2316 H   0  0  0  0  0  0  0  0  0  0  0  0
   59.7686   11.3478   27.0725 H   0  0  0  0  0  0  0  0  0  0  0  0
   54.6216   12.5630   26.1361 H   0  0  0  0  0  0  0  0  0  0  0  0
   61.2598   11.0211   30.1747 H   0  0  0  0  0  0  0  0  0  0  0  0
   57.5419    8.7391   31.1286 H   0  0  0  0  0  0  0  0  0  0  0  0
   54.2056   11.6224   27.9495 H   0  0  0  0  0  0  0  0  0  0  0  0
   58.2556   11.7890   27.5395 H   0  0  0  0  0  0  0  0  0  0  0  0
   57.9539   12.3832   29.0304 H   0  0  0  0  0  0  0  0  0  0  0  0
   58.9883    7.4353   30.3867 H   0  0  0  0  0  0  0  0  0  0  0  0
   56.6089   10.7846   30.5870 H   0  0  0  0  0  0  0  0  0  0  0  0
   54.5202   10.0127   29.7223 H   0  0  0  0  0  0  0  0  0  0  0  0
   57.8418    9.5910   28.2256 H   0  0  0  0  0  0  0  0  0  0  0  0
  1  5  1  0  0  0  0
  1  6  1  0  0  0  0
  1  7  2  0  0  0  0
  1 16  1  0  0  0  0
  2  8  1  0  0  0  0
  2  9  1  0  0  0  0
  2 10  2  0  0  0  0
  2 17  1  0  0  0  0
  3 21  1  0  0  0  0
  4 21  1  0  0  0  0
 11 22  1  0  0  0  0
 12 22  2  0  0  0  0
 13 23  1  0  0  0  0
 14 23  2  0  0  0  0
 15 24  1  0  0  0  0
 16 25  1  0  0  0  0
 17 28  1  0  0  0  0
 18 26  1  0  0  0  0
 18 28  1  0  0  0  0
 19 25  1  0  0  0  0
 19 27  2  0  0  0  0
 20 26  1  0  0  0  0
 20 27  1  0  0  0  0
 21 28  1  0  0  0  0
 22 27  1  0  0  0  0
 23 28  1  0  0  0  0
 24 25  1  0  0  0  0
 24 26  1  0  0  0  0
  5 29  1  0  0  0  0
  6 30  1  0  0  0  0
  8 31  1  0  0  0  0
  9 32  1  0  0  0  0
 11 33  1  0  0  0  0
 13 34  1  0  0  0  0
 15 35  1  0  0  0  0
 19 36  1  0  0  0  0
 20 37  1  0  0  0  0
 20 38  1  0  0  0  0
 21 39  1  0  0  0  0
 24 40  1  0  0  0  0
 25 41  1  0  0  0  0
 26 42  1  0  0  0  0
M  END
> <pdb_id>
2PQ9

> <uniprot_id>
P0A6D3

> <usmiles>
P(=O)(O[C@](O[C@H]1[C@H](O)[C@H](OP(=O)(O)O)C=C(C(=O)O)C1)(C(=O)O)C(F)F)(O)O

$$$$
GG9_A_501
          07202408483D 1   1.00000     0.00000     0
            
 42 42  0  0  0  0            999 V2000
 -127.3910   31.1220  123.0460 P   0  0  0  0  0  0  0  0  0  0  0  0
 -131.8170   27.7510  128.4630 P   0  0  0  0  0  0  0  0  0  0  0  0
 -131.5490   29.1990  125.3620 F   0  0  0  0  0  0  0  0  0  0  0  0
 -133.5370   28.6600  125.8580 F   0  0  0  0  0  0  0  0  0  0  0  0
 -125.9160   31.1160  123.5140 O   0  0  0  0  0  0  0  0  0  0  0  0
 -127.8230   32.4300  122.3040 O   0  0  0  0  0  0  0  0  0  0  0  0
 -127.6420   29.7550  122.3860 O   0  0  0  0  0  0  0  0  0  0  0  0
 -131.9020   26.9290  127.2170 O   0  0  0  0  0  0  0  0  0  0  0  0
 -133.1220   27.6380  129.2280 O   0  0  0  0  0  0  0  0  0  0  0  0
 -130.6180   27.2610  129.3300 O   0  0  0  0  0  0  0  0  0  0  0  0
 -125.5540   31.8580  128.4280 O   0  0  0  0  0  0  0  0  0  0  0  0
 -127.0170   32.1910  130.0050 O   0  0  0  0  0  0  0  0  0  0  0  0
 -133.7180   30.7700  129.1780 O   0  0  0  0  0  0  0  0  0  0  0  0
 -134.8030   30.9360  127.2610 O   0  0  0  0  0  0  0  0  0  0  0  0
 -130.8350   32.2050  124.7190 O   0  0  0  0  0  0  0  0  0  0  0  0
 -128.3580   31.1140  124.3810 O   0  0  0  0  0  0  0  0  0  0  0  0
 -131.5780   29.3540  128.0870 O   0  0  0  0  0  0  0  0  0  0  0  0
 -131.5660   31.2810  127.4530 O   0  0  0  0  0  0  0  0  0  0  0  0
 -127.4180   32.3690  126.4040 C   0  0  0  0  0  0  0  0  0  0  0  0
 -129.1940   31.6430  128.1630 C   0  0  0  0  0  0  0  0  0  0  0  0
 -132.6890   29.6280  125.8300 C   0  0  0  0  0  0  0  0  0  0  0  0
 -126.6950   32.0350  128.8280 C   0  0  0  0  0  0  0  0  0  0  0  0
 -133.8030   30.6710  127.9060 C   0  0  0  0  0  0  0  0  0  0  0  0
 -129.9960   32.3540  125.8790 C   0  0  2  0  0  0  0  0  0  0  0  0
 -128.5040   32.3270  125.3130 C   0  0  2  0  0  0  0  0  0  0  0  0
 -130.1890   31.2700  126.9710 C   0  0  2  0  0  0  0  0  0  0  0  0
 -127.7840   32.0210  127.7750 C   0  0  0  0  0  0  0  0  0  0  0  0
 -132.5120   30.1670  127.2980 C   0  0  1  0  0  0  0  0  0  0  0  0
 -125.7167   30.2523  123.9769 H   0  0  0  0  0  0  0  0  0  0  0  0
 -128.7833   32.3585  122.0342 H   0  0  0  0  0  0  0  0  0  0  0  0
 -131.0428   27.0016  126.7105 H   0  0  0  0  0  0  0  0  0  0  0  0
 -133.0680   28.1869  130.0621 H   0  0  0  0  0  0  0  0  0  0  0  0
 -125.3796   31.7396  127.4505 H   0  0  0  0  0  0  0  0  0  0  0  0
 -132.8638   30.5349  129.6418 H   0  0  0  0  0  0  0  0  0  0  0  0
 -131.7950   32.2130  124.9987 H   0  0  0  0  0  0  0  0  0  0  0  0
 -126.4794   32.6297  126.1782 H   0  0  0  0  0  0  0  0  0  0  0  0
 -129.1392   30.8511  128.7712 H   0  0  0  0  0  0  0  0  0  0  0  0
 -129.5901   32.4165  128.6578 H   0  0  0  0  0  0  0  0  0  0  0  0
 -133.0366   30.3603  125.2445 H   0  0  0  0  0  0  0  0  0  0  0  0
 -130.1680   33.2515  126.2851 H   0  0  0  0  0  0  0  0  0  0  0  0
 -128.3879   33.1457  124.7507 H   0  0  0  0  0  0  0  0  0  0  0  0
 -129.9613   30.3683  126.6034 H   0  0  0  0  0  0  0  0  0  0  0  0
  1  5  1  0  0  0  0
  1  6  1  0  0  0  0
  1  7  2  0  0  0  0
  1 16  1  0  0  0  0
  2  8  1  0  0  0  0
  2  9  1  0  0  0  0
  2 10  2  0  0  0  0
  2 17  1  0  0  0  0
  3 21  1  0  0  0  0
  4 21  1  0  0  0  0
 11 22  1  0  0  0  0
 12 22  2  0  0  0  0
 13 23  1  0  0  0  0
 14 23  2  0  0  0  0
 15 24  1  0  0  0  0
 16 25  1  0  0  0  0
 17 28  1  0  0  0  0
 18 26  1  0  0  0  0
 18 28  1  0  0  0  0
 19 25  1  0  0  0  0
 19 27  2  0  0  0  0
 20 26  1  0  0  0  0
 20 27  1  0  0  0  0
 21 28  1  0  0  0  0
 22 27  1  0  0  0  0
 23 28  1  0  0  0  0
 24 25  1  0  0  0  0
 24 26  1  0  0  0  0
  5 29  1  0  0  0  0
  6 30  1  0  0  0  0
  8 31  1  0  0  0  0
  9 32  1  0  0  0  0
 11 33  1  0  0  0  0
 13 34  1  0  0  0  0
 15 35  1  0  0  0  0
 19 36  1  0  0  0  0
 20 37  1  0  0  0  0
 20 38  1  0  0  0  0
 21 39  1  0  0  0  0
 24 40  1  0  0  0  0
 25 41  1  0  0  0  0
 26 42  1  0  0  0  0
M  END
> <pdb_id>
2PQB

> <uniprot_id>
Q9R4E4

> <usmiles>
P(=O)(O[C@](O[C@H]1[C@H](O)[C@H](OP(=O)(O)O)C=C(C(=O)O)C1)(C(=O)O)C(F)F)(O)O

$$$$
GGU_A_1601
          07202416373D 1   1.00000     0.00000     0
            
 33 35  0  0  0  0            999 V2000
   -5.2160   -2.6020   23.7410 O   0  0  0  0  0  0  0  0  0  0  0  0
  -10.9660   -3.8840   24.9980 N   0  0  0  0  0  0  0  0  0  0  0  0
   -8.8180   -3.6080   24.3790 N   0  0  0  0  0  0  0  0  0  0  0  0
   -7.8030   -2.8930   23.8330 N   0  0  0  0  0  0  0  0  0  0  0  0
  -14.0170    0.2390   24.3940 C   0  0  0  0  0  0  0  0  0  0  0  0
  -13.5560   -0.5700   25.3800 C   0  0  0  0  0  0  0  0  0  0  0  0
  -13.3120    0.3220   23.2680 C   0  0  0  0  0  0  0  0  0  0  0  0
   -4.5590    0.1970   21.6240 C   0  0  0  0  0  0  0  0  0  0  0  0
   -5.7770    0.6760   21.3820 C   0  0  0  0  0  0  0  0  0  0  0  0
   -4.3840   -0.8840   22.3940 C   0  0  0  0  0  0  0  0  0  0  0  0
  -12.3540   -1.1990   25.2580 C   0  0  0  0  0  0  0  0  0  0  0  0
  -12.1330   -0.3310   23.1130 C   0  0  0  0  0  0  0  0  0  0  0  0
   -6.8770    0.0410   21.9180 C   0  0  0  0  0  0  0  0  0  0  0  0
   -9.2480   -1.1130   23.4130 C   0  0  0  0  0  0  0  0  0  0  0  0
   -5.4640   -1.5540   22.9750 C   0  0  0  0  0  0  0  0  0  0  0  0
  -10.0200   -3.1120   24.4550 C   0  0  0  0  0  0  0  0  0  0  0  0
   -7.9800   -1.6780   23.3430 C   0  0  0  0  0  0  0  0  0  0  0  0
  -11.5940   -1.1160   24.1190 C   0  0  0  0  0  0  0  0  0  0  0  0
   -6.7400   -1.0430   22.7600 C   0  0  0  0  0  0  0  0  0  0  0  0
  -10.3000   -1.8160   23.9900 C   0  0  0  0  0  0  0  0  0  0  0  0
   -5.9713   -3.0988   24.1685 H   0  0  0  0  0  0  0  0  0  0  0  0
  -11.9035   -3.5450   25.0772 H   0  0  0  0  0  0  0  0  0  0  0  0
  -10.7365   -4.8007   25.3252 H   0  0  0  0  0  0  0  0  0  0  0  0
  -14.8633    0.7589   24.5097 H   0  0  0  0  0  0  0  0  0  0  0  0
  -14.1042   -0.7062   26.2052 H   0  0  0  0  0  0  0  0  0  0  0  0
  -13.6609    0.8809   22.5158 H   0  0  0  0  0  0  0  0  0  0  0  0
   -3.7627    0.6514   21.2247 H   0  0  0  0  0  0  0  0  0  0  0  0
   -5.8935    1.4914   20.8149 H   0  0  0  0  0  0  0  0  0  0  0  0
   -3.4567   -1.2207   22.5576 H   0  0  0  0  0  0  0  0  0  0  0  0
  -12.0133   -1.7408   26.0264 H   0  0  0  0  0  0  0  0  0  0  0  0
  -11.6390   -0.2431   22.2480 H   0  0  0  0  0  0  0  0  0  0  0  0
   -7.7928    0.3729   21.6918 H   0  0  0  0  0  0  0  0  0  0  0  0
   -9.4046   -0.1959   23.0464 H   0  0  0  0  0  0  0  0  0  0  0  0
  1 15  1  0  0  0  0
  2 16  1  0  0  0  0
  3  4  1  0  0  0  0
  3 16  2  0  0  0  0
  4 17  2  0  0  0  0
  5  6  2  0  0  0  0
  5  7  1  0  0  0  0
  6 11  1  0  0  0  0
  7 12  2  0  0  0  0
  8  9  2  0  0  0  0
  8 10  1  0  0  0  0
  9 13  1  0  0  0  0
 10 15  2  0  0  0  0
 11 18  2  0  0  0  0
 12 18  1  0  0  0  0
 13 19  2  0  0  0  0
 14 17  1  0  0  0  0
 14 20  2  0  0  0  0
 15 19  1  0  0  0  0
 16 20  1  0  0  0  0
 17 19  1  0  0  0  0
 18 20  1  0  0  0  0
  1 21  1  0  0  0  0
  2 22  1  0  0  0  0
  2 23  1  0  0  0  0
  5 24  1  0  0  0  0
  6 25  1  0  0  0  0
  7 26  1  0  0  0  0
  8 27  1  0  0  0  0
  9 28  1  0  0  0  0
 10 29  1  0  0  0  0
 11 30  1  0  0  0  0
 12 31  1  0  0  0  0
 13 32  1  0  0  0  0
 14 33  1  0  0  0  0
M  END
> <pdb_id>
7TAB

> <uniprot_id>
nan

> <usmiles>
Oc1c(c2nnc(N)c(c3ccccc3)c2)cccc1

$$$$
GI1_A_1446
          07192418433D 1   1.00000     0.00000     0
            
 32 33  0  0  0  0            999 V2000
   -2.8075    8.1190    8.3775 O   0  0  0  0  0  0  0  0  0  0  0  0
   -2.6753    7.5306   13.0584 O   0  0  0  0  0  0  0  0  0  0  0  0
    0.9138   12.0344    7.4306 O   0  0  0  0  0  0  0  0  0  0  0  0
    0.5604   12.6730   10.2877 O   0  0  0  0  0  0  0  0  0  0  0  0
   -1.4308   10.7511    6.3539 O   0  0  0  0  0  0  0  0  0  0  0  0
   -0.7497    8.5302   14.0669 O   0  0  0  0  0  0  0  0  0  0  0  0
   -0.4782   10.1654   11.6800 N   0  0  0  0  0  0  0  0  0  0  0  0
   -1.8770   10.1850    9.9896 N   0  0  0  0  0  0  0  0  0  0  0  0
    0.0168    7.3154   13.8955 C   0  0  0  0  0  0  0  0  0  0  0  0
   -3.3236    9.4290    8.1452 C   0  0  0  0  0  0  0  0  0  0  0  0
   -2.4554    9.4360   10.9485 C   0  0  0  0  0  0  0  0  0  0  0  0
   -1.9199    8.7331   13.2605 C   0  0  0  0  0  0  0  0  0  0  0  0
   -0.2164   11.7416    8.2545 C   0  0  2  0  0  0  0  0  0  0  0  0
    0.3109   11.4268    9.6545 C   0  0  2  0  0  0  0  0  0  0  0  0
   -1.1048   10.5972    7.7326 C   0  0  1  0  0  0  0  0  0  0  0  0
   -0.6693   10.6208   10.4269 C   0  0  0  0  0  0  0  0  0  0  0  0
   -1.5580    9.4323   12.0007 C   0  0  0  0  0  0  0  0  0  0  0  0
   -2.3724   10.4955    8.6167 C   0  0  2  0  0  0  0  0  0  0  0  0
   -3.4649    7.4392    8.0523 H   0  0  0  0  0  0  0  0  0  0  0  0
    0.6045   12.2459    6.5034 H   0  0  0  0  0  0  0  0  0  0  0  0
    0.9087   12.5137   11.2114 H   0  0  0  0  0  0  0  0  0  0  0  0
   -2.0065    9.9879    6.0603 H   0  0  0  0  0  0  0  0  0  0  0  0
    0.7954    7.3211   14.5230 H   0  0  0  0  0  0  0  0  0  0  0  0
   -0.5633    6.5247   14.0913 H   0  0  0  0  0  0  0  0  0  0  0  0
    0.3483    7.2604   12.9536 H   0  0  0  0  0  0  0  0  0  0  0  0
   -4.1895    9.5275    8.6357 H   0  0  0  0  0  0  0  0  0  0  0  0
   -3.4808    9.5458    7.1646 H   0  0  0  0  0  0  0  0  0  0  0  0
   -3.3444    8.9798   10.9080 H   0  0  0  0  0  0  0  0  0  0  0  0
   -0.7781   12.5669    8.3139 H   0  0  0  0  0  0  0  0  0  0  0  0
    1.1685   10.9182    9.5774 H   0  0  0  0  0  0  0  0  0  0  0  0
   -0.5935    9.7436    7.8323 H   0  0  0  0  0  0  0  0  0  0  0  0
   -2.8421   11.3783    8.6255 H   0  0  0  0  0  0  0  0  0  0  0  0
  1 10  1  0  0  0  0
  2 12  2  0  0  0  0
  3 13  1  0  0  0  0
  4 14  1  0  0  0  0
  5 15  1  0  0  0  0
  6  9  1  0  0  0  0
  6 12  1  0  0  0  0
  7 16  2  0  0  0  0
  7 17  1  0  0  0  0
  8 11  1  0  0  0  0
  8 16  1  0  0  0  0
  8 18  1  0  0  0  0
 10 18  1  0  0  0  0
 11 17  2  0  0  0  0
 12 17  1  0  0  0  0
 13 14  1  0  0  0  0
 13 15  1  0  0  0  0
 14 16  1  0  0  0  0
 15 18  1  0  0  0  0
  1 19  1  0  0  0  0
  3 20  1  0  0  0  0
  4 21  1  0  0  0  0
  5 22  1  0  0  0  0
  9 23  1  0  0  0  0
  9 24  1  0  0  0  0
  9 25  1  0  0  0  0
 10 26  1  0  0  0  0
 10 27  1  0  0  0  0
 11 28  1  0  0  0  0
 13 29  1  0  0  0  0
 14 30  1  0  0  0  0
 15 31  1  0  0  0  0
 18 32  1  0  0  0  0
M  END
> <pdb_id>
2J7D

> <uniprot_id>
Q08638

> <usmiles>
O=C(OC)C=1N=C2N(C1)[C@@H]([C@@H](O)[C@H](O)[C@H]2O)CO

$$$$
GI2_A_1446
          07192418433D 1   1.00000     0.00000     0
            
 35 36  0  0  0  0            999 V2000
   -2.6600    8.1172    8.3909 O   0  0  0  0  0  0  0  0  0  0  0  0
    0.2408    7.3783   12.6692 O   0  0  0  0  0  0  0  0  0  0  0  0
    0.9373   12.0876    7.2858 O   0  0  0  0  0  0  0  0  0  0  0  0
    0.7536   12.8052   10.1688 O   0  0  0  0  0  0  0  0  0  0  0  0
   -1.5049   10.7637    6.3883 O   0  0  0  0  0  0  0  0  0  0  0  0
   -0.1306    7.3791   14.8850 O   0  0  0  0  0  0  0  0  0  0  0  0
   -0.2803   10.2609   11.6797 N   0  0  0  0  0  0  0  0  0  0  0  0
   -1.7101   10.2114   10.0384 N   0  0  0  0  0  0  0  0  0  0  0  0
    0.6045    6.1298   14.9308 C   0  0  0  0  0  0  0  0  0  0  0  0
   -3.2195    9.4281    8.2902 C   0  0  0  0  0  0  0  0  0  0  0  0
   -2.1954    9.4890   11.0622 C   0  0  0  0  0  0  0  0  0  0  0  0
   -1.4426    8.8944   13.4482 C   0  0  0  0  0  0  0  0  0  0  0  0
   -0.3809    7.8322   13.6326 C   0  0  0  0  0  0  0  0  0  0  0  0
   -0.1382   11.8095    8.1710 C   0  0  2  0  0  0  0  0  0  0  0  0
    0.4689   11.5535    9.5512 C   0  0  2  0  0  0  0  0  0  0  0  0
   -1.0401   10.6228    7.7258 C   0  0  1  0  0  0  0  0  0  0  0  0
   -0.4637   10.7126   10.4405 C   0  0  0  0  0  0  0  0  0  0  0  0
   -1.3206    9.5305   12.0735 C   0  0  0  0  0  0  0  0  0  0  0  0
   -2.2310   10.5047    8.6919 C   0  0  2  0  0  0  0  0  0  0  0  0
   -3.3440    7.4409    8.1175 H   0  0  0  0  0  0  0  0  0  0  0  0
    0.5780   12.2611    6.3689 H   0  0  0  0  0  0  0  0  0  0  0  0
    1.1513   12.6480   11.0728 H   0  0  0  0  0  0  0  0  0  0  0  0
   -2.0779    9.9794    6.1501 H   0  0  0  0  0  0  0  0  0  0  0  0
    0.7492    5.8629   15.8836 H   0  0  0  0  0  0  0  0  0  0  0  0
    0.0821    5.4182   14.4610 H   0  0  0  0  0  0  0  0  0  0  0  0
    1.4891    6.2467   14.4794 H   0  0  0  0  0  0  0  0  0  0  0  0
   -4.0182    9.4843    8.8894 H   0  0  0  0  0  0  0  0  0  0  0  0
   -3.5011    9.5862    7.3438 H   0  0  0  0  0  0  0  0  0  0  0  0
   -3.0679    9.0004   11.0674 H   0  0  0  0  0  0  0  0  0  0  0  0
   -1.3292    9.5990   14.1488 H   0  0  0  0  0  0  0  0  0  0  0  0
   -2.3465    8.4764   13.5391 H   0  0  0  0  0  0  0  0  0  0  0  0
   -0.7098   12.6278    8.2309 H   0  0  0  0  0  0  0  0  0  0  0  0
    1.3280   11.0556    9.4324 H   0  0  0  0  0  0  0  0  0  0  0  0
   -0.5034    9.7811    7.7847 H   0  0  0  0  0  0  0  0  0  0  0  0
   -2.7087   11.3828    8.7186 H   0  0  0  0  0  0  0  0  0  0  0  0
  1 10  1  0  0  0  0
  2 13  2  0  0  0  0
  3 14  1  0  0  0  0
  4 15  1  0  0  0  0
  5 16  1  0  0  0  0
  6  9  1  0  0  0  0
  6 13  1  0  0  0  0
  7 17  2  0  0  0  0
  7 18  1  0  0  0  0
  8 11  1  0  0  0  0
  8 17  1  0  0  0  0
  8 19  1  0  0  0  0
 10 19  1  0  0  0  0
 11 18  2  0  0  0  0
 12 13  1  0  0  0  0
 12 18  1  0  0  0  0
 14 15  1  0  0  0  0
 14 16  1  0  0  0  0
 15 17  1  0  0  0  0
 16 19  1  0  0  0  0
  1 20  1  0  0  0  0
  3 21  1  0  0  0  0
  4 22  1  0  0  0  0
  5 23  1  0  0  0  0
  9 24  1  0  0  0  0
  9 25  1  0  0  0  0
  9 26  1  0  0  0  0
 10 27  1  0  0  0  0
 10 28  1  0  0  0  0
 11 29  1  0  0  0  0
 12 30  1  0  0  0  0
 12 31  1  0  0  0  0
 14 32  1  0  0  0  0
 15 33  1  0  0  0  0
 16 34  1  0  0  0  0
 19 35  1  0  0  0  0
M  END
> <pdb_id>
2J7E

> <uniprot_id>
Q08638

> <usmiles>
O=C(OC)CC=1N=C2N(C1)[C@@H]([C@@H](O)[C@H](O)[C@H]2O)CO

$$$$
GI4_B_1446
          07192418433D 1   1.00000     0.00000     0
            
 32 33  0  0  0  0            999 V2000
   -2.6638    8.0579    8.4137 O   0  0  0  0  0  0  0  0  0  0  0  0
   -0.8765    7.4283   13.4503 O   0  0  0  0  0  0  0  0  0  0  0  0
   -2.7557    7.6205   14.7005 O   0  0  0  0  0  0  0  0  0  0  0  0
    0.7182   12.7536   10.2776 O   0  0  0  0  0  0  0  0  0  0  0  0
    0.7475   12.2070    7.2522 O   0  0  0  0  0  0  0  0  0  0  0  0
   -1.4121   10.8104    6.3226 O   0  0  0  0  0  0  0  0  0  0  0  0
   -0.5847   10.5701   11.8002 N   0  0  0  0  0  0  0  0  0  0  0  0
   -1.8678   10.3134   10.0221 N   0  0  0  0  0  0  0  0  0  0  0  0
   -3.2176    9.3428    8.1684 C   0  0  0  0  0  0  0  0  0  0  0  0
   -2.4628    9.7721   11.0773 C   0  0  0  0  0  0  0  0  0  0  0  0
   -1.9800    9.5018   13.5907 C   0  0  0  0  0  0  0  0  0  0  0  0
   -1.8616    8.0535   13.9277 C   0  0  0  0  0  0  0  0  0  0  0  0
   -1.6775    9.9141   12.1503 C   0  0  0  0  0  0  0  0  0  0  0  0
   -0.6428   10.8442   10.4999 C   0  0  0  0  0  0  0  0  0  0  0  0
    0.3691   11.5530    9.6074 C   0  0  1  0  0  0  0  0  0  0  0  0
   -0.2283   11.8261    8.2081 C   0  0  2  0  0  0  0  0  0  0  0  0
   -1.0283   10.6200    7.6933 C   0  0  1  0  0  0  0  0  0  0  0  0
   -2.2646   10.4526    8.5998 C   0  0  2  0  0  0  0  0  0  0  0  0
   -3.3112    7.3544    8.1207 H   0  0  0  0  0  0  0  0  0  0  0  0
   -0.2346    7.8956   12.8424 H   0  0  0  0  0  0  0  0  0  0  0  0
    1.3846   13.2595    9.7299 H   0  0  0  0  0  0  0  0  0  0  0  0
    0.3048   12.3697    6.3705 H   0  0  0  0  0  0  0  0  0  0  0  0
   -1.9306   10.0153    6.0082 H   0  0  0  0  0  0  0  0  0  0  0  0
   -4.0725    9.4313    8.6795 H   0  0  0  0  0  0  0  0  0  0  0  0
   -3.4030    9.4355    7.1901 H   0  0  0  0  0  0  0  0  0  0  0  0
   -3.3585    9.3274   11.0712 H   0  0  0  0  0  0  0  0  0  0  0  0
   -1.3489   10.0008   14.1846 H   0  0  0  0  0  0  0  0  0  0  0  0
   -2.9188    9.7812   13.7922 H   0  0  0  0  0  0  0  0  0  0  0  0
    1.1831   10.9800    9.5123 H   0  0  0  0  0  0  0  0  0  0  0  0
   -0.8676   12.5894    8.3012 H   0  0  0  0  0  0  0  0  0  0  0  0
   -0.4607    9.7995    7.7616 H   0  0  0  0  0  0  0  0  0  0  0  0
   -2.7797   11.3072    8.5338 H   0  0  0  0  0  0  0  0  0  0  0  0
  1  9  1  0  0  0  0
  2 12  1  0  0  0  0
  3 12  2  0  0  0  0
  4 15  1  0  0  0  0
  5 16  1  0  0  0  0
  6 17  1  0  0  0  0
  7 13  1  0  0  0  0
  7 14  2  0  0  0  0
  8 10  1  0  0  0  0
  8 14  1  0  0  0  0
  8 18  1  0  0  0  0
  9 18  1  0  0  0  0
 10 13  2  0  0  0  0
 11 12  1  0  0  0  0
 11 13  1  0  0  0  0
 14 15  1  0  0  0  0
 15 16  1  0  0  0  0
 16 17  1  0  0  0  0
 17 18  1  0  0  0  0
  1 19  1  0  0  0  0
  2 20  1  0  0  0  0
  4 21  1  0  0  0  0
  5 22  1  0  0  0  0
  6 23  1  0  0  0  0
  9 24  1  0  0  0  0
  9 25  1  0  0  0  0
 10 26  1  0  0  0  0
 11 27  1  0  0  0  0
 11 28  1  0  0  0  0
 15 29  1  0  0  0  0
 16 30  1  0  0  0  0
 17 31  1  0  0  0  0
 18 32  1  0  0  0  0
M  END
> <pdb_id>
2J7G

> <uniprot_id>
Q08638

> <usmiles>
O=C(O)CC=1N=C2N(C1)[C@@H]([C@@H](O)[C@H](O)[C@H]2O)CO

$$$$
GIF_A_1001
          07202415563D 1   1.00000     0.00000     0
            
 23 23  0  0  0  0            999 V2000
   80.7342   88.0612   16.9218 O   0  0  0  0  0  0  0  0  0  0  0  0
   77.2600   89.4431   21.7449 O   0  0  0  0  0  0  0  0  0  0  0  0
   78.3624   87.5257   20.3260 O   0  0  0  0  0  0  0  0  0  0  0  0
   76.7141   89.5038   18.0993 N   0  0  0  0  0  0  0  0  0  0  0  0
   80.2055   87.9441   18.1981 C   0  0  0  0  0  0  0  0  0  0  0  0
   76.4248   89.5371   19.5489 C   0  0  0  0  0  0  0  0  0  0  0  0
   77.8871   88.7055   17.7182 C   0  0  0  0  0  0  0  0  0  0  0  0
   77.6377   89.7038   20.4290 C   0  0  2  0  0  0  0  0  0  0  0  0
   78.7554   88.8327   20.0407 C   0  0  2  0  0  0  0  0  0  0  0  0
   79.0973   88.9152   18.5981 C   0  0  1  0  0  0  0  0  0  0  0  0
   81.4455   87.3706   16.7910 H   0  0  0  0  0  0  0  0  0  0  0  0
   78.0520   89.5484   22.3462 H   0  0  0  0  0  0  0  0  0  0  0  0
   79.0970   86.8947   20.0762 H   0  0  0  0  0  0  0  0  0  0  0  0
   76.8649   90.4432   17.7914 H   0  0  0  0  0  0  0  0  0  0  0  0
   80.9578   88.0662   18.8455 H   0  0  0  0  0  0  0  0  0  0  0  0
   79.8375   87.0184   18.2853 H   0  0  0  0  0  0  0  0  0  0  0  0
   75.9755   88.6788   19.7968 H   0  0  0  0  0  0  0  0  0  0  0  0
   75.8043   90.3012   19.7254 H   0  0  0  0  0  0  0  0  0  0  0  0
   78.1372   88.9451   16.7801 H   0  0  0  0  0  0  0  0  0  0  0  0
   77.6343   87.7388   17.7592 H   0  0  0  0  0  0  0  0  0  0  0  0
   77.9427   90.6543   20.3701 H   0  0  0  0  0  0  0  0  0  0  0  0
   79.5610   89.0636   20.5863 H   0  0  0  0  0  0  0  0  0  0  0  0
   79.4349   89.8403   18.4245 H   0  0  0  0  0  0  0  0  0  0  0  0
  1  5  1  0  0  0  0
  2  8  1  0  0  0  0
  3  9  1  0  0  0  0
  4  6  1  0  0  0  0
  4  7  1  0  0  0  0
  5 10  1  0  0  0  0
  6  8  1  0  0  0  0
  7 10  1  0  0  0  0
  8  9  1  0  0  0  0
  9 10  1  0  0  0  0
  1 11  1  0  0  0  0
  2 12  1  0  0  0  0
  3 13  1  0  0  0  0
  4 14  1  0  0  0  0
  5 15  1  0  0  0  0
  5 16  1  0  0  0  0
  6 17  1  0  0  0  0
  6 18  1  0  0  0  0
  7 19  1  0  0  0  0
  7 20  1  0  0  0  0
  8 21  1  0  0  0  0
  9 22  1  0  0  0  0
 10 23  1  0  0  0  0
M  END
> <pdb_id>
4UFH

> <uniprot_id>
P54818

> <usmiles>
O[C@H]1[C@@H](O)[C@@H](CO)CNC1

$$$$
GIM_A_1048
          07202412393D 1   1.00000     0.00000     0
            
 26 27  0  0  0  0            999 V2000
   27.8139   67.3518    7.2093 O   0  0  0  0  0  0  0  0  0  0  0  0
   33.4033   65.7813    9.6071 O   0  0  0  0  0  0  0  0  0  0  0  0
   33.8257   66.5035    7.0225 O   0  0  0  0  0  0  0  0  0  0  0  0
   31.8225   68.2734    5.7752 O   0  0  0  0  0  0  0  0  0  0  0  0
   30.8735   66.8560   10.8768 N   0  0  0  0  0  0  0  0  0  0  0  0
   30.1576   67.4447    8.8786 N   0  0  0  0  0  0  0  0  0  0  0  0
   29.7129   67.5235   11.0146 C   0  0  0  0  0  0  0  0  0  0  0  0
   29.0834   66.9223    6.6912 C   0  0  0  0  0  0  0  0  0  0  0  0
   29.2534   67.8567    9.8068 C   0  0  0  0  0  0  0  0  0  0  0  0
   31.1471   66.7939    9.5926 C   0  0  0  0  0  0  0  0  0  0  0  0
   32.3044   66.1600    8.8186 C   0  0  1  0  0  0  0  0  0  0  0  0
   32.7060   67.1356    7.7104 C   0  0  2  0  0  0  0  0  0  0  0  0
   31.5351   67.2654    6.7550 C   0  0  1  0  0  0  0  0  0  0  0  0
   30.2165   67.6872    7.4295 C   0  0  2  0  0  0  0  0  0  0  0  0
   27.0792   66.8634    6.7385 H   0  0  0  0  0  0  0  0  0  0  0  0
   34.1089   65.3785    9.0241 H   0  0  0  0  0  0  0  0  0  0  0  0
   34.1381   67.0958    6.2799 H   0  0  0  0  0  0  0  0  0  0  0  0
   31.0494   68.3572    5.1465 H   0  0  0  0  0  0  0  0  0  0  0  0
   29.2660   67.7358   11.8836 H   0  0  0  0  0  0  0  0  0  0  0  0
   29.1294   67.1186    5.7117 H   0  0  0  0  0  0  0  0  0  0  0  0
   29.1907   65.9392    6.8396 H   0  0  0  0  0  0  0  0  0  0  0  0
   28.3922   68.3283    9.6170 H   0  0  0  0  0  0  0  0  0  0  0  0
   31.9531   65.3340    8.3777 H   0  0  0  0  0  0  0  0  0  0  0  0
   32.9669   68.0245    8.0869 H   0  0  0  0  0  0  0  0  0  0  0  0
   31.3968   66.3908    6.2902 H   0  0  0  0  0  0  0  0  0  0  0  0
   30.0854   68.6660    7.2720 H   0  0  0  0  0  0  0  0  0  0  0  0
  1  8  1  0  0  0  0
  2 11  1  0  0  0  0
  3 12  1  0  0  0  0
  4 13  1  0  0  0  0
  5  7  1  0  0  0  0
  5 10  2  0  0  0  0
  6  9  1  0  0  0  0
  6 10  1  0  0  0  0
  6 14  1  0  0  0  0
  7  9  2  0  0  0  0
  8 14  1  0  0  0  0
 10 11  1  0  0  0  0
 11 12  1  0  0  0  0
 12 13  1  0  0  0  0
 13 14  1  0  0  0  0
  1 15  1  0  0  0  0
  2 16  1  0  0  0  0
  3 17  1  0  0  0  0
  4 18  1  0  0  0  0
  7 19  1  0  0  0  0
  8 20  1  0  0  0  0
  8 21  1  0  0  0  0
  9 22  1  0  0  0  0
 11 23  1  0  0  0  0
 12 24  1  0  0  0  0
 13 25  1  0  0  0  0
 14 26  1  0  0  0  0
M  END
> <pdb_id>
3D4Z

> <uniprot_id>
Q24451

> <usmiles>
O[C@@H]1[C@H](N2C(=NC=C2)[C@H](O)[C@H]1O)CO

$$$$
GIM_A_1447
          07192418433D 1   1.00000     0.00000     0
            
 26 27  0  0  0  0            999 V2000
   -2.8533    8.2685    8.4235 O   0  0  0  0  0  0  0  0  0  0  0  0
    0.6977   12.8311   10.2786 O   0  0  0  0  0  0  0  0  0  0  0  0
    0.9650   12.1260    7.4511 O   0  0  0  0  0  0  0  0  0  0  0  0
   -1.3882   10.7767    6.2523 O   0  0  0  0  0  0  0  0  0  0  0  0
   -0.8177   10.6871   11.8091 N   0  0  0  0  0  0  0  0  0  0  0  0
   -1.9584   10.3166    9.9332 N   0  0  0  0  0  0  0  0  0  0  0  0
   -1.8728    9.8903   12.1295 C   0  0  0  0  0  0  0  0  0  0  0  0
   -3.4486    9.5541    8.1346 C   0  0  0  0  0  0  0  0  0  0  0  0
   -2.5437    9.5949   10.9263 C   0  0  0  0  0  0  0  0  0  0  0  0
   -0.8849   10.9147   10.4915 C   0  0  0  0  0  0  0  0  0  0  0  0
    0.1585   11.6757    9.6619 C   0  0  1  0  0  0  0  0  0  0  0  0
   -0.2487   11.8219    8.1716 C   0  0  2  0  0  0  0  0  0  0  0  0
   -1.0181   10.5664    7.6232 C   0  0  1  0  0  0  0  0  0  0  0  0
   -2.2826   10.4453    8.4989 C   0  0  2  0  0  0  0  0  0  0  0  0
   -3.5147    7.5438    8.2299 H   0  0  0  0  0  0  0  0  0  0  0  0
    1.3636   13.2561    9.6656 H   0  0  0  0  0  0  0  0  0  0  0  0
    0.7578   12.2311    6.4785 H   0  0  0  0  0  0  0  0  0  0  0  0
   -1.8769    9.9734    5.9120 H   0  0  0  0  0  0  0  0  0  0  0  0
   -2.1243    9.5745   13.0445 H   0  0  0  0  0  0  0  0  0  0  0  0
   -4.2495    9.7329    8.7061 H   0  0  0  0  0  0  0  0  0  0  0  0
   -3.7004    9.6421    7.1708 H   0  0  0  0  0  0  0  0  0  0  0  0
   -3.3140    8.9659   10.8211 H   0  0  0  0  0  0  0  0  0  0  0  0
    0.9344   11.0458    9.6300 H   0  0  0  0  0  0  0  0  0  0  0  0
   -0.8570   12.6120    8.0957 H   0  0  0  0  0  0  0  0  0  0  0  0
   -0.4535    9.7456    7.7102 H   0  0  0  0  0  0  0  0  0  0  0  0
   -2.6788   11.3618    8.4431 H   0  0  0  0  0  0  0  0  0  0  0  0
  1  8  1  0  0  0  0
  2 11  1  0  0  0  0
  3 12  1  0  0  0  0
  4 13  1  0  0  0  0
  5  7  1  0  0  0  0
  5 10  2  0  0  0  0
  6  9  1  0  0  0  0
  6 10  1  0  0  0  0
  6 14  1  0  0  0  0
  7  9  2  0  0  0  0
  8 14  1  0  0  0  0
 10 11  1  0  0  0  0
 11 12  1  0  0  0  0
 12 13  1  0  0  0  0
 13 14  1  0  0  0  0
  1 15  1  0  0  0  0
  2 16  1  0  0  0  0
  3 17  1  0  0  0  0
  4 18  1  0  0  0  0
  7 19  1  0  0  0  0
  8 20  1  0  0  0  0
  8 21  1  0  0  0  0
  9 22  1  0  0  0  0
 11 23  1  0  0  0  0
 12 24  1  0  0  0  0
 13 25  1  0  0  0  0
 14 26  1  0  0  0  0
M  END
> <pdb_id>
2CES

> <uniprot_id>
Q08638

> <usmiles>
O[C@@H]1[C@H](N2C(=NC=C2)[C@H](O)[C@H]1O)CO

$$$$
GIM_B_1493
          07192418423D 1   1.00000     0.00000     0
            
 26 27  0  0  0  0            999 V2000
  138.7700   88.5100   69.4290 O   0  0  0  0  0  0  0  0  0  0  0  0
  139.7740   93.5390   72.5530 O   0  0  0  0  0  0  0  0  0  0  0  0
  140.3430   93.6070   69.5960 O   0  0  0  0  0  0  0  0  0  0  0  0
  138.8300   91.7140   68.1440 O   0  0  0  0  0  0  0  0  0  0  0  0
  139.6350   90.5750   73.4370 N   0  0  0  0  0  0  0  0  0  0  0  0
  138.5450   90.3630   71.5690 N   0  0  0  0  0  0  0  0  0  0  0  0
  138.9190   89.4310   73.5360 C   0  0  0  0  0  0  0  0  0  0  0  0
  137.6430   89.3700   69.4980 C   0  0  0  0  0  0  0  0  0  0  0  0
  138.2450   89.3060   72.3280 C   0  0  0  0  0  0  0  0  0  0  0  0
  139.4010   91.1550   72.2380 C   0  0  0  0  0  0  0  0  0  0  0  0
  140.0060   92.4110   71.7020 C   0  0  1  0  0  0  0  0  0  0  0  0
  139.4510   92.7140   70.2940 C   0  0  2  0  0  0  0  0  0  0  0  0
  139.1890   91.4180   69.4960 C   0  0  1  0  0  0  0  0  0  0  0  0
  138.0560   90.6630   70.1930 C   0  0  2  0  0  0  0  0  0  0  0  0
  138.5115   87.6575   68.9746 H   0  0  0  0  0  0  0  0  0  0  0  0
  140.1969   94.3516   72.1521 H   0  0  0  0  0  0  0  0  0  0  0  0
  139.9773   93.7988   68.6852 H   0  0  0  0  0  0  0  0  0  0  0  0
  138.6656   90.8611   67.6484 H   0  0  0  0  0  0  0  0  0  0  0  0
  138.8827   88.8062   74.3159 H   0  0  0  0  0  0  0  0  0  0  0  0
  136.9129   88.9268   70.0182 H   0  0  0  0  0  0  0  0  0  0  0  0
  137.3180   89.5735   68.5744 H   0  0  0  0  0  0  0  0  0  0  0  0
  137.6389   88.5534   72.0707 H   0  0  0  0  0  0  0  0  0  0  0  0
  140.9937   92.2746   71.6260 H   0  0  0  0  0  0  0  0  0  0  0  0
  138.5758   93.1845   70.4065 H   0  0  0  0  0  0  0  0  0  0  0  0
  140.0146   90.8538   69.5024 H   0  0  0  0  0  0  0  0  0  0  0  0
  137.2592   91.2638   70.2573 H   0  0  0  0  0  0  0  0  0  0  0  0
  1  8  1  0  0  0  0
  2 11  1  0  0  0  0
  3 12  1  0  0  0  0
  4 13  1  0  0  0  0
  5  7  1  0  0  0  0
  5 10  2  0  0  0  0
  6  9  1  0  0  0  0
  6 10  1  0  0  0  0
  6 14  1  0  0  0  0
  7  9  2  0  0  0  0
  8 14  1  0  0  0  0
 10 11  1  0  0  0  0
 11 12  1  0  0  0  0
 12 13  1  0  0  0  0
 13 14  1  0  0  0  0
  1 15  1  0  0  0  0
  2 16  1  0  0  0  0
  3 17  1  0  0  0  0
  4 18  1  0  0  0  0
  7 19  1  0  0  0  0
  8 20  1  0  0  0  0
  8 21  1  0  0  0  0
  9 22  1  0  0  0  0
 11 23  1  0  0  0  0
 12 24  1  0  0  0  0
 13 25  1  0  0  0  0
 14 26  1  0  0  0  0
M  END
> <pdb_id>
2CEQ

> <uniprot_id>
P22498

> <usmiles>
O[C@@H]1[C@H](N2C(=NC=C2)[C@H](O)[C@H]1O)CO

$$$$
GJK_A_401
          07202401373D 1   1.00000     0.00000     0
            
 26 26  0  0  0  0            999 V2000
   22.8201  -28.6307   14.8876 O   0  0  0  0  0  0  0  0  0  0  0  0
   22.3360  -37.4161   14.0846 O   0  0  0  0  0  0  0  0  0  0  0  0
   22.1603  -35.8159   16.2821 O   0  0  0  0  0  0  0  0  0  0  0  0
   22.0916  -34.9775   17.4232 C   0  0  0  0  0  0  0  0  0  0  0  0
   23.5154  -29.0604   12.6644 C   0  0  0  0  0  0  0  0  0  0  0  0
   22.7995  -30.9277   14.3475 C   0  0  0  0  0  0  0  0  0  0  0  0
   22.7435  -35.5230   12.6491 C   0  0  0  0  0  0  0  0  0  0  0  0
   23.0057  -31.8239   13.3678 C   0  0  0  0  0  0  0  0  0  0  0  0
   22.9073  -34.1533   12.5033 C   0  0  0  0  0  0  0  0  0  0  0  0
   22.5714  -33.8294   14.8832 C   0  0  0  0  0  0  0  0  0  0  0  0
   23.0191  -29.4671   14.0329 C   0  0  0  0  0  0  0  0  0  0  0  0
   22.4960  -36.0361   13.9210 C   0  0  0  0  0  0  0  0  0  0  0  0
   22.4055  -35.2073   15.0387 C   0  0  0  0  0  0  0  0  0  0  0  0
   22.8159  -33.3143   13.6072 C   0  0  0  0  0  0  0  0  0  0  0  0
   22.1581  -37.7946   14.9930 H   0  0  0  0  0  0  0  0  0  0  0  0
   21.9137  -35.5335   18.2351 H   0  0  0  0  0  0  0  0  0  0  0  0
   22.9597  -34.4937   17.5341 H   0  0  0  0  0  0  0  0  0  0  0  0
   21.3528  -34.3139   17.3052 H   0  0  0  0  0  0  0  0  0  0  0  0
   23.6224  -29.8742   12.0932 H   0  0  0  0  0  0  0  0  0  0  0  0
   22.8549  -28.4404   12.2410 H   0  0  0  0  0  0  0  0  0  0  0  0
   24.3973  -28.5975   12.7537 H   0  0  0  0  0  0  0  0  0  0  0  0
   22.5091  -31.2196   15.2588 H   0  0  0  0  0  0  0  0  0  0  0  0
   22.8017  -36.1305   11.8569 H   0  0  0  0  0  0  0  0  0  0  0  0
   23.2895  -31.5050   12.4635 H   0  0  0  0  0  0  0  0  0  0  0  0
   23.0921  -33.7677   11.5993 H   0  0  0  0  0  0  0  0  0  0  0  0
   22.5161  -33.2197   15.6739 H   0  0  0  0  0  0  0  0  0  0  0  0
  1 11  2  0  0  0  0
  2 12  1  0  0  0  0
  3  4  1  0  0  0  0
  3 13  1  0  0  0  0
  5 11  1  0  0  0  0
  6  8  2  0  0  0  0
  6 11  1  0  0  0  0
  7  9  1  0  0  0  0
  7 12  2  0  0  0  0
  8 14  1  0  0  0  0
  9 14  2  0  0  0  0
 10 13  2  0  0  0  0
 10 14  1  0  0  0  0
 12 13  1  0  0  0  0
  2 15  1  0  0  0  0
  4 16  1  0  0  0  0
  4 17  1  0  0  0  0
  4 18  1  0  0  0  0
  5 19  1  0  0  0  0
  5 20  1  0  0  0  0
  5 21  1  0  0  0  0
  6 22  1  0  0  0  0
  7 23  1  0  0  0  0
  8 24  1  0  0  0  0
  9 25  1  0  0  0  0
 10 26  1  0  0  0  0
M  END
> <pdb_id>
6HOR

> <uniprot_id>
P68400

> <usmiles>
O=C(/C=C/c1cc(OC)c(O)cc1)C

$$$$
GJW_A_351
          07202406393D 1   1.00000     0.00000     0
            
 37 40  0  0  0  0            999 V2000
    9.2952   -1.1607   -4.3729 O   0  0  0  0  0  0  0  0  0  0  0  0
   10.6457   -2.9345   -4.8848 N   0  0  0  0  0  0  0  0  0  0  0  0
   14.6811   -6.2968   -6.2004 N   0  0  0  0  0  0  0  0  0  0  0  0
    8.9129   -3.6906   -6.8530 N   0  0  0  0  0  0  0  0  0  0  0  0
   15.7893   -6.9740   -5.4956 C   0  0  0  0  0  0  0  0  0  0  0  0
   14.8995   -6.3470   -7.6623 C   0  0  0  0  0  0  0  0  0  0  0  0
    7.9308   -3.8859   -7.7820 C   0  0  0  0  0  0  0  0  0  0  0  0
   16.9597   -6.8502   -6.4344 C   0  0  0  0  0  0  0  0  0  0  0  0
   16.3978   -6.4955   -7.7931 C   0  0  0  0  0  0  0  0  0  0  0  0
    7.0331   -2.8498   -7.6472 C   0  0  0  0  0  0  0  0  0  0  0  0
   13.3856   -6.8616   -5.7912 C   0  0  0  0  0  0  0  0  0  0  0  0
    7.4984   -2.0274   -6.5901 C   0  0  0  0  0  0  0  0  0  0  0  0
   11.3470   -6.3747   -7.1073 C   0  0  0  0  0  0  0  0  0  0  0  0
   10.2373   -5.6124   -7.3841 C   0  0  0  0  0  0  0  0  0  0  0  0
   11.9878   -4.8632   -5.3653 C   0  0  0  0  0  0  0  0  0  0  0  0
    9.5231   -2.1482   -5.0537 C   0  0  0  0  0  0  0  0  0  0  0  0
   10.8838   -4.0905   -5.6377 C   0  0  0  0  0  0  0  0  0  0  0  0
   12.2130   -6.0046   -6.1010 C   0  0  0  0  0  0  0  0  0  0  0  0
    8.6665   -2.5793   -6.1079 C   0  0  0  0  0  0  0  0  0  0  0  0
   10.0224   -4.4832   -6.6316 C   0  0  0  0  0  0  0  0  0  0  0  0
   11.3179   -2.6664   -4.1947 H   0  0  0  0  0  0  0  0  0  0  0  0
   15.5686   -7.9352   -5.3299 H   0  0  0  0  0  0  0  0  0  0  0  0
   15.9842   -6.5219   -4.6253 H   0  0  0  0  0  0  0  0  0  0  0  0
   14.5848   -5.5044   -8.0994 H   0  0  0  0  0  0  0  0  0  0  0  0
   14.4265   -7.1294   -8.0673 H   0  0  0  0  0  0  0  0  0  0  0  0
    7.8742   -4.6394   -8.4369 H   0  0  0  0  0  0  0  0  0  0  0  0
   17.4549   -7.7176   -6.4829 H   0  0  0  0  0  0  0  0  0  0  0  0
   17.5783   -6.1303   -6.1195 H   0  0  0  0  0  0  0  0  0  0  0  0
   16.7966   -5.6349   -8.1100 H   0  0  0  0  0  0  0  0  0  0  0  0
   16.6098   -7.2218   -8.4470 H   0  0  0  0  0  0  0  0  0  0  0  0
    6.2077   -2.7048   -8.1927 H   0  0  0  0  0  0  0  0  0  0  0  0
   13.4092   -7.0128   -4.8029 H   0  0  0  0  0  0  0  0  0  0  0  0
   13.2649   -7.7369   -6.2594 H   0  0  0  0  0  0  0  0  0  0  0  0
    7.0578   -1.1951   -6.2540 H   0  0  0  0  0  0  0  0  0  0  0  0
   11.5270   -7.2023   -7.6389 H   0  0  0  0  0  0  0  0  0  0  0  0
    9.6040   -5.8724   -8.1130 H   0  0  0  0  0  0  0  0  0  0  0  0
   12.6218   -4.5984   -4.6387 H   0  0  0  0  0  0  0  0  0  0  0  0
  1 16  2  0  0  0  0
  2 16  1  0  0  0  0
  2 17  1  0  0  0  0
  3  5  1  0  0  0  0
  3  6  1  0  0  0  0
  3 11  1  0  0  0  0
  4  7  1  0  0  0  0
  4 19  1  0  0  0  0
  4 20  1  0  0  0  0
  5  8  1  0  0  0  0
  6  9  1  0  0  0  0
  7 10  2  0  0  0  0
  8  9  1  0  0  0  0
 10 12  1  0  0  0  0
 11 18  1  0  0  0  0
 12 19  2  0  0  0  0
 13 14  1  0  0  0  0
 13 18  2  0  0  0  0
 14 20  2  0  0  0  0
 15 17  2  0  0  0  0
 15 18  1  0  0  0  0
 16 19  1  0  0  0  0
 17 20  1  0  0  0  0
  2 21  1  0  0  0  0
  5 22  1  0  0  0  0
  5 23  1  0  0  0  0
  6 24  1  0  0  0  0
  6 25  1  0  0  0  0
  7 26  1  0  0  0  0
  8 27  1  0  0  0  0
  8 28  1  0  0  0  0
  9 29  1  0  0  0  0
  9 30  1  0  0  0  0
 10 31  1  0  0  0  0
 11 32  1  0  0  0  0
 11 33  1  0  0  0  0
 12 34  1  0  0  0  0
 13 35  1  0  0  0  0
 14 36  1  0  0  0  0
 15 37  1  0  0  0  0
M  END
> <pdb_id>
3GJW

> <uniprot_id>
P09874

> <usmiles>
O=C1Nc2c(N3C1=CC=C3)ccc(c2)CN4CCCC4

$$$$
GLN_A_301
          07192416273D 1   1.00000     0.00000     0
            
 19 18  0  0  0  0            999 V2000
    3.2814  -24.1063   12.8886 N   0  0  0  0  0  0  0  0  0  0  0  0
    3.8277  -23.5162   11.6123 C   0  0  2  0  0  0  0  0  0  0  0  0
    5.1993  -22.8508   11.8799 C   0  0  0  0  0  0  0  0  0  0  0  0
    5.7811  -22.5410   10.8467 O   0  0  0  0  0  0  0  0  0  0  0  0
    2.7700  -22.5705   11.0091 C   0  0  0  0  0  0  0  0  0  0  0  0
    2.6307  -21.2509   11.7773 C   0  0  0  0  0  0  0  0  0  0  0  0
    1.7517  -20.2380   11.1306 C   0  0  0  0  0  0  0  0  0  0  0  0
    1.6210  -20.2500    9.9125 O   0  0  0  0  0  0  0  0  0  0  0  0
    1.2469  -19.2893   11.9152 N   0  0  0  0  0  0  0  0  0  0  0  0
    5.5211  -22.6330   13.0490 O   0  5  0  0  0  0  0  0  0  0  0  0
    3.9603  -24.7219   13.2886 H   0  0  0  0  0  0  0  0  0  0  0  0
    3.0764  -23.3711   13.5348 H   0  0  0  0  0  0  0  0  0  0  0  0
    3.9721  -24.2656   10.9661 H   0  0  0  0  0  0  0  0  0  0  0  0
    1.8856  -23.0372   11.0161 H   0  0  0  0  0  0  0  0  0  0  0  0
    3.0300  -22.3632   10.0660 H   0  0  0  0  0  0  0  0  0  0  0  0
    3.5423  -20.8523   11.8777 H   0  0  0  0  0  0  0  0  0  0  0  0
    2.2552  -21.4560   12.6812 H   0  0  0  0  0  0  0  0  0  0  0  0
    1.3861  -19.3323   12.9046 H   0  0  0  0  0  0  0  0  0  0  0  0
    0.7284  -18.5334   11.5156 H   0  0  0  0  0  0  0  0  0  0  0  0
  1  2  1  0  0  0  0
  2  5  1  0  0  0  0
  2  3  1  0  0  0  0
  5  6  1  0  0  0  0
  6  7  1  0  0  0  0
  7  8  2  0  0  0  0
  7  9  1  0  0  0  0
  3  4  2  0  0  0  0
  3 10  1  0  0  0  0
  1 11  1  0  0  0  0
  1 12  1  0  0  0  0
  2 13  1  0  0  0  0
  5 14  1  0  0  0  0
  5 15  1  0  0  0  0
  6 16  1  0  0  0  0
  6 17  1  0  0  0  0
  9 18  1  0  0  0  0
  9 19  1  0  0  0  0
M  CHG  1  10  -1
M  END
> <pdb_id>
4ZV2

> <uniprot_id>
nan

> <usmiles>
[O-]C(=O)[C@@H](N)CCC(=O)N

$$$$
GLS_A_998
          07202400133D 1   1.00000     0.00000     0
            
 29 30  0  0  0  0            999 V2000
   33.5668   18.7492   27.3490 O   0  0  0  0  0  0  0  0  0  0  0  0
   36.0721   24.5585   30.0315 O   0  0  0  0  0  0  0  0  0  0  0  0
   31.8989   23.8336   28.6625 O   0  0  0  0  0  0  0  0  0  0  0  0
   31.5330   20.5635   25.3300 O   0  0  0  0  0  0  0  0  0  0  0  0
   32.9383   22.7307   24.1877 O   0  0  0  0  0  0  0  0  0  0  0  0
   33.9078   24.6714   26.0974 O   0  0  0  0  0  0  0  0  0  0  0  0
   33.7766   21.5260   28.0890 O   0  0  0  0  0  0  0  0  0  0  0  0
   33.8617   24.4558   29.6069 N   0  0  0  0  0  0  0  0  0  0  0  0
   35.3039   23.2674   28.3211 N   0  0  0  0  0  0  0  0  0  0  0  0
   32.4975   19.5062   27.9267 C   0  0  0  0  0  0  0  0  0  0  0  0
   35.1182   24.1077   29.3449 C   0  0  0  0  0  0  0  0  0  0  0  0
   33.1166   23.7543   28.6813 C   0  0  0  0  0  0  0  0  0  0  0  0
   32.6363   20.9454   27.4672 C   0  0  2  0  0  0  0  0  0  0  0  0
   32.6508   21.1738   25.9588 C   0  0  2  0  0  0  0  0  0  0  0  0
   32.6845   22.6446   25.5748 C   0  0  1  0  0  0  0  0  0  0  0  0
   33.9696   23.2538   26.2215 C   0  0  2  0  0  0  0  0  0  0  0  0
   34.0100   22.9165   27.7581 C   0  0  2  0  0  0  0  0  0  0  0  0
   33.4946   17.7950   27.6395 H   0  0  0  0  0  0  0  0  0  0  0  0
   31.5720   20.7312   24.3450 H   0  0  0  0  0  0  0  0  0  0  0  0
   32.9648   23.6918   23.9127 H   0  0  0  0  0  0  0  0  0  0  0  0
   34.7245   25.0778   26.5071 H   0  0  0  0  0  0  0  0  0  0  0  0
   33.5323   25.0826   30.3131 H   0  0  0  0  0  0  0  0  0  0  0  0
   36.1889   22.9344   27.9958 H   0  0  0  0  0  0  0  0  0  0  0  0
   32.5516   19.4623   28.9243 H   0  0  0  0  0  0  0  0  0  0  0  0
   31.6188   19.1370   27.6239 H   0  0  0  0  0  0  0  0  0  0  0  0
   31.8394   21.4349   27.8211 H   0  0  0  0  0  0  0  0  0  0  0  0
   33.4772   20.7448   25.5939 H   0  0  0  0  0  0  0  0  0  0  0  0
   31.8527   23.1303   25.8434 H   0  0  0  0  0  0  0  0  0  0  0  0
   34.7875   22.9010   25.7671 H   0  0  0  0  0  0  0  0  0  0  0  0
  1 10  1  0  0  0  0
  2 11  2  0  0  0  0
  3 12  2  0  0  0  0
  4 14  1  0  0  0  0
  5 15  1  0  0  0  0
  6 16  1  0  0  0  0
  7 13  1  0  0  0  0
  7 17  1  0  0  0  0
  8 11  1  0  0  0  0
  8 12  1  0  0  0  0
  9 11  1  0  0  0  0
  9 17  1  0  0  0  0
 10 13  1  0  0  0  0
 12 17  1  0  0  0  0
 13 14  1  0  0  0  0
 14 15  1  0  0  0  0
 15 16  1  0  0  0  0
 16 17  1  0  0  0  0
  1 18  1  0  0  0  0
  4 19  1  0  0  0  0
  5 20  1  0  0  0  0
  6 21  1  0  0  0  0
  8 22  1  0  0  0  0
  9 23  1  0  0  0  0
 10 24  1  0  0  0  0
 10 25  1  0  0  0  0
 13 26  1  0  0  0  0
 14 27  1  0  0  0  0
 15 28  1  0  0  0  0
 16 29  1  0  0  0  0
M  END
> <pdb_id>
1A8I

> <uniprot_id>
P00489

> <usmiles>
O=C1NC(=O)[C@]2(O[C@@H]([C@@H](O)[C@H](O)[C@H]2O)CO)N1

$$$$
GLU_A_1001
          07192418213D 1   1.00000     0.00000     0
            
 17 16  0  0  0  0            999 V2000
   15.8290   24.1380   38.9810 N   0  0  0  0  0  0  0  0  0  0  0  0
   15.9350   25.1370   37.8670 C   0  0  2  0  0  0  0  0  0  0  0  0
   14.7680   26.1190   37.8810 C   0  0  0  0  0  0  0  0  0  0  0  0
   14.7400   27.0040   37.0020 O   0  0  0  0  0  0  0  0  0  0  0  0
   15.9890   24.4160   36.5130 C   0  0  0  0  0  0  0  0  0  0  0  0
   17.3860   23.9070   36.0960 C   0  0  0  0  0  0  0  0  0  0  0  0
   18.4170   25.0200   35.8650 C   0  0  0  0  0  0  0  0  0  0  0  0
   19.5470   24.9040   36.3950 O   0  0  0  0  0  0  0  0  0  0  0  0
   18.1110   26.0040   35.1500 O   0  5  0  0  0  0  0  0  0  0  0  0
   13.8990   25.9880   38.7700 O   0  5  0  0  0  0  0  0  0  0  0  0
   15.7946   24.6184   39.8574 H   0  0  0  0  0  0  0  0  0  0  0  0
   14.9965   23.5963   38.8649 H   0  0  0  0  0  0  0  0  0  0  0  0
   16.7836   25.6528   37.9846 H   0  0  0  0  0  0  0  0  0  0  0  0
   15.6688   25.0518   35.8107 H   0  0  0  0  0  0  0  0  0  0  0  0
   15.3731   23.6294   36.5563 H   0  0  0  0  0  0  0  0  0  0  0  0
   17.2900   23.3871   35.2472 H   0  0  0  0  0  0  0  0  0  0  0  0
   17.7294   23.3062   36.8179 H   0  0  0  0  0  0  0  0  0  0  0  0
  1  2  1  0  0  0  0
  2  5  1  0  0  0  0
  2  3  1  0  0  0  0
  5  6  1  0  0  0  0
  6  7  1  0  0  0  0
  7  8  2  0  0  0  0
  7  9  1  0  0  0  0
  3  4  2  0  0  0  0
  3 10  1  0  0  0  0
  1 11  1  0  0  0  0
  1 12  1  0  0  0  0
  2 13  1  0  0  0  0
  5 14  1  0  0  0  0
  5 15  1  0  0  0  0
  6 16  1  0  0  0  0
  6 17  1  0  0  0  0
M  CHG  2   9  -1  10  -1
M  END
> <pdb_id>
2A5S

> <uniprot_id>
Q00959

> <usmiles>
[O-]C(=O)[C@@H](N)CCC([O-])=O

$$$$
GLU_A_1
          07202412473D 1   1.00000     0.00000     0
            
 17 16  0  0  0  0            999 V2000
   18.4945   43.9316   18.2827 N   0  0  0  0  0  0  0  0  0  0  0  0
   18.0486   42.5700   18.8566 C   0  0  2  0  0  0  0  0  0  0  0  0
   19.0964   41.5381   18.6421 C   0  0  0  0  0  0  0  0  0  0  0  0
   19.0674   40.4938   19.3019 O   0  0  0  0  0  0  0  0  0  0  0  0
   16.7200   42.1199   18.2876 C   0  0  0  0  0  0  0  0  0  0  0  0
   16.8011   42.0579   16.7569 C   0  0  0  0  0  0  0  0  0  0  0  0
   15.6219   41.3768   16.0682 C   0  0  0  0  0  0  0  0  0  0  0  0
   14.8932   40.6364   16.7458 O   0  0  0  0  0  0  0  0  0  0  0  0
   15.4418   41.6066   14.8276 O   0  5  0  0  0  0  0  0  0  0  0  0
   19.9268   41.7509   17.6870 O   0  5  0  0  0  0  0  0  0  0  0  0
   19.3733   44.1906   18.6835 H   0  0  0  0  0  0  0  0  0  0  0  0
   18.5892   43.8599   17.2897 H   0  0  0  0  0  0  0  0  0  0  0  0
   17.9322   42.6818   19.8435 H   0  0  0  0  0  0  0  0  0  0  0  0
   16.0077   42.7686   18.5558 H   0  0  0  0  0  0  0  0  0  0  0  0
   16.4966   41.2130   18.6447 H   0  0  0  0  0  0  0  0  0  0  0  0
   17.6323   41.5589   16.5115 H   0  0  0  0  0  0  0  0  0  0  0  0
   16.8609   42.9948   16.4125 H   0  0  0  0  0  0  0  0  0  0  0  0
  1  2  1  0  0  0  0
  2  5  1  0  0  0  0
  2  3  1  0  0  0  0
  5  6  1  0  0  0  0
  6  7  1  0  0  0  0
  7  8  2  0  0  0  0
  7  9  1  0  0  0  0
  3  4  2  0  0  0  0
  3 10  1  0  0  0  0
  1 11  1  0  0  0  0
  1 12  1  0  0  0  0
  2 13  1  0  0  0  0
  5 14  1  0  0  0  0
  5 15  1  0  0  0  0
  6 16  1  0  0  0  0
  6 17  1  0  0  0  0
M  CHG  2   9  -1  10  -1
M  END
> <pdb_id>
3FF3

> <uniprot_id>
Q9Y3Q0

> <usmiles>
[O-]C(=O)[C@@H](N)CCC([O-])=O

$$$$
GLU_A_258
          07212403073D 1   1.00000     0.00000     0
            
 18 17  0  0  0  0            999 V2000
  -44.5020  -21.1819  -16.7948 N   0  3  0  0  0  0  0  0  0  0  0  0
  -44.0338  -21.3953  -18.1904 C   0  0  2  0  0  0  0  0  0  0  0  0
  -42.8313  -20.5268  -18.5257 C   0  0  0  0  0  0  0  0  0  0  0  0
  -42.2584  -19.8921  -17.6479 O   0  0  0  0  0  0  0  0  0  0  0  0
  -45.1769  -21.1011  -19.1599 C   0  0  0  0  0  0  0  0  0  0  0  0
  -46.1954  -22.2356  -19.2386 C   0  0  0  0  0  0  0  0  0  0  0  0
  -45.6515  -23.4456  -19.9694 C   0  0  0  0  0  0  0  0  0  0  0  0
  -44.6948  -23.2725  -20.7535 O   0  0  0  0  0  0  0  0  0  0  0  0
  -46.1861  -24.5640  -19.7743 O   0  5  0  0  0  0  0  0  0  0  0  0
  -42.4098  -20.4379  -19.6796 O   0  5  0  0  0  0  0  0  0  0  0  0
  -43.8259  -21.4814  -16.1811 H   0  0  0  0  0  0  0  0  0  0  0  0
  -44.6705  -20.2475  -16.6535 H   0  0  0  0  0  0  0  0  0  0  0  0
  -45.3103  -21.6790  -16.6477 H   0  0  0  0  0  0  0  0  0  0  0  0
  -43.7732  -22.3341  -18.3009 H   0  0  0  0  0  0  0  0  0  0  0  0
  -45.6421  -20.3015  -18.8672 H   0  0  0  0  0  0  0  0  0  0  0  0
  -44.8111  -20.9659  -20.0476 H   0  0  0  0  0  0  0  0  0  0  0  0
  -46.4373  -22.5087  -18.3396 H   0  0  0  0  0  0  0  0  0  0  0  0
  -46.9820  -21.9247  -19.7150 H   0  0  0  0  0  0  0  0  0  0  0  0
  1  2  1  0  0  0  0
  2  5  1  0  0  0  0
  2  3  1  0  0  0  0
  5  6  1  0  0  0  0
  6  7  1  0  0  0  0
  7  8  2  0  0  0  0
  7  9  1  0  0  0  0
  3  4  2  0  0  0  0
  3 10  1  0  0  0  0
  1 11  1  0  0  0  0
  1 12  1  0  0  0  0
  1 13  1  0  0  0  0
  2 14  1  0  0  0  0
  5 15  1  0  0  0  0
  5 16  1  0  0  0  0
  6 17  1  0  0  0  0
  6 18  1  0  0  0  0
M  CHG  3   1   1   9  -1  10  -1
M  END
> <pdb_id>
3U93

> <uniprot_id>
P42264

> <usmiles>
[O-]C(=O)[C@@H]([NH3+])CCC([O-])=O

$$$$
GLU_A_303
          07202406473D 1   1.00000     0.00000     0
            
 17 16  0  0  0  0            999 V2000
    6.8557   29.3351   10.9755 N   0  0  0  0  0  0  0  0  0  0  0  0
    6.7951   27.8805   11.1451 C   0  0  2  0  0  0  0  0  0  0  0  0
    5.3694   27.3826   10.9224 C   0  0  0  0  0  0  0  0  0  0  0  0
    4.4297   28.2188   10.8954 O   0  0  0  0  0  0  0  0  0  0  0  0
    7.2747   27.4289   12.5277 C   0  0  0  0  0  0  0  0  0  0  0  0
    8.6976   27.8432   12.9197 C   0  0  0  0  0  0  0  0  0  0  0  0
    9.8236   27.1485   12.1547 C   0  0  0  0  0  0  0  0  0  0  0  0
    9.5360   26.2273   11.3928 O   0  0  0  0  0  0  0  0  0  0  0  0
   11.0107   27.4949   12.3931 O   0  5  0  0  0  0  0  0  0  0  0  0
    5.1826   26.1542   10.7582 O   0  5  0  0  0  0  0  0  0  0  0  0
    7.3701   27.4585   10.4736 H   0  0  0  0  0  0  0  0  0  0  0  0
    6.6735   27.7975   13.1943 H   0  0  0  0  0  0  0  0  0  0  0  0
    7.2370   26.4609   12.5612 H   0  0  0  0  0  0  0  0  0  0  0  0
    8.7907   28.7965   12.7701 H   0  0  0  0  0  0  0  0  0  0  0  0
    8.8241   27.6492   13.8613 H   0  0  0  0  0  0  0  0  0  0  0  0
    6.5335   29.5776   10.0604 H   0  0  0  0  0  0  0  0  0  0  0  0
    6.2753   29.7751   11.6607 H   0  0  0  0  0  0  0  0  0  0  0  0
  1  2  1  0  0  0  0
  2  5  1  0  0  0  0
  2  3  1  0  0  0  0
  5  6  1  0  0  0  0
  6  7  1  0  0  0  0
  7  8  2  0  0  0  0
  7  9  1  0  0  0  0
  3  4  2  0  0  0  0
  3 10  1  0  0  0  0
  2 11  1  0  0  0  0
  5 12  1  0  0  0  0
  5 13  1  0  0  0  0
  6 14  1  0  0  0  0
  6 15  1  0  0  0  0
  1 16  1  0  0  0  0
  1 17  1  0  0  0  0
M  CHG  2   9  -1  10  -1
M  END
> <pdb_id>
4IO2

> <uniprot_id>
E9P5T5

> <usmiles>
[O-]C(=O)[C@@H](N)CCC([O-])=O

$$$$
GLU_A_999
          07202401353D 1   1.00000     0.00000     0
            
 17 16  0  0  0  0            999 V2000
    5.3640   15.1657    6.9791 N   0  0  0  0  0  0  0  0  0  0  0  0
    6.7237   15.0175    6.3739 C   0  0  2  0  0  0  0  0  0  0  0  0
    7.6246   16.1689    6.8135 C   0  0  0  0  0  0  0  0  0  0  0  0
    7.2659   16.8536    7.8047 O   0  0  0  0  0  0  0  0  0  0  0  0
    6.6207   14.9872    4.8422 C   0  0  0  0  0  0  0  0  0  0  0  0
    6.1860   13.6428    4.2497 C   0  0  0  0  0  0  0  0  0  0  0  0
    7.2208   12.5433    4.4588 C   0  0  0  0  0  0  0  0  0  0  0  0
    8.4196   12.8762    4.5714 O   0  0  0  0  0  0  0  0  0  0  0  0
    6.8390   11.3529    4.4906 O   0  5  0  0  0  0  0  0  0  0  0  0
    8.6751   16.3755    6.1681 O   0  5  0  0  0  0  0  0  0  0  0  0
    5.4429   15.1842    7.9758 H   0  0  0  0  0  0  0  0  0  0  0  0
    4.9490   16.0183    6.6616 H   0  0  0  0  0  0  0  0  0  0  0  0
    7.1244   14.1565    6.6874 H   0  0  0  0  0  0  0  0  0  0  0  0
    7.5185   15.2163    4.4661 H   0  0  0  0  0  0  0  0  0  0  0  0
    5.9555   15.6794    4.5621 H   0  0  0  0  0  0  0  0  0  0  0  0
    6.0376   13.7594    3.2676 H   0  0  0  0  0  0  0  0  0  0  0  0
    5.3303   13.3633    4.6852 H   0  0  0  0  0  0  0  0  0  0  0  0
  1  2  1  0  0  0  0
  2  5  1  0  0  0  0
  2  3  1  0  0  0  0
  5  6  1  0  0  0  0
  6  7  1  0  0  0  0
  7  8  2  0  0  0  0
  7  9  1  0  0  0  0
  3  4  2  0  0  0  0
  3 10  1  0  0  0  0
  1 11  1  0  0  0  0
  1 12  1  0  0  0  0
  2 13  1  0  0  0  0
  5 14  1  0  0  0  0
  5 15  1  0  0  0  0
  6 16  1  0  0  0  0
  6 17  1  0  0  0  0
M  CHG  2   9  -1  10  -1
M  END
> <pdb_id>
1S50

> <uniprot_id>
P42260

> <usmiles>
[O-]C(=O)[C@@H](N)CCC([O-])=O

$$$$
GLU_B_303
          07202406473D 1   1.00000     0.00000     0
            
 18 17  0  0  0  0            999 V2000
    6.8943   29.3333   10.9163 N   0  3  0  0  0  0  0  0  0  0  0  0
    6.8039   27.8694   11.0623 C   0  0  2  0  0  0  0  0  0  0  0  0
    5.3917   27.3870   10.8323 C   0  0  0  0  0  0  0  0  0  0  0  0
    4.4663   28.2394   10.8487 O   0  0  0  0  0  0  0  0  0  0  0  0
    7.2464   27.4427   12.4537 C   0  0  0  0  0  0  0  0  0  0  0  0
    8.7097   27.8299   12.8478 C   0  0  0  0  0  0  0  0  0  0  0  0
    9.8277   27.0442   12.1193 C   0  0  0  0  0  0  0  0  0  0  0  0
    9.5249   26.0779   11.3823 O   0  0  0  0  0  0  0  0  0  0  0  0
   11.0176   27.4189   12.2895 O   0  5  0  0  0  0  0  0  0  0  0  0
    5.1930   26.1707   10.6589 O   0  5  0  0  0  0  0  0  0  0  0  0
    7.8136   29.5875   10.8083 H   0  0  0  0  0  0  0  0  0  0  0  0
    6.3921   29.6099   10.1461 H   0  0  0  0  0  0  0  0  0  0  0  0
    6.5352   29.7553   11.7010 H   0  0  0  0  0  0  0  0  0  0  0  0
    7.3900   27.4396   10.4045 H   0  0  0  0  0  0  0  0  0  0  0  0
    6.6526   27.8520   13.1032 H   0  0  0  0  0  0  0  0  0  0  0  0
    7.1753   26.4776   12.5156 H   0  0  0  0  0  0  0  0  0  0  0  0
    8.8403   28.7704   12.6522 H   0  0  0  0  0  0  0  0  0  0  0  0
    8.8205   27.6789   13.7991 H   0  0  0  0  0  0  0  0  0  0  0  0
  1  2  1  0  0  0  0
  2  5  1  0  0  0  0
  2  3  1  0  0  0  0
  5  6  1  0  0  0  0
  6  7  1  0  0  0  0
  7  8  2  0  0  0  0
  7  9  1  0  0  0  0
  3  4  2  0  0  0  0
  3 10  1  0  0  0  0
  1 11  1  0  0  0  0
  1 12  1  0  0  0  0
  1 13  1  0  0  0  0
  2 14  1  0  0  0  0
  5 15  1  0  0  0  0
  5 16  1  0  0  0  0
  6 17  1  0  0  0  0
  6 18  1  0  0  0  0
M  CHG  3   1   1   9  -1  10  -1
M  END
> <pdb_id>
4IO2

> <uniprot_id>
E9P5T5

> <usmiles>
[O-]C(=O)[C@@H]([NH3+])CCC([O-])=O

$$$$
GN6_A_201
          07192416543D 1   1.00000     0.00000     0
            
 26 28  0  0  0  0            999 V2000
   10.9027   22.1458    5.3342 Cl  0  0  0  0  0  0  0  0  0  0  0  0
   13.9468   22.8517    5.2927 Cl  0  0  0  0  0  0  0  0  0  0  0  0
   17.4256   19.5002    6.1495 N   0  0  0  0  0  0  0  0  0  0  0  0
   15.9856   20.6231    4.5866 N   0  0  0  0  0  0  0  0  0  0  0  0
   18.2351   21.0224    4.5587 N   0  0  0  0  0  0  0  0  0  0  0  0
   16.2944   21.5174    3.6085 N   0  0  0  0  0  0  0  0  0  0  0  0
   12.0158   20.9260    1.6879 C   0  0  0  0  0  0  0  0  0  0  0  0
   17.3495   23.2831    1.7859 C   0  0  0  0  0  0  0  0  0  0  0  0
   11.2434   21.2060    2.8193 C   0  0  0  0  0  0  0  0  0  0  0  0
   18.1877   22.6692    2.6517 C   0  0  0  0  0  0  0  0  0  0  0  0
   15.9189   23.0163    1.8092 C   0  0  0  0  0  0  0  0  0  0  0  0
   13.3795   21.2328    1.6549 C   0  0  0  0  0  0  0  0  0  0  0  0
   17.1837   20.3521    5.1314 C   0  0  0  0  0  0  0  0  0  0  0  0
   11.8475   21.7997    3.9247 C   0  0  0  0  0  0  0  0  0  0  0  0
   13.2141   22.1124    3.9018 C   0  0  0  0  0  0  0  0  0  0  0  0
   17.6700   21.7528    3.6136 C   0  0  0  0  0  0  0  0  0  0  0  0
   15.4213   22.1466    2.7128 C   0  0  0  0  0  0  0  0  0  0  0  0
   13.9856   21.8334    2.7724 C   0  0  0  0  0  0  0  0  0  0  0  0
   18.3599   19.3704    6.4815 H   0  0  0  0  0  0  0  0  0  0  0  0
   16.6706   18.9988    6.5720 H   0  0  0  0  0  0  0  0  0  0  0  0
   11.5869   20.5003    0.8912 H   0  0  0  0  0  0  0  0  0  0  0  0
   17.7185   23.9306    1.1191 H   0  0  0  0  0  0  0  0  0  0  0  0
   10.2687   20.9826    2.8344 H   0  0  0  0  0  0  0  0  0  0  0  0
   19.1692   22.8578    2.6173 H   0  0  0  0  0  0  0  0  0  0  0  0
   15.3099   23.4736    1.1610 H   0  0  0  0  0  0  0  0  0  0  0  0
   13.9212   21.0260    0.8402 H   0  0  0  0  0  0  0  0  0  0  0  0
  1 14  1  0  0  0  0
  2 15  1  0  0  0  0
  3 13  1  0  0  0  0
  4  6  1  0  0  0  0
  4 13  2  0  0  0  0
  5 13  1  0  0  0  0
  5 16  2  0  0  0  0
  6 16  1  0  0  0  0
  6 17  1  0  0  0  0
  7  9  2  0  0  0  0
  7 12  1  0  0  0  0
  8 10  2  0  0  0  0
  8 11  1  0  0  0  0
  9 14  1  0  0  0  0
 10 16  1  0  0  0  0
 11 17  2  0  0  0  0
 12 18  2  0  0  0  0
 14 15  2  0  0  0  0
 15 18  1  0  0  0  0
 17 18  1  0  0  0  0
  3 19  1  0  0  0  0
  3 20  1  0  0  0  0
  7 21  1  0  0  0  0
  8 22  1  0  0  0  0
  9 23  1  0  0  0  0
 10 24  1  0  0  0  0
 11 25  1  0  0  0  0
 12 26  1  0  0  0  0
M  END
> <pdb_id>
6US4

> <uniprot_id>
P36639

> <usmiles>
Clc1c(Cl)cccc1C=2N3N=C(N=C3C=CC2)N

$$$$
GNL_A_2000
          07202402303D 1   1.00000     0.00000     0
            
 29 30  0  0  0  0            999 V2000
   34.0516   20.2267  -15.9141 S   0  0  0  0  0  0  0  0  0  0  0  0
   35.2359   18.1417  -12.0177 O   0  0  0  0  0  0  0  0  0  0  0  0
   36.3222   15.8762  -15.5436 O   0  0  0  0  0  0  0  0  0  0  0  0
   34.4451   15.8459  -17.6829 O   0  0  0  0  0  0  0  0  0  0  0  0
   35.8613   18.5421  -14.8242 O   0  0  0  0  0  0  0  0  0  0  0  0
   34.3401   18.9876  -18.1583 N   0  0  0  0  0  0  0  0  0  0  0  0
   32.5424   20.7272  -18.1891 C   0  0  0  0  0  0  0  0  0  0  0  0
   35.4665   17.0765  -12.9419 C   0  0  0  0  0  0  0  0  0  0  0  0
   33.2320   19.6128  -17.4126 C   0  0  2  0  0  0  0  0  0  0  0  0
   35.5478   19.1716  -16.0763 C   0  0  1  0  0  0  0  0  0  0  0  0
   34.9767   16.3614  -15.3594 C   0  0  2  0  0  0  0  0  0  0  0  0
   34.4138   16.8981  -16.6997 C   0  0  1  0  0  0  0  0  0  0  0  0
   34.9726   17.4954  -14.3240 C   0  0  2  0  0  0  0  0  0  0  0  0
   35.1603   18.1687  -17.2093 C   0  0  1  0  0  0  0  0  0  0  0  0
   35.5582   17.8715  -11.1104 H   0  0  0  0  0  0  0  0  0  0  0  0
   36.6748   15.5327  -14.6732 H   0  0  0  0  0  0  0  0  0  0  0  0
   34.0825   16.1886  -18.5495 H   0  0  0  0  0  0  0  0  0  0  0  0
   34.9114   19.6980  -18.5693 H   0  0  0  0  0  0  0  0  0  0  0  0
   32.1058   20.3452  -19.0036 H   0  0  0  0  0  0  0  0  0  0  0  0
   31.8496   21.1574  -17.6103 H   0  0  0  0  0  0  0  0  0  0  0  0
   33.2190   21.4107  -18.4630 H   0  0  0  0  0  0  0  0  0  0  0  0
   34.9711   16.2610  -12.6427 H   0  0  0  0  0  0  0  0  0  0  0  0
   36.4452   16.8755  -12.9832 H   0  0  0  0  0  0  0  0  0  0  0  0
   32.5610   18.9144  -17.1639 H   0  0  0  0  0  0  0  0  0  0  0  0
   36.3218   19.7307  -16.3736 H   0  0  0  0  0  0  0  0  0  0  0  0
   34.3976   15.6141  -15.0333 H   0  0  0  0  0  0  0  0  0  0  0  0
   33.4568   17.1467  -16.5502 H   0  0  0  0  0  0  0  0  0  0  0  0
   34.0460   17.8627  -14.2436 H   0  0  0  0  0  0  0  0  0  0  0  0
   35.9953   17.8803  -17.6780 H   0  0  0  0  0  0  0  0  0  0  0  0
  1  9  1  0  0  0  0
  1 10  1  0  0  0  0
  2  8  1  0  0  0  0
  3 11  1  0  0  0  0
  4 12  1  0  0  0  0
  5 10  1  0  0  0  0
  5 13  1  0  0  0  0
  6  9  1  0  0  0  0
  6 14  1  0  0  0  0
  7  9  1  0  0  0  0
  8 13  1  0  0  0  0
 10 14  1  0  0  0  0
 11 12  1  0  0  0  0
 11 13  1  0  0  0  0
 12 14  1  0  0  0  0
  2 15  1  0  0  0  0
  3 16  1  0  0  0  0
  4 17  1  0  0  0  0
  6 18  1  0  0  0  0
  7 19  1  0  0  0  0
  7 20  1  0  0  0  0
  7 21  1  0  0  0  0
  8 22  1  0  0  0  0
  8 23  1  0  0  0  0
  9 24  1  0  0  0  0
 10 25  1  0  0  0  0
 11 26  1  0  0  0  0
 12 27  1  0  0  0  0
 13 28  1  0  0  0  0
 14 29  1  0  0  0  0
M  END
> <pdb_id>
3SUS

> <uniprot_id>
D0VX21

> <usmiles>
S1[C@H]2O[C@@H]([C@H](O)[C@H](O)[C@H]2N[C@@H]1C)CO

$$$$
GO0_F_1
          07202404053D 1   1.00000     0.00000     0
            
 25 26  0  0  0  0            999 V2000
    0.6950   77.2340   29.2470 Cl  0  0  0  0  0  0  0  0  0  0  0  0
    6.8750   77.9220   28.7440 Cl  0  0  0  0  0  0  0  0  0  0  0  0
    6.1170   74.9080   26.4870 O   0  0  0  0  0  0  0  0  0  0  0  0
    8.1770   74.4010   27.1450 O   0  0  0  0  0  0  0  0  0  0  0  0
    4.7780   72.2020   29.2930 O   0  0  0  0  0  0  0  0  0  0  0  0
    2.5820   72.4290   29.4500 O   0  0  0  0  0  0  0  0  0  0  0  0
    2.8880   75.0780   29.2560 N   0  0  0  0  0  0  0  0  0  0  0  0
    2.9710   78.7910   29.0710 C   0  0  0  0  0  0  0  0  0  0  0  0
    4.3700   78.9290   28.9580 C   0  0  0  0  0  0  0  0  0  0  0  0
    6.5040   74.6500   28.8830 C   0  0  0  0  0  0  0  0  0  0  0  0
    6.8980   74.6690   27.4030 C   0  0  0  0  0  0  0  0  0  0  0  0
    3.8110   72.9550   29.3200 C   0  0  0  0  0  0  0  0  0  0  0  0
    2.4080   77.4900   29.1490 C   0  0  0  0  0  0  0  0  0  0  0  0
    5.1860   77.7680   28.9250 C   0  0  0  0  0  0  0  0  0  0  0  0
    3.9500   74.2950   29.2080 C   0  0  0  0  0  0  0  0  0  0  0  0
    3.2510   76.3740   29.1460 C   0  0  0  0  0  0  0  0  0  0  0  0
    5.0620   75.0790   29.0360 C   0  0  0  0  0  0  0  0  0  0  0  0
    4.5940   76.5070   29.0260 C   0  0  0  0  0  0  0  0  0  0  0  0
    5.1580   75.1085   26.6871 H   0  0  0  0  0  0  0  0  0  0  0  0
    5.7004   72.5760   29.1968 H   0  0  0  0  0  0  0  0  0  0  0  0
    1.9468   74.7564   29.3593 H   0  0  0  0  0  0  0  0  0  0  0  0
    2.3829   79.5994   29.0959 H   0  0  0  0  0  0  0  0  0  0  0  0
    4.7838   79.8376   28.9016 H   0  0  0  0  0  0  0  0  0  0  0  0
    7.0928   75.2785   29.3912 H   0  0  0  0  0  0  0  0  0  0  0  0
    6.6148   73.7240   29.2440 H   0  0  0  0  0  0  0  0  0  0  0  0
  1 13  1  0  0  0  0
  2 14  1  0  0  0  0
  3 11  1  0  0  0  0
  4 11  2  0  0  0  0
  5 12  1  0  0  0  0
  6 12  2  0  0  0  0
  7 15  1  0  0  0  0
  7 16  1  0  0  0  0
  8  9  2  0  0  0  0
  8 13  1  0  0  0  0
  9 14  1  0  0  0  0
 10 11  1  0  0  0  0
 10 17  1  0  0  0  0
 12 15  1  0  0  0  0
 13 16  2  0  0  0  0
 14 18  2  0  0  0  0
 15 17  2  0  0  0  0
 16 18  1  0  0  0  0
 17 18  1  0  0  0  0
  3 19  1  0  0  0  0
  5 20  1  0  0  0  0
  7 21  1  0  0  0  0
  8 22  1  0  0  0  0
  9 23  1  0  0  0  0
 10 24  1  0  0  0  0
 10 25  1  0  0  0  0
M  END
> <pdb_id>
3N5H

> <uniprot_id>
P14324

> <usmiles>
Clc1c2NC(C(=O)O)=C(c2c(Cl)cc1)CC(=O)O

$$$$
GOK_B_504
          07202410573D 1   1.00000     0.00000     0
            
 55 58  0  0  0  0            999 V2000
   82.5080   36.8540   71.3160 O   0  0  0  0  0  0  0  0  0  0  0  0
   81.7510   34.7120   69.8440 O   0  0  0  0  0  0  0  0  0  0  0  0
   81.9070   35.7090   71.8420 N   0  0  0  0  0  0  0  0  0  0  0  0
   75.2820   27.3490   75.2590 N   0  0  0  0  0  0  0  0  0  0  0  0
   79.4720   32.6910   73.5240 N   0  0  0  0  0  0  0  0  0  0  0  0
   78.4110   32.5790   71.3810 N   0  0  0  0  0  0  0  0  0  0  0  0
   74.7510   23.8860   72.3940 N   0  0  0  0  0  0  0  0  0  0  0  0
   77.3900   31.7460   73.2710 N   0  0  0  0  0  0  0  0  0  0  0  0
   74.3390   23.3680   71.0960 C   0  0  0  0  0  0  0  0  0  0  0  0
   75.2830   28.0580   73.9780 C   0  0  0  0  0  0  0  0  0  0  0  0
   74.4230   26.1680   75.2890 C   0  0  0  0  0  0  0  0  0  0  0  0
   80.4580   33.4080   72.9660 C   0  0  0  0  0  0  0  0  0  0  0  0
   79.4240   33.2940   70.8750 C   0  0  0  0  0  0  0  0  0  0  0  0
   76.1460   31.5110   72.5320 C   0  0  0  0  0  0  0  0  0  0  0  0
   77.3510   31.2750   74.6580 C   0  0  0  0  0  0  0  0  0  0  0  0
   74.1510   24.9160   73.0740 C   0  0  0  0  0  0  0  0  0  0  0  0
   77.6920   22.1430   73.8390 C   0  0  0  0  0  0  0  0  0  0  0  0
   77.7570   22.8790   75.0120 C   0  0  0  0  0  0  0  0  0  0  0  0
   75.7070   30.0550   72.6020 C   0  0  0  0  0  0  0  0  0  0  0  0
   76.9440   29.8040   74.7360 C   0  0  0  0  0  0  0  0  0  0  0  0
   76.7160   22.4070   72.8920 C   0  0  0  0  0  0  0  0  0  0  0  0
   76.8480   23.8980   75.2590 C   0  0  0  0  0  0  0  0  0  0  0  0
   78.4800   32.3250   72.7010 C   0  0  0  0  0  0  0  0  0  0  0  0
   81.4610   34.7510   71.0350 C   0  0  0  0  0  0  0  0  0  0  0  0
   75.8080   23.4260   73.1480 C   0  0  0  0  0  0  0  0  0  0  0  0
   75.6180   29.5410   74.0330 C   0  0  0  0  0  0  0  0  0  0  0  0
   80.4860   33.7780   71.6270 C   0  0  0  0  0  0  0  0  0  0  0  0
   74.7880   25.1400   74.2530 C   0  0  0  0  0  0  0  0  0  0  0  0
   75.8590   24.1850   74.3220 C   0  0  0  0  0  0  0  0  0  0  0  0
   82.7798   37.4609   72.0629 H   0  0  0  0  0  0  0  0  0  0  0  0
   81.8113   35.6086   72.8323 H   0  0  0  0  0  0  0  0  0  0  0  0
   74.9698   27.9819   75.9675 H   0  0  0  0  0  0  0  0  0  0  0  0
   74.9449   22.6188   70.8285 H   0  0  0  0  0  0  0  0  0  0  0  0
   73.3990   23.0318   71.1544 H   0  0  0  0  0  0  0  0  0  0  0  0
   74.3903   24.0978   70.4143 H   0  0  0  0  0  0  0  0  0  0  0  0
   74.3716   27.9655   73.5771 H   0  0  0  0  0  0  0  0  0  0  0  0
   75.9548   27.6150   73.3843 H   0  0  0  0  0  0  0  0  0  0  0  0
   73.4793   26.4579   75.1298 H   0  0  0  0  0  0  0  0  0  0  0  0
   74.4942   25.7466   76.1931 H   0  0  0  0  0  0  0  0  0  0  0  0
   81.2190   33.6936   73.5485 H   0  0  0  0  0  0  0  0  0  0  0  0
   79.4149   33.4915   69.8947 H   0  0  0  0  0  0  0  0  0  0  0  0
   76.2879   31.7597   71.5739 H   0  0  0  0  0  0  0  0  0  0  0  0
   75.4256   32.0845   72.9221 H   0  0  0  0  0  0  0  0  0  0  0  0
   76.6892   31.8233   75.1693 H   0  0  0  0  0  0  0  0  0  0  0  0
   78.2584   31.3835   75.0641 H   0  0  0  0  0  0  0  0  0  0  0  0
   73.3571   25.4292   72.7478 H   0  0  0  0  0  0  0  0  0  0  0  0
   78.3565   21.4140   73.6748 H   0  0  0  0  0  0  0  0  0  0  0  0
   78.4659   22.6736   75.6867 H   0  0  0  0  0  0  0  0  0  0  0  0
   76.3680   29.4963   72.1011 H   0  0  0  0  0  0  0  0  0  0  0  0
   74.8071   29.9704   72.1743 H   0  0  0  0  0  0  0  0  0  0  0  0
   76.8569   29.5436   75.6976 H   0  0  0  0  0  0  0  0  0  0  0  0
   77.6545   29.2490   74.3034 H   0  0  0  0  0  0  0  0  0  0  0  0
   76.6666   21.8771   72.0454 H   0  0  0  0  0  0  0  0  0  0  0  0
   76.9031   24.4245   76.1074 H   0  0  0  0  0  0  0  0  0  0  0  0
   74.8877   30.0267   74.5134 H   0  0  0  0  0  0  0  0  0  0  0  0
  1  3  1  0  0  0  0
  2 24  2  0  0  0  0
  3 24  1  0  0  0  0
  4 10  1  0  0  0  0
  4 11  1  0  0  0  0
  5 12  1  0  0  0  0
  5 23  2  0  0  0  0
  6 13  2  0  0  0  0
  6 23  1  0  0  0  0
  7  9  1  0  0  0  0
  7 16  1  0  0  0  0
  7 25  1  0  0  0  0
  8 14  1  0  0  0  0
  8 15  1  0  0  0  0
  8 23  1  0  0  0  0
 10 26  1  0  0  0  0
 11 28  1  0  0  0  0
 12 27  2  0  0  0  0
 13 27  1  0  0  0  0
 14 19  1  0  0  0  0
 15 20  1  0  0  0  0
 16 28  2  0  0  0  0
 17 18  2  0  0  0  0
 17 21  1  0  0  0  0
 18 22  1  0  0  0  0
 19 26  1  0  0  0  0
 20 26  1  0  0  0  0
 21 25  2  0  0  0  0
 22 29  2  0  0  0  0
 24 27  1  0  0  0  0
 25 29  1  0  0  0  0
 28 29  1  0  0  0  0
  1 30  1  0  0  0  0
  3 31  1  0  0  0  0
  4 32  1  0  0  0  0
  9 33  1  0  0  0  0
  9 34  1  0  0  0  0
  9 35  1  0  0  0  0
 10 36  1  0  0  0  0
 10 37  1  0  0  0  0
 11 38  1  0  0  0  0
 11 39  1  0  0  0  0
 12 40  1  0  0  0  0
 13 41  1  0  0  0  0
 14 42  1  0  0  0  0
 14 43  1  0  0  0  0
 15 44  1  0  0  0  0
 15 45  1  0  0  0  0
 16 46  1  0  0  0  0
 17 47  1  0  0  0  0
 18 48  1  0  0  0  0
 19 49  1  0  0  0  0
 19 50  1  0  0  0  0
 20 51  1  0  0  0  0
 20 52  1  0  0  0  0
 21 53  1  0  0  0  0
 22 54  1  0  0  0  0
 26 55  1  0  0  0  0
M  END
> <pdb_id>
6HSH

> <uniprot_id>
A5H660

> <usmiles>
O=C(NO)c1cnc(nc1)N2CCC(CNCC=3c4c(N(C3)C)cccc4)CC2

$$$$
GOO_A_1049
          07202412393D 1   1.00000     0.00000     0
            
 24 24  0  0  0  0            999 V2000
   33.9346   66.5036    6.9912 O   0  0  0  0  0  0  0  0  0  0  0  0
   31.8555   67.8717    5.7495 O   0  0  0  0  0  0  0  0  0  0  0  0
   33.7869   65.8953    9.5605 O   0  0  0  0  0  0  0  0  0  0  0  0
   29.6473   66.6699    7.6523 O   0  0  0  0  0  0  0  0  0  0  0  0
   31.3517   65.2065    9.7947 N   0  0  0  0  0  0  0  0  0  0  0  0
   29.0998   66.5512    6.3268 C   0  0  0  0  0  0  0  0  0  0  0  0
   33.2168   67.5015    7.7516 C   0  0  1  0  0  0  0  0  0  0  0  0
   31.8228   67.7386    7.1710 C   0  0  2  0  0  0  0  0  0  0  0  0
   32.9153   66.9694    9.1753 C   0  0  1  0  0  0  0  0  0  0  0  0
   31.0753   66.4875    7.6778 C   0  0  1  0  0  0  0  0  0  0  0  0
   31.4345   66.5398    9.1393 C   0  0  1  0  0  0  0  0  0  0  0  0
   34.8410   66.3679    7.3911 H   0  0  0  0  0  0  0  0  0  0  0  0
   30.9283   68.0251    5.4076 H   0  0  0  0  0  0  0  0  0  0  0  0
   33.5515   65.5895   10.4830 H   0  0  0  0  0  0  0  0  0  0  0  0
   30.4025   64.8918    9.7914 H   0  0  0  0  0  0  0  0  0  0  0  0
   31.9211   64.5536    9.2953 H   0  0  0  0  0  0  0  0  0  0  0  0
   28.1095   66.6853    6.3619 H   0  0  0  0  0  0  0  0  0  0  0  0
   29.5092   67.2445    5.7337 H   0  0  0  0  0  0  0  0  0  0  0  0
   29.3003   65.6413    5.9636 H   0  0  0  0  0  0  0  0  0  0  0  0
   33.7342   68.3562    7.7939 H   0  0  0  0  0  0  0  0  0  0  0  0
   31.4224   68.5596    7.5781 H   0  0  0  0  0  0  0  0  0  0  0  0
   33.0183   67.7192    9.8289 H   0  0  0  0  0  0  0  0  0  0  0  0
   31.3719   65.6440    7.2300 H   0  0  0  0  0  0  0  0  0  0  0  0
   30.8626   67.2049    9.6194 H   0  0  0  0  0  0  0  0  0  0  0  0
  1  7  1  0  0  0  0
  2  8  1  0  0  0  0
  3  9  1  0  0  0  0
  4  6  1  0  0  0  0
  4 10  1  0  0  0  0
  5 11  1  0  0  0  0
  7  8  1  0  0  0  0
  7  9  1  0  0  0  0
  8 10  1  0  0  0  0
  9 11  1  0  0  0  0
 10 11  1  0  0  0  0
  1 12  1  0  0  0  0
  2 13  1  0  0  0  0
  3 14  1  0  0  0  0
  5 15  1  0  0  0  0
  5 16  1  0  0  0  0
  6 17  1  0  0  0  0
  6 18  1  0  0  0  0
  6 19  1  0  0  0  0
  7 20  1  0  0  0  0
  8 21  1  0  0  0  0
  9 22  1  0  0  0  0
 10 23  1  0  0  0  0
 11 24  1  0  0  0  0
M  END
> <pdb_id>
3DX4

> <uniprot_id>
Q24451

> <usmiles>
O([C@H]1[C@H](O)[C@H](O)[C@H](O)[C@@H]1N)C

$$$$
GOX_A_1048
          07202412393D 1   1.00000     0.00000     0
            
 25 25  0  0  0  0            999 V2000
   29.9442   67.3948   11.4066 O   0  0  0  0  0  0  0  0  0  0  0  0
   27.8237   67.3469    7.2688 O   0  0  0  0  0  0  0  0  0  0  0  0
   33.3880   65.8485    9.6196 O   0  0  0  0  0  0  0  0  0  0  0  0
   33.8235   66.5218    7.0535 O   0  0  0  0  0  0  0  0  0  0  0  0
   31.8151   68.1525    5.6680 O   0  0  0  0  0  0  0  0  0  0  0  0
   31.0374   66.7800   10.8618 N   0  0  0  0  0  0  0  0  0  0  0  0
   30.1542   67.4206    8.8108 N   0  0  0  0  0  0  0  0  0  0  0  0
   29.0409   66.8949    6.6387 C   0  0  0  0  0  0  0  0  0  0  0  0
   31.1369   66.8188    9.5527 C   0  0  0  0  0  0  0  0  0  0  0  0
   32.2797   66.1850    8.7998 C   0  0  1  0  0  0  0  0  0  0  0  0
   32.7009   67.1406    7.6924 C   0  0  2  0  0  0  0  0  0  0  0  0
   31.5495   67.2106    6.6893 C   0  0  1  0  0  0  0  0  0  0  0  0
   30.1941   67.6052    7.3348 C   0  0  2  0  0  0  0  0  0  0  0  0
   29.8146   67.3978   12.3981 H   0  0  0  0  0  0  0  0  0  0  0  0
   27.0395   66.9008    6.8374 H   0  0  0  0  0  0  0  0  0  0  0  0
   34.1046   65.4349    9.0579 H   0  0  0  0  0  0  0  0  0  0  0  0
   34.1483   67.1069    6.3103 H   0  0  0  0  0  0  0  0  0  0  0  0
   31.0467   68.1764    5.0285 H   0  0  0  0  0  0  0  0  0  0  0  0
   29.3500   67.7612    9.2979 H   0  0  0  0  0  0  0  0  0  0  0  0
   29.0311   67.1280    5.6663 H   0  0  0  0  0  0  0  0  0  0  0  0
   29.1344   65.9048    6.7433 H   0  0  0  0  0  0  0  0  0  0  0  0
   31.9428   65.3454    8.3737 H   0  0  0  0  0  0  0  0  0  0  0  0
   32.9326   68.0442    8.0525 H   0  0  0  0  0  0  0  0  0  0  0  0
   31.4458   66.3101    6.2668 H   0  0  0  0  0  0  0  0  0  0  0  0
   30.0711   68.5831    7.1657 H   0  0  0  0  0  0  0  0  0  0  0  0
  1  6  1  0  0  0  0
  2  8  1  0  0  0  0
  3 10  1  0  0  0  0
  4 11  1  0  0  0  0
  5 12  1  0  0  0  0
  6  9  2  0  0  0  0
  7  9  1  0  0  0  0
  7 13  1  0  0  0  0
  8 13  1  0  0  0  0
  9 10  1  0  0  0  0
 10 11  1  0  0  0  0
 11 12  1  0  0  0  0
 12 13  1  0  0  0  0
  1 14  1  0  0  0  0
  2 15  1  0  0  0  0
  3 16  1  0  0  0  0
  4 17  1  0  0  0  0
  5 18  1  0  0  0  0
  7 19  1  0  0  0  0
  8 20  1  0  0  0  0
  8 21  1  0  0  0  0
 10 22  1  0  0  0  0
 11 23  1  0  0  0  0
 12 24  1  0  0  0  0
 13 25  1  0  0  0  0
M  END
> <pdb_id>
3D51

> <uniprot_id>
Q24451

> <usmiles>
ON=C1N[C@@H]([C@@H](O)[C@H](O)[C@H]1O)CO

$$$$
GOX_A_1451
          07192418433D 1   1.00000     0.00000     0
            
 25 25  0  0  0  0            999 V2000
   -1.2057   10.2316   12.6402 O   0  0  0  0  0  0  0  0  0  0  0  0
   -2.6691    8.2525    8.5736 O   0  0  0  0  0  0  0  0  0  0  0  0
    0.7822   12.8504   10.1423 O   0  0  0  0  0  0  0  0  0  0  0  0
    0.6875   12.2587    7.3048 O   0  0  0  0  0  0  0  0  0  0  0  0
   -1.5675   10.9279    6.3744 O   0  0  0  0  0  0  0  0  0  0  0  0
   -0.3561   10.8675   11.7317 N   0  0  0  0  0  0  0  0  0  0  0  0
   -2.0144   10.5105   10.0780 N   0  0  0  0  0  0  0  0  0  0  0  0
   -3.3262    9.4813    8.3343 C   0  0  0  0  0  0  0  0  0  0  0  0
   -0.7510   10.9885   10.4797 C   0  0  0  0  0  0  0  0  0  0  0  0
    0.2834   11.6693    9.5625 C   0  0  1  0  0  0  0  0  0  0  0  0
   -0.3705   11.9730    8.2170 C   0  0  2  0  0  0  0  0  0  0  0  0
   -1.1771   10.7640    7.7328 C   0  0  1  0  0  0  0  0  0  0  0  0
   -2.4125   10.6772    8.6738 C   0  0  2  0  0  0  0  0  0  0  0  0
   -0.9286   10.1276   13.5954 H   0  0  0  0  0  0  0  0  0  0  0  0
   -3.2826    7.4965    8.3458 H   0  0  0  0  0  0  0  0  0  0  0  0
    1.4493   13.2685    9.5257 H   0  0  0  0  0  0  0  0  0  0  0  0
    0.3046   12.4649    6.4043 H   0  0  0  0  0  0  0  0  0  0  0  0
   -2.0917   10.1290    6.0796 H   0  0  0  0  0  0  0  0  0  0  0  0
   -2.6260   10.0681   10.7339 H   0  0  0  0  0  0  0  0  0  0  0  0
   -4.1485    9.5276    8.9015 H   0  0  0  0  0  0  0  0  0  0  0  0
   -3.5837    9.5311    7.3693 H   0  0  0  0  0  0  0  0  0  0  0  0
    1.0449   11.0384    9.4140 H   0  0  0  0  0  0  0  0  0  0  0  0
   -0.9697   12.7690    8.3024 H   0  0  0  0  0  0  0  0  0  0  0  0
   -0.6261    9.9346    7.8255 H   0  0  0  0  0  0  0  0  0  0  0  0
   -2.9421   11.5210    8.5877 H   0  0  0  0  0  0  0  0  0  0  0  0
  1  6  1  0  0  0  0
  2  8  1  0  0  0  0
  3 10  1  0  0  0  0
  4 11  1  0  0  0  0
  5 12  1  0  0  0  0
  6  9  2  0  0  0  0
  7  9  1  0  0  0  0
  7 13  1  0  0  0  0
  8 13  1  0  0  0  0
  9 10  1  0  0  0  0
 10 11  1  0  0  0  0
 11 12  1  0  0  0  0
 12 13  1  0  0  0  0
  1 14  1  0  0  0  0
  2 15  1  0  0  0  0
  3 16  1  0  0  0  0
  4 17  1  0  0  0  0
  5 18  1  0  0  0  0
  7 19  1  0  0  0  0
  8 20  1  0  0  0  0
  8 21  1  0  0  0  0
 10 22  1  0  0  0  0
 11 23  1  0  0  0  0
 12 24  1  0  0  0  0
 13 25  1  0  0  0  0
M  END
> <pdb_id>
2J78

> <uniprot_id>
Q08638

> <usmiles>
ON=C1N[C@@H]([C@@H](O)[C@H](O)[C@H]1O)CO

$$$$
GOX_A_1490
          07192418423D 1   1.00000     0.00000     0
            
 25 25  0  0  0  0            999 V2000
  139.1946   89.6430   73.9067 O   0  0  0  0  0  0  0  0  0  0  0  0
  138.7422   88.4619   69.6095 O   0  0  0  0  0  0  0  0  0  0  0  0
  139.6987   93.5418   72.5013 O   0  0  0  0  0  0  0  0  0  0  0  0
  140.4183   93.6997   69.6831 O   0  0  0  0  0  0  0  0  0  0  0  0
  138.9168   91.7624   68.0814 O   0  0  0  0  0  0  0  0  0  0  0  0
  139.6340   90.8769   73.4180 N   0  0  0  0  0  0  0  0  0  0  0  0
  138.3282   90.4092   71.5007 N   0  0  0  0  0  0  0  0  0  0  0  0
  137.6594   89.3437   69.4792 C   0  0  0  0  0  0  0  0  0  0  0  0
  139.2715   91.2037   72.1866 C   0  0  0  0  0  0  0  0  0  0  0  0
  139.9489   92.4738   71.6280 C   0  0  1  0  0  0  0  0  0  0  0  0
  139.4169   92.8163   70.2326 C   0  0  2  0  0  0  0  0  0  0  0  0
  139.1880   91.4840   69.4330 C   0  0  1  0  0  0  0  0  0  0  0  0
  138.0136   90.7080   70.0991 C   0  0  2  0  0  0  0  0  0  0  0  0
  139.4436   89.3539   74.8311 H   0  0  0  0  0  0  0  0  0  0  0  0
  138.5037   87.5791   69.2047 H   0  0  0  0  0  0  0  0  0  0  0  0
  140.1337   94.3701   72.1481 H   0  0  0  0  0  0  0  0  0  0  0  0
  140.1485   93.9766   68.7608 H   0  0  0  0  0  0  0  0  0  0  0  0
  138.7737   90.9052   67.5867 H   0  0  0  0  0  0  0  0  0  0  0  0
  137.8774   89.6479   71.9667 H   0  0  0  0  0  0  0  0  0  0  0  0
  136.8636   88.9627   69.9499 H   0  0  0  0  0  0  0  0  0  0  0  0
  137.4465   89.4657   68.5098 H   0  0  0  0  0  0  0  0  0  0  0  0
  140.9356   92.3208   71.5731 H   0  0  0  0  0  0  0  0  0  0  0  0
  138.5498   93.3071   70.3177 H   0  0  0  0  0  0  0  0  0  0  0  0
  140.0165   90.9269   69.4886 H   0  0  0  0  0  0  0  0  0  0  0  0
  137.1986   91.2870   70.0750 H   0  0  0  0  0  0  0  0  0  0  0  0
  1  6  1  0  0  0  0
  2  8  1  0  0  0  0
  3 10  1  0  0  0  0
  4 11  1  0  0  0  0
  5 12  1  0  0  0  0
  6  9  2  0  0  0  0
  7  9  1  0  0  0  0
  7 13  1  0  0  0  0
  8 13  1  0  0  0  0
  9 10  1  0  0  0  0
 10 11  1  0  0  0  0
 11 12  1  0  0  0  0
 12 13  1  0  0  0  0
  1 14  1  0  0  0  0
  2 15  1  0  0  0  0
  3 16  1  0  0  0  0
  4 17  1  0  0  0  0
  5 18  1  0  0  0  0
  7 19  1  0  0  0  0
  8 20  1  0  0  0  0
  8 21  1  0  0  0  0
 10 22  1  0  0  0  0
 11 23  1  0  0  0  0
 12 24  1  0  0  0  0
 13 25  1  0  0  0  0
M  END
> <pdb_id>
1UWU

> <uniprot_id>
P22498

> <usmiles>
ON=C1N[C@@H]([C@@H](O)[C@H](O)[C@H]1O)CO

$$$$
GOX_M_921
          07192417103D 1   1.00000     0.00000     0
            
 25 25  0  0  0  0            999 V2000
   45.5120  119.5680   50.9830 O   0  0  0  0  0  0  0  0  0  0  0  0
   48.1870  123.2780   51.5780 O   0  0  0  0  0  0  0  0  0  0  0  0
   47.1990  118.0540   54.5300 O   0  0  0  0  0  0  0  0  0  0  0  0
   49.3470  119.6490   55.5640 O   0  0  0  0  0  0  0  0  0  0  0  0
   49.2900  122.4630   54.9070 O   0  0  0  0  0  0  0  0  0  0  0  0
   46.1800  119.1010   52.0130 N   0  0  0  0  0  0  0  0  0  0  0  0
   46.7140  121.2240   52.6400 N   0  0  0  0  0  0  0  0  0  0  0  0
   47.4060  123.4560   52.7730 C   0  0  0  0  0  0  0  0  0  0  0  0
   46.8710  119.8910   52.8440 C   0  0  0  0  0  0  0  0  0  0  0  0
   47.7520  119.2200   53.9100 C   0  0  1  0  0  0  0  0  0  0  0  0
   48.2490  120.2590   54.8890 C   0  0  2  0  0  0  0  0  0  0  0  0
   48.6480  121.5070   54.0620 C   0  0  1  0  0  0  0  0  0  0  0  0
   47.3120  122.1730   53.5720 C   0  0  2  0  0  0  0  0  0  0  0  0
   45.0090  118.9415   50.3876 H   0  0  0  0  0  0  0  0  0  0  0  0
   48.2289  124.1415   51.0754 H   0  0  0  0  0  0  0  0  0  0  0  0
   47.8459  117.6960   55.2033 H   0  0  0  0  0  0  0  0  0  0  0  0
   49.7251  120.2898   56.2322 H   0  0  0  0  0  0  0  0  0  0  0  0
   49.5452  123.2659   54.3682 H   0  0  0  0  0  0  0  0  0  0  0  0
   46.1907  121.5536   51.8542 H   0  0  0  0  0  0  0  0  0  0  0  0
   46.4842  123.7481   52.5180 H   0  0  0  0  0  0  0  0  0  0  0  0
   47.8343  124.1604   53.3390 H   0  0  0  0  0  0  0  0  0  0  0  0
   48.5653  118.9024   53.4224 H   0  0  0  0  0  0  0  0  0  0  0  0
   47.5281  120.4923   55.5416 H   0  0  0  0  0  0  0  0  0  0  0  0
   49.2320  121.2573   53.2896 H   0  0  0  0  0  0  0  0  0  0  0  0
   46.6999  122.3080   54.3511 H   0  0  0  0  0  0  0  0  0  0  0  0
  1  6  1  0  0  0  0
  2  8  1  0  0  0  0
  3 10  1  0  0  0  0
  4 11  1  0  0  0  0
  5 12  1  0  0  0  0
  6  9  2  0  0  0  0
  7  9  1  0  0  0  0
  7 13  1  0  0  0  0
  8 13  1  0  0  0  0
  9 10  1  0  0  0  0
 10 11  1  0  0  0  0
 11 12  1  0  0  0  0
 12 13  1  0  0  0  0
  1 14  1  0  0  0  0
  2 15  1  0  0  0  0
  3 16  1  0  0  0  0
  4 17  1  0  0  0  0
  5 18  1  0  0  0  0
  7 19  1  0  0  0  0
  8 20  1  0  0  0  0
  8 21  1  0  0  0  0
 10 22  1  0  0  0  0
 11 23  1  0  0  0  0
 12 24  1  0  0  0  0
 13 25  1  0  0  0  0
M  END
> <pdb_id>
1E6S

> <uniprot_id>
P29736

> <usmiles>
ON=C1N[C@@H]([C@@H](O)[C@H](O)[C@H]1O)CO

$$$$
GP6_A_910
          07192419343D 1   1.00000     0.00000     0
            
 33 34  0  0  0  0            999 V2000
   39.6227   28.1695   48.7157 Cl  0  0  0  0  0  0  0  0  0  0  0  0
   43.7437   23.4699   51.0864 O   0  0  0  0  0  0  0  0  0  0  0  0
   47.2573   18.3069   54.0240 N   0  0  0  0  0  0  0  0  0  0  0  0
   46.4404   16.9075   52.4051 N   0  0  0  0  0  0  0  0  0  0  0  0
   43.9908   24.2708   48.9891 N   0  0  0  0  0  0  0  0  0  0  0  0
   45.1718   22.4605   49.6258 N   0  0  0  0  0  0  0  0  0  0  0  0
   42.1149   27.2660   48.1142 C   0  0  0  0  0  0  0  0  0  0  0  0
   40.7510   25.8922   49.5518 C   0  0  0  0  0  0  0  0  0  0  0  0
   43.1488   26.3304   48.2002 C   0  0  0  0  0  0  0  0  0  0  0  0
   41.7828   24.9557   49.6334 C   0  0  0  0  0  0  0  0  0  0  0  0
   46.0364   21.6313   51.7274 C   0  0  0  0  0  0  0  0  0  0  0  0
   45.4966   20.1280   49.9320 C   0  0  0  0  0  0  0  0  0  0  0  0
   46.4204   20.5437   52.5175 C   0  0  0  0  0  0  0  0  0  0  0  0
   45.8828   19.0516   50.7343 C   0  0  0  0  0  0  0  0  0  0  0  0
   44.2733   23.4015   49.9668 C   0  0  0  0  0  0  0  0  0  0  0  0
   40.9170   27.0445   48.7931 C   0  0  0  0  0  0  0  0  0  0  0  0
   46.7531   18.1362   52.8095 C   0  0  0  0  0  0  0  0  0  0  0  0
   42.9876   25.1633   48.9520 C   0  0  0  0  0  0  0  0  0  0  0  0
   45.5666   21.4335   50.4202 C   0  0  0  0  0  0  0  0  0  0  0  0
   46.3513   19.2323   52.0360 C   0  0  0  0  0  0  0  0  0  0  0  0
   47.4970   19.2244   54.3414 H   0  0  0  0  0  0  0  0  0  0  0  0
   47.3978   17.5181   54.6224 H   0  0  0  0  0  0  0  0  0  0  0  0
   46.0594   16.7635   51.4918 H   0  0  0  0  0  0  0  0  0  0  0  0
   44.5970   24.2538   48.1940 H   0  0  0  0  0  0  0  0  0  0  0  0
   45.5809   22.5225   48.7154 H   0  0  0  0  0  0  0  0  0  0  0  0
   42.2338   28.0940   47.5663 H   0  0  0  0  0  0  0  0  0  0  0  0
   39.8923   25.7339   50.0393 H   0  0  0  0  0  0  0  0  0  0  0  0
   44.0103   26.4970   47.7204 H   0  0  0  0  0  0  0  0  0  0  0  0
   41.6602   24.1296   50.1833 H   0  0  0  0  0  0  0  0  0  0  0  0
   46.0971   22.5584   52.0972 H   0  0  0  0  0  0  0  0  0  0  0  0
   45.1680   19.9621   49.0022 H   0  0  0  0  0  0  0  0  0  0  0  0
   46.7515   20.7068   53.4468 H   0  0  0  0  0  0  0  0  0  0  0  0
   45.8216   18.1244   50.3647 H   0  0  0  0  0  0  0  0  0  0  0  0
  1 16  1  0  0  0  0
  2 15  2  0  0  0  0
  3 17  1  0  0  0  0
  4 17  2  0  0  0  0
  5 15  1  0  0  0  0
  5 18  1  0  0  0  0
  6 15  1  0  0  0  0
  6 19  1  0  0  0  0
  7  9  1  0  0  0  0
  7 16  2  0  0  0  0
  8 10  2  0  0  0  0
  8 16  1  0  0  0  0
  9 18  2  0  0  0  0
 10 18  1  0  0  0  0
 11 13  1  0  0  0  0
 11 19  2  0  0  0  0
 12 14  2  0  0  0  0
 12 19  1  0  0  0  0
 13 20  2  0  0  0  0
 14 20  1  0  0  0  0
 17 20  1  0  0  0  0
  3 21  1  0  0  0  0
  3 22  1  0  0  0  0
  4 23  1  0  0  0  0
  5 24  1  0  0  0  0
  6 25  1  0  0  0  0
  7 26  1  0  0  0  0
  8 27  1  0  0  0  0
  9 28  1  0  0  0  0
 10 29  1  0  0  0  0
 11 30  1  0  0  0  0
 12 31  1  0  0  0  0
 13 32  1  0  0  0  0
 14 33  1  0  0  0  0
M  END
> <pdb_id>
1BJU

> <uniprot_id>
P00760

> <usmiles>
Clc1ccc(NC(=O)Nc2ccc(cc2)C(=N)N)cc1

$$$$
GPK_A_843
          07202400133D 1   1.00000     0.00000     0
            
 33 34  0  0  0  0            999 V2000
   37.6169   24.1726   29.5541 F   0  0  0  0  0  0  0  0  0  0  0  0
   33.1797   18.5810   27.3281 O   0  0  0  0  0  0  0  0  0  0  0  0
   32.2675   24.2802   29.9985 O   0  0  0  0  0  0  0  0  0  0  0  0
   36.3496   25.5589   31.4855 O   0  0  0  0  0  0  0  0  0  0  0  0
   33.0449   22.4868   24.1475 O   0  0  0  0  0  0  0  0  0  0  0  0
   33.7793   24.4803   26.1752 O   0  0  0  0  0  0  0  0  0  0  0  0
   31.2710   20.4950   25.0892 O   0  0  0  0  0  0  0  0  0  0  0  0
   33.1749   21.4064   28.1198 O   0  0  0  0  0  0  0  0  0  0  0  0
   34.3020   24.9560   30.7681 N   0  0  0  0  0  0  0  0  0  0  0  0
   34.1069   23.4792   28.9004 N   0  0  0  0  0  0  0  0  0  0  0  0
   32.0891   19.3378   27.8818 C   0  0  0  0  0  0  0  0  0  0  0  0
   35.5116   23.5140   28.7294 C   0  0  0  0  0  0  0  0  0  0  0  0
   33.5179   24.2892   29.8869 C   0  0  0  0  0  0  0  0  0  0  0  0
   35.6533   24.9228   30.6728 C   0  0  0  0  0  0  0  0  0  0  0  0
   36.2816   24.2007   29.6565 C   0  0  0  0  0  0  0  0  0  0  0  0
   32.6310   22.4158   25.4980 C   0  0  2  0  0  0  0  0  0  0  0  0
   33.6729   23.0710   26.4200 C   0  0  2  0  0  0  0  0  0  0  0  0
   32.3780   20.9634   25.8781 C   0  0  1  0  0  0  0  0  0  0  0  0
   33.2374   22.8248   27.8699 C   0  0  1  0  0  0  0  0  0  0  0  0
   32.1214   20.7918   27.3889 C   0  0  2  0  0  0  0  0  0  0  0  0
   33.1365   17.6399   27.6634 H   0  0  0  0  0  0  0  0  0  0  0  0
   32.3557   22.0564   23.5646 H   0  0  0  0  0  0  0  0  0  0  0  0
   34.4630   24.8746   26.7893 H   0  0  0  0  0  0  0  0  0  0  0  0
   31.0797   19.5403   25.3170 H   0  0  0  0  0  0  0  0  0  0  0  0
   33.8752   25.4829   31.5030 H   0  0  0  0  0  0  0  0  0  0  0  0
   32.1584   19.3292   28.8793 H   0  0  0  0  0  0  0  0  0  0  0  0
   31.2252   18.9176   27.6040 H   0  0  0  0  0  0  0  0  0  0  0  0
   35.9413   23.0516   27.9538 H   0  0  0  0  0  0  0  0  0  0  0  0
   31.7712   22.9182   25.5893 H   0  0  0  0  0  0  0  0  0  0  0  0
   34.5634   22.6425   26.2668 H   0  0  0  0  0  0  0  0  0  0  0  0
   33.1870   20.4288   25.6337 H   0  0  0  0  0  0  0  0  0  0  0  0
   32.3133   23.1922   27.9755 H   0  0  0  0  0  0  0  0  0  0  0  0
   31.2574   21.2360   27.6257 H   0  0  0  0  0  0  0  0  0  0  0  0
  1 15  1  0  0  0  0
  2 11  1  0  0  0  0
  3 13  2  0  0  0  0
  4 14  2  0  0  0  0
  5 16  1  0  0  0  0
  6 17  1  0  0  0  0
  7 18  1  0  0  0  0
  8 19  1  0  0  0  0
  8 20  1  0  0  0  0
  9 13  1  0  0  0  0
  9 14  1  0  0  0  0
 10 12  1  0  0  0  0
 10 13  1  0  0  0  0
 10 19  1  0  0  0  0
 11 20  1  0  0  0  0
 12 15  2  0  0  0  0
 14 15  1  0  0  0  0
 16 17  1  0  0  0  0
 16 18  1  0  0  0  0
 17 19  1  0  0  0  0
 18 20  1  0  0  0  0
  2 21  1  0  0  0  0
  5 22  1  0  0  0  0
  6 23  1  0  0  0  0
  7 24  1  0  0  0  0
  9 25  1  0  0  0  0
 11 26  1  0  0  0  0
 11 27  1  0  0  0  0
 12 28  1  0  0  0  0
 16 29  1  0  0  0  0
 17 30  1  0  0  0  0
 18 31  1  0  0  0  0
 19 32  1  0  0  0  0
 20 33  1  0  0  0  0
M  END
> <pdb_id>
3SYR

> <uniprot_id>
P00489

> <usmiles>
FC=1C(=O)NC(=O)N(C1)[C@@H]2O[C@@H]([C@@H](O)[C@H](O)[C@H]2O)CO

$$$$
GPM_A_501
          07202403303D 1   1.00000     0.00000     0
            
 31 31  0  0  0  0            999 V2000
   25.0619   51.5545   13.0375 P   0  0  0  0  0  0  0  0  0  0  0  0
   25.5973   51.9885   11.6926 O   0  0  0  0  0  0  0  0  0  0  0  0
   24.0447   52.5489   13.5520 O   0  0  0  0  0  0  0  0  0  0  0  0
   24.4316   50.2124   12.9074 O   0  0  0  0  0  0  0  0  0  0  0  0
   28.8510   49.4290   18.0722 O   0  0  0  0  0  0  0  0  0  0  0  0
   27.1377   54.3491   17.3628 O   0  0  0  0  0  0  0  0  0  0  0  0
   24.9698   53.3421   15.8142 O   0  0  0  0  0  0  0  0  0  0  0  0
   29.5949   52.9168   17.2155 O   0  0  0  0  0  0  0  0  0  0  0  0
   27.1647   50.3090   16.1725 O   0  0  0  0  0  0  0  0  0  0  0  0
   26.4899   51.4762   14.2014 C   0  0  0  0  0  0  0  0  0  0  0  0
   29.4746   50.1170   16.9591 C   0  0  0  0  0  0  0  0  0  0  0  0
   27.2859   53.1842   16.5242 C   0  0  2  0  0  0  0  0  0  0  0  0
   25.9815   52.4823   16.3984 C   0  0  2  0  0  0  0  0  0  0  0  0
   28.3097   52.2781   17.1374 C   0  0  1  0  0  0  0  0  0  0  0  0
   26.1062   51.1902   15.5886 C   0  0  2  0  0  0  0  0  0  0  0  0
   28.4512   51.0163   16.3032 C   0  0  2  0  0  0  0  0  0  0  0  0
   26.2671   51.3201   11.3691 H   0  0  0  0  0  0  0  0  0  0  0  0
   23.7021   52.2455   14.4412 H   0  0  0  0  0  0  0  0  0  0  0  0
   29.5211   48.8314   18.5124 H   0  0  0  0  0  0  0  0  0  0  0  0
   28.0182   54.8162   17.4431 H   0  0  0  0  0  0  0  0  0  0  0  0
   24.1071   52.8414   15.7436 H   0  0  0  0  0  0  0  0  0  0  0  0
   30.2547   52.2887   17.6278 H   0  0  0  0  0  0  0  0  0  0  0  0
   26.9631   52.3568   14.1800 H   0  0  0  0  0  0  0  0  0  0  0  0
   27.1109   50.7565   13.8909 H   0  0  0  0  0  0  0  0  0  0  0  0
   29.8079   49.4477   16.2950 H   0  0  0  0  0  0  0  0  0  0  0  0
   30.2409   50.6670   17.2912 H   0  0  0  0  0  0  0  0  0  0  0  0
   27.5970   53.4678   15.6172 H   0  0  0  0  0  0  0  0  0  0  0  0
   25.6778   52.2367   17.3190 H   0  0  0  0  0  0  0  0  0  0  0  0
   28.0134   52.0280   18.0592 H   0  0  0  0  0  0  0  0  0  0  0  0
   25.2305   50.7073   15.5976 H   0  0  0  0  0  0  0  0  0  0  0  0
   28.7771   51.2661   15.3914 H   0  0  0  0  0  0  0  0  0  0  0  0
  1  2  1  0  0  0  0
  1  3  1  0  0  0  0
  1  4  2  0  0  0  0
  1 10  1  0  0  0  0
  5 11  1  0  0  0  0
  6 12  1  0  0  0  0
  7 13  1  0  0  0  0
  8 14  1  0  0  0  0
  9 15  1  0  0  0  0
  9 16  1  0  0  0  0
 10 15  1  0  0  0  0
 11 16  1  0  0  0  0
 12 13  1  0  0  0  0
 12 14  1  0  0  0  0
 13 15  1  0  0  0  0
 14 16  1  0  0  0  0
  2 17  1  0  0  0  0
  3 18  1  0  0  0  0
  5 19  1  0  0  0  0
  6 20  1  0  0  0  0
  7 21  1  0  0  0  0
  8 22  1  0  0  0  0
 10 23  1  0  0  0  0
 10 24  1  0  0  0  0
 11 25  1  0  0  0  0
 11 26  1  0  0  0  0
 12 27  1  0  0  0  0
 13 28  1  0  0  0  0
 14 29  1  0  0  0  0
 15 30  1  0  0  0  0
 16 31  1  0  0  0  0
M  END
> <pdb_id>
6MLH

> <uniprot_id>
Q8PGN7

> <usmiles>
P(=O)(O)(O)C[C@H]1O[C@@H]([C@@H](O)[C@H](O)[C@H]1O)CO

$$$$
GPQ_A_843
          07202400133D 1   1.00000     0.00000     0
            
 33 34  0  0  0  0            999 V2000
   38.0084   23.9967   29.7709 Cl  0  0  0  0  0  0  0  0  0  0  0  0
   33.2831   18.7022   27.4264 O   0  0  0  0  0  0  0  0  0  0  0  0
   32.2660   24.2425   29.8780 O   0  0  0  0  0  0  0  0  0  0  0  0
   36.1541   25.5296   31.6382 O   0  0  0  0  0  0  0  0  0  0  0  0
   33.1420   22.3911   24.1656 O   0  0  0  0  0  0  0  0  0  0  0  0
   33.8899   24.4995   26.2956 O   0  0  0  0  0  0  0  0  0  0  0  0
   31.3651   20.5245   25.2119 O   0  0  0  0  0  0  0  0  0  0  0  0
   33.2706   21.3337   28.2130 O   0  0  0  0  0  0  0  0  0  0  0  0
   34.1975   24.8900   30.8091 N   0  0  0  0  0  0  0  0  0  0  0  0
   34.1597   23.4612   28.8882 N   0  0  0  0  0  0  0  0  0  0  0  0
   32.1239   19.3966   27.9268 C   0  0  0  0  0  0  0  0  0  0  0  0
   35.5648   23.4277   28.8624 C   0  0  0  0  0  0  0  0  0  0  0  0
   33.4851   24.1858   29.8770 C   0  0  0  0  0  0  0  0  0  0  0  0
   35.5946   24.8645   30.7843 C   0  0  0  0  0  0  0  0  0  0  0  0
   36.2842   24.1248   29.8154 C   0  0  0  0  0  0  0  0  0  0  0  0
   32.7098   22.4518   25.5142 C   0  0  2  0  0  0  0  0  0  0  0  0
   33.7663   23.0863   26.4626 C   0  0  2  0  0  0  0  0  0  0  0  0
   32.4419   20.9992   25.9691 C   0  0  1  0  0  0  0  0  0  0  0  0
   33.3383   22.7719   27.9290 C   0  0  1  0  0  0  0  0  0  0  0  0
   32.1377   20.8439   27.4917 C   0  0  2  0  0  0  0  0  0  0  0  0
   33.2547   17.7482   27.7249 H   0  0  0  0  0  0  0  0  0  0  0  0
   32.4259   21.9760   23.6044 H   0  0  0  0  0  0  0  0  0  0  0  0
   34.5801   24.8508   26.9282 H   0  0  0  0  0  0  0  0  0  0  0  0
   31.1599   19.5827   25.4780 H   0  0  0  0  0  0  0  0  0  0  0  0
   33.7190   25.4224   31.5074 H   0  0  0  0  0  0  0  0  0  0  0  0
   32.1221   19.3544   28.9259 H   0  0  0  0  0  0  0  0  0  0  0  0
   31.2991   18.9556   27.5730 H   0  0  0  0  0  0  0  0  0  0  0  0
   36.0419   22.9021   28.1580 H   0  0  0  0  0  0  0  0  0  0  0  0
   31.8604   22.9769   25.5663 H   0  0  0  0  0  0  0  0  0  0  0  0
   34.6543   22.6614   26.2871 H   0  0  0  0  0  0  0  0  0  0  0  0
   33.2471   20.4477   25.7512 H   0  0  0  0  0  0  0  0  0  0  0  0
   32.4106   23.1287   28.0386 H   0  0  0  0  0  0  0  0  0  0  0  0
   31.2973   21.3185   27.7531 H   0  0  0  0  0  0  0  0  0  0  0  0
  1 15  1  0  0  0  0
  2 11  1  0  0  0  0
  3 13  2  0  0  0  0
  4 14  2  0  0  0  0
  5 16  1  0  0  0  0
  6 17  1  0  0  0  0
  7 18  1  0  0  0  0
  8 19  1  0  0  0  0
  8 20  1  0  0  0  0
  9 13  1  0  0  0  0
  9 14  1  0  0  0  0
 10 12  1  0  0  0  0
 10 13  1  0  0  0  0
 10 19  1  0  0  0  0
 11 20  1  0  0  0  0
 12 15  2  0  0  0  0
 14 15  1  0  0  0  0
 16 17  1  0  0  0  0
 16 18  1  0  0  0  0
 17 19  1  0  0  0  0
 18 20  1  0  0  0  0
  2 21  1  0  0  0  0
  5 22  1  0  0  0  0
  6 23  1  0  0  0  0
  7 24  1  0  0  0  0
  9 25  1  0  0  0  0
 11 26  1  0  0  0  0
 11 27  1  0  0  0  0
 12 28  1  0  0  0  0
 16 29  1  0  0  0  0
 17 30  1  0  0  0  0
 18 31  1  0  0  0  0
 19 32  1  0  0  0  0
 20 33  1  0  0  0  0
M  END
> <pdb_id>
3T3E

> <uniprot_id>
P00489

> <usmiles>
ClC=1C(=O)NC(=O)N(C1)[C@@H]2O[C@@H]([C@@H](O)[C@H](O)[C@H]2O)CO

$$$$
GPU_A_843
          07202400133D 1   1.00000     0.00000     0
            
 33 34  0  0  0  0            999 V2000
   38.0382   23.8765   29.9855 Br  0  0  0  0  0  0  0  0  0  0  0  0
   33.2710   18.6148   27.4862 O   0  0  0  0  0  0  0  0  0  0  0  0
   32.0822   24.4170   29.8702 O   0  0  0  0  0  0  0  0  0  0  0  0
   36.0919   25.5764   31.6942 O   0  0  0  0  0  0  0  0  0  0  0  0
   33.1481   22.3832   24.2902 O   0  0  0  0  0  0  0  0  0  0  0  0
   33.7868   24.4830   26.4235 O   0  0  0  0  0  0  0  0  0  0  0  0
   31.2592   20.4304   25.2698 O   0  0  0  0  0  0  0  0  0  0  0  0
   33.2888   21.2538   28.0739 O   0  0  0  0  0  0  0  0  0  0  0  0
   34.0787   25.0266   30.8507 N   0  0  0  0  0  0  0  0  0  0  0  0
   33.9907   23.4557   28.9746 N   0  0  0  0  0  0  0  0  0  0  0  0
   32.1352   19.2902   28.0426 C   0  0  0  0  0  0  0  0  0  0  0  0
   35.3976   23.3555   29.0134 C   0  0  0  0  0  0  0  0  0  0  0  0
   33.3092   24.2937   29.8942 C   0  0  0  0  0  0  0  0  0  0  0  0
   35.4787   24.9014   30.8804 C   0  0  0  0  0  0  0  0  0  0  0  0
   36.1351   24.0694   29.9647 C   0  0  0  0  0  0  0  0  0  0  0  0
   32.6385   22.3816   25.6140 C   0  0  2  0  0  0  0  0  0  0  0  0
   33.6531   23.0427   26.5615 C   0  0  2  0  0  0  0  0  0  0  0  0
   32.3507   20.9108   26.0203 C   0  0  1  0  0  0  0  0  0  0  0  0
   33.2023   22.6999   27.9810 C   0  0  1  0  0  0  0  0  0  0  0  0
   32.0985   20.7150   27.5229 C   0  0  2  0  0  0  0  0  0  0  0  0
   33.2993   17.6748   27.8262 H   0  0  0  0  0  0  0  0  0  0  0  0
   32.4855   21.9526   23.6774 H   0  0  0  0  0  0  0  0  0  0  0  0
   34.4649   24.8189   27.0772 H   0  0  0  0  0  0  0  0  0  0  0  0
   31.0689   19.4830   25.5272 H   0  0  0  0  0  0  0  0  0  0  0  0
   33.6191   25.6309   31.5015 H   0  0  0  0  0  0  0  0  0  0  0  0
   32.2071   19.2996   29.0400 H   0  0  0  0  0  0  0  0  0  0  0  0
   31.2980   18.8142   27.7733 H   0  0  0  0  0  0  0  0  0  0  0  0
   35.8714   22.7698   28.3558 H   0  0  0  0  0  0  0  0  0  0  0  0
   31.7839   22.9004   25.6363 H   0  0  0  0  0  0  0  0  0  0  0  0
   34.5487   22.6261   26.4054 H   0  0  0  0  0  0  0  0  0  0  0  0
   33.1519   20.3656   25.7736 H   0  0  0  0  0  0  0  0  0  0  0  0
   32.2424   22.9631   28.0769 H   0  0  0  0  0  0  0  0  0  0  0  0
   31.2852   21.2068   27.8338 H   0  0  0  0  0  0  0  0  0  0  0  0
  1 15  1  0  0  0  0
  2 11  1  0  0  0  0
  3 13  2  0  0  0  0
  4 14  2  0  0  0  0
  5 16  1  0  0  0  0
  6 17  1  0  0  0  0
  7 18  1  0  0  0  0
  8 19  1  0  0  0  0
  8 20  1  0  0  0  0
  9 13  1  0  0  0  0
  9 14  1  0  0  0  0
 10 12  1  0  0  0  0
 10 13  1  0  0  0  0
 10 19  1  0  0  0  0
 11 20  1  0  0  0  0
 12 15  2  0  0  0  0
 14 15  1  0  0  0  0
 16 17  1  0  0  0  0
 16 18  1  0  0  0  0
 17 19  1  0  0  0  0
 18 20  1  0  0  0  0
  2 21  1  0  0  0  0
  5 22  1  0  0  0  0
  6 23  1  0  0  0  0
  7 24  1  0  0  0  0
  9 25  1  0  0  0  0
 11 26  1  0  0  0  0
 11 27  1  0  0  0  0
 12 28  1  0  0  0  0
 16 29  1  0  0  0  0
 17 30  1  0  0  0  0
 18 31  1  0  0  0  0
 19 32  1  0  0  0  0
 20 33  1  0  0  0  0
M  END
> <pdb_id>
3T3G

> <uniprot_id>
P00489

> <usmiles>
BrC=1C(=O)NC(=O)N(C1)[C@@H]2O[C@@H]([C@@H](O)[C@H](O)[C@H]2O)CO

$$$$
GQZ_C_504
          07202410573D 1   1.00000     0.00000     0
            
 31 32  0  0  0  0            999 V2000
   82.8501   36.9213   71.2499 O   0  0  0  0  0  0  0  0  0  0  0  0
   82.4085   34.8589   69.6444 O   0  0  0  0  0  0  0  0  0  0  0  0
   79.9127   29.1897   70.2150 O   0  0  0  0  0  0  0  0  0  0  0  0
   82.0858   35.8212   71.6315 N   0  0  0  0  0  0  0  0  0  0  0  0
   80.0026   30.6294   68.4689 N   0  0  0  0  0  0  0  0  0  0  0  0
   79.8233   27.7873   65.3888 C   0  0  0  0  0  0  0  0  0  0  0  0
   78.8131   28.7196   65.5222 C   0  0  0  0  0  0  0  0  0  0  0  0
   80.8969   27.8111   66.2552 C   0  0  0  0  0  0  0  0  0  0  0  0
   79.8145   32.4932   72.9025 C   0  0  0  0  0  0  0  0  0  0  0  0
   78.8660   29.6705   66.5279 C   0  0  0  0  0  0  0  0  0  0  0  0
   80.9624   28.7571   67.2629 C   0  0  0  0  0  0  0  0  0  0  0  0
   80.5561   33.5960   72.5127 C   0  0  0  0  0  0  0  0  0  0  0  0
   79.6030   31.4488   72.0183 C   0  0  0  0  0  0  0  0  0  0  0  0
   80.8751   32.6140   70.3405 C   0  0  0  0  0  0  0  0  0  0  0  0
   81.9181   34.8287   70.7707 C   0  0  0  0  0  0  0  0  0  0  0  0
   80.0060   30.3372   69.7920 C   0  0  0  0  0  0  0  0  0  0  0  0
   79.9430   29.6890   67.4092 C   0  0  0  0  0  0  0  0  0  0  0  0
   81.0930   33.6639   71.2278 C   0  0  0  0  0  0  0  0  0  0  0  0
   80.1425   31.4975   70.7304 C   0  0  0  0  0  0  0  0  0  0  0  0
   82.8838   37.5805   72.0011 H   0  0  0  0  0  0  0  0  0  0  0  0
   81.6705   35.7815   72.5403 H   0  0  0  0  0  0  0  0  0  0  0  0
   80.0460   31.5961   68.2168 H   0  0  0  0  0  0  0  0  0  0  0  0
   79.7768   27.0972   64.6666 H   0  0  0  0  0  0  0  0  0  0  0  0
   78.0391   28.7080   64.8892 H   0  0  0  0  0  0  0  0  0  0  0  0
   81.6321   27.1408   66.1542 H   0  0  0  0  0  0  0  0  0  0  0  0
   79.4308   32.4510   73.8250 H   0  0  0  0  0  0  0  0  0  0  0  0
   78.1314   30.3427   66.6206 H   0  0  0  0  0  0  0  0  0  0  0  0
   81.7442   28.7697   67.8863 H   0  0  0  0  0  0  0  0  0  0  0  0
   80.7071   34.3468   73.1556 H   0  0  0  0  0  0  0  0  0  0  0  0
   79.0623   30.6570   72.3025 H   0  0  0  0  0  0  0  0  0  0  0  0
   81.2486   32.6627   69.4142 H   0  0  0  0  0  0  0  0  0  0  0  0
  1  4  1  0  0  0  0
  2 15  2  0  0  0  0
  3 16  2  0  0  0  0
  4 15  1  0  0  0  0
  5 16  1  0  0  0  0
  5 17  1  0  0  0  0
  6  7  2  0  0  0  0
  6  8  1  0  0  0  0
  7 10  1  0  0  0  0
  8 11  2  0  0  0  0
  9 12  1  0  0  0  0
  9 13  2  0  0  0  0
 10 17  2  0  0  0  0
 11 17  1  0  0  0  0
 12 18  2  0  0  0  0
 13 19  1  0  0  0  0
 14 18  1  0  0  0  0
 14 19  2  0  0  0  0
 15 18  1  0  0  0  0
 16 19  1  0  0  0  0
  1 20  1  0  0  0  0
  4 21  1  0  0  0  0
  5 22  1  0  0  0  0
  6 23  1  0  0  0  0
  7 24  1  0  0  0  0
  8 25  1  0  0  0  0
  9 26  1  0  0  0  0
 10 27  1  0  0  0  0
 11 28  1  0  0  0  0
 12 29  1  0  0  0  0
 13 30  1  0  0  0  0
 14 31  1  0  0  0  0
M  END
> <pdb_id>
6HTT

> <uniprot_id>
A5H660

> <usmiles>
O=C(NO)c1cc(ccc1)C(=O)Nc2ccccc2

$$$$
GR7_B_201
          07202412063D 1   1.00000     0.00000     0
            
 86 90  0  0  0  0            999 V2000
   18.5940  -18.8190   -6.7820 S   0  0  0  0  0  0  0  0  0  0  0  0
   17.6340  -18.9200   -7.9910 O   0  0  0  0  0  0  0  0  0  0  0  0
   19.4900  -19.9520   -6.5790 O   0  0  0  0  0  0  0  0  0  0  0  0
   15.3260  -22.7510   -5.0590 O   0  0  0  0  0  0  0  0  0  0  0  0
   14.0820  -18.0490   -4.7580 O   0  0  0  0  0  0  0  0  0  0  0  0
   21.6130  -13.9180   -8.4330 O   0  0  0  0  0  0  0  0  0  0  0  0
   21.8620  -17.3220   -4.7940 O   0  0  0  0  0  0  0  0  0  0  0  0
   10.2360  -23.9980   -4.7760 O   0  0  0  0  0  0  0  0  0  0  0  0
   11.4420  -24.2850   -2.8090 O   0  0  0  0  0  0  0  0  0  0  0  0
   13.2490  -22.7060   -4.2600 O   0  0  0  0  0  0  0  0  0  0  0  0
   13.9560  -20.8730   -5.3300 N   0  0  0  0  0  0  0  0  0  0  0  0
   17.6580  -18.5490   -5.5070 N   0  0  0  0  0  0  0  0  0  0  0  0
   22.9770  -13.8650   -8.0350 C   0  0  0  0  0  0  0  0  0  0  0  0
   22.4890  -18.0000   -3.6940 C   0  0  0  0  0  0  0  0  0  0  0  0
   10.8960  -23.4030   -5.9010 C   0  0  0  0  0  0  0  0  0  0  0  0
   12.8680  -24.3590   -2.5990 C   0  0  0  0  0  0  0  0  0  0  0  0
   21.6510  -18.0890   -6.0420 C   0  0  0  0  0  0  0  0  0  0  0  0
   18.2630  -18.7080   -4.2220 C   0  0  0  0  0  0  0  0  0  0  0  0
   16.3600  -17.9230   -5.6120 C   0  0  0  0  0  0  0  0  0  0  0  0
   21.5310  -18.4150   -2.7590 C   0  0  0  0  0  0  0  0  0  0  0  0
   18.3450  -20.1520   -3.7510 C   0  0  0  0  0  0  0  0  0  0  0  0
   20.9810  -19.6600   -2.6620 C   0  0  0  0  0  0  0  0  0  0  0  0
   18.5740  -20.1810   -2.2630 C   0  0  0  0  0  0  0  0  0  0  0  0
   19.9950  -20.1580   -1.8390 C   0  0  0  0  0  0  0  0  0  0  0  0
   13.1540  -22.8520   -9.7010 C   0  0  0  0  0  0  0  0  0  0  0  0
   12.1280  -22.1420   -9.0920 C   0  0  0  0  0  0  0  0  0  0  0  0
   14.4630  -22.4020   -9.6840 C   0  0  0  0  0  0  0  0  0  0  0  0
   12.0240  -24.3750   -6.2170 C   0  0  0  0  0  0  0  0  0  0  0  0
   19.0030  -16.4220   -7.9930 C   0  0  0  0  0  0  0  0  0  0  0  0
   19.6770  -15.2860   -8.3860 C   0  0  0  0  0  0  0  0  0  0  0  0
   12.4910  -21.0460   -8.2910 C   0  0  0  0  0  0  0  0  0  0  0  0
   14.8270  -21.3250   -8.8710 C   0  0  0  0  0  0  0  0  0  0  0  0
   21.5960  -16.0370   -7.2320 C   0  0  0  0  0  0  0  0  0  0  0  0
   14.1780  -19.4360   -7.2810 C   0  0  0  0  0  0  0  0  0  0  0  0
   14.2520  -22.1050   -4.9350 C   0  0  0  0  0  0  0  0  0  0  0  0
   11.1170  -24.8710   -4.0690 C   0  0  2  0  0  0  0  0  0  0  0  0
   19.5850  -17.4160   -7.2060 C   0  0  0  0  0  0  0  0  0  0  0  0
   15.2560  -18.8310   -5.0600 C   0  0  2  0  0  0  0  0  0  0  0  0
   20.9950  -15.0610   -8.0150 C   0  0  0  0  0  0  0  0  0  0  0  0
   13.4190  -24.1110   -4.0220 C   0  0  1  0  0  0  0  0  0  0  0  0
   14.8780  -19.9560   -6.0160 C   0  0  1  0  0  0  0  0  0  0  0  0
   13.8050  -20.6040   -8.2070 C   0  0  0  0  0  0  0  0  0  0  0  0
   20.9000  -17.2020   -6.8310 C   0  0  0  0  0  0  0  0  0  0  0  0
   12.4170  -24.9130   -4.8530 C   0  0  2  0  0  0  0  0  0  0  0  0
   13.3662  -18.6476   -4.3985 H   0  0  0  0  0  0  0  0  0  0  0  0
   13.0306  -20.5415   -5.1461 H   0  0  0  0  0  0  0  0  0  0  0  0
   23.3869  -13.0135   -8.3622 H   0  0  0  0  0  0  0  0  0  0  0  0
   23.0348  -13.9009   -7.0373 H   0  0  0  0  0  0  0  0  0  0  0  0
   23.4687  -14.6433   -8.4256 H   0  0  0  0  0  0  0  0  0  0  0  0
   23.1341  -17.3784   -3.2496 H   0  0  0  0  0  0  0  0  0  0  0  0
   22.9803  -18.8001   -4.0382 H   0  0  0  0  0  0  0  0  0  0  0  0
   11.2585  -22.5013   -5.6653 H   0  0  0  0  0  0  0  0  0  0  0  0
   10.2708  -23.3185   -6.6769 H   0  0  0  0  0  0  0  0  0  0  0  0
   13.1382  -25.2590   -2.2570 H   0  0  0  0  0  0  0  0  0  0  0  0
   13.1780  -23.6534   -1.9618 H   0  0  0  0  0  0  0  0  0  0  0  0
   21.1428  -18.9318   -5.8649 H   0  0  0  0  0  0  0  0  0  0  0  0
   22.5223  -18.3108   -6.4798 H   0  0  0  0  0  0  0  0  0  0  0  0
   17.7267  -18.1899   -3.5557 H   0  0  0  0  0  0  0  0  0  0  0  0
   19.1909  -18.3376   -4.2634 H   0  0  0  0  0  0  0  0  0  0  0  0
   16.1698  -17.7274   -6.5741 H   0  0  0  0  0  0  0  0  0  0  0  0
   16.3680  -17.0681   -5.0933 H   0  0  0  0  0  0  0  0  0  0  0  0
   21.2201  -17.7318   -2.0983 H   0  0  0  0  0  0  0  0  0  0  0  0
   19.1029  -20.6114   -4.2141 H   0  0  0  0  0  0  0  0  0  0  0  0
   17.4890  -20.6221   -3.9660 H   0  0  0  0  0  0  0  0  0  0  0  0
   21.3607  -20.3289   -3.3011 H   0  0  0  0  0  0  0  0  0  0  0  0
   18.1577  -21.0158   -1.9027 H   0  0  0  0  0  0  0  0  0  0  0  0
   18.1201  -19.3837   -1.8651 H   0  0  0  0  0  0  0  0  0  0  0  0
   20.0302  -19.6189   -0.9975 H   0  0  0  0  0  0  0  0  0  0  0  0
   20.2456  -21.1052   -1.6388 H   0  0  0  0  0  0  0  0  0  0  0  0
   12.9415  -23.7121  -10.1647 H   0  0  0  0  0  0  0  0  0  0  0  0
   11.1701  -22.4000   -9.2182 H   0  0  0  0  0  0  0  0  0  0  0  0
   15.1509  -22.8493  -10.2557 H   0  0  0  0  0  0  0  0  0  0  0  0
   12.7919  -23.9034   -6.6505 H   0  0  0  0  0  0  0  0  0  0  0  0
   11.7052  -25.1113   -6.8138 H   0  0  0  0  0  0  0  0  0  0  0  0
   18.0538  -16.5391   -8.2852 H   0  0  0  0  0  0  0  0  0  0  0  0
   19.2058  -14.6088   -8.9511 H   0  0  0  0  0  0  0  0  0  0  0  0
   11.7838  -20.5712   -7.7671 H   0  0  0  0  0  0  0  0  0  0  0  0
   15.7875  -21.0694   -8.7607 H   0  0  0  0  0  0  0  0  0  0  0  0
   22.5456  -15.9136   -6.9438 H   0  0  0  0  0  0  0  0  0  0  0  0
   14.7934  -18.8148   -7.7661 H   0  0  0  0  0  0  0  0  0  0  0  0
   13.3471  -18.9450   -7.0193 H   0  0  0  0  0  0  0  0  0  0  0  0
   10.7226  -25.7835   -3.9602 H   0  0  0  0  0  0  0  0  0  0  0  0
   15.5852  -19.2413   -4.2095 H   0  0  0  0  0  0  0  0  0  0  0  0
   14.3633  -24.4190   -4.1382 H   0  0  0  0  0  0  0  0  0  0  0  0
   15.7035  -20.4555   -6.2788 H   0  0  0  0  0  0  0  0  0  0  0  0
   12.7296  -25.8589   -4.9396 H   0  0  0  0  0  0  0  0  0  0  0  0
  1  2  2  0  0  0  0
  1  3  2  0  0  0  0
  1 12  1  0  0  0  0
  1 37  1  0  0  0  0
  4 35  2  0  0  0  0
  5 38  1  0  0  0  0
  6 13  1  0  0  0  0
  6 39  1  0  0  0  0
  7 14  1  0  0  0  0
  7 17  1  0  0  0  0
  8 15  1  0  0  0  0
  8 36  1  0  0  0  0
  9 16  1  0  0  0  0
  9 36  1  0  0  0  0
 10 35  1  0  0  0  0
 10 40  1  0  0  0  0
 11 35  1  0  0  0  0
 11 41  1  0  0  0  0
 12 18  1  0  0  0  0
 12 19  1  0  0  0  0
 14 20  1  0  0  0  0
 15 28  1  0  0  0  0
 16 40  1  0  0  0  0
 17 43  1  0  0  0  0
 18 21  1  0  0  0  0
 19 38  1  0  0  0  0
 20 22  2  0  0  0  0
 21 23  1  0  0  0  0
 22 24  1  0  0  0  0
 23 24  1  0  0  0  0
 25 26  2  0  0  0  0
 25 27  1  0  0  0  0
 26 31  1  0  0  0  0
 27 32  2  0  0  0  0
 28 44  1  0  0  0  0
 29 30  1  0  0  0  0
 29 37  2  0  0  0  0
 30 39  2  0  0  0  0
 31 42  2  0  0  0  0
 32 42  1  0  0  0  0
 33 39  1  0  0  0  0
 33 43  2  0  0  0  0
 34 41  1  0  0  0  0
 34 42  1  0  0  0  0
 36 44  1  0  0  0  0
 37 43  1  0  0  0  0
 38 41  1  0  0  0  0
 40 44  1  0  0  0  0
  5 45  1  0  0  0  0
 11 46  1  0  0  0  0
 13 47  1  0  0  0  0
 13 48  1  0  0  0  0
 13 49  1  0  0  0  0
 14 50  1  0  0  0  0
 14 51  1  0  0  0  0
 15 52  1  0  0  0  0
 15 53  1  0  0  0  0
 16 54  1  0  0  0  0
 16 55  1  0  0  0  0
 17 56  1  0  0  0  0
 17 57  1  0  0  0  0
 18 58  1  0  0  0  0
 18 59  1  0  0  0  0
 19 60  1  0  0  0  0
 19 61  1  0  0  0  0
 20 62  1  0  0  0  0
 21 63  1  0  0  0  0
 21 64  1  0  0  0  0
 22 65  1  0  0  0  0
 23 66  1  0  0  0  0
 23 67  1  0  0  0  0
 24 68  1  0  0  0  0
 24 69  1  0  0  0  0
 25 70  1  0  0  0  0
 26 71  1  0  0  0  0
 27 72  1  0  0  0  0
 28 73  1  0  0  0  0
 28 74  1  0  0  0  0
 29 75  1  0  0  0  0
 30 76  1  0  0  0  0
 31 77  1  0  0  0  0
 32 78  1  0  0  0  0
 33 79  1  0  0  0  0
 34 80  1  0  0  0  0
 34 81  1  0  0  0  0
 36 82  1  0  0  0  0
 38 83  1  0  0  0  0
 40 84  1  0  0  0  0
 41 85  1  0  0  0  0
 44 86  1  0  0  0  0
M  END
> <pdb_id>
5WLO

> <uniprot_id>
Q5RZ08

> <usmiles>
S1(=O)(=O)N(C[C@@H](O)[C@@H](NC(=O)O[C@@H]2[C@H]3[C@@H](OC2)OCC3)Cc4ccccc4)CCCC/C=C/COCc5c1ccc(OC)c5

$$$$
GS5_A_1245
          07192422073D 1   1.00000     0.00000     0
            
 52 55  0  0  0  0            999 V2000
   42.1368   28.7078   12.6953 Cl  0  0  0  0  0  0  0  0  0  0  0  0
   35.9689   28.1207   13.0076 S   0  0  0  0  0  0  0  0  0  0  0  0
   34.8504   27.0464   15.5314 S   0  0  0  0  0  0  0  0  0  0  0  0
   35.2457   25.8170   16.1932 O   0  0  0  0  0  0  0  0  0  0  0  0
   33.7380   27.0011   14.6227 O   0  0  0  0  0  0  0  0  0  0  0  0
   34.3840   31.9814   19.9394 O   0  0  0  0  0  0  0  0  0  0  0  0
   36.4589   30.1800   17.7376 O   0  0  0  0  0  0  0  0  0  0  0  0
   37.9992   34.0373   22.4404 O   0  0  0  0  0  0  0  0  0  0  0  0
   34.4410   28.1535   16.6812 N   0  0  0  0  0  0  0  0  0  0  0  0
   36.0400   33.4723   20.4602 N   0  0  0  0  0  0  0  0  0  0  0  0
   34.8007   31.7026   17.3967 N   0  0  0  0  0  0  0  0  0  0  0  0
   35.2346   34.1907   17.4835 C   0  0  0  0  0  0  0  0  0  0  0  0
   36.9018   33.1588   22.7395 C   0  0  0  0  0  0  0  0  0  0  0  0
   38.4195   34.0753   21.0703 C   0  0  0  0  0  0  0  0  0  0  0  0
   35.6671   33.4747   21.8801 C   0  0  0  0  0  0  0  0  0  0  0  0
   37.2256   34.3015   20.1336 C   0  0  0  0  0  0  0  0  0  0  0  0
   33.4414   31.7743   16.8797 C   0  0  0  0  0  0  0  0  0  0  0  0
   39.6658   28.9273   11.6080 C   0  0  0  0  0  0  0  0  0  0  0  0
   38.2702   28.8124   11.6464 C   0  0  0  0  0  0  0  0  0  0  0  0
   33.0961   30.3069   16.5611 C   0  0  0  0  0  0  0  0  0  0  0  0
   37.5800   27.4408   15.0480 C   0  0  0  0  0  0  0  0  0  0  0  0
   39.7837   28.0378   13.9174 C   0  0  0  0  0  0  0  0  0  0  0  0
   36.2186   27.5273   14.5903 C   0  0  0  0  0  0  0  0  0  0  0  0
   40.4049   28.5435   12.7470 C   0  0  0  0  0  0  0  0  0  0  0  0
   37.6306   28.3081   12.8218 C   0  0  0  0  0  0  0  0  0  0  0  0
   35.2826   32.7286   19.5744 C   0  0  0  0  0  0  0  0  0  0  0  0
   35.3762   30.4931   17.2564 C   0  0  0  0  0  0  0  0  0  0  0  0
   34.4568   29.6105   16.4190 C   0  0  1  0  0  0  0  0  0  0  0  0
   35.5361   32.8008   18.0673 C   0  0  1  0  0  0  0  0  0  0  0  0
   38.3802   27.9159   13.9653 C   0  0  0  0  0  0  0  0  0  0  0  0
   35.0644   28.0019   17.4483 H   0  0  0  0  0  0  0  0  0  0  0  0
   35.7607   34.8817   17.9792 H   0  0  0  0  0  0  0  0  0  0  0  0
   35.4889   34.2084   16.5165 H   0  0  0  0  0  0  0  0  0  0  0  0
   34.2582   34.3861   17.5751 H   0  0  0  0  0  0  0  0  0  0  0  0
   36.6593   33.2607   23.7043 H   0  0  0  0  0  0  0  0  0  0  0  0
   37.1851   32.2159   22.5648 H   0  0  0  0  0  0  0  0  0  0  0  0
   38.8568   33.2064   20.8384 H   0  0  0  0  0  0  0  0  0  0  0  0
   39.0750   34.8209   20.9501 H   0  0  0  0  0  0  0  0  0  0  0  0
   34.9641   32.7819   22.0405 H   0  0  0  0  0  0  0  0  0  0  0  0
   35.3104   34.3753   22.1287 H   0  0  0  0  0  0  0  0  0  0  0  0
   36.9610   35.2643   20.1875 H   0  0  0  0  0  0  0  0  0  0  0  0
   37.5127   34.0865   19.2001 H   0  0  0  0  0  0  0  0  0  0  0  0
   33.4028   32.3373   16.0542 H   0  0  0  0  0  0  0  0  0  0  0  0
   32.8175   32.1467   17.5667 H   0  0  0  0  0  0  0  0  0  0  0  0
   40.1279   29.2736   10.7916 H   0  0  0  0  0  0  0  0  0  0  0  0
   37.7228   29.0821   10.8542 H   0  0  0  0  0  0  0  0  0  0  0  0
   32.5765   30.2436   15.7090 H   0  0  0  0  0  0  0  0  0  0  0  0
   32.5669   29.8993   17.3052 H   0  0  0  0  0  0  0  0  0  0  0  0
   37.8989   27.1159   15.9383 H   0  0  0  0  0  0  0  0  0  0  0  0
   40.3385   27.7690   14.7048 H   0  0  0  0  0  0  0  0  0  0  0  0
   34.7390   29.7264   15.4667 H   0  0  0  0  0  0  0  0  0  0  0  0
   36.5110   32.6292   17.9260 H   0  0  0  0  0  0  0  0  0  0  0  0
  1 24  1  0  0  0  0
  2 23  1  0  0  0  0
  2 25  1  0  0  0  0
  3  4  2  0  0  0  0
  3  5  2  0  0  0  0
  3  9  1  0  0  0  0
  3 23  1  0  0  0  0
  6 26  2  0  0  0  0
  7 27  2  0  0  0  0
  8 13  1  0  0  0  0
  8 14  1  0  0  0  0
  9 28  1  0  0  0  0
 10 15  1  0  0  0  0
 10 16  1  0  0  0  0
 10 26  1  0  0  0  0
 11 17  1  0  0  0  0
 11 27  1  0  0  0  0
 11 29  1  0  0  0  0
 12 29  1  0  0  0  0
 13 15  1  0  0  0  0
 14 16  1  0  0  0  0
 17 20  1  0  0  0  0
 18 19  2  0  0  0  0
 18 24  1  0  0  0  0
 19 25  1  0  0  0  0
 20 28  1  0  0  0  0
 21 23  2  0  0  0  0
 21 30  1  0  0  0  0
 22 24  2  0  0  0  0
 22 30  1  0  0  0  0
 25 30  2  0  0  0  0
 26 29  1  0  0  0  0
 27 28  1  0  0  0  0
  9 31  1  0  0  0  0
 12 32  1  0  0  0  0
 12 33  1  0  0  0  0
 12 34  1  0  0  0  0
 13 35  1  0  0  0  0
 13 36  1  0  0  0  0
 14 37  1  0  0  0  0
 14 38  1  0  0  0  0
 15 39  1  0  0  0  0
 15 40  1  0  0  0  0
 16 41  1  0  0  0  0
 16 42  1  0  0  0  0
 17 43  1  0  0  0  0
 17 44  1  0  0  0  0
 18 45  1  0  0  0  0
 19 46  1  0  0  0  0
 20 47  1  0  0  0  0
 20 48  1  0  0  0  0
 21 49  1  0  0  0  0
 22 50  1  0  0  0  0
 28 51  1  0  0  0  0
 29 52  1  0  0  0  0
M  END
> <pdb_id>
2J38

> <uniprot_id>
P00742

> <usmiles>
Clc1cc2c(SC(S(=O)(=O)N[C@@H]3C(=O)N([C@H](C(=O)N4CCOCC4)C)CC3)=C2)cc1

$$$$
GS6_A_1245
          07192422073D 1   1.00000     0.00000     0
            
 52 55  0  0  0  0            999 V2000
   42.3032   28.7349   12.3957 Cl  0  0  0  0  0  0  0  0  0  0  0  0
   37.8269   27.1024   15.1996 S   0  0  0  0  0  0  0  0  0  0  0  0
   34.7563   27.0854   15.0766 S   0  0  0  0  0  0  0  0  0  0  0  0
   33.8380   27.1525   13.9973 O   0  0  0  0  0  0  0  0  0  0  0  0
   34.8032   25.8729   15.8394 O   0  0  0  0  0  0  0  0  0  0  0  0
   34.3089   32.0401   19.9385 O   0  0  0  0  0  0  0  0  0  0  0  0
   36.5386   29.9869   17.2970 O   0  0  0  0  0  0  0  0  0  0  0  0
   38.0125   34.1472   22.4147 O   0  0  0  0  0  0  0  0  0  0  0  0
   34.3190   28.1846   16.2020 N   0  0  0  0  0  0  0  0  0  0  0  0
   36.1876   33.2371   20.4368 N   0  0  0  0  0  0  0  0  0  0  0  0
   34.8734   31.5614   17.3504 N   0  0  0  0  0  0  0  0  0  0  0  0
   35.3925   34.0381   17.5266 C   0  0  0  0  0  0  0  0  0  0  0  0
   37.0302   33.1853   22.8007 C   0  0  0  0  0  0  0  0  0  0  0  0
   38.5511   33.8578   21.1298 C   0  0  0  0  0  0  0  0  0  0  0  0
   35.8192   33.2690   21.8610 C   0  0  0  0  0  0  0  0  0  0  0  0
   37.4611   33.9022   20.0583 C   0  0  0  0  0  0  0  0  0  0  0  0
   33.4612   31.6872   16.9727 C   0  0  0  0  0  0  0  0  0  0  0  0
   39.7101   29.0527   11.5480 C   0  0  0  0  0  0  0  0  0  0  0  0
   33.1213   30.3959   16.2083 C   0  0  0  0  0  0  0  0  0  0  0  0
   38.3102   28.9230   11.7148 C   0  0  0  0  0  0  0  0  0  0  0  0
   40.0578   27.9392   13.7140 C   0  0  0  0  0  0  0  0  0  0  0  0
   36.4063   28.1048   13.1589 C   0  0  0  0  0  0  0  0  0  0  0  0
   36.3172   27.4545   14.4237 C   0  0  0  0  0  0  0  0  0  0  0  0
   40.5769   28.5586   12.5632 C   0  0  0  0  0  0  0  0  0  0  0  0
   38.6430   27.7977   13.8886 C   0  0  0  0  0  0  0  0  0  0  0  0
   35.3260   32.6139   19.5719 C   0  0  0  0  0  0  0  0  0  0  0  0
   35.4305   30.3889   16.9672 C   0  0  0  0  0  0  0  0  0  0  0  0
   34.4542   29.6469   16.0441 C   0  0  1  0  0  0  0  0  0  0  0  0
   35.6394   32.6157   18.0810 C   0  0  1  0  0  0  0  0  0  0  0  0
   37.7895   28.3073   12.8777 C   0  0  0  0  0  0  0  0  0  0  0  0
   34.8442   27.9535   17.0210 H   0  0  0  0  0  0  0  0  0  0  0  0
   35.9289   34.6984   18.0522 H   0  0  0  0  0  0  0  0  0  0  0  0
   35.6682   34.0740   16.5660 H   0  0  0  0  0  0  0  0  0  0  0  0
   34.4208   34.2616   17.6031 H   0  0  0  0  0  0  0  0  0  0  0  0
   36.7357   33.3701   23.7383 H   0  0  0  0  0  0  0  0  0  0  0  0
   37.4263   32.2685   22.7502 H   0  0  0  0  0  0  0  0  0  0  0  0
   38.9593   32.9450   21.1439 H   0  0  0  0  0  0  0  0  0  0  0  0
   39.2542   34.5340   20.9097 H   0  0  0  0  0  0  0  0  0  0  0  0
   35.2156   32.4946   22.0507 H   0  0  0  0  0  0  0  0  0  0  0  0
   35.3329   34.1233   22.0446 H   0  0  0  0  0  0  0  0  0  0  0  0
   37.2629   34.8612   19.8557 H   0  0  0  0  0  0  0  0  0  0  0  0
   37.8139   33.4540   19.2369 H   0  0  0  0  0  0  0  0  0  0  0  0
   33.3265   32.4858   16.3862 H   0  0  0  0  0  0  0  0  0  0  0  0
   32.8880   31.7716   17.7878 H   0  0  0  0  0  0  0  0  0  0  0  0
   40.0849   29.4855   10.7281 H   0  0  0  0  0  0  0  0  0  0  0  0
   32.7306   30.6128   15.3137 H   0  0  0  0  0  0  0  0  0  0  0  0
   32.4722   29.8423   16.7301 H   0  0  0  0  0  0  0  0  0  0  0  0
   37.6891   29.2666   11.0105 H   0  0  0  0  0  0  0  0  0  0  0  0
   40.6811   27.5948   14.4160 H   0  0  0  0  0  0  0  0  0  0  0  0
   35.6390   28.3706   12.5752 H   0  0  0  0  0  0  0  0  0  0  0  0
   34.7631   29.8089   15.1069 H   0  0  0  0  0  0  0  0  0  0  0  0
   36.6129   32.4128   17.9748 H   0  0  0  0  0  0  0  0  0  0  0  0
  1 24  1  0  0  0  0
  2 23  1  0  0  0  0
  2 25  1  0  0  0  0
  3  4  2  0  0  0  0
  3  5  2  0  0  0  0
  3  9  1  0  0  0  0
  3 23  1  0  0  0  0
  6 26  2  0  0  0  0
  7 27  2  0  0  0  0
  8 13  1  0  0  0  0
  8 14  1  0  0  0  0
  9 28  1  0  0  0  0
 10 15  1  0  0  0  0
 10 16  1  0  0  0  0
 10 26  1  0  0  0  0
 11 17  1  0  0  0  0
 11 27  1  0  0  0  0
 11 29  1  0  0  0  0
 12 29  1  0  0  0  0
 13 15  1  0  0  0  0
 14 16  1  0  0  0  0
 17 19  1  0  0  0  0
 18 20  2  0  0  0  0
 18 24  1  0  0  0  0
 19 28  1  0  0  0  0
 20 30  1  0  0  0  0
 21 24  2  0  0  0  0
 21 25  1  0  0  0  0
 22 23  2  0  0  0  0
 22 30  1  0  0  0  0
 25 30  2  0  0  0  0
 26 29  1  0  0  0  0
 27 28  1  0  0  0  0
  9 31  1  0  0  0  0
 12 32  1  0  0  0  0
 12 33  1  0  0  0  0
 12 34  1  0  0  0  0
 13 35  1  0  0  0  0
 13 36  1  0  0  0  0
 14 37  1  0  0  0  0
 14 38  1  0  0  0  0
 15 39  1  0  0  0  0
 15 40  1  0  0  0  0
 16 41  1  0  0  0  0
 16 42  1  0  0  0  0
 17 43  1  0  0  0  0
 17 44  1  0  0  0  0
 18 45  1  0  0  0  0
 19 46  1  0  0  0  0
 19 47  1  0  0  0  0
 20 48  1  0  0  0  0
 21 49  1  0  0  0  0
 22 50  1  0  0  0  0
 28 51  1  0  0  0  0
 29 52  1  0  0  0  0
M  END
> <pdb_id>
2J34

> <uniprot_id>
P00742

> <usmiles>
Clc1cc2SC(S(=O)(=O)N[C@@H]3C(=O)N([C@H](C(=O)N4CCOCC4)C)CC3)=Cc2cc1

$$$$
GS9_A_1123
          07192422123D 1   1.00000     0.00000     0
            
 40 42  0  0  0  0            999 V2000
   13.2460   16.6800   67.9720 S   0  0  0  0  0  0  0  0  0  0  0  0
   15.7550   15.3480   63.7350 O   0  0  0  0  0  0  0  0  0  0  0  0
   11.9220   14.0320   68.5930 O   0  0  0  0  0  0  0  0  0  0  0  0
   11.6700   11.9540   66.8610 O   0  0  0  0  0  0  0  0  0  0  0  0
   12.1530   13.1410   64.4550 O   0  0  0  0  0  0  0  0  0  0  0  0
   13.8860   15.1620   65.8200 O   0  0  0  0  0  0  0  0  0  0  0  0
   14.6070   14.4570   63.7160 C   0  0  0  0  0  0  0  0  0  0  0  0
   19.6160   18.1260   69.1140 C   0  0  0  0  0  0  0  0  0  0  0  0
   19.5280   17.0070   68.2720 C   0  0  0  0  0  0  0  0  0  0  0  0
   14.7730   18.3620   69.2040 C   0  0  0  0  0  0  0  0  0  0  0  0
   18.4660   18.7900   69.5590 C   0  0  0  0  0  0  0  0  0  0  0  0
   18.3000   16.4530   67.8610 C   0  0  0  0  0  0  0  0  0  0  0  0
   16.0120   18.8910   69.5790 C   0  0  0  0  0  0  0  0  0  0  0  0
   15.8780   16.5940   67.9130 C   0  0  0  0  0  0  0  0  0  0  0  0
   14.7050   17.2410   68.3540 C   0  0  0  0  0  0  0  0  0  0  0  0
   13.6040   15.0270   67.2280 C   0  0  2  0  0  0  0  0  0  0  0  0
   12.3860   14.1540   67.2590 C   0  0  1  0  0  0  0  0  0  0  0  0
   12.8210   12.7760   66.7370 C   0  0  2  0  0  0  0  0  0  0  0  0
   13.2930   12.8730   65.2840 C   0  0  2  0  0  0  0  0  0  0  0  0
   14.3530   13.9840   65.1440 C   0  0  2  0  0  0  0  0  0  0  0  0
   17.2100   18.2790   69.1510 C   0  0  0  0  0  0  0  0  0  0  0  0
   17.1240   17.0760   68.2910 C   0  0  0  0  0  0  0  0  0  0  0  0
   15.9411   15.6717   62.8073 H   0  0  0  0  0  0  0  0  0  0  0  0
   11.1095   13.4493   68.6113 H   0  0  0  0  0  0  0  0  0  0  0  0
   11.8821   11.0323   66.5362 H   0  0  0  0  0  0  0  0  0  0  0  0
   12.4433   13.2077   63.5004 H   0  0  0  0  0  0  0  0  0  0  0  0
   14.7970   13.6714   63.1271 H   0  0  0  0  0  0  0  0  0  0  0  0
   13.8045   14.9449   63.3724 H   0  0  0  0  0  0  0  0  0  0  0  0
   20.5155   18.4551   69.4013 H   0  0  0  0  0  0  0  0  0  0  0  0
   20.3748   16.5840   67.9494 H   0  0  0  0  0  0  0  0  0  0  0  0
   13.9305   18.7820   69.5413 H   0  0  0  0  0  0  0  0  0  0  0  0
   18.5297   19.5977   70.1451 H   0  0  0  0  0  0  0  0  0  0  0  0
   18.2699   15.6397   67.2799 H   0  0  0  0  0  0  0  0  0  0  0  0
   16.0496   19.7082   70.1541 H   0  0  0  0  0  0  0  0  0  0  0  0
   15.8122   15.7865   67.3269 H   0  0  0  0  0  0  0  0  0  0  0  0
   14.3670   14.5853   67.7000 H   0  0  0  0  0  0  0  0  0  0  0  0
   11.6695   14.5363   66.6755 H   0  0  0  0  0  0  0  0  0  0  0  0
   13.5578   12.4149   67.3086 H   0  0  0  0  0  0  0  0  0  0  0  0
   13.6969   11.9995   65.0123 H   0  0  0  0  0  0  0  0  0  0  0  0
   15.2129   13.6806   65.5546 H   0  0  0  0  0  0  0  0  0  0  0  0
  1 15  1  0  0  0  0
  1 16  1  0  0  0  0
  2  7  1  0  0  0  0
  3 17  1  0  0  0  0
  4 18  1  0  0  0  0
  5 19  1  0  0  0  0
  6 16  1  0  0  0  0
  6 20  1  0  0  0  0
  7 20  1  0  0  0  0
  8  9  2  0  0  0  0
  8 11  1  0  0  0  0
  9 12  1  0  0  0  0
 10 13  2  0  0  0  0
 10 15  1  0  0  0  0
 11 21  2  0  0  0  0
 12 22  2  0  0  0  0
 13 21  1  0  0  0  0
 14 15  2  0  0  0  0
 14 22  1  0  0  0  0
 16 17  1  0  0  0  0
 17 18  1  0  0  0  0
 18 19  1  0  0  0  0
 19 20  1  0  0  0  0
 21 22  1  0  0  0  0
  2 23  1  0  0  0  0
  3 24  1  0  0  0  0
  4 25  1  0  0  0  0
  5 26  1  0  0  0  0
  7 27  1  0  0  0  0
  7 28  1  0  0  0  0
  8 29  1  0  0  0  0
  9 30  1  0  0  0  0
 10 31  1  0  0  0  0
 11 32  1  0  0  0  0
 12 33  1  0  0  0  0
 13 34  1  0  0  0  0
 14 35  1  0  0  0  0
 16 36  1  0  0  0  0
 17 37  1  0  0  0  0
 18 38  1  0  0  0  0
 19 39  1  0  0  0  0
 20 40  1  0  0  0  0
M  END
> <pdb_id>
4A6S

> <uniprot_id>
Q05097

> <usmiles>
S(c1cc2c(cc1)cccc2)[C@@H]3O[C@@H]([C@H](O)[C@H](O)[C@H]3O)CO

$$$$
GSK_A_1246
          07192422073D 1   1.00000     0.00000     0
            
 55 58  0  0  0  0            999 V2000
   42.4217   28.7888   12.1086 Cl  0  0  0  0  0  0  0  0  0  0  0  0
   34.3892   27.3222   14.6528 S   0  0  0  0  0  0  0  0  0  0  0  0
   34.0646   26.0475   15.2274 O   0  0  0  0  0  0  0  0  0  0  0  0
   33.7183   27.7693   13.4633 O   0  0  0  0  0  0  0  0  0  0  0  0
   34.1139   32.0602   20.0566 O   0  0  0  0  0  0  0  0  0  0  0  0
   36.3414   29.9967   17.1805 O   0  0  0  0  0  0  0  0  0  0  0  0
   38.0873   34.2746   21.9922 O   0  0  0  0  0  0  0  0  0  0  0  0
   34.0971   28.3154   15.8947 N   0  0  0  0  0  0  0  0  0  0  0  0
   36.1994   32.8271   20.5010 N   0  0  0  0  0  0  0  0  0  0  0  0
   34.6810   31.5772   17.3440 N   0  0  0  0  0  0  0  0  0  0  0  0
   35.3004   33.9900   17.6231 C   0  0  0  0  0  0  0  0  0  0  0  0
   38.1336   34.3164   20.5821 C   0  0  0  0  0  0  0  0  0  0  0  0
   36.7638   34.1557   22.5371 C   0  0  0  0  0  0  0  0  0  0  0  0
   37.6129   32.9641   20.1238 C   0  0  0  0  0  0  0  0  0  0  0  0
   35.9087   33.0368   21.9217 C   0  0  0  0  0  0  0  0  0  0  0  0
   33.3161   31.8058   16.8850 C   0  0  0  0  0  0  0  0  0  0  0  0
   39.7622   29.0330   11.4624 C   0  0  0  0  0  0  0  0  0  0  0  0
   37.1022   27.0171   15.3279 C   0  0  0  0  0  0  0  0  0  0  0  0
   32.9410   30.4971   16.1760 C   0  0  0  0  0  0  0  0  0  0  0  0
   38.3589   28.8860   11.7037 C   0  0  0  0  0  0  0  0  0  0  0  0
   38.4950   27.1522   15.0895 C   0  0  0  0  0  0  0  0  0  0  0  0
   40.3083   27.9441   13.6116 C   0  0  0  0  0  0  0  0  0  0  0  0
   36.5684   28.0793   13.1540 C   0  0  0  0  0  0  0  0  0  0  0  0
   40.7179   28.5790   12.4148 C   0  0  0  0  0  0  0  0  0  0  0  0
   36.1547   27.4643   14.3579 C   0  0  0  0  0  0  0  0  0  0  0  0
   35.1899   32.4764   19.6555 C   0  0  0  0  0  0  0  0  0  0  0  0
   35.2313   30.4231   16.8758 C   0  0  0  0  0  0  0  0  0  0  0  0
   34.2579   29.7808   15.8854 C   0  0  1  0  0  0  0  0  0  0  0  0
   35.4492   32.5484   18.1582 C   0  0  1  0  0  0  0  0  0  0  0  0
   38.9242   27.7660   13.8797 C   0  0  0  0  0  0  0  0  0  0  0  0
   37.9478   28.2543   12.8934 C   0  0  0  0  0  0  0  0  0  0  0  0
   34.6865   27.9912   16.6346 H   0  0  0  0  0  0  0  0  0  0  0  0
   35.8309   34.6147   18.1961 H   0  0  0  0  0  0  0  0  0  0  0  0
   35.6374   34.0329   16.6825 H   0  0  0  0  0  0  0  0  0  0  0  0
   34.3366   34.2556   17.6442 H   0  0  0  0  0  0  0  0  0  0  0  0
   39.0721   34.4557   20.2664 H   0  0  0  0  0  0  0  0  0  0  0  0
   37.5522   35.0519   20.2342 H   0  0  0  0  0  0  0  0  0  0  0  0
   36.2894   35.0242   22.3930 H   0  0  0  0  0  0  0  0  0  0  0  0
   36.8464   33.9798   23.5180 H   0  0  0  0  0  0  0  0  0  0  0  0
   37.7007   32.8929   19.1302 H   0  0  0  0  0  0  0  0  0  0  0  0
   38.1453   32.2377   20.5584 H   0  0  0  0  0  0  0  0  0  0  0  0
   36.0897   32.1861   22.4153 H   0  0  0  0  0  0  0  0  0  0  0  0
   34.9436   33.2798   22.0193 H   0  0  0  0  0  0  0  0  0  0  0  0
   33.2787   32.5777   16.2504 H   0  0  0  0  0  0  0  0  0  0  0  0
   32.7054   31.9796   17.6576 H   0  0  0  0  0  0  0  0  0  0  0  0
   40.0752   29.4601   10.6141 H   0  0  0  0  0  0  0  0  0  0  0  0
   36.7823   26.6056   16.1813 H   0  0  0  0  0  0  0  0  0  0  0  0
   32.4558   30.6910   15.3233 H   0  0  0  0  0  0  0  0  0  0  0  0
   32.3633   29.9350   16.7678 H   0  0  0  0  0  0  0  0  0  0  0  0
   37.6873   29.2234   11.0440 H   0  0  0  0  0  0  0  0  0  0  0  0
   39.1612   26.8227   15.7585 H   0  0  0  0  0  0  0  0  0  0  0  0
   40.9913   27.6216   14.2669 H   0  0  0  0  0  0  0  0  0  0  0  0
   35.8887   28.3893   12.4893 H   0  0  0  0  0  0  0  0  0  0  0  0
   34.5471   30.0454   14.9655 H   0  0  0  0  0  0  0  0  0  0  0  0
   36.4121   32.3084   18.0349 H   0  0  0  0  0  0  0  0  0  0  0  0
  1 24  1  0  0  0  0
  2  3  2  0  0  0  0
  2  4  2  0  0  0  0
  2  8  1  0  0  0  0
  2 25  1  0  0  0  0
  5 26  2  0  0  0  0
  6 27  2  0  0  0  0
  7 12  1  0  0  0  0
  7 13  1  0  0  0  0
  8 28  1  0  0  0  0
  9 14  1  0  0  0  0
  9 15  1  0  0  0  0
  9 26  1  0  0  0  0
 10 16  1  0  0  0  0
 10 27  1  0  0  0  0
 10 29  1  0  0  0  0
 11 29  1  0  0  0  0
 12 14  1  0  0  0  0
 13 15  1  0  0  0  0
 16 19  1  0  0  0  0
 17 20  2  0  0  0  0
 17 24  1  0  0  0  0
 18 21  1  0  0  0  0
 18 25  2  0  0  0  0
 19 28  1  0  0  0  0
 20 31  1  0  0  0  0
 21 30  2  0  0  0  0
 22 24  2  0  0  0  0
 22 30  1  0  0  0  0
 23 25  1  0  0  0  0
 23 31  2  0  0  0  0
 26 29  1  0  0  0  0
 27 28  1  0  0  0  0
 30 31  1  0  0  0  0
  8 32  1  0  0  0  0
 11 33  1  0  0  0  0
 11 34  1  0  0  0  0
 11 35  1  0  0  0  0
 12 36  1  0  0  0  0
 12 37  1  0  0  0  0
 13 38  1  0  0  0  0
 13 39  1  0  0  0  0
 14 40  1  0  0  0  0
 14 41  1  0  0  0  0
 15 42  1  0  0  0  0
 15 43  1  0  0  0  0
 16 44  1  0  0  0  0
 16 45  1  0  0  0  0
 17 46  1  0  0  0  0
 18 47  1  0  0  0  0
 19 48  1  0  0  0  0
 19 49  1  0  0  0  0
 20 50  1  0  0  0  0
 21 51  1  0  0  0  0
 22 52  1  0  0  0  0
 23 53  1  0  0  0  0
 28 54  1  0  0  0  0
 29 55  1  0  0  0  0
M  END
> <pdb_id>
2CJI

> <uniprot_id>
P00742

> <usmiles>
Clc1cc2c(cc(S(=O)(=O)N[C@@H]3C(=O)N([C@H](C(=O)N4CCOCC4)C)CC3)cc2)cc1

$$$$
GSU_B_500
          07202401403D 1   1.00000     0.00000     0
            
 53 55  0  0  0  0            999 V2000
   31.2720   16.4790  -18.0000 S   0  0  0  0  0  0  0  0  0  0  0  0
   30.6260   15.2450  -18.4990 O   0  0  0  0  0  0  0  0  0  0  0  0
   30.3900   17.6400  -18.2130 O   0  0  0  0  0  0  0  0  0  0  0  0
   28.7870   19.1160  -12.4650 O   0  0  0  0  0  0  0  0  0  0  0  0
   30.7140   19.9680  -13.0600 O   0  0  0  0  0  0  0  0  0  0  0  0
   32.8790   18.0980  -16.2370 O   0  0  0  0  0  0  0  0  0  0  0  0
   34.9760   18.7600  -22.3330 O   0  0  0  0  0  0  0  0  0  0  0  0
   36.4110   17.2870  -20.5450 O   0  0  0  0  0  0  0  0  0  0  0  0
   32.6460   16.7700  -18.8210 O   0  0  0  0  0  0  0  0  0  0  0  0
   33.7240   15.6150  -21.1890 O   0  0  0  0  0  0  0  0  0  0  0  0
   30.2480   15.9520  -26.9160 N   0  0  0  0  0  0  0  0  0  0  0  0
   33.2290   17.8210  -13.6230 N   0  0  0  0  0  0  0  0  0  0  0  0
   31.5080   16.3280  -16.4970 N   0  0  0  0  0  0  0  0  0  0  0  0
   32.3750   15.1130  -26.9060 N   0  0  0  0  0  0  0  0  0  0  0  0
   33.7860   15.3160  -25.1010 N   0  0  0  0  0  0  0  0  0  0  0  0
   30.9090   16.9920  -24.0820 N   0  0  0  0  0  0  0  0  0  0  0  0
   32.9090   16.5700  -23.1960 N   0  0  0  0  0  0  0  0  0  0  0  0
   33.6930   15.8080  -18.7880 C   0  0  0  0  0  0  0  0  0  0  0  0
   33.4940   14.9140  -26.2890 C   0  0  0  0  0  0  0  0  0  0  0  0
   31.7090   17.1540  -22.9930 C   0  0  0  0  0  0  0  0  0  0  0  0
   30.0070   17.9680  -14.1460 C   0  0  0  0  0  0  0  0  0  0  0  0
   30.9690   16.9200  -13.5930 C   0  0  0  0  0  0  0  0  0  0  0  0
   29.8260   19.0930  -13.1530 C   0  0  0  0  0  0  0  0  0  0  0  0
   32.2570   17.1620  -15.7650 C   0  0  0  0  0  0  0  0  0  0  0  0
   34.2490   17.8480  -21.5160 C   0  0  2  0  0  0  0  0  0  0  0  0
   35.0070   17.3780  -20.2870 C   0  0  1  0  0  0  0  0  0  0  0  0
   34.0320   16.5310  -22.2360 C   0  0  1  0  0  0  0  0  0  0  0  0
   31.3600   15.7680  -26.3360 C   0  0  0  0  0  0  0  0  0  0  0  0
   34.5180   15.9570  -20.0540 C   0  0  2  0  0  0  0  0  0  0  0  0
   32.3380   16.8770  -14.2840 C   0  0  1  0  0  0  0  0  0  0  0  0
   32.8320   16.0270  -24.4120 C   0  0  0  0  0  0  0  0  0  0  0  0
   31.6170   16.2800  -24.9770 C   0  0  0  0  0  0  0  0  0  0  0  0
   28.1013   18.3958  -12.5707 H   0  0  0  0  0  0  0  0  0  0  0  0
   34.4158   19.0234  -23.1184 H   0  0  0  0  0  0  0  0  0  0  0  0
   36.8821   16.9760  -19.7196 H   0  0  0  0  0  0  0  0  0  0  0  0
   29.5166   16.4489  -26.4489 H   0  0  0  0  0  0  0  0  0  0  0  0
   30.1021   15.6002  -27.8406 H   0  0  0  0  0  0  0  0  0  0  0  0
   34.1250   17.8004  -14.0667 H   0  0  0  0  0  0  0  0  0  0  0  0
   32.8460   18.7424  -13.6881 H   0  0  0  0  0  0  0  0  0  0  0  0
   31.0750   15.5566  -16.0307 H   0  0  0  0  0  0  0  0  0  0  0  0
   33.3050   14.8874  -18.7437 H   0  0  0  0  0  0  0  0  0  0  0  0
   34.2712   15.9649  -17.9873 H   0  0  0  0  0  0  0  0  0  0  0  0
   34.1977   14.4004  -26.7799 H   0  0  0  0  0  0  0  0  0  0  0  0
   31.4448   17.6381  -22.1588 H   0  0  0  0  0  0  0  0  0  0  0  0
   29.1209   17.5403  -14.3245 H   0  0  0  0  0  0  0  0  0  0  0  0
   30.3767   18.3373  -14.9986 H   0  0  0  0  0  0  0  0  0  0  0  0
   30.5415   16.0215  -13.6929 H   0  0  0  0  0  0  0  0  0  0  0  0
   31.1159   17.1133  -12.6229 H   0  0  0  0  0  0  0  0  0  0  0  0
   33.3709   18.2458  -21.2500 H   0  0  0  0  0  0  0  0  0  0  0  0
   34.8188   17.9621  -19.4974 H   0  0  0  0  0  0  0  0  0  0  0  0
   34.8719   16.2513  -22.7011 H   0  0  0  0  0  0  0  0  0  0  0  0
   35.3054   15.3424  -20.0070 H   0  0  0  0  0  0  0  0  0  0  0  0
   32.7162   15.9589  -14.1654 H   0  0  0  0  0  0  0  0  0  0  0  0
  1  2  2  0  0  0  0
  1  3  2  0  0  0  0
  1  9  1  0  0  0  0
  1 13  1  0  0  0  0
  4 23  1  0  0  0  0
  5 23  2  0  0  0  0
  6 24  2  0  0  0  0
  7 25  1  0  0  0  0
  8 26  1  0  0  0  0
  9 18  1  0  0  0  0
 10 27  1  0  0  0  0
 10 29  1  0  0  0  0
 11 28  1  0  0  0  0
 12 30  1  0  0  0  0
 13 24  1  0  0  0  0
 14 19  1  0  0  0  0
 14 28  2  0  0  0  0
 15 19  2  0  0  0  0
 15 31  1  0  0  0  0
 16 20  2  0  0  0  0
 16 32  1  0  0  0  0
 17 20  1  0  0  0  0
 17 27  1  0  0  0  0
 17 31  1  0  0  0  0
 18 29  1  0  0  0  0
 21 22  1  0  0  0  0
 21 23  1  0  0  0  0
 22 30  1  0  0  0  0
 24 30  1  0  0  0  0
 25 26  1  0  0  0  0
 25 27  1  0  0  0  0
 26 29  1  0  0  0  0
 28 32  1  0  0  0  0
 31 32  2  0  0  0  0
  4 33  1  0  0  0  0
  7 34  1  0  0  0  0
  8 35  1  0  0  0  0
 11 36  1  0  0  0  0
 11 37  1  0  0  0  0
 12 38  1  0  0  0  0
 12 39  1  0  0  0  0
 13 40  1  0  0  0  0
 18 41  1  0  0  0  0
 18 42  1  0  0  0  0
 19 43  1  0  0  0  0
 20 44  1  0  0  0  0
 21 45  1  0  0  0  0
 21 46  1  0  0  0  0
 22 47  1  0  0  0  0
 22 48  1  0  0  0  0
 25 49  1  0  0  0  0
 26 50  1  0  0  0  0
 27 51  1  0  0  0  0
 29 52  1  0  0  0  0
 30 53  1  0  0  0  0
M  END
> <pdb_id>
3R9F

> <uniprot_id>
Q47510

> <usmiles>
S(=O)(=O)(OC[C@H]1O[C@@H](N2c3ncnc(N)c3N=C2)[C@H](O)[C@@H]1O)NC(=O)[C@@H](N)CCC(=O)O

$$$$
GSX_A_1245
          07192422073D 1   1.00000     0.00000     0
            
 53 56  0  0  0  0            999 V2000
   42.5963   28.7231   12.0116 Cl  0  0  0  0  0  0  0  0  0  0  0  0
   40.1800   27.8177   13.5751 S   0  0  0  0  0  0  0  0  0  0  0  0
   35.8437   28.3147   13.5485 S   0  0  0  0  0  0  0  0  0  0  0  0
   33.4521   27.6136   15.3817 S   0  0  0  0  0  0  0  0  0  0  0  0
   32.8358   28.1346   14.1862 O   0  0  0  0  0  0  0  0  0  0  0  0
   32.9642   26.3923   15.9595 O   0  0  0  0  0  0  0  0  0  0  0  0
   33.9891   32.5725   20.0058 O   0  0  0  0  0  0  0  0  0  0  0  0
   35.8424   30.0940   17.3812 O   0  0  0  0  0  0  0  0  0  0  0  0
   37.9915   34.0101   22.5154 O   0  0  0  0  0  0  0  0  0  0  0  0
   33.4539   28.7005   16.5743 N   0  0  0  0  0  0  0  0  0  0  0  0
   36.0950   33.2889   20.5648 N   0  0  0  0  0  0  0  0  0  0  0  0
   34.5141   31.9807   17.3919 N   0  0  0  0  0  0  0  0  0  0  0  0
   35.5191   34.3459   17.6190 C   0  0  0  0  0  0  0  0  0  0  0  0
   36.6436   34.0182   22.9456 C   0  0  0  0  0  0  0  0  0  0  0  0
   38.1822   34.5605   21.2379 C   0  0  0  0  0  0  0  0  0  0  0  0
   35.7364   33.2236   21.9993 C   0  0  0  0  0  0  0  0  0  0  0  0
   37.4872   33.6747   20.2026 C   0  0  0  0  0  0  0  0  0  0  0  0
   33.2073   32.3740   16.8636 C   0  0  0  0  0  0  0  0  0  0  0  0
   39.9144   28.9686   11.2774 C   0  0  0  0  0  0  0  0  0  0  0  0
   36.1781   26.7754   15.5770 C   0  0  0  0  0  0  0  0  0  0  0  0
   38.6037   28.7108   11.7466 C   0  0  0  0  0  0  0  0  0  0  0  0
   37.4372   26.9048   14.9706 C   0  0  0  0  0  0  0  0  0  0  0  0
   32.5547   31.0410   16.4776 C   0  0  0  0  0  0  0  0  0  0  0  0
   40.8881   28.5389   12.1911 C   0  0  0  0  0  0  0  0  0  0  0  0
   35.1798   27.5003   14.9181 C   0  0  0  0  0  0  0  0  0  0  0  0
   38.5924   28.0603   12.9891 C   0  0  0  0  0  0  0  0  0  0  0  0
   37.4138   27.6892   13.8058 C   0  0  0  0  0  0  0  0  0  0  0  0
   35.1126   32.9213   19.6583 C   0  0  0  0  0  0  0  0  0  0  0  0
   34.8243   30.6962   17.0712 C   0  0  0  0  0  0  0  0  0  0  0  0
   33.7212   30.0915   16.2123 C   0  0  1  0  0  0  0  0  0  0  0  0
   35.4266   32.8910   18.1526 C   0  0  1  0  0  0  0  0  0  0  0  0
   34.1523   28.4221   17.2336 H   0  0  0  0  0  0  0  0  0  0  0  0
   36.1493   34.8711   18.1908 H   0  0  0  0  0  0  0  0  0  0  0  0
   35.8542   34.3347   16.6769 H   0  0  0  0  0  0  0  0  0  0  0  0
   34.6134   34.7689   17.6457 H   0  0  0  0  0  0  0  0  0  0  0  0
   36.3219   34.9643   22.9831 H   0  0  0  0  0  0  0  0  0  0  0  0
   36.5931   33.6125   23.8582 H   0  0  0  0  0  0  0  0  0  0  0  0
   39.1605   34.6072   21.0360 H   0  0  0  0  0  0  0  0  0  0  0  0
   37.7914   35.4805   21.2078 H   0  0  0  0  0  0  0  0  0  0  0  0
   35.7640   32.2642   22.2800 H   0  0  0  0  0  0  0  0  0  0  0  0
   34.8051   33.5737   22.0999 H   0  0  0  0  0  0  0  0  0  0  0  0
   37.4596   34.1699   19.3342 H   0  0  0  0  0  0  0  0  0  0  0  0
   38.0256   32.8392   20.0928 H   0  0  0  0  0  0  0  0  0  0  0  0
   33.3094   32.9657   16.0640 H   0  0  0  0  0  0  0  0  0  0  0  0
   32.6682   32.8461   17.5610 H   0  0  0  0  0  0  0  0  0  0  0  0
   40.1209   29.4041   10.4012 H   0  0  0  0  0  0  0  0  0  0  0  0
   36.0123   26.2232   16.3940 H   0  0  0  0  0  0  0  0  0  0  0  0
   37.7759   28.9648   11.2464 H   0  0  0  0  0  0  0  0  0  0  0  0
   38.2678   26.4809   15.3317 H   0  0  0  0  0  0  0  0  0  0  0  0
   31.9953   31.1486   15.6557 H   0  0  0  0  0  0  0  0  0  0  0  0
   31.9860   30.6985   17.2255 H   0  0  0  0  0  0  0  0  0  0  0  0
   33.9817   30.1424   15.2481 H   0  0  0  0  0  0  0  0  0  0  0  0
   36.3441   32.5028   18.0662 H   0  0  0  0  0  0  0  0  0  0  0  0
  1 24  1  0  0  0  0
  2 24  1  0  0  0  0
  2 26  1  0  0  0  0
  3 25  1  0  0  0  0
  3 27  1  0  0  0  0
  4  5  2  0  0  0  0
  4  6  2  0  0  0  0
  4 10  1  0  0  0  0
  4 25  1  0  0  0  0
  7 28  2  0  0  0  0
  8 29  2  0  0  0  0
  9 14  1  0  0  0  0
  9 15  1  0  0  0  0
 10 30  1  0  0  0  0
 11 16  1  0  0  0  0
 11 17  1  0  0  0  0
 11 28  1  0  0  0  0
 12 18  1  0  0  0  0
 12 29  1  0  0  0  0
 12 31  1  0  0  0  0
 13 31  1  0  0  0  0
 14 16  1  0  0  0  0
 15 17  1  0  0  0  0
 18 23  1  0  0  0  0
 19 21  1  0  0  0  0
 19 24  2  0  0  0  0
 20 22  1  0  0  0  0
 20 25  2  0  0  0  0
 21 26  2  0  0  0  0
 22 27  2  0  0  0  0
 23 30  1  0  0  0  0
 26 27  1  0  0  0  0
 28 31  1  0  0  0  0
 29 30  1  0  0  0  0
 10 32  1  0  0  0  0
 13 33  1  0  0  0  0
 13 34  1  0  0  0  0
 13 35  1  0  0  0  0
 14 36  1  0  0  0  0
 14 37  1  0  0  0  0
 15 38  1  0  0  0  0
 15 39  1  0  0  0  0
 16 40  1  0  0  0  0
 16 41  1  0  0  0  0
 17 42  1  0  0  0  0
 17 43  1  0  0  0  0
 18 44  1  0  0  0  0
 18 45  1  0  0  0  0
 19 46  1  0  0  0  0
 20 47  1  0  0  0  0
 21 48  1  0  0  0  0
 22 49  1  0  0  0  0
 23 50  1  0  0  0  0
 23 51  1  0  0  0  0
 30 52  1  0  0  0  0
 31 53  1  0  0  0  0
M  END
> <pdb_id>
2J95

> <uniprot_id>
P00742

> <usmiles>
ClC=1SC(C=2SC(S(=O)(=O)N[C@@H]3C(=O)N([C@H](C(=O)N4CCOCC4)C)CC3)=CC2)=CC1

$$$$
GSY_B_1159
          07192422173D 1   1.00000     0.00000     0
            
 24 25  0  0  0  0            999 V2000
    2.8150   21.8130   10.6240 S   0  0  0  0  0  0  0  0  0  0  0  0
    2.1050   20.4240   14.0880 O   0  0  0  0  0  0  0  0  0  0  0  0
    0.5660   24.3790   15.2690 O   0  0  0  0  0  0  0  0  0  0  0  0
    3.7150   27.7840   14.8350 N   0  0  0  0  0  0  0  0  0  0  0  0
    3.5430   24.0740   11.9340 N   0  0  0  0  0  0  0  0  0  0  0  0
    2.1270   26.1020   15.1610 N   0  0  0  0  0  0  0  0  0  0  0  0
    3.7260   25.9960   13.4000 N   0  0  0  0  0  0  0  0  0  0  0  0
    1.8810   23.1710   12.8810 N   0  0  0  0  0  0  0  0  0  0  0  0
    1.2190   21.4500   14.4930 C   0  0  0  0  0  0  0  0  0  0  0  0
    0.7990   22.2430   13.2030 C   0  0  0  0  0  0  0  0  0  0  0  0
    2.6940   23.0880   11.8760 C   0  0  0  0  0  0  0  0  0  0  0  0
    3.1990   26.6440   14.4680 C   0  0  0  0  0  0  0  0  0  0  0  0
    1.5580   24.8940   14.7000 C   0  0  0  0  0  0  0  0  0  0  0  0
    3.2280   24.8480   12.9560 C   0  0  0  0  0  0  0  0  0  0  0  0
    2.1430   24.2770   13.5750 C   0  0  0  0  0  0  0  0  0  0  0  0
    2.3932   19.8975   14.8878 H   0  0  0  0  0  0  0  0  0  0  0  0
    4.4879   28.1686   14.3303 H   0  0  0  0  0  0  0  0  0  0  0  0
    3.3377   28.2736   15.6211 H   0  0  0  0  0  0  0  0  0  0  0  0
    4.3081   24.2207   11.3071 H   0  0  0  0  0  0  0  0  0  0  0  0
    4.5145   26.3952   12.9320 H   0  0  0  0  0  0  0  0  0  0  0  0
    1.6769   22.0627   15.1371 H   0  0  0  0  0  0  0  0  0  0  0  0
    0.4112   21.0523   14.9281 H   0  0  0  0  0  0  0  0  0  0  0  0
    0.6575   21.6079   12.4436 H   0  0  0  0  0  0  0  0  0  0  0  0
   -0.0453   22.7505   13.3748 H   0  0  0  0  0  0  0  0  0  0  0  0
  1 11  2  0  0  0  0
  2  9  1  0  0  0  0
  3 13  2  0  0  0  0
  4 12  1  0  0  0  0
  5 11  1  0  0  0  0
  5 14  1  0  0  0  0
  6 12  2  0  0  0  0
  6 13  1  0  0  0  0
  7 12  1  0  0  0  0
  7 14  1  0  0  0  0
  8 10  1  0  0  0  0
  8 11  1  0  0  0  0
  8 15  1  0  0  0  0
  9 10  1  0  0  0  0
 13 15  1  0  0  0  0
 14 15  2  0  0  0  0
  2 16  1  0  0  0  0
  4 17  1  0  0  0  0
  4 18  1  0  0  0  0
  5 19  1  0  0  0  0
  7 20  1  0  0  0  0
  9 21  1  0  0  0  0
  9 22  1  0  0  0  0
 10 23  1  0  0  0  0
 10 24  1  0  0  0  0
M  END
> <pdb_id>
4AD6

> <uniprot_id>
nan

> <usmiles>
S=C1N(C=2C(=O)N=C(NC2N1)N)CCO

$$$$
GSZ_A_1626
          07192421263D 1   1.00000     0.00000     0
            
 54 56  0  0  0  0            999 V2000
   28.5320   40.8310   21.8280 O   0  0  0  0  0  0  0  0  0  0  0  0
   34.3250   40.7810   22.3200 O   0  0  0  0  0  0  0  0  0  0  0  0
   32.2910   44.5600   22.8210 O   0  0  0  0  0  0  0  0  0  0  0  0
   30.3000   42.8810   23.9690 O   0  0  0  0  0  0  0  0  0  0  0  0
   34.4150   42.8330   21.3140 N   0  0  0  0  0  0  0  0  0  0  0  0
   32.4450   41.5340   19.0930 N   0  0  0  0  0  0  0  0  0  0  0  0
   31.2900   41.0200   20.9070 N   0  0  0  0  0  0  0  0  0  0  0  0
   37.1090   40.4740   22.5240 C   0  0  0  0  0  0  0  0  0  0  0  0
   37.0330   42.9790   22.5650 C   0  0  0  0  0  0  0  0  0  0  0  0
   29.5680   40.3700   22.6510 C   0  0  0  0  0  0  0  0  0  0  0  0
   30.9460   40.1880   19.9240 C   0  0  0  0  0  0  0  0  0  0  0  0
   27.4000   42.4620   16.1150 C   0  0  0  0  0  0  0  0  0  0  0  0
   27.6060   41.1840   15.5930 C   0  0  0  0  0  0  0  0  0  0  0  0
   28.4610   43.1830   16.6960 C   0  0  0  0  0  0  0  0  0  0  0  0
   31.5430   39.7580   17.4630 C   0  0  0  0  0  0  0  0  0  0  0  0
   28.8900   40.6290   15.6690 C   0  0  0  0  0  0  0  0  0  0  0  0
   29.7370   42.6290   16.7710 C   0  0  0  0  0  0  0  0  0  0  0  0
   31.3720   40.7370   16.3070 C   0  0  0  0  0  0  0  0  0  0  0  0
   34.9720   41.7350   21.8580 C   0  0  0  0  0  0  0  0  0  0  0  0
   32.2770   41.8850   20.3670 C   0  0  0  0  0  0  0  0  0  0  0  0
   32.2780   43.1860   22.5720 C   0  0  1  0  0  0  0  0  0  0  0  0
   30.8330   42.6510   22.6560 C   0  0  1  0  0  0  0  0  0  0  0  0
   31.6290   40.5070   18.8130 C   0  0  0  0  0  0  0  0  0  0  0  0
   32.9330   43.0140   21.2010 C   0  0  1  0  0  0  0  0  0  0  0  0
   36.5190   41.7320   21.8600 C   0  0  0  0  0  0  0  0  0  0  0  0
   30.8690   41.1540   22.3300 C   0  0  2  0  0  0  0  0  0  0  0  0
   29.9540   41.3460   16.2500 C   0  0  0  0  0  0  0  0  0  0  0  0
   27.6933   40.3267   22.0338 H   0  0  0  0  0  0  0  0  0  0  0  0
   33.2297   44.9000   22.7651 H   0  0  0  0  0  0  0  0  0  0  0  0
   29.3641   42.5316   24.0148 H   0  0  0  0  0  0  0  0  0  0  0  0
   35.0147   43.5564   20.9718 H   0  0  0  0  0  0  0  0  0  0  0  0
   36.7674   39.6588   22.0562 H   0  0  0  0  0  0  0  0  0  0  0  0
   38.1067   40.5008   22.4614 H   0  0  0  0  0  0  0  0  0  0  0  0
   36.8360   40.4455   23.4856 H   0  0  0  0  0  0  0  0  0  0  0  0
   36.6463   43.7917   22.1291 H   0  0  0  0  0  0  0  0  0  0  0  0
   36.7599   42.9547   23.5267 H   0  0  0  0  0  0  0  0  0  0  0  0
   38.0306   43.0100   22.5024 H   0  0  0  0  0  0  0  0  0  0  0  0
   29.7166   39.3950   22.4858 H   0  0  0  0  0  0  0  0  0  0  0  0
   29.3209   40.5118   23.6096 H   0  0  0  0  0  0  0  0  0  0  0  0
   30.2833   39.4432   20.0018 H   0  0  0  0  0  0  0  0  0  0  0  0
   26.4881   42.8705   16.0759 H   0  0  0  0  0  0  0  0  0  0  0  0
   26.8536   40.6758   15.1740 H   0  0  0  0  0  0  0  0  0  0  0  0
   28.2970   44.1007   17.0579 H   0  0  0  0  0  0  0  0  0  0  0  0
   32.3830   39.2331   17.3258 H   0  0  0  0  0  0  0  0  0  0  0  0
   30.7606   39.1356   17.4833 H   0  0  0  0  0  0  0  0  0  0  0  0
   29.0533   39.7116   15.3060 H   0  0  0  0  0  0  0  0  0  0  0  0
   30.4875   43.1395   17.1906 H   0  0  0  0  0  0  0  0  0  0  0  0
   31.5478   40.2538   15.4493 H   0  0  0  0  0  0  0  0  0  0  0  0
   32.0349   41.4781   16.4141 H   0  0  0  0  0  0  0  0  0  0  0  0
   32.8371   42.7245   23.2607 H   0  0  0  0  0  0  0  0  0  0  0  0
   30.2657   43.1230   21.9812 H   0  0  0  0  0  0  0  0  0  0  0  0
   32.7836   43.8668   20.7006 H   0  0  0  0  0  0  0  0  0  0  0  0
   36.8320   41.7593   20.9106 H   0  0  0  0  0  0  0  0  0  0  0  0
   31.5957   40.7523   22.8874 H   0  0  0  0  0  0  0  0  0  0  0  0
  1 10  1  0  0  0  0
  2 19  2  0  0  0  0
  3 21  1  0  0  0  0
  4 22  1  0  0  0  0
  5 19  1  0  0  0  0
  5 24  1  0  0  0  0
  6 20  2  0  0  0  0
  6 23  1  0  0  0  0
  7 11  1  0  0  0  0
  7 20  1  0  0  0  0
  7 26  1  0  0  0  0
  8 25  1  0  0  0  0
  9 25  1  0  0  0  0
 10 26  1  0  0  0  0
 11 23  2  0  0  0  0
 12 13  2  0  0  0  0
 12 14  1  0  0  0  0
 13 16  1  0  0  0  0
 14 17  2  0  0  0  0
 15 18  1  0  0  0  0
 15 23  1  0  0  0  0
 16 27  2  0  0  0  0
 17 27  1  0  0  0  0
 18 27  1  0  0  0  0
 19 25  1  0  0  0  0
 20 24  1  0  0  0  0
 21 22  1  0  0  0  0
 21 24  1  0  0  0  0
 22 26  1  0  0  0  0
  1 28  1  0  0  0  0
  3 29  1  0  0  0  0
  4 30  1  0  0  0  0
  5 31  1  0  0  0  0
  8 32  1  0  0  0  0
  8 33  1  0  0  0  0
  8 34  1  0  0  0  0
  9 35  1  0  0  0  0
  9 36  1  0  0  0  0
  9 37  1  0  0  0  0
 10 38  1  0  0  0  0
 10 39  1  0  0  0  0
 11 40  1  0  0  0  0
 12 41  1  0  0  0  0
 13 42  1  0  0  0  0
 14 43  1  0  0  0  0
 15 44  1  0  0  0  0
 15 45  1  0  0  0  0
 16 46  1  0  0  0  0
 17 47  1  0  0  0  0
 18 48  1  0  0  0  0
 18 49  1  0  0  0  0
 21 50  1  0  0  0  0
 22 51  1  0  0  0  0
 24 52  1  0  0  0  0
 25 53  1  0  0  0  0
 26 54  1  0  0  0  0
M  END
> <pdb_id>
2J62

> <uniprot_id>
Q0TR53

> <usmiles>
O=C(N[C@H]1C2=NC(=CN2[C@@H]([C@@H](O)[C@@H]1O)CO)CCc3ccccc3)C(C)C

$$$$
GTL_A_1446
          07192418433D 1   1.00000     0.00000     0
            
 25 25  0  0  0  0            999 V2000
   -1.3187    9.5964   12.4140 O   0  0  0  0  0  0  0  0  0  0  0  0
   -3.0438    8.3984    8.4994 O   0  0  0  0  0  0  0  0  0  0  0  0
    0.6919   12.7511   10.2605 O   0  0  0  0  0  0  0  0  0  0  0  0
    0.8502   12.2628    7.4927 O   0  0  0  0  0  0  0  0  0  0  0  0
   -0.5024    9.7744    7.5310 O   0  0  0  0  0  0  0  0  0  0  0  0
   -0.4781   10.4552   11.6872 N   0  0  0  0  0  0  0  0  0  0  0  0
   -2.1188   10.4865    9.9602 N   0  0  0  0  0  0  0  0  0  0  0  0
   -3.4868    9.6913    8.1766 C   0  0  0  0  0  0  0  0  0  0  0  0
   -0.8192   10.8060   10.4479 C   0  0  0  0  0  0  0  0  0  0  0  0
    0.2727   11.5515    9.6527 C   0  0  1  0  0  0  0  0  0  0  0  0
   -0.2796   11.9994    8.2967 C   0  0  2  0  0  0  0  0  0  0  0  0
   -1.2457   10.9656    7.6562 C   0  0  2  0  0  0  0  0  0  0  0  0
   -2.4771   10.7843    8.5715 C   0  0  2  0  0  0  0  0  0  0  0  0
   -1.0732    9.3262   13.3449 H   0  0  0  0  0  0  0  0  0  0  0  0
   -3.7346    7.7305    8.2225 H   0  0  0  0  0  0  0  0  0  0  0  0
    1.3967   13.1819    9.6968 H   0  0  0  0  0  0  0  0  0  0  0  0
    0.5519   12.5620    6.5864 H   0  0  0  0  0  0  0  0  0  0  0  0
   -1.0759    9.0652    7.1211 H   0  0  0  0  0  0  0  0  0  0  0  0
   -2.7880   10.0580   10.5673 H   0  0  0  0  0  0  0  0  0  0  0  0
   -4.3474    9.8631    8.6562 H   0  0  0  0  0  0  0  0  0  0  0  0
   -3.6399    9.7394    7.1896 H   0  0  0  0  0  0  0  0  0  0  0  0
    1.0597   10.9502    9.5147 H   0  0  0  0  0  0  0  0  0  0  0  0
   -0.7784   12.8561    8.4280 H   0  0  0  0  0  0  0  0  0  0  0  0
   -1.5355   11.2833    6.7534 H   0  0  0  0  0  0  0  0  0  0  0  0
   -2.9712   11.6536    8.5753 H   0  0  0  0  0  0  0  0  0  0  0  0
  1  6  1  0  0  0  0
  2  8  1  0  0  0  0
  3 10  1  0  0  0  0
  4 11  1  0  0  0  0
  5 12  1  0  0  0  0
  6  9  2  0  0  0  0
  7  9  1  0  0  0  0
  7 13  1  0  0  0  0
  8 13  1  0  0  0  0
  9 10  1  0  0  0  0
 10 11  1  0  0  0  0
 11 12  1  0  0  0  0
 12 13  1  0  0  0  0
  1 14  1  0  0  0  0
  2 15  1  0  0  0  0
  3 16  1  0  0  0  0
  4 17  1  0  0  0  0
  5 18  1  0  0  0  0
  7 19  1  0  0  0  0
  8 20  1  0  0  0  0
  8 21  1  0  0  0  0
 10 22  1  0  0  0  0
 11 23  1  0  0  0  0
 12 24  1  0  0  0  0
 13 25  1  0  0  0  0
M  END
> <pdb_id>
2J79

> <uniprot_id>
Q08638

> <usmiles>
ON=C1N[C@@H]([C@H](O)[C@H](O)[C@H]1O)CO

$$$$
GTL_A_1490
          07192418423D 1   1.00000     0.00000     0
            
 25 25  0  0  0  0            999 V2000
  139.0839   89.5284   73.7586 O   0  0  0  0  0  0  0  0  0  0  0  0
  138.2428   88.5398   69.5067 O   0  0  0  0  0  0  0  0  0  0  0  0
  139.7964   93.5008   72.6540 O   0  0  0  0  0  0  0  0  0  0  0  0
  140.3155   93.7973   69.7664 O   0  0  0  0  0  0  0  0  0  0  0  0
  140.2702   90.9545   69.3179 O   0  0  0  0  0  0  0  0  0  0  0  0
  139.4474   90.8307   73.4340 N   0  0  0  0  0  0  0  0  0  0  0  0
  138.3669   90.4365   71.3910 N   0  0  0  0  0  0  0  0  0  0  0  0
  137.4319   89.6712   69.2572 C   0  0  0  0  0  0  0  0  0  0  0  0
  139.2286   91.2109   72.1831 C   0  0  0  0  0  0  0  0  0  0  0  0
  139.9937   92.4679   71.7163 C   0  0  1  0  0  0  0  0  0  0  0  0
  139.4026   92.9031   70.3682 C   0  0  2  0  0  0  0  0  0  0  0  0
  139.0917   91.7274   69.3999 C   0  0  2  0  0  0  0  0  0  0  0  0
  137.9505   90.9046   70.0594 C   0  0  2  0  0  0  0  0  0  0  0  0
  139.2256   89.1866   74.6876 H   0  0  0  0  0  0  0  0  0  0  0  0
  137.8965   87.7599   68.9853 H   0  0  0  0  0  0  0  0  0  0  0  0
  140.2896   94.3187   72.3577 H   0  0  0  0  0  0  0  0  0  0  0  0
  139.9547   94.0980   68.8836 H   0  0  0  0  0  0  0  0  0  0  0  0
  140.1194   90.1809   68.7024 H   0  0  0  0  0  0  0  0  0  0  0  0
  138.0328   89.5588   71.7346 H   0  0  0  0  0  0  0  0  0  0  0  0
  136.4924   89.4700   69.5344 H   0  0  0  0  0  0  0  0  0  0  0  0
  137.4532   89.8820   68.2799 H   0  0  0  0  0  0  0  0  0  0  0  0
  140.9685   92.2665   71.6203 H   0  0  0  0  0  0  0  0  0  0  0  0
  138.5510   93.3969   70.5446 H   0  0  0  0  0  0  0  0  0  0  0  0
  138.8185   92.0649   68.4991 H   0  0  0  0  0  0  0  0  0  0  0  0
  137.1750   91.5224   70.1900 H   0  0  0  0  0  0  0  0  0  0  0  0
  1  6  1  0  0  0  0
  2  8  1  0  0  0  0
  3 10  1  0  0  0  0
  4 11  1  0  0  0  0
  5 12  1  0  0  0  0
  6  9  2  0  0  0  0
  7  9  1  0  0  0  0
  7 13  1  0  0  0  0
  8 13  1  0  0  0  0
  9 10  1  0  0  0  0
 10 11  1  0  0  0  0
 11 12  1  0  0  0  0
 12 13  1  0  0  0  0
  1 14  1  0  0  0  0
  2 15  1  0  0  0  0
  3 16  1  0  0  0  0
  4 17  1  0  0  0  0
  5 18  1  0  0  0  0
  7 19  1  0  0  0  0
  8 20  1  0  0  0  0
  8 21  1  0  0  0  0
 10 22  1  0  0  0  0
 11 23  1  0  0  0  0
 12 24  1  0  0  0  0
 13 25  1  0  0  0  0
M  END
> <pdb_id>
1UWT

> <uniprot_id>
P22498

> <usmiles>
ON=C1N[C@@H]([C@H](O)[C@H](O)[C@H]1O)CO

$$$$
GTL_B_1446
          07192418433D 1   1.00000     0.00000     0
            
 25 25  0  0  0  0            999 V2000
   -1.2602    9.4685   12.1950 O   0  0  0  0  0  0  0  0  0  0  0  0
   -3.1425    8.5683    8.4259 O   0  0  0  0  0  0  0  0  0  0  0  0
    0.7067   12.7716   10.3148 O   0  0  0  0  0  0  0  0  0  0  0  0
    0.7782   12.3321    7.3815 O   0  0  0  0  0  0  0  0  0  0  0  0
   -0.4946    9.7959    7.5513 O   0  0  0  0  0  0  0  0  0  0  0  0
   -0.5114   10.5484   11.7295 N   0  0  0  0  0  0  0  0  0  0  0  0
   -2.0588   10.4731    9.9415 N   0  0  0  0  0  0  0  0  0  0  0  0
   -3.4563    9.8972    8.0637 C   0  0  0  0  0  0  0  0  0  0  0  0
   -0.7847   10.8604   10.4629 C   0  0  0  0  0  0  0  0  0  0  0  0
    0.3265   11.5825    9.6806 C   0  0  1  0  0  0  0  0  0  0  0  0
   -0.2212   12.0043    8.3076 C   0  0  2  0  0  0  0  0  0  0  0  0
   -1.1849   11.0084    7.6673 C   0  0  2  0  0  0  0  0  0  0  0  0
   -2.4218   10.8891    8.5828 C   0  0  2  0  0  0  0  0  0  0  0  0
   -1.0159    9.2787   13.1459 H   0  0  0  0  0  0  0  0  0  0  0  0
   -3.8428    7.9509    8.0676 H   0  0  0  0  0  0  0  0  0  0  0  0
    1.4282   13.2165    9.7840 H   0  0  0  0  0  0  0  0  0  0  0  0
    0.3557   12.5960    6.5144 H   0  0  0  0  0  0  0  0  0  0  0  0
   -1.0919    9.1108    7.1342 H   0  0  0  0  0  0  0  0  0  0  0  0
    0.1597   11.0371   12.2870 H   0  0  0  0  0  0  0  0  0  0  0  0
   -4.3500   10.1334    8.4450 H   0  0  0  0  0  0  0  0  0  0  0  0
   -3.4922    9.9602    7.0663 H   0  0  0  0  0  0  0  0  0  0  0  0
    1.1178   10.9815    9.5683 H   0  0  0  0  0  0  0  0  0  0  0  0
   -0.7457   12.8418    8.4611 H   0  0  0  0  0  0  0  0  0  0  0  0
   -1.4599   11.3328    6.7622 H   0  0  0  0  0  0  0  0  0  0  0  0
   -2.8548   11.7887    8.6387 H   0  0  0  0  0  0  0  0  0  0  0  0
  1  6  1  0  0  0  0
  2  8  1  0  0  0  0
  3 10  1  0  0  0  0
  4 11  1  0  0  0  0
  5 12  1  0  0  0  0
  6  9  1  0  0  0  0
  7  9  2  0  0  0  0
  7 13  1  0  0  0  0
  8 13  1  0  0  0  0
  9 10  1  0  0  0  0
 10 11  1  0  0  0  0
 11 12  1  0  0  0  0
 12 13  1  0  0  0  0
  1 14  1  0  0  0  0
  2 15  1  0  0  0  0
  3 16  1  0  0  0  0
  4 17  1  0  0  0  0
  5 18  1  0  0  0  0
  6 19  1  0  0  0  0
  8 20  1  0  0  0  0
  8 21  1  0  0  0  0
 10 22  1  0  0  0  0
 11 23  1  0  0  0  0
 12 24  1  0  0  0  0
 13 25  1  0  0  0  0
M  END
> <pdb_id>
2J79

> <uniprot_id>
Q08638

> <usmiles>
ONC1=N[C@@H]([C@H](O)[C@H](O)[C@H]1O)CO

$$$$
GTV_A_301
          07212402403D 1   1.00000     0.00000     0
            
 31 32  0  0  0  0            999 V2000
   19.0008   16.9150   10.7467 P   0  0  0  0  0  0  0  0  0  0  0  0
   19.1322   17.1357   11.9800 O   0  0  0  0  0  0  0  0  0  0  0  0
   19.5285   15.4774   10.4643 O   0  0  0  0  0  0  0  0  0  0  0  0
   17.5816   17.1355   10.2698 O   0  0  0  0  0  0  0  0  0  0  0  0
   18.3262   18.4773    5.5916 O   0  0  0  0  0  0  0  0  0  0  0  0
   20.2147   17.6352    5.7025 O   0  0  0  0  0  0  0  0  0  0  0  0
   24.4226   15.3410    5.3798 C   0  0  0  0  0  0  0  0  0  0  0  0
   22.7481   16.5737    9.7979 C   0  0  0  0  0  0  0  0  0  0  0  0
   20.1461   18.1148    9.8485 C   0  0  0  0  0  0  0  0  0  0  0  0
   22.2317   16.5529    5.6286 C   0  0  0  0  0  0  0  0  0  0  0  0
   19.2214   18.3705    7.6088 C   0  0  0  0  0  0  0  0  0  0  0  0
   23.4366   16.0457    7.5620 C   0  0  0  0  0  0  0  0  0  0  0  0
   19.1705   18.1920    6.2758 C   0  0  0  0  0  0  0  0  0  0  0  0
   21.2219   17.1509    6.3977 C   0  0  0  0  0  0  0  0  0  0  0  0
   23.3184   16.0090    6.2340 C   0  0  0  0  0  0  0  0  0  0  0  0
   22.4735   16.6121    8.3336 C   0  0  0  0  0  0  0  0  0  0  0  0
   20.2322   17.8710    8.3860 C   0  0  0  0  0  0  0  0  0  0  0  0
   21.3223   17.2008    7.7310 C   0  0  0  0  0  0  0  0  0  0  0  0
   18.8002   18.0550   12.1913 H   0  0  0  0  0  0  0  0  0  0  0  0
   19.4363   15.2740    9.4895 H   0  0  0  0  0  0  0  0  0  0  0  0
   25.1444   14.9952    5.9793 H   0  0  0  0  0  0  0  0  0  0  0  0
   24.0291   14.5827    4.8602 H   0  0  0  0  0  0  0  0  0  0  0  0
   24.8079   16.0136    4.7480 H   0  0  0  0  0  0  0  0  0  0  0  0
   21.9942   17.0089   10.2900 H   0  0  0  0  0  0  0  0  0  0  0  0
   22.8359   15.6231   10.0958 H   0  0  0  0  0  0  0  0  0  0  0  0
   23.5986   17.0632    9.9905 H   0  0  0  0  0  0  0  0  0  0  0  0
   21.0630   18.0285   10.2381 H   0  0  0  0  0  0  0  0  0  0  0  0
   19.8079   19.0444    9.9948 H   0  0  0  0  0  0  0  0  0  0  0  0
   22.1508   16.5273    4.6322 H   0  0  0  0  0  0  0  0  0  0  0  0
   18.4899   18.8899    8.0505 H   0  0  0  0  0  0  0  0  0  0  0  0
   24.2463   15.6503    7.9957 H   0  0  0  0  0  0  0  0  0  0  0  0
  1  2  1  0  0  0  0
  1  3  1  0  0  0  0
  1  4  2  0  0  0  0
  1  9  1  0  0  0  0
  5 13  2  0  0  0  0
  6 13  1  0  0  0  0
  6 14  1  0  0  0  0
  7 15  1  0  0  0  0
  8 16  1  0  0  0  0
  9 17  1  0  0  0  0
 10 14  1  0  0  0  0
 10 15  2  0  0  0  0
 11 13  1  0  0  0  0
 11 17  2  0  0  0  0
 12 15  1  0  0  0  0
 12 16  2  0  0  0  0
 14 18  2  0  0  0  0
 16 18  1  0  0  0  0
 17 18  1  0  0  0  0
  2 19  1  0  0  0  0
  3 20  1  0  0  0  0
  7 21  1  0  0  0  0
  7 22  1  0  0  0  0
  7 23  1  0  0  0  0
  8 24  1  0  0  0  0
  8 25  1  0  0  0  0
  8 26  1  0  0  0  0
  9 27  1  0  0  0  0
  9 28  1  0  0  0  0
 10 29  1  0  0  0  0
 11 30  1  0  0  0  0
 12 31  1  0  0  0  0
M  END
> <pdb_id>
6D18

> <uniprot_id>
Q9F663

> <usmiles>
P(=O)(O)(O)CC=1c2c(OC(=O)C1)cc(cc2C)C

$$$$
GTV_A_303
          07212402403D 1   1.00000     0.00000     0
            
 31 32  0  0  0  0            999 V2000
   49.2998    9.1395   45.9689 P   0  0  0  0  0  0  0  0  0  0  0  0
   48.2552    9.1624   46.8815 O   0  0  0  0  0  0  0  0  0  0  0  0
   49.8027    7.7521   45.7770 O   0  0  0  0  0  0  0  0  0  0  0  0
   48.7507    9.6978   44.6815 O   0  0  0  0  0  0  0  0  0  0  0  0
   48.6030   13.7991   48.6642 O   0  0  0  0  0  0  0  0  0  0  0  0
   49.2676   14.1064   46.6366 O   0  0  0  0  0  0  0  0  0  0  0  0
   50.6503   15.1778   42.0882 C   0  0  0  0  0  0  0  0  0  0  0  0
   51.8732   10.8758   43.9206 C   0  0  0  0  0  0  0  0  0  0  0  0
   50.7215   10.1910   46.6200 C   0  0  0  0  0  0  0  0  0  0  0  0
   49.9348   14.6216   44.4544 C   0  0  0  0  0  0  0  0  0  0  0  0
   49.6032   12.1161   47.6815 C   0  0  0  0  0  0  0  0  0  0  0  0
   51.1706   13.0497   43.2329 C   0  0  0  0  0  0  0  0  0  0  0  0
   49.1447   13.4179   47.7271 C   0  0  0  0  0  0  0  0  0  0  0  0
   49.8860   13.7230   45.5428 C   0  0  0  0  0  0  0  0  0  0  0  0
   50.5718   14.2656   43.3096 C   0  0  0  0  0  0  0  0  0  0  0  0
   51.1422   12.1645   44.2782 C   0  0  0  0  0  0  0  0  0  0  0  0
   50.3216   11.6666   46.6246 C   0  0  0  0  0  0  0  0  0  0  0  0
   50.4588   12.5056   45.4750 C   0  0  0  0  0  0  0  0  0  0  0  0
   47.9327   10.1021   46.9955 H   0  0  0  0  0  0  0  0  0  0  0  0
   50.5538    7.7581   45.1168 H   0  0  0  0  0  0  0  0  0  0  0  0
   51.1625   14.7192   41.3621 H   0  0  0  0  0  0  0  0  0  0  0  0
   49.7263   15.3832   41.7657 H   0  0  0  0  0  0  0  0  0  0  0  0
   51.1134   16.0285   42.3368 H   0  0  0  0  0  0  0  0  0  0  0  0
   51.8392   10.2468   44.6972 H   0  0  0  0  0  0  0  0  0  0  0  0
   51.4335   10.4519   43.1287 H   0  0  0  0  0  0  0  0  0  0  0  0
   52.8265   11.0832   43.7011 H   0  0  0  0  0  0  0  0  0  0  0  0
   51.5213   10.0665   46.0328 H   0  0  0  0  0  0  0  0  0  0  0  0
   50.9447    9.9055   47.5520 H   0  0  0  0  0  0  0  0  0  0  0  0
   49.5005   15.5194   44.5270 H   0  0  0  0  0  0  0  0  0  0  0  0
   49.4020   11.4961   48.4398 H   0  0  0  0  0  0  0  0  0  0  0  0
   51.6451   12.7932   42.3908 H   0  0  0  0  0  0  0  0  0  0  0  0
  1  2  1  0  0  0  0
  1  3  1  0  0  0  0
  1  4  2  0  0  0  0
  1  9  1  0  0  0  0
  5 13  2  0  0  0  0
  6 13  1  0  0  0  0
  6 14  1  0  0  0  0
  7 15  1  0  0  0  0
  8 16  1  0  0  0  0
  9 17  1  0  0  0  0
 10 14  1  0  0  0  0
 10 15  2  0  0  0  0
 11 13  1  0  0  0  0
 11 17  2  0  0  0  0
 12 15  1  0  0  0  0
 12 16  2  0  0  0  0
 14 18  2  0  0  0  0
 16 18  1  0  0  0  0
 17 18  1  0  0  0  0
  2 19  1  0  0  0  0
  3 20  1  0  0  0  0
  7 21  1  0  0  0  0
  7 22  1  0  0  0  0
  7 23  1  0  0  0  0
  8 24  1  0  0  0  0
  8 25  1  0  0  0  0
  8 26  1  0  0  0  0
  9 27  1  0  0  0  0
  9 28  1  0  0  0  0
 10 29  1  0  0  0  0
 11 30  1  0  0  0  0
 12 31  1  0  0  0  0
M  END
> <pdb_id>
6D1D

> <uniprot_id>
C7C422

> <usmiles>
P(=O)(O)(O)CC=1c2c(OC(=O)C1)cc(cc2C)C

$$$$
GUJ_A_201
          07212401333D 1   1.00000     0.00000     0
            
 39 42  0  0  0  0            999 V2000
  -14.5915  -19.6814  -20.7787 S   0  0  0  0  0  0  0  0  0  0  0  0
  -14.9292  -24.3021  -19.8309 O   0  0  0  0  0  0  0  0  0  0  0  0
  -16.8904  -22.6995  -23.2885 N   0  0  0  0  0  0  0  0  0  0  0  0
  -16.0775  -23.7782  -22.9828 N   0  0  0  0  0  0  0  0  0  0  0  0
  -15.5450  -22.0941  -21.6781 N   0  0  0  0  0  0  0  0  0  0  0  0
  -13.3602  -18.2983  -18.6892 C   0  0  0  0  0  0  0  0  0  0  0  0
  -17.2214  -20.3704  -22.4942 C   0  0  0  0  0  0  0  0  0  0  0  0
  -14.4248  -24.2806  -21.1588 C   0  0  0  0  0  0  0  0  0  0  0  0
  -14.3567  -23.3148  -18.9878 C   0  0  0  0  0  0  0  0  0  0  0  0
  -16.4743  -22.0121  -14.5038 C   0  0  0  0  0  0  0  0  0  0  0  0
  -16.4917  -20.8391  -15.2327 C   0  0  0  0  0  0  0  0  0  0  0  0
  -15.4253  -22.8985  -14.6590 C   0  0  0  0  0  0  0  0  0  0  0  0
  -15.4577  -20.5486  -16.1108 C   0  0  0  0  0  0  0  0  0  0  0  0
  -14.3794  -22.5977  -15.5180 C   0  0  0  0  0  0  0  0  0  0  0  0
  -13.2745  -21.1164  -17.2405 C   0  0  0  0  0  0  0  0  0  0  0  0
  -14.8622  -21.3887  -20.6722 C   0  0  0  0  0  0  0  0  0  0  0  0
  -13.8342  -19.6195  -19.2128 C   0  0  0  0  0  0  0  0  0  0  0  0
  -16.5674  -21.7052  -22.5028 C   0  0  0  0  0  0  0  0  0  0  0  0
  -15.2962  -23.4049  -22.0067 C   0  0  0  0  0  0  0  0  0  0  0  0
  -14.3846  -21.4211  -16.2593 C   0  0  0  0  0  0  0  0  0  0  0  0
  -14.3523  -21.8924  -19.4550 C   0  0  0  0  0  0  0  0  0  0  0  0
  -13.7799  -20.8539  -18.6346 C   0  0  0  0  0  0  0  0  0  0  0  0
  -12.9508  -18.4253  -17.7857 H   0  0  0  0  0  0  0  0  0  0  0  0
  -12.6782  -17.9175  -19.3136 H   0  0  0  0  0  0  0  0  0  0  0  0
  -14.1351  -17.6703  -18.6187 H   0  0  0  0  0  0  0  0  0  0  0  0
  -16.7894  -19.7920  -21.8023 H   0  0  0  0  0  0  0  0  0  0  0  0
  -17.1222  -19.9448  -23.3937 H   0  0  0  0  0  0  0  0  0  0  0  0
  -18.1927  -20.4764  -22.2810 H   0  0  0  0  0  0  0  0  0  0  0  0
  -14.4225  -25.2090  -21.5301 H   0  0  0  0  0  0  0  0  0  0  0  0
  -13.4919  -23.9205  -21.1557 H   0  0  0  0  0  0  0  0  0  0  0  0
  -13.4046  -23.5769  -18.8304 H   0  0  0  0  0  0  0  0  0  0  0  0
  -14.8567  -23.3398  -18.1221 H   0  0  0  0  0  0  0  0  0  0  0  0
  -17.2170  -22.2191  -13.8669 H   0  0  0  0  0  0  0  0  0  0  0  0
  -17.2515  -20.1975  -15.1273 H   0  0  0  0  0  0  0  0  0  0  0  0
  -15.4206  -23.7594  -14.1502 H   0  0  0  0  0  0  0  0  0  0  0  0
  -15.4840  -19.7024  -16.6429 H   0  0  0  0  0  0  0  0  0  0  0  0
  -13.6128  -23.2339  -15.6054 H   0  0  0  0  0  0  0  0  0  0  0  0
  -12.6508  -21.8975  -17.2691 H   0  0  0  0  0  0  0  0  0  0  0  0
  -12.7809  -20.3071  -16.9223 H   0  0  0  0  0  0  0  0  0  0  0  0
  1 16  1  0  0  0  0
  1 17  1  0  0  0  0
  2  8  1  0  0  0  0
  2  9  1  0  0  0  0
  3  4  1  0  0  0  0
  3 18  2  0  0  0  0
  4 19  2  0  0  0  0
  5 16  1  0  0  0  0
  5 18  1  0  0  0  0
  5 19  1  0  0  0  0
  6 17  1  0  0  0  0
  7 18  1  0  0  0  0
  8 19  1  0  0  0  0
  9 21  1  0  0  0  0
 10 11  2  0  0  0  0
 10 12  1  0  0  0  0
 11 13  1  0  0  0  0
 12 14  2  0  0  0  0
 13 20  2  0  0  0  0
 14 20  1  0  0  0  0
 15 20  1  0  0  0  0
 15 22  1  0  0  0  0
 16 21  2  0  0  0  0
 17 22  2  0  0  0  0
 21 22  1  0  0  0  0
  6 23  1  0  0  0  0
  6 24  1  0  0  0  0
  6 25  1  0  0  0  0
  7 26  1  0  0  0  0
  7 27  1  0  0  0  0
  7 28  1  0  0  0  0
  8 29  1  0  0  0  0
  8 30  1  0  0  0  0
  9 31  1  0  0  0  0
  9 32  1  0  0  0  0
 10 33  1  0  0  0  0
 11 34  1  0  0  0  0
 12 35  1  0  0  0  0
 13 36  1  0  0  0  0
 14 37  1  0  0  0  0
 15 38  1  0  0  0  0
 15 39  1  0  0  0  0
M  END
> <pdb_id>
6DL2

> <uniprot_id>
O60885

> <usmiles>
S1C=2N3C(=NN=C3C)COCC2C(=C1C)Cc4ccccc4

$$$$
GUN_A_247
          07202404013D 1   1.00000     0.00000     0
            
 16 17  0  0  0  0            999 V2000
   22.5359    8.3130   12.4937 O   0  0  0  0  0  0  0  0  0  0  0  0
   21.3457    3.9479   13.2459 N   0  0  0  0  0  0  0  0  0  0  0  0
   20.7945    5.8174    8.9667 N   0  0  0  0  0  0  0  0  0  0  0  0
   21.5927    7.8463    9.5354 N   0  0  0  0  0  0  0  0  0  0  0  0
   21.9567    6.1760   12.8758 N   0  0  0  0  0  0  0  0  0  0  0  0
   21.0571    4.8023   11.1430 N   0  0  0  0  0  0  0  0  0  0  0  0
   21.0793    7.0721    8.5391 C   0  0  0  0  0  0  0  0  0  0  0  0
   21.4622    4.9998   12.4199 C   0  0  0  0  0  0  0  0  0  0  0  0
   22.0858    7.2458   12.0639 C   0  0  0  0  0  0  0  0  0  0  0  0
   21.1385    5.8021   10.2588 C   0  0  0  0  0  0  0  0  0  0  0  0
   21.6621    7.1073   10.6454 C   0  0  0  0  0  0  0  0  0  0  0  0
   20.9802    3.0820   12.9043 H   0  0  0  0  0  0  0  0  0  0  0  0
   21.6246    4.0302   14.2027 H   0  0  0  0  0  0  0  0  0  0  0  0
   20.4100    5.0654    8.4312 H   0  0  0  0  0  0  0  0  0  0  0  0
   22.2317    6.2528   13.8342 H   0  0  0  0  0  0  0  0  0  0  0  0
   20.9302    7.3913    7.6032 H   0  0  0  0  0  0  0  0  0  0  0  0
  1  9  2  0  0  0  0
  2  8  1  0  0  0  0
  3  7  1  0  0  0  0
  3 10  1  0  0  0  0
  4  7  2  0  0  0  0
  4 11  1  0  0  0  0
  5  8  1  0  0  0  0
  5  9  1  0  0  0  0
  6  8  2  0  0  0  0
  6 10  1  0  0  0  0
  9 11  1  0  0  0  0
 10 11  2  0  0  0  0
  2 12  1  0  0  0  0
  2 13  1  0  0  0  0
  3 14  1  0  0  0  0
  5 15  1  0  0  0  0
  7 16  1  0  0  0  0
M  END
> <pdb_id>
3N3X

> <uniprot_id>
nan

> <usmiles>
O=C1NC(=NC=2NC=NC12)N

$$$$
GUN_A_290
          07202401043D 1   1.00000     0.00000     0
            
 16 17  0  0  0  0            999 V2000
   68.2589   36.0718   60.5243 O   0  0  0  0  0  0  0  0  0  0  0  0
   69.3050   34.3025   56.3403 N   0  0  0  0  0  0  0  0  0  0  0  0
   71.7320   37.9538   58.2891 N   0  0  0  0  0  0  0  0  0  0  0  0
   70.5119   38.0147   60.1142 N   0  0  0  0  0  0  0  0  0  0  0  0
   68.7545   35.1603   58.4839 N   0  0  0  0  0  0  0  0  0  0  0  0
   70.5452   36.0957   57.2130 N   0  0  0  0  0  0  0  0  0  0  0  0
   71.5491   38.5818   59.4475 C   0  0  0  0  0  0  0  0  0  0  0  0
   69.5525   35.1859   57.3175 C   0  0  0  0  0  0  0  0  0  0  0  0
   68.9824   36.0949   59.5134 C   0  0  0  0  0  0  0  0  0  0  0  0
   70.7889   36.9945   58.1855 C   0  0  0  0  0  0  0  0  0  0  0  0
   70.0335   37.0159   59.3594 C   0  0  0  0  0  0  0  0  0  0  0  0
   69.8608   34.3078   55.5090 H   0  0  0  0  0  0  0  0  0  0  0  0
   68.5647   33.6381   56.4426 H   0  0  0  0  0  0  0  0  0  0  0  0
   72.4421   38.1567   57.6149 H   0  0  0  0  0  0  0  0  0  0  0  0
   71.1146   36.1020   56.3910 H   0  0  0  0  0  0  0  0  0  0  0  0
   72.0928   39.3538   59.7768 H   0  0  0  0  0  0  0  0  0  0  0  0
  1  9  2  0  0  0  0
  2  8  1  0  0  0  0
  3  7  1  0  0  0  0
  3 10  1  0  0  0  0
  4  7  2  0  0  0  0
  4 11  1  0  0  0  0
  5  8  2  0  0  0  0
  5  9  1  0  0  0  0
  6  8  1  0  0  0  0
  6 10  1  0  0  0  0
  9 11  1  0  0  0  0
 10 11  2  0  0  0  0
  2 12  1  0  0  0  0
  2 13  1  0  0  0  0
  3 14  1  0  0  0  0
  6 15  1  0  0  0  0
  7 16  1  0  0  0  0
M  END
> <pdb_id>
3BP1

> <uniprot_id>
A6Y463

> <usmiles>
O=C1N=C(NC=2NC=NC12)N

$$$$
GUN_A_401
          07212403273D 1   1.00000     0.00000     0
            
 16 17  0  0  0  0            999 V2000
  -58.4626   -7.8485  -57.2068 O   0  0  0  0  0  0  0  0  0  0  0  0
  -60.4892   -4.5281  -54.6094 N   0  0  0  0  0  0  0  0  0  0  0  0
  -56.6596   -3.6872  -57.0600 N   0  0  0  0  0  0  0  0  0  0  0  0
  -56.4733   -5.7187  -57.9710 N   0  0  0  0  0  0  0  0  0  0  0  0
  -59.4817   -6.2427  -55.9228 N   0  0  0  0  0  0  0  0  0  0  0  0
  -58.6345   -4.0233  -55.7295 N   0  0  0  0  0  0  0  0  0  0  0  0
  -56.0097   -4.4783  -57.9430 C   0  0  0  0  0  0  0  0  0  0  0  0
  -59.5308   -4.9182  -55.4597 C   0  0  0  0  0  0  0  0  0  0  0  0
  -58.4553   -6.6966  -56.7823 C   0  0  0  0  0  0  0  0  0  0  0  0
  -57.6809   -4.4060  -56.5866 C   0  0  0  0  0  0  0  0  0  0  0  0
  -57.5362   -5.7089  -57.1044 C   0  0  0  0  0  0  0  0  0  0  0  0
  -60.5155   -3.5824  -54.2853 H   0  0  0  0  0  0  0  0  0  0  0  0
  -61.1785   -5.1825  -54.2985 H   0  0  0  0  0  0  0  0  0  0  0  0
  -56.4223   -2.7484  -56.8104 H   0  0  0  0  0  0  0  0  0  0  0  0
  -60.1937   -6.8837  -55.6362 H   0  0  0  0  0  0  0  0  0  0  0  0
  -55.2555   -4.1592  -58.5168 H   0  0  0  0  0  0  0  0  0  0  0  0
  1  9  2  0  0  0  0
  2  8  1  0  0  0  0
  3  7  1  0  0  0  0
  3 10  1  0  0  0  0
  4  7  2  0  0  0  0
  4 11  1  0  0  0  0
  5  8  1  0  0  0  0
  5  9  1  0  0  0  0
  6  8  2  0  0  0  0
  6 10  1  0  0  0  0
  9 11  1  0  0  0  0
 10 11  2  0  0  0  0
  2 12  1  0  0  0  0
  2 13  1  0  0  0  0
  3 14  1  0  0  0  0
  5 15  1  0  0  0  0
  7 16  1  0  0  0  0
M  END
> <pdb_id>
6PI5

> <uniprot_id>
Q936X6

> <usmiles>
O=C1NC(=NC=2NC=NC12)N

$$$$
GUN_A_404
          07202407253D 1   1.00000     0.00000     0
            
 16 17  0  0  0  0            999 V2000
  103.4808   16.7110   23.7264 O   0  0  0  0  0  0  0  0  0  0  0  0
   99.2388   15.2810   24.6751 N   0  0  0  0  0  0  0  0  0  0  0  0
  100.8671   15.2725   20.2466 N   0  0  0  0  0  0  0  0  0  0  0  0
  102.8760   16.1096   20.7499 N   0  0  0  0  0  0  0  0  0  0  0  0
  101.3644   15.9957   24.1247 N   0  0  0  0  0  0  0  0  0  0  0  0
   99.8635   15.2080   22.4596 N   0  0  0  0  0  0  0  0  0  0  0  0
  102.0723   15.6778   19.7895 C   0  0  0  0  0  0  0  0  0  0  0  0
  100.1555   15.4915   23.7272 C   0  0  0  0  0  0  0  0  0  0  0  0
  102.4247   16.2710   23.2802 C   0  0  0  0  0  0  0  0  0  0  0  0
  100.8823   15.4659   21.6048 C   0  0  0  0  0  0  0  0  0  0  0  0
  102.1231   15.9739   21.9029 C   0  0  0  0  0  0  0  0  0  0  0  0
   98.3415   14.9136   24.4302 H   0  0  0  0  0  0  0  0  0  0  0  0
   99.4495   15.4907   25.6299 H   0  0  0  0  0  0  0  0  0  0  0  0
  100.1131   14.9044   19.7025 H   0  0  0  0  0  0  0  0  0  0  0  0
  101.4906   16.1790   25.0997 H   0  0  0  0  0  0  0  0  0  0  0  0
  102.3314   15.6541   18.8239 H   0  0  0  0  0  0  0  0  0  0  0  0
  1  9  2  0  0  0  0
  2  8  1  0  0  0  0
  3  7  1  0  0  0  0
  3 10  1  0  0  0  0
  4  7  2  0  0  0  0
  4 11  1  0  0  0  0
  5  8  1  0  0  0  0
  5  9  1  0  0  0  0
  6  8  2  0  0  0  0
  6 10  1  0  0  0  0
  9 11  1  0  0  0  0
 10 11  2  0  0  0  0
  2 12  1  0  0  0  0
  2 13  1  0  0  0  0
  3 14  1  0  0  0  0
  5 15  1  0  0  0  0
  7 16  1  0  0  0  0
M  END
> <pdb_id>
5N6F

> <uniprot_id>
P28720

> <usmiles>
O=C1NC(=NC=2NC=NC12)N

$$$$
GUN_A_4053
          07202404013D 1   1.00000     0.00000     0
            
 16 17  0  0  0  0            999 V2000
   22.5650    8.5170   12.6390 O   0  0  0  0  0  0  0  0  0  0  0  0
   21.2910    3.9180   13.0710 N   0  0  0  0  0  0  0  0  0  0  0  0
   21.0170    5.9780    9.1190 N   0  0  0  0  0  0  0  0  0  0  0  0
   21.7500    7.9670    9.6820 N   0  0  0  0  0  0  0  0  0  0  0  0
   22.0300    6.3170   13.1960 N   0  0  0  0  0  0  0  0  0  0  0  0
   21.2400    5.1080   11.3020 N   0  0  0  0  0  0  0  0  0  0  0  0
   21.2830    7.1870    8.6710 C   0  0  0  0  0  0  0  0  0  0  0  0
   21.5440    5.1380   12.5770 C   0  0  0  0  0  0  0  0  0  0  0  0
   22.1610    7.4000   12.2660 C   0  0  0  0  0  0  0  0  0  0  0  0
   21.3230    6.0220   10.3740 C   0  0  0  0  0  0  0  0  0  0  0  0
   21.7520    7.2450   10.7720 C   0  0  0  0  0  0  0  0  0  0  0  0
   20.9449    3.1972   12.4704 H   0  0  0  0  0  0  0  0  0  0  0  0
   21.4483    3.7285   14.0402 H   0  0  0  0  0  0  0  0  0  0  0  0
   20.6584    5.1997    8.6036 H   0  0  0  0  0  0  0  0  0  0  0  0
   20.8813    4.2301   10.9846 H   0  0  0  0  0  0  0  0  0  0  0  0
   21.1596    7.4877    7.7253 H   0  0  0  0  0  0  0  0  0  0  0  0
  1  9  2  0  0  0  0
  2  8  1  0  0  0  0
  3  7  1  0  0  0  0
  3 10  1  0  0  0  0
  4  7  2  0  0  0  0
  4 11  1  0  0  0  0
  5  8  2  0  0  0  0
  5  9  1  0  0  0  0
  6  8  1  0  0  0  0
  6 10  1  0  0  0  0
  9 11  1  0  0  0  0
 10 11  2  0  0  0  0
  2 12  1  0  0  0  0
  2 13  1  0  0  0  0
  3 14  1  0  0  0  0
  6 15  1  0  0  0  0
  7 16  1  0  0  0  0
M  END
> <pdb_id>
3N1N

> <uniprot_id>
nan

> <usmiles>
O=C1N=C(NC=2NC=NC12)N

$$$$
GUN_A_901
          07202417253D 1   1.00000     0.00000     0
            
 16 17  0  0  0  0            999 V2000
   31.3094   27.1150   35.3760 O   0  0  0  0  0  0  0  0  0  0  0  0
   27.4157   27.5608   37.7548 N   0  0  0  0  0  0  0  0  0  0  0  0
   31.1320   25.2641   39.5826 N   0  0  0  0  0  0  0  0  0  0  0  0
   32.4440   25.5142   37.7614 N   0  0  0  0  0  0  0  0  0  0  0  0
   29.4108   27.2935   36.6148 N   0  0  0  0  0  0  0  0  0  0  0  0
   29.1161   26.4145   38.8405 N   0  0  0  0  0  0  0  0  0  0  0  0
   32.3323   25.0116   38.9711 C   0  0  0  0  0  0  0  0  0  0  0  0
   28.6541   27.0717   37.7508 C   0  0  0  0  0  0  0  0  0  0  0  0
   30.7217   26.8591   36.4225 C   0  0  0  0  0  0  0  0  0  0  0  0
   30.3939   25.9732   38.6622 C   0  0  0  0  0  0  0  0  0  0  0  0
   31.2034   26.1321   37.5526 C   0  0  0  0  0  0  0  0  0  0  0  0
   26.8280   27.4273   38.5528 H   0  0  0  0  0  0  0  0  0  0  0  0
   27.0734   28.0617   36.9599 H   0  0  0  0  0  0  0  0  0  0  0  0
   30.8518   24.9910   40.5029 H   0  0  0  0  0  0  0  0  0  0  0  0
   28.9832   27.8071   35.8709 H   0  0  0  0  0  0  0  0  0  0  0  0
   33.0631   24.4880   39.4091 H   0  0  0  0  0  0  0  0  0  0  0  0
  1  9  2  0  0  0  0
  2  8  1  0  0  0  0
  3  7  1  0  0  0  0
  3 10  1  0  0  0  0
  4  7  2  0  0  0  0
  4 11  1  0  0  0  0
  5  8  1  0  0  0  0
  5  9  1  0  0  0  0
  6  8  2  0  0  0  0
  6 10  1  0  0  0  0
  9 11  1  0  0  0  0
 10 11  2  0  0  0  0
  2 12  1  0  0  0  0
  2 13  1  0  0  0  0
  3 14  1  0  0  0  0
  5 15  1  0  0  0  0
  7 16  1  0  0  0  0
M  END
> <pdb_id>
1XT4

> <uniprot_id>
Q00511

> <usmiles>
O=C1NC(=NC=2NC=NC12)N

$$$$
GUN_B_290
          07202401043D 1   1.00000     0.00000     0
            
 16 17  0  0  0  0            999 V2000
   68.1930   36.0540   60.4910 O   0  0  0  0  0  0  0  0  0  0  0  0
   69.2790   34.2740   56.3830 N   0  0  0  0  0  0  0  0  0  0  0  0
   71.7340   37.9240   58.2610 N   0  0  0  0  0  0  0  0  0  0  0  0
   70.4870   37.9900   60.1180 N   0  0  0  0  0  0  0  0  0  0  0  0
   68.7620   35.1480   58.4710 N   0  0  0  0  0  0  0  0  0  0  0  0
   70.5730   36.0780   57.1750 N   0  0  0  0  0  0  0  0  0  0  0  0
   71.5280   38.5520   59.4600 C   0  0  0  0  0  0  0  0  0  0  0  0
   69.5640   35.1730   57.3120 C   0  0  0  0  0  0  0  0  0  0  0  0
   68.9520   36.0600   59.5040 C   0  0  0  0  0  0  0  0  0  0  0  0
   70.8070   36.9570   58.1650 C   0  0  0  0  0  0  0  0  0  0  0  0
   70.0040   36.9970   59.3340 C   0  0  0  0  0  0  0  0  0  0  0  0
   69.8128   34.2417   55.5380 H   0  0  0  0  0  0  0  0  0  0  0  0
   68.5300   33.6272   56.5263 H   0  0  0  0  0  0  0  0  0  0  0  0
   72.4390   38.1432   57.5865 H   0  0  0  0  0  0  0  0  0  0  0  0
   68.0410   34.4599   58.5523 H   0  0  0  0  0  0  0  0  0  0  0  0
   72.0709   39.3190   59.8020 H   0  0  0  0  0  0  0  0  0  0  0  0
  1  9  2  0  0  0  0
  2  8  1  0  0  0  0
  3  7  1  0  0  0  0
  3 10  1  0  0  0  0
  4  7  2  0  0  0  0
  4 11  1  0  0  0  0
  5  8  1  0  0  0  0
  5  9  1  0  0  0  0
  6  8  2  0  0  0  0
  6 10  1  0  0  0  0
  9 11  1  0  0  0  0
 10 11  2  0  0  0  0
  2 12  1  0  0  0  0
  2 13  1  0  0  0  0
  3 14  1  0  0  0  0
  5 15  1  0  0  0  0
  7 16  1  0  0  0  0
M  END
> <pdb_id>
3BP1

> <uniprot_id>
A6Y463

> <usmiles>
O=C1NC(=NC=2NC=NC12)N

$$$$
GUN_B_304
          07192421073D 1   1.00000     0.00000     0
            
 16 17  0  0  0  0            999 V2000
   20.2051  136.5388   30.1128 O   0  0  0  0  0  0  0  0  0  0  0  0
   23.3343  133.3736   28.9892 N   0  0  0  0  0  0  0  0  0  0  0  0
   21.9207  136.5370   25.8452 N   0  0  0  0  0  0  0  0  0  0  0  0
   20.4835  137.5534   27.2144 N   0  0  0  0  0  0  0  0  0  0  0  0
   21.7219  134.9674   29.4747 N   0  0  0  0  0  0  0  0  0  0  0  0
   22.7195  134.7867   27.3006 N   0  0  0  0  0  0  0  0  0  0  0  0
   21.0249  137.5532   26.0293 C   0  0  0  0  0  0  0  0  0  0  0  0
   22.5841  134.3821   28.5608 C   0  0  0  0  0  0  0  0  0  0  0  0
   20.9084  136.0587   29.2242 C   0  0  0  0  0  0  0  0  0  0  0  0
   21.9330  135.8440   27.0331 C   0  0  0  0  0  0  0  0  0  0  0  0
   21.0565  136.4820   27.8748 C   0  0  0  0  0  0  0  0  0  0  0  0
   23.9702  132.9223   28.3632 H   0  0  0  0  0  0  0  0  0  0  0  0
   23.2632  133.0654   29.9379 H   0  0  0  0  0  0  0  0  0  0  0  0
   22.4535  136.3396   25.0223 H   0  0  0  0  0  0  0  0  0  0  0  0
   21.6845  134.5681   30.3907 H   0  0  0  0  0  0  0  0  0  0  0  0
   20.8070  138.2287   25.3249 H   0  0  0  0  0  0  0  0  0  0  0  0
  1  9  2  0  0  0  0
  2  8  1  0  0  0  0
  3  7  1  0  0  0  0
  3 10  1  0  0  0  0
  4  7  2  0  0  0  0
  4 11  1  0  0  0  0
  5  8  1  0  0  0  0
  5  9  1  0  0  0  0
  6  8  2  0  0  0  0
  6 10  1  0  0  0  0
  9 11  1  0  0  0  0
 10 11  2  0  0  0  0
  2 12  1  0  0  0  0
  2 13  1  0  0  0  0
  3 14  1  0  0  0  0
  5 15  1  0  0  0  0
  7 16  1  0  0  0  0
M  END
> <pdb_id>
1A95

> <uniprot_id>
P0A9M5

> <usmiles>
O=C1NC(=NC=2NC=NC12)N

$$$$
GUN_C_503
          07202404193D 1   1.00000     0.00000     0
            
 16 17  0  0  0  0            999 V2000
   91.1526   11.1027   17.2717 O   0  0  0  0  0  0  0  0  0  0  0  0
   88.8201    9.1381   20.7305 N   0  0  0  0  0  0  0  0  0  0  0  0
   88.2137    7.6567   16.2403 N   0  0  0  0  0  0  0  0  0  0  0  0
   89.6876    9.1474   15.3797 N   0  0  0  0  0  0  0  0  0  0  0  0
   89.9963   10.1250   18.9789 N   0  0  0  0  0  0  0  0  0  0  0  0
   88.4291    8.3454   18.5779 N   0  0  0  0  0  0  0  0  0  0  0  0
   88.8278    8.1200   15.1106 C   0  0  0  0  0  0  0  0  0  0  0  0
   89.0835    9.2100   19.4104 C   0  0  0  0  0  0  0  0  0  0  0  0
   90.3160   10.2585   17.6719 C   0  0  0  0  0  0  0  0  0  0  0  0
   88.7019    8.3928   17.2485 C   0  0  0  0  0  0  0  0  0  0  0  0
   89.6631    9.3478   16.6985 C   0  0  0  0  0  0  0  0  0  0  0  0
   88.1542    8.4748   21.0721 H   0  0  0  0  0  0  0  0  0  0  0  0
   89.2906    9.7480   21.3682 H   0  0  0  0  0  0  0  0  0  0  0  0
   87.5396    6.9207   16.3020 H   0  0  0  0  0  0  0  0  0  0  0  0
   90.4437   10.7163   19.6498 H   0  0  0  0  0  0  0  0  0  0  0  0
   88.6669    7.7508   14.1953 H   0  0  0  0  0  0  0  0  0  0  0  0
  1  9  2  0  0  0  0
  2  8  1  0  0  0  0
  3  7  1  0  0  0  0
  3 10  1  0  0  0  0
  4  7  2  0  0  0  0
  4 11  1  0  0  0  0
  5  8  1  0  0  0  0
  5  9  1  0  0  0  0
  6  8  2  0  0  0  0
  6 10  1  0  0  0  0
  9 11  1  0  0  0  0
 10 11  2  0  0  0  0
  2 12  1  0  0  0  0
  2 13  1  0  0  0  0
  3 14  1  0  0  0  0
  5 15  1  0  0  0  0
  7 16  1  0  0  0  0
M  END
> <pdb_id>
3NVW

> <uniprot_id>
P80457

> <usmiles>
O=C1NC(=NC=2NC=NC12)N

$$$$
GUN_E_400
          07202406023D 1   1.00000     0.00000     0
            
 16 17  0  0  0  0            999 V2000
    7.2984  -16.9290  -14.7110 O   0  0  0  0  0  0  0  0  0  0  0  0
   10.9371  -19.6134  -13.9158 N   0  0  0  0  0  0  0  0  0  0  0  0
    8.4452  -17.7526  -10.3357 N   0  0  0  0  0  0  0  0  0  0  0  0
    6.9899  -16.6838  -11.6523 N   0  0  0  0  0  0  0  0  0  0  0  0
    9.0968  -18.2548  -14.2352 N   0  0  0  0  0  0  0  0  0  0  0  0
    9.8490  -18.7970  -12.0453 N   0  0  0  0  0  0  0  0  0  0  0  0
    7.3548  -16.9458  -10.4193 C   0  0  0  0  0  0  0  0  0  0  0  0
    9.9549  -18.8840  -13.3687 C   0  0  0  0  0  0  0  0  0  0  0  0
    8.0191  -17.4560  -13.8527 C   0  0  0  0  0  0  0  0  0  0  0  0
    8.8138  -18.0310  -11.6200 C   0  0  0  0  0  0  0  0  0  0  0  0
    7.9087  -17.3675  -12.4372 C   0  0  0  0  0  0  0  0  0  0  0  0
   11.5901  -20.0926  -13.3293 H   0  0  0  0  0  0  0  0  0  0  0  0
   11.0171  -19.6784  -14.9104 H   0  0  0  0  0  0  0  0  0  0  0  0
    8.8887  -18.0774   -9.5003 H   0  0  0  0  0  0  0  0  0  0  0  0
    9.2561  -18.3782  -15.2147 H   0  0  0  0  0  0  0  0  0  0  0  0
    6.8764  -16.5862   -9.6182 H   0  0  0  0  0  0  0  0  0  0  0  0
  1  9  2  0  0  0  0
  2  8  1  0  0  0  0
  3  7  1  0  0  0  0
  3 10  1  0  0  0  0
  4  7  2  0  0  0  0
  4 11  1  0  0  0  0
  5  8  1  0  0  0  0
  5  9  1  0  0  0  0
  6  8  2  0  0  0  0
  6 10  1  0  0  0  0
  9 11  1  0  0  0  0
 10 11  2  0  0  0  0
  2 12  1  0  0  0  0
  2 13  1  0  0  0  0
  3 14  1  0  0  0  0
  5 15  1  0  0  0  0
  7 16  1  0  0  0  0
M  END
> <pdb_id>
8SWR

> <uniprot_id>
Q6CSZ6

> <usmiles>
O=C1NC(=NC=2NC=NC12)N

$$$$
GV8_A_601
          07202410583D 1   1.00000     0.00000     0
            
 49 53  0  0  0  0            999 V2000
   36.2770  -42.9480   11.6300 S   0  0  0  0  0  0  0  0  0  0  0  0
   35.1670  -43.9500   11.3870 O   0  0  0  0  0  0  0  0  0  0  0  0
   35.5950  -41.5940   11.8110 O   0  0  0  0  0  0  0  0  0  0  0  0
   42.4890  -34.8740   15.3460 O   0  0  0  0  0  0  0  0  0  0  0  0
   39.2530  -43.2660    8.1810 N   0  0  0  0  0  0  0  0  0  0  0  0
   43.3550  -42.7360   11.8430 N   0  0  0  0  0  0  0  0  0  0  0  0
   43.8960  -40.3140   12.9680 N   0  0  0  0  0  0  0  0  0  0  0  0
   38.7780  -41.4280   11.2870 N   0  0  0  0  0  0  0  0  0  0  0  0
   37.1740  -43.5290   13.0460 C   0  0  0  0  0  0  0  0  0  0  0  0
   39.7850  -36.6550   16.9390 C   0  0  0  0  0  0  0  0  0  0  0  0
   41.5440  -35.0160   16.2640 C   0  0  0  0  0  0  0  0  0  0  0  0
   38.1010  -44.0370    8.2070 C   0  0  0  0  0  0  0  0  0  0  0  0
   44.6560  -42.4540   12.2580 C   0  0  0  0  0  0  0  0  0  0  0  0
   44.9360  -41.2260   12.8370 C   0  0  0  0  0  0  0  0  0  0  0  0
   39.4870  -42.3730    9.2320 C   0  0  0  0  0  0  0  0  0  0  0  0
   37.2130  -43.9250    9.2610 C   0  0  0  0  0  0  0  0  0  0  0  0
   43.1410  -36.4110   13.4640 C   0  0  0  0  0  0  0  0  0  0  0  0
   42.9060  -37.6180   12.8320 C   0  0  0  0  0  0  0  0  0  0  0  0
   41.0780  -42.1730   11.5220 C   0  0  0  0  0  0  0  0  0  0  0  0
   40.3420  -39.9830   12.2410 C   0  0  0  0  0  0  0  0  0  0  0  0
   41.1570  -38.0150   14.4180 C   0  0  0  0  0  0  0  0  0  0  0  0
   37.4310  -43.0200   10.2970 C   0  0  0  0  0  0  0  0  0  0  0  0
   42.4170  -36.0560   14.5140 C   0  0  0  0  0  0  0  0  0  0  0  0
   40.0500  -41.2180   11.6770 C   0  0  0  0  0  0  0  0  0  0  0  0
   38.5830  -42.2560   10.2800 C   0  0  0  0  0  0  0  0  0  0  0  0
   42.3610  -41.8520   11.9710 C   0  0  0  0  0  0  0  0  0  0  0  0
   42.6390  -40.6210   12.5380 C   0  0  0  0  0  0  0  0  0  0  0  0
   40.9360  -36.1810   16.0500 C   0  0  0  0  0  0  0  0  0  0  0  0
   41.8820  -38.4310   13.2860 C   0  0  0  0  0  0  0  0  0  0  0  0
   41.4390  -36.8400   14.9930 C   0  0  0  0  0  0  0  0  0  0  0  0
   41.6170  -39.6740   12.6650 C   0  0  0  0  0  0  0  0  0  0  0  0
   38.0124  -40.9741   11.7430 H   0  0  0  0  0  0  0  0  0  0  0  0
   37.9225  -42.8975   13.2486 H   0  0  0  0  0  0  0  0  0  0  0  0
   36.5586  -43.5798   13.8326 H   0  0  0  0  0  0  0  0  0  0  0  0
   37.5465  -44.4371   12.8550 H   0  0  0  0  0  0  0  0  0  0  0  0
   39.4631  -37.5465   16.6204 H   0  0  0  0  0  0  0  0  0  0  0  0
   40.1040  -36.7338   17.8835 H   0  0  0  0  0  0  0  0  0  0  0  0
   39.0355  -35.9945   16.8943 H   0  0  0  0  0  0  0  0  0  0  0  0
   41.3260  -34.3633   16.9895 H   0  0  0  0  0  0  0  0  0  0  0  0
   37.9118  -44.6759    7.4614 H   0  0  0  0  0  0  0  0  0  0  0  0
   45.3812  -43.1322   12.1389 H   0  0  0  0  0  0  0  0  0  0  0  0
   45.8589  -41.0032   13.1510 H   0  0  0  0  0  0  0  0  0  0  0  0
   40.3149  -41.8122    9.2288 H   0  0  0  0  0  0  0  0  0  0  0  0
   36.3986  -44.5050    9.2798 H   0  0  0  0  0  0  0  0  0  0  0  0
   43.8605  -35.8039   13.1268 H   0  0  0  0  0  0  0  0  0  0  0  0
   43.4695  -37.9004   12.0557 H   0  0  0  0  0  0  0  0  0  0  0  0
   40.8916  -43.0602   11.0998 H   0  0  0  0  0  0  0  0  0  0  0  0
   39.6138  -39.3051   12.3415 H   0  0  0  0  0  0  0  0  0  0  0  0
   40.4335  -38.5955   14.7915 H   0  0  0  0  0  0  0  0  0  0  0  0
  1  2  2  0  0  0  0
  1  3  2  0  0  0  0
  1  9  1  0  0  0  0
  1 22  1  0  0  0  0
  4 11  1  0  0  0  0
  4 23  1  0  0  0  0
  5 12  2  0  0  0  0
  5 15  1  0  0  0  0
  6 13  1  0  0  0  0
  6 26  2  0  0  0  0
  7 14  1  0  0  0  0
  7 27  2  0  0  0  0
  8 24  1  0  0  0  0
  8 25  1  0  0  0  0
 10 28  1  0  0  0  0
 11 28  2  0  0  0  0
 12 16  1  0  0  0  0
 13 14  2  0  0  0  0
 15 25  2  0  0  0  0
 16 22  2  0  0  0  0
 17 18  1  0  0  0  0
 17 23  2  0  0  0  0
 18 29  2  0  0  0  0
 19 24  2  0  0  0  0
 19 26  1  0  0  0  0
 20 24  1  0  0  0  0
 20 31  2  0  0  0  0
 21 29  1  0  0  0  0
 21 30  2  0  0  0  0
 22 25  1  0  0  0  0
 23 30  1  0  0  0  0
 26 27  1  0  0  0  0
 27 31  1  0  0  0  0
 28 30  1  0  0  0  0
 29 31  1  0  0  0  0
  8 32  1  0  0  0  0
  9 33  1  0  0  0  0
  9 34  1  0  0  0  0
  9 35  1  0  0  0  0
 10 36  1  0  0  0  0
 10 37  1  0  0  0  0
 10 38  1  0  0  0  0
 11 39  1  0  0  0  0
 12 40  1  0  0  0  0
 13 41  1  0  0  0  0
 14 42  1  0  0  0  0
 15 43  1  0  0  0  0
 16 44  1  0  0  0  0
 17 45  1  0  0  0  0
 18 46  1  0  0  0  0
 19 47  1  0  0  0  0
 20 48  1  0  0  0  0
 21 49  1  0  0  0  0
M  END
> <pdb_id>
6HVJ

> <uniprot_id>
Q16875

> <usmiles>
S(=O)(=O)(c1c(Nc2cc3nccnc3c(c4cc5c(OC=C5C)cc4)c2)cncc1)C

$$$$
GVG_A_1351
          07192421303D 1   1.00000     0.00000     0
            
 22 23  0  0  0  0            999 V2000
    3.1826    9.8967    4.2644 N   0  0  0  0  0  0  0  0  0  0  0  0
    3.2714   10.1721    2.9415 N   0  0  0  0  0  0  0  0  0  0  0  0
    4.8840   10.7094    1.1449 C   0  0  0  0  0  0  0  0  0  0  0  0
    4.4345    9.9314    4.7229 C   0  0  0  0  0  0  0  0  0  0  0  0
    9.5514   10.3473    4.1918 C   0  0  0  0  0  0  0  0  0  0  0  0
    9.0073   10.1281    2.9466 C   0  0  0  0  0  0  0  0  0  0  0  0
    8.7293   10.5606    5.2744 C   0  0  0  0  0  0  0  0  0  0  0  0
    7.6401   10.0811    2.7874 C   0  0  0  0  0  0  0  0  0  0  0  0
    7.3603   10.5188    5.1222 C   0  0  0  0  0  0  0  0  0  0  0  0
    4.5591   10.3954    2.5617 C   0  0  0  0  0  0  0  0  0  0  0  0
    6.7971   10.2969    3.8722 C   0  0  0  0  0  0  0  0  0  0  0  0
    5.3395   10.2351    3.7132 C   0  0  0  0  0  0  0  0  0  0  0  0
    2.3520    9.7070    4.7880 H   0  0  0  0  0  0  0  0  0  0  0  0
    5.8706   10.8421    1.0507 H   0  0  0  0  0  0  0  0  0  0  0  0
    4.5921    9.9523    0.5604 H   0  0  0  0  0  0  0  0  0  0  0  0
    4.4076   11.5449    0.8710 H   0  0  0  0  0  0  0  0  0  0  0  0
    4.6900    9.7602    5.6744 H   0  0  0  0  0  0  0  0  0  0  0  0
   10.5444   10.3516    4.3097 H   0  0  0  0  0  0  0  0  0  0  0  0
    9.6062   10.0026    2.1556 H   0  0  0  0  0  0  0  0  0  0  0  0
    9.1260   10.7463    6.1733 H   0  0  0  0  0  0  0  0  0  0  0  0
    7.2511    9.8907    1.8861 H   0  0  0  0  0  0  0  0  0  0  0  0
    6.7682   10.6492    5.9175 H   0  0  0  0  0  0  0  0  0  0  0  0
  1  2  1  0  0  0  0
  1  4  1  0  0  0  0
  2 10  2  0  0  0  0
  3 10  1  0  0  0  0
  4 12  2  0  0  0  0
  5  6  2  0  0  0  0
  5  7  1  0  0  0  0
  6  8  1  0  0  0  0
  7  9  2  0  0  0  0
  8 11  2  0  0  0  0
  9 11  1  0  0  0  0
 10 12  1  0  0  0  0
 11 12  1  0  0  0  0
  1 13  1  0  0  0  0
  3 14  1  0  0  0  0
  3 15  1  0  0  0  0
  3 16  1  0  0  0  0
  4 17  1  0  0  0  0
  5 18  1  0  0  0  0
  6 19  1  0  0  0  0
  7 20  1  0  0  0  0
  8 21  1  0  0  0  0
  9 22  1  0  0  0  0
M  END
> <pdb_id>
2UW3

> <uniprot_id>
P00517

> <usmiles>
N=1NC=C(c2ccccc2)C1C

$$$$
GVK_A_1351
          07192421303D 1   1.00000     0.00000     0
            
 48 52  0  0  0  0            999 V2000
   14.1966   13.8115   -0.5554 Cl  0  0  0  0  0  0  0  0  0  0  0  0
   12.9764    7.4409    4.8985 N   0  0  0  0  0  0  0  0  0  0  0  0
    3.3020   10.1487    1.6957 N   0  0  0  0  0  0  0  0  0  0  0  0
    3.4084   10.1761    4.1225 N   0  0  0  0  0  0  0  0  0  0  0  0
    5.4828   10.1036    1.2108 N   0  0  0  0  0  0  0  0  0  0  0  0
    5.6752   10.1162    4.9364 N   0  0  0  0  0  0  0  0  0  0  0  0
    4.2386   10.1264    0.7195 C   0  0  0  0  0  0  0  0  0  0  0  0
    4.3458   10.1659    5.0725 C   0  0  0  0  0  0  0  0  0  0  0  0
   12.1350    7.1766    3.6994 C   0  0  0  0  0  0  0  0  0  0  0  0
   12.5759    8.7305    5.5287 C   0  0  0  0  0  0  0  0  0  0  0  0
   13.1463   12.9948    1.7907 C   0  0  0  0  0  0  0  0  0  0  0  0
   13.4866   11.3024    0.1314 C   0  0  0  0  0  0  0  0  0  0  0  0
    8.4890   10.4507    4.6219 C   0  0  0  0  0  0  0  0  0  0  0  0
    8.2612    9.5003    2.4409 C   0  0  0  0  0  0  0  0  0  0  0  0
   12.6393   12.0505    2.6532 C   0  0  0  0  0  0  0  0  0  0  0  0
   12.9735   10.3575    0.9890 C   0  0  0  0  0  0  0  0  0  0  0  0
    9.8640   10.3463    4.5221 C   0  0  0  0  0  0  0  0  0  0  0  0
    9.6344    9.4010    2.3390 C   0  0  0  0  0  0  0  0  0  0  0  0
   12.3573    8.2804    2.6906 C   0  0  0  0  0  0  0  0  0  0  0  0
   12.7713    9.8678    4.5463 C   0  0  0  0  0  0  0  0  0  0  0  0
   13.5700   12.6232    0.5283 C   0  0  0  0  0  0  0  0  0  0  0  0
    3.9451   10.1467    2.8962 C   0  0  0  0  0  0  0  0  0  0  0  0
    5.2991   10.1138    2.6038 C   0  0  0  0  0  0  0  0  0  0  0  0
    6.1834   10.1194    3.6907 C   0  0  0  0  0  0  0  0  0  0  0  0
    7.6678   10.0429    3.5742 C   0  0  0  0  0  0  0  0  0  0  0  0
   12.5355   10.7229    2.2586 C   0  0  0  0  0  0  0  0  0  0  0  0
   10.4590    9.8197    3.3768 C   0  0  0  0  0  0  0  0  0  0  0  0
   11.9924    9.6753    3.2344 C   0  0  0  0  0  0  0  0  0  0  0  0
   13.9369    7.4904    4.6246 H   0  0  0  0  0  0  0  0  0  0  0  0
    2.3114   10.1640    1.5597 H   0  0  0  0  0  0  0  0  0  0  0  0
    4.0252   10.1269   -0.2575 H   0  0  0  0  0  0  0  0  0  0  0  0
    4.0084   10.2000    6.0132 H   0  0  0  0  0  0  0  0  0  0  0  0
   11.1711    7.1536    3.9645 H   0  0  0  0  0  0  0  0  0  0  0  0
   12.3911    6.2977    3.2970 H   0  0  0  0  0  0  0  0  0  0  0  0
   13.1386    8.8923    6.3393 H   0  0  0  0  0  0  0  0  0  0  0  0
   11.6131    8.6844    5.7950 H   0  0  0  0  0  0  0  0  0  0  0  0
   13.2084   13.9509    2.0772 H   0  0  0  0  0  0  0  0  0  0  0  0
   13.7993   11.0335   -0.7795 H   0  0  0  0  0  0  0  0  0  0  0  0
    8.0802   10.8230    5.4552 H   0  0  0  0  0  0  0  0  0  0  0  0
    7.6860    9.1776    1.6892 H   0  0  0  0  0  0  0  0  0  0  0  0
   12.3440   12.3215    3.5693 H   0  0  0  0  0  0  0  0  0  0  0  0
   12.9148    9.4024    0.6987 H   0  0  0  0  0  0  0  0  0  0  0  0
   10.4388   10.6524    5.2809 H   0  0  0  0  0  0  0  0  0  0  0  0
   10.0413    9.0228    1.5075 H   0  0  0  0  0  0  0  0  0  0  0  0
   11.7937    8.0947    1.8857 H   0  0  0  0  0  0  0  0  0  0  0  0
   13.3223    8.2829    2.4284 H   0  0  0  0  0  0  0  0  0  0  0  0
   13.7453    9.9375    4.3304 H   0  0  0  0  0  0  0  0  0  0  0  0
   12.4639   10.7163    4.9770 H   0  0  0  0  0  0  0  0  0  0  0  0
  1 21  1  0  0  0  0
  2  9  1  0  0  0  0
  2 10  1  0  0  0  0
  3  7  1  0  0  0  0
  3 22  1  0  0  0  0
  4  8  2  0  0  0  0
  4 22  1  0  0  0  0
  5  7  2  0  0  0  0
  5 23  1  0  0  0  0
  6  8  1  0  0  0  0
  6 24  2  0  0  0  0
  9 19  1  0  0  0  0
 10 20  1  0  0  0  0
 11 15  2  0  0  0  0
 11 21  1  0  0  0  0
 12 16  1  0  0  0  0
 12 21  2  0  0  0  0
 13 17  1  0  0  0  0
 13 25  2  0  0  0  0
 14 18  2  0  0  0  0
 14 25  1  0  0  0  0
 15 26  1  0  0  0  0
 16 26  2  0  0  0  0
 17 27  2  0  0  0  0
 18 27  1  0  0  0  0
 19 28  1  0  0  0  0
 20 28  1  0  0  0  0
 22 23  2  0  0  0  0
 23 24  1  0  0  0  0
 24 25  1  0  0  0  0
 26 28  1  0  0  0  0
 27 28  1  0  0  0  0
  2 29  1  0  0  0  0
  3 30  1  0  0  0  0
  7 31  1  0  0  0  0
  8 32  1  0  0  0  0
  9 33  1  0  0  0  0
  9 34  1  0  0  0  0
 10 35  1  0  0  0  0
 10 36  1  0  0  0  0
 11 37  1  0  0  0  0
 12 38  1  0  0  0  0
 13 39  1  0  0  0  0
 14 40  1  0  0  0  0
 15 41  1  0  0  0  0
 16 42  1  0  0  0  0
 17 43  1  0  0  0  0
 18 44  1  0  0  0  0
 19 45  1  0  0  0  0
 19 46  1  0  0  0  0
 20 47  1  0  0  0  0
 20 48  1  0  0  0  0
M  END
> <pdb_id>
2UW0

> <uniprot_id>
P00517

> <usmiles>
Clc1ccc(cc1)C2(c3ccc(c4ncnc5NC=Nc54)cc3)CCNCC2

$$$$
GVN_A_1351
          07192421303D 1   1.00000     0.00000     0
            
 37 39  0  0  0  0            999 V2000
   13.7975   13.3485   -0.2397 Cl  0  0  0  0  0  0  0  0  0  0  0  0
   12.7730    7.6499    3.1283 N   0  0  0  0  0  0  0  0  0  0  0  0
    3.1742   10.3149    4.1284 N   0  0  0  0  0  0  0  0  0  0  0  0
    3.2045   10.2713    2.7725 N   0  0  0  0  0  0  0  0  0  0  0  0
   11.3135    7.9361    3.0838 C   0  0  0  0  0  0  0  0  0  0  0  0
    4.4476   10.2395    4.5040 C   0  0  0  0  0  0  0  0  0  0  0  0
    4.4659   10.1725    2.3244 C   0  0  0  0  0  0  0  0  0  0  0  0
   12.4909   11.0252    0.2686 C   0  0  0  0  0  0  0  0  0  0  0  0
   12.8669   12.4660    2.1482 C   0  0  0  0  0  0  0  0  0  0  0  0
   11.8576   10.1167    1.0922 C   0  0  0  0  0  0  0  0  0  0  0  0
   12.2347   11.5595    2.9708 C   0  0  0  0  0  0  0  0  0  0  0  0
    7.4759   10.0653    4.5835 C   0  0  0  0  0  0  0  0  0  0  0  0
    7.4243    9.7528    2.2113 C   0  0  0  0  0  0  0  0  0  0  0  0
    8.8425    9.8780    4.5786 C   0  0  0  0  0  0  0  0  0  0  0  0
    8.7899    9.5665    2.2054 C   0  0  0  0  0  0  0  0  0  0  0  0
   12.9996   12.2037    0.7940 C   0  0  0  0  0  0  0  0  0  0  0  0
    5.2946   10.1688    3.4039 C   0  0  0  0  0  0  0  0  0  0  0  0
    6.7532   10.0181    3.3988 C   0  0  0  0  0  0  0  0  0  0  0  0
   11.7268   10.3741    2.4544 C   0  0  0  0  0  0  0  0  0  0  0  0
    9.5151    9.6317    3.3879 C   0  0  0  0  0  0  0  0  0  0  0  0
   11.0167    9.4048    3.3824 C   0  0  1  0  0  0  0  0  0  0  0  0
   12.9293    6.6826    2.9287 H   0  0  0  0  0  0  0  0  0  0  0  0
   13.2436    8.2110    2.4473 H   0  0  0  0  0  0  0  0  0  0  0  0
    2.3692   10.3879    4.7172 H   0  0  0  0  0  0  0  0  0  0  0  0
   10.8508    7.3672    3.7636 H   0  0  0  0  0  0  0  0  0  0  0  0
   10.9674    7.7143    2.1722 H   0  0  0  0  0  0  0  0  0  0  0  0
    4.7562   10.2342    5.4552 H   0  0  0  0  0  0  0  0  0  0  0  0
    4.7471   10.1123    1.3667 H   0  0  0  0  0  0  0  0  0  0  0  0
   12.5831   10.8334   -0.7085 H   0  0  0  0  0  0  0  0  0  0  0  0
   13.2311   13.3157    2.5295 H   0  0  0  0  0  0  0  0  0  0  0  0
   11.4907    9.2692    0.7087 H   0  0  0  0  0  0  0  0  0  0  0  0
   12.1406   11.7564    3.9467 H   0  0  0  0  0  0  0  0  0  0  0  0
    7.0018   10.2365    5.4472 H   0  0  0  0  0  0  0  0  0  0  0  0
    6.9124    9.6967    1.3541 H   0  0  0  0  0  0  0  0  0  0  0  0
    9.3526    9.9197    5.4377 H   0  0  0  0  0  0  0  0  0  0  0  0
    9.2621    9.3831    1.3432 H   0  0  0  0  0  0  0  0  0  0  0  0
   11.3458    9.5893    4.3085 H   0  0  0  0  0  0  0  0  0  0  0  0
  1 16  1  0  0  0  0
  2  5  1  0  0  0  0
  3  4  1  0  0  0  0
  3  6  1  0  0  0  0
  4  7  2  0  0  0  0
  5 21  1  0  0  0  0
  6 17  2  0  0  0  0
  7 17  1  0  0  0  0
  8 10  2  0  0  0  0
  8 16  1  0  0  0  0
  9 11  1  0  0  0  0
  9 16  2  0  0  0  0
 10 19  1  0  0  0  0
 11 19  2  0  0  0  0
 12 14  1  0  0  0  0
 12 18  2  0  0  0  0
 13 15  2  0  0  0  0
 13 18  1  0  0  0  0
 14 20  2  0  0  0  0
 15 20  1  0  0  0  0
 17 18  1  0  0  0  0
 19 21  1  0  0  0  0
 20 21  1  0  0  0  0
  2 22  1  0  0  0  0
  2 23  1  0  0  0  0
  3 24  1  0  0  0  0
  5 25  1  0  0  0  0
  5 26  1  0  0  0  0
  6 27  1  0  0  0  0
  7 28  1  0  0  0  0
  8 29  1  0  0  0  0
  9 30  1  0  0  0  0
 10 31  1  0  0  0  0
 11 32  1  0  0  0  0
 12 33  1  0  0  0  0
 13 34  1  0  0  0  0
 14 35  1  0  0  0  0
 15 36  1  0  0  0  0
 21 37  1  0  0  0  0
M  END
> <pdb_id>
2UW5

> <uniprot_id>
P00517

> <usmiles>
Clc1ccc(cc1)[C@@H](c2ccc(cc2)C=3C=NNC3)CN

$$$$
GVO_A_1351
          07192421303D 1   1.00000     0.00000     0
            
 37 39  0  0  0  0            999 V2000
   15.2294   10.9378    7.3076 Cl  0  0  0  0  0  0  0  0  0  0  0  0
   12.4650    7.3990    2.7563 N   0  0  0  0  0  0  0  0  0  0  0  0
    3.2750   10.1087    4.3080 N   0  0  0  0  0  0  0  0  0  0  0  0
    3.2258   10.2786    2.9233 N   0  0  0  0  0  0  0  0  0  0  0  0
   11.1289    7.9469    3.0355 C   0  0  0  0  0  0  0  0  0  0  0  0
    4.5271   10.0225    4.6568 C   0  0  0  0  0  0  0  0  0  0  0  0
    4.4733   10.3083    2.4504 C   0  0  0  0  0  0  0  0  0  0  0  0
   12.9969    9.6994    6.4249 C   0  0  0  0  0  0  0  0  0  0  0  0
   14.1226   11.0402    4.7990 C   0  0  0  0  0  0  0  0  0  0  0  0
   12.0347    9.3631    5.4767 C   0  0  0  0  0  0  0  0  0  0  0  0
   13.1573   10.7000    3.8499 C   0  0  0  0  0  0  0  0  0  0  0  0
    7.4283    9.7611    2.2328 C   0  0  0  0  0  0  0  0  0  0  0  0
    7.5996   10.1674    4.5947 C   0  0  0  0  0  0  0  0  0  0  0  0
    8.8100    9.6132    2.1647 C   0  0  0  0  0  0  0  0  0  0  0  0
    8.9773    9.9965    4.5188 C   0  0  0  0  0  0  0  0  0  0  0  0
   14.0438   10.5344    6.0931 C   0  0  0  0  0  0  0  0  0  0  0  0
    5.3263   10.1761    3.5047 C   0  0  0  0  0  0  0  0  0  0  0  0
    6.8078   10.0694    3.4473 C   0  0  0  0  0  0  0  0  0  0  0  0
   12.0917    9.8738    4.1849 C   0  0  0  0  0  0  0  0  0  0  0  0
    9.5988    9.7412    3.3009 C   0  0  0  0  0  0  0  0  0  0  0  0
   11.0865    9.4923    3.1144 C   0  0  2  0  0  0  0  0  0  0  0  0
   12.4151    6.4009    2.7201 H   0  0  0  0  0  0  0  0  0  0  0  0
   12.7918    7.7485    1.8782 H   0  0  0  0  0  0  0  0  0  0  0  0
    2.4882   10.0615    4.9233 H   0  0  0  0  0  0  0  0  0  0  0  0
   10.8145    7.5786    3.9104 H   0  0  0  0  0  0  0  0  0  0  0  0
   10.5097    7.6520    2.3078 H   0  0  0  0  0  0  0  0  0  0  0  0
    4.8652    9.8725    5.5859 H   0  0  0  0  0  0  0  0  0  0  0  0
    4.7359   10.4097    1.4909 H   0  0  0  0  0  0  0  0  0  0  0  0
   12.9288    9.3332    7.3529 H   0  0  0  0  0  0  0  0  0  0  0  0
   14.8742   11.6501    4.5480 H   0  0  0  0  0  0  0  0  0  0  0  0
   11.2907    8.7443    5.7288 H   0  0  0  0  0  0  0  0  0  0  0  0
   13.2335   11.0551    2.9182 H   0  0  0  0  0  0  0  0  0  0  0  0
    6.8752    9.6463    1.4076 H   0  0  0  0  0  0  0  0  0  0  0  0
    7.1718   10.3620    5.4774 H   0  0  0  0  0  0  0  0  0  0  0  0
    9.2414    9.4117    1.2853 H   0  0  0  0  0  0  0  0  0  0  0  0
    9.5287   10.0579    5.3508 H   0  0  0  0  0  0  0  0  0  0  0  0
   11.3774    9.8752    2.2376 H   0  0  0  0  0  0  0  0  0  0  0  0
  1 16  1  0  0  0  0
  2  5  1  0  0  0  0
  3  4  1  0  0  0  0
  3  6  1  0  0  0  0
  4  7  2  0  0  0  0
  5 21  1  0  0  0  0
  6 17  2  0  0  0  0
  7 17  1  0  0  0  0
  8 10  2  0  0  0  0
  8 16  1  0  0  0  0
  9 11  1  0  0  0  0
  9 16  2  0  0  0  0
 10 19  1  0  0  0  0
 11 19  2  0  0  0  0
 12 14  1  0  0  0  0
 12 18  2  0  0  0  0
 13 15  2  0  0  0  0
 13 18  1  0  0  0  0
 14 20  2  0  0  0  0
 15 20  1  0  0  0  0
 17 18  1  0  0  0  0
 19 21  1  0  0  0  0
 20 21  1  0  0  0  0
  2 22  1  0  0  0  0
  2 23  1  0  0  0  0
  3 24  1  0  0  0  0
  5 25  1  0  0  0  0
  5 26  1  0  0  0  0
  6 27  1  0  0  0  0
  7 28  1  0  0  0  0
  8 29  1  0  0  0  0
  9 30  1  0  0  0  0
 10 31  1  0  0  0  0
 11 32  1  0  0  0  0
 12 33  1  0  0  0  0
 13 34  1  0  0  0  0
 14 35  1  0  0  0  0
 15 36  1  0  0  0  0
 21 37  1  0  0  0  0
M  END
> <pdb_id>
2UW6

> <uniprot_id>
P00517

> <usmiles>
Clc1ccc(cc1)[C@H](c2ccc(cc2)C=3C=NNC3)CN

$$$$
GVP_A_1480
          07192421293D 1   1.00000     0.00000     0
            
 44 47  0  0  0  0            999 V2000
   19.1197   -1.6733   36.2454 Cl  0  0  0  0  0  0  0  0  0  0  0  0
   23.8098    7.3982   42.3500 N   0  0  0  0  0  0  0  0  0  0  0  0
   22.4638    7.6144   42.2843 N   0  0  0  0  0  0  0  0  0  0  0  0
   21.9731   -1.7080   44.0751 N   0  0  0  0  0  0  0  0  0  0  0  0
   21.0051   -0.5805   44.0798 C   0  0  0  0  0  0  0  0  0  0  0  0
   23.1398   -1.3192   43.2353 C   0  0  0  0  0  0  0  0  0  0  0  0
   23.9717    6.0672   42.2098 C   0  0  0  0  0  0  0  0  0  0  0  0
   21.7954    6.4451   42.1039 C   0  0  0  0  0  0  0  0  0  0  0  0
   19.0040   -1.2712   38.9168 C   0  0  0  0  0  0  0  0  0  0  0  0
   21.1354   -0.9094   37.8862 C   0  0  0  0  0  0  0  0  0  0  0  0
   23.4512    3.0867   41.4447 C   0  0  0  0  0  0  0  0  0  0  0  0
   21.2349    3.5009   42.2076 C   0  0  0  0  0  0  0  0  0  0  0  0
   19.5449   -0.9424   40.1401 C   0  0  0  0  0  0  0  0  0  0  0  0
   21.6804   -0.5875   39.1125 C   0  0  0  0  0  0  0  0  0  0  0  0
   23.1598    1.7336   41.3399 C   0  0  0  0  0  0  0  0  0  0  0  0
   20.9444    2.1629   42.1048 C   0  0  0  0  0  0  0  0  0  0  0  0
   20.4380   -0.5589   42.6770 C   0  0  0  0  0  0  0  0  0  0  0  0
   22.6827   -1.2024   41.7931 C   0  0  0  0  0  0  0  0  0  0  0  0
   19.7942   -1.2473   37.7830 C   0  0  0  0  0  0  0  0  0  0  0  0
   22.7509    5.4205   42.0301 C   0  0  0  0  0  0  0  0  0  0  0  0
   22.4838    3.9833   41.8811 C   0  0  0  0  0  0  0  0  0  0  0  0
   20.8852   -0.5755   40.2463 C   0  0  0  0  0  0  0  0  0  0  0  0
   21.8990    1.2532   41.6766 C   0  0  0  0  0  0  0  0  0  0  0  0
   21.5015   -0.2361   41.6042 C   0  0  0  0  0  0  0  0  0  0  0  0
   24.5265    8.0841   42.4760 H   0  0  0  0  0  0  0  0  0  0  0  0
   21.5393   -2.5244   43.6941 H   0  0  0  0  0  0  0  0  0  0  0  0
   21.4680    0.2814   44.2868 H   0  0  0  0  0  0  0  0  0  0  0  0
   20.2810   -0.7396   44.7509 H   0  0  0  0  0  0  0  0  0  0  0  0
   23.8533   -2.0162   43.3069 H   0  0  0  0  0  0  0  0  0  0  0  0
   23.5004   -0.4399   43.5463 H   0  0  0  0  0  0  0  0  0  0  0  0
   24.8569    5.6025   42.2319 H   0  0  0  0  0  0  0  0  0  0  0  0
   20.8038    6.3351   42.0362 H   0  0  0  0  0  0  0  0  0  0  0  0
   18.0398   -1.5273   38.8490 H   0  0  0  0  0  0  0  0  0  0  0  0
   21.7103   -0.8990   37.0681 H   0  0  0  0  0  0  0  0  0  0  0  0
   24.3636    3.4183   41.2045 H   0  0  0  0  0  0  0  0  0  0  0  0
   20.5294    4.1350   42.5243 H   0  0  0  0  0  0  0  0  0  0  0  0
   18.9712   -0.9671   40.9588 H   0  0  0  0  0  0  0  0  0  0  0  0
   22.6521   -0.3624   39.1826 H   0  0  0  0  0  0  0  0  0  0  0  0
   23.8627    1.0986   41.0194 H   0  0  0  0  0  0  0  0  0  0  0  0
   20.0287    1.8390   42.3427 H   0  0  0  0  0  0  0  0  0  0  0  0
   19.7199    0.1357   42.6337 H   0  0  0  0  0  0  0  0  0  0  0  0
   20.0457   -1.4569   42.4774 H   0  0  0  0  0  0  0  0  0  0  0  0
   22.4053   -2.1086   41.4740 H   0  0  0  0  0  0  0  0  0  0  0  0
   23.4509   -0.8758   41.2424 H   0  0  0  0  0  0  0  0  0  0  0  0
  1 19  1  0  0  0  0
  2  3  1  0  0  0  0
  2  7  1  0  0  0  0
  3  8  2  0  0  0  0
  4  5  1  0  0  0  0
  4  6  1  0  0  0  0
  5 17  1  0  0  0  0
  6 18  1  0  0  0  0
  7 20  2  0  0  0  0
  8 20  1  0  0  0  0
  9 13  2  0  0  0  0
  9 19  1  0  0  0  0
 10 14  1  0  0  0  0
 10 19  2  0  0  0  0
 11 15  1  0  0  0  0
 11 21  2  0  0  0  0
 12 16  2  0  0  0  0
 12 21  1  0  0  0  0
 13 22  1  0  0  0  0
 14 22  2  0  0  0  0
 15 23  2  0  0  0  0
 16 23  1  0  0  0  0
 17 24  1  0  0  0  0
 18 24  1  0  0  0  0
 20 21  1  0  0  0  0
 22 24  1  0  0  0  0
 23 24  1  0  0  0  0
  2 25  1  0  0  0  0
  4 26  1  0  0  0  0
  5 27  1  0  0  0  0
  5 28  1  0  0  0  0
  6 29  1  0  0  0  0
  6 30  1  0  0  0  0
  7 31  1  0  0  0  0
  8 32  1  0  0  0  0
  9 33  1  0  0  0  0
 10 34  1  0  0  0  0
 11 35  1  0  0  0  0
 12 36  1  0  0  0  0
 13 37  1  0  0  0  0
 14 38  1  0  0  0  0
 15 39  1  0  0  0  0
 16 40  1  0  0  0  0
 17 41  1  0  0  0  0
 17 42  1  0  0  0  0
 18 43  1  0  0  0  0
 18 44  1  0  0  0  0
M  END
> <pdb_id>
2UW9

> <uniprot_id>
P31751

> <usmiles>
Clc1ccc(cc1)C2(c3ccc(cc3)C=4C=NNC4)CCNCC2

$$$$
GWH_A_2401
          07192418053D 1   1.00000     0.00000     0
            
 52 55  0  0  0  0            999 V2000
    0.0647   21.5718    6.4140 S   0  0  0  0  0  0  0  0  0  0  0  0
    9.0146   16.6893   12.1027 F   0  0  0  0  0  0  0  0  0  0  0  0
   -0.8968   20.4846    6.4377 O   0  0  0  0  0  0  0  0  0  0  0  0
   -0.1085   22.7239    7.2812 O   0  0  0  0  0  0  0  0  0  0  0  0
    5.2050   14.7697    9.1501 O   0  0  0  0  0  0  0  0  0  0  0  0
    3.0872   14.1920   10.8061 N   0  0  0  0  0  0  0  0  0  0  0  0
    6.8707   18.4547    6.3651 N   0  0  0  0  0  0  0  0  0  0  0  0
    7.8995   16.4818    5.7709 N   0  0  0  0  0  0  0  0  0  0  0  0
    2.0112   16.2329   10.2135 N   0  0  0  0  0  0  0  0  0  0  0  0
    7.5537   17.3447    6.7535 N   0  0  0  0  0  0  0  0  0  0  0  0
    0.1589   22.1357    4.7372 C   0  0  0  0  0  0  0  0  0  0  0  0
    7.0510   13.5715    8.2064 C   0  0  0  0  0  0  0  0  0  0  0  0
    6.7801   18.2745    5.0449 C   0  0  0  0  0  0  0  0  0  0  0  0
    7.4023   17.0825    4.6873 C   0  0  0  0  0  0  0  0  0  0  0  0
    1.9918   17.4050    9.5086 C   0  0  0  0  0  0  0  0  0  0  0  0
    4.0903   21.0583    6.8023 C   0  0  0  0  0  0  0  0  0  0  0  0
    2.8317   21.6096    6.4535 C   0  0  0  0  0  0  0  0  0  0  0  0
    9.1620   17.9132   10.0713 C   0  0  0  0  0  0  0  0  0  0  0  0
    8.7782   18.0598    8.7153 C   0  0  0  0  0  0  0  0  0  0  0  0
    4.1483   19.8250    7.5100 C   0  0  0  0  0  0  0  0  0  0  0  0
    1.7032   19.6902    7.5200 C   0  0  0  0  0  0  0  0  0  0  0  0
    7.7718   15.8897   10.2515 C   0  0  0  0  0  0  0  0  0  0  0  0
    4.1021   16.9307    8.5023 C   0  0  0  0  0  0  0  0  0  0  0  0
    1.6462   20.9135    6.8193 C   0  0  0  0  0  0  0  0  0  0  0  0
    8.6546   16.8301   10.8224 C   0  0  0  0  0  0  0  0  0  0  0  0
    6.3870   14.9517    8.3096 C   0  0  2  0  0  0  0  0  0  0  0  0
    3.0876   15.3887   10.0708 C   0  0  0  0  0  0  0  0  0  0  0  0
    4.1772   15.6983    9.2119 C   0  0  0  0  0  0  0  0  0  0  0  0
    7.8831   17.1164    8.1165 C   0  0  0  0  0  0  0  0  0  0  0  0
    3.0109   17.8279    8.6250 C   0  0  0  0  0  0  0  0  0  0  0  0
    2.9528   19.1110    7.8850 C   0  0  0  0  0  0  0  0  0  0  0  0
    7.3586   16.0054    8.8760 C   0  0  0  0  0  0  0  0  0  0  0  0
    3.8544   13.5555   10.7258 H   0  0  0  0  0  0  0  0  0  0  0  0
    2.3198   13.9764   11.4100 H   0  0  0  0  0  0  0  0  0  0  0  0
    0.8138   22.8888    4.6751 H   0  0  0  0  0  0  0  0  0  0  0  0
    0.4582   21.3843    4.1492 H   0  0  0  0  0  0  0  0  0  0  0  0
   -0.7422   22.4523    4.4409 H   0  0  0  0  0  0  0  0  0  0  0  0
    7.8712   13.6379    7.6381 H   0  0  0  0  0  0  0  0  0  0  0  0
    7.3036   13.2540    9.1203 H   0  0  0  0  0  0  0  0  0  0  0  0
    6.4109   12.9237    7.7935 H   0  0  0  0  0  0  0  0  0  0  0  0
    6.3320   18.9024    4.4085 H   0  0  0  0  0  0  0  0  0  0  0  0
    7.4675   16.7275    3.7547 H   0  0  0  0  0  0  0  0  0  0  0  0
    1.2006   18.0051    9.6266 H   0  0  0  0  0  0  0  0  0  0  0  0
    4.9336   21.5339    6.5521 H   0  0  0  0  0  0  0  0  0  0  0  0
    2.7780   22.4760    5.9570 H   0  0  0  0  0  0  0  0  0  0  0  0
    9.7866   18.5707   10.4928 H   0  0  0  0  0  0  0  0  0  0  0  0
    9.1331   18.8233    8.1757 H   0  0  0  0  0  0  0  0  0  0  0  0
    5.0403   19.4440    7.7533 H   0  0  0  0  0  0  0  0  0  0  0  0
    0.8537   19.2225    7.7641 H   0  0  0  0  0  0  0  0  0  0  0  0
    7.4285   15.1333   10.8082 H   0  0  0  0  0  0  0  0  0  0  0  0
    4.8536   17.1746    7.8893 H   0  0  0  0  0  0  0  0  0  0  0  0
    6.0942   15.2388    7.3975 H   0  0  0  0  0  0  0  0  0  0  0  0
  1  3  2  0  0  0  0
  1  4  2  0  0  0  0
  1 11  1  0  0  0  0
  1 24  1  0  0  0  0
  2 25  1  0  0  0  0
  5 26  1  0  0  0  0
  5 28  1  0  0  0  0
  6 27  1  0  0  0  0
  7 10  1  0  0  0  0
  7 13  2  0  0  0  0
  8 10  1  0  0  0  0
  8 14  2  0  0  0  0
  9 15  1  0  0  0  0
  9 27  2  0  0  0  0
 10 29  1  0  0  0  0
 12 26  1  0  0  0  0
 13 14  1  0  0  0  0
 15 30  2  0  0  0  0
 16 17  2  0  0  0  0
 16 20  1  0  0  0  0
 17 24  1  0  0  0  0
 18 19  2  0  0  0  0
 18 25  1  0  0  0  0
 19 29  1  0  0  0  0
 20 31  2  0  0  0  0
 21 24  2  0  0  0  0
 21 31  1  0  0  0  0
 22 25  2  0  0  0  0
 22 32  1  0  0  0  0
 23 28  2  0  0  0  0
 23 30  1  0  0  0  0
 26 32  1  0  0  0  0
 27 28  1  0  0  0  0
 29 32  2  0  0  0  0
 30 31  1  0  0  0  0
  6 33  1  0  0  0  0
  6 34  1  0  0  0  0
 11 35  1  0  0  0  0
 11 36  1  0  0  0  0
 11 37  1  0  0  0  0
 12 38  1  0  0  0  0
 12 39  1  0  0  0  0
 12 40  1  0  0  0  0
 13 41  1  0  0  0  0
 14 42  1  0  0  0  0
 15 43  1  0  0  0  0
 16 44  1  0  0  0  0
 17 45  1  0  0  0  0
 18 46  1  0  0  0  0
 19 47  1  0  0  0  0
 20 48  1  0  0  0  0
 21 49  1  0  0  0  0
 22 50  1  0  0  0  0
 23 51  1  0  0  0  0
 26 52  1  0  0  0  0
M  END
> <pdb_id>
4CMT

> <uniprot_id>
Q9UM73

> <usmiles>
S(=O)(=O)(c1cc(c2cnc(N)c(O[C@@H](c3c(N4N=CC=N4)ccc(F)c3)C)c2)ccc1)C

$$$$
GXD_A_804
          07202413413D 1   1.00000     0.00000     0
            
 22 22  0  0  0  0            999 V2000
   32.5243   79.5427   61.0302 Cl  0  0  0  0  0  0  0  0  0  0  0  0
   36.3935   77.3635   64.0504 Cl  0  0  0  0  0  0  0  0  0  0  0  0
   39.1523   81.5229   63.6246 O   0  0  0  0  0  0  0  0  0  0  0  0
   37.7529   81.0830   65.2767 O   0  0  0  0  0  0  0  0  0  0  0  0
   37.0331   82.0216   62.0584 O   0  0  0  0  0  0  0  0  0  0  0  0
   35.5357   79.9751   61.1085 O   0  0  0  0  0  0  0  0  0  0  0  0
   32.8307   76.1071   62.9766 C   0  0  0  0  0  0  0  0  0  0  0  0
   32.3685   77.1571   62.1871 C   0  0  0  0  0  0  0  0  0  0  0  0
   34.0893   76.2089   63.5579 C   0  0  0  0  0  0  0  0  0  0  0  0
   35.8145   80.3930   63.4258 C   0  0  0  0  0  0  0  0  0  0  0  0
   37.9027   81.5931   64.1447 C   0  0  0  0  0  0  0  0  0  0  0  0
   33.1456   78.2952   61.9820 C   0  0  0  0  0  0  0  0  0  0  0  0
   34.8546   77.3543   63.3568 C   0  0  0  0  0  0  0  0  0  0  0  0
   36.8565   81.4235   63.1217 C   0  0  0  0  0  0  0  0  0  0  0  0
   35.2651   79.6193   62.2618 C   0  0  0  0  0  0  0  0  0  0  0  0
   34.4088   78.4221   62.5475 C   0  0  0  0  0  0  0  0  0  0  0  0
   39.3410   81.9114   62.7227 H   0  0  0  0  0  0  0  0  0  0  0  0
   32.2670   75.2941   63.1227 H   0  0  0  0  0  0  0  0  0  0  0  0
   31.4659   77.0933   61.7614 H   0  0  0  0  0  0  0  0  0  0  0  0
   34.4441   75.4613   64.1193 H   0  0  0  0  0  0  0  0  0  0  0  0
   35.0481   80.8593   63.8676 H   0  0  0  0  0  0  0  0  0  0  0  0
   36.2166   79.7355   64.0630 H   0  0  0  0  0  0  0  0  0  0  0  0
  1 12  1  0  0  0  0
  2 13  1  0  0  0  0
  3 11  1  0  0  0  0
  4 11  2  0  0  0  0
  5 14  2  0  0  0  0
  6 15  2  0  0  0  0
  7  8  2  0  0  0  0
  7  9  1  0  0  0  0
  8 12  1  0  0  0  0
  9 13  2  0  0  0  0
 10 14  1  0  0  0  0
 10 15  1  0  0  0  0
 11 14  1  0  0  0  0
 12 16  2  0  0  0  0
 13 16  1  0  0  0  0
 15 16  1  0  0  0  0
  3 17  1  0  0  0  0
  7 18  1  0  0  0  0
  8 19  1  0  0  0  0
  9 20  1  0  0  0  0
 10 21  1  0  0  0  0
 10 22  1  0  0  0  0
M  END
> <pdb_id>
6DL9

> <uniprot_id>
nan

> <usmiles>
Clc1c(c(Cl)ccc1)C(=O)CC(=O)C(=O)O

$$$$
GXG_A_804
          07202413413D 1   1.00000     0.00000     0
            
 22 22  0  0  0  0            999 V2000
   36.3022   77.4152   63.8239 F   0  0  0  0  0  0  0  0  0  0  0  0
   32.6509   79.2304   61.4264 F   0  0  0  0  0  0  0  0  0  0  0  0
   37.9153   81.2974   65.3424 O   0  0  0  0  0  0  0  0  0  0  0  0
   39.1883   81.6445   63.5569 O   0  0  0  0  0  0  0  0  0  0  0  0
   36.9614   82.0871   62.0983 O   0  0  0  0  0  0  0  0  0  0  0  0
   35.5776   79.8190   61.0622 O   0  0  0  0  0  0  0  0  0  0  0  0
   32.9977   76.0885   63.1859 C   0  0  0  0  0  0  0  0  0  0  0  0
   34.2985   76.1988   63.6460 C   0  0  0  0  0  0  0  0  0  0  0  0
   32.4333   77.1099   62.4423 C   0  0  0  0  0  0  0  0  0  0  0  0
   35.7698   80.4505   63.3911 C   0  0  0  0  0  0  0  0  0  0  0  0
   38.0643   81.4390   64.0734 C   0  0  0  0  0  0  0  0  0  0  0  0
   35.0517   77.3212   63.3646 C   0  0  0  0  0  0  0  0  0  0  0  0
   33.1857   78.2393   62.1518 C   0  0  0  0  0  0  0  0  0  0  0  0
   36.9183   81.3782   63.1069 C   0  0  0  0  0  0  0  0  0  0  0  0
   35.3062   79.5787   62.2688 C   0  0  0  0  0  0  0  0  0  0  0  0
   34.4865   78.3566   62.6169 C   0  0  0  0  0  0  0  0  0  0  0  0
   37.0054   81.1346   65.7239 H   0  0  0  0  0  0  0  0  0  0  0  0
   32.4642   75.2681   63.3915 H   0  0  0  0  0  0  0  0  0  0  0  0
   34.6966   75.4583   64.1875 H   0  0  0  0  0  0  0  0  0  0  0  0
   31.4908   77.0348   62.1168 H   0  0  0  0  0  0  0  0  0  0  0  0
   34.9931   81.0113   63.6778 H   0  0  0  0  0  0  0  0  0  0  0  0
   36.0448   79.8522   64.1437 H   0  0  0  0  0  0  0  0  0  0  0  0
  1 12  1  0  0  0  0
  2 13  1  0  0  0  0
  3 11  1  0  0  0  0
  4 11  2  0  0  0  0
  5 14  2  0  0  0  0
  6 15  2  0  0  0  0
  7  8  2  0  0  0  0
  7  9  1  0  0  0  0
  8 12  1  0  0  0  0
  9 13  2  0  0  0  0
 10 14  1  0  0  0  0
 10 15  1  0  0  0  0
 11 14  1  0  0  0  0
 12 16  2  0  0  0  0
 13 16  1  0  0  0  0
 15 16  1  0  0  0  0
  3 17  1  0  0  0  0
  7 18  1  0  0  0  0
  8 19  1  0  0  0  0
  9 20  1  0  0  0  0
 10 21  1  0  0  0  0
 10 22  1  0  0  0  0
M  END
> <pdb_id>
6DKO

> <uniprot_id>
nan

> <usmiles>
Fc1c(c(F)ccc1)C(=O)CC(=O)C(=O)O

$$$$
GYN_C_301
          07192418013D 1   1.00000     0.00000     0
            
 84 88  0  0  0  0            999 V2000
   12.7680  -26.5510   -3.0070 O   0  0  0  0  0  0  0  0  0  0  0  0
   20.1520  -24.9440    4.2710 O   0  0  0  0  0  0  0  0  0  0  0  0
   14.3320  -25.9860   -1.3520 O   0  0  0  0  0  0  0  0  0  0  0  0
   17.8530  -22.1690    7.8800 O   0  0  0  0  0  0  0  0  0  0  0  0
   13.6950  -22.7390    4.9750 N   0  0  0  0  0  0  0  0  0  0  0  0
   13.0340  -23.9050   -4.0760 C   0  0  0  0  0  0  0  0  0  0  0  0
   18.5720  -22.3850    3.5420 C   0  0  0  0  0  0  0  0  0  0  0  0
   15.2050  -19.4390    8.2050 C   0  0  0  0  0  0  0  0  0  0  0  0
   16.9170  -22.1870   10.9380 C   0  0  0  0  0  0  0  0  0  0  0  0
   17.5290  -24.2950    0.3590 C   0  0  0  0  0  0  0  0  0  0  0  0
   13.3340  -24.0550    5.4940 C   0  0  0  0  0  0  0  0  0  0  0  0
   12.9920  -24.9030    4.2710 C   0  0  0  0  0  0  0  0  0  0  0  0
   15.0540  -20.3190    5.3120 C   0  0  0  0  0  0  0  0  0  0  0  0
   18.9920  -23.9960    6.1420 C   0  0  0  0  0  0  0  0  0  0  0  0
   15.1380  -21.0890    3.9860 C   0  0  0  0  0  0  0  0  0  0  0  0
   18.0070  -24.5220    7.1760 C   0  0  0  0  0  0  0  0  0  0  0  0
   15.9520  -20.9400    6.3640 C   0  0  0  0  0  0  0  0  0  0  0  0
   13.6660  -23.9110    0.5480 C   0  0  0  0  0  0  0  0  0  0  0  0
   16.3800  -23.6300    8.9410 C   0  0  0  0  0  0  0  0  0  0  0  0
   14.9460  -23.9000   -2.3560 C   0  0  0  0  0  0  0  0  0  0  0  0
   16.9320  -24.2580    3.2780 C   0  0  0  0  0  0  0  0  0  0  0  0
   14.1310  -24.8730    3.2590 C   0  0  0  0  0  0  0  0  0  0  0  0
   13.6550  -22.9510    1.7280 C   0  0  0  0  0  0  0  0  0  0  0  0
   13.6610  -25.8170   -2.6280 C   0  0  0  0  0  0  0  0  0  0  0  0
   18.8370  -24.6660    4.7820 C   0  0  1  0  0  0  0  0  0  0  0  0
   17.1200  -23.3800    7.6420 C   0  0  1  0  0  0  0  0  0  0  0  0
   15.2490  -24.8970   -1.2280 C   0  0  1  0  0  0  0  0  0  0  0  0
   16.9830  -21.2980    8.6010 C   0  0  1  0  0  0  0  0  0  0  0  0
   14.4390  -22.4490    3.9880 C   0  0  0  0  0  0  0  0  0  0  0  0
   14.1720  -24.6680   -3.4180 C   0  0  1  0  0  0  0  0  0  0  0  0
   18.0670  -23.7740    3.8370 C   0  0  0  0  0  0  0  0  0  0  0  0
   16.0330  -20.5740    7.6690 C   0  0  0  0  0  0  0  0  0  0  0  0
   16.2690  -22.2450    9.5590 C   0  0  2  0  0  0  0  0  0  0  0  0
   16.1520  -24.0290    0.9070 C   0  0  0  0  0  0  0  0  0  0  0  0
   15.0810  -24.2630    0.1250 C   0  0  0  0  0  0  0  0  0  0  0  0
   16.0280  -23.4900    2.3190 C   0  0  1  0  0  0  0  0  0  0  0  0
   14.5690  -23.4540    2.8390 C   0  0  1  0  0  0  0  0  0  0  0  0
   20.0758  -25.3850    3.3768 H   0  0  0  0  0  0  0  0  0  0  0  0
   12.5893  -24.4895   -4.7546 H   0  0  0  0  0  0  0  0  0  0  0  0
   12.3678  -23.6350   -3.3808 H   0  0  0  0  0  0  0  0  0  0  0  0
   13.3962  -23.0884   -4.5255 H   0  0  0  0  0  0  0  0  0  0  0  0
   19.4177  -22.2228    4.0504 H   0  0  0  0  0  0  0  0  0  0  0  0
   18.7500  -22.2962    2.5620 H   0  0  0  0  0  0  0  0  0  0  0  0
   17.8834  -21.7144    3.8178 H   0  0  0  0  0  0  0  0  0  0  0  0
   15.3974  -19.3168    9.1787 H   0  0  0  0  0  0  0  0  0  0  0  0
   15.4322  -18.5990    7.7123 H   0  0  0  0  0  0  0  0  0  0  0  0
   14.2347  -19.6464    8.0804 H   0  0  0  0  0  0  0  0  0  0  0  0
   16.8244  -21.2639   11.3113 H   0  0  0  0  0  0  0  0  0  0  0  0
   16.4651  -22.8394   11.5464 H   0  0  0  0  0  0  0  0  0  0  0  0
   17.8865  -22.4196   10.8608 H   0  0  0  0  0  0  0  0  0  0  0  0
   18.2129  -24.0741    1.0543 H   0  0  0  0  0  0  0  0  0  0  0  0
   17.6076  -25.2600    0.1090 H   0  0  0  0  0  0  0  0  0  0  0  0
   17.6811  -23.7276   -0.4502 H   0  0  0  0  0  0  0  0  0  0  0  0
   12.5430  -23.9850    6.1018 H   0  0  0  0  0  0  0  0  0  0  0  0
   14.1027  -24.4560    5.9922 H   0  0  0  0  0  0  0  0  0  0  0  0
   12.1631  -24.5426    3.8431 H   0  0  0  0  0  0  0  0  0  0  0  0
   12.8344  -25.8473    4.5600 H   0  0  0  0  0  0  0  0  0  0  0  0
   14.1091  -20.3347    5.6391 H   0  0  0  0  0  0  0  0  0  0  0  0
   15.3378  -19.3725    5.1582 H   0  0  0  0  0  0  0  0  0  0  0  0
   19.9210  -24.1591    6.4742 H   0  0  0  0  0  0  0  0  0  0  0  0
   18.8450  -23.0130    6.0322 H   0  0  0  0  0  0  0  0  0  0  0  0
   16.1038  -21.2361    3.7725 H   0  0  0  0  0  0  0  0  0  0  0  0
   14.7209  -20.5260    3.2725 H   0  0  0  0  0  0  0  0  0  0  0  0
   18.5082  -24.8967    7.9560 H   0  0  0  0  0  0  0  0  0  0  0  0
   17.4427  -25.2390    6.7668 H   0  0  0  0  0  0  0  0  0  0  0  0
   16.5415  -21.6917    6.0682 H   0  0  0  0  0  0  0  0  0  0  0  0
   13.1942  -23.4828   -0.2228 H   0  0  0  0  0  0  0  0  0  0  0  0
   13.1871  -24.7496    0.8078 H   0  0  0  0  0  0  0  0  0  0  0  0
   16.8981  -24.2458    9.5346 H   0  0  0  0  0  0  0  0  0  0  0  0
   15.4746  -24.0176    8.7676 H   0  0  0  0  0  0  0  0  0  0  0  0
   15.7979  -23.5438   -2.7398 H   0  0  0  0  0  0  0  0  0  0  0  0
   14.3946  -23.1419   -2.0077 H   0  0  0  0  0  0  0  0  0  0  0  0
   16.6657  -25.1929    3.5126 H   0  0  0  0  0  0  0  0  0  0  0  0
   13.8356  -25.3650    2.4401 H   0  0  0  0  0  0  0  0  0  0  0  0
   14.9196  -25.3382    3.6610 H   0  0  0  0  0  0  0  0  0  0  0  0
   12.7221  -22.8738    2.0799 H   0  0  0  0  0  0  0  0  0  0  0  0
   13.9718  -22.0527    1.4235 H   0  0  0  0  0  0  0  0  0  0  0  0
   18.3415  -25.5271    4.8960 H   0  0  0  0  0  0  0  0  0  0  0  0
   16.4436  -23.1995    6.9279 H   0  0  0  0  0  0  0  0  0  0  0  0
   16.1849  -25.2358   -1.3242 H   0  0  0  0  0  0  0  0  0  0  0  0
   17.5215  -20.6337    9.1194 H   0  0  0  0  0  0  0  0  0  0  0  0
   14.8035  -24.9983   -4.1195 H   0  0  0  0  0  0  0  0  0  0  0  0
   15.3057  -21.9861    9.6303 H   0  0  0  0  0  0  0  0  0  0  0  0
   16.3557  -22.5454    2.3013 H   0  0  0  0  0  0  0  0  0  0  0  0
  1 24  2  0  0  0  0
  2 25  1  0  0  0  0
  3 24  1  0  0  0  0
  3 27  1  0  0  0  0
  4 26  1  0  0  0  0
  4 28  1  0  0  0  0
  5 11  1  0  0  0  0
  5 29  2  0  0  0  0
  6 30  1  0  0  0  0
  7 31  1  0  0  0  0
  8 32  1  0  0  0  0
  9 33  1  0  0  0  0
 10 34  1  0  0  0  0
 11 12  1  0  0  0  0
 12 22  1  0  0  0  0
 13 15  1  0  0  0  0
 13 17  1  0  0  0  0
 14 16  1  0  0  0  0
 14 25  1  0  0  0  0
 15 29  1  0  0  0  0
 16 26  1  0  0  0  0
 17 32  2  0  0  0  0
 18 23  1  0  0  0  0
 18 35  1  0  0  0  0
 19 26  1  0  0  0  0
 19 33  1  0  0  0  0
 20 27  1  0  0  0  0
 20 30  1  0  0  0  0
 21 31  2  0  0  0  0
 21 36  1  0  0  0  0
 22 37  1  0  0  0  0
 23 37  1  0  0  0  0
 24 30  1  0  0  0  0
 25 31  1  0  0  0  0
 27 35  1  0  0  0  0
 28 32  1  0  0  0  0
 28 33  1  0  0  0  0
 29 37  1  0  0  0  0
 34 35  2  0  0  0  0
 34 36  1  0  0  0  0
 36 37  1  0  0  0  0
  2 38  1  0  0  0  0
  6 39  1  0  0  0  0
  6 40  1  0  0  0  0
  6 41  1  0  0  0  0
  7 42  1  0  0  0  0
  7 43  1  0  0  0  0
  7 44  1  0  0  0  0
  8 45  1  0  0  0  0
  8 46  1  0  0  0  0
  8 47  1  0  0  0  0
  9 48  1  0  0  0  0
  9 49  1  0  0  0  0
  9 50  1  0  0  0  0
 10 51  1  0  0  0  0
 10 52  1  0  0  0  0
 10 53  1  0  0  0  0
 11 54  1  0  0  0  0
 11 55  1  0  0  0  0
 12 56  1  0  0  0  0
 12 57  1  0  0  0  0
 13 58  1  0  0  0  0
 13 59  1  0  0  0  0
 14 60  1  0  0  0  0
 14 61  1  0  0  0  0
 15 62  1  0  0  0  0
 15 63  1  0  0  0  0
 16 64  1  0  0  0  0
 16 65  1  0  0  0  0
 17 66  1  0  0  0  0
 18 67  1  0  0  0  0
 18 68  1  0  0  0  0
 19 69  1  0  0  0  0
 19 70  1  0  0  0  0
 20 71  1  0  0  0  0
 20 72  1  0  0  0  0
 21 73  1  0  0  0  0
 22 74  1  0  0  0  0
 22 75  1  0  0  0  0
 23 76  1  0  0  0  0
 23 77  1  0  0  0  0
 25 78  1  0  0  0  0
 26 79  1  0  0  0  0
 27 80  1  0  0  0  0
 28 81  1  0  0  0  0
 30 82  1  0  0  0  0
 33 83  1  0  0  0  0
 36 84  1  0  0  0  0
M  END
> <pdb_id>
2X00

> <uniprot_id>
Q8WSF8

> <usmiles>
O=C1O[C@H](C2=C([C@@H]3/C=C(/[C@@H](O)CC[C@@H]4O[C@@H](/C(=C/CCC5=NCCC[C@@]53CC2)/C)[C@@H](C4)C)\C)C)C[C@@H]1C

$$$$
GZ3_A_1351
          07202409223D 1   1.00000     0.00000     0
            
 19 18  0  0  0  0            999 V2000
   31.5523  -33.9602  -39.6311 P   0  0  0  0  0  0  0  0  0  0  0  0
   31.4383  -35.4949  -39.9794 O   0  0  0  0  0  0  0  0  0  0  0  0
   31.2301  -33.8783  -38.1213 O   0  0  0  0  0  0  0  0  0  0  0  0
   30.6416  -33.1082  -40.4814 O   0  0  0  0  0  0  0  0  0  0  0  0
   35.9345  -32.7836  -40.6268 O   0  0  0  0  0  0  0  0  0  0  0  0
   36.0393  -31.4329  -38.9724 O   0  0  0  0  0  0  0  0  0  0  0  0
   33.2552  -31.3651  -38.3834 C   0  0  0  0  0  0  0  0  0  0  0  0
   33.2959  -33.5696  -39.8505 C   0  0  0  0  0  0  0  0  0  0  0  0
   35.3961  -32.1792  -39.6827 C   0  0  0  0  0  0  0  0  0  0  0  0
   33.9120  -32.3334  -39.3638 C   0  0  0  0  0  0  0  0  0  0  0  0
   31.6350  -35.6319  -40.9503 H   0  0  0  0  0  0  0  0  0  0  0  0
   31.2822  -32.9260  -37.8205 H   0  0  0  0  0  0  0  0  0  0  0  0
   35.3922  -33.3949  -41.2033 H   0  0  0  0  0  0  0  0  0  0  0  0
   35.5928  -30.9535  -38.2168 H   0  0  0  0  0  0  0  0  0  0  0  0
   33.8735  -30.5994  -38.2064 H   0  0  0  0  0  0  0  0  0  0  0  0
   32.4022  -31.0210  -38.7758 H   0  0  0  0  0  0  0  0  0  0  0  0
   33.0596  -31.8407  -37.5258 H   0  0  0  0  0  0  0  0  0  0  0  0
   33.4583  -33.5866  -40.8370 H   0  0  0  0  0  0  0  0  0  0  0  0
   33.8004  -34.3162  -39.4167 H   0  0  0  0  0  0  0  0  0  0  0  0
  1  2  1  0  0  0  0
  1  3  1  0  0  0  0
  1  4  2  0  0  0  0
  1  8  1  0  0  0  0
  5  9  1  0  0  0  0
  6  9  1  0  0  0  0
  7 10  1  0  0  0  0
  8 10  1  0  0  0  0
  9 10  2  0  0  0  0
  2 11  1  0  0  0  0
  3 12  1  0  0  0  0
  5 13  1  0  0  0  0
  6 14  1  0  0  0  0
  7 15  1  0  0  0  0
  7 16  1  0  0  0  0
  7 17  1  0  0  0  0
  8 18  1  0  0  0  0
  8 19  1  0  0  0  0
M  END
> <pdb_id>
4UMA

> <uniprot_id>
Q9K169

> <usmiles>
P(=O)(O)(O)CC(=C(O)O)C

$$$$
GZ3_B_1351
          07202409223D 1   1.00000     0.00000     0
            
 17 16  0  0  0  0            999 V2000
   31.6294  -34.0299  -39.6216 P   0  0  0  0  0  0  0  0  0  0  0  0
   30.7899  -33.0801  -40.6150 O   0  0  0  0  0  0  0  0  0  0  0  0
   31.4782  -35.5427  -40.0146 O   0  0  0  0  0  0  0  0  0  0  0  0
   31.2683  -33.8783  -38.1775 O   0  0  0  0  0  0  0  0  0  0  0  0
   35.9959  -32.9608  -40.7268 O   0  0  0  0  0  0  0  0  0  0  0  0
   36.0657  -31.4541  -39.2601 O   0  0  0  0  0  0  0  0  0  0  0  0
   33.2827  -31.3166  -38.8847 C   0  0  0  0  0  0  0  0  0  0  0  0
   33.3045  -33.7060  -39.9909 C   0  0  0  0  0  0  0  0  0  0  0  0
   35.4252  -32.2707  -39.9116 C   0  0  0  0  0  0  0  0  0  0  0  0
   33.9395  -32.4212  -39.6405 C   0  0  0  0  0  0  0  0  0  0  0  0
   30.9054  -32.1255  -40.3403 H   0  0  0  0  0  0  0  0  0  0  0  0
   32.0091  -36.1062  -39.3816 H   0  0  0  0  0  0  0  0  0  0  0  0
   35.4816  -33.6300  -41.2631 H   0  0  0  0  0  0  0  0  0  0  0  0
   33.7872  -30.4757  -38.6889 H   0  0  0  0  0  0  0  0  0  0  0  0
   32.3376  -31.4167  -38.5735 H   0  0  0  0  0  0  0  0  0  0  0  0
   33.3988  -33.8058  -40.9814 H   0  0  0  0  0  0  0  0  0  0  0  0
   33.8366  -34.4175  -39.5321 H   0  0  0  0  0  0  0  0  0  0  0  0
  1  2  1  0  0  0  0
  1  3  1  0  0  0  0
  1  4  2  0  0  0  0
  1  8  1  0  0  0  0
  5  9  1  0  0  0  0
  6  9  2  0  0  0  0
  7 10  2  0  0  0  0
  8 10  1  0  0  0  0
  9 10  1  0  0  0  0
  2 11  1  0  0  0  0
  3 12  1  0  0  0  0
  5 13  1  0  0  0  0
  7 14  1  0  0  0  0
  7 15  1  0  0  0  0
  8 16  1  0  0  0  0
  8 17  1  0  0  0  0
M  END
> <pdb_id>
4UMA

> <uniprot_id>
Q9K169

> <usmiles>
P(=O)(O)(O)CC(C(=O)O)=C

$$$$
GZE_A_306
          07212403053D 1   1.00000     0.00000     0
            
 37 38  0  0  0  0            999 V2000
   -3.5671   72.1400   52.4801 Cl  0  0  0  0  0  0  0  0  0  0  0  0
    3.3408   72.5556   59.0287 S   0  0  0  0  0  0  0  0  0  0  0  0
   -3.1842   70.9172   55.0258 F   0  0  0  0  0  0  0  0  0  0  0  0
   -3.5063   69.1171   53.9395 F   0  0  0  0  0  0  0  0  0  0  0  0
   -1.8943   69.2528   55.3587 F   0  0  0  0  0  0  0  0  0  0  0  0
    3.4692   71.2371   59.5375 O   0  0  0  0  0  0  0  0  0  0  0  0
    2.8279   73.5970   59.8523 O   0  0  0  0  0  0  0  0  0  0  0  0
    2.8305   67.7525   51.7707 O   0  0  0  0  0  0  0  0  0  0  0  0
    2.2099   72.5207   57.8869 O   0  0  0  0  0  0  0  0  0  0  0  0
    4.6789   73.0179   58.3190 N   0  0  0  0  0  0  0  0  0  0  0  0
    2.4019   68.5837   53.8731 N   0  0  0  0  0  0  0  0  0  0  0  0
    1.7831   69.7458   51.9448 N   0  0  0  0  0  0  0  0  0  0  0  0
   -1.1012   71.9420   51.5171 C   0  0  0  0  0  0  0  0  0  0  0  0
    2.8201   71.8559   55.6393 C   0  0  0  0  0  0  0  0  0  0  0  0
    1.8192   70.2411   57.1269 C   0  0  0  0  0  0  0  0  0  0  0  0
    0.1527   71.3764   51.3933 C   0  0  0  0  0  0  0  0  0  0  0  0
    2.8740   70.9005   54.6322 C   0  0  0  0  0  0  0  0  0  0  0  0
    1.8632   69.2907   56.1153 C   0  0  0  0  0  0  0  0  0  0  0  0
   -0.3708   69.8327   53.1687 C   0  0  0  0  0  0  0  0  0  0  0  0
   -1.9837   71.4558   52.4609 C   0  0  0  0  0  0  0  0  0  0  0  0
    2.3562   68.6282   52.4863 C   0  0  0  0  0  0  0  0  0  0  0  0
    2.3023   71.5200   56.8821 C   0  0  0  0  0  0  0  0  0  0  0  0
    2.3953   69.6123   54.8623 C   0  0  0  0  0  0  0  0  0  0  0  0
    0.5154   70.3084   52.2013 C   0  0  0  0  0  0  0  0  0  0  0  0
   -1.6275   70.4119   53.3172 C   0  0  0  0  0  0  0  0  0  0  0  0
   -2.5430   69.9250   54.4019 C   0  0  0  0  0  0  0  0  0  0  0  0
    4.5663   73.9477   57.9686 H   0  0  0  0  0  0  0  0  0  0  0  0
    5.4299   72.9990   58.9789 H   0  0  0  0  0  0  0  0  0  0  0  0
    2.4481   67.6581   54.2490 H   0  0  0  0  0  0  0  0  0  0  0  0
    2.3413   70.2324   51.2728 H   0  0  0  0  0  0  0  0  0  0  0  0
   -1.3692   72.7018   50.9246 H   0  0  0  0  0  0  0  0  0  0  0  0
    3.1536   72.7832   55.4690 H   0  0  0  0  0  0  0  0  0  0  0  0
    1.4430   70.0068   58.0233 H   0  0  0  0  0  0  0  0  0  0  0  0
    0.7993   71.7368   50.7210 H   0  0  0  0  0  0  0  0  0  0  0  0
    3.2574   71.1380   53.7396 H   0  0  0  0  0  0  0  0  0  0  0  0
    1.5120   68.3697   56.2839 H   0  0  0  0  0  0  0  0  0  0  0  0
   -0.1013   69.0715   53.7586 H   0  0  0  0  0  0  0  0  0  0  0  0
  1 20  1  0  0  0  0
  2  6  2  0  0  0  0
  2  7  2  0  0  0  0
  2  9  1  0  0  0  0
  2 10  1  0  0  0  0
  3 26  1  0  0  0  0
  4 26  1  0  0  0  0
  5 26  1  0  0  0  0
  8 21  2  0  0  0  0
  9 22  1  0  0  0  0
 11 21  1  0  0  0  0
 11 23  1  0  0  0  0
 12 21  1  0  0  0  0
 12 24  1  0  0  0  0
 13 16  1  0  0  0  0
 13 20  2  0  0  0  0
 14 17  1  0  0  0  0
 14 22  2  0  0  0  0
 15 18  2  0  0  0  0
 15 22  1  0  0  0  0
 16 24  2  0  0  0  0
 17 23  2  0  0  0  0
 18 23  1  0  0  0  0
 19 24  1  0  0  0  0
 19 25  2  0  0  0  0
 20 25  1  0  0  0  0
 25 26  1  0  0  0  0
 10 27  1  0  0  0  0
 10 28  1  0  0  0  0
 11 29  1  0  0  0  0
 12 30  1  0  0  0  0
 13 31  1  0  0  0  0
 14 32  1  0  0  0  0
 15 33  1  0  0  0  0
 16 34  1  0  0  0  0
 17 35  1  0  0  0  0
 18 36  1  0  0  0  0
 19 37  1  0  0  0  0
M  END
> <pdb_id>
6I0J

> <uniprot_id>
P00915

> <usmiles>
Clc1c(cc(NC(=O)Nc2ccc(OS(=O)(=O)N)cc2)cc1)C(F)(F)F

$$$$
H0L_A_601
          07202414243D 1   1.00000     0.00000     0
            
 57 60  0  0  0  0            999 V2000
   -6.5390  -42.9080   32.3930 F   0  0  0  0  0  0  0  0  0  0  0  0
  -11.2670  -43.4050   27.7980 F   0  0  0  0  0  0  0  0  0  0  0  0
  -14.1700  -42.7530   23.9740 O   0  0  0  0  0  0  0  0  0  0  0  0
  -20.0350  -40.6250   25.6960 O   0  0  0  0  0  0  0  0  0  0  0  0
  -19.2420  -40.8230   23.2610 O   0  0  0  0  0  0  0  0  0  0  0  0
  -11.9060  -45.6450   30.1120 N   0  0  0  0  0  0  0  0  0  0  0  0
  -20.5140  -40.5290   27.0300 C   0  0  0  0  0  0  0  0  0  0  0  0
  -18.8110  -40.8510   21.9030 C   0  0  0  0  0  0  0  0  0  0  0  0
  -12.3640  -44.2570   30.2460 C   0  0  0  0  0  0  0  0  0  0  0  0
  -11.2850  -45.9220   28.8070 C   0  0  0  0  0  0  0  0  0  0  0  0
  -11.0510  -46.0450   31.2450 C   0  0  0  0  0  0  0  0  0  0  0  0
   -7.4650  -44.7920   31.3410 C   0  0  0  0  0  0  0  0  0  0  0  0
   -8.8360  -43.2880   32.6200 C   0  0  0  0  0  0  0  0  0  0  0  0
   -8.5840  -45.5640   31.0680 C   0  0  0  0  0  0  0  0  0  0  0  0
   -9.9380  -44.0780   32.3390 C   0  0  0  0  0  0  0  0  0  0  0  0
  -13.2420  -43.8300   29.0890 C   0  0  0  0  0  0  0  0  0  0  0  0
  -12.2100  -45.5440   27.6540 C   0  0  0  0  0  0  0  0  0  0  0  0
  -17.9530  -41.5310   26.5810 C   0  0  0  0  0  0  0  0  0  0  0  0
  -17.1050  -41.7570   23.9000 C   0  0  0  0  0  0  0  0  0  0  0  0
  -15.6130  -42.5310   27.2120 C   0  0  0  0  0  0  0  0  0  0  0  0
  -13.2020  -43.4150   26.5670 C   0  0  0  0  0  0  0  0  0  0  0  0
   -7.6280  -43.6740   32.1130 C   0  0  0  0  0  0  0  0  0  0  0  0
  -14.9460  -42.7270   24.9170 C   0  0  0  0  0  0  0  0  0  0  0  0
  -18.7800  -41.1470   25.5390 C   0  0  0  0  0  0  0  0  0  0  0  0
  -18.3490  -41.2580   24.1940 C   0  0  0  0  0  0  0  0  0  0  0  0
   -9.8330  -45.1980   31.5350 C   0  0  0  0  0  0  0  0  0  0  0  0
  -14.6940  -43.3520   26.2790 C   0  0  2  0  0  0  0  0  0  0  0  0
  -16.6990  -42.0440   26.2820 C   0  0  0  0  0  0  0  0  0  0  0  0
  -16.2880  -42.1370   24.9580 C   0  0  0  0  0  0  0  0  0  0  0  0
  -12.5270  -44.0660   27.7720 C   0  0  0  0  0  0  0  0  0  0  0  0
  -21.4339  -40.1368   27.0265 H   0  0  0  0  0  0  0  0  0  0  0  0
  -20.5418  -41.4404   27.4406 H   0  0  0  0  0  0  0  0  0  0  0  0
  -19.9035  -39.9422   27.5620 H   0  0  0  0  0  0  0  0  0  0  0  0
  -19.5441  -40.5117   21.3136 H   0  0  0  0  0  0  0  0  0  0  0  0
  -18.0032  -40.2711   21.7977 H   0  0  0  0  0  0  0  0  0  0  0  0
  -18.5833  -41.7899   21.6448 H   0  0  0  0  0  0  0  0  0  0  0  0
  -11.5652  -43.6565   30.2828 H   0  0  0  0  0  0  0  0  0  0  0  0
  -12.8854  -44.1705   31.0949 H   0  0  0  0  0  0  0  0  0  0  0  0
  -11.0749  -46.8979   28.7481 H   0  0  0  0  0  0  0  0  0  0  0  0
  -10.4393  -45.3938   28.7313 H   0  0  0  0  0  0  0  0  0  0  0  0
  -10.7325  -46.9758   31.0656 H   0  0  0  0  0  0  0  0  0  0  0  0
  -11.6212  -46.0404   32.0665 H   0  0  0  0  0  0  0  0  0  0  0  0
   -6.5656  -45.0448   30.9843 H   0  0  0  0  0  0  0  0  0  0  0  0
   -8.9219  -42.4614   33.1763 H   0  0  0  0  0  0  0  0  0  0  0  0
   -8.4863  -46.3981   30.5251 H   0  0  0  0  0  0  0  0  0  0  0  0
  -10.8274  -43.8336   32.7252 H   0  0  0  0  0  0  0  0  0  0  0  0
  -13.4562  -42.8573   29.1786 H   0  0  0  0  0  0  0  0  0  0  0  0
  -14.0894  -44.3607   29.1043 H   0  0  0  0  0  0  0  0  0  0  0  0
  -13.0542  -46.0774   27.7075 H   0  0  0  0  0  0  0  0  0  0  0  0
  -11.7561  -45.7250   26.7815 H   0  0  0  0  0  0  0  0  0  0  0  0
  -18.2536  -41.4404   27.5304 H   0  0  0  0  0  0  0  0  0  0  0  0
  -16.7957  -41.8446   22.9531 H   0  0  0  0  0  0  0  0  0  0  0  0
  -15.1179  -41.7633   27.6188 H   0  0  0  0  0  0  0  0  0  0  0  0
  -15.9926  -43.1049   27.9377 H   0  0  0  0  0  0  0  0  0  0  0  0
  -12.9028  -42.4610   26.5879 H   0  0  0  0  0  0  0  0  0  0  0  0
  -12.8047  -43.8715   25.7709 H   0  0  0  0  0  0  0  0  0  0  0  0
  -15.0411  -44.2895   26.2547 H   0  0  0  0  0  0  0  0  0  0  0  0
  1 22  1  0  0  0  0
  2 30  1  0  0  0  0
  3 23  2  0  0  0  0
  4  7  1  0  0  0  0
  4 24  1  0  0  0  0
  5  8  1  0  0  0  0
  5 25  1  0  0  0  0
  6  9  1  0  0  0  0
  6 10  1  0  0  0  0
  6 11  1  0  0  0  0
  9 16  1  0  0  0  0
 10 17  1  0  0  0  0
 11 26  1  0  0  0  0
 12 14  2  0  0  0  0
 12 22  1  0  0  0  0
 13 15  1  0  0  0  0
 13 22  2  0  0  0  0
 14 26  1  0  0  0  0
 15 26  2  0  0  0  0
 16 30  1  0  0  0  0
 17 30  1  0  0  0  0
 18 24  1  0  0  0  0
 18 28  2  0  0  0  0
 19 25  1  0  0  0  0
 19 29  2  0  0  0  0
 20 27  1  0  0  0  0
 20 28  1  0  0  0  0
 21 27  1  0  0  0  0
 21 30  1  0  0  0  0
 23 27  1  0  0  0  0
 23 29  1  0  0  0  0
 24 25  2  0  0  0  0
 28 29  1  0  0  0  0
  7 31  1  0  0  0  0
  7 32  1  0  0  0  0
  7 33  1  0  0  0  0
  8 34  1  0  0  0  0
  8 35  1  0  0  0  0
  8 36  1  0  0  0  0
  9 37  1  0  0  0  0
  9 38  1  0  0  0  0
 10 39  1  0  0  0  0
 10 40  1  0  0  0  0
 11 41  1  0  0  0  0
 11 42  1  0  0  0  0
 12 43  1  0  0  0  0
 13 44  1  0  0  0  0
 14 45  1  0  0  0  0
 15 46  1  0  0  0  0
 16 47  1  0  0  0  0
 16 48  1  0  0  0  0
 17 49  1  0  0  0  0
 17 50  1  0  0  0  0
 18 51  1  0  0  0  0
 19 52  1  0  0  0  0
 20 53  1  0  0  0  0
 20 54  1  0  0  0  0
 21 55  1  0  0  0  0
 21 56  1  0  0  0  0
 27 57  1  0  0  0  0
M  END
> <pdb_id>
7D9O

> <uniprot_id>
P22303

> <usmiles>
Fc1ccc(cc1)CN2CCC(F)(C[C@@H]3C(=O)c4c(cc(OC)c(OC)c4)C3)CC2

$$$$
H1B_A_1124
          07202405143D 1   1.00000     0.00000     0
            
 55 58  0  0  0  0            999 V2000
    1.1400   14.7290   12.6540 S   0  0  0  0  0  0  0  0  0  0  0  0
   -4.4550   17.9490   17.7990 S   0  0  0  0  0  0  0  0  0  0  0  0
    5.5980   17.0390    9.0310 F   0  0  0  0  0  0  0  0  0  0  0  0
    4.1970   17.3130   10.6720 F   0  0  0  0  0  0  0  0  0  0  0  0
    3.5640   17.6020    8.7100 F   0  0  0  0  0  0  0  0  0  0  0  0
   -5.5510   17.4910   16.9940 O   0  0  0  0  0  0  0  0  0  0  0  0
   -4.7500   18.8030   18.9120 O   0  0  0  0  0  0  0  0  0  0  0  0
   -2.6980   11.8050   11.4980 O   0  0  0  0  0  0  0  0  0  0  0  0
    0.7040   15.6840   15.6570 N   0  0  0  0  0  0  0  0  0  0  0  0
   -1.5550   15.8060   15.1510 N   0  0  0  0  0  0  0  0  0  0  0  0
   -1.0070   11.8680    9.9400 N   0  0  0  0  0  0  0  0  0  0  0  0
   -2.7760   11.7730    8.3110 C   0  0  0  0  0  0  0  0  0  0  0  0
   -3.2670   18.7400   16.7610 C   0  0  0  0  0  0  0  0  0  0  0  0
   -3.5340   16.5540   18.3680 C   0  0  0  0  0  0  0  0  0  0  0  0
   -1.7550   10.9550    9.0700 C   0  0  0  0  0  0  0  0  0  0  0  0
    0.2130   12.3480    9.5360 C   0  0  0  0  0  0  0  0  0  0  0  0
    4.3670   13.1530    8.5790 C   0  0  0  0  0  0  0  0  0  0  0  0
   -2.8000   17.7960   15.6730 C   0  0  0  0  0  0  0  0  0  0  0  0
   -2.8640   15.8150   17.2060 C   0  0  0  0  0  0  0  0  0  0  0  0
    3.1390   12.7430    9.0790 C   0  0  0  0  0  0  0  0  0  0  0  0
    4.7560   14.4710    8.6970 C   0  0  0  0  0  0  0  0  0  0  0  0
   -1.1610   13.7560   13.2250 C   0  0  0  0  0  0  0  0  0  0  0  0
    2.7010   14.9790    9.8320 C   0  0  0  0  0  0  0  0  0  0  0  0
   -0.2180   14.6090   13.7110 C   0  0  0  0  0  0  0  0  0  0  0  0
    0.4080   13.6360   11.5150 C   0  0  0  0  0  0  0  0  0  0  0  0
   -1.5950   12.2360   11.1510 C   0  0  0  0  0  0  0  0  0  0  0  0
   -0.3840   15.3600   14.9370 C   0  0  0  0  0  0  0  0  0  0  0  0
   -2.0230   16.6330   16.2420 C   0  0  0  0  0  0  0  0  0  0  0  0
    2.2970   13.6510    9.7170 C   0  0  0  0  0  0  0  0  0  0  0  0
    3.9250   15.3960    9.3150 C   0  0  0  0  0  0  0  0  0  0  0  0
    0.9720   13.2050   10.2590 C   0  0  0  0  0  0  0  0  0  0  0  0
   -0.8490   13.1640   11.9860 C   0  0  0  0  0  0  0  0  0  0  0  0
    4.3350   16.8310    9.4280 C   0  0  0  0  0  0  0  0  0  0  0  0
    1.5930   15.2893   15.4248 H   0  0  0  0  0  0  0  0  0  0  0  0
   -2.2456   15.5509   14.4742 H   0  0  0  0  0  0  0  0  0  0  0  0
   -3.3020   11.1733    7.7080 H   0  0  0  0  0  0  0  0  0  0  0  0
   -3.3936   12.2194    8.9586 H   0  0  0  0  0  0  0  0  0  0  0  0
   -2.3074   12.4672    7.7646 H   0  0  0  0  0  0  0  0  0  0  0  0
   -2.4817   19.0194   17.3135 H   0  0  0  0  0  0  0  0  0  0  0  0
   -3.6827   19.5465   16.3406 H   0  0  0  0  0  0  0  0  0  0  0  0
   -4.1530   15.9258   18.8394 H   0  0  0  0  0  0  0  0  0  0  0  0
   -2.8289   16.8672   19.0042 H   0  0  0  0  0  0  0  0  0  0  0  0
   -2.2173   10.2612    9.6221 H   0  0  0  0  0  0  0  0  0  0  0  0
   -1.1311   10.5090    8.4282 H   0  0  0  0  0  0  0  0  0  0  0  0
    0.5645   12.0453    8.6501 H   0  0  0  0  0  0  0  0  0  0  0  0
    4.9704   12.4922    8.1327 H   0  0  0  0  0  0  0  0  0  0  0  0
   -2.2136   18.2981   15.0374 H   0  0  0  0  0  0  0  0  0  0  0  0
   -3.5981   17.4447   15.1836 H   0  0  0  0  0  0  0  0  0  0  0  0
   -3.5880   15.3768   16.6733 H   0  0  0  0  0  0  0  0  0  0  0  0
   -2.2697   15.1141   17.6005 H   0  0  0  0  0  0  0  0  0  0  0  0
    2.8566   11.7888    8.9806 H   0  0  0  0  0  0  0  0  0  0  0  0
    5.6417   14.7621    8.3354 H   0  0  0  0  0  0  0  0  0  0  0  0
   -2.0129   13.5639   13.7122 H   0  0  0  0  0  0  0  0  0  0  0  0
    2.1063   15.6395   10.2903 H   0  0  0  0  0  0  0  0  0  0  0  0
   -1.2295   16.9901   16.7348 H   0  0  0  0  0  0  0  0  0  0  0  0
  1 24  1  0  0  0  0
  1 25  1  0  0  0  0
  2  6  2  0  0  0  0
  2  7  2  0  0  0  0
  2 13  1  0  0  0  0
  2 14  1  0  0  0  0
  3 33  1  0  0  0  0
  4 33  1  0  0  0  0
  5 33  1  0  0  0  0
  8 26  2  0  0  0  0
  9 27  2  0  0  0  0
 10 27  1  0  0  0  0
 10 28  1  0  0  0  0
 11 15  1  0  0  0  0
 11 16  1  0  0  0  0
 11 26  1  0  0  0  0
 12 15  1  0  0  0  0
 13 18  1  0  0  0  0
 14 19  1  0  0  0  0
 16 31  2  0  0  0  0
 17 20  2  0  0  0  0
 17 21  1  0  0  0  0
 18 28  1  0  0  0  0
 19 28  1  0  0  0  0
 20 29  1  0  0  0  0
 21 30  2  0  0  0  0
 22 24  2  0  0  0  0
 22 32  1  0  0  0  0
 23 29  2  0  0  0  0
 23 30  1  0  0  0  0
 24 27  1  0  0  0  0
 25 31  1  0  0  0  0
 25 32  2  0  0  0  0
 26 32  1  0  0  0  0
 29 31  1  0  0  0  0
 30 33  1  0  0  0  0
  9 34  1  0  0  0  0
 10 35  1  0  0  0  0
 12 36  1  0  0  0  0
 12 37  1  0  0  0  0
 12 38  1  0  0  0  0
 13 39  1  0  0  0  0
 13 40  1  0  0  0  0
 14 41  1  0  0  0  0
 14 42  1  0  0  0  0
 15 43  1  0  0  0  0
 15 44  1  0  0  0  0
 16 45  1  0  0  0  0
 17 46  1  0  0  0  0
 18 47  1  0  0  0  0
 18 48  1  0  0  0  0
 19 49  1  0  0  0  0
 19 50  1  0  0  0  0
 20 51  1  0  0  0  0
 21 52  1  0  0  0  0
 22 53  1  0  0  0  0
 23 54  1  0  0  0  0
 28 55  1  0  0  0  0
M  END
> <pdb_id>
4UIW

> <uniprot_id>
A6NFY8

> <usmiles>
S1(=O)(=O)CCC(NC(=N)C=2SC=3C(c4cc(ccc4)C(F)(F)F)=CN(C(=O)C3C2)CC)CC1

$$$$
H1D_A_4398
          07192418523D 1   1.00000     0.00000     0
            
 33 32  0  0  0  0            999 V2000
  -23.8279   32.9571  -15.7770 S   0  0  0  0  0  0  0  0  0  0  0  0
  -25.1213   29.2996  -21.5312 O   0  0  0  0  0  0  0  0  0  0  0  0
  -19.1126   34.1824  -15.6361 O   0  0  0  0  0  0  0  0  0  0  0  0
  -18.9792   33.1941  -13.6441 O   0  0  0  0  0  0  0  0  0  0  0  0
  -26.9792   29.8588  -19.6416 O   0  0  0  0  0  0  0  0  0  0  0  0
  -23.4513   31.0792  -18.2813 O   0  0  0  0  0  0  0  0  0  0  0  0
  -26.5219   29.5315  -17.0307 O   0  0  0  0  0  0  0  0  0  0  0  0
  -19.8295   30.8616  -14.4448 N   0  0  0  0  0  0  0  0  0  0  0  0
  -24.8450   29.3608  -20.2005 N   0  0  0  0  0  0  0  0  0  0  0  0
  -22.1948   32.5660  -15.0492 C   0  0  0  0  0  0  0  0  0  0  0  0
  -24.4554   31.2697  -16.1082 C   0  0  0  0  0  0  0  0  0  0  0  0
  -21.1601   32.1219  -16.0868 C   0  0  0  0  0  0  0  0  0  0  0  0
  -19.2419   33.2059  -14.8652 C   0  0  0  0  0  0  0  0  0  0  0  0
  -25.8105   29.6365  -19.3290 C   0  0  0  0  0  0  0  0  0  0  0  0
  -24.7074   31.0350  -17.5977 C   0  0  2  0  0  0  0  0  0  0  0  0
  -25.3702   29.6809  -17.8646 C   0  0  1  0  0  0  0  0  0  0  0  0
  -19.7722   31.9064  -15.4776 C   0  0  1  0  0  0  0  0  0  0  0  0
  -24.2854   29.0831  -22.0356 H   0  0  0  0  0  0  0  0  0  0  0  0
  -19.3512   34.0912  -16.6030 H   0  0  0  0  0  0  0  0  0  0  0  0
  -23.5982   30.9272  -19.2587 H   0  0  0  0  0  0  0  0  0  0  0  0
  -26.2441   29.5593  -16.0705 H   0  0  0  0  0  0  0  0  0  0  0  0
  -18.9186   30.7290  -14.0539 H   0  0  0  0  0  0  0  0  0  0  0  0
  -20.4643   31.1398  -13.7240 H   0  0  0  0  0  0  0  0  0  0  0  0
  -23.9129   29.1980  -19.8769 H   0  0  0  0  0  0  0  0  0  0  0  0
  -22.3123   31.8296  -14.3829 H   0  0  0  0  0  0  0  0  0  0  0  0
  -21.8498   33.3825  -14.5862 H   0  0  0  0  0  0  0  0  0  0  0  0
  -25.3135   31.1409  -15.6113 H   0  0  0  0  0  0  0  0  0  0  0  0
  -23.7808   30.6053  -15.7862 H   0  0  0  0  0  0  0  0  0  0  0  0
  -21.0937   32.8253  -16.7945 H   0  0  0  0  0  0  0  0  0  0  0  0
  -21.4665   31.2634  -16.4978 H   0  0  0  0  0  0  0  0  0  0  0  0
  -25.2967   31.7627  -17.9486 H   0  0  0  0  0  0  0  0  0  0  0  0
  -24.7206   28.9427  -17.6825 H   0  0  0  0  0  0  0  0  0  0  0  0
  -19.1461   31.6116  -16.1994 H   0  0  0  0  0  0  0  0  0  0  0  0
  1 10  1  0  0  0  0
  1 11  1  0  0  0  0
  2  9  1  0  0  0  0
  3 13  1  0  0  0  0
  4 13  2  0  0  0  0
  5 14  2  0  0  0  0
  6 15  1  0  0  0  0
  7 16  1  0  0  0  0
  8 17  1  0  0  0  0
  9 14  1  0  0  0  0
 10 12  1  0  0  0  0
 11 15  1  0  0  0  0
 12 17  1  0  0  0  0
 13 17  1  0  0  0  0
 14 16  1  0  0  0  0
 15 16  1  0  0  0  0
  2 18  1  0  0  0  0
  3 19  1  0  0  0  0
  6 20  1  0  0  0  0
  7 21  1  0  0  0  0
  8 22  1  0  0  0  0
  8 23  1  0  0  0  0
  9 24  1  0  0  0  0
 10 25  1  0  0  0  0
 10 26  1  0  0  0  0
 11 27  1  0  0  0  0
 11 28  1  0  0  0  0
 12 29  1  0  0  0  0
 12 30  1  0  0  0  0
 15 31  1  0  0  0  0
 16 32  1  0  0  0  0
 17 33  1  0  0  0  0
M  END
> <pdb_id>
2FQT

> <uniprot_id>
O34667

> <usmiles>
S(C[C@@H](O)[C@@H](O)C(=O)NO)CC[C@H](N)C(=O)O

$$$$
H1Z_A_309
          07192416293D 1   1.00000     0.00000     0
            
 30 30  0  0  0  0            999 V2000
   -5.9215    0.9292   16.9048 S   0  0  0  0  0  0  0  0  0  0  0  0
   -7.3418    0.9915   16.7544 O   0  0  0  0  0  0  0  0  0  0  0  0
   -5.3864    1.0373   18.2311 O   0  0  0  0  0  0  0  0  0  0  0  0
   -3.7805    5.6901   14.1765 O   0  0  0  0  0  0  0  0  0  0  0  0
   -5.3642   -0.3935   16.2279 N   0  0  0  0  0  0  0  0  0  0  0  0
   -1.3042    9.3931   14.4475 C   0  0  0  0  0  0  0  0  0  0  0  0
   -2.4055    5.7514   13.7656 C   0  0  0  0  0  0  0  0  0  0  0  0
   -1.8855    8.0427   14.7226 C   0  0  0  0  0  0  0  0  0  0  0  0
   -2.0347    7.1913   13.4651 C   0  0  0  0  0  0  0  0  0  0  0  0
   -3.9494    2.3027   15.5810 C   0  0  0  0  0  0  0  0  0  0  0  0
   -6.0898    3.3959   15.7449 C   0  0  0  0  0  0  0  0  0  0  0  0
   -3.4312    3.4179   14.9452 C   0  0  0  0  0  0  0  0  0  0  0  0
   -5.5616    4.5121   15.1212 C   0  0  0  0  0  0  0  0  0  0  0  0
   -5.2778    2.2997   15.9897 C   0  0  0  0  0  0  0  0  0  0  0  0
   -4.2333    4.5262   14.7403 C   0  0  0  0  0  0  0  0  0  0  0  0
   -4.3708   -0.4306   16.3368 H   0  0  0  0  0  0  0  0  0  0  0  0
   -5.7775   -1.1918   16.6660 H   0  0  0  0  0  0  0  0  0  0  0  0
   -1.2298    9.9047   15.3035 H   0  0  0  0  0  0  0  0  0  0  0  0
   -0.3963    9.2887   14.0416 H   0  0  0  0  0  0  0  0  0  0  0  0
   -1.8978    9.8887   13.8135 H   0  0  0  0  0  0  0  0  0  0  0  0
   -2.2773    5.1953   12.9445 H   0  0  0  0  0  0  0  0  0  0  0  0
   -1.8220    5.4024   14.4990 H   0  0  0  0  0  0  0  0  0  0  0  0
   -2.7884    8.1625   15.1356 H   0  0  0  0  0  0  0  0  0  0  0  0
   -1.2868    7.5625   15.3636 H   0  0  0  0  0  0  0  0  0  0  0  0
   -2.7498    7.5916   12.8921 H   0  0  0  0  0  0  0  0  0  0  0  0
   -1.1664    7.2000   12.9693 H   0  0  0  0  0  0  0  0  0  0  0  0
   -3.3711    1.5035   15.7452 H   0  0  0  0  0  0  0  0  0  0  0  0
   -7.0518    3.3800   16.0174 H   0  0  0  0  0  0  0  0  0  0  0  0
   -2.4804    3.4223   14.6353 H   0  0  0  0  0  0  0  0  0  0  0  0
   -6.1407    5.3084   14.9460 H   0  0  0  0  0  0  0  0  0  0  0  0
  1  2  2  0  0  0  0
  1  3  2  0  0  0  0
  1  5  1  0  0  0  0
  1 14  1  0  0  0  0
  4  7  1  0  0  0  0
  4 15  1  0  0  0  0
  6  8  1  0  0  0  0
  7  9  1  0  0  0  0
  8  9  1  0  0  0  0
 10 12  2  0  0  0  0
 10 14  1  0  0  0  0
 11 13  1  0  0  0  0
 11 14  2  0  0  0  0
 12 15  1  0  0  0  0
 13 15  2  0  0  0  0
  5 16  1  0  0  0  0
  5 17  1  0  0  0  0
  6 18  1  0  0  0  0
  6 19  1  0  0  0  0
  6 20  1  0  0  0  0
  7 21  1  0  0  0  0
  7 22  1  0  0  0  0
  8 23  1  0  0  0  0
  8 24  1  0  0  0  0
  9 25  1  0  0  0  0
  9 26  1  0  0  0  0
 10 27  1  0  0  0  0
 11 28  1  0  0  0  0
 12 29  1  0  0  0  0
 13 30  1  0  0  0  0
M  END
> <pdb_id>
6I3E

> <uniprot_id>
P00918

> <usmiles>
S(=O)(=O)(N)c1ccc(OCCCC)cc1

$$$$
H21_A_1245
          07192422073D 1   1.00000     0.00000     0
            
 46 49  0  0  0  0            999 V2000
   42.3025   28.5498   12.0815 Cl  0  0  0  0  0  0  0  0  0  0  0  0
   39.8456   27.9086   13.5043 S   0  0  0  0  0  0  0  0  0  0  0  0
   36.1629   30.0945   19.2941 F   0  0  0  0  0  0  0  0  0  0  0  0
   33.3601   30.1145   18.9539 O   0  0  0  0  0  0  0  0  0  0  0  0
   37.2472   27.4126   14.7463 O   0  0  0  0  0  0  0  0  0  0  0  0
   35.4042   34.4998   22.0888 O   0  0  0  0  0  0  0  0  0  0  0  0
   34.7691   28.7654   15.3210 N   0  0  0  0  0  0  0  0  0  0  0  0
   33.6217   29.0359   13.4049 N   0  0  0  0  0  0  0  0  0  0  0  0
   36.0249   28.7006   13.2876 N   0  0  0  0  0  0  0  0  0  0  0  0
   34.5610   30.8886   17.2573 N   0  0  0  0  0  0  0  0  0  0  0  0
   33.4594   28.9580   15.5784 N   0  0  0  0  0  0  0  0  0  0  0  0
   37.1605   34.5694   20.6565 N   0  0  0  0  0  0  0  0  0  0  0  0
   32.7936   29.1089   14.4378 C   0  0  0  0  0  0  0  0  0  0  0  0
   38.3967   35.0669   20.3643 C   0  0  0  0  0  0  0  0  0  0  0  0
   32.9571   28.9814   16.9353 C   0  0  0  0  0  0  0  0  0  0  0  0
   39.0559   35.9299   21.1620 C   0  0  0  0  0  0  0  0  0  0  0  0
   38.4312   36.3432   22.3598 C   0  0  0  0  0  0  0  0  0  0  0  0
   39.7390   29.0113   11.1793 C   0  0  0  0  0  0  0  0  0  0  0  0
   38.4081   28.8708   11.6124 C   0  0  0  0  0  0  0  0  0  0  0  0
   37.2042   35.8755   22.6728 C   0  0  0  0  0  0  0  0  0  0  0  0
   35.0141   33.1988   17.8629 C   0  0  0  0  0  0  0  0  0  0  0  0
   35.6755   34.0943   18.7167 C   0  0  0  0  0  0  0  0  0  0  0  0
   36.6373   32.2827   19.9652 C   0  0  0  0  0  0  0  0  0  0  0  0
   40.5968   28.5547   12.1106 C   0  0  0  0  0  0  0  0  0  0  0  0
   38.3213   28.2792   12.8375 C   0  0  0  0  0  0  0  0  0  0  0  0
   33.6542   30.0418   17.7782 C   0  0  0  0  0  0  0  0  0  0  0  0
   34.7751   28.7765   14.0136 C   0  0  0  0  0  0  0  0  0  0  0  0
   37.1673   28.0295   13.7003 C   0  0  0  0  0  0  0  0  0  0  0  0
   36.5072   34.9565   21.8368 C   0  0  0  0  0  0  0  0  0  0  0  0
   35.9913   31.4006   19.1035 C   0  0  0  0  0  0  0  0  0  0  0  0
   35.1711   31.8224   18.0604 C   0  0  0  0  0  0  0  0  0  0  0  0
   36.4801   33.6445   19.7746 C   0  0  0  0  0  0  0  0  0  0  0  0
   36.0692   29.1749   12.4083 H   0  0  0  0  0  0  0  0  0  0  0  0
   34.7911   30.8385   16.2854 H   0  0  0  0  0  0  0  0  0  0  0  0
   31.8070   29.2568   14.3686 H   0  0  0  0  0  0  0  0  0  0  0  0
   38.8362   34.7763   19.5144 H   0  0  0  0  0  0  0  0  0  0  0  0
   33.1089   28.0852   17.3522 H   0  0  0  0  0  0  0  0  0  0  0  0
   31.9768   29.1775   16.9143 H   0  0  0  0  0  0  0  0  0  0  0  0
   39.9631   36.2687   20.9127 H   0  0  0  0  0  0  0  0  0  0  0  0
   38.8967   36.9805   22.9740 H   0  0  0  0  0  0  0  0  0  0  0  0
   40.0112   29.3982   10.2983 H   0  0  0  0  0  0  0  0  0  0  0  0
   37.6154   29.1708   11.0817 H   0  0  0  0  0  0  0  0  0  0  0  0
   36.7704   36.1843   23.5193 H   0  0  0  0  0  0  0  0  0  0  0  0
   34.4367   33.5404   17.1213 H   0  0  0  0  0  0  0  0  0  0  0  0
   35.5710   35.0776   18.5676 H   0  0  0  0  0  0  0  0  0  0  0  0
   37.2068   31.9373   20.7112 H   0  0  0  0  0  0  0  0  0  0  0  0
  1 24  1  0  0  0  0
  2 24  1  0  0  0  0
  2 25  1  0  0  0  0
  3 30  1  0  0  0  0
  4 26  2  0  0  0  0
  5 28  2  0  0  0  0
  6 29  2  0  0  0  0
  7 11  1  0  0  0  0
  7 27  2  0  0  0  0
  8 13  2  0  0  0  0
  8 27  1  0  0  0  0
  9 27  1  0  0  0  0
  9 28  1  0  0  0  0
 10 26  1  0  0  0  0
 10 31  1  0  0  0  0
 11 13  1  0  0  0  0
 11 15  1  0  0  0  0
 12 14  1  0  0  0  0
 12 29  1  0  0  0  0
 12 32  1  0  0  0  0
 14 16  2  0  0  0  0
 15 26  1  0  0  0  0
 16 17  1  0  0  0  0
 17 20  2  0  0  0  0
 18 19  1  0  0  0  0
 18 24  2  0  0  0  0
 19 25  2  0  0  0  0
 20 29  1  0  0  0  0
 21 22  2  0  0  0  0
 21 31  1  0  0  0  0
 22 32  1  0  0  0  0
 23 30  1  0  0  0  0
 23 32  2  0  0  0  0
 25 28  1  0  0  0  0
 30 31  2  0  0  0  0
  9 33  1  0  0  0  0
 10 34  1  0  0  0  0
 13 35  1  0  0  0  0
 14 36  1  0  0  0  0
 15 37  1  0  0  0  0
 15 38  1  0  0  0  0
 16 39  1  0  0  0  0
 17 40  1  0  0  0  0
 18 41  1  0  0  0  0
 19 42  1  0  0  0  0
 20 43  1  0  0  0  0
 21 44  1  0  0  0  0
 22 45  1  0  0  0  0
 23 46  1  0  0  0  0
M  END
> <pdb_id>
2VVV

> <uniprot_id>
P00742

> <usmiles>
ClC=1SC(C(=O)NC2=NN(C=N2)CC(=O)Nc3c(F)cc(N4C(=O)C=CC=C4)cc3)=CC1

$$$$
H25_A_1245
          07192422073D 1   1.00000     0.00000     0
            
 53 56  0  0  0  0            999 V2000
   42.5777   28.7952   12.1539 Cl  0  0  0  0  0  0  0  0  0  0  0  0
   40.1292   27.7924   13.5709 S   0  0  0  0  0  0  0  0  0  0  0  0
   36.2120   29.8303   18.9678 F   0  0  0  0  0  0  0  0  0  0  0  0
   33.4396   29.9882   18.6497 O   0  0  0  0  0  0  0  0  0  0  0  0
   37.6438   26.8042   14.6163 O   0  0  0  0  0  0  0  0  0  0  0  0
   35.4916   33.8357   21.8269 O   0  0  0  0  0  0  0  0  0  0  0  0
   33.3258   26.5058   12.5778 O   0  0  0  0  0  0  0  0  0  0  0  0
   34.7427   30.6483   16.8859 N   0  0  0  0  0  0  0  0  0  0  0  0
   36.1880   27.9381   13.3282 N   0  0  0  0  0  0  0  0  0  0  0  0
   33.6294   28.7860   15.2967 N   0  0  0  0  0  0  0  0  0  0  0  0
   37.1873   34.3112   20.4066 N   0  0  0  0  0  0  0  0  0  0  0  0
   38.3201   35.0025   20.1392 C   0  0  0  0  0  0  0  0  0  0  0  0
   33.0029   28.8882   16.6096 C   0  0  0  0  0  0  0  0  0  0  0  0
   32.7495   28.1828   14.2668 C   0  0  0  0  0  0  0  0  0  0  0  0
   34.8242   27.9459   15.4043 C   0  0  0  0  0  0  0  0  0  0  0  0
   38.8429   35.8979   21.0425 C   0  0  0  0  0  0  0  0  0  0  0  0
   38.2117   36.1150   22.2575 C   0  0  0  0  0  0  0  0  0  0  0  0
   39.9013   29.1765   11.3241 C   0  0  0  0  0  0  0  0  0  0  0  0
   38.5885   28.8737   11.6952 C   0  0  0  0  0  0  0  0  0  0  0  0
   37.0512   35.3983   22.5218 C   0  0  0  0  0  0  0  0  0  0  0  0
   35.2969   32.9666   17.5096 C   0  0  0  0  0  0  0  0  0  0  0  0
   35.8953   33.8754   18.3964 C   0  0  0  0  0  0  0  0  0  0  0  0
   36.7025   32.0242   19.6807 C   0  0  0  0  0  0  0  0  0  0  0  0
   40.7833   28.6397   12.2291 C   0  0  0  0  0  0  0  0  0  0  0  0
   38.5702   28.1360   12.8985 C   0  0  0  0  0  0  0  0  0  0  0  0
   33.7579   29.8868   17.4511 C   0  0  0  0  0  0  0  0  0  0  0  0
   37.4198   27.5810   13.6789 C   0  0  0  0  0  0  0  0  0  0  0  0
   36.5593   34.4897   21.5918 C   0  0  0  0  0  0  0  0  0  0  0  0
   36.0966   31.1438   18.7941 C   0  0  0  0  0  0  0  0  0  0  0  0
   33.7624   27.7117   13.2234 C   0  0  1  0  0  0  0  0  0  0  0  0
   35.0183   27.3669   14.0187 C   0  0  1  0  0  0  0  0  0  0  0  0
   35.3817   31.5876   17.7126 C   0  0  0  0  0  0  0  0  0  0  0  0
   36.6274   33.4076   19.4964 C   0  0  0  0  0  0  0  0  0  0  0  0
   34.0074   26.2235   11.9027 H   0  0  0  0  0  0  0  0  0  0  0  0
   34.9974   30.5413   15.9248 H   0  0  0  0  0  0  0  0  0  0  0  0
   36.0543   28.5994   12.5900 H   0  0  0  0  0  0  0  0  0  0  0  0
   38.7865   34.8590   19.2664 H   0  0  0  0  0  0  0  0  0  0  0  0
   33.0201   27.9944   17.0576 H   0  0  0  0  0  0  0  0  0  0  0  0
   32.0554   29.1901   16.5042 H   0  0  0  0  0  0  0  0  0  0  0  0
   32.1209   28.8597   13.8837 H   0  0  0  0  0  0  0  0  0  0  0  0
   32.2270   27.4156   14.6388 H   0  0  0  0  0  0  0  0  0  0  0  0
   34.6825   27.2167   16.0738 H   0  0  0  0  0  0  0  0  0  0  0  0
   35.6169   28.4939   15.6710 H   0  0  0  0  0  0  0  0  0  0  0  0
   39.6823   36.3947   20.8219 H   0  0  0  0  0  0  0  0  0  0  0  0
   38.5794   36.7659   22.9217 H   0  0  0  0  0  0  0  0  0  0  0  0
   40.1606   29.7068   10.5169 H   0  0  0  0  0  0  0  0  0  0  0  0
   37.7748   29.1424   11.1797 H   0  0  0  0  0  0  0  0  0  0  0  0
   36.5672   35.5367   23.3859 H   0  0  0  0  0  0  0  0  0  0  0  0
   34.7989   33.3143   16.7152 H   0  0  0  0  0  0  0  0  0  0  0  0
   35.7990   34.8589   18.2430 H   0  0  0  0  0  0  0  0  0  0  0  0
   37.2027   31.6610   20.4668 H   0  0  0  0  0  0  0  0  0  0  0  0
   33.9481   28.4305   12.5534 H   0  0  0  0  0  0  0  0  0  0  0  0
   35.1156   26.3735   14.0798 H   0  0  0  0  0  0  0  0  0  0  0  0
  1 24  1  0  0  0  0
  2 24  1  0  0  0  0
  2 25  1  0  0  0  0
  3 29  1  0  0  0  0
  4 26  2  0  0  0  0
  5 27  2  0  0  0  0
  6 28  2  0  0  0  0
  7 30  1  0  0  0  0
  8 26  1  0  0  0  0
  8 32  1  0  0  0  0
  9 27  1  0  0  0  0
  9 31  1  0  0  0  0
 10 13  1  0  0  0  0
 10 14  1  0  0  0  0
 10 15  1  0  0  0  0
 11 12  1  0  0  0  0
 11 28  1  0  0  0  0
 11 33  1  0  0  0  0
 12 16  2  0  0  0  0
 13 26  1  0  0  0  0
 14 30  1  0  0  0  0
 15 31  1  0  0  0  0
 16 17  1  0  0  0  0
 17 20  2  0  0  0  0
 18 19  1  0  0  0  0
 18 24  2  0  0  0  0
 19 25  2  0  0  0  0
 20 28  1  0  0  0  0
 21 22  2  0  0  0  0
 21 32  1  0  0  0  0
 22 33  1  0  0  0  0
 23 29  1  0  0  0  0
 23 33  2  0  0  0  0
 25 27  1  0  0  0  0
 29 32  2  0  0  0  0
 30 31  1  0  0  0  0
  7 34  1  0  0  0  0
  8 35  1  0  0  0  0
  9 36  1  0  0  0  0
 12 37  1  0  0  0  0
 13 38  1  0  0  0  0
 13 39  1  0  0  0  0
 14 40  1  0  0  0  0
 14 41  1  0  0  0  0
 15 42  1  0  0  0  0
 15 43  1  0  0  0  0
 16 44  1  0  0  0  0
 17 45  1  0  0  0  0
 18 46  1  0  0  0  0
 19 47  1  0  0  0  0
 20 48  1  0  0  0  0
 21 49  1  0  0  0  0
 22 50  1  0  0  0  0
 23 51  1  0  0  0  0
 30 52  1  0  0  0  0
 31 53  1  0  0  0  0
M  END
> <pdb_id>
2VWN

> <uniprot_id>
P00742

> <usmiles>
ClC=1SC(C(=O)N[C@@H]2[C@@H](O)CN(CC(=O)Nc3c(F)cc(N4C(=O)C=CC=C4)cc3)C2)=CC1

$$$$
H28_A_201
          07202417413D 1   1.00000     0.00000     0
            
 51 56  0  0  0  0            999 V2000
   24.8067   -7.2408  -17.4442 Cl  0  0  0  0  0  0  0  0  0  0  0  0
   29.8606   -5.7051  -13.2376 Cl  0  0  0  0  0  0  0  0  0  0  0  0
   27.8363   -3.8231  -13.9438 F   0  0  0  0  0  0  0  0  0  0  0  0
   28.3741    0.7107  -13.1525 O   0  0  0  0  0  0  0  0  0  0  0  0
   28.8536   -1.0617  -18.3247 O   0  0  0  0  0  0  0  0  0  0  0  0
   26.7233    1.6631  -14.3605 N   0  0  0  0  0  0  0  0  0  0  0  0
   27.9154   -3.1357  -18.4590 N   0  0  0  0  0  0  0  0  0  0  0  0
   26.2096   -0.6495  -16.8656 N   0  0  0  0  0  0  0  0  0  0  0  0
   26.1772    1.5956  -15.7209 C   0  0  0  0  0  0  0  0  0  0  0  0
   31.5200   -2.7369  -15.4173 C   0  0  0  0  0  0  0  0  0  0  0  0
   25.5203   -0.5601  -18.1868 C   0  0  0  0  0  0  0  0  0  0  0  0
   31.3678   -3.8884  -14.6659 C   0  0  0  0  0  0  0  0  0  0  0  0
   24.9410   -4.9136  -16.1514 C   0  0  0  0  0  0  0  0  0  0  0  0
   30.4272   -1.9079  -15.6823 C   0  0  0  0  0  0  0  0  0  0  0  0
   23.1207   -0.2254  -19.0315 C   0  0  0  0  0  0  0  0  0  0  0  0
   23.0204   -0.5798  -17.5361 C   0  0  0  0  0  0  0  0  0  0  0  0
   25.4007   -3.6309  -15.8990 C   0  0  0  0  0  0  0  0  0  0  0  0
   26.4466   -5.1525  -18.0146 C   0  0  0  0  0  0  0  0  0  0  0  0
   25.4547   -5.6703  -17.1911 C   0  0  0  0  0  0  0  0  0  0  0  0
   30.1242   -4.2486  -14.1717 C   0  0  0  0  0  0  0  0  0  0  0  0
   27.7607    0.8238  -14.2060 C   0  0  0  0  0  0  0  0  0  0  0  0
   28.0891   -1.9097  -17.9288 C   0  0  0  0  0  0  0  0  0  0  0  0
   29.0259   -3.4355  -14.4472 C   0  0  0  0  0  0  0  0  0  0  0  0
   26.9411   -3.8680  -17.7681 C   0  0  0  0  0  0  0  0  0  0  0  0
   24.2052    0.2137  -18.0636 C   0  0  0  0  0  0  0  0  0  0  0  0
   27.0086    0.5588  -16.5452 C   0  0  1  0  0  0  0  0  0  0  0  0
   29.1528   -2.2551  -15.1956 C   0  0  0  0  0  0  0  0  0  0  0  0
   26.4202   -3.1101  -16.7083 C   0  0  0  0  0  0  0  0  0  0  0  0
   28.0759    0.0945  -15.5113 C   0  0  2  0  0  0  0  0  0  0  0  0
   27.8800   -1.4305  -15.4138 C   0  0  1  0  0  0  0  0  0  0  0  0
   27.1473   -1.7893  -16.7297 C   0  0  2  0  0  0  0  0  0  0  0  0
   26.3682    2.2585  -13.6398 H   0  0  0  0  0  0  0  0  0  0  0  0
   28.4207   -3.4812  -19.2497 H   0  0  0  0  0  0  0  0  0  0  0  0
   26.2383    2.4954  -16.1529 H   0  0  0  0  0  0  0  0  0  0  0  0
   25.2203    1.3073  -15.6852 H   0  0  0  0  0  0  0  0  0  0  0  0
   32.4222   -2.4952  -15.7746 H   0  0  0  0  0  0  0  0  0  0  0  0
   25.3273   -1.4834  -18.5189 H   0  0  0  0  0  0  0  0  0  0  0  0
   26.1174   -0.0900  -18.8368 H   0  0  0  0  0  0  0  0  0  0  0  0
   32.1621   -4.4661  -14.4778 H   0  0  0  0  0  0  0  0  0  0  0  0
   24.2241   -5.3003  -15.5713 H   0  0  0  0  0  0  0  0  0  0  0  0
   30.5498   -1.0710  -16.2157 H   0  0  0  0  0  0  0  0  0  0  0  0
   22.5002    0.4507  -19.4289 H   0  0  0  0  0  0  0  0  0  0  0  0
   23.3094   -0.9407  -19.7044 H   0  0  0  0  0  0  0  0  0  0  0  0
   23.1442   -1.5255  -17.2357 H   0  0  0  0  0  0  0  0  0  0  0  0
   22.3351   -0.1341  -16.9602 H   0  0  0  0  0  0  0  0  0  0  0  0
   25.0130   -3.0875  -15.1544 H   0  0  0  0  0  0  0  0  0  0  0  0
   26.8035   -5.6932  -18.7763 H   0  0  0  0  0  0  0  0  0  0  0  0
   24.2563    1.1848  -17.8306 H   0  0  0  0  0  0  0  0  0  0  0  0
   27.4220    0.9663  -17.3594 H   0  0  0  0  0  0  0  0  0  0  0  0
   28.9982    0.3152  -15.8285 H   0  0  0  0  0  0  0  0  0  0  0  0
   27.2577   -1.6146  -14.6530 H   0  0  0  0  0  0  0  0  0  0  0  0
  1 19  1  0  0  0  0
  2 20  1  0  0  0  0
  3 23  1  0  0  0  0
  4 21  2  0  0  0  0
  5 22  2  0  0  0  0
  6  9  1  0  0  0  0
  6 21  1  0  0  0  0
  7 22  1  0  0  0  0
  7 24  1  0  0  0  0
  8 11  1  0  0  0  0
  8 26  1  0  0  0  0
  8 31  1  0  0  0  0
  9 26  1  0  0  0  0
 10 12  2  0  0  0  0
 10 14  1  0  0  0  0
 11 25  1  0  0  0  0
 12 20  1  0  0  0  0
 13 17  1  0  0  0  0
 13 19  2  0  0  0  0
 14 27  2  0  0  0  0
 15 16  1  0  0  0  0
 15 25  1  0  0  0  0
 16 25  1  0  0  0  0
 17 28  2  0  0  0  0
 18 19  1  0  0  0  0
 18 24  2  0  0  0  0
 20 23  2  0  0  0  0
 21 29  1  0  0  0  0
 22 31  1  0  0  0  0
 23 27  1  0  0  0  0
 24 28  1  0  0  0  0
 26 29  1  0  0  0  0
 27 30  1  0  0  0  0
 28 31  1  0  0  0  0
 29 30  1  0  0  0  0
 30 31  1  0  0  0  0
  6 32  1  0  0  0  0
  7 33  1  0  0  0  0
  9 34  1  0  0  0  0
  9 35  1  0  0  0  0
 10 36  1  0  0  0  0
 11 37  1  0  0  0  0
 11 38  1  0  0  0  0
 12 39  1  0  0  0  0
 13 40  1  0  0  0  0
 14 41  1  0  0  0  0
 15 42  1  0  0  0  0
 15 43  1  0  0  0  0
 16 44  1  0  0  0  0
 16 45  1  0  0  0  0
 17 46  1  0  0  0  0
 18 47  1  0  0  0  0
 25 48  1  0  0  0  0
 26 49  1  0  0  0  0
 29 50  1  0  0  0  0
 30 51  1  0  0  0  0
M  END
> <pdb_id>
6I3S

> <uniprot_id>
Q00987

> <usmiles>
Clc1c(F)c(ccc1)[C@@H]2[C@]3(N([C@@H]4[C@H]2C(=O)NC4)CC5CC5)c6c(NC3=O)cc(Cl)cc6

$$$$
H33_A_1311
          07192417303D 1   1.00000     0.00000     0
            
 21 22  0  0  0  0            999 V2000
   38.9370   23.6740   27.1709 Cl  0  0  0  0  0  0  0  0  0  0  0  0
   38.4755   21.8846   20.2080 O   0  0  0  0  0  0  0  0  0  0  0  0
   38.0119   19.2324   23.8868 O   0  0  0  0  0  0  0  0  0  0  0  0
   38.8792   23.6361   24.6591 N   0  0  0  0  0  0  0  0  0  0  0  0
   38.5068   21.6911   25.5764 N   0  0  0  0  0  0  0  0  0  0  0  0
   38.2379   20.4945   22.0291 N   0  0  0  0  0  0  0  0  0  0  0  0
   38.6966   22.9077   22.2593 N   0  0  0  0  0  0  0  0  0  0  0  0
   37.9970   19.2847   21.1983 C   0  0  0  0  0  0  0  0  0  0  0  0
   38.9406   24.2397   21.6376 C   0  0  0  0  0  0  0  0  0  0  0  0
   38.7735   22.9898   25.8072 C   0  0  0  0  0  0  0  0  0  0  0  0
   38.4712   21.7737   21.4344 C   0  0  0  0  0  0  0  0  0  0  0  0
   38.2264   20.3632   23.4285 C   0  0  0  0  0  0  0  0  0  0  0  0
   38.7038   22.7502   23.6630 C   0  0  0  0  0  0  0  0  0  0  0  0
   38.4620   21.5020   24.2394 C   0  0  0  0  0  0  0  0  0  0  0  0
   38.3662   20.9880   26.2735 H   0  0  0  0  0  0  0  0  0  0  0  0
   37.8561   18.4939   21.7940 H   0  0  0  0  0  0  0  0  0  0  0  0
   37.1842   19.4250   20.6329 H   0  0  0  0  0  0  0  0  0  0  0  0
   38.7886   19.1216   20.6094 H   0  0  0  0  0  0  0  0  0  0  0  0
   39.0791   24.9222   22.3552 H   0  0  0  0  0  0  0  0  0  0  0  0
   39.7553   24.1936   21.0596 H   0  0  0  0  0  0  0  0  0  0  0  0
   38.1510   24.4973   21.0806 H   0  0  0  0  0  0  0  0  0  0  0  0
  1 10  1  0  0  0  0
  2 11  2  0  0  0  0
  3 12  2  0  0  0  0
  4 10  2  0  0  0  0
  4 13  1  0  0  0  0
  5 10  1  0  0  0  0
  5 14  1  0  0  0  0
  6  8  1  0  0  0  0
  6 11  1  0  0  0  0
  6 12  1  0  0  0  0
  7  9  1  0  0  0  0
  7 11  1  0  0  0  0
  7 13  1  0  0  0  0
 12 14  1  0  0  0  0
 13 14  2  0  0  0  0
  5 15  1  0  0  0  0
  8 16  1  0  0  0  0
  8 17  1  0  0  0  0
  8 18  1  0  0  0  0
  9 19  1  0  0  0  0
  9 20  1  0  0  0  0
  9 21  1  0  0  0  0
M  END
> <pdb_id>
2UY3

> <uniprot_id>
P29029

> <usmiles>
ClC1=NC=2N(C(=O)N(C(=O)C2N1)C)C

$$$$
H35_A_1313
          07192417303D 1   1.00000     0.00000     0
            
 25 27  0  0  0  0            999 V2000
   41.1990   25.6780   27.0690 O   0  0  0  0  0  0  0  0  0  0  0  0
   38.0000   20.6090   23.7670 N   0  0  0  0  0  0  0  0  0  0  0  0
   38.5140   21.6520   25.8190 N   0  0  0  0  0  0  0  0  0  0  0  0
   38.1320   22.1000   21.8240 N   0  0  0  0  0  0  0  0  0  0  0  0
   38.7190   23.8750   22.9460 N   0  0  0  0  0  0  0  0  0  0  0  0
   39.1250   23.8690   25.9490 N   0  0  0  0  0  0  0  0  0  0  0  0
   38.1520   20.5790   25.1040 C   0  0  0  0  0  0  0  0  0  0  0  0
   38.4570   23.3940   21.7250 C   0  0  0  0  0  0  0  0  0  0  0  0
   41.4600   26.9030   27.6230 C   0  0  0  0  0  0  0  0  0  0  0  0
   39.5950   23.7640   27.3750 C   0  0  0  0  0  0  0  0  0  0  0  0
   40.6000   27.0690   28.6410 C   0  0  0  0  0  0  0  0  0  0  0  0
   39.8000   25.9940   28.7230 C   0  0  0  0  0  0  0  0  0  0  0  0
   40.1550   25.1380   27.7530 C   0  0  0  0  0  0  0  0  0  0  0  0
   38.2040   21.7630   23.1200 C   0  0  0  0  0  0  0  0  0  0  0  0
   38.7510   22.8210   25.2340 C   0  0  0  0  0  0  0  0  0  0  0  0
   38.5860   22.8960   23.8360 C   0  0  0  0  0  0  0  0  0  0  0  0
   38.9739   24.8190   23.1555 H   0  0  0  0  0  0  0  0  0  0  0  0
   39.0941   24.7729   25.5224 H   0  0  0  0  0  0  0  0  0  0  0  0
   37.9874   19.7176   25.5846 H   0  0  0  0  0  0  0  0  0  0  0  0
   38.4977   23.9181   20.8743 H   0  0  0  0  0  0  0  0  0  0  0  0
   42.1599   27.5522   27.3252 H   0  0  0  0  0  0  0  0  0  0  0  0
   40.3082   23.0674   27.4529 H   0  0  0  0  0  0  0  0  0  0  0  0
   38.8302   23.5264   27.9738 H   0  0  0  0  0  0  0  0  0  0  0  0
   40.5616   27.8669   29.2426 H   0  0  0  0  0  0  0  0  0  0  0  0
   39.0680   25.8556   29.3901 H   0  0  0  0  0  0  0  0  0  0  0  0
  1  9  1  0  0  0  0
  1 13  1  0  0  0  0
  2  7  2  0  0  0  0
  2 14  1  0  0  0  0
  3  7  1  0  0  0  0
  3 15  2  0  0  0  0
  4  8  2  0  0  0  0
  4 14  1  0  0  0  0
  5  8  1  0  0  0  0
  5 16  1  0  0  0  0
  6 10  1  0  0  0  0
  6 15  1  0  0  0  0
  9 11  2  0  0  0  0
 10 13  1  0  0  0  0
 11 12  1  0  0  0  0
 12 13  2  0  0  0  0
 14 16  2  0  0  0  0
 15 16  1  0  0  0  0
  5 17  1  0  0  0  0
  6 18  1  0  0  0  0
  7 19  1  0  0  0  0
  8 20  1  0  0  0  0
  9 21  1  0  0  0  0
 10 22  1  0  0  0  0
 10 23  1  0  0  0  0
 11 24  1  0  0  0  0
 12 25  1  0  0  0  0
M  END
> <pdb_id>
2UY5

> <uniprot_id>
P29029

> <usmiles>
O1C(=CC=C1)CNc2ncnc3N=CNc32

$$$$
H35_A_201
          07202407023D 1   1.00000     0.00000     0
            
 25 27  0  0  0  0            999 V2000
   37.9052   12.6044   14.9508 O   0  0  0  0  0  0  0  0  0  0  0  0
   36.1683   15.7111    8.4617 N   0  0  0  0  0  0  0  0  0  0  0  0
   36.2309   14.6530   10.6165 N   0  0  0  0  0  0  0  0  0  0  0  0
   37.5928   17.6997    8.4098 N   0  0  0  0  0  0  0  0  0  0  0  0
   38.4187   17.6194   10.5786 N   0  0  0  0  0  0  0  0  0  0  0  0
   37.5893   15.4006   12.4998 N   0  0  0  0  0  0  0  0  0  0  0  0
   35.8295   14.7462    9.3396 C   0  0  0  0  0  0  0  0  0  0  0  0
   38.4256   18.2654    9.3766 C   0  0  0  0  0  0  0  0  0  0  0  0
   39.1017   11.9850   15.1985 C   0  0  0  0  0  0  0  0  0  0  0  0
   37.0211   14.2937   13.2583 C   0  0  0  0  0  0  0  0  0  0  0  0
   40.0373   12.3928   14.2780 C   0  0  0  0  0  0  0  0  0  0  0  0
   39.3934   13.3220   13.4648 C   0  0  0  0  0  0  0  0  0  0  0  0
   38.0815   13.4234   13.8614 C   0  0  0  0  0  0  0  0  0  0  0  0
   37.0161   16.5708    9.0114 C   0  0  0  0  0  0  0  0  0  0  0  0
   37.1136   15.5327   11.1311 C   0  0  0  0  0  0  0  0  0  0  0  0
   37.5487   16.5646   10.3179 C   0  0  0  0  0  0  0  0  0  0  0  0
   38.9079   17.8438   11.4214 H   0  0  0  0  0  0  0  0  0  0  0  0
   38.2614   16.0275   12.8937 H   0  0  0  0  0  0  0  0  0  0  0  0
   35.2181   14.0285    9.0062 H   0  0  0  0  0  0  0  0  0  0  0  0
   38.9820   19.0779    9.2026 H   0  0  0  0  0  0  0  0  0  0  0  0
   39.2694   11.3336   15.9385 H   0  0  0  0  0  0  0  0  0  0  0  0
   36.4574   13.7388   12.6465 H   0  0  0  0  0  0  0  0  0  0  0  0
   36.4515   14.6640   13.9921 H   0  0  0  0  0  0  0  0  0  0  0  0
   40.9862   12.0852   14.2067 H   0  0  0  0  0  0  0  0  0  0  0  0
   39.8161   13.8317   12.7154 H   0  0  0  0  0  0  0  0  0  0  0  0
  1  9  1  0  0  0  0
  1 13  1  0  0  0  0
  2  7  2  0  0  0  0
  2 14  1  0  0  0  0
  3  7  1  0  0  0  0
  3 15  2  0  0  0  0
  4  8  2  0  0  0  0
  4 14  1  0  0  0  0
  5  8  1  0  0  0  0
  5 16  1  0  0  0  0
  6 10  1  0  0  0  0
  6 15  1  0  0  0  0
  9 11  2  0  0  0  0
 10 13  1  0  0  0  0
 11 12  1  0  0  0  0
 12 13  2  0  0  0  0
 14 16  2  0  0  0  0
 15 16  1  0  0  0  0
  5 17  1  0  0  0  0
  6 18  1  0  0  0  0
  7 19  1  0  0  0  0
  8 20  1  0  0  0  0
  9 21  1  0  0  0  0
 10 22  1  0  0  0  0
 10 23  1  0  0  0  0
 11 24  1  0  0  0  0
 12 25  1  0  0  0  0
M  END
> <pdb_id>
4JHH

> <uniprot_id>
P93330

> <usmiles>
O1C(=CC=C1)CNc2ncnc3N=CNc32

$$$$
H35_A_400
          07202402363D 1   1.00000     0.00000     0
            
 25 27  0  0  0  0            999 V2000
  -27.2930    4.6077   17.1476 O   0  0  0  0  0  0  0  0  0  0  0  0
  -25.5161   -2.3173   16.6247 N   0  0  0  0  0  0  0  0  0  0  0  0
  -25.0824   -0.0113   16.8017 N   0  0  0  0  0  0  0  0  0  0  0  0
  -27.8863   -2.9960   16.8707 N   0  0  0  0  0  0  0  0  0  0  0  0
  -28.6973   -0.9503   17.2263 N   0  0  0  0  0  0  0  0  0  0  0  0
  -26.7872    1.5564   17.1883 N   0  0  0  0  0  0  0  0  0  0  0  0
  -24.6880   -1.2812   16.5989 C   0  0  0  0  0  0  0  0  0  0  0  0
  -29.0076   -2.2876   17.1218 C   0  0  0  0  0  0  0  0  0  0  0  0
  -27.4433    5.7912   16.3844 C   0  0  0  0  0  0  0  0  0  0  0  0
  -25.7881    2.5945   17.1751 C   0  0  0  0  0  0  0  0  0  0  0  0
  -26.4719    5.7871   15.4461 C   0  0  0  0  0  0  0  0  0  0  0  0
  -25.7266    4.6516   15.5757 C   0  0  0  0  0  0  0  0  0  0  0  0
  -26.2974    3.8887   16.5529 C   0  0  0  0  0  0  0  0  0  0  0  0
  -26.8309   -2.1497   16.8030 C   0  0  0  0  0  0  0  0  0  0  0  0
  -26.4148    0.2333   17.0230 C   0  0  0  0  0  0  0  0  0  0  0  0
  -27.3190   -0.8248   17.0304 C   0  0  0  0  0  0  0  0  0  0  0  0
  -29.3396   -0.2059   17.4086 H   0  0  0  0  0  0  0  0  0  0  0  0
  -27.7505    1.7919   17.3170 H   0  0  0  0  0  0  0  0  0  0  0  0
  -23.7195   -1.4534   16.4191 H   0  0  0  0  0  0  0  0  0  0  0  0
  -29.9244   -2.6752   17.2174 H   0  0  0  0  0  0  0  0  0  0  0  0
  -28.1386    6.4978   16.5157 H   0  0  0  0  0  0  0  0  0  0  0  0
  -25.0003    2.2743   16.6488 H   0  0  0  0  0  0  0  0  0  0  0  0
  -25.5067    2.7805   18.1165 H   0  0  0  0  0  0  0  0  0  0  0  0
  -26.3225    6.5032   14.7643 H   0  0  0  0  0  0  0  0  0  0  0  0
  -24.9087    4.4198   15.0491 H   0  0  0  0  0  0  0  0  0  0  0  0
  1  9  1  0  0  0  0
  1 13  1  0  0  0  0
  2  7  2  0  0  0  0
  2 14  1  0  0  0  0
  3  7  1  0  0  0  0
  3 15  2  0  0  0  0
  4  8  2  0  0  0  0
  4 14  1  0  0  0  0
  5  8  1  0  0  0  0
  5 16  1  0  0  0  0
  6 10  1  0  0  0  0
  6 15  1  0  0  0  0
  9 11  2  0  0  0  0
 10 13  1  0  0  0  0
 11 12  1  0  0  0  0
 12 13  2  0  0  0  0
 14 16  2  0  0  0  0
 15 16  1  0  0  0  0
  5 17  1  0  0  0  0
  6 18  1  0  0  0  0
  7 19  1  0  0  0  0
  8 20  1  0  0  0  0
  9 21  1  0  0  0  0
 10 22  1  0  0  0  0
 10 23  1  0  0  0  0
 11 24  1  0  0  0  0
 12 25  1  0  0  0  0
M  END
> <pdb_id>
3T4S

> <uniprot_id>
Q9C5U0

> <usmiles>
O1C(=CC=C1)CNc2ncnc3N=CNc32

$$$$
H3E_A_501
          07202411083D 1   1.00000     0.00000     0
            
 44 48  0  0  0  0            999 V2000
   19.3610   44.3620    7.2110 O   0  0  0  0  0  0  0  0  0  0  0  0
   21.7350   41.2180   13.8820 N   0  0  0  0  0  0  0  0  0  0  0  0
   16.6850   47.8560   11.0290 N   0  0  0  0  0  0  0  0  0  0  0  0
   19.9010   43.9710   10.6810 N   0  0  0  0  0  0  0  0  0  0  0  0
   20.9490   42.2410   14.3000 N   0  0  0  0  0  0  0  0  0  0  0  0
   17.7050   47.5410   11.8670 N   0  0  0  0  0  0  0  0  0  0  0  0
   20.7080   42.4420   15.7170 C   0  0  0  0  0  0  0  0  0  0  0  0
   18.6860   45.4300    7.7400 C   0  0  0  0  0  0  0  0  0  0  0  0
   21.7040   41.3110   12.5720 C   0  0  0  0  0  0  0  0  0  0  0  0
   16.9690   47.2160    9.9130 C   0  0  0  0  0  0  0  0  0  0  0  0
   20.4580   42.9630   13.2860 C   0  0  0  0  0  0  0  0  0  0  0  0
   17.7610   48.1070   13.2120 C   0  0  0  0  0  0  0  0  0  0  0  0
   18.5910   46.7080   11.3090 C   0  0  0  0  0  0  0  0  0  0  0  0
   18.2600   45.2810   16.4090 C   0  0  0  0  0  0  0  0  0  0  0  0
   18.9470   46.4680   16.4220 C   0  0  0  0  0  0  0  0  0  0  0  0
   17.4810   44.9600   15.3240 C   0  0  0  0  0  0  0  0  0  0  0  0
   20.5540   42.4990    8.3920 C   0  0  0  0  0  0  0  0  0  0  0  0
   20.9250   42.0530    9.6520 C   0  0  0  0  0  0  0  0  0  0  0  0
   18.8350   47.3530   15.3550 C   0  0  0  0  0  0  0  0  0  0  0  0
   17.3340   45.8540   14.2810 C   0  0  0  0  0  0  0  0  0  0  0  0
   19.8640   43.6930    8.2890 C   0  0  0  0  0  0  0  0  0  0  0  0
   20.5790   42.8130   10.7670 C   0  0  0  0  0  0  0  0  0  0  0  0
   19.5480   44.3850    9.4610 C   0  0  0  0  0  0  0  0  0  0  0  0
   18.0020   47.0710   14.2870 C   0  0  0  0  0  0  0  0  0  0  0  0
   20.9170   42.3930   12.1340 C   0  0  0  0  0  0  0  0  0  0  0  0
   18.1610   46.4670   10.0220 C   0  0  0  0  0  0  0  0  0  0  0  0
   18.7400   45.5060    9.0920 C   0  0  0  0  0  0  0  0  0  0  0  0
   20.1118   43.2346   15.8446 H   0  0  0  0  0  0  0  0  0  0  0  0
   20.2682   41.6291   16.0989 H   0  0  0  0  0  0  0  0  0  0  0  0
   21.5780   42.6008   16.1839 H   0  0  0  0  0  0  0  0  0  0  0  0
   18.1959   46.0958    7.1774 H   0  0  0  0  0  0  0  0  0  0  0  0
   22.1840   40.6855   11.9569 H   0  0  0  0  0  0  0  0  0  0  0  0
   16.4071   47.2559    9.0868 H   0  0  0  0  0  0  0  0  0  0  0  0
   19.8675   43.7668   13.3585 H   0  0  0  0  0  0  0  0  0  0  0  0
   16.8917   48.5639   13.4006 H   0  0  0  0  0  0  0  0  0  0  0  0
   18.5032   48.7764   13.2441 H   0  0  0  0  0  0  0  0  0  0  0  0
   19.4095   46.3318   11.7432 H   0  0  0  0  0  0  0  0  0  0  0  0
   18.3258   44.6531   17.1845 H   0  0  0  0  0  0  0  0  0  0  0  0
   19.5302   46.6978   17.2011 H   0  0  0  0  0  0  0  0  0  0  0  0
   17.0178   44.0744   15.2889 H   0  0  0  0  0  0  0  0  0  0  0  0
   20.7807   41.9683    7.5753 H   0  0  0  0  0  0  0  0  0  0  0  0
   21.4334   41.1985    9.7584 H   0  0  0  0  0  0  0  0  0  0  0  0
   19.3624   48.2026   15.3598 H   0  0  0  0  0  0  0  0  0  0  0  0
   16.7388   45.6215   13.5118 H   0  0  0  0  0  0  0  0  0  0  0  0
  1  8  1  0  0  0  0
  1 21  1  0  0  0  0
  2  5  1  0  0  0  0
  2  9  2  0  0  0  0
  3  6  1  0  0  0  0
  3 10  2  0  0  0  0
  4 22  2  0  0  0  0
  4 23  1  0  0  0  0
  5  7  1  0  0  0  0
  5 11  1  0  0  0  0
  6 12  1  0  0  0  0
  6 13  1  0  0  0  0
  8 27  2  0  0  0  0
  9 25  1  0  0  0  0
 10 26  1  0  0  0  0
 11 25  2  0  0  0  0
 12 24  1  0  0  0  0
 13 26  2  0  0  0  0
 14 15  2  0  0  0  0
 14 16  1  0  0  0  0
 15 19  1  0  0  0  0
 16 20  2  0  0  0  0
 17 18  2  0  0  0  0
 17 21  1  0  0  0  0
 18 22  1  0  0  0  0
 19 24  2  0  0  0  0
 20 24  1  0  0  0  0
 21 23  2  0  0  0  0
 22 25  1  0  0  0  0
 23 27  1  0  0  0  0
 26 27  1  0  0  0  0
  7 28  1  0  0  0  0
  7 29  1  0  0  0  0
  7 30  1  0  0  0  0
  8 31  1  0  0  0  0
  9 32  1  0  0  0  0
 10 33  1  0  0  0  0
 11 34  1  0  0  0  0
 12 35  1  0  0  0  0
 12 36  1  0  0  0  0
 13 37  1  0  0  0  0
 14 38  1  0  0  0  0
 15 39  1  0  0  0  0
 16 40  1  0  0  0  0
 17 41  1  0  0  0  0
 18 42  1  0  0  0  0
 19 43  1  0  0  0  0
 20 44  1  0  0  0  0
M  END
> <pdb_id>
6I5I

> <uniprot_id>
P49759

> <usmiles>
O1c2c(nc(cc2)C=3C=NN(C3)C)C(C=4C=NN(C4)Cc5ccccc5)=C1

$$$$
H3K_A_301
          07202402503D 1   1.00000     0.00000     0
            
 43 45  0  0  0  0            999 V2000
   -1.0766    8.9497   21.4136 Br  0  0  0  0  0  0  0  0  0  0  0  0
    3.7535    9.9321   20.7043 O   0  0  0  0  0  0  0  0  0  0  0  0
    3.3088    5.7052   14.1851 O   0  0  0  0  0  0  0  0  0  0  0  0
    9.8428    6.6093   15.2308 N   0  0  0  0  0  0  0  0  0  0  0  0
    6.0975    7.7021   17.9949 N   0  0  0  0  0  0  0  0  0  0  0  0
    8.4419    9.0172   17.1733 N   0  0  0  0  0  0  0  0  0  0  0  0
    5.5589    9.5517   19.3760 N   0  0  0  0  0  0  0  0  0  0  0  0
    3.6861    8.1892   19.2029 N   0  0  0  0  0  0  0  0  0  0  0  0
    2.7207    5.8448   17.8250 N   0  0  0  0  0  0  0  0  0  0  0  0
    9.0781    7.1382   15.8891 C   0  0  0  0  0  0  0  0  0  0  0  0
    7.5970    9.5691   18.0496 C   0  0  0  0  0  0  0  0  0  0  0  0
    6.9446    7.1176   17.1402 C   0  0  0  0  0  0  0  0  0  0  0  0
   -0.2764    6.7995   19.7472 C   0  0  0  0  0  0  0  0  0  0  0  0
    0.6097    6.0862   18.9641 C   0  0  0  0  0  0  0  0  0  0  0  0
    1.4188    8.4624   20.1501 C   0  0  0  0  0  0  0  0  0  0  0  0
    3.2855    4.5719   18.2848 C   0  0  0  0  0  0  0  0  0  0  0  0
    4.3768    4.0110   17.3754 C   0  0  0  0  0  0  0  0  0  0  0  0
    2.8084    6.3182   16.4447 C   0  0  0  0  0  0  0  0  0  0  0  0
    3.9932    4.1415   15.9043 C   0  0  0  0  0  0  0  0  0  0  0  0
    4.2921    9.2626   19.8265 C   0  0  0  0  0  0  0  0  0  0  0  0
    0.1378    7.9744   20.3243 C   0  0  0  0  0  0  0  0  0  0  0  0
    6.4190    8.9192   18.4659 C   0  0  0  0  0  0  0  0  0  0  0  0
    8.1378    7.7855   16.7263 C   0  0  0  0  0  0  0  0  0  0  0  0
    2.3280    7.7440   19.3657 C   0  0  0  0  0  0  0  0  0  0  0  0
    1.9059    6.5465   18.7471 C   0  0  0  0  0  0  0  0  0  0  0  0
    3.7713    5.5884   15.5314 C   0  0  1  0  0  0  0  0  0  0  0  0
    4.0522    5.4106   13.5971 H   0  0  0  0  0  0  0  0  0  0  0  0
    5.9903   10.3852   19.7658 H   0  0  0  0  0  0  0  0  0  0  0  0
    4.2259    7.6199   18.5594 H   0  0  0  0  0  0  0  0  0  0  0  0
    7.9235   10.5356   18.4298 H   0  0  0  0  0  0  0  0  0  0  0  0
    6.6867    6.1206   16.7923 H   0  0  0  0  0  0  0  0  0  0  0  0
   -1.2895    6.4328   19.9055 H   0  0  0  0  0  0  0  0  0  0  0  0
    0.2860    5.1505   18.5102 H   0  0  0  0  0  0  0  0  0  0  0  0
    1.6452    9.4040   20.6436 H   0  0  0  0  0  0  0  0  0  0  0  0
    3.6715    4.6824   19.2974 H   0  0  0  0  0  0  0  0  0  0  0  0
    2.4757    3.8496   18.3769 H   0  0  0  0  0  0  0  0  0  0  0  0
    4.5733    2.9690   17.6235 H   0  0  0  0  0  0  0  0  0  0  0  0
    5.3170    4.5250   17.5579 H   0  0  0  0  0  0  0  0  0  0  0  0
    3.0490    7.3777   16.4826 H   0  0  0  0  0  0  0  0  0  0  0  0
    1.8164    6.2658   16.0008 H   0  0  0  0  0  0  0  0  0  0  0  0
    3.0956    3.5572   15.7054 H   0  0  0  0  0  0  0  0  0  0  0  0
    4.7618    3.6724   15.2930 H   0  0  0  0  0  0  0  0  0  0  0  0
    4.7165    6.1262   15.5954 H   0  0  0  0  0  0  0  0  0  0  0  0
  1 21  1  0  0  0  0
  2 20  2  0  0  0  0
  3 26  1  0  0  0  0
  3 27  1  0  0  0  0
  4 10  3  0  0  0  0
  5 12  1  0  0  0  0
  5 22  2  0  0  0  0
  6 11  2  0  0  0  0
  6 23  1  0  0  0  0
  7 20  1  0  0  0  0
  7 22  1  0  0  0  0
  7 28  1  0  0  0  0
  8 20  1  0  0  0  0
  8 24  1  0  0  0  0
  8 29  1  0  0  0  0
  9 16  1  0  0  0  0
  9 18  1  0  0  0  0
  9 25  1  0  0  0  0
 10 23  1  0  0  0  0
 11 22  1  0  0  0  0
 11 30  1  0  0  0  0
 12 23  2  0  0  0  0
 12 31  1  0  0  0  0
 13 14  1  0  0  0  0
 13 21  2  0  0  0  0
 13 32  1  0  0  0  0
 14 25  2  0  0  0  0
 14 33  1  0  0  0  0
 15 21  1  0  0  0  0
 15 24  2  0  0  0  0
 15 34  1  0  0  0  0
 16 17  1  0  0  0  0
 16 35  1  0  0  0  0
 16 36  1  0  0  0  0
 17 19  1  0  0  0  0
 17 37  1  0  0  0  0
 17 38  1  0  0  0  0
 18 26  1  0  0  0  0
 18 39  1  0  0  0  0
 18 40  1  0  0  0  0
 19 26  1  0  0  0  0
 19 41  1  0  0  0  0
 19 42  1  0  0  0  0
 24 25  1  0  0  0  0
 26 43  1  0  0  0  0
M  END
> <pdb_id>
4FT7

> <uniprot_id>
O14757

> <usmiles>
Brc1cc(NC(=O)Nc2ncc(nc2)C#N)c(N3C[C@H](O)CCC3)cc1

$$$$
H3W_A_501
          07202411083D 1   1.00000     0.00000     0
            
 36 37  0  0  0  0            999 V2000
    2.3574  -16.5112    1.3810 O   0  0  0  0  0  0  0  0  0  0  0  0
    8.5238  -15.3005    8.1699 O   0  0  0  0  0  0  0  0  0  0  0  0
    0.8297  -15.9062    7.7363 C   0  0  0  0  0  0  0  0  0  0  0  0
    2.8511  -17.9730    7.4434 C   0  0  0  0  0  0  0  0  0  0  0  0
    2.3417  -15.6027    7.7891 C   0  0  0  0  0  0  0  0  0  0  0  0
    2.1420  -15.4180    3.4965 C   0  0  0  0  0  0  0  0  0  0  0  0
    3.1584  -17.5834    3.3595 C   0  0  0  0  0  0  0  0  0  0  0  0
    6.6116  -16.7243    8.5085 C   0  0  0  0  0  0  0  0  0  0  0  0
    6.4976  -14.8839    6.9553 C   0  0  0  0  0  0  0  0  0  0  0  0
    2.3565  -15.4253    4.8767 C   0  0  0  0  0  0  0  0  0  0  0  0
    3.3689  -17.5908    4.7386 C   0  0  0  0  0  0  0  0  0  0  0  0
    5.2892  -17.0330    8.1835 C   0  0  0  0  0  0  0  0  0  0  0  0
    5.1852  -15.2006    6.6383 C   0  0  0  0  0  0  0  0  0  0  0  0
    2.5481  -16.5045    2.7310 C   0  0  0  0  0  0  0  0  0  0  0  0
    7.2264  -15.6412    7.8770 C   0  0  0  0  0  0  0  0  0  0  0  0
    2.9636  -16.5113    5.5282 C   0  0  0  0  0  0  0  0  0  0  0  0
    4.5565  -16.2787    7.2537 C   0  0  0  0  0  0  0  0  0  0  0  0
    3.2070  -16.5616    6.9375 C   0  0  0  0  0  0  0  0  0  0  0  0
    2.6528  -17.2974    0.8382 H   0  0  0  0  0  0  0  0  0  0  0  0
    8.9524  -14.5225    7.7105 H   0  0  0  0  0  0  0  0  0  0  0  0
    0.3377  -15.2492    8.3075 H   0  0  0  0  0  0  0  0  0  0  0  0
    0.5079  -15.8337    6.7922 H   0  0  0  0  0  0  0  0  0  0  0  0
    0.6636  -16.8324    8.0748 H   0  0  0  0  0  0  0  0  0  0  0  0
    3.3780  -18.6527    6.9331 H   0  0  0  0  0  0  0  0  0  0  0  0
    3.0703  -18.0434    8.4166 H   0  0  0  0  0  0  0  0  0  0  0  0
    1.8742  -18.1389    7.3089 H   0  0  0  0  0  0  0  0  0  0  0  0
    2.6426  -15.6691    8.7405 H   0  0  0  0  0  0  0  0  0  0  0  0
    2.4869  -14.6704    7.4579 H   0  0  0  0  0  0  0  0  0  0  0  0
    1.6984  -14.6346    3.0613 H   0  0  0  0  0  0  0  0  0  0  0  0
    3.4518  -18.3683    2.8136 H   0  0  0  0  0  0  0  0  0  0  0  0
    7.1100  -17.2698    9.1823 H   0  0  0  0  0  0  0  0  0  0  0  0
    6.9315  -14.0977    6.5154 H   0  0  0  0  0  0  0  0  0  0  0  0
    2.0694  -14.6341    5.4167 H   0  0  0  0  0  0  0  0  0  0  0  0
    3.8145  -18.3769    5.1668 H   0  0  0  0  0  0  0  0  0  0  0  0
    4.8509  -17.8151    8.6265 H   0  0  0  0  0  0  0  0  0  0  0  0
    4.6889  -14.6522    5.9653 H   0  0  0  0  0  0  0  0  0  0  0  0
  1 14  1  0  0  0  0
  2 15  1  0  0  0  0
  3  5  1  0  0  0  0
  4 18  1  0  0  0  0
  5 18  1  0  0  0  0
  6 10  1  0  0  0  0
  6 14  2  0  0  0  0
  7 11  2  0  0  0  0
  7 14  1  0  0  0  0
  8 12  1  0  0  0  0
  8 15  2  0  0  0  0
  9 13  2  0  0  0  0
  9 15  1  0  0  0  0
 10 16  2  0  0  0  0
 11 16  1  0  0  0  0
 12 17  2  0  0  0  0
 13 17  1  0  0  0  0
 16 18  1  0  0  0  0
 17 18  1  0  0  0  0
  1 19  1  0  0  0  0
  2 20  1  0  0  0  0
  3 21  1  0  0  0  0
  3 22  1  0  0  0  0
  3 23  1  0  0  0  0
  4 24  1  0  0  0  0
  4 25  1  0  0  0  0
  4 26  1  0  0  0  0
  5 27  1  0  0  0  0
  5 28  1  0  0  0  0
  6 29  1  0  0  0  0
  7 30  1  0  0  0  0
  8 31  1  0  0  0  0
  9 32  1  0  0  0  0
 10 33  1  0  0  0  0
 11 34  1  0  0  0  0
 12 35  1  0  0  0  0
 13 36  1  0  0  0  0
M  END
> <pdb_id>
6I61

> <uniprot_id>
P62508

> <usmiles>
Oc1ccc(cc1)C(c2ccc(O)cc2)(CC)C

$$$$
H3Z_A_501
          07202411083D 1   1.00000     0.00000     0
            
 22 22  0  0  0  0            999 V2000
    8.1561  -15.2977    8.3076 O   0  0  0  0  0  0  0  0  0  0  0  0
    2.0765  -16.7826    7.7331 C   0  0  0  0  0  0  0  0  0  0  0  0
    3.0663  -17.6668    5.5997 C   0  0  0  0  0  0  0  0  0  0  0  0
    6.2358  -14.7610    7.0097 C   0  0  0  0  0  0  0  0  0  0  0  0
    6.2526  -16.7567    8.3449 C   0  0  0  0  0  0  0  0  0  0  0  0
    4.9542  -15.0564    6.5705 C   0  0  0  0  0  0  0  0  0  0  0  0
    4.9639  -17.0560    7.9059 C   0  0  0  0  0  0  0  0  0  0  0  0
    6.8925  -15.6052    7.8943 C   0  0  0  0  0  0  0  0  0  0  0  0
    3.0198  -16.4780    6.5631 C   0  0  0  0  0  0  0  0  0  0  0  0
    4.3113  -16.2028    7.0192 C   0  0  0  0  0  0  0  0  0  0  0  0
    8.6347  -15.9017    8.9448 H   0  0  0  0  0  0  0  0  0  0  0  0
    2.0538  -16.0002    8.3554 H   0  0  0  0  0  0  0  0  0  0  0  0
    1.1562  -16.9566    7.3826 H   0  0  0  0  0  0  0  0  0  0  0  0
    2.4042  -17.5897    8.2241 H   0  0  0  0  0  0  0  0  0  0  0  0
    3.6837  -17.4575    4.8414 H   0  0  0  0  0  0  0  0  0  0  0  0
    3.3968  -18.4764    6.0849 H   0  0  0  0  0  0  0  0  0  0  0  0
    2.1487  -17.8432    5.2434 H   0  0  0  0  0  0  0  0  0  0  0  0
    6.6914  -13.9318    6.6859 H   0  0  0  0  0  0  0  0  0  0  0  0
    6.7176  -17.3693    8.9840 H   0  0  0  0  0  0  0  0  0  0  0  0
    4.4922  -14.4431    5.9299 H   0  0  0  0  0  0  0  0  0  0  0  0
    4.5070  -17.8850    8.2281 H   0  0  0  0  0  0  0  0  0  0  0  0
    2.6749  -15.6785    6.0714 H   0  0  0  0  0  0  0  0  0  0  0  0
  1  8  1  0  0  0  0
  2  9  1  0  0  0  0
  3  9  1  0  0  0  0
  4  6  1  0  0  0  0
  4  8  2  0  0  0  0
  5  7  2  0  0  0  0
  5  8  1  0  0  0  0
  6 10  2  0  0  0  0
  7 10  1  0  0  0  0
  9 10  1  0  0  0  0
  1 11  1  0  0  0  0
  2 12  1  0  0  0  0
  2 13  1  0  0  0  0
  2 14  1  0  0  0  0
  3 15  1  0  0  0  0
  3 16  1  0  0  0  0
  3 17  1  0  0  0  0
  4 18  1  0  0  0  0
  5 19  1  0  0  0  0
  6 20  1  0  0  0  0
  7 21  1  0  0  0  0
  9 22  1  0  0  0  0
M  END
> <pdb_id>
6I65

> <uniprot_id>
P62508

> <usmiles>
Oc1ccc(cc1)C(C)C

$$$$
H42_A_501
          07202411083D 1   1.00000     0.00000     0
            
 21 22  0  0  0  0            999 V2000
    8.3685  -15.1620    8.3342 O   0  0  0  0  0  0  0  0  0  0  0  0
    2.2795  -16.1587    6.3870 C   0  0  0  0  0  0  0  0  0  0  0  0
    3.0309  -15.5275    5.1964 C   0  0  0  0  0  0  0  0  0  0  0  0
    3.3927  -17.1363    6.9609 C   0  0  0  0  0  0  0  0  0  0  0  0
    4.1939  -14.8288    5.9680 C   0  0  0  0  0  0  0  0  0  0  0  0
    6.6892  -16.8557    8.5822 C   0  0  0  0  0  0  0  0  0  0  0  0
    5.4368  -17.3710    8.2587 C   0  0  0  0  0  0  0  0  0  0  0  0
    6.3180  -14.9645    7.1132 C   0  0  0  0  0  0  0  0  0  0  0  0
    7.1292  -15.6564    8.0159 C   0  0  0  0  0  0  0  0  0  0  0  0
    4.6202  -16.6501    7.3910 C   0  0  0  0  0  0  0  0  0  0  0  0
    5.0848  -15.5099    6.7670 C   0  0  0  0  0  0  0  0  0  0  0  0
    8.6836  -14.3037    7.9290 H   0  0  0  0  0  0  0  0  0  0  0  0
    1.4691  -16.6611    6.0855 H   0  0  0  0  0  0  0  0  0  0  0  0
    2.0129  -15.4694    7.0606 H   0  0  0  0  0  0  0  0  0  0  0  0
    2.4622  -14.8695    4.7029 H   0  0  0  0  0  0  0  0  0  0  0  0
    3.3689  -16.2200    4.5591 H   0  0  0  0  0  0  0  0  0  0  0  0
    3.2064  -18.1174    7.0133 H   0  0  0  0  0  0  0  0  0  0  0  0
    4.2970  -13.8382    5.8776 H   0  0  0  0  0  0  0  0  0  0  0  0
    7.2778  -17.3471    9.2241 H   0  0  0  0  0  0  0  0  0  0  0  0
    5.1297  -18.2420    8.6421 H   0  0  0  0  0  0  0  0  0  0  0  0
    6.6175  -14.0938    6.7231 H   0  0  0  0  0  0  0  0  0  0  0  0
  1  9  1  0  0  0  0
  2  3  1  0  0  0  0
  2  4  1  0  0  0  0
  3  5  1  0  0  0  0
  4 10  2  0  0  0  0
  5 11  2  0  0  0  0
  6  7  2  0  0  0  0
  6  9  1  0  0  0  0
  7 10  1  0  0  0  0
  8  9  2  0  0  0  0
  8 11  1  0  0  0  0
 10 11  1  0  0  0  0
  1 12  1  0  0  0  0
  2 13  1  0  0  0  0
  2 14  1  0  0  0  0
  3 15  1  0  0  0  0
  3 16  1  0  0  0  0
  4 17  1  0  0  0  0
  5 18  1  0  0  0  0
  6 19  1  0  0  0  0
  7 20  1  0  0  0  0
  8 21  1  0  0  0  0
M  END
> <pdb_id>
6I67

> <uniprot_id>
P62508

> <usmiles>
OC1=CC=2C(C=C1)=CCCC2

$$$$
H48_A_202
          07202417443D 1   1.00000     0.00000     0
            
 30 31  0  0  0  0            999 V2000
    3.1110    1.0430   19.8400 O   0  0  0  0  0  0  0  0  0  0  0  0
    4.9300   -0.7860   10.5370 O   0  0  0  0  0  0  0  0  0  0  0  0
    7.7780   -1.8100   16.3040 C   0  0  0  0  0  0  0  0  0  0  0  0
    3.3290   -0.0940   17.7700 C   0  0  0  0  0  0  0  0  0  0  0  0
    5.2630    0.1800   19.1110 C   0  0  0  0  0  0  0  0  0  0  0  0
    5.6570   -2.2790   12.2470 C   0  0  0  0  0  0  0  0  0  0  0  0
    5.0400   -0.0250   12.7900 C   0  0  0  0  0  0  0  0  0  0  0  0
    4.0980   -0.8020   16.8440 C   0  0  0  0  0  0  0  0  0  0  0  0
    6.0400   -0.4800   18.1660 C   0  0  0  0  0  0  0  0  0  0  0  0
    6.0200   -2.5110   13.5740 C   0  0  0  0  0  0  0  0  0  0  0  0
    5.4470   -0.2460   14.1060 C   0  0  0  0  0  0  0  0  0  0  0  0
    3.8950    0.3560   18.9450 C   0  0  0  0  0  0  0  0  0  0  0  0
    5.2160   -1.0180   11.8540 C   0  0  0  0  0  0  0  0  0  0  0  0
    6.2830   -1.7930   15.9920 C   0  0  0  0  0  0  0  0  0  0  0  0
    5.4680   -0.9930   17.0050 C   0  0  0  0  0  0  0  0  0  0  0  0
    5.9300   -1.4910   14.5350 C   0  0  0  0  0  0  0  0  0  0  0  0
    3.5048    1.3764   20.6966 H   0  0  0  0  0  0  0  0  0  0  0  0
    4.6127    0.1165   10.2457 H   0  0  0  0  0  0  0  0  0  0  0  0
    8.2574   -2.3465   15.6095 H   0  0  0  0  0  0  0  0  0  0  0  0
    8.1293   -0.8738   16.3032 H   0  0  0  0  0  0  0  0  0  0  0  0
    7.9261   -2.2209   17.2036 H   0  0  0  0  0  0  0  0  0  0  0  0
    2.3640    0.0876   17.5807 H   0  0  0  0  0  0  0  0  0  0  0  0
    5.7018    0.5388   19.9348 H   0  0  0  0  0  0  0  0  0  0  0  0
    5.7136   -3.0193   11.5771 H   0  0  0  0  0  0  0  0  0  0  0  0
    4.6245    0.8465   12.5296 H   0  0  0  0  0  0  0  0  0  0  0  0
    3.6491   -1.1854   16.0368 H   0  0  0  0  0  0  0  0  0  0  0  0
    7.0219   -0.5876   18.3220 H   0  0  0  0  0  0  0  0  0  0  0  0
    6.3487   -3.4159   13.8445 H   0  0  0  0  0  0  0  0  0  0  0  0
    5.3927    0.5058   14.7632 H   0  0  0  0  0  0  0  0  0  0  0  0
    5.9896   -2.7392   16.1282 H   0  0  0  0  0  0  0  0  0  0  0  0
  1 12  1  0  0  0  0
  2 13  1  0  0  0  0
  3 14  1  0  0  0  0
  4  8  1  0  0  0  0
  4 12  2  0  0  0  0
  5  9  2  0  0  0  0
  5 12  1  0  0  0  0
  6 10  1  0  0  0  0
  6 13  2  0  0  0  0
  7 11  2  0  0  0  0
  7 13  1  0  0  0  0
  8 15  2  0  0  0  0
  9 15  1  0  0  0  0
 10 16  2  0  0  0  0
 11 16  1  0  0  0  0
 14 15  1  0  0  0  0
 14 16  1  0  0  0  0
  1 17  1  0  0  0  0
  2 18  1  0  0  0  0
  3 19  1  0  0  0  0
  3 20  1  0  0  0  0
  3 21  1  0  0  0  0
  4 22  1  0  0  0  0
  5 23  1  0  0  0  0
  6 24  1  0  0  0  0
  7 25  1  0  0  0  0
  8 26  1  0  0  0  0
  9 27  1  0  0  0  0
 10 28  1  0  0  0  0
 11 29  1  0  0  0  0
 14 30  1  0  0  0  0
M  END
> <pdb_id>
8DOG

> <uniprot_id>
Q9NAV7

> <usmiles>
Oc1ccc(cc1)C(c2ccc(O)cc2)C

$$$$
H48_A_501
          07202411083D 1   1.00000     0.00000     0
            
 30 31  0  0  0  0            999 V2000
    8.4932  -15.3683    8.3144 O   0  0  0  0  0  0  0  0  0  0  0  0
    2.3931  -16.3899    1.3733 O   0  0  0  0  0  0  0  0  0  0  0  0
    2.2578  -16.0549    7.5927 C   0  0  0  0  0  0  0  0  0  0  0  0
    6.5461  -14.9707    6.9392 C   0  0  0  0  0  0  0  0  0  0  0  0
    6.5712  -16.7919    8.5323 C   0  0  0  0  0  0  0  0  0  0  0  0
    3.1864  -17.5990    3.2229 C   0  0  0  0  0  0  0  0  0  0  0  0
    2.2233  -15.4093    3.5315 C   0  0  0  0  0  0  0  0  0  0  0  0
    5.2408  -15.3264    6.5562 C   0  0  0  0  0  0  0  0  0  0  0  0
    5.2729  -17.1405    8.1432 C   0  0  0  0  0  0  0  0  0  0  0  0
    3.4123  -17.7068    4.5846 C   0  0  0  0  0  0  0  0  0  0  0  0
    2.4492  -15.5241    4.9022 C   0  0  0  0  0  0  0  0  0  0  0  0
    7.2168  -15.7059    7.9282 C   0  0  0  0  0  0  0  0  0  0  0  0
    2.5945  -16.4607    2.7003 C   0  0  0  0  0  0  0  0  0  0  0  0
    3.2983  -16.8181    6.8001 C   0  0  0  0  0  0  0  0  0  0  0  0
    4.6042  -16.4163    7.1582 C   0  0  0  0  0  0  0  0  0  0  0  0
    3.0562  -16.6683    5.4306 C   0  0  0  0  0  0  0  0  0  0  0  0
    8.9593  -15.9013    9.0206 H   0  0  0  0  0  0  0  0  0  0  0  0
    1.9674  -15.5775    0.9748 H   0  0  0  0  0  0  0  0  0  0  0  0
    1.3441  -16.3572    7.3210 H   0  0  0  0  0  0  0  0  0  0  0  0
    2.3895  -16.2276    8.5688 H   0  0  0  0  0  0  0  0  0  0  0  0
    2.3526  -15.0760    7.4115 H   0  0  0  0  0  0  0  0  0  0  0  0
    6.9978  -14.1912    6.5053 H   0  0  0  0  0  0  0  0  0  0  0  0
    7.0384  -17.3187    9.2423 H   0  0  0  0  0  0  0  0  0  0  0  0
    3.4518  -18.3463    2.6138 H   0  0  0  0  0  0  0  0  0  0  0  0
    1.8017  -14.5855    3.1525 H   0  0  0  0  0  0  0  0  0  0  0  0
    4.7665  -14.7987    5.8515 H   0  0  0  0  0  0  0  0  0  0  0  0
    4.8195  -17.9189    8.5774 H   0  0  0  0  0  0  0  0  0  0  0  0
    3.8324  -18.5340    4.9578 H   0  0  0  0  0  0  0  0  0  0  0  0
    2.1749  -14.7817    5.5134 H   0  0  0  0  0  0  0  0  0  0  0  0
    3.2037  -17.7881    7.0240 H   0  0  0  0  0  0  0  0  0  0  0  0
  1 12  1  0  0  0  0
  2 13  1  0  0  0  0
  3 14  1  0  0  0  0
  4  8  1  0  0  0  0
  4 12  2  0  0  0  0
  5  9  2  0  0  0  0
  5 12  1  0  0  0  0
  6 10  1  0  0  0  0
  6 13  2  0  0  0  0
  7 11  2  0  0  0  0
  7 13  1  0  0  0  0
  8 15  2  0  0  0  0
  9 15  1  0  0  0  0
 10 16  2  0  0  0  0
 11 16  1  0  0  0  0
 14 15  1  0  0  0  0
 14 16  1  0  0  0  0
  1 17  1  0  0  0  0
  2 18  1  0  0  0  0
  3 19  1  0  0  0  0
  3 20  1  0  0  0  0
  3 21  1  0  0  0  0
  4 22  1  0  0  0  0
  5 23  1  0  0  0  0
  6 24  1  0  0  0  0
  7 25  1  0  0  0  0
  8 26  1  0  0  0  0
  9 27  1  0  0  0  0
 10 28  1  0  0  0  0
 11 29  1  0  0  0  0
 14 30  1  0  0  0  0
M  END
> <pdb_id>
6I64

> <uniprot_id>
P62508

> <usmiles>
Oc1ccc(cc1)C(c2ccc(O)cc2)C

$$$$
H4N_A_404
          07192420503D 1   1.00000     0.00000     0
            
 16 17  0  0  0  0            999 V2000
 -110.2212 -176.2145  311.9748 Br  0  0  0  0  0  0  0  0  0  0  0  0
 -115.3895 -176.3857  308.9314 N   0  0  0  0  0  0  0  0  0  0  0  0
 -115.6285 -175.0416  308.7873 C   0  0  0  0  0  0  0  0  0  0  0  0
 -112.3834 -177.6013  310.7557 C   0  0  0  0  0  0  0  0  0  0  0  0
 -114.6285 -174.3296  309.3662 C   0  0  0  0  0  0  0  0  0  0  0  0
 -113.5619 -177.7130  310.0328 C   0  0  0  0  0  0  0  0  0  0  0  0
 -112.5147 -175.1835  310.6452 C   0  0  0  0  0  0  0  0  0  0  0  0
 -111.8740 -176.3443  311.0482 C   0  0  0  0  0  0  0  0  0  0  0  0
 -114.2145 -176.5563  309.6235 C   0  0  0  0  0  0  0  0  0  0  0  0
 -113.7052 -175.2772  309.9189 C   0  0  0  0  0  0  0  0  0  0  0  0
 -115.9748 -177.1206  308.5887 H   0  0  0  0  0  0  0  0  0  0  0  0
 -116.4217 -174.6457  308.3246 H   0  0  0  0  0  0  0  0  0  0  0  0
 -111.9034 -178.4225  311.0645 H   0  0  0  0  0  0  0  0  0  0  0  0
 -114.5504 -173.3333  309.4008 H   0  0  0  0  0  0  0  0  0  0  0  0
 -113.9366 -178.6128  309.8093 H   0  0  0  0  0  0  0  0  0  0  0  0
 -112.1296 -174.2888  310.8714 H   0  0  0  0  0  0  0  0  0  0  0  0
  1  8  1  0  0  0  0
  2  3  1  0  0  0  0
  2  9  1  0  0  0  0
  3  5  2  0  0  0  0
  4  6  1  0  0  0  0
  4  8  2  0  0  0  0
  5 10  1  0  0  0  0
  6  9  2  0  0  0  0
  7  8  1  0  0  0  0
  7 10  2  0  0  0  0
  9 10  1  0  0  0  0
  2 11  1  0  0  0  0
  3 12  1  0  0  0  0
  4 13  1  0  0  0  0
  5 14  1  0  0  0  0
  6 15  1  0  0  0  0
  7 16  1  0  0  0  0
M  END
> <pdb_id>
7ZY2

> <uniprot_id>
P68400

> <usmiles>
Brc1cc2c(NC=C2)cc1

$$$$
H4N_B_202
          07202417443D 1   1.00000     0.00000     0
            
 16 17  0  0  0  0            999 V2000
    3.6967    0.2015   20.0137 Br  0  0  0  0  0  0  0  0  0  0  0  0
    6.2969   -1.7527   14.9919 N   0  0  0  0  0  0  0  0  0  0  0  0
    7.4538   -2.2769   15.5065 C   0  0  0  0  0  0  0  0  0  0  0  0
    3.7702   -0.1940   17.2022 C   0  0  0  0  0  0  0  0  0  0  0  0
    7.4799   -2.1099   16.8581 C   0  0  0  0  0  0  0  0  0  0  0  0
    4.2981   -0.6126   16.0033 C   0  0  0  0  0  0  0  0  0  0  0  0
    5.7095   -1.0170   18.4298 C   0  0  0  0  0  0  0  0  0  0  0  0
    4.4770   -0.4007   18.3872 C   0  0  0  0  0  0  0  0  0  0  0  0
    5.5424   -1.2381   16.0195 C   0  0  0  0  0  0  0  0  0  0  0  0
    6.2638   -1.4483   17.2179 C   0  0  0  0  0  0  0  0  0  0  0  0
    6.0424   -1.7456   14.0249 H   0  0  0  0  0  0  0  0  0  0  0  0
    8.1729   -2.7172   14.9689 H   0  0  0  0  0  0  0  0  0  0  0  0
    2.8789    0.2590   17.2246 H   0  0  0  0  0  0  0  0  0  0  0  0
    8.2095   -2.3951   17.4798 H   0  0  0  0  0  0  0  0  0  0  0  0
    3.8035   -0.4720   15.1456 H   0  0  0  0  0  0  0  0  0  0  0  0
    6.1911   -1.1514   19.2959 H   0  0  0  0  0  0  0  0  0  0  0  0
  1  8  1  0  0  0  0
  2  3  1  0  0  0  0
  2  9  1  0  0  0  0
  3  5  2  0  0  0  0
  4  6  1  0  0  0  0
  4  8  2  0  0  0  0
  5 10  1  0  0  0  0
  6  9  2  0  0  0  0
  7  8  1  0  0  0  0
  7 10  2  0  0  0  0
  9 10  1  0  0  0  0
  2 11  1  0  0  0  0
  3 12  1  0  0  0  0
  4 13  1  0  0  0  0
  5 14  1  0  0  0  0
  6 15  1  0  0  0  0
  7 16  1  0  0  0  0
M  END
> <pdb_id>
6I6G

> <uniprot_id>
Q9NAV7

> <usmiles>
Brc1cc2c(NC=C2)cc1

$$$$
H4T_A_302
          07202411093D 1   1.00000     0.00000     0
            
 34 36  0  0  0  0            999 V2000
  -27.5200   -7.0280    8.9010 Cl  0  0  0  0  0  0  0  0  0  0  0  0
  -27.2550  -10.0710   13.2660 Cl  0  0  0  0  0  0  0  0  0  0  0  0
  -23.5740  -10.2640   13.1510 O   0  0  0  0  0  0  0  0  0  0  0  0
  -23.3230   -9.6230   10.0510 O   0  0  0  0  0  0  0  0  0  0  0  0
  -24.6790  -12.0060   12.3170 N   0  0  0  0  0  0  0  0  0  0  0  0
  -24.1680  -13.0180   13.2620 C   0  0  0  0  0  0  0  0  0  0  0  0
  -27.9690  -14.4510   11.8120 C   0  0  0  0  0  0  0  0  0  0  0  0
  -25.6740  -12.6350   11.4390 C   0  0  0  0  0  0  0  0  0  0  0  0
  -24.5780  -14.3840   12.6490 C   0  0  0  0  0  0  0  0  0  0  0  0
  -26.6680  -14.9710   11.1730 C   0  0  0  0  0  0  0  0  0  0  0  0
  -27.1180  -14.0360   13.0280 C   0  0  0  0  0  0  0  0  0  0  0  0
  -27.2030   -8.5930   11.0290 C   0  0  0  0  0  0  0  0  0  0  0  0
  -25.3080   -8.4130    9.5420 C   0  0  0  0  0  0  0  0  0  0  0  0
  -26.6050   -8.0840    9.8910 C   0  0  0  0  0  0  0  0  0  0  0  0
  -26.4920   -9.4350   11.8510 C   0  0  0  0  0  0  0  0  0  0  0  0
  -24.4160  -10.6980   12.3820 C   0  0  0  0  0  0  0  0  0  0  0  0
  -24.5880   -9.2790   10.3560 C   0  0  0  0  0  0  0  0  0  0  0  0
  -25.1760   -9.7890   11.5190 C   0  0  0  0  0  0  0  0  0  0  0  0
  -25.9400  -13.9810   12.0640 C   0  0  0  0  0  0  0  0  0  0  0  0
  -22.8172  -10.2473   10.6463 H   0  0  0  0  0  0  0  0  0  0  0  0
  -24.5837  -12.8985   14.1636 H   0  0  0  0  0  0  0  0  0  0  0  0
  -23.1733  -12.9532   13.3423 H   0  0  0  0  0  0  0  0  0  0  0  0
  -28.6525  -15.1560   12.0012 H   0  0  0  0  0  0  0  0  0  0  0  0
  -28.3996  -13.6915   11.3244 H   0  0  0  0  0  0  0  0  0  0  0  0
  -25.3104  -12.7416   10.5136 H   0  0  0  0  0  0  0  0  0  0  0  0
  -26.5114  -12.0893   11.4073 H   0  0  0  0  0  0  0  0  0  0  0  0
  -24.6642  -15.0971   13.3447 H   0  0  0  0  0  0  0  0  0  0  0  0
  -23.9392  -14.6847   11.9408 H   0  0  0  0  0  0  0  0  0  0  0  0
  -26.5823  -14.7954   10.1923 H   0  0  0  0  0  0  0  0  0  0  0  0
  -26.4638  -15.9322   11.3586 H   0  0  0  0  0  0  0  0  0  0  0  0
  -27.0429  -14.7288   13.7452 H   0  0  0  0  0  0  0  0  0  0  0  0
  -27.3683  -13.1585   13.4371 H   0  0  0  0  0  0  0  0  0  0  0  0
  -28.1469   -8.3502   11.2528 H   0  0  0  0  0  0  0  0  0  0  0  0
  -24.8938   -8.0328    8.7150 H   0  0  0  0  0  0  0  0  0  0  0  0
  1 14  1  0  0  0  0
  2 15  1  0  0  0  0
  3 16  2  0  0  0  0
  4 17  1  0  0  0  0
  5  6  1  0  0  0  0
  5  8  1  0  0  0  0
  5 16  1  0  0  0  0
  6  9  1  0  0  0  0
  7 10  1  0  0  0  0
  7 11  1  0  0  0  0
  8 19  1  0  0  0  0
  9 19  1  0  0  0  0
 10 19  1  0  0  0  0
 11 19  1  0  0  0  0
 12 14  2  0  0  0  0
 12 15  1  0  0  0  0
 13 14  1  0  0  0  0
 13 17  2  0  0  0  0
 15 18  2  0  0  0  0
 16 18  1  0  0  0  0
 17 18  1  0  0  0  0
  4 20  1  0  0  0  0
  6 21  1  0  0  0  0
  6 22  1  0  0  0  0
  7 23  1  0  0  0  0
  7 24  1  0  0  0  0
  8 25  1  0  0  0  0
  8 26  1  0  0  0  0
  9 27  1  0  0  0  0
  9 28  1  0  0  0  0
 10 29  1  0  0  0  0
 10 30  1  0  0  0  0
 11 31  1  0  0  0  0
 11 32  1  0  0  0  0
 12 33  1  0  0  0  0
 13 34  1  0  0  0  0
M  END
> <pdb_id>
6I6P

> <uniprot_id>
P35270

> <usmiles>
Clc1c(c(O)cc(Cl)c1)C(=O)N2CC3(CC2)CCC3

$$$$
H52_A_501
          07192418553D 1   1.00000     0.00000     0
            
 43 45  0  0  0  0            999 V2000
    8.9860    9.7260    4.0600 S   0  0  0  0  0  0  0  0  0  0  0  0
    9.3410   11.0100    4.5490 O   0  0  0  0  0  0  0  0  0  0  0  0
    8.8110    8.7120    5.0260 O   0  0  0  0  0  0  0  0  0  0  0  0
   12.8430    8.3610    3.3140 N   0  0  0  0  0  0  0  0  0  0  0  0
    3.5130    9.9720    4.8060 N   0  0  0  0  0  0  0  0  0  0  0  0
   10.1230    9.2010    3.0980 N   0  0  0  0  0  0  0  0  0  0  0  0
    9.5580    6.9980    2.0900 C   0  0  0  0  0  0  0  0  0  0  0  0
    6.8080   10.0190    6.4410 C   0  0  0  0  0  0  0  0  0  0  0  0
   13.2400    9.6450    2.7600 C   0  0  0  0  0  0  0  0  0  0  0  0
   11.9370    7.5230    2.5640 C   0  0  0  0  0  0  0  0  0  0  0  0
    4.5040    9.9940    5.7070 C   0  0  0  0  0  0  0  0  0  0  0  0
    3.7720    9.8980    3.5020 C   0  0  0  0  0  0  0  0  0  0  0  0
   10.8370   10.0940    2.1760 C   0  0  0  0  0  0  0  0  0  0  0  0
   12.0870   10.6390    2.8720 C   0  0  0  0  0  0  0  0  0  0  0  0
    6.4430    9.7240    1.0570 C   0  0  0  0  0  0  0  0  0  0  0  0
    7.5750    9.7250    1.8830 C   0  0  0  0  0  0  0  0  0  0  0  0
    5.1980    9.7680    1.6290 C   0  0  0  0  0  0  0  0  0  0  0  0
    7.5130    9.7830    3.2950 C   0  0  0  0  0  0  0  0  0  0  0  0
   10.4910    7.7530    3.0200 C   0  0  1  0  0  0  0  0  0  0  0  0
    5.8420    9.9820    5.2660 C   0  0  0  0  0  0  0  0  0  0  0  0
    5.0850    9.8670    3.0180 C   0  0  0  0  0  0  0  0  0  0  0  0
    6.1920    9.8920    3.8840 C   0  0  0  0  0  0  0  0  0  0  0  0
   12.4096    8.5443    4.1963 H   0  0  0  0  0  0  0  0  0  0  0  0
    9.8270    6.0354    2.0574 H   0  0  0  0  0  0  0  0  0  0  0  0
    8.6197    7.0706    2.4281 H   0  0  0  0  0  0  0  0  0  0  0  0
    9.6128    7.3907    1.1720 H   0  0  0  0  0  0  0  0  0  0  0  0
    7.7481   10.0096    6.1001 H   0  0  0  0  0  0  0  0  0  0  0  0
    6.6545   10.8520    6.9726 H   0  0  0  0  0  0  0  0  0  0  0  0
    6.6563    9.2197    7.0225 H   0  0  0  0  0  0  0  0  0  0  0  0
   13.4854    9.5291    1.7975 H   0  0  0  0  0  0  0  0  0  0  0  0
   14.0290    9.9943    3.2654 H   0  0  0  0  0  0  0  0  0  0  0  0
   12.1793    6.5638    2.7094 H   0  0  0  0  0  0  0  0  0  0  0  0
   12.0143    7.7426    1.5915 H   0  0  0  0  0  0  0  0  0  0  0  0
    4.2958   10.0187    6.6848 H   0  0  0  0  0  0  0  0  0  0  0  0
    3.0113    9.8638    2.8538 H   0  0  0  0  0  0  0  0  0  0  0  0
   10.2405   10.8535    1.9165 H   0  0  0  0  0  0  0  0  0  0  0  0
   11.1045    9.5855    1.3575 H   0  0  0  0  0  0  0  0  0  0  0  0
   12.3534   11.5014    2.4414 H   0  0  0  0  0  0  0  0  0  0  0  0
   11.8826   10.7979    3.8379 H   0  0  0  0  0  0  0  0  0  0  0  0
    6.5422    9.6916    0.0625 H   0  0  0  0  0  0  0  0  0  0  0  0
    8.4757    9.6824    1.4507 H   0  0  0  0  0  0  0  0  0  0  0  0
    4.3783    9.7296    1.0574 H   0  0  0  0  0  0  0  0  0  0  0  0
   10.3929    7.3624    3.9353 H   0  0  0  0  0  0  0  0  0  0  0  0
  1  2  2  0  0  0  0
  1  3  2  0  0  0  0
  1  6  1  0  0  0  0
  1 18  1  0  0  0  0
  4  9  1  0  0  0  0
  4 10  1  0  0  0  0
  5 11  2  0  0  0  0
  5 12  1  0  0  0  0
  6 13  1  0  0  0  0
  6 19  1  0  0  0  0
  7 19  1  0  0  0  0
  8 20  1  0  0  0  0
  9 14  1  0  0  0  0
 10 19  1  0  0  0  0
 11 20  1  0  0  0  0
 12 21  2  0  0  0  0
 13 14  1  0  0  0  0
 15 16  1  0  0  0  0
 15 17  2  0  0  0  0
 16 18  2  0  0  0  0
 17 21  1  0  0  0  0
 18 22  1  0  0  0  0
 20 22  2  0  0  0  0
 21 22  1  0  0  0  0
  4 23  1  0  0  0  0
  7 24  1  0  0  0  0
  7 25  1  0  0  0  0
  7 26  1  0  0  0  0
  8 27  1  0  0  0  0
  8 28  1  0  0  0  0
  8 29  1  0  0  0  0
  9 30  1  0  0  0  0
  9 31  1  0  0  0  0
 10 32  1  0  0  0  0
 10 33  1  0  0  0  0
 11 34  1  0  0  0  0
 12 35  1  0  0  0  0
 13 36  1  0  0  0  0
 13 37  1  0  0  0  0
 14 38  1  0  0  0  0
 14 39  1  0  0  0  0
 15 40  1  0  0  0  0
 16 41  1  0  0  0  0
 17 42  1  0  0  0  0
 19 43  1  0  0  0  0
M  END
> <pdb_id>
2GNH

> <uniprot_id>
P00517

> <usmiles>
S(=O)(=O)(N1[C@H](CNCCC1)C)c2c3c(cncc3C)ccc2

$$$$
H5U_B_571
          07192423343D 1   1.00000     0.00000     0
            
 62 65  0  0  0  0            999 V2000
   27.9045   43.8660   35.6750 S   0  0  0  0  0  0  0  0  0  0  0  0
   24.5540   45.3938   39.8878 S   0  0  0  0  0  0  0  0  0  0  0  0
   23.9901   40.2058   49.0819 F   0  0  0  0  0  0  0  0  0  0  0  0
   29.0042   43.0842   35.2241 O   0  0  0  0  0  0  0  0  0  0  0  0
   26.5934   43.4065   35.4489 O   0  0  0  0  0  0  0  0  0  0  0  0
   24.9487   46.6401   39.3679 O   0  0  0  0  0  0  0  0  0  0  0  0
   23.6252   44.5676   39.2067 O   0  0  0  0  0  0  0  0  0  0  0  0
   26.7665   44.9328   44.7762 O   0  0  0  0  0  0  0  0  0  0  0  0
   22.2412   45.6238   43.5803 O   0  0  0  0  0  0  0  0  0  0  0  0
   28.1272   44.1199   37.2848 N   0  0  0  0  0  0  0  0  0  0  0  0
   23.9988   45.6269   41.4614 N   0  0  0  0  0  0  0  0  0  0  0  0
   24.9535   45.4366   46.0151 N   0  0  0  0  0  0  0  0  0  0  0  0
   27.9855   45.5508   34.9767 C   0  0  0  0  0  0  0  0  0  0  0  0
   21.6355   47.4747   45.9744 C   0  0  0  0  0  0  0  0  0  0  0  0
   23.5498   47.6511   47.5034 C   0  0  0  0  0  0  0  0  0  0  0  0
   23.7484   48.2826   45.1148 C   0  0  0  0  0  0  0  0  0  0  0  0
   26.9079   44.2701   38.0564 C   0  0  0  0  0  0  0  0  0  0  0  0
   25.6596   45.3021   47.2905 C   0  0  0  0  0  0  0  0  0  0  0  0
   28.1305   43.2109   41.4838 C   0  0  0  0  0  0  0  0  0  0  0  0
   24.8915   41.5528   47.3694 C   0  0  0  0  0  0  0  0  0  0  0  0
   24.2756   42.5134   49.5117 C   0  0  0  0  0  0  0  0  0  0  0  0
   25.2970   42.8104   46.9498 C   0  0  0  0  0  0  0  0  0  0  0  0
   24.6885   43.7565   49.0684 C   0  0  0  0  0  0  0  0  0  0  0  0
   28.1240   43.3739   40.1082 C   0  0  0  0  0  0  0  0  0  0  0  0
   27.1088   43.7129   42.2705 C   0  0  0  0  0  0  0  0  0  0  0  0
   26.0424   44.5234   40.2991 C   0  0  0  0  0  0  0  0  0  0  0  0
   24.3824   41.4174   48.6576 C   0  0  0  0  0  0  0  0  0  0  0  0
   25.5773   45.2177   44.8367 C   0  0  0  0  0  0  0  0  0  0  0  0
   23.3757   45.5308   44.2784 C   0  0  0  0  0  0  0  0  0  0  0  0
   24.8390   45.0620   42.2798 C   0  0  0  0  0  0  0  0  0  0  0  0
   23.5173   45.7301   45.7675 C   0  0  2  0  0  0  0  0  0  0  0  0
   25.2181   43.9220   47.7860 C   0  0  0  0  0  0  0  0  0  0  0  0
   27.0652   44.0422   39.5262 C   0  0  0  0  0  0  0  0  0  0  0  0
   26.0225   44.4012   41.6954 C   0  0  0  0  0  0  0  0  0  0  0  0
   24.6048   45.2613   43.7359 C   0  0  0  0  0  0  0  0  0  0  0  0
   23.1411   47.2364   46.0833 C   0  0  0  0  0  0  0  0  0  0  0  0
   22.2488   45.4737   42.5916 H   0  0  0  0  0  0  0  0  0  0  0  0
   28.6689   44.9532   37.3954 H   0  0  0  0  0  0  0  0  0  0  0  0
   27.2060   46.0850   35.3039 H   0  0  0  0  0  0  0  0  0  0  0  0
   28.8358   45.9908   35.2654 H   0  0  0  0  0  0  0  0  0  0  0  0
   27.9589   45.4995   33.9784 H   0  0  0  0  0  0  0  0  0  0  0  0
   21.3224   47.2169   45.0603 H   0  0  0  0  0  0  0  0  0  0  0  0
   21.1601   46.9209   46.6580 H   0  0  0  0  0  0  0  0  0  0  0  0
   21.4387   48.4421   46.1337 H   0  0  0  0  0  0  0  0  0  0  0  0
   24.5330   47.5116   47.6213 H   0  0  0  0  0  0  0  0  0  0  0  0
   23.3307   48.6164   47.6448 H   0  0  0  0  0  0  0  0  0  0  0  0
   23.0520   47.0952   48.1692 H   0  0  0  0  0  0  0  0  0  0  0  0
   24.7451   48.2015   45.1189 H   0  0  0  0  0  0  0  0  0  0  0  0
   23.4046   48.1198   44.1900 H   0  0  0  0  0  0  0  0  0  0  0  0
   23.4875   49.2016   45.4104 H   0  0  0  0  0  0  0  0  0  0  0  0
   26.2373   43.6143   37.7097 H   0  0  0  0  0  0  0  0  0  0  0  0
   26.5660   45.1999   37.9203 H   0  0  0  0  0  0  0  0  0  0  0  0
   25.3840   46.0188   47.9311 H   0  0  0  0  0  0  0  0  0  0  0  0
   26.6502   45.3362   47.1581 H   0  0  0  0  0  0  0  0  0  0  0  0
   28.8876   42.7214   41.9164 H   0  0  0  0  0  0  0  0  0  0  0  0
   24.9630   40.7622   46.7613 H   0  0  0  0  0  0  0  0  0  0  0  0
   23.9048   42.4023   50.4337 H   0  0  0  0  0  0  0  0  0  0  0  0
   25.6554   42.9226   46.0230 H   0  0  0  0  0  0  0  0  0  0  0  0
   24.6070   44.5480   49.6741 H   0  0  0  0  0  0  0  0  0  0  0  0
   28.8707   43.0150   39.5482 H   0  0  0  0  0  0  0  0  0  0  0  0
   27.1420   43.5853   43.2618 H   0  0  0  0  0  0  0  0  0  0  0  0
   22.9288   45.0988   46.2725 H   0  0  0  0  0  0  0  0  0  0  0  0
  1  4  2  0  0  0  0
  1  5  2  0  0  0  0
  1 10  1  0  0  0  0
  1 13  1  0  0  0  0
  2  6  2  0  0  0  0
  2  7  2  0  0  0  0
  2 11  1  0  0  0  0
  2 26  1  0  0  0  0
  3 27  1  0  0  0  0
  8 28  2  0  0  0  0
  9 29  1  0  0  0  0
 10 17  1  0  0  0  0
 11 30  2  0  0  0  0
 12 18  1  0  0  0  0
 12 28  1  0  0  0  0
 12 31  1  0  0  0  0
 14 36  1  0  0  0  0
 15 36  1  0  0  0  0
 16 36  1  0  0  0  0
 17 33  1  0  0  0  0
 18 32  1  0  0  0  0
 19 24  2  0  0  0  0
 19 25  1  0  0  0  0
 20 22  2  0  0  0  0
 20 27  1  0  0  0  0
 21 23  1  0  0  0  0
 21 27  2  0  0  0  0
 22 32  1  0  0  0  0
 23 32  2  0  0  0  0
 24 33  1  0  0  0  0
 25 34  2  0  0  0  0
 26 33  2  0  0  0  0
 26 34  1  0  0  0  0
 28 35  1  0  0  0  0
 29 31  1  0  0  0  0
 29 35  2  0  0  0  0
 30 34  1  0  0  0  0
 30 35  1  0  0  0  0
 31 36  1  0  0  0  0
  9 37  1  0  0  0  0
 10 38  1  0  0  0  0
 13 39  1  0  0  0  0
 13 40  1  0  0  0  0
 13 41  1  0  0  0  0
 14 42  1  0  0  0  0
 14 43  1  0  0  0  0
 14 44  1  0  0  0  0
 15 45  1  0  0  0  0
 15 46  1  0  0  0  0
 15 47  1  0  0  0  0
 16 48  1  0  0  0  0
 16 49  1  0  0  0  0
 16 50  1  0  0  0  0
 17 51  1  0  0  0  0
 17 52  1  0  0  0  0
 18 53  1  0  0  0  0
 18 54  1  0  0  0  0
 19 55  1  0  0  0  0
 20 56  1  0  0  0  0
 21 57  1  0  0  0  0
 22 58  1  0  0  0  0
 23 59  1  0  0  0  0
 24 60  1  0  0  0  0
 25 61  1  0  0  0  0
 31 62  1  0  0  0  0
M  END
> <pdb_id>
3H5U

> <uniprot_id>
P26663

> <usmiles>
S1(=O)(=O)N=C(c2c1c(ccc2)CNS(=O)(=O)C)C=3C(=O)N([C@H](C3O)C(C)(C)C)Cc4ccc(F)cc4

$$$$
H70_A_401
          07192420003D 1   1.00000     0.00000     0
            
 21 22  0  0  0  0            999 V2000
   17.5560   24.9954  -18.3957 Br  0  0  0  0  0  0  0  0  0  0  0  0
   17.8864   27.3065  -21.0650 Br  0  0  0  0  0  0  0  0  0  0  0  0
   16.1440   30.3976  -20.0154 Br  0  0  0  0  0  0  0  0  0  0  0  0
   11.7922   31.8025  -17.5561 Cl  0  0  0  0  0  0  0  0  0  0  0  0
   14.2432   30.2973  -13.0190 Cl  0  0  0  0  0  0  0  0  0  0  0  0
   16.0524   28.7418  -14.8006 O   0  0  0  0  0  0  0  0  0  0  0  0
   16.1401   27.2928  -17.4287 N   0  0  0  0  0  0  0  0  0  0  0  0
   13.1552   30.9693  -15.3892 C   0  0  0  0  0  0  0  0  0  0  0  0
   13.9343   30.1329  -17.5206 C   0  0  0  0  0  0  0  0  0  0  0  0
   16.8447   26.7497  -18.4211 C   0  0  0  0  0  0  0  0  0  0  0  0
   16.9889   27.5979  -19.4314 C   0  0  0  0  0  0  0  0  0  0  0  0
   16.2993   28.8069  -19.0158 C   0  0  0  0  0  0  0  0  0  0  0  0
   13.0504   30.9084  -16.7719 C   0  0  0  0  0  0  0  0  0  0  0  0
   14.1525   30.2268  -14.7647 C   0  0  0  0  0  0  0  0  0  0  0  0
   15.0673   29.4516  -15.4965 C   0  0  0  0  0  0  0  0  0  0  0  0
   15.8371   28.5467  -17.7924 C   0  0  0  0  0  0  0  0  0  0  0  0
   14.9683   29.4087  -16.9036 C   0  0  0  0  0  0  0  0  0  0  0  0
   16.7141   28.1835  -15.3012 H   0  0  0  0  0  0  0  0  0  0  0  0
   15.8846   26.8469  -16.5709 H   0  0  0  0  0  0  0  0  0  0  0  0
   12.5277   31.5345  -14.8536 H   0  0  0  0  0  0  0  0  0  0  0  0
   13.8307   30.0913  -18.5144 H   0  0  0  0  0  0  0  0  0  0  0  0
  1 10  1  0  0  0  0
  2 11  1  0  0  0  0
  3 12  1  0  0  0  0
  4 13  1  0  0  0  0
  5 14  1  0  0  0  0
  6 15  1  0  0  0  0
  7 10  1  0  0  0  0
  7 16  1  0  0  0  0
  8 13  2  0  0  0  0
  8 14  1  0  0  0  0
  9 13  1  0  0  0  0
  9 17  2  0  0  0  0
 10 11  2  0  0  0  0
 11 12  1  0  0  0  0
 12 16  2  0  0  0  0
 14 15  2  0  0  0  0
 15 17  1  0  0  0  0
 16 17  1  0  0  0  0
  6 18  1  0  0  0  0
  7 19  1  0  0  0  0
  8 20  1  0  0  0  0
  9 21  1  0  0  0  0
M  END
> <pdb_id>
4NAL

> <uniprot_id>
P69834

> <usmiles>
BrC=1NC(c2c(O)c(Cl)cc(Cl)c2)=C(Br)C1Br

$$$$
H76_C_503
          07192418093D 1   1.00000     0.00000     0
            
 21 21  0  0  0  0            999 V2000
  -24.0211    3.8919   29.2152 O   0  0  0  0  0  0  0  0  0  0  0  0
  -24.3135    0.9731   29.3949 O   0  0  0  0  0  0  0  0  0  0  0  0
  -26.4809    3.3997   27.5522 N   0  0  0  0  0  0  0  0  0  0  0  0
  -28.0453    0.4730   28.0597 C   0  0  0  0  0  0  0  0  0  0  0  0
  -24.9225    5.2416   26.7544 C   0  0  0  0  0  0  0  0  0  0  0  0
  -27.2659    1.2585   28.2471 C   0  0  0  0  0  0  0  0  0  0  0  0
  -25.1407    3.7270   27.0087 C   0  0  1  0  0  0  0  0  0  0  0  0
  -26.3221    2.2790   28.5256 C   0  0  1  0  0  0  0  0  0  0  0  0
  -24.1317    3.0938   28.0238 C   0  0  2  0  0  0  0  0  0  0  0  0
  -24.8620    1.7802   28.2745 C   0  0  1  0  0  0  0  0  0  0  0  0
  -23.3715    3.4642   29.8438 H   0  0  0  0  0  0  0  0  0  0  0  0
  -23.3815    0.6858   29.1737 H   0  0  0  0  0  0  0  0  0  0  0  0
  -27.0895    3.1206   26.8095 H   0  0  0  0  0  0  0  0  0  0  0  0
  -28.7397   -0.2269   27.8927 H   0  0  0  0  0  0  0  0  0  0  0  0
  -24.0030    5.3893   26.3902 H   0  0  0  0  0  0  0  0  0  0  0  0
  -25.5989    5.5697   26.0950 H   0  0  0  0  0  0  0  0  0  0  0  0
  -25.0250    5.7421   27.6141 H   0  0  0  0  0  0  0  0  0  0  0  0
  -25.0382    3.2506   26.1355 H   0  0  0  0  0  0  0  0  0  0  0  0
  -26.4258    2.6091   29.4638 H   0  0  0  0  0  0  0  0  0  0  0  0
  -23.2377    2.9402   27.6027 H   0  0  0  0  0  0  0  0  0  0  0  0
  -24.8438    1.2321   27.4383 H   0  0  0  0  0  0  0  0  0  0  0  0
  1  9  1  0  0  0  0
  2 10  1  0  0  0  0
  3  7  1  0  0  0  0
  3  8  1  0  0  0  0
  4  6  3  0  0  0  0
  5  7  1  0  0  0  0
  6  8  1  0  0  0  0
  7  9  1  0  0  0  0
  8 10  1  0  0  0  0
  9 10  1  0  0  0  0
  1 11  1  0  0  0  0
  2 12  1  0  0  0  0
  3 13  1  0  0  0  0
  4 14  1  0  0  0  0
  5 15  1  0  0  0  0
  5 16  1  0  0  0  0
  5 17  1  0  0  0  0
  7 18  1  0  0  0  0
  8 19  1  0  0  0  0
  9 20  1  0  0  0  0
 10 21  1  0  0  0  0
M  END
> <pdb_id>
4PCT

> <uniprot_id>
Q8A3I4

> <usmiles>
O[C@H]1[C@@H](O)[C@@H](N[C@H]1C)C#C

$$$$
H7G_A_401
          07212402463D 1   1.00000     0.00000     0
            
 34 35  0  0  0  0            999 V2000
   34.7358    5.3978   28.7598 Cl  0  0  0  0  0  0  0  0  0  0  0  0
   29.6921    6.7017   30.4995 S   0  0  0  0  0  0  0  0  0  0  0  0
   29.0423    6.1549   29.3119 O   0  0  0  0  0  0  0  0  0  0  0  0
   28.8286    7.7850   30.9576 O   0  0  0  0  0  0  0  0  0  0  0  0
   26.8912    5.4475   38.2464 O   0  0  0  0  0  0  0  0  0  0  0  0
   28.7664    4.5807   37.5778 O   0  0  0  0  0  0  0  0  0  0  0  0
   31.9162    4.9197   29.6039 O   0  0  0  0  0  0  0  0  0  0  0  0
   29.7975    5.5194   31.7307 N   0  0  0  0  0  0  0  0  0  0  0  0
   33.0288    8.9421   29.7350 C   0  0  0  0  0  0  0  0  0  0  0  0
   31.3269    6.8049   34.8969 C   0  0  0  0  0  0  0  0  0  0  0  0
   33.9569    7.9903   29.3265 C   0  0  0  0  0  0  0  0  0  0  0  0
   31.7415    8.5713   30.0889 C   0  0  0  0  0  0  0  0  0  0  0  0
   31.1895    6.3948   33.5733 C   0  0  0  0  0  0  0  0  0  0  0  0
   30.2183    6.8009   35.7382 C   0  0  0  0  0  0  0  0  0  0  0  0
   27.7624    6.3665   36.1909 C   0  0  0  0  0  0  0  0  0  0  0  0
   28.8507    5.9722   33.9519 C   0  0  0  0  0  0  0  0  0  0  0  0
   27.8222    5.4075   37.3995 C   0  0  0  0  0  0  0  0  0  0  0  0
   33.5752    6.6529   29.2797 C   0  0  0  0  0  0  0  0  0  0  0  0
   31.3718    7.2377   30.0443 C   0  0  0  0  0  0  0  0  0  0  0  0
   32.2882    6.2792   29.6407 C   0  0  0  0  0  0  0  0  0  0  0  0
   29.9519    5.9745   33.1084 C   0  0  0  0  0  0  0  0  0  0  0  0
   28.9860    6.3765   35.2716 C   0  0  0  0  0  0  0  0  0  0  0  0
   26.1349    6.0910   38.1281 H   0  0  0  0  0  0  0  0  0  0  0  0
   30.9896    4.6477   29.8635 H   0  0  0  0  0  0  0  0  0  0  0  0
   29.7545    4.5444   31.5127 H   0  0  0  0  0  0  0  0  0  0  0  0
   33.2936    9.9056   29.7738 H   0  0  0  0  0  0  0  0  0  0  0  0
   32.2179    7.1008   35.2413 H   0  0  0  0  0  0  0  0  0  0  0  0
   34.8843    8.2628   29.0703 H   0  0  0  0  0  0  0  0  0  0  0  0
   31.0811    9.2652   30.3758 H   0  0  0  0  0  0  0  0  0  0  0  0
   31.9797    6.4033   32.9604 H   0  0  0  0  0  0  0  0  0  0  0  0
   30.3125    7.1066   36.6857 H   0  0  0  0  0  0  0  0  0  0  0  0
   27.6390    7.2940   36.5439 H   0  0  0  0  0  0  0  0  0  0  0  0
   26.9686    6.1116   35.6388 H   0  0  0  0  0  0  0  0  0  0  0  0
   27.9586    5.6789   33.6081 H   0  0  0  0  0  0  0  0  0  0  0  0
  1 18  1  0  0  0  0
  2  3  2  0  0  0  0
  2  4  2  0  0  0  0
  2  8  1  0  0  0  0
  2 19  1  0  0  0  0
  5 17  1  0  0  0  0
  6 17  2  0  0  0  0
  7 20  1  0  0  0  0
  8 21  1  0  0  0  0
  9 11  2  0  0  0  0
  9 12  1  0  0  0  0
 10 13  2  0  0  0  0
 10 14  1  0  0  0  0
 11 18  1  0  0  0  0
 12 19  2  0  0  0  0
 13 21  1  0  0  0  0
 14 22  2  0  0  0  0
 15 17  1  0  0  0  0
 15 22  1  0  0  0  0
 16 21  2  0  0  0  0
 16 22  1  0  0  0  0
 18 20  2  0  0  0  0
 19 20  1  0  0  0  0
  5 23  1  0  0  0  0
  7 24  1  0  0  0  0
  8 25  1  0  0  0  0
  9 26  1  0  0  0  0
 10 27  1  0  0  0  0
 11 28  1  0  0  0  0
 12 29  1  0  0  0  0
 13 30  1  0  0  0  0
 14 31  1  0  0  0  0
 15 32  1  0  0  0  0
 15 33  1  0  0  0  0
 16 34  1  0  0  0  0
M  END
> <pdb_id>
6DPX

> <uniprot_id>
P00811

> <usmiles>
Clc1c(O)c(S(=O)(=O)Nc2cc(ccc2)CC(=O)O)ccc1

$$$$
H7M_B_401
          07212402463D 1   1.00000     0.00000     0
            
 38 40  0  0  0  0            999 V2000
   35.1560    5.0140   28.4920 Cl  0  0  0  0  0  0  0  0  0  0  0  0
   28.2890    6.2620   33.6080 S   0  0  0  0  0  0  0  0  0  0  0  0
   30.4840    7.2120   30.4330 S   0  0  0  0  0  0  0  0  0  0  0  0
   29.5880    6.6930   29.3840 O   0  0  0  0  0  0  0  0  0  0  0  0
   29.8330    8.4530   30.8850 O   0  0  0  0  0  0  0  0  0  0  0  0
   32.2800    5.0150   29.4520 O   0  0  0  0  0  0  0  0  0  0  0  0
   30.4980    6.0890   31.6860 N   0  0  0  0  0  0  0  0  0  0  0  0
   26.1970    6.9450   36.8760 N   0  0  0  0  0  0  0  0  0  0  0  0
   27.0260    6.1830   36.1180 N   0  0  0  0  0  0  0  0  0  0  0  0
   26.5600    7.9790   35.0420 N   0  0  0  0  0  0  0  0  0  0  0  0
   26.5260    8.9900   34.0090 C   0  0  0  0  0  0  0  0  0  0  0  0
   25.9240    8.0420   36.1950 C   0  0  0  0  0  0  0  0  0  0  0  0
   31.8320    7.0490   35.5630 C   0  0  0  0  0  0  0  0  0  0  0  0
   32.7600    6.9400   34.5480 C   0  0  0  0  0  0  0  0  0  0  0  0
   34.1260    8.8270   29.4970 C   0  0  0  0  0  0  0  0  0  0  0  0
   34.8420    7.6890   29.0620 C   0  0  0  0  0  0  0  0  0  0  0  0
   30.4590    6.8510   35.3100 C   0  0  0  0  0  0  0  0  0  0  0  0
   32.8190    8.7110   29.9060 C   0  0  0  0  0  0  0  0  0  0  0  0
   32.3530    6.6370   33.2730 C   0  0  0  0  0  0  0  0  0  0  0  0
   27.2330    6.8420   34.9990 C   0  0  0  0  0  0  0  0  0  0  0  0
   34.2400    6.4410   29.0450 C   0  0  0  0  0  0  0  0  0  0  0  0
   30.0570    6.5450   34.0400 C   0  0  0  0  0  0  0  0  0  0  0  0
   32.2200    7.4620   29.8800 C   0  0  0  0  0  0  0  0  0  0  0  0
   32.9420    6.3100   29.4520 C   0  0  0  0  0  0  0  0  0  0  0  0
   30.9920    6.4410   33.0200 C   0  0  0  0  0  0  0  0  0  0  0  0
   31.3295    4.9393   29.7535 H   0  0  0  0  0  0  0  0  0  0  0  0
   30.1623    5.1623   31.5169 H   0  0  0  0  0  0  0  0  0  0  0  0
   27.0924    8.6982   33.2382 H   0  0  0  0  0  0  0  0  0  0  0  0
   25.5837    9.1194   33.7001 H   0  0  0  0  0  0  0  0  0  0  0  0
   26.8784    9.8517   34.3742 H   0  0  0  0  0  0  0  0  0  0  0  0
   25.3365    8.7912   36.5007 H   0  0  0  0  0  0  0  0  0  0  0  0
   32.1367    7.2711   36.4892 H   0  0  0  0  0  0  0  0  0  0  0  0
   33.7307    7.0820   34.7417 H   0  0  0  0  0  0  0  0  0  0  0  0
   34.5727    9.7216   29.5073 H   0  0  0  0  0  0  0  0  0  0  0  0
   35.7916    7.7852   28.7638 H   0  0  0  0  0  0  0  0  0  0  0  0
   29.7897    6.9332   36.0484 H   0  0  0  0  0  0  0  0  0  0  0  0
   32.3097    9.5135   30.2167 H   0  0  0  0  0  0  0  0  0  0  0  0
   33.0217    6.5573   32.5338 H   0  0  0  0  0  0  0  0  0  0  0  0
  1 21  1  0  0  0  0
  2 20  1  0  0  0  0
  2 22  1  0  0  0  0
  3  4  2  0  0  0  0
  3  5  2  0  0  0  0
  3  7  1  0  0  0  0
  3 23  1  0  0  0  0
  6 24  1  0  0  0  0
  7 25  1  0  0  0  0
  8  9  1  0  0  0  0
  8 12  2  0  0  0  0
  9 20  2  0  0  0  0
 10 11  1  0  0  0  0
 10 12  1  0  0  0  0
 10 20  1  0  0  0  0
 13 14  2  0  0  0  0
 13 17  1  0  0  0  0
 14 19  1  0  0  0  0
 15 16  2  0  0  0  0
 15 18  1  0  0  0  0
 16 21  1  0  0  0  0
 17 22  2  0  0  0  0
 18 23  2  0  0  0  0
 19 25  2  0  0  0  0
 21 24  2  0  0  0  0
 22 25  1  0  0  0  0
 23 24  1  0  0  0  0
  6 26  1  0  0  0  0
  7 27  1  0  0  0  0
 11 28  1  0  0  0  0
 11 29  1  0  0  0  0
 11 30  1  0  0  0  0
 12 31  1  0  0  0  0
 13 32  1  0  0  0  0
 14 33  1  0  0  0  0
 15 34  1  0  0  0  0
 16 35  1  0  0  0  0
 17 36  1  0  0  0  0
 18 37  1  0  0  0  0
 19 38  1  0  0  0  0
M  END
> <pdb_id>
6DPT

> <uniprot_id>
P00811

> <usmiles>
Clc1c(O)c(S(=O)(=O)Nc2c(SC3=NN=CN3C)cccc2)ccc1

$$$$
HA1_A_290
          07192421073D 1   1.00000     0.00000     0
            
 36 37  0  0  0  0            999 V2000
   73.9180   39.9670   50.1360 P   0  0  0  0  0  0  0  0  0  0  0  0
   74.4940   40.7400   52.2830 F   0  0  0  0  0  0  0  0  0  0  0  0
   75.7270   41.3680   50.5970 F   0  0  0  0  0  0  0  0  0  0  0  0
   72.4530   39.8050   50.3640 O   0  0  0  0  0  0  0  0  0  0  0  0
   74.1700   40.2640   48.6970 O   0  0  0  0  0  0  0  0  0  0  0  0
   74.6210   38.6860   50.4980 O   0  0  0  0  0  0  0  0  0  0  0  0
   72.1750   51.0160   49.1910 O   0  0  0  0  0  0  0  0  0  0  0  0
   76.2840   48.8480   48.4800 N   0  0  0  0  0  0  0  0  0  0  0  0
   71.0510   48.2700   50.0890 N   0  0  0  0  0  0  0  0  0  0  0  0
   74.1800   49.9120   48.8540 N   0  0  0  0  0  0  0  0  0  0  0  0
   74.4860   47.5150   49.2700 N   0  0  0  0  0  0  0  0  0  0  0  0
   72.3650   46.4880   50.0860 N   0  0  0  0  0  0  0  0  0  0  0  0
   71.1030   46.9890   50.3430 C   0  0  0  0  0  0  0  0  0  0  0  0
   72.6500   45.1320   50.2120 C   0  0  0  0  0  0  0  0  0  0  0  0
   73.4070   44.8400   51.5340 C   0  0  0  0  0  0  0  0  0  0  0  0
   74.3640   43.6420   51.3350 C   0  0  0  0  0  0  0  0  0  0  0  0
   73.6010   42.3740   50.8350 C   0  0  0  0  0  0  0  0  0  0  0  0
   74.9780   48.7450   48.8730 C   0  0  0  0  0  0  0  0  0  0  0  0
   72.8050   49.9450   49.2380 C   0  0  0  0  0  0  0  0  0  0  0  0
   73.1450   47.5500   49.6440 C   0  0  0  0  0  0  0  0  0  0  0  0
   72.2950   48.6540   49.6530 C   0  0  0  0  0  0  0  0  0  0  0  0
   74.4710   41.0990   50.9880 C   0  0  0  0  0  0  0  0  0  0  0  0
   72.2859   39.6059   51.3296 H   0  0  0  0  0  0  0  0  0  0  0  0
   75.1526   40.3723   48.5461 H   0  0  0  0  0  0  0  0  0  0  0  0
   76.8723   48.0394   48.4831 H   0  0  0  0  0  0  0  0  0  0  0  0
   76.6505   49.7319   48.1896 H   0  0  0  0  0  0  0  0  0  0  0  0
   74.6043   50.7662   48.5534 H   0  0  0  0  0  0  0  0  0  0  0  0
   70.3337   46.4450   50.6780 H   0  0  0  0  0  0  0  0  0  0  0  0
   73.2176   44.8447   49.4405 H   0  0  0  0  0  0  0  0  0  0  0  0
   71.7932   44.6164   50.2057 H   0  0  0  0  0  0  0  0  0  0  0  0
   72.7473   44.6222   52.2533 H   0  0  0  0  0  0  0  0  0  0  0  0
   73.9353   45.6466   51.7993 H   0  0  0  0  0  0  0  0  0  0  0  0
   74.8066   43.4318   52.2067 H   0  0  0  0  0  0  0  0  0  0  0  0
   75.0586   43.8901   50.6598 H   0  0  0  0  0  0  0  0  0  0  0  0
   73.3653   42.4943   49.8706 H   0  0  0  0  0  0  0  0  0  0  0  0
   72.7642   42.2642   51.3714 H   0  0  0  0  0  0  0  0  0  0  0  0
  1  4  1  0  0  0  0
  1  5  1  0  0  0  0
  1  6  2  0  0  0  0
  1 22  1  0  0  0  0
  2 22  1  0  0  0  0
  3 22  1  0  0  0  0
  7 19  2  0  0  0  0
  8 18  1  0  0  0  0
  9 13  2  0  0  0  0
  9 21  1  0  0  0  0
 10 18  1  0  0  0  0
 10 19  1  0  0  0  0
 11 18  2  0  0  0  0
 11 20  1  0  0  0  0
 12 13  1  0  0  0  0
 12 14  1  0  0  0  0
 12 20  1  0  0  0  0
 14 15  1  0  0  0  0
 15 16  1  0  0  0  0
 16 17  1  0  0  0  0
 17 22  1  0  0  0  0
 19 21  1  0  0  0  0
 20 21  2  0  0  0  0
  4 23  1  0  0  0  0
  5 24  1  0  0  0  0
  8 25  1  0  0  0  0
  8 26  1  0  0  0  0
 10 27  1  0  0  0  0
 13 28  1  0  0  0  0
 14 29  1  0  0  0  0
 14 30  1  0  0  0  0
 15 31  1  0  0  0  0
 15 32  1  0  0  0  0
 16 33  1  0  0  0  0
 16 34  1  0  0  0  0
 17 35  1  0  0  0  0
 17 36  1  0  0  0  0
M  END
> <pdb_id>
1V48

> <uniprot_id>
P55859

> <usmiles>
P(=O)(O)(O)C(F)(F)CCCCN1C=2N=C(NC(=O)C2N=C1)N

$$$$
HA6_A_1341
          07202410153D 1   1.00000     0.00000     0
            
 24 26  0  0  0  0            999 V2000
   11.0980    0.2860   18.0500 O   0  0  0  0  0  0  0  0  0  0  0  0
   13.5770    3.6150   16.1520 O   0  0  0  0  0  0  0  0  0  0  0  0
   14.9160    6.8690   16.8630 N   0  0  0  0  0  0  0  0  0  0  0  0
   14.4450    6.9920   15.6050 N   0  0  0  0  0  0  0  0  0  0  0  0
    8.1390    4.3460   18.4170 N   0  0  0  0  0  0  0  0  0  0  0  0
   12.2980    1.9840   17.1140 N   0  0  0  0  0  0  0  0  0  0  0  0
   11.4740    4.1930   16.9530 N   0  0  0  0  0  0  0  0  0  0  0  0
    7.9780    3.0750   18.7920 C   0  0  0  0  0  0  0  0  0  0  0  0
   14.6550    5.6140   17.2110 C   0  0  0  0  0  0  0  0  0  0  0  0
   13.9020    5.8530   15.1740 C   0  0  0  0  0  0  0  0  0  0  0  0
    9.2870    4.6750   17.8150 C   0  0  0  0  0  0  0  0  0  0  0  0
    8.9220    2.0870   18.5990 C   0  0  0  0  0  0  0  0  0  0  0  0
   12.4180    3.2890   16.7480 C   0  0  0  0  0  0  0  0  0  0  0  0
   11.1750    1.4770   17.7340 C   0  0  0  0  0  0  0  0  0  0  0  0
   14.0120    4.9570   16.1630 C   0  0  0  0  0  0  0  0  0  0  0  0
   10.3060    3.7780   17.5770 C   0  0  0  0  0  0  0  0  0  0  0  0
   10.1100    2.4560   17.9810 C   0  0  0  0  0  0  0  0  0  0  0  0
   15.3651    7.5716   17.4149 H   0  0  0  0  0  0  0  0  0  0  0  0
   13.0592    1.3637   16.9247 H   0  0  0  0  0  0  0  0  0  0  0  0
    7.1204    2.8232   19.2405 H   0  0  0  0  0  0  0  0  0  0  0  0
   14.8852    5.2021   18.0927 H   0  0  0  0  0  0  0  0  0  0  0  0
   13.4886    5.6966   14.2770 H   0  0  0  0  0  0  0  0  0  0  0  0
    9.4128    5.6227   17.5218 H   0  0  0  0  0  0  0  0  0  0  0  0
    8.7577    1.1450   18.8918 H   0  0  0  0  0  0  0  0  0  0  0  0
  1 14  2  0  0  0  0
  2 13  1  0  0  0  0
  2 15  1  0  0  0  0
  3  4  1  0  0  0  0
  3  9  1  0  0  0  0
  4 10  2  0  0  0  0
  5  8  2  0  0  0  0
  5 11  1  0  0  0  0
  6 13  1  0  0  0  0
  6 14  1  0  0  0  0
  7 13  2  0  0  0  0
  7 16  1  0  0  0  0
  8 12  1  0  0  0  0
  9 15  2  0  0  0  0
 10 15  1  0  0  0  0
 11 16  2  0  0  0  0
 12 17  2  0  0  0  0
 14 17  1  0  0  0  0
 16 17  1  0  0  0  0
  3 18  1  0  0  0  0
  6 19  1  0  0  0  0
  8 20  1  0  0  0  0
  9 21  1  0  0  0  0
 10 22  1  0  0  0  0
 11 23  1  0  0  0  0
 12 24  1  0  0  0  0
M  END
> <pdb_id>
5FPB

> <uniprot_id>
Q6B0I6

> <usmiles>
O=C1NC(OC=2C=NNC2)=Nc3c1ccnc3

$$$$
HAJ_A_1224
          07192420423D 1   1.00000     0.00000     0
            
 37 41  0  0  0  0            999 V2000
   65.9118   35.9631   21.2540 F   0  0  0  0  0  0  0  0  0  0  0  0
   73.5681   30.4192   24.2918 O   0  0  0  0  0  0  0  0  0  0  0  0
   71.3264   30.1826   24.0748 O   0  0  0  0  0  0  0  0  0  0  0  0
   65.1972   33.1937   25.4735 N   0  0  0  0  0  0  0  0  0  0  0  0
   67.4252   33.9350   25.5629 N   0  0  0  0  0  0  0  0  0  0  0  0
   66.1315   34.5677   23.7520 N   0  0  0  0  0  0  0  0  0  0  0  0
   69.9551   35.9092   23.8239 N   0  0  0  0  0  0  0  0  0  0  0  0
   68.1174   34.7153   24.6533 N   0  0  0  0  0  0  0  0  0  0  0  0
   72.5684   29.5077   23.8070 C   0  0  0  0  0  0  0  0  0  0  0  0
   69.1096   37.5150   20.6439 C   0  0  0  0  0  0  0  0  0  0  0  0
   67.7749   37.1355   20.4899 C   0  0  0  0  0  0  0  0  0  0  0  0
   73.4794   32.7286   25.2665 C   0  0  0  0  0  0  0  0  0  0  0  0
   69.8239   37.1057   21.7618 C   0  0  0  0  0  0  0  0  0  0  0  0
   72.5927   33.7469   25.6446 C   0  0  0  0  0  0  0  0  0  0  0  0
   70.6703   32.4002   24.9844 C   0  0  0  0  0  0  0  0  0  0  0  0
   70.2613   34.7090   25.9572 C   0  0  0  0  0  0  0  0  0  0  0  0
   66.2380   33.8880   24.9287 C   0  0  0  0  0  0  0  0  0  0  0  0
   67.1813   36.3237   21.4542 C   0  0  0  0  0  0  0  0  0  0  0  0
   72.9268   31.5537   24.7502 C   0  0  0  0  0  0  0  0  0  0  0  0
   71.5791   31.4067   24.6080 C   0  0  0  0  0  0  0  0  0  0  0  0
   69.3994   35.1259   24.7866 C   0  0  0  0  0  0  0  0  0  0  0  0
   67.3726   35.0999   23.6059 C   0  0  0  0  0  0  0  0  0  0  0  0
   69.2282   36.3008   22.7362 C   0  0  0  0  0  0  0  0  0  0  0  0
   71.1987   33.5890   25.5184 C   0  0  0  0  0  0  0  0  0  0  0  0
   67.8981   35.9064   22.5831 C   0  0  0  0  0  0  0  0  0  0  0  0
   64.3166   33.1602   25.0008 H   0  0  0  0  0  0  0  0  0  0  0  0
   65.3150   32.7185   26.3454 H   0  0  0  0  0  0  0  0  0  0  0  0
   72.6131   28.6371   24.2969 H   0  0  0  0  0  0  0  0  0  0  0  0
   72.6807   29.3448   22.8268 H   0  0  0  0  0  0  0  0  0  0  0  0
   69.5514   38.0819   19.9485 H   0  0  0  0  0  0  0  0  0  0  0  0
   67.2504   37.4431   19.6960 H   0  0  0  0  0  0  0  0  0  0  0  0
   74.4686   32.8389   25.3626 H   0  0  0  0  0  0  0  0  0  0  0  0
   70.7762   37.3905   21.8710 H   0  0  0  0  0  0  0  0  0  0  0  0
   72.9574   34.6028   26.0113 H   0  0  0  0  0  0  0  0  0  0  0  0
   69.6844   32.2707   24.8783 H   0  0  0  0  0  0  0  0  0  0  0  0
   69.6786   34.3844   26.7023 H   0  0  0  0  0  0  0  0  0  0  0  0
   70.7993   35.4913   26.2714 H   0  0  0  0  0  0  0  0  0  0  0  0
  1 18  1  0  0  0  0
  2  9  1  0  0  0  0
  2 19  1  0  0  0  0
  3  9  1  0  0  0  0
  3 20  1  0  0  0  0
  4 17  1  0  0  0  0
  5  8  1  0  0  0  0
  5 17  2  0  0  0  0
  6 17  1  0  0  0  0
  6 22  2  0  0  0  0
  7 21  2  0  0  0  0
  7 23  1  0  0  0  0
  8 21  1  0  0  0  0
  8 22  1  0  0  0  0
 10 11  2  0  0  0  0
 10 13  1  0  0  0  0
 11 18  1  0  0  0  0
 12 14  2  0  0  0  0
 12 19  1  0  0  0  0
 13 23  2  0  0  0  0
 14 24  1  0  0  0  0
 15 20  1  0  0  0  0
 15 24  2  0  0  0  0
 16 21  1  0  0  0  0
 16 24  1  0  0  0  0
 18 25  2  0  0  0  0
 19 20  2  0  0  0  0
 22 25  1  0  0  0  0
 23 25  1  0  0  0  0
  4 26  1  0  0  0  0
  4 27  1  0  0  0  0
  9 28  1  0  0  0  0
  9 29  1  0  0  0  0
 10 30  1  0  0  0  0
 11 31  1  0  0  0  0
 12 32  1  0  0  0  0
 13 33  1  0  0  0  0
 14 34  1  0  0  0  0
 15 35  1  0  0  0  0
 16 36  1  0  0  0  0
 16 37  1  0  0  0  0
M  END
> <pdb_id>
4CWR

> <uniprot_id>
P07900

> <usmiles>
Fc1c2c(N=C(N3N=C(N=C32)N)Cc4cc5OCOc5cc4)ccc1

$$$$
HAR_A_906
          07202415503D 1   1.00000     0.00000     0
            
 27 26  0  0  0  0            999 V2000
  -27.2728   13.1167  -13.1044 O   0  0  0  0  0  0  0  0  0  0  0  0
  -20.0988   16.2607  -10.8545 O   0  0  0  0  0  0  0  0  0  0  0  0
  -19.6247   15.4780  -13.0161 O   0  0  0  0  0  0  0  0  0  0  0  0
  -26.6148   13.4532  -10.6413 N   0  0  0  0  0  0  0  0  0  0  0  0
  -21.1216   17.5938  -13.9204 N   0  0  0  0  0  0  0  0  0  0  0  0
  -26.0954   13.6735  -12.8682 N   0  0  0  0  0  0  0  0  0  0  0  0
  -24.6185   14.3889  -11.2317 N   0  0  0  0  0  0  0  0  0  0  0  0
  -23.6678   14.8338  -12.0915 C   0  0  0  0  0  0  0  0  0  0  0  0
  -23.2861   16.2184  -11.6947 C   0  0  0  0  0  0  0  0  0  0  0  0
  -22.4138   17.4398  -11.9749 C   0  0  0  0  0  0  0  0  0  0  0  0
  -20.1865   16.3231  -12.1727 C   0  0  0  0  0  0  0  0  0  0  0  0
  -25.7680   13.8422  -11.5881 C   0  0  0  0  0  0  0  0  0  0  0  0
  -21.0384   17.5354  -12.5592 C   0  0  1  0  0  0  0  0  0  0  0  0
  -27.5739   12.9643  -14.0457 H   0  0  0  0  0  0  0  0  0  0  0  0
  -20.5585   16.9461  -10.2898 H   0  0  0  0  0  0  0  0  0  0  0  0
  -26.3779   13.5756   -9.6775 H   0  0  0  0  0  0  0  0  0  0  0  0
  -27.4892   13.0379  -10.8923 H   0  0  0  0  0  0  0  0  0  0  0  0
  -20.2021   17.6577  -14.3081 H   0  0  0  0  0  0  0  0  0  0  0  0
  -21.5711   16.7687  -14.2626 H   0  0  0  0  0  0  0  0  0  0  0  0
  -24.4355   14.4817  -10.2530 H   0  0  0  0  0  0  0  0  0  0  0  0
  -24.0303   14.8373  -13.0235 H   0  0  0  0  0  0  0  0  0  0  0  0
  -22.8668   14.2369  -12.0476 H   0  0  0  0  0  0  0  0  0  0  0  0
  -23.0299   16.0503  -10.7428 H   0  0  0  0  0  0  0  0  0  0  0  0
  -24.1870   16.6511  -11.7260 H   0  0  0  0  0  0  0  0  0  0  0  0
  -22.3307   17.8876  -11.0847 H   0  0  0  0  0  0  0  0  0  0  0  0
  -22.9744   18.0041  -12.5809 H   0  0  0  0  0  0  0  0  0  0  0  0
  -20.5966   18.3668  -12.2222 H   0  0  0  0  0  0  0  0  0  0  0  0
  1  6  1  0  0  0  0
  2 11  1  0  0  0  0
  3 11  2  0  0  0  0
  4 12  1  0  0  0  0
  5 13  1  0  0  0  0
  6 12  2  0  0  0  0
  7  8  1  0  0  0  0
  7 12  1  0  0  0  0
  8  9  1  0  0  0  0
  9 10  1  0  0  0  0
 10 13  1  0  0  0  0
 11 13  1  0  0  0  0
  1 14  1  0  0  0  0
  2 15  1  0  0  0  0
  4 16  1  0  0  0  0
  4 17  1  0  0  0  0
  5 18  1  0  0  0  0
  5 19  1  0  0  0  0
  7 20  1  0  0  0  0
  8 21  1  0  0  0  0
  8 22  1  0  0  0  0
  9 23  1  0  0  0  0
  9 24  1  0  0  0  0
 10 25  1  0  0  0  0
 10 26  1  0  0  0  0
 13 27  1  0  0  0  0
M  END
> <pdb_id>
3LP7

> <uniprot_id>
P05089

> <usmiles>
O=C(O)[C@@H](N)CCCNC(=NO)N

$$$$
HB2_B_901
          07192416553D 1   1.00000     0.00000     0
            
 47 49  0  0  0  0            999 V2000
  -11.2575   22.5676  -35.7490 O   0  0  0  0  0  0  0  0  0  0  0  0
   -6.9651   17.8989  -36.2885 N   0  0  0  0  0  0  0  0  0  0  0  0
   -6.5059   20.2315  -36.0452 N   0  0  0  0  0  0  0  0  0  0  0  0
   -9.4788   18.3886  -34.8874 N   0  0  0  0  0  0  0  0  0  0  0  0
  -10.1247   20.4056  -34.1631 N   0  0  0  0  0  0  0  0  0  0  0  0
  -10.1217   18.5973  -29.9005 C   0  0  0  0  0  0  0  0  0  0  0  0
  -13.0068   21.1655  -35.1936 C   0  0  0  0  0  0  0  0  0  0  0  0
  -12.7009   23.2255  -33.8310 C   0  0  0  0  0  0  0  0  0  0  0  0
  -11.0277   21.3791  -33.5241 C   0  0  0  0  0  0  0  0  0  0  0  0
  -10.1902   18.4781  -31.4246 C   0  0  0  0  0  0  0  0  0  0  0  0
  -11.5764   18.4351  -32.0539 C   0  0  0  0  0  0  0  0  0  0  0  0
   -6.3280   23.7815  -35.4297 C   0  0  0  0  0  0  0  0  0  0  0  0
   -7.5383   24.0155  -34.7639 C   0  0  0  0  0  0  0  0  0  0  0  0
  -11.6324   18.4388  -33.6225 C   0  0  0  0  0  0  0  0  0  0  0  0
   -6.0177   22.5158  -35.8478 C   0  0  0  0  0  0  0  0  0  0  0  0
   -8.4015   22.9747  -34.5230 C   0  0  0  0  0  0  0  0  0  0  0  0
   -7.3027   19.1485  -35.8578 C   0  0  0  0  0  0  0  0  0  0  0  0
  -10.4431   19.0924  -34.2558 C   0  0  0  0  0  0  0  0  0  0  0  0
   -6.8893   21.4700  -35.6157 C   0  0  0  0  0  0  0  0  0  0  0  0
   -8.5193   19.3022  -35.2110 C   0  0  0  0  0  0  0  0  0  0  0  0
   -8.9151   20.5606  -34.7402 C   0  0  0  0  0  0  0  0  0  0  0  0
   -8.0799   21.6815  -34.9316 C   0  0  0  0  0  0  0  0  0  0  0  0
  -11.9768   22.0820  -34.5714 C   0  0  0  0  0  0  0  0  0  0  0  0
  -10.5347   23.1964  -35.4623 H   0  0  0  0  0  0  0  0  0  0  0  0
   -7.5844   17.1303  -36.1278 H   0  0  0  0  0  0  0  0  0  0  0  0
   -6.0984   17.7514  -36.7649 H   0  0  0  0  0  0  0  0  0  0  0  0
   -9.1650   18.6156  -29.6102 H   0  0  0  0  0  0  0  0  0  0  0  0
  -10.5740   19.4410  -29.6115 H   0  0  0  0  0  0  0  0  0  0  0  0
  -10.5815   17.8130  -29.4838 H   0  0  0  0  0  0  0  0  0  0  0  0
  -13.5730   20.7633  -34.4742 H   0  0  0  0  0  0  0  0  0  0  0  0
  -13.5849   21.6895  -35.8190 H   0  0  0  0  0  0  0  0  0  0  0  0
  -12.5433   20.4376  -35.6990 H   0  0  0  0  0  0  0  0  0  0  0  0
  -13.1798   22.8563  -33.0345 H   0  0  0  0  0  0  0  0  0  0  0  0
  -12.0314   23.9054  -33.5318 H   0  0  0  0  0  0  0  0  0  0  0  0
  -13.3609   23.6560  -34.4467 H   0  0  0  0  0  0  0  0  0  0  0  0
  -10.4776   22.0780  -33.0671 H   0  0  0  0  0  0  0  0  0  0  0  0
  -11.5898   20.9025  -32.8481 H   0  0  0  0  0  0  0  0  0  0  0  0
   -9.7156   17.6366  -31.6828 H   0  0  0  0  0  0  0  0  0  0  0  0
   -9.7081   19.2646  -31.8105 H   0  0  0  0  0  0  0  0  0  0  0  0
  -12.0824   19.2345  -31.7297 H   0  0  0  0  0  0  0  0  0  0  0  0
  -12.0292   17.6023  -31.7354 H   0  0  0  0  0  0  0  0  0  0  0  0
   -5.6937   24.5360  -35.5987 H   0  0  0  0  0  0  0  0  0  0  0  0
   -7.7736   24.9400  -34.4641 H   0  0  0  0  0  0  0  0  0  0  0  0
  -12.4549   18.9298  -33.9097 H   0  0  0  0  0  0  0  0  0  0  0  0
  -11.6812   17.4920  -33.9407 H   0  0  0  0  0  0  0  0  0  0  0  0
   -5.1548   22.3473  -36.3242 H   0  0  0  0  0  0  0  0  0  0  0  0
   -9.2665   23.1458  -34.0512 H   0  0  0  0  0  0  0  0  0  0  0  0
  1 23  1  0  0  0  0
  2 17  1  0  0  0  0
  3 17  2  0  0  0  0
  3 19  1  0  0  0  0
  4 18  2  0  0  0  0
  4 20  1  0  0  0  0
  5  9  1  0  0  0  0
  5 18  1  0  0  0  0
  5 21  1  0  0  0  0
  6 10  1  0  0  0  0
  7 23  1  0  0  0  0
  8 23  1  0  0  0  0
  9 23  1  0  0  0  0
 10 11  1  0  0  0  0
 11 14  1  0  0  0  0
 12 13  2  0  0  0  0
 12 15  1  0  0  0  0
 13 16  1  0  0  0  0
 14 18  1  0  0  0  0
 15 19  2  0  0  0  0
 16 22  2  0  0  0  0
 17 20  1  0  0  0  0
 19 22  1  0  0  0  0
 20 21  2  0  0  0  0
 21 22  1  0  0  0  0
  1 24  1  0  0  0  0
  2 25  1  0  0  0  0
  2 26  1  0  0  0  0
  6 27  1  0  0  0  0
  6 28  1  0  0  0  0
  6 29  1  0  0  0  0
  7 30  1  0  0  0  0
  7 31  1  0  0  0  0
  7 32  1  0  0  0  0
  8 33  1  0  0  0  0
  8 34  1  0  0  0  0
  8 35  1  0  0  0  0
  9 36  1  0  0  0  0
  9 37  1  0  0  0  0
 10 38  1  0  0  0  0
 10 39  1  0  0  0  0
 11 40  1  0  0  0  0
 11 41  1  0  0  0  0
 12 42  1  0  0  0  0
 13 43  1  0  0  0  0
 14 44  1  0  0  0  0
 14 45  1  0  0  0  0
 15 46  1  0  0  0  0
 16 47  1  0  0  0  0
M  END
> <pdb_id>
4R6A

> <uniprot_id>
Q9NR97

> <usmiles>
OC(CN1c2c(N=C1CCCC)c(nc3c2cccc3)N)(C)C

$$$$
HB7_A_804
          07212402463D 1   1.00000     0.00000     0
            
 62 64  0  0  0  0            999 V2000
  -44.9920  -11.6870   25.0820 O   0  0  0  0  0  0  0  0  0  0  0  0
  -41.6410   -5.4880   33.0360 O   0  0  0  0  0  0  0  0  0  0  0  0
  -45.0980   -9.1480   24.7310 O   0  0  0  0  0  0  0  0  0  0  0  0
  -38.7500   -7.0960   31.3820 O   0  0  0  0  0  0  0  0  0  0  0  0
  -44.0890  -10.9430   25.7820 N   0  0  0  0  0  0  0  0  0  0  0  0
  -40.3100   -4.1970   31.7000 N   0  0  0  0  0  0  0  0  0  0  0  0
  -34.1280   -7.4270   26.9420 N   0  0  0  0  0  0  0  0  0  0  0  0
  -40.2350   -6.4380   29.7640 N   0  0  0  0  0  0  0  0  0  0  0  0
  -33.2160   -8.5710   27.0330 C   0  0  0  0  0  0  0  0  0  0  0  0
  -33.7510   -6.3980   25.9760 C   0  0  0  0  0  0  0  0  0  0  0  0
  -40.0610   -3.1480   32.7120 C   0  0  0  0  0  0  0  0  0  0  0  0
  -41.2820   -6.3610   30.8050 C   0  0  0  0  0  0  0  0  0  0  0  0
  -40.4980   -6.1430   28.3580 C   0  0  0  0  0  0  0  0  0  0  0  0
  -36.4960   -3.9550   35.0510 C   0  0  0  0  0  0  0  0  0  0  0  0
  -37.1100   -4.9730   34.3340 C   0  0  0  0  0  0  0  0  0  0  0  0
  -37.0460   -2.6790   35.0050 C   0  0  0  0  0  0  0  0  0  0  0  0
  -36.0730   -6.1000   27.7110 C   0  0  0  0  0  0  0  0  0  0  0  0
  -35.7500   -8.3020   28.5800 C   0  0  0  0  0  0  0  0  0  0  0  0
  -38.2540   -4.7150   33.5820 C   0  0  0  0  0  0  0  0  0  0  0  0
  -38.1890   -2.4240   34.2530 C   0  0  0  0  0  0  0  0  0  0  0  0
  -41.2760   -8.3690   27.4960 C   0  0  0  0  0  0  0  0  0  0  0  0
  -42.6190   -6.4720   27.0180 C   0  0  0  0  0  0  0  0  0  0  0  0
  -37.2170   -5.9660   28.4980 C   0  0  0  0  0  0  0  0  0  0  0  0
  -36.8920   -8.1650   29.3590 C   0  0  0  0  0  0  0  0  0  0  0  0
  -42.1650   -9.1860   26.8180 C   0  0  0  0  0  0  0  0  0  0  0  0
  -43.5230   -7.2870   26.3300 C   0  0  0  0  0  0  0  0  0  0  0  0
  -41.1130   -5.3280   31.9440 C   0  0  0  0  0  0  0  0  0  0  0  0
  -44.2520   -9.5400   25.4990 C   0  0  0  0  0  0  0  0  0  0  0  0
  -38.8880   -6.8600   30.2010 C   0  0  0  0  0  0  0  0  0  0  0  0
  -35.3090   -7.2780   27.7360 C   0  0  0  0  0  0  0  0  0  0  0  0
  -38.8150   -3.4290   33.5290 C   0  0  0  0  0  0  0  0  0  0  0  0
  -41.4620   -7.0050   27.6080 C   0  0  0  0  0  0  0  0  0  0  0  0
  -43.2960   -8.6610   26.2250 C   0  0  0  0  0  0  0  0  0  0  0  0
  -37.6610   -7.0120   29.3330 C   0  0  0  0  0  0  0  0  0  0  0  0
  -44.8610  -12.6556   25.2932 H   0  0  0  0  0  0  0  0  0  0  0  0
  -43.4059  -11.3203   26.4073 H   0  0  0  0  0  0  0  0  0  0  0  0
  -39.8878   -4.0986   30.7988 H   0  0  0  0  0  0  0  0  0  0  0  0
  -33.5577   -9.2161   27.7164 H   0  0  0  0  0  0  0  0  0  0  0  0
  -33.1613   -9.0252   26.1438 H   0  0  0  0  0  0  0  0  0  0  0  0
  -32.3069   -8.2520   27.3009 H   0  0  0  0  0  0  0  0  0  0  0  0
  -34.4307   -5.6646   25.9879 H   0  0  0  0  0  0  0  0  0  0  0  0
  -32.8549   -6.0259   26.2180 H   0  0  0  0  0  0  0  0  0  0  0  0
  -33.7093   -6.7991   25.0609 H   0  0  0  0  0  0  0  0  0  0  0  0
  -40.8471   -3.1013   33.3283 H   0  0  0  0  0  0  0  0  0  0  0  0
  -39.9501   -2.2701   32.2461 H   0  0  0  0  0  0  0  0  0  0  0  0
  -41.3420   -7.2637   31.2311 H   0  0  0  0  0  0  0  0  0  0  0  0
  -42.1438   -6.1527   30.3426 H   0  0  0  0  0  0  0  0  0  0  0  0
  -39.6222   -6.1956   27.8781 H   0  0  0  0  0  0  0  0  0  0  0  0
  -40.8462   -5.2066   28.3146 H   0  0  0  0  0  0  0  0  0  0  0  0
  -35.6736   -4.1361   35.5904 H   0  0  0  0  0  0  0  0  0  0  0  0
  -36.7287   -5.8972   34.3575 H   0  0  0  0  0  0  0  0  0  0  0  0
  -36.6156   -1.9362   35.5179 H   0  0  0  0  0  0  0  0  0  0  0  0
  -35.7923   -5.3445   27.1191 H   0  0  0  0  0  0  0  0  0  0  0  0
  -35.2299   -9.1549   28.6239 H   0  0  0  0  0  0  0  0  0  0  0  0
  -38.6835   -5.4593   33.0706 H   0  0  0  0  0  0  0  0  0  0  0  0
  -38.5667   -1.4983   34.2340 H   0  0  0  0  0  0  0  0  0  0  0  0
  -40.4698   -8.7817   27.9200 H   0  0  0  0  0  0  0  0  0  0  0  0
  -42.7999   -5.4912   27.0912 H   0  0  0  0  0  0  0  0  0  0  0  0
  -37.7332   -5.1100   28.4694 H   0  0  0  0  0  0  0  0  0  0  0  0
  -37.1670   -8.9193   29.9552 H   0  0  0  0  0  0  0  0  0  0  0  0
  -41.9857  -10.1679   26.7571 H   0  0  0  0  0  0  0  0  0  0  0  0
  -44.3365   -6.8839   25.9108 H   0  0  0  0  0  0  0  0  0  0  0  0
  1  5  1  0  0  0  0
  2 27  2  0  0  0  0
  3 28  2  0  0  0  0
  4 29  2  0  0  0  0
  5 28  1  0  0  0  0
  6 11  1  0  0  0  0
  6 27  1  0  0  0  0
  7  9  1  0  0  0  0
  7 10  1  0  0  0  0
  7 30  1  0  0  0  0
  8 12  1  0  0  0  0
  8 13  1  0  0  0  0
  8 29  1  0  0  0  0
 11 31  1  0  0  0  0
 12 27  1  0  0  0  0
 13 32  1  0  0  0  0
 14 15  2  0  0  0  0
 14 16  1  0  0  0  0
 15 19  1  0  0  0  0
 16 20  2  0  0  0  0
 17 23  1  0  0  0  0
 17 30  2  0  0  0  0
 18 24  2  0  0  0  0
 18 30  1  0  0  0  0
 19 31  2  0  0  0  0
 20 31  1  0  0  0  0
 21 25  1  0  0  0  0
 21 32  2  0  0  0  0
 22 26  2  0  0  0  0
 22 32  1  0  0  0  0
 23 34  2  0  0  0  0
 24 34  1  0  0  0  0
 25 33  2  0  0  0  0
 26 33  1  0  0  0  0
 28 33  1  0  0  0  0
 29 34  1  0  0  0  0
  1 35  1  0  0  0  0
  5 36  1  0  0  0  0
  6 37  1  0  0  0  0
  9 38  1  0  0  0  0
  9 39  1  0  0  0  0
  9 40  1  0  0  0  0
 10 41  1  0  0  0  0
 10 42  1  0  0  0  0
 10 43  1  0  0  0  0
 11 44  1  0  0  0  0
 11 45  1  0  0  0  0
 12 46  1  0  0  0  0
 12 47  1  0  0  0  0
 13 48  1  0  0  0  0
 13 49  1  0  0  0  0
 14 50  1  0  0  0  0
 15 51  1  0  0  0  0
 16 52  1  0  0  0  0
 17 53  1  0  0  0  0
 18 54  1  0  0  0  0
 19 55  1  0  0  0  0
 20 56  1  0  0  0  0
 21 57  1  0  0  0  0
 22 58  1  0  0  0  0
 23 59  1  0  0  0  0
 24 60  1  0  0  0  0
 25 61  1  0  0  0  0
 26 62  1  0  0  0  0
M  END
> <pdb_id>
6DVN

> <uniprot_id>
A7YT55

> <usmiles>
O=C(N(Cc1ccc(cc1)C(=O)NO)CC(=O)NCc2ccccc2)c3ccc(N(C)C)cc3

$$$$
HBD_H_307
          07202416143D 1   1.00000     0.00000     0
            
 17 17  0  0  0  0            999 V2000
   14.7364  -10.8962   15.8906 O   0  0  0  0  0  0  0  0  0  0  0  0
   17.7932   -9.6853   10.4670 O   0  0  0  0  0  0  0  0  0  0  0  0
   15.6682  -12.9174   15.5426 N   0  0  0  0  0  0  0  0  0  0  0  0
   16.1359   -9.5069   12.1678 C   0  0  0  0  0  0  0  0  0  0  0  0
   17.6910  -11.3395   12.1817 C   0  0  0  0  0  0  0  0  0  0  0  0
   15.5654   -9.9903   13.3318 C   0  0  0  0  0  0  0  0  0  0  0  0
   17.1146  -11.8149   13.3459 C   0  0  0  0  0  0  0  0  0  0  0  0
   15.4328  -11.6563   15.2045 C   0  0  0  0  0  0  0  0  0  0  0  0
   17.2057  -10.1810   11.5948 C   0  0  0  0  0  0  0  0  0  0  0  0
   16.0468  -11.1461   13.9368 C   0  0  0  0  0  0  0  0  0  0  0  0
   18.5641  -10.1680   10.0513 H   0  0  0  0  0  0  0  0  0  0  0  0
   16.2373  -13.4943   14.9566 H   0  0  0  0  0  0  0  0  0  0  0  0
   15.2764  -13.2911   16.3834 H   0  0  0  0  0  0  0  0  0  0  0  0
   15.7793   -8.6757   11.7412 H   0  0  0  0  0  0  0  0  0  0  0  0
   18.4559  -11.8302   11.7646 H   0  0  0  0  0  0  0  0  0  0  0  0
   14.7962   -9.5018   13.7438 H   0  0  0  0  0  0  0  0  0  0  0  0
   17.4694  -12.6492   13.7678 H   0  0  0  0  0  0  0  0  0  0  0  0
  1  8  2  0  0  0  0
  2  9  1  0  0  0  0
  3  8  1  0  0  0  0
  4  6  1  0  0  0  0
  4  9  2  0  0  0  0
  5  7  2  0  0  0  0
  5  9  1  0  0  0  0
  6 10  2  0  0  0  0
  7 10  1  0  0  0  0
  8 10  1  0  0  0  0
  2 11  1  0  0  0  0
  3 12  1  0  0  0  0
  3 13  1  0  0  0  0
  4 14  1  0  0  0  0
  5 15  1  0  0  0  0
  6 16  1  0  0  0  0
  7 17  1  0  0  0  0
M  END
> <pdb_id>
6YN3

> <uniprot_id>
P00734

> <usmiles>
O=C(N)c1ccc(O)cc1

$$$$
HBH_A_201
          07202412063D 1   1.00000     0.00000     0
            
 81 83  0  0  0  0            999 V2000
   18.6906  -18.6898   -6.9506 S   0  0  0  0  0  0  0  0  0  0  0  0
   17.7080  -18.9906   -7.9829 O   0  0  0  0  0  0  0  0  0  0  0  0
   19.5492  -19.8514   -6.7373 O   0  0  0  0  0  0  0  0  0  0  0  0
   12.2672  -24.2996   -1.8916 O   0  0  0  0  0  0  0  0  0  0  0  0
   11.0430  -23.3225   -5.3221 O   0  0  0  0  0  0  0  0  0  0  0  0
   15.9188  -22.7285   -5.2127 O   0  0  0  0  0  0  0  0  0  0  0  0
   14.3219  -18.2156   -4.4632 O   0  0  0  0  0  0  0  0  0  0  0  0
   12.3331  -23.7570   -9.8391 O   0  0  0  0  0  0  0  0  0  0  0  0
   13.0259  -25.9859   -3.1388 N   0  0  0  0  0  0  0  0  0  0  0  0
   13.1486  -24.1416   -5.4112 N   0  0  0  0  0  0  0  0  0  0  0  0
   14.4451  -21.0204   -5.1869 N   0  0  0  0  0  0  0  0  0  0  0  0
   17.8942  -18.3419   -5.5575 N   0  0  0  0  0  0  0  0  0  0  0  0
   19.5545  -20.7679   -1.7264 C   0  0  0  0  0  0  0  0  0  0  0  0
   20.5678  -18.5201   -2.1642 C   0  0  0  0  0  0  0  0  0  0  0  0
   12.2933  -24.8751   -8.9655 C   0  0  0  0  0  0  0  0  0  0  0  0
   18.6376  -18.0402   -4.3270 C   0  0  0  0  0  0  0  0  0  0  0  0
   16.5430  -17.8018   -5.3244 C   0  0  0  0  0  0  0  0  0  0  0  0
   11.0825  -24.8139   -8.0436 C   0  0  0  0  0  0  0  0  0  0  0  0
   21.1133  -15.2079   -8.2666 C   0  0  0  0  0  0  0  0  0  0  0  0
   19.7342  -15.2144   -8.4610 C   0  0  0  0  0  0  0  0  0  0  0  0
   21.7358  -16.2918   -7.6543 C   0  0  0  0  0  0  0  0  0  0  0  0
   11.4160  -25.2989   -6.6688 C   0  0  0  0  0  0  0  0  0  0  0  0
   18.9827  -16.3105   -8.0449 C   0  0  0  0  0  0  0  0  0  0  0  0
   20.9741  -17.3829   -7.2400 C   0  0  0  0  0  0  0  0  0  0  0  0
   18.7767  -19.4023   -3.6606 C   0  0  0  0  0  0  0  0  0  0  0  0
   14.3207  -22.5843   -9.2134 C   0  0  0  0  0  0  0  0  0  0  0  0
   12.1564  -21.7604   -8.5490 C   0  0  0  0  0  0  0  0  0  0  0  0
   14.9217  -21.5254   -8.5540 C   0  0  0  0  0  0  0  0  0  0  0  0
   12.7706  -20.7075   -7.8927 C   0  0  0  0  0  0  0  0  0  0  0  0
   14.1989  -23.9159   -3.2328 C   0  0  0  0  0  0  0  0  0  0  0  0
   14.8108  -19.4867   -7.0641 C   0  0  0  0  0  0  0  0  0  0  0  0
   13.1286  -24.7790   -2.6347 C   0  0  0  0  0  0  0  0  0  0  0  0
   11.8518  -24.1822   -5.7252 C   0  0  0  0  0  0  0  0  0  0  0  0
   19.5943  -17.4005   -7.4320 C   0  0  0  0  0  0  0  0  0  0  0  0
   14.7800  -22.2895   -5.0113 C   0  0  0  0  0  0  0  0  0  0  0  0
   15.5769  -18.8434   -4.7446 C   0  0  2  0  0  0  0  0  0  0  0  0
   12.9391  -22.7006   -9.2020 C   0  0  0  0  0  0  0  0  0  0  0  0
   13.6886  -23.1582   -4.4510 C   0  0  1  0  0  0  0  0  0  0  0  0
   15.3671  -20.0073   -5.7253 C   0  0  1  0  0  0  0  0  0  0  0  0
   19.2988  -19.3525   -2.2269 C   0  0  0  0  0  0  0  0  0  0  0  0
   14.1558  -20.5724   -7.8807 C   0  0  0  0  0  0  0  0  0  0  0  0
   13.6887  -18.8910   -4.0850 H   0  0  0  0  0  0  0  0  0  0  0  0
   13.7443  -26.3406   -3.7372 H   0  0  0  0  0  0  0  0  0  0  0  0
   12.2293  -26.5512   -2.9245 H   0  0  0  0  0  0  0  0  0  0  0  0
   13.7723  -24.7961   -5.8385 H   0  0  0  0  0  0  0  0  0  0  0  0
   13.5185  -20.7358   -4.9411 H   0  0  0  0  0  0  0  0  0  0  0  0
   18.7076  -21.2972   -1.7764 H   0  0  0  0  0  0  0  0  0  0  0  0
   20.2528  -21.2017   -2.2958 H   0  0  0  0  0  0  0  0  0  0  0  0
   19.8711  -20.7341   -0.7785 H   0  0  0  0  0  0  0  0  0  0  0  0
   20.3773  -17.5964   -2.4967 H   0  0  0  0  0  0  0  0  0  0  0  0
   20.8899  -18.4741   -1.2186 H   0  0  0  0  0  0  0  0  0  0  0  0
   21.2716  -18.9416   -2.7360 H   0  0  0  0  0  0  0  0  0  0  0  0
   13.1252  -24.8847   -8.4106 H   0  0  0  0  0  0  0  0  0  0  0  0
   12.2462  -25.7125   -9.5101 H   0  0  0  0  0  0  0  0  0  0  0  0
   18.1265  -17.4072   -3.7455 H   0  0  0  0  0  0  0  0  0  0  0  0
   19.5343  -17.6504   -4.5365 H   0  0  0  0  0  0  0  0  0  0  0  0
   16.1752  -17.4748   -6.1949 H   0  0  0  0  0  0  0  0  0  0  0  0
   16.6109  -17.0374   -4.6831 H   0  0  0  0  0  0  0  0  0  0  0  0
   10.3559  -25.3866   -8.4229 H   0  0  0  0  0  0  0  0  0  0  0  0
   10.7652  -23.8673   -7.9862 H   0  0  0  0  0  0  0  0  0  0  0  0
   21.6566  -14.4240   -8.5671 H   0  0  0  0  0  0  0  0  0  0  0  0
   19.2853  -14.4349   -8.8979 H   0  0  0  0  0  0  0  0  0  0  0  0
   22.7256  -16.2877   -7.5122 H   0  0  0  0  0  0  0  0  0  0  0  0
   12.1594  -25.9641   -6.7384 H   0  0  0  0  0  0  0  0  0  0  0  0
   10.6068  -25.7425   -6.2835 H   0  0  0  0  0  0  0  0  0  0  0  0
   17.9930  -16.3147   -8.1879 H   0  0  0  0  0  0  0  0  0  0  0  0
   21.4226  -18.1611   -6.8003 H   0  0  0  0  0  0  0  0  0  0  0  0
   19.4091  -19.9536   -4.2049 H   0  0  0  0  0  0  0  0  0  0  0  0
   17.8772  -19.8390   -3.6509 H   0  0  0  0  0  0  0  0  0  0  0  0
   14.8790  -23.2603   -9.6944 H   0  0  0  0  0  0  0  0  0  0  0  0
   11.1598  -21.8421   -8.5521 H   0  0  0  0  0  0  0  0  0  0  0  0
   15.9182  -21.4422   -8.5603 H   0  0  0  0  0  0  0  0  0  0  0  0
   12.2079  -20.0307   -7.4179 H   0  0  0  0  0  0  0  0  0  0  0  0
   14.9668  -24.4944   -3.5081 H   0  0  0  0  0  0  0  0  0  0  0  0
   14.5070  -23.2575   -2.5461 H   0  0  0  0  0  0  0  0  0  0  0  0
   15.5640  -19.0972   -7.5942 H   0  0  0  0  0  0  0  0  0  0  0  0
   14.1338  -18.7755   -6.8748 H   0  0  0  0  0  0  0  0  0  0  0  0
   15.9588  -19.2017   -3.8927 H   0  0  0  0  0  0  0  0  0  0  0  0
   12.9387  -22.5654   -4.1574 H   0  0  0  0  0  0  0  0  0  0  0  0
   16.2514  -20.4417   -5.8964 H   0  0  0  0  0  0  0  0  0  0  0  0
   18.6052  -18.9262   -1.6463 H   0  0  0  0  0  0  0  0  0  0  0  0
  1  2  2  0  0  0  0
  1  3  2  0  0  0  0
  1 12  1  0  0  0  0
  1 34  1  0  0  0  0
  4 32  2  0  0  0  0
  5 33  2  0  0  0  0
  6 35  2  0  0  0  0
  7 36  1  0  0  0  0
  8 15  1  0  0  0  0
  8 37  1  0  0  0  0
  9 32  1  0  0  0  0
 10 33  1  0  0  0  0
 10 38  1  0  0  0  0
 11 35  1  0  0  0  0
 11 39  1  0  0  0  0
 12 16  1  0  0  0  0
 12 17  1  0  0  0  0
 13 40  1  0  0  0  0
 14 40  1  0  0  0  0
 15 18  1  0  0  0  0
 16 25  1  0  0  0  0
 17 36  1  0  0  0  0
 18 22  1  0  0  0  0
 19 20  2  0  0  0  0
 19 21  1  0  0  0  0
 20 23  1  0  0  0  0
 21 24  2  0  0  0  0
 22 33  1  0  0  0  0
 23 34  2  0  0  0  0
 24 34  1  0  0  0  0
 25 40  1  0  0  0  0
 26 28  2  0  0  0  0
 26 37  1  0  0  0  0
 27 29  1  0  0  0  0
 27 37  2  0  0  0  0
 28 41  1  0  0  0  0
 29 41  2  0  0  0  0
 30 32  1  0  0  0  0
 30 38  1  0  0  0  0
 31 39  1  0  0  0  0
 31 41  1  0  0  0  0
 35 38  1  0  0  0  0
 36 39  1  0  0  0  0
  7 42  1  0  0  0  0
  9 43  1  0  0  0  0
  9 44  1  0  0  0  0
 10 45  1  0  0  0  0
 11 46  1  0  0  0  0
 13 47  1  0  0  0  0
 13 48  1  0  0  0  0
 13 49  1  0  0  0  0
 14 50  1  0  0  0  0
 14 51  1  0  0  0  0
 14 52  1  0  0  0  0
 15 53  1  0  0  0  0
 15 54  1  0  0  0  0
 16 55  1  0  0  0  0
 16 56  1  0  0  0  0
 17 57  1  0  0  0  0
 17 58  1  0  0  0  0
 18 59  1  0  0  0  0
 18 60  1  0  0  0  0
 19 61  1  0  0  0  0
 20 62  1  0  0  0  0
 21 63  1  0  0  0  0
 22 64  1  0  0  0  0
 22 65  1  0  0  0  0
 23 66  1  0  0  0  0
 24 67  1  0  0  0  0
 25 68  1  0  0  0  0
 25 69  1  0  0  0  0
 26 70  1  0  0  0  0
 27 71  1  0  0  0  0
 28 72  1  0  0  0  0
 29 73  1  0  0  0  0
 30 74  1  0  0  0  0
 30 75  1  0  0  0  0
 31 76  1  0  0  0  0
 31 77  1  0  0  0  0
 36 78  1  0  0  0  0
 38 79  1  0  0  0  0
 39 80  1  0  0  0  0
 40 81  1  0  0  0  0
M  END
> <pdb_id>
1Z1R

> <uniprot_id>
P03369

> <usmiles>
S(=O)(=O)(N(C[C@@H](O)[C@H]1NC(=O)[C@@H](NC(=O)CCCOc2ccc(cc2)C1)CC(=O)N)CCC(C)C)c3ccccc3

$$$$
HBT_B_530
          07202412153D 1   1.00000     0.00000     0
            
 42 44  0  0  0  0            999 V2000
   46.1819   46.6342   65.3680 S   0  0  0  0  0  0  0  0  0  0  0  0
   51.0308   43.6408   62.0956 O   0  5  0  0  0  0  0  0  0  0  0  0
   49.0300   43.6460   62.8592 O   0  0  0  0  0  0  0  0  0  0  0  0
   43.9863   46.2453   61.4383 O   0  0  0  0  0  0  0  0  0  0  0  0
   48.4088   45.9852   63.7556 O   0  0  0  0  0  0  0  0  0  0  0  0
   42.3612   45.2408   62.5342 N   0  0  0  0  0  0  0  0  0  0  0  0
   46.4392   46.1436   62.6941 N   0  0  0  0  0  0  0  0  0  0  0  0
   49.8947   44.0502   62.1331 N   0  3  0  0  0  0  0  0  0  0  0  0
   42.6890   47.2604   69.2185 C   0  0  0  0  0  0  0  0  0  0  0  0
   49.9557   45.8754   58.9511 C   0  0  0  0  0  0  0  0  0  0  0  0
   48.9439   46.8142   59.1631 C   0  0  0  0  0  0  0  0  0  0  0  0
   50.2632   44.9807   59.9443 C   0  0  0  0  0  0  0  0  0  0  0  0
   48.2251   46.8467   60.3731 C   0  0  0  0  0  0  0  0  0  0  0  0
   41.8874   46.9700   66.8195 C   0  0  0  0  0  0  0  0  0  0  0  0
   42.1608   46.4555   65.3965 C   0  0  0  0  0  0  0  0  0  0  0  0
   44.3784   47.0157   67.4083 C   0  0  0  0  0  0  0  0  0  0  0  0
   45.6090   46.3012   63.8021 C   0  0  0  0  0  0  0  0  0  0  0  0
   43.5211   45.9116   62.5166 C   0  0  0  0  0  0  0  0  0  0  0  0
   47.7867   46.0038   62.7002 C   0  0  0  0  0  0  0  0  0  0  0  0
   44.6017   46.7037   65.9431 C   0  0  0  0  0  0  0  0  0  0  0  0
   49.5442   45.0551   61.1371 C   0  0  0  0  0  0  0  0  0  0  0  0
   42.9554   46.6036   67.8616 C   0  0  1  0  0  0  0  0  0  0  0  0
   48.5101   45.9335   61.3889 C   0  0  0  0  0  0  0  0  0  0  0  0
   43.6453   46.4627   65.0179 C   0  0  0  0  0  0  0  0  0  0  0  0
   44.1999   46.2090   63.7325 C   0  0  0  0  0  0  0  0  0  0  0  0
   41.9609   44.9571   63.4056 H   0  0  0  0  0  0  0  0  0  0  0  0
   41.8960   45.0239   61.6760 H   0  0  0  0  0  0  0  0  0  0  0  0
   45.9929   46.1325   61.7993 H   0  0  0  0  0  0  0  0  0  0  0  0
   43.4057   46.9955   69.8636 H   0  0  0  0  0  0  0  0  0  0  0  0
   42.6866   48.2548   69.1128 H   0  0  0  0  0  0  0  0  0  0  0  0
   41.8006   46.9600   69.5656 H   0  0  0  0  0  0  0  0  0  0  0  0
   50.4516   45.8556   58.0829 H   0  0  0  0  0  0  0  0  0  0  0  0
   48.7263   47.4740   58.4439 H   0  0  0  0  0  0  0  0  0  0  0  0
   50.9808   44.2961   59.8170 H   0  0  0  0  0  0  0  0  0  0  0  0
   47.5057   47.5286   60.5055 H   0  0  0  0  0  0  0  0  0  0  0  0
   41.0141   46.5897   67.1240 H   0  0  0  0  0  0  0  0  0  0  0  0
   41.8214   47.9671   66.7810 H   0  0  0  0  0  0  0  0  0  0  0  0
   41.6664   47.0362   64.7497 H   0  0  0  0  0  0  0  0  0  0  0  0
   41.8215   45.5172   65.3288 H   0  0  0  0  0  0  0  0  0  0  0  0
   44.4947   47.9982   67.5535 H   0  0  0  0  0  0  0  0  0  0  0  0
   45.0514   46.5162   67.9539 H   0  0  0  0  0  0  0  0  0  0  0  0
   42.9424   45.6116   67.9868 H   0  0  0  0  0  0  0  0  0  0  0  0
  1 17  1  0  0  0  0
  1 20  1  0  0  0  0
  2  8  1  0  0  0  0
  3  8  2  0  0  0  0
  4 18  2  0  0  0  0
  5 19  2  0  0  0  0
  6 18  1  0  0  0  0
  7 17  1  0  0  0  0
  7 19  1  0  0  0  0
  8 21  1  0  0  0  0
  9 22  1  0  0  0  0
 10 11  2  0  0  0  0
 10 12  1  0  0  0  0
 11 13  1  0  0  0  0
 12 21  2  0  0  0  0
 13 23  2  0  0  0  0
 14 15  1  0  0  0  0
 14 22  1  0  0  0  0
 15 24  1  0  0  0  0
 16 20  1  0  0  0  0
 16 22  1  0  0  0  0
 17 25  2  0  0  0  0
 18 25  1  0  0  0  0
 19 23  1  0  0  0  0
 20 24  2  0  0  0  0
 21 23  1  0  0  0  0
 24 25  1  0  0  0  0
  6 26  1  0  0  0  0
  6 27  1  0  0  0  0
  7 28  1  0  0  0  0
  9 29  1  0  0  0  0
  9 30  1  0  0  0  0
  9 31  1  0  0  0  0
 10 32  1  0  0  0  0
 11 33  1  0  0  0  0
 12 34  1  0  0  0  0
 13 35  1  0  0  0  0
 14 36  1  0  0  0  0
 14 37  1  0  0  0  0
 15 38  1  0  0  0  0
 15 39  1  0  0  0  0
 16 40  1  0  0  0  0
 16 41  1  0  0  0  0
 22 42  1  0  0  0  0
M  CHG  2   2  -1   8   1
M  END
> <pdb_id>
3HMV

> <uniprot_id>
Q07343

> <usmiles>
S1C(NC(=O)c2c([N+]([O-])=O)cccc2)=C(C(=O)N)C3=C1C[C@H](CC3)C

$$$$
HBU_B_1011
          07192419003D 1   1.00000     0.00000     0
            
 20 19  0  0  0  0            999 V2000
   58.7040   30.6968   47.9678 P   0  0  0  0  0  0  0  0  0  0  0  0
   59.5800   30.2552   49.0726 O   0  0  0  0  0  0  0  0  0  0  0  0
   59.2671   30.4968   46.6134 O   0  0  0  0  0  0  0  0  0  0  0  0
   61.5144   32.9771   45.4037 O   0  0  0  0  0  0  0  0  0  0  0  0
   59.9595   32.7153   44.0262 O   0  0  0  0  0  0  0  0  0  0  0  0
   60.5034   33.3895   48.1762 O   0  0  0  0  0  0  0  0  0  0  0  0
   57.2306   30.0347   48.0475 C   0  0  0  0  0  0  0  0  0  0  0  0
   58.3573   32.5076   48.1697 C   0  0  0  0  0  0  0  0  0  0  0  0
   59.3798   33.7794   46.0889 C   0  0  0  0  0  0  0  0  0  0  0  0
   60.3276   33.0915   45.1164 C   0  0  0  0  0  0  0  0  0  0  0  0
   59.5125   33.2652   47.5153 C   0  0  0  0  0  0  0  0  0  0  0  0
   59.1254   30.4255   49.9469 H   0  0  0  0  0  0  0  0  0  0  0  0
   61.8439   33.2802   46.2978 H   0  0  0  0  0  0  0  0  0  0  0  0
   56.6763   30.3620   47.2822 H   0  0  0  0  0  0  0  0  0  0  0  0
   57.3096   29.0390   47.9999 H   0  0  0  0  0  0  0  0  0  0  0  0
   56.7950   30.2938   48.9095 H   0  0  0  0  0  0  0  0  0  0  0  0
   58.3021   32.7396   49.1409 H   0  0  0  0  0  0  0  0  0  0  0  0
   57.4953   32.7435   47.7212 H   0  0  0  0  0  0  0  0  0  0  0  0
   58.4409   33.6256   45.7811 H   0  0  0  0  0  0  0  0  0  0  0  0
   59.5756   34.7601   46.0845 H   0  0  0  0  0  0  0  0  0  0  0  0
  1  2  1  0  0  0  0
  1  3  2  0  0  0  0
  1  7  1  0  0  0  0
  1  8  1  0  0  0  0
  4 10  1  0  0  0  0
  5 10  2  0  0  0  0
  6 11  2  0  0  0  0
  8 11  1  0  0  0  0
  9 10  1  0  0  0  0
  9 11  1  0  0  0  0
  2 12  1  0  0  0  0
  4 13  1  0  0  0  0
  7 14  1  0  0  0  0
  7 15  1  0  0  0  0
  7 16  1  0  0  0  0
  8 17  1  0  0  0  0
  8 18  1  0  0  0  0
  9 19  1  0  0  0  0
  9 20  1  0  0  0  0
M  END
> <pdb_id>
1HYO

> <uniprot_id>
P35505

> <usmiles>
P(=O)(O)(CC(=O)CC(=O)O)C

$$$$
HCE_B_301
          07202415043D 1   1.00000     0.00000     0
            
 50 52  0  0  0  0            999 V2000
  -24.5130   12.4630    4.5300 S   0  0  0  0  0  0  0  0  0  0  0  0
  -27.5480   17.1750    6.3610 O   0  0  0  0  0  0  0  0  0  0  0  0
  -28.1910   15.3410    7.4120 O   0  0  0  0  0  0  0  0  0  0  0  0
  -25.6800    8.2420    4.4720 O   0  0  0  0  0  0  0  0  0  0  0  0
  -19.8410   11.8210   -1.6380 N   0  0  0  0  0  0  0  0  0  0  0  0
  -27.5010   15.9460    3.9680 N   0  0  0  0  0  0  0  0  0  0  0  0
  -19.4560   10.6220    0.2610 N   0  0  0  0  0  0  0  0  0  0  0  0
  -21.1400    9.1350    1.0760 N   0  0  0  0  0  0  0  0  0  0  0  0
  -22.5740   10.5050   -1.7460 N   0  0  0  0  0  0  0  0  0  0  0  0
  -24.7030    8.4530    1.7630 N   0  0  0  0  0  0  0  0  0  0  0  0
  -26.1400   13.3140    4.4010 C   0  0  0  0  0  0  0  0  0  0  0  0
  -24.5750   11.6190    2.9830 C   0  0  0  0  0  0  0  0  0  0  0  0
  -19.8960    9.6740    1.2050 C   0  0  0  0  0  0  0  0  0  0  0  0
  -23.5910    9.6900   -1.3710 C   0  0  0  0  0  0  0  0  0  0  0  0
  -23.7820    8.5110    2.9460 C   0  0  0  0  0  0  0  0  0  0  0  0
  -25.4080    9.7610    1.6700 C   0  0  0  0  0  0  0  0  0  0  0  0
  -23.9980    8.0050    0.5610 C   0  0  0  0  0  0  0  0  0  0  0  0
  -26.1940   14.4360    5.3980 C   0  0  0  0  0  0  0  0  0  0  0  0
  -27.8120   15.9550    6.4120 C   0  0  0  0  0  0  0  0  0  0  0  0
  -20.2870   10.9400   -0.7540 C   0  0  0  0  0  0  0  0  0  0  0  0
  -24.6790    9.1950    3.9450 C   0  0  1  0  0  0  0  0  0  0  0  0
  -27.5310   15.1110    5.1750 C   0  0  1  0  0  0  0  0  0  0  0  0
  -21.5290   10.3900   -0.8780 C   0  0  0  0  0  0  0  0  0  0  0  0
  -21.9280    9.4440    0.0290 C   0  0  0  0  0  0  0  0  0  0  0  0
  -25.3240   10.2820    3.0870 C   0  0  1  0  0  0  0  0  0  0  0  0
  -23.1990    9.0640   -0.2670 C   0  0  0  0  0  0  0  0  0  0  0  0
  -27.2461   17.5857    5.5007 H   0  0  0  0  0  0  0  0  0  0  0  0
  -26.2682    8.7080    5.1330 H   0  0  0  0  0  0  0  0  0  0  0  0
  -20.4174   12.0911   -2.4093 H   0  0  0  0  0  0  0  0  0  0  0  0
  -18.9281   12.2157   -1.5337 H   0  0  0  0  0  0  0  0  0  0  0  0
  -28.3926   16.3808    3.8412 H   0  0  0  0  0  0  0  0  0  0  0  0
  -26.7979   16.6501    4.0672 H   0  0  0  0  0  0  0  0  0  0  0  0
  -22.5885   11.1052   -2.5457 H   0  0  0  0  0  0  0  0  0  0  0  0
  -26.8740   12.6621    4.5917 H   0  0  0  0  0  0  0  0  0  0  0  0
  -26.2523   13.6818    3.4779 H   0  0  0  0  0  0  0  0  0  0  0  0
  -23.6405   11.4424    2.6738 H   0  0  0  0  0  0  0  0  0  0  0  0
  -25.0424   12.2000    2.3167 H   0  0  0  0  0  0  0  0  0  0  0  0
  -19.3019    9.3998    1.9612 H   0  0  0  0  0  0  0  0  0  0  0  0
  -24.4690    9.5810   -1.8370 H   0  0  0  0  0  0  0  0  0  0  0  0
  -22.9630    9.0511    2.7522 H   0  0  0  0  0  0  0  0  0  0  0  0
  -23.5141    7.5976    3.2526 H   0  0  0  0  0  0  0  0  0  0  0  0
  -26.3590    9.6392    1.3859 H   0  0  0  0  0  0  0  0  0  0  0  0
  -24.9455   10.3758    1.0312 H   0  0  0  0  0  0  0  0  0  0  0  0
  -24.6803    7.6043   -0.0505 H   0  0  0  0  0  0  0  0  0  0  0  0
  -23.3487    7.2992    0.8442 H   0  0  0  0  0  0  0  0  0  0  0  0
  -25.4462   15.0807    5.2395 H   0  0  0  0  0  0  0  0  0  0  0  0
  -26.1340   14.0786    6.3300 H   0  0  0  0  0  0  0  0  0  0  0  0
  -24.1440    9.5975    4.6878 H   0  0  0  0  0  0  0  0  0  0  0  0
  -28.2425   14.4148    5.0795 H   0  0  0  0  0  0  0  0  0  0  0  0
  -26.2495   10.4544    3.4242 H   0  0  0  0  0  0  0  0  0  0  0  0
  1 11  1  0  0  0  0
  1 12  1  0  0  0  0
  2 19  1  0  0  0  0
  3 19  2  0  0  0  0
  4 21  1  0  0  0  0
  5 20  1  0  0  0  0
  6 22  1  0  0  0  0
  7 13  1  0  0  0  0
  7 20  2  0  0  0  0
  8 13  2  0  0  0  0
  8 24  1  0  0  0  0
  9 14  1  0  0  0  0
  9 23  1  0  0  0  0
 10 15  1  0  0  0  0
 10 16  1  0  0  0  0
 10 17  1  0  0  0  0
 11 18  1  0  0  0  0
 12 25  1  0  0  0  0
 14 26  2  0  0  0  0
 15 21  1  0  0  0  0
 16 25  1  0  0  0  0
 17 26  1  0  0  0  0
 18 22  1  0  0  0  0
 19 22  1  0  0  0  0
 20 23  1  0  0  0  0
 21 25  1  0  0  0  0
 23 24  2  0  0  0  0
 24 26  1  0  0  0  0
  2 27  1  0  0  0  0
  4 28  1  0  0  0  0
  5 29  1  0  0  0  0
  5 30  1  0  0  0  0
  6 31  1  0  0  0  0
  6 32  1  0  0  0  0
  9 33  1  0  0  0  0
 11 34  1  0  0  0  0
 11 35  1  0  0  0  0
 12 36  1  0  0  0  0
 12 37  1  0  0  0  0
 13 38  1  0  0  0  0
 14 39  1  0  0  0  0
 15 40  1  0  0  0  0
 15 41  1  0  0  0  0
 16 42  1  0  0  0  0
 16 43  1  0  0  0  0
 17 44  1  0  0  0  0
 17 45  1  0  0  0  0
 18 46  1  0  0  0  0
 18 47  1  0  0  0  0
 21 48  1  0  0  0  0
 22 49  1  0  0  0  0
 25 50  1  0  0  0  0
M  END
> <pdb_id>
4F3K

> <uniprot_id>
E8NLP5

> <usmiles>
S(C[C@@H]1[C@@H](O)CN(CC=2c3ncnc(N)c3NC2)C1)CC[C@H](N)C(=O)O

$$$$
HCI_A_501
          07202416113D 1   1.00000     0.00000     0
            
 21 21  0  0  0  0            999 V2000
  133.4175   24.1039   92.3672 O   0  0  0  0  0  0  0  0  0  0  0  0
  133.7856   22.0747   93.0691 O   0  0  0  0  0  0  0  0  0  0  0  0
  134.3038   21.6054   85.8108 C   0  0  0  0  0  0  0  0  0  0  0  0
  135.2681   21.5993   86.8120 C   0  0  0  0  0  0  0  0  0  0  0  0
  133.0595   22.1706   86.0537 C   0  0  0  0  0  0  0  0  0  0  0  0
  135.0014   22.1530   88.0561 C   0  0  0  0  0  0  0  0  0  0  0  0
  132.7977   22.7534   87.2910 C   0  0  0  0  0  0  0  0  0  0  0  0
  134.2653   22.5444   90.7318 C   0  0  0  0  0  0  0  0  0  0  0  0
  133.5054   23.3296   89.6726 C   0  0  0  0  0  0  0  0  0  0  0  0
  133.7996   22.9238   92.1418 C   0  0  0  0  0  0  0  0  0  0  0  0
  133.7659   22.7258   88.2947 C   0  0  0  0  0  0  0  0  0  0  0  0
  133.4273   24.7816   91.6320 H   0  0  0  0  0  0  0  0  0  0  0  0
  134.5060   21.2035   84.9178 H   0  0  0  0  0  0  0  0  0  0  0  0
  136.1636   21.1915   86.6338 H   0  0  0  0  0  0  0  0  0  0  0  0
  132.3550   22.1594   85.3441 H   0  0  0  0  0  0  0  0  0  0  0  0
  135.6971   22.1378   88.7742 H   0  0  0  0  0  0  0  0  0  0  0  0
  131.9150   23.1919   87.4601 H   0  0  0  0  0  0  0  0  0  0  0  0
  135.2419   22.7419   90.6464 H   0  0  0  0  0  0  0  0  0  0  0  0
  134.1090   21.5672   90.5883 H   0  0  0  0  0  0  0  0  0  0  0  0
  133.8120   24.2814   89.6813 H   0  0  0  0  0  0  0  0  0  0  0  0
  132.5260   23.2931   89.8712 H   0  0  0  0  0  0  0  0  0  0  0  0
  1 10  1  0  0  0  0
  2 10  2  0  0  0  0
  3  4  2  0  0  0  0
  3  5  1  0  0  0  0
  4  6  1  0  0  0  0
  5  7  2  0  0  0  0
  6 11  2  0  0  0  0
  7 11  1  0  0  0  0
  8  9  1  0  0  0  0
  8 10  1  0  0  0  0
  9 11  1  0  0  0  0
  1 12  1  0  0  0  0
  3 13  1  0  0  0  0
  4 14  1  0  0  0  0
  5 15  1  0  0  0  0
  6 16  1  0  0  0  0
  7 17  1  0  0  0  0
  8 18  1  0  0  0  0
  8 19  1  0  0  0  0
  9 20  1  0  0  0  0
  9 21  1  0  0  0  0
M  END
> <pdb_id>
6ZGS

> <uniprot_id>
A0LNN5

> <usmiles>
O=C(O)CCc1ccccc1

$$$$
HCQ_A_305
          07212402403D 1   1.00000     0.00000     0
            
 26 27  0  0  0  0            999 V2000
   49.9942   11.3444   47.1774 S   0  0  0  0  0  0  0  0  0  0  0  0
   48.7715    9.3831   44.3480 O   0  0  0  0  0  0  0  0  0  0  0  0
   48.3439    8.8889   46.6701 O   0  0  0  0  0  0  0  0  0  0  0  0
   49.9811    7.6534   45.4255 O   0  0  0  0  0  0  0  0  0  0  0  0
   56.2387   14.2660   47.3835 N   0  0  0  0  0  0  0  0  0  0  0  0
   55.5333   13.7096   46.2684 C   0  0  0  0  0  0  0  0  0  0  0  0
   51.8294   13.4207   47.6510 C   0  0  0  0  0  0  0  0  0  0  0  0
   53.1571   13.9482   47.4379 C   0  0  0  0  0  0  0  0  0  0  0  0
   51.9468   10.1389   45.6967 C   0  0  0  0  0  0  0  0  0  0  0  0
   53.7638   11.9756   45.9661 C   0  0  0  0  0  0  0  0  0  0  0  0
   51.4166   12.1336   47.0281 C   0  0  0  0  0  0  0  0  0  0  0  0
   50.5105   10.1047   46.1846 C   0  0  0  0  0  0  0  0  0  0  0  0
   54.1167   13.2407   46.5842 C   0  0  0  0  0  0  0  0  0  0  0  0
   52.4085   11.4858   46.2171 C   0  0  0  0  0  0  0  0  0  0  0  0
   49.4573    9.0083   45.6887 B   0  5  0  0  0  0  0  0  0  0  0  0
   49.4654    9.4809   43.6346 H   0  0  0  0  0  0  0  0  0  0  0  0
   48.7145    8.6467   47.5668 H   0  0  0  0  0  0  0  0  0  0  0  0
   50.4498    7.3131   46.2406 H   0  0  0  0  0  0  0  0  0  0  0  0
   57.1534   14.5467   47.0929 H   0  0  0  0  0  0  0  0  0  0  0  0
   55.7405   15.0608   47.7301 H   0  0  0  0  0  0  0  0  0  0  0  0
   56.0534   12.9253   45.9300 H   0  0  0  0  0  0  0  0  0  0  0  0
   55.4792   14.4070   45.5538 H   0  0  0  0  0  0  0  0  0  0  0  0
   51.1818   13.9248   48.2223 H   0  0  0  0  0  0  0  0  0  0  0  0
   53.4249   14.8056   47.8775 H   0  0  0  0  0  0  0  0  0  0  0  0
   52.4538    9.4552   45.1717 H   0  0  0  0  0  0  0  0  0  0  0  0
   54.4118   11.4667   45.3995 H   0  0  0  0  0  0  0  0  0  0  0  0
  1 11  1  0  0  0  0
  1 12  1  0  0  0  0
  2 15  1  0  0  0  0
  3 15  1  0  0  0  0
  4 15  1  0  0  0  0
  5  6  1  0  0  0  0
  6 13  1  0  0  0  0
  7  8  2  0  0  0  0
  7 11  1  0  0  0  0
  8 13  1  0  0  0  0
  9 12  2  0  0  0  0
  9 14  1  0  0  0  0
 10 13  2  0  0  0  0
 10 14  1  0  0  0  0
 11 14  2  0  0  0  0
 12 15  1  0  0  0  0
  2 16  1  0  0  0  0
  3 17  1  0  0  0  0
  4 18  1  0  0  0  0
  5 19  1  0  0  0  0
  5 20  1  0  0  0  0
  6 21  1  0  0  0  0
  6 22  1  0  0  0  0
  7 23  1  0  0  0  0
  8 24  1  0  0  0  0
  9 25  1  0  0  0  0
 10 26  1  0  0  0  0
M  CHG  1  15  -1
M  END
> <pdb_id>
6Q2Y

> <uniprot_id>
C7C422

> <usmiles>
S1c2c(cc(cc2)CN)C=C1[B-](O)(O)O

$$$$
HD2_A_1554
          07202405383D 1   1.00000     0.00000     0
            
 65 70  0  0  0  0            999 V2000
   -4.6815    4.8418   31.2594 O   0  0  0  0  0  0  0  0  0  0  0  0
   -3.1816   -0.9951   34.0815 O   0  0  0  0  0  0  0  0  0  0  0  0
   -1.5687   12.5114   28.9428 O   0  0  0  0  0  0  0  0  0  0  0  0
   -1.5126    7.9732   32.3565 N   0  0  0  0  0  0  0  0  0  0  0  0
   -2.7679    8.5602   30.4288 N   0  0  0  0  0  0  0  0  0  0  0  0
   -1.4275   10.1551   31.5565 N   0  0  0  0  0  0  0  0  0  0  0  0
   -2.5636    4.0067   31.6386 N   0  0  0  0  0  0  0  0  0  0  0  0
   -2.0261    6.7455   32.2729 C   0  0  0  0  0  0  0  0  0  0  0  0
   -1.7423   13.3810   30.0542 C   0  0  0  0  0  0  0  0  0  0  0  0
   -1.9550   11.2066   29.3589 C   0  0  0  0  0  0  0  0  0  0  0  0
   -5.5937    8.1934   27.6503 C   0  0  0  0  0  0  0  0  0  0  0  0
   -4.3112    7.9104   26.9190 C   0  0  0  0  0  0  0  0  0  0  0  0
   -1.5602   12.5462   31.2874 C   0  0  0  0  0  0  0  0  0  0  0  0
   -5.3248    8.0044   29.1231 C   0  0  0  0  0  0  0  0  0  0  0  0
   -3.3722    7.2303   27.8930 C   0  0  0  0  0  0  0  0  0  0  0  0
   -3.1392    3.1758   34.5207 C   0  0  0  0  0  0  0  0  0  0  0  0
   -0.9106    2.4771   33.5890 C   0  0  0  0  0  0  0  0  0  0  0  0
   -2.1513    0.9660   35.0807 C   0  0  0  0  0  0  0  0  0  0  0  0
   -4.1644    1.1378   33.5992 C   0  0  0  0  0  0  0  0  0  0  0  0
   -1.9824    0.4807   32.6725 C   0  0  0  0  0  0  0  0  0  0  0  0
   -3.4709    4.9950   31.3625 C   0  0  0  0  0  0  0  0  0  0  0  0
   -1.9330    8.8559   31.4361 C   0  0  0  0  0  0  0  0  0  0  0  0
   -3.2562    7.3152   30.3496 C   0  0  0  0  0  0  0  0  0  0  0  0
   -2.9133    6.3575   31.2936 C   0  0  0  0  0  0  0  0  0  0  0  0
   -2.1255   11.2201   30.8588 C   0  0  2  0  0  0  0  0  0  0  0  0
   -1.8355    2.4223   34.7931 C   0  0  3  0  0  0  0  0  0  0  0  0
   -4.1506    7.0525   29.1768 C   0  0  0  0  0  0  0  0  0  0  0  0
   -3.8325    2.5965   33.3053 C   0  0  2  0  0  0  0  0  0  0  0  0
   -1.6242    1.9123   32.3729 C   0  0  1  0  0  0  0  0  0  0  0  0
   -2.9176    2.6722   32.0741 C   0  0  3  0  0  0  0  0  0  0  0  0
   -2.8820    0.3765   33.8799 C   0  0  3  0  0  0  0  0  0  0  0  0
   -3.4408   -1.1136   35.0115 H   0  0  0  0  0  0  0  0  0  0  0  0
   -0.4325   10.2411   31.7268 H   0  0  0  0  0  0  0  0  0  0  0  0
   -1.5903    4.1981   31.4425 H   0  0  0  0  0  0  0  0  0  0  0  0
   -1.7476    6.0673   33.0707 H   0  0  0  0  0  0  0  0  0  0  0  0
   -2.7501   13.7992   30.0226 H   0  0  0  0  0  0  0  0  0  0  0  0
   -1.0149   14.1922   30.0039 H   0  0  0  0  0  0  0  0  0  0  0  0
   -1.1941   10.4887   29.0491 H   0  0  0  0  0  0  0  0  0  0  0  0
   -2.8975   10.9551   28.8650 H   0  0  0  0  0  0  0  0  0  0  0  0
   -6.3692    7.4957   27.3228 H   0  0  0  0  0  0  0  0  0  0  0  0
   -5.9305    9.2124   27.4490 H   0  0  0  0  0  0  0  0  0  0  0  0
   -4.5074    7.2589   26.0630 H   0  0  0  0  0  0  0  0  0  0  0  0
   -3.8716    8.8436   26.5564 H   0  0  0  0  0  0  0  0  0  0  0  0
   -2.1212   12.9579   32.1312 H   0  0  0  0  0  0  0  0  0  0  0  0
   -0.5038   12.4756   31.5587 H   0  0  0  0  0  0  0  0  0  0  0  0
   -6.1928    7.5560   29.6072 H   0  0  0  0  0  0  0  0  0  0  0  0
   -5.1180    8.9652   29.5972 H   0  0  0  0  0  0  0  0  0  0  0  0
   -2.4598    7.8163   28.0174 H   0  0  0  0  0  0  0  0  0  0  0  0
   -3.0926    6.2462   27.5174 H   0  0  0  0  0  0  0  0  0  0  0  0
   -2.9376    4.2382   34.3617 H   0  0  0  0  0  0  0  0  0  0  0  0
   -3.8021    3.0807   35.3828 H   0  0  0  0  0  0  0  0  0  0  0  0
   -0.0184    1.8823   33.7819 H   0  0  0  0  0  0  0  0  0  0  0  0
   -0.5936    3.5058   33.4099 H   0  0  0  0  0  0  0  0  0  0  0  0
   -2.7760    0.8991   35.9760 H   0  0  0  0  0  0  0  0  0  0  0  0
   -1.2283    0.4136   35.2673 H   0  0  0  0  0  0  0  0  0  0  0  0
   -4.8312    1.0717   34.4623 H   0  0  0  0  0  0  0  0  0  0  0  0
   -4.6826    0.6954   32.7438 H   0  0  0  0  0  0  0  0  0  0  0  0
   -2.5190    0.1026   31.8199 H   0  0  0  0  0  0  0  0  0  0  0  0
   -1.0807   -0.1212   32.8103 H   0  0  0  0  0  0  0  0  0  0  0  0
   -3.1896   11.1784   31.1077 H   0  0  0  0  0  0  0  0  0  0  0  0
   -1.3339    2.8588   35.6577 H   0  0  0  0  0  0  0  0  0  0  0  0
   -4.5369    6.0354   29.1844 H   0  0  0  0  0  0  0  0  0  0  0  0
   -4.7633    3.1381   33.1324 H   0  0  0  0  0  0  0  0  0  0  0  0
   -0.9580    1.9480   31.5141 H   0  0  0  0  0  0  0  0  0  0  0  0
   -3.4253    2.2000   31.2270 H   0  0  0  0  0  0  0  0  0  0  0  0
  1 21  2  0  0  0  0
  2 31  1  0  0  0  0
  2 32  1  0  0  0  0
  3  9  1  0  0  0  0
  3 10  1  0  0  0  0
  4  8  2  0  0  0  0
  4 22  1  0  0  0  0
  5 22  2  0  0  0  0
  5 23  1  0  0  0  0
  6 22  1  0  0  0  0
  6 25  1  0  0  0  0
  6 33  1  0  0  0  0
  7 21  1  0  0  0  0
  7 30  1  0  0  0  0
  7 34  1  0  0  0  0
  8 24  1  0  0  0  0
  8 35  1  0  0  0  0
  9 13  1  0  0  0  0
  9 36  1  0  0  0  0
  9 37  1  0  0  0  0
 10 25  1  0  0  0  0
 10 38  1  0  0  0  0
 10 39  1  0  0  0  0
 11 12  1  0  0  0  0
 11 14  1  0  0  0  0
 11 40  1  0  0  0  0
 11 41  1  0  0  0  0
 12 15  1  0  0  0  0
 12 42  1  0  0  0  0
 12 43  1  0  0  0  0
 13 25  1  0  0  0  0
 13 44  1  0  0  0  0
 13 45  1  0  0  0  0
 14 27  1  0  0  0  0
 14 46  1  0  0  0  0
 14 47  1  0  0  0  0
 15 27  1  0  0  0  0
 15 48  1  0  0  0  0
 15 49  1  0  0  0  0
 16 26  1  0  0  0  0
 16 28  1  0  0  0  0
 16 50  1  0  0  0  0
 16 51  1  0  0  0  0
 17 26  1  0  0  0  0
 17 29  1  0  0  0  0
 17 52  1  0  0  0  0
 17 53  1  0  0  0  0
 18 26  1  0  0  0  0
 18 31  1  0  0  0  0
 18 54  1  0  0  0  0
 18 55  1  0  0  0  0
 19 28  1  0  0  0  0
 19 31  1  0  0  0  0
 19 56  1  0  0  0  0
 19 57  1  0  0  0  0
 20 29  1  0  0  0  0
 20 31  1  0  0  0  0
 20 58  1  0  0  0  0
 20 59  1  0  0  0  0
 21 24  1  0  0  0  0
 23 24  2  0  0  0  0
 23 27  1  0  0  0  0
 25 60  1  0  0  0  0
 26 61  1  0  0  0  0
 27 62  1  0  0  0  0
 28 30  1  0  0  0  0
 28 63  1  0  0  0  0
 29 30  1  0  0  0  0
 29 64  1  0  0  0  0
 30 65  1  0  0  0  0
M  END
> <pdb_id>
5ALU

> <uniprot_id>
P34913

> <usmiles>
O=C(NC1[C@H]2CC3(O)C[C@@H]1CC(C3)C2)c4c(nc(nc4)N[C@@H]5COCC5)C6CCCC6

$$$$
HDI_A_115
          07202405323D 1   1.00000     0.00000     0
            
 30 31  0  0  0  0            999 V2000
  -13.3237   -0.6355   -5.2619 O   0  0  0  0  0  0  0  0  0  0  0  0
  -16.8669   -2.9644    4.4300 O   0  0  0  0  0  0  0  0  0  0  0  0
  -14.8079   -1.3124   -2.8205 O   0  0  0  0  0  0  0  0  0  0  0  0
  -11.8198    1.1046   -4.8192 O   0  0  0  0  0  0  0  0  0  0  0  0
  -15.5570   -1.4990   -1.7665 N   0  0  0  0  0  0  0  0  0  0  0  0
  -11.0148    1.0207   -6.0159 C   0  0  0  0  0  0  0  0  0  0  0  0
  -15.0741   -3.0108    2.8351 C   0  0  0  0  0  0  0  0  0  0  0  0
  -17.2132   -2.0436    2.2208 C   0  0  0  0  0  0  0  0  0  0  0  0
  -14.5840   -2.7261    1.5752 C   0  0  0  0  0  0  0  0  0  0  0  0
  -16.7219   -1.7583    0.9558 C   0  0  0  0  0  0  0  0  0  0  0  0
  -12.5383   -0.3009   -3.0013 C   0  0  0  0  0  0  0  0  0  0  0  0
  -13.3565   -1.8546   -1.0863 C   0  0  0  0  0  0  0  0  0  0  0  0
  -12.6192    0.0194   -4.4858 C   0  0  0  0  0  0  0  0  0  0  0  0
  -16.3885   -2.6757    3.1722 C   0  0  0  0  0  0  0  0  0  0  0  0
  -13.4046   -1.5043   -2.5783 C   0  0  1  0  0  0  0  0  0  0  0  0
  -14.8295   -1.8037   -0.7699 C   0  0  0  0  0  0  0  0  0  0  0  0
  -15.3954   -2.0962    0.6172 C   0  0  0  0  0  0  0  0  0  0  0  0
  -17.8068   -2.7260    4.6743 H   0  0  0  0  0  0  0  0  0  0  0  0
  -10.4956    1.8679   -6.1284 H   0  0  0  0  0  0  0  0  0  0  0  0
  -10.3824    0.2499   -5.9389 H   0  0  0  0  0  0  0  0  0  0  0  0
  -11.6092    0.8863   -6.8088 H   0  0  0  0  0  0  0  0  0  0  0  0
  -14.4860   -3.4585    3.5086 H   0  0  0  0  0  0  0  0  0  0  0  0
  -18.1538   -1.8006    2.4580 H   0  0  0  0  0  0  0  0  0  0  0  0
  -13.6426   -2.9707    1.3431 H   0  0  0  0  0  0  0  0  0  0  0  0
  -17.3101   -1.3115    0.2817 H   0  0  0  0  0  0  0  0  0  0  0  0
  -12.8414    0.5021   -2.4882 H   0  0  0  0  0  0  0  0  0  0  0  0
  -11.5856   -0.5022   -2.7733 H   0  0  0  0  0  0  0  0  0  0  0  0
  -12.8388   -1.1792   -0.5612 H   0  0  0  0  0  0  0  0  0  0  0  0
  -12.9726   -2.7645   -0.9292 H   0  0  0  0  0  0  0  0  0  0  0  0
  -13.1039   -2.3043   -3.0975 H   0  0  0  0  0  0  0  0  0  0  0  0
  1 13  2  0  0  0  0
  2 14  1  0  0  0  0
  3  5  1  0  0  0  0
  3 15  1  0  0  0  0
  4  6  1  0  0  0  0
  4 13  1  0  0  0  0
  5 16  2  0  0  0  0
  7  9  1  0  0  0  0
  7 14  2  0  0  0  0
  8 10  2  0  0  0  0
  8 14  1  0  0  0  0
  9 17  2  0  0  0  0
 10 17  1  0  0  0  0
 11 13  1  0  0  0  0
 11 15  1  0  0  0  0
 12 15  1  0  0  0  0
 12 16  1  0  0  0  0
 16 17  1  0  0  0  0
  2 18  1  0  0  0  0
  6 19  1  0  0  0  0
  6 20  1  0  0  0  0
  6 21  1  0  0  0  0
  7 22  1  0  0  0  0
  8 23  1  0  0  0  0
  9 24  1  0  0  0  0
 10 25  1  0  0  0  0
 11 26  1  0  0  0  0
 11 27  1  0  0  0  0
 12 28  1  0  0  0  0
 12 29  1  0  0  0  0
 15 30  1  0  0  0  0
M  END
> <pdb_id>
1LJT

> <uniprot_id>
P14174

> <usmiles>
O=C(OC)C[C@@H]1ON=C(c2ccc(O)cc2)C1

$$$$
HDQ_A_405
          07212403283D 1   1.00000     0.00000     0
            
 52 53  0  0  0  0            999 V2000
   35.1660   89.0480   72.1840 O   0  0  0  0  0  0  0  0  0  0  0  0
   33.2430   89.6340   71.2490 O   0  0  0  0  0  0  0  0  0  0  0  0
   38.1590   87.6340   65.1290 O   0  0  0  0  0  0  0  0  0  0  0  0
   36.5630   86.0700   65.5620 O   0  0  0  0  0  0  0  0  0  0  0  0
   38.6280   85.6700   66.7110 O   0  0  0  0  0  0  0  0  0  0  0  0
   32.2940   87.2380   70.9430 N   0  0  0  0  0  0  0  0  0  0  0  0
   32.6240   83.2760   73.6290 N   0  0  0  0  0  0  0  0  0  0  0  0
   34.9770   85.5750   72.5590 N   0  0  0  0  0  0  0  0  0  0  0  0
   31.6270   82.7730   74.5630 C   0  0  0  0  0  0  0  0  0  0  0  0
   34.7970   84.1670   72.9770 C   0  0  0  0  0  0  0  0  0  0  0  0
   35.4050   85.5560   71.1500 C   0  0  0  0  0  0  0  0  0  0  0  0
   33.8130   86.4750   72.7080 C   0  0  0  0  0  0  0  0  0  0  0  0
   32.1840   82.6300   75.9750 C   0  0  0  0  0  0  0  0  0  0  0  0
   33.6020   82.0770   75.9290 C   0  0  0  0  0  0  0  0  0  0  0  0
   36.2360   86.6150   68.4770 C   0  0  0  0  0  0  0  0  0  0  0  0
   34.5470   82.9730   75.1270 C   0  0  0  0  0  0  0  0  0  0  0  0
   35.5380   87.4400   69.5760 C   0  0  0  0  0  0  0  0  0  0  0  0
   37.0130   87.5490   67.5300 C   0  0  0  0  0  0  0  0  0  0  0  0
   34.0680   88.7530   71.6300 C   0  0  0  0  0  0  0  0  0  0  0  0
   33.8440   83.8940   74.1300 C   0  0  2  0  0  0  0  0  0  0  0  0
   34.5770   86.5890   70.3900 C   0  0  2  0  0  0  0  0  0  0  0  0
   33.6900   87.2980   71.4110 C   0  0  2  0  0  0  0  0  0  0  0  0
   37.7150   86.8000   66.3080 B   0  5  0  0  0  0  0  0  0  0  0  0
   35.7918   88.3229   72.4712 H   0  0  0  0  0  0  0  0  0  0  0  0
   38.9308   88.2095   65.3995 H   0  0  0  0  0  0  0  0  0  0  0  0
   36.1095   85.4359   66.1883 H   0  0  0  0  0  0  0  0  0  0  0  0
   38.2374   85.1897   67.4963 H   0  0  0  0  0  0  0  0  0  0  0  0
   32.2017   87.7691   70.1008 H   0  0  0  0  0  0  0  0  0  0  0  0
   32.0423   86.2865   70.7663 H   0  0  0  0  0  0  0  0  0  0  0  0
   32.1672   83.9591   73.0591 H   0  0  0  0  0  0  0  0  0  0  0  0
   31.3131   81.8773   74.2480 H   0  0  0  0  0  0  0  0  0  0  0  0
   30.8551   83.4084   74.5837 H   0  0  0  0  0  0  0  0  0  0  0  0
   35.6952   83.8157   73.2411 H   0  0  0  0  0  0  0  0  0  0  0  0
   34.4606   83.6596   72.1837 H   0  0  0  0  0  0  0  0  0  0  0  0
   35.2529   84.6472   70.7616 H   0  0  0  0  0  0  0  0  0  0  0  0
   36.3759   85.7870   71.0874 H   0  0  0  0  0  0  0  0  0  0  0  0
   33.9521   87.0859   73.4874 H   0  0  0  0  0  0  0  0  0  0  0  0
   32.9822   85.9370   72.8503 H   0  0  0  0  0  0  0  0  0  0  0  0
   31.6031   82.0058   76.4974 H   0  0  0  0  0  0  0  0  0  0  0  0
   32.1935   83.5263   76.4184 H   0  0  0  0  0  0  0  0  0  0  0  0
   33.5807   81.1713   75.5057 H   0  0  0  0  0  0  0  0  0  0  0  0
   33.9479   81.9999   76.8641 H   0  0  0  0  0  0  0  0  0  0  0  0
   35.5484   86.1110   67.9543 H   0  0  0  0  0  0  0  0  0  0  0  0
   36.8717   85.9698   68.9008 H   0  0  0  0  0  0  0  0  0  0  0  0
   35.1795   82.3872   74.6203 H   0  0  0  0  0  0  0  0  0  0  0  0
   35.0610   83.5411   75.7697 H   0  0  0  0  0  0  0  0  0  0  0  0
   35.0278   88.1855   69.1473 H   0  0  0  0  0  0  0  0  0  0  0  0
   36.2325   87.8197   70.1871 H   0  0  0  0  0  0  0  0  0  0  0  0
   37.7205   88.0162   68.0603 H   0  0  0  0  0  0  0  0  0  0  0  0
   36.3740   88.2233   67.1598 H   0  0  0  0  0  0  0  0  0  0  0  0
   33.6159   84.7567   74.5814 H   0  0  0  0  0  0  0  0  0  0  0  0
   33.9825   86.0992   69.7522 H   0  0  0  0  0  0  0  0  0  0  0  0
  1 19  1  0  0  0  0
  2 19  2  0  0  0  0
  3 23  1  0  0  0  0
  4 23  1  0  0  0  0
  5 23  1  0  0  0  0
  6 22  1  0  0  0  0
  7  9  1  0  0  0  0
  7 20  1  0  0  0  0
  8 10  1  0  0  0  0
  8 11  1  0  0  0  0
  8 12  1  0  0  0  0
  9 13  1  0  0  0  0
 10 20  1  0  0  0  0
 11 21  1  0  0  0  0
 12 22  1  0  0  0  0
 13 14  1  0  0  0  0
 14 16  1  0  0  0  0
 15 17  1  0  0  0  0
 15 18  1  0  0  0  0
 16 20  1  0  0  0  0
 17 21  1  0  0  0  0
 18 23  1  0  0  0  0
 19 22  1  0  0  0  0
 21 22  1  0  0  0  0
  1 24  1  0  0  0  0
  3 25  1  0  0  0  0
  4 26  1  0  0  0  0
  5 27  1  0  0  0  0
  6 28  1  0  0  0  0
  6 29  1  0  0  0  0
  7 30  1  0  0  0  0
  9 31  1  0  0  0  0
  9 32  1  0  0  0  0
 10 33  1  0  0  0  0
 10 34  1  0  0  0  0
 11 35  1  0  0  0  0
 11 36  1  0  0  0  0
 12 37  1  0  0  0  0
 12 38  1  0  0  0  0
 13 39  1  0  0  0  0
 13 40  1  0  0  0  0
 14 41  1  0  0  0  0
 14 42  1  0  0  0  0
 15 43  1  0  0  0  0
 15 44  1  0  0  0  0
 16 45  1  0  0  0  0
 16 46  1  0  0  0  0
 17 47  1  0  0  0  0
 17 48  1  0  0  0  0
 18 49  1  0  0  0  0
 18 50  1  0  0  0  0
 20 51  1  0  0  0  0
 21 52  1  0  0  0  0
M  CHG  1  23  -1
M  END
> <pdb_id>
6Q39

> <uniprot_id>
P78540

> <usmiles>
O=C(O)[C@@]1(N)[C@H](CN(C1)C[C@H]2NCCCC2)CCC[B-](O)(O)O

$$$$
HDT_A_1299
          07192421083D 1   1.00000     0.00000     0
            
 40 43  0  0  0  0            999 V2000
    6.2843   23.9933    7.4353 S   0  0  0  0  0  0  0  0  0  0  0  0
    7.3596   24.4155    8.2808 O   0  0  0  0  0  0  0  0  0  0  0  0
    6.8213   23.4547    6.2127 O   0  0  0  0  0  0  0  0  0  0  0  0
    5.4367   22.8678    8.1952 N   0  0  0  0  0  0  0  0  0  0  0  0
    1.5714   30.4844    6.5267 N   0  0  0  0  0  0  0  0  0  0  0  0
   -2.2560   27.8944   10.7656 N   0  0  0  0  0  0  0  0  0  0  0  0
    3.0942   28.7467    6.3747 N   0  0  0  0  0  0  0  0  0  0  0  0
    1.1600   28.5699    7.7812 N   0  0  0  0  0  0  0  0  0  0  0  0
   -0.8945   26.9952    9.2754 N   0  0  0  0  0  0  0  0  0  0  0  0
    0.4467   31.0617    6.9705 C   0  0  0  0  0  0  0  0  0  0  0  0
   -1.6898   28.8500   10.1385 C   0  0  0  0  0  0  0  0  0  0  0  0
   -0.2251   26.0923    8.5466 C   0  0  0  0  0  0  0  0  0  0  0  0
   -0.4590   24.7478    8.8181 C   0  0  0  0  0  0  0  0  0  0  0  0
   -1.3745   24.4194    9.8253 C   0  0  0  0  0  0  0  0  0  0  0  0
   -0.3777   30.3817    7.8555 C   0  0  0  0  0  0  0  0  0  0  0  0
    4.3457   25.6346    7.9976 C   0  0  0  0  0  0  0  0  0  0  0  0
    5.6434   26.0868    6.0263 C   0  0  0  0  0  0  0  0  0  0  0  0
   -2.0493   25.3925   10.5639 C   0  0  0  0  0  0  0  0  0  0  0  0
    3.5686   26.7691    7.7517 C   0  0  0  0  0  0  0  0  0  0  0  0
    4.8681   27.2194    5.7855 C   0  0  0  0  0  0  0  0  0  0  0  0
    5.3790   25.2844    7.1358 C   0  0  0  0  0  0  0  0  0  0  0  0
    1.9520   29.2513    6.9236 C   0  0  0  0  0  0  0  0  0  0  0  0
   -1.7541   26.7021   10.2300 C   0  0  0  0  0  0  0  0  0  0  0  0
    3.8008   27.5554    6.6257 C   0  0  0  0  0  0  0  0  0  0  0  0
    0.0114   29.1157    8.2622 C   0  0  0  0  0  0  0  0  0  0  0  0
   -0.8438   28.3435    9.2168 C   0  0  0  0  0  0  0  0  0  0  0  0
    4.6828   22.5670    7.6111 H   0  0  0  0  0  0  0  0  0  0  0  0
    6.0282   22.0888    8.4035 H   0  0  0  0  0  0  0  0  0  0  0  0
    3.5020   29.3258    5.6687 H   0  0  0  0  0  0  0  0  0  0  0  0
    0.2018   31.9816    6.6644 H   0  0  0  0  0  0  0  0  0  0  0  0
   -1.8482   29.8235   10.3040 H   0  0  0  0  0  0  0  0  0  0  0  0
    0.4181   26.3738    7.8346 H   0  0  0  0  0  0  0  0  0  0  0  0
    0.0159   24.0325    8.3055 H   0  0  0  0  0  0  0  0  0  0  0  0
   -1.5508   23.4550   10.0221 H   0  0  0  0  0  0  0  0  0  0  0  0
   -1.2262   30.7924    8.1892 H   0  0  0  0  0  0  0  0  0  0  0  0
    4.1570   25.0692    8.8006 H   0  0  0  0  0  0  0  0  0  0  0  0
    6.3891   25.8495    5.4037 H   0  0  0  0  0  0  0  0  0  0  0  0
   -2.7014   25.1590   11.2852 H   0  0  0  0  0  0  0  0  0  0  0  0
    2.8398   27.0188    8.3893 H   0  0  0  0  0  0  0  0  0  0  0  0
    5.0778   27.8014    4.9997 H   0  0  0  0  0  0  0  0  0  0  0  0
  1  2  2  0  0  0  0
  1  3  2  0  0  0  0
  1  4  1  0  0  0  0
  1 21  1  0  0  0  0
  5 10  2  0  0  0  0
  5 22  1  0  0  0  0
  6 11  1  0  0  0  0
  6 23  2  0  0  0  0
  7 22  1  0  0  0  0
  7 24  1  0  0  0  0
  8 22  2  0  0  0  0
  8 25  1  0  0  0  0
  9 12  1  0  0  0  0
  9 23  1  0  0  0  0
  9 26  1  0  0  0  0
 10 15  1  0  0  0  0
 11 26  2  0  0  0  0
 12 13  2  0  0  0  0
 13 14  1  0  0  0  0
 14 18  2  0  0  0  0
 15 25  2  0  0  0  0
 16 19  1  0  0  0  0
 16 21  2  0  0  0  0
 17 20  2  0  0  0  0
 17 21  1  0  0  0  0
 18 23  1  0  0  0  0
 19 24  2  0  0  0  0
 20 24  1  0  0  0  0
 25 26  1  0  0  0  0
  4 27  1  0  0  0  0
  4 28  1  0  0  0  0
  7 29  1  0  0  0  0
 10 30  1  0  0  0  0
 11 31  1  0  0  0  0
 12 32  1  0  0  0  0
 13 33  1  0  0  0  0
 14 34  1  0  0  0  0
 15 35  1  0  0  0  0
 16 36  1  0  0  0  0
 17 37  1  0  0  0  0
 18 38  1  0  0  0  0
 19 39  1  0  0  0  0
 20 40  1  0  0  0  0
M  END
> <pdb_id>
1OIT

> <uniprot_id>
P24941

> <usmiles>
S(=O)(=O)(N)c1ccc(Nc2nc(ccn2)C=3N4C(=NC3)C=CC=C4)cc1

$$$$
HE1_A_270
          07192421023D 1   1.00000     0.00000     0
            
 29 29  0  0  0  0            999 V2000
   48.9325   27.1129   15.8280 S   0  0  0  0  0  0  0  0  0  0  0  0
   48.2452   29.3906    9.7721 P   0  0  0  0  0  0  0  0  0  0  0  0
   48.5472   28.4972    8.4756 O   0  0  0  0  0  0  0  0  0  0  0  0
   49.4386   30.4196   10.0216 O   0  0  0  0  0  0  0  0  0  0  0  0
   46.8629   30.2092    9.6231 O   0  0  0  0  0  0  0  0  0  0  0  0
   51.9602   27.3113   15.3255 O   0  0  0  0  0  0  0  0  0  0  0  0
   49.0584   28.4071   14.6135 C   0  0  0  0  0  0  0  0  0  0  0  0
   48.1330   28.4052   11.1431 C   0  0  0  0  0  0  0  0  0  0  0  0
   48.0429   28.0323   13.5749 C   0  0  0  0  0  0  0  0  0  0  0  0
   48.1506   28.8665   12.3728 C   0  0  0  0  0  0  0  0  0  0  0  0
   50.3160   23.4912   14.8045 C   0  0  0  0  0  0  0  0  0  0  0  0
   51.6854   23.7145   14.6096 C   0  0  0  0  0  0  0  0  0  0  0  0
   49.4811   24.5576   15.1819 C   0  0  0  0  0  0  0  0  0  0  0  0
   52.2160   25.0024   14.7909 C   0  0  0  0  0  0  0  0  0  0  0  0
   50.0284   25.8293   15.3592 C   0  0  0  0  0  0  0  0  0  0  0  0
   51.3960   26.0647   15.1623 C   0  0  0  0  0  0  0  0  0  0  0  0
   47.7933   27.8567    8.3292 H   0  0  0  0  0  0  0  0  0  0  0  0
   49.2396   30.9708   10.8318 H   0  0  0  0  0  0  0  0  0  0  0  0
   51.3890   28.0876   15.5920 H   0  0  0  0  0  0  0  0  0  0  0  0
   49.9766   28.4354   14.2185 H   0  0  0  0  0  0  0  0  0  0  0  0
   48.8419   29.2958   15.0177 H   0  0  0  0  0  0  0  0  0  0  0  0
   48.0488   27.4177   11.0098 H   0  0  0  0  0  0  0  0  0  0  0  0
   47.1281   28.1430   13.9635 H   0  0  0  0  0  0  0  0  0  0  0  0
   48.1823   27.0761   13.3176 H   0  0  0  0  0  0  0  0  0  0  0  0
   48.2438   29.8542   12.4983 H   0  0  0  0  0  0  0  0  0  0  0  0
   49.9336   22.5762   14.6757 H   0  0  0  0  0  0  0  0  0  0  0  0
   52.2835   22.9591   14.3420 H   0  0  0  0  0  0  0  0  0  0  0  0
   48.5026   24.4062   15.3222 H   0  0  0  0  0  0  0  0  0  0  0  0
   53.1939   25.1581   14.6517 H   0  0  0  0  0  0  0  0  0  0  0  0
  1  7  1  0  0  0  0
  1 15  1  0  0  0  0
  2  3  1  0  0  0  0
  2  4  1  0  0  0  0
  2  5  2  0  0  0  0
  2  8  1  0  0  0  0
  6 16  1  0  0  0  0
  7  9  1  0  0  0  0
  8 10  2  0  0  0  0
  9 10  1  0  0  0  0
 11 12  2  0  0  0  0
 11 13  1  0  0  0  0
 12 14  1  0  0  0  0
 13 15  2  0  0  0  0
 14 16  2  0  0  0  0
 15 16  1  0  0  0  0
  3 17  1  0  0  0  0
  4 18  1  0  0  0  0
  6 19  1  0  0  0  0
  7 20  1  0  0  0  0
  7 21  1  0  0  0  0
  8 22  1  0  0  0  0
  9 23  1  0  0  0  0
  9 24  1  0  0  0  0
 10 25  1  0  0  0  0
 11 26  1  0  0  0  0
 12 27  1  0  0  0  0
 13 28  1  0  0  0  0
 14 29  1  0  0  0  0
M  END
> <pdb_id>
1C29

> <uniprot_id>
P00929

> <usmiles>
S(c1c(O)cccc1)CC/C=C/P(=O)(O)O

$$$$
HE1_A_270
          07192421023D 1   1.00000     0.00000     0
            
 31 31  0  0  0  0            999 V2000
   48.8203   26.8808   16.0934 S   0  0  0  0  0  0  0  0  0  0  0  0
   48.2486   29.4514    9.8756 P   0  0  0  0  0  0  0  0  0  0  0  0
   49.2741   30.5663   10.0086 O   0  0  0  0  0  0  0  0  0  0  0  0
   48.4808   28.8870    8.5060 O   0  0  0  0  0  0  0  0  0  0  0  0
   46.9124   30.1995    9.7587 O   0  0  0  0  0  0  0  0  0  0  0  0
   51.8224   27.2001   15.1168 O   0  0  0  0  0  0  0  0  0  0  0  0
   48.7824   28.2976   14.9780 C   0  0  0  0  0  0  0  0  0  0  0  0
   48.3267   28.2796   11.1339 C   0  0  0  0  0  0  0  0  0  0  0  0
   48.4287   27.7703   13.5941 C   0  0  0  0  0  0  0  0  0  0  0  0
   48.3713   28.8767   12.5484 C   0  0  0  0  0  0  0  0  0  0  0  0
   50.2842   23.3050   15.0062 C   0  0  0  0  0  0  0  0  0  0  0  0
   51.5967   23.5826   14.6011 C   0  0  0  0  0  0  0  0  0  0  0  0
   49.4586   24.3400   15.4564 C   0  0  0  0  0  0  0  0  0  0  0  0
   52.0917   24.8972   14.6493 C   0  0  0  0  0  0  0  0  0  0  0  0
   49.9476   25.6516   15.5056 C   0  0  0  0  0  0  0  0  0  0  0  0
   51.2822   25.9413   15.0957 C   0  0  0  0  0  0  0  0  0  0  0  0
   49.1828   30.9978   10.9061 H   0  0  0  0  0  0  0  0  0  0  0  0
   47.8376   28.1395    8.3401 H   0  0  0  0  0  0  0  0  0  0  0  0
   51.2731   27.9747   15.4305 H   0  0  0  0  0  0  0  0  0  0  0  0
   49.6782   28.7415   14.9571 H   0  0  0  0  0  0  0  0  0  0  0  0
   48.0920   28.9543   15.2814 H   0  0  0  0  0  0  0  0  0  0  0  0
   49.1510   27.7296   10.9996 H   0  0  0  0  0  0  0  0  0  0  0  0
   47.5198   27.6927   11.0665 H   0  0  0  0  0  0  0  0  0  0  0  0
   47.5348   27.3243   13.6392 H   0  0  0  0  0  0  0  0  0  0  0  0
   49.1206   27.1032   13.3181 H   0  0  0  0  0  0  0  0  0  0  0  0
   47.5510   29.4288   12.6984 H   0  0  0  0  0  0  0  0  0  0  0  0
   49.1826   29.4546   12.6361 H   0  0  0  0  0  0  0  0  0  0  0  0
   49.9382   22.3674   14.9733 H   0  0  0  0  0  0  0  0  0  0  0  0
   52.1842   22.8416   14.2760 H   0  0  0  0  0  0  0  0  0  0  0  0
   48.5208   24.1441   15.7428 H   0  0  0  0  0  0  0  0  0  0  0  0
   53.0308   25.0851   14.3615 H   0  0  0  0  0  0  0  0  0  0  0  0
  1  7  1  0  0  0  0
  1 15  1  0  0  0  0
  2  3  1  0  0  0  0
  2  4  1  0  0  0  0
  2  5  2  0  0  0  0
  2  8  1  0  0  0  0
  6 16  1  0  0  0  0
  7  9  1  0  0  0  0
  8 10  1  0  0  0  0
  9 10  1  0  0  0  0
 11 12  2  0  0  0  0
 11 13  1  0  0  0  0
 12 14  1  0  0  0  0
 13 15  2  0  0  0  0
 14 16  2  0  0  0  0
 15 16  1  0  0  0  0
  3 17  1  0  0  0  0
  4 18  1  0  0  0  0
  6 19  1  0  0  0  0
  7 20  1  0  0  0  0
  7 21  1  0  0  0  0
  8 22  1  0  0  0  0
  8 23  1  0  0  0  0
  9 24  1  0  0  0  0
  9 25  1  0  0  0  0
 10 26  1  0  0  0  0
 10 27  1  0  0  0  0
 11 28  1  0  0  0  0
 12 29  1  0  0  0  0
 13 30  1  0  0  0  0
 14 31  1  0  0  0  0
M  END
> <pdb_id>
1C8V

> <uniprot_id>
P00929

> <usmiles>
S(c1c(O)cccc1)CCCCP(=O)(O)O

$$$$
HE8_A_405
          07212403283D 1   1.00000     0.00000     0
            
 34 34  0  0  0  0            999 V2000
   35.0730   89.0833   72.2777 O   0  0  0  0  0  0  0  0  0  0  0  0
   33.3214   89.6745   71.0585 O   0  0  0  0  0  0  0  0  0  0  0  0
   36.3864   85.9597   65.5456 O   0  0  0  0  0  0  0  0  0  0  0  0
   38.4938   85.7729   66.6261 O   0  0  0  0  0  0  0  0  0  0  0  0
   38.1846   87.6945   65.2442 O   0  0  0  0  0  0  0  0  0  0  0  0
   32.3261   87.1771   70.8629 N   0  0  0  0  0  0  0  0  0  0  0  0
   34.9021   85.9131   72.8878 N   0  0  0  0  0  0  0  0  0  0  0  0
   36.2638   86.5646   68.5681 C   0  0  0  0  0  0  0  0  0  0  0  0
   35.6880   85.9805   71.6595 C   0  0  0  0  0  0  0  0  0  0  0  0
   33.6902   86.7113   72.8673 C   0  0  0  0  0  0  0  0  0  0  0  0
   35.4862   87.4107   69.5938 C   0  0  0  0  0  0  0  0  0  0  0  0
   37.0630   87.4798   67.6234 C   0  0  0  0  0  0  0  0  0  0  0  0
   34.0474   88.7985   71.6019 C   0  0  0  0  0  0  0  0  0  0  0  0
   34.7256   86.5830   70.6322 C   0  0  2  0  0  0  0  0  0  0  0  0
   33.6702   87.3382   71.4586 C   0  0  2  0  0  0  0  0  0  0  0  0
   37.4212   86.8226   66.2187 B   0  5  0  0  0  0  0  0  0  0  0  0
   35.6184   88.3537   72.6903 H   0  0  0  0  0  0  0  0  0  0  0  0
   35.6282   86.5316   65.2322 H   0  0  0  0  0  0  0  0  0  0  0  0
   39.2498   86.2324   67.0923 H   0  0  0  0  0  0  0  0  0  0  0  0
   38.8552   88.2437   65.7429 H   0  0  0  0  0  0  0  0  0  0  0  0
   32.3152   87.5842   69.9496 H   0  0  0  0  0  0  0  0  0  0  0  0
   32.1053   86.2040   70.7967 H   0  0  0  0  0  0  0  0  0  0  0  0
   35.4742   86.2322   73.6434 H   0  0  0  0  0  0  0  0  0  0  0  0
   35.6189   86.0191   68.0327 H   0  0  0  0  0  0  0  0  0  0  0  0
   36.8940   85.9566   69.0509 H   0  0  0  0  0  0  0  0  0  0  0  0
   35.9833   85.0679   71.3767 H   0  0  0  0  0  0  0  0  0  0  0  0
   36.4887   86.5668   71.7823 H   0  0  0  0  0  0  0  0  0  0  0  0
   33.7219   87.4214   73.5706 H   0  0  0  0  0  0  0  0  0  0  0  0
   32.8848   86.1360   73.0105 H   0  0  0  0  0  0  0  0  0  0  0  0
   34.8273   87.9777   69.0993 H   0  0  0  0  0  0  0  0  0  0  0  0
   36.1367   87.9984   70.0749 H   0  0  0  0  0  0  0  0  0  0  0  0
   37.9176   87.7296   68.0788 H   0  0  0  0  0  0  0  0  0  0  0  0
   36.5221   88.3037   67.4544 H   0  0  0  0  0  0  0  0  0  0  0  0
   34.2685   85.8315   70.1564 H   0  0  0  0  0  0  0  0  0  0  0  0
  1 13  1  0  0  0  0
  2 13  2  0  0  0  0
  3 16  1  0  0  0  0
  4 16  1  0  0  0  0
  5 16  1  0  0  0  0
  6 15  1  0  0  0  0
  7  9  1  0  0  0  0
  7 10  1  0  0  0  0
  8 11  1  0  0  0  0
  8 12  1  0  0  0  0
  9 14  1  0  0  0  0
 10 15  1  0  0  0  0
 11 14  1  0  0  0  0
 12 16  1  0  0  0  0
 13 15  1  0  0  0  0
 14 15  1  0  0  0  0
  1 17  1  0  0  0  0
  3 18  1  0  0  0  0
  4 19  1  0  0  0  0
  5 20  1  0  0  0  0
  6 21  1  0  0  0  0
  6 22  1  0  0  0  0
  7 23  1  0  0  0  0
  8 24  1  0  0  0  0
  8 25  1  0  0  0  0
  9 26  1  0  0  0  0
  9 27  1  0  0  0  0
 10 28  1  0  0  0  0
 10 29  1  0  0  0  0
 11 30  1  0  0  0  0
 11 31  1  0  0  0  0
 12 32  1  0  0  0  0
 12 33  1  0  0  0  0
 14 34  1  0  0  0  0
M  CHG  1  16  -1
M  END
> <pdb_id>
6Q37

> <uniprot_id>
P78540

> <usmiles>
O=C(O)[C@@]1(N)[C@H](CNC1)CCC[B-](O)(O)O

$$$$
HF1_A_270
          07192421023D 1   1.00000     0.00000     0
            
 31 31  0  0  0  0            999 V2000
   48.7525   27.1647   16.0970 S   0  0  0  0  0  0  0  0  0  0  0  0
   48.3892   29.5850    9.7571 P   0  0  0  0  0  0  0  0  0  0  0  0
   50.1447   22.3434   15.0122 F   0  0  0  0  0  0  0  0  0  0  0  0
   47.1685   30.3184    9.7212 O   0  0  0  0  0  0  0  0  0  0  0  0
   48.4801   28.7709    8.6181 O   0  0  0  0  0  0  0  0  0  0  0  0
   49.4628   30.4825    9.8142 O   0  0  0  0  0  0  0  0  0  0  0  0
   51.8148   27.7298   15.3472 O   0  0  0  0  0  0  0  0  0  0  0  0
   48.0254   27.8240   14.5901 C   0  0  0  0  0  0  0  0  0  0  0  0
   48.4484   28.5282   11.2778 C   0  0  0  0  0  0  0  0  0  0  0  0
   48.9987   28.7490   13.8601 C   0  0  0  0  0  0  0  0  0  0  0  0
   48.3857   29.3394   12.5741 C   0  0  0  0  0  0  0  0  0  0  0  0
   51.8848   24.0289   14.7843 C   0  0  0  0  0  0  0  0  0  0  0  0
   52.2961   25.3857   14.8713 C   0  0  0  0  0  0  0  0  0  0  0  0
   49.6201   24.6318   15.4834 C   0  0  0  0  0  0  0  0  0  0  0  0
   50.0103   25.9917   15.5782 C   0  0  0  0  0  0  0  0  0  0  0  0
   50.5378   23.6604   15.0958 C   0  0  0  0  0  0  0  0  0  0  0  0
   51.3745   26.3771   15.2639 C   0  0  0  0  0  0  0  0  0  0  0  0
   47.1041   30.8985   10.5332 H   0  0  0  0  0  0  0  0  0  0  0  0
   49.3372   28.2563    8.6438 H   0  0  0  0  0  0  0  0  0  0  0  0
   51.1758   28.4474   15.6240 H   0  0  0  0  0  0  0  0  0  0  0  0
   47.2010   28.3390   14.8248 H   0  0  0  0  0  0  0  0  0  0  0  0
   47.7833   27.0645   13.9862 H   0  0  0  0  0  0  0  0  0  0  0  0
   49.3013   28.0061   11.2698 H   0  0  0  0  0  0  0  0  0  0  0  0
   47.6719   27.8984   11.2584 H   0  0  0  0  0  0  0  0  0  0  0  0
   49.8174   28.2285   13.6174 H   0  0  0  0  0  0  0  0  0  0  0  0
   49.2499   29.4995   14.4714 H   0  0  0  0  0  0  0  0  0  0  0  0
   47.4194   29.5130   12.7639 H   0  0  0  0  0  0  0  0  0  0  0  0
   48.8522   30.2064   12.3992 H   0  0  0  0  0  0  0  0  0  0  0  0
   52.5401   23.3275   14.5039 H   0  0  0  0  0  0  0  0  0  0  0  0
   53.2392   25.6375   14.6540 H   0  0  0  0  0  0  0  0  0  0  0  0
   48.6790   24.3691   15.6965 H   0  0  0  0  0  0  0  0  0  0  0  0
  1  8  1  0  0  0  0
  1 15  1  0  0  0  0
  2  4  1  0  0  0  0
  2  5  1  0  0  0  0
  2  6  2  0  0  0  0
  2  9  1  0  0  0  0
  3 16  1  0  0  0  0
  7 17  1  0  0  0  0
  8 10  1  0  0  0  0
  9 11  1  0  0  0  0
 10 11  1  0  0  0  0
 12 13  1  0  0  0  0
 12 16  2  0  0  0  0
 13 17  2  0  0  0  0
 14 15  2  0  0  0  0
 14 16  1  0  0  0  0
 15 17  1  0  0  0  0
  4 18  1  0  0  0  0
  5 19  1  0  0  0  0
  7 20  1  0  0  0  0
  8 21  1  0  0  0  0
  8 22  1  0  0  0  0
  9 23  1  0  0  0  0
  9 24  1  0  0  0  0
 10 25  1  0  0  0  0
 10 26  1  0  0  0  0
 11 27  1  0  0  0  0
 11 28  1  0  0  0  0
 12 29  1  0  0  0  0
 13 30  1  0  0  0  0
 14 31  1  0  0  0  0
M  END
> <pdb_id>
1C9D

> <uniprot_id>
P00929

> <usmiles>
S(c1c(O)ccc(F)c1)CCCCP(=O)(O)O

$$$$
HFA_A_309
          07192419023D 1   1.00000     0.00000     0
            
 22 22  0  0  0  0            999 V2000
    3.7636   -7.7102   14.6149 O   0  0  0  0  0  0  0  0  0  0  0  0
    3.2779   -9.7089   15.5265 O   0  0  0  0  0  0  0  0  0  0  0  0
    6.1803   -9.3144   15.7565 O   0  0  0  0  0  0  0  0  0  0  0  0
    4.9071   -8.4001    9.7494 C   0  0  0  0  0  0  0  0  0  0  0  0
    3.9647   -9.1776   10.4332 C   0  0  0  0  0  0  0  0  0  0  0  0
    6.1555   -8.1739   10.3525 C   0  0  0  0  0  0  0  0  0  0  0  0
    4.2536   -9.7096   11.7034 C   0  0  0  0  0  0  0  0  0  0  0  0
    6.4284   -8.7387   11.5985 C   0  0  0  0  0  0  0  0  0  0  0  0
    5.7297  -10.1467   13.6645 C   0  0  0  0  0  0  0  0  0  0  0  0
    4.0487   -8.8545   15.0333 C   0  0  0  0  0  0  0  0  0  0  0  0
    5.5032   -9.5037   12.3354 C   0  0  0  0  0  0  0  0  0  0  0  0
    5.5286   -9.0883   14.7577 C   0  0  1  0  0  0  0  0  0  0  0  0
    4.4804   -7.1216   14.2410 H   0  0  0  0  0  0  0  0  0  0  0  0
    6.0127   -8.5976   16.4333 H   0  0  0  0  0  0  0  0  0  0  0  0
    4.6962   -8.0143    8.8512 H   0  0  0  0  0  0  0  0  0  0  0  0
    3.0750   -9.3571   10.0135 H   0  0  0  0  0  0  0  0  0  0  0  0
    6.8431   -7.6123    9.8923 H   0  0  0  0  0  0  0  0  0  0  0  0
    3.5552  -10.2492   12.1737 H   0  0  0  0  0  0  0  0  0  0  0  0
    7.3357   -8.5916   11.9924 H   0  0  0  0  0  0  0  0  0  0  0  0
    6.6615  -10.5067   13.7107 H   0  0  0  0  0  0  0  0  0  0  0  0
    5.0772  -10.8934   13.7936 H   0  0  0  0  0  0  0  0  0  0  0  0
    5.8811   -8.2306   14.3834 H   0  0  0  0  0  0  0  0  0  0  0  0
  1 10  1  0  0  0  0
  2 10  2  0  0  0  0
  3 12  1  0  0  0  0
  4  5  2  0  0  0  0
  4  6  1  0  0  0  0
  5  7  1  0  0  0  0
  6  8  2  0  0  0  0
  7 11  2  0  0  0  0
  8 11  1  0  0  0  0
  9 11  1  0  0  0  0
  9 12  1  0  0  0  0
 10 12  1  0  0  0  0
  1 13  1  0  0  0  0
  3 14  1  0  0  0  0
  4 15  1  0  0  0  0
  5 16  1  0  0  0  0
  6 17  1  0  0  0  0
  7 18  1  0  0  0  0
  8 19  1  0  0  0  0
  9 20  1  0  0  0  0
  9 21  1  0  0  0  0
 12 22  1  0  0  0  0
M  END
> <pdb_id>
2CTC

> <uniprot_id>
P00730

> <usmiles>
O=C(O)[C@@H](O)Cc1ccccc1

$$$$
HFG_A_803
          07202417293D 1   1.00000     0.00000     0
            
 41 43  0  0  0  0            999 V2000
  -27.8040    1.9600  -29.9950 Br  0  0  0  0  0  0  0  0  0  0  0  0
  -28.8560    5.0720  -30.0110 Cl  0  0  0  0  0  0  0  0  0  0  0  0
  -22.0490    7.6440  -32.7870 O   0  0  0  0  0  0  0  0  0  0  0  0
  -25.4390    7.4770  -33.2740 O   0  0  0  0  0  0  0  0  0  0  0  0
  -19.3340    9.1610  -35.1570 O   0  0  0  0  0  0  0  0  0  0  0  0
  -24.0960    3.7580  -33.3290 N   0  0  0  0  0  0  0  0  0  0  0  0
  -21.3330   10.2290  -32.1810 N   0  0  0  0  0  0  0  0  0  0  0  0
  -23.9310    5.9610  -34.0380 N   0  0  0  0  0  0  0  0  0  0  0  0
  -23.4980    4.7190  -34.0480 C   0  0  0  0  0  0  0  0  0  0  0  0
  -20.2090   10.4160  -31.3130 C   0  0  0  0  0  0  0  0  0  0  0  0
  -18.9680   10.9120  -32.0580 C   0  0  0  0  0  0  0  0  0  0  0  0
  -23.2140    7.0210  -34.8690 C   0  0  0  0  0  0  0  0  0  0  0  0
  -18.5360    9.9820  -33.0560 C   0  0  0  0  0  0  0  0  0  0  0  0
  -25.8140    3.0620  -31.8220 C   0  0  0  0  0  0  0  0  0  0  0  0
  -26.8300    5.6770  -31.7280 C   0  0  0  0  0  0  0  0  0  0  0  0
  -22.0200    9.4490  -34.3610 C   0  0  0  0  0  0  0  0  0  0  0  0
  -26.9460    3.3770  -31.0330 C   0  0  0  0  0  0  0  0  0  0  0  0
  -27.4440    4.6870  -30.9950 C   0  0  0  0  0  0  0  0  0  0  0  0
  -22.3770    8.0250  -33.8740 C   0  0  0  0  0  0  0  0  0  0  0  0
  -25.0370    6.3120  -33.2760 C   0  0  0  0  0  0  0  0  0  0  0  0
  -19.6250    9.3290  -33.6720 C   0  0  1  0  0  0  0  0  0  0  0  0
  -20.9380   10.1320  -33.5220 C   0  0  2  0  0  0  0  0  0  0  0  0
  -25.1880    4.0690  -32.5690 C   0  0  0  0  0  0  0  0  0  0  0  0
  -25.6760    5.3600  -32.5340 C   0  0  0  0  0  0  0  0  0  0  0  0
  -20.1036    8.6985  -35.5972 H   0  0  0  0  0  0  0  0  0  0  0  0
  -21.9535   11.0068  -32.0808 H   0  0  0  0  0  0  0  0  0  0  0  0
  -22.7020    4.4853  -34.6064 H   0  0  0  0  0  0  0  0  0  0  0  0
  -19.9928    9.5429  -30.8760 H   0  0  0  0  0  0  0  0  0  0  0  0
  -20.4526   11.0877  -30.6134 H   0  0  0  0  0  0  0  0  0  0  0  0
  -18.2277   11.0460  -31.3992 H   0  0  0  0  0  0  0  0  0  0  0  0
  -19.1829   11.7831  -32.4996 H   0  0  0  0  0  0  0  0  0  0  0  0
  -23.8867    7.5497  -35.3867 H   0  0  0  0  0  0  0  0  0  0  0  0
  -22.5810    6.5758  -35.5023 H   0  0  0  0  0  0  0  0  0  0  0  0
  -17.9485    9.2962  -32.6264 H   0  0  0  0  0  0  0  0  0  0  0  0
  -18.0172   10.4749  -33.7545 H   0  0  0  0  0  0  0  0  0  0  0  0
  -25.4628    2.1260  -31.8463 H   0  0  0  0  0  0  0  0  0  0  0  0
  -27.1824    6.6125  -31.7020 H   0  0  0  0  0  0  0  0  0  0  0  0
  -22.8467   10.0106  -34.3280 H   0  0  0  0  0  0  0  0  0  0  0  0
  -21.6960    9.3879  -35.3051 H   0  0  0  0  0  0  0  0  0  0  0  0
  -19.7434    8.4268  -33.2572 H   0  0  0  0  0  0  0  0  0  0  0  0
  -20.7911   11.0543  -33.8794 H   0  0  0  0  0  0  0  0  0  0  0  0
  1 17  1  0  0  0  0
  2 18  1  0  0  0  0
  3 19  2  0  0  0  0
  4 20  2  0  0  0  0
  5 21  1  0  0  0  0
  6  9  2  0  0  0  0
  6 23  1  0  0  0  0
  7 10  1  0  0  0  0
  7 22  1  0  0  0  0
  8  9  1  0  0  0  0
  8 12  1  0  0  0  0
  8 20  1  0  0  0  0
 10 11  1  0  0  0  0
 11 13  1  0  0  0  0
 12 19  1  0  0  0  0
 13 21  1  0  0  0  0
 14 17  1  0  0  0  0
 14 23  2  0  0  0  0
 15 18  1  0  0  0  0
 15 24  2  0  0  0  0
 16 19  1  0  0  0  0
 16 22  1  0  0  0  0
 17 18  2  0  0  0  0
 20 24  1  0  0  0  0
 21 22  1  0  0  0  0
 23 24  1  0  0  0  0
  5 25  1  0  0  0  0
  7 26  1  0  0  0  0
  9 27  1  0  0  0  0
 10 28  1  0  0  0  0
 10 29  1  0  0  0  0
 11 30  1  0  0  0  0
 11 31  1  0  0  0  0
 12 32  1  0  0  0  0
 12 33  1  0  0  0  0
 13 34  1  0  0  0  0
 13 35  1  0  0  0  0
 14 36  1  0  0  0  0
 15 37  1  0  0  0  0
 16 38  1  0  0  0  0
 16 39  1  0  0  0  0
 21 40  1  0  0  0  0
 22 41  1  0  0  0  0
M  END
> <pdb_id>
4Q15

> <uniprot_id>
Q8I5R7

> <usmiles>
Brc1c(Cl)cc2c(N=CN(C2=O)CC(=O)C[C@H]3NCCC[C@@H]3O)c1

$$$$
HFT_A_1001
          07192418273D 1   1.00000     0.00000     0
            
 31 31  0  0  0  0            999 V2000
   23.5653    2.6079    4.1391 F   0  0  0  0  0  0  0  0  0  0  0  0
   23.4401    4.1810    5.5892 F   0  0  0  0  0  0  0  0  0  0  0  0
   22.9326    4.5206    3.5567 F   0  0  0  0  0  0  0  0  0  0  0  0
   24.9963    7.6972    3.0142 O   0  5  0  0  0  0  0  0  0  0  0  0
   23.8346    6.7761    4.6372 O   0  0  0  0  0  0  0  0  0  0  0  0
   27.3830    0.7427    4.4716 O   0  0  0  0  0  0  0  0  0  0  0  0
   30.6381    1.3624    3.4015 O   0  0  0  0  0  0  0  0  0  0  0  0
   28.5456    2.6168    3.8026 N   0  0  0  0  0  0  0  0  0  0  0  0
   24.7350    6.6531    3.8731 N   0  3  0  0  0  0  0  0  0  0  0  0
   30.3219    0.1861    5.3682 C   0  0  0  0  0  0  0  0  0  0  0  0
   29.5781   -0.6063    3.0888 C   0  0  0  0  0  0  0  0  0  0  0  0
   27.8475    4.8727    3.5805 C   0  0  0  0  0  0  0  0  0  0  0  0
   26.9584    5.8892    3.5808 C   0  0  0  0  0  0  0  0  0  0  0  0
   26.1722    3.2776    4.0626 C   0  0  0  0  0  0  0  0  0  0  0  0
   28.4428    1.3164    4.1075 C   0  0  0  0  0  0  0  0  0  0  0  0
   27.5182    3.5709    3.8411 C   0  0  0  0  0  0  0  0  0  0  0  0
   25.6371    5.5935    3.8580 C   0  0  0  0  0  0  0  0  0  0  0  0
   25.1637    4.2538    4.0976 C   0  0  0  0  0  0  0  0  0  0  0  0
   23.7516    3.8835    4.3595 C   0  0  0  0  0  0  0  0  0  0  0  0
   29.6256    0.4741    4.0694 C   0  0  0  0  0  0  0  0  0  0  0  0
   30.2980    1.6384    2.5025 H   0  0  0  0  0  0  0  0  0  0  0  0
   29.4479    2.9407    3.5183 H   0  0  0  0  0  0  0  0  0  0  0  0
   29.7479   -0.4106    5.9289 H   0  0  0  0  0  0  0  0  0  0  0  0
   31.1946   -0.2666    5.1853 H   0  0  0  0  0  0  0  0  0  0  0  0
   30.4869    1.0438    5.8552 H   0  0  0  0  0  0  0  0  0  0  0  0
   28.9289   -1.3037    3.3924 H   0  0  0  0  0  0  0  0  0  0  0  0
   29.2861   -0.2415    2.2047 H   0  0  0  0  0  0  0  0  0  0  0  0
   30.4867   -1.0139    2.9975 H   0  0  0  0  0  0  0  0  0  0  0  0
   28.8036    5.0843    3.3777 H   0  0  0  0  0  0  0  0  0  0  0  0
   27.2471    6.8267    3.3864 H   0  0  0  0  0  0  0  0  0  0  0  0
   25.9123    2.3224    4.2038 H   0  0  0  0  0  0  0  0  0  0  0  0
  1 19  1  0  0  0  0
  2 19  1  0  0  0  0
  3 19  1  0  0  0  0
  4  9  1  0  0  0  0
  5  9  2  0  0  0  0
  6 15  2  0  0  0  0
  7 20  1  0  0  0  0
  8 15  1  0  0  0  0
  8 16  1  0  0  0  0
  9 17  1  0  0  0  0
 10 20  1  0  0  0  0
 11 20  1  0  0  0  0
 12 13  1  0  0  0  0
 12 16  2  0  0  0  0
 13 17  2  0  0  0  0
 14 16  1  0  0  0  0
 14 18  2  0  0  0  0
 15 20  1  0  0  0  0
 17 18  1  0  0  0  0
 18 19  1  0  0  0  0
  7 21  1  0  0  0  0
  8 22  1  0  0  0  0
 10 23  1  0  0  0  0
 10 24  1  0  0  0  0
 10 25  1  0  0  0  0
 11 26  1  0  0  0  0
 11 27  1  0  0  0  0
 11 28  1  0  0  0  0
 12 29  1  0  0  0  0
 13 30  1  0  0  0  0
 14 31  1  0  0  0  0
M  CHG  2   4  -1   9   1
M  END
> <pdb_id>
4OHA

> <uniprot_id>
P10275

> <usmiles>
FC(F)(F)c1c([N+]([O-])=O)ccc(NC(=O)C(O)(C)C)c1

$$$$
HH2_A_282
          07192421043D 1   1.00000     0.00000     0
            
 31 32  0  0  0  0            999 V2000
  -79.4220   86.6530   98.1970 P   0  0  0  0  0  0  0  0  0  0  0  0
  -78.1870   89.0390   97.4600 P   0  0  0  0  0  0  0  0  0  0  0  0
  -80.3370   87.0670   97.0780 O   0  0  0  0  0  0  0  0  0  0  0  0
  -80.1570   86.2940   99.4810 O   0  0  0  0  0  0  0  0  0  0  0  0
  -78.2870   85.7700   97.8000 O   0  0  0  0  0  0  0  0  0  0  0  0
  -79.4290   89.9170   97.2060 O   0  0  0  0  0  0  0  0  0  0  0  0
  -76.8580   89.6210   97.9920 O   0  0  0  0  0  0  0  0  0  0  0  0
  -80.5150   86.2320   90.7980 O   0  0  0  0  0  0  0  0  0  0  0  0
  -78.6260   87.9590   98.5570 O   0  0  0  0  0  0  0  0  0  0  0  0
  -77.7720   88.1880   96.1410 O   0  0  0  0  0  0  0  0  0  0  0  0
  -77.7850   82.5600   89.8730 N   0  0  0  0  0  0  0  0  0  0  0  0
  -76.8150   85.1770   93.6200 N   0  0  0  0  0  0  0  0  0  0  0  0
  -79.1440   84.4040   90.3340 N   0  0  0  0  0  0  0  0  0  0  0  0
  -77.3060   83.8400   91.7450 N   0  0  0  0  0  0  0  0  0  0  0  0
  -78.9800   86.7990   93.0030 N   0  0  0  0  0  0  0  0  0  0  0  0
  -78.5230   88.2320   94.9380 C   0  0  0  0  0  0  0  0  0  0  0  0
  -77.0980   86.2180   94.4000 C   0  0  0  0  0  0  0  0  0  0  0  0
  -79.4780   85.4760   91.1060 C   0  0  0  0  0  0  0  0  0  0  0  0
  -78.0690   83.6110   90.6530 C   0  0  0  0  0  0  0  0  0  0  0  0
  -78.1890   87.0370   94.0870 C   0  0  0  0  0  0  0  0  0  0  0  0
  -77.5910   84.9100   92.5360 C   0  0  0  0  0  0  0  0  0  0  0  0
  -78.6870   85.7470   92.2180 C   0  0  0  0  0  0  0  0  0  0  0  0
  -79.7940   87.2883   96.2680 H   0  0  0  0  0  0  0  0  0  0  0  0
  -79.4943   86.0290  100.1815 H   0  0  0  0  0  0  0  0  0  0  0  0
  -80.1764   89.3466   96.8653 H   0  0  0  0  0  0  0  0  0  0  0  0
  -77.0059   81.9720   90.0905 H   0  0  0  0  0  0  0  0  0  0  0  0
  -78.3520   82.3633   89.0731 H   0  0  0  0  0  0  0  0  0  0  0  0
  -79.6896   84.1916   89.5233 H   0  0  0  0  0  0  0  0  0  0  0  0
  -78.3005   89.0688   94.4378 H   0  0  0  0  0  0  0  0  0  0  0  0
  -79.4991   88.2230   95.1551 H   0  0  0  0  0  0  0  0  0  0  0  0
  -76.5354   86.4133   95.2034 H   0  0  0  0  0  0  0  0  0  0  0  0
  1  3  1  0  0  0  0
  1  4  1  0  0  0  0
  1  5  2  0  0  0  0
  1  9  1  0  0  0  0
  2  6  1  0  0  0  0
  2  7  2  0  0  0  0
  2  9  1  0  0  0  0
  2 10  1  0  0  0  0
  8 18  2  0  0  0  0
 10 16  1  0  0  0  0
 11 19  1  0  0  0  0
 12 17  1  0  0  0  0
 12 21  2  0  0  0  0
 13 18  1  0  0  0  0
 13 19  1  0  0  0  0
 14 19  2  0  0  0  0
 14 21  1  0  0  0  0
 15 20  1  0  0  0  0
 15 22  2  0  0  0  0
 16 20  1  0  0  0  0
 17 20  2  0  0  0  0
 18 22  1  0  0  0  0
 21 22  1  0  0  0  0
  3 23  1  0  0  0  0
  4 24  1  0  0  0  0
  6 25  1  0  0  0  0
 11 26  1  0  0  0  0
 11 27  1  0  0  0  0
 13 28  1  0  0  0  0
 16 29  1  0  0  0  0
 16 30  1  0  0  0  0
 17 31  1  0  0  0  0
M  END
> <pdb_id>
1TWW

> <uniprot_id>
Q81VW8

> <usmiles>
P(=O)(OP(=O)(O)O)(OCc1nc2c(nc1)N=C(NC2=O)N)O

$$$$
HH4_A_309
          07212402463D 1   1.00000     0.00000     0
            
 35 35  0  0  0  0            999 V2000
    0.3310   20.8180    9.4730 O   0  0  0  0  0  0  0  0  0  0  0  0
   -0.5080   21.6530   11.3690 O   0  0  0  0  0  0  0  0  0  0  0  0
    2.4010   23.3240    9.9610 O   0  0  0  0  0  0  0  0  0  0  0  0
    8.8910   22.3130    6.4030 C   0  0  0  0  0  0  0  0  0  0  0  0
    7.7790   24.3770    5.5880 C   0  0  0  0  0  0  0  0  0  0  0  0
    8.8150   24.3770    7.8330 C   0  0  0  0  0  0  0  0  0  0  0  0
    1.7590   21.1070   11.4080 C   0  0  0  0  0  0  0  0  0  0  0  0
    2.9610   21.0840   10.4740 C   0  0  0  0  0  0  0  0  0  0  0  0
    4.6130   23.8440    8.4010 C   0  0  0  0  0  0  0  0  0  0  0  0
    5.2930   21.5640    8.6550 C   0  0  0  0  0  0  0  0  0  0  0  0
    5.7620   24.1060    7.6850 C   0  0  0  0  0  0  0  0  0  0  0  0
    6.4330   21.8230    7.9090 C   0  0  0  0  0  0  0  0  0  0  0  0
    0.4310   21.2020   10.6900 C   0  0  0  0  0  0  0  0  0  0  0  0
    3.1930   22.4120    9.8100 C   0  0  0  0  0  0  0  0  0  0  0  0
    4.3840   22.5820    8.9320 C   0  0  0  0  0  0  0  0  0  0  0  0
    6.7050   23.1100    7.4490 C   0  0  0  0  0  0  0  0  0  0  0  0
    8.0430   23.5120    6.8200 C   0  0  0  0  0  0  0  0  0  0  0  0
    1.1340   20.4658    8.9922 H   0  0  0  0  0  0  0  0  0  0  0  0
    9.0710   21.7383    7.2013 H   0  0  0  0  0  0  0  0  0  0  0  0
    8.3998   21.7811    5.7132 H   0  0  0  0  0  0  0  0  0  0  0  0
    9.7577   22.6343    6.0213 H   0  0  0  0  0  0  0  0  0  0  0  0
    7.2237   25.1669    5.8481 H   0  0  0  0  0  0  0  0  0  0  0  0
    8.6492   24.6916    5.2089 H   0  0  0  0  0  0  0  0  0  0  0  0
    7.2914   23.8384    4.9009 H   0  0  0  0  0  0  0  0  0  0  0  0
    8.2524   25.1593    8.1003 H   0  0  0  0  0  0  0  0  0  0  0  0
    9.0313   23.8301    8.6418 H   0  0  0  0  0  0  0  0  0  0  0  0
    9.6627   24.7034    7.4149 H   0  0  0  0  0  0  0  0  0  0  0  0
    1.8465   21.8966   12.0153 H   0  0  0  0  0  0  0  0  0  0  0  0
    1.7649   20.2670   11.9505 H   0  0  0  0  0  0  0  0  0  0  0  0
    2.8058   20.3938    9.7672 H   0  0  0  0  0  0  0  0  0  0  0  0
    3.7746   20.8424   11.0029 H   0  0  0  0  0  0  0  0  0  0  0  0
    3.9388   24.5695    8.5389 H   0  0  0  0  0  0  0  0  0  0  0  0
    5.1225   20.6397    8.9964 H   0  0  0  0  0  0  0  0  0  0  0  0
    5.9203   25.0271    7.3294 H   0  0  0  0  0  0  0  0  0  0  0  0
    7.0665   21.0784    7.6989 H   0  0  0  0  0  0  0  0  0  0  0  0
  1 13  1  0  0  0  0
  2 13  2  0  0  0  0
  3 14  2  0  0  0  0
  4 17  1  0  0  0  0
  5 17  1  0  0  0  0
  6 17  1  0  0  0  0
  7  8  1  0  0  0  0
  7 13  1  0  0  0  0
  8 14  1  0  0  0  0
  9 11  1  0  0  0  0
  9 15  2  0  0  0  0
 10 12  2  0  0  0  0
 10 15  1  0  0  0  0
 11 16  2  0  0  0  0
 12 16  1  0  0  0  0
 14 15  1  0  0  0  0
 16 17  1  0  0  0  0
  1 18  1  0  0  0  0
  4 19  1  0  0  0  0
  4 20  1  0  0  0  0
  4 21  1  0  0  0  0
  5 22  1  0  0  0  0
  5 23  1  0  0  0  0
  5 24  1  0  0  0  0
  6 25  1  0  0  0  0
  6 26  1  0  0  0  0
  6 27  1  0  0  0  0
  7 28  1  0  0  0  0
  7 29  1  0  0  0  0
  8 30  1  0  0  0  0
  8 31  1  0  0  0  0
  9 32  1  0  0  0  0
 10 33  1  0  0  0  0
 11 34  1  0  0  0  0
 12 35  1  0  0  0  0
M  END
> <pdb_id>
6DXH

> <uniprot_id>
P45974

> <usmiles>
O=C(O)CCC(=O)c1ccc(cc1)C(C)(C)C

$$$$
HH6_A_301
          07192420423D 1   1.00000     0.00000     0
            
 27 29  0  0  0  0            999 V2000
   69.4326   38.3690   19.7957 O   0  0  0  0  0  0  0  0  0  0  0  0
   67.5162   32.1384   28.0916 O   0  0  0  0  0  0  0  0  0  0  0  0
   64.9714   33.9559   24.3638 N   0  0  0  0  0  0  0  0  0  0  0  0
   65.4578   34.6180   23.2144 N   0  0  0  0  0  0  0  0  0  0  0  0
   67.4966   37.0802   20.3405 C   0  0  0  0  0  0  0  0  0  0  0  0
   69.4374   37.0601   21.7890 C   0  0  0  0  0  0  0  0  0  0  0  0
   68.5974   33.2706   26.2775 C   0  0  0  0  0  0  0  0  0  0  0  0
   66.8410   36.1979   21.1890 C   0  0  0  0  0  0  0  0  0  0  0  0
   68.7759   36.2065   22.6541 C   0  0  0  0  0  0  0  0  0  0  0  0
   68.4870   34.0008   25.1091 C   0  0  0  0  0  0  0  0  0  0  0  0
   66.1876   32.9241   26.3393 C   0  0  0  0  0  0  0  0  0  0  0  0
   68.7939   37.5095   20.6335 C   0  0  0  0  0  0  0  0  0  0  0  0
   67.4365   32.7814   26.9107 C   0  0  0  0  0  0  0  0  0  0  0  0
   66.0586   33.6212   25.1299 C   0  0  0  0  0  0  0  0  0  0  0  0
   66.7459   34.8422   23.2890 C   0  0  0  0  0  0  0  0  0  0  0  0
   67.4921   35.7164   22.3380 C   0  0  0  0  0  0  0  0  0  0  0  0
   67.2160   34.1860   24.5113 C   0  0  0  0  0  0  0  0  0  0  0  0
   70.3609   38.6755   20.0063 H   0  0  0  0  0  0  0  0  0  0  0  0
   66.6860   31.7958   28.5314 H   0  0  0  0  0  0  0  0  0  0  0  0
   64.0132   33.7667   24.5787 H   0  0  0  0  0  0  0  0  0  0  0  0
   67.0380   37.4102   19.5154 H   0  0  0  0  0  0  0  0  0  0  0  0
   70.3718   37.3540   21.9901 H   0  0  0  0  0  0  0  0  0  0  0  0
   69.4981   33.0897   26.6726 H   0  0  0  0  0  0  0  0  0  0  0  0
   65.9072   35.9055   20.9829 H   0  0  0  0  0  0  0  0  0  0  0  0
   69.2125   35.9346   23.5116 H   0  0  0  0  0  0  0  0  0  0  0  0
   69.3021   34.3973   24.6868 H   0  0  0  0  0  0  0  0  0  0  0  0
   65.3818   32.5335   26.7845 H   0  0  0  0  0  0  0  0  0  0  0  0
  1 12  1  0  0  0  0
  2 13  1  0  0  0  0
  3  4  1  0  0  0  0
  3 14  1  0  0  0  0
  4 15  2  0  0  0  0
  5  8  1  0  0  0  0
  5 12  2  0  0  0  0
  6  9  2  0  0  0  0
  6 12  1  0  0  0  0
  7 10  1  0  0  0  0
  7 13  2  0  0  0  0
  8 16  2  0  0  0  0
  9 16  1  0  0  0  0
 10 17  2  0  0  0  0
 11 13  1  0  0  0  0
 11 14  2  0  0  0  0
 14 17  1  0  0  0  0
 15 16  1  0  0  0  0
 15 17  1  0  0  0  0
  1 18  1  0  0  0  0
  2 19  1  0  0  0  0
  3 20  1  0  0  0  0
  5 21  1  0  0  0  0
  6 22  1  0  0  0  0
  7 23  1  0  0  0  0
  8 24  1  0  0  0  0
  9 25  1  0  0  0  0
 10 26  1  0  0  0  0
 11 27  1  0  0  0  0
M  END
> <pdb_id>
4EEH

> <uniprot_id>
P07900

> <usmiles>
Oc1cc2NN=C(c2cc1)c3ccc(O)cc3

$$$$
HH7_A_401
          07202411533D 1   1.00000     0.00000     0
            
 33 34  0  0  0  0            999 V2000
   17.0336   -7.9874   28.0027 Cl  0  0  0  0  0  0  0  0  0  0  0  0
   16.8474   -7.7175   22.3080 Cl  0  0  0  0  0  0  0  0  0  0  0  0
   19.7020   -6.5345   22.5442 O   0  0  0  0  0  0  0  0  0  0  0  0
   23.0966   -2.2780   20.5781 N   0  0  0  0  0  0  0  0  0  0  0  0
   23.8225   -3.8703   18.9615 N   0  0  0  0  0  0  0  0  0  0  0  0
   21.6500   -4.4064   20.2694 N   0  0  0  0  0  0  0  0  0  0  0  0
   21.0284   -6.0845   22.5755 C   0  0  0  0  0  0  0  0  0  0  0  0
   24.3084   -1.7714   19.9841 C   0  0  0  0  0  0  0  0  0  0  0  0
   24.7787   -2.7803   18.9623 C   0  0  0  0  0  0  0  0  0  0  0  0
   20.6932   -3.9746   21.2735 C   0  0  0  0  0  0  0  0  0  0  0  0
   21.0325   -4.5588   22.6432 C   0  0  0  0  0  0  0  0  0  0  0  0
   19.2251   -6.9704   26.4395 C   0  0  0  0  0  0  0  0  0  0  0  0
   19.8920   -6.6094   25.1052 C   0  0  0  0  0  0  0  0  0  0  0  0
   17.0739   -7.7951   25.1558 C   0  0  0  0  0  0  0  0  0  0  0  0
   17.8159   -7.5629   26.4579 C   0  0  0  0  0  0  0  0  0  0  0  0
   22.7892   -3.5695   19.9546 C   0  0  0  0  0  0  0  0  0  0  0  0
   17.7273   -7.4401   23.8313 C   0  0  0  0  0  0  0  0  0  0  0  0
   19.1344   -6.8486   23.7909 C   0  0  0  0  0  0  0  0  0  0  0  0
   22.5592   -1.8274   21.2910 H   0  0  0  0  0  0  0  0  0  0  0  0
   21.5224   -5.2786   19.7972 H   0  0  0  0  0  0  0  0  0  0  0  0
   21.5043   -6.3850   21.7490 H   0  0  0  0  0  0  0  0  0  0  0  0
   21.4903   -6.4574   23.3803 H   0  0  0  0  0  0  0  0  0  0  0  0
   25.0075   -1.6496   20.6887 H   0  0  0  0  0  0  0  0  0  0  0  0
   24.1280   -0.8946   19.5384 H   0  0  0  0  0  0  0  0  0  0  0  0
   24.8170   -2.3580   18.0567 H   0  0  0  0  0  0  0  0  0  0  0  0
   25.6857   -3.1209   19.2099 H   0  0  0  0  0  0  0  0  0  0  0  0
   19.7790   -4.2792   21.0059 H   0  0  0  0  0  0  0  0  0  0  0  0
   20.7083   -2.9764   21.3313 H   0  0  0  0  0  0  0  0  0  0  0  0
   21.9388   -4.2421   22.9231 H   0  0  0  0  0  0  0  0  0  0  0  0
   20.3525   -4.2551   23.3105 H   0  0  0  0  0  0  0  0  0  0  0  0
   19.7135   -6.8177   27.2987 H   0  0  0  0  0  0  0  0  0  0  0  0
   20.8134   -6.2212   25.0916 H   0  0  0  0  0  0  0  0  0  0  0  0
   16.1523   -8.1829   25.1691 H   0  0  0  0  0  0  0  0  0  0  0  0
  1 15  1  0  0  0  0
  2 17  1  0  0  0  0
  3  7  1  0  0  0  0
  3 18  1  0  0  0  0
  4  8  1  0  0  0  0
  4 16  1  0  0  0  0
  5  9  1  0  0  0  0
  5 16  2  0  0  0  0
  6 10  1  0  0  0  0
  6 16  1  0  0  0  0
  7 11  1  0  0  0  0
  8  9  1  0  0  0  0
 10 11  1  0  0  0  0
 12 13  2  0  0  0  0
 12 15  1  0  0  0  0
 13 18  1  0  0  0  0
 14 15  2  0  0  0  0
 14 17  1  0  0  0  0
 17 18  2  0  0  0  0
  4 19  1  0  0  0  0
  6 20  1  0  0  0  0
  7 21  1  0  0  0  0
  7 22  1  0  0  0  0
  8 23  1  0  0  0  0
  8 24  1  0  0  0  0
  9 25  1  0  0  0  0
  9 26  1  0  0  0  0
 10 27  1  0  0  0  0
 10 28  1  0  0  0  0
 11 29  1  0  0  0  0
 11 30  1  0  0  0  0
 12 31  1  0  0  0  0
 13 32  1  0  0  0  0
 14 33  1  0  0  0  0
M  END
> <pdb_id>
6DY7

> <uniprot_id>
P61964

> <usmiles>
Clc1c(OCCCNC2=NCCN2)ccc(Cl)c1

$$$$
HHR_A_181
          07202409463D 1   1.00000     0.00000     0
            
 21 22  0  0  0  0            999 V2000
   -9.8302   18.2494  -17.9786 O   0  0  0  0  0  0  0  0  0  0  0  0
   -6.5310   21.2383  -16.0010 O   0  0  0  0  0  0  0  0  0  0  0  0
  -12.3286   19.7287  -21.5409 N   0  0  0  0  0  0  0  0  0  0  0  0
   -9.1858   22.6001  -19.8151 N   0  0  0  0  0  0  0  0  0  0  0  0
  -10.7287   21.1640  -20.7308 N   0  0  0  0  0  0  0  0  0  0  0  0
   -8.5257   20.7200  -17.7873 N   0  0  0  0  0  0  0  0  0  0  0  0
  -11.0018   19.0309  -19.7826 N   0  0  0  0  0  0  0  0  0  0  0  0
   -8.2722   22.8388  -18.8710 C   0  0  0  0  0  0  0  0  0  0  0  0
   -6.9568   22.3051  -16.7738 C   0  0  0  0  0  0  0  0  0  0  0  0
  -11.3019   19.9870  -20.7000 C   0  0  0  0  0  0  0  0  0  0  0  0
  -10.0666   19.1553  -18.8016 C   0  0  0  0  0  0  0  0  0  0  0  0
   -7.9279   21.9028  -17.8691 C   0  0  0  0  0  0  0  0  0  0  0  0
   -9.7773   21.4022  -19.7971 C   0  0  0  0  0  0  0  0  0  0  0  0
   -9.4066   20.4518  -18.7822 C   0  0  0  0  0  0  0  0  0  0  0  0
   -6.4704   20.4731  -16.5875 H   0  0  0  0  0  0  0  0  0  0  0  0
  -13.2431   19.8310  -21.2349 H   0  0  0  0  0  0  0  0  0  0  0  0
  -12.1508   19.4395  -22.4495 H   0  0  0  0  0  0  0  0  0  0  0  0
  -11.4804   18.1898  -19.8394 H   0  0  0  0  0  0  0  0  0  0  0  0
   -7.7893   23.8040  -18.8597 H   0  0  0  0  0  0  0  0  0  0  0  0
   -6.0872   22.7728  -17.2332 H   0  0  0  0  0  0  0  0  0  0  0  0
   -7.4446   23.0334  -16.1262 H   0  0  0  0  0  0  0  0  0  0  0  0
  1 11  2  0  0  0  0
  2  9  1  0  0  0  0
  2 15  1  0  0  0  0
  3 10  1  0  0  0  0
  3 16  1  0  0  0  0
  3 17  1  0  0  0  0
  4  8  1  0  0  0  0
  4 13  2  0  0  0  0
  5 10  2  0  0  0  0
  5 13  1  0  0  0  0
  6 12  1  0  0  0  0
  6 14  2  0  0  0  0
  7 10  1  0  0  0  0
  7 11  1  0  0  0  0
  7 18  1  0  0  0  0
  8 12  2  0  0  0  0
  8 19  1  0  0  0  0
  9 12  1  0  0  0  0
  9 20  1  0  0  0  0
  9 21  1  0  0  0  0
 11 14  1  0  0  0  0
 13 14  1  0  0  0  0
M  END
> <pdb_id>
3IP0

> <uniprot_id>
P26281

> <usmiles>
O=C1NC(=Nc2ncc(nc21)CO)N

$$$$
HHR_A_303
          07202417423D 1   1.00000     0.00000     0
            
 19 20  0  0  0  0            999 V2000
  -26.0550   16.4440   -8.8346 O   0  0  0  0  0  0  0  0  0  0  0  0
  -30.5579   14.5378   -9.7813 O   0  0  0  0  0  0  0  0  0  0  0  0
  -32.0868   14.4991  -14.1821 N   0  0  0  0  0  0  0  0  0  0  0  0
  -27.9568   16.3767  -13.2552 N   0  0  0  0  0  0  0  0  0  0  0  0
  -31.2858   14.4669  -11.9272 N   0  0  0  0  0  0  0  0  0  0  0  0
  -30.0139   15.4276  -13.6623 N   0  0  0  0  0  0  0  0  0  0  0  0
  -28.2010   15.7748  -10.4870 N   0  0  0  0  0  0  0  0  0  0  0  0
  -25.9890   16.7848  -10.1454 C   0  0  0  0  0  0  0  0  0  0  0  0
  -26.9874   16.6922  -12.3061 C   0  0  0  0  0  0  0  0  0  0  0  0
  -31.1229   14.7944  -13.2772 C   0  0  0  0  0  0  0  0  0  0  0  0
  -30.3277   14.8153  -10.9669 C   0  0  0  0  0  0  0  0  0  0  0  0
  -27.0842   16.3881  -10.9636 C   0  0  0  0  0  0  0  0  0  0  0  0
  -29.0377   15.7549  -12.7636 C   0  0  0  0  0  0  0  0  0  0  0  0
  -29.1651   15.4458  -11.3809 C   0  0  0  0  0  0  0  0  0  0  0  0
  -31.9590   14.7382  -15.1447 H   0  0  0  0  0  0  0  0  0  0  0  0
  -32.9260   14.0419  -13.8876 H   0  0  0  0  0  0  0  0  0  0  0  0
  -32.1061   13.9719  -11.6407 H   0  0  0  0  0  0  0  0  0  0  0  0
  -25.2103   17.2892  -10.5185 H   0  0  0  0  0  0  0  0  0  0  0  0
  -26.1668   17.1709  -12.6183 H   0  0  0  0  0  0  0  0  0  0  0  0
  1  8  2  0  0  0  0
  2 11  2  0  0  0  0
  3 10  1  0  0  0  0
  4  9  2  0  0  0  0
  4 13  1  0  0  0  0
  5 10  1  0  0  0  0
  5 11  1  0  0  0  0
  6 10  2  0  0  0  0
  6 13  1  0  0  0  0
  7 12  2  0  0  0  0
  7 14  1  0  0  0  0
  8 12  1  0  0  0  0
  9 12  1  0  0  0  0
 11 14  1  0  0  0  0
 13 14  2  0  0  0  0
  3 15  1  0  0  0  0
  3 16  1  0  0  0  0
  5 17  1  0  0  0  0
  8 18  1  0  0  0  0
  9 19  1  0  0  0  0
M  END
> <pdb_id>
8D5H

> <uniprot_id>
nan

> <usmiles>
O=C1NC(=Nc2ncc(nc21)C=O)N

$$$$
HHR_B_304
          07202417423D 1   1.00000     0.00000     0
            
 21 22  0  0  0  0            999 V2000
  -25.1330   17.6530  -10.4600 O   0  0  0  0  0  0  0  0  0  0  0  0
  -30.6000   14.6180   -9.8120 O   0  0  0  0  0  0  0  0  0  0  0  0
  -32.1130   14.4320  -14.1770 N   0  0  0  0  0  0  0  0  0  0  0  0
  -27.9360   16.4310  -13.3030 N   0  0  0  0  0  0  0  0  0  0  0  0
  -31.2990   14.5140  -11.9580 N   0  0  0  0  0  0  0  0  0  0  0  0
  -30.0090   15.4130  -13.7160 N   0  0  0  0  0  0  0  0  0  0  0  0
  -28.2330   15.8790  -10.5140 N   0  0  0  0  0  0  0  0  0  0  0  0
  -26.1260   16.8980   -9.9550 C   0  0  0  0  0  0  0  0  0  0  0  0
  -26.9610   16.8460  -12.2920 C   0  0  0  0  0  0  0  0  0  0  0  0
  -31.1300   14.8010  -13.3100 C   0  0  0  0  0  0  0  0  0  0  0  0
  -30.3390   14.8670  -11.0010 C   0  0  0  0  0  0  0  0  0  0  0  0
  -27.1090   16.5210  -10.9250 C   0  0  0  0  0  0  0  0  0  0  0  0
  -29.0520   15.8000  -12.8150 C   0  0  0  0  0  0  0  0  0  0  0  0
  -29.1970   15.5280  -11.4280 C   0  0  0  0  0  0  0  0  0  0  0  0
  -24.4844   17.8800   -9.7335 H   0  0  0  0  0  0  0  0  0  0  0  0
  -32.0173   14.6259  -15.1533 H   0  0  0  0  0  0  0  0  0  0  0  0
  -32.9306   13.9671  -13.8374 H   0  0  0  0  0  0  0  0  0  0  0  0
  -32.1295   14.0424  -11.6617 H   0  0  0  0  0  0  0  0  0  0  0  0
  -26.5797   17.4161   -9.2299 H   0  0  0  0  0  0  0  0  0  0  0  0
  -25.7263   16.0661   -9.5701 H   0  0  0  0  0  0  0  0  0  0  0  0
  -26.1638   17.3772  -12.5788 H   0  0  0  0  0  0  0  0  0  0  0  0
  1  8  1  0  0  0  0
  2 11  2  0  0  0  0
  3 10  1  0  0  0  0
  4  9  2  0  0  0  0
  4 13  1  0  0  0  0
  5 10  1  0  0  0  0
  5 11  1  0  0  0  0
  6 10  2  0  0  0  0
  6 13  1  0  0  0  0
  7 12  2  0  0  0  0
  7 14  1  0  0  0  0
  8 12  1  0  0  0  0
  9 12  1  0  0  0  0
 11 14  1  0  0  0  0
 13 14  2  0  0  0  0
  1 15  1  0  0  0  0
  3 16  1  0  0  0  0
  3 17  1  0  0  0  0
  5 18  1  0  0  0  0
  8 19  1  0  0  0  0
  8 20  1  0  0  0  0
  9 21  1  0  0  0  0
M  END
> <pdb_id>
8D5H

> <uniprot_id>
nan

> <usmiles>
O=C1NC(=Nc2ncc(nc21)CO)N

$$$$
HI3_A_578
          07192423343D 1   1.00000     0.00000     0
            
 56 60  0  0  0  0            999 V2000
   24.2650   45.2990   40.4500 S   0  0  0  0  0  0  0  0  0  0  0  0
   29.2330   46.3300   44.6090 F   0  0  0  0  0  0  0  0  0  0  0  0
   27.5940   42.3560   41.2550 F   0  0  0  0  0  0  0  0  0  0  0  0
   26.2940   40.9330   48.3990 F   0  0  0  0  0  0  0  0  0  0  0  0
   23.8690   44.2510   39.5310 O   0  0  0  0  0  0  0  0  0  0  0  0
   23.6720   46.5930   40.3360 O   0  0  0  0  0  0  0  0  0  0  0  0
   24.3540   46.6540   43.0750 O   0  0  0  0  0  0  0  0  0  0  0  0
   21.5600   45.6500   44.1330 O   0  0  0  0  0  0  0  0  0  0  0  0
   24.0850   44.6680   41.9920 N   0  0  0  0  0  0  0  0  0  0  0  0
   21.0890   47.4830   45.4480 N   0  0  0  0  0  0  0  0  0  0  0  0
   25.1840   43.5020   44.4850 N   0  0  0  0  0  0  0  0  0  0  0  0
   24.9070   42.7410   50.0810 C   0  0  0  0  0  0  0  0  0  0  0  0
   21.3990   48.3320   46.4930 C   0  0  0  0  0  0  0  0  0  0  0  0
   25.9820   42.8120   43.4670 C   0  0  0  0  0  0  0  0  0  0  0  0
   22.5050   48.1260   47.2370 C   0  0  0  0  0  0  0  0  0  0  0  0
   26.6340   46.7300   40.5350 C   0  0  0  0  0  0  0  0  0  0  0  0
   26.4440   46.3480   39.0890 C   0  0  0  0  0  0  0  0  0  0  0  0
   29.6190   45.0430   42.6510 C   0  0  0  0  0  0  0  0  0  0  0  0
   29.1940   44.0230   41.7920 C   0  0  0  0  0  0  0  0  0  0  0  0
   23.3870   47.0160   46.9370 C   0  0  0  0  0  0  0  0  0  0  0  0
   25.8050   42.0410   46.4200 C   0  0  0  0  0  0  0  0  0  0  0  0
   27.6930   44.6440   44.0650 C   0  0  0  0  0  0  0  0  0  0  0  0
   24.3420   43.9590   47.9310 C   0  0  0  0  0  0  0  0  0  0  0  0
   26.0540   45.4010   40.1820 C   0  0  0  0  0  0  0  0  0  0  0  0
   24.3030   45.4280   43.1210 C   0  0  0  0  0  0  0  0  0  0  0  0
   21.8670   46.3970   45.0920 C   0  0  0  0  0  0  0  0  0  0  0  0
   28.8650   45.3460   43.7740 C   0  0  0  0  0  0  0  0  0  0  0  0
   28.0140   43.3160   42.0780 C   0  0  0  0  0  0  0  0  0  0  0  0
   25.6770   41.9510   47.8070 C   0  0  0  0  0  0  0  0  0  0  0  0
   25.1900   43.1230   45.8030 C   0  0  0  0  0  0  0  0  0  0  0  0
   24.4630   44.6690   44.3290 C   0  0  0  0  0  0  0  0  0  0  0  0
   24.9840   42.8910   48.5780 C   0  0  0  0  0  0  0  0  0  0  0  0
   27.2460   43.6000   43.2150 C   0  0  0  0  0  0  0  0  0  0  0  0
   23.1320   46.1590   45.9050 C   0  0  0  0  0  0  0  0  0  0  0  0
   24.4530   44.0760   46.5210 C   0  0  0  0  0  0  0  0  0  0  0  0
   23.9650   45.0180   45.5880 C   0  0  0  0  0  0  0  0  0  0  0  0
   23.8113   43.7118   42.0961 H   0  0  0  0  0  0  0  0  0  0  0  0
   20.2582   47.6635   44.9215 H   0  0  0  0  0  0  0  0  0  0  0  0
   25.4197   41.9296   50.3617 H   0  0  0  0  0  0  0  0  0  0  0  0
   25.2994   43.5507   50.5173 H   0  0  0  0  0  0  0  0  0  0  0  0
   23.9510   42.6435   50.3577 H   0  0  0  0  0  0  0  0  0  0  0  0
   20.7989   49.1049   46.6993 H   0  0  0  0  0  0  0  0  0  0  0  0
   25.4560   42.7420   42.6194 H   0  0  0  0  0  0  0  0  0  0  0  0
   26.2172   41.8953   43.7900 H   0  0  0  0  0  0  0  0  0  0  0  0
   22.7168   48.7404   47.9971 H   0  0  0  0  0  0  0  0  0  0  0  0
   26.0560   47.4348   40.9463 H   0  0  0  0  0  0  0  0  0  0  0  0
   27.5550   46.7875   40.9204 H   0  0  0  0  0  0  0  0  0  0  0  0
   27.2382   46.1504   38.5144 H   0  0  0  0  0  0  0  0  0  0  0  0
   25.7392   46.7976   38.5403 H   0  0  0  0  0  0  0  0  0  0  0  0
   30.4594   45.5488   42.4563 H   0  0  0  0  0  0  0  0  0  0  0  0
   29.7285   43.7981   40.9773 H   0  0  0  0  0  0  0  0  0  0  0  0
   24.2018   46.8743   47.4992 H   0  0  0  0  0  0  0  0  0  0  0  0
   26.3150   41.3592   45.8956 H   0  0  0  0  0  0  0  0  0  0  0  0
   27.1640   44.8796   44.8803 H   0  0  0  0  0  0  0  0  0  0  0  0
   23.8145   44.6271   48.4558 H   0  0  0  0  0  0  0  0  0  0  0  0
   26.6084   44.5816   40.3274 H   0  0  0  0  0  0  0  0  0  0  0  0
  1  5  2  0  0  0  0
  1  6  2  0  0  0  0
  1  9  1  0  0  0  0
  1 24  1  0  0  0  0
  2 27  1  0  0  0  0
  3 28  1  0  0  0  0
  4 29  1  0  0  0  0
  7 25  2  0  0  0  0
  8 26  2  0  0  0  0
  9 25  1  0  0  0  0
 10 13  1  0  0  0  0
 10 26  1  0  0  0  0
 11 14  1  0  0  0  0
 11 30  1  0  0  0  0
 11 31  1  0  0  0  0
 12 32  1  0  0  0  0
 13 15  2  0  0  0  0
 14 33  1  0  0  0  0
 15 20  1  0  0  0  0
 16 17  1  0  0  0  0
 16 24  1  0  0  0  0
 17 24  1  0  0  0  0
 18 19  1  0  0  0  0
 18 27  2  0  0  0  0
 19 28  2  0  0  0  0
 20 34  2  0  0  0  0
 21 29  1  0  0  0  0
 21 30  2  0  0  0  0
 22 27  1  0  0  0  0
 22 33  2  0  0  0  0
 23 32  1  0  0  0  0
 23 35  2  0  0  0  0
 25 31  1  0  0  0  0
 26 34  1  0  0  0  0
 28 33  1  0  0  0  0
 29 32  2  0  0  0  0
 30 35  1  0  0  0  0
 31 36  2  0  0  0  0
 34 36  1  0  0  0  0
 35 36  1  0  0  0  0
  9 37  1  0  0  0  0
 10 38  1  0  0  0  0
 12 39  1  0  0  0  0
 12 40  1  0  0  0  0
 12 41  1  0  0  0  0
 13 42  1  0  0  0  0
 14 43  1  0  0  0  0
 14 44  1  0  0  0  0
 15 45  1  0  0  0  0
 16 46  1  0  0  0  0
 16 47  1  0  0  0  0
 17 48  1  0  0  0  0
 17 49  1  0  0  0  0
 18 50  1  0  0  0  0
 19 51  1  0  0  0  0
 20 52  1  0  0  0  0
 21 53  1  0  0  0  0
 22 54  1  0  0  0  0
 23 55  1  0  0  0  0
 24 56  1  0  0  0  0
M  END
> <pdb_id>
3TYV

> <uniprot_id>
O92972

> <usmiles>
S(=O)(=O)(NC(=O)C=1N(c2c(cc(c(F)c2)C)C1C=3C(=O)NC=CC3)Cc4c(F)ccc(F)c4)C5CC5

$$$$
HIS_A_301
          07202403193D 1   1.00000     0.00000     0
            
 20 20  0  0  0  0            999 V2000
   -0.2305   -0.9950  -12.3678 N   0  0  0  0  0  0  0  0  0  0  0  0
   -0.3221   -1.9147  -11.2021 C   0  0  2  0  0  0  0  0  0  0  0  0
   -0.5867   -1.0930   -9.9298 C   0  0  0  0  0  0  0  0  0  0  0  0
   -0.7420    0.1362  -10.0652 O   0  0  0  0  0  0  0  0  0  0  0  0
    0.9270   -2.8294  -11.1225 C   0  0  0  0  0  0  0  0  0  0  0  0
    2.2272   -2.1923  -10.7441 C   0  0  0  0  0  0  0  0  0  0  0  0
    2.5444   -0.8839  -11.0419 N   0  0  0  0  0  0  0  0  0  0  0  0
    3.2943   -2.6833  -10.0852 C   0  0  0  0  0  0  0  0  0  0  0  0
    3.7519   -0.5990  -10.5842 C   0  0  0  0  0  0  0  0  0  0  0  0
    4.2334   -1.6875   -9.9922 N   0  3  0  0  0  0  0  0  0  0  0  0
   -0.7003   -1.7176   -8.8639 O   0  5  0  0  0  0  0  0  0  0  0  0
   -1.0448   -0.4154  -12.3999 H   0  0  0  0  0  0  0  0  0  0  0  0
    0.5835   -0.4214  -12.2767 H   0  0  0  0  0  0  0  0  0  0  0  0
   -1.1163   -2.5046  -11.3480 H   0  0  0  0  0  0  0  0  0  0  0  0
    1.0494   -3.2482  -12.0223 H   0  0  0  0  0  0  0  0  0  0  0  0
    0.7344   -3.5411  -10.4469 H   0  0  0  0  0  0  0  0  0  0  0  0
    1.9500   -0.2456  -11.5311 H   0  0  0  0  0  0  0  0  0  0  0  0
    3.3861   -3.6121   -9.7262 H   0  0  0  0  0  0  0  0  0  0  0  0
    4.2204    0.2804  -10.6686 H   0  0  0  0  0  0  0  0  0  0  0  0
    5.1285   -1.7670   -9.5533 H   0  0  0  0  0  0  0  0  0  0  0  0
  1  2  1  0  0  0  0
  2  5  1  0  0  0  0
  2  3  1  0  0  0  0
  5  6  1  0  0  0  0
  6  7  1  0  0  0  0
  6  8  2  0  0  0  0
  7  9  1  0  0  0  0
  9 10  2  0  0  0  0
 10  8  1  0  0  0  0
  3  4  2  0  0  0  0
  3 11  1  0  0  0  0
  1 12  1  0  0  0  0
  1 13  1  0  0  0  0
  2 14  1  0  0  0  0
  5 15  1  0  0  0  0
  5 16  1  0  0  0  0
  7 17  1  0  0  0  0
  8 18  1  0  0  0  0
  9 19  1  0  0  0  0
 10 20  1  0  0  0  0
M  CHG  2  10   1  11  -1
M  END
> <pdb_id>
6MKW

> <uniprot_id>
nan

> <usmiles>
[O-]C(=O)[C@@H](N)CC=1NC=[NH+]C1

$$$$
HIS_A_504
          07202408503D 1   1.00000     0.00000     0
            
 20 20  0  0  0  0            999 V2000
   36.7051    4.4519   38.6718 N   0  0  0  0  0  0  0  0  0  0  0  0
   37.7916    5.3303   38.1508 C   0  0  2  0  0  0  0  0  0  0  0  0
   38.4758    6.1131   39.2627 C   0  0  0  0  0  0  0  0  0  0  0  0
   39.5557    6.6644   39.0650 O   0  0  0  0  0  0  0  0  0  0  0  0
   37.2701    6.2631   37.0446 C   0  0  0  0  0  0  0  0  0  0  0  0
   36.3130    7.3163   37.5181 C   0  0  0  0  0  0  0  0  0  0  0  0
   36.2660    8.5767   36.9623 N   0  0  0  0  0  0  0  0  0  0  0  0
   35.3650    7.2984   38.4858 C   0  0  0  0  0  0  0  0  0  0  0  0
   35.3294    9.2879   37.5650 C   0  0  0  0  0  0  0  0  0  0  0  0
   34.7657    8.5339   38.4910 N   0  3  0  0  0  0  0  0  0  0  0  0
   37.9782    6.1960   40.3875 O   0  5  0  0  0  0  0  0  0  0  0  0
   37.0715    3.8576   39.3879 H   0  0  0  0  0  0  0  0  0  0  0  0
   35.9722    5.0171   39.0504 H   0  0  0  0  0  0  0  0  0  0  0  0
   38.4817    4.7361   37.7377 H   0  0  0  0  0  0  0  0  0  0  0  0
   36.8047    5.7040   36.3585 H   0  0  0  0  0  0  0  0  0  0  0  0
   38.0549    6.7199   36.6258 H   0  0  0  0  0  0  0  0  0  0  0  0
   36.8499    8.9023   36.2187 H   0  0  0  0  0  0  0  0  0  0  0  0
   35.1430    6.5289   39.0847 H   0  0  0  0  0  0  0  0  0  0  0  0
   35.0885   10.2355   37.3555 H   0  0  0  0  0  0  0  0  0  0  0  0
   34.0228    8.8169   39.0977 H   0  0  0  0  0  0  0  0  0  0  0  0
  1  2  1  0  0  0  0
  2  5  1  0  0  0  0
  2  3  1  0  0  0  0
  5  6  1  0  0  0  0
  6  7  1  0  0  0  0
  6  8  2  0  0  0  0
  7  9  1  0  0  0  0
  9 10  2  0  0  0  0
 10  8  1  0  0  0  0
  3  4  2  0  0  0  0
  3 11  1  0  0  0  0
  1 12  1  0  0  0  0
  1 13  1  0  0  0  0
  2 14  1  0  0  0  0
  5 15  1  0  0  0  0
  5 16  1  0  0  0  0
  7 17  1  0  0  0  0
  8 18  1  0  0  0  0
  9 19  1  0  0  0  0
 10 20  1  0  0  0  0
M  CHG  2  10   1  11  -1
M  END
> <pdb_id>
2Q2C

> <uniprot_id>
nan

> <usmiles>
[O-]C(=O)[C@@H](N)CC=1NC=[NH+]C1

$$$$
HJG_D_302
          07202412553D 1   1.00000     0.00000     0
            
 41 44  0  0  0  0            999 V2000
   58.2266   22.0683   37.6366 Cl  0  0  0  0  0  0  0  0  0  0  0  0
   50.3814   27.7176   40.9806 O   0  0  0  0  0  0  0  0  0  0  0  0
   51.4102   23.4626   42.1245 N   0  0  0  0  0  0  0  0  0  0  0  0
   51.8815   22.1731   41.9106 N   0  0  0  0  0  0  0  0  0  0  0  0
   51.9182   23.2229   39.9887 N   0  0  0  0  0  0  0  0  0  0  0  0
   51.6942   26.7185   42.6934 C   0  0  0  0  0  0  0  0  0  0  0  0
   49.3178   26.0056   42.2521 C   0  0  0  0  0  0  0  0  0  0  0  0
   52.0631   23.6081   38.6658 C   0  0  0  0  0  0  0  0  0  0  0  0
   51.7542   24.8724   38.3088 C   0  0  0  0  0  0  0  0  0  0  0  0
   55.7001   21.1374   37.5109 C   0  0  0  0  0  0  0  0  0  0  0  0
   56.3763   22.1000   39.6050 C   0  0  0  0  0  0  0  0  0  0  0  0
   51.3193   25.7948   39.2656 C   0  0  0  0  0  0  0  0  0  0  0  0
   54.4700   20.8229   38.0590 C   0  0  0  0  0  0  0  0  0  0  0  0
   55.1433   21.7728   40.1459 C   0  0  0  0  0  0  0  0  0  0  0  0
   52.5329   19.4106   40.5120 C   0  0  0  0  0  0  0  0  0  0  0  0
   51.8655   19.8421   39.2661 C   0  0  0  0  0  0  0  0  0  0  0  0
   56.6440   21.7625   38.2933 C   0  0  0  0  0  0  0  0  0  0  0  0
   51.4435   24.1015   40.9643 C   0  0  0  0  0  0  0  0  0  0  0  0
   52.1805   22.0405   40.6370 C   0  0  0  0  0  0  0  0  0  0  0  0
   54.1703   21.1280   39.3846 C   0  0  0  0  0  0  0  0  0  0  0  0
   51.1355   25.4541   40.5828 C   0  0  0  0  0  0  0  0  0  0  0  0
   50.6324   26.4639   41.6288 C   0  0  0  0  0  0  0  0  0  0  0  0
   52.7964   20.8114   39.9796 C   0  0  0  0  0  0  0  0  0  0  0  0
   50.0970   28.3725   41.6710 H   0  0  0  0  0  0  0  0  0  0  0  0
   52.4578   27.4047   42.3289 H   0  0  0  0  0  0  0  0  0  0  0  0
   52.2126   25.8267   43.0391 H   0  0  0  0  0  0  0  0  0  0  0  0
   51.2610   27.1682   43.5843 H   0  0  0  0  0  0  0  0  0  0  0  0
   48.8578   26.7662   42.8798 H   0  0  0  0  0  0  0  0  0  0  0  0
   49.4298   25.1260   42.8830 H   0  0  0  0  0  0  0  0  0  0  0  0
   48.5902   25.7587   41.4802 H   0  0  0  0  0  0  0  0  0  0  0  0
   52.4089   22.8598   37.9546 H   0  0  0  0  0  0  0  0  0  0  0  0
   51.7820   25.1792   37.2662 H   0  0  0  0  0  0  0  0  0  0  0  0
   55.9247   20.8973   36.4721 H   0  0  0  0  0  0  0  0  0  0  0  0
   57.1271   22.6222   40.1955 H   0  0  0  0  0  0  0  0  0  0  0  0
   51.1655   26.8124   38.9100 H   0  0  0  0  0  0  0  0  0  0  0  0
   53.7398   20.3573   37.4017 H   0  0  0  0  0  0  0  0  0  0  0  0
   54.9445   22.0108   41.1895 H   0  0  0  0  0  0  0  0  0  0  0  0
   51.9428   19.2544   41.4136 H   0  0  0  0  0  0  0  0  0  0  0  0
   53.3200   18.6586   40.4769 H   0  0  0  0  0  0  0  0  0  0  0  0
   52.1208   19.3611   38.3238 H   0  0  0  0  0  0  0  0  0  0  0  0
   50.8041   20.0821   39.2494 H   0  0  0  0  0  0  0  0  0  0  0  0
  1 17  1  0  0  0  0
  2 22  1  0  0  0  0
  2 24  1  0  0  0  0
  3  4  1  0  0  0  0
  3 18  2  0  0  0  0
  4 19  2  0  0  0  0
  5  8  1  0  0  0  0
  5 18  1  0  0  0  0
  5 19  1  0  0  0  0
  6 22  1  0  0  0  0
  6 25  1  0  0  0  0
  6 26  1  0  0  0  0
  6 27  1  0  0  0  0
  7 22  1  0  0  0  0
  7 28  1  0  0  0  0
  7 29  1  0  0  0  0
  7 30  1  0  0  0  0
  8  9  2  0  0  0  0
  8 31  1  0  0  0  0
  9 12  1  0  0  0  0
  9 32  1  0  0  0  0
 10 13  2  0  0  0  0
 10 17  1  0  0  0  0
 10 33  1  0  0  0  0
 11 14  1  0  0  0  0
 11 17  2  0  0  0  0
 11 34  1  0  0  0  0
 12 21  2  0  0  0  0
 12 35  1  0  0  0  0
 13 20  1  0  0  0  0
 13 36  1  0  0  0  0
 14 20  2  0  0  0  0
 14 37  1  0  0  0  0
 15 16  1  0  0  0  0
 15 23  1  0  0  0  0
 15 38  1  0  0  0  0
 15 39  1  0  0  0  0
 16 23  1  0  0  0  0
 16 40  1  0  0  0  0
 16 41  1  0  0  0  0
 18 21  1  0  0  0  0
 19 23  1  0  0  0  0
 20 23  1  0  0  0  0
 21 22  1  0  0  0  0
M  END
> <pdb_id>
5QII

> <uniprot_id>
P28845

> <usmiles>
Clc1ccc(cc1)C2(C3=NN=C4N3C=CC=C4C(O)(C)C)CC2

$$$$
HJP_A_203
          07202403273D 1   1.00000     0.00000     0
            
 18 18  0  0  0  0            999 V2000
    7.4899   17.9940  -10.9725 O   0  0  0  0  0  0  0  0  0  0  0  0
    7.2962   19.0640  -12.8226 O   0  0  0  0  0  0  0  0  0  0  0  0
    9.8120   21.9375   -8.3597 O   0  0  0  0  0  0  0  0  0  0  0  0
    8.7492   19.4572   -8.9707 O   0  0  0  0  0  0  0  0  0  0  0  0
    8.2856   21.2257  -12.1041 O   0  0  0  0  0  0  0  0  0  0  0  0
    8.8853   23.3811  -12.8216 C   0  0  0  0  0  0  0  0  0  0  0  0
    9.3614   22.6835  -10.4873 C   0  0  0  0  0  0  0  0  0  0  0  0
    7.6874   19.0392  -11.6450 C   0  0  0  0  0  0  0  0  0  0  0  0
    8.8475   22.4206  -11.7660 C   0  0  0  0  0  0  0  0  0  0  0  0
    9.3520   21.6979   -9.5036 C   0  0  0  0  0  0  0  0  0  0  0  0
    8.7426   20.4752   -9.8630 C   0  0  0  0  0  0  0  0  0  0  0  0
    8.2610   20.2189  -11.1623 C   0  0  0  0  0  0  0  0  0  0  0  0
    7.7945   17.9464  -10.0212 H   0  0  0  0  0  0  0  0  0  0  0  0
    8.3231   18.5836   -9.2057 H   0  0  0  0  0  0  0  0  0  0  0  0
    9.3103   24.2236  -12.4906 H   0  0  0  0  0  0  0  0  0  0  0  0
    9.4184   23.0165  -13.5851 H   0  0  0  0  0  0  0  0  0  0  0  0
    7.9537   23.5760  -13.1285 H   0  0  0  0  0  0  0  0  0  0  0  0
    9.7377   23.5866  -10.2804 H   0  0  0  0  0  0  0  0  0  0  0  0
  1  8  1  0  0  0  0
  2  8  2  0  0  0  0
  3 10  2  0  0  0  0
  4 11  1  0  0  0  0
  5  9  1  0  0  0  0
  5 12  1  0  0  0  0
  6  9  1  0  0  0  0
  7  9  2  0  0  0  0
  7 10  1  0  0  0  0
  8 12  1  0  0  0  0
 10 11  1  0  0  0  0
 11 12  2  0  0  0  0
  1 13  1  0  0  0  0
  4 14  1  0  0  0  0
  6 15  1  0  0  0  0
  6 16  1  0  0  0  0
  6 17  1  0  0  0  0
  7 18  1  0  0  0  0
M  END
> <pdb_id>
6DZQ

> <uniprot_id>
C3W5S0

> <usmiles>
O=C(O)C=1OC(=CC(=O)C1O)C

$$$$
HK9_A_301
          07202402503D 1   1.00000     0.00000     0
            
 43 46  0  0  0  0            999 V2000
    7.6647    1.9249   13.4284 O   0  0  0  0  0  0  0  0  0  0  0  0
    9.5760    2.4247   14.4495 O   0  0  0  0  0  0  0  0  0  0  0  0
    3.7498   10.3478   19.8478 O   0  0  0  0  0  0  0  0  0  0  0  0
    9.3735    5.1601   15.0998 O   0  0  0  0  0  0  0  0  0  0  0  0
    1.7809    9.3378   20.0550 N   0  0  0  0  0  0  0  0  0  0  0  0
    1.6830    6.9614   18.1208 N   0  0  0  0  0  0  0  0  0  0  0  0
    9.9563    6.3282   15.6578 C   0  0  0  0  0  0  0  0  0  0  0  0
   -1.5572    7.9061   20.6681 C   0  0  0  0  0  0  0  0  0  0  0  0
   -1.6002    6.8231   19.7928 C   0  0  0  0  0  0  0  0  0  0  0  0
   -0.4384    8.7238   20.6925 C   0  0  0  0  0  0  0  0  0  0  0  0
   -0.5284    6.5788   18.9395 C   0  0  0  0  0  0  0  0  0  0  0  0
    5.5416    3.9656   16.4122 C   0  0  0  0  0  0  0  0  0  0  0  0
    5.8382    7.1040   18.4474 C   0  0  0  0  0  0  0  0  0  0  0  0
    6.3287    3.0961   15.6541 C   0  0  0  0  0  0  0  0  0  0  0  0
    5.1040    8.0378   19.1168 C   0  0  0  0  0  0  0  0  0  0  0  0
    7.2825    5.6720   16.2698 C   0  0  0  0  0  0  0  0  0  0  0  0
    3.8242    6.2818   17.4122 C   0  0  0  0  0  0  0  0  0  0  0  0
    8.3537    2.5252   14.2786 C   0  0  0  0  0  0  0  0  0  0  0  0
    3.1048    9.2974   19.6164 C   0  0  0  0  0  0  0  0  0  0  0  0
    8.0875    4.7795   15.5122 C   0  0  0  0  0  0  0  0  0  0  0  0
    0.6914    8.4914   19.8390 C   0  0  0  0  0  0  0  0  0  0  0  0
    0.6460    7.4107   18.9387 C   0  0  0  0  0  0  0  0  0  0  0  0
    3.0518    7.2185   18.1431 C   0  0  0  0  0  0  0  0  0  0  0  0
    6.0142    5.2749   16.7325 C   0  0  0  0  0  0  0  0  0  0  0  0
    5.2100    6.2119   17.5408 C   0  0  0  0  0  0  0  0  0  0  0  0
    7.6058    3.4909   15.1824 C   0  0  0  0  0  0  0  0  0  0  0  0
    3.6988    8.1460   18.9603 C   0  0  0  0  0  0  0  0  0  0  0  0
    1.5680   10.1597   20.6113 H   0  0  0  0  0  0  0  0  0  0  0  0
    1.3762    6.3721   17.3539 H   0  0  0  0  0  0  0  0  0  0  0  0
    9.9545    6.3160   16.7467 H   0  0  0  0  0  0  0  0  0  0  0  0
    9.5100    7.2623   15.3216 H   0  0  0  0  0  0  0  0  0  0  0  0
   10.9864    6.2888   15.3083 H   0  0  0  0  0  0  0  0  0  0  0  0
   -2.3967    8.1145   21.3291 H   0  0  0  0  0  0  0  0  0  0  0  0
   -2.4746    6.1743   19.7721 H   0  0  0  0  0  0  0  0  0  0  0  0
   -0.4473    9.5605   21.3885 H   0  0  0  0  0  0  0  0  0  0  0  0
   -0.6122    5.7269   18.2662 H   0  0  0  0  0  0  0  0  0  0  0  0
    4.5720    3.6230   16.7700 H   0  0  0  0  0  0  0  0  0  0  0  0
    6.9079    7.0373   18.6395 H   0  0  0  0  0  0  0  0  0  0  0  0
    5.9709    2.0915   15.4303 H   0  0  0  0  0  0  0  0  0  0  0  0
    5.6318    8.6887   19.8098 H   0  0  0  0  0  0  0  0  0  0  0  0
    7.6199    6.6877   16.4615 H   0  0  0  0  0  0  0  0  0  0  0  0
    3.3442    5.6016   16.7104 H   0  0  0  0  0  0  0  0  0  0  0  0
    6.6787    2.0846   13.3807 H   0  0  0  0  0  0  0  0  0  0  0  0
  1 18  1  0  0  0  0
  2 18  2  0  0  0  0
  3 19  2  0  0  0  0
  4  7  1  0  0  0  0
  4 20  1  0  0  0  0
  5 19  1  0  0  0  0
  5 21  1  0  0  0  0
  5 28  1  0  0  0  0
  6 22  1  0  0  0  0
  6 23  1  0  0  0  0
  6 29  1  0  0  0  0
  7 30  1  0  0  0  0
  7 31  1  0  0  0  0
  7 32  1  0  0  0  0
  8  9  2  0  0  0  0
  8 10  1  0  0  0  0
  8 33  1  0  0  0  0
  9 11  1  0  0  0  0
  9 34  1  0  0  0  0
 10 21  2  0  0  0  0
 10 35  1  0  0  0  0
 11 22  2  0  0  0  0
 11 36  1  0  0  0  0
 12 14  1  0  0  0  0
 12 24  2  0  0  0  0
 12 37  1  0  0  0  0
 13 15  1  0  0  0  0
 13 25  2  0  0  0  0
 13 38  1  0  0  0  0
 14 26  2  0  0  0  0
 14 39  1  0  0  0  0
 15 27  2  0  0  0  0
 15 40  1  0  0  0  0
 16 20  2  0  0  0  0
 16 24  1  0  0  0  0
 16 41  1  0  0  0  0
 17 23  2  0  0  0  0
 17 25  1  0  0  0  0
 17 42  1  0  0  0  0
 18 26  1  0  0  0  0
 19 27  1  0  0  0  0
 20 26  1  0  0  0  0
 21 22  1  0  0  0  0
 23 27  1  0  0  0  0
 24 25  1  0  0  0  0
  1 43  1  0  0  0  0
M  END
> <pdb_id>
4FT0

> <uniprot_id>
O14757

> <usmiles>
O=C(O)c1c(OC)cc(c2cc3Nc4c(NC(=O)c3cc2)cccc4)cc1

$$$$
HKD_A_203
          07202403273D 1   1.00000     0.00000     0
            
 20 20  0  0  0  0            999 V2000
    8.2484   21.9458  -14.8641 O   0  0  0  0  0  0  0  0  0  0  0  0
    6.2517   22.0273  -14.0242 O   0  0  0  0  0  0  0  0  0  0  0  0
    9.7305   21.7805   -8.4686 O   0  0  0  0  0  0  0  0  0  0  0  0
    7.5004   18.4224  -10.8798 O   0  0  0  0  0  0  0  0  0  0  0  0
    8.6927   19.5003   -8.8159 O   0  0  0  0  0  0  0  0  0  0  0  0
    8.8091   23.8567  -12.6035 C   0  0  0  0  0  0  0  0  0  0  0  0
    9.1533   22.5428  -10.6255 C   0  0  0  0  0  0  0  0  0  0  0  0
    7.7021   20.2977  -12.1580 C   0  0  0  0  0  0  0  0  0  0  0  0
    7.4843   21.8403  -13.8818 C   0  0  0  0  0  0  0  0  0  0  0  0
    9.1221   21.5076   -9.6808 C   0  0  0  0  0  0  0  0  0  0  0  0
    7.9363   19.7065  -10.9358 C   0  0  0  0  0  0  0  0  0  0  0  0
    8.5636   20.2227   -9.7927 C   0  0  0  0  0  0  0  0  0  0  0  0
    8.6226   22.6167  -11.9164 C   0  0  0  0  0  0  0  0  0  0  0  0
    7.9740   21.5828  -12.5983 C   0  0  0  0  0  0  0  0  0  0  0  0
    9.2308   21.7970  -14.7515 H   0  0  0  0  0  0  0  0  0  0  0  0
    8.3936   23.8005  -13.5114 H   0  0  0  0  0  0  0  0  0  0  0  0
    8.3769   24.5939  -12.0842 H   0  0  0  0  0  0  0  0  0  0  0  0
    9.7873   24.0429  -12.6956 H   0  0  0  0  0  0  0  0  0  0  0  0
    9.6358   23.3658  -10.3258 H   0  0  0  0  0  0  0  0  0  0  0  0
    7.2663   19.7048  -12.8352 H   0  0  0  0  0  0  0  0  0  0  0  0
  1  9  1  0  0  0  0
  2  9  2  0  0  0  0
  3 10  2  0  0  0  0
  4 11  2  0  0  0  0
  5 12  2  0  0  0  0
  6 13  1  0  0  0  0
  7 10  1  0  0  0  0
  7 13  2  0  0  0  0
  8 11  1  0  0  0  0
  8 14  2  0  0  0  0
  9 14  1  0  0  0  0
 10 12  1  0  0  0  0
 11 12  1  0  0  0  0
 13 14  1  0  0  0  0
  1 15  1  0  0  0  0
  6 16  1  0  0  0  0
  6 17  1  0  0  0  0
  6 18  1  0  0  0  0
  7 19  1  0  0  0  0
  8 20  1  0  0  0  0
M  END
> <pdb_id>
6E0Q

> <uniprot_id>
C3W5S0

> <usmiles>
O=C(O)C=1C(=CC(=O)C(=O)C(=O)C1)C

$$$$
HKK_A_4001
          07192420163D 1   1.00000     0.00000     0
            
 31 32  0  0  0  0            999 V2000
  -13.0713  -47.9810   22.7054 Cl  0  0  0  0  0  0  0  0  0  0  0  0
   -9.3119  -49.6640   20.6640 S   0  0  0  0  0  0  0  0  0  0  0  0
   -8.2098  -48.7519   20.6077 O   0  0  0  0  0  0  0  0  0  0  0  0
   -9.9310  -50.0657   19.4423 O   0  0  0  0  0  0  0  0  0  0  0  0
   -5.4504  -46.3820   26.5595 O   0  0  0  0  0  0  0  0  0  0  0  0
  -10.4864  -48.9890   21.5632 N   0  0  0  0  0  0  0  0  0  0  0  0
  -11.4937  -47.0048   24.5156 N   0  0  0  0  0  0  0  0  0  0  0  0
   -8.7969  -51.1034   21.5205 C   0  0  0  0  0  0  0  0  0  0  0  0
   -5.5050  -47.7133   26.0549 C   0  0  0  0  0  0  0  0  0  0  0  0
   -6.6487  -46.0453   27.2755 C   0  0  0  0  0  0  0  0  0  0  0  0
  -10.3180  -46.8421   25.1267 C   0  0  0  0  0  0  0  0  0  0  0  0
   -6.7358  -47.9744   25.2541 C   0  0  0  0  0  0  0  0  0  0  0  0
   -7.7959  -45.9635   26.3355 C   0  0  0  0  0  0  0  0  0  0  0  0
   -9.1607  -48.0924   23.4567 C   0  0  0  0  0  0  0  0  0  0  0  0
  -11.5035  -47.7025   23.3996 C   0  0  0  0  0  0  0  0  0  0  0  0
  -10.3777  -48.2688   22.7892 C   0  0  0  0  0  0  0  0  0  0  0  0
   -9.1251  -47.3733   24.6517 C   0  0  0  0  0  0  0  0  0  0  0  0
   -7.8373  -47.1602   25.3905 C   0  0  0  0  0  0  0  0  0  0  0  0
  -11.4148  -49.0936   21.2067 H   0  0  0  0  0  0  0  0  0  0  0  0
   -9.5564  -51.7521   21.5689 H   0  0  0  0  0  0  0  0  0  0  0  0
   -8.0301  -51.5235   21.0353 H   0  0  0  0  0  0  0  0  0  0  0  0
   -8.5104  -50.8559   22.4461 H   0  0  0  0  0  0  0  0  0  0  0  0
   -5.4843  -48.3491   26.8265 H   0  0  0  0  0  0  0  0  0  0  0  0
   -4.7061  -47.8683   25.4737 H   0  0  0  0  0  0  0  0  0  0  0  0
   -6.5272  -45.1617   27.7275 H   0  0  0  0  0  0  0  0  0  0  0  0
   -6.8328  -46.7486   27.9622 H   0  0  0  0  0  0  0  0  0  0  0  0
  -10.2946  -46.3090   25.9724 H   0  0  0  0  0  0  0  0  0  0  0  0
   -6.7610  -48.7438   24.6159 H   0  0  0  0  0  0  0  0  0  0  0  0
   -7.7128  -45.1263   25.7949 H   0  0  0  0  0  0  0  0  0  0  0  0
   -8.6454  -45.9371   26.8624 H   0  0  0  0  0  0  0  0  0  0  0  0
   -8.3199  -48.4801   23.0788 H   0  0  0  0  0  0  0  0  0  0  0  0
  1 15  1  0  0  0  0
  2  3  2  0  0  0  0
  2  4  2  0  0  0  0
  2  6  1  0  0  0  0
  2  8  1  0  0  0  0
  5  9  1  0  0  0  0
  5 10  1  0  0  0  0
  6 16  1  0  0  0  0
  7 11  1  0  0  0  0
  7 15  2  0  0  0  0
  9 12  1  0  0  0  0
 10 13  1  0  0  0  0
 11 17  2  0  0  0  0
 12 18  2  0  0  0  0
 13 18  1  0  0  0  0
 14 16  2  0  0  0  0
 14 17  1  0  0  0  0
 15 16  1  0  0  0  0
 17 18  1  0  0  0  0
  6 19  1  0  0  0  0
  8 20  1  0  0  0  0
  8 21  1  0  0  0  0
  8 22  1  0  0  0  0
  9 23  1  0  0  0  0
  9 24  1  0  0  0  0
 10 25  1  0  0  0  0
 10 26  1  0  0  0  0
 11 27  1  0  0  0  0
 12 28  1  0  0  0  0
 13 29  1  0  0  0  0
 13 30  1  0  0  0  0
 14 31  1  0  0  0  0
M  END
> <pdb_id>
6Q73

> <uniprot_id>
O35904

> <usmiles>
Clc1ncc(cc1NS(=O)(=O)C)C2=CCOCC2

$$$$
HLJ_B_401
          07202411533D 1   1.00000     0.00000     0
            
 56 59  0  0  0  0            999 V2000
   28.1955   -2.5072   27.3000 Cl  0  0  0  0  0  0  0  0  0  0  0  0
   27.5540   -4.9522   25.5249 Cl  0  0  0  0  0  0  0  0  0  0  0  0
   19.0605  -11.8722   21.5307 F   0  0  0  0  0  0  0  0  0  0  0  0
   21.6981   -3.4223   26.1792 O   0  0  0  0  0  0  0  0  0  0  0  0
   22.8506   -1.2442   20.7198 N   0  0  0  0  0  0  0  0  0  0  0  0
   22.1849   -5.5684   26.5920 N   0  0  0  0  0  0  0  0  0  0  0  0
   18.4211   -9.7995   22.1662 N   0  0  0  0  0  0  0  0  0  0  0  0
   23.9123   -2.9383   19.3724 N   0  0  0  0  0  0  0  0  0  0  0  0
   21.9835   -3.4168   20.3220 N   0  0  0  0  0  0  0  0  0  0  0  0
   24.9947   -2.1721   18.7446 C   0  0  0  0  0  0  0  0  0  0  0  0
   17.5390   -7.6374   22.8225 C   0  0  0  0  0  0  0  0  0  0  0  0
   23.5576   -4.1993   18.9751 C   0  0  0  0  0  0  0  0  0  0  0  0
   22.4450   -4.5310   19.6443 C   0  0  0  0  0  0  0  0  0  0  0  0
   22.8726   -5.2586   27.8395 C   0  0  0  0  0  0  0  0  0  0  0  0
   20.7214   -3.3595   21.0717 C   0  0  0  0  0  0  0  0  0  0  0  0
   20.7432  -10.2860   21.8986 C   0  0  0  0  0  0  0  0  0  0  0  0
   25.7398   -2.8362   28.3620 C   0  0  0  0  0  0  0  0  0  0  0  0
   24.5203   -3.4769   28.4647 C   0  0  0  0  0  0  0  0  0  0  0  0
   21.0410   -8.9924   22.2573 C   0  0  0  0  0  0  0  0  0  0  0  0
   25.1508   -5.0368   26.7652 C   0  0  0  0  0  0  0  0  0  0  0  0
   21.1622   -4.0324   23.4563 C   0  0  0  0  0  0  0  0  0  0  0  0
   20.3738   -5.7017   21.9284 C   0  0  0  0  0  0  0  0  0  0  0  0
   20.8429   -6.3101   24.1891 C   0  0  0  0  0  0  0  0  0  0  0  0
   19.4053  -10.6146   21.8809 C   0  0  0  0  0  0  0  0  0  0  0  0
   26.6675   -3.3028   27.4540 C   0  0  0  0  0  0  0  0  0  0  0  0
   26.3728   -4.3921   26.6557 C   0  0  0  0  0  0  0  0  0  0  0  0
   22.9025   -2.4495   20.1886 C   0  0  0  0  0  0  0  0  0  0  0  0
   21.6859   -4.5954   25.8253 C   0  0  0  0  0  0  0  0  0  0  0  0
   18.7044   -8.5309   22.5109 C   0  0  0  0  0  0  0  0  0  0  0  0
   24.2086   -4.5713   27.6710 C   0  0  0  0  0  0  0  0  0  0  0  0
   20.7257   -4.3786   22.1842 C   0  0  0  0  0  0  0  0  0  0  0  0
   21.1866   -4.9903   24.4700 C   0  0  0  0  0  0  0  0  0  0  0  0
   20.3943   -6.6826   22.9251 C   0  0  0  0  0  0  0  0  0  0  0  0
   20.0368   -8.0908   22.5934 C   0  0  0  0  0  0  0  0  0  0  0  0
   22.0765   -0.9853   21.2975 H   0  0  0  0  0  0  0  0  0  0  0  0
   22.0855   -6.5217   26.3068 H   0  0  0  0  0  0  0  0  0  0  0  0
   25.0770   -1.2823   19.1934 H   0  0  0  0  0  0  0  0  0  0  0  0
   25.8551   -2.6731   18.8376 H   0  0  0  0  0  0  0  0  0  0  0  0
   24.7898   -2.0387   17.7750 H   0  0  0  0  0  0  0  0  0  0  0  0
   17.8728   -6.7261   23.0636 H   0  0  0  0  0  0  0  0  0  0  0  0
   16.9444   -7.5734   22.0211 H   0  0  0  0  0  0  0  0  0  0  0  0
   17.0236   -8.0176   23.5905 H   0  0  0  0  0  0  0  0  0  0  0  0
   24.0397   -4.7680   18.3085 H   0  0  0  0  0  0  0  0  0  0  0  0
   22.0184   -5.4354   19.6525 H   0  0  0  0  0  0  0  0  0  0  0  0
   23.0231   -6.1151   28.3332 H   0  0  0  0  0  0  0  0  0  0  0  0
   22.2812   -4.6611   28.3811 H   0  0  0  0  0  0  0  0  0  0  0  0
   19.9606   -3.5513   20.4517 H   0  0  0  0  0  0  0  0  0  0  0  0
   20.6110   -2.4455   21.4621 H   0  0  0  0  0  0  0  0  0  0  0  0
   21.4549  -10.9484   21.6647 H   0  0  0  0  0  0  0  0  0  0  0  0
   25.9472   -2.0454   28.9379 H   0  0  0  0  0  0  0  0  0  0  0  0
   23.8474   -3.1446   29.1256 H   0  0  0  0  0  0  0  0  0  0  0  0
   21.9955   -8.6949   22.2768 H   0  0  0  0  0  0  0  0  0  0  0  0
   24.9493   -5.8329   26.1946 H   0  0  0  0  0  0  0  0  0  0  0  0
   21.4591   -3.0964   23.6455 H   0  0  0  0  0  0  0  0  0  0  0  0
   20.0976   -5.9586   21.0023 H   0  0  0  0  0  0  0  0  0  0  0  0
   20.9196   -7.0017   24.9072 H   0  0  0  0  0  0  0  0  0  0  0  0
  1 25  1  0  0  0  0
  2 26  1  0  0  0  0
  3 24  1  0  0  0  0
  4 28  2  0  0  0  0
  5 27  2  0  0  0  0
  6 14  1  0  0  0  0
  6 28  1  0  0  0  0
  7 24  2  0  0  0  0
  7 29  1  0  0  0  0
  8 10  1  0  0  0  0
  8 12  1  0  0  0  0
  8 27  1  0  0  0  0
  9 13  1  0  0  0  0
  9 15  1  0  0  0  0
  9 27  1  0  0  0  0
 11 29  1  0  0  0  0
 12 13  2  0  0  0  0
 14 30  1  0  0  0  0
 15 31  1  0  0  0  0
 16 19  2  0  0  0  0
 16 24  1  0  0  0  0
 17 18  2  0  0  0  0
 17 25  1  0  0  0  0
 18 30  1  0  0  0  0
 19 34  1  0  0  0  0
 20 26  1  0  0  0  0
 20 30  2  0  0  0  0
 21 31  1  0  0  0  0
 21 32  2  0  0  0  0
 22 31  2  0  0  0  0
 22 33  1  0  0  0  0
 23 32  1  0  0  0  0
 23 33  2  0  0  0  0
 25 26  2  0  0  0  0
 28 32  1  0  0  0  0
 29 34  2  0  0  0  0
 33 34  1  0  0  0  0
  5 35  1  0  0  0  0
  6 36  1  0  0  0  0
 10 37  1  0  0  0  0
 10 38  1  0  0  0  0
 10 39  1  0  0  0  0
 11 40  1  0  0  0  0
 11 41  1  0  0  0  0
 11 42  1  0  0  0  0
 12 43  1  0  0  0  0
 13 44  1  0  0  0  0
 14 45  1  0  0  0  0
 14 46  1  0  0  0  0
 15 47  1  0  0  0  0
 15 48  1  0  0  0  0
 16 49  1  0  0  0  0
 17 50  1  0  0  0  0
 18 51  1  0  0  0  0
 19 52  1  0  0  0  0
 20 53  1  0  0  0  0
 21 54  1  0  0  0  0
 22 55  1  0  0  0  0
 23 56  1  0  0  0  0
M  END
> <pdb_id>
6E23

> <uniprot_id>
P61964

> <usmiles>
Clc1c(Cl)ccc(c1)CNC(=O)c2cc(c3c(nc(F)cc3)C)cc(c2)CN4C(=N)N(C=C4)C

$$$$
HLM_A_401
          07202411533D 1   1.00000     0.00000     0
            
 46 48  0  0  0  0            999 V2000
   27.5862   -5.3714   25.6302 Cl  0  0  0  0  0  0  0  0  0  0  0  0
   22.1836   -3.5564   26.0885 O   0  0  0  0  0  0  0  0  0  0  0  0
   23.0248   -2.4597   20.8052 N   0  0  0  0  0  0  0  0  0  0  0  0
   23.8743   -4.0979   19.3511 N   0  0  0  0  0  0  0  0  0  0  0  0
   21.7035   -4.6138   20.5221 N   0  0  0  0  0  0  0  0  0  0  0  0
   22.3931   -5.5659   27.0714 N   0  0  0  0  0  0  0  0  0  0  0  0
   22.4496   -5.7499   29.5389 C   0  0  0  0  0  0  0  0  0  0  0  0
   26.1487   -2.6886   28.6258 C   0  0  0  0  0  0  0  0  0  0  0  0
   19.6683   -7.0830   23.7402 C   0  0  0  0  0  0  0  0  0  0  0  0
   27.0347   -3.3674   27.5877 C   0  0  0  0  0  0  0  0  0  0  0  0
   19.7151   -6.2762   22.4676 C   0  0  0  0  0  0  0  0  0  0  0  0
   20.4176   -6.6010   24.9749 C   0  0  0  0  0  0  0  0  0  0  0  0
   24.7343   -3.2107   28.8470 C   0  0  0  0  0  0  0  0  0  0  0  0
   25.1439   -5.1654   27.1165 C   0  0  0  0  0  0  0  0  0  0  0  0
   21.1447   -4.4521   23.6901 C   0  0  0  0  0  0  0  0  0  0  0  0
   24.2242   -1.9377   20.2032 C   0  0  0  0  0  0  0  0  0  0  0  0
   24.7988   -3.0074   19.3433 C   0  0  0  0  0  0  0  0  0  0  0  0
   20.5288   -4.1253   21.2404 C   0  0  0  0  0  0  0  0  0  0  0  0
   22.7893   -3.7601   20.2385 C   0  0  0  0  0  0  0  0  0  0  0  0
   21.9382   -4.7073   26.0323 C   0  0  0  0  0  0  0  0  0  0  0  0
   26.5316   -4.5938   26.8292 C   0  0  0  0  0  0  0  0  0  0  0  0
   20.4687   -4.9710   22.4818 C   0  0  0  0  0  0  0  0  0  0  0  0
   21.1326   -5.2723   24.9135 C   0  0  0  0  0  0  0  0  0  0  0  0
   24.2383   -4.4630   28.1236 C   0  0  0  0  0  0  0  0  0  0  0  0
   22.7876   -4.8913   28.3385 C   0  0  1  0  0  0  0  0  0  0  0  0
   23.9507   -4.8279   18.9032 H   0  0  0  0  0  0  0  0  0  0  0  0
   21.7336   -5.4348   20.2682 H   0  0  0  0  0  0  0  0  0  0  0  0
   22.4381   -6.4196   26.9742 H   0  0  0  0  0  0  0  0  0  0  0  0
   21.5996   -5.4669   29.9099 H   0  0  0  0  0  0  0  0  0  0  0  0
   23.1430   -5.6533   30.2100 H   0  0  0  0  0  0  0  0  0  0  0  0
   22.3914   -6.6786   29.2655 H   0  0  0  0  0  0  0  0  0  0  0  0
   26.4662   -1.9661   29.1171 H   0  0  0  0  0  0  0  0  0  0  0  0
   19.1815   -7.8745   23.7721 H   0  0  0  0  0  0  0  0  0  0  0  0
   27.8859   -3.0333   27.4165 H   0  0  0  0  0  0  0  0  0  0  0  0
   19.2911   -6.5756   21.6949 H   0  0  0  0  0  0  0  0  0  0  0  0
   20.4354   -7.1145   25.7499 H   0  0  0  0  0  0  0  0  0  0  0  0
   24.1649   -2.7617   29.4297 H   0  0  0  0  0  0  0  0  0  0  0  0
   24.8550   -5.9350   26.6822 H   0  0  0  0  0  0  0  0  0  0  0  0
   21.5690   -3.6238   23.6780 H   0  0  0  0  0  0  0  0  0  0  0  0
   23.9423   -1.2282   19.6043 H   0  0  0  0  0  0  0  0  0  0  0  0
   24.8554   -1.7995   20.9266 H   0  0  0  0  0  0  0  0  0  0  0  0
   24.8052   -2.6592   18.4378 H   0  0  0  0  0  0  0  0  0  0  0  0
   25.5981   -3.3224   19.7937 H   0  0  0  0  0  0  0  0  0  0  0  0
   19.7270   -4.2429   20.7066 H   0  0  0  0  0  0  0  0  0  0  0  0
   20.6309   -3.1884   21.4680 H   0  0  0  0  0  0  0  0  0  0  0  0
   22.2867   -4.0883   28.5545 H   0  0  0  0  0  0  0  0  0  0  0  0
  1 21  1  0  0  0  0
  2 20  2  0  0  0  0
  3 16  1  0  0  0  0
  3 19  2  0  0  0  0
  4 17  1  0  0  0  0
  4 19  1  0  0  0  0
  4 26  1  0  0  0  0
  5 18  1  0  0  0  0
  5 19  1  0  0  0  0
  5 27  1  0  0  0  0
  6 20  1  0  0  0  0
  6 25  1  0  0  0  0
  6 28  1  0  0  0  0
  7 25  1  0  0  0  0
  7 29  1  0  0  0  0
  7 30  1  0  0  0  0
  7 31  1  0  0  0  0
  8 10  2  0  0  0  0
  8 13  1  0  0  0  0
  8 32  1  0  0  0  0
  9 11  2  0  0  0  0
  9 12  1  0  0  0  0
  9 33  1  0  0  0  0
 10 21  1  0  0  0  0
 10 34  1  0  0  0  0
 11 22  1  0  0  0  0
 11 35  1  0  0  0  0
 12 23  2  0  0  0  0
 12 36  1  0  0  0  0
 13 24  2  0  0  0  0
 13 37  1  0  0  0  0
 14 21  2  0  0  0  0
 14 24  1  0  0  0  0
 14 38  1  0  0  0  0
 15 22  2  0  0  0  0
 15 23  1  0  0  0  0
 15 39  1  0  0  0  0
 16 17  1  0  0  0  0
 16 40  1  0  0  0  0
 16 41  1  0  0  0  0
 17 42  1  0  0  0  0
 17 43  1  0  0  0  0
 18 22  1  0  0  0  0
 18 44  1  0  0  0  0
 18 45  1  0  0  0  0
 20 23  1  0  0  0  0
 24 25  1  0  0  0  0
 25 46  1  0  0  0  0
M  END
> <pdb_id>
6E1Y

> <uniprot_id>
P61964

> <usmiles>
Clc1cc(ccc1)[C@@H](NC(=O)c2cc(ccc2)CNC3=NCCN3)C

$$$$
HLP_A_401
          07202411533D 1   1.00000     0.00000     0
            
 22 23  0  0  0  0            999 V2000
   21.4235   -5.6151   26.4013 O   0  0  0  0  0  0  0  0  0  0  0  0
   22.1073   -3.5921   25.9952 O   0  0  0  0  0  0  0  0  0  0  0  0
   21.1663   -3.6897   23.3800 O   0  0  0  0  0  0  0  0  0  0  0  0
   23.8646   -2.7284   19.4876 N   0  0  0  0  0  0  0  0  0  0  0  0
   21.9175   -3.1776   20.3292 N   0  0  0  0  0  0  0  0  0  0  0  0
   22.8679   -2.2564   20.2208 C   0  0  0  0  0  0  0  0  0  0  0  0
   23.5573   -3.9695   19.1341 C   0  0  0  0  0  0  0  0  0  0  0  0
   22.3069   -4.2563   19.6654 C   0  0  0  0  0  0  0  0  0  0  0  0
   20.0009   -5.2400   22.2978 C   0  0  0  0  0  0  0  0  0  0  0  0
   20.2407   -5.6913   23.6331 C   0  0  0  0  0  0  0  0  0  0  0  0
   20.6403   -3.0617   21.0155 C   0  0  0  0  0  0  0  0  0  0  0  0
   21.5193   -4.6246   25.6378 C   0  0  0  0  0  0  0  0  0  0  0  0
   20.6145   -3.9783   22.2305 C   0  0  0  0  0  0  0  0  0  0  0  0
   20.9858   -4.6656   24.2253 C   0  0  0  0  0  0  0  0  0  0  0  0
   22.8368   -1.4084   20.6022 H   0  0  0  0  0  0  0  0  0  0  0  0
   24.0825   -4.5433   18.6242 H   0  0  0  0  0  0  0  0  0  0  0  0
   21.8343   -5.0519   19.5728 H   0  0  0  0  0  0  0  0  0  0  0  0
   19.5400   -5.6843   21.6224 H   0  0  0  0  0  0  0  0  0  0  0  0
   19.9633   -6.4899   24.0222 H   0  0  0  0  0  0  0  0  0  0  0  0
   20.5128   -2.1437   21.3032 H   0  0  0  0  0  0  0  0  0  0  0  0
   19.9258   -3.3115   20.4089 H   0  0  0  0  0  0  0  0  0  0  0  0
   20.9456   -6.4383   26.0948 H   0  0  0  0  0  0  0  0  0  0  0  0
  1 12  1  0  0  0  0
  2 12  2  0  0  0  0
  3 13  1  0  0  0  0
  3 14  1  0  0  0  0
  4  6  2  0  0  0  0
  4  7  1  0  0  0  0
  5  6  1  0  0  0  0
  5  8  1  0  0  0  0
  5 11  1  0  0  0  0
  6 15  1  0  0  0  0
  7  8  2  0  0  0  0
  7 16  1  0  0  0  0
  8 17  1  0  0  0  0
  9 10  1  0  0  0  0
  9 13  2  0  0  0  0
  9 18  1  0  0  0  0
 10 14  2  0  0  0  0
 10 19  1  0  0  0  0
 11 13  1  0  0  0  0
 11 20  1  0  0  0  0
 11 21  1  0  0  0  0
 12 14  1  0  0  0  0
  1 22  1  0  0  0  0
M  END
> <pdb_id>
6E1Z

> <uniprot_id>
P61964

> <usmiles>
O=C(O)C=1OC(=CC1)CN2C=NC=C2

$$$$
HLS_A_401
          07202411533D 1   1.00000     0.00000     0
            
 51 53  0  0  0  0            999 V2000
   20.0713   -7.0549   21.5666 F   0  0  0  0  0  0  0  0  0  0  0  0
   22.0497   -3.4608   26.3286 O   0  0  0  0  0  0  0  0  0  0  0  0
   26.9267   -5.7884   31.2909 O   0  0  0  0  0  0  0  0  0  0  0  0
   27.6758   -5.3780   26.6499 O   0  0  0  0  0  0  0  0  0  0  0  0
   23.5635   -4.0487   19.3147 N   0  0  0  0  0  0  0  0  0  0  0  0
   22.8586   -2.5954   20.7916 N   0  0  0  0  0  0  0  0  0  0  0  0
   21.6132   -4.5437   20.4561 N   0  0  0  0  0  0  0  0  0  0  0  0
   22.4854   -5.4854   27.1980 N   0  0  0  0  0  0  0  0  0  0  0  0
   26.0338   -5.6473   32.3918 C   0  0  0  0  0  0  0  0  0  0  0  0
   27.1991   -5.1142   25.3335 C   0  0  0  0  0  0  0  0  0  0  0  0
   24.5640   -2.9866   19.2735 C   0  0  0  0  0  0  0  0  0  0  0  0
   24.0532   -1.9522   20.2692 C   0  0  0  0  0  0  0  0  0  0  0  0
   23.0629   -4.9204   28.4112 C   0  0  0  0  0  0  0  0  0  0  0  0
   20.5942   -4.2758   21.4590 C   0  0  0  0  0  0  0  0  0  0  0  0
   20.6970   -7.2736   23.8075 C   0  0  0  0  0  0  0  0  0  0  0  0
   21.1752   -6.6952   24.9689 C   0  0  0  0  0  0  0  0  0  0  0  0
   27.2862   -5.5834   28.9504 C   0  0  0  0  0  0  0  0  0  0  0  0
   25.0617   -5.3632   29.8506 C   0  0  0  0  0  0  0  0  0  0  0  0
   25.4068   -5.1483   27.4805 C   0  0  0  0  0  0  0  0  0  0  0  0
   21.2615   -4.5641   23.8693 C   0  0  0  0  0  0  0  0  0  0  0  0
   22.6371   -3.7543   20.2034 C   0  0  0  0  0  0  0  0  0  0  0  0
   22.0093   -4.6850   26.2389 C   0  0  0  0  0  0  0  0  0  0  0  0
   20.5129   -6.4795   22.7055 C   0  0  0  0  0  0  0  0  0  0  0  0
   26.4222   -5.5765   30.0342 C   0  0  0  0  0  0  0  0  0  0  0  0
   26.7702   -5.3698   27.6788 C   0  0  0  0  0  0  0  0  0  0  0  0
   24.5460   -5.1635   28.5758 C   0  0  0  0  0  0  0  0  0  0  0  0
   21.4560   -5.3390   25.0078 C   0  0  0  0  0  0  0  0  0  0  0  0
   20.7852   -5.1250   22.6941 C   0  0  0  0  0  0  0  0  0  0  0  0
   23.5791   -4.8757   18.7527 H   0  0  0  0  0  0  0  0  0  0  0  0
   21.5307   -5.3849   19.9217 H   0  0  0  0  0  0  0  0  0  0  0  0
   22.4450   -6.4778   27.0824 H   0  0  0  0  0  0  0  0  0  0  0  0
   26.5246   -5.8274   33.2442 H   0  0  0  0  0  0  0  0  0  0  0  0
   25.6686   -4.7165   32.4076 H   0  0  0  0  0  0  0  0  0  0  0  0
   25.2813   -6.2990   32.2963 H   0  0  0  0  0  0  0  0  0  0  0  0
   27.9625   -5.1523   24.6887 H   0  0  0  0  0  0  0  0  0  0  0  0
   26.5162   -5.8002   25.0825 H   0  0  0  0  0  0  0  0  0  0  0  0
   26.7840   -4.2048   25.3054 H   0  0  0  0  0  0  0  0  0  0  0  0
   24.6272   -2.5944   18.3558 H   0  0  0  0  0  0  0  0  0  0  0  0
   25.4604   -3.3328   19.5504 H   0  0  0  0  0  0  0  0  0  0  0  0
   24.7217   -1.7849   20.9938 H   0  0  0  0  0  0  0  0  0  0  0  0
   23.8315   -1.0895   19.8146 H   0  0  0  0  0  0  0  0  0  0  0  0
   22.5921   -5.3219   29.1968 H   0  0  0  0  0  0  0  0  0  0  0  0
   22.9084   -3.9325   28.3991 H   0  0  0  0  0  0  0  0  0  0  0  0
   19.6952   -4.4717   21.0674 H   0  0  0  0  0  0  0  0  0  0  0  0
   20.6416   -3.3113   21.7189 H   0  0  0  0  0  0  0  0  0  0  0  0
   20.4897   -8.2513   23.7723 H   0  0  0  0  0  0  0  0  0  0  0  0
   21.3188   -7.2575   25.7833 H   0  0  0  0  0  0  0  0  0  0  0  0
   28.2652   -5.7398   29.0819 H   0  0  0  0  0  0  0  0  0  0  0  0
   24.4494   -5.3532   30.6412 H   0  0  0  0  0  0  0  0  0  0  0  0
   25.0511   -4.9803   26.5611 H   0  0  0  0  0  0  0  0  0  0  0  0
   21.4685   -3.5862   23.8988 H   0  0  0  0  0  0  0  0  0  0  0  0
  1 23  1  0  0  0  0
  2 22  2  0  0  0  0
  3  9  1  0  0  0  0
  3 24  1  0  0  0  0
  4 10  1  0  0  0  0
  4 25  1  0  0  0  0
  5 11  1  0  0  0  0
  5 21  1  0  0  0  0
  6 12  1  0  0  0  0
  6 21  2  0  0  0  0
  7 14  1  0  0  0  0
  7 21  1  0  0  0  0
  8 13  1  0  0  0  0
  8 22  1  0  0  0  0
 11 12  1  0  0  0  0
 13 26  1  0  0  0  0
 14 28  1  0  0  0  0
 15 16  1  0  0  0  0
 15 23  2  0  0  0  0
 16 27  2  0  0  0  0
 17 24  2  0  0  0  0
 17 25  1  0  0  0  0
 18 24  1  0  0  0  0
 18 26  2  0  0  0  0
 19 25  2  0  0  0  0
 19 26  1  0  0  0  0
 20 27  1  0  0  0  0
 20 28  2  0  0  0  0
 22 27  1  0  0  0  0
 23 28  1  0  0  0  0
  5 29  1  0  0  0  0
  7 30  1  0  0  0  0
  8 31  1  0  0  0  0
  9 32  1  0  0  0  0
  9 33  1  0  0  0  0
  9 34  1  0  0  0  0
 10 35  1  0  0  0  0
 10 36  1  0  0  0  0
 10 37  1  0  0  0  0
 11 38  1  0  0  0  0
 11 39  1  0  0  0  0
 12 40  1  0  0  0  0
 12 41  1  0  0  0  0
 13 42  1  0  0  0  0
 13 43  1  0  0  0  0
 14 44  1  0  0  0  0
 14 45  1  0  0  0  0
 15 46  1  0  0  0  0
 16 47  1  0  0  0  0
 17 48  1  0  0  0  0
 18 49  1  0  0  0  0
 19 50  1  0  0  0  0
 20 51  1  0  0  0  0
M  END
> <pdb_id>
6E22

> <uniprot_id>
P61964

> <usmiles>
Fc1c(cc(cc1)C(=O)NCc2cc(OC)cc(OC)c2)CNC3=NCCN3

$$$$
HM5_A_410
          07202406453D 1   1.00000     0.00000     0
            
 37 38  0  0  0  0            999 V2000
   23.2740   -8.0326   11.9975 S   0  0  0  0  0  0  0  0  0  0  0  0
   21.8964   -7.1213   14.2133 O   0  0  0  0  0  0  0  0  0  0  0  0
   19.9616   -6.2087   18.5199 O   0  0  0  0  0  0  0  0  0  0  0  0
   23.2084   -6.0674   10.4012 N   0  0  0  0  0  0  0  0  0  0  0  0
   20.3002   -3.9868   13.5262 N   0  0  0  0  0  0  0  0  0  0  0  0
   21.9514   -5.7825   12.3922 N   0  0  0  0  0  0  0  0  0  0  0  0
   20.6117   -6.3911   16.3382 N   0  0  0  0  0  0  0  0  0  0  0  0
   21.4120   -9.0629   16.6380 C   0  0  0  0  0  0  0  0  0  0  0  0
   19.6346   -9.1916   18.4141 C   0  0  0  0  0  0  0  0  0  0  0  0
   21.9437   -8.3832   18.9872 C   0  0  0  0  0  0  0  0  0  0  0  0
   24.1734   -8.1704   10.5410 C   0  0  0  0  0  0  0  0  0  0  0  0
   24.0098   -7.0198    9.8267 C   0  0  0  0  0  0  0  0  0  0  0  0
   19.4568   -3.0254   14.1325 C   0  0  0  0  0  0  0  0  0  0  0  0
   18.9982   -3.0855   15.3710 C   0  0  0  0  0  0  0  0  0  0  0  0
   19.3575   -4.2166   16.1639 C   0  0  0  0  0  0  0  0  0  0  0  0
   22.7698   -6.4757   11.5593 C   0  0  0  0  0  0  0  0  0  0  0  0
   21.5356   -6.1065   13.6548 C   0  0  0  0  0  0  0  0  0  0  0  0
   20.4214   -6.8936   17.6337 C   0  0  0  0  0  0  0  0  0  0  0  0
   20.1936   -5.2588   15.6417 C   0  0  0  0  0  0  0  0  0  0  0  0
   20.6444   -5.0831   14.2865 C   0  0  0  0  0  0  0  0  0  0  0  0
   20.8474   -8.3751   17.9003 C   0  0  0  0  0  0  0  0  0  0  0  0
   21.6049   -4.9159   12.0333 H   0  0  0  0  0  0  0  0  0  0  0  0
   21.1860   -6.9896   15.7796 H   0  0  0  0  0  0  0  0  0  0  0  0
   22.1959   -8.5436   16.2978 H   0  0  0  0  0  0  0  0  0  0  0  0
   21.7016   -9.9925   16.8662 H   0  0  0  0  0  0  0  0  0  0  0  0
   20.7040   -9.0980   15.9326 H   0  0  0  0  0  0  0  0  0  0  0  0
   19.2610   -8.7544   19.2323 H   0  0  0  0  0  0  0  0  0  0  0  0
   18.9313   -9.2263   17.7041 H   0  0  0  0  0  0  0  0  0  0  0  0
   19.9288  -10.1208   18.6376 H   0  0  0  0  0  0  0  0  0  0  0  0
   21.5964   -7.9411   19.8143 H   0  0  0  0  0  0  0  0  0  0  0  0
   22.1992   -9.3272   19.1960 H   0  0  0  0  0  0  0  0  0  0  0  0
   22.7457   -7.8864   18.6555 H   0  0  0  0  0  0  0  0  0  0  0  0
   24.7227   -8.9588   10.2641 H   0  0  0  0  0  0  0  0  0  0  0  0
   24.4476   -6.8796    8.9386 H   0  0  0  0  0  0  0  0  0  0  0  0
   19.1861   -2.2373   13.5796 H   0  0  0  0  0  0  0  0  0  0  0  0
   18.4173   -2.3605   15.7410 H   0  0  0  0  0  0  0  0  0  0  0  0
   19.0196   -4.2839   17.1026 H   0  0  0  0  0  0  0  0  0  0  0  0
  1 11  1  0  0  0  0
  1 16  1  0  0  0  0
  2 17  2  0  0  0  0
  3 18  2  0  0  0  0
  4 12  1  0  0  0  0
  4 16  2  0  0  0  0
  5 13  1  0  0  0  0
  5 20  2  0  0  0  0
  6 16  1  0  0  0  0
  6 17  1  0  0  0  0
  7 18  1  0  0  0  0
  7 19  1  0  0  0  0
  8 21  1  0  0  0  0
  9 21  1  0  0  0  0
 10 21  1  0  0  0  0
 11 12  2  0  0  0  0
 13 14  2  0  0  0  0
 14 15  1  0  0  0  0
 15 19  2  0  0  0  0
 17 20  1  0  0  0  0
 18 21  1  0  0  0  0
 19 20  1  0  0  0  0
  6 22  1  0  0  0  0
  7 23  1  0  0  0  0
  8 24  1  0  0  0  0
  8 25  1  0  0  0  0
  8 26  1  0  0  0  0
  9 27  1  0  0  0  0
  9 28  1  0  0  0  0
  9 29  1  0  0  0  0
 10 30  1  0  0  0  0
 10 31  1  0  0  0  0
 10 32  1  0  0  0  0
 11 33  1  0  0  0  0
 12 34  1  0  0  0  0
 13 35  1  0  0  0  0
 14 36  1  0  0  0  0
 15 37  1  0  0  0  0
M  END
> <pdb_id>
2NQ7

> <uniprot_id>
P53582

> <usmiles>
S1C(=NC=C1)NC(=O)c2ncccc2NC(=O)C(C)(C)C

$$$$
HN2_A_1049
          07202412393D 1   1.00000     0.00000     0
            
 42 44  0  0  0  0            999 V2000
   33.8538   65.7115    9.7458 O   0  0  0  0  0  0  0  0  0  0  0  0
   31.7182   68.3853    5.5218 O   0  0  0  0  0  0  0  0  0  0  0  0
   26.7578   65.3848    8.2162 O   0  0  0  0  0  0  0  0  0  0  0  0
   33.9020   66.4953    7.3141 O   0  0  0  0  0  0  0  0  0  0  0  0
   30.9860   66.0562    8.3064 N   0  0  0  0  0  0  0  0  0  0  0  0
   31.4386   66.2356    9.7132 C   0  0  0  0  0  0  0  0  0  0  0  0
   24.2590   68.7193   10.9269 C   0  0  0  0  0  0  0  0  0  0  0  0
   23.8652   67.5577   10.2671 C   0  0  0  0  0  0  0  0  0  0  0  0
   25.5930   69.1495   10.9033 C   0  0  0  0  0  0  0  0  0  0  0  0
   29.8552   66.8791    5.8263 C   0  0  0  0  0  0  0  0  0  0  0  0
   29.3496   65.6415    6.5824 C   0  0  0  0  0  0  0  0  0  0  0  0
   24.8175   66.7933    9.5839 C   0  0  0  0  0  0  0  0  0  0  0  0
   26.5583   68.3732   10.2270 C   0  0  0  0  0  0  0  0  0  0  0  0
   28.5962   66.8297    8.7287 C   0  0  0  0  0  0  0  0  0  0  0  0
   32.8777   66.7609    9.5437 C   0  0  2  0  0  0  0  0  0  0  0  0
   31.3299   67.1479    6.1091 C   0  0  2  0  0  0  0  0  0  0  0  0
   27.1482   66.3723    8.8131 C   0  0  0  0  0  0  0  0  0  0  0  0
   29.5291   65.7774    8.1037 C   0  0  2  0  0  0  0  0  0  0  0  0
   32.9794   67.3038    8.1064 C   0  0  2  0  0  0  0  0  0  0  0  0
   31.5326   67.2438    7.6165 C   0  0  2  0  0  0  0  0  0  0  0  0
   26.1575   67.2026    9.5733 C   0  0  0  0  0  0  0  0  0  0  0  0
   34.7740   66.0851    9.6289 H   0  0  0  0  0  0  0  0  0  0  0  0
   32.6853   68.5552    5.7109 H   0  0  0  0  0  0  0  0  0  0  0  0
   33.9545   66.8630    6.3856 H   0  0  0  0  0  0  0  0  0  0  0  0
   31.4281   65.3670   10.2087 H   0  0  0  0  0  0  0  0  0  0  0  0
   30.8666   66.9003   10.1938 H   0  0  0  0  0  0  0  0  0  0  0  0
   23.5785   69.2556   11.4260 H   0  0  0  0  0  0  0  0  0  0  0  0
   22.9072   67.2714   10.2817 H   0  0  0  0  0  0  0  0  0  0  0  0
   25.8580   69.9981   11.3611 H   0  0  0  0  0  0  0  0  0  0  0  0
   29.3201   67.6743    6.1113 H   0  0  0  0  0  0  0  0  0  0  0  0
   29.7350   66.7309    4.8447 H   0  0  0  0  0  0  0  0  0  0  0  0
   29.8600   64.8412    6.2680 H   0  0  0  0  0  0  0  0  0  0  0  0
   28.3778   65.5167    6.3826 H   0  0  0  0  0  0  0  0  0  0  0  0
   24.5431   65.9592    9.1055 H   0  0  0  0  0  0  0  0  0  0  0  0
   27.5173   68.6563   10.2151 H   0  0  0  0  0  0  0  0  0  0  0  0
   28.9199   67.0324    9.6529 H   0  0  0  0  0  0  0  0  0  0  0  0
   28.6354   67.6597    8.1723 H   0  0  0  0  0  0  0  0  0  0  0  0
   33.0428   67.5021   10.1945 H   0  0  0  0  0  0  0  0  0  0  0  0
   31.8879   66.4057    5.7379 H   0  0  0  0  0  0  0  0  0  0  0  0
   29.3217   64.8925    8.5206 H   0  0  0  0  0  0  0  0  0  0  0  0
   33.2915   68.2537    8.1246 H   0  0  0  0  0  0  0  0  0  0  0  0
   31.0509   68.0541    7.9503 H   0  0  0  0  0  0  0  0  0  0  0  0
  1 15  1  0  0  0  0
  2 16  1  0  0  0  0
  3 17  2  0  0  0  0
  4 19  1  0  0  0  0
  5  6  1  0  0  0  0
  5 18  1  0  0  0  0
  5 20  1  0  0  0  0
  6 15  1  0  0  0  0
  7  8  2  0  0  0  0
  7  9  1  0  0  0  0
  8 12  1  0  0  0  0
  9 13  2  0  0  0  0
 10 11  1  0  0  0  0
 10 16  1  0  0  0  0
 11 18  1  0  0  0  0
 12 21  2  0  0  0  0
 13 21  1  0  0  0  0
 14 17  1  0  0  0  0
 14 18  1  0  0  0  0
 15 19  1  0  0  0  0
 16 20  1  0  0  0  0
 17 21  1  0  0  0  0
 19 20  1  0  0  0  0
  1 22  1  0  0  0  0
  2 23  1  0  0  0  0
  4 24  1  0  0  0  0
  6 25  1  0  0  0  0
  6 26  1  0  0  0  0
  7 27  1  0  0  0  0
  8 28  1  0  0  0  0
  9 29  1  0  0  0  0
 10 30  1  0  0  0  0
 10 31  1  0  0  0  0
 11 32  1  0  0  0  0
 11 33  1  0  0  0  0
 12 34  1  0  0  0  0
 13 35  1  0  0  0  0
 14 36  1  0  0  0  0
 14 37  1  0  0  0  0
 15 38  1  0  0  0  0
 16 39  1  0  0  0  0
 18 40  1  0  0  0  0
 19 41  1  0  0  0  0
 20 42  1  0  0  0  0
M  END
> <pdb_id>
3EJP

> <uniprot_id>
Q24451

> <usmiles>
O=C(c1ccccc1)C[C@@H]2N3[C@H]([C@H](O)CC2)[C@H](O)[C@H](O)C3

$$$$
HN3_A_1049
          07202412393D 1   1.00000     0.00000     0
            
 45 47  0  0  0  0            999 V2000
   33.8124   65.6799    9.6972 O   0  0  0  0  0  0  0  0  0  0  0  0
   31.7125   68.3965    5.5060 O   0  0  0  0  0  0  0  0  0  0  0  0
   26.7633   65.3683    8.1419 O   0  0  0  0  0  0  0  0  0  0  0  0
   33.9010   66.4918    7.3211 O   0  0  0  0  0  0  0  0  0  0  0  0
   31.0033   66.0507    8.2681 N   0  0  0  0  0  0  0  0  0  0  0  0
   23.2233   69.7095   11.5358 C   0  0  0  0  0  0  0  0  0  0  0  0
   31.4467   66.2238    9.6795 C   0  0  0  0  0  0  0  0  0  0  0  0
   29.3397   65.6558    6.5336 C   0  0  0  0  0  0  0  0  0  0  0  0
   29.8352   66.9061    5.7912 C   0  0  0  0  0  0  0  0  0  0  0  0
   23.8231   67.6878   10.1198 C   0  0  0  0  0  0  0  0  0  0  0  0
   25.5700   69.2000   10.8051 C   0  0  0  0  0  0  0  0  0  0  0  0
   24.7706   66.9054    9.4372 C   0  0  0  0  0  0  0  0  0  0  0  0
   26.5214   68.4078   10.1346 C   0  0  0  0  0  0  0  0  0  0  0  0
   28.5936   66.8319    8.6709 C   0  0  0  0  0  0  0  0  0  0  0  0
   29.5508   65.7941    8.0489 C   0  0  2  0  0  0  0  0  0  0  0  0
   32.8844   66.7555    9.5169 C   0  0  2  0  0  0  0  0  0  0  0  0
   31.3155   67.1666    6.1004 C   0  0  2  0  0  0  0  0  0  0  0  0
   27.1353   66.3978    8.7015 C   0  0  0  0  0  0  0  0  0  0  0  0
   32.9913   67.3091    8.0945 C   0  0  2  0  0  0  0  0  0  0  0  0
   24.2229   68.8455   10.7911 C   0  0  0  0  0  0  0  0  0  0  0  0
   31.5406   67.2578    7.6062 C   0  0  2  0  0  0  0  0  0  0  0  0
   26.1278   67.2618    9.4381 C   0  0  0  0  0  0  0  0  0  0  0  0
   34.7456   66.0236    9.5920 H   0  0  0  0  0  0  0  0  0  0  0  0
   32.6771   68.5676    5.7067 H   0  0  0  0  0  0  0  0  0  0  0  0
   33.9687   66.8560    6.3923 H   0  0  0  0  0  0  0  0  0  0  0  0
   23.6973   70.4874   11.9484 H   0  0  0  0  0  0  0  0  0  0  0  0
   22.5295   70.0424   10.8972 H   0  0  0  0  0  0  0  0  0  0  0  0
   22.7840   69.1684   12.2529 H   0  0  0  0  0  0  0  0  0  0  0  0
   31.4373   65.3526   10.1704 H   0  0  0  0  0  0  0  0  0  0  0  0
   30.8699   66.8838   10.1608 H   0  0  0  0  0  0  0  0  0  0  0  0
   29.8455   64.8584    6.2046 H   0  0  0  0  0  0  0  0  0  0  0  0
   28.3647   65.5313    6.3495 H   0  0  0  0  0  0  0  0  0  0  0  0
   29.2949   67.6961    6.0810 H   0  0  0  0  0  0  0  0  0  0  0  0
   29.7242   66.7694    4.8068 H   0  0  0  0  0  0  0  0  0  0  0  0
   22.8611   67.4150   10.1248 H   0  0  0  0  0  0  0  0  0  0  0  0
   25.8629   70.0217   11.2940 H   0  0  0  0  0  0  0  0  0  0  0  0
   24.4744   66.0863    8.9458 H   0  0  0  0  0  0  0  0  0  0  0  0
   27.4869   68.6672   10.1569 H   0  0  0  0  0  0  0  0  0  0  0  0
   28.6582   67.6762    8.1389 H   0  0  0  0  0  0  0  0  0  0  0  0
   28.8883   67.0065    9.6103 H   0  0  0  0  0  0  0  0  0  0  0  0
   29.3389   64.9082    8.4615 H   0  0  0  0  0  0  0  0  0  0  0  0
   33.0618   67.4798   10.1832 H   0  0  0  0  0  0  0  0  0  0  0  0
   31.8690   66.4226    5.7262 H   0  0  0  0  0  0  0  0  0  0  0  0
   33.3135   68.2555    8.1169 H   0  0  0  0  0  0  0  0  0  0  0  0
   31.0552   68.0591    7.9559 H   0  0  0  0  0  0  0  0  0  0  0  0
  1 16  1  0  0  0  0
  2 17  1  0  0  0  0
  3 18  2  0  0  0  0
  4 19  1  0  0  0  0
  5  7  1  0  0  0  0
  5 15  1  0  0  0  0
  5 21  1  0  0  0  0
  6 20  1  0  0  0  0
  7 16  1  0  0  0  0
  8  9  1  0  0  0  0
  8 15  1  0  0  0  0
  9 17  1  0  0  0  0
 10 12  1  0  0  0  0
 10 20  2  0  0  0  0
 11 13  2  0  0  0  0
 11 20  1  0  0  0  0
 12 22  2  0  0  0  0
 13 22  1  0  0  0  0
 14 15  1  0  0  0  0
 14 18  1  0  0  0  0
 16 19  1  0  0  0  0
 17 21  1  0  0  0  0
 18 22  1  0  0  0  0
 19 21  1  0  0  0  0
  1 23  1  0  0  0  0
  2 24  1  0  0  0  0
  4 25  1  0  0  0  0
  6 26  1  0  0  0  0
  6 27  1  0  0  0  0
  6 28  1  0  0  0  0
  7 29  1  0  0  0  0
  7 30  1  0  0  0  0
  8 31  1  0  0  0  0
  8 32  1  0  0  0  0
  9 33  1  0  0  0  0
  9 34  1  0  0  0  0
 10 35  1  0  0  0  0
 11 36  1  0  0  0  0
 12 37  1  0  0  0  0
 13 38  1  0  0  0  0
 14 39  1  0  0  0  0
 14 40  1  0  0  0  0
 15 41  1  0  0  0  0
 16 42  1  0  0  0  0
 17 43  1  0  0  0  0
 19 44  1  0  0  0  0
 21 45  1  0  0  0  0
M  END
> <pdb_id>
3EJQ

> <uniprot_id>
Q24451

> <usmiles>
O=C(c1ccc(cc1)C)C[C@@H]2N3[C@H]([C@H](O)CC2)[C@H](O)[C@H](O)C3

$$$$
HN4_A_1049
          07202412393D 1   1.00000     0.00000     0
            
 54 56  0  0  0  0            999 V2000
   33.8666   65.7136    9.7482 O   0  0  0  0  0  0  0  0  0  0  0  0
   31.7166   68.4157    5.5038 O   0  0  0  0  0  0  0  0  0  0  0  0
   26.7105   65.5994    8.3189 O   0  0  0  0  0  0  0  0  0  0  0  0
   33.8853   66.4943    7.3107 O   0  0  0  0  0  0  0  0  0  0  0  0
   30.9951   66.0837    8.3322 N   0  0  0  0  0  0  0  0  0  0  0  0
   23.8809   71.6101   11.2586 C   0  0  0  0  0  0  0  0  0  0  0  0
   22.1557   69.8944   11.4845 C   0  0  0  0  0  0  0  0  0  0  0  0
   23.9375   70.0760   13.2558 C   0  0  0  0  0  0  0  0  0  0  0  0
   31.4700   66.2437    9.7349 C   0  0  0  0  0  0  0  0  0  0  0  0
   29.2887   65.7592    6.6185 C   0  0  0  0  0  0  0  0  0  0  0  0
   29.8126   66.9781    5.8455 C   0  0  0  0  0  0  0  0  0  0  0  0
   26.7991   68.5502   10.3962 C   0  0  0  0  0  0  0  0  0  0  0  0
   24.9050   67.2993    9.5745 C   0  0  0  0  0  0  0  0  0  0  0  0
   25.9363   69.4176   11.0736 C   0  0  0  0  0  0  0  0  0  0  0  0
   24.0492   68.1707   10.2519 C   0  0  0  0  0  0  0  0  0  0  0  0
   28.6834   66.9345    8.8169 C   0  0  0  0  0  0  0  0  0  0  0  0
   29.5348   65.8611    8.1389 C   0  0  2  0  0  0  0  0  0  0  0  0
   32.9036   66.7674    9.5411 C   0  0  2  0  0  0  0  0  0  0  0  0
   31.3068   67.2015    6.1268 C   0  0  2  0  0  0  0  0  0  0  0  0
   27.2024   66.5700    8.8912 C   0  0  0  0  0  0  0  0  0  0  0  0
   32.9966   67.3192    8.1119 C   0  0  2  0  0  0  0  0  0  0  0  0
   31.5479   67.2805    7.6262 C   0  0  2  0  0  0  0  0  0  0  0  0
   26.2895   67.4941    9.6417 C   0  0  0  0  0  0  0  0  0  0  0  0
   24.5489   69.2298   11.0114 C   0  0  0  0  0  0  0  0  0  0  0  0
   23.6348   70.1858   11.7610 C   0  0  0  0  0  0  0  0  0  0  0  0
   34.7897   66.0751    9.6176 H   0  0  0  0  0  0  0  0  0  0  0  0
   32.6885   68.5700    5.6813 H   0  0  0  0  0  0  0  0  0  0  0  0
   33.9372   66.8639    6.3830 H   0  0  0  0  0  0  0  0  0  0  0  0
   24.8372   71.8577   11.4138 H   0  0  0  0  0  0  0  0  0  0  0  0
   23.6787   71.6581   10.2804 H   0  0  0  0  0  0  0  0  0  0  0  0
   23.2876   72.2452   11.7532 H   0  0  0  0  0  0  0  0  0  0  0  0
   21.9346   68.9697   11.7944 H   0  0  0  0  0  0  0  0  0  0  0  0
   21.5883   70.5552   11.9757 H   0  0  0  0  0  0  0  0  0  0  0  0
   21.9793   69.9681   10.5030 H   0  0  0  0  0  0  0  0  0  0  0  0
   23.7701   69.1388   13.5618 H   0  0  0  0  0  0  0  0  0  0  0  0
   24.8945   70.3145   13.4205 H   0  0  0  0  0  0  0  0  0  0  0  0
   23.3457   70.7028   13.7627 H   0  0  0  0  0  0  0  0  0  0  0  0
   31.4669   65.3691   10.2198 H   0  0  0  0  0  0  0  0  0  0  0  0
   30.9083   66.9035   10.2339 H   0  0  0  0  0  0  0  0  0  0  0  0
   29.7498   64.9411    6.2747 H   0  0  0  0  0  0  0  0  0  0  0  0
   28.3048   65.6790    6.4591 H   0  0  0  0  0  0  0  0  0  0  0  0
   29.3009   67.7898    6.1274 H   0  0  0  0  0  0  0  0  0  0  0  0
   29.6826   66.8257    4.8658 H   0  0  0  0  0  0  0  0  0  0  0  0
   27.7879   68.6882   10.4533 H   0  0  0  0  0  0  0  0  0  0  0  0
   24.5302   66.5392    9.0436 H   0  0  0  0  0  0  0  0  0  0  0  0
   26.3117   70.1766   11.6056 H   0  0  0  0  0  0  0  0  0  0  0  0
   23.0605   68.0334   10.1916 H   0  0  0  0  0  0  0  0  0  0  0  0
   28.7756   67.7861    8.3009 H   0  0  0  0  0  0  0  0  0  0  0  0
   29.0244   67.0699    9.7472 H   0  0  0  0  0  0  0  0  0  0  0  0
   29.3012   64.9791    8.5482 H   0  0  0  0  0  0  0  0  0  0  0  0
   33.0766   67.5061   10.1926 H   0  0  0  0  0  0  0  0  0  0  0  0
   31.8326   66.4406    5.7467 H   0  0  0  0  0  0  0  0  0  0  0  0
   33.3274   68.2627    8.1294 H   0  0  0  0  0  0  0  0  0  0  0  0
   31.0800   68.0925    7.9751 H   0  0  0  0  0  0  0  0  0  0  0  0
  1 18  1  0  0  0  0
  2 19  1  0  0  0  0
  3 20  2  0  0  0  0
  4 21  1  0  0  0  0
  5  9  1  0  0  0  0
  5 17  1  0  0  0  0
  5 22  1  0  0  0  0
  6 25  1  0  0  0  0
  7 25  1  0  0  0  0
  8 25  1  0  0  0  0
  9 18  1  0  0  0  0
 10 11  1  0  0  0  0
 10 17  1  0  0  0  0
 11 19  1  0  0  0  0
 12 14  1  0  0  0  0
 12 23  2  0  0  0  0
 13 15  2  0  0  0  0
 13 23  1  0  0  0  0
 14 24  2  0  0  0  0
 15 24  1  0  0  0  0
 16 17  1  0  0  0  0
 16 20  1  0  0  0  0
 18 21  1  0  0  0  0
 19 22  1  0  0  0  0
 20 23  1  0  0  0  0
 21 22  1  0  0  0  0
 24 25  1  0  0  0  0
  1 26  1  0  0  0  0
  2 27  1  0  0  0  0
  4 28  1  0  0  0  0
  6 29  1  0  0  0  0
  6 30  1  0  0  0  0
  6 31  1  0  0  0  0
  7 32  1  0  0  0  0
  7 33  1  0  0  0  0
  7 34  1  0  0  0  0
  8 35  1  0  0  0  0
  8 36  1  0  0  0  0
  8 37  1  0  0  0  0
  9 38  1  0  0  0  0
  9 39  1  0  0  0  0
 10 40  1  0  0  0  0
 10 41  1  0  0  0  0
 11 42  1  0  0  0  0
 11 43  1  0  0  0  0
 12 44  1  0  0  0  0
 13 45  1  0  0  0  0
 14 46  1  0  0  0  0
 15 47  1  0  0  0  0
 16 48  1  0  0  0  0
 16 49  1  0  0  0  0
 17 50  1  0  0  0  0
 18 51  1  0  0  0  0
 19 52  1  0  0  0  0
 21 53  1  0  0  0  0
 22 54  1  0  0  0  0
M  END
> <pdb_id>
3EJR

> <uniprot_id>
Q24451

> <usmiles>
O=C(c1ccc(cc1)C(C)(C)C)C[C@@H]2N3[C@H]([C@H](O)CC2)[C@H](O)[C@H](O)C3

$$$$
HN5_A_1049
          07202412393D 1   1.00000     0.00000     0
            
 55 57  0  0  0  0            999 V2000
   33.9112   65.7924    9.8071 O   0  0  0  0  0  0  0  0  0  0  0  0
   31.7482   68.3481    5.4936 O   0  0  0  0  0  0  0  0  0  0  0  0
   33.9743   66.5682    7.2514 O   0  0  0  0  0  0  0  0  0  0  0  0
   31.0698   66.1281    8.4019 N   0  0  0  0  0  0  0  0  0  0  0  0
   24.0258   71.8936   11.1833 C   0  0  0  0  0  0  0  0  0  0  0  0
   25.3294   71.9987   13.3117 C   0  0  0  0  0  0  0  0  0  0  0  0
   23.5264   70.3281   13.0370 C   0  0  0  0  0  0  0  0  0  0  0  0
   31.5539   66.3226    9.7926 C   0  0  0  0  0  0  0  0  0  0  0  0
   29.3142   65.6943    6.7450 C   0  0  0  0  0  0  0  0  0  0  0  0
   28.7166   67.0948    8.8030 C   0  0  0  0  0  0  0  0  0  0  0  0
   29.8720   66.8579    5.9107 C   0  0  0  0  0  0  0  0  0  0  0  0
   28.3365   66.9602   10.2952 C   0  0  0  0  0  0  0  0  0  0  0  0
   27.7325   68.8422   11.8227 C   0  0  0  0  0  0  0  0  0  0  0  0
   26.0796   68.1326   10.1760 C   0  0  0  0  0  0  0  0  0  0  0  0
   26.8513   69.8225   12.3302 C   0  0  0  0  0  0  0  0  0  0  0  0
   25.0953   69.1396   10.6255 C   0  0  0  0  0  0  0  0  0  0  0  0
   29.5891   65.9464    8.2287 C   0  0  2  0  0  0  0  0  0  0  0  0
   33.0045   66.8580    9.5785 C   0  0  2  0  0  0  0  0  0  0  0  0
   31.3694   67.1418    6.1729 C   0  0  2  0  0  0  0  0  0  0  0  0
   33.0917   67.3428    8.1140 C   0  0  2  0  0  0  0  0  0  0  0  0
   27.3391   68.0203   10.7706 C   0  0  0  0  0  0  0  0  0  0  0  0
   31.6347   67.2798    7.6696 C   0  0  2  0  0  0  0  0  0  0  0  0
   25.5806   70.0199   11.7615 C   0  0  0  0  0  0  0  0  0  0  0  0
   24.6392   71.0791   12.3179 C   0  0  0  0  0  0  0  0  0  0  0  0
   34.8476   66.1172    9.6743 H   0  0  0  0  0  0  0  0  0  0  0  0
   32.7162   68.5349    5.6609 H   0  0  0  0  0  0  0  0  0  0  0  0
   33.9642   66.9561    6.3297 H   0  0  0  0  0  0  0  0  0  0  0  0
   23.5752   71.2779   10.5368 H   0  0  0  0  0  0  0  0  0  0  0  0
   23.3545   72.5334   11.5575 H   0  0  0  0  0  0  0  0  0  0  0  0
   24.7455   72.4033   10.7120 H   0  0  0  0  0  0  0  0  0  0  0  0
   25.7270   71.4536   14.0498 H   0  0  0  0  0  0  0  0  0  0  0  0
   26.0531   72.5088   12.8469 H   0  0  0  0  0  0  0  0  0  0  0  0
   24.6621   72.6389   13.6925 H   0  0  0  0  0  0  0  0  0  0  0  0
   23.9163   69.7896   13.7840 H   0  0  0  0  0  0  0  0  0  0  0  0
   22.8672   70.9829   13.4068 H   0  0  0  0  0  0  0  0  0  0  0  0
   23.0649   69.7186   12.3923 H   0  0  0  0  0  0  0  0  0  0  0  0
   31.5588   65.4591   10.2968 H   0  0  0  0  0  0  0  0  0  0  0  0
   30.9913   66.9902   10.2803 H   0  0  0  0  0  0  0  0  0  0  0  0
   29.7565   64.8423    6.4649 H   0  0  0  0  0  0  0  0  0  0  0  0
   28.3278   65.6221    6.5972 H   0  0  0  0  0  0  0  0  0  0  0  0
   29.2208   67.9509    8.6895 H   0  0  0  0  0  0  0  0  0  0  0  0
   27.8701   67.1336    8.2719 H   0  0  0  0  0  0  0  0  0  0  0  0
   29.3504   67.6827    6.1291 H   0  0  0  0  0  0  0  0  0  0  0  0
   29.7564   66.6371    4.9423 H   0  0  0  0  0  0  0  0  0  0  0  0
   29.1695   67.0418   10.8424 H   0  0  0  0  0  0  0  0  0  0  0  0
   27.9308   66.0575   10.4382 H   0  0  0  0  0  0  0  0  0  0  0  0
   28.6437   68.7382   12.2214 H   0  0  0  0  0  0  0  0  0  0  0  0
   25.8378   67.5158    9.4270 H   0  0  0  0  0  0  0  0  0  0  0  0
   27.1357   70.3853   13.1063 H   0  0  0  0  0  0  0  0  0  0  0  0
   24.1877   69.2326   10.2160 H   0  0  0  0  0  0  0  0  0  0  0  0
   29.3366   65.1126    8.7196 H   0  0  0  0  0  0  0  0  0  0  0  0
   33.1917   67.6137   10.2060 H   0  0  0  0  0  0  0  0  0  0  0  0
   31.9124   66.3823    5.8147 H   0  0  0  0  0  0  0  0  0  0  0  0
   33.3901   68.2972    8.1073 H   0  0  0  0  0  0  0  0  0  0  0  0
   31.1757   68.1080    7.9914 H   0  0  0  0  0  0  0  0  0  0  0  0
  1 18  1  0  0  0  0
  2 19  1  0  0  0  0
  3 20  1  0  0  0  0
  4  8  1  0  0  0  0
  4 17  1  0  0  0  0
  4 22  1  0  0  0  0
  5 24  1  0  0  0  0
  6 24  1  0  0  0  0
  7 24  1  0  0  0  0
  8 18  1  0  0  0  0
  9 11  1  0  0  0  0
  9 17  1  0  0  0  0
 10 12  1  0  0  0  0
 10 17  1  0  0  0  0
 11 19  1  0  0  0  0
 12 21  1  0  0  0  0
 13 15  2  0  0  0  0
 13 21  1  0  0  0  0
 14 16  1  0  0  0  0
 14 21  2  0  0  0  0
 15 23  1  0  0  0  0
 16 23  2  0  0  0  0
 18 20  1  0  0  0  0
 19 22  1  0  0  0  0
 20 22  1  0  0  0  0
 23 24  1  0  0  0  0
  1 25  1  0  0  0  0
  2 26  1  0  0  0  0
  3 27  1  0  0  0  0
  5 28  1  0  0  0  0
  5 29  1  0  0  0  0
  5 30  1  0  0  0  0
  6 31  1  0  0  0  0
  6 32  1  0  0  0  0
  6 33  1  0  0  0  0
  7 34  1  0  0  0  0
  7 35  1  0  0  0  0
  7 36  1  0  0  0  0
  8 37  1  0  0  0  0
  8 38  1  0  0  0  0
  9 39  1  0  0  0  0
  9 40  1  0  0  0  0
 10 41  1  0  0  0  0
 10 42  1  0  0  0  0
 11 43  1  0  0  0  0
 11 44  1  0  0  0  0
 12 45  1  0  0  0  0
 12 46  1  0  0  0  0
 13 47  1  0  0  0  0
 14 48  1  0  0  0  0
 15 49  1  0  0  0  0
 16 50  1  0  0  0  0
 17 51  1  0  0  0  0
 18 52  1  0  0  0  0
 19 53  1  0  0  0  0
 20 54  1  0  0  0  0
 22 55  1  0  0  0  0
M  END
> <pdb_id>
3EJS

> <uniprot_id>
Q24451

> <usmiles>
O[C@H]1[C@H]2N([C@@H](CCc3ccc(cc3)C(C)(C)C)CC1)C[C@@H](O)[C@H]2O

$$$$
HN6_A_1050
          07202412393D 1   1.00000     0.00000     0
            
 55 57  0  0  0  0            999 V2000
   33.8829   65.8005    9.8262 O   0  0  0  0  0  0  0  0  0  0  0  0
   31.6684   68.2530    5.5088 O   0  0  0  0  0  0  0  0  0  0  0  0
   33.8714   66.5782    7.3079 O   0  0  0  0  0  0  0  0  0  0  0  0
   30.9736   66.2075    8.5425 N   0  0  0  0  0  0  0  0  0  0  0  0
   24.9224   70.6589   11.4829 C   0  0  0  0  0  0  0  0  0  0  0  0
   24.8396   69.4256   13.6251 C   0  0  0  0  0  0  0  0  0  0  0  0
   23.0020   69.1485   11.9671 C   0  0  0  0  0  0  0  0  0  0  0  0
   31.5382   66.4686    9.8909 C   0  0  0  0  0  0  0  0  0  0  0  0
   29.1020   65.8866    6.9997 C   0  0  0  0  0  0  0  0  0  0  0  0
   28.9065   65.1148    9.4380 C   0  0  0  0  0  0  0  0  0  0  0  0
   29.7041   66.9477    6.0626 C   0  0  0  0  0  0  0  0  0  0  0  0
   27.3815   64.9474    9.4558 C   0  0  0  0  0  0  0  0  0  0  0  0
   26.7857   66.2803   11.5468 C   0  0  0  0  0  0  0  0  0  0  0  0
   25.8282   66.8880    9.4041 C   0  0  0  0  0  0  0  0  0  0  0  0
   26.0963   67.3296   12.1702 C   0  0  0  0  0  0  0  0  0  0  0  0
   25.0688   67.9952    9.9754 C   0  0  0  0  0  0  0  0  0  0  0  0
   29.4766   66.1649    8.4651 C   0  0  1  0  0  0  0  0  0  0  0  0
   32.9943   66.9125    9.5956 C   0  0  2  0  0  0  0  0  0  0  0  0
   31.2242   67.1105    6.2419 C   0  0  2  0  0  0  0  0  0  0  0  0
   33.0130   67.4080    8.1307 C   0  0  2  0  0  0  0  0  0  0  0  0
   26.6591   66.0779   10.1662 C   0  0  0  0  0  0  0  0  0  0  0  0
   31.5468   67.3149    7.7254 C   0  0  2  0  0  0  0  0  0  0  0  0
   25.2494   68.1937   11.4620 C   0  0  0  0  0  0  0  0  0  0  0  0
   24.5081   69.3382   12.1353 C   0  0  0  0  0  0  0  0  0  0  0  0
   34.8240   66.0811    9.6373 H   0  0  0  0  0  0  0  0  0  0  0  0
   32.6560   68.3600    5.6243 H   0  0  0  0  0  0  0  0  0  0  0  0
   33.8646   66.9205    6.3683 H   0  0  0  0  0  0  0  0  0  0  0  0
   24.7153   70.6270   10.5051 H   0  0  0  0  0  0  0  0  0  0  0  0
   24.4187   71.4121   11.9060 H   0  0  0  0  0  0  0  0  0  0  0  0
   25.9039   70.8006   11.6113 H   0  0  0  0  0  0  0  0  0  0  0  0
   24.5776   68.5721   14.0755 H   0  0  0  0  0  0  0  0  0  0  0  0
   25.8217   69.5752   13.7398 H   0  0  0  0  0  0  0  0  0  0  0  0
   24.3364   70.1866   14.0344 H   0  0  0  0  0  0  0  0  0  0  0  0
   22.7251   68.2865   12.3918 H   0  0  0  0  0  0  0  0  0  0  0  0
   22.5194   69.9064   12.4061 H   0  0  0  0  0  0  0  0  0  0  0  0
   22.7752   69.1283   10.9934 H   0  0  0  0  0  0  0  0  0  0  0  0
   31.5239   65.6400   10.4506 H   0  0  0  0  0  0  0  0  0  0  0  0
   31.0310   67.1940   10.3561 H   0  0  0  0  0  0  0  0  0  0  0  0
   29.4497   64.9859    6.7392 H   0  0  0  0  0  0  0  0  0  0  0  0
   28.1062   65.8984    6.9093 H   0  0  0  0  0  0  0  0  0  0  0  0
   29.3056   64.2302    9.1968 H   0  0  0  0  0  0  0  0  0  0  0  0
   29.1941   65.3696   10.3613 H   0  0  0  0  0  0  0  0  0  0  0  0
   29.2646   67.8261    6.2508 H   0  0  0  0  0  0  0  0  0  0  0  0
   29.5211   66.6793    5.1169 H   0  0  0  0  0  0  0  0  0  0  0  0
   27.1621   64.0896    9.9207 H   0  0  0  0  0  0  0  0  0  0  0  0
   27.0559   64.9074    8.5112 H   0  0  0  0  0  0  0  0  0  0  0  0
   27.3689   65.6749   12.0885 H   0  0  0  0  0  0  0  0  0  0  0  0
   25.7468   66.7053    8.4243 H   0  0  0  0  0  0  0  0  0  0  0  0
   26.2126   67.4665   13.1539 H   0  0  0  0  0  0  0  0  0  0  0  0
   24.4732   68.5793    9.4239 H   0  0  0  0  0  0  0  0  0  0  0  0
   29.1187   67.0632    8.7203 H   0  0  0  0  0  0  0  0  0  0  0  0
   33.2413   67.6665   10.2042 H   0  0  0  0  0  0  0  0  0  0  0  0
   31.6917   66.2928    5.9058 H   0  0  0  0  0  0  0  0  0  0  0  0
   33.3189   68.3594    8.0946 H   0  0  0  0  0  0  0  0  0  0  0  0
   31.1016   68.1622    8.0148 H   0  0  0  0  0  0  0  0  0  0  0  0
  1 18  1  0  0  0  0
  2 19  1  0  0  0  0
  3 20  1  0  0  0  0
  4  8  1  0  0  0  0
  4 17  1  0  0  0  0
  4 22  1  0  0  0  0
  5 24  1  0  0  0  0
  6 24  1  0  0  0  0
  7 24  1  0  0  0  0
  8 18  1  0  0  0  0
  9 11  1  0  0  0  0
  9 17  1  0  0  0  0
 10 12  1  0  0  0  0
 10 17  1  0  0  0  0
 11 19  1  0  0  0  0
 12 21  1  0  0  0  0
 13 15  2  0  0  0  0
 13 21  1  0  0  0  0
 14 16  1  0  0  0  0
 14 21  2  0  0  0  0
 15 23  1  0  0  0  0
 16 23  2  0  0  0  0
 18 20  1  0  0  0  0
 19 22  1  0  0  0  0
 20 22  1  0  0  0  0
 23 24  1  0  0  0  0
  1 25  1  0  0  0  0
  2 26  1  0  0  0  0
  3 27  1  0  0  0  0
  5 28  1  0  0  0  0
  5 29  1  0  0  0  0
  5 30  1  0  0  0  0
  6 31  1  0  0  0  0
  6 32  1  0  0  0  0
  6 33  1  0  0  0  0
  7 34  1  0  0  0  0
  7 35  1  0  0  0  0
  7 36  1  0  0  0  0
  8 37  1  0  0  0  0
  8 38  1  0  0  0  0
  9 39  1  0  0  0  0
  9 40  1  0  0  0  0
 10 41  1  0  0  0  0
 10 42  1  0  0  0  0
 11 43  1  0  0  0  0
 11 44  1  0  0  0  0
 12 45  1  0  0  0  0
 12 46  1  0  0  0  0
 13 47  1  0  0  0  0
 14 48  1  0  0  0  0
 15 49  1  0  0  0  0
 16 50  1  0  0  0  0
 17 51  1  0  0  0  0
 18 52  1  0  0  0  0
 19 53  1  0  0  0  0
 20 54  1  0  0  0  0
 22 55  1  0  0  0  0
M  END
> <pdb_id>
3EJT

> <uniprot_id>
Q24451

> <usmiles>
O[C@H]1[C@H]2N([C@H](CCc3ccc(cc3)C(C)(C)C)CC1)C[C@@H](O)[C@H]2O

$$$$
HN7_A_1049
          07202412393D 1   1.00000     0.00000     0
            
 54 56  0  0  0  0            999 V2000
   33.8590   65.8390    9.8190 O   0  0  0  0  0  0  0  0  0  0  0  0
   31.7830   68.3980    5.4500 O   0  0  0  0  0  0  0  0  0  0  0  0
   26.5920   65.0700    8.4450 O   0  0  0  0  0  0  0  0  0  0  0  0
   33.8830   66.5840    7.2510 O   0  0  0  0  0  0  0  0  0  0  0  0
   30.9630   66.3100    8.4360 N   0  0  0  0  0  0  0  0  0  0  0  0
   22.6060   69.8890   11.4900 C   0  0  0  0  0  0  0  0  0  0  0  0
   24.2180   69.9020   13.3420 C   0  0  0  0  0  0  0  0  0  0  0  0
   24.5180   71.4470   11.3840 C   0  0  0  0  0  0  0  0  0  0  0  0
   31.5130   66.4940    9.8040 C   0  0  0  0  0  0  0  0  0  0  0  0
   29.1120   66.0840    6.8610 C   0  0  0  0  0  0  0  0  0  0  0  0
   29.7750   67.1320    5.9530 C   0  0  0  0  0  0  0  0  0  0  0  0
   25.0730   67.0250    9.7010 C   0  0  0  0  0  0  0  0  0  0  0  0
   27.0950   67.8780   10.7080 C   0  0  0  0  0  0  0  0  0  0  0  0
   24.3250   68.0300   10.3160 C   0  0  0  0  0  0  0  0  0  0  0  0
   26.3300   68.8900   11.3300 C   0  0  0  0  0  0  0  0  0  0  0  0
   28.6950   65.5350    9.3510 C   0  0  0  0  0  0  0  0  0  0  0  0
   29.4720   66.3800    8.3310 C   0  0  1  0  0  0  0  0  0  0  0  0
   32.9750   66.9300    9.5360 C   0  0  2  0  0  0  0  0  0  0  0  0
   31.2890   67.2570    6.1620 C   0  0  2  0  0  0  0  0  0  0  0  0
   27.2110   65.8110    9.1850 C   0  0  0  0  0  0  0  0  0  0  0  0
   33.0530   67.4310    8.0790 C   0  0  2  0  0  0  0  0  0  0  0  0
   31.5880   67.4230    7.6540 C   0  0  2  0  0  0  0  0  0  0  0  0
   26.4650   66.9340    9.8800 C   0  0  0  0  0  0  0  0  0  0  0  0
   24.9350   68.9750   11.1410 C   0  0  0  0  0  0  0  0  0  0  0  0
   24.0930   70.0490   11.8230 C   0  0  0  0  0  0  0  0  0  0  0  0
   34.8026   66.1210    9.6458 H   0  0  0  0  0  0  0  0  0  0  0  0
   32.7702   68.4758    5.5889 H   0  0  0  0  0  0  0  0  0  0  0  0
   33.9039   66.9462    6.3191 H   0  0  0  0  0  0  0  0  0  0  0  0
   22.4741   69.9779   10.5027 H   0  0  0  0  0  0  0  0  0  0  0  0
   22.2927   68.9874   11.7883 H   0  0  0  0  0  0  0  0  0  0  0  0
   22.0807   70.5973   11.9616 H   0  0  0  0  0  0  0  0  0  0  0  0
   25.1769   69.9996   13.6086 H   0  0  0  0  0  0  0  0  0  0  0  0
   23.6734   70.6101   13.7914 H   0  0  0  0  0  0  0  0  0  0  0  0
   23.8854   69.0003   13.6181 H   0  0  0  0  0  0  0  0  0  0  0  0
   25.4875   71.5806   11.5895 H   0  0  0  0  0  0  0  0  0  0  0  0
   24.3689   71.5472   10.4003 H   0  0  0  0  0  0  0  0  0  0  0  0
   23.9761   72.1295   11.8745 H   0  0  0  0  0  0  0  0  0  0  0  0
   31.4821   65.6391   10.3218 H   0  0  0  0  0  0  0  0  0  0  0  0
   31.0119   67.2027   10.3005 H   0  0  0  0  0  0  0  0  0  0  0  0
   29.4407   65.1725    6.6139 H   0  0  0  0  0  0  0  0  0  0  0  0
   28.1194   66.1229    6.7461 H   0  0  0  0  0  0  0  0  0  0  0  0
   29.3560   68.0209    6.1382 H   0  0  0  0  0  0  0  0  0  0  0  0
   29.6075   66.8764    5.0008 H   0  0  0  0  0  0  0  0  0  0  0  0
   24.6094   66.3554    9.1208 H   0  0  0  0  0  0  0  0  0  0  0  0
   28.0829   67.8338   10.8568 H   0  0  0  0  0  0  0  0  0  0  0  0
   23.3377   68.0733   10.1631 H   0  0  0  0  0  0  0  0  0  0  0  0
   26.7868   69.5593   11.9159 H   0  0  0  0  0  0  0  0  0  0  0  0
   28.9809   65.7796   10.2775 H   0  0  0  0  0  0  0  0  0  0  0  0
   28.8764   64.5646    9.1914 H   0  0  0  0  0  0  0  0  0  0  0  0
   29.2193   67.3328    8.4995 H   0  0  0  0  0  0  0  0  0  0  0  0
   33.1989   67.6892   10.1471 H   0  0  0  0  0  0  0  0  0  0  0  0
   31.7407   66.4320    5.8223 H   0  0  0  0  0  0  0  0  0  0  0  0
   33.4040   68.3672    8.0625 H   0  0  0  0  0  0  0  0  0  0  0  0
   31.1749   68.2818    7.9570 H   0  0  0  0  0  0  0  0  0  0  0  0
  1 18  1  0  0  0  0
  2 19  1  0  0  0  0
  3 20  2  0  0  0  0
  4 21  1  0  0  0  0
  5  9  1  0  0  0  0
  5 17  1  0  0  0  0
  5 22  1  0  0  0  0
  6 25  1  0  0  0  0
  7 25  1  0  0  0  0
  8 25  1  0  0  0  0
  9 18  1  0  0  0  0
 10 11  1  0  0  0  0
 10 17  1  0  0  0  0
 11 19  1  0  0  0  0
 12 14  1  0  0  0  0
 12 23  2  0  0  0  0
 13 15  2  0  0  0  0
 13 23  1  0  0  0  0
 14 24  2  0  0  0  0
 15 24  1  0  0  0  0
 16 17  1  0  0  0  0
 16 20  1  0  0  0  0
 18 21  1  0  0  0  0
 19 22  1  0  0  0  0
 20 23  1  0  0  0  0
 21 22  1  0  0  0  0
 24 25  1  0  0  0  0
  1 26  1  0  0  0  0
  2 27  1  0  0  0  0
  4 28  1  0  0  0  0
  6 29  1  0  0  0  0
  6 30  1  0  0  0  0
  6 31  1  0  0  0  0
  7 32  1  0  0  0  0
  7 33  1  0  0  0  0
  7 34  1  0  0  0  0
  8 35  1  0  0  0  0
  8 36  1  0  0  0  0
  8 37  1  0  0  0  0
  9 38  1  0  0  0  0
  9 39  1  0  0  0  0
 10 40  1  0  0  0  0
 10 41  1  0  0  0  0
 11 42  1  0  0  0  0
 11 43  1  0  0  0  0
 12 44  1  0  0  0  0
 13 45  1  0  0  0  0
 14 46  1  0  0  0  0
 15 47  1  0  0  0  0
 16 48  1  0  0  0  0
 16 49  1  0  0  0  0
 17 50  1  0  0  0  0
 18 51  1  0  0  0  0
 19 52  1  0  0  0  0
 21 53  1  0  0  0  0
 22 54  1  0  0  0  0
M  END
> <pdb_id>
3EJU

> <uniprot_id>
Q24451

> <usmiles>
O=C(c1ccc(cc1)C(C)(C)C)C[C@H]2N3[C@H]([C@H](O)CC2)[C@H](O)[C@H](O)C3

$$$$
HN9_B_304
          07202410153D 1   1.00000     0.00000     0
            
 26 27  0  0  0  0            999 V2000
  -36.0494   -8.1509   68.4771 O   0  0  0  0  0  0  0  0  0  0  0  0
  -35.6797   -6.6130   66.9609 O   0  0  0  0  0  0  0  0  0  0  0  0
  -31.7838   -1.8230   69.8305 O   0  0  0  0  0  0  0  0  0  0  0  0
  -33.4155   -9.2503   67.9734 N   0  0  0  0  0  0  0  0  0  0  0  0
  -32.8505   -7.4274   66.9299 N   0  0  0  0  0  0  0  0  0  0  0  0
  -32.1404   -9.3483   67.6758 C   0  0  0  0  0  0  0  0  0  0  0  0
  -31.7704   -8.1867   67.0086 C   0  0  0  0  0  0  0  0  0  0  0  0
  -32.9202   -6.1203   66.2907 C   0  0  0  0  0  0  0  0  0  0  0  0
  -32.3805   -2.6216   67.6355 C   0  0  0  0  0  0  0  0  0  0  0  0
  -32.0303   -4.1792   69.4365 C   0  0  0  0  0  0  0  0  0  0  0  0
  -32.6579   -3.6743   66.7823 C   0  0  0  0  0  0  0  0  0  0  0  0
  -32.3004   -5.2275   68.5767 C   0  0  0  0  0  0  0  0  0  0  0  0
  -35.2736   -7.5846   67.6638 C   0  0  0  0  0  0  0  0  0  0  0  0
  -32.0681   -2.8767   68.9617 C   0  0  0  0  0  0  0  0  0  0  0  0
  -33.8461   -8.0848   67.5169 C   0  0  0  0  0  0  0  0  0  0  0  0
  -32.6124   -4.9753   67.2535 C   0  0  0  0  0  0  0  0  0  0  0  0
  -35.7220   -8.9177   69.0292 H   0  0  0  0  0  0  0  0  0  0  0  0
  -31.5587   -2.0102   70.7867 H   0  0  0  0  0  0  0  0  0  0  0  0
  -31.5426  -10.1206   67.8908 H   0  0  0  0  0  0  0  0  0  0  0  0
  -30.8610   -7.9669   66.6553 H   0  0  0  0  0  0  0  0  0  0  0  0
  -33.8422   -5.9918   65.9253 H   0  0  0  0  0  0  0  0  0  0  0  0
  -32.2583   -6.0949   65.5416 H   0  0  0  0  0  0  0  0  0  0  0  0
  -32.4053   -1.6809   67.2972 H   0  0  0  0  0  0  0  0  0  0  0  0
  -31.8090   -4.3590   70.3950 H   0  0  0  0  0  0  0  0  0  0  0  0
  -32.8910   -3.4959   65.8264 H   0  0  0  0  0  0  0  0  0  0  0  0
  -32.2700   -6.1691   68.9121 H   0  0  0  0  0  0  0  0  0  0  0  0
  1 13  1  0  0  0  0
  2 13  2  0  0  0  0
  3 14  1  0  0  0  0
  4  6  1  0  0  0  0
  4 15  2  0  0  0  0
  5  7  1  0  0  0  0
  5  8  1  0  0  0  0
  5 15  1  0  0  0  0
  6  7  2  0  0  0  0
  8 16  1  0  0  0  0
  9 11  1  0  0  0  0
  9 14  2  0  0  0  0
 10 12  2  0  0  0  0
 10 14  1  0  0  0  0
 11 16  2  0  0  0  0
 12 16  1  0  0  0  0
 13 15  1  0  0  0  0
  1 17  1  0  0  0  0
  3 18  1  0  0  0  0
  6 19  1  0  0  0  0
  7 20  1  0  0  0  0
  8 21  1  0  0  0  0
  8 22  1  0  0  0  0
  9 23  1  0  0  0  0
 10 24  1  0  0  0  0
 11 25  1  0  0  0  0
 12 26  1  0  0  0  0
M  END
> <pdb_id>
7DV1

> <uniprot_id>
Q9K2N0

> <usmiles>
O=C(O)C1=NC=CN1Cc2ccc(O)cc2

$$$$
HNR_C_400
          07192422273D 1   1.00000     0.00000     0
            
 44 45  0  0  0  0            999 V2000
   30.8196  -18.9099   58.9707 S   0  0  0  0  0  0  0  0  0  0  0  0
   30.7617  -20.3393   58.8619 O   0  0  0  0  0  0  0  0  0  0  0  0
   30.0982  -18.5233   60.2182 O   0  0  0  0  0  0  0  0  0  0  0  0
   35.9109  -19.6186   55.0416 O   0  0  0  0  0  0  0  0  0  0  0  0
   32.9819  -16.8192   56.8536 O   0  0  0  0  0  0  0  0  0  0  0  0
   33.7832  -20.9041   59.0166 N   0  0  0  0  0  0  0  0  0  0  0  0
   34.4394  -18.2100   55.9687 N   0  0  0  0  0  0  0  0  0  0  0  0
   32.4019  -18.4210   58.9877 N   0  0  0  0  0  0  0  0  0  0  0  0
   34.8875  -20.3251   56.9808 N   0  0  0  0  0  0  0  0  0  0  0  0
   32.8291  -17.4250   59.9937 C   0  0  0  0  0  0  0  0  0  0  0  0
   34.1934  -23.9459   54.2793 C   0  0  0  0  0  0  0  0  0  0  0  0
   35.6457  -21.5805   56.9582 C   0  0  0  0  0  0  0  0  0  0  0  0
   34.5950  -22.5749   54.8670 C   0  0  0  0  0  0  0  0  0  0  0  0
   34.8452  -22.7222   56.3574 C   0  0  0  0  0  0  0  0  0  0  0  0
   28.7024  -16.9729   55.4828 C   0  0  0  0  0  0  0  0  0  0  0  0
   29.4578  -18.1245   55.2937 C   0  0  0  0  0  0  0  0  0  0  0  0
   28.6022  -16.4058   56.7515 C   0  0  0  0  0  0  0  0  0  0  0  0
   30.1139  -18.7120   56.3583 C   0  0  0  0  0  0  0  0  0  0  0  0
   29.2563  -17.0093   57.8170 C   0  0  0  0  0  0  0  0  0  0  0  0
   35.1206  -19.4004   55.9593 C   0  0  0  0  0  0  0  0  0  0  0  0
   33.5431  -17.9031   56.9657 C   0  0  0  0  0  0  0  0  0  0  0  0
   30.0117  -18.1589   57.6218 C   0  0  0  0  0  0  0  0  0  0  0  0
   33.9783  -20.0136   58.0439 C   0  0  0  0  0  0  0  0  0  0  0  0
   33.2861  -18.7900   58.0264 C   0  0  0  0  0  0  0  0  0  0  0  0
   33.1512  -20.6981   59.7637 H   0  0  0  0  0  0  0  0  0  0  0  0
   34.2689  -21.7780   58.9991 H   0  0  0  0  0  0  0  0  0  0  0  0
   34.5980  -17.5503   55.2340 H   0  0  0  0  0  0  0  0  0  0  0  0
   33.8035  -17.2321   59.8788 H   0  0  0  0  0  0  0  0  0  0  0  0
   32.3056  -16.5818   59.8711 H   0  0  0  0  0  0  0  0  0  0  0  0
   32.6669  -17.7876   60.9114 H   0  0  0  0  0  0  0  0  0  0  0  0
   34.0279  -23.8521   53.2975 H   0  0  0  0  0  0  0  0  0  0  0  0
   34.9316  -24.6030   54.4316 H   0  0  0  0  0  0  0  0  0  0  0  0
   33.3607  -24.2700   54.7282 H   0  0  0  0  0  0  0  0  0  0  0  0
   35.8975  -21.8218   57.8954 H   0  0  0  0  0  0  0  0  0  0  0  0
   36.4742  -21.4468   56.4144 H   0  0  0  0  0  0  0  0  0  0  0  0
   33.8571  -21.9173   54.7154 H   0  0  0  0  0  0  0  0  0  0  0  0
   35.4280  -22.2503   54.4188 H   0  0  0  0  0  0  0  0  0  0  0  0
   33.9613  -22.7671   56.8229 H   0  0  0  0  0  0  0  0  0  0  0  0
   35.3463  -23.5739   56.5107 H   0  0  0  0  0  0  0  0  0  0  0  0
   28.2310  -16.5514   54.7082 H   0  0  0  0  0  0  0  0  0  0  0  0
   29.5266  -18.5299   54.3822 H   0  0  0  0  0  0  0  0  0  0  0  0
   28.0655  -15.5740   56.8929 H   0  0  0  0  0  0  0  0  0  0  0  0
   30.6620  -19.5361   56.2153 H   0  0  0  0  0  0  0  0  0  0  0  0
   29.1832  -16.6134   58.7323 H   0  0  0  0  0  0  0  0  0  0  0  0
  1  2  2  0  0  0  0
  1  3  2  0  0  0  0
  1  8  1  0  0  0  0
  1 22  1  0  0  0  0
  4 20  2  0  0  0  0
  5 21  2  0  0  0  0
  6 23  1  0  0  0  0
  7 20  1  0  0  0  0
  7 21  1  0  0  0  0
  8 10  1  0  0  0  0
  8 24  1  0  0  0  0
  9 12  1  0  0  0  0
  9 20  1  0  0  0  0
  9 23  1  0  0  0  0
 11 13  1  0  0  0  0
 12 14  1  0  0  0  0
 13 14  1  0  0  0  0
 15 16  2  0  0  0  0
 15 17  1  0  0  0  0
 16 18  1  0  0  0  0
 17 19  2  0  0  0  0
 18 22  2  0  0  0  0
 19 22  1  0  0  0  0
 21 24  1  0  0  0  0
 23 24  2  0  0  0  0
  6 25  1  0  0  0  0
  6 26  1  0  0  0  0
  7 27  1  0  0  0  0
 10 28  1  0  0  0  0
 10 29  1  0  0  0  0
 10 30  1  0  0  0  0
 11 31  1  0  0  0  0
 11 32  1  0  0  0  0
 11 33  1  0  0  0  0
 12 34  1  0  0  0  0
 12 35  1  0  0  0  0
 13 36  1  0  0  0  0
 13 37  1  0  0  0  0
 14 38  1  0  0  0  0
 14 39  1  0  0  0  0
 15 40  1  0  0  0  0
 16 41  1  0  0  0  0
 17 42  1  0  0  0  0
 18 43  1  0  0  0  0
 19 44  1  0  0  0  0
M  END
> <pdb_id>
4ARW

> <uniprot_id>
G3XCK4

> <usmiles>
S(=O)(=O)(N(C=1C(=O)NC(=O)N(C1N)CCCC)C)c2ccccc2

$$$$
HNV_A_201
          07202405373D 1   1.00000     0.00000     0
            
 43 44  0  0  0  0            999 V2000
   14.1360   13.6091  -13.4774 O   0  0  0  0  0  0  0  0  0  0  0  0
   10.5456   11.5612  -15.0672 O   0  0  0  0  0  0  0  0  0  0  0  0
   11.1548   13.8520  -11.5083 O   0  0  0  0  0  0  0  0  0  0  0  0
    9.2687   12.0367  -12.6308 O   0  0  0  0  0  0  0  0  0  0  0  0
    7.1343   23.5192  -16.2206 O   0  0  0  0  0  0  0  0  0  0  0  0
    9.9331   14.9955  -15.6937 O   0  0  0  0  0  0  0  0  0  0  0  0
   11.9294   14.0665  -15.0740 O   0  0  0  0  0  0  0  0  0  0  0  0
    6.4678   23.9708  -15.0982 C   0  0  0  0  0  0  0  0  0  0  0  0
   10.4864   15.9499  -16.5010 C   0  0  0  0  0  0  0  0  0  0  0  0
   13.3161   14.7129  -13.3291 C   0  0  0  0  0  0  0  0  0  0  0  0
    9.8894   17.2972  -16.3883 C   0  0  0  0  0  0  0  0  0  0  0  0
    7.4170   21.3738  -15.1662 C   0  0  0  0  0  0  0  0  0  0  0  0
    8.4748   21.8720  -17.2737 C   0  0  0  0  0  0  0  0  0  0  0  0
    9.3953   18.3944  -16.3221 C   0  0  0  0  0  0  0  0  0  0  0  0
    7.9758   20.1029  -15.1977 C   0  0  0  0  0  0  0  0  0  0  0  0
    9.0398   20.6124  -17.3079 C   0  0  0  0  0  0  0  0  0  0  0  0
   10.6515   13.8385  -15.6054 C   0  0  1  0  0  0  0  0  0  0  0  0
    7.6750   22.2525  -16.2139 C   0  0  0  0  0  0  0  0  0  0  0  0
   11.9063   14.4854  -13.7315 C   0  0  2  0  0  0  0  0  0  0  0  0
    9.8949   12.8021  -14.7903 C   0  0  2  0  0  0  0  0  0  0  0  0
   11.2047   13.4233  -12.8767 C   0  0  2  0  0  0  0  0  0  0  0  0
    9.9135   13.1333  -13.4035 C   0  0  2  0  0  0  0  0  0  0  0  0
    8.7758   19.7345  -16.2673 C   0  0  0  0  0  0  0  0  0  0  0  0
   15.0641   13.8418  -13.1868 H   0  0  0  0  0  0  0  0  0  0  0  0
   10.0948   10.8277  -14.5585 H   0  0  0  0  0  0  0  0  0  0  0  0
   10.6962   13.1549  -10.9572 H   0  0  0  0  0  0  0  0  0  0  0  0
    9.2792   12.2642  -11.6570 H   0  0  0  0  0  0  0  0  0  0  0  0
    6.1365   24.9006  -15.2588 H   0  0  0  0  0  0  0  0  0  0  0  0
    5.6924   23.3692  -14.9063 H   0  0  0  0  0  0  0  0  0  0  0  0
    7.0920   23.9697  -14.3169 H   0  0  0  0  0  0  0  0  0  0  0  0
   10.3885   15.6471  -17.4490 H   0  0  0  0  0  0  0  0  0  0  0  0
   11.4573   16.0223  -16.2728 H   0  0  0  0  0  0  0  0  0  0  0  0
   13.6856   15.4549  -13.8885 H   0  0  0  0  0  0  0  0  0  0  0  0
   13.3271   14.9840  -12.3666 H   0  0  0  0  0  0  0  0  0  0  0  0
    6.8371   21.6537  -14.4011 H   0  0  0  0  0  0  0  0  0  0  0  0
    8.6460   22.5133  -18.0217 H   0  0  0  0  0  0  0  0  0  0  0  0
    7.8021   19.4580  -14.4534 H   0  0  0  0  0  0  0  0  0  0  0  0
    9.6281   20.3384  -18.0687 H   0  0  0  0  0  0  0  0  0  0  0  0
   10.7648   13.4770  -16.5308 H   0  0  0  0  0  0  0  0  0  0  0  0
   11.4024   15.3465  -13.6646 H   0  0  0  0  0  0  0  0  0  0  0  0
    8.9476   12.7577  -15.1078 H   0  0  0  0  0  0  0  0  0  0  0  0
   11.7494   12.5857  -12.9176 H   0  0  0  0  0  0  0  0  0  0  0  0
    9.3520   13.9521  -13.2847 H   0  0  0  0  0  0  0  0  0  0  0  0
  1 10  1  0  0  0  0
  2 20  1  0  0  0  0
  3 21  1  0  0  0  0
  4 22  1  0  0  0  0
  5  8  1  0  0  0  0
  5 18  1  0  0  0  0
  6  9  1  0  0  0  0
  6 17  1  0  0  0  0
  7 17  1  0  0  0  0
  7 19  1  0  0  0  0
  9 11  1  0  0  0  0
 10 19  1  0  0  0  0
 11 14  3  0  0  0  0
 12 15  1  0  0  0  0
 12 18  2  0  0  0  0
 13 16  2  0  0  0  0
 13 18  1  0  0  0  0
 14 23  1  0  0  0  0
 15 23  2  0  0  0  0
 16 23  1  0  0  0  0
 17 20  1  0  0  0  0
 19 21  1  0  0  0  0
 20 22  1  0  0  0  0
 21 22  1  0  0  0  0
  1 24  1  0  0  0  0
  2 25  1  0  0  0  0
  3 26  1  0  0  0  0
  4 27  1  0  0  0  0
  8 28  1  0  0  0  0
  8 29  1  0  0  0  0
  8 30  1  0  0  0  0
  9 31  1  0  0  0  0
  9 32  1  0  0  0  0
 10 33  1  0  0  0  0
 10 34  1  0  0  0  0
 12 35  1  0  0  0  0
 13 36  1  0  0  0  0
 15 37  1  0  0  0  0
 16 38  1  0  0  0  0
 17 39  1  0  0  0  0
 19 40  1  0  0  0  0
 20 41  1  0  0  0  0
 21 42  1  0  0  0  0
 22 43  1  0  0  0  0
M  END
> <pdb_id>
4ATT

> <uniprot_id>
A2IC68

> <usmiles>
O(c1ccc(C#CCO[C@H]2O[C@@H]([C@@H](O)[C@H](O)[C@@H]2O)CO)cc1)C

$$$$
HNW_A_201
          07202405373D 1   1.00000     0.00000     0
            
 40 41  0  0  0  0            999 V2000
    9.5395   23.3935  -18.5132 O   0  0  0  0  0  0  0  0  0  0  0  0
   13.9618   13.6864  -13.4810 O   0  0  0  0  0  0  0  0  0  0  0  0
   10.4073   11.6271  -14.7799 O   0  0  0  0  0  0  0  0  0  0  0  0
    9.2032   12.0112  -12.3507 O   0  0  0  0  0  0  0  0  0  0  0  0
   11.0801   13.9173  -11.3282 O   0  0  0  0  0  0  0  0  0  0  0  0
    9.3960   14.9755  -15.1815 O   0  0  0  0  0  0  0  0  0  0  0  0
   11.5733   14.2016  -14.9768 O   0  0  0  0  0  0  0  0  0  0  0  0
   10.5807   22.4810  -18.5986 C   0  0  0  0  0  0  0  0  0  0  0  0
   13.1071   14.7699  -13.2569 C   0  0  0  0  0  0  0  0  0  0  0  0
   10.3051   21.1079  -17.9796 C   0  0  0  0  0  0  0  0  0  0  0  0
    8.8828   17.2251  -15.3762 C   0  0  0  0  0  0  0  0  0  0  0  0
   10.5735   16.3764  -16.7912 C   0  0  0  0  0  0  0  0  0  0  0  0
   10.1755   20.0020  -17.4991 C   0  0  0  0  0  0  0  0  0  0  0  0
    9.0453   18.5122  -15.9237 C   0  0  0  0  0  0  0  0  0  0  0  0
   10.7367   17.6492  -17.3400 C   0  0  0  0  0  0  0  0  0  0  0  0
   10.2698   13.9273  -15.3961 C   0  0  1  0  0  0  0  0  0  0  0  0
    9.6349   16.2031  -15.7939 C   0  0  0  0  0  0  0  0  0  0  0  0
    9.7052   12.7711  -14.5426 C   0  0  2  0  0  0  0  0  0  0  0  0
    9.7668   13.1096  -13.1036 C   0  0  2  0  0  0  0  0  0  0  0  0
   11.0813   13.4242  -12.6706 C   0  0  1  0  0  0  0  0  0  0  0  0
   11.6997   14.5288  -13.5471 C   0  0  2  0  0  0  0  0  0  0  0  0
    9.9790   18.6777  -16.9173 C   0  0  0  0  0  0  0  0  0  0  0  0
    9.8142   24.2539  -18.9425 H   0  0  0  0  0  0  0  0  0  0  0  0
   14.8996   13.9491  -13.2543 H   0  0  0  0  0  0  0  0  0  0  0  0
   10.0340   10.8852  -14.2228 H   0  0  0  0  0  0  0  0  0  0  0  0
    9.2373   12.2242  -11.3742 H   0  0  0  0  0  0  0  0  0  0  0  0
   12.0169   14.1302  -11.0505 H   0  0  0  0  0  0  0  0  0  0  0  0
   11.3744   22.8745  -18.1347 H   0  0  0  0  0  0  0  0  0  0  0  0
   10.7934   22.3457  -19.5664 H   0  0  0  0  0  0  0  0  0  0  0  0
   13.4146   15.5287  -13.8310 H   0  0  0  0  0  0  0  0  0  0  0  0
   13.1833   15.0284  -12.2939 H   0  0  0  0  0  0  0  0  0  0  0  0
    8.1956   17.0742  -14.6656 H   0  0  0  0  0  0  0  0  0  0  0  0
   11.1246   15.6067  -17.1134 H   0  0  0  0  0  0  0  0  0  0  0  0
    8.4972   19.2829  -15.5987 H   0  0  0  0  0  0  0  0  0  0  0  0
   11.4220   17.7979  -18.0529 H   0  0  0  0  0  0  0  0  0  0  0  0
   10.2676   13.6721  -16.3629 H   0  0  0  0  0  0  0  0  0  0  0  0
    8.7498   12.6205  -14.7969 H   0  0  0  0  0  0  0  0  0  0  0  0
    9.1920   13.9137  -12.9517 H   0  0  0  0  0  0  0  0  0  0  0  0
   11.6512   12.6041  -12.7210 H   0  0  0  0  0  0  0  0  0  0  0  0
   11.1981   15.3771  -13.3773 H   0  0  0  0  0  0  0  0  0  0  0  0
  1  8  1  0  0  0  0
  2  9  1  0  0  0  0
  3 18  1  0  0  0  0
  4 19  1  0  0  0  0
  5 20  1  0  0  0  0
  6 16  1  0  0  0  0
  6 17  1  0  0  0  0
  7 16  1  0  0  0  0
  7 21  1  0  0  0  0
  8 10  1  0  0  0  0
  9 21  1  0  0  0  0
 10 13  3  0  0  0  0
 11 14  1  0  0  0  0
 11 17  2  0  0  0  0
 12 15  2  0  0  0  0
 12 17  1  0  0  0  0
 13 22  1  0  0  0  0
 14 22  2  0  0  0  0
 15 22  1  0  0  0  0
 16 18  1  0  0  0  0
 18 19  1  0  0  0  0
 19 20  1  0  0  0  0
 20 21  1  0  0  0  0
  1 23  1  0  0  0  0
  2 24  1  0  0  0  0
  3 25  1  0  0  0  0
  4 26  1  0  0  0  0
  5 27  1  0  0  0  0
  8 28  1  0  0  0  0
  8 29  1  0  0  0  0
  9 30  1  0  0  0  0
  9 31  1  0  0  0  0
 11 32  1  0  0  0  0
 12 33  1  0  0  0  0
 14 34  1  0  0  0  0
 15 35  1  0  0  0  0
 16 36  1  0  0  0  0
 18 37  1  0  0  0  0
 19 38  1  0  0  0  0
 20 39  1  0  0  0  0
 21 40  1  0  0  0  0
M  END
> <pdb_id>
4AUJ

> <uniprot_id>
A2IC68

> <usmiles>
O(c1ccc(C#CCO)cc1)[C@H]2O[C@@H]([C@@H](O)[C@H](O)[C@@H]2O)CO

$$$$
HPA_A_301
          07202403123D 1   1.00000     0.00000     0
            
 14 15  0  0  0  0            999 V2000
   33.1704   19.6519   63.2276 O   0  0  0  0  0  0  0  0  0  0  0  0
   33.1735   20.3571   65.4806 N   0  0  0  0  0  0  0  0  0  0  0  0
   32.1050   22.4361   66.0096 N   0  0  0  0  0  0  0  0  0  0  0  0
   31.1693   23.4651   63.9573 N   0  0  0  0  0  0  0  0  0  0  0  0
   31.7860   21.9153   62.4795 N   0  0  0  0  0  0  0  0  0  0  0  0
   32.8001   21.3023   66.4286 C   0  0  0  0  0  0  0  0  0  0  0  0
   31.1583   23.1064   62.6455 C   0  0  0  0  0  0  0  0  0  0  0  0
   32.8679   20.4733   64.1258 C   0  0  0  0  0  0  0  0  0  0  0  0
   31.8041   22.5299   64.6733 C   0  0  0  0  0  0  0  0  0  0  0  0
   32.1905   21.5672   63.7287 C   0  0  0  0  0  0  0  0  0  0  0  0
   33.6864   19.5546   65.7855 H   0  0  0  0  0  0  0  0  0  0  0  0
   30.7649   24.3004   64.3298 H   0  0  0  0  0  0  0  0  0  0  0  0
   33.0259   21.1717   67.3940 H   0  0  0  0  0  0  0  0  0  0  0  0
   30.7466   23.6434   61.9092 H   0  0  0  0  0  0  0  0  0  0  0  0
  1  8  2  0  0  0  0
  2  6  1  0  0  0  0
  2  8  1  0  0  0  0
  3  6  2  0  0  0  0
  3  9  1  0  0  0  0
  4  7  1  0  0  0  0
  4  9  1  0  0  0  0
  5  7  2  0  0  0  0
  5 10  1  0  0  0  0
  8 10  1  0  0  0  0
  9 10  2  0  0  0  0
  2 11  1  0  0  0  0
  4 12  1  0  0  0  0
  6 13  1  0  0  0  0
  7 14  1  0  0  0  0
M  END
> <pdb_id>
3ENZ

> <uniprot_id>
Q8I3X4

> <usmiles>
O=C1NC=NC=2NC=NC12

$$$$
HPA_A_301
          07192423183D 1   1.00000     0.00000     0
            
 14 15  0  0  0  0            999 V2000
  -53.1539   23.9757   27.3880 O   0  0  0  0  0  0  0  0  0  0  0  0
  -53.0082   24.2658   25.1768 N   0  0  0  0  0  0  0  0  0  0  0  0
  -52.2725   22.4224   23.8358 N   0  0  0  0  0  0  0  0  0  0  0  0
  -51.5738   20.4294   25.0777 N   0  0  0  0  0  0  0  0  0  0  0  0
  -51.9374   21.2614   27.0745 N   0  0  0  0  0  0  0  0  0  0  0  0
  -52.7592   23.7014   23.9454 C   0  0  0  0  0  0  0  0  0  0  0  0
  -51.5194   20.1716   26.3950 C   0  0  0  0  0  0  0  0  0  0  0  0
  -52.7617   23.5231   26.3048 C   0  0  0  0  0  0  0  0  0  0  0  0
  -52.0287   21.6805   24.9258 C   0  0  0  0  0  0  0  0  0  0  0  0
  -52.2680   22.2150   26.1824 C   0  0  0  0  0  0  0  0  0  0  0  0
  -53.3617   25.1985   25.2479 H   0  0  0  0  0  0  0  0  0  0  0  0
  -51.3203   19.8006   24.3427 H   0  0  0  0  0  0  0  0  0  0  0  0
  -52.9359   24.2325   23.1168 H   0  0  0  0  0  0  0  0  0  0  0  0
  -51.2180   19.3113   26.8062 H   0  0  0  0  0  0  0  0  0  0  0  0
  1  8  2  0  0  0  0
  2  6  1  0  0  0  0
  2  8  1  0  0  0  0
  3  6  2  0  0  0  0
  3  9  1  0  0  0  0
  4  7  1  0  0  0  0
  4  9  1  0  0  0  0
  5  7  2  0  0  0  0
  5 10  1  0  0  0  0
  8 10  1  0  0  0  0
  9 10  2  0  0  0  0
  2 11  1  0  0  0  0
  4 12  1  0  0  0  0
  6 13  1  0  0  0  0
  7 14  1  0  0  0  0
M  END
> <pdb_id>
4DAB

> <uniprot_id>
O34925

> <usmiles>
O=C1NC=NC=2NC=NC12

$$$$
HPA_A_981
          07202412533D 1   1.00000     0.00000     0
            
 14 15  0  0  0  0            999 V2000
   10.1572  -22.7100    9.5571 O   0  0  0  0  0  0  0  0  0  0  0  0
    8.6785  -22.8379   11.3751 N   0  0  0  0  0  0  0  0  0  0  0  0
    6.9683  -24.5272   11.5302 N   0  0  0  0  0  0  0  0  0  0  0  0
    6.8842  -26.1030    9.5158 N   0  0  0  0  0  0  0  0  0  0  0  0
    8.6763  -25.0921    8.4210 N   0  0  0  0  0  0  0  0  0  0  0  0
    7.5823  -23.4668   12.0728 C   0  0  0  0  0  0  0  0  0  0  0  0
    7.7313  -26.2079    8.3530 C   0  0  0  0  0  0  0  0  0  0  0  0
    9.0854  -23.3080   10.2177 C   0  0  0  0  0  0  0  0  0  0  0  0
    7.3771  -25.0022   10.3403 C   0  0  0  0  0  0  0  0  0  0  0  0
    8.4506  -24.3860    9.6609 C   0  0  0  0  0  0  0  0  0  0  0  0
    9.1305  -22.0404   11.7748 H   0  0  0  0  0  0  0  0  0  0  0  0
    6.0962  -26.6831    9.7218 H   0  0  0  0  0  0  0  0  0  0  0  0
    7.2821  -23.1123   12.9583 H   0  0  0  0  0  0  0  0  0  0  0  0
    7.6824  -26.9067    7.6393 H   0  0  0  0  0  0  0  0  0  0  0  0
  1  8  2  0  0  0  0
  2  6  1  0  0  0  0
  2  8  1  0  0  0  0
  3  6  2  0  0  0  0
  3  9  1  0  0  0  0
  4  7  1  0  0  0  0
  4  9  1  0  0  0  0
  5  7  2  0  0  0  0
  5 10  1  0  0  0  0
  8 10  1  0  0  0  0
  9 10  2  0  0  0  0
  2 11  1  0  0  0  0
  4 12  1  0  0  0  0
  6 13  1  0  0  0  0
  7 14  1  0  0  0  0
M  END
> <pdb_id>
3FNQ

> <uniprot_id>
Q9BMI9

> <usmiles>
O=C1NC=NC=2NC=NC12

$$$$
HPA_C_232
          07202404333D 1   1.00000     0.00000     0
            
 14 15  0  0  0  0            999 V2000
   27.5622   43.6061   72.1770 O   0  0  0  0  0  0  0  0  0  0  0  0
   29.6709   44.0042   71.3946 N   0  0  0  0  0  0  0  0  0  0  0  0
   31.0887   42.1268   70.9973 N   0  0  0  0  0  0  0  0  0  0  0  0
   30.0315   39.9385   71.4300 N   0  0  0  0  0  0  0  0  0  0  0  0
   28.0569   40.6954   72.0485 N   0  0  0  0  0  0  0  0  0  0  0  0
   30.8891   43.4835   71.0145 C   0  0  0  0  0  0  0  0  0  0  0  0
   28.7948   39.5795   71.8647 C   0  0  0  0  0  0  0  0  0  0  0  0
   28.6374   43.1448   71.7830 C   0  0  0  0  0  0  0  0  0  0  0  0
   30.0876   41.2841   71.3627 C   0  0  0  0  0  0  0  0  0  0  0  0
   28.8432   41.7719   71.7456 C   0  0  0  0  0  0  0  0  0  0  0  0
   29.5261   44.9937   71.3929 H   0  0  0  0  0  0  0  0  0  0  0  0
   30.7747   39.3105   71.1990 H   0  0  0  0  0  0  0  0  0  0  0  0
   31.6317   44.0986   70.7497 H   0  0  0  0  0  0  0  0  0  0  0  0
   28.4826   38.6426   72.0226 H   0  0  0  0  0  0  0  0  0  0  0  0
  1  8  2  0  0  0  0
  2  6  1  0  0  0  0
  2  8  1  0  0  0  0
  3  6  2  0  0  0  0
  3  9  1  0  0  0  0
  4  7  1  0  0  0  0
  4  9  1  0  0  0  0
  5  7  2  0  0  0  0
  5 10  1  0  0  0  0
  8 10  1  0  0  0  0
  9 10  2  0  0  0  0
  2 11  1  0  0  0  0
  4 12  1  0  0  0  0
  6 13  1  0  0  0  0
  7 14  1  0  0  0  0
M  END
> <pdb_id>
3OZF

> <uniprot_id>
P20035

> <usmiles>
O=C1NC=NC=2NC=NC12

$$$$
HPA_C_302
          07212403093D 1   1.00000     0.00000     0
            
 14 15  0  0  0  0            999 V2000
   13.9770    4.2858  -11.2253 O   0  0  0  0  0  0  0  0  0  0  0  0
   12.5182    3.9582  -12.9706 N   0  0  0  0  0  0  0  0  0  0  0  0
   11.0924    5.7914  -13.5977 N   0  0  0  0  0  0  0  0  0  0  0  0
   11.4511    7.8410  -12.2603 N   0  0  0  0  0  0  0  0  0  0  0  0
   13.0457    7.0403  -10.9577 N   0  0  0  0  0  0  0  0  0  0  0  0
   11.5101    4.4758  -13.7695 C   0  0  0  0  0  0  0  0  0  0  0  0
   12.2932    8.1287  -11.2296 C   0  0  0  0  0  0  0  0  0  0  0  0
   13.1059    4.7470  -11.9888 C   0  0  0  0  0  0  0  0  0  0  0  0
   11.6637    6.5701  -12.6417 C   0  0  0  0  0  0  0  0  0  0  0  0
   12.6693    6.0626  -11.8213 C   0  0  0  0  0  0  0  0  0  0  0  0
   12.8232    3.0149  -13.1011 H   0  0  0  0  0  0  0  0  0  0  0  0
   10.7868    8.4694  -12.6649 H   0  0  0  0  0  0  0  0  0  0  0  0
   11.0832    3.9032  -14.4694 H   0  0  0  0  0  0  0  0  0  0  0  0
   12.3461    9.0050  -10.7508 H   0  0  0  0  0  0  0  0  0  0  0  0
  1  8  2  0  0  0  0
  2  6  1  0  0  0  0
  2  8  1  0  0  0  0
  3  6  2  0  0  0  0
  3  9  1  0  0  0  0
  4  7  1  0  0  0  0
  4  9  1  0  0  0  0
  5  7  2  0  0  0  0
  5 10  1  0  0  0  0
  8 10  1  0  0  0  0
  9 10  2  0  0  0  0
  2 11  1  0  0  0  0
  4 12  1  0  0  0  0
  6 13  1  0  0  0  0
  7 14  1  0  0  0  0
M  END
> <pdb_id>
5MX6

> <uniprot_id>
K2JXG0

> <usmiles>
O=C1NC=NC=2NC=NC12

$$$$
HPA_C_401
          07202406023D 1   1.00000     0.00000     0
            
 14 15  0  0  0  0            999 V2000
    7.2690  -17.0080  -14.7510 O   0  0  0  0  0  0  0  0  0  0  0  0
    9.1450  -18.3100  -14.3380 N   0  0  0  0  0  0  0  0  0  0  0  0
    9.9450  -18.8050  -12.1070 N   0  0  0  0  0  0  0  0  0  0  0  0
    8.5680  -17.7520  -10.3230 N   0  0  0  0  0  0  0  0  0  0  0  0
    7.0490  -16.7370  -11.7060 N   0  0  0  0  0  0  0  0  0  0  0  0
   10.0250  -18.9180  -13.4320 C   0  0  0  0  0  0  0  0  0  0  0  0
    7.4430  -16.9610  -10.3920 C   0  0  0  0  0  0  0  0  0  0  0  0
    8.0240  -17.5220  -13.9470 C   0  0  0  0  0  0  0  0  0  0  0  0
    8.8930  -18.0400  -11.6620 C   0  0  0  0  0  0  0  0  0  0  0  0
    7.9640  -17.4130  -12.5290 C   0  0  0  0  0  0  0  0  0  0  0  0
    9.3137  -18.4366  -15.3155 H   0  0  0  0  0  0  0  0  0  0  0  0
    9.0493  -18.0557   -9.5007 H   0  0  0  0  0  0  0  0  0  0  0  0
   10.7653  -19.4761  -13.8068 H   0  0  0  0  0  0  0  0  0  0  0  0
    6.9671  -16.5924   -9.5935 H   0  0  0  0  0  0  0  0  0  0  0  0
  1  8  2  0  0  0  0
  2  6  1  0  0  0  0
  2  8  1  0  0  0  0
  3  6  2  0  0  0  0
  3  9  1  0  0  0  0
  4  7  1  0  0  0  0
  4  9  1  0  0  0  0
  5  7  2  0  0  0  0
  5 10  1  0  0  0  0
  8 10  1  0  0  0  0
  9 10  2  0  0  0  0
  2 11  1  0  0  0  0
  4 12  1  0  0  0  0
  6 13  1  0  0  0  0
  7 14  1  0  0  0  0
M  END
> <pdb_id>
5IFK

> <uniprot_id>
Q6CSZ6

> <usmiles>
O=C1NC=NC=2NC=NC12

$$$$
HPA_C_975
          07202412533D 1   1.00000     0.00000     0
            
 16 17  0  0  0  0            999 V2000
   10.2410  -22.6410    9.4680 O   0  0  0  0  0  0  0  0  0  0  0  0
    8.7580  -22.8400   11.2620 N   0  0  0  0  0  0  0  0  0  0  0  0
    7.0850  -24.5550   11.3850 N   0  0  0  0  0  0  0  0  0  0  0  0
    7.0610  -26.1340    9.3750 N   0  0  0  0  0  0  0  0  0  0  0  0
    8.8380  -25.0870    8.2990 N   0  0  0  0  0  0  0  0  0  0  0  0
    7.6760  -23.4880   11.9370 C   0  0  0  0  0  0  0  0  0  0  0  0
    7.9970  -26.2870    8.2970 C   0  0  0  0  0  0  0  0  0  0  0  0
    9.1840  -23.2820   10.0990 C   0  0  0  0  0  0  0  0  0  0  0  0
    7.5150  -25.0120   10.1970 C   0  0  0  0  0  0  0  0  0  0  0  0
    8.5800  -24.3730    9.5270 C   0  0  0  0  0  0  0  0  0  0  0  0
    9.1949  -22.0428   11.6787 H   0  0  0  0  0  0  0  0  0  0  0  0
    6.2471  -26.6926    9.5349 H   0  0  0  0  0  0  0  0  0  0  0  0
    9.4757  -24.8122    7.5794 H   0  0  0  0  0  0  0  0  0  0  0  0
    7.3609  -23.1439   12.8215 H   0  0  0  0  0  0  0  0  0  0  0  0
    7.5109  -26.3662    7.4267 H   0  0  0  0  0  0  0  0  0  0  0  0
    8.5584  -27.1020    8.4406 H   0  0  0  0  0  0  0  0  0  0  0  0
  1  8  2  0  0  0  0
  2  6  1  0  0  0  0
  2  8  1  0  0  0  0
  3  6  2  0  0  0  0
  3  9  1  0  0  0  0
  4  7  1  0  0  0  0
  4  9  1  0  0  0  0
  5  7  1  0  0  0  0
  5 10  1  0  0  0  0
  8 10  1  0  0  0  0
  9 10  2  0  0  0  0
  2 11  1  0  0  0  0
  4 12  1  0  0  0  0
  5 13  1  0  0  0  0
  6 14  1  0  0  0  0
  7 15  1  0  0  0  0
  7 16  1  0  0  0  0
M  END
> <pdb_id>
3FNQ

> <uniprot_id>
Q9BMI9

> <usmiles>
O=C1NC=NC=2NCNC12

$$$$
HPA_L_1
          07202404193D 1   1.00000     0.00000     0
            
 14 15  0  0  0  0            999 V2000
   91.3979   11.4045   17.5298 O   0  0  0  0  0  0  0  0  0  0  0  0
   90.3764   10.6849   19.4650 N   0  0  0  0  0  0  0  0  0  0  0  0
   88.7164    8.9844   19.3349 N   0  0  0  0  0  0  0  0  0  0  0  0
   88.3599    8.2013   17.0306 N   0  0  0  0  0  0  0  0  0  0  0  0
   89.7849    9.5098   16.0639 N   0  0  0  0  0  0  0  0  0  0  0  0
   89.4700    9.8532   20.0557 C   0  0  0  0  0  0  0  0  0  0  0  0
   88.9451    8.5380   15.9218 C   0  0  0  0  0  0  0  0  0  0  0  0
   90.5625   10.6728   18.1197 C   0  0  0  0  0  0  0  0  0  0  0  0
   88.9174    8.9512   18.0077 C   0  0  0  0  0  0  0  0  0  0  0  0
   89.8119    9.7779   17.3960 C   0  0  0  0  0  0  0  0  0  0  0  0
   90.9114   11.3124   20.0308 H   0  0  0  0  0  0  0  0  0  0  0  0
   87.6368    7.5193   17.1407 H   0  0  0  0  0  0  0  0  0  0  0  0
   89.3576    9.8848   21.0488 H   0  0  0  0  0  0  0  0  0  0  0  0
   88.7643    8.0904   15.0460 H   0  0  0  0  0  0  0  0  0  0  0  0
  1  8  2  0  0  0  0
  2  6  1  0  0  0  0
  2  8  1  0  0  0  0
  3  6  2  0  0  0  0
  3  9  1  0  0  0  0
  4  7  1  0  0  0  0
  4  9  1  0  0  0  0
  5  7  2  0  0  0  0
  5 10  1  0  0  0  0
  8 10  1  0  0  0  0
  9 10  2  0  0  0  0
  2 11  1  0  0  0  0
  4 12  1  0  0  0  0
  6 13  1  0  0  0  0
  7 14  1  0  0  0  0
M  END
> <pdb_id>
3NRZ

> <uniprot_id>
P80457

> <usmiles>
O=C1NC=NC=2NC=NC12

$$$$
HPF_A_1001
          07192421023D 1   1.00000     0.00000     0
            
 30 30  0  0  0  0            999 V2000
   48.2440   29.3420    9.9520 P   0  0  0  0  0  0  0  0  0  0  0  0
   46.8860   30.2140    9.8770 O   0  0  0  0  0  0  0  0  0  0  0  0
   49.4720   30.1970   10.6130 O   0  0  0  0  0  0  0  0  0  0  0  0
   48.5940   28.7010    8.6560 O   0  0  0  0  0  0  0  0  0  0  0  0
   47.1100   27.1640   14.8710 O   0  0  0  0  0  0  0  0  0  0  0  0
   49.5380   29.1630   13.0860 O   0  0  0  0  0  0  0  0  0  0  0  0
   52.0340   27.8570   15.0600 O   0  0  0  0  0  0  0  0  0  0  0  0
   47.9160   28.0600   10.8770 O   0  0  0  0  0  0  0  0  0  0  0  0
   49.3050   27.7450   15.5810 N   0  0  0  0  0  0  0  0  0  0  0  0
   47.4480   28.3470   12.2370 C   0  0  0  0  0  0  0  0  0  0  0  0
   51.6320   24.1490   14.7880 C   0  0  0  0  0  0  0  0  0  0  0  0
   50.2200   24.1300   15.0820 C   0  0  0  0  0  0  0  0  0  0  0  0
   52.2250   25.4770   14.7920 C   0  0  0  0  0  0  0  0  0  0  0  0
   49.4300   25.2790   15.3400 C   0  0  0  0  0  0  0  0  0  0  0  0
   48.1960   28.0580   14.6470 C   0  0  0  0  0  0  0  0  0  0  0  0
   48.5990   28.0510   13.1640 C   0  0  2  0  0  0  0  0  0  0  0  0
   51.4380   26.6300   15.0600 C   0  0  0  0  0  0  0  0  0  0  0  0
   50.0820   26.5240   15.3170 C   0  0  0  0  0  0  0  0  0  0  0  0
   46.1581   29.6628    9.4692 H   0  0  0  0  0  0  0  0  0  0  0  0
   50.2946   29.6292   10.6441 H   0  0  0  0  0  0  0  0  0  0  0  0
   50.3123   28.9887   13.6943 H   0  0  0  0  0  0  0  0  0  0  0  0
   51.4919   28.6762   15.2470 H   0  0  0  0  0  0  0  0  0  0  0  0
   49.5156   28.3389   16.3574 H   0  0  0  0  0  0  0  0  0  0  0  0
   46.6662   27.7656   12.4621 H   0  0  0  0  0  0  0  0  0  0  0  0
   47.1820   29.3079   12.3141 H   0  0  0  0  0  0  0  0  0  0  0  0
   52.1581   23.3201   14.5977 H   0  0  0  0  0  0  0  0  0  0  0  0
   49.7642   23.2402   15.1056 H   0  0  0  0  0  0  0  0  0  0  0  0
   53.2016   25.5806   14.6033 H   0  0  0  0  0  0  0  0  0  0  0  0
   48.4509   25.2066   15.5302 H   0  0  0  0  0  0  0  0  0  0  0  0
   49.0436   27.1896   12.9183 H   0  0  0  0  0  0  0  0  0  0  0  0
  1  2  1  0  0  0  0
  1  3  1  0  0  0  0
  1  4  2  0  0  0  0
  1  8  1  0  0  0  0
  5 15  2  0  0  0  0
  6 16  1  0  0  0  0
  7 17  1  0  0  0  0
  8 10  1  0  0  0  0
  9 15  1  0  0  0  0
  9 18  1  0  0  0  0
 10 16  1  0  0  0  0
 11 12  2  0  0  0  0
 11 13  1  0  0  0  0
 12 14  1  0  0  0  0
 13 17  2  0  0  0  0
 14 18  2  0  0  0  0
 15 16  1  0  0  0  0
 17 18  1  0  0  0  0
  2 19  1  0  0  0  0
  3 20  1  0  0  0  0
  6 21  1  0  0  0  0
  7 22  1  0  0  0  0
  9 23  1  0  0  0  0
 10 24  1  0  0  0  0
 10 25  1  0  0  0  0
 11 26  1  0  0  0  0
 12 27  1  0  0  0  0
 13 28  1  0  0  0  0
 14 29  1  0  0  0  0
 16 30  1  0  0  0  0
M  END
> <pdb_id>
1TJP

> <uniprot_id>
P00929

> <usmiles>
P(=O)(OC[C@@H](O)C(=O)Nc1c(O)cccc1)(O)O

$$$$
HPJ_A_203
          07192423593D 1   1.00000     0.00000     0
            
 49 52  0  0  0  0            999 V2000
   11.7860  -11.8910  -26.3050 O   0  5  0  0  0  0  0  0  0  0  0  0
   14.2160  -12.4940  -26.9410 O   0  0  0  0  0  0  0  0  0  0  0  0
    3.5280  -11.8320  -23.9930 O   0  0  0  0  0  0  0  0  0  0  0  0
    8.2550  -10.7870  -27.0010 N   0  0  0  0  0  0  0  0  0  0  0  0
   12.0630  -12.3360  -27.6070 N   0  3  0  0  0  0  0  0  0  0  0  0
    5.9400  -11.5870  -26.9870 N   0  0  0  0  0  0  0  0  0  0  0  0
    2.8650  -13.0760  -23.7180 C   0  0  0  0  0  0  0  0  0  0  0  0
    4.9530  -11.9970  -24.0440 C   0  0  0  0  0  0  0  0  0  0  0  0
    9.4790  -11.0440  -27.4650 C   0  0  0  0  0  0  0  0  0  0  0  0
    5.2810  -10.5450  -26.1660 C   0  0  0  0  0  0  0  0  0  0  0  0
    5.3370  -12.6620  -27.4930 C   0  0  0  0  0  0  0  0  0  0  0  0
    5.6130  -10.7480  -24.6640 C   0  0  0  0  0  0  0  0  0  0  0  0
   13.9870  -14.4920  -34.0400 C   0  0  0  0  0  0  0  0  0  0  0  0
   12.7100  -14.7920  -33.5450 C   0  0  0  0  0  0  0  0  0  0  0  0
   14.8670  -13.7200  -33.2830 C   0  0  0  0  0  0  0  0  0  0  0  0
    6.2500  -13.3940  -28.1340 C   0  0  0  0  0  0  0  0  0  0  0  0
   12.3010  -14.3370  -32.2790 C   0  0  0  0  0  0  0  0  0  0  0  0
   14.4580  -13.2700  -32.0150 C   0  0  0  0  0  0  0  0  0  0  0  0
   13.7770  -13.0590  -29.1660 C   0  0  0  0  0  0  0  0  0  0  0  0
   11.4590  -12.8890  -29.8730 C   0  0  0  0  0  0  0  0  0  0  0  0
    8.7220  -13.0980  -28.4770 C   0  0  0  0  0  0  0  0  0  0  0  0
   13.4030  -12.6430  -27.8780 C   0  0  0  0  0  0  0  0  0  0  0  0
    7.2330  -11.6170  -27.2870 C   0  0  0  0  0  0  0  0  0  0  0  0
   11.0720  -12.4630  -28.6030 C   0  0  0  0  0  0  0  0  0  0  0  0
    9.7490  -12.1760  -28.2440 C   0  0  0  0  0  0  0  0  0  0  0  0
    7.4300  -12.7650  -28.0510 C   0  0  0  0  0  0  0  0  0  0  0  0
   13.1880  -13.5830  -31.4890 C   0  0  0  0  0  0  0  0  0  0  0  0
   12.8170  -13.1490  -30.1900 C   0  0  0  0  0  0  0  0  0  0  0  0
   15.1845  -12.6992  -27.0820 H   0  0  0  0  0  0  0  0  0  0  0  0
    1.8765  -12.9276  -23.6891 H   0  0  0  0  0  0  0  0  0  0  0  0
    3.0821  -13.7356  -24.4375 H   0  0  0  0  0  0  0  0  0  0  0  0
    3.1747  -13.4309  -22.8359 H   0  0  0  0  0  0  0  0  0  0  0  0
    5.1729  -12.7977  -24.6013 H   0  0  0  0  0  0  0  0  0  0  0  0
    5.3034  -12.1297  -23.1169 H   0  0  0  0  0  0  0  0  0  0  0  0
   10.2235  -10.4116  -27.2509 H   0  0  0  0  0  0  0  0  0  0  0  0
    4.2910  -10.6014  -26.2950 H   0  0  0  0  0  0  0  0  0  0  0  0
    5.6041   -9.6441  -26.4559 H   0  0  0  0  0  0  0  0  0  0  0  0
    4.3654  -12.8827  -27.4070 H   0  0  0  0  0  0  0  0  0  0  0  0
    6.6047  -10.8355  -24.5693 H   0  0  0  0  0  0  0  0  0  0  0  0
    5.2998   -9.9429  -24.1602 H   0  0  0  0  0  0  0  0  0  0  0  0
   14.2670  -14.8324  -34.9376 H   0  0  0  0  0  0  0  0  0  0  0  0
   12.0815  -15.3370  -34.0999 H   0  0  0  0  0  0  0  0  0  0  0  0
   15.7740  -13.4900  -33.6358 H   0  0  0  0  0  0  0  0  0  0  0  0
    6.0821  -14.2640  -28.5975 H   0  0  0  0  0  0  0  0  0  0  0  0
   11.3837  -14.5484  -31.9416 H   0  0  0  0  0  0  0  0  0  0  0  0
   15.0854  -12.7125  -31.4713 H   0  0  0  0  0  0  0  0  0  0  0  0
   14.7306  -13.2924  -29.3561 H   0  0  0  0  0  0  0  0  0  0  0  0
   10.7614  -13.0144  -30.5784 H   0  0  0  0  0  0  0  0  0  0  0  0
    8.9052  -13.9684  -28.9339 H   0  0  0  0  0  0  0  0  0  0  0  0
  1  5  1  0  0  0  0
  2 22  1  0  0  0  0
  3  7  1  0  0  0  0
  3  8  1  0  0  0  0
  4  9  2  0  0  0  0
  4 23  1  0  0  0  0
  5 22  2  0  0  0  0
  5 24  1  0  0  0  0
  6 10  1  0  0  0  0
  6 11  1  0  0  0  0
  6 23  1  0  0  0  0
  8 12  1  0  0  0  0
  9 25  1  0  0  0  0
 10 12  1  0  0  0  0
 11 16  2  0  0  0  0
 13 14  2  0  0  0  0
 13 15  1  0  0  0  0
 14 17  1  0  0  0  0
 15 18  2  0  0  0  0
 16 26  1  0  0  0  0
 17 27  2  0  0  0  0
 18 27  1  0  0  0  0
 19 22  1  0  0  0  0
 19 28  2  0  0  0  0
 20 24  2  0  0  0  0
 20 28  1  0  0  0  0
 21 25  2  0  0  0  0
 21 26  1  0  0  0  0
 23 26  2  0  0  0  0
 24 25  1  0  0  0  0
 27 28  1  0  0  0  0
  2 29  1  0  0  0  0
  7 30  1  0  0  0  0
  7 31  1  0  0  0  0
  7 32  1  0  0  0  0
  8 33  1  0  0  0  0
  8 34  1  0  0  0  0
  9 35  1  0  0  0  0
 10 36  1  0  0  0  0
 10 37  1  0  0  0  0
 11 38  1  0  0  0  0
 12 39  1  0  0  0  0
 12 40  1  0  0  0  0
 13 41  1  0  0  0  0
 14 42  1  0  0  0  0
 15 43  1  0  0  0  0
 16 44  1  0  0  0  0
 17 45  1  0  0  0  0
 18 46  1  0  0  0  0
 19 47  1  0  0  0  0
 20 48  1  0  0  0  0
 21 49  1  0  0  0  0
M  CHG  2   1  -1   5   1
M  END
> <pdb_id>
3VW9

> <uniprot_id>
Q04760

> <usmiles>
[O-][n+]1c(O)cc(c2ccccc2)cc1c3cnc4N(C=Cc4c3)CCCOC

$$$$
HQ5_A_901
          07212403303D 1   1.00000     0.00000     0
            
 54 55  0  0  0  0            999 V2000
   -4.0432   -6.5035  -27.3416 S   0  0  0  0  0  0  0  0  0  0  0  0
   -3.4840   -7.8058  -27.2914 O   0  0  0  0  0  0  0  0  0  0  0  0
   -4.6018   -5.9030  -26.1813 O   0  0  0  0  0  0  0  0  0  0  0  0
  -11.0300   -7.3125  -28.9586 O   0  0  0  0  0  0  0  0  0  0  0  0
   -4.2249   -3.6160  -27.8660 O   0  0  0  0  0  0  0  0  0  0  0  0
   -9.0973   -4.4566  -29.1798 O   0  0  0  0  0  0  0  0  0  0  0  0
   -7.7472   -4.6310  -31.4807 O   0  0  0  0  0  0  0  0  0  0  0  0
   -5.2678   -6.5371  -28.3730 O   0  0  0  0  0  0  0  0  0  0  0  0
   -7.3264   -7.4005  -30.1262 O   0  0  0  0  0  0  0  0  0  0  0  0
  -10.1564   -9.5315  -25.0732 N   0  0  0  0  0  0  0  0  0  0  0  0
   -0.8972   -4.4370  -28.6167 N   0  0  0  0  0  0  0  0  0  0  0  0
   -2.9443   -5.4974  -27.9147 N   0  0  0  0  0  0  0  0  0  0  0  0
  -10.6211   -8.4176  -27.0200 N   0  0  0  0  0  0  0  0  0  0  0  0
   -8.8574   -7.5452  -28.3502 N   0  0  0  0  0  0  0  0  0  0  0  0
   -1.5232   -1.4493  -32.0535 C   0  0  0  0  0  0  0  0  0  0  0  0
   -1.2923   -0.5437  -29.7336 C   0  0  0  0  0  0  0  0  0  0  0  0
   -5.0304   -6.6319  -29.8188 C   0  0  0  0  0  0  0  0  0  0  0  0
   -7.9358   -8.0243  -27.4560 C   0  0  0  0  0  0  0  0  0  0  0  0
   -8.3156   -8.6862  -26.3511 C   0  0  0  0  0  0  0  0  0  0  0  0
   -2.2171   -2.8542  -30.1090 C   0  0  0  0  0  0  0  0  0  0  0  0
  -10.2239   -7.7499  -28.1354 C   0  0  0  0  0  0  0  0  0  0  0  0
   -3.1363   -4.1154  -28.1343 C   0  0  0  0  0  0  0  0  0  0  0  0
   -9.7138   -8.8761  -26.1457 C   0  0  0  0  0  0  0  0  0  0  0  0
   -8.4391   -6.7627  -29.5251 C   0  0  1  0  0  0  0  0  0  0  0  0
   -7.9882   -5.3478  -29.1747 C   0  0  1  0  0  0  0  0  0  0  0  0
   -7.0252   -5.0590  -30.3274 C   0  0  1  0  0  0  0  0  0  0  0  0
   -6.3504   -6.4144  -30.5382 C   0  0  2  0  0  0  0  0  0  0  0  0
   -1.9313   -3.3914  -28.7042 C   0  0  1  0  0  0  0  0  0  0  0  0
   -1.2264   -1.7985  -30.5959 C   0  0  0  0  0  0  0  0  0  0  0  0
   -8.7854   -3.5350  -28.9486 H   0  0  0  0  0  0  0  0  0  0  0  0
   -7.1063   -4.4459  -32.2256 H   0  0  0  0  0  0  0  0  0  0  0  0
   -9.5069   -9.8869  -24.4011 H   0  0  0  0  0  0  0  0  0  0  0  0
  -11.1381   -9.6681  -24.9406 H   0  0  0  0  0  0  0  0  0  0  0  0
   -0.7872   -4.7181  -27.6634 H   0  0  0  0  0  0  0  0  0  0  0  0
   -1.1729   -5.2253  -29.1669 H   0  0  0  0  0  0  0  0  0  0  0  0
   -2.0461   -5.8769  -28.1365 H   0  0  0  0  0  0  0  0  0  0  0  0
   -1.4777   -2.2784  -32.6108 H   0  0  0  0  0  0  0  0  0  0  0  0
   -2.4383   -1.0519  -32.1214 H   0  0  0  0  0  0  0  0  0  0  0  0
   -0.8479   -0.7892  -32.3823 H   0  0  0  0  0  0  0  0  0  0  0  0
   -1.0968   -0.7823  -28.7824 H   0  0  0  0  0  0  0  0  0  0  0  0
   -0.6164    0.1187  -30.0568 H   0  0  0  0  0  0  0  0  0  0  0  0
   -2.2068   -0.1441  -29.7959 H   0  0  0  0  0  0  0  0  0  0  0  0
   -4.6690   -7.5370  -30.0429 H   0  0  0  0  0  0  0  0  0  0  0  0
   -4.3737   -5.9319  -30.0996 H   0  0  0  0  0  0  0  0  0  0  0  0
   -6.9619   -7.8782  -27.6297 H   0  0  0  0  0  0  0  0  0  0  0  0
   -7.6432   -9.0328  -25.6970 H   0  0  0  0  0  0  0  0  0  0  0  0
   -3.1311   -2.4484  -30.1085 H   0  0  0  0  0  0  0  0  0  0  0  0
   -2.1940   -3.6228  -30.7482 H   0  0  0  0  0  0  0  0  0  0  0  0
   -9.1924   -6.7191  -30.1814 H   0  0  0  0  0  0  0  0  0  0  0  0
   -7.5137   -5.3280  -28.2947 H   0  0  0  0  0  0  0  0  0  0  0  0
   -6.3523   -4.3698  -30.0586 H   0  0  0  0  0  0  0  0  0  0  0  0
   -6.1901   -6.5300  -31.5185 H   0  0  0  0  0  0  0  0  0  0  0  0
   -1.6860   -2.6314  -28.1023 H   0  0  0  0  0  0  0  0  0  0  0  0
   -0.3025   -2.1770  -30.5396 H   0  0  0  0  0  0  0  0  0  0  0  0
  1  2  2  0  0  0  0
  1  3  2  0  0  0  0
  1  8  1  0  0  0  0
  1 12  1  0  0  0  0
  4 21  2  0  0  0  0
  5 22  2  0  0  0  0
  6 25  1  0  0  0  0
  7 26  1  0  0  0  0
  8 17  1  0  0  0  0
  9 24  1  0  0  0  0
  9 27  1  0  0  0  0
 10 23  1  0  0  0  0
 11 28  1  0  0  0  0
 12 22  1  0  0  0  0
 13 21  1  0  0  0  0
 13 23  2  0  0  0  0
 14 18  1  0  0  0  0
 14 21  1  0  0  0  0
 14 24  1  0  0  0  0
 15 29  1  0  0  0  0
 16 29  1  0  0  0  0
 17 27  1  0  0  0  0
 18 19  2  0  0  0  0
 19 23  1  0  0  0  0
 20 28  1  0  0  0  0
 20 29  1  0  0  0  0
 22 28  1  0  0  0  0
 24 25  1  0  0  0  0
 25 26  1  0  0  0  0
 26 27  1  0  0  0  0
  6 30  1  0  0  0  0
  7 31  1  0  0  0  0
 10 32  1  0  0  0  0
 10 33  1  0  0  0  0
 11 34  1  0  0  0  0
 11 35  1  0  0  0  0
 12 36  1  0  0  0  0
 15 37  1  0  0  0  0
 15 38  1  0  0  0  0
 15 39  1  0  0  0  0
 16 40  1  0  0  0  0
 16 41  1  0  0  0  0
 16 42  1  0  0  0  0
 17 43  1  0  0  0  0
 17 44  1  0  0  0  0
 18 45  1  0  0  0  0
 19 46  1  0  0  0  0
 20 47  1  0  0  0  0
 20 48  1  0  0  0  0
 24 49  1  0  0  0  0
 25 50  1  0  0  0  0
 26 51  1  0  0  0  0
 27 52  1  0  0  0  0
 28 53  1  0  0  0  0
 29 54  1  0  0  0  0
M  END
> <pdb_id>
6Q8A

> <uniprot_id>
B4RNT1

> <usmiles>
S(=O)(=O)(OC[C@H]1O[C@@H](N2C(=O)N=C(N)C=C2)[C@H](O)[C@@H]1O)NC(=O)[C@@H](N)CC(C)C

$$$$
HQ6_B_1716
          07202405173D 1   1.00000     0.00000     0
            
 34 34  0  0  0  0            999 V2000
   25.7115    3.1754  288.0441 O   0  0  0  0  0  0  0  0  0  0  0  0
   27.3885    1.8322  293.2939 O   0  0  0  0  0  0  0  0  0  0  0  0
   29.0705    0.7328  289.1789 O   0  0  0  0  0  0  0  0  0  0  0  0
   27.9485    5.0376  290.0484 O   0  0  0  0  0  0  0  0  0  0  0  0
   30.2291    4.1025  291.0475 O   0  0  0  0  0  0  0  0  0  0  0  0
   26.6298    1.5388  289.8408 N   0  0  0  0  0  0  0  0  0  0  0  0
   29.6199    1.6041  292.8387 N   0  0  0  0  0  0  0  0  0  0  0  0
   28.7241    1.3675  295.2720 C   0  0  0  0  0  0  0  0  0  0  0  0
   25.5117    3.6133  289.3924 C   0  0  0  0  0  0  0  0  0  0  0  0
   27.3024    0.5587  290.6806 C   0  0  0  0  0  0  0  0  0  0  0  0
   28.4999    1.6290  293.7624 C   0  0  0  0  0  0  0  0  0  0  0  0
   28.8367    0.6126  290.5841 C   0  0  2  0  0  0  0  0  0  0  0  0
   26.6219    2.9504  290.2394 C   0  0  2  0  0  0  0  0  0  0  0  0
   28.0305    3.6167  290.0018 C   0  0  2  0  0  0  0  0  0  0  0  0
   29.0753    3.2387  291.1076 C   0  0  1  0  0  0  0  0  0  0  0  0
   29.5399    1.7620  291.3734 C   0  0  1  0  0  0  0  0  0  0  0  0
   25.0126    3.5808  287.4549 H   0  0  0  0  0  0  0  0  0  0  0  0
   30.0548    0.7762  289.0073 H   0  0  0  0  0  0  0  0  0  0  0  0
   28.8557    5.4291  289.8945 H   0  0  0  0  0  0  0  0  0  0  0  0
   30.8788    3.8412  291.7614 H   0  0  0  0  0  0  0  0  0  0  0  0
   25.6745    1.2522  289.7681 H   0  0  0  0  0  0  0  0  0  0  0  0
   30.5293    1.4673  293.2315 H   0  0  0  0  0  0  0  0  0  0  0  0
   29.6989    1.2264  295.4448 H   0  0  0  0  0  0  0  0  0  0  0  0
   28.4029    2.1550  295.7981 H   0  0  0  0  0  0  0  0  0  0  0  0
   28.2152    0.5522  295.5483 H   0  0  0  0  0  0  0  0  0  0  0  0
   24.6109    3.3266  289.7186 H   0  0  0  0  0  0  0  0  0  0  0  0
   25.5843    4.6092  289.4464 H   0  0  0  0  0  0  0  0  0  0  0  0
   27.0003   -0.3539  290.4049 H   0  0  0  0  0  0  0  0  0  0  0  0
   27.0396    0.7238  291.6312 H   0  0  0  0  0  0  0  0  0  0  0  0
   29.2073   -0.2623  290.8959 H   0  0  0  0  0  0  0  0  0  0  0  0
   26.3835    3.0188  291.2081 H   0  0  0  0  0  0  0  0  0  0  0  0
   28.3809    3.3363  289.1081 H   0  0  0  0  0  0  0  0  0  0  0  0
   28.6248    3.5031  291.9604 H   0  0  0  0  0  0  0  0  0  0  0  0
   30.4905    1.7364  291.0640 H   0  0  0  0  0  0  0  0  0  0  0  0
  1  9  1  0  0  0  0
  2 11  2  0  0  0  0
  3 12  1  0  0  0  0
  4 14  1  0  0  0  0
  5 15  1  0  0  0  0
  6 10  1  0  0  0  0
  6 13  1  0  0  0  0
  7 11  1  0  0  0  0
  7 16  1  0  0  0  0
  8 11  1  0  0  0  0
  9 13  1  0  0  0  0
 10 12  1  0  0  0  0
 12 16  1  0  0  0  0
 13 14  1  0  0  0  0
 14 15  1  0  0  0  0
 15 16  1  0  0  0  0
  1 17  1  0  0  0  0
  3 18  1  0  0  0  0
  4 19  1  0  0  0  0
  5 20  1  0  0  0  0
  6 21  1  0  0  0  0
  7 22  1  0  0  0  0
  8 23  1  0  0  0  0
  8 24  1  0  0  0  0
  8 25  1  0  0  0  0
  9 26  1  0  0  0  0
  9 27  1  0  0  0  0
 10 28  1  0  0  0  0
 10 29  1  0  0  0  0
 12 30  1  0  0  0  0
 13 31  1  0  0  0  0
 14 32  1  0  0  0  0
 15 33  1  0  0  0  0
 16 34  1  0  0  0  0
M  END
> <pdb_id>
2W66

> <uniprot_id>
Q89ZI2

> <usmiles>
O=C(N[C@@H]1[C@@H](O)[C@H](O)[C@H](NC[C@H]1O)CO)C

$$$$
HQT_A_303
          07192416293D 1   1.00000     0.00000     0
            
 19 20  0  0  0  0            999 V2000
   -5.9734    0.3527   17.1803 S   0  0  0  0  0  0  0  0  0  0  0  0
   -4.5550   -0.2994   14.7335 O   0  5  0  0  0  0  0  0  0  0  0  0
   -4.8130    1.0012   14.8469 N   0  3  0  0  0  0  0  0  0  0  0  0
   -4.4108    1.9003   13.8164 C   0  0  0  0  0  0  0  0  0  0  0  0
   -6.2383    5.5322   16.3123 C   0  0  0  0  0  0  0  0  0  0  0  0
   -6.6425    4.6300   17.3448 C   0  0  0  0  0  0  0  0  0  0  0  0
   -4.6588    3.2059   13.9358 C   0  0  0  0  0  0  0  0  0  0  0  0
   -5.5756    5.0428   15.1703 C   0  0  0  0  0  0  0  0  0  0  0  0
   -6.4044    3.3074   17.2164 C   0  0  0  0  0  0  0  0  0  0  0  0
   -5.4606    1.4627   15.9219 C   0  0  0  0  0  0  0  0  0  0  0  0
   -5.3124    3.6823   15.0478 C   0  0  0  0  0  0  0  0  0  0  0  0
   -5.7127    2.8062   16.0463 C   0  0  0  0  0  0  0  0  0  0  0  0
   -6.4577    0.6977   17.9844 H   0  0  0  0  0  0  0  0  0  0  0  0
   -3.9428    1.5525   13.0039 H   0  0  0  0  0  0  0  0  0  0  0  0
   -6.4261    6.5104   16.4010 H   0  0  0  0  0  0  0  0  0  0  0  0
   -7.1015    4.9785   18.1621 H   0  0  0  0  0  0  0  0  0  0  0  0
   -4.3694    3.8377   13.2167 H   0  0  0  0  0  0  0  0  0  0  0  0
   -5.2942    5.6734   14.4470 H   0  0  0  0  0  0  0  0  0  0  0  0
   -6.7056    2.6737   17.9289 H   0  0  0  0  0  0  0  0  0  0  0  0
  1 10  1  0  0  0  0
  2  3  1  0  0  0  0
  3  4  1  0  0  0  0
  3 10  2  0  0  0  0
  4  7  2  0  0  0  0
  5  6  2  0  0  0  0
  5  8  1  0  0  0  0
  6  9  1  0  0  0  0
  7 11  1  0  0  0  0
  8 11  2  0  0  0  0
  9 12  2  0  0  0  0
 10 12  1  0  0  0  0
 11 12  1  0  0  0  0
  1 13  1  0  0  0  0
  4 14  1  0  0  0  0
  5 15  1  0  0  0  0
  6 16  1  0  0  0  0
  7 17  1  0  0  0  0
  8 18  1  0  0  0  0
  9 19  1  0  0  0  0
M  CHG  2   2  -1   3   1
M  END
> <pdb_id>
4Q8Y

> <uniprot_id>
P00918

> <usmiles>
Sc1[n+]([O-])ccc2c1cccc2

$$$$
HRD_A_501
          07202407253D 1   1.00000     0.00000     0
            
 30 32  0  0  0  0            999 V2000
  103.6359   16.7329   23.8966 O   0  0  0  0  0  0  0  0  0  0  0  0
   99.2248   15.7076   24.5764 N   0  0  0  0  0  0  0  0  0  0  0  0
  103.5222   17.4019   16.3300 N   0  0  0  0  0  0  0  0  0  0  0  0
  101.4194   16.2240   24.1711 N   0  0  0  0  0  0  0  0  0  0  0  0
  101.7816   16.8758   17.8816 N   0  0  0  0  0  0  0  0  0  0  0  0
  103.8432   17.2523   18.6832 N   0  0  0  0  0  0  0  0  0  0  0  0
   99.9941   16.0624   22.3368 N   0  0  0  0  0  0  0  0  0  0  0  0
   97.8714   15.4826   24.0864 C   0  0  0  0  0  0  0  0  0  0  0  0
  102.6340   17.3264   15.1820 C   0  0  0  0  0  0  0  0  0  0  0  0
  100.6841   16.4354   20.0767 C   0  0  0  0  0  0  0  0  0  0  0  0
  103.3359   16.9036   21.0873 C   0  0  0  0  0  0  0  0  0  0  0  0
  100.1940   15.9926   23.6692 C   0  0  0  0  0  0  0  0  0  0  0  0
  103.0653   17.1858   17.5826 C   0  0  0  0  0  0  0  0  0  0  0  0
  102.4198   16.5261   23.3157 C   0  0  0  0  0  0  0  0  0  0  0  0
  101.7574   16.7453   19.2320 C   0  0  0  0  0  0  0  0  0  0  0  0
  103.0318   16.9653   19.7215 C   0  0  0  0  0  0  0  0  0  0  0  0
  100.9602   16.3693   21.4497 C   0  0  0  0  0  0  0  0  0  0  0  0
  102.2606   16.5927   21.9351 C   0  0  0  0  0  0  0  0  0  0  0  0
   99.4340   15.6537   25.5528 H   0  0  0  0  0  0  0  0  0  0  0  0
  104.4885   17.6176   16.1901 H   0  0  0  0  0  0  0  0  0  0  0  0
  101.5865   16.1736   25.1557 H   0  0  0  0  0  0  0  0  0  0  0  0
  101.0177   16.7668   17.2456 H   0  0  0  0  0  0  0  0  0  0  0  0
   97.2663   15.2845   24.8575 H   0  0  0  0  0  0  0  0  0  0  0  0
   97.5486   16.3011   23.6110 H   0  0  0  0  0  0  0  0  0  0  0  0
   97.8703   14.7078   23.4542 H   0  0  0  0  0  0  0  0  0  0  0  0
  103.1515   17.5150   14.3473 H   0  0  0  0  0  0  0  0  0  0  0  0
  102.2363   16.4105   15.1279 H   0  0  0  0  0  0  0  0  0  0  0  0
  101.9032   18.0018   15.2809 H   0  0  0  0  0  0  0  0  0  0  0  0
   99.7655   16.2694   19.7180 H   0  0  0  0  0  0  0  0  0  0  0  0
  104.2583   17.0700   21.4359 H   0  0  0  0  0  0  0  0  0  0  0  0
  1 14  2  0  0  0  0
  2  8  1  0  0  0  0
  2 12  1  0  0  0  0
  3  9  1  0  0  0  0
  3 13  1  0  0  0  0
  4 12  1  0  0  0  0
  4 14  1  0  0  0  0
  5 13  1  0  0  0  0
  5 15  1  0  0  0  0
  6 13  2  0  0  0  0
  6 16  1  0  0  0  0
  7 12  2  0  0  0  0
  7 17  1  0  0  0  0
 10 15  1  0  0  0  0
 10 17  2  0  0  0  0
 11 16  1  0  0  0  0
 11 18  2  0  0  0  0
 14 18  1  0  0  0  0
 15 16  2  0  0  0  0
 17 18  1  0  0  0  0
  2 19  1  0  0  0  0
  3 20  1  0  0  0  0
  4 21  1  0  0  0  0
  5 22  1  0  0  0  0
  8 23  1  0  0  0  0
  8 24  1  0  0  0  0
  8 25  1  0  0  0  0
  9 26  1  0  0  0  0
  9 27  1  0  0  0  0
  9 28  1  0  0  0  0
 10 29  1  0  0  0  0
 11 30  1  0  0  0  0
M  END
> <pdb_id>
3RR4

> <uniprot_id>
P28720

> <usmiles>
O=C1NC(=Nc2c1cc3N=C(Nc3c2)NC)NC

$$$$
HRJ_A_903
          07202403273D 1   1.00000     0.00000     0
            
 35 37  0  0  0  0            999 V2000
   15.4304   27.5177  -16.1105 O   0  0  0  0  0  0  0  0  0  0  0  0
    7.4229   18.2745  -10.7689 O   0  0  0  0  0  0  0  0  0  0  0  0
    7.7473   19.0303  -12.7623 O   0  0  0  0  0  0  0  0  0  0  0  0
   10.0313   21.9715   -8.3891 O   0  0  0  0  0  0  0  0  0  0  0  0
    8.4555   19.7697   -8.8822 O   0  0  0  0  0  0  0  0  0  0  0  0
   13.5522   26.8462  -17.1994 O   0  0  0  0  0  0  0  0  0  0  0  0
   12.3777   25.8282  -16.7784 N   0  0  0  0  0  0  0  0  0  0  0  0
   13.9398   26.0053  -15.2223 N   0  0  0  0  0  0  0  0  0  0  0  0
    9.3884   20.8251  -12.2156 N   0  0  0  0  0  0  0  0  0  0  0  0
   13.0778   22.2302  -11.9712 C   0  0  0  0  0  0  0  0  0  0  0  0
   10.7297   24.3186  -14.7792 C   0  0  0  0  0  0  0  0  0  0  0  0
   10.1067   23.4385  -13.8765 C   0  0  0  0  0  0  0  0  0  0  0  0
   10.3793   22.2778  -10.6264 C   0  0  0  0  0  0  0  0  0  0  0  0
   12.8398   23.7971  -13.7835 C   0  0  0  0  0  0  0  0  0  0  0  0
   14.3859   26.8427  -16.1802 C   0  0  0  0  0  0  0  0  0  0  0  0
    7.9879   19.0724  -11.5584 C   0  0  0  0  0  0  0  0  0  0  0  0
    9.8054   21.5884   -9.5517 C   0  0  0  0  0  0  0  0  0  0  0  0
   12.7752   25.3819  -15.5773 C   0  0  0  0  0  0  0  0  0  0  0  0
    9.0145   20.4853   -9.8556 C   0  0  0  0  0  0  0  0  0  0  0  0
   10.2169   21.8958  -11.9652 C   0  0  0  0  0  0  0  0  0  0  0  0
    8.7857   20.1209  -11.1671 C   0  0  0  0  0  0  0  0  0  0  0  0
   12.2353   22.9144  -12.8981 C   0  0  0  0  0  0  0  0  0  0  0  0
   12.1194   24.5094  -14.7543 C   0  0  0  0  0  0  0  0  0  0  0  0
   10.8495   22.7183  -12.9369 C   0  0  0  0  0  0  0  0  0  0  0  0
   16.0111   27.4579  -15.2986 H   0  0  0  0  0  0  0  0  0  0  0  0
    7.6232   18.3140   -9.7900 H   0  0  0  0  0  0  0  0  0  0  0  0
    7.8878   18.9776   -9.1068 H   0  0  0  0  0  0  0  0  0  0  0  0
    9.2148   20.5466  -13.1602 H   0  0  0  0  0  0  0  0  0  0  0  0
   12.5221   21.6301  -11.3958 H   0  0  0  0  0  0  0  0  0  0  0  0
   13.7494   21.6839  -12.4717 H   0  0  0  0  0  0  0  0  0  0  0  0
   13.5522   22.8972  -11.3967 H   0  0  0  0  0  0  0  0  0  0  0  0
   10.1752   24.8147  -15.4473 H   0  0  0  0  0  0  0  0  0  0  0  0
    9.1136   23.3259  -13.9075 H   0  0  0  0  0  0  0  0  0  0  0  0
   10.9345   23.0856  -10.4285 H   0  0  0  0  0  0  0  0  0  0  0  0
   13.8292   23.9307  -13.7269 H   0  0  0  0  0  0  0  0  0  0  0  0
  1 15  1  0  0  0  0
  2 16  1  0  0  0  0
  3 16  2  0  0  0  0
  4 17  2  0  0  0  0
  5 19  1  0  0  0  0
  6  7  1  0  0  0  0
  6 15  1  0  0  0  0
  7 18  2  0  0  0  0
  8 15  2  0  0  0  0
  8 18  1  0  0  0  0
  9 20  1  0  0  0  0
  9 21  1  0  0  0  0
 10 22  1  0  0  0  0
 11 12  1  0  0  0  0
 11 23  2  0  0  0  0
 12 24  2  0  0  0  0
 13 17  1  0  0  0  0
 13 20  2  0  0  0  0
 14 22  2  0  0  0  0
 14 23  1  0  0  0  0
 16 21  1  0  0  0  0
 17 19  1  0  0  0  0
 18 23  1  0  0  0  0
 19 21  2  0  0  0  0
 20 24  1  0  0  0  0
 22 24  1  0  0  0  0
  1 25  1  0  0  0  0
  2 26  1  0  0  0  0
  5 27  1  0  0  0  0
  9 28  1  0  0  0  0
 10 29  1  0  0  0  0
 10 30  1  0  0  0  0
 10 31  1  0  0  0  0
 11 32  1  0  0  0  0
 12 33  1  0  0  0  0
 13 34  1  0  0  0  0
 14 35  1  0  0  0  0
M  END
> <pdb_id>
6E4C

> <uniprot_id>
C3W5S0

> <usmiles>
O=C(O)C=1NC(c2c(cc(cc2)C3=NOC(O)=N3)C)=CC(=O)C1O

$$$$
HRV_A_401
          07202405583D 1   1.00000     0.00000     0
            
 44 46  0  0  0  0            999 V2000
   71.3871   44.2996   -0.1126 Cl  0  0  0  0  0  0  0  0  0  0  0  0
   74.0434   44.6398    4.5214 Cl  0  0  0  0  0  0  0  0  0  0  0  0
   70.1358   50.3904   10.1216 F   0  0  0  0  0  0  0  0  0  0  0  0
   67.8587   46.6181   11.6385 F   0  0  0  0  0  0  0  0  0  0  0  0
   69.5999   47.2063   10.4289 F   0  0  0  0  0  0  0  0  0  0  0  0
   68.5683   48.6872   11.6278 F   0  0  0  0  0  0  0  0  0  0  0  0
   73.3112   47.3924    5.4349 O   0  0  0  0  0  0  0  0  0  0  0  0
   67.4691   46.7299    8.8737 O   0  0  0  0  0  0  0  0  0  0  0  0
   65.4553   47.9519    6.1533 N   0  0  0  0  0  0  0  0  0  0  0  0
   71.0681   46.8554    2.9572 N   0  0  0  0  0  0  0  0  0  0  0  0
   70.9880   47.5291    5.5307 N   0  0  0  0  0  0  0  0  0  0  0  0
   66.9020   49.0613    7.6499 N   0  0  0  0  0  0  0  0  0  0  0  0
   67.4784   50.3993    9.5836 C   0  0  0  0  0  0  0  0  0  0  0  0
   66.3765   46.7045    7.9524 C   0  0  0  0  0  0  0  0  0  0  0  0
   70.9036   46.1906    1.7859 C   0  0  0  0  0  0  0  0  0  0  0  0
   71.6404   49.6272    8.4982 C   0  0  0  0  0  0  0  0  0  0  0  0
   71.8969   48.9062    7.3325 C   0  0  0  0  0  0  0  0  0  0  0  0
   72.6320   44.6141    2.2654 C   0  0  0  0  0  0  0  0  0  0  0  0
   69.5329   48.3590    7.1929 C   0  0  0  0  0  0  0  0  0  0  0  0
   71.6505   45.0846    1.4028 C   0  0  0  0  0  0  0  0  0  0  0  0
   72.8249   45.2688    3.4804 C   0  0  0  0  0  0  0  0  0  0  0  0
   70.3410   49.7066    8.9964 C   0  0  0  0  0  0  0  0  0  0  0  0
   72.1902   47.1292    5.0227 C   0  0  0  0  0  0  0  0  0  0  0  0
   66.2402   47.9825    7.2190 C   0  0  0  0  0  0  0  0  0  0  0  0
   70.8274   48.2717    6.6919 C   0  0  0  0  0  0  0  0  0  0  0  0
   67.4274   47.8828    9.7142 C   0  0  1  0  0  0  0  0  0  0  0  0
   72.0293   46.3716    3.7786 C   0  0  0  0  0  0  0  0  0  0  0  0
   69.2637   49.0777    8.3524 C   0  0  0  0  0  0  0  0  0  0  0  0
   68.3805   47.6030   10.8567 C   0  0  0  0  0  0  0  0  0  0  0  0
   67.8049   49.1184    8.8467 C   0  0  1  0  0  0  0  0  0  0  0  0
   64.9941   47.1027    5.8963 H   0  0  0  0  0  0  0  0  0  0  0  0
   65.3237   48.7780    5.6054 H   0  0  0  0  0  0  0  0  0  0  0  0
   70.1630   47.2678    5.0297 H   0  0  0  0  0  0  0  0  0  0  0  0
   68.0614   50.4764   10.3924 H   0  0  0  0  0  0  0  0  0  0  0  0
   67.6394   51.1808    8.9809 H   0  0  0  0  0  0  0  0  0  0  0  0
   66.5187   50.3870    9.8643 H   0  0  0  0  0  0  0  0  0  0  0  0
   65.5316   46.5307    8.4583 H   0  0  0  0  0  0  0  0  0  0  0  0
   66.5275   45.9682    7.2928 H   0  0  0  0  0  0  0  0  0  0  0  0
   70.1983   46.5187    1.1574 H   0  0  0  0  0  0  0  0  0  0  0  0
   72.3884   50.0872    8.9766 H   0  0  0  0  0  0  0  0  0  0  0  0
   72.8241   48.8441    6.9630 H   0  0  0  0  0  0  0  0  0  0  0  0
   73.1894   43.8211    2.0195 H   0  0  0  0  0  0  0  0  0  0  0  0
   68.7860   47.8988    6.7130 H   0  0  0  0  0  0  0  0  0  0  0  0
   66.5016   47.9991   10.0740 H   0  0  0  0  0  0  0  0  0  0  0  0
  1 20  1  0  0  0  0
  2 21  1  0  0  0  0
  3 22  1  0  0  0  0
  4 29  1  0  0  0  0
  5 29  1  0  0  0  0
  6 29  1  0  0  0  0
  7 23  2  0  0  0  0
  8 14  1  0  0  0  0
  8 26  1  0  0  0  0
  9 24  1  0  0  0  0
 10 15  2  0  0  0  0
 10 27  1  0  0  0  0
 11 23  1  0  0  0  0
 11 25  1  0  0  0  0
 12 24  2  0  0  0  0
 12 30  1  0  0  0  0
 13 30  1  0  0  0  0
 14 24  1  0  0  0  0
 15 20  1  0  0  0  0
 16 17  1  0  0  0  0
 16 22  2  0  0  0  0
 17 25  2  0  0  0  0
 18 20  2  0  0  0  0
 18 21  1  0  0  0  0
 19 25  1  0  0  0  0
 19 28  2  0  0  0  0
 21 27  2  0  0  0  0
 22 28  1  0  0  0  0
 23 27  1  0  0  0  0
 26 29  1  0  0  0  0
 26 30  1  0  0  0  0
 28 30  1  0  0  0  0
  9 31  1  0  0  0  0
  9 32  1  0  0  0  0
 11 33  1  0  0  0  0
 13 34  1  0  0  0  0
 13 35  1  0  0  0  0
 13 36  1  0  0  0  0
 14 37  1  0  0  0  0
 14 38  1  0  0  0  0
 15 39  1  0  0  0  0
 16 40  1  0  0  0  0
 17 41  1  0  0  0  0
 18 42  1  0  0  0  0
 19 43  1  0  0  0  0
 26 44  1  0  0  0  0
M  END
> <pdb_id>
6E3Z

> <uniprot_id>
P56817

> <usmiles>
Clc1c(ncc(Cl)c1)C(=O)Nc2cc(c(F)cc2)[C@]3(N=C(N)CO[C@H]3C(F)(F)F)C

$$$$
HS1_A_0
          07192418003D 1   1.00000     0.00000     0
            
 40 40  0  0  0  0            999 V2000
   15.8501   26.2006    0.5359 S   0  0  0  0  0  0  0  0  0  0  0  0
   15.0892   25.4104   -0.4021 O   0  0  0  0  0  0  0  0  0  0  0  0
   16.2179   25.4035    1.6750 O   0  0  0  0  0  0  0  0  0  0  0  0
   18.1968   29.8594    3.2032 O   0  0  0  0  0  0  0  0  0  0  0  0
   12.3433   25.7160   -0.8146 O   0  0  0  0  0  0  0  0  0  0  0  0
   16.1477   29.8573    1.5548 O   0  0  0  0  0  0  0  0  0  0  0  0
   12.2347   27.9896    2.0339 O   0  0  0  0  0  0  0  0  0  0  0  0
   20.7162   27.6857   -2.2799 O   0  0  0  0  0  0  0  0  0  0  0  0
   17.2134   28.8671    3.2466 N   0  0  0  0  0  0  0  0  0  0  0  0
   15.0773   27.5618    1.0016 N   0  0  0  0  0  0  0  0  0  0  0  0
   20.8910   27.5363   -3.6951 C   0  0  0  0  0  0  0  0  0  0  0  0
   12.2388   26.0630    0.5698 C   0  0  0  0  0  0  0  0  0  0  0  0
   15.1279   27.8727    2.4402 C   0  0  0  0  0  0  0  0  0  0  0  0
   13.8631   27.9261    0.2189 C   0  0  0  0  0  0  0  0  0  0  0  0
   18.4098   26.7137    0.4300 C   0  0  0  0  0  0  0  0  0  0  0  0
   17.1516   26.9336   -1.6231 C   0  0  0  0  0  0  0  0  0  0  0  0
   19.5740   27.0680   -0.2652 C   0  0  0  0  0  0  0  0  0  0  0  0
   18.3169   27.2881   -2.3234 C   0  0  0  0  0  0  0  0  0  0  0  0
   16.2011   28.9510    2.3901 C   0  0  0  0  0  0  0  0  0  0  0  0
   17.1848   26.6506   -0.2426 C   0  0  0  0  0  0  0  0  0  0  0  0
   12.4569   27.5632    0.6927 C   0  0  2  0  0  0  0  0  0  0  0  0
   19.5359   27.3575   -1.6415 C   0  0  0  0  0  0  0  0  0  0  0  0
   18.8914   29.6709    3.8976 H   0  0  0  0  0  0  0  0  0  0  0  0
   12.2034   24.7318   -0.9230 H   0  0  0  0  0  0  0  0  0  0  0  0
   12.3817   28.9767    2.0985 H   0  0  0  0  0  0  0  0  0  0  0  0
   17.2702   28.1153    3.9035 H   0  0  0  0  0  0  0  0  0  0  0  0
   21.8126   27.8291   -3.9499 H   0  0  0  0  0  0  0  0  0  0  0  0
   20.7644   26.5769   -3.9471 H   0  0  0  0  0  0  0  0  0  0  0  0
   20.2179   28.0987   -4.1753 H   0  0  0  0  0  0  0  0  0  0  0  0
   12.9345   25.5741    1.0962 H   0  0  0  0  0  0  0  0  0  0  0  0
   11.3309   25.8223    0.9130 H   0  0  0  0  0  0  0  0  0  0  0  0
   15.4089   27.0846    2.9879 H   0  0  0  0  0  0  0  0  0  0  0  0
   14.2559   28.2226    2.7825 H   0  0  0  0  0  0  0  0  0  0  0  0
   13.9730   27.5044   -0.6812 H   0  0  0  0  0  0  0  0  0  0  0  0
   13.8788   28.9216    0.1247 H   0  0  0  0  0  0  0  0  0  0  0  0
   18.4548   26.5059    1.4072 H   0  0  0  0  0  0  0  0  0  0  0  0
   16.2818   26.8810   -2.1136 H   0  0  0  0  0  0  0  0  0  0  0  0
   20.4447   27.1158    0.2243 H   0  0  0  0  0  0  0  0  0  0  0  0
   18.2749   27.4893   -3.3020 H   0  0  0  0  0  0  0  0  0  0  0  0
   11.7965   28.0265    0.1018 H   0  0  0  0  0  0  0  0  0  0  0  0
  1  2  2  0  0  0  0
  1  3  2  0  0  0  0
  1 10  1  0  0  0  0
  1 20  1  0  0  0  0
  4  9  1  0  0  0  0
  5 12  1  0  0  0  0
  6 19  2  0  0  0  0
  7 21  1  0  0  0  0
  8 11  1  0  0  0  0
  8 22  1  0  0  0  0
  9 19  1  0  0  0  0
 10 13  1  0  0  0  0
 10 14  1  0  0  0  0
 12 21  1  0  0  0  0
 13 19  1  0  0  0  0
 14 21  1  0  0  0  0
 15 17  2  0  0  0  0
 15 20  1  0  0  0  0
 16 18  1  0  0  0  0
 16 20  2  0  0  0  0
 17 22  1  0  0  0  0
 18 22  2  0  0  0  0
  4 23  1  0  0  0  0
  5 24  1  0  0  0  0
  7 25  1  0  0  0  0
  9 26  1  0  0  0  0
 11 27  1  0  0  0  0
 11 28  1  0  0  0  0
 11 29  1  0  0  0  0
 12 30  1  0  0  0  0
 12 31  1  0  0  0  0
 13 32  1  0  0  0  0
 13 33  1  0  0  0  0
 14 34  1  0  0  0  0
 14 35  1  0  0  0  0
 15 36  1  0  0  0  0
 16 37  1  0  0  0  0
 17 38  1  0  0  0  0
 18 39  1  0  0  0  0
 21 40  1  0  0  0  0
M  END
> <pdb_id>
3F15

> <uniprot_id>
P39900

> <usmiles>
S(=O)(=O)(N(CC(=O)NO)C[C@H](O)CO)c1ccc(OC)cc1

$$$$
HS3_A_0
          07192418003D 1   1.00000     0.00000     0
            
 33 33  0  0  0  0            999 V2000
   15.7030   26.2148    0.4193 S   0  0  0  0  0  0  0  0  0  0  0  0
   14.9663   25.3483   -0.4622 O   0  0  0  0  0  0  0  0  0  0  0  0
   15.9478   25.5400    1.6668 O   0  0  0  0  0  0  0  0  0  0  0  0
   18.1591   29.7610    3.0265 O   0  0  0  0  0  0  0  0  0  0  0  0
   13.5139   29.6939    1.9810 O   0  0  0  0  0  0  0  0  0  0  0  0
   16.3783   30.0999    1.1196 O   0  0  0  0  0  0  0  0  0  0  0  0
   20.8118   27.4626   -2.0872 O   0  0  0  0  0  0  0  0  0  0  0  0
   14.7375   27.4731    0.6932 N   0  0  0  0  0  0  0  0  0  0  0  0
   17.0354   28.9283    2.8936 N   0  0  0  0  0  0  0  0  0  0  0  0
   21.0192   27.4912   -3.4996 C   0  0  0  0  0  0  0  0  0  0  0  0
   13.8875   28.4156    2.5530 C   0  0  0  0  0  0  0  0  0  0  0  0
   17.2085   26.7571   -1.6583 C   0  0  0  0  0  0  0  0  0  0  0  0
   18.2947   26.7025    0.4869 C   0  0  0  0  0  0  0  0  0  0  0  0
   18.4236   27.0597   -2.2783 C   0  0  0  0  0  0  0  0  0  0  0  0
   19.5135   27.0031   -0.1311 C   0  0  0  0  0  0  0  0  0  0  0  0
   17.1199   26.5862   -0.2706 C   0  0  0  0  0  0  0  0  0  0  0  0
   16.1648   29.2169    1.9143 C   0  0  0  0  0  0  0  0  0  0  0  0
   19.5906   27.1799   -1.5142 C   0  0  0  0  0  0  0  0  0  0  0  0
   15.1172   28.0774    2.0426 C   0  0  2  0  0  0  0  0  0  0  0  0
   18.7237   29.4401    3.7870 H   0  0  0  0  0  0  0  0  0  0  0  0
   12.6196   29.9686    2.3344 H   0  0  0  0  0  0  0  0  0  0  0  0
   13.7844   27.1710    0.7133 H   0  0  0  0  0  0  0  0  0  0  0  0
   16.8901   28.1506    3.5052 H   0  0  0  0  0  0  0  0  0  0  0  0
   21.9745   27.7161   -3.6917 H   0  0  0  0  0  0  0  0  0  0  0  0
   20.8036   26.5947   -3.8864 H   0  0  0  0  0  0  0  0  0  0  0  0
   20.4249   28.1830   -3.9098 H   0  0  0  0  0  0  0  0  0  0  0  0
   13.2125   27.7206    2.3055 H   0  0  0  0  0  0  0  0  0  0  0  0
   13.9400   28.4896    3.5489 H   0  0  0  0  0  0  0  0  0  0  0  0
   16.3847   26.6604   -2.2170 H   0  0  0  0  0  0  0  0  0  0  0  0
   18.2609   26.5694    1.4774 H   0  0  0  0  0  0  0  0  0  0  0  0
   18.4598   27.1905   -3.2690 H   0  0  0  0  0  0  0  0  0  0  0  0
   20.3399   27.0924    0.4248 H   0  0  0  0  0  0  0  0  0  0  0  0
   15.5068   27.3544    2.6130 H   0  0  0  0  0  0  0  0  0  0  0  0
  1  2  2  0  0  0  0
  1  3  2  0  0  0  0
  1  8  1  0  0  0  0
  1 16  1  0  0  0  0
  4  9  1  0  0  0  0
  5 11  1  0  0  0  0
  6 17  2  0  0  0  0
  7 10  1  0  0  0  0
  7 18  1  0  0  0  0
  8 19  1  0  0  0  0
  9 17  1  0  0  0  0
 11 19  1  0  0  0  0
 12 14  2  0  0  0  0
 12 16  1  0  0  0  0
 13 15  1  0  0  0  0
 13 16  2  0  0  0  0
 14 18  1  0  0  0  0
 15 18  2  0  0  0  0
 17 19  1  0  0  0  0
  4 20  1  0  0  0  0
  5 21  1  0  0  0  0
  8 22  1  0  0  0  0
  9 23  1  0  0  0  0
 10 24  1  0  0  0  0
 10 25  1  0  0  0  0
 10 26  1  0  0  0  0
 11 27  1  0  0  0  0
 11 28  1  0  0  0  0
 12 29  1  0  0  0  0
 13 30  1  0  0  0  0
 14 31  1  0  0  0  0
 15 32  1  0  0  0  0
 19 33  1  0  0  0  0
M  END
> <pdb_id>
3F16

> <uniprot_id>
P39900

> <usmiles>
S(=O)(=O)(N[C@@H](C(=O)NO)CO)c1ccc(OC)cc1

$$$$
HS4_A_0
          07192418003D 1   1.00000     0.00000     0
            
 35 36  0  0  0  0            999 V2000
   15.1236   26.4168    1.4447 S   0  0  0  0  0  0  0  0  0  0  0  0
   15.9134   25.8311    2.5047 O   0  0  0  0  0  0  0  0  0  0  0  0
   14.0960   25.6553    0.8855 O   0  0  0  0  0  0  0  0  0  0  0  0
   18.3558   29.8694    3.1641 O   0  0  0  0  0  0  0  0  0  0  0  0
   15.9724   30.1546    2.1006 O   0  0  0  0  0  0  0  0  0  0  0  0
   14.4726   27.6282    2.2607 N   0  0  0  0  0  0  0  0  0  0  0  0
   17.3088   29.0408    3.4884 N   0  0  0  0  0  0  0  0  0  0  0  0
   21.2124   27.7086   -4.6142 C   0  0  0  0  0  0  0  0  0  0  0  0
   20.1263   28.5730   -4.5813 C   0  0  0  0  0  0  0  0  0  0  0  0
   21.3326   26.7217   -3.6441 C   0  0  0  0  0  0  0  0  0  0  0  0
   15.0517   28.3269    3.3736 C   0  0  0  0  0  0  0  0  0  0  0  0
   19.1592   28.4539   -3.5810 C   0  0  0  0  0  0  0  0  0  0  0  0
   20.3723   26.6043   -2.6499 C   0  0  0  0  0  0  0  0  0  0  0  0
   15.9786   27.0185   -0.8504 C   0  0  0  0  0  0  0  0  0  0  0  0
   17.7136   26.6793    0.7786 C   0  0  0  0  0  0  0  0  0  0  0  0
   16.9289   27.2779   -1.8338 C   0  0  0  0  0  0  0  0  0  0  0  0
   18.6680   26.9416   -0.2080 C   0  0  0  0  0  0  0  0  0  0  0  0
   16.3521   26.7048    0.4604 C   0  0  0  0  0  0  0  0  0  0  0  0
   16.1447   29.2549    2.9197 C   0  0  0  0  0  0  0  0  0  0  0  0
   19.2912   27.4877   -2.5894 C   0  0  0  0  0  0  0  0  0  0  0  0
   18.2850   27.2635   -1.5142 C   0  0  0  0  0  0  0  0  0  0  0  0
   19.1718   29.5889    3.6696 H   0  0  0  0  0  0  0  0  0  0  0  0
   13.6038   27.2711    2.6038 H   0  0  0  0  0  0  0  0  0  0  0  0
   17.4302   28.2933    4.1413 H   0  0  0  0  0  0  0  0  0  0  0  0
   21.9036   27.7959   -5.3316 H   0  0  0  0  0  0  0  0  0  0  0  0
   20.0361   29.2849   -5.2778 H   0  0  0  0  0  0  0  0  0  0  0  0
   22.1120   26.0954   -3.6623 H   0  0  0  0  0  0  0  0  0  0  0  0
   15.4337   27.6610    4.0145 H   0  0  0  0  0  0  0  0  0  0  0  0
   14.3399   28.8596    3.8313 H   0  0  0  0  0  0  0  0  0  0  0  0
   18.3683   29.0659   -3.5777 H   0  0  0  0  0  0  0  0  0  0  0  0
   20.4547   25.8780   -1.9676 H   0  0  0  0  0  0  0  0  0  0  0  0
   15.0076   27.0572   -1.0863 H   0  0  0  0  0  0  0  0  0  0  0  0
   18.0046   26.4731    1.7128 H   0  0  0  0  0  0  0  0  0  0  0  0
   16.6382   27.4747   -2.7701 H   0  0  0  0  0  0  0  0  0  0  0  0
   19.6399   26.8985    0.0235 H   0  0  0  0  0  0  0  0  0  0  0  0
  1  2  2  0  0  0  0
  1  3  2  0  0  0  0
  1  6  1  0  0  0  0
  1 18  1  0  0  0  0
  4  7  1  0  0  0  0
  5 19  2  0  0  0  0
  6 11  1  0  0  0  0
  7 19  1  0  0  0  0
  8  9  2  0  0  0  0
  8 10  1  0  0  0  0
  9 12  1  0  0  0  0
 10 13  2  0  0  0  0
 11 19  1  0  0  0  0
 12 20  2  0  0  0  0
 13 20  1  0  0  0  0
 14 16  2  0  0  0  0
 14 18  1  0  0  0  0
 15 17  1  0  0  0  0
 15 18  2  0  0  0  0
 16 21  1  0  0  0  0
 17 21  2  0  0  0  0
 20 21  1  0  0  0  0
  4 22  1  0  0  0  0
  6 23  1  0  0  0  0
  7 24  1  0  0  0  0
  8 25  1  0  0  0  0
  9 26  1  0  0  0  0
 10 27  1  0  0  0  0
 11 28  1  0  0  0  0
 11 29  1  0  0  0  0
 12 30  1  0  0  0  0
 13 31  1  0  0  0  0
 14 32  1  0  0  0  0
 15 33  1  0  0  0  0
 16 34  1  0  0  0  0
 17 35  1  0  0  0  0
M  END
> <pdb_id>
3F17

> <uniprot_id>
P39900

> <usmiles>
S(=O)(=O)(NCC(=O)NO)c1ccc(c2ccccc2)cc1

$$$$
HS6_A_0
          07192418003D 1   1.00000     0.00000     0
            
 25 25  0  0  0  0            999 V2000
   15.8325   26.1635    0.6114 S   0  0  0  0  0  0  0  0  0  0  0  0
   20.3742   27.8722   -2.5232 F   0  0  0  0  0  0  0  0  0  0  0  0
   15.0065   25.3578   -0.2514 O   0  0  0  0  0  0  0  0  0  0  0  0
   16.3287   25.4102    1.7278 O   0  0  0  0  0  0  0  0  0  0  0  0
   18.2692   29.8012    3.1594 O   0  0  0  0  0  0  0  0  0  0  0  0
   16.0867   29.9467    1.6655 O   0  0  0  0  0  0  0  0  0  0  0  0
   14.9385   27.3740    1.1708 N   0  0  0  0  0  0  0  0  0  0  0  0
   17.2531   28.8574    3.2333 N   0  0  0  0  0  0  0  0  0  0  0  0
   15.1512   27.9329    2.4925 C   0  0  0  0  0  0  0  0  0  0  0  0
   16.9636   26.9873   -1.6005 C   0  0  0  0  0  0  0  0  0  0  0  0
   18.3846   26.7430    0.3297 C   0  0  0  0  0  0  0  0  0  0  0  0
   18.0595   27.3992   -2.3626 C   0  0  0  0  0  0  0  0  0  0  0  0
   19.4842   27.1530   -0.4290 C   0  0  0  0  0  0  0  0  0  0  0  0
   17.1077   26.6605   -0.2462 C   0  0  0  0  0  0  0  0  0  0  0  0
   19.3202   27.4804   -1.7775 C   0  0  0  0  0  0  0  0  0  0  0  0
   16.2040   29.0034    2.4334 C   0  0  0  0  0  0  0  0  0  0  0  0
   18.9893   29.5676    3.8128 H   0  0  0  0  0  0  0  0  0  0  0  0
   13.9905   27.0566    1.1492 H   0  0  0  0  0  0  0  0  0  0  0  0
   17.3102   28.0894    3.8712 H   0  0  0  0  0  0  0  0  0  0  0  0
   15.4495   27.2088    3.1144 H   0  0  0  0  0  0  0  0  0  0  0  0
   14.2955   28.3279    2.8269 H   0  0  0  0  0  0  0  0  0  0  0  0
   16.0620   26.9247   -2.0286 H   0  0  0  0  0  0  0  0  0  0  0  0
   18.5090   26.5058    1.2932 H   0  0  0  0  0  0  0  0  0  0  0  0
   17.9386   27.6354   -3.3268 H   0  0  0  0  0  0  0  0  0  0  0  0
   20.3887   27.2122   -0.0067 H   0  0  0  0  0  0  0  0  0  0  0  0
  1  3  2  0  0  0  0
  1  4  2  0  0  0  0
  1  7  1  0  0  0  0
  1 14  1  0  0  0  0
  2 15  1  0  0  0  0
  5  8  1  0  0  0  0
  6 16  2  0  0  0  0
  7  9  1  0  0  0  0
  8 16  1  0  0  0  0
  9 16  1  0  0  0  0
 10 12  2  0  0  0  0
 10 14  1  0  0  0  0
 11 13  1  0  0  0  0
 11 14  2  0  0  0  0
 12 15  1  0  0  0  0
 13 15  2  0  0  0  0
  5 17  1  0  0  0  0
  7 18  1  0  0  0  0
  8 19  1  0  0  0  0
  9 20  1  0  0  0  0
  9 21  1  0  0  0  0
 10 22  1  0  0  0  0
 11 23  1  0  0  0  0
 12 24  1  0  0  0  0
 13 25  1  0  0  0  0
M  END
> <pdb_id>
3F19

> <uniprot_id>
P39900

> <usmiles>
S(=O)(=O)(NCC(=O)NO)c1ccc(F)cc1

$$$$
HS7_A_0
          07192418003D 1   1.00000     0.00000     0
            
 25 25  0  0  0  0            999 V2000
   15.7728   26.1235    0.7542 S   0  0  0  0  0  0  0  0  0  0  0  0
   16.2907   25.3739    1.8704 O   0  0  0  0  0  0  0  0  0  0  0  0
   14.9504   25.3208   -0.1062 O   0  0  0  0  0  0  0  0  0  0  0  0
   18.3229   29.7622    3.0733 O   0  0  0  0  0  0  0  0  0  0  0  0
   16.1101   29.9390    1.6582 O   0  0  0  0  0  0  0  0  0  0  0  0
   14.8667   27.3273    1.2989 N   0  0  0  0  0  0  0  0  0  0  0  0
   17.3013   28.8270    3.1853 N   0  0  0  0  0  0  0  0  0  0  0  0
   19.1671   27.6716   -1.6048 C   0  0  0  0  0  0  0  0  0  0  0  0
   17.8653   27.7931   -2.0901 C   0  0  0  0  0  0  0  0  0  0  0  0
   19.3952   27.0710   -0.3673 C   0  0  0  0  0  0  0  0  0  0  0  0
   15.1379   27.9547    2.5754 C   0  0  0  0  0  0  0  0  0  0  0  0
   16.7949   27.3024   -1.3364 C   0  0  0  0  0  0  0  0  0  0  0  0
   18.3227   26.5898    0.3820 C   0  0  0  0  0  0  0  0  0  0  0  0
   17.0108   26.6973   -0.0953 C   0  0  0  0  0  0  0  0  0  0  0  0
   16.2245   28.9912    2.4286 C   0  0  0  0  0  0  0  0  0  0  0  0
   19.0672   29.5188    3.6951 H   0  0  0  0  0  0  0  0  0  0  0  0
   13.9312   26.9774    1.3486 H   0  0  0  0  0  0  0  0  0  0  0  0
   17.3756   28.0548    3.8163 H   0  0  0  0  0  0  0  0  0  0  0  0
   19.9363   28.0149   -2.1438 H   0  0  0  0  0  0  0  0  0  0  0  0
   17.6981   28.2298   -2.9741 H   0  0  0  0  0  0  0  0  0  0  0  0
   20.3281   26.9854   -0.0173 H   0  0  0  0  0  0  0  0  0  0  0  0
   15.4326   27.2581    3.2295 H   0  0  0  0  0  0  0  0  0  0  0  0
   14.3049   28.3952    2.9102 H   0  0  0  0  0  0  0  0  0  0  0  0
   15.8631   27.3855   -1.6897 H   0  0  0  0  0  0  0  0  0  0  0  0
   18.4922   26.1631    1.2704 H   0  0  0  0  0  0  0  0  0  0  0  0
  1  2  2  0  0  0  0
  1  3  2  0  0  0  0
  1  6  1  0  0  0  0
  1 14  1  0  0  0  0
  4  7  1  0  0  0  0
  5 15  2  0  0  0  0
  6 11  1  0  0  0  0
  7 15  1  0  0  0  0
  8  9  2  0  0  0  0
  8 10  1  0  0  0  0
  9 12  1  0  0  0  0
 10 13  2  0  0  0  0
 11 15  1  0  0  0  0
 12 14  2  0  0  0  0
 13 14  1  0  0  0  0
  4 16  1  0  0  0  0
  6 17  1  0  0  0  0
  7 18  1  0  0  0  0
  8 19  1  0  0  0  0
  9 20  1  0  0  0  0
 10 21  1  0  0  0  0
 11 22  1  0  0  0  0
 11 23  1  0  0  0  0
 12 24  1  0  0  0  0
 13 25  1  0  0  0  0
M  END
> <pdb_id>
3F1A

> <uniprot_id>
P39900

> <usmiles>
S(=O)(=O)(NCC(=O)NO)c1ccccc1

$$$$
HSP_A_270
          07192421023D 1   1.00000     0.00000     0
            
 32 32  0  0  0  0            999 V2000
   48.9921   27.2446   16.1752 S   0  0  0  0  0  0  0  0  0  0  0  0
   48.2109   29.4477    9.7954 P   0  0  0  0  0  0  0  0  0  0  0  0
   47.6440   26.3283   16.0479 O   0  0  0  0  0  0  0  0  0  0  0  0
   46.9445   30.2776    9.6132 O   0  0  0  0  0  0  0  0  0  0  0  0
   48.4586   28.7829    8.4613 O   0  0  0  0  0  0  0  0  0  0  0  0
   49.3224   30.4750    9.9351 O   0  0  0  0  0  0  0  0  0  0  0  0
   51.8940   27.5042   15.2729 O   0  0  0  0  0  0  0  0  0  0  0  0
   48.9967   28.5097   14.8688 C   0  0  0  0  0  0  0  0  0  0  0  0
   48.1239   28.3430   11.1086 C   0  0  0  0  0  0  0  0  0  0  0  0
   48.5576   27.9056   13.5448 C   0  0  0  0  0  0  0  0  0  0  0  0
   48.5600   28.9599   12.4447 C   0  0  0  0  0  0  0  0  0  0  0  0
   50.4181   23.5992   15.0286 C   0  0  0  0  0  0  0  0  0  0  0  0
   51.7407   23.8809   14.6504 C   0  0  0  0  0  0  0  0  0  0  0  0
   49.5764   24.6268   15.4939 C   0  0  0  0  0  0  0  0  0  0  0  0
   52.2298   25.1972   14.7336 C   0  0  0  0  0  0  0  0  0  0  0  0
   50.0584   25.9372   15.5780 C   0  0  0  0  0  0  0  0  0  0  0  0
   51.4001   26.2298   15.1960 C   0  0  0  0  0  0  0  0  0  0  0  0
   46.7268   30.7459   10.4696 H   0  0  0  0  0  0  0  0  0  0  0  0
   49.2830   28.2198    8.5175 H   0  0  0  0  0  0  0  0  0  0  0  0
   51.3110   28.2474   15.6011 H   0  0  0  0  0  0  0  0  0  0  0  0
   49.9206   28.8798   14.7718 H   0  0  0  0  0  0  0  0  0  0  0  0
   48.3677   29.2452   15.1202 H   0  0  0  0  0  0  0  0  0  0  0  0
   48.7181   27.5638   10.9089 H   0  0  0  0  0  0  0  0  0  0  0  0
   47.1791   28.0276   11.1971 H   0  0  0  0  0  0  0  0  0  0  0  0
   47.6337   27.5359   13.6431 H   0  0  0  0  0  0  0  0  0  0  0  0
   49.1865   27.1693   13.2953 H   0  0  0  0  0  0  0  0  0  0  0  0
   47.9268   29.6938   12.6906 H   0  0  0  0  0  0  0  0  0  0  0  0
   49.4826   29.3338   12.3490 H   0  0  0  0  0  0  0  0  0  0  0  0
   50.0722   22.6630   14.9670 H   0  0  0  0  0  0  0  0  0  0  0  0
   52.3346   23.1463   14.3222 H   0  0  0  0  0  0  0  0  0  0  0  0
   48.6359   24.4206   15.7638 H   0  0  0  0  0  0  0  0  0  0  0  0
   53.1712   25.3975   14.4625 H   0  0  0  0  0  0  0  0  0  0  0  0
  1  3  2  0  0  0  0
  1  8  1  0  0  0  0
  1 16  1  0  0  0  0
  2  4  1  0  0  0  0
  2  5  1  0  0  0  0
  2  6  2  0  0  0  0
  2  9  1  0  0  0  0
  7 17  1  0  0  0  0
  8 10  1  0  0  0  0
  9 11  1  0  0  0  0
 10 11  1  0  0  0  0
 12 13  2  0  0  0  0
 12 14  1  0  0  0  0
 13 15  1  0  0  0  0
 14 16  2  0  0  0  0
 15 17  2  0  0  0  0
 16 17  1  0  0  0  0
  4 18  1  0  0  0  0
  5 19  1  0  0  0  0
  7 20  1  0  0  0  0
  8 21  1  0  0  0  0
  8 22  1  0  0  0  0
  9 23  1  0  0  0  0
  9 24  1  0  0  0  0
 10 25  1  0  0  0  0
 10 26  1  0  0  0  0
 11 27  1  0  0  0  0
 11 28  1  0  0  0  0
 12 29  1  0  0  0  0
 13 30  1  0  0  0  0
 14 31  1  0  0  0  0
 15 32  1  0  0  0  0
M  END
> <pdb_id>
1CW2

> <uniprot_id>
P00929

> <usmiles>
S(=O)(c1c(O)cccc1)CCCCP(=O)(O)O

$$$$
HT6_A_302
          07202413423D 1   1.00000     0.00000     0
            
 54 56  0  0  0  0            999 V2000
  -27.3900   27.2860    6.7990 S   0  0  0  0  0  0  0  0  0  0  0  0
  -27.0510   24.3720    3.5260 O   0  0  0  0  0  0  0  0  0  0  0  0
  -24.4750   23.2120   12.3730 N   0  0  0  0  0  0  0  0  0  0  0  0
  -26.4030   22.5960   11.1750 N   0  0  0  0  0  0  0  0  0  0  0  0
  -26.4420   22.1960    8.8610 N   0  0  0  0  0  0  0  0  0  0  0  0
  -23.0870   23.0890    9.5380 N   0  0  0  0  0  0  0  0  0  0  0  0
  -25.1570   23.1640    5.3480 N   0  0  0  0  0  0  0  0  0  0  0  0
  -26.7310   34.9760    6.2070 C   0  0  0  0  0  0  0  0  0  0  0  0
  -26.4750   28.6720    6.1880 C   0  0  0  0  0  0  0  0  0  0  0  0
  -26.1620   26.0190    6.8000 C   0  0  0  0  0  0  0  0  0  0  0  0
  -27.0430   22.2410   10.0390 C   0  0  0  0  0  0  0  0  0  0  0  0
  -22.9780   22.8890    8.1870 C   0  0  0  0  0  0  0  0  0  0  0  0
  -26.6110   23.1810    5.5770 C   0  0  0  0  0  0  0  0  0  0  0  0
  -24.6510   24.5540    5.4040 C   0  0  0  0  0  0  0  0  0  0  0  0
  -24.4620   22.1900    6.1840 C   0  0  0  0  0  0  0  0  0  0  0  0
  -26.0260   33.6330    6.2080 C   0  0  0  0  0  0  0  0  0  0  0  0
  -27.2540   29.9740    6.2640 C   0  0  0  0  0  0  0  0  0  0  0  0
  -27.0170   32.4760    6.0860 C   0  0  0  0  0  0  0  0  0  0  0  0
  -26.2850   31.1380    6.1040 C   0  0  0  0  0  0  0  0  0  0  0  0
  -25.0900   22.8790   11.2070 C   0  0  0  0  0  0  0  0  0  0  0  0
  -27.0000   24.4900    4.9590 C   0  0  1  0  0  0  0  0  0  0  0  0
  -24.3430   22.8550    9.9420 C   0  0  0  0  0  0  0  0  0  0  0  0
  -25.1220   22.4890    8.7740 C   0  0  0  0  0  0  0  0  0  0  0  0
  -25.9010   25.4280    5.4050 C   0  0  1  0  0  0  0  0  0  0  0  0
  -24.2040   22.5280    7.6340 C   0  0  0  0  0  0  0  0  0  0  0  0
  -27.3114   25.2517    3.1282 H   0  0  0  0  0  0  0  0  0  0  0  0
  -23.4969   23.4200   12.3807 H   0  0  0  0  0  0  0  0  0  0  0  0
  -25.0008   23.2489   13.2228 H   0  0  0  0  0  0  0  0  0  0  0  0
  -22.3368   23.3694   10.1368 H   0  0  0  0  0  0  0  0  0  0  0  0
  -26.0543   35.7078    6.2880 H   0  0  0  0  0  0  0  0  0  0  0  0
  -27.2392   35.0850    5.3527 H   0  0  0  0  0  0  0  0  0  0  0  0
  -27.3643   35.0206    6.9796 H   0  0  0  0  0  0  0  0  0  0  0  0
  -26.2342   28.4995    5.2329 H   0  0  0  0  0  0  0  0  0  0  0  0
  -25.6402   28.7674    6.7302 H   0  0  0  0  0  0  0  0  0  0  0  0
  -26.4651   25.2830    7.4054 H   0  0  0  0  0  0  0  0  0  0  0  0
  -25.3072   26.4051    7.1467 H   0  0  0  0  0  0  0  0  0  0  0  0
  -28.0126   22.0020   10.0908 H   0  0  0  0  0  0  0  0  0  0  0  0
  -22.1299   22.9891    7.6667 H   0  0  0  0  0  0  0  0  0  0  0  0
  -26.8266   23.1603    6.5533 H   0  0  0  0  0  0  0  0  0  0  0  0
  -27.0611   22.4139    5.1199 H   0  0  0  0  0  0  0  0  0  0  0  0
  -24.0828   24.7538    4.6057 H   0  0  0  0  0  0  0  0  0  0  0  0
  -24.1184   24.7011    6.2375 H   0  0  0  0  0  0  0  0  0  0  0  0
  -23.5729   22.0194    5.7593 H   0  0  0  0  0  0  0  0  0  0  0  0
  -25.0048   21.3502    6.1700 H   0  0  0  0  0  0  0  0  0  0  0  0
  -25.5165   33.5348    7.0628 H   0  0  0  0  0  0  0  0  0  0  0  0
  -25.3914   33.5993    5.4359 H   0  0  0  0  0  0  0  0  0  0  0  0
  -27.7136   30.0391    7.1497 H   0  0  0  0  0  0  0  0  0  0  0  0
  -27.9350   30.0010    5.5322 H   0  0  0  0  0  0  0  0  0  0  0  0
  -27.5204   32.5637    5.2264 H   0  0  0  0  0  0  0  0  0  0  0  0
  -27.6581   32.5102    6.8527 H   0  0  0  0  0  0  0  0  0  0  0  0
  -25.7855   31.0292    5.2445 H   0  0  0  0  0  0  0  0  0  0  0  0
  -25.6396   31.1309    6.8678 H   0  0  0  0  0  0  0  0  0  0  0  0
  -27.8835   24.7944    5.3151 H   0  0  0  0  0  0  0  0  0  0  0  0
  -25.7969   26.1669    4.7393 H   0  0  0  0  0  0  0  0  0  0  0  0
  1  9  1  0  0  0  0
  1 10  1  0  0  0  0
  2 21  1  0  0  0  0
  3 20  1  0  0  0  0
  4 11  1  0  0  0  0
  4 20  2  0  0  0  0
  5 11  2  0  0  0  0
  5 23  1  0  0  0  0
  6 12  1  0  0  0  0
  6 22  1  0  0  0  0
  7 13  1  0  0  0  0
  7 14  1  0  0  0  0
  7 15  1  0  0  0  0
  8 16  1  0  0  0  0
  9 17  1  0  0  0  0
 10 24  1  0  0  0  0
 12 25  2  0  0  0  0
 13 21  1  0  0  0  0
 14 24  1  0  0  0  0
 15 25  1  0  0  0  0
 16 18  1  0  0  0  0
 17 19  1  0  0  0  0
 18 19  1  0  0  0  0
 20 22  1  0  0  0  0
 21 24  1  0  0  0  0
 22 23  2  0  0  0  0
 23 25  1  0  0  0  0
  2 26  1  0  0  0  0
  3 27  1  0  0  0  0
  3 28  1  0  0  0  0
  6 29  1  0  0  0  0
  8 30  1  0  0  0  0
  8 31  1  0  0  0  0
  8 32  1  0  0  0  0
  9 33  1  0  0  0  0
  9 34  1  0  0  0  0
 10 35  1  0  0  0  0
 10 36  1  0  0  0  0
 11 37  1  0  0  0  0
 12 38  1  0  0  0  0
 13 39  1  0  0  0  0
 13 40  1  0  0  0  0
 14 41  1  0  0  0  0
 14 42  1  0  0  0  0
 15 43  1  0  0  0  0
 15 44  1  0  0  0  0
 16 45  1  0  0  0  0
 16 46  1  0  0  0  0
 17 47  1  0  0  0  0
 17 48  1  0  0  0  0
 18 49  1  0  0  0  0
 18 50  1  0  0  0  0
 19 51  1  0  0  0  0
 19 52  1  0  0  0  0
 21 53  1  0  0  0  0
 24 54  1  0  0  0  0
M  END
> <pdb_id>
6AYS

> <uniprot_id>
nan

> <usmiles>
S(C[C@@H]1[C@@H](O)CN(CC=2c3ncnc(N)c3NC2)C1)CCCCCC

$$$$
HUB_A_1538
          07192421493D 1   1.00000     0.00000     0
            
 39 42  0  0  0  0            999 V2000
    0.3538   69.4918   60.1584 O   0  0  0  0  0  0  0  0  0  0  0  0
    3.1165   68.1718   65.8403 N   0  0  0  0  0  0  0  0  0  0  0  0
    2.2629   68.5523   60.9591 N   0  0  0  0  0  0  0  0  0  0  0  0
    3.3615   63.5057   64.0749 C   0  0  0  0  0  0  0  0  0  0  0  0
    3.5266   69.6794   65.7848 C   0  0  0  0  0  0  0  0  0  0  0  0
    5.0029   69.7513   65.4247 C   0  0  0  0  0  0  0  0  0  0  0  0
    0.4428   69.0309   62.4804 C   0  0  0  0  0  0  0  0  0  0  0  0
    5.3200   69.0327   64.1024 C   0  0  0  0  0  0  0  0  0  0  0  0
    1.1946   68.5329   63.5140 C   0  0  0  0  0  0  0  0  0  0  0  0
    4.4270   67.5022   61.6216 C   0  0  0  0  0  0  0  0  0  0  0  0
    4.7899   65.3389   63.0200 C   0  0  0  0  0  0  0  0  0  0  0  0
    3.0003   65.9337   64.7324 C   0  0  0  0  0  0  0  0  0  0  0  0
    0.9759   69.0565   61.1300 C   0  0  0  0  0  0  0  0  0  0  0  0
    3.0527   68.0234   61.9949 C   0  0  0  0  0  0  0  0  0  0  0  0
    3.7826   64.9401   63.8815 C   0  0  0  0  0  0  0  0  0  0  0  0
    5.2118   66.8214   62.8496 C   0  0  2  0  0  0  0  0  0  0  0  0
    2.5296   68.0178   63.3344 C   0  0  0  0  0  0  0  0  0  0  0  0
    4.9137   67.5501   64.1820 C   0  0  2  0  0  0  0  0  0  0  0  0
    3.4033   67.4332   64.5539 C   0  0  1  0  0  0  0  0  0  0  0  0
    2.1359   68.1152   66.0282 H   0  0  0  0  0  0  0  0  0  0  0  0
    2.6512   68.5675   60.0377 H   0  0  0  0  0  0  0  0  0  0  0  0
    2.6188   63.4635   64.7433 H   0  0  0  0  0  0  0  0  0  0  0  0
    3.0470   63.1302   63.2031 H   0  0  0  0  0  0  0  0  0  0  0  0
    4.1392   62.9718   64.4067 H   0  0  0  0  0  0  0  0  0  0  0  0
    3.3734   70.1059   66.6762 H   0  0  0  0  0  0  0  0  0  0  0  0
    2.9844   70.1534   65.0909 H   0  0  0  0  0  0  0  0  0  0  0  0
    5.5333   69.3246   66.1573 H   0  0  0  0  0  0  0  0  0  0  0  0
    5.2661   70.7123   65.3390 H   0  0  0  0  0  0  0  0  0  0  0  0
   -0.4779   69.3784   62.6580 H   0  0  0  0  0  0  0  0  0  0  0  0
    6.3014   69.0954   63.9212 H   0  0  0  0  0  0  0  0  0  0  0  0
    4.8151   69.4726   63.3598 H   0  0  0  0  0  0  0  0  0  0  0  0
    0.7995   68.5268   64.4326 H   0  0  0  0  0  0  0  0  0  0  0  0
    4.9740   68.2673   61.2820 H   0  0  0  0  0  0  0  0  0  0  0  0
    4.3209   66.8208   60.8974 H   0  0  0  0  0  0  0  0  0  0  0  0
    5.2658   64.6412   62.4846 H   0  0  0  0  0  0  0  0  0  0  0  0
    3.1352   65.6904   65.6930 H   0  0  0  0  0  0  0  0  0  0  0  0
    2.0321   65.8446   64.4987 H   0  0  0  0  0  0  0  0  0  0  0  0
    6.1947   66.8613   62.6697 H   0  0  0  0  0  0  0  0  0  0  0  0
    5.4502   67.1153   64.9052 H   0  0  0  0  0  0  0  0  0  0  0  0
  1 13  2  0  0  0  0
  2  5  1  0  0  0  0
  2 19  1  0  0  0  0
  3 13  1  0  0  0  0
  3 14  1  0  0  0  0
  4 15  1  0  0  0  0
  5  6  1  0  0  0  0
  6  8  1  0  0  0  0
  7  9  2  0  0  0  0
  7 13  1  0  0  0  0
  8 18  1  0  0  0  0
  9 17  1  0  0  0  0
 10 14  1  0  0  0  0
 10 16  1  0  0  0  0
 11 15  2  0  0  0  0
 11 16  1  0  0  0  0
 12 15  1  0  0  0  0
 12 19  1  0  0  0  0
 14 17  2  0  0  0  0
 16 18  1  0  0  0  0
 17 19  1  0  0  0  0
 18 19  1  0  0  0  0
  2 20  1  0  0  0  0
  3 21  1  0  0  0  0
  4 22  1  0  0  0  0
  4 23  1  0  0  0  0
  4 24  1  0  0  0  0
  5 25  1  0  0  0  0
  5 26  1  0  0  0  0
  6 27  1  0  0  0  0
  6 28  1  0  0  0  0
  7 29  1  0  0  0  0
  8 30  1  0  0  0  0
  8 31  1  0  0  0  0
  9 32  1  0  0  0  0
 10 33  1  0  0  0  0
 10 34  1  0  0  0  0
 11 35  1  0  0  0  0
 12 36  1  0  0  0  0
 12 37  1  0  0  0  0
 16 38  1  0  0  0  0
 18 39  1  0  0  0  0
M  END
> <pdb_id>
1GPN

> <uniprot_id>
P04058

> <usmiles>
O=C1NC2=C(C=C1)[C@]34NCCC[C@@H]3[C@@H](C=C(C4)C)C2

$$$$
HUP_A_1540
          07192421493D 1   1.00000     0.00000     0
            
 36 38  0  0  0  0            999 V2000
    0.2101   69.7372   59.5659 O   0  0  0  0  0  0  0  0  0  0  0  0
    1.4248   66.8582   65.1900 N   0  0  0  0  0  0  0  0  0  0  0  0
    1.9458   68.6940   60.6608 N   0  0  0  0  0  0  0  0  0  0  0  0
    4.2698   63.9510   63.7969 C   0  0  0  0  0  0  0  0  0  0  0  0
    5.3731   69.8545   65.5976 C   0  0  0  0  0  0  0  0  0  0  0  0
    3.3810   65.0903   64.1946 C   0  0  0  0  0  0  0  0  0  0  0  0
   -0.0625   69.2309   61.8976 C   0  0  0  0  0  0  0  0  0  0  0  0
    0.5048   68.6765   63.0268 C   0  0  0  0  0  0  0  0  0  0  0  0
    3.9499   67.5683   61.6148 C   0  0  0  0  0  0  0  0  0  0  0  0
    5.3008   68.0903   63.7767 C   0  0  0  0  0  0  0  0  0  0  0  0
    3.2407   68.5292   65.1632 C   0  0  0  0  0  0  0  0  0  0  0  0
    0.6658   69.2531   60.6367 C   0  0  0  0  0  0  0  0  0  0  0  0
    2.5571   68.1245   61.7982 C   0  0  0  0  0  0  0  0  0  0  0  0
    4.6867   68.7839   64.7764 C   0  0  0  0  0  0  0  0  0  0  0  0
    4.5833   66.9958   62.9593 C   0  0  1  0  0  0  0  0  0  0  0  0
    1.8358   68.0963   63.0342 C   0  0  0  0  0  0  0  0  0  0  0  0
    3.4846   66.3663   63.8465 C   0  0  0  0  0  0  0  0  0  0  0  0
    2.4903   67.4477   64.3317 C   0  0  2  0  0  0  0  0  0  0  0  0
    0.9294   66.1595   64.6738 H   0  0  0  0  0  0  0  0  0  0  0  0
    1.8403   66.4429   65.9992 H   0  0  0  0  0  0  0  0  0  0  0  0
    2.4681   68.6975   59.8081 H   0  0  0  0  0  0  0  0  0  0  0  0
    3.9378   63.1067   64.2175 H   0  0  0  0  0  0  0  0  0  0  0  0
    4.2614   63.8533   62.8017 H   0  0  0  0  0  0  0  0  0  0  0  0
    5.2032   64.1327   64.1061 H   0  0  0  0  0  0  0  0  0  0  0  0
    4.7300   70.2232   66.2688 H   0  0  0  0  0  0  0  0  0  0  0  0
    6.1591   69.4581   66.0719 H   0  0  0  0  0  0  0  0  0  0  0  0
    5.6834   70.5894   64.9947 H   0  0  0  0  0  0  0  0  0  0  0  0
    2.6160   64.8605   64.7962 H   0  0  0  0  0  0  0  0  0  0  0  0
   -0.9821   69.6208   61.9456 H   0  0  0  0  0  0  0  0  0  0  0  0
   -0.0231   68.6743   63.8761 H   0  0  0  0  0  0  0  0  0  0  0  0
    4.5405   68.2988   61.2719 H   0  0  0  0  0  0  0  0  0  0  0  0
    3.9102   66.8287   60.9429 H   0  0  0  0  0  0  0  0  0  0  0  0
    6.2553   68.2992   63.5643 H   0  0  0  0  0  0  0  0  0  0  0  0
    2.7419   69.3904   65.0656 H   0  0  0  0  0  0  0  0  0  0  0  0
    3.2265   68.2425   66.1212 H   0  0  0  0  0  0  0  0  0  0  0  0
    5.2478   66.2868   62.7226 H   0  0  0  0  0  0  0  0  0  0  0  0
  1 12  2  0  0  0  0
  2 18  1  0  0  0  0
  3 12  1  0  0  0  0
  3 13  1  0  0  0  0
  4  6  1  0  0  0  0
  5 14  1  0  0  0  0
  6 17  2  0  0  0  0
  7  8  2  0  0  0  0
  7 12  1  0  0  0  0
  8 16  1  0  0  0  0
  9 13  1  0  0  0  0
  9 15  1  0  0  0  0
 10 14  2  0  0  0  0
 10 15  1  0  0  0  0
 11 14  1  0  0  0  0
 11 18  1  0  0  0  0
 13 16  2  0  0  0  0
 15 17  1  0  0  0  0
 16 18  1  0  0  0  0
 17 18  1  0  0  0  0
  2 19  1  0  0  0  0
  2 20  1  0  0  0  0
  3 21  1  0  0  0  0
  4 22  1  0  0  0  0
  4 23  1  0  0  0  0
  4 24  1  0  0  0  0
  5 25  1  0  0  0  0
  5 26  1  0  0  0  0
  5 27  1  0  0  0  0
  6 28  1  0  0  0  0
  7 29  1  0  0  0  0
  8 30  1  0  0  0  0
  9 31  1  0  0  0  0
  9 32  1  0  0  0  0
 10 33  1  0  0  0  0
 11 34  1  0  0  0  0
 11 35  1  0  0  0  0
 15 36  1  0  0  0  0
M  END
> <pdb_id>
1GPK

> <uniprot_id>
P04058

> <usmiles>
O=C1NC2=C(C=C1)[C@@]3(N)/C(=C/C)/[C@H](C=C(C3)C)C2

$$$$
HUP_A_604
          07202414243D 1   1.00000     0.00000     0
            
 36 38  0  0  0  0            999 V2000
   -7.6815  -40.9364   35.4815 O   0  0  0  0  0  0  0  0  0  0  0  0
  -11.8681  -44.1160   32.0895 N   0  0  0  0  0  0  0  0  0  0  0  0
   -7.7246  -42.3657   33.6991 N   0  0  0  0  0  0  0  0  0  0  0  0
   -9.3536  -47.2501   30.7291 C   0  0  0  0  0  0  0  0  0  0  0  0
   -9.6269  -41.6793   28.3559 C   0  0  0  0  0  0  0  0  0  0  0  0
  -10.0425  -46.1313   31.4124 C   0  0  0  0  0  0  0  0  0  0  0  0
   -9.8051  -41.4098   34.4767 C   0  0  0  0  0  0  0  0  0  0  0  0
  -10.4636  -42.0868   33.5142 C   0  0  0  0  0  0  0  0  0  0  0  0
   -7.5700  -43.9318   31.8426 C   0  0  0  0  0  0  0  0  0  0  0  0
   -8.5091  -43.4274   29.5961 C   0  0  0  0  0  0  0  0  0  0  0  0
  -10.7856  -42.7365   30.3381 C   0  0  0  0  0  0  0  0  0  0  0  0
   -8.3649  -41.5131   34.6299 C   0  0  0  0  0  0  0  0  0  0  0  0
   -8.4085  -43.0659   32.7231 C   0  0  0  0  0  0  0  0  0  0  0  0
   -9.5939  -42.6767   29.4709 C   0  0  0  0  0  0  0  0  0  0  0  0
   -8.3671  -44.4626   30.6421 C   0  0  2  0  0  0  0  0  0  0  0  0
   -9.7736  -42.9458   32.6070 C   0  0  0  0  0  0  0  0  0  0  0  0
   -9.7442  -44.8703   31.1058 C   0  0  0  0  0  0  0  0  0  0  0  0
  -10.5805  -43.6862   31.5459 C   0  0  1  0  0  0  0  0  0  0  0  0
  -11.7148  -44.7267   32.8663 H   0  0  0  0  0  0  0  0  0  0  0  0
  -12.3862  -43.3158   32.3918 H   0  0  0  0  0  0  0  0  0  0  0  0
   -6.7309  -42.4661   33.7499 H   0  0  0  0  0  0  0  0  0  0  0  0
   -9.6999  -48.1196   31.0813 H   0  0  0  0  0  0  0  0  0  0  0  0
   -9.5258  -47.1966   29.7455 H   0  0  0  0  0  0  0  0  0  0  0  0
   -8.3701  -47.1895   30.8991 H   0  0  0  0  0  0  0  0  0  0  0  0
  -10.4956  -41.1844   28.3770 H   0  0  0  0  0  0  0  0  0  0  0  0
   -8.8721  -41.0324   28.4648 H   0  0  0  0  0  0  0  0  0  0  0  0
   -9.5350  -42.1544   27.4808 H   0  0  0  0  0  0  0  0  0  0  0  0
  -10.7352  -46.3238   32.1075 H   0  0  0  0  0  0  0  0  0  0  0  0
  -10.3211  -40.8223   35.1000 H   0  0  0  0  0  0  0  0  0  0  0  0
  -11.4552  -41.9850   33.4346 H   0  0  0  0  0  0  0  0  0  0  0  0
   -7.2335  -44.7075   32.3766 H   0  0  0  0  0  0  0  0  0  0  0  0
   -6.7947  -43.3974   31.5060 H   0  0  0  0  0  0  0  0  0  0  0  0
   -7.7540  -43.2877   28.9555 H   0  0  0  0  0  0  0  0  0  0  0  0
  -11.5610  -43.0641   29.7984 H   0  0  0  0  0  0  0  0  0  0  0  0
  -10.9820  -41.8176   30.6801 H   0  0  0  0  0  0  0  0  0  0  0  0
   -7.8978  -45.2582   30.2588 H   0  0  0  0  0  0  0  0  0  0  0  0
  1 12  2  0  0  0  0
  2 18  1  0  0  0  0
  3 12  1  0  0  0  0
  3 13  1  0  0  0  0
  4  6  1  0  0  0  0
  5 14  1  0  0  0  0
  6 17  2  0  0  0  0
  7  8  2  0  0  0  0
  7 12  1  0  0  0  0
  8 16  1  0  0  0  0
  9 13  1  0  0  0  0
  9 15  1  0  0  0  0
 10 14  2  0  0  0  0
 10 15  1  0  0  0  0
 11 14  1  0  0  0  0
 11 18  1  0  0  0  0
 13 16  2  0  0  0  0
 15 17  1  0  0  0  0
 16 18  1  0  0  0  0
 17 18  1  0  0  0  0
  2 19  1  0  0  0  0
  2 20  1  0  0  0  0
  3 21  1  0  0  0  0
  4 22  1  0  0  0  0
  4 23  1  0  0  0  0
  4 24  1  0  0  0  0
  5 25  1  0  0  0  0
  5 26  1  0  0  0  0
  5 27  1  0  0  0  0
  6 28  1  0  0  0  0
  7 29  1  0  0  0  0
  8 30  1  0  0  0  0
  9 31  1  0  0  0  0
  9 32  1  0  0  0  0
 10 33  1  0  0  0  0
 11 34  1  0  0  0  0
 11 35  1  0  0  0  0
 15 36  1  0  0  0  0
M  END
> <pdb_id>
4EY5

> <uniprot_id>
P22303

> <usmiles>
O=C1NC2=C(C=C1)[C@]3(N)/C(=C/C)/[C@@H](C=C(C3)C)C2

$$$$
HUX_A_803
          07192421493D 1   1.00000     0.00000     0
            
 40 43  0  0  0  0            999 V2000
    7.5890   70.8537   69.6918 Cl  0  0  0  0  0  0  0  0  0  0  0  0
    1.9037   69.3344   66.1994 N   0  0  0  0  0  0  0  0  0  0  0  0
    5.9786   69.4592   65.0392 N   0  0  0  0  0  0  0  0  0  0  0  0
    4.3707   63.5107   63.8495 C   0  0  0  0  0  0  0  0  0  0  0  0
    3.2629   64.5348   64.1867 C   0  0  0  0  0  0  0  0  0  0  0  0
    4.9604   70.5075   69.0064 C   0  0  0  0  0  0  0  0  0  0  0  0
    3.9370   70.1893   68.1929 C   0  0  0  0  0  0  0  0  0  0  0  0
    6.6937   70.1460   67.1655 C   0  0  0  0  0  0  0  0  0  0  0  0
    5.5317   68.6699   62.7257 C   0  0  0  0  0  0  0  0  0  0  0  0
    4.2781   66.2996   62.7201 C   0  0  0  0  0  0  0  0  0  0  0  0
    2.3047   67.0862   63.8759 C   0  0  0  0  0  0  0  0  0  0  0  0
    3.1821   68.4589   61.9455 C   0  0  0  0  0  0  0  0  0  0  0  0
    6.4044   70.5032   68.5772 C   0  0  0  0  0  0  0  0  0  0  0  0
    3.2462   69.4077   65.8764 C   0  0  0  0  0  0  0  0  0  0  0  0
    5.5903   69.8282   66.3970 C   0  0  0  0  0  0  0  0  0  0  0  0
    4.9908   69.0848   64.1995 C   0  0  0  0  0  0  0  0  0  0  0  0
    3.2990   65.9888   63.5726 C   0  0  0  0  0  0  0  0  0  0  0  0
    4.5333   67.7744   61.9730 C   0  0  1  0  0  0  0  0  0  0  0  0
    2.6326   68.5068   63.4377 C   0  0  2  0  0  0  0  0  0  0  0  0
    4.2691   69.7987   66.7740 C   0  0  0  0  0  0  0  0  0  0  0  0
    3.6383   69.0057   64.4815 C   0  0  0  0  0  0  0  0  0  0  0  0
    1.2384   69.0490   65.5096 H   0  0  0  0  0  0  0  0  0  0  0  0
    1.5982   69.5669   67.1228 H   0  0  0  0  0  0  0  0  0  0  0  0
    4.1851   62.6504   64.3244 H   0  0  0  0  0  0  0  0  0  0  0  0
    4.3869   63.3499   62.8627 H   0  0  0  0  0  0  0  0  0  0  0  0
    5.2568   63.8692   64.1434 H   0  0  0  0  0  0  0  0  0  0  0  0
    3.2670   64.6439   65.1807 H   0  0  0  0  0  0  0  0  0  0  0  0
    2.3972   64.1245   63.9000 H   0  0  0  0  0  0  0  0  0  0  0  0
    4.7503   70.7615   69.9505 H   0  0  0  0  0  0  0  0  0  0  0  0
    2.9912   70.2108   68.5168 H   0  0  0  0  0  0  0  0  0  0  0  0
    7.6230   70.1360   66.7963 H   0  0  0  0  0  0  0  0  0  0  0  0
    6.3953   68.1759   62.8265 H   0  0  0  0  0  0  0  0  0  0  0  0
    5.6840   69.5019   62.1922 H   0  0  0  0  0  0  0  0  0  0  0  0
    4.9295   65.5721   62.5048 H   0  0  0  0  0  0  0  0  0  0  0  0
    2.1796   67.1050   64.8679 H   0  0  0  0  0  0  0  0  0  0  0  0
    1.4430   66.8333   63.4360 H   0  0  0  0  0  0  0  0  0  0  0  0
    2.5507   67.9428   61.3666 H   0  0  0  0  0  0  0  0  0  0  0  0
    3.2783   69.3879   61.5882 H   0  0  0  0  0  0  0  0  0  0  0  0
    4.8540   67.6261   61.0375 H   0  0  0  0  0  0  0  0  0  0  0  0
    1.8058   69.0682   63.4730 H   0  0  0  0  0  0  0  0  0  0  0  0
  1 13  1  0  0  0  0
  2 14  1  0  0  0  0
  3 15  2  0  0  0  0
  3 16  1  0  0  0  0
  4  5  1  0  0  0  0
  5 17  1  0  0  0  0
  6  7  2  0  0  0  0
  6 13  1  0  0  0  0
  7 20  1  0  0  0  0
  8 13  2  0  0  0  0
  8 15  1  0  0  0  0
  9 16  1  0  0  0  0
  9 18  1  0  0  0  0
 10 17  2  0  0  0  0
 10 18  1  0  0  0  0
 11 17  1  0  0  0  0
 11 19  1  0  0  0  0
 12 18  1  0  0  0  0
 12 19  1  0  0  0  0
 14 20  2  0  0  0  0
 14 21  1  0  0  0  0
 15 20  1  0  0  0  0
 16 21  2  0  0  0  0
 19 21  1  0  0  0  0
  2 22  1  0  0  0  0
  2 23  1  0  0  0  0
  4 24  1  0  0  0  0
  4 25  1  0  0  0  0
  4 26  1  0  0  0  0
  5 27  1  0  0  0  0
  5 28  1  0  0  0  0
  6 29  1  0  0  0  0
  7 30  1  0  0  0  0
  8 31  1  0  0  0  0
  9 32  1  0  0  0  0
  9 33  1  0  0  0  0
 10 34  1  0  0  0  0
 11 35  1  0  0  0  0
 11 36  1  0  0  0  0
 12 37  1  0  0  0  0
 12 38  1  0  0  0  0
 18 39  1  0  0  0  0
 19 40  1  0  0  0  0
M  END
> <pdb_id>
1E66

> <uniprot_id>
P04058

> <usmiles>
Clc1cc2nc3c(c(N)c2cc1)[C@@H]4CC(=C[C@H](C3)C4)CC

$$$$
HVD_A_201
          07212402503D 1   1.00000     0.00000     0
            
 53 54  0  0  0  0            999 V2000
  -11.8950   -6.3290   11.0710 O   0  0  0  0  0  0  0  0  0  0  0  0
  -11.0470   -8.0190   15.4590 O   0  0  0  0  0  0  0  0  0  0  0  0
  -16.1470   -8.4260   16.3630 C   0  0  0  0  0  0  0  0  0  0  0  0
  -12.6530   -1.7980   16.3600 C   0  0  0  0  0  0  0  0  0  0  0  0
  -14.5320   -9.7050   14.9930 C   0  0  0  0  0  0  0  0  0  0  0  0
  -11.1820   -5.7310   19.5720 C   0  0  0  0  0  0  0  0  0  0  0  0
  -11.5090   -7.1630   13.2630 C   0  0  0  0  0  0  0  0  0  0  0  0
  -13.3900   -5.8190   12.8470 C   0  0  0  0  0  0  0  0  0  0  0  0
  -12.3750   -6.1010   17.4360 C   0  0  0  0  0  0  0  0  0  0  0  0
  -13.7750   -1.5630   15.3550 C   0  0  0  0  0  0  0  0  0  0  0  0
  -14.0170   -2.8310   14.5180 C   0  0  0  0  0  0  0  0  0  0  0  0
  -14.7350   -3.8840   15.3650 C   0  0  0  0  0  0  0  0  0  0  0  0
  -15.0580   -5.1590   14.5690 C   0  0  0  0  0  0  0  0  0  0  0  0
  -12.8520   -7.7210   19.2490 C   0  0  0  0  0  0  0  0  0  0  0  0
  -14.0660   -8.1840   18.4430 C   0  0  0  0  0  0  0  0  0  0  0  0
  -12.2700   -6.4290   12.4220 C   0  0  0  0  0  0  0  0  0  0  0  0
  -14.8850   -8.7510   16.1300 C   0  0  0  0  0  0  0  0  0  0  0  0
  -11.8490   -7.2760   14.5940 C   0  0  0  0  0  0  0  0  0  0  0  0
  -12.1440   -6.5040   18.6740 C   0  0  0  0  0  0  0  0  0  0  0  0
  -13.7940   -5.9000   14.1640 C   0  0  0  0  0  0  0  0  0  0  0  0
  -13.0180   -6.6420   15.0860 C   0  0  0  0  0  0  0  0  0  0  0  0
  -13.4460   -6.7400   16.5550 C   0  0  1  0  0  0  0  0  0  0  0  0
  -13.7390   -8.1860   16.9650 C   0  0  1  0  0  0  0  0  0  0  0  0
  -12.2410   -5.6310   10.7320 H   0  0  0  0  0  0  0  0  0  0  0  0
  -10.2420   -7.7510   15.4000 H   0  0  0  0  0  0  0  0  0  0  0  0
  -16.8250   -8.7850   15.8370 H   0  0  0  0  0  0  0  0  0  0  0  0
  -16.3570   -7.8430   17.0570 H   0  0  0  0  0  0  0  0  0  0  0  0
  -12.8340   -2.6060   16.8640 H   0  0  0  0  0  0  0  0  0  0  0  0
  -12.6000   -1.0430   16.9670 H   0  0  0  0  0  0  0  0  0  0  0  0
  -11.8100   -1.8930   15.8880 H   0  0  0  0  0  0  0  0  0  0  0  0
  -15.0340   -9.4640   14.2000 H   0  0  0  0  0  0  0  0  0  0  0  0
  -14.7540  -10.6130   15.2530 H   0  0  0  0  0  0  0  0  0  0  0  0
  -13.5820   -9.6470   14.8050 H   0  0  0  0  0  0  0  0  0  0  0  0
  -10.7580   -5.0250   19.0600 H   0  0  0  0  0  0  0  0  0  0  0  0
  -10.5030   -6.3340   19.9140 H   0  0  0  0  0  0  0  0  0  0  0  0
  -11.6730   -5.3430   20.3130 H   0  0  0  0  0  0  0  0  0  0  0  0
  -10.7390   -7.5760   12.9470 H   0  0  0  0  0  0  0  0  0  0  0  0
  -13.8970   -5.3250   12.2430 H   0  0  0  0  0  0  0  0  0  0  0  0
  -11.8670   -5.4040   17.0890 H   0  0  0  0  0  0  0  0  0  0  0  0
  -14.5890   -1.3330   15.8300 H   0  0  0  0  0  0  0  0  0  0  0  0
  -13.5310   -0.8330   14.7660 H   0  0  0  0  0  0  0  0  0  0  0  0
  -13.1660   -3.1850   14.2170 H   0  0  0  0  0  0  0  0  0  0  0  0
  -14.5640   -2.6090   13.7480 H   0  0  0  0  0  0  0  0  0  0  0  0
  -15.5630   -3.5060   15.7010 H   0  0  0  0  0  0  0  0  0  0  0  0
  -14.1700   -4.1200   16.1180 H   0  0  0  0  0  0  0  0  0  0  0  0
  -15.6060   -5.7430   15.1160 H   0  0  0  0  0  0  0  0  0  0  0  0
  -15.5530   -4.9160   13.7710 H   0  0  0  0  0  0  0  0  0  0  0  0
  -12.2160   -8.4530   19.2920 H   0  0  0  0  0  0  0  0  0  0  0  0
  -13.1450   -7.5080   20.1490 H   0  0  0  0  0  0  0  0  0  0  0  0
  -14.3090   -9.0820   18.7180 H   0  0  0  0  0  0  0  0  0  0  0  0
  -14.8080   -7.5810   18.6060 H   0  0  0  0  0  0  0  0  0  0  0  0
  -14.2630   -6.2300   16.6660 H   0  0  0  0  0  0  0  0  0  0  0  0
  -12.9430   -8.7210   16.8200 H   0  0  0  0  0  0  0  0  0  0  0  0
  1 16  1  0  0  0  0
  1 24  1  0  0  0  0
  2 18  1  0  0  0  0
  2 25  1  0  0  0  0
  3 17  2  0  0  0  0
  3 26  1  0  0  0  0
  3 27  1  0  0  0  0
  4 10  1  0  0  0  0
  4 28  1  0  0  0  0
  4 29  1  0  0  0  0
  4 30  1  0  0  0  0
  5 17  1  0  0  0  0
  5 31  1  0  0  0  0
  5 32  1  0  0  0  0
  5 33  1  0  0  0  0
  6 19  1  0  0  0  0
  6 34  1  0  0  0  0
  6 35  1  0  0  0  0
  6 36  1  0  0  0  0
  7 16  2  0  0  0  0
  7 18  1  0  0  0  0
  7 37  1  0  0  0  0
  8 16  1  0  0  0  0
  8 20  2  0  0  0  0
  8 38  1  0  0  0  0
  9 19  2  0  0  0  0
  9 22  1  0  0  0  0
  9 39  1  0  0  0  0
 10 11  1  0  0  0  0
 10 40  1  0  0  0  0
 10 41  1  0  0  0  0
 11 12  1  0  0  0  0
 11 42  1  0  0  0  0
 11 43  1  0  0  0  0
 12 13  1  0  0  0  0
 12 44  1  0  0  0  0
 12 45  1  0  0  0  0
 13 20  1  0  0  0  0
 13 46  1  0  0  0  0
 13 47  1  0  0  0  0
 14 15  1  0  0  0  0
 14 19  1  0  0  0  0
 14 48  1  0  0  0  0
 14 49  1  0  0  0  0
 15 23  1  0  0  0  0
 15 50  1  0  0  0  0
 15 51  1  0  0  0  0
 17 23  1  0  0  0  0
 18 21  2  0  0  0  0
 20 21  1  0  0  0  0
 21 22  1  0  0  0  0
 22 23  1  0  0  0  0
 22 52  1  0  0  0  0
 23 53  1  0  0  0  0
M  END
> <pdb_id>
6E5L

> <uniprot_id>
P09455

> <usmiles>
Oc1c(c(cc(O)c1)CCCCC)[C@@H]2C=C(CC[C@H]2C(=C)C)C

$$$$
HVJ_A_201
          07212402503D 1   1.00000     0.00000     0
            
 41 42  0  0  0  0            999 V2000
  -12.1390   -6.0525   11.1853 O   0  0  0  0  0  0  0  0  0  0  0  0
  -11.2091   -7.7885   15.4678 O   0  0  0  0  0  0  0  0  0  0  0  0
  -16.1917   -8.1452   16.4505 C   0  0  0  0  0  0  0  0  0  0  0  0
  -14.7868   -9.4681   15.0102 C   0  0  0  0  0  0  0  0  0  0  0  0
  -11.0719   -5.6850   19.6736 C   0  0  0  0  0  0  0  0  0  0  0  0
  -15.2370   -4.8997   14.7653 C   0  0  0  0  0  0  0  0  0  0  0  0
  -11.6722   -6.9324   13.3129 C   0  0  0  0  0  0  0  0  0  0  0  0
  -13.6180   -5.5379   13.0125 C   0  0  0  0  0  0  0  0  0  0  0  0
  -12.3605   -6.0460   17.5483 C   0  0  0  0  0  0  0  0  0  0  0  0
  -12.7224   -7.7000   19.3358 C   0  0  0  0  0  0  0  0  0  0  0  0
  -13.9422   -8.1604   18.5391 C   0  0  0  0  0  0  0  0  0  0  0  0
  -12.4772   -6.1582   12.4986 C   0  0  0  0  0  0  0  0  0  0  0  0
  -14.9541   -8.5556   16.1898 C   0  0  0  0  0  0  0  0  0  0  0  0
  -11.9865   -7.0446   14.6593 C   0  0  0  0  0  0  0  0  0  0  0  0
  -12.0633   -6.4420   18.8034 C   0  0  0  0  0  0  0  0  0  0  0  0
  -13.9743   -5.6505   14.3338 C   0  0  0  0  0  0  0  0  0  0  0  0
  -13.1604   -6.4362   15.2211 C   0  0  0  0  0  0  0  0  0  0  0  0
  -13.7492   -8.0854   17.0325 C   0  0  1  0  0  0  0  0  0  0  0  0
  -13.4054   -6.6275   16.6810 C   0  0  1  0  0  0  0  0  0  0  0  0
  -12.8229   -5.8232   10.7362 H   0  0  0  0  0  0  0  0  0  0  0  0
  -10.4379   -7.8915   15.1254 H   0  0  0  0  0  0  0  0  0  0  0  0
  -16.9537   -8.3911   15.9790 H   0  0  0  0  0  0  0  0  0  0  0  0
  -16.4239   -7.5787   17.1503 H   0  0  0  0  0  0  0  0  0  0  0  0
  -15.3387  -10.2627   15.0789 H   0  0  0  0  0  0  0  0  0  0  0  0
  -13.8866   -9.7982   14.8607 H   0  0  0  0  0  0  0  0  0  0  0  0
  -15.0603   -9.0904   14.1590 H   0  0  0  0  0  0  0  0  0  0  0  0
  -11.0645   -4.7282   19.5114 H   0  0  0  0  0  0  0  0  0  0  0  0
  -10.1349   -5.9268   19.6056 H   0  0  0  0  0  0  0  0  0  0  0  0
  -11.2445   -5.7314   20.6273 H   0  0  0  0  0  0  0  0  0  0  0  0
  -15.5675   -4.2844   14.0923 H   0  0  0  0  0  0  0  0  0  0  0  0
  -15.1514   -4.3515   15.5601 H   0  0  0  0  0  0  0  0  0  0  0  0
  -15.9901   -5.4831   14.9511 H   0  0  0  0  0  0  0  0  0  0  0  0
  -10.9106   -7.3403   12.9671 H   0  0  0  0  0  0  0  0  0  0  0  0
  -14.1176   -5.0444   12.4028 H   0  0  0  0  0  0  0  0  0  0  0  0
  -11.8733   -5.3453   17.1800 H   0  0  0  0  0  0  0  0  0  0  0  0
  -12.0494   -8.3979   19.3345 H   0  0  0  0  0  0  0  0  0  0  0  0
  -12.9302   -7.6490   20.2810 H   0  0  0  0  0  0  0  0  0  0  0  0
  -14.2050   -9.0466   18.8335 H   0  0  0  0  0  0  0  0  0  0  0  0
  -14.7006   -7.6151   18.8017 H   0  0  0  0  0  0  0  0  0  0  0  0
  -12.9911   -8.6570   16.8328 H   0  0  0  0  0  0  0  0  0  0  0  0
  -14.1808   -6.0919   16.9085 H   0  0  0  0  0  0  0  0  0  0  0  0
  1 12  1  0  0  0  0
  1 20  1  0  0  0  0
  2 14  1  0  0  0  0
  2 21  1  0  0  0  0
  3 13  2  0  0  0  0
  3 22  1  0  0  0  0
  3 23  1  0  0  0  0
  4 13  1  0  0  0  0
  4 24  1  0  0  0  0
  4 25  1  0  0  0  0
  4 26  1  0  0  0  0
  5 15  1  0  0  0  0
  5 27  1  0  0  0  0
  5 28  1  0  0  0  0
  5 29  1  0  0  0  0
  6 16  1  0  0  0  0
  6 30  1  0  0  0  0
  6 31  1  0  0  0  0
  6 32  1  0  0  0  0
  7 12  2  0  0  0  0
  7 14  1  0  0  0  0
  7 33  1  0  0  0  0
  8 12  1  0  0  0  0
  8 16  2  0  0  0  0
  8 34  1  0  0  0  0
  9 15  2  0  0  0  0
  9 19  1  0  0  0  0
  9 35  1  0  0  0  0
 10 11  1  0  0  0  0
 10 15  1  0  0  0  0
 10 36  1  0  0  0  0
 10 37  1  0  0  0  0
 11 18  1  0  0  0  0
 11 38  1  0  0  0  0
 11 39  1  0  0  0  0
 13 18  1  0  0  0  0
 14 17  2  0  0  0  0
 16 17  1  0  0  0  0
 17 19  1  0  0  0  0
 18 19  1  0  0  0  0
 18 40  1  0  0  0  0
 19 41  1  0  0  0  0
M  END
> <pdb_id>
6E5T

> <uniprot_id>
P09455

> <usmiles>
Oc1c(c(cc(O)c1)C)[C@@H]2C=C(CC[C@H]2C(=C)C)C

$$$$
HVT_A_103
          07212403313D 1   1.00000     0.00000     0
            
 86 88  0  0  0  0            999 V2000
   10.4440   14.3490    5.8160 O   0  0  0  0  0  0  0  0  0  0  0  0
    8.3380   16.6630    7.4960 O   0  0  0  0  0  0  0  0  0  0  0  0
    5.8930   19.1840    8.0910 O   0  0  0  0  0  0  0  0  0  0  0  0
   12.2770   18.7820    6.6970 O   0  0  0  0  0  0  0  0  0  0  0  0
    4.9870   17.3310    9.0600 N   0  0  0  0  0  0  0  0  0  0  0  0
   11.8130   16.2020    5.7090 N   0  0  0  0  0  0  0  0  0  0  0  0
    8.3920   18.5050    8.7780 N   0  0  0  0  0  0  0  0  0  0  0  0
    6.8770   20.1880   10.8740 C   0  0  0  0  0  0  0  0  0  0  0  0
    6.2070   18.0070   11.9430 C   0  0  0  0  0  0  0  0  0  0  0  0
    3.6540   17.3720    8.4180 C   0  0  0  0  0  0  0  0  0  0  0  0
    3.5430   16.1670    7.4760 C   0  0  0  0  0  0  0  0  0  0  0  0
    4.5560   16.2880    6.3110 C   0  0  0  0  0  0  0  0  0  0  0  0
    4.2540   17.5570    5.4570 C   0  0  0  0  0  0  0  0  0  0  0  0
    4.9090   17.4580    4.1120 C   0  0  0  0  0  0  0  0  0  0  0  0
    6.3440   17.8840    4.1960 C   0  0  0  0  0  0  0  0  0  0  0  0
    7.0150   17.2590    3.0260 C   0  0  0  0  0  0  0  0  0  0  0  0
    8.5310   17.2190    3.0270 C   0  0  0  0  0  0  0  0  0  0  0  0
    9.0420   15.8950    3.4630 C   0  0  0  0  0  0  0  0  0  0  0  0
   10.3370   15.4800    2.8240 C   0  0  0  0  0  0  0  0  0  0  0  0
   14.3350    9.8730    7.3070 C   0  0  0  0  0  0  0  0  0  0  0  0
   14.9710   10.5600    6.2530 C   0  0  0  0  0  0  0  0  0  0  0  0
   11.3980   14.8660    3.7580 C   0  0  0  0  0  0  0  0  0  0  0  0
   13.6080   10.5870    8.2100 C   0  0  0  0  0  0  0  0  0  0  0  0
   14.8810   11.9510    6.0950 C   0  0  0  0  0  0  0  0  0  0  0  0
   12.7210   14.0630    8.8160 C   0  0  0  0  0  0  0  0  0  0  0  0
   12.8220   12.6940    8.9320 C   0  0  0  0  0  0  0  0  0  0  0  0
    9.8730   18.3190    6.8240 C   0  0  0  0  0  0  0  0  0  0  0  0
   13.0720   16.2280    7.8500 C   0  0  0  0  0  0  0  0  0  0  0  0
   14.0560   14.0960    6.9180 C   0  0  0  0  0  0  0  0  0  0  0  0
   11.1830   15.0930    5.1390 C   0  0  0  0  0  0  0  0  0  0  0  0
    8.8560   17.7720    7.6680 C   0  0  0  0  0  0  0  0  0  0  0  0
    6.0430   18.2190    8.8440 C   0  0  0  0  0  0  0  0  0  0  0  0
   11.2850   17.9780    7.3400 C   0  0  1  0  0  0  0  0  0  0  0  0
   11.7150   16.5200    7.1500 C   0  0  1  0  0  0  0  0  0  0  0  0
    7.2170   18.7140   10.9800 C   0  0  0  0  0  0  0  0  0  0  0  0
   13.2800   14.7910    7.8310 C   0  0  0  0  0  0  0  0  0  0  0  0
    7.2610   18.0280    9.6060 C   0  0  2  0  0  0  0  0  0  0  0  0
   13.5250   11.9690    8.0170 C   0  0  0  0  0  0  0  0  0  0  0  0
   14.1530   12.6710    6.9950 C   0  0  0  0  0  0  0  0  0  0  0  0
   13.1813   18.5409    7.0494 H   0  0  0  0  0  0  0  0  0  0  0  0
    5.1478   16.5925    9.7148 H   0  0  0  0  0  0  0  0  0  0  0  0
   12.3513   16.8044    5.1196 H   0  0  0  0  0  0  0  0  0  0  0  0
    8.8376   19.3690    9.0125 H   0  0  0  0  0  0  0  0  0  0  0  0
    7.5247   20.6360   10.2578 H   0  0  0  0  0  0  0  0  0  0  0  0
    5.9494   20.2911   10.5149 H   0  0  0  0  0  0  0  0  0  0  0  0
    6.9327   20.6089   11.7794 H   0  0  0  0  0  0  0  0  0  0  0  0
    6.4347   17.0356   12.0101 H   0  0  0  0  0  0  0  0  0  0  0  0
    6.2620   18.4256   12.8495 H   0  0  0  0  0  0  0  0  0  0  0  0
    5.2787   18.1079   11.5850 H   0  0  0  0  0  0  0  0  0  0  0  0
    3.5543   18.2199    7.8973 H   0  0  0  0  0  0  0  0  0  0  0  0
    2.9397   17.3236    9.1162 H   0  0  0  0  0  0  0  0  0  0  0  0
    2.6163   16.1267    7.1024 H   0  0  0  0  0  0  0  0  0  0  0  0
    3.7320   15.3302    7.9898 H   0  0  0  0  0  0  0  0  0  0  0  0
    4.4888   15.4766    5.7304 H   0  0  0  0  0  0  0  0  0  0  0  0
    5.4812   16.3549    6.6846 H   0  0  0  0  0  0  0  0  0  0  0  0
    4.6027   18.3641    5.9335 H   0  0  0  0  0  0  0  0  0  0  0  0
    3.2652   17.6431    5.3352 H   0  0  0  0  0  0  0  0  0  0  0  0
    4.4268   18.0503    3.4665 H   0  0  0  0  0  0  0  0  0  0  0  0
    4.8646   16.5113    3.7929 H   0  0  0  0  0  0  0  0  0  0  0  0
    6.7550   17.5603    5.0482 H   0  0  0  0  0  0  0  0  0  0  0  0
    6.4158   18.8803    4.1486 H   0  0  0  0  0  0  0  0  0  0  0  0
    6.7293   17.7643    2.2117 H   0  0  0  0  0  0  0  0  0  0  0  0
    6.6905   16.3152    2.9636 H   0  0  0  0  0  0  0  0  0  0  0  0
    8.8738   17.9209    3.6513 H   0  0  0  0  0  0  0  0  0  0  0  0
    8.8613   17.4058    2.1018 H   0  0  0  0  0  0  0  0  0  0  0  0
    8.3512   15.2065    3.2424 H   0  0  0  0  0  0  0  0  0  0  0  0
    9.1787   15.9246    4.4532 H   0  0  0  0  0  0  0  0  0  0  0  0
   10.7393   16.2905    2.3982 H   0  0  0  0  0  0  0  0  0  0  0  0
   10.1249   14.8035    2.1187 H   0  0  0  0  0  0  0  0  0  0  0  0
   14.4163    8.8798    7.3899 H   0  0  0  0  0  0  0  0  0  0  0  0
   15.5074   10.0352    5.5920 H   0  0  0  0  0  0  0  0  0  0  0  0
   12.2871   15.2536    3.5147 H   0  0  0  0  0  0  0  0  0  0  0  0
   11.4119   13.8779    3.6045 H   0  0  0  0  0  0  0  0  0  0  0  0
   13.1519   10.1409    8.9800 H   0  0  0  0  0  0  0  0  0  0  0  0
   15.3434   12.4070    5.3345 H   0  0  0  0  0  0  0  0  0  0  0  0
   12.1951   14.5507    9.5129 H   0  0  0  0  0  0  0  0  0  0  0  0
   12.3750   12.2276    9.6953 H   0  0  0  0  0  0  0  0  0  0  0  0
    9.7699   19.3132    6.7946 H   0  0  0  0  0  0  0  0  0  0  0  0
    9.7654   17.9453    5.9027 H   0  0  0  0  0  0  0  0  0  0  0  0
   13.0452   16.5555    8.7945 H   0  0  0  0  0  0  0  0  0  0  0  0
   13.8135   16.6857    7.3594 H   0  0  0  0  0  0  0  0  0  0  0  0
   14.5496   14.5917    6.2034 H   0  0  0  0  0  0  0  0  0  0  0  0
   11.3119   18.1812    8.3188 H   0  0  0  0  0  0  0  0  0  0  0  0
   11.0173   15.9300    7.5563 H   0  0  0  0  0  0  0  0  0  0  0  0
    8.1277   18.6401   11.3864 H   0  0  0  0  0  0  0  0  0  0  0  0
    7.3806   17.0464    9.7552 H   0  0  0  0  0  0  0  0  0  0  0  0
  1 30  2  0  0  0  0
  2 31  2  0  0  0  0
  3 32  2  0  0  0  0
  4 33  1  0  0  0  0
  5 10  1  0  0  0  0
  5 32  1  0  0  0  0
  6 30  1  0  0  0  0
  6 34  1  0  0  0  0
  7 31  1  0  0  0  0
  7 37  1  0  0  0  0
  8 35  1  0  0  0  0
  9 35  1  0  0  0  0
 10 11  1  0  0  0  0
 11 12  1  0  0  0  0
 12 13  1  0  0  0  0
 13 14  1  0  0  0  0
 14 15  1  0  0  0  0
 15 16  1  0  0  0  0
 16 17  1  0  0  0  0
 17 18  1  0  0  0  0
 18 19  1  0  0  0  0
 19 22  1  0  0  0  0
 20 21  2  0  0  0  0
 20 23  1  0  0  0  0
 21 24  1  0  0  0  0
 22 30  1  0  0  0  0
 23 38  2  0  0  0  0
 24 39  2  0  0  0  0
 25 26  2  0  0  0  0
 25 36  1  0  0  0  0
 26 38  1  0  0  0  0
 27 31  1  0  0  0  0
 27 33  1  0  0  0  0
 28 34  1  0  0  0  0
 28 36  1  0  0  0  0
 29 36  2  0  0  0  0
 29 39  1  0  0  0  0
 32 37  1  0  0  0  0
 33 34  1  0  0  0  0
 35 37  1  0  0  0  0
 38 39  1  0  0  0  0
  4 40  1  0  0  0  0
  5 41  1  0  0  0  0
  6 42  1  0  0  0  0
  7 43  1  0  0  0  0
  8 44  1  0  0  0  0
  8 45  1  0  0  0  0
  8 46  1  0  0  0  0
  9 47  1  0  0  0  0
  9 48  1  0  0  0  0
  9 49  1  0  0  0  0
 10 50  1  0  0  0  0
 10 51  1  0  0  0  0
 11 52  1  0  0  0  0
 11 53  1  0  0  0  0
 12 54  1  0  0  0  0
 12 55  1  0  0  0  0
 13 56  1  0  0  0  0
 13 57  1  0  0  0  0
 14 58  1  0  0  0  0
 14 59  1  0  0  0  0
 15 60  1  0  0  0  0
 15 61  1  0  0  0  0
 16 62  1  0  0  0  0
 16 63  1  0  0  0  0
 17 64  1  0  0  0  0
 17 65  1  0  0  0  0
 18 66  1  0  0  0  0
 18 67  1  0  0  0  0
 19 68  1  0  0  0  0
 19 69  1  0  0  0  0
 20 70  1  0  0  0  0
 21 71  1  0  0  0  0
 22 72  1  0  0  0  0
 22 73  1  0  0  0  0
 23 74  1  0  0  0  0
 24 75  1  0  0  0  0
 25 76  1  0  0  0  0
 26 77  1  0  0  0  0
 27 78  1  0  0  0  0
 27 79  1  0  0  0  0
 28 80  1  0  0  0  0
 28 81  1  0  0  0  0
 29 82  1  0  0  0  0
 33 83  1  0  0  0  0
 34 84  1  0  0  0  0
 35 85  1  0  0  0  0
 37 86  1  0  0  0  0
M  END
> <pdb_id>
6QBG

> <uniprot_id>
P07339

> <usmiles>
O=C1NCCCCCCCCCCCC(=O)N[C@H]([C@@H](O)CC(=O)N[C@H]1C(C)C)Cc2cc3c(cc2)cccc3

$$$$
HW1_A_800
          07192423083D 1   1.00000     0.00000     0
            
 61 63  0  0  0  0            999 V2000
   13.2950   14.8870   37.0600 O   0  0  0  0  0  0  0  0  0  0  0  0
    4.7750   11.8690   32.0310 N   0  0  0  0  0  0  0  0  0  0  0  0
   16.4960   13.1180   34.0220 N   0  0  0  0  0  0  0  0  0  0  0  0
   12.9800   16.4710   39.4520 N   0  0  0  0  0  0  0  0  0  0  0  0
    6.8710   12.8620   32.2770 N   0  0  0  0  0  0  0  0  0  0  0  0
   16.1080   13.5100   36.2890 N   0  0  0  0  0  0  0  0  0  0  0  0
    8.6260   10.2420   29.3380 C   0  0  0  0  0  0  0  0  0  0  0  0
   20.1960   14.6870   36.8590 C   0  0  0  0  0  0  0  0  0  0  0  0
   12.7320   15.2520   35.7880 C   0  0  0  0  0  0  0  0  0  0  0  0
   13.3570   17.0190   38.1590 C   0  0  0  0  0  0  0  0  0  0  0  0
   13.8850   15.4190   39.9370 C   0  0  0  0  0  0  0  0  0  0  0  0
   11.8190   14.1550   35.2740 C   0  0  0  0  0  0  0  0  0  0  0  0
   10.9020   14.6510   34.1520 C   0  0  0  0  0  0  0  0  0  0  0  0
    9.9880   13.5280   33.6830 C   0  0  0  0  0  0  0  0  0  0  0  0
    9.0360   14.0710   32.6120 C   0  0  0  0  0  0  0  0  0  0  0  0
    6.6250   11.0540   30.7060 C   0  0  0  0  0  0  0  0  0  0  0  0
   18.2960   13.8890   35.4110 C   0  0  0  0  0  0  0  0  0  0  0  0
    8.7630   12.1340   31.0000 C   0  0  0  0  0  0  0  0  0  0  0  0
   17.8420   14.2880   37.7660 C   0  0  0  0  0  0  0  0  0  0  0  0
   15.4860   13.8890   38.6590 C   0  0  0  0  0  0  0  0  0  0  0  0
    6.0860   11.9350   31.6730 C   0  0  0  0  0  0  0  0  0  0  0  0
   16.9570   13.5040   35.2350 C   0  0  0  0  0  0  0  0  0  0  0  0
   14.1910   15.8750   37.5930 C   0  0  1  0  0  0  0  0  0  0  0  0
    8.1920   12.9910   31.9540 C   0  0  0  0  0  0  0  0  0  0  0  0
   16.5120   13.8920   37.5400 C   0  0  0  0  0  0  0  0  0  0  0  0
    7.9880   11.1540   30.3750 C   0  0  0  0  0  0  0  0  0  0  0  0
   18.7460   14.2760   36.6780 C   0  0  0  0  0  0  0  0  0  0  0  0
   14.9170   15.3060   38.8130 C   0  0  1  0  0  0  0  0  0  0  0  0
    4.1729   11.1954   31.6023 H   0  0  0  0  0  0  0  0  0  0  0  0
    4.4135   12.4940   32.7229 H   0  0  0  0  0  0  0  0  0  0  0  0
   17.1108   13.1081   33.2334 H   0  0  0  0  0  0  0  0  0  0  0  0
   15.5406   12.8427   33.9146 H   0  0  0  0  0  0  0  0  0  0  0  0
   12.0606   16.0852   39.3750 H   0  0  0  0  0  0  0  0  0  0  0  0
    9.5955   10.4690   29.2459 H   0  0  0  0  0  0  0  0  0  0  0  0
    8.5327    9.2898   29.6290 H   0  0  0  0  0  0  0  0  0  0  0  0
    8.1691   10.3677   28.4574 H   0  0  0  0  0  0  0  0  0  0  0  0
   20.3559   14.9329   37.8150 H   0  0  0  0  0  0  0  0  0  0  0  0
   20.7924   13.9251   36.6065 H   0  0  0  0  0  0  0  0  0  0  0  0
   20.3949   15.4738   36.2747 H   0  0  0  0  0  0  0  0  0  0  0  0
   13.4716   15.3988   35.1311 H   0  0  0  0  0  0  0  0  0  0  0  0
   12.2058   16.0960   35.8915 H   0  0  0  0  0  0  0  0  0  0  0  0
   13.8977   17.8545   38.2573 H   0  0  0  0  0  0  0  0  0  0  0  0
   12.5554   17.2056   37.5910 H   0  0  0  0  0  0  0  0  0  0  0  0
   13.3967   14.5557   40.0645 H   0  0  0  0  0  0  0  0  0  0  0  0
   14.3187   15.6868   40.7973 H   0  0  0  0  0  0  0  0  0  0  0  0
   11.2543   13.8242   36.0301 H   0  0  0  0  0  0  0  0  0  0  0  0
   12.3805   13.4050   34.9244 H   0  0  0  0  0  0  0  0  0  0  0  0
   11.4602   14.9648   33.3839 H   0  0  0  0  0  0  0  0  0  0  0  0
   10.3456   15.4094   34.4914 H   0  0  0  0  0  0  0  0  0  0  0  0
    9.4584   13.1817   34.4574 H   0  0  0  0  0  0  0  0  0  0  0  0
   10.5382   12.7873   33.2976 H   0  0  0  0  0  0  0  0  0  0  0  0
    9.5790   14.5242   31.9050 H   0  0  0  0  0  0  0  0  0  0  0  0
    8.4236   14.7360   33.0394 H   0  0  0  0  0  0  0  0  0  0  0  0
    6.0448   10.3698   30.2641 H   0  0  0  0  0  0  0  0  0  0  0  0
   18.9253   13.8866   34.6339 H   0  0  0  0  0  0  0  0  0  0  0  0
    9.7310   12.2256   30.7662 H   0  0  0  0  0  0  0  0  0  0  0  0
   18.1425   14.5721   38.6765 H   0  0  0  0  0  0  0  0  0  0  0  0
   15.9219   13.6072   39.5138 H   0  0  0  0  0  0  0  0  0  0  0  0
   14.7474   13.2528   38.4360 H   0  0  0  0  0  0  0  0  0  0  0  0
   14.8354   16.1983   36.9000 H   0  0  0  0  0  0  0  0  0  0  0  0
   15.6763   15.9191   39.0313 H   0  0  0  0  0  0  0  0  0  0  0  0
  1  9  1  0  0  0  0
  1 23  1  0  0  0  0
  2 21  1  0  0  0  0
  3 22  1  0  0  0  0
  4 10  1  0  0  0  0
  4 11  1  0  0  0  0
  5 21  2  0  0  0  0
  5 24  1  0  0  0  0
  6 22  2  0  0  0  0
  6 25  1  0  0  0  0
  7 26  1  0  0  0  0
  8 27  1  0  0  0  0
  9 12  1  0  0  0  0
 10 23  1  0  0  0  0
 11 28  1  0  0  0  0
 12 13  1  0  0  0  0
 13 14  1  0  0  0  0
 14 15  1  0  0  0  0
 15 24  1  0  0  0  0
 16 21  1  0  0  0  0
 16 26  2  0  0  0  0
 17 22  1  0  0  0  0
 17 27  2  0  0  0  0
 18 24  2  0  0  0  0
 18 26  1  0  0  0  0
 19 25  2  0  0  0  0
 19 27  1  0  0  0  0
 20 25  1  0  0  0  0
 20 28  1  0  0  0  0
 23 28  1  0  0  0  0
  2 29  1  0  0  0  0
  2 30  1  0  0  0  0
  3 31  1  0  0  0  0
  3 32  1  0  0  0  0
  4 33  1  0  0  0  0
  7 34  1  0  0  0  0
  7 35  1  0  0  0  0
  7 36  1  0  0  0  0
  8 37  1  0  0  0  0
  8 38  1  0  0  0  0
  8 39  1  0  0  0  0
  9 40  1  0  0  0  0
  9 41  1  0  0  0  0
 10 42  1  0  0  0  0
 10 43  1  0  0  0  0
 11 44  1  0  0  0  0
 11 45  1  0  0  0  0
 12 46  1  0  0  0  0
 12 47  1  0  0  0  0
 13 48  1  0  0  0  0
 13 49  1  0  0  0  0
 14 50  1  0  0  0  0
 14 51  1  0  0  0  0
 15 52  1  0  0  0  0
 15 53  1  0  0  0  0
 16 54  1  0  0  0  0
 17 55  1  0  0  0  0
 18 56  1  0  0  0  0
 19 57  1  0  0  0  0
 20 58  1  0  0  0  0
 20 59  1  0  0  0  0
 23 60  1  0  0  0  0
 28 61  1  0  0  0  0
M  END
> <pdb_id>
4CX2

> <uniprot_id>
P29473

> <usmiles>
O([C@@H]1[C@@H](CNC1)Cc2nc(N)cc(c2)C)CCCCCc3nc(N)cc(c3)C

$$$$
HWE_A_102
          07212403313D 1   1.00000     0.00000     0
            
 80 81  0  0  0  0            999 V2000
   10.3873   14.2845    6.0528 O   0  0  0  0  0  0  0  0  0  0  0  0
    8.2079   16.6094    7.4944 O   0  0  0  0  0  0  0  0  0  0  0  0
    5.8759   19.2434    8.0636 O   0  0  0  0  0  0  0  0  0  0  0  0
   12.2014   18.7868    6.7112 O   0  0  0  0  0  0  0  0  0  0  0  0
    4.9541   17.3873    9.0271 N   0  0  0  0  0  0  0  0  0  0  0  0
   11.7810   16.1078    5.9576 N   0  0  0  0  0  0  0  0  0  0  0  0
    8.3385   18.4508    8.8132 N   0  0  0  0  0  0  0  0  0  0  0  0
    6.2584   18.0544   11.9926 C   0  0  0  0  0  0  0  0  0  0  0  0
    6.8881   20.2472   10.9244 C   0  0  0  0  0  0  0  0  0  0  0  0
    3.6343   17.4699    8.4031 C   0  0  0  0  0  0  0  0  0  0  0  0
    3.5279   16.3808    7.3549 C   0  0  0  0  0  0  0  0  0  0  0  0
    4.4902   16.4099    6.1728 C   0  0  0  0  0  0  0  0  0  0  0  0
    4.2522   17.6037    5.2789 C   0  0  0  0  0  0  0  0  0  0  0  0
    5.0862   17.5951    4.0256 C   0  0  0  0  0  0  0  0  0  0  0  0
    6.5549   17.6920    4.2471 C   0  0  0  0  0  0  0  0  0  0  0  0
    7.3878   17.7854    2.9610 C   0  0  0  0  0  0  0  0  0  0  0  0
    8.1697   16.5575    2.5583 C   0  0  0  0  0  0  0  0  0  0  0  0
    9.3129   16.3198    3.4958 C   0  0  0  0  0  0  0  0  0  0  0  0
   14.4008   12.2226    8.3142 C   0  0  0  0  0  0  0  0  0  0  0  0
   10.0935   15.0717    3.1611 C   0  0  0  0  0  0  0  0  0  0  0  0
   13.0958   12.4961    8.6856 C   0  0  0  0  0  0  0  0  0  0  0  0
   15.2142   13.2765    7.9080 C   0  0  0  0  0  0  0  0  0  0  0  0
   11.3913   14.8911    3.9158 C   0  0  0  0  0  0  0  0  0  0  0  0
   12.6062   13.8174    8.6138 C   0  0  0  0  0  0  0  0  0  0  0  0
   14.7114   14.5770    7.8031 C   0  0  0  0  0  0  0  0  0  0  0  0
    9.8708   18.2845    6.8852 C   0  0  0  0  0  0  0  0  0  0  0  0
   12.9484   16.2446    8.1189 C   0  0  0  0  0  0  0  0  0  0  0  0
   11.1355   15.0634    5.3910 C   0  0  0  0  0  0  0  0  0  0  0  0
    8.7213   17.7306    7.7211 C   0  0  0  0  0  0  0  0  0  0  0  0
    5.9529   18.2722    8.8307 C   0  0  0  0  0  0  0  0  0  0  0  0
   11.2508   17.9785    7.4478 C   0  0  1  0  0  0  0  0  0  0  0  0
   11.6509   16.4632    7.3392 C   0  0  1  0  0  0  0  0  0  0  0  0
    7.1904   18.7763   11.0178 C   0  0  0  0  0  0  0  0  0  0  0  0
   13.4063   14.8355    8.1695 C   0  0  0  0  0  0  0  0  0  0  0  0
    7.2422   18.0365    9.6574 C   0  0  2  0  0  0  0  0  0  0  0  0
   13.1242   18.6121    7.0545 H   0  0  0  0  0  0  0  0  0  0  0  0
    5.1287   16.6197    9.6438 H   0  0  0  0  0  0  0  0  0  0  0  0
   12.3816   16.6619    5.3811 H   0  0  0  0  0  0  0  0  0  0  0  0
    8.8317   19.2915    9.0367 H   0  0  0  0  0  0  0  0  0  0  0  0
    6.4949   17.0832   12.0225 H   0  0  0  0  0  0  0  0  0  0  0  0
    6.3592   18.4503   12.9053 H   0  0  0  0  0  0  0  0  0  0  0  0
    5.3118   18.1577   11.6871 H   0  0  0  0  0  0  0  0  0  0  0  0
    7.5192   20.6768   10.2786 H   0  0  0  0  0  0  0  0  0  0  0  0
    5.9484   20.3748   10.6072 H   0  0  0  0  0  0  0  0  0  0  0  0
    6.9958   20.6674   11.8254 H   0  0  0  0  0  0  0  0  0  0  0  0
    3.5206   18.3650    7.9721 H   0  0  0  0  0  0  0  0  0  0  0  0
    2.9251   17.3412    9.0963 H   0  0  0  0  0  0  0  0  0  0  0  0
    2.6010   16.4204    6.9816 H   0  0  0  0  0  0  0  0  0  0  0  0
    3.6618   15.5072    7.8227 H   0  0  0  0  0  0  0  0  0  0  0  0
    4.3676   15.5751    5.6361 H   0  0  0  0  0  0  0  0  0  0  0  0
    5.4271   16.4483    6.5201 H   0  0  0  0  0  0  0  0  0  0  0  0
    4.4664   18.4329    5.7953 H   0  0  0  0  0  0  0  0  0  0  0  0
    3.2873   17.6145    5.0164 H   0  0  0  0  0  0  0  0  0  0  0  0
    4.8057   18.3712    3.4609 H   0  0  0  0  0  0  0  0  0  0  0  0
    4.9018   16.7427    3.5362 H   0  0  0  0  0  0  0  0  0  0  0  0
    6.8490   16.8801    4.7514 H   0  0  0  0  0  0  0  0  0  0  0  0
    6.7348   18.5085    4.7957 H   0  0  0  0  0  0  0  0  0  0  0  0
    8.0409   18.5335    3.0785 H   0  0  0  0  0  0  0  0  0  0  0  0
    6.7623   18.0036    2.2119 H   0  0  0  0  0  0  0  0  0  0  0  0
    8.5265   16.6856    1.6329 H   0  0  0  0  0  0  0  0  0  0  0  0
    7.5625   15.7630    2.5745 H   0  0  0  0  0  0  0  0  0  0  0  0
    8.9518   16.2316    4.4242 H   0  0  0  0  0  0  0  0  0  0  0  0
    9.9309   17.1048    3.4517 H   0  0  0  0  0  0  0  0  0  0  0  0
   14.7522   11.2866    8.3373 H   0  0  0  0  0  0  0  0  0  0  0  0
   10.3062   15.0946    2.1842 H   0  0  0  0  0  0  0  0  0  0  0  0
    9.5112   14.2828    3.3570 H   0  0  0  0  0  0  0  0  0  0  0  0
   12.5008   11.7582    9.0044 H   0  0  0  0  0  0  0  0  0  0  0  0
   16.1737   13.1007    7.6876 H   0  0  0  0  0  0  0  0  0  0  0  0
   12.0542   15.5743    3.6094 H   0  0  0  0  0  0  0  0  0  0  0  0
   11.7533   13.9749    3.7440 H   0  0  0  0  0  0  0  0  0  0  0  0
   11.6651   14.0122    8.8903 H   0  0  0  0  0  0  0  0  0  0  0  0
   15.2943   15.3157    7.4645 H   0  0  0  0  0  0  0  0  0  0  0  0
    9.7679   19.2775    6.8283 H   0  0  0  0  0  0  0  0  0  0  0  0
    9.8109   17.8900    5.9682 H   0  0  0  0  0  0  0  0  0  0  0  0
   12.8059   16.5604    9.0569 H   0  0  0  0  0  0  0  0  0  0  0  0
   13.6670   16.7910    7.6887 H   0  0  0  0  0  0  0  0  0  0  0  0
   11.2741   18.2499    8.4100 H   0  0  0  0  0  0  0  0  0  0  0  0
   10.9284   15.9072    7.7500 H   0  0  0  0  0  0  0  0  0  0  0  0
    8.1086   18.7057   11.4076 H   0  0  0  0  0  0  0  0  0  0  0  0
    7.3309   17.0561    9.8332 H   0  0  0  0  0  0  0  0  0  0  0  0
  1 28  2  0  0  0  0
  2 29  2  0  0  0  0
  3 30  2  0  0  0  0
  4 31  1  0  0  0  0
  5 10  1  0  0  0  0
  5 30  1  0  0  0  0
  6 28  1  0  0  0  0
  6 32  1  0  0  0  0
  7 29  1  0  0  0  0
  7 35  1  0  0  0  0
  8 33  1  0  0  0  0
  9 33  1  0  0  0  0
 10 11  1  0  0  0  0
 11 12  1  0  0  0  0
 12 13  1  0  0  0  0
 13 14  1  0  0  0  0
 14 15  1  0  0  0  0
 15 16  1  0  0  0  0
 16 17  1  0  0  0  0
 17 18  1  0  0  0  0
 18 20  1  0  0  0  0
 19 21  2  0  0  0  0
 19 22  1  0  0  0  0
 20 23  1  0  0  0  0
 21 24  1  0  0  0  0
 22 25  2  0  0  0  0
 23 28  1  0  0  0  0
 24 34  2  0  0  0  0
 25 34  1  0  0  0  0
 26 29  1  0  0  0  0
 26 31  1  0  0  0  0
 27 32  1  0  0  0  0
 27 34  1  0  0  0  0
 30 35  1  0  0  0  0
 31 32  1  0  0  0  0
 33 35  1  0  0  0  0
  4 36  1  0  0  0  0
  5 37  1  0  0  0  0
  6 38  1  0  0  0  0
  7 39  1  0  0  0  0
  8 40  1  0  0  0  0
  8 41  1  0  0  0  0
  8 42  1  0  0  0  0
  9 43  1  0  0  0  0
  9 44  1  0  0  0  0
  9 45  1  0  0  0  0
 10 46  1  0  0  0  0
 10 47  1  0  0  0  0
 11 48  1  0  0  0  0
 11 49  1  0  0  0  0
 12 50  1  0  0  0  0
 12 51  1  0  0  0  0
 13 52  1  0  0  0  0
 13 53  1  0  0  0  0
 14 54  1  0  0  0  0
 14 55  1  0  0  0  0
 15 56  1  0  0  0  0
 15 57  1  0  0  0  0
 16 58  1  0  0  0  0
 16 59  1  0  0  0  0
 17 60  1  0  0  0  0
 17 61  1  0  0  0  0
 18 62  1  0  0  0  0
 18 63  1  0  0  0  0
 19 64  1  0  0  0  0
 20 65  1  0  0  0  0
 20 66  1  0  0  0  0
 21 67  1  0  0  0  0
 22 68  1  0  0  0  0
 23 69  1  0  0  0  0
 23 70  1  0  0  0  0
 24 71  1  0  0  0  0
 25 72  1  0  0  0  0
 26 73  1  0  0  0  0
 26 74  1  0  0  0  0
 27 75  1  0  0  0  0
 27 76  1  0  0  0  0
 31 77  1  0  0  0  0
 32 78  1  0  0  0  0
 33 79  1  0  0  0  0
 35 80  1  0  0  0  0
M  END
> <pdb_id>
6QCB

> <uniprot_id>
P07339

> <usmiles>
O=C1NCCCCCCCCCCCC(=O)N[C@H]([C@@H](O)CC(=O)N[C@H]1C(C)C)Cc2ccccc2

$$$$
HWH_A_520
          07202416263D 1   1.00000     0.00000     0
            
 29 30  0  0  0  0            999 V2000
   26.1282   69.3057   70.9359 F   0  0  0  0  0  0  0  0  0  0  0  0
   27.8013   65.0963   69.4347 O   0  0  0  0  0  0  0  0  0  0  0  0
   28.3388   64.4999   71.5234 N   0  0  0  0  0  0  0  0  0  0  0  0
   29.9875   67.6604   74.3945 N   0  0  0  0  0  0  0  0  0  0  0  0
   26.0092   64.7836   70.9751 C   0  0  0  0  0  0  0  0  0  0  0  0
   29.7708   64.4407   71.2848 C   0  0  0  0  0  0  0  0  0  0  0  0
   30.6459   66.7560   73.6086 C   0  0  0  0  0  0  0  0  0  0  0  0
   30.4437   65.8084   71.2322 C   0  0  0  0  0  0  0  0  0  0  0  0
   27.0535   69.5118   73.0948 C   0  0  0  0  0  0  0  0  0  0  0  0
   27.9961   69.1521   74.0329 C   0  0  0  0  0  0  0  0  0  0  0  0
   27.9983   67.9882   71.4611 C   0  0  0  0  0  0  0  0  0  0  0  0
   27.4521   64.8055   70.5751 C   0  0  0  0  0  0  0  0  0  0  0  0
   27.0780   68.9262   71.8359 C   0  0  0  0  0  0  0  0  0  0  0  0
   28.9473   68.2019   73.6811 C   0  0  0  0  0  0  0  0  0  0  0  0
   30.0595   66.6867   72.3822 C   0  0  0  0  0  0  0  0  0  0  0  0
   28.9628   67.6104   72.4042 C   0  0  0  0  0  0  0  0  0  0  0  0
   28.0015   64.3016   72.4437 H   0  0  0  0  0  0  0  0  0  0  0  0
   30.2256   67.8906   75.3380 H   0  0  0  0  0  0  0  0  0  0  0  0
   25.9341   64.5248   71.9381 H   0  0  0  0  0  0  0  0  0  0  0  0
   25.6126   65.6919   70.8422 H   0  0  0  0  0  0  0  0  0  0  0  0
   25.5173   64.1195   70.4121 H   0  0  0  0  0  0  0  0  0  0  0  0
   29.9260   63.9793   70.4113 H   0  0  0  0  0  0  0  0  0  0  0  0
   30.1914   63.9107   72.0212 H   0  0  0  0  0  0  0  0  0  0  0  0
   31.4425   66.2228   73.8933 H   0  0  0  0  0  0  0  0  0  0  0  0
   30.1796   66.2621   70.3811 H   0  0  0  0  0  0  0  0  0  0  0  0
   31.4350   65.6778   71.2467 H   0  0  0  0  0  0  0  0  0  0  0  0
   26.3551   70.1914   73.3193 H   0  0  0  0  0  0  0  0  0  0  0  0
   27.9959   69.5642   74.9440 H   0  0  0  0  0  0  0  0  0  0  0  0
   27.9838   67.5858   70.5457 H   0  0  0  0  0  0  0  0  0  0  0  0
  1 13  1  0  0  0  0
  2 12  2  0  0  0  0
  3  6  1  0  0  0  0
  3 12  1  0  0  0  0
  4  7  1  0  0  0  0
  4 14  1  0  0  0  0
  5 12  1  0  0  0  0
  6  8  1  0  0  0  0
  7 15  2  0  0  0  0
  8 15  1  0  0  0  0
  9 10  1  0  0  0  0
  9 13  2  0  0  0  0
 10 14  2  0  0  0  0
 11 13  1  0  0  0  0
 11 16  2  0  0  0  0
 14 16  1  0  0  0  0
 15 16  1  0  0  0  0
  3 17  1  0  0  0  0
  4 18  1  0  0  0  0
  5 19  1  0  0  0  0
  5 20  1  0  0  0  0
  5 21  1  0  0  0  0
  6 22  1  0  0  0  0
  6 23  1  0  0  0  0
  7 24  1  0  0  0  0
  8 25  1  0  0  0  0
  8 26  1  0  0  0  0
  9 27  1  0  0  0  0
 10 28  1  0  0  0  0
 11 29  1  0  0  0  0
M  END
> <pdb_id>
6TR7

> <uniprot_id>
Q6P988

> <usmiles>
Fc1cc2c(NC=C2CCNC(=O)C)cc1

$$$$
HWM_A_203
          07202403273D 1   1.00000     0.00000     0
            
 31 33  0  0  0  0            999 V2000
    9.8855   21.9173   -8.3172 O   0  0  0  0  0  0  0  0  0  0  0  0
    8.9832   19.5110   -8.9688 O   0  0  0  0  0  0  0  0  0  0  0  0
   13.2769   26.6719  -16.9886 N   0  0  0  0  0  0  0  0  0  0  0  0
   14.2681   26.8426  -16.1533 N   0  0  0  0  0  0  0  0  0  0  0  0
   12.4024   25.8083  -16.4862 N   0  0  0  0  0  0  0  0  0  0  0  0
   14.0779   26.1350  -15.0838 N   0  0  0  0  0  0  0  0  0  0  0  0
   10.7883   21.7405  -11.8272 N   0  0  0  0  0  0  0  0  0  0  0  0
   10.5384   19.9313  -13.4148 C   0  0  0  0  0  0  0  0  0  0  0  0
   10.5879   22.2497  -10.5574 C   0  0  0  0  0  0  0  0  0  0  0  0
   10.5202   23.2213  -13.6507 C   0  0  0  0  0  0  0  0  0  0  0  0
   12.6449   23.0411  -12.5864 C   0  0  0  0  0  0  0  0  0  0  0  0
   11.0166   24.1886  -14.5422 C   0  0  0  0  0  0  0  0  0  0  0  0
   13.1498   24.0111  -13.4508 C   0  0  0  0  0  0  0  0  0  0  0  0
    9.7401   19.6796  -11.1615 C   0  0  0  0  0  0  0  0  0  0  0  0
   12.9066   25.4972  -15.2774 C   0  0  0  0  0  0  0  0  0  0  0  0
   10.0085   21.4650   -9.5931 C   0  0  0  0  0  0  0  0  0  0  0  0
    9.5446   20.1706   -9.8667 C   0  0  0  0  0  0  0  0  0  0  0  0
   10.3624   20.4671  -12.1322 C   0  0  0  0  0  0  0  0  0  0  0  0
   11.3407   22.6240  -12.6843 C   0  0  0  0  0  0  0  0  0  0  0  0
   12.3556   24.6112  -14.4299 C   0  0  0  0  0  0  0  0  0  0  0  0
    9.4618   21.3388   -7.6202 H   0  0  0  0  0  0  0  0  0  0  0  0
   13.1901   27.1253  -17.8757 H   0  0  0  0  0  0  0  0  0  0  0  0
   10.1679   19.0029  -13.4419 H   0  0  0  0  0  0  0  0  0  0  0  0
   10.0595   20.5010  -14.0826 H   0  0  0  0  0  0  0  0  0  0  0  0
   11.5135   19.9076  -13.6352 H   0  0  0  0  0  0  0  0  0  0  0  0
   10.8644   23.1865  -10.3429 H   0  0  0  0  0  0  0  0  0  0  0  0
    9.5585   22.9530  -13.7076 H   0  0  0  0  0  0  0  0  0  0  0  0
   13.2396   22.6446  -11.8870 H   0  0  0  0  0  0  0  0  0  0  0  0
   10.4241   24.5732  -15.2500 H   0  0  0  0  0  0  0  0  0  0  0  0
   14.1079   24.2849  -13.3674 H   0  0  0  0  0  0  0  0  0  0  0  0
    9.4318   18.7572  -11.3941 H   0  0  0  0  0  0  0  0  0  0  0  0
  1 16  1  0  0  0  0
  2 17  2  0  0  0  0
  3  4  1  0  0  0  0
  3  5  1  0  0  0  0
  4  6  2  0  0  0  0
  5 15  2  0  0  0  0
  6 15  1  0  0  0  0
  7  9  1  0  0  0  0
  7 18  1  0  0  0  0
  7 19  1  0  0  0  0
  8 18  1  0  0  0  0
  9 16  2  0  0  0  0
 10 12  1  0  0  0  0
 10 19  2  0  0  0  0
 11 13  2  0  0  0  0
 11 19  1  0  0  0  0
 12 20  2  0  0  0  0
 13 20  1  0  0  0  0
 14 17  1  0  0  0  0
 14 18  2  0  0  0  0
 15 20  1  0  0  0  0
 16 17  1  0  0  0  0
  1 21  1  0  0  0  0
  3 22  1  0  0  0  0
  8 23  1  0  0  0  0
  8 24  1  0  0  0  0
  8 25  1  0  0  0  0
  9 26  1  0  0  0  0
 10 27  1  0  0  0  0
 11 28  1  0  0  0  0
 12 29  1  0  0  0  0
 13 30  1  0  0  0  0
 14 31  1  0  0  0  0
M  END
> <pdb_id>
6E6X

> <uniprot_id>
C3W5S0

> <usmiles>
O=C1C(O)=CN(c2ccc(cc2)C=3N=NNN3)C(=C1)C

$$$$
HXY_S_2047
          07192420503D 1   1.00000     0.00000     0
            
 27 28  0  0  0  0            999 V2000
   -3.5380  -39.9762   42.0701 Br  0  0  0  0  0  0  0  0  0  0  0  0
   -0.1473  -36.0111   46.5587 N   0  0  0  0  0  0  0  0  0  0  0  0
    1.0905  -36.3400   45.8448 C   0  0  0  0  0  0  0  0  0  0  0  0
    0.2650  -34.9959   47.5363 C   0  0  0  0  0  0  0  0  0  0  0  0
   -1.1994  -35.5245   45.6591 C   0  0  0  0  0  0  0  0  0  0  0  0
    2.1389  -36.3659   46.9318 C   0  0  0  0  0  0  0  0  0  0  0  0
    1.6294  -35.4641   47.9984 C   0  0  0  0  0  0  0  0  0  0  0  0
   -3.0758  -38.6179   44.5224 C   0  0  0  0  0  0  0  0  0  0  0  0
   -2.0610  -37.5982   42.6036 C   0  0  0  0  0  0  0  0  0  0  0  0
   -2.5104  -37.6453   45.3264 C   0  0  0  0  0  0  0  0  0  0  0  0
   -1.5734  -36.5867   43.4100 C   0  0  0  0  0  0  0  0  0  0  0  0
   -2.8141  -38.6060   43.1736 C   0  0  0  0  0  0  0  0  0  0  0  0
   -1.7778  -36.6037   44.7800 C   0  0  0  0  0  0  0  0  0  0  0  0
    1.3035  -35.6420   45.1612 H   0  0  0  0  0  0  0  0  0  0  0  0
    1.0180  -37.2322   45.3989 H   0  0  0  0  0  0  0  0  0  0  0  0
   -0.3765  -34.9592   48.3025 H   0  0  0  0  0  0  0  0  0  0  0  0
    0.3249  -34.0941   47.1083 H   0  0  0  0  0  0  0  0  0  0  0  0
   -0.8123  -34.8118   45.0740 H   0  0  0  0  0  0  0  0  0  0  0  0
   -1.9365  -35.1372   46.2129 H   0  0  0  0  0  0  0  0  0  0  0  0
    3.0140  -36.0324   46.5810 H   0  0  0  0  0  0  0  0  0  0  0  0
    2.2534  -37.2945   47.2847 H   0  0  0  0  0  0  0  0  0  0  0  0
    1.5516  -35.9594   48.8637 H   0  0  0  0  0  0  0  0  0  0  0  0
    2.2431  -34.6833   48.1152 H   0  0  0  0  0  0  0  0  0  0  0  0
   -3.6674  -39.3208   44.9174 H   0  0  0  0  0  0  0  0  0  0  0  0
   -1.8713  -37.6001   41.6217 H   0  0  0  0  0  0  0  0  0  0  0  0
   -2.6322  -37.6944   46.3177 H   0  0  0  0  0  0  0  0  0  0  0  0
   -1.0649  -35.8307   42.9978 H   0  0  0  0  0  0  0  0  0  0  0  0
  1 12  1  0  0  0  0
  2  3  1  0  0  0  0
  2  4  1  0  0  0  0
  2  5  1  0  0  0  0
  3  6  1  0  0  0  0
  4  7  1  0  0  0  0
  5 13  1  0  0  0  0
  6  7  1  0  0  0  0
  8 10  2  0  0  0  0
  8 12  1  0  0  0  0
  9 11  1  0  0  0  0
  9 12  2  0  0  0  0
 10 13  1  0  0  0  0
 11 13  2  0  0  0  0
  3 14  1  0  0  0  0
  3 15  1  0  0  0  0
  4 16  1  0  0  0  0
  4 17  1  0  0  0  0
  5 18  1  0  0  0  0
  5 19  1  0  0  0  0
  6 20  1  0  0  0  0
  6 21  1  0  0  0  0
  7 22  1  0  0  0  0
  7 23  1  0  0  0  0
  8 24  1  0  0  0  0
  9 25  1  0  0  0  0
 10 26  1  0  0  0  0
 11 27  1  0  0  0  0
M  END
> <pdb_id>
4URX

> <uniprot_id>
Q07889

> <usmiles>
Brc1ccc(cc1)CN2CCCC2

$$$$
HY7_A_1308
          07192419233D 1   1.00000     0.00000     0
            
 40 43  0  0  0  0            999 V2000
  -21.9568   40.0119   -0.4104 Br  0  0  0  0  0  0  0  0  0  0  0  0
  -15.9381   34.6282    2.5582 O   0  0  0  0  0  0  0  0  0  0  0  0
  -17.9813   36.7924    2.4228 O   0  0  0  0  0  0  0  0  0  0  0  0
  -16.4721   34.1790    0.4172 N   0  0  0  0  0  0  0  0  0  0  0  0
  -17.9755   35.4714   -0.7632 N   0  0  0  0  0  0  0  0  0  0  0  0
  -12.7528   33.7224   -2.7888 N   0  0  0  0  0  0  0  0  0  0  0  0
  -15.5073   33.5517   -2.5084 N   0  0  0  0  0  0  0  0  0  0  0  0
  -11.5044   33.6232   -3.6165 C   0  0  0  0  0  0  0  0  0  0  0  0
  -13.3078   32.3798   -2.4397 C   0  0  0  0  0  0  0  0  0  0  0  0
  -13.6297   34.5863   -3.6366 C   0  0  0  0  0  0  0  0  0  0  0  0
  -14.6884   32.6184   -1.7275 C   0  0  0  0  0  0  0  0  0  0  0  0
  -14.8963   34.8964   -2.8098 C   0  0  0  0  0  0  0  0  0  0  0  0
  -16.8625   33.6779   -1.9443 C   0  0  0  0  0  0  0  0  0  0  0  0
  -20.5267   39.3089    1.9133 C   0  0  0  0  0  0  0  0  0  0  0  0
  -19.5838   38.6124    2.6678 C   0  0  0  0  0  0  0  0  0  0  0  0
  -20.0664   37.9382   -0.1494 C   0  0  0  0  0  0  0  0  0  0  0  0
  -16.6126   34.9072    1.5547 C   0  0  0  0  0  0  0  0  0  0  0  0
  -20.7036   38.9391    0.5470 C   0  0  0  0  0  0  0  0  0  0  0  0
  -17.0893   34.5295   -0.7355 C   0  0  0  0  0  0  0  0  0  0  0  0
  -18.9495   37.6144    1.9644 C   0  0  0  0  0  0  0  0  0  0  0  0
  -17.6064   35.9049    1.5244 C   0  0  0  0  0  0  0  0  0  0  0  0
  -18.2692   36.2090    0.3539 C   0  0  0  0  0  0  0  0  0  0  0  0
  -19.1235   37.2753    0.6231 C   0  0  0  0  0  0  0  0  0  0  0  0
  -15.8968   33.3612    0.4314 H   0  0  0  0  0  0  0  0  0  0  0  0
  -11.1693   34.5418   -3.8258 H   0  0  0  0  0  0  0  0  0  0  0  0
  -10.8055   33.1216   -3.1067 H   0  0  0  0  0  0  0  0  0  0  0  0
  -11.7067   33.1401   -4.4684 H   0  0  0  0  0  0  0  0  0  0  0  0
  -12.6829   31.9004   -1.8236 H   0  0  0  0  0  0  0  0  0  0  0  0
  -13.4396   31.8373   -3.2693 H   0  0  0  0  0  0  0  0  0  0  0  0
  -13.8779   34.1038   -4.4765 H   0  0  0  0  0  0  0  0  0  0  0  0
  -13.1545   35.4353   -3.8678 H   0  0  0  0  0  0  0  0  0  0  0  0
  -15.1712   31.7468   -1.6426 H   0  0  0  0  0  0  0  0  0  0  0  0
  -14.5288   33.0010   -0.8174 H   0  0  0  0  0  0  0  0  0  0  0  0
  -14.6555   35.3704   -1.9628 H   0  0  0  0  0  0  0  0  0  0  0  0
  -15.5313   35.4601   -3.3382 H   0  0  0  0  0  0  0  0  0  0  0  0
  -17.1649   32.7543   -1.7085 H   0  0  0  0  0  0  0  0  0  0  0  0
  -17.4450   34.0443   -2.6699 H   0  0  0  0  0  0  0  0  0  0  0  0
  -21.0645   40.0480    2.3190 H   0  0  0  0  0  0  0  0  0  0  0  0
  -19.3876   38.8180    3.6265 H   0  0  0  0  0  0  0  0  0  0  0  0
  -20.2607   37.7139   -1.1043 H   0  0  0  0  0  0  0  0  0  0  0  0
  1 18  1  0  0  0  0
  2 17  2  0  0  0  0
  3 20  1  0  0  0  0
  3 21  1  0  0  0  0
  4 17  1  0  0  0  0
  4 19  1  0  0  0  0
  5 19  2  0  0  0  0
  5 22  1  0  0  0  0
  6  8  1  0  0  0  0
  6  9  1  0  0  0  0
  6 10  1  0  0  0  0
  7 11  1  0  0  0  0
  7 12  1  0  0  0  0
  7 13  1  0  0  0  0
  9 11  1  0  0  0  0
 10 12  1  0  0  0  0
 13 19  1  0  0  0  0
 14 15  1  0  0  0  0
 14 18  2  0  0  0  0
 15 20  2  0  0  0  0
 16 18  1  0  0  0  0
 16 23  2  0  0  0  0
 17 21  1  0  0  0  0
 20 23  1  0  0  0  0
 21 22  2  0  0  0  0
 22 23  1  0  0  0  0
  4 24  1  0  0  0  0
  8 25  1  0  0  0  0
  8 26  1  0  0  0  0
  8 27  1  0  0  0  0
  9 28  1  0  0  0  0
  9 29  1  0  0  0  0
 10 30  1  0  0  0  0
 10 31  1  0  0  0  0
 11 32  1  0  0  0  0
 11 33  1  0  0  0  0
 12 34  1  0  0  0  0
 12 35  1  0  0  0  0
 13 36  1  0  0  0  0
 13 37  1  0  0  0  0
 14 38  1  0  0  0  0
 15 39  1  0  0  0  0
 16 40  1  0  0  0  0
M  END
> <pdb_id>
4ALW

> <uniprot_id>
P11309

> <usmiles>
Brc1cc2c(OC=3C(=O)NC(=NC23)CN4CCN(CC4)C)cc1

$$$$
HYI_A_703
          07192418523D 1   1.00000     0.00000     0
            
 33 32  0  0  0  0            999 V2000
  -23.7270   33.0610  -15.7940 S   0  0  0  0  0  0  0  0  0  0  0  0
  -25.2760   29.5090  -21.5410 O   0  0  0  0  0  0  0  0  0  0  0  0
  -19.0770   33.2340  -13.6560 O   0  0  0  0  0  0  0  0  0  0  0  0
  -18.9120   34.1010  -15.7030 O   0  0  0  0  0  0  0  0  0  0  0  0
  -27.1290   29.9760  -19.6110 O   0  0  0  0  0  0  0  0  0  0  0  0
  -25.8740   32.2610  -17.8430 O   0  0  0  0  0  0  0  0  0  0  0  0
  -26.5950   29.6640  -17.0130 O   0  0  0  0  0  0  0  0  0  0  0  0
  -19.8010   30.8490  -14.4560 N   0  0  0  0  0  0  0  0  0  0  0  0
  -24.9820   29.5870  -20.2160 N   0  0  0  0  0  0  0  0  0  0  0  0
  -22.0970   32.6460  -15.0730 C   0  0  0  0  0  0  0  0  0  0  0  0
  -24.3570   31.3860  -16.1740 C   0  0  0  0  0  0  0  0  0  0  0  0
  -21.1040   32.1190  -16.1110 C   0  0  0  0  0  0  0  0  0  0  0  0
  -19.1920   33.1840  -14.9010 C   0  0  0  0  0  0  0  0  0  0  0  0
  -25.9450   29.8160  -19.3250 C   0  0  0  0  0  0  0  0  0  0  0  0
  -24.8770   31.2640  -17.6080 C   0  0  1  0  0  0  0  0  0  0  0  0
  -25.4720   29.8790  -17.8720 C   0  0  1  0  0  0  0  0  0  0  0  0
  -19.7200   31.8800  -15.5000 C   0  0  1  0  0  0  0  0  0  0  0  0
  -24.4385   29.3337  -22.0585 H   0  0  0  0  0  0  0  0  0  0  0  0
  -19.3289   32.4430  -13.0984 H   0  0  0  0  0  0  0  0  0  0  0  0
  -26.2124   32.1795  -18.7805 H   0  0  0  0  0  0  0  0  0  0  0  0
  -26.2973   29.7030  -16.0591 H   0  0  0  0  0  0  0  0  0  0  0  0
  -18.8934   30.7001  -14.0634 H   0  0  0  0  0  0  0  0  0  0  0  0
  -20.4293   31.1498  -13.7385 H   0  0  0  0  0  0  0  0  0  0  0  0
  -24.0374   29.4718  -19.9087 H   0  0  0  0  0  0  0  0  0  0  0  0
  -22.2274   31.9453  -14.3715 H   0  0  0  0  0  0  0  0  0  0  0  0
  -21.7142   33.4695  -14.6544 H   0  0  0  0  0  0  0  0  0  0  0  0
  -25.1037   31.1740  -15.5435 H   0  0  0  0  0  0  0  0  0  0  0  0
  -23.6151   30.7280  -16.0453 H   0  0  0  0  0  0  0  0  0  0  0  0
  -21.0212   32.7883  -16.8494 H   0  0  0  0  0  0  0  0  0  0  0  0
  -21.4487   31.2560  -16.4804 H   0  0  0  0  0  0  0  0  0  0  0  0
  -24.1167   31.4137  -18.2401 H   0  0  0  0  0  0  0  0  0  0  0  0
  -24.7802   29.1755  -17.7092 H   0  0  0  0  0  0  0  0  0  0  0  0
  -19.0944   31.5719  -16.2167 H   0  0  0  0  0  0  0  0  0  0  0  0
  1 10  1  0  0  0  0
  1 11  1  0  0  0  0
  2  9  1  0  0  0  0
  3 13  1  0  0  0  0
  4 13  2  0  0  0  0
  5 14  2  0  0  0  0
  6 15  1  0  0  0  0
  7 16  1  0  0  0  0
  8 17  1  0  0  0  0
  9 14  1  0  0  0  0
 10 12  1  0  0  0  0
 11 15  1  0  0  0  0
 12 17  1  0  0  0  0
 13 17  1  0  0  0  0
 14 16  1  0  0  0  0
 15 16  1  0  0  0  0
  2 18  1  0  0  0  0
  3 19  1  0  0  0  0
  6 20  1  0  0  0  0
  7 21  1  0  0  0  0
  8 22  1  0  0  0  0
  8 23  1  0  0  0  0
  9 24  1  0  0  0  0
 10 25  1  0  0  0  0
 10 26  1  0  0  0  0
 11 27  1  0  0  0  0
 11 28  1  0  0  0  0
 12 29  1  0  0  0  0
 12 30  1  0  0  0  0
 15 31  1  0  0  0  0
 16 32  1  0  0  0  0
 17 33  1  0  0  0  0
M  END
> <pdb_id>
2FQO

> <uniprot_id>
O34667

> <usmiles>
S(C[C@H](O)[C@@H](O)C(=O)NO)CC[C@H](N)C(=O)O

$$$$
HYT_A_403
          07212403373D 1   1.00000     0.00000     0
            
 36 38  0  0  0  0            999 V2000
   31.9526  -12.9141  -21.6197 F   0  0  0  0  0  0  0  0  0  0  0  0
   34.2733  -11.0089  -25.2038 F   0  0  0  0  0  0  0  0  0  0  0  0
   31.2130  -10.4657  -20.7282 F   0  0  0  0  0  0  0  0  0  0  0  0
   33.6081   -8.6053  -24.4595 F   0  0  0  0  0  0  0  0  0  0  0  0
   33.8706  -14.9025  -26.1832 O   0  0  0  0  0  0  0  0  0  0  0  0
   34.4496  -14.0299  -21.9172 O   0  0  0  0  0  0  0  0  0  0  0  0
   34.4190  -17.0877  -25.3920 N   0  0  0  0  0  0  0  0  0  0  0  0
   34.7063  -16.7234  -23.2546 N   0  0  0  0  0  0  0  0  0  0  0  0
   33.5469  -13.2612  -23.9195 N   0  0  0  0  0  0  0  0  0  0  0  0
   34.6939  -17.6309  -24.2019 N   0  0  0  0  0  0  0  0  0  0  0  0
   34.9737  -19.0382  -24.0055 C   0  0  0  0  0  0  0  0  0  0  0  0
   31.5836   -5.4958  -21.2033 C   0  0  0  0  0  0  0  0  0  0  0  0
   32.1731   -6.4114  -20.3675 C   0  0  0  0  0  0  0  0  0  0  0  0
   31.2122   -5.8778  -22.4661 C   0  0  0  0  0  0  0  0  0  0  0  0
   32.4093   -7.6970  -20.8012 C   0  0  0  0  0  0  0  0  0  0  0  0
   31.4236   -7.1440  -22.9398 C   0  0  0  0  0  0  0  0  0  0  0  0
   34.2087  -15.8110  -25.2032 C   0  0  0  0  0  0  0  0  0  0  0  0
   34.2033  -14.2179  -23.0928 C   0  0  0  0  0  0  0  0  0  0  0  0
   32.3369  -11.8385  -22.3078 C   0  0  0  0  0  0  0  0  0  0  0  0
   33.5129  -10.8692  -24.1291 C   0  0  0  0  0  0  0  0  0  0  0  0
   31.9666  -10.5780  -21.8417 C   0  0  0  0  0  0  0  0  0  0  0  0
   33.1527   -9.6263  -23.7032 C   0  0  0  0  0  0  0  0  0  0  0  0
   34.4023  -15.5469  -23.7991 C   0  0  0  0  0  0  0  0  0  0  0  0
   33.1435  -11.9759  -23.4283 C   0  0  0  0  0  0  0  0  0  0  0  0
   32.0330   -8.0597  -22.0959 C   0  0  0  0  0  0  0  0  0  0  0  0
   32.3601   -9.4631  -22.5644 C   0  0  0  0  0  0  0  0  0  0  0  0
   34.3811  -17.5699  -26.2672 H   0  0  0  0  0  0  0  0  0  0  0  0
   33.3612  -13.4939  -24.8742 H   0  0  0  0  0  0  0  0  0  0  0  0
   35.1497  -19.2111  -23.0364 H   0  0  0  0  0  0  0  0  0  0  0  0
   34.1871  -19.5792  -24.3032 H   0  0  0  0  0  0  0  0  0  0  0  0
   35.7776  -19.2962  -24.5415 H   0  0  0  0  0  0  0  0  0  0  0  0
   31.4265   -4.5581  -20.8935 H   0  0  0  0  0  0  0  0  0  0  0  0
   32.4322   -6.1437  -19.4395 H   0  0  0  0  0  0  0  0  0  0  0  0
   30.7711   -5.2073  -23.0625 H   0  0  0  0  0  0  0  0  0  0  0  0
   32.8452   -8.3630  -20.1959 H   0  0  0  0  0  0  0  0  0  0  0  0
   31.1470   -7.4009  -23.8658 H   0  0  0  0  0  0  0  0  0  0  0  0
  1 19  1  0  0  0  0
  2 20  1  0  0  0  0
  3 21  1  0  0  0  0
  4 22  1  0  0  0  0
  5 17  2  0  0  0  0
  6 18  2  0  0  0  0
  7 10  1  0  0  0  0
  7 17  1  0  0  0  0
  8 10  1  0  0  0  0
  8 23  2  0  0  0  0
  9 18  1  0  0  0  0
  9 24  1  0  0  0  0
 10 11  1  0  0  0  0
 12 13  2  0  0  0  0
 12 14  1  0  0  0  0
 13 15  1  0  0  0  0
 14 16  2  0  0  0  0
 15 25  2  0  0  0  0
 16 25  1  0  0  0  0
 17 23  1  0  0  0  0
 18 23  1  0  0  0  0
 19 21  2  0  0  0  0
 19 24  1  0  0  0  0
 20 22  1  0  0  0  0
 20 24  2  0  0  0  0
 21 26  1  0  0  0  0
 22 26  2  0  0  0  0
 25 26  1  0  0  0  0
  7 27  1  0  0  0  0
  9 28  1  0  0  0  0
 11 29  1  0  0  0  0
 11 30  1  0  0  0  0
 11 31  1  0  0  0  0
 12 32  1  0  0  0  0
 13 33  1  0  0  0  0
 14 34  1  0  0  0  0
 15 35  1  0  0  0  0
 16 36  1  0  0  0  0
M  END
> <pdb_id>
5MUT

> <uniprot_id>
Q02127

> <usmiles>
Fc1c(F)c(c(F)c(F)c1NC(=O)C2=NN(NC2=O)C)c3ccccc3

$$$$
HZE_A_508
          07202416163D 1   1.00000     0.00000     0
            
 54 57  0  0  0  0            999 V2000
   22.1780   33.9800   14.0040 F   0  0  0  0  0  0  0  0  0  0  0  0
   20.1100   35.6030   14.6790 F   0  0  0  0  0  0  0  0  0  0  0  0
   18.1610   27.7520   15.5630 O   0  0  0  0  0  0  0  0  0  0  0  0
   16.5100   31.2890   18.3670 O   0  0  0  0  0  0  0  0  0  0  0  0
   16.4090   28.7080   16.6340 N   0  0  0  0  0  0  0  0  0  0  0  0
    9.5680   33.9800   16.9130 N   0  0  0  0  0  0  0  0  0  0  0  0
   19.3760   30.1990   15.1850 N   0  0  0  0  0  0  0  0  0  0  0  0
   12.3710   33.4500   16.9280 N   0  0  0  0  0  0  0  0  0  0  0  0
   16.4930   32.7470   20.3350 C   0  0  0  0  0  0  0  0  0  0  0  0
   17.0610   30.2860   20.4030 C   0  0  0  0  0  0  0  0  0  0  0  0
   10.5210   35.0240   16.4960 C   0  0  0  0  0  0  0  0  0  0  0  0
   10.1480   33.1040   17.9370 C   0  0  0  0  0  0  0  0  0  0  0  0
   11.7830   34.3830   15.9490 C   0  0  0  0  0  0  0  0  0  0  0  0
   11.3900   32.4430   17.3810 C   0  0  0  0  0  0  0  0  0  0  0  0
   14.2140   33.0550   15.3890 C   0  0  0  0  0  0  0  0  0  0  0  0
   15.4740   32.5500   15.1250 C   0  0  0  0  0  0  0  0  0  0  0  0
   20.9210   32.0690   14.4980 C   0  0  0  0  0  0  0  0  0  0  0  0
   18.7920   33.7360   15.2380 C   0  0  0  0  0  0  0  0  0  0  0  0
   14.4200   32.3620   17.6880 C   0  0  0  0  0  0  0  0  0  0  0  0
   17.5350   28.7600   15.9270 C   0  0  0  0  0  0  0  0  0  0  0  0
   21.0340   33.4180   14.4310 C   0  0  0  0  0  0  0  0  0  0  0  0
   19.9640   34.2540   14.7870 C   0  0  0  0  0  0  0  0  0  0  0  0
   16.2000   31.3670   19.7860 C   0  0  0  0  0  0  0  0  0  0  0  0
   15.7010   31.8760   17.4210 C   0  0  0  0  0  0  0  0  0  0  0  0
   13.6710   32.9880   16.6740 C   0  0  0  0  0  0  0  0  0  0  0  0
   19.7240   31.5250   14.9620 C   0  0  0  0  0  0  0  0  0  0  0  0
   18.0820   30.1180   15.6450 C   0  0  0  0  0  0  0  0  0  0  0  0
   16.2180   31.9020   16.1150 C   0  0  0  0  0  0  0  0  0  0  0  0
   18.6540   32.3200   15.3200 C   0  0  0  0  0  0  0  0  0  0  0  0
   17.5980   31.4260   15.7700 C   0  0  0  0  0  0  0  0  0  0  0  0
   15.9463   29.5536   16.9002 H   0  0  0  0  0  0  0  0  0  0  0  0
   16.0255   27.8233   16.8991 H   0  0  0  0  0  0  0  0  0  0  0  0
    9.3197   33.4291   16.1162 H   0  0  0  0  0  0  0  0  0  0  0  0
   19.9792   29.4160   15.0331 H   0  0  0  0  0  0  0  0  0  0  0  0
   16.2713   32.7719   21.3098 H   0  0  0  0  0  0  0  0  0  0  0  0
   17.4624   32.9573   20.2082 H   0  0  0  0  0  0  0  0  0  0  0  0
   15.9389   33.4234   19.8497 H   0  0  0  0  0  0  0  0  0  0  0  0
   16.9122   30.2651   21.3916 H   0  0  0  0  0  0  0  0  0  0  0  0
   16.8157   29.3997   20.0102 H   0  0  0  0  0  0  0  0  0  0  0  0
   18.0240   30.4789   20.2148 H   0  0  0  0  0  0  0  0  0  0  0  0
   10.7535   35.5944   17.2838 H   0  0  0  0  0  0  0  0  0  0  0  0
   10.1025   35.5905   15.7862 H   0  0  0  0  0  0  0  0  0  0  0  0
    9.4825   32.4031   18.1935 H   0  0  0  0  0  0  0  0  0  0  0  0
   10.3893   33.6453   18.7425 H   0  0  0  0  0  0  0  0  0  0  0  0
   11.5589   33.8814   15.1134 H   0  0  0  0  0  0  0  0  0  0  0  0
   12.4488   35.0991   15.7395 H   0  0  0  0  0  0  0  0  0  0  0  0
   11.8066   31.8788   18.0938 H   0  0  0  0  0  0  0  0  0  0  0  0
   11.1334   31.8653   16.6061 H   0  0  0  0  0  0  0  0  0  0  0  0
   13.6851   33.4734   14.6506 H   0  0  0  0  0  0  0  0  0  0  0  0
   15.8603   32.6504   14.2081 H   0  0  0  0  0  0  0  0  0  0  0  0
   21.6784   31.4777   14.2211 H   0  0  0  0  0  0  0  0  0  0  0  0
   18.0398   34.3373   15.5075 H   0  0  0  0  0  0  0  0  0  0  0  0
   14.0323   32.2649   18.6047 H   0  0  0  0  0  0  0  0  0  0  0  0
   15.2349   31.1482   19.9297 H   0  0  0  0  0  0  0  0  0  0  0  0
  1 21  1  0  0  0  0
  2 22  1  0  0  0  0
  3 20  2  0  0  0  0
  4 23  1  0  0  0  0
  4 24  1  0  0  0  0
  5 20  1  0  0  0  0
  6 11  1  0  0  0  0
  6 12  1  0  0  0  0
  7 26  1  0  0  0  0
  7 27  1  0  0  0  0
  8 13  1  0  0  0  0
  8 14  1  0  0  0  0
  8 25  1  0  0  0  0
  9 23  1  0  0  0  0
 10 23  1  0  0  0  0
 11 13  1  0  0  0  0
 12 14  1  0  0  0  0
 15 16  2  0  0  0  0
 15 25  1  0  0  0  0
 16 28  1  0  0  0  0
 17 21  1  0  0  0  0
 17 26  2  0  0  0  0
 18 22  1  0  0  0  0
 18 29  2  0  0  0  0
 19 24  1  0  0  0  0
 19 25  2  0  0  0  0
 20 27  1  0  0  0  0
 21 22  2  0  0  0  0
 24 28  2  0  0  0  0
 26 29  1  0  0  0  0
 27 30  2  0  0  0  0
 28 30  1  0  0  0  0
 29 30  1  0  0  0  0
  5 31  1  0  0  0  0
  5 32  1  0  0  0  0
  6 33  1  0  0  0  0
  7 34  1  0  0  0  0
  9 35  1  0  0  0  0
  9 36  1  0  0  0  0
  9 37  1  0  0  0  0
 10 38  1  0  0  0  0
 10 39  1  0  0  0  0
 10 40  1  0  0  0  0
 11 41  1  0  0  0  0
 11 42  1  0  0  0  0
 12 43  1  0  0  0  0
 12 44  1  0  0  0  0
 13 45  1  0  0  0  0
 13 46  1  0  0  0  0
 14 47  1  0  0  0  0
 14 48  1  0  0  0  0
 15 49  1  0  0  0  0
 16 50  1  0  0  0  0
 17 51  1  0  0  0  0
 18 52  1  0  0  0  0
 19 53  1  0  0  0  0
 23 54  1  0  0  0  0
M  END
> <pdb_id>
7A16

> <uniprot_id>
P50579

> <usmiles>
Fc1c(F)cc2c(NC(C(=O)N)=C2c3c(OC(C)C)cc(N4CCNCC4)cc3)c1

$$$$
HZQ_A_502
          07202416163D 1   1.00000     0.00000     0
            
 18 19  0  0  0  0            999 V2000
   20.4453   32.8863   15.3811 Cl  0  0  0  0  0  0  0  0  0  0  0  0
   20.5141   26.9891   15.5764 O   0  0  0  0  0  0  0  0  0  0  0  0
   18.0519   28.3396   15.5418 N   0  0  0  0  0  0  0  0  0  0  0  0
   16.8883   28.9763   15.5313 C   0  0  0  0  0  0  0  0  0  0  0  0
   16.7955   30.3762   15.4727 C   0  0  0  0  0  0  0  0  0  0  0  0
   21.6174   30.4679   15.4287 C   0  0  0  0  0  0  0  0  0  0  0  0
   21.6391   29.0719   15.4934 C   0  0  0  0  0  0  0  0  0  0  0  0
   17.9451   31.1251   15.4464 C   0  0  0  0  0  0  0  0  0  0  0  0
   20.4327   31.1536   15.4176 C   0  0  0  0  0  0  0  0  0  0  0  0
   20.4695   28.3471   15.5138 C   0  0  0  0  0  0  0  0  0  0  0  0
   19.2167   29.0156   15.5077 C   0  0  0  0  0  0  0  0  0  0  0  0
   19.1989   30.4515   15.4515 C   0  0  0  0  0  0  0  0  0  0  0  0
   19.6650   26.4611   15.5913 H   0  0  0  0  0  0  0  0  0  0  0  0
   16.0455   28.4392   15.5665 H   0  0  0  0  0  0  0  0  0  0  0  0
   15.9010   30.8227   15.4504 H   0  0  0  0  0  0  0  0  0  0  0  0
   22.4796   30.9730   15.3899 H   0  0  0  0  0  0  0  0  0  0  0  0
   22.5165   28.5933   15.5254 H   0  0  0  0  0  0  0  0  0  0  0  0
   17.9028   32.1239   15.4240 H   0  0  0  0  0  0  0  0  0  0  0  0
  1  9  1  0  0  0  0
  2 10  1  0  0  0  0
  3  4  1  0  0  0  0
  3 11  2  0  0  0  0
  4  5  2  0  0  0  0
  5  8  1  0  0  0  0
  6  7  1  0  0  0  0
  6  9  2  0  0  0  0
  7 10  2  0  0  0  0
  8 12  2  0  0  0  0
  9 12  1  0  0  0  0
 10 11  1  0  0  0  0
 11 12  1  0  0  0  0
  2 13  1  0  0  0  0
  4 14  1  0  0  0  0
  5 15  1  0  0  0  0
  6 16  1  0  0  0  0
  7 17  1  0  0  0  0
  8 18  1  0  0  0  0
M  END
> <pdb_id>
6QEH

> <uniprot_id>
P50579

> <usmiles>
Clc1c2c(nccc2)c(O)cc1

$$$$
HZW_A_507
          07202416163D 1   1.00000     0.00000     0
            
 41 43  0  0  0  0            999 V2000
   16.4740   32.6420   15.2771 Cl  0  0  0  0  0  0  0  0  0  0  0  0
   20.7190   35.3055   14.9062 F   0  0  0  0  0  0  0  0  0  0  0  0
   21.6945   27.7839   14.9571 O   0  0  0  0  0  0  0  0  0  0  0  0
   17.9528   27.8249   16.2911 O   0  0  0  0  0  0  0  0  0  0  0  0
   20.1043   26.0294   16.4120 O   0  0  0  0  0  0  0  0  0  0  0  0
   20.7333   29.5597   15.8999 N   0  0  0  0  0  0  0  0  0  0  0  0
   18.7236   28.1729   18.4222 N   0  0  0  0  0  0  0  0  0  0  0  0
   21.1750   30.4855   14.8706 C   0  0  0  0  0  0  0  0  0  0  0  0
   19.9860   28.1006   19.1692 C   0  0  0  0  0  0  0  0  0  0  0  0
   15.1719   29.1301   20.4247 C   0  0  0  0  0  0  0  0  0  0  0  0
   15.2392   28.0030   19.6414 C   0  0  0  0  0  0  0  0  0  0  0  0
   16.2668   29.9522   20.5406 C   0  0  0  0  0  0  0  0  0  0  0  0
   16.4046   27.6880   18.9680 C   0  0  0  0  0  0  0  0  0  0  0  0
   17.4401   29.6532   19.8727 C   0  0  0  0  0  0  0  0  0  0  0  0
   20.9971   27.4577   18.2310 C   0  0  0  0  0  0  0  0  0  0  0  0
   18.7654   34.0366   15.0415 C   0  0  0  0  0  0  0  0  0  0  0  0
   18.9549   31.6376   14.9915 C   0  0  0  0  0  0  0  0  0  0  0  0
   20.9271   32.9861   14.8140 C   0  0  0  0  0  0  0  0  0  0  0  0
   18.1975   32.7831   15.0825 C   0  0  0  0  0  0  0  0  0  0  0  0
   20.1264   34.0916   14.9109 C   0  0  0  0  0  0  0  0  0  0  0  0
   20.9736   28.2562   15.8191 C   0  0  0  0  0  0  0  0  0  0  0  0
   18.8427   27.8073   17.1140 C   0  0  0  0  0  0  0  0  0  0  0  0
   17.5125   28.5151   19.0855 C   0  0  0  0  0  0  0  0  0  0  0  0
   20.3339   31.7325   14.8662 C   0  0  0  0  0  0  0  0  0  0  0  0
   20.2945   27.3627   16.8602 C   0  0  1  0  0  0  0  0  0  0  0  0
   19.6466   26.0387   15.5230 H   0  0  0  0  0  0  0  0  0  0  0  0
   20.2345   29.9140   16.6909 H   0  0  0  0  0  0  0  0  0  0  0  0
   21.1032   30.0401   13.9781 H   0  0  0  0  0  0  0  0  0  0  0  0
   22.1279   30.7350   15.0429 H   0  0  0  0  0  0  0  0  0  0  0  0
   19.8714   27.5422   19.9908 H   0  0  0  0  0  0  0  0  0  0  0  0
   20.2883   29.0177   19.4290 H   0  0  0  0  0  0  0  0  0  0  0  0
   14.3263   29.3519   20.9102 H   0  0  0  0  0  0  0  0  0  0  0  0
   14.4404   27.4071   19.5581 H   0  0  0  0  0  0  0  0  0  0  0  0
   16.2149   30.7716   21.1115 H   0  0  0  0  0  0  0  0  0  0  0  0
   16.4490   26.8673   18.3984 H   0  0  0  0  0  0  0  0  0  0  0  0
   18.2335   30.2560   19.9575 H   0  0  0  0  0  0  0  0  0  0  0  0
   21.2463   26.5465   18.5588 H   0  0  0  0  0  0  0  0  0  0  0  0
   21.8186   28.0238   18.1631 H   0  0  0  0  0  0  0  0  0  0  0  0
   18.2105   34.8661   15.1040 H   0  0  0  0  0  0  0  0  0  0  0  0
   18.5135   30.7407   15.0157 H   0  0  0  0  0  0  0  0  0  0  0  0
   21.9171   33.0794   14.7079 H   0  0  0  0  0  0  0  0  0  0  0  0
  1 19  1  0  0  0  0
  2 20  1  0  0  0  0
  3 21  2  0  0  0  0
  4 22  2  0  0  0  0
  5 25  1  0  0  0  0
  6  8  1  0  0  0  0
  6 21  1  0  0  0  0
  7  9  1  0  0  0  0
  7 22  1  0  0  0  0
  7 23  1  0  0  0  0
  8 24  1  0  0  0  0
  9 15  1  0  0  0  0
 10 11  2  0  0  0  0
 10 12  1  0  0  0  0
 11 13  1  0  0  0  0
 12 14  2  0  0  0  0
 13 23  2  0  0  0  0
 14 23  1  0  0  0  0
 15 25  1  0  0  0  0
 16 19  2  0  0  0  0
 16 20  1  0  0  0  0
 17 19  1  0  0  0  0
 17 24  2  0  0  0  0
 18 20  2  0  0  0  0
 18 24  1  0  0  0  0
 21 25  1  0  0  0  0
 22 25  1  0  0  0  0
  5 26  1  0  0  0  0
  6 27  1  0  0  0  0
  8 28  1  0  0  0  0
  8 29  1  0  0  0  0
  9 30  1  0  0  0  0
  9 31  1  0  0  0  0
 10 32  1  0  0  0  0
 11 33  1  0  0  0  0
 12 34  1  0  0  0  0
 13 35  1  0  0  0  0
 14 36  1  0  0  0  0
 15 37  1  0  0  0  0
 15 38  1  0  0  0  0
 16 39  1  0  0  0  0
 17 40  1  0  0  0  0
 18 41  1  0  0  0  0
M  END
> <pdb_id>
6QEF

> <uniprot_id>
P50579

> <usmiles>
Clc1cc(F)cc(c1)CNC(=O)[C@]2(O)C(=O)N(c3ccccc3)CC2

$$$$
I1L_A_416
          07202410153D 1   1.00000     0.00000     0
            
 17 17  0  0  0  0            999 V2000
    8.1730    4.4478   18.7989 O   0  0  0  0  0  0  0  0  0  0  0  0
    5.9611    3.8259   17.5826 N   0  3  0  0  0  0  0  0  0  0  0  0
   12.2511    1.9987   17.5024 N   0  0  0  0  0  0  0  0  0  0  0  0
   11.2191    1.4588   18.0601 N   0  0  0  0  0  0  0  0  0  0  0  0
   10.7455    3.4576   17.5623 N   0  0  0  0  0  0  0  0  0  0  0  0
   11.9949    3.2022   17.2018 N   0  0  0  0  0  0  0  0  0  0  0  0
    6.9042    2.9291   17.8076 N   0  0  0  0  0  0  0  0  0  0  0  0
    8.9384    2.1633   18.6453 C   0  0  0  0  0  0  0  0  0  0  0  0
    7.9688    3.3351   18.4340 C   0  0  0  0  0  0  0  0  0  0  0  0
   10.2800    2.3776   18.0421 C   0  0  0  0  0  0  0  0  0  0  0  0
    6.3345    4.5761   17.2074 H   0  0  0  0  0  0  0  0  0  0  0  0
    5.5554    4.0488   18.3755 H   0  0  0  0  0  0  0  0  0  0  0  0
    5.3364    3.4750   17.0084 H   0  0  0  0  0  0  0  0  0  0  0  0
   12.5662    3.7870   16.7977 H   0  0  0  0  0  0  0  0  0  0  0  0
    6.7948    2.0573   17.5632 H   0  0  0  0  0  0  0  0  0  0  0  0
    8.5621    1.3660   18.2214 H   0  0  0  0  0  0  0  0  0  0  0  0
    9.0252    1.9933   19.6047 H   0  0  0  0  0  0  0  0  0  0  0  0
  1  9  2  0  0  0  0
  2  7  1  0  0  0  0
  2 11  1  0  0  0  0
  2 12  1  0  0  0  0
  2 13  1  0  0  0  0
  3  4  2  0  0  0  0
  3  6  1  0  0  0  0
  4 10  1  0  0  0  0
  5  6  1  0  0  0  0
  5 10  2  0  0  0  0
  6 14  1  0  0  0  0
  7  9  1  0  0  0  0
  7 15  1  0  0  0  0
  8  9  1  0  0  0  0
  8 10  1  0  0  0  0
  8 16  1  0  0  0  0
  8 17  1  0  0  0  0
M  CHG  1   2   1
M  END
> <pdb_id>
6ETS

> <uniprot_id>
Q6B0I6

> <usmiles>
O=C(N[NH3+])CC=1N=NNN1

$$$$
I3A_L_1
          07202404193D 1   1.00000     0.00000     0
            
 18 19  0  0  0  0            999 V2000
   91.6200   11.4230   17.4780 O   0  0  0  0  0  0  0  0  0  0  0  0
   88.3230    8.5370   18.8610 N   0  0  0  0  0  0  0  0  0  0  0  0
   90.9450   11.0600   18.4550 C   0  0  0  0  0  0  0  0  0  0  0  0
   89.1400    9.4940   19.3300 C   0  0  0  0  0  0  0  0  0  0  0  0
   88.4290    7.5120   15.2790 C   0  0  0  0  0  0  0  0  0  0  0  0
   89.4340    8.4250   14.8760 C   0  0  0  0  0  0  0  0  0  0  0  0
   87.9680    7.4710   16.6170 C   0  0  0  0  0  0  0  0  0  0  0  0
   90.0180    9.3090   15.8180 C   0  0  0  0  0  0  0  0  0  0  0  0
   88.5460    8.3540   17.5630 C   0  0  0  0  0  0  0  0  0  0  0  0
   89.8860    9.9490   18.3270 C   0  0  0  0  0  0  0  0  0  0  0  0
   89.5630    9.2640   17.1620 C   0  0  0  0  0  0  0  0  0  0  0  0
   87.6490    8.0376   19.4054 H   0  0  0  0  0  0  0  0  0  0  0  0
   91.0918   11.4975   19.3421 H   0  0  0  0  0  0  0  0  0  0  0  0
   89.1809    9.8122   20.2772 H   0  0  0  0  0  0  0  0  0  0  0  0
   88.0377    6.8845   14.6058 H   0  0  0  0  0  0  0  0  0  0  0  0
   89.7332    8.4462   13.9220 H   0  0  0  0  0  0  0  0  0  0  0  0
   87.2488    6.8317   16.8892 H   0  0  0  0  0  0  0  0  0  0  0  0
   90.7343    9.9498   15.5419 H   0  0  0  0  0  0  0  0  0  0  0  0
  1  3  2  0  0  0  0
  2  4  1  0  0  0  0
  2  9  1  0  0  0  0
  3 10  1  0  0  0  0
  4 10  2  0  0  0  0
  5  6  2  0  0  0  0
  5  7  1  0  0  0  0
  6  8  1  0  0  0  0
  7  9  2  0  0  0  0
  8 11  2  0  0  0  0
  9 11  1  0  0  0  0
 10 11  1  0  0  0  0
  2 12  1  0  0  0  0
  3 13  1  0  0  0  0
  4 14  1  0  0  0  0
  5 15  1  0  0  0  0
  6 16  1  0  0  0  0
  7 17  1  0  0  0  0
  8 18  1  0  0  0  0
M  END
> <pdb_id>
3NVZ

> <uniprot_id>
P80457

> <usmiles>
O=CC=1c2c(NC1)cccc2

$$$$
I3K_A_1501
          07192418053D 1   1.00000     0.00000     0
            
 50 54  0  0  0  0            999 V2000
   11.3260   10.9200   18.0435 Cl  0  0  0  0  0  0  0  0  0  0  0  0
    2.0983   19.7903    7.4712 O   0  0  0  0  0  0  0  0  0  0  0  0
    4.5661   19.2438    6.5977 O   0  0  0  0  0  0  0  0  0  0  0  0
    8.8414   10.5698   10.4257 O   0  0  0  0  0  0  0  0  0  0  0  0
    5.9741   14.9114    8.7982 O   0  0  0  0  0  0  0  0  0  0  0  0
    2.1644   15.7765   10.1438 N   0  0  0  0  0  0  0  0  0  0  0  0
    9.6468   10.0506   12.5338 N   0  0  0  0  0  0  0  0  0  0  0  0
    8.3820   12.0689   12.0107 N   0  0  0  0  0  0  0  0  0  0  0  0
    0.7746   20.1257    7.9693 C   0  0  0  0  0  0  0  0  0  0  0  0
    5.9220   18.8897    6.1975 C   0  0  0  0  0  0  0  0  0  0  0  0
    2.7501   14.6774   10.5800 C   0  0  0  0  0  0  0  0  0  0  0  0
    9.5851   11.1107   16.0099 C   0  0  0  0  0  0  0  0  0  0  0  0
   11.6755   10.0069   15.5117 C   0  0  0  0  0  0  0  0  0  0  0  0
    4.0290   14.3367   10.1577 C   0  0  0  0  0  0  0  0  0  0  0  0
    6.9609   12.8649    8.2088 C   0  0  0  0  0  0  0  0  0  0  0  0
    7.6905   11.7386    8.5473 C   0  0  0  0  0  0  0  0  0  0  0  0
    9.1869   10.9113   14.6953 C   0  0  0  0  0  0  0  0  0  0  0  0
   11.2731    9.8117   14.1944 C   0  0  0  0  0  0  0  0  0  0  0  0
    7.1201   13.6376   10.5005 C   0  0  0  0  0  0  0  0  0  0  0  0
    2.1106   17.7625    8.8389 C   0  0  0  0  0  0  0  0  0  0  0  0
    4.6749   17.2114    7.9040 C   0  0  0  0  0  0  0  0  0  0  0  0
    8.9836   10.8956   11.7373 C   0  0  0  0  0  0  0  0  0  0  0  0
   10.8306   10.6588   16.4106 C   0  0  0  0  0  0  0  0  0  0  0  0
    6.6738   13.8099    9.1863 C   0  0  0  0  0  0  0  0  0  0  0  0
    2.7191   18.6507    7.9340 C   0  0  0  0  0  0  0  0  0  0  0  0
    4.0066   18.3687    7.4760 C   0  0  0  0  0  0  0  0  0  0  0  0
    8.1316   11.5696    9.8569 C   0  0  0  0  0  0  0  0  0  0  0  0
    4.7018   15.1760    9.2617 C   0  0  0  0  0  0  0  0  0  0  0  0
   10.0254   10.2739   13.7863 C   0  0  0  0  0  0  0  0  0  0  0  0
    2.7721   16.6111    9.2715 C   0  0  0  0  0  0  0  0  0  0  0  0
    7.8492   12.5056   10.8538 C   0  0  0  0  0  0  0  0  0  0  0  0
    4.0585   16.3343    8.8097 C   0  0  0  0  0  0  0  0  0  0  0  0
    9.8815    9.1592   12.1461 H   0  0  0  0  0  0  0  0  0  0  0  0
    0.4625   20.9739    7.5414 H   0  0  0  0  0  0  0  0  0  0  0  0
    0.1381   19.3868    7.7480 H   0  0  0  0  0  0  0  0  0  0  0  0
    0.8126   20.2470    8.9612 H   0  0  0  0  0  0  0  0  0  0  0  0
    6.2690   19.5727    5.5548 H   0  0  0  0  0  0  0  0  0  0  0  0
    6.5114   18.8620    7.0049 H   0  0  0  0  0  0  0  0  0  0  0  0
    5.9160   17.9914    5.7582 H   0  0  0  0  0  0  0  0  0  0  0  0
    2.2673   14.0823   11.2225 H   0  0  0  0  0  0  0  0  0  0  0  0
    8.9810   11.5740   16.6582 H   0  0  0  0  0  0  0  0  0  0  0  0
   12.5707    9.6798   15.8145 H   0  0  0  0  0  0  0  0  0  0  0  0
    4.4646   13.5003   10.4904 H   0  0  0  0  0  0  0  0  0  0  0  0
    6.6436   12.9974    7.2698 H   0  0  0  0  0  0  0  0  0  0  0  0
    7.8999   11.0490    7.8541 H   0  0  0  0  0  0  0  0  0  0  0  0
    8.2867   11.2296   14.3980 H   0  0  0  0  0  0  0  0  0  0  0  0
   11.8746    9.3438   13.5469 H   0  0  0  0  0  0  0  0  0  0  0  0
    6.9142   14.3317   11.1904 H   0  0  0  0  0  0  0  0  0  0  0  0
    1.1904   17.9584    9.1778 H   0  0  0  0  0  0  0  0  0  0  0  0
    5.5931   17.0111    7.5625 H   0  0  0  0  0  0  0  0  0  0  0  0
  1 23  1  0  0  0  0
  2  9  1  0  0  0  0
  2 25  1  0  0  0  0
  3 10  1  0  0  0  0
  3 26  1  0  0  0  0
  4 22  1  0  0  0  0
  4 27  1  0  0  0  0
  5 24  1  0  0  0  0
  5 28  1  0  0  0  0
  6 11  2  0  0  0  0
  6 30  1  0  0  0  0
  7 22  1  0  0  0  0
  7 29  1  0  0  0  0
  8 22  2  0  0  0  0
  8 31  1  0  0  0  0
 11 14  1  0  0  0  0
 12 17  2  0  0  0  0
 12 23  1  0  0  0  0
 13 18  1  0  0  0  0
 13 23  2  0  0  0  0
 14 28  2  0  0  0  0
 15 16  1  0  0  0  0
 15 24  2  0  0  0  0
 16 27  2  0  0  0  0
 17 29  1  0  0  0  0
 18 29  2  0  0  0  0
 19 24  1  0  0  0  0
 19 31  2  0  0  0  0
 20 25  1  0  0  0  0
 20 30  2  0  0  0  0
 21 26  1  0  0  0  0
 21 32  2  0  0  0  0
 25 26  2  0  0  0  0
 27 31  1  0  0  0  0
 28 32  1  0  0  0  0
 30 32  1  0  0  0  0
  7 33  1  0  0  0  0
  9 34  1  0  0  0  0
  9 35  1  0  0  0  0
  9 36  1  0  0  0  0
 10 37  1  0  0  0  0
 10 38  1  0  0  0  0
 10 39  1  0  0  0  0
 11 40  1  0  0  0  0
 12 41  1  0  0  0  0
 13 42  1  0  0  0  0
 14 43  1  0  0  0  0
 15 44  1  0  0  0  0
 16 45  1  0  0  0  0
 17 46  1  0  0  0  0
 18 47  1  0  0  0  0
 19 48  1  0  0  0  0
 20 49  1  0  0  0  0
 21 50  1  0  0  0  0
M  END
> <pdb_id>
4FNY

> <uniprot_id>
Q9UM73

> <usmiles>
Clc1ccc(NC=2Oc3c(N2)cc(Oc4c5c(ncc4)cc(OC)c(OC)c5)cc3)cc1

$$$$
I4A_A_132
          07202409203D 1   1.00000     0.00000     0
            
 49 52  0  0  0  0            999 V2000
    5.8497    7.6017   14.8259 O   0  0  0  0  0  0  0  0  0  0  0  0
    6.1586    5.4410   15.0923 O   0  0  0  0  0  0  0  0  0  0  0  0
   -0.8559    6.3887   16.9254 O   0  0  0  0  0  0  0  0  0  0  0  0
   -1.1970    4.6496   18.2934 N   0  0  0  0  0  0  0  0  0  0  0  0
    5.2910    7.7067   18.3294 N   0  0  0  0  0  0  0  0  0  0  0  0
    4.6389    8.0241   22.7999 C   0  0  0  0  0  0  0  0  0  0  0  0
    3.8616    7.5549   21.5482 C   0  0  0  0  0  0  0  0  0  0  0  0
    6.1169    7.6923   22.5983 C   0  0  0  0  0  0  0  0  0  0  0  0
    2.9397    4.0788   18.6688 C   0  0  0  0  0  0  0  0  0  0  0  0
    9.3848    7.1396   17.7124 C   0  0  0  0  0  0  0  0  0  0  0  0
    4.0916    7.5567   17.5365 C   0  0  0  0  0  0  0  0  0  0  0  0
    3.7834    5.1647   18.4036 C   0  0  0  0  0  0  0  0  0  0  0  0
    3.9598    8.4484   20.3113 C   0  0  0  0  0  0  0  0  0  0  0  0
    1.5683    4.1745   18.4370 C   0  0  0  0  0  0  0  0  0  0  0  0
    6.8834    8.5780   21.6215 C   0  0  0  0  0  0  0  0  0  0  0  0
    8.5453    6.8551   16.6328 C   0  0  0  0  0  0  0  0  0  0  0  0
    8.8742    7.5764   18.9364 C   0  0  0  0  0  0  0  0  0  0  0  0
    1.8987    6.4325   17.6082 C   0  0  0  0  0  0  0  0  0  0  0  0
    6.3525    6.6961   15.4872 C   0  0  0  0  0  0  0  0  0  0  0  0
   -0.4096    5.4962   17.6520 C   0  0  0  0  0  0  0  0  0  0  0  0
    3.2550    6.3409   17.8674 C   0  0  0  0  0  0  0  0  0  0  0  0
    5.2293    8.1049   19.5967 C   0  0  0  0  0  0  0  0  0  0  0  0
    1.0626    5.3635   17.9034 C   0  0  0  0  0  0  0  0  0  0  0  0
    6.5814    7.4525   17.9873 C   0  0  0  0  0  0  0  0  0  0  0  0
    7.1682    6.9900   16.7025 C   0  0  0  0  0  0  0  0  0  0  0  0
    6.5954    8.1562   20.2102 C   0  0  0  0  0  0  0  0  0  0  0  0
    7.4988    7.7453   19.1134 C   0  0  0  0  0  0  0  0  0  0  0  0
    5.9804    8.5540   15.1015 H   0  0  0  0  0  0  0  0  0  0  0  0
   -0.7996    3.9388   18.8737 H   0  0  0  0  0  0  0  0  0  0  0  0
   -2.1899    4.7201   18.1982 H   0  0  0  0  0  0  0  0  0  0  0  0
    4.2933    7.5504   23.6100 H   0  0  0  0  0  0  0  0  0  0  0  0
    4.5267    9.0108   22.9176 H   0  0  0  0  0  0  0  0  0  0  0  0
    2.8957    7.4865   21.7980 H   0  0  0  0  0  0  0  0  0  0  0  0
    4.2061    6.6501   21.2979 H   0  0  0  0  0  0  0  0  0  0  0  0
    6.1748    6.7511   22.2653 H   0  0  0  0  0  0  0  0  0  0  0  0
    6.5680    7.7593   23.4882 H   0  0  0  0  0  0  0  0  0  0  0  0
    3.3240    3.2280   19.0274 H   0  0  0  0  0  0  0  0  0  0  0  0
   10.3729    7.0280   17.6064 H   0  0  0  0  0  0  0  0  0  0  0  0
    4.3606    7.4959   16.5753 H   0  0  0  0  0  0  0  0  0  0  0  0
    3.5254    8.3695   17.6734 H   0  0  0  0  0  0  0  0  0  0  0  0
    4.7621    5.0979   18.5977 H   0  0  0  0  0  0  0  0  0  0  0  0
    3.9740    9.4097   20.5866 H   0  0  0  0  0  0  0  0  0  0  0  0
    3.1769    8.2852   19.7110 H   0  0  0  0  0  0  0  0  0  0  0  0
    0.9598    3.4095   18.6477 H   0  0  0  0  0  0  0  0  0  0  0  0
    7.8641    8.4945   21.7985 H   0  0  0  0  0  0  0  0  0  0  0  0
    6.6020    9.5294   21.7466 H   0  0  0  0  0  0  0  0  0  0  0  0
    8.9544    6.5416   15.7758 H   0  0  0  0  0  0  0  0  0  0  0  0
    9.4986    7.7700   19.6931 H   0  0  0  0  0  0  0  0  0  0  0  0
    1.5210    7.2677   17.2085 H   0  0  0  0  0  0  0  0  0  0  0  0
  1 19  1  0  0  0  0
  2 19  2  0  0  0  0
  3 20  2  0  0  0  0
  4 20  1  0  0  0  0
  5 11  1  0  0  0  0
  5 22  1  0  0  0  0
  5 24  1  0  0  0  0
  6  7  1  0  0  0  0
  6  8  1  0  0  0  0
  7 13  1  0  0  0  0
  8 15  1  0  0  0  0
  9 12  2  0  0  0  0
  9 14  1  0  0  0  0
 10 16  2  0  0  0  0
 10 17  1  0  0  0  0
 11 21  1  0  0  0  0
 12 21  1  0  0  0  0
 13 22  1  0  0  0  0
 14 23  2  0  0  0  0
 15 26  1  0  0  0  0
 16 25  1  0  0  0  0
 17 27  2  0  0  0  0
 18 21  2  0  0  0  0
 18 23  1  0  0  0  0
 19 25  1  0  0  0  0
 20 23  1  0  0  0  0
 22 26  2  0  0  0  0
 24 25  2  0  0  0  0
 24 27  1  0  0  0  0
 26 27  1  0  0  0  0
  1 28  1  0  0  0  0
  4 29  1  0  0  0  0
  4 30  1  0  0  0  0
  6 31  1  0  0  0  0
  6 32  1  0  0  0  0
  7 33  1  0  0  0  0
  7 34  1  0  0  0  0
  8 35  1  0  0  0  0
  8 36  1  0  0  0  0
  9 37  1  0  0  0  0
 10 38  1  0  0  0  0
 11 39  1  0  0  0  0
 11 40  1  0  0  0  0
 12 41  1  0  0  0  0
 13 42  1  0  0  0  0
 13 43  1  0  0  0  0
 14 44  1  0  0  0  0
 15 45  1  0  0  0  0
 15 46  1  0  0  0  0
 16 47  1  0  0  0  0
 17 48  1  0  0  0  0
 18 49  1  0  0  0  0
M  END
> <pdb_id>
3FR5

> <uniprot_id>
P15090

> <usmiles>
O=C(O)c1c2N(C3=C(c2ccc1)CCCCC3)Cc4cc(ccc4)C(=O)N

$$$$
I5S_A_1351
          07192421303D 1   1.00000     0.00000     0
            
 50 52  0  0  0  0            999 V2000
   13.2310   14.5970   -0.2260 Cl  0  0  0  0  0  0  0  0  0  0  0  0
    8.8330   10.5260    3.6980 S   0  0  0  0  0  0  0  0  0  0  0  0
    8.6970   11.3800    4.8170 O   0  0  0  0  0  0  0  0  0  0  0  0
    9.8540   10.7370    2.7460 O   0  0  0  0  0  0  0  0  0  0  0  0
   13.9830    9.0340    2.7510 O   0  0  0  0  0  0  0  0  0  0  0  0
    9.0510    9.0620    4.3610 N   0  0  0  0  0  0  0  0  0  0  0  0
   11.6830    7.3230    2.8470 N   0  0  0  0  0  0  0  0  0  0  0  0
    3.6290   10.1700    4.8120 N   0  0  0  0  0  0  0  0  0  0  0  0
   14.2990    7.6970    3.1980 C   0  0  0  0  0  0  0  0  0  0  0  0
   14.8320   10.1160    3.3140 C   0  0  0  0  0  0  0  0  0  0  0  0
   13.0100    6.7910    3.3550 C   0  0  0  0  0  0  0  0  0  0  0  0
    9.5550    8.0250    3.5140 C   0  0  0  0  0  0  0  0  0  0  0  0
   11.0070    7.9290    3.8850 C   0  0  0  0  0  0  0  0  0  0  0  0
    4.7420   10.3040    5.5250 C   0  0  0  0  0  0  0  0  0  0  0  0
    6.1460   10.1500    0.7510 C   0  0  0  0  0  0  0  0  0  0  0  0
    3.6650   10.0830    3.4860 C   0  0  0  0  0  0  0  0  0  0  0  0
    7.3180   10.2840    1.4770 C   0  0  0  0  0  0  0  0  0  0  0  0
    5.9800   10.3920    4.9460 C   0  0  0  0  0  0  0  0  0  0  0  0
   13.0560   13.1470    1.9910 C   0  0  0  0  0  0  0  0  0  0  0  0
   14.7010   12.4640    0.3530 C   0  0  0  0  0  0  0  0  0  0  0  0
    4.9440   10.0720    1.3880 C   0  0  0  0  0  0  0  0  0  0  0  0
   13.4400   12.1090    2.8110 C   0  0  0  0  0  0  0  0  0  0  0  0
   15.0880   11.4220    1.1800 C   0  0  0  0  0  0  0  0  0  0  0  0
   13.6970   13.3090    0.7800 C   0  0  0  0  0  0  0  0  0  0  0  0
    7.3160   10.3780    2.8450 C   0  0  0  0  0  0  0  0  0  0  0  0
   14.4570   11.2710    2.4130 C   0  0  0  0  0  0  0  0  0  0  0  0
    4.8970   10.1480    2.7960 C   0  0  0  0  0  0  0  0  0  0  0  0
    6.0960   10.3200    3.5370 C   0  0  0  0  0  0  0  0  0  0  0  0
    8.1663    8.7577    4.7140 H   0  0  0  0  0  0  0  0  0  0  0  0
   11.1355    6.5671    2.4881 H   0  0  0  0  0  0  0  0  0  0  0  0
   14.7601    7.7553    4.0834 H   0  0  0  0  0  0  0  0  0  0  0  0
   14.9108    7.2718    2.5309 H   0  0  0  0  0  0  0  0  0  0  0  0
   15.8046    9.8949    3.2428 H   0  0  0  0  0  0  0  0  0  0  0  0
   14.6020   10.3047    4.2687 H   0  0  0  0  0  0  0  0  0  0  0  0
   13.1900    5.9354    2.8696 H   0  0  0  0  0  0  0  0  0  0  0  0
   12.8984    6.6035    4.3309 H   0  0  0  0  0  0  0  0  0  0  0  0
    9.4495    8.2701    2.5503 H   0  0  0  0  0  0  0  0  0  0  0  0
    9.0846    7.1606    3.6915 H   0  0  0  0  0  0  0  0  0  0  0  0
   11.3772    8.8450    4.0398 H   0  0  0  0  0  0  0  0  0  0  0  0
   11.1075    7.3838    4.7173 H   0  0  0  0  0  0  0  0  0  0  0  0
    4.6732   10.3420    6.5219 H   0  0  0  0  0  0  0  0  0  0  0  0
    6.1823   10.1102   -0.2476 H   0  0  0  0  0  0  0  0  0  0  0  0
    2.8141    9.9707    2.9728 H   0  0  0  0  0  0  0  0  0  0  0  0
    8.1906   10.3130    0.9895 H   0  0  0  0  0  0  0  0  0  0  0  0
    6.7952   10.5062    5.5138 H   0  0  0  0  0  0  0  0  0  0  0  0
   12.3260   13.7717    2.2683 H   0  0  0  0  0  0  0  0  0  0  0  0
   15.1401   12.6009   -0.5349 H   0  0  0  0  0  0  0  0  0  0  0  0
    4.1012    9.9617    0.8612 H   0  0  0  0  0  0  0  0  0  0  0  0
   12.9834   11.9652    3.6890 H   0  0  0  0  0  0  0  0  0  0  0  0
   15.8083   10.7888    0.8967 H   0  0  0  0  0  0  0  0  0  0  0  0
  1 24  1  0  0  0  0
  2  3  2  0  0  0  0
  2  4  2  0  0  0  0
  2  6  1  0  0  0  0
  2 25  1  0  0  0  0
  5  9  1  0  0  0  0
  5 10  1  0  0  0  0
  6 12  1  0  0  0  0
  7 11  1  0  0  0  0
  7 13  1  0  0  0  0
  8 14  2  0  0  0  0
  8 16  1  0  0  0  0
  9 11  1  0  0  0  0
 10 26  1  0  0  0  0
 12 13  1  0  0  0  0
 14 18  1  0  0  0  0
 15 17  1  0  0  0  0
 15 21  2  0  0  0  0
 16 27  2  0  0  0  0
 17 25  2  0  0  0  0
 18 28  2  0  0  0  0
 19 22  2  0  0  0  0
 19 24  1  0  0  0  0
 20 23  1  0  0  0  0
 20 24  2  0  0  0  0
 21 27  1  0  0  0  0
 22 26  1  0  0  0  0
 23 26  2  0  0  0  0
 25 28  1  0  0  0  0
 27 28  1  0  0  0  0
  6 29  1  0  0  0  0
  7 30  1  0  0  0  0
  9 31  1  0  0  0  0
  9 32  1  0  0  0  0
 10 33  1  0  0  0  0
 10 34  1  0  0  0  0
 11 35  1  0  0  0  0
 11 36  1  0  0  0  0
 12 37  1  0  0  0  0
 12 38  1  0  0  0  0
 13 39  1  0  0  0  0
 13 40  1  0  0  0  0
 14 41  1  0  0  0  0
 15 42  1  0  0  0  0
 16 43  1  0  0  0  0
 17 44  1  0  0  0  0
 18 45  1  0  0  0  0
 19 46  1  0  0  0  0
 20 47  1  0  0  0  0
 21 48  1  0  0  0  0
 22 49  1  0  0  0  0
 23 50  1  0  0  0  0
M  END
> <pdb_id>
2JDT

> <uniprot_id>
P00517

> <usmiles>
Clc1ccc(cc1)COCCNCCNS(=O)(=O)c2c3c(cncc3)ccc2

$$$$
I5S_A_1480
          07192421293D 1   1.00000     0.00000     0
            
 50 52  0  0  0  0            999 V2000
   19.5365   -0.3456   36.6005 Cl  0  0  0  0  0  0  0  0  0  0  0  0
   22.4847    2.0760   41.5028 S   0  0  0  0  0  0  0  0  0  0  0  0
   23.7434    2.1299   40.8195 O   0  0  0  0  0  0  0  0  0  0  0  0
   21.4357    1.2643   40.9557 O   0  0  0  0  0  0  0  0  0  0  0  0
   21.2024   -3.2769   42.3060 O   0  0  0  0  0  0  0  0  0  0  0  0
   22.8026    1.5185   43.0141 N   0  0  0  0  0  0  0  0  0  0  0  0
   20.2256   -0.8448   44.0993 N   0  0  0  0  0  0  0  0  0  0  0  0
   24.3228    7.0694   42.4631 N   0  0  0  0  0  0  0  0  0  0  0  0
   19.9021   -2.8571   42.7514 C   0  0  0  0  0  0  0  0  0  0  0  0
   21.1611   -4.0180   41.0771 C   0  0  0  0  0  0  0  0  0  0  0  0
   20.0404   -2.2991   44.1520 C   0  0  0  0  0  0  0  0  0  0  0  0
   21.7325    1.0495   43.8889 C   0  0  0  0  0  0  0  0  0  0  0  0
   21.6168   -0.4634   43.8653 C   0  0  0  0  0  0  0  0  0  0  0  0
   24.8477    5.8527   42.2923 C   0  0  0  0  0  0  0  0  0  0  0  0
   19.9554    5.1767   41.8043 C   0  0  0  0  0  0  0  0  0  0  0  0
   22.9940    7.1742   42.3748 C   0  0  0  0  0  0  0  0  0  0  0  0
   20.4916    3.9182   41.6385 C   0  0  0  0  0  0  0  0  0  0  0  0
   24.0932    4.7266   42.0490 C   0  0  0  0  0  0  0  0  0  0  0  0
   19.2008   -2.4732   38.2359 C   0  0  0  0  0  0  0  0  0  0  0  0
   21.1857   -1.1730   38.5824 C   0  0  0  0  0  0  0  0  0  0  0  0
   20.7741    6.2600   42.0400 C   0  0  0  0  0  0  0  0  0  0  0  0
   19.5697   -3.3129   39.2636 C   0  0  0  0  0  0  0  0  0  0  0  0
   21.5565   -2.0147   39.6103 C   0  0  0  0  0  0  0  0  0  0  0  0
   20.0027   -1.3979   37.8947 C   0  0  0  0  0  0  0  0  0  0  0  0
   21.8646    3.7149   41.7018 C   0  0  0  0  0  0  0  0  0  0  0  0
   20.7557   -3.0980   39.9556 C   0  0  0  0  0  0  0  0  0  0  0  0
   22.1471    6.1004   42.1272 C   0  0  0  0  0  0  0  0  0  0  0  0
   22.7114    4.8250   41.9575 C   0  0  0  0  0  0  0  0  0  0  0  0
   23.2599    2.2632   43.5002 H   0  0  0  0  0  0  0  0  0  0  0  0
   19.9280   -0.4523   44.9696 H   0  0  0  0  0  0  0  0  0  0  0  0
   19.2779   -3.6383   42.7582 H   0  0  0  0  0  0  0  0  0  0  0  0
   19.5460   -2.1511   42.1392 H   0  0  0  0  0  0  0  0  0  0  0  0
   20.4964   -4.7608   41.1569 H   0  0  0  0  0  0  0  0  0  0  0  0
   22.0657   -4.3993   40.8862 H   0  0  0  0  0  0  0  0  0  0  0  0
   19.2140   -2.5085   44.6746 H   0  0  0  0  0  0  0  0  0  0  0  0
   20.8318   -2.7173   44.5980 H   0  0  0  0  0  0  0  0  0  0  0  0
   20.8666    1.4463   43.5844 H   0  0  0  0  0  0  0  0  0  0  0  0
   21.9243    1.3460   44.8245 H   0  0  0  0  0  0  0  0  0  0  0  0
   21.9120   -0.8071   42.9738 H   0  0  0  0  0  0  0  0  0  0  0  0
   22.1953   -0.8539   44.5814 H   0  0  0  0  0  0  0  0  0  0  0  0
   25.8415    5.7545   42.3439 H   0  0  0  0  0  0  0  0  0  0  0  0
   18.9649    5.3048   41.7533 H   0  0  0  0  0  0  0  0  0  0  0  0
   22.5845    8.0787   42.4938 H   0  0  0  0  0  0  0  0  0  0  0  0
   19.8848    3.1413   41.4704 H   0  0  0  0  0  0  0  0  0  0  0  0
   24.5401    3.8389   41.9384 H   0  0  0  0  0  0  0  0  0  0  0  0
   18.3517   -2.6410   37.7350 H   0  0  0  0  0  0  0  0  0  0  0  0
   21.7698   -0.4006   38.3332 H   0  0  0  0  0  0  0  0  0  0  0  0
   20.3731    7.1696   42.1490 H   0  0  0  0  0  0  0  0  0  0  0  0
   18.9807   -4.0816   39.5133 H   0  0  0  0  0  0  0  0  0  0  0  0
   22.4060   -1.8450   40.1099 H   0  0  0  0  0  0  0  0  0  0  0  0
  1 24  1  0  0  0  0
  2  3  2  0  0  0  0
  2  4  2  0  0  0  0
  2  6  1  0  0  0  0
  2 25  1  0  0  0  0
  5  9  1  0  0  0  0
  5 10  1  0  0  0  0
  6 12  1  0  0  0  0
  7 11  1  0  0  0  0
  7 13  1  0  0  0  0
  8 14  2  0  0  0  0
  8 16  1  0  0  0  0
  9 11  1  0  0  0  0
 10 26  1  0  0  0  0
 12 13  1  0  0  0  0
 14 18  1  0  0  0  0
 15 17  1  0  0  0  0
 15 21  2  0  0  0  0
 16 27  2  0  0  0  0
 17 25  2  0  0  0  0
 18 28  2  0  0  0  0
 19 22  2  0  0  0  0
 19 24  1  0  0  0  0
 20 23  1  0  0  0  0
 20 24  2  0  0  0  0
 21 27  1  0  0  0  0
 22 26  1  0  0  0  0
 23 26  2  0  0  0  0
 25 28  1  0  0  0  0
 27 28  1  0  0  0  0
  6 29  1  0  0  0  0
  7 30  1  0  0  0  0
  9 31  1  0  0  0  0
  9 32  1  0  0  0  0
 10 33  1  0  0  0  0
 10 34  1  0  0  0  0
 11 35  1  0  0  0  0
 11 36  1  0  0  0  0
 12 37  1  0  0  0  0
 12 38  1  0  0  0  0
 13 39  1  0  0  0  0
 13 40  1  0  0  0  0
 14 41  1  0  0  0  0
 15 42  1  0  0  0  0
 16 43  1  0  0  0  0
 17 44  1  0  0  0  0
 18 45  1  0  0  0  0
 19 46  1  0  0  0  0
 20 47  1  0  0  0  0
 21 48  1  0  0  0  0
 22 49  1  0  0  0  0
 23 50  1  0  0  0  0
M  END
> <pdb_id>
2JDO

> <uniprot_id>
P31751

> <usmiles>
Clc1ccc(cc1)COCCNCCNS(=O)(=O)c2c3c(cncc3)ccc2

$$$$
I66_B_1801
          07202411513D 1   1.00000     0.00000     0
            
 50 53  0  0  0  0            999 V2000
    8.8480   64.3510   -3.2470 O   0  0  0  0  0  0  0  0  0  0  0  0
   10.3930   61.1720   -7.5680 O   0  0  0  0  0  0  0  0  0  0  0  0
    7.3680   66.0030   -3.5080 O   0  0  0  0  0  0  0  0  0  0  0  0
    9.3190   66.4810   -7.2370 O   0  0  0  0  0  0  0  0  0  0  0  0
   10.5130   62.3640   -4.1390 N   0  0  0  0  0  0  0  0  0  0  0  0
    5.9390   67.1030   -1.9030 C   0  0  0  0  0  0  0  0  0  0  0  0
    7.0180   66.0410   -2.1000 C   0  0  0  0  0  0  0  0  0  0  0  0
   10.2250   61.6840   -2.8530 C   0  0  0  0  0  0  0  0  0  0  0  0
   11.7910   61.8150   -4.6550 C   0  0  0  0  0  0  0  0  0  0  0  0
    9.4070   62.1950   -5.1130 C   0  0  0  0  0  0  0  0  0  0  0  0
   11.4720   60.8500   -2.4530 C   0  0  0  0  0  0  0  0  0  0  0  0
   12.5810   61.3600   -3.4140 C   0  0  0  0  0  0  0  0  0  0  0  0
    8.0740   70.7020   -4.8200 C   0  0  0  0  0  0  0  0  0  0  0  0
    8.4790   69.7750   -3.8790 C   0  0  0  0  0  0  0  0  0  0  0  0
    7.9300   70.3300   -6.1480 C   0  0  0  0  0  0  0  0  0  0  0  0
   10.3530   63.2780   -8.6260 C   0  0  0  0  0  0  0  0  0  0  0  0
    8.7370   68.4730   -4.2650 C   0  0  0  0  0  0  0  0  0  0  0  0
    8.1800   69.0220   -6.5370 C   0  0  0  0  0  0  0  0  0  0  0  0
   10.0990   64.6260   -8.6180 C   0  0  0  0  0  0  0  0  0  0  0  0
    8.4560   65.3020   -3.9090 C   0  0  0  0  0  0  0  0  0  0  0  0
   10.1220   62.5110   -7.4860 C   0  0  0  0  0  0  0  0  0  0  0  0
    9.6190   65.2030   -7.4630 C   0  0  0  0  0  0  0  0  0  0  0  0
    8.8750   66.6940   -6.0040 C   0  0  0  0  0  0  0  0  0  0  0  0
    8.5520   68.0720   -5.5840 C   0  0  0  0  0  0  0  0  0  0  0  0
    9.6330   63.0820   -6.3130 C   0  0  0  0  0  0  0  0  0  0  0  0
    8.8820   65.4830   -5.3070 C   0  0  0  0  0  0  0  0  0  0  0  0
    9.3740   64.4660   -6.2880 C   0  0  0  0  0  0  0  0  0  0  0  0
   10.2426   60.5819   -6.7748 H   0  0  0  0  0  0  0  0  0  0  0  0
    5.6842   67.1441   -0.9369 H   0  0  0  0  0  0  0  0  0  0  0  0
    6.2904   67.9931   -2.1932 H   0  0  0  0  0  0  0  0  0  0  0  0
    5.1356   66.8674   -2.4499 H   0  0  0  0  0  0  0  0  0  0  0  0
    7.8249   66.2739   -1.5571 H   0  0  0  0  0  0  0  0  0  0  0  0
    6.6701   65.1482   -1.8138 H   0  0  0  0  0  0  0  0  0  0  0  0
    9.4345   61.0808   -2.9590 H   0  0  0  0  0  0  0  0  0  0  0  0
   10.0325   62.3647   -2.1462 H   0  0  0  0  0  0  0  0  0  0  0  0
   12.2977   62.5196   -5.1518 H   0  0  0  0  0  0  0  0  0  0  0  0
   11.6174   61.0391   -5.2615 H   0  0  0  0  0  0  0  0  0  0  0  0
    8.5417   62.4423   -4.6771 H   0  0  0  0  0  0  0  0  0  0  0  0
    9.3701   61.2406   -5.4093 H   0  0  0  0  0  0  0  0  0  0  0  0
   11.3055   59.8731   -2.5873 H   0  0  0  0  0  0  0  0  0  0  0  0
   11.7220   61.0176   -1.4994 H   0  0  0  0  0  0  0  0  0  0  0  0
   13.0829   62.1241   -3.0087 H   0  0  0  0  0  0  0  0  0  0  0  0
   13.2201   60.6265   -3.6451 H   0  0  0  0  0  0  0  0  0  0  0  0
    7.8842   71.6438   -4.5426 H   0  0  0  0  0  0  0  0  0  0  0  0
    8.5851   70.0450   -2.9220 H   0  0  0  0  0  0  0  0  0  0  0  0
    7.6452   71.0064   -6.8272 H   0  0  0  0  0  0  0  0  0  0  0  0
   10.7059   62.8434   -9.4546 H   0  0  0  0  0  0  0  0  0  0  0  0
    9.0604   67.8117   -3.5881 H   0  0  0  0  0  0  0  0  0  0  0  0
    8.0939   68.7601   -7.4983 H   0  0  0  0  0  0  0  0  0  0  0  0
   10.2593   65.1794   -9.4353 H   0  0  0  0  0  0  0  0  0  0  0  0
  1 20  2  0  0  0  0
  2 21  1  0  0  0  0
  3  7  1  0  0  0  0
  3 20  1  0  0  0  0
  4 22  1  0  0  0  0
  4 23  1  0  0  0  0
  5  8  1  0  0  0  0
  5  9  1  0  0  0  0
  5 10  1  0  0  0  0
  6  7  1  0  0  0  0
  8 11  1  0  0  0  0
  9 12  1  0  0  0  0
 10 25  1  0  0  0  0
 11 12  1  0  0  0  0
 13 14  2  0  0  0  0
 13 15  1  0  0  0  0
 14 17  1  0  0  0  0
 15 18  2  0  0  0  0
 16 19  1  0  0  0  0
 16 21  2  0  0  0  0
 17 24  2  0  0  0  0
 18 24  1  0  0  0  0
 19 22  2  0  0  0  0
 20 26  1  0  0  0  0
 21 25  1  0  0  0  0
 22 27  1  0  0  0  0
 23 24  1  0  0  0  0
 23 26  2  0  0  0  0
 25 27  2  0  0  0  0
 26 27  1  0  0  0  0
  2 28  1  0  0  0  0
  6 29  1  0  0  0  0
  6 30  1  0  0  0  0
  6 31  1  0  0  0  0
  7 32  1  0  0  0  0
  7 33  1  0  0  0  0
  8 34  1  0  0  0  0
  8 35  1  0  0  0  0
  9 36  1  0  0  0  0
  9 37  1  0  0  0  0
 10 38  1  0  0  0  0
 10 39  1  0  0  0  0
 11 40  1  0  0  0  0
 11 41  1  0  0  0  0
 12 42  1  0  0  0  0
 12 43  1  0  0  0  0
 13 44  1  0  0  0  0
 14 45  1  0  0  0  0
 15 46  1  0  0  0  0
 16 47  1  0  0  0  0
 17 48  1  0  0  0  0
 18 49  1  0  0  0  0
 19 50  1  0  0  0  0
M  END
> <pdb_id>
5V42

> <uniprot_id>
nan

> <usmiles>
O=C(OCC)C=1c2c(OC1c3ccccc3)ccc(O)c2CN4CCCC4

$$$$
I78_A_502
          07202401113D 1   1.00000     0.00000     0
            
 18 17  0  0  0  0            999 V2000
    1.1555  -17.4929  -94.6498 O   0  0  0  0  0  0  0  0  0  0  0  0
    2.4417  -16.5145  -96.0691 O   0  0  0  0  0  0  0  0  0  0  0  0
    0.4402  -13.3143  -90.2973 O   0  0  0  0  0  0  0  0  0  0  0  0
   -0.0063  -15.4746  -90.7088 O   0  0  0  0  0  0  0  0  0  0  0  0
    2.9586  -14.5132  -94.2201 O   0  0  0  0  0  0  0  0  0  0  0  0
    1.6183  -15.5508  -92.7511 N   0  0  0  0  0  0  0  0  0  0  0  0
    3.2889  -14.4972  -91.1935 C   0  0  0  0  0  0  0  0  0  0  0  0
    1.9099  -16.5525  -94.9362 C   0  0  0  0  0  0  0  0  0  0  0  0
    0.6777  -14.4341  -90.8096 C   0  0  0  0  0  0  0  0  0  0  0  0
    2.2035  -15.4466  -93.9356 C   0  0  0  0  0  0  0  0  0  0  0  0
    1.8734  -14.4800  -91.7555 C   0  0  2  0  0  0  0  0  0  0  0  0
    0.9894  -16.2980  -92.5217 H   0  0  0  0  0  0  0  0  0  0  0  0
    3.4177  -15.3738  -90.5575 H   0  0  0  0  0  0  0  0  0  0  0  0
    3.4585  -13.5950  -90.6059 H   0  0  0  0  0  0  0  0  0  0  0  0
    4.0055  -14.5353  -92.0144 H   0  0  0  0  0  0  0  0  0  0  0  0
    1.9113  -13.4873  -92.2039 H   0  0  0  0  0  0  0  0  0  0  0  0
    0.7259  -17.5325  -93.7477 H   0  0  0  0  0  0  0  0  0  0  0  0
    1.0674  -12.5509  -90.4513 H   0  0  0  0  0  0  0  0  0  0  0  0
  1  8  1  0  0  0  0
  2  8  2  0  0  0  0
  3  9  1  0  0  0  0
  4  9  2  0  0  0  0
  5 10  2  0  0  0  0
  6 10  1  0  0  0  0
  6 11  1  0  0  0  0
  6 12  1  0  0  0  0
  7 11  1  0  0  0  0
  7 13  1  0  0  0  0
  7 14  1  0  0  0  0
  7 15  1  0  0  0  0
  8 10  1  0  0  0  0
  9 11  1  0  0  0  0
 11 16  1  0  0  0  0
  1 17  1  0  0  0  0
  3 18  1  0  0  0  0
M  END
> <pdb_id>
7YXK

> <uniprot_id>
Q9VU77

> <usmiles>
O=C(O)C(=O)N[C@@H](C(=O)O)C

$$$$
I7O_B_201
          07192420373D 1   1.00000     0.00000     0
            
 22 23  0  0  0  0            999 V2000
   14.2947   21.3934  -39.4374 O   0  0  0  0  0  0  0  0  0  0  0  0
   15.0672   20.7826  -41.4135 O   0  0  0  0  0  0  0  0  0  0  0  0
   13.3558   22.6122  -42.7797 N   0  0  0  0  0  0  0  0  0  0  0  0
   12.9312   21.7915  -43.7313 C   0  0  0  0  0  0  0  0  0  0  0  0
   13.1755   22.3742  -41.3921 C   0  0  0  0  0  0  0  0  0  0  0  0
   15.0415   25.8553  -43.5422 C   0  0  0  0  0  0  0  0  0  0  0  0
   15.0177   25.7324  -44.9335 C   0  0  0  0  0  0  0  0  0  0  0  0
   13.2467   22.3416  -44.9753 C   0  0  0  0  0  0  0  0  0  0  0  0
   14.5131   24.8594  -42.7439 C   0  0  0  0  0  0  0  0  0  0  0  0
   14.4355   24.6020  -45.4971 C   0  0  0  0  0  0  0  0  0  0  0  0
   14.2480   21.4629  -40.7308 C   0  0  0  0  0  0  0  0  0  0  0  0
   13.9264   23.7081  -43.3245 C   0  0  0  0  0  0  0  0  0  0  0  0
   13.8955   23.5926  -44.6929 C   0  0  0  0  0  0  0  0  0  0  0  0
   13.6534   21.9255  -38.8846 H   0  0  0  0  0  0  0  0  0  0  0  0
   12.4619   20.9212  -43.5822 H   0  0  0  0  0  0  0  0  0  0  0  0
   12.2824   21.9423  -41.2660 H   0  0  0  0  0  0  0  0  0  0  0  0
   13.1880   23.2571  -40.9227 H   0  0  0  0  0  0  0  0  0  0  0  0
   15.4432   26.6688  -43.1218 H   0  0  0  0  0  0  0  0  0  0  0  0
   15.4124   26.4446  -45.5141 H   0  0  0  0  0  0  0  0  0  0  0  0
   13.0602   21.9473  -45.8751 H   0  0  0  0  0  0  0  0  0  0  0  0
   14.5450   24.9519  -41.7487 H   0  0  0  0  0  0  0  0  0  0  0  0
   14.4025   24.5093  -46.4922 H   0  0  0  0  0  0  0  0  0  0  0  0
  1 11  1  0  0  0  0
  2 11  2  0  0  0  0
  3  4  1  0  0  0  0
  3  5  1  0  0  0  0
  3 12  1  0  0  0  0
  4  8  2  0  0  0  0
  5 11  1  0  0  0  0
  6  7  2  0  0  0  0
  6  9  1  0  0  0  0
  7 10  1  0  0  0  0
  8 13  1  0  0  0  0
  9 12  2  0  0  0  0
 10 13  2  0  0  0  0
 12 13  1  0  0  0  0
  1 14  1  0  0  0  0
  4 15  1  0  0  0  0
  5 16  1  0  0  0  0
  5 17  1  0  0  0  0
  6 18  1  0  0  0  0
  7 19  1  0  0  0  0
  8 20  1  0  0  0  0
  9 21  1  0  0  0  0
 10 22  1  0  0  0  0
M  END
> <pdb_id>
7YYC

> <uniprot_id>
B1MDL6

> <usmiles>
O=C(O)CN1c2c(cccc2)C=C1

$$$$
I92_A_803
          07202413413D 1   1.00000     0.00000     0
            
 22 22  0  0  0  0            999 V2000
   32.4136   79.4805   60.8512 Br  0  0  0  0  0  0  0  0  0  0  0  0
   37.8186   81.1770   65.3714 O   0  0  0  0  0  0  0  0  0  0  0  0
   39.2406   81.4325   63.6865 O   0  0  0  0  0  0  0  0  0  0  0  0
   36.9705   82.1610   62.1578 O   0  0  0  0  0  0  0  0  0  0  0  0
   35.1141   80.4294   61.1224 O   0  0  0  0  0  0  0  0  0  0  0  0
   33.0603   76.0492   63.1679 C   0  0  0  0  0  0  0  0  0  0  0  0
   34.3261   76.3118   63.7544 C   0  0  0  0  0  0  0  0  0  0  0  0
   32.4909   76.9967   62.2895 C   0  0  0  0  0  0  0  0  0  0  0  0
   35.0275   77.5051   63.4867 C   0  0  0  0  0  0  0  0  0  0  0  0
   35.9254   80.3352   63.3094 C   0  0  0  0  0  0  0  0  0  0  0  0
   38.1216   81.5192   64.0744 C   0  0  0  0  0  0  0  0  0  0  0  0
   33.2014   78.1972   62.0387 C   0  0  0  0  0  0  0  0  0  0  0  0
   36.9766   81.4240   63.0854 C   0  0  0  0  0  0  0  0  0  0  0  0
   35.2320   79.7687   62.3388 C   0  0  0  0  0  0  0  0  0  0  0  0
   34.4632   78.4647   62.6161 C   0  0  0  0  0  0  0  0  0  0  0  0
   36.8771   81.2490   65.7006 H   0  0  0  0  0  0  0  0  0  0  0  0
   34.5926   80.0147   60.3767 H   0  0  0  0  0  0  0  0  0  0  0  0
   32.5755   75.1995   63.3754 H   0  0  0  0  0  0  0  0  0  0  0  0
   34.7291   75.6354   64.3710 H   0  0  0  0  0  0  0  0  0  0  0  0
   31.6070   76.8248   61.8545 H   0  0  0  0  0  0  0  0  0  0  0  0
   35.9182   77.6714   63.9099 H   0  0  0  0  0  0  0  0  0  0  0  0
   35.7531   80.0343   64.2474 H   0  0  0  0  0  0  0  0  0  0  0  0
  1 12  1  0  0  0  0
  2 11  1  0  0  0  0
  3 11  2  0  0  0  0
  4 13  2  0  0  0  0
  5 14  1  0  0  0  0
  6  7  2  0  0  0  0
  6  8  1  0  0  0  0
  7  9  1  0  0  0  0
  8 12  2  0  0  0  0
  9 15  2  0  0  0  0
 10 13  1  0  0  0  0
 10 14  2  0  0  0  0
 11 13  1  0  0  0  0
 12 15  1  0  0  0  0
 14 15  1  0  0  0  0
  2 16  1  0  0  0  0
  5 17  1  0  0  0  0
  6 18  1  0  0  0  0
  7 19  1  0  0  0  0
  8 20  1  0  0  0  0
  9 21  1  0  0  0  0
 10 22  1  0  0  0  0
M  END
> <pdb_id>
3S9Z

> <uniprot_id>
P0A5J4

> <usmiles>
Brc1c(cccc1)\C(\O)=C\C(=O)C(=O)O

$$$$
IA9_A_401
          07202411533D 1   1.00000     0.00000     0
            
 48 50  0  0  0  0            999 V2000
   18.7417   -6.4081   23.1572 Cl  0  0  0  0  0  0  0  0  0  0  0  0
   18.5283  -11.1813   21.5618 F   0  0  0  0  0  0  0  0  0  0  0  0
   25.4476   -6.6515   27.3036 O   0  5  0  0  0  0  0  0  0  0  0  0
   27.4714   -5.5131   26.5576 O   0  0  0  0  0  0  0  0  0  0  0  0
   21.3752   -6.5192   24.7394 O   0  0  0  0  0  0  0  0  0  0  0  0
   22.8262   -6.8567   22.9893 N   0  0  0  0  0  0  0  0  0  0  0  0
   26.1402   -5.9208   26.3324 N   0  3  0  0  0  0  0  0  0  0  0  0
   22.1690   -3.2182   19.4359 N   0  0  0  0  0  0  0  0  0  0  0  0
   23.6147   -4.4156   21.6135 N   0  0  0  0  0  0  0  0  0  0  0  0
   21.6833   -3.1700   18.0630 C   0  0  0  0  0  0  0  0  0  0  0  0
   17.2210   -8.7521   22.0343 C   0  0  0  0  0  0  0  0  0  0  0  0
   21.6250   -4.2554   20.2826 C   0  0  0  0  0  0  0  0  0  0  0  0
   23.5301   -3.7823   19.1214 C   0  0  0  0  0  0  0  0  0  0  0  0
   22.1709   -4.1467   21.6398 C   0  0  0  0  0  0  0  0  0  0  0  0
   24.3739   -3.8902   20.4682 C   0  0  0  0  0  0  0  0  0  0  0  0
   20.5618  -10.3498   22.3325 C   0  0  0  0  0  0  0  0  0  0  0  0
   25.8803   -4.4408   24.4812 C   0  0  0  0  0  0  0  0  0  0  0  0
   25.2356   -4.0835   23.2891 C   0  0  0  0  0  0  0  0  0  0  0  0
   21.3311   -9.3196   22.8619 C   0  0  0  0  0  0  0  0  0  0  0  0
   24.4745   -6.3758   24.6531 C   0  0  0  0  0  0  0  0  0  0  0  0
   21.6658   -7.0804   23.6769 C   0  0  0  0  0  0  0  0  0  0  0  0
   19.4113   -7.8611   22.8561 C   0  0  0  0  0  0  0  0  0  0  0  0
   19.2202  -10.1547   22.0667 C   0  0  0  0  0  0  0  0  0  0  0  0
   23.8047   -6.0262   23.4686 C   0  0  0  0  0  0  0  0  0  0  0  0
   25.5084   -5.5861   25.1709 C   0  0  0  0  0  0  0  0  0  0  0  0
   24.1998   -4.8713   22.7505 C   0  0  0  0  0  0  0  0  0  0  0  0
   18.6163   -8.9138   22.3210 C   0  0  0  0  0  0  0  0  0  0  0  0
   20.7900   -8.0628   23.1222 C   0  0  0  0  0  0  0  0  0  0  0  0
   22.9647   -7.3128   22.1102 H   0  0  0  0  0  0  0  0  0  0  0  0
   22.1282   -2.4169   17.5783 H   0  0  0  0  0  0  0  0  0  0  0  0
   21.8949   -4.0329   17.6041 H   0  0  0  0  0  0  0  0  0  0  0  0
   20.6936   -3.0271   18.0644 H   0  0  0  0  0  0  0  0  0  0  0  0
   16.8548   -9.6072   21.6676 H   0  0  0  0  0  0  0  0  0  0  0  0
   16.7336   -8.5138   22.8743 H   0  0  0  0  0  0  0  0  0  0  0  0
   17.1014   -8.0223   21.3611 H   0  0  0  0  0  0  0  0  0  0  0  0
   21.8626   -5.1494   19.9025 H   0  0  0  0  0  0  0  0  0  0  0  0
   20.6300   -4.1627   20.3192 H   0  0  0  0  0  0  0  0  0  0  0  0
   24.0020   -3.1794   18.4781 H   0  0  0  0  0  0  0  0  0  0  0  0
   23.4304   -4.6906   18.7151 H   0  0  0  0  0  0  0  0  0  0  0  0
   22.0106   -3.2238   21.9900 H   0  0  0  0  0  0  0  0  0  0  0  0
   21.7193   -4.8120   22.2344 H   0  0  0  0  0  0  0  0  0  0  0  0
   25.1522   -4.4960   20.3032 H   0  0  0  0  0  0  0  0  0  0  0  0
   24.7063   -2.9771   20.7042 H   0  0  0  0  0  0  0  0  0  0  0  0
   20.9822  -11.2371   22.1429 H   0  0  0  0  0  0  0  0  0  0  0  0
   26.6155   -3.8647   24.8382 H   0  0  0  0  0  0  0  0  0  0  0  0
   25.5170   -3.2516   22.8108 H   0  0  0  0  0  0  0  0  0  0  0  0
   22.2970   -9.4852   23.0608 H   0  0  0  0  0  0  0  0  0  0  0  0
   24.2065   -7.2084   25.1379 H   0  0  0  0  0  0  0  0  0  0  0  0
  1 22  1  0  0  0  0
  2 23  1  0  0  0  0
  3  7  1  0  0  0  0
  4  7  2  0  0  0  0
  5 21  2  0  0  0  0
  6 21  1  0  0  0  0
  6 24  1  0  0  0  0
  7 25  1  0  0  0  0
  8 10  1  0  0  0  0
  8 12  1  0  0  0  0
  8 13  1  0  0  0  0
  9 14  1  0  0  0  0
  9 15  1  0  0  0  0
  9 26  1  0  0  0  0
 11 27  1  0  0  0  0
 12 14  1  0  0  0  0
 13 15  1  0  0  0  0
 16 19  1  0  0  0  0
 16 23  2  0  0  0  0
 17 18  1  0  0  0  0
 17 25  2  0  0  0  0
 18 26  2  0  0  0  0
 19 28  2  0  0  0  0
 20 24  2  0  0  0  0
 20 25  1  0  0  0  0
 21 28  1  0  0  0  0
 22 27  2  0  0  0  0
 22 28  1  0  0  0  0
 23 27  1  0  0  0  0
 24 26  1  0  0  0  0
  6 29  1  0  0  0  0
 10 30  1  0  0  0  0
 10 31  1  0  0  0  0
 10 32  1  0  0  0  0
 11 33  1  0  0  0  0
 11 34  1  0  0  0  0
 11 35  1  0  0  0  0
 12 36  1  0  0  0  0
 12 37  1  0  0  0  0
 13 38  1  0  0  0  0
 13 39  1  0  0  0  0
 14 40  1  0  0  0  0
 14 41  1  0  0  0  0
 15 42  1  0  0  0  0
 15 43  1  0  0  0  0
 16 44  1  0  0  0  0
 17 45  1  0  0  0  0
 18 46  1  0  0  0  0
 19 47  1  0  0  0  0
 20 48  1  0  0  0  0
M  CHG  2   3  -1   7   1
M  END
> <pdb_id>
4IA9

> <uniprot_id>
P61964

> <usmiles>
Clc1c(ccc(F)c1C)C(=O)Nc2c(N3CCN(CC3)C)ccc([N+]([O-])=O)c2

$$$$
IAL_B_803
          07192416573D 1   1.00000     0.00000     0
            
 49 52  0  0  0  0            999 V2000
   20.0469   -3.3323   18.7455 O   0  0  0  0  0  0  0  0  0  0  0  0
   16.3878   -1.9726   21.1016 O   0  0  0  0  0  0  0  0  0  0  0  0
   16.6559   -2.1657   16.6097 N   0  0  0  0  0  0  0  0  0  0  0  0
   18.5808   -3.3930   20.4782 N   0  0  0  0  0  0  0  0  0  0  0  0
   22.1070   -5.3500   24.2351 N   0  0  0  0  0  0  0  0  0  0  0  0
   23.0154   -4.3650   22.4604 N   0  0  0  0  0  0  0  0  0  0  0  0
   17.8015   -2.8267   17.0440 N   0  0  0  0  0  0  0  0  0  0  0  0
   15.9849   -0.0160   20.2576 N   0  0  0  0  0  0  0  0  0  0  0  0
   18.7565   -3.6283   16.2694 C   0  0  0  0  0  0  0  0  0  0  0  0
   15.5854    0.3840   21.6113 C   0  0  0  0  0  0  0  0  0  0  0  0
   15.9536    0.9064   19.1338 C   0  0  0  0  0  0  0  0  0  0  0  0
   16.0707   -1.5370   17.6115 C   0  0  0  0  0  0  0  0  0  0  0  0
   27.1520   -5.6457   25.2580 C   0  0  0  0  0  0  0  0  0  0  0  0
   26.0069   -6.1197   25.9097 C   0  0  0  0  0  0  0  0  0  0  0  0
   27.0182   -4.8830   24.1085 C   0  0  0  0  0  0  0  0  0  0  0  0
   18.8820   -4.5256   22.5239 C   0  0  0  0  0  0  0  0  0  0  0  0
   19.6768   -5.0506   23.5358 C   0  0  0  0  0  0  0  0  0  0  0  0
   24.7407   -5.9075   25.3865 C   0  0  0  0  0  0  0  0  0  0  0  0
   25.7480   -4.6436   23.5841 C   0  0  0  0  0  0  0  0  0  0  0  0
   20.8144   -3.7618   21.2700 C   0  0  0  0  0  0  0  0  0  0  0  0
   18.9409   -3.1201   19.2186 C   0  0  0  0  0  0  0  0  0  0  0  0
   23.2674   -4.9416   23.6176 C   0  0  0  0  0  0  0  0  0  0  0  0
   16.4180   -1.2641   20.1034 C   0  0  0  0  0  0  0  0  0  0  0  0
   19.4458   -3.8901   21.4184 C   0  0  0  0  0  0  0  0  0  0  0  0
   21.0658   -4.9381   23.4224 C   0  0  0  0  0  0  0  0  0  0  0  0
   21.6583   -4.2926   22.2948 C   0  0  0  0  0  0  0  0  0  0  0  0
   17.8821   -2.5788   18.3807 C   0  0  0  0  0  0  0  0  0  0  0  0
   24.6044   -5.1765   24.1984 C   0  0  0  0  0  0  0  0  0  0  0  0
   16.8119   -1.7608   18.7703 C   0  0  0  0  0  0  0  0  0  0  0  0
   17.6323   -3.2257   20.7473 H   0  0  0  0  0  0  0  0  0  0  0  0
   22.0315   -5.8462   25.1000 H   0  0  0  0  0  0  0  0  0  0  0  0
   19.4748   -3.9691   16.8760 H   0  0  0  0  0  0  0  0  0  0  0  0
   18.2801   -4.4010   15.8499 H   0  0  0  0  0  0  0  0  0  0  0  0
   19.1653   -3.0609   15.5546 H   0  0  0  0  0  0  0  0  0  0  0  0
   15.6810   -0.3951   22.2309 H   0  0  0  0  0  0  0  0  0  0  0  0
   16.1703    1.1323   21.9241 H   0  0  0  0  0  0  0  0  0  0  0  0
   14.6325    0.6872   21.6017 H   0  0  0  0  0  0  0  0  0  0  0  0
   16.2630    0.4357   18.3075 H   0  0  0  0  0  0  0  0  0  0  0  0
   15.0192    1.2363   18.9993 H   0  0  0  0  0  0  0  0  0  0  0  0
   16.5569    1.6814   19.3217 H   0  0  0  0  0  0  0  0  0  0  0  0
   15.2350   -0.9913   17.5496 H   0  0  0  0  0  0  0  0  0  0  0  0
   28.0603   -5.8561   25.6196 H   0  0  0  0  0  0  0  0  0  0  0  0
   26.1043   -6.6211   26.7694 H   0  0  0  0  0  0  0  0  0  0  0  0
   27.8276   -4.5066   23.6577 H   0  0  0  0  0  0  0  0  0  0  0  0
   17.8874   -4.6051   22.5899 H   0  0  0  0  0  0  0  0  0  0  0  0
   19.2639   -5.4993   24.3284 H   0  0  0  0  0  0  0  0  0  0  0  0
   23.9338   -6.2718   25.8514 H   0  0  0  0  0  0  0  0  0  0  0  0
   25.6511   -4.0852   22.7601 H   0  0  0  0  0  0  0  0  0  0  0  0
   21.2036   -3.3098   20.4673 H   0  0  0  0  0  0  0  0  0  0  0  0
  1 21  2  0  0  0  0
  2 23  2  0  0  0  0
  3  7  1  0  0  0  0
  3 12  2  0  0  0  0
  4 21  1  0  0  0  0
  4 24  1  0  0  0  0
  5 22  1  0  0  0  0
  5 25  1  0  0  0  0
  6 22  2  0  0  0  0
  6 26  1  0  0  0  0
  7  9  1  0  0  0  0
  7 27  1  0  0  0  0
  8 10  1  0  0  0  0
  8 11  1  0  0  0  0
  8 23  1  0  0  0  0
 12 29  1  0  0  0  0
 13 14  2  0  0  0  0
 13 15  1  0  0  0  0
 14 18  1  0  0  0  0
 15 19  2  0  0  0  0
 16 17  1  0  0  0  0
 16 24  2  0  0  0  0
 17 25  2  0  0  0  0
 18 28  2  0  0  0  0
 19 28  1  0  0  0  0
 20 24  1  0  0  0  0
 20 26  2  0  0  0  0
 21 27  1  0  0  0  0
 22 28  1  0  0  0  0
 23 29  1  0  0  0  0
 25 26  1  0  0  0  0
 27 29  2  0  0  0  0
  4 30  1  0  0  0  0
  5 31  1  0  0  0  0
  9 32  1  0  0  0  0
  9 33  1  0  0  0  0
  9 34  1  0  0  0  0
 10 35  1  0  0  0  0
 10 36  1  0  0  0  0
 10 37  1  0  0  0  0
 11 38  1  0  0  0  0
 11 39  1  0  0  0  0
 11 40  1  0  0  0  0
 12 41  1  0  0  0  0
 13 42  1  0  0  0  0
 14 43  1  0  0  0  0
 15 44  1  0  0  0  0
 16 45  1  0  0  0  0
 17 46  1  0  0  0  0
 18 47  1  0  0  0  0
 19 48  1  0  0  0  0
 20 49  1  0  0  0  0
M  END
> <pdb_id>
5SDW

> <uniprot_id>
Q9Y233

> <usmiles>
O=C(N(C)C)C1=C(N(N=C1)C)C(=O)Nc2cc3N=C(Nc3cc2)c4ccccc4

$$$$
IB1_A_601
          07202417453D 1   1.00000     0.00000     0
            
 39 41  0  0  0  0            999 V2000
   52.8021  -26.4573   37.2850 F   0  0  0  0  0  0  0  0  0  0  0  0
   50.0922  -22.7399   36.5835 F   0  0  0  0  0  0  0  0  0  0  0  0
   52.9979  -22.8475   36.7387 O   0  0  0  0  0  0  0  0  0  0  0  0
   48.3244  -26.5592   38.8672 O   0  0  0  0  0  0  0  0  0  0  0  0
   48.5595  -32.2656   36.0400 N   0  0  0  0  0  0  0  0  0  0  0  0
   53.8490  -25.6389   32.6156 N   0  0  0  0  0  0  0  0  0  0  0  0
   52.3960  -27.4408   33.0473 N   0  0  0  0  0  0  0  0  0  0  0  0
   52.5366  -25.6552   34.6064 N   0  0  0  0  0  0  0  0  0  0  0  0
   47.2144  -25.8079   39.3290 C   0  0  0  0  0  0  0  0  0  0  0  0
   49.2134  -31.4302   35.5502 C   0  0  0  0  0  0  0  0  0  0  0  0
   54.3516  -24.4380   33.0176 C   0  0  0  0  0  0  0  0  0  0  0  0
   54.0017  -23.7942   34.1953 C   0  0  0  0  0  0  0  0  0  0  0  0
   51.0079  -29.4092   32.9508 C   0  0  0  0  0  0  0  0  0  0  0  0
   51.3988  -28.4155   35.0917 C   0  0  0  0  0  0  0  0  0  0  0  0
   50.2172  -30.4098   33.5391 C   0  0  0  0  0  0  0  0  0  0  0  0
   50.6085  -29.4095   35.6957 C   0  0  0  0  0  0  0  0  0  0  0  0
   50.5976  -26.5435   38.0641 C   0  0  0  0  0  0  0  0  0  0  0  0
   49.1688  -24.6247   37.7343 C   0  0  0  0  0  0  0  0  0  0  0  0
   51.6245  -25.8585   37.4305 C   0  0  0  0  0  0  0  0  0  0  0  0
   50.2276  -23.9722   37.0875 C   0  0  0  0  0  0  0  0  0  0  0  0
   52.5594  -23.8922   36.2517 C   0  0  0  0  0  0  0  0  0  0  0  0
   52.9371  -26.2187   33.4455 C   0  0  0  0  0  0  0  0  0  0  0  0
   49.3626  -25.9232   38.2378 C   0  0  0  0  0  0  0  0  0  0  0  0
   51.6091  -28.3931   33.7103 C   0  0  0  0  0  0  0  0  0  0  0  0
   53.0699  -24.4582   34.9699 C   0  0  0  0  0  0  0  0  0  0  0  0
   50.0163  -30.4124   34.9284 C   0  0  0  0  0  0  0  0  0  0  0  0
   51.4611  -24.5792   36.9441 C   0  0  0  0  0  0  0  0  0  0  0  0
   52.6120  -27.6864   32.1023 H   0  0  0  0  0  0  0  0  0  0  0  0
   46.5530  -26.4213   39.7606 H   0  0  0  0  0  0  0  0  0  0  0  0
   47.5247  -25.1301   39.9955 H   0  0  0  0  0  0  0  0  0  0  0  0
   46.7824  -25.3423   38.5566 H   0  0  0  0  0  0  0  0  0  0  0  0
   55.0186  -23.9898   32.4224 H   0  0  0  0  0  0  0  0  0  0  0  0
   54.3948  -22.9148   34.4639 H   0  0  0  0  0  0  0  0  0  0  0  0
   51.1470  -29.4209   31.9606 H   0  0  0  0  0  0  0  0  0  0  0  0
   51.8191  -27.7102   35.6625 H   0  0  0  0  0  0  0  0  0  0  0  0
   49.7989  -31.1180   32.9703 H   0  0  0  0  0  0  0  0  0  0  0  0
   50.4696  -29.3972   36.6859 H   0  0  0  0  0  0  0  0  0  0  0  0
   50.7431  -27.4763   38.3938 H   0  0  0  0  0  0  0  0  0  0  0  0
   48.2836  -24.1708   37.8367 H   0  0  0  0  0  0  0  0  0  0  0  0
  1 19  1  0  0  0  0
  2 20  1  0  0  0  0
  3 21  2  0  0  0  0
  4  9  1  0  0  0  0
  4 23  1  0  0  0  0
  5 10  3  0  0  0  0
  6 11  1  0  0  0  0
  6 22  2  0  0  0  0
  7 22  1  0  0  0  0
  7 24  1  0  0  0  0
  8 22  1  0  0  0  0
  8 25  2  0  0  0  0
 10 26  1  0  0  0  0
 11 12  2  0  0  0  0
 12 25  1  0  0  0  0
 13 15  1  0  0  0  0
 13 24  2  0  0  0  0
 14 16  2  0  0  0  0
 14 24  1  0  0  0  0
 15 26  2  0  0  0  0
 16 26  1  0  0  0  0
 17 19  2  0  0  0  0
 17 23  1  0  0  0  0
 18 20  1  0  0  0  0
 18 23  2  0  0  0  0
 19 27  1  0  0  0  0
 20 27  2  0  0  0  0
 21 25  1  0  0  0  0
 21 27  1  0  0  0  0
  7 28  1  0  0  0  0
  9 29  1  0  0  0  0
  9 30  1  0  0  0  0
  9 31  1  0  0  0  0
 11 32  1  0  0  0  0
 12 33  1  0  0  0  0
 13 34  1  0  0  0  0
 14 35  1  0  0  0  0
 15 36  1  0  0  0  0
 16 37  1  0  0  0  0
 17 38  1  0  0  0  0
 18 39  1  0  0  0  0
M  END
> <pdb_id>
5K14

> <uniprot_id>
P04585

> <usmiles>
Fc1c(c(F)cc(OC)c1)C(=O)c2nc(ncc2)Nc3ccc(C#N)cc3

$$$$
IBJ_A_803
          07192416573D 1   1.00000     0.00000     0
            
 55 59  0  0  0  0            999 V2000
   17.0711   -2.7040   23.3761 O   0  0  0  0  0  0  0  0  0  0  0  0
   20.0026   -3.6162   19.1931 O   0  0  0  0  0  0  0  0  0  0  0  0
   18.9352   -1.5889   13.5933 N   0  0  0  0  0  0  0  0  0  0  0  0
   20.3443   -3.4463   13.6752 N   0  0  0  0  0  0  0  0  0  0  0  0
   20.2882   -5.2376   23.9003 N   0  0  0  0  0  0  0  0  0  0  0  0
   23.8080   -4.6554   23.1269 N   0  0  0  0  0  0  0  0  0  0  0  0
   18.8574   -3.4022   21.1369 N   0  0  0  0  0  0  0  0  0  0  0  0
   18.9405   -2.8620   17.0155 N   0  0  0  0  0  0  0  0  0  0  0  0
   17.0239   -1.8330   19.9495 N   0  0  0  0  0  0  0  0  0  0  0  0
   19.1787   -4.7932   23.1802 N   0  0  0  0  0  0  0  0  0  0  0  0
   19.7670   -2.4527   13.0014 C   0  0  0  0  0  0  0  0  0  0  0  0
   17.1787   -3.7678   24.3398 C   0  0  0  0  0  0  0  0  0  0  0  0
   25.0372   -4.7881   23.6089 C   0  0  0  0  0  0  0  0  0  0  0  0
   18.6317   -1.6831   14.8829 C   0  0  0  0  0  0  0  0  0  0  0  0
   20.0776   -3.6068   14.9813 C   0  0  0  0  0  0  0  0  0  0  0  0
   17.7925   -5.0037   23.6520 C   0  0  0  0  0  0  0  0  0  0  0  0
   25.2240   -5.3638   24.8710 C   0  0  0  0  0  0  0  0  0  0  0  0
   24.1174   -5.7921   25.6354 C   0  0  0  0  0  0  0  0  0  0  0  0
   22.8446   -5.6177   25.1105 C   0  0  0  0  0  0  0  0  0  0  0  0
   16.8717   -1.5389   17.1992 C   0  0  0  0  0  0  0  0  0  0  0  0
   15.9159   -0.9596   18.0381 C   0  0  0  0  0  0  0  0  0  0  0  0
   15.3654    0.4456   21.4355 C   0  0  0  0  0  0  0  0  0  0  0  0
   14.8739   -0.9660   21.7621 C   0  0  0  0  0  0  0  0  0  0  0  0
   21.0063   -4.0359   22.1624 C   0  0  0  0  0  0  0  0  0  0  0  0
   19.0516   -3.1807   19.8221 C   0  0  0  0  0  0  0  0  0  0  0  0
   19.6462   -4.0661   22.0898 C   0  0  0  0  0  0  0  0  0  0  0  0
   19.2026   -2.7166   15.6443 C   0  0  0  0  0  0  0  0  0  0  0  0
   21.3762   -4.8155   23.2964 C   0  0  0  0  0  0  0  0  0  0  0  0
   22.7354   -5.0483   23.8271 C   0  0  0  0  0  0  0  0  0  0  0  0
   17.9306   -2.2603   17.7693 C   0  0  0  0  0  0  0  0  0  0  0  0
   16.0186   -1.1344   19.4277 C   0  0  0  0  0  0  0  0  0  0  0  0
   17.9702   -2.3931   19.1723 C   0  0  0  0  0  0  0  0  0  0  0  0
   14.9577   -0.5123   20.3070 C   0  0  0  0  0  0  0  0  0  0  0  0
   16.6736   -1.8972   23.8132 H   0  0  0  0  0  0  0  0  0  0  0  0
   18.0024   -3.0285   21.4966 H   0  0  0  0  0  0  0  0  0  0  0  0
   19.5541   -3.4732   17.5155 H   0  0  0  0  0  0  0  0  0  0  0  0
   19.9610   -2.3499   12.0258 H   0  0  0  0  0  0  0  0  0  0  0  0
   16.2706   -3.9955   24.6913 H   0  0  0  0  0  0  0  0  0  0  0  0
   17.7657   -3.4780   25.0957 H   0  0  0  0  0  0  0  0  0  0  0  0
   25.8239   -4.4791   23.0746 H   0  0  0  0  0  0  0  0  0  0  0  0
   18.0058   -1.0278   15.3059 H   0  0  0  0  0  0  0  0  0  0  0  0
   20.4997   -4.3592   15.4870 H   0  0  0  0  0  0  0  0  0  0  0  0
   17.7926   -5.7611   24.3050 H   0  0  0  0  0  0  0  0  0  0  0  0
   17.2237   -5.2423   22.8649 H   0  0  0  0  0  0  0  0  0  0  0  0
   26.1494   -5.4725   25.2343 H   0  0  0  0  0  0  0  0  0  0  0  0
   24.2475   -6.2113   26.5339 H   0  0  0  0  0  0  0  0  0  0  0  0
   22.0317   -5.8874   25.6267 H   0  0  0  0  0  0  0  0  0  0  0  0
   16.8016   -1.4404   16.2066 H   0  0  0  0  0  0  0  0  0  0  0  0
   15.1645   -0.4247   17.6519 H   0  0  0  0  0  0  0  0  0  0  0  0
   16.3278    0.6837   21.5669 H   0  0  0  0  0  0  0  0  0  0  0  0
   14.7938    1.2373   21.6513 H   0  0  0  0  0  0  0  0  0  0  0  0
   13.9814   -1.0964   22.1938 H   0  0  0  0  0  0  0  0  0  0  0  0
   15.5153   -1.6500   22.1095 H   0  0  0  0  0  0  0  0  0  0  0  0
   21.6259   -3.5585   21.5395 H   0  0  0  0  0  0  0  0  0  0  0  0
   14.0845   -0.3141   19.8618 H   0  0  0  0  0  0  0  0  0  0  0  0
  1 12  1  0  0  0  0
  2 25  2  0  0  0  0
  3 11  2  0  0  0  0
  3 14  1  0  0  0  0
  4 11  1  0  0  0  0
  4 15  2  0  0  0  0
  5 10  1  0  0  0  0
  5 28  2  0  0  0  0
  6 13  1  0  0  0  0
  6 29  2  0  0  0  0
  7 25  1  0  0  0  0
  7 26  1  0  0  0  0
  8 27  1  0  0  0  0
  8 30  1  0  0  0  0
  9 31  1  0  0  0  0
  9 32  2  0  0  0  0
 10 16  1  0  0  0  0
 10 26  1  0  0  0  0
 12 16  1  0  0  0  0
 13 17  2  0  0  0  0
 14 27  2  0  0  0  0
 15 27  1  0  0  0  0
 17 18  1  0  0  0  0
 18 19  2  0  0  0  0
 19 29  1  0  0  0  0
 20 21  1  0  0  0  0
 20 30  2  0  0  0  0
 21 31  2  0  0  0  0
 22 23  1  0  0  0  0
 22 33  1  0  0  0  0
 23 33  1  0  0  0  0
 24 26  2  0  0  0  0
 24 28  1  0  0  0  0
 25 32  1  0  0  0  0
 28 29  1  0  0  0  0
 30 32  1  0  0  0  0
 31 33  1  0  0  0  0
  1 34  1  0  0  0  0
  7 35  1  0  0  0  0
  8 36  1  0  0  0  0
 11 37  1  0  0  0  0
 12 38  1  0  0  0  0
 12 39  1  0  0  0  0
 13 40  1  0  0  0  0
 14 41  1  0  0  0  0
 15 42  1  0  0  0  0
 16 43  1  0  0  0  0
 16 44  1  0  0  0  0
 17 45  1  0  0  0  0
 18 46  1  0  0  0  0
 19 47  1  0  0  0  0
 20 48  1  0  0  0  0
 21 49  1  0  0  0  0
 22 50  1  0  0  0  0
 22 51  1  0  0  0  0
 23 52  1  0  0  0  0
 23 53  1  0  0  0  0
 24 54  1  0  0  0  0
 33 55  1  0  0  0  0
M  END
> <pdb_id>
5SE0

> <uniprot_id>
Q9Y233

> <usmiles>
O=C(NC=1N(N=C(c2ncccc2)C1)CCO)c3nc(ccc3Nc4cncnc4)C5CC5

$$$$
IBP_A_703
          07202404183D 1   1.00000     0.00000     0
            
 33 33  0  0  0  0            999 V2000
   28.4413   19.0219   17.9209 O   0  0  0  0  0  0  0  0  0  0  0  0
   26.4081   18.3435   18.3486 O   0  0  0  0  0  0  0  0  0  0  0  0
   25.5929   25.0476   12.3025 C   0  0  0  0  0  0  0  0  0  0  0  0
   25.2441   22.7319   13.1263 C   0  0  0  0  0  0  0  0  0  0  0  0
   28.0244   21.0965   19.8714 C   0  0  0  0  0  0  0  0  0  0  0  0
   27.7004   22.9954   16.0454 C   0  0  0  0  0  0  0  0  0  0  0  0
   25.3388   23.0724   16.4665 C   0  0  0  0  0  0  0  0  0  0  0  0
   27.8556   22.0692   17.0656 C   0  0  0  0  0  0  0  0  0  0  0  0
   25.4941   22.1462   17.4868 C   0  0  0  0  0  0  0  0  0  0  0  0
   26.3253   24.5168   14.6048 C   0  0  0  0  0  0  0  0  0  0  0  0
   27.2800   19.2528   18.3596 C   0  0  0  0  0  0  0  0  0  0  0  0
   25.2788   24.2015   13.5330 C   0  0  0  0  0  0  0  0  0  0  0  0
   26.4434   23.4926   15.7365 C   0  0  0  0  0  0  0  0  0  0  0  0
   26.9215   20.6319   18.9172 C   0  0  2  0  0  0  0  0  0  0  0  0
   26.7515   21.6449   17.7859 C   0  0  0  0  0  0  0  0  0  0  0  0
   29.1322   19.7448   17.9303 H   0  0  0  0  0  0  0  0  0  0  0  0
   25.6177   26.0137   12.5598 H   0  0  0  0  0  0  0  0  0  0  0  0
   26.4815   24.7786   11.9310 H   0  0  0  0  0  0  0  0  0  0  0  0
   24.8852   24.9051   11.6105 H   0  0  0  0  0  0  0  0  0  0  0  0
   25.0388   22.1692   13.9271 H   0  0  0  0  0  0  0  0  0  0  0  0
   24.5373   22.5947   12.4324 H   0  0  0  0  0  0  0  0  0  0  0  0
   26.1335   22.4683   12.7528 H   0  0  0  0  0  0  0  0  0  0  0  0
   27.7913   21.9978   20.2366 H   0  0  0  0  0  0  0  0  0  0  0  0
   28.1107   20.4439   20.6241 H   0  0  0  0  0  0  0  0  0  0  0  0
   28.8918   21.1514   19.3767 H   0  0  0  0  0  0  0  0  0  0  0  0
   28.4989   23.3063   15.5299 H   0  0  0  0  0  0  0  0  0  0  0  0
   24.4320   23.4378   16.2564 H   0  0  0  0  0  0  0  0  0  0  0  0
   28.7631   21.7084   17.2809 H   0  0  0  0  0  0  0  0  0  0  0  0
   24.6975   21.8394   18.0077 H   0  0  0  0  0  0  0  0  0  0  0  0
   26.0918   25.3997   15.0122 H   0  0  0  0  0  0  0  0  0  0  0  0
   27.2160   24.5823   14.1551 H   0  0  0  0  0  0  0  0  0  0  0  0
   24.3770   24.4603   13.8789 H   0  0  0  0  0  0  0  0  0  0  0  0
   26.0619   20.5636   19.4236 H   0  0  0  0  0  0  0  0  0  0  0  0
  1 11  1  0  0  0  0
  2 11  2  0  0  0  0
  3 12  1  0  0  0  0
  4 12  1  0  0  0  0
  5 14  1  0  0  0  0
  6  8  2  0  0  0  0
  6 13  1  0  0  0  0
  7  9  1  0  0  0  0
  7 13  2  0  0  0  0
  8 15  1  0  0  0  0
  9 15  2  0  0  0  0
 10 12  1  0  0  0  0
 10 13  1  0  0  0  0
 11 14  1  0  0  0  0
 14 15  1  0  0  0  0
  1 16  1  0  0  0  0
  3 17  1  0  0  0  0
  3 18  1  0  0  0  0
  3 19  1  0  0  0  0
  4 20  1  0  0  0  0
  4 21  1  0  0  0  0
  4 22  1  0  0  0  0
  5 23  1  0  0  0  0
  5 24  1  0  0  0  0
  5 25  1  0  0  0  0
  6 26  1  0  0  0  0
  7 27  1  0  0  0  0
  8 28  1  0  0  0  0
  9 29  1  0  0  0  0
 10 30  1  0  0  0  0
 10 31  1  0  0  0  0
 12 32  1  0  0  0  0
 14 33  1  0  0  0  0
M  END
> <pdb_id>
8ET0

> <uniprot_id>
Q05769

> <usmiles>
O=C(O)[C@H](c1ccc(cc1)CC(C)C)C

$$$$
IBY_A_803
          07192416573D 1   1.00000     0.00000     0
            
 43 46  0  0  0  0            999 V2000
   22.7879   -4.7587   22.5440 N   0  0  0  0  0  0  0  0  0  0  0  0
   19.7104   -3.2471   18.6185 N   0  0  0  0  0  0  0  0  0  0  0  0
   21.0314   -5.3549   23.8859 N   0  0  0  0  0  0  0  0  0  0  0  0
   19.7278   -5.6835   24.3420 C   0  0  0  0  0  0  0  0  0  0  0  0
   22.1753   -5.4002   24.6645 C   0  0  0  0  0  0  0  0  0  0  0  0
   27.3270   -4.5886   24.9221 C   0  0  0  0  0  0  0  0  0  0  0  0
   26.8723   -4.1400   23.6829 C   0  0  0  0  0  0  0  0  0  0  0  0
   26.4284   -5.2040   25.7738 C   0  0  0  0  0  0  0  0  0  0  0  0
   17.8018   -3.1297   15.4317 C   0  0  0  0  0  0  0  0  0  0  0  0
   16.5790   -2.5882   15.8623 C   0  0  0  0  0  0  0  0  0  0  0  0
   20.5607   -4.6767   21.3983 C   0  0  0  0  0  0  0  0  0  0  0  0
   20.6753   -3.2057   20.8881 C   0  0  0  0  0  0  0  0  0  0  0  0
   18.3426   -2.3701   20.3914 C   0  0  0  0  0  0  0  0  0  0  0  0
   18.8201   -3.3512   16.3319 C   0  0  0  0  0  0  0  0  0  0  0  0
   25.5340   -4.2994   23.3350 C   0  0  0  0  0  0  0  0  0  0  0  0
   25.0896   -5.3777   25.4401 C   0  0  0  0  0  0  0  0  0  0  0  0
   16.3936   -2.2481   17.1833 C   0  0  0  0  0  0  0  0  0  0  0  0
   17.2871   -2.1182   19.5217 C   0  0  0  0  0  0  0  0  0  0  0  0
   21.4409   -4.9332   22.5769 C   0  0  0  0  0  0  0  0  0  0  0  0
   19.5659   -2.9303   19.8927 C   0  0  0  0  0  0  0  0  0  0  0  0
   23.2521   -5.0750   23.8247 C   0  0  0  0  0  0  0  0  0  0  0  0
   18.6597   -3.0135   17.7179 C   0  0  0  0  0  0  0  0  0  0  0  0
   24.6377   -4.9413   24.1970 C   0  0  0  0  0  0  0  0  0  0  0  0
   17.4224   -2.4451   18.1274 C   0  0  0  0  0  0  0  0  0  0  0  0
   19.0745   -5.5716   23.5932 H   0  0  0  0  0  0  0  0  0  0  0  0
   19.7142   -6.6325   24.6571 H   0  0  0  0  0  0  0  0  0  0  0  0
   19.4763   -5.0780   25.0970 H   0  0  0  0  0  0  0  0  0  0  0  0
   22.2249   -5.6221   25.6383 H   0  0  0  0  0  0  0  0  0  0  0  0
   28.2830   -4.4677   25.1894 H   0  0  0  0  0  0  0  0  0  0  0  0
   27.5069   -3.7042   23.0447 H   0  0  0  0  0  0  0  0  0  0  0  0
   26.7522   -5.5355   26.6600 H   0  0  0  0  0  0  0  0  0  0  0  0
   17.9334   -3.3554   14.4664 H   0  0  0  0  0  0  0  0  0  0  0  0
   15.8384   -2.4490   15.2049 H   0  0  0  0  0  0  0  0  0  0  0  0
   20.8240   -5.2959   20.6585 H   0  0  0  0  0  0  0  0  0  0  0  0
   19.6119   -4.8542   21.6598 H   0  0  0  0  0  0  0  0  0  0  0  0
   21.5618   -3.0746   20.4443 H   0  0  0  0  0  0  0  0  0  0  0  0
   20.5934   -2.5769   21.6614 H   0  0  0  0  0  0  0  0  0  0  0  0
   18.2490   -2.1608   21.3648 H   0  0  0  0  0  0  0  0  0  0  0  0
   19.6805   -3.7517   16.0168 H   0  0  0  0  0  0  0  0  0  0  0  0
   25.2083   -3.9502   22.4564 H   0  0  0  0  0  0  0  0  0  0  0  0
   24.4592   -5.8106   26.0845 H   0  0  0  0  0  0  0  0  0  0  0  0
   15.5209   -1.8575   17.4762 H   0  0  0  0  0  0  0  0  0  0  0  0
   16.4394   -1.7123   19.8633 H   0  0  0  0  0  0  0  0  0  0  0  0
  1 19  2  0  0  0  0
  1 21  1  0  0  0  0
  2 20  2  0  0  0  0
  2 22  1  0  0  0  0
  3  4  1  0  0  0  0
  3  5  1  0  0  0  0
  3 19  1  0  0  0  0
  5 21  2  0  0  0  0
  6  7  2  0  0  0  0
  6  8  1  0  0  0  0
  7 15  1  0  0  0  0
  8 16  2  0  0  0  0
  9 10  2  0  0  0  0
  9 14  1  0  0  0  0
 10 17  1  0  0  0  0
 11 12  1  0  0  0  0
 11 19  1  0  0  0  0
 12 20  1  0  0  0  0
 13 18  2  0  0  0  0
 13 20  1  0  0  0  0
 14 22  2  0  0  0  0
 15 23  2  0  0  0  0
 16 23  1  0  0  0  0
 17 24  2  0  0  0  0
 18 24  1  0  0  0  0
 21 23  1  0  0  0  0
 22 24  1  0  0  0  0
  4 25  1  0  0  0  0
  4 26  1  0  0  0  0
  4 27  1  0  0  0  0
  5 28  1  0  0  0  0
  6 29  1  0  0  0  0
  7 30  1  0  0  0  0
  8 31  1  0  0  0  0
  9 32  1  0  0  0  0
 10 33  1  0  0  0  0
 11 34  1  0  0  0  0
 11 35  1  0  0  0  0
 12 36  1  0  0  0  0
 12 37  1  0  0  0  0
 13 38  1  0  0  0  0
 14 39  1  0  0  0  0
 15 40  1  0  0  0  0
 16 41  1  0  0  0  0
 17 42  1  0  0  0  0
 18 43  1  0  0  0  0
M  END
> <pdb_id>
5SE2

> <uniprot_id>
Q9Y233

> <usmiles>
n1c2c(ccc1CCC3=NC(c4ccccc4)=CN3C)cccc2

$$$$
ICJ_A_1
          07202400393D 1   1.00000     0.00000     0
            
 86 88  0  0  0  0            999 V2000
   17.9657    8.2841   19.1760 O   0  0  0  0  0  0  0  0  0  0  0  0
   11.1823   -1.7345   27.7541 O   0  0  0  0  0  0  0  0  0  0  0  0
   15.3037    5.0803   17.8991 O   0  0  0  0  0  0  0  0  0  0  0  0
   15.5090    1.4129   30.8232 C   0  0  0  0  0  0  0  0  0  0  0  0
    8.3283   -0.7133   28.1096 C   0  0  0  0  0  0  0  0  0  0  0  0
    8.5178    0.0855   25.7624 C   0  0  0  0  0  0  0  0  0  0  0  0
   14.2509    5.0925   20.4110 C   0  0  0  0  0  0  0  0  0  0  0  0
   11.6668    3.5027   27.9282 C   0  0  0  0  0  0  0  0  0  0  0  0
   12.8835    4.7663   24.7283 C   0  0  0  0  0  0  0  0  0  0  0  0
   15.2481    0.1356   29.9948 C   0  0  0  0  0  0  0  0  0  0  0  0
   14.6746    0.4515   28.6106 C   0  0  0  0  0  0  0  0  0  0  0  0
   14.3390    7.1587   26.2959 C   0  0  0  0  0  0  0  0  0  0  0  0
   13.2407    0.9722   28.7301 C   0  0  0  0  0  0  0  0  0  0  0  0
   15.6586    7.0758   25.4990 C   0  0  0  0  0  0  0  0  0  0  0  0
   16.0325    6.9228   22.4346 C   0  0  0  0  0  0  0  0  0  0  0  0
   15.9003    5.7929   23.2375 C   0  0  0  0  0  0  0  0  0  0  0  0
   14.5725    2.2689   25.4506 C   0  0  0  0  0  0  0  0  0  0  0  0
   15.6268    3.1225   24.7269 C   0  0  0  0  0  0  0  0  0  0  0  0
   15.9160    7.4387   18.1308 C   0  0  0  0  0  0  0  0  0  0  0  0
   15.9784    8.4620   20.5088 C   0  0  0  0  0  0  0  0  0  0  0  0
   11.0010    0.6243   27.6504 C   0  0  0  0  0  0  0  0  0  0  0  0
   13.9188    5.7740   26.9020 C   0  0  0  0  0  0  0  0  0  0  0  0
   16.5726    8.5196   19.0795 C   0  0  1  0  0  0  0  0  0  0  0  0
    9.0924   -0.9164   26.7769 C   0  0  0  0  0  0  0  0  0  0  0  0
   10.6330   -0.7035   26.9510 C   0  0  2  0  0  0  0  0  0  0  0  0
   15.9553    6.0145   18.7659 C   0  0  1  0  0  0  0  0  0  0  0  0
   15.2810    6.0296   20.1606 C   0  0  0  0  0  0  0  0  0  0  0  0
   12.3919    2.5956   26.8833 C   0  0  2  0  0  0  0  0  0  0  0  0
   15.7451    7.0318   21.0599 C   0  0  0  0  0  0  0  0  0  0  0  0
   12.4511    1.1097   27.4027 C   0  0  1  0  0  0  0  0  0  0  0  0
   15.7235    5.7845   24.6149 C   0  0  0  0  0  0  0  0  0  0  0  0
   13.8254    3.1594   26.5109 C   0  0  2  0  0  0  0  0  0  0  0  0
   15.4779    4.4852   25.4504 C   0  0  1  0  0  0  0  0  0  0  0  0
   13.9728    4.5725   25.8751 C   0  0  1  0  0  0  0  0  0  0  0  0
   18.3787    8.9689   19.7765 H   0  0  0  0  0  0  0  0  0  0  0  0
   10.9728   -2.6228   27.3454 H   0  0  0  0  0  0  0  0  0  0  0  0
   15.3312    4.1691   18.3101 H   0  0  0  0  0  0  0  0  0  0  0  0
   15.8817    1.1607   31.7162 H   0  0  0  0  0  0  0  0  0  0  0  0
   16.1638    1.9950   30.3410 H   0  0  0  0  0  0  0  0  0  0  0  0
   14.6504    1.9100   30.9487 H   0  0  0  0  0  0  0  0  0  0  0  0
    8.6782   -1.3519   28.7951 H   0  0  0  0  0  0  0  0  0  0  0  0
    8.4602    0.2248   28.4299 H   0  0  0  0  0  0  0  0  0  0  0  0
    7.3534   -0.8818   27.9640 H   0  0  0  0  0  0  0  0  0  0  0  0
    8.9901   -0.0185   24.8871 H   0  0  0  0  0  0  0  0  0  0  0  0
    7.5413   -0.0900   25.6371 H   0  0  0  0  0  0  0  0  0  0  0  0
    8.6481    1.0166   26.1030 H   0  0  0  0  0  0  0  0  0  0  0  0
   13.7954    5.0761   21.3011 H   0  0  0  0  0  0  0  0  0  0  0  0
   13.9784    4.4466   19.6979 H   0  0  0  0  0  0  0  0  0  0  0  0
   11.6350    4.4427   27.5884 H   0  0  0  0  0  0  0  0  0  0  0  0
   10.7353    3.1681   28.0706 H   0  0  0  0  0  0  0  0  0  0  0  0
   12.1659    3.4780   28.7943 H   0  0  0  0  0  0  0  0  0  0  0  0
   12.9321    3.9986   24.0893 H   0  0  0  0  0  0  0  0  0  0  0  0
   11.9717    4.8023   25.1374 H   0  0  0  0  0  0  0  0  0  0  0  0
   13.0632    5.6195   24.2387 H   0  0  0  0  0  0  0  0  0  0  0  0
   14.5979   -0.4415   30.4888 H   0  0  0  0  0  0  0  0  0  0  0  0
   16.1112   -0.3565   29.8812 H   0  0  0  0  0  0  0  0  0  0  0  0
   14.6773   -0.3805   28.0557 H   0  0  0  0  0  0  0  0  0  0  0  0
   15.2418    1.1476   28.1705 H   0  0  0  0  0  0  0  0  0  0  0  0
   13.6137    7.4750   25.6843 H   0  0  0  0  0  0  0  0  0  0  0  0
   14.4551    7.8141   27.0422 H   0  0  0  0  0  0  0  0  0  0  0  0
   13.2785    1.8753   29.1580 H   0  0  0  0  0  0  0  0  0  0  0  0
   12.7360    0.3438   29.3220 H   0  0  0  0  0  0  0  0  0  0  0  0
   16.4248    7.0671   26.1415 H   0  0  0  0  0  0  0  0  0  0  0  0
   15.7298    7.8779   24.9061 H   0  0  0  0  0  0  0  0  0  0  0  0
   16.3693    7.7499   22.8845 H   0  0  0  0  0  0  0  0  0  0  0  0
   15.9361    4.9047   22.7796 H   0  0  0  0  0  0  0  0  0  0  0  0
   15.0213    1.5040   25.9129 H   0  0  0  0  0  0  0  0  0  0  0  0
   13.9137    1.9165   24.7860 H   0  0  0  0  0  0  0  0  0  0  0  0
   15.4231    3.2036   23.7513 H   0  0  0  0  0  0  0  0  0  0  0  0
   16.5453    2.7453   24.8455 H   0  0  0  0  0  0  0  0  0  0  0  0
   16.4156    7.4214   17.2647 H   0  0  0  0  0  0  0  0  0  0  0  0
   14.9636    7.6919   17.9613 H   0  0  0  0  0  0  0  0  0  0  0  0
   15.0994    8.9388   20.4996 H   0  0  0  0  0  0  0  0  0  0  0  0
   16.6074    8.9343   21.1263 H   0  0  0  0  0  0  0  0  0  0  0  0
   10.8782    0.5015   28.6352 H   0  0  0  0  0  0  0  0  0  0  0  0
   10.3758    1.3323   27.3222 H   0  0  0  0  0  0  0  0  0  0  0  0
   12.9822    5.8526   27.2435 H   0  0  0  0  0  0  0  0  0  0  0  0
   14.5342    5.5648   27.6619 H   0  0  0  0  0  0  0  0  0  0  0  0
   16.4189    9.4303   18.6961 H   0  0  0  0  0  0  0  0  0  0  0  0
    8.9277   -1.8454   26.4457 H   0  0  0  0  0  0  0  0  0  0  0  0
   11.0676   -0.7273   26.0507 H   0  0  0  0  0  0  0  0  0  0  0  0
   16.9103    5.7384   18.8746 H   0  0  0  0  0  0  0  0  0  0  0  0
   11.8414    2.6001   26.0485 H   0  0  0  0  0  0  0  0  0  0  0  0
   12.8767    0.5335   26.7049 H   0  0  0  0  0  0  0  0  0  0  0  0
   14.3747    3.1507   27.3465 H   0  0  0  0  0  0  0  0  0  0  0  0
   16.0571    4.4967   26.2655 H   0  0  0  0  0  0  0  0  0  0  0  0
  1 23  1  0  0  0  0
  2 25  1  0  0  0  0
  3 26  1  0  0  0  0
  4 10  1  0  0  0  0
  5 24  1  0  0  0  0
  6 24  1  0  0  0  0
  7 27  2  0  0  0  0
  8 28  1  0  0  0  0
  9 34  1  0  0  0  0
 10 11  1  0  0  0  0
 11 13  1  0  0  0  0
 12 14  1  0  0  0  0
 12 22  1  0  0  0  0
 13 30  1  0  0  0  0
 14 31  1  0  0  0  0
 15 16  1  0  0  0  0
 15 29  2  0  0  0  0
 16 31  2  0  0  0  0
 17 18  1  0  0  0  0
 17 32  1  0  0  0  0
 18 33  1  0  0  0  0
 19 23  1  0  0  0  0
 19 26  1  0  0  0  0
 20 23  1  0  0  0  0
 20 29  1  0  0  0  0
 21 25  1  0  0  0  0
 21 30  1  0  0  0  0
 22 34  1  0  0  0  0
 24 25  1  0  0  0  0
 26 27  1  0  0  0  0
 27 29  1  0  0  0  0
 28 30  1  0  0  0  0
 28 32  1  0  0  0  0
 31 33  1  0  0  0  0
 32 34  1  0  0  0  0
 33 34  1  0  0  0  0
  1 35  1  0  0  0  0
  2 36  1  0  0  0  0
  3 37  1  0  0  0  0
  4 38  1  0  0  0  0
  4 39  1  0  0  0  0
  4 40  1  0  0  0  0
  5 41  1  0  0  0  0
  5 42  1  0  0  0  0
  5 43  1  0  0  0  0
  6 44  1  0  0  0  0
  6 45  1  0  0  0  0
  6 46  1  0  0  0  0
  7 47  1  0  0  0  0
  7 48  1  0  0  0  0
  8 49  1  0  0  0  0
  8 50  1  0  0  0  0
  8 51  1  0  0  0  0
  9 52  1  0  0  0  0
  9 53  1  0  0  0  0
  9 54  1  0  0  0  0
 10 55  1  0  0  0  0
 10 56  1  0  0  0  0
 11 57  1  0  0  0  0
 11 58  1  0  0  0  0
 12 59  1  0  0  0  0
 12 60  1  0  0  0  0
 13 61  1  0  0  0  0
 13 62  1  0  0  0  0
 14 63  1  0  0  0  0
 14 64  1  0  0  0  0
 15 65  1  0  0  0  0
 16 66  1  0  0  0  0
 17 67  1  0  0  0  0
 17 68  1  0  0  0  0
 18 69  1  0  0  0  0
 18 70  1  0  0  0  0
 19 71  1  0  0  0  0
 19 72  1  0  0  0  0
 20 73  1  0  0  0  0
 20 74  1  0  0  0  0
 21 75  1  0  0  0  0
 21 76  1  0  0  0  0
 22 77  1  0  0  0  0
 22 78  1  0  0  0  0
 23 79  1  0  0  0  0
 24 80  1  0  0  0  0
 25 81  1  0  0  0  0
 26 82  1  0  0  0  0
 28 83  1  0  0  0  0
 30 84  1  0  0  0  0
 32 85  1  0  0  0  0
 33 86  1  0  0  0  0
M  END
> <pdb_id>
3AFR

> <uniprot_id>
P13053

> <usmiles>
O[C@@H](C(C)C)C[C@@H]([C@H]([C@@H]1[C@@]2([C@H](/C(=C/C=C/3\C(=C)[C@@H](O)C[C@H](O)C3)/CCC2)CC1)C)C)CCCC

$$$$
ID2_A_1
          07192419053D 1   1.00000     0.00000     0
            
 28 29  0  0  0  0            999 V2000
   20.6909   90.4553   43.6409 I   0  0  0  0  0  0  0  0  0  0  0  0
   17.3466   93.8919   43.8042 O   0  0  0  0  0  0  0  0  0  0  0  0
   22.9442   96.0263   44.9389 O   0  0  0  0  0  0  0  0  0  0  0  0
   23.6220   91.6579   44.0824 O   0  0  0  0  0  0  0  0  0  0  0  0
   17.9098   97.9155   44.4483 O   0  0  0  0  0  0  0  0  0  0  0  0
   19.0060   95.1999   45.4984 O   0  0  0  0  0  0  0  0  0  0  0  0
   23.1409   93.8366   44.4885 N   0  0  0  0  0  0  0  0  0  0  0  0
   21.0174   94.7388   44.4785 N   0  0  0  0  0  0  0  0  0  0  0  0
   16.7592   94.4868   44.9137 C   0  0  0  0  0  0  0  0  0  0  0  0
   20.5698   93.4815   44.1945 C   0  0  0  0  0  0  0  0  0  0  0  0
   19.1780   96.2155   43.4857 C   0  0  0  0  0  0  0  0  0  0  0  0
   22.3748   94.9550   44.6566 C   0  0  0  0  0  0  0  0  0  0  0  0
   22.7813   92.5586   44.1967 C   0  0  0  0  0  0  0  0  0  0  0  0
   21.4086   92.4041   44.0519 C   0  0  0  0  0  0  0  0  0  0  0  0
   17.8478   96.6039   44.0649 C   0  0  1  0  0  0  0  0  0  0  0  0
   20.0360   95.8206   44.6731 C   0  0  1  0  0  0  0  0  0  0  0  0
   17.6721   95.6716   45.2744 C   0  0  2  0  0  0  0  0  0  0  0  0
   16.7972   93.1074   43.5165 H   0  0  0  0  0  0  0  0  0  0  0  0
   17.0307   98.1911   44.8370 H   0  0  0  0  0  0  0  0  0  0  0  0
   24.1243   93.9814   44.5977 H   0  0  0  0  0  0  0  0  0  0  0  0
   16.7108   93.8385   45.6736 H   0  0  0  0  0  0  0  0  0  0  0  0
   15.8390   94.8092   44.6916 H   0  0  0  0  0  0  0  0  0  0  0  0
   19.5862   93.3383   44.0854 H   0  0  0  0  0  0  0  0  0  0  0  0
   19.5870   96.9882   43.0002 H   0  0  0  0  0  0  0  0  0  0  0  0
   19.0742   95.4444   42.8575 H   0  0  0  0  0  0  0  0  0  0  0  0
   17.1156   96.4629   43.3986 H   0  0  0  0  0  0  0  0  0  0  0  0
   20.4428   96.6171   45.1206 H   0  0  0  0  0  0  0  0  0  0  0  0
   17.3245   96.1692   46.0691 H   0  0  0  0  0  0  0  0  0  0  0  0
  1 14  1  0  0  0  0
  2  9  1  0  0  0  0
  3 12  2  0  0  0  0
  4 13  2  0  0  0  0
  5 15  1  0  0  0  0
  6 16  1  0  0  0  0
  6 17  1  0  0  0  0
  7 12  1  0  0  0  0
  7 13  1  0  0  0  0
  8 10  1  0  0  0  0
  8 12  1  0  0  0  0
  8 16  1  0  0  0  0
  9 17  1  0  0  0  0
 10 14  2  0  0  0  0
 11 15  1  0  0  0  0
 11 16  1  0  0  0  0
 13 14  1  0  0  0  0
 15 17  1  0  0  0  0
  2 18  1  0  0  0  0
  5 19  1  0  0  0  0
  7 20  1  0  0  0  0
  9 21  1  0  0  0  0
  9 22  1  0  0  0  0
 10 23  1  0  0  0  0
 11 24  1  0  0  0  0
 11 25  1  0  0  0  0
 15 26  1  0  0  0  0
 16 27  1  0  0  0  0
 17 28  1  0  0  0  0
M  END
> <pdb_id>
1KI7

> <uniprot_id>
P03176

> <usmiles>
IC=1C(=O)NC(=O)N(C1)[C@@H]2O[C@@H]([C@@H](O)C2)CO

$$$$
ID5_A_320
          07202404503D 1   1.00000     0.00000     0
            
 38 40  0  0  0  0            999 V2000
   64.4162   -6.7624   36.6899 S   0  0  0  0  0  0  0  0  0  0  0  0
   61.9492  -11.5674   42.0743 F   0  0  0  0  0  0  0  0  0  0  0  0
   61.8943   -5.8558   34.8808 F   0  0  0  0  0  0  0  0  0  0  0  0
   64.5928   -2.7361   32.4126 F   0  0  0  0  0  0  0  0  0  0  0  0
   66.8270   -3.4345   33.9017 F   0  0  0  0  0  0  0  0  0  0  0  0
   63.2013   -6.2105   40.5967 O   0  0  0  0  0  0  0  0  0  0  0  0
   62.8088   -5.9538   42.7576 O   0  0  0  0  0  0  0  0  0  0  0  0
   66.3589   -9.8406   37.7255 O   0  0  0  0  0  0  0  0  0  0  0  0
   65.2472   -8.0791   41.2530 O   0  0  0  0  0  0  0  0  0  0  0  0
   66.2121   -7.8287   38.8410 N   0  0  0  0  0  0  0  0  0  0  0  0
   66.5629   -5.4620   35.9970 N   0  0  0  0  0  0  0  0  0  0  0  0
   64.7450   -7.2290   42.2919 C   0  0  0  0  0  0  0  0  0  0  0  0
   66.9581   -7.0769   37.8656 C   0  0  0  0  0  0  0  0  0  0  0  0
   63.1605  -11.5545   39.9650 C   0  0  0  0  0  0  0  0  0  0  0  0
   64.1374  -10.9284   39.1446 C   0  0  0  0  0  0  0  0  0  0  0  0
   63.2237   -4.2931   33.6370 C   0  0  0  0  0  0  0  0  0  0  0  0
   63.5471   -9.8511   41.7187 C   0  0  0  0  0  0  0  0  0  0  0  0
   66.0992   -6.3818   36.8342 C   0  0  0  0  0  0  0  0  0  0  0  0
   63.5614   -6.4475   41.7527 C   0  0  0  0  0  0  0  0  0  0  0  0
   62.8709  -11.0033   41.2596 C   0  0  0  0  0  0  0  0  0  0  0  0
   64.2408   -5.6511   35.4340 C   0  0  0  0  0  0  0  0  0  0  0  0
   63.0981   -5.2746   34.6531 C   0  0  0  0  0  0  0  0  0  0  0  0
   64.4946   -3.6703   33.3858 C   0  0  0  0  0  0  0  0  0  0  0  0
   65.6540   -4.0222   34.1468 C   0  0  0  0  0  0  0  0  0  0  0  0
   65.8538   -9.1639   38.6431 C   0  0  0  0  0  0  0  0  0  0  0  0
   64.5282   -9.2262   40.8844 C   0  0  0  0  0  0  0  0  0  0  0  0
   65.5249   -5.0166   35.1749 C   0  0  0  0  0  0  0  0  0  0  0  0
   64.8392   -9.7597   39.5790 C   0  0  0  0  0  0  0  0  0  0  0  0
   63.7337   -6.5598   39.8256 H   0  0  0  0  0  0  0  0  0  0  0  0
   65.9406   -7.3781   39.6915 H   0  0  0  0  0  0  0  0  0  0  0  0
   65.4615   -6.5954   42.5838 H   0  0  0  0  0  0  0  0  0  0  0  0
   64.4544   -7.7851   43.0705 H   0  0  0  0  0  0  0  0  0  0  0  0
   67.5745   -7.7043   37.3897 H   0  0  0  0  0  0  0  0  0  0  0  0
   67.4945   -6.3834   38.3466 H   0  0  0  0  0  0  0  0  0  0  0  0
   62.6794  -12.3704   39.6444 H   0  0  0  0  0  0  0  0  0  0  0  0
   64.3389  -11.3133   38.2439 H   0  0  0  0  0  0  0  0  0  0  0  0
   62.4255   -4.0335   33.0935 H   0  0  0  0  0  0  0  0  0  0  0  0
   63.3414   -9.4739   42.6217 H   0  0  0  0  0  0  0  0  0  0  0  0
  1 18  1  0  0  0  0
  1 21  1  0  0  0  0
  2 20  1  0  0  0  0
  3 22  1  0  0  0  0
  4 23  1  0  0  0  0
  5 24  1  0  0  0  0
  6 19  1  0  0  0  0
  7 19  2  0  0  0  0
  8 25  2  0  0  0  0
  9 12  1  0  0  0  0
  9 26  1  0  0  0  0
 10 13  1  0  0  0  0
 10 25  1  0  0  0  0
 11 18  2  0  0  0  0
 11 27  1  0  0  0  0
 12 19  1  0  0  0  0
 13 18  1  0  0  0  0
 14 15  1  0  0  0  0
 14 20  2  0  0  0  0
 15 28  2  0  0  0  0
 16 22  2  0  0  0  0
 16 23  1  0  0  0  0
 17 20  1  0  0  0  0
 17 26  2  0  0  0  0
 21 22  1  0  0  0  0
 21 27  2  0  0  0  0
 23 24  2  0  0  0  0
 24 27  1  0  0  0  0
 25 28  1  0  0  0  0
 26 28  1  0  0  0  0
  6 29  1  0  0  0  0
 10 30  1  0  0  0  0
 12 31  1  0  0  0  0
 12 32  1  0  0  0  0
 13 33  1  0  0  0  0
 13 34  1  0  0  0  0
 14 35  1  0  0  0  0
 15 36  1  0  0  0  0
 16 37  1  0  0  0  0
 17 38  1  0  0  0  0
M  END
> <pdb_id>
1T40

> <uniprot_id>
P15121

> <usmiles>
S1c2c(F)cc(F)c(F)c2N=C1CNC(=O)c3c(OCC(=O)O)cc(F)cc3

$$$$
ID9_B_803
          07192416573D 1   1.00000     0.00000     0
            
 44 47  0  0  0  0            999 V2000
   19.8863   -3.8551   21.7393 O   0  0  0  0  0  0  0  0  0  0  0  0
   19.1745   -3.6746   19.4407 N   0  0  0  0  0  0  0  0  0  0  0  0
   16.3695   -2.0109   18.0013 N   0  0  0  0  0  0  0  0  0  0  0  0
   23.0700   -4.7568   22.5164 N   0  0  0  0  0  0  0  0  0  0  0  0
   18.2279   -3.1357   18.6189 N   0  0  0  0  0  0  0  0  0  0  0  0
   21.3326   -5.6054   23.6390 N   0  0  0  0  0  0  0  0  0  0  0  0
   19.9703   -6.0082   24.0184 C   0  0  0  0  0  0  0  0  0  0  0  0
   16.4378   -2.3897   15.5242 C   0  0  0  0  0  0  0  0  0  0  0  0
   19.2048   -4.0742   16.5948 C   0  0  0  0  0  0  0  0  0  0  0  0
   20.9122   -4.6309   21.2559 C   0  0  0  0  0  0  0  0  0  0  0  0
   22.4093   -5.6760   24.4534 C   0  0  0  0  0  0  0  0  0  0  0  0
   27.5119   -4.6981   25.2539 C   0  0  0  0  0  0  0  0  0  0  0  0
   27.1562   -4.2075   23.9657 C   0  0  0  0  0  0  0  0  0  0  0  0
   26.5437   -5.3731   26.0218 C   0  0  0  0  0  0  0  0  0  0  0  0
   17.8802   -2.5821   21.2822 C   0  0  0  0  0  0  0  0  0  0  0  0
   16.9299   -2.0621   20.4196 C   0  0  0  0  0  0  0  0  0  0  0  0
   25.8936   -4.3992   23.5056 C   0  0  0  0  0  0  0  0  0  0  0  0
   25.2233   -5.5040   25.5322 C   0  0  0  0  0  0  0  0  0  0  0  0
   18.9778   -3.3946   20.8252 C   0  0  0  0  0  0  0  0  0  0  0  0
   21.7664   -4.9825   22.4404 C   0  0  0  0  0  0  0  0  0  0  0  0
   17.1072   -2.3693   19.0576 C   0  0  0  0  0  0  0  0  0  0  0  0
   16.9824   -2.5517   16.8977 C   0  0  0  0  0  0  0  0  0  0  0  0
   23.5093   -5.2030   23.7459 C   0  0  0  0  0  0  0  0  0  0  0  0
   18.1612   -3.3042   17.3285 C   0  0  0  0  0  0  0  0  0  0  0  0
   24.9206   -5.0982   24.2699 C   0  0  0  0  0  0  0  0  0  0  0  0
   19.3520   -5.8613   23.2462 H   0  0  0  0  0  0  0  0  0  0  0  0
   19.9665   -6.9763   24.2690 H   0  0  0  0  0  0  0  0  0  0  0  0
   19.6658   -5.4609   24.7980 H   0  0  0  0  0  0  0  0  0  0  0  0
   17.0335   -2.8585   14.8720 H   0  0  0  0  0  0  0  0  0  0  0  0
   15.5200   -2.7845   15.4808 H   0  0  0  0  0  0  0  0  0  0  0  0
   16.3934   -1.4172   15.2958 H   0  0  0  0  0  0  0  0  0  0  0  0
   18.9813   -4.0936   15.6203 H   0  0  0  0  0  0  0  0  0  0  0  0
   20.0946   -3.6366   16.7241 H   0  0  0  0  0  0  0  0  0  0  0  0
   19.2388   -5.0093   16.9477 H   0  0  0  0  0  0  0  0  0  0  0  0
   21.4464   -4.1191   20.5831 H   0  0  0  0  0  0  0  0  0  0  0  0
   20.5491   -5.4606   20.8319 H   0  0  0  0  0  0  0  0  0  0  0  0
   22.4140   -6.0090   25.3964 H   0  0  0  0  0  0  0  0  0  0  0  0
   28.4373   -4.5651   25.6089 H   0  0  0  0  0  0  0  0  0  0  0  0
   27.8301   -3.7263   23.4051 H   0  0  0  0  0  0  0  0  0  0  0  0
   26.7890   -5.7590   26.9111 H   0  0  0  0  0  0  0  0  0  0  0  0
   17.8013   -2.3859   22.2595 H   0  0  0  0  0  0  0  0  0  0  0  0
   16.1662   -1.5037   20.7439 H   0  0  0  0  0  0  0  0  0  0  0  0
   25.6420   -4.0397   22.6070 H   0  0  0  0  0  0  0  0  0  0  0  0
   24.5112   -5.8954   26.1151 H   0  0  0  0  0  0  0  0  0  0  0  0
  1 10  1  0  0  0  0
  1 19  1  0  0  0  0
  2  5  1  0  0  0  0
  2 19  2  0  0  0  0
  3 21  2  0  0  0  0
  3 22  1  0  0  0  0
  4 20  2  0  0  0  0
  4 23  1  0  0  0  0
  5 21  1  0  0  0  0
  5 24  1  0  0  0  0
  6  7  1  0  0  0  0
  6 11  1  0  0  0  0
  6 20  1  0  0  0  0
  8 22  1  0  0  0  0
  9 24  1  0  0  0  0
 10 20  1  0  0  0  0
 11 23  2  0  0  0  0
 12 13  2  0  0  0  0
 12 14  1  0  0  0  0
 13 17  1  0  0  0  0
 14 18  2  0  0  0  0
 15 16  2  0  0  0  0
 15 19  1  0  0  0  0
 16 21  1  0  0  0  0
 17 25  2  0  0  0  0
 18 25  1  0  0  0  0
 22 24  2  0  0  0  0
 23 25  1  0  0  0  0
  7 26  1  0  0  0  0
  7 27  1  0  0  0  0
  7 28  1  0  0  0  0
  8 29  1  0  0  0  0
  8 30  1  0  0  0  0
  8 31  1  0  0  0  0
  9 32  1  0  0  0  0
  9 33  1  0  0  0  0
  9 34  1  0  0  0  0
 10 35  1  0  0  0  0
 10 36  1  0  0  0  0
 11 37  1  0  0  0  0
 12 38  1  0  0  0  0
 13 39  1  0  0  0  0
 14 40  1  0  0  0  0
 15 41  1  0  0  0  0
 16 42  1  0  0  0  0
 17 43  1  0  0  0  0
 18 44  1  0  0  0  0
M  END
> <pdb_id>
5SE9

> <uniprot_id>
Q9Y233

> <usmiles>
O(C1=NN2C(=NC(=C2C)C)C=C1)CC3=NC(c4ccccc4)=CN3C

$$$$
IDC_A_600
          07202408413D 1   1.00000     0.00000     0
            
 47 49  0  0  0  0            999 V2000
   30.3900   55.4390  -25.6330 O   0  0  0  0  0  0  0  0  0  0  0  0
   27.3190   60.5550  -29.0880 O   0  0  0  0  0  0  0  0  0  0  0  0
   29.3000   61.2320  -25.5330 O   0  0  0  0  0  0  0  0  0  0  0  0
   31.9270   60.3160  -25.0700 O   0  0  0  0  0  0  0  0  0  0  0  0
   32.7210   58.0680  -26.6760 O   0  0  0  0  0  0  0  0  0  0  0  0
   23.3330   56.5350  -26.8220 O   0  0  0  0  0  0  0  0  0  0  0  0
   25.9930   56.7910  -25.5530 O   0  0  0  0  0  0  0  0  0  0  0  0
   29.0110   57.7000  -26.4710 O   0  0  0  0  0  0  0  0  0  0  0  0
   27.3320   59.1620  -25.9120 O   0  0  0  0  0  0  0  0  0  0  0  0
   23.3520   58.1390  -29.5630 N   0  0  0  0  0  0  0  0  0  0  0  0
   24.6780   59.5290  -28.5060 N   0  0  0  0  0  0  0  0  0  0  0  0
   30.6090   55.9670  -26.9480 C   0  0  0  0  0  0  0  0  0  0  0  0
   26.5310   61.0610  -28.0110 C   0  0  0  0  0  0  0  0  0  0  0  0
   23.3950   59.3050  -30.2150 C   0  0  0  0  0  0  0  0  0  0  0  0
   24.1950   60.1500  -29.5720 C   0  0  0  0  0  0  0  0  0  0  0  0
   28.6580   59.0970  -26.4550 C   0  0  1  0  0  0  0  0  0  0  0  0
   29.6170   59.8630  -25.5440 C   0  0  1  0  0  0  0  0  0  0  0  0
   31.0650   59.6880  -26.0140 C   0  0  2  0  0  0  0  0  0  0  0  0
   31.4030   58.2110  -26.1100 C   0  0  1  0  0  0  0  0  0  0  0  0
   24.4830   57.1950  -27.3960 C   0  0  2  0  0  0  0  0  0  0  0  0
   25.3330   57.8290  -26.2930 C   0  0  2  0  0  0  0  0  0  0  0  0
   30.3640   57.4790  -26.9800 C   0  0  2  0  0  0  0  0  0  0  0  0
   24.1230   58.2290  -28.4830 C   0  0  0  0  0  0  0  0  0  0  0  0
   26.3640   58.7810  -26.8970 C   0  0  1  0  0  0  0  0  0  0  0  0
   25.5960   59.9910  -27.4510 C   0  0  2  0  0  0  0  0  0  0  0  0
   30.5558   54.4529  -25.6379 H   0  0  0  0  0  0  0  0  0  0  0  0
   27.9184   61.2783  -29.4310 H   0  0  0  0  0  0  0  0  0  0  0  0
   29.9364   61.7167  -24.9330 H   0  0  0  0  0  0  0  0  0  0  0  0
   32.8769   60.2098  -25.3639 H   0  0  0  0  0  0  0  0  0  0  0  0
   32.9516   57.0972  -26.7427 H   0  0  0  0  0  0  0  0  0  0  0  0
   22.7855   56.1248  -27.5514 H   0  0  0  0  0  0  0  0  0  0  0  0
   26.5504   57.1997  -24.8303 H   0  0  0  0  0  0  0  0  0  0  0  0
   29.9835   55.5207  -27.5880 H   0  0  0  0  0  0  0  0  0  0  0  0
   31.5531   55.7828  -27.2214 H   0  0  0  0  0  0  0  0  0  0  0  0
   25.9838   61.8298  -28.3419 H   0  0  0  0  0  0  0  0  0  0  0  0
   27.1398   61.3744  -27.2822 H   0  0  0  0  0  0  0  0  0  0  0  0
   22.9000   59.5108  -31.0592 H   0  0  0  0  0  0  0  0  0  0  0  0
   24.3970   61.0905  -29.8453 H   0  0  0  0  0  0  0  0  0  0  0  0
   28.6769   59.4743  -27.3809 H   0  0  0  0  0  0  0  0  0  0  0  0
   29.5340   59.5050  -24.6140 H   0  0  0  0  0  0  0  0  0  0  0  0
   31.1804   60.1169  -26.9100 H   0  0  0  0  0  0  0  0  0  0  0  0
   31.3973   57.8146  -25.1919 H   0  0  0  0  0  0  0  0  0  0  0  0
   25.0420   56.4897  -27.8320 H   0  0  0  0  0  0  0  0  0  0  0  0
   24.7369   58.3421  -25.6754 H   0  0  0  0  0  0  0  0  0  0  0  0
   30.4250   57.8081  -27.9223 H   0  0  0  0  0  0  0  0  0  0  0  0
   26.8312   58.3191  -27.6509 H   0  0  0  0  0  0  0  0  0  0  0  0
   25.0565   60.3932  -26.7113 H   0  0  0  0  0  0  0  0  0  0  0  0
  1 12  1  0  0  0  0
  2 13  1  0  0  0  0
  3 17  1  0  0  0  0
  4 18  1  0  0  0  0
  5 19  1  0  0  0  0
  6 20  1  0  0  0  0
  7 21  1  0  0  0  0
  8 16  1  0  0  0  0
  8 22  1  0  0  0  0
  9 16  1  0  0  0  0
  9 24  1  0  0  0  0
 10 14  1  0  0  0  0
 10 23  2  0  0  0  0
 11 15  1  0  0  0  0
 11 23  1  0  0  0  0
 11 25  1  0  0  0  0
 12 22  1  0  0  0  0
 13 25  1  0  0  0  0
 14 15  2  0  0  0  0
 16 17  1  0  0  0  0
 17 18  1  0  0  0  0
 18 19  1  0  0  0  0
 19 22  1  0  0  0  0
 20 21  1  0  0  0  0
 20 23  1  0  0  0  0
 21 24  1  0  0  0  0
 24 25  1  0  0  0  0
  1 26  1  0  0  0  0
  2 27  1  0  0  0  0
  3 28  1  0  0  0  0
  4 29  1  0  0  0  0
  5 30  1  0  0  0  0
  6 31  1  0  0  0  0
  7 32  1  0  0  0  0
 12 33  1  0  0  0  0
 12 34  1  0  0  0  0
 13 35  1  0  0  0  0
 13 36  1  0  0  0  0
 14 37  1  0  0  0  0
 15 38  1  0  0  0  0
 16 39  1  0  0  0  0
 17 40  1  0  0  0  0
 18 41  1  0  0  0  0
 19 42  1  0  0  0  0
 20 43  1  0  0  0  0
 21 44  1  0  0  0  0
 22 45  1  0  0  0  0
 24 46  1  0  0  0  0
 25 47  1  0  0  0  0
M  END
> <pdb_id>
2OYL

> <uniprot_id>
O33853

> <usmiles>
O([C@@H]1O[C@@H]([C@@H](O)[C@H](O)[C@H]1O)CO)[C@H]2[C@H](O)[C@@H](O)C3=NC=CN3[C@@H]2CO

$$$$
IDD_A_1001
          07192419173D 1   1.00000     0.00000     0
            
 36 38  0  0  0  0            999 V2000
   22.6129   26.5207   33.0959 O   0  0  0  0  0  0  0  0  0  0  0  0
   24.6477   24.1952   38.3086 O   0  0  0  0  0  0  0  0  0  0  0  0
   22.1692   22.9750   37.0328 O   0  0  0  0  0  0  0  0  0  0  0  0
   22.1668   23.1584   34.2557 O   0  0  0  0  0  0  0  0  0  0  0  0
   25.1733   26.7760   37.0056 N   0  0  0  0  0  0  0  0  0  0  0  0
   24.5421   25.8486   35.1589 N   0  0  0  0  0  0  0  0  0  0  0  0
   23.4911   25.4449   32.8861 C   0  0  0  0  0  0  0  0  0  0  0  0
   27.8628   31.1612   36.4893 C   0  0  0  0  0  0  0  0  0  0  0  0
   27.7823   30.2167   37.5162 C   0  0  0  0  0  0  0  0  0  0  0  0
   27.2145   30.9336   35.2699 C   0  0  0  0  0  0  0  0  0  0  0  0
   25.2556   26.9875   34.7678 C   0  0  0  0  0  0  0  0  0  0  0  0
   27.0534   29.0346   37.3096 C   0  0  0  0  0  0  0  0  0  0  0  0
   26.4786   29.7605   35.0563 C   0  0  0  0  0  0  0  0  0  0  0  0
   24.5109   25.7485   36.4998 C   0  0  0  0  0  0  0  0  0  0  0  0
   25.6278   27.5336   35.9514 C   0  0  0  0  0  0  0  0  0  0  0  0
   23.8048   24.7136   37.2672 C   0  0  1  0  0  0  0  0  0  0  0  0
   23.2502   23.6227   36.3560 C   0  0  2  0  0  0  0  0  0  0  0  0
   22.7509   24.2070   35.0060 C   0  0  1  0  0  0  0  0  0  0  0  0
   23.9263   24.8543   34.2385 C   0  0  2  0  0  0  0  0  0  0  0  0
   26.4109   28.7928   36.0792 C   0  0  0  0  0  0  0  0  0  0  0  0
   22.3338   26.9001   32.2138 H   0  0  0  0  0  0  0  0  0  0  0  0
   24.1521   23.4932   38.8201 H   0  0  0  0  0  0  0  0  0  0  0  0
   21.7933   22.2558   36.4485 H   0  0  0  0  0  0  0  0  0  0  0  0
   21.8390   23.5165   33.3814 H   0  0  0  0  0  0  0  0  0  0  0  0
   24.2974   25.7668   32.3898 H   0  0  0  0  0  0  0  0  0  0  0  0
   23.0289   24.7392   32.3491 H   0  0  0  0  0  0  0  0  0  0  0  0
   28.3854   32.0027   36.6263 H   0  0  0  0  0  0  0  0  0  0  0  0
   28.2397   30.3813   38.3901 H   0  0  0  0  0  0  0  0  0  0  0  0
   27.2773   31.6166   34.5421 H   0  0  0  0  0  0  0  0  0  0  0  0
   25.4445   27.3172   33.8428 H   0  0  0  0  0  0  0  0  0  0  0  0
   26.9897   28.3576   38.0429 H   0  0  0  0  0  0  0  0  0  0  0  0
   26.0065   29.6112   34.1875 H   0  0  0  0  0  0  0  0  0  0  0  0
   23.0242   25.1545   37.7102 H   0  0  0  0  0  0  0  0  0  0  0  0
   23.9697   22.9524   36.1748 H   0  0  0  0  0  0  0  0  0  0  0  0
   22.0571   24.9036   35.1884 H   0  0  0  0  0  0  0  0  0  0  0  0
   24.6045   24.1419   34.0583 H   0  0  0  0  0  0  0  0  0  0  0  0
  1  7  1  0  0  0  0
  2 16  1  0  0  0  0
  3 17  1  0  0  0  0
  4 18  1  0  0  0  0
  5 14  2  0  0  0  0
  5 15  1  0  0  0  0
  6 11  1  0  0  0  0
  6 14  1  0  0  0  0
  6 19  1  0  0  0  0
  7 19  1  0  0  0  0
  8  9  2  0  0  0  0
  8 10  1  0  0  0  0
  9 12  1  0  0  0  0
 10 13  2  0  0  0  0
 11 15  2  0  0  0  0
 12 20  2  0  0  0  0
 13 20  1  0  0  0  0
 14 16  1  0  0  0  0
 15 20  1  0  0  0  0
 16 17  1  0  0  0  0
 17 18  1  0  0  0  0
 18 19  1  0  0  0  0
  1 21  1  0  0  0  0
  2 22  1  0  0  0  0
  3 23  1  0  0  0  0
  4 24  1  0  0  0  0
  7 25  1  0  0  0  0
  7 26  1  0  0  0  0
  8 27  1  0  0  0  0
  9 28  1  0  0  0  0
 10 29  1  0  0  0  0
 11 30  1  0  0  0  0
 12 31  1  0  0  0  0
 13 32  1  0  0  0  0
 16 33  1  0  0  0  0
 17 34  1  0  0  0  0
 18 35  1  0  0  0  0
 19 36  1  0  0  0  0
M  END
> <pdb_id>
1X38

> <uniprot_id>
nan

> <usmiles>
O[C@@H]1[C@H](N2C(=NC(c3ccccc3)=C2)[C@H](O)[C@H]1O)CO

$$$$
IDE_A_1001
          07192419173D 1   1.00000     0.00000     0
            
 41 43  0  0  0  0            999 V2000
   22.6510   26.5170   33.1080 O   0  0  0  0  0  0  0  0  0  0  0  0
   24.6420   24.2380   38.3170 O   0  0  0  0  0  0  0  0  0  0  0  0
   22.1180   23.0050   37.0850 O   0  0  0  0  0  0  0  0  0  0  0  0
   22.1560   23.0940   34.2890 O   0  0  0  0  0  0  0  0  0  0  0  0
   27.4730   28.6530   36.8400 N   0  0  0  0  0  0  0  0  0  0  0  0
   25.1180   26.8060   36.9800 N   0  0  0  0  0  0  0  0  0  0  0  0
   24.5190   25.7940   35.1680 N   0  0  0  0  0  0  0  0  0  0  0  0
   23.4720   25.3790   32.8820 C   0  0  0  0  0  0  0  0  0  0  0  0
   26.4020   28.7620   35.8560 C   0  0  0  0  0  0  0  0  0  0  0  0
   30.7210   31.3650   36.6640 C   0  0  0  0  0  0  0  0  0  0  0  0
   29.4210   31.8310   36.4510 C   0  0  0  0  0  0  0  0  0  0  0  0
   30.9620   30.0140   36.9270 C   0  0  0  0  0  0  0  0  0  0  0  0
   25.2310   26.9130   34.7290 C   0  0  0  0  0  0  0  0  0  0  0  0
   28.3520   30.9350   36.5060 C   0  0  0  0  0  0  0  0  0  0  0  0
   29.8930   29.1240   36.9920 C   0  0  0  0  0  0  0  0  0  0  0  0
   25.5850   27.5060   35.8960 C   0  0  0  0  0  0  0  0  0  0  0  0
   28.5890   29.5850   36.7820 C   0  0  0  0  0  0  0  0  0  0  0  0
   24.4670   25.7600   36.5030 C   0  0  0  0  0  0  0  0  0  0  0  0
   23.7610   24.7350   37.3040 C   0  0  1  0  0  0  0  0  0  0  0  0
   23.2210   23.6260   36.4010 C   0  0  2  0  0  0  0  0  0  0  0  0
   22.7560   24.1610   35.0270 C   0  0  1  0  0  0  0  0  0  0  0  0
   23.9140   24.8050   34.2320 C   0  0  2  0  0  0  0  0  0  0  0  0
   22.3588   26.8968   32.2303 H   0  0  0  0  0  0  0  0  0  0  0  0
   24.1680   23.5450   38.8603 H   0  0  0  0  0  0  0  0  0  0  0  0
   21.7429   22.2728   36.5165 H   0  0  0  0  0  0  0  0  0  0  0  0
   21.8529   23.4337   33.3987 H   0  0  0  0  0  0  0  0  0  0  0  0
   27.4408   27.9459   37.5464 H   0  0  0  0  0  0  0  0  0  0  0  0
   24.2767   25.6464   32.3520 H   0  0  0  0  0  0  0  0  0  0  0  0
   22.9549   24.6878   32.3772 H   0  0  0  0  0  0  0  0  0  0  0  0
   26.7938   28.8800   34.9435 H   0  0  0  0  0  0  0  0  0  0  0  0
   25.8229   29.5475   36.0742 H   0  0  0  0  0  0  0  0  0  0  0  0
   31.4878   32.0058   36.6278 H   0  0  0  0  0  0  0  0  0  0  0  0
   29.2577   32.7990   36.2606 H   0  0  0  0  0  0  0  0  0  0  0  0
   31.8969   29.6881   37.0677 H   0  0  0  0  0  0  0  0  0  0  0  0
   25.4291   27.2028   33.7927 H   0  0  0  0  0  0  0  0  0  0  0  0
   27.4188   31.2580   36.3484 H   0  0  0  0  0  0  0  0  0  0  0  0
   30.0571   28.1573   37.1884 H   0  0  0  0  0  0  0  0  0  0  0  0
   22.9843   25.1740   37.7556 H   0  0  0  0  0  0  0  0  0  0  0  0
   23.9393   22.9451   36.2581 H   0  0  0  0  0  0  0  0  0  0  0  0
   22.0594   24.8609   35.1848 H   0  0  0  0  0  0  0  0  0  0  0  0
   24.5954   24.0950   34.0544 H   0  0  0  0  0  0  0  0  0  0  0  0
  1  8  1  0  0  0  0
  2 19  1  0  0  0  0
  3 20  1  0  0  0  0
  4 21  1  0  0  0  0
  5  9  1  0  0  0  0
  5 17  1  0  0  0  0
  6 16  1  0  0  0  0
  6 18  2  0  0  0  0
  7 13  1  0  0  0  0
  7 18  1  0  0  0  0
  7 22  1  0  0  0  0
  8 22  1  0  0  0  0
  9 16  1  0  0  0  0
 10 11  2  0  0  0  0
 10 12  1  0  0  0  0
 11 14  1  0  0  0  0
 12 15  2  0  0  0  0
 13 16  2  0  0  0  0
 14 17  2  0  0  0  0
 15 17  1  0  0  0  0
 18 19  1  0  0  0  0
 19 20  1  0  0  0  0
 20 21  1  0  0  0  0
 21 22  1  0  0  0  0
  1 23  1  0  0  0  0
  2 24  1  0  0  0  0
  3 25  1  0  0  0  0
  4 26  1  0  0  0  0
  5 27  1  0  0  0  0
  8 28  1  0  0  0  0
  8 29  1  0  0  0  0
  9 30  1  0  0  0  0
  9 31  1  0  0  0  0
 10 32  1  0  0  0  0
 11 33  1  0  0  0  0
 12 34  1  0  0  0  0
 13 35  1  0  0  0  0
 14 36  1  0  0  0  0
 15 37  1  0  0  0  0
 19 38  1  0  0  0  0
 20 39  1  0  0  0  0
 21 40  1  0  0  0  0
 22 41  1  0  0  0  0
M  END
> <pdb_id>
1X39

> <uniprot_id>
nan

> <usmiles>
O[C@@H]1[C@H](N2C(=NC(=C2)CNc3ccccc3)[C@H](O)[C@H]1O)CO

$$$$
IDQ_A_901
          07192416553D 1   1.00000     0.00000     0
            
 52 55  0  0  0  0            999 V2000
  -12.7076   25.8369  -38.8986 N   0  0  0  0  0  0  0  0  0  0  0  0
   -6.7833   18.1190  -36.3435 N   0  0  0  0  0  0  0  0  0  0  0  0
   -6.0901   20.3318  -36.0225 N   0  0  0  0  0  0  0  0  0  0  0  0
   -9.3943   18.8947  -34.9842 N   0  0  0  0  0  0  0  0  0  0  0  0
   -9.7872   20.9280  -34.2423 N   0  0  0  0  0  0  0  0  0  0  0  0
  -10.3920   18.7152  -30.1700 C   0  0  0  0  0  0  0  0  0  0  0  0
  -11.5364   24.9728  -38.8328 C   0  0  0  0  0  0  0  0  0  0  0  0
  -10.5912   22.0232  -33.7579 C   0  0  0  0  0  0  0  0  0  0  0  0
  -10.2500   19.0612  -31.6350 C   0  0  0  0  0  0  0  0  0  0  0  0
  -11.5875   19.1260  -32.3639 C   0  0  0  0  0  0  0  0  0  0  0  0
   -5.4951   23.8429  -35.2430 C   0  0  0  0  0  0  0  0  0  0  0  0
   -6.7104   24.2112  -34.6421 C   0  0  0  0  0  0  0  0  0  0  0  0
  -11.6054   19.2219  -33.8956 C   0  0  0  0  0  0  0  0  0  0  0  0
   -5.3149   22.5433  -35.7282 C   0  0  0  0  0  0  0  0  0  0  0  0
   -7.7458   23.2847  -34.4825 C   0  0  0  0  0  0  0  0  0  0  0  0
  -11.1525   24.8899  -36.3079 C   0  0  0  0  0  0  0  0  0  0  0  0
  -11.2473   22.8496  -37.4903 C   0  0  0  0  0  0  0  0  0  0  0  0
  -10.9341   24.1956  -35.1063 C   0  0  0  0  0  0  0  0  0  0  0  0
  -11.0378   22.1524  -36.2988 C   0  0  0  0  0  0  0  0  0  0  0  0
   -7.0115   19.3660  -35.8977 C   0  0  0  0  0  0  0  0  0  0  0  0
  -10.2749   19.6906  -34.3784 C   0  0  0  0  0  0  0  0  0  0  0  0
   -6.3143   21.5977  -35.5696 C   0  0  0  0  0  0  0  0  0  0  0  0
   -8.3053   19.6455  -35.2784 C   0  0  0  0  0  0  0  0  0  0  0  0
   -8.5583   20.9804  -34.7853 C   0  0  0  0  0  0  0  0  0  0  0  0
  -11.3416   24.2280  -37.5045 C   0  0  0  0  0  0  0  0  0  0  0  0
  -10.8830   22.7952  -35.0684 C   0  0  0  0  0  0  0  0  0  0  0  0
   -7.6007   21.9771  -34.9359 C   0  0  0  0  0  0  0  0  0  0  0  0
  -12.7483   26.2755  -39.7964 H   0  0  0  0  0  0  0  0  0  0  0  0
  -13.5332   25.2907  -38.7567 H   0  0  0  0  0  0  0  0  0  0  0  0
   -7.4853   17.4145  -36.2396 H   0  0  0  0  0  0  0  0  0  0  0  0
   -5.9113   17.8956  -36.7792 H   0  0  0  0  0  0  0  0  0  0  0  0
   -9.4872   18.6870  -29.7450 H   0  0  0  0  0  0  0  0  0  0  0  0
  -10.9518   19.4087  -29.7165 H   0  0  0  0  0  0  0  0  0  0  0  0
  -10.8307   17.8212  -30.0796 H   0  0  0  0  0  0  0  0  0  0  0  0
  -10.7267   25.5379  -38.9913 H   0  0  0  0  0  0  0  0  0  0  0  0
  -11.6147   24.2910  -39.5602 H   0  0  0  0  0  0  0  0  0  0  0  0
  -10.0848   22.5878  -33.1063 H   0  0  0  0  0  0  0  0  0  0  0  0
  -11.4344   21.6964  -33.3310 H   0  0  0  0  0  0  0  0  0  0  0  0
   -9.6816   18.3649  -32.0733 H   0  0  0  0  0  0  0  0  0  0  0  0
   -9.8026   19.9524  -31.7102 H   0  0  0  0  0  0  0  0  0  0  0  0
  -12.0706   19.9293  -32.0158 H   0  0  0  0  0  0  0  0  0  0  0  0
  -12.0941   18.2997  -32.1176 H   0  0  0  0  0  0  0  0  0  0  0  0
   -4.7563   24.5120  -35.3241 H   0  0  0  0  0  0  0  0  0  0  0  0
   -6.8372   25.1506  -34.3236 H   0  0  0  0  0  0  0  0  0  0  0  0
  -12.3111   19.8703  -34.1810 H   0  0  0  0  0  0  0  0  0  0  0  0
  -11.8030   18.3218  -34.2839 H   0  0  0  0  0  0  0  0  0  0  0  0
   -4.4632   22.2967  -36.1904 H   0  0  0  0  0  0  0  0  0  0  0  0
   -8.5973   23.5642  -34.0388 H   0  0  0  0  0  0  0  0  0  0  0  0
  -11.1716   25.8897  -36.2961 H   0  0  0  0  0  0  0  0  0  0  0  0
  -11.3305   22.3425  -38.3482 H   0  0  0  0  0  0  0  0  0  0  0  0
  -10.8123   24.7122  -34.2588 H   0  0  0  0  0  0  0  0  0  0  0  0
  -10.9971   21.1536  -36.3274 H   0  0  0  0  0  0  0  0  0  0  0  0
  1  7  1  0  0  0  0
  2 20  1  0  0  0  0
  3 20  2  0  0  0  0
  3 22  1  0  0  0  0
  4 21  2  0  0  0  0
  4 23  1  0  0  0  0
  5  8  1  0  0  0  0
  5 21  1  0  0  0  0
  5 24  1  0  0  0  0
  6  9  1  0  0  0  0
  7 25  1  0  0  0  0
  8 26  1  0  0  0  0
  9 10  1  0  0  0  0
 10 13  1  0  0  0  0
 11 12  2  0  0  0  0
 11 14  1  0  0  0  0
 12 15  1  0  0  0  0
 13 21  1  0  0  0  0
 14 22  2  0  0  0  0
 15 27  2  0  0  0  0
 16 18  1  0  0  0  0
 16 25  2  0  0  0  0
 17 19  2  0  0  0  0
 17 25  1  0  0  0  0
 18 26  2  0  0  0  0
 19 26  1  0  0  0  0
 20 23  1  0  0  0  0
 22 27  1  0  0  0  0
 23 24  2  0  0  0  0
 24 27  1  0  0  0  0
  1 28  1  0  0  0  0
  1 29  1  0  0  0  0
  2 30  1  0  0  0  0
  2 31  1  0  0  0  0
  6 32  1  0  0  0  0
  6 33  1  0  0  0  0
  6 34  1  0  0  0  0
  7 35  1  0  0  0  0
  7 36  1  0  0  0  0
  8 37  1  0  0  0  0
  8 38  1  0  0  0  0
  9 39  1  0  0  0  0
  9 40  1  0  0  0  0
 10 41  1  0  0  0  0
 10 42  1  0  0  0  0
 11 43  1  0  0  0  0
 12 44  1  0  0  0  0
 13 45  1  0  0  0  0
 13 46  1  0  0  0  0
 14 47  1  0  0  0  0
 15 48  1  0  0  0  0
 16 49  1  0  0  0  0
 17 50  1  0  0  0  0
 18 51  1  0  0  0  0
 19 52  1  0  0  0  0
M  END
> <pdb_id>
5AWD

> <uniprot_id>
Q9NR97

> <usmiles>
n1c(N)c2N=C(N(c2c3c1cccc3)Cc4ccc(cc4)CN)CCCC

$$$$
IDQ_B_1011
          07202413343D 1   1.00000     0.00000     0
            
 52 55  0  0  0  0            999 V2000
  -12.4780  -34.7660  -10.2250 N   0  0  0  0  0  0  0  0  0  0  0  0
  -11.5350  -25.3300  -11.7620 N   0  0  0  0  0  0  0  0  0  0  0  0
  -11.4830  -27.0740  -13.3620 N   0  0  0  0  0  0  0  0  0  0  0  0
  -14.1960  -26.5590  -10.8350 N   0  0  0  0  0  0  0  0  0  0  0  0
  -15.0660  -28.3910  -11.7570 N   0  0  0  0  0  0  0  0  0  0  0  0
  -18.8580  -25.5460  -12.2010 C   0  0  0  0  0  0  0  0  0  0  0  0
  -13.7920  -34.4090   -9.6660 C   0  0  0  0  0  0  0  0  0  0  0  0
  -15.9920  -29.4970  -11.9910 C   0  0  0  0  0  0  0  0  0  0  0  0
  -17.8490  -26.5650  -11.7180 C   0  0  0  0  0  0  0  0  0  0  0  0
  -17.3290  -26.2340  -10.3220 C   0  0  0  0  0  0  0  0  0  0  0  0
  -11.8200  -29.9350  -15.6140 C   0  0  0  0  0  0  0  0  0  0  0  0
  -13.0200  -30.4950  -15.1930 C   0  0  0  0  0  0  0  0  0  0  0  0
  -16.3610  -27.3020   -9.8180 C   0  0  0  0  0  0  0  0  0  0  0  0
  -11.3130  -28.7960  -14.9920 C   0  0  0  0  0  0  0  0  0  0  0  0
  -13.7410  -29.9360  -14.1410 C   0  0  0  0  0  0  0  0  0  0  0  0
  -15.3370  -33.1740  -11.2240 C   0  0  0  0  0  0  0  0  0  0  0  0
  -13.8670  -31.8670   -9.8510 C   0  0  0  0  0  0  0  0  0  0  0  0
  -15.8670  -32.0120  -11.7850 C   0  0  0  0  0  0  0  0  0  0  0  0
  -14.3970  -30.6940  -10.4030 C   0  0  0  0  0  0  0  0  0  0  0  0
  -12.0800  -26.4290  -12.3320 C   0  0  0  0  0  0  0  0  0  0  0  0
  -15.2200  -27.4340  -10.7980 C   0  0  0  0  0  0  0  0  0  0  0  0
  -11.9950  -28.1900  -13.9420 C   0  0  0  0  0  0  0  0  0  0  0  0
  -13.3560  -26.9400  -11.8130 C   0  0  0  0  0  0  0  0  0  0  0  0
  -13.9310  -28.1370  -12.4220 C   0  0  0  0  0  0  0  0  0  0  0  0
  -14.3380  -33.1170  -10.2610 C   0  0  0  0  0  0  0  0  0  0  0  0
  -15.4010  -30.7580  -11.3730 C   0  0  0  0  0  0  0  0  0  0  0  0
  -13.2820  -28.7860  -13.4800 C   0  0  0  0  0  0  0  0  0  0  0  0
  -12.1585  -35.6170   -9.8082 H   0  0  0  0  0  0  0  0  0  0  0  0
  -12.5588  -34.8891  -11.2141 H   0  0  0  0  0  0  0  0  0  0  0  0
  -12.0019  -24.8770  -11.0025 H   0  0  0  0  0  0  0  0  0  0  0  0
  -10.6652  -24.9706  -12.1001 H   0  0  0  0  0  0  0  0  0  0  0  0
  -19.1737  -25.7973  -13.1160 H   0  0  0  0  0  0  0  0  0  0  0  0
  -19.6366  -25.5247  -11.5739 H   0  0  0  0  0  0  0  0  0  0  0  0
  -18.4305  -24.6425  -12.2323 H   0  0  0  0  0  0  0  0  0  0  0  0
  -13.7010  -34.2949   -8.6767 H   0  0  0  0  0  0  0  0  0  0  0  0
  -14.4359  -35.1496   -9.8583 H   0  0  0  0  0  0  0  0  0  0  0  0
  -16.1179  -29.6298  -12.9741 H   0  0  0  0  0  0  0  0  0  0  0  0
  -16.8744  -29.2943  -11.5663 H   0  0  0  0  0  0  0  0  0  0  0  0
  -17.0778  -26.5830  -12.3543 H   0  0  0  0  0  0  0  0  0  0  0  0
  -18.2840  -27.4652  -11.6959 H   0  0  0  0  0  0  0  0  0  0  0  0
  -18.1036  -26.1743   -9.6924 H   0  0  0  0  0  0  0  0  0  0  0  0
  -16.8551  -25.3539  -10.3519 H   0  0  0  0  0  0  0  0  0  0  0  0
  -11.3160  -30.3530  -16.3698 H   0  0  0  0  0  0  0  0  0  0  0  0
  -13.3709  -31.3112  -15.6521 H   0  0  0  0  0  0  0  0  0  0  0  0
  -16.8385  -28.1771   -9.7397 H   0  0  0  0  0  0  0  0  0  0  0  0
  -16.0045  -27.0355   -8.9225 H   0  0  0  0  0  0  0  0  0  0  0  0
  -10.4460  -28.4084  -15.3051 H   0  0  0  0  0  0  0  0  0  0  0  0
  -14.5991  -30.3605  -13.8520 H   0  0  0  0  0  0  0  0  0  0  0  0
  -15.6827  -34.0642  -11.5207 H   0  0  0  0  0  0  0  0  0  0  0  0
  -13.1471  -31.8096   -9.1593 H   0  0  0  0  0  0  0  0  0  0  0  0
  -16.5808  -32.0749  -12.4825 H   0  0  0  0  0  0  0  0  0  0  0  0
  -14.0546  -29.8044  -10.1009 H   0  0  0  0  0  0  0  0  0  0  0  0
  1  7  1  0  0  0  0
  2 20  1  0  0  0  0
  3 20  2  0  0  0  0
  3 22  1  0  0  0  0
  4 21  2  0  0  0  0
  4 23  1  0  0  0  0
  5  8  1  0  0  0  0
  5 21  1  0  0  0  0
  5 24  1  0  0  0  0
  6  9  1  0  0  0  0
  7 25  1  0  0  0  0
  8 26  1  0  0  0  0
  9 10  1  0  0  0  0
 10 13  1  0  0  0  0
 11 12  2  0  0  0  0
 11 14  1  0  0  0  0
 12 15  1  0  0  0  0
 13 21  1  0  0  0  0
 14 22  2  0  0  0  0
 15 27  2  0  0  0  0
 16 18  1  0  0  0  0
 16 25  2  0  0  0  0
 17 19  2  0  0  0  0
 17 25  1  0  0  0  0
 18 26  2  0  0  0  0
 19 26  1  0  0  0  0
 20 23  1  0  0  0  0
 22 27  1  0  0  0  0
 23 24  2  0  0  0  0
 24 27  1  0  0  0  0
  1 28  1  0  0  0  0
  1 29  1  0  0  0  0
  2 30  1  0  0  0  0
  2 31  1  0  0  0  0
  6 32  1  0  0  0  0
  6 33  1  0  0  0  0
  6 34  1  0  0  0  0
  7 35  1  0  0  0  0
  7 36  1  0  0  0  0
  8 37  1  0  0  0  0
  8 38  1  0  0  0  0
  9 39  1  0  0  0  0
  9 40  1  0  0  0  0
 10 41  1  0  0  0  0
 10 42  1  0  0  0  0
 11 43  1  0  0  0  0
 12 44  1  0  0  0  0
 13 45  1  0  0  0  0
 13 46  1  0  0  0  0
 14 47  1  0  0  0  0
 15 48  1  0  0  0  0
 16 49  1  0  0  0  0
 17 50  1  0  0  0  0
 18 51  1  0  0  0  0
 19 52  1  0  0  0  0
M  END
> <pdb_id>
5ZSC

> <uniprot_id>
B3Y653

> <usmiles>
n1c(N)c2N=C(N(c2c3c1cccc3)Cc4ccc(cc4)CN)CCCC

$$$$
IDZ_A_1274
          07202402503D 1   1.00000     0.00000     0
            
 28 31  0  0  0  0            999 V2000
    5.7287   10.3002   19.5586 N   0  0  0  0  0  0  0  0  0  0  0  0
    4.5175   10.2888   19.8975 N   0  0  0  0  0  0  0  0  0  0  0  0
    1.7520    9.5006   20.2882 N   0  0  0  0  0  0  0  0  0  0  0  0
    2.1553    7.5712   19.3006 N   0  0  0  0  0  0  0  0  0  0  0  0
   -1.6808    8.1988   20.6837 C   0  0  0  0  0  0  0  0  0  0  0  0
   -1.4296    6.9690   20.0650 C   0  0  0  0  0  0  0  0  0  0  0  0
    7.3621    7.4957   17.7502 C   0  0  0  0  0  0  0  0  0  0  0  0
    6.2196    6.6880   17.6982 C   0  0  0  0  0  0  0  0  0  0  0  0
    7.3117    8.7517   18.3730 C   0  0  0  0  0  0  0  0  0  0  0  0
   -0.6372    9.1340   20.8181 C   0  0  0  0  0  0  0  0  0  0  0  0
   -0.1593    6.6664   19.5404 C   0  0  0  0  0  0  0  0  0  0  0  0
    5.0174    7.1303   18.2494 C   0  0  0  0  0  0  0  0  0  0  0  0
    2.6755    8.7244   19.6872 C   0  0  0  0  0  0  0  0  0  0  0  0
    6.1016    9.1765   18.9120 C   0  0  0  0  0  0  0  0  0  0  0  0
    0.6222    8.8296   20.2997 C   0  0  0  0  0  0  0  0  0  0  0  0
    0.8679    7.6096   19.6527 C   0  0  0  0  0  0  0  0  0  0  0  0
    3.9912    9.1248   19.4925 C   0  0  0  0  0  0  0  0  0  0  0  0
    4.9684    8.3796   18.8274 C   0  0  0  0  0  0  0  0  0  0  0  0
    6.3491   11.0612   19.7482 H   0  0  0  0  0  0  0  0  0  0  0  0
    1.8995   10.4182   20.6574 H   0  0  0  0  0  0  0  0  0  0  0  0
   -2.5953    8.4119   21.0278 H   0  0  0  0  0  0  0  0  0  0  0  0
   -2.1644    6.2944   19.9946 H   0  0  0  0  0  0  0  0  0  0  0  0
    8.2172    7.1761   17.3419 H   0  0  0  0  0  0  0  0  0  0  0  0
    6.2659    5.7887   17.2634 H   0  0  0  0  0  0  0  0  0  0  0  0
    8.1269    9.3284   18.4283 H   0  0  0  0  0  0  0  0  0  0  0  0
   -0.7966   10.0066   21.2799 H   0  0  0  0  0  0  0  0  0  0  0  0
    0.0072    5.7879   19.0927 H   0  0  0  0  0  0  0  0  0  0  0  0
    4.2036    6.5496   18.2254 H   0  0  0  0  0  0  0  0  0  0  0  0
  1  2  1  0  0  0  0
  1 14  1  0  0  0  0
  2 17  2  0  0  0  0
  3 13  1  0  0  0  0
  3 15  1  0  0  0  0
  4 13  2  0  0  0  0
  4 16  1  0  0  0  0
  5  6  2  0  0  0  0
  5 10  1  0  0  0  0
  6 11  1  0  0  0  0
  7  8  2  0  0  0  0
  7  9  1  0  0  0  0
  8 12  1  0  0  0  0
  9 14  2  0  0  0  0
 10 15  2  0  0  0  0
 11 16  2  0  0  0  0
 12 18  2  0  0  0  0
 13 17  1  0  0  0  0
 14 18  1  0  0  0  0
 15 16  1  0  0  0  0
 17 18  1  0  0  0  0
  1 19  1  0  0  0  0
  3 20  1  0  0  0  0
  5 21  1  0  0  0  0
  6 22  1  0  0  0  0
  7 23  1  0  0  0  0
  8 24  1  0  0  0  0
  9 25  1  0  0  0  0
 10 26  1  0  0  0  0
 11 27  1  0  0  0  0
 12 28  1  0  0  0  0
M  END
> <pdb_id>
2C3L

> <uniprot_id>
O14757

> <usmiles>
N=1Nc2c(cccc2)C1C3=Nc4c(N3)cccc4

$$$$
IEH_B_803
          07192416573D 1   1.00000     0.00000     0
            
 48 51  0  0  0  0            999 V2000
   16.9753   -3.1014   23.5696 O   0  0  0  0  0  0  0  0  0  0  0  0
   19.8779   -3.5254   19.3398 O   0  0  0  0  0  0  0  0  0  0  0  0
   20.9976   -5.0137   23.1154 N   0  0  0  0  0  0  0  0  0  0  0  0
   16.7746   -5.1311   24.5901 N   0  0  0  0  0  0  0  0  0  0  0  0
   18.9653   -1.7897   13.4750 N   0  0  0  0  0  0  0  0  0  0  0  0
   20.5866   -3.5860   13.7215 N   0  0  0  0  0  0  0  0  0  0  0  0
   17.0118   -1.5063   16.9378 N   0  0  0  0  0  0  0  0  0  0  0  0
   19.0533   -2.8274   17.0208 N   0  0  0  0  0  0  0  0  0  0  0  0
   18.5436   -3.1822   21.1899 N   0  0  0  0  0  0  0  0  0  0  0  0
   16.8491   -1.6954   19.7592 N   0  0  0  0  0  0  0  0  0  0  0  0
   19.9453   -5.0484   23.9436 N   0  0  0  0  0  0  0  0  0  0  0  0
   15.4659   -4.8069   25.1329 C   0  0  0  0  0  0  0  0  0  0  0  0
   19.9923   -5.5991   25.2924 C   0  0  0  0  0  0  0  0  0  0  0  0
   19.9087   -2.6560   12.9908 C   0  0  0  0  0  0  0  0  0  0  0  0
   20.6670   -4.3375   21.9847 C   0  0  0  0  0  0  0  0  0  0  0  0
   18.6646   -1.8395   14.7997 C   0  0  0  0  0  0  0  0  0  0  0  0
   20.3023   -3.6457   15.0433 C   0  0  0  0  0  0  0  0  0  0  0  0
   16.0261   -0.9306   17.6503 C   0  0  0  0  0  0  0  0  0  0  0  0
   14.3567   -0.9218   21.2052 C   0  0  0  0  0  0  0  0  0  0  0  0
   15.1110    0.3672   21.1742 C   0  0  0  0  0  0  0  0  0  0  0  0
   17.4889   -4.1901   23.8570 C   0  0  0  0  0  0  0  0  0  0  0  0
   18.8636   -3.0295   19.8632 C   0  0  0  0  0  0  0  0  0  0  0  0
   17.9727   -2.2075   17.6334 C   0  0  0  0  0  0  0  0  0  0  0  0
   19.3423   -2.7727   15.6528 C   0  0  0  0  0  0  0  0  0  0  0  0
   19.2981   -3.9291   22.0797 C   0  0  0  0  0  0  0  0  0  0  0  0
   15.9089   -1.0146   19.0956 C   0  0  0  0  0  0  0  0  0  0  0  0
   17.8552   -2.2721   19.0661 C   0  0  0  0  0  0  0  0  0  0  0  0
   18.8435   -4.4253   23.3310 C   0  0  0  0  0  0  0  0  0  0  0  0
   14.8036   -0.3727   19.8659 C   0  0  0  0  0  0  0  0  0  0  0  0
   17.1646   -6.0388   24.7452 H   0  0  0  0  0  0  0  0  0  0  0  0
   19.6733   -3.3539   17.6024 H   0  0  0  0  0  0  0  0  0  0  0  0
   17.7206   -2.7291   21.5325 H   0  0  0  0  0  0  0  0  0  0  0  0
   15.1046   -5.5978   25.6268 H   0  0  0  0  0  0  0  0  0  0  0  0
   15.5476   -4.0317   25.7593 H   0  0  0  0  0  0  0  0  0  0  0  0
   14.8451   -4.5681   24.3862 H   0  0  0  0  0  0  0  0  0  0  0  0
   19.0912   -5.5158   25.7181 H   0  0  0  0  0  0  0  0  0  0  0  0
   20.2529   -6.5635   25.2498 H   0  0  0  0  0  0  0  0  0  0  0  0
   20.6649   -5.0956   25.8348 H   0  0  0  0  0  0  0  0  0  0  0  0
   20.1190   -2.6017   12.0147 H   0  0  0  0  0  0  0  0  0  0  0  0
   21.2779   -4.1553   21.2142 H   0  0  0  0  0  0  0  0  0  0  0  0
   17.9717   -1.2264   15.1791 H   0  0  0  0  0  0  0  0  0  0  0  0
   20.7759   -4.3186   15.6116 H   0  0  0  0  0  0  0  0  0  0  0  0
   15.3303   -0.4121   17.1533 H   0  0  0  0  0  0  0  0  0  0  0  0
   13.3852   -0.9232   21.4422 H   0  0  0  0  0  0  0  0  0  0  0  0
   14.7914   -1.7428   21.5754 H   0  0  0  0  0  0  0  0  0  0  0  0
   16.0492    0.4059   21.5182 H   0  0  0  0  0  0  0  0  0  0  0  0
   14.6430    1.2255   21.3850 H   0  0  0  0  0  0  0  0  0  0  0  0
   14.0780    0.0322   19.3096 H   0  0  0  0  0  0  0  0  0  0  0  0
  1 21  2  0  0  0  0
  2 22  2  0  0  0  0
  3 11  1  0  0  0  0
  3 15  2  0  0  0  0
  4 12  1  0  0  0  0
  4 21  1  0  0  0  0
  5 14  2  0  0  0  0
  5 16  1  0  0  0  0
  6 14  1  0  0  0  0
  6 17  2  0  0  0  0
  7 18  1  0  0  0  0
  7 23  2  0  0  0  0
  8 23  1  0  0  0  0
  8 24  1  0  0  0  0
  9 22  1  0  0  0  0
  9 25  1  0  0  0  0
 10 26  1  0  0  0  0
 10 27  2  0  0  0  0
 11 13  1  0  0  0  0
 11 28  1  0  0  0  0
 15 25  1  0  0  0  0
 16 24  2  0  0  0  0
 17 24  1  0  0  0  0
 18 26  2  0  0  0  0
 19 20  1  0  0  0  0
 19 29  1  0  0  0  0
 20 29  1  0  0  0  0
 21 28  1  0  0  0  0
 22 27  1  0  0  0  0
 23 27  1  0  0  0  0
 25 28  2  0  0  0  0
 26 29  1  0  0  0  0
  4 30  1  0  0  0  0
  8 31  1  0  0  0  0
  9 32  1  0  0  0  0
 12 33  1  0  0  0  0
 12 34  1  0  0  0  0
 12 35  1  0  0  0  0
 13 36  1  0  0  0  0
 13 37  1  0  0  0  0
 13 38  1  0  0  0  0
 14 39  1  0  0  0  0
 15 40  1  0  0  0  0
 16 41  1  0  0  0  0
 17 42  1  0  0  0  0
 18 43  1  0  0  0  0
 19 44  1  0  0  0  0
 19 45  1  0  0  0  0
 20 46  1  0  0  0  0
 20 47  1  0  0  0  0
 29 48  1  0  0  0  0
M  END
> <pdb_id>
5SE5

> <uniprot_id>
Q9Y233

> <usmiles>
O=C(NC1=C(N(N=C1)C)C(=O)NC)c2nc(cnc2Nc3cncnc3)C4CC4

$$$$
IEQ_A_403
          07212403373D 1   1.00000     0.00000     0
            
 53 56  0  0  0  0            999 V2000
   34.4656  -13.8596  -21.7918 O   0  0  0  0  0  0  0  0  0  0  0  0
   33.8115  -14.9476  -25.9907 O   0  0  0  0  0  0  0  0  0  0  0  0
   31.5832   -8.2763  -21.7734 O   0  0  0  0  0  0  0  0  0  0  0  0
   34.4412  -17.0147  -25.1287 N   0  0  0  0  0  0  0  0  0  0  0  0
   33.6341  -13.0719  -23.7441 N   0  0  0  0  0  0  0  0  0  0  0  0
   34.8048  -17.5045  -23.9047 N   0  0  0  0  0  0  0  0  0  0  0  0
   31.0458  -10.5281  -20.3894 C   0  0  0  0  0  0  0  0  0  0  0  0
   33.4133  -11.1330  -26.4909 C   0  0  0  0  0  0  0  0  0  0  0  0
   35.0091   -9.4586  -25.5140 C   0  0  0  0  0  0  0  0  0  0  0  0
   35.1438  -18.8011  -23.6169 C   0  0  0  0  0  0  0  0  0  0  0  0
   35.4780  -19.1179  -22.3470 C   0  0  0  0  0  0  0  0  0  0  0  0
   30.4295   -4.8662  -23.8077 C   0  0  0  0  0  0  0  0  0  0  0  0
   35.5011  -18.1257  -21.3360 C   0  0  0  0  0  0  0  0  0  0  0  0
   31.0144   -4.7883  -22.5666 C   0  0  0  0  0  0  0  0  0  0  0  0
   30.2171   -6.0958  -24.3853 C   0  0  0  0  0  0  0  0  0  0  0  0
   31.3898   -5.9408  -21.8950 C   0  0  0  0  0  0  0  0  0  0  0  0
   30.5897   -7.2594  -23.7316 C   0  0  0  0  0  0  0  0  0  0  0  0
   35.1626  -16.8417  -21.6327 C   0  0  0  0  0  0  0  0  0  0  0  0
   32.8759   -9.4811  -23.5222 C   0  0  0  0  0  0  0  0  0  0  0  0
   32.3675  -11.7807  -22.1250 C   0  0  0  0  0  0  0  0  0  0  0  0
   34.2008  -15.7068  -24.9689 C   0  0  0  0  0  0  0  0  0  0  0  0
   34.2183  -14.0275  -22.9807 C   0  0  0  0  0  0  0  0  0  0  0  0
   31.2038   -7.1605  -22.5067 C   0  0  0  0  0  0  0  0  0  0  0  0
   32.1170   -9.4334  -22.3564 C   0  0  0  0  0  0  0  0  0  0  0  0
   33.1044  -11.8440  -23.2855 C   0  0  0  0  0  0  0  0  0  0  0  0
   34.8028  -16.5103  -22.9506 C   0  0  0  0  0  0  0  0  0  0  0  0
   31.8602  -10.5894  -21.6493 C   0  0  0  0  0  0  0  0  0  0  0  0
   33.3924  -10.6914  -24.0108 C   0  0  0  0  0  0  0  0  0  0  0  0
   34.4162  -15.3412  -23.6203 C   0  0  0  0  0  0  0  0  0  0  0  0
   34.2354  -10.7517  -25.2628 C   0  0  0  0  0  0  0  0  0  0  0  0
   32.9134  -14.7098  -25.9027 H   0  0  0  0  0  0  0  0  0  0  0  0
   33.5800  -13.2300  -24.6018 H   0  0  0  0  0  0  0  0  0  0  0  0
   31.0006  -11.4102  -19.9880 H   0  0  0  0  0  0  0  0  0  0  0  0
   30.1485  -10.2222  -20.5969 H   0  0  0  0  0  0  0  0  0  0  0  0
   31.4598   -9.9114  -19.7643 H   0  0  0  0  0  0  0  0  0  0  0  0
   32.6864  -10.4969  -26.6054 H   0  0  0  0  0  0  0  0  0  0  0  0
   33.0465  -12.0263  -26.3721 H   0  0  0  0  0  0  0  0  0  0  0  0
   33.9820  -11.1199  -27.2803 H   0  0  0  0  0  0  0  0  0  0  0  0
   34.4006   -8.7740  -25.8434 H   0  0  0  0  0  0  0  0  0  0  0  0
   35.7053   -9.6178  -26.1748 H   0  0  0  0  0  0  0  0  0  0  0  0
   35.4153   -9.1565  -24.6828 H   0  0  0  0  0  0  0  0  0  0  0  0
   35.1436  -19.4553  -24.2914 H   0  0  0  0  0  0  0  0  0  0  0  0
   35.6992  -20.0139  -22.1316 H   0  0  0  0  0  0  0  0  0  0  0  0
   30.1746   -4.0781  -24.2622 H   0  0  0  0  0  0  0  0  0  0  0  0
   35.7514  -18.3537  -20.4584 H   0  0  0  0  0  0  0  0  0  0  0  0
   31.1626   -3.9477  -22.1671 H   0  0  0  0  0  0  0  0  0  0  0  0
   29.8139   -6.1519  -25.2363 H   0  0  0  0  0  0  0  0  0  0  0  0
   31.7665   -5.8890  -21.0329 H   0  0  0  0  0  0  0  0  0  0  0  0
   30.4259   -8.1012  -24.1200 H   0  0  0  0  0  0  0  0  0  0  0  0
   35.1673  -16.1814  -20.9643 H   0  0  0  0  0  0  0  0  0  0  0  0
   33.0489   -8.6972  -23.9934 H   0  0  0  0  0  0  0  0  0  0  0  0
   32.2065  -12.5631  -21.6488 H   0  0  0  0  0  0  0  0  0  0  0  0
   34.9106  -11.4681  -25.1245 H   0  0  0  0  0  0  0  0  0  0  0  0
  1 22  2  0  0  0  0
  2 21  1  0  0  0  0
  2 31  1  0  0  0  0
  3 23  1  0  0  0  0
  3 24  1  0  0  0  0
  4  6  1  0  0  0  0
  4 21  2  0  0  0  0
  5 22  1  0  0  0  0
  5 25  1  0  0  0  0
  5 32  1  0  0  0  0
  6 10  1  0  0  0  0
  6 26  1  0  0  0  0
  7 27  1  0  0  0  0
  7 33  1  0  0  0  0
  7 34  1  0  0  0  0
  7 35  1  0  0  0  0
  8 30  1  0  0  0  0
  8 36  1  0  0  0  0
  8 37  1  0  0  0  0
  8 38  1  0  0  0  0
  9 30  1  0  0  0  0
  9 39  1  0  0  0  0
  9 40  1  0  0  0  0
  9 41  1  0  0  0  0
 10 11  2  0  0  0  0
 10 42  1  0  0  0  0
 11 13  1  0  0  0  0
 11 43  1  0  0  0  0
 12 14  2  0  0  0  0
 12 15  1  0  0  0  0
 12 44  1  0  0  0  0
 13 18  2  0  0  0  0
 13 45  1  0  0  0  0
 14 16  1  0  0  0  0
 14 46  1  0  0  0  0
 15 17  2  0  0  0  0
 15 47  1  0  0  0  0
 16 23  2  0  0  0  0
 16 48  1  0  0  0  0
 17 23  1  0  0  0  0
 17 49  1  0  0  0  0
 18 26  1  0  0  0  0
 18 50  1  0  0  0  0
 19 24  2  0  0  0  0
 19 28  1  0  0  0  0
 19 51  1  0  0  0  0
 20 25  1  0  0  0  0
 20 27  2  0  0  0  0
 20 52  1  0  0  0  0
 21 29  1  0  0  0  0
 22 29  1  0  0  0  0
 24 27  1  0  0  0  0
 25 28  2  0  0  0  0
 26 29  2  0  0  0  0
 28 30  1  0  0  0  0
 30 53  1  0  0  0  0
M  END
> <pdb_id>
7Z6C

> <uniprot_id>
Q02127

> <usmiles>
O=C(Nc1c(cc(Oc2ccccc2)c(c1)C)C(C)C)C=3C(O)=NN4C3C=CC=C4

$$$$
IF5_A_803
          07192416573D 1   1.00000     0.00000     0
            
 49 53  0  0  0  0            999 V2000
   19.8646   -3.5861   19.2728 O   0  0  0  0  0  0  0  0  0  0  0  0
   20.4149   -5.3364   23.6313 N   0  0  0  0  0  0  0  0  0  0  0  0
   19.0654   -1.5928   13.5684 N   0  0  0  0  0  0  0  0  0  0  0  0
   20.4350   -3.4658   13.7013 N   0  0  0  0  0  0  0  0  0  0  0  0
   18.7263   -3.2668   21.1928 N   0  0  0  0  0  0  0  0  0  0  0  0
   18.8621   -2.9317   16.9998 N   0  0  0  0  0  0  0  0  0  0  0  0
   16.8639   -1.7007   19.7916 N   0  0  0  0  0  0  0  0  0  0  0  0
   19.2714   -4.6787   23.1584 N   0  0  0  0  0  0  0  0  0  0  0  0
   19.9172   -2.4583   13.0082 C   0  0  0  0  0  0  0  0  0  0  0  0
   21.4007   -5.0996   22.7829 C   0  0  0  0  0  0  0  0  0  0  0  0
   18.6933   -1.6922   14.8483 C   0  0  0  0  0  0  0  0  0  0  0  0
   20.0968   -3.6324   14.9907 C   0  0  0  0  0  0  0  0  0  0  0  0
   15.4701   -4.4883   24.9607 C   0  0  0  0  0  0  0  0  0  0  0  0
   16.2137   -5.6747   25.0217 C   0  0  0  0  0  0  0  0  0  0  0  0
   15.9789   -3.3845   24.3147 C   0  0  0  0  0  0  0  0  0  0  0  0
   20.9305   -4.2839   21.7342 C   0  0  0  0  0  0  0  0  0  0  0  0
   17.4786   -5.7769   24.4362 C   0  0  0  0  0  0  0  0  0  0  0  0
   17.2338   -3.4599   23.7161 C   0  0  0  0  0  0  0  0  0  0  0  0
   16.8116   -1.5776   17.0502 C   0  0  0  0  0  0  0  0  0  0  0  0
   15.8382   -0.9301   17.8113 C   0  0  0  0  0  0  0  0  0  0  0  0
   14.7735   -0.7857   21.5371 C   0  0  0  0  0  0  0  0  0  0  0  0
   15.3662    0.5751   21.1661 C   0  0  0  0  0  0  0  0  0  0  0  0
   18.8959   -3.0895   19.8497 C   0  0  0  0  0  0  0  0  0  0  0  0
   19.6146   -4.0199   21.9852 C   0  0  0  0  0  0  0  0  0  0  0  0
   19.2026   -2.7536   15.6308 C   0  0  0  0  0  0  0  0  0  0  0  0
   17.8412   -2.2792   17.6958 C   0  0  0  0  0  0  0  0  0  0  0  0
   15.8970   -1.0262   19.2034 C   0  0  0  0  0  0  0  0  0  0  0  0
   17.9953   -4.6453   23.7770 C   0  0  0  0  0  0  0  0  0  0  0  0
   17.8402   -2.3206   19.1082 C   0  0  0  0  0  0  0  0  0  0  0  0
   14.8531   -0.3621   20.0639 C   0  0  0  0  0  0  0  0  0  0  0  0
   17.9354   -2.8427   21.6340 H   0  0  0  0  0  0  0  0  0  0  0  0
   19.4084   -3.5907   17.5167 H   0  0  0  0  0  0  0  0  0  0  0  0
   20.1695   -2.3445   12.0472 H   0  0  0  0  0  0  0  0  0  0  0  0
   22.3348   -5.4455   22.8715 H   0  0  0  0  0  0  0  0  0  0  0  0
   18.0635   -1.0253   15.2466 H   0  0  0  0  0  0  0  0  0  0  0  0
   20.4878   -4.3953   15.5056 H   0  0  0  0  0  0  0  0  0  0  0  0
   14.5670   -4.4435   25.3879 H   0  0  0  0  0  0  0  0  0  0  0  0
   15.8299   -6.4672   25.4956 H   0  0  0  0  0  0  0  0  0  0  0  0
   15.4518   -2.5356   24.2757 H   0  0  0  0  0  0  0  0  0  0  0  0
   21.4618   -3.9589   20.9518 H   0  0  0  0  0  0  0  0  0  0  0  0
   18.0010   -6.6283   24.4841 H   0  0  0  0  0  0  0  0  0  0  0  0
   17.6001   -2.6626   23.2364 H   0  0  0  0  0  0  0  0  0  0  0  0
   16.7758   -1.5421   16.0514 H   0  0  0  0  0  0  0  0  0  0  0  0
   15.1110   -0.4061   17.3678 H   0  0  0  0  0  0  0  0  0  0  0  0
   13.8861   -0.8361   21.9953 H   0  0  0  0  0  0  0  0  0  0  0  0
   15.3679   -1.5127   21.8809 H   0  0  0  0  0  0  0  0  0  0  0  0
   16.3478    0.7370   21.2675 H   0  0  0  0  0  0  0  0  0  0  0  0
   14.8660    1.4136   21.3819 H   0  0  0  0  0  0  0  0  0  0  0  0
   13.9940   -0.1093   19.6189 H   0  0  0  0  0  0  0  0  0  0  0  0
  1 23  2  0  0  0  0
  2  8  1  0  0  0  0
  2 10  2  0  0  0  0
  3  9  2  0  0  0  0
  3 11  1  0  0  0  0
  4  9  1  0  0  0  0
  4 12  2  0  0  0  0
  5 23  1  0  0  0  0
  5 24  1  0  0  0  0
  6 25  1  0  0  0  0
  6 26  1  0  0  0  0
  7 27  1  0  0  0  0
  7 29  2  0  0  0  0
  8 24  1  0  0  0  0
  8 28  1  0  0  0  0
 10 16  1  0  0  0  0
 11 25  2  0  0  0  0
 12 25  1  0  0  0  0
 13 14  2  0  0  0  0
 13 15  1  0  0  0  0
 14 17  1  0  0  0  0
 15 18  2  0  0  0  0
 16 24  2  0  0  0  0
 17 28  2  0  0  0  0
 18 28  1  0  0  0  0
 19 20  1  0  0  0  0
 19 26  2  0  0  0  0
 20 27  2  0  0  0  0
 21 22  1  0  0  0  0
 21 30  1  0  0  0  0
 22 30  1  0  0  0  0
 23 29  1  0  0  0  0
 26 29  1  0  0  0  0
 27 30  1  0  0  0  0
  5 31  1  0  0  0  0
  6 32  1  0  0  0  0
  9 33  1  0  0  0  0
 10 34  1  0  0  0  0
 11 35  1  0  0  0  0
 12 36  1  0  0  0  0
 13 37  1  0  0  0  0
 14 38  1  0  0  0  0
 15 39  1  0  0  0  0
 16 40  1  0  0  0  0
 17 41  1  0  0  0  0
 18 42  1  0  0  0  0
 19 43  1  0  0  0  0
 20 44  1  0  0  0  0
 21 45  1  0  0  0  0
 21 46  1  0  0  0  0
 22 47  1  0  0  0  0
 22 48  1  0  0  0  0
 30 49  1  0  0  0  0
M  END
> <pdb_id>
5SEA

> <uniprot_id>
Q9Y233

> <usmiles>
O=C(NC=1N(N=CC1)c2ccccc2)c3nc(ccc3Nc4cncnc4)C5CC5

$$$$
IF7_A_1001
          07202415563D 1   1.00000     0.00000     0
            
 22 22  0  0  0  0            999 V2000
   80.9140   88.0523   16.9548 O   0  0  0  0  0  0  0  0  0  0  0  0
   75.6306   90.3521   19.5522 O   0  0  0  0  0  0  0  0  0  0  0  0
   77.2304   89.6126   21.6030 O   0  0  0  0  0  0  0  0  0  0  0  0
   78.3942   87.4875   20.3632 O   0  0  0  0  0  0  0  0  0  0  0  0
   76.8834   89.2292   18.0709 N   0  0  0  0  0  0  0  0  0  0  0  0
   80.4216   87.8666   18.2666 C   0  0  0  0  0  0  0  0  0  0  0  0
   78.1129   88.5408   17.6533 C   0  0  0  0  0  0  0  0  0  0  0  0
   76.6906   89.7923   19.2564 C   0  0  0  0  0  0  0  0  0  0  0  0
   77.7857   89.8195   20.3143 C   0  0  2  0  0  0  0  0  0  0  0  0
   78.8733   88.7868   20.0328 C   0  0  2  0  0  0  0  0  0  0  0  0
   79.3072   88.8463   18.5681 C   0  0  1  0  0  0  0  0  0  0  0  0
   81.6476   87.3961   16.7781 H   0  0  0  0  0  0  0  0  0  0  0  0
   77.9594   89.6328   22.2872 H   0  0  0  0  0  0  0  0  0  0  0  0
   79.1079   86.8120   20.1782 H   0  0  0  0  0  0  0  0  0  0  0  0
   76.1341   89.2767   17.4103 H   0  0  0  0  0  0  0  0  0  0  0  0
   81.1664   88.0068   18.9189 H   0  0  0  0  0  0  0  0  0  0  0  0
   80.0712   86.9343   18.3560 H   0  0  0  0  0  0  0  0  0  0  0  0
   78.3407   88.8301   16.7236 H   0  0  0  0  0  0  0  0  0  0  0  0
   77.9463   87.5549   17.6643 H   0  0  0  0  0  0  0  0  0  0  0  0
   78.2078   90.7260   20.3004 H   0  0  0  0  0  0  0  0  0  0  0  0
   79.6647   88.9914   20.6088 H   0  0  0  0  0  0  0  0  0  0  0  0
   79.6329   89.7706   18.3693 H   0  0  0  0  0  0  0  0  0  0  0  0
  1  6  1  0  0  0  0
  2  8  2  0  0  0  0
  3  9  1  0  0  0  0
  4 10  1  0  0  0  0
  5  7  1  0  0  0  0
  5  8  1  0  0  0  0
  6 11  1  0  0  0  0
  7 11  1  0  0  0  0
  8  9  1  0  0  0  0
  9 10  1  0  0  0  0
 10 11  1  0  0  0  0
  1 12  1  0  0  0  0
  3 13  1  0  0  0  0
  4 14  1  0  0  0  0
  5 15  1  0  0  0  0
  6 16  1  0  0  0  0
  6 17  1  0  0  0  0
  7 18  1  0  0  0  0
  7 19  1  0  0  0  0
  9 20  1  0  0  0  0
 10 21  1  0  0  0  0
 11 22  1  0  0  0  0
M  END
> <pdb_id>
4UFJ

> <uniprot_id>
P54818

> <usmiles>
O=C1NC[C@@H]([C@H](O)[C@@H]1O)CO

$$$$
IFG_A_601
          07202409593D 1   1.00000     0.00000     0
            
 30 30  0  0  0  0            999 V2000
   -1.5492   66.4661   11.1721 O   0  0  0  0  0  0  0  0  0  0  0  0
   -5.5616   64.2045    8.4564 O   0  0  0  0  0  0  0  0  0  0  0  0
   -5.4737   68.0928    6.7475 O   0  0  0  0  0  0  0  0  0  0  0  0
   -4.2317   69.1768    8.9853 O   0  0  0  0  0  0  0  0  0  0  0  0
   -5.7724   66.3144   10.0641 N   0  0  0  0  0  0  0  0  0  0  0  0
   -7.0381   65.8402    8.0542 N   0  0  0  0  0  0  0  0  0  0  0  0
   -7.4050   63.4609    7.2507 C   0  0  0  0  0  0  0  0  0  0  0  0
   -2.1788   67.5280   10.4635 C   0  0  0  0  0  0  0  0  0  0  0  0
   -4.5172   66.7901   10.6658 C   0  0  0  0  0  0  0  0  0  0  0  0
   -6.6222   64.5426    7.9497 C   0  0  0  0  0  0  0  0  0  0  0  0
   -6.1738   66.8330    8.7308 C   0  0  2  0  0  0  0  0  0  0  0  0
   -4.9834   67.2324    7.7674 C   0  0  2  0  0  0  0  0  0  0  0  0
   -3.7995   67.9110    8.4881 C   0  0  2  0  0  0  0  0  0  0  0  0
   -3.3784   67.0283    9.6653 C   0  0  1  0  0  0  0  0  0  0  0  0
   -0.7685   66.8240   11.6844 H   0  0  0  0  0  0  0  0  0  0  0  0
   -4.7236   68.3471    6.1369 H   0  0  0  0  0  0  0  0  0  0  0  0
   -3.4725   69.6272    9.4552 H   0  0  0  0  0  0  0  0  0  0  0  0
   -6.5082   66.5436   10.7013 H   0  0  0  0  0  0  0  0  0  0  0  0
   -7.9213   66.1172    7.6757 H   0  0  0  0  0  0  0  0  0  0  0  0
   -8.2479   63.8480    6.8769 H   0  0  0  0  0  0  0  0  0  0  0  0
   -6.8555   63.0789    6.5076 H   0  0  0  0  0  0  0  0  0  0  0  0
   -7.6311   62.7380    7.9036 H   0  0  0  0  0  0  0  0  0  0  0  0
   -1.5173   67.9373    9.8351 H   0  0  0  0  0  0  0  0  0  0  0  0
   -2.4878   68.2180   11.1181 H   0  0  0  0  0  0  0  0  0  0  0  0
   -4.2113   66.1076   11.3296 H   0  0  0  0  0  0  0  0  0  0  0  0
   -4.7042   67.6524   11.1363 H   0  0  0  0  0  0  0  0  0  0  0  0
   -6.7239   67.6541    8.8826 H   0  0  0  0  0  0  0  0  0  0  0  0
   -4.6441   66.3984    7.3323 H   0  0  0  0  0  0  0  0  0  0  0  0
   -3.0341   68.0316    7.8561 H   0  0  0  0  0  0  0  0  0  0  0  0
   -3.1284   66.1365    9.2881 H   0  0  0  0  0  0  0  0  0  0  0  0
  1  8  1  0  0  0  0
  2 10  2  0  0  0  0
  3 12  1  0  0  0  0
  4 13  1  0  0  0  0
  5  9  1  0  0  0  0
  5 11  1  0  0  0  0
  6 10  1  0  0  0  0
  6 11  1  0  0  0  0
  7 10  1  0  0  0  0
  8 14  1  0  0  0  0
  9 14  1  0  0  0  0
 11 12  1  0  0  0  0
 12 13  1  0  0  0  0
 13 14  1  0  0  0  0
  1 15  1  0  0  0  0
  3 16  1  0  0  0  0
  4 17  1  0  0  0  0
  5 18  1  0  0  0  0
  6 19  1  0  0  0  0
  7 20  1  0  0  0  0
  7 21  1  0  0  0  0
  7 22  1  0  0  0  0
  8 23  1  0  0  0  0
  8 24  1  0  0  0  0
  9 25  1  0  0  0  0
  9 26  1  0  0  0  0
 11 27  1  0  0  0  0
 12 28  1  0  0  0  0
 13 29  1  0  0  0  0
 14 30  1  0  0  0  0
M  END
> <pdb_id>
1JAK

> <uniprot_id>
Q9Y691

> <usmiles>
O=C(N[C@H]1NC[C@@H]([C@H](O)[C@@H]1O)CO)C

$$$$
IFL_A_1446
          07192418433D 1   1.00000     0.00000     0
            
 22 22  0  0  0  0            999 V2000
   -2.4385    8.0642    8.6145 O   0  0  0  0  0  0  0  0  0  0  0  0
    0.7493   12.9864   10.0305 O   0  0  0  0  0  0  0  0  0  0  0  0
    0.9650   12.0841    7.5170 O   0  0  0  0  0  0  0  0  0  0  0  0
   -1.4251   10.6996    6.5331 O   0  0  0  0  0  0  0  0  0  0  0  0
   -0.5609   11.2214   10.5600 N   0  0  0  0  0  0  0  0  0  0  0  0
   -3.1327    9.3083    8.5353 C   0  0  0  0  0  0  0  0  0  0  0  0
   -1.4771   10.1243   10.2482 C   0  0  0  0  0  0  0  0  0  0  0  0
    0.0144   12.0826    9.6873 C   0  0  0  0  0  0  0  0  0  0  0  0
   -0.2877   11.9363    8.1913 C   0  0  2  0  0  0  0  0  0  0  0  0
   -0.9984   10.6029    7.8872 C   0  0  1  0  0  0  0  0  0  0  0  0
   -2.1587   10.4214    8.8987 C   0  0  1  0  0  0  0  0  0  0  0  0
   -3.0622    7.3189    8.3790 H   0  0  0  0  0  0  0  0  0  0  0  0
    0.8251   11.9968    6.5307 H   0  0  0  0  0  0  0  0  0  0  0  0
   -1.8978    9.8580    6.2717 H   0  0  0  0  0  0  0  0  0  0  0  0
   -0.3341   11.3498   11.5254 H   0  0  0  0  0  0  0  0  0  0  0  0
   -3.9009    9.3085    9.1755 H   0  0  0  0  0  0  0  0  0  0  0  0
   -3.4735    9.4470    7.6055 H   0  0  0  0  0  0  0  0  0  0  0  0
   -2.1694   10.0493   10.9660 H   0  0  0  0  0  0  0  0  0  0  0  0
   -0.9668    9.2666   10.1863 H   0  0  0  0  0  0  0  0  0  0  0  0
   -0.8880   12.6864    7.9138 H   0  0  0  0  0  0  0  0  0  0  0  0
   -0.3497    9.8477    7.9815 H   0  0  0  0  0  0  0  0  0  0  0  0
   -2.6625   11.2821    8.9723 H   0  0  0  0  0  0  0  0  0  0  0  0
  1  6  1  0  0  0  0
  2  8  2  0  0  0  0
  3  9  1  0  0  0  0
  4 10  1  0  0  0  0
  5  7  1  0  0  0  0
  5  8  1  0  0  0  0
  6 11  1  0  0  0  0
  7 11  1  0  0  0  0
  8  9  1  0  0  0  0
  9 10  1  0  0  0  0
 10 11  1  0  0  0  0
  1 12  1  0  0  0  0
  3 13  1  0  0  0  0
  4 14  1  0  0  0  0
  5 15  1  0  0  0  0
  6 16  1  0  0  0  0
  6 17  1  0  0  0  0
  7 18  1  0  0  0  0
  7 19  1  0  0  0  0
  9 20  1  0  0  0  0
 10 21  1  0  0  0  0
 11 22  1  0  0  0  0
M  END
> <pdb_id>
1UZ1

> <uniprot_id>
Q08638

> <usmiles>
O=C1NC[C@@H]([C@@H](O)[C@@H]1O)CO

$$$$
IFL_A_503
          07192420163D 1   1.00000     0.00000     0
            
 24 24  0  0  0  0            999 V2000
   25.6286   21.9792   48.5160 O   0  0  0  0  0  0  0  0  0  0  0  0
   26.7534   16.4533   47.2947 O   0  0  0  0  0  0  0  0  0  0  0  0
   25.6663   17.8112   49.2833 O   0  0  0  0  0  0  0  0  0  0  0  0
   22.9305   18.3150   46.8767 O   0  0  0  0  0  0  0  0  0  0  0  0
   26.4651   18.6961   46.7002 N   0  0  0  0  0  0  0  0  0  0  0  0
   24.9785   20.7318   48.8344 C   0  0  0  0  0  0  0  0  0  0  0  0
   25.5739   19.8657   46.4900 C   0  0  0  0  0  0  0  0  0  0  0  0
   25.8200   17.4216   47.0107 C   0  0  2  0  0  0  0  0  0  0  0  0
   24.8524   17.5512   48.1241 C   0  0  2  0  0  0  0  0  0  0  0  0
   23.8321   18.6828   47.9334 C   0  0  1  0  0  0  0  0  0  0  0  0
   24.4937   20.0128   47.5729 C   0  0  1  0  0  0  0  0  0  0  0  0
   25.9321   22.4218   49.3598 H   0  0  0  0  0  0  0  0  0  0  0  0
   26.2883   15.5929   47.5032 H   0  0  0  0  0  0  0  0  0  0  0  0
   25.0796   17.9123   50.0867 H   0  0  0  0  0  0  0  0  0  0  0  0
   22.2598   19.0443   46.7419 H   0  0  0  0  0  0  0  0  0  0  0  0
   27.0793   18.9165   47.4580 H   0  0  0  0  0  0  0  0  0  0  0  0
   24.1930   20.9164   49.4252 H   0  0  0  0  0  0  0  0  0  0  0  0
   25.6263   20.1416   49.3160 H   0  0  0  0  0  0  0  0  0  0  0  0
   25.1222   19.7646   45.6035 H   0  0  0  0  0  0  0  0  0  0  0  0
   26.1338   20.6942   46.4862 H   0  0  0  0  0  0  0  0  0  0  0  0
   25.3142   17.1296   46.1989 H   0  0  0  0  0  0  0  0  0  0  0  0
   24.3683   16.6847   48.2458 H   0  0  0  0  0  0  0  0  0  0  0  0
   23.3118   18.7973   48.7796 H   0  0  0  0  0  0  0  0  0  0  0  0
   23.7760   20.5871   47.1792 H   0  0  0  0  0  0  0  0  0  0  0  0
  1  6  1  0  0  0  0
  2  8  1  0  0  0  0
  3  9  1  0  0  0  0
  4 10  1  0  0  0  0
  5  7  1  0  0  0  0
  5  8  1  0  0  0  0
  6 11  1  0  0  0  0
  7 11  1  0  0  0  0
  8  9  1  0  0  0  0
  9 10  1  0  0  0  0
 10 11  1  0  0  0  0
  1 12  1  0  0  0  0
  2 13  1  0  0  0  0
  3 14  1  0  0  0  0
  4 15  1  0  0  0  0
  5 16  1  0  0  0  0
  6 17  1  0  0  0  0
  6 18  1  0  0  0  0
  7 19  1  0  0  0  0
  7 20  1  0  0  0  0
  8 21  1  0  0  0  0
  9 22  1  0  0  0  0
 10 23  1  0  0  0  0
 11 24  1  0  0  0  0
M  END
> <pdb_id>
4AYR

> <uniprot_id>
B0SWV2

> <usmiles>
O[C@@H]1[C@@H](CO)CN[C@@H](O)[C@H]1O

$$$$
IFL_B_1867
          07192417363D 1   1.00000     0.00000     0
            
 22 22  0  0  0  0            999 V2000
  -17.9322   61.4121   48.2517 O   0  0  0  0  0  0  0  0  0  0  0  0
  -18.8738   55.3889   47.5545 O   0  0  0  0  0  0  0  0  0  0  0  0
  -20.1955   57.4098   45.9766 O   0  0  0  0  0  0  0  0  0  0  0  0
  -18.0381   59.4179   45.3057 O   0  0  0  0  0  0  0  0  0  0  0  0
  -18.2922   57.1560   48.8021 N   0  0  0  0  0  0  0  0  0  0  0  0
  -16.8403   60.5616   47.8344 C   0  0  0  0  0  0  0  0  0  0  0  0
  -17.8946   58.5473   48.9797 C   0  0  0  0  0  0  0  0  0  0  0  0
  -18.6510   56.5730   47.6184 C   0  0  0  0  0  0  0  0  0  0  0  0
  -18.8100   57.4585   46.3644 C   0  0  2  0  0  0  0  0  0  0  0  0
  -18.4495   58.9469   46.5879 C   0  0  1  0  0  0  0  0  0  0  0  0
  -17.3443   59.1171   47.6424 C   0  0  1  0  0  0  0  0  0  0  0  0
  -17.5986   62.3468   48.3743 H   0  0  0  0  0  0  0  0  0  0  0  0
  -20.3342   57.9753   45.1636 H   0  0  0  0  0  0  0  0  0  0  0  0
  -17.7865   60.3836   45.3703 H   0  0  0  0  0  0  0  0  0  0  0  0
  -18.3036   56.5772   49.6175 H   0  0  0  0  0  0  0  0  0  0  0  0
  -16.1252   60.5732   48.5334 H   0  0  0  0  0  0  0  0  0  0  0  0
  -16.4675   60.9004   46.9706 H   0  0  0  0  0  0  0  0  0  0  0  0
  -17.1834   58.6016   49.6806 H   0  0  0  0  0  0  0  0  0  0  0  0
  -18.6877   59.0843   49.2672 H   0  0  0  0  0  0  0  0  0  0  0  0
  -18.2466   57.0892   45.6253 H   0  0  0  0  0  0  0  0  0  0  0  0
  -19.2656   59.4461   46.8789 H   0  0  0  0  0  0  0  0  0  0  0  0
  -16.5657   58.5540   47.3655 H   0  0  0  0  0  0  0  0  0  0  0  0
  1  6  1  0  0  0  0
  2  8  2  0  0  0  0
  3  9  1  0  0  0  0
  4 10  1  0  0  0  0
  5  7  1  0  0  0  0
  5  8  1  0  0  0  0
  6 11  1  0  0  0  0
  7 11  1  0  0  0  0
  8  9  1  0  0  0  0
  9 10  1  0  0  0  0
 10 11  1  0  0  0  0
  1 12  1  0  0  0  0
  3 13  1  0  0  0  0
  4 14  1  0  0  0  0
  5 15  1  0  0  0  0
  6 16  1  0  0  0  0
  6 17  1  0  0  0  0
  7 18  1  0  0  0  0
  7 19  1  0  0  0  0
  9 20  1  0  0  0  0
 10 21  1  0  0  0  0
 11 22  1  0  0  0  0
M  END
> <pdb_id>
2VJX

> <uniprot_id>
Q8AAK6

> <usmiles>
O=C1NC[C@@H]([C@@H](O)[C@@H]1O)CO

$$$$
IFM_A_901
          07192420383D 1   1.00000     0.00000     0
            
 23 23  0  0  0  0            999 V2000
   61.6208   68.3287   61.8439 O   0  0  0  0  0  0  0  0  0  0  0  0
   57.7208   65.6706   57.7249 O   0  0  0  0  0  0  0  0  0  0  0  0
   60.4629   66.4663   58.2610 O   0  0  0  0  0  0  0  0  0  0  0  0
   57.6285   66.4559   61.3707 N   0  0  0  0  0  0  0  0  0  0  0  0
   60.9052   68.2712   60.5991 C   0  0  0  0  0  0  0  0  0  0  0  0
   57.1258   66.1546   60.0339 C   0  0  0  0  0  0  0  0  0  0  0  0
   58.7175   67.4328   61.4985 C   0  0  0  0  0  0  0  0  0  0  0  0
   58.2441   65.7976   59.0638 C   0  0  2  0  0  0  0  0  0  0  0  0
   59.3733   66.8501   59.1150 C   0  0  1  0  0  0  0  0  0  0  0  0
   59.8796   67.1132   60.5447 C   0  0  1  0  0  0  0  0  0  0  0  0
   62.2662   69.0922   61.8223 H   0  0  0  0  0  0  0  0  0  0  0  0
   58.4634   65.4363   57.0975 H   0  0  0  0  0  0  0  0  0  0  0  0
   61.1828   67.1588   58.3075 H   0  0  0  0  0  0  0  0  0  0  0  0
   57.9530   65.5967   61.7661 H   0  0  0  0  0  0  0  0  0  0  0  0
   61.5647   68.1480   59.8577 H   0  0  0  0  0  0  0  0  0  0  0  0
   60.4177   69.1350   60.4715 H   0  0  0  0  0  0  0  0  0  0  0  0
   56.6403   66.9560   59.6844 H   0  0  0  0  0  0  0  0  0  0  0  0
   56.4936   65.3821   60.0944 H   0  0  0  0  0  0  0  0  0  0  0  0
   59.0566   67.4194   62.4391 H   0  0  0  0  0  0  0  0  0  0  0  0
   58.3633   68.3433   61.2848 H   0  0  0  0  0  0  0  0  0  0  0  0
   58.6259   64.9145   59.3364 H   0  0  0  0  0  0  0  0  0  0  0  0
   59.0017   67.7093   58.7632 H   0  0  0  0  0  0  0  0  0  0  0  0
   60.3308   66.2830   60.8721 H   0  0  0  0  0  0  0  0  0  0  0  0
  1  5  1  0  0  0  0
  2  8  1  0  0  0  0
  3  9  1  0  0  0  0
  4  6  1  0  0  0  0
  4  7  1  0  0  0  0
  5 10  1  0  0  0  0
  6  8  1  0  0  0  0
  7 10  1  0  0  0  0
  8  9  1  0  0  0  0
  9 10  1  0  0  0  0
  1 11  1  0  0  0  0
  2 12  1  0  0  0  0
  3 13  1  0  0  0  0
  4 14  1  0  0  0  0
  5 15  1  0  0  0  0
  5 16  1  0  0  0  0
  6 17  1  0  0  0  0
  6 18  1  0  0  0  0
  7 19  1  0  0  0  0
  7 20  1  0  0  0  0
  8 21  1  0  0  0  0
  9 22  1  0  0  0  0
 10 23  1  0  0  0  0
M  END
> <pdb_id>
8JBO

> <uniprot_id>
F6BL85

> <usmiles>
O[C@H]1[C@H](O)CNC[C@@H]1CO

$$$$
IFR_C_801
          07192416573D 1   1.00000     0.00000     0
            
 49 52  0  0  0  0            999 V2000
   22.8615   -5.8306   24.6655 N   0  0  0  0  0  0  0  0  0  0  0  0
   18.6261   -2.7076   20.6560 N   0  0  0  0  0  0  0  0  0  0  0  0
   23.2061   -4.9076   22.6139 N   0  0  0  0  0  0  0  0  0  0  0  0
   20.0033   -3.4272   19.0238 N   0  0  0  0  0  0  0  0  0  0  0  0
   16.1821   -1.9593   17.7945 N   0  0  0  0  0  0  0  0  0  0  0  0
   21.6824   -5.8785   23.9669 N   0  0  0  0  0  0  0  0  0  0  0  0
   17.9752   -2.5871   19.4457 N   0  0  0  0  0  0  0  0  0  0  0  0
   25.0832   -5.0600   24.2298 N   0  0  0  0  0  0  0  0  0  0  0  0
   20.4492   -6.4603   24.4923 C   0  0  0  0  0  0  0  0  0  0  0  0
   15.8092   -1.5456   20.2471 C   0  0  0  0  0  0  0  0  0  0  0  0
   16.4974   -2.3143   15.4251 C   0  0  0  0  0  0  0  0  0  0  0  0
   19.4089   -3.4984   16.1512 C   0  0  0  0  0  0  0  0  0  0  0  0
   25.5194   -5.4759   25.5362 C   0  0  0  0  0  0  0  0  0  0  0  0
   26.1555   -4.8513   23.3104 C   0  0  0  0  0  0  0  0  0  0  0  0
   26.9551   -5.0887   25.5765 C   0  0  0  0  0  0  0  0  0  0  0  0
   27.4154   -4.9930   24.1557 C   0  0  0  0  0  0  0  0  0  0  0  0
   20.8281   -3.5542   21.4419 C   0  0  0  0  0  0  0  0  0  0  0  0
   20.9044   -5.0747   21.6366 C   0  0  0  0  0  0  0  0  0  0  0  0
   23.7505   -5.2568   23.8194 C   0  0  0  0  0  0  0  0  0  0  0  0
   19.8430   -3.2405   20.3822 C   0  0  0  0  0  0  0  0  0  0  0  0
   16.6437   -2.0238   19.1334 C   0  0  0  0  0  0  0  0  0  0  0  0
   21.9172   -5.2935   22.7298 C   0  0  0  0  0  0  0  0  0  0  0  0
   18.8087   -3.0121   18.4859 C   0  0  0  0  0  0  0  0  0  0  0  0
   17.0372   -2.4090   16.8134 C   0  0  0  0  0  0  0  0  0  0  0  0
   18.3596   -2.9798   17.1302 C   0  0  0  0  0  0  0  0  0  0  0  0
   19.7251   -6.3814   23.8072 H   0  0  0  0  0  0  0  0  0  0  0  0
   20.6010   -7.4251   24.7073 H   0  0  0  0  0  0  0  0  0  0  0  0
   20.1777   -5.9726   25.3220 H   0  0  0  0  0  0  0  0  0  0  0  0
   16.2999   -1.6716   21.1093 H   0  0  0  0  0  0  0  0  0  0  0  0
   15.6056   -0.5750   20.1182 H   0  0  0  0  0  0  0  0  0  0  0  0
   14.9551   -2.0651   20.2707 H   0  0  0  0  0  0  0  0  0  0  0  0
   17.1778   -2.6595   14.7786 H   0  0  0  0  0  0  0  0  0  0  0  0
   15.6628   -2.8606   15.3540 H   0  0  0  0  0  0  0  0  0  0  0  0
   16.2899   -1.3595   15.2125 H   0  0  0  0  0  0  0  0  0  0  0  0
   19.0465   -3.4549   15.2202 H   0  0  0  0  0  0  0  0  0  0  0  0
   20.2321   -2.9343   16.2152 H   0  0  0  0  0  0  0  0  0  0  0  0
   19.6357   -4.4459   16.3767 H   0  0  0  0  0  0  0  0  0  0  0  0
   25.4144   -6.4640   25.6481 H   0  0  0  0  0  0  0  0  0  0  0  0
   25.0035   -5.0028   26.2504 H   0  0  0  0  0  0  0  0  0  0  0  0
   26.1019   -3.9382   22.9061 H   0  0  0  0  0  0  0  0  0  0  0  0
   26.1377   -5.5388   22.5844 H   0  0  0  0  0  0  0  0  0  0  0  0
   27.4854   -5.7821   26.0644 H   0  0  0  0  0  0  0  0  0  0  0  0
   27.0611   -4.2055   26.0333 H   0  0  0  0  0  0  0  0  0  0  0  0
   28.0054   -4.1946   24.0354 H   0  0  0  0  0  0  0  0  0  0  0  0
   27.9157   -5.8192   23.8968 H   0  0  0  0  0  0  0  0  0  0  0  0
   21.7270   -3.2070   21.1746 H   0  0  0  0  0  0  0  0  0  0  0  0
   20.5451   -3.1224   22.2983 H   0  0  0  0  0  0  0  0  0  0  0  0
   21.2010   -5.5201   20.7918 H   0  0  0  0  0  0  0  0  0  0  0  0
   20.0130   -5.4367   21.9091 H   0  0  0  0  0  0  0  0  0  0  0  0
  1  6  1  0  0  0  0
  1 19  2  0  0  0  0
  2  7  1  0  0  0  0
  2 20  2  0  0  0  0
  3 19  1  0  0  0  0
  3 22  2  0  0  0  0
  4 20  1  0  0  0  0
  4 23  2  0  0  0  0
  5 21  2  0  0  0  0
  5 24  1  0  0  0  0
  6  9  1  0  0  0  0
  6 22  1  0  0  0  0
  7 21  1  0  0  0  0
  7 23  1  0  0  0  0
  8 13  1  0  0  0  0
  8 14  1  0  0  0  0
  8 19  1  0  0  0  0
 10 21  1  0  0  0  0
 11 24  1  0  0  0  0
 12 25  1  0  0  0  0
 13 15  1  0  0  0  0
 14 16  1  0  0  0  0
 15 16  1  0  0  0  0
 17 18  1  0  0  0  0
 17 20  1  0  0  0  0
 18 22  1  0  0  0  0
 23 25  1  0  0  0  0
 24 25  2  0  0  0  0
  9 26  1  0  0  0  0
  9 27  1  0  0  0  0
  9 28  1  0  0  0  0
 10 29  1  0  0  0  0
 10 30  1  0  0  0  0
 10 31  1  0  0  0  0
 11 32  1  0  0  0  0
 11 33  1  0  0  0  0
 11 34  1  0  0  0  0
 12 35  1  0  0  0  0
 12 36  1  0  0  0  0
 12 37  1  0  0  0  0
 13 38  1  0  0  0  0
 13 39  1  0  0  0  0
 14 40  1  0  0  0  0
 14 41  1  0  0  0  0
 15 42  1  0  0  0  0
 15 43  1  0  0  0  0
 16 44  1  0  0  0  0
 16 45  1  0  0  0  0
 17 46  1  0  0  0  0
 17 47  1  0  0  0  0
 18 48  1  0  0  0  0
 18 49  1  0  0  0  0
M  END
> <pdb_id>
5SEF

> <uniprot_id>
Q9Y233

> <usmiles>
N=1N2C(=NC1CCC3=NC(=NN3C)N4CCCC4)C(=C(N=C2C)C)C

$$$$
IFV_C_803
          07192416573D 1   1.00000     0.00000     0
            
 41 44  0  0  0  0            999 V2000
   16.0373   -2.1373   15.2928 Cl  0  0  0  0  0  0  0  0  0  0  0  0
   22.6691   -5.6188   24.5385 N   0  0  0  0  0  0  0  0  0  0  0  0
   20.0932   -3.4625   18.4971 N   0  0  0  0  0  0  0  0  0  0  0  0
   23.3499   -4.7596   22.5239 N   0  0  0  0  0  0  0  0  0  0  0  0
   18.9697   -2.5831   20.2766 N   0  0  0  0  0  0  0  0  0  0  0  0
   21.6131   -5.6068   23.6880 N   0  0  0  0  0  0  0  0  0  0  0  0
   18.8645   -2.9603   18.0924 N   0  0  0  0  0  0  0  0  0  0  0  0
   24.9996   -5.0001   24.3439 N   0  0  0  0  0  0  0  0  0  0  0  0
   20.2521   -6.0331   23.9596 C   0  0  0  0  0  0  0  0  0  0  0  0
   25.5766   -5.5502   25.5135 C   0  0  0  0  0  0  0  0  0  0  0  0
   26.0047   -4.6740   23.3689 C   0  0  0  0  0  0  0  0  0  0  0  0
   18.1940   -2.9063   16.7963 C   0  0  0  0  0  0  0  0  0  0  0  0
   27.0242   -5.1748   25.4476 C   0  0  0  0  0  0  0  0  0  0  0  0
   27.3150   -5.0372   23.9855 C   0  0  0  0  0  0  0  0  0  0  0  0
   21.1186   -3.4422   20.9443 C   0  0  0  0  0  0  0  0  0  0  0  0
   21.0984   -4.9137   21.3109 C   0  0  0  0  0  0  0  0  0  0  0  0
   16.8200   -1.7877   19.1573 C   0  0  0  0  0  0  0  0  0  0  0  0
   16.1850   -1.7087   17.8802 C   0  0  0  0  0  0  0  0  0  0  0  0
   23.6992   -5.1194   23.8014 C   0  0  0  0  0  0  0  0  0  0  0  0
   20.1090   -3.1980   19.8726 C   0  0  0  0  0  0  0  0  0  0  0  0
   22.0346   -5.0891   22.4946 C   0  0  0  0  0  0  0  0  0  0  0  0
   18.1882   -2.4206   19.1913 C   0  0  0  0  0  0  0  0  0  0  0  0
   16.8550   -2.2912   16.7656 C   0  0  0  0  0  0  0  0  0  0  0  0
   19.6935   -5.9073   23.1397 H   0  0  0  0  0  0  0  0  0  0  0  0
   20.2508   -6.9989   24.2188 H   0  0  0  0  0  0  0  0  0  0  0  0
   19.8746   -5.4867   24.7072 H   0  0  0  0  0  0  0  0  0  0  0  0
   25.4718   -6.5447   25.5223 H   0  0  0  0  0  0  0  0  0  0  0  0
   25.1502   -5.1629   26.3309 H   0  0  0  0  0  0  0  0  0  0  0  0
   25.9795   -3.6968   23.1582 H   0  0  0  0  0  0  0  0  0  0  0  0
   25.8583   -5.1996   22.5308 H   0  0  0  0  0  0  0  0  0  0  0  0
   18.6229   -3.2694   15.9691 H   0  0  0  0  0  0  0  0  0  0  0  0
   27.5928   -5.8898   25.8545 H   0  0  0  0  0  0  0  0  0  0  0  0
   27.1861   -4.3097   25.9223 H   0  0  0  0  0  0  0  0  0  0  0  0
   27.9906   -4.3171   23.8269 H   0  0  0  0  0  0  0  0  0  0  0  0
   27.6536   -5.9003   23.6108 H   0  0  0  0  0  0  0  0  0  0  0  0
   22.0280   -3.1912   20.6124 H   0  0  0  0  0  0  0  0  0  0  0  0
   20.8940   -2.8925   21.7489 H   0  0  0  0  0  0  0  0  0  0  0  0
   21.4145   -5.4645   20.5384 H   0  0  0  0  0  0  0  0  0  0  0  0
   20.1714   -5.1925   21.5618 H   0  0  0  0  0  0  0  0  0  0  0  0
   16.3800   -1.4413   19.9857 H   0  0  0  0  0  0  0  0  0  0  0  0
   15.2985   -1.2588   17.7717 H   0  0  0  0  0  0  0  0  0  0  0  0
  1 23  1  0  0  0  0
  2  6  1  0  0  0  0
  2 19  2  0  0  0  0
  3  7  1  0  0  0  0
  3 20  2  0  0  0  0
  4 19  1  0  0  0  0
  4 21  2  0  0  0  0
  5 20  1  0  0  0  0
  5 22  2  0  0  0  0
  6  9  1  0  0  0  0
  6 21  1  0  0  0  0
  7 12  1  0  0  0  0
  7 22  1  0  0  0  0
  8 10  1  0  0  0  0
  8 11  1  0  0  0  0
  8 19  1  0  0  0  0
 10 13  1  0  0  0  0
 11 14  1  0  0  0  0
 12 23  2  0  0  0  0
 13 14  1  0  0  0  0
 15 16  1  0  0  0  0
 15 20  1  0  0  0  0
 16 21  1  0  0  0  0
 17 18  2  0  0  0  0
 17 22  1  0  0  0  0
 18 23  1  0  0  0  0
  9 24  1  0  0  0  0
  9 25  1  0  0  0  0
  9 26  1  0  0  0  0
 10 27  1  0  0  0  0
 10 28  1  0  0  0  0
 11 29  1  0  0  0  0
 11 30  1  0  0  0  0
 12 31  1  0  0  0  0
 13 32  1  0  0  0  0
 13 33  1  0  0  0  0
 14 34  1  0  0  0  0
 14 35  1  0  0  0  0
 15 36  1  0  0  0  0
 15 37  1  0  0  0  0
 16 38  1  0  0  0  0
 16 39  1  0  0  0  0
 17 40  1  0  0  0  0
 18 41  1  0  0  0  0
M  END
> <pdb_id>
5SEJ

> <uniprot_id>
Q9Y233

> <usmiles>
ClC1=CN2N=C(N=C2C=C1)CCC3=NC(=NN3C)N4CCCC4

$$$$
IG6_B_803
          07192416573D 1   1.00000     0.00000     0
            
 46 49  0  0  0  0            999 V2000
   15.7304   -1.3922   15.5701 F   0  0  0  0  0  0  0  0  0  0  0  0
   17.2468   -2.5176   14.4904 F   0  0  0  0  0  0  0  0  0  0  0  0
   15.4305   -3.5390   15.4922 F   0  0  0  0  0  0  0  0  0  0  0  0
   19.6805   -3.3864   19.1320 N   0  0  0  0  0  0  0  0  0  0  0  0
   23.0642   -4.9143   22.7624 N   0  0  0  0  0  0  0  0  0  0  0  0
   16.5020   -2.1725   18.0487 N   0  0  0  0  0  0  0  0  0  0  0  0
   18.5765   -3.0240   18.4124 N   0  0  0  0  0  0  0  0  0  0  0  0
   21.4158   -5.7839   24.0066 N   0  0  0  0  0  0  0  0  0  0  0  0
   20.0944   -6.1911   24.3575 C   0  0  0  0  0  0  0  0  0  0  0  0
   19.3733   -3.7940   16.1896 C   0  0  0  0  0  0  0  0  0  0  0  0
   22.5410   -5.8556   24.7330 C   0  0  0  0  0  0  0  0  0  0  0  0
   27.6117   -4.6206   25.1721 C   0  0  0  0  0  0  0  0  0  0  0  0
   27.1856   -4.2777   23.8838 C   0  0  0  0  0  0  0  0  0  0  0  0
   26.7179   -5.2495   26.0739 C   0  0  0  0  0  0  0  0  0  0  0  0
   17.4103   -2.1226   20.4063 C   0  0  0  0  0  0  0  0  0  0  0  0
   20.7159   -4.9099   21.7502 C   0  0  0  0  0  0  0  0  0  0  0  0
   18.5524   -2.5217   21.1601 C   0  0  0  0  0  0  0  0  0  0  0  0
   20.9295   -3.4925   21.2698 C   0  0  0  0  0  0  0  0  0  0  0  0
   25.8368   -4.5580   23.5107 C   0  0  0  0  0  0  0  0  0  0  0  0
   25.3836   -5.4805   25.7033 C   0  0  0  0  0  0  0  0  0  0  0  0
   17.4049   -2.4149   19.0087 C   0  0  0  0  0  0  0  0  0  0  0  0
   21.7382   -5.1804   22.8295 C   0  0  0  0  0  0  0  0  0  0  0  0
   19.6839   -3.1116   20.5064 C   0  0  0  0  0  0  0  0  0  0  0  0
   23.5539   -5.3547   23.9533 C   0  0  0  0  0  0  0  0  0  0  0  0
   18.3747   -3.1756   17.1129 C   0  0  0  0  0  0  0  0  0  0  0  0
   17.0722   -2.6171   16.8482 C   0  0  0  0  0  0  0  0  0  0  0  0
   24.9840   -5.1720   24.3777 C   0  0  0  0  0  0  0  0  0  0  0  0
   16.3670   -2.5604   15.5354 C   0  0  0  0  0  0  0  0  0  0  0  0
   19.4745   -6.0038   23.5954 H   0  0  0  0  0  0  0  0  0  0  0  0
   20.0897   -7.1708   24.5579 H   0  0  0  0  0  0  0  0  0  0  0  0
   19.7927   -5.6842   25.1649 H   0  0  0  0  0  0  0  0  0  0  0  0
   19.0063   -3.8030   15.2594 H   0  0  0  0  0  0  0  0  0  0  0  0
   20.2196   -3.2616   16.2090 H   0  0  0  0  0  0  0  0  0  0  0  0
   19.5623   -4.7313   16.4825 H   0  0  0  0  0  0  0  0  0  0  0  0
   22.6260   -6.2072   25.6653 H   0  0  0  0  0  0  0  0  0  0  0  0
   28.5493   -4.4212   25.4569 H   0  0  0  0  0  0  0  0  0  0  0  0
   27.8139   -3.8449   23.2373 H   0  0  0  0  0  0  0  0  0  0  0  0
   27.0389   -5.5301   26.9784 H   0  0  0  0  0  0  0  0  0  0  0  0
   16.6406   -1.6548   20.8407 H   0  0  0  0  0  0  0  0  0  0  0  0
   20.8415   -5.5502   20.9924 H   0  0  0  0  0  0  0  0  0  0  0  0
   19.7927   -5.0095   22.1213 H   0  0  0  0  0  0  0  0  0  0  0  0
   18.5645   -2.3894   22.1513 H   0  0  0  0  0  0  0  0  0  0  0  0
   21.7297   -3.4464   20.6719 H   0  0  0  0  0  0  0  0  0  0  0  0
   21.0595   -2.8788   22.0485 H   0  0  0  0  0  0  0  0  0  0  0  0
   25.5133   -4.3001   22.6003 H   0  0  0  0  0  0  0  0  0  0  0  0
   24.7287   -5.8546   26.3600 H   0  0  0  0  0  0  0  0  0  0  0  0
  1 28  1  0  0  0  0
  2 28  1  0  0  0  0
  3 28  1  0  0  0  0
  4  7  1  0  0  0  0
  4 23  2  0  0  0  0
  5 22  2  0  0  0  0
  5 24  1  0  0  0  0
  6 21  2  0  0  0  0
  6 26  1  0  0  0  0
  7 21  1  0  0  0  0
  7 25  1  0  0  0  0
  8  9  1  0  0  0  0
  8 11  1  0  0  0  0
  8 22  1  0  0  0  0
 10 25  1  0  0  0  0
 11 24  2  0  0  0  0
 12 13  2  0  0  0  0
 12 14  1  0  0  0  0
 13 19  1  0  0  0  0
 14 20  2  0  0  0  0
 15 17  2  0  0  0  0
 15 21  1  0  0  0  0
 16 18  1  0  0  0  0
 16 22  1  0  0  0  0
 17 23  1  0  0  0  0
 18 23  1  0  0  0  0
 19 27  2  0  0  0  0
 20 27  1  0  0  0  0
 24 27  1  0  0  0  0
 25 26  2  0  0  0  0
 26 28  1  0  0  0  0
  9 29  1  0  0  0  0
  9 30  1  0  0  0  0
  9 31  1  0  0  0  0
 10 32  1  0  0  0  0
 10 33  1  0  0  0  0
 10 34  1  0  0  0  0
 11 35  1  0  0  0  0
 12 36  1  0  0  0  0
 13 37  1  0  0  0  0
 14 38  1  0  0  0  0
 15 39  1  0  0  0  0
 16 40  1  0  0  0  0
 16 41  1  0  0  0  0
 17 42  1  0  0  0  0
 18 43  1  0  0  0  0
 18 44  1  0  0  0  0
 19 45  1  0  0  0  0
 20 46  1  0  0  0  0
M  END
> <pdb_id>
5SEM

> <uniprot_id>
Q9Y233

> <usmiles>
FC(F)(F)C=1N=C2N(N=C(C=C2)CCC3=NC(c4ccccc4)=CN3C)C1C

$$$$
IG9_A_803
          07192416573D 1   1.00000     0.00000     0
            
 49 53  0  0  0  0            999 V2000
   20.2040   -3.2831   19.3727 O   0  0  0  0  0  0  0  0  0  0  0  0
   16.3865   -1.8770   21.2343 O   0  0  0  0  0  0  0  0  0  0  0  0
   16.9836   -2.2611   16.7683 N   0  0  0  0  0  0  0  0  0  0  0  0
   19.0055   -4.5325   23.0347 N   0  0  0  0  0  0  0  0  0  0  0  0
   18.6459   -3.5062   20.9045 N   0  0  0  0  0  0  0  0  0  0  0  0
   23.4501   -4.6292   23.2571 N   0  0  0  0  0  0  0  0  0  0  0  0
   18.0602   -2.8916   17.3393 N   0  0  0  0  0  0  0  0  0  0  0  0
   21.1358   -4.8197   23.1497 N   0  0  0  0  0  0  0  0  0  0  0  0
   15.9104   -0.0329   20.1917 N   0  0  0  0  0  0  0  0  0  0  0  0
   19.0899   -3.5956   16.5593 C   0  0  0  0  0  0  0  0  0  0  0  0
   19.9577   -4.9744   23.8015 C   0  0  0  0  0  0  0  0  0  0  0  0
   16.3317   -1.6276   17.6858 C   0  0  0  0  0  0  0  0  0  0  0  0
   15.3157    0.8110   21.2451 C   0  0  0  0  0  0  0  0  0  0  0  0
   15.7925    1.0421   19.1874 C   0  0  0  0  0  0  0  0  0  0  0  0
   20.8634   -4.2046   21.9251 C   0  0  0  0  0  0  0  0  0  0  0  0
   15.6920    2.0359   20.3783 C   0  0  0  0  0  0  0  0  0  0  0  0
   26.9823   -4.4262   23.8302 C   0  0  0  0  0  0  0  0  0  0  0  0
   27.0871   -5.1409   25.0300 C   0  0  0  0  0  0  0  0  0  0  0  0
   25.7586   -4.2490   23.2445 C   0  0  0  0  0  0  0  0  0  0  0  0
   22.3723   -5.8536   25.0194 C   0  0  0  0  0  0  0  0  0  0  0  0
   25.9893   -5.7028   25.6316 C   0  0  0  0  0  0  0  0  0  0  0  0
   23.5529   -6.0977   25.6775 C   0  0  0  0  0  0  0  0  0  0  0  0
   19.0438   -3.1568   19.6803 C   0  0  0  0  0  0  0  0  0  0  0  0
   19.5099   -4.0385   21.8895 C   0  0  0  0  0  0  0  0  0  0  0  0
   16.4201   -1.2581   20.1900 C   0  0  0  0  0  0  0  0  0  0  0  0
   22.3598   -5.1433   23.7762 C   0  0  0  0  0  0  0  0  0  0  0  0
   24.6115   -4.7901   23.8505 C   0  0  0  0  0  0  0  0  0  0  0  0
   18.0609   -2.6368   18.6929 C   0  0  0  0  0  0  0  0  0  0  0  0
   24.7099   -5.5424   25.0706 C   0  0  0  0  0  0  0  0  0  0  0  0
   16.9546   -1.8226   18.9244 C   0  0  0  0  0  0  0  0  0  0  0  0
   17.6815   -3.3847   21.1394 H   0  0  0  0  0  0  0  0  0  0  0  0
   19.7752   -3.9773   17.1796 H   0  0  0  0  0  0  0  0  0  0  0  0
   18.6649   -4.3347   16.0367 H   0  0  0  0  0  0  0  0  0  0  0  0
   19.5296   -2.9534   15.9313 H   0  0  0  0  0  0  0  0  0  0  0  0
   19.8409   -5.3621   24.7159 H   0  0  0  0  0  0  0  0  0  0  0  0
   15.5080   -1.0812   17.5345 H   0  0  0  0  0  0  0  0  0  0  0  0
   15.7817    0.7660   22.1288 H   0  0  0  0  0  0  0  0  0  0  0  0
   14.3333    0.6806   21.3794 H   0  0  0  0  0  0  0  0  0  0  0  0
   14.9745    0.9916   18.6145 H   0  0  0  0  0  0  0  0  0  0  0  0
   16.5984    1.1636   18.6079 H   0  0  0  0  0  0  0  0  0  0  0  0
   21.5232   -3.9410   21.2214 H   0  0  0  0  0  0  0  0  0  0  0  0
   16.5521    2.4802   20.6290 H   0  0  0  0  0  0  0  0  0  0  0  0
   14.9735    2.7259   20.2908 H   0  0  0  0  0  0  0  0  0  0  0  0
   27.8017   -4.0453   23.4018 H   0  0  0  0  0  0  0  0  0  0  0  0
   27.9845   -5.2445   25.4589 H   0  0  0  0  0  0  0  0  0  0  0  0
   25.6806   -3.7369   22.3891 H   0  0  0  0  0  0  0  0  0  0  0  0
   21.5113   -6.1758   25.4131 H   0  0  0  0  0  0  0  0  0  0  0  0
   26.0997   -6.2295   26.4744 H   0  0  0  0  0  0  0  0  0  0  0  0
   23.5945   -6.6288   26.5239 H   0  0  0  0  0  0  0  0  0  0  0  0
  1 23  2  0  0  0  0
  2 25  2  0  0  0  0
  3  7  1  0  0  0  0
  3 12  2  0  0  0  0
  4 11  2  0  0  0  0
  4 24  1  0  0  0  0
  5 23  1  0  0  0  0
  5 24  1  0  0  0  0
  6 26  2  0  0  0  0
  6 27  1  0  0  0  0
  7 10  1  0  0  0  0
  7 28  1  0  0  0  0
  8 11  1  0  0  0  0
  8 15  1  0  0  0  0
  8 26  1  0  0  0  0
  9 13  1  0  0  0  0
  9 14  1  0  0  0  0
  9 25  1  0  0  0  0
 12 30  1  0  0  0  0
 13 16  1  0  0  0  0
 14 16  1  0  0  0  0
 15 24  2  0  0  0  0
 17 18  2  0  0  0  0
 17 19  1  0  0  0  0
 18 21  1  0  0  0  0
 19 27  2  0  0  0  0
 20 22  2  0  0  0  0
 20 26  1  0  0  0  0
 21 29  2  0  0  0  0
 22 29  1  0  0  0  0
 23 28  1  0  0  0  0
 25 30  1  0  0  0  0
 27 29  1  0  0  0  0
 28 30  2  0  0  0  0
  5 31  1  0  0  0  0
 10 32  1  0  0  0  0
 10 33  1  0  0  0  0
 10 34  1  0  0  0  0
 11 35  1  0  0  0  0
 12 36  1  0  0  0  0
 13 37  1  0  0  0  0
 13 38  1  0  0  0  0
 14 39  1  0  0  0  0
 14 40  1  0  0  0  0
 15 41  1  0  0  0  0
 16 42  1  0  0  0  0
 16 43  1  0  0  0  0
 17 44  1  0  0  0  0
 18 45  1  0  0  0  0
 19 46  1  0  0  0  0
 20 47  1  0  0  0  0
 21 48  1  0  0  0  0
 22 49  1  0  0  0  0
M  END
> <pdb_id>
5SEN

> <uniprot_id>
Q9Y233

> <usmiles>
O=C(N1CCC1)C2=C(N(N=C2)C)C(=O)NC=3N=CN(c4nc5c(cc4)cccc5)C3

$$$$
IGO_C_803
          07192416573D 1   1.00000     0.00000     0
            
 49 52  0  0  0  0            999 V2000
   22.8370   -5.7028   24.6293 N   0  0  0  0  0  0  0  0  0  0  0  0
   19.9283   -3.3939   18.8962 N   0  0  0  0  0  0  0  0  0  0  0  0
   23.1993   -4.8876   22.4714 N   0  0  0  0  0  0  0  0  0  0  0  0
   18.5624   -2.6572   20.5707 N   0  0  0  0  0  0  0  0  0  0  0  0
   16.2322   -1.9288   17.6982 N   0  0  0  0  0  0  0  0  0  0  0  0
   21.6859   -5.6697   23.9076 N   0  0  0  0  0  0  0  0  0  0  0  0
   18.7348   -2.9585   18.4026 N   0  0  0  0  0  0  0  0  0  0  0  0
   24.9926   -5.1623   24.1354 N   0  0  0  0  0  0  0  0  0  0  0  0
   20.4519   -6.1356   24.5325 C   0  0  0  0  0  0  0  0  0  0  0  0
   15.6043   -1.3746   19.9470 C   0  0  0  0  0  0  0  0  0  0  0  0
   16.5216   -2.3419   15.4041 C   0  0  0  0  0  0  0  0  0  0  0  0
   19.3627   -3.5529   16.1360 C   0  0  0  0  0  0  0  0  0  0  0  0
   26.1117   -4.7197   23.2924 C   0  0  0  0  0  0  0  0  0  0  0  0
   25.4429   -5.5329   25.4947 C   0  0  0  0  0  0  0  0  0  0  0  0
   27.3566   -5.1584   24.0724 C   0  0  0  0  0  0  0  0  0  0  0  0
   26.9217   -5.1059   25.5226 C   0  0  0  0  0  0  0  0  0  0  0  0
   20.8142   -3.4701   21.2185 C   0  0  0  0  0  0  0  0  0  0  0  0
   20.8528   -4.9338   21.6680 C   0  0  0  0  0  0  0  0  0  0  0  0
   23.6957   -5.2253   23.7427 C   0  0  0  0  0  0  0  0  0  0  0  0
   19.7714   -3.1736   20.1914 C   0  0  0  0  0  0  0  0  0  0  0  0
   21.9258   -5.1770   22.6733 C   0  0  0  0  0  0  0  0  0  0  0  0
   17.9253   -2.4975   19.4120 C   0  0  0  0  0  0  0  0  0  0  0  0
   16.5969   -1.9285   18.9769 C   0  0  0  0  0  0  0  0  0  0  0  0
   17.0777   -2.4546   16.7864 C   0  0  0  0  0  0  0  0  0  0  0  0
   18.3698   -2.9805   17.0866 C   0  0  0  0  0  0  0  0  0  0  0  0
   19.6965   -6.0507   23.8828 H   0  0  0  0  0  0  0  0  0  0  0  0
   20.5551   -7.0935   24.8005 H   0  0  0  0  0  0  0  0  0  0  0  0
   20.2588   -5.5819   25.3425 H   0  0  0  0  0  0  0  0  0  0  0  0
   15.9799   -1.4231   20.8725 H   0  0  0  0  0  0  0  0  0  0  0  0
   15.4086   -0.4215   19.7162 H   0  0  0  0  0  0  0  0  0  0  0  0
   14.7600   -1.9087   19.9016 H   0  0  0  0  0  0  0  0  0  0  0  0
   17.1674   -2.7384   14.7516 H   0  0  0  0  0  0  0  0  0  0  0  0
   15.6523   -2.8336   15.3533 H   0  0  0  0  0  0  0  0  0  0  0  0
   16.3728   -1.3782   15.1822 H   0  0  0  0  0  0  0  0  0  0  0  0
   18.9932   -3.5189   15.2074 H   0  0  0  0  0  0  0  0  0  0  0  0
   20.2089   -3.0217   16.1778 H   0  0  0  0  0  0  0  0  0  0  0  0
   19.5528   -4.5027   16.3845 H   0  0  0  0  0  0  0  0  0  0  0  0
   26.0973   -3.7268   23.1744 H   0  0  0  0  0  0  0  0  0  0  0  0
   26.0790   -5.1624   22.3963 H   0  0  0  0  0  0  0  0  0  0  0  0
   25.3539   -6.5178   25.6431 H   0  0  0  0  0  0  0  0  0  0  0  0
   24.9175   -5.0422   26.1899 H   0  0  0  0  0  0  0  0  0  0  0  0
   28.1181   -4.5316   23.9072 H   0  0  0  0  0  0  0  0  0  0  0  0
   27.6271   -6.0864   23.8163 H   0  0  0  0  0  0  0  0  0  0  0  0
   27.4623   -5.7386   26.0772 H   0  0  0  0  0  0  0  0  0  0  0  0
   27.0157   -4.1794   25.8869 H   0  0  0  0  0  0  0  0  0  0  0  0
   21.7076   -3.2358   20.8353 H   0  0  0  0  0  0  0  0  0  0  0  0
   20.6356   -2.9002   22.0206 H   0  0  0  0  0  0  0  0  0  0  0  0
   21.0198   -5.5129   20.8700 H   0  0  0  0  0  0  0  0  0  0  0  0
   19.9700   -5.1712   22.0732 H   0  0  0  0  0  0  0  0  0  0  0  0
  1  6  1  0  0  0  0
  1 19  2  0  0  0  0
  2  7  1  0  0  0  0
  2 20  2  0  0  0  0
  3 19  1  0  0  0  0
  3 21  2  0  0  0  0
  4 20  1  0  0  0  0
  4 22  2  0  0  0  0
  5 23  2  0  0  0  0
  5 24  1  0  0  0  0
  6  9  1  0  0  0  0
  6 21  1  0  0  0  0
  7 22  1  0  0  0  0
  7 25  1  0  0  0  0
  8 13  1  0  0  0  0
  8 14  1  0  0  0  0
  8 19  1  0  0  0  0
 10 23  1  0  0  0  0
 11 24  1  0  0  0  0
 12 25  1  0  0  0  0
 13 15  1  0  0  0  0
 14 16  1  0  0  0  0
 15 16  1  0  0  0  0
 17 18  1  0  0  0  0
 17 20  1  0  0  0  0
 18 21  1  0  0  0  0
 22 23  1  0  0  0  0
 24 25  2  0  0  0  0
  9 26  1  0  0  0  0
  9 27  1  0  0  0  0
  9 28  1  0  0  0  0
 10 29  1  0  0  0  0
 10 30  1  0  0  0  0
 10 31  1  0  0  0  0
 11 32  1  0  0  0  0
 11 33  1  0  0  0  0
 11 34  1  0  0  0  0
 12 35  1  0  0  0  0
 12 36  1  0  0  0  0
 12 37  1  0  0  0  0
 13 38  1  0  0  0  0
 13 39  1  0  0  0  0
 14 40  1  0  0  0  0
 14 41  1  0  0  0  0
 15 42  1  0  0  0  0
 15 43  1  0  0  0  0
 16 44  1  0  0  0  0
 16 45  1  0  0  0  0
 17 46  1  0  0  0  0
 17 47  1  0  0  0  0
 18 48  1  0  0  0  0
 18 49  1  0  0  0  0
M  END
> <pdb_id>
5SEQ

> <uniprot_id>
Q9Y233

> <usmiles>
N=1N2C(=NC1CCC3=NC(=NN3C)N4CCCC4)C(=NC(=C2C)C)C

$$$$
IH5_A_600
          07192421523D 1   1.00000     0.00000     0
            
 39 40  0  0  0  0            999 V2000
   27.0161   40.5231   32.7386 Cl  0  0  0  0  0  0  0  0  0  0  0  0
   26.2884   35.5983   30.5936 Cl  0  0  0  0  0  0  0  0  0  0  0  0
   23.3547   36.9004   35.9650 O   0  0  0  0  0  0  0  0  0  0  0  0
   24.8976   37.1825   37.6669 O   0  0  0  0  0  0  0  0  0  0  0  0
   32.4877   38.8591   28.8225 O   0  0  0  0  0  0  0  0  0  0  0  0
   26.9907   38.6201   30.5650 O   0  0  0  0  0  0  0  0  0  0  0  0
   31.0090   42.2388   28.8661 C   0  0  0  0  0  0  0  0  0  0  0  0
   29.6117   41.4856   26.8735 C   0  0  0  0  0  0  0  0  0  0  0  0
   30.7423   37.7156   30.0780 C   0  0  0  0  0  0  0  0  0  0  0  0
   29.3859   37.6146   30.5350 C   0  0  0  0  0  0  0  0  0  0  0  0
   25.5968   36.2955   35.6166 C   0  0  0  0  0  0  0  0  0  0  0  0
   26.2773   38.3824   34.1721 C   0  0  0  0  0  0  0  0  0  0  0  0
   25.9697   36.1128   33.1905 C   0  0  0  0  0  0  0  0  0  0  0  0
   28.8441   39.7497   29.3136 C   0  0  0  0  0  0  0  0  0  0  0  0
   24.5936   36.8411   36.5153 C   0  0  0  0  0  0  0  0  0  0  0  0
   26.6218   38.8733   32.8731 C   0  0  0  0  0  0  0  0  0  0  0  0
   26.3054   36.6316   31.9103 C   0  0  0  0  0  0  0  0  0  0  0  0
   31.1670   38.8056   29.2438 C   0  0  0  0  0  0  0  0  0  0  0  0
   28.4022   38.6465   30.1546 C   0  0  0  0  0  0  0  0  0  0  0  0
   30.7024   41.0460   27.9343 C   0  0  0  0  0  0  0  0  0  0  0  0
   26.6415   38.0315   31.7364 C   0  0  0  0  0  0  0  0  0  0  0  0
   25.9494   36.9697   34.3321 C   0  0  0  0  0  0  0  0  0  0  0  0
   30.2243   39.8514   28.8486 C   0  0  0  0  0  0  0  0  0  0  0  0
   23.2115   36.5994   35.0221 H   0  0  0  0  0  0  0  0  0  0  0  0
   32.7971   39.6119   28.2416 H   0  0  0  0  0  0  0  0  0  0  0  0
   31.6975   41.9678   29.5389 H   0  0  0  0  0  0  0  0  0  0  0  0
   31.3557   43.0045   28.3243 H   0  0  0  0  0  0  0  0  0  0  0  0
   30.1725   42.5164   29.3385 H   0  0  0  0  0  0  0  0  0  0  0  0
   29.4084   40.7173   26.2665 H   0  0  0  0  0  0  0  0  0  0  0  0
   28.7775   41.7645   27.3491 H   0  0  0  0  0  0  0  0  0  0  0  0
   29.9607   42.2526   26.3350 H   0  0  0  0  0  0  0  0  0  0  0  0
   31.4039   37.0149   30.3450 H   0  0  0  0  0  0  0  0  0  0  0  0
   29.1076   36.8457   31.1107 H   0  0  0  0  0  0  0  0  0  0  0  0
   25.2879   35.3754   35.3757 H   0  0  0  0  0  0  0  0  0  0  0  0
   26.4441   36.2352   36.1443 H   0  0  0  0  0  0  0  0  0  0  0  0
   26.2616   38.9988   34.9593 H   0  0  0  0  0  0  0  0  0  0  0  0
   25.7468   35.1433   33.2919 H   0  0  0  0  0  0  0  0  0  0  0  0
   28.1866   40.4547   29.0481 H   0  0  0  0  0  0  0  0  0  0  0  0
   31.5386   40.7794   27.4552 H   0  0  0  0  0  0  0  0  0  0  0  0
  1 16  1  0  0  0  0
  2 17  1  0  0  0  0
  3 15  1  0  0  0  0
  4 15  2  0  0  0  0
  5 18  1  0  0  0  0
  6 19  1  0  0  0  0
  6 21  1  0  0  0  0
  7 20  1  0  0  0  0
  8 20  1  0  0  0  0
  9 10  1  0  0  0  0
  9 18  2  0  0  0  0
 10 19  2  0  0  0  0
 11 15  1  0  0  0  0
 11 22  1  0  0  0  0
 12 16  2  0  0  0  0
 12 22  1  0  0  0  0
 13 17  1  0  0  0  0
 13 22  2  0  0  0  0
 14 19  1  0  0  0  0
 14 23  2  0  0  0  0
 16 21  1  0  0  0  0
 17 21  2  0  0  0  0
 18 23  1  0  0  0  0
 20 23  1  0  0  0  0
  3 24  1  0  0  0  0
  5 25  1  0  0  0  0
  7 26  1  0  0  0  0
  7 27  1  0  0  0  0
  7 28  1  0  0  0  0
  8 29  1  0  0  0  0
  8 30  1  0  0  0  0
  8 31  1  0  0  0  0
  9 32  1  0  0  0  0
 10 33  1  0  0  0  0
 11 34  1  0  0  0  0
 11 35  1  0  0  0  0
 12 36  1  0  0  0  0
 13 37  1  0  0  0  0
 14 38  1  0  0  0  0
 20 39  1  0  0  0  0
M  END
> <pdb_id>
1NAV

> <uniprot_id>
P10827

> <usmiles>
Clc1c(Oc2cc(c(O)cc2)C(C)C)c(Cl)cc(c1)CC(=O)O

$$$$
II5_A_803
          07192416573D 1   1.00000     0.00000     0
            
 56 59  0  0  0  0            999 V2000
   16.7991   -2.9418   23.4072 O   0  0  0  0  0  0  0  0  0  0  0  0
   19.7981   -3.4775   19.1979 O   0  0  0  0  0  0  0  0  0  0  0  0
   18.3531   -7.3462   24.9833 O   0  0  0  0  0  0  0  0  0  0  0  0
   20.9604   -4.8788   23.0609 N   0  0  0  0  0  0  0  0  0  0  0  0
   19.1170   -1.4609   13.4533 N   0  0  0  0  0  0  0  0  0  0  0  0
   20.3274   -3.5174   13.5258 N   0  0  0  0  0  0  0  0  0  0  0  0
   16.8460   -4.9292   24.4869 N   0  0  0  0  0  0  0  0  0  0  0  0
   18.5236   -3.0955   21.0719 N   0  0  0  0  0  0  0  0  0  0  0  0
   18.8559   -2.8555   16.8570 N   0  0  0  0  0  0  0  0  0  0  0  0
   16.7810   -1.6851   19.6607 N   0  0  0  0  0  0  0  0  0  0  0  0
   19.8207   -4.8723   23.8291 N   0  0  0  0  0  0  0  0  0  0  0  0
   18.0403   -8.7386   25.0243 C   0  0  0  0  0  0  0  0  0  0  0  0
   15.6269   -4.7078   25.2446 C   0  0  0  0  0  0  0  0  0  0  0  0
   19.8653   -2.4286   12.9179 C   0  0  0  0  0  0  0  0  0  0  0  0
   19.7132   -7.0040   25.1135 C   0  0  0  0  0  0  0  0  0  0  0  0
   20.6340   -4.2376   21.9518 C   0  0  0  0  0  0  0  0  0  0  0  0
   18.8249   -1.5993   14.7450 C   0  0  0  0  0  0  0  0  0  0  0  0
   20.0100   -3.6324   14.8234 C   0  0  0  0  0  0  0  0  0  0  0  0
   19.8398   -5.4908   25.1612 C   0  0  0  0  0  0  0  0  0  0  0  0
   16.7361   -1.5964   16.8714 C   0  0  0  0  0  0  0  0  0  0  0  0
   15.7323   -1.0007   17.6127 C   0  0  0  0  0  0  0  0  0  0  0  0
   14.6536   -0.7462   21.3560 C   0  0  0  0  0  0  0  0  0  0  0  0
   15.2201    0.5427   20.9057 C   0  0  0  0  0  0  0  0  0  0  0  0
   17.3999   -3.9773   23.7339 C   0  0  0  0  0  0  0  0  0  0  0  0
   18.8161   -2.9709   19.7374 C   0  0  0  0  0  0  0  0  0  0  0  0
   19.2379   -2.6934   15.5029 C   0  0  0  0  0  0  0  0  0  0  0  0
   19.3046   -3.8032   22.0044 C   0  0  0  0  0  0  0  0  0  0  0  0
   17.7836   -2.2516   17.5238 C   0  0  0  0  0  0  0  0  0  0  0  0
   15.7805   -1.0726   19.0024 C   0  0  0  0  0  0  0  0  0  0  0  0
   17.7678   -2.2614   18.9465 C   0  0  0  0  0  0  0  0  0  0  0  0
   18.7958   -4.2300   23.2014 C   0  0  0  0  0  0  0  0  0  0  0  0
   14.7328   -0.4462   19.8843 C   0  0  0  0  0  0  0  0  0  0  0  0
   17.2856   -5.8264   24.5311 H   0  0  0  0  0  0  0  0  0  0  0  0
   17.6935   -2.6501   21.4071 H   0  0  0  0  0  0  0  0  0  0  0  0
   19.4199   -3.4758   17.4021 H   0  0  0  0  0  0  0  0  0  0  0  0
   17.0530   -8.8615   24.9230 H   0  0  0  0  0  0  0  0  0  0  0  0
   18.5129   -9.2085   24.2787 H   0  0  0  0  0  0  0  0  0  0  0  0
   18.3357   -9.1210   25.8997 H   0  0  0  0  0  0  0  0  0  0  0  0
   15.3842   -5.5435   25.7371 H   0  0  0  0  0  0  0  0  0  0  0  0
   15.7712   -3.9653   25.8987 H   0  0  0  0  0  0  0  0  0  0  0  0
   14.8860   -4.4621   24.6195 H   0  0  0  0  0  0  0  0  0  0  0  0
   20.1049   -2.3228   11.9528 H   0  0  0  0  0  0  0  0  0  0  0  0
   20.2247   -7.3587   24.3308 H   0  0  0  0  0  0  0  0  0  0  0  0
   20.0789   -7.3978   25.9568 H   0  0  0  0  0  0  0  0  0  0  0  0
   21.2522   -4.0839   21.1809 H   0  0  0  0  0  0  0  0  0  0  0  0
   18.2847   -0.8858   15.1915 H   0  0  0  0  0  0  0  0  0  0  0  0
   20.3432   -4.4297   15.3267 H   0  0  0  0  0  0  0  0  0  0  0  0
   19.0774   -5.1237   25.6942 H   0  0  0  0  0  0  0  0  0  0  0  0
   20.7027   -5.2569   25.6091 H   0  0  0  0  0  0  0  0  0  0  0  0
   16.7124   -1.5584   15.8724 H   0  0  0  0  0  0  0  0  0  0  0  0
   14.9809   -0.5241   17.1563 H   0  0  0  0  0  0  0  0  0  0  0  0
   13.7646   -0.7676   21.8134 H   0  0  0  0  0  0  0  0  0  0  0  0
   15.2511   -1.4410   21.7562 H   0  0  0  0  0  0  0  0  0  0  0  0
   16.1999    0.7175   21.0025 H   0  0  0  0  0  0  0  0  0  0  0  0
   14.7133    1.3909   21.0597 H   0  0  0  0  0  0  0  0  0  0  0  0
   13.8665   -0.2208   19.4386 H   0  0  0  0  0  0  0  0  0  0  0  0
  1 24  2  0  0  0  0
  2 25  2  0  0  0  0
  3 12  1  0  0  0  0
  3 15  1  0  0  0  0
  4 11  1  0  0  0  0
  4 16  2  0  0  0  0
  5 14  2  0  0  0  0
  5 17  1  0  0  0  0
  6 14  1  0  0  0  0
  6 18  2  0  0  0  0
  7 13  1  0  0  0  0
  7 24  1  0  0  0  0
  8 25  1  0  0  0  0
  8 27  1  0  0  0  0
  9 26  1  0  0  0  0
  9 28  1  0  0  0  0
 10 29  1  0  0  0  0
 10 30  2  0  0  0  0
 11 19  1  0  0  0  0
 11 31  1  0  0  0  0
 15 19  1  0  0  0  0
 16 27  1  0  0  0  0
 17 26  2  0  0  0  0
 18 26  1  0  0  0  0
 20 21  1  0  0  0  0
 20 28  2  0  0  0  0
 21 29  2  0  0  0  0
 22 23  1  0  0  0  0
 22 32  1  0  0  0  0
 23 32  1  0  0  0  0
 24 31  1  0  0  0  0
 25 30  1  0  0  0  0
 27 31  2  0  0  0  0
 28 30  1  0  0  0  0
 29 32  1  0  0  0  0
  7 33  1  0  0  0  0
  8 34  1  0  0  0  0
  9 35  1  0  0  0  0
 12 36  1  0  0  0  0
 12 37  1  0  0  0  0
 12 38  1  0  0  0  0
 13 39  1  0  0  0  0
 13 40  1  0  0  0  0
 13 41  1  0  0  0  0
 14 42  1  0  0  0  0
 15 43  1  0  0  0  0
 15 44  1  0  0  0  0
 16 45  1  0  0  0  0
 17 46  1  0  0  0  0
 18 47  1  0  0  0  0
 19 48  1  0  0  0  0
 19 49  1  0  0  0  0
 20 50  1  0  0  0  0
 21 51  1  0  0  0  0
 22 52  1  0  0  0  0
 22 53  1  0  0  0  0
 23 54  1  0  0  0  0
 23 55  1  0  0  0  0
 32 56  1  0  0  0  0
M  END
> <pdb_id>
5SEW

> <uniprot_id>
Q9Y233

> <usmiles>
O=C(NC1=C(N(N=C1)CCOC)C(=O)NC)c2nc(ccc2Nc3cncnc3)C4CC4

$$$$
IJ0_B_801
          07192416573D 1   1.00000     0.00000     0
            
 42 45  0  0  0  0            999 V2000
   17.3655   -2.1132   14.3796 F   0  0  0  0  0  0  0  0  0  0  0  0
   15.5493   -2.7881   15.2094 F   0  0  0  0  0  0  0  0  0  0  0  0
   19.3268   -3.6287   19.0821 N   0  0  0  0  0  0  0  0  0  0  0  0
   23.3120   -4.8288   23.0206 N   0  0  0  0  0  0  0  0  0  0  0  0
   16.4704   -1.9544   17.9076 N   0  0  0  0  0  0  0  0  0  0  0  0
   18.3724   -3.0471   18.3021 N   0  0  0  0  0  0  0  0  0  0  0  0
   21.6058   -5.7794   24.1317 N   0  0  0  0  0  0  0  0  0  0  0  0
   20.2714   -6.1700   24.4155 C   0  0  0  0  0  0  0  0  0  0  0  0
   19.3367   -3.6323   16.0967 C   0  0  0  0  0  0  0  0  0  0  0  0
   22.7535   -6.0033   24.8415 C   0  0  0  0  0  0  0  0  0  0  0  0
   27.8748   -5.0134   25.2133 C   0  0  0  0  0  0  0  0  0  0  0  0
   27.0122   -5.6831   26.0741 C   0  0  0  0  0  0  0  0  0  0  0  0
   27.3795   -4.4645   24.0058 C   0  0  0  0  0  0  0  0  0  0  0  0
   17.0834   -2.2709   20.2875 C   0  0  0  0  0  0  0  0  0  0  0  0
   20.9952   -4.5494   22.0512 C   0  0  0  0  0  0  0  0  0  0  0  0
   18.0694   -2.9065   21.1034 C   0  0  0  0  0  0  0  0  0  0  0  0
   20.2154   -4.1325   21.2857 C   0  0  0  0  0  0  0  0  0  0  0  0
   25.6977   -5.8039   25.7724 C   0  0  0  0  0  0  0  0  0  0  0  0
   26.0562   -4.6144   23.6611 C   0  0  0  0  0  0  0  0  0  0  0  0
   16.4693   -1.9654   15.3587 C   0  0  0  0  0  0  0  0  0  0  0  0
   17.2153   -2.3638   18.8608 C   0  0  0  0  0  0  0  0  0  0  0  0
   21.9542   -5.0548   23.0422 C   0  0  0  0  0  0  0  0  0  0  0  0
   19.1800   -3.5527   20.4777 C   0  0  0  0  0  0  0  0  0  0  0  0
   23.7857   -5.3939   24.1518 C   0  0  0  0  0  0  0  0  0  0  0  0
   18.2813   -3.0160   16.9944 C   0  0  0  0  0  0  0  0  0  0  0  0
   17.0994   -2.3081   16.7106 C   0  0  0  0  0  0  0  0  0  0  0  0
   25.2225   -5.3091   24.5096 C   0  0  0  0  0  0  0  0  0  0  0  0
   19.6670   -5.8447   23.6883 H   0  0  0  0  0  0  0  0  0  0  0  0
   20.2204   -7.1672   24.4701 H   0  0  0  0  0  0  0  0  0  0  0  0
   19.9864   -5.7734   25.2882 H   0  0  0  0  0  0  0  0  0  0  0  0
   19.0786   -3.5004   15.1396 H   0  0  0  0  0  0  0  0  0  0  0  0
   20.2182   -3.1923   16.2679 H   0  0  0  0  0  0  0  0  0  0  0  0
   19.4093   -4.6107   16.2906 H   0  0  0  0  0  0  0  0  0  0  0  0
   22.8315   -6.5124   25.6986 H   0  0  0  0  0  0  0  0  0  0  0  0
   28.8427   -4.9197   25.4465 H   0  0  0  0  0  0  0  0  0  0  0  0
   27.3652   -6.0783   26.9222 H   0  0  0  0  0  0  0  0  0  0  0  0
   27.9966   -3.9639   23.3987 H   0  0  0  0  0  0  0  0  0  0  0  0
   16.3202   -1.7735   20.7001 H   0  0  0  0  0  0  0  0  0  0  0  0
   17.9835   -2.8992   22.0996 H   0  0  0  0  0  0  0  0  0  0  0  0
   25.0664   -6.2315   26.4193 H   0  0  0  0  0  0  0  0  0  0  0  0
   25.7054   -4.2256   22.8091 H   0  0  0  0  0  0  0  0  0  0  0  0
   16.1083   -1.0328   15.3662 H   0  0  0  0  0  0  0  0  0  0  0  0
  1 20  1  0  0  0  0
  2 20  1  0  0  0  0
  3  6  1  0  0  0  0
  3 23  2  0  0  0  0
  4 22  2  0  0  0  0
  4 24  1  0  0  0  0
  5 21  2  0  0  0  0
  5 26  1  0  0  0  0
  6 21  1  0  0  0  0
  6 25  1  0  0  0  0
  7  8  1  0  0  0  0
  7 10  1  0  0  0  0
  7 22  1  0  0  0  0
  9 25  1  0  0  0  0
 10 24  2  0  0  0  0
 11 12  2  0  0  0  0
 11 13  1  0  0  0  0
 12 18  1  0  0  0  0
 13 19  2  0  0  0  0
 14 16  2  0  0  0  0
 14 21  1  0  0  0  0
 15 17  3  0  0  0  0
 15 22  1  0  0  0  0
 16 23  1  0  0  0  0
 17 23  1  0  0  0  0
 18 27  2  0  0  0  0
 19 27  1  0  0  0  0
 20 26  1  0  0  0  0
 24 27  1  0  0  0  0
 25 26  2  0  0  0  0
  8 28  1  0  0  0  0
  8 29  1  0  0  0  0
  8 30  1  0  0  0  0
  9 31  1  0  0  0  0
  9 32  1  0  0  0  0
  9 33  1  0  0  0  0
 10 34  1  0  0  0  0
 11 35  1  0  0  0  0
 12 36  1  0  0  0  0
 13 37  1  0  0  0  0
 14 38  1  0  0  0  0
 16 39  1  0  0  0  0
 18 40  1  0  0  0  0
 19 41  1  0  0  0  0
 20 42  1  0  0  0  0
M  END
> <pdb_id>
5SF1

> <uniprot_id>
Q9Y233

> <usmiles>
FC(F)C=1N=C2N(N=C(C#CC3=NC(c4ccccc4)=CN3C)C=C2)C1C

$$$$
IJK_B_803
          07192416573D 1   1.00000     0.00000     0
            
 57 60  0  0  0  0            999 V2000
   22.7708   -5.7532   24.6046 N   0  0  0  0  0  0  0  0  0  0  0  0
   19.6806   -3.3411   19.0140 N   0  0  0  0  0  0  0  0  0  0  0  0
   23.0623   -4.7416   22.6501 N   0  0  0  0  0  0  0  0  0  0  0  0
   18.5862   -2.6081   21.0098 N   0  0  0  0  0  0  0  0  0  0  0  0
   16.3874   -1.7316   20.9534 N   0  0  0  0  0  0  0  0  0  0  0  0
   16.5010   -2.2066   18.0228 N   0  0  0  0  0  0  0  0  0  0  0  0
   21.5607   -5.7534   23.9476 N   0  0  0  0  0  0  0  0  0  0  0  0
   18.5377   -3.0556   18.3229 N   0  0  0  0  0  0  0  0  0  0  0  0
   24.9419   -5.1342   24.1973 N   0  0  0  0  0  0  0  0  0  0  0  0
   20.2673   -6.2394   24.5307 C   0  0  0  0  0  0  0  0  0  0  0  0
   15.5437   -0.5519   22.8307 C   0  0  0  0  0  0  0  0  0  0  0  0
   16.2110   -2.9208   23.2289 C   0  0  0  0  0  0  0  0  0  0  0  0
   16.1590   -2.4155   15.6171 C   0  0  0  0  0  0  0  0  0  0  0  0
   19.3283   -3.6886   15.9712 C   0  0  0  0  0  0  0  0  0  0  0  0
   25.8812   -4.4254   23.4411 C   0  0  0  0  0  0  0  0  0  0  0  0
   25.4468   -5.4842   25.5215 C   0  0  0  0  0  0  0  0  0  0  0  0
   27.1976   -4.9715   24.0187 C   0  0  0  0  0  0  0  0  0  0  0  0
   26.8693   -5.1713   25.4798 C   0  0  0  0  0  0  0  0  0  0  0  0
   20.8381   -3.4677   21.1875 C   0  0  0  0  0  0  0  0  0  0  0  0
   20.6314   -4.8194   21.7529 C   0  0  0  0  0  0  0  0  0  0  0  0
   23.6188   -5.1854   23.8107 C   0  0  0  0  0  0  0  0  0  0  0  0
   19.6538   -3.1313   20.3854 C   0  0  0  0  0  0  0  0  0  0  0  0
   21.7353   -5.0856   22.7826 C   0  0  0  0  0  0  0  0  0  0  0  0
   17.4862   -2.3263   20.3127 C   0  0  0  0  0  0  0  0  0  0  0  0
   16.5066   -1.6640   22.4886 C   0  0  0  0  0  0  0  0  0  0  0  0
   17.4470   -2.5288   18.9276 C   0  0  0  0  0  0  0  0  0  0  0  0
   17.0179   -2.5436   16.8202 C   0  0  0  0  0  0  0  0  0  0  0  0
   18.3093   -3.1347   16.9897 C   0  0  0  0  0  0  0  0  0  0  0  0
   15.5941   -1.3812   20.4554 H   0  0  0  0  0  0  0  0  0  0  0  0
   19.5370   -6.1342   23.8557 H   0  0  0  0  0  0  0  0  0  0  0  0
   20.3552   -7.2040   24.7790 H   0  0  0  0  0  0  0  0  0  0  0  0
   20.0471   -5.7040   25.3461 H   0  0  0  0  0  0  0  0  0  0  0  0
   15.5339   -0.4123   23.8209 H   0  0  0  0  0  0  0  0  0  0  0  0
   15.8338    0.2912   22.3780 H   0  0  0  0  0  0  0  0  0  0  0  0
   14.6257   -0.7983   22.5198 H   0  0  0  0  0  0  0  0  0  0  0  0
   16.3187   -2.7626   24.2104 H   0  0  0  0  0  0  0  0  0  0  0  0
   15.2720   -3.2069   23.0384 H   0  0  0  0  0  0  0  0  0  0  0  0
   16.8438   -3.6373   22.9352 H   0  0  0  0  0  0  0  0  0  0  0  0
   16.6741   -2.6988   14.8081 H   0  0  0  0  0  0  0  0  0  0  0  0
   15.3526   -2.9980   15.7196 H   0  0  0  0  0  0  0  0  0  0  0  0
   15.8714   -1.4635   15.5126 H   0  0  0  0  0  0  0  0  0  0  0  0
   18.9373   -3.6465   15.0518 H   0  0  0  0  0  0  0  0  0  0  0  0
   20.1637   -3.1398   16.0035 H   0  0  0  0  0  0  0  0  0  0  0  0
   19.5443   -4.6381   16.1985 H   0  0  0  0  0  0  0  0  0  0  0  0
   25.7988   -3.4392   23.5843 H   0  0  0  0  0  0  0  0  0  0  0  0
   25.7961   -4.6289   22.4658 H   0  0  0  0  0  0  0  0  0  0  0  0
   25.3065   -6.4572   25.7050 H   0  0  0  0  0  0  0  0  0  0  0  0
   24.9887   -4.9426   26.2264 H   0  0  0  0  0  0  0  0  0  0  0  0
   27.9412   -4.3128   23.9041 H   0  0  0  0  0  0  0  0  0  0  0  0
   27.4490   -5.8368   23.5850 H   0  0  0  0  0  0  0  0  0  0  0  0
   27.4043   -5.9269   25.8577 H   0  0  0  0  0  0  0  0  0  0  0  0
   27.0587   -4.3371   25.9975 H   0  0  0  0  0  0  0  0  0  0  0  0
   21.6538   -3.4619   20.6090 H   0  0  0  0  0  0  0  0  0  0  0  0
   20.9488   -2.8031   21.9264 H   0  0  0  0  0  0  0  0  0  0  0  0
   20.6782   -5.5016   21.0233 H   0  0  0  0  0  0  0  0  0  0  0  0
   19.7366   -4.8668   22.1968 H   0  0  0  0  0  0  0  0  0  0  0  0
   17.4322   -1.3668   22.7230 H   0  0  0  0  0  0  0  0  0  0  0  0
  1  7  1  0  0  0  0
  1 21  2  0  0  0  0
  2  8  1  0  0  0  0
  2 22  2  0  0  0  0
  3 21  1  0  0  0  0
  3 23  2  0  0  0  0
  4 22  1  0  0  0  0
  4 24  2  0  0  0  0
  5 24  1  0  0  0  0
  5 25  1  0  0  0  0
  6 26  2  0  0  0  0
  6 27  1  0  0  0  0
  7 10  1  0  0  0  0
  7 23  1  0  0  0  0
  8 26  1  0  0  0  0
  8 28  1  0  0  0  0
  9 15  1  0  0  0  0
  9 16  1  0  0  0  0
  9 21  1  0  0  0  0
 11 25  1  0  0  0  0
 12 25  1  0  0  0  0
 13 27  1  0  0  0  0
 14 28  1  0  0  0  0
 15 17  1  0  0  0  0
 16 18  1  0  0  0  0
 17 18  1  0  0  0  0
 19 20  1  0  0  0  0
 19 22  1  0  0  0  0
 20 23  1  0  0  0  0
 24 26  1  0  0  0  0
 27 28  2  0  0  0  0
  5 29  1  0  0  0  0
 10 30  1  0  0  0  0
 10 31  1  0  0  0  0
 10 32  1  0  0  0  0
 11 33  1  0  0  0  0
 11 34  1  0  0  0  0
 11 35  1  0  0  0  0
 12 36  1  0  0  0  0
 12 37  1  0  0  0  0
 12 38  1  0  0  0  0
 13 39  1  0  0  0  0
 13 40  1  0  0  0  0
 13 41  1  0  0  0  0
 14 42  1  0  0  0  0
 14 43  1  0  0  0  0
 14 44  1  0  0  0  0
 15 45  1  0  0  0  0
 15 46  1  0  0  0  0
 16 47  1  0  0  0  0
 16 48  1  0  0  0  0
 17 49  1  0  0  0  0
 17 50  1  0  0  0  0
 18 51  1  0  0  0  0
 18 52  1  0  0  0  0
 19 53  1  0  0  0  0
 19 54  1  0  0  0  0
 20 55  1  0  0  0  0
 20 56  1  0  0  0  0
 25 57  1  0  0  0  0
M  END
> <pdb_id>
5SF6

> <uniprot_id>
Q9Y233

> <usmiles>
N=1N2C(=NC(=C2C)C)C(=NC1CCC3=NC(=NN3C)N4CCCC4)NC(C)C

$$$$
IJQ_A_803
          07192416573D 1   1.00000     0.00000     0
            
 58 62  0  0  0  0            999 V2000
   20.2638   -3.2895   18.5799 O   0  0  0  0  0  0  0  0  0  0  0  0
   16.7764   -1.6778   21.0799 O   0  0  0  0  0  0  0  0  0  0  0  0
   16.6336   -2.2992   16.6400 N   0  0  0  0  0  0  0  0  0  0  0  0
   22.2804   -5.9707   24.4453 N   0  0  0  0  0  0  0  0  0  0  0  0
   19.2487   -3.0193   20.5166 N   0  0  0  0  0  0  0  0  0  0  0  0
   18.7084   -5.9748   24.0689 N   0  0  0  0  0  0  0  0  0  0  0  0
   22.6701   -4.7653   22.6358 N   0  0  0  0  0  0  0  0  0  0  0  0
   17.8025   -2.8880   17.0690 N   0  0  0  0  0  0  0  0  0  0  0  0
   21.1374   -5.9156   23.7305 N   0  0  0  0  0  0  0  0  0  0  0  0
   15.9088    0.0813   20.1489 N   0  0  0  0  0  0  0  0  0  0  0  0
   18.7300   -3.6285   16.2315 C   0  0  0  0  0  0  0  0  0  0  0  0
   17.5681   -6.6856   24.4447 C   0  0  0  0  0  0  0  0  0  0  0  0
   20.4714   -3.3535   21.2377 C   0  0  0  0  0  0  0  0  0  0  0  0
   16.1010   -1.6182   17.6790 C   0  0  0  0  0  0  0  0  0  0  0  0
   15.3461    0.8537   21.2561 C   0  0  0  0  0  0  0  0  0  0  0  0
   15.5700    1.1398   19.2290 C   0  0  0  0  0  0  0  0  0  0  0  0
   17.7036   -8.0181   24.8887 C   0  0  0  0  0  0  0  0  0  0  0  0
   15.5957    2.0294   20.4059 C   0  0  0  0  0  0  0  0  0  0  0  0
   27.1409   -4.6706   25.1227 C   0  0  0  0  0  0  0  0  0  0  0  0
   18.9356   -8.6072   24.9625 C   0  0  0  0  0  0  0  0  0  0  0  0
   26.7547   -4.2490   23.8708 C   0  0  0  0  0  0  0  0  0  0  0  0
   26.2093   -5.2817   25.9453 C   0  0  0  0  0  0  0  0  0  0  0  0
   20.4018   -4.8518   21.5610 C   0  0  0  0  0  0  0  0  0  0  0  0
   20.0595   -7.9263   24.5696 C   0  0  0  0  0  0  0  0  0  0  0  0
   25.4420   -4.4465   23.4468 C   0  0  0  0  0  0  0  0  0  0  0  0
   24.8745   -5.4891   25.5557 C   0  0  0  0  0  0  0  0  0  0  0  0
   19.2467   -2.9810   19.1173 C   0  0  0  0  0  0  0  0  0  0  0  0
   23.1769   -5.2478   23.8001 C   0  0  0  0  0  0  0  0  0  0  0  0
   16.6094   -1.0956   20.0650 C   0  0  0  0  0  0  0  0  0  0  0  0
   19.9399   -6.5986   24.1066 C   0  0  0  0  0  0  0  0  0  0  0  0
   21.3758   -5.1636   22.6311 C   0  0  0  0  0  0  0  0  0  0  0  0
   18.0277   -2.5823   18.3697 C   0  0  0  0  0  0  0  0  0  0  0  0
   24.5377   -5.0648   24.2811 C   0  0  0  0  0  0  0  0  0  0  0  0
   16.9493   -1.7736   18.7402 C   0  0  0  0  0  0  0  0  0  0  0  0
   18.4103   -2.8171   21.0226 H   0  0  0  0  0  0  0  0  0  0  0  0
   19.4964   -3.9509   16.7871 H   0  0  0  0  0  0  0  0  0  0  0  0
   18.2598   -4.4120   15.8254 H   0  0  0  0  0  0  0  0  0  0  0  0
   19.0724   -3.0322   15.5054 H   0  0  0  0  0  0  0  0  0  0  0  0
   16.6661   -6.2561   24.4000 H   0  0  0  0  0  0  0  0  0  0  0  0
   20.5288   -2.8216   22.0825 H   0  0  0  0  0  0  0  0  0  0  0  0
   21.2703   -3.1613   20.6678 H   0  0  0  0  0  0  0  0  0  0  0  0
   15.2468   -1.0982   17.6728 H   0  0  0  0  0  0  0  0  0  0  0  0
   15.8735    0.8244   22.1052 H   0  0  0  0  0  0  0  0  0  0  0  0
   14.3834    0.6707   21.4551 H   0  0  0  0  0  0  0  0  0  0  0  0
   14.6768    1.0472   18.7889 H   0  0  0  0  0  0  0  0  0  0  0  0
   16.2642    1.3356   18.5363 H   0  0  0  0  0  0  0  0  0  0  0  0
   16.8904   -8.5370   25.1521 H   0  0  0  0  0  0  0  0  0  0  0  0
   16.4757    2.4762   20.5668 H   0  0  0  0  0  0  0  0  0  0  0  0
   14.8665    2.7135   20.4225 H   0  0  0  0  0  0  0  0  0  0  0  0
   28.0818   -4.5375   25.4343 H   0  0  0  0  0  0  0  0  0  0  0  0
   19.0178   -9.5427   25.3061 H   0  0  0  0  0  0  0  0  0  0  0  0
   27.4145   -3.8019   23.2668 H   0  0  0  0  0  0  0  0  0  0  0  0
   26.4976   -5.5877   26.8526 H   0  0  0  0  0  0  0  0  0  0  0  0
   20.6234   -5.3814   20.7423 H   0  0  0  0  0  0  0  0  0  0  0  0
   19.4797   -5.0850   21.8696 H   0  0  0  0  0  0  0  0  0  0  0  0
   20.9562   -8.3670   24.6108 H   0  0  0  0  0  0  0  0  0  0  0  0
   25.1574   -4.1399   22.5385 H   0  0  0  0  0  0  0  0  0  0  0  0
   24.2067   -5.9183   26.1639 H   0  0  0  0  0  0  0  0  0  0  0  0
  1 27  2  0  0  0  0
  2 29  2  0  0  0  0
  3  8  1  0  0  0  0
  3 14  2  0  0  0  0
  4  9  1  0  0  0  0
  4 28  2  0  0  0  0
  5 13  1  0  0  0  0
  5 27  1  0  0  0  0
  6 12  2  0  0  0  0
  6 30  1  0  0  0  0
  7 28  1  0  0  0  0
  7 31  2  0  0  0  0
  8 11  1  0  0  0  0
  8 32  1  0  0  0  0
  9 30  1  0  0  0  0
  9 31  1  0  0  0  0
 10 15  1  0  0  0  0
 10 16  1  0  0  0  0
 10 29  1  0  0  0  0
 12 17  1  0  0  0  0
 13 23  1  0  0  0  0
 14 34  1  0  0  0  0
 15 18  1  0  0  0  0
 16 18  1  0  0  0  0
 17 20  2  0  0  0  0
 19 21  2  0  0  0  0
 19 22  1  0  0  0  0
 20 24  1  0  0  0  0
 21 25  1  0  0  0  0
 22 26  2  0  0  0  0
 23 31  1  0  0  0  0
 24 30  2  0  0  0  0
 25 33  2  0  0  0  0
 26 33  1  0  0  0  0
 27 32  1  0  0  0  0
 28 33  1  0  0  0  0
 29 34  1  0  0  0  0
 32 34  2  0  0  0  0
  5 35  1  0  0  0  0
 11 36  1  0  0  0  0
 11 37  1  0  0  0  0
 11 38  1  0  0  0  0
 12 39  1  0  0  0  0
 13 40  1  0  0  0  0
 13 41  1  0  0  0  0
 14 42  1  0  0  0  0
 15 43  1  0  0  0  0
 15 44  1  0  0  0  0
 16 45  1  0  0  0  0
 16 46  1  0  0  0  0
 17 47  1  0  0  0  0
 18 48  1  0  0  0  0
 18 49  1  0  0  0  0
 19 50  1  0  0  0  0
 20 51  1  0  0  0  0
 21 52  1  0  0  0  0
 22 53  1  0  0  0  0
 23 54  1  0  0  0  0
 23 55  1  0  0  0  0
 24 56  1  0  0  0  0
 25 57  1  0  0  0  0
 26 58  1  0  0  0  0
M  END
> <pdb_id>
5SF8

> <uniprot_id>
Q9Y233

> <usmiles>
O=C(N1CCC1)C2=C(N(N=C2)C)C(=O)NCCC3=NC(=NN3c4ncccc4)c5ccccc5

$$$$
IK0_C_803
          07192416573D 1   1.00000     0.00000     0
            
 54 57  0  0  0  0            999 V2000
   16.1062   -1.7352   22.1660 O   0  0  0  0  0  0  0  0  0  0  0  0
   22.9458   -5.6319   24.5841 N   0  0  0  0  0  0  0  0  0  0  0  0
   19.7324   -3.2959   19.0216 N   0  0  0  0  0  0  0  0  0  0  0  0
   15.1888   -1.4785   20.1666 N   0  0  0  0  0  0  0  0  0  0  0  0
   23.2485   -4.8520   22.5458 N   0  0  0  0  0  0  0  0  0  0  0  0
   16.5775   -2.1667   17.8859 N   0  0  0  0  0  0  0  0  0  0  0  0
   21.7367   -5.7010   23.9282 N   0  0  0  0  0  0  0  0  0  0  0  0
   18.5909   -3.0303   18.2890 N   0  0  0  0  0  0  0  0  0  0  0  0
   25.1110   -4.9976   24.1313 N   0  0  0  0  0  0  0  0  0  0  0  0
   14.0692   -0.9033   20.8186 C   0  0  0  0  0  0  0  0  0  0  0  0
   20.5199   -6.2336   24.4854 C   0  0  0  0  0  0  0  0  0  0  0  0
   16.5262   -2.3061   15.4618 C   0  0  0  0  0  0  0  0  0  0  0  0
   19.4409   -3.5580   16.0255 C   0  0  0  0  0  0  0  0  0  0  0  0
   25.5775   -5.6438   25.4214 C   0  0  0  0  0  0  0  0  0  0  0  0
   26.1512   -4.5693   23.2108 C   0  0  0  0  0  0  0  0  0  0  0  0
   27.0136   -5.1197   25.3986 C   0  0  0  0  0  0  0  0  0  0  0  0
   27.3969   -5.0469   23.8944 C   0  0  0  0  0  0  0  0  0  0  0  0
   21.0417   -4.9485   21.5893 C   0  0  0  0  0  0  0  0  0  0  0  0
   20.8425   -3.4683   21.1686 C   0  0  0  0  0  0  0  0  0  0  0  0
   18.4939   -2.7110   20.9807 C   0  0  0  0  0  0  0  0  0  0  0  0
   23.8204   -5.1717   23.7124 C   0  0  0  0  0  0  0  0  0  0  0  0
   16.1948   -1.8613   20.9317 C   0  0  0  0  0  0  0  0  0  0  0  0
   21.9906   -5.1943   22.6761 C   0  0  0  0  0  0  0  0  0  0  0  0
   17.4259   -2.5128   18.8579 C   0  0  0  0  0  0  0  0  0  0  0  0
   17.1496   -2.5208   16.7756 C   0  0  0  0  0  0  0  0  0  0  0  0
   19.6405   -3.1469   20.3283 C   0  0  0  0  0  0  0  0  0  0  0  0
   18.3941   -3.0625   16.9876 C   0  0  0  0  0  0  0  0  0  0  0  0
   17.3654   -2.3835   20.2592 C   0  0  0  0  0  0  0  0  0  0  0  0
   15.2156   -1.5892   19.1731 H   0  0  0  0  0  0  0  0  0  0  0  0
   13.3785   -0.6558   20.1391 H   0  0  0  0  0  0  0  0  0  0  0  0
   13.6822   -1.5641   21.4617 H   0  0  0  0  0  0  0  0  0  0  0  0
   14.3569   -0.0843   21.3150 H   0  0  0  0  0  0  0  0  0  0  0  0
   19.7870   -6.1691   23.8082 H   0  0  0  0  0  0  0  0  0  0  0  0
   20.6592   -7.1917   24.7357 H   0  0  0  0  0  0  0  0  0  0  0  0
   20.2687   -5.7096   25.2993 H   0  0  0  0  0  0  0  0  0  0  0  0
   17.1325   -2.6502   14.7449 H   0  0  0  0  0  0  0  0  0  0  0  0
   15.6539   -2.7936   15.4231 H   0  0  0  0  0  0  0  0  0  0  0  0
   16.3681   -1.3284   15.3237 H   0  0  0  0  0  0  0  0  0  0  0  0
   19.0899   -3.4981   15.0911 H   0  0  0  0  0  0  0  0  0  0  0  0
   20.2635   -2.9956   16.1093 H   0  0  0  0  0  0  0  0  0  0  0  0
   19.6646   -4.5094   16.2372 H   0  0  0  0  0  0  0  0  0  0  0  0
   25.5359   -6.6422   25.3840 H   0  0  0  0  0  0  0  0  0  0  0  0
   25.0661   -5.3185   26.2168 H   0  0  0  0  0  0  0  0  0  0  0  0
   26.1545   -3.5750   23.1049 H   0  0  0  0  0  0  0  0  0  0  0  0
   26.0419   -4.9996   22.3147 H   0  0  0  0  0  0  0  0  0  0  0  0
   27.6229   -5.7452   25.8858 H   0  0  0  0  0  0  0  0  0  0  0  0
   27.0626   -4.2129   25.8172 H   0  0  0  0  0  0  0  0  0  0  0  0
   28.1475   -4.4017   23.7519 H   0  0  0  0  0  0  0  0  0  0  0  0
   27.6632   -5.9486   23.5537 H   0  0  0  0  0  0  0  0  0  0  0  0
   21.3612   -5.4525   20.7868 H   0  0  0  0  0  0  0  0  0  0  0  0
   20.1526   -5.3058   21.8751 H   0  0  0  0  0  0  0  0  0  0  0  0
   21.6527   -3.1912   20.6521 H   0  0  0  0  0  0  0  0  0  0  0  0
   20.7783   -2.9243   22.0052 H   0  0  0  0  0  0  0  0  0  0  0  0
   18.4870   -2.6345   21.9778 H   0  0  0  0  0  0  0  0  0  0  0  0
  1 22  2  0  0  0  0
  2  7  1  0  0  0  0
  2 21  2  0  0  0  0
  3  8  1  0  0  0  0
  3 26  2  0  0  0  0
  4 10  1  0  0  0  0
  4 22  1  0  0  0  0
  5 21  1  0  0  0  0
  5 23  2  0  0  0  0
  6 24  2  0  0  0  0
  6 25  1  0  0  0  0
  7 11  1  0  0  0  0
  7 23  1  0  0  0  0
  8 24  1  0  0  0  0
  8 27  1  0  0  0  0
  9 14  1  0  0  0  0
  9 15  1  0  0  0  0
  9 21  1  0  0  0  0
 12 25  1  0  0  0  0
 13 27  1  0  0  0  0
 14 16  1  0  0  0  0
 15 17  1  0  0  0  0
 16 17  1  0  0  0  0
 18 19  1  0  0  0  0
 18 23  1  0  0  0  0
 19 26  1  0  0  0  0
 20 26  1  0  0  0  0
 20 28  2  0  0  0  0
 22 28  1  0  0  0  0
 24 28  1  0  0  0  0
 25 27  2  0  0  0  0
  4 29  1  0  0  0  0
 10 30  1  0  0  0  0
 10 31  1  0  0  0  0
 10 32  1  0  0  0  0
 11 33  1  0  0  0  0
 11 34  1  0  0  0  0
 11 35  1  0  0  0  0
 12 36  1  0  0  0  0
 12 37  1  0  0  0  0
 12 38  1  0  0  0  0
 13 39  1  0  0  0  0
 13 40  1  0  0  0  0
 13 41  1  0  0  0  0
 14 42  1  0  0  0  0
 14 43  1  0  0  0  0
 15 44  1  0  0  0  0
 15 45  1  0  0  0  0
 16 46  1  0  0  0  0
 16 47  1  0  0  0  0
 17 48  1  0  0  0  0
 17 49  1  0  0  0  0
 18 50  1  0  0  0  0
 18 51  1  0  0  0  0
 19 52  1  0  0  0  0
 19 53  1  0  0  0  0
 20 54  1  0  0  0  0
M  END
> <pdb_id>
5SFB

> <uniprot_id>
Q9Y233

> <usmiles>
O=C(NC)C=1C2=NC(=C(N2N=C(C1)CCC3=NC(=NN3C)N4CCCC4)C)C

$$$$
IK1_A_1871
          07192417023D 1   1.00000     0.00000     0
            
 29 30  0  0  0  0            999 V2000
   59.0036  -13.4779    7.1239 S   0  0  0  0  0  0  0  0  0  0  0  0
   59.1150  -16.1456    7.3521 O   0  0  0  0  0  0  0  0  0  0  0  0
   58.6512  -14.5683    2.9860 O   0  0  0  0  0  0  0  0  0  0  0  0
   59.8654  -17.5754    5.8101 N   0  0  0  0  0  0  0  0  0  0  0  0
   58.1145  -12.4340    2.5639 N   0  0  0  0  0  0  0  0  0  0  0  0
   59.3776  -15.3959    5.2406 N   0  0  0  0  0  0  0  0  0  0  0  0
   57.9648   -8.8609    9.3251 C   0  0  0  0  0  0  0  0  0  0  0  0
   57.6683   -8.6809    7.9779 C   0  0  0  0  0  0  0  0  0  0  0  0
   58.4538  -10.0854    9.7661 C   0  0  0  0  0  0  0  0  0  0  0  0
   57.8761   -9.7133    7.0766 C   0  0  0  0  0  0  0  0  0  0  0  0
   58.6528  -11.1198    8.8693 C   0  0  0  0  0  0  0  0  0  0  0  0
   58.3725  -11.9630    5.3411 C   0  0  0  0  0  0  0  0  0  0  0  0
   59.4678  -16.3526    6.1961 C   0  0  0  0  0  0  0  0  0  0  0  0
   59.0182  -14.1410    5.5652 C   0  0  0  0  0  0  0  0  0  0  0  0
   58.5103  -13.4097    3.3892 C   0  0  0  0  0  0  0  0  0  0  0  0
   58.5626  -11.9763    6.6619 C   0  0  0  0  0  0  0  0  0  0  0  0
   58.3655  -10.9548    7.5074 C   0  0  0  0  0  0  0  0  0  0  0  0
   58.6343  -13.1512    4.7230 C   0  0  0  0  0  0  0  0  0  0  0  0
   60.1510  -17.7331    4.8648 H   0  0  0  0  0  0  0  0  0  0  0  0
   59.8759  -18.3286    6.4679 H   0  0  0  0  0  0  0  0  0  0  0  0
   58.0058  -11.5014    2.9080 H   0  0  0  0  0  0  0  0  0  0  0  0
   57.9274  -12.6373    1.6028 H   0  0  0  0  0  0  0  0  0  0  0  0
   59.5795  -15.6244    4.2882 H   0  0  0  0  0  0  0  0  0  0  0  0
   57.8268   -8.1125    9.9739 H   0  0  0  0  0  0  0  0  0  0  0  0
   57.3048   -7.8055    7.6592 H   0  0  0  0  0  0  0  0  0  0  0  0
   58.6624  -10.2189   10.7349 H   0  0  0  0  0  0  0  0  0  0  0  0
   57.6746   -9.5711    6.1074 H   0  0  0  0  0  0  0  0  0  0  0  0
   59.0060  -11.9962    9.1968 H   0  0  0  0  0  0  0  0  0  0  0  0
   58.0641  -11.1507    4.8460 H   0  0  0  0  0  0  0  0  0  0  0  0
  1 14  1  0  0  0  0
  1 16  1  0  0  0  0
  2 13  2  0  0  0  0
  3 15  2  0  0  0  0
  4 13  1  0  0  0  0
  5 15  1  0  0  0  0
  6 13  1  0  0  0  0
  6 14  1  0  0  0  0
  7  8  2  0  0  0  0
  7  9  1  0  0  0  0
  8 10  1  0  0  0  0
  9 11  2  0  0  0  0
 10 17  2  0  0  0  0
 11 17  1  0  0  0  0
 12 16  2  0  0  0  0
 12 18  1  0  0  0  0
 14 18  2  0  0  0  0
 15 18  1  0  0  0  0
 16 17  1  0  0  0  0
  4 19  1  0  0  0  0
  4 20  1  0  0  0  0
  5 21  1  0  0  0  0
  5 22  1  0  0  0  0
  6 23  1  0  0  0  0
  7 24  1  0  0  0  0
  8 25  1  0  0  0  0
  9 26  1  0  0  0  0
 10 27  1  0  0  0  0
 11 28  1  0  0  0  0
 12 29  1  0  0  0  0
M  END
> <pdb_id>
3ZON

> <uniprot_id>
P29597

> <usmiles>
S1C(NC(=O)N)=C(C(=O)N)C=C1c2ccccc2

$$$$
IK1_A_901
          07212403213D 1   1.00000     0.00000     0
            
 29 30  0  0  0  0            999 V2000
  -12.0521   12.4644   21.2664 S   0  0  0  0  0  0  0  0  0  0  0  0
  -11.2984   14.6431   19.9610 O   0  0  0  0  0  0  0  0  0  0  0  0
   -7.8607   11.4293   20.6234 O   0  0  0  0  0  0  0  0  0  0  0  0
   -9.3225   15.1774   18.9565 N   0  0  0  0  0  0  0  0  0  0  0  0
   -7.9703    9.3453   21.5604 N   0  0  0  0  0  0  0  0  0  0  0  0
   -9.5667   13.0693   20.1789 N   0  0  0  0  0  0  0  0  0  0  0  0
  -15.7561    9.7661   23.9241 C   0  0  0  0  0  0  0  0  0  0  0  0
  -14.5864    9.0634   24.1788 C   0  0  0  0  0  0  0  0  0  0  0  0
  -15.7399   10.8641   23.0746 C   0  0  0  0  0  0  0  0  0  0  0  0
  -13.3961    9.4517   23.5842 C   0  0  0  0  0  0  0  0  0  0  0  0
  -14.5539   11.2574   22.4767 C   0  0  0  0  0  0  0  0  0  0  0  0
  -10.9808   10.3362   22.1085 C   0  0  0  0  0  0  0  0  0  0  0  0
  -10.1681   14.3143   19.7175 C   0  0  0  0  0  0  0  0  0  0  0  0
  -10.3962   12.2108   20.9100 C   0  0  0  0  0  0  0  0  0  0  0  0
   -8.5383   10.6375   21.2012 C   0  0  0  0  0  0  0  0  0  0  0  0
  -12.2255   10.9677   22.1358 C   0  0  0  0  0  0  0  0  0  0  0  0
  -13.3875   10.5456   22.7258 C   0  0  0  0  0  0  0  0  0  0  0  0
   -9.9905   11.0058   21.4873 C   0  0  0  0  0  0  0  0  0  0  0  0
   -8.3821   14.9044   18.7537 H   0  0  0  0  0  0  0  0  0  0  0  0
   -9.6706   16.0549   18.6266 H   0  0  0  0  0  0  0  0  0  0  0  0
   -8.5279    8.6715   22.0454 H   0  0  0  0  0  0  0  0  0  0  0  0
   -7.0229    9.1318   21.3221 H   0  0  0  0  0  0  0  0  0  0  0  0
   -8.6129   12.8409   19.9837 H   0  0  0  0  0  0  0  0  0  0  0  0
  -16.6128    9.4807   24.3537 H   0  0  0  0  0  0  0  0  0  0  0  0
  -14.6026    8.2745   24.7931 H   0  0  0  0  0  0  0  0  0  0  0  0
  -16.5833   11.3703   22.8946 H   0  0  0  0  0  0  0  0  0  0  0  0
  -12.5515    8.9499   23.7708 H   0  0  0  0  0  0  0  0  0  0  0  0
  -14.5376   12.0508   21.8681 H   0  0  0  0  0  0  0  0  0  0  0  0
  -10.8329    9.4394   22.5255 H   0  0  0  0  0  0  0  0  0  0  0  0
  1 14  1  0  0  0  0
  1 16  1  0  0  0  0
  2 13  2  0  0  0  0
  3 15  2  0  0  0  0
  4 13  1  0  0  0  0
  5 15  1  0  0  0  0
  6 13  1  0  0  0  0
  6 14  1  0  0  0  0
  7  8  2  0  0  0  0
  7  9  1  0  0  0  0
  8 10  1  0  0  0  0
  9 11  2  0  0  0  0
 10 17  2  0  0  0  0
 11 17  1  0  0  0  0
 12 16  2  0  0  0  0
 12 18  1  0  0  0  0
 14 18  2  0  0  0  0
 15 18  1  0  0  0  0
 16 17  1  0  0  0  0
  4 19  1  0  0  0  0
  4 20  1  0  0  0  0
  5 21  1  0  0  0  0
  5 22  1  0  0  0  0
  6 23  1  0  0  0  0
  7 24  1  0  0  0  0
  8 25  1  0  0  0  0
  9 26  1  0  0  0  0
 10 27  1  0  0  0  0
 11 28  1  0  0  0  0
 12 29  1  0  0  0  0
M  END
> <pdb_id>
5UT3

> <uniprot_id>
O60674

> <usmiles>
S1C(NC(=O)N)=C(C(=O)N)C=C1c2ccccc2

$$$$
IK9_A_1225
          07192420423D 1   1.00000     0.00000     0
            
 46 50  0  0  0  0            999 V2000
   71.3228   28.7795   23.0523 F   0  0  0  0  0  0  0  0  0  0  0  0
   77.1868   29.7558   21.6415 O   0  0  0  0  0  0  0  0  0  0  0  0
   70.4984   38.8476   21.6874 O   0  0  0  0  0  0  0  0  0  0  0  0
   69.7361   36.7034   21.2746 O   0  0  0  0  0  0  0  0  0  0  0  0
   75.5817   35.8748   26.4422 N   0  0  0  0  0  0  0  0  0  0  0  0
   73.2514   35.4731   26.2453 N   0  0  0  0  0  0  0  0  0  0  0  0
   75.1626   31.3205   24.2705 N   0  0  0  0  0  0  0  0  0  0  0  0
   74.6973   33.8548   25.4747 N   0  0  0  0  0  0  0  0  0  0  0  0
   70.7646   33.0478   25.0906 N   0  0  0  0  0  0  0  0  0  0  0  0
   72.6034   34.3564   25.7019 N   0  0  0  0  0  0  0  0  0  0  0  0
   69.9057   38.0065   20.6688 C   0  0  0  0  0  0  0  0  0  0  0  0
   76.1393   30.5230   22.2497 C   0  0  0  0  0  0  0  0  0  0  0  0
   76.0584   30.2720   23.7636 C   0  0  0  0  0  0  0  0  0  0  0  0
   70.9298   38.5237   24.1364 C   0  0  0  0  0  0  0  0  0  0  0  0
   70.8396   37.5540   25.1475 C   0  0  0  0  0  0  0  0  0  0  0  0
   73.2140   30.0547   23.6846 C   0  0  0  0  0  0  0  0  0  0  0  0
   70.9987   30.9073   24.0865 C   0  0  0  0  0  0  0  0  0  0  0  0
   69.9728   35.8525   23.6335 C   0  0  0  0  0  0  0  0  0  0  0  0
   70.3254   35.2612   26.1000 C   0  0  0  0  0  0  0  0  0  0  0  0
   71.8317   29.9031   23.6038 C   0  0  0  0  0  0  0  0  0  0  0  0
   74.5287   35.0798   26.0649 C   0  0  0  0  0  0  0  0  0  0  0  0
   70.5351   38.1431   22.8590 C   0  0  0  0  0  0  0  0  0  0  0  0
   70.0524   36.7958   22.6086 C   0  0  0  0  0  0  0  0  0  0  0  0
   71.2724   34.1784   25.6480 C   0  0  0  0  0  0  0  0  0  0  0  0
   73.4298   33.4091   25.2662 C   0  0  0  0  0  0  0  0  0  0  0  0
   73.8008   31.2036   24.2172 C   0  0  0  0  0  0  0  0  0  0  0  0
   71.5726   32.0599   24.6304 C   0  0  0  0  0  0  0  0  0  0  0  0
   70.3705   36.2473   24.9288 C   0  0  0  0  0  0  0  0  0  0  0  0
   72.9615   32.2176   24.7000 C   0  0  0  0  0  0  0  0  0  0  0  0
   77.2102   29.9434   20.6595 H   0  0  0  0  0  0  0  0  0  0  0  0
   76.5207   35.5622   26.2987 H   0  0  0  0  0  0  0  0  0  0  0  0
   75.4100   36.7666   26.8607 H   0  0  0  0  0  0  0  0  0  0  0  0
   75.5616   32.1469   24.6677 H   0  0  0  0  0  0  0  0  0  0  0  0
   70.5104   37.9443   19.8748 H   0  0  0  0  0  0  0  0  0  0  0  0
   69.0206   38.3756   20.3855 H   0  0  0  0  0  0  0  0  0  0  0  0
   75.2669   30.2693   21.8318 H   0  0  0  0  0  0  0  0  0  0  0  0
   76.3148   31.4946   22.0909 H   0  0  0  0  0  0  0  0  0  0  0  0
   75.6806   29.3652   23.9506 H   0  0  0  0  0  0  0  0  0  0  0  0
   76.9632   30.3491   24.1823 H   0  0  0  0  0  0  0  0  0  0  0  0
   71.2632   39.4471   24.3265 H   0  0  0  0  0  0  0  0  0  0  0  0
   71.1242   37.8064   26.0723 H   0  0  0  0  0  0  0  0  0  0  0  0
   73.8033   29.3188   23.3511 H   0  0  0  0  0  0  0  0  0  0  0  0
   70.0047   30.8062   24.0449 H   0  0  0  0  0  0  0  0  0  0  0  0
   69.6439   34.9250   23.4557 H   0  0  0  0  0  0  0  0  0  0  0  0
   70.6428   35.6896   26.9460 H   0  0  0  0  0  0  0  0  0  0  0  0
   69.4021   34.9014   26.2346 H   0  0  0  0  0  0  0  0  0  0  0  0
  1 20  1  0  0  0  0
  2 12  1  0  0  0  0
  3 11  1  0  0  0  0
  3 22  1  0  0  0  0
  4 11  1  0  0  0  0
  4 23  1  0  0  0  0
  5 21  1  0  0  0  0
  6 10  1  0  0  0  0
  6 21  2  0  0  0  0
  7 13  1  0  0  0  0
  7 26  1  0  0  0  0
  8 21  1  0  0  0  0
  8 25  2  0  0  0  0
  9 24  2  0  0  0  0
  9 27  1  0  0  0  0
 10 24  1  0  0  0  0
 10 25  1  0  0  0  0
 12 13  1  0  0  0  0
 14 15  2  0  0  0  0
 14 22  1  0  0  0  0
 15 28  1  0  0  0  0
 16 20  2  0  0  0  0
 16 26  1  0  0  0  0
 17 20  1  0  0  0  0
 17 27  2  0  0  0  0
 18 23  1  0  0  0  0
 18 28  2  0  0  0  0
 19 24  1  0  0  0  0
 19 28  1  0  0  0  0
 22 23  2  0  0  0  0
 25 29  1  0  0  0  0
 26 29  2  0  0  0  0
 27 29  1  0  0  0  0
  2 30  1  0  0  0  0
  5 31  1  0  0  0  0
  5 32  1  0  0  0  0
  7 33  1  0  0  0  0
 11 34  1  0  0  0  0
 11 35  1  0  0  0  0
 12 36  1  0  0  0  0
 12 37  1  0  0  0  0
 13 38  1  0  0  0  0
 13 39  1  0  0  0  0
 14 40  1  0  0  0  0
 15 41  1  0  0  0  0
 16 42  1  0  0  0  0
 17 43  1  0  0  0  0
 18 44  1  0  0  0  0
 19 45  1  0  0  0  0
 19 46  1  0  0  0  0
M  END
> <pdb_id>
4CWT

> <uniprot_id>
P07900

> <usmiles>
Fc1cc2N=C(N3N=C(N=C3c2c(NCCO)c1)N)Cc4cc5OCOc5cc4

$$$$
IKH_C_801
          07192416573D 1   1.00000     0.00000     0
            
 43 46  0  0  0  0            999 V2000
   20.3043   -3.3827   16.0000 O   0  0  0  0  0  0  0  0  0  0  0  0
   19.2066   -3.6790   19.0231 N   0  0  0  0  0  0  0  0  0  0  0  0
   16.3573   -1.9041   17.7985 N   0  0  0  0  0  0  0  0  0  0  0  0
   23.3239   -4.7857   22.8743 N   0  0  0  0  0  0  0  0  0  0  0  0
   18.2036   -3.0951   18.2700 N   0  0  0  0  0  0  0  0  0  0  0  0
   21.6654   -5.7227   24.0948 N   0  0  0  0  0  0  0  0  0  0  0  0
   20.3328   -6.1923   24.4882 C   0  0  0  0  0  0  0  0  0  0  0  0
   16.3611   -2.1332   15.2620 C   0  0  0  0  0  0  0  0  0  0  0  0
   19.0687   -3.9257   16.0855 C   0  0  0  0  0  0  0  0  0  0  0  0
   22.8337   -5.9033   24.7637 C   0  0  0  0  0  0  0  0  0  0  0  0
   27.9543   -5.0038   25.3027 C   0  0  0  0  0  0  0  0  0  0  0  0
   27.5859   -4.5791   24.0105 C   0  0  0  0  0  0  0  0  0  0  0  0
   26.9679   -5.5296   26.1508 C   0  0  0  0  0  0  0  0  0  0  0  0
   17.0797   -2.1927   20.2389 C   0  0  0  0  0  0  0  0  0  0  0  0
   21.0176   -4.6272   21.9911 C   0  0  0  0  0  0  0  0  0  0  0  0
   18.0992   -2.7747   21.0312 C   0  0  0  0  0  0  0  0  0  0  0  0
   20.1918   -4.1956   21.2038 C   0  0  0  0  0  0  0  0  0  0  0  0
   26.2306   -4.7029   23.5901 C   0  0  0  0  0  0  0  0  0  0  0  0
   25.6063   -5.6218   25.7344 C   0  0  0  0  0  0  0  0  0  0  0  0
   17.1540   -2.3309   18.8089 C   0  0  0  0  0  0  0  0  0  0  0  0
   21.9823   -5.0496   22.9542 C   0  0  0  0  0  0  0  0  0  0  0  0
   16.9096   -2.3879   16.6223 C   0  0  0  0  0  0  0  0  0  0  0  0
   19.1284   -3.5542   20.4240 C   0  0  0  0  0  0  0  0  0  0  0  0
   23.8455   -5.3246   24.0184 C   0  0  0  0  0  0  0  0  0  0  0  0
   18.0853   -3.1540   16.9373 C   0  0  0  0  0  0  0  0  0  0  0  0
   25.2481   -5.2728   24.4443 C   0  0  0  0  0  0  0  0  0  0  0  0
   20.8818   -3.9577   15.4205 H   0  0  0  0  0  0  0  0  0  0  0  0
   19.6637   -5.9109   23.8004 H   0  0  0  0  0  0  0  0  0  0  0  0
   20.3383   -7.1897   24.5594 H   0  0  0  0  0  0  0  0  0  0  0  0
   20.0877   -5.7964   25.3732 H   0  0  0  0  0  0  0  0  0  0  0  0
   16.9349   -2.5876   14.5807 H   0  0  0  0  0  0  0  0  0  0  0  0
   15.4293   -2.4919   15.2057 H   0  0  0  0  0  0  0  0  0  0  0  0
   16.3505   -1.1489   15.0858 H   0  0  0  0  0  0  0  0  0  0  0  0
   19.1598   -4.8434   16.4722 H   0  0  0  0  0  0  0  0  0  0  0  0
   18.6938   -3.9895   15.1606 H   0  0  0  0  0  0  0  0  0  0  0  0
   22.9432   -6.3718   25.6404 H   0  0  0  0  0  0  0  0  0  0  0  0
   28.9032   -4.9315   25.6101 H   0  0  0  0  0  0  0  0  0  0  0  0
   28.2713   -4.1935   23.3929 H   0  0  0  0  0  0  0  0  0  0  0  0
   27.2241   -5.8457   27.0643 H   0  0  0  0  0  0  0  0  0  0  0  0
   16.3237   -1.6959   20.6649 H   0  0  0  0  0  0  0  0  0  0  0  0
   18.0977   -2.6385   22.0219 H   0  0  0  0  0  0  0  0  0  0  0  0
   25.9664   -4.3839   22.6799 H   0  0  0  0  0  0  0  0  0  0  0  0
   24.9089   -5.9395   26.3768 H   0  0  0  0  0  0  0  0  0  0  0  0
  1  9  1  0  0  0  0
  2  5  1  0  0  0  0
  2 23  2  0  0  0  0
  3 20  2  0  0  0  0
  3 22  1  0  0  0  0
  4 21  2  0  0  0  0
  4 24  1  0  0  0  0
  5 20  1  0  0  0  0
  5 25  1  0  0  0  0
  6  7  1  0  0  0  0
  6 10  1  0  0  0  0
  6 21  1  0  0  0  0
  8 22  1  0  0  0  0
  9 25  1  0  0  0  0
 10 24  2  0  0  0  0
 11 12  2  0  0  0  0
 11 13  1  0  0  0  0
 12 18  1  0  0  0  0
 13 19  2  0  0  0  0
 14 16  2  0  0  0  0
 14 20  1  0  0  0  0
 15 17  3  0  0  0  0
 15 21  1  0  0  0  0
 16 23  1  0  0  0  0
 17 23  1  0  0  0  0
 18 26  2  0  0  0  0
 19 26  1  0  0  0  0
 22 25  2  0  0  0  0
 24 26  1  0  0  0  0
  1 27  1  0  0  0  0
  7 28  1  0  0  0  0
  7 29  1  0  0  0  0
  7 30  1  0  0  0  0
  8 31  1  0  0  0  0
  8 32  1  0  0  0  0
  8 33  1  0  0  0  0
  9 34  1  0  0  0  0
  9 35  1  0  0  0  0
 10 36  1  0  0  0  0
 11 37  1  0  0  0  0
 12 38  1  0  0  0  0
 13 39  1  0  0  0  0
 14 40  1  0  0  0  0
 16 41  1  0  0  0  0
 18 42  1  0  0  0  0
 19 43  1  0  0  0  0
M  END
> <pdb_id>
5SFF

> <uniprot_id>
Q9Y233

> <usmiles>
OCC=1N2N=C(C#CC3=NC(c4ccccc4)=CN3C)C=CC2=NC1C

$$$$
IKU_C_803
          07192416573D 1   1.00000     0.00000     0
            
 49 52  0  0  0  0            999 V2000
   22.8045   -5.7196   24.7528 N   0  0  0  0  0  0  0  0  0  0  0  0
   18.5530   -2.6066   20.7302 N   0  0  0  0  0  0  0  0  0  0  0  0
   17.0361   -2.5974   16.9465 N   0  0  0  0  0  0  0  0  0  0  0  0
   23.1673   -4.8853   22.6603 N   0  0  0  0  0  0  0  0  0  0  0  0
   19.8934   -3.4988   19.1306 N   0  0  0  0  0  0  0  0  0  0  0  0
   21.6236   -5.6889   24.1081 N   0  0  0  0  0  0  0  0  0  0  0  0
   17.9410   -2.5419   19.5078 N   0  0  0  0  0  0  0  0  0  0  0  0
   25.0422   -5.2139   24.3129 N   0  0  0  0  0  0  0  0  0  0  0  0
   20.3802   -6.0906   24.7197 C   0  0  0  0  0  0  0  0  0  0  0  0
   15.8126   -1.3460   20.2339 C   0  0  0  0  0  0  0  0  0  0  0  0
   25.9828   -7.1876   25.3353 C   0  0  0  0  0  0  0  0  0  0  0  0
   19.1565   -3.7632   16.1696 C   0  0  0  0  0  0  0  0  0  0  0  0
   25.9964   -4.7415   23.3149 C   0  0  0  0  0  0  0  0  0  0  0  0
   16.2741   -1.9982   17.8633 C   0  0  0  0  0  0  0  0  0  0  0  0
   27.3240   -4.7890   23.9962 C   0  0  0  0  0  0  0  0  0  0  0  0
   20.7209   -3.4260   21.5472 C   0  0  0  0  0  0  0  0  0  0  0  0
   20.7914   -4.9149   21.7665 C   0  0  0  0  0  0  0  0  0  0  0  0
   26.9139   -4.8512   25.4553 C   0  0  0  0  0  0  0  0  0  0  0  0
   23.7089   -5.2211   23.8840 C   0  0  0  0  0  0  0  0  0  0  0  0
   19.7484   -3.2235   20.4604 C   0  0  0  0  0  0  0  0  0  0  0  0
   21.8533   -5.1709   22.8388 C   0  0  0  0  0  0  0  0  0  0  0  0
   18.7543   -3.0859   18.5733 C   0  0  0  0  0  0  0  0  0  0  0  0
   16.6774   -1.9691   19.2007 C   0  0  0  0  0  0  0  0  0  0  0  0
   25.6752   -5.6925   25.4723 C   0  0  1  0  0  0  0  0  0  0  0  0
   18.2819   -3.1495   17.2216 C   0  0  0  0  0  0  0  0  0  0  0  0
   19.6355   -5.9862   24.0606 H   0  0  0  0  0  0  0  0  0  0  0  0
   20.4423   -7.0474   25.0037 H   0  0  0  0  0  0  0  0  0  0  0  0
   20.2010   -5.5167   25.5188 H   0  0  0  0  0  0  0  0  0  0  0  0
   14.9742   -1.0074   19.8068 H   0  0  0  0  0  0  0  0  0  0  0  0
   15.5812   -2.0262   20.9294 H   0  0  0  0  0  0  0  0  0  0  0  0
   16.2999   -0.5845   20.6614 H   0  0  0  0  0  0  0  0  0  0  0  0
   26.4325   -7.5130   26.1671 H   0  0  0  0  0  0  0  0  0  0  0  0
   25.1303   -7.6921   25.1981 H   0  0  0  0  0  0  0  0  0  0  0  0
   26.5862   -7.3333   24.5513 H   0  0  0  0  0  0  0  0  0  0  0  0
   20.0010   -4.0949   16.5901 H   0  0  0  0  0  0  0  0  0  0  0  0
   18.6753   -4.5275   15.7403 H   0  0  0  0  0  0  0  0  0  0  0  0
   19.3765   -3.0765   15.4767 H   0  0  0  0  0  0  0  0  0  0  0  0
   25.7783   -3.8066   23.0350 H   0  0  0  0  0  0  0  0  0  0  0  0
   25.9912   -5.3392   22.5132 H   0  0  0  0  0  0  0  0  0  0  0  0
   15.4125   -1.5690   17.5925 H   0  0  0  0  0  0  0  0  0  0  0  0
   27.8631   -3.9693   23.8030 H   0  0  0  0  0  0  0  0  0  0  0  0
   27.8433   -5.6004   23.7279 H   0  0  0  0  0  0  0  0  0  0  0  0
   21.6174   -3.0707   21.2824 H   0  0  0  0  0  0  0  0  0  0  0  0
   20.4127   -2.9660   22.3799 H   0  0  0  0  0  0  0  0  0  0  0  0
   21.0474   -5.3738   20.9158 H   0  0  0  0  0  0  0  0  0  0  0  0
   19.9041   -5.2570   22.0759 H   0  0  0  0  0  0  0  0  0  0  0  0
   26.7215   -3.9347   25.8060 H   0  0  0  0  0  0  0  0  0  0  0  0
   27.6340   -5.2742   26.0054 H   0  0  0  0  0  0  0  0  0  0  0  0
   25.1247   -5.5095   26.2868 H   0  0  0  0  0  0  0  0  0  0  0  0
  1  6  1  0  0  0  0
  1 19  2  0  0  0  0
  2  7  1  0  0  0  0
  2 20  2  0  0  0  0
  3 14  1  0  0  0  0
  3 25  2  0  0  0  0
  4 19  1  0  0  0  0
  4 21  2  0  0  0  0
  5 20  1  0  0  0  0
  5 22  2  0  0  0  0
  6  9  1  0  0  0  0
  6 21  1  0  0  0  0
  7 22  1  0  0  0  0
  7 23  1  0  0  0  0
  8 13  1  0  0  0  0
  8 19  1  0  0  0  0
  8 24  1  0  0  0  0
 10 23  1  0  0  0  0
 11 24  1  0  0  0  0
 12 25  1  0  0  0  0
 13 15  1  0  0  0  0
 14 23  2  0  0  0  0
 15 18  1  0  0  0  0
 16 17  1  0  0  0  0
 16 20  1  0  0  0  0
 17 21  1  0  0  0  0
 18 24  1  0  0  0  0
 22 25  1  0  0  0  0
  9 26  1  0  0  0  0
  9 27  1  0  0  0  0
  9 28  1  0  0  0  0
 10 29  1  0  0  0  0
 10 30  1  0  0  0  0
 10 31  1  0  0  0  0
 11 32  1  0  0  0  0
 11 33  1  0  0  0  0
 11 34  1  0  0  0  0
 12 35  1  0  0  0  0
 12 36  1  0  0  0  0
 12 37  1  0  0  0  0
 13 38  1  0  0  0  0
 13 39  1  0  0  0  0
 14 40  1  0  0  0  0
 15 41  1  0  0  0  0
 15 42  1  0  0  0  0
 16 43  1  0  0  0  0
 16 44  1  0  0  0  0
 17 45  1  0  0  0  0
 17 46  1  0  0  0  0
 18 47  1  0  0  0  0
 18 48  1  0  0  0  0
 24 49  1  0  0  0  0
M  END
> <pdb_id>
5SFI

> <uniprot_id>
Q9Y233

> <usmiles>
N=1N2C(=NC1CCC3=NC(=NN3C)N4[C@H](CCC4)C)C(=NC=C2C)C

$$$$
IKY_A_1268
          07192422123D 1   1.00000     0.00000     0
            
 26 27  0  0  0  0            999 V2000
   10.5040   -1.6960   -1.5380 F   0  0  0  0  0  0  0  0  0  0  0  0
   12.4820   -1.9550   -2.0270 F   0  0  0  0  0  0  0  0  0  0  0  0
   11.9530   -1.1320   -0.1170 F   0  0  0  0  0  0  0  0  0  0  0  0
    8.5090   -0.1150    4.3330 O   0  0  0  0  0  0  0  0  0  0  0  0
    6.7950    0.1110    2.4090 O   0  0  0  0  0  0  0  0  0  0  0  0
    8.3340    1.3870   -1.3780 O   0  0  0  0  0  0  0  0  0  0  0  0
    8.9210    0.1730    3.1010 N   0  0  0  0  0  0  0  0  0  0  0  0
    9.5080    0.5620    0.1950 N   0  0  0  0  0  0  0  0  0  0  0  0
    7.5060    1.2120   -0.2100 C   0  0  0  0  0  0  0  0  0  0  0  0
   11.7670    2.5920   -3.4630 C   0  0  0  0  0  0  0  0  0  0  0  0
   12.8130    1.6820   -3.5610 C   0  0  0  0  0  0  0  0  0  0  0  0
   10.6530    2.3090   -2.6970 C   0  0  0  0  0  0  0  0  0  0  0  0
   12.8510    0.4890   -2.8530 C   0  0  0  0  0  0  0  0  0  0  0  0
    7.9790    0.3060    2.1010 C   0  0  0  0  0  0  0  0  0  0  0  0
    9.5270    0.9470   -1.0370 C   0  0  0  0  0  0  0  0  0  0  0  0
    8.3550    0.6580    0.7020 C   0  0  0  0  0  0  0  0  0  0  0  0
   10.6610    1.0900   -1.9690 C   0  0  0  0  0  0  0  0  0  0  0  0
   11.7390    0.1700   -2.0570 C   0  0  0  0  0  0  0  0  0  0  0  0
   11.6750   -1.1510   -1.4130 C   0  0  0  0  0  0  0  0  0  0  0  0
    9.2993   -0.1790    4.9424 H   0  0  0  0  0  0  0  0  0  0  0  0
    9.8942    0.2908    2.9035 H   0  0  0  0  0  0  0  0  0  0  0  0
    6.5395    1.4421   -0.0961 H   0  0  0  0  0  0  0  0  0  0  0  0
   11.8216    3.4620   -3.9529 H   0  0  0  0  0  0  0  0  0  0  0  0
   13.5753    1.8974   -4.1714 H   0  0  0  0  0  0  0  0  0  0  0  0
    9.8746    2.9355   -2.6569 H   0  0  0  0  0  0  0  0  0  0  0  0
   13.6414   -0.1212   -2.9077 H   0  0  0  0  0  0  0  0  0  0  0  0
  1 19  1  0  0  0  0
  2 19  1  0  0  0  0
  3 19  1  0  0  0  0
  4  7  1  0  0  0  0
  5 14  2  0  0  0  0
  6  9  1  0  0  0  0
  6 15  1  0  0  0  0
  7 14  1  0  0  0  0
  8 15  2  0  0  0  0
  8 16  1  0  0  0  0
  9 16  2  0  0  0  0
 10 11  2  0  0  0  0
 10 12  1  0  0  0  0
 11 13  1  0  0  0  0
 12 17  2  0  0  0  0
 13 18  2  0  0  0  0
 14 16  1  0  0  0  0
 15 17  1  0  0  0  0
 17 18  1  0  0  0  0
 18 19  1  0  0  0  0
  4 20  1  0  0  0  0
  7 21  1  0  0  0  0
  9 22  1  0  0  0  0
 10 23  1  0  0  0  0
 11 24  1  0  0  0  0
 12 25  1  0  0  0  0
 13 26  1  0  0  0  0
M  END
> <pdb_id>
4A6V

> <uniprot_id>
C6EAB7

> <usmiles>
FC(F)(F)c1c(cccc1)C=2OC=C(N2)C(=O)NO

$$$$
IL5_A_305
          07192416293D 1   1.00000     0.00000     0
            
 22 23  0  0  0  0            999 V2000
   -5.8556    0.8870   16.7973 S   0  0  0  0  0  0  0  0  0  0  0  0
   -5.6182    6.0098   14.4796 S   0  0  0  0  0  0  0  0  0  0  0  0
   -5.3438    0.9467   18.1317 O   0  0  0  0  0  0  0  0  0  0  0  0
   -7.2623    1.0424   16.5890 O   0  0  0  0  0  0  0  0  0  0  0  0
   -5.9906    6.7816   15.6381 O   0  0  0  0  0  0  0  0  0  0  0  0
   -6.6339    5.9381   13.4595 O   0  0  0  0  0  0  0  0  0  0  0  0
   -2.0897    5.6742   13.5821 O   0  0  0  0  0  0  0  0  0  0  0  0
   -5.3665   -0.4628   16.1420 N   0  0  0  0  0  0  0  0  0  0  0  0
   -4.2064    6.4899   13.8578 N   0  0  0  0  0  0  0  0  0  0  0  0
   -3.7026    2.0671   15.5975 C   0  0  0  0  0  0  0  0  0  0  0  0
   -3.0529    3.1109   14.9314 C   0  0  0  0  0  0  0  0  0  0  0  0
   -5.7558    3.3696   15.6604 C   0  0  0  0  0  0  0  0  0  0  0  0
   -5.0480    2.2024   15.9601 C   0  0  0  0  0  0  0  0  0  0  0  0
   -3.2556    5.5355   13.9778 C   0  0  0  0  0  0  0  0  0  0  0  0
   -5.0982    4.4134   15.0033 C   0  0  0  0  0  0  0  0  0  0  0  0
   -3.7508    4.2889   14.6479 C   0  0  0  0  0  0  0  0  0  0  0  0
   -1.4303    4.9314   13.6989 H   0  0  0  0  0  0  0  0  0  0  0  0
   -5.7142   -0.5243   15.2064 H   0  0  0  0  0  0  0  0  0  0  0  0
   -4.3668   -0.4835   16.1281 H   0  0  0  0  0  0  0  0  0  0  0  0
   -3.2073    1.2258   15.8143 H   0  0  0  0  0  0  0  0  0  0  0  0
   -2.0953    3.0155   14.6595 H   0  0  0  0  0  0  0  0  0  0  0  0
   -6.7195    3.4568   15.9126 H   0  0  0  0  0  0  0  0  0  0  0  0
  1  3  2  0  0  0  0
  1  4  2  0  0  0  0
  1  8  1  0  0  0  0
  1 13  1  0  0  0  0
  2  5  2  0  0  0  0
  2  6  2  0  0  0  0
  2  9  1  0  0  0  0
  2 15  1  0  0  0  0
  7 14  1  0  0  0  0
  9 14  2  0  0  0  0
 10 11  1  0  0  0  0
 10 13  2  0  0  0  0
 11 16  2  0  0  0  0
 12 13  1  0  0  0  0
 12 15  2  0  0  0  0
 14 16  1  0  0  0  0
 15 16  1  0  0  0  0
  7 17  1  0  0  0  0
  8 18  1  0  0  0  0
  8 19  1  0  0  0  0
 10 20  1  0  0  0  0
 11 21  1  0  0  0  0
 12 22  1  0  0  0  0
M  END
> <pdb_id>
4XE1

> <uniprot_id>
P00918

> <usmiles>
S1(=O)(=O)N=C(O)c2c1cc(S(=O)(=O)N)cc2

$$$$
IL6_C_803
          07192416573D 1   1.00000     0.00000     0
            
 45 48  0  0  0  0            999 V2000
   19.4711   -7.7654   24.1269 F   0  0  0  0  0  0  0  0  0  0  0  0
   18.4291   -7.6794   26.1668 F   0  0  0  0  0  0  0  0  0  0  0  0
   17.3895   -6.7175   24.5473 F   0  0  0  0  0  0  0  0  0  0  0  0
   19.7057   -3.5211   19.2387 O   0  0  0  0  0  0  0  0  0  0  0  0
   18.6776   -4.2688   23.1056 N   0  0  0  0  0  0  0  0  0  0  0  0
   20.4059   -3.3594   13.6261 N   0  0  0  0  0  0  0  0  0  0  0  0
   18.9382   -1.5907   13.5113 N   0  0  0  0  0  0  0  0  0  0  0  0
   18.4393   -3.0964   21.0756 N   0  0  0  0  0  0  0  0  0  0  0  0
   18.8746   -2.8812   16.9435 N   0  0  0  0  0  0  0  0  0  0  0  0
   16.7887   -1.6313   19.6405 N   0  0  0  0  0  0  0  0  0  0  0  0
   19.6490   -4.9750   23.8400 N   0  0  0  0  0  0  0  0  0  0  0  0
   19.8182   -2.3969   12.9246 C   0  0  0  0  0  0  0  0  0  0  0  0
   20.1223   -3.5414   14.9280 C   0  0  0  0  0  0  0  0  0  0  0  0
   18.6048   -1.7054   14.8116 C   0  0  0  0  0  0  0  0  0  0  0  0
   20.7909   -4.9631   23.0796 C   0  0  0  0  0  0  0  0  0  0  0  0
   19.3950   -5.5966   25.1538 C   0  0  0  0  0  0  0  0  0  0  0  0
   20.5457   -4.2540   21.9388 C   0  0  0  0  0  0  0  0  0  0  0  0
   16.7741   -1.5848   16.8932 C   0  0  0  0  0  0  0  0  0  0  0  0
   15.7677   -0.9730   17.6337 C   0  0  0  0  0  0  0  0  0  0  0  0
   14.5758   -0.9348   21.3500 C   0  0  0  0  0  0  0  0  0  0  0  0
   15.3190    0.4084   21.1639 C   0  0  0  0  0  0  0  0  0  0  0  0
   18.7582   -2.9601   19.7642 C   0  0  0  0  0  0  0  0  0  0  0  0
   19.1958   -3.8274   21.9879 C   0  0  0  0  0  0  0  0  0  0  0  0
   19.2100   -2.6971   15.5803 C   0  0  0  0  0  0  0  0  0  0  0  0
   17.8001   -2.2453   17.5720 C   0  0  0  0  0  0  0  0  0  0  0  0
   15.8089   -1.0216   19.0271 C   0  0  0  0  0  0  0  0  0  0  0  0
   17.7668   -2.2198   18.9679 C   0  0  0  0  0  0  0  0  0  0  0  0
   14.7688   -0.3646   19.9342 C   0  0  0  0  0  0  0  0  0  0  0  0
   18.6794   -6.9665   24.9841 C   0  0  0  0  0  0  0  0  0  0  0  0
   17.6111   -2.6447   21.4072 H   0  0  0  0  0  0  0  0  0  0  0  0
   19.4389   -3.5018   17.4880 H   0  0  0  0  0  0  0  0  0  0  0  0
   20.0373   -2.2785   11.9561 H   0  0  0  0  0  0  0  0  0  0  0  0
   20.5637   -4.2822   15.4343 H   0  0  0  0  0  0  0  0  0  0  0  0
   17.9324   -1.0875   15.2192 H   0  0  0  0  0  0  0  0  0  0  0  0
   21.6574   -5.4004   23.3204 H   0  0  0  0  0  0  0  0  0  0  0  0
   18.8165   -4.9891   25.6981 H   0  0  0  0  0  0  0  0  0  0  0  0
   20.2661   -5.7373   25.6244 H   0  0  0  0  0  0  0  0  0  0  0  0
   21.1986   -4.0699   21.2041 H   0  0  0  0  0  0  0  0  0  0  0  0
   16.7629   -1.5522   15.8938 H   0  0  0  0  0  0  0  0  0  0  0  0
   15.0186   -0.5007   17.1693 H   0  0  0  0  0  0  0  0  0  0  0  0
   13.6650   -0.9479   21.7626 H   0  0  0  0  0  0  0  0  0  0  0  0
   15.0816   -1.7497   21.6328 H   0  0  0  0  0  0  0  0  0  0  0  0
   16.3049    0.4619   21.3223 H   0  0  0  0  0  0  0  0  0  0  0  0
   14.8883    1.2637   21.4520 H   0  0  0  0  0  0  0  0  0  0  0  0
   13.9591    0.0166   19.4881 H   0  0  0  0  0  0  0  0  0  0  0  0
  1 29  1  0  0  0  0
  2 29  1  0  0  0  0
  3 29  1  0  0  0  0
  4 22  2  0  0  0  0
  5 11  1  0  0  0  0
  5 23  2  0  0  0  0
  6 12  2  0  0  0  0
  6 13  1  0  0  0  0
  7 12  1  0  0  0  0
  7 14  2  0  0  0  0
  8 22  1  0  0  0  0
  8 23  1  0  0  0  0
  9 24  1  0  0  0  0
  9 25  1  0  0  0  0
 10 26  1  0  0  0  0
 10 27  2  0  0  0  0
 11 15  1  0  0  0  0
 11 16  1  0  0  0  0
 13 24  2  0  0  0  0
 14 24  1  0  0  0  0
 15 17  2  0  0  0  0
 16 29  1  0  0  0  0
 17 23  1  0  0  0  0
 18 19  1  0  0  0  0
 18 25  2  0  0  0  0
 19 26  2  0  0  0  0
 20 21  1  0  0  0  0
 20 28  1  0  0  0  0
 21 28  1  0  0  0  0
 22 27  1  0  0  0  0
 25 27  1  0  0  0  0
 26 28  1  0  0  0  0
  8 30  1  0  0  0  0
  9 31  1  0  0  0  0
 12 32  1  0  0  0  0
 13 33  1  0  0  0  0
 14 34  1  0  0  0  0
 15 35  1  0  0  0  0
 16 36  1  0  0  0  0
 16 37  1  0  0  0  0
 17 38  1  0  0  0  0
 18 39  1  0  0  0  0
 19 40  1  0  0  0  0
 20 41  1  0  0  0  0
 20 42  1  0  0  0  0
 21 43  1  0  0  0  0
 21 44  1  0  0  0  0
 28 45  1  0  0  0  0
M  END
> <pdb_id>
5SFK

> <uniprot_id>
Q9Y233

> <usmiles>
FC(F)(F)CN1N=C(NC(=O)c2nc(ccc2Nc3cncnc3)C4CC4)C=C1

$$$$
IL9_A_803
          07192416573D 1   1.00000     0.00000     0
            
 58 61  0  0  0  0            999 V2000
   17.0770   -2.9759   23.5373 O   0  0  0  0  0  0  0  0  0  0  0  0
   19.9794   -3.4777   19.4004 O   0  0  0  0  0  0  0  0  0  0  0  0
   15.9309   -5.4280   27.2257 O   0  0  0  0  0  0  0  0  0  0  0  0
   21.1280   -4.9740   23.2127 N   0  0  0  0  0  0  0  0  0  0  0  0
   18.9280   -1.7317   13.5740 N   0  0  0  0  0  0  0  0  0  0  0  0
   20.6070   -3.4559   13.8358 N   0  0  0  0  0  0  0  0  0  0  0  0
   16.8854   -1.5427   17.0897 N   0  0  0  0  0  0  0  0  0  0  0  0
   16.9934   -4.9533   24.7580 N   0  0  0  0  0  0  0  0  0  0  0  0
   18.9367   -2.8137   17.0654 N   0  0  0  0  0  0  0  0  0  0  0  0
   18.6636   -3.1599   21.2302 N   0  0  0  0  0  0  0  0  0  0  0  0
   16.8902   -1.7062   19.9014 N   0  0  0  0  0  0  0  0  0  0  0  0
   20.0821   -4.9980   24.0181 N   0  0  0  0  0  0  0  0  0  0  0  0
   20.1545   -5.5494   25.3543 C   0  0  0  0  0  0  0  0  0  0  0  0
   16.0253   -3.0978   26.8141 C   0  0  0  0  0  0  0  0  0  0  0  0
   13.8302   -4.3417   26.7477 C   0  0  0  0  0  0  0  0  0  0  0  0
   19.9029   -2.5509   13.1166 C   0  0  0  0  0  0  0  0  0  0  0  0
   20.8348   -4.2695   22.0752 C   0  0  0  0  0  0  0  0  0  0  0  0
   18.6084   -1.8192   14.8564 C   0  0  0  0  0  0  0  0  0  0  0  0
   20.2633   -3.5538   15.1279 C   0  0  0  0  0  0  0  0  0  0  0  0
   15.9313   -0.9621   17.8416 C   0  0  0  0  0  0  0  0  0  0  0  0
   15.5686   -4.7737   24.9754 C   0  0  0  0  0  0  0  0  0  0  0  0
   14.7007   -0.5256   21.5332 C   0  0  0  0  0  0  0  0  0  0  0  0
   15.2051    0.7517   20.9303 C   0  0  0  0  0  0  0  0  0  0  0  0
   17.6408   -4.0411   23.9248 C   0  0  0  0  0  0  0  0  0  0  0  0
   18.9508   -3.0023   19.9142 C   0  0  0  0  0  0  0  0  0  0  0  0
   17.8995   -2.1907   17.7281 C   0  0  0  0  0  0  0  0  0  0  0  0
   19.2777   -2.7242   15.7131 C   0  0  0  0  0  0  0  0  0  0  0  0
   19.4535   -3.8527   22.1498 C   0  0  0  0  0  0  0  0  0  0  0  0
   15.9023   -1.0552   19.2625 C   0  0  0  0  0  0  0  0  0  0  0  0
   17.8864   -2.2502   19.1667 C   0  0  0  0  0  0  0  0  0  0  0  0
   18.9951   -4.3247   23.4138 C   0  0  0  0  0  0  0  0  0  0  0  0
   14.8156   -0.4033   20.0275 C   0  0  0  0  0  0  0  0  0  0  0  0
   15.3208   -4.4033   26.4528 C   0  0  0  0  0  0  0  0  0  0  0  0
   15.4969   -6.3048   27.0186 H   0  0  0  0  0  0  0  0  0  0  0  0
   17.4924   -5.7043   25.1904 H   0  0  0  0  0  0  0  0  0  0  0  0
   19.5188   -3.4048   17.6238 H   0  0  0  0  0  0  0  0  0  0  0  0
   17.8184   -2.7467   21.5692 H   0  0  0  0  0  0  0  0  0  0  0  0
   19.2606   -5.4718   25.7958 H   0  0  0  0  0  0  0  0  0  0  0  0
   20.4188   -6.5125   25.3036 H   0  0  0  0  0  0  0  0  0  0  0  0
   20.8342   -5.0448   25.8867 H   0  0  0  0  0  0  0  0  0  0  0  0
   15.6245   -2.3466   26.2897 H   0  0  0  0  0  0  0  0  0  0  0  0
   15.9141   -2.9185   27.7916 H   0  0  0  0  0  0  0  0  0  0  0  0
   16.9987   -3.1734   26.5977 H   0  0  0  0  0  0  0  0  0  0  0  0
   13.4115   -3.6181   26.1990 H   0  0  0  0  0  0  0  0  0  0  0  0
   13.4087   -5.2194   26.5194 H   0  0  0  0  0  0  0  0  0  0  0  0
   13.6903   -4.1472   27.7185 H   0  0  0  0  0  0  0  0  0  0  0  0
   20.1269   -2.4802   12.1445 H   0  0  0  0  0  0  0  0  0  0  0  0
   21.4665   -4.0773   21.3242 H   0  0  0  0  0  0  0  0  0  0  0  0
   17.8833   -1.2369   15.2244 H   0  0  0  0  0  0  0  0  0  0  0  0
   20.7194   -4.2371   15.6980 H   0  0  0  0  0  0  0  0  0  0  0  0
   15.2110   -0.4424   17.3820 H   0  0  0  0  0  0  0  0  0  0  0  0
   15.0879   -5.6234   24.7589 H   0  0  0  0  0  0  0  0  0  0  0  0
   15.2306   -4.0400   24.3859 H   0  0  0  0  0  0  0  0  0  0  0  0
   13.7988   -0.5518   21.9643 H   0  0  0  0  0  0  0  0  0  0  0  0
   15.3273   -1.1223   22.0345 H   0  0  0  0  0  0  0  0  0  0  0  0
   16.1674    1.0050   21.0299 H   0  0  0  0  0  0  0  0  0  0  0  0
   14.6389    1.5754   20.9597 H   0  0  0  0  0  0  0  0  0  0  0  0
   13.9507   -0.2935   19.5377 H   0  0  0  0  0  0  0  0  0  0  0  0
  1 24  2  0  0  0  0
  2 25  2  0  0  0  0
  3 33  1  0  0  0  0
  4 12  1  0  0  0  0
  4 17  2  0  0  0  0
  5 16  2  0  0  0  0
  5 18  1  0  0  0  0
  6 16  1  0  0  0  0
  6 19  2  0  0  0  0
  7 20  1  0  0  0  0
  7 26  2  0  0  0  0
  8 21  1  0  0  0  0
  8 24  1  0  0  0  0
  9 26  1  0  0  0  0
  9 27  1  0  0  0  0
 10 25  1  0  0  0  0
 10 28  1  0  0  0  0
 11 29  1  0  0  0  0
 11 30  2  0  0  0  0
 12 13  1  0  0  0  0
 12 31  1  0  0  0  0
 14 33  1  0  0  0  0
 15 33  1  0  0  0  0
 17 28  1  0  0  0  0
 18 27  2  0  0  0  0
 19 27  1  0  0  0  0
 20 29  2  0  0  0  0
 21 33  1  0  0  0  0
 22 23  1  0  0  0  0
 22 32  1  0  0  0  0
 23 32  1  0  0  0  0
 24 31  1  0  0  0  0
 25 30  1  0  0  0  0
 26 30  1  0  0  0  0
 28 31  2  0  0  0  0
 29 32  1  0  0  0  0
  3 34  1  0  0  0  0
  8 35  1  0  0  0  0
  9 36  1  0  0  0  0
 10 37  1  0  0  0  0
 13 38  1  0  0  0  0
 13 39  1  0  0  0  0
 13 40  1  0  0  0  0
 14 41  1  0  0  0  0
 14 42  1  0  0  0  0
 14 43  1  0  0  0  0
 15 44  1  0  0  0  0
 15 45  1  0  0  0  0
 15 46  1  0  0  0  0
 16 47  1  0  0  0  0
 17 48  1  0  0  0  0
 18 49  1  0  0  0  0
 19 50  1  0  0  0  0
 20 51  1  0  0  0  0
 21 52  1  0  0  0  0
 21 53  1  0  0  0  0
 22 54  1  0  0  0  0
 22 55  1  0  0  0  0
 23 56  1  0  0  0  0
 23 57  1  0  0  0  0
 32 58  1  0  0  0  0
M  END
> <pdb_id>
5SFL

> <uniprot_id>
Q9Y233

> <usmiles>
O=C(NC1=C(N(N=C1)C)C(=O)NCC(O)(C)C)c2nc(cnc2Nc3cncnc3)C4CC4

$$$$
ILO_A_1765
          07192423083D 1   1.00000     0.00000     0
            
 27 26  0  0  0  0            999 V2000
    6.8518   17.4199   34.5962 O   0  0  0  0  0  0  0  0  0  0  0  0
    8.1131   17.6976   32.8645 O   0  0  0  0  0  0  0  0  0  0  0  0
    5.2066   11.7490   31.7474 N   0  0  0  0  0  0  0  0  0  0  0  0
    8.0652   15.1729   35.4802 N   0  0  0  0  0  0  0  0  0  0  0  0
    7.2450   12.3204   32.4646 N   0  0  0  0  0  0  0  0  0  0  0  0
    6.9578   11.0972   30.3640 C   0  0  0  0  0  0  0  0  0  0  0  0
    8.7346   12.4234   32.4489 C   0  0  0  0  0  0  0  0  0  0  0  0
    9.1368   13.3564   33.4307 C   0  0  0  0  0  0  0  0  0  0  0  0
    8.5303   14.7581   33.0846 C   0  0  0  0  0  0  0  0  0  0  0  0
    7.7926   17.0428   33.8986 C   0  0  0  0  0  0  0  0  0  0  0  0
    6.4756   11.7306   31.5454 C   0  0  0  0  0  0  0  0  0  0  0  0
    8.5861   15.7997   34.2430 C   0  0  1  0  0  0  0  0  0  0  0  0
    6.5972   16.9035   35.4138 H   0  0  0  0  0  0  0  0  0  0  0  0
    4.5891   11.3207   31.0877 H   0  0  0  0  0  0  0  0  0  0  0  0
    4.8367   12.1916   32.5642 H   0  0  0  0  0  0  0  0  0  0  0  0
    8.0976   15.8353   36.2286 H   0  0  0  0  0  0  0  0  0  0  0  0
    7.1198   14.8815   35.3337 H   0  0  0  0  0  0  0  0  0  0  0  0
    7.9556   11.1576   30.3370 H   0  0  0  0  0  0  0  0  0  0  0  0
    6.6818   10.1361   30.3647 H   0  0  0  0  0  0  0  0  0  0  0  0
    6.5744   11.5535   29.5610 H   0  0  0  0  0  0  0  0  0  0  0  0
    9.0408   12.7306   31.5479 H   0  0  0  0  0  0  0  0  0  0  0  0
    9.1354   11.5297   32.6504 H   0  0  0  0  0  0  0  0  0  0  0  0
   10.1349   13.4177   33.4454 H   0  0  0  0  0  0  0  0  0  0  0  0
    8.8078   13.0614   34.3277 H   0  0  0  0  0  0  0  0  0  0  0  0
    7.5723   14.6279   32.8293 H   0  0  0  0  0  0  0  0  0  0  0  0
    9.0349   15.1316   32.3062 H   0  0  0  0  0  0  0  0  0  0  0  0
    9.5397   16.0602   34.3934 H   0  0  0  0  0  0  0  0  0  0  0  0
  1 10  1  0  0  0  0
  2 10  2  0  0  0  0
  3 11  1  0  0  0  0
  4 12  1  0  0  0  0
  5  7  1  0  0  0  0
  5 11  2  0  0  0  0
  6 11  1  0  0  0  0
  7  8  1  0  0  0  0
  8  9  1  0  0  0  0
  9 12  1  0  0  0  0
 10 12  1  0  0  0  0
  1 13  1  0  0  0  0
  3 14  1  0  0  0  0
  3 15  1  0  0  0  0
  4 16  1  0  0  0  0
  4 17  1  0  0  0  0
  6 18  1  0  0  0  0
  6 19  1  0  0  0  0
  6 20  1  0  0  0  0
  7 21  1  0  0  0  0
  7 22  1  0  0  0  0
  8 23  1  0  0  0  0
  8 24  1  0  0  0  0
  9 25  1  0  0  0  0
  9 26  1  0  0  0  0
 12 27  1  0  0  0  0
M  END
> <pdb_id>
1ED6

> <uniprot_id>
P29473

> <usmiles>
O=C(O)[C@@H](N)CCCN=C(N)C

$$$$
ILS_A_803
          07192416573D 1   1.00000     0.00000     0
            
 49 52  0  0  0  0            999 V2000
   20.2502   -3.2604   18.2634 O   0  0  0  0  0  0  0  0  0  0  0  0
   17.0817   -2.1828   21.0177 O   0  0  0  0  0  0  0  0  0  0  0  0
   16.5412   -2.3391   16.5687 N   0  0  0  0  0  0  0  0  0  0  0  0
   19.3050   -3.2098   20.2667 N   0  0  0  0  0  0  0  0  0  0  0  0
   22.9354   -4.5890   22.2478 N   0  0  0  0  0  0  0  0  0  0  0  0
   17.7374   -2.8804   16.9203 N   0  0  0  0  0  0  0  0  0  0  0  0
   21.5331   -5.4985   23.7744 N   0  0  0  0  0  0  0  0  0  0  0  0
   15.8531   -0.3275   20.3163 N   0  0  0  0  0  0  0  0  0  0  0  0
   18.6138   -3.5560   15.9841 C   0  0  0  0  0  0  0  0  0  0  0  0
   20.2690   -5.9471   24.3714 C   0  0  0  0  0  0  0  0  0  0  0  0
   20.5904   -3.5238   20.8077 C   0  0  0  0  0  0  0  0  0  0  0  0
   16.0496   -1.7414   17.6591 C   0  0  0  0  0  0  0  0  0  0  0  0
   15.3953    0.4607   21.4845 C   0  0  0  0  0  0  0  0  0  0  0  0
   15.2855    0.7468   19.4425 C   0  0  0  0  0  0  0  0  0  0  0  0
   15.4038    1.6757   20.5992 C   0  0  0  0  0  0  0  0  0  0  0  0
   25.6486   -5.1091   24.7912 C   0  0  0  0  0  0  0  0  0  0  0  0
   24.7613   -5.6693   25.7617 C   0  0  0  0  0  0  0  0  0  0  0  0
   20.4659   -4.7768   21.5737 C   0  0  0  0  0  0  0  0  0  0  0  0
   25.1144   -4.7061   23.5736 C   0  0  0  0  0  0  0  0  0  0  0  0
   23.3801   -5.8619   25.5675 C   0  0  0  0  0  0  0  0  0  0  0  0
   19.2216   -3.0792   18.8808 C   0  0  0  0  0  0  0  0  0  0  0  0
   16.6488   -1.5035   20.0888 C   0  0  0  0  0  0  0  0  0  0  0  0
   21.6284   -4.9602   22.5100 C   0  0  0  0  0  0  0  0  0  0  0  0
   23.7039   -4.8956   23.3704 C   0  0  0  0  0  0  0  0  0  0  0  0
   22.8396   -5.4446   24.3187 C   0  0  0  0  0  0  0  0  0  0  0  0
   17.9578   -2.6596   18.1913 C   0  0  0  0  0  0  0  0  0  0  0  0
   16.9142   -1.9608   18.6783 C   0  0  0  0  0  0  0  0  0  0  0  0
   18.5044   -3.0895   20.8537 H   0  0  0  0  0  0  0  0  0  0  0  0
   19.4332   -3.8713   16.4627 H   0  0  0  0  0  0  0  0  0  0  0  0
   18.1368   -4.3403   15.5875 H   0  0  0  0  0  0  0  0  0  0  0  0
   18.8760   -2.9223   15.2563 H   0  0  0  0  0  0  0  0  0  0  0  0
   20.4414   -6.3001   25.2910 H   0  0  0  0  0  0  0  0  0  0  0  0
   19.6333   -5.1770   24.4237 H   0  0  0  0  0  0  0  0  0  0  0  0
   19.8714   -6.6698   23.8061 H   0  0  0  0  0  0  0  0  0  0  0  0
   20.8948   -2.7861   21.4103 H   0  0  0  0  0  0  0  0  0  0  0  0
   21.2510   -3.6430   20.0665 H   0  0  0  0  0  0  0  0  0  0  0  0
   15.1954   -1.2243   17.7126 H   0  0  0  0  0  0  0  0  0  0  0  0
   16.0456    0.4949   22.2434 H   0  0  0  0  0  0  0  0  0  0  0  0
   14.4925    0.2049   21.8304 H   0  0  0  0  0  0  0  0  0  0  0  0
   14.3479    0.5815   19.1365 H   0  0  0  0  0  0  0  0  0  0  0  0
   15.8551    0.9873   18.6565 H   0  0  0  0  0  0  0  0  0  0  0  0
   16.2517    2.2053   20.6248 H   0  0  0  0  0  0  0  0  0  0  0  0
   14.6239    2.2890   20.7240 H   0  0  0  0  0  0  0  0  0  0  0  0
   26.6250   -5.0102   24.9829 H   0  0  0  0  0  0  0  0  0  0  0  0
   25.1493   -5.9440   26.6415 H   0  0  0  0  0  0  0  0  0  0  0  0
   20.4356   -5.5470   20.9365 H   0  0  0  0  0  0  0  0  0  0  0  0
   19.6196   -4.7511   22.1058 H   0  0  0  0  0  0  0  0  0  0  0  0
   25.6901   -4.2991   22.8644 H   0  0  0  0  0  0  0  0  0  0  0  0
   22.8051   -6.2732   26.2748 H   0  0  0  0  0  0  0  0  0  0  0  0
  1 21  2  0  0  0  0
  2 22  2  0  0  0  0
  3  6  1  0  0  0  0
  3 12  2  0  0  0  0
  4 11  1  0  0  0  0
  4 21  1  0  0  0  0
  5 23  2  0  0  0  0
  5 24  1  0  0  0  0
  6  9  1  0  0  0  0
  6 26  1  0  0  0  0
  7 10  1  0  0  0  0
  7 23  1  0  0  0  0
  7 25  1  0  0  0  0
  8 13  1  0  0  0  0
  8 14  1  0  0  0  0
  8 22  1  0  0  0  0
 11 18  1  0  0  0  0
 12 27  1  0  0  0  0
 13 15  1  0  0  0  0
 14 15  1  0  0  0  0
 16 17  2  0  0  0  0
 16 19  1  0  0  0  0
 17 20  1  0  0  0  0
 18 23  1  0  0  0  0
 19 24  2  0  0  0  0
 20 25  2  0  0  0  0
 21 26  1  0  0  0  0
 22 27  1  0  0  0  0
 24 25  1  0  0  0  0
 26 27  2  0  0  0  0
  4 28  1  0  0  0  0
  9 29  1  0  0  0  0
  9 30  1  0  0  0  0
  9 31  1  0  0  0  0
 10 32  1  0  0  0  0
 10 33  1  0  0  0  0
 10 34  1  0  0  0  0
 11 35  1  0  0  0  0
 11 36  1  0  0  0  0
 12 37  1  0  0  0  0
 13 38  1  0  0  0  0
 13 39  1  0  0  0  0
 14 40  1  0  0  0  0
 14 41  1  0  0  0  0
 15 42  1  0  0  0  0
 15 43  1  0  0  0  0
 16 44  1  0  0  0  0
 17 45  1  0  0  0  0
 18 46  1  0  0  0  0
 18 47  1  0  0  0  0
 19 48  1  0  0  0  0
 20 49  1  0  0  0  0
M  END
> <pdb_id>
5SFN

> <uniprot_id>
Q9Y233

> <usmiles>
O=C(N1CCC1)C2=C(N(N=C2)C)C(=O)NCCC3=Nc4c(N3C)cccc4

$$$$
IM5_B_301
          07202414483D 1   1.00000     0.00000     0
            
 37 39  0  0  0  0            999 V2000
   -9.4182   -0.4044  -31.7521 O   0  0  0  0  0  0  0  0  0  0  0  0
  -16.2920    1.9314  -31.2180 O   0  0  0  0  0  0  0  0  0  0  0  0
   -7.8732    3.1432  -34.5701 O   0  0  0  0  0  0  0  0  0  0  0  0
  -14.2455    5.8199  -32.3427 N   0  0  0  0  0  0  0  0  0  0  0  0
  -14.5533    0.5226  -33.1961 N   0  0  0  0  0  0  0  0  0  0  0  0
  -15.3119    3.8380  -31.7515 N   0  0  0  0  0  0  0  0  0  0  0  0
  -13.5488    3.8602  -33.3769 N   0  0  0  0  0  0  0  0  0  0  0  0
  -10.5522    2.0019  -34.8512 N   0  0  0  0  0  0  0  0  0  0  0  0
   -9.1093    1.0023  -31.8640 C   0  0  0  0  0  0  0  0  0  0  0  0
  -13.5848    0.4337  -34.1456 C   0  0  0  0  0  0  0  0  0  0  0  0
  -10.2441    3.1372  -33.9796 C   0  0  0  0  0  0  0  0  0  0  0  0
  -10.1067    0.7947  -34.1492 C   0  0  0  0  0  0  0  0  0  0  0  0
  -11.9562    2.0141  -35.3532 C   0  0  0  0  0  0  0  0  0  0  0  0
  -14.2922    4.5252  -32.4963 C   0  0  0  0  0  0  0  0  0  0  0  0
  -15.4300    2.4735  -31.9284 C   0  0  0  0  0  0  0  0  0  0  0  0
   -8.8408    2.7681  -33.5178 C   0  0  1  0  0  0  0  0  0  0  0  0
  -14.6555    1.8257  -32.8232 C   0  0  0  0  0  0  0  0  0  0  0  0
  -13.6868    2.5289  -33.5385 C   0  0  0  0  0  0  0  0  0  0  0  0
   -8.8864    1.2538  -33.3251 C   0  0  1  0  0  0  0  0  0  0  0  0
  -13.0480    1.6627  -34.3296 C   0  0  0  0  0  0  0  0  0  0  0  0
   -9.5784   -0.6352  -30.7924 H   0  0  0  0  0  0  0  0  0  0  0  0
   -6.9487    2.9036  -34.2736 H   0  0  0  0  0  0  0  0  0  0  0  0
  -13.5591    6.3571  -32.8329 H   0  0  0  0  0  0  0  0  0  0  0  0
  -14.8960    6.2751  -31.7348 H   0  0  0  0  0  0  0  0  0  0  0  0
  -15.0950   -0.2367  -32.8355 H   0  0  0  0  0  0  0  0  0  0  0  0
  -12.8771    4.3558  -33.9276 H   0  0  0  0  0  0  0  0  0  0  0  0
   -8.2842    1.2206  -31.3428 H   0  0  0  0  0  0  0  0  0  0  0  0
   -9.8720    1.5546  -31.5275 H   0  0  0  0  0  0  0  0  0  0  0  0
  -13.3142   -0.3998  -34.6274 H   0  0  0  0  0  0  0  0  0  0  0  0
  -10.8813    3.1950  -33.2111 H   0  0  0  0  0  0  0  0  0  0  0  0
  -10.2506    4.0008  -34.4837 H   0  0  0  0  0  0  0  0  0  0  0  0
   -9.8451    0.0831  -34.8013 H   0  0  0  0  0  0  0  0  0  0  0  0
  -10.8280    0.4483  -33.5494 H   0  0  0  0  0  0  0  0  0  0  0  0
  -12.0177    1.3549  -36.1027 H   0  0  0  0  0  0  0  0  0  0  0  0
  -12.1479    2.9322  -35.7002 H   0  0  0  0  0  0  0  0  0  0  0  0
   -8.6208    3.2267  -32.6568 H   0  0  0  0  0  0  0  0  0  0  0  0
   -8.0448    0.8195  -33.6460 H   0  0  0  0  0  0  0  0  0  0  0  0
  1  9  1  0  0  0  0
  2 15  2  0  0  0  0
  3 16  1  0  0  0  0
  4 14  1  0  0  0  0
  5 10  1  0  0  0  0
  5 17  1  0  0  0  0
  6 14  2  0  0  0  0
  6 15  1  0  0  0  0
  7 14  1  0  0  0  0
  7 18  1  0  0  0  0
  8 11  1  0  0  0  0
  8 12  1  0  0  0  0
  8 13  1  0  0  0  0
  9 19  1  0  0  0  0
 10 20  2  0  0  0  0
 11 16  1  0  0  0  0
 12 19  1  0  0  0  0
 13 20  1  0  0  0  0
 15 17  1  0  0  0  0
 16 19  1  0  0  0  0
 17 18  2  0  0  0  0
 18 20  1  0  0  0  0
  1 21  1  0  0  0  0
  3 22  1  0  0  0  0
  4 23  1  0  0  0  0
  4 24  1  0  0  0  0
  5 25  1  0  0  0  0
  7 26  1  0  0  0  0
  9 27  1  0  0  0  0
  9 28  1  0  0  0  0
 10 29  1  0  0  0  0
 11 30  1  0  0  0  0
 11 31  1  0  0  0  0
 12 32  1  0  0  0  0
 12 33  1  0  0  0  0
 13 34  1  0  0  0  0
 13 35  1  0  0  0  0
 16 36  1  0  0  0  0
 19 37  1  0  0  0  0
M  END
> <pdb_id>
4EAR

> <uniprot_id>
P00491

> <usmiles>
O=C1N=C(NC2=C1NC=C2CN3C[C@H](O)[C@@H](CO)C3)N

$$$$
IM5_B_302
          07202414493D 1   1.00000     0.00000     0
            
 37 39  0  0  0  0            999 V2000
   15.4709  -30.8344  -51.7351 O   0  0  0  0  0  0  0  0  0  0  0  0
   21.0072  -26.9283  -49.2770 O   0  0  0  0  0  0  0  0  0  0  0  0
   13.8348  -32.1393  -47.6056 O   0  0  0  0  0  0  0  0  0  0  0  0
   18.3664  -26.9727  -45.5219 N   0  0  0  0  0  0  0  0  0  0  0  0
   20.3439  -29.7252  -49.6410 N   0  0  0  0  0  0  0  0  0  0  0  0
   19.7230  -26.8716  -47.4153 N   0  0  0  0  0  0  0  0  0  0  0  0
   18.6231  -28.8841  -46.7809 N   0  0  0  0  0  0  0  0  0  0  0  0
   16.8344  -31.9717  -47.9301 N   0  0  0  0  0  0  0  0  0  0  0  0
   14.7471  -30.6208  -50.5321 C   0  0  0  0  0  0  0  0  0  0  0  0
   19.7930  -30.9089  -49.3699 C   0  0  0  0  0  0  0  0  0  0  0  0
   15.9678  -30.9187  -47.3990 C   0  0  0  0  0  0  0  0  0  0  0  0
   16.6020  -32.0027  -49.3778 C   0  0  0  0  0  0  0  0  0  0  0  0
   18.2364  -31.8736  -47.5689 C   0  0  0  0  0  0  0  0  0  0  0  0
   18.8943  -27.5850  -46.5564 C   0  0  0  0  0  0  0  0  0  0  0  0
   20.2740  -27.5513  -48.5051 C   0  0  0  0  0  0  0  0  0  0  0  0
   14.6376  -31.1553  -48.2038 C   0  0  1  0  0  0  0  0  0  0  0  0
   19.9729  -28.8542  -48.6968 C   0  0  0  0  0  0  0  0  0  0  0  0
   19.1671  -29.5084  -47.8354 C   0  0  0  0  0  0  0  0  0  0  0  0
   15.0596  -31.7216  -49.5219 C   0  0  1  0  0  0  0  0  0  0  0  0
   19.0609  -30.7585  -48.2653 C   0  0  0  0  0  0  0  0  0  0  0  0
   15.2566  -30.1067  -52.3867 H   0  0  0  0  0  0  0  0  0  0  0  0
   13.0008  -32.2616  -48.1438 H   0  0  0  0  0  0  0  0  0  0  0  0
   17.7686  -27.4735  -44.8960 H   0  0  0  0  0  0  0  0  0  0  0  0
   18.5622  -26.0056  -45.3599 H   0  0  0  0  0  0  0  0  0  0  0  0
   20.9362  -29.5225  -50.4208 H   0  0  0  0  0  0  0  0  0  0  0  0
   19.9184  -25.9035  -47.2583 H   0  0  0  0  0  0  0  0  0  0  0  0
   13.7672  -30.6250  -50.7318 H   0  0  0  0  0  0  0  0  0  0  0  0
   15.0046  -29.7354  -50.1452 H   0  0  0  0  0  0  0  0  0  0  0  0
   19.9074  -31.7514  -49.8962 H   0  0  0  0  0  0  0  0  0  0  0  0
   16.3459  -30.0108  -47.5803 H   0  0  0  0  0  0  0  0  0  0  0  0
   15.8224  -31.0289  -46.4158 H   0  0  0  0  0  0  0  0  0  0  0  0
   16.8371  -32.8979  -49.7565 H   0  0  0  0  0  0  0  0  0  0  0  0
   17.1370  -31.2948  -49.8389 H   0  0  0  0  0  0  0  0  0  0  0  0
   18.6671  -32.7494  -47.7867 H   0  0  0  0  0  0  0  0  0  0  0  0
   18.2845  -31.7146  -46.5828 H   0  0  0  0  0  0  0  0  0  0  0  0
   14.1318  -30.3010  -48.3236 H   0  0  0  0  0  0  0  0  0  0  0  0
   14.5572  -32.5600  -49.7332 H   0  0  0  0  0  0  0  0  0  0  0  0
  1  9  1  0  0  0  0
  2 15  2  0  0  0  0
  3 16  1  0  0  0  0
  4 14  1  0  0  0  0
  5 10  1  0  0  0  0
  5 17  1  0  0  0  0
  6 14  1  0  0  0  0
  6 15  1  0  0  0  0
  7 14  2  0  0  0  0
  7 18  1  0  0  0  0
  8 11  1  0  0  0  0
  8 12  1  0  0  0  0
  8 13  1  0  0  0  0
  9 19  1  0  0  0  0
 10 20  2  0  0  0  0
 11 16  1  0  0  0  0
 12 19  1  0  0  0  0
 13 20  1  0  0  0  0
 15 17  1  0  0  0  0
 16 19  1  0  0  0  0
 17 18  2  0  0  0  0
 18 20  1  0  0  0  0
  1 21  1  0  0  0  0
  3 22  1  0  0  0  0
  4 23  1  0  0  0  0
  4 24  1  0  0  0  0
  5 25  1  0  0  0  0
  6 26  1  0  0  0  0
  9 27  1  0  0  0  0
  9 28  1  0  0  0  0
 10 29  1  0  0  0  0
 11 30  1  0  0  0  0
 11 31  1  0  0  0  0
 12 32  1  0  0  0  0
 12 33  1  0  0  0  0
 13 34  1  0  0  0  0
 13 35  1  0  0  0  0
 16 36  1  0  0  0  0
 19 37  1  0  0  0  0
M  END
> <pdb_id>
4EB8

> <uniprot_id>
P00491

> <usmiles>
O=C1NC(=NC2=C1NC=C2CN3C[C@H](O)[C@@H](CO)C3)N

$$$$
IM5_B_306
          07202400583D 1   1.00000     0.00000     0
            
 37 39  0  0  0  0            999 V2000
   18.1922   11.5583   59.5710 O   0  0  0  0  0  0  0  0  0  0  0  0
   15.3586    8.9273   53.5134 O   0  0  0  0  0  0  0  0  0  0  0  0
   14.0637   12.0424   62.0643 O   0  0  0  0  0  0  0  0  0  0  0  0
   11.9062    7.9388   56.4812 N   0  0  0  0  0  0  0  0  0  0  0  0
   15.6676   11.5998   55.0284 N   0  0  0  0  0  0  0  0  0  0  0  0
   13.6572    8.4519   54.9706 N   0  0  0  0  0  0  0  0  0  0  0  0
   13.0263    9.9483   56.7186 N   0  0  0  0  0  0  0  0  0  0  0  0
   14.2186   12.6443   59.3263 N   0  0  0  0  0  0  0  0  0  0  0  0
   17.0700   10.9301   60.1889 C   0  0  0  0  0  0  0  0  0  0  0  0
   15.3956   12.5387   55.9819 C   0  0  0  0  0  0  0  0  0  0  0  0
   13.9294   11.2939   59.8158 C   0  0  0  0  0  0  0  0  0  0  0  0
   15.6616   12.8883   59.5368 C   0  0  0  0  0  0  0  0  0  0  0  0
   13.7441   12.9203   57.9596 C   0  0  0  0  0  0  0  0  0  0  0  0
   12.8768    8.7800   56.0387 C   0  0  0  0  0  0  0  0  0  0  0  0
   14.6399    9.2508   54.4916 C   0  0  0  0  0  0  0  0  0  0  0  0
   14.7530   11.2698   61.0744 C   0  0  1  0  0  0  0  0  0  0  0  0
   14.8507   10.5492   55.1642 C   0  0  0  0  0  0  0  0  0  0  0  0
   13.9689   10.8186   56.2986 C   0  0  0  0  0  0  0  0  0  0  0  0
   16.0474   11.9438   60.6673 C   0  0  1  0  0  0  0  0  0  0  0  0
   14.3575   12.1341   56.8234 C   0  0  0  0  0  0  0  0  0  0  0  0
   18.8414   10.8598   59.2702 H   0  0  0  0  0  0  0  0  0  0  0  0
   14.5914   12.0429   62.9137 H   0  0  0  0  0  0  0  0  0  0  0  0
   11.3424    8.1949   57.2664 H   0  0  0  0  0  0  0  0  0  0  0  0
   11.7556    7.0635   56.0218 H   0  0  0  0  0  0  0  0  0  0  0  0
   16.3765   11.6853   54.3283 H   0  0  0  0  0  0  0  0  0  0  0  0
   13.4957    7.5755   54.5170 H   0  0  0  0  0  0  0  0  0  0  0  0
   17.3887   10.3975   60.9730 H   0  0  0  0  0  0  0  0  0  0  0  0
   16.6353   10.3202   59.5262 H   0  0  0  0  0  0  0  0  0  0  0  0
   15.8804   13.4092   56.0670 H   0  0  0  0  0  0  0  0  0  0  0  0
   14.2286   10.5948   59.1664 H   0  0  0  0  0  0  0  0  0  0  0  0
   12.9559   11.1732   60.0104 H   0  0  0  0  0  0  0  0  0  0  0  0
   15.8245   13.8393   59.7997 H   0  0  0  0  0  0  0  0  0  0  0  0
   16.1802   12.6780   58.7081 H   0  0  0  0  0  0  0  0  0  0  0  0
   13.9127   13.8888   57.7762 H   0  0  0  0  0  0  0  0  0  0  0  0
   12.7598   12.7447   57.9454 H   0  0  0  0  0  0  0  0  0  0  0  0
   14.9123   10.3338   61.3882 H   0  0  0  0  0  0  0  0  0  0  0  0
   16.4174   12.4651   61.4363 H   0  0  0  0  0  0  0  0  0  0  0  0
  1  9  1  0  0  0  0
  2 15  2  0  0  0  0
  3 16  1  0  0  0  0
  4 14  1  0  0  0  0
  5 10  1  0  0  0  0
  5 17  1  0  0  0  0
  6 14  1  0  0  0  0
  6 15  1  0  0  0  0
  7 14  2  0  0  0  0
  7 18  1  0  0  0  0
  8 11  1  0  0  0  0
  8 12  1  0  0  0  0
  8 13  1  0  0  0  0
  9 19  1  0  0  0  0
 10 20  2  0  0  0  0
 11 16  1  0  0  0  0
 12 19  1  0  0  0  0
 13 20  1  0  0  0  0
 15 17  1  0  0  0  0
 16 19  1  0  0  0  0
 17 18  2  0  0  0  0
 18 20  1  0  0  0  0
  1 21  1  0  0  0  0
  3 22  1  0  0  0  0
  4 23  1  0  0  0  0
  4 24  1  0  0  0  0
  5 25  1  0  0  0  0
  6 26  1  0  0  0  0
  9 27  1  0  0  0  0
  9 28  1  0  0  0  0
 10 29  1  0  0  0  0
 11 30  1  0  0  0  0
 11 31  1  0  0  0  0
 12 32  1  0  0  0  0
 12 33  1  0  0  0  0
 13 34  1  0  0  0  0
 13 35  1  0  0  0  0
 16 36  1  0  0  0  0
 19 37  1  0  0  0  0
M  END
> <pdb_id>
5UGF

> <uniprot_id>
P00491

> <usmiles>
O=C1NC(=NC2=C1NC=C2CN3C[C@H](O)[C@@H](CO)C3)N

$$$$
IM5_C_301
          07202414483D 1   1.00000     0.00000     0
            
 37 39  0  0  0  0            999 V2000
   -9.5430   -0.3760  -31.7880 O   0  0  0  0  0  0  0  0  0  0  0  0
  -16.2690    1.9220  -31.2120 O   0  0  0  0  0  0  0  0  0  0  0  0
   -7.8540    3.2220  -34.5580 O   0  0  0  0  0  0  0  0  0  0  0  0
  -14.2100    5.8740  -32.3620 N   0  0  0  0  0  0  0  0  0  0  0  0
  -14.4670    0.5990  -33.1720 N   0  0  0  0  0  0  0  0  0  0  0  0
  -15.2780    3.8540  -31.7870 N   0  0  0  0  0  0  0  0  0  0  0  0
  -13.5150    3.9010  -33.3870 N   0  0  0  0  0  0  0  0  0  0  0  0
  -10.4830    2.1170  -34.8900 N   0  0  0  0  0  0  0  0  0  0  0  0
   -8.9800    0.9220  -31.9480 C   0  0  0  0  0  0  0  0  0  0  0  0
  -13.5210    0.5000  -34.1170 C   0  0  0  0  0  0  0  0  0  0  0  0
  -10.2480    3.1800  -33.9380 C   0  0  0  0  0  0  0  0  0  0  0  0
  -10.1040    0.8690  -34.2240 C   0  0  0  0  0  0  0  0  0  0  0  0
  -11.9220    2.0020  -35.3410 C   0  0  0  0  0  0  0  0  0  0  0  0
  -14.3070    4.5630  -32.5160 C   0  0  0  0  0  0  0  0  0  0  0  0
  -15.4080    2.5050  -31.9260 C   0  0  0  0  0  0  0  0  0  0  0  0
   -8.7960    2.7760  -33.5340 C   0  0  1  0  0  0  0  0  0  0  0  0
  -14.5760    1.8720  -32.7970 C   0  0  0  0  0  0  0  0  0  0  0  0
  -13.6650    2.5780  -33.5360 C   0  0  0  0  0  0  0  0  0  0  0  0
   -8.8670    1.2630  -33.4100 C   0  0  1  0  0  0  0  0  0  0  0  0
  -13.0120    1.7110  -34.3160 C   0  0  0  0  0  0  0  0  0  0  0  0
   -9.6130   -0.5912  -30.8139 H   0  0  0  0  0  0  0  0  0  0  0  0
   -6.9257    2.9604  -34.2936 H   0  0  0  0  0  0  0  0  0  0  0  0
  -13.5230    6.3883  -32.8754 H   0  0  0  0  0  0  0  0  0  0  0  0
  -14.8237    6.3502  -31.7322 H   0  0  0  0  0  0  0  0  0  0  0  0
  -15.0045   -0.1613  -32.8073 H   0  0  0  0  0  0  0  0  0  0  0  0
  -15.8806    4.3460  -31.1587 H   0  0  0  0  0  0  0  0  0  0  0  0
   -8.0703    0.9409  -31.5331 H   0  0  0  0  0  0  0  0  0  0  0  0
   -9.5664    1.5944  -31.4963 H   0  0  0  0  0  0  0  0  0  0  0  0
  -13.2468   -0.3379  -34.5890 H   0  0  0  0  0  0  0  0  0  0  0  0
  -10.8816    3.1455  -33.1651 H   0  0  0  0  0  0  0  0  0  0  0  0
  -10.2873    4.0852  -34.3611 H   0  0  0  0  0  0  0  0  0  0  0  0
   -9.8813    0.1597  -34.8928 H   0  0  0  0  0  0  0  0  0  0  0  0
  -10.8375    0.5452  -33.6264 H   0  0  0  0  0  0  0  0  0  0  0  0
  -11.9562    1.2667  -36.0178 H   0  0  0  0  0  0  0  0  0  0  0  0
  -12.1592    2.8692  -35.7787 H   0  0  0  0  0  0  0  0  0  0  0  0
   -8.5602    3.1818  -32.6510 H   0  0  0  0  0  0  0  0  0  0  0  0
   -8.0473    0.8445  -33.8010 H   0  0  0  0  0  0  0  0  0  0  0  0
  1  9  1  0  0  0  0
  2 15  2  0  0  0  0
  3 16  1  0  0  0  0
  4 14  1  0  0  0  0
  5 10  1  0  0  0  0
  5 17  1  0  0  0  0
  6 14  1  0  0  0  0
  6 15  1  0  0  0  0
  7 14  2  0  0  0  0
  7 18  1  0  0  0  0
  8 11  1  0  0  0  0
  8 12  1  0  0  0  0
  8 13  1  0  0  0  0
  9 19  1  0  0  0  0
 10 20  2  0  0  0  0
 11 16  1  0  0  0  0
 12 19  1  0  0  0  0
 13 20  1  0  0  0  0
 15 17  1  0  0  0  0
 16 19  1  0  0  0  0
 17 18  2  0  0  0  0
 18 20  1  0  0  0  0
  1 21  1  0  0  0  0
  3 22  1  0  0  0  0
  4 23  1  0  0  0  0
  4 24  1  0  0  0  0
  5 25  1  0  0  0  0
  6 26  1  0  0  0  0
  9 27  1  0  0  0  0
  9 28  1  0  0  0  0
 10 29  1  0  0  0  0
 11 30  1  0  0  0  0
 11 31  1  0  0  0  0
 12 32  1  0  0  0  0
 12 33  1  0  0  0  0
 13 34  1  0  0  0  0
 13 35  1  0  0  0  0
 16 36  1  0  0  0  0
 19 37  1  0  0  0  0
M  END
> <pdb_id>
4EAR

> <uniprot_id>
P00491

> <usmiles>
O=C1NC(=NC2=C1NC=C2CN3C[C@H](O)[C@@H](CO)C3)N

$$$$
IM5_C_302
          07202414493D 1   1.00000     0.00000     0
            
 37 39  0  0  0  0            999 V2000
   15.7160  -30.9090  -51.9110 O   0  0  0  0  0  0  0  0  0  0  0  0
   21.0930  -27.0310  -49.2900 O   0  0  0  0  0  0  0  0  0  0  0  0
   13.8010  -32.0130  -47.6910 O   0  0  0  0  0  0  0  0  0  0  0  0
   18.2900  -26.8790  -45.5920 N   0  0  0  0  0  0  0  0  0  0  0  0
   20.3410  -29.7850  -49.5970 N   0  0  0  0  0  0  0  0  0  0  0  0
   19.7400  -26.8670  -47.4740 N   0  0  0  0  0  0  0  0  0  0  0  0
   18.5530  -28.7990  -46.8160 N   0  0  0  0  0  0  0  0  0  0  0  0
   16.6580  -31.9110  -47.9940 N   0  0  0  0  0  0  0  0  0  0  0  0
   14.9180  -30.5430  -50.7800 C   0  0  0  0  0  0  0  0  0  0  0  0
   19.7320  -30.9320  -49.3060 C   0  0  0  0  0  0  0  0  0  0  0  0
   15.8880  -30.6950  -47.7220 C   0  0  0  0  0  0  0  0  0  0  0  0
   16.4910  -32.0620  -49.4560 C   0  0  0  0  0  0  0  0  0  0  0  0
   18.0620  -31.7990  -47.5530 C   0  0  0  0  0  0  0  0  0  0  0  0
   18.8440  -27.5210  -46.6100 C   0  0  0  0  0  0  0  0  0  0  0  0
   20.2940  -27.5900  -48.5380 C   0  0  0  0  0  0  0  0  0  0  0  0
   14.5350  -31.0360  -48.4300 C   0  0  1  0  0  0  0  0  0  0  0  0
   19.9620  -28.8780  -48.7020 C   0  0  0  0  0  0  0  0  0  0  0  0
   19.0970  -29.4700  -47.8490 C   0  0  0  0  0  0  0  0  0  0  0  0
   14.9970  -31.6480  -49.7210 C   0  0  1  0  0  0  0  0  0  0  0  0
   18.9540  -30.7310  -48.2490 C   0  0  0  0  0  0  0  0  0  0  0  0
   15.6648  -30.1883  -52.6023 H   0  0  0  0  0  0  0  0  0  0  0  0
   12.9427  -32.2128  -48.1636 H   0  0  0  0  0  0  0  0  0  0  0  0
   17.6545  -27.3570  -44.9857 H   0  0  0  0  0  0  0  0  0  0  0  0
   18.5074  -25.9165  -45.4300 H   0  0  0  0  0  0  0  0  0  0  0  0
   20.9734  -29.6321  -50.3564 H   0  0  0  0  0  0  0  0  0  0  0  0
   17.9231  -29.2689  -46.1976 H   0  0  0  0  0  0  0  0  0  0  0  0
   13.9676  -30.4236  -51.0671 H   0  0  0  0  0  0  0  0  0  0  0  0
   15.2598  -29.6861  -50.3940 H   0  0  0  0  0  0  0  0  0  0  0  0
   19.8414  -31.7956  -49.7982 H   0  0  0  0  0  0  0  0  0  0  0  0
   16.3205  -29.8883  -48.1248 H   0  0  0  0  0  0  0  0  0  0  0  0
   15.7630  -30.5510  -46.7403 H   0  0  0  0  0  0  0  0  0  0  0  0
   16.6511  -33.0089  -49.7349 H   0  0  0  0  0  0  0  0  0  0  0  0
   17.1185  -31.4588  -49.9484 H   0  0  0  0  0  0  0  0  0  0  0  0
   18.4931  -32.6895  -47.6987 H   0  0  0  0  0  0  0  0  0  0  0  0
   18.0524  -31.5893  -46.5753 H   0  0  0  0  0  0  0  0  0  0  0  0
   13.9893  -30.2135  -48.5904 H   0  0  0  0  0  0  0  0  0  0  0  0
   14.4374  -32.4375  -49.9730 H   0  0  0  0  0  0  0  0  0  0  0  0
  1  9  1  0  0  0  0
  2 15  2  0  0  0  0
  3 16  1  0  0  0  0
  4 14  1  0  0  0  0
  5 10  1  0  0  0  0
  5 17  1  0  0  0  0
  6 14  2  0  0  0  0
  6 15  1  0  0  0  0
  7 14  1  0  0  0  0
  7 18  1  0  0  0  0
  8 11  1  0  0  0  0
  8 12  1  0  0  0  0
  8 13  1  0  0  0  0
  9 19  1  0  0  0  0
 10 20  2  0  0  0  0
 11 16  1  0  0  0  0
 12 19  1  0  0  0  0
 13 20  1  0  0  0  0
 15 17  1  0  0  0  0
 16 19  1  0  0  0  0
 17 18  2  0  0  0  0
 18 20  1  0  0  0  0
  1 21  1  0  0  0  0
  3 22  1  0  0  0  0
  4 23  1  0  0  0  0
  4 24  1  0  0  0  0
  5 25  1  0  0  0  0
  7 26  1  0  0  0  0
  9 27  1  0  0  0  0
  9 28  1  0  0  0  0
 10 29  1  0  0  0  0
 11 30  1  0  0  0  0
 11 31  1  0  0  0  0
 12 32  1  0  0  0  0
 12 33  1  0  0  0  0
 13 34  1  0  0  0  0
 13 35  1  0  0  0  0
 16 36  1  0  0  0  0
 19 37  1  0  0  0  0
M  END
> <pdb_id>
4EB8

> <uniprot_id>
P00491

> <usmiles>
O=C1N=C(NC2=C1NC=C2CN3C[C@H](O)[C@@H](CO)C3)N

$$$$
IM5_F_501
          07202403123D 1   1.00000     0.00000     0
            
 37 39  0  0  0  0            999 V2000
   34.1323   26.4383   63.8446 O   0  0  0  0  0  0  0  0  0  0  0  0
   33.9326   19.7282   63.3890 O   0  0  0  0  0  0  0  0  0  0  0  0
   30.7915   27.9040   66.9992 O   0  0  0  0  0  0  0  0  0  0  0  0
   33.2960   20.8567   67.8031 N   0  0  0  0  0  0  0  0  0  0  0  0
   31.8848   21.9713   62.6657 N   0  0  0  0  0  0  0  0  0  0  0  0
   33.5904   20.3341   65.5610 N   0  0  0  0  0  0  0  0  0  0  0  0
   32.0824   22.0794   66.2040 N   0  0  0  0  0  0  0  0  0  0  0  0
   30.4369   25.6085   65.2301 N   0  0  0  0  0  0  0  0  0  0  0  0
   33.7176   26.5850   65.2090 C   0  0  0  0  0  0  0  0  0  0  0  0
   31.0066   22.9872   62.8849 C   0  0  0  0  0  0  0  0  0  0  0  0
   30.9827   25.5589   66.5912 C   0  0  0  0  0  0  0  0  0  0  0  0
   31.4267   26.2579   64.3453 C   0  0  0  0  0  0  0  0  0  0  0  0
   29.9558   24.2793   64.8517 C   0  0  0  0  0  0  0  0  0  0  0  0
   32.9799   21.0911   66.5095 C   0  0  0  0  0  0  0  0  0  0  0  0
   33.3551   20.4633   64.2346 C   0  0  0  0  0  0  0  0  0  0  0  0
   31.7318   26.8779   66.6790 C   0  0  1  0  0  0  0  0  0  0  0  0
   32.3813   21.5002   63.8207 C   0  0  0  0  0  0  0  0  0  0  0  0
   31.7746   22.2920   64.9003 C   0  0  0  0  0  0  0  0  0  0  0  0
   32.2891   27.0927   65.2808 C   0  0  1  0  0  0  0  0  0  0  0  0
   30.8819   23.2642   64.2401 C   0  0  0  0  0  0  0  0  0  0  0  0
   35.0742   26.1035   63.8166 H   0  0  0  0  0  0  0  0  0  0  0  0
   31.2651   28.7825   67.0618 H   0  0  0  0  0  0  0  0  0  0  0  0
   32.8662   21.3947   68.5282 H   0  0  0  0  0  0  0  0  0  0  0  0
   33.9596   20.1454   68.0346 H   0  0  0  0  0  0  0  0  0  0  0  0
   32.1287   21.6209   61.7615 H   0  0  0  0  0  0  0  0  0  0  0  0
   34.2497   19.6438   65.8591 H   0  0  0  0  0  0  0  0  0  0  0  0
   34.3215   27.2366   65.6679 H   0  0  0  0  0  0  0  0  0  0  0  0
   33.7746   25.6980   65.6671 H   0  0  0  0  0  0  0  0  0  0  0  0
   30.5139   23.4724   62.1625 H   0  0  0  0  0  0  0  0  0  0  0  0
   31.6009   24.7815   66.7068 H   0  0  0  0  0  0  0  0  0  0  0  0
   30.2534   25.5091   67.2736 H   0  0  0  0  0  0  0  0  0  0  0  0
   30.9702   26.8401   63.6725 H   0  0  0  0  0  0  0  0  0  0  0  0
   31.9804   25.5727   63.8721 H   0  0  0  0  0  0  0  0  0  0  0  0
   29.2161   24.4215   64.1940 H   0  0  0  0  0  0  0  0  0  0  0  0
   29.5874   23.8632   65.6830 H   0  0  0  0  0  0  0  0  0  0  0  0
   32.4646   26.8336   67.3580 H   0  0  0  0  0  0  0  0  0  0  0  0
   32.2464   28.0597   65.0297 H   0  0  0  0  0  0  0  0  0  0  0  0
  1  9  1  0  0  0  0
  2 15  2  0  0  0  0
  3 16  1  0  0  0  0
  4 14  1  0  0  0  0
  5 10  1  0  0  0  0
  5 17  1  0  0  0  0
  6 14  1  0  0  0  0
  6 15  1  0  0  0  0
  7 14  2  0  0  0  0
  7 18  1  0  0  0  0
  8 11  1  0  0  0  0
  8 12  1  0  0  0  0
  8 13  1  0  0  0  0
  9 19  1  0  0  0  0
 10 20  2  0  0  0  0
 11 16  1  0  0  0  0
 12 19  1  0  0  0  0
 13 20  1  0  0  0  0
 15 17  1  0  0  0  0
 16 19  1  0  0  0  0
 17 18  2  0  0  0  0
 18 20  1  0  0  0  0
  1 21  1  0  0  0  0
  3 22  1  0  0  0  0
  4 23  1  0  0  0  0
  4 24  1  0  0  0  0
  5 25  1  0  0  0  0
  6 26  1  0  0  0  0
  9 27  1  0  0  0  0
  9 28  1  0  0  0  0
 10 29  1  0  0  0  0
 11 30  1  0  0  0  0
 11 31  1  0  0  0  0
 12 32  1  0  0  0  0
 12 33  1  0  0  0  0
 13 34  1  0  0  0  0
 13 35  1  0  0  0  0
 16 36  1  0  0  0  0
 19 37  1  0  0  0  0
M  END
> <pdb_id>
3PHC

> <uniprot_id>
Q8T9Z7

> <usmiles>
O=C1NC(=NC2=C1NC=C2CN3C[C@H](O)[C@@H](CO)C3)N

$$$$
IMH_A_301
          07202403123D 1   1.00000     0.00000     0
            
 33 35  0  0  0  0            999 V2000
   33.6972   26.9694   63.5862 O   0  0  0  0  0  0  0  0  0  0  0  0
   33.1770   19.6804   63.2051 O   0  0  0  0  0  0  0  0  0  0  0  0
   30.4677   27.5542   66.8226 O   0  0  0  0  0  0  0  0  0  0  0  0
   29.6191   25.0676   67.0878 O   0  0  0  0  0  0  0  0  0  0  0  0
   33.1914   20.3984   65.3806 N   0  0  0  0  0  0  0  0  0  0  0  0
   32.1649   22.4705   66.1314 N   0  0  0  0  0  0  0  0  0  0  0  0
   31.6026   22.2344   62.5433 N   0  0  0  0  0  0  0  0  0  0  0  0
   31.1253   26.0885   64.1672 N   0  0  0  0  0  0  0  0  0  0  0  0
   32.8659   21.3192   66.3859 C   0  0  0  0  0  0  0  0  0  0  0  0
   33.3365   26.6542   64.9268 C   0  0  0  0  0  0  0  0  0  0  0  0
   31.0174   23.3682   62.8491 C   0  0  0  0  0  0  0  0  0  0  0  0
   32.8429   20.5476   64.0206 C   0  0  0  0  0  0  0  0  0  0  0  0
   31.4157   26.5411   66.4642 C   0  0  1  0  0  0  0  0  0  0  0  0
   30.7979   25.1919   66.2835 C   0  0  2  0  0  0  0  0  0  0  0  0
   31.8772   26.8831   65.0798 C   0  0  2  0  0  0  0  0  0  0  0  0
   32.1074   21.7575   63.7482 C   0  0  0  0  0  0  0  0  0  0  0  0
   31.8043   22.6427   64.7921 C   0  0  0  0  0  0  0  0  0  0  0  0
   30.4607   25.0001   64.7920 C   0  0  2  0  0  0  0  0  0  0  0  0
   31.0743   23.7197   64.1958 C   0  0  0  0  0  0  0  0  0  0  0  0
   34.6783   26.8217   63.4615 H   0  0  0  0  0  0  0  0  0  0  0  0
   30.9394   28.4296   66.9286 H   0  0  0  0  0  0  0  0  0  0  0  0
   29.2191   24.1607   66.9551 H   0  0  0  0  0  0  0  0  0  0  0  0
   33.7046   19.5815   65.6441 H   0  0  0  0  0  0  0  0  0  0  0  0
   31.6708   21.8071   61.6417 H   0  0  0  0  0  0  0  0  0  0  0  0
   31.7477   25.7255   63.4738 H   0  0  0  0  0  0  0  0  0  0  0  0
   33.1555   21.1298   67.3241 H   0  0  0  0  0  0  0  0  0  0  0  0
   33.8398   27.2421   65.5601 H   0  0  0  0  0  0  0  0  0  0  0  0
   33.5510   25.6966   65.1190 H   0  0  0  0  0  0  0  0  0  0  0  0
   30.5632   23.9388   62.1649 H   0  0  0  0  0  0  0  0  0  0  0  0
   32.1802   26.5106   67.1081 H   0  0  0  0  0  0  0  0  0  0  0  0
   31.4565   24.4924   66.5609 H   0  0  0  0  0  0  0  0  0  0  0  0
   31.6819   27.8480   64.9039 H   0  0  0  0  0  0  0  0  0  0  0  0
   29.4739   25.0378   64.6345 H   0  0  0  0  0  0  0  0  0  0  0  0
  1 10  1  0  0  0  0
  2 12  2  0  0  0  0
  3 13  1  0  0  0  0
  4 14  1  0  0  0  0
  5  9  1  0  0  0  0
  5 12  1  0  0  0  0
  6  9  2  0  0  0  0
  6 17  1  0  0  0  0
  7 11  1  0  0  0  0
  7 16  1  0  0  0  0
  8 15  1  0  0  0  0
  8 18  1  0  0  0  0
 10 15  1  0  0  0  0
 11 19  2  0  0  0  0
 12 16  1  0  0  0  0
 13 14  1  0  0  0  0
 13 15  1  0  0  0  0
 14 18  1  0  0  0  0
 16 17  2  0  0  0  0
 17 19  1  0  0  0  0
 18 19  1  0  0  0  0
  1 20  1  0  0  0  0
  3 21  1  0  0  0  0
  4 22  1  0  0  0  0
  5 23  1  0  0  0  0
  7 24  1  0  0  0  0
  8 25  1  0  0  0  0
  9 26  1  0  0  0  0
 10 27  1  0  0  0  0
 10 28  1  0  0  0  0
 11 29  1  0  0  0  0
 13 30  1  0  0  0  0
 14 31  1  0  0  0  0
 15 32  1  0  0  0  0
 18 33  1  0  0  0  0
M  END
> <pdb_id>
1NW4

> <uniprot_id>
Q8I3X4

> <usmiles>
O=C1NC=NC2=C1NC=C2[C@@H]3N[C@@H]([C@@H](O)[C@H]3O)CO

$$$$
IMI_B_300
          07192421253D 1   1.00000     0.00000     0
            
 34 35  0  0  0  0            999 V2000
   32.0850   12.0150   -4.6360 S   0  0  0  0  0  0  0  0  0  0  0  0
   28.0900   14.1070   -9.8120 O   0  0  0  0  0  0  0  0  0  0  0  0
   30.0100   13.9020  -10.7890 O   0  0  0  0  0  0  0  0  0  0  0  0
   36.7610   12.5430   -4.0600 N   0  0  0  0  0  0  0  0  0  0  0  0
   35.3210   10.7870   -4.1460 N   0  0  0  0  0  0  0  0  0  0  0  0
   35.2340   12.2360   -5.7600 N   0  3  0  0  0  0  0  0  0  0  0  0
   32.8850   10.4480   -4.1980 C   0  0  0  0  0  0  0  0  0  0  0  0
   31.4330   14.8050   -8.4620 C   0  0  0  0  0  0  0  0  0  0  0  0
   31.4760   13.4260   -7.7710 C   0  0  0  0  0  0  0  0  0  0  0  0
   29.9750   15.2140   -8.8110 C   0  0  0  0  0  0  0  0  0  0  0  0
   32.8560   13.2180   -7.1340 C   0  0  0  0  0  0  0  0  0  0  0  0
   29.2980   14.3270   -9.8890 C   0  0  0  0  0  0  0  0  0  0  0  0
   35.8070   11.8830   -4.6390 C   0  0  0  0  0  0  0  0  0  0  0  0
   32.8280   11.9210   -6.2780 C   0  0  1  0  0  0  0  0  0  0  0  0
   34.2070   10.2490   -4.9770 C   0  0  1  0  0  0  0  0  0  0  0  0
   34.2240   11.2500   -6.2010 C   0  0  2  0  0  0  0  0  0  0  0  0
   37.1450   13.3710   -4.4110 H   0  0  0  0  0  0  0  0  0  0  0  0
   37.1800   12.2650   -3.2200 H   0  0  0  0  0  0  0  0  0  0  0  0
   35.6460   10.3610   -3.3270 H   0  0  0  0  0  0  0  0  0  0  0  0
   35.4430   13.0560   -6.2520 H   0  0  0  0  0  0  0  0  0  0  0  0
   32.1970    9.6470   -4.4180 H   0  0  0  0  0  0  0  0  0  0  0  0
   33.0800   10.4510   -3.1360 H   0  0  0  0  0  0  0  0  0  0  0  0
   32.0340   14.7830   -9.3550 H   0  0  0  0  0  0  0  0  0  0  0  0
   31.8530   15.5550   -7.8050 H   0  0  0  0  0  0  0  0  0  0  0  0
   30.7020   13.3740   -7.0180 H   0  0  0  0  0  0  0  0  0  0  0  0
   31.3030   12.6590   -8.5130 H   0  0  0  0  0  0  0  0  0  0  0  0
   29.9870   16.2350   -9.1620 H   0  0  0  0  0  0  0  0  0  0  0  0
   29.3790   15.1750   -7.9140 H   0  0  0  0  0  0  0  0  0  0  0  0
   33.6110   13.1550   -7.9050 H   0  0  0  0  0  0  0  0  0  0  0  0
   33.0920   14.0510   -6.4880 H   0  0  0  0  0  0  0  0  0  0  0  0
   32.2290   11.2150   -6.8280 H   0  0  0  0  0  0  0  0  0  0  0  0
   34.3970    9.2200   -5.2560 H   0  0  0  0  0  0  0  0  0  0  0  0
   34.5320   10.7860   -7.1270 H   0  0  0  0  0  0  0  0  0  0  0  0
   27.5609   14.4826   -9.0511 H   0  0  0  0  0  0  0  0  0  0  0  0
  1  7  1  0  0  0  0
  1 14  1  0  0  0  0
  2 12  1  0  0  0  0
  3 12  2  0  0  0  0
  4 13  1  0  0  0  0
  4 17  1  0  0  0  0
  4 18  1  0  0  0  0
  5 13  1  0  0  0  0
  5 15  1  0  0  0  0
  5 19  1  0  0  0  0
  6 13  2  0  0  0  0
  6 16  1  0  0  0  0
  6 20  1  0  0  0  0
  7 15  1  0  0  0  0
  7 21  1  0  0  0  0
  7 22  1  0  0  0  0
  8  9  1  0  0  0  0
  8 10  1  0  0  0  0
  8 23  1  0  0  0  0
  8 24  1  0  0  0  0
  9 11  1  0  0  0  0
  9 25  1  0  0  0  0
  9 26  1  0  0  0  0
 10 12  1  0  0  0  0
 10 27  1  0  0  0  0
 10 28  1  0  0  0  0
 11 14  1  0  0  0  0
 11 29  1  0  0  0  0
 11 30  1  0  0  0  0
 14 16  1  0  0  0  0
 14 31  1  0  0  0  0
 15 16  1  0  0  0  0
 15 32  1  0  0  0  0
 16 33  1  0  0  0  0
  2 34  1  0  0  0  0
M  CHG  1   6   1
M  END
> <pdb_id>
2IZL

> <uniprot_id>
P22629

> <usmiles>
S1[C@H]([C@H]2[NH+]=C(N[C@H]2C1)N)CCCCC(=O)O

$$$$
IMP_A_201
          07202403243D 1   1.00000     0.00000     0
            
 36 38  0  0  0  0            999 V2000
  -31.6704    4.1913  -23.7757 P   0  0  0  0  0  0  0  0  0  0  0  0
  -32.3827    5.0557  -22.7631 O   0  0  0  0  0  0  0  0  0  0  0  0
  -32.3849    2.8931  -24.0856 O   0  0  0  0  0  0  0  0  0  0  0  0
  -30.1906    4.0203  -23.5501 O   0  0  0  0  0  0  0  0  0  0  0  0
  -28.7341    3.9035  -34.5523 O   0  0  0  0  0  0  0  0  0  0  0  0
  -29.4094    8.0017  -28.8432 O   0  0  0  0  0  0  0  0  0  0  0  0
  -28.7207    7.2386  -26.2790 O   0  0  0  0  0  0  0  0  0  0  0  0
  -31.7591    5.0103  -25.1352 O   0  0  0  0  0  0  0  0  0  0  0  0
  -29.3463    4.5602  -27.8703 O   0  0  0  0  0  0  0  0  0  0  0  0
  -26.8904    4.4939  -33.3681 N   0  0  0  0  0  0  0  0  0  0  0  0
  -27.0204    5.1740  -31.0890 N   0  0  0  0  0  0  0  0  0  0  0  0
  -30.3559    4.4594  -31.9749 N   0  0  0  0  0  0  0  0  0  0  0  0
  -29.2986    5.1464  -30.1339 N   0  0  0  0  0  0  0  0  0  0  0  0
  -26.3278    4.9185  -32.2160 C   0  0  0  0  0  0  0  0  0  0  0  0
  -30.4910    4.8319  -30.6720 C   0  0  0  0  0  0  0  0  0  0  0  0
  -31.1875    4.4876  -26.3289 C   0  0  0  0  0  0  0  0  0  0  0  0
  -28.2132    4.2913  -33.4796 C   0  0  0  0  0  0  0  0  0  0  0  0
  -29.9098    6.7792  -28.3460 C   0  0  2  0  0  0  0  0  0  0  0  0
  -29.8988    6.6373  -26.8238 C   0  0  1  0  0  0  0  0  0  0  0  0
  -29.0387    5.6052  -28.7691 C   0  0  1  0  0  0  0  0  0  0  0  0
  -29.8528    5.1182  -26.6255 C   0  0  2  0  0  0  0  0  0  0  0  0
  -28.3609    4.9977  -31.0625 C   0  0  0  0  0  0  0  0  0  0  0  0
  -29.0503    4.5368  -32.2856 C   0  0  0  0  0  0  0  0  0  0  0  0
  -31.8559    5.8915  -22.6089 H   0  0  0  0  0  0  0  0  0  0  0  0
  -31.8583    2.3755  -24.7599 H   0  0  0  0  0  0  0  0  0  0  0  0
  -29.4573    8.0000  -29.8420 H   0  0  0  0  0  0  0  0  0  0  0  0
  -28.7254    7.1392  -25.2840 H   0  0  0  0  0  0  0  0  0  0  0  0
  -26.3050    4.3256  -34.1611 H   0  0  0  0  0  0  0  0  0  0  0  0
  -25.3368    5.0513  -32.1985 H   0  0  0  0  0  0  0  0  0  0  0  0
  -31.3611    4.8669  -30.1804 H   0  0  0  0  0  0  0  0  0  0  0  0
  -31.8083    4.6674  -27.0920 H   0  0  0  0  0  0  0  0  0  0  0  0
  -31.0644    3.5007  -26.2248 H   0  0  0  0  0  0  0  0  0  0  0  0
  -30.8403    6.6401  -28.6848 H   0  0  0  0  0  0  0  0  0  0  0  0
  -30.7247    7.0294  -26.4187 H   0  0  0  0  0  0  0  0  0  0  0  0
  -28.0743    5.8533  -28.6770 H   0  0  0  0  0  0  0  0  0  0  0  0
  -29.2157    4.9026  -25.8855 H   0  0  0  0  0  0  0  0  0  0  0  0
  1  2  1  0  0  0  0
  1  3  1  0  0  0  0
  1  4  2  0  0  0  0
  1  8  1  0  0  0  0
  5 17  2  0  0  0  0
  6 18  1  0  0  0  0
  7 19  1  0  0  0  0
  8 16  1  0  0  0  0
  9 20  1  0  0  0  0
  9 21  1  0  0  0  0
 10 14  1  0  0  0  0
 10 17  1  0  0  0  0
 11 14  2  0  0  0  0
 11 22  1  0  0  0  0
 12 15  2  0  0  0  0
 12 23  1  0  0  0  0
 13 15  1  0  0  0  0
 13 20  1  0  0  0  0
 13 22  1  0  0  0  0
 16 21  1  0  0  0  0
 17 23  1  0  0  0  0
 18 19  1  0  0  0  0
 18 20  1  0  0  0  0
 19 21  1  0  0  0  0
 22 23  2  0  0  0  0
  2 24  1  0  0  0  0
  3 25  1  0  0  0  0
  6 26  1  0  0  0  0
  7 27  1  0  0  0  0
 10 28  1  0  0  0  0
 14 29  1  0  0  0  0
 15 30  1  0  0  0  0
 16 31  1  0  0  0  0
 16 32  1  0  0  0  0
 18 33  1  0  0  0  0
 19 34  1  0  0  0  0
 20 35  1  0  0  0  0
 21 36  1  0  0  0  0
M  END
> <pdb_id>
5KM0

> <uniprot_id>
P49773

> <usmiles>
P(=O)(OC[C@H]1O[C@@H](N2C=3N=CNC(=O)C3N=C2)[C@H](O)[C@@H]1O)(O)O

$$$$
IMU_A_300
          07202405513D 1   1.00000     0.00000     0
            
 40 42  0  0  0  0            999 V2000
   17.6434  -15.8178  -64.3570 P   0  0  0  0  0  0  0  0  0  0  0  0
   17.9904  -14.5314  -63.7110 O   0  0  0  0  0  0  0  0  0  0  0  0
   16.3982  -15.7806  -65.1315 O   0  0  0  0  0  0  0  0  0  0  0  0
   18.7952  -16.3118  -65.1477 O   0  0  0  0  0  0  0  0  0  0  0  0
   23.3893  -20.0808  -59.4852 O   0  0  0  0  0  0  0  0  0  0  0  0
   14.5252  -17.9975  -60.0888 O   0  0  0  0  0  0  0  0  0  0  0  0
   15.9193  -19.7991  -58.7463 O   0  0  0  0  0  0  0  0  0  0  0  0
   17.5640  -16.8828  -63.2607 O   0  0  0  0  0  0  0  0  0  0  0  0
   20.4586  -23.0017  -57.4053 N   0  0  0  0  0  0  0  0  0  0  0  0
   21.0025  -18.8851  -60.9797 N   0  0  0  0  0  0  0  0  0  0  0  0
   21.9100  -21.4983  -58.4842 N   0  0  0  0  0  0  0  0  0  0  0  0
   19.5032  -21.4796  -58.9075 N   0  0  0  0  0  0  0  0  0  0  0  0
   16.9995  -19.0976  -61.8825 N   0  0  0  0  0  0  0  0  0  0  0  0
   17.1466  -16.7178  -61.9240 C   0  0  0  0  0  0  0  0  0  0  0  0
   19.7347  -18.7989  -61.2595 C   0  0  0  0  0  0  0  0  0  0  0  0
   22.2246  -20.4459  -59.3611 C   0  0  0  0  0  0  0  0  0  0  0  0
   20.6028  -21.9933  -58.2707 C   0  0  0  0  0  0  0  0  0  0  0  0
   15.9320  -17.8348  -60.1682 C   0  0  1  0  0  0  0  0  0  0  0  0
   16.7236  -18.9649  -59.5768 C   0  0  2  0  0  0  0  0  0  0  0  0
   16.3050  -17.8859  -61.6058 C   0  0  2  0  0  0  0  0  0  0  0  0
   21.0753  -19.9136  -60.0400 C   0  0  0  0  0  0  0  0  0  0  0  0
   17.3739  -19.8098  -60.7101 C   0  0  2  0  0  0  0  0  0  0  0  0
   19.7985  -20.4439  -59.7841 C   0  0  0  0  0  0  0  0  0  0  0  0
   18.9001  -19.7097  -60.5820 C   0  0  0  0  0  0  0  0  0  0  0  0
   18.8463  -14.6333  -63.2039 H   0  0  0  0  0  0  0  0  0  0  0  0
   16.2301  -16.6796  -65.5359 H   0  0  0  0  0  0  0  0  0  0  0  0
   14.0743  -17.2066  -60.5024 H   0  0  0  0  0  0  0  0  0  0  0  0
   16.4805  -20.5375  -58.3723 H   0  0  0  0  0  0  0  0  0  0  0  0
   19.5508  -23.3807  -57.2259 H   0  0  0  0  0  0  0  0  0  0  0  0
   21.2586  -23.3772  -56.9372 H   0  0  0  0  0  0  0  0  0  0  0  0
   21.7527  -18.3392  -61.3527 H   0  0  0  0  0  0  0  0  0  0  0  0
   22.6596  -21.9249  -57.9783 H   0  0  0  0  0  0  0  0  0  0  0  0
   17.8273  -18.8785  -62.3990 H   0  0  0  0  0  0  0  0  0  0  0  0
   16.6184  -15.8742  -61.8279 H   0  0  0  0  0  0  0  0  0  0  0  0
   17.9393  -16.6861  -61.3152 H   0  0  0  0  0  0  0  0  0  0  0  0
   19.3767  -18.1309  -61.9118 H   0  0  0  0  0  0  0  0  0  0  0  0
   16.2083  -16.9628  -59.7641 H   0  0  0  0  0  0  0  0  0  0  0  0
   17.4549  -18.5760  -59.0164 H   0  0  0  0  0  0  0  0  0  0  0  0
   15.4739  -17.8512  -62.1608 H   0  0  0  0  0  0  0  0  0  0  0  0
   17.0507  -20.7562  -60.7166 H   0  0  0  0  0  0  0  0  0  0  0  0
  1  2  1  0  0  0  0
  1  3  1  0  0  0  0
  1  4  2  0  0  0  0
  1  8  1  0  0  0  0
  5 16  2  0  0  0  0
  6 18  1  0  0  0  0
  7 19  1  0  0  0  0
  8 14  1  0  0  0  0
  9 17  1  0  0  0  0
 10 15  1  0  0  0  0
 10 21  1  0  0  0  0
 11 16  1  0  0  0  0
 11 17  1  0  0  0  0
 12 17  2  0  0  0  0
 12 23  1  0  0  0  0
 13 20  1  0  0  0  0
 13 22  1  0  0  0  0
 14 20  1  0  0  0  0
 15 24  2  0  0  0  0
 16 21  1  0  0  0  0
 18 19  1  0  0  0  0
 18 20  1  0  0  0  0
 19 22  1  0  0  0  0
 21 23  2  0  0  0  0
 22 24  1  0  0  0  0
 23 24  1  0  0  0  0
  2 25  1  0  0  0  0
  3 26  1  0  0  0  0
  6 27  1  0  0  0  0
  7 28  1  0  0  0  0
  9 29  1  0  0  0  0
  9 30  1  0  0  0  0
 10 31  1  0  0  0  0
 11 32  1  0  0  0  0
 13 33  1  0  0  0  0
 14 34  1  0  0  0  0
 14 35  1  0  0  0  0
 15 36  1  0  0  0  0
 18 37  1  0  0  0  0
 19 38  1  0  0  0  0
 20 39  1  0  0  0  0
 22 40  1  0  0  0  0
M  END
> <pdb_id>
1BZY

> <uniprot_id>
P00492

> <usmiles>
P(=O)(OC[C@H]1N[C@@H](C=2C=3N=C(NC(=O)C3NC2)N)[C@H](O)[C@@H]1O)(O)O

$$$$
INE_A_760
          07192423083D 1   1.00000     0.00000     0
            
 17 18  0  0  0  0            999 V2000
    8.9444   10.5310   29.0995 Br  0  0  0  0  0  0  0  0  0  0  0  0
    4.8254   13.0563   34.6964 O   0  5  0  0  0  0  0  0  0  0  0  0
    3.9612   12.4096   32.9522 O   0  0  0  0  0  0  0  0  0  0  0  0
    6.2516   11.0212   29.8713 N   0  0  0  0  0  0  0  0  0  0  0  0
    5.5990   11.5019   30.9711 N   0  0  0  0  0  0  0  0  0  0  0  0
    4.9819   12.5945   33.5850 N   0  3  0  0  0  0  0  0  0  0  0  0
    8.5816   12.1508   33.6479 C   0  0  0  0  0  0  0  0  0  0  0  0
    7.3040   12.4398   34.0743 C   0  0  0  0  0  0  0  0  0  0  0  0
    8.8298   11.6286   32.3599 C   0  0  0  0  0  0  0  0  0  0  0  0
    7.6407   10.9879   30.1898 C   0  0  0  0  0  0  0  0  0  0  0  0
    6.4580   11.7145   31.9390 C   0  0  0  0  0  0  0  0  0  0  0  0
    6.2150   12.2787   33.2339 C   0  0  0  0  0  0  0  0  0  0  0  0
    7.7246   11.4545   31.4977 C   0  0  0  0  0  0  0  0  0  0  0  0
    4.6144   11.6668   31.0294 H   0  0  0  0  0  0  0  0  0  0  0  0
    9.3512   12.3146   34.2651 H   0  0  0  0  0  0  0  0  0  0  0  0
    7.1604   12.7716   35.0067 H   0  0  0  0  0  0  0  0  0  0  0  0
    9.7561   11.3902   32.0681 H   0  0  0  0  0  0  0  0  0  0  0  0
  1 10  1  0  0  0  0
  2  6  1  0  0  0  0
  3  6  2  0  0  0  0
  4  5  1  0  0  0  0
  4 10  2  0  0  0  0
  5 11  1  0  0  0  0
  6 12  1  0  0  0  0
  7  8  1  0  0  0  0
  7  9  2  0  0  0  0
  8 12  2  0  0  0  0
  9 13  1  0  0  0  0
 10 13  1  0  0  0  0
 11 12  1  0  0  0  0
 11 13  2  0  0  0  0
  5 14  1  0  0  0  0
  7 15  1  0  0  0  0
  8 16  1  0  0  0  0
  9 17  1  0  0  0  0
M  CHG  2   2  -1   6   1
M  END
> <pdb_id>
1D0C

> <uniprot_id>
P29473

> <usmiles>
BrC1=NNc2c([N+]([O-])=O)cccc21

$$$$
IOP_A_101
          07202414523D 1   1.00000     0.00000     0
            
 25 26  0  0  0  0            999 V2000
    7.6970   21.6470   25.2660 O   0  0  0  0  0  0  0  0  0  0  0  0
    8.9800   23.3140   25.7550 O   0  0  0  0  0  0  0  0  0  0  0  0
   13.2770   19.5100   22.5790 N   0  0  0  0  0  0  0  0  0  0  0  0
   12.1400   19.8610   23.2190 C   0  0  0  0  0  0  0  0  0  0  0  0
   15.8120   22.0240   21.7360 C   0  0  0  0  0  0  0  0  0  0  0  0
   15.1370   23.1150   22.2800 C   0  0  0  0  0  0  0  0  0  0  0  0
   15.2720   20.7400   21.7810 C   0  0  0  0  0  0  0  0  0  0  0  0
    9.9620   21.2200   24.7590 C   0  0  0  0  0  0  0  0  0  0  0  0
   13.8880   22.9880   22.8870 C   0  0  0  0  0  0  0  0  0  0  0  0
   11.0870   22.0720   24.1600 C   0  0  0  0  0  0  0  0  0  0  0  0
    8.8300   22.0850   25.2720 C   0  0  0  0  0  0  0  0  0  0  0  0
   14.0250   20.6130   22.3940 C   0  0  0  0  0  0  0  0  0  0  0  0
   12.1420   21.2290   23.4690 C   0  0  0  0  0  0  0  0  0  0  0  0
   13.3480   21.7020   22.9400 C   0  0  0  0  0  0  0  0  0  0  0  0
    7.5181   20.7279   24.9150 H   0  0  0  0  0  0  0  0  0  0  0  0
   13.5219   18.5843   22.2907 H   0  0  0  0  0  0  0  0  0  0  0  0
   11.4066   19.2311   23.4747 H   0  0  0  0  0  0  0  0  0  0  0  0
   16.7028   22.1654   21.3041 H   0  0  0  0  0  0  0  0  0  0  0  0
   15.5623   24.0188   22.2336 H   0  0  0  0  0  0  0  0  0  0  0  0
   15.7522   19.9524   21.3949 H   0  0  0  0  0  0  0  0  0  0  0  0
   10.3297   20.6814   25.5171 H   0  0  0  0  0  0  0  0  0  0  0  0
    9.6084   20.6052   24.0540 H   0  0  0  0  0  0  0  0  0  0  0  0
   13.4042   23.7775   23.2648 H   0  0  0  0  0  0  0  0  0  0  0  0
   11.5219   22.5928   24.8946 H   0  0  0  0  0  0  0  0  0  0  0  0
   10.6918   22.7032   23.4926 H   0  0  0  0  0  0  0  0  0  0  0  0
  1 11  1  0  0  0  0
  2 11  2  0  0  0  0
  3  4  1  0  0  0  0
  3 12  1  0  0  0  0
  4 13  2  0  0  0  0
  5  6  2  0  0  0  0
  5  7  1  0  0  0  0
  6  9  1  0  0  0  0
  7 12  2  0  0  0  0
  8 10  1  0  0  0  0
  8 11  1  0  0  0  0
  9 14  2  0  0  0  0
 10 13  1  0  0  0  0
 12 14  1  0  0  0  0
 13 14  1  0  0  0  0
  1 15  1  0  0  0  0
  3 16  1  0  0  0  0
  4 17  1  0  0  0  0
  5 18  1  0  0  0  0
  6 19  1  0  0  0  0
  7 20  1  0  0  0  0
  8 21  1  0  0  0  0
  8 22  1  0  0  0  0
  9 23  1  0  0  0  0
 10 24  1  0  0  0  0
 10 25  1  0  0  0  0
M  END
> <pdb_id>
4EJK

> <uniprot_id>
P12499

> <usmiles>
O=C(O)CCC=1c2c(NC1)cccc2

$$$$
IOP_B_201
          07202401113D 1   1.00000     0.00000     0
            
 25 26  0  0  0  0            999 V2000
  -16.8576  -29.0808  -38.9345 O   0  0  0  0  0  0  0  0  0  0  0  0
  -18.7313  -28.0138  -38.5785 O   0  0  0  0  0  0  0  0  0  0  0  0
  -21.5173  -33.7064  -37.9733 N   0  0  0  0  0  0  0  0  0  0  0  0
  -20.8093  -32.6212  -37.7050 C   0  0  0  0  0  0  0  0  0  0  0  0
  -23.3995  -34.1485  -41.1456 C   0  0  0  0  0  0  0  0  0  0  0  0
  -23.0597  -32.9175  -41.7156 C   0  0  0  0  0  0  0  0  0  0  0  0
  -22.9223  -34.5008  -39.8848 C   0  0  0  0  0  0  0  0  0  0  0  0
  -18.8031  -30.4244  -38.5069 C   0  0  0  0  0  0  0  0  0  0  0  0
  -22.2327  -32.0308  -41.0317 C   0  0  0  0  0  0  0  0  0  0  0  0
  -20.2650  -30.3727  -38.8975 C   0  0  0  0  0  0  0  0  0  0  0  0
  -18.0927  -29.0987  -38.6856 C   0  0  0  0  0  0  0  0  0  0  0  0
  -22.0955  -33.6039  -39.1850 C   0  0  0  0  0  0  0  0  0  0  0  0
  -20.9137  -31.7359  -38.7850 C   0  0  0  0  0  0  0  0  0  0  0  0
  -21.7557  -32.3839  -39.7529 C   0  0  0  0  0  0  0  0  0  0  0  0
  -16.3521  -29.9394  -39.0193 H   0  0  0  0  0  0  0  0  0  0  0  0
  -21.6100  -34.4923  -37.3620 H   0  0  0  0  0  0  0  0  0  0  0  0
  -20.2856  -32.4598  -36.8685 H   0  0  0  0  0  0  0  0  0  0  0  0
  -23.9897  -34.7812  -41.6470 H   0  0  0  0  0  0  0  0  0  0  0  0
  -23.4125  -32.6731  -42.6188 H   0  0  0  0  0  0  0  0  0  0  0  0
  -23.1655  -35.3829  -39.4813 H   0  0  0  0  0  0  0  0  0  0  0  0
  -18.3461  -31.1093  -39.0745 H   0  0  0  0  0  0  0  0  0  0  0  0
  -18.7398  -30.6922  -37.5455 H   0  0  0  0  0  0  0  0  0  0  0  0
  -21.9803  -31.1546  -41.4423 H   0  0  0  0  0  0  0  0  0  0  0  0
  -20.3385  -30.0541  -39.8425 H   0  0  0  0  0  0  0  0  0  0  0  0
  -20.7412  -29.7346  -38.2925 H   0  0  0  0  0  0  0  0  0  0  0  0
  1 11  1  0  0  0  0
  2 11  2  0  0  0  0
  3  4  1  0  0  0  0
  3 12  1  0  0  0  0
  4 13  2  0  0  0  0
  5  6  2  0  0  0  0
  5  7  1  0  0  0  0
  6  9  1  0  0  0  0
  7 12  2  0  0  0  0
  8 10  1  0  0  0  0
  8 11  1  0  0  0  0
  9 14  2  0  0  0  0
 10 13  1  0  0  0  0
 12 14  1  0  0  0  0
 13 14  1  0  0  0  0
  1 15  1  0  0  0  0
  3 16  1  0  0  0  0
  4 17  1  0  0  0  0
  5 18  1  0  0  0  0
  6 19  1  0  0  0  0
  7 20  1  0  0  0  0
  8 21  1  0  0  0  0
  8 22  1  0  0  0  0
  9 23  1  0  0  0  0
 10 24  1  0  0  0  0
 10 25  1  0  0  0  0
M  END
> <pdb_id>
5O0F

> <uniprot_id>
B1MDL6

> <usmiles>
O=C(O)CCC=1c2c(NC1)cccc2

$$$$
IOP_D_201
          07212403093D 1   1.00000     0.00000     0
            
 25 26  0  0  0  0            999 V2000
  123.8770  113.5890   13.3320 O   0  0  0  0  0  0  0  0  0  0  0  0
  125.6720  114.8230   13.4320 O   0  0  0  0  0  0  0  0  0  0  0  0
  128.4380  108.9230   12.2370 N   0  0  0  0  0  0  0  0  0  0  0  0
  128.4340  110.1580   12.7010 C   0  0  0  0  0  0  0  0  0  0  0  0
  125.8380  107.6360    9.9180 C   0  0  0  0  0  0  0  0  0  0  0  0
  125.0960  108.8120    9.8370 C   0  0  0  0  0  0  0  0  0  0  0  0
  126.9810  107.5880   10.7050 C   0  0  0  0  0  0  0  0  0  0  0  0
  125.9770  112.4400   13.5980 C   0  0  0  0  0  0  0  0  0  0  0  0
  125.4990  109.9390   10.5500 C   0  0  0  0  0  0  0  0  0  0  0  0
  126.9350  112.2730   12.4390 C   0  0  0  0  0  0  0  0  0  0  0  0
  125.1280  113.6860   13.4480 C   0  0  0  0  0  0  0  0  0  0  0  0
  127.3880  108.7240   11.4240 C   0  0  0  0  0  0  0  0  0  0  0  0
  127.3300  110.8350   12.1810 C   0  0  0  0  0  0  0  0  0  0  0  0
  126.6510  109.8920   11.3450 C   0  0  0  0  0  0  0  0  0  0  0  0
  123.4420  112.6886   13.3443 H   0  0  0  0  0  0  0  0  0  0  0  0
  129.1261  108.2323   12.4594 H   0  0  0  0  0  0  0  0  0  0  0  0
  129.1125  110.5463   13.3246 H   0  0  0  0  0  0  0  0  0  0  0  0
  125.5474  106.8257    9.4091 H   0  0  0  0  0  0  0  0  0  0  0  0
  124.2747  108.8473    9.2676 H   0  0  0  0  0  0  0  0  0  0  0  0
  127.5148  106.7441   10.7599 H   0  0  0  0  0  0  0  0  0  0  0  0
  126.5027  112.5062   14.4461 H   0  0  0  0  0  0  0  0  0  0  0  0
  125.3763  111.6416   13.6396 H   0  0  0  0  0  0  0  0  0  0  0  0
  124.9650  110.7826   10.4940 H   0  0  0  0  0  0  0  0  0  0  0  0
  127.7632  112.7979   12.6354 H   0  0  0  0  0  0  0  0  0  0  0  0
  126.4994  112.6339   11.6144 H   0  0  0  0  0  0  0  0  0  0  0  0
  1 11  1  0  0  0  0
  2 11  2  0  0  0  0
  3  4  1  0  0  0  0
  3 12  1  0  0  0  0
  4 13  2  0  0  0  0
  5  6  2  0  0  0  0
  5  7  1  0  0  0  0
  6  9  1  0  0  0  0
  7 12  2  0  0  0  0
  8 10  1  0  0  0  0
  8 11  1  0  0  0  0
  9 14  2  0  0  0  0
 10 13  1  0  0  0  0
 12 14  1  0  0  0  0
 13 14  1  0  0  0  0
  1 15  1  0  0  0  0
  3 16  1  0  0  0  0
  4 17  1  0  0  0  0
  5 18  1  0  0  0  0
  6 19  1  0  0  0  0
  7 20  1  0  0  0  0
  8 21  1  0  0  0  0
  8 22  1  0  0  0  0
  9 23  1  0  0  0  0
 10 24  1  0  0  0  0
 10 25  1  0  0  0  0
M  END
> <pdb_id>
6F7F

> <uniprot_id>
P0A881

> <usmiles>
O=C(O)CCC=1c2c(NC1)cccc2

$$$$
IOS_A_1001
          07202416463D 1   1.00000     0.00000     0
            
 21 22  0  0  0  0            999 V2000
   23.6033    4.7532    1.5758 S   0  0  0  0  0  0  0  0  0  0  0  0
   24.2150    3.7427    0.7741 O   0  0  0  0  0  0  0  0  0  0  0  0
   22.8003    4.1011    2.6069 O   0  0  0  0  0  0  0  0  0  0  0  0
   22.7218    5.4332    0.6131 O   0  0  0  0  0  0  0  0  0  0  0  0
   24.5579    5.6767    2.1423 O   0  0  0  0  0  0  0  0  0  0  0  0
   22.8864    8.1352    4.2404 N   0  0  0  0  0  0  0  0  0  0  0  0
   22.9106    6.9574    3.4414 C   0  0  0  0  0  0  0  0  0  0  0  0
   26.0596   10.0420    4.6898 C   0  0  0  0  0  0  0  0  0  0  0  0
   26.9142    9.2050    3.9062 C   0  0  0  0  0  0  0  0  0  0  0  0
   24.6908    9.7782    4.8700 C   0  0  0  0  0  0  0  0  0  0  0  0
   26.4048    8.0599    3.2691 C   0  0  0  0  0  0  0  0  0  0  0  0
   24.1590    6.7461    2.9667 C   0  0  0  0  0  0  0  0  0  0  0  0
   24.1799    8.6235    4.2265 C   0  0  0  0  0  0  0  0  0  0  0  0
   25.0212    7.7651    3.4267 C   0  0  0  0  0  0  0  0  0  0  0  0
   24.7697    4.1727    0.0618 H   0  0  0  0  0  0  0  0  0  0  0  0
   22.0977    8.5280    4.7135 H   0  0  0  0  0  0  0  0  0  0  0  0
   22.1207    6.3722    3.2582 H   0  0  0  0  0  0  0  0  0  0  0  0
   26.4528   10.8500    5.1286 H   0  0  0  0  0  0  0  0  0  0  0  0
   27.8824    9.4361    3.8105 H   0  0  0  0  0  0  0  0  0  0  0  0
   24.1082   10.3737    5.4231 H   0  0  0  0  0  0  0  0  0  0  0  0
   26.9975    7.4696    2.7211 H   0  0  0  0  0  0  0  0  0  0  0  0
  1  2  1  0  0  0  0
  1  3  2  0  0  0  0
  1  4  2  0  0  0  0
  1  5  1  0  0  0  0
  5 12  1  0  0  0  0
  6  7  1  0  0  0  0
  6 13  1  0  0  0  0
  7 12  2  0  0  0  0
  8  9  2  0  0  0  0
  8 10  1  0  0  0  0
  9 11  1  0  0  0  0
 10 13  2  0  0  0  0
 11 14  2  0  0  0  0
 12 14  1  0  0  0  0
 13 14  1  0  0  0  0
  2 15  1  0  0  0  0
  6 16  1  0  0  0  0
  7 17  1  0  0  0  0
  8 18  1  0  0  0  0
  9 19  1  0  0  0  0
 10 20  1  0  0  0  0
 11 21  1  0  0  0  0
M  END
> <pdb_id>
2BXH

> <uniprot_id>
P02768

> <usmiles>
S(=O)(=O)(OC=1c2c(NC1)cccc2)O

$$$$
IOU_C_803
          07192416573D 1   1.00000     0.00000     0
            
 49 52  0  0  0  0            999 V2000
   22.5416   -5.6089   24.7927 N   0  0  0  0  0  0  0  0  0  0  0  0
   18.4584   -2.5078   20.5887 N   0  0  0  0  0  0  0  0  0  0  0  0
   16.9762   -2.4560   16.7832 N   0  0  0  0  0  0  0  0  0  0  0  0
   22.9561   -5.0210   22.7193 N   0  0  0  0  0  0  0  0  0  0  0  0
   19.7049   -3.4070   18.9908 N   0  0  0  0  0  0  0  0  0  0  0  0
   21.3331   -5.5349   24.0902 N   0  0  0  0  0  0  0  0  0  0  0  0
   17.7961   -2.3591   19.3789 N   0  0  0  0  0  0  0  0  0  0  0  0
   24.8545   -5.3394   24.0347 N   0  0  0  0  0  0  0  0  0  0  0  0
   20.0181   -5.9377   24.5310 C   0  0  0  0  0  0  0  0  0  0  0  0
   15.7252   -1.2079   20.0514 C   0  0  0  0  0  0  0  0  0  0  0  0
   19.0698   -3.5120   16.0783 C   0  0  0  0  0  0  0  0  0  0  0  0
   27.6631   -6.2302   25.9699 C   0  0  0  0  0  0  0  0  0  0  0  0
   25.6921   -4.3358   23.4575 C   0  0  0  0  0  0  0  0  0  0  0  0
   16.2133   -1.8953   17.7300 C   0  0  0  0  0  0  0  0  0  0  0  0
   25.3152   -5.5265   25.4310 C   0  0  0  0  0  0  0  0  0  0  0  0
   26.9951   -4.9621   23.8492 C   0  0  0  0  0  0  0  0  0  0  0  0
   20.6173   -3.4447   21.2865 C   0  0  0  0  0  0  0  0  0  0  0  0
   20.7849   -4.8711   21.6839 C   0  0  0  0  0  0  0  0  0  0  0  0
   23.4815   -5.2788   23.8912 C   0  0  0  0  0  0  0  0  0  0  0  0
   19.5933   -3.1211   20.2828 C   0  0  0  0  0  0  0  0  0  0  0  0
   21.6615   -5.1279   22.8441 C   0  0  0  0  0  0  0  0  0  0  0  0
   18.6014   -2.9490   18.4217 C   0  0  0  0  0  0  0  0  0  0  0  0
   16.6131   -1.8129   19.0213 C   0  0  0  0  0  0  0  0  0  0  0  0
   18.1543   -2.9669   17.1109 C   0  0  0  0  0  0  0  0  0  0  0  0
   26.8163   -5.1581   25.3591 C   0  0  2  0  0  0  0  0  0  0  0  0
   19.3542   -5.7604   23.8045 H   0  0  0  0  0  0  0  0  0  0  0  0
   20.0234   -6.9141   24.7468 H   0  0  0  0  0  0  0  0  0  0  0  0
   19.7662   -5.4173   25.3470 H   0  0  0  0  0  0  0  0  0  0  0  0
   14.8987   -0.8546   19.6131 H   0  0  0  0  0  0  0  0  0  0  0  0
   15.4741   -1.9031   20.7250 H   0  0  0  0  0  0  0  0  0  0  0  0
   16.2061   -0.4595   20.5082 H   0  0  0  0  0  0  0  0  0  0  0  0
   19.9030   -3.8497   16.5162 H   0  0  0  0  0  0  0  0  0  0  0  0
   18.6188   -4.2631   15.5960 H   0  0  0  0  0  0  0  0  0  0  0  0
   19.3045   -2.7907   15.4266 H   0  0  0  0  0  0  0  0  0  0  0  0
   28.6264   -5.9683   25.9109 H   0  0  0  0  0  0  0  0  0  0  0  0
   27.4084   -6.3499   26.9295 H   0  0  0  0  0  0  0  0  0  0  0  0
   27.5203   -7.0887   25.4775 H   0  0  0  0  0  0  0  0  0  0  0  0
   25.5572   -3.4361   23.8727 H   0  0  0  0  0  0  0  0  0  0  0  0
   25.5814   -4.2654   22.4661 H   0  0  0  0  0  0  0  0  0  0  0  0
   15.3197   -1.5255   17.4755 H   0  0  0  0  0  0  0  0  0  0  0  0
   25.1921   -6.4742   25.7254 H   0  0  0  0  0  0  0  0  0  0  0  0
   24.8257   -4.9174   26.0550 H   0  0  0  0  0  0  0  0  0  0  0  0
   27.7641   -4.3546   23.6506 H   0  0  0  0  0  0  0  0  0  0  0  0
   27.1321   -5.8364   23.3835 H   0  0  0  0  0  0  0  0  0  0  0  0
   21.4960   -3.1318   20.9257 H   0  0  0  0  0  0  0  0  0  0  0  0
   20.3946   -2.9300   22.1144 H   0  0  0  0  0  0  0  0  0  0  0  0
   21.1643   -5.3632   20.9004 H   0  0  0  0  0  0  0  0  0  0  0  0
   19.8791   -5.2357   21.8997 H   0  0  0  0  0  0  0  0  0  0  0  0
   26.9745   -4.2918   25.8331 H   0  0  0  0  0  0  0  0  0  0  0  0
  1  6  1  0  0  0  0
  1 19  2  0  0  0  0
  2  7  1  0  0  0  0
  2 20  2  0  0  0  0
  3 14  1  0  0  0  0
  3 24  2  0  0  0  0
  4 19  1  0  0  0  0
  4 21  2  0  0  0  0
  5 20  1  0  0  0  0
  5 22  2  0  0  0  0
  6  9  1  0  0  0  0
  6 21  1  0  0  0  0
  7 22  1  0  0  0  0
  7 23  1  0  0  0  0
  8 13  1  0  0  0  0
  8 15  1  0  0  0  0
  8 19  1  0  0  0  0
 10 23  1  0  0  0  0
 11 24  1  0  0  0  0
 12 25  1  0  0  0  0
 13 16  1  0  0  0  0
 14 23  2  0  0  0  0
 15 25  1  0  0  0  0
 16 25  1  0  0  0  0
 17 18  1  0  0  0  0
 17 20  1  0  0  0  0
 18 21  1  0  0  0  0
 22 24  1  0  0  0  0
  9 26  1  0  0  0  0
  9 27  1  0  0  0  0
  9 28  1  0  0  0  0
 10 29  1  0  0  0  0
 10 30  1  0  0  0  0
 10 31  1  0  0  0  0
 11 32  1  0  0  0  0
 11 33  1  0  0  0  0
 11 34  1  0  0  0  0
 12 35  1  0  0  0  0
 12 36  1  0  0  0  0
 12 37  1  0  0  0  0
 13 38  1  0  0  0  0
 13 39  1  0  0  0  0
 14 40  1  0  0  0  0
 15 41  1  0  0  0  0
 15 42  1  0  0  0  0
 16 43  1  0  0  0  0
 16 44  1  0  0  0  0
 17 45  1  0  0  0  0
 17 46  1  0  0  0  0
 18 47  1  0  0  0  0
 18 48  1  0  0  0  0
 25 49  1  0  0  0  0
M  END
> <pdb_id>
5SFS

> <uniprot_id>
Q9Y233

> <usmiles>
N=1N2C(=NC1CCC3=NC(=NN3C)N4C[C@H](CC4)C)C(=NC=C2C)C

$$$$
IPL_A_300
          07192421023D 1   1.00000     0.00000     0
            
 31 32  0  0  0  0            999 V2000
   48.3144   29.4405    9.9440 P   0  0  0  0  0  0  0  0  0  0  0  0
   49.4421   30.2915   10.4231 O   0  0  0  0  0  0  0  0  0  0  0  0
   47.0066   30.1923    9.9421 O   0  0  0  0  0  0  0  0  0  0  0  0
   48.5478   28.6585    8.6876 O   0  0  0  0  0  0  0  0  0  0  0  0
   48.0946   28.2506   11.0391 O   0  0  0  0  0  0  0  0  0  0  0  0
   51.7479   27.5127   15.0879 N   0  0  0  0  0  0  0  0  0  0  0  0
   48.0774   28.6108   12.4330 C   0  0  0  0  0  0  0  0  0  0  0  0
   50.5613   28.2170   15.0528 C   0  0  0  0  0  0  0  0  0  0  0  0
   47.6774   27.4595   13.3197 C   0  0  0  0  0  0  0  0  0  0  0  0
   51.6850   23.8156   14.8352 C   0  0  0  0  0  0  0  0  0  0  0  0
   50.2985   23.6814   14.7610 C   0  0  0  0  0  0  0  0  0  0  0  0
   52.2877   25.0491   14.9333 C   0  0  0  0  0  0  0  0  0  0  0  0
   48.0323   27.7045   14.8027 C   0  0  0  0  0  0  0  0  0  0  0  0
   49.4627   24.7854   14.7980 C   0  0  0  0  0  0  0  0  0  0  0  0
   51.4498   26.1701   14.9752 C   0  0  0  0  0  0  0  0  0  0  0  0
   49.4940   27.3776   14.9444 C   0  0  0  0  0  0  0  0  0  0  0  0
   50.0482   26.0568   14.8979 C   0  0  0  0  0  0  0  0  0  0  0  0
   50.2893   29.7604   10.4102 H   0  0  0  0  0  0  0  0  0  0  0  0
   46.2770   29.5911    9.6161 H   0  0  0  0  0  0  0  0  0  0  0  0
   52.6627   27.9062   15.1790 H   0  0  0  0  0  0  0  0  0  0  0  0
   47.4256   29.3579   12.5635 H   0  0  0  0  0  0  0  0  0  0  0  0
   48.9922   28.9165   12.6970 H   0  0  0  0  0  0  0  0  0  0  0  0
   50.4939   29.2136   15.1007 H   0  0  0  0  0  0  0  0  0  0  0  0
   48.1509   26.6355   13.0085 H   0  0  0  0  0  0  0  0  0  0  0  0
   46.6894   27.3248   13.2443 H   0  0  0  0  0  0  0  0  0  0  0  0
   52.2556   22.9946   14.8167 H   0  0  0  0  0  0  0  0  0  0  0  0
   49.8992   22.7683   14.6793 H   0  0  0  0  0  0  0  0  0  0  0  0
   53.2827   25.1408   14.9729 H   0  0  0  0  0  0  0  0  0  0  0  0
   47.4855   27.1105   15.3927 H   0  0  0  0  0  0  0  0  0  0  0  0
   47.8658   28.6602   15.0456 H   0  0  0  0  0  0  0  0  0  0  0  0
   48.4693   24.6793   14.7547 H   0  0  0  0  0  0  0  0  0  0  0  0
  1  2  1  0  0  0  0
  1  3  1  0  0  0  0
  1  4  2  0  0  0  0
  1  5  1  0  0  0  0
  5  7  1  0  0  0  0
  6  8  1  0  0  0  0
  6 15  1  0  0  0  0
  7  9  1  0  0  0  0
  8 16  2  0  0  0  0
  9 13  1  0  0  0  0
 10 11  2  0  0  0  0
 10 12  1  0  0  0  0
 11 14  1  0  0  0  0
 12 15  2  0  0  0  0
 13 16  1  0  0  0  0
 14 17  2  0  0  0  0
 15 17  1  0  0  0  0
 16 17  1  0  0  0  0
  2 18  1  0  0  0  0
  3 19  1  0  0  0  0
  6 20  1  0  0  0  0
  7 21  1  0  0  0  0
  7 22  1  0  0  0  0
  8 23  1  0  0  0  0
  9 24  1  0  0  0  0
  9 25  1  0  0  0  0
 10 26  1  0  0  0  0
 11 27  1  0  0  0  0
 12 28  1  0  0  0  0
 13 29  1  0  0  0  0
 13 30  1  0  0  0  0
 14 31  1  0  0  0  0
M  END
> <pdb_id>
1QOP

> <uniprot_id>
P00929

> <usmiles>
P(=O)(OCCCC=1c2c(NC1)cccc2)(O)O

$$$$
IPR_F_402
          07202404053D 1   1.00000     0.00000     0
            
 26 25  0  0  0  0            999 V2000
    9.5912   74.5738   23.4601 P   0  0  0  0  0  0  0  0  0  0  0  0
    9.9014   74.9085   26.3233 P   0  0  0  0  0  0  0  0  0  0  0  0
    8.2662   74.0419   23.9206 O   0  0  0  0  0  0  0  0  0  0  0  0
   10.4810   73.6358   22.7891 O   0  0  0  0  0  0  0  0  0  0  0  0
    9.5955   75.9708   22.9922 O   0  0  0  0  0  0  0  0  0  0  0  0
   10.2115   73.8411   27.2560 O   0  0  0  0  0  0  0  0  0  0  0  0
    8.8326   75.9355   26.5380 O   0  0  0  0  0  0  0  0  0  0  0  0
   10.4224   74.6956   24.8792 O   0  0  0  0  0  0  0  0  0  0  0  0
   11.0083   75.9508   26.8779 O   0  0  0  0  0  0  0  0  0  0  0  0
   12.5156   78.1822   29.6493 C   0  0  0  0  0  0  0  0  0  0  0  0
   12.6242   75.5810   29.8181 C   0  0  0  0  0  0  0  0  0  0  0  0
   12.4799   75.6371   26.9630 C   0  0  0  0  0  0  0  0  0  0  0  0
   13.2949   76.8106   27.6115 C   0  0  0  0  0  0  0  0  0  0  0  0
   12.8542   76.8798   29.0375 C   0  0  0  0  0  0  0  0  0  0  0  0
    7.7486   74.7742   24.3630 H   0  0  0  0  0  0  0  0  0  0  0  0
   11.3261   74.1042   22.5315 H   0  0  0  0  0  0  0  0  0  0  0  0
   10.9601   73.2871   26.8917 H   0  0  0  0  0  0  0  0  0  0  0  0
   12.6662   79.0287   29.1387 H   0  0  0  0  0  0  0  0  0  0  0  0
   12.1359   78.2168   30.5738 H   0  0  0  0  0  0  0  0  0  0  0  0
   12.9057   74.8015   29.2586 H   0  0  0  0  0  0  0  0  0  0  0  0
   13.1628   75.5985   30.6605 H   0  0  0  0  0  0  0  0  0  0  0  0
   11.6539   75.4955   30.0446 H   0  0  0  0  0  0  0  0  0  0  0  0
   12.8289   75.4730   26.0404 H   0  0  0  0  0  0  0  0  0  0  0  0
   12.6029   74.8138   27.5172 H   0  0  0  0  0  0  0  0  0  0  0  0
   13.0956   77.6719   27.1441 H   0  0  0  0  0  0  0  0  0  0  0  0
   14.2757   76.6226   27.5598 H   0  0  0  0  0  0  0  0  0  0  0  0
  1  3  1  0  0  0  0
  1  4  1  0  0  0  0
  1  5  2  0  0  0  0
  1  8  1  0  0  0  0
  2  6  1  0  0  0  0
  2  7  2  0  0  0  0
  2  8  1  0  0  0  0
  2  9  1  0  0  0  0
  9 12  1  0  0  0  0
 10 14  2  0  0  0  0
 11 14  1  0  0  0  0
 12 13  1  0  0  0  0
 13 14  1  0  0  0  0
  3 15  1  0  0  0  0
  4 16  1  0  0  0  0
  6 17  1  0  0  0  0
 10 18  1  0  0  0  0
 10 19  1  0  0  0  0
 11 20  1  0  0  0  0
 11 21  1  0  0  0  0
 11 22  1  0  0  0  0
 12 23  1  0  0  0  0
 12 24  1  0  0  0  0
 13 25  1  0  0  0  0
 13 26  1  0  0  0  0
M  END
> <pdb_id>
4H5E

> <uniprot_id>
P14324

> <usmiles>
P(=O)(OP(=O)(O)O)(OCCC(=C)C)O

$$$$
IPT_A_1024
          07202404243D 1   1.00000     0.00000     0
            
 33 33  0  0  0  0            999 V2000
  -11.2110   -6.4680   -5.2570 S   0  0  0  0  0  0  0  0  0  0  0  0
   -6.0660   -6.2620   -1.4320 O   0  0  0  0  0  0  0  0  0  0  0  0
  -10.7690   -3.2800   -4.9430 O   0  0  0  0  0  0  0  0  0  0  0  0
   -9.8370   -2.4620   -2.3630 O   0  0  0  0  0  0  0  0  0  0  0  0
   -9.5300   -4.9740   -1.2000 O   0  0  0  0  0  0  0  0  0  0  0  0
   -9.0770   -6.2900   -3.7160 O   0  0  0  0  0  0  0  0  0  0  0  0
  -10.0900   -9.1130   -5.5710 C   0  0  0  0  0  0  0  0  0  0  0  0
  -10.5910   -7.7330   -7.5750 C   0  0  0  0  0  0  0  0  0  0  0  0
   -7.2060   -6.7900   -2.1590 C   0  0  0  0  0  0  0  0  0  0  0  0
  -10.1940   -7.6720   -6.1230 C   0  0  0  0  0  0  0  0  0  0  0  0
   -9.8030   -5.5120   -4.6710 C   0  0  2  0  0  0  0  0  0  0  0  0
  -10.3610   -4.2600   -3.9420 C   0  0  1  0  0  0  0  0  0  0  0  0
   -9.2730   -3.5480   -3.1270 C   0  0  2  0  0  0  0  0  0  0  0  0
   -8.5160   -4.5080   -2.1540 C   0  0  2  0  0  0  0  0  0  0  0  0
   -7.9370   -5.7170   -3.0120 C   0  0  2  0  0  0  0  0  0  0  0  0
   -5.6384   -6.9958   -0.9040 H   0  0  0  0  0  0  0  0  0  0  0  0
  -11.1308   -2.4675   -4.4859 H   0  0  0  0  0  0  0  0  0  0  0  0
   -9.1136   -2.0115   -1.8398 H   0  0  0  0  0  0  0  0  0  0  0  0
   -9.1075   -5.5983   -0.5429 H   0  0  0  0  0  0  0  0  0  0  0  0
   -9.4916   -9.6540   -6.1620 H   0  0  0  0  0  0  0  0  0  0  0  0
   -9.7115   -9.0890   -4.6457 H   0  0  0  0  0  0  0  0  0  0  0  0
  -10.9996   -9.5278   -5.5484 H   0  0  0  0  0  0  0  0  0  0  0  0
  -10.0209   -8.4044   -8.0485 H   0  0  0  0  0  0  0  0  0  0  0  0
  -11.5516   -8.0015   -7.6469 H   0  0  0  0  0  0  0  0  0  0  0  0
  -10.4640   -6.8336   -7.9934 H   0  0  0  0  0  0  0  0  0  0  0  0
   -7.8556   -7.1690   -1.5000 H   0  0  0  0  0  0  0  0  0  0  0  0
   -6.8864   -7.5164   -2.7675 H   0  0  0  0  0  0  0  0  0  0  0  0
   -9.2637   -7.3055   -6.1087 H   0  0  0  0  0  0  0  0  0  0  0  0
   -9.2133   -5.2453   -5.4333 H   0  0  0  0  0  0  0  0  0  0  0  0
  -11.1332   -4.5082   -3.3571 H   0  0  0  0  0  0  0  0  0  0  0  0
   -8.6065   -3.1648   -3.7665 H   0  0  0  0  0  0  0  0  0  0  0  0
   -7.7796   -4.0246   -1.6807 H   0  0  0  0  0  0  0  0  0  0  0  0
   -7.2949   -5.3522   -3.6863 H   0  0  0  0  0  0  0  0  0  0  0  0
  1 10  1  0  0  0  0
  1 11  1  0  0  0  0
  2  9  1  0  0  0  0
  3 12  1  0  0  0  0
  4 13  1  0  0  0  0
  5 14  1  0  0  0  0
  6 11  1  0  0  0  0
  6 15  1  0  0  0  0
  7 10  1  0  0  0  0
  8 10  1  0  0  0  0
  9 15  1  0  0  0  0
 11 12  1  0  0  0  0
 12 13  1  0  0  0  0
 13 14  1  0  0  0  0
 14 15  1  0  0  0  0
  2 16  1  0  0  0  0
  3 17  1  0  0  0  0
  4 18  1  0  0  0  0
  5 19  1  0  0  0  0
  7 20  1  0  0  0  0
  7 21  1  0  0  0  0
  7 22  1  0  0  0  0
  8 23  1  0  0  0  0
  8 24  1  0  0  0  0
  8 25  1  0  0  0  0
  9 26  1  0  0  0  0
  9 27  1  0  0  0  0
 10 28  1  0  0  0  0
 11 29  1  0  0  0  0
 12 30  1  0  0  0  0
 13 31  1  0  0  0  0
 14 32  1  0  0  0  0
 15 33  1  0  0  0  0
M  END
> <pdb_id>
3OGS

> <uniprot_id>
Q70SY0

> <usmiles>
S([C@@H]1O[C@@H]([C@H](O)[C@H](O)[C@H]1O)CO)C(C)C

$$$$
IPT_B_2001
          07192419033D 1   1.00000     0.00000     0
            
 33 33  0  0  0  0            999 V2000
   -9.3180   23.1880  -28.7960 S   0  0  0  0  0  0  0  0  0  0  0  0
  -15.3140   24.3400  -28.8400 O   0  0  0  0  0  0  0  0  0  0  0  0
  -10.2310   21.3830  -26.5060 O   0  0  0  0  0  0  0  0  0  0  0  0
  -12.5380   22.3110  -24.9500 O   0  0  0  0  0  0  0  0  0  0  0  0
  -13.0480   24.7240  -26.4210 O   0  0  0  0  0  0  0  0  0  0  0  0
  -11.8590   23.7880  -28.7310 O   0  0  0  0  0  0  0  0  0  0  0  0
   -7.7510   22.8080  -30.9290 C   0  0  0  0  0  0  0  0  0  0  0  0
  -10.2290   23.4750  -31.3990 C   0  0  0  0  0  0  0  0  0  0  0  0
  -13.9730   24.4460  -29.3280 C   0  0  0  0  0  0  0  0  0  0  0  0
   -9.2180   22.6930  -30.5640 C   0  0  0  0  0  0  0  0  0  0  0  0
  -10.9930   22.7200  -28.3610 C   0  0  2  0  0  0  0  0  0  0  0  0
  -10.9970   22.5730  -26.8440 C   0  0  1  0  0  0  0  0  0  0  0  0
  -12.4440   22.3610  -26.3710 C   0  0  2  0  0  0  0  0  0  0  0  0
  -13.3850   23.4380  -26.9300 C   0  0  2  0  0  0  0  0  0  0  0  0
  -13.2410   23.4560  -28.4520 C   0  0  2  0  0  0  0  0  0  0  0  0
  -15.9056   24.9616  -29.3534 H   0  0  0  0  0  0  0  0  0  0  0  0
  -10.2192   21.2650  -25.5131 H   0  0  0  0  0  0  0  0  0  0  0  0
  -13.4919   22.1724  -24.6837 H   0  0  0  0  0  0  0  0  0  0  0  0
  -13.6736   25.4065  -26.7989 H   0  0  0  0  0  0  0  0  0  0  0  0
   -7.6247   22.5506  -31.8870 H   0  0  0  0  0  0  0  0  0  0  0  0
   -7.4469   23.7511  -30.7944 H   0  0  0  0  0  0  0  0  0  0  0  0
   -7.2137   22.1982  -30.3464 H   0  0  0  0  0  0  0  0  0  0  0  0
  -10.1602   23.1930  -32.3559 H   0  0  0  0  0  0  0  0  0  0  0  0
  -11.1526   23.2907  -31.0628 H   0  0  0  0  0  0  0  0  0  0  0  0
  -10.0364   24.4535  -31.3252 H   0  0  0  0  0  0  0  0  0  0  0  0
  -13.6147   25.3718  -29.2079 H   0  0  0  0  0  0  0  0  0  0  0  0
  -13.9160   24.1891  -30.2928 H   0  0  0  0  0  0  0  0  0  0  0  0
   -9.4665   21.7260  -30.6197 H   0  0  0  0  0  0  0  0  0  0  0  0
  -11.2587   21.8662  -28.8086 H   0  0  0  0  0  0  0  0  0  0  0  0
  -10.5999   23.3821  -26.4108 H   0  0  0  0  0  0  0  0  0  0  0  0
  -12.7513   21.4778  -26.7254 H   0  0  0  0  0  0  0  0  0  0  0  0
  -14.3293   23.2177  -26.6853 H   0  0  0  0  0  0  0  0  0  0  0  0
  -13.4208   22.5349  -28.7974 H   0  0  0  0  0  0  0  0  0  0  0  0
  1 10  1  0  0  0  0
  1 11  1  0  0  0  0
  2  9  1  0  0  0  0
  3 12  1  0  0  0  0
  4 13  1  0  0  0  0
  5 14  1  0  0  0  0
  6 11  1  0  0  0  0
  6 15  1  0  0  0  0
  7 10  1  0  0  0  0
  8 10  1  0  0  0  0
  9 15  1  0  0  0  0
 11 12  1  0  0  0  0
 12 13  1  0  0  0  0
 13 14  1  0  0  0  0
 14 15  1  0  0  0  0
  2 16  1  0  0  0  0
  3 17  1  0  0  0  0
  4 18  1  0  0  0  0
  5 19  1  0  0  0  0
  7 20  1  0  0  0  0
  7 21  1  0  0  0  0
  7 22  1  0  0  0  0
  8 23  1  0  0  0  0
  8 24  1  0  0  0  0
  8 25  1  0  0  0  0
  9 26  1  0  0  0  0
  9 27  1  0  0  0  0
 10 28  1  0  0  0  0
 11 29  1  0  0  0  0
 12 30  1  0  0  0  0
 13 31  1  0  0  0  0
 14 32  1  0  0  0  0
 15 33  1  0  0  0  0
M  END
> <pdb_id>
1JYX

> <uniprot_id>
P00722

> <usmiles>
S([C@@H]1O[C@@H]([C@H](O)[C@H](O)[C@H]1O)CO)C(C)C

$$$$
IPZ_A_300
          07202408203D 1   1.00000     0.00000     0
            
 23 23  0  0  0  0            999 V2000
   51.4542   24.3404   39.2925 O   0  0  0  0  0  0  0  0  0  0  0  0
   52.1886   22.6437   40.7777 N   0  0  0  0  0  0  0  0  0  0  0  0
   50.1403   23.2374   42.4151 N   0  0  0  0  0  0  0  0  0  0  0  0
   52.7224   24.2562   38.6308 C   0  0  0  0  0  0  0  0  0  0  0  0
   48.7657   25.8158   42.0690 C   0  0  0  0  0  0  0  0  0  0  0  0
   48.0719   24.3684   40.1445 C   0  0  0  0  0  0  0  0  0  0  0  0
   52.0498   21.9744   41.9124 C   0  0  0  0  0  0  0  0  0  0  0  0
   50.9915   22.2840   42.7619 C   0  0  0  0  0  0  0  0  0  0  0  0
   51.3294   23.6152   40.4377 C   0  0  0  0  0  0  0  0  0  0  0  0
   49.2574   25.0126   40.8614 C   0  0  0  0  0  0  0  0  0  0  0  0
   50.2621   23.9297   41.2760 C   0  0  0  0  0  0  0  0  0  0  0  0
   52.7066   24.8224   37.8067 H   0  0  0  0  0  0  0  0  0  0  0  0
   53.4411   24.5816   39.2452 H   0  0  0  0  0  0  0  0  0  0  0  0
   52.9043   23.3057   38.3788 H   0  0  0  0  0  0  0  0  0  0  0  0
   49.5473   26.2337   42.5320 H   0  0  0  0  0  0  0  0  0  0  0  0
   48.1393   26.5316   41.7605 H   0  0  0  0  0  0  0  0  0  0  0  0
   48.2894   25.2065   42.7030 H   0  0  0  0  0  0  0  0  0  0  0  0
   48.4017   23.8463   39.3580 H   0  0  0  0  0  0  0  0  0  0  0  0
   47.5941   23.7561   40.7744 H   0  0  0  0  0  0  0  0  0  0  0  0
   47.4440   25.0812   39.8319 H   0  0  0  0  0  0  0  0  0  0  0  0
   52.6990   21.2540   42.1564 H   0  0  0  0  0  0  0  0  0  0  0  0
   50.8751   21.7918   43.6245 H   0  0  0  0  0  0  0  0  0  0  0  0
   49.7098   25.6390   40.2267 H   0  0  0  0  0  0  0  0  0  0  0  0
  1  4  1  0  0  0  0
  1  9  1  0  0  0  0
  2  7  2  0  0  0  0
  2  9  1  0  0  0  0
  3  8  2  0  0  0  0
  3 11  1  0  0  0  0
  5 10  1  0  0  0  0
  6 10  1  0  0  0  0
  7  8  1  0  0  0  0
  9 11  2  0  0  0  0
 10 11  1  0  0  0  0
  4 12  1  0  0  0  0
  4 13  1  0  0  0  0
  4 14  1  0  0  0  0
  5 15  1  0  0  0  0
  5 16  1  0  0  0  0
  5 17  1  0  0  0  0
  6 18  1  0  0  0  0
  6 19  1  0  0  0  0
  6 20  1  0  0  0  0
  7 21  1  0  0  0  0
  8 22  1  0  0  0  0
 10 23  1  0  0  0  0
M  END
> <pdb_id>
1QY2

> <uniprot_id>
P11588

> <usmiles>
O(c1nccnc1C(C)C)C

$$$$
IQ5_A_1225
          07192420423D 1   1.00000     0.00000     0
            
 26 27  0  0  0  0            999 V2000
   67.6646   34.5461   24.9196 S   0  0  0  0  0  0  0  0  0  0  0  0
   68.2715   39.3698   19.9895 O   0  0  0  0  0  0  0  0  0  0  0  0
   64.9846   33.6497   25.0925 N   0  0  0  0  0  0  0  0  0  0  0  0
   65.7267   34.6805   23.1417 N   0  0  0  0  0  0  0  0  0  0  0  0
   67.9794   37.1138   19.6497 N   0  0  0  0  0  0  0  0  0  0  0  0
   68.0822   38.6241   17.7286 C   0  0  0  0  0  0  0  0  0  0  0  0
   70.2972   37.1614   21.3044 C   0  0  0  0  0  0  0  0  0  0  0  0
   69.0774   35.9781   22.9532 C   0  0  0  0  0  0  0  0  0  0  0  0
   66.8295   35.9690   21.4055 C   0  0  0  0  0  0  0  0  0  0  0  0
   65.9219   34.2465   24.3987 C   0  0  0  0  0  0  0  0  0  0  0  0
   68.1436   38.4173   19.2428 C   0  0  0  0  0  0  0  0  0  0  0  0
   67.9451   35.3729   23.3848 C   0  0  0  0  0  0  0  0  0  0  0  0
   66.8051   35.3397   22.6000 C   0  0  0  0  0  0  0  0  0  0  0  0
   67.9676   36.6258   20.9196 C   0  0  0  0  0  0  0  0  0  0  0  0
   69.1298   36.5988   21.7030 C   0  0  0  0  0  0  0  0  0  0  0  0
   64.0684   33.5424   24.7064 H   0  0  0  0  0  0  0  0  0  0  0  0
   65.1853   33.3015   26.0081 H   0  0  0  0  0  0  0  0  0  0  0  0
   67.8528   36.4407   18.9211 H   0  0  0  0  0  0  0  0  0  0  0  0
   67.9762   37.7391   17.2753 H   0  0  0  0  0  0  0  0  0  0  0  0
   67.3033   39.2095   17.5034 H   0  0  0  0  0  0  0  0  0  0  0  0
   68.9271   39.0591   17.4171 H   0  0  0  0  0  0  0  0  0  0  0  0
   70.1805   37.5633   20.3961 H   0  0  0  0  0  0  0  0  0  0  0  0
   70.5619   37.8749   21.9531 H   0  0  0  0  0  0  0  0  0  0  0  0
   71.0101   36.4611   21.2699 H   0  0  0  0  0  0  0  0  0  0  0  0
   69.8883   35.9805   23.5385 H   0  0  0  0  0  0  0  0  0  0  0  0
   66.0015   35.9660   20.8449 H   0  0  0  0  0  0  0  0  0  0  0  0
  1 10  1  0  0  0  0
  1 12  1  0  0  0  0
  2 11  2  0  0  0  0
  3 10  1  0  0  0  0
  4 10  2  0  0  0  0
  4 13  1  0  0  0  0
  5 11  1  0  0  0  0
  5 14  1  0  0  0  0
  6 11  1  0  0  0  0
  7 15  1  0  0  0  0
  8 12  2  0  0  0  0
  8 15  1  0  0  0  0
  9 13  2  0  0  0  0
  9 14  1  0  0  0  0
 12 13  1  0  0  0  0
 14 15  2  0  0  0  0
  3 16  1  0  0  0  0
  3 17  1  0  0  0  0
  5 18  1  0  0  0  0
  6 19  1  0  0  0  0
  6 20  1  0  0  0  0
  6 21  1  0  0  0  0
  7 22  1  0  0  0  0
  7 23  1  0  0  0  0
  7 24  1  0  0  0  0
  8 25  1  0  0  0  0
  9 26  1  0  0  0  0
M  END
> <pdb_id>
5FND

> <uniprot_id>
P07900

> <usmiles>
S1c2c(N=C1N)cc(NC(=O)C)c(c2)C

$$$$
IQF_B_803
          07192416573D 1   1.00000     0.00000     0
            
 49 52  0  0  0  0            999 V2000
   22.9179   -5.7692   24.6864 N   0  0  0  0  0  0  0  0  0  0  0  0
   18.4797   -2.6048   20.7098 N   0  0  0  0  0  0  0  0  0  0  0  0
   16.3736   -1.9617   17.7030 N   0  0  0  0  0  0  0  0  0  0  0  0
   23.2531   -4.8604   22.7205 N   0  0  0  0  0  0  0  0  0  0  0  0
   19.8818   -3.5673   19.2307 N   0  0  0  0  0  0  0  0  0  0  0  0
   21.7306   -5.8273   23.9953 N   0  0  0  0  0  0  0  0  0  0  0  0
   17.9491   -2.5071   19.4508 N   0  0  0  0  0  0  0  0  0  0  0  0
   25.0902   -5.0361   24.3294 N   0  0  0  0  0  0  0  0  0  0  0  0
   20.4606   -6.3705   24.4957 C   0  0  0  0  0  0  0  0  0  0  0  0
   14.4940   -1.0820   19.6379 C   0  0  0  0  0  0  0  0  0  0  0  0
   19.3162   -3.8600   16.1203 C   0  0  0  0  0  0  0  0  0  0  0  0
   26.1425   -4.4801   23.5605 C   0  0  0  0  0  0  0  0  0  0  0  0
   25.5304   -5.4666   25.6535 C   0  0  0  0  0  0  0  0  0  0  0  0
   17.1795   -2.6281   16.8057 C   0  0  0  0  0  0  0  0  0  0  0  0
   27.4037   -5.0047   24.2367 C   0  0  0  0  0  0  0  0  0  0  0  0
   27.0088   -5.2408   25.6540 C   0  0  0  0  0  0  0  0  0  0  0  0
   15.8945   -1.2642   20.1038 C   0  0  0  0  0  0  0  0  0  0  0  0
   20.6452   -3.5806   21.6807 C   0  0  0  0  0  0  0  0  0  0  0  0
   20.8621   -5.0521   21.7841 C   0  0  0  0  0  0  0  0  0  0  0  0
   23.7942   -5.2112   23.9076 C   0  0  0  0  0  0  0  0  0  0  0  0
   19.6764   -3.2636   20.5749 C   0  0  0  0  0  0  0  0  0  0  0  0
   16.6859   -1.9231   19.0754 C   0  0  0  0  0  0  0  0  0  0  0  0
   21.9368   -5.2433   22.8266 C   0  0  0  0  0  0  0  0  0  0  0  0
   18.7729   -3.1183   18.5596 C   0  0  0  0  0  0  0  0  0  0  0  0
   18.4210   -3.2161   17.1672 C   0  0  0  0  0  0  0  0  0  0  0  0
   19.7603   -6.2879   23.7866 H   0  0  0  0  0  0  0  0  0  0  0  0
   20.5812   -7.3341   24.7344 H   0  0  0  0  0  0  0  0  0  0  0  0
   20.1759   -5.8593   25.3066 H   0  0  0  0  0  0  0  0  0  0  0  0
   13.9613   -0.6288   20.3526 H   0  0  0  0  0  0  0  0  0  0  0  0
   14.4883   -0.5200   18.8108 H   0  0  0  0  0  0  0  0  0  0  0  0
   14.0908   -1.9748   19.4370 H   0  0  0  0  0  0  0  0  0  0  0  0
   20.1403   -4.2167   16.5602 H   0  0  0  0  0  0  0  0  0  0  0  0
   18.8244   -4.6090   15.6764 H   0  0  0  0  0  0  0  0  0  0  0  0
   19.5725   -3.1776   15.4357 H   0  0  0  0  0  0  0  0  0  0  0  0
   26.1135   -3.4809   23.5869 H   0  0  0  0  0  0  0  0  0  0  0  0
   26.0921   -4.7901   22.6111 H   0  0  0  0  0  0  0  0  0  0  0  0
   25.3213   -6.4339   25.7974 H   0  0  0  0  0  0  0  0  0  0  0  0
   25.0900   -4.9208   26.3663 H   0  0  0  0  0  0  0  0  0  0  0  0
   16.8763   -2.7011   15.8555 H   0  0  0  0  0  0  0  0  0  0  0  0
   28.1384   -4.3284   24.1841 H   0  0  0  0  0  0  0  0  0  0  0  0
   27.7039   -5.8571   23.8084 H   0  0  0  0  0  0  0  0  0  0  0  0
   27.4806   -6.0455   26.0142 H   0  0  0  0  0  0  0  0  0  0  0  0
   27.2358   -4.4433   26.2128 H   0  0  0  0  0  0  0  0  0  0  0  0
   15.8966   -1.8248   20.9319 H   0  0  0  0  0  0  0  0  0  0  0  0
   16.2942   -0.3700   20.3056 H   0  0  0  0  0  0  0  0  0  0  0  0
   21.5187   -3.1324   21.4907 H   0  0  0  0  0  0  0  0  0  0  0  0
   20.2777   -3.2412   22.5466 H   0  0  0  0  0  0  0  0  0  0  0  0
   21.1619   -5.4215   20.9045 H   0  0  0  0  0  0  0  0  0  0  0  0
   20.0186   -5.5084   22.0673 H   0  0  0  0  0  0  0  0  0  0  0  0
  1  6  1  0  0  0  0
  1 20  2  0  0  0  0
  2  7  1  0  0  0  0
  2 21  2  0  0  0  0
  3 14  1  0  0  0  0
  3 22  2  0  0  0  0
  4 20  1  0  0  0  0
  4 23  2  0  0  0  0
  5 21  1  0  0  0  0
  5 24  2  0  0  0  0
  6  9  1  0  0  0  0
  6 23  1  0  0  0  0
  7 22  1  0  0  0  0
  7 24  1  0  0  0  0
  8 12  1  0  0  0  0
  8 13  1  0  0  0  0
  8 20  1  0  0  0  0
 10 17  1  0  0  0  0
 11 25  1  0  0  0  0
 12 15  1  0  0  0  0
 13 16  1  0  0  0  0
 14 25  2  0  0  0  0
 15 16  1  0  0  0  0
 17 22  1  0  0  0  0
 18 19  1  0  0  0  0
 18 21  1  0  0  0  0
 19 23  1  0  0  0  0
 24 25  1  0  0  0  0
  9 26  1  0  0  0  0
  9 27  1  0  0  0  0
  9 28  1  0  0  0  0
 10 29  1  0  0  0  0
 10 30  1  0  0  0  0
 10 31  1  0  0  0  0
 11 32  1  0  0  0  0
 11 33  1  0  0  0  0
 11 34  1  0  0  0  0
 12 35  1  0  0  0  0
 12 36  1  0  0  0  0
 13 37  1  0  0  0  0
 13 38  1  0  0  0  0
 14 39  1  0  0  0  0
 15 40  1  0  0  0  0
 15 41  1  0  0  0  0
 16 42  1  0  0  0  0
 16 43  1  0  0  0  0
 17 44  1  0  0  0  0
 17 45  1  0  0  0  0
 18 46  1  0  0  0  0
 18 47  1  0  0  0  0
 19 48  1  0  0  0  0
 19 49  1  0  0  0  0
M  END
> <pdb_id>
5SFW

> <uniprot_id>
Q9Y233

> <usmiles>
N=1N2C(=NC1CCC3=NC(=NN3C)N4CCCC4)C(=CN=C2CC)C

$$$$
IQR_A_406
          07202401123D 1   1.00000     0.00000     0
            
 38 40  0  0  0  0            999 V2000
   64.8832   34.9403    4.3216 O   0  0  0  0  0  0  0  0  0  0  0  0
   72.8658   36.2982    1.3855 N   0  0  0  0  0  0  0  0  0  0  0  0
   73.8296   37.7918   -0.0761 N   0  0  0  0  0  0  0  0  0  0  0  0
   68.5472   41.3480   -0.4106 N   0  0  0  0  0  0  0  0  0  0  0  0
   71.5793   38.0874    0.7405 N   0  0  0  0  0  0  0  0  0  0  0  0
   66.9180   34.9805    5.5863 C   0  0  0  0  0  0  0  0  0  0  0  0
   66.7160   33.6601    3.4517 C   0  0  0  0  0  0  0  0  0  0  0  0
   73.6965   38.9394   -0.7590 C   0  0  0  0  0  0  0  0  0  0  0  0
   69.8387   40.9978   -0.6842 C   0  0  0  0  0  0  0  0  0  0  0  0
   72.5508   39.7005   -0.7443 C   0  0  0  0  0  0  0  0  0  0  0  0
   66.7023   40.3057    0.9218 C   0  0  0  0  0  0  0  0  0  0  0  0
   66.3733   39.1968    1.6817 C   0  0  0  0  0  0  0  0  0  0  0  0
   66.9721   37.0804    2.7644 C   0  0  0  0  0  0  0  0  0  0  0  0
   68.6461   38.3551    1.5084 C   0  0  0  0  0  0  0  0  0  0  0  0
   66.7233   36.1156    3.4152 C   0  0  0  0  0  0  0  0  0  0  0  0
   72.7546   37.4178    0.6652 C   0  0  0  0  0  0  0  0  0  0  0  0
   67.9989   40.4264    0.4478 C   0  0  0  0  0  0  0  0  0  0  0  0
   71.4902   39.2143    0.0134 C   0  0  0  0  0  0  0  0  0  0  0  0
   67.3336   38.2223    1.9762 C   0  0  0  0  0  0  0  0  0  0  0  0
   70.1833   39.8689    0.0005 C   0  0  0  0  0  0  0  0  0  0  0  0
   68.9866   39.4665    0.7350 C   0  0  0  0  0  0  0  0  0  0  0  0
   66.3118   34.9272    4.1911 C   0  0  0  0  0  0  0  0  0  0  0  0
   64.4652   34.9058    3.4138 H   0  0  0  0  0  0  0  0  0  0  0  0
   72.0987   35.9859    1.9458 H   0  0  0  0  0  0  0  0  0  0  0  0
   73.7163   35.7726    1.3645 H   0  0  0  0  0  0  0  0  0  0  0  0
   68.0750   42.1495   -0.7776 H   0  0  0  0  0  0  0  0  0  0  0  0
   67.9155   34.9723    5.5169 H   0  0  0  0  0  0  0  0  0  0  0  0
   66.6228   35.8180    6.0462 H   0  0  0  0  0  0  0  0  0  0  0  0
   66.6138   34.1864    6.1125 H   0  0  0  0  0  0  0  0  0  0  0  0
   67.7107   33.6353    3.3521 H   0  0  0  0  0  0  0  0  0  0  0  0
   66.4128   32.8606    3.9702 H   0  0  0  0  0  0  0  0  0  0  0  0
   66.2901   33.6519    2.5470 H   0  0  0  0  0  0  0  0  0  0  0  0
   74.4702   39.2576   -1.3068 H   0  0  0  0  0  0  0  0  0  0  0  0
   70.4467   41.4986   -1.3003 H   0  0  0  0  0  0  0  0  0  0  0  0
   72.4837   40.5593   -1.2523 H   0  0  0  0  0  0  0  0  0  0  0  0
   66.0179   41.0060    0.7189 H   0  0  0  0  0  0  0  0  0  0  0  0
   65.4396   39.0907    2.0238 H   0  0  0  0  0  0  0  0  0  0  0  0
   69.3326   37.6613    1.7258 H   0  0  0  0  0  0  0  0  0  0  0  0
  1 22  1  0  0  0  0
  2 16  1  0  0  0  0
  3  8  1  0  0  0  0
  3 16  2  0  0  0  0
  4  9  1  0  0  0  0
  4 17  1  0  0  0  0
  5 16  1  0  0  0  0
  5 18  2  0  0  0  0
  6 22  1  0  0  0  0
  7 22  1  0  0  0  0
  8 10  2  0  0  0  0
  9 20  2  0  0  0  0
 10 18  1  0  0  0  0
 11 12  1  0  0  0  0
 11 17  2  0  0  0  0
 12 19  2  0  0  0  0
 13 15  3  0  0  0  0
 13 19  1  0  0  0  0
 14 19  1  0  0  0  0
 14 21  2  0  0  0  0
 15 22  1  0  0  0  0
 17 21  1  0  0  0  0
 18 20  1  0  0  0  0
 20 21  1  0  0  0  0
  1 23  1  0  0  0  0
  2 24  1  0  0  0  0
  2 25  1  0  0  0  0
  4 26  1  0  0  0  0
  6 27  1  0  0  0  0
  6 28  1  0  0  0  0
  6 29  1  0  0  0  0
  7 30  1  0  0  0  0
  7 31  1  0  0  0  0
  7 32  1  0  0  0  0
  8 33  1  0  0  0  0
  9 34  1  0  0  0  0
 10 35  1  0  0  0  0
 11 36  1  0  0  0  0
 12 37  1  0  0  0  0
 14 38  1  0  0  0  0
M  END
> <pdb_id>
7ZHO

> <uniprot_id>
Q5TCY1

> <usmiles>
OC(C#Cc1cc2c(NC=C2c3nc(ncc3)N)cc1)(C)C

$$$$
IRB_A_1
          07192419483D 1   1.00000     0.00000     0
            
 35 38  0  0  0  0            999 V2000
   46.7118   11.5718    7.7992 Br  0  0  0  0  0  0  0  0  0  0  0  0
   45.2820   11.1750   16.3820 O   0  0  0  0  0  0  0  0  0  0  0  0
   42.4779   13.1043   19.7854 O   0  0  0  0  0  0  0  0  0  0  0  0
   40.9572   14.6611   19.2037 O   0  0  0  0  0  0  0  0  0  0  0  0
   42.5122   12.9141   10.9304 O   0  0  0  0  0  0  0  0  0  0  0  0
   45.1318   11.4528   15.0698 N   0  0  0  0  0  0  0  0  0  0  0  0
   44.4558   12.1701    9.9816 N   0  0  0  0  0  0  0  0  0  0  0  0
   42.2760   12.6815   13.4682 N   0  0  0  0  0  0  0  0  0  0  0  0
   47.5404   10.1256   11.7190 C   0  0  0  0  0  0  0  0  0  0  0  0
   47.6604   10.4162   10.3429 C   0  0  0  0  0  0  0  0  0  0  0  0
   46.4042   10.5337   12.4655 C   0  0  0  0  0  0  0  0  0  0  0  0
   40.8924   13.5713   15.2855 C   0  0  0  0  0  0  0  0  0  0  0  0
   40.8067   13.7518   16.6590 C   0  0  0  0  0  0  0  0  0  0  0  0
   42.9788   12.6885   16.9565 C   0  0  0  0  0  0  0  0  0  0  0  0
   41.6952   13.6486   18.9693 C   0  0  0  0  0  0  0  0  0  0  0  0
   46.6271   11.0978    9.6816 C   0  0  0  0  0  0  0  0  0  0  0  0
   43.6199   12.3520   11.0066 C   0  0  0  0  0  0  0  0  0  0  0  0
   41.9950   12.9425   14.7379 C   0  0  0  0  0  0  0  0  0  0  0  0
   41.8358   13.3166   17.4863 C   0  0  0  0  0  0  0  0  0  0  0  0
   43.9699   11.9768   14.6768 C   0  0  0  0  0  0  0  0  0  0  0  0
   45.5218   11.5106   10.4196 C   0  0  0  0  0  0  0  0  0  0  0  0
   43.4357   11.9943   13.3778 C   0  0  0  0  0  0  0  0  0  0  0  0
   43.0416   12.5118   15.5570 C   0  0  0  0  0  0  0  0  0  0  0  0
   45.3892   11.2515   11.8223 C   0  0  0  0  0  0  0  0  0  0  0  0
   44.1083   11.7381   12.1723 C   0  0  0  0  0  0  0  0  0  0  0  0
   46.1914   10.7899   16.5392 H   0  0  0  0  0  0  0  0  0  0  0  0
   43.0179   12.3101   19.5067 H   0  0  0  0  0  0  0  0  0  0  0  0
   45.8659   11.2722   14.4152 H   0  0  0  0  0  0  0  0  0  0  0  0
   41.7106   12.9541   12.6897 H   0  0  0  0  0  0  0  0  0  0  0  0
   48.2718    9.6213   12.1780 H   0  0  0  0  0  0  0  0  0  0  0  0
   48.4790   10.1373    9.8408 H   0  0  0  0  0  0  0  0  0  0  0  0
   46.3298   10.3115   13.4376 H   0  0  0  0  0  0  0  0  0  0  0  0
   40.1562   13.8963   14.6918 H   0  0  0  0  0  0  0  0  0  0  0  0
   40.0028   14.1960   17.0545 H   0  0  0  0  0  0  0  0  0  0  0  0
   43.7208   12.3782   17.5508 H   0  0  0  0  0  0  0  0  0  0  0  0
  1 16  1  0  0  0  0
  2  6  1  0  0  0  0
  3 15  1  0  0  0  0
  4 15  2  0  0  0  0
  5 17  2  0  0  0  0
  6 20  1  0  0  0  0
  7 17  1  0  0  0  0
  7 21  2  0  0  0  0
  8 18  1  0  0  0  0
  8 22  1  0  0  0  0
  9 10  1  0  0  0  0
  9 11  2  0  0  0  0
 10 16  2  0  0  0  0
 11 24  1  0  0  0  0
 12 13  1  0  0  0  0
 12 18  2  0  0  0  0
 13 19  2  0  0  0  0
 14 19  1  0  0  0  0
 14 23  2  0  0  0  0
 15 19  1  0  0  0  0
 16 21  1  0  0  0  0
 17 25  1  0  0  0  0
 18 23  1  0  0  0  0
 20 22  2  0  0  0  0
 20 23  1  0  0  0  0
 21 24  1  0  0  0  0
 22 25  1  0  0  0  0
 24 25  2  0  0  0  0
  2 26  1  0  0  0  0
  3 27  1  0  0  0  0
  6 28  1  0  0  0  0
  8 29  1  0  0  0  0
  9 30  1  0  0  0  0
 10 31  1  0  0  0  0
 11 32  1  0  0  0  0
 12 33  1  0  0  0  0
 13 34  1  0  0  0  0
 14 35  1  0  0  0  0
M  END
> <pdb_id>
3KVW

> <uniprot_id>
Q92630

> <usmiles>
BrC=1C2=NC(=O)C(C=3Nc4c(cc(cc4)C(=O)O)C3NO)=C2C=CC1

$$$$
IRG_A_401
          07192423243D 1   1.00000     0.00000     0
            
 37 40  0  0  0  0            999 V2000
   25.4880  -13.5930   -5.7910 N   0  0  0  0  0  0  0  0  0  0  0  0
   23.9510  -17.0200  -10.7870 N   0  0  0  0  0  0  0  0  0  0  0  0
   24.5870  -15.0370  -11.8930 N   0  0  0  0  0  0  0  0  0  0  0  0
   24.0140  -17.2130   -8.4700 N   0  0  0  0  0  0  0  0  0  0  0  0
   22.0700  -21.6240  -10.1730 C   0  0  0  0  0  0  0  0  0  0  0  0
   22.3560  -20.8030  -11.2580 C   0  0  0  0  0  0  0  0  0  0  0  0
   22.3690  -21.1600   -8.8750 C   0  0  0  0  0  0  0  0  0  0  0  0
   25.4390  -13.2950   -8.1480 C   0  0  0  0  0  0  0  0  0  0  0  0
   25.6170  -16.2920  -13.8110 C   0  0  0  0  0  0  0  0  0  0  0  0
   25.1050  -14.9780  -14.3790 C   0  0  0  0  0  0  0  0  0  0  0  0
   22.9280  -19.5440  -11.0690 C   0  0  0  0  0  0  0  0  0  0  0  0
   22.9540  -19.8950   -8.6880 C   0  0  0  0  0  0  0  0  0  0  0  0
   25.1500  -13.8640   -9.3930 C   0  0  0  0  0  0  0  0  0  0  0  0
   24.7850  -15.4040   -7.1300 C   0  0  0  0  0  0  0  0  0  0  0  0
   25.2360  -14.0890   -7.0050 C   0  0  0  0  0  0  0  0  0  0  0  0
   23.7610  -17.7670   -9.6720 C   0  0  0  0  0  0  0  0  0  0  0  0
   24.4140  -15.7530  -10.7530 C   0  0  0  0  0  0  0  0  0  0  0  0
   24.3650  -15.6630  -13.1980 C   0  0  0  0  0  0  0  0  0  0  0  0
   24.4770  -15.9560   -8.3730 C   0  0  0  0  0  0  0  0  0  0  0  0
   23.2420  -19.0650   -9.7990 C   0  0  0  0  0  0  0  0  0  0  0  0
   24.6550  -15.1760   -9.5110 C   0  0  0  0  0  0  0  0  0  0  0  0
   25.3430  -14.1592   -4.9796 H   0  0  0  0  0  0  0  0  0  0  0  0
   25.8217  -12.6554   -5.6933 H   0  0  0  0  0  0  0  0  0  0  0  0
   24.8671  -14.0784  -11.8415 H   0  0  0  0  0  0  0  0  0  0  0  0
   21.6603  -22.5259  -10.3102 H   0  0  0  0  0  0  0  0  0  0  0  0
   22.1495  -21.1181  -12.1843 H   0  0  0  0  0  0  0  0  0  0  0  0
   22.1636  -21.7344   -8.0826 H   0  0  0  0  0  0  0  0  0  0  0  0
   25.7778  -12.3571   -8.0734 H   0  0  0  0  0  0  0  0  0  0  0  0
   26.4704  -16.3092  -13.2900 H   0  0  0  0  0  0  0  0  0  0  0  0
   25.5387  -17.1305  -14.3502 H   0  0  0  0  0  0  0  0  0  0  0  0
   24.6856  -14.9542  -15.2865 H   0  0  0  0  0  0  0  0  0  0  0  0
   25.6174  -14.1329  -14.2263 H   0  0  0  0  0  0  0  0  0  0  0  0
   23.1174  -18.9707  -11.8661 H   0  0  0  0  0  0  0  0  0  0  0  0
   23.1683  -19.5791   -7.7637 H   0  0  0  0  0  0  0  0  0  0  0  0
   25.2992  -13.3239  -10.2213 H   0  0  0  0  0  0  0  0  0  0  0  0
   24.6802  -15.9639   -6.3081 H   0  0  0  0  0  0  0  0  0  0  0  0
   23.4799  -16.0932  -13.3756 H   0  0  0  0  0  0  0  0  0  0  0  0
  1 15  1  0  0  0  0
  2 16  1  0  0  0  0
  2 17  2  0  0  0  0
  3 17  1  0  0  0  0
  3 18  1  0  0  0  0
  4 16  2  0  0  0  0
  4 19  1  0  0  0  0
  5  6  2  0  0  0  0
  5  7  1  0  0  0  0
  6 11  1  0  0  0  0
  7 12  2  0  0  0  0
  8 13  1  0  0  0  0
  8 15  2  0  0  0  0
  9 10  1  0  0  0  0
  9 18  1  0  0  0  0
 10 18  1  0  0  0  0
 11 20  2  0  0  0  0
 12 20  1  0  0  0  0
 13 21  2  0  0  0  0
 14 15  1  0  0  0  0
 14 19  2  0  0  0  0
 16 20  1  0  0  0  0
 17 21  1  0  0  0  0
 19 21  1  0  0  0  0
  1 22  1  0  0  0  0
  1 23  1  0  0  0  0
  3 24  1  0  0  0  0
  5 25  1  0  0  0  0
  6 26  1  0  0  0  0
  7 27  1  0  0  0  0
  8 28  1  0  0  0  0
  9 29  1  0  0  0  0
  9 30  1  0  0  0  0
 10 31  1  0  0  0  0
 10 32  1  0  0  0  0
 11 33  1  0  0  0  0
 12 34  1  0  0  0  0
 13 35  1  0  0  0  0
 14 36  1  0  0  0  0
 18 37  1  0  0  0  0
M  END
> <pdb_id>
4DLI

> <uniprot_id>
Q16539

> <usmiles>
n1c(nc2c(c1NC3CC3)ccc(N)c2)c4ccccc4

$$$$
ISN_B_601
          07212403183D 1   1.00000     0.00000     0
            
 16 17  0  0  0  0            999 V2000
   18.7647  123.9405   19.7188 O   0  0  0  0  0  0  0  0  0  0  0  0
   16.7125  123.9586   21.9330 O   0  0  0  0  0  0  0  0  0  0  0  0
   18.5651  126.2334   19.8960 N   0  0  0  0  0  0  0  0  0  0  0  0
   17.0275  129.1391   21.5035 C   0  0  0  0  0  0  0  0  0  0  0  0
   16.1919  128.4534   22.4187 C   0  0  0  0  0  0  0  0  0  0  0  0
   17.8728  128.4717   20.5969 C   0  0  0  0  0  0  0  0  0  0  0  0
   16.1553  127.0617   22.4963 C   0  0  0  0  0  0  0  0  0  0  0  0
   18.2459  124.9802   20.2468 C   0  0  0  0  0  0  0  0  0  0  0  0
   17.2336  124.9741   21.3473 C   0  0  0  0  0  0  0  0  0  0  0  0
   17.8542  127.0947   20.6424 C   0  0  0  0  0  0  0  0  0  0  0  0
   16.9846  126.3953   21.6027 C   0  0  0  0  0  0  0  0  0  0  0  0
   19.2272  126.4871   19.1908 H   0  0  0  0  0  0  0  0  0  0  0  0
   17.0167  130.1391   21.5013 H   0  0  0  0  0  0  0  0  0  0  0  0
   15.6074  128.9862   23.0308 H   0  0  0  0  0  0  0  0  0  0  0  0
   18.4551  128.9700   19.9545 H   0  0  0  0  0  0  0  0  0  0  0  0
   15.5731  126.5772   23.1493 H   0  0  0  0  0  0  0  0  0  0  0  0
  1  8  2  0  0  0  0
  2  9  2  0  0  0  0
  3  8  1  0  0  0  0
  3 10  1  0  0  0  0
  4  5  2  0  0  0  0
  4  6  1  0  0  0  0
  5  7  1  0  0  0  0
  6 10  2  0  0  0  0
  7 11  2  0  0  0  0
  8  9  1  0  0  0  0
  9 11  1  0  0  0  0
 10 11  1  0  0  0  0
  3 12  1  0  0  0  0
  4 13  1  0  0  0  0
  5 14  1  0  0  0  0
  6 15  1  0  0  0  0
  7 16  1  0  0  0  0
M  END
> <pdb_id>
1OJA

> <uniprot_id>
P27338

> <usmiles>
O=C1Nc2c(cccc2)C1=O

$$$$
IT5_A_263
          07192416293D 1   1.00000     0.00000     0
            
 31 32  0  0  0  0            999 V2000
   -4.8276    0.1399   16.0419 S   0  0  0  0  0  0  0  0  0  0  0  0
   -7.1374    1.8760   16.7320 S   0  0  0  0  0  0  0  0  0  0  0  0
   -4.6207    4.1519   10.9558 N   0  0  0  0  0  0  0  0  0  0  0  0
   -5.2115    2.5532   14.8901 N   0  0  0  0  0  0  0  0  0  0  0  0
   -6.0374    3.7069   14.5417 C   0  0  0  0  0  0  0  0  0  0  0  0
   -4.1415    2.2134   13.9779 C   0  0  0  0  0  0  0  0  0  0  0  0
   -4.3432    4.3431   12.0508 C   0  0  0  0  0  0  0  0  0  0  0  0
   -1.1210    7.9142   13.7136 C   0  0  0  0  0  0  0  0  0  0  0  0
   -0.9726    6.8979   12.7066 C   0  0  0  0  0  0  0  0  0  0  0  0
   -2.1785    7.8292   14.6539 C   0  0  0  0  0  0  0  0  0  0  0  0
   -1.8839    5.8548   12.6635 C   0  0  0  0  0  0  0  0  0  0  0  0
   -3.1057    6.7831   14.6208 C   0  0  0  0  0  0  0  0  0  0  0  0
   -5.1801    4.9016   14.2588 C   0  0  0  0  0  0  0  0  0  0  0  0
   -3.2625    3.3951   13.9661 C   0  0  0  0  0  0  0  0  0  0  0  0
   -5.5952    1.7035   15.9414 C   0  0  0  0  0  0  0  0  0  0  0  0
   -2.9704    5.7828   13.6068 C   0  0  0  0  0  0  0  0  0  0  0  0
   -3.9667    4.6042   13.5199 C   0  0  0  0  0  0  0  0  0  0  0  0
   -3.9410   -0.0110   15.6047 H   0  0  0  0  0  0  0  0  0  0  0  0
   -6.6500    3.9150   15.3043 H   0  0  0  0  0  0  0  0  0  0  0  0
   -6.5784    3.4906   13.7290 H   0  0  0  0  0  0  0  0  0  0  0  0
   -4.5030    2.0348   13.0628 H   0  0  0  0  0  0  0  0  0  0  0  0
   -3.6446    1.4087   14.3029 H   0  0  0  0  0  0  0  0  0  0  0  0
   -0.4788    8.6799   13.7503 H   0  0  0  0  0  0  0  0  0  0  0  0
   -0.2225    6.9434   12.0469 H   0  0  0  0  0  0  0  0  0  0  0  0
   -2.2634    8.5344   15.3577 H   0  0  0  0  0  0  0  0  0  0  0  0
   -1.7859    5.1425   11.9685 H   0  0  0  0  0  0  0  0  0  0  0  0
   -3.8466    6.7352   15.2908 H   0  0  0  0  0  0  0  0  0  0  0  0
   -4.9218    5.3156   15.1317 H   0  0  0  0  0  0  0  0  0  0  0  0
   -5.7188    5.5547   13.7266 H   0  0  0  0  0  0  0  0  0  0  0  0
   -2.4969    3.2210   13.3468 H   0  0  0  0  0  0  0  0  0  0  0  0
   -2.9149    3.5474   14.8912 H   0  0  0  0  0  0  0  0  0  0  0  0
  1 15  1  0  0  0  0
  2 15  2  0  0  0  0
  3  7  3  0  0  0  0
  4  5  1  0  0  0  0
  4  6  1  0  0  0  0
  4 15  1  0  0  0  0
  5 13  1  0  0  0  0
  6 14  1  0  0  0  0
  7 17  1  0  0  0  0
  8  9  2  0  0  0  0
  8 10  1  0  0  0  0
  9 11  1  0  0  0  0
 10 12  2  0  0  0  0
 11 16  2  0  0  0  0
 12 16  1  0  0  0  0
 13 17  1  0  0  0  0
 14 17  1  0  0  0  0
 16 17  1  0  0  0  0
  1 18  1  0  0  0  0
  5 19  1  0  0  0  0
  5 20  1  0  0  0  0
  6 21  1  0  0  0  0
  6 22  1  0  0  0  0
  8 23  1  0  0  0  0
  9 24  1  0  0  0  0
 10 25  1  0  0  0  0
 11 26  1  0  0  0  0
 12 27  1  0  0  0  0
 13 28  1  0  0  0  0
 13 29  1  0  0  0  0
 14 30  1  0  0  0  0
 14 31  1  0  0  0  0
M  END
> <pdb_id>
3P5L

> <uniprot_id>
P00918

> <usmiles>
S=C(S)N1CCC(C#N)(c2ccccc2)CC1

$$$$
ITA_A_600
          07202404503D 1   1.00000     0.00000     0
            
 38 40  0  0  0  0            999 V2000
   65.4495   -8.1951   39.5714 S   0  0  0  0  0  0  0  0  0  0  0  0
   66.7874   -8.0705   40.0726 O   0  0  0  0  0  0  0  0  0  0  0  0
   64.9634   -7.2301   38.5961 O   0  0  0  0  0  0  0  0  0  0  0  0
   66.5873   -9.8400   33.7811 O   0  0  0  0  0  0  0  0  0  0  0  0
   68.6559   -9.1599   33.3879 O   0  0  0  0  0  0  0  0  0  0  0  0
   62.6143   -6.3333   40.6565 O   0  0  0  0  0  0  0  0  0  0  0  0
   62.7192   -5.9448   42.8562 O   0  0  0  0  0  0  0  0  0  0  0  0
   66.9302   -8.8644   37.0541 O   0  0  0  0  0  0  0  0  0  0  0  0
   62.7869   -9.4909   41.6506 O   0  0  0  0  0  0  0  0  0  0  0  0
   67.2094  -10.9063   36.1741 O   0  0  0  0  0  0  0  0  0  0  0  0
   64.4291   -8.2013   40.7079 N   0  0  0  0  0  0  0  0  0  0  0  0
   68.2699  -10.2397   35.4799 C   0  0  0  0  0  0  0  0  0  0  0  0
   64.3956   -7.3471   41.8863 C   0  0  0  0  0  0  0  0  0  0  0  0
   62.3186  -14.0527   38.9778 C   0  0  0  0  0  0  0  0  0  0  0  0
   61.8261  -13.3049   40.0500 C   0  0  0  0  0  0  0  0  0  0  0  0
   63.3539  -13.5655   38.1583 C   0  0  0  0  0  0  0  0  0  0  0  0
   62.3678  -12.0391   40.3324 C   0  0  0  0  0  0  0  0  0  0  0  0
   64.9311  -11.8064   37.6341 C   0  0  0  0  0  0  0  0  0  0  0  0
   67.8554   -9.7077   34.1432 C   0  0  0  0  0  0  0  0  0  0  0  0
   63.1622   -6.4720   41.8552 C   0  0  0  0  0  0  0  0  0  0  0  0
   66.6001  -10.0414   37.0059 C   0  0  0  0  0  0  0  0  0  0  0  0
   63.6533   -9.2840   40.8186 C   0  0  0  0  0  0  0  0  0  0  0  0
   64.9920   -9.7953   38.9695 C   0  0  0  0  0  0  0  0  0  0  0  0
   63.8937  -12.3095   38.4373 C   0  0  0  0  0  0  0  0  0  0  0  0
   65.4895  -10.5409   37.8934 C   0  0  0  0  0  0  0  0  0  0  0  0
   63.3959  -11.5622   39.5161 C   0  0  0  0  0  0  0  0  0  0  0  0
   63.9652  -10.3103   39.7501 C   0  0  0  0  0  0  0  0  0  0  0  0
   65.9358  -10.2856   34.3951 H   0  0  0  0  0  0  0  0  0  0  0  0
   63.0206   -6.7901   39.8652 H   0  0  0  0  0  0  0  0  0  0  0  0
   69.0191  -10.8883   35.3457 H   0  0  0  0  0  0  0  0  0  0  0  0
   68.5870   -9.4757   36.0418 H   0  0  0  0  0  0  0  0  0  0  0  0
   65.2116   -6.7692   41.8999 H   0  0  0  0  0  0  0  0  0  0  0  0
   64.3769   -7.9168   42.7080 H   0  0  0  0  0  0  0  0  0  0  0  0
   61.9272  -14.9533   38.7885 H   0  0  0  0  0  0  0  0  0  0  0  0
   61.0878  -13.6703   40.6169 H   0  0  0  0  0  0  0  0  0  0  0  0
   63.6957  -14.1086   37.3915 H   0  0  0  0  0  0  0  0  0  0  0  0
   62.0260  -11.4941   41.0979 H   0  0  0  0  0  0  0  0  0  0  0  0
   65.2760  -12.3529   36.8709 H   0  0  0  0  0  0  0  0  0  0  0  0
  1  2  2  0  0  0  0
  1  3  2  0  0  0  0
  1 11  1  0  0  0  0
  1 23  1  0  0  0  0
  4 19  1  0  0  0  0
  5 19  2  0  0  0  0
  6 20  1  0  0  0  0
  7 20  2  0  0  0  0
  8 21  2  0  0  0  0
  9 22  2  0  0  0  0
 10 12  1  0  0  0  0
 10 21  1  0  0  0  0
 11 13  1  0  0  0  0
 11 22  1  0  0  0  0
 12 19  1  0  0  0  0
 13 20  1  0  0  0  0
 14 15  2  0  0  0  0
 14 16  1  0  0  0  0
 15 17  1  0  0  0  0
 16 24  2  0  0  0  0
 17 26  2  0  0  0  0
 18 24  1  0  0  0  0
 18 25  2  0  0  0  0
 21 25  1  0  0  0  0
 22 27  1  0  0  0  0
 23 25  1  0  0  0  0
 23 27  2  0  0  0  0
 24 26  1  0  0  0  0
 26 27  1  0  0  0  0
  4 28  1  0  0  0  0
  6 29  1  0  0  0  0
 12 30  1  0  0  0  0
 12 31  1  0  0  0  0
 13 32  1  0  0  0  0
 13 33  1  0  0  0  0
 14 34  1  0  0  0  0
 15 35  1  0  0  0  0
 16 36  1  0  0  0  0
 17 37  1  0  0  0  0
 18 38  1  0  0  0  0
M  END
> <pdb_id>
2NVC

> <uniprot_id>
P15121

> <usmiles>
S1(=O)(=O)N(C(=O)c2c1c(cc3c2cccc3)C(=O)OCC(=O)O)CC(=O)O

$$$$
ITB_A_600
          07202404503D 1   1.00000     0.00000     0
            
 32 34  0  0  0  0            999 V2000
   63.6164   -8.1129   40.6828 S   0  0  0  0  0  0  0  0  0  0  0  0
   63.0792   -6.8883   40.1042 O   0  0  0  0  0  0  0  0  0  0  0  0
   62.7348   -9.0240   41.3801 O   0  0  0  0  0  0  0  0  0  0  0  0
   64.3956  -11.4519   40.8843 O   0  0  0  0  0  0  0  0  0  0  0  0
   63.5439  -12.2980   39.0338 O   0  0  0  0  0  0  0  0  0  0  0  0
   62.8736   -6.2508   42.7953 O   0  0  0  0  0  0  0  0  0  0  0  0
   63.7076   -6.3536   44.8187 O   0  0  0  0  0  0  0  0  0  0  0  0
   66.7237   -9.2434   39.0805 O   0  0  0  0  0  0  0  0  0  0  0  0
   64.4907   -8.7658   39.5985 N   0  0  0  0  0  0  0  0  0  0  0  0
   69.9037   -7.4754   42.9618 C   0  0  0  0  0  0  0  0  0  0  0  0
   69.8753   -8.1269   41.7163 C   0  0  0  0  0  0  0  0  0  0  0  0
   63.8922   -9.9446   38.9741 C   0  0  0  0  0  0  0  0  0  0  0  0
   68.7355   -7.0524   43.5875 C   0  0  0  0  0  0  0  0  0  0  0  0
   68.6762   -8.3774   41.0464 C   0  0  0  0  0  0  0  0  0  0  0  0
   66.3355   -6.9635   43.3768 C   0  0  0  0  0  0  0  0  0  0  0  0
   63.9385  -11.2804   39.6370 C   0  0  0  0  0  0  0  0  0  0  0  0
   63.8664   -6.5516   43.6400 C   0  0  0  0  0  0  0  0  0  0  0  0
   65.8177   -8.8330   39.8103 C   0  0  0  0  0  0  0  0  0  0  0  0
   65.0376   -7.7235   41.6652 C   0  0  0  0  0  0  0  0  0  0  0  0
   67.5538   -7.3171   42.8699 C   0  0  0  0  0  0  0  0  0  0  0  0
   65.0541   -7.0868   42.8946 C   0  0  0  0  0  0  0  0  0  0  0  0
   67.4905   -7.9681   41.6228 C   0  0  0  0  0  0  0  0  0  0  0  0
   66.2193   -8.1366   41.0848 C   0  0  0  0  0  0  0  0  0  0  0  0
   64.7232  -10.6663   41.4092 H   0  0  0  0  0  0  0  0  0  0  0  0
   62.9869   -6.4081   41.8143 H   0  0  0  0  0  0  0  0  0  0  0  0
   70.7837   -7.3124   43.4081 H   0  0  0  0  0  0  0  0  0  0  0  0
   70.7363   -8.4184   41.2993 H   0  0  0  0  0  0  0  0  0  0  0  0
   64.3405  -10.0532   38.0868 H   0  0  0  0  0  0  0  0  0  0  0  0
   62.9252   -9.7310   38.8350 H   0  0  0  0  0  0  0  0  0  0  0  0
   68.7351   -6.5961   44.4773 H   0  0  0  0  0  0  0  0  0  0  0  0
   68.6762   -8.8458   40.1629 H   0  0  0  0  0  0  0  0  0  0  0  0
   66.3857   -6.5291   44.2761 H   0  0  0  0  0  0  0  0  0  0  0  0
  1  2  2  0  0  0  0
  1  3  2  0  0  0  0
  1  9  1  0  0  0  0
  1 19  1  0  0  0  0
  4 16  1  0  0  0  0
  5 16  2  0  0  0  0
  6 17  1  0  0  0  0
  7 17  2  0  0  0  0
  8 18  2  0  0  0  0
  9 12  1  0  0  0  0
  9 18  1  0  0  0  0
 10 11  1  0  0  0  0
 10 13  2  0  0  0  0
 11 14  2  0  0  0  0
 12 16  1  0  0  0  0
 13 20  1  0  0  0  0
 14 22  1  0  0  0  0
 15 20  2  0  0  0  0
 15 21  1  0  0  0  0
 17 21  1  0  0  0  0
 18 23  1  0  0  0  0
 19 21  2  0  0  0  0
 19 23  1  0  0  0  0
 20 22  1  0  0  0  0
 22 23  2  0  0  0  0
  4 24  1  0  0  0  0
  6 25  1  0  0  0  0
 10 26  1  0  0  0  0
 11 27  1  0  0  0  0
 12 28  1  0  0  0  0
 12 29  1  0  0  0  0
 13 30  1  0  0  0  0
 14 31  1  0  0  0  0
 15 32  1  0  0  0  0
M  END
> <pdb_id>
2NVD

> <uniprot_id>
P15121

> <usmiles>
S1(=O)(=O)N(C(=O)c2c1c(cc3c2cccc3)C(=O)O)CC(=O)O

$$$$
ITE_A_501
          07202407253D 1   1.00000     0.00000     0
            
 25 27  0  0  0  0            999 V2000
  103.9682   16.9798   24.0939 O   0  0  0  0  0  0  0  0  0  0  0  0
  103.3129   17.4034   16.5947 N   0  0  0  0  0  0  0  0  0  0  0  0
  101.7964   16.2261   24.5150 N   0  0  0  0  0  0  0  0  0  0  0  0
  100.3064   15.8790   22.7593 N   0  0  0  0  0  0  0  0  0  0  0  0
  101.7669   16.7602   18.1944 N   0  0  0  0  0  0  0  0  0  0  0  0
  103.7201   17.3268   18.8246 N   0  0  0  0  0  0  0  0  0  0  0  0
  102.3880   17.2051   15.4791 C   0  0  0  0  0  0  0  0  0  0  0  0
  100.5739   15.8576   24.0781 C   0  0  0  0  0  0  0  0  0  0  0  0
  100.8409   16.2459   20.4710 C   0  0  0  0  0  0  0  0  0  0  0  0
  103.4666   17.0426   21.3081 C   0  0  0  0  0  0  0  0  0  0  0  0
  102.9435   17.1761   17.8256 C   0  0  0  0  0  0  0  0  0  0  0  0
  102.7331   16.6051   23.6121 C   0  0  0  0  0  0  0  0  0  0  0  0
  101.1997   16.2540   21.8260 C   0  0  0  0  0  0  0  0  0  0  0  0
  101.8122   16.6446   19.5500 C   0  0  0  0  0  0  0  0  0  0  0  0
  103.0782   17.0190   19.9653 C   0  0  0  0  0  0  0  0  0  0  0  0
  102.4885   16.6417   22.2352 C   0  0  0  0  0  0  0  0  0  0  0  0
  104.2441   17.7185   16.4112 H   0  0  0  0  0  0  0  0  0  0  0  0
  102.0082   16.2196   25.4922 H   0  0  0  0  0  0  0  0  0  0  0  0
  100.9862   16.5648   17.6010 H   0  0  0  0  0  0  0  0  0  0  0  0
  102.8488   17.4289   14.6203 H   0  0  0  0  0  0  0  0  0  0  0  0
  102.0901   16.2508   15.4588 H   0  0  0  0  0  0  0  0  0  0  0  0
  101.5928   17.8002   15.5956 H   0  0  0  0  0  0  0  0  0  0  0  0
   99.8717   15.5707   24.7297 H   0  0  0  0  0  0  0  0  0  0  0  0
   99.9273   15.9662   20.1760 H   0  0  0  0  0  0  0  0  0  0  0  0
  104.3825   17.3269   21.5914 H   0  0  0  0  0  0  0  0  0  0  0  0
  1 12  2  0  0  0  0
  2  7  1  0  0  0  0
  2 11  1  0  0  0  0
  3  8  1  0  0  0  0
  3 12  1  0  0  0  0
  4  8  2  0  0  0  0
  4 13  1  0  0  0  0
  5 11  1  0  0  0  0
  5 14  1  0  0  0  0
  6 11  2  0  0  0  0
  6 15  1  0  0  0  0
  9 13  2  0  0  0  0
  9 14  1  0  0  0  0
 10 15  1  0  0  0  0
 10 16  2  0  0  0  0
 12 16  1  0  0  0  0
 13 16  1  0  0  0  0
 14 15  2  0  0  0  0
  2 17  1  0  0  0  0
  3 18  1  0  0  0  0
  5 19  1  0  0  0  0
  7 20  1  0  0  0  0
  7 21  1  0  0  0  0
  7 22  1  0  0  0  0
  8 23  1  0  0  0  0
  9 24  1  0  0  0  0
 10 25  1  0  0  0  0
M  END
> <pdb_id>
3S1G

> <uniprot_id>
P28720

> <usmiles>
O=C1NC=Nc2c1cc3N=C(Nc3c2)NC

$$$$
IUL_A_1001
          07192416373D 1   1.00000     0.00000     0
            
 47 50  0  0  0  0            999 V2000
  -10.1783   33.3213    1.1840 F   0  0  0  0  0  0  0  0  0  0  0  0
  -10.8454   35.1949    0.0962 F   0  0  0  0  0  0  0  0  0  0  0  0
  -10.1717   33.4174   -1.0350 F   0  0  0  0  0  0  0  0  0  0  0  0
   -6.5343   37.7819   -2.2999 O   0  0  0  0  0  0  0  0  0  0  0  0
   -3.6012   33.8691   -5.9579 O   0  0  0  0  0  0  0  0  0  0  0  0
  -10.1110   35.2390   -9.3638 N   0  0  0  0  0  0  0  0  0  0  0  0
   -3.5941   32.6875   -4.1119 N   0  0  0  0  0  0  0  0  0  0  0  0
   -5.4775   37.1580   -4.1112 N   0  0  0  0  0  0  0  0  0  0  0  0
   -3.8122   32.5736   -2.7594 N   0  0  0  0  0  0  0  0  0  0  0  0
   -5.8611   35.6905   -2.2871 N   0  0  0  0  0  0  0  0  0  0  0  0
   -2.5338   32.8341   -2.0881 C   0  0  0  0  0  0  0  0  0  0  0  0
   -9.1882   35.3517   -8.7177 C   0  0  0  0  0  0  0  0  0  0  0  0
   -4.8652   33.3988   -2.1425 C   0  0  0  0  0  0  0  0  0  0  0  0
   -6.6931   35.6690    1.3785 C   0  0  0  0  0  0  0  0  0  0  0  0
   -5.9804   35.8838    0.2092 C   0  0  0  0  0  0  0  0  0  0  0  0
   -7.9620   35.0995    1.3419 C   0  0  0  0  0  0  0  0  0  0  0  0
   -6.8526   36.0156   -8.2444 C   0  0  0  0  0  0  0  0  0  0  0  0
   -8.3046   35.1825   -6.4621 C   0  0  0  0  0  0  0  0  0  0  0  0
   -5.8257   36.1695   -7.3092 C   0  0  0  0  0  0  0  0  0  0  0  0
   -7.2819   35.3360   -5.5609 C   0  0  0  0  0  0  0  0  0  0  0  0
   -7.7999   34.9316   -1.0432 C   0  0  0  0  0  0  0  0  0  0  0  0
   -5.9684   36.8917   -2.8883 C   0  0  0  0  0  0  0  0  0  0  0  0
   -3.9322   33.7703   -4.8016 C   0  0  0  0  0  0  0  0  0  0  0  0
   -4.9479   36.0435   -4.9368 C   0  0  2  0  0  0  0  0  0  0  0  0
   -6.5107   35.5204   -1.0231 C   0  0  0  0  0  0  0  0  0  0  0  0
   -5.1456   34.6681   -2.8952 C   0  0  0  0  0  0  0  0  0  0  0  0
   -8.0990   35.5119   -7.8106 C   0  0  0  0  0  0  0  0  0  0  0  0
   -6.0389   35.8293   -5.9725 C   0  0  0  0  0  0  0  0  0  0  0  0
   -8.5242   34.7247    0.1242 C   0  0  0  0  0  0  0  0  0  0  0  0
   -4.6696   34.7884   -4.1761 C   0  0  0  0  0  0  0  0  0  0  0  0
   -9.9191   34.1451    0.0998 C   0  0  0  0  0  0  0  0  0  0  0  0
   -3.1641   31.9249   -4.5951 H   0  0  0  0  0  0  0  0  0  0  0  0
   -5.4691   38.0950   -4.4604 H   0  0  0  0  0  0  0  0  0  0  0  0
   -2.6557   32.7594   -1.0984 H   0  0  0  0  0  0  0  0  0  0  0  0
   -1.8554   32.1652   -2.3919 H   0  0  0  0  0  0  0  0  0  0  0  0
   -2.2190   33.7554   -2.3166 H   0  0  0  0  0  0  0  0  0  0  0  0
   -4.5783   33.6373   -1.2147 H   0  0  0  0  0  0  0  0  0  0  0  0
   -5.7073   32.8609   -2.1032 H   0  0  0  0  0  0  0  0  0  0  0  0
   -6.2911   35.9261    2.2573 H   0  0  0  0  0  0  0  0  0  0  0  0
   -5.0744   36.3049    0.2527 H   0  0  0  0  0  0  0  0  0  0  0  0
   -8.4710   34.9590    2.1911 H   0  0  0  0  0  0  0  0  0  0  0  0
   -6.7077   36.2578   -9.2037 H   0  0  0  0  0  0  0  0  0  0  0  0
   -9.1930   34.8374   -6.1594 H   0  0  0  0  0  0  0  0  0  0  0  0
   -4.9364   36.5240   -7.5983 H   0  0  0  0  0  0  0  0  0  0  0  0
   -7.4259   35.0932   -4.6016 H   0  0  0  0  0  0  0  0  0  0  0  0
   -8.1978   34.6584   -1.9190 H   0  0  0  0  0  0  0  0  0  0  0  0
   -4.1115   36.3425   -5.3963 H   0  0  0  0  0  0  0  0  0  0  0  0
  1 31  1  0  0  0  0
  2 31  1  0  0  0  0
  3 31  1  0  0  0  0
  4 22  2  0  0  0  0
  5 23  2  0  0  0  0
  6 12  3  0  0  0  0
  7  9  1  0  0  0  0
  7 23  1  0  0  0  0
  8 22  1  0  0  0  0
  8 24  1  0  0  0  0
  9 11  1  0  0  0  0
  9 13  1  0  0  0  0
 10 22  1  0  0  0  0
 10 25  1  0  0  0  0
 10 26  1  0  0  0  0
 12 27  1  0  0  0  0
 13 26  1  0  0  0  0
 14 15  2  0  0  0  0
 14 16  1  0  0  0  0
 15 25  1  0  0  0  0
 16 29  2  0  0  0  0
 17 19  1  0  0  0  0
 17 27  2  0  0  0  0
 18 20  2  0  0  0  0
 18 27  1  0  0  0  0
 19 28  2  0  0  0  0
 20 28  1  0  0  0  0
 21 25  2  0  0  0  0
 21 29  1  0  0  0  0
 23 30  1  0  0  0  0
 24 28  1  0  0  0  0
 24 30  1  0  0  0  0
 26 30  2  0  0  0  0
 29 31  1  0  0  0  0
  7 32  1  0  0  0  0
  8 33  1  0  0  0  0
 11 34  1  0  0  0  0
 11 35  1  0  0  0  0
 11 36  1  0  0  0  0
 13 37  1  0  0  0  0
 13 38  1  0  0  0  0
 14 39  1  0  0  0  0
 15 40  1  0  0  0  0
 16 41  1  0  0  0  0
 17 42  1  0  0  0  0
 18 43  1  0  0  0  0
 19 44  1  0  0  0  0
 20 45  1  0  0  0  0
 21 46  1  0  0  0  0
 24 47  1  0  0  0  0
M  END
> <pdb_id>
5A8Z

> <uniprot_id>
P08246

> <usmiles>
FC(F)(F)c1cc(N2C(=O)N[C@H](c3ccc(C#N)cc3)C=4C(=O)NN(CC24)C)ccc1

$$$$
IUY_A_1001
          07192416373D 1   1.00000     0.00000     0
            
 52 55  0  0  0  0            999 V2000
  -10.4093   33.5053    1.2842 F   0  0  0  0  0  0  0  0  0  0  0  0
  -10.9646   35.2647    0.0257 F   0  0  0  0  0  0  0  0  0  0  0  0
  -10.2647   33.3344   -0.9208 F   0  0  0  0  0  0  0  0  0  0  0  0
   -3.7435   32.4067   -4.2181 O   0  0  0  0  0  0  0  0  0  0  0  0
   -3.5816   33.6473   -6.0628 O   0  0  0  0  0  0  0  0  0  0  0  0
   -9.9478   34.8212   -9.6645 N   0  0  0  0  0  0  0  0  0  0  0  0
   -6.4223   37.7770   -2.4385 N   0  0  0  0  0  0  0  0  0  0  0  0
   -5.4910   36.8335   -4.1690 N   0  0  0  0  0  0  0  0  0  0  0  0
   -5.9262   35.4210   -2.2655 N   0  0  0  0  0  0  0  0  0  0  0  0
   -2.9839   32.7625   -8.2751 C   0  0  0  0  0  0  0  0  0  0  0  0
   -4.9433   33.1513   -2.0658 C   0  0  0  0  0  0  0  0  0  0  0  0
   -3.1401   32.4726   -6.7672 C   0  0  0  0  0  0  0  0  0  0  0  0
   -9.1055   34.9469   -8.9128 C   0  0  0  0  0  0  0  0  0  0  0  0
   -6.2783   38.7289   -3.3859 C   0  0  0  0  0  0  0  0  0  0  0  0
   -5.7103   38.1541   -4.4776 C   0  0  0  0  0  0  0  0  0  0  0  0
   -6.7359   35.5516    1.3425 C   0  0  0  0  0  0  0  0  0  0  0  0
   -6.0517   35.6688    0.1538 C   0  0  0  0  0  0  0  0  0  0  0  0
   -6.7287   35.3870   -8.3849 C   0  0  0  0  0  0  0  0  0  0  0  0
   -8.3510   35.0863   -6.6012 C   0  0  0  0  0  0  0  0  0  0  0  0
   -8.0366   35.0690    1.3287 C   0  0  0  0  0  0  0  0  0  0  0  0
   -5.7315   35.5920   -7.4305 C   0  0  0  0  0  0  0  0  0  0  0  0
   -7.3490   35.2897   -5.6569 C   0  0  0  0  0  0  0  0  0  0  0  0
   -7.9710   34.8252   -1.0587 C   0  0  0  0  0  0  0  0  0  0  0  0
   -3.9945   33.4716   -4.7804 C   0  0  0  0  0  0  0  0  0  0  0  0
   -5.9674   36.6512   -2.8957 C   0  0  0  0  0  0  0  0  0  0  0  0
   -6.6409   35.2947   -1.0558 C   0  0  0  0  0  0  0  0  0  0  0  0
   -5.1920   34.4146   -2.8697 C   0  0  0  0  0  0  0  0  0  0  0  0
   -8.0561   35.1304   -7.9633 C   0  0  0  0  0  0  0  0  0  0  0  0
   -4.9527   35.7504   -5.0039 C   0  0  2  0  0  0  0  0  0  0  0  0
   -6.0254   35.5254   -6.0635 C   0  0  0  0  0  0  0  0  0  0  0  0
   -8.6585   34.7042    0.1390 C   0  0  0  0  0  0  0  0  0  0  0  0
   -4.7298   34.5188   -4.1531 C   0  0  0  0  0  0  0  0  0  0  0  0
  -10.0846   34.1971    0.1348 C   0  0  0  0  0  0  0  0  0  0  0  0
   -2.6771   31.9341   -8.7437 H   0  0  0  0  0  0  0  0  0  0  0  0
   -3.8639   33.0520   -8.6518 H   0  0  0  0  0  0  0  0  0  0  0  0
   -2.3097   33.4891   -8.4068 H   0  0  0  0  0  0  0  0  0  0  0  0
   -4.4056   32.5090   -2.6121 H   0  0  0  0  0  0  0  0  0  0  0  0
   -4.4420   33.3803   -1.2314 H   0  0  0  0  0  0  0  0  0  0  0  0
   -5.8186   32.7321   -1.8244 H   0  0  0  0  0  0  0  0  0  0  0  0
   -3.8127   31.7433   -6.6417 H   0  0  0  0  0  0  0  0  0  0  0  0
   -2.2585   32.1804   -6.3967 H   0  0  0  0  0  0  0  0  0  0  0  0
   -6.5435   39.6891   -3.2988 H   0  0  0  0  0  0  0  0  0  0  0  0
   -5.4928   38.6066   -5.3424 H   0  0  0  0  0  0  0  0  0  0  0  0
   -6.3011   35.8111    2.2049 H   0  0  0  0  0  0  0  0  0  0  0  0
   -5.1182   36.0273    0.1564 H   0  0  0  0  0  0  0  0  0  0  0  0
   -6.5076   35.4211   -9.3595 H   0  0  0  0  0  0  0  0  0  0  0  0
   -9.2880   34.9075   -6.3011 H   0  0  0  0  0  0  0  0  0  0  0  0
   -8.5366   34.9817    2.1903 H   0  0  0  0  0  0  0  0  0  0  0  0
   -4.7968   35.7885   -7.7264 H   0  0  0  0  0  0  0  0  0  0  0  0
   -7.5728   35.2678   -4.6825 H   0  0  0  0  0  0  0  0  0  0  0  0
   -8.4158   34.5808   -1.9204 H   0  0  0  0  0  0  0  0  0  0  0  0
   -4.0955   36.0359   -5.4327 H   0  0  0  0  0  0  0  0  0  0  0  0
  1 33  1  0  0  0  0
  2 33  1  0  0  0  0
  3 33  1  0  0  0  0
  4 24  2  0  0  0  0
  5 12  1  0  0  0  0
  5 24  1  0  0  0  0
  6 13  3  0  0  0  0
  7 14  1  0  0  0  0
  7 25  2  0  0  0  0
  8 15  1  0  0  0  0
  8 25  1  0  0  0  0
  8 29  1  0  0  0  0
  9 25  1  0  0  0  0
  9 26  1  0  0  0  0
  9 27  1  0  0  0  0
 10 12  1  0  0  0  0
 11 27  1  0  0  0  0
 13 28  1  0  0  0  0
 14 15  2  0  0  0  0
 16 17  2  0  0  0  0
 16 20  1  0  0  0  0
 17 26  1  0  0  0  0
 18 21  1  0  0  0  0
 18 28  2  0  0  0  0
 19 22  2  0  0  0  0
 19 28  1  0  0  0  0
 20 31  2  0  0  0  0
 21 30  2  0  0  0  0
 22 30  1  0  0  0  0
 23 26  2  0  0  0  0
 23 31  1  0  0  0  0
 24 32  1  0  0  0  0
 27 32  2  0  0  0  0
 29 30  1  0  0  0  0
 29 32  1  0  0  0  0
 31 33  1  0  0  0  0
 10 34  1  0  0  0  0
 10 35  1  0  0  0  0
 10 36  1  0  0  0  0
 11 37  1  0  0  0  0
 11 38  1  0  0  0  0
 11 39  1  0  0  0  0
 12 40  1  0  0  0  0
 12 41  1  0  0  0  0
 14 42  1  0  0  0  0
 15 43  1  0  0  0  0
 16 44  1  0  0  0  0
 17 45  1  0  0  0  0
 18 46  1  0  0  0  0
 19 47  1  0  0  0  0
 20 48  1  0  0  0  0
 21 49  1  0  0  0  0
 22 50  1  0  0  0  0
 23 51  1  0  0  0  0
 29 52  1  0  0  0  0
M  END
> <pdb_id>
5A8X

> <uniprot_id>
P08246

> <usmiles>
FC(F)(F)c1cc(N2C3=NC=CN3[C@H](c4ccc(C#N)cc4)C(C(=O)OCC)=C2C)ccc1

$$$$
IV7_A_2401
          07192418053D 1   1.00000     0.00000     0
            
 51 54  0  0  0  0            999 V2000
    9.1210   16.6190   11.9932 F   0  0  0  0  0  0  0  0  0  0  0  0
    7.7141   16.6473    5.8811 O   0  0  0  0  0  0  0  0  0  0  0  0
    5.1235   14.6790    9.1625 O   0  0  0  0  0  0  0  0  0  0  0  0
    2.9723   14.1625   10.8449 N   0  0  0  0  0  0  0  0  0  0  0  0
    2.3283   20.8630    6.5250 N   0  0  0  0  0  0  0  0  0  0  0  0
    1.9341   16.2165   10.1670 N   0  0  0  0  0  0  0  0  0  0  0  0
    3.6652   20.7933    6.5624 N   0  0  0  0  0  0  0  0  0  0  0  0
    6.3005   18.4831    6.4197 N   0  0  0  0  0  0  0  0  0  0  0  0
    4.4044   21.8440    5.8867 C   0  0  0  0  0  0  0  0  0  0  0  0
    5.9392   18.6338    4.9970 C   0  0  0  0  0  0  0  0  0  0  0  0
    6.9800   13.5133    8.1990 C   0  0  0  0  0  0  0  0  0  0  0  0
    0.4265   19.6180    7.3339 C   0  0  0  0  0  0  0  0  0  0  0  0
    1.9437   17.3755    9.4154 C   0  0  0  0  0  0  0  0  0  0  0  0
    5.6778   19.4531    7.4101 C   0  0  0  0  0  0  0  0  0  0  0  0
    9.0647   17.9117   10.0077 C   0  0  0  0  0  0  0  0  0  0  0  0
    8.5823   18.0951    8.6912 C   0  0  0  0  0  0  0  0  0  0  0  0
    7.7811   15.8172   10.2044 C   0  0  0  0  0  0  0  0  0  0  0  0
    4.0269   16.8070    8.4657 C   0  0  0  0  0  0  0  0  0  0  0  0
    8.6629   16.7813   10.7493 C   0  0  0  0  0  0  0  0  0  0  0  0
    7.2280   17.4136    6.7208 C   0  0  0  0  0  0  0  0  0  0  0  0
    2.9925   15.3376   10.0681 C   0  0  0  0  0  0  0  0  0  0  0  0
    6.2955   14.8854    8.3110 C   0  0  2  0  0  0  0  0  0  0  0  0
    4.0862   15.6030    9.2081 C   0  0  0  0  0  0  0  0  0  0  0  0
    1.9004   19.7986    7.2092 C   0  0  0  0  0  0  0  0  0  0  0  0
    4.1628   19.6968    7.2622 C   0  0  0  0  0  0  0  0  0  0  0  0
    2.9779   17.7378    8.5275 C   0  0  0  0  0  0  0  0  0  0  0  0
    7.6880   17.1391    8.1166 C   0  0  0  0  0  0  0  0  0  0  0  0
    7.2644   15.9616    8.8695 C   0  0  0  0  0  0  0  0  0  0  0  0
    2.9943   18.9980    7.7179 C   0  0  0  0  0  0  0  0  0  0  0  0
    3.7300   13.5123   10.7878 H   0  0  0  0  0  0  0  0  0  0  0  0
    2.2004   13.9786   11.4535 H   0  0  0  0  0  0  0  0  0  0  0  0
    5.3855   21.6788    5.9870 H   0  0  0  0  0  0  0  0  0  0  0  0
    4.1647   21.8488    4.9159 H   0  0  0  0  0  0  0  0  0  0  0  0
    4.1721   22.7283    6.2918 H   0  0  0  0  0  0  0  0  0  0  0  0
    6.4139   17.9387    4.4571 H   0  0  0  0  0  0  0  0  0  0  0  0
    4.9513   18.5215    4.8903 H   0  0  0  0  0  0  0  0  0  0  0  0
    6.2076   19.5433    4.6795 H   0  0  0  0  0  0  0  0  0  0  0  0
    7.7942   13.5929    7.6239 H   0  0  0  0  0  0  0  0  0  0  0  0
    7.2450   13.1976    9.1101 H   0  0  0  0  0  0  0  0  0  0  0  0
    6.3460   12.8568    7.7901 H   0  0  0  0  0  0  0  0  0  0  0  0
    0.2356   18.7919    7.8641 H   0  0  0  0  0  0  0  0  0  0  0  0
    0.0317   20.4107    7.7983 H   0  0  0  0  0  0  0  0  0  0  0  0
    0.0232   19.5302    6.4231 H   0  0  0  0  0  0  0  0  0  0  0  0
    1.1667   17.9983    9.5068 H   0  0  0  0  0  0  0  0  0  0  0  0
    6.1402   20.3337    7.3067 H   0  0  0  0  0  0  0  0  0  0  0  0
    5.8413   19.0968    8.3301 H   0  0  0  0  0  0  0  0  0  0  0  0
    9.6885   18.5810   10.4114 H   0  0  0  0  0  0  0  0  0  0  0  0
    8.8668   18.8943    8.1617 H   0  0  0  0  0  0  0  0  0  0  0  0
    7.5140   15.0258   10.7543 H   0  0  0  0  0  0  0  0  0  0  0  0
    4.7894   17.0095    7.8512 H   0  0  0  0  0  0  0  0  0  0  0  0
    5.9884   15.1681    7.4022 H   0  0  0  0  0  0  0  0  0  0  0  0
  1 19  1  0  0  0  0
  2 20  2  0  0  0  0
  3 22  1  0  0  0  0
  3 23  1  0  0  0  0
  4 21  1  0  0  0  0
  5  7  1  0  0  0  0
  5 24  2  0  0  0  0
  6 13  1  0  0  0  0
  6 21  2  0  0  0  0
  7  9  1  0  0  0  0
  7 25  1  0  0  0  0
  8 10  1  0  0  0  0
  8 14  1  0  0  0  0
  8 20  1  0  0  0  0
 11 22  1  0  0  0  0
 12 24  1  0  0  0  0
 13 26  2  0  0  0  0
 14 25  1  0  0  0  0
 15 16  1  0  0  0  0
 15 19  2  0  0  0  0
 16 27  2  0  0  0  0
 17 19  1  0  0  0  0
 17 28  2  0  0  0  0
 18 23  2  0  0  0  0
 18 26  1  0  0  0  0
 20 27  1  0  0  0  0
 21 23  1  0  0  0  0
 22 28  1  0  0  0  0
 24 29  1  0  0  0  0
 25 29  2  0  0  0  0
 26 29  1  0  0  0  0
 27 28  1  0  0  0  0
  4 30  1  0  0  0  0
  4 31  1  0  0  0  0
  9 32  1  0  0  0  0
  9 33  1  0  0  0  0
  9 34  1  0  0  0  0
 10 35  1  0  0  0  0
 10 36  1  0  0  0  0
 10 37  1  0  0  0  0
 11 38  1  0  0  0  0
 11 39  1  0  0  0  0
 11 40  1  0  0  0  0
 12 41  1  0  0  0  0
 12 42  1  0  0  0  0
 12 43  1  0  0  0  0
 13 44  1  0  0  0  0
 14 45  1  0  0  0  0
 14 46  1  0  0  0  0
 15 47  1  0  0  0  0
 16 48  1  0  0  0  0
 17 49  1  0  0  0  0
 18 50  1  0  0  0  0
 22 51  1  0  0  0  0
M  END
> <pdb_id>
4CMU

> <uniprot_id>
Q9UM73

> <usmiles>
Fc1cc2c(cc1)C(=O)N(CC=3N(N=C(C3c4cnc(N)c(O[C@@H]2C)c4)C)C)C

$$$$
IVL_A_901
          07192422373D 1   1.00000     0.00000     0
            
 30 30  0  0  0  0            999 V2000
   20.8920   26.5750   88.5800 O   0  0  0  0  0  0  0  0  0  0  0  0
   22.9340   27.3330   88.2630 O   0  0  0  0  0  0  0  0  0  0  0  0
   22.5310   32.1420   88.2900 N   0  3  0  0  0  0  0  0  0  0  0  0
   22.5100   32.5920   89.6990 C   0  0  0  0  0  0  0  0  0  0  0  0
   21.9340   33.1590   87.3770 C   0  0  0  0  0  0  0  0  0  0  0  0
   23.9090   31.8790   87.7860 C   0  0  0  0  0  0  0  0  0  0  0  0
   21.5730   31.0740   88.0260 C   0  0  0  0  0  0  0  0  0  0  0  0
   22.8010   33.1980   86.1520 C   0  0  0  0  0  0  0  0  0  0  0  0
   23.8190   32.0870   86.2900 C   0  0  0  0  0  0  0  0  0  0  0  0
   21.8110   29.7500   88.6350 C   0  0  0  0  0  0  0  0  0  0  0  0
   21.1390   28.7540   87.6630 C   0  0  0  0  0  0  0  0  0  0  0  0
   21.6300   27.4540   88.1920 C   0  0  0  0  0  0  0  0  0  0  0  0
   19.9007   26.6898   88.5157 H   0  0  0  0  0  0  0  0  0  0  0  0
   22.9168   31.8872   90.2801 H   0  0  0  0  0  0  0  0  0  0  0  0
   23.0340   33.4392   89.7862 H   0  0  0  0  0  0  0  0  0  0  0  0
   21.5650   32.7538   89.9832 H   0  0  0  0  0  0  0  0  0  0  0  0
   21.9221   34.0555   87.8199 H   0  0  0  0  0  0  0  0  0  0  0  0
   21.0010   32.8963   87.1310 H   0  0  0  0  0  0  0  0  0  0  0  0
   24.1878   30.9417   87.9953 H   0  0  0  0  0  0  0  0  0  0  0  0
   24.5609   32.5193   88.1922 H   0  0  0  0  0  0  0  0  0  0  0  0
   21.5427   30.9424   87.0352 H   0  0  0  0  0  0  0  0  0  0  0  0
   20.6808   31.3911   88.3476 H   0  0  0  0  0  0  0  0  0  0  0  0
   23.2646   34.0817   86.0882 H   0  0  0  0  0  0  0  0  0  0  0  0
   22.2448   33.0535   85.3336 H   0  0  0  0  0  0  0  0  0  0  0  0
   23.5058   31.2555   85.8312 H   0  0  0  0  0  0  0  0  0  0  0  0
   24.7032   32.3628   85.9131 H   0  0  0  0  0  0  0  0  0  0  0  0
   21.3923   29.6970   89.5416 H   0  0  0  0  0  0  0  0  0  0  0  0
   22.7910   29.5656   88.7092 H   0  0  0  0  0  0  0  0  0  0  0  0
   21.4394   28.9028   86.7209 H   0  0  0  0  0  0  0  0  0  0  0  0
   20.1419   28.8145   87.7084 H   0  0  0  0  0  0  0  0  0  0  0  0
  1 12  1  0  0  0  0
  2 12  2  0  0  0  0
  3  4  1  0  0  0  0
  3  5  1  0  0  0  0
  3  6  1  0  0  0  0
  3  7  1  0  0  0  0
  5  8  1  0  0  0  0
  6  9  1  0  0  0  0
  7 10  1  0  0  0  0
  8  9  1  0  0  0  0
 10 11  1  0  0  0  0
 11 12  1  0  0  0  0
  1 13  1  0  0  0  0
  4 14  1  0  0  0  0
  4 15  1  0  0  0  0
  4 16  1  0  0  0  0
  5 17  1  0  0  0  0
  5 18  1  0  0  0  0
  6 19  1  0  0  0  0
  6 20  1  0  0  0  0
  7 21  1  0  0  0  0
  7 22  1  0  0  0  0
  8 23  1  0  0  0  0
  8 24  1  0  0  0  0
  9 25  1  0  0  0  0
  9 26  1  0  0  0  0
 10 27  1  0  0  0  0
 10 28  1  0  0  0  0
 11 29  1  0  0  0  0
 11 30  1  0  0  0  0
M  CHG  1   3   1
M  END
> <pdb_id>
4BG1

> <uniprot_id>
O75936

> <usmiles>
O=C(O)CCC[N+]1(CCCC1)C

$$$$
IVT_A_803
          07192416573D 1   1.00000     0.00000     0
            
 46 49  0  0  0  0            999 V2000
   22.6590   -5.5574   24.7252 N   0  0  0  0  0  0  0  0  0  0  0  0
   18.5172   -2.4489   20.5091 N   0  0  0  0  0  0  0  0  0  0  0  0
   16.9039   -2.5484   16.7473 N   0  0  0  0  0  0  0  0  0  0  0  0
   23.1017   -4.7519   22.7080 N   0  0  0  0  0  0  0  0  0  0  0  0
   19.7621   -3.4363   18.9721 N   0  0  0  0  0  0  0  0  0  0  0  0
   21.5085   -5.5814   24.0190 N   0  0  0  0  0  0  0  0  0  0  0  0
   17.8111   -2.3833   19.3423 N   0  0  0  0  0  0  0  0  0  0  0  0
   24.9018   -4.9341   24.3019 N   0  0  0  0  0  0  0  0  0  0  0  0
   20.2002   -6.0205   24.4648 C   0  0  0  0  0  0  0  0  0  0  0  0
   15.7462   -1.1172   20.0862 C   0  0  0  0  0  0  0  0  0  0  0  0
   18.9320   -3.7808   15.9497 C   0  0  0  0  0  0  0  0  0  0  0  0
   25.3889   -5.3815   25.5448 C   0  0  0  0  0  0  0  0  0  0  0  0
   25.8840   -4.6360   23.3789 C   0  0  0  0  0  0  0  0  0  0  0  0
   16.1425   -1.8932   17.6941 C   0  0  0  0  0  0  0  0  0  0  0  0
   26.8265   -5.0370   25.4794 C   0  0  0  0  0  0  0  0  0  0  0  0
   27.1611   -4.9617   24.0698 C   0  0  0  0  0  0  0  0  0  0  0  0
   20.7262   -3.3630   21.3576 C   0  0  0  0  0  0  0  0  0  0  0  0
   20.8036   -4.8462   21.6545 C   0  0  0  0  0  0  0  0  0  0  0  0
   23.5941   -5.0983   23.9100 C   0  0  0  0  0  0  0  0  0  0  0  0
   19.6930   -3.1126   20.2944 C   0  0  0  0  0  0  0  0  0  0  0  0
   21.7835   -5.0523   22.7781 C   0  0  0  0  0  0  0  0  0  0  0  0
   18.6163   -2.9720   18.3921 C   0  0  0  0  0  0  0  0  0  0  0  0
   16.5965   -1.7714   19.0529 C   0  0  0  0  0  0  0  0  0  0  0  0
   18.1188   -3.1045   17.0338 C   0  0  0  0  0  0  0  0  0  0  0  0
   19.5428   -5.9210   23.7178 H   0  0  0  0  0  0  0  0  0  0  0  0
   20.2472   -6.9802   24.7419 H   0  0  0  0  0  0  0  0  0  0  0  0
   19.9085   -5.4630   25.2420 H   0  0  0  0  0  0  0  0  0  0  0  0
   14.9239   -0.7459   19.6550 H   0  0  0  0  0  0  0  0  0  0  0  0
   15.4848   -1.7904   20.7779 H   0  0  0  0  0  0  0  0  0  0  0  0
   16.2590   -0.3760   20.5195 H   0  0  0  0  0  0  0  0  0  0  0  0
   19.7854   -4.1265   16.3398 H   0  0  0  0  0  0  0  0  0  0  0  0
   18.4086   -4.5416   15.5660 H   0  0  0  0  0  0  0  0  0  0  0  0
   19.1389   -3.1208   15.2275 H   0  0  0  0  0  0  0  0  0  0  0  0
   25.2596   -6.3677   25.6481 H   0  0  0  0  0  0  0  0  0  0  0  0
   24.9388   -4.9054   26.3002 H   0  0  0  0  0  0  0  0  0  0  0  0
   25.8536   -3.6675   23.1317 H   0  0  0  0  0  0  0  0  0  0  0  0
   25.7759   -5.1936   22.5559 H   0  0  0  0  0  0  0  0  0  0  0  0
   15.2625   -1.4977   17.4313 H   0  0  0  0  0  0  0  0  0  0  0  0
   27.3731   -5.7441   25.9282 H   0  0  0  0  0  0  0  0  0  0  0  0
   26.9923   -4.1561   25.9226 H   0  0  0  0  0  0  0  0  0  0  0  0
   27.8391   -4.2445   23.9088 H   0  0  0  0  0  0  0  0  0  0  0  0
   27.5198   -5.8379   23.7478 H   0  0  0  0  0  0  0  0  0  0  0  0
   21.6172   -3.0410   21.0376 H   0  0  0  0  0  0  0  0  0  0  0  0
   20.4728   -2.8700   22.1899 H   0  0  0  0  0  0  0  0  0  0  0  0
   21.1135   -5.3383   20.8410 H   0  0  0  0  0  0  0  0  0  0  0  0
   19.9024   -5.1844   21.9254 H   0  0  0  0  0  0  0  0  0  0  0  0
  1  6  1  0  0  0  0
  1 19  2  0  0  0  0
  2  7  1  0  0  0  0
  2 20  2  0  0  0  0
  3 14  1  0  0  0  0
  3 24  2  0  0  0  0
  4 19  1  0  0  0  0
  4 21  2  0  0  0  0
  5 20  1  0  0  0  0
  5 22  2  0  0  0  0
  6  9  1  0  0  0  0
  6 21  1  0  0  0  0
  7 22  1  0  0  0  0
  7 23  1  0  0  0  0
  8 12  1  0  0  0  0
  8 13  1  0  0  0  0
  8 19  1  0  0  0  0
 10 23  1  0  0  0  0
 11 24  1  0  0  0  0
 12 15  1  0  0  0  0
 13 16  1  0  0  0  0
 14 23  2  0  0  0  0
 15 16  1  0  0  0  0
 17 18  1  0  0  0  0
 17 20  1  0  0  0  0
 18 21  1  0  0  0  0
 22 24  1  0  0  0  0
  9 25  1  0  0  0  0
  9 26  1  0  0  0  0
  9 27  1  0  0  0  0
 10 28  1  0  0  0  0
 10 29  1  0  0  0  0
 10 30  1  0  0  0  0
 11 31  1  0  0  0  0
 11 32  1  0  0  0  0
 11 33  1  0  0  0  0
 12 34  1  0  0  0  0
 12 35  1  0  0  0  0
 13 36  1  0  0  0  0
 13 37  1  0  0  0  0
 14 38  1  0  0  0  0
 15 39  1  0  0  0  0
 15 40  1  0  0  0  0
 16 41  1  0  0  0  0
 16 42  1  0  0  0  0
 17 43  1  0  0  0  0
 17 44  1  0  0  0  0
 18 45  1  0  0  0  0
 18 46  1  0  0  0  0
M  END
> <pdb_id>
5SG6

> <uniprot_id>
Q9Y233

> <usmiles>
N=1N2C(=NC1CCC3=NC(=NN3C)N4CCCC4)C(=NC=C2C)C

$$$$
IW7_A_266
          07192416293D 1   1.00000     0.00000     0
            
 40 40  0  0  0  0            999 V2000
   -5.8728    1.1157   16.7121 S   0  0  0  0  0  0  0  0  0  0  0  0
   -5.6460    5.5614   13.9007 S   0  0  0  0  0  0  0  0  0  0  0  0
   -7.2562    1.4258   16.9916 O   0  0  0  0  0  0  0  0  0  0  0  0
   -4.9944    1.4680   17.7843 O   0  0  0  0  0  0  0  0  0  0  0  0
   -6.3954    5.9941   12.7605 O   0  0  0  0  0  0  0  0  0  0  0  0
   -6.0438    6.0950   15.1411 O   0  0  0  0  0  0  0  0  0  0  0  0
   -4.7060    3.6390   10.7197 O   0  0  0  0  0  0  0  0  0  0  0  0
   -3.1728    4.8447   11.7020 O   0  0  0  0  0  0  0  0  0  0  0  0
   -5.6731   -0.4496   16.5764 N   0  0  0  0  0  0  0  0  0  0  0  0
   -4.2702    6.3523   13.6363 N   0  0  0  0  0  0  0  0  0  0  0  0
   -1.1556   10.5424   13.5983 C   0  0  0  0  0  0  0  0  0  0  0  0
   -3.2241    6.3924   14.6575 C   0  0  0  0  0  0  0  0  0  0  0  0
   -0.7157    9.3439   14.4207 C   0  0  0  0  0  0  0  0  0  0  0  0
   -2.0147    7.2117   14.1956 C   0  0  0  0  0  0  0  0  0  0  0  0
   -1.8659    8.4930   14.9693 C   0  0  0  0  0  0  0  0  0  0  0  0
   -4.6609    1.2520   14.2978 C   0  0  0  0  0  0  0  0  0  0  0  0
   -4.2419    1.9247   13.1404 C   0  0  0  0  0  0  0  0  0  0  0  0
   -5.6938    3.2674   15.1746 C   0  0  0  0  0  0  0  0  0  0  0  0
   -4.1115    3.9292   11.7207 C   0  0  0  0  0  0  0  0  0  0  0  0
   -5.3703    1.9047   15.3377 C   0  0  0  0  0  0  0  0  0  0  0  0
   -5.3019    3.9810   14.0287 C   0  0  0  0  0  0  0  0  0  0  0  0
   -4.5204    3.2755   12.9832 C   0  0  0  0  0  0  0  0  0  0  0  0
   -5.4197    2.9391   10.7471 H   0  0  0  0  0  0  0  0  0  0  0  0
   -4.7120   -0.6476   16.3833 H   0  0  0  0  0  0  0  0  0  0  0  0
   -5.9400   -0.8950   17.4310 H   0  0  0  0  0  0  0  0  0  0  0  0
   -4.5188    7.3017   13.4446 H   0  0  0  0  0  0  0  0  0  0  0  0
   -0.3499   11.0418   13.2795 H   0  0  0  0  0  0  0  0  0  0  0  0
   -1.6869   10.2296   12.8110 H   0  0  0  0  0  0  0  0  0  0  0  0
   -1.7196   11.1452   14.1628 H   0  0  0  0  0  0  0  0  0  0  0  0
   -2.9269    5.4581   14.8543 H   0  0  0  0  0  0  0  0  0  0  0  0
   -3.5975    6.8054   15.4882 H   0  0  0  0  0  0  0  0  0  0  0  0
   -0.1769    9.6769   15.1946 H   0  0  0  0  0  0  0  0  0  0  0  0
   -0.1442    8.7613   13.8428 H   0  0  0  0  0  0  0  0  0  0  0  0
   -2.1263    7.4319   13.2266 H   0  0  0  0  0  0  0  0  0  0  0  0
   -1.1879    6.6630   14.3196 H   0  0  0  0  0  0  0  0  0  0  0  0
   -2.7169    9.0140   14.9033 H   0  0  0  0  0  0  0  0  0  0  0  0
   -1.6818    8.2753   15.9278 H   0  0  0  0  0  0  0  0  0  0  0  0
   -4.4521    0.2786   14.3927 H   0  0  0  0  0  0  0  0  0  0  0  0
   -3.7425    1.4311   12.4284 H   0  0  0  0  0  0  0  0  0  0  0  0
   -6.2131    3.7361   15.8893 H   0  0  0  0  0  0  0  0  0  0  0  0
  1  3  2  0  0  0  0
  1  4  2  0  0  0  0
  1  9  1  0  0  0  0
  1 20  1  0  0  0  0
  2  5  2  0  0  0  0
  2  6  2  0  0  0  0
  2 10  1  0  0  0  0
  2 21  1  0  0  0  0
  7 19  1  0  0  0  0
  8 19  2  0  0  0  0
 10 12  1  0  0  0  0
 11 13  1  0  0  0  0
 12 14  1  0  0  0  0
 13 15  1  0  0  0  0
 14 15  1  0  0  0  0
 16 17  2  0  0  0  0
 16 20  1  0  0  0  0
 17 22  1  0  0  0  0
 18 20  2  0  0  0  0
 18 21  1  0  0  0  0
 19 22  1  0  0  0  0
 21 22  2  0  0  0  0
  7 23  1  0  0  0  0
  9 24  1  0  0  0  0
  9 25  1  0  0  0  0
 10 26  1  0  0  0  0
 11 27  1  0  0  0  0
 11 28  1  0  0  0  0
 11 29  1  0  0  0  0
 12 30  1  0  0  0  0
 12 31  1  0  0  0  0
 13 32  1  0  0  0  0
 13 33  1  0  0  0  0
 14 34  1  0  0  0  0
 14 35  1  0  0  0  0
 15 36  1  0  0  0  0
 15 37  1  0  0  0  0
 16 38  1  0  0  0  0
 17 39  1  0  0  0  0
 18 40  1  0  0  0  0
M  END
> <pdb_id>
5AMG

> <uniprot_id>
P00918

> <usmiles>
S(=O)(=O)(NCCCCC)c1c(ccc(S(=O)(=O)N)c1)C(=O)O

$$$$
IWC_A_803
          07192416573D 1   1.00000     0.00000     0
            
 44 47  0  0  0  0            999 V2000
   22.8134   -5.0503   23.4231 N   0  0  0  0  0  0  0  0  0  0  0  0
   21.0613   -5.8927   24.8888 N   0  0  0  0  0  0  0  0  0  0  0  0
   19.8111   -3.6019   19.7519 N   0  0  0  0  0  0  0  0  0  0  0  0
   25.0893   -5.1452   24.1913 N   0  0  0  0  0  0  0  0  0  0  0  0
   21.5377   -6.8834   27.1074 C   0  0  0  0  0  0  0  0  0  0  0  0
   25.5749   -4.1897   23.2240 C   0  0  0  0  0  0  0  0  0  0  0  0
   26.0360   -5.3340   25.3004 C   0  0  0  0  0  0  0  0  0  0  0  0
   27.0855   -4.1097   23.5004 C   0  0  0  0  0  0  0  0  0  0  0  0
   27.2592   -4.4748   24.9828 C   0  0  0  0  0  0  0  0  0  0  0  0
   18.1959   -2.9911   16.5304 C   0  0  0  0  0  0  0  0  0  0  0  0
   17.0147   -2.3398   16.9259 C   0  0  0  0  0  0  0  0  0  0  0  0
   20.4745   -4.9704   22.7311 C   0  0  0  0  0  0  0  0  0  0  0  0
   20.5544   -3.8389   22.0306 C   0  0  0  0  0  0  0  0  0  0  0  0
   18.3899   -2.7381   21.5437 C   0  0  0  0  0  0  0  0  0  0  0  0
   19.1103   -3.3981   17.4556 C   0  0  0  0  0  0  0  0  0  0  0  0
   16.7529   -2.1123   18.2520 C   0  0  0  0  0  0  0  0  0  0  0  0
   17.4592   -2.3076   20.6337 C   0  0  0  0  0  0  0  0  0  0  0  0
   23.3550   -5.9962   25.6383 C   0  0  0  0  0  0  0  0  0  0  0  0
   21.5054   -5.3246   23.7374 C   0  0  0  0  0  0  0  0  0  0  0  0
   23.7295   -5.3740   24.4082 C   0  0  0  0  0  0  0  0  0  0  0  0
   21.9876   -6.2356   25.8311 C   0  0  0  0  0  0  0  0  0  0  0  0
   19.5735   -3.4051   21.0381 C   0  0  0  0  0  0  0  0  0  0  0  0
   18.8701   -3.1782   18.8496 C   0  0  0  0  0  0  0  0  0  0  0  0
   17.6763   -2.5246   19.2457 C   0  0  0  0  0  0  0  0  0  0  0  0
   22.3325   -7.0692   27.6851 H   0  0  0  0  0  0  0  0  0  0  0  0
   20.9112   -6.2709   27.5894 H   0  0  0  0  0  0  0  0  0  0  0  0
   21.0696   -7.7420   26.8984 H   0  0  0  0  0  0  0  0  0  0  0  0
   25.1420   -3.2982   23.3576 H   0  0  0  0  0  0  0  0  0  0  0  0
   25.4010   -4.5084   22.2922 H   0  0  0  0  0  0  0  0  0  0  0  0
   26.2990   -6.2964   25.3692 H   0  0  0  0  0  0  0  0  0  0  0  0
   25.6217   -5.0393   26.1615 H   0  0  0  0  0  0  0  0  0  0  0  0
   27.4227   -3.1842   23.3279 H   0  0  0  0  0  0  0  0  0  0  0  0
   27.5803   -4.7581   22.9218 H   0  0  0  0  0  0  0  0  0  0  0  0
   28.1030   -4.9923   25.1245 H   0  0  0  0  0  0  0  0  0  0  0  0
   27.2729   -3.6526   25.5517 H   0  0  0  0  0  0  0  0  0  0  0  0
   18.3672   -3.1577   15.5594 H   0  0  0  0  0  0  0  0  0  0  0  0
   16.3591   -2.0395   16.2331 H   0  0  0  0  0  0  0  0  0  0  0  0
   19.7062   -5.5912   22.5755 H   0  0  0  0  0  0  0  0  0  0  0  0
   21.3416   -3.2448   22.1960 H   0  0  0  0  0  0  0  0  0  0  0  0
   18.2565   -2.5966   22.5246 H   0  0  0  0  0  0  0  0  0  0  0  0
   19.9511   -3.8515   17.1598 H   0  0  0  0  0  0  0  0  0  0  0  0
   15.9061   -1.6529   18.5200 H   0  0  0  0  0  0  0  0  0  0  0  0
   16.6306   -1.8425   20.9453 H   0  0  0  0  0  0  0  0  0  0  0  0
   24.0345   -6.2484   26.3274 H   0  0  0  0  0  0  0  0  0  0  0  0
  1 19  2  0  0  0  0
  1 20  1  0  0  0  0
  2 19  1  0  0  0  0
  2 21  2  0  0  0  0
  3 22  2  0  0  0  0
  3 23  1  0  0  0  0
  4  6  1  0  0  0  0
  4  7  1  0  0  0  0
  4 20  1  0  0  0  0
  5 21  1  0  0  0  0
  6  8  1  0  0  0  0
  7  9  1  0  0  0  0
  8  9  1  0  0  0  0
 10 11  2  0  0  0  0
 10 15  1  0  0  0  0
 11 16  1  0  0  0  0
 12 13  2  0  0  0  0
 12 19  1  0  0  0  0
 13 22  1  0  0  0  0
 14 17  2  0  0  0  0
 14 22  1  0  0  0  0
 15 23  2  0  0  0  0
 16 24  2  0  0  0  0
 17 24  1  0  0  0  0
 18 20  2  0  0  0  0
 18 21  1  0  0  0  0
 23 24  1  0  0  0  0
  5 25  1  0  0  0  0
  5 26  1  0  0  0  0
  5 27  1  0  0  0  0
  6 28  1  0  0  0  0
  6 29  1  0  0  0  0
  7 30  1  0  0  0  0
  7 31  1  0  0  0  0
  8 32  1  0  0  0  0
  8 33  1  0  0  0  0
  9 34  1  0  0  0  0
  9 35  1  0  0  0  0
 10 36  1  0  0  0  0
 11 37  1  0  0  0  0
 12 38  1  0  0  0  0
 13 39  1  0  0  0  0
 14 40  1  0  0  0  0
 15 41  1  0  0  0  0
 16 42  1  0  0  0  0
 17 43  1  0  0  0  0
 18 44  1  0  0  0  0
M  END
> <pdb_id>
5SG9

> <uniprot_id>
Q9Y233

> <usmiles>
n1c(N2CCCC2)cc(nc1/C=C/c3nc4c(cc3)cccc4)C

$$$$
IWD_F_601
          07202402433D 1   1.00000     0.00000     0
            
 23 23  0  0  0  0            999 V2000
    9.3198   69.4477   25.1068 I   0  0  0  0  0  0  0  0  0  0  0  0
    6.1241   69.7894   32.4813 O   0  0  0  0  0  0  0  0  0  0  0  0
    5.3625   67.7230   32.0717 O   0  0  0  0  0  0  0  0  0  0  0  0
    4.9692   66.6704   28.4259 O   0  0  0  0  0  0  0  0  0  0  0  0
    6.5522   67.6201   24.1789 O   0  0  0  0  0  0  0  0  0  0  0  0
    6.4991   70.4779   29.8157 N   0  0  0  0  0  0  0  0  0  0  0  0
    5.7081   67.0894   26.3245 N   0  0  0  0  0  0  0  0  0  0  0  0
    6.8679   67.8594   28.2930 N   0  0  0  0  0  0  0  0  0  0  0  0
    7.8623   68.4972   27.5164 C   0  0  0  0  0  0  0  0  0  0  0  0
    6.9388   68.0251   29.7311 C   0  0  0  0  0  0  0  0  0  0  0  0
    5.7546   68.9929   31.6866 C   0  0  0  0  0  0  0  0  0  0  0  0
    5.8101   67.1688   27.7295 C   0  0  0  0  0  0  0  0  0  0  0  0
    6.6864   67.7072   25.5510 C   0  0  0  0  0  0  0  0  0  0  0  0
    7.7700   68.4141   26.1505 C   0  0  0  0  0  0  0  0  0  0  0  0
    6.0230   69.1660   30.2087 C   0  0  1  0  0  0  0  0  0  0  0  0
    6.4031   70.7019   32.1821 H   0  0  0  0  0  0  0  0  0  0  0  0
    5.8673   71.1763   30.1519 H   0  0  0  0  0  0  0  0  0  0  0  0
    7.4066   70.6337   30.2058 H   0  0  0  0  0  0  0  0  0  0  0  0
    4.9496   66.6001   25.8941 H   0  0  0  0  0  0  0  0  0  0  0  0
    8.6125   68.9953   27.9511 H   0  0  0  0  0  0  0  0  0  0  0  0
    7.8819   68.2351   29.9887 H   0  0  0  0  0  0  0  0  0  0  0  0
    6.6547   67.1734   30.1714 H   0  0  0  0  0  0  0  0  0  0  0  0
    5.1460   69.0349   29.7464 H   0  0  0  0  0  0  0  0  0  0  0  0
  1 14  1  0  0  0  0
  2 11  1  0  0  0  0
  3 11  2  0  0  0  0
  4 12  2  0  0  0  0
  5 13  2  0  0  0  0
  6 15  1  0  0  0  0
  7 12  1  0  0  0  0
  7 13  1  0  0  0  0
  8  9  1  0  0  0  0
  8 10  1  0  0  0  0
  8 12  1  0  0  0  0
  9 14  2  0  0  0  0
 10 15  1  0  0  0  0
 11 15  1  0  0  0  0
 13 14  1  0  0  0  0
  2 16  1  0  0  0  0
  6 17  1  0  0  0  0
  6 18  1  0  0  0  0
  7 19  1  0  0  0  0
  9 20  1  0  0  0  0
 10 21  1  0  0  0  0
 10 22  1  0  0  0  0
 15 23  1  0  0  0  0
M  END
> <pdb_id>
3T96

> <uniprot_id>
P19491

> <usmiles>
IC=1C(=O)NC(=O)N(C1)C[C@H](N)C(=O)O

$$$$
IWR_A_2
          07192423423D 1   1.00000     0.00000     0
            
 52 57  0  0  0  0            999 V2000
    3.9460   -2.3050    8.9480 O   0  0  0  0  0  0  0  0  0  0  0  0
    3.7980   -8.4520   12.0440 O   0  0  0  0  0  0  0  0  0  0  0  0
    3.7980   -9.4200    7.6710 O   0  0  0  0  0  0  0  0  0  0  0  0
    6.2830   -3.0610    4.7580 N   0  0  0  0  0  0  0  0  0  0  0  0
    5.2340   -3.0360    7.2450 N   0  0  0  0  0  0  0  0  0  0  0  0
    3.8030   -8.6110    9.8060 N   0  0  0  0  0  0  0  0  0  0  0  0
    6.7880   -3.1290    3.5290 C   0  0  0  0  0  0  0  0  0  0  0  0
    6.9990   -1.9520    2.7920 C   0  0  0  0  0  0  0  0  0  0  0  0
    5.2350    0.5790    6.4760 C   0  0  0  0  0  0  0  0  0  0  0  0
    5.0690   -0.6160    7.1760 C   0  0  0  0  0  0  0  0  0  0  0  0
    6.6600   -0.7070    3.3360 C   0  0  0  0  0  0  0  0  0  0  0  0
    5.7730    0.5450    5.2010 C   0  0  0  0  0  0  0  0  0  0  0  0
    5.2170   -6.8560    9.1690 C   0  0  0  0  0  0  0  0  0  0  0  0
    2.8700   -6.4870    9.4340 C   0  0  0  0  0  0  0  0  0  0  0  0
    5.3730   -5.5170    8.8170 C   0  0  0  0  0  0  0  0  0  0  0  0
    3.0400   -5.1480    9.0690 C   0  0  0  0  0  0  0  0  0  0  0  0
    6.1000  -10.8200   10.7610 C   0  0  0  0  0  0  0  0  0  0  0  0
    5.9750  -11.3140    9.3150 C   0  0  0  0  0  0  0  0  0  0  0  0
    4.6380  -12.6430   10.6500 C   0  0  0  0  0  0  0  0  0  0  0  0
    4.4890   -3.2080    8.3470 C   0  0  0  0  0  0  0  0  0  0  0  0
    3.7340   -9.1130   11.0270 C   0  0  0  0  0  0  0  0  0  0  0  0
    3.7610   -9.5900    8.8850 C   0  0  0  0  0  0  0  0  0  0  0  0
    5.4270   -1.8550    6.6230 C   0  0  0  0  0  0  0  0  0  0  0  0
    3.9580   -7.3380    9.4890 C   0  0  0  0  0  0  0  0  0  0  0  0
    5.9360   -1.8780    5.3260 C   0  0  0  0  0  0  0  0  0  0  0  0
    4.2950   -4.6510    8.7750 C   0  0  0  0  0  0  0  0  0  0  0  0
    6.1190   -0.6700    4.6220 C   0  0  0  0  0  0  0  0  0  0  0  0
    4.8260  -11.3500   11.4390 C   0  0  2  0  0  0  0  0  0  0  0  0
    4.6120  -11.9850    9.2970 C   0  0  1  0  0  0  0  0  0  0  0  0
    3.5570  -10.6140   11.0050 C   0  0  2  0  0  0  0  0  0  0  0  0
    3.4870  -10.9520    9.5200 C   0  0  1  0  0  0  0  0  0  0  0  0
    5.6790   -3.8427    6.8560 H   0  0  0  0  0  0  0  0  0  0  0  0
    7.0171   -4.0170    3.1304 H   0  0  0  0  0  0  0  0  0  0  0  0
    7.3932   -2.0034    1.8744 H   0  0  0  0  0  0  0  0  0  0  0  0
    4.9687    1.4494    6.8900 H   0  0  0  0  0  0  0  0  0  0  0  0
    4.6838   -0.5890    8.0984 H   0  0  0  0  0  0  0  0  0  0  0  0
    6.8021    0.1351    2.8157 H   0  0  0  0  0  0  0  0  0  0  0  0
    5.9129    1.3964    4.6956 H   0  0  0  0  0  0  0  0  0  0  0  0
    6.0093   -7.4658    9.1906 H   0  0  0  0  0  0  0  0  0  0  0  0
    1.9575   -6.8305    9.6562 H   0  0  0  0  0  0  0  0  0  0  0  0
    6.2845   -5.1743    8.5896 H   0  0  0  0  0  0  0  0  0  0  0  0
    2.2447   -4.5437    9.0203 H   0  0  0  0  0  0  0  0  0  0  0  0
    6.1328   -9.8211   10.7949 H   0  0  0  0  0  0  0  0  0  0  0  0
    6.9182  -11.1953   11.1965 H   0  0  0  0  0  0  0  0  0  0  0  0
    6.6996  -11.9670    9.0948 H   0  0  0  0  0  0  0  0  0  0  0  0
    6.0076  -10.5501    8.6705 H   0  0  0  0  0  0  0  0  0  0  0  0
    3.7823  -13.1111   10.8704 H   0  0  0  0  0  0  0  0  0  0  0  0
    5.4028  -13.2782   10.7580 H   0  0  0  0  0  0  0  0  0  0  0  0
    4.9091  -11.4793   12.4271 H   0  0  0  0  0  0  0  0  0  0  0  0
    4.4621  -12.6091    8.5302 H   0  0  0  0  0  0  0  0  0  0  0  0
    2.7462  -10.9141   11.5075 H   0  0  0  0  0  0  0  0  0  0  0  0
    2.5912  -11.3125    9.2602 H   0  0  0  0  0  0  0  0  0  0  0  0
  1 20  2  0  0  0  0
  2 21  2  0  0  0  0
  3 22  2  0  0  0  0
  4  7  1  0  0  0  0
  4 25  2  0  0  0  0
  5 20  1  0  0  0  0
  5 23  1  0  0  0  0
  6 21  1  0  0  0  0
  6 22  1  0  0  0  0
  6 24  1  0  0  0  0
  7  8  2  0  0  0  0
  8 11  1  0  0  0  0
  9 10  1  0  0  0  0
  9 12  2  0  0  0  0
 10 23  2  0  0  0  0
 11 27  2  0  0  0  0
 12 27  1  0  0  0  0
 13 15  2  0  0  0  0
 13 24  1  0  0  0  0
 14 16  1  0  0  0  0
 14 24  2  0  0  0  0
 15 26  1  0  0  0  0
 16 26  2  0  0  0  0
 17 18  1  0  0  0  0
 17 28  1  0  0  0  0
 18 29  1  0  0  0  0
 19 28  1  0  0  0  0
 19 29  1  0  0  0  0
 20 26  1  0  0  0  0
 21 30  1  0  0  0  0
 22 31  1  0  0  0  0
 23 25  1  0  0  0  0
 25 27  1  0  0  0  0
 28 30  1  0  0  0  0
 29 31  1  0  0  0  0
 30 31  1  0  0  0  0
  5 32  1  0  0  0  0
  7 33  1  0  0  0  0
  8 34  1  0  0  0  0
  9 35  1  0  0  0  0
 10 36  1  0  0  0  0
 11 37  1  0  0  0  0
 12 38  1  0  0  0  0
 13 39  1  0  0  0  0
 14 40  1  0  0  0  0
 15 41  1  0  0  0  0
 16 42  1  0  0  0  0
 17 43  1  0  0  0  0
 17 44  1  0  0  0  0
 18 45  1  0  0  0  0
 18 46  1  0  0  0  0
 19 47  1  0  0  0  0
 19 48  1  0  0  0  0
 28 49  1  0  0  0  0
 29 50  1  0  0  0  0
 30 51  1  0  0  0  0
 31 52  1  0  0  0  0
M  END
> <pdb_id>
3UA9

> <uniprot_id>
Q9H2K2

> <usmiles>
O=C(Nc1c2ncccc2ccc1)c3ccc(N4C(=O)[C@@H]5[C@H]6C[C@@H]([C@@H]5C4=O)CC6)cc3

$$$$
IWX_B_403
          07202406043D 1   1.00000     0.00000     0
            
 42 44  0  0  0  0            999 V2000
   63.0660   28.1348    7.7166 F   0  0  0  0  0  0  0  0  0  0  0  0
   67.1810   31.5146   -0.8886 O   0  0  0  0  0  0  0  0  0  0  0  0
   72.0792   32.1886   -1.0931 O   0  0  0  0  0  0  0  0  0  0  0  0
   66.0038   28.9160   -1.5664 N   0  0  0  0  0  0  0  0  0  0  0  0
   67.7398   29.9089    0.5767 N   0  0  0  0  0  0  0  0  0  0  0  0
   71.8682   30.8876   -0.5211 C   0  0  0  0  0  0  0  0  0  0  0  0
   71.1905   33.2467   -0.7030 C   0  0  0  0  0  0  0  0  0  0  0  0
   64.8543   28.0575    6.1615 C   0  0  0  0  0  0  0  0  0  0  0  0
   62.5875   28.4997    5.4567 C   0  0  0  0  0  0  0  0  0  0  0  0
   64.4337   28.1821    0.0470 C   0  0  0  0  0  0  0  0  0  0  0  0
   70.4370   30.4247   -0.8549 C   0  0  0  0  0  0  0  0  0  0  0  0
   69.7088   32.8319   -0.7822 C   0  0  0  0  0  0  0  0  0  0  0  0
   65.2999   28.1446    4.8513 C   0  0  0  0  0  0  0  0  0  0  0  0
   63.0183   28.5957    4.1422 C   0  0  0  0  0  0  0  0  0  0  0  0
   64.0365   28.0503    1.3591 C   0  0  0  0  0  0  0  0  0  0  0  0
   66.0576   29.1644    2.0847 C   0  0  0  0  0  0  0  0  0  0  0  0
   63.5052   28.2258    6.4570 C   0  0  0  0  0  0  0  0  0  0  0  0
   68.0470   30.9639   -0.2206 C   0  0  0  0  0  0  0  0  0  0  0  0
   65.6562   28.7956   -0.2494 C   0  0  0  0  0  0  0  0  0  0  0  0
   66.4801   29.3013    0.7682 C   0  0  0  0  0  0  0  0  0  0  0  0
   69.4930   31.4278   -0.1847 C   0  0  0  0  0  0  0  0  0  0  0  0
   64.3827   28.4142    3.8141 C   0  0  0  0  0  0  0  0  0  0  0  0
   64.8377   28.5358    2.4040 C   0  0  0  0  0  0  0  0  0  0  0  0
   66.8696   29.3487   -1.8175 H   0  0  0  0  0  0  0  0  0  0  0  0
   65.3921   28.5713   -2.2785 H   0  0  0  0  0  0  0  0  0  0  0  0
   68.4999   29.5132    1.0921 H   0  0  0  0  0  0  0  0  0  0  0  0
   71.9837   30.9340    0.4712 H   0  0  0  0  0  0  0  0  0  0  0  0
   72.5284   30.2412   -0.9036 H   0  0  0  0  0  0  0  0  0  0  0  0
   71.3375   34.0286   -1.3088 H   0  0  0  0  0  0  0  0  0  0  0  0
   71.3998   33.5105    0.2386 H   0  0  0  0  0  0  0  0  0  0  0  0
   65.5056   27.8727    6.8974 H   0  0  0  0  0  0  0  0  0  0  0  0
   61.6213   28.6274    5.6807 H   0  0  0  0  0  0  0  0  0  0  0  0
   63.8512   27.8410   -0.6907 H   0  0  0  0  0  0  0  0  0  0  0  0
   70.2776   29.5055   -0.4949 H   0  0  0  0  0  0  0  0  0  0  0  0
   70.2954   30.4242   -1.8448 H   0  0  0  0  0  0  0  0  0  0  0  0
   69.4219   32.8269   -1.7402 H   0  0  0  0  0  0  0  0  0  0  0  0
   69.1572   33.4921   -0.2725 H   0  0  0  0  0  0  0  0  0  0  0  0
   66.2694   28.0167    4.6422 H   0  0  0  0  0  0  0  0  0  0  0  0
   62.3577   28.7952    3.4184 H   0  0  0  0  0  0  0  0  0  0  0  0
   63.1671   27.6033    1.5697 H   0  0  0  0  0  0  0  0  0  0  0  0
   66.6320   29.5200    2.8220 H   0  0  0  0  0  0  0  0  0  0  0  0
   69.7583   31.4779    0.7782 H   0  0  0  0  0  0  0  0  0  0  0  0
  1 17  1  0  0  0  0
  2 18  2  0  0  0  0
  3  6  1  0  0  0  0
  3  7  1  0  0  0  0
  4 19  1  0  0  0  0
  5 18  1  0  0  0  0
  5 20  1  0  0  0  0
  6 11  1  0  0  0  0
  7 12  1  0  0  0  0
  8 13  1  0  0  0  0
  8 17  2  0  0  0  0
  9 14  2  0  0  0  0
  9 17  1  0  0  0  0
 10 15  1  0  0  0  0
 10 19  2  0  0  0  0
 11 21  1  0  0  0  0
 12 21  1  0  0  0  0
 13 22  2  0  0  0  0
 14 22  1  0  0  0  0
 15 23  2  0  0  0  0
 16 20  2  0  0  0  0
 16 23  1  0  0  0  0
 18 21  1  0  0  0  0
 19 20  1  0  0  0  0
 22 23  1  0  0  0  0
  4 24  1  0  0  0  0
  4 25  1  0  0  0  0
  5 26  1  0  0  0  0
  6 27  1  0  0  0  0
  6 28  1  0  0  0  0
  7 29  1  0  0  0  0
  7 30  1  0  0  0  0
  8 31  1  0  0  0  0
  9 32  1  0  0  0  0
 10 33  1  0  0  0  0
 11 34  1  0  0  0  0
 11 35  1  0  0  0  0
 12 36  1  0  0  0  0
 12 37  1  0  0  0  0
 13 38  1  0  0  0  0
 14 39  1  0  0  0  0
 15 40  1  0  0  0  0
 16 41  1  0  0  0  0
 21 42  1  0  0  0  0
M  END
> <pdb_id>
5IWG

> <uniprot_id>
Q92769

> <usmiles>
Fc1ccc(c2cc(NC(=O)C3CCOCC3)c(N)cc2)cc1

$$$$
IXE_D_301
          07202402443D 1   1.00000     0.00000     0
            
 34 36  0  0  0  0            999 V2000
   18.4229    4.8407   10.3493 F   0  0  0  0  0  0  0  0  0  0  0  0
   14.0712    4.6209    8.2651 F   0  0  0  0  0  0  0  0  0  0  0  0
   16.6420    5.5143    8.2594 F   0  0  0  0  0  0  0  0  0  0  0  0
    9.6643   -3.1999   11.9714 N   0  0  0  0  0  0  0  0  0  0  0  0
   10.4964    0.3154   14.8542 N   0  0  0  0  0  0  0  0  0  0  0  0
   13.3128   -0.4712   10.9721 N   0  0  0  0  0  0  0  0  0  0  0  0
   10.1422   -1.4224   13.4350 N   0  0  0  0  0  0  0  0  0  0  0  0
   11.4452   -1.8050   11.5043 N   0  0  0  0  0  0  0  0  0  0  0  0
   14.7484    2.4836   12.5456 N   0  0  0  0  0  0  0  0  0  0  0  0
   15.0129    2.9974   13.9036 C   0  0  0  0  0  0  0  0  0  0  0  0
   14.1066    0.5937   11.2714 C   0  0  0  0  0  0  0  0  0  0  0  0
   16.6411    3.5875   11.5805 C   0  0  0  0  0  0  0  0  0  0  0  0
   14.4541    3.5725   10.4419 C   0  0  0  0  0  0  0  0  0  0  0  0
   12.8320    1.1510   13.2595 C   0  0  0  0  0  0  0  0  0  0  0  0
   10.4121   -2.1486   12.3239 C   0  0  0  0  0  0  0  0  0  0  0  0
   10.8843   -0.3727   13.7772 C   0  0  0  0  0  0  0  0  0  0  0  0
   12.2968   -0.7613   11.8279 C   0  0  0  0  0  0  0  0  0  0  0  0
   17.0407    4.3325   10.4677 C   0  0  0  0  0  0  0  0  0  0  0  0
   14.9114    4.2865    9.3490 C   0  0  0  0  0  0  0  0  0  0  0  0
   16.1882    4.6816    9.4028 C   0  0  0  0  0  0  0  0  0  0  0  0
   13.9217    1.4117   12.3621 C   0  0  0  0  0  0  0  0  0  0  0  0
   15.2820    3.1941   11.5031 C   0  0  0  0  0  0  0  0  0  0  0  0
   12.0349    0.0332   12.9904 C   0  0  0  0  0  0  0  0  0  0  0  0
    9.8873   -3.7177   11.1455 H   0  0  0  0  0  0  0  0  0  0  0  0
    8.8821   -3.4681   12.5338 H   0  0  0  0  0  0  0  0  0  0  0  0
   11.0202    1.1130   15.1533 H   0  0  0  0  0  0  0  0  0  0  0  0
    9.6823    0.0329   15.3615 H   0  0  0  0  0  0  0  0  0  0  0  0
   15.6349    3.7785   13.8492 H   0  0  0  0  0  0  0  0  0  0  0  0
   14.1527    3.2850   14.3246 H   0  0  0  0  0  0  0  0  0  0  0  0
   15.4304    2.2768   14.4572 H   0  0  0  0  0  0  0  0  0  0  0  0
   14.8723    0.7939   10.6601 H   0  0  0  0  0  0  0  0  0  0  0  0
   17.2451    3.3584   12.3439 H   0  0  0  0  0  0  0  0  0  0  0  0
   13.4883    3.3156   10.4745 H   0  0  0  0  0  0  0  0  0  0  0  0
   12.6503    1.7436   14.0442 H   0  0  0  0  0  0  0  0  0  0  0  0
  1 18  1  0  0  0  0
  2 19  1  0  0  0  0
  3 20  1  0  0  0  0
  4 15  1  0  0  0  0
  5 16  1  0  0  0  0
  6 11  2  0  0  0  0
  6 17  1  0  0  0  0
  7 15  2  0  0  0  0
  7 16  1  0  0  0  0
  8 15  1  0  0  0  0
  8 17  2  0  0  0  0
  9 10  1  0  0  0  0
  9 21  1  0  0  0  0
  9 22  1  0  0  0  0
 11 21  1  0  0  0  0
 12 18  2  0  0  0  0
 12 22  1  0  0  0  0
 13 19  1  0  0  0  0
 13 22  2  0  0  0  0
 14 21  2  0  0  0  0
 14 23  1  0  0  0  0
 16 23  2  0  0  0  0
 17 23  1  0  0  0  0
 18 20  1  0  0  0  0
 19 20  2  0  0  0  0
  4 24  1  0  0  0  0
  4 25  1  0  0  0  0
  5 26  1  0  0  0  0
  5 27  1  0  0  0  0
 10 28  1  0  0  0  0
 10 29  1  0  0  0  0
 10 30  1  0  0  0  0
 11 31  1  0  0  0  0
 12 32  1  0  0  0  0
 13 33  1  0  0  0  0
 14 34  1  0  0  0  0
M  END
> <pdb_id>
4IXE

> <uniprot_id>
P16184

> <usmiles>
Fc1c(F)cc(N(c2cnc3nc(nc(N)c3c2)N)C)cc1F

$$$$
IXF_X_302
          07202406513D 1   1.00000     0.00000     0
            
 43 45  0  0  0  0            999 V2000
   -9.2660   -3.7560   12.0920 N   0  0  0  0  0  0  0  0  0  0  0  0
   -8.5200   -0.0870   15.0040 N   0  0  0  0  0  0  0  0  0  0  0  0
   -5.5160   -1.1780   11.2510 N   0  0  0  0  0  0  0  0  0  0  0  0
   -8.8320   -1.8920   13.5500 N   0  0  0  0  0  0  0  0  0  0  0  0
   -7.4010   -2.4270   11.7930 N   0  0  0  0  0  0  0  0  0  0  0  0
   -4.1560    1.8430   12.8000 N   0  0  0  0  0  0  0  0  0  0  0  0
   -4.0980    2.4540   14.1230 C   0  0  0  0  0  0  0  0  0  0  0  0
   -3.1310    5.5280    7.4410 C   0  0  0  0  0  0  0  0  0  0  0  0
   -1.9510    3.3260    6.8560 C   0  0  0  0  0  0  0  0  0  0  0  0
   -4.7430   -0.1310   11.5440 C   0  0  0  0  0  0  0  0  0  0  0  0
   -2.3060    2.7760   11.4600 C   0  0  0  0  0  0  0  0  0  0  0  0
   -4.5260    2.8550   10.6290 C   0  0  0  0  0  0  0  0  0  0  0  0
   -1.8520    3.3780   10.2600 C   0  0  0  0  0  0  0  0  0  0  0  0
   -4.0970    3.4460    9.4520 C   0  0  0  0  0  0  0  0  0  0  0  0
   -6.1220    0.5510   13.4530 C   0  0  0  0  0  0  0  0  0  0  0  0
   -8.5260   -2.6820   12.4870 C   0  0  0  0  0  0  0  0  0  0  0  0
   -8.1090   -0.8590   13.9530 C   0  0  0  0  0  0  0  0  0  0  0  0
   -6.6250   -1.3670   12.0660 C   0  0  0  0  0  0  0  0  0  0  0  0
   -3.6640    2.4910   11.6510 C   0  0  0  0  0  0  0  0  0  0  0  0
   -4.9840    0.7630   12.6030 C   0  0  0  0  0  0  0  0  0  0  0  0
   -2.1900    4.3990    7.9440 C   0  0  0  0  0  0  0  0  0  0  0  0
   -2.7420    3.7290    9.2530 C   0  0  0  0  0  0  0  0  0  0  0  0
   -6.9320   -0.5440   13.1760 C   0  0  0  0  0  0  0  0  0  0  0  0
   -8.9818   -4.2945   11.2987 H   0  0  0  0  0  0  0  0  0  0  0  0
  -10.0932   -4.0056   12.5954 H   0  0  0  0  0  0  0  0  0  0  0  0
   -7.9657    0.6910   15.2998 H   0  0  0  0  0  0  0  0  0  0  0  0
   -9.3749   -0.3004   15.4769 H   0  0  0  0  0  0  0  0  0  0  0  0
   -4.4980    1.8313   14.7956 H   0  0  0  0  0  0  0  0  0  0  0  0
   -3.1450    2.6374   14.3640 H   0  0  0  0  0  0  0  0  0  0  0  0
   -4.6113    3.3122   14.1166 H   0  0  0  0  0  0  0  0  0  0  0  0
   -3.2623    6.2014    8.1685 H   0  0  0  0  0  0  0  0  0  0  0  0
   -2.7215    5.9732    6.6447 H   0  0  0  0  0  0  0  0  0  0  0  0
   -4.0150    5.1362    7.1860 H   0  0  0  0  0  0  0  0  0  0  0  0
   -1.3428    2.6177    7.2143 H   0  0  0  0  0  0  0  0  0  0  0  0
   -2.8246    2.9148    6.5958 H   0  0  0  0  0  0  0  0  0  0  0  0
   -1.5311    3.7518    6.0545 H   0  0  0  0  0  0  0  0  0  0  0  0
   -3.9382    0.0291   10.9724 H   0  0  0  0  0  0  0  0  0  0  0  0
   -1.6486    2.5519   12.1794 H   0  0  0  0  0  0  0  0  0  0  0  0
   -5.5040    2.6829   10.7467 H   0  0  0  0  0  0  0  0  0  0  0  0
   -0.8752    3.5529   10.1363 H   0  0  0  0  0  0  0  0  0  0  0  0
   -4.7611    3.6720    8.7393 H   0  0  0  0  0  0  0  0  0  0  0  0
   -6.3237    1.1671   14.2144 H   0  0  0  0  0  0  0  0  0  0  0  0
   -1.3066    4.8133    8.1628 H   0  0  0  0  0  0  0  0  0  0  0  0
  1 16  1  0  0  0  0
  2 17  1  0  0  0  0
  3 10  2  0  0  0  0
  3 18  1  0  0  0  0
  4 16  2  0  0  0  0
  4 17  1  0  0  0  0
  5 16  1  0  0  0  0
  5 18  2  0  0  0  0
  6  7  1  0  0  0  0
  6 19  1  0  0  0  0
  6 20  1  0  0  0  0
  8 21  1  0  0  0  0
  9 21  1  0  0  0  0
 10 20  1  0  0  0  0
 11 13  2  0  0  0  0
 11 19  1  0  0  0  0
 12 14  1  0  0  0  0
 12 19  2  0  0  0  0
 13 22  1  0  0  0  0
 14 22  2  0  0  0  0
 15 20  2  0  0  0  0
 15 23  1  0  0  0  0
 17 23  2  0  0  0  0
 18 23  1  0  0  0  0
 21 22  1  0  0  0  0
  1 24  1  0  0  0  0
  1 25  1  0  0  0  0
  2 26  1  0  0  0  0
  2 27  1  0  0  0  0
  7 28  1  0  0  0  0
  7 29  1  0  0  0  0
  7 30  1  0  0  0  0
  8 31  1  0  0  0  0
  8 32  1  0  0  0  0
  8 33  1  0  0  0  0
  9 34  1  0  0  0  0
  9 35  1  0  0  0  0
  9 36  1  0  0  0  0
 10 37  1  0  0  0  0
 11 38  1  0  0  0  0
 12 39  1  0  0  0  0
 13 40  1  0  0  0  0
 14 41  1  0  0  0  0
 15 42  1  0  0  0  0
 21 43  1  0  0  0  0
M  END
> <pdb_id>
4IXF

> <uniprot_id>
P16184

> <usmiles>
n1c(nc(N)c2c1ncc(N(c3ccc(cc3)C(C)C)C)c2)N

$$$$
IXG_X_302
          07202406513D 1   1.00000     0.00000     0
            
 34 36  0  0  0  0            999 V2000
   -9.3253   -3.5929   12.1021 N   0  0  0  0  0  0  0  0  0  0  0  0
   -8.3798    0.1396   15.0522 N   0  0  0  0  0  0  0  0  0  0  0  0
   -5.6269   -1.1059   11.2044 N   0  0  0  0  0  0  0  0  0  0  0  0
   -8.8366   -1.7397   13.5797 N   0  0  0  0  0  0  0  0  0  0  0  0
   -7.4813   -2.3301   11.7220 N   0  0  0  0  0  0  0  0  0  0  0  0
   -4.1089    1.8539   12.7945 N   0  0  0  0  0  0  0  0  0  0  0  0
   -3.8565    2.2694   14.1485 C   0  0  0  0  0  0  0  0  0  0  0  0
   -4.7949   -0.0727   11.4533 C   0  0  0  0  0  0  0  0  0  0  0  0
   -2.2869    3.8301    9.5685 C   0  0  0  0  0  0  0  0  0  0  0  0
   -1.4912    3.2085   10.5404 C   0  0  0  0  0  0  0  0  0  0  0  0
   -3.6790    3.7463    9.6775 C   0  0  0  0  0  0  0  0  0  0  0  0
   -2.0986    2.5700   11.6320 C   0  0  0  0  0  0  0  0  0  0  0  0
   -4.2785    3.0987   10.7710 C   0  0  0  0  0  0  0  0  0  0  0  0
   -6.0790    0.6259   13.3889 C   0  0  0  0  0  0  0  0  0  0  0  0
   -8.5763   -2.5098   12.4578 C   0  0  0  0  0  0  0  0  0  0  0  0
   -8.0640   -0.6850   13.9793 C   0  0  0  0  0  0  0  0  0  0  0  0
   -6.6927   -1.2834   12.0136 C   0  0  0  0  0  0  0  0  0  0  0  0
   -4.9750    0.8206   12.5563 C   0  0  0  0  0  0  0  0  0  0  0  0
   -3.5039    2.5119   11.7601 C   0  0  0  0  0  0  0  0  0  0  0  0
   -6.9340   -0.4573   13.1413 C   0  0  0  0  0  0  0  0  0  0  0  0
   -9.0925   -4.1139   11.2810 H   0  0  0  0  0  0  0  0  0  0  0  0
  -10.1072   -3.8659   12.6626 H   0  0  0  0  0  0  0  0  0  0  0  0
   -7.7737    0.8966   15.2964 H   0  0  0  0  0  0  0  0  0  0  0  0
   -9.2132   -0.0239   15.5802 H   0  0  0  0  0  0  0  0  0  0  0  0
   -3.2063    3.0292   14.1483 H   0  0  0  0  0  0  0  0  0  0  0  0
   -4.7132    2.5639   14.5720 H   0  0  0  0  0  0  0  0  0  0  0  0
   -3.4745    1.5039   14.6663 H   0  0  0  0  0  0  0  0  0  0  0  0
   -4.0189    0.0748   10.8402 H   0  0  0  0  0  0  0  0  0  0  0  0
   -1.8660    4.3259    8.8088 H   0  0  0  0  0  0  0  0  0  0  0  0
   -0.4948    3.2201   10.4562 H   0  0  0  0  0  0  0  0  0  0  0  0
   -4.2549    4.1524    8.9680 H   0  0  0  0  0  0  0  0  0  0  0  0
   -1.5249    2.1473   12.3335 H   0  0  0  0  0  0  0  0  0  0  0  0
   -5.2756    3.0605   10.8367 H   0  0  0  0  0  0  0  0  0  0  0  0
   -6.2570    1.2495   14.1501 H   0  0  0  0  0  0  0  0  0  0  0  0
  1 15  1  0  0  0  0
  2 16  1  0  0  0  0
  3  8  2  0  0  0  0
  3 17  1  0  0  0  0
  4 15  2  0  0  0  0
  4 16  1  0  0  0  0
  5 15  1  0  0  0  0
  5 17  2  0  0  0  0
  6  7  1  0  0  0  0
  6 18  1  0  0  0  0
  6 19  1  0  0  0  0
  8 18  1  0  0  0  0
  9 10  2  0  0  0  0
  9 11  1  0  0  0  0
 10 12  1  0  0  0  0
 11 13  2  0  0  0  0
 12 19  2  0  0  0  0
 13 19  1  0  0  0  0
 14 18  2  0  0  0  0
 14 20  1  0  0  0  0
 16 20  2  0  0  0  0
 17 20  1  0  0  0  0
  1 21  1  0  0  0  0
  1 22  1  0  0  0  0
  2 23  1  0  0  0  0
  2 24  1  0  0  0  0
  7 25  1  0  0  0  0
  7 26  1  0  0  0  0
  7 27  1  0  0  0  0
  8 28  1  0  0  0  0
  9 29  1  0  0  0  0
 10 30  1  0  0  0  0
 11 31  1  0  0  0  0
 12 32  1  0  0  0  0
 13 33  1  0  0  0  0
 14 34  1  0  0  0  0
M  END
> <pdb_id>
4IXG

> <uniprot_id>
P16184

> <usmiles>
n1c(nc(N)c2c1ncc(N(c3ccccc3)C)c2)N

$$$$
IXL_A_803
          07192416573D 1   1.00000     0.00000     0
            
 57 61  0  0  0  0            999 V2000
   19.6237   -3.8908   18.5719 O   0  0  0  0  0  0  0  0  0  0  0  0
   16.4020   -1.6999   21.0704 O   0  0  0  0  0  0  0  0  0  0  0  0
   16.4299   -1.9642   16.5306 N   0  0  0  0  0  0  0  0  0  0  0  0
   18.5012   -3.3506   20.4646 N   0  0  0  0  0  0  0  0  0  0  0  0
   22.8788   -4.2793   22.6444 N   0  0  0  0  0  0  0  0  0  0  0  0
   17.4347   -2.7110   17.0055 N   0  0  0  0  0  0  0  0  0  0  0  0
   15.5938    0.1804   20.0831 N   0  0  0  0  0  0  0  0  0  0  0  0
   20.9169   -4.9893   23.5604 N   0  0  0  0  0  0  0  0  0  0  0  0
   18.2494   -3.5593   16.1580 C   0  0  0  0  0  0  0  0  0  0  0  0
   23.7058   -6.6038   26.3636 C   0  0  0  0  0  0  0  0  0  0  0  0
   15.9446   -1.2086   17.5342 C   0  0  0  0  0  0  0  0  0  0  0  0
   15.3479    0.9432   21.3327 C   0  0  0  0  0  0  0  0  0  0  0  0
   15.7625    1.3683   19.2272 C   0  0  0  0  0  0  0  0  0  0  0  0
   19.5000   -5.1223   23.7396 C   0  0  0  0  0  0  0  0  0  0  0  0
   21.9264   -5.3713   24.4477 C   0  0  0  0  0  0  0  0  0  0  0  0
   15.3698    2.2489   20.4582 C   0  0  0  0  0  0  0  0  0  0  0  0
   27.1067   -5.1379   25.3676 C   0  0  0  0  0  0  0  0  0  0  0  0
   26.7976   -4.3676   24.2354 C   0  0  0  0  0  0  0  0  0  0  0  0
   18.7366   -4.1908   22.7599 C   0  0  0  0  0  0  0  0  0  0  0  0
   26.0900   -5.8453   26.0199 C   0  0  0  0  0  0  0  0  0  0  0  0
   25.4763   -4.3335   23.7847 C   0  0  0  0  0  0  0  0  0  0  0  0
   20.7906   -3.7614   21.2887 C   0  0  0  0  0  0  0  0  0  0  0  0
   18.6644   -3.2959   19.1292 C   0  0  0  0  0  0  0  0  0  0  0  0
   16.2353   -1.0504   20.0226 C   0  0  0  0  0  0  0  0  0  0  0  0
   21.5314   -4.3393   22.4556 C   0  0  0  0  0  0  0  0  0  0  0  0
   19.3080   -4.1950   21.3190 C   0  0  2  0  0  0  0  0  0  0  0  0
   23.1328   -4.9049   23.8741 C   0  0  0  0  0  0  0  0  0  0  0  0
   17.6237   -2.5176   18.3621 C   0  0  0  0  0  0  0  0  0  0  0  0
   24.7374   -5.8151   25.6035 C   0  0  0  0  0  0  0  0  0  0  0  0
   16.6440   -1.5616   18.7288 C   0  0  0  0  0  0  0  0  0  0  0  0
   24.4554   -5.0377   24.4455 C   0  0  0  0  0  0  0  0  0  0  0  0
   17.7922   -2.7835   20.8838 H   0  0  0  0  0  0  0  0  0  0  0  0
   18.9372   -4.0248   16.7149 H   0  0  0  0  0  0  0  0  0  0  0  0
   17.6686   -4.2383   15.7091 H   0  0  0  0  0  0  0  0  0  0  0  0
   18.7045   -2.9997   15.4652 H   0  0  0  0  0  0  0  0  0  0  0  0
   22.8088   -6.4735   25.9412 H   0  0  0  0  0  0  0  0  0  0  0  0
   23.9463   -7.5742   26.3429 H   0  0  0  0  0  0  0  0  0  0  0  0
   23.6767   -6.2877   27.3119 H   0  0  0  0  0  0  0  0  0  0  0  0
   15.2221   -0.5215   17.4569 H   0  0  0  0  0  0  0  0  0  0  0  0
   16.0814    0.8823   22.0098 H   0  0  0  0  0  0  0  0  0  0  0  0
   14.4710    0.7508   21.7731 H   0  0  0  0  0  0  0  0  0  0  0  0
   15.1239    1.4203   18.4594 H   0  0  0  0  0  0  0  0  0  0  0  0
   16.6949    1.5114   18.8954 H   0  0  0  0  0  0  0  0  0  0  0  0
   19.2629   -4.8762   24.6793 H   0  0  0  0  0  0  0  0  0  0  0  0
   19.2342   -6.0706   23.5661 H   0  0  0  0  0  0  0  0  0  0  0  0
   21.8187   -5.8698   25.3079 H   0  0  0  0  0  0  0  0  0  0  0  0
   16.0644    2.9158   20.7281 H   0  0  0  0  0  0  0  0  0  0  0  0
   14.4841    2.7055   20.3745 H   0  0  0  0  0  0  0  0  0  0  0  0
   28.0467   -5.1809   25.7058 H   0  0  0  0  0  0  0  0  0  0  0  0
   27.5109   -3.8525   23.7601 H   0  0  0  0  0  0  0  0  0  0  0  0
   18.7810   -3.2567   23.1140 H   0  0  0  0  0  0  0  0  0  0  0  0
   17.7825   -4.4878   22.7215 H   0  0  0  0  0  0  0  0  0  0  0  0
   26.3307   -6.3981   26.8178 H   0  0  0  0  0  0  0  0  0  0  0  0
   25.2513   -3.7953   22.9725 H   0  0  0  0  0  0  0  0  0  0  0  0
   21.2103   -4.0839   20.4403 H   0  0  0  0  0  0  0  0  0  0  0  0
   20.8423   -2.7635   21.3278 H   0  0  0  0  0  0  0  0  0  0  0  0
   19.2532   -5.1299   20.9686 H   0  0  0  0  0  0  0  0  0  0  0  0
  1 23  2  0  0  0  0
  2 24  2  0  0  0  0
  3  6  1  0  0  0  0
  3 11  2  0  0  0  0
  4 23  1  0  0  0  0
  4 26  1  0  0  0  0
  5 25  2  0  0  0  0
  5 27  1  0  0  0  0
  6  9  1  0  0  0  0
  6 28  1  0  0  0  0
  7 12  1  0  0  0  0
  7 13  1  0  0  0  0
  7 24  1  0  0  0  0
  8 14  1  0  0  0  0
  8 15  1  0  0  0  0
  8 25  1  0  0  0  0
 10 29  1  0  0  0  0
 11 30  1  0  0  0  0
 12 16  1  0  0  0  0
 13 16  1  0  0  0  0
 14 19  1  0  0  0  0
 15 27  2  0  0  0  0
 17 18  2  0  0  0  0
 17 20  1  0  0  0  0
 18 21  1  0  0  0  0
 19 26  1  0  0  0  0
 20 29  2  0  0  0  0
 21 31  2  0  0  0  0
 22 25  1  0  0  0  0
 22 26  1  0  0  0  0
 23 28  1  0  0  0  0
 24 30  1  0  0  0  0
 27 31  1  0  0  0  0
 28 30  2  0  0  0  0
 29 31  1  0  0  0  0
  4 32  1  0  0  0  0
  9 33  1  0  0  0  0
  9 34  1  0  0  0  0
  9 35  1  0  0  0  0
 10 36  1  0  0  0  0
 10 37  1  0  0  0  0
 10 38  1  0  0  0  0
 11 39  1  0  0  0  0
 12 40  1  0  0  0  0
 12 41  1  0  0  0  0
 13 42  1  0  0  0  0
 13 43  1  0  0  0  0
 14 44  1  0  0  0  0
 14 45  1  0  0  0  0
 15 46  1  0  0  0  0
 16 47  1  0  0  0  0
 16 48  1  0  0  0  0
 17 49  1  0  0  0  0
 18 50  1  0  0  0  0
 19 51  1  0  0  0  0
 19 52  1  0  0  0  0
 20 53  1  0  0  0  0
 21 54  1  0  0  0  0
 22 55  1  0  0  0  0
 22 56  1  0  0  0  0
 26 57  1  0  0  0  0
M  END
> <pdb_id>
5SGK

> <uniprot_id>
Q9Y233

> <usmiles>
O=C(N1CCC1)C2=C(N(N=C2)C)C(=O)N[C@H]3CC4=NC(c5c(cccc5)C)=CN4CC3

$$$$
IXM_A_451
          07202403123D 1   1.00000     0.00000     0
            
 32 35  0  0  0  0            999 V2000
   40.0877    6.1970   31.0338 O   0  0  0  0  0  0  0  0  0  0  0  0
   41.7266    8.0116   37.2152 O   0  0  0  0  0  0  0  0  0  0  0  0
   40.1763    6.9256   32.2209 N   0  0  0  0  0  0  0  0  0  0  0  0
   40.4667    9.8868   36.6220 N   0  0  0  0  0  0  0  0  0  0  0  0
   41.5953    6.0185   35.3584 N   0  0  0  0  0  0  0  0  0  0  0  0
   38.2967   11.7721   34.2349 C   0  0  0  0  0  0  0  0  0  0  0  0
   42.7200    2.6484   34.2271 C   0  0  0  0  0  0  0  0  0  0  0  0
   42.2717    2.7526   32.8730 C   0  0  0  0  0  0  0  0  0  0  0  0
   38.2934   10.8081   33.1795 C   0  0  0  0  0  0  0  0  0  0  0  0
   39.0206   11.5220   35.4251 C   0  0  0  0  0  0  0  0  0  0  0  0
   42.5159    3.7238   35.1297 C   0  0  0  0  0  0  0  0  0  0  0  0
   41.6109    3.9360   32.4053 C   0  0  0  0  0  0  0  0  0  0  0  0
   39.0203    9.5781   33.3117 C   0  0  0  0  0  0  0  0  0  0  0  0
   41.0252    8.6333   36.4158 C   0  0  0  0  0  0  0  0  0  0  0  0
   39.7228   10.3003   35.5276 C   0  0  0  0  0  0  0  0  0  0  0  0
   41.8718    4.8838   34.6554 C   0  0  0  0  0  0  0  0  0  0  0  0
   40.7867    6.3474   33.2100 C   0  0  0  0  0  0  0  0  0  0  0  0
   40.9606    6.9712   34.5906 C   0  0  0  0  0  0  0  0  0  0  0  0
   41.4195    4.9939   33.3185 C   0  0  0  0  0  0  0  0  0  0  0  0
   39.7413    9.3190   34.5003 C   0  0  0  0  0  0  0  0  0  0  0  0
   40.5737    8.2026   35.0233 C   0  0  0  0  0  0  0  0  0  0  0  0
   39.6285    6.5917   30.2379 H   0  0  0  0  0  0  0  0  0  0  0  0
   40.5861   10.4250   37.4563 H   0  0  0  0  0  0  0  0  0  0  0  0
   41.8270    6.1455   36.3229 H   0  0  0  0  0  0  0  0  0  0  0  0
   37.7861   12.6258   34.1320 H   0  0  0  0  0  0  0  0  0  0  0  0
   43.1784    1.8159   34.5384 H   0  0  0  0  0  0  0  0  0  0  0  0
   42.4211    1.9898   32.2439 H   0  0  0  0  0  0  0  0  0  0  0  0
   37.7798   10.9925   32.3415 H   0  0  0  0  0  0  0  0  0  0  0  0
   39.0346   12.1890   36.1701 H   0  0  0  0  0  0  0  0  0  0  0  0
   42.8217    3.6601   36.0797 H   0  0  0  0  0  0  0  0  0  0  0  0
   41.2949    4.0092   31.4593 H   0  0  0  0  0  0  0  0  0  0  0  0
   39.0170    8.9089   32.5686 H   0  0  0  0  0  0  0  0  0  0  0  0
  1  3  1  0  0  0  0
  2 14  2  0  0  0  0
  3 17  2  0  0  0  0
  4 14  1  0  0  0  0
  4 15  1  0  0  0  0
  5 16  1  0  0  0  0
  5 18  1  0  0  0  0
  6  9  2  0  0  0  0
  6 10  1  0  0  0  0
  7  8  2  0  0  0  0
  7 11  1  0  0  0  0
  8 12  1  0  0  0  0
  9 13  1  0  0  0  0
 10 15  2  0  0  0  0
 11 16  2  0  0  0  0
 12 19  2  0  0  0  0
 13 20  2  0  0  0  0
 14 21  1  0  0  0  0
 15 20  1  0  0  0  0
 16 19  1  0  0  0  0
 17 18  1  0  0  0  0
 17 19  1  0  0  0  0
 18 21  2  0  0  0  0
 20 21  1  0  0  0  0
  1 22  1  0  0  0  0
  4 23  1  0  0  0  0
  5 24  1  0  0  0  0
  6 25  1  0  0  0  0
  7 26  1  0  0  0  0
  8 27  1  0  0  0  0
  9 28  1  0  0  0  0
 10 29  1  0  0  0  0
 11 30  1  0  0  0  0
 12 31  1  0  0  0  0
 13 32  1  0  0  0  0
M  END
> <pdb_id>
1Q41

> <uniprot_id>
P49841

> <usmiles>
O=C/1Nc2c(cccc2)\C1=C/3\Nc4c(cccc4)C3=NO

$$$$
IY6_B_803
          07192416573D 1   1.00000     0.00000     0
            
 50 53  0  0  0  0            999 V2000
   18.0927   -1.5799   23.0647 F   0  0  0  0  0  0  0  0  0  0  0  0
   16.2994   -2.7404   22.6467 F   0  0  0  0  0  0  0  0  0  0  0  0
   18.0896   -3.8668   22.9192 F   0  0  0  0  0  0  0  0  0  0  0  0
   22.4860   -5.7216   24.6180 N   0  0  0  0  0  0  0  0  0  0  0  0
   19.4883   -3.2260   19.1785 N   0  0  0  0  0  0  0  0  0  0  0  0
   22.8609   -4.7723   22.6097 N   0  0  0  0  0  0  0  0  0  0  0  0
   16.5435   -2.1732   17.6290 N   0  0  0  0  0  0  0  0  0  0  0  0
   21.3346   -5.7875   23.9513 N   0  0  0  0  0  0  0  0  0  0  0  0
   18.5273   -2.9377   18.3039 N   0  0  0  0  0  0  0  0  0  0  0  0
   24.6078   -4.9330   24.3057 N   0  0  0  0  0  0  0  0  0  0  0  0
   20.0415   -6.3101   24.5094 C   0  0  0  0  0  0  0  0  0  0  0  0
   16.7115   -2.2052   15.2229 C   0  0  0  0  0  0  0  0  0  0  0  0
   19.7627   -3.3480   16.0569 C   0  0  0  0  0  0  0  0  0  0  0  0
   25.7516   -4.5800   23.4136 C   0  0  0  0  0  0  0  0  0  0  0  0
   24.9928   -5.6289   25.5232 C   0  0  0  0  0  0  0  0  0  0  0  0
   27.0086   -5.0847   24.1685 C   0  0  0  0  0  0  0  0  0  0  0  0
   26.4677   -5.1919   25.6445 C   0  0  0  0  0  0  0  0  0  0  0  0
   20.4270   -5.0176   21.7374 C   0  0  0  0  0  0  0  0  0  0  0  0
   20.3795   -3.5422   21.3618 C   0  0  0  0  0  0  0  0  0  0  0  0
   16.9388   -2.3936   20.0549 C   0  0  0  0  0  0  0  0  0  0  0  0
   23.3343   -5.2026   23.7982 C   0  0  0  0  0  0  0  0  0  0  0  0
   21.5757   -5.1695   22.7240 C   0  0  0  0  0  0  0  0  0  0  0  0
   17.2382   -2.4793   18.6736 C   0  0  0  0  0  0  0  0  0  0  0  0
   17.3006   -2.4238   16.5736 C   0  0  0  0  0  0  0  0  0  0  0  0
   19.2165   -3.1851   20.4349 C   0  0  0  0  0  0  0  0  0  0  0  0
   18.5753   -2.9234   16.8819 C   0  0  0  0  0  0  0  0  0  0  0  0
   17.9353   -2.7400   20.9088 C   0  0  0  0  0  0  0  0  0  0  0  0
   17.6449   -2.6961   22.4026 C   0  0  0  0  0  0  0  0  0  0  0  0
   19.3291   -6.2524   23.8101 H   0  0  0  0  0  0  0  0  0  0  0  0
   20.1595   -7.2635   24.7872 H   0  0  0  0  0  0  0  0  0  0  0  0
   19.7752   -5.7624   25.3025 H   0  0  0  0  0  0  0  0  0  0  0  0
   17.3889   -2.4320   14.5231 H   0  0  0  0  0  0  0  0  0  0  0  0
   15.9080   -2.7899   15.1111 H   0  0  0  0  0  0  0  0  0  0  0  0
   16.4422   -1.2468   15.1279 H   0  0  0  0  0  0  0  0  0  0  0  0
   19.5475   -3.2456   15.0857 H   0  0  0  0  0  0  0  0  0  0  0  0
   20.5498   -2.7753   16.2860 H   0  0  0  0  0  0  0  0  0  0  0  0
   19.9788   -4.3048   16.2514 H   0  0  0  0  0  0  0  0  0  0  0  0
   25.7976   -3.5909   23.2736 H   0  0  0  0  0  0  0  0  0  0  0  0
   25.6636   -5.0382   22.5291 H   0  0  0  0  0  0  0  0  0  0  0  0
   24.9088   -6.6204   25.4237 H   0  0  0  0  0  0  0  0  0  0  0  0
   24.4524   -5.3257   26.3081 H   0  0  0  0  0  0  0  0  0  0  0  0
   27.7617   -4.4302   24.1022 H   0  0  0  0  0  0  0  0  0  0  0  0
   27.3087   -5.9743   23.8241 H   0  0  0  0  0  0  0  0  0  0  0  0
   26.9909   -5.8717   26.1583 H   0  0  0  0  0  0  0  0  0  0  0  0
   26.5313   -4.3057   26.1035 H   0  0  0  0  0  0  0  0  0  0  0  0
   20.5920   -5.5767   20.9249 H   0  0  0  0  0  0  0  0  0  0  0  0
   19.5657   -5.2945   22.1633 H   0  0  0  0  0  0  0  0  0  0  0  0
   21.2351   -3.3051   20.9017 H   0  0  0  0  0  0  0  0  0  0  0  0
   20.2920   -3.0048   22.2006 H   0  0  0  0  0  0  0  0  0  0  0  0
   16.0429   -2.0944   20.3831 H   0  0  0  0  0  0  0  0  0  0  0  0
  1 28  1  0  0  0  0
  2 28  1  0  0  0  0
  3 28  1  0  0  0  0
  4  8  1  0  0  0  0
  4 21  2  0  0  0  0
  5  9  1  0  0  0  0
  5 25  2  0  0  0  0
  6 21  1  0  0  0  0
  6 22  2  0  0  0  0
  7 23  2  0  0  0  0
  7 24  1  0  0  0  0
  8 11  1  0  0  0  0
  8 22  1  0  0  0  0
  9 23  1  0  0  0  0
  9 26  1  0  0  0  0
 10 14  1  0  0  0  0
 10 15  1  0  0  0  0
 10 21  1  0  0  0  0
 12 24  1  0  0  0  0
 13 26  1  0  0  0  0
 14 16  1  0  0  0  0
 15 17  1  0  0  0  0
 16 17  1  0  0  0  0
 18 19  1  0  0  0  0
 18 22  1  0  0  0  0
 19 25  1  0  0  0  0
 20 23  1  0  0  0  0
 20 27  2  0  0  0  0
 24 26  2  0  0  0  0
 25 27  1  0  0  0  0
 27 28  1  0  0  0  0
 11 29  1  0  0  0  0
 11 30  1  0  0  0  0
 11 31  1  0  0  0  0
 12 32  1  0  0  0  0
 12 33  1  0  0  0  0
 12 34  1  0  0  0  0
 13 35  1  0  0  0  0
 13 36  1  0  0  0  0
 13 37  1  0  0  0  0
 14 38  1  0  0  0  0
 14 39  1  0  0  0  0
 15 40  1  0  0  0  0
 15 41  1  0  0  0  0
 16 42  1  0  0  0  0
 16 43  1  0  0  0  0
 17 44  1  0  0  0  0
 17 45  1  0  0  0  0
 18 46  1  0  0  0  0
 18 47  1  0  0  0  0
 19 48  1  0  0  0  0
 19 49  1  0  0  0  0
 20 50  1  0  0  0  0
M  END
> <pdb_id>
5SGN

> <uniprot_id>
Q9Y233

> <usmiles>
FC(F)(F)C=1C(=NN2C(=NC(=C2C)C)C1)CCC3=NC(=NN3C)N4CCCC4

$$$$
IYZ_B_1306
          07192419233D 1   1.00000     0.00000     0
            
 41 44  0  0  0  0            999 V2000
  -22.0701   39.8084   -0.9214 O   0  0  0  0  0  0  0  0  0  0  0  0
  -17.5754   35.6626   -1.1192 N   0  0  0  0  0  0  0  0  0  0  0  0
  -17.0220   35.1056   -3.2700 N   0  0  0  0  0  0  0  0  0  0  0  0
  -16.5111   34.6676    1.9087 N   0  0  0  0  0  0  0  0  0  0  0  0
  -17.4115   35.5128    0.0917 N   0  0  0  0  0  0  0  0  0  0  0  0
  -20.5958   38.8323   -2.5552 C   0  0  0  0  0  0  0  0  0  0  0  0
  -17.4164   35.5606    2.2778 C   0  0  0  0  0  0  0  0  0  0  0  0
  -17.5234   36.3826   -3.8078 C   0  0  0  0  0  0  0  0  0  0  0  0
  -20.1967   38.6615    2.4690 C   0  0  0  0  0  0  0  0  0  0  0  0
  -15.8903   34.0242   -1.5916 C   0  0  0  0  0  0  0  0  0  0  0  0
  -15.6905   33.8546   -0.2359 C   0  0  0  0  0  0  0  0  0  0  0  0
  -20.7707   39.1069    1.2950 C   0  0  0  0  0  0  0  0  0  0  0  0
  -19.2758   37.6253    2.3850 C   0  0  0  0  0  0  0  0  0  0  0  0
  -19.5681   34.8602   -3.6205 C   0  0  0  0  0  0  0  0  0  0  0  0
  -19.2947   35.0745   -5.1042 C   0  0  0  0  0  0  0  0  0  0  0  0
  -19.4961   37.5233   -0.0162 C   0  0  0  0  0  0  0  0  0  0  0  0
  -16.8495   34.9375   -1.9831 C   0  0  0  0  0  0  0  0  0  0  0  0
  -16.4714   34.6008    0.6054 C   0  0  0  0  0  0  0  0  0  0  0  0
  -21.0966   39.0987   -1.1304 C   0  0  0  0  0  0  0  0  0  0  0  0
  -17.9866   36.0677    1.1947 C   0  0  0  0  0  0  0  0  0  0  0  0
  -19.0117   36.1958   -4.1072 C   0  0  0  0  0  0  0  0  0  0  0  0
  -20.4222   38.5303    0.0819 C   0  0  0  0  0  0  0  0  0  0  0  0
  -18.9376   37.0570    1.1630 C   0  0  0  0  0  0  0  0  0  0  0  0
  -16.8103   34.3562   -3.8973 H   0  0  0  0  0  0  0  0  0  0  0  0
  -19.7957   38.2335   -2.5208 H   0  0  0  0  0  0  0  0  0  0  0  0
  -21.3196   38.3914   -3.0859 H   0  0  0  0  0  0  0  0  0  0  0  0
  -20.3456   39.6984   -2.9879 H   0  0  0  0  0  0  0  0  0  0  0  0
  -17.6343   35.8115    3.2209 H   0  0  0  0  0  0  0  0  0  0  0  0
  -17.0323   36.6172   -4.6467 H   0  0  0  0  0  0  0  0  0  0  0  0
  -17.3986   37.1106   -3.1338 H   0  0  0  0  0  0  0  0  0  0  0  0
  -20.4358   39.0710    3.3494 H   0  0  0  0  0  0  0  0  0  0  0  0
  -15.3613   33.5059   -2.2636 H   0  0  0  0  0  0  0  0  0  0  0  0
  -15.0063   33.2157    0.1155 H   0  0  0  0  0  0  0  0  0  0  0  0
  -21.4410   39.8486    1.3190 H   0  0  0  0  0  0  0  0  0  0  0  0
  -18.8475   37.2814    3.2206 H   0  0  0  0  0  0  0  0  0  0  0  0
  -18.9892   34.2411   -3.0899 H   0  0  0  0  0  0  0  0  0  0  0  0
  -20.5098   34.8020   -3.2891 H   0  0  0  0  0  0  0  0  0  0  0  0
  -20.0570   35.1569   -5.7461 H   0  0  0  0  0  0  0  0  0  0  0  0
  -18.5364   34.5960   -5.5469 H   0  0  0  0  0  0  0  0  0  0  0  0
  -19.2347   37.1413   -0.9026 H   0  0  0  0  0  0  0  0  0  0  0  0
  -19.6090   36.9978   -4.1014 H   0  0  0  0  0  0  0  0  0  0  0  0
  1 19  2  0  0  0  0
  2  5  1  0  0  0  0
  2 17  2  0  0  0  0
  3  8  1  0  0  0  0
  3 17  1  0  0  0  0
  4  7  1  0  0  0  0
  4 18  2  0  0  0  0
  5 18  1  0  0  0  0
  5 20  1  0  0  0  0
  6 19  1  0  0  0  0
  7 20  2  0  0  0  0
  8 21  1  0  0  0  0
  9 12  1  0  0  0  0
  9 13  2  0  0  0  0
 10 11  2  0  0  0  0
 10 17  1  0  0  0  0
 11 18  1  0  0  0  0
 12 22  2  0  0  0  0
 13 23  1  0  0  0  0
 14 15  1  0  0  0  0
 14 21  1  0  0  0  0
 15 21  1  0  0  0  0
 16 22  1  0  0  0  0
 16 23  2  0  0  0  0
 19 22  1  0  0  0  0
 20 23  1  0  0  0  0
  3 24  1  0  0  0  0
  6 25  1  0  0  0  0
  6 26  1  0  0  0  0
  6 27  1  0  0  0  0
  7 28  1  0  0  0  0
  8 29  1  0  0  0  0
  8 30  1  0  0  0  0
  9 31  1  0  0  0  0
 10 32  1  0  0  0  0
 11 33  1  0  0  0  0
 12 34  1  0  0  0  0
 13 35  1  0  0  0  0
 14 36  1  0  0  0  0
 14 37  1  0  0  0  0
 15 38  1  0  0  0  0
 15 39  1  0  0  0  0
 16 40  1  0  0  0  0
 21 41  1  0  0  0  0
M  END
> <pdb_id>
2C3I

> <uniprot_id>
P11309

> <usmiles>
O=C(c1cc(ccc1)C=2N3N=C(NCC4CC4)C=CC3=NC2)C

$$$$
IZH_D_803
          07192416573D 1   1.00000     0.00000     0
            
 49 52  0  0  0  0            999 V2000
   26.3360   -7.4603   26.8593 F   0  0  0  0  0  0  0  0  0  0  0  0
   26.6308   -7.7131   24.8623 F   0  0  0  0  0  0  0  0  0  0  0  0
   24.5014   -7.7460   25.7540 F   0  0  0  0  0  0  0  0  0  0  0  0
   22.7752   -5.6396   24.9365 N   0  0  0  0  0  0  0  0  0  0  0  0
   19.8450   -3.5319   19.2908 N   0  0  0  0  0  0  0  0  0  0  0  0
   17.0453   -2.6459   17.0034 N   0  0  0  0  0  0  0  0  0  0  0  0
   23.0997   -5.0060   22.7355 N   0  0  0  0  0  0  0  0  0  0  0  0
   18.4504   -2.6859   20.8298 N   0  0  0  0  0  0  0  0  0  0  0  0
   21.5646   -5.4582   24.3255 N   0  0  0  0  0  0  0  0  0  0  0  0
   18.6730   -3.0910   18.7421 N   0  0  0  0  0  0  0  0  0  0  0  0
   25.0803   -5.4054   24.0948 N   0  0  0  0  0  0  0  0  0  0  0  0
   20.3325   -5.6597   25.0522 C   0  0  0  0  0  0  0  0  0  0  0  0
   19.2548   -3.6577   16.4567 C   0  0  0  0  0  0  0  0  0  0  0  0
   15.7206   -1.5154   20.3504 C   0  0  0  0  0  0  0  0  0  0  0  0
   16.2190   -2.1411   17.9981 C   0  0  0  0  0  0  0  0  0  0  0  0
   25.9630   -4.5806   23.2842 C   0  0  0  0  0  0  0  0  0  0  0  0
   27.3685   -4.7869   23.9542 C   0  0  0  0  0  0  0  0  0  0  0  0
   20.7331   -3.4482   21.5740 C   0  0  0  0  0  0  0  0  0  0  0  0
   20.6755   -4.8616   22.0524 C   0  0  0  0  0  0  0  0  0  0  0  0
   27.0375   -4.9632   25.4214 C   0  0  0  0  0  0  0  0  0  0  0  0
   23.6970   -5.3530   23.9327 C   0  0  0  0  0  0  0  0  0  0  0  0
   19.6563   -3.2597   20.5365 C   0  0  0  0  0  0  0  0  0  0  0  0
   18.2590   -3.1270   17.3926 C   0  0  0  0  0  0  0  0  0  0  0  0
   21.7597   -5.0878   23.0328 C   0  0  0  0  0  0  0  0  0  0  0  0
   17.8524   -2.5680   19.7066 C   0  0  0  0  0  0  0  0  0  0  0  0
   25.6322   -5.5203   25.4368 C   0  0  2  0  0  0  0  0  0  0  0  0
   16.5629   -2.0613   19.3132 C   0  0  0  0  0  0  0  0  0  0  0  0
   25.7491   -7.1322   25.7245 C   0  0  0  0  0  0  0  0  0  0  0  0
   19.5560   -5.4824   24.4476 H   0  0  0  0  0  0  0  0  0  0  0  0
   20.2901   -6.6030   25.3814 H   0  0  0  0  0  0  0  0  0  0  0  0
   20.2985   -5.0331   25.8309 H   0  0  0  0  0  0  0  0  0  0  0  0
   20.0650   -3.9521   16.9635 H   0  0  0  0  0  0  0  0  0  0  0  0
   18.8677   -4.4376   15.9649 H   0  0  0  0  0  0  0  0  0  0  0  0
   19.5110   -2.9454   15.8032 H   0  0  0  0  0  0  0  0  0  0  0  0
   16.1962   -1.5688   21.2285 H   0  0  0  0  0  0  0  0  0  0  0  0
   15.5119   -0.5599   20.1419 H   0  0  0  0  0  0  0  0  0  0  0  0
   14.8703   -2.0393   20.3995 H   0  0  0  0  0  0  0  0  0  0  0  0
   15.3121   -1.8148   17.7314 H   0  0  0  0  0  0  0  0  0  0  0  0
   25.6873   -3.6200   23.3189 H   0  0  0  0  0  0  0  0  0  0  0  0
   25.9704   -4.8911   22.3337 H   0  0  0  0  0  0  0  0  0  0  0  0
   27.9527   -3.9877   23.8130 H   0  0  0  0  0  0  0  0  0  0  0  0
   27.8224   -5.6001   23.5899 H   0  0  0  0  0  0  0  0  0  0  0  0
   21.6290   -3.2636   21.1698 H   0  0  0  0  0  0  0  0  0  0  0  0
   20.5782   -2.8246   22.3402 H   0  0  0  0  0  0  0  0  0  0  0  0
   20.7909   -5.4822   21.2769 H   0  0  0  0  0  0  0  0  0  0  0  0
   19.7909   -5.0318   22.4868 H   0  0  0  0  0  0  0  0  0  0  0  0
   27.0734   -4.0851   25.8985 H   0  0  0  0  0  0  0  0  0  0  0  0
   27.6745   -5.6027   25.8518 H   0  0  0  0  0  0  0  0  0  0  0  0
   25.0580   -5.0622   26.1154 H   0  0  0  0  0  0  0  0  0  0  0  0
  1 28  1  0  0  0  0
  2 28  1  0  0  0  0
  3 28  1  0  0  0  0
  4  9  1  0  0  0  0
  4 21  2  0  0  0  0
  5 10  1  0  0  0  0
  5 22  2  0  0  0  0
  6 15  1  0  0  0  0
  6 23  2  0  0  0  0
  7 21  1  0  0  0  0
  7 24  2  0  0  0  0
  8 22  1  0  0  0  0
  8 25  2  0  0  0  0
  9 12  1  0  0  0  0
  9 24  1  0  0  0  0
 10 23  1  0  0  0  0
 10 25  1  0  0  0  0
 11 16  1  0  0  0  0
 11 21  1  0  0  0  0
 11 26  1  0  0  0  0
 13 23  1  0  0  0  0
 14 27  1  0  0  0  0
 15 27  2  0  0  0  0
 16 17  1  0  0  0  0
 17 20  1  0  0  0  0
 18 19  1  0  0  0  0
 18 22  1  0  0  0  0
 19 24  1  0  0  0  0
 20 26  1  0  0  0  0
 25 27  1  0  0  0  0
 26 28  1  0  0  0  0
 12 29  1  0  0  0  0
 12 30  1  0  0  0  0
 12 31  1  0  0  0  0
 13 32  1  0  0  0  0
 13 33  1  0  0  0  0
 13 34  1  0  0  0  0
 14 35  1  0  0  0  0
 14 36  1  0  0  0  0
 14 37  1  0  0  0  0
 15 38  1  0  0  0  0
 16 39  1  0  0  0  0
 16 40  1  0  0  0  0
 17 41  1  0  0  0  0
 17 42  1  0  0  0  0
 18 43  1  0  0  0  0
 18 44  1  0  0  0  0
 19 45  1  0  0  0  0
 19 46  1  0  0  0  0
 20 47  1  0  0  0  0
 20 48  1  0  0  0  0
 26 49  1  0  0  0  0
M  END
> <pdb_id>
5SGX

> <uniprot_id>
Q9Y233

> <usmiles>
FC(F)(F)[C@@H]1N(C2=NN(C(=N2)CCC3=NN4C(=N3)C(=CN=C4C)C)C)CCC1

$$$$
IZP_A_303
          07192416293D 1   1.00000     0.00000     0
            
 33 33  0  0  0  0            999 V2000
   -7.6611    0.8147   16.3723 O   0  0  0  0  0  0  0  0  0  0  0  0
   -5.6850   -0.1301   16.1688 O   0  0  0  0  0  0  0  0  0  0  0  0
   -2.7967    7.3631   14.8638 C   0  0  0  0  0  0  0  0  0  0  0  0
   -1.4681    7.1690   12.7750 C   0  0  0  0  0  0  0  0  0  0  0  0
   -6.7015    2.7245   18.1858 C   0  0  0  0  0  0  0  0  0  0  0  0
   -3.2550    3.6470   14.8561 C   0  0  0  0  0  0  0  0  0  0  0  0
   -5.3262    4.7705   14.5218 C   0  0  0  0  0  0  0  0  0  0  0  0
   -3.8423    2.8295   15.8051 C   0  0  0  0  0  0  0  0  0  0  0  0
   -5.9174    3.9410   15.4768 C   0  0  0  0  0  0  0  0  0  0  0  0
   -3.3160    5.5275   13.1791 C   0  0  0  0  0  0  0  0  0  0  0  0
   -6.4039    0.8210   16.5528 C   0  0  0  0  0  0  0  0  0  0  0  0
   -3.9865    4.6210   14.2140 C   0  0  0  0  0  0  0  0  0  0  0  0
   -5.1800    2.9730   16.1320 C   0  0  0  0  0  0  0  0  0  0  0  0
   -2.2270    6.3864   13.8492 C   0  0  0  0  0  0  0  0  0  0  0  0
   -5.7436    2.0218   17.2094 C   0  0  1  0  0  0  0  0  0  0  0  0
   -2.0994    7.9713   15.1537 H   0  0  0  0  0  0  0  0  0  0  0  0
   -3.1369    6.8718   15.6283 H   0  0  0  0  0  0  0  0  0  0  0  0
   -3.5181    7.8676   14.4576 H   0  0  0  0  0  0  0  0  0  0  0  0
   -0.7661    7.6935   13.1921 H   0  0  0  0  0  0  0  0  0  0  0  0
   -1.0748    6.5497   12.1409 H   0  0  0  0  0  0  0  0  0  0  0  0
   -2.0814    7.7607   12.3111 H   0  0  0  0  0  0  0  0  0  0  0  0
   -7.4682    3.0638   17.6977 H   0  0  0  0  0  0  0  0  0  0  0  0
   -7.0010    2.0912   18.8577 H   0  0  0  0  0  0  0  0  0  0  0  0
   -6.2411    3.4605   18.6174 H   0  0  0  0  0  0  0  0  0  0  0  0
   -2.3548    3.5377   14.6493 H   0  0  0  0  0  0  0  0  0  0  0  0
   -5.8328    5.4215   14.0933 H   0  0  0  0  0  0  0  0  0  0  0  0
   -3.3326    2.1775   16.2287 H   0  0  0  0  0  0  0  0  0  0  0  0
   -6.8206    4.0423   15.6756 H   0  0  0  0  0  0  0  0  0  0  0  0
   -3.9836    6.1092   12.7830 H   0  0  0  0  0  0  0  0  0  0  0  0
   -2.9127    4.9801   12.4879 H   0  0  0  0  0  0  0  0  0  0  0  0
   -1.6336    5.7837   14.3230 H   0  0  0  0  0  0  0  0  0  0  0  0
   -4.9952    1.7156   17.7453 H   0  0  0  0  0  0  0  0  0  0  0  0
   -8.2153    1.5852   16.6873 H   0  0  0  0  0  0  0  0  0  0  0  0
  1 11  1  0  0  0  0
  2 11  2  0  0  0  0
  3 14  1  0  0  0  0
  3 16  1  0  0  0  0
  3 17  1  0  0  0  0
  3 18  1  0  0  0  0
  4 14  1  0  0  0  0
  4 19  1  0  0  0  0
  4 20  1  0  0  0  0
  4 21  1  0  0  0  0
  5 15  1  0  0  0  0
  5 22  1  0  0  0  0
  5 23  1  0  0  0  0
  5 24  1  0  0  0  0
  6  8  2  0  0  0  0
  6 12  1  0  0  0  0
  6 25  1  0  0  0  0
  7  9  1  0  0  0  0
  7 12  2  0  0  0  0
  7 26  1  0  0  0  0
  8 13  1  0  0  0  0
  8 27  1  0  0  0  0
  9 13  2  0  0  0  0
  9 28  1  0  0  0  0
 10 12  1  0  0  0  0
 10 14  1  0  0  0  0
 10 29  1  0  0  0  0
 10 30  1  0  0  0  0
 11 15  1  0  0  0  0
 13 15  1  0  0  0  0
 14 31  1  0  0  0  0
 15 32  1  0  0  0  0
  1 33  1  0  0  0  0
M  END
> <pdb_id>
8DJ9

> <uniprot_id>
P00918

> <usmiles>
O=C(O)[C@@H](c1ccc(cc1)CC(C)C)C

$$$$
IZP_A_409
          07202415063D 1   1.00000     0.00000     0
            
 33 33  0  0  0  0            999 V2000
   -0.1597    2.7617   13.7506 O   0  0  0  0  0  0  0  0  0  0  0  0
   -1.9610    2.2945   12.5230 O   0  0  0  0  0  0  0  0  0  0  0  0
   -3.1609   11.4510   15.6081 C   0  0  0  0  0  0  0  0  0  0  0  0
   -4.3899   10.0598   14.0028 C   0  0  0  0  0  0  0  0  0  0  0  0
   -3.9117    3.0662   14.2059 C   0  0  0  0  0  0  0  0  0  0  0  0
   -2.5251    7.1510   13.6584 C   0  0  0  0  0  0  0  0  0  0  0  0
   -2.1541    6.9290   16.0346 C   0  0  0  0  0  0  0  0  0  0  0  0
   -2.6051    5.7647   13.4546 C   0  0  0  0  0  0  0  0  0  0  0  0
   -2.1565    5.5207   15.8733 C   0  0  0  0  0  0  0  0  0  0  0  0
   -2.2512    9.2622   15.0244 C   0  0  0  0  0  0  0  0  0  0  0  0
   -1.4253    2.8396   13.5027 C   0  0  0  0  0  0  0  0  0  0  0  0
   -3.5371   10.0140   15.2593 C   0  0  0  0  0  0  0  0  0  0  0  0
   -2.3128    7.7369   14.9105 C   0  0  0  0  0  0  0  0  0  0  0  0
   -2.4140    3.4367   14.5197 C   0  0  1  0  0  0  0  0  0  0  0  0
   -2.3674    4.9580   14.6096 C   0  0  0  0  0  0  0  0  0  0  0  0
    0.2216    3.2196   14.5537 H   0  0  0  0  0  0  0  0  0  0  0  0
   -2.5969   11.4568   16.4339 H   0  0  0  0  0  0  0  0  0  0  0  0
   -2.6472   11.8543   14.8508 H   0  0  0  0  0  0  0  0  0  0  0  0
   -3.9919   11.9836   15.7683 H   0  0  0  0  0  0  0  0  0  0  0  0
   -4.6547    9.1305   13.7456 H   0  0  0  0  0  0  0  0  0  0  0  0
   -5.2105   10.6043   14.1766 H   0  0  0  0  0  0  0  0  0  0  0  0
   -3.8658   10.4750   13.2592 H   0  0  0  0  0  0  0  0  0  0  0  0
   -4.5083    3.4781   14.8946 H   0  0  0  0  0  0  0  0  0  0  0  0
   -4.1582    3.4130   13.3009 H   0  0  0  0  0  0  0  0  0  0  0  0
   -4.0197    2.0722   14.2228 H   0  0  0  0  0  0  0  0  0  0  0  0
   -2.6253    7.7523   12.8657 H   0  0  0  0  0  0  0  0  0  0  0  0
   -2.0404    7.3362   16.9409 H   0  0  0  0  0  0  0  0  0  0  0  0
   -2.8144    5.3680   12.5608 H   0  0  0  0  0  0  0  0  0  0  0  0
   -2.0071    4.9279   16.6646 H   0  0  0  0  0  0  0  0  0  0  0  0
   -1.6389    9.4779   15.7851 H   0  0  0  0  0  0  0  0  0  0  0  0
   -1.8580    9.6071   14.1720 H   0  0  0  0  0  0  0  0  0  0  0  0
   -4.0493    9.5979   16.0106 H   0  0  0  0  0  0  0  0  0  0  0  0
   -2.1882    3.0681   15.4215 H   0  0  0  0  0  0  0  0  0  0  0  0
  1 11  1  0  0  0  0
  2 11  2  0  0  0  0
  3 12  1  0  0  0  0
  4 12  1  0  0  0  0
  5 14  1  0  0  0  0
  6  8  2  0  0  0  0
  6 13  1  0  0  0  0
  7  9  1  0  0  0  0
  7 13  2  0  0  0  0
  8 15  1  0  0  0  0
  9 15  2  0  0  0  0
 10 12  1  0  0  0  0
 10 13  1  0  0  0  0
 11 14  1  0  0  0  0
 14 15  1  0  0  0  0
  1 16  1  0  0  0  0
  3 17  1  0  0  0  0
  3 18  1  0  0  0  0
  3 19  1  0  0  0  0
  4 20  1  0  0  0  0
  4 21  1  0  0  0  0
  4 22  1  0  0  0  0
  5 23  1  0  0  0  0
  5 24  1  0  0  0  0
  5 25  1  0  0  0  0
  6 26  1  0  0  0  0
  7 27  1  0  0  0  0
  8 28  1  0  0  0  0
  9 29  1  0  0  0  0
 10 30  1  0  0  0  0
 10 31  1  0  0  0  0
 12 32  1  0  0  0  0
 14 33  1  0  0  0  0
M  END
> <pdb_id>
3R8G

> <uniprot_id>
P42330

> <usmiles>
O=C(O)[C@@H](c1ccc(cc1)CC(C)C)C

$$$$
IZZ_A_800
          07202416103D 1   1.00000     0.00000     0
            
 44 46  0  0  0  0            999 V2000
   26.0323   33.6080    6.1426 O   0  0  0  0  0  0  0  0  0  0  0  0
   30.5527   26.8814   11.3443 N   0  0  0  0  0  0  0  0  0  0  0  0
   30.2537   31.9037    7.3989 N   0  0  0  0  0  0  0  0  0  0  0  0
   32.8550   30.1417    6.0521 N   0  0  0  0  0  0  0  0  0  0  0  0
   28.7629   33.6165    6.7407 N   0  0  0  0  0  0  0  0  0  0  0  0
   31.2475   31.1351    7.1833 N   0  0  0  0  0  0  0  0  0  0  0  0
   28.1518   34.9670    9.4746 C   0  0  0  0  0  0  0  0  0  0  0  0
   27.3887   32.6440   10.1740 C   0  0  0  0  0  0  0  0  0  0  0  0
   26.3612   33.8590    7.4689 C   0  0  0  0  0  0  0  0  0  0  0  0
   32.7971   29.5305    7.2231 C   0  0  0  0  0  0  0  0  0  0  0  0
   30.4057   30.5884   11.3793 C   0  0  0  0  0  0  0  0  0  0  0  0
   30.4853   32.8732    5.2938 C   0  0  0  0  0  0  0  0  0  0  0  0
   31.5796   32.0417    5.0296 C   0  0  0  0  0  0  0  0  0  0  0  0
   30.2904   29.2518   11.8043 C   0  0  0  0  0  0  0  0  0  0  0  0
   30.9031   30.8610   10.1053 C   0  0  0  0  0  0  0  0  0  0  0  0
   31.1840   28.4952    9.6587 C   0  0  0  0  0  0  0  0  0  0  0  0
   29.8419   32.8114    6.4894 C   0  0  0  0  0  0  0  0  0  0  0  0
   31.9420   31.1236    6.0372 C   0  0  0  0  0  0  0  0  0  0  0  0
   30.6760   28.2112   10.9344 C   0  0  0  0  0  0  0  0  0  0  0  0
   27.7582   33.1882    7.7299 C   0  0  2  0  0  0  0  0  0  0  0  0
   31.7964   30.1144    7.9497 C   0  0  0  0  0  0  0  0  0  0  0  0
   28.2140   33.4667    9.1747 C   0  0  0  0  0  0  0  0  0  0  0  0
   31.3034   29.8339    9.2208 C   0  0  0  0  0  0  0  0  0  0  0  0
   25.1453   34.0206    5.9353 H   0  0  0  0  0  0  0  0  0  0  0  0
   30.8253   26.1414   10.7295 H   0  0  0  0  0  0  0  0  0  0  0  0
   30.1918   26.6695   12.2525 H   0  0  0  0  0  0  0  0  0  0  0  0
   28.6579   34.4860    6.2579 H   0  0  0  0  0  0  0  0  0  0  0  0
   28.7008   35.4643    8.8027 H   0  0  0  0  0  0  0  0  0  0  0  0
   27.2026   35.2778    9.4251 H   0  0  0  0  0  0  0  0  0  0  0  0
   28.5115   35.1388   10.3917 H   0  0  0  0  0  0  0  0  0  0  0  0
   27.4563   31.6734    9.9429 H   0  0  0  0  0  0  0  0  0  0  0  0
   27.7406   32.7919   11.0983 H   0  0  0  0  0  0  0  0  0  0  0  0
   26.4317   32.9308   10.1318 H   0  0  0  0  0  0  0  0  0  0  0  0
   25.6713   33.4629    8.0748 H   0  0  0  0  0  0  0  0  0  0  0  0
   26.4183   34.8446    7.6281 H   0  0  0  0  0  0  0  0  0  0  0  0
   33.3808   28.7762    7.5237 H   0  0  0  0  0  0  0  0  0  0  0  0
   30.1334   31.3358   11.9853 H   0  0  0  0  0  0  0  0  0  0  0  0
   30.1739   33.5188    4.5964 H   0  0  0  0  0  0  0  0  0  0  0  0
   32.0814   32.0960    4.1663 H   0  0  0  0  0  0  0  0  0  0  0  0
   29.9377   29.0417   12.7162 H   0  0  0  0  0  0  0  0  0  0  0  0
   30.9789   31.8128    9.8083 H   0  0  0  0  0  0  0  0  0  0  0  0
   31.4629   27.7475    9.0561 H   0  0  0  0  0  0  0  0  0  0  0  0
   27.6417   32.1996    7.6345 H   0  0  0  0  0  0  0  0  0  0  0  0
   29.1680   33.1780    9.2553 H   0  0  0  0  0  0  0  0  0  0  0  0
  1  9  1  0  0  0  0
  2 19  1  0  0  0  0
  3  6  1  0  0  0  0
  3 17  2  0  0  0  0
  4 10  1  0  0  0  0
  4 18  2  0  0  0  0
  5 17  1  0  0  0  0
  5 20  1  0  0  0  0
  6 18  1  0  0  0  0
  6 21  1  0  0  0  0
  7 22  1  0  0  0  0
  8 22  1  0  0  0  0
  9 20  1  0  0  0  0
 10 21  2  0  0  0  0
 11 14  1  0  0  0  0
 11 15  2  0  0  0  0
 12 13  2  0  0  0  0
 12 17  1  0  0  0  0
 13 18  1  0  0  0  0
 14 19  2  0  0  0  0
 15 23  1  0  0  0  0
 16 19  1  0  0  0  0
 16 23  2  0  0  0  0
 20 22  1  0  0  0  0
 21 23  1  0  0  0  0
  1 24  1  0  0  0  0
  2 25  1  0  0  0  0
  2 26  1  0  0  0  0
  5 27  1  0  0  0  0
  7 28  1  0  0  0  0
  7 29  1  0  0  0  0
  7 30  1  0  0  0  0
  8 31  1  0  0  0  0
  8 32  1  0  0  0  0
  8 33  1  0  0  0  0
  9 34  1  0  0  0  0
  9 35  1  0  0  0  0
 10 36  1  0  0  0  0
 11 37  1  0  0  0  0
 12 38  1  0  0  0  0
 13 39  1  0  0  0  0
 14 40  1  0  0  0  0
 15 41  1  0  0  0  0
 16 42  1  0  0  0  0
 20 43  1  0  0  0  0
 22 44  1  0  0  0  0
M  END
> <pdb_id>
3F2N

> <uniprot_id>
Q8TF76

> <usmiles>
OC[C@@H](NC1=NN2C(=NC=C2c3cc(N)ccc3)C=C1)C(C)C

$$$$
J0F_A_506
          07202406103D 1   1.00000     0.00000     0
            
 26 27  0  0  0  0            999 V2000
  -58.7523   11.6916    7.5705 Br  0  0  0  0  0  0  0  0  0  0  0  0
  -63.5451   11.0239    8.5638 N   0  0  0  0  0  0  0  0  0  0  0  0
  -62.8067   10.4709   10.7875 N   0  0  0  0  0  0  0  0  0  0  0  0
  -60.4410   10.5954   11.0556 N   0  0  0  0  0  0  0  0  0  0  0  0
  -56.1129    9.6294   11.9844 C   0  0  0  0  0  0  0  0  0  0  0  0
  -65.1700   10.4181   10.2763 C   0  0  0  0  0  0  0  0  0  0  0  0
  -62.2759   11.2440    8.1403 C   0  0  0  0  0  0  0  0  0  0  0  0
  -57.4359    9.5039   11.2470 C   0  0  0  0  0  0  0  0  0  0  0  0
  -57.9385   10.8792   10.8247 C   0  0  0  0  0  0  0  0  0  0  0  0
  -63.7529   10.6510    9.8469 C   0  0  0  0  0  0  0  0  0  0  0  0
  -61.5781   10.7052   10.3123 C   0  0  0  0  0  0  0  0  0  0  0  0
  -59.3334   10.8906   10.2893 C   0  0  0  0  0  0  0  0  0  0  0  0
  -59.8133   11.1997    9.0400 C   0  0  0  0  0  0  0  0  0  0  0  0
  -61.2209   11.0853    9.0290 C   0  0  0  0  0  0  0  0  0  0  0  0
  -60.4139   10.3370   12.0212 H   0  0  0  0  0  0  0  0  0  0  0  0
  -55.7948    8.7210   12.2555 H   0  0  0  0  0  0  0  0  0  0  0  0
  -55.4355   10.0543   11.3837 H   0  0  0  0  0  0  0  0  0  0  0  0
  -56.2377   10.1957   12.7991 H   0  0  0  0  0  0  0  0  0  0  0  0
  -65.1866   10.1494   11.2394 H   0  0  0  0  0  0  0  0  0  0  0  0
  -65.6973   11.2592   10.1558 H   0  0  0  0  0  0  0  0  0  0  0  0
  -65.5715    9.6904    9.7203 H   0  0  0  0  0  0  0  0  0  0  0  0
  -62.1009   11.5187    7.1949 H   0  0  0  0  0  0  0  0  0  0  0  0
  -58.1101    9.0770   11.8496 H   0  0  0  0  0  0  0  0  0  0  0  0
  -57.3079    8.9355   10.4343 H   0  0  0  0  0  0  0  0  0  0  0  0
  -57.3283   11.2304   10.1144 H   0  0  0  0  0  0  0  0  0  0  0  0
  -57.9046   11.4826   11.6214 H   0  0  0  0  0  0  0  0  0  0  0  0
  1 13  1  0  0  0  0
  2  7  2  0  0  0  0
  2 10  1  0  0  0  0
  3 10  2  0  0  0  0
  3 11  1  0  0  0  0
  4 11  1  0  0  0  0
  4 12  1  0  0  0  0
  5  8  1  0  0  0  0
  6 10  1  0  0  0  0
  7 14  1  0  0  0  0
  8  9  1  0  0  0  0
  9 12  1  0  0  0  0
 11 14  2  0  0  0  0
 12 13  2  0  0  0  0
 13 14  1  0  0  0  0
  4 15  1  0  0  0  0
  5 16  1  0  0  0  0
  5 17  1  0  0  0  0
  5 18  1  0  0  0  0
  6 19  1  0  0  0  0
  6 20  1  0  0  0  0
  6 21  1  0  0  0  0
  7 22  1  0  0  0  0
  8 23  1  0  0  0  0
  8 24  1  0  0  0  0
  9 25  1  0  0  0  0
  9 26  1  0  0  0  0
M  END
> <pdb_id>
7EBH

> <uniprot_id>
Q15119

> <usmiles>
BrC=1c2c(nc(nc2)C)NC1CCC

$$$$
J0L_A_502
          07202414313D 1   1.00000     0.00000     0
            
 28 29  0  0  0  0            999 V2000
  -14.3140   11.1870   27.3930 O   0  0  0  0  0  0  0  0  0  0  0  0
  -14.1480   12.2770   22.2670 N   0  0  0  0  0  0  0  0  0  0  0  0
  -14.3110   11.4180   25.0940 N   0  0  0  0  0  0  0  0  0  0  0  0
  -14.0280   12.7430   20.9070 C   0  0  0  0  0  0  0  0  0  0  0  0
  -16.2300    8.9310   26.5000 C   0  0  0  0  0  0  0  0  0  0  0  0
  -13.7800    8.3160   26.4200 C   0  0  0  0  0  0  0  0  0  0  0  0
  -15.1110    8.6730   22.1360 C   0  0  0  0  0  0  0  0  0  0  0  0
  -14.7760    9.9780   21.7220 C   0  0  0  0  0  0  0  0  0  0  0  0
  -15.1670    8.3410   23.4870 C   0  0  0  0  0  0  0  0  0  0  0  0
  -14.4680   10.7180   26.2780 C   0  0  0  0  0  0  0  0  0  0  0  0
  -14.4830   10.9940   22.6370 C   0  0  0  0  0  0  0  0  0  0  0  0
  -14.5490   10.6190   23.9780 C   0  0  0  0  0  0  0  0  0  0  0  0
  -14.8820    9.3310   24.4050 C   0  0  0  0  0  0  0  0  0  0  0  0
  -14.8590    9.2700   25.9140 C   0  0  0  0  0  0  0  0  0  0  0  0
  -13.9744   12.9372   22.9977 H   0  0  0  0  0  0  0  0  0  0  0  0
  -14.0566   12.3839   25.0456 H   0  0  0  0  0  0  0  0  0  0  0  0
  -13.7750   13.7105   20.9072 H   0  0  0  0  0  0  0  0  0  0  0  0
  -13.3230   12.2142   20.4344 H   0  0  0  0  0  0  0  0  0  0  0  0
  -14.9028   12.6273   20.4366 H   0  0  0  0  0  0  0  0  0  0  0  0
  -16.9109    9.5736   26.1485 H   0  0  0  0  0  0  0  0  0  0  0  0
  -16.4837    8.0000   26.2376 H   0  0  0  0  0  0  0  0  0  0  0  0
  -16.1921    8.9977   27.4970 H   0  0  0  0  0  0  0  0  0  0  0  0
  -12.8991    8.5658   26.0181 H   0  0  0  0  0  0  0  0  0  0  0  0
  -13.7213    8.3775   27.4164 H   0  0  0  0  0  0  0  0  0  0  0  0
  -14.0129    7.3797   26.1570 H   0  0  0  0  0  0  0  0  0  0  0  0
  -15.3116    7.9748   21.4488 H   0  0  0  0  0  0  0  0  0  0  0  0
  -14.7470   10.1836   20.7438 H   0  0  0  0  0  0  0  0  0  0  0  0
  -15.4058    7.4159   23.7822 H   0  0  0  0  0  0  0  0  0  0  0  0
  1 10  2  0  0  0  0
  2  4  1  0  0  0  0
  2 11  1  0  0  0  0
  3 10  1  0  0  0  0
  3 12  1  0  0  0  0
  5 14  1  0  0  0  0
  6 14  1  0  0  0  0
  7  8  2  0  0  0  0
  7  9  1  0  0  0  0
  8 11  1  0  0  0  0
  9 13  2  0  0  0  0
 10 14  1  0  0  0  0
 11 12  2  0  0  0  0
 12 13  1  0  0  0  0
 13 14  1  0  0  0  0
  2 15  1  0  0  0  0
  3 16  1  0  0  0  0
  4 17  1  0  0  0  0
  4 18  1  0  0  0  0
  4 19  1  0  0  0  0
  5 20  1  0  0  0  0
  5 21  1  0  0  0  0
  5 22  1  0  0  0  0
  6 23  1  0  0  0  0
  6 24  1  0  0  0  0
  6 25  1  0  0  0  0
  7 26  1  0  0  0  0
  8 27  1  0  0  0  0
  9 28  1  0  0  0  0
M  END
> <pdb_id>
7EBG

> <uniprot_id>
Q16654

> <usmiles>
O=C1Nc2c(NC)cccc2C1(C)C

$$$$
J0O_A_803
          07192416573D 1   1.00000     0.00000     0
            
 52 56  0  0  0  0            999 V2000
   22.2282   -5.6043   25.0554 S   0  0  0  0  0  0  0  0  0  0  0  0
   20.2001   -3.4496   19.0988 O   0  0  0  0  0  0  0  0  0  0  0  0
   16.6212   -1.7355   21.3796 O   0  0  0  0  0  0  0  0  0  0  0  0
   27.4641   -5.1921   25.1374 O   0  0  0  0  0  0  0  0  0  0  0  0
   16.8622   -2.3539   16.6961 N   0  0  0  0  0  0  0  0  0  0  0  0
   23.0574   -4.5323   22.7740 N   0  0  0  0  0  0  0  0  0  0  0  0
   18.7024   -3.3550   20.8300 N   0  0  0  0  0  0  0  0  0  0  0  0
   17.9570   -2.8915   17.2678 N   0  0  0  0  0  0  0  0  0  0  0  0
   24.8123   -5.3175   24.2303 N   0  0  0  0  0  0  0  0  0  0  0  0
   15.5602   -0.0914   20.2445 N   0  0  0  0  0  0  0  0  0  0  0  0
   18.9509   -3.6754   16.5489 C   0  0  0  0  0  0  0  0  0  0  0  0
   26.5338   -6.0498   25.7853 C   0  0  0  0  0  0  0  0  0  0  0  0
   27.2197   -5.0281   23.7341 C   0  0  0  0  0  0  0  0  0  0  0  0
   16.1837   -1.6619   17.6683 C   0  0  0  0  0  0  0  0  0  0  0  0
   25.1158   -5.4494   25.6532 C   0  0  0  0  0  0  0  0  0  0  0  0
   25.7824   -4.5951   23.4107 C   0  0  0  0  0  0  0  0  0  0  0  0
   15.3549    0.7747   21.4477 C   0  0  0  0  0  0  0  0  0  0  0  0
   15.6620    1.0622   19.2963 C   0  0  0  0  0  0  0  0  0  0  0  0
   15.3088    2.0093   20.4991 C   0  0  0  0  0  0  0  0  0  0  0  0
   19.6624   -5.0527   24.0847 C   0  0  0  0  0  0  0  0  0  0  0  0
   18.9153   -4.4978   23.0403 C   0  0  0  0  0  0  0  0  0  0  0  0
   20.9054   -3.8945   21.7133 C   0  0  0  0  0  0  0  0  0  0  0  0
   23.4820   -5.1008   23.9082 C   0  0  0  0  0  0  0  0  0  0  0  0
   19.0818   -3.1479   19.5355 C   0  0  0  0  0  0  0  0  0  0  0  0
   16.3635   -1.2326   20.2534 C   0  0  0  0  0  0  0  0  0  0  0  0
   21.0399   -5.0573   23.9581 C   0  0  0  0  0  0  0  0  0  0  0  0
   19.4974   -3.9239   21.8620 C   0  0  0  0  0  0  0  0  0  0  0  0
   21.6508   -4.4736   22.7721 C   0  0  0  0  0  0  0  0  0  0  0  0
   18.0017   -2.5961   18.6526 C   0  0  0  0  0  0  0  0  0  0  0  0
   16.8555   -1.7929   18.9560 C   0  0  0  0  0  0  0  0  0  0  0  0
   17.7734   -3.0793   21.0769 H   0  0  0  0  0  0  0  0  0  0  0  0
   19.6682   -3.9658   17.1822 H   0  0  0  0  0  0  0  0  0  0  0  0
   18.5141   -4.4807   16.1480 H   0  0  0  0  0  0  0  0  0  0  0  0
   19.3532   -3.1181   15.8225 H   0  0  0  0  0  0  0  0  0  0  0  0
   26.7732   -6.1338   26.7526 H   0  0  0  0  0  0  0  0  0  0  0  0
   26.5563   -6.9531   25.3567 H   0  0  0  0  0  0  0  0  0  0  0  0
   27.3983   -5.8997   23.2774 H   0  0  0  0  0  0  0  0  0  0  0  0
   27.8467   -4.3330   23.3824 H   0  0  0  0  0  0  0  0  0  0  0  0
   15.3446   -1.1401   17.5148 H   0  0  0  0  0  0  0  0  0  0  0  0
   24.4490   -6.0549   26.0877 H   0  0  0  0  0  0  0  0  0  0  0  0
   25.0855   -4.5510   26.0914 H   0  0  0  0  0  0  0  0  0  0  0  0
   25.6906   -3.6148   23.5856 H   0  0  0  0  0  0  0  0  0  0  0  0
   25.5958   -4.7805   22.4459 H   0  0  0  0  0  0  0  0  0  0  0  0
   16.1198    0.7762   22.0917 H   0  0  0  0  0  0  0  0  0  0  0  0
   14.5032    0.6008   21.9420 H   0  0  0  0  0  0  0  0  0  0  0  0
   14.9854    1.0557   18.5600 H   0  0  0  0  0  0  0  0  0  0  0  0
   16.5735    1.2034   18.9101 H   0  0  0  0  0  0  0  0  0  0  0  0
   16.0012    2.7041   20.6934 H   0  0  0  0  0  0  0  0  0  0  0  0
   14.4105    2.4435   20.4315 H   0  0  0  0  0  0  0  0  0  0  0  0
   19.2161   -5.4329   24.8948 H   0  0  0  0  0  0  0  0  0  0  0  0
   17.9185   -4.5016   23.1199 H   0  0  0  0  0  0  0  0  0  0  0  0
   21.3466   -3.4908   20.9118 H   0  0  0  0  0  0  0  0  0  0  0  0
  1 23  1  0  0  0  0
  1 26  1  0  0  0  0
  2 24  2  0  0  0  0
  3 25  2  0  0  0  0
  4 12  1  0  0  0  0
  4 13  1  0  0  0  0
  5  8  1  0  0  0  0
  5 14  2  0  0  0  0
  6 23  2  0  0  0  0
  6 28  1  0  0  0  0
  7 24  1  0  0  0  0
  7 27  1  0  0  0  0
  8 11  1  0  0  0  0
  8 29  1  0  0  0  0
  9 15  1  0  0  0  0
  9 16  1  0  0  0  0
  9 23  1  0  0  0  0
 10 17  1  0  0  0  0
 10 18  1  0  0  0  0
 10 25  1  0  0  0  0
 12 15  1  0  0  0  0
 13 16  1  0  0  0  0
 14 30  1  0  0  0  0
 17 19  1  0  0  0  0
 18 19  1  0  0  0  0
 20 21  1  0  0  0  0
 20 26  2  0  0  0  0
 21 27  2  0  0  0  0
 22 27  1  0  0  0  0
 22 28  2  0  0  0  0
 24 29  1  0  0  0  0
 25 30  1  0  0  0  0
 26 28  1  0  0  0  0
 29 30  2  0  0  0  0
  7 31  1  0  0  0  0
 11 32  1  0  0  0  0
 11 33  1  0  0  0  0
 11 34  1  0  0  0  0
 12 35  1  0  0  0  0
 12 36  1  0  0  0  0
 13 37  1  0  0  0  0
 13 38  1  0  0  0  0
 14 39  1  0  0  0  0
 15 40  1  0  0  0  0
 15 41  1  0  0  0  0
 16 42  1  0  0  0  0
 16 43  1  0  0  0  0
 17 44  1  0  0  0  0
 17 45  1  0  0  0  0
 18 46  1  0  0  0  0
 18 47  1  0  0  0  0
 19 48  1  0  0  0  0
 19 49  1  0  0  0  0
 20 50  1  0  0  0  0
 21 51  1  0  0  0  0
 22 52  1  0  0  0  0
M  END
> <pdb_id>
5SH2

> <uniprot_id>
Q9Y233

> <usmiles>
S1c2c(N=C1N3CCOCC3)cc(NC(=O)C=4N(N=CC4C(=O)N5CCC5)C)cc2

$$$$
J0Y_A_1102
          07212402543D 1   1.00000     0.00000     0
            
 40 41  0  0  0  0            999 V2000
  161.6331  228.2775   20.2130 F   0  0  0  0  0  0  0  0  0  0  0  0
  165.5414  230.9070   20.3900 F   0  0  0  0  0  0  0  0  0  0  0  0
  163.3806  229.8903   21.6574 F   0  0  0  0  0  0  0  0  0  0  0  0
  167.0333  224.5370   11.1763 F   0  0  0  0  0  0  0  0  0  0  0  0
  167.7318  226.2349    8.9823 F   0  0  0  0  0  0  0  0  0  0  0  0
  169.6775  226.3153    9.7980 F   0  0  0  0  0  0  0  0  0  0  0  0
  168.9853  224.4180    9.1299 F   0  0  0  0  0  0  0  0  0  0  0  0
  164.3145  230.0064    9.4548 O   0  0  0  0  0  0  0  0  0  0  0  0
  163.9128  227.7182   10.8308 O   0  0  0  0  0  0  0  0  0  0  0  0
  168.4972  227.5548   12.0471 O   0  0  0  0  0  0  0  0  0  0  0  0
  165.1304  229.6206   10.5387 N   0  0  0  0  0  0  0  0  0  0  0  0
  166.3440  226.8439   11.9487 N   0  0  0  0  0  0  0  0  0  0  0  0
  164.6880  227.4840   15.8378 C   0  0  0  0  0  0  0  0  0  0  0  0
  164.4974  229.8431   15.3819 C   0  0  0  0  0  0  0  0  0  0  0  0
  165.1350  227.2592   14.5273 C   0  0  0  0  0  0  0  0  0  0  0  0
  164.9295  229.5993   14.0624 C   0  0  0  0  0  0  0  0  0  0  0  0
  162.8907  228.4638   18.2509 C   0  0  0  0  0  0  0  0  0  0  0  0
  164.8753  229.8277   18.3134 C   0  0  0  0  0  0  0  0  0  0  0  0
  162.6875  228.7668   19.5978 C   0  0  0  0  0  0  0  0  0  0  0  0
  164.6652  230.1087   19.6593 C   0  0  0  0  0  0  0  0  0  0  0  0
  164.8026  228.5049   11.1715 C   0  0  0  0  0  0  0  0  0  0  0  0
  167.6664  226.6972   11.7815 C   0  0  0  0  0  0  0  0  0  0  0  0
  163.5668  229.5822   20.2965 C   0  0  0  0  0  0  0  0  0  0  0  0
  168.1165  225.3530   11.1973 C   0  0  2  0  0  0  0  0  0  0  0  0
  164.3472  228.7714   16.2631 C   0  0  0  0  0  0  0  0  0  0  0  0
  165.2503  228.3148   13.6341 C   0  0  0  0  0  0  0  0  0  0  0  0
  163.9871  228.9973   17.5997 C   0  0  0  0  0  0  0  0  0  0  0  0
  165.7573  228.1561   12.3117 C   0  0  1  0  0  0  0  0  0  0  0  0
  168.6503  225.5993    9.7452 C   0  0  0  0  0  0  0  0  0  0  0  0
  164.6623  230.8580    9.0625 H   0  0  0  0  0  0  0  0  0  0  0  0
  165.9214  230.1655   10.8168 H   0  0  0  0  0  0  0  0  0  0  0  0
  165.7430  226.0541   11.8264 H   0  0  0  0  0  0  0  0  0  0  0  0
  164.6124  226.7160   16.4738 H   0  0  0  0  0  0  0  0  0  0  0  0
  164.3003  230.7758   15.6839 H   0  0  0  0  0  0  0  0  0  0  0  0
  165.3721  226.3327   14.2350 H   0  0  0  0  0  0  0  0  0  0  0  0
  165.0069  230.3636   13.4223 H   0  0  0  0  0  0  0  0  0  0  0  0
  162.2517  227.8688   17.7633 H   0  0  0  0  0  0  0  0  0  0  0  0
  165.6673  230.2200   17.8456 H   0  0  0  0  0  0  0  0  0  0  0  0
  168.8364  224.9546   11.7656 H   0  0  0  0  0  0  0  0  0  0  0  0
  166.5089  228.8114   12.2366 H   0  0  0  0  0  0  0  0  0  0  0  0
  1 19  1  0  0  0  0
  2 20  1  0  0  0  0
  3 23  1  0  0  0  0
  4 24  1  0  0  0  0
  5 29  1  0  0  0  0
  6 29  1  0  0  0  0
  7 29  1  0  0  0  0
  8 11  1  0  0  0  0
  9 21  2  0  0  0  0
 10 22  2  0  0  0  0
 11 21  1  0  0  0  0
 12 22  1  0  0  0  0
 12 28  1  0  0  0  0
 13 15  2  0  0  0  0
 13 25  1  0  0  0  0
 14 16  1  0  0  0  0
 14 25  2  0  0  0  0
 15 26  1  0  0  0  0
 16 26  2  0  0  0  0
 17 19  2  0  0  0  0
 17 27  1  0  0  0  0
 18 20  1  0  0  0  0
 18 27  2  0  0  0  0
 19 23  1  0  0  0  0
 20 23  2  0  0  0  0
 21 28  1  0  0  0  0
 22 24  1  0  0  0  0
 24 29  1  0  0  0  0
 25 27  1  0  0  0  0
 26 28  1  0  0  0  0
  8 30  1  0  0  0  0
 11 31  1  0  0  0  0
 12 32  1  0  0  0  0
 13 33  1  0  0  0  0
 14 34  1  0  0  0  0
 15 35  1  0  0  0  0
 16 36  1  0  0  0  0
 17 37  1  0  0  0  0
 18 38  1  0  0  0  0
 24 39  1  0  0  0  0
 28 40  1  0  0  0  0
M  END
> <pdb_id>
6EA1

> <uniprot_id>
O96935

> <usmiles>
Fc1c(F)cc(c2ccc(cc2)[C@@H](NC(=O)[C@@H](F)C(F)(F)F)C(=O)NO)cc1F

$$$$
J1G_A_1102
          07212402543D 1   1.00000     0.00000     0
            
 47 49  0  0  0  0            999 V2000
  165.5060  230.8327   20.4360 F   0  0  0  0  0  0  0  0  0  0  0  0
  161.6197  228.2693   20.1820 F   0  0  0  0  0  0  0  0  0  0  0  0
  163.3061  229.8197   21.6153 F   0  0  0  0  0  0  0  0  0  0  0  0
  164.2515  230.0190    9.5044 O   0  0  0  0  0  0  0  0  0  0  0  0
  163.9330  227.7729   10.8092 O   0  0  0  0  0  0  0  0  0  0  0  0
  168.5480  227.7508   11.8979 O   0  0  0  0  0  0  0  0  0  0  0  0
  165.1123  229.6642   10.5271 N   0  0  0  0  0  0  0  0  0  0  0  0
  166.4385  226.8997   11.8665 N   0  0  0  0  0  0  0  0  0  0  0  0
  168.4640  226.3055    8.6573 C   0  0  0  0  0  0  0  0  0  0  0  0
  167.0989  225.6922    8.9667 C   0  0  0  0  0  0  0  0  0  0  0  0
  169.3320  225.8766    9.8670 C   0  0  0  0  0  0  0  0  0  0  0  0
  167.3254  224.7959   10.1766 C   0  0  0  0  0  0  0  0  0  0  0  0
  164.6815  227.4600   15.8109 C   0  0  0  0  0  0  0  0  0  0  0  0
  164.5446  229.8075   15.3576 C   0  0  0  0  0  0  0  0  0  0  0  0
  165.1252  227.2138   14.4942 C   0  0  0  0  0  0  0  0  0  0  0  0
  164.9913  229.5583   14.0570 C   0  0  0  0  0  0  0  0  0  0  0  0
  164.8897  229.7802   18.3239 C   0  0  0  0  0  0  0  0  0  0  0  0
  162.8859  228.4367   18.2144 C   0  0  0  0  0  0  0  0  0  0  0  0
  164.6479  230.0535   19.6628 C   0  0  0  0  0  0  0  0  0  0  0  0
  162.6579  228.7350   19.5623 C   0  0  0  0  0  0  0  0  0  0  0  0
  164.8307  228.5245   11.1564 C   0  0  0  0  0  0  0  0  0  0  0  0
  167.7661  226.8548   11.6038 C   0  0  0  0  0  0  0  0  0  0  0  0
  163.5350  229.5354   20.2765 C   0  0  0  0  0  0  0  0  0  0  0  0
  168.3335  225.5540   10.9939 C   0  0  0  0  0  0  0  0  0  0  0  0
  164.3643  228.7472   16.2440 C   0  0  0  0  0  0  0  0  0  0  0  0
  165.2745  228.2749   13.6028 C   0  0  0  0  0  0  0  0  0  0  0  0
  163.9926  228.9867   17.5767 C   0  0  0  0  0  0  0  0  0  0  0  0
  165.7844  228.1661   12.2763 C   0  0  1  0  0  0  0  0  0  0  0  0
  164.5510  230.8840    9.1016 H   0  0  0  0  0  0  0  0  0  0  0  0
  165.8983  230.2289   10.7788 H   0  0  0  0  0  0  0  0  0  0  0  0
  165.8912  226.0669   11.7829 H   0  0  0  0  0  0  0  0  0  0  0  0
  168.4031  227.3017    8.5957 H   0  0  0  0  0  0  0  0  0  0  0  0
  168.8350  225.9408    7.8033 H   0  0  0  0  0  0  0  0  0  0  0  0
  166.7720  225.1549    8.1892 H   0  0  0  0  0  0  0  0  0  0  0  0
  166.4338  226.4077    9.1805 H   0  0  0  0  0  0  0  0  0  0  0  0
  169.9410  226.6207   10.1418 H   0  0  0  0  0  0  0  0  0  0  0  0
  169.8750  225.0685    9.6389 H   0  0  0  0  0  0  0  0  0  0  0  0
  167.6872  223.9060    9.8990 H   0  0  0  0  0  0  0  0  0  0  0  0
  166.4762  224.6656   10.6884 H   0  0  0  0  0  0  0  0  0  0  0  0
  164.5925  226.6942   16.4478 H   0  0  0  0  0  0  0  0  0  0  0  0
  164.3548  230.7443   15.6515 H   0  0  0  0  0  0  0  0  0  0  0  0
  165.3320  226.2803   14.2014 H   0  0  0  0  0  0  0  0  0  0  0  0
  165.1113  230.3293   13.4316 H   0  0  0  0  0  0  0  0  0  0  0  0
  165.7082  230.1494   17.8837 H   0  0  0  0  0  0  0  0  0  0  0  0
  162.2610  227.8357   17.7160 H   0  0  0  0  0  0  0  0  0  0  0  0
  168.7480  224.9725   11.6940 H   0  0  0  0  0  0  0  0  0  0  0  0
  166.5079  228.8545   12.2245 H   0  0  0  0  0  0  0  0  0  0  0  0
  1 19  1  0  0  0  0
  2 20  1  0  0  0  0
  3 23  1  0  0  0  0
  4  7  1  0  0  0  0
  5 21  2  0  0  0  0
  6 22  2  0  0  0  0
  7 21  1  0  0  0  0
  8 22  1  0  0  0  0
  8 28  1  0  0  0  0
  9 10  1  0  0  0  0
  9 11  1  0  0  0  0
 10 12  1  0  0  0  0
 11 24  1  0  0  0  0
 12 24  1  0  0  0  0
 13 15  2  0  0  0  0
 13 25  1  0  0  0  0
 14 16  1  0  0  0  0
 14 25  2  0  0  0  0
 15 26  1  0  0  0  0
 16 26  2  0  0  0  0
 17 19  2  0  0  0  0
 17 27  1  0  0  0  0
 18 20  1  0  0  0  0
 18 27  2  0  0  0  0
 19 23  1  0  0  0  0
 20 23  2  0  0  0  0
 21 28  1  0  0  0  0
 22 24  1  0  0  0  0
 25 27  1  0  0  0  0
 26 28  1  0  0  0  0
  4 29  1  0  0  0  0
  7 30  1  0  0  0  0
  8 31  1  0  0  0  0
  9 32  1  0  0  0  0
  9 33  1  0  0  0  0
 10 34  1  0  0  0  0
 10 35  1  0  0  0  0
 11 36  1  0  0  0  0
 11 37  1  0  0  0  0
 12 38  1  0  0  0  0
 12 39  1  0  0  0  0
 13 40  1  0  0  0  0
 14 41  1  0  0  0  0
 15 42  1  0  0  0  0
 16 43  1  0  0  0  0
 17 44  1  0  0  0  0
 18 45  1  0  0  0  0
 24 46  1  0  0  0  0
 28 47  1  0  0  0  0
M  END
> <pdb_id>
6EA2

> <uniprot_id>
O96935

> <usmiles>
Fc1c(F)cc(c2ccc(cc2)[C@@H](NC(=O)C3CCCC3)C(=O)NO)cc1F

$$$$
J1V_A_703
          07212402553D 1   1.00000     0.00000     0
            
 50 52  0  0  0  0            999 V2000
  183.7559   32.3890  -41.4417 F   0  0  0  0  0  0  0  0  0  0  0  0
  182.9795   33.6611  -36.9853 F   0  0  0  0  0  0  0  0  0  0  0  0
  184.5028   32.5120  -38.8291 F   0  0  0  0  0  0  0  0  0  0  0  0
  175.9393   39.4613  -43.7073 O   0  0  0  0  0  0  0  0  0  0  0  0
  176.2224   38.3564  -40.9451 O   0  0  0  0  0  0  0  0  0  0  0  0
  174.3823   33.6769  -41.2944 O   0  0  0  0  0  0  0  0  0  0  0  0
  175.8817   37.9857  -43.2310 N   0  0  0  0  0  0  0  0  0  0  0  0
  174.7618   35.9122  -41.0258 N   0  0  0  0  0  0  0  0  0  0  0  0
  170.3161   35.8569  -38.8803 C   0  0  0  0  0  0  0  0  0  0  0  0
  171.2179   36.8954  -39.5619 C   0  0  0  0  0  0  0  0  0  0  0  0
  170.4482   34.4713  -39.5610 C   0  0  0  0  0  0  0  0  0  0  0  0
  172.6560   36.3995  -39.5886 C   0  0  0  0  0  0  0  0  0  0  0  0
  171.9365   34.0246  -39.5966 C   0  0  0  0  0  0  0  0  0  0  0  0
  179.4740   34.9156  -41.7323 C   0  0  0  0  0  0  0  0  0  0  0  0
  178.6667   34.8512  -39.4552 C   0  0  0  0  0  0  0  0  0  0  0  0
  178.2376   35.4019  -42.1317 C   0  0  0  0  0  0  0  0  0  0  0  0
  177.4223   35.3451  -39.8563 C   0  0  0  0  0  0  0  0  0  0  0  0
  181.7348   33.5228  -40.9273 C   0  0  0  0  0  0  0  0  0  0  0  0
  181.3097   34.1828  -38.6485 C   0  0  0  0  0  0  0  0  0  0  0  0
  182.9511   32.9753  -40.5430 C   0  0  0  0  0  0  0  0  0  0  0  0
  182.5388   33.6330  -38.2735 C   0  0  0  0  0  0  0  0  0  0  0  0
  176.0918   37.6230  -41.9337 C   0  0  0  0  0  0  0  0  0  0  0  0
  174.0492   34.7900  -40.9032 C   0  0  0  0  0  0  0  0  0  0  0  0
  183.3501   33.0320  -39.2173 C   0  0  0  0  0  0  0  0  0  0  0  0
  172.6491   35.1047  -40.3661 C   0  0  0  0  0  0  0  0  0  0  0  0
  179.6883   34.6488  -40.3872 C   0  0  0  0  0  0  0  0  0  0  0  0
  177.2169   35.6147  -41.2058 C   0  0  0  0  0  0  0  0  0  0  0  0
  180.9166   34.1347  -39.9829 C   0  0  0  0  0  0  0  0  0  0  0  0
  176.0230   36.1109  -41.7307 C   0  0  1  0  0  0  0  0  0  0  0  0
  175.7567   39.5019  -44.6896 H   0  0  0  0  0  0  0  0  0  0  0  0
  175.6826   37.2721  -43.9026 H   0  0  0  0  0  0  0  0  0  0  0  0
  174.3819   36.7208  -40.5764 H   0  0  0  0  0  0  0  0  0  0  0  0
  169.3653   36.1608  -38.9397 H   0  0  0  0  0  0  0  0  0  0  0  0
  170.5805   35.7753  -37.9193 H   0  0  0  0  0  0  0  0  0  0  0  0
  171.1739   37.7560  -39.0545 H   0  0  0  0  0  0  0  0  0  0  0  0
  170.9017   37.0443  -40.4989 H   0  0  0  0  0  0  0  0  0  0  0  0
  170.0990   34.5291  -40.4963 H   0  0  0  0  0  0  0  0  0  0  0  0
  169.9147   33.7996  -39.0470 H   0  0  0  0  0  0  0  0  0  0  0  0
  172.9842   36.2415  -38.6573 H   0  0  0  0  0  0  0  0  0  0  0  0
  173.2444   37.0703  -40.0401 H   0  0  0  0  0  0  0  0  0  0  0  0
  172.0280   33.1436  -40.0607 H   0  0  0  0  0  0  0  0  0  0  0  0
  172.3042   33.9527  -38.6694 H   0  0  0  0  0  0  0  0  0  0  0  0
  180.1992   34.7597  -42.4029 H   0  0  0  0  0  0  0  0  0  0  0  0
  178.8277   34.6403  -38.4910 H   0  0  0  0  0  0  0  0  0  0  0  0
  178.0760   35.6028  -43.0979 H   0  0  0  0  0  0  0  0  0  0  0  0
  176.6952   35.5015  -39.1878 H   0  0  0  0  0  0  0  0  0  0  0  0
  181.4464   33.4774  -41.8837 H   0  0  0  0  0  0  0  0  0  0  0  0
  180.7176   34.6074  -37.9636 H   0  0  0  0  0  0  0  0  0  0  0  0
  172.0840   35.2781  -41.1727 H   0  0  0  0  0  0  0  0  0  0  0  0
  175.9144   35.7027  -42.6371 H   0  0  0  0  0  0  0  0  0  0  0  0
  1 20  1  0  0  0  0
  2 21  1  0  0  0  0
  3 24  1  0  0  0  0
  4  7  1  0  0  0  0
  5 22  2  0  0  0  0
  6 23  2  0  0  0  0
  7 22  1  0  0  0  0
  8 23  1  0  0  0  0
  8 29  1  0  0  0  0
  9 10  1  0  0  0  0
  9 11  1  0  0  0  0
 10 12  1  0  0  0  0
 11 13  1  0  0  0  0
 12 25  1  0  0  0  0
 13 25  1  0  0  0  0
 14 16  2  0  0  0  0
 14 26  1  0  0  0  0
 15 17  1  0  0  0  0
 15 26  2  0  0  0  0
 16 27  1  0  0  0  0
 17 27  2  0  0  0  0
 18 20  1  0  0  0  0
 18 28  2  0  0  0  0
 19 21  2  0  0  0  0
 19 28  1  0  0  0  0
 20 24  2  0  0  0  0
 21 24  1  0  0  0  0
 22 29  1  0  0  0  0
 23 25  1  0  0  0  0
 26 28  1  0  0  0  0
 27 29  1  0  0  0  0
  4 30  1  0  0  0  0
  7 31  1  0  0  0  0
  8 32  1  0  0  0  0
  9 33  1  0  0  0  0
  9 34  1  0  0  0  0
 10 35  1  0  0  0  0
 10 36  1  0  0  0  0
 11 37  1  0  0  0  0
 11 38  1  0  0  0  0
 12 39  1  0  0  0  0
 12 40  1  0  0  0  0
 13 41  1  0  0  0  0
 13 42  1  0  0  0  0
 14 43  1  0  0  0  0
 15 44  1  0  0  0  0
 16 45  1  0  0  0  0
 17 46  1  0  0  0  0
 18 47  1  0  0  0  0
 19 48  1  0  0  0  0
 25 49  1  0  0  0  0
 29 50  1  0  0  0  0
M  END
> <pdb_id>
6EE2

> <uniprot_id>
W4I9J7

> <usmiles>
Fc1c(F)cc(c2ccc(cc2)[C@@H](NC(=O)C3CCCCC3)C(=O)NO)cc1F

$$$$
J2D_A_1102
          07212402543D 1   1.00000     0.00000     0
            
 48 50  0  0  0  0            999 V2000
  165.4950  230.8161   20.4266 F   0  0  0  0  0  0  0  0  0  0  0  0
  161.5891  228.1835   20.2268 F   0  0  0  0  0  0  0  0  0  0  0  0
  163.3302  229.8482   21.7077 F   0  0  0  0  0  0  0  0  0  0  0  0
  164.1809  230.0488    9.5081 O   0  0  0  0  0  0  0  0  0  0  0  0
  163.8916  227.7701   10.7896 O   0  0  0  0  0  0  0  0  0  0  0  0
  168.4859  227.6731   11.9164 O   0  0  0  0  0  0  0  0  0  0  0  0
  169.1470  226.1228    8.3274 O   0  0  0  0  0  0  0  0  0  0  0  0
  165.0755  229.6848   10.5746 N   0  0  0  0  0  0  0  0  0  0  0  0
  166.3748  226.8688   11.9000 N   0  0  0  0  0  0  0  0  0  0  0  0
  169.9580  226.3748    9.5287 C   0  0  0  0  0  0  0  0  0  0  0  0
  167.7500  226.2611    8.6353 C   0  0  0  0  0  0  0  0  0  0  0  0
  169.6500  225.4611   10.7245 C   0  0  0  0  0  0  0  0  0  0  0  0
  167.3664  225.2189    9.7226 C   0  0  0  0  0  0  0  0  0  0  0  0
  165.1756  227.1950   14.5147 C   0  0  0  0  0  0  0  0  0  0  0  0
  164.9093  229.5385   14.0900 C   0  0  0  0  0  0  0  0  0  0  0  0
  164.7298  227.3860   15.8379 C   0  0  0  0  0  0  0  0  0  0  0  0
  164.4615  229.7245   15.4092 C   0  0  0  0  0  0  0  0  0  0  0  0
  164.8545  229.7200   18.3292 C   0  0  0  0  0  0  0  0  0  0  0  0
  162.8556  228.3357   18.2541 C   0  0  0  0  0  0  0  0  0  0  0  0
  164.7871  228.5293   11.1670 C   0  0  0  0  0  0  0  0  0  0  0  0
  167.6841  226.7946   11.6520 C   0  0  0  0  0  0  0  0  0  0  0  0
  164.6336  230.0239   19.6772 C   0  0  0  0  0  0  0  0  0  0  0  0
  162.6434  228.6707   19.6131 C   0  0  0  0  0  0  0  0  0  0  0  0
  163.5235  229.5072   20.3066 C   0  0  0  0  0  0  0  0  0  0  0  0
  165.7657  228.1589   12.2957 C   0  0  1  0  0  0  0  0  0  0  0  0
  168.1472  225.4555   11.0469 C   0  0  0  0  0  0  0  0  0  0  0  0
  165.2645  228.2663   13.6307 C   0  0  0  0  0  0  0  0  0  0  0  0
  164.3497  228.6510   16.2822 C   0  0  0  0  0  0  0  0  0  0  0  0
  163.9705  228.8805   17.6196 C   0  0  0  0  0  0  0  0  0  0  0  0
  164.4658  230.9246    9.1183 H   0  0  0  0  0  0  0  0  0  0  0  0
  165.8508  230.2541   10.8482 H   0  0  0  0  0  0  0  0  0  0  0  0
  165.8043  226.0516   11.8184 H   0  0  0  0  0  0  0  0  0  0  0  0
  169.8041  227.3209    9.8138 H   0  0  0  0  0  0  0  0  0  0  0  0
  170.9200  226.2524    9.2847 H   0  0  0  0  0  0  0  0  0  0  0  0
  167.2074  226.1007    7.8107 H   0  0  0  0  0  0  0  0  0  0  0  0
  167.5718  227.1837    8.9773 H   0  0  0  0  0  0  0  0  0  0  0  0
  170.1539  225.7888   11.5237 H   0  0  0  0  0  0  0  0  0  0  0  0
  169.9403  224.5294   10.5063 H   0  0  0  0  0  0  0  0  0  0  0  0
  167.5766  224.3026    9.3817 H   0  0  0  0  0  0  0  0  0  0  0  0
  166.3862  225.2892    9.9073 H   0  0  0  0  0  0  0  0  0  0  0  0
  165.4313  226.2785   14.2071 H   0  0  0  0  0  0  0  0  0  0  0  0
  164.9746  230.3235   13.4739 H   0  0  0  0  0  0  0  0  0  0  0  0
  164.6858  226.6070   16.4635 H   0  0  0  0  0  0  0  0  0  0  0  0
  164.2201  230.6427   15.7233 H   0  0  0  0  0  0  0  0  0  0  0  0
  165.6510  230.1038   17.8619 H   0  0  0  0  0  0  0  0  0  0  0  0
  162.2275  227.7295   17.7663 H   0  0  0  0  0  0  0  0  0  0  0  0
  166.5048  228.8298   12.2358 H   0  0  0  0  0  0  0  0  0  0  0  0
  167.9474  224.7143   11.6876 H   0  0  0  0  0  0  0  0  0  0  0  0
  1 22  1  0  0  0  0
  2 23  1  0  0  0  0
  3 24  1  0  0  0  0
  4  8  1  0  0  0  0
  5 20  2  0  0  0  0
  6 21  2  0  0  0  0
  7 10  1  0  0  0  0
  7 11  1  0  0  0  0
  8 20  1  0  0  0  0
  9 21  1  0  0  0  0
  9 25  1  0  0  0  0
 10 12  1  0  0  0  0
 11 13  1  0  0  0  0
 12 26  1  0  0  0  0
 13 26  1  0  0  0  0
 14 16  2  0  0  0  0
 14 27  1  0  0  0  0
 15 17  1  0  0  0  0
 15 27  2  0  0  0  0
 16 28  1  0  0  0  0
 17 28  2  0  0  0  0
 18 22  2  0  0  0  0
 18 29  1  0  0  0  0
 19 23  1  0  0  0  0
 19 29  2  0  0  0  0
 20 25  1  0  0  0  0
 21 26  1  0  0  0  0
 22 24  1  0  0  0  0
 23 24  2  0  0  0  0
 25 27  1  0  0  0  0
 28 29  1  0  0  0  0
  4 30  1  0  0  0  0
  8 31  1  0  0  0  0
  9 32  1  0  0  0  0
 10 33  1  0  0  0  0
 10 34  1  0  0  0  0
 11 35  1  0  0  0  0
 11 36  1  0  0  0  0
 12 37  1  0  0  0  0
 12 38  1  0  0  0  0
 13 39  1  0  0  0  0
 13 40  1  0  0  0  0
 14 41  1  0  0  0  0
 15 42  1  0  0  0  0
 16 43  1  0  0  0  0
 17 44  1  0  0  0  0
 18 45  1  0  0  0  0
 19 46  1  0  0  0  0
 25 47  1  0  0  0  0
 26 48  1  0  0  0  0
M  END
> <pdb_id>
6EAB

> <uniprot_id>
O96935

> <usmiles>
Fc1c(F)cc(c2ccc(cc2)[C@@H](NC(=O)C3CCOCC3)C(=O)NO)cc1F

$$$$
J2H_A_502
          07212403323D 1   1.00000     0.00000     0
            
 66 71  0  0  0  0            999 V2000
   23.0680   -2.7950   34.0880 O   0  0  0  0  0  0  0  0  0  0  0  0
   20.6000    0.9330   34.7970 O   0  0  0  0  0  0  0  0  0  0  0  0
   21.3380   -4.3670   32.6390 N   0  0  0  0  0  0  0  0  0  0  0  0
   19.5240   -3.2790   31.7800 N   0  0  0  0  0  0  0  0  0  0  0  0
   16.0540    1.4580   30.6430 N   0  0  0  0  0  0  0  0  0  0  0  0
   17.6220    0.3690   32.7040 N   0  0  0  0  0  0  0  0  0  0  0  0
   22.1220   -0.7390   34.7020 N   0  0  0  0  0  0  0  0  0  0  0  0
   20.9060   -2.1570   33.3080 N   0  0  0  0  0  0  0  0  0  0  0  0
   17.0260   -1.8250   29.1840 C   0  0  0  0  0  0  0  0  0  0  0  0
   21.0380   -5.4310   31.9380 C   0  0  0  0  0  0  0  0  0  0  0  0
   19.2050   -4.3300   31.0840 C   0  0  0  0  0  0  0  0  0  0  0  0
   15.6880    2.1450   29.5510 C   0  0  0  0  0  0  0  0  0  0  0  0
   19.9550   -5.4250   31.1390 C   0  0  0  0  0  0  0  0  0  0  0  0
   28.2600    2.4610   39.5020 C   0  0  0  0  0  0  0  0  0  0  0  0
   15.7500    1.5390   28.3170 C   0  0  0  0  0  0  0  0  0  0  0  0
   28.5830    2.0640   38.2220 C   0  0  0  0  0  0  0  0  0  0  0  0
   26.9840    2.2990   39.9890 C   0  0  0  0  0  0  0  0  0  0  0  0
   16.1680    0.2780   28.2240 C   0  0  0  0  0  0  0  0  0  0  0  0
   27.6090    1.5080   37.4080 C   0  0  0  0  0  0  0  0  0  0  0  0
   26.0210    1.7370   39.1720 C   0  0  0  0  0  0  0  0  0  0  0  0
   24.0800    0.6430   34.9500 C   0  0  0  0  0  0  0  0  0  0  0  0
   23.2960   -0.6310   36.8150 C   0  0  0  0  0  0  0  0  0  0  0  0
   25.1020    1.1430   35.7240 C   0  0  0  0  0  0  0  0  0  0  0  0
   24.3200   -0.1350   37.5850 C   0  0  0  0  0  0  0  0  0  0  0  0
   18.7910    0.7670   32.2030 C   0  0  0  0  0  0  0  0  0  0  0  0
   17.7690   -0.0990   33.9170 C   0  0  0  0  0  0  0  0  0  0  0  0
   16.9560   -0.4930   31.8960 C   0  0  0  0  0  0  0  0  0  0  0  0
   19.9590   -0.2800   32.1740 C   0  0  0  0  0  0  0  0  0  0  0  0
   18.7760   -1.2270   34.1820 C   0  0  0  0  0  0  0  0  0  0  0  0
   20.5780   -3.2920   32.5410 C   0  0  0  0  0  0  0  0  0  0  0  0
   22.1940   -2.0740   34.0230 C   0  0  0  0  0  0  0  0  0  0  0  0
   20.8500   -0.0930   34.3990 C   0  0  0  0  0  0  0  0  0  0  0  0
   16.4900    0.2200   30.5810 C   0  0  0  0  0  0  0  0  0  0  0  0
   23.1820   -0.2370   35.5100 C   0  0  0  0  0  0  0  0  0  0  0  0
   16.5420   -0.3950   29.3240 C   0  0  0  0  0  0  0  0  0  0  0  0
   26.3350    1.3310   37.9020 C   0  0  0  0  0  0  0  0  0  0  0  0
   25.2160    0.7370   37.0390 C   0  0  0  0  0  0  0  0  0  0  0  0
   20.1510   -1.0150   33.5180 C   0  0  0  0  0  0  0  0  0  0  0  0
   16.9440   -2.1050   28.2590 H   0  0  0  0  0  0  0  0  0  0  0  0
   16.4890   -2.4050   29.7460 H   0  0  0  0  0  0  0  0  0  0  0  0
   17.9550   -1.8800   29.4570 H   0  0  0  0  0  0  0  0  0  0  0  0
   21.5720   -6.1900   31.9930 H   0  0  0  0  0  0  0  0  0  0  0  0
   18.4560   -4.3100   30.5330 H   0  0  0  0  0  0  0  0  0  0  0  0
   15.3880    3.0220   29.6280 H   0  0  0  0  0  0  0  0  0  0  0  0
   19.7310   -6.1770   30.6400 H   0  0  0  0  0  0  0  0  0  0  0  0
   28.9150    2.8340   40.0460 H   0  0  0  0  0  0  0  0  0  0  0  0
   15.4690    1.9960   27.5570 H   0  0  0  0  0  0  0  0  0  0  0  0
   29.4490    2.1780   37.9020 H   0  0  0  0  0  0  0  0  0  0  0  0
   26.7720    2.5640   40.8550 H   0  0  0  0  0  0  0  0  0  0  0  0
   16.1980   -0.1390   27.3930 H   0  0  0  0  0  0  0  0  0  0  0  0
   27.8190    1.2380   36.5430 H   0  0  0  0  0  0  0  0  0  0  0  0
   25.1550    1.6250   39.4910 H   0  0  0  0  0  0  0  0  0  0  0  0
   23.9910    0.9050   34.0620 H   0  0  0  0  0  0  0  0  0  0  0  0
   22.6830   -1.2280   37.1790 H   0  0  0  0  0  0  0  0  0  0  0  0
   25.7110    1.7470   35.3640 H   0  0  0  0  0  0  0  0  0  0  0  0
   24.3990   -0.3880   38.4760 H   0  0  0  0  0  0  0  0  0  0  0  0
   18.6790    1.1100   31.3050 H   0  0  0  0  0  0  0  0  0  0  0  0
   19.0940    1.5090   32.7500 H   0  0  0  0  0  0  0  0  0  0  0  0
   16.9060   -0.4050   34.2340 H   0  0  0  0  0  0  0  0  0  0  0  0
   18.0280    0.6470   34.4800 H   0  0  0  0  0  0  0  0  0  0  0  0
   17.5360   -1.2370   31.6760 H   0  0  0  0  0  0  0  0  0  0  0  0
   16.1700   -0.8330   32.3510 H   0  0  0  0  0  0  0  0  0  0  0  0
   20.7820    0.1870   31.9620 H   0  0  0  0  0  0  0  0  0  0  0  0
   19.7800   -0.9180   31.4690 H   0  0  0  0  0  0  0  0  0  0  0  0
   18.9060   -1.3040   35.1400 H   0  0  0  0  0  0  0  0  0  0  0  0
   18.3990   -2.0580   33.8540 H   0  0  0  0  0  0  0  0  0  0  0  0
  1 31  2  0  0  0  0
  2 32  2  0  0  0  0
  3 10  1  0  0  0  0
  3 30  2  0  0  0  0
  4 11  2  0  0  0  0
  4 30  1  0  0  0  0
  5 12  2  0  0  0  0
  5 33  1  0  0  0  0
  6 25  1  0  0  0  0
  6 26  1  0  0  0  0
  6 27  1  0  0  0  0
  7 31  1  0  0  0  0
  7 32  1  0  0  0  0
  7 34  1  0  0  0  0
  8 30  1  0  0  0  0
  8 31  1  0  0  0  0
  8 38  1  0  0  0  0
  9 35  1  0  0  0  0
  9 39  1  0  0  0  0
  9 40  1  0  0  0  0
  9 41  1  0  0  0  0
 10 13  2  0  0  0  0
 10 42  1  0  0  0  0
 11 13  1  0  0  0  0
 11 43  1  0  0  0  0
 12 15  1  0  0  0  0
 12 44  1  0  0  0  0
 13 45  1  0  0  0  0
 14 16  2  0  0  0  0
 14 17  1  0  0  0  0
 14 46  1  0  0  0  0
 15 18  2  0  0  0  0
 15 47  1  0  0  0  0
 16 19  1  0  0  0  0
 16 48  1  0  0  0  0
 17 20  2  0  0  0  0
 17 49  1  0  0  0  0
 18 35  1  0  0  0  0
 18 50  1  0  0  0  0
 19 36  2  0  0  0  0
 19 51  1  0  0  0  0
 20 36  1  0  0  0  0
 20 52  1  0  0  0  0
 21 23  2  0  0  0  0
 21 34  1  0  0  0  0
 21 53  1  0  0  0  0
 22 24  1  0  0  0  0
 22 34  2  0  0  0  0
 22 54  1  0  0  0  0
 23 37  1  0  0  0  0
 23 55  1  0  0  0  0
 24 37  2  0  0  0  0
 24 56  1  0  0  0  0
 25 28  1  0  0  0  0
 25 57  1  0  0  0  0
 25 58  1  0  0  0  0
 26 29  1  0  0  0  0
 26 59  1  0  0  0  0
 26 60  1  0  0  0  0
 27 33  1  0  0  0  0
 27 61  1  0  0  0  0
 27 62  1  0  0  0  0
 28 38  1  0  0  0  0
 28 63  1  0  0  0  0
 28 64  1  0  0  0  0
 29 38  1  0  0  0  0
 29 65  1  0  0  0  0
 29 66  1  0  0  0  0
 32 38  1  0  0  0  0
 33 35  2  0  0  0  0
 36 37  1  0  0  0  0
M  END
> <pdb_id>
6QGV

> <uniprot_id>
Q9GZT9

> <usmiles>
O=C1N(c2ccc(c3ccccc3)cc2)C(=O)C4(N1c5ncccn5)CCN(Cc6ncccc6C)CC4

$$$$
J2I_A_1
          07202414163D 1   1.00000     0.00000     0
            
 59 63  0  0  0  0            999 V2000
   55.5021   -8.6449   26.7351 F   0  0  0  0  0  0  0  0  0  0  0  0
   58.3405   -5.8584   29.2975 F   0  0  0  0  0  0  0  0  0  0  0  0
   59.3699   -8.6842   29.8619 O   0  0  0  0  0  0  0  0  0  0  0  0
   54.3211   -4.0342   27.6231 O   0  0  0  0  0  0  0  0  0  0  0  0
   49.2410  -12.1192   31.6024 N   0  0  0  0  0  0  0  0  0  0  0  0
   48.9427  -11.6527   30.3752 N   0  0  0  0  0  0  0  0  0  0  0  0
   54.9570  -11.0032   34.4756 N   0  0  0  0  0  0  0  0  0  0  0  0
   53.2064  -10.8840   32.8474 N   0  0  0  0  0  0  0  0  0  0  0  0
   51.1510  -11.9678   33.0088 N   0  0  0  0  0  0  0  0  0  0  0  0
   54.0809  -11.7248   35.2209 N   0  0  0  0  0  0  0  0  0  0  0  0
   55.2717   -9.8648   32.4542 N   0  0  0  0  0  0  0  0  0  0  0  0
   57.2004   -9.2902   30.4091 N   0  0  0  0  0  0  0  0  0  0  0  0
   54.4816   -3.0289   26.6346 C   0  0  0  0  0  0  0  0  0  0  0  0
   49.6518  -10.1494   28.5632 C   0  0  0  0  0  0  0  0  0  0  0  0
   56.5886   -9.3540   32.8589 C   0  0  0  0  0  0  0  0  0  0  0  0
   54.7588   -9.3481   31.1802 C   0  0  0  0  0  0  0  0  0  0  0  0
   57.6284   -9.6303   31.7836 C   0  0  0  0  0  0  0  0  0  0  0  0
   55.7704   -9.5097   30.0519 C   0  0  0  0  0  0  0  0  0  0  0  0
   54.2939  -12.2506   36.4679 C   0  0  0  0  0  0  0  0  0  0  0  0
   53.1859  -13.0151   36.8126 C   0  0  0  0  0  0  0  0  0  0  0  0
   52.2362  -12.8901   35.7614 C   0  0  0  0  0  0  0  0  0  0  0  0
   54.8593   -6.3524   27.1254 C   0  0  0  0  0  0  0  0  0  0  0  0
   56.3549   -4.9661   28.4309 C   0  0  0  0  0  0  0  0  0  0  0  0
   57.8052   -8.4975   28.1186 C   0  0  0  0  0  0  0  0  0  0  0  0
   50.9129  -10.7762   30.8108 C   0  0  0  0  0  0  0  0  0  0  0  0
   54.4821  -10.5728   33.3124 C   0  0  0  0  0  0  0  0  0  0  0  0
   58.1890   -8.8375   29.5329 C   0  0  0  0  0  0  0  0  0  0  0  0
   55.7431   -7.4394   27.2732 C   0  0  0  0  0  0  0  0  0  0  0  0
   57.2175   -6.0536   28.6015 C   0  0  0  0  0  0  0  0  0  0  0  0
   50.4637  -11.6425   31.8416 C   0  0  0  0  0  0  0  0  0  0  0  0
   52.4146  -11.7105   33.4683 C   0  0  0  0  0  0  0  0  0  0  0  0
   55.1794   -5.0987   27.6843 C   0  0  0  0  0  0  0  0  0  0  0  0
   49.8729  -10.7834   29.8864 C   0  0  0  0  0  0  0  0  0  0  0  0
   52.8287  -12.1168   34.7798 C   0  0  0  0  0  0  0  0  0  0  0  0
   56.9126   -7.2945   28.0131 C   0  0  0  0  0  0  0  0  0  0  0  0
   48.6763  -12.6912   32.1973 H   0  0  0  0  0  0  0  0  0  0  0  0
   50.6029  -12.5055   33.6495 H   0  0  0  0  0  0  0  0  0  0  0  0
   53.7680   -2.3369   26.7439 H   0  0  0  0  0  0  0  0  0  0  0  0
   55.3795   -2.6009   26.7372 H   0  0  0  0  0  0  0  0  0  0  0  0
   54.4104   -3.4405   25.7260 H   0  0  0  0  0  0  0  0  0  0  0  0
   50.4190   -9.5441   28.3512 H   0  0  0  0  0  0  0  0  0  0  0  0
   49.5827  -10.8583   27.8613 H   0  0  0  0  0  0  0  0  0  0  0  0
   48.8046   -9.6186   28.5854 H   0  0  0  0  0  0  0  0  0  0  0  0
   56.8676   -9.8028   33.7079 H   0  0  0  0  0  0  0  0  0  0  0  0
   56.5258   -8.3673   33.0085 H   0  0  0  0  0  0  0  0  0  0  0  0
   54.5467   -8.3767   31.2873 H   0  0  0  0  0  0  0  0  0  0  0  0
   53.9257   -9.8468   30.9411 H   0  0  0  0  0  0  0  0  0  0  0  0
   58.4464   -9.0959   31.9965 H   0  0  0  0  0  0  0  0  0  0  0  0
   57.8511  -10.6048   31.8085 H   0  0  0  0  0  0  0  0  0  0  0  0
   55.6846  -10.4407   29.6972 H   0  0  0  0  0  0  0  0  0  0  0  0
   55.5322   -8.8561   29.3335 H   0  0  0  0  0  0  0  0  0  0  0  0
   55.1068  -12.1086   37.0329 H   0  0  0  0  0  0  0  0  0  0  0  0
   53.0763  -13.5547   37.6474 H   0  0  0  0  0  0  0  0  0  0  0  0
   51.3177  -13.2849   35.7367 H   0  0  0  0  0  0  0  0  0  0  0  0
   54.0029   -6.4705   26.6229 H   0  0  0  0  0  0  0  0  0  0  0  0
   56.5806   -4.0850   28.8467 H   0  0  0  0  0  0  0  0  0  0  0  0
   57.3274   -9.2818   27.7231 H   0  0  0  0  0  0  0  0  0  0  0  0
   58.6402   -8.3187   27.5983 H   0  0  0  0  0  0  0  0  0  0  0  0
   51.7774  -10.2761   30.7605 H   0  0  0  0  0  0  0  0  0  0  0  0
  1 28  1  0  0  0  0
  2 29  1  0  0  0  0
  3 27  2  0  0  0  0
  4 13  1  0  0  0  0
  4 32  1  0  0  0  0
  5  6  1  0  0  0  0
  5 30  1  0  0  0  0
  6 33  2  0  0  0  0
  7 10  1  0  0  0  0
  7 26  2  0  0  0  0
  8 26  1  0  0  0  0
  8 31  2  0  0  0  0
  9 30  1  0  0  0  0
  9 31  1  0  0  0  0
 10 19  1  0  0  0  0
 10 34  1  0  0  0  0
 11 15  1  0  0  0  0
 11 16  1  0  0  0  0
 11 26  1  0  0  0  0
 12 17  1  0  0  0  0
 12 18  1  0  0  0  0
 12 27  1  0  0  0  0
 14 33  1  0  0  0  0
 15 17  1  0  0  0  0
 16 18  1  0  0  0  0
 19 20  2  0  0  0  0
 20 21  1  0  0  0  0
 21 34  2  0  0  0  0
 22 28  2  0  0  0  0
 22 32  1  0  0  0  0
 23 29  1  0  0  0  0
 23 32  2  0  0  0  0
 24 27  1  0  0  0  0
 24 35  1  0  0  0  0
 25 30  2  0  0  0  0
 25 33  1  0  0  0  0
 28 35  1  0  0  0  0
 29 35  2  0  0  0  0
 31 34  1  0  0  0  0
  5 36  1  0  0  0  0
  9 37  1  0  0  0  0
 13 38  1  0  0  0  0
 13 39  1  0  0  0  0
 13 40  1  0  0  0  0
 14 41  1  0  0  0  0
 14 42  1  0  0  0  0
 14 43  1  0  0  0  0
 15 44  1  0  0  0  0
 15 45  1  0  0  0  0
 16 46  1  0  0  0  0
 16 47  1  0  0  0  0
 17 48  1  0  0  0  0
 17 49  1  0  0  0  0
 18 50  1  0  0  0  0
 18 51  1  0  0  0  0
 19 52  1  0  0  0  0
 20 53  1  0  0  0  0
 21 54  1  0  0  0  0
 22 55  1  0  0  0  0
 23 56  1  0  0  0  0
 24 57  1  0  0  0  0
 24 58  1  0  0  0  0
 25 59  1  0  0  0  0
M  END
> <pdb_id>
3Q32

> <uniprot_id>
O60674

> <usmiles>
Fc1c(c(F)cc(OC)c1)CC(=O)N2CCN(C3=NN4C(C(=N3)NC=5NN=C(C5)C)=CC=C4)CC2

$$$$
J2L_C_803
          07192416573D 1   1.00000     0.00000     0
            
 53 56  0  0  0  0            999 V2000
   15.8344   -1.8395   21.1740 S   0  0  0  0  0  0  0  0  0  0  0  0
   15.9059   -2.1511   22.6559 O   0  0  0  0  0  0  0  0  0  0  0  0
   15.9600   -0.3320   20.8383 O   0  0  0  0  0  0  0  0  0  0  0  0
   22.8915   -5.7286   24.6803 N   0  0  0  0  0  0  0  0  0  0  0  0
   19.7313   -3.3164   18.9910 N   0  0  0  0  0  0  0  0  0  0  0  0
   23.1964   -4.8845   22.5668 N   0  0  0  0  0  0  0  0  0  0  0  0
   16.4270   -2.1933   17.9025 N   0  0  0  0  0  0  0  0  0  0  0  0
   21.7120   -5.7952   24.0201 N   0  0  0  0  0  0  0  0  0  0  0  0
   18.5020   -2.9908   18.3432 N   0  0  0  0  0  0  0  0  0  0  0  0
   25.1168   -5.0367   24.1919 N   0  0  0  0  0  0  0  0  0  0  0  0
   14.2837   -2.1161   20.3848 C   0  0  0  0  0  0  0  0  0  0  0  0
   20.4832   -6.3123   24.5859 C   0  0  0  0  0  0  0  0  0  0  0  0
   16.4646   -2.2350   15.4669 C   0  0  0  0  0  0  0  0  0  0  0  0
   19.5143   -3.4550   16.2062 C   0  0  0  0  0  0  0  0  0  0  0  0
   26.1148   -4.7079   23.2007 C   0  0  0  0  0  0  0  0  0  0  0  0
   25.6535   -5.4467   25.4791 C   0  0  0  0  0  0  0  0  0  0  0  0
   27.4084   -4.8773   23.9102 C   0  0  0  0  0  0  0  0  0  0  0  0
   27.0969   -5.1143   25.3687 C   0  0  0  0  0  0  0  0  0  0  0  0
   20.8171   -5.0660   21.7020 C   0  0  0  0  0  0  0  0  0  0  0  0
   20.8062   -3.6279   21.2265 C   0  0  0  0  0  0  0  0  0  0  0  0
   18.4118   -2.7836   21.0870 C   0  0  0  0  0  0  0  0  0  0  0  0
   23.7692   -5.1791   23.7816 C   0  0  0  0  0  0  0  0  0  0  0  0
   17.2651   -2.4526   20.3536 C   0  0  0  0  0  0  0  0  0  0  0  0
   21.9153   -5.2243   22.7594 C   0  0  0  0  0  0  0  0  0  0  0  0
   17.3441   -2.4823   18.9191 C   0  0  0  0  0  0  0  0  0  0  0  0
   19.6014   -3.2650   20.4159 C   0  0  0  0  0  0  0  0  0  0  0  0
   17.0868   -2.4380   16.7654 C   0  0  0  0  0  0  0  0  0  0  0  0
   18.3257   -2.9776   17.0511 C   0  0  0  0  0  0  0  0  0  0  0  0
   14.3554   -1.8778   19.4162 H   0  0  0  0  0  0  0  0  0  0  0  0
   14.0320   -3.0799   20.4731 H   0  0  0  0  0  0  0  0  0  0  0  0
   13.5836   -1.5478   20.8170 H   0  0  0  0  0  0  0  0  0  0  0  0
   19.7531   -6.2562   23.9048 H   0  0  0  0  0  0  0  0  0  0  0  0
   20.6156   -7.2663   24.8549 H   0  0  0  0  0  0  0  0  0  0  0  0
   20.2324   -5.7714   25.3887 H   0  0  0  0  0  0  0  0  0  0  0  0
   17.1150   -2.4714   14.7450 H   0  0  0  0  0  0  0  0  0  0  0  0
   15.6554   -2.8174   15.3903 H   0  0  0  0  0  0  0  0  0  0  0  0
   16.1957   -1.2765   15.3723 H   0  0  0  0  0  0  0  0  0  0  0  0
   19.2752   -3.4054   15.2365 H   0  0  0  0  0  0  0  0  0  0  0  0
   20.3061   -2.8709   16.3847 H   0  0  0  0  0  0  0  0  0  0  0  0
   19.7361   -4.4000   16.4469 H   0  0  0  0  0  0  0  0  0  0  0  0
   26.0043   -3.7651   22.8863 H   0  0  0  0  0  0  0  0  0  0  0  0
   26.0556   -5.3291   22.4193 H   0  0  0  0  0  0  0  0  0  0  0  0
   25.5218   -6.4270   25.6263 H   0  0  0  0  0  0  0  0  0  0  0  0
   25.2245   -4.9370   26.2249 H   0  0  0  0  0  0  0  0  0  0  0  0
   27.9640   -4.0521   23.8093 H   0  0  0  0  0  0  0  0  0  0  0  0
   27.9038   -5.6608   23.5350 H   0  0  0  0  0  0  0  0  0  0  0  0
   27.6478   -5.8737   25.7147 H   0  0  0  0  0  0  0  0  0  0  0  0
   27.2970   -4.2894   25.8972 H   0  0  0  0  0  0  0  0  0  0  0  0
   21.0024   -5.6744   20.9303 H   0  0  0  0  0  0  0  0  0  0  0  0
   19.9294   -5.2953   22.1014 H   0  0  0  0  0  0  0  0  0  0  0  0
   21.6202   -3.4757   20.6658 H   0  0  0  0  0  0  0  0  0  0  0  0
   20.8375   -3.0311   22.0283 H   0  0  0  0  0  0  0  0  0  0  0  0
   18.4089   -2.6867   22.0823 H   0  0  0  0  0  0  0  0  0  0  0  0
  1  2  2  0  0  0  0
  1  3  2  0  0  0  0
  1 11  1  0  0  0  0
  1 23  1  0  0  0  0
  4  8  1  0  0  0  0
  4 22  2  0  0  0  0
  5  9  1  0  0  0  0
  5 26  2  0  0  0  0
  6 22  1  0  0  0  0
  6 24  2  0  0  0  0
  7 25  2  0  0  0  0
  7 27  1  0  0  0  0
  8 12  1  0  0  0  0
  8 24  1  0  0  0  0
  9 25  1  0  0  0  0
  9 28  1  0  0  0  0
 10 15  1  0  0  0  0
 10 16  1  0  0  0  0
 10 22  1  0  0  0  0
 13 27  1  0  0  0  0
 14 28  1  0  0  0  0
 15 17  1  0  0  0  0
 16 18  1  0  0  0  0
 17 18  1  0  0  0  0
 19 20  1  0  0  0  0
 19 24  1  0  0  0  0
 20 26  1  0  0  0  0
 21 23  2  0  0  0  0
 21 26  1  0  0  0  0
 23 25  1  0  0  0  0
 27 28  2  0  0  0  0
 11 29  1  0  0  0  0
 11 30  1  0  0  0  0
 11 31  1  0  0  0  0
 12 32  1  0  0  0  0
 12 33  1  0  0  0  0
 12 34  1  0  0  0  0
 13 35  1  0  0  0  0
 13 36  1  0  0  0  0
 13 37  1  0  0  0  0
 14 38  1  0  0  0  0
 14 39  1  0  0  0  0
 14 40  1  0  0  0  0
 15 41  1  0  0  0  0
 15 42  1  0  0  0  0
 16 43  1  0  0  0  0
 16 44  1  0  0  0  0
 17 45  1  0  0  0  0
 17 46  1  0  0  0  0
 18 47  1  0  0  0  0
 18 48  1  0  0  0  0
 19 49  1  0  0  0  0
 19 50  1  0  0  0  0
 20 51  1  0  0  0  0
 20 52  1  0  0  0  0
 21 53  1  0  0  0  0
M  END
> <pdb_id>
5SH3

> <uniprot_id>
Q9Y233

> <usmiles>
S(=O)(=O)(C=1C2=NC(=C(N2N=C(C1)CCC3=NC(=NN3C)N4CCCC4)C)C)C

$$$$
J2M_A_601
          07192421333D 1   1.00000     0.00000     0
            
 43 46  0  0  0  0            999 V2000
   11.8836   63.1087    4.0417 F   0  0  0  0  0  0  0  0  0  0  0  0
   21.0091   68.5822    3.2788 O   0  0  0  0  0  0  0  0  0  0  0  0
   14.7968   65.0294    8.6228 O   0  0  0  0  0  0  0  0  0  0  0  0
   12.6075   64.6643    5.4855 N   0  0  0  0  0  0  0  0  0  0  0  0
   17.2471   68.6426    1.3384 N   0  0  0  0  0  0  0  0  0  0  0  0
   16.0591   66.4394    9.7451 N   0  0  0  0  0  0  0  0  0  0  0  0
   19.5229   68.9943    1.6020 N   0  0  0  0  0  0  0  0  0  0  0  0
   17.6445   67.7034    6.2357 N   0  0  0  0  0  0  0  0  0  0  0  0
   21.8220   69.7169    1.3448 C   0  0  0  0  0  0  0  0  0  0  0  0
   16.0649   68.1904    1.7946 C   0  0  0  0  0  0  0  0  0  0  0  0
   13.5969   65.4387    5.9485 C   0  0  0  0  0  0  0  0  0  0  0  0
   14.1029   63.8460    3.7946 C   0  0  0  0  0  0  0  0  0  0  0  0
   15.8842   67.6197    3.0395 C   0  0  0  0  0  0  0  0  0  0  0  0
   15.1148   64.6448    4.2997 C   0  0  0  0  0  0  0  0  0  0  0  0
   18.2354   67.8919    3.4151 C   0  0  0  0  0  0  0  0  0  0  0  0
   16.9022   67.6154    9.8877 C   0  0  0  0  0  0  0  0  0  0  0  0
   17.9130   67.7652    8.7649 C   0  0  0  0  0  0  0  0  0  0  0  0
   20.7605   69.0483    2.1734 C   0  0  0  0  0  0  0  0  0  0  0  0
   12.8944   63.9120    4.4468 C   0  0  0  0  0  0  0  0  0  0  0  0
   15.6292   65.9230    8.5893 C   0  0  0  0  0  0  0  0  0  0  0  0
   18.3248   68.4948    2.1487 C   0  0  0  0  0  0  0  0  0  0  0  0
   17.2716   67.3254    7.4867 C   0  0  0  0  0  0  0  0  0  0  0  0
   16.8254   67.1242    5.3025 C   0  0  0  0  0  0  0  0  0  0  0  0
   14.8725   65.4643    5.3978 C   0  0  0  0  0  0  0  0  0  0  0  0
   16.9863   67.4915    3.8798 C   0  0  0  0  0  0  0  0  0  0  0  0
   16.1935   66.4815    7.3898 C   0  0  0  0  0  0  0  0  0  0  0  0
   15.9312   66.3202    5.9712 C   0  0  0  0  0  0  0  0  0  0  0  0
   15.7708   66.0081   10.6173 H   0  0  0  0  0  0  0  0  0  0  0  0
   19.4283   69.3543    0.6573 H   0  0  0  0  0  0  0  0  0  0  0  0
   18.4064   68.3442    6.0382 H   0  0  0  0  0  0  0  0  0  0  0  0
   21.5222   70.6884    0.9586 H   0  0  0  0  0  0  0  0  0  0  0  0
   22.1310   69.1037    0.4989 H   0  0  0  0  0  0  0  0  0  0  0  0
   22.7138   69.9001    1.9412 H   0  0  0  0  0  0  0  0  0  0  0  0
   15.2357   68.3666    1.1118 H   0  0  0  0  0  0  0  0  0  0  0  0
   13.3306   66.0993    6.7715 H   0  0  0  0  0  0  0  0  0  0  0  0
   14.2607   63.2040    2.9291 H   0  0  0  0  0  0  0  0  0  0  0  0
   14.8861   67.3099    3.3466 H   0  0  0  0  0  0  0  0  0  0  0  0
   16.0810   64.6693    3.8006 H   0  0  0  0  0  0  0  0  0  0  0  0
   19.1039   67.6637    4.0286 H   0  0  0  0  0  0  0  0  0  0  0  0
   16.2716   68.5020    9.9372 H   0  0  0  0  0  0  0  0  0  0  0  0
   17.4225   67.5728   10.8432 H   0  0  0  0  0  0  0  0  0  0  0  0
   18.2163   68.8034    8.6457 H   0  0  0  0  0  0  0  0  0  0  0  0
   18.8283   67.2160    8.9811 H   0  0  0  0  0  0  0  0  0  0  0  0
  1 19  1  0  0  0  0
  2 18  2  0  0  0  0
  3 20  2  0  0  0  0
  4 11  2  0  0  0  0
  4 19  1  0  0  0  0
  5 10  1  0  0  0  0
  5 21  2  0  0  0  0
  6 16  1  0  0  0  0
  6 20  1  0  0  0  0
  6 28  1  0  0  0  0
  7 18  1  0  0  0  0
  7 21  1  0  0  0  0
  7 29  1  0  0  0  0
  8 22  1  0  0  0  0
  8 23  1  0  0  0  0
  8 30  1  0  0  0  0
  9 18  1  0  0  0  0
  9 31  1  0  0  0  0
  9 32  1  0  0  0  0
  9 33  1  0  0  0  0
 10 13  2  0  0  0  0
 10 34  1  0  0  0  0
 11 24  1  0  0  0  0
 11 35  1  0  0  0  0
 12 14  1  0  0  0  0
 12 19  2  0  0  0  0
 12 36  1  0  0  0  0
 13 25  1  0  0  0  0
 13 37  1  0  0  0  0
 14 24  2  0  0  0  0
 14 38  1  0  0  0  0
 15 21  1  0  0  0  0
 15 25  2  0  0  0  0
 15 39  1  0  0  0  0
 16 17  1  0  0  0  0
 16 40  1  0  0  0  0
 16 41  1  0  0  0  0
 17 22  1  0  0  0  0
 17 42  1  0  0  0  0
 17 43  1  0  0  0  0
 20 26  1  0  0  0  0
 22 26  2  0  0  0  0
 23 25  1  0  0  0  0
 23 27  2  0  0  0  0
 24 27  1  0  0  0  0
 26 27  1  0  0  0  0
M  END
> <pdb_id>
5QIK

> <uniprot_id>
P36897

> <usmiles>
Fc1ncc(cc1)C2=C(NC3=C2C(=O)NCC3)c4cc(ncc4)NC(=O)C

$$$$
J2Q_A_303
          07212403323D 1   1.00000     0.00000     0
            
 39 40  0  0  0  0            999 V2000
  -23.7840    1.8930  -18.8010 O   0  0  0  0  0  0  0  0  0  0  0  0
  -22.5890   -1.8050  -20.4410 O   0  0  0  0  0  0  0  0  0  0  0  0
  -22.7540   -4.0120  -19.0530 O   0  0  0  0  0  0  0  0  0  0  0  0
  -23.1070    6.1930  -24.1930 N   0  0  0  0  0  0  0  0  0  0  0  0
  -21.7600    4.9640  -25.5510 N   0  0  0  0  0  0  0  0  0  0  0  0
  -22.7790    0.8690  -20.5700 N   0  0  0  0  0  0  0  0  0  0  0  0
  -22.0850   -6.1380  -18.3230 C   0  0  0  0  0  0  0  0  0  0  0  0
  -23.2560   -5.3040  -18.6530 C   0  0  0  0  0  0  0  0  0  0  0  0
  -23.9870   -1.5770  -16.5530 C   0  0  0  0  0  0  0  0  0  0  0  0
  -23.6300   -2.8030  -17.1000 C   0  0  0  0  0  0  0  0  0  0  0  0
  -22.4140    1.6380  -22.8340 C   0  0  0  0  0  0  0  0  0  0  0  0
  -22.8120    3.2750  -21.1240 C   0  0  0  0  0  0  0  0  0  0  0  0
  -23.8720   -0.4110  -17.2900 C   0  0  0  0  0  0  0  0  0  0  0  0
  -22.3280    2.6480  -23.7810 C   0  0  0  0  0  0  0  0  0  0  0  0
  -22.7180    4.2830  -22.0720 C   0  0  0  0  0  0  0  0  0  0  0  0
  -23.3350    0.8760  -19.3270 C   0  0  0  0  0  0  0  0  0  0  0  0
  -22.4030    5.0710  -24.4350 C   0  0  0  0  0  0  0  0  0  0  0  0
  -23.0450   -1.6970  -19.1750 C   0  0  0  0  0  0  0  0  0  0  0  0
  -23.1800   -2.8680  -18.4110 C   0  0  0  0  0  0  0  0  0  0  0  0
  -22.6550    1.9410  -21.4970 C   0  0  0  0  0  0  0  0  0  0  0  0
  -22.4660    3.9870  -23.4100 C   0  0  0  0  0  0  0  0  0  0  0  0
  -23.3790   -0.4390  -18.5990 C   0  0  0  0  0  0  0  0  0  0  0  0
  -22.4837   -0.9867  -21.0060 H   0  0  0  0  0  0  0  0  0  0  0  0
  -23.6102    6.2921  -23.3346 H   0  0  0  0  0  0  0  0  0  0  0  0
  -23.1266    6.9271  -24.8717 H   0  0  0  0  0  0  0  0  0  0  0  0
  -21.2322    4.1375  -25.7467 H   0  0  0  0  0  0  0  0  0  0  0  0
  -22.4074   -0.0088  -20.8722 H   0  0  0  0  0  0  0  0  0  0  0  0
  -22.3921   -7.0465  -18.0395 H   0  0  0  0  0  0  0  0  0  0  0  0
  -21.4973   -6.2208  -19.1278 H   0  0  0  0  0  0  0  0  0  0  0  0
  -21.5717   -5.7121  -17.5779 H   0  0  0  0  0  0  0  0  0  0  0  0
  -23.7729   -5.7186  -19.4020 H   0  0  0  0  0  0  0  0  0  0  0  0
  -23.8473   -5.2098  -17.8521 H   0  0  0  0  0  0  0  0  0  0  0  0
  -24.3314   -1.5363  -15.6151 H   0  0  0  0  0  0  0  0  0  0  0  0
  -23.6971   -3.6360  -16.5508 H   0  0  0  0  0  0  0  0  0  0  0  0
  -22.3020    0.6846  -23.1141 H   0  0  0  0  0  0  0  0  0  0  0  0
  -22.9933    3.5063  -20.1682 H   0  0  0  0  0  0  0  0  0  0  0  0
  -24.1442    0.4607  -16.8825 H   0  0  0  0  0  0  0  0  0  0  0  0
  -22.1654    2.4146  -24.7397 H   0  0  0  0  0  0  0  0  0  0  0  0
  -22.8327    5.2359  -21.7912 H   0  0  0  0  0  0  0  0  0  0  0  0
  1 16  2  0  0  0  0
  2 18  1  0  0  0  0
  3  8  1  0  0  0  0
  3 19  1  0  0  0  0
  4 17  1  0  0  0  0
  5 17  2  0  0  0  0
  6 16  1  0  0  0  0
  6 20  1  0  0  0  0
  7  8  1  0  0  0  0
  9 10  2  0  0  0  0
  9 13  1  0  0  0  0
 10 19  1  0  0  0  0
 11 14  1  0  0  0  0
 11 20  2  0  0  0  0
 12 15  2  0  0  0  0
 12 20  1  0  0  0  0
 13 22  2  0  0  0  0
 14 21  2  0  0  0  0
 15 21  1  0  0  0  0
 16 22  1  0  0  0  0
 17 21  1  0  0  0  0
 18 19  2  0  0  0  0
 18 22  1  0  0  0  0
  2 23  1  0  0  0  0
  4 24  1  0  0  0  0
  4 25  1  0  0  0  0
  5 26  1  0  0  0  0
  6 27  1  0  0  0  0
  7 28  1  0  0  0  0
  7 29  1  0  0  0  0
  7 30  1  0  0  0  0
  8 31  1  0  0  0  0
  8 32  1  0  0  0  0
  9 33  1  0  0  0  0
 10 34  1  0  0  0  0
 11 35  1  0  0  0  0
 12 36  1  0  0  0  0
 13 37  1  0  0  0  0
 14 38  1  0  0  0  0
 15 39  1  0  0  0  0
M  END
> <pdb_id>
6QHA

> <uniprot_id>
Q92876

> <usmiles>
O=C(Nc1ccc(cc1)C(=N)N)c2c(O)c(OCC)ccc2

$$$$
J2V_A_601
          07192421333D 1   1.00000     0.00000     0
            
 44 47  0  0  0  0            999 V2000
   21.2196   68.5129    2.9990 O   0  0  0  0  0  0  0  0  0  0  0  0
   11.6280   63.3948    4.1143 O   0  0  0  0  0  0  0  0  0  0  0  0
   17.2806   68.7474    1.4350 N   0  0  0  0  0  0  0  0  0  0  0  0
   12.6743   64.7968    5.6253 N   0  0  0  0  0  0  0  0  0  0  0  0
   16.1473   65.0878    8.2538 N   0  0  0  0  0  0  0  0  0  0  0  0
   19.5856   69.0721    1.5176 N   0  0  0  0  0  0  0  0  0  0  0  0
   18.1579   67.0668    6.1224 N   0  0  0  0  0  0  0  0  0  0  0  0
   10.3828   63.6165    4.8253 C   0  0  0  0  0  0  0  0  0  0  0  0
   21.8660   69.8805    1.1836 C   0  0  0  0  0  0  0  0  0  0  0  0
   16.8432   65.0704    9.4101 C   0  0  0  0  0  0  0  0  0  0  0  0
   16.1174   68.2991    1.9590 C   0  0  0  0  0  0  0  0  0  0  0  0
   13.7933   65.4396    5.9800 C   0  0  0  0  0  0  0  0  0  0  0  0
   18.0641   65.7260    9.5929 C   0  0  0  0  0  0  0  0  0  0  0  0
   16.0224   67.6017    3.1489 C   0  0  0  0  0  0  0  0  0  0  0  0
   18.6054   66.4490    8.5370 C   0  0  0  0  0  0  0  0  0  0  0  0
   13.9160   63.7988    3.7959 C   0  0  0  0  0  0  0  0  0  0  0  0
   15.0534   64.4861    4.1942 C   0  0  0  0  0  0  0  0  0  0  0  0
   18.4087   67.7836    3.3305 C   0  0  0  0  0  0  0  0  0  0  0  0
   20.8721   69.0874    1.9878 C   0  0  0  0  0  0  0  0  0  0  0  0
   12.7479   64.0074    4.5586 C   0  0  0  0  0  0  0  0  0  0  0  0
   18.4148   68.4997    2.1199 C   0  0  0  0  0  0  0  0  0  0  0  0
   17.8905   66.4771    7.3318 C   0  0  0  0  0  0  0  0  0  0  0  0
   16.6815   65.7894    7.2326 C   0  0  0  0  0  0  0  0  0  0  0  0
   17.1394   66.7664    5.2351 C   0  0  0  0  0  0  0  0  0  0  0  0
   15.0051   65.3215    5.3125 C   0  0  0  0  0  0  0  0  0  0  0  0
   17.1886   67.3534    3.8707 C   0  0  0  0  0  0  0  0  0  0  0  0
   16.2133   65.9691    5.8772 C   0  0  0  0  0  0  0  0  0  0  0  0
   19.4063   69.5051    0.6174 H   0  0  0  0  0  0  0  0  0  0  0  0
   18.9701   67.6504    5.9505 H   0  0  0  0  0  0  0  0  0  0  0  0
    9.6768   63.0070    4.2647 H   0  0  0  0  0  0  0  0  0  0  0  0
   10.0598   64.6558    4.8014 H   0  0  0  0  0  0  0  0  0  0  0  0
   10.4177   63.2785    5.8608 H   0  0  0  0  0  0  0  0  0  0  0  0
   21.4331   70.5321    0.4285 H   0  0  0  0  0  0  0  0  0  0  0  0
   22.5688   69.2272    0.6683 H   0  0  0  0  0  0  0  0  0  0  0  0
   22.4662   70.5195    1.8297 H   0  0  0  0  0  0  0  0  0  0  0  0
   16.3666   64.5034   10.2090 H   0  0  0  0  0  0  0  0  0  0  0  0
   15.2365   68.5719    1.3813 H   0  0  0  0  0  0  0  0  0  0  0  0
   13.6958   66.0836    6.8538 H   0  0  0  0  0  0  0  0  0  0  0  0
   18.5876   65.6682   10.5468 H   0  0  0  0  0  0  0  0  0  0  0  0
   15.0429   67.2886    3.5045 H   0  0  0  0  0  0  0  0  0  0  0  0
   19.5525   66.9741    8.6453 H   0  0  0  0  0  0  0  0  0  0  0  0
   13.9215   63.1312    2.9369 H   0  0  0  0  0  0  0  0  0  0  0  0
   15.9782   64.3732    3.6320 H   0  0  0  0  0  0  0  0  0  0  0  0
   19.3274   67.4886    3.8309 H   0  0  0  0  0  0  0  0  0  0  0  0
  1 19  2  0  0  0  0
  2  8  1  0  0  0  0
  2 20  1  0  0  0  0
  3 11  1  0  0  0  0
  3 21  2  0  0  0  0
  4 12  2  0  0  0  0
  4 20  1  0  0  0  0
  5 10  1  0  0  0  0
  5 23  2  0  0  0  0
  6 19  1  0  0  0  0
  6 21  1  0  0  0  0
  6 28  1  0  0  0  0
  7 22  1  0  0  0  0
  7 24  1  0  0  0  0
  7 29  1  0  0  0  0
  8 30  1  0  0  0  0
  8 31  1  0  0  0  0
  8 32  1  0  0  0  0
  9 19  1  0  0  0  0
  9 33  1  0  0  0  0
  9 34  1  0  0  0  0
  9 35  1  0  0  0  0
 10 13  2  0  0  0  0
 10 36  1  0  0  0  0
 11 14  2  0  0  0  0
 11 37  1  0  0  0  0
 12 25  1  0  0  0  0
 12 38  1  0  0  0  0
 13 15  1  0  0  0  0
 13 39  1  0  0  0  0
 14 26  1  0  0  0  0
 14 40  1  0  0  0  0
 15 22  2  0  0  0  0
 15 41  1  0  0  0  0
 16 17  1  0  0  0  0
 16 20  2  0  0  0  0
 16 42  1  0  0  0  0
 17 25  2  0  0  0  0
 17 43  1  0  0  0  0
 18 21  1  0  0  0  0
 18 26  2  0  0  0  0
 18 44  1  0  0  0  0
 22 23  1  0  0  0  0
 23 27  1  0  0  0  0
 24 26  1  0  0  0  0
 24 27  2  0  0  0  0
 25 27  1  0  0  0  0
M  END
> <pdb_id>
5QIL

> <uniprot_id>
P36897

> <usmiles>
O=C(Nc1nccc(c1)C=2Nc3c(nccc3)C2c4cnc(OC)cc4)C

$$$$
J2V_A_601
          07202409323D 1   1.00000     0.00000     0
            
 44 47  0  0  0  0            999 V2000
   13.2596   -1.2992    3.8054 O   0  0  0  0  0  0  0  0  0  0  0  0
   15.1723   -5.7991   13.5947 O   0  0  0  0  0  0  0  0  0  0  0  0
   11.0246   -2.1423    7.3130 N   0  0  0  0  0  0  0  0  0  0  0  0
   15.9340   -3.7676   12.8063 N   0  0  0  0  0  0  0  0  0  0  0  0
   18.3913   -1.8071    9.9446 N   0  0  0  0  0  0  0  0  0  0  0  0
   11.3953   -1.6909    5.0516 N   0  0  0  0  0  0  0  0  0  0  0  0
   15.9487   -1.0689    7.4815 N   0  0  0  0  0  0  0  0  0  0  0  0
   15.5676   -5.3904   14.9103 C   0  0  0  0  0  0  0  0  0  0  0  0
   11.1827   -1.1912    2.6807 C   0  0  0  0  0  0  0  0  0  0  0  0
   19.4749   -1.1490    9.5057 C   0  0  0  0  0  0  0  0  0  0  0  0
   11.4668   -2.3578    8.5735 C   0  0  0  0  0  0  0  0  0  0  0  0
   16.0927   -2.9461   11.7465 C   0  0  0  0  0  0  0  0  0  0  0  0
   19.4975   -0.3577    8.3556 C   0  0  0  0  0  0  0  0  0  0  0  0
   12.8040   -2.3450    8.9343 C   0  0  0  0  0  0  0  0  0  0  0  0
   18.3368   -0.2605    7.5885 C   0  0  0  0  0  0  0  0  0  0  0  0
   14.7680   -5.3110   11.3340 C   0  0  0  0  0  0  0  0  0  0  0  0
   14.9077   -4.4186   10.2783 C   0  0  0  0  0  0  0  0  0  0  0  0
   13.3291   -1.9388    6.6232 C   0  0  0  0  0  0  0  0  0  0  0  0
   12.0535   -1.3991    3.8963 C   0  0  0  0  0  0  0  0  0  0  0  0
   15.2885   -4.9126   12.5852 C   0  0  0  0  0  0  0  0  0  0  0  0
   11.9439   -1.9433    6.3530 C   0  0  0  0  0  0  0  0  0  0  0  0
   17.2091   -0.9526    8.0259 C   0  0  0  0  0  0  0  0  0  0  0  0
   17.2718   -1.7000    9.1960 C   0  0  0  0  0  0  0  0  0  0  0  0
   15.1803   -1.8834    8.2952 C   0  0  0  0  0  0  0  0  0  0  0  0
   15.5890   -3.2117   10.4747 C   0  0  0  0  0  0  0  0  0  0  0  0
   13.7630   -2.1101    7.9418 C   0  0  0  0  0  0  0  0  0  0  0  0
   15.9541   -2.3035    9.3634 C   0  0  0  0  0  0  0  0  0  0  0  0
   10.3818   -1.7491    5.0182 H   0  0  0  0  0  0  0  0  0  0  0  0
   15.6555   -0.5936    6.6347 H   0  0  0  0  0  0  0  0  0  0  0  0
   15.2770   -6.2337   15.5336 H   0  0  0  0  0  0  0  0  0  0  0  0
   15.0179   -4.5082   15.2305 H   0  0  0  0  0  0  0  0  0  0  0  0
   16.6359   -5.2000   15.0017 H   0  0  0  0  0  0  0  0  0  0  0  0
   11.0621   -2.0845    2.0701 H   0  0  0  0  0  0  0  0  0  0  0  0
   10.1858   -0.8338    2.9292 H   0  0  0  0  0  0  0  0  0  0  0  0
   11.6190   -0.4381    2.0259 H   0  0  0  0  0  0  0  0  0  0  0  0
   20.3745   -1.3304   10.0900 H   0  0  0  0  0  0  0  0  0  0  0  0
   10.6729   -2.5225    9.2990 H   0  0  0  0  0  0  0  0  0  0  0  0
   16.6540   -2.0411   11.9690 H   0  0  0  0  0  0  0  0  0  0  0  0
   20.4016    0.1729    8.0610 H   0  0  0  0  0  0  0  0  0  0  0  0
   13.0639   -2.4588    9.9847 H   0  0  0  0  0  0  0  0  0  0  0  0
   18.3129    0.3374    6.6783 H   0  0  0  0  0  0  0  0  0  0  0  0
   14.2817   -6.2779   11.2097 H   0  0  0  0  0  0  0  0  0  0  0  0
   14.4545   -4.6455    9.3159 H   0  0  0  0  0  0  0  0  0  0  0  0
   14.0823   -1.8812    5.8405 H   0  0  0  0  0  0  0  0  0  0  0  0
  1 19  2  0  0  0  0
  2  8  1  0  0  0  0
  2 20  1  0  0  0  0
  3 11  1  0  0  0  0
  3 21  2  0  0  0  0
  4 12  2  0  0  0  0
  4 20  1  0  0  0  0
  5 10  1  0  0  0  0
  5 23  2  0  0  0  0
  6 19  1  0  0  0  0
  6 21  1  0  0  0  0
  6 28  1  0  0  0  0
  7 22  1  0  0  0  0
  7 24  1  0  0  0  0
  7 29  1  0  0  0  0
  8 30  1  0  0  0  0
  8 31  1  0  0  0  0
  8 32  1  0  0  0  0
  9 19  1  0  0  0  0
  9 33  1  0  0  0  0
  9 34  1  0  0  0  0
  9 35  1  0  0  0  0
 10 13  2  0  0  0  0
 10 36  1  0  0  0  0
 11 14  2  0  0  0  0
 11 37  1  0  0  0  0
 12 25  1  0  0  0  0
 12 38  1  0  0  0  0
 13 15  1  0  0  0  0
 13 39  1  0  0  0  0
 14 26  1  0  0  0  0
 14 40  1  0  0  0  0
 15 22  2  0  0  0  0
 15 41  1  0  0  0  0
 16 17  1  0  0  0  0
 16 20  2  0  0  0  0
 16 42  1  0  0  0  0
 17 25  2  0  0  0  0
 17 43  1  0  0  0  0
 18 21  1  0  0  0  0
 18 26  2  0  0  0  0
 18 44  1  0  0  0  0
 22 23  1  0  0  0  0
 23 27  1  0  0  0  0
 24 26  1  0  0  0  0
 24 27  2  0  0  0  0
 25 27  1  0  0  0  0
M  END
> <pdb_id>
5QIN

> <uniprot_id>
P37173

> <usmiles>
O=C(Nc1nccc(c1)C=2Nc3c(nccc3)C2c4cnc(OC)cc4)C

$$$$
J2W_A_301
          07212403323D 1   1.00000     0.00000     0
            
 36 37  0  0  0  0            999 V2000
  -23.9205    1.7461  -18.9380 O   0  0  0  0  0  0  0  0  0  0  0  0
  -22.1425   -1.7542  -20.3895 O   0  0  0  0  0  0  0  0  0  0  0  0
  -22.3746   -4.0500  -19.1013 O   0  0  0  0  0  0  0  0  0  0  0  0
  -23.0542    6.1954  -24.0998 N   0  0  0  0  0  0  0  0  0  0  0  0
  -21.7194    4.9980  -25.5240 N   0  0  0  0  0  0  0  0  0  0  0  0
  -22.6831    0.8001  -20.6066 N   0  0  0  0  0  0  0  0  0  0  0  0
  -22.6455   -5.3440  -18.5663 C   0  0  0  0  0  0  0  0  0  0  0  0
  -24.1854   -1.8070  -16.7637 C   0  0  0  0  0  0  0  0  0  0  0  0
  -23.6219   -2.9819  -17.2637 C   0  0  0  0  0  0  0  0  0  0  0  0
  -24.0653   -0.5991  -17.4554 C   0  0  0  0  0  0  0  0  0  0  0  0
  -22.7876    3.2385  -21.1101 C   0  0  0  0  0  0  0  0  0  0  0  0
  -22.2920    1.6223  -22.8443 C   0  0  0  0  0  0  0  0  0  0  0  0
  -22.7249    4.2586  -22.0613 C   0  0  0  0  0  0  0  0  0  0  0  0
  -22.2212    2.6493  -23.7875 C   0  0  0  0  0  0  0  0  0  0  0  0
  -23.3175    0.7749  -19.4154 C   0  0  0  0  0  0  0  0  0  0  0  0
  -22.3626    5.0838  -24.3828 C   0  0  0  0  0  0  0  0  0  0  0  0
  -22.8108   -1.7442  -19.2060 C   0  0  0  0  0  0  0  0  0  0  0  0
  -22.9629   -2.9638  -18.5031 C   0  0  0  0  0  0  0  0  0  0  0  0
  -22.5894    1.9010  -21.5060 C   0  0  0  0  0  0  0  0  0  0  0  0
  -22.3915    3.9776  -23.3939 C   0  0  0  0  0  0  0  0  0  0  0  0
  -23.3467   -0.5285  -18.6634 C   0  0  0  0  0  0  0  0  0  0  0  0
  -22.0230   -0.9047  -20.9034 H   0  0  0  0  0  0  0  0  0  0  0  0
  -23.5474    6.2704  -23.2331 H   0  0  0  0  0  0  0  0  0  0  0  0
  -23.0774    6.9504  -24.7551 H   0  0  0  0  0  0  0  0  0  0  0  0
  -21.2002    4.1723  -25.7445 H   0  0  0  0  0  0  0  0  0  0  0  0
  -22.2297   -0.0455  -20.8882 H   0  0  0  0  0  0  0  0  0  0  0  0
  -22.1540   -6.0339  -19.0977 H   0  0  0  0  0  0  0  0  0  0  0  0
  -22.3446   -5.3803  -17.6133 H   0  0  0  0  0  0  0  0  0  0  0  0
  -23.6279   -5.5249  -18.6128 H   0  0  0  0  0  0  0  0  0  0  0  0
  -24.6830   -1.8301  -15.8966 H   0  0  0  0  0  0  0  0  0  0  0  0
  -23.6873   -3.8323  -16.7416 H   0  0  0  0  0  0  0  0  0  0  0  0
  -24.4954    0.2254  -17.0877 H   0  0  0  0  0  0  0  0  0  0  0  0
  -22.9726    3.4563  -20.1518 H   0  0  0  0  0  0  0  0  0  0  0  0
  -22.1285    0.6775  -23.1284 H   0  0  0  0  0  0  0  0  0  0  0  0
  -22.9200    5.2008  -21.7889 H   0  0  0  0  0  0  0  0  0  0  0  0
  -22.0478    2.4325  -24.7482 H   0  0  0  0  0  0  0  0  0  0  0  0
  1 15  2  0  0  0  0
  2 17  1  0  0  0  0
  3  7  1  0  0  0  0
  3 18  1  0  0  0  0
  4 16  1  0  0  0  0
  5 16  2  0  0  0  0
  6 15  1  0  0  0  0
  6 19  1  0  0  0  0
  8  9  2  0  0  0  0
  8 10  1  0  0  0  0
  9 18  1  0  0  0  0
 10 21  2  0  0  0  0
 11 13  1  0  0  0  0
 11 19  2  0  0  0  0
 12 14  2  0  0  0  0
 12 19  1  0  0  0  0
 13 20  2  0  0  0  0
 14 20  1  0  0  0  0
 15 21  1  0  0  0  0
 16 20  1  0  0  0  0
 17 18  2  0  0  0  0
 17 21  1  0  0  0  0
  2 22  1  0  0  0  0
  4 23  1  0  0  0  0
  4 24  1  0  0  0  0
  5 25  1  0  0  0  0
  6 26  1  0  0  0  0
  7 27  1  0  0  0  0
  7 28  1  0  0  0  0
  7 29  1  0  0  0  0
  8 30  1  0  0  0  0
  9 31  1  0  0  0  0
 10 32  1  0  0  0  0
 11 33  1  0  0  0  0
 12 34  1  0  0  0  0
 13 35  1  0  0  0  0
 14 36  1  0  0  0  0
M  END
> <pdb_id>
6QHB

> <uniprot_id>
Q92876

> <usmiles>
O=C(Nc1ccc(cc1)C(=N)N)c2c(O)c(OC)ccc2

$$$$
J2Y_A_601
          07192421333D 1   1.00000     0.00000     0
            
 44 47  0  0  0  0            999 V2000
   20.8189   68.4893    3.5097 O   0  0  0  0  0  0  0  0  0  0  0  0
   11.5211   62.9659    3.8614 O   0  0  0  0  0  0  0  0  0  0  0  0
   17.0068   68.5798    1.6119 N   0  0  0  0  0  0  0  0  0  0  0  0
   13.5300   65.1730    6.0118 N   0  0  0  0  0  0  0  0  0  0  0  0
   15.8875   64.6794    8.3356 N   0  0  0  0  0  0  0  0  0  0  0  0
   19.3013   68.9295    1.8506 N   0  0  0  0  0  0  0  0  0  0  0  0
   17.7785   66.9047    6.3201 N   0  0  0  0  0  0  0  0  0  0  0  0
   10.2076   63.1541    4.4197 C   0  0  0  0  0  0  0  0  0  0  0  0
   21.6112   69.6622    1.5911 C   0  0  0  0  0  0  0  0  0  0  0  0
   16.6240   64.5824    9.4695 C   0  0  0  0  0  0  0  0  0  0  0  0
   15.8360   68.1104    2.0824 C   0  0  0  0  0  0  0  0  0  0  0  0
   12.4816   64.4518    5.5430 C   0  0  0  0  0  0  0  0  0  0  0  0
   17.8341   65.2452    9.6656 C   0  0  0  0  0  0  0  0  0  0  0  0
   15.7025   67.4280    3.2840 C   0  0  0  0  0  0  0  0  0  0  0  0
   18.3234   66.0702    8.6516 C   0  0  0  0  0  0  0  0  0  0  0  0
   13.8010   63.5299    3.7717 C   0  0  0  0  0  0  0  0  0  0  0  0
   14.8844   64.2581    4.2400 C   0  0  0  0  0  0  0  0  0  0  0  0
   18.0722   67.6559    3.5826 C   0  0  0  0  0  0  0  0  0  0  0  0
   20.5475   68.9863    2.4196 C   0  0  0  0  0  0  0  0  0  0  0  0
   18.1105   68.3634    2.3679 C   0  0  0  0  0  0  0  0  0  0  0  0
   12.5803   63.6335    4.4332 C   0  0  0  0  0  0  0  0  0  0  0  0
   14.7101   65.0619    5.3719 C   0  0  0  0  0  0  0  0  0  0  0  0
   17.5644   66.1907    7.4824 C   0  0  0  0  0  0  0  0  0  0  0  0
   16.3765   65.4709    7.3571 C   0  0  0  0  0  0  0  0  0  0  0  0
   16.7622   66.6356    5.4129 C   0  0  0  0  0  0  0  0  0  0  0  0
   16.8405   67.2163    4.0605 C   0  0  0  0  0  0  0  0  0  0  0  0
   15.8658   65.7590    5.9835 C   0  0  0  0  0  0  0  0  0  0  0  0
   19.1948   69.3440    0.9297 H   0  0  0  0  0  0  0  0  0  0  0  0
   18.5486   67.5558    6.2050 H   0  0  0  0  0  0  0  0  0  0  0  0
    9.5813   62.5353    3.7787 H   0  0  0  0  0  0  0  0  0  0  0  0
    9.8686   64.1868    4.3526 H   0  0  0  0  0  0  0  0  0  0  0  0
   10.1087   62.8045    5.4460 H   0  0  0  0  0  0  0  0  0  0  0  0
   21.2803   70.5969    1.1442 H   0  0  0  0  0  0  0  0  0  0  0  0
   21.9925   69.0254    0.7936 H   0  0  0  0  0  0  0  0  0  0  0  0
   22.4728   69.9056    2.2123 H   0  0  0  0  0  0  0  0  0  0  0  0
   16.1893   63.9366   10.2314 H   0  0  0  0  0  0  0  0  0  0  0  0
   14.9775   68.3541    1.4589 H   0  0  0  0  0  0  0  0  0  0  0  0
   11.5920   64.6098    6.1500 H   0  0  0  0  0  0  0  0  0  0  0  0
   18.3913   65.1322   10.5951 H   0  0  0  0  0  0  0  0  0  0  0  0
   14.7202   67.0933    3.6116 H   0  0  0  0  0  0  0  0  0  0  0  0
   19.2674   66.6009    8.7639 H   0  0  0  0  0  0  0  0  0  0  0  0
   13.8981   62.8848    2.8996 H   0  0  0  0  0  0  0  0  0  0  0  0
   15.8568   64.1913    3.7531 H   0  0  0  0  0  0  0  0  0  0  0  0
   18.9763   67.3588    4.1095 H   0  0  0  0  0  0  0  0  0  0  0  0
  1 19  2  0  0  0  0
  2  8  1  0  0  0  0
  2 21  1  0  0  0  0
  3 11  1  0  0  0  0
  3 20  2  0  0  0  0
  4 12  2  0  0  0  0
  4 22  1  0  0  0  0
  5 10  1  0  0  0  0
  5 24  2  0  0  0  0
  6 19  1  0  0  0  0
  6 20  1  0  0  0  0
  6 28  1  0  0  0  0
  7 23  1  0  0  0  0
  7 25  1  0  0  0  0
  7 29  1  0  0  0  0
  8 30  1  0  0  0  0
  8 31  1  0  0  0  0
  8 32  1  0  0  0  0
  9 19  1  0  0  0  0
  9 33  1  0  0  0  0
  9 34  1  0  0  0  0
  9 35  1  0  0  0  0
 10 13  2  0  0  0  0
 10 36  1  0  0  0  0
 11 14  2  0  0  0  0
 11 37  1  0  0  0  0
 12 21  1  0  0  0  0
 12 38  1  0  0  0  0
 13 15  1  0  0  0  0
 13 39  1  0  0  0  0
 14 26  1  0  0  0  0
 14 40  1  0  0  0  0
 15 23  2  0  0  0  0
 15 41  1  0  0  0  0
 16 17  1  0  0  0  0
 16 21  2  0  0  0  0
 16 42  1  0  0  0  0
 17 22  2  0  0  0  0
 17 43  1  0  0  0  0
 18 20  1  0  0  0  0
 18 26  2  0  0  0  0
 18 44  1  0  0  0  0
 22 27  1  0  0  0  0
 23 24  1  0  0  0  0
 24 27  1  0  0  0  0
 25 26  1  0  0  0  0
 25 27  2  0  0  0  0
M  END
> <pdb_id>
5QIM

> <uniprot_id>
P36897

> <usmiles>
O=C(Nc1nccc(c1)C=2Nc3c(nccc3)C2c4ncc(OC)cc4)C

$$$$
J3Y_A_1500
          07192418053D 1   1.00000     0.00000     0
            
 57 61  0  0  0  0            999 V2000
    8.8635   17.3263   11.9325 F   0  0  0  0  0  0  0  0  0  0  0  0
    1.7455   21.9752    6.9755 O   0  0  0  0  0  0  0  0  0  0  0  0
   -2.8130   20.7803    6.6982 O   0  0  0  0  0  0  0  0  0  0  0  0
    2.2500   16.3094   10.1095 N   0  0  0  0  0  0  0  0  0  0  0  0
    2.7077   15.0784   10.5923 N   0  0  0  0  0  0  0  0  0  0  0  0
    8.2644   18.0980    8.4897 N   0  0  0  0  0  0  0  0  0  0  0  0
    5.1467   17.9352    7.1663 N   0  0  0  0  0  0  0  0  0  0  0  0
    7.1582   18.0884    5.9800 N   0  0  0  0  0  0  0  0  0  0  0  0
   -0.1380   20.9252    7.4215 N   0  0  0  0  0  0  0  0  0  0  0  0
    2.9857   17.8840    8.3776 N   0  0  0  0  0  0  0  0  0  0  0  0
    4.5922   13.4913   10.1259 C   0  0  0  0  0  0  0  0  0  0  0  0
    8.8350   16.3195    5.7448 C   0  0  0  0  0  0  0  0  0  0  0  0
   -2.0404   21.8634    6.1770 C   0  0  0  0  0  0  0  0  0  0  0  0
   -2.0798   19.5592    6.8039 C   0  0  0  0  0  0  0  0  0  0  0  0
    8.5658   18.2514    9.7653 C   0  0  0  0  0  0  0  0  0  0  0  0
   -0.8787   22.1666    7.1312 C   0  0  0  0  0  0  0  0  0  0  0  0
   -0.9484   19.7569    7.8226 C   0  0  0  0  0  0  0  0  0  0  0  0
    1.9176   18.7165    8.4119 C   0  0  0  0  0  0  0  0  0  0  0  0
    8.2232   15.9141   10.1305 C   0  0  0  0  0  0  0  0  0  0  0  0
    5.4718   19.7949    5.7464 C   0  0  0  0  0  0  0  0  0  0  0  0
    7.9134   15.7966    8.7845 C   0  0  0  0  0  0  0  0  0  0  0  0
    4.2384   20.2924    6.0821 C   0  0  0  0  0  0  0  0  0  0  0  0
    4.0468   15.7458    8.9892 C   0  0  0  0  0  0  0  0  0  0  0  0
    8.5554   17.1684   10.6270 C   0  0  0  0  0  0  0  0  0  0  0  0
    1.2188   20.9320    7.3158 C   0  0  0  0  0  0  0  0  0  0  0  0
    5.9069   18.5982    6.3133 C   0  0  0  0  0  0  0  0  0  0  0  0
    3.0872   16.7023    9.1163 C   0  0  0  0  0  0  0  0  0  0  0  0
    3.9464   18.3771    7.5235 C   0  0  0  0  0  0  0  0  0  0  0  0
    3.7798   14.7433    9.9235 C   0  0  0  0  0  0  0  0  0  0  0  0
    7.6048   16.7969    6.5184 C   0  0  1  0  0  0  0  0  0  0  0  0
    7.9458   16.9227    7.9847 C   0  0  0  0  0  0  0  0  0  0  0  0
    2.1106   19.7796    7.5763 C   0  0  0  0  0  0  0  0  0  0  0  0
    3.4532   19.5780    6.9892 C   0  0  0  0  0  0  0  0  0  0  0  0
    1.4491   16.8102   10.4377 H   0  0  0  0  0  0  0  0  0  0  0  0
    7.7580   18.6055    5.3692 H   0  0  0  0  0  0  0  0  0  0  0  0
    5.3584   13.4836    9.4833 H   0  0  0  0  0  0  0  0  0  0  0  0
    4.9423   13.4688   11.0624 H   0  0  0  0  0  0  0  0  0  0  0  0
    4.0153   12.6902    9.9664 H   0  0  0  0  0  0  0  0  0  0  0  0
    9.1389   15.4402    6.1115 H   0  0  0  0  0  0  0  0  0  0  0  0
    8.6010   16.2146    4.7783 H   0  0  0  0  0  0  0  0  0  0  0  0
    9.5695   16.9916    5.8389 H   0  0  0  0  0  0  0  0  0  0  0  0
   -2.6195   22.6738    6.0885 H   0  0  0  0  0  0  0  0  0  0  0  0
   -1.6781   21.6129    5.2793 H   0  0  0  0  0  0  0  0  0  0  0  0
   -1.6937   19.3194    5.9132 H   0  0  0  0  0  0  0  0  0  0  0  0
   -2.6870   18.8268    7.1121 H   0  0  0  0  0  0  0  0  0  0  0  0
    8.8039   19.1585   10.1125 H   0  0  0  0  0  0  0  0  0  0  0  0
   -0.2629   22.8293    6.7052 H   0  0  0  0  0  0  0  0  0  0  0  0
   -1.2388   22.5460    7.9835 H   0  0  0  0  0  0  0  0  0  0  0  0
   -1.3381   19.9149    8.7299 H   0  0  0  0  0  0  0  0  0  0  0  0
   -0.3713   18.9405    7.8452 H   0  0  0  0  0  0  0  0  0  0  0  0
    1.1013   18.5728    8.9713 H   0  0  0  0  0  0  0  0  0  0  0  0
    8.2081   15.1142   10.7304 H   0  0  0  0  0  0  0  0  0  0  0  0
    6.0545   20.2871    5.0998 H   0  0  0  0  0  0  0  0  0  0  0  0
    7.6693   14.9076    8.3971 H   0  0  0  0  0  0  0  0  0  0  0  0
    3.9085   21.1490    5.6855 H   0  0  0  0  0  0  0  0  0  0  0  0
    4.8084   15.7587    8.3413 H   0  0  0  0  0  0  0  0  0  0  0  0
    6.8706   16.1266    6.4102 H   0  0  0  0  0  0  0  0  0  0  0  0
  1 24  1  0  0  0  0
  2 25  2  0  0  0  0
  3 13  1  0  0  0  0
  3 14  1  0  0  0  0
  4  5  1  0  0  0  0
  4 27  1  0  0  0  0
  5 29  2  0  0  0  0
  6 15  2  0  0  0  0
  6 31  1  0  0  0  0
  7 26  1  0  0  0  0
  7 28  2  0  0  0  0
  8 26  1  0  0  0  0
  8 30  1  0  0  0  0
  9 16  1  0  0  0  0
  9 17  1  0  0  0  0
  9 25  1  0  0  0  0
 10 18  1  0  0  0  0
 10 27  1  0  0  0  0
 10 28  1  0  0  0  0
 11 29  1  0  0  0  0
 12 30  1  0  0  0  0
 13 16  1  0  0  0  0
 14 17  1  0  0  0  0
 15 24  1  0  0  0  0
 18 32  2  0  0  0  0
 19 21  1  0  0  0  0
 19 24  2  0  0  0  0
 20 22  1  0  0  0  0
 20 26  2  0  0  0  0
 21 31  2  0  0  0  0
 22 33  2  0  0  0  0
 23 27  2  0  0  0  0
 23 29  1  0  0  0  0
 25 32  1  0  0  0  0
 28 33  1  0  0  0  0
 30 31  1  0  0  0  0
 32 33  1  0  0  0  0
  4 34  1  0  0  0  0
  8 35  1  0  0  0  0
 11 36  1  0  0  0  0
 11 37  1  0  0  0  0
 11 38  1  0  0  0  0
 12 39  1  0  0  0  0
 12 40  1  0  0  0  0
 12 41  1  0  0  0  0
 13 42  1  0  0  0  0
 13 43  1  0  0  0  0
 14 44  1  0  0  0  0
 14 45  1  0  0  0  0
 15 46  1  0  0  0  0
 16 47  1  0  0  0  0
 16 48  1  0  0  0  0
 17 49  1  0  0  0  0
 17 50  1  0  0  0  0
 18 51  1  0  0  0  0
 19 52  1  0  0  0  0
 20 53  1  0  0  0  0
 21 54  1  0  0  0  0
 22 55  1  0  0  0  0
 23 56  1  0  0  0  0
 30 57  1  0  0  0  0
M  END
> <pdb_id>
6EBW

> <uniprot_id>
Q9UM73

> <usmiles>
Fc1cnc(cc1)[C@@H](Nc2nc3N(C=4NN=C(C4)C)C=C(c3cc2)C(=O)N5CCOCC5)C

$$$$
J43_A_265
          07192416293D 1   1.00000     0.00000     0
            
 33 34  0  0  0  0            999 V2000
    0.7788    8.0820   12.5695 Cl  0  0  0  0  0  0  0  0  0  0  0  0
   -0.5039    3.2348   10.7719 S   0  0  0  0  0  0  0  0  0  0  0  0
   -5.8972    0.9748   16.8511 S   0  0  0  0  0  0  0  0  0  0  0  0
   -7.3846    1.0961   16.7006 O   0  0  0  0  0  0  0  0  0  0  0  0
   -5.3784    1.1146   18.2456 O   0  0  0  0  0  0  0  0  0  0  0  0
   -2.6644    7.9576   15.1023 O   0  0  0  0  0  0  0  0  0  0  0  0
   -5.3384   -0.4945   16.1749 N   0  0  0  0  0  0  0  0  0  0  0  0
   -0.0384    5.7035   11.8107 N   0  0  0  0  0  0  0  0  0  0  0  0
   -1.9451    4.6463   12.5247 N   0  0  0  0  0  0  0  0  0  0  0  0
   -3.5260    5.4830   13.9961 N   0  0  0  0  0  0  0  0  0  0  0  0
   -1.4393    1.8082   11.3806 C   0  0  0  0  0  0  0  0  0  0  0  0
   -1.7997    7.9576   14.2291 C   0  0  0  0  0  0  0  0  0  0  0  0
   -3.8596    2.1839   15.5790 C   0  0  0  0  0  0  0  0  0  0  0  0
   -5.9289    3.4292   15.7287 C   0  0  0  0  0  0  0  0  0  0  0  0
   -3.2759    3.2375   14.8870 C   0  0  0  0  0  0  0  0  0  0  0  0
   -5.3372    4.4829   15.0437 C   0  0  0  0  0  0  0  0  0  0  0  0
   -0.8472    4.6533   11.7861 C   0  0  0  0  0  0  0  0  0  0  0  0
   -0.3216    6.7557   12.5809 C   0  0  0  0  0  0  0  0  0  0  0  0
   -5.1911    2.2737   15.9974 C   0  0  0  0  0  0  0  0  0  0  0  0
   -2.2761    5.6487   13.3393 C   0  0  0  0  0  0  0  0  0  0  0  0
   -4.0197    4.3861   14.6253 C   0  0  0  0  0  0  0  0  0  0  0  0
   -1.4755    6.7879   13.3714 C   0  0  0  0  0  0  0  0  0  0  0  0
   -4.3464   -0.5562   16.2852 H   0  0  0  0  0  0  0  0  0  0  0  0
   -5.7743   -1.2636   16.6424 H   0  0  0  0  0  0  0  0  0  0  0  0
   -4.1236    6.2848   13.9944 H   0  0  0  0  0  0  0  0  0  0  0  0
   -1.2436    1.0122   10.8077 H   0  0  0  0  0  0  0  0  0  0  0  0
   -1.1728    1.6131   12.3245 H   0  0  0  0  0  0  0  0  0  0  0  0
   -2.4177    2.0116   11.3457 H   0  0  0  0  0  0  0  0  0  0  0  0
   -1.2800    8.7999   14.0862 H   0  0  0  0  0  0  0  0  0  0  0  0
   -3.3275    1.3609   15.7781 H   0  0  0  0  0  0  0  0  0  0  0  0
   -6.8804    3.4976   16.0287 H   0  0  0  0  0  0  0  0  0  0  0  0
   -2.3270    3.1719   14.5783 H   0  0  0  0  0  0  0  0  0  0  0  0
   -5.8625    5.3121   14.8522 H   0  0  0  0  0  0  0  0  0  0  0  0
  1 18  1  0  0  0  0
  2 11  1  0  0  0  0
  2 17  1  0  0  0  0
  3  4  2  0  0  0  0
  3  5  2  0  0  0  0
  3  7  1  0  0  0  0
  3 19  1  0  0  0  0
  6 12  2  0  0  0  0
  8 17  2  0  0  0  0
  8 18  1  0  0  0  0
  9 17  1  0  0  0  0
  9 20  2  0  0  0  0
 10 20  1  0  0  0  0
 10 21  1  0  0  0  0
 12 22  1  0  0  0  0
 13 15  1  0  0  0  0
 13 19  2  0  0  0  0
 14 16  2  0  0  0  0
 14 19  1  0  0  0  0
 15 21  2  0  0  0  0
 16 21  1  0  0  0  0
 18 22  2  0  0  0  0
 20 22  1  0  0  0  0
  7 23  1  0  0  0  0
  7 24  1  0  0  0  0
 10 25  1  0  0  0  0
 11 26  1  0  0  0  0
 11 27  1  0  0  0  0
 11 28  1  0  0  0  0
 12 29  1  0  0  0  0
 13 30  1  0  0  0  0
 14 31  1  0  0  0  0
 15 32  1  0  0  0  0
 16 33  1  0  0  0  0
M  END
> <pdb_id>
3MHO

> <uniprot_id>
P00918

> <usmiles>
Clc1nc(SC)nc(Nc2ccc(S(=O)(=O)N)cc2)c1C=O

$$$$
J4A_A_401
          07212404143D 1   1.00000     0.00000     0
            
 54 58  0  0  0  0            999 V2000
   -0.2415    4.4492  -46.6557 O   0  0  0  0  0  0  0  0  0  0  0  0
    0.4049    6.5797  -52.3983 O   0  0  0  0  0  0  0  0  0  0  0  0
   -1.3395    4.1955  -44.1656 N   0  0  0  0  0  0  0  0  0  0  0  0
   -4.0648    5.6410  -45.9750 N   0  0  0  0  0  0  0  0  0  0  0  0
   -1.9775    4.7077  -45.2590 N   0  0  0  0  0  0  0  0  0  0  0  0
   -4.6123    5.0848  -42.9199 N   0  0  0  0  0  0  0  0  0  0  0  0
   -4.4445    6.4092  -48.2379 C   0  0  0  0  0  0  0  0  0  0  0  0
   -1.0978    3.1142  -39.2424 C   0  0  0  0  0  0  0  0  0  0  0  0
   -1.2630    4.4409  -39.5513 C   0  0  0  0  0  0  0  0  0  0  0  0
   -1.3252    2.1765  -40.2105 C   0  0  0  0  0  0  0  0  0  0  0  0
   -1.3633    5.4551  -51.2180 C   0  0  0  0  0  0  0  0  0  0  0  0
    0.2272    6.8276  -50.0458 C   0  0  0  0  0  0  0  0  0  0  0  0
   -1.6303    4.8246  -40.8274 C   0  0  0  0  0  0  0  0  0  0  0  0
   -1.7051    2.5328  -41.4941 C   0  0  0  0  0  0  0  0  0  0  0  0
   -2.0201    5.1757  -50.0322 C   0  0  0  0  0  0  0  0  0  0  0  0
   -0.4333    6.5351  -48.8638 C   0  0  0  0  0  0  0  0  0  0  0  0
   -4.9094    6.5085  -42.6529 C   0  0  0  0  0  0  0  0  0  0  0  0
   -5.0239    4.1522  -41.8540 C   0  0  0  0  0  0  0  0  0  0  0  0
   -6.2671    6.7515  -42.0558 C   0  0  0  0  0  0  0  0  0  0  0  0
   -6.4088    4.4035  -41.3438 C   0  0  0  0  0  0  0  0  0  0  0  0
   -6.6268    5.8107  -41.0003 C   0  0  0  0  0  0  0  0  0  0  0  0
   -1.3640    4.8571  -46.5135 C   0  0  0  0  0  0  0  0  0  0  0  0
   -3.2395    5.0764  -44.9448 C   0  0  0  0  0  0  0  0  0  0  0  0
   -0.2532    6.2696  -51.2010 C   0  0  0  0  0  0  0  0  0  0  0  0
   -3.5240    5.8241  -47.2293 C   0  0  0  0  0  0  0  0  0  0  0  0
   -2.2444    4.2958  -43.1679 C   0  0  0  0  0  0  0  0  0  0  0  0
   -3.4773    4.8035  -43.6592 C   0  0  0  0  0  0  0  0  0  0  0  0
   -1.8698    3.8458  -41.7908 C   0  0  0  0  0  0  0  0  0  0  0  0
   -1.5356    5.6851  -48.8593 C   0  0  0  0  0  0  0  0  0  0  0  0
   -2.1757    5.4502  -47.5303 C   0  0  0  0  0  0  0  0  0  0  0  0
   -0.1291    6.4403  -53.0371 H   0  0  0  0  0  0  0  0  0  0  0  0
   -4.8805    5.8600  -45.8131 H   0  0  0  0  0  0  0  0  0  0  0  0
   -4.0160    7.1673  -48.6654 H   0  0  0  0  0  0  0  0  0  0  0  0
   -5.2587    6.7032  -47.8011 H   0  0  0  0  0  0  0  0  0  0  0  0
   -4.6588    5.7403  -48.9061 H   0  0  0  0  0  0  0  0  0  0  0  0
   -0.8342    2.8575  -38.3871 H   0  0  0  0  0  0  0  0  0  0  0  0
   -1.1264    5.0872  -38.8970 H   0  0  0  0  0  0  0  0  0  0  0  0
   -1.2231    1.2763  -40.0012 H   0  0  0  0  0  0  0  0  0  0  0  0
   -1.6698    5.0965  -52.0188 H   0  0  0  0  0  0  0  0  0  0  0  0
    0.9719    7.3837  -50.0544 H   0  0  0  0  0  0  0  0  0  0  0  0
   -1.7164    5.7251  -41.0409 H   0  0  0  0  0  0  0  0  0  0  0  0
   -1.8455    1.8806  -42.1432 H   0  0  0  0  0  0  0  0  0  0  0  0
   -2.7833    4.6461  -50.0328 H   0  0  0  0  0  0  0  0  0  0  0  0
   -0.1371    6.9094  -48.0661 H   0  0  0  0  0  0  0  0  0  0  0  0
   -4.8530    6.9945  -43.4897 H   0  0  0  0  0  0  0  0  0  0  0  0
   -4.2404    6.8501  -42.0395 H   0  0  0  0  0  0  0  0  0  0  0  0
   -4.9835    3.2487  -42.2031 H   0  0  0  0  0  0  0  0  0  0  0  0
   -4.4028    4.2367  -41.1133 H   0  0  0  0  0  0  0  0  0  0  0  0
   -6.2832    7.6478  -41.6858 H   0  0  0  0  0  0  0  0  0  0  0  0
   -6.9293    6.6867  -42.7624 H   0  0  0  0  0  0  0  0  0  0  0  0
   -7.0471    4.1454  -42.0278 H   0  0  0  0  0  0  0  0  0  0  0  0
   -6.5545    3.8620  -40.5523 H   0  0  0  0  0  0  0  0  0  0  0  0
   -7.5661    5.9320  -40.7917 H   0  0  0  0  0  0  0  0  0  0  0  0
   -6.0975    6.0182  -40.2145 H   0  0  0  0  0  0  0  0  0  0  0  0
  1 22  2  0  0  0  0
  2 24  1  0  0  0  0
  2 31  1  0  0  0  0
  3  5  1  0  0  0  0
  3 26  2  0  0  0  0
  4 23  1  0  0  0  0
  4 25  1  0  0  0  0
  4 32  1  0  0  0  0
  5 22  1  0  0  0  0
  5 23  1  0  0  0  0
  6 17  1  0  0  0  0
  6 18  1  0  0  0  0
  6 27  1  0  0  0  0
  7 25  1  0  0  0  0
  7 33  1  0  0  0  0
  7 34  1  0  0  0  0
  7 35  1  0  0  0  0
  8  9  2  0  0  0  0
  8 10  1  0  0  0  0
  8 36  1  0  0  0  0
  9 13  1  0  0  0  0
  9 37  1  0  0  0  0
 10 14  2  0  0  0  0
 10 38  1  0  0  0  0
 11 15  2  0  0  0  0
 11 24  1  0  0  0  0
 11 39  1  0  0  0  0
 12 16  1  0  0  0  0
 12 24  2  0  0  0  0
 12 40  1  0  0  0  0
 13 28  2  0  0  0  0
 13 41  1  0  0  0  0
 14 28  1  0  0  0  0
 14 42  1  0  0  0  0
 15 29  1  0  0  0  0
 15 43  1  0  0  0  0
 16 29  2  0  0  0  0
 16 44  1  0  0  0  0
 17 19  1  0  0  0  0
 17 45  1  0  0  0  0
 17 46  1  0  0  0  0
 18 20  1  0  0  0  0
 18 47  1  0  0  0  0
 18 48  1  0  0  0  0
 19 21  1  0  0  0  0
 19 49  1  0  0  0  0
 19 50  1  0  0  0  0
 20 21  1  0  0  0  0
 20 51  1  0  0  0  0
 20 52  1  0  0  0  0
 21 53  1  0  0  0  0
 21 54  1  0  0  0  0
 22 30  1  0  0  0  0
 23 27  2  0  0  0  0
 25 30  2  0  0  0  0
 26 27  1  0  0  0  0
 26 28  1  0  0  0  0
 29 30  1  0  0  0  0
M  END
> <pdb_id>
7KCF

> <uniprot_id>
P31153

> <usmiles>
O=C1N2N=C(c3ccccc3)C(N4CCCCC4)=C2NC(=C1c5ccc(O)cc5)C

$$$$
J4P_A_1102
          07212402543D 1   1.00000     0.00000     0
            
 50 52  0  0  0  0            999 V2000
  165.5530  230.9210   20.4600 F   0  0  0  0  0  0  0  0  0  0  0  0
  161.6730  228.3240   20.2680 F   0  0  0  0  0  0  0  0  0  0  0  0
  163.3530  229.8530   21.6560 F   0  0  0  0  0  0  0  0  0  0  0  0
  164.2490  229.9830    9.5630 O   0  0  0  0  0  0  0  0  0  0  0  0
  168.5340  227.6210   12.1350 O   0  0  0  0  0  0  0  0  0  0  0  0
  163.9460  227.6910   10.8270 O   0  0  0  0  0  0  0  0  0  0  0  0
  165.0840  229.6460   10.5800 N   0  0  0  0  0  0  0  0  0  0  0  0
  166.3980  226.8440   11.9880 N   0  0  0  0  0  0  0  0  0  0  0  0
  168.5960  226.2360    7.6210 C   0  0  0  0  0  0  0  0  0  0  0  0
  169.6540  225.1340    7.8450 C   0  0  0  0  0  0  0  0  0  0  0  0
  167.9140  226.3840    8.9840 C   0  0  0  0  0  0  0  0  0  0  0  0
  169.2240  224.4730    9.1530 C   0  0  0  0  0  0  0  0  0  0  0  0
  164.5840  229.8460   15.3980 C   0  0  0  0  0  0  0  0  0  0  0  0
  164.6180  227.4900   15.8460 C   0  0  0  0  0  0  0  0  0  0  0  0
  165.0200  229.5820   14.0990 C   0  0  0  0  0  0  0  0  0  0  0  0
  165.0630  227.2320   14.5380 C   0  0  0  0  0  0  0  0  0  0  0  0
  168.2280  225.3870   11.3140 C   0  0  0  0  0  0  0  0  0  0  0  0
  164.8950  229.8390   18.3490 C   0  0  0  0  0  0  0  0  0  0  0  0
  162.9090  228.4830   18.2830 C   0  0  0  0  0  0  0  0  0  0  0  0
  167.7320  226.7220   11.8780 C   0  0  0  0  0  0  0  0  0  0  0  0
  164.6840  230.1240   19.7010 C   0  0  0  0  0  0  0  0  0  0  0  0
  162.7010  228.7890   19.6330 C   0  0  0  0  0  0  0  0  0  0  0  0
  164.8130  228.4850   11.1960 C   0  0  0  0  0  0  0  0  0  0  0  0
  163.5780  229.6050   20.3340 C   0  0  0  0  0  0  0  0  0  0  0  0
  168.9020  225.7120    9.9540 C   0  0  0  0  0  0  0  0  0  0  0  0
  164.3560  228.7960   16.2840 C   0  0  0  0  0  0  0  0  0  0  0  0
  165.2660  228.2880   13.6520 C   0  0  0  0  0  0  0  0  0  0  0  0
  163.9930  229.0440   17.6170 C   0  0  0  0  0  0  0  0  0  0  0  0
  165.7720  228.1470   12.3310 C   0  0  1  0  0  0  0  0  0  0  0  0
  164.5348  230.8584    9.1732 H   0  0  0  0  0  0  0  0  0  0  0  0
  165.8517  230.2261   10.8523 H   0  0  0  0  0  0  0  0  0  0  0  0
  165.8171  226.0443   11.8364 H   0  0  0  0  0  0  0  0  0  0  0  0
  167.9365  225.9579    6.9227 H   0  0  0  0  0  0  0  0  0  0  0  0
  169.0301  227.0940    7.3465 H   0  0  0  0  0  0  0  0  0  0  0  0
  170.5681  225.5304    7.9303 H   0  0  0  0  0  0  0  0  0  0  0  0
  169.6455  224.4745    7.0934 H   0  0  0  0  0  0  0  0  0  0  0  0
  167.0297  225.9171    8.9939 H   0  0  0  0  0  0  0  0  0  0  0  0
  167.7846  227.3480    9.2163 H   0  0  0  0  0  0  0  0  0  0  0  0
  169.9646  223.9425    9.5655 H   0  0  0  0  0  0  0  0  0  0  0  0
  168.4226  223.8875    9.0308 H   0  0  0  0  0  0  0  0  0  0  0  0
  164.4352  230.7899   15.6929 H   0  0  0  0  0  0  0  0  0  0  0  0
  164.4854  226.7261   16.4775 H   0  0  0  0  0  0  0  0  0  0  0  0
  165.1599  230.3467   13.4700 H   0  0  0  0  0  0  0  0  0  0  0  0
  165.2337  226.2917   14.2436 H   0  0  0  0  0  0  0  0  0  0  0  0
  167.4597  224.7613   11.1789 H   0  0  0  0  0  0  0  0  0  0  0  0
  168.8900  224.9720   11.9381 H   0  0  0  0  0  0  0  0  0  0  0  0
  165.7043  230.2079   17.8918 H   0  0  0  0  0  0  0  0  0  0  0  0
  162.2845  227.8673   17.8025 H   0  0  0  0  0  0  0  0  0  0  0  0
  169.7170  226.2767   10.0838 H   0  0  0  0  0  0  0  0  0  0  0  0
  166.5094  228.8187   12.2598 H   0  0  0  0  0  0  0  0  0  0  0  0
  1 21  1  0  0  0  0
  2 22  1  0  0  0  0
  3 24  1  0  0  0  0
  4  7  1  0  0  0  0
  5 20  2  0  0  0  0
  6 23  2  0  0  0  0
  7 23  1  0  0  0  0
  8 20  1  0  0  0  0
  8 29  1  0  0  0  0
  9 10  1  0  0  0  0
  9 11  1  0  0  0  0
 10 12  1  0  0  0  0
 11 25  1  0  0  0  0
 12 25  1  0  0  0  0
 13 15  2  0  0  0  0
 13 26  1  0  0  0  0
 14 16  1  0  0  0  0
 14 26  2  0  0  0  0
 15 27  1  0  0  0  0
 16 27  2  0  0  0  0
 17 20  1  0  0  0  0
 17 25  1  0  0  0  0
 18 21  2  0  0  0  0
 18 28  1  0  0  0  0
 19 22  1  0  0  0  0
 19 28  2  0  0  0  0
 21 24  1  0  0  0  0
 22 24  2  0  0  0  0
 23 29  1  0  0  0  0
 26 28  1  0  0  0  0
 27 29  1  0  0  0  0
  4 30  1  0  0  0  0
  7 31  1  0  0  0  0
  8 32  1  0  0  0  0
  9 33  1  0  0  0  0
  9 34  1  0  0  0  0
 10 35  1  0  0  0  0
 10 36  1  0  0  0  0
 11 37  1  0  0  0  0
 11 38  1  0  0  0  0
 12 39  1  0  0  0  0
 12 40  1  0  0  0  0
 13 41  1  0  0  0  0
 14 42  1  0  0  0  0
 15 43  1  0  0  0  0
 16 44  1  0  0  0  0
 17 45  1  0  0  0  0
 17 46  1  0  0  0  0
 18 47  1  0  0  0  0
 19 48  1  0  0  0  0
 25 49  1  0  0  0  0
 29 50  1  0  0  0  0
M  END
> <pdb_id>
6EE6

> <uniprot_id>
O96935

> <usmiles>
Fc1c(F)cc(c2ccc(cc2)[C@@H](NC(=O)CC3CCCC3)C(=O)NO)cc1F

$$$$
J4S_A_1102
          07212402543D 1   1.00000     0.00000     0
            
 44 46  0  0  0  0            999 V2000
  161.6573  228.4401   20.3138 F   0  0  0  0  0  0  0  0  0  0  0  0
  165.6259  230.9429   20.4397 F   0  0  0  0  0  0  0  0  0  0  0  0
  163.4216  229.9404   21.6827 F   0  0  0  0  0  0  0  0  0  0  0  0
  164.3188  229.9775    9.5170 O   0  0  0  0  0  0  0  0  0  0  0  0
  168.3977  227.3934   12.3314 O   0  0  0  0  0  0  0  0  0  0  0  0
  163.9337  227.7188   10.7253 O   0  0  0  0  0  0  0  0  0  0  0  0
  165.1215  229.6367   10.6068 N   0  0  0  0  0  0  0  0  0  0  0  0
  166.2270  226.7383   12.2617 N   0  0  0  0  0  0  0  0  0  0  0  0
  166.2921  223.8700   14.0261 C   0  0  0  0  0  0  0  0  0  0  0  0
  166.8797  222.7466   13.1939 C   0  0  0  0  0  0  0  0  0  0  0  0
  164.6113  227.5704   15.8971 C   0  0  0  0  0  0  0  0  0  0  0  0
  164.5307  229.9264   15.4032 C   0  0  0  0  0  0  0  0  0  0  0  0
  165.0339  227.3164   14.5815 C   0  0  0  0  0  0  0  0  0  0  0  0
  164.9513  229.6584   14.0866 C   0  0  0  0  0  0  0  0  0  0  0  0
  167.9163  224.9992   12.3114 C   0  0  0  0  0  0  0  0  0  0  0  0
  162.9002  228.5991   18.3147 C   0  0  0  0  0  0  0  0  0  0  0  0
  164.9327  229.9013   18.3638 C   0  0  0  0  0  0  0  0  0  0  0  0
  167.5405  226.4978   12.3163 C   0  0  0  0  0  0  0  0  0  0  0  0
  162.7193  228.8956   19.6667 C   0  0  0  0  0  0  0  0  0  0  0  0
  164.7399  230.1848   19.7198 C   0  0  0  0  0  0  0  0  0  0  0  0
  164.8153  228.4702   11.1603 C   0  0  0  0  0  0  0  0  0  0  0  0
  163.6262  229.6789   20.3597 C   0  0  0  0  0  0  0  0  0  0  0  0
  166.6666  224.1228   12.5648 C   0  0  0  0  0  0  0  0  0  0  0  0
  164.3412  228.8843   16.3080 C   0  0  0  0  0  0  0  0  0  0  0  0
  165.2034  228.3594   13.6607 C   0  0  0  0  0  0  0  0  0  0  0  0
  163.9967  229.1338   17.6467 C   0  0  0  0  0  0  0  0  0  0  0  0
  165.7099  228.1169   12.3452 C   0  0  1  0  0  0  0  0  0  0  0  0
  164.6073  230.8637    9.1547 H   0  0  0  0  0  0  0  0  0  0  0  0
  165.8618  230.2200   10.9409 H   0  0  0  0  0  0  0  0  0  0  0  0
  165.5880  225.9754   12.1631 H   0  0  0  0  0  0  0  0  0  0  0  0
  166.8323  224.2839   14.7589 H   0  0  0  0  0  0  0  0  0  0  0  0
  165.3301  223.8403   14.2972 H   0  0  0  0  0  0  0  0  0  0  0  0
  166.3044  221.9768   12.9172 H   0  0  0  0  0  0  0  0  0  0  0  0
  167.8067  222.4204   13.3789 H   0  0  0  0  0  0  0  0  0  0  0  0
  164.5030  226.8135   16.5417 H   0  0  0  0  0  0  0  0  0  0  0  0
  164.3671  230.8702   15.6905 H   0  0  0  0  0  0  0  0  0  0  0  0
  165.2168  226.3753   14.2972 H   0  0  0  0  0  0  0  0  0  0  0  0
  165.0710  230.4167   13.4458 H   0  0  0  0  0  0  0  0  0  0  0  0
  168.5896  224.8270   13.0305 H   0  0  0  0  0  0  0  0  0  0  0  0
  168.3093  224.7620   11.4230 H   0  0  0  0  0  0  0  0  0  0  0  0
  162.2506  228.0105   17.8333 H   0  0  0  0  0  0  0  0  0  0  0  0
  165.7465  230.2486   17.8979 H   0  0  0  0  0  0  0  0  0  0  0  0
  165.9129  224.2106   11.9135 H   0  0  0  0  0  0  0  0  0  0  0  0
  166.5124  228.7070   12.2570 H   0  0  0  0  0  0  0  0  0  0  0  0
  1 19  1  0  0  0  0
  2 20  1  0  0  0  0
  3 22  1  0  0  0  0
  4  7  1  0  0  0  0
  5 18  2  0  0  0  0
  6 21  2  0  0  0  0
  7 21  1  0  0  0  0
  8 18  1  0  0  0  0
  8 27  1  0  0  0  0
  9 10  1  0  0  0  0
  9 23  1  0  0  0  0
 10 23  1  0  0  0  0
 11 13  2  0  0  0  0
 11 24  1  0  0  0  0
 12 14  1  0  0  0  0
 12 24  2  0  0  0  0
 13 25  1  0  0  0  0
 14 25  2  0  0  0  0
 15 18  1  0  0  0  0
 15 23  1  0  0  0  0
 16 19  2  0  0  0  0
 16 26  1  0  0  0  0
 17 20  1  0  0  0  0
 17 26  2  0  0  0  0
 19 22  1  0  0  0  0
 20 22  2  0  0  0  0
 21 27  1  0  0  0  0
 24 26  1  0  0  0  0
 25 27  1  0  0  0  0
  4 28  1  0  0  0  0
  7 29  1  0  0  0  0
  8 30  1  0  0  0  0
  9 31  1  0  0  0  0
  9 32  1  0  0  0  0
 10 33  1  0  0  0  0
 10 34  1  0  0  0  0
 11 35  1  0  0  0  0
 12 36  1  0  0  0  0
 13 37  1  0  0  0  0
 14 38  1  0  0  0  0
 15 39  1  0  0  0  0
 15 40  1  0  0  0  0
 16 41  1  0  0  0  0
 17 42  1  0  0  0  0
 23 43  1  0  0  0  0
 27 44  1  0  0  0  0
M  END
> <pdb_id>
6EE4

> <uniprot_id>
O96935

> <usmiles>
Fc1c(F)cc(c2ccc(cc2)[C@@H](NC(=O)CC3CC3)C(=O)NO)cc1F

$$$$
J4V_C_1001
          07212402553D 1   1.00000     0.00000     0
            
 56 60  0  0  0  0            999 V2000
  182.6924   33.5855  -37.0977 F   0  0  0  0  0  0  0  0  0  0  0  0
  183.7257   32.3898  -41.5042 F   0  0  0  0  0  0  0  0  0  0  0  0
  184.3683   32.5292  -38.7754 F   0  0  0  0  0  0  0  0  0  0  0  0
  176.0002   39.2943  -43.5546 O   0  0  0  0  0  0  0  0  0  0  0  0
  175.9001   38.3420  -40.9794 O   0  0  0  0  0  0  0  0  0  0  0  0
  174.5564   33.6942  -41.4436 O   0  0  0  0  0  0  0  0  0  0  0  0
  175.8582   37.8771  -43.2138 N   0  0  0  0  0  0  0  0  0  0  0  0
  174.5769   35.7772  -40.6867 N   0  0  0  0  0  0  0  0  0  0  0  0
  179.1768   34.8295  -41.8325 C   0  0  0  0  0  0  0  0  0  0  0  0
  178.4769   34.7836  -39.5452 C   0  0  0  0  0  0  0  0  0  0  0  0
  177.9211   35.3178  -42.1921 C   0  0  0  0  0  0  0  0  0  0  0  0
  177.2207   35.2763  -39.9041 C   0  0  0  0  0  0  0  0  0  0  0  0
  181.0789   34.0902  -38.7501 C   0  0  0  0  0  0  0  0  0  0  0  0
  181.6031   33.4813  -41.0215 C   0  0  0  0  0  0  0  0  0  0  0  0
  169.9801   35.6631  -38.4305 C   0  0  0  0  0  0  0  0  0  0  0  0
  172.3038   36.3808  -38.7452 C   0  0  0  0  0  0  0  0  0  0  0  0
  171.0393   35.4932  -40.6885 C   0  0  0  0  0  0  0  0  0  0  0  0
  171.8434   34.2612  -37.4808 C   0  0  0  0  0  0  0  0  0  0  0  0
  170.5147   33.4051  -39.4147 C   0  0  0  0  0  0  0  0  0  0  0  0
  182.3035   33.5710  -38.3411 C   0  0  0  0  0  0  0  0  0  0  0  0
  182.8276   32.9656  -40.5971 C   0  0  0  0  0  0  0  0  0  0  0  0
  175.8071   37.5481  -41.9114 C   0  0  0  0  0  0  0  0  0  0  0  0
  174.0733   34.5436  -40.6951 C   0  0  0  0  0  0  0  0  0  0  0  0
  183.1707   33.0147  -39.2515 C   0  0  0  0  0  0  0  0  0  0  0  0
  171.0873   35.9375  -39.2983 C   0  0  0  0  0  0  0  0  0  0  0  0
  170.4336   34.2205  -38.0990 C   0  0  2  0  0  0  0  0  0  0  0  0
  179.4675   34.5589  -40.4975 C   0  0  0  0  0  0  0  0  0  0  0  0
  176.9323   35.5376  -41.2358 C   0  0  0  0  0  0  0  0  0  0  0  0
  180.7152   34.0481  -40.0996 C   0  0  0  0  0  0  0  0  0  0  0  0
  172.8418   34.9643  -38.4472 C   0  0  1  0  0  0  0  0  0  0  0  0
  171.5221   34.0845  -40.4093 C   0  0  2  0  0  0  0  0  0  0  0  0
  175.6745   36.0507  -41.6438 C   0  0  1  0  0  0  0  0  0  0  0  0
  172.9295   34.1307  -39.7183 C   0  0  1  0  0  0  0  0  0  0  0  0
  176.0249   39.3972  -44.5490 H   0  0  0  0  0  0  0  0  0  0  0  0
  175.8011   37.1775  -43.9261 H   0  0  0  0  0  0  0  0  0  0  0  0
  174.2320   36.4819  -40.0666 H   0  0  0  0  0  0  0  0  0  0  0  0
  179.8708   34.6732  -42.5353 H   0  0  0  0  0  0  0  0  0  0  0  0
  178.6692   34.5880  -38.5835 H   0  0  0  0  0  0  0  0  0  0  0  0
  177.7270   35.5136  -43.1534 H   0  0  0  0  0  0  0  0  0  0  0  0
  176.5288   35.4409  -39.2012 H   0  0  0  0  0  0  0  0  0  0  0  0
  180.4582   34.4940  -38.0780 H   0  0  0  0  0  0  0  0  0  0  0  0
  181.3579   33.4459  -41.9903 H   0  0  0  0  0  0  0  0  0  0  0  0
  169.0975   35.6976  -38.8995 H   0  0  0  0  0  0  0  0  0  0  0  0
  169.9548   36.2593  -37.6281 H   0  0  0  0  0  0  0  0  0  0  0  0
  172.6856   37.2931  -38.5972 H   0  0  0  0  0  0  0  0  0  0  0  0
  171.6604   36.0058  -41.2813 H   0  0  0  0  0  0  0  0  0  0  0  0
  170.1161   35.5180  -41.0720 H   0  0  0  0  0  0  0  0  0  0  0  0
  172.1546   33.3265  -37.3089 H   0  0  0  0  0  0  0  0  0  0  0  0
  171.8100   34.7655  -36.6179 H   0  0  0  0  0  0  0  0  0  0  0  0
  169.6088   33.3666  -39.8363 H   0  0  0  0  0  0  0  0  0  0  0  0
  170.8268   32.4773  -39.2101 H   0  0  0  0  0  0  0  0  0  0  0  0
  169.7897   33.7921  -37.4651 H   0  0  0  0  0  0  0  0  0  0  0  0
  173.7432   35.0263  -38.0186 H   0  0  0  0  0  0  0  0  0  0  0  0
  171.5724   33.5619  -41.2603 H   0  0  0  0  0  0  0  0  0  0  0  0
  175.4361   35.6102  -42.5093 H   0  0  0  0  0  0  0  0  0  0  0  0
  173.1313   33.1952  -39.4280 H   0  0  0  0  0  0  0  0  0  0  0  0
  1 20  1  0  0  0  0
  2 21  1  0  0  0  0
  3 24  1  0  0  0  0
  4  7  1  0  0  0  0
  5 22  2  0  0  0  0
  6 23  2  0  0  0  0
  7 22  1  0  0  0  0
  8 23  1  0  0  0  0
  8 32  1  0  0  0  0
  9 11  2  0  0  0  0
  9 27  1  0  0  0  0
 10 12  1  0  0  0  0
 10 27  2  0  0  0  0
 11 28  1  0  0  0  0
 12 28  2  0  0  0  0
 13 20  1  0  0  0  0
 13 29  2  0  0  0  0
 14 21  2  0  0  0  0
 14 29  1  0  0  0  0
 15 25  1  0  0  0  0
 15 26  1  0  0  0  0
 16 25  2  0  0  0  0
 16 30  1  0  0  0  0
 17 25  1  0  0  0  0
 17 31  1  0  0  0  0
 18 26  1  0  0  0  0
 18 30  1  0  0  0  0
 19 26  1  0  0  0  0
 19 31  1  0  0  0  0
 20 24  2  0  0  0  0
 21 24  1  0  0  0  0
 22 32  1  0  0  0  0
 23 33  1  0  0  0  0
 27 29  1  0  0  0  0
 28 32  1  0  0  0  0
 30 33  1  0  0  0  0
 31 33  1  0  0  0  0
  4 34  1  0  0  0  0
  7 35  1  0  0  0  0
  8 36  1  0  0  0  0
  9 37  1  0  0  0  0
 10 38  1  0  0  0  0
 11 39  1  0  0  0  0
 12 40  1  0  0  0  0
 13 41  1  0  0  0  0
 14 42  1  0  0  0  0
 15 43  1  0  0  0  0
 15 44  1  0  0  0  0
 16 45  1  0  0  0  0
 17 46  1  0  0  0  0
 17 47  1  0  0  0  0
 18 48  1  0  0  0  0
 18 49  1  0  0  0  0
 19 50  1  0  0  0  0
 19 51  1  0  0  0  0
 26 52  1  0  0  0  0
 30 53  1  0  0  0  0
 31 54  1  0  0  0  0
 32 55  1  0  0  0  0
 33 56  1  0  0  0  0
M  END
> <pdb_id>
6EEE

> <uniprot_id>
nan

> <usmiles>
Fc1c(F)cc(c2ccc(cc2)[C@@H](NC(=O)[C@H]3[C@H]4C=C5C[C@H](C4)C[C@H]3C5)C(=O)NO)cc1F

$$$$
J4V_F_1001
          07212402553D 1   1.00000     0.00000     0
            
 56 60  0  0  0  0            999 V2000
  182.9851   33.7059  -37.0002 F   0  0  0  0  0  0  0  0  0  0  0  0
  183.8171   32.2746  -41.5227 F   0  0  0  0  0  0  0  0  0  0  0  0
  184.4818   32.5691  -38.9665 F   0  0  0  0  0  0  0  0  0  0  0  0
  175.8187   39.2607  -43.5622 O   0  0  0  0  0  0  0  0  0  0  0  0
  176.1641   38.2899  -41.0404 O   0  0  0  0  0  0  0  0  0  0  0  0
  174.0048   33.8710  -41.1141 O   0  0  0  0  0  0  0  0  0  0  0  0
  175.6942   37.7652  -43.1894 N   0  0  0  0  0  0  0  0  0  0  0  0
  174.8609   35.8338  -40.4348 N   0  0  0  0  0  0  0  0  0  0  0  0
  179.3020   34.7774  -41.7665 C   0  0  0  0  0  0  0  0  0  0  0  0
  178.5749   34.6594  -39.4799 C   0  0  0  0  0  0  0  0  0  0  0  0
  178.0514   35.2688  -42.1311 C   0  0  0  0  0  0  0  0  0  0  0  0
  177.3243   35.1518  -39.8486 C   0  0  0  0  0  0  0  0  0  0  0  0
  181.2580   34.0848  -38.7374 C   0  0  0  0  0  0  0  0  0  0  0  0
  181.6770   33.3806  -40.9961 C   0  0  0  0  0  0  0  0  0  0  0  0
  169.6657   35.7959  -38.8338 C   0  0  0  0  0  0  0  0  0  0  0  0
  171.6425   36.6077  -40.0405 C   0  0  0  0  0  0  0  0  0  0  0  0
  170.9309   34.2167  -40.2667 C   0  0  0  0  0  0  0  0  0  0  0  0
  171.7378   36.4026  -37.5601 C   0  0  0  0  0  0  0  0  0  0  0  0
  171.1043   33.9598  -37.7741 C   0  0  0  0  0  0  0  0  0  0  0  0
  182.5108   33.6054  -38.3568 C   0  0  0  0  0  0  0  0  0  0  0  0
  182.9248   32.8963  -40.6115 C   0  0  0  0  0  0  0  0  0  0  0  0
  175.9050   37.4514  -41.9052 C   0  0  0  0  0  0  0  0  0  0  0  0
  174.0131   34.7983  -40.3125 C   0  0  0  0  0  0  0  0  0  0  0  0
  183.3296   33.0137  -39.3022 C   0  0  0  0  0  0  0  0  0  0  0  0
  170.6743   35.5643  -39.7809 C   0  0  0  0  0  0  0  0  0  0  0  0
  170.5449   35.4245  -37.6171 C   0  0  3  0  0  0  0  0  0  0  0  0
  179.5733   34.4627  -40.4360 C   0  0  0  0  0  0  0  0  0  0  0  0
  177.0519   35.4535  -41.1790 C   0  0  0  0  0  0  0  0  0  0  0  0
  180.8321   33.9714  -40.0594 C   0  0  0  0  0  0  0  0  0  0  0  0
  172.5610   36.2933  -38.8783 C   0  0  1  0  0  0  0  0  0  0  0  0
  171.8983   33.8433  -39.1150 C   0  0  2  0  0  0  0  0  0  0  0  0
  175.7952   35.9538  -41.5536 C   0  0  1  0  0  0  0  0  0  0  0  0
  173.0952   34.8344  -39.0581 C   0  0  3  0  0  0  0  0  0  0  0  0
  175.6420   39.3765  -44.5396 H   0  0  0  0  0  0  0  0  0  0  0  0
  175.4682   37.0695  -43.8713 H   0  0  0  0  0  0  0  0  0  0  0  0
  174.8527   36.5483  -39.7352 H   0  0  0  0  0  0  0  0  0  0  0  0
  180.0088   34.6497  -42.4623 H   0  0  0  0  0  0  0  0  0  0  0  0
  178.7591   34.4447  -38.5208 H   0  0  0  0  0  0  0  0  0  0  0  0
  177.8685   35.4920  -43.0886 H   0  0  0  0  0  0  0  0  0  0  0  0
  176.6190   35.2889  -39.1530 H   0  0  0  0  0  0  0  0  0  0  0  0
  180.6618   34.5124  -38.0579 H   0  0  0  0  0  0  0  0  0  0  0  0
  181.3861   33.3039  -41.9498 H   0  0  0  0  0  0  0  0  0  0  0  0
  168.7151   36.0951  -38.9162 H   0  0  0  0  0  0  0  0  0  0  0  0
  171.2453   37.5233  -39.9783 H   0  0  0  0  0  0  0  0  0  0  0  0
  172.0942   36.4997  -40.9261 H   0  0  0  0  0  0  0  0  0  0  0  0
  171.3696   34.2025  -41.1653 H   0  0  0  0  0  0  0  0  0  0  0  0
  170.1099   33.6462  -40.2875 H   0  0  0  0  0  0  0  0  0  0  0  0
  172.3218   36.1714  -36.7820 H   0  0  0  0  0  0  0  0  0  0  0  0
  171.3980   37.3373  -37.4557 H   0  0  0  0  0  0  0  0  0  0  0  0
  170.3429   33.3115  -37.7808 H   0  0  0  0  0  0  0  0  0  0  0  0
  171.7125   33.7518  -37.0080 H   0  0  0  0  0  0  0  0  0  0  0  0
  170.0080   35.4946  -36.7763 H   0  0  0  0  0  0  0  0  0  0  0  0
  173.3248   36.9385  -38.8604 H   0  0  0  0  0  0  0  0  0  0  0  0
  172.2320   32.9085  -39.2364 H   0  0  0  0  0  0  0  0  0  0  0  0
  175.4484   35.4448  -42.3414 H   0  0  0  0  0  0  0  0  0  0  0  0
  173.6511   34.6057  -38.2589 H   0  0  0  0  0  0  0  0  0  0  0  0
  1 20  1  0  0  0  0
  2 21  1  0  0  0  0
  3 24  1  0  0  0  0
  4  7  1  0  0  0  0
  5 22  2  0  0  0  0
  6 23  2  0  0  0  0
  7 22  1  0  0  0  0
  8 23  1  0  0  0  0
  8 32  1  0  0  0  0
  9 11  2  0  0  0  0
  9 27  1  0  0  0  0
 10 12  1  0  0  0  0
 10 27  2  0  0  0  0
 11 28  1  0  0  0  0
 12 28  2  0  0  0  0
 13 20  1  0  0  0  0
 13 29  2  0  0  0  0
 14 21  2  0  0  0  0
 14 29  1  0  0  0  0
 15 25  2  0  0  0  0
 15 26  1  0  0  0  0
 16 25  1  0  0  0  0
 16 30  1  0  0  0  0
 17 25  1  0  0  0  0
 17 31  1  0  0  0  0
 18 26  1  0  0  0  0
 18 30  1  0  0  0  0
 19 26  1  0  0  0  0
 19 31  1  0  0  0  0
 20 24  2  0  0  0  0
 21 24  1  0  0  0  0
 22 32  1  0  0  0  0
 23 33  1  0  0  0  0
 27 29  1  0  0  0  0
 28 32  1  0  0  0  0
 30 33  1  0  0  0  0
 31 33  1  0  0  0  0
  4 34  1  0  0  0  0
  7 35  1  0  0  0  0
  8 36  1  0  0  0  0
  9 37  1  0  0  0  0
 10 38  1  0  0  0  0
 11 39  1  0  0  0  0
 12 40  1  0  0  0  0
 13 41  1  0  0  0  0
 14 42  1  0  0  0  0
 15 43  1  0  0  0  0
 16 44  1  0  0  0  0
 16 45  1  0  0  0  0
 17 46  1  0  0  0  0
 17 47  1  0  0  0  0
 18 48  1  0  0  0  0
 18 49  1  0  0  0  0
 19 50  1  0  0  0  0
 19 51  1  0  0  0  0
 26 52  1  0  0  0  0
 30 53  1  0  0  0  0
 31 54  1  0  0  0  0
 32 55  1  0  0  0  0
 33 56  1  0  0  0  0
M  END
> <pdb_id>
6EEE

> <uniprot_id>
nan

> <usmiles>
Fc1c(F)cc(c2ccc(cc2)[C@@H](NC(=O)C3[C@H]4CC5=CC(C4)C[C@H]3C5)C(=O)NO)cc1F

$$$$
J4V_K_1001
          07212402553D 1   1.00000     0.00000     0
            
 58 62  0  0  0  0            999 V2000
  182.7360   33.8133  -36.9382 F   0  0  0  0  0  0  0  0  0  0  0  0
  183.5452   32.3434  -41.2986 F   0  0  0  0  0  0  0  0  0  0  0  0
  184.3510   32.5785  -38.7636 F   0  0  0  0  0  0  0  0  0  0  0  0
  175.8212   39.3293  -43.4237 O   0  0  0  0  0  0  0  0  0  0  0  0
  176.0550   38.3209  -40.9621 O   0  0  0  0  0  0  0  0  0  0  0  0
  173.8308   33.9145  -41.1788 O   0  0  0  0  0  0  0  0  0  0  0  0
  175.7138   37.9202  -43.1837 N   0  0  0  0  0  0  0  0  0  0  0  0
  174.6948   35.9522  -40.6432 N   0  0  0  0  0  0  0  0  0  0  0  0
  179.2245   34.8682  -41.7386 C   0  0  0  0  0  0  0  0  0  0  0  0
  178.4215   34.7874  -39.4492 C   0  0  0  0  0  0  0  0  0  0  0  0
  177.9838   35.3511  -42.1553 C   0  0  0  0  0  0  0  0  0  0  0  0
  177.1846   35.2793  -39.8731 C   0  0  0  0  0  0  0  0  0  0  0  0
  181.0804   34.2127  -38.6289 C   0  0  0  0  0  0  0  0  0  0  0  0
  181.5109   33.4645  -40.8694 C   0  0  0  0  0  0  0  0  0  0  0  0
  169.4135   34.5950  -38.9032 C   0  0  0  0  0  0  0  0  0  0  0  0
  170.7982   35.3828  -40.7220 C   0  0  0  0  0  0  0  0  0  0  0  0
  171.2945   33.2480  -39.6897 C   0  0  0  0  0  0  0  0  0  0  0  0
  170.9032   36.5519  -38.5186 C   0  0  0  0  0  0  0  0  0  0  0  0
  171.4870   34.3481  -37.4298 C   0  0  0  0  0  0  0  0  0  0  0  0
  182.3118   33.7053  -38.2246 C   0  0  0  0  0  0  0  0  0  0  0  0
  182.7307   32.9545  -40.4523 C   0  0  0  0  0  0  0  0  0  0  0  0
  175.8717   37.5422  -41.9084 C   0  0  0  0  0  0  0  0  0  0  0  0
  173.8339   34.9421  -40.4946 C   0  0  0  0  0  0  0  0  0  0  0  0
  183.1331   33.0774  -39.1397 C   0  0  0  0  0  0  0  0  0  0  0  0
  170.4209   34.3579  -39.8576 C   0  0  3  0  0  0  0  0  0  0  0  0
  170.3223   35.2991  -37.8535 C   0  0  3  0  0  0  0  0  0  0  0  0
  179.4450   34.5955  -40.3816 C   0  0  0  0  0  0  0  0  0  0  0  0
  176.9613   35.5518  -41.2255 C   0  0  0  0  0  0  0  0  0  0  0  0
  180.6813   34.1015  -39.9589 C   0  0  0  0  0  0  0  0  0  0  0  0
  171.7157   36.1420  -39.7549 C   0  0  3  0  0  0  0  0  0  0  0  0
  172.2877   33.9142  -38.6745 C   0  0  3  0  0  0  0  0  0  0  0  0
  175.7326   36.0428  -41.6648 C   0  0  1  0  0  0  0  0  0  0  0  0
  172.8721   35.1943  -39.3080 C   0  0  3  0  0  0  0  0  0  0  0  0
  175.6898   39.5125  -44.3979 H   0  0  0  0  0  0  0  0  0  0  0  0
  175.5336   37.2649  -43.9174 H   0  0  0  0  0  0  0  0  0  0  0  0
  174.6218   36.7128  -39.9980 H   0  0  0  0  0  0  0  0  0  0  0  0
  179.9540   34.7171  -42.4057 H   0  0  0  0  0  0  0  0  0  0  0  0
  178.5738   34.5739  -38.4843 H   0  0  0  0  0  0  0  0  0  0  0  0
  177.8263   35.5539  -43.1217 H   0  0  0  0  0  0  0  0  0  0  0  0
  176.4562   35.4369  -39.2063 H   0  0  0  0  0  0  0  0  0  0  0  0
  180.4812   34.6579  -37.9634 H   0  0  0  0  0  0  0  0  0  0  0  0
  181.2298   33.3732  -41.8248 H   0  0  0  0  0  0  0  0  0  0  0  0
  169.0081   33.7499  -38.5547 H   0  0  0  0  0  0  0  0  0  0  0  0
  168.6908   35.1938  -39.2484 H   0  0  0  0  0  0  0  0  0  0  0  0
  170.0193   35.9351  -41.0190 H   0  0  0  0  0  0  0  0  0  0  0  0
  171.2899   35.0419  -41.5233 H   0  0  0  0  0  0  0  0  0  0  0  0
  171.7435   32.9854  -40.5437 H   0  0  0  0  0  0  0  0  0  0  0  0
  170.8289   32.4536  -39.2998 H   0  0  0  0  0  0  0  0  0  0  0  0
  171.4981   37.0281  -37.8711 H   0  0  0  0  0  0  0  0  0  0  0  0
  170.1581   37.1588  -38.7952 H   0  0  0  0  0  0  0  0  0  0  0  0
  171.1079   33.5392  -36.9805 H   0  0  0  0  0  0  0  0  0  0  0  0
  172.0934   34.8281  -36.7959 H   0  0  0  0  0  0  0  0  0  0  0  0
  169.8194   33.9020  -40.5136 H   0  0  0  0  0  0  0  0  0  0  0  0
  169.7826   35.5567  -37.0520 H   0  0  0  0  0  0  0  0  0  0  0  0
  172.0909   36.9532  -40.2034 H   0  0  0  0  0  0  0  0  0  0  0  0
  173.0172   33.2782  -38.4229 H   0  0  0  0  0  0  0  0  0  0  0  0
  175.4453   35.5754  -42.5009 H   0  0  0  0  0  0  0  0  0  0  0  0
  173.3912   35.6698  -38.5977 H   0  0  0  0  0  0  0  0  0  0  0  0
  1 20  1  0  0  0  0
  2 21  1  0  0  0  0
  3 24  1  0  0  0  0
  4  7  1  0  0  0  0
  5 22  2  0  0  0  0
  6 23  2  0  0  0  0
  7 22  1  0  0  0  0
  8 23  1  0  0  0  0
  8 32  1  0  0  0  0
  9 11  2  0  0  0  0
  9 27  1  0  0  0  0
 10 12  1  0  0  0  0
 10 27  2  0  0  0  0
 11 28  1  0  0  0  0
 12 28  2  0  0  0  0
 13 20  1  0  0  0  0
 13 29  2  0  0  0  0
 14 21  2  0  0  0  0
 14 29  1  0  0  0  0
 15 25  1  0  0  0  0
 15 26  1  0  0  0  0
 16 25  1  0  0  0  0
 16 30  1  0  0  0  0
 17 25  1  0  0  0  0
 17 31  1  0  0  0  0
 18 26  1  0  0  0  0
 18 30  1  0  0  0  0
 19 26  1  0  0  0  0
 19 31  1  0  0  0  0
 20 24  2  0  0  0  0
 21 24  1  0  0  0  0
 22 32  1  0  0  0  0
 23 33  1  0  0  0  0
 27 29  1  0  0  0  0
 28 32  1  0  0  0  0
 30 33  1  0  0  0  0
 31 33  1  0  0  0  0
  4 34  1  0  0  0  0
  7 35  1  0  0  0  0
  8 36  1  0  0  0  0
  9 37  1  0  0  0  0
 10 38  1  0  0  0  0
 11 39  1  0  0  0  0
 12 40  1  0  0  0  0
 13 41  1  0  0  0  0
 14 42  1  0  0  0  0
 15 43  1  0  0  0  0
 15 44  1  0  0  0  0
 16 45  1  0  0  0  0
 16 46  1  0  0  0  0
 17 47  1  0  0  0  0
 17 48  1  0  0  0  0
 18 49  1  0  0  0  0
 18 50  1  0  0  0  0
 19 51  1  0  0  0  0
 19 52  1  0  0  0  0
 25 53  1  0  0  0  0
 26 54  1  0  0  0  0
 30 55  1  0  0  0  0
 31 56  1  0  0  0  0
 32 57  1  0  0  0  0
 33 58  1  0  0  0  0
M  END
> <pdb_id>
6EEE

> <uniprot_id>
nan

> <usmiles>
Fc1c(F)cc(c2ccc(cc2)[C@@H](NC(=O)C3C4CC5CC3CC(C4)C5)C(=O)NO)cc1F

$$$$
J4V_L_1001
          07212402553D 1   1.00000     0.00000     0
            
 56 60  0  0  0  0            999 V2000
  182.7060   33.6920  -37.0610 F   0  0  0  0  0  0  0  0  0  0  0  0
  183.6770   32.2620  -41.3910 F   0  0  0  0  0  0  0  0  0  0  0  0
  184.3530   32.5220  -38.7680 F   0  0  0  0  0  0  0  0  0  0  0  0
  175.9760   39.3210  -43.5670 O   0  0  0  0  0  0  0  0  0  0  0  0
  175.9260   38.2740  -41.0770 O   0  0  0  0  0  0  0  0  0  0  0  0
  174.3330   33.6620  -41.2720 O   0  0  0  0  0  0  0  0  0  0  0  0
  175.9120   37.8520  -43.2960 N   0  0  0  0  0  0  0  0  0  0  0  0
  174.8140   35.7950  -40.7170 N   0  0  0  0  0  0  0  0  0  0  0  0
  179.2630   34.6950  -41.8250 C   0  0  0  0  0  0  0  0  0  0  0  0
  178.5190   34.8030  -39.5360 C   0  0  0  0  0  0  0  0  0  0  0  0
  178.0330   35.1910  -42.2460 C   0  0  0  0  0  0  0  0  0  0  0  0
  177.2910   35.2970  -39.9660 C   0  0  0  0  0  0  0  0  0  0  0  0
  181.0990   34.1110  -38.7170 C   0  0  0  0  0  0  0  0  0  0  0  0
  181.5900   33.3860  -40.9570 C   0  0  0  0  0  0  0  0  0  0  0  0
  169.6970   35.4600  -39.3460 C   0  0  0  0  0  0  0  0  0  0  0  0
  171.6860   36.2950  -40.5230 C   0  0  0  0  0  0  0  0  0  0  0  0
  171.1400   33.8960  -40.6410 C   0  0  0  0  0  0  0  0  0  0  0  0
  171.6650   36.2460  -38.0060 C   0  0  0  0  0  0  0  0  0  0  0  0
  171.1550   33.7650  -38.1230 C   0  0  0  0  0  0  0  0  0  0  0  0
  182.3250   33.6060  -38.3010 C   0  0  0  0  0  0  0  0  0  0  0  0
  182.8130   32.8840  -40.5240 C   0  0  0  0  0  0  0  0  0  0  0  0
  175.9070   37.4880  -42.0160 C   0  0  0  0  0  0  0  0  0  0  0  0
  174.1440   34.6520  -40.5630 C   0  0  0  0  0  0  0  0  0  0  0  0
  183.1730   32.9960  -39.1970 C   0  0  0  0  0  0  0  0  0  0  0  0
  170.7780   35.2280  -40.2470 C   0  0  0  0  0  0  0  0  0  0  0  0
  170.5220   35.2110  -38.0690 C   0  0  2  0  0  0  0  0  0  0  0  0
  179.5050   34.5020  -40.4680 C   0  0  0  0  0  0  0  0  0  0  0  0
  177.0510   35.4900  -41.3240 C   0  0  0  0  0  0  0  0  0  0  0  0
  180.7320   34.0020  -40.0490 C   0  0  0  0  0  0  0  0  0  0  0  0
  172.5560   36.1040  -39.2850 C   0  0  1  0  0  0  0  0  0  0  0  0
  172.0350   33.6280  -39.4190 C   0  0  2  0  0  0  0  0  0  0  0  0
  175.8180   35.9890  -41.7640 C   0  0  1  0  0  0  0  0  0  0  0  0
  173.1670   34.6810  -39.3540 C   0  0  1  0  0  0  0  0  0  0  0  0
  175.9743   39.4782  -44.5546 H   0  0  0  0  0  0  0  0  0  0  0  0
  175.8750   37.1801  -44.0357 H   0  0  0  0  0  0  0  0  0  0  0  0
  174.6223   36.5509  -40.0910 H   0  0  0  0  0  0  0  0  0  0  0  0
  179.9718   34.4776  -42.4961 H   0  0  0  0  0  0  0  0  0  0  0  0
  178.6911   34.6652  -38.5606 H   0  0  0  0  0  0  0  0  0  0  0  0
  177.8600   35.3313  -43.2209 H   0  0  0  0  0  0  0  0  0  0  0  0
  176.5792   35.5139  -39.2980 H   0  0  0  0  0  0  0  0  0  0  0  0
  180.4860   34.5499  -38.0600 H   0  0  0  0  0  0  0  0  0  0  0  0
  181.3273   33.3048  -41.9185 H   0  0  0  0  0  0  0  0  0  0  0  0
  168.9487   34.8064  -39.4595 H   0  0  0  0  0  0  0  0  0  0  0  0
  169.3373   36.3914  -39.4014 H   0  0  0  0  0  0  0  0  0  0  0  0
  171.2359   37.1877  -40.5428 H   0  0  0  0  0  0  0  0  0  0  0  0
  172.1928   36.1583  -41.3741 H   0  0  0  0  0  0  0  0  0  0  0  0
  170.8956   33.3372  -41.4335 H   0  0  0  0  0  0  0  0  0  0  0  0
  172.2207   36.0820  -37.1909 H   0  0  0  0  0  0  0  0  0  0  0  0
  171.2800   37.1681  -37.9669 H   0  0  0  0  0  0  0  0  0  0  0  0
  170.4250   33.0818  -38.1416 H   0  0  0  0  0  0  0  0  0  0  0  0
  171.7263   33.6205  -37.3150 H   0  0  0  0  0  0  0  0  0  0  0  0
  169.9375   35.2981  -37.2623 H   0  0  0  0  0  0  0  0  0  0  0  0
  173.2850   36.7884  -39.2710 H   0  0  0  0  0  0  0  0  0  0  0  0
  172.4243   32.7085  -39.4738 H   0  0  0  0  0  0  0  0  0  0  0  0
  175.5365   35.5175  -42.5997 H   0  0  0  0  0  0  0  0  0  0  0  0
  173.6948   34.5244  -38.5192 H   0  0  0  0  0  0  0  0  0  0  0  0
  1 20  1  0  0  0  0
  2 21  1  0  0  0  0
  3 24  1  0  0  0  0
  4  7  1  0  0  0  0
  5 22  2  0  0  0  0
  6 23  2  0  0  0  0
  7 22  1  0  0  0  0
  8 23  1  0  0  0  0
  8 32  1  0  0  0  0
  9 11  2  0  0  0  0
  9 27  1  0  0  0  0
 10 12  1  0  0  0  0
 10 27  2  0  0  0  0
 11 28  1  0  0  0  0
 12 28  2  0  0  0  0
 13 20  1  0  0  0  0
 13 29  2  0  0  0  0
 14 21  2  0  0  0  0
 14 29  1  0  0  0  0
 15 25  1  0  0  0  0
 15 26  1  0  0  0  0
 16 25  1  0  0  0  0
 16 30  1  0  0  0  0
 17 25  2  0  0  0  0
 17 31  1  0  0  0  0
 18 26  1  0  0  0  0
 18 30  1  0  0  0  0
 19 26  1  0  0  0  0
 19 31  1  0  0  0  0
 20 24  2  0  0  0  0
 21 24  1  0  0  0  0
 22 32  1  0  0  0  0
 23 33  1  0  0  0  0
 27 29  1  0  0  0  0
 28 32  1  0  0  0  0
 30 33  1  0  0  0  0
 31 33  1  0  0  0  0
  4 34  1  0  0  0  0
  7 35  1  0  0  0  0
  8 36  1  0  0  0  0
  9 37  1  0  0  0  0
 10 38  1  0  0  0  0
 11 39  1  0  0  0  0
 12 40  1  0  0  0  0
 13 41  1  0  0  0  0
 14 42  1  0  0  0  0
 15 43  1  0  0  0  0
 15 44  1  0  0  0  0
 16 45  1  0  0  0  0
 16 46  1  0  0  0  0
 17 47  1  0  0  0  0
 18 48  1  0  0  0  0
 18 49  1  0  0  0  0
 19 50  1  0  0  0  0
 19 51  1  0  0  0  0
 26 52  1  0  0  0  0
 30 53  1  0  0  0  0
 31 54  1  0  0  0  0
 32 55  1  0  0  0  0
 33 56  1  0  0  0  0
M  END
> <pdb_id>
6EEE

> <uniprot_id>
nan

> <usmiles>
Fc1c(F)cc(c2ccc(cc2)[C@@H](NC(=O)[C@H]3[C@H]4CC5=C[C@@H]3C[C@H](C5)C4)C(=O)NO)cc1F

$$$$
J8Z_A_1
          07192422023D 1   1.00000     0.00000     0
            
 47 49  0  0  0  0            999 V2000
   32.6234  -26.3161  -20.7028 S   0  0  0  0  0  0  0  0  0  0  0  0
   38.5062  -28.8697  -14.9817 P   0  0  0  0  0  0  0  0  0  0  0  0
   39.8071  -29.2695  -15.5522 O   0  0  0  0  0  0  0  0  0  0  0  0
   38.6284  -28.7896  -13.3782 O   0  0  0  0  0  0  0  0  0  0  0  0
   37.3293  -29.8730  -15.3803 O   0  0  0  0  0  0  0  0  0  0  0  0
   33.8224  -27.7211  -18.1301 O   0  0  0  0  0  0  0  0  0  0  0  0
   38.1448  -27.3857  -15.5531 O   0  0  0  0  0  0  0  0  0  0  0  0
   35.8340  -26.7346  -18.3031 N   0  0  0  0  0  0  0  0  0  0  0  0
   32.1363  -24.7473  -13.3155 C   0  0  0  0  0  0  0  0  0  0  0  0
   37.6407  -27.5735  -16.8798 C   0  0  0  0  0  0  0  0  0  0  0  0
   32.9313  -24.8585  -24.5208 C   0  0  0  0  0  0  0  0  0  0  0  0
   34.3259  -24.9024  -24.5753 C   0  0  0  0  0  0  0  0  0  0  0  0
   32.9129  -23.7941  -16.9286 C   0  0  0  0  0  0  0  0  0  0  0  0
   32.2823  -25.2590  -23.3770 C   0  0  0  0  0  0  0  0  0  0  0  0
   32.2430  -23.9196  -15.7081 C   0  0  0  0  0  0  0  0  0  0  0  0
   34.1947  -24.3456  -17.0892 C   0  0  0  0  0  0  0  0  0  0  0  0
   35.0718  -25.3752  -23.5390 C   0  0  0  0  0  0  0  0  0  0  0  0
   35.0617  -26.2457  -21.1685 C   0  0  0  0  0  0  0  0  0  0  0  0
   36.2054  -25.6737  -16.1961 C   0  0  0  0  0  0  0  0  0  0  0  0
   34.1260  -25.1949  -14.8289 C   0  0  0  0  0  0  0  0  0  0  0  0
   34.2879  -26.6073  -20.1239 C   0  0  0  0  0  0  0  0  0  0  0  0
   33.0292  -25.7341  -22.3212 C   0  0  0  0  0  0  0  0  0  0  0  0
   34.6408  -27.1247  -18.8011 C   0  0  0  0  0  0  0  0  0  0  0  0
   36.1936  -27.0437  -16.9256 C   0  0  1  0  0  0  0  0  0  0  0  0
   32.8525  -24.6366  -14.6646 C   0  0  0  0  0  0  0  0  0  0  0  0
   34.8151  -25.0538  -16.0366 C   0  0  0  0  0  0  0  0  0  0  0  0
   34.4479  -25.7864  -22.3464 C   0  0  0  0  0  0  0  0  0  0  0  0
   39.7331  -29.3197  -16.5482 H   0  0  0  0  0  0  0  0  0  0  0  0
   37.7476  -28.5188  -12.9898 H   0  0  0  0  0  0  0  0  0  0  0  0
   36.4742  -26.2308  -18.8830 H   0  0  0  0  0  0  0  0  0  0  0  0
   32.6957  -25.2844  -12.6842 H   0  0  0  0  0  0  0  0  0  0  0  0
   31.9931  -23.8323  -12.9381 H   0  0  0  0  0  0  0  0  0  0  0  0
   31.2525  -25.1973  -13.4432 H   0  0  0  0  0  0  0  0  0  0  0  0
   37.6525  -28.5462  -17.1117 H   0  0  0  0  0  0  0  0  0  0  0  0
   38.2068  -27.0686  -17.5315 H   0  0  0  0  0  0  0  0  0  0  0  0
   32.4073  -24.5374  -25.3097 H   0  0  0  0  0  0  0  0  0  0  0  0
   34.7902  -24.5773  -25.3992 H   0  0  0  0  0  0  0  0  0  0  0  0
   32.4788  -23.3108  -17.6888 H   0  0  0  0  0  0  0  0  0  0  0  0
   31.2858  -25.2064  -23.3124 H   0  0  0  0  0  0  0  0  0  0  0  0
   31.3422  -23.5048  -15.5795 H   0  0  0  0  0  0  0  0  0  0  0  0
   34.6741  -24.2353  -17.9598 H   0  0  0  0  0  0  0  0  0  0  0  0
   36.0665  -25.4304  -23.6255 H   0  0  0  0  0  0  0  0  0  0  0  0
   36.0580  -26.3037  -21.1055 H   0  0  0  0  0  0  0  0  0  0  0  0
   36.7756  -25.0411  -16.7202 H   0  0  0  0  0  0  0  0  0  0  0  0
   36.6003  -25.8031  -15.2865 H   0  0  0  0  0  0  0  0  0  0  0  0
   34.5466  -25.6994  -14.0748 H   0  0  0  0  0  0  0  0  0  0  0  0
   35.5491  -27.6833  -16.5068 H   0  0  0  0  0  0  0  0  0  0  0  0
  1 21  1  0  0  0  0
  1 22  1  0  0  0  0
  2  3  1  0  0  0  0
  2  4  1  0  0  0  0
  2  5  2  0  0  0  0
  2  7  1  0  0  0  0
  6 23  2  0  0  0  0
  7 10  1  0  0  0  0
  8 23  1  0  0  0  0
  8 24  1  0  0  0  0
  9 25  1  0  0  0  0
 10 24  1  0  0  0  0
 11 12  2  0  0  0  0
 11 14  1  0  0  0  0
 12 17  1  0  0  0  0
 13 15  1  0  0  0  0
 13 16  2  0  0  0  0
 14 22  2  0  0  0  0
 15 25  2  0  0  0  0
 16 26  1  0  0  0  0
 17 27  2  0  0  0  0
 18 21  2  0  0  0  0
 18 27  1  0  0  0  0
 19 24  1  0  0  0  0
 19 26  1  0  0  0  0
 20 25  1  0  0  0  0
 20 26  2  0  0  0  0
 21 23  1  0  0  0  0
 22 27  1  0  0  0  0
  3 28  1  0  0  0  0
  4 29  1  0  0  0  0
  8 30  1  0  0  0  0
  9 31  1  0  0  0  0
  9 32  1  0  0  0  0
  9 33  1  0  0  0  0
 10 34  1  0  0  0  0
 10 35  1  0  0  0  0
 11 36  1  0  0  0  0
 12 37  1  0  0  0  0
 13 38  1  0  0  0  0
 14 39  1  0  0  0  0
 15 40  1  0  0  0  0
 16 41  1  0  0  0  0
 17 42  1  0  0  0  0
 18 43  1  0  0  0  0
 19 44  1  0  0  0  0
 19 45  1  0  0  0  0
 20 46  1  0  0  0  0
 24 47  1  0  0  0  0
M  END
> <pdb_id>
3IKG

> <uniprot_id>
Q13526

> <usmiles>
S1c2c(cccc2)C=C1C(=O)N[C@@H](COP(=O)(O)O)Cc3cc(ccc3)C

$$$$
J90_A_263
          07192416293D 1   1.00000     0.00000     0
            
 33 34  0  0  0  0            999 V2000
   -5.9791    0.9915   16.9237 S   0  0  0  0  0  0  0  0  0  0  0  0
   -5.3983    1.0680   18.2951 O   0  0  0  0  0  0  0  0  0  0  0  0
   -7.4660    1.0104   16.7533 O   0  0  0  0  0  0  0  0  0  0  0  0
    0.8528    6.7663   11.7583 O   0  5  0  0  0  0  0  0  0  0  0  0
   -1.0549    5.6172   11.8365 O   0  0  0  0  0  0  0  0  0  0  0  0
    1.2652    8.6120   13.1257 O   0  0  0  0  0  0  0  0  0  0  0  0
   -5.2003   -0.2898   16.1915 N   0  0  0  0  0  0  0  0  0  0  0  0
   -0.2976    9.1440   14.7994 N   0  0  0  0  0  0  0  0  0  0  0  0
   -2.2025    7.8800   14.9707 N   0  0  0  0  0  0  0  0  0  0  0  0
   -2.7860    6.0095   13.5963 N   0  0  0  0  0  0  0  0  0  0  0  0
   -0.2340    6.4084   12.1029 N   0  3  0  0  0  0  0  0  0  0  0  0
   -1.4415    8.8765   15.3818 C   0  0  0  0  0  0  0  0  0  0  0  0
   -4.1633    6.0050   13.9150 C   0  0  0  0  0  0  0  0  0  0  0  0
   -4.0198    2.5738   15.7588 C   0  0  0  0  0  0  0  0  0  0  0  0
   -6.2756    3.4410   15.7264 C   0  0  0  0  0  0  0  0  0  0  0  0
   -3.6055    3.7450   15.0283 C   0  0  0  0  0  0  0  0  0  0  0  0
   -5.9112    4.6293   15.0277 C   0  0  0  0  0  0  0  0  0  0  0  0
   -5.3643    2.4563   16.0798 C   0  0  0  0  0  0  0  0  0  0  0  0
    0.0762    8.3377   13.7690 C   0  0  0  0  0  0  0  0  0  0  0  0
   -1.9237    7.0768   13.9303 C   0  0  0  0  0  0  0  0  0  0  0  0
   -4.5777    4.7629   14.7047 C   0  0  0  0  0  0  0  0  0  0  0  0
   -0.7029    7.2700   13.2771 C   0  0  0  0  0  0  0  0  0  0  0  0
   -5.5441   -0.4000   15.2589 H   0  0  0  0  0  0  0  0  0  0  0  0
   -4.2168   -0.1110   16.1651 H   0  0  0  0  0  0  0  0  0  0  0  0
    0.2750    9.9070   15.0993 H   0  0  0  0  0  0  0  0  0  0  0  0
   -2.4052    5.2215   13.1125 H   0  0  0  0  0  0  0  0  0  0  0  0
   -1.7429    9.4385   16.1521 H   0  0  0  0  0  0  0  0  0  0  0  0
   -4.6892    6.0349   13.0651 H   0  0  0  0  0  0  0  0  0  0  0  0
   -4.3683    6.8163   14.4626 H   0  0  0  0  0  0  0  0  0  0  0  0
   -3.3610    1.8703   16.0251 H   0  0  0  0  0  0  0  0  0  0  0  0
   -7.2356    3.3108   15.9739 H   0  0  0  0  0  0  0  0  0  0  0  0
   -2.6517    3.8522   14.7474 H   0  0  0  0  0  0  0  0  0  0  0  0
   -6.5855    5.3270   14.7856 H   0  0  0  0  0  0  0  0  0  0  0  0
  1  2  2  0  0  0  0
  1  3  2  0  0  0  0
  1  7  1  0  0  0  0
  1 18  1  0  0  0  0
  4 11  1  0  0  0  0
  5 11  2  0  0  0  0
  6 19  2  0  0  0  0
  8 12  1  0  0  0  0
  8 19  1  0  0  0  0
  9 12  2  0  0  0  0
  9 20  1  0  0  0  0
 10 13  1  0  0  0  0
 10 20  1  0  0  0  0
 11 22  1  0  0  0  0
 13 21  1  0  0  0  0
 14 16  1  0  0  0  0
 14 18  2  0  0  0  0
 15 17  2  0  0  0  0
 15 18  1  0  0  0  0
 16 21  2  0  0  0  0
 17 21  1  0  0  0  0
 19 22  1  0  0  0  0
 20 22  2  0  0  0  0
  7 23  1  0  0  0  0
  7 24  1  0  0  0  0
  8 25  1  0  0  0  0
 10 26  1  0  0  0  0
 12 27  1  0  0  0  0
 13 28  1  0  0  0  0
 13 29  1  0  0  0  0
 14 30  1  0  0  0  0
 15 31  1  0  0  0  0
 16 32  1  0  0  0  0
 17 33  1  0  0  0  0
M  CHG  2   4  -1  11   1
M  END
> <pdb_id>
3MHI

> <uniprot_id>
P00918

> <usmiles>
S(=O)(=O)(N)c1ccc(cc1)CNC=2N=CNC(=O)C2[N+]([O-])=O

$$$$
J99_A_2402
          07192418053D 1   1.00000     0.00000     0
            
 55 59  0  0  0  0            999 V2000
    8.8772   16.5074   11.9475 F   0  0  0  0  0  0  0  0  0  0  0  0
    7.5058   16.5961    5.8635 O   0  0  0  0  0  0  0  0  0  0  0  0
    4.9637   14.7207    9.1401 O   0  0  0  0  0  0  0  0  0  0  0  0
    2.9214   14.4842   10.9139 N   0  0  0  0  0  0  0  0  0  0  0  0
    2.4648   20.9101    6.5627 N   0  0  0  0  0  0  0  0  0  0  0  0
    2.0047   16.5025   10.2501 N   0  0  0  0  0  0  0  0  0  0  0  0
    3.8110   20.8390    6.6708 N   0  0  0  0  0  0  0  0  0  0  0  0
    6.2732   18.4006    6.4251 N   0  0  0  0  0  0  0  0  0  0  0  0
    4.6135   21.9599    6.1954 C   0  0  0  0  0  0  0  0  0  0  0  0
    6.0280   18.7182    5.0222 C   0  0  0  0  0  0  0  0  0  0  0  0
    6.7060   13.5393    8.0914 C   0  0  0  0  0  0  0  0  0  0  0  0
    2.0335   17.5789    9.4476 C   0  0  0  0  0  0  0  0  0  0  0  0
    5.6989   19.3075    7.4108 C   0  0  0  0  0  0  0  0  0  0  0  0
    8.7896   17.8150   10.0153 C   0  0  0  0  0  0  0  0  0  0  0  0
   -0.4387   20.5782    6.5480 C   0  0  0  0  0  0  0  0  0  0  0  0
   -0.3597   20.5102    8.0212 C   0  0  0  0  0  0  0  0  0  0  0  0
    8.3084   18.0025    8.7355 C   0  0  0  0  0  0  0  0  0  0  0  0
    7.5764   15.7400   10.1472 C   0  0  0  0  0  0  0  0  0  0  0  0
    3.9158   16.7431    8.2552 C   0  0  0  0  0  0  0  0  0  0  0  0
    8.4145   16.6893   10.6853 C   0  0  0  0  0  0  0  0  0  0  0  0
    7.0436   17.3336    6.7197 C   0  0  0  0  0  0  0  0  0  0  0  0
    2.9548   15.5515   10.0984 C   0  0  0  0  0  0  0  0  0  0  0  0
    6.0845   14.9104    8.2766 C   0  0  2  0  0  0  0  0  0  0  0  0
    3.9509   15.6535    9.1159 C   0  0  0  0  0  0  0  0  0  0  0  0
    4.2150   19.6879    7.2693 C   0  0  0  0  0  0  0  0  0  0  0  0
    2.0002   19.8349    7.1288 C   0  0  0  0  0  0  0  0  0  0  0  0
    2.9725   17.7485    8.4351 C   0  0  0  0  0  0  0  0  0  0  0  0
    0.5108   19.5988    7.1921 C   0  0  0  0  0  0  0  0  0  0  0  0
    7.4377   17.0776    8.1481 C   0  0  0  0  0  0  0  0  0  0  0  0
    7.0570   15.9275    8.8617 C   0  0  0  0  0  0  0  0  0  0  0  0
    3.0649   19.0060    7.6264 C   0  0  0  0  0  0  0  0  0  0  0  0
    3.6108   13.7653   10.8250 H   0  0  0  0  0  0  0  0  0  0  0  0
    2.2072   14.4088   11.6097 H   0  0  0  0  0  0  0  0  0  0  0  0
    5.5827   21.7616    6.3415 H   0  0  0  0  0  0  0  0  0  0  0  0
    4.4454   22.1000    5.2196 H   0  0  0  0  0  0  0  0  0  0  0  0
    4.3628   22.7866    6.6989 H   0  0  0  0  0  0  0  0  0  0  0  0
    6.4672   18.0312    4.4432 H   0  0  0  0  0  0  0  0  0  0  0  0
    5.0432   18.7204    4.8481 H   0  0  0  0  0  0  0  0  0  0  0  0
    6.4054   19.6204    4.8137 H   0  0  0  0  0  0  0  0  0  0  0  0
    7.5020   13.6125    7.4905 H   0  0  0  0  0  0  0  0  0  0  0  0
    6.9911   13.1798    8.9800 H   0  0  0  0  0  0  0  0  0  0  0  0
    6.0347   12.9216    7.6818 H   0  0  0  0  0  0  0  0  0  0  0  0
    1.3469   18.2930    9.5844 H   0  0  0  0  0  0  0  0  0  0  0  0
    6.2272   20.1558    7.3769 H   0  0  0  0  0  0  0  0  0  0  0  0
    5.8114   18.8804    8.3080 H   0  0  0  0  0  0  0  0  0  0  0  0
    9.3970   18.4867   10.4393 H   0  0  0  0  0  0  0  0  0  0  0  0
   -0.0791   21.3773    6.0661 H   0  0  0  0  0  0  0  0  0  0  0  0
   -1.2551   20.2443    6.0769 H   0  0  0  0  0  0  0  0  0  0  0  0
   -1.1228   20.1304    8.5440 H   0  0  0  0  0  0  0  0  0  0  0  0
    0.0532   21.2634    8.5333 H   0  0  0  0  0  0  0  0  0  0  0  0
    8.5864   18.8127    8.2194 H   0  0  0  0  0  0  0  0  0  0  0  0
    7.3402   14.9218   10.6713 H   0  0  0  0  0  0  0  0  0  0  0  0
    4.5718   16.8047    7.5030 H   0  0  0  0  0  0  0  0  0  0  0  0
    5.7601   15.2427    7.3910 H   0  0  0  0  0  0  0  0  0  0  0  0
    0.2256   18.6408    7.1632 H   0  0  0  0  0  0  0  0  0  0  0  0
  1 20  1  0  0  0  0
  2 21  2  0  0  0  0
  3 23  1  0  0  0  0
  3 24  1  0  0  0  0
  4 22  1  0  0  0  0
  5  7  1  0  0  0  0
  5 26  2  0  0  0  0
  6 12  1  0  0  0  0
  6 22  2  0  0  0  0
  7  9  1  0  0  0  0
  7 25  1  0  0  0  0
  8 10  1  0  0  0  0
  8 13  1  0  0  0  0
  8 21  1  0  0  0  0
 11 23  1  0  0  0  0
 12 27  2  0  0  0  0
 13 25  1  0  0  0  0
 14 17  1  0  0  0  0
 14 20  2  0  0  0  0
 15 16  1  0  0  0  0
 15 28  1  0  0  0  0
 16 28  1  0  0  0  0
 17 29  2  0  0  0  0
 18 20  1  0  0  0  0
 18 30  2  0  0  0  0
 19 24  2  0  0  0  0
 19 27  1  0  0  0  0
 21 29  1  0  0  0  0
 22 24  1  0  0  0  0
 23 30  1  0  0  0  0
 25 31  2  0  0  0  0
 26 28  1  0  0  0  0
 26 31  1  0  0  0  0
 27 31  1  0  0  0  0
 29 30  1  0  0  0  0
  4 32  1  0  0  0  0
  4 33  1  0  0  0  0
  9 34  1  0  0  0  0
  9 35  1  0  0  0  0
  9 36  1  0  0  0  0
 10 37  1  0  0  0  0
 10 38  1  0  0  0  0
 10 39  1  0  0  0  0
 11 40  1  0  0  0  0
 11 41  1  0  0  0  0
 11 42  1  0  0  0  0
 12 43  1  0  0  0  0
 13 44  1  0  0  0  0
 13 45  1  0  0  0  0
 14 46  1  0  0  0  0
 15 47  1  0  0  0  0
 15 48  1  0  0  0  0
 16 49  1  0  0  0  0
 16 50  1  0  0  0  0
 17 51  1  0  0  0  0
 18 52  1  0  0  0  0
 19 53  1  0  0  0  0
 23 54  1  0  0  0  0
 28 55  1  0  0  0  0
M  END
> <pdb_id>
4CTC

> <uniprot_id>
Q9UM73

> <usmiles>
Fc1cc2c(cc1)C(=O)N(CC=3N(N=C(C3c4cnc(N)c(O[C@@H]2C)c4)C5CC5)C)C

$$$$
J9Z_A_501
          07192422023D 1   1.00000     0.00000     0
            
 44 46  0  0  0  0            999 V2000
   32.2743  -26.4477  -20.4770 S   0  0  0  0  0  0  0  0  0  0  0  0
   38.5405  -28.7981  -15.1993 P   0  0  0  0  0  0  0  0  0  0  0  0
   37.4354  -29.8367  -15.4694 O   0  0  0  0  0  0  0  0  0  0  0  0
   38.6098  -28.6725  -13.7087 O   0  0  0  0  0  0  0  0  0  0  0  0
   39.7182  -29.1600  -15.9787 O   0  0  0  0  0  0  0  0  0  0  0  0
   33.7601  -27.3213  -17.8794 O   0  0  0  0  0  0  0  0  0  0  0  0
   37.9565  -27.3824  -15.6590 O   0  0  0  0  0  0  0  0  0  0  0  0
   35.6819  -26.3840  -18.4426 N   0  0  0  0  0  0  0  0  0  0  0  0
   32.0361  -23.9277  -15.3945 C   0  0  0  0  0  0  0  0  0  0  0  0
   32.4006  -25.1727  -24.4025 C   0  0  0  0  0  0  0  0  0  0  0  0
   32.6028  -23.7417  -16.6540 C   0  0  0  0  0  0  0  0  0  0  0  0
   32.7649  -24.6117  -14.4172 C   0  0  0  0  0  0  0  0  0  0  0  0
   33.7798  -25.0572  -24.5247 C   0  0  0  0  0  0  0  0  0  0  0  0
   31.8628  -25.6033  -23.1769 C   0  0  0  0  0  0  0  0  0  0  0  0
   33.8824  -24.2261  -16.9183 C   0  0  0  0  0  0  0  0  0  0  0  0
   34.0442  -25.0977  -14.6822 C   0  0  0  0  0  0  0  0  0  0  0  0
   34.6225  -25.3443  -23.4281 C   0  0  0  0  0  0  0  0  0  0  0  0
   34.7862  -26.1075  -21.0139 C   0  0  0  0  0  0  0  0  0  0  0  0
   37.6756  -27.1083  -17.0606 C   0  0  0  0  0  0  0  0  0  0  0  0
   36.0081  -25.3529  -16.1907 C   0  0  0  0  0  0  0  0  0  0  0  0
   32.6781  -25.9015  -22.0671 C   0  0  0  0  0  0  0  0  0  0  0  0
   33.8788  -26.4812  -19.9928 C   0  0  0  0  0  0  0  0  0  0  0  0
   34.4201  -26.7100  -18.7321 C   0  0  0  0  0  0  0  0  0  0  0  0
   34.6160  -24.9037  -15.9372 C   0  0  0  0  0  0  0  0  0  0  0  0
   34.0954  -25.7721  -22.2040 C   0  0  0  0  0  0  0  0  0  0  0  0
   36.1918  -26.6276  -17.0640 C   0  0  1  0  0  0  0  0  0  0  0  0
   36.2810  -26.1833  -19.1859 H   0  0  0  0  0  0  0  0  0  0  0  0
   31.0483  -23.5545  -15.1854 H   0  0  0  0  0  0  0  0  0  0  0  0
   31.7508  -24.9835  -25.2491 H   0  0  0  0  0  0  0  0  0  0  0  0
   32.0468  -23.2194  -17.4140 H   0  0  0  0  0  0  0  0  0  0  0  0
   32.3358  -24.7468  -13.4315 H   0  0  0  0  0  0  0  0  0  0  0  0
   34.2163  -24.7975  -25.4716 H   0  0  0  0  0  0  0  0  0  0  0  0
   30.7973  -25.7293  -23.0710 H   0  0  0  0  0  0  0  0  0  0  0  0
   34.3081  -24.0887  -17.8963 H   0  0  0  0  0  0  0  0  0  0  0  0
   34.5706  -25.6455  -13.9196 H   0  0  0  0  0  0  0  0  0  0  0  0
   35.6916  -25.3130  -23.5413 H   0  0  0  0  0  0  0  0  0  0  0  0
   35.8595  -26.1444  -20.9065 H   0  0  0  0  0  0  0  0  0  0  0  0
   38.3161  -26.3288  -17.4396 H   0  0  0  0  0  0  0  0  0  0  0  0
   37.7892  -27.9937  -17.6609 H   0  0  0  0  0  0  0  0  0  0  0  0
   36.5483  -24.5582  -16.7025 H   0  0  0  0  0  0  0  0  0  0  0  0
   36.4937  -25.5167  -15.2397 H   0  0  0  0  0  0  0  0  0  0  0  0
   35.6180  -27.4308  -16.6014 H   0  0  0  0  0  0  0  0  0  0  0  0
   37.3364  -29.9691  -16.4556 H   0  0  0  0  0  0  0  0  0  0  0  0
   39.3146  -28.0071  -13.4627 H   0  0  0  0  0  0  0  0  0  0  0  0
  1 21  1  0  0  0  0
  1 22  1  0  0  0  0
  2  3  1  0  0  0  0
  2  4  1  0  0  0  0
  2  5  2  0  0  0  0
  2  7  1  0  0  0  0
  6 23  2  0  0  0  0
  7 19  1  0  0  0  0
  8 23  1  0  0  0  0
  8 26  1  0  0  0  0
  8 27  1  0  0  0  0
  9 11  2  0  0  0  0
  9 12  1  0  0  0  0
  9 28  1  0  0  0  0
 10 13  2  0  0  0  0
 10 14  1  0  0  0  0
 10 29  1  0  0  0  0
 11 15  1  0  0  0  0
 11 30  1  0  0  0  0
 12 16  2  0  0  0  0
 12 31  1  0  0  0  0
 13 17  1  0  0  0  0
 13 32  1  0  0  0  0
 14 21  2  0  0  0  0
 14 33  1  0  0  0  0
 15 24  2  0  0  0  0
 15 34  1  0  0  0  0
 16 24  1  0  0  0  0
 16 35  1  0  0  0  0
 17 25  2  0  0  0  0
 17 36  1  0  0  0  0
 18 22  2  0  0  0  0
 18 25  1  0  0  0  0
 18 37  1  0  0  0  0
 19 26  1  0  0  0  0
 19 38  1  0  0  0  0
 19 39  1  0  0  0  0
 20 24  1  0  0  0  0
 20 26  1  0  0  0  0
 20 40  1  0  0  0  0
 20 41  1  0  0  0  0
 21 25  1  0  0  0  0
 22 23  1  0  0  0  0
 26 42  1  0  0  0  0
  3 43  1  0  0  0  0
  4 44  1  0  0  0  0
M  END
> <pdb_id>
3IKD

> <uniprot_id>
Q13526

> <usmiles>
S1c2c(cccc2)C=C1C(=O)N[C@@H](COP(=O)(O)O)Cc3ccccc3

$$$$
JAA_A_601
          07202409333D 1   1.00000     0.00000     0
            
 33 33  0  0  0  0            999 V2000
   24.9215   20.9232  146.9567 O   0  0  0  0  0  0  0  0  0  0  0  0
   23.9343   22.7366  146.4282 O   0  0  0  0  0  0  0  0  0  0  0  0
   27.5037   27.3539  147.8678 O   0  0  0  0  0  0  0  0  0  0  0  0
   25.7634   24.5501  142.0021 C   0  0  0  0  0  0  0  0  0  0  0  0
   25.9933   25.0162  143.3108 C   0  0  0  0  0  0  0  0  0  0  0  0
   27.4274   25.1976  143.6210 C   0  0  0  0  0  0  0  0  0  0  0  0
   27.6023   25.8144  144.7499 C   0  0  0  0  0  0  0  0  0  0  0  0
   26.8927   24.9872  145.7290 C   0  0  0  0  0  0  0  0  0  0  0  0
   25.7329   25.8051  148.7562 C   0  0  0  0  0  0  0  0  0  0  0  0
   25.8437   24.2457  148.6785 C   0  0  0  0  0  0  0  0  0  0  0  0
   26.2322   22.7471  147.1567 C   0  0  0  0  0  0  0  0  0  0  0  0
   24.9343   22.1285  146.8232 C   0  0  0  0  0  0  0  0  0  0  0  0
   26.9721   26.2743  147.8473 C   0  0  0  0  0  0  0  0  0  0  0  0
   26.0220   24.1481  147.4575 C   0  0  2  0  0  0  0  0  0  0  0  0
   27.2504   25.2107  147.1426 C   0  0  1  0  0  0  0  0  0  0  0  0
   25.7402   20.4470  147.2776 H   0  0  0  0  0  0  0  0  0  0  0  0
   24.8284   24.3920  141.6847 H   0  0  0  0  0  0  0  0  0  0  0  0
   26.5351   24.3773  141.3901 H   0  0  0  0  0  0  0  0  0  0  0  0
   25.2605   25.2055  143.9643 H   0  0  0  0  0  0  0  0  0  0  0  0
   27.8514   25.7330  142.8906 H   0  0  0  0  0  0  0  0  0  0  0  0
   27.8636   24.2992  143.6721 H   0  0  0  0  0  0  0  0  0  0  0  0
   27.2124   26.7345  144.7148 H   0  0  0  0  0  0  0  0  0  0  0  0
   28.5750   25.8729  144.9745 H   0  0  0  0  0  0  0  0  0  0  0  0
   27.0802   24.0289  145.5135 H   0  0  0  0  0  0  0  0  0  0  0  0
   25.9139   25.1661  145.6289 H   0  0  0  0  0  0  0  0  0  0  0  0
   25.8291   26.1297  149.6972 H   0  0  0  0  0  0  0  0  0  0  0  0
   24.8641   26.1267  148.3799 H   0  0  0  0  0  0  0  0  0  0  0  0
   25.0046   23.7907  148.9767 H   0  0  0  0  0  0  0  0  0  0  0  0
   26.6184   23.8940  149.2041 H   0  0  0  0  0  0  0  0  0  0  0  0
   26.8547   22.6608  146.3789 H   0  0  0  0  0  0  0  0  0  0  0  0
   26.6276   22.2888  147.9527 H   0  0  0  0  0  0  0  0  0  0  0  0
   25.1973   24.4592  146.9852 H   0  0  0  0  0  0  0  0  0  0  0  0
   28.1468   24.8303  147.3703 H   0  0  0  0  0  0  0  0  0  0  0  0
  1 12  1  0  0  0  0
  2 12  2  0  0  0  0
  3 13  2  0  0  0  0
  4  5  2  0  0  0  0
  5  6  1  0  0  0  0
  6  7  1  0  0  0  0
  7  8  1  0  0  0  0
  8 15  1  0  0  0  0
  9 10  1  0  0  0  0
  9 13  1  0  0  0  0
 10 14  1  0  0  0  0
 11 12  1  0  0  0  0
 11 14  1  0  0  0  0
 13 15  1  0  0  0  0
 14 15  1  0  0  0  0
  1 16  1  0  0  0  0
  4 17  1  0  0  0  0
  4 18  1  0  0  0  0
  5 19  1  0  0  0  0
  6 20  1  0  0  0  0
  6 21  1  0  0  0  0
  7 22  1  0  0  0  0
  7 23  1  0  0  0  0
  8 24  1  0  0  0  0
  8 25  1  0  0  0  0
  9 26  1  0  0  0  0
  9 27  1  0  0  0  0
 10 28  1  0  0  0  0
 10 29  1  0  0  0  0
 11 30  1  0  0  0  0
 11 31  1  0  0  0  0
 14 32  1  0  0  0  0
 15 33  1  0  0  0  0
M  END
> <pdb_id>
5ECM

> <uniprot_id>
Q9SKE2

> <usmiles>
O=C(O)C[C@@H]1[C@H](C(=O)CC1)CCCC=C

$$$$
JAA_D_601
          07202409333D 1   1.00000     0.00000     0
            
 33 33  0  0  0  0            999 V2000
   25.5140   21.2647  145.9834 O   0  0  0  0  0  0  0  0  0  0  0  0
   23.9066   22.4030  146.6584 O   0  0  0  0  0  0  0  0  0  0  0  0
   26.9431   27.0102  148.5040 O   0  0  0  0  0  0  0  0  0  0  0  0
   26.6187   26.2745  143.0461 C   0  0  0  0  0  0  0  0  0  0  0  0
   27.4891   26.3294  144.2155 C   0  0  0  0  0  0  0  0  0  0  0  0
   28.1957   25.0881  144.5842 C   0  0  0  0  0  0  0  0  0  0  0  0
   27.6919   24.4558  145.5957 C   0  0  0  0  0  0  0  0  0  0  0  0
   26.5097   25.0540  146.2522 C   0  0  0  0  0  0  0  0  0  0  0  0
   25.3233   25.4648  149.6860 C   0  0  0  0  0  0  0  0  0  0  0  0
   25.3381   23.8917  149.5010 C   0  0  0  0  0  0  0  0  0  0  0  0
   25.9456   22.3586  147.9505 C   0  0  0  0  0  0  0  0  0  0  0  0
   25.0548   21.9950  146.8153 C   0  0  0  0  0  0  0  0  0  0  0  0
   26.4225   25.9461  148.5902 C   0  0  0  0  0  0  0  0  0  0  0  0
   25.5254   23.7430  148.2496 C   0  0  2  0  0  0  0  0  0  0  0  0
   26.6139   24.9327  147.7931 C   0  0  1  0  0  0  0  0  0  0  0  0
   26.4460   20.9162  146.0835 H   0  0  0  0  0  0  0  0  0  0  0  0
   26.1998   27.1707  142.9000 H   0  0  0  0  0  0  0  0  0  0  0  0
   27.1567   26.0228  142.2416 H   0  0  0  0  0  0  0  0  0  0  0  0
   25.9028   25.5923  143.1952 H   0  0  0  0  0  0  0  0  0  0  0  0
   26.9272   26.6001  144.9971 H   0  0  0  0  0  0  0  0  0  0  0  0
   28.1810   27.0306  144.0436 H   0  0  0  0  0  0  0  0  0  0  0  0
   29.0015   24.7602  144.0911 H   0  0  0  0  0  0  0  0  0  0  0  0
   28.0869   23.5964  145.9203 H   0  0  0  0  0  0  0  0  0  0  0  0
   25.6867   24.5788  145.9411 H   0  0  0  0  0  0  0  0  0  0  0  0
   26.4507   26.0207  146.0029 H   0  0  0  0  0  0  0  0  0  0  0  0
   25.5965   25.7240  150.6124 H   0  0  0  0  0  0  0  0  0  0  0  0
   24.4205   25.8454  149.4860 H   0  0  0  0  0  0  0  0  0  0  0  0
   24.4667   23.4901  149.7825 H   0  0  0  0  0  0  0  0  0  0  0  0
   26.0814   23.4767  150.0257 H   0  0  0  0  0  0  0  0  0  0  0  0
   26.9081   22.3224  147.6816 H   0  0  0  0  0  0  0  0  0  0  0  0
   25.7960   21.7572  148.7353 H   0  0  0  0  0  0  0  0  0  0  0  0
   24.6590   23.9151  147.7809 H   0  0  0  0  0  0  0  0  0  0  0  0
   27.5275   24.5784  147.9926 H   0  0  0  0  0  0  0  0  0  0  0  0
  1 12  1  0  0  0  0
  2 12  2  0  0  0  0
  3 13  2  0  0  0  0
  4  5  1  0  0  0  0
  5  6  1  0  0  0  0
  6  7  2  0  0  0  0
  7  8  1  0  0  0  0
  8 15  1  0  0  0  0
  9 10  1  0  0  0  0
  9 13  1  0  0  0  0
 10 14  1  0  0  0  0
 11 12  1  0  0  0  0
 11 14  1  0  0  0  0
 13 15  1  0  0  0  0
 14 15  1  0  0  0  0
  1 16  1  0  0  0  0
  4 17  1  0  0  0  0
  4 18  1  0  0  0  0
  4 19  1  0  0  0  0
  5 20  1  0  0  0  0
  5 21  1  0  0  0  0
  6 22  1  0  0  0  0
  7 23  1  0  0  0  0
  8 24  1  0  0  0  0
  8 25  1  0  0  0  0
  9 26  1  0  0  0  0
  9 27  1  0  0  0  0
 10 28  1  0  0  0  0
 10 29  1  0  0  0  0
 11 30  1  0  0  0  0
 11 31  1  0  0  0  0
 14 32  1  0  0  0  0
 15 33  1  0  0  0  0
M  END
> <pdb_id>
5ECN

> <uniprot_id>
Q9SKE2

> <usmiles>
O=C(O)C[C@@H]1[C@H](C(=O)CC1)C/C=C\CC

$$$$
JAA_D_602
          07202409333D 1   1.00000     0.00000     0
            
 31 31  0  0  0  0            999 V2000
   25.6370   20.8590  146.6360 O   0  0  0  0  0  0  0  0  0  0  0  0
   24.1000   22.2830  146.9280 O   0  0  0  0  0  0  0  0  0  0  0  0
   26.8000   27.3840  148.6590 O   0  0  0  0  0  0  0  0  0  0  0  0
   25.1260   25.8860  142.4570 C   0  0  0  0  0  0  0  0  0  0  0  0
   25.6730   25.8020  143.7660 C   0  0  0  0  0  0  0  0  0  0  0  0
   27.1070   25.4650  143.8560 C   0  0  0  0  0  0  0  0  0  0  0  0
   27.6270   25.5900  145.0370 C   0  0  0  0  0  0  0  0  0  0  0  0
   26.6690   26.0810  146.0660 C   0  0  0  0  0  0  0  0  0  0  0  0
   25.3710   25.4100  149.3540 C   0  0  0  0  0  0  0  0  0  0  0  0
   25.7060   23.9620  148.8110 C   0  0  0  0  0  0  0  0  0  0  0  0
   26.4450   22.9480  147.0080 C   0  0  0  0  0  0  0  0  0  0  0  0
   25.3040   21.9960  146.8560 C   0  0  0  0  0  0  0  0  0  0  0  0
   26.4390   26.2770  148.4880 C   0  0  0  0  0  0  0  0  0  0  0  0
   25.9060   24.1720  147.5860 C   0  0  2  0  0  0  0  0  0  0  0  0
   26.8330   25.5450  147.4930 C   0  0  1  0  0  0  0  0  0  0  0  0
   26.6074   20.6246  146.5774 H   0  0  0  0  0  0  0  0  0  0  0  0
   24.1596   26.1109  142.3324 H   0  0  0  0  0  0  0  0  0  0  0  0
   25.7075   25.7202  141.6605 H   0  0  0  0  0  0  0  0  0  0  0  0
   25.1167   25.9624  144.5814 H   0  0  0  0  0  0  0  0  0  0  0  0
   27.6383   25.1626  143.0646 H   0  0  0  0  0  0  0  0  0  0  0  0
   28.5830   25.3765  145.2383 H   0  0  0  0  0  0  0  0  0  0  0  0
   25.7485   25.8398  145.7586 H   0  0  0  0  0  0  0  0  0  0  0  0
   26.7566   27.0763  146.1072 H   0  0  0  0  0  0  0  0  0  0  0  0
   25.5378   25.4874  150.3369 H   0  0  0  0  0  0  0  0  0  0  0  0
   24.4274   25.6740  149.1543 H   0  0  0  0  0  0  0  0  0  0  0  0
   24.9380   23.3368  148.9502 H   0  0  0  0  0  0  0  0  0  0  0  0
   26.5227   23.5902  149.2523 H   0  0  0  0  0  0  0  0  0  0  0  0
   26.8526   23.1405  146.1154 H   0  0  0  0  0  0  0  0  0  0  0  0
   27.1385   22.5586  147.6142 H   0  0  0  0  0  0  0  0  0  0  0  0
   25.0244   24.3602  147.1532 H   0  0  0  0  0  0  0  0  0  0  0  0
   27.7912   25.2968  147.6355 H   0  0  0  0  0  0  0  0  0  0  0  0
  1 12  1  0  0  0  0
  2 12  2  0  0  0  0
  3 13  2  0  0  0  0
  4  5  2  0  0  0  0
  5  6  1  0  0  0  0
  6  7  2  0  0  0  0
  7  8  1  0  0  0  0
  8 15  1  0  0  0  0
  9 10  1  0  0  0  0
  9 13  1  0  0  0  0
 10 14  1  0  0  0  0
 11 12  1  0  0  0  0
 11 14  1  0  0  0  0
 13 15  1  0  0  0  0
 14 15  1  0  0  0  0
  1 16  1  0  0  0  0
  4 17  1  0  0  0  0
  4 18  1  0  0  0  0
  5 19  1  0  0  0  0
  6 20  1  0  0  0  0
  7 21  1  0  0  0  0
  8 22  1  0  0  0  0
  8 23  1  0  0  0  0
  9 24  1  0  0  0  0
  9 25  1  0  0  0  0
 10 26  1  0  0  0  0
 10 27  1  0  0  0  0
 11 28  1  0  0  0  0
 11 29  1  0  0  0  0
 14 30  1  0  0  0  0
 15 31  1  0  0  0  0
M  END
> <pdb_id>
5ECK

> <uniprot_id>
Q9SKE2

> <usmiles>
O=C(O)C[C@@H]1[C@H](C(=O)CC1)C/C=C\C=C

$$$$
JAD_A_1001
          07202400533D 1   1.00000     0.00000     0
            
 37 39  0  0  0  0            999 V2000
   23.4818    5.0681    4.2129 Cl  0  0  0  0  0  0  0  0  0  0  0  0
   30.7940   -1.5763    3.5166 O   0  0  0  0  0  0  0  0  0  0  0  0
   29.1594    1.6832    5.8372 O   0  0  0  0  0  0  0  0  0  0  0  0
   25.5136    7.9543    3.8038 N   0  0  0  0  0  0  0  0  0  0  0  0
   26.8406    0.4232    4.0188 N   0  0  0  0  0  0  0  0  0  0  0  0
   27.5070   -0.6792    4.3869 N   0  0  0  0  0  0  0  0  0  0  0  0
   30.5427    1.8203    6.1459 C   0  0  0  0  0  0  0  0  0  0  0  0
   24.4853    2.2290    4.3877 C   0  0  0  0  0  0  0  0  0  0  0  0
   25.8072    6.8337    3.8418 C   0  0  0  0  0  0  0  0  0  0  0  0
   27.3511   -1.7654    3.4059 C   0  0  0  0  0  0  0  0  0  0  0  0
   28.5967   -1.7716    2.5273 C   0  0  0  0  0  0  0  0  0  0  0  0
   27.4976    5.2633    3.8368 C   0  0  0  0  0  0  0  0  0  0  0  0
   27.8787    3.9327    3.9270 C   0  0  0  0  0  0  0  0  0  0  0  0
   25.2089    4.5977    4.1009 C   0  0  0  0  0  0  0  0  0  0  0  0
   29.6043   -0.8531    3.1934 C   0  0  1  0  0  0  0  0  0  0  0  0
   28.8963    1.2106    4.5209 C   0  0  2  0  0  0  0  0  0  0  0  0
   27.4746    1.5019    4.1886 C   0  0  0  0  0  0  0  0  0  0  0  0
   28.9272   -0.2998    4.4435 C   0  0  1  0  0  0  0  0  0  0  0  0
   26.1547    5.5973    3.9242 C   0  0  0  0  0  0  0  0  0  0  0  0
   25.5820    3.2541    4.1951 C   0  0  0  0  0  0  0  0  0  0  0  0
   26.9388    2.9121    4.1014 C   0  0  0  0  0  0  0  0  0  0  0  0
   31.4495   -0.9611    3.9546 H   0  0  0  0  0  0  0  0  0  0  0  0
   30.6436    2.1550    7.0828 H   0  0  0  0  0  0  0  0  0  0  0  0
   30.9933    0.9319    6.0589 H   0  0  0  0  0  0  0  0  0  0  0  0
   30.9627    2.4705    5.5127 H   0  0  0  0  0  0  0  0  0  0  0  0
   24.8883    1.3152    4.4388 H   0  0  0  0  0  0  0  0  0  0  0  0
   23.9922    2.4237    5.2357 H   0  0  0  0  0  0  0  0  0  0  0  0
   23.8507    2.2708    3.6160 H   0  0  0  0  0  0  0  0  0  0  0  0
   26.5386   -1.6052    2.8453 H   0  0  0  0  0  0  0  0  0  0  0  0
   27.2624   -2.6422    3.8785 H   0  0  0  0  0  0  0  0  0  0  0  0
   28.3749   -1.4341    1.6124 H   0  0  0  0  0  0  0  0  0  0  0  0
   28.9666   -2.6982    2.4601 H   0  0  0  0  0  0  0  0  0  0  0  0
   28.1866    5.9768    3.7095 H   0  0  0  0  0  0  0  0  0  0  0  0
   28.8488    3.6977    3.8660 H   0  0  0  0  0  0  0  0  0  0  0  0
   29.8292   -0.1002    2.5750 H   0  0  0  0  0  0  0  0  0  0  0  0
   29.5180    1.6225    3.8547 H   0  0  0  0  0  0  0  0  0  0  0  0
   29.3539   -0.6794    5.2644 H   0  0  0  0  0  0  0  0  0  0  0  0
  1 14  1  0  0  0  0
  2 15  1  0  0  0  0
  3  7  1  0  0  0  0
  3 16  1  0  0  0  0
  4  9  3  0  0  0  0
  5  6  1  0  0  0  0
  5 17  2  0  0  0  0
  6 10  1  0  0  0  0
  6 18  1  0  0  0  0
  8 20  1  0  0  0  0
  9 19  1  0  0  0  0
 10 11  1  0  0  0  0
 11 15  1  0  0  0  0
 12 13  1  0  0  0  0
 12 19  2  0  0  0  0
 13 21  2  0  0  0  0
 14 19  1  0  0  0  0
 14 20  2  0  0  0  0
 15 18  1  0  0  0  0
 16 17  1  0  0  0  0
 16 18  1  0  0  0  0
 17 21  1  0  0  0  0
 20 21  1  0  0  0  0
  2 22  1  0  0  0  0
  7 23  1  0  0  0  0
  7 24  1  0  0  0  0
  7 25  1  0  0  0  0
  8 26  1  0  0  0  0
  8 27  1  0  0  0  0
  8 28  1  0  0  0  0
 10 29  1  0  0  0  0
 10 30  1  0  0  0  0
 11 31  1  0  0  0  0
 11 32  1  0  0  0  0
 12 33  1  0  0  0  0
 13 34  1  0  0  0  0
 15 35  1  0  0  0  0
 16 36  1  0  0  0  0
 18 37  1  0  0  0  0
M  END
> <pdb_id>
4QL8

> <uniprot_id>
P10275

> <usmiles>
Clc1c(C#N)ccc(c1C)C2=NN3[C@H]([C@@H]2OC)[C@@H](O)CC3

$$$$
JAK_A_1201
          07202414163D 1   1.00000     0.00000     0
            
 36 39  0  0  0  0            999 V2000
   55.0794   -8.0380   28.1174 N   0  0  0  0  0  0  0  0  0  0  0  0
   49.0959  -11.2426   29.6628 N   0  0  0  0  0  0  0  0  0  0  0  0
   49.8128  -12.2159   31.7467 N   0  0  0  0  0  0  0  0  0  0  0  0
   53.2080  -11.6775   33.0831 N   0  0  0  0  0  0  0  0  0  0  0  0
   53.4968  -10.4228   31.3523 N   0  0  0  0  0  0  0  0  0  0  0  0
   55.4381  -10.6894   32.7795 C   0  0  0  0  0  0  0  0  0  0  0  0
   54.7690   -7.4948   29.4157 C   0  0  0  0  0  0  0  0  0  0  0  0
   55.2851   -9.4776   28.1449 C   0  0  0  0  0  0  0  0  0  0  0  0
   49.6340  -10.3971   28.7576 C   0  0  0  0  0  0  0  0  0  0  0  0
   50.8241  -12.3075   32.6013 C   0  0  0  0  0  0  0  0  0  0  0  0
   53.7593   -8.2229   30.2359 C   0  0  0  0  0  0  0  0  0  0  0  0
   54.4163  -10.3004   29.0526 C   0  0  0  0  0  0  0  0  0  0  0  0
   50.8744  -10.0546   29.1348 C   0  0  0  0  0  0  0  0  0  0  0  0
   54.0278  -10.9392   32.4156 C   0  0  0  0  0  0  0  0  0  0  0  0
   49.9884  -11.4505   30.6659 C   0  0  0  0  0  0  0  0  0  0  0  0
   54.2673   -9.6264   30.3960 C   0  0  0  0  0  0  0  0  0  0  0  0
   52.0202  -11.6449   32.3815 C   0  0  0  0  0  0  0  0  0  0  0  0
   52.1913  -10.8506   31.2812 C   0  0  0  0  0  0  0  0  0  0  0  0
   51.1382  -10.7304   30.3686 C   0  0  0  0  0  0  0  0  0  0  0  0
   55.9136   -7.6021   27.7795 H   0  0  0  0  0  0  0  0  0  0  0  0
   48.1850  -11.6510   29.6040 H   0  0  0  0  0  0  0  0  0  0  0  0
   55.8555  -10.0850   32.1009 H   0  0  0  0  0  0  0  0  0  0  0  0
   55.4784  -10.2572   33.6804 H   0  0  0  0  0  0  0  0  0  0  0  0
   55.9349  -11.5570   32.8035 H   0  0  0  0  0  0  0  0  0  0  0  0
   54.4305   -6.5638   29.2791 H   0  0  0  0  0  0  0  0  0  0  0  0
   55.6194   -7.4665   29.9410 H   0  0  0  0  0  0  0  0  0  0  0  0
   56.2339   -9.6365   28.4180 H   0  0  0  0  0  0  0  0  0  0  0  0
   55.1452   -9.8151   27.2141 H   0  0  0  0  0  0  0  0  0  0  0  0
   49.1757  -10.0744   27.9295 H   0  0  0  0  0  0  0  0  0  0  0  0
   50.7200  -12.8679   33.4229 H   0  0  0  0  0  0  0  0  0  0  0  0
   52.8746   -8.2274   29.7698 H   0  0  0  0  0  0  0  0  0  0  0  0
   53.6625   -7.7870   31.1306 H   0  0  0  0  0  0  0  0  0  0  0  0
   54.8332  -11.2004   29.1804 H   0  0  0  0  0  0  0  0  0  0  0  0
   53.5135  -10.4074   28.6361 H   0  0  0  0  0  0  0  0  0  0  0  0
   51.4970   -9.4430   28.6466 H   0  0  0  0  0  0  0  0  0  0  0  0
   55.1897   -9.5491   30.7745 H   0  0  0  0  0  0  0  0  0  0  0  0
  1  7  1  0  0  0  0
  1  8  1  0  0  0  0
  2  9  1  0  0  0  0
  2 15  1  0  0  0  0
  3 10  2  0  0  0  0
  3 15  1  0  0  0  0
  4 14  2  0  0  0  0
  4 17  1  0  0  0  0
  5 14  1  0  0  0  0
  5 16  1  0  0  0  0
  5 18  1  0  0  0  0
  6 14  1  0  0  0  0
  7 11  1  0  0  0  0
  8 12  1  0  0  0  0
  9 13  2  0  0  0  0
 10 17  1  0  0  0  0
 11 16  1  0  0  0  0
 12 16  1  0  0  0  0
 13 19  1  0  0  0  0
 15 19  2  0  0  0  0
 17 18  2  0  0  0  0
 18 19  1  0  0  0  0
  1 20  1  0  0  0  0
  2 21  1  0  0  0  0
  6 22  1  0  0  0  0
  6 23  1  0  0  0  0
  6 24  1  0  0  0  0
  7 25  1  0  0  0  0
  7 26  1  0  0  0  0
  8 27  1  0  0  0  0
  8 28  1  0  0  0  0
  9 29  1  0  0  0  0
 10 30  1  0  0  0  0
 11 31  1  0  0  0  0
 11 32  1  0  0  0  0
 12 33  1  0  0  0  0
 12 34  1  0  0  0  0
 13 35  1  0  0  0  0
 16 36  1  0  0  0  0
M  END
> <pdb_id>
4F09

> <uniprot_id>
O60674

> <usmiles>
n1c2NC=Cc2c3N(C(=Nc3c1)C)C4CCNCC4

$$$$
JAK_D_1201
          07212403553D 1   1.00000     0.00000     0
            
 36 39  0  0  0  0            999 V2000
   39.7331   20.4052  241.4995 N   0  0  0  0  0  0  0  0  0  0  0  0
   38.2539   21.6004  247.8906 N   0  0  0  0  0  0  0  0  0  0  0  0
   40.3541   22.7552  248.5303 N   0  0  0  0  0  0  0  0  0  0  0  0
   43.0486   23.4134  246.1331 N   0  0  0  0  0  0  0  0  0  0  0  0
   41.7646   22.4274  244.6556 N   0  0  0  0  0  0  0  0  0  0  0  0
   44.0319   23.2956  243.8491 C   0  0  0  0  0  0  0  0  0  0  0  0
   40.9646   19.7958  242.0199 C   0  0  0  0  0  0  0  0  0  0  0  0
   39.9036   21.8565  241.3737 C   0  0  0  0  0  0  0  0  0  0  0  0
   37.7765   21.0714  246.7170 C   0  0  0  0  0  0  0  0  0  0  0  0
   41.5289   23.2096  248.1300 C   0  0  0  0  0  0  0  0  0  0  0  0
   41.2830   20.3597  243.4076 C   0  0  0  0  0  0  0  0  0  0  0  0
   40.0912   22.4582  242.7721 C   0  0  0  0  0  0  0  0  0  0  0  0
   38.6853   21.2558  245.7419 C   0  0  0  0  0  0  0  0  0  0  0  0
   42.9578   23.0581  244.8857 C   0  0  0  0  0  0  0  0  0  0  0  0
   39.5014   22.1452  247.6964 C   0  0  0  0  0  0  0  0  0  0  0  0
   41.3942   21.8867  243.3344 C   0  0  0  0  0  0  0  0  0  0  0  0
   41.9310   23.0567  246.7980 C   0  0  0  0  0  0  0  0  0  0  0  0
   41.0771   22.4128  245.8626 C   0  0  0  0  0  0  0  0  0  0  0  0
   39.8372   21.9489  246.3402 C   0  0  0  0  0  0  0  0  0  0  0  0
   38.9785   20.2139  242.1271 H   0  0  0  0  0  0  0  0  0  0  0  0
   37.7642   21.5908  248.7624 H   0  0  0  0  0  0  0  0  0  0  0  0
   43.7297   22.9341  242.9671 H   0  0  0  0  0  0  0  0  0  0  0  0
   44.2035   24.2772  243.7658 H   0  0  0  0  0  0  0  0  0  0  0  0
   44.8730   22.8327  244.1286 H   0  0  0  0  0  0  0  0  0  0  0  0
   41.7219   19.9976  241.3988 H   0  0  0  0  0  0  0  0  0  0  0  0
   40.8419   18.8055  242.0852 H   0  0  0  0  0  0  0  0  0  0  0  0
   39.0929   22.2537  240.9435 H   0  0  0  0  0  0  0  0  0  0  0  0
   40.7083   22.0526  240.8133 H   0  0  0  0  0  0  0  0  0  0  0  0
   36.8915   20.6196  246.6045 H   0  0  0  0  0  0  0  0  0  0  0  0
   42.1341   23.6654  248.7827 H   0  0  0  0  0  0  0  0  0  0  0  0
   42.1496   19.9788  243.7299 H   0  0  0  0  0  0  0  0  0  0  0  0
   40.5523   20.1101  244.0430 H   0  0  0  0  0  0  0  0  0  0  0  0
   39.3232   22.2053  243.3606 H   0  0  0  0  0  0  0  0  0  0  0  0
   40.1510   23.4546  242.7120 H   0  0  0  0  0  0  0  0  0  0  0  0
   38.5945   20.9738  244.7868 H   0  0  0  0  0  0  0  0  0  0  0  0
   42.1291   22.1106  242.6942 H   0  0  0  0  0  0  0  0  0  0  0  0
  1  7  1  0  0  0  0
  1  8  1  0  0  0  0
  2  9  1  0  0  0  0
  2 15  1  0  0  0  0
  3 10  2  0  0  0  0
  3 15  1  0  0  0  0
  4 14  2  0  0  0  0
  4 17  1  0  0  0  0
  5 14  1  0  0  0  0
  5 16  1  0  0  0  0
  5 18  1  0  0  0  0
  6 14  1  0  0  0  0
  7 11  1  0  0  0  0
  8 12  1  0  0  0  0
  9 13  2  0  0  0  0
 10 17  1  0  0  0  0
 11 16  1  0  0  0  0
 12 16  1  0  0  0  0
 13 19  1  0  0  0  0
 15 19  2  0  0  0  0
 17 18  2  0  0  0  0
 18 19  1  0  0  0  0
  1 20  1  0  0  0  0
  2 21  1  0  0  0  0
  6 22  1  0  0  0  0
  6 23  1  0  0  0  0
  6 24  1  0  0  0  0
  7 25  1  0  0  0  0
  7 26  1  0  0  0  0
  8 27  1  0  0  0  0
  8 28  1  0  0  0  0
  9 29  1  0  0  0  0
 10 30  1  0  0  0  0
 11 31  1  0  0  0  0
 11 32  1  0  0  0  0
 12 33  1  0  0  0  0
 12 34  1  0  0  0  0
 13 35  1  0  0  0  0
 16 36  1  0  0  0  0
M  END
> <pdb_id>
4EHZ

> <uniprot_id>
P23458

> <usmiles>
n1c2NC=Cc2c3N(C(=Nc3c1)C)C4CCNCC4

$$$$
JAP_C_803
          07192416573D 1   1.00000     0.00000     0
            
 46 49  0  0  0  0            999 V2000
   27.2987   -6.1863   23.6181 F   0  0  0  0  0  0  0  0  0  0  0  0
   22.6476   -5.7473   24.6245 N   0  0  0  0  0  0  0  0  0  0  0  0
   18.4768   -2.5697   20.5582 N   0  0  0  0  0  0  0  0  0  0  0  0
   16.9281   -2.4488   16.7542 N   0  0  0  0  0  0  0  0  0  0  0  0
   23.0740   -4.7966   22.6170 N   0  0  0  0  0  0  0  0  0  0  0  0
   19.8248   -3.4468   18.9675 N   0  0  0  0  0  0  0  0  0  0  0  0
   21.4831   -5.7325   23.9521 N   0  0  0  0  0  0  0  0  0  0  0  0
   17.8353   -2.4785   19.3697 N   0  0  0  0  0  0  0  0  0  0  0  0
   24.9383   -5.1005   24.2534 N   0  0  0  0  0  0  0  0  0  0  0  0
   20.2016   -6.2647   24.4676 C   0  0  0  0  0  0  0  0  0  0  0  0
   19.0523   -3.6422   15.9804 C   0  0  0  0  0  0  0  0  0  0  0  0
   15.6620   -1.2676   20.1608 C   0  0  0  0  0  0  0  0  0  0  0  0
   16.1447   -1.9113   17.7240 C   0  0  0  0  0  0  0  0  0  0  0  0
   25.4235   -5.4127   25.5955 C   0  0  0  0  0  0  0  0  0  0  0  0
   25.9792   -4.4872   23.4917 C   0  0  0  0  0  0  0  0  0  0  0  0
   26.8421   -5.0033   25.6299 C   0  0  0  0  0  0  0  0  0  0  0  0
   20.6715   -3.4353   21.3069 C   0  0  0  0  0  0  0  0  0  0  0  0
   20.6645   -4.9005   21.6442 C   0  0  0  0  0  0  0  0  0  0  0  0
   23.5929   -5.1871   23.8173 C   0  0  0  0  0  0  0  0  0  0  0  0
   19.6926   -3.1903   20.2792 C   0  0  0  0  0  0  0  0  0  0  0  0
   21.7459   -5.1417   22.7380 C   0  0  0  0  0  0  0  0  0  0  0  0
   18.6348   -3.0371   18.4180 C   0  0  0  0  0  0  0  0  0  0  0  0
   27.1815   -5.0324   24.1447 C   0  0  1  0  0  0  0  0  0  0  0  0
   18.1789   -3.0631   17.0398 C   0  0  0  0  0  0  0  0  0  0  0  0
   16.5534   -1.8599   19.0702 C   0  0  0  0  0  0  0  0  0  0  0  0
   19.4866   -6.1358   23.7804 H   0  0  0  0  0  0  0  0  0  0  0  0
   20.3013   -7.2398   24.6661 H   0  0  0  0  0  0  0  0  0  0  0  0
   19.9511   -5.7781   25.3046 H   0  0  0  0  0  0  0  0  0  0  0  0
   19.8781   -4.0203   16.3989 H   0  0  0  0  0  0  0  0  0  0  0  0
   18.5589   -4.3684   15.5016 H   0  0  0  0  0  0  0  0  0  0  0  0
   19.3062   -2.9266   15.3296 H   0  0  0  0  0  0  0  0  0  0  0  0
   14.8318   -0.8944   19.7466 H   0  0  0  0  0  0  0  0  0  0  0  0
   15.4157   -1.9827   20.8149 H   0  0  0  0  0  0  0  0  0  0  0  0
   16.1551   -0.5379   20.6345 H   0  0  0  0  0  0  0  0  0  0  0  0
   15.2501   -1.5406   17.4745 H   0  0  0  0  0  0  0  0  0  0  0  0
   25.3419   -6.3934   25.7737 H   0  0  0  0  0  0  0  0  0  0  0  0
   24.9000   -4.9049   26.2797 H   0  0  0  0  0  0  0  0  0  0  0  0
   25.9451   -3.4904   23.5628 H   0  0  0  0  0  0  0  0  0  0  0  0
   25.9334   -4.7545   22.5291 H   0  0  0  0  0  0  0  0  0  0  0  0
   27.4002   -5.6515   26.1480 H   0  0  0  0  0  0  0  0  0  0  0  0
   26.9518   -4.0869   26.0149 H   0  0  0  0  0  0  0  0  0  0  0  0
   21.5779   -3.1707   20.9775 H   0  0  0  0  0  0  0  0  0  0  0  0
   20.4441   -2.9019   22.1216 H   0  0  0  0  0  0  0  0  0  0  0  0
   20.8793   -5.4384   20.8289 H   0  0  0  0  0  0  0  0  0  0  0  0
   19.7647   -5.1656   21.9909 H   0  0  0  0  0  0  0  0  0  0  0  0
   27.9826   -4.4667   23.9494 H   0  0  0  0  0  0  0  0  0  0  0  0
  1 23  1  0  0  0  0
  2  7  1  0  0  0  0
  2 19  2  0  0  0  0
  3  8  1  0  0  0  0
  3 20  2  0  0  0  0
  4 13  1  0  0  0  0
  4 24  2  0  0  0  0
  5 19  1  0  0  0  0
  5 21  2  0  0  0  0
  6 20  1  0  0  0  0
  6 22  2  0  0  0  0
  7 10  1  0  0  0  0
  7 21  1  0  0  0  0
  8 22  1  0  0  0  0
  8 25  1  0  0  0  0
  9 14  1  0  0  0  0
  9 15  1  0  0  0  0
  9 19  1  0  0  0  0
 11 24  1  0  0  0  0
 12 25  1  0  0  0  0
 13 25  2  0  0  0  0
 14 16  1  0  0  0  0
 15 23  1  0  0  0  0
 16 23  1  0  0  0  0
 17 18  1  0  0  0  0
 17 20  1  0  0  0  0
 18 21  1  0  0  0  0
 22 24  1  0  0  0  0
 10 26  1  0  0  0  0
 10 27  1  0  0  0  0
 10 28  1  0  0  0  0
 11 29  1  0  0  0  0
 11 30  1  0  0  0  0
 11 31  1  0  0  0  0
 12 32  1  0  0  0  0
 12 33  1  0  0  0  0
 12 34  1  0  0  0  0
 13 35  1  0  0  0  0
 14 36  1  0  0  0  0
 14 37  1  0  0  0  0
 15 38  1  0  0  0  0
 15 39  1  0  0  0  0
 16 40  1  0  0  0  0
 16 41  1  0  0  0  0
 17 42  1  0  0  0  0
 17 43  1  0  0  0  0
 18 44  1  0  0  0  0
 18 45  1  0  0  0  0
 23 46  1  0  0  0  0
M  END
> <pdb_id>
5SH9

> <uniprot_id>
Q9Y233

> <usmiles>
F[C@H]1CN(C2=NN(C(=N2)CCC3=NN4C(=N3)C(=NC=C4C)C)C)CC1

$$$$
JAW_B_301
          07212403353D 1   1.00000     0.00000     0
            
 20 21  0  0  0  0            999 V2000
  -19.5960   15.4865  -12.5726 O   0  0  0  0  0  0  0  0  0  0  0  0
  -17.9113   17.0400  -12.6336 N   0  0  0  0  0  0  0  0  0  0  0  0
  -23.3193   20.4764  -11.5633 N   0  0  0  0  0  0  0  0  0  0  0  0
  -24.4167   19.7025  -11.6217 C   0  0  0  0  0  0  0  0  0  0  0  0
  -24.0231   18.3872  -11.8676 C   0  0  0  0  0  0  0  0  0  0  0  0
  -20.8231   20.0269  -11.7983 C   0  0  0  0  0  0  0  0  0  0  0  0
  -19.8674   19.0403  -12.0132 C   0  0  0  0  0  0  0  0  0  0  0  0
  -21.6368   17.3831  -12.1898 C   0  0  0  0  0  0  0  0  0  0  0  0
  -19.2586   16.6548  -12.4710 C   0  0  0  0  0  0  0  0  0  0  0  0
  -22.1988   19.6937  -11.7698 C   0  0  0  0  0  0  0  0  0  0  0  0
  -20.2886   17.7233  -12.2160 C   0  0  0  0  0  0  0  0  0  0  0  0
  -22.6062   18.3971  -11.9634 C   0  0  0  0  0  0  0  0  0  0  0  0
  -17.6523   18.0020  -12.5470 H   0  0  0  0  0  0  0  0  0  0  0  0
  -17.2151   16.3511  -12.8355 H   0  0  0  0  0  0  0  0  0  0  0  0
  -23.3142   21.4624  -11.3969 H   0  0  0  0  0  0  0  0  0  0  0  0
  -25.3589   20.0175  -11.5077 H   0  0  0  0  0  0  0  0  0  0  0  0
  -24.6223   17.5918  -11.9588 H   0  0  0  0  0  0  0  0  0  0  0  0
  -20.5377   20.9757  -11.6634 H   0  0  0  0  0  0  0  0  0  0  0  0
  -18.8940   19.2694  -12.0224 H   0  0  0  0  0  0  0  0  0  0  0  0
  -21.9211   16.4345  -12.3290 H   0  0  0  0  0  0  0  0  0  0  0  0
  1  9  2  0  0  0  0
  2  9  1  0  0  0  0
  3  4  1  0  0  0  0
  3 10  1  0  0  0  0
  4  5  2  0  0  0  0
  5 12  1  0  0  0  0
  6  7  1  0  0  0  0
  6 10  2  0  0  0  0
  7 11  2  0  0  0  0
  8 11  1  0  0  0  0
  8 12  2  0  0  0  0
  9 11  1  0  0  0  0
 10 12  1  0  0  0  0
  2 13  1  0  0  0  0
  2 14  1  0  0  0  0
  3 15  1  0  0  0  0
  4 16  1  0  0  0  0
  5 17  1  0  0  0  0
  6 18  1  0  0  0  0
  7 19  1  0  0  0  0
  8 20  1  0  0  0  0
M  END
> <pdb_id>
6QO2

> <uniprot_id>
B1MDI3

> <usmiles>
O=C(N)c1cc2c(NC=C2)cc1

$$$$
JB8_B_301
          07212403353D 1   1.00000     0.00000     0
            
 20 21  0  0  0  0            999 V2000
  -20.3065   17.1405  -12.4045 O   0  0  0  0  0  0  0  0  0  0  0  0
  -19.4103   19.4278  -12.4031 O   0  0  0  0  0  0  0  0  0  0  0  0
  -23.7731   22.2719  -10.9100 N   0  0  0  0  0  0  0  0  0  0  0  0
  -25.0738   22.2696  -10.5493 C   0  0  0  0  0  0  0  0  0  0  0  0
  -25.5619   20.9707  -10.6597 C   0  0  0  0  0  0  0  0  0  0  0  0
  -24.3292   18.7643  -11.4205 C   0  0  0  0  0  0  0  0  0  0  0  0
  -23.0860   18.2875  -11.8474 C   0  0  0  0  0  0  0  0  0  0  0  0
  -22.1220   20.5151  -11.6784 C   0  0  0  0  0  0  0  0  0  0  0  0
  -23.3855   20.9953  -11.2398 C   0  0  0  0  0  0  0  0  0  0  0  0
  -24.4724   20.1503  -11.1182 C   0  0  0  0  0  0  0  0  0  0  0  0
  -21.9963   19.1453  -11.9703 C   0  0  0  0  0  0  0  0  0  0  0  0
  -20.5361   18.5581  -12.4640 B   0  0  0  0  0  0  0  0  0  0  0  0
  -21.1811   16.6587  -12.4575 H   0  0  0  0  0  0  0  0  0  0  0  0
  -19.7195   20.3774  -12.4549 H   0  0  0  0  0  0  0  0  0  0  0  0
  -23.1824   23.0785  -10.9336 H   0  0  0  0  0  0  0  0  0  0  0  0
  -25.5987   23.0673  -10.2525 H   0  0  0  0  0  0  0  0  0  0  0  0
  -26.4928   20.6658  -10.4586 H   0  0  0  0  0  0  0  0  0  0  0  0
  -25.1066   18.1421  -11.3285 H   0  0  0  0  0  0  0  0  0  0  0  0
  -22.9782   17.3179  -12.0673 H   0  0  0  0  0  0  0  0  0  0  0  0
  -21.3432   21.1346  -11.7768 H   0  0  0  0  0  0  0  0  0  0  0  0
  1 12  1  0  0  0  0
  2 12  1  0  0  0  0
  3  4  1  0  0  0  0
  3  9  1  0  0  0  0
  4  5  2  0  0  0  0
  5 10  1  0  0  0  0
  6  7  1  0  0  0  0
  6 10  2  0  0  0  0
  7 11  2  0  0  0  0
  8  9  2  0  0  0  0
  8 11  1  0  0  0  0
  9 10  1  0  0  0  0
 11 12  1  0  0  0  0
  1 13  1  0  0  0  0
  2 14  1  0  0  0  0
  3 15  1  0  0  0  0
  4 16  1  0  0  0  0
  5 17  1  0  0  0  0
  6 18  1  0  0  0  0
  7 19  1  0  0  0  0
  8 20  1  0  0  0  0
M  END
> <pdb_id>
6QOU

> <uniprot_id>
B1MDI3

> <usmiles>
OB(O)c1cc2NC=Cc2cc1

$$$$
JBA_A_301
          07202407423D 1   1.00000     0.00000     0
            
 50 52  0  0  0  0            999 V2000
   24.7743  -10.4178  -10.4326 S   0  0  0  0  0  0  0  0  0  0  0  0
   25.9848  -11.0867  -10.8112 O   0  0  0  0  0  0  0  0  0  0  0  0
   24.5485   -9.0908  -10.9214 O   0  0  0  0  0  0  0  0  0  0  0  0
   28.3019  -12.3079   -5.1882 O   0  0  0  0  0  0  0  0  0  0  0  0
   22.4047  -10.4814   -8.1213 O   0  0  0  0  0  0  0  0  0  0  0  0
   22.1103   -7.9851   -7.2104 O   0  0  0  0  0  0  0  0  0  0  0  0
   26.4422  -11.3725   -5.9996 O   0  0  0  0  0  0  0  0  0  0  0  0
   23.3533   -8.5528   -7.4498 N   0  0  0  0  0  0  0  0  0  0  0  0
   26.3753  -13.5475   -5.5417 N   0  0  0  0  0  0  0  0  0  0  0  0
   23.4092  -11.4158  -10.9021 C   0  0  0  0  0  0  0  0  0  0  0  0
   25.9373   -9.3467   -8.3121 C   0  0  0  0  0  0  0  0  0  0  0  0
   27.9391  -18.7089   -3.7993 C   0  0  0  0  0  0  0  0  0  0  0  0
   28.3131  -19.7749   -3.4308 C   0  0  0  0  0  0  0  0  0  0  0  0
   25.8343  -15.7504   -4.6114 C   0  0  0  0  0  0  0  0  0  0  0  0
   28.1030  -15.2843   -5.2516 C   0  0  0  0  0  0  0  0  0  0  0  0
   26.2209  -17.0026   -4.1589 C   0  0  0  0  0  0  0  0  0  0  0  0
   28.4890  -16.5323   -4.7970 C   0  0  0  0  0  0  0  0  0  0  0  0
   25.0278  -13.2665   -6.0382 C   0  0  0  0  0  0  0  0  0  0  0  0
   29.7474  -21.0111   -1.8480 C   0  0  0  0  0  0  0  0  0  0  0  0
   28.3823  -21.5309   -1.7206 C   0  0  0  0  0  0  0  0  0  0  0  0
   25.0829  -11.6861   -7.9871 C   0  0  0  0  0  0  0  0  0  0  0  0
   27.1445  -12.4227   -5.5158 C   0  0  0  0  0  0  0  0  0  0  0  0
   23.4222   -9.8081   -8.0612 C   0  0  0  0  0  0  0  0  0  0  0  0
   26.7724  -14.8694   -5.1455 C   0  0  0  0  0  0  0  0  0  0  0  0
   27.5472  -17.4030   -4.2461 C   0  0  0  0  0  0  0  0  0  0  0  0
   25.1354  -11.8108   -6.4813 C   0  0  2  0  0  0  0  0  0  0  0  0
   28.8606  -21.0361   -2.9702 C   0  0  0  0  0  0  0  0  0  0  0  0
   24.7820  -10.3072   -8.5901 C   0  0  2  0  0  0  0  0  0  0  0  0
   22.0210   -8.0349   -6.2234 H   0  0  0  0  0  0  0  0  0  0  0  0
   23.9457   -7.7706   -7.7079 H   0  0  0  0  0  0  0  0  0  0  0  0
   22.4179  -11.0296  -10.6711 H   0  0  0  0  0  0  0  0  0  0  0  0
   23.4050  -12.4293  -10.5048 H   0  0  0  0  0  0  0  0  0  0  0  0
   23.3567  -11.5634  -11.9793 H   0  0  0  0  0  0  0  0  0  0  0  0
   25.8225   -8.3750   -8.7909 H   0  0  0  0  0  0  0  0  0  0  0  0
   26.9060   -9.7316   -8.6249 H   0  0  0  0  0  0  0  0  0  0  0  0
   26.0075   -9.1519   -7.2458 H   0  0  0  0  0  0  0  0  0  0  0  0
   24.7821  -15.4877   -4.5190 H   0  0  0  0  0  0  0  0  0  0  0  0
   28.8534  -14.6766   -5.7503 H   0  0  0  0  0  0  0  0  0  0  0  0
   25.4929  -17.6724   -3.7030 H   0  0  0  0  0  0  0  0  0  0  0  0
   29.5290  -16.8403   -4.8855 H   0  0  0  0  0  0  0  0  0  0  0  0
   24.7293  -13.9610   -6.8185 H   0  0  0  0  0  0  0  0  0  0  0  0
   24.2694  -13.4046   -5.2705 H   0  0  0  0  0  0  0  0  0  0  0  0
   30.6016  -21.6844   -1.8113 H   0  0  0  0  0  0  0  0  0  0  0  0
   30.0229  -20.0569   -1.4020 H   0  0  0  0  0  0  0  0  0  0  0  0
   28.2043  -22.5961   -1.5827 H   0  0  0  0  0  0  0  0  0  0  0  0
   27.6280  -20.9735   -1.1682 H   0  0  0  0  0  0  0  0  0  0  0  0
   26.0255  -12.0595   -8.3859 H   0  0  0  0  0  0  0  0  0  0  0  0
   24.3355  -12.3730   -8.3793 H   0  0  0  0  0  0  0  0  0  0  0  0
   24.4436  -11.1774   -5.9297 H   0  0  0  0  0  0  0  0  0  0  0  0
   29.0714  -21.7183   -3.7907 H   0  0  0  0  0  0  0  0  0  0  0  0
  1  2  2  0  0  0  0
  1  3  2  0  0  0  0
  1 10  1  0  0  0  0
  1 28  1  0  0  0  0
  4 22  2  0  0  0  0
  5 23  2  0  0  0  0
  6  8  1  0  0  0  0
  6 29  1  0  0  0  0
  7 22  1  0  0  0  0
  7 26  1  0  0  0  0
  8 23  1  0  0  0  0
  8 30  1  0  0  0  0
  9 18  1  0  0  0  0
  9 22  1  0  0  0  0
  9 24  1  0  0  0  0
 10 31  1  0  0  0  0
 10 32  1  0  0  0  0
 10 33  1  0  0  0  0
 11 28  1  0  0  0  0
 11 34  1  0  0  0  0
 11 35  1  0  0  0  0
 11 36  1  0  0  0  0
 12 13  3  0  0  0  0
 12 25  1  0  0  0  0
 13 27  1  0  0  0  0
 14 16  1  0  0  0  0
 14 24  2  0  0  0  0
 14 37  1  0  0  0  0
 15 17  2  0  0  0  0
 15 24  1  0  0  0  0
 15 38  1  0  0  0  0
 16 25  2  0  0  0  0
 16 39  1  0  0  0  0
 17 25  1  0  0  0  0
 17 40  1  0  0  0  0
 18 26  1  0  0  0  0
 18 41  1  0  0  0  0
 18 42  1  0  0  0  0
 19 20  1  0  0  0  0
 19 27  1  0  0  0  0
 19 43  1  0  0  0  0
 19 44  1  0  0  0  0
 20 27  1  0  0  0  0
 20 45  1  0  0  0  0
 20 46  1  0  0  0  0
 21 26  1  0  0  0  0
 21 28  1  0  0  0  0
 21 47  1  0  0  0  0
 21 48  1  0  0  0  0
 23 28  1  0  0  0  0
 26 49  1  0  0  0  0
 27 50  1  0  0  0  0
M  END
> <pdb_id>
6MAE

> <uniprot_id>
P47205

> <usmiles>
S(=O)(=O)([C@@](C(=O)NO)(C[C@@H]1OC(=O)N(c2ccc(C#CC3CC3)cc2)C1)C)C

$$$$
JBC_A_402
          07202414323D 1   1.00000     0.00000     0
            
 32 33  0  0  0  0            999 V2000
  -11.5100    0.9900   10.3110 O   0  0  0  0  0  0  0  0  0  0  0  0
  -12.6760    2.5800   11.3310 O   0  0  0  0  0  0  0  0  0  0  0  0
  -19.9570    6.6140   11.3620 O   0  0  0  0  0  0  0  0  0  0  0  0
  -21.8430    7.2160   10.2460 O   0  0  0  0  0  0  0  0  0  0  0  0
  -12.8300   -0.4550    8.7960 O   0  0  0  0  0  0  0  0  0  0  0  0
  -22.8040    5.9240    8.5990 O   0  0  0  0  0  0  0  0  0  0  0  0
  -17.1200    3.0500    9.0660 N   0  0  0  0  0  0  0  0  0  0  0  0
  -18.1760    2.8240    8.3860 N   0  0  0  0  0  0  0  0  0  0  0  0
  -15.0850    0.1750    8.1120 C   0  0  0  0  0  0  0  0  0  0  0  0
  -21.5880    4.1280    7.5750 C   0  0  0  0  0  0  0  0  0  0  0  0
  -16.1430    1.0460    8.1490 C   0  0  0  0  0  0  0  0  0  0  0  0
  -20.4320    3.4070    7.6010 C   0  0  0  0  0  0  0  0  0  0  0  0
  -14.8550    2.4010    9.6970 C   0  0  0  0  0  0  0  0  0  0  0  0
  -19.4300    4.6730    9.3860 C   0  0  0  0  0  0  0  0  0  0  0  0
  -12.5670    1.7040   10.4210 C   0  0  0  0  0  0  0  0  0  0  0  0
  -20.7950    6.5050   10.3950 C   0  0  0  0  0  0  0  0  0  0  0  0
  -13.9160    0.4000    8.8180 C   0  0  0  0  0  0  0  0  0  0  0  0
  -21.6660    5.1320    8.5130 C   0  0  0  0  0  0  0  0  0  0  0  0
  -16.0310    2.1770    8.9520 C   0  0  0  0  0  0  0  0  0  0  0  0
  -19.3460    3.6720    8.4710 C   0  0  0  0  0  0  0  0  0  0  0  0
  -13.8250    1.5020    9.5890 C   0  0  0  0  0  0  0  0  0  0  0  0
  -20.6100    5.4040    9.3820 C   0  0  0  0  0  0  0  0  0  0  0  0
  -11.4431    0.3041    9.5864 H   0  0  0  0  0  0  0  0  0  0  0  0
  -19.1585    6.0133   11.4018 H   0  0  0  0  0  0  0  0  0  0  0  0
  -12.0117   -0.2378    9.3282 H   0  0  0  0  0  0  0  0  0  0  0  0
  -22.8558    6.6523    9.2823 H   0  0  0  0  0  0  0  0  0  0  0  0
  -15.1605   -0.6522    7.5552 H   0  0  0  0  0  0  0  0  0  0  0  0
  -22.3237    3.9417    6.9238 H   0  0  0  0  0  0  0  0  0  0  0  0
  -16.9706    0.8737    7.6148 H   0  0  0  0  0  0  0  0  0  0  0  0
  -20.3446    2.6408    6.9644 H   0  0  0  0  0  0  0  0  0  0  0  0
  -14.7736    3.2001   10.2927 H   0  0  0  0  0  0  0  0  0  0  0  0
  -18.6861    4.8712   10.0242 H   0  0  0  0  0  0  0  0  0  0  0  0
  1 15  1  0  0  0  0
  2 15  2  0  0  0  0
  3 16  1  0  0  0  0
  4 16  2  0  0  0  0
  5 17  1  0  0  0  0
  6 18  1  0  0  0  0
  7  8  2  0  0  0  0
  7 19  1  0  0  0  0
  8 20  1  0  0  0  0
  9 11  1  0  0  0  0
  9 17  2  0  0  0  0
 10 12  1  0  0  0  0
 10 18  2  0  0  0  0
 11 19  2  0  0  0  0
 12 20  2  0  0  0  0
 13 19  1  0  0  0  0
 13 21  2  0  0  0  0
 14 20  1  0  0  0  0
 14 22  2  0  0  0  0
 15 21  1  0  0  0  0
 16 22  1  0  0  0  0
 17 21  1  0  0  0  0
 18 22  1  0  0  0  0
  1 23  1  0  0  0  0
  3 24  1  0  0  0  0
  5 25  1  0  0  0  0
  6 26  1  0  0  0  0
  9 27  1  0  0  0  0
 10 28  1  0  0  0  0
 11 29  1  0  0  0  0
 12 30  1  0  0  0  0
 13 31  1  0  0  0  0
 14 32  1  0  0  0  0
M  END
> <pdb_id>
7ERA

> <uniprot_id>
P30043

> <usmiles>
O=C(O)c1c(O)ccc(N=Nc2cc(c(O)cc2)C(=O)O)c1

$$$$
JBF_C_402
          07202414323D 1   1.00000     0.00000     0
            
 30 32  0  0  0  0            999 V2000
  -20.3186    2.8367    7.6005 F   0  0  0  0  0  0  0  0  0  0  0  0
  -11.0903    0.4270    9.8825 O   0  0  0  0  0  0  0  0  0  0  0  0
  -11.9041    1.8721   11.3109 O   0  0  0  0  0  0  0  0  0  0  0  0
  -17.5868    4.7590    9.9079 O   0  0  0  0  0  0  0  0  0  0  0  0
  -16.4234    4.0654    9.9377 N   0  0  0  0  0  0  0  0  0  0  0  0
  -17.8145    2.9670    8.7145 N   0  0  0  0  0  0  0  0  0  0  0  0
  -22.1975    5.8120    8.3316 C   0  0  0  0  0  0  0  0  0  0  0  0
  -21.2556    6.4442    9.1342 C   0  0  0  0  0  0  0  0  0  0  0  0
  -14.8054   -0.1439    8.0672 C   0  0  0  0  0  0  0  0  0  0  0  0
  -21.9060    4.5923    7.7889 C   0  0  0  0  0  0  0  0  0  0  0  0
  -13.5899   -0.0487    8.7551 C   0  0  0  0  0  0  0  0  0  0  0  0
  -15.7594    0.8381    8.2085 C   0  0  0  0  0  0  0  0  0  0  0  0
  -20.0294    5.8741    9.4136 C   0  0  0  0  0  0  0  0  0  0  0  0
  -14.3209    2.0430    9.7329 C   0  0  0  0  0  0  0  0  0  0  0  0
  -12.0406    1.1229   10.3030 C   0  0  0  0  0  0  0  0  0  0  0  0
  -20.6818    4.0244    8.0783 C   0  0  0  0  0  0  0  0  0  0  0  0
  -18.4171    4.0583    9.1586 C   0  0  0  0  0  0  0  0  0  0  0  0
  -16.5764    2.9827    9.2052 C   0  0  0  0  0  0  0  0  0  0  0  0
  -13.3847    1.0456    9.5881 C   0  0  0  0  0  0  0  0  0  0  0  0
  -15.5252    1.9275    9.0264 C   0  0  0  0  0  0  0  0  0  0  0  0
  -19.7704    4.6341    8.8856 C   0  0  0  0  0  0  0  0  0  0  0  0
  -11.2161   -0.1604    9.0831 H   0  0  0  0  0  0  0  0  0  0  0  0
  -23.0807    6.2457    8.1528 H   0  0  0  0  0  0  0  0  0  0  0  0
  -21.4726    7.3402    9.5216 H   0  0  0  0  0  0  0  0  0  0  0  0
  -14.9811   -0.9276    7.4715 H   0  0  0  0  0  0  0  0  0  0  0  0
  -22.5623    4.1236    7.1976 H   0  0  0  0  0  0  0  0  0  0  0  0
  -12.8859   -0.7510    8.6500 H   0  0  0  0  0  0  0  0  0  0  0  0
  -16.6269    0.7630    7.7166 H   0  0  0  0  0  0  0  0  0  0  0  0
  -19.3548    6.3474    9.9801 H   0  0  0  0  0  0  0  0  0  0  0  0
  -14.1467    2.8290   10.3261 H   0  0  0  0  0  0  0  0  0  0  0  0
  1 16  1  0  0  0  0
  2 15  1  0  0  0  0
  3 15  2  0  0  0  0
  4  5  1  0  0  0  0
  4 17  1  0  0  0  0
  5 18  2  0  0  0  0
  6 17  2  0  0  0  0
  6 18  1  0  0  0  0
  7  8  2  0  0  0  0
  7 10  1  0  0  0  0
  8 13  1  0  0  0  0
  9 11  1  0  0  0  0
  9 12  2  0  0  0  0
 10 16  2  0  0  0  0
 11 19  2  0  0  0  0
 12 20  1  0  0  0  0
 13 21  2  0  0  0  0
 14 19  1  0  0  0  0
 14 20  2  0  0  0  0
 15 19  1  0  0  0  0
 16 21  1  0  0  0  0
 17 21  1  0  0  0  0
 18 20  1  0  0  0  0
  2 22  1  0  0  0  0
  7 23  1  0  0  0  0
  8 24  1  0  0  0  0
  9 25  1  0  0  0  0
 10 26  1  0  0  0  0
 11 27  1  0  0  0  0
 12 28  1  0  0  0  0
 13 29  1  0  0  0  0
 14 30  1  0  0  0  0
M  END
> <pdb_id>
7ERB

> <uniprot_id>
P30043

> <usmiles>
Fc1c(cccc1)C=2ON=C(N2)c3cc(ccc3)C(=O)O

$$$$
JBO_A_402
          07202414323D 1   1.00000     0.00000     0
            
 32 33  0  0  0  0            999 V2000
  -22.7256    5.1606    7.9520 F   0  0  0  0  0  0  0  0  0  0  0  0
  -21.6144    5.6797    9.8082 F   0  0  0  0  0  0  0  0  0  0  0  0
  -20.9454    6.4622    7.8836 F   0  0  0  0  0  0  0  0  0  0  0  0
  -13.9793    3.1001   11.5547 O   0  0  0  0  0  0  0  0  0  0  0  0
  -15.4410    4.3937   10.4266 O   0  0  0  0  0  0  0  0  0  0  0  0
  -16.3813    0.9206    8.1057 N   0  0  0  0  0  0  0  0  0  0  0  0
  -17.2486    2.9295    9.1787 N   0  0  0  0  0  0  0  0  0  0  0  0
  -18.7290    5.1858    9.5308 C   0  0  0  0  0  0  0  0  0  0  0  0
  -15.4226    0.0247    7.8915 C   0  0  0  0  0  0  0  0  0  0  0  0
  -14.2065    0.1265    8.5516 C   0  0  0  0  0  0  0  0  0  0  0  0
  -20.4323    1.8760    7.4903 C   0  0  0  0  0  0  0  0  0  0  0  0
  -19.1332    1.8161    7.9802 C   0  0  0  0  0  0  0  0  0  0  0  0
  -13.9774    1.1912    9.4415 C   0  0  0  0  0  0  0  0  0  0  0  0
  -21.1927    3.0215    7.6664 C   0  0  0  0  0  0  0  0  0  0  0  0
  -14.7977    3.2612   10.5835 C   0  0  0  0  0  0  0  0  0  0  0  0
  -16.2094    1.9401    8.9366 C   0  0  0  0  0  0  0  0  0  0  0  0
  -18.5944    2.8894    8.6322 C   0  0  0  0  0  0  0  0  0  0  0  0
  -19.3538    4.0450    8.8121 C   0  0  0  0  0  0  0  0  0  0  0  0
  -15.0055    2.0981    9.6193 C   0  0  0  0  0  0  0  0  0  0  0  0
  -20.6408    4.0981    8.3293 C   0  0  0  0  0  0  0  0  0  0  0  0
  -21.5025    5.4048    8.5267 C   0  0  0  0  0  0  0  0  0  0  0  0
  -13.4957    2.2315   11.6622 H   0  0  0  0  0  0  0  0  0  0  0  0
  -17.0173    3.7015    9.7706 H   0  0  0  0  0  0  0  0  0  0  0  0
  -19.3813    5.9416    9.5873 H   0  0  0  0  0  0  0  0  0  0  0  0
  -18.4716    4.8980   10.4532 H   0  0  0  0  0  0  0  0  0  0  0  0
  -17.9137    5.4855    9.0354 H   0  0  0  0  0  0  0  0  0  0  0  0
  -15.5790   -0.7271    7.2508 H   0  0  0  0  0  0  0  0  0  0  0  0
  -13.4933   -0.5566    8.3946 H   0  0  0  0  0  0  0  0  0  0  0  0
  -20.8200    1.0898    7.0090 H   0  0  0  0  0  0  0  0  0  0  0  0
  -18.5911    0.9851    7.8552 H   0  0  0  0  0  0  0  0  0  0  0  0
  -13.1076    1.2881    9.9253 H   0  0  0  0  0  0  0  0  0  0  0  0
  -22.1288    3.0668    7.3176 H   0  0  0  0  0  0  0  0  0  0  0  0
  1 21  1  0  0  0  0
  2 21  1  0  0  0  0
  3 21  1  0  0  0  0
  4 15  1  0  0  0  0
  5 15  2  0  0  0  0
  6  9  1  0  0  0  0
  6 16  2  0  0  0  0
  7 16  1  0  0  0  0
  7 17  1  0  0  0  0
  8 18  1  0  0  0  0
  9 10  2  0  0  0  0
 10 13  1  0  0  0  0
 11 12  1  0  0  0  0
 11 14  2  0  0  0  0
 12 17  2  0  0  0  0
 13 19  2  0  0  0  0
 14 20  1  0  0  0  0
 15 19  1  0  0  0  0
 16 19  1  0  0  0  0
 17 18  1  0  0  0  0
 18 20  2  0  0  0  0
 20 21  1  0  0  0  0
  4 22  1  0  0  0  0
  7 23  1  0  0  0  0
  8 24  1  0  0  0  0
  8 25  1  0  0  0  0
  8 26  1  0  0  0  0
  9 27  1  0  0  0  0
 10 28  1  0  0  0  0
 11 29  1  0  0  0  0
 12 30  1  0  0  0  0
 13 31  1  0  0  0  0
 14 32  1  0  0  0  0
M  END
> <pdb_id>
7ERD

> <uniprot_id>
P30043

> <usmiles>
FC(F)(F)c1c(c(Nc2ncccc2C(=O)O)ccc1)C

$$$$
JBV_C_803
          07192416573D 1   1.00000     0.00000     0
            
 49 52  0  0  0  0            999 V2000
   27.0713   -6.6411   27.3928 F   0  0  0  0  0  0  0  0  0  0  0  0
   27.3699   -7.5672   25.4032 F   0  0  0  0  0  0  0  0  0  0  0  0
   22.7336   -5.6018   24.5812 N   0  0  0  0  0  0  0  0  0  0  0  0
   18.3617   -2.6141   20.5844 N   0  0  0  0  0  0  0  0  0  0  0  0
   17.1064   -2.5241   16.7012 N   0  0  0  0  0  0  0  0  0  0  0  0
   23.1510   -4.7899   22.4526 N   0  0  0  0  0  0  0  0  0  0  0  0
   19.7913   -3.5137   19.0335 N   0  0  0  0  0  0  0  0  0  0  0  0
   21.6072   -5.6445   23.8235 N   0  0  0  0  0  0  0  0  0  0  0  0
   17.8399   -2.5260   19.3115 N   0  0  0  0  0  0  0  0  0  0  0  0
   24.9244   -4.9187   24.1167 N   0  0  0  0  0  0  0  0  0  0  0  0
   20.3675   -6.1465   24.4002 C   0  0  0  0  0  0  0  0  0  0  0  0
   19.1447   -3.6239   16.0317 C   0  0  0  0  0  0  0  0  0  0  0  0
   15.7175   -1.3658   19.9355 C   0  0  0  0  0  0  0  0  0  0  0  0
   16.3133   -2.0167   17.6265 C   0  0  0  0  0  0  0  0  0  0  0  0
   26.0404   -5.0125   23.1875 C   0  0  0  0  0  0  0  0  0  0  0  0
   25.3115   -5.3971   25.4334 C   0  0  0  0  0  0  0  0  0  0  0  0
   20.5379   -3.5197   21.3799 C   0  0  0  0  0  0  0  0  0  0  0  0
   27.2673   -4.8261   24.0672 C   0  0  0  0  0  0  0  0  0  0  0  0
   20.8217   -5.0201   21.5538 C   0  0  0  0  0  0  0  0  0  0  0  0
   23.6228   -5.0892   23.7254 C   0  0  0  0  0  0  0  0  0  0  0  0
   27.5660   -6.4371   26.1398 C   0  0  0  0  0  0  0  0  0  0  0  0
   19.5169   -3.2036   20.3394 C   0  0  0  0  0  0  0  0  0  0  0  0
   21.8760   -5.1655   22.5983 C   0  0  0  0  0  0  0  0  0  0  0  0
   18.6998   -3.0705   18.3977 C   0  0  0  0  0  0  0  0  0  0  0  0
   18.2576   -3.0356   17.0779 C   0  0  0  0  0  0  0  0  0  0  0  0
   16.6175   -1.9675   18.9231 C   0  0  0  0  0  0  0  0  0  0  0  0
   26.8223   -5.1703   25.4972 C   0  0  2  0  0  0  0  0  0  0  0  0
   19.6416   -6.1100   23.7134 H   0  0  0  0  0  0  0  0  0  0  0  0
   20.4974   -7.0923   24.6979 H   0  0  0  0  0  0  0  0  0  0  0  0
   20.1124   -5.5820   25.1852 H   0  0  0  0  0  0  0  0  0  0  0  0
   19.9789   -3.9722   16.4594 H   0  0  0  0  0  0  0  0  0  0  0  0
   18.6675   -4.3734   15.5729 H   0  0  0  0  0  0  0  0  0  0  0  0
   19.3822   -2.9204   15.3619 H   0  0  0  0  0  0  0  0  0  0  0  0
   14.8951   -1.0177   19.4855 H   0  0  0  0  0  0  0  0  0  0  0  0
   15.4610   -2.0600   20.6080 H   0  0  0  0  0  0  0  0  0  0  0  0
   16.1892   -0.6138   20.3959 H   0  0  0  0  0  0  0  0  0  0  0  0
   15.4305   -1.6467   17.3370 H   0  0  0  0  0  0  0  0  0  0  0  0
   25.9873   -4.2937   22.4944 H   0  0  0  0  0  0  0  0  0  0  0  0
   26.0563   -5.9066   22.7400 H   0  0  0  0  0  0  0  0  0  0  0  0
   25.0958   -6.3684   25.5336 H   0  0  0  0  0  0  0  0  0  0  0  0
   24.8458   -4.8766   26.1491 H   0  0  0  0  0  0  0  0  0  0  0  0
   21.3929   -3.0667   21.1272 H   0  0  0  0  0  0  0  0  0  0  0  0
   20.2153   -3.1587   22.2548 H   0  0  0  0  0  0  0  0  0  0  0  0
   27.5867   -3.8795   24.0215 H   0  0  0  0  0  0  0  0  0  0  0  0
   28.0006   -5.4398   23.7747 H   0  0  0  0  0  0  0  0  0  0  0  0
   21.1427   -5.4082   20.6899 H   0  0  0  0  0  0  0  0  0  0  0  0
   19.9890   -5.4927   21.8425 H   0  0  0  0  0  0  0  0  0  0  0  0
   28.5462   -6.2485   26.1993 H   0  0  0  0  0  0  0  0  0  0  0  0
   26.9959   -4.3760   26.0794 H   0  0  0  0  0  0  0  0  0  0  0  0
  1 21  1  0  0  0  0
  2 21  1  0  0  0  0
  3  8  1  0  0  0  0
  3 20  2  0  0  0  0
  4  9  1  0  0  0  0
  4 22  2  0  0  0  0
  5 14  1  0  0  0  0
  5 25  2  0  0  0  0
  6 20  1  0  0  0  0
  6 23  2  0  0  0  0
  7 22  1  0  0  0  0
  7 24  2  0  0  0  0
  8 11  1  0  0  0  0
  8 23  1  0  0  0  0
  9 24  1  0  0  0  0
  9 26  1  0  0  0  0
 10 15  1  0  0  0  0
 10 16  1  0  0  0  0
 10 20  1  0  0  0  0
 12 25  1  0  0  0  0
 13 26  1  0  0  0  0
 14 26  2  0  0  0  0
 15 18  1  0  0  0  0
 16 27  1  0  0  0  0
 17 19  1  0  0  0  0
 17 22  1  0  0  0  0
 18 27  1  0  0  0  0
 19 23  1  0  0  0  0
 21 27  1  0  0  0  0
 24 25  1  0  0  0  0
 11 28  1  0  0  0  0
 11 29  1  0  0  0  0
 11 30  1  0  0  0  0
 12 31  1  0  0  0  0
 12 32  1  0  0  0  0
 12 33  1  0  0  0  0
 13 34  1  0  0  0  0
 13 35  1  0  0  0  0
 13 36  1  0  0  0  0
 14 37  1  0  0  0  0
 15 38  1  0  0  0  0
 15 39  1  0  0  0  0
 16 40  1  0  0  0  0
 16 41  1  0  0  0  0
 17 42  1  0  0  0  0
 17 43  1  0  0  0  0
 18 44  1  0  0  0  0
 18 45  1  0  0  0  0
 19 46  1  0  0  0  0
 19 47  1  0  0  0  0
 21 48  1  0  0  0  0
 27 49  1  0  0  0  0
M  END
> <pdb_id>
5SHA

> <uniprot_id>
Q9Y233

> <usmiles>
FC(F)[C@@H]1CN(C2=NN(C(=N2)CCC3=NN4C(=N3)C(=NC=C4C)C)C)CC1

$$$$
JC1_A_1
          07202400393D 1   1.00000     0.00000     0
            
 77 79  0  0  0  0            999 V2000
   12.2130    3.9313   29.9866 O   0  0  0  0  0  0  0  0  0  0  0  0
   17.7583    8.3775   19.3196 O   0  0  0  0  0  0  0  0  0  0  0  0
   15.3552    5.0301   18.0638 O   0  0  0  0  0  0  0  0  0  0  0  0
    8.5241    0.8705   26.3402 C   0  0  0  0  0  0  0  0  0  0  0  0
   14.4699    5.0279   20.7168 C   0  0  0  0  0  0  0  0  0  0  0  0
   14.7735    0.2290   27.2234 C   0  0  0  0  0  0  0  0  0  0  0  0
   13.7139    3.8169   24.6847 C   0  0  0  0  0  0  0  0  0  0  0  0
   12.8877    2.7583   30.4447 C   0  0  0  0  0  0  0  0  0  0  0  0
    9.2429    1.2217   27.6293 C   0  0  0  0  0  0  0  0  0  0  0  0
   10.5362    1.9755   27.3514 C   0  0  0  0  0  0  0  0  0  0  0  0
   13.9328    6.5406   26.3738 C   0  0  0  0  0  0  0  0  0  0  0  0
   13.6959    2.0507   29.3402 C   0  0  0  0  0  0  0  0  0  0  0  0
   11.7349    1.2356   27.9596 C   0  0  0  0  0  0  0  0  0  0  0  0
   15.2271    7.0706   25.7129 C   0  0  0  0  0  0  0  0  0  0  0  0
   16.1849    6.1782   23.4326 C   0  0  0  0  0  0  0  0  0  0  0  0
   16.0431    7.2225   22.4980 C   0  0  0  0  0  0  0  0  0  0  0  0
   16.3537    2.2797   25.5384 C   0  0  0  0  0  0  0  0  0  0  0  0
   16.8599    3.5254   24.7952 C   0  0  0  0  0  0  0  0  0  0  0  0
   15.8266    7.4230   18.1835 C   0  0  0  0  0  0  0  0  0  0  0  0
   15.6264    8.5842   20.4619 C   0  0  0  0  0  0  0  0  0  0  0  0
   14.0688    5.0761   26.9116 C   0  0  0  0  0  0  0  0  0  0  0  0
   16.3557    8.5706   19.0942 C   0  0  1  0  0  0  0  0  0  0  0  0
   15.9695    6.0281   18.8751 C   0  0  1  0  0  0  0  0  0  0  0  0
   15.3298    6.0666   20.3140 C   0  0  0  0  0  0  0  0  0  0  0  0
   14.1243    1.5754   26.8428 C   0  0  1  0  0  0  0  0  0  0  0  0
   13.0545    2.0483   27.9179 C   0  0  2  0  0  0  0  0  0  0  0  0
   15.8829    6.0013   24.7940 C   0  0  0  0  0  0  0  0  0  0  0  0
   15.6660    7.1859   21.1337 C   0  0  0  0  0  0  0  0  0  0  0  0
   15.2132    2.7082   26.5290 C   0  0  2  0  0  0  0  0  0  0  0  0
   16.1322    4.6431   25.5534 C   0  0  1  0  0  0  0  0  0  0  0  0
   14.7179    4.0601   25.8930 C   0  0  1  0  0  0  0  0  0  0  0  0
   11.7087    4.3436   30.7454 H   0  0  0  0  0  0  0  0  0  0  0  0
   18.1061    9.1107   19.9039 H   0  0  0  0  0  0  0  0  0  0  0  0
   15.4467    4.1380   18.5062 H   0  0  0  0  0  0  0  0  0  0  0  0
    7.6804    0.3774   26.5527 H   0  0  0  0  0  0  0  0  0  0  0  0
    8.3035    1.7092   25.8423 H   0  0  0  0  0  0  0  0  0  0  0  0
    9.1144    0.2933   25.7760 H   0  0  0  0  0  0  0  0  0  0  0  0
   14.0591    5.0440   21.6284 H   0  0  0  0  0  0  0  0  0  0  0  0
   14.2695    4.2738   20.0913 H   0  0  0  0  0  0  0  0  0  0  0  0
   15.4379   -0.0306   26.5225 H   0  0  0  0  0  0  0  0  0  0  0  0
   15.2372    0.3199   28.1048 H   0  0  0  0  0  0  0  0  0  0  0  0
   14.0665   -0.4751   27.2897 H   0  0  0  0  0  0  0  0  0  0  0  0
   14.1217    3.1734   24.0369 H   0  0  0  0  0  0  0  0  0  0  0  0
   12.8566    3.4393   25.0345 H   0  0  0  0  0  0  0  0  0  0  0  0
   13.5320    4.6848   24.2226 H   0  0  0  0  0  0  0  0  0  0  0  0
   12.2063    2.1181   30.7993 H   0  0  0  0  0  0  0  0  0  0  0  0
   13.5143    3.0188   31.1793 H   0  0  0  0  0  0  0  0  0  0  0  0
    9.4563    0.3791   28.1237 H   0  0  0  0  0  0  0  0  0  0  0  0
    8.6454    1.7950   28.1900 H   0  0  0  0  0  0  0  0  0  0  0  0
   10.4764    2.8895   27.7526 H   0  0  0  0  0  0  0  0  0  0  0  0
   10.6653    2.0531   26.3629 H   0  0  0  0  0  0  0  0  0  0  0  0
   13.1978    6.5633   25.6962 H   0  0  0  0  0  0  0  0  0  0  0  0
   13.6988    7.1398   27.1395 H   0  0  0  0  0  0  0  0  0  0  0  0
   13.8263    1.0991   29.6186 H   0  0  0  0  0  0  0  0  0  0  0  0
   14.5851    2.5035   29.2740 H   0  0  0  0  0  0  0  0  0  0  0  0
   11.8717    0.3850   27.4518 H   0  0  0  0  0  0  0  0  0  0  0  0
   11.5243    1.0239   28.9140 H   0  0  0  0  0  0  0  0  0  0  0  0
   15.8766    7.3243   26.4297 H   0  0  0  0  0  0  0  0  0  0  0  0
   15.0044    7.8766   25.1644 H   0  0  0  0  0  0  0  0  0  0  0  0
   16.6024    5.3639   23.0291 H   0  0  0  0  0  0  0  0  0  0  0  0
   16.2401    8.1355   22.8551 H   0  0  0  0  0  0  0  0  0  0  0  0
   17.1059    1.8658   26.0512 H   0  0  0  0  0  0  0  0  0  0  0  0
   15.9954    1.6181   24.8797 H   0  0  0  0  0  0  0  0  0  0  0  0
   16.5987    3.5074   23.8300 H   0  0  0  0  0  0  0  0  0  0  0  0
   17.8528    3.6183   24.8701 H   0  0  0  0  0  0  0  0  0  0  0  0
   16.3493    7.4178   17.3311 H   0  0  0  0  0  0  0  0  0  0  0  0
   14.8611    7.5878   17.9816 H   0  0  0  0  0  0  0  0  0  0  0  0
   14.6731    8.8511   20.3205 H   0  0  0  0  0  0  0  0  0  0  0  0
   16.0726    9.2474   21.0628 H   0  0  0  0  0  0  0  0  0  0  0  0
   13.1550    4.7432   27.1447 H   0  0  0  0  0  0  0  0  0  0  0  0
   14.6358    5.0975   27.7350 H   0  0  0  0  0  0  0  0  0  0  0  0
   16.2131    9.4478   18.6357 H   0  0  0  0  0  0  0  0  0  0  0  0
   16.9422    5.8136   18.9636 H   0  0  0  0  0  0  0  0  0  0  0  0
   13.6228    1.4191   25.9919 H   0  0  0  0  0  0  0  0  0  0  0  0
   12.8134    2.9940   27.7000 H   0  0  0  0  0  0  0  0  0  0  0  0
   15.6526    2.9384   27.3972 H   0  0  0  0  0  0  0  0  0  0  0  0
   16.6207    4.8308   26.4056 H   0  0  0  0  0  0  0  0  0  0  0  0
  1  8  1  0  0  0  0
  2 22  1  0  0  0  0
  3 23  1  0  0  0  0
  4  9  1  0  0  0  0
  5 24  2  0  0  0  0
  6 25  1  0  0  0  0
  7 31  1  0  0  0  0
  8 12  1  0  0  0  0
  9 10  1  0  0  0  0
 10 13  1  0  0  0  0
 11 14  1  0  0  0  0
 11 21  1  0  0  0  0
 12 26  1  0  0  0  0
 13 26  1  0  0  0  0
 14 27  1  0  0  0  0
 15 16  1  0  0  0  0
 15 27  2  0  0  0  0
 16 28  2  0  0  0  0
 17 18  1  0  0  0  0
 17 29  1  0  0  0  0
 18 30  1  0  0  0  0
 19 22  1  0  0  0  0
 19 23  1  0  0  0  0
 20 22  1  0  0  0  0
 20 28  1  0  0  0  0
 21 31  1  0  0  0  0
 23 24  1  0  0  0  0
 24 28  1  0  0  0  0
 25 26  1  0  0  0  0
 25 29  1  0  0  0  0
 27 30  1  0  0  0  0
 29 31  1  0  0  0  0
 30 31  1  0  0  0  0
  1 32  1  0  0  0  0
  2 33  1  0  0  0  0
  3 34  1  0  0  0  0
  4 35  1  0  0  0  0
  4 36  1  0  0  0  0
  4 37  1  0  0  0  0
  5 38  1  0  0  0  0
  5 39  1  0  0  0  0
  6 40  1  0  0  0  0
  6 41  1  0  0  0  0
  6 42  1  0  0  0  0
  7 43  1  0  0  0  0
  7 44  1  0  0  0  0
  7 45  1  0  0  0  0
  8 46  1  0  0  0  0
  8 47  1  0  0  0  0
  9 48  1  0  0  0  0
  9 49  1  0  0  0  0
 10 50  1  0  0  0  0
 10 51  1  0  0  0  0
 11 52  1  0  0  0  0
 11 53  1  0  0  0  0
 12 54  1  0  0  0  0
 12 55  1  0  0  0  0
 13 56  1  0  0  0  0
 13 57  1  0  0  0  0
 14 58  1  0  0  0  0
 14 59  1  0  0  0  0
 15 60  1  0  0  0  0
 16 61  1  0  0  0  0
 17 62  1  0  0  0  0
 17 63  1  0  0  0  0
 18 64  1  0  0  0  0
 18 65  1  0  0  0  0
 19 66  1  0  0  0  0
 19 67  1  0  0  0  0
 20 68  1  0  0  0  0
 20 69  1  0  0  0  0
 21 70  1  0  0  0  0
 21 71  1  0  0  0  0
 22 72  1  0  0  0  0
 23 73  1  0  0  0  0
 25 74  1  0  0  0  0
 26 75  1  0  0  0  0
 29 76  1  0  0  0  0
 30 77  1  0  0  0  0
M  END
> <pdb_id>
2ZXN

> <uniprot_id>
P13053

> <usmiles>
O[C@@H]1C\C(\C(=C)[C@@H](O)C1)=C\C=C/2\[C@H]3[C@@]([C@@H]([C@H]([C@H](CCO)CCCC)C)CC3)(CCC2)C

$$$$
JC5_B_305
          07212403343D 1   1.00000     0.00000     0
            
 52 54  0  0  0  0            999 V2000
  -10.8140  -38.1410   -5.6630 O   0  0  0  0  0  0  0  0  0  0  0  0
  -10.5310  -35.5810   -6.3460 O   0  0  0  0  0  0  0  0  0  0  0  0
   -5.5190  -36.3260   -8.9020 N   0  0  0  0  0  0  0  0  0  0  0  0
   -7.8910  -40.4490   -4.8660 N   0  0  0  0  0  0  0  0  0  0  0  0
  -12.4920  -35.6470   -4.4170 N   0  0  0  0  0  0  0  0  0  0  0  0
  -11.7920  -38.5770   -6.6060 C   0  0  0  0  0  0  0  0  0  0  0  0
  -15.9930  -38.7700   -4.5300 C   0  0  0  0  0  0  0  0  0  0  0  0
  -15.5060  -39.0540   -3.2680 C   0  0  0  0  0  0  0  0  0  0  0  0
  -15.4580  -37.7240   -5.2630 C   0  0  0  0  0  0  0  0  0  0  0  0
  -14.4850  -38.2860   -2.7280 C   0  0  0  0  0  0  0  0  0  0  0  0
   -8.2150  -35.9420   -7.0090 C   0  0  0  0  0  0  0  0  0  0  0  0
   -7.3570  -38.1720   -6.8210 C   0  0  0  0  0  0  0  0  0  0  0  0
  -10.2960  -34.1860   -6.1100 C   0  0  0  0  0  0  0  0  0  0  0  0
   -5.7550  -36.3170   -7.4480 C   0  0  0  0  0  0  0  0  0  0  0  0
   -8.7490  -40.1000   -5.9930 C   0  0  0  0  0  0  0  0  0  0  0  0
  -12.0440  -34.2540   -4.2820 C   0  0  0  0  0  0  0  0  0  0  0  0
  -13.7130  -35.7750   -5.3170 C   0  0  0  0  0  0  0  0  0  0  0  0
  -12.8380  -36.2910   -3.0850 C   0  0  0  0  0  0  0  0  0  0  0  0
  -11.5750  -33.6000   -5.5730 C   0  0  0  0  0  0  0  0  0  0  0  0
   -9.4420  -36.3820   -6.5480 C   0  0  0  0  0  0  0  0  0  0  0  0
   -9.6190  -37.7230   -6.2070 C   0  0  0  0  0  0  0  0  0  0  0  0
   -7.1500  -36.8310   -7.1250 C   0  0  0  0  0  0  0  0  0  0  0  0
   -8.5810  -38.6420   -6.3560 C   0  0  0  0  0  0  0  0  0  0  0  0
  -14.4330  -36.9500   -4.7280 C   0  0  0  0  0  0  0  0  0  0  0  0
  -13.9480  -37.2340   -3.4570 C   0  0  0  0  0  0  0  0  0  0  0  0
   -6.0750  -35.6390   -9.4000 H   0  0  0  0  0  0  0  0  0  0  0  0
   -5.6490  -37.2440   -9.3160 H   0  0  0  0  0  0  0  0  0  0  0  0
   -8.3280  -41.0200   -4.1490 H   0  0  0  0  0  0  0  0  0  0  0  0
   -6.9640  -40.7770   -5.1180 H   0  0  0  0  0  0  0  0  0  0  0  0
  -12.7560  -38.7530   -6.1320 H   0  0  0  0  0  0  0  0  0  0  0  0
  -11.3820  -39.5180   -6.9700 H   0  0  0  0  0  0  0  0  0  0  0  0
  -11.9300  -37.8840   -7.4350 H   0  0  0  0  0  0  0  0  0  0  0  0
  -16.7990  -39.3680   -4.9530 H   0  0  0  0  0  0  0  0  0  0  0  0
  -15.9220  -39.8800   -2.6940 H   0  0  0  0  0  0  0  0  0  0  0  0
  -15.8300  -37.4940   -6.2600 H   0  0  0  0  0  0  0  0  0  0  0  0
  -14.1020  -38.5040   -1.7330 H   0  0  0  0  0  0  0  0  0  0  0  0
   -8.0740  -34.8980   -7.2860 H   0  0  0  0  0  0  0  0  0  0  0  0
   -6.5340  -38.8720   -6.9540 H   0  0  0  0  0  0  0  0  0  0  0  0
   -9.9800  -33.6840   -7.0230 H   0  0  0  0  0  0  0  0  0  0  0  0
   -9.4780  -34.0750   -5.3990 H   0  0  0  0  0  0  0  0  0  0  0  0
   -5.6670  -35.2940   -7.0850 H   0  0  0  0  0  0  0  0  0  0  0  0
   -5.0050  -36.8650   -6.8780 H   0  0  0  0  0  0  0  0  0  0  0  0
   -8.4770  -40.7070   -6.8550 H   0  0  0  0  0  0  0  0  0  0  0  0
   -9.7960  -40.3390   -5.8150 H   0  0  0  0  0  0  0  0  0  0  0  0
  -12.7920  -33.6130   -3.8170 H   0  0  0  0  0  0  0  0  0  0  0  0
  -11.2190  -34.2470   -3.5710 H   0  0  0  0  0  0  0  0  0  0  0  0
  -14.3560  -34.8960   -5.3510 H   0  0  0  0  0  0  0  0  0  0  0  0
  -13.3610  -35.9510   -6.3320 H   0  0  0  0  0  0  0  0  0  0  0  0
  -13.1640  -35.6070   -2.3030 H   0  0  0  0  0  0  0  0  0  0  0  0
  -11.9490  -36.7980   -2.7150 H   0  0  0  0  0  0  0  0  0  0  0  0
  -12.3550  -33.6730   -6.3290 H   0  0  0  0  0  0  0  0  0  0  0  0
  -11.4330  -32.5290   -5.4360 H   0  0  0  0  0  0  0  0  0  0  0  0
  1  6  1  0  0  0  0
  1 21  1  0  0  0  0
  2 13  1  0  0  0  0
  2 20  1  0  0  0  0
  3 14  1  0  0  0  0
  3 26  1  0  0  0  0
  3 27  1  0  0  0  0
  4 15  1  0  0  0  0
  4 28  1  0  0  0  0
  4 29  1  0  0  0  0
  5 16  1  0  0  0  0
  5 17  1  0  0  0  0
  5 18  1  0  0  0  0
  6 30  1  0  0  0  0
  6 31  1  0  0  0  0
  6 32  1  0  0  0  0
  7  8  2  0  0  0  0
  7  9  1  0  0  0  0
  7 33  1  0  0  0  0
  8 10  1  0  0  0  0
  8 34  1  0  0  0  0
  9 24  2  0  0  0  0
  9 35  1  0  0  0  0
 10 25  2  0  0  0  0
 10 36  1  0  0  0  0
 11 20  2  0  0  0  0
 11 22  1  0  0  0  0
 11 37  1  0  0  0  0
 12 22  2  0  0  0  0
 12 23  1  0  0  0  0
 12 38  1  0  0  0  0
 13 19  1  0  0  0  0
 13 39  1  0  0  0  0
 13 40  1  0  0  0  0
 14 22  1  0  0  0  0
 14 41  1  0  0  0  0
 14 42  1  0  0  0  0
 15 23  1  0  0  0  0
 15 43  1  0  0  0  0
 15 44  1  0  0  0  0
 16 19  1  0  0  0  0
 16 45  1  0  0  0  0
 16 46  1  0  0  0  0
 17 24  1  0  0  0  0
 17 47  1  0  0  0  0
 17 48  1  0  0  0  0
 18 25  1  0  0  0  0
 18 49  1  0  0  0  0
 18 50  1  0  0  0  0
 19 51  1  0  0  0  0
 19 52  1  0  0  0  0
 20 21  1  0  0  0  0
 21 23  2  0  0  0  0
 24 25  1  0  0  0  0
M  END
> <pdb_id>
6QPL

> <uniprot_id>
Q9Y657

> <usmiles>
O(c1c(OC)c(cc(c1)CN)CN)CCCN2Cc3c(cccc3)C2

$$$$
JCQ_A_301
          07212403353D 1   1.00000     0.00000     0
            
 29 30  0  0  0  0            999 V2000
  -20.8554   19.7996  -12.7233 O   0  0  0  0  0  0  0  0  0  0  0  0
  -25.6541   19.0430   -7.9860 O   0  0  0  0  0  0  0  0  0  0  0  0
  -22.6697   18.4107  -12.4679 O   0  0  0  0  0  0  0  0  0  0  0  0
  -18.4529   16.2527  -12.5406 N   0  0  0  0  0  0  0  0  0  0  0  0
  -19.5289   15.4183  -12.5906 N   0  0  0  0  0  0  0  0  0  0  0  0
  -26.5020   18.1775   -8.6641 C   0  0  0  0  0  0  0  0  0  0  0  0
  -23.4769   19.6186  -12.4029 C   0  0  0  0  0  0  0  0  0  0  0  0
  -18.9247   17.5313  -12.5612 C   0  0  0  0  0  0  0  0  0  0  0  0
  -20.6514   16.1230  -12.6217 C   0  0  0  0  0  0  0  0  0  0  0  0
  -23.0371   21.4192   -9.1062 C   0  0  0  0  0  0  0  0  0  0  0  0
  -23.9612   20.7367   -8.2885 C   0  0  0  0  0  0  0  0  0  0  0  0
  -22.8888   21.0506  -10.4455 C   0  0  0  0  0  0  0  0  0  0  0  0
  -24.5664   19.3590  -10.1648 C   0  0  0  0  0  0  0  0  0  0  0  0
  -21.2817   18.6459  -12.6116 C   0  0  0  0  0  0  0  0  0  0  0  0
  -24.7168   19.7315   -8.8125 C   0  0  0  0  0  0  0  0  0  0  0  0
  -23.6474   20.0255  -10.9736 C   0  0  0  0  0  0  0  0  0  0  0  0
  -20.3065   17.4598  -12.5999 C   0  0  0  0  0  0  0  0  0  0  0  0
  -17.4926   15.9773  -12.4968 H   0  0  0  0  0  0  0  0  0  0  0  0
  -27.1220   17.7399   -8.0128 H   0  0  0  0  0  0  0  0  0  0  0  0
  -27.0341   18.6913   -9.3371 H   0  0  0  0  0  0  0  0  0  0  0  0
  -25.9608   17.4780   -9.1307 H   0  0  0  0  0  0  0  0  0  0  0  0
  -24.3737   19.4429  -12.8091 H   0  0  0  0  0  0  0  0  0  0  0  0
  -23.0208   20.3523  -12.9066 H   0  0  0  0  0  0  0  0  0  0  0  0
  -18.3745   18.3663  -12.5503 H   0  0  0  0  0  0  0  0  0  0  0  0
  -21.5799   15.7532  -12.6550 H   0  0  0  0  0  0  0  0  0  0  0  0
  -22.4891   22.1654   -8.7282 H   0  0  0  0  0  0  0  0  0  0  0  0
  -24.0616   20.9899   -7.3264 H   0  0  0  0  0  0  0  0  0  0  0  0
  -22.2301   21.5315  -11.0241 H   0  0  0  0  0  0  0  0  0  0  0  0
  -25.1192   18.6166  -10.5432 H   0  0  0  0  0  0  0  0  0  0  0  0
  1 14  2  0  0  0  0
  2  6  1  0  0  0  0
  2 15  1  0  0  0  0
  3  7  1  0  0  0  0
  3 14  1  0  0  0  0
  4  5  1  0  0  0  0
  4  8  1  0  0  0  0
  5  9  2  0  0  0  0
  7 16  1  0  0  0  0
  8 17  2  0  0  0  0
  9 17  1  0  0  0  0
 10 11  2  0  0  0  0
 10 12  1  0  0  0  0
 11 15  1  0  0  0  0
 12 16  2  0  0  0  0
 13 15  2  0  0  0  0
 13 16  1  0  0  0  0
 14 17  1  0  0  0  0
  4 18  1  0  0  0  0
  6 19  1  0  0  0  0
  6 20  1  0  0  0  0
  6 21  1  0  0  0  0
  7 22  1  0  0  0  0
  7 23  1  0  0  0  0
  8 24  1  0  0  0  0
  9 25  1  0  0  0  0
 10 26  1  0  0  0  0
 11 27  1  0  0  0  0
 12 28  1  0  0  0  0
 13 29  1  0  0  0  0
M  END
> <pdb_id>
6QRE

> <uniprot_id>
B1MDI3

> <usmiles>
O=C(OCc1cc(OC)ccc1)C=2C=NNC2

$$$$
JD1_F_404
          07192423193D 1   1.00000     0.00000     0
            
 46 47  0  0  0  0            999 V2000
   16.1237   33.7995   -9.5523 P   0  0  0  0  0  0  0  0  0  0  0  0
   15.0138   35.3421   -7.1104 P   0  0  0  0  0  0  0  0  0  0  0  0
   17.5476   33.6487   -8.9693 O   0  0  0  0  0  0  0  0  0  0  0  0
   16.0660   35.0795  -10.2768 O   0  0  0  0  0  0  0  0  0  0  0  0
   15.9618   32.5137  -10.3350 O   0  0  0  0  0  0  0  0  0  0  0  0
   16.3935   35.3083   -6.5499 O   0  0  0  0  0  0  0  0  0  0  0  0
   14.8467   36.5525   -7.9529 O   0  0  0  0  0  0  0  0  0  0  0  0
   14.0332   35.1493   -6.0251 O   0  0  0  0  0  0  0  0  0  0  0  0
   18.2618   24.5729   -5.5658 O   0  0  0  0  0  0  0  0  0  0  0  0
   13.6569   29.8474   -9.0368 N   0  0  0  0  0  0  0  0  0  0  0  0
   15.1202   32.6669   -7.3127 N   0  0  0  0  0  0  0  0  0  0  0  0
   19.5669   23.1973   -4.0965 C   0  0  0  0  0  0  0  0  0  0  0  0
   20.2710   25.3944   -4.7687 C   0  0  0  0  0  0  0  0  0  0  0  0
   13.8676   31.1289   -8.6492 C   0  0  0  0  0  0  0  0  0  0  0  0
   14.3809   28.8125   -8.5063 C   0  0  0  0  0  0  0  0  0  0  0  0
   17.4520   26.9002   -5.2277 C   0  0  0  0  0  0  0  0  0  0  0  0
   17.0032   25.6532   -7.2174 C   0  0  0  0  0  0  0  0  0  0  0  0
   16.7489   28.0111   -5.7429 C   0  0  0  0  0  0  0  0  0  0  0  0
   16.2643   26.7439   -7.7037 C   0  0  0  0  0  0  0  0  0  0  0  0
   15.5516   30.3494   -7.1526 C   0  0  0  0  0  0  0  0  0  0  0  0
   14.9080   33.8365   -8.1963 C   0  0  0  0  0  0  0  0  0  0  0  0
   19.0884   24.6054   -4.4062 C   0  0  0  0  0  0  0  0  0  0  0  0
   17.6101   25.7023   -5.9741 C   0  0  0  0  0  0  0  0  0  0  0  0
   14.8315   31.4164   -7.6870 C   0  0  0  0  0  0  0  0  0  0  0  0
   16.1060   27.9420   -7.0052 C   0  0  0  0  0  0  0  0  0  0  0  0
   15.3459   29.0209   -7.5404 C   0  0  0  0  0  0  0  0  0  0  0  0
   17.6138   32.7845   -8.4706 H   0  0  0  0  0  0  0  0  0  0  0  0
   15.1525   35.2019  -10.6649 H   0  0  0  0  0  0  0  0  0  0  0  0
   16.5031   34.4919   -5.9828 H   0  0  0  0  0  0  0  0  0  0  0  0
   13.9197   36.5724   -8.3277 H   0  0  0  0  0  0  0  0  0  0  0  0
   15.4950   32.8190   -6.3982 H   0  0  0  0  0  0  0  0  0  0  0  0
   20.1481   23.2142   -3.2829 H   0  0  0  0  0  0  0  0  0  0  0  0
   18.7778   22.6061   -3.9303 H   0  0  0  0  0  0  0  0  0  0  0  0
   20.0900   22.8448   -4.8725 H   0  0  0  0  0  0  0  0  0  0  0  0
   20.8887   25.4488   -3.9842 H   0  0  0  0  0  0  0  0  0  0  0  0
   20.7422   24.9562   -5.5342 H   0  0  0  0  0  0  0  0  0  0  0  0
   19.9882   26.3159   -5.0348 H   0  0  0  0  0  0  0  0  0  0  0  0
   13.3303   31.8684   -9.0547 H   0  0  0  0  0  0  0  0  0  0  0  0
   14.2062   27.8816   -8.8269 H   0  0  0  0  0  0  0  0  0  0  0  0
   17.8495   26.9585   -4.3120 H   0  0  0  0  0  0  0  0  0  0  0  0
   17.0923   24.8294   -7.7772 H   0  0  0  0  0  0  0  0  0  0  0  0
   16.7038   28.8568   -5.2113 H   0  0  0  0  0  0  0  0  0  0  0  0
   15.8276   26.6576   -8.5991 H   0  0  0  0  0  0  0  0  0  0  0  0
   16.2470   30.5422   -6.4604 H   0  0  0  0  0  0  0  0  0  0  0  0
   13.9885   33.7838   -8.5859 H   0  0  0  0  0  0  0  0  0  0  0  0
   18.6074   25.0067   -3.6268 H   0  0  0  0  0  0  0  0  0  0  0  0
  1  3  1  0  0  0  0
  1  4  1  0  0  0  0
  1  5  2  0  0  0  0
  1 21  1  0  0  0  0
  2  6  1  0  0  0  0
  2  7  1  0  0  0  0
  2  8  2  0  0  0  0
  2 21  1  0  0  0  0
  9 22  1  0  0  0  0
  9 23  1  0  0  0  0
 10 14  2  0  0  0  0
 10 15  1  0  0  0  0
 11 21  1  0  0  0  0
 11 24  1  0  0  0  0
 12 22  1  0  0  0  0
 13 22  1  0  0  0  0
 14 24  1  0  0  0  0
 15 26  2  0  0  0  0
 16 18  1  0  0  0  0
 16 23  2  0  0  0  0
 17 19  2  0  0  0  0
 17 23  1  0  0  0  0
 18 25  2  0  0  0  0
 19 25  1  0  0  0  0
 20 24  2  0  0  0  0
 20 26  1  0  0  0  0
 25 26  1  0  0  0  0
  3 27  1  0  0  0  0
  4 28  1  0  0  0  0
  6 29  1  0  0  0  0
  7 30  1  0  0  0  0
 11 31  1  0  0  0  0
 12 32  1  0  0  0  0
 12 33  1  0  0  0  0
 12 34  1  0  0  0  0
 13 35  1  0  0  0  0
 13 36  1  0  0  0  0
 13 37  1  0  0  0  0
 14 38  1  0  0  0  0
 15 39  1  0  0  0  0
 16 40  1  0  0  0  0
 17 41  1  0  0  0  0
 18 42  1  0  0  0  0
 19 43  1  0  0  0  0
 20 44  1  0  0  0  0
 21 45  1  0  0  0  0
 22 46  1  0  0  0  0
M  END
> <pdb_id>
4PVY

> <uniprot_id>
P14324

> <usmiles>
P(=O)(O)(O)C(P(=O)(O)O)Nc1cncc(c2ccc(OC(C)C)cc2)c1

$$$$
JD5_F_401
          07192423193D 1   1.00000     0.00000     0
            
 44 46  0  0  0  0            999 V2000
   16.0984   33.8100   -9.4308 P   0  0  0  0  0  0  0  0  0  0  0  0
   14.9577   35.2689   -7.1186 P   0  0  0  0  0  0  0  0  0  0  0  0
   15.9444   32.5446  -10.3290 O   0  0  0  0  0  0  0  0  0  0  0  0
   17.5319   33.6638   -8.8188 O   0  0  0  0  0  0  0  0  0  0  0  0
   15.9827   35.1421  -10.2706 O   0  0  0  0  0  0  0  0  0  0  0  0
   14.7421   36.4611   -7.9822 O   0  0  0  0  0  0  0  0  0  0  0  0
   16.3334   35.3287   -6.5138 O   0  0  0  0  0  0  0  0  0  0  0  0
   13.9264   35.2138   -5.9908 O   0  0  0  0  0  0  0  0  0  0  0  0
   19.2225   25.4792   -4.8921 O   0  0  0  0  0  0  0  0  0  0  0  0
   13.7510   29.6236   -8.9642 N   0  0  0  0  0  0  0  0  0  0  0  0
   15.0778   32.6131   -7.3370 N   0  0  0  0  0  0  0  0  0  0  0  0
   13.8832   30.9680   -8.6552 C   0  0  0  0  0  0  0  0  0  0  0  0
   14.5369   28.6526   -8.3666 C   0  0  0  0  0  0  0  0  0  0  0  0
   19.7974   23.4641   -3.7893 C   0  0  0  0  0  0  0  0  0  0  0  0
   18.8945   24.3766   -3.2484 C   0  0  0  0  0  0  0  0  0  0  0  0
   18.5578   27.5138   -5.8795 C   0  0  0  0  0  0  0  0  0  0  0  0
   16.9725   25.8041   -5.8533 C   0  0  0  0  0  0  0  0  0  0  0  0
   17.6302   28.3614   -6.4810 C   0  0  0  0  0  0  0  0  0  0  0  0
   16.0605   26.7044   -6.4809 C   0  0  0  0  0  0  0  0  0  0  0  0
   15.6244   30.3341   -7.1314 C   0  0  0  0  0  0  0  0  0  0  0  0
   14.8003   33.7483   -8.2100 C   0  0  0  0  0  0  0  0  0  0  0  0
   18.8521   24.1687   -4.5905 C   0  0  0  0  0  0  0  0  0  0  0  0
   18.2182   26.2267   -5.4987 C   0  0  0  0  0  0  0  0  0  0  0  0
   14.8726   31.3359   -7.7127 C   0  0  0  0  0  0  0  0  0  0  0  0
   15.4944   28.9716   -7.4357 C   0  0  0  0  0  0  0  0  0  0  0  0
   16.3499   28.0067   -6.7838 C   0  0  0  0  0  0  0  0  0  0  0  0
   15.0452   32.5538  -10.7665 H   0  0  0  0  0  0  0  0  0  0  0  0
   17.7198   34.4425   -8.2202 H   0  0  0  0  0  0  0  0  0  0  0  0
   13.8273   36.4206   -8.3840 H   0  0  0  0  0  0  0  0  0  0  0  0
   16.4775   34.5271   -5.9335 H   0  0  0  0  0  0  0  0  0  0  0  0
   15.4356   32.7907   -6.4202 H   0  0  0  0  0  0  0  0  0  0  0  0
   13.2982   31.6561   -9.0845 H   0  0  0  0  0  0  0  0  0  0  0  0
   14.4036   27.6944   -8.6196 H   0  0  0  0  0  0  0  0  0  0  0  0
   19.6880   22.4843   -3.6218 H   0  0  0  0  0  0  0  0  0  0  0  0
   20.7709   23.6865   -3.8422 H   0  0  0  0  0  0  0  0  0  0  0  0
   19.2278   25.2504   -2.8942 H   0  0  0  0  0  0  0  0  0  0  0  0
   18.1448   24.0481   -2.6738 H   0  0  0  0  0  0  0  0  0  0  0  0
   19.4888   27.8419   -5.7194 H   0  0  0  0  0  0  0  0  0  0  0  0
   16.6964   24.8600   -5.6732 H   0  0  0  0  0  0  0  0  0  0  0  0
   17.9231   29.2909   -6.7052 H   0  0  0  0  0  0  0  0  0  0  0  0
   15.1508   26.3611   -6.7145 H   0  0  0  0  0  0  0  0  0  0  0  0
   16.3061   30.5975   -6.4489 H   0  0  0  0  0  0  0  0  0  0  0  0
   13.8954   33.6830   -8.6306 H   0  0  0  0  0  0  0  0  0  0  0  0
   18.0831   23.7124   -5.0382 H   0  0  0  0  0  0  0  0  0  0  0  0
  1  3  1  0  0  0  0
  1  4  1  0  0  0  0
  1  5  2  0  0  0  0
  1 21  1  0  0  0  0
  2  6  1  0  0  0  0
  2  7  1  0  0  0  0
  2  8  2  0  0  0  0
  2 21  1  0  0  0  0
  9 22  1  0  0  0  0
  9 23  1  0  0  0  0
 10 12  2  0  0  0  0
 10 13  1  0  0  0  0
 11 21  1  0  0  0  0
 11 24  1  0  0  0  0
 12 24  1  0  0  0  0
 13 25  2  0  0  0  0
 14 15  1  0  0  0  0
 14 22  1  0  0  0  0
 15 22  1  0  0  0  0
 16 18  1  0  0  0  0
 16 23  2  0  0  0  0
 17 19  2  0  0  0  0
 17 23  1  0  0  0  0
 18 26  2  0  0  0  0
 19 26  1  0  0  0  0
 20 24  2  0  0  0  0
 20 25  1  0  0  0  0
 25 26  1  0  0  0  0
  3 27  1  0  0  0  0
  4 28  1  0  0  0  0
  6 29  1  0  0  0  0
  7 30  1  0  0  0  0
 11 31  1  0  0  0  0
 12 32  1  0  0  0  0
 13 33  1  0  0  0  0
 14 34  1  0  0  0  0
 14 35  1  0  0  0  0
 15 36  1  0  0  0  0
 15 37  1  0  0  0  0
 16 38  1  0  0  0  0
 17 39  1  0  0  0  0
 18 40  1  0  0  0  0
 19 41  1  0  0  0  0
 20 42  1  0  0  0  0
 21 43  1  0  0  0  0
 22 44  1  0  0  0  0
M  END
> <pdb_id>
4NFI

> <uniprot_id>
P14324

> <usmiles>
P(=O)(O)(O)C(P(=O)(O)O)Nc1cncc(c2ccc(OC3CC3)cc2)c1

$$$$
JD8_A_301
          07212403353D 1   1.00000     0.00000     0
            
 47 50  0  0  0  0            999 V2000
  -21.3248   15.0001  -12.5840 N   0  0  0  0  0  0  0  0  0  0  0  0
  -17.9143   16.5812  -12.9269 N   0  0  0  0  0  0  0  0  0  0  0  0
  -18.6225   18.9162  -12.5327 N   0  0  0  0  0  0  0  0  0  0  0  0
  -19.7677   19.5653  -12.2762 N   0  0  0  0  0  0  0  0  0  0  0  0
  -22.3003   25.0800   -9.3045 N   0  0  0  0  0  0  0  0  0  0  0  0
  -24.0919   22.1264  -10.6849 N   0  0  0  0  0  0  0  0  0  0  0  0
  -21.4213   25.3084  -10.1734 C   0  0  0  0  0  0  0  0  0  0  0  0
  -20.9103   16.0437  -12.5160 C   0  0  0  0  0  0  0  0  0  0  0  0
  -21.7908   25.4571   -8.0149 C   0  0  0  0  0  0  0  0  0  0  0  0
  -25.3418   22.0510  -10.3142 C   0  0  0  0  0  0  0  0  0  0  0  0
  -23.2724   23.3286  -10.7227 C   0  0  0  0  0  0  0  0  0  0  0  0
  -20.9235   24.4160   -7.2880 C   0  0  0  0  0  0  0  0  0  0  0  0
  -21.2649   23.0383   -7.5015 C   0  0  0  0  0  0  0  0  0  0  0  0
  -25.7574   20.6838  -10.4395 C   0  0  0  0  0  0  0  0  0  0  0  0
  -21.6935   22.7356   -8.8399 C   0  0  0  0  0  0  0  0  0  0  0  0
  -23.2213   18.1318  -11.6855 C   0  0  0  0  0  0  0  0  0  0  0  0
  -24.4514   18.5398  -11.2463 C   0  0  0  0  0  0  0  0  0  0  0  0
  -22.3738   20.4524  -11.5264 C   0  0  0  0  0  0  0  0  0  0  0  0
  -18.9023   17.5811  -12.6469 C   0  0  0  0  0  0  0  0  0  0  0  0
  -20.7778   18.6721  -12.2549 C   0  0  0  0  0  0  0  0  0  0  0  0
  -22.7532   23.7183   -9.3377 C   0  0  1  0  0  0  0  0  0  0  0  0
  -23.6390   20.8538  -11.0674 C   0  0  0  0  0  0  0  0  0  0  0  0
  -22.1969   19.0980  -11.8628 C   0  0  0  0  0  0  0  0  0  0  0  0
  -24.6604   19.9326  -10.9259 C   0  0  0  0  0  0  0  0  0  0  0  0
  -20.2575   17.3956  -12.4374 C   0  0  0  0  0  0  0  0  0  0  0  0
  -18.1817   15.6202  -12.9984 H   0  0  0  0  0  0  0  0  0  0  0  0
  -16.9576   16.8445  -13.0509 H   0  0  0  0  0  0  0  0  0  0  0  0
  -17.7194   19.3356  -12.6249 H   0  0  0  0  0  0  0  0  0  0  0  0
  -21.7681   25.0485  -11.0747 H   0  0  0  0  0  0  0  0  0  0  0  0
  -21.1957   26.2826  -10.1713 H   0  0  0  0  0  0  0  0  0  0  0  0
  -20.6008   24.7758   -9.9657 H   0  0  0  0  0  0  0  0  0  0  0  0
  -22.5734   25.6638   -7.4277 H   0  0  0  0  0  0  0  0  0  0  0  0
  -21.2380   26.2816   -8.1360 H   0  0  0  0  0  0  0  0  0  0  0  0
  -25.9089   22.8119   -9.9987 H   0  0  0  0  0  0  0  0  0  0  0  0
  -23.8221   24.0818  -11.0841 H   0  0  0  0  0  0  0  0  0  0  0  0
  -22.4912   23.1669  -11.3256 H   0  0  0  0  0  0  0  0  0  0  0  0
  -20.9896   24.5971   -6.3068 H   0  0  0  0  0  0  0  0  0  0  0  0
  -19.9783   24.5450   -7.5879 H   0  0  0  0  0  0  0  0  0  0  0  0
  -22.0054   22.7982   -6.8737 H   0  0  0  0  0  0  0  0  0  0  0  0
  -20.4603   22.4809   -7.2966 H   0  0  0  0  0  0  0  0  0  0  0  0
  -26.6645   20.3239  -10.2212 H   0  0  0  0  0  0  0  0  0  0  0  0
  -22.0769   21.8122   -8.8551 H   0  0  0  0  0  0  0  0  0  0  0  0
  -20.9020   22.7780   -9.4497 H   0  0  0  0  0  0  0  0  0  0  0  0
  -23.0465   17.1663  -11.8787 H   0  0  0  0  0  0  0  0  0  0  0  0
  -25.1973   17.8811  -11.1482 H   0  0  0  0  0  0  0  0  0  0  0  0
  -21.6233   21.1078  -11.6112 H   0  0  0  0  0  0  0  0  0  0  0  0
  -23.5276   23.6542   -8.7084 H   0  0  0  0  0  0  0  0  0  0  0  0
  1  8  3  0  0  0  0
  2 19  1  0  0  0  0
  3  4  1  0  0  0  0
  3 19  1  0  0  0  0
  4 20  2  0  0  0  0
  5  7  1  0  0  0  0
  5  9  1  0  0  0  0
  5 21  1  0  0  0  0
  6 10  1  0  0  0  0
  6 11  1  0  0  0  0
  6 22  1  0  0  0  0
  8 25  1  0  0  0  0
  9 12  1  0  0  0  0
 10 14  2  0  0  0  0
 11 21  1  0  0  0  0
 12 13  1  0  0  0  0
 13 15  1  0  0  0  0
 14 24  1  0  0  0  0
 15 21  1  0  0  0  0
 16 17  1  0  0  0  0
 16 23  2  0  0  0  0
 17 24  2  0  0  0  0
 18 22  2  0  0  0  0
 18 23  1  0  0  0  0
 19 25  2  0  0  0  0
 20 23  1  0  0  0  0
 20 25  1  0  0  0  0
 22 24  1  0  0  0  0
  2 26  1  0  0  0  0
  2 27  1  0  0  0  0
  3 28  1  0  0  0  0
  7 29  1  0  0  0  0
  7 30  1  0  0  0  0
  7 31  1  0  0  0  0
  9 32  1  0  0  0  0
  9 33  1  0  0  0  0
 10 34  1  0  0  0  0
 11 35  1  0  0  0  0
 11 36  1  0  0  0  0
 12 37  1  0  0  0  0
 12 38  1  0  0  0  0
 13 39  1  0  0  0  0
 13 40  1  0  0  0  0
 14 41  1  0  0  0  0
 15 42  1  0  0  0  0
 15 43  1  0  0  0  0
 16 44  1  0  0  0  0
 17 45  1  0  0  0  0
 18 46  1  0  0  0  0
 21 47  1  0  0  0  0
M  END
> <pdb_id>
6QR4

> <uniprot_id>
B1MDI3

> <usmiles>
N#CC=1C(=NNC1N)c2cc3N(C=Cc3cc2)C[C@@H]4N(CCCC4)C

$$$$
JDE_B_302
          07212403353D 1   1.00000     0.00000     0
            
 38 40  0  0  0  0            999 V2000
  -20.7218   19.7816  -12.5833 O   0  0  0  0  0  0  0  0  0  0  0  0
  -25.4715   19.1483   -7.6840 O   0  0  0  0  0  0  0  0  0  0  0  0
  -22.5944   18.3464  -12.2878 O   0  0  0  0  0  0  0  0  0  0  0  0
  -18.3229   16.2659  -12.4202 N   0  0  0  0  0  0  0  0  0  0  0  0
  -19.3679   15.4431  -12.4957 N   0  0  0  0  0  0  0  0  0  0  0  0
  -21.0389   24.0335   -7.2085 N   0  0  0  0  0  0  0  0  0  0  0  0
  -26.5663   18.3427   -8.2138 C   0  0  0  0  0  0  0  0  0  0  0  0
  -23.5180   19.4324  -12.1979 C   0  0  0  0  0  0  0  0  0  0  0  0
  -20.8120   24.9919   -8.0956 C   0  0  0  0  0  0  0  0  0  0  0  0
  -18.8080   17.5264  -12.4061 C   0  0  0  0  0  0  0  0  0  0  0  0
  -20.5277   16.1379  -12.5346 C   0  0  0  0  0  0  0  0  0  0  0  0
  -21.7438   22.9449   -7.4847 C   0  0  0  0  0  0  0  0  0  0  0  0
  -21.3068   24.9133   -9.4031 C   0  0  0  0  0  0  0  0  0  0  0  0
  -22.0455   23.7713   -9.7519 C   0  0  0  0  0  0  0  0  0  0  0  0
  -24.5590   19.2713   -9.8657 C   0  0  0  0  0  0  0  0  0  0  0  0
  -23.9069   20.9086   -8.2224 C   0  0  0  0  0  0  0  0  0  0  0  0
  -22.9622   21.0503  -10.3866 C   0  0  0  0  0  0  0  0  0  0  0  0
  -21.1830   18.6138  -12.4639 C   0  0  0  0  0  0  0  0  0  0  0  0
  -24.6686   19.7412   -8.6221 C   0  0  0  0  0  0  0  0  0  0  0  0
  -23.6932   19.9001  -10.7908 C   0  0  0  0  0  0  0  0  0  0  0  0
  -20.2073   17.4364  -12.4802 C   0  0  0  0  0  0  0  0  0  0  0  0
  -22.2652   22.7756   -8.7661 C   0  0  0  0  0  0  0  0  0  0  0  0
  -23.0769   21.5286   -9.1422 C   0  0  0  0  0  0  0  0  0  0  0  0
  -17.3596   16.0001  -12.3813 H   0  0  0  0  0  0  0  0  0  0  0  0
  -27.0914   17.9547   -7.4564 H   0  0  0  0  0  0  0  0  0  0  0  0
  -27.1632   18.9180   -8.7730 H   0  0  0  0  0  0  0  0  0  0  0  0
  -26.1947   17.6032   -8.7751 H   0  0  0  0  0  0  0  0  0  0  0  0
  -24.4042   19.1331  -12.5517 H   0  0  0  0  0  0  0  0  0  0  0  0
  -23.1778   20.1927  -12.7512 H   0  0  0  0  0  0  0  0  0  0  0  0
  -20.2744   25.7904   -7.8245 H   0  0  0  0  0  0  0  0  0  0  0  0
  -18.2703   18.3678  -12.3528 H   0  0  0  0  0  0  0  0  0  0  0  0
  -21.4494   15.7544  -12.5930 H   0  0  0  0  0  0  0  0  0  0  0  0
  -21.8999   22.2523   -6.7805 H   0  0  0  0  0  0  0  0  0  0  0  0
  -21.1401   25.6443  -10.0648 H   0  0  0  0  0  0  0  0  0  0  0  0
  -22.4093   23.6622  -10.6770 H   0  0  0  0  0  0  0  0  0  0  0  0
  -25.0909   18.4718  -10.1450 H   0  0  0  0  0  0  0  0  0  0  0  0
  -23.9802   21.2633   -7.2903 H   0  0  0  0  0  0  0  0  0  0  0  0
  -22.3564   21.5064  -11.0386 H   0  0  0  0  0  0  0  0  0  0  0  0
  1 18  2  0  0  0  0
  2  7  1  0  0  0  0
  2 19  1  0  0  0  0
  3  8  1  0  0  0  0
  3 18  1  0  0  0  0
  4  5  1  0  0  0  0
  4 10  1  0  0  0  0
  5 11  2  0  0  0  0
  6  9  2  0  0  0  0
  6 12  1  0  0  0  0
  8 20  1  0  0  0  0
  9 13  1  0  0  0  0
 10 21  2  0  0  0  0
 11 21  1  0  0  0  0
 12 22  2  0  0  0  0
 13 14  2  0  0  0  0
 14 22  1  0  0  0  0
 15 19  2  0  0  0  0
 15 20  1  0  0  0  0
 16 19  1  0  0  0  0
 16 23  2  0  0  0  0
 17 20  2  0  0  0  0
 17 23  1  0  0  0  0
 18 21  1  0  0  0  0
 22 23  1  0  0  0  0
  4 24  1  0  0  0  0
  7 25  1  0  0  0  0
  7 26  1  0  0  0  0
  7 27  1  0  0  0  0
  8 28  1  0  0  0  0
  8 29  1  0  0  0  0
  9 30  1  0  0  0  0
 10 31  1  0  0  0  0
 11 32  1  0  0  0  0
 12 33  1  0  0  0  0
 13 34  1  0  0  0  0
 14 35  1  0  0  0  0
 15 36  1  0  0  0  0
 16 37  1  0  0  0  0
 17 38  1  0  0  0  0
M  END
> <pdb_id>
6QQQ

> <uniprot_id>
B1MDI3

> <usmiles>
O=C(OCc1cc(OC)cc(c2cnccc2)c1)C=3C=NNC3

$$$$
JDN_B_301
          07212403353D 1   1.00000     0.00000     0
            
 20 21  0  0  0  0            999 V2000
  -19.4243   19.3082  -12.3727 O   0  0  0  0  0  0  0  0  0  0  0  0
  -20.3539   17.0735  -12.5084 O   0  0  0  0  0  0  0  0  0  0  0  0
  -25.5087   20.6302  -10.6475 N   0  0  0  0  0  0  0  0  0  0  0  0
  -25.2233   21.9223  -10.4981 C   0  0  0  0  0  0  0  0  0  0  0  0
  -23.8970   22.1166  -10.8824 C   0  0  0  0  0  0  0  0  0  0  0  0
  -24.2499   18.5650  -11.4402 C   0  0  0  0  0  0  0  0  0  0  0  0
  -23.0342   18.1224  -11.9109 C   0  0  0  0  0  0  0  0  0  0  0  0
  -22.1222   20.3839  -11.7742 C   0  0  0  0  0  0  0  0  0  0  0  0
  -24.4172   19.9500  -11.1268 C   0  0  0  0  0  0  0  0  0  0  0  0
  -23.3748   20.8397  -11.2901 C   0  0  0  0  0  0  0  0  0  0  0  0
  -21.9758   19.0299  -12.0845 C   0  0  0  0  0  0  0  0  0  0  0  0
  -20.5438   18.4701  -12.6186 B   0  0  0  0  0  0  0  0  0  0  0  0
  -19.6935   20.2649  -12.4834 H   0  0  0  0  0  0  0  0  0  0  0  0
  -21.2144   16.6035  -12.7051 H   0  0  0  0  0  0  0  0  0  0  0  0
  -26.3938   20.2140  -10.4396 H   0  0  0  0  0  0  0  0  0  0  0  0
  -25.8497   22.6287  -10.1685 H   0  0  0  0  0  0  0  0  0  0  0  0
  -23.4000   22.9844  -10.8757 H   0  0  0  0  0  0  0  0  0  0  0  0
  -25.0082   17.9244  -11.3187 H   0  0  0  0  0  0  0  0  0  0  0  0
  -22.9046   17.1552  -12.1293 H   0  0  0  0  0  0  0  0  0  0  0  0
  -21.3589   21.0193  -11.8912 H   0  0  0  0  0  0  0  0  0  0  0  0
  1 12  1  0  0  0  0
  2 12  1  0  0  0  0
  3  4  1  0  0  0  0
  3  9  1  0  0  0  0
  4  5  2  0  0  0  0
  5 10  1  0  0  0  0
  6  7  1  0  0  0  0
  6  9  2  0  0  0  0
  7 11  2  0  0  0  0
  8 10  2  0  0  0  0
  8 11  1  0  0  0  0
  9 10  1  0  0  0  0
 11 12  1  0  0  0  0
  1 13  1  0  0  0  0
  2 14  1  0  0  0  0
  3 15  1  0  0  0  0
  4 16  1  0  0  0  0
  5 17  1  0  0  0  0
  6 18  1  0  0  0  0
  7 19  1  0  0  0  0
  8 20  1  0  0  0  0
M  END
> <pdb_id>
6QQR

> <uniprot_id>
B1MDI3

> <usmiles>
OB(O)c1cc2c(NC=C2)cc1

$$$$
JDR_A_264
          07192416293D 1   1.00000     0.00000     0
            
 36 37  0  0  0  0            999 V2000
   -5.9510   10.6828   10.5600 Cl  0  0  0  0  0  0  0  0  0  0  0  0
   -1.7077   10.5664   13.7199 S   0  0  0  0  0  0  0  0  0  0  0  0
   -5.9322    1.0099   16.8785 S   0  0  0  0  0  0  0  0  0  0  0  0
   -5.4111    1.0842   18.2913 O   0  0  0  0  0  0  0  0  0  0  0  0
   -7.4452    0.9974   16.7106 O   0  0  0  0  0  0  0  0  0  0  0  0
   -6.6934    6.6835   11.7024 O   0  0  0  0  0  0  0  0  0  0  0  0
   -5.2771   -0.3932   16.1367 N   0  0  0  0  0  0  0  0  0  0  0  0
   -4.4062    6.3728   12.9758 N   0  0  0  0  0  0  0  0  0  0  0  0
   -3.8758   10.3996   12.1523 N   0  0  0  0  0  0  0  0  0  0  0  0
   -3.2085    8.4424   13.2254 N   0  0  0  0  0  0  0  0  0  0  0  0
   -0.9865    9.5576   15.0564 C   0  0  0  0  0  0  0  0  0  0  0  0
   -6.2555    7.7237   11.2057 C   0  0  0  0  0  0  0  0  0  0  0  0
   -3.5771    5.6605   13.9268 C   0  0  0  0  0  0  0  0  0  0  0  0
   -6.1816    3.4508   15.6396 C   0  0  0  0  0  0  0  0  0  0  0  0
   -3.9845    2.4303   15.7180 C   0  0  0  0  0  0  0  0  0  0  0  0
   -5.6408    4.5428   14.9498 C   0  0  0  0  0  0  0  0  0  0  0  0
   -3.4537    3.5162   15.0373 C   0  0  0  0  0  0  0  0  0  0  0  0
   -3.0537    9.7360   12.9543 C   0  0  0  0  0  0  0  0  0  0  0  0
   -4.8998    9.7775   11.5854 C   0  0  0  0  0  0  0  0  0  0  0  0
   -5.3375    2.3986   16.0202 C   0  0  0  0  0  0  0  0  0  0  0  0
   -4.2244    7.7694   12.6825 C   0  0  0  0  0  0  0  0  0  0  0  0
   -4.2759    4.5605   14.6557 C   0  0  0  0  0  0  0  0  0  0  0  0
   -5.1136    8.4259   11.8335 C   0  0  0  0  0  0  0  0  0  0  0  0
   -5.6117   -0.4604   15.1967 H   0  0  0  0  0  0  0  0  0  0  0  0
   -4.2790   -0.3324   16.1316 H   0  0  0  0  0  0  0  0  0  0  0  0
   -5.1336    5.8739   12.5046 H   0  0  0  0  0  0  0  0  0  0  0  0
   -0.2246   10.0529   15.4738 H   0  0  0  0  0  0  0  0  0  0  0  0
   -1.6841    9.3741   15.7490 H   0  0  0  0  0  0  0  0  0  0  0  0
   -0.6553    8.6926   14.6795 H   0  0  0  0  0  0  0  0  0  0  0  0
   -6.6733    8.0942   10.3761 H   0  0  0  0  0  0  0  0  0  0  0  0
   -3.2405    6.3175   14.6014 H   0  0  0  0  0  0  0  0  0  0  0  0
   -2.8034    5.2649   13.4319 H   0  0  0  0  0  0  0  0  0  0  0  0
   -7.1571    3.4221   15.8578 H   0  0  0  0  0  0  0  0  0  0  0  0
   -3.3925    1.6717   15.9904 H   0  0  0  0  0  0  0  0  0  0  0  0
   -6.2270    5.3033   14.6703 H   0  0  0  0  0  0  0  0  0  0  0  0
   -2.4774    3.5438   14.8227 H   0  0  0  0  0  0  0  0  0  0  0  0
  1 19  1  0  0  0  0
  2 11  1  0  0  0  0
  2 18  1  0  0  0  0
  3  4  2  0  0  0  0
  3  5  2  0  0  0  0
  3  7  1  0  0  0  0
  3 20  1  0  0  0  0
  6 12  2  0  0  0  0
  8 13  1  0  0  0  0
  8 21  1  0  0  0  0
  9 18  2  0  0  0  0
  9 19  1  0  0  0  0
 10 18  1  0  0  0  0
 10 21  2  0  0  0  0
 12 23  1  0  0  0  0
 13 22  1  0  0  0  0
 14 16  1  0  0  0  0
 14 20  2  0  0  0  0
 15 17  2  0  0  0  0
 15 20  1  0  0  0  0
 16 22  2  0  0  0  0
 17 22  1  0  0  0  0
 19 23  2  0  0  0  0
 21 23  1  0  0  0  0
  7 24  1  0  0  0  0
  7 25  1  0  0  0  0
  8 26  1  0  0  0  0
 11 27  1  0  0  0  0
 11 28  1  0  0  0  0
 11 29  1  0  0  0  0
 12 30  1  0  0  0  0
 13 31  1  0  0  0  0
 13 32  1  0  0  0  0
 14 33  1  0  0  0  0
 15 34  1  0  0  0  0
 16 35  1  0  0  0  0
 17 36  1  0  0  0  0
M  END
> <pdb_id>
3M5E

> <uniprot_id>
P00918

> <usmiles>
Clc1nc(SC)nc(NCc2ccc(S(=O)(=O)N)cc2)c1C=O

$$$$
JE1_A_601
          07202408163D 1   1.00000     0.00000     0
            
 47 49  0  0  0  0            999 V2000
   20.1593   20.0834    6.6321 S   0  0  0  0  0  0  0  0  0  0  0  0
   16.0198   20.4601    8.3958 F   0  0  0  0  0  0  0  0  0  0  0  0
   18.0732   19.9681    8.7213 F   0  0  0  0  0  0  0  0  0  0  0  0
   17.4791   22.0143    8.1928 F   0  0  0  0  0  0  0  0  0  0  0  0
   20.3739   22.0040    4.3069 O   0  0  0  0  0  0  0  0  0  0  0  0
   27.5303   22.7747    4.9831 N   0  0  0  0  0  0  0  0  0  0  0  0
   16.1420   20.2347    5.8435 N   0  0  0  0  0  0  0  0  0  0  0  0
   23.4021   19.3346    4.3543 N   0  0  0  0  0  0  0  0  0  0  0  0
   22.3348   21.2276    3.4192 N   0  0  0  0  0  0  0  0  0  0  0  0
   24.3877   20.4783    2.5872 N   0  0  0  0  0  0  0  0  0  0  0  0
   27.7888   21.5516    1.3722 C   0  0  0  0  0  0  0  0  0  0  0  0
   28.0907   22.3295    3.7164 C   0  0  0  0  0  0  0  0  0  0  0  0
   16.0963   19.8309    4.5543 C   0  0  0  0  0  0  0  0  0  0  0  0
   25.5214   19.5391    2.5828 C   0  0  0  0  0  0  0  0  0  0  0  0
   24.6219   21.7463    1.8538 C   0  0  0  0  0  0  0  0  0  0  0  0
   22.4347   19.2019    5.2797 C   0  0  0  0  0  0  0  0  0  0  0  0
   17.2423   19.4767    3.8377 C   0  0  0  0  0  0  0  0  0  0  0  0
   18.4832   19.5186    4.5044 C   0  0  0  0  0  0  0  0  0  0  0  0
   26.7314   20.2203    3.2730 C   0  0  0  0  0  0  0  0  0  0  0  0
   25.7580   22.5071    2.5812 C   0  0  0  0  0  0  0  0  0  0  0  0
   21.3778   20.1163    5.3490 C   0  0  0  0  0  0  0  0  0  0  0  0
   18.5650   19.9589    5.8511 C   0  0  0  0  0  0  0  0  0  0  0  0
   21.3982   21.1416    4.3662 C   0  0  0  0  0  0  0  0  0  0  0  0
   23.3043   20.3158    3.4532 C   0  0  0  0  0  0  0  0  0  0  0  0
   17.3379   20.2950    6.5019 C   0  0  0  0  0  0  0  0  0  0  0  0
   17.2472   20.7067    7.9740 C   0  0  0  0  0  0  0  0  0  0  0  0
   27.0681   21.6681    2.7506 C   0  0  0  0  0  0  0  0  0  0  0  0
   28.2516   23.1856    5.5406 H   0  0  0  0  0  0  0  0  0  0  0  0
   26.8150   23.4521    4.8114 H   0  0  0  0  0  0  0  0  0  0  0  0
   22.3096   21.9412    2.7191 H   0  0  0  0  0  0  0  0  0  0  0  0
   27.1718   21.1295    0.7080 H   0  0  0  0  0  0  0  0  0  0  0  0
   28.0483   22.4633    1.0536 H   0  0  0  0  0  0  0  0  0  0  0  0
   28.6085   20.9873    1.4712 H   0  0  0  0  0  0  0  0  0  0  0  0
   28.8108   21.6636    3.9113 H   0  0  0  0  0  0  0  0  0  0  0  0
   28.4867   23.1233    3.2548 H   0  0  0  0  0  0  0  0  0  0  0  0
   15.2087   19.7840    4.0961 H   0  0  0  0  0  0  0  0  0  0  0  0
   25.7599   19.3034    1.6407 H   0  0  0  0  0  0  0  0  0  0  0  0
   25.2728   18.7087    3.0815 H   0  0  0  0  0  0  0  0  0  0  0  0
   23.7881   22.2985    1.8532 H   0  0  0  0  0  0  0  0  0  0  0  0
   24.8923   21.5499    0.9114 H   0  0  0  0  0  0  0  0  0  0  0  0
   22.4715   18.4400    5.9265 H   0  0  0  0  0  0  0  0  0  0  0  0
   17.1836   19.2010    2.8782 H   0  0  0  0  0  0  0  0  0  0  0  0
   19.3135   19.2355    4.0244 H   0  0  0  0  0  0  0  0  0  0  0  0
   27.5356   19.6437    3.1290 H   0  0  0  0  0  0  0  0  0  0  0  0
   26.5360   20.2814    4.2519 H   0  0  0  0  0  0  0  0  0  0  0  0
   25.4315   22.7696    3.4892 H   0  0  0  0  0  0  0  0  0  0  0  0
   25.9753   23.3290    2.0547 H   0  0  0  0  0  0  0  0  0  0  0  0
  1 21  1  0  0  0  0
  1 22  1  0  0  0  0
  2 26  1  0  0  0  0
  3 26  1  0  0  0  0
  4 26  1  0  0  0  0
  5 23  2  0  0  0  0
  6 12  1  0  0  0  0
  7 13  2  0  0  0  0
  7 25  1  0  0  0  0
  8 16  1  0  0  0  0
  8 24  2  0  0  0  0
  9 23  1  0  0  0  0
  9 24  1  0  0  0  0
 10 14  1  0  0  0  0
 10 15  1  0  0  0  0
 10 24  1  0  0  0  0
 11 27  1  0  0  0  0
 12 27  1  0  0  0  0
 13 17  1  0  0  0  0
 14 19  1  0  0  0  0
 15 20  1  0  0  0  0
 16 21  2  0  0  0  0
 17 18  2  0  0  0  0
 18 22  1  0  0  0  0
 19 27  1  0  0  0  0
 20 27  1  0  0  0  0
 21 23  1  0  0  0  0
 22 25  2  0  0  0  0
 25 26  1  0  0  0  0
  6 28  1  0  0  0  0
  6 29  1  0  0  0  0
  9 30  1  0  0  0  0
 11 31  1  0  0  0  0
 11 32  1  0  0  0  0
 11 33  1  0  0  0  0
 12 34  1  0  0  0  0
 12 35  1  0  0  0  0
 13 36  1  0  0  0  0
 14 37  1  0  0  0  0
 14 38  1  0  0  0  0
 15 39  1  0  0  0  0
 15 40  1  0  0  0  0
 16 41  1  0  0  0  0
 17 42  1  0  0  0  0
 18 43  1  0  0  0  0
 19 44  1  0  0  0  0
 19 45  1  0  0  0  0
 20 46  1  0  0  0  0
 20 47  1  0  0  0  0
M  END
> <pdb_id>
6MD7

> <uniprot_id>
Q06124

> <usmiles>
S(c1c(nccc1)C(F)(F)F)C=2C(=O)NC(=NC2)N3CCC(CN)(CC3)C

$$$$
JE7_A_601
          07202408163D 1   1.00000     0.00000     0
            
 27 29  0  0  0  0            999 V2000
   14.5017   21.0463    7.0261 Cl  0  0  0  0  0  0  0  0  0  0  0  0
   17.1706   20.8348    8.4913 Cl  0  0  0  0  0  0  0  0  0  0  0  0
   19.7203   19.8007    7.1056 S   0  0  0  0  0  0  0  0  0  0  0  0
   24.2310   22.1380    1.7893 N   0  0  0  0  0  0  0  0  0  0  0  0
   21.0736   20.9026    5.0675 N   0  0  0  0  0  0  0  0  0  0  0  0
   22.4651   21.9266    3.2697 N   0  0  0  0  0  0  0  0  0  0  0  0
   23.9096   20.3576    3.1718 N   0  0  0  0  0  0  0  0  0  0  0  0
   16.9190   19.5179    4.1161 C   0  0  0  0  0  0  0  0  0  0  0  0
   21.9532   18.7866    5.8807 C   0  0  0  0  0  0  0  0  0  0  0  0
   15.7926   20.0505    4.7795 C   0  0  0  0  0  0  0  0  0  0  0  0
   18.1390   19.4116    4.8027 C   0  0  0  0  0  0  0  0  0  0  0  0
   23.0168   18.8388    4.9616 C   0  0  0  0  0  0  0  0  0  0  0  0
   21.0021   19.8239    5.8983 C   0  0  0  0  0  0  0  0  0  0  0  0
   23.5690   21.4962    2.7140 C   0  0  0  0  0  0  0  0  0  0  0  0
   15.8707   20.4112    6.1390 C   0  0  0  0  0  0  0  0  0  0  0  0
   17.0839   20.3142    6.8169 C   0  0  0  0  0  0  0  0  0  0  0  0
   18.2239   19.8472    6.1490 C   0  0  0  0  0  0  0  0  0  0  0  0
   22.0944   20.9866    4.1776 C   0  0  0  0  0  0  0  0  0  0  0  0
   23.0577   19.9763    4.1330 C   0  0  0  0  0  0  0  0  0  0  0  0
   25.0691   21.7452    1.4107 H   0  0  0  0  0  0  0  0  0  0  0  0
   23.8999   23.0221    1.4598 H   0  0  0  0  0  0  0  0  0  0  0  0
   21.9875   22.7812    3.0658 H   0  0  0  0  0  0  0  0  0  0  0  0
   16.8485   19.2186    3.1645 H   0  0  0  0  0  0  0  0  0  0  0  0
   21.8735   18.0187    6.5163 H   0  0  0  0  0  0  0  0  0  0  0  0
   14.9340   20.1726    4.2815 H   0  0  0  0  0  0  0  0  0  0  0  0
   18.9427   19.0311    4.3451 H   0  0  0  0  0  0  0  0  0  0  0  0
   23.7016   18.1127    4.9005 H   0  0  0  0  0  0  0  0  0  0  0  0
  1 15  1  0  0  0  0
  2 16  1  0  0  0  0
  3 13  1  0  0  0  0
  3 17  1  0  0  0  0
  4 14  1  0  0  0  0
  5 13  1  0  0  0  0
  5 18  2  0  0  0  0
  6 14  1  0  0  0  0
  6 18  1  0  0  0  0
  7 14  2  0  0  0  0
  7 19  1  0  0  0  0
  8 10  2  0  0  0  0
  8 11  1  0  0  0  0
  9 12  1  0  0  0  0
  9 13  2  0  0  0  0
 10 15  1  0  0  0  0
 11 17  2  0  0  0  0
 12 19  2  0  0  0  0
 15 16  2  0  0  0  0
 16 17  1  0  0  0  0
 18 19  1  0  0  0  0
  4 20  1  0  0  0  0
  4 21  1  0  0  0  0
  6 22  1  0  0  0  0
  8 23  1  0  0  0  0
  9 24  1  0  0  0  0
 10 25  1  0  0  0  0
 11 26  1  0  0  0  0
 12 27  1  0  0  0  0
M  END
> <pdb_id>
6MDD

> <uniprot_id>
Q06124

> <usmiles>
Clc1c(Cl)cccc1Sc2nc3NC(=Nc3cc2)N

$$$$
JE8_B_301
          07212403353D 1   1.00000     0.00000     0
            
 47 50  0  0  0  0            999 V2000
  -21.4337   14.9869  -12.5105 N   0  0  0  0  0  0  0  0  0  0  0  0
  -18.0203   16.5028  -12.8647 N   0  0  0  0  0  0  0  0  0  0  0  0
  -18.6343   18.8593  -12.5510 N   0  0  0  0  0  0  0  0  0  0  0  0
  -19.7751   19.5569  -12.2931 N   0  0  0  0  0  0  0  0  0  0  0  0
  -21.2365   25.5283   -8.4311 N   0  0  0  0  0  0  0  0  0  0  0  0
  -24.0804   22.2384  -10.7625 N   0  0  0  0  0  0  0  0  0  0  0  0
  -20.5460   26.5106   -8.6187 C   0  0  0  0  0  0  0  0  0  0  0  0
  -20.9873   16.0464  -12.4638 C   0  0  0  0  0  0  0  0  0  0  0  0
  -20.5097   24.5231   -7.7116 C   0  0  0  0  0  0  0  0  0  0  0  0
  -25.3815   22.2050  -10.3892 C   0  0  0  0  0  0  0  0  0  0  0  0
  -21.8022   25.0777   -9.6612 C   0  0  0  0  0  0  0  0  0  0  0  0
  -23.2200   23.4058  -10.8343 C   0  0  0  0  0  0  0  0  0  0  0  0
  -21.2250   23.1831   -7.6328 C   0  0  0  0  0  0  0  0  0  0  0  0
  -25.8210   20.8523  -10.4850 C   0  0  0  0  0  0  0  0  0  0  0  0
  -21.8611   22.7834   -8.8635 C   0  0  0  0  0  0  0  0  0  0  0  0
  -24.4997   18.6590  -11.2655 C   0  0  0  0  0  0  0  0  0  0  0  0
  -23.2428   18.2318  -11.6954 C   0  0  0  0  0  0  0  0  0  0  0  0
  -22.3459   20.5253  -11.5623 C   0  0  0  0  0  0  0  0  0  0  0  0
  -18.9404   17.5492  -12.6220 C   0  0  0  0  0  0  0  0  0  0  0  0
  -20.8054   18.7123  -12.2526 C   0  0  0  0  0  0  0  0  0  0  0  0
  -23.6310   20.9664  -11.1257 C   0  0  0  0  0  0  0  0  0  0  0  0
  -22.6379   23.8226   -9.4498 C   0  0  1  0  0  0  0  0  0  0  0  0
  -24.6975   20.0568  -10.9614 C   0  0  0  0  0  0  0  0  0  0  0  0
  -22.1749   19.1587  -11.8833 C   0  0  0  0  0  0  0  0  0  0  0  0
  -20.3001   17.4204  -12.4148 C   0  0  0  0  0  0  0  0  0  0  0  0
  -18.3386   15.5555  -12.9006 H   0  0  0  0  0  0  0  0  0  0  0  0
  -17.0515   16.7103  -13.0003 H   0  0  0  0  0  0  0  0  0  0  0  0
  -17.7226   19.2532  -12.6679 H   0  0  0  0  0  0  0  0  0  0  0  0
  -21.0720   27.1968   -9.1209 H   0  0  0  0  0  0  0  0  0  0  0  0
  -20.2587   26.8890   -7.7387 H   0  0  0  0  0  0  0  0  0  0  0  0
  -19.7390   26.2541   -9.1506 H   0  0  0  0  0  0  0  0  0  0  0  0
  -20.3549   24.8526   -6.7802 H   0  0  0  0  0  0  0  0  0  0  0  0
  -19.6301   24.3842   -8.1666 H   0  0  0  0  0  0  0  0  0  0  0  0
  -25.9336   22.9868  -10.0993 H   0  0  0  0  0  0  0  0  0  0  0  0
  -21.0648   24.8749  -10.3055 H   0  0  0  0  0  0  0  0  0  0  0  0
  -22.3843   25.7987  -10.0370 H   0  0  0  0  0  0  0  0  0  0  0  0
  -23.7508   24.1704  -11.1995 H   0  0  0  0  0  0  0  0  0  0  0  0
  -22.4595   23.2031  -11.4512 H   0  0  0  0  0  0  0  0  0  0  0  0
  -21.9256   23.2422   -6.9217 H   0  0  0  0  0  0  0  0  0  0  0  0
  -20.5553   22.4836   -7.3836 H   0  0  0  0  0  0  0  0  0  0  0  0
  -26.7349   20.5113  -10.2650 H   0  0  0  0  0  0  0  0  0  0  0  0
  -22.4602   22.0052   -8.6747 H   0  0  0  0  0  0  0  0  0  0  0  0
  -21.1530   22.5088   -9.5140 H   0  0  0  0  0  0  0  0  0  0  0  0
  -25.2521   18.0073  -11.1695 H   0  0  0  0  0  0  0  0  0  0  0  0
  -23.0882   17.2602  -11.8745 H   0  0  0  0  0  0  0  0  0  0  0  0
  -21.5837   21.1680  -11.6395 H   0  0  0  0  0  0  0  0  0  0  0  0
  -23.3962   24.0418   -8.8358 H   0  0  0  0  0  0  0  0  0  0  0  0
  1  8  3  0  0  0  0
  2 19  1  0  0  0  0
  3  4  1  0  0  0  0
  3 19  1  0  0  0  0
  4 20  2  0  0  0  0
  5  7  1  0  0  0  0
  5  9  1  0  0  0  0
  5 11  1  0  0  0  0
  6 10  1  0  0  0  0
  6 12  1  0  0  0  0
  6 21  1  0  0  0  0
  8 25  1  0  0  0  0
  9 13  1  0  0  0  0
 10 14  2  0  0  0  0
 11 22  1  0  0  0  0
 12 22  1  0  0  0  0
 13 15  1  0  0  0  0
 14 23  1  0  0  0  0
 15 22  1  0  0  0  0
 16 17  1  0  0  0  0
 16 23  2  0  0  0  0
 17 24  2  0  0  0  0
 18 21  2  0  0  0  0
 18 24  1  0  0  0  0
 19 25  2  0  0  0  0
 20 24  1  0  0  0  0
 20 25  1  0  0  0  0
 21 23  1  0  0  0  0
  2 26  1  0  0  0  0
  2 27  1  0  0  0  0
  3 28  1  0  0  0  0
  7 29  1  0  0  0  0
  7 30  1  0  0  0  0
  7 31  1  0  0  0  0
  9 32  1  0  0  0  0
  9 33  1  0  0  0  0
 10 34  1  0  0  0  0
 11 35  1  0  0  0  0
 11 36  1  0  0  0  0
 12 37  1  0  0  0  0
 12 38  1  0  0  0  0
 13 39  1  0  0  0  0
 13 40  1  0  0  0  0
 14 41  1  0  0  0  0
 15 42  1  0  0  0  0
 15 43  1  0  0  0  0
 16 44  1  0  0  0  0
 17 45  1  0  0  0  0
 18 46  1  0  0  0  0
 22 47  1  0  0  0  0
M  END
> <pdb_id>
6QR3

> <uniprot_id>
B1MDI3

> <usmiles>
N#CC=1C(=NNC1N)c2cc3N(C=Cc3cc2)C[C@@H]4CN(CCC4)C

$$$$
JEB_B_301
          07212403353D 1   1.00000     0.00000     0
            
 38 41  0  0  0  0            999 V2000
  -21.3187   14.9619  -12.6158 N   0  0  0  0  0  0  0  0  0  0  0  0
  -17.9332   16.4982  -12.8984 N   0  0  0  0  0  0  0  0  0  0  0  0
  -18.5713   18.8024  -12.5272 N   0  0  0  0  0  0  0  0  0  0  0  0
  -19.7507   19.4704  -12.2642 N   0  0  0  0  0  0  0  0  0  0  0  0
  -22.1703   22.8480   -7.0798 N   0  0  0  0  0  0  0  0  0  0  0  0
  -24.1576   22.0684  -10.7554 N   0  0  0  0  0  0  0  0  0  0  0  0
  -20.9777   23.4314   -7.0618 C   0  0  0  0  0  0  0  0  0  0  0  0
  -20.8901   16.0204  -12.5322 C   0  0  0  0  0  0  0  0  0  0  0  0
  -22.9180   22.7855   -8.1652 C   0  0  0  0  0  0  0  0  0  0  0  0
  -25.4764   21.9812  -10.4423 C   0  0  0  0  0  0  0  0  0  0  0  0
  -20.4415   24.0213   -8.2240 C   0  0  0  0  0  0  0  0  0  0  0  0
  -23.3429   23.3129  -10.6944 C   0  0  0  0  0  0  0  0  0  0  0  0
  -21.2134   23.9887   -9.4254 C   0  0  0  0  0  0  0  0  0  0  0  0
  -25.8798   20.6228  -10.6325 C   0  0  0  0  0  0  0  0  0  0  0  0
  -23.2268   18.0987  -11.8153 C   0  0  0  0  0  0  0  0  0  0  0  0
  -24.5247   18.5176  -11.4121 C   0  0  0  0  0  0  0  0  0  0  0  0
  -22.3590   20.4190  -11.5357 C   0  0  0  0  0  0  0  0  0  0  0  0
  -18.8445   17.5460  -12.6324 C   0  0  0  0  0  0  0  0  0  0  0  0
  -22.4662   23.3589   -9.3942 C   0  0  0  0  0  0  0  0  0  0  0  0
  -20.7453   18.6301  -12.2446 C   0  0  0  0  0  0  0  0  0  0  0  0
  -23.6767   20.8317  -11.1414 C   0  0  0  0  0  0  0  0  0  0  0  0
  -22.1662   19.0545  -11.8998 C   0  0  0  0  0  0  0  0  0  0  0  0
  -24.7397   19.8923  -11.0699 C   0  0  0  0  0  0  0  0  0  0  0  0
  -20.2421   17.3855  -12.4434 C   0  0  0  0  0  0  0  0  0  0  0  0
  -18.2596   15.5549  -12.9584 H   0  0  0  0  0  0  0  0  0  0  0  0
  -16.9623   16.7005  -13.0265 H   0  0  0  0  0  0  0  0  0  0  0  0
  -17.6667   19.2184  -12.6197 H   0  0  0  0  0  0  0  0  0  0  0  0
  -20.4523   23.4525   -6.2113 H   0  0  0  0  0  0  0  0  0  0  0  0
  -23.8089   22.3328   -8.1277 H   0  0  0  0  0  0  0  0  0  0  0  0
  -26.0604   22.7322  -10.1341 H   0  0  0  0  0  0  0  0  0  0  0  0
  -19.5399   24.4536   -8.2078 H   0  0  0  0  0  0  0  0  0  0  0  0
  -23.9552   24.1035  -10.7022 H   0  0  0  0  0  0  0  0  0  0  0  0
  -22.7424   23.3484  -11.4933 H   0  0  0  0  0  0  0  0  0  0  0  0
  -20.8693   24.4043  -10.2673 H   0  0  0  0  0  0  0  0  0  0  0  0
  -26.7971   20.2530  -10.4849 H   0  0  0  0  0  0  0  0  0  0  0  0
  -23.0563   17.1390  -12.0389 H   0  0  0  0  0  0  0  0  0  0  0  0
  -25.2777   17.8611  -11.3680 H   0  0  0  0  0  0  0  0  0  0  0  0
  -21.5995   21.0693  -11.5543 H   0  0  0  0  0  0  0  0  0  0  0  0
  1  8  3  0  0  0  0
  2 18  1  0  0  0  0
  3  4  1  0  0  0  0
  3 18  1  0  0  0  0
  4 20  2  0  0  0  0
  5  7  2  0  0  0  0
  5  9  1  0  0  0  0
  6 10  1  0  0  0  0
  6 12  1  0  0  0  0
  6 21  1  0  0  0  0
  7 11  1  0  0  0  0
  8 24  1  0  0  0  0
  9 19  2  0  0  0  0
 10 14  2  0  0  0  0
 11 13  2  0  0  0  0
 12 19  1  0  0  0  0
 13 19  1  0  0  0  0
 14 23  1  0  0  0  0
 15 16  1  0  0  0  0
 15 22  2  0  0  0  0
 16 23  2  0  0  0  0
 17 21  2  0  0  0  0
 17 22  1  0  0  0  0
 18 24  2  0  0  0  0
 20 22  1  0  0  0  0
 20 24  1  0  0  0  0
 21 23  1  0  0  0  0
  2 25  1  0  0  0  0
  2 26  1  0  0  0  0
  3 27  1  0  0  0  0
  7 28  1  0  0  0  0
  9 29  1  0  0  0  0
 10 30  1  0  0  0  0
 11 31  1  0  0  0  0
 12 32  1  0  0  0  0
 12 33  1  0  0  0  0
 13 34  1  0  0  0  0
 14 35  1  0  0  0  0
 15 36  1  0  0  0  0
 16 37  1  0  0  0  0
 17 38  1  0  0  0  0
M  END
> <pdb_id>
6QQZ

> <uniprot_id>
B1MDI3

> <usmiles>
N#CC=1C(=NNC1N)c2cc3N(C=Cc3cc2)Cc4cnccc4

$$$$
JF5_B_301
          07212403353D 1   1.00000     0.00000     0
            
 25 26  0  0  0  0            999 V2000
  -20.7944   19.7252  -12.6090 O   0  0  0  0  0  0  0  0  0  0  0  0
  -22.6439   18.3854  -12.4876 O   0  0  0  0  0  0  0  0  0  0  0  0
  -19.4904   15.3817  -12.5338 N   0  0  0  0  0  0  0  0  0  0  0  0
  -18.4236   16.2290  -12.5397 N   0  0  0  0  0  0  0  0  0  0  0  0
  -23.4034   19.5969  -12.3495 C   0  0  0  0  0  0  0  0  0  0  0  0
  -23.7478   20.7166   -8.2120 C   0  0  0  0  0  0  0  0  0  0  0  0
  -24.4808   19.6583   -8.7108 C   0  0  0  0  0  0  0  0  0  0  0  0
  -22.8980   21.4299   -9.0521 C   0  0  0  0  0  0  0  0  0  0  0  0
  -20.6359   16.0687  -12.5653 C   0  0  0  0  0  0  0  0  0  0  0  0
  -18.9098   17.4997  -12.5701 C   0  0  0  0  0  0  0  0  0  0  0  0
  -24.3649   19.3045  -10.0463 C   0  0  0  0  0  0  0  0  0  0  0  0
  -22.7821   21.0752  -10.3857 C   0  0  0  0  0  0  0  0  0  0  0  0
  -21.2472   18.6019  -12.5827 C   0  0  0  0  0  0  0  0  0  0  0  0
  -23.5115   20.0004  -10.8803 C   0  0  0  0  0  0  0  0  0  0  0  0
  -20.2964   17.4108  -12.5893 C   0  0  0  0  0  0  0  0  0  0  0  0
  -19.4252   14.3842  -12.5092 H   0  0  0  0  0  0  0  0  0  0  0  0
  -24.3214   19.4530  -12.7190 H   0  0  0  0  0  0  0  0  0  0  0  0
  -22.9500   20.3286  -12.8586 H   0  0  0  0  0  0  0  0  0  0  0  0
  -23.8274   20.9704   -7.2480 H   0  0  0  0  0  0  0  0  0  0  0  0
  -25.0949   19.1473   -8.1093 H   0  0  0  0  0  0  0  0  0  0  0  0
  -22.3704   22.1994   -8.6923 H   0  0  0  0  0  0  0  0  0  0  0  0
  -21.5602   15.6871  -12.5705 H   0  0  0  0  0  0  0  0  0  0  0  0
  -18.3696   18.3412  -12.5773 H   0  0  0  0  0  0  0  0  0  0  0  0
  -24.9017   18.5419  -10.4075 H   0  0  0  0  0  0  0  0  0  0  0  0
  -22.1756   21.5908  -10.9910 H   0  0  0  0  0  0  0  0  0  0  0  0
  1 13  2  0  0  0  0
  2  5  1  0  0  0  0
  2 13  1  0  0  0  0
  3  4  1  0  0  0  0
  3  9  1  0  0  0  0
  4 10  2  0  0  0  0
  5 14  1  0  0  0  0
  6  7  2  0  0  0  0
  6  8  1  0  0  0  0
  7 11  1  0  0  0  0
  8 12  2  0  0  0  0
  9 15  2  0  0  0  0
 10 15  1  0  0  0  0
 11 14  2  0  0  0  0
 12 14  1  0  0  0  0
 13 15  1  0  0  0  0
  3 16  1  0  0  0  0
  5 17  1  0  0  0  0
  5 18  1  0  0  0  0
  6 19  1  0  0  0  0
  7 20  1  0  0  0  0
  8 21  1  0  0  0  0
  9 22  1  0  0  0  0
 10 23  1  0  0  0  0
 11 24  1  0  0  0  0
 12 25  1  0  0  0  0
M  END
> <pdb_id>
6QRF

> <uniprot_id>
B1MDI3

> <usmiles>
O=C(OCc1ccccc1)C=2C=NNC2

$$$$
JF8_B_301
          07212403353D 1   1.00000     0.00000     0
            
 26 28  0  0  0  0            999 V2000
  -21.4202   14.9727  -12.5664 N   0  0  0  0  0  0  0  0  0  0  0  0
  -17.9824   16.4593  -12.8556 N   0  0  0  0  0  0  0  0  0  0  0  0
  -18.6269   18.8440  -12.5207 N   0  0  0  0  0  0  0  0  0  0  0  0
  -19.7860   19.5119  -12.2885 N   0  0  0  0  0  0  0  0  0  0  0  0
  -24.0478   22.1961  -10.8249 N   0  0  0  0  0  0  0  0  0  0  0  0
  -20.9546   16.0167  -12.5003 C   0  0  0  0  0  0  0  0  0  0  0  0
  -25.3429   22.1574  -10.4758 C   0  0  0  0  0  0  0  0  0  0  0  0
  -25.8023   20.8434  -10.6004 C   0  0  0  0  0  0  0  0  0  0  0  0
  -24.5307   18.6614  -11.3412 C   0  0  0  0  0  0  0  0  0  0  0  0
  -23.2818   18.1929  -11.7589 C   0  0  0  0  0  0  0  0  0  0  0  0
  -22.3490   20.4429  -11.5710 C   0  0  0  0  0  0  0  0  0  0  0  0
  -18.9190   17.5270  -12.6161 C   0  0  0  0  0  0  0  0  0  0  0  0
  -23.6252   20.9185  -11.1624 C   0  0  0  0  0  0  0  0  0  0  0  0
  -20.8023   18.6560  -12.2595 C   0  0  0  0  0  0  0  0  0  0  0  0
  -24.6895   20.0435  -11.0415 C   0  0  0  0  0  0  0  0  0  0  0  0
  -22.2172   19.1043  -11.9084 C   0  0  0  0  0  0  0  0  0  0  0  0
  -20.2856   17.3666  -12.4285 C   0  0  0  0  0  0  0  0  0  0  0  0
  -18.3046   15.5141  -12.9085 H   0  0  0  0  0  0  0  0  0  0  0  0
  -17.0100   16.6632  -12.9689 H   0  0  0  0  0  0  0  0  0  0  0  0
  -17.7185   19.2533  -12.6061 H   0  0  0  0  0  0  0  0  0  0  0  0
  -23.4769   23.0169  -10.8395 H   0  0  0  0  0  0  0  0  0  0  0  0
  -25.8892   22.9396  -10.1761 H   0  0  0  0  0  0  0  0  0  0  0  0
  -26.7304   20.5193  -10.4172 H   0  0  0  0  0  0  0  0  0  0  0  0
  -25.3035   18.0328  -11.2540 H   0  0  0  0  0  0  0  0  0  0  0  0
  -23.1451   17.2208  -11.9496 H   0  0  0  0  0  0  0  0  0  0  0  0
  -21.5635   21.0604  -11.6142 H   0  0  0  0  0  0  0  0  0  0  0  0
  1  6  3  0  0  0  0
  2 12  1  0  0  0  0
  3  4  1  0  0  0  0
  3 12  1  0  0  0  0
  4 14  2  0  0  0  0
  5  7  1  0  0  0  0
  5 13  1  0  0  0  0
  6 17  1  0  0  0  0
  7  8  2  0  0  0  0
  8 15  1  0  0  0  0
  9 10  1  0  0  0  0
  9 15  2  0  0  0  0
 10 16  2  0  0  0  0
 11 13  2  0  0  0  0
 11 16  1  0  0  0  0
 12 17  2  0  0  0  0
 13 15  1  0  0  0  0
 14 16  1  0  0  0  0
 14 17  1  0  0  0  0
  2 18  1  0  0  0  0
  2 19  1  0  0  0  0
  3 20  1  0  0  0  0
  5 21  1  0  0  0  0
  7 22  1  0  0  0  0
  8 23  1  0  0  0  0
  9 24  1  0  0  0  0
 10 25  1  0  0  0  0
 11 26  1  0  0  0  0
M  END
> <pdb_id>
6QQU

> <uniprot_id>
B1MDI3

> <usmiles>
N#CC1=C(NN=C1c2cc3NC=Cc3cc2)N

$$$$
JFB_A_301
          07212403353D 1   1.00000     0.00000     0
            
 38 41  0  0  0  0            999 V2000
  -21.2542   15.0108  -12.5751 N   0  0  0  0  0  0  0  0  0  0  0  0
  -17.8365   16.5308  -12.8940 N   0  0  0  0  0  0  0  0  0  0  0  0
  -18.5714   18.8585  -12.5293 N   0  0  0  0  0  0  0  0  0  0  0  0
  -19.7740   19.5023  -12.2712 N   0  0  0  0  0  0  0  0  0  0  0  0
  -20.9244   23.6604   -7.2096 N   0  0  0  0  0  0  0  0  0  0  0  0
  -24.0618   22.0609  -10.7869 N   0  0  0  0  0  0  0  0  0  0  0  0
  -20.5353   24.3248   -8.3570 C   0  0  0  0  0  0  0  0  0  0  0  0
  -21.9834   22.9180   -7.1515 C   0  0  0  0  0  0  0  0  0  0  0  0
  -20.8186   16.0183  -12.5131 C   0  0  0  0  0  0  0  0  0  0  0  0
  -25.3813   21.9784  -10.4360 C   0  0  0  0  0  0  0  0  0  0  0  0
  -23.2759   23.2958  -10.7829 C   0  0  0  0  0  0  0  0  0  0  0  0
  -21.2794   24.2170   -9.5086 C   0  0  0  0  0  0  0  0  0  0  0  0
  -22.7956   22.7539   -8.2839 C   0  0  0  0  0  0  0  0  0  0  0  0
  -25.7784   20.6788  -10.5597 C   0  0  0  0  0  0  0  0  0  0  0  0
  -23.1493   18.1095  -11.7764 C   0  0  0  0  0  0  0  0  0  0  0  0
  -24.4120   18.5198  -11.3459 C   0  0  0  0  0  0  0  0  0  0  0  0
  -22.3355   20.4024  -11.5728 C   0  0  0  0  0  0  0  0  0  0  0  0
  -18.8105   17.5584  -12.6373 C   0  0  0  0  0  0  0  0  0  0  0  0
  -22.4316   23.4188   -9.5182 C   0  0  0  0  0  0  0  0  0  0  0  0
  -20.7333   18.6416  -12.2691 C   0  0  0  0  0  0  0  0  0  0  0  0
  -23.5972   20.8157  -11.1463 C   0  0  0  0  0  0  0  0  0  0  0  0
  -22.1451   19.0453  -11.9154 C   0  0  0  0  0  0  0  0  0  0  0  0
  -24.6254   19.9055  -11.0388 C   0  0  0  0  0  0  0  0  0  0  0  0
  -20.1755   17.3514  -12.4463 C   0  0  0  0  0  0  0  0  0  0  0  0
  -18.1230   15.5748  -12.9571 H   0  0  0  0  0  0  0  0  0  0  0  0
  -16.8731   16.7726  -13.0093 H   0  0  0  0  0  0  0  0  0  0  0  0
  -17.6783   19.2993  -12.6185 H   0  0  0  0  0  0  0  0  0  0  0  0
  -19.7084   24.8871   -8.3500 H   0  0  0  0  0  0  0  0  0  0  0  0
  -22.2237   22.4595   -6.2959 H   0  0  0  0  0  0  0  0  0  0  0  0
  -25.9568   22.7406  -10.1394 H   0  0  0  0  0  0  0  0  0  0  0  0
  -23.8982   24.0769  -10.8351 H   0  0  0  0  0  0  0  0  0  0  0  0
  -22.6706   23.2981  -11.5789 H   0  0  0  0  0  0  0  0  0  0  0  0
  -20.9998   24.7056  -10.3351 H   0  0  0  0  0  0  0  0  0  0  0  0
  -23.6163   22.1844   -8.2392 H   0  0  0  0  0  0  0  0  0  0  0  0
  -26.6896   20.3182  -10.3603 H   0  0  0  0  0  0  0  0  0  0  0  0
  -22.9742   17.1467  -11.9821 H   0  0  0  0  0  0  0  0  0  0  0  0
  -25.1564   17.8585  -11.2528 H   0  0  0  0  0  0  0  0  0  0  0  0
  -21.5799   21.0544  -11.6350 H   0  0  0  0  0  0  0  0  0  0  0  0
  1  9  3  0  0  0  0
  2 18  1  0  0  0  0
  3  4  1  0  0  0  0
  3 18  1  0  0  0  0
  4 20  2  0  0  0  0
  5  7  2  0  0  0  0
  5  8  1  0  0  0  0
  6 10  1  0  0  0  0
  6 11  1  0  0  0  0
  6 21  1  0  0  0  0
  7 12  1  0  0  0  0
  8 13  2  0  0  0  0
  9 24  1  0  0  0  0
 10 14  2  0  0  0  0
 11 19  1  0  0  0  0
 12 19  2  0  0  0  0
 13 19  1  0  0  0  0
 14 23  1  0  0  0  0
 15 16  1  0  0  0  0
 15 22  2  0  0  0  0
 16 23  2  0  0  0  0
 17 21  2  0  0  0  0
 17 22  1  0  0  0  0
 18 24  2  0  0  0  0
 20 22  1  0  0  0  0
 20 24  1  0  0  0  0
 21 23  1  0  0  0  0
  2 25  1  0  0  0  0
  2 26  1  0  0  0  0
  3 27  1  0  0  0  0
  7 28  1  0  0  0  0
  8 29  1  0  0  0  0
 10 30  1  0  0  0  0
 11 31  1  0  0  0  0
 11 32  1  0  0  0  0
 12 33  1  0  0  0  0
 13 34  1  0  0  0  0
 14 35  1  0  0  0  0
 15 36  1  0  0  0  0
 16 37  1  0  0  0  0
 17 38  1  0  0  0  0
M  END
> <pdb_id>
6QR0

> <uniprot_id>
B1MDI3

> <usmiles>
N#CC=1C(=NNC1N)c2cc3N(C=Cc3cc2)Cc4ccncc4

$$$$
JGB_A_401
          07192422213D 1   1.00000     0.00000     0
            
 23 23  0  0  0  0            999 V2000
   19.9997   11.5222   19.8910 O   0  0  0  0  0  0  0  0  0  0  0  0
   24.8456    8.3028   13.8699 O   0  0  0  0  0  0  0  0  0  0  0  0
   24.9431    6.9885   16.3548 O   0  0  0  0  0  0  0  0  0  0  0  0
   22.7381    7.6748   20.5844 N   0  0  0  0  0  0  0  0  0  0  0  0
   20.1510   10.0565   21.7441 N   0  0  0  0  0  0  0  0  0  0  0  0
   22.2377    8.5735   20.1255 C   0  0  0  0  0  0  0  0  0  0  0  0
   23.3194    9.8991   14.8996 C   0  0  0  0  0  0  0  0  0  0  0  0
   22.5860   10.3629   16.0151 C   0  0  0  0  0  0  0  0  0  0  0  0
   23.4378    8.5550   17.3472 C   0  0  0  0  0  0  0  0  0  0  0  0
   21.7848   10.2579   18.3316 C   0  0  0  0  0  0  0  0  0  0  0  0
   20.5392   10.5560   20.3695 C   0  0  0  0  0  0  0  0  0  0  0  0
   24.0957    8.7625   15.0216 C   0  0  0  0  0  0  0  0  0  0  0  0
   24.1742    8.0871   16.2307 C   0  0  0  0  0  0  0  0  0  0  0  0
   22.6604    9.7015   17.2252 C   0  0  0  0  0  0  0  0  0  0  0  0
   21.5688    9.7903   19.5298 C   0  0  0  0  0  0  0  0  0  0  0  0
   25.4132    7.4824   13.9379 H   0  0  0  0  0  0  0  0  0  0  0  0
   25.4656    6.6526   15.5711 H   0  0  0  0  0  0  0  0  0  0  0  0
   20.6051    9.2540   22.1312 H   0  0  0  0  0  0  0  0  0  0  0  0
   19.4404   10.5289   22.2655 H   0  0  0  0  0  0  0  0  0  0  0  0
   23.2769   10.3894   14.0291 H   0  0  0  0  0  0  0  0  0  0  0  0
   22.0095   11.1753   15.9276 H   0  0  0  0  0  0  0  0  0  0  0  0
   23.4768    8.0638   18.2174 H   0  0  0  0  0  0  0  0  0  0  0  0
   21.3034   11.1060   18.1104 H   0  0  0  0  0  0  0  0  0  0  0  0
  1 11  2  0  0  0  0
  2 12  1  0  0  0  0
  3 13  1  0  0  0  0
  4  6  3  0  0  0  0
  5 11  1  0  0  0  0
  6 15  1  0  0  0  0
  7  8  1  0  0  0  0
  7 12  2  0  0  0  0
  8 14  2  0  0  0  0
  9 13  2  0  0  0  0
  9 14  1  0  0  0  0
 10 14  1  0  0  0  0
 10 15  2  0  0  0  0
 11 15  1  0  0  0  0
 12 13  1  0  0  0  0
  2 16  1  0  0  0  0
  3 17  1  0  0  0  0
  5 18  1  0  0  0  0
  5 19  1  0  0  0  0
  7 20  1  0  0  0  0
  8 21  1  0  0  0  0
  9 22  1  0  0  0  0
 10 23  1  0  0  0  0
M  END
> <pdb_id>
6QS5

> <uniprot_id>
P28523

> <usmiles>
O=C(N)/C(/C#N)=C/c1cc(O)c(O)cc1

$$$$
JHK_A_501
          07202410013D 1   1.00000     0.00000     0
            
 46 49  0  0  0  0            999 V2000
    0.3266  -21.0208  139.2078 O   0  0  0  0  0  0  0  0  0  0  0  0
   -2.6780  -19.1719  139.9560 N   0  0  0  0  0  0  0  0  0  0  0  0
   -4.0291  -24.3147  147.9255 N   0  0  0  0  0  0  0  0  0  0  0  0
   -8.1948  -25.6263  145.3726 N   0  0  0  0  0  0  0  0  0  0  0  0
   -2.3350  -20.2787  139.2532 N   0  0  0  0  0  0  0  0  0  0  0  0
    0.7847  -19.6974  137.4498 N   0  0  0  0  0  0  0  0  0  0  0  0
    0.3603  -18.8580  136.3275 C   0  0  0  0  0  0  0  0  0  0  0  0
    2.2352  -19.7944  137.6126 C   0  0  0  0  0  0  0  0  0  0  0  0
   -4.8135  -25.0261  148.7492 C   0  0  0  0  0  0  0  0  0  0  0  0
   -3.3471  -19.6355  140.9932 C   0  0  0  0  0  0  0  0  0  0  0  0
   -7.7611  -25.7766  146.6195 C   0  0  0  0  0  0  0  0  0  0  0  0
   -4.4602  -24.1137  146.6846 C   0  0  0  0  0  0  0  0  0  0  0  0
   -7.4361  -24.9090  144.5314 C   0  0  0  0  0  0  0  0  0  0  0  0
   -1.5689  -20.1646  138.0232 C   0  0  0  0  0  0  0  0  0  0  0  0
   -2.7892  -21.4094  139.8240 C   0  0  0  0  0  0  0  0  0  0  0  0
   -6.0324  -25.5240  148.4010 C   0  0  0  0  0  0  0  0  0  0  0  0
   -4.3630  -23.2634  141.6999 C   0  0  0  0  0  0  0  0  0  0  0  0
   -4.5962  -21.3870  143.1720 C   0  0  0  0  0  0  0  0  0  0  0  0
   -5.0106  -24.0678  142.6259 C   0  0  0  0  0  0  0  0  0  0  0  0
   -5.2577  -22.1901  144.0849 C   0  0  0  0  0  0  0  0  0  0  0  0
   -0.0699  -20.3312  138.2776 C   0  0  0  0  0  0  0  0  0  0  0  0
   -3.4453  -21.0401  140.9745 C   0  0  0  0  0  0  0  0  0  0  0  0
   -6.4996  -25.3255  147.0816 C   0  0  0  0  0  0  0  0  0  0  0  0
   -4.1388  -21.9081  141.9628 C   0  0  0  0  0  0  0  0  0  0  0  0
   -5.4548  -23.5503  143.8443 C   0  0  0  0  0  0  0  0  0  0  0  0
   -5.6884  -24.5888  146.1720 C   0  0  0  0  0  0  0  0  0  0  0  0
   -6.1717  -24.4020  144.8375 C   0  0  0  0  0  0  0  0  0  0  0  0
   -0.6385  -18.8418  136.2823 H   0  0  0  0  0  0  0  0  0  0  0  0
    0.7033  -17.9278  136.4586 H   0  0  0  0  0  0  0  0  0  0  0  0
    0.7265  -19.2311  135.4750 H   0  0  0  0  0  0  0  0  0  0  0  0
    2.4443  -20.3811  138.3949 H   0  0  0  0  0  0  0  0  0  0  0  0
    2.6380  -20.1859  136.7853 H   0  0  0  0  0  0  0  0  0  0  0  0
    2.6148  -18.8825  137.7689 H   0  0  0  0  0  0  0  0  0  0  0  0
   -4.4827  -25.2016  149.6765 H   0  0  0  0  0  0  0  0  0  0  0  0
   -3.7389  -19.0575  141.7090 H   0  0  0  0  0  0  0  0  0  0  0  0
   -8.3624  -26.2368  147.2727 H   0  0  0  0  0  0  0  0  0  0  0  0
   -3.8729  -23.5882  146.0690 H   0  0  0  0  0  0  0  0  0  0  0  0
   -7.8020  -24.7240  143.6193 H   0  0  0  0  0  0  0  0  0  0  0  0
   -1.7320  -19.2635  137.6214 H   0  0  0  0  0  0  0  0  0  0  0  0
   -1.8708  -20.8734  137.3856 H   0  0  0  0  0  0  0  0  0  0  0  0
   -2.6720  -22.3402  139.4777 H   0  0  0  0  0  0  0  0  0  0  0  0
   -6.5876  -26.0216  149.0674 H   0  0  0  0  0  0  0  0  0  0  0  0
   -4.0529  -23.6569  140.8344 H   0  0  0  0  0  0  0  0  0  0  0  0
   -4.4447  -20.4212  143.3825 H   0  0  0  0  0  0  0  0  0  0  0  0
   -5.1619  -25.0341  142.4175 H   0  0  0  0  0  0  0  0  0  0  0  0
   -5.6010  -21.7876  144.9335 H   0  0  0  0  0  0  0  0  0  0  0  0
  1 21  2  0  0  0  0
  2  5  1  0  0  0  0
  2 10  2  0  0  0  0
  3  9  2  0  0  0  0
  3 12  1  0  0  0  0
  4 11  2  0  0  0  0
  4 13  1  0  0  0  0
  5 14  1  0  0  0  0
  5 15  1  0  0  0  0
  6  7  1  0  0  0  0
  6  8  1  0  0  0  0
  6 21  1  0  0  0  0
  9 16  1  0  0  0  0
 10 22  1  0  0  0  0
 11 23  1  0  0  0  0
 12 26  2  0  0  0  0
 13 27  2  0  0  0  0
 14 21  1  0  0  0  0
 15 22  2  0  0  0  0
 16 23  2  0  0  0  0
 17 19  1  0  0  0  0
 17 24  2  0  0  0  0
 18 20  2  0  0  0  0
 18 24  1  0  0  0  0
 19 25  2  0  0  0  0
 20 25  1  0  0  0  0
 22 24  1  0  0  0  0
 23 26  1  0  0  0  0
 25 27  1  0  0  0  0
 26 27  1  0  0  0  0
  7 28  1  0  0  0  0
  7 29  1  0  0  0  0
  7 30  1  0  0  0  0
  8 31  1  0  0  0  0
  8 32  1  0  0  0  0
  8 33  1  0  0  0  0
  9 34  1  0  0  0  0
 10 35  1  0  0  0  0
 11 36  1  0  0  0  0
 12 37  1  0  0  0  0
 13 38  1  0  0  0  0
 14 39  1  0  0  0  0
 14 40  1  0  0  0  0
 15 41  1  0  0  0  0
 16 42  1  0  0  0  0
 17 43  1  0  0  0  0
 18 44  1  0  0  0  0
 19 45  1  0  0  0  0
 20 46  1  0  0  0  0
M  END
> <pdb_id>
6QTJ

> <uniprot_id>
P49336

> <usmiles>
O=C(N(C)C)CN1N=CC(c2ccc(c3c4c(cnc3)ccnc4)cc2)=C1

$$$$
JHY_B_503
          07192420153D 1   1.00000     0.00000     0
            
 24 25  0  0  0  0            999 V2000
   12.5516  -37.1832   47.7648 Cl  0  0  0  0  0  0  0  0  0  0  0  0
   11.9228  -36.2038   44.8657 Cl  0  0  0  0  0  0  0  0  0  0  0  0
   11.2094  -28.0767   44.7054 O   0  0  0  0  0  0  0  0  0  0  0  0
    9.4340  -29.1982   44.0071 O   0  0  0  0  0  0  0  0  0  0  0  0
    9.5357  -30.6406   49.0585 O   0  0  0  0  0  0  0  0  0  0  0  0
   10.4884  -32.6767   49.2654 O   0  0  0  0  0  0  0  0  0  0  0  0
    9.9839  -31.9863   47.2170 N   0  0  0  0  0  0  0  0  0  0  0  0
    9.6000  -31.0676   46.1419 C   0  0  0  0  0  0  0  0  0  0  0  0
   10.7471  -30.1466   45.7725 C   0  0  0  0  0  0  0  0  0  0  0  0
   11.5114  -34.8532   48.6099 C   0  0  0  0  0  0  0  0  0  0  0  0
   10.8995  -33.9881   45.9881 C   0  0  0  0  0  0  0  0  0  0  0  0
   10.4319  -29.0603   44.7582 C   0  0  0  0  0  0  0  0  0  0  0  0
    9.9374  -31.6450   48.5390 C   0  0  0  0  0  0  0  0  0  0  0  0
   11.8151  -35.6354   47.5170 C   0  0  0  0  0  0  0  0  0  0  0  0
   11.5172  -35.2064   46.2154 C   0  0  0  0  0  0  0  0  0  0  0  0
   10.9007  -33.6404   48.3678 C   0  0  0  0  0  0  0  0  0  0  0  0
   10.6088  -33.2158   47.0894 C   0  0  0  0  0  0  0  0  0  0  0  0
   11.9886  -28.0211   45.3297 H   0  0  0  0  0  0  0  0  0  0  0  0
    8.8234  -30.5159   46.4459 H   0  0  0  0  0  0  0  0  0  0  0  0
    9.3364  -31.5993   45.3370 H   0  0  0  0  0  0  0  0  0  0  0  0
   11.4831  -30.7104   45.3977 H   0  0  0  0  0  0  0  0  0  0  0  0
   11.0625  -29.7004   46.6101 H   0  0  0  0  0  0  0  0  0  0  0  0
   11.7248  -35.1524   49.5399 H   0  0  0  0  0  0  0  0  0  0  0  0
   10.6742  -33.6824   45.0630 H   0  0  0  0  0  0  0  0  0  0  0  0
  1 14  1  0  0  0  0
  2 15  1  0  0  0  0
  3 12  1  0  0  0  0
  4 12  2  0  0  0  0
  5 13  2  0  0  0  0
  6 13  1  0  0  0  0
  6 16  1  0  0  0  0
  7  8  1  0  0  0  0
  7 13  1  0  0  0  0
  7 17  1  0  0  0  0
  8  9  1  0  0  0  0
  9 12  1  0  0  0  0
 10 14  1  0  0  0  0
 10 16  2  0  0  0  0
 11 15  1  0  0  0  0
 11 17  2  0  0  0  0
 14 15  2  0  0  0  0
 16 17  1  0  0  0  0
  3 18  1  0  0  0  0
  8 19  1  0  0  0  0
  8 20  1  0  0  0  0
  9 21  1  0  0  0  0
  9 22  1  0  0  0  0
 10 23  1  0  0  0  0
 11 24  1  0  0  0  0
M  END
> <pdb_id>
5N7T

> <uniprot_id>
Q84HF5

> <usmiles>
Clc1c(Cl)cc2N(C(=O)Oc2c1)CCC(=O)O

$$$$
JIJ_A_803
          07192416573D 1   1.00000     0.00000     0
            
 26 28  0  0  0  0            999 V2000
   19.9697   -3.7614   18.7828 N   0  0  0  0  0  0  0  0  0  0  0  0
   18.8221   -3.2671   20.7180 N   0  0  0  0  0  0  0  0  0  0  0  0
   18.8397   -3.0882   16.6286 N   0  0  0  0  0  0  0  0  0  0  0  0
   16.6773   -2.1877   20.6200 N   0  0  0  0  0  0  0  0  0  0  0  0
   19.8783   -3.7672   20.1071 C   0  0  0  0  0  0  0  0  0  0  0  0
   17.6273   -2.4690   16.3665 C   0  0  0  0  0  0  0  0  0  0  0  0
   16.8056   -1.8012   22.0512 C   0  0  0  0  0  0  0  0  0  0  0  0
   15.9591   -1.1339   19.8433 C   0  0  0  0  0  0  0  0  0  0  0  0
   15.7097   -0.7165   22.2710 C   0  0  0  0  0  0  0  0  0  0  0  0
   14.9709   -0.5539   20.8930 C   0  0  0  0  0  0  0  0  0  0  0  0
   17.0032   -2.1962   17.5282 C   0  0  0  0  0  0  0  0  0  0  0  0
   19.0222   -3.2341   17.9892 C   0  0  0  0  0  0  0  0  0  0  0  0
   17.8308   -2.6947   20.0089 C   0  0  0  0  0  0  0  0  0  0  0  0
   17.8899   -2.6754   18.6032 C   0  0  0  0  0  0  0  0  0  0  0  0
   19.4904   -3.3869   15.9304 H   0  0  0  0  0  0  0  0  0  0  0  0
   20.6221   -4.1569   20.6501 H   0  0  0  0  0  0  0  0  0  0  0  0
   17.2715   -2.2578   15.4561 H   0  0  0  0  0  0  0  0  0  0  0  0
   17.7142   -1.4260   22.2345 H   0  0  0  0  0  0  0  0  0  0  0  0
   16.6446   -2.5897   22.6447 H   0  0  0  0  0  0  0  0  0  0  0  0
   15.4693   -1.5289   19.0660 H   0  0  0  0  0  0  0  0  0  0  0  0
   16.5919   -0.4318   19.5166 H   0  0  0  0  0  0  0  0  0  0  0  0
   16.1289    0.1495   22.5438 H   0  0  0  0  0  0  0  0  0  0  0  0
   15.0659   -1.0121   22.9767 H   0  0  0  0  0  0  0  0  0  0  0  0
   14.1128   -1.0673   20.8905 H   0  0  0  0  0  0  0  0  0  0  0  0
   14.7832    0.4102   20.7054 H   0  0  0  0  0  0  0  0  0  0  0  0
   16.1128   -1.7549   17.6395 H   0  0  0  0  0  0  0  0  0  0  0  0
  1  5  2  0  0  0  0
  1 12  1  0  0  0  0
  2  5  1  0  0  0  0
  2 13  2  0  0  0  0
  3  6  1  0  0  0  0
  3 12  1  0  0  0  0
  4  7  1  0  0  0  0
  4  8  1  0  0  0  0
  4 13  1  0  0  0  0
  6 11  2  0  0  0  0
  7  9  1  0  0  0  0
  8 10  1  0  0  0  0
  9 10  1  0  0  0  0
 11 14  1  0  0  0  0
 12 14  2  0  0  0  0
 13 14  1  0  0  0  0
  3 15  1  0  0  0  0
  5 16  1  0  0  0  0
  6 17  1  0  0  0  0
  7 18  1  0  0  0  0
  7 19  1  0  0  0  0
  8 20  1  0  0  0  0
  8 21  1  0  0  0  0
  9 22  1  0  0  0  0
  9 23  1  0  0  0  0
 10 24  1  0  0  0  0
 10 25  1  0  0  0  0
 11 26  1  0  0  0  0
M  END
> <pdb_id>
5SHQ

> <uniprot_id>
Q9Y233

> <usmiles>
n1c(N2CCCC2)c3c(nc1)NC=C3

$$$$
JJ3_A_1499
          07202400333D 1   1.00000     0.00000     0
            
 46 49  0  0  0  0            999 V2000
   73.5909   35.7964   73.4587 O   0  0  0  0  0  0  0  0  0  0  0  0
   80.7718   42.8161   67.2555 O   0  0  0  0  0  0  0  0  0  0  0  0
   79.6508   40.2109   72.0825 O   0  0  0  0  0  0  0  0  0  0  0  0
   77.2944   39.8546   70.3708 O   0  0  0  0  0  0  0  0  0  0  0  0
   80.4460   40.5062   73.2042 C   0  0  0  0  0  0  0  0  0  0  0  0
   79.1158   41.4544   71.6234 C   0  0  0  0  0  0  0  0  0  0  0  0
   74.7913   40.6193   67.3021 C   0  0  0  0  0  0  0  0  0  0  0  0
   75.1652   37.5578   73.0220 C   0  0  0  0  0  0  0  0  0  0  0  0
   74.4135   36.0979   71.2410 C   0  0  0  0  0  0  0  0  0  0  0  0
   74.9835   39.9635   68.6923 C   0  0  0  0  0  0  0  0  0  0  0  0
   76.1240   40.4489   66.5423 C   0  0  0  0  0  0  0  0  0  0  0  0
   75.9683   38.2489   72.1118 C   0  0  0  0  0  0  0  0  0  0  0  0
   75.2156   36.7899   70.3369 C   0  0  0  0  0  0  0  0  0  0  0  0
   79.9547   42.1440   69.3819 C   0  0  0  0  0  0  0  0  0  0  0  0
   78.9588   41.2358   67.3739 C   0  0  0  0  0  0  0  0  0  0  0  0
   74.3873   36.4804   72.5816 C   0  0  0  0  0  0  0  0  0  0  0  0
   79.9023   42.0693   67.9940 C   0  0  0  0  0  0  0  0  0  0  0  0
   78.1181   40.5525   69.5355 C   0  0  0  0  0  0  0  0  0  0  0  0
   76.8686   38.6270   69.7777 C   0  0  1  0  0  0  0  0  0  0  0  0
   79.0655   41.3851   70.1386 C   0  0  0  0  0  0  0  0  0  0  0  0
   75.9945   37.8694   70.7703 C   0  0  0  0  0  0  0  0  0  0  0  0
   76.0975   38.9024   68.4656 C   0  0  2  0  0  0  0  0  0  0  0  0
   78.0667   40.4719   68.1507 C   0  0  0  0  0  0  0  0  0  0  0  0
   77.0596   39.5724   67.4389 C   0  0  2  0  0  0  0  0  0  0  0  0
   73.0379   35.0278   73.1370 H   0  0  0  0  0  0  0  0  0  0  0  0
   80.7452   42.7722   66.2568 H   0  0  0  0  0  0  0  0  0  0  0  0
   80.8440   39.6616   73.5623 H   0  0  0  0  0  0  0  0  0  0  0  0
   81.1782   41.1331   72.9380 H   0  0  0  0  0  0  0  0  0  0  0  0
   79.8811   40.9339   73.9099 H   0  0  0  0  0  0  0  0  0  0  0  0
   79.7050   42.2091   71.9121 H   0  0  0  0  0  0  0  0  0  0  0  0
   78.1962   41.5896   71.9922 H   0  0  0  0  0  0  0  0  0  0  0  0
   74.5757   41.5903   67.4061 H   0  0  0  0  0  0  0  0  0  0  0  0
   74.0514   40.1649   66.8061 H   0  0  0  0  0  0  0  0  0  0  0  0
   75.1460   37.8314   73.9836 H   0  0  0  0  0  0  0  0  0  0  0  0
   73.8571   35.3277   70.9291 H   0  0  0  0  0  0  0  0  0  0  0  0
   74.1369   39.5283   68.9988 H   0  0  0  0  0  0  0  0  0  0  0  0
   75.2728   40.6422   69.3673 H   0  0  0  0  0  0  0  0  0  0  0  0
   76.5430   41.3424   66.3809 H   0  0  0  0  0  0  0  0  0  0  0  0
   75.9633   39.9931   65.6668 H   0  0  0  0  0  0  0  0  0  0  0  0
   76.5262   39.0181   72.4232 H   0  0  0  0  0  0  0  0  0  0  0  0
   75.2352   36.5149   69.3756 H   0  0  0  0  0  0  0  0  0  0  0  0
   80.6236   42.7360   69.8314 H   0  0  0  0  0  0  0  0  0  0  0  0
   78.9198   41.1842   66.3760 H   0  0  0  0  0  0  0  0  0  0  0  0
   77.6743   38.0729   69.5685 H   0  0  0  0  0  0  0  0  0  0  0  0
   75.7135   38.0570   68.0943 H   0  0  0  0  0  0  0  0  0  0  0  0
   77.5290   38.8806   66.8902 H   0  0  0  0  0  0  0  0  0  0  0  0
  1 16  1  0  0  0  0
  2 17  1  0  0  0  0
  3  5  1  0  0  0  0
  3  6  1  0  0  0  0
  4 18  1  0  0  0  0
  4 19  1  0  0  0  0
  6 20  1  0  0  0  0
  7 10  1  0  0  0  0
  7 11  1  0  0  0  0
  8 12  1  0  0  0  0
  8 16  2  0  0  0  0
  9 13  2  0  0  0  0
  9 16  1  0  0  0  0
 10 22  1  0  0  0  0
 11 24  1  0  0  0  0
 12 21  2  0  0  0  0
 13 21  1  0  0  0  0
 14 17  2  0  0  0  0
 14 20  1  0  0  0  0
 15 17  1  0  0  0  0
 15 23  2  0  0  0  0
 18 20  2  0  0  0  0
 18 23  1  0  0  0  0
 19 21  1  0  0  0  0
 19 22  1  0  0  0  0
 22 24  1  0  0  0  0
 23 24  1  0  0  0  0
  1 25  1  0  0  0  0
  2 26  1  0  0  0  0
  5 27  1  0  0  0  0
  5 28  1  0  0  0  0
  5 29  1  0  0  0  0
  6 30  1  0  0  0  0
  6 31  1  0  0  0  0
  7 32  1  0  0  0  0
  7 33  1  0  0  0  0
  8 34  1  0  0  0  0
  9 35  1  0  0  0  0
 10 36  1  0  0  0  0
 10 37  1  0  0  0  0
 11 38  1  0  0  0  0
 11 39  1  0  0  0  0
 12 40  1  0  0  0  0
 13 41  1  0  0  0  0
 14 42  1  0  0  0  0
 15 43  1  0  0  0  0
 19 44  1  0  0  0  0
 22 45  1  0  0  0  0
 24 46  1  0  0  0  0
M  END
> <pdb_id>
2JJ3

> <uniprot_id>
Q92731

> <usmiles>
O1c2c(cc(O)cc2COC)[C@H]3[C@@H]([C@@H]1c4ccc(O)cc4)CCC3

$$$$
JJD_A_1244
          07192416373D 1   1.00000     0.00000     0
            
 51 53  0  0  0  0            999 V2000
  -10.2413   33.4159    1.1459 F   0  0  0  0  0  0  0  0  0  0  0  0
  -10.8566   35.1704   -0.0269 F   0  0  0  0  0  0  0  0  0  0  0  0
  -10.1911   33.3602   -1.0173 F   0  0  0  0  0  0  0  0  0  0  0  0
   -3.0971   38.4268   -4.1168 O   0  0  0  0  0  0  0  0  0  0  0  0
   -3.8827   39.9641   -5.4591 O   0  0  0  0  0  0  0  0  0  0  0  0
   -6.7127   37.7755   -2.2988 O   0  0  0  0  0  0  0  0  0  0  0  0
   -3.2527   32.9680   -4.0878 O   0  0  0  0  0  0  0  0  0  0  0  0
  -10.0358   35.3359   -9.4569 N   0  0  0  0  0  0  0  0  0  0  0  0
   -5.4383   37.0726   -4.0514 N   0  0  0  0  0  0  0  0  0  0  0  0
   -6.0501   35.6290   -2.3475 N   0  0  0  0  0  0  0  0  0  0  0  0
   -3.5105   33.9156   -6.2330 C   0  0  0  0  0  0  0  0  0  0  0  0
   -4.8957   33.4747   -1.9741 C   0  0  0  0  0  0  0  0  0  0  0  0
   -9.1421   35.3635   -8.7192 C   0  0  0  0  0  0  0  0  0  0  0  0
   -5.4660   38.4459   -4.5293 C   0  0  0  0  0  0  0  0  0  0  0  0
   -6.7949   35.6487    1.3668 C   0  0  0  0  0  0  0  0  0  0  0  0
   -6.1424   35.8422    0.1333 C   0  0  0  0  0  0  0  0  0  0  0  0
   -8.0878   35.0827    1.3576 C   0  0  0  0  0  0  0  0  0  0  0  0
   -6.9684   36.0247   -8.2402 C   0  0  0  0  0  0  0  0  0  0  0  0
   -8.4010   35.0686   -6.5330 C   0  0  0  0  0  0  0  0  0  0  0  0
   -5.9574   36.1486   -7.2749 C   0  0  0  0  0  0  0  0  0  0  0  0
   -7.3831   35.1965   -5.5768 C   0  0  0  0  0  0  0  0  0  0  0  0
   -7.9815   34.8945   -1.0655 C   0  0  0  0  0  0  0  0  0  0  0  0
   -4.0496   38.9865   -4.7053 C   0  0  0  0  0  0  0  0  0  0  0  0
   -6.0821   36.8611   -2.8850 C   0  0  0  0  0  0  0  0  0  0  0  0
   -3.7737   33.8492   -4.7728 C   0  0  0  0  0  0  0  0  0  0  0  0
   -6.7172   35.4716   -1.0847 C   0  0  0  0  0  0  0  0  0  0  0  0
   -5.2199   34.6505   -2.8462 C   0  0  0  0  0  0  0  0  0  0  0  0
   -5.0525   35.9599   -4.9438 C   0  0  2  0  0  0  0  0  0  0  0  0
   -8.1979   35.4663   -7.8546 C   0  0  0  0  0  0  0  0  0  0  0  0
   -6.1454   35.7420   -5.9515 C   0  0  0  0  0  0  0  0  0  0  0  0
   -8.6577   34.7070    0.1295 C   0  0  0  0  0  0  0  0  0  0  0  0
   -4.7010   34.7640   -4.1101 C   0  0  0  0  0  0  0  0  0  0  0  0
  -10.0338   34.1259    0.0527 C   0  0  0  0  0  0  0  0  0  0  0  0
   -3.2694   37.6440   -3.5189 H   0  0  0  0  0  0  0  0  0  0  0  0
   -4.0105   34.6867   -6.6271 H   0  0  0  0  0  0  0  0  0  0  0  0
   -2.5306   34.0385   -6.3898 H   0  0  0  0  0  0  0  0  0  0  0  0
   -3.8132   33.0661   -6.6652 H   0  0  0  0  0  0  0  0  0  0  0  0
   -4.2874   32.8522   -2.4664 H   0  0  0  0  0  0  0  0  0  0  0  0
   -4.4438   33.7925   -1.1405 H   0  0  0  0  0  0  0  0  0  0  0  0
   -5.7397   32.9953   -1.7336 H   0  0  0  0  0  0  0  0  0  0  0  0
   -5.9539   39.0139   -3.8665 H   0  0  0  0  0  0  0  0  0  0  0  0
   -5.9408   38.4775   -5.4088 H   0  0  0  0  0  0  0  0  0  0  0  0
   -6.3536   35.9058    2.2266 H   0  0  0  0  0  0  0  0  0  0  0  0
   -5.2340   36.2603    0.1295 H   0  0  0  0  0  0  0  0  0  0  0  0
   -8.5904   34.9510    2.2119 H   0  0  0  0  0  0  0  0  0  0  0  0
   -6.8168   36.3272   -9.1813 H   0  0  0  0  0  0  0  0  0  0  0  0
   -9.2851   34.6869   -6.2635 H   0  0  0  0  0  0  0  0  0  0  0  0
   -5.0765   36.5394   -7.5420 H   0  0  0  0  0  0  0  0  0  0  0  0
   -7.5382   34.9010   -4.6341 H   0  0  0  0  0  0  0  0  0  0  0  0
   -8.4082   34.6112   -1.9243 H   0  0  0  0  0  0  0  0  0  0  0  0
   -4.2303   36.2379   -5.4405 H   0  0  0  0  0  0  0  0  0  0  0  0
  1 33  1  0  0  0  0
  2 33  1  0  0  0  0
  3 33  1  0  0  0  0
  4 23  1  0  0  0  0
  5 23  2  0  0  0  0
  6 24  2  0  0  0  0
  7 25  2  0  0  0  0
  8 13  3  0  0  0  0
  9 14  1  0  0  0  0
  9 24  1  0  0  0  0
  9 28  1  0  0  0  0
 10 24  1  0  0  0  0
 10 26  1  0  0  0  0
 10 27  1  0  0  0  0
 11 25  1  0  0  0  0
 12 27  1  0  0  0  0
 13 29  1  0  0  0  0
 14 23  1  0  0  0  0
 15 16  2  0  0  0  0
 15 17  1  0  0  0  0
 16 26  1  0  0  0  0
 17 31  2  0  0  0  0
 18 20  1  0  0  0  0
 18 29  2  0  0  0  0
 19 21  2  0  0  0  0
 19 29  1  0  0  0  0
 20 30  2  0  0  0  0
 21 30  1  0  0  0  0
 22 26  2  0  0  0  0
 22 31  1  0  0  0  0
 25 32  1  0  0  0  0
 27 32  2  0  0  0  0
 28 30  1  0  0  0  0
 28 32  1  0  0  0  0
 31 33  1  0  0  0  0
  4 34  1  0  0  0  0
 11 35  1  0  0  0  0
 11 36  1  0  0  0  0
 11 37  1  0  0  0  0
 12 38  1  0  0  0  0
 12 39  1  0  0  0  0
 12 40  1  0  0  0  0
 14 41  1  0  0  0  0
 14 42  1  0  0  0  0
 15 43  1  0  0  0  0
 16 44  1  0  0  0  0
 17 45  1  0  0  0  0
 18 46  1  0  0  0  0
 19 47  1  0  0  0  0
 20 48  1  0  0  0  0
 21 49  1  0  0  0  0
 22 50  1  0  0  0  0
 28 51  1  0  0  0  0
M  END
> <pdb_id>
5A09

> <uniprot_id>
P08246

> <usmiles>
FC(F)(F)c1cc(N2C(=O)N([C@H](c3ccc(C#N)cc3)C(C(=O)C)=C2C)CC(=O)O)ccc1

$$$$
JJE_A_403
          07212403373D 1   1.00000     0.00000     0
            
 53 55  0  0  0  0            999 V2000
   30.6100   -7.2660  -24.4250 Cl  0  0  0  0  0  0  0  0  0  0  0  0
   32.9990   -7.7300  -20.0120 F   0  0  0  0  0  0  0  0  0  0  0  0
   32.5250  -14.4380  -20.4260 F   0  0  0  0  0  0  0  0  0  0  0  0
   35.3410   -8.7360  -23.8410 F   0  0  0  0  0  0  0  0  0  0  0  0
   35.9000   -9.0050  -25.9010 F   0  0  0  0  0  0  0  0  0  0  0  0
   33.9640   -8.2430  -25.3700 F   0  0  0  0  0  0  0  0  0  0  0  0
   34.4380  -18.7200  -24.9710 O   0  0  0  0  0  0  0  0  0  0  0  0
   34.8580  -15.6480  -20.7130 O   0  0  0  0  0  0  0  0  0  0  0  0
   30.9850   -9.7040  -20.7380 O   0  0  0  0  0  0  0  0  0  0  0  0
   33.2830  -10.4200  -24.0690 O   0  0  0  0  0  0  0  0  0  0  0  0
   34.0810  -15.3840  -23.8790 N   0  0  0  0  0  0  0  0  0  0  0  0
   32.2220   -8.7580  -22.3450 N   0  0  0  0  0  0  0  0  0  0  0  0
   34.0340  -14.9220  -22.7410 N   0  0  0  0  0  0  0  0  0  0  0  0
   35.0990  -16.7750  -22.6390 N   0  0  0  0  0  0  0  0  0  0  0  0
   34.9280  -19.1040  -21.8110 C   0  0  0  0  0  0  0  0  0  0  0  0
   33.9480  -10.9040  -26.3560 C   0  0  0  0  0  0  0  0  0  0  0  0
   34.9870  -17.4250  -25.1100 C   0  0  0  0  0  0  0  0  0  0  0  0
   35.8550  -17.9360  -22.1550 C   0  0  0  0  0  0  0  0  0  0  0  0
   31.2950   -4.8530  -21.3620 C   0  0  0  0  0  0  0  0  0  0  0  0
   30.8660   -5.3610  -22.5730 C   0  0  0  0  0  0  0  0  0  0  0  0
   32.0130   -5.6640  -20.5060 C   0  0  0  0  0  0  0  0  0  0  0  0
   32.2000  -12.2220  -21.1130 C   0  0  0  0  0  0  0  0  0  0  0  0
   33.6440  -12.7060  -23.3710 C   0  0  0  0  0  0  0  0  0  0  0  0
   34.6840  -15.7530  -21.9170 C   0  0  0  0  0  0  0  0  0  0  0  0
   31.1620   -6.6710  -22.9220 C   0  0  0  0  0  0  0  0  0  0  0  0
   31.7680   -9.8070  -21.6640 C   0  0  0  0  0  0  0  0  0  0  0  0
   32.3030   -6.9700  -20.8580 C   0  0  0  0  0  0  0  0  0  0  0  0
   32.7290  -13.4810  -21.3280 C   0  0  0  0  0  0  0  0  0  0  0  0
   34.7280  -16.5420  -23.8850 C   0  0  0  0  0  0  0  0  0  0  0  0
   33.1190  -11.4310  -23.1670 C   0  0  0  0  0  0  0  0  0  0  0  0
   34.3890  -10.4720  -24.9610 C   0  0  1  0  0  0  0  0  0  0  0  0
   33.4720  -13.7410  -22.4630 C   0  0  0  0  0  0  0  0  0  0  0  0
   31.8680   -7.4990  -22.0630 C   0  0  0  0  0  0  0  0  0  0  0  0
   32.3560  -11.1900  -22.0280 C   0  0  0  0  0  0  0  0  0  0  0  0
   34.9230   -9.0580  -25.0320 C   0  0  0  0  0  0  0  0  0  0  0  0
   34.6333  -19.2548  -25.7931 H   0  0  0  0  0  0  0  0  0  0  0  0
   32.8562   -8.9178  -23.1015 H   0  0  0  0  0  0  0  0  0  0  0  0
   35.4725  -19.8769  -21.4853 H   0  0  0  0  0  0  0  0  0  0  0  0
   34.2881  -18.8223  -21.0961 H   0  0  0  0  0  0  0  0  0  0  0  0
   34.4177  -19.3760  -22.6268 H   0  0  0  0  0  0  0  0  0  0  0  0
   34.7424  -10.9326  -26.9628 H   0  0  0  0  0  0  0  0  0  0  0  0
   33.5325  -11.8123  -26.3079 H   0  0  0  0  0  0  0  0  0  0  0  0
   33.2801  -10.2503  -26.7118 H   0  0  0  0  0  0  0  0  0  0  0  0
   34.5791  -16.9883  -25.9118 H   0  0  0  0  0  0  0  0  0  0  0  0
   35.9747  -17.5081  -25.2421 H   0  0  0  0  0  0  0  0  0  0  0  0
   36.3648  -17.6734  -21.3358 H   0  0  0  0  0  0  0  0  0  0  0  0
   36.4945  -18.2272  -22.8665 H   0  0  0  0  0  0  0  0  0  0  0  0
   31.0877   -3.9082  -21.1082 H   0  0  0  0  0  0  0  0  0  0  0  0
   30.3414   -4.7839  -23.1989 H   0  0  0  0  0  0  0  0  0  0  0  0
   32.3253   -5.3052  -19.6264 H   0  0  0  0  0  0  0  0  0  0  0  0
   31.6885  -12.0493  -20.2712 H   0  0  0  0  0  0  0  0  0  0  0  0
   34.1658  -12.8820  -24.2057 H   0  0  0  0  0  0  0  0  0  0  0  0
   35.0907  -11.0920  -24.6100 H   0  0  0  0  0  0  0  0  0  0  0  0
  1 25  1  0  0  0  0
  2 27  1  0  0  0  0
  3 28  1  0  0  0  0
  4 35  1  0  0  0  0
  5 35  1  0  0  0  0
  6 35  1  0  0  0  0
  7 17  1  0  0  0  0
  8 24  2  0  0  0  0
  9 26  2  0  0  0  0
 10 30  1  0  0  0  0
 10 31  1  0  0  0  0
 11 13  1  0  0  0  0
 11 29  2  0  0  0  0
 12 26  1  0  0  0  0
 12 33  1  0  0  0  0
 13 24  1  0  0  0  0
 13 32  1  0  0  0  0
 14 18  1  0  0  0  0
 14 24  1  0  0  0  0
 14 29  1  0  0  0  0
 15 18  1  0  0  0  0
 16 31  1  0  0  0  0
 17 29  1  0  0  0  0
 19 20  2  0  0  0  0
 19 21  1  0  0  0  0
 20 25  1  0  0  0  0
 21 27  2  0  0  0  0
 22 28  1  0  0  0  0
 22 34  2  0  0  0  0
 23 30  2  0  0  0  0
 23 32  1  0  0  0  0
 25 33  2  0  0  0  0
 26 34  1  0  0  0  0
 27 33  1  0  0  0  0
 28 32  2  0  0  0  0
 30 34  1  0  0  0  0
 31 35  1  0  0  0  0
  7 36  1  0  0  0  0
 12 37  1  0  0  0  0
 15 38  1  0  0  0  0
 15 39  1  0  0  0  0
 15 40  1  0  0  0  0
 16 41  1  0  0  0  0
 16 42  1  0  0  0  0
 16 43  1  0  0  0  0
 17 44  1  0  0  0  0
 17 45  1  0  0  0  0
 18 46  1  0  0  0  0
 18 47  1  0  0  0  0
 19 48  1  0  0  0  0
 20 49  1  0  0  0  0
 21 50  1  0  0  0  0
 22 51  1  0  0  0  0
 23 52  1  0  0  0  0
 31 53  1  0  0  0  0
M  END
> <pdb_id>
6QU7

> <uniprot_id>
Q02127

> <usmiles>
Clc1c(NC(=O)c2c(O[C@H](C(F)(F)F)C)cc(N3N=C(N(C3=O)CC)CO)c(F)c2)c(F)ccc1

$$$$
JJS_E_1244
          07192416373D 1   1.00000     0.00000     0
            
 44 46  0  0  0  0            999 V2000
  -10.4081   33.3691    1.2625 F   0  0  0  0  0  0  0  0  0  0  0  0
  -11.0106   35.0701    0.0530 F   0  0  0  0  0  0  0  0  0  0  0  0
  -10.2930   33.2931   -0.8588 F   0  0  0  0  0  0  0  0  0  0  0  0
   -6.6389   37.7231   -2.1083 O   0  0  0  0  0  0  0  0  0  0  0  0
   -3.3645   32.7660   -3.9574 O   0  0  0  0  0  0  0  0  0  0  0  0
  -10.0867   35.5795   -9.1118 N   0  0  0  0  0  0  0  0  0  0  0  0
   -7.1416   36.4555   -7.8080 N   0  0  0  0  0  0  0  0  0  0  0  0
   -5.3656   37.0758   -3.8233 N   0  0  0  0  0  0  0  0  0  0  0  0
   -6.0058   35.6001   -2.1331 N   0  0  0  0  0  0  0  0  0  0  0  0
   -3.5334   33.8716   -6.0494 C   0  0  0  0  0  0  0  0  0  0  0  0
   -4.9735   33.3745   -1.8085 C   0  0  0  0  0  0  0  0  0  0  0  0
   -9.2245   35.6186   -8.3401 C   0  0  0  0  0  0  0  0  0  0  0  0
   -6.0794   36.5051   -6.8862 C   0  0  0  0  0  0  0  0  0  0  0  0
   -6.8900   35.6156    1.5149 C   0  0  0  0  0  0  0  0  0  0  0  0
   -8.2966   34.9575   -6.2862 C   0  0  0  0  0  0  0  0  0  0  0  0
   -6.1867   35.8193    0.3259 C   0  0  0  0  0  0  0  0  0  0  0  0
   -8.1633   35.0423    1.4445 C   0  0  0  0  0  0  0  0  0  0  0  0
   -7.2574   35.0311   -5.3747 C   0  0  0  0  0  0  0  0  0  0  0  0
   -8.0213   34.8478   -0.9568 C   0  0  0  0  0  0  0  0  0  0  0  0
   -6.0220   36.8376   -2.6699 C   0  0  0  0  0  0  0  0  0  0  0  0
   -3.8388   33.7127   -4.5743 C   0  0  0  0  0  0  0  0  0  0  0  0
   -8.2512   35.6709   -7.4904 C   0  0  0  0  0  0  0  0  0  0  0  0
   -4.9952   35.9595   -4.7102 C   0  0  2  0  0  0  0  0  0  0  0  0
   -5.2313   34.6032   -2.6615 C   0  0  0  0  0  0  0  0  0  0  0  0
   -6.7359   35.4288   -0.9114 C   0  0  0  0  0  0  0  0  0  0  0  0
   -6.1347   35.8158   -5.6722 C   0  0  0  0  0  0  0  0  0  0  0  0
   -8.7344   34.6710    0.2210 C   0  0  0  0  0  0  0  0  0  0  0  0
   -4.7053   34.7241   -3.9110 C   0  0  0  0  0  0  0  0  0  0  0  0
  -10.1419   34.0775    0.1766 C   0  0  0  0  0  0  0  0  0  0  0  0
   -5.1294   38.0136   -4.0776 H   0  0  0  0  0  0  0  0  0  0  0  0
   -3.9935   34.6877   -6.3990 H   0  0  0  0  0  0  0  0  0  0  0  0
   -2.5460   33.9650   -6.1772 H   0  0  0  0  0  0  0  0  0  0  0  0
   -3.8591   33.0669   -6.5457 H   0  0  0  0  0  0  0  0  0  0  0  0
   -4.3978   32.7322   -2.3145 H   0  0  0  0  0  0  0  0  0  0  0  0
   -4.5090   33.6455   -0.9654 H   0  0  0  0  0  0  0  0  0  0  0  0
   -5.8437   32.9363   -1.5835 H   0  0  0  0  0  0  0  0  0  0  0  0
   -5.2670   37.0456   -7.1050 H   0  0  0  0  0  0  0  0  0  0  0  0
   -6.4925   35.8735    2.3956 H   0  0  0  0  0  0  0  0  0  0  0  0
   -9.0916   34.3864   -6.0817 H   0  0  0  0  0  0  0  0  0  0  0  0
   -5.2833   36.2471    0.3529 H   0  0  0  0  0  0  0  0  0  0  0  0
   -8.6788   34.8938    2.2884 H   0  0  0  0  0  0  0  0  0  0  0  0
   -7.3072   34.5288   -4.5114 H   0  0  0  0  0  0  0  0  0  0  0  0
   -8.4156   34.5654   -1.8313 H   0  0  0  0  0  0  0  0  0  0  0  0
   -4.1734   36.2129   -5.2203 H   0  0  0  0  0  0  0  0  0  0  0  0
  1 29  1  0  0  0  0
  2 29  1  0  0  0  0
  3 29  1  0  0  0  0
  4 20  2  0  0  0  0
  5 21  2  0  0  0  0
  6 12  3  0  0  0  0
  7 13  1  0  0  0  0
  7 22  2  0  0  0  0
  8 20  1  0  0  0  0
  8 23  1  0  0  0  0
  9 20  1  0  0  0  0
  9 24  1  0  0  0  0
  9 25  1  0  0  0  0
 10 21  1  0  0  0  0
 11 24  1  0  0  0  0
 12 22  1  0  0  0  0
 13 26  2  0  0  0  0
 14 16  2  0  0  0  0
 14 17  1  0  0  0  0
 15 18  2  0  0  0  0
 15 22  1  0  0  0  0
 16 25  1  0  0  0  0
 17 27  2  0  0  0  0
 18 26  1  0  0  0  0
 19 25  2  0  0  0  0
 19 27  1  0  0  0  0
 21 28  1  0  0  0  0
 23 26  1  0  0  0  0
 23 28  1  0  0  0  0
 24 28  2  0  0  0  0
 27 29  1  0  0  0  0
  8 30  1  0  0  0  0
 10 31  1  0  0  0  0
 10 32  1  0  0  0  0
 10 33  1  0  0  0  0
 11 34  1  0  0  0  0
 11 35  1  0  0  0  0
 11 36  1  0  0  0  0
 13 37  1  0  0  0  0
 14 38  1  0  0  0  0
 15 39  1  0  0  0  0
 16 40  1  0  0  0  0
 17 41  1  0  0  0  0
 18 42  1  0  0  0  0
 19 43  1  0  0  0  0
 23 44  1  0  0  0  0
M  END
> <pdb_id>
5A0A

> <uniprot_id>
P08246

> <usmiles>
FC(F)(F)c1cc(N2C(=O)N[C@H](c3cnc(C#N)cc3)C(C(=O)C)=C2C)ccc1

$$$$
JJV_B_1001
          07192416373D 1   1.00000     0.00000     0
            
 47 49  0  0  0  0            999 V2000
   -4.2912   36.7132   -7.9261 S   0  0  0  0  0  0  0  0  0  0  0  0
  -10.2431   33.3686    1.2514 F   0  0  0  0  0  0  0  0  0  0  0  0
  -10.7672   35.0544    0.0920 F   0  0  0  0  0  0  0  0  0  0  0  0
  -10.1586   33.3016   -0.9522 F   0  0  0  0  0  0  0  0  0  0  0  0
   -4.5492   37.0620   -9.3128 O   0  0  0  0  0  0  0  0  0  0  0  0
   -3.4546   35.3684   -8.2099 O   0  0  0  0  0  0  0  0  0  0  0  0
   -6.4468   37.6586   -2.1530 O   0  0  0  0  0  0  0  0  0  0  0  0
  -10.2664   35.5109   -9.3429 N   0  0  0  0  0  0  0  0  0  0  0  0
   -3.5394   32.6815   -5.3177 N   0  0  0  0  0  0  0  0  0  0  0  0
   -5.4223   36.9463   -4.0439 N   0  0  0  0  0  0  0  0  0  0  0  0
   -5.8142   35.5119   -2.1800 N   0  0  0  0  0  0  0  0  0  0  0  0
   -3.5131   37.5188   -6.8823 C   0  0  0  0  0  0  0  0  0  0  0  0
   -4.9981   33.1697   -2.0378 C   0  0  0  0  0  0  0  0  0  0  0  0
   -9.3771   35.5462   -8.6651 C   0  0  0  0  0  0  0  0  0  0  0  0
   -4.0286   33.5322   -4.7663 C   0  0  0  0  0  0  0  0  0  0  0  0
   -6.6789   35.6472    1.4416 C   0  0  0  0  0  0  0  0  0  0  0  0
   -5.9156   35.7784    0.2589 C   0  0  0  0  0  0  0  0  0  0  0  0
   -7.9272   35.0458    1.4310 C   0  0  0  0  0  0  0  0  0  0  0  0
   -8.3355   35.1747   -6.4773 C   0  0  0  0  0  0  0  0  0  0  0  0
   -7.2877   35.2536   -5.5797 C   0  0  0  0  0  0  0  0  0  0  0  0
   -7.0157   36.0599   -8.2270 C   0  0  0  0  0  0  0  0  0  0  0  0
   -7.7052   34.8282   -0.9386 C   0  0  0  0  0  0  0  0  0  0  0  0
   -5.9116   36.7420   -2.7785 C   0  0  0  0  0  0  0  0  0  0  0  0
   -5.8911   36.0948   -7.3265 C   0  0  0  0  0  0  0  0  0  0  0  0
   -6.4372   35.3771   -0.9331 C   0  0  0  0  0  0  0  0  0  0  0  0
   -5.1081   34.4888   -2.7726 C   0  0  0  0  0  0  0  0  0  0  0  0
   -4.8904   35.8290   -4.8774 C   0  0  1  0  0  0  0  0  0  0  0  0
   -8.2248   35.5885   -7.7709 C   0  0  0  0  0  0  0  0  0  0  0  0
   -4.6441   34.6001   -4.0579 C   0  0  0  0  0  0  0  0  0  0  0  0
   -6.0333   35.7400   -5.9741 C   0  0  0  0  0  0  0  0  0  0  0  0
   -8.5074   34.6859    0.1867 C   0  0  0  0  0  0  0  0  0  0  0  0
   -9.9155   34.0769    0.1217 C   0  0  0  0  0  0  0  0  0  0  0  0
   -5.4221   37.8732   -4.4193 H   0  0  0  0  0  0  0  0  0  0  0  0
   -3.5048   37.0207   -6.0152 H   0  0  0  0  0  0  0  0  0  0  0  0
   -2.5740   37.6542   -7.1980 H   0  0  0  0  0  0  0  0  0  0  0  0
   -3.9524   38.4076   -6.7520 H   0  0  0  0  0  0  0  0  0  0  0  0
   -4.4614   32.5272   -2.5847 H   0  0  0  0  0  0  0  0  0  0  0  0
   -4.5474   33.3153   -1.1571 H   0  0  0  0  0  0  0  0  0  0  0  0
   -5.9129   32.7952   -1.8863 H   0  0  0  0  0  0  0  0  0  0  0  0
   -6.3104   35.9956    2.3035 H   0  0  0  0  0  0  0  0  0  0  0  0
   -4.9942   36.1651    0.2977 H   0  0  0  0  0  0  0  0  0  0  0  0
   -8.4121   34.8679    2.2873 H   0  0  0  0  0  0  0  0  0  0  0  0
   -9.2084   34.7994   -6.1656 H   0  0  0  0  0  0  0  0  0  0  0  0
   -7.4264   34.9593   -4.6342 H   0  0  0  0  0  0  0  0  0  0  0  0
   -6.9183   36.3743   -9.1712 H   0  0  0  0  0  0  0  0  0  0  0  0
   -8.0710   34.5114   -1.8136 H   0  0  0  0  0  0  0  0  0  0  0  0
   -4.0361   36.1158   -5.3108 H   0  0  0  0  0  0  0  0  0  0  0  0
  1  5  2  0  0  0  0
  1  6  2  0  0  0  0
  1 12  1  0  0  0  0
  1 24  1  0  0  0  0
  2 32  1  0  0  0  0
  3 32  1  0  0  0  0
  4 32  1  0  0  0  0
  7 23  2  0  0  0  0
  8 14  3  0  0  0  0
  9 15  3  0  0  0  0
 10 23  1  0  0  0  0
 10 27  1  0  0  0  0
 11 23  1  0  0  0  0
 11 25  1  0  0  0  0
 11 26  1  0  0  0  0
 13 26  1  0  0  0  0
 14 28  1  0  0  0  0
 15 29  1  0  0  0  0
 16 17  2  0  0  0  0
 16 18  1  0  0  0  0
 17 25  1  0  0  0  0
 18 31  2  0  0  0  0
 19 20  1  0  0  0  0
 19 28  2  0  0  0  0
 20 30  2  0  0  0  0
 21 24  2  0  0  0  0
 21 28  1  0  0  0  0
 22 25  2  0  0  0  0
 22 31  1  0  0  0  0
 24 30  1  0  0  0  0
 26 29  2  0  0  0  0
 27 29  1  0  0  0  0
 27 30  1  0  0  0  0
 31 32  1  0  0  0  0
 10 33  1  0  0  0  0
 12 34  1  0  0  0  0
 12 35  1  0  0  0  0
 12 36  1  0  0  0  0
 13 37  1  0  0  0  0
 13 38  1  0  0  0  0
 13 39  1  0  0  0  0
 16 40  1  0  0  0  0
 17 41  1  0  0  0  0
 18 42  1  0  0  0  0
 19 43  1  0  0  0  0
 20 44  1  0  0  0  0
 21 45  1  0  0  0  0
 22 46  1  0  0  0  0
 27 47  1  0  0  0  0
M  END
> <pdb_id>
5A0C

> <uniprot_id>
P08246

> <usmiles>
S(=O)(=O)(c1c(ccc(C#N)c1)[C@H]2NC(=O)N(c3cc(ccc3)C(F)(F)F)C(=C2C#N)C)C

$$$$
JK3_A_500
          07192416213D 1   1.00000     0.00000     0
            
 44 46  0  0  0  0            999 V2000
   19.9046   13.6837   32.6227 Br  0  0  0  0  0  0  0  0  0  0  0  0
   25.5308    7.9728   28.4416 Cl  0  0  0  0  0  0  0  0  0  0  0  0
   19.8491    7.0985   32.6187 O   0  0  0  0  0  0  0  0  0  0  0  0
   20.2463   10.6536   32.3720 O   0  0  0  0  0  0  0  0  0  0  0  0
   21.4349    8.3517   31.4702 N   0  0  0  0  0  0  0  0  0  0  0  0
   23.7546   12.2959   30.2884 N   0  0  0  0  0  0  0  0  0  0  0  0
   23.5004    9.4215   30.0051 N   0  0  0  0  0  0  0  0  0  0  0  0
   22.0214   15.1720   30.7195 C   0  0  0  0  0  0  0  0  0  0  0  0
   24.6363   11.3575   30.9934 C   0  0  0  0  0  0  0  0  0  0  0  0
   23.2675   11.8173   28.9021 C   0  0  0  0  0  0  0  0  0  0  0  0
   24.0696   13.7963   30.4369 C   0  0  0  0  0  0  0  0  0  0  0  0
   23.9647   10.0855   31.2297 C   0  0  0  0  0  0  0  0  0  0  0  0
   23.1626   10.2168   28.7471 C   0  0  0  0  0  0  0  0  0  0  0  0
   23.1117   14.6685   31.2614 C   0  0  0  0  0  0  0  0  0  0  0  0
   23.0585    5.2073   30.2374 C   0  0  0  0  0  0  0  0  0  0  0  0
   24.1255    5.7786   29.4670 C   0  0  0  0  0  0  0  0  0  0  0  0
   18.3850   11.1561   33.5986 C   0  0  0  0  0  0  0  0  0  0  0  0
   22.1450    6.0286   30.9133 C   0  0  0  0  0  0  0  0  0  0  0  0
   18.4627    9.7607   33.5307 C   0  0  0  0  0  0  0  0  0  0  0  0
   19.4752   11.7725   32.8887 C   0  0  0  0  0  0  0  0  0  0  0  0
   20.2758    8.1495   32.3091 C   0  0  0  0  0  0  0  0  0  0  0  0
   24.2450    7.1840   29.3934 C   0  0  0  0  0  0  0  0  0  0  0  0
   19.6686    9.4673   32.7371 C   0  0  0  0  0  0  0  0  0  0  0  0
   22.2863    7.3942   30.8232 C   0  0  0  0  0  0  0  0  0  0  0  0
   23.3535    7.9791   30.0373 C   0  0  0  0  0  0  0  0  0  0  0  0
   21.6826    9.3082   31.3164 H   0  0  0  0  0  0  0  0  0  0  0  0
   21.4061   15.7384   31.2678 H   0  0  0  0  0  0  0  0  0  0  0  0
   21.8091   14.9878   29.7598 H   0  0  0  0  0  0  0  0  0  0  0  0
   24.9015   11.7552   31.8717 H   0  0  0  0  0  0  0  0  0  0  0  0
   25.4534   11.1977   30.4394 H   0  0  0  0  0  0  0  0  0  0  0  0
   23.9067   12.1568   28.2120 H   0  0  0  0  0  0  0  0  0  0  0  0
   22.3614   12.2072   28.7376 H   0  0  0  0  0  0  0  0  0  0  0  0
   24.1023   14.1836   29.5156 H   0  0  0  0  0  0  0  0  0  0  0  0
   24.9725   13.8677   30.8608 H   0  0  0  0  0  0  0  0  0  0  0  0
   24.6036    9.4741   31.6965 H   0  0  0  0  0  0  0  0  0  0  0  0
   23.1729   10.2520   31.8173 H   0  0  0  0  0  0  0  0  0  0  0  0
   22.2253    9.9921   28.4807 H   0  0  0  0  0  0  0  0  0  0  0  0
   23.7919    9.9337   28.0232 H   0  0  0  0  0  0  0  0  0  0  0  0
   23.3179   14.8566   32.2216 H   0  0  0  0  0  0  0  0  0  0  0  0
   22.9653    4.2132   30.2928 H   0  0  0  0  0  0  0  0  0  0  0  0
   24.7763    5.1893   28.9882 H   0  0  0  0  0  0  0  0  0  0  0  0
   17.6660   11.6596   34.0777 H   0  0  0  0  0  0  0  0  0  0  0  0
   21.4034    5.6287   31.4518 H   0  0  0  0  0  0  0  0  0  0  0  0
   17.8311    9.1002   33.9365 H   0  0  0  0  0  0  0  0  0  0  0  0
  1 20  1  0  0  0  0
  2 22  1  0  0  0  0
  3 21  2  0  0  0  0
  4 20  1  0  0  0  0
  4 23  1  0  0  0  0
  5 21  1  0  0  0  0
  5 24  1  0  0  0  0
  6  9  1  0  0  0  0
  6 10  1  0  0  0  0
  6 11  1  0  0  0  0
  7 12  1  0  0  0  0
  7 13  1  0  0  0  0
  7 25  1  0  0  0  0
  8 14  2  0  0  0  0
  9 12  1  0  0  0  0
 10 13  1  0  0  0  0
 11 14  1  0  0  0  0
 15 16  2  0  0  0  0
 15 18  1  0  0  0  0
 16 22  1  0  0  0  0
 17 19  1  0  0  0  0
 17 20  2  0  0  0  0
 18 24  2  0  0  0  0
 19 23  2  0  0  0  0
 21 23  1  0  0  0  0
 22 25  2  0  0  0  0
 24 25  1  0  0  0  0
  5 26  1  0  0  0  0
  8 27  1  0  0  0  0
  8 28  1  0  0  0  0
  9 29  1  0  0  0  0
  9 30  1  0  0  0  0
 10 31  1  0  0  0  0
 10 32  1  0  0  0  0
 11 33  1  0  0  0  0
 11 34  1  0  0  0  0
 12 35  1  0  0  0  0
 12 36  1  0  0  0  0
 13 37  1  0  0  0  0
 13 38  1  0  0  0  0
 14 39  1  0  0  0  0
 15 40  1  0  0  0  0
 16 41  1  0  0  0  0
 17 42  1  0  0  0  0
 18 43  1  0  0  0  0
 19 44  1  0  0  0  0
M  END
> <pdb_id>
3FV8

> <uniprot_id>
P53779

> <usmiles>
BrC=1OC(C(=O)Nc2c(N3CCN(CC=C)CC3)c(Cl)ccc2)=CC1

$$$$
JKK_A_701
          07202415133D 1   1.00000     0.00000     0
            
 27 27  0  0  0  0            999 V2000
   -4.6950   -5.4100  -41.4650 Cl  0  0  0  0  0  0  0  0  0  0  0  0
   -2.8460   -5.3870  -32.8840 S   0  0  0  0  0  0  0  0  0  0  0  0
   -2.5600   -4.1200  -33.5440 O   0  0  0  0  0  0  0  0  0  0  0  0
   -3.8380   -5.1750  -31.8130 O   0  0  0  0  0  0  0  0  0  0  0  0
   -1.6220   -5.9640  -32.3010 O   0  0  0  0  0  0  0  0  0  0  0  0
   -5.0980   -6.8220  -35.9800 N   0  0  0  0  0  0  0  0  0  0  0  0
   -3.4860   -6.5060  -34.1100 C   0  0  0  0  0  0  0  0  0  0  0  0
   -4.7930   -6.0900  -34.8030 C   0  0  0  0  0  0  0  0  0  0  0  0
   -6.3190   -6.3720  -36.6020 C   0  0  0  0  0  0  0  0  0  0  0  0
   -7.2120   -8.0560  -39.9300 C   0  0  0  0  0  0  0  0  0  0  0  0
   -6.4430   -7.3280  -40.8120 C   0  0  0  0  0  0  0  0  0  0  0  0
   -7.1700   -7.7390  -38.5440 C   0  0  0  0  0  0  0  0  0  0  0  0
   -5.6290   -6.0220  -39.0290 C   0  0  0  0  0  0  0  0  0  0  0  0
   -5.6630   -6.3310  -40.3900 C   0  0  0  0  0  0  0  0  0  0  0  0
   -6.4070   -6.7490  -38.1360 C   0  0  0  0  0  0  0  0  0  0  0  0
   -1.8874   -4.2664  -34.2694 H   0  0  0  0  0  0  0  0  0  0  0  0
   -5.1953   -7.7883  -35.7418 H   0  0  0  0  0  0  0  0  0  0  0  0
   -3.6458   -7.3865  -33.6637 H   0  0  0  0  0  0  0  0  0  0  0  0
   -2.7876   -6.6129  -34.8177 H   0  0  0  0  0  0  0  0  0  0  0  0
   -5.5435   -6.2161  -34.1543 H   0  0  0  0  0  0  0  0  0  0  0  0
   -4.7222   -5.1228  -35.0470 H   0  0  0  0  0  0  0  0  0  0  0  0
   -6.3732   -5.3773  -36.5147 H   0  0  0  0  0  0  0  0  0  0  0  0
   -7.0922   -6.7910  -36.1261 H   0  0  0  0  0  0  0  0  0  0  0  0
   -7.7934   -8.7993  -40.2609 H   0  0  0  0  0  0  0  0  0  0  0  0
   -6.4701   -7.5511  -41.7864 H   0  0  0  0  0  0  0  0  0  0  0  0
   -7.7139   -8.2625  -37.8882 H   0  0  0  0  0  0  0  0  0  0  0  0
   -5.0465   -5.2797  -38.6977 H   0  0  0  0  0  0  0  0  0  0  0  0
  1 14  1  0  0  0  0
  2  3  1  0  0  0  0
  2  4  2  0  0  0  0
  2  5  2  0  0  0  0
  2  7  1  0  0  0  0
  6  8  1  0  0  0  0
  6  9  1  0  0  0  0
  7  8  1  0  0  0  0
  9 15  1  0  0  0  0
 10 11  2  0  0  0  0
 10 12  1  0  0  0  0
 11 14  1  0  0  0  0
 12 15  2  0  0  0  0
 13 14  2  0  0  0  0
 13 15  1  0  0  0  0
  3 16  1  0  0  0  0
  6 17  1  0  0  0  0
  7 18  1  0  0  0  0
  7 19  1  0  0  0  0
  8 20  1  0  0  0  0
  8 21  1  0  0  0  0
  9 22  1  0  0  0  0
  9 23  1  0  0  0  0
 10 24  1  0  0  0  0
 11 25  1  0  0  0  0
 12 26  1  0  0  0  0
 13 27  1  0  0  0  0
M  END
> <pdb_id>
4FPF

> <uniprot_id>
Q54727

> <usmiles>
Clc1cc(ccc1)CNCCS(=O)(=O)O

$$$$
JKN_A_1402
          07192423423D 1   1.00000     0.00000     0
            
 37 39  0  0  0  0            999 V2000
    4.5486  -12.7876   18.8151 F   0  0  0  0  0  0  0  0  0  0  0  0
    3.1974  -13.6385   14.4130 F   0  0  0  0  0  0  0  0  0  0  0  0
    7.5096   -9.8390   15.8846 O   0  0  0  0  0  0  0  0  0  0  0  0
    6.0273   -8.2973    7.0701 O   0  0  0  0  0  0  0  0  0  0  0  0
    6.6517  -10.2219   13.8181 N   0  0  0  0  0  0  0  0  0  0  0  0
    4.9041  -11.7529   13.4538 N   0  0  0  0  0  0  0  0  0  0  0  0
    6.3052  -10.5862    6.5142 C   0  0  0  0  0  0  0  0  0  0  0  0
    4.0258   -9.5773    6.8589 C   0  0  0  0  0  0  0  0  0  0  0  0
    5.0875  -11.4078   10.7097 C   0  0  0  0  0  0  0  0  0  0  0  0
    6.2261   -9.3069   11.0736 C   0  0  0  0  0  0  0  0  0  0  0  0
    5.0683  -11.1204    9.3546 C   0  0  0  0  0  0  0  0  0  0  0  0
    6.1641   -9.0114    9.7067 C   0  0  0  0  0  0  0  0  0  0  0  0
    3.8528  -13.2414   16.6140 C   0  0  0  0  0  0  0  0  0  0  0  0
    5.5925  -11.5989   17.0519 C   0  0  0  0  0  0  0  0  0  0  0  0
    6.6793  -10.4069   15.1452 C   0  0  0  0  0  0  0  0  0  0  0  0
    4.6923  -12.5650   17.4964 C   0  0  0  0  0  0  0  0  0  0  0  0
    4.0058  -13.0054   15.2888 C   0  0  0  0  0  0  0  0  0  0  0  0
    5.7405  -10.8553   13.0030 C   0  0  0  0  0  0  0  0  0  0  0  0
    4.8619  -12.0348   14.7633 C   0  0  0  0  0  0  0  0  0  0  0  0
    5.7338  -10.5210   11.5838 C   0  0  0  0  0  0  0  0  0  0  0  0
    5.7103  -11.3587   15.6815 C   0  0  0  0  0  0  0  0  0  0  0  0
    5.5699   -9.9300    8.8328 C   0  0  0  0  0  0  0  0  0  0  0  0
    5.4810   -9.5934    7.3479 C   0  0  0  0  0  0  0  0  0  0  0  0
    5.5257   -7.6057    7.5898 H   0  0  0  0  0  0  0  0  0  0  0  0
    7.3175   -9.6009   13.4046 H   0  0  0  0  0  0  0  0  0  0  0  0
    5.9659  -11.5140    6.6695 H   0  0  0  0  0  0  0  0  0  0  0  0
    6.2201  -10.3581    5.5443 H   0  0  0  0  0  0  0  0  0  0  0  0
    7.2660  -10.5327    6.7862 H   0  0  0  0  0  0  0  0  0  0  0  0
    3.6052  -10.4674    7.0346 H   0  0  0  0  0  0  0  0  0  0  0  0
    3.5183   -8.8667    7.3462 H   0  0  0  0  0  0  0  0  0  0  0  0
    4.0061   -9.3873    5.8773 H   0  0  0  0  0  0  0  0  0  0  0  0
    4.6474  -12.2348   11.0595 H   0  0  0  0  0  0  0  0  0  0  0  0
    6.6291   -8.6402   11.7006 H   0  0  0  0  0  0  0  0  0  0  0  0
    4.6790  -11.7939    8.7263 H   0  0  0  0  0  0  0  0  0  0  0  0
    6.5404   -8.1531    9.3579 H   0  0  0  0  0  0  0  0  0  0  0  0
    3.1598  -13.8803   16.9479 H   0  0  0  0  0  0  0  0  0  0  0  0
    6.1471  -11.0843   17.7059 H   0  0  0  0  0  0  0  0  0  0  0  0
  1 16  1  0  0  0  0
  2 17  1  0  0  0  0
  3 15  2  0  0  0  0
  4 23  1  0  0  0  0
  5 15  1  0  0  0  0
  5 18  1  0  0  0  0
  6 18  2  0  0  0  0
  6 19  1  0  0  0  0
  7 23  1  0  0  0  0
  8 23  1  0  0  0  0
  9 11  1  0  0  0  0
  9 20  2  0  0  0  0
 10 12  2  0  0  0  0
 10 20  1  0  0  0  0
 11 22  2  0  0  0  0
 12 22  1  0  0  0  0
 13 16  2  0  0  0  0
 13 17  1  0  0  0  0
 14 16  1  0  0  0  0
 14 21  2  0  0  0  0
 15 21  1  0  0  0  0
 17 19  2  0  0  0  0
 18 20  1  0  0  0  0
 19 21  1  0  0  0  0
 22 23  1  0  0  0  0
  4 24  1  0  0  0  0
  5 25  1  0  0  0  0
  7 26  1  0  0  0  0
  7 27  1  0  0  0  0
  7 28  1  0  0  0  0
  8 29  1  0  0  0  0
  8 30  1  0  0  0  0
  8 31  1  0  0  0  0
  9 32  1  0  0  0  0
 10 33  1  0  0  0  0
 11 34  1  0  0  0  0
 12 35  1  0  0  0  0
 13 36  1  0  0  0  0
 14 37  1  0  0  0  0
M  END
> <pdb_id>
6QXU

> <uniprot_id>
O95271

> <usmiles>
Fc1c2N=C(NC(=O)c2cc(F)c1)c3ccc(cc3)C(O)(C)C

$$$$
JKO_A_803
          07192416573D 1   1.00000     0.00000     0
            
 54 58  0  0  0  0            999 V2000
   20.0958   -3.2148   18.4212 O   0  0  0  0  0  0  0  0  0  0  0  0
   16.2483   -2.2089   20.5202 O   0  0  0  0  0  0  0  0  0  0  0  0
   15.6642    2.4873   20.3297 O   0  0  0  0  0  0  0  0  0  0  0  0
   16.7768   -2.4525   16.0233 N   0  0  0  0  0  0  0  0  0  0  0  0
   18.6238   -3.4559   20.1503 N   0  0  0  0  0  0  0  0  0  0  0  0
   22.9505   -4.4753   22.3490 N   0  0  0  0  0  0  0  0  0  0  0  0
   17.8597   -2.9777   16.6634 N   0  0  0  0  0  0  0  0  0  0  0  0
   15.6798   -0.2352   19.6133 N   0  0  0  0  0  0  0  0  0  0  0  0
   20.9633   -4.9462   23.2579 N   0  0  0  0  0  0  0  0  0  0  0  0
   18.8597   -3.6790   15.8678 C   0  0  0  0  0  0  0  0  0  0  0  0
   15.5917    1.4790   21.3237 C   0  0  0  0  0  0  0  0  0  0  0  0
   16.4545    2.0270   19.2438 C   0  0  0  0  0  0  0  0  0  0  0  0
   16.0645   -1.8654   16.9677 C   0  0  0  0  0  0  0  0  0  0  0  0
   14.9383    0.2363   20.7874 C   0  0  0  0  0  0  0  0  0  0  0  0
   15.8424    0.8135   18.6032 C   0  0  0  0  0  0  0  0  0  0  0  0
   19.5841   -4.9790   23.3053 C   0  0  0  0  0  0  0  0  0  0  0  0
   21.9153   -5.3616   24.1626 C   0  0  0  0  0  0  0  0  0  0  0  0
   27.0090   -5.3844   25.3224 C   0  0  0  0  0  0  0  0  0  0  0  0
   25.9328   -6.0109   25.9170 C   0  0  0  0  0  0  0  0  0  0  0  0
   26.8272   -4.6772   24.1540 C   0  0  0  0  0  0  0  0  0  0  0  0
   18.8468   -4.4939   22.2925 C   0  0  0  0  0  0  0  0  0  0  0  0
   24.6722   -5.9253   25.3493 C   0  0  0  0  0  0  0  0  0  0  0  0
   25.5663   -4.5905   23.5768 C   0  0  0  0  0  0  0  0  0  0  0  0
   20.8847   -3.8841   21.0890 C   0  0  0  0  0  0  0  0  0  0  0  0
   18.9466   -3.1477   18.8553 C   0  0  0  0  0  0  0  0  0  0  0  0
   16.1874   -1.4786   19.5370 C   0  0  0  0  0  0  0  0  0  0  0  0
   21.6350   -4.4009   22.1697 C   0  0  0  0  0  0  0  0  0  0  0  0
   19.5182   -3.9170   21.1322 C   0  0  0  0  0  0  0  0  0  0  0  0
   23.1263   -5.0950   23.5834 C   0  0  0  0  0  0  0  0  0  0  0  0
   17.8508   -2.7006   17.9900 C   0  0  0  0  0  0  0  0  0  0  0  0
   24.4810   -5.2519   24.1439 C   0  0  0  0  0  0  0  0  0  0  0  0
   16.6681   -1.9767   18.2273 C   0  0  0  0  0  0  0  0  0  0  0  0
   17.6678   -3.3429   20.4211 H   0  0  0  0  0  0  0  0  0  0  0  0
   19.5908   -4.0078   16.4656 H   0  0  0  0  0  0  0  0  0  0  0  0
   18.4327   -4.4560   15.4052 H   0  0  0  0  0  0  0  0  0  0  0  0
   19.2417   -3.0544   15.1866 H   0  0  0  0  0  0  0  0  0  0  0  0
   15.0580    1.8208   22.0973 H   0  0  0  0  0  0  0  0  0  0  0  0
   16.5170    1.2553   21.6301 H   0  0  0  0  0  0  0  0  0  0  0  0
   17.3668    1.7933   19.5803 H   0  0  0  0  0  0  0  0  0  0  0  0
   16.5271    2.7546   18.5616 H   0  0  0  0  0  0  0  0  0  0  0  0
   15.1967   -1.3965   16.8032 H   0  0  0  0  0  0  0  0  0  0  0  0
   14.9423   -0.4735   21.4918 H   0  0  0  0  0  0  0  0  0  0  0  0
   13.9951    0.4414   20.5262 H   0  0  0  0  0  0  0  0  0  0  0  0
   14.9492    1.0516   18.2217 H   0  0  0  0  0  0  0  0  0  0  0  0
   16.4400    0.4840   17.8723 H   0  0  0  0  0  0  0  0  0  0  0  0
   19.1275   -5.3693   24.1048 H   0  0  0  0  0  0  0  0  0  0  0  0
   21.7545   -5.7737   25.0594 H   0  0  0  0  0  0  0  0  0  0  0  0
   27.9168   -5.4435   25.7376 H   0  0  0  0  0  0  0  0  0  0  0  0
   26.0636   -6.5294   26.7621 H   0  0  0  0  0  0  0  0  0  0  0  0
   27.6059   -4.2244   23.7197 H   0  0  0  0  0  0  0  0  0  0  0  0
   17.8482   -4.5278   22.3332 H   0  0  0  0  0  0  0  0  0  0  0  0
   23.8921   -6.3504   25.8084 H   0  0  0  0  0  0  0  0  0  0  0  0
   25.4376   -4.0482   22.7466 H   0  0  0  0  0  0  0  0  0  0  0  0
   21.3520   -3.4954   20.2949 H   0  0  0  0  0  0  0  0  0  0  0  0
  1 25  2  0  0  0  0
  2 26  2  0  0  0  0
  3 11  1  0  0  0  0
  3 12  1  0  0  0  0
  4  7  1  0  0  0  0
  4 13  2  0  0  0  0
  5 25  1  0  0  0  0
  5 28  1  0  0  0  0
  6 27  2  0  0  0  0
  6 29  1  0  0  0  0
  7 10  1  0  0  0  0
  7 30  1  0  0  0  0
  8 14  1  0  0  0  0
  8 15  1  0  0  0  0
  8 26  1  0  0  0  0
  9 16  1  0  0  0  0
  9 17  1  0  0  0  0
  9 27  1  0  0  0  0
 11 14  1  0  0  0  0
 12 15  1  0  0  0  0
 13 32  1  0  0  0  0
 16 21  2  0  0  0  0
 17 29  2  0  0  0  0
 18 19  2  0  0  0  0
 18 20  1  0  0  0  0
 19 22  1  0  0  0  0
 20 23  2  0  0  0  0
 21 28  1  0  0  0  0
 22 31  2  0  0  0  0
 23 31  1  0  0  0  0
 24 27  1  0  0  0  0
 24 28  2  0  0  0  0
 25 30  1  0  0  0  0
 26 32  1  0  0  0  0
 29 31  1  0  0  0  0
 30 32  2  0  0  0  0
  5 33  1  0  0  0  0
 10 34  1  0  0  0  0
 10 35  1  0  0  0  0
 10 36  1  0  0  0  0
 11 37  1  0  0  0  0
 11 38  1  0  0  0  0
 12 39  1  0  0  0  0
 12 40  1  0  0  0  0
 13 41  1  0  0  0  0
 14 42  1  0  0  0  0
 14 43  1  0  0  0  0
 15 44  1  0  0  0  0
 15 45  1  0  0  0  0
 16 46  1  0  0  0  0
 17 47  1  0  0  0  0
 18 48  1  0  0  0  0
 19 49  1  0  0  0  0
 20 50  1  0  0  0  0
 21 51  1  0  0  0  0
 22 52  1  0  0  0  0
 23 53  1  0  0  0  0
 24 54  1  0  0  0  0
M  END
> <pdb_id>
5SI1

> <uniprot_id>
Q9Y233

> <usmiles>
O=C(N1CCOCC1)C2=C(N(N=C2)C)C(=O)NC3=CC4=NC(c5ccccc5)=CN4C=C3

$$$$
JL8_A_401
          07202413553D 1   1.00000     0.00000     0
            
 53 56  0  0  0  0            999 V2000
    8.6665    2.0493  103.9069 Cl  0  0  0  0  0  0  0  0  0  0  0  0
    7.3260    2.9825   96.7754 S   0  0  0  0  0  0  0  0  0  0  0  0
    0.5031    1.2503   99.8191 O   0  0  0  0  0  0  0  0  0  0  0  0
    2.2948    0.1777   99.2843 O   0  0  0  0  0  0  0  0  0  0  0  0
    7.4767   -0.5894  103.9373 O   0  0  0  0  0  0  0  0  0  0  0  0
    3.9605    2.1051  100.2880 O   0  0  0  0  0  0  0  0  0  0  0  0
    4.6408    3.7219   96.6310 N   0  0  0  0  0  0  0  0  0  0  0  0
    3.1497    3.1711   98.4016 N   0  0  0  0  0  0  0  0  0  0  0  0
    9.9094    1.5553   97.3114 C   0  0  0  0  0  0  0  0  0  0  0  0
    8.1512    3.3866  101.2837 C   0  0  0  0  0  0  0  0  0  0  0  0
    3.4058    3.7477   97.1874 C   0  0  0  0  0  0  0  0  0  0  0  0
    9.1293    1.7342   98.5852 C   0  0  0  0  0  0  0  0  0  0  0  0
    4.4105    4.6304  104.6406 C   0  0  0  0  0  0  0  0  0  0  0  0
    3.1454    4.8626  104.1459 C   0  0  0  0  0  0  0  0  0  0  0  0
    5.1196    3.5121  104.2607 C   0  0  0  0  0  0  0  0  0  0  0  0
    6.5298   -0.5922  101.7461 C   0  0  0  0  0  0  0  0  0  0  0  0
    2.5063    3.9285  103.3586 C   0  0  0  0  0  0  0  0  0  0  0  0
    4.5053    2.5612  103.4629 C   0  0  0  0  0  0  0  0  0  0  0  0
    6.3391    0.0853  100.5459 C   0  0  0  0  0  0  0  0  0  0  0  0
    2.5437    1.7952  102.1356 C   0  0  0  0  0  0  0  0  0  0  0  0
    1.7232    1.0914   99.8782 C   0  0  0  0  0  0  0  0  0  0  0  0
    5.6442    3.1498   97.2925 C   0  0  0  0  0  0  0  0  0  0  0  0
    7.7879    1.3307  102.5950 C   0  0  0  0  0  0  0  0  0  0  0  0
    7.7121    2.2113   98.2237 C   0  0  0  0  0  0  0  0  0  0  0  0
    4.1559    2.6200   99.0651 C   0  0  0  0  0  0  0  0  0  0  0  0
    7.2606    0.0414  102.7594 C   0  0  0  0  0  0  0  0  0  0  0  0
    2.5661    2.1092  100.6970 C   0  0  2  0  0  0  0  0  0  0  0  0
    7.5642    1.9938  101.4137 C   0  0  0  0  0  0  0  0  0  0  0  0
    3.2112    2.8023  103.0076 C   0  0  0  0  0  0  0  0  0  0  0  0
    6.8384    1.3814  100.3742 C   0  0  0  0  0  0  0  0  0  0  0  0
    5.4364    2.5687   98.5269 C   0  0  0  0  0  0  0  0  0  0  0  0
    6.6249    2.0537   99.0735 C   0  0  0  0  0  0  0  0  0  0  0  0
    0.0725    2.0043  100.3152 H   0  0  0  0  0  0  0  0  0  0  0  0
    7.9987   -0.1352  104.6593 H   0  0  0  0  0  0  0  0  0  0  0  0
   10.8349    1.2448   97.5282 H   0  0  0  0  0  0  0  0  0  0  0  0
    9.4559    0.8750   96.7356 H   0  0  0  0  0  0  0  0  0  0  0  0
    9.9559    2.4271   96.8238 H   0  0  0  0  0  0  0  0  0  0  0  0
    7.9218    3.7626  100.3859 H   0  0  0  0  0  0  0  0  0  0  0  0
    7.7734    3.9756  101.9981 H   0  0  0  0  0  0  0  0  0  0  0  0
    9.1453    3.3398  101.3814 H   0  0  0  0  0  0  0  0  0  0  0  0
    2.6609    4.2005   96.6973 H   0  0  0  0  0  0  0  0  0  0  0  0
    9.5780    2.4159   99.1631 H   0  0  0  0  0  0  0  0  0  0  0  0
    9.0781    0.8639   99.0749 H   0  0  0  0  0  0  0  0  0  0  0  0
    4.8180    5.2804  105.2821 H   0  0  0  0  0  0  0  0  0  0  0  0
    2.6833    5.7228  104.3614 H   0  0  0  0  0  0  0  0  0  0  0  0
    6.0665    3.3884  104.5573 H   0  0  0  0  0  0  0  0  0  0  0  0
    6.1543   -1.5090  101.8820 H   0  0  0  0  0  0  0  0  0  0  0  0
    1.5638    4.0655  103.0540 H   0  0  0  0  0  0  0  0  0  0  0  0
    4.9821    1.7170  103.2182 H   0  0  0  0  0  0  0  0  0  0  0  0
    5.8413   -0.3573   99.8001 H   0  0  0  0  0  0  0  0  0  0  0  0
    3.0018    0.9164  102.2690 H   0  0  0  0  0  0  0  0  0  0  0  0
    1.5887    1.7202  102.4225 H   0  0  0  0  0  0  0  0  0  0  0  0
    2.1907    3.0258  100.5594 H   0  0  0  0  0  0  0  0  0  0  0  0
  1 23  1  0  0  0  0
  2 22  1  0  0  0  0
  2 24  1  0  0  0  0
  3 21  1  0  0  0  0
  4 21  2  0  0  0  0
  5 26  1  0  0  0  0
  6 25  1  0  0  0  0
  6 27  1  0  0  0  0
  7 11  2  0  0  0  0
  7 22  1  0  0  0  0
  8 11  1  0  0  0  0
  8 25  2  0  0  0  0
  9 12  1  0  0  0  0
 10 28  1  0  0  0  0
 12 24  1  0  0  0  0
 13 14  2  0  0  0  0
 13 15  1  0  0  0  0
 14 17  1  0  0  0  0
 15 18  2  0  0  0  0
 16 19  1  0  0  0  0
 16 26  2  0  0  0  0
 17 29  2  0  0  0  0
 18 29  1  0  0  0  0
 19 30  2  0  0  0  0
 20 27  1  0  0  0  0
 20 29  1  0  0  0  0
 21 27  1  0  0  0  0
 22 31  2  0  0  0  0
 23 26  1  0  0  0  0
 23 28  2  0  0  0  0
 24 32  2  0  0  0  0
 25 31  1  0  0  0  0
 28 30  1  0  0  0  0
 30 32  1  0  0  0  0
 31 32  1  0  0  0  0
  3 33  1  0  0  0  0
  5 34  1  0  0  0  0
  9 35  1  0  0  0  0
  9 36  1  0  0  0  0
  9 37  1  0  0  0  0
 10 38  1  0  0  0  0
 10 39  1  0  0  0  0
 10 40  1  0  0  0  0
 11 41  1  0  0  0  0
 12 42  1  0  0  0  0
 12 43  1  0  0  0  0
 13 44  1  0  0  0  0
 14 45  1  0  0  0  0
 15 46  1  0  0  0  0
 16 47  1  0  0  0  0
 17 48  1  0  0  0  0
 18 49  1  0  0  0  0
 19 50  1  0  0  0  0
 20 51  1  0  0  0  0
 20 52  1  0  0  0  0
 27 53  1  0  0  0  0
M  END
> <pdb_id>
6QZ8

> <uniprot_id>
Q07820

> <usmiles>
Clc1c(O)ccc(c1C)C=2c3c(SC2CC)ncnc3O[C@@H](C(=O)O)Cc4ccccc4

$$$$
JM0_B_803
          07192416573D 1   1.00000     0.00000     0
            
 43 45  0  0  0  0            999 V2000
   20.4153   -3.7763   14.3268 S   0  0  0  0  0  0  0  0  0  0  0  0
   21.3654   -3.1287   15.1448 O   0  0  0  0  0  0  0  0  0  0  0  0
   20.5694   -5.1540   14.0591 O   0  0  0  0  0  0  0  0  0  0  0  0
   18.2324   -3.0049   22.6419 O   0  0  0  0  0  0  0  0  0  0  0  0
   19.0310   -3.4474   15.1106 N   0  0  0  0  0  0  0  0  0  0  0  0
   17.7904   -2.6770   20.3609 N   0  0  0  0  0  0  0  0  0  0  0  0
   19.6340   -3.7386   17.3462 N   0  0  0  0  0  0  0  0  0  0  0  0
   15.6657   -1.3697   16.8193 N   0  0  0  0  0  0  0  0  0  0  0  0
   17.2762   -2.2979   18.1048 N   0  0  0  0  0  0  0  0  0  0  0  0
   20.1263   -2.9597   12.8371 C   0  0  0  0  0  0  0  0  0  0  0  0
   17.0092   -2.3137   22.9158 C   0  0  0  0  0  0  0  0  0  0  0  0
   16.5125    1.2261   19.1558 C   0  0  0  0  0  0  0  0  0  0  0  0
   16.4288   -2.0684   14.5112 C   0  0  0  0  0  0  0  0  0  0  0  0
   16.1701    0.0458   20.0287 C   0  0  0  0  0  0  0  0  0  0  0  0
   15.3566   -0.9833   19.2944 C   0  0  0  0  0  0  0  0  0  0  0  0
   19.7930   -3.9094   21.0298 C   0  0  0  0  0  0  0  0  0  0  0  0
   20.1456   -4.0823   19.7009 C   0  0  0  0  0  0  0  0  0  0  0  0
   18.5888   -3.2003   21.3079 C   0  0  0  0  0  0  0  0  0  0  0  0
   18.7975   -3.2665   16.4494 C   0  0  0  0  0  0  0  0  0  0  0  0
   16.1002   -1.5351   18.1111 C   0  0  0  0  0  0  0  0  0  0  0  0
   18.1291   -2.8386   19.0789 C   0  0  0  0  0  0  0  0  0  0  0  0
   16.5694   -2.0086   15.9798 C   0  0  0  0  0  0  0  0  0  0  0  0
   19.3116   -3.5490   18.6825 C   0  0  0  0  0  0  0  0  0  0  0  0
   17.5903   -2.5524   16.7576 C   0  0  0  0  0  0  0  0  0  0  0  0
   18.2240   -3.3641   14.5260 H   0  0  0  0  0  0  0  0  0  0  0  0
   19.4472   -3.4660   12.3057 H   0  0  0  0  0  0  0  0  0  0  0  0
   19.7848   -2.0383   13.0228 H   0  0  0  0  0  0  0  0  0  0  0  0
   20.9792   -2.9007   12.3183 H   0  0  0  0  0  0  0  0  0  0  0  0
   16.8794   -2.2449   23.9049 H   0  0  0  0  0  0  0  0  0  0  0  0
   17.0490   -1.3961   22.5202 H   0  0  0  0  0  0  0  0  0  0  0  0
   16.2445   -2.8171   22.5135 H   0  0  0  0  0  0  0  0  0  0  0  0
   17.0519    1.8840   19.6813 H   0  0  0  0  0  0  0  0  0  0  0  0
   17.0427    0.9147   18.3671 H   0  0  0  0  0  0  0  0  0  0  0  0
   15.6701    1.6625   18.8398 H   0  0  0  0  0  0  0  0  0  0  0  0
   17.1964   -2.5787   14.1234 H   0  0  0  0  0  0  0  0  0  0  0  0
   15.5714   -2.5268   14.2769 H   0  0  0  0  0  0  0  0  0  0  0  0
   16.4232   -1.1404   14.1388 H   0  0  0  0  0  0  0  0  0  0  0  0
   15.6461    0.3688   20.8168 H   0  0  0  0  0  0  0  0  0  0  0  0
   17.0187   -0.3789   20.3441 H   0  0  0  0  0  0  0  0  0  0  0  0
   14.5086   -0.5597   18.9760 H   0  0  0  0  0  0  0  0  0  0  0  0
   15.1404   -1.7328   19.9201 H   0  0  0  0  0  0  0  0  0  0  0  0
   20.3637   -4.2696   21.7678 H   0  0  0  0  0  0  0  0  0  0  0  0
   20.9802   -4.5783   19.4610 H   0  0  0  0  0  0  0  0  0  0  0  0
  1  2  2  0  0  0  0
  1  3  2  0  0  0  0
  1  5  1  0  0  0  0
  1 10  1  0  0  0  0
  4 11  1  0  0  0  0
  4 18  1  0  0  0  0
  5 19  1  0  0  0  0
  6 18  1  0  0  0  0
  6 21  2  0  0  0  0
  7 19  2  0  0  0  0
  7 23  1  0  0  0  0
  8 20  2  0  0  0  0
  8 22  1  0  0  0  0
  9 20  1  0  0  0  0
  9 21  1  0  0  0  0
  9 24  1  0  0  0  0
 12 14  1  0  0  0  0
 13 22  1  0  0  0  0
 14 15  1  0  0  0  0
 15 20  1  0  0  0  0
 16 17  1  0  0  0  0
 16 18  2  0  0  0  0
 17 23  2  0  0  0  0
 19 24  1  0  0  0  0
 21 23  1  0  0  0  0
 22 24  2  0  0  0  0
  5 25  1  0  0  0  0
 10 26  1  0  0  0  0
 10 27  1  0  0  0  0
 10 28  1  0  0  0  0
 11 29  1  0  0  0  0
 11 30  1  0  0  0  0
 11 31  1  0  0  0  0
 12 32  1  0  0  0  0
 12 33  1  0  0  0  0
 12 34  1  0  0  0  0
 13 35  1  0  0  0  0
 13 36  1  0  0  0  0
 13 37  1  0  0  0  0
 14 38  1  0  0  0  0
 14 39  1  0  0  0  0
 15 40  1  0  0  0  0
 15 41  1  0  0  0  0
 16 42  1  0  0  0  0
 17 43  1  0  0  0  0
M  END
> <pdb_id>
5SI5

> <uniprot_id>
Q9Y233

> <usmiles>
S(=O)(=O)(NC1=Nc2c(nc(OC)cc2)N3C(=NC(=C31)C)CCC)C

$$$$
JMG_A_316
          07212404173D 1   1.00000     0.00000     0
            
 22 23  0  0  0  0            999 V2000
   -4.8028   23.1620    3.3682 S   0  0  0  0  0  0  0  0  0  0  0  0
   -6.4272   25.8434    5.7375 O   0  0  0  0  0  0  0  0  0  0  0  0
   -4.4138   25.6441    4.9208 O   0  0  0  0  0  0  0  0  0  0  0  0
   -4.6891   18.5030    0.5230 C   0  0  0  0  0  0  0  0  0  0  0  0
   -3.7291   19.4256    0.9481 C   0  0  0  0  0  0  0  0  0  0  0  0
   -6.0082   18.6629    0.9153 C   0  0  0  0  0  0  0  0  0  0  0  0
   -4.0785   20.5038    1.7584 C   0  0  0  0  0  0  0  0  0  0  0  0
   -6.3602   19.7454    1.7278 C   0  0  0  0  0  0  0  0  0  0  0  0
   -7.0846   23.1544    4.5380 C   0  0  0  0  0  0  0  0  0  0  0  0
   -7.0247   21.9794    3.7699 C   0  0  0  0  0  0  0  0  0  0  0  0
   -5.5716   25.2167    5.0647 C   0  0  0  0  0  0  0  0  0  0  0  0
   -5.9390   23.9287    4.4376 C   0  0  0  0  0  0  0  0  0  0  0  0
   -5.8437   21.8122    3.0391 C   0  0  0  0  0  0  0  0  0  0  0  0
   -5.4057   20.6889    2.1434 C   0  0  0  0  0  0  0  0  0  0  0  0
   -7.3520   25.4762    5.8370 H   0  0  0  0  0  0  0  0  0  0  0  0
   -4.4260   17.7338   -0.0594 H   0  0  0  0  0  0  0  0  0  0  0  0
   -2.7767   19.3100    0.6663 H   0  0  0  0  0  0  0  0  0  0  0  0
   -6.7041   18.0086    0.6193 H   0  0  0  0  0  0  0  0  0  0  0  0
   -3.3759   21.1462    2.0645 H   0  0  0  0  0  0  0  0  0  0  0  0
   -7.3111   19.8501    2.0191 H   0  0  0  0  0  0  0  0  0  0  0  0
   -7.8727   23.4064    5.0995 H   0  0  0  0  0  0  0  0  0  0  0  0
   -7.7700   21.3130    3.7474 H   0  0  0  0  0  0  0  0  0  0  0  0
  1 12  1  0  0  0  0
  1 13  1  0  0  0  0
  2 11  1  0  0  0  0
  3 11  2  0  0  0  0
  4  5  2  0  0  0  0
  4  6  1  0  0  0  0
  5  7  1  0  0  0  0
  6  8  2  0  0  0  0
  7 14  2  0  0  0  0
  8 14  1  0  0  0  0
  9 10  1  0  0  0  0
  9 12  2  0  0  0  0
 10 13  2  0  0  0  0
 11 12  1  0  0  0  0
 13 14  1  0  0  0  0
  2 15  1  0  0  0  0
  4 16  1  0  0  0  0
  5 17  1  0  0  0  0
  6 18  1  0  0  0  0
  7 19  1  0  0  0  0
  8 20  1  0  0  0  0
  9 21  1  0  0  0  0
 10 22  1  0  0  0  0
M  END
> <pdb_id>
6URX

> <uniprot_id>
P02879

> <usmiles>
S1C(c2ccccc2)=CC=C1C(=O)O

$$$$
JMZ_A_361
          07202403043D 1   1.00000     0.00000     0
            
 27 29  0  0  0  0            999 V2000
   77.0493   16.1607    9.7927 N   0  0  0  0  0  0  0  0  0  0  0  0
   85.9130   14.5423   13.4199 N   0  0  0  0  0  0  0  0  0  0  0  0
   84.2935   13.0429   12.4960 N   0  0  0  0  0  0  0  0  0  0  0  0
   83.0424   13.2178   12.0458 N   0  0  0  0  0  0  0  0  0  0  0  0
   77.6274   18.1286   10.8815 N   0  0  0  0  0  0  0  0  0  0  0  0
   79.1558   16.3127   10.8682 N   0  0  0  0  0  0  0  0  0  0  0  0
   78.5232   18.8177   11.5895 C   0  0  0  0  0  0  0  0  0  0  0  0
   79.7498   18.3256   11.9598 C   0  0  0  0  0  0  0  0  0  0  0  0
   82.3056   17.1274   12.5201 C   0  0  0  0  0  0  0  0  0  0  0  0
   83.5164   16.5784   12.8835 C   0  0  0  0  0  0  0  0  0  0  0  0
   81.4086   15.0518   11.7543 C   0  0  0  0  0  0  0  0  0  0  0  0
   77.9863   16.8884   10.5428 C   0  0  0  0  0  0  0  0  0  0  0  0
   84.6937   14.2540   12.8923 C   0  0  0  0  0  0  0  0  0  0  0  0
   82.6131   14.5086   12.1317 C   0  0  0  0  0  0  0  0  0  0  0  0
   80.0316   17.0419   11.5732 C   0  0  0  0  0  0  0  0  0  0  0  0
   81.2731   16.4046   11.9573 C   0  0  0  0  0  0  0  0  0  0  0  0
   83.6659   15.2156   12.6767 C   0  0  0  0  0  0  0  0  0  0  0  0
   77.2560   15.2251    9.5065 H   0  0  0  0  0  0  0  0  0  0  0  0
   76.1749   16.5778    9.5446 H   0  0  0  0  0  0  0  0  0  0  0  0
   86.1314   15.4796   13.6914 H   0  0  0  0  0  0  0  0  0  0  0  0
   86.5916   13.8170   13.5364 H   0  0  0  0  0  0  0  0  0  0  0  0
   82.4801   12.4747   11.6830 H   0  0  0  0  0  0  0  0  0  0  0  0
   78.2870   19.7489   11.8672 H   0  0  0  0  0  0  0  0  0  0  0  0
   80.4020   18.8741   12.4831 H   0  0  0  0  0  0  0  0  0  0  0  0
   82.1671   18.1059   12.6729 H   0  0  0  0  0  0  0  0  0  0  0  0
   84.2492   17.1342   13.2761 H   0  0  0  0  0  0  0  0  0  0  0  0
   80.6768   14.4980   11.3571 H   0  0  0  0  0  0  0  0  0  0  0  0
  1 12  1  0  0  0  0
  2 13  1  0  0  0  0
  3  4  1  0  0  0  0
  3 13  2  0  0  0  0
  4 14  1  0  0  0  0
  5  7  1  0  0  0  0
  5 12  2  0  0  0  0
  6 12  1  0  0  0  0
  6 15  2  0  0  0  0
  7  8  2  0  0  0  0
  8 15  1  0  0  0  0
  9 10  1  0  0  0  0
  9 16  2  0  0  0  0
 10 17  2  0  0  0  0
 11 14  2  0  0  0  0
 11 16  1  0  0  0  0
 13 17  1  0  0  0  0
 14 17  1  0  0  0  0
 15 16  1  0  0  0  0
  1 18  1  0  0  0  0
  1 19  1  0  0  0  0
  2 20  1  0  0  0  0
  2 21  1  0  0  0  0
  4 22  1  0  0  0  0
  7 23  1  0  0  0  0
  8 24  1  0  0  0  0
  9 25  1  0  0  0  0
 10 26  1  0  0  0  0
 11 27  1  0  0  0  0
M  END
> <pdb_id>
3NUN

> <uniprot_id>
Q9UPJ8

> <usmiles>
n1c(nccc1c2cc3NN=C(N)c3cc2)N

$$$$
JO2_A_202
          07212403393D 1   1.00000     0.00000     0
            
 31 32  0  0  0  0            999 V2000
   28.3330   22.5360  -11.2160 O   0  5  0  0  0  0  0  0  0  0  0  0
   26.8270   21.0160  -11.3850 O   0  0  0  0  0  0  0  0  0  0  0  0
   21.4390   15.7320   -7.2860 O   0  0  0  0  0  0  0  0  0  0  0  0
   26.3240   21.1150   -4.4870 O   0  0  0  0  0  0  0  0  0  0  0  0
   28.5200   21.3860   -4.4100 O   0  0  0  0  0  0  0  0  0  0  0  0
   25.7770   16.3740   -8.4700 O   0  0  0  0  0  0  0  0  0  0  0  0
   26.8610   18.5020   -5.8420 O   0  0  0  0  0  0  0  0  0  0  0  0
   23.5730   15.8440   -8.0910 N   0  0  0  0  0  0  0  0  0  0  0  0
   24.9910   18.8090   -7.0480 N   0  0  0  0  0  0  0  0  0  0  0  0
   27.5590   21.7240  -10.7210 N   0  3  0  0  0  0  0  0  0  0  0  0
   28.1230   22.5890   -8.4850 C   0  0  0  0  0  0  0  0  0  0  0  0
   28.0740   22.4530   -7.1150 C   0  0  0  0  0  0  0  0  0  0  0  0
   22.9610   17.4820   -6.5350 C   0  0  0  0  0  0  0  0  0  0  0  0
   26.9110   20.4810   -8.6960 C   0  0  0  0  0  0  0  0  0  0  0  0
   22.5190   16.2840   -7.3230 C   0  0  0  0  0  0  0  0  0  0  0  0
   27.4370   21.2850   -5.0180 C   0  0  0  0  0  0  0  0  0  0  0  0
   24.7370   16.5180   -7.8420 C   0  0  0  0  0  0  0  0  0  0  0  0
   26.2350   19.1610   -6.6780 C   0  0  0  0  0  0  0  0  0  0  0  0
   24.4850   17.4970   -6.7160 C   0  0  1  0  0  0  0  0  0  0  0  0
   27.5300   21.5940   -9.2680 C   0  0  0  0  0  0  0  0  0  0  0  0
   27.4640   21.3550   -6.5140 C   0  0  0  0  0  0  0  0  0  0  0  0
   26.8440   20.3820   -7.3050 C   0  0  0  0  0  0  0  0  0  0  0  0
   25.5043   21.0448   -5.0555 H   0  0  0  0  0  0  0  0  0  0  0  0
   23.4958   15.1069   -8.7624 H   0  0  0  0  0  0  0  0  0  0  0  0
   24.4170   19.4543   -7.5521 H   0  0  0  0  0  0  0  0  0  0  0  0
   28.5702   23.3773   -8.9076 H   0  0  0  0  0  0  0  0  0  0  0  0
   28.4860   23.1590   -6.5389 H   0  0  0  0  0  0  0  0  0  0  0  0
   22.7178   17.3833   -5.5701 H   0  0  0  0  0  0  0  0  0  0  0  0
   22.5508   18.3185   -6.8983 H   0  0  0  0  0  0  0  0  0  0  0  0
   26.5210   19.7646   -9.2746 H   0  0  0  0  0  0  0  0  0  0  0  0
   24.9257   17.1686   -5.8805 H   0  0  0  0  0  0  0  0  0  0  0  0
  1 10  1  0  0  0  0
  2 10  2  0  0  0  0
  3 15  2  0  0  0  0
  4 16  1  0  0  0  0
  5 16  2  0  0  0  0
  6 17  2  0  0  0  0
  7 18  2  0  0  0  0
  8 15  1  0  0  0  0
  8 17  1  0  0  0  0
  9 18  1  0  0  0  0
  9 19  1  0  0  0  0
 10 20  1  0  0  0  0
 11 12  1  0  0  0  0
 11 20  2  0  0  0  0
 12 21  2  0  0  0  0
 13 15  1  0  0  0  0
 13 19  1  0  0  0  0
 14 20  1  0  0  0  0
 14 22  2  0  0  0  0
 16 21  1  0  0  0  0
 17 19  1  0  0  0  0
 18 22  1  0  0  0  0
 21 22  1  0  0  0  0
  4 23  1  0  0  0  0
  8 24  1  0  0  0  0
  9 25  1  0  0  0  0
 11 26  1  0  0  0  0
 12 27  1  0  0  0  0
 13 28  1  0  0  0  0
 13 29  1  0  0  0  0
 14 30  1  0  0  0  0
 19 31  1  0  0  0  0
M  CHG  2   1  -1  10   1
M  END
> <pdb_id>
6R0V

> <uniprot_id>
A4TVL0

> <usmiles>
[O-][N+](=O)c1cc(c(cc1)C(=O)O)C(=O)N[C@@H]2C(=O)NC(=O)C2

$$$$
JOZ_A_361
          07202403043D 1   1.00000     0.00000     0
            
 20 21  0  0  0  0            999 V2000
   84.3728   13.5546   12.7262 O   0  0  0  0  0  0  0  0  0  0  0  0
   82.2295   13.2629   11.9068 N   0  0  0  0  0  0  0  0  0  0  0  0
   80.8975   13.7970   11.7370 C   0  0  0  0  0  0  0  0  0  0  0  0
   82.4374   18.0369   13.3256 C   0  0  0  0  0  0  0  0  0  0  0  0
   83.5441   17.4221   13.8706 C   0  0  0  0  0  0  0  0  0  0  0  0
   80.9245   15.2438   11.3104 C   0  0  0  0  0  0  0  0  0  0  0  0
   81.5854   17.3329   12.4939 C   0  0  0  0  0  0  0  0  0  0  0  0
   83.7989   16.0993   13.5818 C   0  0  0  0  0  0  0  0  0  0  0  0
   83.2559   13.9869   12.4677 C   0  0  0  0  0  0  0  0  0  0  0  0
   81.8362   16.0051   12.2060 C   0  0  0  0  0  0  0  0  0  0  0  0
   82.9460   15.4012   12.7560 C   0  0  0  0  0  0  0  0  0  0  0  0
   82.4128   12.3277   11.6039 H   0  0  0  0  0  0  0  0  0  0  0  0
   80.4066   13.7246   12.6052 H   0  0  0  0  0  0  0  0  0  0  0  0
   80.4210   13.2625   11.0390 H   0  0  0  0  0  0  0  0  0  0  0  0
   82.2493   18.9970   13.5327 H   0  0  0  0  0  0  0  0  0  0  0  0
   84.1583   17.9331   14.4719 H   0  0  0  0  0  0  0  0  0  0  0  0
   80.0025   15.6264   11.3693 H   0  0  0  0  0  0  0  0  0  0  0  0
   81.2523   15.3078   10.3678 H   0  0  0  0  0  0  0  0  0  0  0  0
   80.7859   17.7862   12.0998 H   0  0  0  0  0  0  0  0  0  0  0  0
   84.6014   15.6470   13.9709 H   0  0  0  0  0  0  0  0  0  0  0  0
  1  9  2  0  0  0  0
  2  3  1  0  0  0  0
  2  9  1  0  0  0  0
  3  6  1  0  0  0  0
  4  5  2  0  0  0  0
  4  7  1  0  0  0  0
  5  8  1  0  0  0  0
  6 10  1  0  0  0  0
  7 10  2  0  0  0  0
  8 11  2  0  0  0  0
  9 11  1  0  0  0  0
 10 11  1  0  0  0  0
  2 12  1  0  0  0  0
  3 13  1  0  0  0  0
  3 14  1  0  0  0  0
  4 15  1  0  0  0  0
  5 16  1  0  0  0  0
  6 17  1  0  0  0  0
  6 18  1  0  0  0  0
  7 19  1  0  0  0  0
  8 20  1  0  0  0  0
M  END
> <pdb_id>
3NUU

> <uniprot_id>
Q9UPJ8

> <usmiles>
O=C1NCCc2c1cccc2

$$$$
JP2_X_1
          07202401213D 1   1.00000     0.00000     0
            
 20 21  0  0  0  0            999 V2000
    2.6270    6.7300    3.2230 O   0  0  0  0  0  0  0  0  0  0  0  0
    0.4800    6.9920    2.8640 O   0  0  0  0  0  0  0  0  0  0  0  0
   -0.7260    3.1600    8.4760 O   0  0  0  0  0  0  0  0  0  0  0  0
    3.7870    3.0330    9.1810 N   0  0  0  0  0  0  0  0  0  0  0  0
   -0.4560    4.5010    6.0610 N   0  0  0  0  0  0  0  0  0  0  0  0
    1.4880    3.0590    8.8930 N   0  0  0  0  0  0  0  0  0  0  0  0
    2.9620    3.9920    7.2640 N   0  0  0  0  0  0  0  0  0  0  0  0
    2.2430    5.1690    5.3630 N   0  0  0  0  0  0  0  0  0  0  0  0
   -0.2060    5.2730    4.9930 C   0  0  0  0  0  0  0  0  0  0  0  0
    1.4120    6.4790    3.4980 C   0  0  0  0  0  0  0  0  0  0  0  0
    2.7170    3.3470    8.4280 C   0  0  0  0  0  0  0  0  0  0  0  0
    0.4810    3.4130    8.1150 C   0  0  0  0  0  0  0  0  0  0  0  0
    1.9460    4.4350    6.4460 C   0  0  0  0  0  0  0  0  0  0  0  0
    1.1650    5.6570    4.6570 C   0  0  0  0  0  0  0  0  0  0  0  0
    0.6120    4.1400    6.8760 C   0  0  0  0  0  0  0  0  0  0  0  0
    3.3585    6.3006    3.7526 H   0  0  0  0  0  0  0  0  0  0  0  0
    4.7083    3.2396    8.8515 H   0  0  0  0  0  0  0  0  0  0  0  0
    3.6609    2.5930   10.0701 H   0  0  0  0  0  0  0  0  0  0  0  0
    3.9100    4.1521    6.9890 H   0  0  0  0  0  0  0  0  0  0  0  0
   -0.9634    5.5888    4.4215 H   0  0  0  0  0  0  0  0  0  0  0  0
  1 10  1  0  0  0  0
  2 10  2  0  0  0  0
  3 12  2  0  0  0  0
  4 11  1  0  0  0  0
  5  9  2  0  0  0  0
  5 15  1  0  0  0  0
  6 11  2  0  0  0  0
  6 12  1  0  0  0  0
  7 11  1  0  0  0  0
  7 13  1  0  0  0  0
  8 13  1  0  0  0  0
  8 14  2  0  0  0  0
  9 14  1  0  0  0  0
 10 14  1  0  0  0  0
 12 15  1  0  0  0  0
 13 15  2  0  0  0  0
  1 16  1  0  0  0  0
  4 17  1  0  0  0  0
  4 18  1  0  0  0  0
  7 19  1  0  0  0  0
  9 20  1  0  0  0  0
M  END
> <pdb_id>
3PX8

> <uniprot_id>
D6MWP9

> <usmiles>
O=C(O)c1nc2NC(=NC(=O)c2nc1)N

$$$$
JPJ_A_500
          07202408293D 1   1.00000     0.00000     0
            
 40 42  0  0  0  0            999 V2000
   54.6010   88.8660   32.0760 Cl  0  0  0  0  0  0  0  0  0  0  0  0
   50.8420   88.7930   36.0010 Cl  0  0  0  0  0  0  0  0  0  0  0  0
   48.5540   92.1590   32.9530 O   0  0  0  0  0  0  0  0  0  0  0  0
   50.2520   91.5370   35.0490 O   0  0  0  0  0  0  0  0  0  0  0  0
   53.1720   97.9300   31.6050 C   0  0  0  0  0  0  0  0  0  0  0  0
   51.9710   98.4910   31.1800 C   0  0  0  0  0  0  0  0  0  0  0  0
   53.2820   97.4340   32.9160 C   0  0  0  0  0  0  0  0  0  0  0  0
   52.9270   91.0290   32.5720 C   0  0  0  0  0  0  0  0  0  0  0  0
   50.8970   98.5430   32.0780 C   0  0  0  0  0  0  0  0  0  0  0  0
   52.1970   97.4800   33.7990 C   0  0  0  0  0  0  0  0  0  0  0  0
   49.8210   98.0990   34.3190 C   0  0  0  0  0  0  0  0  0  0  0  0
   48.8070   96.9960   34.0410 C   0  0  0  0  0  0  0  0  0  0  0  0
   50.0940   95.2060   35.3530 C   0  0  0  0  0  0  0  0  0  0  0  0
   51.9020   91.6480   33.2750 C   0  0  0  0  0  0  0  0  0  0  0  0
   50.4420   93.8770   35.5960 C   0  0  0  0  0  0  0  0  0  0  0  0
   52.6550   89.0490   33.9550 C   0  0  0  0  0  0  0  0  0  0  0  0
   48.6770   94.5200   33.5240 C   0  0  0  0  0  0  0  0  0  0  0  0
   53.2910   89.7260   32.9140 C   0  0  0  0  0  0  0  0  0  0  0  0
   51.6280   89.6710   34.6570 C   0  0  0  0  0  0  0  0  0  0  0  0
   49.0340   93.1700   33.7470 C   0  0  0  0  0  0  0  0  0  0  0  0
   51.0020   98.0410   33.3730 C   0  0  0  0  0  0  0  0  0  0  0  0
   49.2280   95.5510   34.3020 C   0  0  0  0  0  0  0  0  0  0  0  0
   51.2540   90.9580   34.3240 C   0  0  0  0  0  0  0  0  0  0  0  0
   49.9070   92.8510   34.7970 C   0  0  0  0  0  0  0  0  0  0  0  0
   48.8220   91.2124   33.1322 H   0  0  0  0  0  0  0  0  0  0  0  0
   53.9521   97.8800   30.9814 H   0  0  0  0  0  0  0  0  0  0  0  0
   51.8767   98.8500   30.2514 H   0  0  0  0  0  0  0  0  0  0  0  0
   54.1494   97.0420   33.2225 H   0  0  0  0  0  0  0  0  0  0  0  0
   53.3972   91.5097   31.8318 H   0  0  0  0  0  0  0  0  0  0  0  0
   50.0333   98.9508   31.7818 H   0  0  0  0  0  0  0  0  0  0  0  0
   52.2822   97.1131   34.7253 H   0  0  0  0  0  0  0  0  0  0  0  0
   50.1543   98.0013   35.2568 H   0  0  0  0  0  0  0  0  0  0  0  0
   49.3693   98.9852   34.2164 H   0  0  0  0  0  0  0  0  0  0  0  0
   48.5533   97.0619   33.0760 H   0  0  0  0  0  0  0  0  0  0  0  0
   48.0052   97.1793   34.6097 H   0  0  0  0  0  0  0  0  0  0  0  0
   50.4678   95.9261   35.9376 H   0  0  0  0  0  0  0  0  0  0  0  0
   51.6233   92.5791   33.0396 H   0  0  0  0  0  0  0  0  0  0  0  0
   51.0727   93.6538   36.3393 H   0  0  0  0  0  0  0  0  0  0  0  0
   52.9365   88.1201   34.1955 H   0  0  0  0  0  0  0  0  0  0  0  0
   48.0226   94.7437   32.8017 H   0  0  0  0  0  0  0  0  0  0  0  0
  1 18  1  0  0  0  0
  2 19  1  0  0  0  0
  3 20  1  0  0  0  0
  4 23  1  0  0  0  0
  4 24  1  0  0  0  0
  5  6  2  0  0  0  0
  5  7  1  0  0  0  0
  6  9  1  0  0  0  0
  7 10  2  0  0  0  0
  8 14  2  0  0  0  0
  8 18  1  0  0  0  0
  9 21  2  0  0  0  0
 10 21  1  0  0  0  0
 11 12  1  0  0  0  0
 11 21  1  0  0  0  0
 12 22  1  0  0  0  0
 13 15  1  0  0  0  0
 13 22  2  0  0  0  0
 14 23  1  0  0  0  0
 15 24  2  0  0  0  0
 16 18  2  0  0  0  0
 16 19  1  0  0  0  0
 17 20  2  0  0  0  0
 17 22  1  0  0  0  0
 19 23  2  0  0  0  0
 20 24  1  0  0  0  0
  3 25  1  0  0  0  0
  5 26  1  0  0  0  0
  6 27  1  0  0  0  0
  7 28  1  0  0  0  0
  8 29  1  0  0  0  0
  9 30  1  0  0  0  0
 10 31  1  0  0  0  0
 11 32  1  0  0  0  0
 11 33  1  0  0  0  0
 12 34  1  0  0  0  0
 12 35  1  0  0  0  0
 13 36  1  0  0  0  0
 14 37  1  0  0  0  0
 15 38  1  0  0  0  0
 16 39  1  0  0  0  0
 17 40  1  0  0  0  0
M  END
> <pdb_id>
2OOS

> <uniprot_id>
Q9BH77

> <usmiles>
Clc1c(Oc2c(O)cc(cc2)CCc3ccccc3)ccc(Cl)c1

$$$$
JPL_A_400
          07202412533D 1   1.00000     0.00000     0
            
 39 41  0  0  0  0            999 V2000
   23.4430   54.5980  -12.5900 Cl  0  0  0  0  0  0  0  0  0  0  0  0
   23.0420   49.9520  -10.3740 Cl  0  0  0  0  0  0  0  0  0  0  0  0
   27.8970   49.2440  -10.2820 O   0  0  0  0  0  0  0  0  0  0  0  0
   25.5000   49.3230  -11.6020 O   0  0  0  0  0  0  0  0  0  0  0  0
   32.8660   50.0220  -16.4710 C   0  0  0  0  0  0  0  0  0  0  0  0
   31.6220   50.3940  -15.7980 C   0  0  0  0  0  0  0  0  0  0  0  0
   32.1370   48.6500  -17.1730 C   0  0  0  0  0  0  0  0  0  0  0  0
   25.1990   52.7860  -12.8410 C   0  0  0  0  0  0  0  0  0  0  0  0
   30.9170   49.5800  -14.9480 C   0  0  0  0  0  0  0  0  0  0  0  0
   32.0240   47.6980  -15.7020 C   0  0  0  0  0  0  0  0  0  0  0  0
   27.7270   47.8570  -14.1500 C   0  0  0  0  0  0  0  0  0  0  0  0
   25.7150   51.5050  -12.6100 C   0  0  0  0  0  0  0  0  0  0  0  0
   26.5850   48.3580  -13.5290 C   0  0  0  0  0  0  0  0  0  0  0  0
   23.2890   52.2650  -11.4740 C   0  0  0  0  0  0  0  0  0  0  0  0
   29.0050   48.2840  -12.1560 C   0  0  0  0  0  0  0  0  0  0  0  0
   30.1520   47.2550  -14.1580 C   0  0  0  0  0  0  0  0  0  0  0  0
   23.9790   53.1890  -12.2810 C   0  0  0  0  0  0  0  0  0  0  0  0
   23.7950   50.9610  -11.2330 C   0  0  0  0  0  0  0  0  0  0  0  0
   27.8470   48.7830  -11.5490 C   0  0  0  0  0  0  0  0  0  0  0  0
   30.9910   48.2020  -14.9860 C   0  0  0  0  0  0  0  0  0  0  0  0
   28.9420   47.8310  -13.4720 C   0  0  0  0  0  0  0  0  0  0  0  0
   25.0130   50.5910  -11.8080 C   0  0  0  0  0  0  0  0  0  0  0  0
   26.6370   48.8320  -12.2280 C   0  0  0  0  0  0  0  0  0  0  0  0
   27.0704   49.6009   -9.8468 H   0  0  0  0  0  0  0  0  0  0  0  0
   33.6129   49.8034  -15.8431 H   0  0  0  0  0  0  0  0  0  0  0  0
   33.1790   50.6970  -17.1391 H   0  0  0  0  0  0  0  0  0  0  0  0
   31.2583   51.3095  -15.9701 H   0  0  0  0  0  0  0  0  0  0  0  0
   32.7170   48.2194  -17.8645 H   0  0  0  0  0  0  0  0  0  0  0  0
   31.2410   48.8522  -17.5684 H   0  0  0  0  0  0  0  0  0  0  0  0
   25.7102   53.4249  -13.4159 H   0  0  0  0  0  0  0  0  0  0  0  0
   30.3204   50.0056  -14.2677 H   0  0  0  0  0  0  0  0  0  0  0  0
   32.8731   47.7712  -15.1789 H   0  0  0  0  0  0  0  0  0  0  0  0
   31.8518   46.7386  -15.9256 H   0  0  0  0  0  0  0  0  0  0  0  0
   27.6734   47.5143  -15.0879 H   0  0  0  0  0  0  0  0  0  0  0  0
   26.5883   51.2396  -13.0185 H   0  0  0  0  0  0  0  0  0  0  0  0
   25.7183   48.3757  -14.0276 H   0  0  0  0  0  0  0  0  0  0  0  0
   22.4196   52.5343  -11.0597 H   0  0  0  0  0  0  0  0  0  0  0  0
   29.8676   48.2529  -11.6511 H   0  0  0  0  0  0  0  0  0  0  0  0
   30.3906   46.2879  -14.0699 H   0  0  0  0  0  0  0  0  0  0  0  0
  1 17  1  0  0  0  0
  2 18  1  0  0  0  0
  3 19  1  0  0  0  0
  4 22  1  0  0  0  0
  4 23  1  0  0  0  0
  5  6  1  0  0  0  0
  5  7  1  0  0  0  0
  6  9  2  0  0  0  0
  7 10  1  0  0  0  0
  8 12  2  0  0  0  0
  8 17  1  0  0  0  0
  9 20  1  0  0  0  0
 10 20  1  0  0  0  0
 11 13  1  0  0  0  0
 11 21  2  0  0  0  0
 12 22  1  0  0  0  0
 13 23  2  0  0  0  0
 14 17  2  0  0  0  0
 14 18  1  0  0  0  0
 15 19  2  0  0  0  0
 15 21  1  0  0  0  0
 16 20  2  0  0  0  0
 16 21  1  0  0  0  0
 18 22  2  0  0  0  0
 19 23  1  0  0  0  0
  3 24  1  0  0  0  0
  5 25  1  0  0  0  0
  5 26  1  0  0  0  0
  6 27  1  0  0  0  0
  7 28  1  0  0  0  0
  7 29  1  0  0  0  0
  8 30  1  0  0  0  0
  9 31  1  0  0  0  0
 10 32  1  0  0  0  0
 10 33  1  0  0  0  0
 11 34  1  0  0  0  0
 12 35  1  0  0  0  0
 13 36  1  0  0  0  0
 14 37  1  0  0  0  0
 15 38  1  0  0  0  0
 16 39  1  0  0  0  0
M  END
> <pdb_id>
3FNG

> <uniprot_id>
P0A5Y6

> <usmiles>
Clc1c(Oc2c(O)cc(cc2)/C=C/3\C=CCCC3)ccc(Cl)c1

$$$$
JPZ_A_370
          07202403043D 1   1.00000     0.00000     0
            
 17 18  0  0  0  0            999 V2000
   84.2398   13.2936   12.7065 O   0  0  0  0  0  0  0  0  0  0  0  0
   82.4218   12.9745   11.3248 N   0  0  0  0  0  0  0  0  0  0  0  0
   80.8860   14.7976   11.0066 N   0  0  0  0  0  0  0  0  0  0  0  0
   81.3311   13.5544   10.8109 C   0  0  0  0  0  0  0  0  0  0  0  0
   82.0090   17.6642   12.9435 C   0  0  0  0  0  0  0  0  0  0  0  0
   83.1436   17.1766   13.5406 C   0  0  0  0  0  0  0  0  0  0  0  0
   81.2561   16.8792   12.1012 C   0  0  0  0  0  0  0  0  0  0  0  0
   83.5127   15.8760   13.2623 C   0  0  0  0  0  0  0  0  0  0  0  0
   83.1019   13.7912   12.1324 C   0  0  0  0  0  0  0  0  0  0  0  0
   81.6072   15.5744   11.8217 C   0  0  0  0  0  0  0  0  0  0  0  0
   82.7488   15.0939   12.4168 C   0  0  0  0  0  0  0  0  0  0  0  0
   80.0534   15.1319   10.5650 H   0  0  0  0  0  0  0  0  0  0  0  0
   80.7790   12.9840   10.2028 H   0  0  0  0  0  0  0  0  0  0  0  0
   81.7245   18.6058   13.1235 H   0  0  0  0  0  0  0  0  0  0  0  0
   83.6864   17.7457   14.1583 H   0  0  0  0  0  0  0  0  0  0  0  0
   80.4341   17.2637   11.6811 H   0  0  0  0  0  0  0  0  0  0  0  0
   84.3401   15.4962   13.6761 H   0  0  0  0  0  0  0  0  0  0  0  0
  1  9  2  0  0  0  0
  2  4  2  0  0  0  0
  2  9  1  0  0  0  0
  3  4  1  0  0  0  0
  3 10  1  0  0  0  0
  5  6  2  0  0  0  0
  5  7  1  0  0  0  0
  6  8  1  0  0  0  0
  7 10  2  0  0  0  0
  8 11  2  0  0  0  0
  9 11  1  0  0  0  0
 10 11  1  0  0  0  0
  3 12  1  0  0  0  0
  4 13  1  0  0  0  0
  5 14  1  0  0  0  0
  6 15  1  0  0  0  0
  7 16  1  0  0  0  0
  8 17  1  0  0  0  0
M  END
> <pdb_id>
3NUY

> <uniprot_id>
Q9UPJ8

> <usmiles>
O=C1N=CNc2c1cccc2

$$$$
JPZ_A_900
          07192416573D 1   1.00000     0.00000     0
            
 17 18  0  0  0  0            999 V2000
   16.7607   -1.3989   20.3172 O   0  0  0  0  0  0  0  0  0  0  0  0
   18.5216   -2.8626   19.9626 N   0  0  0  0  0  0  0  0  0  0  0  0
   18.9717   -3.7093   17.8026 N   0  0  0  0  0  0  0  0  0  0  0  0
   19.2554   -3.6335   19.1292 C   0  0  0  0  0  0  0  0  0  0  0  0
   16.5622   -2.3774   15.3843 C   0  0  0  0  0  0  0  0  0  0  0  0
   15.7889   -1.5723   16.2222 C   0  0  0  0  0  0  0  0  0  0  0  0
   17.6363   -3.1055   15.9097 C   0  0  0  0  0  0  0  0  0  0  0  0
   16.0779   -1.4852   17.5865 C   0  0  0  0  0  0  0  0  0  0  0  0
   17.4735   -2.1460   19.4820 C   0  0  0  0  0  0  0  0  0  0  0  0
   17.9295   -3.0161   17.2760 C   0  0  0  0  0  0  0  0  0  0  0  0
   17.1515   -2.2082   18.1176 C   0  0  0  0  0  0  0  0  0  0  0  0
   18.7513   -2.8200   20.9350 H   0  0  0  0  0  0  0  0  0  0  0  0
   20.0228   -4.1589   19.4967 H   0  0  0  0  0  0  0  0  0  0  0  0
   16.3491   -2.4341   14.4089 H   0  0  0  0  0  0  0  0  0  0  0  0
   15.0223   -1.0539   15.8433 H   0  0  0  0  0  0  0  0  0  0  0  0
   18.1906   -3.6858   15.3130 H   0  0  0  0  0  0  0  0  0  0  0  0
   15.5190   -0.9078   18.1816 H   0  0  0  0  0  0  0  0  0  0  0  0
  1  9  2  0  0  0  0
  2  4  1  0  0  0  0
  2  9  1  0  0  0  0
  3  4  2  0  0  0  0
  3 10  1  0  0  0  0
  5  6  2  0  0  0  0
  5  7  1  0  0  0  0
  6  8  1  0  0  0  0
  7 10  2  0  0  0  0
  8 11  2  0  0  0  0
  9 11  1  0  0  0  0
 10 11  1  0  0  0  0
  2 12  1  0  0  0  0
  4 13  1  0  0  0  0
  5 14  1  0  0  0  0
  6 15  1  0  0  0  0
  7 16  1  0  0  0  0
  8 17  1  0  0  0  0
M  END
> <pdb_id>
4LM4

> <uniprot_id>
Q9Y233

> <usmiles>
O=C1NC=Nc2c1cccc2

$$$$
JQ1_A_1
          07212401333D 1   1.00000     0.00000     0
            
 56 59  0  0  0  0            999 V2000
  -17.0321  -21.6645  -12.8934 Cl  0  0  0  0  0  0  0  0  0  0  0  0
  -14.5585  -19.0562  -21.1555 S   0  0  0  0  0  0  0  0  0  0  0  0
  -12.9218  -26.5135  -19.0709 O   0  0  0  0  0  0  0  0  0  0  0  0
  -12.0663  -24.4312  -19.0241 O   0  0  0  0  0  0  0  0  0  0  0  0
  -16.7714  -22.6808  -22.7760 N   0  0  0  0  0  0  0  0  0  0  0  0
  -15.9842  -23.5230  -22.2122 N   0  0  0  0  0  0  0  0  0  0  0  0
  -14.7403  -23.2005  -18.9973 N   0  0  0  0  0  0  0  0  0  0  0  0
  -15.6020  -21.5586  -21.3179 N   0  0  0  0  0  0  0  0  0  0  0  0
  -13.1333  -17.2213  -19.4604 C   0  0  0  0  0  0  0  0  0  0  0  0
  -17.3318  -20.2052  -22.6873 C   0  0  0  0  0  0  0  0  0  0  0  0
  -13.2133  -19.5444  -17.3653 C   0  0  0  0  0  0  0  0  0  0  0  0
  -11.9895  -24.8487  -16.6727 C   0  0  0  0  0  0  0  0  0  0  0  0
  -10.0725  -25.6772  -18.1644 C   0  0  0  0  0  0  0  0  0  0  0  0
  -10.4214  -23.2461  -17.7516 C   0  0  0  0  0  0  0  0  0  0  0  0
  -16.3986  -20.6703  -15.3185 C   0  0  0  0  0  0  0  0  0  0  0  0
  -15.7977  -22.9560  -14.9822 C   0  0  0  0  0  0  0  0  0  0  0  0
  -15.8816  -20.7280  -16.6167 C   0  0  0  0  0  0  0  0  0  0  0  0
  -15.2977  -23.0216  -16.2781 C   0  0  0  0  0  0  0  0  0  0  0  0
  -13.8417  -24.8884  -20.6000 C   0  0  0  0  0  0  0  0  0  0  0  0
  -12.8989  -25.3553  -19.4856 C   0  0  0  0  0  0  0  0  0  0  0  0
  -16.3832  -21.7833  -14.5107 C   0  0  0  0  0  0  0  0  0  0  0  0
  -15.0082  -20.6123  -20.5387 C   0  0  0  0  0  0  0  0  0  0  0  0
  -13.8005  -18.6011  -19.6738 C   0  0  0  0  0  0  0  0  0  0  0  0
  -16.5562  -21.4568  -22.2680 C   0  0  0  0  0  0  0  0  0  0  0  0
  -15.2363  -22.8410  -21.3240 C   0  0  0  0  0  0  0  0  0  0  0  0
  -14.1792  -23.4220  -20.3630 C   0  0  1  0  0  0  0  0  0  0  0  0
  -14.7827  -21.9754  -18.4494 C   0  0  0  0  0  0  0  0  0  0  0  0
  -15.3257  -21.8970  -17.1190 C   0  0  0  0  0  0  0  0  0  0  0  0
  -13.8524  -19.6476  -18.7606 C   0  0  0  0  0  0  0  0  0  0  0  0
  -14.5523  -20.7967  -19.2186 C   0  0  0  0  0  0  0  0  0  0  0  0
  -11.1365  -24.5940  -17.8897 C   0  0  0  0  0  0  0  0  0  0  0  0
  -12.7592  -17.1716  -18.5343 H   0  0  0  0  0  0  0  0  0  0  0  0
  -12.3956  -17.1014  -20.1248 H   0  0  0  0  0  0  0  0  0  0  0  0
  -13.8139  -16.4992  -19.5841 H   0  0  0  0  0  0  0  0  0  0  0  0
  -16.9949  -19.4164  -22.1731 H   0  0  0  0  0  0  0  0  0  0  0  0
  -17.2025  -20.0451  -23.6659 H   0  0  0  0  0  0  0  0  0  0  0  0
  -18.3047  -20.3365  -22.4967 H   0  0  0  0  0  0  0  0  0  0  0  0
  -13.3611  -20.3987  -16.8669 H   0  0  0  0  0  0  0  0  0  0  0  0
  -12.2316  -19.3791  -17.4597 H   0  0  0  0  0  0  0  0  0  0  0  0
  -13.6317  -18.7883  -16.8621 H   0  0  0  0  0  0  0  0  0  0  0  0
  -11.4017  -24.9666  -15.8724 H   0  0  0  0  0  0  0  0  0  0  0  0
  -12.6010  -24.0713  -16.5256 H   0  0  0  0  0  0  0  0  0  0  0  0
  -12.5316  -25.6773  -16.8131 H   0  0  0  0  0  0  0  0  0  0  0  0
   -9.4649  -25.7556  -17.3740 H   0  0  0  0  0  0  0  0  0  0  0  0
  -10.5241  -26.5547  -18.3260 H   0  0  0  0  0  0  0  0  0  0  0  0
   -9.5389  -25.4233  -18.9711 H   0  0  0  0  0  0  0  0  0  0  0  0
   -9.7711  -23.2899  -16.9932 H   0  0  0  0  0  0  0  0  0  0  0  0
   -9.9319  -23.0401  -18.5989 H   0  0  0  0  0  0  0  0  0  0  0  0
  -11.0944  -22.5284  -17.5726 H   0  0  0  0  0  0  0  0  0  0  0  0
  -16.7824  -19.8131  -14.9750 H   0  0  0  0  0  0  0  0  0  0  0  0
  -15.7366  -23.7557  -14.3850 H   0  0  0  0  0  0  0  0  0  0  0  0
  -15.9128  -19.9121  -17.1941 H   0  0  0  0  0  0  0  0  0  0  0  0
  -14.9130  -23.8807  -16.6157 H   0  0  0  0  0  0  0  0  0  0  0  0
  -14.6794  -25.4344  -20.5843 H   0  0  0  0  0  0  0  0  0  0  0  0
  -13.3928  -24.9923  -21.4876 H   0  0  0  0  0  0  0  0  0  0  0  0
  -13.3403  -22.8850  -20.4521 H   0  0  0  0  0  0  0  0  0  0  0  0
  1 21  1  0  0  0  0
  2 22  1  0  0  0  0
  2 23  1  0  0  0  0
  3 20  2  0  0  0  0
  4 20  1  0  0  0  0
  4 31  1  0  0  0  0
  5  6  1  0  0  0  0
  5 24  2  0  0  0  0
  6 25  2  0  0  0  0
  7 26  1  0  0  0  0
  7 27  2  0  0  0  0
  8 22  1  0  0  0  0
  8 24  1  0  0  0  0
  8 25  1  0  0  0  0
  9 23  1  0  0  0  0
 10 24  1  0  0  0  0
 11 29  1  0  0  0  0
 12 31  1  0  0  0  0
 13 31  1  0  0  0  0
 14 31  1  0  0  0  0
 15 17  1  0  0  0  0
 15 21  2  0  0  0  0
 16 18  2  0  0  0  0
 16 21  1  0  0  0  0
 17 28  2  0  0  0  0
 18 28  1  0  0  0  0
 19 20  1  0  0  0  0
 19 26  1  0  0  0  0
 22 30  2  0  0  0  0
 23 29  2  0  0  0  0
 25 26  1  0  0  0  0
 27 28  1  0  0  0  0
 27 30  1  0  0  0  0
 29 30  1  0  0  0  0
  9 32  1  0  0  0  0
  9 33  1  0  0  0  0
  9 34  1  0  0  0  0
 10 35  1  0  0  0  0
 10 36  1  0  0  0  0
 10 37  1  0  0  0  0
 11 38  1  0  0  0  0
 11 39  1  0  0  0  0
 11 40  1  0  0  0  0
 12 41  1  0  0  0  0
 12 42  1  0  0  0  0
 12 43  1  0  0  0  0
 13 44  1  0  0  0  0
 13 45  1  0  0  0  0
 13 46  1  0  0  0  0
 14 47  1  0  0  0  0
 14 48  1  0  0  0  0
 14 49  1  0  0  0  0
 15 50  1  0  0  0  0
 16 51  1  0  0  0  0
 17 52  1  0  0  0  0
 18 53  1  0  0  0  0
 19 54  1  0  0  0  0
 19 55  1  0  0  0  0
 26 56  1  0  0  0  0
M  END
> <pdb_id>
3MXF

> <uniprot_id>
O60885

> <usmiles>
Clc1ccc(cc1)C2=N[C@H](C3=NN=C(N3C=4SC(=C(C42)C)C)C)CC(=O)OC(C)(C)C

$$$$
JQB_A_301
          07212403353D 1   1.00000     0.00000     0
            
 39 42  0  0  0  0            999 V2000
  -21.6940   25.6000  -10.1060 O   0  0  0  0  0  0  0  0  0  0  0  0
  -21.3450   14.9050  -12.6180 N   0  0  0  0  0  0  0  0  0  0  0  0
  -17.9130   16.4440  -12.8660 N   0  0  0  0  0  0  0  0  0  0  0  0
  -18.5940   18.8060  -12.4910 N   0  0  0  0  0  0  0  0  0  0  0  0
  -19.7290   19.4710  -12.2450 N   0  0  0  0  0  0  0  0  0  0  0  0
  -21.2500   24.8160   -7.9350 N   0  0  0  0  0  0  0  0  0  0  0  0
  -24.0330   22.1030  -10.7540 N   0  0  0  0  0  0  0  0  0  0  0  0
  -20.8980   15.9550  -12.5330 C   0  0  0  0  0  0  0  0  0  0  0  0
  -21.3520   23.9200   -6.9490 C   0  0  0  0  0  0  0  0  0  0  0  0
  -25.3390   22.0570  -10.4380 C   0  0  0  0  0  0  0  0  0  0  0  0
  -23.2150   23.3050  -10.6960 C   0  0  0  0  0  0  0  0  0  0  0  0
  -22.0820   22.7290   -7.1140 C   0  0  0  0  0  0  0  0  0  0  0  0
  -25.7760   20.7180  -10.6210 C   0  0  0  0  0  0  0  0  0  0  0  0
  -22.7160   22.4780   -8.3280 C   0  0  0  0  0  0  0  0  0  0  0  0
  -23.2290   18.1130  -11.8170 C   0  0  0  0  0  0  0  0  0  0  0  0
  -24.4750   18.5620  -11.4040 C   0  0  0  0  0  0  0  0  0  0  0  0
  -22.2990   20.4110  -11.5460 C   0  0  0  0  0  0  0  0  0  0  0  0
  -21.8270   24.6210   -9.0820 C   0  0  0  0  0  0  0  0  0  0  0  0
  -18.8820   17.4750  -12.6110 C   0  0  0  0  0  0  0  0  0  0  0  0
  -20.7660   18.5890  -12.2440 C   0  0  0  0  0  0  0  0  0  0  0  0
  -23.5780   20.8630  -11.1420 C   0  0  0  0  0  0  0  0  0  0  0  0
  -22.5800   23.4650   -9.3530 C   0  0  0  0  0  0  0  0  0  0  0  0
  -22.1520   19.0510  -11.9050 C   0  0  0  0  0  0  0  0  0  0  0  0
  -24.6610   19.9500  -11.0670 C   0  0  0  0  0  0  0  0  0  0  0  0
  -20.2490   17.3130  -12.4380 C   0  0  0  0  0  0  0  0  0  0  0  0
  -18.2052   15.4905  -12.9403 H   0  0  0  0  0  0  0  0  0  0  0  0
  -16.9468   16.6803  -12.9691 H   0  0  0  0  0  0  0  0  0  0  0  0
  -17.6853   19.2151  -12.5734 H   0  0  0  0  0  0  0  0  0  0  0  0
  -20.7202   25.6511   -7.7872 H   0  0  0  0  0  0  0  0  0  0  0  0
  -20.8998   24.0999   -6.0754 H   0  0  0  0  0  0  0  0  0  0  0  0
  -25.9003   22.8253  -10.1303 H   0  0  0  0  0  0  0  0  0  0  0  0
  -23.7918   24.1008  -10.8805 H   0  0  0  0  0  0  0  0  0  0  0  0
  -22.4979   23.2449  -11.3904 H   0  0  0  0  0  0  0  0  0  0  0  0
  -22.1451   22.0683   -6.3660 H   0  0  0  0  0  0  0  0  0  0  0  0
  -26.7021   20.3747  -10.4646 H   0  0  0  0  0  0  0  0  0  0  0  0
  -23.2444   21.6421   -8.4766 H   0  0  0  0  0  0  0  0  0  0  0  0
  -23.0861   17.1509  -12.0491 H   0  0  0  0  0  0  0  0  0  0  0  0
  -25.2421   17.9236  -11.3404 H   0  0  0  0  0  0  0  0  0  0  0  0
  -21.5197   21.0369  -11.5768 H   0  0  0  0  0  0  0  0  0  0  0  0
  1 18  2  0  0  0  0
  2  8  3  0  0  0  0
  3 19  1  0  0  0  0
  4  5  1  0  0  0  0
  4 19  1  0  0  0  0
  5 20  2  0  0  0  0
  6  9  1  0  0  0  0
  6 18  1  0  0  0  0
  7 10  1  0  0  0  0
  7 11  1  0  0  0  0
  7 21  1  0  0  0  0
  8 25  1  0  0  0  0
  9 12  2  0  0  0  0
 10 13  2  0  0  0  0
 11 22  1  0  0  0  0
 12 14  1  0  0  0  0
 13 24  1  0  0  0  0
 14 22  2  0  0  0  0
 15 16  1  0  0  0  0
 15 23  2  0  0  0  0
 16 24  2  0  0  0  0
 17 21  2  0  0  0  0
 17 23  1  0  0  0  0
 18 22  1  0  0  0  0
 19 25  2  0  0  0  0
 20 23  1  0  0  0  0
 20 25  1  0  0  0  0
 21 24  1  0  0  0  0
  3 26  1  0  0  0  0
  3 27  1  0  0  0  0
  4 28  1  0  0  0  0
  6 29  1  0  0  0  0
  9 30  1  0  0  0  0
 10 31  1  0  0  0  0
 11 32  1  0  0  0  0
 11 33  1  0  0  0  0
 12 34  1  0  0  0  0
 13 35  1  0  0  0  0
 14 36  1  0  0  0  0
 15 37  1  0  0  0  0
 16 38  1  0  0  0  0
 17 39  1  0  0  0  0
M  END
> <pdb_id>
6QR2

> <uniprot_id>
B1MDI3

> <usmiles>
O=C1NC=CC=C1CN2c3c(ccc(c3)C4=NNC(N)=C4C#N)C=C2

$$$$
JS1_B_1801
          07202411513D 1   1.00000     0.00000     0
            
 46 48  0  0  0  0            999 V2000
    9.1497   64.2465   -2.8610 O   0  0  0  0  0  0  0  0  0  0  0  0
   10.5959   60.9674   -7.1938 O   0  0  0  0  0  0  0  0  0  0  0  0
    7.5206   65.6780   -3.2072 O   0  0  0  0  0  0  0  0  0  0  0  0
    9.3896   66.3121   -6.9354 O   0  0  0  0  0  0  0  0  0  0  0  0
   10.8338   62.1983   -3.8186 N   0  0  0  0  0  0  0  0  0  0  0  0
   12.1043   61.7375   -4.4046 C   0  0  0  0  0  0  0  0  0  0  0  0
   10.6093   61.4691   -2.5552 C   0  0  0  0  0  0  0  0  0  0  0  0
    6.2597   66.9925   -1.6023 C   0  0  0  0  0  0  0  0  0  0  0  0
    7.3268   65.9120   -1.7858 C   0  0  0  0  0  0  0  0  0  0  0  0
    9.6808   62.0729   -4.7442 C   0  0  0  0  0  0  0  0  0  0  0  0
    8.1135   70.4717   -4.3920 C   0  0  0  0  0  0  0  0  0  0  0  0
    8.6237   69.5532   -3.4962 C   0  0  0  0  0  0  0  0  0  0  0  0
    7.8794   70.1135   -5.7054 C   0  0  0  0  0  0  0  0  0  0  0  0
   10.4746   63.0651   -8.3240 C   0  0  0  0  0  0  0  0  0  0  0  0
    8.9025   68.2646   -3.9027 C   0  0  0  0  0  0  0  0  0  0  0  0
    8.1583   68.8208   -6.1259 C   0  0  0  0  0  0  0  0  0  0  0  0
   10.1873   64.4101   -8.3312 C   0  0  0  0  0  0  0  0  0  0  0  0
    8.6847   65.1057   -3.5779 C   0  0  0  0  0  0  0  0  0  0  0  0
   10.3034   62.3138   -7.1630 C   0  0  0  0  0  0  0  0  0  0  0  0
    9.7292   65.0247   -7.1735 C   0  0  0  0  0  0  0  0  0  0  0  0
    8.9821   66.5034   -5.6833 C   0  0  0  0  0  0  0  0  0  0  0  0
    8.6285   67.8663   -5.2170 C   0  0  0  0  0  0  0  0  0  0  0  0
    9.8509   62.9185   -5.9882 C   0  0  0  0  0  0  0  0  0  0  0  0
    9.0680   65.2886   -4.9849 C   0  0  0  0  0  0  0  0  0  0  0  0
    9.5450   64.2859   -5.9857 C   0  0  0  0  0  0  0  0  0  0  0  0
   10.4795   60.4115   -6.3708 H   0  0  0  0  0  0  0  0  0  0  0  0
   12.2710   62.2230   -5.2628 H   0  0  0  0  0  0  0  0  0  0  0  0
   12.8519   61.9219   -3.7666 H   0  0  0  0  0  0  0  0  0  0  0  0
   12.0523   60.7548   -4.5823 H   0  0  0  0  0  0  0  0  0  0  0  0
    9.7491   61.7713   -2.1443 H   0  0  0  0  0  0  0  0  0  0  0  0
   10.5635   60.4875   -2.7405 H   0  0  0  0  0  0  0  0  0  0  0  0
   11.3631   61.6546   -1.9248 H   0  0  0  0  0  0  0  0  0  0  0  0
    6.1196   67.1603   -0.6264 H   0  0  0  0  0  0  0  0  0  0  0  0
    6.5605   67.8368   -2.0458 H   0  0  0  0  0  0  0  0  0  0  0  0
    5.4015   66.6868   -2.0145 H   0  0  0  0  0  0  0  0  0  0  0  0
    8.1865   66.2161   -1.3754 H   0  0  0  0  0  0  0  0  0  0  0  0
    7.0275   65.0662   -1.3441 H   0  0  0  0  0  0  0  0  0  0  0  0
    8.8519   62.3649   -4.2672 H   0  0  0  0  0  0  0  0  0  0  0  0
    9.5890   61.1150   -5.0162 H   0  0  0  0  0  0  0  0  0  0  0  0
    7.9119   71.4028   -4.0878 H   0  0  0  0  0  0  0  0  0  0  0  0
    8.7919   69.8233   -2.5482 H   0  0  0  0  0  0  0  0  0  0  0  0
    7.5107   70.7829   -6.3504 H   0  0  0  0  0  0  0  0  0  0  0  0
   10.8084   62.6238   -9.1570 H   0  0  0  0  0  0  0  0  0  0  0  0
    9.3012   67.6133   -3.2571 H   0  0  0  0  0  0  0  0  0  0  0  0
    8.0223   68.5697   -7.0842 H   0  0  0  0  0  0  0  0  0  0  0  0
   10.3080   64.9440   -9.1680 H   0  0  0  0  0  0  0  0  0  0  0  0
  1 18  2  0  0  0  0
  2 19  1  0  0  0  0
  3  9  1  0  0  0  0
  3 18  1  0  0  0  0
  4 20  1  0  0  0  0
  4 21  1  0  0  0  0
  5  6  1  0  0  0  0
  5  7  1  0  0  0  0
  5 10  1  0  0  0  0
  8  9  1  0  0  0  0
 10 23  1  0  0  0  0
 11 12  2  0  0  0  0
 11 13  1  0  0  0  0
 12 15  1  0  0  0  0
 13 16  2  0  0  0  0
 14 17  1  0  0  0  0
 14 19  2  0  0  0  0
 15 22  2  0  0  0  0
 16 22  1  0  0  0  0
 17 20  2  0  0  0  0
 18 24  1  0  0  0  0
 19 23  1  0  0  0  0
 20 25  1  0  0  0  0
 21 22  1  0  0  0  0
 21 24  2  0  0  0  0
 23 25  2  0  0  0  0
 24 25  1  0  0  0  0
  2 26  1  0  0  0  0
  6 27  1  0  0  0  0
  6 28  1  0  0  0  0
  6 29  1  0  0  0  0
  7 30  1  0  0  0  0
  7 31  1  0  0  0  0
  7 32  1  0  0  0  0
  8 33  1  0  0  0  0
  8 34  1  0  0  0  0
  8 35  1  0  0  0  0
  9 36  1  0  0  0  0
  9 37  1  0  0  0  0
 10 38  1  0  0  0  0
 10 39  1  0  0  0  0
 11 40  1  0  0  0  0
 12 41  1  0  0  0  0
 13 42  1  0  0  0  0
 14 43  1  0  0  0  0
 15 44  1  0  0  0  0
 16 45  1  0  0  0  0
 17 46  1  0  0  0  0
M  END
> <pdb_id>
5V40

> <uniprot_id>
nan

> <usmiles>
O=C(OCC)C=1c2c(OC1c3ccccc3)ccc(O)c2CN(C)C

$$$$
JV5_A_515
          07202416263D 1   1.00000     0.00000     0
            
 35 37  0  0  0  0            999 V2000
   24.5167   69.7300   72.3386 O   0  0  0  0  0  0  0  0  0  0  0  0
   27.4792   67.9079   71.8770 O   0  0  0  0  0  0  0  0  0  0  0  0
   19.5263   67.3867   69.1878 N   0  0  0  0  0  0  0  0  0  0  0  0
   20.3128   66.4722   68.6752 N   0  0  0  0  0  0  0  0  0  0  0  0
   20.2453   68.1681   70.0172 N   0  0  0  0  0  0  0  0  0  0  0  0
   25.0931   67.8707   71.1307 N   0  0  0  0  0  0  0  0  0  0  0  0
   28.2851   65.5147   70.8476 C   0  0  0  0  0  0  0  0  0  0  0  0
   26.7267   68.8937   72.5772 C   0  0  0  0  0  0  0  0  0  0  0  0
   30.4507   67.4846   73.9973 C   0  0  0  0  0  0  0  0  0  0  0  0
   30.9321   66.3118   73.4548 C   0  0  0  0  0  0  0  0  0  0  0  0
   29.2949   68.0624   73.4953 C   0  0  0  0  0  0  0  0  0  0  0  0
   30.2576   65.6987   72.4121 C   0  0  0  0  0  0  0  0  0  0  0  0
   23.9219   66.4200   69.6232 C   0  0  0  0  0  0  0  0  0  0  0  0
   22.7768   65.9925   68.9724 C   0  0  0  0  0  0  0  0  0  0  0  0
   22.6850   68.1895   70.7150 C   0  0  0  0  0  0  0  0  0  0  0  0
   25.3320   68.8741   72.0036 C   0  0  0  0  0  0  0  0  0  0  0  0
   28.6253   67.4332   72.4554 C   0  0  0  0  0  0  0  0  0  0  0  0
   23.8825   67.5115   70.4923 C   0  0  0  0  0  0  0  0  0  0  0  0
   21.5802   66.6716   69.1891 C   0  0  0  0  0  0  0  0  0  0  0  0
   21.5397   67.7582   70.0522 C   0  0  0  0  0  0  0  0  0  0  0  0
   29.0805   66.2367   71.9038 C   0  0  0  0  0  0  0  0  0  0  0  0
   20.0441   65.7584   68.0284 H   0  0  0  0  0  0  0  0  0  0  0  0
   25.8834   67.3016   70.9038 H   0  0  0  0  0  0  0  0  0  0  0  0
   27.4774   66.0548   70.6111 H   0  0  0  0  0  0  0  0  0  0  0  0
   28.8510   65.3872   70.0331 H   0  0  0  0  0  0  0  0  0  0  0  0
   27.9988   64.6227   71.1976 H   0  0  0  0  0  0  0  0  0  0  0  0
   27.1384   69.7958   72.4481 H   0  0  0  0  0  0  0  0  0  0  0  0
   26.6997   68.6762   73.5529 H   0  0  0  0  0  0  0  0  0  0  0  0
   30.9369   67.9197   74.7551 H   0  0  0  0  0  0  0  0  0  0  0  0
   31.7704   65.9028   73.8152 H   0  0  0  0  0  0  0  0  0  0  0  0
   28.9489   68.9196   73.8768 H   0  0  0  0  0  0  0  0  0  0  0  0
   30.6231   64.8553   72.0183 H   0  0  0  0  0  0  0  0  0  0  0  0
   24.7864   65.9416   69.4688 H   0  0  0  0  0  0  0  0  0  0  0  0
   22.8085   65.2064   68.3550 H   0  0  0  0  0  0  0  0  0  0  0  0
   22.6496   68.9704   71.3386 H   0  0  0  0  0  0  0  0  0  0  0  0
  1 16  2  0  0  0  0
  2  8  1  0  0  0  0
  2 17  1  0  0  0  0
  3  4  1  0  0  0  0
  3  5  2  0  0  0  0
  4 19  1  0  0  0  0
  5 20  1  0  0  0  0
  6 16  1  0  0  0  0
  6 18  1  0  0  0  0
  7 21  1  0  0  0  0
  8 16  1  0  0  0  0
  9 10  2  0  0  0  0
  9 11  1  0  0  0  0
 10 12  1  0  0  0  0
 11 17  2  0  0  0  0
 12 21  2  0  0  0  0
 13 14  1  0  0  0  0
 13 18  2  0  0  0  0
 14 19  2  0  0  0  0
 15 18  1  0  0  0  0
 15 20  2  0  0  0  0
 17 21  1  0  0  0  0
 19 20  1  0  0  0  0
  4 22  1  0  0  0  0
  6 23  1  0  0  0  0
  7 24  1  0  0  0  0
  7 25  1  0  0  0  0
  7 26  1  0  0  0  0
  8 27  1  0  0  0  0
  8 28  1  0  0  0  0
  9 29  1  0  0  0  0
 10 30  1  0  0  0  0
 11 31  1  0  0  0  0
 12 32  1  0  0  0  0
 13 33  1  0  0  0  0
 14 34  1  0  0  0  0
 15 35  1  0  0  0  0
M  END
> <pdb_id>
6R8Q

> <uniprot_id>
Q6P988

> <usmiles>
O=C(Nc1cc2N=NNc2cc1)COc3c(cccc3)C

$$$$
JVE_A_1392
          07212402253D 1   1.00000     0.00000     0
            
 34 37  0  0  0  0            999 V2000
  113.7755  -18.2390    1.4572 F   0  0  0  0  0  0  0  0  0  0  0  0
  112.9480  -18.0884    5.7546 O   0  0  0  0  0  0  0  0  0  0  0  0
  109.3156  -16.5004    0.2408 N   0  0  0  0  0  0  0  0  0  0  0  0
  109.7693  -17.5021    7.2647 N   0  0  0  0  0  0  0  0  0  0  0  0
  108.5459  -16.2098    1.4190 N   0  0  0  0  0  0  0  0  0  0  0  0
  108.8209  -16.3806    3.7645 N   0  0  0  0  0  0  0  0  0  0  0  0
  112.8064  -21.6473    2.3289 C   0  0  0  0  0  0  0  0  0  0  0  0
  111.7175  -21.4077    3.2003 C   0  0  0  0  0  0  0  0  0  0  0  0
  110.5836  -17.0390    0.7943 C   0  0  0  0  0  0  0  0  0  0  0  0
  111.2446  -17.4276    7.2820 C   0  0  0  0  0  0  0  0  0  0  0  0
  109.1382  -16.5655    6.3097 C   0  0  0  0  0  0  0  0  0  0  0  0
  113.4980  -20.5593    1.7434 C   0  0  0  0  0  0  0  0  0  0  0  0
  111.3156  -20.0768    3.4861 C   0  0  0  0  0  0  0  0  0  0  0  0
  113.0879  -19.2376    2.0378 C   0  0  0  0  0  0  0  0  0  0  0  0
  111.8444  -17.6488    5.8821 C   0  0  0  0  0  0  0  0  0  0  0  0
  109.2490  -16.5268    2.4977 C   0  0  0  0  0  0  0  0  0  0  0  0
  109.7021  -16.7671    4.9055 C   0  0  0  0  0  0  0  0  0  0  0  0
  111.9940  -18.9517    2.9110 C   0  0  0  0  0  0  0  0  0  0  0  0
  110.5458  -17.0542    2.1379 C   0  0  0  0  0  0  0  0  0  0  0  0
  110.9764  -17.2806    4.6734 C   0  0  0  0  0  0  0  0  0  0  0  0
  111.5523  -17.4930    3.2246 C   0  0  1  0  0  0  0  0  0  0  0  0
  109.4317  -17.2926    8.1823 H   0  0  0  0  0  0  0  0  0  0  0  0
  107.6219  -15.8273    1.4246 H   0  0  0  0  0  0  0  0  0  0  0  0
  107.9087  -16.0115    3.9425 H   0  0  0  0  0  0  0  0  0  0  0  0
  113.0876  -22.5854    2.1266 H   0  0  0  0  0  0  0  0  0  0  0  0
  111.2309  -22.1766    3.6150 H   0  0  0  0  0  0  0  0  0  0  0  0
  111.3590  -17.3479    0.2434 H   0  0  0  0  0  0  0  0  0  0  0  0
  111.5970  -18.1305    7.8999 H   0  0  0  0  0  0  0  0  0  0  0  0
  111.5193  -16.5248    7.6129 H   0  0  0  0  0  0  0  0  0  0  0  0
  109.3170  -15.6265    6.6038 H   0  0  0  0  0  0  0  0  0  0  0  0
  108.1516  -16.7277    6.2939 H   0  0  0  0  0  0  0  0  0  0  0  0
  114.2688  -20.7235    1.1278 H   0  0  0  0  0  0  0  0  0  0  0  0
  110.5430  -19.9203    4.1014 H   0  0  0  0  0  0  0  0  0  0  0  0
  112.3604  -16.9106    3.1360 H   0  0  0  0  0  0  0  0  0  0  0  0
  1 14  1  0  0  0  0
  2 15  2  0  0  0  0
  3  5  1  0  0  0  0
  3  9  2  0  0  0  0
  4 10  1  0  0  0  0
  4 11  1  0  0  0  0
  5 16  1  0  0  0  0
  6 16  1  0  0  0  0
  6 17  1  0  0  0  0
  7  8  2  0  0  0  0
  7 12  1  0  0  0  0
  8 13  1  0  0  0  0
  9 19  1  0  0  0  0
 10 15  1  0  0  0  0
 11 17  1  0  0  0  0
 12 14  2  0  0  0  0
 13 18  2  0  0  0  0
 14 18  1  0  0  0  0
 15 20  1  0  0  0  0
 16 19  2  0  0  0  0
 17 20  2  0  0  0  0
 18 21  1  0  0  0  0
 19 21  1  0  0  0  0
 20 21  1  0  0  0  0
  4 22  1  0  0  0  0
  5 23  1  0  0  0  0
  6 24  1  0  0  0  0
  7 25  1  0  0  0  0
  8 26  1  0  0  0  0
  9 27  1  0  0  0  0
 10 28  1  0  0  0  0
 10 29  1  0  0  0  0
 11 30  1  0  0  0  0
 11 31  1  0  0  0  0
 12 32  1  0  0  0  0
 13 33  1  0  0  0  0
 21 34  1  0  0  0  0
M  END
> <pdb_id>
4UZH

> <uniprot_id>
O14965

> <usmiles>
Fc1c(cccc1)[C@@H]2C=3C(=O)CNCC3NC=4NN=CC42

$$$$
JWK_A_403
          07202405063D 1   1.00000     0.00000     0
            
 37 39  0  0  0  0            999 V2000
  -19.5640   -9.8211   31.0067 F   0  0  0  0  0  0  0  0  0  0  0  0
  -15.5215   -0.8899   29.3016 O   0  0  0  0  0  0  0  0  0  0  0  0
  -14.7549   -6.1878   32.8048 N   0  0  0  0  0  0  0  0  0  0  0  0
  -19.9391   -9.0736   28.9334 N   0  0  0  0  0  0  0  0  0  0  0  0
  -13.9096   -4.0457   32.4759 N   0  0  0  0  0  0  0  0  0  0  0  0
  -16.4537   -5.9356   30.7130 N   0  0  0  0  0  0  0  0  0  0  0  0
  -13.6268   -1.9534   28.3526 C   0  0  0  0  0  0  0  0  0  0  0  0
  -13.4116   -0.4926   30.3604 C   0  0  0  0  0  0  0  0  0  0  0  0
  -19.6764   -8.1674   27.9833 C   0  0  0  0  0  0  0  0  0  0  0  0
  -13.8272   -2.9364   31.7191 C   0  0  0  0  0  0  0  0  0  0  0  0
  -18.7991   -7.1157   28.1509 C   0  0  0  0  0  0  0  0  0  0  0  0
  -17.1665   -4.7424   28.7662 C   0  0  0  0  0  0  0  0  0  0  0  0
  -16.3877   -3.6800   29.0828 C   0  0  0  0  0  0  0  0  0  0  0  0
  -18.4104   -7.8952   30.3785 C   0  0  0  0  0  0  0  0  0  0  0  0
  -19.2820   -8.9127   30.0453 C   0  0  0  0  0  0  0  0  0  0  0  0
  -14.7357   -5.0236   32.1164 C   0  0  0  0  0  0  0  0  0  0  0  0
  -17.2048   -5.8482   29.6178 C   0  0  0  0  0  0  0  0  0  0  0  0
  -15.6200   -4.9044   31.0149 C   0  0  0  0  0  0  0  0  0  0  0  0
  -18.1326   -6.9728   29.3691 C   0  0  0  0  0  0  0  0  0  0  0  0
  -15.5319   -3.7328   30.2047 C   0  0  0  0  0  0  0  0  0  0  0  0
  -14.5835   -2.7316   30.5785 C   0  0  0  0  0  0  0  0  0  0  0  0
  -14.2860   -1.5322   29.6650 C   0  0  0  0  0  0  0  0  0  0  0  0
  -15.9980   -0.5918   30.1286 H   0  0  0  0  0  0  0  0  0  0  0  0
  -15.3779   -6.9204   32.5308 H   0  0  0  0  0  0  0  0  0  0  0  0
  -14.1461   -6.3159   33.5877 H   0  0  0  0  0  0  0  0  0  0  0  0
  -12.7578   -2.4083   28.5470 H   0  0  0  0  0  0  0  0  0  0  0  0
  -14.2304   -2.5829   27.8633 H   0  0  0  0  0  0  0  0  0  0  0  0
  -13.4607   -1.1446   27.7884 H   0  0  0  0  0  0  0  0  0  0  0  0
  -12.5430   -0.9113   30.6256 H   0  0  0  0  0  0  0  0  0  0  0  0
  -13.2377    0.2685   29.7356 H   0  0  0  0  0  0  0  0  0  0  0  0
  -13.8810   -0.1539   31.1759 H   0  0  0  0  0  0  0  0  0  0  0  0
  -20.1422   -8.2578   27.1030 H   0  0  0  0  0  0  0  0  0  0  0  0
  -13.1849   -2.2215   31.9956 H   0  0  0  0  0  0  0  0  0  0  0  0
  -18.6427   -6.4638   27.4089 H   0  0  0  0  0  0  0  0  0  0  0  0
  -17.7109   -4.7346   27.9274 H   0  0  0  0  0  0  0  0  0  0  0  0
  -16.4190   -2.8546   28.5192 H   0  0  0  0  0  0  0  0  0  0  0  0
  -18.0027   -7.8235   31.2888 H   0  0  0  0  0  0  0  0  0  0  0  0
  1 15  1  0  0  0  0
  2 22  1  0  0  0  0
  3 16  1  0  0  0  0
  4  9  2  0  0  0  0
  4 15  1  0  0  0  0
  5 10  1  0  0  0  0
  5 16  2  0  0  0  0
  6 17  1  0  0  0  0
  6 18  2  0  0  0  0
  7 22  1  0  0  0  0
  8 22  1  0  0  0  0
  9 11  1  0  0  0  0
 10 21  2  0  0  0  0
 11 19  2  0  0  0  0
 12 13  1  0  0  0  0
 12 17  2  0  0  0  0
 13 20  2  0  0  0  0
 14 15  2  0  0  0  0
 14 19  1  0  0  0  0
 16 18  1  0  0  0  0
 17 19  1  0  0  0  0
 18 20  1  0  0  0  0
 20 21  1  0  0  0  0
 21 22  1  0  0  0  0
  2 23  1  0  0  0  0
  3 24  1  0  0  0  0
  3 25  1  0  0  0  0
  7 26  1  0  0  0  0
  7 27  1  0  0  0  0
  7 28  1  0  0  0  0
  8 29  1  0  0  0  0
  8 30  1  0  0  0  0
  8 31  1  0  0  0  0
  9 32  1  0  0  0  0
 10 33  1  0  0  0  0
 11 34  1  0  0  0  0
 12 35  1  0  0  0  0
 13 36  1  0  0  0  0
 14 37  1  0  0  0  0
M  END
> <pdb_id>
6RA7

> <uniprot_id>
Q9UKE5

> <usmiles>
Fc1nccc(c2nc3c(ncc(c3cc2)C(O)(C)C)N)c1

$$$$
JWM_A_302
          07202407423D 1   1.00000     0.00000     0
            
 50 50  0  0  0  0            999 V2000
   26.5834  -10.7409  -10.0851 S   0  0  0  0  0  0  0  0  0  0  0  0
   26.5682  -11.1373  -11.4657 O   0  0  0  0  0  0  0  0  0  0  0  0
   27.1732   -9.4359   -9.9580 O   0  0  0  0  0  0  0  0  0  0  0  0
   22.1880   -7.8562   -7.1550 O   0  0  0  0  0  0  0  0  0  0  0  0
   29.8902  -20.8758   -1.0332 O   0  0  0  0  0  0  0  0  0  0  0  0
   22.4381  -10.4601   -7.8816 O   0  0  0  0  0  0  0  0  0  0  0  0
   26.8567  -10.8645   -6.3258 O   0  0  0  0  0  0  0  0  0  0  0  0
   23.4207   -8.5040   -7.3661 N   0  0  0  0  0  0  0  0  0  0  0  0
   24.9743  -11.5889   -7.2789 N   0  0  0  0  0  0  0  0  0  0  0  0
   27.5698  -11.7774   -9.2719 C   0  0  0  0  0  0  0  0  0  0  0  0
   24.2425  -11.9357  -10.0038 C   0  0  0  0  0  0  0  0  0  0  0  0
   24.4159   -9.4862  -10.3907 C   0  0  0  0  0  0  0  0  0  0  0  0
   28.5881  -21.4744   -0.8933 C   0  0  0  0  0  0  0  0  0  0  0  0
   27.8654  -21.4948   -2.2375 C   0  0  0  0  0  0  0  0  0  0  0  0
   27.6149  -20.1364   -2.7562 C   0  0  0  0  0  0  0  0  0  0  0  0
   27.3452  -19.0480   -3.1264 C   0  0  0  0  0  0  0  0  0  0  0  0
   27.0883  -17.7767   -3.5951 C   0  0  0  0  0  0  0  0  0  0  0  0
   26.9379  -16.7331   -4.1375 C   0  0  0  0  0  0  0  0  0  0  0  0
   25.4816  -15.2164   -5.0759 C   0  0  0  0  0  0  0  0  0  0  0  0
   27.8406  -14.7426   -4.9817 C   0  0  0  0  0  0  0  0  0  0  0  0
   25.2502  -13.9781   -5.6568 C   0  0  0  0  0  0  0  0  0  0  0  0
   27.6070  -13.4925   -5.5753 C   0  0  0  0  0  0  0  0  0  0  0  0
   23.4515   -9.7774   -7.7781 C   0  0  0  0  0  0  0  0  0  0  0  0
   26.0572  -11.7721   -6.5267 C   0  0  0  0  0  0  0  0  0  0  0  0
   24.8079  -10.3877   -8.0819 C   0  0  2  0  0  0  0  0  0  0  0  0
   26.7888  -15.6008   -4.7380 C   0  0  0  0  0  0  0  0  0  0  0  0
   26.3088  -13.1126   -5.9083 C   0  0  0  0  0  0  0  0  0  0  0  0
   24.9698  -10.6612   -9.5866 C   0  0  0  0  0  0  0  0  0  0  0  0
   22.3524   -6.9176   -6.8515 H   0  0  0  0  0  0  0  0  0  0  0  0
   30.3512  -20.8693   -0.1459 H   0  0  0  0  0  0  0  0  0  0  0  0
   24.2761   -8.0109   -7.2076 H   0  0  0  0  0  0  0  0  0  0  0  0
   24.2617  -12.2903   -7.2920 H   0  0  0  0  0  0  0  0  0  0  0  0
   27.5975  -11.5221   -8.3054 H   0  0  0  0  0  0  0  0  0  0  0  0
   27.2192  -12.7098   -9.3604 H   0  0  0  0  0  0  0  0  0  0  0  0
   28.4920  -11.7303   -9.6557 H   0  0  0  0  0  0  0  0  0  0  0  0
   23.2885  -11.8870   -9.7082 H   0  0  0  0  0  0  0  0  0  0  0  0
   24.2789  -12.0298  -10.9987 H   0  0  0  0  0  0  0  0  0  0  0  0
   24.6835  -12.7258   -9.5779 H   0  0  0  0  0  0  0  0  0  0  0  0
   23.4508   -9.3533  -10.1650 H   0  0  0  0  0  0  0  0  0  0  0  0
   24.9281   -8.6573  -10.1657 H   0  0  0  0  0  0  0  0  0  0  0  0
   24.5063   -9.6789  -11.3678 H   0  0  0  0  0  0  0  0  0  0  0  0
   28.0502  -20.9440   -0.2380 H   0  0  0  0  0  0  0  0  0  0  0  0
   28.6902  -22.4115   -0.5597 H   0  0  0  0  0  0  0  0  0  0  0  0
   26.9891  -21.9633   -2.1250 H   0  0  0  0  0  0  0  0  0  0  0  0
   28.4274  -21.9931   -2.8977 H   0  0  0  0  0  0  0  0  0  0  0  0
   24.7168  -15.8355   -4.8978 H   0  0  0  0  0  0  0  0  0  0  0  0
   28.7715  -15.0116   -4.7349 H   0  0  0  0  0  0  0  0  0  0  0  0
   24.3178  -13.7068   -5.8957 H   0  0  0  0  0  0  0  0  0  0  0  0
   28.3719  -12.8751   -5.7590 H   0  0  0  0  0  0  0  0  0  0  0  0
   25.5115   -9.7318   -7.8084 H   0  0  0  0  0  0  0  0  0  0  0  0
  1  2  2  0  0  0  0
  1  3  2  0  0  0  0
  1 10  1  0  0  0  0
  1 28  1  0  0  0  0
  4  8  1  0  0  0  0
  5 13  1  0  0  0  0
  6 23  2  0  0  0  0
  7 24  2  0  0  0  0
  8 23  1  0  0  0  0
  9 24  1  0  0  0  0
  9 25  1  0  0  0  0
 11 28  1  0  0  0  0
 12 28  1  0  0  0  0
 13 14  1  0  0  0  0
 14 15  1  0  0  0  0
 15 16  3  0  0  0  0
 16 17  1  0  0  0  0
 17 18  3  0  0  0  0
 18 26  1  0  0  0  0
 19 21  1  0  0  0  0
 19 26  2  0  0  0  0
 20 22  2  0  0  0  0
 20 26  1  0  0  0  0
 21 27  2  0  0  0  0
 22 27  1  0  0  0  0
 23 25  1  0  0  0  0
 24 27  1  0  0  0  0
 25 28  1  0  0  0  0
  4 29  1  0  0  0  0
  5 30  1  0  0  0  0
  8 31  1  0  0  0  0
  9 32  1  0  0  0  0
 10 33  1  0  0  0  0
 10 34  1  0  0  0  0
 10 35  1  0  0  0  0
 11 36  1  0  0  0  0
 11 37  1  0  0  0  0
 11 38  1  0  0  0  0
 12 39  1  0  0  0  0
 12 40  1  0  0  0  0
 12 41  1  0  0  0  0
 13 42  1  0  0  0  0
 13 43  1  0  0  0  0
 14 44  1  0  0  0  0
 14 45  1  0  0  0  0
 19 46  1  0  0  0  0
 20 47  1  0  0  0  0
 21 48  1  0  0  0  0
 22 49  1  0  0  0  0
 25 50  1  0  0  0  0
M  END
> <pdb_id>
6MO4

> <uniprot_id>
P47205

> <usmiles>
S(=O)(=O)(C([C@H](NC(=O)c1ccc(C#CC#CCCO)cc1)C(=O)NO)(C)C)C

$$$$
JWQ_A_406
          07202401373D 1   1.00000     0.00000     0
            
 34 35  0  0  0  0            999 V2000
   23.8113  -26.9254   12.1458 S   0  0  0  0  0  0  0  0  0  0  0  0
   23.5709  -24.2045   10.4124 F   0  0  0  0  0  0  0  0  0  0  0  0
   25.5801  -24.3581   11.3182 F   0  0  0  0  0  0  0  0  0  0  0  0
   24.0717  -23.0585   12.2122 F   0  0  0  0  0  0  0  0  0  0  0  0
   23.6298  -29.6935   12.1558 O   0  0  0  0  0  0  0  0  0  0  0  0
   22.3324  -37.5982   14.2335 O   0  0  0  0  0  0  0  0  0  0  0  0
   22.2343  -35.9226   16.2891 O   0  0  0  0  0  0  0  0  0  0  0  0
   22.2530  -31.0507   16.4857 N   0  0  0  0  0  0  0  0  0  0  0  0
   22.9394  -26.2473   14.3959 N   0  0  0  0  0  0  0  0  0  0  0  0
   23.3075  -25.0252   13.7068 N   0  0  0  0  0  0  0  0  0  0  0  0
   22.9191  -28.6246   14.0667 N   0  0  0  0  0  0  0  0  0  0  0  0
   22.1202  -34.9961   17.3526 C   0  0  0  0  0  0  0  0  0  0  0  0
   22.5128  -31.0658   15.3805 C   0  0  0  0  0  0  0  0  0  0  0  0
   22.7676  -35.8086   12.6746 C   0  0  0  0  0  0  0  0  0  0  0  0
   22.9605  -34.4649   12.4439 C   0  0  0  0  0  0  0  0  0  0  0  0
   22.6563  -34.0217   14.8095 C   0  0  0  0  0  0  0  0  0  0  0  0
   23.0989  -32.1386   13.1387 C   0  0  0  0  0  0  0  0  0  0  0  0
   23.1803  -27.3334   13.5928 C   0  0  0  0  0  0  0  0  0  0  0  0
   23.8036  -25.3118   12.4526 C   0  0  0  0  0  0  0  0  0  0  0  0
   23.1708  -29.7530   13.2758 C   0  0  0  0  0  0  0  0  0  0  0  0
   22.5227  -36.2557   13.9668 C   0  0  0  0  0  0  0  0  0  0  0  0
   22.4866  -35.3752   15.0332 C   0  0  0  0  0  0  0  0  0  0  0  0
   22.9113  -33.5775   13.5124 C   0  0  0  0  0  0  0  0  0  0  0  0
   22.9014  -31.0669   13.9212 C   0  0  0  0  0  0  0  0  0  0  0  0
   24.2687  -24.2039   11.5502 C   0  0  0  0  0  0  0  0  0  0  0  0
   22.1572  -37.9020   15.1700 H   0  0  0  0  0  0  0  0  0  0  0  0
   22.5461  -28.7435   14.9869 H   0  0  0  0  0  0  0  0  0  0  0  0
   21.9404  -35.4874   18.2048 H   0  0  0  0  0  0  0  0  0  0  0  0
   22.9727  -34.4806   17.4385 H   0  0  0  0  0  0  0  0  0  0  0  0
   21.3667  -34.3656   17.1659 H   0  0  0  0  0  0  0  0  0  0  0  0
   22.8037  -36.4591   11.9159 H   0  0  0  0  0  0  0  0  0  0  0  0
   23.1340  -34.1311   11.5174 H   0  0  0  0  0  0  0  0  0  0  0  0
   22.5972  -33.3709   15.5664 H   0  0  0  0  0  0  0  0  0  0  0  0
   23.4048  -31.9574   12.2041 H   0  0  0  0  0  0  0  0  0  0  0  0
  1 18  1  0  0  0  0
  1 19  1  0  0  0  0
  2 25  1  0  0  0  0
  3 25  1  0  0  0  0
  4 25  1  0  0  0  0
  5 20  2  0  0  0  0
  6 21  1  0  0  0  0
  7 12  1  0  0  0  0
  7 22  1  0  0  0  0
  8 13  3  0  0  0  0
  9 10  1  0  0  0  0
  9 18  2  0  0  0  0
 10 19  2  0  0  0  0
 11 18  1  0  0  0  0
 11 20  1  0  0  0  0
 13 24  1  0  0  0  0
 14 15  1  0  0  0  0
 14 21  2  0  0  0  0
 15 23  2  0  0  0  0
 16 22  2  0  0  0  0
 16 23  1  0  0  0  0
 17 23  1  0  0  0  0
 17 24  2  0  0  0  0
 19 25  1  0  0  0  0
 20 24  1  0  0  0  0
 21 22  1  0  0  0  0
  6 26  1  0  0  0  0
 11 27  1  0  0  0  0
 12 28  1  0  0  0  0
 12 29  1  0  0  0  0
 12 30  1  0  0  0  0
 14 31  1  0  0  0  0
 15 32  1  0  0  0  0
 16 33  1  0  0  0  0
 17 34  1  0  0  0  0
M  END
> <pdb_id>
6RB1

> <uniprot_id>
P68400

> <usmiles>
S1C(=NN=C1C(F)(F)F)NC(=O)/C(/C#N)=C/c2cc(OC)c(O)cc2

$$$$
JWS_A_299
          07192421083D 1   1.00000     0.00000     0
            
 28 29  0  0  0  0            999 V2000
    2.3280   30.7158    6.3024 O   0  0  0  0  0  0  0  0  0  0  0  0
   -2.0179   29.4099    9.6294 O   0  0  0  0  0  0  0  0  0  0  0  0
    2.8805   24.5510    8.3013 N   0  0  0  0  0  0  0  0  0  0  0  0
    5.2658   27.5697    5.5468 N   0  0  0  0  0  0  0  0  0  0  0  0
    4.0909   26.0387    6.9207 N   0  0  0  0  0  0  0  0  0  0  0  0
    2.0768   26.7429    7.9684 N   0  0  0  0  0  0  0  0  0  0  0  0
    3.2870   28.2477    6.5916 N   0  0  0  0  0  0  0  0  0  0  0  0
   -3.0464   30.3754    9.9442 C   0  0  0  0  0  0  0  0  0  0  0  0
    0.2616   31.3623    7.4281 C   0  0  0  0  0  0  0  0  0  0  0  0
   -0.8483   31.0123    8.2860 C   0  0  0  0  0  0  0  0  0  0  0  0
    0.0716   28.7106    8.5274 C   0  0  0  0  0  0  0  0  0  0  0  0
    3.0201   25.7668    7.7303 C   0  0  0  0  0  0  0  0  0  0  0  0
    4.2270   27.2865    6.3440 C   0  0  0  0  0  0  0  0  0  0  0  0
    1.2739   30.3939    7.1150 C   0  0  0  0  0  0  0  0  0  0  0  0
   -0.9806   29.6635    8.8637 C   0  0  0  0  0  0  0  0  0  0  0  0
    2.2051   27.9918    7.4010 C   0  0  0  0  0  0  0  0  0  0  0  0
    1.1810   29.0467    7.6757 C   0  0  0  0  0  0  0  0  0  0  0  0
    3.0256   30.0304    6.0933 H   0  0  0  0  0  0  0  0  0  0  0  0
    2.0950   24.3626    8.8907 H   0  0  0  0  0  0  0  0  0  0  0  0
    3.5627   23.8391    8.1346 H   0  0  0  0  0  0  0  0  0  0  0  0
    5.3488   28.4782    5.1374 H   0  0  0  0  0  0  0  0  0  0  0  0
    5.9582   26.8724    5.3611 H   0  0  0  0  0  0  0  0  0  0  0  0
   -3.7286   29.9531   10.5411 H   0  0  0  0  0  0  0  0  0  0  0  0
   -2.6361   31.1597   10.4096 H   0  0  0  0  0  0  0  0  0  0  0  0
   -3.4861   30.6814    9.0998 H   0  0  0  0  0  0  0  0  0  0  0  0
    0.3246   32.2860    7.0501 H   0  0  0  0  0  0  0  0  0  0  0  0
   -1.5425   31.7020    8.4921 H   0  0  0  0  0  0  0  0  0  0  0  0
    0.0195   27.7859    8.9044 H   0  0  0  0  0  0  0  0  0  0  0  0
  1 14  1  0  0  0  0
  2  8  1  0  0  0  0
  2 15  1  0  0  0  0
  3 12  1  0  0  0  0
  4 13  1  0  0  0  0
  5 12  2  0  0  0  0
  5 13  1  0  0  0  0
  6 12  1  0  0  0  0
  6 16  2  0  0  0  0
  7 13  2  0  0  0  0
  7 16  1  0  0  0  0
  9 10  1  0  0  0  0
  9 14  2  0  0  0  0
 10 15  2  0  0  0  0
 11 15  1  0  0  0  0
 11 17  2  0  0  0  0
 14 17  1  0  0  0  0
 16 17  1  0  0  0  0
  1 18  1  0  0  0  0
  3 19  1  0  0  0  0
  3 20  1  0  0  0  0
  4 21  1  0  0  0  0
  4 22  1  0  0  0  0
  8 23  1  0  0  0  0
  8 24  1  0  0  0  0
  8 25  1  0  0  0  0
  9 26  1  0  0  0  0
 10 27  1  0  0  0  0
 11 28  1  0  0  0  0
M  END
> <pdb_id>
3PXY

> <uniprot_id>
P24941

> <usmiles>
O(c1cc(c2nc(nc(n2)N)N)c(O)cc1)C

$$$$
JWT_C_400
          07192422273D 1   1.00000     0.00000     0
            
 45 47  0  0  0  0            999 V2000
   30.7500  -18.9180   59.0740 S   0  0  0  0  0  0  0  0  0  0  0  0
   27.9940  -16.4370   54.7300 F   0  0  0  0  0  0  0  0  0  0  0  0
   30.1460  -18.5190   60.4110 O   0  0  0  0  0  0  0  0  0  0  0  0
   30.5600  -20.4180   58.9690 O   0  0  0  0  0  0  0  0  0  0  0  0
   35.8410  -19.7230   55.0000 O   0  0  0  0  0  0  0  0  0  0  0  0
   32.8650  -16.7640   56.7560 O   0  0  0  0  0  0  0  0  0  0  0  0
   33.7850  -20.7460   58.9720 N   0  0  0  0  0  0  0  0  0  0  0  0
   34.3810  -18.2150   55.8540 N   0  0  0  0  0  0  0  0  0  0  0  0
   32.4560  -18.3920   58.9400 N   0  0  0  0  0  0  0  0  0  0  0  0
   34.8640  -20.2940   56.9210 N   0  0  0  0  0  0  0  0  0  0  0  0
   33.0050  -17.3680   59.8620 C   0  0  0  0  0  0  0  0  0  0  0  0
   35.6280  -21.6040   56.9260 C   0  0  0  0  0  0  0  0  0  0  0  0
   33.7130  -24.6090   54.6080 C   0  0  0  0  0  0  0  0  0  0  0  0
   33.8530  -24.7690   55.9990 C   0  0  0  0  0  0  0  0  0  0  0  0
   34.2060  -23.4580   53.9900 C   0  0  0  0  0  0  0  0  0  0  0  0
   29.1370  -17.0150   57.9670 C   0  0  0  0  0  0  0  0  0  0  0  0
   30.0230  -18.6900   56.4650 C   0  0  0  0  0  0  0  0  0  0  0  0
   28.4730  -16.4160   56.9130 C   0  0  0  0  0  0  0  0  0  0  0  0
   29.3430  -18.1020   55.4050 C   0  0  0  0  0  0  0  0  0  0  0  0
   34.4840  -23.7720   56.7510 C   0  0  0  0  0  0  0  0  0  0  0  0
   34.8420  -22.4750   54.7620 C   0  0  0  0  0  0  0  0  0  0  0  0
   35.0500  -19.4430   55.8980 C   0  0  0  0  0  0  0  0  0  0  0  0
   29.9130  -18.1440   57.7410 C   0  0  0  0  0  0  0  0  0  0  0  0
   28.5810  -16.9670   55.6480 C   0  0  0  0  0  0  0  0  0  0  0  0
   33.4730  -17.8400   56.8570 C   0  0  0  0  0  0  0  0  0  0  0  0
   34.0040  -19.9480   57.9320 C   0  0  0  0  0  0  0  0  0  0  0  0
   34.9950  -22.6070   56.1460 C   0  0  0  0  0  0  0  0  0  0  0  0
   33.2760  -18.7430   57.9120 C   0  0  0  0  0  0  0  0  0  0  0  0
   33.1518  -20.4650   59.6932 H   0  0  0  0  0  0  0  0  0  0  0  0
   34.2534  -21.6274   59.0333 H   0  0  0  0  0  0  0  0  0  0  0  0
   34.5533  -17.5910   55.0918 H   0  0  0  0  0  0  0  0  0  0  0  0
   33.9658  -17.2010   59.6406 H   0  0  0  0  0  0  0  0  0  0  0  0
   32.4874  -16.5182   59.7626 H   0  0  0  0  0  0  0  0  0  0  0  0
   32.9319  -17.6945   60.8044 H   0  0  0  0  0  0  0  0  0  0  0  0
   35.7002  -21.9293   57.8689 H   0  0  0  0  0  0  0  0  0  0  0  0
   36.5437  -21.4423   56.5581 H   0  0  0  0  0  0  0  0  0  0  0  0
   33.2622  -25.3168   54.0642 H   0  0  0  0  0  0  0  0  0  0  0  0
   33.5032  -25.5913   56.4479 H   0  0  0  0  0  0  0  0  0  0  0  0
   34.1061  -23.3353   53.0026 H   0  0  0  0  0  0  0  0  0  0  0  0
   29.0588  -16.6365   58.8893 H   0  0  0  0  0  0  0  0  0  0  0  0
   30.5881  -19.5007   56.3120 H   0  0  0  0  0  0  0  0  0  0  0  0
   27.9217  -15.5952   57.0625 H   0  0  0  0  0  0  0  0  0  0  0  0
   29.4014  -18.4890   54.4848 H   0  0  0  0  0  0  0  0  0  0  0  0
   34.5742  -23.8891   57.7400 H   0  0  0  0  0  0  0  0  0  0  0  0
   35.1962  -21.6563   54.3101 H   0  0  0  0  0  0  0  0  0  0  0  0
  1  3  2  0  0  0  0
  1  4  2  0  0  0  0
  1  9  1  0  0  0  0
  1 23  1  0  0  0  0
  2 24  1  0  0  0  0
  5 22  2  0  0  0  0
  6 25  2  0  0  0  0
  7 26  1  0  0  0  0
  8 22  1  0  0  0  0
  8 25  1  0  0  0  0
  9 11  1  0  0  0  0
  9 28  1  0  0  0  0
 10 12  1  0  0  0  0
 10 22  1  0  0  0  0
 10 26  1  0  0  0  0
 12 27  1  0  0  0  0
 13 14  2  0  0  0  0
 13 15  1  0  0  0  0
 14 20  1  0  0  0  0
 15 21  2  0  0  0  0
 16 18  2  0  0  0  0
 16 23  1  0  0  0  0
 17 19  1  0  0  0  0
 17 23  2  0  0  0  0
 18 24  1  0  0  0  0
 19 24  2  0  0  0  0
 20 27  2  0  0  0  0
 21 27  1  0  0  0  0
 25 28  1  0  0  0  0
 26 28  2  0  0  0  0
  7 29  1  0  0  0  0
  7 30  1  0  0  0  0
  8 31  1  0  0  0  0
 11 32  1  0  0  0  0
 11 33  1  0  0  0  0
 11 34  1  0  0  0  0
 12 35  1  0  0  0  0
 12 36  1  0  0  0  0
 13 37  1  0  0  0  0
 14 38  1  0  0  0  0
 15 39  1  0  0  0  0
 16 40  1  0  0  0  0
 17 41  1  0  0  0  0
 18 42  1  0  0  0  0
 19 43  1  0  0  0  0
 20 44  1  0  0  0  0
 21 45  1  0  0  0  0
M  END
> <pdb_id>
4B4M

> <uniprot_id>
Q9HU22

> <usmiles>
S(=O)(=O)(N(C=1C(=O)NC(=O)N(C1N)Cc2ccccc2)C)c3ccc(F)cc3

$$$$
JX4_B_500
          07202414093D 1   1.00000     0.00000     0
            
 52 56  0  0  0  0            999 V2000
   29.6976   24.6947   29.3640 O   0  0  0  0  0  0  0  0  0  0  0  0
   30.2482   29.4441   30.2511 N   0  0  0  0  0  0  0  0  0  0  0  0
   25.7490   31.3048   32.3570 N   0  0  0  0  0  0  0  0  0  0  0  0
   27.1192   23.0570   33.1485 N   0  0  0  0  0  0  0  0  0  0  0  0
   26.7159   29.7090   34.8144 N   0  0  0  0  0  0  0  0  0  0  0  0
   26.6855   27.4353   34.5409 N   0  0  0  0  0  0  0  0  0  0  0  0
   30.0193   28.9018   29.0094 N   0  0  0  0  0  0  0  0  0  0  0  0
   27.5608   25.2139   32.8671 N   0  0  0  0  0  0  0  0  0  0  0  0
   29.9116   23.4277   28.6835 C   0  0  0  0  0  0  0  0  0  0  0  0
   30.3626   29.6691   27.8205 C   0  0  0  0  0  0  0  0  0  0  0  0
   26.8004   32.2776   32.7465 C   0  0  0  0  0  0  0  0  0  0  0  0
   29.8469   28.5305   31.0979 C   0  0  0  0  0  0  0  0  0  0  0  0
   26.2621   29.9264   32.3846 C   0  0  0  0  0  0  0  0  0  0  0  0
   26.5441   23.7823   34.1679 C   0  0  0  0  0  0  0  0  0  0  0  0
   29.4900   27.6671   29.1020 C   0  0  0  0  0  0  0  0  0  0  0  0
   28.1165   26.2830   32.2000 C   0  0  0  0  0  0  0  0  0  0  0  0
   25.1786   27.0640   36.7962 C   0  0  0  0  0  0  0  0  0  0  0  0
   27.9177   31.4039   33.4047 C   0  0  0  0  0  0  0  0  0  0  0  0
   25.5263   28.3441   36.4198 C   0  0  0  0  0  0  0  0  0  0  0  0
   25.5658   25.9636   36.0479 C   0  0  0  0  0  0  0  0  0  0  0  0
   28.4678   23.7562   31.1847 C   0  0  0  0  0  0  0  0  0  0  0  0
   26.3041   28.4935   35.2685 C   0  0  0  0  0  0  0  0  0  0  0  0
   27.7324   23.9306   32.3816 C   0  0  0  0  0  0  0  0  0  0  0  0
   28.9892   24.8063   30.5287 C   0  0  0  0  0  0  0  0  0  0  0  0
   27.3034   29.9840   33.5279 C   0  0  1  0  0  0  0  0  0  0  0  0
   26.3402   26.1900   34.9117 C   0  0  0  0  0  0  0  0  0  0  0  0
   26.7980   25.1150   34.0423 C   0  0  0  0  0  0  0  0  0  0  0  0
   29.3534   27.3639   30.4319 C   0  0  0  0  0  0  0  0  0  0  0  0
   28.8190   26.1541   31.0665 C   0  0  0  0  0  0  0  0  0  0  0  0
   25.4348   31.5173   31.4318 H   0  0  0  0  0  0  0  0  0  0  0  0
   26.5994   30.4858   35.4333 H   0  0  0  0  0  0  0  0  0  0  0  0
   30.4530   23.5807   27.8568 H   0  0  0  0  0  0  0  0  0  0  0  0
   30.4004   22.8015   29.2909 H   0  0  0  0  0  0  0  0  0  0  0  0
   29.0286   23.0296   28.4348 H   0  0  0  0  0  0  0  0  0  0  0  0
   30.1357   29.1381   27.0040 H   0  0  0  0  0  0  0  0  0  0  0  0
   29.8458   30.5252   27.8155 H   0  0  0  0  0  0  0  0  0  0  0  0
   31.3420   29.8710   27.8253 H   0  0  0  0  0  0  0  0  0  0  0  0
   26.4412   32.9434   33.4004 H   0  0  0  0  0  0  0  0  0  0  0  0
   27.1538   32.7567   31.9430 H   0  0  0  0  0  0  0  0  0  0  0  0
   29.8811   28.6352   32.0919 H   0  0  0  0  0  0  0  0  0  0  0  0
   26.6921   29.6827   31.5153 H   0  0  0  0  0  0  0  0  0  0  0  0
   25.5337   29.2730   32.5910 H   0  0  0  0  0  0  0  0  0  0  0  0
   26.0063   23.3805   34.9091 H   0  0  0  0  0  0  0  0  0  0  0  0
   29.2405   27.0754   28.3354 H   0  0  0  0  0  0  0  0  0  0  0  0
   27.9896   27.1994   32.5798 H   0  0  0  0  0  0  0  0  0  0  0  0
   24.6366   26.9270   37.6253 H   0  0  0  0  0  0  0  0  0  0  0  0
   28.1570   31.7621   34.3072 H   0  0  0  0  0  0  0  0  0  0  0  0
   28.7336   31.3842   32.8269 H   0  0  0  0  0  0  0  0  0  0  0  0
   25.2321   29.1379   36.9521 H   0  0  0  0  0  0  0  0  0  0  0  0
   25.2983   25.0377   36.3146 H   0  0  0  0  0  0  0  0  0  0  0  0
   28.6017   22.8345   30.8208 H   0  0  0  0  0  0  0  0  0  0  0  0
   28.0173   29.3072   33.3482 H   0  0  0  0  0  0  0  0  0  0  0  0
  1  9  1  0  0  0  0
  1 24  1  0  0  0  0
  2  7  1  0  0  0  0
  2 12  2  0  0  0  0
  3 11  1  0  0  0  0
  3 13  1  0  0  0  0
  4 14  1  0  0  0  0
  4 23  2  0  0  0  0
  5 22  1  0  0  0  0
  5 25  1  0  0  0  0
  6 22  1  0  0  0  0
  6 26  2  0  0  0  0
  7 10  1  0  0  0  0
  7 15  1  0  0  0  0
  8 16  1  0  0  0  0
  8 23  1  0  0  0  0
  8 27  1  0  0  0  0
 11 18  1  0  0  0  0
 12 28  1  0  0  0  0
 13 25  1  0  0  0  0
 14 27  2  0  0  0  0
 15 28  2  0  0  0  0
 16 29  2  0  0  0  0
 17 19  1  0  0  0  0
 17 20  2  0  0  0  0
 18 25  1  0  0  0  0
 19 22  2  0  0  0  0
 20 26  1  0  0  0  0
 21 23  1  0  0  0  0
 21 24  2  0  0  0  0
 24 29  1  0  0  0  0
 26 27  1  0  0  0  0
 28 29  1  0  0  0  0
  3 30  1  0  0  0  0
  5 31  1  0  0  0  0
  9 32  1  0  0  0  0
  9 33  1  0  0  0  0
  9 34  1  0  0  0  0
 10 35  1  0  0  0  0
 10 36  1  0  0  0  0
 10 37  1  0  0  0  0
 11 38  1  0  0  0  0
 11 39  1  0  0  0  0
 12 40  1  0  0  0  0
 13 41  1  0  0  0  0
 13 42  1  0  0  0  0
 14 43  1  0  0  0  0
 15 44  1  0  0  0  0
 16 45  1  0  0  0  0
 17 46  1  0  0  0  0
 18 47  1  0  0  0  0
 18 48  1  0  0  0  0
 19 49  1  0  0  0  0
 20 50  1  0  0  0  0
 21 51  1  0  0  0  0
 25 52  1  0  0  0  0
M  END
> <pdb_id>
6MOM

> <uniprot_id>
Q9NWZ3

> <usmiles>
O(C=1C(C=2C=NN(C2)C)=CN3C(=NC=C3c4nc(N[C@H]5CNCC5)ccc4)C1)C

$$$$
JY4_A_803
          07192416573D 1   1.00000     0.00000     0
            
 30 32  0  0  0  0            999 V2000
   19.5047   -4.0657   17.4864 O   0  0  0  0  0  0  0  0  0  0  0  0
   19.7939   -4.0324   20.1349 O   0  0  0  0  0  0  0  0  0  0  0  0
   14.3598    0.5047   20.4641 N   0  0  0  0  0  0  0  0  0  0  0  0
   15.0419   -0.2748   18.2882 N   0  0  0  0  0  0  0  0  0  0  0  0
   14.6870    0.3524   21.7545 N   0  0  0  0  0  0  0  0  0  0  0  0
   15.8590   -1.0146   17.6898 N   0  0  0  0  0  0  0  0  0  0  0  0
   19.5216   -3.7402   16.0950 C   0  0  0  0  0  0  0  0  0  0  0  0
   19.7838   -3.9337   21.5598 C   0  0  0  0  0  0  0  0  0  0  0  0
   16.2956   -0.8846   23.0023 C   0  0  0  0  0  0  0  0  0  0  0  0
   17.6571   -2.5069   17.5853 C   0  0  0  0  0  0  0  0  0  0  0  0
   17.9321   -2.4504   20.3312 C   0  0  0  0  0  0  0  0  0  0  0  0
   15.1436   -0.2180   19.6159 C   0  0  0  0  0  0  0  0  0  0  0  0
   18.6431   -3.2551   18.2007 C   0  0  0  0  0  0  0  0  0  0  0  0
   18.7838   -3.2380   19.5761 C   0  0  0  0  0  0  0  0  0  0  0  0
   15.7059   -0.5093   21.7177 C   0  0  0  0  0  0  0  0  0  0  0  0
   16.8056   -1.7173   18.3228 C   0  0  0  0  0  0  0  0  0  0  0  0
   16.9555   -1.7024   19.7015 C   0  0  0  0  0  0  0  0  0  0  0  0
   16.0537   -0.9073   20.3961 C   0  0  0  0  0  0  0  0  0  0  0  0
   13.6124    1.0921   20.1536 H   0  0  0  0  0  0  0  0  0  0  0  0
   20.1556   -4.3488   15.6180 H   0  0  0  0  0  0  0  0  0  0  0  0
   18.6032   -3.8517   15.7154 H   0  0  0  0  0  0  0  0  0  0  0  0
   19.8178   -2.7922   15.9781 H   0  0  0  0  0  0  0  0  0  0  0  0
   20.5105   -4.5067   21.9387 H   0  0  0  0  0  0  0  0  0  0  0  0
   19.9346   -2.9826   21.8291 H   0  0  0  0  0  0  0  0  0  0  0  0
   18.8993   -4.2429   21.9090 H   0  0  0  0  0  0  0  0  0  0  0  0
   17.0443   -1.5296   22.8496 H   0  0  0  0  0  0  0  0  0  0  0  0
   16.6475   -0.0675   23.4589 H   0  0  0  0  0  0  0  0  0  0  0  0
   15.5982   -1.3132   23.5767 H   0  0  0  0  0  0  0  0  0  0  0  0
   17.5615   -2.5401   16.5905 H   0  0  0  0  0  0  0  0  0  0  0  0
   18.0229   -2.4229   21.3266 H   0  0  0  0  0  0  0  0  0  0  0  0
  1  7  1  0  0  0  0
  1 13  1  0  0  0  0
  2  8  1  0  0  0  0
  2 14  1  0  0  0  0
  3  5  1  0  0  0  0
  3 12  1  0  0  0  0
  4  6  2  0  0  0  0
  4 12  1  0  0  0  0
  5 15  2  0  0  0  0
  6 16  1  0  0  0  0
  9 15  1  0  0  0  0
 10 13  1  0  0  0  0
 10 16  2  0  0  0  0
 11 14  1  0  0  0  0
 11 17  2  0  0  0  0
 12 18  2  0  0  0  0
 13 14  2  0  0  0  0
 15 18  1  0  0  0  0
 16 17  1  0  0  0  0
 17 18  1  0  0  0  0
  3 19  1  0  0  0  0
  7 20  1  0  0  0  0
  7 21  1  0  0  0  0
  7 22  1  0  0  0  0
  8 23  1  0  0  0  0
  8 24  1  0  0  0  0
  8 25  1  0  0  0  0
  9 26  1  0  0  0  0
  9 27  1  0  0  0  0
  9 28  1  0  0  0  0
 10 29  1  0  0  0  0
 11 30  1  0  0  0  0
M  END
> <pdb_id>
6MSA

> <uniprot_id>
Q9Y233

> <usmiles>
O(c1c(OC)cc2c(nnc3NN=C(c32)C)c1)C

$$$$
JYG_A_401
          07192419233D 1   1.00000     0.00000     0
            
 55 60  0  0  0  0            999 V2000
  -15.3832   33.5141    1.9994 O   0  0  0  0  0  0  0  0  0  0  0  0
  -22.2381   40.6044   -1.8833 O   0  0  0  0  0  0  0  0  0  0  0  0
  -15.3969   33.3665   -0.3438 N   0  0  0  0  0  0  0  0  0  0  0  0
  -19.6557   37.6488   -2.1327 N   0  0  0  0  0  0  0  0  0  0  0  0
  -18.0340   35.9040   -0.9393 N   0  0  0  0  0  0  0  0  0  0  0  0
  -19.7205   37.7079   -4.5024 N   0  0  0  0  0  0  0  0  0  0  0  0
  -21.0385   39.2405   -3.1756 N   0  0  0  0  0  0  0  0  0  0  0  0
  -15.1998   34.7615   -2.2784 C   0  0  0  0  0  0  0  0  0  0  0  0
  -17.2670   37.1625   -4.2980 C   0  0  0  0  0  0  0  0  0  0  0  0
  -22.7762   39.3869   -5.0674 C   0  0  0  0  0  0  0  0  0  0  0  0
  -20.7891   38.9544    1.6583 C   0  0  0  0  0  0  0  0  0  0  0  0
  -21.3151   39.5601    0.5173 C   0  0  0  0  0  0  0  0  0  0  0  0
  -19.8753   37.9110    1.5506 C   0  0  0  0  0  0  0  0  0  0  0  0
  -17.8043   35.8201    1.2416 C   0  0  0  0  0  0  0  0  0  0  0  0
  -19.1091   35.3164   -4.2746 C   0  0  0  0  0  0  0  0  0  0  0  0
  -18.8568   35.7424   -5.7172 C   0  0  0  0  0  0  0  0  0  0  0  0
  -20.4439   40.4008   -5.2947 C   0  0  0  0  0  0  0  0  0  0  0  0
  -21.2242   41.3750   -4.4408 C   0  0  0  0  0  0  0  0  0  0  0  0
  -20.1502   38.2266   -3.2495 C   0  0  0  0  0  0  0  0  0  0  0  0
  -15.8238   33.8684    0.9203 C   0  0  0  0  0  0  0  0  0  0  0  0
  -21.4378   39.6932   -1.9620 C   0  0  0  0  0  0  0  0  0  0  0  0
  -16.1318   34.0217   -1.3620 C   0  0  2  0  0  0  0  0  0  0  0  0
  -18.5215   36.4080    0.2041 C   0  0  0  0  0  0  0  0  0  0  0  0
  -17.0793   34.9834   -0.6859 C   0  0  0  0  0  0  0  0  0  0  0  0
  -20.0232   38.0695   -0.8699 C   0  0  0  0  0  0  0  0  0  0  0  0
  -20.9191   39.0955   -0.7681 C   0  0  0  0  0  0  0  0  0  0  0  0
  -16.9082   34.9002    0.6612 C   0  0  0  0  0  0  0  0  0  0  0  0
  -19.4811   37.4284    0.3034 C   0  0  0  0  0  0  0  0  0  0  0  0
  -18.7023   36.7466   -4.5919 C   0  0  0  0  0  0  0  0  0  0  0  0
  -21.5341   39.8747   -4.3602 C   0  0  0  0  0  0  0  0  0  0  0  0
  -14.6956   32.6683   -0.4876 H   0  0  0  0  0  0  0  0  0  0  0  0
  -18.3360   36.1731   -1.8538 H   0  0  0  0  0  0  0  0  0  0  0  0
  -20.1550   38.0369   -5.3408 H   0  0  0  0  0  0  0  0  0  0  0  0
  -15.7288   35.2198   -2.9927 H   0  0  0  0  0  0  0  0  0  0  0  0
  -14.6876   35.4420   -1.7545 H   0  0  0  0  0  0  0  0  0  0  0  0
  -14.5626   34.1153   -2.6984 H   0  0  0  0  0  0  0  0  0  0  0  0
  -16.6628   36.3726   -4.4032 H   0  0  0  0  0  0  0  0  0  0  0  0
  -16.9907   37.8808   -4.9366 H   0  0  0  0  0  0  0  0  0  0  0  0
  -17.2050   37.5073   -3.3614 H   0  0  0  0  0  0  0  0  0  0  0  0
  -22.9515   39.9610   -5.8672 H   0  0  0  0  0  0  0  0  0  0  0  0
  -22.6432   38.4399   -5.3595 H   0  0  0  0  0  0  0  0  0  0  0  0
  -23.5562   39.4370   -4.4437 H   0  0  0  0  0  0  0  0  0  0  0  0
  -21.0718   39.2733    2.5629 H   0  0  0  0  0  0  0  0  0  0  0  0
  -21.9654   40.3150    0.6019 H   0  0  0  0  0  0  0  0  0  0  0  0
  -19.4955   37.5011    2.3799 H   0  0  0  0  0  0  0  0  0  0  0  0
  -17.9058   36.0142    2.2173 H   0  0  0  0  0  0  0  0  0  0  0  0
  -18.4670   34.7038   -3.8138 H   0  0  0  0  0  0  0  0  0  0  0  0
  -20.0394   35.1170   -3.9667 H   0  0  0  0  0  0  0  0  0  0  0  0
  -19.6218   35.8213   -6.3564 H   0  0  0  0  0  0  0  0  0  0  0  0
  -18.0494   35.4080   -6.2034 H   0  0  0  0  0  0  0  0  0  0  0  0
  -19.4820   40.2187   -5.0908 H   0  0  0  0  0  0  0  0  0  0  0  0
  -20.5842   40.3822   -6.2846 H   0  0  0  0  0  0  0  0  0  0  0  0
  -21.8801   41.9982   -4.8668 H   0  0  0  0  0  0  0  0  0  0  0  0
  -20.7779   41.8346   -3.6730 H   0  0  0  0  0  0  0  0  0  0  0  0
  -16.6536   33.3485   -1.8858 H   0  0  0  0  0  0  0  0  0  0  0  0
  1 20  2  0  0  0  0
  2 21  2  0  0  0  0
  3 20  1  0  0  0  0
  3 22  1  0  0  0  0
  4 19  2  0  0  0  0
  4 25  1  0  0  0  0
  5 23  1  0  0  0  0
  5 24  1  0  0  0  0
  6 19  1  0  0  0  0
  6 29  1  0  0  0  0
  7 19  1  0  0  0  0
  7 21  1  0  0  0  0
  7 30  1  0  0  0  0
  8 22  1  0  0  0  0
  9 29  1  0  0  0  0
 10 30  1  0  0  0  0
 11 12  2  0  0  0  0
 11 13  1  0  0  0  0
 12 26  1  0  0  0  0
 13 28  2  0  0  0  0
 14 23  2  0  0  0  0
 14 27  1  0  0  0  0
 15 16  1  0  0  0  0
 15 29  1  0  0  0  0
 16 29  1  0  0  0  0
 17 18  1  0  0  0  0
 17 30  1  0  0  0  0
 18 30  1  0  0  0  0
 20 27  1  0  0  0  0
 21 26  1  0  0  0  0
 22 24  1  0  0  0  0
 23 28  1  0  0  0  0
 24 27  2  0  0  0  0
 25 26  2  0  0  0  0
 25 28  1  0  0  0  0
  3 31  1  0  0  0  0
  5 32  1  0  0  0  0
  6 33  1  0  0  0  0
  8 34  1  0  0  0  0
  8 35  1  0  0  0  0
  8 36  1  0  0  0  0
  9 37  1  0  0  0  0
  9 38  1  0  0  0  0
  9 39  1  0  0  0  0
 10 40  1  0  0  0  0
 10 41  1  0  0  0  0
 10 42  1  0  0  0  0
 11 43  1  0  0  0  0
 12 44  1  0  0  0  0
 13 45  1  0  0  0  0
 14 46  1  0  0  0  0
 15 47  1  0  0  0  0
 15 48  1  0  0  0  0
 16 49  1  0  0  0  0
 16 50  1  0  0  0  0
 17 51  1  0  0  0  0
 17 52  1  0  0  0  0
 18 53  1  0  0  0  0
 18 54  1  0  0  0  0
 22 55  1  0  0  0  0
M  END
> <pdb_id>
6MT0

> <uniprot_id>
P11309

> <usmiles>
O=C1N(C(=Nc2c1cccc2C=3NC4=C(C(=O)N[C@@H]4C)C3)NC5(CC5)C)C6(CC6)C

$$$$
JYZ_A_401
          07202401373D 1   1.00000     0.00000     0
            
 37 38  0  0  0  0            999 V2000
   23.6405  -29.6926   11.9783 O   0  0  0  0  0  0  0  0  0  0  0  0
   22.3936  -37.6676   14.2197 O   0  0  0  0  0  0  0  0  0  0  0  0
   22.2727  -26.4813   15.5448 O   0  0  0  0  0  0  0  0  0  0  0  0
   22.2273  -35.8047   16.2745 O   0  0  0  0  0  0  0  0  0  0  0  0
   22.2602  -31.0562   16.3039 N   0  0  0  0  0  0  0  0  0  0  0  0
   22.8718  -28.5171   13.8275 N   0  0  0  0  0  0  0  0  0  0  0  0
   22.2342  -34.8033   17.2551 C   0  0  0  0  0  0  0  0  0  0  0  0
   22.5577  -31.0678   15.2110 C   0  0  0  0  0  0  0  0  0  0  0  0
   23.2691  -24.4775   12.6196 C   0  0  0  0  0  0  0  0  0  0  0  0
   23.5842  -25.4829   11.7180 C   0  0  0  0  0  0  0  0  0  0  0  0
   22.8310  -24.8032   13.8940 C   0  0  0  0  0  0  0  0  0  0  0  0
   22.7907  -35.8960   12.6392 C   0  0  0  0  0  0  0  0  0  0  0  0
   23.4623  -26.8132   12.0908 C   0  0  0  0  0  0  0  0  0  0  0  0
   22.9517  -34.5521   12.3522 C   0  0  0  0  0  0  0  0  0  0  0  0
   22.6346  -34.0267   14.6722 C   0  0  0  0  0  0  0  0  0  0  0  0
   23.0639  -32.1425   12.9707 C   0  0  0  0  0  0  0  0  0  0  0  0
   23.1997  -29.7181   13.0746 C   0  0  0  0  0  0  0  0  0  0  0  0
   22.5517  -36.3048   13.9392 C   0  0  0  0  0  0  0  0  0  0  0  0
   22.7121  -26.1354   14.2618 C   0  0  0  0  0  0  0  0  0  0  0  0
   22.4716  -35.3727   14.9621 C   0  0  0  0  0  0  0  0  0  0  0  0
   23.0291  -27.1420   13.3672 C   0  0  0  0  0  0  0  0  0  0  0  0
   22.8687  -33.6118   13.3663 C   0  0  0  0  0  0  0  0  0  0  0  0
   22.9470  -31.0671   13.7334 C   0  0  0  0  0  0  0  0  0  0  0  0
   22.2207  -37.9683   15.1577 H   0  0  0  0  0  0  0  0  0  0  0  0
   22.1897  -27.4441   15.8021 H   0  0  0  0  0  0  0  0  0  0  0  0
   22.5035  -28.6466   14.7482 H   0  0  0  0  0  0  0  0  0  0  0  0
   22.0514  -35.2114   18.1496 H   0  0  0  0  0  0  0  0  0  0  0  0
   23.1287  -34.3565   17.2691 H   0  0  0  0  0  0  0  0  0  0  0  0
   21.5273  -34.1275   17.0464 H   0  0  0  0  0  0  0  0  0  0  0  0
   23.3578  -23.5184   12.3508 H   0  0  0  0  0  0  0  0  0  0  0  0
   23.8996  -25.2486   10.7984 H   0  0  0  0  0  0  0  0  0  0  0  0
   22.6015  -24.0804   14.5458 H   0  0  0  0  0  0  0  0  0  0  0  0
   22.8472  -36.5732   11.9056 H   0  0  0  0  0  0  0  0  0  0  0  0
   23.6870  -27.5368   11.4382 H   0  0  0  0  0  0  0  0  0  0  0  0
   23.1280  -34.2593   11.4125 H   0  0  0  0  0  0  0  0  0  0  0  0
   22.5835  -33.3503   15.4070 H   0  0  0  0  0  0  0  0  0  0  0  0
   23.3107  -31.9762   12.0160 H   0  0  0  0  0  0  0  0  0  0  0  0
  1 17  2  0  0  0  0
  2 18  1  0  0  0  0
  3 19  1  0  0  0  0
  4  7  1  0  0  0  0
  4 20  1  0  0  0  0
  5  8  3  0  0  0  0
  6 17  1  0  0  0  0
  6 21  1  0  0  0  0
  8 23  1  0  0  0  0
  9 10  2  0  0  0  0
  9 11  1  0  0  0  0
 10 13  1  0  0  0  0
 11 19  2  0  0  0  0
 12 14  1  0  0  0  0
 12 18  2  0  0  0  0
 13 21  2  0  0  0  0
 14 22  2  0  0  0  0
 15 20  2  0  0  0  0
 15 22  1  0  0  0  0
 16 22  1  0  0  0  0
 16 23  2  0  0  0  0
 17 23  1  0  0  0  0
 18 20  1  0  0  0  0
 19 21  1  0  0  0  0
  2 24  1  0  0  0  0
  3 25  1  0  0  0  0
  6 26  1  0  0  0  0
  7 27  1  0  0  0  0
  7 28  1  0  0  0  0
  7 29  1  0  0  0  0
  9 30  1  0  0  0  0
 10 31  1  0  0  0  0
 11 32  1  0  0  0  0
 12 33  1  0  0  0  0
 13 34  1  0  0  0  0
 14 35  1  0  0  0  0
 15 36  1  0  0  0  0
 16 37  1  0  0  0  0
M  END
> <pdb_id>
6RCB

> <uniprot_id>
P68400

> <usmiles>
O=C(Nc1c(O)cccc1)/C(/C#N)=C/c2cc(OC)c(O)cc2

$$$$
JZI_B_302
          07192422023D 1   1.00000     0.00000     0
            
 45 47  0  0  0  0            999 V2000
   39.5446  -26.9574  -19.1483 O   0  0  0  0  0  0  0  0  0  0  0  0
   39.7884  -28.0990  -17.2548 O   0  0  0  0  0  0  0  0  0  0  0  0
   35.1611  -28.0621  -18.2925 O   0  0  0  0  0  0  0  0  0  0  0  0
   36.8856  -26.7451  -18.7856 N   0  0  0  0  0  0  0  0  0  0  0  0
   31.5984  -24.1741  -15.0385 C   0  0  0  0  0  0  0  0  0  0  0  0
   32.4989  -24.8666  -14.2616 C   0  0  0  0  0  0  0  0  0  0  0  0
   31.9704  -23.7342  -16.2975 C   0  0  0  0  0  0  0  0  0  0  0  0
   33.1033  -24.7939  -24.4271 C   0  0  0  0  0  0  0  0  0  0  0  0
   34.4767  -24.9429  -24.6159 C   0  0  0  0  0  0  0  0  0  0  0  0
   36.2317  -25.9878  -15.9773 C   0  0  0  0  0  0  0  0  0  0  0  0
   37.6111  -26.2265  -16.5246 C   0  0  0  0  0  0  0  0  0  0  0  0
   33.7914  -25.1414  -14.7027 C   0  0  0  0  0  0  0  0  0  0  0  0
   33.2511  -23.9904  -16.7662 C   0  0  0  0  0  0  0  0  0  0  0  0
   35.5241  -24.9713  -16.4651 C   0  0  0  0  0  0  0  0  0  0  0  0
   32.4900  -25.1390  -23.2583 C   0  0  0  0  0  0  0  0  0  0  0  0
   35.2681  -25.4443  -23.6257 C   0  0  0  0  0  0  0  0  0  0  0  0
   33.4726  -26.5191  -19.9921 C   0  0  0  0  0  0  0  0  0  0  0  0
   32.6935  -26.0205  -20.9855 C   0  0  0  0  0  0  0  0  0  0  0  0
   35.4740  -26.3245  -21.3565 C   0  0  0  0  0  0  0  0  0  0  0  0
   39.0744  -27.4802  -18.0030 C   0  0  0  0  0  0  0  0  0  0  0  0
   35.6416  -27.2238  -19.0297 C   0  0  0  0  0  0  0  0  0  0  0  0
   37.6198  -27.2961  -17.6292 C   0  0  2  0  0  0  0  0  0  0  0  0
   34.1635  -24.6924  -15.9733 C   0  0  0  0  0  0  0  0  0  0  0  0
   34.8648  -26.6773  -20.1656 C   0  0  0  0  0  0  0  0  0  0  0  0
   33.2822  -25.6572  -22.2131 C   0  0  0  0  0  0  0  0  0  0  0  0
   34.6823  -25.8162  -22.4013 C   0  0  0  0  0  0  0  0  0  0  0  0
   38.9331  -26.4476  -19.7533 H   0  0  0  0  0  0  0  0  0  0  0  0
   37.2927  -26.0423  -19.3690 H   0  0  0  0  0  0  0  0  0  0  0  0
   30.6778  -23.9891  -14.6945 H   0  0  0  0  0  0  0  0  0  0  0  0
   32.2176  -25.1813  -13.3550 H   0  0  0  0  0  0  0  0  0  0  0  0
   31.3184  -23.2337  -16.8671 H   0  0  0  0  0  0  0  0  0  0  0  0
   32.5500  -24.4221  -25.1725 H   0  0  0  0  0  0  0  0  0  0  0  0
   34.8864  -24.6786  -25.4890 H   0  0  0  0  0  0  0  0  0  0  0  0
   35.8546  -26.5784  -15.2639 H   0  0  0  0  0  0  0  0  0  0  0  0
   38.2056  -26.5282  -15.7793 H   0  0  0  0  0  0  0  0  0  0  0  0
   37.9602  -25.3694  -16.9034 H   0  0  0  0  0  0  0  0  0  0  0  0
   34.4349  -25.6456  -14.1268 H   0  0  0  0  0  0  0  0  0  0  0  0
   33.5223  -23.6717  -17.6745 H   0  0  0  0  0  0  0  0  0  0  0  0
   35.9212  -24.3893  -17.1748 H   0  0  0  0  0  0  0  0  0  0  0  0
   31.5026  -25.0272  -23.1456 H   0  0  0  0  0  0  0  0  0  0  0  0
   36.2526  -25.5466  -23.7675 H   0  0  0  0  0  0  0  0  0  0  0  0
   33.0532  -26.7789  -19.1223 H   0  0  0  0  0  0  0  0  0  0  0  0
   31.7091  -25.9118  -20.8472 H   0  0  0  0  0  0  0  0  0  0  0  0
   36.4617  -26.4295  -21.4724 H   0  0  0  0  0  0  0  0  0  0  0  0
   37.2127  -28.1526  -17.3120 H   0  0  0  0  0  0  0  0  0  0  0  0
  1 20  1  0  0  0  0
  2 20  2  0  0  0  0
  3 21  2  0  0  0  0
  4 21  1  0  0  0  0
  4 22  1  0  0  0  0
  5  6  2  0  0  0  0
  5  7  1  0  0  0  0
  6 12  1  0  0  0  0
  7 13  2  0  0  0  0
  8  9  1  0  0  0  0
  8 15  2  0  0  0  0
  9 16  2  0  0  0  0
 10 11  1  0  0  0  0
 10 14  2  0  0  0  0
 11 22  1  0  0  0  0
 12 23  2  0  0  0  0
 13 23  1  0  0  0  0
 14 23  1  0  0  0  0
 15 25  1  0  0  0  0
 16 26  1  0  0  0  0
 17 18  1  0  0  0  0
 17 24  2  0  0  0  0
 18 25  2  0  0  0  0
 19 24  1  0  0  0  0
 19 26  2  0  0  0  0
 20 22  1  0  0  0  0
 21 24  1  0  0  0  0
 25 26  1  0  0  0  0
  1 27  1  0  0  0  0
  4 28  1  0  0  0  0
  5 29  1  0  0  0  0
  6 30  1  0  0  0  0
  7 31  1  0  0  0  0
  8 32  1  0  0  0  0
  9 33  1  0  0  0  0
 10 34  1  0  0  0  0
 11 35  1  0  0  0  0
 11 36  1  0  0  0  0
 12 37  1  0  0  0  0
 13 38  1  0  0  0  0
 14 39  1  0  0  0  0
 15 40  1  0  0  0  0
 16 41  1  0  0  0  0
 17 42  1  0  0  0  0
 18 43  1  0  0  0  0
 19 44  1  0  0  0  0
 22 45  1  0  0  0  0
M  END
> <pdb_id>
3JYJ

> <uniprot_id>
Q13526

> <usmiles>
O=C(N[C@@H](C(=O)O)C/C=C/c1ccccc1)c2cc3c(cc2)cccc3

$$$$
JZJ_A_1
          07202400263D 1   1.00000     0.00000     0
            
 38 41  0  0  0  0            999 V2000
    5.6190    2.1936    9.9557 Br  0  0  0  0  0  0  0  0  0  0  0  0
   -1.4391    3.9145   13.9888 N   0  0  0  0  0  0  0  0  0  0  0  0
   -1.8911    3.1973   16.9637 N   0  0  0  0  0  0  0  0  0  0  0  0
    0.1048    2.3370   14.2976 N   0  0  0  0  0  0  0  0  0  0  0  0
   -0.4345    4.1345   13.0839 C   0  0  0  0  0  0  0  0  0  0  0  0
   -2.3683    2.4539   18.1745 C   0  0  0  0  0  0  0  0  0  0  0  0
   -5.5388    0.4175   18.6593 C   0  0  0  0  0  0  0  0  0  0  0  0
   -5.9520    0.1781   17.3570 C   0  0  0  0  0  0  0  0  0  0  0  0
    3.5841    3.7916   11.0950 C   0  0  0  0  0  0  0  0  0  0  0  0
    3.4323    1.4119   11.6520 C   0  0  0  0  0  0  0  0  0  0  0  0
   -4.4010    1.1677   18.9463 C   0  0  0  0  0  0  0  0  0  0  0  0
   -5.2019    0.6693   16.2827 C   0  0  0  0  0  0  0  0  0  0  0  0
    2.4121    4.0407   11.8336 C   0  0  0  0  0  0  0  0  0  0  0  0
    2.2830    1.6595   12.4023 C   0  0  0  0  0  0  0  0  0  0  0  0
   -3.2417    1.9058   15.3600 C   0  0  0  0  0  0  0  0  0  0  0  0
    4.0671    2.4870   11.0434 C   0  0  0  0  0  0  0  0  0  0  0  0
   -1.0710    2.8266   14.7397 C   0  0  0  0  0  0  0  0  0  0  0  0
    0.5420    3.1649   13.2928 C   0  0  0  0  0  0  0  0  0  0  0  0
   -1.8322    2.2221   15.8399 C   0  0  1  0  0  0  0  0  0  0  0  0
   -3.6273    1.6548   17.8657 C   0  0  0  0  0  0  0  0  0  0  0  0
    1.7968    2.9684   12.5012 C   0  0  0  0  0  0  0  0  0  0  0  0
   -4.0481    1.4015   16.5555 C   0  0  0  0  0  0  0  0  0  0  0  0
   -2.2809    4.4459   14.0840 H   0  0  0  0  0  0  0  0  0  0  0  0
   -0.9827    3.5797   17.1329 H   0  0  0  0  0  0  0  0  0  0  0  0
   -0.4075    4.8608   12.3971 H   0  0  0  0  0  0  0  0  0  0  0  0
   -2.5679    3.1095   18.9027 H   0  0  0  0  0  0  0  0  0  0  0  0
   -1.6499    1.8276   18.4775 H   0  0  0  0  0  0  0  0  0  0  0  0
   -6.0741    0.0401   19.4150 H   0  0  0  0  0  0  0  0  0  0  0  0
   -6.7863   -0.3459   17.1857 H   0  0  0  0  0  0  0  0  0  0  0  0
    4.0577    4.5329   10.6194 H   0  0  0  0  0  0  0  0  0  0  0  0
    3.7905    0.4833   11.5546 H   0  0  0  0  0  0  0  0  0  0  0  0
   -4.1372    1.3575   19.8921 H   0  0  0  0  0  0  0  0  0  0  0  0
   -5.4876    0.4987   15.3397 H   0  0  0  0  0  0  0  0  0  0  0  0
    2.0254    4.9616   11.8822 H   0  0  0  0  0  0  0  0  0  0  0  0
    1.8109    0.9092   12.8651 H   0  0  0  0  0  0  0  0  0  0  0  0
   -3.2084    1.2006   14.6518 H   0  0  0  0  0  0  0  0  0  0  0  0
   -3.6665    2.7314   14.9886 H   0  0  0  0  0  0  0  0  0  0  0  0
   -1.3811    1.3827   16.1429 H   0  0  0  0  0  0  0  0  0  0  0  0
  1 16  1  0  0  0  0
  2  5  1  0  0  0  0
  2 17  1  0  0  0  0
  3  6  1  0  0  0  0
  3 19  1  0  0  0  0
  4 17  2  0  0  0  0
  4 18  1  0  0  0  0
  5 18  2  0  0  0  0
  6 20  1  0  0  0  0
  7  8  2  0  0  0  0
  7 11  1  0  0  0  0
  8 12  1  0  0  0  0
  9 13  1  0  0  0  0
  9 16  2  0  0  0  0
 10 14  2  0  0  0  0
 10 16  1  0  0  0  0
 11 20  2  0  0  0  0
 12 22  2  0  0  0  0
 13 21  2  0  0  0  0
 14 21  1  0  0  0  0
 15 19  1  0  0  0  0
 15 22  1  0  0  0  0
 17 19  1  0  0  0  0
 18 21  1  0  0  0  0
 20 22  1  0  0  0  0
  2 23  1  0  0  0  0
  3 24  1  0  0  0  0
  5 25  1  0  0  0  0
  6 26  1  0  0  0  0
  6 27  1  0  0  0  0
  7 28  1  0  0  0  0
  8 29  1  0  0  0  0
  9 30  1  0  0  0  0
 10 31  1  0  0  0  0
 11 32  1  0  0  0  0
 12 33  1  0  0  0  0
 13 34  1  0  0  0  0
 14 35  1  0  0  0  0
 15 36  1  0  0  0  0
 15 37  1  0  0  0  0
 19 38  1  0  0  0  0
M  END
> <pdb_id>
3K3I

> <uniprot_id>
Q16539

> <usmiles>
Brc1ccc(cc1)C=2N=C(NC2)[C@H]3NCc4c(cccc4)C3

$$$$
K01_B_604
          07202413333D 1   1.00000     0.00000     0
            
 46 48  0  0  0  0            999 V2000
   40.4073   -7.6395   15.5112 S   0  0  0  0  0  0  0  0  0  0  0  0
   37.9848   -3.5500   18.9924 S   0  0  0  0  0  0  0  0  0  0  0  0
   39.9586   -5.1127   16.8954 O   0  0  0  0  0  0  0  0  0  0  0  0
   41.1449   -4.8351   22.5134 O   0  0  0  0  0  0  0  0  0  0  0  0
   39.4024   -5.8354   18.7604 N   0  0  0  0  0  0  0  0  0  0  0  0
   41.7241   -6.0653   21.2783 N   0  0  0  0  0  0  0  0  0  0  0  0
   42.0927   -8.3051   21.1328 C   0  0  0  0  0  0  0  0  0  0  0  0
   42.6691   -5.0231   19.5408 C   0  0  0  0  0  0  0  0  0  0  0  0
   40.2923   -9.3636   15.5974 C   0  0  0  0  0  0  0  0  0  0  0  0
   42.6481   -7.0531   21.7590 C   0  0  0  0  0  0  0  0  0  0  0  0
   39.8105   -9.7294   16.8505 C   0  0  0  0  0  0  0  0  0  0  0  0
   38.6821   -0.3751   21.2469 C   0  0  0  0  0  0  0  0  0  0  0  0
   39.3382   -0.9945   22.5198 C   0  0  0  0  0  0  0  0  0  0  0  0
   39.5353   -8.6881   17.7590 C   0  0  0  0  0  0  0  0  0  0  0  0
   37.6010   -1.2895   20.6118 C   0  0  0  0  0  0  0  0  0  0  0  0
   39.8014   -2.4777   22.4761 C   0  0  0  0  0  0  0  0  0  0  0  0
   39.2071   -4.6602   19.4349 C   0  0  0  0  0  0  0  0  0  0  0  0
   39.6902   -6.0592   17.5306 C   0  0  0  0  0  0  0  0  0  0  0  0
   39.8122   -7.4767   17.1195 C   0  0  0  0  0  0  0  0  0  0  0  0
   38.3469   -2.5757   20.3921 C   0  0  0  0  0  0  0  0  0  0  0  0
   41.4724   -6.1702   19.9999 C   0  0  0  0  0  0  0  0  0  0  0  0
   39.3537   -3.1364   21.1781 C   0  0  0  0  0  0  0  0  0  0  0  0
   39.8445   -4.3345   20.6380 C   0  0  0  0  0  0  0  0  0  0  0  0
   40.8175   -5.1471   21.4709 C   0  0  0  0  0  0  0  0  0  0  0  0
   39.3040   -6.6578   19.3208 H   0  0  0  0  0  0  0  0  0  0  0  0
   42.6578   -9.0876   21.3942 H   0  0  0  0  0  0  0  0  0  0  0  0
   41.1557   -8.4495   21.4509 H   0  0  0  0  0  0  0  0  0  0  0  0
   42.0957   -8.2095   20.1373 H   0  0  0  0  0  0  0  0  0  0  0  0
   42.6707   -4.9230   18.5458 H   0  0  0  0  0  0  0  0  0  0  0  0
   42.4647   -4.1405   19.9642 H   0  0  0  0  0  0  0  0  0  0  0  0
   43.5678   -5.3388   19.8454 H   0  0  0  0  0  0  0  0  0  0  0  0
   40.5340   -9.9974   14.8626 H   0  0  0  0  0  0  0  0  0  0  0  0
   42.6390   -7.1080   22.7574 H   0  0  0  0  0  0  0  0  0  0  0  0
   43.5789   -6.8680   21.4438 H   0  0  0  0  0  0  0  0  0  0  0  0
   39.6661  -10.6882   17.0952 H   0  0  0  0  0  0  0  0  0  0  0  0
   39.3978   -0.2101   20.5683 H   0  0  0  0  0  0  0  0  0  0  0  0
   38.2556    0.4935   21.4995 H   0  0  0  0  0  0  0  0  0  0  0  0
   38.6722   -0.9161   23.2616 H   0  0  0  0  0  0  0  0  0  0  0  0
   40.1431   -0.4413   22.7345 H   0  0  0  0  0  0  0  0  0  0  0  0
   39.2012   -8.7967   18.6953 H   0  0  0  0  0  0  0  0  0  0  0  0
   37.2711   -0.9113   19.7469 H   0  0  0  0  0  0  0  0  0  0  0  0
   36.8292   -1.4216   21.2338 H   0  0  0  0  0  0  0  0  0  0  0  0
   39.4029   -2.9701   23.2498 H   0  0  0  0  0  0  0  0  0  0  0  0
   40.7989   -2.5131   22.5364 H   0  0  0  0  0  0  0  0  0  0  0  0
   40.5441   -5.8880   19.7577 H   0  0  0  0  0  0  0  0  0  0  0  0
   41.6472   -7.0863   19.6388 H   0  0  0  0  0  0  0  0  0  0  0  0
  1  9  1  0  0  0  0
  1 19  1  0  0  0  0
  2 17  1  0  0  0  0
  2 20  1  0  0  0  0
  3 18  2  0  0  0  0
  4 24  2  0  0  0  0
  5 17  1  0  0  0  0
  5 18  1  0  0  0  0
  6 10  1  0  0  0  0
  6 21  1  0  0  0  0
  6 24  1  0  0  0  0
  7 10  1  0  0  0  0
  8 21  1  0  0  0  0
  9 11  2  0  0  0  0
 11 14  1  0  0  0  0
 12 13  1  0  0  0  0
 12 15  1  0  0  0  0
 13 16  1  0  0  0  0
 14 19  2  0  0  0  0
 15 20  1  0  0  0  0
 16 22  1  0  0  0  0
 17 23  2  0  0  0  0
 18 19  1  0  0  0  0
 20 22  2  0  0  0  0
 23 24  1  0  0  0  0
 22 23  1  0  0  0  0
  5 25  1  0  0  0  0
  7 26  1  0  0  0  0
  7 27  1  0  0  0  0
  7 28  1  0  0  0  0
  8 29  1  0  0  0  0
  8 30  1  0  0  0  0
  8 31  1  0  0  0  0
  9 32  1  0  0  0  0
 10 33  1  0  0  0  0
 10 34  1  0  0  0  0
 11 35  1  0  0  0  0
 12 36  1  0  0  0  0
 12 37  1  0  0  0  0
 13 38  1  0  0  0  0
 13 39  1  0  0  0  0
 14 40  1  0  0  0  0
 15 41  1  0  0  0  0
 15 42  1  0  0  0  0
 16 43  1  0  0  0  0
 16 44  1  0  0  0  0
 21 45  1  0  0  0  0
 21 46  1  0  0  0  0
M  END
> <pdb_id>
2PG2

> <uniprot_id>
P52732

> <usmiles>
S1C(NC(=O)C=2SC=CC2)=C(C(=O)N(CC)CC)C3=C1CCCC3

$$$$
K02_B_604
          07202413333D 1   1.00000     0.00000     0
            
 49 51  0  0  0  0            999 V2000
   40.5217   -7.6641   15.4849 S   0  0  0  0  0  0  0  0  0  0  0  0
   37.8876   -3.8038   18.8165 S   0  0  0  0  0  0  0  0  0  0  0  0
   39.8587   -5.2455   16.9377 O   0  0  0  0  0  0  0  0  0  0  0  0
   40.3528   -5.6686   22.3296 O   0  0  0  0  0  0  0  0  0  0  0  0
   39.1450   -6.1548   18.8022 N   0  0  0  0  0  0  0  0  0  0  0  0
   41.8320   -5.8109   20.6558 N   0  0  0  0  0  0  0  0  0  0  0  0
   41.8584   -8.2156   21.3959 C   0  0  0  0  0  0  0  0  0  0  0  0
   43.5271   -4.2185   19.8751 C   0  0  0  0  0  0  0  0  0  0  0  0
   39.5587   -0.2842   23.3412 C   0  0  0  0  0  0  0  0  0  0  0  0
   40.3998   -9.3850   15.4025 C   0  0  0  0  0  0  0  0  0  0  0  0
   42.6320   -6.9185   21.2497 C   0  0  0  0  0  0  0  0  0  0  0  0
   42.4692   -5.2248   19.4867 C   0  0  0  0  0  0  0  0  0  0  0  0
   39.7743   -9.8536   16.5753 C   0  0  0  0  0  0  0  0  0  0  0  0
   39.3888   -8.8966   17.5233 C   0  0  0  0  0  0  0  0  0  0  0  0
   37.5421   -1.3981   20.0902 C   0  0  0  0  0  0  0  0  0  0  0  0
   38.0177   -0.6708   21.3416 C   0  0  0  0  0  0  0  0  0  0  0  0
   39.7598   -2.4868   22.1114 C   0  0  0  0  0  0  0  0  0  0  0  0
   38.9401   -4.9745   19.3999 C   0  0  0  0  0  0  0  0  0  0  0  0
   39.6040   -6.2497   17.5792 C   0  0  0  0  0  0  0  0  0  0  0  0
   40.6534   -5.3896   21.1948 C   0  0  0  0  0  0  0  0  0  0  0  0
   39.7583   -7.6276   17.0555 C   0  0  0  0  0  0  0  0  0  0  0  0
   38.2941   -2.6852   20.0518 C   0  0  0  0  0  0  0  0  0  0  0  0
   39.3878   -1.0110   21.9769 C   0  0  2  0  0  0  0  0  0  0  0  0
   39.2435   -3.2418   20.9240 C   0  0  0  0  0  0  0  0  0  0  0  0
   39.6550   -4.5268   20.4908 C   0  0  0  0  0  0  0  0  0  0  0  0
   38.9405   -6.9933   19.3072 H   0  0  0  0  0  0  0  0  0  0  0  0
   42.4508   -8.9135   21.7984 H   0  0  0  0  0  0  0  0  0  0  0  0
   41.0675   -8.0669   21.9895 H   0  0  0  0  0  0  0  0  0  0  0  0
   41.5471   -8.5213   20.4961 H   0  0  0  0  0  0  0  0  0  0  0  0
   43.9431   -3.8368   19.0497 H   0  0  0  0  0  0  0  0  0  0  0  0
   43.1081   -3.4832   20.4078 H   0  0  0  0  0  0  0  0  0  0  0  0
   44.2303   -4.6695   20.4248 H   0  0  0  0  0  0  0  0  0  0  0  0
   40.4484   -0.5171   23.7338 H   0  0  0  0  0  0  0  0  0  0  0  0
   39.5045    0.7044   23.2014 H   0  0  0  0  0  0  0  0  0  0  0  0
   38.8329   -0.5728   23.9658 H   0  0  0  0  0  0  0  0  0  0  0  0
   40.7205   -9.9554   14.6463 H   0  0  0  0  0  0  0  0  0  0  0  0
   42.9440   -6.6326   22.1557 H   0  0  0  0  0  0  0  0  0  0  0  0
   43.4236   -7.0869   20.6623 H   0  0  0  0  0  0  0  0  0  0  0  0
   41.7735   -4.7669   18.9334 H   0  0  0  0  0  0  0  0  0  0  0  0
   42.8956   -5.9531   18.9503 H   0  0  0  0  0  0  0  0  0  0  0  0
   39.6123  -10.8290   16.7247 H   0  0  0  0  0  0  0  0  0  0  0  0
   38.9270   -9.0871   18.3896 H   0  0  0  0  0  0  0  0  0  0  0  0
   37.7422   -0.8543   19.2752 H   0  0  0  0  0  0  0  0  0  0  0  0
   36.5587   -1.5717   20.1419 H   0  0  0  0  0  0  0  0  0  0  0  0
   37.3272   -0.8328   22.0466 H   0  0  0  0  0  0  0  0  0  0  0  0
   38.0411    0.3029   21.1152 H   0  0  0  0  0  0  0  0  0  0  0  0
   39.3526   -2.8586   22.9457 H   0  0  0  0  0  0  0  0  0  0  0  0
   40.7546   -2.5771   22.1571 H   0  0  0  0  0  0  0  0  0  0  0  0
   40.0749   -0.6124   21.3694 H   0  0  0  0  0  0  0  0  0  0  0  0
  1 10  1  0  0  0  0
  1 21  1  0  0  0  0
  2 18  1  0  0  0  0
  2 22  1  0  0  0  0
  3 19  2  0  0  0  0
  4 20  2  0  0  0  0
  5 18  1  0  0  0  0
  5 19  1  0  0  0  0
  6 11  1  0  0  0  0
  6 12  1  0  0  0  0
  6 20  1  0  0  0  0
  7 11  1  0  0  0  0
  8 12  1  0  0  0  0
  9 23  1  0  0  0  0
 10 13  2  0  0  0  0
 13 14  1  0  0  0  0
 14 21  2  0  0  0  0
 15 16  1  0  0  0  0
 15 22  1  0  0  0  0
 16 23  1  0  0  0  0
 17 23  1  0  0  0  0
 17 24  1  0  0  0  0
 18 25  2  0  0  0  0
 19 21  1  0  0  0  0
 20 25  1  0  0  0  0
 22 24  2  0  0  0  0
 24 25  1  0  0  0  0
  5 26  1  0  0  0  0
  7 27  1  0  0  0  0
  7 28  1  0  0  0  0
  7 29  1  0  0  0  0
  8 30  1  0  0  0  0
  8 31  1  0  0  0  0
  8 32  1  0  0  0  0
  9 33  1  0  0  0  0
  9 34  1  0  0  0  0
  9 35  1  0  0  0  0
 10 36  1  0  0  0  0
 11 37  1  0  0  0  0
 11 38  1  0  0  0  0
 12 39  1  0  0  0  0
 12 40  1  0  0  0  0
 13 41  1  0  0  0  0
 14 42  1  0  0  0  0
 15 43  1  0  0  0  0
 15 44  1  0  0  0  0
 16 45  1  0  0  0  0
 16 46  1  0  0  0  0
 17 47  1  0  0  0  0
 17 48  1  0  0  0  0
 23 49  1  0  0  0  0
M  END
> <pdb_id>
2UYI

> <uniprot_id>
P52732

> <usmiles>
S1C(NC(=O)C=2SC=CC2)=C(C(=O)N(CC)CC)C3=C1CC[C@H](C3)C

$$$$
K0G_A_501
          07202408113D 1   1.00000     0.00000     0
            
 27 28  0  0  0  0            999 V2000
    9.0945  -10.9001  -28.2718 O   0  0  0  0  0  0  0  0  0  0  0  0
    9.7768  -14.6517  -26.7501 N   0  0  0  0  0  0  0  0  0  0  0  0
    7.7490  -12.5813  -29.0306 N   0  0  0  0  0  0  0  0  0  0  0  0
    7.4610  -10.4816  -29.8419 N   0  0  0  0  0  0  0  0  0  0  0  0
    8.8826  -15.6165  -26.4820 C   0  0  0  0  0  0  0  0  0  0  0  0
    9.4030  -13.6905  -27.5992 C   0  0  0  0  0  0  0  0  0  0  0  0
    7.6134  -15.6491  -27.0110 C   0  0  0  0  0  0  0  0  0  0  0  0
    6.6093   -6.3781  -29.5742 C   0  0  0  0  0  0  0  0  0  0  0  0
    6.5205   -7.0411  -30.7890 C   0  0  0  0  0  0  0  0  0  0  0  0
    7.0121   -7.0654  -28.4426 C   0  0  0  0  0  0  0  0  0  0  0  0
    7.2337  -14.6396  -27.8729 C   0  0  0  0  0  0  0  0  0  0  0  0
    6.8243   -8.3925  -30.8738 C   0  0  0  0  0  0  0  0  0  0  0  0
    7.3025   -8.4193  -28.5131 C   0  0  0  0  0  0  0  0  0  0  0  0
    8.1843  -11.2891  -28.9986 C   0  0  0  0  0  0  0  0  0  0  0  0
    8.1431  -13.6344  -28.1872 C   0  0  0  0  0  0  0  0  0  0  0  0
    7.2127   -9.0897  -29.7320 C   0  0  0  0  0  0  0  0  0  0  0  0
    7.0734  -12.8047  -29.7332 H   0  0  0  0  0  0  0  0  0  0  0  0
    7.0568  -10.9340  -30.6369 H   0  0  0  0  0  0  0  0  0  0  0  0
    9.1546  -16.3530  -25.8627 H   0  0  0  0  0  0  0  0  0  0  0  0
   10.0632  -12.9738  -27.8239 H   0  0  0  0  0  0  0  0  0  0  0  0
    6.9803  -16.3870  -26.7768 H   0  0  0  0  0  0  0  0  0  0  0  0
    6.3829   -5.4058  -29.5161 H   0  0  0  0  0  0  0  0  0  0  0  0
    6.2362   -6.5428  -31.6081 H   0  0  0  0  0  0  0  0  0  0  0  0
    7.0941   -6.5835  -27.5702 H   0  0  0  0  0  0  0  0  0  0  0  0
    6.3147  -14.6308  -28.2672 H   0  0  0  0  0  0  0  0  0  0  0  0
    6.7644   -8.8651  -31.7530 H   0  0  0  0  0  0  0  0  0  0  0  0
    7.5764   -8.9151  -27.6891 H   0  0  0  0  0  0  0  0  0  0  0  0
  1 14  2  0  0  0  0
  2  5  2  0  0  0  0
  2  6  1  0  0  0  0
  3 14  1  0  0  0  0
  3 15  1  0  0  0  0
  4 14  1  0  0  0  0
  4 16  1  0  0  0  0
  5  7  1  0  0  0  0
  6 15  2  0  0  0  0
  7 11  2  0  0  0  0
  8  9  2  0  0  0  0
  8 10  1  0  0  0  0
  9 12  1  0  0  0  0
 10 13  2  0  0  0  0
 11 15  1  0  0  0  0
 12 16  2  0  0  0  0
 13 16  1  0  0  0  0
  3 17  1  0  0  0  0
  4 18  1  0  0  0  0
  5 19  1  0  0  0  0
  6 20  1  0  0  0  0
  7 21  1  0  0  0  0
  8 22  1  0  0  0  0
  9 23  1  0  0  0  0
 10 24  1  0  0  0  0
 11 25  1  0  0  0  0
 12 26  1  0  0  0  0
 13 27  1  0  0  0  0
M  END
> <pdb_id>
5S2F

> <uniprot_id>
P0DTD1

> <usmiles>
O=C(Nc1cnccc1)Nc2ccccc2

$$$$
K0N_A_402
          07202401373D 1   1.00000     0.00000     0
            
 43 44  0  0  0  0            999 V2000
   23.7705  -26.7953   12.5673 S   0  0  0  0  0  0  0  0  0  0  0  0
   23.4513  -29.6001   12.3800 O   0  0  0  0  0  0  0  0  0  0  0  0
   22.3583  -37.6264   14.2431 O   0  0  0  0  0  0  0  0  0  0  0  0
   22.2209  -35.9289   16.3654 O   0  0  0  0  0  0  0  0  0  0  0  0
   21.9329  -31.1125   16.5764 N   0  0  0  0  0  0  0  0  0  0  0  0
   22.8774  -26.1856   14.8073 N   0  0  0  0  0  0  0  0  0  0  0  0
   23.2631  -24.9336   14.1365 N   0  0  0  0  0  0  0  0  0  0  0  0
   22.8736  -28.6059   14.3949 N   0  0  0  0  0  0  0  0  0  0  0  0
   22.1052  -34.9981   17.4116 C   0  0  0  0  0  0  0  0  0  0  0  0
   25.6573  -24.4595   11.4753 C   0  0  0  0  0  0  0  0  0  0  0  0
   24.3490  -22.7867   12.7721 C   0  0  0  0  0  0  0  0  0  0  0  0
   23.3027  -23.9166   10.8016 C   0  0  0  0  0  0  0  0  0  0  0  0
   22.3210  -31.1040   15.5173 C   0  0  0  0  0  0  0  0  0  0  0  0
   22.7569  -35.8060   12.7259 C   0  0  0  0  0  0  0  0  0  0  0  0
   22.9235  -34.4460   12.5243 C   0  0  0  0  0  0  0  0  0  0  0  0
   22.6235  -34.0303   14.9006 C   0  0  0  0  0  0  0  0  0  0  0  0
   23.0524  -32.0941   13.2786 C   0  0  0  0  0  0  0  0  0  0  0  0
   23.1227  -27.2489   13.9939 C   0  0  0  0  0  0  0  0  0  0  0  0
   23.7673  -25.1857   12.8988 C   0  0  0  0  0  0  0  0  0  0  0  0
   23.0924  -29.7067   13.4987 C   0  0  0  0  0  0  0  0  0  0  0  0
   22.5202  -36.2639   14.0095 C   0  0  0  0  0  0  0  0  0  0  0  0
   22.4579  -35.3951   15.0941 C   0  0  0  0  0  0  0  0  0  0  0  0
   22.8553  -33.5671   13.6060 C   0  0  0  0  0  0  0  0  0  0  0  0
   22.8180  -31.0705   14.0744 C   0  0  0  0  0  0  0  0  0  0  0  0
   24.2632  -24.0858   11.9692 C   0  0  0  0  0  0  0  0  0  0  0  0
   22.1871  -37.9578   15.1709 H   0  0  0  0  0  0  0  0  0  0  0  0
   22.5400  -28.7882   15.3198 H   0  0  0  0  0  0  0  0  0  0  0  0
   21.9380  -35.4815   18.2708 H   0  0  0  0  0  0  0  0  0  0  0  0
   22.9524  -34.4717   17.4847 H   0  0  0  0  0  0  0  0  0  0  0  0
   21.3430  -34.3786   17.2238 H   0  0  0  0  0  0  0  0  0  0  0  0
   25.6081  -25.3085   10.9492 H   0  0  0  0  0  0  0  0  0  0  0  0
   26.0124  -23.7273   10.8940 H   0  0  0  0  0  0  0  0  0  0  0  0
   26.2653  -24.5876   12.2588 H   0  0  0  0  0  0  0  0  0  0  0  0
   23.4378  -22.5360   13.0990 H   0  0  0  0  0  0  0  0  0  0  0  0
   24.9591  -22.9175   13.5536 H   0  0  0  0  0  0  0  0  0  0  0  0
   24.7062  -22.0572   12.1888 H   0  0  0  0  0  0  0  0  0  0  0  0
   22.3969  -23.6723   11.1478 H   0  0  0  0  0  0  0  0  0  0  0  0
   23.6356  -23.1918   10.1984 H   0  0  0  0  0  0  0  0  0  0  0  0
   23.2442  -24.7745   10.2910 H   0  0  0  0  0  0  0  0  0  0  0  0
   22.8067  -36.4447   11.9581 H   0  0  0  0  0  0  0  0  0  0  0  0
   23.0927  -34.0940   11.6038 H   0  0  0  0  0  0  0  0  0  0  0  0
   22.5776  -33.3947   15.6712 H   0  0  0  0  0  0  0  0  0  0  0  0
   23.3956  -31.8808   12.3639 H   0  0  0  0  0  0  0  0  0  0  0  0
  1 18  1  0  0  0  0
  1 19  1  0  0  0  0
  2 20  2  0  0  0  0
  3 21  1  0  0  0  0
  4  9  1  0  0  0  0
  4 22  1  0  0  0  0
  5 13  3  0  0  0  0
  6  7  1  0  0  0  0
  6 18  2  0  0  0  0
  7 19  2  0  0  0  0
  8 18  1  0  0  0  0
  8 20  1  0  0  0  0
 10 25  1  0  0  0  0
 11 25  1  0  0  0  0
 12 25  1  0  0  0  0
 13 24  1  0  0  0  0
 14 15  1  0  0  0  0
 14 21  2  0  0  0  0
 15 23  2  0  0  0  0
 16 22  2  0  0  0  0
 16 23  1  0  0  0  0
 17 23  1  0  0  0  0
 17 24  2  0  0  0  0
 19 25  1  0  0  0  0
 20 24  1  0  0  0  0
 21 22  1  0  0  0  0
  3 26  1  0  0  0  0
  8 27  1  0  0  0  0
  9 28  1  0  0  0  0
  9 29  1  0  0  0  0
  9 30  1  0  0  0  0
 10 31  1  0  0  0  0
 10 32  1  0  0  0  0
 10 33  1  0  0  0  0
 11 34  1  0  0  0  0
 11 35  1  0  0  0  0
 11 36  1  0  0  0  0
 12 37  1  0  0  0  0
 12 38  1  0  0  0  0
 12 39  1  0  0  0  0
 14 40  1  0  0  0  0
 15 41  1  0  0  0  0
 16 42  1  0  0  0  0
 17 43  1  0  0  0  0
M  END
> <pdb_id>
6RCM

> <uniprot_id>
P68400

> <usmiles>
S1C(=NN=C1C(C)(C)C)NC(=O)/C(/C#N)=C/c2cc(OC)c(O)cc2

$$$$
K0Z_A_403
          07202401373D 1   1.00000     0.00000     0
            
 31 32  0  0  0  0            999 V2000
   24.1871  -23.8302   10.9037 Br  0  0  0  0  0  0  0  0  0  0  0  0
   23.7996  -26.8770   11.9048 S   0  0  0  0  0  0  0  0  0  0  0  0
   23.7044  -29.6337   12.1120 O   0  0  0  0  0  0  0  0  0  0  0  0
   22.3761  -37.5083   14.2536 O   0  0  0  0  0  0  0  0  0  0  0  0
   22.2167  -35.8154   16.2986 O   0  0  0  0  0  0  0  0  0  0  0  0
   22.7024  -30.9364   16.5406 N   0  0  0  0  0  0  0  0  0  0  0  0
   23.1740  -24.9242   13.3279 N   0  0  0  0  0  0  0  0  0  0  0  0
   22.8626  -26.1182   14.1063 N   0  0  0  0  0  0  0  0  0  0  0  0
   22.9639  -28.5084   13.9699 N   0  0  0  0  0  0  0  0  0  0  0  0
   22.1578  -34.8955   17.3611 C   0  0  0  0  0  0  0  0  0  0  0  0
   22.8408  -30.9681   15.4171 C   0  0  0  0  0  0  0  0  0  0  0  0
   22.8355  -35.7383   12.6789 C   0  0  0  0  0  0  0  0  0  0  0  0
   23.0436  -34.3876   12.4577 C   0  0  0  0  0  0  0  0  0  0  0  0
   22.6705  -33.9180   14.8004 C   0  0  0  0  0  0  0  0  0  0  0  0
   23.1464  -32.0395   13.1268 C   0  0  0  0  0  0  0  0  0  0  0  0
   23.6893  -25.2479   12.1180 C   0  0  0  0  0  0  0  0  0  0  0  0
   23.1804  -27.2207   13.3823 C   0  0  0  0  0  0  0  0  0  0  0  0
   23.2858  -29.6779   13.2155 C   0  0  0  0  0  0  0  0  0  0  0  0
   22.5813  -36.1674   13.9699 C   0  0  0  0  0  0  0  0  0  0  0  0
   22.4951  -35.2763   15.0329 C   0  0  0  0  0  0  0  0  0  0  0  0
   22.9537  -33.4912   13.5108 C   0  0  0  0  0  0  0  0  0  0  0  0
   23.0674  -30.9922   13.9052 C   0  0  0  0  0  0  0  0  0  0  0  0
   22.1938  -37.7984   15.1930 H   0  0  0  0  0  0  0  0  0  0  0  0
   22.5927  -28.5878   14.8950 H   0  0  0  0  0  0  0  0  0  0  0  0
   21.9550  -35.3810   18.2115 H   0  0  0  0  0  0  0  0  0  0  0  0
   23.0374  -34.4275   17.4461 H   0  0  0  0  0  0  0  0  0  0  0  0
   21.4389  -34.2240   17.1811 H   0  0  0  0  0  0  0  0  0  0  0  0
   22.8682  -36.3904   11.9215 H   0  0  0  0  0  0  0  0  0  0  0  0
   23.2589  -34.0588   11.5381 H   0  0  0  0  0  0  0  0  0  0  0  0
   22.5940  -33.2596   15.5491 H   0  0  0  0  0  0  0  0  0  0  0  0
   23.3588  -31.8610   12.1660 H   0  0  0  0  0  0  0  0  0  0  0  0
  1 16  1  0  0  0  0
  2 16  1  0  0  0  0
  2 17  1  0  0  0  0
  3 18  2  0  0  0  0
  4 19  1  0  0  0  0
  5 10  1  0  0  0  0
  5 20  1  0  0  0  0
  6 11  3  0  0  0  0
  7  8  1  0  0  0  0
  7 16  2  0  0  0  0
  8 17  2  0  0  0  0
  9 17  1  0  0  0  0
  9 18  1  0  0  0  0
 11 22  1  0  0  0  0
 12 13  1  0  0  0  0
 12 19  2  0  0  0  0
 13 21  2  0  0  0  0
 14 20  2  0  0  0  0
 14 21  1  0  0  0  0
 15 21  1  0  0  0  0
 15 22  2  0  0  0  0
 18 22  1  0  0  0  0
 19 20  1  0  0  0  0
  4 23  1  0  0  0  0
  9 24  1  0  0  0  0
 10 25  1  0  0  0  0
 10 26  1  0  0  0  0
 10 27  1  0  0  0  0
 12 28  1  0  0  0  0
 13 29  1  0  0  0  0
 14 30  1  0  0  0  0
 15 31  1  0  0  0  0
M  END
> <pdb_id>
6RFE

> <uniprot_id>
P68400

> <usmiles>
BrC=1SC(=NN1)NC(=O)/C(/C#N)=C/c2cc(OC)c(O)cc2

$$$$
K17_B_303
          07202402453D 1   1.00000     0.00000     0
            
 15 16  0  0  0  0            999 V2000
   -3.9173   10.5972   15.8498 Br  0  0  0  0  0  0  0  0  0  0  0  0
   -5.7463    8.3250   14.2403 Br  0  0  0  0  0  0  0  0  0  0  0  0
   -1.3515    9.5270   17.8097 Br  0  0  0  0  0  0  0  0  0  0  0  0
   -5.1996    5.2430   14.3973 Br  0  0  0  0  0  0  0  0  0  0  0  0
   -1.2663    5.8479   17.5902 N   0  0  0  0  0  0  0  0  0  0  0  0
   -2.6572    4.6373   16.3846 N   0  0  0  0  0  0  0  0  0  0  0  0
   -1.6635    4.6269   17.1767 C   0  0  0  0  0  0  0  0  0  0  0  0
   -3.4407    8.7438   16.0810 C   0  0  0  0  0  0  0  0  0  0  0  0
   -4.2776    7.8503   15.3463 C   0  0  0  0  0  0  0  0  0  0  0  0
   -2.3956    8.2000   16.8707 C   0  0  0  0  0  0  0  0  0  0  0  0
   -4.1187    6.4811   15.3642 C   0  0  0  0  0  0  0  0  0  0  0  0
   -2.2352    6.8178   16.8935 C   0  0  0  0  0  0  0  0  0  0  0  0
   -3.1168    5.9210   16.1134 C   0  0  0  0  0  0  0  0  0  0  0  0
   -0.5131    6.0714   18.2089 H   0  0  0  0  0  0  0  0  0  0  0  0
   -1.2132    3.7833   17.4694 H   0  0  0  0  0  0  0  0  0  0  0  0
  1  8  1  0  0  0  0
  2  9  1  0  0  0  0
  3 10  1  0  0  0  0
  4 11  1  0  0  0  0
  5  7  1  0  0  0  0
  5 12  1  0  0  0  0
  6  7  2  0  0  0  0
  6 13  1  0  0  0  0
  8  9  2  0  0  0  0
  8 10  1  0  0  0  0
  9 11  1  0  0  0  0
 10 12  2  0  0  0  0
 11 13  2  0  0  0  0
 12 13  1  0  0  0  0
  5 14  1  0  0  0  0
  7 15  1  0  0  0  0
M  END
> <pdb_id>
4U7G

> <uniprot_id>
P16083

> <usmiles>
Brc1c(Br)c(Br)c2NC=Nc2c1Br

$$$$
K1W_A_303
          07192416293D 1   1.00000     0.00000     0
            
 46 48  0  0  0  0            999 V2000
   -5.8550    1.0962   16.7710 S   0  0  0  0  0  0  0  0  0  0  0  0
   -5.2182    1.3821   18.0588 O   0  0  0  0  0  0  0  0  0  0  0  0
   -7.3141    1.2188   16.6726 O   0  0  0  0  0  0  0  0  0  0  0  0
   -4.2728    5.3853   11.9494 O   0  0  0  0  0  0  0  0  0  0  0  0
   -5.4412   -0.2933   16.2278 N   0  0  0  0  0  0  0  0  0  0  0  0
   -1.3089    8.5255   13.9083 N   0  0  0  0  0  0  0  0  0  0  0  0
   -2.5910    6.0863   13.2362 N   0  0  0  0  0  0  0  0  0  0  0  0
   -2.0691    7.7372   14.8841 C   0  0  0  0  0  0  0  0  0  0  0  0
   -1.9338    8.3545   12.5642 C   0  0  0  0  0  0  0  0  0  0  0  0
   -1.9952    6.2930   14.4683 C   0  0  0  0  0  0  0  0  0  0  0  0
   -1.1827    2.4171   10.0230 C   0  0  0  0  0  0  0  0  0  0  0  0
   -0.8248    2.5630   11.3534 C   0  0  0  0  0  0  0  0  0  0  0  0
   -1.3903    3.5267    9.2239 C   0  0  0  0  0  0  0  0  0  0  0  0
   -3.9211    2.3213   15.3232 C   0  0  0  0  0  0  0  0  0  0  0  0
   -6.0133    3.3568   15.2495 C   0  0  0  0  0  0  0  0  0  0  0  0
   -0.6096    3.8308   11.9345 C   0  0  0  0  0  0  0  0  0  0  0  0
   -1.1581    4.8293    9.7570 C   0  0  0  0  0  0  0  0  0  0  0  0
   -3.3998    3.2979   14.4780 C   0  0  0  0  0  0  0  0  0  0  0  0
   -5.5350    4.3213   14.3734 C   0  0  0  0  0  0  0  0  0  0  0  0
   -0.6161    6.3580   11.6621 C   0  0  0  0  0  0  0  0  0  0  0  0
   -5.2759    2.2543   15.7302 C   0  0  0  0  0  0  0  0  0  0  0  0
   -3.6921    5.3776   13.0270 C   0  0  0  0  0  0  0  0  0  0  0  0
   -2.0299    6.8751   12.0936 C   0  0  1  0  0  0  0  0  0  0  0  0
   -0.7803    4.9573   11.0954 C   0  0  0  0  0  0  0  0  0  0  0  0
   -4.1943    4.3534   14.0224 C   0  0  0  0  0  0  0  0  0  0  0  0
   -5.8924   -0.4560   15.3503 H   0  0  0  0  0  0  0  0  0  0  0  0
   -4.4494   -0.3205   16.1028 H   0  0  0  0  0  0  0  0  0  0  0  0
   -0.3617    8.2058   13.8822 H   0  0  0  0  0  0  0  0  0  0  0  0
   -3.0224    8.0392   14.8963 H   0  0  0  0  0  0  0  0  0  0  0  0
   -1.6722    7.8495   15.7950 H   0  0  0  0  0  0  0  0  0  0  0  0
   -1.3881    8.8616   11.8971 H   0  0  0  0  0  0  0  0  0  0  0  0
   -2.8581    8.7346   12.5967 H   0  0  0  0  0  0  0  0  0  0  0  0
   -1.0348    6.0196   14.4142 H   0  0  0  0  0  0  0  0  0  0  0  0
   -2.4630    5.7339   15.1528 H   0  0  0  0  0  0  0  0  0  0  0  0
   -1.2918    1.5011    9.6370 H   0  0  0  0  0  0  0  0  0  0  0  0
   -0.7157    1.7455   11.9188 H   0  0  0  0  0  0  0  0  0  0  0  0
   -1.7009    3.4167    8.2798 H   0  0  0  0  0  0  0  0  0  0  0  0
   -3.2963    1.6197   15.6658 H   0  0  0  0  0  0  0  0  0  0  0  0
   -6.9573    3.4510   15.5657 H   0  0  0  0  0  0  0  0  0  0  0  0
   -0.3485    3.9286   12.8949 H   0  0  0  0  0  0  0  0  0  0  0  0
   -1.2644    5.6395    9.1804 H   0  0  0  0  0  0  0  0  0  0  0  0
   -2.4429    3.2429   14.1929 H   0  0  0  0  0  0  0  0  0  0  0  0
   -6.1634    4.9992   13.9918 H   0  0  0  0  0  0  0  0  0  0  0  0
   -0.0072    6.3339   12.4550 H   0  0  0  0  0  0  0  0  0  0  0  0
   -0.2317    6.9632   10.9650 H   0  0  0  0  0  0  0  0  0  0  0  0
   -2.6542    6.8167   11.3146 H   0  0  0  0  0  0  0  0  0  0  0  0
  1  2  2  0  0  0  0
  1  3  2  0  0  0  0
  1  5  1  0  0  0  0
  1 21  1  0  0  0  0
  4 22  2  0  0  0  0
  6  8  1  0  0  0  0
  6  9  1  0  0  0  0
  7 10  1  0  0  0  0
  7 22  1  0  0  0  0
  7 23  1  0  0  0  0
  8 10  1  0  0  0  0
  9 23  1  0  0  0  0
 11 12  2  0  0  0  0
 11 13  1  0  0  0  0
 12 16  1  0  0  0  0
 13 17  2  0  0  0  0
 14 18  2  0  0  0  0
 14 21  1  0  0  0  0
 15 19  1  0  0  0  0
 15 21  2  0  0  0  0
 16 24  2  0  0  0  0
 17 24  1  0  0  0  0
 18 25  1  0  0  0  0
 19 25  2  0  0  0  0
 20 23  1  0  0  0  0
 20 24  1  0  0  0  0
 22 25  1  0  0  0  0
  5 26  1  0  0  0  0
  5 27  1  0  0  0  0
  6 28  1  0  0  0  0
  8 29  1  0  0  0  0
  8 30  1  0  0  0  0
  9 31  1  0  0  0  0
  9 32  1  0  0  0  0
 10 33  1  0  0  0  0
 10 34  1  0  0  0  0
 11 35  1  0  0  0  0
 12 36  1  0  0  0  0
 13 37  1  0  0  0  0
 14 38  1  0  0  0  0
 15 39  1  0  0  0  0
 16 40  1  0  0  0  0
 17 41  1  0  0  0  0
 18 42  1  0  0  0  0
 19 43  1  0  0  0  0
 20 44  1  0  0  0  0
 20 45  1  0  0  0  0
 23 46  1  0  0  0  0
M  END
> <pdb_id>
6RG3

> <uniprot_id>
P00918

> <usmiles>
S(=O)(=O)(N)c1ccc(cc1)C(=O)N2[C@@H](CNCC2)Cc3ccccc3

$$$$
K22_A_501
          07192422213D 1   1.00000     0.00000     0
            
 16 17  0  0  0  0            999 V2000
   20.6291   11.4404   18.1520 Br  0  0  0  0  0  0  0  0  0  0  0  0
   19.9239   10.6721   21.2117 Br  0  0  0  0  0  0  0  0  0  0  0  0
   22.8756    9.8382   16.6611 Br  0  0  0  0  0  0  0  0  0  0  0  0
   21.2791    8.3087   22.8478 Br  0  0  0  0  0  0  0  0  0  0  0  0
   25.3410    5.2345   20.0948 S   0  0  0  0  0  0  0  0  0  0  0  0
   24.1021    7.2961   18.8221 N   0  0  0  0  0  0  0  0  0  0  0  0
   23.4769    6.8913   20.8973 N   0  0  0  0  0  0  0  0  0  0  0  0
   24.2948    6.5024   19.9147 C   0  0  0  0  0  0  0  0  0  0  0  0
   21.5381   10.0129   19.0451 C   0  0  0  0  0  0  0  0  0  0  0  0
   21.2190    9.6846   20.3436 C   0  0  0  0  0  0  0  0  0  0  0  0
   22.5135    9.2624   18.4198 C   0  0  0  0  0  0  0  0  0  0  0  0
   21.8073    8.6685   21.0553 C   0  0  0  0  0  0  0  0  0  0  0  0
   23.1449    8.1996   19.1092 C   0  0  0  0  0  0  0  0  0  0  0  0
   22.7728    7.9170   20.4331 C   0  0  0  0  0  0  0  0  0  0  0  0
   24.5901    7.2199   17.9526 H   0  0  0  0  0  0  0  0  0  0  0  0
   23.4082    6.4866   21.8092 H   0  0  0  0  0  0  0  0  0  0  0  0
  1  9  1  0  0  0  0
  2 10  1  0  0  0  0
  3 11  1  0  0  0  0
  4 12  1  0  0  0  0
  5  8  2  0  0  0  0
  6  8  1  0  0  0  0
  6 13  1  0  0  0  0
  7  8  1  0  0  0  0
  7 14  1  0  0  0  0
  9 10  2  0  0  0  0
  9 11  1  0  0  0  0
 10 12  1  0  0  0  0
 11 13  2  0  0  0  0
 12 14  2  0  0  0  0
 13 14  1  0  0  0  0
  6 15  1  0  0  0  0
  7 16  1  0  0  0  0
M  END
> <pdb_id>
2OXX

> <uniprot_id>
P28523

> <usmiles>
Brc1c(Br)c(Br)c2NC(=S)Nc2c1Br

$$$$
K2L_B_803
          07192416573D 1   1.00000     0.00000     0
            
 46 49  0  0  0  0            999 V2000
   24.8393   -5.7901   26.3418 O   0  0  0  0  0  0  0  0  0  0  0  0
   19.7178   -3.5293   19.0848 N   0  0  0  0  0  0  0  0  0  0  0  0
   17.0755   -2.6481   16.7676 N   0  0  0  0  0  0  0  0  0  0  0  0
   18.3238   -2.5284   20.5819 N   0  0  0  0  0  0  0  0  0  0  0  0
   23.0543   -4.7700   22.6447 N   0  0  0  0  0  0  0  0  0  0  0  0
   18.6235   -3.0972   18.5236 N   0  0  0  0  0  0  0  0  0  0  0  0
   21.4021   -5.5897   24.0093 N   0  0  0  0  0  0  0  0  0  0  0  0
   24.9085   -4.9887   24.2034 N   0  0  0  0  0  0  0  0  0  0  0  0
   20.0275   -5.9057   24.5372 C   0  0  0  0  0  0  0  0  0  0  0  0
   19.1722   -3.9072   16.2365 C   0  0  0  0  0  0  0  0  0  0  0  0
   15.6496   -1.2076   20.0142 C   0  0  0  0  0  0  0  0  0  0  0  0
   16.2207   -2.0140   17.7163 C   0  0  0  0  0  0  0  0  0  0  0  0
   25.9154   -4.4393   23.3118 C   0  0  0  0  0  0  0  0  0  0  0  0
   22.5714   -5.6038   24.7343 C   0  0  0  0  0  0  0  0  0  0  0  0
   27.2567   -4.5893   24.0445 C   0  0  0  0  0  0  0  0  0  0  0  0
   20.4833   -3.4152   21.4333 C   0  0  0  0  0  0  0  0  0  0  0  0
   26.9745   -5.2223   25.3894 C   0  0  0  0  0  0  0  0  0  0  0  0
   20.7340   -4.9286   21.5832 C   0  0  0  0  0  0  0  0  0  0  0  0
   19.5135   -3.1781   20.3458 C   0  0  0  0  0  0  0  0  0  0  0  0
   18.2546   -3.1908   17.1663 C   0  0  0  0  0  0  0  0  0  0  0  0
   25.4621   -5.4004   25.4284 C   0  0  0  0  0  0  0  0  0  0  0  0
   21.7278   -5.0839   22.7332 C   0  0  0  0  0  0  0  0  0  0  0  0
   23.5707   -5.1042   23.8639 C   0  0  0  0  0  0  0  0  0  0  0  0
   17.7501   -2.4690   19.4319 C   0  0  0  0  0  0  0  0  0  0  0  0
   16.5059   -1.9009   19.0132 C   0  0  0  0  0  0  0  0  0  0  0  0
   19.3589   -5.8196   23.7987 H   0  0  0  0  0  0  0  0  0  0  0  0
   20.0135   -6.8404   24.8923 H   0  0  0  0  0  0  0  0  0  0  0  0
   19.7974   -5.2667   25.2713 H   0  0  0  0  0  0  0  0  0  0  0  0
   19.9768   -4.2228   16.7395 H   0  0  0  0  0  0  0  0  0  0  0  0
   18.6978   -4.6930   15.8396 H   0  0  0  0  0  0  0  0  0  0  0  0
   19.4579   -3.2866   15.5062 H   0  0  0  0  0  0  0  0  0  0  0  0
   16.0805   -1.2601   20.9150 H   0  0  0  0  0  0  0  0  0  0  0  0
   15.5403   -0.2487   19.7523 H   0  0  0  0  0  0  0  0  0  0  0  0
   14.7525   -1.6482   20.0476 H   0  0  0  0  0  0  0  0  0  0  0  0
   15.3564   -1.6317   17.3894 H   0  0  0  0  0  0  0  0  0  0  0  0
   25.7265   -3.4749   23.1266 H   0  0  0  0  0  0  0  0  0  0  0  0
   25.9312   -4.9473   22.4505 H   0  0  0  0  0  0  0  0  0  0  0  0
   22.6910   -5.9046   25.6805 H   0  0  0  0  0  0  0  0  0  0  0  0
   27.6780   -3.6914   24.1718 H   0  0  0  0  0  0  0  0  0  0  0  0
   27.8712   -5.1738   23.5147 H   0  0  0  0  0  0  0  0  0  0  0  0
   21.3445   -2.9552   21.2171 H   0  0  0  0  0  0  0  0  0  0  0  0
   20.1174   -3.0522   22.2903 H   0  0  0  0  0  0  0  0  0  0  0  0
   27.2776   -4.6235   26.1308 H   0  0  0  0  0  0  0  0  0  0  0  0
   27.4351   -6.1066   25.4658 H   0  0  0  0  0  0  0  0  0  0  0  0
   21.1194   -5.3014   20.7392 H   0  0  0  0  0  0  0  0  0  0  0  0
   19.8795   -5.4020   21.7971 H   0  0  0  0  0  0  0  0  0  0  0  0
  1 21  2  0  0  0  0
  2  6  1  0  0  0  0
  2 19  2  0  0  0  0
  3 12  1  0  0  0  0
  3 20  2  0  0  0  0
  4 19  1  0  0  0  0
  4 24  2  0  0  0  0
  5 22  2  0  0  0  0
  5 23  1  0  0  0  0
  6 20  1  0  0  0  0
  6 24  1  0  0  0  0
  7  9  1  0  0  0  0
  7 14  1  0  0  0  0
  7 22  1  0  0  0  0
  8 13  1  0  0  0  0
  8 21  1  0  0  0  0
  8 23  1  0  0  0  0
 10 20  1  0  0  0  0
 11 25  1  0  0  0  0
 12 25  2  0  0  0  0
 13 15  1  0  0  0  0
 14 23  2  0  0  0  0
 15 17  1  0  0  0  0
 16 18  1  0  0  0  0
 16 19  1  0  0  0  0
 17 21  1  0  0  0  0
 18 22  1  0  0  0  0
 24 25  1  0  0  0  0
  9 26  1  0  0  0  0
  9 27  1  0  0  0  0
  9 28  1  0  0  0  0
 10 29  1  0  0  0  0
 10 30  1  0  0  0  0
 10 31  1  0  0  0  0
 11 32  1  0  0  0  0
 11 33  1  0  0  0  0
 11 34  1  0  0  0  0
 12 35  1  0  0  0  0
 13 36  1  0  0  0  0
 13 37  1  0  0  0  0
 14 38  1  0  0  0  0
 15 39  1  0  0  0  0
 15 40  1  0  0  0  0
 16 41  1  0  0  0  0
 16 42  1  0  0  0  0
 17 43  1  0  0  0  0
 17 44  1  0  0  0  0
 18 45  1  0  0  0  0
 18 46  1  0  0  0  0
M  END
> <pdb_id>
5SJG

> <uniprot_id>
Q9Y233

> <usmiles>
O=C1N(C=2N=C(N(C2)C)CCC3=NN4C(=N3)C(=CN=C4C)C)CCC1

$$$$
K32_D_503
          07202414123D 1   1.00000     0.00000     0
            
 16 17  0  0  0  0            999 V2000
   32.8107   22.9161   18.1613 Br  0  0  0  0  0  0  0  0  0  0  0  0
   30.1392   20.8930   19.1847 Br  0  0  0  0  0  0  0  0  0  0  0  0
   34.8380   24.4423   20.5799 Br  0  0  0  0  0  0  0  0  0  0  0  0
   29.7307   20.3034   22.6385 Br  0  0  0  0  0  0  0  0  0  0  0  0
   33.4070   23.0131   25.6365 O   0  0  0  0  0  0  0  0  0  0  0  0
   33.6817   23.3467   23.3578 N   0  0  0  0  0  0  0  0  0  0  0  0
   32.0666   22.0309   24.0094 N   0  0  0  0  0  0  0  0  0  0  0  0
   33.0895   22.8164   24.4676 C   0  0  0  0  0  0  0  0  0  0  0  0
   32.4412   22.5713   20.0261 C   0  0  0  0  0  0  0  0  0  0  0  0
   31.3690   21.7192   20.4441 C   0  0  0  0  0  0  0  0  0  0  0  0
   33.3210   23.2098   20.9143 C   0  0  0  0  0  0  0  0  0  0  0  0
   31.1153   21.4455   21.7967 C   0  0  0  0  0  0  0  0  0  0  0  0
   33.0255   22.9165   22.2238 C   0  0  0  0  0  0  0  0  0  0  0  0
   32.0088   22.0761   22.6331 C   0  0  0  0  0  0  0  0  0  0  0  0
   34.4741   23.9568   23.3659 H   0  0  0  0  0  0  0  0  0  0  0  0
   31.4495   21.5000   24.5902 H   0  0  0  0  0  0  0  0  0  0  0  0
  1  9  1  0  0  0  0
  2 10  1  0  0  0  0
  3 11  1  0  0  0  0
  4 12  1  0  0  0  0
  5  8  2  0  0  0  0
  6  8  1  0  0  0  0
  6 13  1  0  0  0  0
  7  8  1  0  0  0  0
  7 14  1  0  0  0  0
  9 10  2  0  0  0  0
  9 11  1  0  0  0  0
 10 12  1  0  0  0  0
 11 13  2  0  0  0  0
 12 14  2  0  0  0  0
 13 14  1  0  0  0  0
  6 15  1  0  0  0  0
  7 16  1  0  0  0  0
M  END
> <pdb_id>
6BKY

> <uniprot_id>
O75874

> <usmiles>
Brc1c(Br)c(Br)c2NC(=O)Nc2c1Br

$$$$
K3Z_A_502
          07202414513D 1   1.00000     0.00000     0
            
 23 23  0  0  0  0            999 V2000
    2.4134   13.9135  -22.4859 O   0  0  0  0  0  0  0  0  0  0  0  0
    1.2565   13.2003  -24.1743 O   0  0  0  0  0  0  0  0  0  0  0  0
   -5.8678   16.2049  -20.5595 O   0  0  0  0  0  0  0  0  0  0  0  0
   -7.1121   15.6804  -20.9315 C   0  0  0  0  0  0  0  0  0  0  0  0
    0.0396   14.3703  -22.4345 C   0  0  0  0  0  0  0  0  0  0  0  0
   -3.4959   16.0609  -20.7094 C   0  0  0  0  0  0  0  0  0  0  0  0
   -4.8289   14.7502  -22.2271 C   0  0  0  0  0  0  0  0  0  0  0  0
   -1.1464   14.0958  -22.9509 C   0  0  0  0  0  0  0  0  0  0  0  0
   -2.3419   15.5592  -21.2764 C   0  0  0  0  0  0  0  0  0  0  0  0
   -3.6668   14.2446  -22.7928 C   0  0  0  0  0  0  0  0  0  0  0  0
    1.3075   13.7964  -23.0714 C   0  0  0  0  0  0  0  0  0  0  0  0
   -4.7359   15.6588  -21.1760 C   0  0  0  0  0  0  0  0  0  0  0  0
   -2.4243   14.6521  -22.3210 C   0  0  0  0  0  0  0  0  0  0  0  0
    2.4660   14.3866  -21.6065 H   0  0  0  0  0  0  0  0  0  0  0  0
   -7.8362   16.1492  -20.4255 H   0  0  0  0  0  0  0  0  0  0  0  0
   -7.2506   15.8146  -21.9127 H   0  0  0  0  0  0  0  0  0  0  0  0
   -7.1381   14.7030  -20.7217 H   0  0  0  0  0  0  0  0  0  0  0  0
    0.1083   14.9544  -21.6258 H   0  0  0  0  0  0  0  0  0  0  0  0
   -3.4361   16.7181  -19.9580 H   0  0  0  0  0  0  0  0  0  0  0  0
   -5.7237   14.4650  -22.5708 H   0  0  0  0  0  0  0  0  0  0  0  0
   -1.2086   13.5170  -23.7639 H   0  0  0  0  0  0  0  0  0  0  0  0
   -1.4483   15.8495  -20.9342 H   0  0  0  0  0  0  0  0  0  0  0  0
   -3.7235   13.5850  -23.5423 H   0  0  0  0  0  0  0  0  0  0  0  0
  1 11  1  0  0  0  0
  2 11  2  0  0  0  0
  3  4  1  0  0  0  0
  3 12  1  0  0  0  0
  5  8  2  0  0  0  0
  5 11  1  0  0  0  0
  6  9  1  0  0  0  0
  6 12  2  0  0  0  0
  7 10  2  0  0  0  0
  7 12  1  0  0  0  0
  8 13  1  0  0  0  0
  9 13  2  0  0  0  0
 10 13  1  0  0  0  0
  1 14  1  0  0  0  0
  4 15  1  0  0  0  0
  4 16  1  0  0  0  0
  4 17  1  0  0  0  0
  5 18  1  0  0  0  0
  6 19  1  0  0  0  0
  7 20  1  0  0  0  0
  8 21  1  0  0  0  0
  9 22  1  0  0  0  0
 10 23  1  0  0  0  0
M  END
> <pdb_id>
6UNN

> <uniprot_id>
Q2IU02

> <usmiles>
O=C(O)/C=C/c1ccc(OC)cc1

$$$$
K40_B_803
          07192416573D 1   1.00000     0.00000     0
            
 24 26  0  0  0  0            999 V2000
   20.6898   -4.6884   21.7064 Cl  0  0  0  0  0  0  0  0  0  0  0  0
   15.4374   -1.3094   21.2792 Cl  0  0  0  0  0  0  0  0  0  0  0  0
   19.7375   -3.5740   16.2897 O   0  0  0  0  0  0  0  0  0  0  0  0
   17.7119   -2.5345   16.1196 N   0  0  0  0  0  0  0  0  0  0  0  0
   19.4236   -3.6616   19.2430 N   0  0  0  0  0  0  0  0  0  0  0  0
   16.4897   -1.9563   16.6696 C   0  0  0  0  0  0  0  0  0  0  0  0
   18.4993   -3.3832   22.8572 C   0  0  0  0  0  0  0  0  0  0  0  0
   17.3200   -2.6245   22.7306 C   0  0  0  0  0  0  0  0  0  0  0  0
   16.4418   -1.6956   18.1785 C   0  0  0  0  0  0  0  0  0  0  0  0
   19.2320   -3.7547   21.7182 C   0  0  0  0  0  0  0  0  0  0  0  0
   16.8987   -2.2602   21.4604 C   0  0  0  0  0  0  0  0  0  0  0  0
   18.7475   -3.0790   16.8327 C   0  0  0  0  0  0  0  0  0  0  0  0
   18.8423   -3.3994   20.4535 C   0  0  0  0  0  0  0  0  0  0  0  0
   18.6043   -3.0768   18.2958 C   0  0  0  0  0  0  0  0  0  0  0  0
   17.5287   -2.4480   18.9068 C   0  0  0  0  0  0  0  0  0  0  0  0
   17.6593   -2.6450   20.2962 C   0  0  0  0  0  0  0  0  0  0  0  0
   17.8023   -2.5330   15.1238 H   0  0  0  0  0  0  0  0  0  0  0  0
   20.2678   -4.1716   19.0775 H   0  0  0  0  0  0  0  0  0  0  0  0
   15.7393   -2.5798   16.4503 H   0  0  0  0  0  0  0  0  0  0  0  0
   16.3405   -1.0806   16.2103 H   0  0  0  0  0  0  0  0  0  0  0  0
   18.8173   -3.6594   23.7642 H   0  0  0  0  0  0  0  0  0  0  0  0
   16.7974   -2.3541   23.5391 H   0  0  0  0  0  0  0  0  0  0  0  0
   15.5527   -1.9882   18.5304 H   0  0  0  0  0  0  0  0  0  0  0  0
   16.5593   -0.7161   18.3425 H   0  0  0  0  0  0  0  0  0  0  0  0
  1 10  1  0  0  0  0
  2 11  1  0  0  0  0
  3 12  2  0  0  0  0
  4  6  1  0  0  0  0
  4 12  1  0  0  0  0
  5 13  1  0  0  0  0
  5 14  1  0  0  0  0
  6  9  1  0  0  0  0
  7  8  2  0  0  0  0
  7 10  1  0  0  0  0
  8 11  1  0  0  0  0
  9 15  1  0  0  0  0
 10 13  2  0  0  0  0
 11 16  2  0  0  0  0
 12 14  1  0  0  0  0
 13 16  1  0  0  0  0
 14 15  2  0  0  0  0
 15 16  1  0  0  0  0
  4 17  1  0  0  0  0
  5 18  1  0  0  0  0
  6 19  1  0  0  0  0
  6 20  1  0  0  0  0
  7 21  1  0  0  0  0
  8 22  1  0  0  0  0
  9 23  1  0  0  0  0
  9 24  1  0  0  0  0
M  END
> <pdb_id>
5SJK

> <uniprot_id>
Q9Y233

> <usmiles>
Clc1c2NC=3C(=O)NCCC3c2c(Cl)cc1

$$$$
K40_C_803
          07192416573D 1   1.00000     0.00000     0
            
 22 24  0  0  0  0            999 V2000
   20.8369   -4.7757   21.7816 Cl  0  0  0  0  0  0  0  0  0  0  0  0
   15.5665   -1.4960   21.0910 Cl  0  0  0  0  0  0  0  0  0  0  0  0
   19.8778   -3.6864   16.1379 O   0  0  0  0  0  0  0  0  0  0  0  0
   17.9187   -2.4661   15.9582 N   0  0  0  0  0  0  0  0  0  0  0  0
   19.5670   -3.7321   19.0453 N   0  0  0  0  0  0  0  0  0  0  0  0
   16.7281   -1.7962   16.4782 C   0  0  0  0  0  0  0  0  0  0  0  0
   18.6279   -3.5042   22.6842 C   0  0  0  0  0  0  0  0  0  0  0  0
   17.4654   -2.7634   22.5204 C   0  0  0  0  0  0  0  0  0  0  0  0
   16.5506   -1.7898   18.0048 C   0  0  0  0  0  0  0  0  0  0  0  0
   19.3853   -3.8665   21.5761 C   0  0  0  0  0  0  0  0  0  0  0  0
   17.0533   -2.4004   21.2599 C   0  0  0  0  0  0  0  0  0  0  0  0
   18.9071   -3.1126   16.6659 C   0  0  0  0  0  0  0  0  0  0  0  0
   19.0087   -3.5069   20.2890 C   0  0  0  0  0  0  0  0  0  0  0  0
   18.7457   -3.1324   18.1074 C   0  0  0  0  0  0  0  0  0  0  0  0
   17.6595   -2.5402   18.7201 C   0  0  0  0  0  0  0  0  0  0  0  0
   17.8074   -2.7648   20.1144 C   0  0  0  0  0  0  0  0  0  0  0  0
   18.0291   -2.4533   14.9644 H   0  0  0  0  0  0  0  0  0  0  0  0
   20.4100   -4.2361   18.8576 H   0  0  0  0  0  0  0  0  0  0  0  0
   16.0619   -1.3635   15.8706 H   0  0  0  0  0  0  0  0  0  0  0  0
   18.9209   -3.7775   23.6004 H   0  0  0  0  0  0  0  0  0  0  0  0
   16.9277   -2.4936   23.3192 H   0  0  0  0  0  0  0  0  0  0  0  0
   15.7900   -1.3416   18.4743 H   0  0  0  0  0  0  0  0  0  0  0  0
  1 10  1  0  0  0  0
  2 11  1  0  0  0  0
  3 12  2  0  0  0  0
  4  6  1  0  0  0  0
  4 12  1  0  0  0  0
  5 13  1  0  0  0  0
  5 14  1  0  0  0  0
  6  9  2  0  0  0  0
  7  8  2  0  0  0  0
  7 10  1  0  0  0  0
  8 11  1  0  0  0  0
  9 15  1  0  0  0  0
 10 13  2  0  0  0  0
 11 16  2  0  0  0  0
 12 14  1  0  0  0  0
 13 16  1  0  0  0  0
 14 15  2  0  0  0  0
 15 16  1  0  0  0  0
  4 17  1  0  0  0  0
  5 18  1  0  0  0  0
  6 19  1  0  0  0  0
  7 20  1  0  0  0  0
  8 21  1  0  0  0  0
  9 22  1  0  0  0  0
M  END
> <pdb_id>
5SJK

> <uniprot_id>
Q9Y233

> <usmiles>
Clc1c2NC=3C(=O)NC=CC3c2c(Cl)cc1

$$$$
K4E_A_1402
          07192423423D 1   1.00000     0.00000     0
            
 55 58  0  0  0  0            999 V2000
    8.0330  -11.9959    9.1774 Cl  0  0  0  0  0  0  0  0  0  0  0  0
    4.0241   -1.7412    9.1551 O   0  0  0  0  0  0  0  0  0  0  0  0
    3.3175   -8.0305   11.8167 O   0  0  0  0  0  0  0  0  0  0  0  0
    2.9947  -10.1609    6.5617 O   0  0  0  0  0  0  0  0  0  0  0  0
    2.9506  -10.5394    9.3170 N   0  0  0  0  0  0  0  0  0  0  0  0
    3.6407   -8.0325    9.6350 N   0  0  0  0  0  0  0  0  0  0  0  0
    4.9370   -0.6756    7.4852 N   0  0  0  0  0  0  0  0  0  0  0  0
    4.8709   -2.9039    7.4138 N   0  0  0  0  0  0  0  0  0  0  0  0
    3.0627   -8.8672    5.8951 C   0  0  0  0  0  0  0  0  0  0  0  0
    2.9704  -10.0576   10.6979 C   0  0  0  0  0  0  0  0  0  0  0  0
    6.4722   -1.0071    4.0962 C   0  0  0  0  0  0  0  0  0  0  0  0
    6.4656   -2.4540    4.0283 C   0  0  0  0  0  0  0  0  0  0  0  0
    6.5477  -11.2422    7.1291 C   0  0  0  0  0  0  0  0  0  0  0  0
    5.9753   -0.2738    5.2410 C   0  0  0  0  0  0  0  0  0  0  0  0
    5.3904  -10.8170    6.3973 C   0  0  0  0  0  0  0  0  0  0  0  0
    5.2955   -6.2879    9.1513 C   0  0  0  0  0  0  0  0  0  0  0  0
    2.8254   -6.0535    8.4223 C   0  0  0  0  0  0  0  0  0  0  0  0
    5.9466   -3.2321    5.1316 C   0  0  0  0  0  0  0  0  0  0  0  0
    5.5595   -4.8354    8.7833 C   0  0  0  0  0  0  0  0  0  0  0  0
    3.1325   -4.5982    7.9439 C   0  0  0  0  0  0  0  0  0  0  0  0
    5.2954  -11.2378    9.3534 C   0  0  0  0  0  0  0  0  0  0  0  0
    4.5703   -1.7881    8.1036 C   0  0  0  0  0  0  0  0  0  0  0  0
    3.3293   -8.6112   10.7651 C   0  0  0  0  0  0  0  0  0  0  0  0
    6.4773  -11.4416    8.5490 C   0  0  0  0  0  0  0  0  0  0  0  0
    4.1870  -10.6030    7.1834 C   0  0  0  0  0  0  0  0  0  0  0  0
    3.8071   -6.5912    9.5284 C   0  0  0  0  0  0  0  0  0  0  0  0
    4.1313  -10.8064    8.6378 C   0  0  0  0  0  0  0  0  0  0  0  0
    5.4719   -1.0748    6.3092 C   0  0  0  0  0  0  0  0  0  0  0  0
    4.6401   -4.3522    7.6826 C   0  0  0  0  0  0  0  0  0  0  0  0
    5.4555   -2.4897    6.2585 C   0  0  0  0  0  0  0  0  0  0  0  0
    2.0743  -10.6784    8.8558 H   0  0  0  0  0  0  0  0  0  0  0  0
    3.7682   -8.5973    8.8196 H   0  0  0  0  0  0  0  0  0  0  0  0
    4.8390    0.2623    7.8180 H   0  0  0  0  0  0  0  0  0  0  0  0
    2.1728   -8.6525    5.4925 H   0  0  0  0  0  0  0  0  0  0  0  0
    3.3063   -8.1617    6.5607 H   0  0  0  0  0  0  0  0  0  0  0  0
    3.7555   -8.8994    5.1747 H   0  0  0  0  0  0  0  0  0  0  0  0
    3.6438  -10.5842   11.2166 H   0  0  0  0  0  0  0  0  0  0  0  0
    2.0642  -10.1869   11.1006 H   0  0  0  0  0  0  0  0  0  0  0  0
    6.8354   -0.4931    3.3192 H   0  0  0  0  0  0  0  0  0  0  0  0
    6.8210   -2.9165    3.2161 H   0  0  0  0  0  0  0  0  0  0  0  0
    7.4095  -11.4010    6.6473 H   0  0  0  0  0  0  0  0  0  0  0  0
    5.9841    0.7254    5.2805 H   0  0  0  0  0  0  0  0  0  0  0  0
    5.4100  -10.6764    5.4075 H   0  0  0  0  0  0  0  0  0  0  0  0
    5.8720   -6.5234    9.9337 H   0  0  0  0  0  0  0  0  0  0  0  0
    5.5444   -6.8600    8.3698 H   0  0  0  0  0  0  0  0  0  0  0  0
    2.8818   -6.6620    7.6307 H   0  0  0  0  0  0  0  0  0  0  0  0
    1.8964   -6.0725    8.7917 H   0  0  0  0  0  0  0  0  0  0  0  0
    5.9306   -4.2318    5.1109 H   0  0  0  0  0  0  0  0  0  0  0  0
    6.5065   -4.7477    8.4744 H   0  0  0  0  0  0  0  0  0  0  0  0
    5.4192   -4.2666    9.5938 H   0  0  0  0  0  0  0  0  0  0  0  0
    2.8226   -3.9593    8.6481 H   0  0  0  0  0  0  0  0  0  0  0  0
    2.6302   -4.4289    7.0959 H   0  0  0  0  0  0  0  0  0  0  0  0
    5.2897  -11.3874   10.3421 H   0  0  0  0  0  0  0  0  0  0  0  0
    3.5899   -6.1632   10.4057 H   0  0  0  0  0  0  0  0  0  0  0  0
    4.8834   -4.8516    6.8511 H   0  0  0  0  0  0  0  0  0  0  0  0
  1 24  1  0  0  0  0
  2 22  2  0  0  0  0
  3 23  2  0  0  0  0
  4  9  1  0  0  0  0
  4 25  1  0  0  0  0
  5 10  1  0  0  0  0
  5 27  1  0  0  0  0
  6 23  1  0  0  0  0
  6 26  1  0  0  0  0
  7 22  1  0  0  0  0
  7 28  1  0  0  0  0
  8 22  1  0  0  0  0
  8 29  1  0  0  0  0
  8 30  1  0  0  0  0
 10 23  1  0  0  0  0
 11 12  2  0  0  0  0
 11 14  1  0  0  0  0
 12 18  1  0  0  0  0
 13 15  1  0  0  0  0
 13 24  2  0  0  0  0
 14 28  2  0  0  0  0
 15 25  2  0  0  0  0
 16 19  1  0  0  0  0
 16 26  1  0  0  0  0
 17 20  1  0  0  0  0
 17 26  1  0  0  0  0
 18 30  2  0  0  0  0
 19 29  1  0  0  0  0
 20 29  1  0  0  0  0
 21 24  1  0  0  0  0
 21 27  2  0  0  0  0
 25 27  1  0  0  0  0
 28 30  1  0  0  0  0
  5 31  1  0  0  0  0
  6 32  1  0  0  0  0
  7 33  1  0  0  0  0
  9 34  1  0  0  0  0
  9 35  1  0  0  0  0
  9 36  1  0  0  0  0
 10 37  1  0  0  0  0
 10 38  1  0  0  0  0
 11 39  1  0  0  0  0
 12 40  1  0  0  0  0
 13 41  1  0  0  0  0
 14 42  1  0  0  0  0
 15 43  1  0  0  0  0
 16 44  1  0  0  0  0
 16 45  1  0  0  0  0
 17 46  1  0  0  0  0
 17 47  1  0  0  0  0
 18 48  1  0  0  0  0
 19 49  1  0  0  0  0
 19 50  1  0  0  0  0
 20 51  1  0  0  0  0
 20 52  1  0  0  0  0
 21 53  1  0  0  0  0
 26 54  1  0  0  0  0
 29 55  1  0  0  0  0
M  END
> <pdb_id>
4K4E

> <uniprot_id>
O95271

> <usmiles>
Clc1cc(NCC(=O)NC2CCC(N3c4c(NC3=O)cccc4)CC2)c(OC)cc1

$$$$
K4K_A_502
          07202416163D 1   1.00000     0.00000     0
            
 41 43  0  0  0  0            999 V2000
   19.6325   33.4616   15.1504 S   0  0  0  0  0  0  0  0  0  0  0  0
   21.6073   27.8689   15.1850 O   0  0  0  0  0  0  0  0  0  0  0  0
   17.8945   27.8505   16.5360 O   0  0  0  0  0  0  0  0  0  0  0  0
   20.1560   26.0609   16.5596 O   0  0  0  0  0  0  0  0  0  0  0  0
   20.8642   29.6643   16.2420 N   0  0  0  0  0  0  0  0  0  0  0  0
   18.7002   28.2630   18.6133 N   0  0  0  0  0  0  0  0  0  0  0  0
   17.9859   33.4478   15.7476 C   0  0  0  0  0  0  0  0  0  0  0  0
   21.5792   30.5577   15.3250 C   0  0  0  0  0  0  0  0  0  0  0  0
   19.9670   28.1427   19.3327 C   0  0  0  0  0  0  0  0  0  0  0  0
   17.4803   32.2231   15.6423 C   0  0  0  0  0  0  0  0  0  0  0  0
   15.2278   29.5371   20.4795 C   0  0  0  0  0  0  0  0  0  0  0  0
   15.2512   28.3198   19.8289 C   0  0  0  0  0  0  0  0  0  0  0  0
   16.3513   30.3368   20.5099 C   0  0  0  0  0  0  0  0  0  0  0  0
   20.6543   30.9510   14.1780 C   0  0  0  0  0  0  0  0  0  0  0  0
   18.3358   31.2898   15.1027 C   0  0  0  0  0  0  0  0  0  0  0  0
   16.4060   27.8981   19.2068 C   0  0  0  0  0  0  0  0  0  0  0  0
   17.5081   29.9220   19.8930 C   0  0  0  0  0  0  0  0  0  0  0  0
   20.9335   27.3850   18.4051 C   0  0  0  0  0  0  0  0  0  0  0  0
   19.5366   31.7579   14.7715 C   0  0  0  0  0  0  0  0  0  0  0  0
   20.9387   28.3285   16.0858 C   0  0  0  0  0  0  0  0  0  0  0  0
   18.8010   27.8579   17.3380 C   0  0  0  0  0  0  0  0  0  0  0  0
   17.5316   28.7098   19.2274 C   0  0  0  0  0  0  0  0  0  0  0  0
   20.2111   27.4027   17.0403 C   0  0  1  0  0  0  0  0  0  0  0  0
   19.6917   26.0428   15.6741 H   0  0  0  0  0  0  0  0  0  0  0  0
   20.3188   30.0485   16.9868 H   0  0  0  0  0  0  0  0  0  0  0  0
   17.4996   34.2416   16.1127 H   0  0  0  0  0  0  0  0  0  0  0  0
   22.3826   30.0876   14.9596 H   0  0  0  0  0  0  0  0  0  0  0  0
   21.8686   31.3789   15.8169 H   0  0  0  0  0  0  0  0  0  0  0  0
   19.8336   27.6321   20.1822 H   0  0  0  0  0  0  0  0  0  0  0  0
   20.3313   29.0499   19.5428 H   0  0  0  0  0  0  0  0  0  0  0  0
   16.5504   31.9973   15.9327 H   0  0  0  0  0  0  0  0  0  0  0  0
   14.3898   29.8416   20.9322 H   0  0  0  0  0  0  0  0  0  0  0  0
   14.4325   27.7459   19.8091 H   0  0  0  0  0  0  0  0  0  0  0  0
   16.3245   31.2185   20.9809 H   0  0  0  0  0  0  0  0  0  0  0  0
   20.2890   30.1321   13.7353 H   0  0  0  0  0  0  0  0  0  0  0  0
   21.1538   31.4983   13.5064 H   0  0  0  0  0  0  0  0  0  0  0  0
   18.0751   30.3336   14.9697 H   0  0  0  0  0  0  0  0  0  0  0  0
   16.4329   27.0125   18.7432 H   0  0  0  0  0  0  0  0  0  0  0  0
   18.3279   30.4937   19.9253 H   0  0  0  0  0  0  0  0  0  0  0  0
   21.0733   26.4474   18.7234 H   0  0  0  0  0  0  0  0  0  0  0  0
   21.8155   27.8529   18.3488 H   0  0  0  0  0  0  0  0  0  0  0  0
  1  7  1  0  0  0  0
  1 19  1  0  0  0  0
  2 20  2  0  0  0  0
  3 21  2  0  0  0  0
  4 23  1  0  0  0  0
  5  8  1  0  0  0  0
  5 20  1  0  0  0  0
  6  9  1  0  0  0  0
  6 21  1  0  0  0  0
  6 22  1  0  0  0  0
  7 10  2  0  0  0  0
  8 14  1  0  0  0  0
  9 18  1  0  0  0  0
 10 15  1  0  0  0  0
 11 12  2  0  0  0  0
 11 13  1  0  0  0  0
 12 16  1  0  0  0  0
 13 17  2  0  0  0  0
 14 19  1  0  0  0  0
 15 19  2  0  0  0  0
 16 22  2  0  0  0  0
 17 22  1  0  0  0  0
 18 23  1  0  0  0  0
 20 23  1  0  0  0  0
 21 23  1  0  0  0  0
  4 24  1  0  0  0  0
  5 25  1  0  0  0  0
  7 26  1  0  0  0  0
  8 27  1  0  0  0  0
  8 28  1  0  0  0  0
  9 29  1  0  0  0  0
  9 30  1  0  0  0  0
 10 31  1  0  0  0  0
 11 32  1  0  0  0  0
 12 33  1  0  0  0  0
 13 34  1  0  0  0  0
 14 35  1  0  0  0  0
 14 36  1  0  0  0  0
 15 37  1  0  0  0  0
 16 38  1  0  0  0  0
 17 39  1  0  0  0  0
 18 40  1  0  0  0  0
 18 41  1  0  0  0  0
M  END
> <pdb_id>
6QEG

> <uniprot_id>
P50579

> <usmiles>
S1C(=CC=C1)CCNC(=O)[C@]2(O)C(=O)N(c3ccccc3)CC2

$$$$
K4N_A_308
          07192416293D 1   1.00000     0.00000     0
            
 18 18  0  0  0  0            999 V2000
   -5.9922    0.9123   16.9651 S   0  0  0  0  0  0  0  0  0  0  0  0
   -5.4402    0.9664   18.2840 O   0  0  0  0  0  0  0  0  0  0  0  0
   -7.4301    0.9149   16.8450 O   0  0  0  0  0  0  0  0  0  0  0  0
   -4.2323    5.8098   14.1832 O   0  0  0  0  0  0  0  0  0  0  0  0
   -5.3842   -0.3642   16.1833 N   0  0  0  0  0  0  0  0  0  0  0  0
   -4.1149    2.5080   15.7624 C   0  0  0  0  0  0  0  0  0  0  0  0
   -6.3549    3.3760   15.8344 C   0  0  0  0  0  0  0  0  0  0  0  0
   -3.6997    3.6561   15.1158 C   0  0  0  0  0  0  0  0  0  0  0  0
   -5.9407    4.5201   15.1897 C   0  0  0  0  0  0  0  0  0  0  0  0
   -5.4460    2.3554   16.1171 C   0  0  0  0  0  0  0  0  0  0  0  0
   -4.6145    4.6707   14.8300 C   0  0  0  0  0  0  0  0  0  0  0  0
   -4.9047    6.5240   13.9887 H   0  0  0  0  0  0  0  0  0  0  0  0
   -5.7685   -0.4042   15.2610 H   0  0  0  0  0  0  0  0  0  0  0  0
   -4.3896   -0.2776   16.1265 H   0  0  0  0  0  0  0  0  0  0  0  0
   -3.4552    1.7871   15.9745 H   0  0  0  0  0  0  0  0  0  0  0  0
   -7.3133    3.2757   16.1017 H   0  0  0  0  0  0  0  0  0  0  0  0
   -2.7408    3.7605   14.8518 H   0  0  0  0  0  0  0  0  0  0  0  0
   -6.5998    5.2427   14.9816 H   0  0  0  0  0  0  0  0  0  0  0  0
  1  2  2  0  0  0  0
  1  3  2  0  0  0  0
  1  5  1  0  0  0  0
  1 10  1  0  0  0  0
  4 11  1  0  0  0  0
  6  8  1  0  0  0  0
  6 10  2  0  0  0  0
  7  9  2  0  0  0  0
  7 10  1  0  0  0  0
  8 11  2  0  0  0  0
  9 11  1  0  0  0  0
  4 12  1  0  0  0  0
  5 13  1  0  0  0  0
  5 14  1  0  0  0  0
  6 15  1  0  0  0  0
  7 16  1  0  0  0  0
  8 17  1  0  0  0  0
  9 18  1  0  0  0  0
M  END
> <pdb_id>
6RIG

> <uniprot_id>
P00918

> <usmiles>
S(=O)(=O)(N)c1ccc(O)cc1

$$$$
K4T_B_402
          07212403473D 1   1.00000     0.00000     0
            
 33 35  0  0  0  0            999 V2000
   21.9113  -11.4996    1.2133 O   0  0  0  0  0  0  0  0  0  0  0  0
   19.4215  -13.3534    4.0528 N   0  0  0  0  0  0  0  0  0  0  0  0
   22.7899  -10.4884    3.0108 N   0  0  0  0  0  0  0  0  0  0  0  0
   20.3196  -13.1604    3.1527 N   0  0  0  0  0  0  0  0  0  0  0  0
   20.7484  -14.1683    2.1792 C   0  0  0  0  0  0  0  0  0  0  0  0
   16.6504  -11.9351    8.1536 C   0  0  0  0  0  0  0  0  0  0  0  0
   16.3865  -12.8751    7.1647 C   0  0  0  0  0  0  0  0  0  0  0  0
   17.7692  -11.1184    8.0577 C   0  0  0  0  0  0  0  0  0  0  0  0
   25.0712   -9.3285    3.0743 C   0  0  0  0  0  0  0  0  0  0  0  0
   24.0905   -8.3454    2.4352 C   0  0  0  0  0  0  0  0  0  0  0  0
   17.2391  -12.9988    6.0806 C   0  0  0  0  0  0  0  0  0  0  0  0
   18.6363  -11.2421    6.9886 C   0  0  0  0  0  0  0  0  0  0  0  0
   20.1671  -11.3080    4.3307 C   0  0  0  0  0  0  0  0  0  0  0  0
   21.8617  -11.2741    2.4147 C   0  0  0  0  0  0  0  0  0  0  0  0
   23.8821   -9.8512    2.2635 C   0  0  0  0  0  0  0  0  0  0  0  0
   19.2747  -12.2893    4.8088 C   0  0  0  0  0  0  0  0  0  0  0  0
   20.8140  -11.8881    3.2512 C   0  0  0  0  0  0  0  0  0  0  0  0
   18.3609  -12.1669    5.9747 C   0  0  0  0  0  0  0  0  0  0  0  0
   22.7293  -10.3364    3.9974 H   0  0  0  0  0  0  0  0  0  0  0  0
   21.4551  -13.7807    1.5874 H   0  0  0  0  0  0  0  0  0  0  0  0
   21.1169  -14.9627    2.6622 H   0  0  0  0  0  0  0  0  0  0  0  0
   19.9658  -14.4495    1.6238 H   0  0  0  0  0  0  0  0  0  0  0  0
   16.0335  -11.8467    8.9357 H   0  0  0  0  0  0  0  0  0  0  0  0
   15.5804  -13.4625    7.2361 H   0  0  0  0  0  0  0  0  0  0  0  0
   17.9487  -10.4365    8.7667 H   0  0  0  0  0  0  0  0  0  0  0  0
   25.0882   -9.4432    4.0676 H   0  0  0  0  0  0  0  0  0  0  0  0
   25.9996   -9.4149    2.7128 H   0  0  0  0  0  0  0  0  0  0  0  0
   24.3777   -7.7885    1.6558 H   0  0  0  0  0  0  0  0  0  0  0  0
   23.4663   -7.8169    3.0106 H   0  0  0  0  0  0  0  0  0  0  0  0
   17.0540  -13.6817    5.3738 H   0  0  0  0  0  0  0  0  0  0  0  0
   19.4571  -10.6730    6.9396 H   0  0  0  0  0  0  0  0  0  0  0  0
   20.3045  -10.3866    4.6942 H   0  0  0  0  0  0  0  0  0  0  0  0
   24.0882  -10.2312    1.3617 H   0  0  0  0  0  0  0  0  0  0  0  0
  1 14  2  0  0  0  0
  2  4  1  0  0  0  0
  2 16  2  0  0  0  0
  3 14  1  0  0  0  0
  3 15  1  0  0  0  0
  4  5  1  0  0  0  0
  4 17  1  0  0  0  0
  6  7  2  0  0  0  0
  6  8  1  0  0  0  0
  7 11  1  0  0  0  0
  8 12  2  0  0  0  0
  9 10  1  0  0  0  0
  9 15  1  0  0  0  0
 10 15  1  0  0  0  0
 11 18  2  0  0  0  0
 12 18  1  0  0  0  0
 13 16  1  0  0  0  0
 13 17  2  0  0  0  0
 14 17  1  0  0  0  0
 16 18  1  0  0  0  0
  3 19  1  0  0  0  0
  5 20  1  0  0  0  0
  5 21  1  0  0  0  0
  5 22  1  0  0  0  0
  6 23  1  0  0  0  0
  7 24  1  0  0  0  0
  8 25  1  0  0  0  0
  9 26  1  0  0  0  0
  9 27  1  0  0  0  0
 10 28  1  0  0  0  0
 10 29  1  0  0  0  0
 11 30  1  0  0  0  0
 12 31  1  0  0  0  0
 13 32  1  0  0  0  0
 15 33  1  0  0  0  0
M  END
> <pdb_id>
6RIH

> <uniprot_id>
O43175

> <usmiles>
O=C(NC1CC1)C=2N(N=C(c3ccccc3)C2)C

$$$$
K52_A_402
          07212403473D 1   1.00000     0.00000     0
            
 52 54  0  0  0  0            999 V2000
   20.5130   -4.8650   -0.0360 S   0  0  0  0  0  0  0  0  0  0  0  0
   19.7080   -5.4300   -1.0620 O   0  0  0  0  0  0  0  0  0  0  0  0
   19.9740   -4.1980    1.1090 O   0  0  0  0  0  0  0  0  0  0  0  0
   22.5120   -3.1350    1.1330 O   0  0  0  0  0  0  0  0  0  0  0  0
   22.3240  -11.0650    1.0690 O   0  0  0  0  0  0  0  0  0  0  0  0
   21.5570   -3.8200   -0.7790 N   0  0  0  0  0  0  0  0  0  0  0  0
   19.6380  -13.1770    3.4720 N   0  0  0  0  0  0  0  0  0  0  0  0
   22.9990  -10.1090    2.9760 N   0  0  0  0  0  0  0  0  0  0  0  0
   20.5660  -12.8850    2.6340 N   0  0  0  0  0  0  0  0  0  0  0  0
   20.9260  -13.7040    1.4690 C   0  0  0  0  0  0  0  0  0  0  0  0
   23.3770   -2.1690   -0.8530 C   0  0  0  0  0  0  0  0  0  0  0  0
   25.0070   -8.6900    3.2310 C   0  0  0  0  0  0  0  0  0  0  0  0
   16.8040  -12.2750    7.6880 C   0  0  0  0  0  0  0  0  0  0  0  0
   16.7450  -13.2760    6.7300 C   0  0  0  0  0  0  0  0  0  0  0  0
   17.7480  -11.2600    7.5750 C   0  0  0  0  0  0  0  0  0  0  0  0
   21.2720   -6.6320    1.8930 C   0  0  0  0  0  0  0  0  0  0  0  0
   22.5900   -6.6570   -0.1170 C   0  0  0  0  0  0  0  0  0  0  0  0
   17.6170  -13.2760    5.6510 C   0  0  0  0  0  0  0  0  0  0  0  0
   18.6300  -11.2570    6.5070 C   0  0  0  0  0  0  0  0  0  0  0  0
   22.0700   -7.6280    2.4210 C   0  0  0  0  0  0  0  0  0  0  0  0
   23.3900   -7.6630    0.4120 C   0  0  0  0  0  0  0  0  0  0  0  0
   20.4630  -11.2440    4.1080 C   0  0  0  0  0  0  0  0  0  0  0  0
   22.4520   -3.0820   -0.0860 C   0  0  0  0  0  0  0  0  0  0  0  0
   22.2020  -10.9520    2.2830 C   0  0  0  0  0  0  0  0  0  0  0  0
   21.5230   -6.1540    0.6180 C   0  0  0  0  0  0  0  0  0  0  0  0
   23.9670   -9.2630    2.2690 C   0  0  2  0  0  0  0  0  0  0  0  0
   19.5040  -12.2370    4.3830 C   0  0  0  0  0  0  0  0  0  0  0  0
   21.1530  -11.7010    2.9970 C   0  0  0  0  0  0  0  0  0  0  0  0
   23.1450   -8.1340    1.6950 C   0  0  0  0  0  0  0  0  0  0  0  0
   18.5540  -12.2480    5.5230 C   0  0  0  0  0  0  0  0  0  0  0  0
   21.5250   -3.7312   -1.7745 H   0  0  0  0  0  0  0  0  0  0  0  0
   22.9289  -10.0617    3.9724 H   0  0  0  0  0  0  0  0  0  0  0  0
   21.6761  -13.2666    0.9730 H   0  0  0  0  0  0  0  0  0  0  0  0
   21.2134  -14.6115    1.7755 H   0  0  0  0  0  0  0  0  0  0  0  0
   20.1336  -13.7915    0.8654 H   0  0  0  0  0  0  0  0  0  0  0  0
   23.1911   -2.2522   -1.8320 H   0  0  0  0  0  0  0  0  0  0  0  0
   23.2268   -1.2234   -0.5644 H   0  0  0  0  0  0  0  0  0  0  0  0
   24.3260   -2.4264   -0.6708 H   0  0  0  0  0  0  0  0  0  0  0  0
   25.6520   -8.1191    2.7231 H   0  0  0  0  0  0  0  0  0  0  0  0
   24.5486   -8.1370    3.9267 H   0  0  0  0  0  0  0  0  0  0  0  0
   25.5009   -9.4390    3.6727 H   0  0  0  0  0  0  0  0  0  0  0  0
   16.1681  -12.2830    8.4597 H   0  0  0  0  0  0  0  0  0  0  0  0
   16.0667  -14.0055    6.8179 H   0  0  0  0  0  0  0  0  0  0  0  0
   17.7899  -10.5349    8.2624 H   0  0  0  0  0  0  0  0  0  0  0  0
   20.5158   -6.2575    2.4295 H   0  0  0  0  0  0  0  0  0  0  0  0
   22.7826   -6.2942   -1.0287 H   0  0  0  0  0  0  0  0  0  0  0  0
   17.5750  -14.0068    4.9697 H   0  0  0  0  0  0  0  0  0  0  0  0
   19.3255  -10.5417    6.4391 H   0  0  0  0  0  0  0  0  0  0  0  0
   21.8740   -7.9889    3.3328 H   0  0  0  0  0  0  0  0  0  0  0  0
   24.1388   -8.0459   -0.1291 H   0  0  0  0  0  0  0  0  0  0  0  0
   20.6140  -10.3911    4.6077 H   0  0  0  0  0  0  0  0  0  0  0  0
   24.4133   -9.7782    1.5373 H   0  0  0  0  0  0  0  0  0  0  0  0
  1  2  2  0  0  0  0
  1  3  2  0  0  0  0
  1  6  1  0  0  0  0
  1 25  1  0  0  0  0
  4 23  2  0  0  0  0
  5 24  2  0  0  0  0
  6 23  1  0  0  0  0
  7  9  1  0  0  0  0
  7 27  2  0  0  0  0
  8 24  1  0  0  0  0
  8 26  1  0  0  0  0
  9 10  1  0  0  0  0
  9 28  1  0  0  0  0
 11 23  1  0  0  0  0
 12 26  1  0  0  0  0
 13 14  2  0  0  0  0
 13 15  1  0  0  0  0
 14 18  1  0  0  0  0
 15 19  2  0  0  0  0
 16 20  2  0  0  0  0
 16 25  1  0  0  0  0
 17 21  1  0  0  0  0
 17 25  2  0  0  0  0
 18 30  2  0  0  0  0
 19 30  1  0  0  0  0
 20 29  1  0  0  0  0
 21 29  2  0  0  0  0
 22 27  1  0  0  0  0
 22 28  2  0  0  0  0
 24 28  1  0  0  0  0
 26 29  1  0  0  0  0
 27 30  1  0  0  0  0
  6 31  1  0  0  0  0
  8 32  1  0  0  0  0
 10 33  1  0  0  0  0
 10 34  1  0  0  0  0
 10 35  1  0  0  0  0
 11 36  1  0  0  0  0
 11 37  1  0  0  0  0
 11 38  1  0  0  0  0
 12 39  1  0  0  0  0
 12 40  1  0  0  0  0
 12 41  1  0  0  0  0
 13 42  1  0  0  0  0
 14 43  1  0  0  0  0
 15 44  1  0  0  0  0
 16 45  1  0  0  0  0
 17 46  1  0  0  0  0
 18 47  1  0  0  0  0
 19 48  1  0  0  0  0
 20 49  1  0  0  0  0
 21 50  1  0  0  0  0
 22 51  1  0  0  0  0
 26 52  1  0  0  0  0
M  END
> <pdb_id>
6RJ2

> <uniprot_id>
O43175

> <usmiles>
S(=O)(=O)(NC(=O)C)c1ccc(cc1)[C@H](NC(=O)C=2N(N=C(c3ccccc3)C2)C)C

$$$$
K58_A_402
          07212403473D 1   1.00000     0.00000     0
            
 45 47  0  0  0  0            999 V2000
   20.4548   -4.2805   -0.6108 O   0  0  0  0  0  0  0  0  0  0  0  0
   20.9145   -5.5050   -2.4186 O   0  0  0  0  0  0  0  0  0  0  0  0
   21.5334  -11.2222    1.3280 O   0  0  0  0  0  0  0  0  0  0  0  0
   19.0023  -13.0157    4.1068 N   0  0  0  0  0  0  0  0  0  0  0  0
   22.3605  -10.0709    3.0748 N   0  0  0  0  0  0  0  0  0  0  0  0
   19.8438  -12.7676    3.1702 N   0  0  0  0  0  0  0  0  0  0  0  0
   20.1204  -13.6905    2.0668 C   0  0  0  0  0  0  0  0  0  0  0  0
   24.4195   -8.7761    3.1210 C   0  0  0  0  0  0  0  0  0  0  0  0
   16.6015  -12.0276    8.5178 C   0  0  0  0  0  0  0  0  0  0  0  0
   16.3908  -12.9757    7.5321 C   0  0  0  0  0  0  0  0  0  0  0  0
   17.5973  -11.0654    8.3553 C   0  0  0  0  0  0  0  0  0  0  0  0
   17.1610  -13.0107    6.3843 C   0  0  0  0  0  0  0  0  0  0  0  0
   18.3603  -11.0644    7.2033 C   0  0  0  0  0  0  0  0  0  0  0  0
   22.4004   -7.4099   -0.8737 C   0  0  0  0  0  0  0  0  0  0  0  0
   21.2458   -6.4513    1.0280 C   0  0  0  0  0  0  0  0  0  0  0  0
   22.9631   -8.3582   -0.0323 C   0  0  0  0  0  0  0  0  0  0  0  0
   21.8265   -7.3937    1.8573 C   0  0  0  0  0  0  0  0  0  0  0  0
   19.9680  -11.1018    4.6062 C   0  0  0  0  0  0  0  0  0  0  0  0
   20.9365   -5.3914   -1.2037 C   0  0  0  0  0  0  0  0  0  0  0  0
   21.4950  -10.9618    2.5340 C   0  0  0  0  0  0  0  0  0  0  0  0
   23.3515   -9.4087    2.2219 C   0  0  2  0  0  0  0  0  0  0  0  0
   18.9964  -12.0470    4.9904 C   0  0  0  0  0  0  0  0  0  0  0  0
   20.4730  -11.5740    3.3976 C   0  0  0  0  0  0  0  0  0  0  0  0
   21.5316   -6.4395   -0.3466 C   0  0  0  0  0  0  0  0  0  0  0  0
   22.6882   -8.3611    1.3332 C   0  0  0  0  0  0  0  0  0  0  0  0
   18.1627  -12.0356    6.2107 C   0  0  0  0  0  0  0  0  0  0  0  0
   20.4768   -4.1958    0.3853 H   0  0  0  0  0  0  0  0  0  0  0  0
   22.3234   -9.8657    4.0529 H   0  0  0  0  0  0  0  0  0  0  0  0
   20.8069  -13.2890    1.4605 H   0  0  0  0  0  0  0  0  0  0  0  0
   20.4643  -14.5550    2.4335 H   0  0  0  0  0  0  0  0  0  0  0  0
   19.2789  -13.8576    1.5530 H   0  0  0  0  0  0  0  0  0  0  0  0
   25.1047   -8.3192    2.5538 H   0  0  0  0  0  0  0  0  0  0  0  0
   23.9905   -8.1078    3.7287 H   0  0  0  0  0  0  0  0  0  0  0  0
   24.8602   -9.4886    3.6671 H   0  0  0  0  0  0  0  0  0  0  0  0
   16.0404  -12.0326    9.3455 H   0  0  0  0  0  0  0  0  0  0  0  0
   15.6640  -13.6518    7.6528 H   0  0  0  0  0  0  0  0  0  0  0  0
   17.7580  -10.3813    9.0668 H   0  0  0  0  0  0  0  0  0  0  0  0
   17.0098  -13.7149    5.6906 H   0  0  0  0  0  0  0  0  0  0  0  0
   19.0617  -10.3631    7.0757 H   0  0  0  0  0  0  0  0  0  0  0  0
   22.6120   -7.4168   -1.8510 H   0  0  0  0  0  0  0  0  0  0  0  0
   20.6178   -5.7735    1.4103 H   0  0  0  0  0  0  0  0  0  0  0  0
   23.5761   -9.0510   -0.4122 H   0  0  0  0  0  0  0  0  0  0  0  0
   21.6285   -7.3828    2.8374 H   0  0  0  0  0  0  0  0  0  0  0  0
   20.2366  -10.2720    5.0953 H   0  0  0  0  0  0  0  0  0  0  0  0
   23.7862  -10.0960    1.6401 H   0  0  0  0  0  0  0  0  0  0  0  0
  1 19  1  0  0  0  0
  2 19  2  0  0  0  0
  3 20  2  0  0  0  0
  4  6  1  0  0  0  0
  4 22  2  0  0  0  0
  5 20  1  0  0  0  0
  5 21  1  0  0  0  0
  6  7  1  0  0  0  0
  6 23  1  0  0  0  0
  8 21  1  0  0  0  0
  9 10  2  0  0  0  0
  9 11  1  0  0  0  0
 10 12  1  0  0  0  0
 11 13  2  0  0  0  0
 12 26  2  0  0  0  0
 13 26  1  0  0  0  0
 14 16  1  0  0  0  0
 14 24  2  0  0  0  0
 15 17  2  0  0  0  0
 15 24  1  0  0  0  0
 16 25  2  0  0  0  0
 17 25  1  0  0  0  0
 18 22  1  0  0  0  0
 18 23  2  0  0  0  0
 19 24  1  0  0  0  0
 20 23  1  0  0  0  0
 21 25  1  0  0  0  0
 22 26  1  0  0  0  0
  1 27  1  0  0  0  0
  5 28  1  0  0  0  0
  7 29  1  0  0  0  0
  7 30  1  0  0  0  0
  7 31  1  0  0  0  0
  8 32  1  0  0  0  0
  8 33  1  0  0  0  0
  8 34  1  0  0  0  0
  9 35  1  0  0  0  0
 10 36  1  0  0  0  0
 11 37  1  0  0  0  0
 12 38  1  0  0  0  0
 13 39  1  0  0  0  0
 14 40  1  0  0  0  0
 15 41  1  0  0  0  0
 16 42  1  0  0  0  0
 17 43  1  0  0  0  0
 18 44  1  0  0  0  0
 21 45  1  0  0  0  0
M  END
> <pdb_id>
6RJ3

> <uniprot_id>
O43175

> <usmiles>
O=C(O)c1ccc(cc1)[C@H](NC(=O)C=2N(N=C(c3ccccc3)C2)C)C

$$$$
K5F_D_803
          07192416573D 1   1.00000     0.00000     0
            
 49 52  0  0  0  0            999 V2000
   20.1119   -3.1957   18.9399 O   0  0  0  0  0  0  0  0  0  0  0  0
   16.3453   -1.9525   20.9998 O   0  0  0  0  0  0  0  0  0  0  0  0
   16.7264   -2.2102   16.5336 N   0  0  0  0  0  0  0  0  0  0  0  0
   18.5320   -3.4673   20.5567 N   0  0  0  0  0  0  0  0  0  0  0  0
   23.0718   -4.3877   22.3508 N   0  0  0  0  0  0  0  0  0  0  0  0
   17.8434   -2.8903   17.0628 N   0  0  0  0  0  0  0  0  0  0  0  0
   16.0723    0.0615   20.1678 N   0  0  0  0  0  0  0  0  0  0  0  0
   21.2442   -4.8446   23.4422 N   0  0  0  0  0  0  0  0  0  0  0  0
   18.7888   -3.6659   16.2486 C   0  0  0  0  0  0  0  0  0  0  0  0
   16.1558    0.9740   19.0177 C   0  0  0  0  0  0  0  0  0  0  0  0
   15.6397    0.5501   21.5162 C   0  0  0  0  0  0  0  0  0  0  0  0
   16.1169   -1.6253   17.5210 C   0  0  0  0  0  0  0  0  0  0  0  0
   19.9022   -4.9205   23.6620 C   0  0  0  0  0  0  0  0  0  0  0  0
   22.3117   -5.2068   24.2306 C   0  0  0  0  0  0  0  0  0  0  0  0
   27.4375   -5.2890   25.1479 C   0  0  0  0  0  0  0  0  0  0  0  0
   27.2253   -4.6184   23.9187 C   0  0  0  0  0  0  0  0  0  0  0  0
   26.3748   -5.8525   25.8007 C   0  0  0  0  0  0  0  0  0  0  0  0
   19.0376   -4.4413   22.7306 C   0  0  0  0  0  0  0  0  0  0  0  0
   25.9234   -4.5348   23.4027 C   0  0  0  0  0  0  0  0  0  0  0  0
   25.0666   -5.7577   25.2998 C   0  0  0  0  0  0  0  0  0  0  0  0
   20.8370   -3.8822   21.2306 C   0  0  0  0  0  0  0  0  0  0  0  0
   18.9123   -3.1038   19.3185 C   0  0  0  0  0  0  0  0  0  0  0  0
   16.4074   -1.2593   20.0152 C   0  0  0  0  0  0  0  0  0  0  0  0
   21.7334   -4.3274   22.2653 C   0  0  0  0  0  0  0  0  0  0  0  0
   19.5014   -3.9270   21.4810 C   0  0  0  0  0  0  0  0  0  0  0  0
   23.4364   -4.9629   23.5292 C   0  0  0  0  0  0  0  0  0  0  0  0
   17.9030   -2.6478   18.3868 C   0  0  0  0  0  0  0  0  0  0  0  0
   24.8315   -5.1322   24.0584 C   0  0  0  0  0  0  0  0  0  0  0  0
   16.8160   -1.8103   18.6929 C   0  0  0  0  0  0  0  0  0  0  0  0
   17.5696   -3.4131   20.8231 H   0  0  0  0  0  0  0  0  0  0  0  0
   19.4955   -4.0556   16.8391 H   0  0  0  0  0  0  0  0  0  0  0  0
   18.3002   -4.4032   15.7822 H   0  0  0  0  0  0  0  0  0  0  0  0
   19.2142   -3.0667   15.5704 H   0  0  0  0  0  0  0  0  0  0  0  0
   16.4606    0.4670   18.2114 H   0  0  0  0  0  0  0  0  0  0  0  0
   15.2550    1.3709   18.8410 H   0  0  0  0  0  0  0  0  0  0  0  0
   16.8084    1.7046   19.2185 H   0  0  0  0  0  0  0  0  0  0  0  0
   15.6457   -0.2113   22.1644 H   0  0  0  0  0  0  0  0  0  0  0  0
   16.2689    1.2608   21.8309 H   0  0  0  0  0  0  0  0  0  0  0  0
   14.7156    0.9271   21.4534 H   0  0  0  0  0  0  0  0  0  0  0  0
   15.2616   -1.1134   17.4412 H   0  0  0  0  0  0  0  0  0  0  0  0
   19.5546   -5.3279   24.5066 H   0  0  0  0  0  0  0  0  0  0  0  0
   22.2623   -5.5828   25.1559 H   0  0  0  0  0  0  0  0  0  0  0  0
   28.3571   -5.3503   25.5360 H   0  0  0  0  0  0  0  0  0  0  0  0
   27.9932   -4.2100   23.4252 H   0  0  0  0  0  0  0  0  0  0  0  0
   26.5343   -6.3444   26.6566 H   0  0  0  0  0  0  0  0  0  0  0  0
   18.0564   -4.4487   22.9235 H   0  0  0  0  0  0  0  0  0  0  0  0
   25.7679   -4.0388   22.5484 H   0  0  0  0  0  0  0  0  0  0  0  0
   24.3020   -6.1338   25.8233 H   0  0  0  0  0  0  0  0  0  0  0  0
   21.1861   -3.5500   20.3543 H   0  0  0  0  0  0  0  0  0  0  0  0
  1 22  2  0  0  0  0
  2 23  2  0  0  0  0
  3  6  1  0  0  0  0
  3 12  2  0  0  0  0
  4 22  1  0  0  0  0
  4 25  1  0  0  0  0
  5 24  2  0  0  0  0
  5 26  1  0  0  0  0
  6  9  1  0  0  0  0
  6 27  1  0  0  0  0
  7 10  1  0  0  0  0
  7 11  1  0  0  0  0
  7 23  1  0  0  0  0
  8 13  1  0  0  0  0
  8 14  1  0  0  0  0
  8 24  1  0  0  0  0
 12 29  1  0  0  0  0
 13 18  2  0  0  0  0
 14 26  2  0  0  0  0
 15 16  2  0  0  0  0
 15 17  1  0  0  0  0
 16 19  1  0  0  0  0
 17 20  2  0  0  0  0
 18 25  1  0  0  0  0
 19 28  2  0  0  0  0
 20 28  1  0  0  0  0
 21 24  1  0  0  0  0
 21 25  2  0  0  0  0
 22 27  1  0  0  0  0
 23 29  1  0  0  0  0
 26 28  1  0  0  0  0
 27 29  2  0  0  0  0
  4 30  1  0  0  0  0
  9 31  1  0  0  0  0
  9 32  1  0  0  0  0
  9 33  1  0  0  0  0
 10 34  1  0  0  0  0
 10 35  1  0  0  0  0
 10 36  1  0  0  0  0
 11 37  1  0  0  0  0
 11 38  1  0  0  0  0
 11 39  1  0  0  0  0
 12 40  1  0  0  0  0
 13 41  1  0  0  0  0
 14 42  1  0  0  0  0
 15 43  1  0  0  0  0
 16 44  1  0  0  0  0
 17 45  1  0  0  0  0
 18 46  1  0  0  0  0
 19 47  1  0  0  0  0
 20 48  1  0  0  0  0
 21 49  1  0  0  0  0
M  END
> <pdb_id>
5SJT

> <uniprot_id>
Q9Y233

> <usmiles>
O=C(N(C)C)C1=C(N(N=C1)C)C(=O)NC2=CC3=NC(c4ccccc4)=CN3C=C2

$$$$
K66_A_1
          07192422213D 1   1.00000     0.00000     0
            
 29 30  0  0  0  0            999 V2000
   20.1242   10.3123   20.6102 Br  0  0  0  0  0  0  0  0  0  0  0  0
   21.0810   11.6559   17.7938 Br  0  0  0  0  0  0  0  0  0  0  0  0
   21.5494    7.5873   21.7248 Br  0  0  0  0  0  0  0  0  0  0  0  0
   23.5050   10.2664   16.0438 Br  0  0  0  0  0  0  0  0  0  0  0  0
   23.2350    6.9909   15.4185 O   0  0  0  0  0  0  0  0  0  0  0  0
   24.6943    7.8627   14.0275 O   0  0  0  0  0  0  0  0  0  0  0  0
   23.9110    6.6598   19.5413 N   0  0  0  0  0  0  0  0  0  0  0  0
   25.6554    5.6856   18.2533 N   0  0  0  0  0  0  0  0  0  0  0  0
   24.5177    7.6505   17.5995 N   0  0  0  0  0  0  0  0  0  0  0  0
   26.2323    4.9815   19.3874 C   0  0  0  0  0  0  0  0  0  0  0  0
   26.0832    5.3617   16.9011 C   0  0  0  0  0  0  0  0  0  0  0  0
   25.2167    7.9192   16.3436 C   0  0  0  0  0  0  0  0  0  0  0  0
   24.3192    7.5664   15.1820 C   0  0  0  0  0  0  0  0  0  0  0  0
   24.7112    6.6507   18.4577 C   0  0  0  0  0  0  0  0  0  0  0  0
   21.5150    9.5080   19.6152 C   0  0  0  0  0  0  0  0  0  0  0  0
   21.9207   10.0813   18.4166 C   0  0  0  0  0  0  0  0  0  0  0  0
   22.1172    8.3510   20.0915 C   0  0  0  0  0  0  0  0  0  0  0  0
   22.9382    9.5028   17.6772 C   0  0  0  0  0  0  0  0  0  0  0  0
   23.1389    7.7582   19.3616 C   0  0  0  0  0  0  0  0  0  0  0  0
   23.5297    8.3485   18.1657 C   0  0  0  0  0  0  0  0  0  0  0  0
   22.9788    6.7745   16.3606 H   0  0  0  0  0  0  0  0  0  0  0  0
   25.8282    5.3263   20.2346 H   0  0  0  0  0  0  0  0  0  0  0  0
   26.0447    4.0029   19.3028 H   0  0  0  0  0  0  0  0  0  0  0  0
   27.2209    5.1310   19.4047 H   0  0  0  0  0  0  0  0  0  0  0  0
   25.5890    5.9360   16.2485 H   0  0  0  0  0  0  0  0  0  0  0  0
   27.0655    5.5272   16.8137 H   0  0  0  0  0  0  0  0  0  0  0  0
   25.8893    4.3991   16.7117 H   0  0  0  0  0  0  0  0  0  0  0  0
   26.0494    7.3672   16.3010 H   0  0  0  0  0  0  0  0  0  0  0  0
   25.4567    8.8889   16.2966 H   0  0  0  0  0  0  0  0  0  0  0  0
  1 15  1  0  0  0  0
  2 16  1  0  0  0  0
  3 17  1  0  0  0  0
  4 18  1  0  0  0  0
  5 13  1  0  0  0  0
  6 13  2  0  0  0  0
  7 14  2  0  0  0  0
  7 19  1  0  0  0  0
  8 10  1  0  0  0  0
  8 11  1  0  0  0  0
  8 14  1  0  0  0  0
  9 12  1  0  0  0  0
  9 14  1  0  0  0  0
  9 20  1  0  0  0  0
 12 13  1  0  0  0  0
 15 16  2  0  0  0  0
 15 17  1  0  0  0  0
 16 18  1  0  0  0  0
 17 19  2  0  0  0  0
 18 20  2  0  0  0  0
 19 20  1  0  0  0  0
  5 21  1  0  0  0  0
 10 22  1  0  0  0  0
 10 23  1  0  0  0  0
 10 24  1  0  0  0  0
 11 25  1  0  0  0  0
 11 26  1  0  0  0  0
 11 27  1  0  0  0  0
 12 28  1  0  0  0  0
 12 29  1  0  0  0  0
M  END
> <pdb_id>
3KXH

> <uniprot_id>
P28523

> <usmiles>
Brc1c(Br)c(Br)c2N(C(=Nc2c1Br)N(C)C)CC(=O)O

$$$$
K6M_B_1701
          07202414123D 1   1.00000     0.00000     0
            
 42 42  0  0  0  0            999 V2000
  -17.2705  -10.9116    5.5571 F   0  0  0  0  0  0  0  0  0  0  0  0
  -19.1362  -10.4107    4.8069 F   0  0  0  0  0  0  0  0  0  0  0  0
  -17.4269   -9.7311    3.9353 F   0  0  0  0  0  0  0  0  0  0  0  0
  -18.1063  -16.5952    4.0298 O   0  0  0  0  0  0  0  0  0  0  0  0
  -20.0906  -15.5934    4.0531 N   0  0  0  0  0  0  0  0  0  0  0  0
  -21.2564  -14.3581    6.5026 N   0  0  0  0  0  0  0  0  0  0  0  0
  -21.3499  -13.6868    8.9204 C   0  0  0  0  0  0  0  0  0  0  0  0
  -21.1064  -11.9410    7.1195 C   0  0  0  0  0  0  0  0  0  0  0  0
  -23.2145  -13.2580    7.2943 C   0  0  0  0  0  0  0  0  0  0  0  0
  -17.0942  -13.1110    1.6479 C   0  0  0  0  0  0  0  0  0  0  0  0
  -17.6272  -14.3043    2.0908 C   0  0  0  0  0  0  0  0  0  0  0  0
  -17.1518  -11.9711    2.4173 C   0  0  0  0  0  0  0  0  0  0  0  0
  -18.2760  -13.1994    4.1149 C   0  0  0  0  0  0  0  0  0  0  0  0
  -20.8362  -16.7455    4.5311 C   0  0  0  0  0  0  0  0  0  0  0  0
  -21.8897  -15.6744    6.6129 C   0  0  0  0  0  0  0  0  0  0  0  0
  -21.0606  -16.7969    6.0326 C   0  0  0  0  0  0  0  0  0  0  0  0
  -18.7808  -15.6248    3.8386 C   0  0  0  0  0  0  0  0  0  0  0  0
  -18.1558  -14.3579    3.3576 C   0  0  0  0  0  0  0  0  0  0  0  0
  -17.7469  -12.0178    3.6640 C   0  0  0  0  0  0  0  0  0  0  0  0
  -17.8847  -10.7748    4.4935 C   0  0  0  0  0  0  0  0  0  0  0  0
  -21.6985  -13.3188    7.4739 C   0  0  0  0  0  0  0  0  0  0  0  0
  -20.5150  -14.8612    3.9032 H   0  0  0  0  0  0  0  0  0  0  0  0
  -20.3719  -14.4454    6.5435 H   0  0  0  0  0  0  0  0  0  0  0  0
  -21.4539  -12.9052    9.4851 H   0  0  0  0  0  0  0  0  0  0  0  0
  -20.4313  -13.9951    8.9625 H   0  0  0  0  0  0  0  0  0  0  0  0
  -21.9407  -14.3905    9.2318 H   0  0  0  0  0  0  0  0  0  0  0  0
  -21.5204  -11.2591    7.6704 H   0  0  0  0  0  0  0  0  0  0  0  0
  -21.2751  -11.7473    6.1843 H   0  0  0  0  0  0  0  0  0  0  0  0
  -20.1498  -11.9494    7.2804 H   0  0  0  0  0  0  0  0  0  0  0  0
  -23.5364  -12.3826    7.5626 H   0  0  0  0  0  0  0  0  0  0  0  0
  -23.6371  -13.9373    7.8423 H   0  0  0  0  0  0  0  0  0  0  0  0
  -23.4367  -13.4106    6.3625 H   0  0  0  0  0  0  0  0  0  0  0  0
  -16.6821  -13.0777    0.8151 H   0  0  0  0  0  0  0  0  0  0  0  0
  -17.5459  -15.0773    1.5795 H   0  0  0  0  0  0  0  0  0  0  0  0
  -16.8109  -11.1699    2.0910 H   0  0  0  0  0  0  0  0  0  0  0  0
  -18.6849  -13.2336    4.9495 H   0  0  0  0  0  0  0  0  0  0  0  0
  -20.3451  -17.5436    4.2816 H   0  0  0  0  0  0  0  0  0  0  0  0
  -21.6965  -16.7648    4.0839 H   0  0  0  0  0  0  0  0  0  0  0  0
  -22.7480  -15.6532    6.1640 H   0  0  0  0  0  0  0  0  0  0  0  0
  -22.0381  -15.8709    7.5501 H   0  0  0  0  0  0  0  0  0  0  0  0
  -21.4518  -17.6505    6.2755 H   0  0  0  0  0  0  0  0  0  0  0  0
  -20.1850  -16.7367    6.4457 H   0  0  0  0  0  0  0  0  0  0  0  0
  1 20  1  0  0  0  0
  2 20  1  0  0  0  0
  3 20  1  0  0  0  0
  4 17  2  0  0  0  0
  5 14  1  0  0  0  0
  5 17  1  0  0  0  0
  5 22  1  0  0  0  0
  6 15  1  0  0  0  0
  6 21  1  0  0  0  0
  6 23  1  0  0  0  0
  7 21  1  0  0  0  0
  7 24  1  0  0  0  0
  7 25  1  0  0  0  0
  7 26  1  0  0  0  0
  8 21  1  0  0  0  0
  8 27  1  0  0  0  0
  8 28  1  0  0  0  0
  8 29  1  0  0  0  0
  9 21  1  0  0  0  0
  9 30  1  0  0  0  0
  9 31  1  0  0  0  0
  9 32  1  0  0  0  0
 10 11  2  0  0  0  0
 10 12  1  0  0  0  0
 10 33  1  0  0  0  0
 11 18  1  0  0  0  0
 11 34  1  0  0  0  0
 12 19  2  0  0  0  0
 12 35  1  0  0  0  0
 13 18  2  0  0  0  0
 13 19  1  0  0  0  0
 13 36  1  0  0  0  0
 14 16  1  0  0  0  0
 14 37  1  0  0  0  0
 14 38  1  0  0  0  0
 15 16  1  0  0  0  0
 15 39  1  0  0  0  0
 15 40  1  0  0  0  0
 16 41  1  0  0  0  0
 16 42  1  0  0  0  0
 17 18  1  0  0  0  0
 19 20  1  0  0  0  0
M  END
> <pdb_id>
6MXY

> <uniprot_id>
Q12888

> <usmiles>
FC(F)(F)c1cc(ccc1)C(=O)NCCCNC(C)(C)C

$$$$
K78_A_1552
          07202405383D 1   1.00000     0.00000     0
            
 49 50  0  0  0  0            999 V2000
   -1.4090   11.5325   31.7309 Br  0  0  0  0  0  0  0  0  0  0  0  0
   -0.9651    8.7724   32.8569 O   0  0  0  0  0  0  0  0  0  0  0  0
   -2.6528    5.0012   31.6261 N   0  0  0  0  0  0  0  0  0  0  0  0
   -3.6421    7.8537   27.1413 C   0  0  0  0  0  0  0  0  0  0  0  0
   -5.6766    7.9123   28.4759 C   0  0  0  0  0  0  0  0  0  0  0  0
   -4.7000    9.9604   27.7066 C   0  0  0  0  0  0  0  0  0  0  0  0
   -2.3149    3.9039   32.5554 C   0  0  0  0  0  0  0  0  0  0  0  0
   -2.0116    6.2274   32.0935 C   0  0  0  0  0  0  0  0  0  0  0  0
   -2.6250    2.5192   31.9678 C   0  0  0  0  0  0  0  0  0  0  0  0
   -2.9166    1.3677   36.7891 C   0  0  0  0  0  0  0  0  0  0  0  0
   -3.7807    0.8896   35.8216 C   0  0  0  0  0  0  0  0  0  0  0  0
   -1.6826    1.8481   36.3817 C   0  0  0  0  0  0  0  0  0  0  0  0
   -1.8367    1.3948   32.6475 C   0  0  0  0  0  0  0  0  0  0  0  0
   -3.4458    0.8808   34.4740 C   0  0  0  0  0  0  0  0  0  0  0  0
   -1.3094    1.8620   35.0436 C   0  0  0  0  0  0  0  0  0  0  0  0
   -2.9306    9.8347   29.9663 C   0  0  0  0  0  0  0  0  0  0  0  0
   -3.1600    7.4916   30.2195 C   0  0  0  0  0  0  0  0  0  0  0  0
   -2.1219    9.8719   31.0887 C   0  0  0  0  0  0  0  0  0  0  0  0
   -1.7998    8.7036   31.7462 C   0  0  0  0  0  0  0  0  0  0  0  0
   -2.2011    1.3719   34.0935 C   0  0  0  0  0  0  0  0  0  0  0  0
   -2.3242    7.4894   31.3283 C   0  0  0  0  0  0  0  0  0  0  0  0
   -3.4777    8.6420   29.5016 C   0  0  0  0  0  0  0  0  0  0  0  0
   -4.3505    8.5837   28.2541 C   0  0  0  0  0  0  0  0  0  0  0  0
   -0.7182    7.9378   33.3493 H   0  0  0  0  0  0  0  0  0  0  0  0
   -3.6444    5.1283   31.6025 H   0  0  0  0  0  0  0  0  0  0  0  0
   -2.7543    8.2824   26.9737 H   0  0  0  0  0  0  0  0  0  0  0  0
   -3.5068    6.8980   27.4028 H   0  0  0  0  0  0  0  0  0  0  0  0
   -4.1953    7.8966   26.3094 H   0  0  0  0  0  0  0  0  0  0  0  0
   -6.1676    8.3791   29.2114 H   0  0  0  0  0  0  0  0  0  0  0  0
   -6.2165    7.9548   27.6352 H   0  0  0  0  0  0  0  0  0  0  0  0
   -5.5280    6.9563   28.7286 H   0  0  0  0  0  0  0  0  0  0  0  0
   -5.1749   10.4885   28.4106 H   0  0  0  0  0  0  0  0  0  0  0  0
   -3.8615   10.4365   27.4416 H   0  0  0  0  0  0  0  0  0  0  0  0
   -5.2933    9.8607   26.9078 H   0  0  0  0  0  0  0  0  0  0  0  0
   -2.8436    4.0212   33.3960 H   0  0  0  0  0  0  0  0  0  0  0  0
   -1.3385    3.9514   32.7663 H   0  0  0  0  0  0  0  0  0  0  0  0
   -1.0224    6.0862   32.0539 H   0  0  0  0  0  0  0  0  0  0  0  0
   -2.2899    6.3720   33.0431 H   0  0  0  0  0  0  0  0  0  0  0  0
   -2.3958    2.5266   30.9944 H   0  0  0  0  0  0  0  0  0  0  0  0
   -3.6019    2.3366   32.0788 H   0  0  0  0  0  0  0  0  0  0  0  0
   -3.1749    1.3669   37.7552 H   0  0  0  0  0  0  0  0  0  0  0  0
   -4.6746    0.5391   36.1009 H   0  0  0  0  0  0  0  0  0  0  0  0
   -1.0437    2.1939   37.0690 H   0  0  0  0  0  0  0  0  0  0  0  0
   -0.8559    1.5627   32.5490 H   0  0  0  0  0  0  0  0  0  0  0  0
   -2.0687    0.5177   32.2269 H   0  0  0  0  0  0  0  0  0  0  0  0
   -4.0860    0.5288   33.7912 H   0  0  0  0  0  0  0  0  0  0  0  0
   -0.4163    2.2176   34.7678 H   0  0  0  0  0  0  0  0  0  0  0  0
   -3.1266   10.6848   29.4775 H   0  0  0  0  0  0  0  0  0  0  0  0
   -3.5541    6.6223   29.9210 H   0  0  0  0  0  0  0  0  0  0  0  0
  1 18  1  0  0  0  0
  2 19  1  0  0  0  0
  3  7  1  0  0  0  0
  3  8  1  0  0  0  0
  4 23  1  0  0  0  0
  5 23  1  0  0  0  0
  6 23  1  0  0  0  0
  7  9  1  0  0  0  0
  8 21  1  0  0  0  0
  9 13  1  0  0  0  0
 10 11  2  0  0  0  0
 10 12  1  0  0  0  0
 11 14  1  0  0  0  0
 12 15  2  0  0  0  0
 13 20  1  0  0  0  0
 14 20  2  0  0  0  0
 15 20  1  0  0  0  0
 16 18  1  0  0  0  0
 16 22  2  0  0  0  0
 17 21  2  0  0  0  0
 17 22  1  0  0  0  0
 18 19  2  0  0  0  0
 19 21  1  0  0  0  0
 22 23  1  0  0  0  0
  2 24  1  0  0  0  0
  3 25  1  0  0  0  0
  4 26  1  0  0  0  0
  4 27  1  0  0  0  0
  4 28  1  0  0  0  0
  5 29  1  0  0  0  0
  5 30  1  0  0  0  0
  5 31  1  0  0  0  0
  6 32  1  0  0  0  0
  6 33  1  0  0  0  0
  6 34  1  0  0  0  0
  7 35  1  0  0  0  0
  7 36  1  0  0  0  0
  8 37  1  0  0  0  0
  8 38  1  0  0  0  0
  9 39  1  0  0  0  0
  9 40  1  0  0  0  0
 10 41  1  0  0  0  0
 11 42  1  0  0  0  0
 12 43  1  0  0  0  0
 13 44  1  0  0  0  0
 13 45  1  0  0  0  0
 14 46  1  0  0  0  0
 15 47  1  0  0  0  0
 16 48  1  0  0  0  0
 17 49  1  0  0  0  0
M  END
> <pdb_id>
5AI9

> <uniprot_id>
P34913

> <usmiles>
Brc1c(O)c(cc(c1)C(C)(C)C)CNCCCc2ccccc2

$$$$
K7S_A_801
          07202403243D 1   1.00000     0.00000     0
            
 49 52  0  0  0  0            999 V2000
  -27.6130    3.2240    1.3990 F   0  0  0  0  0  0  0  0  0  0  0  0
  -26.5030    1.8700    2.6390 F   0  0  0  0  0  0  0  0  0  0  0  0
  -25.4940    3.3990    1.5660 F   0  0  0  0  0  0  0  0  0  0  0  0
  -16.9060    4.7760   -8.4080 O   0  0  0  0  0  0  0  0  0  0  0  0
  -24.4440    2.9670   -3.2370 O   0  0  0  0  0  0  0  0  0  0  0  0
  -25.3650    1.2040   -4.4320 N   0  0  0  0  0  0  0  0  0  0  0  0
  -18.8860    3.6070   -7.9230 N   0  0  0  0  0  0  0  0  0  0  0  0
  -19.0640    5.8300   -8.3680 N   0  0  0  0  0  0  0  0  0  0  0  0
  -18.7220    7.2210   -8.6570 C   0  0  0  0  0  0  0  0  0  0  0  0
  -24.7060    3.0800   -9.7900 C   0  0  0  0  0  0  0  0  0  0  0  0
  -26.4930   -0.6580   -0.7800 C   0  0  0  0  0  0  0  0  0  0  0  0
  -25.9610    1.2120   -6.7640 C   0  0  0  0  0  0  0  0  0  0  0  0
  -21.6370    5.9710   -8.1280 C   0  0  0  0  0  0  0  0  0  0  0  0
  -25.7970    1.6830   -8.0700 C   0  0  0  0  0  0  0  0  0  0  0  0
  -25.9290   -0.1290   -1.9630 C   0  0  0  0  0  0  0  0  0  0  0  0
  -26.6940    0.1760    0.3370 C   0  0  0  0  0  0  0  0  0  0  0  0
  -22.7770    5.1600   -7.8680 C   0  0  0  0  0  0  0  0  0  0  0  0
  -21.3620    3.1520   -7.5900 C   0  0  0  0  0  0  0  0  0  0  0  0
  -23.9640    2.4560   -6.0690 C   0  0  0  0  0  0  0  0  0  0  0  0
  -25.7600    2.0800   -0.8990 C   0  0  0  0  0  0  0  0  0  0  0  0
  -18.1330    4.7480   -8.2490 C   0  0  0  0  0  0  0  0  0  0  0  0
  -25.0710    1.9020   -3.2640 C   0  0  0  0  0  0  0  0  0  0  0  0
  -25.0570    1.6110   -5.7660 C   0  0  0  0  0  0  0  0  0  0  0  0
  -20.2490    3.9490   -7.8470 C   0  0  0  0  0  0  0  0  0  0  0  0
  -20.3780    5.3430   -8.1230 C   0  0  0  0  0  0  0  0  0  0  0  0
  -24.7450    2.5530   -8.4040 C   0  0  0  0  0  0  0  0  0  0  0  0
  -25.5750    1.2460   -2.0210 C   0  0  0  0  0  0  0  0  0  0  0  0
  -22.6260    3.7730   -7.6200 C   0  0  0  0  0  0  0  0  0  0  0  0
  -26.3160    1.5390    0.2660 C   0  0  0  0  0  0  0  0  0  0  0  0
  -23.8000    2.9340   -7.3780 C   0  0  0  0  0  0  0  0  0  0  0  0
  -26.4900    2.4950    1.4460 C   0  0  0  0  0  0  0  0  0  0  0  0
  -25.8394    0.3300   -4.3265 H   0  0  0  0  0  0  0  0  0  0  0  0
  -18.5110    2.6929   -7.7688 H   0  0  0  0  0  0  0  0  0  0  0  0
  -19.5570    7.7706   -8.6854 H   0  0  0  0  0  0  0  0  0  0  0  0
  -18.1168    7.5709   -7.9420 H   0  0  0  0  0  0  0  0  0  0  0  0
  -18.2582    7.2734   -9.5414 H   0  0  0  0  0  0  0  0  0  0  0  0
  -23.9145    3.6820   -9.8956 H   0  0  0  0  0  0  0  0  0  0  0  0
  -24.6339    2.3186  -10.4342 H   0  0  0  0  0  0  0  0  0  0  0  0
  -25.5433    3.5947   -9.9746 H   0  0  0  0  0  0  0  0  0  0  0  0
  -26.7491   -1.6236   -0.7361 H   0  0  0  0  0  0  0  0  0  0  0  0
  -26.7164    0.5955   -6.5420 H   0  0  0  0  0  0  0  0  0  0  0  0
  -21.7273    6.9506   -8.3075 H   0  0  0  0  0  0  0  0  0  0  0  0
  -26.4402    1.3955   -8.7797 H   0  0  0  0  0  0  0  0  0  0  0  0
  -25.7797   -0.7198   -2.7559 H   0  0  0  0  0  0  0  0  0  0  0  0
  -27.1004   -0.1914    1.1736 H   0  0  0  0  0  0  0  0  0  0  0  0
  -23.6887    5.5707   -7.8603 H   0  0  0  0  0  0  0  0  0  0  0  0
  -21.2674    2.1764   -7.3918 H   0  0  0  0  0  0  0  0  0  0  0  0
  -23.3122    2.7112   -5.3548 H   0  0  0  0  0  0  0  0  0  0  0  0
  -25.4977    3.0443   -0.9352 H   0  0  0  0  0  0  0  0  0  0  0  0
  1 31  1  0  0  0  0
  2 31  1  0  0  0  0
  3 31  1  0  0  0  0
  4 21  2  0  0  0  0
  5 22  2  0  0  0  0
  6 22  1  0  0  0  0
  6 23  1  0  0  0  0
  7 21  1  0  0  0  0
  7 24  1  0  0  0  0
  8  9  1  0  0  0  0
  8 21  1  0  0  0  0
  8 25  1  0  0  0  0
 10 26  1  0  0  0  0
 11 15  1  0  0  0  0
 11 16  2  0  0  0  0
 12 14  1  0  0  0  0
 12 23  2  0  0  0  0
 13 17  1  0  0  0  0
 13 25  2  0  0  0  0
 14 26  2  0  0  0  0
 15 27  2  0  0  0  0
 16 29  1  0  0  0  0
 17 28  2  0  0  0  0
 18 24  2  0  0  0  0
 18 28  1  0  0  0  0
 19 23  1  0  0  0  0
 19 30  2  0  0  0  0
 20 27  1  0  0  0  0
 20 29  2  0  0  0  0
 22 27  1  0  0  0  0
 24 25  1  0  0  0  0
 26 30  1  0  0  0  0
 28 30  1  0  0  0  0
 29 31  1  0  0  0  0
  6 32  1  0  0  0  0
  7 33  1  0  0  0  0
  9 34  1  0  0  0  0
  9 35  1  0  0  0  0
  9 36  1  0  0  0  0
 10 37  1  0  0  0  0
 10 38  1  0  0  0  0
 10 39  1  0  0  0  0
 11 40  1  0  0  0  0
 12 41  1  0  0  0  0
 13 42  1  0  0  0  0
 14 43  1  0  0  0  0
 15 44  1  0  0  0  0
 16 45  1  0  0  0  0
 17 46  1  0  0  0  0
 18 47  1  0  0  0  0
 19 48  1  0  0  0  0
 20 49  1  0  0  0  0
M  END
> <pdb_id>
6N0Q

> <uniprot_id>
P15056

> <usmiles>
FC(F)(F)c1cc(ccc1)C(=O)Nc2cc(c3cc4NC(=O)N(c4cc3)C)c(cc2)C

$$$$
K8H_A_701
          07212404143D 1   1.00000     0.00000     0
            
 56 60  0  0  0  0            999 V2000
   17.4827  -39.5565   -1.5930 O   0  0  0  0  0  0  0  0  0  0  0  0
   20.0052  -39.0503   -2.4796 O   0  0  0  0  0  0  0  0  0  0  0  0
   17.9288  -37.9672   -4.7980 O   0  0  0  0  0  0  0  0  0  0  0  0
   11.8038  -35.5501   -3.6876 N   0  0  0  0  0  0  0  0  0  0  0  0
   19.1051  -43.1796   -9.1427 N   0  0  0  0  0  0  0  0  0  0  0  0
   13.6328  -34.6026   -2.6315 N   0  0  0  0  0  0  0  0  0  0  0  0
   15.8038  -35.6760   -2.5466 N   0  0  0  0  0  0  0  0  0  0  0  0
   20.4703  -40.4250   -6.0446 N   0  0  0  0  0  0  0  0  0  0  0  0
   15.9021  -37.7795   -3.7347 N   0  0  0  0  0  0  0  0  0  0  0  0
   14.9291  -34.6986   -2.2802 C   0  0  0  0  0  0  0  0  0  0  0  0
   20.1851  -42.2318   -9.4914 C   0  0  0  0  0  0  0  0  0  0  0  0
   19.3283  -43.6734   -7.7839 C   0  0  0  0  0  0  0  0  0  0  0  0
   21.8072  -39.8281   -6.1099 C   0  0  0  0  0  0  0  0  0  0  0  0
   14.9993  -38.5389   -4.4617 C   0  0  0  0  0  0  0  0  0  0  0  0
   22.7266  -40.9137   -6.6706 C   0  0  0  0  0  0  0  0  0  0  0  0
   19.3084  -39.5373   -6.0167 C   0  0  0  0  0  0  0  0  0  0  0  0
   13.7816  -37.9434   -4.4177 C   0  0  0  0  0  0  0  0  0  0  0  0
   20.3151  -41.0638   -8.5079 C   0  0  0  0  0  0  0  0  0  0  0  0
   19.3394  -42.5530   -6.7558 C   0  0  0  0  0  0  0  0  0  0  0  0
   21.8343  -42.1388   -6.7957 C   0  0  0  0  0  0  0  0  0  0  0  0
   17.2922  -38.0416   -3.5405 C   0  0  1  0  0  0  0  0  0  0  0  0
   17.6312  -39.4284   -2.9937 C   0  0  1  0  0  0  0  0  0  0  0  0
   19.0942  -39.5649   -3.4428 C   0  0  1  0  0  0  0  0  0  0  0  0
   13.0998  -35.6345   -3.3231 C   0  0  0  0  0  0  0  0  0  0  0  0
   19.1633  -38.7259   -4.7429 C   0  0  2  0  0  0  0  0  0  0  0  0
   15.2556  -36.6652   -3.2733 C   0  0  0  0  0  0  0  0  0  0  0  0
   13.9288  -36.7170   -3.6886 C   0  0  0  0  0  0  0  0  0  0  0  0
   20.4398  -41.5283   -7.0464 C   0  0  0  0  0  0  0  0  0  0  0  0
   17.7222  -40.4871   -1.3161 H   0  0  0  0  0  0  0  0  0  0  0  0
   20.9412  -39.1603   -2.8140 H   0  0  0  0  0  0  0  0  0  0  0  0
   11.3790  -36.2964   -4.2002 H   0  0  0  0  0  0  0  0  0  0  0  0
   11.2679  -34.7414   -3.4454 H   0  0  0  0  0  0  0  0  0  0  0  0
   19.1118  -43.9469   -9.7840 H   0  0  0  0  0  0  0  0  0  0  0  0
   15.2882  -33.9333   -1.7461 H   0  0  0  0  0  0  0  0  0  0  0  0
   19.9986  -41.8603  -10.4010 H   0  0  0  0  0  0  0  0  0  0  0  0
   21.0515  -42.7308   -9.5064 H   0  0  0  0  0  0  0  0  0  0  0  0
   20.2094  -44.1454   -7.7542 H   0  0  0  0  0  0  0  0  0  0  0  0
   18.5980  -44.3157   -7.5513 H   0  0  0  0  0  0  0  0  0  0  0  0
   22.1102  -39.5535   -5.1974 H   0  0  0  0  0  0  0  0  0  0  0  0
   21.8027  -39.0308   -6.7136 H   0  0  0  0  0  0  0  0  0  0  0  0
   15.2116  -39.3898   -4.9421 H   0  0  0  0  0  0  0  0  0  0  0  0
   23.4861  -41.0918   -6.0450 H   0  0  0  0  0  0  0  0  0  0  0  0
   23.0866  -40.6456   -7.5642 H   0  0  0  0  0  0  0  0  0  0  0  0
   18.4864  -40.0962   -6.1258 H   0  0  0  0  0  0  0  0  0  0  0  0
   19.3834  -38.9013   -6.7847 H   0  0  0  0  0  0  0  0  0  0  0  0
   12.9361  -38.2948   -4.8198 H   0  0  0  0  0  0  0  0  0  0  0  0
   19.5046  -40.4840   -8.5911 H   0  0  0  0  0  0  0  0  0  0  0  0
   21.1295  -40.5345   -8.7458 H   0  0  0  0  0  0  0  0  0  0  0  0
   19.4940  -42.9463   -5.8495 H   0  0  0  0  0  0  0  0  0  0  0  0
   18.4531  -42.0900   -6.7715 H   0  0  0  0  0  0  0  0  0  0  0  0
   21.8444  -42.6784   -5.9538 H   0  0  0  0  0  0  0  0  0  0  0  0
   22.1183  -42.7135   -7.5633 H   0  0  0  0  0  0  0  0  0  0  0  0
   17.6772  -37.3454   -2.9347 H   0  0  0  0  0  0  0  0  0  0  0  0
   17.0724  -40.1174   -3.4552 H   0  0  0  0  0  0  0  0  0  0  0  0
   19.3058  -40.5222   -3.6395 H   0  0  0  0  0  0  0  0  0  0  0  0
   19.9313  -38.0891   -4.6761 H   0  0  0  0  0  0  0  0  0  0  0  0
  1 22  1  0  0  0  0
  2 23  1  0  0  0  0
  3 21  1  0  0  0  0
  3 25  1  0  0  0  0
  4 24  1  0  0  0  0
  5 11  1  0  0  0  0
  5 12  1  0  0  0  0
  6 10  1  0  0  0  0
  6 24  2  0  0  0  0
  7 10  2  0  0  0  0
  7 26  1  0  0  0  0
  8 13  1  0  0  0  0
  8 16  1  0  0  0  0
  8 28  1  0  0  0  0
  9 14  1  0  0  0  0
  9 21  1  0  0  0  0
  9 26  1  0  0  0  0
 11 18  1  0  0  0  0
 12 19  1  0  0  0  0
 13 15  1  0  0  0  0
 14 17  2  0  0  0  0
 15 20  1  0  0  0  0
 16 25  1  0  0  0  0
 17 27  1  0  0  0  0
 18 28  1  0  0  0  0
 19 28  1  0  0  0  0
 20 28  1  0  0  0  0
 21 22  1  0  0  0  0
 22 23  1  0  0  0  0
 23 25  1  0  0  0  0
 24 27  1  0  0  0  0
 26 27  2  0  0  0  0
  1 29  1  0  0  0  0
  2 30  1  0  0  0  0
  4 31  1  0  0  0  0
  4 32  1  0  0  0  0
  5 33  1  0  0  0  0
 10 34  1  0  0  0  0
 11 35  1  0  0  0  0
 11 36  1  0  0  0  0
 12 37  1  0  0  0  0
 12 38  1  0  0  0  0
 13 39  1  0  0  0  0
 13 40  1  0  0  0  0
 14 41  1  0  0  0  0
 15 42  1  0  0  0  0
 15 43  1  0  0  0  0
 16 44  1  0  0  0  0
 16 45  1  0  0  0  0
 17 46  1  0  0  0  0
 18 47  1  0  0  0  0
 18 48  1  0  0  0  0
 19 49  1  0  0  0  0
 19 50  1  0  0  0  0
 20 51  1  0  0  0  0
 20 52  1  0  0  0  0
 21 53  1  0  0  0  0
 22 54  1  0  0  0  0
 23 55  1  0  0  0  0
 25 56  1  0  0  0  0
M  END
> <pdb_id>
6RLL

> <uniprot_id>
O14744

> <usmiles>
O1[C@@H](N2c3ncnc(N)c3C=C2)[C@H](O)[C@H](O)[C@H]1CN4C5(CCNCC5)CCC4

$$$$
K9S_A_1252
          07192419343D 1   1.00000     0.00000     0
            
 20 21  0  0  0  0            999 V2000
   45.6354   20.0576   49.1658 S   0  0  0  0  0  0  0  0  0  0  0  0
   46.4516   17.4621   52.8512 N   0  0  0  0  0  0  0  0  0  0  0  0
   45.7840   18.9394   50.4647 C   0  0  0  0  0  0  0  0  0  0  0  0
   46.6613   18.9046   52.9057 C   0  0  0  0  0  0  0  0  0  0  0  0
   47.1808   23.6045   50.6858 C   0  0  0  0  0  0  0  0  0  0  0  0
   47.4866   23.1569   51.9168 C   0  0  0  0  0  0  0  0  0  0  0  0
   46.5866   22.6876   49.7421 C   0  0  0  0  0  0  0  0  0  0  0  0
   47.2648   21.7600   52.3446 C   0  0  0  0  0  0  0  0  0  0  0  0
   46.3239   21.3722   50.0964 C   0  0  0  0  0  0  0  0  0  0  0  0
   46.3933   19.5625   51.6071 C   0  0  0  0  0  0  0  0  0  0  0  0
   46.6914   20.8955   51.3860 C   0  0  0  0  0  0  0  0  0  0  0  0
   46.6441   17.0632   53.7478 H   0  0  0  0  0  0  0  0  0  0  0  0
   45.5028   17.2725   52.5987 H   0  0  0  0  0  0  0  0  0  0  0  0
   45.4867   17.9853   50.4295 H   0  0  0  0  0  0  0  0  0  0  0  0
   47.6105   19.0817   53.1657 H   0  0  0  0  0  0  0  0  0  0  0  0
   46.0490   19.2925   53.5947 H   0  0  0  0  0  0  0  0  0  0  0  0
   47.3615   24.5540   50.4293 H   0  0  0  0  0  0  0  0  0  0  0  0
   47.8824   23.7993   52.5730 H   0  0  0  0  0  0  0  0  0  0  0  0
   46.3614   23.0049   48.8209 H   0  0  0  0  0  0  0  0  0  0  0  0
   47.5073   21.4442   53.2619 H   0  0  0  0  0  0  0  0  0  0  0  0
  1  3  1  0  0  0  0
  1  9  1  0  0  0  0
  2  4  1  0  0  0  0
  3 10  2  0  0  0  0
  4 10  1  0  0  0  0
  5  6  2  0  0  0  0
  5  7  1  0  0  0  0
  6  8  1  0  0  0  0
  7  9  2  0  0  0  0
  8 11  2  0  0  0  0
  9 11  1  0  0  0  0
 10 11  1  0  0  0  0
  2 12  1  0  0  0  0
  2 13  1  0  0  0  0
  3 14  1  0  0  0  0
  4 15  1  0  0  0  0
  4 16  1  0  0  0  0
  5 17  1  0  0  0  0
  6 18  1  0  0  0  0
  7 19  1  0  0  0  0
  8 20  1  0  0  0  0
M  END
> <pdb_id>
4ABB

> <uniprot_id>
P00760

> <usmiles>
S1c2c(cccc2)C(=C1)CN

$$$$
KAI_A_258
          07212403073D 1   1.00000     0.00000     0
            
 30 30  0  0  0  0            999 V2000
  -44.7027  -23.3383  -20.8874 O   0  0  0  0  0  0  0  0  0  0  0  0
  -46.2000  -24.6883  -19.9775 O   0  0  0  0  0  0  0  0  0  0  0  0
  -42.4184  -19.7519  -17.6573 O   0  0  0  0  0  0  0  0  0  0  0  0
  -42.5549  -20.3796  -19.7497 O   0  0  0  0  0  0  0  0  0  0  0  0
  -44.5520  -21.0693  -16.8084 N   0  0  0  0  0  0  0  0  0  0  0  0
  -47.6065  -19.6396  -20.3131 C   0  0  0  0  0  0  0  0  0  0  0  0
  -48.5735  -19.7391  -18.0217 C   0  0  0  0  0  0  0  0  0  0  0  0
  -45.9052  -20.5061  -16.9263 C   0  0  0  0  0  0  0  0  0  0  0  0
  -46.1616  -22.3644  -19.1981 C   0  0  0  0  0  0  0  0  0  0  0  0
  -45.6546  -23.5281  -20.0720 C   0  0  0  0  0  0  0  0  0  0  0  0
  -42.9686  -20.4396  -18.5512 C   0  0  0  0  0  0  0  0  0  0  0  0
  -47.4367  -19.7680  -18.9000 C   0  0  0  0  0  0  0  0  0  0  0  0
  -44.1027  -21.3431  -18.1587 C   0  0  2  0  0  0  0  0  0  0  0  0
  -45.9931  -20.0448  -18.3441 C   0  0  2  0  0  0  0  0  0  0  0  0
  -45.2873  -21.1375  -19.0487 C   0  0  2  0  0  0  0  0  0  0  0  0
  -43.9965  -21.1741  -16.1032 H   0  0  0  0  0  0  0  0  0  0  0  0
  -46.8101  -19.6918  -20.9217 H   0  0  0  0  0  0  0  0  0  0  0  0
  -48.4838  -19.5019  -20.6814 H   0  0  0  0  0  0  0  0  0  0  0  0
  -48.8919  -20.6457  -17.8685 H   0  0  0  0  0  0  0  0  0  0  0  0
  -48.3125  -19.3352  -17.1640 H   0  0  0  0  0  0  0  0  0  0  0  0
  -49.2816  -19.2116  -18.4268 H   0  0  0  0  0  0  0  0  0  0  0  0
  -46.5725  -21.1857  -16.7517 H   0  0  0  0  0  0  0  0  0  0  0  0
  -46.0238  -19.7763  -16.3093 H   0  0  0  0  0  0  0  0  0  0  0  0
  -47.0048  -22.0818  -19.5484 H   0  0  0  0  0  0  0  0  0  0  0  0
  -46.3156  -22.7262  -18.2866 H   0  0  0  0  0  0  0  0  0  0  0  0
  -43.8247  -22.2547  -18.2509 H   0  0  0  0  0  0  0  0  0  0  0  0
  -45.4825  -19.2173  -18.4220 H   0  0  0  0  0  0  0  0  0  0  0  0
  -44.9642  -20.8051  -19.9104 H   0  0  0  0  0  0  0  0  0  0  0  0
  -44.2792  -22.4354  -20.9600 H   0  0  0  0  0  0  0  0  0  0  0  0
  -42.7474  -19.8021  -16.7143 H   0  0  0  0  0  0  0  0  0  0  0  0
  1 10  1  0  0  0  0
  2 10  2  0  0  0  0
  3 11  1  0  0  0  0
  4 11  2  0  0  0  0
  5  8  1  0  0  0  0
  5 13  1  0  0  0  0
  5 16  1  0  0  0  0
  6 12  2  0  0  0  0
  6 17  1  0  0  0  0
  6 18  1  0  0  0  0
  7 12  1  0  0  0  0
  7 19  1  0  0  0  0
  7 20  1  0  0  0  0
  7 21  1  0  0  0  0
  8 14  1  0  0  0  0
  8 22  1  0  0  0  0
  8 23  1  0  0  0  0
  9 10  1  0  0  0  0
  9 15  1  0  0  0  0
  9 24  1  0  0  0  0
  9 25  1  0  0  0  0
 11 13  1  0  0  0  0
 12 14  1  0  0  0  0
 13 15  1  0  0  0  0
 13 26  1  0  0  0  0
 14 15  1  0  0  0  0
 14 27  1  0  0  0  0
 15 28  1  0  0  0  0
  1 29  1  0  0  0  0
  3 30  1  0  0  0  0
M  END
> <pdb_id>
3U92

> <uniprot_id>
P42264

> <usmiles>
O=C(O)[C@H]1NC[C@H](C(=C)C)[C@@H]1CC(=O)O

$$$$
KAI_A_999
          07202403063D 1   1.00000     0.00000     0
            
 30 30  0  0  0  0            999 V2000
   16.2952   -0.3240   13.1582 O   0  0  0  0  0  0  0  0  0  0  0  0
   16.6312   -0.9491   15.2679 O   0  0  0  0  0  0  0  0  0  0  0  0
   14.3530    1.7942   19.2377 O   0  0  0  0  0  0  0  0  0  0  0  0
   15.7813    0.1264   18.7752 O   0  0  0  0  0  0  0  0  0  0  0  0
   14.1482    2.6116   16.7474 N   0  0  0  0  0  0  0  0  0  0  0  0
   17.5505    4.6919   15.1954 C   0  0  0  0  0  0  0  0  0  0  0  0
   19.0360    3.2596   16.4901 C   0  0  0  0  0  0  0  0  0  0  0  0
   15.0751    3.7613   16.4460 C   0  0  0  0  0  0  0  0  0  0  0  0
   16.3340    1.3506   14.8056 C   0  0  0  0  0  0  0  0  0  0  0  0
   16.4241   -0.0960   14.3813 C   0  0  0  0  0  0  0  0  0  0  0  0
   15.0349    1.0808   18.4715 C   0  0  0  0  0  0  0  0  0  0  0  0
   17.7259    3.7294   16.0106 C   0  0  0  0  0  0  0  0  0  0  0  0
   14.9153    1.4217   16.9510 C   0  0  2  0  0  0  0  0  0  0  0  0
   16.4508    2.9867   16.4795 C   0  0  2  0  0  0  0  0  0  0  0  0
   16.2967    1.5798   16.3208 C   0  0  2  0  0  0  0  0  0  0  0  0
   16.1308    0.4310   12.5234 H   0  0  0  0  0  0  0  0  0  0  0  0
   13.7919    2.5335   18.8654 H   0  0  0  0  0  0  0  0  0  0  0  0
   13.5226    2.4774   15.9789 H   0  0  0  0  0  0  0  0  0  0  0  0
   16.6250    4.9501   14.9182 H   0  0  0  0  0  0  0  0  0  0  0  0
   18.3383    5.1896   14.8324 H   0  0  0  0  0  0  0  0  0  0  0  0
   18.9054    2.4943   17.1203 H   0  0  0  0  0  0  0  0  0  0  0  0
   19.5879    2.9601   15.7119 H   0  0  0  0  0  0  0  0  0  0  0  0
   19.5046    4.0053   16.9638 H   0  0  0  0  0  0  0  0  0  0  0  0
   15.0288    4.4735   17.1465 H   0  0  0  0  0  0  0  0  0  0  0  0
   14.8934    4.1639   15.5488 H   0  0  0  0  0  0  0  0  0  0  0  0
   15.5001    1.7379   14.4126 H   0  0  0  0  0  0  0  0  0  0  0  0
   17.1302    1.8317   14.4386 H   0  0  0  0  0  0  0  0  0  0  0  0
   14.4472    0.6646   16.4954 H   0  0  0  0  0  0  0  0  0  0  0  0
   16.6149    3.0112   17.4656 H   0  0  0  0  0  0  0  0  0  0  0  0
   17.0007    1.0599   16.8047 H   0  0  0  0  0  0  0  0  0  0  0  0
  1 10  1  0  0  0  0
  2 10  2  0  0  0  0
  3 11  1  0  0  0  0
  4 11  2  0  0  0  0
  5  8  1  0  0  0  0
  5 13  1  0  0  0  0
  6 12  2  0  0  0  0
  7 12  1  0  0  0  0
  8 14  1  0  0  0  0
  9 10  1  0  0  0  0
  9 15  1  0  0  0  0
 11 13  1  0  0  0  0
 12 14  1  0  0  0  0
 13 15  1  0  0  0  0
 14 15  1  0  0  0  0
  1 16  1  0  0  0  0
  3 17  1  0  0  0  0
  5 18  1  0  0  0  0
  6 19  1  0  0  0  0
  6 20  1  0  0  0  0
  7 21  1  0  0  0  0
  7 22  1  0  0  0  0
  7 23  1  0  0  0  0
  8 24  1  0  0  0  0
  8 25  1  0  0  0  0
  9 26  1  0  0  0  0
  9 27  1  0  0  0  0
 13 28  1  0  0  0  0
 14 29  1  0  0  0  0
 15 30  1  0  0  0  0
M  END
> <pdb_id>
1P1N

> <uniprot_id>
P19491

> <usmiles>
O=C(O)[C@H]1NC[C@H](C(=C)C)[C@@H]1CC(=O)O

$$$$
KAI_B_401
          07202402433D 1   1.00000     0.00000     0
            
 32 32  0  0  0  0            999 V2000
    5.0833   66.9090   25.7840 O   0  0  0  0  0  0  0  0  0  0  0  0
    4.6831   66.4622   28.0806 O   0  0  0  0  0  0  0  0  0  0  0  0
    6.2540   69.7700   32.1156 O   0  0  0  0  0  0  0  0  0  0  0  0
    5.3039   67.5777   31.6656 O   0  0  0  0  0  0  0  0  0  0  0  0
    6.9802   70.1539   29.4615 N   0  0  0  0  0  0  0  0  0  0  0  0
   10.1604   67.5956   27.8241 C   0  0  0  0  0  0  0  0  0  0  0  0
    8.8167   65.6122   28.8024 C   0  0  0  0  0  0  0  0  0  0  0  0
    8.2832   69.5190   29.0536 C   0  0  0  0  0  0  0  0  0  0  0  0
    6.6235   67.8142   27.4744 C   0  0  0  0  0  0  0  0  0  0  0  0
    5.6266   66.7451   27.0690 C   0  0  0  0  0  0  0  0  0  0  0  0
    6.1405   68.6353   31.2982 C   0  0  0  0  0  0  0  0  0  0  0  0
    9.3156   67.0615   28.9779 C   0  0  0  0  0  0  0  0  0  0  0  0
    6.1388   68.9524   29.8234 C   0  0  2  0  0  0  0  0  0  0  0  0
    8.2436   68.0499   29.4857 C   0  0  2  0  0  0  0  0  0  0  0  0
    6.8300   67.8315   29.0011 C   0  0  2  0  0  0  0  0  0  0  0  0
    5.6828   67.1117   25.0098 H   0  0  0  0  0  0  0  0  0  0  0  0
    6.8547   70.5225   31.8457 H   0  0  0  0  0  0  0  0  0  0  0  0
    6.5741   70.6662   28.7048 H   0  0  0  0  0  0  0  0  0  0  0  0
   10.4385   68.5356   28.0218 H   0  0  0  0  0  0  0  0  0  0  0  0
   10.9733   67.0237   27.7136 H   0  0  0  0  0  0  0  0  0  0  0  0
    9.6229   67.5773   26.9810 H   0  0  0  0  0  0  0  0  0  0  0  0
    8.2752   65.3471   29.6002 H   0  0  0  0  0  0  0  0  0  0  0  0
    8.2505   65.5518   27.9803 H   0  0  0  0  0  0  0  0  0  0  0  0
    9.6009   64.9982   28.7128 H   0  0  0  0  0  0  0  0  0  0  0  0
    9.0446   69.9856   29.5037 H   0  0  0  0  0  0  0  0  0  0  0  0
    8.3951   69.5789   28.0617 H   0  0  0  0  0  0  0  0  0  0  0  0
    6.2818   68.7070   27.1811 H   0  0  0  0  0  0  0  0  0  0  0  0
    7.4994   67.6296   27.0286 H   0  0  0  0  0  0  0  0  0  0  0  0
    9.9623   67.0003   29.7381 H   0  0  0  0  0  0  0  0  0  0  0  0
    5.2006   69.0828   29.5027 H   0  0  0  0  0  0  0  0  0  0  0  0
    8.2391   68.0188   30.4853 H   0  0  0  0  0  0  0  0  0  0  0  0
    6.5169   66.9525   29.3609 H   0  0  0  0  0  0  0  0  0  0  0  0
  1 10  1  0  0  0  0
  2 10  2  0  0  0  0
  3 11  1  0  0  0  0
  4 11  2  0  0  0  0
  5  8  1  0  0  0  0
  5 13  1  0  0  0  0
  6 12  1  0  0  0  0
  7 12  1  0  0  0  0
  8 14  1  0  0  0  0
  9 10  1  0  0  0  0
  9 15  1  0  0  0  0
 11 13  1  0  0  0  0
 12 14  1  0  0  0  0
 13 15  1  0  0  0  0
 14 15  1  0  0  0  0
  1 16  1  0  0  0  0
  3 17  1  0  0  0  0
  5 18  1  0  0  0  0
  6 19  1  0  0  0  0
  6 20  1  0  0  0  0
  6 21  1  0  0  0  0
  7 22  1  0  0  0  0
  7 23  1  0  0  0  0
  7 24  1  0  0  0  0
  8 25  1  0  0  0  0
  8 26  1  0  0  0  0
  9 27  1  0  0  0  0
  9 28  1  0  0  0  0
 12 29  1  0  0  0  0
 13 30  1  0  0  0  0
 14 31  1  0  0  0  0
 15 32  1  0  0  0  0
M  END
> <pdb_id>
3T9H

> <uniprot_id>
P19491

> <usmiles>
O=C(O)[C@H]1NC[C@@H]([C@@H]1CC(=O)O)C(C)C

$$$$
KAI_B_900
          07202401353D 1   1.00000     0.00000     0
            
 32 32  0  0  0  0            999 V2000
    7.0267   11.3557    4.2281 O   0  0  0  0  0  0  0  0  0  0  0  0
    8.5422   12.9388    4.5327 O   0  0  0  0  0  0  0  0  0  0  0  0
    7.3587   16.9180    7.7647 O   0  0  0  0  0  0  0  0  0  0  0  0
    8.7709   16.3744    6.2493 O   0  0  0  0  0  0  0  0  0  0  0  0
    5.4284   15.3306    6.8294 N   0  0  0  0  0  0  0  0  0  0  0  0
    3.5349   15.8028    3.0671 C   0  0  0  0  0  0  0  0  0  0  0  0
    5.8234   16.2784    2.0482 C   0  0  0  0  0  0  0  0  0  0  0  0
    4.6004   15.7078    5.6544 C   0  0  0  0  0  0  0  0  0  0  0  0
    6.2578   13.6125    4.3535 C   0  0  0  0  0  0  0  0  0  0  0  0
    7.3551   12.5661    4.3817 C   0  0  0  0  0  0  0  0  0  0  0  0
    7.6804   16.1872    6.8113 C   0  0  0  0  0  0  0  0  0  0  0  0
    5.0328   15.5876    3.1549 C   0  0  0  0  0  0  0  0  0  0  0  0
    6.7895   15.0695    6.3598 C   0  0  2  0  0  0  0  0  0  0  0  0
    5.5863   15.9476    4.5264 C   0  0  2  0  0  0  0  0  0  0  0  0
    6.7044   14.9911    4.8423 C   0  0  2  0  0  0  0  0  0  0  0  0
    6.0645   11.1097    4.1113 H   0  0  0  0  0  0  0  0  0  0  0  0
    6.4832   16.7795    8.2276 H   0  0  0  0  0  0  0  0  0  0  0  0
    5.0540   14.5085    7.2583 H   0  0  0  0  0  0  0  0  0  0  0  0
    3.0846   15.3235    3.8204 H   0  0  0  0  0  0  0  0  0  0  0  0
    3.3346   16.7806    3.1270 H   0  0  0  0  0  0  0  0  0  0  0  0
    3.1974   15.4461    2.1960 H   0  0  0  0  0  0  0  0  0  0  0  0
    6.7986   16.0933    2.1698 H   0  0  0  0  0  0  0  0  0  0  0  0
    5.5263   15.9301    1.1591 H   0  0  0  0  0  0  0  0  0  0  0  0
    5.6635   17.2646    2.0902 H   0  0  0  0  0  0  0  0  0  0  0  0
    4.0793   16.5395    5.8462 H   0  0  0  0  0  0  0  0  0  0  0  0
    3.9713   14.9674    5.4176 H   0  0  0  0  0  0  0  0  0  0  0  0
    5.5086   13.2990    4.9369 H   0  0  0  0  0  0  0  0  0  0  0  0
    5.9323   13.7023    3.4123 H   0  0  0  0  0  0  0  0  0  0  0  0
    5.1839   14.6059    3.0386 H   0  0  0  0  0  0  0  0  0  0  0  0
    7.1178   14.2001    6.7292 H   0  0  0  0  0  0  0  0  0  0  0  0
    5.9147   16.8921    4.5385 H   0  0  0  0  0  0  0  0  0  0  0  0
    7.5616   15.2734    4.4116 H   0  0  0  0  0  0  0  0  0  0  0  0
  1 10  1  0  0  0  0
  2 10  2  0  0  0  0
  3 11  1  0  0  0  0
  4 11  2  0  0  0  0
  5  8  1  0  0  0  0
  5 13  1  0  0  0  0
  6 12  1  0  0  0  0
  7 12  1  0  0  0  0
  8 14  1  0  0  0  0
  9 10  1  0  0  0  0
  9 15  1  0  0  0  0
 11 13  1  0  0  0  0
 12 14  1  0  0  0  0
 13 15  1  0  0  0  0
 14 15  1  0  0  0  0
  1 16  1  0  0  0  0
  3 17  1  0  0  0  0
  5 18  1  0  0  0  0
  6 19  1  0  0  0  0
  6 20  1  0  0  0  0
  6 21  1  0  0  0  0
  7 22  1  0  0  0  0
  7 23  1  0  0  0  0
  7 24  1  0  0  0  0
  8 25  1  0  0  0  0
  8 26  1  0  0  0  0
  9 27  1  0  0  0  0
  9 28  1  0  0  0  0
 12 29  1  0  0  0  0
 13 30  1  0  0  0  0
 14 31  1  0  0  0  0
 15 32  1  0  0  0  0
M  END
> <pdb_id>
2XXV

> <uniprot_id>
P42260

> <usmiles>
O=C(O)[C@H]1NC[C@@H]([C@@H]1CC(=O)O)C(C)C

$$$$
KAI_B_999
          07202401353D 1   1.00000     0.00000     0
            
 30 30  0  0  0  0            999 V2000
    6.8926   11.2645    4.2698 O   0  0  0  0  0  0  0  0  0  0  0  0
    8.3960   12.8706    4.5676 O   0  0  0  0  0  0  0  0  0  0  0  0
    7.2448   16.9736    7.7541 O   0  0  0  0  0  0  0  0  0  0  0  0
    8.5854   16.5439    5.9775 O   0  0  0  0  0  0  0  0  0  0  0  0
    5.3043   15.2334    6.8744 N   0  0  0  0  0  0  0  0  0  0  0  0
    3.5578   15.7643    2.8958 C   0  0  0  0  0  0  0  0  0  0  0  0
    5.7819   16.0867    1.9255 C   0  0  0  0  0  0  0  0  0  0  0  0
    4.3723   15.6895    5.7483 C   0  0  0  0  0  0  0  0  0  0  0  0
    6.0565   13.4271    4.3618 C   0  0  0  0  0  0  0  0  0  0  0  0
    7.2271   12.4459    4.4050 C   0  0  0  0  0  0  0  0  0  0  0  0
    7.5832   16.3403    6.7238 C   0  0  0  0  0  0  0  0  0  0  0  0
    4.8311   15.9022    3.0487 C   0  0  0  0  0  0  0  0  0  0  0  0
    6.6501   15.1174    6.3373 C   0  0  2  0  0  0  0  0  0  0  0  0
    5.3983   15.8781    4.5302 C   0  0  2  0  0  0  0  0  0  0  0  0
    6.4750   14.8990    4.8502 C   0  0  2  0  0  0  0  0  0  0  0  0
    5.9287   11.0288    4.1453 H   0  0  0  0  0  0  0  0  0  0  0  0
    6.4224   16.7076    8.2569 H   0  0  0  0  0  0  0  0  0  0  0  0
    5.0026   14.3465    7.2242 H   0  0  0  0  0  0  0  0  0  0  0  0
    2.9685   15.6432    3.6946 H   0  0  0  0  0  0  0  0  0  0  0  0
    3.1599   15.7784    1.9785 H   0  0  0  0  0  0  0  0  0  0  0  0
    6.7110   16.1710    2.2857 H   0  0  0  0  0  0  0  0  0  0  0  0
    5.7320   15.2975    1.3135 H   0  0  0  0  0  0  0  0  0  0  0  0
    5.5438   16.9161    1.4201 H   0  0  0  0  0  0  0  0  0  0  0  0
    3.9176   16.5500    5.9780 H   0  0  0  0  0  0  0  0  0  0  0  0
    3.6844   14.9941    5.5408 H   0  0  0  0  0  0  0  0  0  0  0  0
    5.3289   13.0858    4.9568 H   0  0  0  0  0  0  0  0  0  0  0  0
    5.7194   13.4841    3.4220 H   0  0  0  0  0  0  0  0  0  0  0  0
    7.0599   14.2894    6.7201 H   0  0  0  0  0  0  0  0  0  0  0  0
    5.8105   16.7785    4.6695 H   0  0  0  0  0  0  0  0  0  0  0  0
    7.3141   15.1721    4.3798 H   0  0  0  0  0  0  0  0  0  0  0  0
  1 10  1  0  0  0  0
  2 10  2  0  0  0  0
  3 11  1  0  0  0  0
  4 11  2  0  0  0  0
  5  8  1  0  0  0  0
  5 13  1  0  0  0  0
  6 12  2  0  0  0  0
  7 12  1  0  0  0  0
  8 14  1  0  0  0  0
  9 10  1  0  0  0  0
  9 15  1  0  0  0  0
 11 13  1  0  0  0  0
 12 14  1  0  0  0  0
 13 15  1  0  0  0  0
 14 15  1  0  0  0  0
  1 16  1  0  0  0  0
  3 17  1  0  0  0  0
  5 18  1  0  0  0  0
  6 19  1  0  0  0  0
  6 20  1  0  0  0  0
  7 21  1  0  0  0  0
  7 22  1  0  0  0  0
  7 23  1  0  0  0  0
  8 24  1  0  0  0  0
  8 25  1  0  0  0  0
  9 26  1  0  0  0  0
  9 27  1  0  0  0  0
 13 28  1  0  0  0  0
 14 29  1  0  0  0  0
 15 30  1  0  0  0  0
M  END
> <pdb_id>
1TT1

> <uniprot_id>
P42260

> <usmiles>
O=C(O)[C@H]1NC[C@H](C(=C)C)[C@@H]1CC(=O)O

$$$$
KB7_A_201
          07202403243D 1   1.00000     0.00000     0
            
 43 45  0  0  0  0            999 V2000
  -32.1900    3.4140  -24.2030 O   0  0  0  0  0  0  0  0  0  0  0  0
  -29.3880    4.3460  -35.0150 O   0  0  0  0  0  0  0  0  0  0  0  0
  -29.2730    8.0200  -29.0670 O   0  0  0  0  0  0  0  0  0  0  0  0
  -28.7410    7.3370  -26.4770 O   0  0  0  0  0  0  0  0  0  0  0  0
  -30.5680    4.8710  -24.9120 O   0  0  0  0  0  0  0  0  0  0  0  0
  -29.3510    4.5360  -28.3140 O   0  0  0  0  0  0  0  0  0  0  0  0
  -25.3310    5.1130  -33.0200 N   0  0  0  0  0  0  0  0  0  0  0  0
  -31.9240    5.3780  -23.0930 N   0  0  0  0  0  0  0  0  0  0  0  0
  -30.6930    4.7660  -32.2600 N   0  0  0  0  0  0  0  0  0  0  0  0
  -27.3950    4.7310  -33.9960 N   0  0  0  0  0  0  0  0  0  0  0  0
  -27.2320    5.2220  -31.6750 N   0  0  0  0  0  0  0  0  0  0  0  0
  -29.4130    5.2410  -30.5140 N   0  0  0  0  0  0  0  0  0  0  0  0
  -32.2790    7.6880  -23.8970 C   0  0  0  0  0  0  0  0  0  0  0  0
  -30.4210    4.2670  -26.1860 C   0  0  0  0  0  0  0  0  0  0  0  0
  -30.6770    5.0400  -30.9330 C   0  0  0  0  0  0  0  0  0  0  0  0
  -31.3570    6.7200  -23.1840 C   0  0  0  0  0  0  0  0  0  0  0  0
  -31.6360    4.4870  -24.0310 C   0  0  0  0  0  0  0  0  0  0  0  0
  -26.6720    5.0130  -32.8960 C   0  0  0  0  0  0  0  0  0  0  0  0
  -28.7300    4.6060  -33.9770 C   0  0  0  0  0  0  0  0  0  0  0  0
  -29.0150    5.5920  -29.1610 C   0  0  1  0  0  0  0  0  0  0  0  0
  -29.7980    6.7830  -28.6230 C   0  0  1  0  0  0  0  0  0  0  0  0
  -29.7580    6.5470  -27.1020 C   0  0  1  0  0  0  0  0  0  0  0  0
  -29.4230    5.0550  -26.9730 C   0  0  2  0  0  0  0  0  0  0  0  0
  -28.5740    5.1190  -31.5330 C   0  0  0  0  0  0  0  0  0  0  0  0
  -29.4170    4.8020  -32.6900 C   0  0  0  0  0  0  0  0  0  0  0  0
  -29.8181    8.7684  -28.6891 H   0  0  0  0  0  0  0  0  0  0  0  0
  -28.7406    7.1616  -25.4925 H   0  0  0  0  0  0  0  0  0  0  0  0
  -24.7690    5.3215  -32.2196 H   0  0  0  0  0  0  0  0  0  0  0  0
  -24.9000    4.9785  -33.9123 H   0  0  0  0  0  0  0  0  0  0  0  0
  -32.5235    5.1334  -22.3309 H   0  0  0  0  0  0  0  0  0  0  0  0
  -26.9156    4.6094  -34.8652 H   0  0  0  0  0  0  0  0  0  0  0  0
  -31.8499    8.5905  -23.9350 H   0  0  0  0  0  0  0  0  0  0  0  0
  -32.4510    7.3613  -24.8264 H   0  0  0  0  0  0  0  0  0  0  0  0
  -33.1446    7.7511  -23.4003 H   0  0  0  0  0  0  0  0  0  0  0  0
  -31.3005    4.2655  -26.6620 H   0  0  0  0  0  0  0  0  0  0  0  0
  -30.0987    3.3265  -26.0782 H   0  0  0  0  0  0  0  0  0  0  0  0
  -31.4873    5.0863  -30.3488 H   0  0  0  0  0  0  0  0  0  0  0  0
  -30.4931    6.6706  -23.6853 H   0  0  0  0  0  0  0  0  0  0  0  0
  -31.1867    7.0603  -22.2592 H   0  0  0  0  0  0  0  0  0  0  0  0
  -28.0323    5.7729  -29.1214 H   0  0  0  0  0  0  0  0  0  0  0  0
  -30.7458    6.7085  -28.9330 H   0  0  0  0  0  0  0  0  0  0  0  0
  -30.6505    6.7410  -26.6949 H   0  0  0  0  0  0  0  0  0  0  0  0
  -28.5255    4.9616  -26.5420 H   0  0  0  0  0  0  0  0  0  0  0  0
  1 17  2  0  0  0  0
  2 19  2  0  0  0  0
  3 21  1  0  0  0  0
  4 22  1  0  0  0  0
  5 14  1  0  0  0  0
  5 17  1  0  0  0  0
  6 20  1  0  0  0  0
  6 23  1  0  0  0  0
  7 18  1  0  0  0  0
  8 16  1  0  0  0  0
  8 17  1  0  0  0  0
  9 15  2  0  0  0  0
  9 25  1  0  0  0  0
 10 18  1  0  0  0  0
 10 19  1  0  0  0  0
 11 18  2  0  0  0  0
 11 24  1  0  0  0  0
 12 15  1  0  0  0  0
 12 20  1  0  0  0  0
 12 24  1  0  0  0  0
 13 16  1  0  0  0  0
 14 23  1  0  0  0  0
 19 25  1  0  0  0  0
 20 21  1  0  0  0  0
 21 22  1  0  0  0  0
 22 23  1  0  0  0  0
 24 25  2  0  0  0  0
  3 26  1  0  0  0  0
  4 27  1  0  0  0  0
  7 28  1  0  0  0  0
  7 29  1  0  0  0  0
  8 30  1  0  0  0  0
 10 31  1  0  0  0  0
 13 32  1  0  0  0  0
 13 33  1  0  0  0  0
 13 34  1  0  0  0  0
 14 35  1  0  0  0  0
 14 36  1  0  0  0  0
 15 37  1  0  0  0  0
 16 38  1  0  0  0  0
 16 39  1  0  0  0  0
 20 40  1  0  0  0  0
 21 41  1  0  0  0  0
 22 42  1  0  0  0  0
 23 43  1  0  0  0  0
M  END
> <pdb_id>
6N3V

> <uniprot_id>
P49773

> <usmiles>
O=C(OC[C@H]1O[C@@H](N2C=3N=C(NC(=O)C3N=C2)N)[C@H](O)[C@@H]1O)NCC

$$$$
KBZ_A_306
          07192416293D 1   1.00000     0.00000     0
            
 18 18  0  0  0  0            999 V2000
   -5.9573    0.8949   16.8742 S   0  0  0  0  0  0  0  0  0  0  0  0
   -7.3875    0.9668   16.7416 O   0  0  0  0  0  0  0  0  0  0  0  0
   -5.4113    1.0348   18.2102 O   0  0  0  0  0  0  0  0  0  0  0  0
   -5.4127   -0.4282   16.1958 N   0  0  0  0  0  0  0  0  0  0  0  0
   -3.3039    6.6324   13.6015 N   0  0  0  0  0  0  0  0  0  0  0  0
   -3.7575    5.7059   14.0854 C   0  0  0  0  0  0  0  0  0  0  0  0
   -6.1647    3.3319   15.6394 C   0  0  0  0  0  0  0  0  0  0  0  0
   -3.9666    2.3430   15.6691 C   0  0  0  0  0  0  0  0  0  0  0  0
   -5.6529    4.4493   15.0065 C   0  0  0  0  0  0  0  0  0  0  0  0
   -3.4578    3.4663   15.0413 C   0  0  0  0  0  0  0  0  0  0  0  0
   -5.3216    2.2798   15.9692 C   0  0  0  0  0  0  0  0  0  0  0  0
   -4.2960    4.5245   14.7096 C   0  0  0  0  0  0  0  0  0  0  0  0
   -4.4183   -0.4681   16.2937 H   0  0  0  0  0  0  0  0  0  0  0  0
   -5.8236   -1.2242   16.6404 H   0  0  0  0  0  0  0  0  0  0  0  0
   -7.1391    3.2818   15.8588 H   0  0  0  0  0  0  0  0  0  0  0  0
   -3.3628    1.5816   15.9053 H   0  0  0  0  0  0  0  0  0  0  0  0
   -6.2597    5.2054   14.7615 H   0  0  0  0  0  0  0  0  0  0  0  0
   -2.4827    3.5171   14.8253 H   0  0  0  0  0  0  0  0  0  0  0  0
  1  2  2  0  0  0  0
  1  3  2  0  0  0  0
  1  4  1  0  0  0  0
  1 11  1  0  0  0  0
  5  6  3  0  0  0  0
  6 12  1  0  0  0  0
  7  9  1  0  0  0  0
  7 11  2  0  0  0  0
  8 10  2  0  0  0  0
  8 11  1  0  0  0  0
  9 12  2  0  0  0  0
 10 12  1  0  0  0  0
  4 13  1  0  0  0  0
  4 14  1  0  0  0  0
  7 15  1  0  0  0  0
  8 16  1  0  0  0  0
  9 17  1  0  0  0  0
 10 18  1  0  0  0  0
M  END
> <pdb_id>
6ROB

> <uniprot_id>
P00918

> <usmiles>
S(=O)(=O)(N)c1ccc(C#N)cc1

$$$$
KCD_A_202
          07202414463D 1   1.00000     0.00000     0
            
 51 53  0  0  0  0            999 V2000
   -3.4927   -5.1066   60.7927 F   0  0  0  0  0  0  0  0  0  0  0  0
   -4.8499   -6.9282   60.5693 F   0  0  0  0  0  0  0  0  0  0  0  0
   -4.1585   -6.3476   70.2054 O   0  0  0  0  0  0  0  0  0  0  0  0
   -6.9290   -9.8222   75.5746 O   0  0  0  0  0  0  0  0  0  0  0  0
   -2.8790   -7.0215   61.7622 O   0  0  0  0  0  0  0  0  0  0  0  0
   -3.9293   -5.5606   66.1298 N   0  0  0  0  0  0  0  0  0  0  0  0
   -5.2082   -8.3758   69.8181 N   0  0  0  0  0  0  0  0  0  0  0  0
   -5.9614  -11.9902   75.3255 C   0  0  0  0  0  0  0  0  0  0  0  0
   -8.3346  -11.5724   74.7433 C   0  0  0  0  0  0  0  0  0  0  0  0
   -4.1893   -5.8148   67.4341 C   0  0  0  0  0  0  0  0  0  0  0  0
   -3.0649   -8.6804   63.4867 C   0  0  0  0  0  0  0  0  0  0  0  0
   -7.0599   -9.0094   71.3035 C   0  0  0  0  0  0  0  0  0  0  0  0
   -4.6802   -9.7039   71.7809 C   0  0  0  0  0  0  0  0  0  0  0  0
   -3.3337   -8.9750   64.8336 C   0  0  0  0  0  0  0  0  0  0  0  0
   -7.4216   -9.3546   72.7538 C   0  0  0  0  0  0  0  0  0  0  0  0
   -5.0817  -10.0605   73.2115 C   0  0  0  0  0  0  0  0  0  0  0  0
   -3.3813   -6.3320   63.9888 C   0  0  0  0  0  0  0  0  0  0  0  0
   -3.9103   -8.1641   67.1182 C   0  0  0  0  0  0  0  0  0  0  0  0
   -4.0045   -6.2238   61.3498 C   0  0  0  0  0  0  0  0  0  0  0  0
   -4.5015   -7.2423   69.4289 C   0  0  0  0  0  0  0  0  0  0  0  0
   -3.0764   -7.3540   63.0724 C   0  0  0  0  0  0  0  0  0  0  0  0
   -5.5854   -8.6279   71.1934 C   0  0  3  0  0  0  0  0  0  0  0  0
   -3.6595   -6.5925   65.3148 C   0  0  0  0  0  0  0  0  0  0  0  0
   -4.1909   -7.0907   67.9800 C   0  0  0  0  0  0  0  0  0  0  0  0
   -3.6276   -7.9396   65.7539 C   0  0  0  0  0  0  0  0  0  0  0  0
   -6.5512  -10.5052   73.2933 C   0  0  3  0  0  0  0  0  0  0  0  0
   -6.9311  -10.9638   74.7188 C   0  0  0  0  0  0  0  0  0  0  0  0
   -7.5519   -9.1305   75.2092 H   0  0  0  0  0  0  0  0  0  0  0  0
   -5.4661   -9.0435   69.1198 H   0  0  0  0  0  0  0  0  0  0  0  0
   -5.9373  -12.8072   74.7493 H   0  0  0  0  0  0  0  0  0  0  0  0
   -5.0454  -11.5925   75.3785 H   0  0  0  0  0  0  0  0  0  0  0  0
   -6.2704  -12.2388   76.2435 H   0  0  0  0  0  0  0  0  0  0  0  0
   -8.3598  -12.3762   74.1489 H   0  0  0  0  0  0  0  0  0  0  0  0
   -8.5648  -11.8420   75.6784 H   0  0  0  0  0  0  0  0  0  0  0  0
   -8.9966  -10.8969   74.4187 H   0  0  0  0  0  0  0  0  0  0  0  0
   -4.3908   -5.0421   68.0360 H   0  0  0  0  0  0  0  0  0  0  0  0
   -2.8683   -9.4139   62.8360 H   0  0  0  0  0  0  0  0  0  0  0  0
   -7.6219   -8.2404   70.9987 H   0  0  0  0  0  0  0  0  0  0  0  0
   -7.2382   -9.8035   70.7224 H   0  0  0  0  0  0  0  0  0  0  0  0
   -4.7415  -10.5246   71.2129 H   0  0  0  0  0  0  0  0  0  0  0  0
   -3.7379   -9.3692   71.7826 H   0  0  0  0  0  0  0  0  0  0  0  0
   -3.3175   -9.9250   65.1455 H   0  0  0  0  0  0  0  0  0  0  0  0
   -8.3827   -9.6282   72.7929 H   0  0  0  0  0  0  0  0  0  0  0  0
   -7.2818   -8.5458   73.3251 H   0  0  0  0  0  0  0  0  0  0  0  0
   -4.9526   -9.2582   73.7943 H   0  0  0  0  0  0  0  0  0  0  0  0
   -4.4987  -10.8054   73.5359 H   0  0  0  0  0  0  0  0  0  0  0  0
   -3.3969   -5.3847   63.6688 H   0  0  0  0  0  0  0  0  0  0  0  0
   -3.9109   -9.0980   67.4756 H   0  0  0  0  0  0  0  0  0  0  0  0
   -4.5038   -5.9528   62.1728 H   0  0  0  0  0  0  0  0  0  0  0  0
   -5.4434   -7.7855   71.7132 H   0  0  0  0  0  0  0  0  0  0  0  0
   -6.6670  -11.2873   72.6810 H   0  0  0  0  0  0  0  0  0  0  0  0
  1 19  1  0  0  0  0
  2 19  1  0  0  0  0
  3 20  2  0  0  0  0
  4 27  1  0  0  0  0
  5 19  1  0  0  0  0
  5 21  1  0  0  0  0
  6 10  1  0  0  0  0
  6 23  2  0  0  0  0
  7 20  1  0  0  0  0
  7 22  1  0  0  0  0
  8 27  1  0  0  0  0
  9 27  1  0  0  0  0
 10 24  2  0  0  0  0
 11 14  2  0  0  0  0
 11 21  1  0  0  0  0
 12 15  1  0  0  0  0
 12 22  1  0  0  0  0
 13 16  1  0  0  0  0
 13 22  1  0  0  0  0
 14 25  1  0  0  0  0
 15 26  1  0  0  0  0
 16 26  1  0  0  0  0
 17 21  2  0  0  0  0
 17 23  1  0  0  0  0
 18 24  1  0  0  0  0
 18 25  2  0  0  0  0
 20 24  1  0  0  0  0
 23 25  1  0  0  0  0
 26 27  1  0  0  0  0
  4 28  1  0  0  0  0
  7 29  1  0  0  0  0
  8 30  1  0  0  0  0
  8 31  1  0  0  0  0
  8 32  1  0  0  0  0
  9 33  1  0  0  0  0
  9 34  1  0  0  0  0
  9 35  1  0  0  0  0
 10 36  1  0  0  0  0
 11 37  1  0  0  0  0
 12 38  1  0  0  0  0
 12 39  1  0  0  0  0
 13 40  1  0  0  0  0
 13 41  1  0  0  0  0
 14 42  1  0  0  0  0
 15 43  1  0  0  0  0
 15 44  1  0  0  0  0
 16 45  1  0  0  0  0
 16 46  1  0  0  0  0
 17 47  1  0  0  0  0
 18 48  1  0  0  0  0
 19 49  1  0  0  0  0
 22 50  1  0  0  0  0
 26 51  1  0  0  0  0
M  END
> <pdb_id>
6N4E

> <uniprot_id>
O60760

> <usmiles>
FC(F)Oc1cc2ncc(cc2cc1)C(=O)NC3CCC(C(O)(C)C)CC3

$$$$
KCH_A_1356
          07202411573D 1   1.00000     0.00000     0
            
 27 28  0  0  0  0            999 V2000
   -3.1584   98.9323   15.9282 O   0  0  0  0  0  0  0  0  0  0  0  0
   -1.4628  100.3189   15.7736 O   0  0  0  0  0  0  0  0  0  0  0  0
   -6.0075  104.3540   19.2177 O   0  0  0  0  0  0  0  0  0  0  0  0
   -8.1973   99.2852   20.1616 N   0  0  0  0  0  0  0  0  0  0  0  0
   -5.4612  103.2618   16.6940 N   0  0  0  0  0  0  0  0  0  0  0  0
   -4.6179  103.3695   15.6573 C   0  0  0  0  0  0  0  0  0  0  0  0
   -7.9286  101.6249   20.7694 C   0  0  0  0  0  0  0  0  0  0  0  0
   -3.6981  102.3665   15.3796 C   0  0  0  0  0  0  0  0  0  0  0  0
   -7.3854  102.8788   20.5341 C   0  0  0  0  0  0  0  0  0  0  0  0
   -6.8110  100.7683   18.8263 C   0  0  0  0  0  0  0  0  0  0  0  0
   -4.5305  101.1620   17.2493 C   0  0  0  0  0  0  0  0  0  0  0  0
   -2.6921  100.1018   15.9463 C   0  0  0  0  0  0  0  0  0  0  0  0
   -7.6413  100.5698   19.9176 C   0  0  0  0  0  0  0  0  0  0  0  0
   -6.5520  103.0790   19.4449 C   0  0  0  0  0  0  0  0  0  0  0  0
   -5.4314  102.1785   17.4911 C   0  0  0  0  0  0  0  0  0  0  0  0
   -3.6515  101.2393   16.1871 C   0  0  0  0  0  0  0  0  0  0  0  0
   -6.2734  102.0233   18.5835 C   0  0  0  0  0  0  0  0  0  0  0  0
   -4.1372   98.7820   16.0674 H   0  0  0  0  0  0  0  0  0  0  0  0
   -5.4052  104.5081   18.4345 H   0  0  0  0  0  0  0  0  0  0  0  0
   -7.9890   98.5251   19.5460 H   0  0  0  0  0  0  0  0  0  0  0  0
   -8.7968   99.1412   20.9488 H   0  0  0  0  0  0  0  0  0  0  0  0
   -4.6516  104.1827   15.0764 H   0  0  0  0  0  0  0  0  0  0  0  0
   -8.5293  101.4813   21.5559 H   0  0  0  0  0  0  0  0  0  0  0  0
   -3.0741  102.4561   14.6033 H   0  0  0  0  0  0  0  0  0  0  0  0
   -7.5948  103.6383   21.1500 H   0  0  0  0  0  0  0  0  0  0  0  0
   -6.5995  100.0066   18.2138 H   0  0  0  0  0  0  0  0  0  0  0  0
   -4.5140  100.3618   17.8489 H   0  0  0  0  0  0  0  0  0  0  0  0
  1 12  1  0  0  0  0
  2 12  2  0  0  0  0
  3 14  1  0  0  0  0
  4 13  1  0  0  0  0
  5  6  2  0  0  0  0
  5 15  1  0  0  0  0
  6  8  1  0  0  0  0
  7  9  1  0  0  0  0
  7 13  2  0  0  0  0
  8 16  2  0  0  0  0
  9 14  2  0  0  0  0
 10 13  1  0  0  0  0
 10 17  2  0  0  0  0
 11 15  2  0  0  0  0
 11 16  1  0  0  0  0
 12 16  1  0  0  0  0
 14 17  1  0  0  0  0
 15 17  1  0  0  0  0
  1 18  1  0  0  0  0
  3 19  1  0  0  0  0
  4 20  1  0  0  0  0
  4 21  1  0  0  0  0
  6 22  1  0  0  0  0
  7 23  1  0  0  0  0
  8 24  1  0  0  0  0
  9 25  1  0  0  0  0
 10 26  1  0  0  0  0
 11 27  1  0  0  0  0
M  END
> <pdb_id>
5A7Q

> <uniprot_id>
O75164

> <usmiles>
O=C(O)c1cc(ncc1)c2c(O)ccc(N)c2

$$$$
KD0_A_268
          07202412333D 1   1.00000     0.00000     0
            
 35 34  0  0  0  0            999 V2000
   39.6260   55.9760   15.3180 P   0  0  0  0  0  0  0  0  0  0  0  0
   39.7270   55.7430   13.7460 O   0  0  0  0  0  0  0  0  0  0  0  0
   39.1850   57.4810   15.6280 O   0  0  0  0  0  0  0  0  0  0  0  0
   40.9090   55.6160   15.9830 O   0  0  0  0  0  0  0  0  0  0  0  0
   31.1740   51.9720   22.8410 O   0  0  0  0  0  0  0  0  0  0  0  0
   33.3810   52.2120   23.3110 O   0  0  0  0  0  0  0  0  0  0  0  0
   31.8340   51.4820   20.2610 O   0  0  0  0  0  0  0  0  0  0  0  0
   38.5460   53.2410   18.1550 O   0  0  0  0  0  0  0  0  0  0  0  0
   34.6880   53.9870   20.6180 O   0  0  0  0  0  0  0  0  0  0  0  0
   35.1470   54.5220   17.5600 O   0  0  0  0  0  0  0  0  0  0  0  0
   35.5660   51.6450   18.0140 O   0  0  0  0  0  0  0  0  0  0  0  0
   38.4920   55.0150   15.7580 O   0  0  0  0  0  0  0  0  0  0  0  0
   37.8650   55.1850   16.9500 C   0  0  0  0  0  0  0  0  0  0  0  0
   34.2040   51.6600   20.6120 C   0  0  0  0  0  0  0  0  0  0  0  0
   32.4040   52.0100   22.5220 C   0  0  0  0  0  0  0  0  0  0  0  0
   32.7440   51.7120   21.0630 C   0  0  0  0  0  0  0  0  0  0  0  0
   37.4430   53.8060   17.4370 C   0  0  2  0  0  0  0  0  0  0  0  0
   34.5270   52.8820   19.7500 C   0  0  2  0  0  0  0  0  0  0  0  0
   36.2470   53.9850   18.3460 C   0  0  2  0  0  0  0  0  0  0  0  0
   35.8220   52.6600   18.9970 C   0  0  2  0  0  0  0  0  0  0  0  0
   40.0033   54.7989   13.5660 H   0  0  0  0  0  0  0  0  0  0  0  0
   39.1254   57.6138   16.6173 H   0  0  0  0  0  0  0  0  0  0  0  0
   30.4806   51.8054   22.1400 H   0  0  0  0  0  0  0  0  0  0  0  0
   38.2964   52.3316   18.4878 H   0  0  0  0  0  0  0  0  0  0  0  0
   34.9007   54.8038   20.0818 H   0  0  0  0  0  0  0  0  0  0  0  0
   34.3473   54.6464   18.1473 H   0  0  0  0  0  0  0  0  0  0  0  0
   36.4007   51.4680   17.4924 H   0  0  0  0  0  0  0  0  0  0  0  0
   37.0611   55.7683   16.8342 H   0  0  0  0  0  0  0  0  0  0  0  0
   38.4893   55.6048   17.6088 H   0  0  0  0  0  0  0  0  0  0  0  0
   34.3567   50.8282   20.0784 H   0  0  0  0  0  0  0  0  0  0  0  0
   34.7992   51.6545   21.4156 H   0  0  0  0  0  0  0  0  0  0  0  0
   37.2023   53.2242   16.6601 H   0  0  0  0  0  0  0  0  0  0  0  0
   33.7811   53.0559   19.1071 H   0  0  0  0  0  0  0  0  0  0  0  0
   36.4813   54.6392   19.0652 H   0  0  0  0  0  0  0  0  0  0  0  0
   36.5324   52.3491   19.6284 H   0  0  0  0  0  0  0  0  0  0  0  0
  1  2  1  0  0  0  0
  1  3  1  0  0  0  0
  1  4  2  0  0  0  0
  1 12  1  0  0  0  0
  5 15  1  0  0  0  0
  6 15  2  0  0  0  0
  7 16  2  0  0  0  0
  8 17  1  0  0  0  0
  9 18  1  0  0  0  0
 10 19  1  0  0  0  0
 11 20  1  0  0  0  0
 12 13  1  0  0  0  0
 13 17  1  0  0  0  0
 14 16  1  0  0  0  0
 14 18  1  0  0  0  0
 15 16  1  0  0  0  0
 17 19  1  0  0  0  0
 18 20  1  0  0  0  0
 19 20  1  0  0  0  0
  2 21  1  0  0  0  0
  3 22  1  0  0  0  0
  5 23  1  0  0  0  0
  8 24  1  0  0  0  0
  9 25  1  0  0  0  0
 10 26  1  0  0  0  0
 11 27  1  0  0  0  0
 13 28  1  0  0  0  0
 13 29  1  0  0  0  0
 14 30  1  0  0  0  0
 14 31  1  0  0  0  0
 17 32  1  0  0  0  0
 18 33  1  0  0  0  0
 19 34  1  0  0  0  0
 20 35  1  0  0  0  0
M  END
> <pdb_id>
3E12

> <uniprot_id>
O66496

> <usmiles>
P(=O)(OC[C@@H](O)[C@@H](O)[C@H](O)[C@H](O)CC(=O)C(=O)O)(O)O

$$$$
KE2_A_403
          07212403523D 1   1.00000     0.00000     0
            
 45 47  0  0  0  0            999 V2000
   -7.7664   16.6243  264.0324 O   0  0  0  0  0  0  0  0  0  0  0  0
   -9.2624   21.6998  264.6441 O   0  0  0  0  0  0  0  0  0  0  0  0
   -6.8654   18.6925  270.4464 O   0  0  0  0  0  0  0  0  0  0  0  0
  -14.1045   16.1081  268.1355 O   0  0  0  0  0  0  0  0  0  0  0  0
   -7.5861   20.2342  264.0287 N   0  0  0  0  0  0  0  0  0  0  0  0
   -9.3543   18.0631  264.7433 N   0  0  0  0  0  0  0  0  0  0  0  0
  -11.5296   15.0139  268.0866 C   0  0  0  0  0  0  0  0  0  0  0  0
   -6.3571   19.9174  268.4281 C   0  0  0  0  0  0  0  0  0  0  0  0
   -6.6730   17.6028  268.2855 C   0  0  0  0  0  0  0  0  0  0  0  0
  -13.2954   18.3223  267.5003 C   0  0  0  0  0  0  0  0  0  0  0  0
   -6.1305   19.8984  267.0741 C   0  0  0  0  0  0  0  0  0  0  0  0
   -6.4252   17.5917  266.9137 C   0  0  0  0  0  0  0  0  0  0  0  0
  -12.2167   19.0810  267.1696 C   0  0  0  0  0  0  0  0  0  0  0  0
   -5.8761   18.7395  264.8314 C   0  0  0  0  0  0  0  0  0  0  0  0
   -9.8527   19.5476  266.6096 C   0  0  0  0  0  0  0  0  0  0  0  0
  -10.7177   17.2854  267.3665 C   0  0  0  0  0  0  0  0  0  0  0  0
   -8.0542   17.7037  264.2458 C   0  0  0  0  0  0  0  0  0  0  0  0
   -8.8865   20.5964  264.5931 C   0  0  0  0  0  0  0  0  0  0  0  0
   -6.6451   18.7466  269.0466 C   0  0  0  0  0  0  0  0  0  0  0  0
  -13.0721   16.9511  267.7819 C   0  0  0  0  0  0  0  0  0  0  0  0
   -7.0990   18.8401  263.9395 C   0  0  1  0  0  0  0  0  0  0  0  0
   -9.7435   19.4619  265.0629 C   0  0  1  0  0  0  0  0  0  0  0  0
   -6.1555   18.7316  266.3030 C   0  0  0  0  0  0  0  0  0  0  0  0
  -10.9723   18.6059  267.0576 C   0  0  0  0  0  0  0  0  0  0  0  0
  -11.8088   16.4818  267.7130 C   0  0  0  0  0  0  0  0  0  0  0  0
   -7.0768   17.8194  270.8858 H   0  0  0  0  0  0  0  0  0  0  0  0
  -13.9194   15.1446  268.3290 H   0  0  0  0  0  0  0  0  0  0  0  0
   -6.9969   20.9658  263.6859 H   0  0  0  0  0  0  0  0  0  0  0  0
  -10.0289   17.3378  264.8808 H   0  0  0  0  0  0  0  0  0  0  0  0
  -12.3906   14.5574  268.3109 H   0  0  0  0  0  0  0  0  0  0  0  0
  -11.0977   14.5495  267.3134 H   0  0  0  0  0  0  0  0  0  0  0  0
  -10.9191   14.9817  268.8780 H   0  0  0  0  0  0  0  0  0  0  0  0
   -6.3109   20.7726  268.9442 H   0  0  0  0  0  0  0  0  0  0  0  0
   -6.8813   16.7357  268.7380 H   0  0  0  0  0  0  0  0  0  0  0  0
  -14.2131   18.7174  267.5433 H   0  0  0  0  0  0  0  0  0  0  0  0
   -5.9372   20.7652  266.6145 H   0  0  0  0  0  0  0  0  0  0  0  0
   -6.4513   16.7342  266.3999 H   0  0  0  0  0  0  0  0  0  0  0  0
  -12.3634   20.0554  266.9996 H   0  0  0  0  0  0  0  0  0  0  0  0
   -5.2845   19.5211  264.6335 H   0  0  0  0  0  0  0  0  0  0  0  0
   -5.3964   17.8922  264.6034 H   0  0  0  0  0  0  0  0  0  0  0  0
  -10.0679   20.4850  266.8832 H   0  0  0  0  0  0  0  0  0  0  0  0
   -8.9876   19.2689  267.0268 H   0  0  0  0  0  0  0  0  0  0  0  0
   -9.7883   16.9169  267.3435 H   0  0  0  0  0  0  0  0  0  0  0  0
   -6.7826   18.7051  263.0005 H   0  0  0  0  0  0  0  0  0  0  0  0
  -10.6604   19.6080  264.6914 H   0  0  0  0  0  0  0  0  0  0  0  0
  1 17  2  0  0  0  0
  2 18  2  0  0  0  0
  3 19  1  0  0  0  0
  4 20  1  0  0  0  0
  5 18  1  0  0  0  0
  5 21  1  0  0  0  0
  6 17  1  0  0  0  0
  6 22  1  0  0  0  0
  7 25  1  0  0  0  0
  8 11  1  0  0  0  0
  8 19  2  0  0  0  0
  9 12  2  0  0  0  0
  9 19  1  0  0  0  0
 10 13  1  0  0  0  0
 10 20  2  0  0  0  0
 11 23  2  0  0  0  0
 12 23  1  0  0  0  0
 13 24  2  0  0  0  0
 14 21  1  0  0  0  0
 14 23  1  0  0  0  0
 15 22  1  0  0  0  0
 15 24  1  0  0  0  0
 16 24  1  0  0  0  0
 16 25  2  0  0  0  0
 17 21  1  0  0  0  0
 18 22  1  0  0  0  0
 20 25  1  0  0  0  0
  3 26  1  0  0  0  0
  4 27  1  0  0  0  0
  5 28  1  0  0  0  0
  6 29  1  0  0  0  0
  7 30  1  0  0  0  0
  7 31  1  0  0  0  0
  7 32  1  0  0  0  0
  8 33  1  0  0  0  0
  9 34  1  0  0  0  0
 10 35  1  0  0  0  0
 11 36  1  0  0  0  0
 12 37  1  0  0  0  0
 13 38  1  0  0  0  0
 14 39  1  0  0  0  0
 14 40  1  0  0  0  0
 15 41  1  0  0  0  0
 15 42  1  0  0  0  0
 16 43  1  0  0  0  0
 21 44  1  0  0  0  0
 22 45  1  0  0  0  0
M  END
> <pdb_id>
6RQ0

> <uniprot_id>
P9WPP6

> <usmiles>
O=C1N[C@H](C(=O)N[C@H]1Cc2cc(c(O)cc2)C)Cc3ccc(O)cc3

$$$$
KED_A_303
          07212402403D 1   1.00000     0.00000     0
            
 26 27  0  0  0  0            999 V2000
   49.3429    9.2331   45.8530 P   0  0  0  0  0  0  0  0  0  0  0  0
   48.5782    9.7222   44.6214 O   0  0  0  0  0  0  0  0  0  0  0  0
   49.8200    7.7890   45.6173 O   0  0  0  0  0  0  0  0  0  0  0  0
   48.5698    9.2869   47.1009 O   0  0  0  0  0  0  0  0  0  0  0  0
   51.2610   13.8558   43.0752 O   0  0  0  0  0  0  0  0  0  0  0  0
   50.1848   14.2919   44.8514 N   0  0  0  0  0  0  0  0  0  0  0  0
   50.8484   10.3107   46.1376 C   0  0  0  0  0  0  0  0  0  0  0  0
   48.4893   14.4507   48.0161 C   0  0  0  0  0  0  0  0  0  0  0  0
   48.6709   13.1650   48.4633 C   0  0  0  0  0  0  0  0  0  0  0  0
   48.9990   14.7993   46.8114 C   0  0  0  0  0  0  0  0  0  0  0  0
   49.3719   12.2389   47.6951 C   0  0  0  0  0  0  0  0  0  0  0  0
   51.0857   12.1712   44.4971 C   0  0  0  0  0  0  0  0  0  0  0  0
   50.8613   13.4990   44.0743 C   0  0  0  0  0  0  0  0  0  0  0  0
   49.7001   13.9154   46.0222 C   0  0  0  0  0  0  0  0  0  0  0  0
   50.6205   11.7685   45.7068 C   0  0  0  0  0  0  0  0  0  0  0  0
   49.8806   12.6226   46.4843 C   0  0  0  0  0  0  0  0  0  0  0  0
   48.2674   10.6605   44.7729 H   0  0  0  0  0  0  0  0  0  0  0  0
   50.3201    7.4677   46.4215 H   0  0  0  0  0  0  0  0  0  0  0  0
   50.0236   15.2314   44.5491 H   0  0  0  0  0  0  0  0  0  0  0  0
   51.6135    9.9374   45.6129 H   0  0  0  0  0  0  0  0  0  0  0  0
   51.0735   10.2959   47.1118 H   0  0  0  0  0  0  0  0  0  0  0  0
   47.9898   15.1169   48.5700 H   0  0  0  0  0  0  0  0  0  0  0  0
   48.2962   12.8912   49.3491 H   0  0  0  0  0  0  0  0  0  0  0  0
   48.8612   15.7336   46.4825 H   0  0  0  0  0  0  0  0  0  0  0  0
   49.5021   11.3039   48.0247 H   0  0  0  0  0  0  0  0  0  0  0  0
   51.5833   11.5325   43.9101 H   0  0  0  0  0  0  0  0  0  0  0  0
  1  2  1  0  0  0  0
  1  3  1  0  0  0  0
  1  4  2  0  0  0  0
  1  7  1  0  0  0  0
  5 13  2  0  0  0  0
  6 13  1  0  0  0  0
  6 14  1  0  0  0  0
  7 15  1  0  0  0  0
  8  9  2  0  0  0  0
  8 10  1  0  0  0  0
  9 11  1  0  0  0  0
 10 14  2  0  0  0  0
 11 16  2  0  0  0  0
 12 13  1  0  0  0  0
 12 15  2  0  0  0  0
 14 16  1  0  0  0  0
 15 16  1  0  0  0  0
  2 17  1  0  0  0  0
  3 18  1  0  0  0  0
  6 19  1  0  0  0  0
  7 20  1  0  0  0  0
  7 21  1  0  0  0  0
  8 22  1  0  0  0  0
  9 23  1  0  0  0  0
 10 24  1  0  0  0  0
 11 25  1  0  0  0  0
 12 26  1  0  0  0  0
M  END
> <pdb_id>
6D1H

> <uniprot_id>
C7C422

> <usmiles>
P(=O)(O)(O)CC=1c2c(NC(=O)C1)cccc2

$$$$
KEH_A_403
          07212403523D 1   1.00000     0.00000     0
            
 42 44  0  0  0  0            999 V2000
   -6.6682   21.1514  270.2043 I   0  0  0  0  0  0  0  0  0  0  0  0
  -14.2757   16.0267  267.8865 O   0  0  0  0  0  0  0  0  0  0  0  0
   -9.2133   21.5722  264.7332 O   0  0  0  0  0  0  0  0  0  0  0  0
   -7.6087   16.7180  264.1200 O   0  0  0  0  0  0  0  0  0  0  0  0
   -7.0293   17.9550  270.6707 O   0  0  0  0  0  0  0  0  0  0  0  0
   -9.2017   18.0990  264.7496 N   0  0  0  0  0  0  0  0  0  0  0  0
   -7.6149   20.2228  264.2878 N   0  0  0  0  0  0  0  0  0  0  0  0
  -13.4151   18.1920  267.5326 C   0  0  0  0  0  0  0  0  0  0  0  0
  -12.0059   16.2869  267.5080 C   0  0  0  0  0  0  0  0  0  0  0  0
   -6.6691   17.1626  268.4963 C   0  0  0  0  0  0  0  0  0  0  0  0
  -12.3157   18.9741  267.2493 C   0  0  0  0  0  0  0  0  0  0  0  0
  -10.9116   17.0710  267.2457 C   0  0  0  0  0  0  0  0  0  0  0  0
   -6.3721   17.3157  267.1699 C   0  0  0  0  0  0  0  0  0  0  0  0
   -6.2697   19.6310  267.5612 C   0  0  0  0  0  0  0  0  0  0  0  0
   -9.8814   19.3563  266.7478 C   0  0  0  0  0  0  0  0  0  0  0  0
   -5.8289   18.8065  265.1860 C   0  0  0  0  0  0  0  0  0  0  0  0
  -13.2472   16.8333  267.6459 C   0  0  0  0  0  0  0  0  0  0  0  0
   -6.5447   19.4807  268.9146 C   0  0  0  0  0  0  0  0  0  0  0  0
   -8.8009   20.4740  264.7153 C   0  0  0  0  0  0  0  0  0  0  0  0
   -7.9832   17.8184  264.3722 C   0  0  0  0  0  0  0  0  0  0  0  0
   -6.7568   18.2021  269.3845 C   0  0  0  0  0  0  0  0  0  0  0  0
  -11.0552   18.4396  267.0974 C   0  0  0  0  0  0  0  0  0  0  0  0
   -6.1651   18.5833  266.6760 C   0  0  0  0  0  0  0  0  0  0  0  0
   -9.6547   19.3804  265.2218 C   0  0  1  0  0  0  0  0  0  0  0  0
   -6.9958   18.9271  264.2272 C   0  0  1  0  0  0  0  0  0  0  0  0
  -14.1299   15.0405  267.9651 H   0  0  0  0  0  0  0  0  0  0  0  0
   -7.0941   18.7108  271.3223 H   0  0  0  0  0  0  0  0  0  0  0  0
   -9.8760   17.3618  264.7068 H   0  0  0  0  0  0  0  0  0  0  0  0
   -7.0734   21.0002  263.9680 H   0  0  0  0  0  0  0  0  0  0  0  0
  -14.3174   18.6058  267.6533 H   0  0  0  0  0  0  0  0  0  0  0  0
  -11.8913   15.2977  267.5995 H   0  0  0  0  0  0  0  0  0  0  0  0
   -6.8318   16.2370  268.8380 H   0  0  0  0  0  0  0  0  0  0  0  0
  -12.4373   19.9618  267.1509 H   0  0  0  0  0  0  0  0  0  0  0  0
  -10.0072   16.6527  267.1612 H   0  0  0  0  0  0  0  0  0  0  0  0
   -6.3066   16.5192  266.5688 H   0  0  0  0  0  0  0  0  0  0  0  0
   -6.1398   20.5578  267.2088 H   0  0  0  0  0  0  0  0  0  0  0  0
   -9.0547   19.0197  267.1986 H   0  0  0  0  0  0  0  0  0  0  0  0
  -10.0809   20.2831  267.0661 H   0  0  0  0  0  0  0  0  0  0  0  0
   -5.2693   18.0346  264.8843 H   0  0  0  0  0  0  0  0  0  0  0  0
   -5.2962   19.6502  265.1202 H   0  0  0  0  0  0  0  0  0  0  0  0
  -10.5557   19.5221  264.8118 H   0  0  0  0  0  0  0  0  0  0  0  0
   -6.6126   18.8424  263.3074 H   0  0  0  0  0  0  0  0  0  0  0  0
  1 18  1  0  0  0  0
  2 17  1  0  0  0  0
  3 19  2  0  0  0  0
  4 20  2  0  0  0  0
  5 21  1  0  0  0  0
  6 20  1  0  0  0  0
  6 24  1  0  0  0  0
  7 19  1  0  0  0  0
  7 25  1  0  0  0  0
  8 11  1  0  0  0  0
  8 17  2  0  0  0  0
  9 12  2  0  0  0  0
  9 17  1  0  0  0  0
 10 13  1  0  0  0  0
 10 21  2  0  0  0  0
 11 22  2  0  0  0  0
 12 22  1  0  0  0  0
 13 23  2  0  0  0  0
 14 18  2  0  0  0  0
 14 23  1  0  0  0  0
 15 22  1  0  0  0  0
 15 24  1  0  0  0  0
 16 23  1  0  0  0  0
 16 25  1  0  0  0  0
 18 21  1  0  0  0  0
 19 24  1  0  0  0  0
 20 25  1  0  0  0  0
  2 26  1  0  0  0  0
  5 27  1  0  0  0  0
  6 28  1  0  0  0  0
  7 29  1  0  0  0  0
  8 30  1  0  0  0  0
  9 31  1  0  0  0  0
 10 32  1  0  0  0  0
 11 33  1  0  0  0  0
 12 34  1  0  0  0  0
 13 35  1  0  0  0  0
 14 36  1  0  0  0  0
 15 37  1  0  0  0  0
 15 38  1  0  0  0  0
 16 39  1  0  0  0  0
 16 40  1  0  0  0  0
 24 41  1  0  0  0  0
 25 42  1  0  0  0  0
M  END
> <pdb_id>
6RQ8

> <uniprot_id>
P9WPP6

> <usmiles>
Ic1c(O)ccc(c1)C[C@@H]2NC(=O)[C@@H](NC2=O)Cc3ccc(O)cc3

$$$$
KEJ_A_1201
          07212403553D 1   1.00000     0.00000     0
            
 42 45  0  0  0  0            999 V2000
   38.2618   23.2020  238.5165 Cl  0  0  0  0  0  0  0  0  0  0  0  0
   42.8212   24.1512  246.1690 O   0  0  0  0  0  0  0  0  0  0  0  0
   40.9865   20.5880  243.0157 O   0  0  0  0  0  0  0  0  0  0  0  0
   39.7693   22.8369  248.9566 N   0  0  0  0  0  0  0  0  0  0  0  0
   43.0125   23.3887  241.2734 N   0  0  0  0  0  0  0  0  0  0  0  0
   39.0999   21.8349  245.5986 N   0  0  0  0  0  0  0  0  0  0  0  0
   41.5373   23.0626  244.6084 N   0  0  0  0  0  0  0  0  0  0  0  0
   43.9610   23.8798  242.1135 N   0  0  0  0  0  0  0  0  0  0  0  0
   39.0433   22.2187  247.9606 N   0  0  0  0  0  0  0  0  0  0  0  0
   40.6978   19.2321  243.3665 C   0  0  0  0  0  0  0  0  0  0  0  0
   45.1971   24.4182  241.5600 C   0  0  0  0  0  0  0  0  0  0  0  0
   37.9724   21.1533  245.7616 C   0  0  0  0  0  0  0  0  0  0  0  0
   40.8079   23.3746  248.3258 C   0  0  0  0  0  0  0  0  0  0  0  0
   37.8765   21.5095  248.1132 C   0  0  0  0  0  0  0  0  0  0  0  0
   43.6034   23.8217  243.4002 C   0  0  0  0  0  0  0  0  0  0  0  0
   37.3193   20.9722  247.0019 C   0  0  0  0  0  0  0  0  0  0  0  0
   38.5779   21.1846  240.2896 C   0  0  0  0  0  0  0  0  0  0  0  0
   39.2063   20.5562  241.3542 C   0  0  0  0  0  0  0  0  0  0  0  0
   40.1832   22.9818  240.4023 C   0  0  0  0  0  0  0  0  0  0  0  0
   41.8057   23.5104  245.8832 C   0  0  0  0  0  0  0  0  0  0  0  0
   39.0765   22.3870  239.8277 C   0  0  0  0  0  0  0  0  0  0  0  0
   39.6250   22.3735  246.7278 C   0  0  0  0  0  0  0  0  0  0  0  0
   40.3243   21.1344  241.9491 C   0  0  0  0  0  0  0  0  0  0  0  0
   42.3466   23.2863  243.4672 C   0  0  0  0  0  0  0  0  0  0  0  0
   42.0173   23.0152  242.0802 C   0  0  0  0  0  0  0  0  0  0  0  0
   40.7950   23.1301  246.9389 C   0  0  0  0  0  0  0  0  0  0  0  0
   40.8283   22.3622  241.4834 C   0  0  0  0  0  0  0  0  0  0  0  0
   40.6987   22.5338  244.4772 H   0  0  0  0  0  0  0  0  0  0  0  0
   41.2496   18.9677  244.1574 H   0  0  0  0  0  0  0  0  0  0  0  0
   39.7276   19.1458  243.5930 H   0  0  0  0  0  0  0  0  0  0  0  0
   40.9143   18.6347  242.5943 H   0  0  0  0  0  0  0  0  0  0  0  0
   45.7847   24.7363  242.3040 H   0  0  0  0  0  0  0  0  0  0  0  0
   45.6699   23.7041  241.0438 H   0  0  0  0  0  0  0  0  0  0  0  0
   44.9847   25.1836  240.9525 H   0  0  0  0  0  0  0  0  0  0  0  0
   37.5567   20.7397  244.9516 H   0  0  0  0  0  0  0  0  0  0  0  0
   41.5239   23.8982  248.7876 H   0  0  0  0  0  0  0  0  0  0  0  0
   37.4541   21.3942  249.0122 H   0  0  0  0  0  0  0  0  0  0  0  0
   44.1579   24.1179  244.1779 H   0  0  0  0  0  0  0  0  0  0  0  0
   36.4634   20.4581  247.0577 H   0  0  0  0  0  0  0  0  0  0  0  0
   37.7736   20.7723  239.8616 H   0  0  0  0  0  0  0  0  0  0  0  0
   38.8550   19.6845  241.6958 H   0  0  0  0  0  0  0  0  0  0  0  0
   40.5240   23.8527  240.0482 H   0  0  0  0  0  0  0  0  0  0  0  0
  1 21  1  0  0  0  0
  2 20  2  0  0  0  0
  3 10  1  0  0  0  0
  3 23  1  0  0  0  0
  4  9  1  0  0  0  0
  4 13  2  0  0  0  0
  5  8  1  0  0  0  0
  5 25  2  0  0  0  0
  6 12  2  0  0  0  0
  6 22  1  0  0  0  0
  7 20  1  0  0  0  0
  7 24  1  0  0  0  0
  8 11  1  0  0  0  0
  8 15  1  0  0  0  0
  9 14  1  0  0  0  0
  9 22  1  0  0  0  0
 12 16  1  0  0  0  0
 13 26  1  0  0  0  0
 14 16  2  0  0  0  0
 15 24  2  0  0  0  0
 17 18  2  0  0  0  0
 17 21  1  0  0  0  0
 18 23  1  0  0  0  0
 19 21  2  0  0  0  0
 19 27  1  0  0  0  0
 20 26  1  0  0  0  0
 22 26  2  0  0  0  0
 23 27  2  0  0  0  0
 24 25  1  0  0  0  0
 25 27  1  0  0  0  0
  7 28  1  0  0  0  0
 10 29  1  0  0  0  0
 10 30  1  0  0  0  0
 10 31  1  0  0  0  0
 11 32  1  0  0  0  0
 11 33  1  0  0  0  0
 11 34  1  0  0  0  0
 12 35  1  0  0  0  0
 13 36  1  0  0  0  0
 14 37  1  0  0  0  0
 15 38  1  0  0  0  0
 16 39  1  0  0  0  0
 17 40  1  0  0  0  0
 18 41  1  0  0  0  0
 19 42  1  0  0  0  0
M  END
> <pdb_id>
6N77

> <uniprot_id>
P23458

> <usmiles>
Clc1cc(c(OC)cc1)C2=NN(C=C2NC(=O)C3=C4N=CC=CN4N=C3)C

$$$$
KEL_X_707
          07202400553D 1   1.00000     0.00000     0
            
 39 39  0  0  0  0            999 V2000
   36.5155    3.1286    3.3343 O   0  0  0  0  0  0  0  0  0  0  0  0
   34.1737    4.1743    3.3574 O   0  0  0  0  0  0  0  0  0  0  0  0
   33.9484   10.2105   -1.9032 O   0  0  0  0  0  0  0  0  0  0  0  0
   34.4697   10.6097    0.1400 O   0  0  0  0  0  0  0  0  0  0  0  0
   34.8894    7.5281   -0.4010 O   0  0  0  0  0  0  0  0  0  0  0  0
   36.1332    3.7564    2.3512 N   0  0  0  0  0  0  0  0  0  0  0  0
   33.1483    8.2829    0.8193 N   0  0  0  0  0  0  0  0  0  0  0  0
   31.3685    9.8027    0.0830 C   0  0  0  0  0  0  0  0  0  0  0  0
   36.3487   10.8734    4.1480 C   0  0  0  0  0  0  0  0  0  0  0  0
   36.1755    9.6989    4.8607 C   0  0  0  0  0  0  0  0  0  0  0  0
   36.4778   10.7901    2.7510 C   0  0  0  0  0  0  0  0  0  0  0  0
   36.0801    8.4402    4.2418 C   0  0  0  0  0  0  0  0  0  0  0  0
   36.3992    9.5394    2.1179 C   0  0  0  0  0  0  0  0  0  0  0  0
   34.5551    5.1856    1.2442 C   0  0  0  0  0  0  0  0  0  0  0  0
   36.0878    6.9750    2.1993 C   0  0  0  0  0  0  0  0  0  0  0  0
   34.9276    4.3033    2.4070 C   0  0  0  0  0  0  0  0  0  0  0  0
   33.7559   10.0532   -0.7009 C   0  0  0  0  0  0  0  0  0  0  0  0
   34.2351    7.5275    0.6361 C   0  0  0  0  0  0  0  0  0  0  0  0
   32.6677    9.0933   -0.2633 C   0  0  1  0  0  0  0  0  0  0  0  0
   36.1854    8.3528    2.8619 C   0  0  0  0  0  0  0  0  0  0  0  0
   34.6412    6.6261    1.7597 C   0  0  1  0  0  0  0  0  0  0  0  0
   37.4335    2.7700    3.1645 H   0  0  0  0  0  0  0  0  0  0  0  0
   33.3594    9.7512   -2.5682 H   0  0  0  0  0  0  0  0  0  0  0  0
   36.7094    3.8515    1.5394 H   0  0  0  0  0  0  0  0  0  0  0  0
   32.6754    8.2837    1.7004 H   0  0  0  0  0  0  0  0  0  0  0  0
   31.0715   10.3536   -0.6969 H   0  0  0  0  0  0  0  0  0  0  0  0
   30.6659    9.1248    0.2991 H   0  0  0  0  0  0  0  0  0  0  0  0
   31.5136   10.3963    0.8745 H   0  0  0  0  0  0  0  0  0  0  0  0
   36.3810   11.7572    4.6148 H   0  0  0  0  0  0  0  0  0  0  0  0
   36.1158    9.7481    5.8577 H   0  0  0  0  0  0  0  0  0  0  0  0
   36.6250   11.6182    2.2101 H   0  0  0  0  0  0  0  0  0  0  0  0
   35.9378    7.6166    4.7908 H   0  0  0  0  0  0  0  0  0  0  0  0
   36.4959    9.4851    1.1240 H   0  0  0  0  0  0  0  0  0  0  0  0
   33.6254    4.9817    0.9375 H   0  0  0  0  0  0  0  0  0  0  0  0
   35.1934    5.0493    0.4866 H   0  0  0  0  0  0  0  0  0  0  0  0
   36.4002    6.2834    2.8506 H   0  0  0  0  0  0  0  0  0  0  0  0
   36.6790    6.9647    1.3929 H   0  0  0  0  0  0  0  0  0  0  0  0
   32.4795    8.4832   -1.0330 H   0  0  0  0  0  0  0  0  0  0  0  0
   34.0162    6.7461    2.5310 H   0  0  0  0  0  0  0  0  0  0  0  0
  1  6  1  0  0  0  0
  2 16  2  0  0  0  0
  3 17  1  0  0  0  0
  4 17  2  0  0  0  0
  5 18  2  0  0  0  0
  6 16  1  0  0  0  0
  7 18  1  0  0  0  0
  7 19  1  0  0  0  0
  8 19  1  0  0  0  0
  9 10  2  0  0  0  0
  9 11  1  0  0  0  0
 10 12  1  0  0  0  0
 11 13  2  0  0  0  0
 12 20  2  0  0  0  0
 13 20  1  0  0  0  0
 14 16  1  0  0  0  0
 14 21  1  0  0  0  0
 15 20  1  0  0  0  0
 15 21  1  0  0  0  0
 17 19  1  0  0  0  0
 18 21  1  0  0  0  0
  1 22  1  0  0  0  0
  3 23  1  0  0  0  0
  6 24  1  0  0  0  0
  7 25  1  0  0  0  0
  8 26  1  0  0  0  0
  8 27  1  0  0  0  0
  8 28  1  0  0  0  0
  9 29  1  0  0  0  0
 10 30  1  0  0  0  0
 11 31  1  0  0  0  0
 12 32  1  0  0  0  0
 13 33  1  0  0  0  0
 14 34  1  0  0  0  0
 14 35  1  0  0  0  0
 15 36  1  0  0  0  0
 15 37  1  0  0  0  0
 19 38  1  0  0  0  0
 21 39  1  0  0  0  0
M  END
> <pdb_id>
3B7U

> <uniprot_id>
P09960

> <usmiles>
O=C(O)[C@@H](NC(=O)[C@H](Cc1ccccc1)CC(=O)NO)C

$$$$
KES_A_1201
          07212403553D 1   1.00000     0.00000     0
            
 39 42  0  0  0  0            999 V2000
   38.5365   22.6655  238.6987 Cl  0  0  0  0  0  0  0  0  0  0  0  0
   42.8006   19.0747  243.7127 F   0  0  0  0  0  0  0  0  0  0  0  0
   40.7196   18.1116  243.8497 F   0  0  0  0  0  0  0  0  0  0  0  0
   42.9283   23.8149  246.3514 O   0  0  0  0  0  0  0  0  0  0  0  0
   41.0272   20.3005  243.4437 O   0  0  0  0  0  0  0  0  0  0  0  0
   44.2305   23.3819  242.3668 N   0  0  0  0  0  0  0  0  0  0  0  0
   43.2707   22.8795  241.5589 N   0  0  0  0  0  0  0  0  0  0  0  0
   39.7750   22.6815  249.0145 N   0  0  0  0  0  0  0  0  0  0  0  0
   38.9870   21.9683  245.6095 N   0  0  0  0  0  0  0  0  0  0  0  0
   41.5547   22.9648  244.7181 N   0  0  0  0  0  0  0  0  0  0  0  0
   39.0101   22.1540  247.9997 N   0  0  0  0  0  0  0  0  0  0  0  0
   37.8781   21.2517  245.7545 C   0  0  0  0  0  0  0  0  0  0  0  0
   43.8286   23.4799  243.6352 C   0  0  0  0  0  0  0  0  0  0  0  0
   40.8219   23.2161  248.4010 C   0  0  0  0  0  0  0  0  0  0  0  0
   37.8592   21.4076  248.1313 C   0  0  0  0  0  0  0  0  0  0  0  0
   37.2886   20.9284  247.0043 C   0  0  0  0  0  0  0  0  0  0  0  0
   38.6692   20.8516  240.6833 C   0  0  0  0  0  0  0  0  0  0  0  0
   39.2602   20.2695  241.7903 C   0  0  0  0  0  0  0  0  0  0  0  0
   40.3643   22.5625  240.6708 C   0  0  0  0  0  0  0  0  0  0  0  0
   41.5302   19.0576  243.3614 C   0  0  0  0  0  0  0  0  0  0  0  0
   39.2363   21.9806  240.1337 C   0  0  0  0  0  0  0  0  0  0  0  0
   41.8470   23.3341  246.0085 C   0  0  0  0  0  0  0  0  0  0  0  0
   40.4071   20.8266  242.3351 C   0  0  0  0  0  0  0  0  0  0  0  0
   39.5623   22.3980  246.7680 C   0  0  0  0  0  0  0  0  0  0  0  0
   42.4829   23.0131  243.6510 C   0  0  0  0  0  0  0  0  0  0  0  0
   42.1982   22.6282  242.3188 C   0  0  0  0  0  0  0  0  0  0  0  0
   40.7786   23.0529  247.0082 C   0  0  0  0  0  0  0  0  0  0  0  0
   40.9751   21.9896  241.7881 C   0  0  0  0  0  0  0  0  0  0  0  0
   45.1400   23.6503  242.0494 H   0  0  0  0  0  0  0  0  0  0  0  0
   40.6290   22.6421  244.5206 H   0  0  0  0  0  0  0  0  0  0  0  0
   37.4279   20.9172  244.9266 H   0  0  0  0  0  0  0  0  0  0  0  0
   44.3616   23.8122  244.4133 H   0  0  0  0  0  0  0  0  0  0  0  0
   41.5635   23.6857  248.8801 H   0  0  0  0  0  0  0  0  0  0  0  0
   37.4600   21.2267  249.0301 H   0  0  0  0  0  0  0  0  0  0  0  0
   36.4684   20.3581  247.0498 H   0  0  0  0  0  0  0  0  0  0  0  0
   37.8400   20.4576  240.2867 H   0  0  0  0  0  0  0  0  0  0  0  0
   38.8609   19.4478  242.1970 H   0  0  0  0  0  0  0  0  0  0  0  0
   40.7441   23.3922  240.2617 H   0  0  0  0  0  0  0  0  0  0  0  0
   41.5540   18.8715  242.3792 H   0  0  0  0  0  0  0  0  0  0  0  0
  1 21  1  0  0  0  0
  2 20  1  0  0  0  0
  3 20  1  0  0  0  0
  4 22  2  0  0  0  0
  5 20  1  0  0  0  0
  5 23  1  0  0  0  0
  6  7  1  0  0  0  0
  6 13  1  0  0  0  0
  7 26  2  0  0  0  0
  8 11  1  0  0  0  0
  8 14  2  0  0  0  0
  9 12  2  0  0  0  0
  9 24  1  0  0  0  0
 10 22  1  0  0  0  0
 10 25  1  0  0  0  0
 11 15  1  0  0  0  0
 11 24  1  0  0  0  0
 12 16  1  0  0  0  0
 13 25  2  0  0  0  0
 14 27  1  0  0  0  0
 15 16  2  0  0  0  0
 17 18  2  0  0  0  0
 17 21  1  0  0  0  0
 18 23  1  0  0  0  0
 19 21  2  0  0  0  0
 19 28  1  0  0  0  0
 22 27  1  0  0  0  0
 23 28  2  0  0  0  0
 24 27  2  0  0  0  0
 25 26  1  0  0  0  0
 26 28  1  0  0  0  0
  6 29  1  0  0  0  0
 10 30  1  0  0  0  0
 12 31  1  0  0  0  0
 13 32  1  0  0  0  0
 14 33  1  0  0  0  0
 15 34  1  0  0  0  0
 16 35  1  0  0  0  0
 17 36  1  0  0  0  0
 18 37  1  0  0  0  0
 19 38  1  0  0  0  0
 20 39  1  0  0  0  0
M  END
> <pdb_id>
6N79

> <uniprot_id>
P23458

> <usmiles>
Clc1cc(c(OC(F)F)cc1)C2=NNC=C2NC(=O)C3=C4N=CC=CN4N=C3

$$$$
KEW_A_404
          07212403523D 1   1.00000     0.00000     0
            
 42 44  0  0  0  0            999 V2000
   -6.8094   20.5095  270.1912 Cl  0  0  0  0  0  0  0  0  0  0  0  0
  -14.2550   15.9687  267.9162 O   0  0  0  0  0  0  0  0  0  0  0  0
   -9.2152   21.5002  264.7526 O   0  0  0  0  0  0  0  0  0  0  0  0
   -7.5749   16.6389  264.0409 O   0  0  0  0  0  0  0  0  0  0  0  0
   -7.2418   17.9633  270.4562 O   0  0  0  0  0  0  0  0  0  0  0  0
   -9.1120   18.0016  264.7574 N   0  0  0  0  0  0  0  0  0  0  0  0
   -7.5060   20.2383  264.3057 N   0  0  0  0  0  0  0  0  0  0  0  0
  -11.9654   16.1817  267.4980 C   0  0  0  0  0  0  0  0  0  0  0  0
  -13.3525   18.0863  267.5208 C   0  0  0  0  0  0  0  0  0  0  0  0
   -6.7800   17.1641  268.3570 C   0  0  0  0  0  0  0  0  0  0  0  0
  -10.8906   17.0209  267.1954 C   0  0  0  0  0  0  0  0  0  0  0  0
  -12.2874   18.8665  267.2423 C   0  0  0  0  0  0  0  0  0  0  0  0
   -6.3898   17.3833  267.1371 C   0  0  0  0  0  0  0  0  0  0  0  0
   -6.2403   19.6762  267.6409 C   0  0  0  0  0  0  0  0  0  0  0  0
   -9.8995   19.2427  266.7308 C   0  0  0  0  0  0  0  0  0  0  0  0
   -5.6930   18.9230  265.2956 C   0  0  0  0  0  0  0  0  0  0  0  0
  -13.2100   16.7408  267.6217 C   0  0  0  0  0  0  0  0  0  0  0  0
   -6.6011   19.3911  268.9448 C   0  0  0  0  0  0  0  0  0  0  0  0
   -8.7397   20.3757  264.7268 C   0  0  0  0  0  0  0  0  0  0  0  0
   -7.8601   17.7702  264.3214 C   0  0  0  0  0  0  0  0  0  0  0  0
   -6.8927   18.2044  269.2463 C   0  0  0  0  0  0  0  0  0  0  0  0
  -11.0291   18.3664  267.0745 C   0  0  0  0  0  0  0  0  0  0  0  0
   -6.1437   18.6787  266.7256 C   0  0  0  0  0  0  0  0  0  0  0  0
   -9.6012   19.2244  265.2023 C   0  0  1  0  0  0  0  0  0  0  0  0
   -6.8210   18.9465  264.2356 C   0  0  1  0  0  0  0  0  0  0  0  0
  -15.1652   16.3727  268.0075 H   0  0  0  0  0  0  0  0  0  0  0  0
   -7.3267   18.7142  271.1112 H   0  0  0  0  0  0  0  0  0  0  0  0
   -9.7449   17.2273  264.7618 H   0  0  0  0  0  0  0  0  0  0  0  0
   -7.0081   21.0565  264.0181 H   0  0  0  0  0  0  0  0  0  0  0  0
  -11.8300   15.1986  267.6211 H   0  0  0  0  0  0  0  0  0  0  0  0
  -14.2521   18.5022  267.6537 H   0  0  0  0  0  0  0  0  0  0  0  0
   -6.9992   16.2333  268.6497 H   0  0  0  0  0  0  0  0  0  0  0  0
   -9.9859   16.6160  267.0629 H   0  0  0  0  0  0  0  0  0  0  0  0
  -12.4262   19.8530  267.1552 H   0  0  0  0  0  0  0  0  0  0  0  0
   -6.2688   16.6207  266.5017 H   0  0  0  0  0  0  0  0  0  0  0  0
   -6.0499   20.6202  267.3714 H   0  0  0  0  0  0  0  0  0  0  0  0
   -9.0867   18.9321  267.2234 H   0  0  0  0  0  0  0  0  0  0  0  0
  -10.1194   20.1783  267.0069 H   0  0  0  0  0  0  0  0  0  0  0  0
   -5.0515   18.1974  265.0467 H   0  0  0  0  0  0  0  0  0  0  0  0
   -5.2249   19.8062  265.2668 H   0  0  0  0  0  0  0  0  0  0  0  0
  -10.4859   19.3431  264.7515 H   0  0  0  0  0  0  0  0  0  0  0  0
   -6.3845   18.8911  263.3375 H   0  0  0  0  0  0  0  0  0  0  0  0
  1 18  1  0  0  0  0
  2 17  1  0  0  0  0
  3 19  2  0  0  0  0
  4 20  2  0  0  0  0
  5 21  1  0  0  0  0
  6 20  1  0  0  0  0
  6 24  1  0  0  0  0
  7 19  1  0  0  0  0
  7 25  1  0  0  0  0
  8 11  1  0  0  0  0
  8 17  2  0  0  0  0
  9 12  2  0  0  0  0
  9 17  1  0  0  0  0
 10 13  1  0  0  0  0
 10 21  2  0  0  0  0
 11 22  2  0  0  0  0
 12 22  1  0  0  0  0
 13 23  2  0  0  0  0
 14 18  2  0  0  0  0
 14 23  1  0  0  0  0
 15 22  1  0  0  0  0
 15 24  1  0  0  0  0
 16 23  1  0  0  0  0
 16 25  1  0  0  0  0
 18 21  1  0  0  0  0
 19 24  1  0  0  0  0
 20 25  1  0  0  0  0
  2 26  1  0  0  0  0
  5 27  1  0  0  0  0
  6 28  1  0  0  0  0
  7 29  1  0  0  0  0
  8 30  1  0  0  0  0
  9 31  1  0  0  0  0
 10 32  1  0  0  0  0
 11 33  1  0  0  0  0
 12 34  1  0  0  0  0
 13 35  1  0  0  0  0
 14 36  1  0  0  0  0
 15 37  1  0  0  0  0
 15 38  1  0  0  0  0
 16 39  1  0  0  0  0
 16 40  1  0  0  0  0
 24 41  1  0  0  0  0
 25 42  1  0  0  0  0
M  END
> <pdb_id>
6RQD

> <uniprot_id>
P9WPP6

> <usmiles>
Clc1c(O)ccc(c1)C[C@@H]2NC(=O)[C@@H](NC2=O)Cc3ccc(O)cc3

$$$$
KFH_A_304
          07192416293D 1   1.00000     0.00000     0
            
 17 17  0  0  0  0            999 V2000
   -6.0623    0.8792   16.9401 S   0  0  0  0  0  0  0  0  0  0  0  0
   -6.0370    5.7160   15.4360 F   0  0  0  0  0  0  0  0  0  0  0  0
   -3.6373    2.6783   12.7756 F   0  0  0  0  0  0  0  0  0  0  0  0
   -6.7445    3.7557   17.0840 F   0  0  0  0  0  0  0  0  0  0  0  0
   -4.4335    0.6637   14.3032 F   0  0  0  0  0  0  0  0  0  0  0  0
   -5.4212    1.1884   18.1846 O   0  0  0  0  0  0  0  0  0  0  0  0
   -7.5005    0.9137   16.8722 O   0  0  0  0  0  0  0  0  0  0  0  0
   -5.5406   -0.5104   16.3925 N   0  0  0  0  0  0  0  0  0  0  0  0
   -4.8234    4.2390   14.0762 C   0  0  0  0  0  0  0  0  0  0  0  0
   -5.5641    2.1499   15.8021 C   0  0  0  0  0  0  0  0  0  0  0  0
   -5.5990    4.4704   15.1787 C   0  0  0  0  0  0  0  0  0  0  0  0
   -4.4361    2.9470   13.8315 C   0  0  0  0  0  0  0  0  0  0  0  0
   -5.9665    3.4559   16.0309 C   0  0  0  0  0  0  0  0  0  0  0  0
   -4.8025    1.9098   14.6595 C   0  0  0  0  0  0  0  0  0  0  0  0
   -5.9928   -0.7177   15.5250 H   0  0  0  0  0  0  0  0  0  0  0  0
   -4.5520   -0.4626   16.2501 H   0  0  0  0  0  0  0  0  0  0  0  0
   -4.5486    4.9856   13.4703 H   0  0  0  0  0  0  0  0  0  0  0  0
  1  6  2  0  0  0  0
  1  7  2  0  0  0  0
  1  8  1  0  0  0  0
  1 10  1  0  0  0  0
  2 11  1  0  0  0  0
  3 12  1  0  0  0  0
  4 13  1  0  0  0  0
  5 14  1  0  0  0  0
  9 11  2  0  0  0  0
  9 12  1  0  0  0  0
 10 13  2  0  0  0  0
 10 14  1  0  0  0  0
 11 13  1  0  0  0  0
 12 14  2  0  0  0  0
  8 15  1  0  0  0  0
  8 16  1  0  0  0  0
  9 17  1  0  0  0  0
M  END
> <pdb_id>
6RRI

> <uniprot_id>
P00918

> <usmiles>
S(=O)(=O)(N)c1c(F)c(F)cc(F)c1F

$$$$
KFK_A_502
          07202411503D 1   1.00000     0.00000     0
            
 62 65  0  0  0  0            999 V2000
   19.8320  -20.7100  -25.6210 F   0  0  0  0  0  0  0  0  0  0  0  0
   20.4190  -18.3510  -26.8120 F   0  0  0  0  0  0  0  0  0  0  0  0
   22.9480  -17.2540  -26.6110 O   0  0  0  0  0  0  0  0  0  0  0  0
   22.9570  -11.9170  -24.4650 N   0  0  0  0  0  0  0  0  0  0  0  0
   29.0350  -18.0490  -22.8640 N   0  0  0  0  0  0  0  0  0  0  0  0
   24.3170  -12.1750  -24.5810 N   0  0  0  0  0  0  0  0  0  0  0  0
   28.9500  -17.6980  -24.2040 N   0  0  0  0  0  0  0  0  0  0  0  0
   27.9890  -20.3640  -20.7480 N   0  0  0  0  0  0  0  0  0  0  0  0
   25.2780  -11.3300  -23.8780 C   0  0  0  0  0  0  0  0  0  0  0  0
   30.1110  -17.1480  -24.8850 C   0  0  0  0  0  0  0  0  0  0  0  0
   27.2390  -21.3780  -21.5150 C   0  0  0  0  0  0  0  0  0  0  0  0
   29.4420  -20.5800  -20.7920 C   0  0  0  0  0  0  0  0  0  0  0  0
   20.8690  -12.8740  -25.3080 C   0  0  0  0  0  0  0  0  0  0  0  0
   25.9320  -13.7240  -25.6650 C   0  0  0  0  0  0  0  0  0  0  0  0
   22.8270  -16.0610  -25.7740 C   0  0  0  0  0  0  0  0  0  0  0  0
   27.5860  -18.9950  -21.0920 C   0  0  0  0  0  0  0  0  0  0  0  0
   22.0210  -20.8620  -24.7830 C   0  0  0  0  0  0  0  0  0  0  0  0
   23.0300  -14.8620  -26.6970 C   0  0  0  0  0  0  0  0  0  0  0  0
   27.1340  -17.7870  -25.9500 C   0  0  0  0  0  0  0  0  0  0  0  0
   25.8170  -18.1540  -26.1200 C   0  0  0  0  0  0  0  0  0  0  0  0
   23.2880  -20.3330  -24.6540 C   0  0  0  0  0  0  0  0  0  0  0  0
   25.6420  -18.8650  -23.8190 C   0  0  0  0  0  0  0  0  0  0  0  0
   21.0830  -20.1920  -25.5090 C   0  0  0  0  0  0  0  0  0  0  0  0
   21.3930  -18.9940  -26.1000 C   0  0  0  0  0  0  0  0  0  0  0  0
   22.6620  -18.4520  -25.9930 C   0  0  0  0  0  0  0  0  0  0  0  0
   22.3640  -12.8260  -25.2000 C   0  0  0  0  0  0  0  0  0  0  0  0
   27.8890  -18.5170  -22.4930 C   0  0  0  0  0  0  0  0  0  0  0  0
   24.5410  -13.2410  -25.3840 C   0  0  0  0  0  0  0  0  0  0  0  0
   27.7080  -17.9590  -24.6830 C   0  0  0  0  0  0  0  0  0  0  0  0
   25.0470  -18.6820  -25.0560 C   0  0  0  0  0  0  0  0  0  0  0  0
   23.3150  -13.6890  -25.8110 C   0  0  0  0  0  0  0  0  0  0  0  0
   23.6350  -19.1270  -25.2500 C   0  0  0  0  0  0  0  0  0  0  0  0
   26.9680  -18.4870  -23.6160 C   0  0  0  0  0  0  0  0  0  0  0  0
   26.2058  -11.6511  -24.0680 H   0  0  0  0  0  0  0  0  0  0  0  0
   25.1819  -10.3849  -24.1903 H   0  0  0  0  0  0  0  0  0  0  0  0
   25.1045  -11.3752  -22.8942 H   0  0  0  0  0  0  0  0  0  0  0  0
   29.8771  -16.9521  -25.8373 H   0  0  0  0  0  0  0  0  0  0  0  0
   30.3947  -16.3034  -24.4309 H   0  0  0  0  0  0  0  0  0  0  0  0
   30.8597  -17.8102  -24.8551 H   0  0  0  0  0  0  0  0  0  0  0  0
   26.2596  -21.1859  -21.4527 H   0  0  0  0  0  0  0  0  0  0  0  0
   27.5240  -21.3494  -22.4731 H   0  0  0  0  0  0  0  0  0  0  0  0
   27.4253  -22.2856  -21.1388 H   0  0  0  0  0  0  0  0  0  0  0  0
   29.9010  -19.8691  -20.2592 H   0  0  0  0  0  0  0  0  0  0  0  0
   29.6575  -21.4771  -20.4062 H   0  0  0  0  0  0  0  0  0  0  0  0
   29.7562  -20.5408  -21.7405 H   0  0  0  0  0  0  0  0  0  0  0  0
   20.6022  -13.6286  -25.9075 H   0  0  0  0  0  0  0  0  0  0  0  0
   20.4735  -13.0136  -24.4002 H   0  0  0  0  0  0  0  0  0  0  0  0
   20.5344  -12.0118  -25.6883 H   0  0  0  0  0  0  0  0  0  0  0  0
   25.8932  -14.5158  -26.2746 H   0  0  0  0  0  0  0  0  0  0  0  0
   26.4570  -12.9930  -26.1010 H   0  0  0  0  0  0  0  0  0  0  0  0
   26.3738  -13.9854  -24.8068 H   0  0  0  0  0  0  0  0  0  0  0  0
   23.5257  -16.0685  -25.0586 H   0  0  0  0  0  0  0  0  0  0  0  0
   21.9202  -16.0241  -25.3540 H   0  0  0  0  0  0  0  0  0  0  0  0
   28.0486  -18.3767  -20.4566 H   0  0  0  0  0  0  0  0  0  0  0  0
   26.5969  -18.9304  -20.9595 H   0  0  0  0  0  0  0  0  0  0  0  0
   21.7922  -21.7320  -24.3463 H   0  0  0  0  0  0  0  0  0  0  0  0
   22.2036  -14.6961  -27.2351 H   0  0  0  0  0  0  0  0  0  0  0  0
   23.8011  -15.0260  -27.3123 H   0  0  0  0  0  0  0  0  0  0  0  0
   27.6649  -17.4089  -26.7084 H   0  0  0  0  0  0  0  0  0  0  0  0
   25.3936  -18.0444  -27.0193 H   0  0  0  0  0  0  0  0  0  0  0  0
   23.9724  -20.8287  -24.1194 H   0  0  0  0  0  0  0  0  0  0  0  0
   25.1186  -19.2696  -23.0691 H   0  0  0  0  0  0  0  0  0  0  0  0
  1 23  1  0  0  0  0
  2 24  1  0  0  0  0
  3 15  1  0  0  0  0
  3 25  1  0  0  0  0
  4  6  1  0  0  0  0
  4 26  2  0  0  0  0
  5  7  1  0  0  0  0
  5 27  2  0  0  0  0
  6  9  1  0  0  0  0
  6 28  1  0  0  0  0
  7 10  1  0  0  0  0
  7 29  1  0  0  0  0
  8 11  1  0  0  0  0
  8 12  1  0  0  0  0
  8 16  1  0  0  0  0
 13 26  1  0  0  0  0
 14 28  1  0  0  0  0
 15 18  1  0  0  0  0
 16 27  1  0  0  0  0
 17 21  2  0  0  0  0
 17 23  1  0  0  0  0
 18 31  1  0  0  0  0
 19 20  1  0  0  0  0
 19 29  2  0  0  0  0
 20 30  2  0  0  0  0
 21 32  1  0  0  0  0
 22 30  1  0  0  0  0
 22 33  2  0  0  0  0
 23 24  2  0  0  0  0
 24 25  1  0  0  0  0
 25 32  2  0  0  0  0
 26 31  1  0  0  0  0
 27 33  1  0  0  0  0
 28 31  2  0  0  0  0
 29 33  1  0  0  0  0
 30 32  1  0  0  0  0
  9 34  1  0  0  0  0
  9 35  1  0  0  0  0
  9 36  1  0  0  0  0
 10 37  1  0  0  0  0
 10 38  1  0  0  0  0
 10 39  1  0  0  0  0
 11 40  1  0  0  0  0
 11 41  1  0  0  0  0
 11 42  1  0  0  0  0
 12 43  1  0  0  0  0
 12 44  1  0  0  0  0
 12 45  1  0  0  0  0
 13 46  1  0  0  0  0
 13 47  1  0  0  0  0
 13 48  1  0  0  0  0
 14 49  1  0  0  0  0
 14 50  1  0  0  0  0
 14 51  1  0  0  0  0
 15 52  1  0  0  0  0
 15 53  1  0  0  0  0
 16 54  1  0  0  0  0
 16 55  1  0  0  0  0
 17 56  1  0  0  0  0
 18 57  1  0  0  0  0
 18 58  1  0  0  0  0
 19 59  1  0  0  0  0
 20 60  1  0  0  0  0
 21 61  1  0  0  0  0
 22 62  1  0  0  0  0
M  END
> <pdb_id>
5V0W

> <uniprot_id>
nan

> <usmiles>
Fc1c(F)ccc(c1OCCC=2C(=NN(C2C)C)C)c3cc4c(N(N=C4CN(C)C)C)cc3

$$$$
KFQ_A_301
          07202414073D 1   1.00000     0.00000     0
            
 21 23  0  0  0  0            999 V2000
  -13.5467   -8.0619   43.6253 S   0  0  0  0  0  0  0  0  0  0  0  0
  -10.3230   -7.3200   38.3521 O   0  0  0  0  0  0  0  0  0  0  0  0
  -12.5066   -6.3826   41.7882 N   0  0  0  0  0  0  0  0  0  0  0  0
  -11.8041   -6.3910   40.6305 N   0  0  0  0  0  0  0  0  0  0  0  0
  -10.6585   -9.4797   39.1441 N   0  0  0  0  0  0  0  0  0  0  0  0
  -12.0576   -8.5001   41.2869 N   0  0  0  0  0  0  0  0  0  0  0  0
  -11.4817  -12.6321   40.8693 C   0  0  0  0  0  0  0  0  0  0  0  0
  -12.2065  -12.1733   41.9860 C   0  0  0  0  0  0  0  0  0  0  0  0
  -10.9727  -11.7494   39.9280 C   0  0  0  0  0  0  0  0  0  0  0  0
  -12.4161  -10.8161   42.1573 C   0  0  0  0  0  0  0  0  0  0  0  0
  -12.6576   -7.6374   42.1761 C   0  0  0  0  0  0  0  0  0  0  0  0
  -10.7810   -8.1345   39.1937 C   0  0  0  0  0  0  0  0  0  0  0  0
  -11.5334   -7.6608   40.3464 C   0  0  0  0  0  0  0  0  0  0  0  0
  -11.1783  -10.3763   40.0935 C   0  0  0  0  0  0  0  0  0  0  0  0
  -11.8936   -9.9118   41.2168 C   0  0  0  0  0  0  0  0  0  0  0  0
  -12.8495   -5.5728   42.2642 H   0  0  0  0  0  0  0  0  0  0  0  0
  -10.1582   -9.8680   38.3702 H   0  0  0  0  0  0  0  0  0  0  0  0
  -11.3309  -13.6138   40.7526 H   0  0  0  0  0  0  0  0  0  0  0  0
  -12.5683  -12.8254   42.6523 H   0  0  0  0  0  0  0  0  0  0  0  0
  -10.4634  -12.0919   39.1385 H   0  0  0  0  0  0  0  0  0  0  0  0
  -12.9350  -10.4816   42.9440 H   0  0  0  0  0  0  0  0  0  0  0  0
  1 11  2  0  0  0  0
  2 12  2  0  0  0  0
  3  4  1  0  0  0  0
  3 11  1  0  0  0  0
  4 13  2  0  0  0  0
  5 12  1  0  0  0  0
  5 14  1  0  0  0  0
  6 11  1  0  0  0  0
  6 13  1  0  0  0  0
  6 15  1  0  0  0  0
  7  8  2  0  0  0  0
  7  9  1  0  0  0  0
  8 10  1  0  0  0  0
  9 14  2  0  0  0  0
 10 15  2  0  0  0  0
 12 13  1  0  0  0  0
 14 15  1  0  0  0  0
  3 16  1  0  0  0  0
  5 17  1  0  0  0  0
  7 18  1  0  0  0  0
  8 19  1  0  0  0  0
  9 20  1  0  0  0  0
 10 21  1  0  0  0  0
M  END
> <pdb_id>
4KFQ

> <uniprot_id>
P35439

> <usmiles>
S=C1N2c3c(NC(=O)C2=NN1)cccc3

$$$$
KGM_A_201
          07202405373D 1   1.00000     0.00000     0
            
 43 43  0  0  0  0            999 V2000
   14.0310   13.6583  -13.4602 O   0  0  0  0  0  0  0  0  0  0  0  0
   10.4951   11.4928  -14.8183 O   0  0  0  0  0  0  0  0  0  0  0  0
   11.1729   13.9521  -11.3100 O   0  0  0  0  0  0  0  0  0  0  0  0
    9.2281   12.0373  -12.3733 O   0  0  0  0  0  0  0  0  0  0  0  0
    9.6539   15.0028  -15.4858 O   0  0  0  0  0  0  0  0  0  0  0  0
   11.7077   14.1741  -14.9492 O   0  0  0  0  0  0  0  0  0  0  0  0
    8.6331   23.4514  -17.0590 C   0  0  0  0  0  0  0  0  0  0  0  0
   10.0443   16.1323  -16.3137 C   0  0  0  0  0  0  0  0  0  0  0  0
   13.2682   14.8626  -13.2910 C   0  0  0  0  0  0  0  0  0  0  0  0
    8.1640   22.1686  -16.3339 C   0  0  0  0  0  0  0  0  0  0  0  0
    9.1411   17.2741  -15.7846 C   0  0  0  0  0  0  0  0  0  0  0  0
    8.9610   20.9957  -16.8211 C   0  0  0  0  0  0  0  0  0  0  0  0
    9.4290   18.6103  -16.3888 C   0  0  0  0  0  0  0  0  0  0  0  0
    8.6592   19.6887  -16.1274 C   0  0  0  0  0  0  0  0  0  0  0  0
   10.3946   13.8052  -15.4872 C   0  0  1  0  0  0  0  0  0  0  0  0
   11.7653   14.5499  -13.5595 C   0  0  2  0  0  0  0  0  0  0  0  0
    9.7494   12.6792  -14.6184 C   0  0  2  0  0  0  0  0  0  0  0  0
   11.1952   13.4404  -12.6109 C   0  0  2  0  0  0  0  0  0  0  0  0
    9.7692   13.1179  -13.0945 C   0  0  2  0  0  0  0  0  0  0  0  0
   14.9977   13.8493  -13.2897 H   0  0  0  0  0  0  0  0  0  0  0  0
   10.1004   10.7548  -14.2709 H   0  0  0  0  0  0  0  0  0  0  0  0
   10.8117   13.2596  -10.6855 H   0  0  0  0  0  0  0  0  0  0  0  0
    9.2159   12.2600  -11.3984 H   0  0  0  0  0  0  0  0  0  0  0  0
    8.1005   24.2324  -16.7329 H   0  0  0  0  0  0  0  0  0  0  0  0
    9.6026   23.6063  -16.8687 H   0  0  0  0  0  0  0  0  0  0  0  0
    8.4997   23.3451  -18.0443 H   0  0  0  0  0  0  0  0  0  0  0  0
    9.8647   15.9495  -17.2803 H   0  0  0  0  0  0  0  0  0  0  0  0
   11.0120   16.3519  -16.1902 H   0  0  0  0  0  0  0  0  0  0  0  0
   13.5875   15.5558  -13.9371 H   0  0  0  0  0  0  0  0  0  0  0  0
   13.3788   15.2015  -12.3567 H   0  0  0  0  0  0  0  0  0  0  0  0
    7.1945   22.0143  -16.5243 H   0  0  0  0  0  0  0  0  0  0  0  0
    8.2973   22.2754  -15.3486 H   0  0  0  0  0  0  0  0  0  0  0  0
    9.2691   17.3428  -14.7952 H   0  0  0  0  0  0  0  0  0  0  0  0
    8.1895   17.0388  -15.9820 H   0  0  0  0  0  0  0  0  0  0  0  0
    9.9303   21.2018  -16.6870 H   0  0  0  0  0  0  0  0  0  0  0  0
    8.7770   20.8791  -17.7970 H   0  0  0  0  0  0  0  0  0  0  0  0
   10.2122   18.7084  -17.0027 H   0  0  0  0  0  0  0  0  0  0  0  0
    7.8982   19.6225  -15.4821 H   0  0  0  0  0  0  0  0  0  0  0  0
   10.4998   13.4806  -16.4272 H   0  0  0  0  0  0  0  0  0  0  0  0
   11.2344   15.3874  -13.4304 H   0  0  0  0  0  0  0  0  0  0  0  0
    8.8045   12.5324  -14.9109 H   0  0  0  0  0  0  0  0  0  0  0  0
   11.7683   12.6219  -12.6515 H   0  0  0  0  0  0  0  0  0  0  0  0
    9.1877   13.9223  -12.9731 H   0  0  0  0  0  0  0  0  0  0  0  0
  1  9  1  0  0  0  0
  2 17  1  0  0  0  0
  3 18  1  0  0  0  0
  4 19  1  0  0  0  0
  5  8  1  0  0  0  0
  5 15  1  0  0  0  0
  6 15  1  0  0  0  0
  6 16  1  0  0  0  0
  7 10  1  0  0  0  0
  8 11  1  0  0  0  0
  9 16  1  0  0  0  0
 10 12  1  0  0  0  0
 11 13  1  0  0  0  0
 12 14  1  0  0  0  0
 13 14  2  0  0  0  0
 15 17  1  0  0  0  0
 16 18  1  0  0  0  0
 17 19  1  0  0  0  0
 18 19  1  0  0  0  0
  1 20  1  0  0  0  0
  2 21  1  0  0  0  0
  3 22  1  0  0  0  0
  4 23  1  0  0  0  0
  7 24  1  0  0  0  0
  7 25  1  0  0  0  0
  7 26  1  0  0  0  0
  8 27  1  0  0  0  0
  8 28  1  0  0  0  0
  9 29  1  0  0  0  0
  9 30  1  0  0  0  0
 10 31  1  0  0  0  0
 10 32  1  0  0  0  0
 11 33  1  0  0  0  0
 11 34  1  0  0  0  0
 12 35  1  0  0  0  0
 12 36  1  0  0  0  0
 13 37  1  0  0  0  0
 14 38  1  0  0  0  0
 15 39  1  0  0  0  0
 16 40  1  0  0  0  0
 17 41  1  0  0  0  0
 18 42  1  0  0  0  0
 19 43  1  0  0  0  0
M  END
> <pdb_id>
4LOV

> <uniprot_id>
P08191

> <usmiles>
O1[C@@H]([C@@H](O)[C@H](O)[C@H](O)[C@H]1OCC/C=C/CCC)CO

$$$$
KGM_A_301
          07202405373D 1   1.00000     0.00000     0
            
 45 45  0  0  0  0            999 V2000
   13.8360   13.6617  -13.5179 O   0  0  0  0  0  0  0  0  0  0  0  0
   10.4517   11.4923  -14.7011 O   0  0  0  0  0  0  0  0  0  0  0  0
   11.0394   14.0153  -11.3636 O   0  0  0  0  0  0  0  0  0  0  0  0
    9.2304   11.9769  -12.2604 O   0  0  0  0  0  0  0  0  0  0  0  0
    9.2869   14.8680  -15.2016 O   0  0  0  0  0  0  0  0  0  0  0  0
   11.4324   14.0890  -14.9425 O   0  0  0  0  0  0  0  0  0  0  0  0
   11.5804   22.4338  -15.7625 C   0  0  0  0  0  0  0  0  0  0  0  0
    9.6705   16.0097  -15.9342 C   0  0  0  0  0  0  0  0  0  0  0  0
   13.0541   14.8258  -13.3581 C   0  0  0  0  0  0  0  0  0  0  0  0
   10.2572   21.7007  -15.8184 C   0  0  0  0  0  0  0  0  0  0  0  0
    8.5558   17.0333  -15.9130 C   0  0  0  0  0  0  0  0  0  0  0  0
   10.5020   20.2351  -16.1046 C   0  0  0  0  0  0  0  0  0  0  0  0
    9.0576   18.2817  -16.6116 C   0  0  0  0  0  0  0  0  0  0  0  0
    9.3220   19.4082  -15.6342 C   0  0  0  0  0  0  0  0  0  0  0  0
   10.1549   13.7563  -15.3604 C   0  0  1  0  0  0  0  0  0  0  0  0
   11.5850   14.5325  -13.6264 C   0  0  2  0  0  0  0  0  0  0  0  0
    9.6368   12.6274  -14.5089 C   0  0  2  0  0  0  0  0  0  0  0  0
   11.0658   13.4786  -12.6555 C   0  0  2  0  0  0  0  0  0  0  0  0
    9.6502   13.0512  -13.0544 C   0  0  2  0  0  0  0  0  0  0  0  0
   14.5690   13.7260  -13.0187 H   0  0  0  0  0  0  0  0  0  0  0  0
    9.9403   10.7690  -14.7727 H   0  0  0  0  0  0  0  0  0  0  0  0
   11.4461   13.4581  -10.8029 H   0  0  0  0  0  0  0  0  0  0  0  0
    8.5572   12.2376  -11.7421 H   0  0  0  0  0  0  0  0  0  0  0  0
   12.0213   22.2472  -14.9066 H   0  0  0  0  0  0  0  0  0  0  0  0
   11.4239   23.3973  -15.8462 H   0  0  0  0  0  0  0  0  0  0  0  0
   12.1536   22.1303  -16.4976 H   0  0  0  0  0  0  0  0  0  0  0  0
   10.4762   16.4000  -15.5352 H   0  0  0  0  0  0  0  0  0  0  0  0
    9.8587   15.7510  -16.8604 H   0  0  0  0  0  0  0  0  0  0  0  0
   13.3651   15.5118  -13.9850 H   0  0  0  0  0  0  0  0  0  0  0  0
   13.1529   15.1582  -12.4413 H   0  0  0  0  0  0  0  0  0  0  0  0
    9.7004   22.0824  -16.5258 H   0  0  0  0  0  0  0  0  0  0  0  0
    9.8004   21.7913  -14.9586 H   0  0  0  0  0  0  0  0  0  0  0  0
    7.7829   16.6795  -16.3974 H   0  0  0  0  0  0  0  0  0  0  0  0
    8.3026   17.2398  -14.9917 H   0  0  0  0  0  0  0  0  0  0  0  0
   11.3094   19.9396  -15.6381 H   0  0  0  0  0  0  0  0  0  0  0  0
   10.6205   20.1115  -17.0674 H   0  0  0  0  0  0  0  0  0  0  0  0
    9.8842   18.0682  -17.0878 H   0  0  0  0  0  0  0  0  0  0  0  0
    8.3854   18.5774  -17.2583 H   0  0  0  0  0  0  0  0  0  0  0  0
    8.5283   19.9771  -15.5782 H   0  0  0  0  0  0  0  0  0  0  0  0
    9.5177   19.0363  -14.7518 H   0  0  0  0  0  0  0  0  0  0  0  0
   10.1744   13.4825  -16.2997 H   0  0  0  0  0  0  0  0  0  0  0  0
   11.0695   15.3558  -13.5071 H   0  0  0  0  0  0  0  0  0  0  0  0
    8.7199   12.4157  -14.7758 H   0  0  0  0  0  0  0  0  0  0  0  0
   11.6580   12.6997  -12.6735 H   0  0  0  0  0  0  0  0  0  0  0  0
    9.0386   13.8041  -12.9305 H   0  0  0  0  0  0  0  0  0  0  0  0
  1  9  1  0  0  0  0
  1 20  1  0  0  0  0
  2 17  1  0  0  0  0
  2 21  1  0  0  0  0
  3 18  1  0  0  0  0
  3 22  1  0  0  0  0
  4 19  1  0  0  0  0
  4 23  1  0  0  0  0
  5  8  1  0  0  0  0
  5 15  1  0  0  0  0
  6 15  1  0  0  0  0
  6 16  1  0  0  0  0
  7 10  1  0  0  0  0
  7 24  1  0  0  0  0
  7 25  1  0  0  0  0
  7 26  1  0  0  0  0
  8 11  1  0  0  0  0
  8 27  1  0  0  0  0
  8 28  1  0  0  0  0
  9 16  1  0  0  0  0
  9 29  1  0  0  0  0
  9 30  1  0  0  0  0
 10 12  1  0  0  0  0
 10 31  1  0  0  0  0
 10 32  1  0  0  0  0
 11 13  1  0  0  0  0
 11 33  1  0  0  0  0
 11 34  1  0  0  0  0
 12 14  1  0  0  0  0
 12 35  1  0  0  0  0
 12 36  1  0  0  0  0
 13 14  1  0  0  0  0
 13 37  1  0  0  0  0
 13 38  1  0  0  0  0
 14 39  1  0  0  0  0
 14 40  1  0  0  0  0
 15 17  1  0  0  0  0
 15 41  1  0  0  0  0
 16 18  1  0  0  0  0
 16 42  1  0  0  0  0
 17 19  1  0  0  0  0
 17 43  1  0  0  0  0
 18 19  1  0  0  0  0
 18 44  1  0  0  0  0
 19 45  1  0  0  0  0
M  END
> <pdb_id>
4XOE

> <uniprot_id>
Q0T8Y8

> <usmiles>
O1[C@@H]([C@@H](O)[C@H](O)[C@H](O)[C@H]1OCCCCCCC)CO

$$$$
KGO_B_803
          07192416573D 1   1.00000     0.00000     0
            
 52 55  0  0  0  0            999 V2000
   16.8199   -2.9940   23.4750 O   0  0  0  0  0  0  0  0  0  0  0  0
   19.9152   -3.6036   19.2754 O   0  0  0  0  0  0  0  0  0  0  0  0
   15.9511    1.1821   21.2495 O   0  0  0  0  0  0  0  0  0  0  0  0
   20.9224   -4.9440   23.1539 N   0  0  0  0  0  0  0  0  0  0  0  0
   20.5861   -3.6524   13.6990 N   0  0  0  0  0  0  0  0  0  0  0  0
   19.0444   -1.7981   13.2928 N   0  0  0  0  0  0  0  0  0  0  0  0
   16.7777   -4.9114   24.6909 N   0  0  0  0  0  0  0  0  0  0  0  0
   16.9319   -1.4919   16.8281 N   0  0  0  0  0  0  0  0  0  0  0  0
   18.5816   -3.1413   21.0795 N   0  0  0  0  0  0  0  0  0  0  0  0
   18.9316   -2.7361   16.8563 N   0  0  0  0  0  0  0  0  0  0  0  0
   16.9012   -1.6226   19.7038 N   0  0  0  0  0  0  0  0  0  0  0  0
   19.8352   -4.9389   23.9339 N   0  0  0  0  0  0  0  0  0  0  0  0
   15.3706   -4.7847   25.0428 C   0  0  0  0  0  0  0  0  0  0  0  0
   19.8355   -5.4615   25.2876 C   0  0  0  0  0  0  0  0  0  0  0  0
   19.9714   -2.7378   12.8996 C   0  0  0  0  0  0  0  0  0  0  0  0
   15.3083    0.2225   22.1278 C   0  0  0  0  0  0  0  0  0  0  0  0
   15.1575    1.1782   20.0487 C   0  0  0  0  0  0  0  0  0  0  0  0
   20.6466   -4.2533   22.0226 C   0  0  0  0  0  0  0  0  0  0  0  0
   20.1921   -3.5892   14.9999 C   0  0  0  0  0  0  0  0  0  0  0  0
   18.6792   -1.7223   14.6064 C   0  0  0  0  0  0  0  0  0  0  0  0
   16.0004   -0.9585   17.6144 C   0  0  0  0  0  0  0  0  0  0  0  0
   14.6002   -0.7921   21.2641 C   0  0  0  0  0  0  0  0  0  0  0  0
   17.4142   -4.0277   23.8324 C   0  0  0  0  0  0  0  0  0  0  0  0
   18.9233   -2.9865   19.7528 C   0  0  0  0  0  0  0  0  0  0  0  0
   17.9161   -2.1484   17.5339 C   0  0  0  0  0  0  0  0  0  0  0  0
   19.2333   -2.6679   15.5177 C   0  0  0  0  0  0  0  0  0  0  0  0
   19.2883   -3.8399   22.0413 C   0  0  0  0  0  0  0  0  0  0  0  0
   15.9395   -0.9880   19.0616 C   0  0  0  0  0  0  0  0  0  0  0  0
   17.9001   -2.1954   18.9756 C   0  0  0  0  0  0  0  0  0  0  0  0
   18.7690   -4.2936   23.2970 C   0  0  0  0  0  0  0  0  0  0  0  0
   14.8193   -0.3069   19.8064 C   0  0  2  0  0  0  0  0  0  0  0  0
   17.3054   -5.6647   25.0834 H   0  0  0  0  0  0  0  0  0  0  0  0
   17.7339   -2.7025   21.3776 H   0  0  0  0  0  0  0  0  0  0  0  0
   19.5479   -3.2983   17.4079 H   0  0  0  0  0  0  0  0  0  0  0  0
   15.1164   -5.5207   25.6703 H   0  0  0  0  0  0  0  0  0  0  0  0
   15.2158   -3.9013   25.4850 H   0  0  0  0  0  0  0  0  0  0  0  0
   14.8132   -4.8452   24.2148 H   0  0  0  0  0  0  0  0  0  0  0  0
   18.9237   -5.3581   25.6850 H   0  0  0  0  0  0  0  0  0  0  0  0
   20.0840   -6.4300   25.2709 H   0  0  0  0  0  0  0  0  0  0  0  0
   20.4990   -4.9566   25.8397 H   0  0  0  0  0  0  0  0  0  0  0  0
   20.2174   -2.7494   11.9304 H   0  0  0  0  0  0  0  0  0  0  0  0
   14.6474    0.6891   22.7156 H   0  0  0  0  0  0  0  0  0  0  0  0
   15.9949   -0.2331   22.6943 H   0  0  0  0  0  0  0  0  0  0  0  0
   15.6784    1.5509   19.2807 H   0  0  0  0  0  0  0  0  0  0  0  0
   14.3226    1.7136   20.1762 H   0  0  0  0  0  0  0  0  0  0  0  0
   21.2981   -4.0637   21.2880 H   0  0  0  0  0  0  0  0  0  0  0  0
   20.6050   -4.2365   15.6406 H   0  0  0  0  0  0  0  0  0  0  0  0
   18.0393   -1.0212   14.9211 H   0  0  0  0  0  0  0  0  0  0  0  0
   15.2538   -0.4806   17.1516 H   0  0  0  0  0  0  0  0  0  0  0  0
   13.6246   -0.8188   21.4822 H   0  0  0  0  0  0  0  0  0  0  0  0
   14.9959   -1.7012   21.3946 H   0  0  0  0  0  0  0  0  0  0  0  0
   13.9674   -0.3838   19.2884 H   0  0  0  0  0  0  0  0  0  0  0  0
  1 23  2  0  0  0  0
  2 24  2  0  0  0  0
  3 16  1  0  0  0  0
  3 17  1  0  0  0  0
  4 12  1  0  0  0  0
  4 18  2  0  0  0  0
  5 15  2  0  0  0  0
  5 19  1  0  0  0  0
  6 15  1  0  0  0  0
  6 20  2  0  0  0  0
  7 13  1  0  0  0  0
  7 23  1  0  0  0  0
  8 21  1  0  0  0  0
  8 25  2  0  0  0  0
  9 24  1  0  0  0  0
  9 27  1  0  0  0  0
 10 25  1  0  0  0  0
 10 26  1  0  0  0  0
 11 28  1  0  0  0  0
 11 29  2  0  0  0  0
 12 14  1  0  0  0  0
 12 30  1  0  0  0  0
 16 22  1  0  0  0  0
 17 31  1  0  0  0  0
 18 27  1  0  0  0  0
 19 26  2  0  0  0  0
 20 26  1  0  0  0  0
 21 28  2  0  0  0  0
 22 31  1  0  0  0  0
 23 30  1  0  0  0  0
 24 29  1  0  0  0  0
 25 29  1  0  0  0  0
 27 30  2  0  0  0  0
 28 31  1  0  0  0  0
  7 32  1  0  0  0  0
  9 33  1  0  0  0  0
 10 34  1  0  0  0  0
 13 35  1  0  0  0  0
 13 36  1  0  0  0  0
 13 37  1  0  0  0  0
 14 38  1  0  0  0  0
 14 39  1  0  0  0  0
 14 40  1  0  0  0  0
 15 41  1  0  0  0  0
 16 42  1  0  0  0  0
 16 43  1  0  0  0  0
 17 44  1  0  0  0  0
 17 45  1  0  0  0  0
 18 46  1  0  0  0  0
 19 47  1  0  0  0  0
 20 48  1  0  0  0  0
 21 49  1  0  0  0  0
 22 50  1  0  0  0  0
 22 51  1  0  0  0  0
 31 52  1  0  0  0  0
M  END
> <pdb_id>
5SKK

> <uniprot_id>
Q9Y233

> <usmiles>
O=C(NC1=C(N(N=C1)C)C(=O)NC)c2nc(cnc2Nc3cncnc3)[C@@H]4COCC4

$$$$
KGZ_A_1201
          07212403553D 1   1.00000     0.00000     0
            
 70 74  0  0  0  0            999 V2000
   40.3957   23.7530  242.3272 F   0  0  0  0  0  0  0  0  0  0  0  0
   40.1594   23.0655  248.7456 O   0  0  0  0  0  0  0  0  0  0  0  0
   43.8158   24.4103  245.4376 O   0  0  0  0  0  0  0  0  0  0  0  0
   40.8002   18.1236  244.0782 N   0  0  0  0  0  0  0  0  0  0  0  0
   38.4299   21.9193  247.9685 N   0  0  0  0  0  0  0  0  0  0  0  0
   41.7755   22.7263  244.9095 N   0  0  0  0  0  0  0  0  0  0  0  0
   42.3256   23.7672  247.0050 N   0  0  0  0  0  0  0  0  0  0  0  0
   40.7527   21.9936  244.4119 N   0  0  0  0  0  0  0  0  0  0  0  0
   39.7994   21.8945  240.2825 N   0  0  0  0  0  0  0  0  0  0  0  0
   41.1231   19.1310  243.5729 C   0  0  0  0  0  0  0  0  0  0  0  0
   39.3184   20.8096  241.1382 C   0  0  0  0  0  0  0  0  0  0  0  0
   31.6701   21.1522  236.2461 C   0  0  0  0  0  0  0  0  0  0  0  0
   32.5967   20.3826  235.3926 C   0  0  0  0  0  0  0  0  0  0  0  0
   32.1000   22.6002  236.4227 C   0  0  0  0  0  0  0  0  0  0  0  0
   41.1574   22.2739  240.6579 C   0  0  0  0  0  0  0  0  0  0  0  0
   39.8128   21.8301  245.3644 C   0  0  0  0  0  0  0  0  0  0  0  0
   39.7760   21.4950  238.8685 C   0  0  0  0  0  0  0  0  0  0  0  0
   34.0238   20.5858  235.8067 C   0  0  0  0  0  0  0  0  0  0  0  0
   33.5173   22.7160  236.9759 C   0  0  0  0  0  0  0  0  0  0  0  0
   37.7374   22.7337  238.0722 C   0  0  0  0  0  0  0  0  0  0  0  0
   37.7465   20.3529  237.9345 C   0  0  0  0  0  0  0  0  0  0  0  0
   36.4668   22.7670  237.5263 C   0  0  0  0  0  0  0  0  0  0  0  0
   36.4699   20.3820  237.4076 C   0  0  0  0  0  0  0  0  0  0  0  0
   44.4624   26.5147  247.7080 C   0  0  0  0  0  0  0  0  0  0  0  0
   45.5790   25.5843  247.5023 C   0  0  0  0  0  0  0  0  0  0  0  0
   41.6368   20.3242  242.9005 C   0  0  0  0  0  0  0  0  0  0  0  0
   39.4005   21.1518  242.6051 C   0  0  0  0  0  0  0  0  0  0  0  0
   39.5971   22.5395  247.8109 C   0  0  0  0  0  0  0  0  0  0  0  0
   43.4513   24.4056  246.6143 C   0  0  0  0  0  0  0  0  0  0  0  0
   41.2366   22.6523  242.1081 C   0  0  2  0  0  0  0  0  0  0  0  0
   41.4901   23.0050  246.1654 C   0  0  0  0  0  0  0  0  0  0  0  0
   38.3927   21.5326  238.2759 C   0  0  0  0  0  0  0  0  0  0  0  0
   44.1932   25.0250  247.7341 C   0  0  0  0  0  0  0  0  0  0  0  0
   34.4393   21.5938  236.6061 C   0  0  0  0  0  0  0  0  0  0  0  0
   35.8076   21.5873  237.1788 C   0  0  0  0  0  0  0  0  0  0  0  0
   40.2597   22.4630  246.4933 C   0  0  0  0  0  0  0  0  0  0  0  0
   40.8311   21.5326  243.0569 C   0  0  1  0  0  0  0  0  0  0  0  0
   37.9813   21.4910  247.1841 H   0  0  0  0  0  0  0  0  0  0  0  0
   38.0016   21.8817  248.8714 H   0  0  0  0  0  0  0  0  0  0  0  0
   42.0651   23.8421  247.9676 H   0  0  0  0  0  0  0  0  0  0  0  0
   39.8737   19.9958  240.9670 H   0  0  0  0  0  0  0  0  0  0  0  0
   38.3648   20.6172  240.9066 H   0  0  0  0  0  0  0  0  0  0  0  0
   31.6295   20.7186  237.1462 H   0  0  0  0  0  0  0  0  0  0  0  0
   30.7621   21.1369  235.8274 H   0  0  0  0  0  0  0  0  0  0  0  0
   32.4881   20.6806  234.4443 H   0  0  0  0  0  0  0  0  0  0  0  0
   32.3729   19.4107  235.4643 H   0  0  0  0  0  0  0  0  0  0  0  0
   31.4693   23.0487  237.0559 H   0  0  0  0  0  0  0  0  0  0  0  0
   32.0624   23.0582  235.5345 H   0  0  0  0  0  0  0  0  0  0  0  0
   41.4433   23.0542  240.1016 H   0  0  0  0  0  0  0  0  0  0  0  0
   41.7700   21.5018  240.4887 H   0  0  0  0  0  0  0  0  0  0  0  0
   38.9484   21.3374  245.2647 H   0  0  0  0  0  0  0  0  0  0  0  0
   40.1306   20.5630  238.7937 H   0  0  0  0  0  0  0  0  0  0  0  0
   40.3627   22.1174  238.3506 H   0  0  0  0  0  0  0  0  0  0  0  0
   34.7079   19.9378  235.4721 H   0  0  0  0  0  0  0  0  0  0  0  0
   33.4582   22.7521  237.9735 H   0  0  0  0  0  0  0  0  0  0  0  0
   33.9142   23.5680  236.6345 H   0  0  0  0  0  0  0  0  0  0  0  0
   38.1886   23.5901  238.3231 H   0  0  0  0  0  0  0  0  0  0  0  0
   38.2079   19.4762  238.0708 H   0  0  0  0  0  0  0  0  0  0  0  0
   36.0153   23.6471  237.3790 H   0  0  0  0  0  0  0  0  0  0  0  0
   36.0115   19.5214  237.1858 H   0  0  0  0  0  0  0  0  0  0  0  0
   44.1281   27.0676  246.9447 H   0  0  0  0  0  0  0  0  0  0  0  0
   44.4062   27.0455  248.5537 H   0  0  0  0  0  0  0  0  0  0  0  0
   46.2800   25.4848  248.2084 H   0  0  0  0  0  0  0  0  0  0  0  0
   46.0020   25.5068  246.5994 H   0  0  0  0  0  0  0  0  0  0  0  0
   41.7024   20.1225  241.9233 H   0  0  0  0  0  0  0  0  0  0  0  0
   42.5490   20.5134  243.2639 H   0  0  0  0  0  0  0  0  0  0  0  0
   39.0992   20.3589  243.1348 H   0  0  0  0  0  0  0  0  0  0  0  0
   38.7924   21.9246  242.7867 H   0  0  0  0  0  0  0  0  0  0  0  0
   42.1766   22.9223  242.3166 H   0  0  0  0  0  0  0  0  0  0  0  0
   44.0295   24.6280  248.6372 H   0  0  0  0  0  0  0  0  0  0  0  0
  1 30  1  0  0  0  0
  2 28  2  0  0  0  0
  3 29  2  0  0  0  0
  4 10  3  0  0  0  0
  5 28  1  0  0  0  0
  6  8  1  0  0  0  0
  6 31  2  0  0  0  0
  7 29  1  0  0  0  0
  7 31  1  0  0  0  0
  8 16  1  0  0  0  0
  8 37  1  0  0  0  0
  9 11  1  0  0  0  0
  9 15  1  0  0  0  0
  9 17  1  0  0  0  0
 10 26  1  0  0  0  0
 11 27  1  0  0  0  0
 12 13  1  0  0  0  0
 12 14  1  0  0  0  0
 13 18  1  0  0  0  0
 14 19  1  0  0  0  0
 15 30  1  0  0  0  0
 16 36  2  0  0  0  0
 17 32  1  0  0  0  0
 18 34  2  0  0  0  0
 19 34  1  0  0  0  0
 20 22  1  0  0  0  0
 20 32  2  0  0  0  0
 21 23  2  0  0  0  0
 21 32  1  0  0  0  0
 22 35  2  0  0  0  0
 23 35  1  0  0  0  0
 24 25  1  0  0  0  0
 24 33  1  0  0  0  0
 25 33  1  0  0  0  0
 26 37  1  0  0  0  0
 27 37  1  0  0  0  0
 28 36  1  0  0  0  0
 29 33  1  0  0  0  0
 30 37  1  0  0  0  0
 31 36  1  0  0  0  0
 34 35  1  0  0  0  0
  5 38  1  0  0  0  0
  5 39  1  0  0  0  0
  7 40  1  0  0  0  0
 11 41  1  0  0  0  0
 11 42  1  0  0  0  0
 12 43  1  0  0  0  0
 12 44  1  0  0  0  0
 13 45  1  0  0  0  0
 13 46  1  0  0  0  0
 14 47  1  0  0  0  0
 14 48  1  0  0  0  0
 15 49  1  0  0  0  0
 15 50  1  0  0  0  0
 16 51  1  0  0  0  0
 17 52  1  0  0  0  0
 17 53  1  0  0  0  0
 18 54  1  0  0  0  0
 19 55  1  0  0  0  0
 19 56  1  0  0  0  0
 20 57  1  0  0  0  0
 21 58  1  0  0  0  0
 22 59  1  0  0  0  0
 23 60  1  0  0  0  0
 24 61  1  0  0  0  0
 24 62  1  0  0  0  0
 25 63  1  0  0  0  0
 25 64  1  0  0  0  0
 26 65  1  0  0  0  0
 26 66  1  0  0  0  0
 27 67  1  0  0  0  0
 27 68  1  0  0  0  0
 30 69  1  0  0  0  0
 33 70  1  0  0  0  0
M  END
> <pdb_id>
6RSB

> <uniprot_id>
P23458

> <usmiles>
F[C@H]1[C@](N2N=C(NC(=O)C3CC3)C(C(=O)N)=C2)(CC#N)CCN(Cc4ccc(cc4)C5=CCCCC5)C1

$$$$
KH5_A_1201
          07212403553D 1   1.00000     0.00000     0
            
 66 70  0  0  0  0            999 V2000
   40.2668   23.0384  248.7602 O   0  0  0  0  0  0  0  0  0  0  0  0
   43.7367   24.4838  245.5427 O   0  0  0  0  0  0  0  0  0  0  0  0
   40.7508   18.1662  244.1776 N   0  0  0  0  0  0  0  0  0  0  0  0
   38.4895   21.8646  248.0622 N   0  0  0  0  0  0  0  0  0  0  0  0
   41.8115   22.6920  244.9184 N   0  0  0  0  0  0  0  0  0  0  0  0
   42.3354   23.6275  247.0664 N   0  0  0  0  0  0  0  0  0  0  0  0
   40.7583   21.9985  244.4215 N   0  0  0  0  0  0  0  0  0  0  0  0
   39.9066   21.9432  240.2538 N   0  0  0  0  0  0  0  0  0  0  0  0
   41.1707   19.0476  243.5900 C   0  0  0  0  0  0  0  0  0  0  0  0
   39.3895   20.8292  241.0505 C   0  0  0  0  0  0  0  0  0  0  0  0
   41.2992   22.2264  240.6354 C   0  0  0  0  0  0  0  0  0  0  0  0
   39.8001   21.7539  245.3464 C   0  0  0  0  0  0  0  0  0  0  0  0
   39.8316   21.6154  238.8250 C   0  0  0  0  0  0  0  0  0  0  0  0
   32.0352   21.9623  235.3466 C   0  0  0  0  0  0  0  0  0  0  0  0
   33.0207   21.1942  234.7664 C   0  0  0  0  0  0  0  0  0  0  0  0
   32.2944   22.6408  236.5174 C   0  0  0  0  0  0  0  0  0  0  0  0
   34.2753   21.1136  235.3539 C   0  0  0  0  0  0  0  0  0  0  0  0
   33.5479   22.5682  237.1000 C   0  0  0  0  0  0  0  0  0  0  0  0
   37.7480   20.4803  237.9702 C   0  0  0  0  0  0  0  0  0  0  0  0
   37.8175   22.8531  237.9690 C   0  0  0  0  0  0  0  0  0  0  0  0
   36.4728   20.5114  237.4243 C   0  0  0  0  0  0  0  0  0  0  0  0
   36.5513   22.8954  237.4031 C   0  0  0  0  0  0  0  0  0  0  0  0
   44.5404   26.5404  247.5990 C   0  0  0  0  0  0  0  0  0  0  0  0
   45.4947   25.4112  247.7187 C   0  0  0  0  0  0  0  0  0  0  0  0
   41.7030   20.2444  242.9420 C   0  0  0  0  0  0  0  0  0  0  0  0
   39.3894   21.1761  242.5134 C   0  0  0  0  0  0  0  0  0  0  0  0
   41.4109   22.5901  242.1084 C   0  0  0  0  0  0  0  0  0  0  0  0
   39.6557   22.4639  247.8593 C   0  0  0  0  0  0  0  0  0  0  0  0
   43.3640   24.4231  246.7031 C   0  0  0  0  0  0  0  0  0  0  0  0
   41.5124   22.9211  246.1774 C   0  0  0  0  0  0  0  0  0  0  0  0
   38.4264   21.6495  238.2641 C   0  0  0  0  0  0  0  0  0  0  0  0
   44.0149   25.1411  247.8292 C   0  0  0  0  0  0  0  0  0  0  0  0
   34.5506   21.7679  236.5554 C   0  0  0  0  0  0  0  0  0  0  0  0
   35.8489   21.7238  237.1323 C   0  0  0  0  0  0  0  0  0  0  0  0
   40.2420   22.3449  246.5064 C   0  0  0  0  0  0  0  0  0  0  0  0
   40.8056   21.5075  243.0164 C   0  0  0  0  0  0  0  0  0  0  0  0
   38.0234   21.4081  247.3043 H   0  0  0  0  0  0  0  0  0  0  0  0
   38.0766   21.8694  248.9730 H   0  0  0  0  0  0  0  0  0  0  0  0
   42.1460   23.5350  248.0439 H   0  0  0  0  0  0  0  0  0  0  0  0
   39.9662   20.0255  240.9039 H   0  0  0  0  0  0  0  0  0  0  0  0
   38.4541   20.6255  240.7615 H   0  0  0  0  0  0  0  0  0  0  0  0
   41.6379   22.9900  240.0856 H   0  0  0  0  0  0  0  0  0  0  0  0
   41.8562   21.4151  240.4578 H   0  0  0  0  0  0  0  0  0  0  0  0
   38.9477   21.2482  245.2133 H   0  0  0  0  0  0  0  0  0  0  0  0
   40.2018   20.6960  238.6925 H   0  0  0  0  0  0  0  0  0  0  0  0
   40.3887   22.2750  238.3204 H   0  0  0  0  0  0  0  0  0  0  0  0
   31.1336   22.0273  234.9190 H   0  0  0  0  0  0  0  0  0  0  0  0
   32.8318   20.6943  233.9211 H   0  0  0  0  0  0  0  0  0  0  0  0
   31.5753   23.1869  236.9472 H   0  0  0  0  0  0  0  0  0  0  0  0
   34.9934   20.5782  234.9093 H   0  0  0  0  0  0  0  0  0  0  0  0
   33.7373   23.0992  237.9259 H   0  0  0  0  0  0  0  0  0  0  0  0
   38.1834   19.5991  238.1541 H   0  0  0  0  0  0  0  0  0  0  0  0
   38.2969   23.7082  238.1662 H   0  0  0  0  0  0  0  0  0  0  0  0
   35.9949   19.6530  237.2378 H   0  0  0  0  0  0  0  0  0  0  0  0
   36.1373   23.7796  237.1868 H   0  0  0  0  0  0  0  0  0  0  0  0
   44.4029   26.9856  246.7141 H   0  0  0  0  0  0  0  0  0  0  0  0
   44.4803   27.2222  248.3281 H   0  0  0  0  0  0  0  0  0  0  0  0
   46.0769   25.3347  248.5281 H   0  0  0  0  0  0  0  0  0  0  0  0
   45.9995   25.0981  246.9142 H   0  0  0  0  0  0  0  0  0  0  0  0
   41.8520   20.0302  241.9766 H   0  0  0  0  0  0  0  0  0  0  0  0
   42.5780   20.4637  243.3737 H   0  0  0  0  0  0  0  0  0  0  0  0
   39.0347   20.3978  243.0315 H   0  0  0  0  0  0  0  0  0  0  0  0
   38.7991   21.9701  242.6587 H   0  0  0  0  0  0  0  0  0  0  0  0
   40.9273   23.4511  242.2660 H   0  0  0  0  0  0  0  0  0  0  0  0
   42.3770   22.7032  242.3407 H   0  0  0  0  0  0  0  0  0  0  0  0
   43.6661   24.9418  248.7450 H   0  0  0  0  0  0  0  0  0  0  0  0
  1 28  2  0  0  0  0
  2 29  2  0  0  0  0
  3  9  3  0  0  0  0
  4 28  1  0  0  0  0
  5  7  1  0  0  0  0
  5 30  2  0  0  0  0
  6 29  1  0  0  0  0
  6 30  1  0  0  0  0
  7 12  1  0  0  0  0
  7 36  1  0  0  0  0
  8 10  1  0  0  0  0
  8 11  1  0  0  0  0
  8 13  1  0  0  0  0
  9 25  1  0  0  0  0
 10 26  1  0  0  0  0
 11 27  1  0  0  0  0
 12 35  2  0  0  0  0
 13 31  1  0  0  0  0
 14 15  2  0  0  0  0
 14 16  1  0  0  0  0
 15 17  1  0  0  0  0
 16 18  2  0  0  0  0
 17 33  2  0  0  0  0
 18 33  1  0  0  0  0
 19 21  2  0  0  0  0
 19 31  1  0  0  0  0
 20 22  1  0  0  0  0
 20 31  2  0  0  0  0
 21 34  1  0  0  0  0
 22 34  2  0  0  0  0
 23 24  1  0  0  0  0
 23 32  1  0  0  0  0
 24 32  1  0  0  0  0
 25 36  1  0  0  0  0
 26 36  1  0  0  0  0
 27 36  1  0  0  0  0
 28 35  1  0  0  0  0
 29 32  1  0  0  0  0
 30 35  1  0  0  0  0
 33 34  1  0  0  0  0
  4 37  1  0  0  0  0
  4 38  1  0  0  0  0
  6 39  1  0  0  0  0
 10 40  1  0  0  0  0
 10 41  1  0  0  0  0
 11 42  1  0  0  0  0
 11 43  1  0  0  0  0
 12 44  1  0  0  0  0
 13 45  1  0  0  0  0
 13 46  1  0  0  0  0
 14 47  1  0  0  0  0
 15 48  1  0  0  0  0
 16 49  1  0  0  0  0
 17 50  1  0  0  0  0
 18 51  1  0  0  0  0
 19 52  1  0  0  0  0
 20 53  1  0  0  0  0
 21 54  1  0  0  0  0
 22 55  1  0  0  0  0
 23 56  1  0  0  0  0
 23 57  1  0  0  0  0
 24 58  1  0  0  0  0
 24 59  1  0  0  0  0
 25 60  1  0  0  0  0
 25 61  1  0  0  0  0
 26 62  1  0  0  0  0
 26 63  1  0  0  0  0
 27 64  1  0  0  0  0
 27 65  1  0  0  0  0
 32 66  1  0  0  0  0
M  END
> <pdb_id>
6RSC

> <uniprot_id>
P23458

> <usmiles>
O=C(N)C=1C(=NN(C1)C2(CC#N)CCN(Cc3ccc(c4ccccc4)cc3)CC2)NC(=O)C5CC5

$$$$
KH8_A_1201
          07212403553D 1   1.00000     0.00000     0
            
 67 71  0  0  0  0            999 V2000
   40.1490   22.9870  248.6980 O   0  0  0  0  0  0  0  0  0  0  0  0
   43.8140   24.4800  245.5650 O   0  0  0  0  0  0  0  0  0  0  0  0
   35.9610   18.8090  237.7010 O   0  0  0  0  0  0  0  0  0  0  0  0
   40.8090   18.0980  244.1680 N   0  0  0  0  0  0  0  0  0  0  0  0
   38.4340   21.7660  248.0370 N   0  0  0  0  0  0  0  0  0  0  0  0
   41.7810   22.6090  244.9140 N   0  0  0  0  0  0  0  0  0  0  0  0
   42.3330   23.5960  247.0390 N   0  0  0  0  0  0  0  0  0  0  0  0
   40.7450   21.8870  244.3980 N   0  0  0  0  0  0  0  0  0  0  0  0
   39.9390   21.8480  240.1950 N   0  0  0  0  0  0  0  0  0  0  0  0
   41.2730   19.0400  243.6640 C   0  0  0  0  0  0  0  0  0  0  0  0
   41.3250   22.1400  240.6290 C   0  0  0  0  0  0  0  0  0  0  0  0
   39.3970   20.7530  241.0200 C   0  0  0  0  0  0  0  0  0  0  0  0
   39.7790   21.7180  245.3000 C   0  0  0  0  0  0  0  0  0  0  0  0
   39.9140   21.4900  238.7650 C   0  0  0  0  0  0  0  0  0  0  0  0
   31.6950   21.1020  236.0750 C   0  0  0  0  0  0  0  0  0  0  0  0
   32.2500   22.2270  236.6610 C   0  0  0  0  0  0  0  0  0  0  0  0
   32.5140   20.0450  235.7710 C   0  0  0  0  0  0  0  0  0  0  0  0
   33.5870   22.2360  237.0570 C   0  0  0  0  0  0  0  0  0  0  0  0
   33.8760   20.0710  236.1160 C   0  0  0  0  0  0  0  0  0  0  0  0
   37.8380   22.5150  237.7570 C   0  0  0  0  0  0  0  0  0  0  0  0
   45.5020   25.3730  247.7830 C   0  0  0  0  0  0  0  0  0  0  0  0
   44.5610   26.5030  247.6320 C   0  0  0  0  0  0  0  0  0  0  0  0
   36.5330   22.4040  237.2590 C   0  0  0  0  0  0  0  0  0  0  0  0
   37.8530   20.1890  238.1700 C   0  0  0  0  0  0  0  0  0  0  0  0
   41.7640   20.2100  242.9680 C   0  0  0  0  0  0  0  0  0  0  0  0
   41.3810   22.5200  242.1120 C   0  0  0  0  0  0  0  0  0  0  0  0
   39.4050   21.0910  242.4920 C   0  0  0  0  0  0  0  0  0  0  0  0
   39.5720   22.4240  247.7990 C   0  0  0  0  0  0  0  0  0  0  0  0
   43.3960   24.4000  246.7110 C   0  0  0  0  0  0  0  0  0  0  0  0
   36.5470   20.0700  237.7140 C   0  0  0  0  0  0  0  0  0  0  0  0
   41.4830   22.8750  246.1630 C   0  0  0  0  0  0  0  0  0  0  0  0
   38.5290   21.4020  238.1730 C   0  0  0  0  0  0  0  0  0  0  0  0
   44.0110   25.1220  247.8520 C   0  0  0  0  0  0  0  0  0  0  0  0
   34.4280   21.1520  236.7970 C   0  0  0  0  0  0  0  0  0  0  0  0
   40.2080   22.3260  246.4870 C   0  0  0  0  0  0  0  0  0  0  0  0
   35.8540   21.1880  237.2210 C   0  0  0  0  0  0  0  0  0  0  0  0
   40.8140   21.4140  243.0170 C   0  0  0  0  0  0  0  0  0  0  0  0
   35.0215   18.6976  237.3771 H   0  0  0  0  0  0  0  0  0  0  0  0
   37.9595   21.3012  247.2895 H   0  0  0  0  0  0  0  0  0  0  0  0
   38.0567   21.7383  248.9627 H   0  0  0  0  0  0  0  0  0  0  0  0
   42.1338   23.5081  248.0150 H   0  0  0  0  0  0  0  0  0  0  0  0
   41.6825   22.8993  240.0853 H   0  0  0  0  0  0  0  0  0  0  0  0
   41.8899   21.3284  240.4800 H   0  0  0  0  0  0  0  0  0  0  0  0
   39.9527   19.9345  240.8744 H   0  0  0  0  0  0  0  0  0  0  0  0
   38.4554   20.5715  240.7362 H   0  0  0  0  0  0  0  0  0  0  0  0
   38.9096   21.2452  245.1564 H   0  0  0  0  0  0  0  0  0  0  0  0
   40.3583   20.6007  238.6566 H   0  0  0  0  0  0  0  0  0  0  0  0
   40.4276   22.1831  238.2593 H   0  0  0  0  0  0  0  0  0  0  0  0
   30.7156   21.0611  235.8772 H   0  0  0  0  0  0  0  0  0  0  0  0
   31.6865   23.0411  236.8016 H   0  0  0  0  0  0  0  0  0  0  0  0
   32.1382   19.2475  235.2990 H   0  0  0  0  0  0  0  0  0  0  0  0
   33.9507   23.0345  237.5367 H   0  0  0  0  0  0  0  0  0  0  0  0
   34.4597   19.2980  235.8675 H   0  0  0  0  0  0  0  0  0  0  0  0
   38.2717   23.4145  237.8104 H   0  0  0  0  0  0  0  0  0  0  0  0
   46.0602   25.2951  248.6091 H   0  0  0  0  0  0  0  0  0  0  0  0
   46.0265   25.0513  246.9947 H   0  0  0  0  0  0  0  0  0  0  0  0
   44.4535   26.9452  246.7415 H   0  0  0  0  0  0  0  0  0  0  0  0
   44.4872   27.1890  248.3559 H   0  0  0  0  0  0  0  0  0  0  0  0
   36.0737   23.2249  236.9196 H   0  0  0  0  0  0  0  0  0  0  0  0
   38.3228   19.3734  238.5078 H   0  0  0  0  0  0  0  0  0  0  0  0
   41.9122   19.9659  242.0096 H   0  0  0  0  0  0  0  0  0  0  0  0
   42.6337   20.4794  243.3817 H   0  0  0  0  0  0  0  0  0  0  0  0
   40.8479   23.3546  242.2509 H   0  0  0  0  0  0  0  0  0  0  0  0
   42.3337   22.6869  242.3659 H   0  0  0  0  0  0  0  0  0  0  0  0
   39.0445   20.3100  243.0019 H   0  0  0  0  0  0  0  0  0  0  0  0
   38.8175   21.8864  242.6412 H   0  0  0  0  0  0  0  0  0  0  0  0
   43.6318   24.9315  248.7575 H   0  0  0  0  0  0  0  0  0  0  0  0
  1 28  2  0  0  0  0
  2 29  2  0  0  0  0
  3 30  1  0  0  0  0
  4 10  3  0  0  0  0
  5 28  1  0  0  0  0
  6  8  1  0  0  0  0
  6 31  2  0  0  0  0
  7 29  1  0  0  0  0
  7 31  1  0  0  0  0
  8 13  1  0  0  0  0
  8 37  1  0  0  0  0
  9 11  1  0  0  0  0
  9 12  1  0  0  0  0
  9 14  1  0  0  0  0
 10 25  1  0  0  0  0
 11 26  1  0  0  0  0
 12 27  1  0  0  0  0
 13 35  2  0  0  0  0
 14 32  1  0  0  0  0
 15 16  2  0  0  0  0
 15 17  1  0  0  0  0
 16 18  1  0  0  0  0
 17 19  2  0  0  0  0
 18 34  2  0  0  0  0
 19 34  1  0  0  0  0
 20 23  1  0  0  0  0
 20 32  2  0  0  0  0
 21 22  1  0  0  0  0
 21 33  1  0  0  0  0
 22 33  1  0  0  0  0
 23 36  2  0  0  0  0
 24 30  2  0  0  0  0
 24 32  1  0  0  0  0
 25 37  1  0  0  0  0
 26 37  1  0  0  0  0
 27 37  1  0  0  0  0
 28 35  1  0  0  0  0
 29 33  1  0  0  0  0
 30 36  1  0  0  0  0
 31 35  1  0  0  0  0
 34 36  1  0  0  0  0
  3 38  1  0  0  0  0
  5 39  1  0  0  0  0
  5 40  1  0  0  0  0
  7 41  1  0  0  0  0
 11 42  1  0  0  0  0
 11 43  1  0  0  0  0
 12 44  1  0  0  0  0
 12 45  1  0  0  0  0
 13 46  1  0  0  0  0
 14 47  1  0  0  0  0
 14 48  1  0  0  0  0
 15 49  1  0  0  0  0
 16 50  1  0  0  0  0
 17 51  1  0  0  0  0
 18 52  1  0  0  0  0
 19 53  1  0  0  0  0
 20 54  1  0  0  0  0
 21 55  1  0  0  0  0
 21 56  1  0  0  0  0
 22 57  1  0  0  0  0
 22 58  1  0  0  0  0
 23 59  1  0  0  0  0
 24 60  1  0  0  0  0
 25 61  1  0  0  0  0
 25 62  1  0  0  0  0
 26 63  1  0  0  0  0
 26 64  1  0  0  0  0
 27 65  1  0  0  0  0
 27 66  1  0  0  0  0
 33 67  1  0  0  0  0
M  END
> <pdb_id>
6RSD

> <uniprot_id>
P23458

> <usmiles>
O=C(N)C=1C(=NN(C1)C2(CC#N)CCN(Cc3cc(O)c(c4ccccc4)cc3)CC2)NC(=O)C5CC5

$$$$
KHE_A_1201
          07212403553D 1   1.00000     0.00000     0
            
 66 70  0  0  0  0            999 V2000
   40.6472   23.7563  242.3452 F   0  0  0  0  0  0  0  0  0  0  0  0
   40.1658   23.1054  248.7012 O   0  0  0  0  0  0  0  0  0  0  0  0
   43.7590   24.4147  245.5075 O   0  0  0  0  0  0  0  0  0  0  0  0
   40.8604   18.1588  244.1802 N   0  0  0  0  0  0  0  0  0  0  0  0
   38.4677   21.8385  248.0531 N   0  0  0  0  0  0  0  0  0  0  0  0
   41.8157   22.6333  244.9081 N   0  0  0  0  0  0  0  0  0  0  0  0
   42.3054   23.6438  247.0527 N   0  0  0  0  0  0  0  0  0  0  0  0
   40.7734   21.9276  244.3698 N   0  0  0  0  0  0  0  0  0  0  0  0
   39.9083   21.9557  240.2070 N   0  0  0  0  0  0  0  0  0  0  0  0
   41.1993   19.0766  243.6053 C   0  0  0  0  0  0  0  0  0  0  0  0
   39.4738   20.7961  240.9960 C   0  0  0  0  0  0  0  0  0  0  0  0
   32.0298   21.9446  235.3208 C   0  0  0  0  0  0  0  0  0  0  0  0
   33.0009   21.1616  234.7430 C   0  0  0  0  0  0  0  0  0  0  0  0
   32.3138   22.6608  236.4556 C   0  0  0  0  0  0  0  0  0  0  0  0
   41.2782   22.2911  240.6138 C   0  0  0  0  0  0  0  0  0  0  0  0
   39.8210   21.7354  245.3177 C   0  0  0  0  0  0  0  0  0  0  0  0
   39.8424   21.6868  238.7697 C   0  0  0  0  0  0  0  0  0  0  0  0
   34.2679   21.0999  235.3010 C   0  0  0  0  0  0  0  0  0  0  0  0
   33.5848   22.6182  237.0069 C   0  0  0  0  0  0  0  0  0  0  0  0
   37.7475   22.9081  238.0761 C   0  0  0  0  0  0  0  0  0  0  0  0
   37.8688   20.5690  237.6708 C   0  0  0  0  0  0  0  0  0  0  0  0
   36.4886   22.9421  237.4968 C   0  0  0  0  0  0  0  0  0  0  0  0
   36.5959   20.5937  237.1133 C   0  0  0  0  0  0  0  0  0  0  0  0
   45.5126   25.4853  247.6105 C   0  0  0  0  0  0  0  0  0  0  0  0
   44.4980   26.5384  247.5413 C   0  0  0  0  0  0  0  0  0  0  0  0
   41.7545   20.2562  242.9468 C   0  0  0  0  0  0  0  0  0  0  0  0
   39.4315   21.0982  242.4704 C   0  0  0  0  0  0  0  0  0  0  0  0
   39.6180   22.4715  247.8058 C   0  0  0  0  0  0  0  0  0  0  0  0
   43.3876   24.3831  246.6754 C   0  0  0  0  0  0  0  0  0  0  0  0
   41.3740   22.5818  242.0834 C   0  0  2  0  0  0  0  0  0  0  0  0
   41.5110   22.9192  246.1448 C   0  0  0  0  0  0  0  0  0  0  0  0
   38.4515   21.7216  238.1661 C   0  0  0  0  0  0  0  0  0  0  0  0
   44.0545   25.1189  247.7872 C   0  0  0  0  0  0  0  0  0  0  0  0
   34.5808   21.8301  236.4430 C   0  0  0  0  0  0  0  0  0  0  0  0
   35.8838   21.7854  237.0113 C   0  0  0  0  0  0  0  0  0  0  0  0
   40.2603   22.3379  246.4785 C   0  0  0  0  0  0  0  0  0  0  0  0
   40.8289   21.4762  243.0137 C   0  0  1  0  0  0  0  0  0  0  0  0
   38.0162   21.3199  247.3271 H   0  0  0  0  0  0  0  0  0  0  0  0
   38.0583   21.8832  248.9644 H   0  0  0  0  0  0  0  0  0  0  0  0
   42.0644   23.6153  248.0228 H   0  0  0  0  0  0  0  0  0  0  0  0
   40.1118   20.0422  240.8395 H   0  0  0  0  0  0  0  0  0  0  0  0
   38.5588   20.5263  240.6957 H   0  0  0  0  0  0  0  0  0  0  0  0
   31.1174   21.9920  234.9143 H   0  0  0  0  0  0  0  0  0  0  0  0
   32.7926   20.6356  233.9184 H   0  0  0  0  0  0  0  0  0  0  0  0
   31.6018   23.2153  236.8865 H   0  0  0  0  0  0  0  0  0  0  0  0
   41.5775   23.0983  240.1049 H   0  0  0  0  0  0  0  0  0  0  0  0
   41.8770   21.5199  240.3976 H   0  0  0  0  0  0  0  0  0  0  0  0
   38.9575   21.2459  245.1966 H   0  0  0  0  0  0  0  0  0  0  0  0
   40.2266   20.7779  238.6077 H   0  0  0  0  0  0  0  0  0  0  0  0
   40.3995   22.3725  238.3014 H   0  0  0  0  0  0  0  0  0  0  0  0
   34.9663   20.5230  234.8773 H   0  0  0  0  0  0  0  0  0  0  0  0
   33.7877   23.1618  237.8213 H   0  0  0  0  0  0  0  0  0  0  0  0
   38.1507   23.7508  238.4327 H   0  0  0  0  0  0  0  0  0  0  0  0
   38.3707   19.7052  237.7144 H   0  0  0  0  0  0  0  0  0  0  0  0
   36.0051   23.8146  237.4260 H   0  0  0  0  0  0  0  0  0  0  0  0
   36.1861   19.7442  236.7811 H   0  0  0  0  0  0  0  0  0  0  0  0
   46.1348   25.4438  248.3923 H   0  0  0  0  0  0  0  0  0  0  0  0
   45.9991   25.2072  246.7822 H   0  0  0  0  0  0  0  0  0  0  0  0
   44.2963   26.9773  246.6657 H   0  0  0  0  0  0  0  0  0  0  0  0
   44.4321   27.2139  248.2757 H   0  0  0  0  0  0  0  0  0  0  0  0
   41.9203   20.0353  241.9857 H   0  0  0  0  0  0  0  0  0  0  0  0
   42.6203   20.4894  243.3895 H   0  0  0  0  0  0  0  0  0  0  0  0
   39.1013   20.2901  242.9581 H   0  0  0  0  0  0  0  0  0  0  0  0
   38.8048   21.8615  242.6275 H   0  0  0  0  0  0  0  0  0  0  0  0
   42.3336   22.7448  242.3126 H   0  0  0  0  0  0  0  0  0  0  0  0
   43.7569   24.8959  248.7155 H   0  0  0  0  0  0  0  0  0  0  0  0
  1 30  1  0  0  0  0
  2 28  2  0  0  0  0
  3 29  2  0  0  0  0
  4 10  3  0  0  0  0
  5 28  1  0  0  0  0
  6  8  1  0  0  0  0
  6 31  2  0  0  0  0
  7 29  1  0  0  0  0
  7 31  1  0  0  0  0
  8 16  1  0  0  0  0
  8 37  1  0  0  0  0
  9 11  1  0  0  0  0
  9 15  1  0  0  0  0
  9 17  1  0  0  0  0
 10 26  1  0  0  0  0
 11 27  1  0  0  0  0
 12 13  2  0  0  0  0
 12 14  1  0  0  0  0
 13 18  1  0  0  0  0
 14 19  2  0  0  0  0
 15 30  1  0  0  0  0
 16 36  2  0  0  0  0
 17 32  1  0  0  0  0
 18 34  2  0  0  0  0
 19 34  1  0  0  0  0
 20 22  2  0  0  0  0
 20 32  1  0  0  0  0
 21 23  1  0  0  0  0
 21 32  2  0  0  0  0
 22 35  1  0  0  0  0
 23 35  2  0  0  0  0
 24 25  1  0  0  0  0
 24 33  1  0  0  0  0
 25 33  1  0  0  0  0
 26 37  1  0  0  0  0
 27 37  1  0  0  0  0
 28 36  1  0  0  0  0
 29 33  1  0  0  0  0
 30 37  1  0  0  0  0
 31 36  1  0  0  0  0
 34 35  1  0  0  0  0
  5 38  1  0  0  0  0
  5 39  1  0  0  0  0
  7 40  1  0  0  0  0
 11 41  1  0  0  0  0
 11 42  1  0  0  0  0
 12 43  1  0  0  0  0
 13 44  1  0  0  0  0
 14 45  1  0  0  0  0
 15 46  1  0  0  0  0
 15 47  1  0  0  0  0
 16 48  1  0  0  0  0
 17 49  1  0  0  0  0
 17 50  1  0  0  0  0
 18 51  1  0  0  0  0
 19 52  1  0  0  0  0
 20 53  1  0  0  0  0
 21 54  1  0  0  0  0
 22 55  1  0  0  0  0
 23 56  1  0  0  0  0
 24 57  1  0  0  0  0
 24 58  1  0  0  0  0
 25 59  1  0  0  0  0
 25 60  1  0  0  0  0
 26 61  1  0  0  0  0
 26 62  1  0  0  0  0
 27 63  1  0  0  0  0
 27 64  1  0  0  0  0
 30 65  1  0  0  0  0
 33 66  1  0  0  0  0
M  END
> <pdb_id>
6RSH

> <uniprot_id>
P23458

> <usmiles>
F[C@H]1[C@](N2N=C(NC(=O)C3CC3)C(C(=O)N)=C2)(CC#N)CCN(Cc4ccc(c5ccccc5)cc4)C1

$$$$
KHH_A_1201
          07212403553D 1   1.00000     0.00000     0
            
 58 60  0  0  0  0            999 V2000
   38.3262   23.9194  238.2886 F   0  0  0  0  0  0  0  0  0  0  0  0
   40.3021   23.6903  242.4760 F   0  0  0  0  0  0  0  0  0  0  0  0
   43.7348   24.3948  245.6199 O   0  0  0  0  0  0  0  0  0  0  0  0
   39.9550   22.9301  248.8749 O   0  0  0  0  0  0  0  0  0  0  0  0
   35.8072   19.2070  237.2150 O   0  0  0  0  0  0  0  0  0  0  0  0
   43.7368   24.9339  247.8323 O   0  0  0  0  0  0  0  0  0  0  0  0
   40.8547   18.0958  244.1629 N   0  0  0  0  0  0  0  0  0  0  0  0
   38.2313   21.8455  248.0202 N   0  0  0  0  0  0  0  0  0  0  0  0
   41.6983   22.5867  245.0427 N   0  0  0  0  0  0  0  0  0  0  0  0
   42.2072   23.5723  247.1335 N   0  0  0  0  0  0  0  0  0  0  0  0
   40.6688   21.8728  244.5004 N   0  0  0  0  0  0  0  0  0  0  0  0
   40.0187   21.5985  240.2982 N   0  0  0  0  0  0  0  0  0  0  0  0
   44.8945   25.7880  247.6677 C   0  0  0  0  0  0  0  0  0  0  0  0
   33.7248   22.7233  236.4159 C   0  0  0  0  0  0  0  0  0  0  0  0
   41.2195   19.0696  243.6976 C   0  0  0  0  0  0  0  0  0  0  0  0
   39.2914   20.6724  241.1727 C   0  0  0  0  0  0  0  0  0  0  0  0
   41.2116   22.2703  240.7941 C   0  0  0  0  0  0  0  0  0  0  0  0
   39.7013   21.6671  245.4469 C   0  0  0  0  0  0  0  0  0  0  0  0
   39.7523   21.6402  238.8621 C   0  0  0  0  0  0  0  0  0  0  0  0
   34.4362   21.6633  236.6022 C   0  0  0  0  0  0  0  0  0  0  0  0
   36.4536   22.8023  237.4688 C   0  0  0  0  0  0  0  0  0  0  0  0
   37.7095   20.3994  238.0263 C   0  0  0  0  0  0  0  0  0  0  0  0
   41.6846   20.2817  243.0473 C   0  0  0  0  0  0  0  0  0  0  0  0
   39.3885   21.0137  242.6662 C   0  0  0  0  0  0  0  0  0  0  0  0
   43.2670   24.3343  246.7427 C   0  0  0  0  0  0  0  0  0  0  0  0
   39.4246   22.3996  247.9106 C   0  0  0  0  0  0  0  0  0  0  0  0
   37.7084   22.7567  237.9903 C   0  0  0  0  0  0  0  0  0  0  0  0
   41.1000   22.5846  242.2275 C   0  0  2  0  0  0  0  0  0  0  0  0
   36.4420   20.3930  237.4518 C   0  0  0  0  0  0  0  0  0  0  0  0
   41.3856   22.8336  246.2901 C   0  0  0  0  0  0  0  0  0  0  0  0
   38.3278   21.6001  238.3744 C   0  0  0  0  0  0  0  0  0  0  0  0
   35.7890   21.6070  237.1877 C   0  0  0  0  0  0  0  0  0  0  0  0
   40.1207   22.2981  246.5990 C   0  0  0  0  0  0  0  0  0  0  0  0
   40.7959   21.4339  243.1485 C   0  0  1  0  0  0  0  0  0  0  0  0
   34.8965   19.2011  236.8021 H   0  0  0  0  0  0  0  0  0  0  0  0
   37.8055   21.4138  247.2250 H   0  0  0  0  0  0  0  0  0  0  0  0
   37.7532   21.8576  248.8984 H   0  0  0  0  0  0  0  0  0  0  0  0
   42.0028   23.5418  248.1119 H   0  0  0  0  0  0  0  0  0  0  0  0
   45.1497   26.1778  248.5525 H   0  0  0  0  0  0  0  0  0  0  0  0
   45.6570   25.2502  247.3080 H   0  0  0  0  0  0  0  0  0  0  0  0
   44.6763   26.5257  247.0288 H   0  0  0  0  0  0  0  0  0  0  0  0
   32.8145   22.6493  236.0087 H   0  0  0  0  0  0  0  0  0  0  0  0
   34.0837   23.6189  236.6787 H   0  0  0  0  0  0  0  0  0  0  0  0
   39.6627   19.7541  241.0356 H   0  0  0  0  0  0  0  0  0  0  0  0
   38.3267   20.6845  240.9098 H   0  0  0  0  0  0  0  0  0  0  0  0
   41.3406   23.1209  240.2844 H   0  0  0  0  0  0  0  0  0  0  0  0
   42.0020   21.6741  240.6532 H   0  0  0  0  0  0  0  0  0  0  0  0
   38.8507   21.1555  245.3256 H   0  0  0  0  0  0  0  0  0  0  0  0
   40.2219   20.8564  238.4555 H   0  0  0  0  0  0  0  0  0  0  0  0
   40.1556   22.4870  238.5152 H   0  0  0  0  0  0  0  0  0  0  0  0
   34.0303   20.7935  236.3219 H   0  0  0  0  0  0  0  0  0  0  0  0
   36.0120   23.6812  237.2888 H   0  0  0  0  0  0  0  0  0  0  0  0
   38.1820   19.5337  238.1914 H   0  0  0  0  0  0  0  0  0  0  0  0
   41.8157   20.0789  242.0769 H   0  0  0  0  0  0  0  0  0  0  0  0
   42.5616   20.5331  243.4568 H   0  0  0  0  0  0  0  0  0  0  0  0
   39.1094   20.2074  243.1877 H   0  0  0  0  0  0  0  0  0  0  0  0
   38.7581   21.7669  242.8542 H   0  0  0  0  0  0  0  0  0  0  0  0
   42.0194   22.8772  242.4903 H   0  0  0  0  0  0  0  0  0  0  0  0
  1 27  1  0  0  0  0
  2 28  1  0  0  0  0
  3 25  2  0  0  0  0
  4 26  2  0  0  0  0
  5 29  1  0  0  0  0
  6 13  1  0  0  0  0
  6 25  1  0  0  0  0
  7 15  3  0  0  0  0
  8 26  1  0  0  0  0
  9 11  1  0  0  0  0
  9 30  2  0  0  0  0
 10 25  1  0  0  0  0
 10 30  1  0  0  0  0
 11 18  1  0  0  0  0
 11 34  1  0  0  0  0
 12 16  1  0  0  0  0
 12 17  1  0  0  0  0
 12 19  1  0  0  0  0
 14 20  2  0  0  0  0
 15 23  1  0  0  0  0
 16 24  1  0  0  0  0
 17 28  1  0  0  0  0
 18 33  2  0  0  0  0
 19 31  1  0  0  0  0
 20 32  1  0  0  0  0
 21 27  1  0  0  0  0
 21 32  2  0  0  0  0
 22 29  2  0  0  0  0
 22 31  1  0  0  0  0
 23 34  1  0  0  0  0
 24 34  1  0  0  0  0
 26 33  1  0  0  0  0
 27 31  2  0  0  0  0
 28 34  1  0  0  0  0
 29 32  1  0  0  0  0
 30 33  1  0  0  0  0
  5 35  1  0  0  0  0
  8 36  1  0  0  0  0
  8 37  1  0  0  0  0
 10 38  1  0  0  0  0
 13 39  1  0  0  0  0
 13 40  1  0  0  0  0
 13 41  1  0  0  0  0
 14 42  1  0  0  0  0
 14 43  1  0  0  0  0
 16 44  1  0  0  0  0
 16 45  1  0  0  0  0
 17 46  1  0  0  0  0
 17 47  1  0  0  0  0
 18 48  1  0  0  0  0
 19 49  1  0  0  0  0
 19 50  1  0  0  0  0
 20 51  1  0  0  0  0
 21 52  1  0  0  0  0
 22 53  1  0  0  0  0
 23 54  1  0  0  0  0
 23 55  1  0  0  0  0
 24 56  1  0  0  0  0
 24 57  1  0  0  0  0
 28 58  1  0  0  0  0
M  END
> <pdb_id>
6RSE

> <uniprot_id>
P23458

> <usmiles>
Fc1c(cc(O)c(c1)C=C)CN2C[C@@H](F)[C@](N3N=C(NC(=O)OC)C(C(=O)N)=C3)(CC#N)CC2

$$$$
KIF_A_501
          07192420163D 1   1.00000     0.00000     0
            
 28 29  0  0  0  0            999 V2000
   25.8060   22.0260   48.3480 O   0  0  0  0  0  0  0  0  0  0  0  0
   27.3710   20.0300   43.4970 O   0  0  0  0  0  0  0  0  0  0  0  0
   24.9820   21.2800   44.7290 O   0  0  0  0  0  0  0  0  0  0  0  0
   26.9220   16.5120   47.3720 O   0  0  0  0  0  0  0  0  0  0  0  0
   25.7330   17.8770   49.3440 O   0  0  0  0  0  0  0  0  0  0  0  0
   22.9670   18.3270   46.9040 O   0  0  0  0  0  0  0  0  0  0  0  0
   27.4300   18.9130   45.5050 N   0  0  0  0  0  0  0  0  0  0  0  0
   25.5880   19.8690   46.4850 N   0  0  0  0  0  0  0  0  0  0  0  0
   25.0170   20.8800   48.7010 C   0  0  0  0  0  0  0  0  0  0  0  0
   26.9180   19.7870   44.6440 C   0  0  0  0  0  0  0  0  0  0  0  0
   25.6920   20.4130   45.2330 C   0  0  0  0  0  0  0  0  0  0  0  0
   26.6140   18.8580   46.7500 C   0  0  1  0  0  0  0  0  0  0  0  0
   25.9520   17.5000   46.9900 C   0  0  2  0  0  0  0  0  0  0  0  0
   24.9420   17.6260   48.1550 C   0  0  2  0  0  0  0  0  0  0  0  0
   23.9050   18.7540   47.9100 C   0  0  1  0  0  0  0  0  0  0  0  0
   24.5210   20.0880   47.4930 C   0  0  2  0  0  0  0  0  0  0  0  0
   26.0981   22.4985   49.1795 H   0  0  0  0  0  0  0  0  0  0  0  0
   26.4640   15.6359   47.5224 H   0  0  0  0  0  0  0  0  0  0  0  0
   25.1271   17.9678   50.1344 H   0  0  0  0  0  0  0  0  0  0  0  0
   22.2971   19.0519   46.7437 H   0  0  0  0  0  0  0  0  0  0  0  0
   28.2511   18.3668   45.3394 H   0  0  0  0  0  0  0  0  0  0  0  0
   24.2231   21.1908   49.2237 H   0  0  0  0  0  0  0  0  0  0  0  0
   25.5742   20.2747   49.2695 H   0  0  0  0  0  0  0  0  0  0  0  0
   27.1666   19.1211   47.5409 H   0  0  0  0  0  0  0  0  0  0  0  0
   25.4769   17.2044   46.1612 H   0  0  0  0  0  0  0  0  0  0  0  0
   24.4588   16.7571   48.2626 H   0  0  0  0  0  0  0  0  0  0  0  0
   23.4002   18.8995   48.7609 H   0  0  0  0  0  0  0  0  0  0  0  0
   23.8012   20.6272   47.0557 H   0  0  0  0  0  0  0  0  0  0  0  0
  1  9  1  0  0  0  0
  2 10  2  0  0  0  0
  3 11  2  0  0  0  0
  4 13  1  0  0  0  0
  5 14  1  0  0  0  0
  6 15  1  0  0  0  0
  7 10  1  0  0  0  0
  7 12  1  0  0  0  0
  8 11  1  0  0  0  0
  8 12  1  0  0  0  0
  8 16  1  0  0  0  0
  9 16  1  0  0  0  0
 10 11  1  0  0  0  0
 12 13  1  0  0  0  0
 13 14  1  0  0  0  0
 14 15  1  0  0  0  0
 15 16  1  0  0  0  0
  1 17  1  0  0  0  0
  4 18  1  0  0  0  0
  5 19  1  0  0  0  0
  6 20  1  0  0  0  0
  7 21  1  0  0  0  0
  9 22  1  0  0  0  0
  9 23  1  0  0  0  0
 12 24  1  0  0  0  0
 13 25  1  0  0  0  0
 14 26  1  0  0  0  0
 15 27  1  0  0  0  0
 16 28  1  0  0  0  0
M  END
> <pdb_id>
5NE5

> <uniprot_id>
B0SWV2

> <usmiles>
O=C1N2[C@@H]([C@@H](O)[C@H](O)[C@H](O)[C@H]2NC1=O)CO

$$$$
KIF_C_801
          07192418013D 1   1.00000     0.00000     0
            
 28 29  0  0  0  0            999 V2000
   12.2420   -9.9810   12.5310 O   0  0  0  0  0  0  0  0  0  0  0  0
   14.6890  -15.2580   14.6010 O   0  0  0  0  0  0  0  0  0  0  0  0
   15.6630  -12.7670   13.6150 O   0  0  0  0  0  0  0  0  0  0  0  0
   11.9750  -15.4300   10.5770 O   0  0  0  0  0  0  0  0  0  0  0  0
   10.8800  -13.1930    9.5590 O   0  0  0  0  0  0  0  0  0  0  0  0
   12.7460  -10.7220    9.4470 O   0  0  0  0  0  0  0  0  0  0  0  0
   12.9450  -14.8450   13.1770 N   0  0  0  0  0  0  0  0  0  0  0  0
   13.6730  -12.7870   12.3800 N   0  0  0  0  0  0  0  0  0  0  0  0
   13.6160  -10.3230   12.3400 C   0  0  0  0  0  0  0  0  0  0  0  0
   14.1260  -14.5480   13.7550 C   0  0  0  0  0  0  0  0  0  0  0  0
   14.6120  -13.3220   13.2760 C   0  0  0  0  0  0  0  0  0  0  0  0
   12.5880  -13.7670   12.2350 C   0  0  1  0  0  0  0  0  0  0  0  0
   12.7120  -14.2310   10.7860 C   0  0  2  0  0  0  0  0  0  0  0  0
   12.2750  -13.0800    9.8560 C   0  0  2  0  0  0  0  0  0  0  0  0
   12.5100  -11.6790   10.4820 C   0  0  1  0  0  0  0  0  0  0  0  0
   13.6700  -11.6000   11.5080 C   0  0  2  0  0  0  0  0  0  0  0  0
   12.1793   -9.1445   13.0754 H   0  0  0  0  0  0  0  0  0  0  0  0
   12.0688  -15.7170    9.6237 H   0  0  0  0  0  0  0  0  0  0  0  0
   10.6057  -12.4436    8.9563 H   0  0  0  0  0  0  0  0  0  0  0  0
   12.8969   -9.8211    9.8541 H   0  0  0  0  0  0  0  0  0  0  0  0
   12.3993  -15.6633   13.3574 H   0  0  0  0  0  0  0  0  0  0  0  0
   14.0544  -10.4758   13.2257 H   0  0  0  0  0  0  0  0  0  0  0  0
   14.0864   -9.5836   11.8584 H   0  0  0  0  0  0  0  0  0  0  0  0
   11.6906  -13.3721   12.4320 H   0  0  0  0  0  0  0  0  0  0  0  0
   13.6761  -14.4254   10.6052 H   0  0  0  0  0  0  0  0  0  0  0  0
   12.7920  -13.1420    9.0022 H   0  0  0  0  0  0  0  0  0  0  0  0
   11.6694  -11.4134   10.9542 H   0  0  0  0  0  0  0  0  0  0  0  0
   14.5295  -11.5949   10.9968 H   0  0  0  0  0  0  0  0  0  0  0  0
  1  9  1  0  0  0  0
  2 10  2  0  0  0  0
  3 11  2  0  0  0  0
  4 13  1  0  0  0  0
  5 14  1  0  0  0  0
  6 15  1  0  0  0  0
  7 10  1  0  0  0  0
  7 12  1  0  0  0  0
  8 11  1  0  0  0  0
  8 12  1  0  0  0  0
  8 16  1  0  0  0  0
  9 16  1  0  0  0  0
 10 11  1  0  0  0  0
 12 13  1  0  0  0  0
 13 14  1  0  0  0  0
 14 15  1  0  0  0  0
 15 16  1  0  0  0  0
  1 17  1  0  0  0  0
  4 18  1  0  0  0  0
  5 19  1  0  0  0  0
  6 20  1  0  0  0  0
  7 21  1  0  0  0  0
  9 22  1  0  0  0  0
  9 23  1  0  0  0  0
 12 24  1  0  0  0  0
 13 25  1  0  0  0  0
 14 26  1  0  0  0  0
 15 27  1  0  0  0  0
 16 28  1  0  0  0  0
M  END
> <pdb_id>
2WVZ

> <uniprot_id>
Q8A0N1

> <usmiles>
O=C1N2[C@@H]([C@@H](O)[C@H](O)[C@H](O)[C@H]2NC1=O)CO

$$$$
KII_A_803
          07192416573D 1   1.00000     0.00000     0
            
 44 47  0  0  0  0            999 V2000
   20.1488   -3.6987   20.0449 O   0  0  0  0  0  0  0  0  0  0  0  0
   17.0478   -2.3298   20.7006 N   0  0  0  0  0  0  0  0  0  0  0  0
   21.0283   -5.3683   24.6018 N   0  0  0  0  0  0  0  0  0  0  0  0
   20.2944   -3.0940   15.1812 N   0  0  0  0  0  0  0  0  0  0  0  0
   24.2631   -4.5733   23.1765 N   0  0  0  0  0  0  0  0  0  0  0  0
   18.9666   -3.9461   21.8823 N   0  0  0  0  0  0  0  0  0  0  0  0
   16.2140   -1.7002   19.8281 N   0  0  0  0  0  0  0  0  0  0  0  0
   19.8558   -5.0723   24.0377 N   0  0  0  0  0  0  0  0  0  0  0  0
   15.0814   -0.9117   20.3474 C   0  0  0  0  0  0  0  0  0  0  0  0
   18.5732   -5.3260   24.6962 C   0  0  0  0  0  0  0  0  0  0  0  0
   18.9644   -3.2231   15.1577 C   0  0  0  0  0  0  0  0  0  0  0  0
   20.8718   -2.7745   16.3802 C   0  0  0  0  0  0  0  0  0  0  0  0
   25.6118   -4.5674   23.4854 C   0  0  0  0  0  0  0  0  0  0  0  0
   16.6607   -1.8212   18.4366 C   0  0  0  0  0  0  0  0  0  0  0  0
   26.0720   -5.1500   24.7216 C   0  0  0  0  0  0  0  0  0  0  0  0
   25.0990   -5.6853   25.6049 C   0  0  0  0  0  0  0  0  0  0  0  0
   18.0984   -3.0922   16.2497 C   0  0  0  0  0  0  0  0  0  0  0  0
   20.0935   -2.6094   17.5522 C   0  0  0  0  0  0  0  0  0  0  0  0
   23.7133   -5.6612   25.3400 C   0  0  0  0  0  0  0  0  0  0  0  0
   21.4059   -4.3754   22.4613 C   0  0  0  0  0  0  0  0  0  0  0  0
   19.1353   -3.5022   20.6108 C   0  0  0  0  0  0  0  0  0  0  0  0
   20.0299   -4.4332   22.6933 C   0  0  0  0  0  0  0  0  0  0  0  0
   21.9716   -5.0062   23.6741 C   0  0  0  0  0  0  0  0  0  0  0  0
   23.3613   -5.1156   24.0362 C   0  0  0  0  0  0  0  0  0  0  0  0
   18.0541   -2.8051   19.9751 C   0  0  0  0  0  0  0  0  0  0  0  0
   18.6872   -2.8245   17.4677 C   0  0  0  0  0  0  0  0  0  0  0  0
   17.8580   -2.5477   18.5623 C   0  0  0  0  0  0  0  0  0  0  0  0
   18.0451   -3.9300   22.2704 H   0  0  0  0  0  0  0  0  0  0  0  0
   14.5713   -0.5175   19.5830 H   0  0  0  0  0  0  0  0  0  0  0  0
   14.4781   -1.5055   20.8798 H   0  0  0  0  0  0  0  0  0  0  0  0
   15.4267   -0.1773   20.9317 H   0  0  0  0  0  0  0  0  0  0  0  0
   17.8276   -5.0298   24.0991 H   0  0  0  0  0  0  0  0  0  0  0  0
   18.4820   -6.3041   24.8831 H   0  0  0  0  0  0  0  0  0  0  0  0
   18.5336   -4.8172   25.5562 H   0  0  0  0  0  0  0  0  0  0  0  0
   18.5472   -3.4338   14.2736 H   0  0  0  0  0  0  0  0  0  0  0  0
   21.8634   -2.6551   16.4299 H   0  0  0  0  0  0  0  0  0  0  0  0
   26.2679   -4.1589   22.8509 H   0  0  0  0  0  0  0  0  0  0  0  0
   16.2237   -1.4741   17.6068 H   0  0  0  0  0  0  0  0  0  0  0  0
   27.0455   -5.1758   24.9490 H   0  0  0  0  0  0  0  0  0  0  0  0
   25.4114   -6.1010   26.4591 H   0  0  0  0  0  0  0  0  0  0  0  0
   17.1077   -3.1876   16.1520 H   0  0  0  0  0  0  0  0  0  0  0  0
   20.5205   -2.3483   18.4180 H   0  0  0  0  0  0  0  0  0  0  0  0
   23.0306   -5.9909   25.9922 H   0  0  0  0  0  0  0  0  0  0  0  0
   21.8895   -4.0002   21.6705 H   0  0  0  0  0  0  0  0  0  0  0  0
  1 21  2  0  0  0  0
  2  7  1  0  0  0  0
  2 25  2  0  0  0  0
  3  8  1  0  0  0  0
  3 23  2  0  0  0  0
  4 11  2  0  0  0  0
  4 12  1  0  0  0  0
  5 13  1  0  0  0  0
  5 24  2  0  0  0  0
  6 21  1  0  0  0  0
  6 22  1  0  0  0  0
  7  9  1  0  0  0  0
  7 14  1  0  0  0  0
  8 10  1  0  0  0  0
  8 22  1  0  0  0  0
 11 17  1  0  0  0  0
 12 18  2  0  0  0  0
 13 15  2  0  0  0  0
 14 27  2  0  0  0  0
 15 16  1  0  0  0  0
 16 19  2  0  0  0  0
 17 26  2  0  0  0  0
 18 26  1  0  0  0  0
 19 24  1  0  0  0  0
 20 22  2  0  0  0  0
 20 23  1  0  0  0  0
 21 25  1  0  0  0  0
 23 24  1  0  0  0  0
 25 27  1  0  0  0  0
 26 27  1  0  0  0  0
  6 28  1  0  0  0  0
  9 29  1  0  0  0  0
  9 30  1  0  0  0  0
  9 31  1  0  0  0  0
 10 32  1  0  0  0  0
 10 33  1  0  0  0  0
 10 34  1  0  0  0  0
 11 35  1  0  0  0  0
 12 36  1  0  0  0  0
 13 37  1  0  0  0  0
 14 38  1  0  0  0  0
 15 39  1  0  0  0  0
 16 40  1  0  0  0  0
 17 41  1  0  0  0  0
 18 42  1  0  0  0  0
 19 43  1  0  0  0  0
 20 44  1  0  0  0  0
M  END
> <pdb_id>
5SKR

> <uniprot_id>
Q9Y233

> <usmiles>
O=C(NC=1N(N=C(c2ncccc2)C1)C)C3=NN(C=C3c4ccncc4)C

$$$$
KK3_D_304
          07202406093D 1   1.00000     0.00000     0
            
 43 45  0  0  0  0            999 V2000
   58.2178    2.0310  126.5160 F   0  0  0  0  0  0  0  0  0  0  0  0
   59.5144    0.4270  125.9271 F   0  0  0  0  0  0  0  0  0  0  0  0
   57.3885    0.0988  125.9257 F   0  0  0  0  0  0  0  0  0  0  0  0
   61.2216    3.1295  117.8918 N   0  0  0  0  0  0  0  0  0  0  0  0
   58.9100    3.1700  117.3894 N   0  0  0  0  0  0  0  0  0  0  0  0
   59.7531    2.7142  119.6422 N   0  0  0  0  0  0  0  0  0  0  0  0
   56.6606    3.2277  116.8019 N   0  0  0  0  0  0  0  0  0  0  0  0
   54.4540    0.3434  114.4547 C   0  0  0  0  0  0  0  0  0  0  0  0
   57.0543    3.0381  115.3649 C   0  0  0  0  0  0  0  0  0  0  0  0
   55.1920    3.0697  117.1316 C   0  0  0  0  0  0  0  0  0  0  0  0
   55.9988    2.2878  114.5604 C   0  0  0  0  0  0  0  0  0  0  0  0
   54.4974    1.8633  116.4396 C   0  0  0  0  0  0  0  0  0  0  0  0
   58.3374    3.2538  122.5067 C   0  0  0  0  0  0  0  0  0  0  0  0
   58.4353    0.9326  121.8803 C   0  0  0  0  0  0  0  0  0  0  0  0
   58.3183    2.8754  123.8591 C   0  0  0  0  0  0  0  0  0  0  0  0
   58.4129    0.5559  123.1960 C   0  0  0  0  0  0  0  0  0  0  0  0
   57.3534    2.7452  119.2210 C   0  0  0  0  0  0  0  0  0  0  0  0
   59.9196    2.9976  118.3349 C   0  0  0  0  0  0  0  0  0  0  0  0
   57.6109    3.0459  117.8557 C   0  0  0  0  0  0  0  0  0  0  0  0
   58.4758    2.6012  120.0772 C   0  0  0  0  0  0  0  0  0  0  0  0
   55.3274    1.2061  115.3651 C   0  0  0  0  0  0  0  0  0  0  0  0
   58.3868    2.2696  121.4999 C   0  0  0  0  0  0  0  0  0  0  0  0
   58.3512    1.5155  124.1866 C   0  0  0  0  0  0  0  0  0  0  0  0
   58.3443    1.0397  125.6144 C   0  0  0  0  0  0  0  0  0  0  0  0
   61.9815    3.0150  118.5316 H   0  0  0  0  0  0  0  0  0  0  0  0
   61.4040    3.3394  116.9312 H   0  0  0  0  0  0  0  0  0  0  0  0
   54.0123   -0.3717  114.9964 H   0  0  0  0  0  0  0  0  0  0  0  0
   53.7554    0.9147  114.0239 H   0  0  0  0  0  0  0  0  0  0  0  0
   55.0229   -0.0772  113.7480 H   0  0  0  0  0  0  0  0  0  0  0  0
   57.9091    2.5201  115.3329 H   0  0  0  0  0  0  0  0  0  0  0  0
   57.1936    3.9372  114.9500 H   0  0  0  0  0  0  0  0  0  0  0  0
   54.7182    3.9046  116.8515 H   0  0  0  0  0  0  0  0  0  0  0  0
   55.1055    2.9534  118.1211 H   0  0  0  0  0  0  0  0  0  0  0  0
   56.4376    1.8708  113.7645 H   0  0  0  0  0  0  0  0  0  0  0  0
   55.3042    2.9392  114.2551 H   0  0  0  0  0  0  0  0  0  0  0  0
   53.6466    2.1865  116.0253 H   0  0  0  0  0  0  0  0  0  0  0  0
   54.2889    1.1784  117.1379 H   0  0  0  0  0  0  0  0  0  0  0  0
   58.3160    4.2222  122.2584 H   0  0  0  0  0  0  0  0  0  0  0  0
   58.4880    0.2274  121.1733 H   0  0  0  0  0  0  0  0  0  0  0  0
   58.2817    3.5689  124.5786 H   0  0  0  0  0  0  0  0  0  0  0  0
   58.4413   -0.4136  123.4395 H   0  0  0  0  0  0  0  0  0  0  0  0
   56.4199    2.6394  119.5638 H   0  0  0  0  0  0  0  0  0  0  0  0
   56.0255    0.6319  115.7928 H   0  0  0  0  0  0  0  0  0  0  0  0
  1 24  1  0  0  0  0
  2 24  1  0  0  0  0
  3 24  1  0  0  0  0
  4 18  1  0  0  0  0
  5 18  2  0  0  0  0
  5 19  1  0  0  0  0
  6 18  1  0  0  0  0
  6 20  2  0  0  0  0
  7  9  1  0  0  0  0
  7 10  1  0  0  0  0
  7 19  1  0  0  0  0
  8 21  1  0  0  0  0
  9 11  1  0  0  0  0
 10 12  1  0  0  0  0
 11 21  1  0  0  0  0
 12 21  1  0  0  0  0
 13 15  2  0  0  0  0
 13 22  1  0  0  0  0
 14 16  1  0  0  0  0
 14 22  2  0  0  0  0
 15 23  1  0  0  0  0
 16 23  2  0  0  0  0
 17 19  2  0  0  0  0
 17 20  1  0  0  0  0
 20 22  1  0  0  0  0
 23 24  1  0  0  0  0
  4 25  1  0  0  0  0
  4 26  1  0  0  0  0
  8 27  1  0  0  0  0
  8 28  1  0  0  0  0
  8 29  1  0  0  0  0
  9 30  1  0  0  0  0
  9 31  1  0  0  0  0
 10 32  1  0  0  0  0
 10 33  1  0  0  0  0
 11 34  1  0  0  0  0
 11 35  1  0  0  0  0
 12 36  1  0  0  0  0
 12 37  1  0  0  0  0
 13 38  1  0  0  0  0
 14 39  1  0  0  0  0
 15 40  1  0  0  0  0
 16 41  1  0  0  0  0
 17 42  1  0  0  0  0
 21 43  1  0  0  0  0
M  END
> <pdb_id>
4QAC

> <uniprot_id>
P58154

> <usmiles>
FC(F)(F)c1ccc(c2nc(nc(N3CCC(CC3)C)c2)N)cc1

$$$$
KK7_B_1001
          07212402493D 1   1.00000     0.00000     0
            
 34 36  0  0  0  0            999 V2000
   18.5921  -21.6707  -46.9084 O   0  0  0  0  0  0  0  0  0  0  0  0
   18.9309  -20.3577  -55.6976 N   0  0  0  0  0  0  0  0  0  0  0  0
   18.8437  -19.8297  -54.4301 N   0  0  0  0  0  0  0  0  0  0  0  0
   19.8149  -23.6179  -45.6081 N   0  0  0  0  0  0  0  0  0  0  0  0
   19.4779  -22.2797  -48.9852 N   0  0  0  0  0  0  0  0  0  0  0  0
   18.6069  -22.0016  -54.3047 N   0  0  0  0  0  0  0  0  0  0  0  0
   18.4036  -23.3635  -53.8933 C   0  0  0  0  0  0  0  0  0  0  0  0
   18.7896  -21.6525  -55.6038 C   0  0  0  0  0  0  0  0  0  0  0  0
   20.3621  -24.6662  -44.9485 C   0  0  0  0  0  0  0  0  0  0  0  0
   21.0034  -25.7195  -45.5705 C   0  0  0  0  0  0  0  0  0  0  0  0
   21.0929  -25.6793  -46.9627 C   0  0  0  0  0  0  0  0  0  0  0  0
   17.7271  -19.2097  -50.2696 C   0  0  0  0  0  0  0  0  0  0  0  0
   18.2524  -20.1143  -49.3445 C   0  0  0  0  0  0  0  0  0  0  0  0
   20.5335  -24.6164  -47.6798 C   0  0  0  0  0  0  0  0  0  0  0  0
   17.8599  -19.4463  -51.6466 C   0  0  0  0  0  0  0  0  0  0  0  0
   19.0409  -21.4942  -51.1874 C   0  0  0  0  0  0  0  0  0  0  0  0
   19.2723  -22.4214  -47.6132 C   0  0  0  0  0  0  0  0  0  0  0  0
   18.6470  -20.8177  -53.5706 C   0  0  0  0  0  0  0  0  0  0  0  0
   18.9279  -21.2655  -49.8047 C   0  0  0  0  0  0  0  0  0  0  0  0
   19.9193  -23.5994  -46.9646 C   0  0  0  0  0  0  0  0  0  0  0  0
   18.5120  -20.5987  -52.1256 C   0  0  0  0  0  0  0  0  0  0  0  0
   20.0665  -22.9550  -49.4296 H   0  0  0  0  0  0  0  0  0  0  0  0
   18.2910  -23.3984  -52.9003 H   0  0  0  0  0  0  0  0  0  0  0  0
   17.5830  -23.7261  -54.3349 H   0  0  0  0  0  0  0  0  0  0  0  0
   19.1956  -23.9135  -54.1585 H   0  0  0  0  0  0  0  0  0  0  0  0
   18.8125  -22.2908  -56.3732 H   0  0  0  0  0  0  0  0  0  0  0  0
   20.2981  -24.6785  -43.9506 H   0  0  0  0  0  0  0  0  0  0  0  0
   21.3875  -26.4790  -45.0455 H   0  0  0  0  0  0  0  0  0  0  0  0
   21.5606  -26.4159  -47.4513 H   0  0  0  0  0  0  0  0  0  0  0  0
   17.2538  -18.3891  -49.9493 H   0  0  0  0  0  0  0  0  0  0  0  0
   18.1509  -19.9480  -48.3637 H   0  0  0  0  0  0  0  0  0  0  0  0
   20.5752  -24.5908  -48.6786 H   0  0  0  0  0  0  0  0  0  0  0  0
   17.4856  -18.7861  -52.2977 H   0  0  0  0  0  0  0  0  0  0  0  0
   19.5104  -22.3164  -51.5089 H   0  0  0  0  0  0  0  0  0  0  0  0
  1 17  2  0  0  0  0
  2  3  1  0  0  0  0
  2  8  2  0  0  0  0
  3 18  2  0  0  0  0
  4  9  1  0  0  0  0
  4 20  2  0  0  0  0
  5 17  1  0  0  0  0
  5 19  1  0  0  0  0
  6  7  1  0  0  0  0
  6  8  1  0  0  0  0
  6 18  1  0  0  0  0
  9 10  2  0  0  0  0
 10 11  1  0  0  0  0
 11 14  2  0  0  0  0
 12 13  1  0  0  0  0
 12 15  2  0  0  0  0
 13 19  2  0  0  0  0
 14 20  1  0  0  0  0
 15 21  1  0  0  0  0
 16 19  1  0  0  0  0
 16 21  2  0  0  0  0
 17 20  1  0  0  0  0
 18 21  1  0  0  0  0
  5 22  1  0  0  0  0
  7 23  1  0  0  0  0
  7 24  1  0  0  0  0
  7 25  1  0  0  0  0
  8 26  1  0  0  0  0
  9 27  1  0  0  0  0
 10 28  1  0  0  0  0
 11 29  1  0  0  0  0
 12 30  1  0  0  0  0
 13 31  1  0  0  0  0
 14 32  1  0  0  0  0
 15 33  1  0  0  0  0
 16 34  1  0  0  0  0
M  END
> <pdb_id>
6E2M

> <uniprot_id>
Q99683

> <usmiles>
O=C(Nc1cc(ccc1)C2=NN=CN2C)c3ncccc3

$$$$
KK8_A_1001
          07212402493D 1   1.00000     0.00000     0
            
 47 51  0  0  0  0            999 V2000
   18.5402  -21.6246  -46.9528 O   0  0  0  0  0  0  0  0  0  0  0  0
   18.7629  -20.0528  -55.7442 N   0  0  0  0  0  0  0  0  0  0  0  0
   18.5049  -19.5741  -54.4773 N   0  0  0  0  0  0  0  0  0  0  0  0
   20.3402  -24.3408  -41.5539 N   0  0  0  0  0  0  0  0  0  0  0  0
   20.5737  -24.2684  -48.0106 N   0  0  0  0  0  0  0  0  0  0  0  0
   19.4543  -22.0971  -49.0435 N   0  0  0  0  0  0  0  0  0  0  0  0
   19.0453  -21.6743  -54.3132 N   0  0  0  0  0  0  0  0  0  0  0  0
   19.0799  -21.3253  -55.6238 C   0  0  0  0  0  0  0  0  0  0  0  0
   20.2488  -25.6072  -41.1046 C   0  0  0  0  0  0  0  0  0  0  0  0
   21.1867  -25.3640  -47.5264 C   0  0  0  0  0  0  0  0  0  0  0  0
   20.4324  -24.1748  -42.8862 C   0  0  0  0  0  0  0  0  0  0  0  0
   20.2504  -26.7047  -41.9381 C   0  0  0  0  0  0  0  0  0  0  0  0
   17.6527  -19.0597  -50.3026 C   0  0  0  0  0  0  0  0  0  0  0  0
   18.1947  -19.9741  -49.3935 C   0  0  0  0  0  0  0  0  0  0  0  0
   21.1843  -25.7083  -46.1868 C   0  0  0  0  0  0  0  0  0  0  0  0
   20.3503  -26.4921  -43.3212 C   0  0  0  0  0  0  0  0  0  0  0  0
   17.8177  -19.2478  -51.6775 C   0  0  0  0  0  0  0  0  0  0  0  0
   18.3172  -23.8296  -53.1144 C   0  0  0  0  0  0  0  0  0  0  0  0
   18.6729  -24.1839  -54.5269 C   0  0  0  0  0  0  0  0  0  0  0  0
   19.0306  -21.2894  -51.2426 C   0  0  0  0  0  0  0  0  0  0  0  0
   19.8738  -23.7578  -45.7594 C   0  0  0  0  0  0  0  0  0  0  0  0
   19.2467  -22.2982  -47.6904 C   0  0  0  0  0  0  0  0  0  0  0  0
   18.8950  -21.0876  -49.8581 C   0  0  0  0  0  0  0  0  0  0  0  0
   18.6742  -20.5515  -53.6009 C   0  0  0  0  0  0  0  0  0  0  0  0
   19.9313  -23.4837  -47.1120 C   0  0  0  0  0  0  0  0  0  0  0  0
   19.3328  -22.9990  -53.8659 C   0  0  0  0  0  0  0  0  0  0  0  0
   20.4456  -25.1917  -43.8318 C   0  0  0  0  0  0  0  0  0  0  0  0
   18.4965  -20.3781  -52.1646 C   0  0  0  0  0  0  0  0  0  0  0  0
   20.5218  -24.8940  -45.2681 C   0  0  0  0  0  0  0  0  0  0  0  0
   20.0713  -22.7403  -49.4969 H   0  0  0  0  0  0  0  0  0  0  0  0
   19.3101  -21.9382  -56.3798 H   0  0  0  0  0  0  0  0  0  0  0  0
   20.1762  -25.7584  -40.1188 H   0  0  0  0  0  0  0  0  0  0  0  0
   21.6690  -25.9601  -48.1683 H   0  0  0  0  0  0  0  0  0  0  0  0
   20.4972  -23.2363  -43.2252 H   0  0  0  0  0  0  0  0  0  0  0  0
   20.1820  -27.6304  -41.5660 H   0  0  0  0  0  0  0  0  0  0  0  0
   17.1443  -18.2668  -49.9668 H   0  0  0  0  0  0  0  0  0  0  0  0
   18.0801  -19.8297  -48.4106 H   0  0  0  0  0  0  0  0  0  0  0  0
   21.6544  -26.5355  -45.8789 H   0  0  0  0  0  0  0  0  0  0  0  0
   20.3534  -27.2731  -43.9456 H   0  0  0  0  0  0  0  0  0  0  0  0
   17.4504  -18.5741  -52.3188 H   0  0  0  0  0  0  0  0  0  0  0  0
   18.6119  -24.4188  -52.3622 H   0  0  0  0  0  0  0  0  0  0  0  0
   17.4161  -23.4491  -52.9065 H   0  0  0  0  0  0  0  0  0  0  0  0
   18.0081  -24.0402  -55.2600 H   0  0  0  0  0  0  0  0  0  0  0  0
   19.2039  -25.0099  -54.7156 H   0  0  0  0  0  0  0  0  0  0  0  0
   19.5167  -22.0973  -51.5759 H   0  0  0  0  0  0  0  0  0  0  0  0
   19.3752  -23.1512  -45.1402 H   0  0  0  0  0  0  0  0  0  0  0  0
   20.2821  -23.1498  -53.5900 H   0  0  0  0  0  0  0  0  0  0  0  0
  1 22  2  0  0  0  0
  2  3  1  0  0  0  0
  2  8  2  0  0  0  0
  3 24  2  0  0  0  0
  4  9  2  0  0  0  0
  4 11  1  0  0  0  0
  5 10  1  0  0  0  0
  5 25  2  0  0  0  0
  6 22  1  0  0  0  0
  6 23  1  0  0  0  0
  7  8  1  0  0  0  0
  7 24  1  0  0  0  0
  7 26  1  0  0  0  0
  9 12  1  0  0  0  0
 10 15  2  0  0  0  0
 11 27  2  0  0  0  0
 12 16  2  0  0  0  0
 13 14  1  0  0  0  0
 13 17  2  0  0  0  0
 14 23  2  0  0  0  0
 15 29  1  0  0  0  0
 16 27  1  0  0  0  0
 17 28  1  0  0  0  0
 18 19  1  0  0  0  0
 18 26  1  0  0  0  0
 19 26  1  0  0  0  0
 20 23  1  0  0  0  0
 20 28  2  0  0  0  0
 21 25  1  0  0  0  0
 21 29  2  0  0  0  0
 22 25  1  0  0  0  0
 24 28  1  0  0  0  0
 27 29  1  0  0  0  0
  6 30  1  0  0  0  0
  8 31  1  0  0  0  0
  9 32  1  0  0  0  0
 10 33  1  0  0  0  0
 11 34  1  0  0  0  0
 12 35  1  0  0  0  0
 13 36  1  0  0  0  0
 14 37  1  0  0  0  0
 15 38  1  0  0  0  0
 16 39  1  0  0  0  0
 17 40  1  0  0  0  0
 18 41  1  0  0  0  0
 18 42  1  0  0  0  0
 19 43  1  0  0  0  0
 19 44  1  0  0  0  0
 20 45  1  0  0  0  0
 21 46  1  0  0  0  0
 26 47  1  0  0  0  0
M  END
> <pdb_id>
6E2N

> <uniprot_id>
Q99683

> <usmiles>
O=C(Nc1cc(ccc1)C2=NN=CN2C3CC3)c4nccc(c5cnccc5)c4

$$$$
KKE_A_302
          07192416293D 1   1.00000     0.00000     0
            
 35 37  0  0  0  0            999 V2000
   -6.2324    5.8349   12.5256 S   0  0  0  0  0  0  0  0  0  0  0  0
   -3.5710    0.1697   16.7369 O   0  0  0  0  0  0  0  0  0  0  0  0
   -4.6916   -0.5447   14.7416 O   0  0  0  0  0  0  0  0  0  0  0  0
   -5.9704   -0.0439   16.6705 O   0  0  0  0  0  0  0  0  0  0  0  0
   -3.8524    6.9734   12.7670 N   0  0  0  0  0  0  0  0  0  0  0  0
   -4.2684    5.2865   14.2275 N   0  0  0  0  0  0  0  0  0  0  0  0
   -6.7646    1.0566   17.0879 C   0  0  0  0  0  0  0  0  0  0  0  0
   -0.2324    8.4356   14.2680 C   0  0  0  0  0  0  0  0  0  0  0  0
   -0.3271    8.0631   12.9408 C   0  0  0  0  0  0  0  0  0  0  0  0
   -1.3127    8.2629   15.1099 C   0  0  0  0  0  0  0  0  0  0  0  0
   -1.5019    7.5208   12.4455 C   0  0  0  0  0  0  0  0  0  0  0  0
   -2.4896    7.7186   14.6256 C   0  0  0  0  0  0  0  0  0  0  0  0
   -6.0935    4.5451   15.6250 C   0  0  0  0  0  0  0  0  0  0  0  0
   -6.7437    3.5556   16.3392 C   0  0  0  0  0  0  0  0  0  0  0  0
   -4.4765    2.9266   14.8930 C   0  0  0  0  0  0  0  0  0  0  0  0
   -4.7021    6.0168   13.1826 C   0  0  0  0  0  0  0  0  0  0  0  0
   -2.5942    7.3520   13.2873 C   0  0  0  0  0  0  0  0  0  0  0  0
   -4.9504    4.2407   14.8989 C   0  0  0  0  0  0  0  0  0  0  0  0
   -6.2608    2.2497   16.3403 C   0  0  0  0  0  0  0  0  0  0  0  0
   -5.1177    1.9042   15.6164 C   0  0  0  0  0  0  0  0  0  0  0  0
   -4.7628    0.3475   15.9006 B   0  5  0  0  0  0  0  0  0  0  0  0
   -3.6239    0.7807   17.5268 H   0  0  0  0  0  0  0  0  0  0  0  0
   -5.5058   -0.4201   14.1746 H   0  0  0  0  0  0  0  0  0  0  0  0
   -4.1568    7.4950   11.9700 H   0  0  0  0  0  0  0  0  0  0  0  0
   -3.3559    5.5085   14.5710 H   0  0  0  0  0  0  0  0  0  0  0  0
   -6.6672    1.1994   18.0728 H   0  0  0  0  0  0  0  0  0  0  0  0
   -7.7262    0.8919   16.8685 H   0  0  0  0  0  0  0  0  0  0  0  0
    0.6173    8.8298   14.6181 H   0  0  0  0  0  0  0  0  0  0  0  0
    0.4579    8.1858   12.3335 H   0  0  0  0  0  0  0  0  0  0  0  0
   -1.2449    8.5313   16.0708 H   0  0  0  0  0  0  0  0  0  0  0  0
   -1.5636    7.2516   11.4844 H   0  0  0  0  0  0  0  0  0  0  0  0
   -3.2678    7.5883   15.2399 H   0  0  0  0  0  0  0  0  0  0  0  0
   -6.4470    5.4806   15.6317 H   0  0  0  0  0  0  0  0  0  0  0  0
   -7.5678    3.7799   16.8594 H   0  0  0  0  0  0  0  0  0  0  0  0
   -3.6594    2.7067   14.3602 H   0  0  0  0  0  0  0  0  0  0  0  0
  1 16  2  0  0  0  0
  2 21  1  0  0  0  0
  3 21  1  0  0  0  0
  4  7  1  0  0  0  0
  4 21  1  0  0  0  0
  5 16  1  0  0  0  0
  5 17  1  0  0  0  0
  6 16  1  0  0  0  0
  6 18  1  0  0  0  0
  7 19  1  0  0  0  0
  8  9  2  0  0  0  0
  8 10  1  0  0  0  0
  9 11  1  0  0  0  0
 10 12  2  0  0  0  0
 11 17  2  0  0  0  0
 12 17  1  0  0  0  0
 13 14  1  0  0  0  0
 13 18  2  0  0  0  0
 14 19  2  0  0  0  0
 15 18  1  0  0  0  0
 15 20  2  0  0  0  0
 19 20  1  0  0  0  0
 20 21  1  0  0  0  0
  2 22  1  0  0  0  0
  3 23  1  0  0  0  0
  5 24  1  0  0  0  0
  6 25  1  0  0  0  0
  7 26  1  0  0  0  0
  7 27  1  0  0  0  0
  8 28  1  0  0  0  0
  9 29  1  0  0  0  0
 10 30  1  0  0  0  0
 11 31  1  0  0  0  0
 12 32  1  0  0  0  0
 13 33  1  0  0  0  0
 14 34  1  0  0  0  0
 15 35  1  0  0  0  0
M  CHG  1  21  -1
M  END
> <pdb_id>
6RVL

> <uniprot_id>
P00918

> <usmiles>
S=C(Nc1cc2c(cc1)CO[B-]2(O)O)Nc3ccccc3

$$$$
KKG_B_302
          07212402463D 1   1.00000     0.00000     0
            
 23 24  0  0  0  0            999 V2000
   -0.3516   21.5093   11.5974 O   0  0  0  0  0  0  0  0  0  0  0  0
    0.5589   20.9685    9.6077 O   0  0  0  0  0  0  0  0  0  0  0  0
    2.1300   23.6717   10.0020 O   0  0  0  0  0  0  0  0  0  0  0  0
    4.9348   20.8296    9.2431 N   0  0  0  0  0  0  0  0  0  0  0  0
    3.0450   21.6405   10.4052 N   0  0  0  0  0  0  0  0  0  0  0  0
    3.9982   20.7128   10.1100 C   0  0  0  0  0  0  0  0  0  0  0  0
    6.1505   23.4558    6.9830 C   0  0  0  0  0  0  0  0  0  0  0  0
    5.2281   24.4774    7.2117 C   0  0  0  0  0  0  0  0  0  0  0  0
    2.0324   21.3553   11.4141 C   0  0  0  0  0  0  0  0  0  0  0  0
    6.0324   22.2381    7.6373 C   0  0  0  0  0  0  0  0  0  0  0  0
    4.1842   24.2930    8.1095 C   0  0  0  0  0  0  0  0  0  0  0  0
    0.6213   21.2286   10.8438 C   0  0  0  0  0  0  0  0  0  0  0  0
    3.0162   22.8820    9.7795 C   0  0  0  0  0  0  0  0  0  0  0  0
    5.0042   22.0501    8.5626 C   0  0  0  0  0  0  0  0  0  0  0  0
    4.0882   23.0830    8.7954 C   0  0  0  0  0  0  0  0  0  0  0  0
   -0.1947   21.7001   12.5664 H   0  0  0  0  0  0  0  0  0  0  0  0
    3.9635   19.8542   10.6214 H   0  0  0  0  0  0  0  0  0  0  0  0
    6.9036   23.6027    6.3418 H   0  0  0  0  0  0  0  0  0  0  0  0
    5.3189   25.3471    6.7266 H   0  0  0  0  0  0  0  0  0  0  0  0
    2.0370   22.0966   12.0853 H   0  0  0  0  0  0  0  0  0  0  0  0
    2.2694   20.4952   11.8658 H   0  0  0  0  0  0  0  0  0  0  0  0
    6.6796   21.4998    7.4472 H   0  0  0  0  0  0  0  0  0  0  0  0
    3.5117   25.0173    8.2615 H   0  0  0  0  0  0  0  0  0  0  0  0
  1 12  1  0  0  0  0
  2 12  2  0  0  0  0
  3 13  2  0  0  0  0
  4  6  2  0  0  0  0
  4 14  1  0  0  0  0
  5  6  1  0  0  0  0
  5  9  1  0  0  0  0
  5 13  1  0  0  0  0
  7  8  2  0  0  0  0
  7 10  1  0  0  0  0
  8 11  1  0  0  0  0
  9 12  1  0  0  0  0
 10 14  2  0  0  0  0
 11 15  2  0  0  0  0
 13 15  1  0  0  0  0
 14 15  1  0  0  0  0
  1 16  1  0  0  0  0
  6 17  1  0  0  0  0
  7 18  1  0  0  0  0
  8 19  1  0  0  0  0
  9 20  1  0  0  0  0
  9 21  1  0  0  0  0
 10 22  1  0  0  0  0
 11 23  1  0  0  0  0
M  END
> <pdb_id>
6NFT

> <uniprot_id>
P45974

> <usmiles>
O=C(O)CN1C(=O)c2c(N=C1)cccc2

$$$$
KKS_A_304
          07202403273D 1   1.00000     0.00000     0
            
 47 51  0  0  0  0            999 V2000
    9.5850   21.9790   -8.5300 O   0  0  0  0  0  0  0  0  0  0  0  0
    8.8410   19.4950   -9.0720 O   0  0  0  0  0  0  0  0  0  0  0  0
   15.1550   27.3790  -15.1060 N   0  0  0  0  0  0  0  0  0  0  0  0
   14.4430   27.1790  -16.1550 N   0  0  0  0  0  0  0  0  0  0  0  0
   14.7990   26.5390  -14.0730 N   0  0  0  0  0  0  0  0  0  0  0  0
   13.5640   26.1540  -15.8630 N   0  0  0  0  0  0  0  0  0  0  0  0
   10.5380   22.1860  -10.5390 N   0  0  0  0  0  0  0  0  0  0  0  0
   10.3950   18.1910  -18.3230 C   0  0  0  0  0  0  0  0  0  0  0  0
   11.4230   18.1760  -17.3640 C   0  0  0  0  0  0  0  0  0  0  0  0
    7.5580   20.5160  -15.1890 C   0  0  0  0  0  0  0  0  0  0  0  0
    9.2110   18.7760  -18.0150 C   0  0  0  0  0  0  0  0  0  0  0  0
    7.7510   19.9540  -16.4140 C   0  0  0  0  0  0  0  0  0  0  0  0
    8.5980   20.4840  -14.2300 C   0  0  0  0  0  0  0  0  0  0  0  0
   11.9490   24.0790  -14.5040 C   0  0  0  0  0  0  0  0  0  0  0  0
   13.4190   24.3090  -12.5150 C   0  0  0  0  0  0  0  0  0  0  0  0
   11.2200   23.0930  -13.8330 C   0  0  0  0  0  0  0  0  0  0  0  0
   12.6890   23.3270  -11.8690 C   0  0  0  0  0  0  0  0  0  0  0  0
   11.2420   18.7310  -16.1200 C   0  0  0  0  0  0  0  0  0  0  0  0
    9.8050   19.5840  -11.2750 C   0  0  0  0  0  0  0  0  0  0  0  0
   10.8960   19.8910  -13.4920 C   0  0  0  0  0  0  0  0  0  0  0  0
    9.8450   21.4530   -9.6000 C   0  0  0  0  0  0  0  0  0  0  0  0
   13.8060   25.7430  -14.5450 C   0  0  0  0  0  0  0  0  0  0  0  0
    9.4980   20.1000  -10.0440 C   0  0  0  0  0  0  0  0  0  0  0  0
   10.8550   21.6900  -11.7760 C   0  0  0  0  0  0  0  0  0  0  0  0
   13.0630   24.6900  -13.8440 C   0  0  0  0  0  0  0  0  0  0  0  0
   11.6010   22.7080  -12.5240 C   0  0  0  0  0  0  0  0  0  0  0  0
    9.0100   19.3560  -16.7260 C   0  0  0  0  0  0  0  0  0  0  0  0
   10.5370   20.4150  -12.1890 C   0  0  0  0  0  0  0  0  0  0  0  0
    9.8070   19.9010  -14.5150 C   0  0  0  0  0  0  0  0  0  0  0  0
   10.0260   19.3340  -15.7680 C   0  0  0  0  0  0  0  0  0  0  0  0
    8.1940   20.1150   -8.7320 H   0  0  0  0  0  0  0  0  0  0  0  0
   12.8930   25.7970  -16.5240 H   0  0  0  0  0  0  0  0  0  0  0  0
   10.8010   23.1350  -10.2800 H   0  0  0  0  0  0  0  0  0  0  0  0
   10.5600   17.7470  -19.3100 H   0  0  0  0  0  0  0  0  0  0  0  0
   12.3710   17.7040  -17.6340 H   0  0  0  0  0  0  0  0  0  0  0  0
    6.6000   20.9780  -14.9380 H   0  0  0  0  0  0  0  0  0  0  0  0
    8.4050   18.7960  -18.7500 H   0  0  0  0  0  0  0  0  0  0  0  0
    6.9620   19.9690  -17.1680 H   0  0  0  0  0  0  0  0  0  0  0  0
    8.4100   20.9380  -13.2540 H   0  0  0  0  0  0  0  0  0  0  0  0
   11.6720   24.3790  -15.5170 H   0  0  0  0  0  0  0  0  0  0  0  0
   14.2660   24.7820  -12.0130 H   0  0  0  0  0  0  0  0  0  0  0  0
   10.3740   22.6140  -14.3300 H   0  0  0  0  0  0  0  0  0  0  0  0
   12.9630   23.0270  -10.8550 H   0  0  0  0  0  0  0  0  0  0  0  0
   12.0520   18.7020  -15.3910 H   0  0  0  0  0  0  0  0  0  0  0  0
    9.5320   18.5650  -11.5560 H   0  0  0  0  0  0  0  0  0  0  0  0
   11.7600   20.4570  -13.9060 H   0  0  0  0  0  0  0  0  0  0  0  0
   11.2780   18.8540  -13.3610 H   0  0  0  0  0  0  0  0  0  0  0  0
  1 21  2  0  0  0  0
  2 23  1  0  0  0  0
  2 31  1  0  0  0  0
  3  4  2  0  0  0  0
  3  5  1  0  0  0  0
  4  6  1  0  0  0  0
  5 22  2  0  0  0  0
  6 22  1  0  0  0  0
  6 32  1  0  0  0  0
  7 21  1  0  0  0  0
  7 24  1  0  0  0  0
  7 33  1  0  0  0  0
  8  9  2  0  0  0  0
  8 11  1  0  0  0  0
  8 34  1  0  0  0  0
  9 18  1  0  0  0  0
  9 35  1  0  0  0  0
 10 12  2  0  0  0  0
 10 13  1  0  0  0  0
 10 36  1  0  0  0  0
 11 27  2  0  0  0  0
 11 37  1  0  0  0  0
 12 27  1  0  0  0  0
 12 38  1  0  0  0  0
 13 29  2  0  0  0  0
 13 39  1  0  0  0  0
 14 16  1  0  0  0  0
 14 25  2  0  0  0  0
 14 40  1  0  0  0  0
 15 17  2  0  0  0  0
 15 25  1  0  0  0  0
 15 41  1  0  0  0  0
 16 26  2  0  0  0  0
 16 42  1  0  0  0  0
 17 26  1  0  0  0  0
 17 43  1  0  0  0  0
 18 30  2  0  0  0  0
 18 44  1  0  0  0  0
 19 23  2  0  0  0  0
 19 28  1  0  0  0  0
 19 45  1  0  0  0  0
 20 28  1  0  0  0  0
 20 29  1  0  0  0  0
 20 46  1  0  0  0  0
 20 47  1  0  0  0  0
 21 23  1  0  0  0  0
 22 25  1  0  0  0  0
 24 26  1  0  0  0  0
 24 28  2  0  0  0  0
 27 30  1  0  0  0  0
 29 30  1  0  0  0  0
M  END
> <pdb_id>
6NEM

> <uniprot_id>
C6H0Y9

> <usmiles>
O=C1NC(c2ccc(cc2)C3=NN=NN3)=C(C=C1O)Cc4c5c(ccc4)cccc5

$$$$
KKT_A_400
          07192422273D 1   1.00000     0.00000     0
            
 47 48  0  0  0  0            999 V2000
   30.7880  -18.8967   58.9494 S   0  0  0  0  0  0  0  0  0  0  0  0
   30.5339  -20.3411   58.5822 O   0  0  0  0  0  0  0  0  0  0  0  0
   30.3234  -18.6919   60.3736 O   0  0  0  0  0  0  0  0  0  0  0  0
   35.8015  -19.6193   54.9867 O   0  0  0  0  0  0  0  0  0  0  0  0
   32.6233  -16.8673   56.6807 O   0  0  0  0  0  0  0  0  0  0  0  0
   33.7812  -20.7791   58.8844 N   0  0  0  0  0  0  0  0  0  0  0  0
   34.2269  -18.1732   55.8055 N   0  0  0  0  0  0  0  0  0  0  0  0
   32.3316  -18.5501   58.8822 N   0  0  0  0  0  0  0  0  0  0  0  0
   34.8547  -20.2283   56.8847 N   0  0  0  0  0  0  0  0  0  0  0  0
   32.9016  -17.6509   59.8963 C   0  0  0  0  0  0  0  0  0  0  0  0
   28.4123  -16.2329   55.8783 C   0  0  0  0  0  0  0  0  0  0  0  0
   29.9551  -17.6625   57.8592 C   0  0  0  0  0  0  0  0  0  0  0  0
   35.7003  -21.4617   56.8750 C   0  0  0  0  0  0  0  0  0  0  0  0
   28.1826  -17.6970   56.0688 C   0  0  0  0  0  0  0  0  0  0  0  0
   28.5179  -18.0356   57.5361 C   0  0  0  0  0  0  0  0  0  0  0  0
   33.7563  -24.4738   54.6933 C   0  0  0  0  0  0  0  0  0  0  0  0
   33.8615  -24.5775   56.0867 C   0  0  0  0  0  0  0  0  0  0  0  0
   34.2915  -23.3791   54.0236 C   0  0  0  0  0  0  0  0  0  0  0  0
   34.5112  -23.5755   56.8149 C   0  0  0  0  0  0  0  0  0  0  0  0
   34.9433  -22.3861   54.7567 C   0  0  0  0  0  0  0  0  0  0  0  0
   34.9885  -19.3611   55.8705 C   0  0  0  0  0  0  0  0  0  0  0  0
   33.2842  -17.9038   56.7814 C   0  0  0  0  0  0  0  0  0  0  0  0
   33.9582  -19.9644   57.8655 C   0  0  0  0  0  0  0  0  0  0  0  0
   33.1494  -18.8288   57.8302 C   0  0  0  0  0  0  0  0  0  0  0  0
   35.0645  -22.4759   56.1463 C   0  0  0  0  0  0  0  0  0  0  0  0
   33.1113  -20.5559   59.5925 H   0  0  0  0  0  0  0  0  0  0  0  0
   34.3166  -21.6211   58.9502 H   0  0  0  0  0  0  0  0  0  0  0  0
   34.3690  -17.5278   55.0549 H   0  0  0  0  0  0  0  0  0  0  0  0
   33.8787  -17.5290   59.7222 H   0  0  0  0  0  0  0  0  0  0  0  0
   32.4419  -16.7639   59.8515 H   0  0  0  0  0  0  0  0  0  0  0  0
   32.7718  -18.0481   60.8048 H   0  0  0  0  0  0  0  0  0  0  0  0
   28.2025  -15.9828   54.9331 H   0  0  0  0  0  0  0  0  0  0  0  0
   27.8197  -15.7190   56.4985 H   0  0  0  0  0  0  0  0  0  0  0  0
   29.3686  -16.0171   56.0758 H   0  0  0  0  0  0  0  0  0  0  0  0
   30.4677  -17.5954   57.0032 H   0  0  0  0  0  0  0  0  0  0  0  0
   29.9588  -16.7753   58.3204 H   0  0  0  0  0  0  0  0  0  0  0  0
   35.8451  -21.7709   57.8149 H   0  0  0  0  0  0  0  0  0  0  0  0
   36.5827  -21.2545   56.4526 H   0  0  0  0  0  0  0  0  0  0  0  0
   28.7756  -18.2178   55.4547 H   0  0  0  0  0  0  0  0  0  0  0  0
   27.2267  -17.9198   55.8774 H   0  0  0  0  0  0  0  0  0  0  0  0
   27.9033  -17.5267   58.1390 H   0  0  0  0  0  0  0  0  0  0  0  0
   28.3924  -19.0167   57.6835 H   0  0  0  0  0  0  0  0  0  0  0  0
   33.2925  -25.1932   54.1762 H   0  0  0  0  0  0  0  0  0  0  0  0
   33.4722  -25.3675   56.5604 H   0  0  0  0  0  0  0  0  0  0  0  0
   34.2105  -23.3042   53.0297 H   0  0  0  0  0  0  0  0  0  0  0  0
   34.5805  -23.6438   57.8102 H   0  0  0  0  0  0  0  0  0  0  0  0
   35.3302  -21.5970   54.2797 H   0  0  0  0  0  0  0  0  0  0  0  0
  1  2  2  0  0  0  0
  1  3  2  0  0  0  0
  1  8  1  0  0  0  0
  1 12  1  0  0  0  0
  4 21  2  0  0  0  0
  5 22  2  0  0  0  0
  6 23  1  0  0  0  0
  7 21  1  0  0  0  0
  7 22  1  0  0  0  0
  8 10  1  0  0  0  0
  8 24  1  0  0  0  0
  9 13  1  0  0  0  0
  9 21  1  0  0  0  0
  9 23  1  0  0  0  0
 11 14  1  0  0  0  0
 12 15  1  0  0  0  0
 13 25  1  0  0  0  0
 14 15  1  0  0  0  0
 16 17  2  0  0  0  0
 16 18  1  0  0  0  0
 17 19  1  0  0  0  0
 18 20  2  0  0  0  0
 19 25  2  0  0  0  0
 20 25  1  0  0  0  0
 22 24  1  0  0  0  0
 23 24  2  0  0  0  0
  6 26  1  0  0  0  0
  6 27  1  0  0  0  0
  7 28  1  0  0  0  0
 10 29  1  0  0  0  0
 10 30  1  0  0  0  0
 10 31  1  0  0  0  0
 11 32  1  0  0  0  0
 11 33  1  0  0  0  0
 11 34  1  0  0  0  0
 12 35  1  0  0  0  0
 12 36  1  0  0  0  0
 13 37  1  0  0  0  0
 13 38  1  0  0  0  0
 14 39  1  0  0  0  0
 14 40  1  0  0  0  0
 15 41  1  0  0  0  0
 15 42  1  0  0  0  0
 16 43  1  0  0  0  0
 17 44  1  0  0  0  0
 18 45  1  0  0  0  0
 19 46  1  0  0  0  0
 20 47  1  0  0  0  0
M  END
> <pdb_id>
4B4G

> <uniprot_id>
Q9HU22

> <usmiles>
S(=O)(=O)(N(C=1C(=O)NC(=O)N(C1N)Cc2ccccc2)C)CCCC

$$$$
KKV_A_304
          07202403273D 1   1.00000     0.00000     0
            
 36 38  0  0  0  0            999 V2000
   11.3095   18.2718  -16.9081 F   0  0  0  0  0  0  0  0  0  0  0  0
   12.6728   26.8427  -15.7715 O   0  0  0  0  0  0  0  0  0  0  0  0
   14.6479   26.0079  -15.2551 O   0  0  0  0  0  0  0  0  0  0  0  0
    8.9352   19.6035   -8.9771 O   0  0  0  0  0  0  0  0  0  0  0  0
    9.5812   22.1412   -8.1406 O   0  0  0  0  0  0  0  0  0  0  0  0
    9.7954   20.0036  -11.0403 N   0  0  0  0  0  0  0  0  0  0  0  0
   10.4691   20.1488  -15.7564 C   0  0  0  0  0  0  0  0  0  0  0  0
   11.4922   18.2636  -14.5697 C   0  0  0  0  0  0  0  0  0  0  0  0
   10.2433   20.7755  -14.5334 C   0  0  0  0  0  0  0  0  0  0  0  0
   11.2523   18.9205  -13.3716 C   0  0  0  0  0  0  0  0  0  0  0  0
   13.3540   23.7804  -13.8776 C   0  0  0  0  0  0  0  0  0  0  0  0
   11.4334   25.1609  -13.7621 C   0  0  0  0  0  0  0  0  0  0  0  0
   12.7397   22.8396  -13.0465 C   0  0  0  0  0  0  0  0  0  0  0  0
   10.8100   24.2320  -12.9313 C   0  0  0  0  0  0  0  0  0  0  0  0
   10.4781   22.5549  -10.3148 C   0  0  0  0  0  0  0  0  0  0  0  0
   11.0880   18.9045  -15.7263 C   0  0  0  0  0  0  0  0  0  0  0  0
   13.4120   26.0367  -15.1933 C   0  0  0  0  0  0  0  0  0  0  0  0
    9.4913   20.4125   -9.7344 C   0  0  0  0  0  0  0  0  0  0  0  0
    9.8805   21.7695   -9.3984 C   0  0  0  0  0  0  0  0  0  0  0  0
   12.7183   24.9626  -14.2604 C   0  0  0  0  0  0  0  0  0  0  0  0
   10.6478   20.1708  -13.3287 C   0  0  0  0  0  0  0  0  0  0  0  0
   11.4469   23.0402  -12.5723 C   0  0  0  0  0  0  0  0  0  0  0  0
   10.4172   20.8048  -12.0129 C   0  0  0  0  0  0  0  0  0  0  0  0
   10.7698   22.1042  -11.6477 C   0  0  0  0  0  0  0  0  0  0  0  0
    9.7956   21.5407   -7.6057 H   0  0  0  0  0  0  0  0  0  0  0  0
    9.5736   19.1953  -11.2668 H   0  0  0  0  0  0  0  0  0  0  0  0
   10.2170   20.5320  -16.5642 H   0  0  0  0  0  0  0  0  0  0  0  0
   11.9032   17.4308  -14.5996 H   0  0  0  0  0  0  0  0  0  0  0  0
    9.8344   21.6099  -14.5205 H   0  0  0  0  0  0  0  0  0  0  0  0
   11.5167   18.5121  -12.5801 H   0  0  0  0  0  0  0  0  0  0  0  0
   14.2122   23.6035  -14.1837 H   0  0  0  0  0  0  0  0  0  0  0  0
   10.9759   25.9367  -13.9892 H   0  0  0  0  0  0  0  0  0  0  0  0
   13.1891   22.0620  -12.8074 H   0  0  0  0  0  0  0  0  0  0  0  0
    9.9528   24.3933  -12.6108 H   0  0  0  0  0  0  0  0  0  0  0  0
   10.7244   23.4214  -10.0906 H   0  0  0  0  0  0  0  0  0  0  0  0
   11.6811   26.7827  -15.6571 H   0  0  0  0  0  0  0  0  0  0  0  0
  1 16  1  0  0  0  0
  2 17  1  0  0  0  0
  3 17  2  0  0  0  0
  4 18  2  0  0  0  0
  5 19  1  0  0  0  0
  5 25  1  0  0  0  0
  6 18  1  0  0  0  0
  6 23  1  0  0  0  0
  6 26  1  0  0  0  0
  7  9  2  0  0  0  0
  7 16  1  0  0  0  0
  7 27  1  0  0  0  0
  8 10  1  0  0  0  0
  8 16  2  0  0  0  0
  8 28  1  0  0  0  0
  9 21  1  0  0  0  0
  9 29  1  0  0  0  0
 10 21  2  0  0  0  0
 10 30  1  0  0  0  0
 11 13  1  0  0  0  0
 11 20  2  0  0  0  0
 11 31  1  0  0  0  0
 12 14  2  0  0  0  0
 12 20  1  0  0  0  0
 12 32  1  0  0  0  0
 13 22  2  0  0  0  0
 13 33  1  0  0  0  0
 14 22  1  0  0  0  0
 14 34  1  0  0  0  0
 15 19  2  0  0  0  0
 15 24  1  0  0  0  0
 15 35  1  0  0  0  0
 17 20  1  0  0  0  0
 18 19  1  0  0  0  0
 21 23  1  0  0  0  0
 22 24  1  0  0  0  0
 23 24  2  0  0  0  0
  2 36  1  0  0  0  0
M  END
> <pdb_id>
6NEL

> <uniprot_id>
C6H0Y9

> <usmiles>
Fc1ccc(cc1)C=2NC(=O)C(O)=CC2c3ccc(cc3)C(=O)O

$$$$
KL4_C_511
          07192421173D 1   1.00000     0.00000     0
            
 46 48  0  0  0  0            999 V2000
   -3.1103    2.3208   59.5598 F   0  0  0  0  0  0  0  0  0  0  0  0
    2.9917    5.0646   53.8852 N   0  0  0  0  0  0  0  0  0  0  0  0
   -3.1081   -4.4911   61.4657 N   0  0  0  0  0  0  0  0  0  0  0  0
    1.5800    3.3021   54.4149 N   0  0  0  0  0  0  0  0  0  0  0  0
    3.3666    0.7903   51.4233 C   0  0  0  0  0  0  0  0  0  0  0  0
   -2.4335   -5.4035   62.2111 C   0  0  0  0  0  0  0  0  0  0  0  0
   -1.2115   -5.7422   61.6428 C   0  0  0  0  0  0  0  0  0  0  0  0
   -1.0414   -5.0364   60.4689 C   0  0  0  0  0  0  0  0  0  0  0  0
   -1.9620   -2.7046   60.2134 C   0  0  0  0  0  0  0  0  0  0  0  0
    0.0229    1.5316   55.1044 C   0  0  0  0  0  0  0  0  0  0  0  0
   -1.6334   -2.3237   58.7730 C   0  0  0  0  0  0  0  0  0  0  0  0
    0.6083    1.5224   56.5233 C   0  0  0  0  0  0  0  0  0  0  0  0
    3.1809    2.9869   52.6819 C   0  0  0  0  0  0  0  0  0  0  0  0
   -2.4025    0.0702   59.1923 C   0  0  0  0  0  0  0  0  0  0  0  0
   -1.3030    1.9185   58.0949 C   0  0  0  0  0  0  0  0  0  0  0  0
    1.6990    1.1990   53.2593 C   0  0  0  0  0  0  0  0  0  0  0  0
   -0.5682   -0.3457   57.6931 C   0  0  0  0  0  0  0  0  0  0  0  0
    2.5843    3.7909   53.6621 C   0  0  0  0  0  0  0  0  0  0  0  0
   -2.2848    1.4452   58.9582 C   0  0  0  0  0  0  0  0  0  0  0  0
   -2.2828   -4.1963   60.3007 C   0  0  2  0  0  0  0  0  0  0  0  0
    1.1295    2.0367   54.2188 C   0  0  0  0  0  0  0  0  0  0  0  0
    2.7427    1.6776   52.4775 C   0  0  0  0  0  0  0  0  0  0  0  0
   -1.5433   -0.8269   58.5532 C   0  0  0  0  0  0  0  0  0  0  0  0
   -0.4453    1.0171   57.4705 C   0  0  0  0  0  0  0  0  0  0  0  0
    3.7352    5.4542   53.3417 H   0  0  0  0  0  0  0  0  0  0  0  0
    2.5488    5.6144   54.5934 H   0  0  0  0  0  0  0  0  0  0  0  0
    2.9183   -0.1035   51.4321 H   0  0  0  0  0  0  0  0  0  0  0  0
    3.2530    1.2114   50.5234 H   0  0  0  0  0  0  0  0  0  0  0  0
    4.3409    0.6765   51.6175 H   0  0  0  0  0  0  0  0  0  0  0  0
   -2.7759   -5.7870   63.0688 H   0  0  0  0  0  0  0  0  0  0  0  0
   -0.5575   -6.3953   62.0247 H   0  0  0  0  0  0  0  0  0  0  0  0
   -0.2538   -5.0744   59.8538 H   0  0  0  0  0  0  0  0  0  0  0  0
   -2.7533   -2.1773   60.5229 H   0  0  0  0  0  0  0  0  0  0  0  0
   -1.1763   -2.5004   60.7973 H   0  0  0  0  0  0  0  0  0  0  0  0
   -0.7690    2.1404   55.0565 H   0  0  0  0  0  0  0  0  0  0  0  0
   -0.2494    0.6086   54.8322 H   0  0  0  0  0  0  0  0  0  0  0  0
   -2.3484   -2.6894   58.1772 H   0  0  0  0  0  0  0  0  0  0  0  0
   -0.7544   -2.7336   58.5292 H   0  0  0  0  0  0  0  0  0  0  0  0
    0.8786    2.4496   56.7827 H   0  0  0  0  0  0  0  0  0  0  0  0
    1.4067    0.9212   56.5550 H   0  0  0  0  0  0  0  0  0  0  0  0
    3.9259    3.3538   52.1248 H   0  0  0  0  0  0  0  0  0  0  0  0
   -3.1035   -0.2709   59.8187 H   0  0  0  0  0  0  0  0  0  0  0  0
   -1.2136    2.8996   57.9238 H   0  0  0  0  0  0  0  0  0  0  0  0
    1.3603    0.2663   53.1360 H   0  0  0  0  0  0  0  0  0  0  0  0
    0.0484   -0.9837   57.2318 H   0  0  0  0  0  0  0  0  0  0  0  0
   -2.7655   -4.4805   59.4723 H   0  0  0  0  0  0  0  0  0  0  0  0
  1 19  1  0  0  0  0
  2 18  1  0  0  0  0
  3  6  2  0  0  0  0
  3 20  1  0  0  0  0
  4 18  2  0  0  0  0
  4 21  1  0  0  0  0
  5 22  1  0  0  0  0
  6  7  1  0  0  0  0
  7  8  2  0  0  0  0
  8 20  1  0  0  0  0
  9 11  1  0  0  0  0
  9 20  1  0  0  0  0
 10 12  1  0  0  0  0
 10 21  1  0  0  0  0
 11 23  1  0  0  0  0
 12 24  1  0  0  0  0
 13 18  1  0  0  0  0
 13 22  2  0  0  0  0
 14 19  1  0  0  0  0
 14 23  2  0  0  0  0
 15 19  2  0  0  0  0
 15 24  1  0  0  0  0
 16 21  2  0  0  0  0
 16 22  1  0  0  0  0
 17 23  1  0  0  0  0
 17 24  2  0  0  0  0
  2 25  1  0  0  0  0
  2 26  1  0  0  0  0
  5 27  1  0  0  0  0
  5 28  1  0  0  0  0
  5 29  1  0  0  0  0
  6 30  1  0  0  0  0
  7 31  1  0  0  0  0
  8 32  1  0  0  0  0
  9 33  1  0  0  0  0
  9 34  1  0  0  0  0
 10 35  1  0  0  0  0
 10 36  1  0  0  0  0
 11 37  1  0  0  0  0
 11 38  1  0  0  0  0
 12 39  1  0  0  0  0
 12 40  1  0  0  0  0
 13 41  1  0  0  0  0
 14 42  1  0  0  0  0
 15 43  1  0  0  0  0
 16 44  1  0  0  0  0
 17 45  1  0  0  0  0
 20 46  1  0  0  0  0
M  END
> <pdb_id>
6NH3

> <uniprot_id>
A0S0A6

> <usmiles>
Fc1cc(cc(c1)CC[C@@H]2N=CC=C2)CCc3nc(N)cc(c3)C

$$$$
KL5_A_302
          07192416293D 1   1.00000     0.00000     0
            
 38 40  0  0  0  0            999 V2000
   -6.1449    6.2915   12.4587 S   0  0  0  0  0  0  0  0  0  0  0  0
   -3.5996    0.1531   16.6637 O   0  0  0  0  0  0  0  0  0  0  0  0
   -4.7084   -0.5735   14.6615 O   0  0  0  0  0  0  0  0  0  0  0  0
   -6.0119    0.0257   16.5597 O   0  0  0  0  0  0  0  0  0  0  0  0
   -3.5307    6.6555   12.2913 N   0  0  0  0  0  0  0  0  0  0  0  0
   -4.1346    5.0648   13.7433 N   0  0  0  0  0  0  0  0  0  0  0  0
   -6.7449    1.1754   16.9636 C   0  0  0  0  0  0  0  0  0  0  0  0
   -2.1136    6.4259   12.5593 C   0  0  0  0  0  0  0  0  0  0  0  0
   -0.3182    9.4370   15.0602 C   0  0  0  0  0  0  0  0  0  0  0  0
    0.1387    9.2426   13.7694 C   0  0  0  0  0  0  0  0  0  0  0  0
   -1.3525    8.6584   15.5442 C   0  0  0  0  0  0  0  0  0  0  0  0
   -0.4407    8.2707   12.9636 C   0  0  0  0  0  0  0  0  0  0  0  0
   -1.9319    7.6885   14.7374 C   0  0  0  0  0  0  0  0  0  0  0  0
   -5.9931    4.5489   15.2554 C   0  0  0  0  0  0  0  0  0  0  0  0
   -6.6591    3.6313   16.0614 C   0  0  0  0  0  0  0  0  0  0  0  0
   -4.4171    2.8332   14.6538 C   0  0  0  0  0  0  0  0  0  0  0  0
   -4.5417    5.9842   12.8478 C   0  0  0  0  0  0  0  0  0  0  0  0
   -4.8616    4.1503   14.5455 C   0  0  0  0  0  0  0  0  0  0  0  0
   -1.4840    7.4821   13.4367 C   0  0  0  0  0  0  0  0  0  0  0  0
   -6.2036    2.3212   16.1627 C   0  0  0  0  0  0  0  0  0  0  0  0
   -5.0721    1.8886   15.4610 C   0  0  0  0  0  0  0  0  0  0  0  0
   -4.7796    0.3388   15.8025 B   0  5  0  0  0  0  0  0  0  0  0  0
   -3.6531    0.7788   17.4419 H   0  0  0  0  0  0  0  0  0  0  0  0
   -5.5116   -0.4435   14.0802 H   0  0  0  0  0  0  0  0  0  0  0  0
   -3.7630    7.3750   11.6368 H   0  0  0  0  0  0  0  0  0  0  0  0
   -3.1429    5.0191   13.8638 H   0  0  0  0  0  0  0  0  0  0  0  0
   -6.6146    1.3437   17.9407 H   0  0  0  0  0  0  0  0  0  0  0  0
   -7.7186    1.0497   16.7740 H   0  0  0  0  0  0  0  0  0  0  0  0
   -1.6258    6.4084   11.6865 H   0  0  0  0  0  0  0  0  0  0  0  0
   -2.0173    5.5399   13.0129 H   0  0  0  0  0  0  0  0  0  0  0  0
    0.0976   10.1373   15.6404 H   0  0  0  0  0  0  0  0  0  0  0  0
    0.8876    9.8028   13.4155 H   0  0  0  0  0  0  0  0  0  0  0  0
   -1.6843    8.7940   16.4778 H   0  0  0  0  0  0  0  0  0  0  0  0
   -0.1034    8.1364   12.0319 H   0  0  0  0  0  0  0  0  0  0  0  0
   -2.6808    7.1311   15.0959 H   0  0  0  0  0  0  0  0  0  0  0  0
   -6.3245    5.4898   15.1855 H   0  0  0  0  0  0  0  0  0  0  0  0
   -7.4708    3.9157   16.5715 H   0  0  0  0  0  0  0  0  0  0  0  0
   -3.6062    2.5521   14.1405 H   0  0  0  0  0  0  0  0  0  0  0  0
  1 17  2  0  0  0  0
  2 22  1  0  0  0  0
  3 22  1  0  0  0  0
  4  7  1  0  0  0  0
  4 22  1  0  0  0  0
  5  8  1  0  0  0  0
  5 17  1  0  0  0  0
  6 17  1  0  0  0  0
  6 18  1  0  0  0  0
  7 20  1  0  0  0  0
  8 19  1  0  0  0  0
  9 10  2  0  0  0  0
  9 11  1  0  0  0  0
 10 12  1  0  0  0  0
 11 13  2  0  0  0  0
 12 19  2  0  0  0  0
 13 19  1  0  0  0  0
 14 15  1  0  0  0  0
 14 18  2  0  0  0  0
 15 20  2  0  0  0  0
 16 18  1  0  0  0  0
 16 21  2  0  0  0  0
 20 21  1  0  0  0  0
 21 22  1  0  0  0  0
  2 23  1  0  0  0  0
  3 24  1  0  0  0  0
  5 25  1  0  0  0  0
  6 26  1  0  0  0  0
  7 27  1  0  0  0  0
  7 28  1  0  0  0  0
  8 29  1  0  0  0  0
  8 30  1  0  0  0  0
  9 31  1  0  0  0  0
 10 32  1  0  0  0  0
 11 33  1  0  0  0  0
 12 34  1  0  0  0  0
 13 35  1  0  0  0  0
 14 36  1  0  0  0  0
 15 37  1  0  0  0  0
 16 38  1  0  0  0  0
M  CHG  1  22  -1
M  END
> <pdb_id>
6RW1

> <uniprot_id>
P00918

> <usmiles>
S=C(Nc1cc2c(cc1)CO[B-]2(O)O)NCc3ccccc3

$$$$
KLG_A_0
          07192418003D 1   1.00000     0.00000     0
            
 31 31  0  0  0  0            999 V2000
   15.4992   26.5506    0.7361 S   0  0  0  0  0  0  0  0  0  0  0  0
   15.0037   25.3297    0.3192 O   0  0  0  0  0  0  0  0  0  0  0  0
   16.2108   25.8314    1.7598 O   0  0  0  0  0  0  0  0  0  0  0  0
   18.2305   29.7031    3.2790 O   0  0  0  0  0  0  0  0  0  0  0  0
   15.8750   29.9240    2.0204 O   0  0  0  0  0  0  0  0  0  0  0  0
   14.5995   27.3361    1.8278 N   0  0  0  0  0  0  0  0  0  0  0  0
   17.1975   28.8008    3.4611 N   0  0  0  0  0  0  0  0  0  0  0  0
   16.9561   27.2086    0.2325 C   0  0  0  0  0  0  0  0  0  0  0  0
   20.1670   28.0098   -3.7163 C   0  0  0  0  0  0  0  0  0  0  0  0
   18.8911   28.5242   -3.4345 C   0  0  0  0  0  0  0  0  0  0  0  0
   20.6827   26.9408   -2.9870 C   0  0  0  0  0  0  0  0  0  0  0  0
   14.9967   27.9803    3.0610 C   0  0  0  0  0  0  0  0  0  0  0  0
   17.8190   26.2482   -0.5962 C   0  0  0  0  0  0  0  0  0  0  0  0
   18.1258   27.9755   -2.4198 C   0  0  0  0  0  0  0  0  0  0  0  0
   19.9056   26.3864   -1.9765 C   0  0  0  0  0  0  0  0  0  0  0  0
   16.0577   29.0018    2.8090 C   0  0  0  0  0  0  0  0  0  0  0  0
   18.6378   26.9099   -1.6804 C   0  0  0  0  0  0  0  0  0  0  0  0
   19.0176   29.4242    3.8292 H   0  0  0  0  0  0  0  0  0  0  0  0
   13.9153   26.6642    2.1112 H   0  0  0  0  0  0  0  0  0  0  0  0
   17.3064   28.0150    4.0699 H   0  0  0  0  0  0  0  0  0  0  0  0
   17.4760   27.4795    1.0426 H   0  0  0  0  0  0  0  0  0  0  0  0
   16.7611   28.0163   -0.3239 H   0  0  0  0  0  0  0  0  0  0  0  0
   20.7122   28.4159   -4.4497 H   0  0  0  0  0  0  0  0  0  0  0  0
   18.5339   29.2901   -3.9691 H   0  0  0  0  0  0  0  0  0  0  0  0
   21.5936   26.5796   -3.1863 H   0  0  0  0  0  0  0  0  0  0  0  0
   15.3497   27.2900    3.6924 H   0  0  0  0  0  0  0  0  0  0  0  0
   14.2006   28.4283    3.4679 H   0  0  0  0  0  0  0  0  0  0  0  0
   17.2137   25.5791   -1.0275 H   0  0  0  0  0  0  0  0  0  0  0  0
   18.4463   25.7785    0.0250 H   0  0  0  0  0  0  0  0  0  0  0  0
   17.2161   28.3392   -2.2193 H   0  0  0  0  0  0  0  0  0  0  0  0
   20.2534   25.6070   -1.4554 H   0  0  0  0  0  0  0  0  0  0  0  0
  1  2  2  0  0  0  0
  1  3  2  0  0  0  0
  1  6  1  0  0  0  0
  1  8  1  0  0  0  0
  4  7  1  0  0  0  0
  5 16  2  0  0  0  0
  6 12  1  0  0  0  0
  7 16  1  0  0  0  0
  8 13  1  0  0  0  0
  9 10  2  0  0  0  0
  9 11  1  0  0  0  0
 10 14  1  0  0  0  0
 11 15  2  0  0  0  0
 12 16  1  0  0  0  0
 13 17  1  0  0  0  0
 14 17  2  0  0  0  0
 15 17  1  0  0  0  0
  4 18  1  0  0  0  0
  6 19  1  0  0  0  0
  7 20  1  0  0  0  0
  8 21  1  0  0  0  0
  8 22  1  0  0  0  0
  9 23  1  0  0  0  0
 10 24  1  0  0  0  0
 11 25  1  0  0  0  0
 12 26  1  0  0  0  0
 12 27  1  0  0  0  0
 13 28  1  0  0  0  0
 13 29  1  0  0  0  0
 14 30  1  0  0  0  0
 15 31  1  0  0  0  0
M  END
> <pdb_id>
3RTS

> <uniprot_id>
P39900

> <usmiles>
S(=O)(=O)(NCC(=O)NO)CCc1ccccc1

$$$$
KLJ_A_306
          07192418003D 1   1.00000     0.00000     0
            
 35 35  0  0  0  0            999 V2000
   15.5167   26.1681    0.8141 S   0  0  0  0  0  0  0  0  0  0  0  0
   16.3255   25.6472    1.8809 O   0  0  0  0  0  0  0  0  0  0  0  0
   14.5852   25.1603    0.3782 O   0  0  0  0  0  0  0  0  0  0  0  0
   18.3139   29.5743    3.3664 O   0  0  0  0  0  0  0  0  0  0  0  0
   15.9072   29.8988    2.0564 O   0  0  0  0  0  0  0  0  0  0  0  0
   20.7985   28.0205   -4.9183 O   0  0  0  0  0  0  0  0  0  0  0  0
   14.7533   27.4033    1.5092 N   0  0  0  0  0  0  0  0  0  0  0  0
   17.1324   28.8910    3.6689 N   0  0  0  0  0  0  0  0  0  0  0  0
   20.3715   28.8996   -5.9575 C   0  0  0  0  0  0  0  0  0  0  0  0
   16.2837   26.6611   -0.5548 C   0  0  0  0  0  0  0  0  0  0  0  0
   15.0785   27.8147    2.8653 C   0  0  0  0  0  0  0  0  0  0  0  0
   17.7632   26.8121   -0.2551 C   0  0  0  0  0  0  0  0  0  0  0  0
   20.4255   26.7280   -2.9170 C   0  0  0  0  0  0  0  0  0  0  0  0
   18.8385   28.4943   -3.5088 C   0  0  0  0  0  0  0  0  0  0  0  0
   19.6779   26.4343   -1.7596 C   0  0  0  0  0  0  0  0  0  0  0  0
   18.0983   28.1882   -2.3533 C   0  0  0  0  0  0  0  0  0  0  0  0
   16.0849   28.9662    2.8390 C   0  0  0  0  0  0  0  0  0  0  0  0
   20.0138   27.7612   -3.7932 C   0  0  0  0  0  0  0  0  0  0  0  0
   18.5202   27.1483   -1.5004 C   0  0  0  0  0  0  0  0  0  0  0  0
   18.9877   29.4102    4.0869 H   0  0  0  0  0  0  0  0  0  0  0  0
   13.7799   27.1740    1.5070 H   0  0  0  0  0  0  0  0  0  0  0  0
   17.0697   28.3463    4.5052 H   0  0  0  0  0  0  0  0  0  0  0  0
   21.0760   28.9458   -6.6656 H   0  0  0  0  0  0  0  0  0  0  0  0
   19.5207   28.5567   -6.3557 H   0  0  0  0  0  0  0  0  0  0  0  0
   20.2183   29.8128   -5.5797 H   0  0  0  0  0  0  0  0  0  0  0  0
   15.9093   27.5392   -0.8528 H   0  0  0  0  0  0  0  0  0  0  0  0
   16.1542   25.9813   -1.2767 H   0  0  0  0  0  0  0  0  0  0  0  0
   15.4745   27.0408    3.3596 H   0  0  0  0  0  0  0  0  0  0  0  0
   14.2448   28.1149    3.3287 H   0  0  0  0  0  0  0  0  0  0  0  0
   18.1120   25.9531    0.1198 H   0  0  0  0  0  0  0  0  0  0  0  0
   17.8900   27.5439    0.4144 H   0  0  0  0  0  0  0  0  0  0  0  0
   21.2522   26.2036   -3.1209 H   0  0  0  0  0  0  0  0  0  0  0  0
   18.5369   29.2232   -4.1233 H   0  0  0  0  0  0  0  0  0  0  0  0
   19.9803   25.7172   -1.1316 H   0  0  0  0  0  0  0  0  0  0  0  0
   17.2722   28.7084   -2.1365 H   0  0  0  0  0  0  0  0  0  0  0  0
  1  2  2  0  0  0  0
  1  3  2  0  0  0  0
  1  7  1  0  0  0  0
  1 10  1  0  0  0  0
  4  8  1  0  0  0  0
  5 17  2  0  0  0  0
  6  9  1  0  0  0  0
  6 18  1  0  0  0  0
  7 11  1  0  0  0  0
  8 17  1  0  0  0  0
 10 12  1  0  0  0  0
 11 17  1  0  0  0  0
 12 19  1  0  0  0  0
 13 15  2  0  0  0  0
 13 18  1  0  0  0  0
 14 16  1  0  0  0  0
 14 18  2  0  0  0  0
 15 19  1  0  0  0  0
 16 19  2  0  0  0  0
  4 20  1  0  0  0  0
  7 21  1  0  0  0  0
  8 22  1  0  0  0  0
  9 23  1  0  0  0  0
  9 24  1  0  0  0  0
  9 25  1  0  0  0  0
 10 26  1  0  0  0  0
 10 27  1  0  0  0  0
 11 28  1  0  0  0  0
 11 29  1  0  0  0  0
 12 30  1  0  0  0  0
 12 31  1  0  0  0  0
 13 32  1  0  0  0  0
 14 33  1  0  0  0  0
 15 34  1  0  0  0  0
 16 35  1  0  0  0  0
M  END
> <pdb_id>
4GUY

> <uniprot_id>
P39900

> <usmiles>
S(=O)(=O)(NCC(=O)NO)CCc1ccc(OC)cc1

$$$$
KLK_A_201
          07212401333D 1   1.00000     0.00000     0
            
 32 33  0  0  0  0            999 V2000
  -13.6494  -19.2847  -18.5778 O   0  0  0  0  0  0  0  0  0  0  0  0
  -16.6434  -23.4190  -22.8988 O   0  0  0  0  0  0  0  0  0  0  0  0
  -14.0062  -17.6809  -20.1428 N   0  0  0  0  0  0  0  0  0  0  0  0
  -15.7907  -19.4964  -21.4421 N   0  0  0  0  0  0  0  0  0  0  0  0
  -13.3443  -16.6562  -19.3253 C   0  0  0  0  0  0  0  0  0  0  0  0
  -17.4338  -20.4696  -23.1099 C   0  0  0  0  0  0  0  0  0  0  0  0
  -14.3731  -24.4868  -20.5020 C   0  0  0  0  0  0  0  0  0  0  0  0
  -14.3455  -23.3704  -19.4523 C   0  0  0  0  0  0  0  0  0  0  0  0
  -14.5539  -24.0099  -21.9480 C   0  0  0  0  0  0  0  0  0  0  0  0
  -13.5918  -22.1367  -19.9841 C   0  0  0  0  0  0  0  0  0  0  0  0
  -14.0980  -18.9347  -19.6782 C   0  0  0  0  0  0  0  0  0  0  0  0
  -15.6858  -23.0697  -22.1975 C   0  0  0  0  0  0  0  0  0  0  0  0
  -16.2885  -20.5376  -22.1295 C   0  0  0  0  0  0  0  0  0  0  0  0
  -14.8147  -19.8555  -20.5763 C   0  0  0  0  0  0  0  0  0  0  0  0
  -14.5756  -21.2810  -20.7064 C   0  0  0  0  0  0  0  0  0  0  0  0
  -15.5324  -21.7100  -21.6968 C   0  0  0  0  0  0  0  0  0  0  0  0
  -14.3849  -17.4454  -21.0378 H   0  0  0  0  0  0  0  0  0  0  0  0
  -16.1080  -18.5552  -21.5579 H   0  0  0  0  0  0  0  0  0  0  0  0
  -13.3592  -15.7818  -19.8104 H   0  0  0  0  0  0  0  0  0  0  0  0
  -13.8261  -16.5622  -18.4541 H   0  0  0  0  0  0  0  0  0  0  0  0
  -12.3968  -16.9266  -19.1547 H   0  0  0  0  0  0  0  0  0  0  0  0
  -17.6074  -21.3809  -23.4834 H   0  0  0  0  0  0  0  0  0  0  0  0
  -18.2537  -20.1393  -22.6424 H   0  0  0  0  0  0  0  0  0  0  0  0
  -17.1991  -19.8437  -23.8537 H   0  0  0  0  0  0  0  0  0  0  0  0
  -15.1297  -25.1021  -20.2811 H   0  0  0  0  0  0  0  0  0  0  0  0
  -13.5091  -24.9872  -20.4458 H   0  0  0  0  0  0  0  0  0  0  0  0
  -13.8864  -23.7055  -18.6296 H   0  0  0  0  0  0  0  0  0  0  0  0
  -15.2842  -23.1091  -19.2272 H   0  0  0  0  0  0  0  0  0  0  0  0
  -14.6972  -24.8178  -22.5196 H   0  0  0  0  0  0  0  0  0  0  0  0
  -13.7098  -23.5509  -22.2252 H   0  0  0  0  0  0  0  0  0  0  0  0
  -12.8665  -22.4242  -20.6097 H   0  0  0  0  0  0  0  0  0  0  0  0
  -13.1921  -21.6272  -19.2221 H   0  0  0  0  0  0  0  0  0  0  0  0
  1 11  2  0  0  0  0
  2 12  2  0  0  0  0
  3  5  1  0  0  0  0
  3 11  1  0  0  0  0
  4 13  1  0  0  0  0
  4 14  1  0  0  0  0
  6 13  1  0  0  0  0
  7  8  1  0  0  0  0
  7  9  1  0  0  0  0
  8 10  1  0  0  0  0
  9 12  1  0  0  0  0
 10 15  1  0  0  0  0
 11 14  1  0  0  0  0
 12 16  1  0  0  0  0
 13 16  2  0  0  0  0
 14 15  2  0  0  0  0
 15 16  1  0  0  0  0
  3 17  1  0  0  0  0
  4 18  1  0  0  0  0
  5 19  1  0  0  0  0
  5 20  1  0  0  0  0
  5 21  1  0  0  0  0
  6 22  1  0  0  0  0
  6 23  1  0  0  0  0
  6 24  1  0  0  0  0
  7 25  1  0  0  0  0
  7 26  1  0  0  0  0
  8 27  1  0  0  0  0
  8 28  1  0  0  0  0
  9 29  1  0  0  0  0
  9 30  1  0  0  0  0
 10 31  1  0  0  0  0
 10 32  1  0  0  0  0
M  END
> <pdb_id>
6RWJ

> <uniprot_id>
O60885

> <usmiles>
O=C(NC)C=1NC(=C2C(=O)CCCCC12)C

$$$$
KQK_A_511
          07202416203D 1   1.00000     0.00000     0
            
 30 32  0  0  0  0            999 V2000
   -1.9771   -5.4713   30.6972 N   0  0  0  0  0  0  0  0  0  0  0  0
   -4.0410   -6.0524   31.6401 N   0  0  0  0  0  0  0  0  0  0  0  0
   -8.4687   -1.5078   30.6167 N   0  0  0  0  0  0  0  0  0  0  0  0
   -6.2686   -2.2841   30.0169 N   0  0  0  0  0  0  0  0  0  0  0  0
   -3.3029   -5.1980   30.9070 N   0  0  0  0  0  0  0  0  0  0  0  0
   -7.1915   -0.3835   29.0435 N   0  0  0  0  0  0  0  0  0  0  0  0
   -5.9602   -0.1743   28.2852 C   0  0  0  0  0  0  0  0  0  0  0  0
   -8.1336    0.7302   29.0468 C   0  0  0  0  0  0  0  0  0  0  0  0
   -1.3176   -4.5590   29.9342 C   0  0  0  0  0  0  0  0  0  0  0  0
   -8.5804   -2.5917   31.4075 C   0  0  0  0  0  0  0  0  0  0  0  0
   -5.2411   -5.4897   31.6622 C   0  0  0  0  0  0  0  0  0  0  0  0
   -1.9175   -3.3586   29.4683 C   0  0  0  0  0  0  0  0  0  0  0  0
   -7.5736   -3.5332   31.5708 C   0  0  0  0  0  0  0  0  0  0  0  0
   -3.2501   -3.0999   29.7514 C   0  0  0  0  0  0  0  0  0  0  0  0
   -7.3253   -1.4314   29.9108 C   0  0  0  0  0  0  0  0  0  0  0  0
   -6.4145   -3.3289   30.8436 C   0  0  0  0  0  0  0  0  0  0  0  0
   -3.9673   -4.0770   30.4813 C   0  0  0  0  0  0  0  0  0  0  0  0
   -5.2755   -4.2513   30.9850 C   0  0  0  0  0  0  0  0  0  0  0  0
   -5.6855   -1.0587   27.7126 H   0  0  0  0  0  0  0  0  0  0  0  0
   -5.1207    0.0587   28.9380 H   0  0  0  0  0  0  0  0  0  0  0  0
   -6.0574    0.6492   27.5795 H   0  0  0  0  0  0  0  0  0  0  0  0
   -7.9904    1.3714   28.1779 H   0  0  0  0  0  0  0  0  0  0  0  0
   -8.0119    1.3471   29.9363 H   0  0  0  0  0  0  0  0  0  0  0  0
   -9.1637    0.3758   29.0291 H   0  0  0  0  0  0  0  0  0  0  0  0
   -0.2873   -4.8386   29.7164 H   0  0  0  0  0  0  0  0  0  0  0  0
   -9.5367   -2.6811   31.9211 H   0  0  0  0  0  0  0  0  0  0  0  0
   -6.0686   -5.9856   32.1667 H   0  0  0  0  0  0  0  0  0  0  0  0
   -1.3156   -2.6584   28.8911 H   0  0  0  0  0  0  0  0  0  0  0  0
   -7.6986   -4.3843   32.2382 H   0  0  0  0  0  0  0  0  0  0  0  0
   -3.7717   -2.1930   29.4470 H   0  0  0  0  0  0  0  0  0  0  0  0
  1  5  1  0  0  0  0
  1  9  2  0  0  0  0
  2  5  1  0  0  0  0
  2 11  2  0  0  0  0
  3 10  1  0  0  0  0
  3 15  2  0  0  0  0
  4 15  1  0  0  0  0
  4 16  2  0  0  0  0
  5 17  1  0  0  0  0
  6  7  1  0  0  0  0
  6  8  1  0  0  0  0
  6 15  1  0  0  0  0
  7 19  1  0  0  0  0
  7 20  1  0  0  0  0
  7 21  1  0  0  0  0
  8 22  1  0  0  0  0
  8 23  1  0  0  0  0
  8 24  1  0  0  0  0
  9 12  1  0  0  0  0
  9 25  1  0  0  0  0
 10 13  2  0  0  0  0
 10 26  1  0  0  0  0
 11 18  1  0  0  0  0
 11 27  1  0  0  0  0
 12 14  2  0  0  0  0
 12 28  1  0  0  0  0
 13 16  1  0  0  0  0
 13 29  1  0  0  0  0
 14 17  1  0  0  0  0
 14 30  1  0  0  0  0
 16 18  1  0  0  0  0
 17 18  2  0  0  0  0
M  END
> <pdb_id>
6S17

> <uniprot_id>
Q13627

> <usmiles>
n1c(nccc1C2=C3N(N=C2)N=CC=C3)N(C)C

$$$$
KQW_A_507
          07202416203D 1   1.00000     0.00000     0
            
 34 37  0  0  0  0            999 V2000
   -1.9641   -5.6602   30.6087 N   0  0  0  0  0  0  0  0  0  0  0  0
   -4.0287   -6.1882   31.5932 N   0  0  0  0  0  0  0  0  0  0  0  0
   -8.3305   -1.5344   30.6228 N   0  0  0  0  0  0  0  0  0  0  0  0
   -6.1196   -2.3182   30.0575 N   0  0  0  0  0  0  0  0  0  0  0  0
   -3.2652   -5.3509   30.8749 N   0  0  0  0  0  0  0  0  0  0  0  0
   -6.9298   -0.3005   29.2471 N   0  0  0  0  0  0  0  0  0  0  0  0
   -7.8941    0.7927   29.2706 C   0  0  0  0  0  0  0  0  0  0  0  0
   -1.2964   -4.7646   29.8648 C   0  0  0  0  0  0  0  0  0  0  0  0
   -8.5018   -2.6588   31.3340 C   0  0  0  0  0  0  0  0  0  0  0  0
   -5.1971   -5.5634   31.6512 C   0  0  0  0  0  0  0  0  0  0  0  0
   -1.8330   -3.5543   29.4020 C   0  0  0  0  0  0  0  0  0  0  0  0
   -7.5273   -3.6276   31.4780 C   0  0  0  0  0  0  0  0  0  0  0  0
   -3.1393   -3.2533   29.7197 C   0  0  0  0  0  0  0  0  0  0  0  0
   -5.5174    0.5508   27.2795 C   0  0  0  0  0  0  0  0  0  0  0  0
   -5.1024   -0.8743   27.4712 C   0  0  0  0  0  0  0  0  0  0  0  0
   -7.1301   -1.4211   29.9917 C   0  0  0  0  0  0  0  0  0  0  0  0
   -6.3226   -3.4023   30.8224 C   0  0  0  0  0  0  0  0  0  0  0  0
   -3.8865   -4.2055   30.4663 C   0  0  0  0  0  0  0  0  0  0  0  0
   -5.1976   -4.3334   30.9702 C   0  0  0  0  0  0  0  0  0  0  0  0
   -5.5932   -0.0740   28.6301 C   0  0  0  0  0  0  0  0  0  0  0  0
   -7.5550    1.6478   28.6878 H   0  0  0  0  0  0  0  0  0  0  0  0
   -8.0222    1.1180   30.3018 H   0  0  0  0  0  0  0  0  0  0  0  0
   -8.8809    0.5224   28.8970 H   0  0  0  0  0  0  0  0  0  0  0  0
   -0.2767   -5.0859   29.6559 H   0  0  0  0  0  0  0  0  0  0  0  0
   -9.4819   -2.7529   31.7976 H   0  0  0  0  0  0  0  0  0  0  0  0
   -6.0253   -6.0194   32.1909 H   0  0  0  0  0  0  0  0  0  0  0  0
   -1.2275   -2.8720   28.8078 H   0  0  0  0  0  0  0  0  0  0  0  0
   -7.7001   -4.5208   32.0753 H   0  0  0  0  0  0  0  0  0  0  0  0
   -3.6245   -2.3234   29.4262 H   0  0  0  0  0  0  0  0  0  0  0  0
   -6.4284    0.7925   26.7335 H   0  0  0  0  0  0  0  0  0  0  0  0
   -4.7676    1.3040   27.0431 H   0  0  0  0  0  0  0  0  0  0  0  0
   -4.0521   -1.1485   27.3964 H   0  0  0  0  0  0  0  0  0  0  0  0
   -5.7055   -1.6808   27.0553 H   0  0  0  0  0  0  0  0  0  0  0  0
   -4.9056    0.2201   29.4215 H   0  0  0  0  0  0  0  0  0  0  0  0
  1  5  1  0  0  0  0
  1  8  2  0  0  0  0
  2  5  1  0  0  0  0
  2 10  2  0  0  0  0
  3  9  1  0  0  0  0
  3 16  2  0  0  0  0
  4 16  1  0  0  0  0
  4 17  2  0  0  0  0
  5 18  1  0  0  0  0
  6  7  1  0  0  0  0
  6 16  1  0  0  0  0
  6 20  1  0  0  0  0
  7 21  1  0  0  0  0
  7 22  1  0  0  0  0
  7 23  1  0  0  0  0
  8 11  1  0  0  0  0
  8 24  1  0  0  0  0
  9 12  2  0  0  0  0
  9 25  1  0  0  0  0
 10 19  1  0  0  0  0
 10 26  1  0  0  0  0
 11 13  2  0  0  0  0
 11 27  1  0  0  0  0
 12 17  1  0  0  0  0
 12 28  1  0  0  0  0
 13 18  1  0  0  0  0
 13 29  1  0  0  0  0
 14 15  1  0  0  0  0
 14 20  1  0  0  0  0
 14 30  1  0  0  0  0
 14 31  1  0  0  0  0
 15 20  1  0  0  0  0
 15 32  1  0  0  0  0
 15 33  1  0  0  0  0
 17 19  1  0  0  0  0
 18 19  2  0  0  0  0
 20 34  1  0  0  0  0
M  END
> <pdb_id>
6S14

> <uniprot_id>
Q13627

> <usmiles>
n1c(nccc1C2=C3N(N=C2)N=CC=C3)N(C4CC4)C

$$$$
KQZ_A_504
          07202416203D 1   1.00000     0.00000     0
            
 31 33  0  0  0  0            999 V2000
   -2.7973   -5.5924   30.8687 N   0  0  0  0  0  0  0  0  0  0  0  0
   -8.8738   -0.9782   30.2433 N   0  0  0  0  0  0  0  0  0  0  0  0
   -4.1834   -3.7100   30.3198 N   0  0  0  0  0  0  0  0  0  0  0  0
   -8.5792   -2.9667   31.5596 N   0  0  0  0  0  0  0  0  0  0  0  0
   -1.9901   -3.8187   29.6473 N   0  0  0  0  0  0  0  0  0  0  0  0
   -0.6543   -4.3952   29.6740 C   0  0  0  0  0  0  0  0  0  0  0  0
   -2.1630   -2.5756   28.9203 C   0  0  0  0  0  0  0  0  0  0  0  0
   -8.2389   -0.1612   29.3863 C   0  0  0  0  0  0  0  0  0  0  0  0
   -3.8244   -6.0864   31.5753 C   0  0  0  0  0  0  0  0  0  0  0  0
   -7.5580   -3.8580   31.7759 C   0  0  0  0  0  0  0  0  0  0  0  0
   -6.9284   -0.3417   28.9637 C   0  0  0  0  0  0  0  0  0  0  0  0
   -5.0365   -5.4523   31.7065 C   0  0  0  0  0  0  0  0  0  0  0  0
   -6.1966   -1.4223   29.4422 C   0  0  0  0  0  0  0  0  0  0  0  0
   -3.0249   -4.4032   30.2798 C   0  0  0  0  0  0  0  0  0  0  0  0
   -8.1421   -2.0025   30.6905 C   0  0  0  0  0  0  0  0  0  0  0  0
   -5.1821   -4.2539   31.0276 C   0  0  0  0  0  0  0  0  0  0  0  0
   -6.4502   -3.5145   31.0542 C   0  0  0  0  0  0  0  0  0  0  0  0
   -6.8119   -2.2889   30.3456 C   0  0  0  0  0  0  0  0  0  0  0  0
   -9.5064   -3.0089   31.9705 H   0  0  0  0  0  0  0  0  0  0  0  0
    0.1189   -3.6294   29.6815 H   0  0  0  0  0  0  0  0  0  0  0  0
   -0.4768   -5.0234   28.8017 H   0  0  0  0  0  0  0  0  0  0  0  0
   -0.4579   -5.0318   30.5348 H   0  0  0  0  0  0  0  0  0  0  0  0
   -1.2793   -2.3169   28.3393 H   0  0  0  0  0  0  0  0  0  0  0  0
   -2.3398   -1.7203   29.5700 H   0  0  0  0  0  0  0  0  0  0  0  0
   -2.9974   -2.6379   28.2230 H   0  0  0  0  0  0  0  0  0  0  0  0
   -8.8412    0.6754   29.0363 H   0  0  0  0  0  0  0  0  0  0  0  0
   -3.6261   -7.0463   32.0486 H   0  0  0  0  0  0  0  0  0  0  0  0
   -7.6840   -4.7058   32.4476 H   0  0  0  0  0  0  0  0  0  0  0  0
   -6.4831    0.3626   28.2626 H   0  0  0  0  0  0  0  0  0  0  0  0
   -5.8344   -5.8782   32.3134 H   0  0  0  0  0  0  0  0  0  0  0  0
   -5.1700   -1.5878   29.1184 H   0  0  0  0  0  0  0  0  0  0  0  0
  1  9  2  0  0  0  0
  1 14  1  0  0  0  0
  2  8  1  0  0  0  0
  2 15  2  0  0  0  0
  3 14  2  0  0  0  0
  3 16  1  0  0  0  0
  4 10  1  0  0  0  0
  4 15  1  0  0  0  0
  4 19  1  0  0  0  0
  5  6  1  0  0  0  0
  5  7  1  0  0  0  0
  5 14  1  0  0  0  0
  6 20  1  0  0  0  0
  6 21  1  0  0  0  0
  6 22  1  0  0  0  0
  7 23  1  0  0  0  0
  7 24  1  0  0  0  0
  7 25  1  0  0  0  0
  8 11  2  0  0  0  0
  8 26  1  0  0  0  0
  9 12  1  0  0  0  0
  9 27  1  0  0  0  0
 10 17  2  0  0  0  0
 10 28  1  0  0  0  0
 11 13  1  0  0  0  0
 11 29  1  0  0  0  0
 12 16  2  0  0  0  0
 12 30  1  0  0  0  0
 13 18  2  0  0  0  0
 13 31  1  0  0  0  0
 15 18  1  0  0  0  0
 16 17  1  0  0  0  0
 17 18  1  0  0  0  0
M  END
> <pdb_id>
6S1H

> <uniprot_id>
Q13627

> <usmiles>
n1c(nccc1C=2c3c(nccc3)NC2)N(C)C

$$$$
KR8_B_505
          07202416203D 1   1.00000     0.00000     0
            
 37 40  0  0  0  0            999 V2000
   -2.1421   -5.2820   30.4616 N   0  0  0  0  0  0  0  0  0  0  0  0
   -4.0899   -5.8608   31.6567 N   0  0  0  0  0  0  0  0  0  0  0  0
   -8.4456   -1.2109   31.1081 N   0  0  0  0  0  0  0  0  0  0  0  0
   -6.3370   -2.0225   30.2752 N   0  0  0  0  0  0  0  0  0  0  0  0
   -3.4114   -5.0398   30.8458 N   0  0  0  0  0  0  0  0  0  0  0  0
   -7.2602   -0.0144   29.5273 N   0  0  0  0  0  0  0  0  0  0  0  0
   -8.1724    1.0991   29.7722 C   0  0  0  0  0  0  0  0  0  0  0  0
   -1.5739   -4.3796   29.6548 C   0  0  0  0  0  0  0  0  0  0  0  0
   -8.5111   -2.3035   31.8817 C   0  0  0  0  0  0  0  0  0  0  0  0
   -5.2600   -5.2564   31.7894 C   0  0  0  0  0  0  0  0  0  0  0  0
   -2.1747   -3.2073   29.1713 C   0  0  0  0  0  0  0  0  0  0  0  0
   -3.6458    0.9491   27.6155 C   0  0  0  0  0  0  0  0  0  0  0  0
   -4.1279    1.7503   28.6327 C   0  0  0  0  0  0  0  0  0  0  0  0
   -4.3483   -0.1749   27.2352 C   0  0  0  0  0  0  0  0  0  0  0  0
   -7.5434   -3.2828   31.9066 C   0  0  0  0  0  0  0  0  0  0  0  0
   -5.3114    1.4312   29.2745 C   0  0  0  0  0  0  0  0  0  0  0  0
   -5.5382   -0.5061   27.8660 C   0  0  0  0  0  0  0  0  0  0  0  0
   -3.4595   -2.9943   29.5816 C   0  0  0  0  0  0  0  0  0  0  0  0
   -7.3495   -1.1266   30.3336 C   0  0  0  0  0  0  0  0  0  0  0  0
   -6.0242    0.2979   28.8909 C   0  0  0  0  0  0  0  0  0  0  0  0
   -6.4522   -3.0923   31.0745 C   0  0  0  0  0  0  0  0  0  0  0  0
   -4.0866   -3.9271   30.4403 C   0  0  0  0  0  0  0  0  0  0  0  0
   -5.3381   -4.0482   31.0772 C   0  0  0  0  0  0  0  0  0  0  0  0
   -7.9910    1.8295   29.1137 H   0  0  0  0  0  0  0  0  0  0  0  0
   -9.1164    0.7852   29.6702 H   0  0  0  0  0  0  0  0  0  0  0  0
   -8.0346    1.4450   30.7002 H   0  0  0  0  0  0  0  0  0  0  0  0
   -0.6321   -4.5569   29.3692 H   0  0  0  0  0  0  0  0  0  0  0  0
   -9.3086   -2.4139   32.4748 H   0  0  0  0  0  0  0  0  0  0  0  0
   -6.0107   -5.6221   32.3397 H   0  0  0  0  0  0  0  0  0  0  0  0
   -1.6946   -2.5711   28.5673 H   0  0  0  0  0  0  0  0  0  0  0  0
   -2.7892    1.1838   27.1561 H   0  0  0  0  0  0  0  0  0  0  0  0
   -3.6182    2.5659   28.9068 H   0  0  0  0  0  0  0  0  0  0  0  0
   -3.9975   -0.7549   26.5000 H   0  0  0  0  0  0  0  0  0  0  0  0
   -7.6239   -4.0883   32.4937 H   0  0  0  0  0  0  0  0  0  0  0  0
   -5.6542    2.0130   30.0120 H   0  0  0  0  0  0  0  0  0  0  0  0
   -6.0452   -1.3208   27.5844 H   0  0  0  0  0  0  0  0  0  0  0  0
   -3.9555   -2.1815   29.2761 H   0  0  0  0  0  0  0  0  0  0  0  0
  1  5  1  0  0  0  0
  1  8  2  0  0  0  0
  2  5  1  0  0  0  0
  2 10  2  0  0  0  0
  3  9  1  0  0  0  0
  3 19  2  0  0  0  0
  4 19  1  0  0  0  0
  4 21  2  0  0  0  0
  5 22  1  0  0  0  0
  6  7  1  0  0  0  0
  6 19  1  0  0  0  0
  6 20  1  0  0  0  0
  8 11  1  0  0  0  0
  9 15  2  0  0  0  0
 10 23  1  0  0  0  0
 11 18  2  0  0  0  0
 12 13  2  0  0  0  0
 12 14  1  0  0  0  0
 13 16  1  0  0  0  0
 14 17  2  0  0  0  0
 15 21  1  0  0  0  0
 16 20  2  0  0  0  0
 17 20  1  0  0  0  0
 18 22  1  0  0  0  0
 21 23  1  0  0  0  0
 22 23  2  0  0  0  0
  7 24  1  0  0  0  0
  7 25  1  0  0  0  0
  7 26  1  0  0  0  0
  8 27  1  0  0  0  0
  9 28  1  0  0  0  0
 10 29  1  0  0  0  0
 11 30  1  0  0  0  0
 12 31  1  0  0  0  0
 13 32  1  0  0  0  0
 14 33  1  0  0  0  0
 15 34  1  0  0  0  0
 16 35  1  0  0  0  0
 17 36  1  0  0  0  0
 18 37  1  0  0  0  0
M  END
> <pdb_id>
6S1I

> <uniprot_id>
Q13627

> <usmiles>
n1c(nccc1C2=C3N(N=C2)N=CC=C3)N(c4ccccc4)C

$$$$
KRC_A_1
          07202408433D 1   1.00000     0.00000     0
            
 65 69  0  0  0  0            999 V2000
   14.8822    6.9868   10.5820 O   0  0  0  0  0  0  0  0  0  0  0  0
   16.4135   15.9549   10.4297 O   0  0  0  0  0  0  0  0  0  0  0  0
   13.4968   14.3250   11.8766 O   0  0  0  0  0  0  0  0  0  0  0  0
   18.3092   11.5125    7.7372 O   0  0  0  0  0  0  0  0  0  0  0  0
   17.1971   13.4078    9.2637 O   0  0  0  0  0  0  0  0  0  0  0  0
   18.6085    7.0276    9.3799 O   0  0  0  0  0  0  0  0  0  0  0  0
   14.7329    9.9087   10.2597 O   0  0  0  0  0  0  0  0  0  0  0  0
   16.9191    6.4348   11.3396 N   0  0  0  0  0  0  0  0  0  0  0  0
   19.9643    6.7669    9.0966 C   0  0  0  0  0  0  0  0  0  0  0  0
   15.0584    4.8865   15.2922 C   0  0  0  0  0  0  0  0  0  0  0  0
   14.1948   16.3324    9.6255 C   0  0  0  0  0  0  0  0  0  0  0  0
   14.7044   11.8677    7.8171 C   0  0  0  0  0  0  0  0  0  0  0  0
   16.3984    5.2979   12.0829 C   0  0  0  0  0  0  0  0  0  0  0  0
   16.2486    5.7888   14.9621 C   0  0  0  0  0  0  0  0  0  0  0  0
   20.6917    2.5735   11.4799 C   0  0  0  0  0  0  0  0  0  0  0  0
   19.7026    3.0580   10.6181 C   0  0  0  0  0  0  0  0  0  0  0  0
   20.6017    2.8232   12.8551 C   0  0  0  0  0  0  0  0  0  0  0  0
   18.6236    3.7917   11.1307 C   0  0  0  0  0  0  0  0  0  0  0  0
   18.3936    4.5120   15.2378 C   0  0  0  0  0  0  0  0  0  0  0  0
   19.4645    3.7809   14.7134 C   0  0  0  0  0  0  0  0  0  0  0  0
   18.4516    9.2752    8.5649 C   0  0  0  0  0  0  0  0  0  0  0  0
   13.7305   12.0994   10.8764 C   0  0  0  0  0  0  0  0  0  0  0  0
   16.0861    7.2117   10.6260 C   0  0  0  0  0  0  0  0  0  0  0  0
   15.3392   15.4517   10.1356 C   0  0  0  0  0  0  0  0  0  0  0  0
   14.1494   13.5143   11.0089 C   0  0  0  0  0  0  0  0  0  0  0  0
   17.7579   10.4686    8.4477 C   0  0  0  0  0  0  0  0  0  0  0  0
   17.9085    8.2119    9.2759 C   0  0  0  0  0  0  0  0  0  0  0  0
   16.0535   13.0655    9.5532 C   0  0  0  0  0  0  0  0  0  0  0  0
   15.9560    9.5324    9.7681 C   0  0  0  0  0  0  0  0  0  0  0  0
   14.5038   11.2236   10.2281 C   0  0  0  0  0  0  0  0  0  0  0  0
   17.3948    5.0051   14.3893 C   0  0  0  0  0  0  0  0  0  0  0  0
   19.5366    3.5462   13.3560 C   0  0  0  0  0  0  0  0  0  0  0  0
   17.4627    4.7694   13.0066 C   0  0  0  0  0  0  0  0  0  0  0  0
   18.5384    4.0371   12.4951 C   0  0  0  0  0  0  0  0  0  0  0  0
   15.1456   13.9942   10.2708 C   0  0  0  0  0  0  0  0  0  0  0  0
   16.6575    8.3402    9.8765 C   0  0  0  0  0  0  0  0  0  0  0  0
   16.5061   10.6100    9.0422 C   0  0  0  0  0  0  0  0  0  0  0  0
   15.4612   11.7104    9.1340 C   0  0  1  0  0  0  0  0  0  0  0  0
   13.7733   15.2813   11.9720 H   0  0  0  0  0  0  0  0  0  0  0  0
   17.8120   12.3757    7.6500 H   0  0  0  0  0  0  0  0  0  0  0  0
   17.8979    6.6387   11.3597 H   0  0  0  0  0  0  0  0  0  0  0  0
   20.1629    5.8033    9.2757 H   0  0  0  0  0  0  0  0  0  0  0  0
   20.1496    6.9724    8.1357 H   0  0  0  0  0  0  0  0  0  0  0  0
   20.5424    7.3399    9.6775 H   0  0  0  0  0  0  0  0  0  0  0  0
   14.3158    5.4393   15.6702 H   0  0  0  0  0  0  0  0  0  0  0  0
   14.7442    4.4312   14.4591 H   0  0  0  0  0  0  0  0  0  0  0  0
   15.3371    4.1991   15.9629 H   0  0  0  0  0  0  0  0  0  0  0  0
   13.3957   15.7627    9.4338 H   0  0  0  0  0  0  0  0  0  0  0  0
   13.9610   17.0113   10.3215 H   0  0  0  0  0  0  0  0  0  0  0  0
   14.4806   16.7984    8.7881 H   0  0  0  0  0  0  0  0  0  0  0  0
   14.3199   10.9852    7.5462 H   0  0  0  0  0  0  0  0  0  0  0  0
   13.9656   12.5313    7.9343 H   0  0  0  0  0  0  0  0  0  0  0  0
   15.3321   12.1895    7.1082 H   0  0  0  0  0  0  0  0  0  0  0  0
   16.1254    4.5791   11.4436 H   0  0  0  0  0  0  0  0  0  0  0  0
   15.6051    5.5859   12.6192 H   0  0  0  0  0  0  0  0  0  0  0  0
   16.5528    6.2438   15.7991 H   0  0  0  0  0  0  0  0  0  0  0  0
   15.9599    6.4758   14.2953 H   0  0  0  0  0  0  0  0  0  0  0  0
   21.4616    2.0500   11.1150 H   0  0  0  0  0  0  0  0  0  0  0  0
   19.7651    2.8810    9.6359 H   0  0  0  0  0  0  0  0  0  0  0  0
   21.3077    2.4784   13.4737 H   0  0  0  0  0  0  0  0  0  0  0  0
   17.9161    4.1379   10.5146 H   0  0  0  0  0  0  0  0  0  0  0  0
   18.3411    4.6830   16.2216 H   0  0  0  0  0  0  0  0  0  0  0  0
   20.1765    3.4292   15.3212 H   0  0  0  0  0  0  0  0  0  0  0  0
   19.3492    9.1783    8.1350 H   0  0  0  0  0  0  0  0  0  0  0  0
   12.8641   11.7980   11.2745 H   0  0  0  0  0  0  0  0  0  0  0  0
  1 23  2  0  0  0  0
  2 24  2  0  0  0  0
  3 25  1  0  0  0  0
  4 26  1  0  0  0  0
  5 28  2  0  0  0  0
  6  9  1  0  0  0  0
  6 27  1  0  0  0  0
  7 29  1  0  0  0  0
  7 30  1  0  0  0  0
  8 13  1  0  0  0  0
  8 23  1  0  0  0  0
 10 14  1  0  0  0  0
 11 24  1  0  0  0  0
 12 38  1  0  0  0  0
 13 33  1  0  0  0  0
 14 31  1  0  0  0  0
 15 16  2  0  0  0  0
 15 17  1  0  0  0  0
 16 18  1  0  0  0  0
 17 32  2  0  0  0  0
 18 34  2  0  0  0  0
 19 20  2  0  0  0  0
 19 31  1  0  0  0  0
 20 32  1  0  0  0  0
 21 26  2  0  0  0  0
 21 27  1  0  0  0  0
 22 25  1  0  0  0  0
 22 30  2  0  0  0  0
 23 36  1  0  0  0  0
 24 35  1  0  0  0  0
 25 35  2  0  0  0  0
 26 37  1  0  0  0  0
 27 36  2  0  0  0  0
 28 35  1  0  0  0  0
 28 38  1  0  0  0  0
 29 36  1  0  0  0  0
 29 37  2  0  0  0  0
 30 38  1  0  0  0  0
 31 33  2  0  0  0  0
 32 34  1  0  0  0  0
 33 34  1  0  0  0  0
 37 38  1  0  0  0  0
  3 39  1  0  0  0  0
  4 40  1  0  0  0  0
  8 41  1  0  0  0  0
  9 42  1  0  0  0  0
  9 43  1  0  0  0  0
  9 44  1  0  0  0  0
 10 45  1  0  0  0  0
 10 46  1  0  0  0  0
 10 47  1  0  0  0  0
 11 48  1  0  0  0  0
 11 49  1  0  0  0  0
 11 50  1  0  0  0  0
 12 51  1  0  0  0  0
 12 52  1  0  0  0  0
 12 53  1  0  0  0  0
 13 54  1  0  0  0  0
 13 55  1  0  0  0  0
 14 56  1  0  0  0  0
 14 57  1  0  0  0  0
 15 58  1  0  0  0  0
 16 59  1  0  0  0  0
 17 60  1  0  0  0  0
 18 61  1  0  0  0  0
 19 62  1  0  0  0  0
 20 63  1  0  0  0  0
 21 64  1  0  0  0  0
 22 65  1  0  0  0  0
M  END
> <pdb_id>
3B1M

> <uniprot_id>
P37231

> <usmiles>
O=C(NCc1c2c(ccc1CC)cccc2)c3c4OC5=CC(O)=C(C(=O)[C@]5(c4c(O)cc3OC)C)C(=O)C

$$$$
KRK_A_501
          07202416203D 1   1.00000     0.00000     0
            
 34 37  0  0  0  0            999 V2000
   -6.8180    0.1944   26.3934 F   0  0  0  0  0  0  0  0  0  0  0  0
   -2.0836   -5.2940   30.7094 N   0  0  0  0  0  0  0  0  0  0  0  0
   -4.0904   -5.8863   31.6616 N   0  0  0  0  0  0  0  0  0  0  0  0
   -8.5716   -1.5104   30.5767 N   0  0  0  0  0  0  0  0  0  0  0  0
   -6.3099   -2.1729   30.1258 N   0  0  0  0  0  0  0  0  0  0  0  0
   -3.3762   -5.0109   30.9624 N   0  0  0  0  0  0  0  0  0  0  0  0
   -7.2041   -0.2556   29.2475 N   0  0  0  0  0  0  0  0  0  0  0  0
   -1.4680   -4.3683   29.9748 C   0  0  0  0  0  0  0  0  0  0  0  0
   -8.7003   -2.6135   31.3324 C   0  0  0  0  0  0  0  0  0  0  0  0
   -5.2795   -5.3321   31.7099 C   0  0  0  0  0  0  0  0  0  0  0  0
   -2.0354   -3.1758   29.4958 C   0  0  0  0  0  0  0  0  0  0  0  0
   -7.6968   -3.5313   31.5211 C   0  0  0  0  0  0  0  0  0  0  0  0
   -3.3438   -2.9543   29.7885 C   0  0  0  0  0  0  0  0  0  0  0  0
   -8.2572    0.6947   28.9551 C   0  0  0  0  0  0  0  0  0  0  0  0
   -5.9824    0.0186   28.4996 C   0  0  0  0  0  0  0  0  0  0  0  0
   -7.5525    1.7022   28.0484 C   0  0  0  0  0  0  0  0  0  0  0  0
   -7.3695   -1.3541   30.0117 C   0  0  0  0  0  0  0  0  0  0  0  0
   -6.4922   -3.2667   30.8966 C   0  0  0  0  0  0  0  0  0  0  0  0
   -4.0556   -3.9250   30.5382 C   0  0  0  0  0  0  0  0  0  0  0  0
   -5.3376   -4.1016   31.0425 C   0  0  0  0  0  0  0  0  0  0  0  0
   -6.3802    0.9826   27.4892 C   0  0  2  0  0  0  0  0  0  0  0  0
   -0.4314   -4.6344   29.7711 H   0  0  0  0  0  0  0  0  0  0  0  0
   -9.6790   -2.7307   31.7956 H   0  0  0  0  0  0  0  0  0  0  0  0
   -6.0897   -5.8379   32.2343 H   0  0  0  0  0  0  0  0  0  0  0  0
   -1.4371   -2.4741   28.9167 H   0  0  0  0  0  0  0  0  0  0  0  0
   -7.8556   -4.4175   32.1336 H   0  0  0  0  0  0  0  0  0  0  0  0
   -3.8672   -2.0545   29.4661 H   0  0  0  0  0  0  0  0  0  0  0  0
   -9.1060    0.2104   28.4756 H   0  0  0  0  0  0  0  0  0  0  0  0
   -8.6511    1.1428   29.8655 H   0  0  0  0  0  0  0  0  0  0  0  0
   -5.1949    0.4017   29.1474 H   0  0  0  0  0  0  0  0  0  0  0  0
   -5.5680   -0.8890   28.0645 H   0  0  0  0  0  0  0  0  0  0  0  0
   -8.2196    2.0709   27.2703 H   0  0  0  0  0  0  0  0  0  0  0  0
   -7.2640    2.5973   28.5987 H   0  0  0  0  0  0  0  0  0  0  0  0
   -5.5940    1.6663   27.1696 H   0  0  0  0  0  0  0  0  0  0  0  0
  1 21  1  0  0  0  0
  2  6  1  0  0  0  0
  2  8  2  0  0  0  0
  3  6  1  0  0  0  0
  3 10  2  0  0  0  0
  4  9  1  0  0  0  0
  4 17  2  0  0  0  0
  5 17  1  0  0  0  0
  5 18  2  0  0  0  0
  6 19  1  0  0  0  0
  7 14  1  0  0  0  0
  7 15  1  0  0  0  0
  7 17  1  0  0  0  0
  8 11  1  0  0  0  0
  8 22  1  0  0  0  0
  9 12  2  0  0  0  0
  9 23  1  0  0  0  0
 10 20  1  0  0  0  0
 10 24  1  0  0  0  0
 11 13  2  0  0  0  0
 11 25  1  0  0  0  0
 12 18  1  0  0  0  0
 12 26  1  0  0  0  0
 13 19  1  0  0  0  0
 13 27  1  0  0  0  0
 14 16  1  0  0  0  0
 14 28  1  0  0  0  0
 14 29  1  0  0  0  0
 15 21  1  0  0  0  0
 15 30  1  0  0  0  0
 15 31  1  0  0  0  0
 16 21  1  0  0  0  0
 16 32  1  0  0  0  0
 16 33  1  0  0  0  0
 18 20  1  0  0  0  0
 19 20  2  0  0  0  0
 21 34  1  0  0  0  0
M  END
> <pdb_id>
6S1J

> <uniprot_id>
Q13627

> <usmiles>
F[C@@H]1CN(c2nc(ccn2)C3=C4N(N=C3)N=CC=C4)CC1

$$$$
KRQ_A_507
          07202416203D 1   1.00000     0.00000     0
            
 27 29  0  0  0  0            999 V2000
   -2.0509   -5.2768   30.6382 N   0  0  0  0  0  0  0  0  0  0  0  0
   -4.0902   -5.9027   31.6202 N   0  0  0  0  0  0  0  0  0  0  0  0
   -8.6488   -1.5322   30.6074 N   0  0  0  0  0  0  0  0  0  0  0  0
   -6.4180   -2.1840   30.0098 N   0  0  0  0  0  0  0  0  0  0  0  0
   -7.4047   -0.3085   29.1405 N   0  0  0  0  0  0  0  0  0  0  0  0
   -3.3664   -5.0482   30.8882 N   0  0  0  0  0  0  0  0  0  0  0  0
   -6.2386    0.0088   28.3459 C   0  0  0  0  0  0  0  0  0  0  0  0
   -1.4235   -4.3275   29.9110 C   0  0  0  0  0  0  0  0  0  0  0  0
   -8.7144   -2.6162   31.3907 C   0  0  0  0  0  0  0  0  0  0  0  0
   -5.2743   -5.3209   31.6713 C   0  0  0  0  0  0  0  0  0  0  0  0
   -2.0128   -3.1521   29.4174 C   0  0  0  0  0  0  0  0  0  0  0  0
   -7.6765   -3.5145   31.5391 C   0  0  0  0  0  0  0  0  0  0  0  0
   -3.3323   -2.9603   29.7101 C   0  0  0  0  0  0  0  0  0  0  0  0
   -7.4971   -1.3775   29.9352 C   0  0  0  0  0  0  0  0  0  0  0  0
   -6.5138   -3.2328   30.8353 C   0  0  0  0  0  0  0  0  0  0  0  0
   -4.0289   -3.9422   30.4510 C   0  0  0  0  0  0  0  0  0  0  0  0
   -5.3266   -4.1041   30.9819 C   0  0  0  0  0  0  0  0  0  0  0  0
   -8.1942    0.3256   29.0852 H   0  0  0  0  0  0  0  0  0  0  0  0
   -5.9737   -0.7958   27.6614 H   0  0  0  0  0  0  0  0  0  0  0  0
   -5.3591    0.1992   28.9589 H   0  0  0  0  0  0  0  0  0  0  0  0
   -6.4239    0.9004   27.7492 H   0  0  0  0  0  0  0  0  0  0  0  0
   -0.3760   -4.5693   29.7363 H   0  0  0  0  0  0  0  0  0  0  0  0
   -9.6622   -2.7419   31.9127 H   0  0  0  0  0  0  0  0  0  0  0  0
   -6.0846   -5.8016   32.2165 H   0  0  0  0  0  0  0  0  0  0  0  0
   -1.4315   -2.4402   28.8324 H   0  0  0  0  0  0  0  0  0  0  0  0
   -7.7814   -4.3906   32.1780 H   0  0  0  0  0  0  0  0  0  0  0  0
   -3.8728   -2.0710   29.3904 H   0  0  0  0  0  0  0  0  0  0  0  0
  1  6  1  0  0  0  0
  1  8  2  0  0  0  0
  2  6  1  0  0  0  0
  2 10  2  0  0  0  0
  3  9  1  0  0  0  0
  3 14  2  0  0  0  0
  4 14  1  0  0  0  0
  4 15  2  0  0  0  0
  5  7  1  0  0  0  0
  5 14  1  0  0  0  0
  5 18  1  0  0  0  0
  6 16  1  0  0  0  0
  7 19  1  0  0  0  0
  7 20  1  0  0  0  0
  7 21  1  0  0  0  0
  8 11  1  0  0  0  0
  8 22  1  0  0  0  0
  9 12  2  0  0  0  0
  9 23  1  0  0  0  0
 10 17  1  0  0  0  0
 10 24  1  0  0  0  0
 11 13  2  0  0  0  0
 11 25  1  0  0  0  0
 12 15  1  0  0  0  0
 12 26  1  0  0  0  0
 13 16  1  0  0  0  0
 13 27  1  0  0  0  0
 15 17  1  0  0  0  0
 16 17  2  0  0  0  0
M  END
> <pdb_id>
6S1B

> <uniprot_id>
Q13627

> <usmiles>
n1c(nccc1C2=C3N(N=C2)N=CC=C3)NC

$$$$
KRX_B_1201
          07202414463D 1   1.00000     0.00000     0
            
 50 52  0  0  0  0            999 V2000
   -7.7858  -11.7406   75.9814 F   0  0  0  0  0  0  0  0  0  0  0  0
   -9.1658  -10.8183   74.5283 F   0  0  0  0  0  0  0  0  0  0  0  0
   -7.6826  -12.3054   73.8469 F   0  0  0  0  0  0  0  0  0  0  0  0
   -4.1802   -6.3642   69.7685 O   0  0  0  0  0  0  0  0  0  0  0  0
   -3.5283   -4.6847   61.0047 O   0  0  0  0  0  0  0  0  0  0  0  0
   -4.0612   -6.0155   65.7201 N   0  0  0  0  0  0  0  0  0  0  0  0
   -5.3163   -8.4545   69.5439 N   0  0  0  0  0  0  0  0  0  0  0  0
   -6.4709   -9.9531   73.2642 N   0  0  0  0  0  0  0  0  0  0  0  0
   -4.9249   -4.4552   60.8943 C   0  0  0  0  0  0  0  0  0  0  0  0
   -4.3224   -6.1230   67.0262 C   0  0  0  0  0  0  0  0  0  0  0  0
   -5.1234   -9.4141   73.1851 C   0  0  0  0  0  0  0  0  0  0  0  0
   -7.3782   -8.9961   72.6466 C   0  0  0  0  0  0  0  0  0  0  0  0
   -6.8358  -10.1681   74.6347 C   0  0  0  0  0  0  0  0  0  0  0  0
   -3.0485   -8.2503   61.6034 C   0  0  0  0  0  0  0  0  0  0  0  0
   -4.7295   -9.5311   71.7227 C   0  0  0  0  0  0  0  0  0  0  0  0
   -7.0879   -9.0690   71.1535 C   0  0  0  0  0  0  0  0  0  0  0  0
   -3.1572   -7.0528   60.9304 C   0  0  0  0  0  0  0  0  0  0  0  0
   -3.2227   -8.2872   62.9626 C   0  0  0  0  0  0  0  0  0  0  0  0
   -3.7236   -8.4259   65.7371 C   0  0  0  0  0  0  0  0  0  0  0  0
   -4.0141   -8.5134   67.0806 C   0  0  0  0  0  0  0  0  0  0  0  0
   -3.5827   -5.9445   63.0130 C   0  0  0  0  0  0  0  0  0  0  0  0
   -4.6081   -7.3345   69.1354 C   0  0  0  0  0  0  0  0  0  0  0  0
   -3.4221   -5.9096   61.6499 C   0  0  0  0  0  0  0  0  0  0  0  0
   -5.6541   -8.6317   70.9398 C   0  0  0  0  0  0  0  0  0  0  0  0
   -3.7501   -7.1881   65.1084 C   0  0  0  0  0  0  0  0  0  0  0  0
   -4.3140   -7.3303   67.7093 C   0  0  0  0  0  0  0  0  0  0  0  0
   -3.4910   -7.1365   63.6893 C   0  0  0  0  0  0  0  0  0  0  0  0
   -7.8773  -11.2705   74.7230 C   0  0  0  0  0  0  0  0  0  0  0  0
   -5.5942   -9.1413   68.8723 H   0  0  0  0  0  0  0  0  0  0  0  0
   -5.0838   -3.5814   60.4347 H   0  0  0  0  0  0  0  0  0  0  0  0
   -5.3428   -5.1921   60.3630 H   0  0  0  0  0  0  0  0  0  0  0  0
   -5.3319   -4.4304   61.8074 H   0  0  0  0  0  0  0  0  0  0  0  0
   -4.5347   -5.2902   67.5375 H   0  0  0  0  0  0  0  0  0  0  0  0
   -4.4997   -9.9447   73.7593 H   0  0  0  0  0  0  0  0  0  0  0  0
   -5.1113   -8.4573   73.4756 H   0  0  0  0  0  0  0  0  0  0  0  0
   -7.2030   -8.0744   72.9925 H   0  0  0  0  0  0  0  0  0  0  0  0
   -8.3288   -9.2462   72.8308 H   0  0  0  0  0  0  0  0  0  0  0  0
   -7.2135   -9.3234   75.0141 H   0  0  0  0  0  0  0  0  0  0  0  0
   -6.0252  -10.4345   75.1562 H   0  0  0  0  0  0  0  0  0  0  0  0
   -2.8431   -9.0905   61.1014 H   0  0  0  0  0  0  0  0  0  0  0  0
   -4.8301  -10.4773   71.4152 H   0  0  0  0  0  0  0  0  0  0  0  0
   -3.7811   -9.2393   71.5986 H   0  0  0  0  0  0  0  0  0  0  0  0
   -7.7068   -8.4609   70.6564 H   0  0  0  0  0  0  0  0  0  0  0  0
   -7.2096  -10.0068   70.8285 H   0  0  0  0  0  0  0  0  0  0  0  0
   -3.0456   -7.0150   59.9374 H   0  0  0  0  0  0  0  0  0  0  0  0
   -3.1548   -9.1629   63.4407 H   0  0  0  0  0  0  0  0  0  0  0  0
   -3.4948   -9.2490   65.2174 H   0  0  0  0  0  0  0  0  0  0  0  0
   -4.0069   -9.3861   67.5687 H   0  0  0  0  0  0  0  0  0  0  0  0
   -3.7671   -5.0995   63.5150 H   0  0  0  0  0  0  0  0  0  0  0  0
   -5.5773   -7.7268   71.3584 H   0  0  0  0  0  0  0  0  0  0  0  0
  1 28  1  0  0  0  0
  2 28  1  0  0  0  0
  3 28  1  0  0  0  0
  4 22  2  0  0  0  0
  5  9  1  0  0  0  0
  5 23  1  0  0  0  0
  6 10  1  0  0  0  0
  6 25  2  0  0  0  0
  7 22  1  0  0  0  0
  7 24  1  0  0  0  0
  8 11  1  0  0  0  0
  8 12  1  0  0  0  0
  8 13  1  0  0  0  0
 10 26  2  0  0  0  0
 11 15  1  0  0  0  0
 12 16  1  0  0  0  0
 13 28  1  0  0  0  0
 14 17  2  0  0  0  0
 14 18  1  0  0  0  0
 15 24  1  0  0  0  0
 16 24  1  0  0  0  0
 17 23  1  0  0  0  0
 18 27  2  0  0  0  0
 19 20  2  0  0  0  0
 19 25  1  0  0  0  0
 20 26  1  0  0  0  0
 21 23  2  0  0  0  0
 21 27  1  0  0  0  0
 22 26  1  0  0  0  0
 25 27  1  0  0  0  0
  7 29  1  0  0  0  0
  9 30  1  0  0  0  0
  9 31  1  0  0  0  0
  9 32  1  0  0  0  0
 10 33  1  0  0  0  0
 11 34  1  0  0  0  0
 11 35  1  0  0  0  0
 12 36  1  0  0  0  0
 12 37  1  0  0  0  0
 13 38  1  0  0  0  0
 13 39  1  0  0  0  0
 14 40  1  0  0  0  0
 15 41  1  0  0  0  0
 15 42  1  0  0  0  0
 16 43  1  0  0  0  0
 16 44  1  0  0  0  0
 17 45  1  0  0  0  0
 18 46  1  0  0  0  0
 19 47  1  0  0  0  0
 20 48  1  0  0  0  0
 21 49  1  0  0  0  0
 24 50  1  0  0  0  0
M  END
> <pdb_id>
5AIX

> <uniprot_id>
O60760

> <usmiles>
FC(F)(F)CN1CCC(NC(=O)c2cnc(c3cc(OC)ccc3)cc2)CC1

$$$$
KS1_A_401
          07202417403D 1   1.00000     0.00000     0
            
 41 45  0  0  0  0            999 V2000
   -1.3290    4.4540   15.8140 N   0  0  0  0  0  0  0  0  0  0  0  0
   -0.6830    0.3720   17.3190 N   0  0  0  0  0  0  0  0  0  0  0  0
   -3.2050    3.3050   15.0870 N   0  0  0  0  0  0  0  0  0  0  0  0
   -3.6030    1.0070   15.5390 N   0  0  0  0  0  0  0  0  0  0  0  0
    4.2460    3.7570   18.8400 N   0  0  0  0  0  0  0  0  0  0  0  0
    2.2870    2.4110   19.3330 N   0  0  0  0  0  0  0  0  0  0  0  0
   -1.7870   -0.0720   16.8450 N   0  0  0  0  0  0  0  0  0  0  0  0
   -3.9910    2.1880   14.9840 C   0  0  0  0  0  0  0  0  0  0  0  0
    4.6580    4.4350   17.7560 C   0  0  0  0  0  0  0  0  0  0  0  0
    1.1120    1.9290   18.8530 C   0  0  0  0  0  0  0  0  0  0  0  0
   -2.0410   -3.8330   16.7790 C   0  0  0  0  0  0  0  0  0  0  0  0
   -2.7000   -3.4750   18.1310 C   0  0  0  0  0  0  0  0  0  0  0  0
    3.7300    4.3000   16.7250 C   0  0  0  0  0  0  0  0  0  0  0  0
   -1.9110   -2.5120   15.9920 C   0  0  0  0  0  0  0  0  0  0  0  0
   -3.0860   -1.9780   18.0610 C   0  0  0  0  0  0  0  0  0  0  0  0
    1.5160    3.0160   16.6930 C   0  0  0  0  0  0  0  0  0  0  0  0
   -2.0210    3.3030   15.7570 C   0  0  0  0  0  0  0  0  0  0  0  0
    3.0680    3.1830   18.5560 C   0  0  0  0  0  0  0  0  0  0  0  0
   -2.4210    0.9450   16.2070 C   0  0  0  0  0  0  0  0  0  0  0  0
   -1.9750   -1.4750   17.1250 C   0  0  0  0  0  0  0  0  0  0  0  0
   -0.5000    1.6620   17.0760 C   0  0  0  0  0  0  0  0  0  0  0  0
    0.6940    2.2390   17.5350 C   0  0  0  0  0  0  0  0  0  0  0  0
    2.7180    3.4990   17.2360 C   0  0  0  0  0  0  0  0  0  0  0  0
   -1.6060    2.0870   16.3370 C   0  0  0  0  0  0  0  0  0  0  0  0
   -0.4548    4.4884   16.2983 H   0  0  0  0  0  0  0  0  0  0  0  0
   -1.6884    5.2759   15.3721 H   0  0  0  0  0  0  0  0  0  0  0  0
    4.7344    3.6916   19.7101 H   0  0  0  0  0  0  0  0  0  0  0  0
   -4.8615    2.2407   14.4946 H   0  0  0  0  0  0  0  0  0  0  0  0
    5.5070    4.9601   17.6973 H   0  0  0  0  0  0  0  0  0  0  0  0
    0.5378    1.3515   19.4333 H   0  0  0  0  0  0  0  0  0  0  0  0
   -2.6140   -4.4800   16.2759 H   0  0  0  0  0  0  0  0  0  0  0  0
   -1.1381   -4.2352   16.9305 H   0  0  0  0  0  0  0  0  0  0  0  0
   -2.0549   -3.6291   18.8794 H   0  0  0  0  0  0  0  0  0  0  0  0
   -3.5165   -4.0343   18.2743 H   0  0  0  0  0  0  0  0  0  0  0  0
    3.7823    4.6971   15.8087 H   0  0  0  0  0  0  0  0  0  0  0  0
   -2.6658   -2.3952   15.3465 H   0  0  0  0  0  0  0  0  0  0  0  0
   -1.0415   -2.4633   15.5005 H   0  0  0  0  0  0  0  0  0  0  0  0
   -3.0448   -1.5395   18.9588 H   0  0  0  0  0  0  0  0  0  0  0  0
   -3.9952   -1.8450   17.6665 H   0  0  0  0  0  0  0  0  0  0  0  0
    1.2541    3.2149   15.7486 H   0  0  0  0  0  0  0  0  0  0  0  0
   -1.1513   -1.6920   17.6488 H   0  0  0  0  0  0  0  0  0  0  0  0
  1 17  1  0  0  0  0
  2  7  1  0  0  0  0
  2 21  2  0  0  0  0
  3  8  1  0  0  0  0
  3 17  2  0  0  0  0
  4  8  2  0  0  0  0
  4 19  1  0  0  0  0
  5  9  1  0  0  0  0
  5 18  1  0  0  0  0
  6 10  1  0  0  0  0
  6 18  2  0  0  0  0
  7 19  1  0  0  0  0
  7 20  1  0  0  0  0
  9 13  2  0  0  0  0
 10 22  2  0  0  0  0
 11 12  1  0  0  0  0
 11 14  1  0  0  0  0
 12 15  1  0  0  0  0
 13 23  1  0  0  0  0
 14 20  1  0  0  0  0
 15 20  1  0  0  0  0
 16 22  1  0  0  0  0
 16 23  2  0  0  0  0
 17 24  1  0  0  0  0
 18 23  1  0  0  0  0
 19 24  2  0  0  0  0
 21 22  1  0  0  0  0
 21 24  1  0  0  0  0
  1 25  1  0  0  0  0
  1 26  1  0  0  0  0
  5 27  1  0  0  0  0
  8 28  1  0  0  0  0
  9 29  1  0  0  0  0
 10 30  1  0  0  0  0
 11 31  1  0  0  0  0
 11 32  1  0  0  0  0
 12 33  1  0  0  0  0
 12 34  1  0  0  0  0
 13 35  1  0  0  0  0
 14 36  1  0  0  0  0
 14 37  1  0  0  0  0
 15 38  1  0  0  0  0
 15 39  1  0  0  0  0
 16 40  1  0  0  0  0
 20 41  1  0  0  0  0
M  END
> <pdb_id>
4QMW

> <uniprot_id>
Q9Y6E0

> <usmiles>
n1c2N(N=C(c2c(nc1)N)c3cnc4NC=Cc4c3)C5CCCC5

$$$$
KS8_A_701
          07202401113D 1   1.00000     0.00000     0
            
 64 66  0  0  0  0            999 V2000
   -0.8760  -15.8540  -23.4690 P   0  0  0  0  0  0  0  0  0  0  0  0
   -0.8640  -16.1980  -22.0140 O   0  0  0  0  0  0  0  0  0  0  0  0
   -1.1880  -17.0450  -24.3610 O   0  0  0  0  0  0  0  0  0  0  0  0
    3.2140  -11.6800  -22.9460 O   0  0  0  0  0  0  0  0  0  0  0  0
    2.9340  -10.8850  -20.9540 O   0  0  0  0  0  0  0  0  0  0  0  0
    0.3470  -13.0320  -22.5300 O   0  0  0  0  0  0  0  0  0  0  0  0
    2.3540  -14.1890  -22.2150 N   0  0  0  0  0  0  0  0  0  0  0  0
   -7.6040  -16.4650  -26.7050 C   0  0  0  0  0  0  0  0  0  0  0  0
   -7.5000  -15.0580  -26.8010 C   0  0  0  0  0  0  0  0  0  0  0  0
   -7.2120  -17.1070  -25.5540 C   0  0  0  0  0  0  0  0  0  0  0  0
   -6.9700  -14.3330  -25.7490 C   0  0  0  0  0  0  0  0  0  0  0  0
   -6.6820  -16.3800  -24.4880 C   0  0  0  0  0  0  0  0  0  0  0  0
   -2.1350  -14.4940  -23.6270 C   0  0  0  0  0  0  0  0  0  0  0  0
    0.6590  -14.9770  -23.9700 C   0  0  0  0  0  0  0  0  0  0  0  0
   -3.5930  -15.0500  -23.5320 C   0  0  0  0  0  0  0  0  0  0  0  0
    8.0960  -17.2550  -21.7690 C   0  0  0  0  0  0  0  0  0  0  0  0
   -4.5440  -13.7640  -23.5920 C   0  0  0  0  0  0  0  0  0  0  0  0
    7.5870  -16.5290  -20.5100 C   0  0  0  0  0  0  0  0  0  0  0  0
    6.9930  -17.5360  -22.7860 C   0  0  0  0  0  0  0  0  0  0  0  0
    3.2970  -15.2010  -22.5390 C   0  0  0  0  0  0  0  0  0  0  0  0
   -5.9920  -14.1660  -23.3580 C   0  0  0  0  0  0  0  0  0  0  0  0
    6.7230  -15.3030  -20.8550 C   0  0  0  0  0  0  0  0  0  0  0  0
    6.0980  -16.2970  -23.0300 C   0  0  0  0  0  0  0  0  0  0  0  0
    4.1310  -13.8430  -20.7120 C   0  0  0  0  0  0  0  0  0  0  0  0
    3.0250  -11.8560  -21.6790 C   0  0  0  0  0  0  0  0  0  0  0  0
    1.0680  -13.9750  -22.8700 C   0  0  0  0  0  0  0  0  0  0  0  0
   -6.5700  -14.9940  -24.5840 C   0  0  0  0  0  0  0  0  0  0  0  0
    2.9350  -13.2550  -21.1040 C   0  0  1  0  0  0  0  0  0  0  0  0
    5.5480  -15.7280  -21.7100 C   0  0  0  0  0  0  0  0  0  0  0  0
    4.6270  -14.6250  -21.9700 C   0  0  1  0  0  0  0  0  0  0  0  0
   -7.9360  -16.9580  -27.4210 H   0  0  0  0  0  0  0  0  0  0  0  0
   -7.7880  -14.6200  -27.5690 H   0  0  0  0  0  0  0  0  0  0  0  0
   -7.3010  -18.0300  -25.4850 H   0  0  0  0  0  0  0  0  0  0  0  0
   -6.8810  -13.4100  -25.8160 H   0  0  0  0  0  0  0  0  0  0  0  0
   -6.4040  -16.8190  -23.7160 H   0  0  0  0  0  0  0  0  0  0  0  0
   -2.0200  -14.0530  -24.4830 H   0  0  0  0  0  0  0  0  0  0  0  0
   -1.9950  -13.8490  -22.9160 H   0  0  0  0  0  0  0  0  0  0  0  0
    0.5030  -14.5010  -24.8010 H   0  0  0  0  0  0  0  0  0  0  0  0
    1.3710  -15.6220  -24.1030 H   0  0  0  0  0  0  0  0  0  0  0  0
   -3.7210  -15.5310  -22.7000 H   0  0  0  0  0  0  0  0  0  0  0  0
   -3.7790  -15.6480  -24.2720 H   0  0  0  0  0  0  0  0  0  0  0  0
    8.4920  -18.0980  -21.5000 H   0  0  0  0  0  0  0  0  0  0  0  0
    8.7730  -16.7030  -22.1910 H   0  0  0  0  0  0  0  0  0  0  0  0
   -4.2720  -13.1310  -22.9100 H   0  0  0  0  0  0  0  0  0  0  0  0
   -4.4640  -13.3460  -24.4640 H   0  0  0  0  0  0  0  0  0  0  0  0
    8.3500  -16.2370  -19.9870 H   0  0  0  0  0  0  0  0  0  0  0  0
    7.0560  -17.1480  -19.9850 H   0  0  0  0  0  0  0  0  0  0  0  0
    6.4380  -18.2610  -22.4570 H   0  0  0  0  0  0  0  0  0  0  0  0
    7.3980  -17.7990  -23.6270 H   0  0  0  0  0  0  0  0  0  0  0  0
    3.0710  -16.0370  -22.1030 H   0  0  0  0  0  0  0  0  0  0  0  0
    3.3590  -15.3200  -23.5000 H   0  0  0  0  0  0  0  0  0  0  0  0
   -6.0440  -14.7080  -22.5550 H   0  0  0  0  0  0  0  0  0  0  0  0
   -6.5260  -13.3660  -23.2330 H   0  0  0  0  0  0  0  0  0  0  0  0
    7.2580  -14.6550  -21.3390 H   0  0  0  0  0  0  0  0  0  0  0  0
    6.3960  -14.8970  -20.0360 H   0  0  0  0  0  0  0  0  0  0  0  0
    5.3550  -16.5510  -23.5990 H   0  0  0  0  0  0  0  0  0  0  0  0
    6.6210  -15.6120  -23.4760 H   0  0  0  0  0  0  0  0  0  0  0  0
    4.7770  -13.1620  -20.4650 H   0  0  0  0  0  0  0  0  0  0  0  0
    3.9810  -14.4560  -19.9760 H   0  0  0  0  0  0  0  0  0  0  0  0
    2.3940  -13.2180  -20.3000 H   0  0  0  0  0  0  0  0  0  0  0  0
    5.0180  -16.3590  -21.1990 H   0  0  0  0  0  0  0  0  0  0  0  0
    5.0910  -14.0040  -22.5530 H   0  0  0  0  0  0  0  0  0  0  0  0
   -0.6542  -15.3792  -21.4796 H   0  0  0  0  0  0  0  0  0  0  0  0
    3.2908  -12.4698  -23.5545 H   0  0  0  0  0  0  0  0  0  0  0  0
  1  2  1  0  0  0  0
  1  3  2  0  0  0  0
  1 13  1  0  0  0  0
  1 14  1  0  0  0  0
  4 25  1  0  0  0  0
  5 25  2  0  0  0  0
  6 26  2  0  0  0  0
  7 20  1  0  0  0  0
  7 26  1  0  0  0  0
  7 28  1  0  0  0  0
  8  9  2  0  0  0  0
  8 10  1  0  0  0  0
  8 31  1  0  0  0  0
  9 11  1  0  0  0  0
  9 32  1  0  0  0  0
 10 12  2  0  0  0  0
 10 33  1  0  0  0  0
 11 27  2  0  0  0  0
 11 34  1  0  0  0  0
 12 27  1  0  0  0  0
 12 35  1  0  0  0  0
 13 15  1  0  0  0  0
 13 36  1  0  0  0  0
 13 37  1  0  0  0  0
 14 26  1  0  0  0  0
 14 38  1  0  0  0  0
 14 39  1  0  0  0  0
 15 17  1  0  0  0  0
 15 40  1  0  0  0  0
 15 41  1  0  0  0  0
 16 18  1  0  0  0  0
 16 19  1  0  0  0  0
 16 42  1  0  0  0  0
 16 43  1  0  0  0  0
 17 21  1  0  0  0  0
 17 44  1  0  0  0  0
 17 45  1  0  0  0  0
 18 22  1  0  0  0  0
 18 46  1  0  0  0  0
 18 47  1  0  0  0  0
 19 23  1  0  0  0  0
 19 48  1  0  0  0  0
 19 49  1  0  0  0  0
 20 30  1  0  0  0  0
 20 50  1  0  0  0  0
 20 51  1  0  0  0  0
 21 27  1  0  0  0  0
 21 52  1  0  0  0  0
 21 53  1  0  0  0  0
 22 29  1  0  0  0  0
 22 54  1  0  0  0  0
 22 55  1  0  0  0  0
 23 29  1  0  0  0  0
 23 56  1  0  0  0  0
 23 57  1  0  0  0  0
 24 28  1  0  0  0  0
 24 30  1  0  0  0  0
 24 58  1  0  0  0  0
 24 59  1  0  0  0  0
 25 28  1  0  0  0  0
 28 60  1  0  0  0  0
 29 30  1  0  0  0  0
 29 61  1  0  0  0  0
 30 62  1  0  0  0  0
  2 63  1  0  0  0  0
  4 64  1  0  0  0  0
M  END
> <pdb_id>
7Z6Z

> <uniprot_id>
P12821

> <usmiles>
P(=O)(O)(CC(=O)N1[C@H](C(=O)O)C[C@@H](C2CCCCC2)C1)CCCCc3ccccc3

$$$$
KSF_A_513
          07202400393D 1   1.00000     0.00000     0
            
 36 39  0  0  0  0            999 V2000
   21.0260   38.7930    5.5230 Cl  0  0  0  0  0  0  0  0  0  0  0  0
   24.7490   38.8040   10.0580 N   0  0  0  0  0  0  0  0  0  0  0  0
   22.5580   35.9240    7.3000 N   0  0  0  0  0  0  0  0  0  0  0  0
   20.9410   37.4200    8.2520 N   0  0  0  0  0  0  0  0  0  0  0  0
   24.6570   37.1220    8.6590 N   0  0  0  0  0  0  0  0  0  0  0  0
   25.4730   37.8770    9.4050 C   0  0  0  0  0  0  0  0  0  0  0  0
   23.4480   38.6800    9.7420 C   0  0  0  0  0  0  0  0  0  0  0  0
   23.8240   35.5040    7.1780 C   0  0  0  0  0  0  0  0  0  0  0  0
   28.7480   34.2180    7.0070 C   0  0  0  0  0  0  0  0  0  0  0  0
   17.7400   36.3630    5.7350 C   0  0  0  0  0  0  0  0  0  0  0  0
   27.8090   34.3590    5.9770 C   0  0  0  0  0  0  0  0  0  0  0  0
   28.4340   34.6650    8.3160 C   0  0  0  0  0  0  0  0  0  0  0  0
   17.8480   35.8400    7.0300 C   0  0  0  0  0  0  0  0  0  0  0  0
   18.6960   37.2730    5.2550 C   0  0  0  0  0  0  0  0  0  0  0  0
   18.9030   36.1690    7.8910 C   0  0  0  0  0  0  0  0  0  0  0  0
   26.5700   34.9720    6.2700 C   0  0  0  0  0  0  0  0  0  0  0  0
   27.2020   35.2850    8.5870 C   0  0  0  0  0  0  0  0  0  0  0  0
   22.2390   36.9710    8.0930 C   0  0  0  0  0  0  0  0  0  0  0  0
   19.7750   37.6240    6.0760 C   0  0  0  0  0  0  0  0  0  0  0  0
   19.8820   37.0660    7.4570 C   0  0  0  0  0  0  0  0  0  0  0  0
   23.3870   37.5920    8.8160 C   0  0  0  0  0  0  0  0  0  0  0  0
   24.9000   36.0750    7.8280 C   0  0  0  0  0  0  0  0  0  0  0  0
   26.2600   35.4610    7.5660 C   0  0  0  0  0  0  0  0  0  0  0  0
   20.7608   38.0522    9.0056 H   0  0  0  0  0  0  0  0  0  0  0  0
   26.4652   37.7688    9.4671 H   0  0  0  0  0  0  0  0  0  0  0  0
   22.6858   39.2309   10.0819 H   0  0  0  0  0  0  0  0  0  0  0  0
   24.0016   34.7253    6.5763 H   0  0  0  0  0  0  0  0  0  0  0  0
   29.6383   33.8029    6.8197 H   0  0  0  0  0  0  0  0  0  0  0  0
   16.9781   36.0869    5.1491 H   0  0  0  0  0  0  0  0  0  0  0  0
   28.0113   34.0326    5.0537 H   0  0  0  0  0  0  0  0  0  0  0  0
   29.0964   34.5376    9.0542 H   0  0  0  0  0  0  0  0  0  0  0  0
   17.1443   35.2069    7.3526 H   0  0  0  0  0  0  0  0  0  0  0  0
   18.6075   37.6651    4.3393 H   0  0  0  0  0  0  0  0  0  0  0  0
   18.9546   35.7667    8.8050 H   0  0  0  0  0  0  0  0  0  0  0  0
   25.8907   35.0641    5.5419 H   0  0  0  0  0  0  0  0  0  0  0  0
   26.9973   35.6018    9.5131 H   0  0  0  0  0  0  0  0  0  0  0  0
  1 19  1  0  0  0  0
  2  6  2  0  0  0  0
  2  7  1  0  0  0  0
  3  8  1  0  0  0  0
  3 18  2  0  0  0  0
  4 18  1  0  0  0  0
  4 20  1  0  0  0  0
  5  6  1  0  0  0  0
  5 21  1  0  0  0  0
  5 22  1  0  0  0  0
  7 21  2  0  0  0  0
  8 22  2  0  0  0  0
  9 11  2  0  0  0  0
  9 12  1  0  0  0  0
 10 13  2  0  0  0  0
 10 14  1  0  0  0  0
 11 16  1  0  0  0  0
 12 17  2  0  0  0  0
 13 15  1  0  0  0  0
 14 19  2  0  0  0  0
 15 20  2  0  0  0  0
 16 23  2  0  0  0  0
 17 23  1  0  0  0  0
 18 21  1  0  0  0  0
 19 20  1  0  0  0  0
 22 23  1  0  0  0  0
  4 24  1  0  0  0  0
  6 25  1  0  0  0  0
  7 26  1  0  0  0  0
  8 27  1  0  0  0  0
  9 28  1  0  0  0  0
 10 29  1  0  0  0  0
 11 30  1  0  0  0  0
 12 31  1  0  0  0  0
 13 32  1  0  0  0  0
 14 33  1  0  0  0  0
 15 34  1  0  0  0  0
 16 35  1  0  0  0  0
 17 36  1  0  0  0  0
M  END
> <pdb_id>
2ZM1

> <uniprot_id>
P06239

> <usmiles>
Clc1c(NC2=NC=C(N3C2=CN=C3)c4ccccc4)cccc1

$$$$
KTL_A_1001
          07192422103D 1   1.00000     0.00000     0
            
 50 50  0  0  0  0            999 V2000
   43.6850   93.2260   34.1880 S   0  0  0  0  0  0  0  0  0  0  0  0
   43.6610   88.2370   35.9660 S   0  0  0  0  0  0  0  0  0  0  0  0
   44.5600   87.0970   35.6750 O   0  0  0  0  0  0  0  0  0  0  0  0
   44.5260   89.2810   36.5710 O   0  0  0  0  0  0  0  0  0  0  0  0
   42.5550   87.8370   36.8560 O   0  0  0  0  0  0  0  0  0  0  0  0
   42.3740   95.5410   36.1280 O   0  0  0  0  0  0  0  0  0  0  0  0
   41.2250   84.1420   30.7670 O   0  0  0  0  0  0  0  0  0  0  0  0
   47.0100   95.2460   33.9250 O   0  0  0  0  0  0  0  0  0  0  0  0
   43.6380   86.1190   30.1980 O   0  0  0  0  0  0  0  0  0  0  0  0
   44.0500   90.9670   31.9570 O   0  0  0  0  0  0  0  0  0  0  0  0
   45.9980   95.0850   36.6570 O   0  0  0  0  0  0  0  0  0  0  0  0
   44.4430   86.3190   32.7790 O   0  0  0  0  0  0  0  0  0  0  0  0
   41.6830   88.6680   32.1340 O   0  0  0  0  0  0  0  0  0  0  0  0
   42.9120   88.7710   34.6240 O   0  0  0  0  0  0  0  0  0  0  0  0
   45.0260   93.7360   33.3090 C   0  0  0  0  0  0  0  0  0  0  0  0
   43.8750   91.5530   34.3490 C   0  0  0  0  0  0  0  0  0  0  0  0
   42.9840   94.3280   36.6010 C   0  0  0  0  0  0  0  0  0  0  0  0
   42.3750   84.5210   31.5580 C   0  0  0  0  0  0  0  0  0  0  0  0
   44.1090   93.7960   35.7210 C   0  0  2  0  0  0  0  0  0  0  0  0
   46.0260   94.2700   34.3540 C   0  0  2  0  0  0  0  0  0  0  0  0
   42.6660   86.0020   31.2440 C   0  0  1  0  0  0  0  0  0  0  0  0
   43.4240   90.6320   33.1980 C   0  0  2  0  0  0  0  0  0  0  0  0
   45.2010   94.8470   35.4960 C   0  0  2  0  0  0  0  0  0  0  0  0
   43.1210   86.7560   32.4950 C   0  0  2  0  0  0  0  0  0  0  0  0
   43.0560   88.2840   32.3160 C   0  0  2  0  0  0  0  0  0  0  0  0
   43.6420   89.1290   33.4620 C   0  0  2  0  0  0  0  0  0  0  0  0
   44.0332   86.3540   35.2622 H   0  0  0  0  0  0  0  0  0  0  0  0
   41.6506   95.8187   36.7600 H   0  0  0  0  0  0  0  0  0  0  0  0
   41.0015   83.1831   30.9419 H   0  0  0  0  0  0  0  0  0  0  0  0
   47.5871   95.5007   34.7009 H   0  0  0  0  0  0  0  0  0  0  0  0
   43.8115   87.0859   30.0108 H   0  0  0  0  0  0  0  0  0  0  0  0
   43.7282   90.3454   31.2428 H   0  0  0  0  0  0  0  0  0  0  0  0
   46.6900   95.7766   36.4502 H   0  0  0  0  0  0  0  0  0  0  0  0
   44.7816   86.7892   33.5940 H   0  0  0  0  0  0  0  0  0  0  0  0
   41.6269   89.6595   32.0164 H   0  0  0  0  0  0  0  0  0  0  0  0
   45.1486   93.7003   32.3172 H   0  0  0  0  0  0  0  0  0  0  0  0
   43.3622   91.2774   35.1621 H   0  0  0  0  0  0  0  0  0  0  0  0
   44.8493   91.3821   34.4956 H   0  0  0  0  0  0  0  0  0  0  0  0
   42.2752   93.6250   36.6594 H   0  0  0  0  0  0  0  0  0  0  0  0
   43.3570   94.5017   37.5124 H   0  0  0  0  0  0  0  0  0  0  0  0
   43.1627   83.9561   31.3122 H   0  0  0  0  0  0  0  0  0  0  0  0
   42.1750   84.4087   32.5313 H   0  0  0  0  0  0  0  0  0  0  0  0
   44.5310   93.0338   36.2119 H   0  0  0  0  0  0  0  0  0  0  0  0
   46.5259   93.4833   34.7163 H   0  0  0  0  0  0  0  0  0  0  0  0
   41.8167   86.4215   30.9235 H   0  0  0  0  0  0  0  0  0  0  0  0
   42.4408   90.7702   33.0784 H   0  0  0  0  0  0  0  0  0  0  0  0
   44.7802   95.7048   35.2009 H   0  0  0  0  0  0  0  0  0  0  0  0
   42.5279   86.4977   33.2576 H   0  0  0  0  0  0  0  0  0  0  0  0
   43.5525   88.5159   31.4795 H   0  0  0  0  0  0  0  0  0  0  0  0
   44.6147   88.9308   33.5830 H   0  0  0  0  0  0  0  0  0  0  0  0
  1 15  2  0  0  0  0
  1 16  1  0  0  0  0
  1 19  1  0  0  0  0
  2  3  1  0  0  0  0
  2  4  2  0  0  0  0
  2  5  2  0  0  0  0
  2 14  1  0  0  0  0
  6 17  1  0  0  0  0
  7 18  1  0  0  0  0
  8 20  1  0  0  0  0
  9 21  1  0  0  0  0
 10 22  1  0  0  0  0
 11 23  1  0  0  0  0
 12 24  1  0  0  0  0
 13 25  1  0  0  0  0
 14 26  1  0  0  0  0
 15 20  1  0  0  0  0
 16 22  1  0  0  0  0
 17 19  1  0  0  0  0
 18 21  1  0  0  0  0
 19 23  1  0  0  0  0
 20 23  1  0  0  0  0
 21 24  1  0  0  0  0
 22 26  1  0  0  0  0
 24 25  1  0  0  0  0
 25 26  1  0  0  0  0
  3 27  1  0  0  0  0
  6 28  1  0  0  0  0
  7 29  1  0  0  0  0
  8 30  1  0  0  0  0
  9 31  1  0  0  0  0
 10 32  1  0  0  0  0
 11 33  1  0  0  0  0
 12 34  1  0  0  0  0
 13 35  1  0  0  0  0
 15 36  1  0  0  0  0
 16 37  1  0  0  0  0
 16 38  1  0  0  0  0
 17 39  1  0  0  0  0
 17 40  1  0  0  0  0
 18 41  1  0  0  0  0
 18 42  1  0  0  0  0
 19 43  1  0  0  0  0
 20 44  1  0  0  0  0
 21 45  1  0  0  0  0
 22 46  1  0  0  0  0
 23 47  1  0  0  0  0
 24 48  1  0  0  0  0
 25 49  1  0  0  0  0
 26 50  1  0  0  0  0
M  END
> <pdb_id>
3L4V

> <uniprot_id>
O43451

> <usmiles>
S1(=C[C@@H](O)[C@H](O)[C@H]1CO)C[C@@H](O)[C@@H](OS(=O)(=O)O)[C@H](O)[C@H](O)[C@@H](O)CO

$$$$
KU3_C_301
          07202411413D 1   1.00000     0.00000     0
            
 42 45  0  0  0  0            999 V2000
  -34.7350   91.3950   17.4530 F   0  0  0  0  0  0  0  0  0  0  0  0
  -32.7980   89.6320   24.7060 O   0  0  0  0  0  0  0  0  0  0  0  0
  -30.2200   91.3740   25.0640 O   0  0  0  0  0  0  0  0  0  0  0  0
  -26.5940   88.4550   25.3370 O   0  0  0  0  0  0  0  0  0  0  0  0
  -26.2250   89.6470   25.8330 N   0  0  0  0  0  0  0  0  0  0  0  0
  -32.2700   89.4970   22.5410 N   0  0  0  0  0  0  0  0  0  0  0  0
  -28.7670   85.4830   22.8450 C   0  0  0  0  0  0  0  0  0  0  0  0
  -28.6210   85.3000   25.3490 C   0  0  0  0  0  0  0  0  0  0  0  0
  -27.2200   90.5380   25.7840 C   0  0  0  0  0  0  0  0  0  0  0  0
  -31.3320   89.3500   21.4330 C   0  0  0  0  0  0  0  0  0  0  0  0
  -33.6160   89.7690   22.0610 C   0  0  0  0  0  0  0  0  0  0  0  0
  -32.5110   90.6680   17.9880 C   0  0  0  0  0  0  0  0  0  0  0  0
  -31.6180   90.1690   18.9260 C   0  0  0  0  0  0  0  0  0  0  0  0
  -34.2810   90.6390   19.6370 C   0  0  0  0  0  0  0  0  0  0  0  0
  -30.0060   87.8330   24.0260 C   0  0  0  0  0  0  0  0  0  0  0  0
  -33.8350   90.9000   18.3520 C   0  0  0  0  0  0  0  0  0  0  0  0
  -31.9310   89.4460   23.9180 C   0  0  0  0  0  0  0  0  0  0  0  0
  -29.6800   90.1060   24.8520 C   0  0  0  0  0  0  0  0  0  0  0  0
  -27.8650   88.4990   24.9400 C   0  0  0  0  0  0  0  0  0  0  0  0
  -28.1860   86.1060   24.1140 C   0  0  0  0  0  0  0  0  0  0  0  0
  -32.0780   89.9090   20.2390 C   0  0  0  0  0  0  0  0  0  0  0  0
  -33.3820   90.1340   20.5830 C   0  0  0  0  0  0  0  0  0  0  0  0
  -28.3470   89.7890   25.1800 C   0  0  0  0  0  0  0  0  0  0  0  0
  -30.4970   89.1330   24.2840 C   0  0  0  0  0  0  0  0  0  0  0  0
  -28.7060   87.5200   24.3500 C   0  0  0  0  0  0  0  0  0  0  0  0
  -31.1712   91.5599   24.8178 H   0  0  0  0  0  0  0  0  0  0  0  0
  -28.4774   86.0154   22.0496 H   0  0  0  0  0  0  0  0  0  0  0  0
  -28.4383   84.5429   22.7545 H   0  0  0  0  0  0  0  0  0  0  0  0
  -29.7655   85.4831   22.9006 H   0  0  0  0  0  0  0  0  0  0  0  0
  -28.2351   85.7169   26.1720 H   0  0  0  0  0  0  0  0  0  0  0  0
  -29.6190   85.2995   25.4122 H   0  0  0  0  0  0  0  0  0  0  0  0
  -28.2918   84.3594   25.2661 H   0  0  0  0  0  0  0  0  0  0  0  0
  -27.2069   91.4913   26.0857 H   0  0  0  0  0  0  0  0  0  0  0  0
  -31.1015   88.3877   21.2886 H   0  0  0  0  0  0  0  0  0  0  0  0
  -30.4958   89.8709   21.6046 H   0  0  0  0  0  0  0  0  0  0  0  0
  -34.0293   90.5311   22.5594 H   0  0  0  0  0  0  0  0  0  0  0  0
  -34.1988   88.9607   22.1448 H   0  0  0  0  0  0  0  0  0  0  0  0
  -32.2052   90.8600   17.0555 H   0  0  0  0  0  0  0  0  0  0  0  0
  -30.6648   89.9959   18.6781 H   0  0  0  0  0  0  0  0  0  0  0  0
  -35.2344   90.8095   19.8859 H   0  0  0  0  0  0  0  0  0  0  0  0
  -30.6002   87.1445   23.6102 H   0  0  0  0  0  0  0  0  0  0  0  0
  -27.1878   86.1198   24.0556 H   0  0  0  0  0  0  0  0  0  0  0  0
  1 16  1  0  0  0  0
  2 17  2  0  0  0  0
  3 18  1  0  0  0  0
  4  5  1  0  0  0  0
  4 19  1  0  0  0  0
  5  9  2  0  0  0  0
  6 10  1  0  0  0  0
  6 11  1  0  0  0  0
  6 17  1  0  0  0  0
  7 20  1  0  0  0  0
  8 20  1  0  0  0  0
  9 23  1  0  0  0  0
 10 21  1  0  0  0  0
 11 22  1  0  0  0  0
 12 13  1  0  0  0  0
 12 16  2  0  0  0  0
 13 21  2  0  0  0  0
 14 16  1  0  0  0  0
 14 22  2  0  0  0  0
 15 24  2  0  0  0  0
 15 25  1  0  0  0  0
 17 24  1  0  0  0  0
 18 23  2  0  0  0  0
 18 24  1  0  0  0  0
 19 23  1  0  0  0  0
 19 25  2  0  0  0  0
 20 25  1  0  0  0  0
 21 22  1  0  0  0  0
  3 26  1  0  0  0  0
  7 27  1  0  0  0  0
  7 28  1  0  0  0  0
  7 29  1  0  0  0  0
  8 30  1  0  0  0  0
  8 31  1  0  0  0  0
  8 32  1  0  0  0  0
  9 33  1  0  0  0  0
 10 34  1  0  0  0  0
 10 35  1  0  0  0  0
 11 36  1  0  0  0  0
 11 37  1  0  0  0  0
 12 38  1  0  0  0  0
 13 39  1  0  0  0  0
 14 40  1  0  0  0  0
 15 41  1  0  0  0  0
 20 42  1  0  0  0  0
M  END
> <pdb_id>
5UCJ

> <uniprot_id>
P08238

> <usmiles>
Fc1cc2c(cc1)CN(C(=O)c3c(O)c4c(ON=C4)c(c3)C(C)C)C2

$$$$
KUA_B_2202
          07202417183D 1   1.00000     0.00000     0
            
 50 54  0  0  0  0            999 V2000
  -12.3837  -14.4790   22.9177 O   0  0  0  0  0  0  0  0  0  0  0  0
   -5.6392  -14.9787   23.9563 O   0  0  0  0  0  0  0  0  0  0  0  0
   -7.1800  -17.1011   25.9478 O   0  0  0  0  0  0  0  0  0  0  0  0
  -10.9653   -7.9246   19.6903 O   0  0  0  0  0  0  0  0  0  0  0  0
  -12.1792   -7.4510   21.4442 N   0  0  0  0  0  0  0  0  0  0  0  0
  -10.2219  -14.5494   22.3280 N   0  0  0  0  0  0  0  0  0  0  0  0
   -7.8529  -15.2009   23.6314 N   0  0  0  0  0  0  0  0  0  0  0  0
  -10.0803  -15.9482   22.7305 C   0  0  0  0  0  0  0  0  0  0  0  0
   -8.9619  -13.9880   21.8159 C   0  0  0  0  0  0  0  0  0  0  0  0
   -9.0608  -16.0429   23.8523 C   0  0  0  0  0  0  0  0  0  0  0  0
   -8.0084  -13.8748   23.0026 C   0  0  0  0  0  0  0  0  0  0  0  0
  -11.0185   -4.2947   19.0855 C   0  0  0  0  0  0  0  0  0  0  0  0
  -11.7955   -3.9875   20.1923 C   0  0  0  0  0  0  0  0  0  0  0  0
  -10.6926   -5.5996   18.8141 C   0  0  0  0  0  0  0  0  0  0  0  0
  -12.2437   -4.9593   21.0507 C   0  0  0  0  0  0  0  0  0  0  0  0
  -11.0006  -12.0872   20.7279 C   0  0  0  0  0  0  0  0  0  0  0  0
  -12.0531  -11.5032   22.8158 C   0  0  0  0  0  0  0  0  0  0  0  0
  -11.0452  -10.7735   20.2987 C   0  0  0  0  0  0  0  0  0  0  0  0
  -12.0977  -10.1916   22.4095 C   0  0  0  0  0  0  0  0  0  0  0  0
   -5.2257  -17.8130   24.4941 C   0  0  0  0  0  0  0  0  0  0  0  0
   -6.5067  -18.2195   23.7703 C   0  0  0  0  0  0  0  0  0  0  0  0
  -11.4188  -13.8923   22.4392 C   0  0  0  0  0  0  0  0  0  0  0  0
  -11.6169   -8.4086   20.7655 C   0  0  0  0  0  0  0  0  0  0  0  0
   -6.6414  -15.6418   24.0685 C   0  0  0  0  0  0  0  0  0  0  0  0
  -11.1308   -6.5994   19.6785 C   0  0  0  0  0  0  0  0  0  0  0  0
  -11.9129   -6.2853   20.8073 C   0  0  0  0  0  0  0  0  0  0  0  0
  -11.5071  -12.4726   21.9879 C   0  0  0  0  0  0  0  0  0  0  0  0
  -11.6083   -9.8252   21.1504 C   0  0  0  0  0  0  0  0  0  0  0  0
   -6.5089  -16.9999   24.7061 C   0  0  0  0  0  0  0  0  0  0  0  0
   -7.9925  -16.5183   25.9360 H   0  0  0  0  0  0  0  0  0  0  0  0
   -9.7707  -16.4913   21.9501 H   0  0  0  0  0  0  0  0  0  0  0  0
  -10.9622  -16.2955   23.0495 H   0  0  0  0  0  0  0  0  0  0  0  0
   -9.1247  -13.0847   21.4188 H   0  0  0  0  0  0  0  0  0  0  0  0
   -8.5741  -14.5928   21.1203 H   0  0  0  0  0  0  0  0  0  0  0  0
   -9.4984  -15.7514   24.7029 H   0  0  0  0  0  0  0  0  0  0  0  0
   -8.7708  -16.9963   23.9364 H   0  0  0  0  0  0  0  0  0  0  0  0
   -7.1178  -13.5488   22.6857 H   0  0  0  0  0  0  0  0  0  0  0  0
   -8.3811  -13.2302   23.6702 H   0  0  0  0  0  0  0  0  0  0  0  0
  -10.6952   -3.5640   18.4843 H   0  0  0  0  0  0  0  0  0  0  0  0
  -12.0354   -3.0330   20.3693 H   0  0  0  0  0  0  0  0  0  0  0  0
  -10.1483   -5.8292   18.0073 H   0  0  0  0  0  0  0  0  0  0  0  0
  -12.8026   -4.7151   21.8431 H   0  0  0  0  0  0  0  0  0  0  0  0
  -10.5995  -12.7817   20.1307 H   0  0  0  0  0  0  0  0  0  0  0  0
  -12.4156  -11.7599   23.7117 H   0  0  0  0  0  0  0  0  0  0  0  0
  -10.6841  -10.5117   19.4036 H   0  0  0  0  0  0  0  0  0  0  0  0
  -12.4817   -9.4954   23.0161 H   0  0  0  0  0  0  0  0  0  0  0  0
   -4.4646  -17.4191   23.9787 H   0  0  0  0  0  0  0  0  0  0  0  0
   -4.8679  -18.3829   25.2337 H   0  0  0  0  0  0  0  0  0  0  0  0
   -6.9877  -19.0548   24.0367 H   0  0  0  0  0  0  0  0  0  0  0  0
   -6.5844  -18.0910   22.7816 H   0  0  0  0  0  0  0  0  0  0  0  0
  1 22  2  0  0  0  0
  2 24  2  0  0  0  0
  3 29  1  0  0  0  0
  4 23  1  0  0  0  0
  4 25  1  0  0  0  0
  5 23  2  0  0  0  0
  5 26  1  0  0  0  0
  6  8  1  0  0  0  0
  6  9  1  0  0  0  0
  6 22  1  0  0  0  0
  7 10  1  0  0  0  0
  7 11  1  0  0  0  0
  7 24  1  0  0  0  0
  8 10  1  0  0  0  0
  9 11  1  0  0  0  0
 12 13  2  0  0  0  0
 12 14  1  0  0  0  0
 13 15  1  0  0  0  0
 14 25  2  0  0  0  0
 15 26  2  0  0  0  0
 16 18  1  0  0  0  0
 16 27  2  0  0  0  0
 17 19  2  0  0  0  0
 17 27  1  0  0  0  0
 18 28  2  0  0  0  0
 19 28  1  0  0  0  0
 20 21  1  0  0  0  0
 20 29  1  0  0  0  0
 21 29  1  0  0  0  0
 22 27  1  0  0  0  0
 23 28  1  0  0  0  0
 24 29  1  0  0  0  0
 25 26  1  0  0  0  0
  3 30  1  0  0  0  0
  8 31  1  0  0  0  0
  8 32  1  0  0  0  0
  9 33  1  0  0  0  0
  9 34  1  0  0  0  0
 10 35  1  0  0  0  0
 10 36  1  0  0  0  0
 11 37  1  0  0  0  0
 11 38  1  0  0  0  0
 12 39  1  0  0  0  0
 13 40  1  0  0  0  0
 14 41  1  0  0  0  0
 15 42  1  0  0  0  0
 16 43  1  0  0  0  0
 17 44  1  0  0  0  0
 18 45  1  0  0  0  0
 19 46  1  0  0  0  0
 20 47  1  0  0  0  0
 20 48  1  0  0  0  0
 21 49  1  0  0  0  0
 21 50  1  0  0  0  0
M  END
> <pdb_id>
6NNA

> <uniprot_id>
P49327

> <usmiles>
O=C(N1CCN(C(=O)C2(O)CC2)CC1)c3ccc(cc3)C=4Oc5c(N4)cccc5

$$$$
KUP_B_203
          07202411363D 1   1.00000     0.00000     0
            
 35 36  0  0  0  0            999 V2000
   -1.9233    4.2381   12.7302 O   0  0  0  0  0  0  0  0  0  0  0  0
   -0.9060    1.9601   11.6175 O   0  0  0  0  0  0  0  0  0  0  0  0
   -5.0304   -4.5769   15.7147 N   0  0  0  0  0  0  0  0  0  0  0  0
   -7.2407   -2.5419   11.9813 N   0  0  0  0  0  0  0  0  0  0  0  0
   -4.2378   -2.4620   14.9033 N   0  0  0  0  0  0  0  0  0  0  0  0
   -6.0743   -3.5207   13.8621 N   0  0  0  0  0  0  0  0  0  0  0  0
   -2.5274    5.4529   13.1207 C   0  0  0  0  0  0  0  0  0  0  0  0
   -0.4803    0.7607   10.9436 C   0  0  0  0  0  0  0  0  0  0  0  0
   -4.2807   -1.4002   14.0319 C   0  0  0  0  0  0  0  0  0  0  0  0
   -4.1548    3.2280   12.9408 C   0  0  0  0  0  0  0  0  0  0  0  0
   -4.9871    2.1133   12.7558 C   0  0  0  0  0  0  0  0  0  0  0  0
   -3.1299    0.8337   11.7769 C   0  0  0  0  0  0  0  0  0  0  0  0
   -5.4410   -0.2570   11.9900 C   0  0  0  0  0  0  0  0  0  0  0  0
   -5.1041   -3.4761   14.8004 C   0  0  0  0  0  0  0  0  0  0  0  0
   -6.1986   -2.5088   12.9842 C   0  0  0  0  0  0  0  0  0  0  0  0
   -2.8034    3.1501   12.5642 C   0  0  0  0  0  0  0  0  0  0  0  0
   -2.2934    1.9637   11.9813 C   0  0  0  0  0  0  0  0  0  0  0  0
   -4.4780    0.9090   12.1815 C   0  0  0  0  0  0  0  0  0  0  0  0
   -5.2959   -1.3846   13.0415 C   0  0  0  0  0  0  0  0  0  0  0  0
   -5.6779   -5.3350   15.6378 H   0  0  0  0  0  0  0  0  0  0  0  0
   -4.3314   -4.5870   16.4298 H   0  0  0  0  0  0  0  0  0  0  0  0
   -7.3315   -1.7888   11.3297 H   0  0  0  0  0  0  0  0  0  0  0  0
   -7.8702   -3.3177   11.9398 H   0  0  0  0  0  0  0  0  0  0  0  0
   -1.8260    6.1598   13.2118 H   0  0  0  0  0  0  0  0  0  0  0  0
   -3.1935    5.7314   12.4288 H   0  0  0  0  0  0  0  0  0  0  0  0
   -2.9906    5.3278   13.9981 H   0  0  0  0  0  0  0  0  0  0  0  0
    0.4925    0.8301   10.7223 H   0  0  0  0  0  0  0  0  0  0  0  0
   -0.6311   -0.0279   11.5396 H   0  0  0  0  0  0  0  0  0  0  0  0
   -1.0066    0.6472   10.1009 H   0  0  0  0  0  0  0  0  0  0  0  0
   -3.6134   -0.6580   14.0944 H   0  0  0  0  0  0  0  0  0  0  0  0
   -4.5203    4.0702   13.3370 H   0  0  0  0  0  0  0  0  0  0  0  0
   -5.9477    2.1629   13.0294 H   0  0  0  0  0  0  0  0  0  0  0  0
   -2.7696    0.0019   11.3547 H   0  0  0  0  0  0  0  0  0  0  0  0
   -5.2799   -0.6506   11.0850 H   0  0  0  0  0  0  0  0  0  0  0  0
   -6.3749    0.0973   12.0380 H   0  0  0  0  0  0  0  0  0  0  0  0
  1  7  1  0  0  0  0
  1 16  1  0  0  0  0
  2  8  1  0  0  0  0
  2 17  1  0  0  0  0
  3 14  1  0  0  0  0
  4 15  1  0  0  0  0
  5  9  1  0  0  0  0
  5 14  2  0  0  0  0
  6 14  1  0  0  0  0
  6 15  2  0  0  0  0
  9 19  2  0  0  0  0
 10 11  2  0  0  0  0
 10 16  1  0  0  0  0
 11 18  1  0  0  0  0
 12 17  1  0  0  0  0
 12 18  2  0  0  0  0
 13 18  1  0  0  0  0
 13 19  1  0  0  0  0
 15 19  1  0  0  0  0
 16 17  2  0  0  0  0
  3 20  1  0  0  0  0
  3 21  1  0  0  0  0
  4 22  1  0  0  0  0
  4 23  1  0  0  0  0
  7 24  1  0  0  0  0
  7 25  1  0  0  0  0
  7 26  1  0  0  0  0
  8 27  1  0  0  0  0
  8 28  1  0  0  0  0
  8 29  1  0  0  0  0
  9 30  1  0  0  0  0
 10 31  1  0  0  0  0
 11 32  1  0  0  0  0
 12 33  1  0  0  0  0
 13 34  1  0  0  0  0
 13 35  1  0  0  0  0
M  END
> <pdb_id>
6NNE

> <uniprot_id>
A5U6B6

> <usmiles>
O(c1c(OC)ccc(c1)Cc2c(nc(nc2)N)N)C

$$$$
KUY_A_401
          07192419233D 1   1.00000     0.00000     0
            
 54 57  0  0  0  0            999 V2000
  -21.1097   39.5353    0.8412 S   0  0  0  0  0  0  0  0  0  0  0  0
  -22.7396   40.4432   -1.1796 F   0  0  0  0  0  0  0  0  0  0  0  0
  -18.8353   38.4312   -2.9937 F   0  0  0  0  0  0  0  0  0  0  0  0
  -18.1151   36.4407    2.4104 O   0  0  0  0  0  0  0  0  0  0  0  0
  -20.0845   38.3244    3.1436 N   0  0  0  0  0  0  0  0  0  0  0  0
  -16.0732   37.3609   -5.2921 N   0  0  0  0  0  0  0  0  0  0  0  0
  -15.9075   33.1473    1.1479 N   0  0  0  0  0  0  0  0  0  0  0  0
  -19.5452   38.0234   -0.4079 N   0  0  0  0  0  0  0  0  0  0  0  0
  -17.8483   35.9830    0.2156 N   0  0  0  0  0  0  0  0  0  0  0  0
  -15.6667   33.2205   -0.2241 N   0  0  0  0  0  0  0  0  0  0  0  0
  -16.4015   34.7546   -2.0240 N   0  0  0  0  0  0  0  0  0  0  0  0
  -14.8209   32.3199   -1.0050 C   0  0  0  0  0  0  0  0  0  0  0  0
  -17.2190   33.9389   -2.9337 C   0  0  0  0  0  0  0  0  0  0  0  0
  -15.0953   35.0153   -2.5662 C   0  0  0  0  0  0  0  0  0  0  0  0
  -16.7073   34.1216    1.4841 C   0  0  0  0  0  0  0  0  0  0  0  0
  -18.2220   34.7686   -3.5885 C   0  0  0  0  0  0  0  0  0  0  0  0
  -21.5043   40.2952   -4.5796 C   0  0  0  0  0  0  0  0  0  0  0  0
  -22.3034   40.5834   -3.4894 C   0  0  0  0  0  0  0  0  0  0  0  0
  -20.3409   39.5703   -4.3994 C   0  0  0  0  0  0  0  0  0  0  0  0
  -15.1795   35.4840   -4.0208 C   0  0  0  0  0  0  0  0  0  0  0  0
  -17.6227   35.5750   -4.7663 C   0  0  0  0  0  0  0  0  0  0  0  0
  -20.0996   38.4355    1.7672 C   0  0  0  0  0  0  0  0  0  0  0  0
  -20.4126   38.9506   -0.6690 C   0  0  0  0  0  0  0  0  0  0  0  0
  -18.3706   36.6838    1.2441 C   0  0  0  0  0  0  0  0  0  0  0  0
  -21.9444   40.1518   -2.2269 C   0  0  0  0  0  0  0  0  0  0  0  0
  -19.9719   39.1342   -3.1380 C   0  0  0  0  0  0  0  0  0  0  0  0
  -16.3600   34.2848   -0.7071 C   0  0  0  0  0  0  0  0  0  0  0  0
  -16.9914   34.8730    0.3406 C   0  0  0  0  0  0  0  0  0  0  0  0
  -19.3161   37.7353    0.8749 C   0  0  0  0  0  0  0  0  0  0  0  0
  -20.7761   39.4173   -2.0297 C   0  0  0  0  0  0  0  0  0  0  0  0
  -16.4249   36.3542   -4.2761 C   0  0  2  0  0  0  0  0  0  0  0  0
  -16.7039   36.8507   -3.3464 H   0  0  0  0  0  0  0  0  0  0  0  0
  -19.4736   37.6675    3.5856 H   0  0  0  0  0  0  0  0  0  0  0  0
  -20.6843   38.9009    3.6984 H   0  0  0  0  0  0  0  0  0  0  0  0
  -16.8673   37.9402   -5.4761 H   0  0  0  0  0  0  0  0  0  0  0  0
  -15.3197   37.9254   -4.9551 H   0  0  0  0  0  0  0  0  0  0  0  0
  -18.0893   36.2759   -0.7097 H   0  0  0  0  0  0  0  0  0  0  0  0
  -14.8277   32.6038   -1.9638 H   0  0  0  0  0  0  0  0  0  0  0  0
  -13.8851   32.3535   -0.6540 H   0  0  0  0  0  0  0  0  0  0  0  0
  -15.1712   31.3861   -0.9313 H   0  0  0  0  0  0  0  0  0  0  0  0
  -17.6757   33.2186   -2.4115 H   0  0  0  0  0  0  0  0  0  0  0  0
  -16.6289   33.5250   -3.6269 H   0  0  0  0  0  0  0  0  0  0  0  0
  -14.5525   34.1764   -2.5253 H   0  0  0  0  0  0  0  0  0  0  0  0
  -14.6521   35.7261   -2.0202 H   0  0  0  0  0  0  0  0  0  0  0  0
  -17.0575   34.3003    2.4036 H   0  0  0  0  0  0  0  0  0  0  0  0
  -18.6009   35.4073   -2.9188 H   0  0  0  0  0  0  0  0  0  0  0  0
  -18.9512   34.1800   -3.9374 H   0  0  0  0  0  0  0  0  0  0  0  0
  -21.7657   40.6089   -5.4925 H   0  0  0  0  0  0  0  0  0  0  0  0
  -23.1460   41.1071   -3.6150 H   0  0  0  0  0  0  0  0  0  0  0  0
  -19.7612   39.3592   -5.1864 H   0  0  0  0  0  0  0  0  0  0  0  0
  -15.2185   34.6819   -4.6167 H   0  0  0  0  0  0  0  0  0  0  0  0
  -14.3624   36.0191   -4.2352 H   0  0  0  0  0  0  0  0  0  0  0  0
  -18.3103   36.2077   -5.1226 H   0  0  0  0  0  0  0  0  0  0  0  0
  -17.3396   34.9474   -5.4916 H   0  0  0  0  0  0  0  0  0  0  0  0
  1 22  1  0  0  0  0
  1 23  1  0  0  0  0
  2 25  1  0  0  0  0
  3 26  1  0  0  0  0
  4 24  2  0  0  0  0
  5 22  1  0  0  0  0
  6 31  1  0  0  0  0
  7 10  1  0  0  0  0
  7 15  2  0  0  0  0
  8 23  2  0  0  0  0
  8 29  1  0  0  0  0
  9 24  1  0  0  0  0
  9 28  1  0  0  0  0
 10 12  1  0  0  0  0
 10 27  1  0  0  0  0
 11 13  1  0  0  0  0
 11 14  1  0  0  0  0
 11 27  1  0  0  0  0
 13 16  1  0  0  0  0
 14 20  1  0  0  0  0
 15 28  1  0  0  0  0
 16 21  1  0  0  0  0
 17 18  2  0  0  0  0
 17 19  1  0  0  0  0
 18 25  1  0  0  0  0
 19 26  2  0  0  0  0
 20 31  1  0  0  0  0
 21 31  1  0  0  0  0
 22 29  2  0  0  0  0
 23 30  1  0  0  0  0
 24 29  1  0  0  0  0
 25 30  2  0  0  0  0
 26 30  1  0  0  0  0
 27 28  2  0  0  0  0
 31 32  1  0  0  0  0
  5 33  1  0  0  0  0
  5 34  1  0  0  0  0
  6 35  1  0  0  0  0
  6 36  1  0  0  0  0
  9 37  1  0  0  0  0
 12 38  1  0  0  0  0
 12 39  1  0  0  0  0
 12 40  1  0  0  0  0
 13 41  1  0  0  0  0
 13 42  1  0  0  0  0
 14 43  1  0  0  0  0
 14 44  1  0  0  0  0
 15 45  1  0  0  0  0
 16 46  1  0  0  0  0
 16 47  1  0  0  0  0
 17 48  1  0  0  0  0
 18 49  1  0  0  0  0
 19 50  1  0  0  0  0
 20 51  1  0  0  0  0
 20 52  1  0  0  0  0
 21 53  1  0  0  0  0
 21 54  1  0  0  0  0
M  END
> <pdb_id>
6NO8

> <uniprot_id>
P11309

> <usmiles>
S1C(=NC(=C1N)C(=O)NC2=C(N(N=C2)C)N3CC[C@@H](N)CCC3)c4c(F)cccc4F

$$$$
KWD_A_604
          07202403303D 1   1.00000     0.00000     0
            
 26 27  0  0  0  0            999 V2000
   19.3377    4.6870  -32.0956 Cl  0  0  0  0  0  0  0  0  0  0  0  0
   16.6598    3.1257  -31.9208 Cl  0  0  0  0  0  0  0  0  0  0  0  0
   12.5817    8.6188  -35.2168 S   0  0  0  0  0  0  0  0  0  0  0  0
    9.9084    8.4586  -35.3725 O   0  0  0  0  0  0  0  0  0  0  0  0
    6.8309    8.1716  -33.7973 N   0  0  0  0  0  0  0  0  0  0  0  0
   10.9638    6.4836  -34.8570 N   0  0  0  0  0  0  0  0  0  0  0  0
   13.2093    6.2528  -34.2521 N   0  0  0  0  0  0  0  0  0  0  0  0
   14.3548    8.4011  -34.9969 C   0  0  0  0  0  0  0  0  0  0  0  0
    7.6054    7.4381  -34.2568 C   0  0  0  0  0  0  0  0  0  0  0  0
   17.9770    6.6616  -33.2968 C   0  0  0  0  0  0  0  0  0  0  0  0
    8.5926    6.5268  -34.8307 C   0  0  0  0  0  0  0  0  0  0  0  0
   16.8372    7.2425  -33.8075 C   0  0  0  0  0  0  0  0  0  0  0  0
   15.5976    5.2878  -33.1578 C   0  0  0  0  0  0  0  0  0  0  0  0
   12.2468    6.9712  -34.7257 C   0  0  0  0  0  0  0  0  0  0  0  0
   17.9091    5.4076  -32.7261 C   0  0  0  0  0  0  0  0  0  0  0  0
   16.7294    4.7066  -32.6491 C   0  0  0  0  0  0  0  0  0  0  0  0
    9.8682    7.2794  -35.0596 C   0  0  0  0  0  0  0  0  0  0  0  0
   14.3974    7.0938  -34.2483 C   0  0  0  0  0  0  0  0  0  0  0  0
   15.6575    6.5384  -33.7304 C   0  0  0  0  0  0  0  0  0  0  0  0
   14.7516    9.1448  -34.4589 H   0  0  0  0  0  0  0  0  0  0  0  0
   14.8280    8.3361  -35.8755 H   0  0  0  0  0  0  0  0  0  0  0  0
   18.8502    7.1470  -33.3396 H   0  0  0  0  0  0  0  0  0  0  0  0
    8.2533    6.1679  -35.7003 H   0  0  0  0  0  0  0  0  0  0  0  0
    8.7580    5.7692  -34.1992 H   0  0  0  0  0  0  0  0  0  0  0  0
   16.8663    8.1516  -34.2231 H   0  0  0  0  0  0  0  0  0  0  0  0
   14.7248    4.8017  -33.1131 H   0  0  0  0  0  0  0  0  0  0  0  0
  1 15  1  0  0  0  0
  2 16  1  0  0  0  0
  3  8  1  0  0  0  0
  3 14  1  0  0  0  0
  4 17  2  0  0  0  0
  5  9  3  0  0  0  0
  6 14  2  0  0  0  0
  6 17  1  0  0  0  0
  7 14  1  0  0  0  0
  7 18  2  0  0  0  0
  8 18  1  0  0  0  0
  9 11  1  0  0  0  0
 10 12  1  0  0  0  0
 10 15  2  0  0  0  0
 11 17  1  0  0  0  0
 12 19  2  0  0  0  0
 13 16  2  0  0  0  0
 13 19  1  0  0  0  0
 15 16  1  0  0  0  0
 18 19  1  0  0  0  0
  8 20  1  0  0  0  0
  8 21  1  0  0  0  0
 10 22  1  0  0  0  0
 11 23  1  0  0  0  0
 11 24  1  0  0  0  0
 12 25  1  0  0  0  0
 13 26  1  0  0  0  0
M  END
> <pdb_id>
6NPE

> <uniprot_id>
P00519

> <usmiles>
Clc1c(Cl)ccc(c1)C2=NC(SC2)=NC(=O)CC#N

$$$$
KWP_A_603
          07202403303D 1   1.00000     0.00000     0
            
 41 43  0  0  0  0            999 V2000
   18.8480    4.9030  -31.8970 Cl  0  0  0  0  0  0  0  0  0  0  0  0
   16.3160    3.1620  -32.2050 Cl  0  0  0  0  0  0  0  0  0  0  0  0
   11.5600   11.3700  -35.1430 O   0  0  0  0  0  0  0  0  0  0  0  0
    9.7130    8.1360  -36.2410 O   0  0  0  0  0  0  0  0  0  0  0  0
   12.8480    6.3000  -34.4850 N   0  0  0  0  0  0  0  0  0  0  0  0
    5.6170    5.7490  -34.6540 N   0  0  0  0  0  0  0  0  0  0  0  0
   10.5330    6.6850  -34.6550 N   0  0  0  0  0  0  0  0  0  0  0  0
   14.0710    7.0370  -34.6150 N   0  0  0  0  0  0  0  0  0  0  0  0
   12.1130   10.7300  -34.0080 C   0  0  0  0  0  0  0  0  0  0  0  0
    5.9160    6.4350  -35.7630 C   0  0  0  0  0  0  0  0  0  0  0  0
    6.6330    5.5730  -33.8000 C   0  0  0  0  0  0  0  0  0  0  0  0
   13.7580    8.4460  -34.7410 C   0  0  0  0  0  0  0  0  0  0  0  0
   11.5600    9.3290  -33.9720 C   0  0  0  0  0  0  0  0  0  0  0  0
   17.4750    6.8480  -33.1820 C   0  0  0  0  0  0  0  0  0  0  0  0
    7.1530    6.9520  -36.0650 C   0  0  0  0  0  0  0  0  0  0  0  0
    7.9110    6.0420  -33.9930 C   0  0  0  0  0  0  0  0  0  0  0  0
   16.3640    7.3580  -33.8200 C   0  0  0  0  0  0  0  0  0  0  0  0
   15.2190    5.3010  -33.4610 C   0  0  0  0  0  0  0  0  0  0  0  0
    9.4870    7.2660  -35.4130 C   0  0  0  0  0  0  0  0  0  0  0  0
   17.4580    5.5600  -32.6950 C   0  0  0  0  0  0  0  0  0  0  0  0
   16.3290    4.7810  -32.8320 C   0  0  0  0  0  0  0  0  0  0  0  0
   11.8090    7.0660  -34.7040 C   0  0  0  0  0  0  0  0  0  0  0  0
   15.2300    6.5900  -33.9590 C   0  0  0  0  0  0  0  0  0  0  0  0
    8.1560    6.7400  -35.1470 C   0  0  0  0  0  0  0  0  0  0  0  0
   12.2500    8.4390  -34.9680 C   0  0  2  0  0  0  0  0  0  0  0  0
   11.9063   12.3064  -35.1994 H   0  0  0  0  0  0  0  0  0  0  0  0
   10.2967    5.9342  -34.0382 H   0  0  0  0  0  0  0  0  0  0  0  0
   11.8536   11.2221  -33.1770 H   0  0  0  0  0  0  0  0  0  0  0  0
   13.1099   10.7029  -34.0819 H   0  0  0  0  0  0  0  0  0  0  0  0
    5.1811    6.5833  -36.4247 H   0  0  0  0  0  0  0  0  0  0  0  0
    6.4488    5.0629  -32.9599 H   0  0  0  0  0  0  0  0  0  0  0  0
   14.2373    8.8532  -35.5185 H   0  0  0  0  0  0  0  0  0  0  0  0
   13.9942    8.9434  -33.9062 H   0  0  0  0  0  0  0  0  0  0  0  0
   10.5835    9.3595  -34.1852 H   0  0  0  0  0  0  0  0  0  0  0  0
   11.6894    8.9520  -33.0549 H   0  0  0  0  0  0  0  0  0  0  0  0
   18.2927    7.4132  -33.0730 H   0  0  0  0  0  0  0  0  0  0  0  0
    7.3165    7.4583  -36.9117 H   0  0  0  0  0  0  0  0  0  0  0  0
    8.6321    5.8805  -33.3192 H   0  0  0  0  0  0  0  0  0  0  0  0
   16.3821    8.2895  -34.1832 H   0  0  0  0  0  0  0  0  0  0  0  0
   14.3970    4.7399  -33.5582 H   0  0  0  0  0  0  0  0  0  0  0  0
   12.0284    8.7116  -35.9043 H   0  0  0  0  0  0  0  0  0  0  0  0
  1 20  1  0  0  0  0
  2 21  1  0  0  0  0
  3  9  1  0  0  0  0
  4 19  2  0  0  0  0
  5  8  1  0  0  0  0
  5 22  2  0  0  0  0
  6 10  2  0  0  0  0
  6 11  1  0  0  0  0
  7 19  1  0  0  0  0
  7 22  1  0  0  0  0
  8 12  1  0  0  0  0
  8 23  1  0  0  0  0
  9 13  1  0  0  0  0
 10 15  1  0  0  0  0
 11 16  2  0  0  0  0
 12 25  1  0  0  0  0
 13 25  1  0  0  0  0
 14 17  1  0  0  0  0
 14 20  2  0  0  0  0
 15 24  2  0  0  0  0
 16 24  1  0  0  0  0
 17 23  2  0  0  0  0
 18 21  2  0  0  0  0
 18 23  1  0  0  0  0
 19 24  1  0  0  0  0
 20 21  1  0  0  0  0
 22 25  1  0  0  0  0
  3 26  1  0  0  0  0
  7 27  1  0  0  0  0
  9 28  1  0  0  0  0
  9 29  1  0  0  0  0
 10 30  1  0  0  0  0
 11 31  1  0  0  0  0
 12 32  1  0  0  0  0
 12 33  1  0  0  0  0
 13 34  1  0  0  0  0
 13 35  1  0  0  0  0
 14 36  1  0  0  0  0
 15 37  1  0  0  0  0
 16 38  1  0  0  0  0
 17 39  1  0  0  0  0
 18 40  1  0  0  0  0
 25 41  1  0  0  0  0
M  END
> <pdb_id>
6NPV

> <uniprot_id>
P00519

> <usmiles>
Clc1c(Cl)ccc(N2N=C(NC(=O)c3ccncc3)[C@H](C2)CCO)c1

$$$$
KWV_B_605
          07202403303D 1   1.00000     0.00000     0
            
 30 31  0  0  0  0            999 V2000
   19.0376    4.6804  -31.7320 Cl  0  0  0  0  0  0  0  0  0  0  0  0
   16.4548    3.0477  -32.2154 Cl  0  0  0  0  0  0  0  0  0  0  0  0
    9.7809    8.2598  -35.7417 O   0  0  0  0  0  0  0  0  0  0  0  0
   13.0570    6.2967  -34.4460 N   0  0  0  0  0  0  0  0  0  0  0  0
   10.8350    6.7384  -34.4522 N   0  0  0  0  0  0  0  0  0  0  0  0
   14.4241    7.1240  -34.5430 N   0  0  0  0  0  0  0  0  0  0  0  0
    8.2801    7.0610  -34.3742 C   0  0  0  0  0  0  0  0  0  0  0  0
   14.1883    8.3814  -34.9427 C   0  0  0  0  0  0  0  0  0  0  0  0
   12.6642    8.5441  -34.9317 C   0  0  0  0  0  0  0  0  0  0  0  0
   17.7933    6.7935  -33.0046 C   0  0  0  0  0  0  0  0  0  0  0  0
   16.7164    7.3626  -33.6695 C   0  0  0  0  0  0  0  0  0  0  0  0
   15.4742    5.3034  -33.4450 C   0  0  0  0  0  0  0  0  0  0  0  0
    9.6549    7.4207  -34.9258 C   0  0  0  0  0  0  0  0  0  0  0  0
   12.1727    7.0550  -35.0327 C   0  0  1  0  0  0  0  0  0  0  0  0
   17.6935    5.4829  -32.5725 C   0  0  0  0  0  0  0  0  0  0  0  0
   16.5436    4.7448  -32.7928 C   0  0  0  0  0  0  0  0  0  0  0  0
   15.5750    6.6052  -33.8784 C   0  0  0  0  0  0  0  0  0  0  0  0
   12.8075    6.1373  -33.4908 H   0  0  0  0  0  0  0  0  0  0  0  0
   10.7559    6.0500  -33.7313 H   0  0  0  0  0  0  0  0  0  0  0  0
    8.3732    6.3319  -33.6962 H   0  0  0  0  0  0  0  0  0  0  0  0
    7.8726    7.8664  -33.9436 H   0  0  0  0  0  0  0  0  0  0  0  0
    7.6925    6.7490  -35.1207 H   0  0  0  0  0  0  0  0  0  0  0  0
   14.5474    8.5269  -35.8646 H   0  0  0  0  0  0  0  0  0  0  0  0
   14.6126    9.0323  -34.3131 H   0  0  0  0  0  0  0  0  0  0  0  0
   12.3512    9.0834  -35.7134 H   0  0  0  0  0  0  0  0  0  0  0  0
   12.3512    8.9729  -34.0842 H   0  0  0  0  0  0  0  0  0  0  0  0
   18.6266    7.3213  -32.8405 H   0  0  0  0  0  0  0  0  0  0  0  0
   16.7635    8.3073  -33.9938 H   0  0  0  0  0  0  0  0  0  0  0  0
   14.6393    4.7759  -33.6021 H   0  0  0  0  0  0  0  0  0  0  0  0
   12.1516    6.8059  -36.0010 H   0  0  0  0  0  0  0  0  0  0  0  0
  1 15  1  0  0  0  0
  2 16  1  0  0  0  0
  3 13  2  0  0  0  0
  4  6  1  0  0  0  0
  4 14  1  0  0  0  0
  5 13  1  0  0  0  0
  5 14  1  0  0  0  0
  6  8  1  0  0  0  0
  6 17  1  0  0  0  0
  7 13  1  0  0  0  0
  8  9  1  0  0  0  0
  9 14  1  0  0  0  0
 10 11  1  0  0  0  0
 10 15  2  0  0  0  0
 11 17  2  0  0  0  0
 12 16  2  0  0  0  0
 12 17  1  0  0  0  0
 15 16  1  0  0  0  0
  4 18  1  0  0  0  0
  5 19  1  0  0  0  0
  7 20  1  0  0  0  0
  7 21  1  0  0  0  0
  7 22  1  0  0  0  0
  8 23  1  0  0  0  0
  8 24  1  0  0  0  0
  9 25  1  0  0  0  0
  9 26  1  0  0  0  0
 10 27  1  0  0  0  0
 11 28  1  0  0  0  0
 12 29  1  0  0  0  0
 14 30  1  0  0  0  0
M  END
> <pdb_id>
6NPU

> <uniprot_id>
P00519

> <usmiles>
Clc1c(Cl)ccc(N2N[C@@H](NC(=O)C)CC2)c1

$$$$
KYN_A_504
          07192420153D 1   1.00000     0.00000     0
            
 27 27  0  0  0  0            999 V2000
    9.1190  -29.2959   44.4660 O   0  0  0  0  0  0  0  0  0  0  0  0
   11.1797  -28.8081   45.1562 O   0  0  0  0  0  0  0  0  0  0  0  0
   10.1762  -32.0835   48.6302 O   0  0  0  0  0  0  0  0  0  0  0  0
    8.4741  -30.3052   47.0625 N   0  0  0  0  0  0  0  0  0  0  0  0
   11.4861  -34.2021   49.7073 N   0  0  0  0  0  0  0  0  0  0  0  0
   11.9504  -36.4777   46.8653 C   0  0  0  0  0  0  0  0  0  0  0  0
   11.6061  -35.6720   45.8008 C   0  0  0  0  0  0  0  0  0  0  0  0
   11.8815  -35.9876   48.1617 C   0  0  0  0  0  0  0  0  0  0  0  0
   11.1558  -34.3779   46.0228 C   0  0  0  0  0  0  0  0  0  0  0  0
   10.4493  -31.5658   46.3213 C   0  0  0  0  0  0  0  0  0  0  0  0
    9.9995  -29.3696   45.2916 C   0  0  0  0  0  0  0  0  0  0  0  0
   10.5361  -32.4715   47.5283 C   0  0  0  0  0  0  0  0  0  0  0  0
    9.8698  -30.1791   46.6107 C   0  0  1  0  0  0  0  0  0  0  0  0
   11.4602  -34.6719   48.4204 C   0  0  0  0  0  0  0  0  0  0  0  0
   11.0661  -33.8598   47.3226 C   0  0  0  0  0  0  0  0  0  0  0  0
    8.2415  -29.7467   44.6293 H   0  0  0  0  0  0  0  0  0  0  0  0
    8.1011  -29.3965   47.2499 H   0  0  0  0  0  0  0  0  0  0  0  0
    7.9313  -30.7476   46.3486 H   0  0  0  0  0  0  0  0  0  0  0  0
   11.1890  -33.2679   49.9047 H   0  0  0  0  0  0  0  0  0  0  0  0
   11.8022  -34.7935   50.4492 H   0  0  0  0  0  0  0  0  0  0  0  0
   12.2505  -37.4176   46.7027 H   0  0  0  0  0  0  0  0  0  0  0  0
   11.6809  -36.0207   44.8666 H   0  0  0  0  0  0  0  0  0  0  0  0
   12.1360  -36.5810   48.9253 H   0  0  0  0  0  0  0  0  0  0  0  0
   10.8918  -33.8073   45.2452 H   0  0  0  0  0  0  0  0  0  0  0  0
    9.8702  -32.0102   45.6379 H   0  0  0  0  0  0  0  0  0  0  0  0
   11.3710  -31.4484   45.9516 H   0  0  0  0  0  0  0  0  0  0  0  0
   10.4108  -29.7364   47.3257 H   0  0  0  0  0  0  0  0  0  0  0  0
  1 11  1  0  0  0  0
  2 11  2  0  0  0  0
  3 12  2  0  0  0  0
  4 13  1  0  0  0  0
  5 14  1  0  0  0  0
  6  7  2  0  0  0  0
  6  8  1  0  0  0  0
  7  9  1  0  0  0  0
  8 14  2  0  0  0  0
  9 15  2  0  0  0  0
 10 12  1  0  0  0  0
 10 13  1  0  0  0  0
 11 13  1  0  0  0  0
 12 15  1  0  0  0  0
 14 15  1  0  0  0  0
  1 16  1  0  0  0  0
  4 17  1  0  0  0  0
  4 18  1  0  0  0  0
  5 19  1  0  0  0  0
  5 20  1  0  0  0  0
  6 21  1  0  0  0  0
  7 22  1  0  0  0  0
  8 23  1  0  0  0  0
  9 24  1  0  0  0  0
 10 25  1  0  0  0  0
 10 26  1  0  0  0  0
 13 27  1  0  0  0  0
M  END
> <pdb_id>
5NAK

> <uniprot_id>
Q84HF5

> <usmiles>
O=C(O)[C@@H](N)CC(=O)c1c(N)cccc1

$$$$
KYW_A_604
          07212404023D 1   1.00000     0.00000     0
            
 60 63  0  0  0  0            999 V2000
  -14.2370   22.8230  -39.0770 Cl  0  0  0  0  0  0  0  0  0  0  0  0
  -17.0260   19.6530  -28.9550 P   0  0  0  0  0  0  0  0  0  0  0  0
  -18.8910   17.6720  -30.4540 P   0  0  0  0  0  0  0  0  0  0  0  0
  -15.9540   19.7360  -27.9230 O   0  0  0  0  0  0  0  0  0  0  0  0
  -16.4720   20.1190  -30.3190 O   0  0  0  0  0  0  0  0  0  0  0  0
  -18.2220   20.5960  -28.7240 O   0  0  0  0  0  0  0  0  0  0  0  0
  -19.3710   16.2370  -30.5610 O   0  0  0  0  0  0  0  0  0  0  0  0
  -20.1570   18.5170  -30.2110 O   0  0  0  0  0  0  0  0  0  0  0  0
  -15.6820   17.7570  -36.5740 O   0  0  0  0  0  0  0  0  0  0  0  0
  -15.3060   16.0150  -34.3920 O   0  0  0  0  0  0  0  0  0  0  0  0
  -18.2570   18.1560  -31.8130 O   0  0  0  0  0  0  0  0  0  0  0  0
  -16.8790   19.2270  -34.0210 O   0  0  0  0  0  0  0  0  0  0  0  0
  -14.0760   22.2130  -33.3750 N   0  0  0  0  0  0  0  0  0  0  0  0
  -13.2770   23.5420  -36.7780 N   0  0  0  0  0  0  0  0  0  0  0  0
  -14.7630   21.6450  -36.8280 N   0  0  0  0  0  0  0  0  0  0  0  0
  -12.3980   24.4890  -34.8680 N   0  0  0  0  0  0  0  0  0  0  0  0
  -15.1820   20.7150  -34.6310 N   0  0  0  0  0  0  0  0  0  0  0  0
  -11.7680   25.5180  -35.7130 C   0  0  0  0  0  0  0  0  0  0  0  0
  -14.8310   21.1420  -33.3790 C   0  0  0  0  0  0  0  0  0  0  0  0
  -17.6970   18.0040  -29.1490 C   0  0  0  0  0  0  0  0  0  0  0  0
   -7.7530   25.0340  -33.1940 C   0  0  0  0  0  0  0  0  0  0  0  0
   -8.5830   26.0230  -32.7010 C   0  0  0  0  0  0  0  0  0  0  0  0
   -8.3020   23.8890  -33.7390 C   0  0  0  0  0  0  0  0  0  0  0  0
   -9.9570   25.8600  -32.7370 C   0  0  0  0  0  0  0  0  0  0  0  0
   -9.6760   23.7300  -33.7860 C   0  0  0  0  0  0  0  0  0  0  0  0
  -17.0230   17.5760  -32.2730 C   0  0  0  0  0  0  0  0  0  0  0  0
  -12.0190   24.5980  -33.4550 C   0  0  0  0  0  0  0  0  0  0  0  0
  -14.0740   22.6500  -37.3510 C   0  0  0  0  0  0  0  0  0  0  0  0
  -13.2370   23.5430  -35.4310 C   0  0  0  0  0  0  0  0  0  0  0  0
  -14.6120   21.6050  -35.5040 C   0  0  0  0  0  0  0  0  0  0  0  0
  -13.9080   22.5030  -34.7240 C   0  0  0  0  0  0  0  0  0  0  0  0
  -10.5220   24.7150  -33.2870 C   0  0  0  0  0  0  0  0  0  0  0  0
  -15.9610   19.5610  -35.0360 C   0  0  1  0  0  0  0  0  0  0  0  0
  -15.1510   18.3080  -35.3870 C   0  0  1  0  0  0  0  0  0  0  0  0
  -15.3850   17.4180  -34.1760 C   0  0  1  0  0  0  0  0  0  0  0  0
  -16.7930   17.8170  -33.7380 C   0  0  2  0  0  0  0  0  0  0  0  0
  -16.6590   17.6540  -36.4820 H   0  0  0  0  0  0  0  0  0  0  0  0
  -15.5380   15.5330  -33.5550 H   0  0  0  0  0  0  0  0  0  0  0  0
  -12.3530   25.8610  -36.5650 H   0  0  0  0  0  0  0  0  0  0  0  0
  -10.8220   25.1550  -36.1120 H   0  0  0  0  0  0  0  0  0  0  0  0
  -11.5800   26.4310  -35.1480 H   0  0  0  0  0  0  0  0  0  0  0  0
  -15.1480   20.6150  -32.4810 H   0  0  0  0  0  0  0  0  0  0  0  0
  -16.8500   17.3270  -29.2460 H   0  0  0  0  0  0  0  0  0  0  0  0
  -18.1430   17.6880  -28.2110 H   0  0  0  0  0  0  0  0  0  0  0  0
   -6.6720   25.1520  -33.1340 H   0  0  0  0  0  0  0  0  0  0  0  0
   -8.1750   26.9460  -32.2920 H   0  0  0  0  0  0  0  0  0  0  0  0
   -7.6500   23.1060  -34.1260 H   0  0  0  0  0  0  0  0  0  0  0  0
  -10.5890   26.6470  -32.3260 H   0  0  0  0  0  0  0  0  0  0  0  0
  -10.0760   22.8180  -34.2260 H   0  0  0  0  0  0  0  0  0  0  0  0
  -16.2280   18.0170  -31.6750 H   0  0  0  0  0  0  0  0  0  0  0  0
  -17.0040   16.5030  -32.0850 H   0  0  0  0  0  0  0  0  0  0  0  0
  -12.3320   23.7100  -32.9120 H   0  0  0  0  0  0  0  0  0  0  0  0
  -12.5100   25.4180  -32.9320 H   0  0  0  0  0  0  0  0  0  0  0  0
  -16.5370   19.9040  -35.8920 H   0  0  0  0  0  0  0  0  0  0  0  0
  -14.0880   18.5020  -35.5250 H   0  0  0  0  0  0  0  0  0  0  0  0
  -14.6630   17.6670  -33.3990 H   0  0  0  0  0  0  0  0  0  0  0  0
  -17.5860   17.3680  -34.3320 H   0  0  0  0  0  0  0  0  0  0  0  0
  -16.3160   19.4336  -27.0412 H   0  0  0  0  0  0  0  0  0  0  0  0
  -17.1936   20.0621  -31.0089 H   0  0  0  0  0  0  0  0  0  0  0  0
  -18.5887   15.6348  -30.7202 H   0  0  0  0  0  0  0  0  0  0  0  0
  1 28  1  0  0  0  0
  2  4  1  0  0  0  0
  2  5  1  0  0  0  0
  2  6  2  0  0  0  0
  2 20  1  0  0  0  0
  3  7  1  0  0  0  0
  3  8  2  0  0  0  0
  3 11  1  0  0  0  0
  3 20  1  0  0  0  0
  9 34  1  0  0  0  0
  9 37  1  0  0  0  0
 10 35  1  0  0  0  0
 10 38  1  0  0  0  0
 11 26  1  0  0  0  0
 12 33  1  0  0  0  0
 12 36  1  0  0  0  0
 13 19  2  0  0  0  0
 13 31  1  0  0  0  0
 14 28  2  0  0  0  0
 14 29  1  0  0  0  0
 15 28  1  0  0  0  0
 15 30  2  0  0  0  0
 16 18  1  0  0  0  0
 16 27  1  0  0  0  0
 16 29  1  0  0  0  0
 17 19  1  0  0  0  0
 17 30  1  0  0  0  0
 17 33  1  0  0  0  0
 18 39  1  0  0  0  0
 18 40  1  0  0  0  0
 18 41  1  0  0  0  0
 19 42  1  0  0  0  0
 20 43  1  0  0  0  0
 20 44  1  0  0  0  0
 21 22  2  0  0  0  0
 21 23  1  0  0  0  0
 21 45  1  0  0  0  0
 22 24  1  0  0  0  0
 22 46  1  0  0  0  0
 23 25  2  0  0  0  0
 23 47  1  0  0  0  0
 24 32  2  0  0  0  0
 24 48  1  0  0  0  0
 25 32  1  0  0  0  0
 25 49  1  0  0  0  0
 26 36  1  0  0  0  0
 26 50  1  0  0  0  0
 26 51  1  0  0  0  0
 27 32  1  0  0  0  0
 27 52  1  0  0  0  0
 27 53  1  0  0  0  0
 29 31  2  0  0  0  0
 30 31  1  0  0  0  0
 33 34  1  0  0  0  0
 33 54  1  0  0  0  0
 34 35  1  0  0  0  0
 34 55  1  0  0  0  0
 35 36  1  0  0  0  0
 35 56  1  0  0  0  0
 36 57  1  0  0  0  0
  4 58  1  0  0  0  0
  5 59  1  0  0  0  0
  7 60  1  0  0  0  0
M  END
> <pdb_id>
6S7H

> <uniprot_id>
P21589

> <usmiles>
Clc1nc2N(C=Nc2c(n1)N(Cc3ccccc3)C)[C@@H]4O[C@@H]([C@@H](O)[C@H]4O)COP(=O)(O)CP(=O)(O)O

$$$$
KZ6_A_501
          07202414513D 1   1.00000     0.00000     0
            
 15 15  0  0  0  0            999 V2000
   -6.8567   15.7194  -20.6845 I   0  0  0  0  0  0  0  0  0  0  0  0
   -0.1153   14.2581  -22.2161 O   0  0  0  0  0  0  0  0  0  0  0  0
   -1.1104   13.5139  -24.0979 O   0  0  0  0  0  0  0  0  0  0  0  0
   -3.8109   15.6879  -20.7230 C   0  0  0  0  0  0  0  0  0  0  0  0
   -4.8589   14.4245  -22.5027 C   0  0  0  0  0  0  0  0  0  0  0  0
   -2.5323   15.3286  -21.2155 C   0  0  0  0  0  0  0  0  0  0  0  0
   -3.6033   14.0609  -23.0020 C   0  0  0  0  0  0  0  0  0  0  0  0
   -4.9831   15.2419  -21.3599 C   0  0  0  0  0  0  0  0  0  0  0  0
   -1.1298   14.0555  -22.9480 C   0  0  0  0  0  0  0  0  0  0  0  0
   -2.4506   14.5114  -22.3622 C   0  0  0  0  0  0  0  0  0  0  0  0
   -3.8771   16.2254  -19.9666 H   0  0  0  0  0  0  0  0  0  0  0  0
   -5.6265   14.1196  -22.9304 H   0  0  0  0  0  0  0  0  0  0  0  0
   -1.7597   15.6231  -20.7884 H   0  0  0  0  0  0  0  0  0  0  0  0
   -3.5384   13.5170  -23.7533 H   0  0  0  0  0  0  0  0  0  0  0  0
   -0.2227   14.6922  -21.3216 H   0  0  0  0  0  0  0  0  0  0  0  0
  1  8  1  0  0  0  0
  2  9  1  0  0  0  0
  3  9  2  0  0  0  0
  4  6  1  0  0  0  0
  4  8  2  0  0  0  0
  4 11  1  0  0  0  0
  5  7  2  0  0  0  0
  5  8  1  0  0  0  0
  5 12  1  0  0  0  0
  6 10  2  0  0  0  0
  6 13  1  0  0  0  0
  7 10  1  0  0  0  0
  7 14  1  0  0  0  0
  9 10  1  0  0  0  0
  2 15  1  0  0  0  0
M  END
> <pdb_id>
7TZM

> <uniprot_id>
Q2IU02

> <usmiles>
Ic1ccc(cc1)C(=O)O

$$$$
KZ9_A_1365
          07202413333D 1   1.00000     0.00000     0
            
 33 35  0  0  0  0            999 V2000
   37.5478   -3.1878   19.0066 S   0  0  0  0  0  0  0  0  0  0  0  0
   39.7026  -10.6272   16.1662 O   0  0  0  0  0  0  0  0  0  0  0  0
   41.2549   -8.5553   20.3761 O   0  0  0  0  0  0  0  0  0  0  0  0
   39.8510   -4.1358   19.9379 N   0  0  0  0  0  0  0  0  0  0  0  0
   38.3554   -5.8047   19.0386 N   0  0  0  0  0  0  0  0  0  0  0  0
   43.2564   -5.5646   20.8496 C   0  0  0  0  0  0  0  0  0  0  0  0
   40.6863   -7.0847   15.6420 C   0  0  0  0  0  0  0  0  0  0  0  0
   40.4686   -8.4492   15.4139 C   0  0  0  0  0  0  0  0  0  0  0  0
   42.8155   -6.9879   21.2357 C   0  0  0  0  0  0  0  0  0  0  0  0
   42.0795   -4.5607   21.0036 C   0  0  0  0  0  0  0  0  0  0  0  0
   40.3387   -6.5679   16.9125 C   0  0  0  0  0  0  0  0  0  0  0  0
   39.5866   -8.7597   17.6532 C   0  0  0  0  0  0  0  0  0  0  0  0
   38.6433   -4.4752   19.3382 C   0  0  0  0  0  0  0  0  0  0  0  0
   39.9203   -9.2833   16.3955 C   0  0  0  0  0  0  0  0  0  0  0  0
   41.5197   -7.3574   20.4936 C   0  0  0  0  0  0  0  0  0  0  0  0
   40.7812   -5.0868   20.3720 C   0  0  0  0  0  0  0  0  0  0  0  0
   39.7890   -7.4076   17.9085 C   0  0  0  0  0  0  0  0  0  0  0  0
   39.3331   -6.8789   19.2829 C   0  0  1  0  0  0  0  0  0  0  0  0
   40.5522   -6.4255   20.1086 C   0  0  0  0  0  0  0  0  0  0  0  0
   39.3094  -11.1999   16.8855 H   0  0  0  0  0  0  0  0  0  0  0  0
   40.0647   -3.1672   20.0649 H   0  0  0  0  0  0  0  0  0  0  0  0
   37.4640   -6.0353   18.6484 H   0  0  0  0  0  0  0  0  0  0  0  0
   43.5655   -5.5639   19.8986 H   0  0  0  0  0  0  0  0  0  0  0  0
   44.0085   -5.2817   21.4448 H   0  0  0  0  0  0  0  0  0  0  0  0
   41.0737   -6.4964   14.9322 H   0  0  0  0  0  0  0  0  0  0  0  0
   40.7115   -8.8384   14.5254 H   0  0  0  0  0  0  0  0  0  0  0  0
   42.6553   -7.0288   22.2219 H   0  0  0  0  0  0  0  0  0  0  0  0
   43.5354   -7.6362   20.9878 H   0  0  0  0  0  0  0  0  0  0  0  0
   42.3292   -3.7010   20.5578 H   0  0  0  0  0  0  0  0  0  0  0  0
   41.9209   -4.3974   21.9773 H   0  0  0  0  0  0  0  0  0  0  0  0
   40.4834   -5.5980   17.1082 H   0  0  0  0  0  0  0  0  0  0  0  0
   39.2058   -9.3544   18.3613 H   0  0  0  0  0  0  0  0  0  0  0  0
   38.8750   -7.6205   19.7730 H   0  0  0  0  0  0  0  0  0  0  0  0
  1 13  2  0  0  0  0
  2 14  1  0  0  0  0
  3 15  2  0  0  0  0
  4 13  1  0  0  0  0
  4 16  1  0  0  0  0
  5 13  1  0  0  0  0
  5 18  1  0  0  0  0
  6  9  1  0  0  0  0
  6 10  1  0  0  0  0
  7  8  1  0  0  0  0
  7 11  2  0  0  0  0
  8 14  2  0  0  0  0
  9 15  1  0  0  0  0
 10 16  1  0  0  0  0
 11 17  1  0  0  0  0
 12 14  1  0  0  0  0
 12 17  2  0  0  0  0
 15 19  1  0  0  0  0
 16 19  2  0  0  0  0
 17 18  1  0  0  0  0
 18 19  1  0  0  0  0
  2 20  1  0  0  0  0
  4 21  1  0  0  0  0
  5 22  1  0  0  0  0
  6 23  1  0  0  0  0
  6 24  1  0  0  0  0
  7 25  1  0  0  0  0
  8 26  1  0  0  0  0
  9 27  1  0  0  0  0
  9 28  1  0  0  0  0
 10 29  1  0  0  0  0
 10 30  1  0  0  0  0
 11 31  1  0  0  0  0
 12 32  1  0  0  0  0
 18 33  1  0  0  0  0
M  END
> <pdb_id>
2X7C

> <uniprot_id>
P52732

> <usmiles>
S=C1NC2=C(C(=O)CCC2)[C@@H](N1)c3cc(O)ccc3

$$$$
L07_B_901
          07192416553D 1   1.00000     0.00000     0
            
 30 32  0  0  0  0            999 V2000
  -10.2391   21.0776  -33.4643 S   0  0  0  0  0  0  0  0  0  0  0  0
   -7.1252   18.4027  -36.4274 N   0  0  0  0  0  0  0  0  0  0  0  0
   -9.5265   18.8577  -34.6204 N   0  0  0  0  0  0  0  0  0  0  0  0
   -6.5870   20.6813  -36.1084 N   0  0  0  0  0  0  0  0  0  0  0  0
  -10.2691   18.5805  -31.0917 C   0  0  0  0  0  0  0  0  0  0  0  0
  -11.6301   18.9367  -31.6555 C   0  0  0  0  0  0  0  0  0  0  0  0
   -6.1947   24.2225  -35.3057 C   0  0  0  0  0  0  0  0  0  0  0  0
   -7.3008   24.4423  -34.4778 C   0  0  0  0  0  0  0  0  0  0  0  0
  -11.6647   18.6853  -33.1594 C   0  0  0  0  0  0  0  0  0  0  0  0
   -5.9590   22.9635  -35.8564 C   0  0  0  0  0  0  0  0  0  0  0  0
   -8.1986   23.4193  -34.1679 C   0  0  0  0  0  0  0  0  0  0  0  0
  -10.4760   19.3713  -33.7911 C   0  0  0  0  0  0  0  0  0  0  0  0
   -7.3902   19.6117  -35.8800 C   0  0  0  0  0  0  0  0  0  0  0  0
   -8.8566   21.0857  -34.4214 C   0  0  0  0  0  0  0  0  0  0  0  0
   -6.8239   21.9060  -35.5738 C   0  0  0  0  0  0  0  0  0  0  0  0
   -8.5827   19.7538  -35.0106 C   0  0  0  0  0  0  0  0  0  0  0  0
   -8.0020   22.1491  -34.6924 C   0  0  0  0  0  0  0  0  0  0  0  0
   -7.7307   17.6279  -36.2456 H   0  0  0  0  0  0  0  0  0  0  0  0
   -6.3237   18.2841  -37.0136 H   0  0  0  0  0  0  0  0  0  0  0  0
  -10.2617   18.7503  -30.1062 H   0  0  0  0  0  0  0  0  0  0  0  0
  -10.0791   17.6141  -31.2649 H   0  0  0  0  0  0  0  0  0  0  0  0
   -9.5685   19.1420  -31.5320 H   0  0  0  0  0  0  0  0  0  0  0  0
  -11.8175   19.9029  -31.4784 H   0  0  0  0  0  0  0  0  0  0  0  0
  -12.3281   18.3750  -31.2113 H   0  0  0  0  0  0  0  0  0  0  0  0
   -5.5673   24.9755  -35.5043 H   0  0  0  0  0  0  0  0  0  0  0  0
   -7.4521   25.3551  -34.0986 H   0  0  0  0  0  0  0  0  0  0  0  0
  -12.5105   19.0557  -33.5434 H   0  0  0  0  0  0  0  0  0  0  0  0
  -11.6201   17.7024  -33.3377 H   0  0  0  0  0  0  0  0  0  0  0  0
   -5.1703   22.8185  -36.4538 H   0  0  0  0  0  0  0  0  0  0  0  0
   -8.9800   23.6007  -33.5707 H   0  0  0  0  0  0  0  0  0  0  0  0
  1 12  1  0  0  0  0
  1 14  1  0  0  0  0
  2 13  1  0  0  0  0
  3 12  2  0  0  0  0
  3 16  1  0  0  0  0
  4 13  2  0  0  0  0
  4 15  1  0  0  0  0
  5  6  1  0  0  0  0
  6  9  1  0  0  0  0
  7  8  2  0  0  0  0
  7 10  1  0  0  0  0
  8 11  1  0  0  0  0
  9 12  1  0  0  0  0
 10 15  2  0  0  0  0
 11 17  2  0  0  0  0
 13 16  1  0  0  0  0
 14 16  2  0  0  0  0
 14 17  1  0  0  0  0
 15 17  1  0  0  0  0
  2 18  1  0  0  0  0
  2 19  1  0  0  0  0
  5 20  1  0  0  0  0
  5 21  1  0  0  0  0
  5 22  1  0  0  0  0
  6 23  1  0  0  0  0
  6 24  1  0  0  0  0
  7 25  1  0  0  0  0
  8 26  1  0  0  0  0
  9 27  1  0  0  0  0
  9 28  1  0  0  0  0
 10 29  1  0  0  0  0
 11 30  1  0  0  0  0
M  END
> <pdb_id>
3W3K

> <uniprot_id>
Q9NR97

> <usmiles>
S1c2c(N=C1CCC)c(nc3c2cccc3)N

$$$$
L1C_A_1246
          07192422073D 1   1.00000     0.00000     0
            
 62 66  0  0  0  0            999 V2000
   42.3501   28.5550   11.9239 Cl  0  0  0  0  0  0  0  0  0  0  0  0
   27.7709   28.5390   11.5315 F   0  0  0  0  0  0  0  0  0  0  0  0
   31.6618   26.6350   13.4305 F   0  0  0  0  0  0  0  0  0  0  0  0
   36.7728   27.8627   15.5791 O   0  0  0  0  0  0  0  0  0  0  0  0
   34.7172   28.4742   18.3049 O   0  0  0  0  0  0  0  0  0  0  0  0
   35.2450   33.8563   21.9607 O   0  0  0  0  0  0  0  0  0  0  0  0
   32.7107   30.6070   14.8186 O   0  0  0  0  0  0  0  0  0  0  0  0
   35.6459   32.4548   17.4505 N   0  0  0  0  0  0  0  0  0  0  0  0
   34.8956   30.2856   16.9902 N   0  0  0  0  0  0  0  0  0  0  0  0
   36.6094   28.5091   13.4553 N   0  0  0  0  0  0  0  0  0  0  0  0
   36.9669   34.0780   20.4281 N   0  0  0  0  0  0  0  0  0  0  0  0
   34.7507   28.3940   14.8236 N   0  0  0  0  0  0  0  0  0  0  0  0
   36.1517   33.4193   18.2538 C   0  0  0  0  0  0  0  0  0  0  0  0
   38.1286   34.6802   20.1288 C   0  0  0  0  0  0  0  0  0  0  0  0
   38.7122   35.6280   20.9649 C   0  0  0  0  0  0  0  0  0  0  0  0
   38.0857   35.9667   22.1594 C   0  0  0  0  0  0  0  0  0  0  0  0
   33.8105   28.8236   13.7975 C   0  0  0  0  0  0  0  0  0  0  0  0
   39.6502   28.9880   11.4863 C   0  0  0  0  0  0  0  0  0  0  0  0
   40.2755   28.0676   13.6246 C   0  0  0  0  0  0  0  0  0  0  0  0
   36.8839   35.3530   22.4950 C   0  0  0  0  0  0  0  0  0  0  0  0
   29.2632   29.9160   12.7324 C   0  0  0  0  0  0  0  0  0  0  0  0
   35.7014   30.8922   19.2150 C   0  0  0  0  0  0  0  0  0  0  0  0
   38.3136   28.9698   11.8741 C   0  0  0  0  0  0  0  0  0  0  0  0
   38.9491   28.0550   14.0065 C   0  0  0  0  0  0  0  0  0  0  0  0
   36.2215   31.8638   20.0555 C   0  0  0  0  0  0  0  0  0  0  0  0
   30.4359   30.0698   13.4667 C   0  0  0  0  0  0  0  0  0  0  0  0
   29.7314   27.5747   12.4905 C   0  0  0  0  0  0  0  0  0  0  0  0
   32.5731   28.4455   15.8247 C   0  0  0  0  0  0  0  0  0  0  0  0
   40.6259   28.5326   12.3695 C   0  0  0  0  0  0  0  0  0  0  0  0
   36.0731   28.1881   14.6405 C   0  0  0  0  0  0  0  0  0  0  0  0
   28.9064   28.6696   12.2472 C   0  0  0  0  0  0  0  0  0  0  0  0
   34.5782   29.0064   17.2295 C   0  0  0  0  0  0  0  0  0  0  0  0
   35.4108   31.1909   17.8824 C   0  0  0  0  0  0  0  0  0  0  0  0
   30.9101   27.7294   13.2259 C   0  0  0  0  0  0  0  0  0  0  0  0
   36.3197   34.4065   21.6413 C   0  0  0  0  0  0  0  0  0  0  0  0
   37.9443   28.5153   13.1356 C   0  0  0  0  0  0  0  0  0  0  0  0
   36.4519   33.1493   19.5892 C   0  0  0  0  0  0  0  0  0  0  0  0
   34.0475   28.1534   16.0972 C   0  0  2  0  0  0  0  0  0  0  0  0
   31.2818   28.9826   13.7243 C   0  0  0  0  0  0  0  0  0  0  0  0
   32.5471   29.2170   14.5275 C   0  0  1  0  0  0  0  0  0  0  0  0
   31.9050   30.9424   15.3067 H   0  0  0  0  0  0  0  0  0  0  0  0
   34.7398   30.6166   16.0595 H   0  0  0  0  0  0  0  0  0  0  0  0
   35.9726   28.7708   12.7301 H   0  0  0  0  0  0  0  0  0  0  0  0
   36.3119   34.3353   17.8862 H   0  0  0  0  0  0  0  0  0  0  0  0
   38.5910   34.4395   19.2754 H   0  0  0  0  0  0  0  0  0  0  0  0
   39.5758   36.0622   20.7085 H   0  0  0  0  0  0  0  0  0  0  0  0
   38.4950   36.6443   22.7704 H   0  0  0  0  0  0  0  0  0  0  0  0
   33.6251   28.0750   13.1609 H   0  0  0  0  0  0  0  0  0  0  0  0
   34.1788   29.6054   13.2944 H   0  0  0  0  0  0  0  0  0  0  0  0
   39.9078   29.3253   10.5808 H   0  0  0  0  0  0  0  0  0  0  0  0
   40.9813   27.7414   14.2534 H   0  0  0  0  0  0  0  0  0  0  0  0
   36.4236   35.5912   23.3502 H   0  0  0  0  0  0  0  0  0  0  0  0
   28.6777   30.7071   12.5553 H   0  0  0  0  0  0  0  0  0  0  0  0
   35.5330   29.9709   19.5655 H   0  0  0  0  0  0  0  0  0  0  0  0
   37.6103   29.2873   11.2380 H   0  0  0  0  0  0  0  0  0  0  0  0
   38.6993   27.7147   14.9130 H   0  0  0  0  0  0  0  0  0  0  0  0
   36.4324   31.6359   21.0061 H   0  0  0  0  0  0  0  0  0  0  0  0
   30.6796   30.9741   13.8172 H   0  0  0  0  0  0  0  0  0  0  0  0
   29.4795   26.6736   12.1376 H   0  0  0  0  0  0  0  0  0  0  0  0
   32.1829   28.9932   16.5648 H   0  0  0  0  0  0  0  0  0  0  0  0
   32.0589   27.5926   15.7343 H   0  0  0  0  0  0  0  0  0  0  0  0
   34.1462   27.1895   16.3443 H   0  0  0  0  0  0  0  0  0  0  0  0
  1 29  1  0  0  0  0
  2 31  1  0  0  0  0
  3 34  1  0  0  0  0
  4 30  2  0  0  0  0
  5 32  2  0  0  0  0
  6 35  2  0  0  0  0
  7 40  1  0  0  0  0
  8 13  1  0  0  0  0
  8 33  2  0  0  0  0
  9 32  1  0  0  0  0
  9 33  1  0  0  0  0
 10 30  1  0  0  0  0
 10 36  1  0  0  0  0
 11 14  1  0  0  0  0
 11 35  1  0  0  0  0
 11 37  1  0  0  0  0
 12 17  1  0  0  0  0
 12 30  1  0  0  0  0
 12 38  1  0  0  0  0
 13 37  2  0  0  0  0
 14 15  2  0  0  0  0
 15 16  1  0  0  0  0
 16 20  2  0  0  0  0
 17 40  1  0  0  0  0
 18 23  1  0  0  0  0
 18 29  2  0  0  0  0
 19 24  2  0  0  0  0
 19 29  1  0  0  0  0
 20 35  1  0  0  0  0
 21 26  2  0  0  0  0
 21 31  1  0  0  0  0
 22 25  2  0  0  0  0
 22 33  1  0  0  0  0
 23 36  2  0  0  0  0
 24 36  1  0  0  0  0
 25 37  1  0  0  0  0
 26 39  1  0  0  0  0
 27 31  2  0  0  0  0
 27 34  1  0  0  0  0
 28 38  1  0  0  0  0
 28 40  1  0  0  0  0
 32 38  1  0  0  0  0
 34 39  2  0  0  0  0
 39 40  1  0  0  0  0
  7 41  1  0  0  0  0
  9 42  1  0  0  0  0
 10 43  1  0  0  0  0
 13 44  1  0  0  0  0
 14 45  1  0  0  0  0
 15 46  1  0  0  0  0
 16 47  1  0  0  0  0
 17 48  1  0  0  0  0
 17 49  1  0  0  0  0
 18 50  1  0  0  0  0
 19 51  1  0  0  0  0
 20 52  1  0  0  0  0
 21 53  1  0  0  0  0
 22 54  1  0  0  0  0
 23 55  1  0  0  0  0
 24 56  1  0  0  0  0
 25 57  1  0  0  0  0
 26 58  1  0  0  0  0
 27 59  1  0  0  0  0
 28 60  1  0  0  0  0
 28 61  1  0  0  0  0
 38 62  1  0  0  0  0
M  END
> <pdb_id>
2W3I

> <uniprot_id>
P00742

> <usmiles>
Clc1ccc(NC(=O)N2[C@@H](C(=O)Nc3ncc(N4C(=O)C=CC=C4)cc3)C[C@](O)(c5c(F)cc(F)cc5)C2)cc1

$$$$
L1O_A_1246
          07202413303D 1   1.00000     0.00000     0
            
 24 24  0  0  0  0            999 V2000
  -27.4862  -18.2135   -0.4973 Cl  0  0  0  0  0  0  0  0  0  0  0  0
  -29.5144  -17.3446   -5.4702 Cl  0  0  0  0  0  0  0  0  0  0  0  0
  -26.3379  -13.1886   -4.1065 O   0  0  0  0  0  0  0  0  0  0  0  0
  -25.0619  -14.0073   -2.4873 O   0  0  0  0  0  0  0  0  0  0  0  0
  -29.2206  -18.7665   -2.9375 O   0  0  0  0  0  0  0  0  0  0  0  0
  -31.2463  -20.9559   -2.4211 N   0  0  0  0  0  0  0  0  0  0  0  0
  -30.6344  -18.5438   -2.6788 C   0  0  0  0  0  0  0  0  0  0  0  0
  -31.4267  -19.7167   -3.2236 C   0  0  0  0  0  0  0  0  0  0  0  0
  -26.8182  -16.1102   -2.0661 C   0  0  0  0  0  0  0  0  0  0  0  0
  -27.7200  -15.7209   -4.2559 C   0  0  0  0  0  0  0  0  0  0  0  0
  -26.0629  -14.0809   -3.3274 C   0  0  0  0  0  0  0  0  0  0  0  0
  -27.5881  -17.2600   -1.9449 C   0  0  0  0  0  0  0  0  0  0  0  0
  -28.4812  -16.8767   -4.1572 C   0  0  0  0  0  0  0  0  0  0  0  0
  -28.4200  -17.6554   -3.0046 C   0  0  0  0  0  0  0  0  0  0  0  0
  -26.8786  -15.3335   -3.2186 C   0  0  0  0  0  0  0  0  0  0  0  0
  -27.1130  -13.2905   -4.7300 H   0  0  0  0  0  0  0  0  0  0  0  0
  -31.7881  -21.6945   -2.8222 H   0  0  0  0  0  0  0  0  0  0  0  0
  -30.2802  -21.2142   -2.4194 H   0  0  0  0  0  0  0  0  0  0  0  0
  -30.9292  -17.7015   -3.1301 H   0  0  0  0  0  0  0  0  0  0  0  0
  -30.7866  -18.4650   -1.6936 H   0  0  0  0  0  0  0  0  0  0  0  0
  -32.3969  -19.4744   -3.2237 H   0  0  0  0  0  0  0  0  0  0  0  0
  -31.1279  -19.8965   -4.1608 H   0  0  0  0  0  0  0  0  0  0  0  0
  -26.2142  -15.8379   -1.3170 H   0  0  0  0  0  0  0  0  0  0  0  0
  -27.7770  -15.1602   -5.0820 H   0  0  0  0  0  0  0  0  0  0  0  0
  1 12  1  0  0  0  0
  2 13  1  0  0  0  0
  3 11  1  0  0  0  0
  4 11  2  0  0  0  0
  5  7  1  0  0  0  0
  5 14  1  0  0  0  0
  6  8  1  0  0  0  0
  7  8  1  0  0  0  0
  9 12  1  0  0  0  0
  9 15  2  0  0  0  0
 10 13  2  0  0  0  0
 10 15  1  0  0  0  0
 11 15  1  0  0  0  0
 12 14  2  0  0  0  0
 13 14  1  0  0  0  0
  3 16  1  0  0  0  0
  6 17  1  0  0  0  0
  6 18  1  0  0  0  0
  7 19  1  0  0  0  0
  7 20  1  0  0  0  0
  8 21  1  0  0  0  0
  8 22  1  0  0  0  0
  9 23  1  0  0  0  0
 10 24  1  0  0  0  0
M  END
> <pdb_id>
2VIO

> <uniprot_id>
P00749

> <usmiles>
Clc1c(OCCN)c(Cl)cc(c1)C(=O)O

$$$$
L20_A_1351
          07192421293D 1   1.00000     0.00000     0
            
 53 57  0  0  0  0            999 V2000
   11.8460    9.1220    1.4320 O   0  0  0  0  0  0  0  0  0  0  0  0
   13.6780    6.9530    1.0090 N   0  0  0  0  0  0  0  0  0  0  0  0
    3.2910   10.2130    3.9520 N   0  0  0  0  0  0  0  0  0  0  0  0
    3.0470   10.0550    2.6330 N   0  0  0  0  0  0  0  0  0  0  0  0
    9.7940   10.4900   -1.2240 N   0  0  0  0  0  0  0  0  0  0  0  0
   15.2870   10.6400   -0.6800 N   0  0  0  0  0  0  0  0  0  0  0  0
    5.2660   10.4400    5.5250 C   0  0  0  0  0  0  0  0  0  0  0  0
   11.9780    8.1240    2.4350 C   0  0  0  0  0  0  0  0  0  0  0  0
   10.8200   10.0540   -0.4890 C   0  0  0  0  0  0  0  0  0  0  0  0
    8.5930   10.4500   -0.6350 C   0  0  0  0  0  0  0  0  0  0  0  0
   15.3690    9.5750    0.2160 C   0  0  0  0  0  0  0  0  0  0  0  0
   13.2600   13.7160    0.1230 C   0  0  0  0  0  0  0  0  0  0  0  0
   12.8400   13.2790    1.4070 C   0  0  0  0  0  0  0  0  0  0  0  0
   14.0800   12.9000   -0.6610 C   0  0  0  0  0  0  0  0  0  0  0  0
   13.2220   12.0460    1.9290 C   0  0  0  0  0  0  0  0  0  0  0  0
    4.5590    9.8680    0.5620 C   0  0  0  0  0  0  0  0  0  0  0  0
    5.8810    9.8780    0.1840 C   0  0  0  0  0  0  0  0  0  0  0  0
    9.4230    9.4970    1.4340 C   0  0  0  0  0  0  0  0  0  0  0  0
   14.4850    8.9090    2.5360 C   0  0  0  0  0  0  0  0  0  0  0  0
    6.6500   10.1370    2.5050 C   0  0  0  0  0  0  0  0  0  0  0  0
   10.6840    9.5480    0.8020 C   0  0  0  0  0  0  0  0  0  0  0  0
   13.4770    7.7060    2.3250 C   0  0  2  0  0  0  0  0  0  0  0  0
    4.6210   10.2650    4.1860 C   0  0  0  0  0  0  0  0  0  0  0  0
    4.2510   10.0170    1.9210 C   0  0  0  0  0  0  0  0  0  0  0  0
   14.4790   11.6510   -0.1260 C   0  0  0  0  0  0  0  0  0  0  0  0
    8.3300    9.9810    0.6680 C   0  0  0  0  0  0  0  0  0  0  0  0
   14.6420    9.8410    1.3870 C   0  0  0  0  0  0  0  0  0  0  0  0
    6.9390    9.9970    1.1450 C   0  0  0  0  0  0  0  0  0  0  0  0
    5.3130   10.1620    2.9070 C   0  0  0  0  0  0  0  0  0  0  0  0
   14.0590   11.1890    1.1860 C   0  0  0  0  0  0  0  0  0  0  0  0
   14.6359    6.6785    0.9250 H   0  0  0  0  0  0  0  0  0  0  0  0
   13.0961    6.1398    0.9980 H   0  0  0  0  0  0  0  0  0  0  0  0
    2.1376    9.9765    2.2244 H   0  0  0  0  0  0  0  0  0  0  0  0
   15.7318   10.6795   -1.5748 H   0  0  0  0  0  0  0  0  0  0  0  0
    6.2603   10.4444    5.4180 H   0  0  0  0  0  0  0  0  0  0  0  0
    4.9701   11.3066    5.9268 H   0  0  0  0  0  0  0  0  0  0  0  0
    4.9986    9.6859    6.1249 H   0  0  0  0  0  0  0  0  0  0  0  0
   11.3747    7.3481    2.2507 H   0  0  0  0  0  0  0  0  0  0  0  0
   11.7749    8.4964    3.3406 H   0  0  0  0  0  0  0  0  0  0  0  0
   11.7365   10.0928   -0.8871 H   0  0  0  0  0  0  0  0  0  0  0  0
    7.8135   10.7821   -1.1661 H   0  0  0  0  0  0  0  0  0  0  0  0
   15.8791    8.7317    0.0466 H   0  0  0  0  0  0  0  0  0  0  0  0
   12.9687   14.6087   -0.2207 H   0  0  0  0  0  0  0  0  0  0  0  0
   12.2517   13.8752    1.9533 H   0  0  0  0  0  0  0  0  0  0  0  0
   14.3758   13.1891   -1.5715 H   0  0  0  0  0  0  0  0  0  0  0  0
   12.9014   11.7674    2.8343 H   0  0  0  0  0  0  0  0  0  0  0  0
    3.8337    9.7569   -0.1175 H   0  0  0  0  0  0  0  0  0  0  0  0
    6.1107    9.8003   -0.7861 H   0  0  0  0  0  0  0  0  0  0  0  0
    9.3069    9.1427    2.3619 H   0  0  0  0  0  0  0  0  0  0  0  0
   15.3841    8.5219    2.7404 H   0  0  0  0  0  0  0  0  0  0  0  0
   14.1653    9.4415    3.3198 H   0  0  0  0  0  0  0  0  0  0  0  0
    7.3861   10.2177    3.1770 H   0  0  0  0  0  0  0  0  0  0  0  0
   13.6494    7.0519    3.0615 H   0  0  0  0  0  0  0  0  0  0  0  0
  1  8  1  0  0  0  0
  1 21  1  0  0  0  0
  2 22  1  0  0  0  0
  3  4  1  0  0  0  0
  3 23  2  0  0  0  0
  4 24  1  0  0  0  0
  5  9  2  0  0  0  0
  5 10  1  0  0  0  0
  6 11  1  0  0  0  0
  6 25  1  0  0  0  0
  7 23  1  0  0  0  0
  8 22  1  0  0  0  0
  9 21  1  0  0  0  0
 10 26  2  0  0  0  0
 11 27  2  0  0  0  0
 12 13  2  0  0  0  0
 12 14  1  0  0  0  0
 13 15  1  0  0  0  0
 14 25  2  0  0  0  0
 15 30  2  0  0  0  0
 16 17  1  0  0  0  0
 16 24  2  0  0  0  0
 17 28  2  0  0  0  0
 18 21  2  0  0  0  0
 18 26  1  0  0  0  0
 19 22  1  0  0  0  0
 19 27  1  0  0  0  0
 20 28  1  0  0  0  0
 20 29  2  0  0  0  0
 23 29  1  0  0  0  0
 24 29  1  0  0  0  0
 25 30  1  0  0  0  0
 26 28  1  0  0  0  0
 27 30  1  0  0  0  0
  2 31  1  0  0  0  0
  2 32  1  0  0  0  0
  4 33  1  0  0  0  0
  6 34  1  0  0  0  0
  7 35  1  0  0  0  0
  7 36  1  0  0  0  0
  7 37  1  0  0  0  0
  8 38  1  0  0  0  0
  8 39  1  0  0  0  0
  9 40  1  0  0  0  0
 10 41  1  0  0  0  0
 11 42  1  0  0  0  0
 12 43  1  0  0  0  0
 13 44  1  0  0  0  0
 14 45  1  0  0  0  0
 15 46  1  0  0  0  0
 16 47  1  0  0  0  0
 17 48  1  0  0  0  0
 18 49  1  0  0  0  0
 19 50  1  0  0  0  0
 19 51  1  0  0  0  0
 20 52  1  0  0  0  0
 22 53  1  0  0  0  0
M  END
> <pdb_id>
2JDS

> <uniprot_id>
P00517

> <usmiles>
O(c1cncc(c2cc3c(NN=C3C)cc2)c1)C[C@@H](N)CC=4c5c(NC4)cccc5

$$$$
L20_A_1351
          07192421303D 1   1.00000     0.00000     0
            
 53 57  0  0  0  0            999 V2000
   11.7250    8.8074    1.3300 O   0  0  0  0  0  0  0  0  0  0  0  0
   13.8348    7.0861    1.3262 N   0  0  0  0  0  0  0  0  0  0  0  0
    3.3184    9.9578    3.7228 N   0  0  0  0  0  0  0  0  0  0  0  0
    3.1320    9.9862    2.3888 N   0  0  0  0  0  0  0  0  0  0  0  0
   10.0350   10.8725   -1.1379 N   0  0  0  0  0  0  0  0  0  0  0  0
   12.0256    8.0733    6.8102 N   0  0  0  0  0  0  0  0  0  0  0  0
    5.3143    9.9094    5.2482 C   0  0  0  0  0  0  0  0  0  0  0  0
   11.5379    7.5543    1.9794 C   0  0  0  0  0  0  0  0  0  0  0  0
   10.9819   10.2219   -0.4833 C   0  0  0  0  0  0  0  0  0  0  0  0
    8.7639   10.7941   -0.7073 C   0  0  0  0  0  0  0  0  0  0  0  0
   12.9953    7.7747    5.8677 C   0  0  0  0  0  0  0  0  0  0  0  0
    9.2829   10.4637    6.0560 C   0  0  0  0  0  0  0  0  0  0  0  0
    9.6764   10.7258    4.7233 C   0  0  0  0  0  0  0  0  0  0  0  0
    9.9964    9.5779    6.8340 C   0  0  0  0  0  0  0  0  0  0  0  0
   10.8049   10.1655    4.1468 C   0  0  0  0  0  0  0  0  0  0  0  0
    4.5923   10.0504    0.2925 C   0  0  0  0  0  0  0  0  0  0  0  0
    5.9377   10.0562   -0.0428 C   0  0  0  0  0  0  0  0  0  0  0  0
    9.3922    9.3927    1.1429 C   0  0  0  0  0  0  0  0  0  0  0  0
   13.5500    8.3668    3.4535 C   0  0  0  0  0  0  0  0  0  0  0  0
    6.6822   10.0055    2.2867 C   0  0  0  0  0  0  0  0  0  0  0  0
   10.7046    9.4568    0.6584 C   0  0  0  0  0  0  0  0  0  0  0  0
   12.9549    7.2588    2.5177 C   0  0  2  0  0  0  0  0  0  0  0  0
    4.6459    9.9481    3.9377 C   0  0  0  0  0  0  0  0  0  0  0  0
    4.3040   10.0092    1.6824 C   0  0  0  0  0  0  0  0  0  0  0  0
   11.1271    8.9852    6.2666 C   0  0  0  0  0  0  0  0  0  0  0  0
    8.3824   10.0718    0.4569 C   0  0  0  0  0  0  0  0  0  0  0  0
   12.7596    8.4831    4.6894 C   0  0  0  0  0  0  0  0  0  0  0  0
    6.9862   10.0385    0.9094 C   0  0  0  0  0  0  0  0  0  0  0  0
    5.3405    9.9984    2.6739 C   0  0  0  0  0  0  0  0  0  0  0  0
   11.5672    9.2791    4.9110 C   0  0  0  0  0  0  0  0  0  0  0  0
   14.7685    6.8918    1.6268 H   0  0  0  0  0  0  0  0  0  0  0  0
   13.4983    6.3257    0.7708 H   0  0  0  0  0  0  0  0  0  0  0  0
    2.2292    9.9900    1.9586 H   0  0  0  0  0  0  0  0  0  0  0  0
   11.9789    7.6937    7.7342 H   0  0  0  0  0  0  0  0  0  0  0  0
    6.3056    9.9103    5.1170 H   0  0  0  0  0  0  0  0  0  0  0  0
    5.0480   10.7120    5.7820 H   0  0  0  0  0  0  0  0  0  0  0  0
    5.0434    9.0797    5.7363 H   0  0  0  0  0  0  0  0  0  0  0  0
   11.2403    6.8511    1.3338 H   0  0  0  0  0  0  0  0  0  0  0  0
   10.8739    7.6261    2.7236 H   0  0  0  0  0  0  0  0  0  0  0  0
   11.9245   10.2772   -0.8126 H   0  0  0  0  0  0  0  0  0  0  0  0
    8.0536   11.2656   -1.2300 H   0  0  0  0  0  0  0  0  0  0  0  0
   13.7560    7.1416    6.0113 H   0  0  0  0  0  0  0  0  0  0  0  0
    8.4811   10.9243    6.4366 H   0  0  0  0  0  0  0  0  0  0  0  0
    9.1151   11.3433    4.1723 H   0  0  0  0  0  0  0  0  0  0  0  0
    9.7152    9.3671    7.7702 H   0  0  0  0  0  0  0  0  0  0  0  0
   11.0667   10.3899    3.2081 H   0  0  0  0  0  0  0  0  0  0  0  0
    3.8712   10.0738   -0.4000 H   0  0  0  0  0  0  0  0  0  0  0  0
    6.1817   10.0739   -1.0124 H   0  0  0  0  0  0  0  0  0  0  0  0
    9.1811    8.8685    1.9680 H   0  0  0  0  0  0  0  0  0  0  0  0
   13.5385    9.2435    2.9727 H   0  0  0  0  0  0  0  0  0  0  0  0
   14.4923    8.1273    3.6877 H   0  0  0  0  0  0  0  0  0  0  0  0
    7.4115    9.9876    2.9706 H   0  0  0  0  0  0  0  0  0  0  0  0
   12.9298    6.3959    3.0224 H   0  0  0  0  0  0  0  0  0  0  0  0
  1  8  1  0  0  0  0
  1 21  1  0  0  0  0
  2 22  1  0  0  0  0
  3  4  1  0  0  0  0
  3 23  2  0  0  0  0
  4 24  1  0  0  0  0
  5  9  2  0  0  0  0
  5 10  1  0  0  0  0
  6 11  1  0  0  0  0
  6 25  1  0  0  0  0
  7 23  1  0  0  0  0
  8 22  1  0  0  0  0
  9 21  1  0  0  0  0
 10 26  2  0  0  0  0
 11 27  2  0  0  0  0
 12 13  2  0  0  0  0
 12 14  1  0  0  0  0
 13 15  1  0  0  0  0
 14 25  2  0  0  0  0
 15 30  2  0  0  0  0
 16 17  1  0  0  0  0
 16 24  2  0  0  0  0
 17 28  2  0  0  0  0
 18 21  2  0  0  0  0
 18 26  1  0  0  0  0
 19 22  1  0  0  0  0
 19 27  1  0  0  0  0
 20 28  1  0  0  0  0
 20 29  2  0  0  0  0
 23 29  1  0  0  0  0
 24 29  1  0  0  0  0
 25 30  1  0  0  0  0
 26 28  1  0  0  0  0
 27 30  1  0  0  0  0
  2 31  1  0  0  0  0
  2 32  1  0  0  0  0
  4 33  1  0  0  0  0
  6 34  1  0  0  0  0
  7 35  1  0  0  0  0
  7 36  1  0  0  0  0
  7 37  1  0  0  0  0
  8 38  1  0  0  0  0
  8 39  1  0  0  0  0
  9 40  1  0  0  0  0
 10 41  1  0  0  0  0
 11 42  1  0  0  0  0
 12 43  1  0  0  0  0
 13 44  1  0  0  0  0
 14 45  1  0  0  0  0
 15 46  1  0  0  0  0
 16 47  1  0  0  0  0
 17 48  1  0  0  0  0
 18 49  1  0  0  0  0
 19 50  1  0  0  0  0
 19 51  1  0  0  0  0
 20 52  1  0  0  0  0
 22 53  1  0  0  0  0
M  END
> <pdb_id>
2JDV

> <uniprot_id>
P00517

> <usmiles>
O(c1cncc(c2cc3c(NN=C3C)cc2)c1)C[C@@H](N)CC=4c5c(NC4)cccc5

$$$$
L20_A_1480
          07192421293D 1   1.00000     0.00000     0
            
 53 57  0  0  0  0            999 V2000
   19.7380   -0.5100   42.7790 O   0  0  0  0  0  0  0  0  0  0  0  0
   19.4080   -2.8910   43.8140 N   0  0  0  0  0  0  0  0  0  0  0  0
   23.5550    7.3540   42.7790 N   0  0  0  0  0  0  0  0  0  0  0  0
   22.2600    7.8520   42.5400 N   0  0  0  0  0  0  0  0  0  0  0  0
   18.2430    1.5120   40.2990 N   0  0  0  0  0  0  0  0  0  0  0  0
   24.9860   -1.7200   44.0820 N   0  0  0  0  0  0  0  0  0  0  0  0
   24.7540    5.1480   42.8080 C   0  0  0  0  0  0  0  0  0  0  0  0
   20.3600   -0.6170   44.0300 C   0  0  0  0  0  0  0  0  0  0  0  0
   18.5720    0.4950   41.0490 C   0  0  0  0  0  0  0  0  0  0  0  0
   18.7750    2.7080   40.4540 C   0  0  0  0  0  0  0  0  0  0  0  0
   23.8490   -2.5050   44.1090 C   0  0  0  0  0  0  0  0  0  0  0  0
   25.2240    1.3550   41.8630 C   0  0  0  0  0  0  0  0  0  0  0  0
   23.9530    1.2400   41.3080 C   0  0  0  0  0  0  0  0  0  0  0  0
   25.6390    0.4150   42.7960 C   0  0  0  0  0  0  0  0  0  0  0  0
   23.1210    0.1960   41.6930 C   0  0  0  0  0  0  0  0  0  0  0  0
   20.1050    6.6630   41.9140 C   0  0  0  0  0  0  0  0  0  0  0  0
   19.5860    5.4320   41.6350 C   0  0  0  0  0  0  0  0  0  0  0  0
   20.0980    1.8320   42.2610 C   0  0  0  0  0  0  0  0  0  0  0  0
   21.5730   -2.5550   43.0010 C   0  0  0  0  0  0  0  0  0  0  0  0
   21.7160    4.3580   42.0190 C   0  0  0  0  0  0  0  0  0  0  0  0
   19.5030    0.6170   42.0680 C   0  0  0  0  0  0  0  0  0  0  0  0
   20.6140   -2.1200   44.0980 C   0  0  2  0  0  0  0  0  0  0  0  0
   23.5880    6.0490   42.6400 C   0  0  0  0  0  0  0  0  0  0  0  0
   21.4500    6.7790   42.2150 C   0  0  0  0  0  0  0  0  0  0  0  0
   24.8190   -0.6610   43.1940 C   0  0  0  0  0  0  0  0  0  0  0  0
   19.7380    2.9220   41.4290 C   0  0  0  0  0  0  0  0  0  0  0  0
   22.9410   -1.9760   43.2520 C   0  0  0  0  0  0  0  0  0  0  0  0
   20.3710    4.2610   41.6810 C   0  0  0  0  0  0  0  0  0  0  0  0
   22.2490    5.6180   42.2680 C   0  0  0  0  0  0  0  0  0  0  0  0
   23.5320   -0.7740   42.6430 C   0  0  0  0  0  0  0  0  0  0  0  0
   19.6162   -3.8676   43.8685 H   0  0  0  0  0  0  0  0  0  0  0  0
   18.7012   -2.6630   44.4836 H   0  0  0  0  0  0  0  0  0  0  0  0
   21.9767    8.8094   42.5953 H   0  0  0  0  0  0  0  0  0  0  0  0
   25.8102   -1.8885   44.6226 H   0  0  0  0  0  0  0  0  0  0  0  0
   24.4729    4.2037   42.6370 H   0  0  0  0  0  0  0  0  0  0  0  0
   25.4702    5.4053   42.1593 H   0  0  0  0  0  0  0  0  0  0  0  0
   25.1050    5.2276   43.7410 H   0  0  0  0  0  0  0  0  0  0  0  0
   19.7574   -0.3122   44.7675 H   0  0  0  0  0  0  0  0  0  0  0  0
   21.2142   -0.0980   44.0615 H   0  0  0  0  0  0  0  0  0  0  0  0
   18.1420   -0.3927   40.8841 H   0  0  0  0  0  0  0  0  0  0  0  0
   18.4835    3.4632   39.8669 H   0  0  0  0  0  0  0  0  0  0  0  0
   23.7180   -3.3248   44.6665 H   0  0  0  0  0  0  0  0  0  0  0  0
   25.8294    2.1039   41.5935 H   0  0  0  0  0  0  0  0  0  0  0  0
   23.6390    1.9078   40.6331 H   0  0  0  0  0  0  0  0  0  0  0  0
   26.5497    0.5037   43.1994 H   0  0  0  0  0  0  0  0  0  0  0  0
   22.2085    0.1266   41.2898 H   0  0  0  0  0  0  0  0  0  0  0  0
   19.5187    7.4730   41.9009 H   0  0  0  0  0  0  0  0  0  0  0  0
   18.6192    5.3579   41.3904 H   0  0  0  0  0  0  0  0  0  0  0  0
   20.7806    1.9511   42.9820 H   0  0  0  0  0  0  0  0  0  0  0  0
   21.2338   -2.2319   42.1175 H   0  0  0  0  0  0  0  0  0  0  0  0
   21.6329   -3.5531   42.9903 H   0  0  0  0  0  0  0  0  0  0  0  0
   22.2875    3.5398   42.0817 H   0  0  0  0  0  0  0  0  0  0  0  0
   20.9796   -2.3684   44.9950 H   0  0  0  0  0  0  0  0  0  0  0  0
  1  8  1  0  0  0  0
  1 21  1  0  0  0  0
  2 22  1  0  0  0  0
  3  4  1  0  0  0  0
  3 23  2  0  0  0  0
  4 24  1  0  0  0  0
  5  9  2  0  0  0  0
  5 10  1  0  0  0  0
  6 11  1  0  0  0  0
  6 25  1  0  0  0  0
  7 23  1  0  0  0  0
  8 22  1  0  0  0  0
  9 21  1  0  0  0  0
 10 26  2  0  0  0  0
 11 27  2  0  0  0  0
 12 13  2  0  0  0  0
 12 14  1  0  0  0  0
 13 15  1  0  0  0  0
 14 25  2  0  0  0  0
 15 30  2  0  0  0  0
 16 17  1  0  0  0  0
 16 24  2  0  0  0  0
 17 28  2  0  0  0  0
 18 21  2  0  0  0  0
 18 26  1  0  0  0  0
 19 22  1  0  0  0  0
 19 27  1  0  0  0  0
 20 28  1  0  0  0  0
 20 29  2  0  0  0  0
 23 29  1  0  0  0  0
 24 29  1  0  0  0  0
 25 30  1  0  0  0  0
 26 28  1  0  0  0  0
 27 30  1  0  0  0  0
  2 31  1  0  0  0  0
  2 32  1  0  0  0  0
  4 33  1  0  0  0  0
  6 34  1  0  0  0  0
  7 35  1  0  0  0  0
  7 36  1  0  0  0  0
  7 37  1  0  0  0  0
  8 38  1  0  0  0  0
  8 39  1  0  0  0  0
  9 40  1  0  0  0  0
 10 41  1  0  0  0  0
 11 42  1  0  0  0  0
 12 43  1  0  0  0  0
 13 44  1  0  0  0  0
 14 45  1  0  0  0  0
 15 46  1  0  0  0  0
 16 47  1  0  0  0  0
 17 48  1  0  0  0  0
 18 49  1  0  0  0  0
 19 50  1  0  0  0  0
 19 51  1  0  0  0  0
 20 52  1  0  0  0  0
 22 53  1  0  0  0  0
M  END
> <pdb_id>
2JDR

> <uniprot_id>
P31751

> <usmiles>
O(c1cncc(c2cc3c(NN=C3C)cc2)c1)C[C@@H](N)CC=4c5c(NC4)cccc5

$$$$
L20_A_401
          07192419233D 1   1.00000     0.00000     0
            
 53 57  0  0  0  0            999 V2000
  -15.0596   34.3289   -2.5254 O   0  0  0  0  0  0  0  0  0  0  0  0
  -12.7812   34.6031   -4.0655 N   0  0  0  0  0  0  0  0  0  0  0  0
  -21.0605   39.4254    1.1705 N   0  0  0  0  0  0  0  0  0  0  0  0
  -20.4052   39.0735    2.3078 N   0  0  0  0  0  0  0  0  0  0  0  0
  -15.8865   33.2242    0.7129 N   0  0  0  0  0  0  0  0  0  0  0  0
  -17.4311   36.2058   -7.1093 N   0  0  0  0  0  0  0  0  0  0  0  0
  -21.1187   38.8524   -1.1969 C   0  0  0  0  0  0  0  0  0  0  0  0
  -14.7854   35.5360   -3.1826 C   0  0  0  0  0  0  0  0  0  0  0  0
  -15.3711   33.3053   -0.4681 C   0  0  0  0  0  0  0  0  0  0  0  0
  -16.6801   34.1251    1.1495 C   0  0  0  0  0  0  0  0  0  0  0  0
  -16.1778   35.7423   -7.0036 C   0  0  0  0  0  0  0  0  0  0  0  0
  -19.9222   35.4262   -4.5605 C   0  0  0  0  0  0  0  0  0  0  0  0
  -19.0960   34.6675   -3.7767 C   0  0  0  0  0  0  0  0  0  0  0  0
  -19.4719   35.9854   -5.7077 C   0  0  0  0  0  0  0  0  0  0  0  0
  -17.8070   34.4735   -4.1094 C   0  0  0  0  0  0  0  0  0  0  0  0
  -18.6266   37.4313    2.8210 C   0  0  0  0  0  0  0  0  0  0  0  0
  -17.8464   36.5040    2.2665 C   0  0  0  0  0  0  0  0  0  0  0  0
  -16.4785   35.3115   -0.8947 C   0  0  0  0  0  0  0  0  0  0  0  0
  -14.8052   34.3513   -5.3989 C   0  0  0  0  0  0  0  0  0  0  0  0
  -18.8032   36.8906    0.1290 C   0  0  0  0  0  0  0  0  0  0  0  0
  -15.6316   34.3315   -1.3247 C   0  0  0  0  0  0  0  0  0  0  0  0
  -14.0108   35.2551   -4.4527 C   0  0  2  0  0  0  0  0  0  0  0  0
  -20.6326   38.7299    0.2041 C   0  0  0  0  0  0  0  0  0  0  0  0
  -19.5129   38.1096    2.0430 C   0  0  0  0  0  0  0  0  0  0  0  0
  -18.1632   35.7926   -6.0608 C   0  0  0  0  0  0  0  0  0  0  0  0
  -17.0215   35.1926    0.3708 C   0  0  0  0  0  0  0  0  0  0  0  0
  -16.0444   35.0264   -5.9048 C   0  0  0  0  0  0  0  0  0  0  0  0
  -17.9226   36.2123    0.9172 C   0  0  0  0  0  0  0  0  0  0  0  0
  -19.6105   37.8495    0.6943 C   0  0  0  0  0  0  0  0  0  0  0  0
  -17.3281   35.0329   -5.2612 C   0  0  0  0  0  0  0  0  0  0  0  0
  -12.2399   34.4007   -4.8816 H   0  0  0  0  0  0  0  0  0  0  0  0
  -12.2603   35.2059   -3.4610 H   0  0  0  0  0  0  0  0  0  0  0  0
  -20.5653   39.4747    3.2097 H   0  0  0  0  0  0  0  0  0  0  0  0
  -17.7711   36.7751   -7.8579 H   0  0  0  0  0  0  0  0  0  0  0  0
  -20.6316   38.1996   -1.7770 H   0  0  0  0  0  0  0  0  0  0  0  0
  -22.0993   38.6585   -1.2276 H   0  0  0  0  0  0  0  0  0  0  0  0
  -20.9521   39.7813   -1.5276 H   0  0  0  0  0  0  0  0  0  0  0  0
  -14.2422   36.1252   -2.5844 H   0  0  0  0  0  0  0  0  0  0  0  0
  -15.6447   35.9939   -3.4106 H   0  0  0  0  0  0  0  0  0  0  0  0
  -14.7513   32.5801   -0.7681 H   0  0  0  0  0  0  0  0  0  0  0  0
  -17.0557   34.0472    2.0730 H   0  0  0  0  0  0  0  0  0  0  0  0
  -15.4476   35.9151   -7.6646 H   0  0  0  0  0  0  0  0  0  0  0  0
  -20.8718   35.5694   -4.2817 H   0  0  0  0  0  0  0  0  0  0  0  0
  -19.4564   34.2503   -2.9425 H   0  0  0  0  0  0  0  0  0  0  0  0
  -20.0820   36.5279   -6.2852 H   0  0  0  0  0  0  0  0  0  0  0  0
  -17.2081   33.9281   -3.5229 H   0  0  0  0  0  0  0  0  0  0  0  0
  -18.5613   37.6267    3.7995 H   0  0  0  0  0  0  0  0  0  0  0  0
  -17.1923   36.0088    2.8382 H   0  0  0  0  0  0  0  0  0  0  0  0
  -16.6998   36.0929   -1.4781 H   0  0  0  0  0  0  0  0  0  0  0  0
  -15.0669   33.5200   -4.9086 H   0  0  0  0  0  0  0  0  0  0  0  0
  -14.2267   34.1106   -6.1782 H   0  0  0  0  0  0  0  0  0  0  0  0
  -18.8617   36.6931   -0.8495 H   0  0  0  0  0  0  0  0  0  0  0  0
  -13.8007   36.1176   -4.9130 H   0  0  0  0  0  0  0  0  0  0  0  0
  1  8  1  0  0  0  0
  1 21  1  0  0  0  0
  2 22  1  0  0  0  0
  3  4  1  0  0  0  0
  3 23  2  0  0  0  0
  4 24  1  0  0  0  0
  5  9  2  0  0  0  0
  5 10  1  0  0  0  0
  6 11  1  0  0  0  0
  6 25  1  0  0  0  0
  7 23  1  0  0  0  0
  8 22  1  0  0  0  0
  9 21  1  0  0  0  0
 10 26  2  0  0  0  0
 11 27  2  0  0  0  0
 12 13  2  0  0  0  0
 12 14  1  0  0  0  0
 13 15  1  0  0  0  0
 14 25  2  0  0  0  0
 15 30  2  0  0  0  0
 16 17  1  0  0  0  0
 16 24  2  0  0  0  0
 17 28  2  0  0  0  0
 18 21  2  0  0  0  0
 18 26  1  0  0  0  0
 19 22  1  0  0  0  0
 19 27  1  0  0  0  0
 20 28  1  0  0  0  0
 20 29  2  0  0  0  0
 23 29  1  0  0  0  0
 24 29  1  0  0  0  0
 25 30  1  0  0  0  0
 26 28  1  0  0  0  0
 27 30  1  0  0  0  0
  2 31  1  0  0  0  0
  2 32  1  0  0  0  0
  4 33  1  0  0  0  0
  6 34  1  0  0  0  0
  7 35  1  0  0  0  0
  7 36  1  0  0  0  0
  7 37  1  0  0  0  0
  8 38  1  0  0  0  0
  8 39  1  0  0  0  0
  9 40  1  0  0  0  0
 10 41  1  0  0  0  0
 11 42  1  0  0  0  0
 12 43  1  0  0  0  0
 13 44  1  0  0  0  0
 14 45  1  0  0  0  0
 15 46  1  0  0  0  0
 16 47  1  0  0  0  0
 17 48  1  0  0  0  0
 18 49  1  0  0  0  0
 19 50  1  0  0  0  0
 19 51  1  0  0  0  0
 20 52  1  0  0  0  0
 22 53  1  0  0  0  0
M  END
> <pdb_id>
5DGZ

> <uniprot_id>
P11309

> <usmiles>
O(c1cncc(c2cc3c(NN=C3C)cc2)c1)C[C@@H](N)CC=4c5c(NC4)cccc5

$$$$
L22_A_1447
          07202403363D 1   1.00000     0.00000     0
            
 20 21  0  0  0  0            999 V2000
   36.1071  128.7574   23.3638 S   0  0  0  0  0  0  0  0  0  0  0  0
   34.7009  130.8574   22.3873 N   0  0  0  0  0  0  0  0  0  0  0  0
   40.2955  134.5340   24.8234 N   0  0  0  0  0  0  0  0  0  0  0  0
   41.1448  132.5327   25.6652 N   0  0  0  0  0  0  0  0  0  0  0  0
   36.8009  131.2373   23.4634 N   0  0  0  0  0  0  0  0  0  0  0  0
   39.1189  132.5533   24.4731 N   0  0  0  0  0  0  0  0  0  0  0  0
   37.6124  129.1577   24.1194 C   0  0  0  0  0  0  0  0  0  0  0  0
   41.0597  131.2123   25.8429 C   0  0  0  0  0  0  0  0  0  0  0  0
   39.9740  130.5160   25.3389 C   0  0  0  0  0  0  0  0  0  0  0  0
   35.8080  130.4288   23.0244 C   0  0  0  0  0  0  0  0  0  0  0  0
   40.1874  133.2056   24.9872 C   0  0  0  0  0  0  0  0  0  0  0  0
   37.8030  130.5350   24.0702 C   0  0  0  0  0  0  0  0  0  0  0  0
   38.9967  131.2190   24.6360 C   0  0  0  0  0  0  0  0  0  0  0  0
   34.5706  131.8334   22.2128 H   0  0  0  0  0  0  0  0  0  0  0  0
   34.0094  130.1995   22.0889 H   0  0  0  0  0  0  0  0  0  0  0  0
   39.5897  135.0351   24.3228 H   0  0  0  0  0  0  0  0  0  0  0  0
   41.0819  135.0221   25.2021 H   0  0  0  0  0  0  0  0  0  0  0  0
   38.2464  128.5010   24.5277 H   0  0  0  0  0  0  0  0  0  0  0  0
   41.7791  130.7267   26.3394 H   0  0  0  0  0  0  0  0  0  0  0  0
   39.8927  129.5289   25.4764 H   0  0  0  0  0  0  0  0  0  0  0  0
  1  7  1  0  0  0  0
  1 10  1  0  0  0  0
  2 10  1  0  0  0  0
  3 11  1  0  0  0  0
  4  8  1  0  0  0  0
  4 11  2  0  0  0  0
  5 10  2  0  0  0  0
  5 12  1  0  0  0  0
  6 11  1  0  0  0  0
  6 13  2  0  0  0  0
  7 12  2  0  0  0  0
  8  9  2  0  0  0  0
  9 13  1  0  0  0  0
 12 13  1  0  0  0  0
  2 14  1  0  0  0  0
  2 15  1  0  0  0  0
  3 16  1  0  0  0  0
  3 17  1  0  0  0  0
  7 18  1  0  0  0  0
  8 19  1  0  0  0  0
  9 20  1  0  0  0  0
M  END
> <pdb_id>
2W70

> <uniprot_id>
P24182

> <usmiles>
S1C(=NC(c2nc(ncc2)N)=C1)N

$$$$
L23_A_1448
          07202403363D 1   1.00000     0.00000     0
            
 35 37  0  0  0  0            999 V2000
   33.8031  128.7901   25.1746 Cl  0  0  0  0  0  0  0  0  0  0  0  0
   37.3541  125.5177   22.5215 Cl  0  0  0  0  0  0  0  0  0  0  0  0
   40.5087  134.5284   24.8373 N   0  0  0  0  0  0  0  0  0  0  0  0
   41.2519  132.4504   25.6675 N   0  0  0  0  0  0  0  0  0  0  0  0
   39.2703  132.5937   24.4068 N   0  0  0  0  0  0  0  0  0  0  0  0
   36.8895  131.3498   23.3156 N   0  0  0  0  0  0  0  0  0  0  0  0
   36.3733  129.2359   23.1630 N   0  0  0  0  0  0  0  0  0  0  0  0
   34.7114  130.9025   22.1428 C   0  0  0  0  0  0  0  0  0  0  0  0
   41.0982  131.1253   25.8149 C   0  0  0  0  0  0  0  0  0  0  0  0
   37.5502  129.3070   23.7975 C   0  0  0  0  0  0  0  0  0  0  0  0
   35.6580  128.0013   22.8321 C   0  0  0  0  0  0  0  0  0  0  0  0
   35.4207  125.1810   26.0723 C   0  0  0  0  0  0  0  0  0  0  0  0
   40.0003  130.4853   25.2419 C   0  0  0  0  0  0  0  0  0  0  0  0
   34.6830  126.3642   26.1318 C   0  0  0  0  0  0  0  0  0  0  0  0
   36.2309  124.9206   24.9743 C   0  0  0  0  0  0  0  0  0  0  0  0
   40.3470  133.1904   24.9731 C   0  0  0  0  0  0  0  0  0  0  0  0
   35.9684  130.4841   22.8604 C   0  0  0  0  0  0  0  0  0  0  0  0
   34.7568  127.2787   25.0823 C   0  0  0  0  0  0  0  0  0  0  0  0
   36.3015  125.8454   23.9337 C   0  0  0  0  0  0  0  0  0  0  0  0
   37.8770  130.6492   23.8969 C   0  0  0  0  0  0  0  0  0  0  0  0
   39.0822  131.2575   24.5273 C   0  0  0  0  0  0  0  0  0  0  0  0
   35.5693  127.0232   23.9851 C   0  0  0  0  0  0  0  0  0  0  0  0
   39.8374  135.0636   24.3246 H   0  0  0  0  0  0  0  0  0  0  0  0
   41.2993  134.9809   25.2498 H   0  0  0  0  0  0  0  0  0  0  0  0
   34.1806  130.0907   21.8993 H   0  0  0  0  0  0  0  0  0  0  0  0
   34.1662  131.4902   22.7406 H   0  0  0  0  0  0  0  0  0  0  0  0
   34.9529  131.4043   21.3123 H   0  0  0  0  0  0  0  0  0  0  0  0
   41.7701  130.5979   26.3349 H   0  0  0  0  0  0  0  0  0  0  0  0
   38.0909  128.5367   24.1356 H   0  0  0  0  0  0  0  0  0  0  0  0
   36.1332  127.5541   22.0743 H   0  0  0  0  0  0  0  0  0  0  0  0
   34.7293  128.2404   22.5484 H   0  0  0  0  0  0  0  0  0  0  0  0
   35.3660  124.5201   26.8208 H   0  0  0  0  0  0  0  0  0  0  0  0
   39.8735  129.4983   25.3401 H   0  0  0  0  0  0  0  0  0  0  0  0
   34.1037  126.5552   26.9242 H   0  0  0  0  0  0  0  0  0  0  0  0
   36.7610  124.0738   24.9306 H   0  0  0  0  0  0  0  0  0  0  0  0
  1 18  1  0  0  0  0
  2 19  1  0  0  0  0
  3 16  1  0  0  0  0
  4  9  1  0  0  0  0
  4 16  2  0  0  0  0
  5 16  1  0  0  0  0
  5 21  2  0  0  0  0
  6 17  2  0  0  0  0
  6 20  1  0  0  0  0
  7 10  1  0  0  0  0
  7 11  1  0  0  0  0
  7 17  1  0  0  0  0
  8 17  1  0  0  0  0
  9 13  2  0  0  0  0
 10 20  2  0  0  0  0
 11 22  1  0  0  0  0
 12 14  2  0  0  0  0
 12 15  1  0  0  0  0
 13 21  1  0  0  0  0
 14 18  1  0  0  0  0
 15 19  2  0  0  0  0
 18 22  2  0  0  0  0
 19 22  1  0  0  0  0
 20 21  1  0  0  0  0
  3 23  1  0  0  0  0
  3 24  1  0  0  0  0
  8 25  1  0  0  0  0
  8 26  1  0  0  0  0
  8 27  1  0  0  0  0
  9 28  1  0  0  0  0
 10 29  1  0  0  0  0
 11 30  1  0  0  0  0
 11 31  1  0  0  0  0
 12 32  1  0  0  0  0
 13 33  1  0  0  0  0
 14 34  1  0  0  0  0
 15 35  1  0  0  0  0
M  END
> <pdb_id>
2W71

> <uniprot_id>
P24182

> <usmiles>
Clc1c(c(Cl)ccc1)CN2C(=NC(c3nc(ncc3)N)=C2)C

$$$$
L31_A_371
          07202413333D 1   1.00000     0.00000     0
            
 44 47  0  0  0  0            999 V2000
   40.8833   -9.1473   21.1650 O   0  0  0  0  0  0  0  0  0  0  0  0
   39.8970  -10.5110   16.1124 O   0  0  0  0  0  0  0  0  0  0  0  0
   38.2850   -5.0960   19.2100 N   0  0  0  0  0  0  0  0  0  0  0  0
   41.4798   -7.0960   20.2908 N   0  0  0  0  0  0  0  0  0  0  0  0
   42.9163   -8.4248   22.0226 C   0  0  0  0  0  0  0  0  0  0  0  0
   37.9287    0.1393   21.9054 C   0  0  0  0  0  0  0  0  0  0  0  0
   42.4258   -5.9514   20.3898 C   0  0  0  0  0  0  0  0  0  0  0  0
   40.7915   -6.8429   15.7523 C   0  0  0  0  0  0  0  0  0  0  0  0
   40.5263   -8.2096   15.4020 C   0  0  0  0  0  0  0  0  0  0  0  0
   36.8260   -2.8524   19.7098 C   0  0  0  0  0  0  0  0  0  0  0  0
   41.7494   -4.5580   20.6593 C   0  0  0  0  0  0  0  0  0  0  0  0
   40.6975   -6.4322   17.0818 C   0  0  0  0  0  0  0  0  0  0  0  0
   36.8120   -1.6311   20.3791 C   0  0  0  0  0  0  0  0  0  0  0  0
   40.0568   -8.7477   17.8206 C   0  0  0  0  0  0  0  0  0  0  0  0
   39.1330   -2.0614   21.2827 C   0  0  0  0  0  0  0  0  0  0  0  0
   41.7013   -8.2883   21.1344 C   0  0  0  0  0  0  0  0  0  0  0  0
   40.1541   -9.1727   16.4532 C   0  0  0  0  0  0  0  0  0  0  0  0
   38.0259   -3.7449   19.8101 C   0  0  0  0  0  0  0  0  0  0  0  0
   39.5378   -5.5913   19.6890 C   0  0  0  0  0  0  0  0  0  0  0  0
   40.1954   -6.9760   19.6329 C   0  0  1  0  0  0  0  0  0  0  0  0
   37.9752   -1.2143   21.1813 C   0  0  0  0  0  0  0  0  0  0  0  0
   40.3165   -7.4188   18.1644 C   0  0  0  0  0  0  0  0  0  0  0  0
   39.1424   -3.3464   20.5790 C   0  0  0  0  0  0  0  0  0  0  0  0
   40.2167   -4.4772   20.4649 C   0  0  0  0  0  0  0  0  0  0  0  0
   39.6440  -11.1680   16.8226 H   0  0  0  0  0  0  0  0  0  0  0  0
   37.6775   -5.5741   18.5756 H   0  0  0  0  0  0  0  0  0  0  0  0
   43.5146   -7.6341   21.8928 H   0  0  0  0  0  0  0  0  0  0  0  0
   42.6268   -8.4704   22.9787 H   0  0  0  0  0  0  0  0  0  0  0  0
   43.4114   -9.2602   21.7840 H   0  0  0  0  0  0  0  0  0  0  0  0
   38.7840    0.2803   22.4040 H   0  0  0  0  0  0  0  0  0  0  0  0
   37.8088    0.8719   21.2354 H   0  0  0  0  0  0  0  0  0  0  0  0
   37.1629    0.1472   22.5485 H   0  0  0  0  0  0  0  0  0  0  0  0
   42.9314   -5.8904   19.5292 H   0  0  0  0  0  0  0  0  0  0  0  0
   43.0625   -6.1379   21.1379 H   0  0  0  0  0  0  0  0  0  0  0  0
   41.0436   -6.1850   15.0426 H   0  0  0  0  0  0  0  0  0  0  0  0
   40.5939   -8.5064   14.4494 H   0  0  0  0  0  0  0  0  0  0  0  0
   36.0370   -3.1332   19.1634 H   0  0  0  0  0  0  0  0  0  0  0  0
   42.1683   -3.8936   20.0404 H   0  0  0  0  0  0  0  0  0  0  0  0
   41.9481   -4.3033   21.6057 H   0  0  0  0  0  0  0  0  0  0  0  0
   40.8832   -5.4792   17.3214 H   0  0  0  0  0  0  0  0  0  0  0  0
   36.0109   -1.0360   20.3150 H   0  0  0  0  0  0  0  0  0  0  0  0
   39.8022   -9.4052   18.5297 H   0  0  0  0  0  0  0  0  0  0  0  0
   39.9222   -1.7767   21.8269 H   0  0  0  0  0  0  0  0  0  0  0  0
   39.5729   -7.6161   20.0832 H   0  0  0  0  0  0  0  0  0  0  0  0
  1 16  2  0  0  0  0
  2 17  1  0  0  0  0
  3 18  1  0  0  0  0
  3 19  1  0  0  0  0
  4  7  1  0  0  0  0
  4 16  1  0  0  0  0
  4 20  1  0  0  0  0
  5 16  1  0  0  0  0
  6 21  1  0  0  0  0
  7 11  1  0  0  0  0
  8  9  1  0  0  0  0
  8 12  2  0  0  0  0
  9 17  2  0  0  0  0
 10 13  1  0  0  0  0
 10 18  2  0  0  0  0
 11 24  1  0  0  0  0
 12 22  1  0  0  0  0
 13 21  2  0  0  0  0
 14 17  1  0  0  0  0
 14 22  2  0  0  0  0
 15 21  1  0  0  0  0
 15 23  2  0  0  0  0
 18 23  1  0  0  0  0
 19 20  1  0  0  0  0
 19 24  2  0  0  0  0
 20 22  1  0  0  0  0
 23 24  1  0  0  0  0
  2 25  1  0  0  0  0
  3 26  1  0  0  0  0
  5 27  1  0  0  0  0
  5 28  1  0  0  0  0
  5 29  1  0  0  0  0
  6 30  1  0  0  0  0
  6 31  1  0  0  0  0
  6 32  1  0  0  0  0
  7 33  1  0  0  0  0
  7 34  1  0  0  0  0
  8 35  1  0  0  0  0
  9 36  1  0  0  0  0
 10 37  1  0  0  0  0
 11 38  1  0  0  0  0
 11 39  1  0  0  0  0
 12 40  1  0  0  0  0
 13 41  1  0  0  0  0
 14 42  1  0  0  0  0
 15 43  1  0  0  0  0
 20 44  1  0  0  0  0
M  END
> <pdb_id>
3K3B

> <uniprot_id>
P52732

> <usmiles>
O=C(N1[C@H](c2cc(O)ccc2)C=3Nc4c(cc(cc4)C)C3CC1)C

$$$$
L3L_A_351
          07202406393D 1   1.00000     0.00000     0
            
 36 38  0  0  0  0            999 V2000
    9.3561   -1.5673   -4.6416 O   0  0  0  0  0  0  0  0  0  0  0  0
   11.1120   -4.5850   -7.1937 O   0  0  0  0  0  0  0  0  0  0  0  0
   10.9097   -2.9652   -5.6148 N   0  0  0  0  0  0  0  0  0  0  0  0
   11.0674   -8.5051  -11.1732 N   0  0  0  0  0  0  0  0  0  0  0  0
    9.5409   -5.5452   -8.6460 N   0  0  0  0  0  0  0  0  0  0  0  0
   11.8810   -7.3248  -10.9555 C   0  0  0  0  0  0  0  0  0  0  0  0
   10.5420   -8.9327   -9.8866 C   0  0  0  0  0  0  0  0  0  0  0  0
    8.2595   -5.2076   -9.2193 C   0  0  0  0  0  0  0  0  0  0  0  0
    6.5006   -2.3852   -7.4113 C   0  0  0  0  0  0  0  0  0  0  0  0
   10.9719   -6.2079  -10.5079 C   0  0  0  0  0  0  0  0  0  0  0  0
    9.5974   -7.8765   -9.3679 C   0  0  0  0  0  0  0  0  0  0  0  0
    6.6741   -3.4040   -8.3264 C   0  0  0  0  0  0  0  0  0  0  0  0
    7.4959   -2.0751   -6.5033 C   0  0  0  0  0  0  0  0  0  0  0  0
    9.6813   -2.3720   -5.5018 C   0  0  0  0  0  0  0  0  0  0  0  0
    9.9969   -4.6642   -7.6920 C   0  0  0  0  0  0  0  0  0  0  0  0
   10.3670   -6.5944   -9.1830 C   0  0  0  0  0  0  0  0  0  0  0  0
    7.8702   -4.0838   -8.3303 C   0  0  0  0  0  0  0  0  0  0  0  0
    8.6876   -2.7674   -6.5068 C   0  0  0  0  0  0  0  0  0  0  0  0
    8.8607   -3.7710   -7.4401 C   0  0  0  0  0  0  0  0  0  0  0  0
   11.0853   -3.6146   -6.3547 H   0  0  0  0  0  0  0  0  0  0  0  0
   11.6317   -2.7492   -4.9574 H   0  0  0  0  0  0  0  0  0  0  0  0
   11.6256   -9.2334  -11.5707 H   0  0  0  0  0  0  0  0  0  0  0  0
   12.3407   -7.0681  -11.8057 H   0  0  0  0  0  0  0  0  0  0  0  0
   12.5647   -7.5095  -10.2495 H   0  0  0  0  0  0  0  0  0  0  0  0
   11.2953   -9.0556   -9.2406 H   0  0  0  0  0  0  0  0  0  0  0  0
   10.0515   -9.7974   -9.9951 H   0  0  0  0  0  0  0  0  0  0  0  0
    7.6139   -5.9689   -9.1602 H   0  0  0  0  0  0  0  0  0  0  0  0
    8.3441   -4.9155  -10.1720 H   0  0  0  0  0  0  0  0  0  0  0  0
    5.6460   -1.8660   -7.4051 H   0  0  0  0  0  0  0  0  0  0  0  0
   10.2475   -6.0699  -11.1833 H   0  0  0  0  0  0  0  0  0  0  0  0
   11.4980   -5.3635  -10.4062 H   0  0  0  0  0  0  0  0  0  0  0  0
    9.2134   -8.1685   -8.4920 H   0  0  0  0  0  0  0  0  0  0  0  0
    8.8575   -7.7337  -10.0253 H   0  0  0  0  0  0  0  0  0  0  0  0
    5.9478   -3.6422   -8.9712 H   0  0  0  0  0  0  0  0  0  0  0  0
    7.3499   -1.3425   -5.8384 H   0  0  0  0  0  0  0  0  0  0  0  0
   11.1115   -6.7671   -8.5380 H   0  0  0  0  0  0  0  0  0  0  0  0
  1 14  2  0  0  0  0
  2 15  2  0  0  0  0
  3 14  1  0  0  0  0
  4  6  1  0  0  0  0
  4  7  1  0  0  0  0
  5  8  1  0  0  0  0
  5 15  1  0  0  0  0
  5 16  1  0  0  0  0
  6 10  1  0  0  0  0
  7 11  1  0  0  0  0
  8 17  1  0  0  0  0
  9 12  2  0  0  0  0
  9 13  1  0  0  0  0
 10 16  1  0  0  0  0
 11 16  1  0  0  0  0
 12 17  1  0  0  0  0
 13 18  2  0  0  0  0
 14 18  1  0  0  0  0
 15 19  1  0  0  0  0
 17 19  2  0  0  0  0
 18 19  1  0  0  0  0
  3 20  1  0  0  0  0
  3 21  1  0  0  0  0
  4 22  1  0  0  0  0
  6 23  1  0  0  0  0
  6 24  1  0  0  0  0
  7 25  1  0  0  0  0
  7 26  1  0  0  0  0
  8 27  1  0  0  0  0
  8 28  1  0  0  0  0
  9 29  1  0  0  0  0
 10 30  1  0  0  0  0
 10 31  1  0  0  0  0
 11 32  1  0  0  0  0
 11 33  1  0  0  0  0
 12 34  1  0  0  0  0
 13 35  1  0  0  0  0
 16 36  1  0  0  0  0
M  END
> <pdb_id>
3L3L

> <uniprot_id>
P09874

> <usmiles>
O=C1N(C2CCNCC2)Cc3c1c(ccc3)C(=O)N

$$$$
L3U_A_901
          07212403303D 1   1.00000     0.00000     0
            
 56 57  0  0  0  0            999 V2000
   -4.1242   -6.5956  -27.2864 S   0  0  0  0  0  0  0  0  0  0  0  0
   -4.7838   -6.1500  -26.1145 O   0  0  0  0  0  0  0  0  0  0  0  0
   -3.4363   -7.8358  -27.3278 O   0  0  0  0  0  0  0  0  0  0  0  0
  -11.2411   -7.2797  -30.0984 O   0  0  0  0  0  0  0  0  0  0  0  0
  -11.9139   -8.6840  -25.8284 O   0  0  0  0  0  0  0  0  0  0  0  0
   -4.2398   -3.6408  -27.7379 O   0  0  0  0  0  0  0  0  0  0  0  0
   -9.0970   -4.4108  -29.5052 O   0  0  0  0  0  0  0  0  0  0  0  0
   -7.2252   -4.7266  -31.5672 O   0  0  0  0  0  0  0  0  0  0  0  0
   -5.3537   -6.6348  -28.3007 O   0  0  0  0  0  0  0  0  0  0  0  0
   -7.4608   -7.5313  -29.9374 O   0  0  0  0  0  0  0  0  0  0  0  0
   -0.8650   -4.4332  -28.7468 N   0  0  0  0  0  0  0  0  0  0  0  0
   -3.0261   -5.5760  -27.8330 N   0  0  0  0  0  0  0  0  0  0  0  0
  -11.5822   -7.9724  -27.9610 N   0  0  0  0  0  0  0  0  0  0  0  0
   -9.4437   -7.3539  -28.6881 N   0  0  0  0  0  0  0  0  0  0  0  0
  -13.0183   -8.0869  -28.2331 C   0  0  0  0  0  0  0  0  0  0  0  0
   -1.2519   -0.6615  -29.6421 C   0  0  0  0  0  0  0  0  0  0  0  0
   -1.5527   -1.4743  -31.9906 C   0  0  0  0  0  0  0  0  0  0  0  0
   -5.1102   -6.9952  -29.6844 C   0  0  0  0  0  0  0  0  0  0  0  0
   -8.9226   -7.7078  -27.4706 C   0  0  0  0  0  0  0  0  0  0  0  0
   -9.7039   -8.1907  -26.4925 C   0  0  0  0  0  0  0  0  0  0  0  0
   -2.2867   -2.8816  -30.0617 C   0  0  0  0  0  0  0  0  0  0  0  0
  -10.7820   -7.4983  -28.9918 C   0  0  0  0  0  0  0  0  0  0  0  0
  -11.1158   -8.3299  -26.6913 C   0  0  0  0  0  0  0  0  0  0  0  0
   -3.1839   -4.1777  -28.0672 C   0  0  0  0  0  0  0  0  0  0  0  0
   -8.6052   -6.7313  -29.7244 C   0  0  1  0  0  0  0  0  0  0  0  0
   -8.0664   -5.3690  -29.3207 C   0  0  1  0  0  0  0  0  0  0  0  0
   -6.8792   -5.2415  -30.2852 C   0  0  1  0  0  0  0  0  0  0  0  0
   -6.3885   -6.6870  -30.4264 C   0  0  2  0  0  0  0  0  0  0  0  0
   -1.9704   -3.4538  -28.6802 C   0  0  1  0  0  0  0  0  0  0  0  0
   -1.2511   -1.8757  -30.5572 C   0  0  0  0  0  0  0  0  0  0  0  0
   -8.7612   -3.5057  -29.2444 H   0  0  0  0  0  0  0  0  0  0  0  0
   -6.4052   -4.6725  -32.1370 H   0  0  0  0  0  0  0  0  0  0  0  0
   -0.6803   -4.7901  -27.8311 H   0  0  0  0  0  0  0  0  0  0  0  0
   -1.1228   -5.1861  -29.3522 H   0  0  0  0  0  0  0  0  0  0  0  0
   -2.1251   -5.9604  -28.0343 H   0  0  0  0  0  0  0  0  0  0  0  0
  -13.4846   -8.4367  -27.4206 H   0  0  0  0  0  0  0  0  0  0  0  0
  -13.3860   -7.1869  -28.4670 H   0  0  0  0  0  0  0  0  0  0  0  0
  -13.1636   -8.7153  -28.9973 H   0  0  0  0  0  0  0  0  0  0  0  0
   -1.0514   -0.9497  -28.7058 H   0  0  0  0  0  0  0  0  0  0  0  0
   -0.5545   -0.0132  -29.9478 H   0  0  0  0  0  0  0  0  0  0  0  0
   -2.1501   -0.2230  -29.6709 H   0  0  0  0  0  0  0  0  0  0  0  0
   -1.5468   -2.2874  -32.5727 H   0  0  0  0  0  0  0  0  0  0  0  0
   -2.4527   -1.0405  -32.0329 H   0  0  0  0  0  0  0  0  0  0  0  0
   -0.8571   -0.8307  -32.3099 H   0  0  0  0  0  0  0  0  0  0  0  0
   -4.8926   -7.9686  -29.7568 H   0  0  0  0  0  0  0  0  0  0  0  0
   -4.3542   -6.4562  -30.0559 H   0  0  0  0  0  0  0  0  0  0  0  0
   -7.9413   -7.6041  -27.3084 H   0  0  0  0  0  0  0  0  0  0  0  0
   -9.2975   -8.4554  -25.6180 H   0  0  0  0  0  0  0  0  0  0  0  0
   -3.1756   -2.4255  -30.0192 H   0  0  0  0  0  0  0  0  0  0  0  0
   -2.3308   -3.6377  -30.7147 H   0  0  0  0  0  0  0  0  0  0  0  0
   -9.1242   -6.6507  -30.5754 H   0  0  0  0  0  0  0  0  0  0  0  0
   -7.7539   -5.3771  -28.3709 H   0  0  0  0  0  0  0  0  0  0  0  0
   -6.1639   -4.6773  -29.8728 H   0  0  0  0  0  0  0  0  0  0  0  0
   -6.2478   -6.8817  -31.3971 H   0  0  0  0  0  0  0  0  0  0  0  0
   -1.7018   -2.7048  -28.0745 H   0  0  0  0  0  0  0  0  0  0  0  0
   -0.3471   -2.3021  -30.5257 H   0  0  0  0  0  0  0  0  0  0  0  0
  1  2  2  0  0  0  0
  1  3  2  0  0  0  0
  1  9  1  0  0  0  0
  1 12  1  0  0  0  0
  4 22  2  0  0  0  0
  5 23  2  0  0  0  0
  6 24  2  0  0  0  0
  7 26  1  0  0  0  0
  8 27  1  0  0  0  0
  9 18  1  0  0  0  0
 10 25  1  0  0  0  0
 10 28  1  0  0  0  0
 11 29  1  0  0  0  0
 12 24  1  0  0  0  0
 13 15  1  0  0  0  0
 13 22  1  0  0  0  0
 13 23  1  0  0  0  0
 14 19  1  0  0  0  0
 14 22  1  0  0  0  0
 14 25  1  0  0  0  0
 16 30  1  0  0  0  0
 17 30  1  0  0  0  0
 18 28  1  0  0  0  0
 19 20  2  0  0  0  0
 20 23  1  0  0  0  0
 21 29  1  0  0  0  0
 21 30  1  0  0  0  0
 24 29  1  0  0  0  0
 25 26  1  0  0  0  0
 26 27  1  0  0  0  0
 27 28  1  0  0  0  0
  7 31  1  0  0  0  0
  8 32  1  0  0  0  0
 11 33  1  0  0  0  0
 11 34  1  0  0  0  0
 12 35  1  0  0  0  0
 15 36  1  0  0  0  0
 15 37  1  0  0  0  0
 15 38  1  0  0  0  0
 16 39  1  0  0  0  0
 16 40  1  0  0  0  0
 16 41  1  0  0  0  0
 17 42  1  0  0  0  0
 17 43  1  0  0  0  0
 17 44  1  0  0  0  0
 18 45  1  0  0  0  0
 18 46  1  0  0  0  0
 19 47  1  0  0  0  0
 20 48  1  0  0  0  0
 21 49  1  0  0  0  0
 21 50  1  0  0  0  0
 25 51  1  0  0  0  0
 26 52  1  0  0  0  0
 27 53  1  0  0  0  0
 28 54  1  0  0  0  0
 29 55  1  0  0  0  0
 30 56  1  0  0  0  0
M  END
> <pdb_id>
6Q8B

> <uniprot_id>
nan

> <usmiles>
S(=O)(=O)(OC[C@H]1O[C@@H](N2C(=O)N(C(=O)C=C2)C)[C@H](O)[C@@H]1O)NC(=O)[C@@H](N)CC(C)C

$$$$
L46_A_201
          07212401333D 1   1.00000     0.00000     0
            
 31 31  0  0  0  0            999 V2000
  -13.7724  -19.4691  -18.6618 O   0  0  0  0  0  0  0  0  0  0  0  0
  -16.8567  -23.4283  -22.9651 O   0  0  0  0  0  0  0  0  0  0  0  0
  -14.0953  -17.7443  -20.0722 N   0  0  0  0  0  0  0  0  0  0  0  0
  -15.9780  -19.5247  -21.4706 N   0  0  0  0  0  0  0  0  0  0  0  0
  -13.4419  -16.7422  -19.2268 C   0  0  0  0  0  0  0  0  0  0  0  0
  -14.3429  -23.1778  -19.2261 C   0  0  0  0  0  0  0  0  0  0  0  0
  -14.6104  -24.0339  -22.5582 C   0  0  0  0  0  0  0  0  0  0  0  0
  -17.5307  -20.4717  -23.2132 C   0  0  0  0  0  0  0  0  0  0  0  0
  -13.6466  -22.2022  -20.1593 C   0  0  0  0  0  0  0  0  0  0  0  0
  -14.2270  -19.0308  -19.7141 C   0  0  0  0  0  0  0  0  0  0  0  0
  -15.7911  -23.1030  -22.4763 C   0  0  0  0  0  0  0  0  0  0  0  0
  -16.4122  -20.5593  -22.2091 C   0  0  0  0  0  0  0  0  0  0  0  0
  -14.9741  -19.9109  -20.6644 C   0  0  0  0  0  0  0  0  0  0  0  0
  -14.6796  -21.3625  -20.8720 C   0  0  0  0  0  0  0  0  0  0  0  0
  -15.6062  -21.7536  -21.8420 C   0  0  0  0  0  0  0  0  0  0  0  0
  -14.4602  -17.4561  -20.9575 H   0  0  0  0  0  0  0  0  0  0  0  0
  -16.3495  -18.5973  -21.5143 H   0  0  0  0  0  0  0  0  0  0  0  0
  -13.4566  -15.8555  -19.6889 H   0  0  0  0  0  0  0  0  0  0  0  0
  -13.9285  -16.6723  -18.3560 H   0  0  0  0  0  0  0  0  0  0  0  0
  -12.4946  -17.0146  -19.0584 H   0  0  0  0  0  0  0  0  0  0  0  0
  -13.6586  -23.7338  -18.7542 H   0  0  0  0  0  0  0  0  0  0  0  0
  -14.8809  -22.6696  -18.5536 H   0  0  0  0  0  0  0  0  0  0  0  0
  -14.9475  -23.7723  -19.7562 H   0  0  0  0  0  0  0  0  0  0  0  0
  -13.8222  -23.6128  -22.1096 H   0  0  0  0  0  0  0  0  0  0  0  0
  -14.8329  -24.8954  -22.1017 H   0  0  0  0  0  0  0  0  0  0  0  0
  -14.3921  -24.2118  -23.5177 H   0  0  0  0  0  0  0  0  0  0  0  0
  -17.6709  -21.3675  -23.6349 H   0  0  0  0  0  0  0  0  0  0  0  0
  -18.3706  -20.1851  -22.7524 H   0  0  0  0  0  0  0  0  0  0  0  0
  -17.2934  -19.8044  -23.9191 H   0  0  0  0  0  0  0  0  0  0  0  0
  -13.1085  -22.7104  -20.8317 H   0  0  0  0  0  0  0  0  0  0  0  0
  -13.0419  -21.6077  -19.6291 H   0  0  0  0  0  0  0  0  0  0  0  0
  1 10  2  0  0  0  0
  2 11  2  0  0  0  0
  3  5  1  0  0  0  0
  3 10  1  0  0  0  0
  4 12  1  0  0  0  0
  4 13  1  0  0  0  0
  6  9  1  0  0  0  0
  7 11  1  0  0  0  0
  8 12  1  0  0  0  0
  9 14  1  0  0  0  0
 10 13  1  0  0  0  0
 11 15  1  0  0  0  0
 12 15  2  0  0  0  0
 13 14  2  0  0  0  0
 14 15  1  0  0  0  0
  3 16  1  0  0  0  0
  4 17  1  0  0  0  0
  5 18  1  0  0  0  0
  5 19  1  0  0  0  0
  5 20  1  0  0  0  0
  6 21  1  0  0  0  0
  6 22  1  0  0  0  0
  6 23  1  0  0  0  0
  7 24  1  0  0  0  0
  7 25  1  0  0  0  0
  7 26  1  0  0  0  0
  8 27  1  0  0  0  0
  8 28  1  0  0  0  0
  8 29  1  0  0  0  0
  9 30  1  0  0  0  0
  9 31  1  0  0  0  0
M  END
> <pdb_id>
4LZS

> <uniprot_id>
O60885

> <usmiles>
O=C(NC)C=1NC(=C(C(=O)C)C1CC)C

$$$$
L4K_A_304
          07192416293D 1   1.00000     0.00000     0
            
 32 32  0  0  0  0            999 V2000
   -5.9346    0.9323   16.8638 S   0  0  0  0  0  0  0  0  0  0  0  0
   -5.3556    1.0799   18.1884 O   0  0  0  0  0  0  0  0  0  0  0  0
   -7.3569    0.9815   16.7623 O   0  0  0  0  0  0  0  0  0  0  0  0
   -5.3812   -0.3930   16.1707 N   0  0  0  0  0  0  0  0  0  0  0  0
   -1.5063    9.0311   15.2316 C   0  0  0  0  0  0  0  0  0  0  0  0
   -1.2223    8.4066   13.9299 C   0  0  0  0  0  0  0  0  0  0  0  0
   -2.4307    7.6772   13.4301 C   0  0  0  0  0  0  0  0  0  0  0  0
   -2.9217    6.5466   14.3242 C   0  0  0  0  0  0  0  0  0  0  0  0
   -3.9271    5.6657   13.6178 C   0  0  0  0  0  0  0  0  0  0  0  0
   -4.0076    2.3807   15.5321 C   0  0  0  0  0  0  0  0  0  0  0  0
   -6.2057    3.3522   15.6024 C   0  0  0  0  0  0  0  0  0  0  0  0
   -3.5623    3.4674   14.7916 C   0  0  0  0  0  0  0  0  0  0  0  0
   -5.7385    4.4329   14.8708 C   0  0  0  0  0  0  0  0  0  0  0  0
   -5.3402    2.3181   15.9254 C   0  0  0  0  0  0  0  0  0  0  0  0
   -4.4188    4.5037   14.4465 C   0  0  0  0  0  0  0  0  0  0  0  0
   -5.7845   -0.4864   15.2604 H   0  0  0  0  0  0  0  0  0  0  0  0
   -4.3861   -0.3364   16.0902 H   0  0  0  0  0  0  0  0  0  0  0  0
   -0.6924    9.5144   15.5541 H   0  0  0  0  0  0  0  0  0  0  0  0
   -2.2615    9.6791   15.1327 H   0  0  0  0  0  0  0  0  0  0  0  0
   -1.7580    8.3242   15.8926 H   0  0  0  0  0  0  0  0  0  0  0  0
   -0.4656    7.7608   14.0317 H   0  0  0  0  0  0  0  0  0  0  0  0
   -0.9691    9.1157   13.2718 H   0  0  0  0  0  0  0  0  0  0  0  0
   -2.2101    7.2901   12.5349 H   0  0  0  0  0  0  0  0  0  0  0  0
   -3.1736    8.3396   13.3330 H   0  0  0  0  0  0  0  0  0  0  0  0
   -3.3513    6.9403   15.1368 H   0  0  0  0  0  0  0  0  0  0  0  0
   -2.1388    5.9881   14.5985 H   0  0  0  0  0  0  0  0  0  0  0  0
   -3.4993    5.3023   12.7902 H   0  0  0  0  0  0  0  0  0  0  0  0
   -4.7150    6.2278   13.3664 H   0  0  0  0  0  0  0  0  0  0  0  0
   -3.3744    1.6478   15.7810 H   0  0  0  0  0  0  0  0  0  0  0  0
   -7.1612    3.3185   15.8954 H   0  0  0  0  0  0  0  0  0  0  0  0
   -2.6061    3.5042   14.5012 H   0  0  0  0  0  0  0  0  0  0  0  0
   -6.3658    5.1778   14.6438 H   0  0  0  0  0  0  0  0  0  0  0  0
  1  2  2  0  0  0  0
  1  3  2  0  0  0  0
  1  4  1  0  0  0  0
  1 14  1  0  0  0  0
  5  6  1  0  0  0  0
  6  7  1  0  0  0  0
  7  8  1  0  0  0  0
  8  9  1  0  0  0  0
  9 15  1  0  0  0  0
 10 12  2  0  0  0  0
 10 14  1  0  0  0  0
 11 13  1  0  0  0  0
 11 14  2  0  0  0  0
 12 15  1  0  0  0  0
 13 15  2  0  0  0  0
  4 16  1  0  0  0  0
  4 17  1  0  0  0  0
  5 18  1  0  0  0  0
  5 19  1  0  0  0  0
  5 20  1  0  0  0  0
  6 21  1  0  0  0  0
  6 22  1  0  0  0  0
  7 23  1  0  0  0  0
  7 24  1  0  0  0  0
  8 25  1  0  0  0  0
  8 26  1  0  0  0  0
  9 27  1  0  0  0  0
  9 28  1  0  0  0  0
 10 29  1  0  0  0  0
 11 30  1  0  0  0  0
 12 31  1  0  0  0  0
 13 32  1  0  0  0  0
M  END
> <pdb_id>
6SBH

> <uniprot_id>
P00918

> <usmiles>
S(=O)(=O)(N)c1ccc(cc1)CCCCC

$$$$
L50_A_501
          07202406173D 1   1.00000     0.00000     0
            
 46 46  0  0  0  0            999 V2000
   -0.8711   16.1467   21.5164 P   0  0  0  0  0  0  0  0  0  0  0  0
   -0.9596   16.6668   20.1313 O   0  0  0  0  0  0  0  0  0  0  0  0
    0.0473   17.0039   22.3242 O   0  0  0  0  0  0  0  0  0  0  0  0
   -2.2367   16.1502   22.1386 O   0  0  0  0  0  0  0  0  0  0  0  0
    4.9820   14.2573   18.6663 O   0  0  0  0  0  0  0  0  0  0  0  0
    3.7058   15.2001   20.8183 O   0  0  0  0  0  0  0  0  0  0  0  0
    3.8919   13.6123   19.2389 N   0  0  0  0  0  0  0  0  0  0  0  0
    3.4169   12.3561   18.6328 C   0  0  0  0  0  0  0  0  0  0  0  0
    3.7439   10.7451   14.2673 C   0  0  0  0  0  0  0  0  0  0  0  0
   -0.2460   14.4298   21.4899 C   0  0  0  0  0  0  0  0  0  0  0  0
   -0.1194   12.1234   19.3273 C   0  0  0  0  0  0  0  0  0  0  0  0
    0.2586   13.6224   19.1131 C   0  0  0  0  0  0  0  0  0  0  0  0
   -0.6486   11.5112   18.0010 C   0  0  0  0  0  0  0  0  0  0  0  0
    1.7518   12.0359   15.0882 C   0  0  0  0  0  0  0  0  0  0  0  0
    2.3876   10.0225   16.2607 C   0  0  0  0  0  0  0  0  0  0  0  0
    0.6998   12.2087   15.9807 C   0  0  0  0  0  0  0  0  0  0  0  0
    1.3337   10.1973   17.1512 C   0  0  0  0  0  0  0  0  0  0  0  0
    2.0660   13.5395   20.9507 C   0  0  0  0  0  0  0  0  0  0  0  0
    3.3042   14.1512   20.3460 C   0  0  0  0  0  0  0  0  0  0  0  0
    2.5956   10.9402   15.2292 C   0  0  0  0  0  0  0  0  0  0  0  0
    0.8330   14.2994   20.4085 C   0  0  2  0  0  0  0  0  0  0  0  0
    0.4908   11.2990   17.0181 C   0  0  0  0  0  0  0  0  0  0  0  0
   -1.5757   16.0883   19.5968 H   0  0  0  0  0  0  0  0  0  0  0  0
    0.1020   16.6472   23.2568 H   0  0  0  0  0  0  0  0  0  0  0  0
    5.2947   13.7400   17.8697 H   0  0  0  0  0  0  0  0  0  0  0  0
    2.6330   12.0121   19.1498 H   0  0  0  0  0  0  0  0  0  0  0  0
    3.1434   12.5254   17.6860 H   0  0  0  0  0  0  0  0  0  0  0  0
    4.1518   11.6782   18.6514 H   0  0  0  0  0  0  0  0  0  0  0  0
    4.2453    9.9148   14.5108 H   0  0  0  0  0  0  0  0  0  0  0  0
    3.3882   10.6588   13.3367 H   0  0  0  0  0  0  0  0  0  0  0  0
    4.3584   11.5324   14.3177 H   0  0  0  0  0  0  0  0  0  0  0  0
   -0.9989   13.8034   21.2878 H   0  0  0  0  0  0  0  0  0  0  0  0
    0.1458   14.2033   22.3817 H   0  0  0  0  0  0  0  0  0  0  0  0
   -0.8298   12.0584   20.0281 H   0  0  0  0  0  0  0  0  0  0  0  0
    0.6900   11.6175   19.6252 H   0  0  0  0  0  0  0  0  0  0  0  0
   -0.5607   14.1206   18.8293 H   0  0  0  0  0  0  0  0  0  0  0  0
    0.9488   13.6773   18.3916 H   0  0  0  0  0  0  0  0  0  0  0  0
   -1.3198   12.1327   17.5969 H   0  0  0  0  0  0  0  0  0  0  0  0
   -1.0832   10.6318   18.1953 H   0  0  0  0  0  0  0  0  0  0  0  0
    1.9001   12.6946   14.3505 H   0  0  0  0  0  0  0  0  0  0  0  0
    2.9984    9.2369   16.3595 H   0  0  0  0  0  0  0  0  0  0  0  0
    0.0872   12.9924   15.8783 H   0  0  0  0  0  0  0  0  0  0  0  0
    1.1813    9.5347   17.8844 H   0  0  0  0  0  0  0  0  0  0  0  0
    2.1013   13.6198   21.9469 H   0  0  0  0  0  0  0  0  0  0  0  0
    2.0070   12.5742   20.6960 H   0  0  0  0  0  0  0  0  0  0  0  0
    1.1293   15.2223   20.1626 H   0  0  0  0  0  0  0  0  0  0  0  0
  1  2  1  0  0  0  0
  1  3  1  0  0  0  0
  1  4  2  0  0  0  0
  1 10  1  0  0  0  0
  5  7  1  0  0  0  0
  6 19  2  0  0  0  0
  7  8  1  0  0  0  0
  7 19  1  0  0  0  0
  9 20  1  0  0  0  0
 10 21  1  0  0  0  0
 11 12  1  0  0  0  0
 11 13  1  0  0  0  0
 12 21  1  0  0  0  0
 13 22  1  0  0  0  0
 14 16  1  0  0  0  0
 14 20  2  0  0  0  0
 15 17  2  0  0  0  0
 15 20  1  0  0  0  0
 16 22  2  0  0  0  0
 17 22  1  0  0  0  0
 18 19  1  0  0  0  0
 18 21  1  0  0  0  0
  2 23  1  0  0  0  0
  3 24  1  0  0  0  0
  5 25  1  0  0  0  0
  8 26  1  0  0  0  0
  8 27  1  0  0  0  0
  8 28  1  0  0  0  0
  9 29  1  0  0  0  0
  9 30  1  0  0  0  0
  9 31  1  0  0  0  0
 10 32  1  0  0  0  0
 10 33  1  0  0  0  0
 11 34  1  0  0  0  0
 11 35  1  0  0  0  0
 12 36  1  0  0  0  0
 12 37  1  0  0  0  0
 13 38  1  0  0  0  0
 13 39  1  0  0  0  0
 14 40  1  0  0  0  0
 15 41  1  0  0  0  0
 16 42  1  0  0  0  0
 17 43  1  0  0  0  0
 18 44  1  0  0  0  0
 18 45  1  0  0  0  0
 21 46  1  0  0  0  0
M  END
> <pdb_id>
5JMW

> <uniprot_id>
Q8IKG4

> <usmiles>
P(=O)(O)(O)C[C@@H](CC(=O)N(O)C)CCCc1ccc(cc1)C

$$$$
L56_B_501
          07202406173D 1   1.00000     0.00000     0
            
 46 46  0  0  0  0            999 V2000
   -0.8802   16.1946   21.5543 P   0  0  0  0  0  0  0  0  0  0  0  0
    0.0127   17.0843   22.3401 O   0  0  0  0  0  0  0  0  0  0  0  0
   -1.0020   16.6994   20.1558 O   0  0  0  0  0  0  0  0  0  0  0  0
   -2.2384   16.1451   22.1868 O   0  0  0  0  0  0  0  0  0  0  0  0
    5.0835   14.2270   18.7268 O   0  0  0  0  0  0  0  0  0  0  0  0
    3.8539   15.2329   20.8833 O   0  0  0  0  0  0  0  0  0  0  0  0
    3.9685   13.6156   19.3204 N   0  0  0  0  0  0  0  0  0  0  0  0
    3.4527   12.3483   18.7427 C   0  0  0  0  0  0  0  0  0  0  0  0
    2.7469    8.2770   17.5885 C   0  0  0  0  0  0  0  0  0  0  0  0
   -0.1834   14.5130   21.5431 C   0  0  0  0  0  0  0  0  0  0  0  0
    2.0516   11.3175   15.4307 C   0  0  0  0  0  0  0  0  0  0  0  0
   -0.2830   12.4451   19.3561 C   0  0  0  0  0  0  0  0  0  0  0  0
    2.6320   10.1528   15.9214 C   0  0  0  0  0  0  0  0  0  0  0  0
    0.3926   13.8240   19.1551 C   0  0  0  0  0  0  0  0  0  0  0  0
    0.9636   11.8813   16.1019 C   0  0  0  0  0  0  0  0  0  0  0  0
   -0.7136   11.8727   17.9956 C   0  0  0  0  0  0  0  0  0  0  0  0
    2.1440   13.6146   21.0430 C   0  0  0  0  0  0  0  0  0  0  0  0
    1.0455   10.1012   17.7269 C   0  0  0  0  0  0  0  0  0  0  0  0
    3.4114   14.1802   20.4286 C   0  0  0  0  0  0  0  0  0  0  0  0
    2.1268    9.5468   17.0670 C   0  0  0  0  0  0  0  0  0  0  0  0
    0.9286   14.4283   20.4964 C   0  0  2  0  0  0  0  0  0  0  0  0
    0.4748   11.2746   17.2655 C   0  0  0  0  0  0  0  0  0  0  0  0
    0.0885   16.7387   23.2754 H   0  0  0  0  0  0  0  0  0  0  0  0
   -1.6044   16.0949   19.6345 H   0  0  0  0  0  0  0  0  0  0  0  0
    5.3709   13.6948   17.9304 H   0  0  0  0  0  0  0  0  0  0  0  0
    2.6621   12.0386   19.2709 H   0  0  0  0  0  0  0  0  0  0  0  0
    3.1798   12.5017   17.7930 H   0  0  0  0  0  0  0  0  0  0  0  0
    4.1691   11.6513   18.7753 H   0  0  0  0  0  0  0  0  0  0  0  0
    2.2622    7.9832   18.4124 H   0  0  0  0  0  0  0  0  0  0  0  0
    2.6816    7.5633   16.8910 H   0  0  0  0  0  0  0  0  0  0  0  0
    3.7085    8.4414   17.8083 H   0  0  0  0  0  0  0  0  0  0  0  0
   -0.9029   13.8557   21.3190 H   0  0  0  0  0  0  0  0  0  0  0  0
    0.1917   14.3017   22.4457 H   0  0  0  0  0  0  0  0  0  0  0  0
    2.4105   11.7486   14.6029 H   0  0  0  0  0  0  0  0  0  0  0  0
   -1.0871   12.5515   19.9409 H   0  0  0  0  0  0  0  0  0  0  0  0
    0.3642   11.8184   19.7901 H   0  0  0  0  0  0  0  0  0  0  0  0
    3.4156    9.7495   15.4488 H   0  0  0  0  0  0  0  0  0  0  0  0
   -0.2768   14.4553   18.7635 H   0  0  0  0  0  0  0  0  0  0  0  0
    1.1595   13.7165   18.5224 H   0  0  0  0  0  0  0  0  0  0  0  0
    0.5356   12.7149   15.7526 H   0  0  0  0  0  0  0  0  0  0  0  0
   -1.1051   12.6061   17.4399 H   0  0  0  0  0  0  0  0  0  0  0  0
   -1.4013   11.1615   18.1414 H   0  0  0  0  0  0  0  0  0  0  0  0
    2.1853   13.6964   22.0388 H   0  0  0  0  0  0  0  0  0  0  0  0
    2.0469   12.6516   20.7914 H   0  0  0  0  0  0  0  0  0  0  0  0
    0.6747    9.6528   18.5402 H   0  0  0  0  0  0  0  0  0  0  0  0
    1.2432   15.3588   20.3084 H   0  0  0  0  0  0  0  0  0  0  0  0
  1  2  1  0  0  0  0
  1  3  1  0  0  0  0
  1  4  2  0  0  0  0
  1 10  1  0  0  0  0
  5  7  1  0  0  0  0
  6 19  2  0  0  0  0
  7  8  1  0  0  0  0
  7 19  1  0  0  0  0
  9 20  1  0  0  0  0
 10 21  1  0  0  0  0
 11 13  1  0  0  0  0
 11 15  2  0  0  0  0
 12 14  1  0  0  0  0
 12 16  1  0  0  0  0
 13 20  2  0  0  0  0
 14 21  1  0  0  0  0
 15 22  1  0  0  0  0
 16 22  1  0  0  0  0
 17 19  1  0  0  0  0
 17 21  1  0  0  0  0
 18 20  1  0  0  0  0
 18 22  2  0  0  0  0
  2 23  1  0  0  0  0
  3 24  1  0  0  0  0
  5 25  1  0  0  0  0
  8 26  1  0  0  0  0
  8 27  1  0  0  0  0
  8 28  1  0  0  0  0
  9 29  1  0  0  0  0
  9 30  1  0  0  0  0
  9 31  1  0  0  0  0
 10 32  1  0  0  0  0
 10 33  1  0  0  0  0
 11 34  1  0  0  0  0
 12 35  1  0  0  0  0
 12 36  1  0  0  0  0
 13 37  1  0  0  0  0
 14 38  1  0  0  0  0
 14 39  1  0  0  0  0
 15 40  1  0  0  0  0
 16 41  1  0  0  0  0
 16 42  1  0  0  0  0
 17 43  1  0  0  0  0
 17 44  1  0  0  0  0
 18 45  1  0  0  0  0
 21 46  1  0  0  0  0
M  END
> <pdb_id>
5JO0

> <uniprot_id>
Q8IKG4

> <usmiles>
P(=O)(O)(O)C[C@@H](CC(=O)N(O)C)CCCc1cc(ccc1)C

$$$$
L58_A_302
          07202407423D 1   1.00000     0.00000     0
            
 41 42  0  0  0  0            999 V2000
   27.9678  -20.6186   -1.7988 Br  0  0  0  0  0  0  0  0  0  0  0  0
   27.2063  -10.9504   -7.4776 O   0  0  0  0  0  0  0  0  0  0  0  0
   22.2031  -10.4456   -7.9276 O   0  0  0  0  0  0  0  0  0  0  0  0
   22.0487   -7.9689   -7.3458 O   0  0  0  0  0  0  0  0  0  0  0  0
   24.5287   -9.5539  -10.6577 O   0  0  0  0  0  0  0  0  0  0  0  0
   23.2436   -8.4356   -7.6909 N   0  0  0  0  0  0  0  0  0  0  0  0
   24.9215  -11.4357   -7.5970 N   0  0  0  0  0  0  0  0  0  0  0  0
   23.6477  -11.7959  -10.3379 C   0  0  0  0  0  0  0  0  0  0  0  0
   26.4637  -18.7845   -3.3401 C   0  0  0  0  0  0  0  0  0  0  0  0
   28.5245  -17.8758   -2.4597 C   0  0  0  0  0  0  0  0  0  0  0  0
   26.2668  -17.6229   -4.0611 C   0  0  0  0  0  0  0  0  0  0  0  0
   28.3217  -16.6771   -3.1558 C   0  0  0  0  0  0  0  0  0  0  0  0
   25.4651  -13.9004   -6.1830 C   0  0  0  0  0  0  0  0  0  0  0  0
   27.7089  -13.1210   -5.7222 C   0  0  0  0  0  0  0  0  0  0  0  0
   25.6974  -15.0377   -5.4375 C   0  0  0  0  0  0  0  0  0  0  0  0
   27.9440  -14.2889   -4.9876 C   0  0  0  0  0  0  0  0  0  0  0  0
   26.2547  -11.7129   -7.1761 C   0  0  0  0  0  0  0  0  0  0  0  0
   23.2382   -9.7772   -8.0372 C   0  0  0  0  0  0  0  0  0  0  0  0
   27.6001  -18.8886   -2.5914 C   0  0  0  0  0  0  0  0  0  0  0  0
   26.4682  -12.9187   -6.3366 C   0  0  0  0  0  0  0  0  0  0  0  0
   27.1789  -16.5066   -3.9908 C   0  0  0  0  0  0  0  0  0  0  0  0
   26.9569  -15.2921   -4.8234 C   0  0  0  0  0  0  0  0  0  0  0  0
   24.7001  -10.7538   -9.9477 C   0  0  2  0  0  0  0  0  0  0  0  0
   24.6135  -10.3029   -8.4558 C   0  0  2  0  0  0  0  0  0  0  0  0
   21.9993   -8.1028   -6.3638 H   0  0  0  0  0  0  0  0  0  0  0  0
   25.0894   -9.6097  -11.4757 H   0  0  0  0  0  0  0  0  0  0  0  0
   23.9299   -8.1019   -7.0218 H   0  0  0  0  0  0  0  0  0  0  0  0
   24.1322  -11.9905   -7.2846 H   0  0  0  0  0  0  0  0  0  0  0  0
   23.8568  -12.2228  -11.3169 H   0  0  0  0  0  0  0  0  0  0  0  0
   22.6465  -11.3710  -10.4000 H   0  0  0  0  0  0  0  0  0  0  0  0
   23.5998  -12.6316   -9.6416 H   0  0  0  0  0  0  0  0  0  0  0  0
   25.7226  -19.5813   -3.3448 H   0  0  0  0  0  0  0  0  0  0  0  0
   29.4001  -18.0067   -1.8260 H   0  0  0  0  0  0  0  0  0  0  0  0
   25.4403  -17.6235   -4.7677 H   0  0  0  0  0  0  0  0  0  0  0  0
   29.0769  -15.9022   -3.0588 H   0  0  0  0  0  0  0  0  0  0  0  0
   24.5096  -13.8268   -6.6955 H   0  0  0  0  0  0  0  0  0  0  0  0
   28.5071  -12.3837   -5.7980 H   0  0  0  0  0  0  0  0  0  0  0  0
   24.8526  -15.7118   -5.3160 H   0  0  0  0  0  0  0  0  0  0  0  0
   28.9358  -14.4013   -4.5526 H   0  0  0  0  0  0  0  0  0  0  0  0
   25.6974  -11.1550  -10.1229 H   0  0  0  0  0  0  0  0  0  0  0  0
   25.3523   -9.5187   -8.3007 H   0  0  0  0  0  0  0  0  0  0  0  0
  1 19  1  0  0  0  0
  2 17  2  0  0  0  0
  3 18  2  0  0  0  0
  4  6  1  0  0  0  0
  4 25  1  0  0  0  0
  5 23  1  0  0  0  0
  5 26  1  0  0  0  0
  6 18  1  0  0  0  0
  6 27  1  0  0  0  0
  7 17  1  0  0  0  0
  7 24  1  0  0  0  0
  7 28  1  0  0  0  0
  8 23  1  0  0  0  0
  8 29  1  0  0  0  0
  8 30  1  0  0  0  0
  8 31  1  0  0  0  0
  9 11  1  0  0  0  0
  9 19  2  0  0  0  0
  9 32  1  0  0  0  0
 10 12  2  0  0  0  0
 10 19  1  0  0  0  0
 10 33  1  0  0  0  0
 11 21  2  0  0  0  0
 11 34  1  0  0  0  0
 12 21  1  0  0  0  0
 12 35  1  0  0  0  0
 13 15  1  0  0  0  0
 13 20  2  0  0  0  0
 13 36  1  0  0  0  0
 14 16  2  0  0  0  0
 14 20  1  0  0  0  0
 14 37  1  0  0  0  0
 15 22  2  0  0  0  0
 15 38  1  0  0  0  0
 16 22  1  0  0  0  0
 16 39  1  0  0  0  0
 17 20  1  0  0  0  0
 18 24  1  0  0  0  0
 21 22  1  0  0  0  0
 23 24  1  0  0  0  0
 23 40  1  0  0  0  0
 24 41  1  0  0  0  0
M  END
> <pdb_id>
4FW5

> <uniprot_id>
P47205

> <usmiles>
Brc1ccc(c2ccc(cc2)C(=O)N[C@H](C(=O)NO)[C@H](O)C)cc1

$$$$
L59_B_302
          07202407423D 1   1.00000     0.00000     0
            
 43 44  0  0  0  0            999 V2000
   22.2569  -10.4249   -7.9564 O   0  0  0  0  0  0  0  0  0  0  0  0
   27.1174  -11.0298   -7.4117 O   0  0  0  0  0  0  0  0  0  0  0  0
   22.0824   -7.9830   -7.2319 O   0  0  0  0  0  0  0  0  0  0  0  0
   24.5424   -9.4839  -10.6029 O   0  0  0  0  0  0  0  0  0  0  0  0
   23.2553   -8.3777   -7.7182 N   0  0  0  0  0  0  0  0  0  0  0  0
   24.8982  -11.4873   -7.5278 N   0  0  0  0  0  0  0  0  0  0  0  0
   23.7027  -11.7063  -10.4200 C   0  0  0  0  0  0  0  0  0  0  0  0
   27.2679  -17.3683   -3.2824 C   0  0  0  0  0  0  0  0  0  0  0  0
   27.0915  -16.3781   -3.8957 C   0  0  0  0  0  0  0  0  0  0  0  0
   28.0394  -21.0321   -1.3496 C   0  0  0  0  0  0  0  0  0  0  0  0
   27.0486  -20.9485   -2.3696 C   0  0  0  0  0  0  0  0  0  0  0  0
   28.7342  -19.8906   -0.9499 C   0  0  0  0  0  0  0  0  0  0  0  0
   26.7586  -19.7130   -2.9696 C   0  0  0  0  0  0  0  0  0  0  0  0
   28.4630  -18.6530   -1.5573 C   0  0  0  0  0  0  0  0  0  0  0  0
   27.7464  -14.1922   -4.7218 C   0  0  0  0  0  0  0  0  0  0  0  0
   25.6793  -15.1887   -5.4602 C   0  0  0  0  0  0  0  0  0  0  0  0
   27.5182  -13.0842   -5.5256 C   0  0  0  0  0  0  0  0  0  0  0  0
   25.4342  -14.0838   -6.2782 C   0  0  0  0  0  0  0  0  0  0  0  0
   23.3190   -9.7442   -8.0292 C   0  0  0  0  0  0  0  0  0  0  0  0
   26.1815  -11.7972   -7.1399 C   0  0  0  0  0  0  0  0  0  0  0  0
   27.4757  -18.5771   -2.5787 C   0  0  0  0  0  0  0  0  0  0  0  0
   26.8282  -15.2401   -4.6838 C   0  0  0  0  0  0  0  0  0  0  0  0
   26.3593  -13.0172   -6.3033 C   0  0  0  0  0  0  0  0  0  0  0  0
   24.7325  -10.7181   -9.9243 C   0  0  2  0  0  0  0  0  0  0  0  0
   24.6268  -10.3573   -8.3935 C   0  0  2  0  0  0  0  0  0  0  0  0
   21.6354   -7.5390   -7.9971 H   0  0  0  0  0  0  0  0  0  0  0  0
   25.3998   -8.9837  -10.5548 H   0  0  0  0  0  0  0  0  0  0  0  0
   23.9868   -8.0379   -7.1014 H   0  0  0  0  0  0  0  0  0  0  0  0
   24.1072  -12.0192   -7.1816 H   0  0  0  0  0  0  0  0  0  0  0  0
   23.9502  -12.0603  -11.4191 H   0  0  0  0  0  0  0  0  0  0  0  0
   22.7091  -11.2681  -10.4958 H   0  0  0  0  0  0  0  0  0  0  0  0
   23.6431  -12.5938   -9.7922 H   0  0  0  0  0  0  0  0  0  0  0  0
   28.2476  -21.9772   -0.8502 H   0  0  0  0  0  0  0  0  0  0  0  0
   26.4896  -21.8306   -2.6799 H   0  0  0  0  0  0  0  0  0  0  0  0
   29.4724  -19.9600   -0.1526 H   0  0  0  0  0  0  0  0  0  0  0  0
   25.9642  -19.6201   -3.7090 H   0  0  0  0  0  0  0  0  0  0  0  0
   29.0027  -17.7584   -1.2496 H   0  0  0  0  0  0  0  0  0  0  0  0
   28.6589  -14.2491   -4.1316 H   0  0  0  0  0  0  0  0  0  0  0  0
   24.9830  -16.0234   -5.4588 H   0  0  0  0  0  0  0  0  0  0  0  0
   28.2360  -12.2654   -5.5248 H   0  0  0  0  0  0  0  0  0  0  0  0
   24.5571  -14.1026   -6.9216 H   0  0  0  0  0  0  0  0  0  0  0  0
   25.7295  -11.1198  -10.0994 H   0  0  0  0  0  0  0  0  0  0  0  0
   25.3635   -9.5744   -8.2137 H   0  0  0  0  0  0  0  0  0  0  0  0
  1 19  2  0  0  0  0
  2 20  2  0  0  0  0
  3  5  1  0  0  0  0
  3 26  1  0  0  0  0
  4 24  1  0  0  0  0
  4 27  1  0  0  0  0
  5 19  1  0  0  0  0
  5 28  1  0  0  0  0
  6 20  1  0  0  0  0
  6 25  1  0  0  0  0
  6 29  1  0  0  0  0
  7 24  1  0  0  0  0
  7 30  1  0  0  0  0
  7 31  1  0  0  0  0
  7 32  1  0  0  0  0
  8  9  3  0  0  0  0
  8 21  1  0  0  0  0
  9 22  1  0  0  0  0
 10 11  2  0  0  0  0
 10 12  1  0  0  0  0
 10 33  1  0  0  0  0
 11 13  1  0  0  0  0
 11 34  1  0  0  0  0
 12 14  2  0  0  0  0
 12 35  1  0  0  0  0
 13 21  2  0  0  0  0
 13 36  1  0  0  0  0
 14 21  1  0  0  0  0
 14 37  1  0  0  0  0
 15 17  1  0  0  0  0
 15 22  2  0  0  0  0
 15 38  1  0  0  0  0
 16 18  2  0  0  0  0
 16 22  1  0  0  0  0
 16 39  1  0  0  0  0
 17 23  2  0  0  0  0
 17 40  1  0  0  0  0
 18 23  1  0  0  0  0
 18 41  1  0  0  0  0
 19 25  1  0  0  0  0
 20 23  1  0  0  0  0
 24 25  1  0  0  0  0
 24 42  1  0  0  0  0
 25 43  1  0  0  0  0
M  END
> <pdb_id>
4FW6

> <uniprot_id>
P47205

> <usmiles>
O=C(N[C@H](C(=O)NO)[C@H](O)C)c1ccc(C#Cc2ccccc2)cc1

$$$$
L5V_A_1311
          07192422563D 1   1.00000     0.00000     0
            
 16 17  0  0  0  0            999 V2000
   26.0474   21.3199    7.5191 Cl  0  0  0  0  0  0  0  0  0  0  0  0
   29.0235   22.4705   13.2899 N   0  0  0  0  0  0  0  0  0  0  0  0
   28.4520   22.2421   12.0539 N   0  0  0  0  0  0  0  0  0  0  0  0
   27.6765   18.2499    9.3875 N   0  0  0  0  0  0  0  0  0  0  0  0
   27.3259   21.0318    9.7659 N   0  0  0  0  0  0  0  0  0  0  0  0
   29.0431   20.3496   12.9170 N   0  0  0  0  0  0  0  0  0  0  0  0
   29.3672   21.3083   13.7789 C   0  0  0  0  0  0  0  0  0  0  0  0
   27.0417   19.0184    8.5008 C   0  0  0  0  0  0  0  0  0  0  0  0
   28.1344   18.8904   10.4655 C   0  0  0  0  0  0  0  0  0  0  0  0
   26.8842   20.3713    8.7097 C   0  0  0  0  0  0  0  0  0  0  0  0
   28.4764   20.9357   11.8492 C   0  0  0  0  0  0  0  0  0  0  0  0
   27.9677   20.2574   10.6595 C   0  0  0  0  0  0  0  0  0  0  0  0
   29.1778   19.4807   13.0285 H   0  0  0  0  0  0  0  0  0  0  0  0
   29.7816   21.1683   14.6152 H   0  0  0  0  0  0  0  0  0  0  0  0
   26.6955   18.6204    7.7185 H   0  0  0  0  0  0  0  0  0  0  0  0
   28.5884   18.3910   11.1174 H   0  0  0  0  0  0  0  0  0  0  0  0
  1 10  1  0  0  0  0
  2  3  1  0  0  0  0
  2  7  2  0  0  0  0
  3 11  2  0  0  0  0
  4  8  1  0  0  0  0
  4  9  2  0  0  0  0
  5 10  1  0  0  0  0
  5 12  2  0  0  0  0
  6  7  1  0  0  0  0
  6 11  1  0  0  0  0
  6 13  1  0  0  0  0
  7 14  1  0  0  0  0
  8 10  2  0  0  0  0
  8 15  1  0  0  0  0
  9 12  1  0  0  0  0
  9 16  1  0  0  0  0
 11 12  1  0  0  0  0
M  END
> <pdb_id>
4CC5

> <uniprot_id>
Q9AIU7

> <usmiles>
Clc1nc(cnc1)C2=NN=CN2

$$$$
L5Y_A_1311
          07192422563D 1   1.00000     0.00000     0
            
 35 37  0  0  0  0            999 V2000
   25.4010   22.0830    6.7820 F   0  0  0  0  0  0  0  0  0  0  0  0
   27.4930   22.5240    6.6700 F   0  0  0  0  0  0  0  0  0  0  0  0
   26.6430   21.1210    5.3270 F   0  0  0  0  0  0  0  0  0  0  0  0
   28.3780   13.3790    8.4130 O   0  0  0  0  0  0  0  0  0  0  0  0
   29.9570   18.9540   14.4530 N   0  0  0  0  0  0  0  0  0  0  0  0
   28.2440   21.6680   11.1850 N   0  0  0  0  0  0  0  0  0  0  0  0
   27.3120   20.8020    8.7890 N   0  0  0  0  0  0  0  0  0  0  0  0
   28.8660   21.8300   12.3900 N   0  0  0  0  0  0  0  0  0  0  0  0
   26.8490   16.7250    7.8590 N   0  0  0  0  0  0  0  0  0  0  0  0
   29.6350   18.0230   13.5490 C   0  0  0  0  0  0  0  0  0  0  0  0
   29.7480   20.2400   14.1370 C   0  0  0  0  0  0  0  0  0  0  0  0
   28.9670   18.3210   12.3790 C   0  0  0  0  0  0  0  0  0  0  0  0
   27.4520   18.5010    9.4320 C   0  0  0  0  0  0  0  0  0  0  0  0
   26.6670   19.0760    7.2610 C   0  0  0  0  0  0  0  0  0  0  0  0
   27.4720   14.3290    7.8590 C   0  0  0  0  0  0  0  0  0  0  0  0
   27.6300   15.6830    8.5340 C   0  0  0  0  0  0  0  0  0  0  0  0
   27.0240   18.0950    8.1730 C   0  0  0  0  0  0  0  0  0  0  0  0
   29.1100   20.6210   12.9680 C   0  0  0  0  0  0  0  0  0  0  0  0
   27.5880   19.8610    9.7120 C   0  0  0  0  0  0  0  0  0  0  0  0
   26.8910   20.4090    7.5810 C   0  0  0  0  0  0  0  0  0  0  0  0
   28.1420   20.3440   10.9840 C   0  0  0  0  0  0  0  0  0  0  0  0
   28.7260   19.6610   12.0520 C   0  0  0  0  0  0  0  0  0  0  0  0
   26.6050   21.5350    6.5910 C   0  0  0  0  0  0  0  0  0  0  0  0
   28.0800   12.5670    8.2400 H   0  0  0  0  0  0  0  0  0  0  0  0
   28.9570   22.5930   12.7440 H   0  0  0  0  0  0  0  0  0  0  0  0
   26.0170   16.5010    7.9010 H   0  0  0  0  0  0  0  0  0  0  0  0
   29.7460   17.1160   13.7870 H   0  0  0  0  0  0  0  0  0  0  0  0
   30.0280   20.9030   14.7460 H   0  0  0  0  0  0  0  0  0  0  0  0
   28.7180   17.6370   11.7870 H   0  0  0  0  0  0  0  0  0  0  0  0
   27.6580   17.8670   10.0800 H   0  0  0  0  0  0  0  0  0  0  0  0
   26.3990   18.8390    6.3960 H   0  0  0  0  0  0  0  0  0  0  0  0
   26.5520   14.0090    7.9770 H   0  0  0  0  0  0  0  0  0  0  0  0
   27.6440   14.4200    6.8990 H   0  0  0  0  0  0  0  0  0  0  0  0
   28.5760   15.9370    8.5300 H   0  0  0  0  0  0  0  0  0  0  0  0
   27.3390   15.6150    9.4670 H   0  0  0  0  0  0  0  0  0  0  0  0
  1 23  1  0  0  0  0
  2 23  1  0  0  0  0
  3 23  1  0  0  0  0
  4 15  1  0  0  0  0
  4 24  1  0  0  0  0
  5 10  2  0  0  0  0
  5 11  1  0  0  0  0
  6  8  1  0  0  0  0
  6 21  2  0  0  0  0
  7 19  2  0  0  0  0
  7 20  1  0  0  0  0
  8 18  1  0  0  0  0
  8 25  1  0  0  0  0
  9 16  1  0  0  0  0
  9 17  1  0  0  0  0
  9 26  1  0  0  0  0
 10 12  1  0  0  0  0
 10 27  1  0  0  0  0
 11 18  2  0  0  0  0
 11 28  1  0  0  0  0
 12 22  2  0  0  0  0
 12 29  1  0  0  0  0
 13 17  2  0  0  0  0
 13 19  1  0  0  0  0
 13 30  1  0  0  0  0
 14 17  1  0  0  0  0
 14 20  2  0  0  0  0
 14 31  1  0  0  0  0
 15 16  1  0  0  0  0
 15 32  1  0  0  0  0
 15 33  1  0  0  0  0
 16 34  1  0  0  0  0
 16 35  1  0  0  0  0
 18 22  1  0  0  0  0
 19 21  1  0  0  0  0
 20 23  1  0  0  0  0
 21 22  1  0  0  0  0
M  END
> <pdb_id>
4CC6

> <uniprot_id>
Q9AIU7

> <usmiles>
FC(F)(F)c1nc(cc(NCCO)c1)C2=NNc3c2ccnc3

$$$$
L63_A_302
          07202407423D 1   1.00000     0.00000     0
            
 41 42  0  0  0  0            999 V2000
   22.1747  -10.3885   -7.9872 O   0  0  0  0  0  0  0  0  0  0  0  0
   27.0838  -11.0695   -7.7982 O   0  0  0  0  0  0  0  0  0  0  0  0
   22.0692   -8.0070   -7.1976 O   0  0  0  0  0  0  0  0  0  0  0  0
   24.1150   -9.4451  -10.6440 O   0  0  0  0  0  0  0  0  0  0  0  0
   23.2451   -8.3921   -7.7068 N   0  0  0  0  0  0  0  0  0  0  0  0
   24.8493  -11.4592   -7.6834 N   0  0  0  0  0  0  0  0  0  0  0  0
   23.5771  -11.8116  -10.3574 C   0  0  0  0  0  0  0  0  0  0  0  0
   27.6935  -18.6462   -2.4070 C   0  0  0  0  0  0  0  0  0  0  0  0
   28.5540  -17.5687   -2.3998 C   0  0  0  0  0  0  0  0  0  0  0  0
   26.6157  -18.6656   -3.2706 C   0  0  0  0  0  0  0  0  0  0  0  0
   28.3419  -16.4994   -3.2331 C   0  0  0  0  0  0  0  0  0  0  0  0
   26.3824  -17.5932   -4.1187 C   0  0  0  0  0  0  0  0  0  0  0  0
   27.6640  -13.1690   -6.0039 C   0  0  0  0  0  0  0  0  0  0  0  0
   25.3836  -13.8489   -6.1588 C   0  0  0  0  0  0  0  0  0  0  0  0
   27.9188  -14.2863   -5.2134 C   0  0  0  0  0  0  0  0  0  0  0  0
   25.6315  -14.9552   -5.3601 C   0  0  0  0  0  0  0  0  0  0  0  0
   23.2188   -9.7444   -8.0597 C   0  0  0  0  0  0  0  0  0  0  0  0
   26.1661  -11.7607   -7.3587 C   0  0  0  0  0  0  0  0  0  0  0  0
   26.3822  -12.9502   -6.4919 C   0  0  0  0  0  0  0  0  0  0  0  0
   27.2346  -16.4660   -4.1165 C   0  0  0  0  0  0  0  0  0  0  0  0
   26.9211  -15.2049   -4.8602 C   0  0  0  0  0  0  0  0  0  0  0  0
   24.5214  -10.6548  -10.0207 C   0  0  2  0  0  0  0  0  0  0  0  0
   24.5355  -10.3240   -8.4989 C   0  0  2  0  0  0  0  0  0  0  0  0
   21.6116   -7.5720   -7.9620 H   0  0  0  0  0  0  0  0  0  0  0  0
   23.5904   -9.6619  -11.4596 H   0  0  0  0  0  0  0  0  0  0  0  0
   23.9371   -8.1438   -7.0073 H   0  0  0  0  0  0  0  0  0  0  0  0
   24.0655  -12.0147   -7.3591 H   0  0  0  0  0  0  0  0  0  0  0  0
   23.7495  -12.1815  -11.3667 H   0  0  0  0  0  0  0  0  0  0  0  0
   22.5264  -11.5262  -10.3088 H   0  0  0  0  0  0  0  0  0  0  0  0
   23.7148  -12.6616   -9.6920 H   0  0  0  0  0  0  0  0  0  0  0  0
   27.8481  -19.4717   -1.7159 H   0  0  0  0  0  0  0  0  0  0  0  0
   29.3991  -17.5573   -1.7127 H   0  0  0  0  0  0  0  0  0  0  0  0
   25.9534  -19.5291   -3.2806 H   0  0  0  0  0  0  0  0  0  0  0  0
   29.0703  -15.6927   -3.2183 H   0  0  0  0  0  0  0  0  0  0  0  0
   25.5685  -17.6744   -4.8362 H   0  0  0  0  0  0  0  0  0  0  0  0
   28.4737  -12.4779   -6.2323 H   0  0  0  0  0  0  0  0  0  0  0  0
   24.3714  -13.7566   -6.5432 H   0  0  0  0  0  0  0  0  0  0  0  0
   28.9480  -14.4363   -4.8985 H   0  0  0  0  0  0  0  0  0  0  0  0
   24.7928  -15.5996   -5.1059 H   0  0  0  0  0  0  0  0  0  0  0  0
   25.5350  -10.9197  -10.3171 H   0  0  0  0  0  0  0  0  0  0  0  0
   25.2731   -9.5376   -8.3498 H   0  0  0  0  0  0  0  0  0  0  0  0
  1 17  2  0  0  0  0
  2 18  2  0  0  0  0
  3  5  1  0  0  0  0
  3 24  1  0  0  0  0
  4 22  1  0  0  0  0
  4 25  1  0  0  0  0
  5 17  1  0  0  0  0
  5 26  1  0  0  0  0
  6 18  1  0  0  0  0
  6 23  1  0  0  0  0
  6 27  1  0  0  0  0
  7 22  1  0  0  0  0
  7 28  1  0  0  0  0
  7 29  1  0  0  0  0
  7 30  1  0  0  0  0
  8  9  2  0  0  0  0
  8 10  1  0  0  0  0
  8 31  1  0  0  0  0
  9 11  1  0  0  0  0
  9 32  1  0  0  0  0
 10 12  2  0  0  0  0
 10 33  1  0  0  0  0
 11 20  2  0  0  0  0
 11 34  1  0  0  0  0
 12 20  1  0  0  0  0
 12 35  1  0  0  0  0
 13 15  1  0  0  0  0
 13 19  2  0  0  0  0
 13 36  1  0  0  0  0
 14 16  2  0  0  0  0
 14 19  1  0  0  0  0
 14 37  1  0  0  0  0
 15 21  2  0  0  0  0
 15 38  1  0  0  0  0
 16 21  1  0  0  0  0
 16 39  1  0  0  0  0
 17 23  1  0  0  0  0
 18 19  1  0  0  0  0
 20 21  1  0  0  0  0
 22 23  1  0  0  0  0
 22 40  1  0  0  0  0
 23 41  1  0  0  0  0
M  END
> <pdb_id>
4FW7

> <uniprot_id>
P47205

> <usmiles>
O=C(N[C@H](C(=O)NO)[C@H](O)C)c1ccc(c2ccccc2)cc1

$$$$
L7T_A_304
          07192416293D 1   1.00000     0.00000     0
            
 17 17  0  0  0  0            999 V2000
   -6.0515    0.8869   16.9833 S   0  0  0  0  0  0  0  0  0  0  0  0
   -4.3856    0.6664   14.3699 F   0  0  0  0  0  0  0  0  0  0  0  0
   -6.7620    3.7570   17.1239 F   0  0  0  0  0  0  0  0  0  0  0  0
   -3.6120    2.6862   12.8184 F   0  0  0  0  0  0  0  0  0  0  0  0
   -6.0655    5.7279   15.4906 F   0  0  0  0  0  0  0  0  0  0  0  0
   -4.4133    5.2563   13.3788 F   0  0  0  0  0  0  0  0  0  0  0  0
   -5.4289    1.2106   18.2237 O   0  0  0  0  0  0  0  0  0  0  0  0
   -7.4958    0.9469   16.9043 O   0  0  0  0  0  0  0  0  0  0  0  0
   -5.5712   -0.5134   16.4468 N   0  0  0  0  0  0  0  0  0  0  0  0
   -5.5476    2.1571   15.8367 C   0  0  0  0  0  0  0  0  0  0  0  0
   -4.7719    1.9115   14.7101 C   0  0  0  0  0  0  0  0  0  0  0  0
   -5.9642    3.4618   16.0857 C   0  0  0  0  0  0  0  0  0  0  0  0
   -4.3902    2.9453   13.8881 C   0  0  0  0  0  0  0  0  0  0  0  0
   -5.5955    4.4876   15.2497 C   0  0  0  0  0  0  0  0  0  0  0  0
   -4.7974    4.2328   14.1629 C   0  0  0  0  0  0  0  0  0  0  0  0
   -6.0249   -0.7109   15.5778 H   0  0  0  0  0  0  0  0  0  0  0  0
   -4.5809   -0.4959   16.3094 H   0  0  0  0  0  0  0  0  0  0  0  0
  1  7  2  0  0  0  0
  1  8  2  0  0  0  0
  1  9  1  0  0  0  0
  1 10  1  0  0  0  0
  2 11  1  0  0  0  0
  3 12  1  0  0  0  0
  4 13  1  0  0  0  0
  5 14  1  0  0  0  0
  6 15  1  0  0  0  0
 10 11  2  0  0  0  0
 10 12  1  0  0  0  0
 11 13  1  0  0  0  0
 12 14  2  0  0  0  0
 13 15  2  0  0  0  0
 14 15  1  0  0  0  0
  9 16  1  0  0  0  0
  9 17  1  0  0  0  0
M  END
> <pdb_id>
6SD7

> <uniprot_id>
P00918

> <usmiles>
S(=O)(=O)(N)c1c(F)c(F)c(F)c(F)c1F

$$$$
L81_B_1225
          07192420423D 1   1.00000     0.00000     0
            
 43 46  0  0  0  0            999 V2000
   65.8287   34.2136   21.4445 O   0  0  0  0  0  0  0  0  0  0  0  0
   64.0758   34.2034   23.9968 O   0  0  0  0  0  0  0  0  0  0  0  0
   66.9660   32.1952   27.4124 N   0  0  0  0  0  0  0  0  0  0  0  0
   66.9116   36.0207   22.2935 N   0  0  0  0  0  0  0  0  0  0  0  0
   69.4092   31.2170   25.5124 C   0  0  0  0  0  0  0  0  0  0  0  0
   70.1529   33.4754   26.2599 C   0  0  0  0  0  0  0  0  0  0  0  0
   68.4062   32.2272   27.6156 C   0  0  0  0  0  0  0  0  0  0  0  0
   66.9145   36.7813   21.0365 C   0  0  0  0  0  0  0  0  0  0  0  0
   67.4061   36.8207   23.4351 C   0  0  0  0  0  0  0  0  0  0  0  0
   67.0645   40.6044   21.4654 C   0  0  0  0  0  0  0  0  0  0  0  0
   67.3273   40.6273   22.8262 C   0  0  0  0  0  0  0  0  0  0  0  0
   66.9075   39.3929   20.8134 C   0  0  0  0  0  0  0  0  0  0  0  0
   67.4735   39.4400   23.5325 C   0  0  0  0  0  0  0  0  0  0  0  0
   65.3705   33.1820   25.7361 C   0  0  0  0  0  0  0  0  0  0  0  0
   67.7083   33.6976   24.2452 C   0  0  0  0  0  0  0  0  0  0  0  0
   66.3991   34.7666   22.3998 C   0  0  0  0  0  0  0  0  0  0  0  0
   65.2892   33.8353   24.4966 C   0  0  0  0  0  0  0  0  0  0  0  0
   66.6169   32.8114   26.2194 C   0  0  0  0  0  0  0  0  0  0  0  0
   67.0460   38.1994   21.5190 C   0  0  0  0  0  0  0  0  0  0  0  0
   67.3204   38.2250   22.8894 C   0  0  0  0  0  0  0  0  0  0  0  0
   66.4610   34.0789   23.7311 C   0  0  0  0  0  0  0  0  0  0  0  0
   67.7859   33.0749   25.4864 C   0  0  0  0  0  0  0  0  0  0  0  0
   68.9845   32.5035   26.2073 C   0  0  0  0  0  0  0  0  0  0  0  0
   64.0192   34.6688   23.1135 H   0  0  0  0  0  0  0  0  0  0  0  0
   66.3138   31.7834   28.0487 H   0  0  0  0  0  0  0  0  0  0  0  0
   68.6359   30.5837   25.4819 H   0  0  0  0  0  0  0  0  0  0  0  0
   69.7073   31.4242   24.5806 H   0  0  0  0  0  0  0  0  0  0  0  0
   70.1633   30.7982   26.0182 H   0  0  0  0  0  0  0  0  0  0  0  0
   69.8660   34.3171   26.7174 H   0  0  0  0  0  0  0  0  0  0  0  0
   70.9085   33.0612   26.7672 H   0  0  0  0  0  0  0  0  0  0  0  0
   70.4524   33.6872   25.3296 H   0  0  0  0  0  0  0  0  0  0  0  0
   68.7339   31.3504   27.9674 H   0  0  0  0  0  0  0  0  0  0  0  0
   68.6582   32.9567   28.2515 H   0  0  0  0  0  0  0  0  0  0  0  0
   66.0620   36.6486   20.5310 H   0  0  0  0  0  0  0  0  0  0  0  0
   67.6885   36.5224   20.4585 H   0  0  0  0  0  0  0  0  0  0  0  0
   68.3475   36.5780   23.6689 H   0  0  0  0  0  0  0  0  0  0  0  0
   66.8228   36.7066   24.2393 H   0  0  0  0  0  0  0  0  0  0  0  0
   66.9883   41.4613   20.9555 H   0  0  0  0  0  0  0  0  0  0  0  0
   67.4122   41.5028   23.3018 H   0  0  0  0  0  0  0  0  0  0  0  0
   66.6948   39.3746   19.8364 H   0  0  0  0  0  0  0  0  0  0  0  0
   67.6899   39.4639   24.5085 H   0  0  0  0  0  0  0  0  0  0  0  0
   64.5430   32.9867   26.2625 H   0  0  0  0  0  0  0  0  0  0  0  0
   68.5410   33.8731   23.7201 H   0  0  0  0  0  0  0  0  0  0  0  0
  1 16  2  0  0  0  0
  2 17  1  0  0  0  0
  3  7  1  0  0  0  0
  3 18  1  0  0  0  0
  4  8  1  0  0  0  0
  4  9  1  0  0  0  0
  4 16  1  0  0  0  0
  5 23  1  0  0  0  0
  6 23  1  0  0  0  0
  7 23  1  0  0  0  0
  8 19  1  0  0  0  0
  9 20  1  0  0  0  0
 10 11  2  0  0  0  0
 10 12  1  0  0  0  0
 11 13  1  0  0  0  0
 12 19  2  0  0  0  0
 13 20  2  0  0  0  0
 14 17  2  0  0  0  0
 14 18  1  0  0  0  0
 15 21  2  0  0  0  0
 15 22  1  0  0  0  0
 16 21  1  0  0  0  0
 17 21  1  0  0  0  0
 18 22  2  0  0  0  0
 19 20  1  0  0  0  0
 22 23  1  0  0  0  0
  2 24  1  0  0  0  0
  3 25  1  0  0  0  0
  5 26  1  0  0  0  0
  5 27  1  0  0  0  0
  5 28  1  0  0  0  0
  6 29  1  0  0  0  0
  6 30  1  0  0  0  0
  6 31  1  0  0  0  0
  7 32  1  0  0  0  0
  7 33  1  0  0  0  0
  8 34  1  0  0  0  0
  8 35  1  0  0  0  0
  9 36  1  0  0  0  0
  9 37  1  0  0  0  0
 10 38  1  0  0  0  0
 11 39  1  0  0  0  0
 12 40  1  0  0  0  0
 13 41  1  0  0  0  0
 14 42  1  0  0  0  0
 15 43  1  0  0  0  0
M  END
> <pdb_id>
2XJJ

> <uniprot_id>
P07900

> <usmiles>
O=C(N1Cc2c(cccc2)C1)c3c(O)cc4NCC(c4c3)(C)C

$$$$
L87_A_1001
          07202415313D 1   1.00000     0.00000     0
            
 47 50  0  0  0  0            999 V2000
   18.7420  -16.5270   24.5080 O   0  0  0  0  0  0  0  0  0  0  0  0
   19.7550  -12.6890   26.6630 O   0  0  0  0  0  0  0  0  0  0  0  0
   19.2540  -14.6030   25.6000 N   0  0  0  0  0  0  0  0  0  0  0  0
   19.8270  -12.7150   22.0430 N   0  0  0  0  0  0  0  0  0  0  0  0
   19.2490  -14.7430   23.2490 N   0  0  0  0  0  0  0  0  0  0  0  0
   20.4890  -10.2360   22.0960 N   0  0  0  0  0  0  0  0  0  0  0  0
   20.1630  -11.4260   23.9250 N   0  0  0  0  0  0  0  0  0  0  0  0
   19.0580  -15.5040   22.0050 C   0  0  0  0  0  0  0  0  0  0  0  0
   16.7920   -9.5260   20.0090 C   0  0  0  0  0  0  0  0  0  0  0  0
   23.3280   -8.4150   24.1240 C   0  0  0  0  0  0  0  0  0  0  0  0
   20.5730  -10.0790   20.6410 C   0  0  0  0  0  0  0  0  0  0  0  0
   20.4880  -10.1510   24.3910 C   0  0  0  0  0  0  0  0  0  0  0  0
   18.1610   -9.2710   20.6060 C   0  0  0  0  0  0  0  0  0  0  0  0
   19.1900  -10.2260   20.0040 C   0  0  0  0  0  0  0  0  0  0  0  0
   21.8570   -5.3690   22.4210 C   0  0  0  0  0  0  0  0  0  0  0  0
   20.6230   -5.8510   21.9860 C   0  0  0  0  0  0  0  0  0  0  0  0
   22.7280   -6.2110   23.1080 C   0  0  0  0  0  0  0  0  0  0  0  0
   20.2560   -7.1670   22.2450 C   0  0  0  0  0  0  0  0  0  0  0  0
   19.0740  -15.3150   24.4500 C   0  0  0  0  0  0  0  0  0  0  0  0
   20.1660  -11.4750   22.5910 C   0  0  0  0  0  0  0  0  0  0  0  0
   19.6110  -13.2910   25.5860 C   0  0  0  0  0  0  0  0  0  0  0  0
   19.6030  -13.4580   23.1880 C   0  0  0  0  0  0  0  0  0  0  0  0
   20.7130   -9.4300   23.1730 C   0  0  0  0  0  0  0  0  0  0  0  0
   19.7960  -12.6890   24.3390 C   0  0  0  0  0  0  0  0  0  0  0  0
   22.3610   -7.5320   23.3670 C   0  0  0  0  0  0  0  0  0  0  0  0
   21.1180   -8.0070   22.9460 C   0  0  0  0  0  0  0  0  0  0  0  0
   19.1194  -15.0597   26.4794 H   0  0  0  0  0  0  0  0  0  0  0  0
   19.2331  -14.9094   21.2203 H   0  0  0  0  0  0  0  0  0  0  0  0
   19.6927  -16.2765   21.9860 H   0  0  0  0  0  0  0  0  0  0  0  0
   18.1183  -15.8435   21.9629 H   0  0  0  0  0  0  0  0  0  0  0  0
   16.1297   -8.8944   20.4120 H   0  0  0  0  0  0  0  0  0  0  0  0
   16.8282   -9.3846   19.0197 H   0  0  0  0  0  0  0  0  0  0  0  0
   16.5146  -10.4673   20.2013 H   0  0  0  0  0  0  0  0  0  0  0  0
   22.9314   -9.3264   24.2336 H   0  0  0  0  0  0  0  0  0  0  0  0
   24.1856   -8.4838   23.6143 H   0  0  0  0  0  0  0  0  0  0  0  0
   23.5064   -8.0186   25.0246 H   0  0  0  0  0  0  0  0  0  0  0  0
   21.1824  -10.7794   20.2693 H   0  0  0  0  0  0  0  0  0  0  0  0
   20.9382   -9.1726   20.4286 H   0  0  0  0  0  0  0  0  0  0  0  0
   20.5484   -9.8241   25.3341 H   0  0  0  0  0  0  0  0  0  0  0  0
   18.1205   -9.4111   21.5953 H   0  0  0  0  0  0  0  0  0  0  0  0
   18.4340   -8.3284   20.4137 H   0  0  0  0  0  0  0  0  0  0  0  0
   18.8733  -11.1648   20.1394 H   0  0  0  0  0  0  0  0  0  0  0  0
   19.2669  -10.0381   19.0248 H   0  0  0  0  0  0  0  0  0  0  0  0
   22.1161   -4.4203   22.2400 H   0  0  0  0  0  0  0  0  0  0  0  0
   20.0003   -5.2487   21.4865 H   0  0  0  0  0  0  0  0  0  0  0  0
   23.6160   -5.8690   23.4155 H   0  0  0  0  0  0  0  0  0  0  0  0
   19.3722   -7.5107   21.9276 H   0  0  0  0  0  0  0  0  0  0  0  0
  1 19  2  0  0  0  0
  2 21  2  0  0  0  0
  3 19  1  0  0  0  0
  3 21  1  0  0  0  0
  4 20  2  0  0  0  0
  4 22  1  0  0  0  0
  5  8  1  0  0  0  0
  5 19  1  0  0  0  0
  5 22  1  0  0  0  0
  6 11  1  0  0  0  0
  6 20  1  0  0  0  0
  6 23  1  0  0  0  0
  7 12  1  0  0  0  0
  7 20  1  0  0  0  0
  7 24  1  0  0  0  0
  9 13  1  0  0  0  0
 10 25  1  0  0  0  0
 11 14  1  0  0  0  0
 12 23  2  0  0  0  0
 13 14  1  0  0  0  0
 15 16  2  0  0  0  0
 15 17  1  0  0  0  0
 16 18  1  0  0  0  0
 17 25  2  0  0  0  0
 18 26  2  0  0  0  0
 21 24  1  0  0  0  0
 22 24  2  0  0  0  0
 23 26  1  0  0  0  0
 25 26  1  0  0  0  0
  3 27  1  0  0  0  0
  8 28  1  0  0  0  0
  8 29  1  0  0  0  0
  8 30  1  0  0  0  0
  9 31  1  0  0  0  0
  9 32  1  0  0  0  0
  9 33  1  0  0  0  0
 10 34  1  0  0  0  0
 10 35  1  0  0  0  0
 10 36  1  0  0  0  0
 11 37  1  0  0  0  0
 11 38  1  0  0  0  0
 12 39  1  0  0  0  0
 13 40  1  0  0  0  0
 13 41  1  0  0  0  0
 14 42  1  0  0  0  0
 14 43  1  0  0  0  0
 15 44  1  0  0  0  0
 16 45  1  0  0  0  0
 17 46  1  0  0  0  0
 18 47  1  0  0  0  0
M  END
> <pdb_id>
4GK3

> <uniprot_id>
Q6P4R6

> <usmiles>
O=C1N(C=2N=C3N(C2C(=O)N1)C=C(N3CCCC)c4c(cccc4)C)C

$$$$
L8D_A_301
          07202403313D 1   1.00000     0.00000     0
            
 56 60  0  0  0  0            999 V2000
  -16.4660   13.4150  -37.1640 O   0  0  0  0  0  0  0  0  0  0  0  0
  -16.7120   18.1320  -37.0470 O   0  0  0  0  0  0  0  0  0  0  0  0
  -17.1930   14.9320  -43.8170 O   0  0  0  0  0  0  0  0  0  0  0  0
  -15.7990   12.7810  -34.4750 N   0  0  0  0  0  0  0  0  0  0  0  0
  -16.0490   16.4440  -42.4780 N   0  0  0  0  0  0  0  0  0  0  0  0
  -16.7820   15.5590  -36.6010 N   0  0  0  0  0  0  0  0  0  0  0  0
  -16.0430   14.8640  -33.9150 N   0  0  0  0  0  0  0  0  0  0  0  0
  -15.5340   12.8970  -33.2300 N   0  0  0  0  0  0  0  0  0  0  0  0
  -16.7200   18.0010  -39.2610 N   0  0  0  0  0  0  0  0  0  0  0  0
  -16.0540   14.9460  -44.6810 C   0  0  0  0  0  0  0  0  0  0  0  0
  -16.4460   19.4470  -39.3580 C   0  0  0  0  0  0  0  0  0  0  0  0
  -15.8970   17.2000  -41.4030 C   0  0  0  0  0  0  0  0  0  0  0  0
  -17.2560    8.3440  -32.4360 C   0  0  0  0  0  0  0  0  0  0  0  0
  -17.8520    9.4200  -31.7950 C   0  0  0  0  0  0  0  0  0  0  0  0
  -15.9850    8.4760  -32.9810 C   0  0  0  0  0  0  0  0  0  0  0  0
  -15.3750   14.3470  -31.3790 C   0  0  0  0  0  0  0  0  0  0  0  0
  -17.1630   10.6210  -31.6930 C   0  0  0  0  0  0  0  0  0  0  0  0
  -15.2900    9.6760  -32.8630 C   0  0  0  0  0  0  0  0  0  0  0  0
  -18.5710   15.5870  -38.2580 C   0  0  0  0  0  0  0  0  0  0  0  0
  -15.4530   12.8890  -30.8400 C   0  0  0  0  0  0  0  0  0  0  0  0
  -19.0590   16.3910  -39.4780 C   0  0  0  0  0  0  0  0  0  0  0  0
  -18.1200   15.6240  -41.7080 C   0  0  0  0  0  0  0  0  0  0  0  0
  -16.4650   14.2870  -36.3100 C   0  0  0  0  0  0  0  0  0  0  0  0
  -17.1070   15.6800  -42.6730 C   0  0  0  0  0  0  0  0  0  0  0  0
  -16.8410   17.4310  -38.0530 C   0  0  0  0  0  0  0  0  0  0  0  0
  -16.1080   13.9750  -34.9230 C   0  0  0  0  0  0  0  0  0  0  0  0
  -15.6830   14.1870  -32.8570 C   0  0  0  0  0  0  0  0  0  0  0  0
  -17.1160   15.9470  -37.9630 C   0  0  1  0  0  0  0  0  0  0  0  0
  -15.1280   12.0550  -32.1070 C   0  0  1  0  0  0  0  0  0  0  0  0
  -16.8660   17.2060  -40.4130 C   0  0  0  0  0  0  0  0  0  0  0  0
  -15.8820   10.7470  -32.2140 C   0  0  0  0  0  0  0  0  0  0  0  0
  -18.0010   16.4030  -40.5600 C   0  0  0  0  0  0  0  0  0  0  0  0
  -16.7886   16.2463  -35.8746 H   0  0  0  0  0  0  0  0  0  0  0  0
  -16.2326   14.3682  -45.4774 H   0  0  0  0  0  0  0  0  0  0  0  0
  -15.8755   15.8827  -44.9821 H   0  0  0  0  0  0  0  0  0  0  0  0
  -15.2572   14.5969  -44.1878 H   0  0  0  0  0  0  0  0  0  0  0  0
  -16.3855   19.7110  -40.3206 H   0  0  0  0  0  0  0  0  0  0  0  0
  -17.1857   19.9566  -38.9185 H   0  0  0  0  0  0  0  0  0  0  0  0
  -15.5811   19.6538  -38.9007 H   0  0  0  0  0  0  0  0  0  0  0  0
  -15.0803   17.7687  -41.3048 H   0  0  0  0  0  0  0  0  0  0  0  0
  -17.7416    7.4726  -32.5059 H   0  0  0  0  0  0  0  0  0  0  0  0
  -18.7704    9.3314  -31.4095 H   0  0  0  0  0  0  0  0  0  0  0  0
  -15.5671    7.7045  -33.4608 H   0  0  0  0  0  0  0  0  0  0  0  0
  -14.4620   14.7315  -31.2425 H   0  0  0  0  0  0  0  0  0  0  0  0
  -16.0529   14.9311  -30.9326 H   0  0  0  0  0  0  0  0  0  0  0  0
  -17.5930   11.4022  -31.2404 H   0  0  0  0  0  0  0  0  0  0  0  0
  -14.3697    9.7644  -33.2441 H   0  0  0  0  0  0  0  0  0  0  0  0
  -18.6397   14.6088  -38.4538 H   0  0  0  0  0  0  0  0  0  0  0  0
  -19.1372   15.8086  -37.4641 H   0  0  0  0  0  0  0  0  0  0  0  0
  -16.3668   12.6792  -30.4921 H   0  0  0  0  0  0  0  0  0  0  0  0
  -14.7778   12.7320  -30.1193 H   0  0  0  0  0  0  0  0  0  0  0  0
  -19.2533   17.3308  -39.1969 H   0  0  0  0  0  0  0  0  0  0  0  0
  -19.8926   15.9713  -39.8371 H   0  0  0  0  0  0  0  0  0  0  0  0
  -18.9163   15.0339  -41.8411 H   0  0  0  0  0  0  0  0  0  0  0  0
  -16.5191   15.4608  -38.6012 H   0  0  0  0  0  0  0  0  0  0  0  0
  -14.1442   11.8819  -32.1536 H   0  0  0  0  0  0  0  0  0  0  0  0
  1 23  2  0  0  0  0
  2 25  2  0  0  0  0
  3 10  1  0  0  0  0
  3 24  1  0  0  0  0
  4  8  1  0  0  0  0
  4 26  2  0  0  0  0
  5 12  1  0  0  0  0
  5 24  2  0  0  0  0
  6 23  1  0  0  0  0
  6 28  1  0  0  0  0
  7 26  1  0  0  0  0
  7 27  2  0  0  0  0
  8 27  1  0  0  0  0
  8 29  1  0  0  0  0
  9 11  1  0  0  0  0
  9 25  1  0  0  0  0
  9 30  1  0  0  0  0
 12 30  2  0  0  0  0
 13 14  2  0  0  0  0
 13 15  1  0  0  0  0
 14 17  1  0  0  0  0
 15 18  2  0  0  0  0
 16 20  1  0  0  0  0
 16 27  1  0  0  0  0
 17 31  2  0  0  0  0
 18 31  1  0  0  0  0
 19 21  1  0  0  0  0
 19 28  1  0  0  0  0
 20 29  1  0  0  0  0
 21 32  1  0  0  0  0
 22 24  1  0  0  0  0
 22 32  2  0  0  0  0
 23 26  1  0  0  0  0
 25 28  1  0  0  0  0
 29 31  1  0  0  0  0
 30 32  1  0  0  0  0
  6 33  1  0  0  0  0
 10 34  1  0  0  0  0
 10 35  1  0  0  0  0
 10 36  1  0  0  0  0
 11 37  1  0  0  0  0
 11 38  1  0  0  0  0
 11 39  1  0  0  0  0
 12 40  1  0  0  0  0
 13 41  1  0  0  0  0
 14 42  1  0  0  0  0
 15 43  1  0  0  0  0
 16 44  1  0  0  0  0
 16 45  1  0  0  0  0
 17 46  1  0  0  0  0
 18 47  1  0  0  0  0
 19 48  1  0  0  0  0
 19 49  1  0  0  0  0
 20 50  1  0  0  0  0
 20 51  1  0  0  0  0
 21 52  1  0  0  0  0
 21 53  1  0  0  0  0
 22 54  1  0  0  0  0
 28 55  1  0  0  0  0
 29 56  1  0  0  0  0
M  END
> <pdb_id>
6NYH

> <uniprot_id>
Q13546

> <usmiles>
O=C(N[C@@H]1C(=O)N(c2c(cc(OC)nc2)CC1)C)C3=NN4C(=N3)CC[C@H]4c5ccccc5

$$$$
L8V_A_1
          07202403373D 1   1.00000     0.00000     0
            
 49 52  0  0  0  0            999 V2000
    0.0090   -1.6100   56.7300 F   0  0  0  0  0  0  0  0  0  0  0  0
    1.0220   11.2600   54.0730 F   0  0  0  0  0  0  0  0  0  0  0  0
    1.9090    0.5700   53.1520 F   0  0  0  0  0  0  0  0  0  0  0  0
    0.6860    4.1310   54.7620 O   0  0  0  0  0  0  0  0  0  0  0  0
    1.7840   11.3410   56.7350 O   0  0  0  0  0  0  0  0  0  0  0  0
    0.3990   14.1410   60.3990 N   0  0  0  0  0  0  0  0  0  0  0  0
   -1.0800   12.6670   59.4050 N   0  0  0  0  0  0  0  0  0  0  0  0
    0.9260    7.1010   51.7000 N   0  0  0  0  0  0  0  0  0  0  0  0
    0.0680    2.6320   53.2070 N   0  0  0  0  0  0  0  0  0  0  0  0
    1.2300    6.5300   53.9840 N   0  0  0  0  0  0  0  0  0  0  0  0
    0.5750    6.7420   50.4390 C   0  0  0  0  0  0  0  0  0  0  0  0
   -1.4470   11.7160   58.5190 C   0  0  0  0  0  0  0  0  0  0  0  0
    0.1570    5.4470   50.1170 C   0  0  0  0  0  0  0  0  0  0  0  0
   -1.0530    0.4560   56.0480 C   0  0  0  0  0  0  0  0  0  0  0  0
   -0.5540   11.2180   57.5930 C   0  0  0  0  0  0  0  0  0  0  0  0
    1.8910    8.8670   56.6850 C   0  0  0  0  0  0  0  0  0  0  0  0
    0.1210    4.5360   51.1730 C   0  0  0  0  0  0  0  0  0  0  0  0
    1.7390    7.6710   55.9570 C   0  0  0  0  0  0  0  0  0  0  0  0
   -1.0350    1.5510   55.1340 C   0  0  0  0  0  0  0  0  0  0  0  0
    0.9430   -0.5190   54.9570 C   0  0  0  0  0  0  0  0  0  0  0  0
    1.1450   12.7510   58.5530 C   0  0  0  0  0  0  0  0  0  0  0  0
    1.1130    8.9410   53.9780 C   0  0  0  0  0  0  0  0  0  0  0  0
   -0.0510   -0.5530   55.9240 C   0  0  0  0  0  0  0  0  0  0  0  0
    1.2610   10.1180   54.7060 C   0  0  0  0  0  0  0  0  0  0  0  0
    0.9430    0.5620   54.0720 C   0  0  0  0  0  0  0  0  0  0  0  0
    0.4260    3.8780   53.5830 C   0  0  0  0  0  0  0  0  0  0  0  0
    0.7660   11.7540   57.6200 C   0  0  0  0  0  0  0  0  0  0  0  0
    0.1640   13.1890   59.4510 C   0  0  0  0  0  0  0  0  0  0  0  0
    1.6480   10.1220   56.0550 C   0  0  0  0  0  0  0  0  0  0  0  0
    1.3510    7.7180   54.6080 C   0  0  0  0  0  0  0  0  0  0  0  0
    0.8820    6.1930   52.7140 C   0  0  0  0  0  0  0  0  0  0  0  0
   -0.0170    1.6110   54.1220 C   0  0  0  0  0  0  0  0  0  0  0  0
    0.4760    4.8700   52.4940 C   0  0  0  0  0  0  0  0  0  0  0  0
    1.3044   14.5589   60.4743 H   0  0  0  0  0  0  0  0  0  0  0  0
   -0.3341   14.4211   61.0188 H   0  0  0  0  0  0  0  0  0  0  0  0
   -0.1389    2.4491   52.2459 H   0  0  0  0  0  0  0  0  0  0  0  0
    1.4360    5.7447   54.5678 H   0  0  0  0  0  0  0  0  0  0  0  0
    0.6169    7.4289   49.7135 H   0  0  0  0  0  0  0  0  0  0  0  0
   -2.3837   11.3663   58.5346 H   0  0  0  0  0  0  0  0  0  0  0  0
   -0.1006    5.1894   49.1857 H   0  0  0  0  0  0  0  0  0  0  0  0
   -1.7524    0.3965   56.7602 H   0  0  0  0  0  0  0  0  0  0  0  0
   -0.8203   10.5144   56.9342 H   0  0  0  0  0  0  0  0  0  0  0  0
    2.1697    8.8356   57.6449 H   0  0  0  0  0  0  0  0  0  0  0  0
   -0.1715    3.5990   50.9822 H   0  0  0  0  0  0  0  0  0  0  0  0
    1.9070    6.7902   56.3997 H   0  0  0  0  0  0  0  0  0  0  0  0
   -1.7257    2.2714   55.1972 H   0  0  0  0  0  0  0  0  0  0  0  0
    1.6329   -1.2403   54.8957 H   0  0  0  0  0  0  0  0  0  0  0  0
    2.0722   13.1252   58.5693 H   0  0  0  0  0  0  0  0  0  0  0  0
    0.8398    8.9709   53.0165 H   0  0  0  0  0  0  0  0  0  0  0  0
  1 23  1  0  0  0  0
  2 24  1  0  0  0  0
  3 25  1  0  0  0  0
  4 26  2  0  0  0  0
  5 27  1  0  0  0  0
  5 29  1  0  0  0  0
  6 28  1  0  0  0  0
  7 12  1  0  0  0  0
  7 28  2  0  0  0  0
  8 11  1  0  0  0  0
  8 31  2  0  0  0  0
  9 26  1  0  0  0  0
  9 32  1  0  0  0  0
 10 30  1  0  0  0  0
 10 31  1  0  0  0  0
 11 13  2  0  0  0  0
 12 15  2  0  0  0  0
 13 17  1  0  0  0  0
 14 19  2  0  0  0  0
 14 23  1  0  0  0  0
 15 27  1  0  0  0  0
 16 18  1  0  0  0  0
 16 29  2  0  0  0  0
 17 33  2  0  0  0  0
 18 30  2  0  0  0  0
 19 32  1  0  0  0  0
 20 23  2  0  0  0  0
 20 25  1  0  0  0  0
 21 27  2  0  0  0  0
 21 28  1  0  0  0  0
 22 24  2  0  0  0  0
 22 30  1  0  0  0  0
 24 29  1  0  0  0  0
 25 32  2  0  0  0  0
 26 33  1  0  0  0  0
 31 33  1  0  0  0  0
  6 34  1  0  0  0  0
  6 35  1  0  0  0  0
  9 36  1  0  0  0  0
 10 37  1  0  0  0  0
 11 38  1  0  0  0  0
 12 39  1  0  0  0  0
 13 40  1  0  0  0  0
 14 41  1  0  0  0  0
 15 42  1  0  0  0  0
 16 43  1  0  0  0  0
 17 44  1  0  0  0  0
 18 45  1  0  0  0  0
 19 46  1  0  0  0  0
 20 47  1  0  0  0  0
 21 48  1  0  0  0  0
 22 49  1  0  0  0  0
M  END
> <pdb_id>
3L8V

> <uniprot_id>
P08581

> <usmiles>
Fc1c(Oc2cc(ncc2)N)ccc(Nc3ncccc3C(=O)Nc4c(F)cc(F)cc4)c1

$$$$
L96_A_201
          07202409203D 1   1.00000     0.00000     0
            
 65 69  0  0  0  0            999 V2000
    6.3400    5.7860   14.3660 O   0  0  0  0  0  0  0  0  0  0  0  0
    5.9080    4.6340   16.2140 O   0  0  0  0  0  0  0  0  0  0  0  0
    2.7670   10.8010   13.7780 O   0  0  0  0  0  0  0  0  0  0  0  0
   -0.5930    7.0150   17.8450 N   0  0  0  0  0  0  0  0  0  0  0  0
   -0.3330    5.6440   17.9970 N   0  0  0  0  0  0  0  0  0  0  0  0
    5.2690    7.5250   17.5370 N   0  0  0  0  0  0  0  0  0  0  0  0
    4.2400   12.4890   14.6190 C   0  0  0  0  0  0  0  0  0  0  0  0
    1.6950   12.8180   14.3050 C   0  0  0  0  0  0  0  0  0  0  0  0
    0.8340    9.1920   17.8130 C   0  0  0  0  0  0  0  0  0  0  0  0
    1.6460    4.0420   18.3770 C   0  0  0  0  0  0  0  0  0  0  0  0
    6.3920    7.9000   16.6720 C   0  0  0  0  0  0  0  0  0  0  0  0
    2.7070    7.1190   13.4770 C   0  0  0  0  0  0  0  0  0  0  0  0
    7.2940    6.6870   16.3870 C   0  0  0  0  0  0  0  0  0  0  0  0
    2.6310    8.4970   13.1500 C   0  0  0  0  0  0  0  0  0  0  0  0
    6.3600    7.2440   19.8490 C   0  0  0  0  0  0  0  0  0  0  0  0
    3.1820    6.7210   14.7640 C   0  0  0  0  0  0  0  0  0  0  0  0
    6.0910    6.8610   21.1730 C   0  0  0  0  0  0  0  0  0  0  0  0
    3.3900    6.7330   23.7850 C   0  0  0  0  0  0  0  0  0  0  0  0
    4.8770    7.1200   24.0640 C   0  0  0  0  0  0  0  0  0  0  0  0
    3.4100    9.0890   15.3970 C   0  0  0  0  0  0  0  0  0  0  0  0
    3.7540    6.5070   20.6940 C   0  0  0  0  0  0  0  0  0  0  0  0
    6.5110    5.6580   15.5860 C   0  0  0  0  0  0  0  0  0  0  0  0
    2.8460   11.8740   14.7170 C   0  0  0  0  0  0  0  0  0  0  0  0
    2.9530    9.4600   14.1290 C   0  0  0  0  0  0  0  0  0  0  0  0
    0.6060    7.7040   17.9180 C   0  0  0  0  0  0  0  0  0  0  0  0
    1.0010    5.3800   18.1530 C   0  0  0  0  0  0  0  0  0  0  0  0
    5.3550    7.2420   18.8710 C   0  0  0  0  0  0  0  0  0  0  0  0
    3.9530    7.4230   17.1020 C   0  0  0  0  0  0  0  0  0  0  0  0
    4.5300    6.0790   23.0130 C   0  0  0  0  0  0  0  0  0  0  0  0
    3.4920    7.6970   15.7120 C   0  0  0  0  0  0  0  0  0  0  0  0
    4.7750    6.5420   21.6030 C   0  0  0  0  0  0  0  0  0  0  0  0
    4.0060    6.8110   19.3580 C   0  0  0  0  0  0  0  0  0  0  0  0
    1.6300    6.7030   18.1390 C   0  0  0  0  0  0  0  0  0  0  0  0
    3.1370    6.9640   18.1970 C   0  0  0  0  0  0  0  0  0  0  0  0
    6.7779    6.5398   13.8761 H   0  0  0  0  0  0  0  0  0  0  0  0
   -1.4942    7.4258   17.7070 H   0  0  0  0  0  0  0  0  0  0  0  0
    4.3176   13.2444   15.2697 H   0  0  0  0  0  0  0  0  0  0  0  0
    4.9267   11.7939   14.8318 H   0  0  0  0  0  0  0  0  0  0  0  0
    4.3888   12.8315   13.6913 H   0  0  0  0  0  0  0  0  0  0  0  0
    1.6761   13.6078   14.9180 H   0  0  0  0  0  0  0  0  0  0  0  0
    1.8388   13.1286   13.3654 H   0  0  0  0  0  0  0  0  0  0  0  0
    0.8250   12.3287   14.3648 H   0  0  0  0  0  0  0  0  0  0  0  0
    1.8105    9.3869   17.9045 H   0  0  0  0  0  0  0  0  0  0  0  0
    0.5112    9.5168   16.9240 H   0  0  0  0  0  0  0  0  0  0  0  0
    0.3314    9.6584   18.5409 H   0  0  0  0  0  0  0  0  0  0  0  0
    2.6362    4.1581   18.4545 H   0  0  0  0  0  0  0  0  0  0  0  0
    1.2908    3.6377   19.2198 H   0  0  0  0  0  0  0  0  0  0  0  0
    1.4404    3.4395   17.6058 H   0  0  0  0  0  0  0  0  0  0  0  0
    6.9314    8.6099   17.1249 H   0  0  0  0  0  0  0  0  0  0  0  0
    6.0354    8.2532   15.8071 H   0  0  0  0  0  0  0  0  0  0  0  0
    2.4291    6.4286   12.8091 H   0  0  0  0  0  0  0  0  0  0  0  0
    7.5922    6.2817   17.2512 H   0  0  0  0  0  0  0  0  0  0  0  0
    8.0936    6.9806   15.8631 H   0  0  0  0  0  0  0  0  0  0  0  0
    2.3516    8.7833   12.2335 H   0  0  0  0  0  0  0  0  0  0  0  0
    7.2868    7.5238   19.5986 H   0  0  0  0  0  0  0  0  0  0  0  0
    3.2914    5.7516   14.9837 H   0  0  0  0  0  0  0  0  0  0  0  0
    6.8440    6.8116   21.8291 H   0  0  0  0  0  0  0  0  0  0  0  0
    2.7796    7.3799   23.3279 H   0  0  0  0  0  0  0  0  0  0  0  0
    2.8727    6.2063   24.4596 H   0  0  0  0  0  0  0  0  0  0  0  0
    5.3157    6.8431   24.9189 H   0  0  0  0  0  0  0  0  0  0  0  0
    5.2226    8.0167   23.7872 H   0  0  0  0  0  0  0  0  0  0  0  0
    3.6736    9.7816   16.0684 H   0  0  0  0  0  0  0  0  0  0  0  0
    2.8294    6.2640   20.9873 H   0  0  0  0  0  0  0  0  0  0  0  0
    2.6896   11.5293   15.6426 H   0  0  0  0  0  0  0  0  0  0  0  0
    4.7400    5.1247   23.2256 H   0  0  0  0  0  0  0  0  0  0  0  0
  1 22  1  0  0  0  0
  2 22  2  0  0  0  0
  3 23  1  0  0  0  0
  3 24  1  0  0  0  0
  4  5  1  0  0  0  0
  4 25  1  0  0  0  0
  5 26  2  0  0  0  0
  6 11  1  0  0  0  0
  6 27  1  0  0  0  0
  6 28  1  0  0  0  0
  7 23  1  0  0  0  0
  8 23  1  0  0  0  0
  9 25  1  0  0  0  0
 10 26  1  0  0  0  0
 11 13  1  0  0  0  0
 12 14  2  0  0  0  0
 12 16  1  0  0  0  0
 13 22  1  0  0  0  0
 14 24  1  0  0  0  0
 15 17  1  0  0  0  0
 15 27  2  0  0  0  0
 16 30  2  0  0  0  0
 17 31  2  0  0  0  0
 18 19  1  0  0  0  0
 18 29  1  0  0  0  0
 19 29  1  0  0  0  0
 20 24  2  0  0  0  0
 20 30  1  0  0  0  0
 21 31  1  0  0  0  0
 21 32  2  0  0  0  0
 25 33  2  0  0  0  0
 26 33  1  0  0  0  0
 27 32  1  0  0  0  0
 28 30  1  0  0  0  0
 28 34  2  0  0  0  0
 29 31  1  0  0  0  0
 32 34  1  0  0  0  0
 33 34  1  0  0  0  0
  1 35  1  0  0  0  0
  4 36  1  0  0  0  0
  7 37  1  0  0  0  0
  7 38  1  0  0  0  0
  7 39  1  0  0  0  0
  8 40  1  0  0  0  0
  8 41  1  0  0  0  0
  8 42  1  0  0  0  0
  9 43  1  0  0  0  0
  9 44  1  0  0  0  0
  9 45  1  0  0  0  0
 10 46  1  0  0  0  0
 10 47  1  0  0  0  0
 10 48  1  0  0  0  0
 11 49  1  0  0  0  0
 11 50  1  0  0  0  0
 12 51  1  0  0  0  0
 13 52  1  0  0  0  0
 13 53  1  0  0  0  0
 14 54  1  0  0  0  0
 15 55  1  0  0  0  0
 16 56  1  0  0  0  0
 17 57  1  0  0  0  0
 18 58  1  0  0  0  0
 18 59  1  0  0  0  0
 19 60  1  0  0  0  0
 19 61  1  0  0  0  0
 20 62  1  0  0  0  0
 21 63  1  0  0  0  0
 23 64  1  0  0  0  0
 29 65  1  0  0  0  0
M  END
> <pdb_id>
5D48

> <uniprot_id>
P15090

> <usmiles>
O=C(O)CCN1c2c(cc(cc2)C3CC3)C(=C1c4cc(OC(C)C)ccc4)C=5C(=NNC5C)C

$$$$
L9M_B_351
          07202403383D 1   1.00000     0.00000     0
            
 49 52  0  0  0  0            999 V2000
   74.4360   94.6250   27.1070 S   0  0  0  0  0  0  0  0  0  0  0  0
   72.7760   99.0520   28.0240 N   0  0  0  0  0  0  0  0  0  0  0  0
   73.0280   94.1480   29.0770 N   0  0  0  0  0  0  0  0  0  0  0  0
   72.9740   93.0810   28.4360 N   0  0  0  0  0  0  0  0  0  0  0  0
   74.8560   89.5510   22.4550 N   0  0  0  0  0  0  0  0  0  0  0  0
   73.9370   89.0350   23.2690 N   0  0  0  0  0  0  0  0  0  0  0  0
   73.7960   96.4950   29.1770 N   0  0  0  0  0  0  0  0  0  0  0  0
   76.3340   91.5580   22.2400 C   0  0  0  0  0  0  0  0  0  0  0  0
   78.0430   95.1220   23.2270 C   0  0  0  0  0  0  0  0  0  0  0  0
   74.6250   97.4460   28.3950 C   0  0  0  0  0  0  0  0  0  0  0  0
   72.7680   89.7310   25.5250 C   0  0  0  0  0  0  0  0  0  0  0  0
   75.6710   96.1670   23.8510 C   0  0  0  0  0  0  0  0  0  0  0  0
   77.7370   97.1090   25.0820 C   0  0  0  0  0  0  0  0  0  0  0  0
   74.8340   97.0770   24.5700 C   0  0  0  0  0  0  0  0  0  0  0  0
   76.8820   98.0130   25.7930 C   0  0  0  0  0  0  0  0  0  0  0  0
   72.7870   90.8260   26.4780 C   0  0  0  0  0  0  0  0  0  0  0  0
   74.5600   98.8980   26.2920 C   0  0  0  0  0  0  0  0  0  0  0  0
   74.5570   92.0550   25.0990 C   0  0  0  0  0  0  0  0  0  0  0  0
   73.7000   95.2030   28.5910 C   0  0  0  0  0  0  0  0  0  0  0  0
   73.6310   93.0600   27.2640 C   0  0  0  0  0  0  0  0  0  0  0  0
   73.7470   98.1410   27.3490 C   0  0  2  0  0  0  0  0  0  0  0  0
   75.3000   90.7320   22.8890 C   0  0  0  0  0  0  0  0  0  0  0  0
   73.6580   89.8270   24.3600 C   0  0  0  0  0  0  0  0  0  0  0  0
   77.0880   96.2190   24.1350 C   0  0  0  0  0  0  0  0  0  0  0  0
   75.4650   97.9600   25.5110 C   0  0  0  0  0  0  0  0  0  0  0  0
   73.6640   91.9680   26.2700 C   0  0  0  0  0  0  0  0  0  0  0  0
   74.5680   90.9800   24.1200 C   0  0  0  0  0  0  0  0  0  0  0  0
   72.2069   99.5017   27.3356 H   0  0  0  0  0  0  0  0  0  0  0  0
   72.1954   98.5216   28.6418 H   0  0  0  0  0  0  0  0  0  0  0  0
   73.4915   88.1552   23.1034 H   0  0  0  0  0  0  0  0  0  0  0  0
   73.3468   96.7401   30.0361 H   0  0  0  0  0  0  0  0  0  0  0  0
   76.4765   92.3926   22.7722 H   0  0  0  0  0  0  0  0  0  0  0  0
   77.1900   91.0433   22.1916 H   0  0  0  0  0  0  0  0  0  0  0  0
   76.0370   91.7985   21.3159 H   0  0  0  0  0  0  0  0  0  0  0  0
   79.0038   95.2242   23.4846 H   0  0  0  0  0  0  0  0  0  0  0  0
   77.7452   94.1861   23.4151 H   0  0  0  0  0  0  0  0  0  0  0  0
   77.9369   95.3159   22.2517 H   0  0  0  0  0  0  0  0  0  0  0  0
   75.3611   96.9484   27.9360 H   0  0  0  0  0  0  0  0  0  0  0  0
   75.0178   98.1303   29.0094 H   0  0  0  0  0  0  0  0  0  0  0  0
   72.1707   88.9399   25.6568 H   0  0  0  0  0  0  0  0  0  0  0  0
   75.2941   95.5250   23.1833 H   0  0  0  0  0  0  0  0  0  0  0  0
   78.7259   97.0918   25.2297 H   0  0  0  0  0  0  0  0  0  0  0  0
   73.8451   97.0978   24.4229 H   0  0  0  0  0  0  0  0  0  0  0  0
   77.2527   98.6582   26.4611 H   0  0  0  0  0  0  0  0  0  0  0  0
   72.1936   90.7951   27.2823 H   0  0  0  0  0  0  0  0  0  0  0  0
   75.1223   99.5884   26.7471 H   0  0  0  0  0  0  0  0  0  0  0  0
   73.9307   99.3462   25.6572 H   0  0  0  0  0  0  0  0  0  0  0  0
   75.1521   92.8497   24.9791 H   0  0  0  0  0  0  0  0  0  0  0  0
   73.2208   97.4336   26.8770 H   0  0  0  0  0  0  0  0  0  0  0  0
  1 19  1  0  0  0  0
  1 20  1  0  0  0  0
  2 21  1  0  0  0  0
  3  4  1  0  0  0  0
  3 19  2  0  0  0  0
  4 20  2  0  0  0  0
  5  6  1  0  0  0  0
  5 22  2  0  0  0  0
  6 23  1  0  0  0  0
  7 10  1  0  0  0  0
  7 19  1  0  0  0  0
  8 22  1  0  0  0  0
  9 24  1  0  0  0  0
 10 21  1  0  0  0  0
 11 16  1  0  0  0  0
 11 23  2  0  0  0  0
 12 14  1  0  0  0  0
 12 24  2  0  0  0  0
 13 15  2  0  0  0  0
 13 24  1  0  0  0  0
 14 25  2  0  0  0  0
 15 25  1  0  0  0  0
 16 26  2  0  0  0  0
 17 21  1  0  0  0  0
 17 25  1  0  0  0  0
 18 26  1  0  0  0  0
 18 27  2  0  0  0  0
 20 26  1  0  0  0  0
 22 27  1  0  0  0  0
 23 27  1  0  0  0  0
  2 28  1  0  0  0  0
  2 29  1  0  0  0  0
  6 30  1  0  0  0  0
  7 31  1  0  0  0  0
  8 32  1  0  0  0  0
  8 33  1  0  0  0  0
  8 34  1  0  0  0  0
  9 35  1  0  0  0  0
  9 36  1  0  0  0  0
  9 37  1  0  0  0  0
 10 38  1  0  0  0  0
 10 39  1  0  0  0  0
 11 40  1  0  0  0  0
 12 41  1  0  0  0  0
 13 42  1  0  0  0  0
 14 43  1  0  0  0  0
 15 44  1  0  0  0  0
 16 45  1  0  0  0  0
 17 46  1  0  0  0  0
 17 47  1  0  0  0  0
 18 48  1  0  0  0  0
 21 49  1  0  0  0  0
M  END
> <pdb_id>
3L9M

> <uniprot_id>
P17612

> <usmiles>
S1C(=NN=C1c2cc3c(NN=C3C)cc2)NC[C@@H](N)Cc4ccc(cc4)C

$$$$
L9N_A_351
          07202403383D 1   1.00000     0.00000     0
            
 46 49  0  0  0  0            999 V2000
   74.2391   94.6097   27.2425 S   0  0  0  0  0  0  0  0  0  0  0  0
   72.5279   99.0281   28.3351 N   0  0  0  0  0  0  0  0  0  0  0  0
   75.2205   90.0146   22.1598 N   0  0  0  0  0  0  0  0  0  0  0  0
   72.7946   94.0765   29.1402 N   0  0  0  0  0  0  0  0  0  0  0  0
   74.3257   89.3620   22.9300 N   0  0  0  0  0  0  0  0  0  0  0  0
   72.6973   92.9372   28.4082 N   0  0  0  0  0  0  0  0  0  0  0  0
   73.7454   96.3943   29.4177 N   0  0  0  0  0  0  0  0  0  0  0  0
   77.9554   94.8877   23.7567 C   0  0  0  0  0  0  0  0  0  0  0  0
   75.4605   91.2018   22.8010 C   0  0  0  0  0  0  0  0  0  0  0  0
   74.4068   97.5276   28.7932 C   0  0  0  0  0  0  0  0  0  0  0  0
   72.9972   89.6903   25.1678 C   0  0  0  0  0  0  0  0  0  0  0  0
   75.4510   96.0624   24.1381 C   0  0  0  0  0  0  0  0  0  0  0  0
   77.4480   96.8774   25.5322 C   0  0  0  0  0  0  0  0  0  0  0  0
   74.6029   97.0190   24.8220 C   0  0  0  0  0  0  0  0  0  0  0  0
   76.6048   97.8212   26.2046 C   0  0  0  0  0  0  0  0  0  0  0  0
   72.8550   90.7152   26.2359 C   0  0  0  0  0  0  0  0  0  0  0  0
   74.2897   98.8517   26.5894 C   0  0  0  0  0  0  0  0  0  0  0  0
   74.5118   92.2189   25.0622 C   0  0  0  0  0  0  0  0  0  0  0  0
   73.5567   95.1153   28.7293 C   0  0  0  0  0  0  0  0  0  0  0  0
   73.4645   93.0533   27.2715 C   0  0  0  0  0  0  0  0  0  0  0  0
   73.4963   98.1092   27.6891 C   0  0  2  0  0  0  0  0  0  0  0  0
   73.9029   89.9659   24.0613 C   0  0  0  0  0  0  0  0  0  0  0  0
   76.8502   96.0284   24.5271 C   0  0  0  0  0  0  0  0  0  0  0  0
   75.1995   97.8700   25.8393 C   0  0  0  0  0  0  0  0  0  0  0  0
   73.6044   91.9956   26.2087 C   0  0  0  0  0  0  0  0  0  0  0  0
   74.6772   91.2461   23.9976 C   0  0  0  0  0  0  0  0  0  0  0  0
   71.9248   99.4193   27.6399 H   0  0  0  0  0  0  0  0  0  0  0  0
   71.9824   98.5217   29.0029 H   0  0  0  0  0  0  0  0  0  0  0  0
   73.9856   88.4580   22.6708 H   0  0  0  0  0  0  0  0  0  0  0  0
   73.4061   96.4913   30.3534 H   0  0  0  0  0  0  0  0  0  0  0  0
   78.8717   94.9998   24.1414 H   0  0  0  0  0  0  0  0  0  0  0  0
   77.6375   93.9537   23.9197 H   0  0  0  0  0  0  0  0  0  0  0  0
   77.9833   95.0634   22.7727 H   0  0  0  0  0  0  0  0  0  0  0  0
   76.0811   91.9193   22.4846 H   0  0  0  0  0  0  0  0  0  0  0  0
   75.2713   97.2283   28.3894 H   0  0  0  0  0  0  0  0  0  0  0  0
   74.5862   98.2301   29.4820 H   0  0  0  0  0  0  0  0  0  0  0  0
   72.4836   88.8332   25.2083 H   0  0  0  0  0  0  0  0  0  0  0  0
   75.0895   95.4542   23.4314 H   0  0  0  0  0  0  0  0  0  0  0  0
   78.4211   96.8085   25.7519 H   0  0  0  0  0  0  0  0  0  0  0  0
   73.6307   97.0918   24.5995 H   0  0  0  0  0  0  0  0  0  0  0  0
   76.9739   98.4300   26.9067 H   0  0  0  0  0  0  0  0  0  0  0  0
   72.2333   90.5354   26.9983 H   0  0  0  0  0  0  0  0  0  0  0  0
   74.8496   99.5653   27.0105 H   0  0  0  0  0  0  0  0  0  0  0  0
   73.6494   99.2680   25.9439 H   0  0  0  0  0  0  0  0  0  0  0  0
   75.0310   93.0725   25.0189 H   0  0  0  0  0  0  0  0  0  0  0  0
   72.9896   97.3585   27.2651 H   0  0  0  0  0  0  0  0  0  0  0  0
  1 19  1  0  0  0  0
  1 20  1  0  0  0  0
  2 21  1  0  0  0  0
  3  5  1  0  0  0  0
  3  9  2  0  0  0  0
  4  6  1  0  0  0  0
  4 19  2  0  0  0  0
  5 22  1  0  0  0  0
  6 20  2  0  0  0  0
  7 10  1  0  0  0  0
  7 19  1  0  0  0  0
  8 23  1  0  0  0  0
  9 26  1  0  0  0  0
 10 21  1  0  0  0  0
 11 16  1  0  0  0  0
 11 22  2  0  0  0  0
 12 14  1  0  0  0  0
 12 23  2  0  0  0  0
 13 15  2  0  0  0  0
 13 23  1  0  0  0  0
 14 24  2  0  0  0  0
 15 24  1  0  0  0  0
 16 25  2  0  0  0  0
 17 21  1  0  0  0  0
 17 24  1  0  0  0  0
 18 25  1  0  0  0  0
 18 26  2  0  0  0  0
 20 25  1  0  0  0  0
 22 26  1  0  0  0  0
  2 27  1  0  0  0  0
  2 28  1  0  0  0  0
  5 29  1  0  0  0  0
  7 30  1  0  0  0  0
  8 31  1  0  0  0  0
  8 32  1  0  0  0  0
  8 33  1  0  0  0  0
  9 34  1  0  0  0  0
 10 35  1  0  0  0  0
 10 36  1  0  0  0  0
 11 37  1  0  0  0  0
 12 38  1  0  0  0  0
 13 39  1  0  0  0  0
 14 40  1  0  0  0  0
 15 41  1  0  0  0  0
 16 42  1  0  0  0  0
 17 43  1  0  0  0  0
 17 44  1  0  0  0  0
 18 45  1  0  0  0  0
 21 46  1  0  0  0  0
M  END
> <pdb_id>
3L9N

> <uniprot_id>
P17612

> <usmiles>
S1C(=NN=C1c2cc3c(NN=C3)cc2)NC[C@@H](N)Cc4ccc(cc4)C

$$$$
L9W_A_501
          07202414183D 1   1.00000     0.00000     0
            
 49 53  0  0  0  0            999 V2000
  -16.9639   24.1486  -31.3422 S   0  0  0  0  0  0  0  0  0  0  0  0
  -17.6628   22.9842  -31.8068 O   0  0  0  0  0  0  0  0  0  0  0  0
  -17.5566   25.4325  -31.5936 O   0  0  0  0  0  0  0  0  0  0  0  0
  -10.4224   26.6576  -22.7719 O   0  0  0  0  0  0  0  0  0  0  0  0
  -18.9330   23.5256  -23.1249 N   0  0  0  0  0  0  0  0  0  0  0  0
  -18.4636   23.5711  -24.4461 N   0  0  0  0  0  0  0  0  0  0  0  0
  -15.0363   23.5080  -21.3841 N   0  0  0  0  0  0  0  0  0  0  0  0
  -14.4226   23.5584  -23.6030 N   0  0  0  0  0  0  0  0  0  0  0  0
  -16.7429   23.5266  -23.0702 N   0  0  0  0  0  0  0  0  0  0  0  0
  -15.3503   24.1329  -32.0311 C   0  0  0  0  0  0  0  0  0  0  0  0
  -17.8930   23.5671  -22.3414 C   0  0  0  0  0  0  0  0  0  0  0  0
  -10.2498   25.3631  -23.4253 C   0  0  0  0  0  0  0  0  0  0  0  0
  -13.6508   23.5720  -20.9384 C   0  0  0  0  0  0  0  0  0  0  0  0
  -14.8012   23.5898  -24.9178 C   0  0  0  0  0  0  0  0  0  0  0  0
  -12.9933   27.2669  -20.1923 C   0  0  0  0  0  0  0  0  0  0  0  0
  -15.8298   24.8357  -28.9446 C   0  0  0  0  0  0  0  0  0  0  0  0
  -17.4514   23.0480  -28.8819 C   0  0  0  0  0  0  0  0  0  0  0  0
  -11.2995   24.4041  -22.8534 C   0  0  0  0  0  0  0  0  0  0  0  0
  -11.9081   27.5545  -21.0192 C   0  0  0  0  0  0  0  0  0  0  0  0
  -13.5415   25.9855  -20.1515 C   0  0  0  0  0  0  0  0  0  0  0  0
  -15.6730   24.7345  -27.5731 C   0  0  0  0  0  0  0  0  0  0  0  0
  -17.2608   22.9285  -27.5133 C   0  0  0  0  0  0  0  0  0  0  0  0
  -15.3789   23.5747  -22.6869 C   0  0  0  0  0  0  0  0  0  0  0  0
  -16.7154   23.9871  -29.5973 C   0  0  0  0  0  0  0  0  0  0  0  0
  -17.1380   23.5195  -24.3961 C   0  0  0  0  0  0  0  0  0  0  0  0
  -11.4408   26.5459  -21.8475 C   0  0  0  0  0  0  0  0  0  0  0  0
  -13.0622   24.9700  -20.9843 C   0  0  0  0  0  0  0  0  0  0  0  0
  -16.3594   23.7562  -26.8408 C   0  0  0  0  0  0  0  0  0  0  0  0
  -16.1044   23.5943  -25.3875 C   0  0  0  0  0  0  0  0  0  0  0  0
  -12.0062   25.2803  -21.8526 C   0  0  0  0  0  0  0  0  0  0  0  0
  -15.7590   23.4112  -20.6998 H   0  0  0  0  0  0  0  0  0  0  0  0
  -14.8465   24.9381  -31.7184 H   0  0  0  0  0  0  0  0  0  0  0  0
  -14.8710   23.3054  -31.7385 H   0  0  0  0  0  0  0  0  0  0  0  0
  -15.4138   24.1461  -33.0290 H   0  0  0  0  0  0  0  0  0  0  0  0
  -17.9334   23.6211  -21.3436 H   0  0  0  0  0  0  0  0  0  0  0  0
   -9.3320   25.0102  -23.2434 H   0  0  0  0  0  0  0  0  0  0  0  0
  -10.3800   25.4603  -24.4120 H   0  0  0  0  0  0  0  0  0  0  0  0
  -13.1017   22.9783  -21.5265 H   0  0  0  0  0  0  0  0  0  0  0  0
  -13.6063   23.2410  -19.9958 H   0  0  0  0  0  0  0  0  0  0  0  0
  -14.0713   23.6116  -25.6010 H   0  0  0  0  0  0  0  0  0  0  0  0
  -13.3836   27.9890  -19.6211 H   0  0  0  0  0  0  0  0  0  0  0  0
  -15.3092   25.5149  -29.4620 H   0  0  0  0  0  0  0  0  0  0  0  0
  -18.1131   22.4633  -29.3512 H   0  0  0  0  0  0  0  0  0  0  0  0
  -10.8703   23.6176  -22.4094 H   0  0  0  0  0  0  0  0  0  0  0  0
  -11.9263   24.0848  -23.5641 H   0  0  0  0  0  0  0  0  0  0  0  0
  -11.4809   28.4586  -21.0148 H   0  0  0  0  0  0  0  0  0  0  0  0
  -14.2890   25.7898  -19.5167 H   0  0  0  0  0  0  0  0  0  0  0  0
  -15.0618   25.3677  -27.0984 H   0  0  0  0  0  0  0  0  0  0  0  0
  -17.7756   22.2407  -27.0015 H   0  0  0  0  0  0  0  0  0  0  0  0
  1  2  2  0  0  0  0
  1  3  2  0  0  0  0
  1 10  1  0  0  0  0
  1 24  1  0  0  0  0
  4 12  1  0  0  0  0
  4 26  1  0  0  0  0
  5  6  1  0  0  0  0
  5 11  2  0  0  0  0
  6 25  2  0  0  0  0
  7 13  1  0  0  0  0
  7 23  1  0  0  0  0
  8 14  1  0  0  0  0
  8 23  2  0  0  0  0
  9 11  1  0  0  0  0
  9 23  1  0  0  0  0
  9 25  1  0  0  0  0
 12 18  1  0  0  0  0
 13 27  1  0  0  0  0
 14 29  2  0  0  0  0
 15 19  2  0  0  0  0
 15 20  1  0  0  0  0
 16 21  2  0  0  0  0
 16 24  1  0  0  0  0
 17 22  1  0  0  0  0
 17 24  2  0  0  0  0
 18 30  1  0  0  0  0
 19 26  1  0  0  0  0
 20 27  2  0  0  0  0
 21 28  1  0  0  0  0
 22 28  2  0  0  0  0
 25 29  1  0  0  0  0
 26 30  2  0  0  0  0
 27 30  1  0  0  0  0
 28 29  1  0  0  0  0
  7 31  1  0  0  0  0
 10 32  1  0  0  0  0
 10 33  1  0  0  0  0
 10 34  1  0  0  0  0
 11 35  1  0  0  0  0
 12 36  1  0  0  0  0
 12 37  1  0  0  0  0
 13 38  1  0  0  0  0
 13 39  1  0  0  0  0
 14 40  1  0  0  0  0
 15 41  1  0  0  0  0
 16 42  1  0  0  0  0
 17 43  1  0  0  0  0
 18 44  1  0  0  0  0
 18 45  1  0  0  0  0
 19 46  1  0  0  0  0
 20 47  1  0  0  0  0
 21 48  1  0  0  0  0
 22 49  1  0  0  0  0
M  END
> <pdb_id>
7P3G

> <uniprot_id>
O75530

> <usmiles>
S(=O)(=O)(c1ccc(cc1)C=2C3=NN=CN3C(=NC2)NCc4c5c(OCC5)ccc4)C

$$$$
LBK_B_1103
          07192420503D 1   1.00000     0.00000     0
            
 42 44  0  0  0  0            999 V2000
    0.7387  -28.4212   47.9754 O   0  0  0  0  0  0  0  0  0  0  0  0
   -1.1486  -29.2971   46.5068 O   0  0  0  0  0  0  0  0  0  0  0  0
    3.4460  -31.9764   43.4336 N   0  0  0  0  0  0  0  0  0  0  0  0
    4.0926  -30.6472   45.3241 N   0  0  0  0  0  0  0  0  0  0  0  0
    1.2685  -32.1760   42.7298 N   0  0  0  0  0  0  0  0  0  0  0  0
    1.6360  -28.2680   49.0652 C   0  0  0  0  0  0  0  0  0  0  0  0
   -2.2053  -29.2609   45.5591 C   0  0  0  0  0  0  0  0  0  0  0  0
    0.8143  -32.7834   40.4345 C   0  0  0  0  0  0  0  0  0  0  0  0
    4.3216  -31.4349   44.2808 C   0  0  0  0  0  0  0  0  0  0  0  0
    0.8993  -36.9893   43.3862 C   0  0  0  0  0  0  0  0  0  0  0  0
    2.1916  -36.5740   43.1296 C   0  0  0  0  0  0  0  0  0  0  0  0
   -0.1608  -36.1596   43.0792 C   0  0  0  0  0  0  0  0  0  0  0  0
    2.4212  -35.3253   42.5801 C   0  0  0  0  0  0  0  0  0  0  0  0
    0.0742  -34.9164   42.5085 C   0  0  0  0  0  0  0  0  0  0  0  0
    2.4543  -29.5168   46.6429 C   0  0  0  0  0  0  0  0  0  0  0  0
    0.3834  -30.4833   45.0278 C   0  0  0  0  0  0  0  0  0  0  0  0
    2.1476  -31.7118   43.6465 C   0  0  0  0  0  0  0  0  0  0  0  0
    1.1493  -29.1844   46.9194 C   0  0  0  0  0  0  0  0  0  0  0  0
    0.0996  -29.6604   46.0903 C   0  0  0  0  0  0  0  0  0  0  0  0
    2.7685  -30.3531   45.5553 C   0  0  0  0  0  0  0  0  0  0  0  0
    1.3652  -34.5053   42.2048 C   0  0  0  0  0  0  0  0  0  0  0  0
    1.7246  -30.8614   44.7445 C   0  0  0  0  0  0  0  0  0  0  0  0
    1.6332  -33.1165   41.6688 C   0  0  2  0  0  0  0  0  0  0  0  0
    0.2761  -32.0037   42.8443 H   0  0  0  0  0  0  0  0  0  0  0  0
    1.2350  -27.6205   49.8327 H   0  0  0  0  0  0  0  0  0  0  0  0
    2.6325  -27.9136   48.8039 H   0  0  0  0  0  0  0  0  0  0  0  0
    1.7118  -29.2741   49.4741 H   0  0  0  0  0  0  0  0  0  0  0  0
   -3.1295  -28.9426   46.0345 H   0  0  0  0  0  0  0  0  0  0  0  0
   -2.3505  -30.2795   45.1957 H   0  0  0  0  0  0  0  0  0  0  0  0
   -1.9827  -28.5912   44.7263 H   0  0  0  0  0  0  0  0  0  0  0  0
   -0.2589  -32.8387   40.6053 H   0  0  0  0  0  0  0  0  0  0  0  0
    1.0516  -33.4440   39.6074 H   0  0  0  0  0  0  0  0  0  0  0  0
    1.0248  -31.7739   40.1045 H   0  0  0  0  0  0  0  0  0  0  0  0
    5.3671  -31.6723   44.0795 H   0  0  0  0  0  0  0  0  0  0  0  0
    0.7332  -37.9718   43.8395 H   0  0  0  0  0  0  0  0  0  0  0  0
    3.0405  -37.2040   43.3761 H   0  0  0  0  0  0  0  0  0  0  0  0
   -1.1889  -36.4942   43.2877 H   0  0  0  0  0  0  0  0  0  0  0  0
    3.4483  -34.9753   42.4100 H   0  0  0  0  0  0  0  0  0  0  0  0
   -0.7971  -34.2860   42.2816 H   0  0  0  0  0  0  0  0  0  0  0  0
    3.2999  -29.1432   47.1988 H   0  0  0  0  0  0  0  0  0  0  0  0
   -0.4146  -30.8795   44.4121 H   0  0  0  0  0  0  0  0  0  0  0  0
    2.6841  -33.0687   41.3475 H   0  0  0  0  0  0  0  0  0  0  0  0
  1  6  1  0  0  0  0
  1 18  1  0  0  0  0
  2  7  1  0  0  0  0
  2 19  1  0  0  0  0
  3  9  2  0  0  0  0
  3 17  1  0  0  0  0
  4  9  1  0  0  0  0
  4 20  2  0  0  0  0
  5 17  1  0  0  0  0
  5 23  1  0  0  0  0
  5 24  1  0  0  0  0
  6 25  1  0  0  0  0
  6 26  1  0  0  0  0
  6 27  1  0  0  0  0
  7 28  1  0  0  0  0
  7 29  1  0  0  0  0
  7 30  1  0  0  0  0
  8 23  1  0  0  0  0
  8 31  1  0  0  0  0
  8 32  1  0  0  0  0
  8 33  1  0  0  0  0
  9 34  1  0  0  0  0
 10 11  2  0  0  0  0
 10 12  1  0  0  0  0
 10 35  1  0  0  0  0
 11 13  1  0  0  0  0
 11 36  1  0  0  0  0
 12 14  2  0  0  0  0
 12 37  1  0  0  0  0
 13 21  2  0  0  0  0
 13 38  1  0  0  0  0
 14 21  1  0  0  0  0
 14 39  1  0  0  0  0
 15 18  2  0  0  0  0
 15 20  1  0  0  0  0
 15 40  1  0  0  0  0
 16 19  2  0  0  0  0
 16 22  1  0  0  0  0
 16 41  1  0  0  0  0
 17 22  2  0  0  0  0
 18 19  1  0  0  0  0
 20 22  1  0  0  0  0
 21 23  1  0  0  0  0
 23 42  1  0  0  0  0
M  END
> <pdb_id>
6SFR

> <uniprot_id>
Q07889

> <usmiles>
O(c1c(OC)cc2c(ncnc2c1)N[C@@H](c3ccccc3)C)C

$$$$
LC1_X_300
          07192416293D 1   1.00000     0.00000     0
            
 26 28  0  0  0  0            999 V2000
   -6.6397    8.9233   11.4386 S   0  0  0  0  0  0  0  0  0  0  0  0
   -5.9731    0.9759   17.0024 S   0  0  0  0  0  0  0  0  0  0  0  0
   -7.3477    0.9203   16.8598 O   0  0  0  0  0  0  0  0  0  0  0  0
   -5.3602    0.9417   18.2997 O   0  0  0  0  0  0  0  0  0  0  0  0
   -5.4301   -0.3704   16.4139 N   0  0  0  0  0  0  0  0  0  0  0  0
   -4.5562    7.8755   12.1453 N   0  0  0  0  0  0  0  0  0  0  0  0
   -4.1012    5.2959   13.5565 N   0  0  0  0  0  0  0  0  0  0  0  0
   -6.1855    5.2362   14.1223 N   0  0  0  0  0  0  0  0  0  0  0  0
   -4.9468    8.9541   11.4343 C   0  0  0  0  0  0  0  0  0  0  0  0
   -6.7869    7.5062   12.3721 C   0  0  0  0  0  0  0  0  0  0  0  0
   -3.9277    2.1974   15.6044 C   0  0  0  0  0  0  0  0  0  0  0  0
   -3.4380    3.2223   14.7809 C   0  0  0  0  0  0  0  0  0  0  0  0
   -6.1215    3.1731   15.5332 C   0  0  0  0  0  0  0  0  0  0  0  0
   -5.2898    2.1359   15.9608 C   0  0  0  0  0  0  0  0  0  0  0  0
   -5.2746    5.9300   13.4212 C   0  0  0  0  0  0  0  0  0  0  0  0
   -5.5395    7.0934   12.6658 C   0  0  0  0  0  0  0  0  0  0  0  0
   -4.2846    4.2295   14.3431 C   0  0  0  0  0  0  0  0  0  0  0  0
   -5.6118    4.1920   14.7046 C   0  0  0  0  0  0  0  0  0  0  0  0
   -4.4332   -0.3892   16.4894 H   0  0  0  0  0  0  0  0  0  0  0  0
   -5.8176   -1.1378   16.9247 H   0  0  0  0  0  0  0  0  0  0  0  0
   -3.2353    5.5731   13.1400 H   0  0  0  0  0  0  0  0  0  0  0  0
   -4.3575    9.6323   10.9952 H   0  0  0  0  0  0  0  0  0  0  0  0
   -7.6397    7.0638   12.6498 H   0  0  0  0  0  0  0  0  0  0  0  0
   -3.2989    1.4981   15.9446 H   0  0  0  0  0  0  0  0  0  0  0  0
   -2.4757    3.2265   14.5089 H   0  0  0  0  0  0  0  0  0  0  0  0
   -7.0806    3.1925   15.8156 H   0  0  0  0  0  0  0  0  0  0  0  0
  1  9  1  0  0  0  0
  1 10  1  0  0  0  0
  2  3  2  0  0  0  0
  2  4  2  0  0  0  0
  2  5  1  0  0  0  0
  2 14  1  0  0  0  0
  6  9  2  0  0  0  0
  6 16  1  0  0  0  0
  7 15  1  0  0  0  0
  7 17  1  0  0  0  0
  8 15  2  0  0  0  0
  8 18  1  0  0  0  0
 10 16  2  0  0  0  0
 11 12  1  0  0  0  0
 11 14  2  0  0  0  0
 12 17  2  0  0  0  0
 13 14  1  0  0  0  0
 13 18  2  0  0  0  0
 15 16  1  0  0  0  0
 17 18  1  0  0  0  0
  5 19  1  0  0  0  0
  5 20  1  0  0  0  0
  7 21  1  0  0  0  0
  9 22  1  0  0  0  0
 10 23  1  0  0  0  0
 11 24  1  0  0  0  0
 12 25  1  0  0  0  0
 13 26  1  0  0  0  0
M  END
> <pdb_id>
3FFP

> <uniprot_id>
P00918

> <usmiles>
S(=O)(=O)(N)c1cc2N=C(Nc2cc1)C=3N=CSC3

$$$$
LC5_A_501
          07202406173D 1   1.00000     0.00000     0
            
 49 50  0  0  0  0            999 V2000
   -0.9050   16.2020   21.5580 P   0  0  0  0  0  0  0  0  0  0  0  0
   -2.2810   16.1400   22.1930 O   0  0  0  0  0  0  0  0  0  0  0  0
   -0.0150   17.1130   22.3820 O   0  0  0  0  0  0  0  0  0  0  0  0
   -1.0220   16.7130   20.1500 O   0  0  0  0  0  0  0  0  0  0  0  0
    4.9930   14.1830   18.6870 O   0  0  0  0  0  0  0  0  0  0  0  0
    3.7640   15.1960   20.8210 O   0  0  0  0  0  0  0  0  0  0  0  0
    3.9020   13.5680   19.2950 N   0  0  0  0  0  0  0  0  0  0  0  0
    3.4070   12.3050   18.7380 C   0  0  0  0  0  0  0  0  0  0  0  0
   -0.2230   14.5110   21.5480 C   0  0  0  0  0  0  0  0  0  0  0  0
    2.6100    7.7380   18.3090 C   0  0  0  0  0  0  0  0  0  0  0  0
    1.5090    8.1300   19.0440 C   0  0  0  0  0  0  0  0  0  0  0  0
   -0.2830   12.3270   19.3510 C   0  0  0  0  0  0  0  0  0  0  0  0
    2.0710   11.5030   15.3550 C   0  0  0  0  0  0  0  0  0  0  0  0
    0.3000   13.7570   19.1450 C   0  0  0  0  0  0  0  0  0  0  0  0
    3.0140    8.4760   17.1970 C   0  0  0  0  0  0  0  0  0  0  0  0
   -0.6940   11.7050   17.9850 C   0  0  0  0  0  0  0  0  0  0  0  0
    2.7540   10.3640   15.7310 C   0  0  0  0  0  0  0  0  0  0  0  0
    0.9550   11.9240   16.0770 C   0  0  0  0  0  0  0  0  0  0  0  0
    0.8190    9.2820   18.7000 C   0  0  0  0  0  0  0  0  0  0  0  0
    2.0810   13.5890   21.0110 C   0  0  0  0  0  0  0  0  0  0  0  0
    3.3320   14.1520   20.3830 C   0  0  0  0  0  0  0  0  0  0  0  0
    0.8630   14.3830   20.4730 C   0  0  2  0  0  0  0  0  0  0  0  0
    2.3270    9.6180   16.8340 C   0  0  0  0  0  0  0  0  0  0  0  0
    0.5330   11.2120   17.2010 C   0  0  0  0  0  0  0  0  0  0  0  0
    1.2210   10.0310   17.5760 C   0  0  0  0  0  0  0  0  0  0  0  0
   -2.8709   15.5401   21.6524 H   0  0  0  0  0  0  0  0  0  0  0  0
    0.8935   17.1565   21.9663 H   0  0  0  0  0  0  0  0  0  0  0  0
    5.2937   13.6335   17.9075 H   0  0  0  0  0  0  0  0  0  0  0  0
    2.6265   11.9866   19.2760 H   0  0  0  0  0  0  0  0  0  0  0  0
    3.1225   12.4476   17.7900 H   0  0  0  0  0  0  0  0  0  0  0  0
    4.1345   11.6195   18.7682 H   0  0  0  0  0  0  0  0  0  0  0  0
   -0.9571   13.8601   21.3547 H   0  0  0  0  0  0  0  0  0  0  0  0
    0.1737   14.3097   22.4436 H   0  0  0  0  0  0  0  0  0  0  0  0
    3.1205    6.9204   18.5755 H   0  0  0  0  0  0  0  0  0  0  0  0
    1.2091    7.5824   19.8252 H   0  0  0  0  0  0  0  0  0  0  0  0
   -1.0870   12.3814   19.9432 H   0  0  0  0  0  0  0  0  0  0  0  0
    0.4095   11.7480   19.7814 H   0  0  0  0  0  0  0  0  0  0  0  0
    2.3779   12.0284   14.5614 H   0  0  0  0  0  0  0  0  0  0  0  0
   -0.4249   14.3501   18.7945 H   0  0  0  0  0  0  0  0  0  0  0  0
    1.0417   13.7063   18.4762 H   0  0  0  0  0  0  0  0  0  0  0  0
    3.8035    8.1776   16.6607 H   0  0  0  0  0  0  0  0  0  0  0  0
   -1.1701   12.3971   17.4425 H   0  0  0  0  0  0  0  0  0  0  0  0
   -1.3063   10.9320   18.1506 H   0  0  0  0  0  0  0  0  0  0  0  0
    3.5574   10.0711   15.2126 H   0  0  0  0  0  0  0  0  0  0  0  0
    0.4544   12.7401   15.7882 H   0  0  0  0  0  0  0  0  0  0  0  0
    0.0378    9.5809   19.2481 H   0  0  0  0  0  0  0  0  0  0  0  0
    2.1315   13.6811   22.0055 H   0  0  0  0  0  0  0  0  0  0  0  0
    1.9875   12.6230   20.7700 H   0  0  0  0  0  0  0  0  0  0  0  0
    1.1800   15.3065   20.2571 H   0  0  0  0  0  0  0  0  0  0  0  0
  1  2  1  0  0  0  0
  1  3  1  0  0  0  0
  1  4  2  0  0  0  0
  1  9  1  0  0  0  0
  5  7  1  0  0  0  0
  6 21  2  0  0  0  0
  7  8  1  0  0  0  0
  7 21  1  0  0  0  0
  9 22  1  0  0  0  0
 10 11  2  0  0  0  0
 10 15  1  0  0  0  0
 11 19  1  0  0  0  0
 12 14  1  0  0  0  0
 12 16  1  0  0  0  0
 13 17  2  0  0  0  0
 13 18  1  0  0  0  0
 14 22  1  0  0  0  0
 15 23  2  0  0  0  0
 16 24  1  0  0  0  0
 17 23  1  0  0  0  0
 18 24  2  0  0  0  0
 19 25  2  0  0  0  0
 20 21  1  0  0  0  0
 20 22  1  0  0  0  0
 23 25  1  0  0  0  0
 24 25  1  0  0  0  0
  2 26  1  0  0  0  0
  3 27  1  0  0  0  0
  5 28  1  0  0  0  0
  8 29  1  0  0  0  0
  8 30  1  0  0  0  0
  8 31  1  0  0  0  0
  9 32  1  0  0  0  0
  9 33  1  0  0  0  0
 10 34  1  0  0  0  0
 11 35  1  0  0  0  0
 12 36  1  0  0  0  0
 12 37  1  0  0  0  0
 13 38  1  0  0  0  0
 14 39  1  0  0  0  0
 14 40  1  0  0  0  0
 15 41  1  0  0  0  0
 16 42  1  0  0  0  0
 16 43  1  0  0  0  0
 17 44  1  0  0  0  0
 18 45  1  0  0  0  0
 19 46  1  0  0  0  0
 20 47  1  0  0  0  0
 20 48  1  0  0  0  0
 22 49  1  0  0  0  0
M  END
> <pdb_id>
5JAZ

> <uniprot_id>
Q8IKG4

> <usmiles>
P(=O)(O)(O)C[C@@H](CC(=O)N(O)C)CCCc1c2c(ccc1)cccc2

$$$$
LC7_A_501
          07202406173D 1   1.00000     0.00000     0
            
 43 43  0  0  0  0            999 V2000
   -0.8866   16.0989   21.5826 P   0  0  0  0  0  0  0  0  0  0  0  0
    3.1633    8.7613   16.8024 F   0  0  0  0  0  0  0  0  0  0  0  0
    0.0333   16.9207   22.4314 O   0  0  0  0  0  0  0  0  0  0  0  0
   -2.2589   16.0537   22.2184 O   0  0  0  0  0  0  0  0  0  0  0  0
   -0.9917   16.7051   20.2288 O   0  0  0  0  0  0  0  0  0  0  0  0
    5.0863   14.1988   18.7291 O   0  0  0  0  0  0  0  0  0  0  0  0
    3.7987   15.1574   20.8589 O   0  0  0  0  0  0  0  0  0  0  0  0
    3.9654   13.5765   19.2741 N   0  0  0  0  0  0  0  0  0  0  0  0
    3.4856   12.3131   18.6634 C   0  0  0  0  0  0  0  0  0  0  0  0
   -0.2508   14.3812   21.4490 C   0  0  0  0  0  0  0  0  0  0  0  0
    2.0768   11.7910   15.1299 C   0  0  0  0  0  0  0  0  0  0  0  0
   -0.1205   12.2446   19.2052 C   0  0  0  0  0  0  0  0  0  0  0  0
    2.8164   10.6617   15.4337 C   0  0  0  0  0  0  0  0  0  0  0  0
    0.3753   13.7148   19.0555 C   0  0  0  0  0  0  0  0  0  0  0  0
    0.9737   12.1217   15.9047 C   0  0  0  0  0  0  0  0  0  0  0  0
   -0.5832   11.6821   17.8432 C   0  0  0  0  0  0  0  0  0  0  0  0
    2.0975   13.5379   20.9637 C   0  0  0  0  0  0  0  0  0  0  0  0
    1.3548   10.1916   17.2790 C   0  0  0  0  0  0  0  0  0  0  0  0
    3.3657   14.1287   20.3717 C   0  0  0  0  0  0  0  0  0  0  0  0
    2.4538    9.8640   16.5122 C   0  0  0  0  0  0  0  0  0  0  0  0
    0.8799   14.3222   20.4067 C   0  0  2  0  0  0  0  0  0  0  0  0
    0.6182   11.3212   16.9873 C   0  0  0  0  0  0  0  0  0  0  0  0
    0.9395   16.9493   22.0095 H   0  0  0  0  0  0  0  0  0  0  0  0
   -2.8716   15.5044   21.6501 H   0  0  0  0  0  0  0  0  0  0  0  0
    5.4053   13.6772   17.9377 H   0  0  0  0  0  0  0  0  0  0  0  0
    2.6799   11.9883   19.1589 H   0  0  0  0  0  0  0  0  0  0  0  0
    3.2453   12.4756   17.7064 H   0  0  0  0  0  0  0  0  0  0  0  0
    4.2080   11.6234   18.7133 H   0  0  0  0  0  0  0  0  0  0  0  0
   -0.9934   13.7734   21.1677 H   0  0  0  0  0  0  0  0  0  0  0  0
    0.1015   14.0877   22.3377 H   0  0  0  0  0  0  0  0  0  0  0  0
    2.3362   12.3670   14.3547 H   0  0  0  0  0  0  0  0  0  0  0  0
   -0.8866   12.2205   19.8475 H   0  0  0  0  0  0  0  0  0  0  0  0
    0.6268   11.6805   19.5564 H   0  0  0  0  0  0  0  0  0  0  0  0
    3.6113   10.4196   14.8773 H   0  0  0  0  0  0  0  0  0  0  0  0
   -0.3806   14.2743   18.7156 H   0  0  0  0  0  0  0  0  0  0  0  0
    1.1267   13.7334   18.3960 H   0  0  0  0  0  0  0  0  0  0  0  0
    0.4343   12.9347   15.6855 H   0  0  0  0  0  0  0  0  0  0  0  0
   -1.1302   12.3725   17.3697 H   0  0  0  0  0  0  0  0  0  0  0  0
   -1.1378   10.8640   17.9953 H   0  0  0  0  0  0  0  0  0  0  0  0
    2.1222   13.6171   21.9603 H   0  0  0  0  0  0  0  0  0  0  0  0
    2.0233   12.5741   20.7076 H   0  0  0  0  0  0  0  0  0  0  0  0
    1.0914    9.6091   18.0480 H   0  0  0  0  0  0  0  0  0  0  0  0
    1.1777   15.2597   20.2269 H   0  0  0  0  0  0  0  0  0  0  0  0
  1  3  1  0  0  0  0
  1  4  1  0  0  0  0
  1  5  2  0  0  0  0
  1 10  1  0  0  0  0
  2 20  1  0  0  0  0
  6  8  1  0  0  0  0
  7 19  2  0  0  0  0
  8  9  1  0  0  0  0
  8 19  1  0  0  0  0
 10 21  1  0  0  0  0
 11 13  2  0  0  0  0
 11 15  1  0  0  0  0
 12 14  1  0  0  0  0
 12 16  1  0  0  0  0
 13 20  1  0  0  0  0
 14 21  1  0  0  0  0
 15 22  2  0  0  0  0
 16 22  1  0  0  0  0
 17 19  1  0  0  0  0
 17 21  1  0  0  0  0
 18 20  2  0  0  0  0
 18 22  1  0  0  0  0
  3 23  1  0  0  0  0
  4 24  1  0  0  0  0
  6 25  1  0  0  0  0
  9 26  1  0  0  0  0
  9 27  1  0  0  0  0
  9 28  1  0  0  0  0
 10 29  1  0  0  0  0
 10 30  1  0  0  0  0
 11 31  1  0  0  0  0
 12 32  1  0  0  0  0
 12 33  1  0  0  0  0
 13 34  1  0  0  0  0
 14 35  1  0  0  0  0
 14 36  1  0  0  0  0
 15 37  1  0  0  0  0
 16 38  1  0  0  0  0
 16 39  1  0  0  0  0
 17 40  1  0  0  0  0
 17 41  1  0  0  0  0
 18 42  1  0  0  0  0
 21 43  1  0  0  0  0
M  END
> <pdb_id>
5JMP

> <uniprot_id>
Q8IKG4

> <usmiles>
P(=O)(O)(O)C[C@@H](CC(=O)N(O)C)CCCc1cc(F)ccc1

$$$$
LCI_B_1003
          07202405003D 1   1.00000     0.00000     0
            
 50 53  0  0  0  0            999 V2000
  -22.9805    1.5308   39.7165 F   0  0  0  0  0  0  0  0  0  0  0  0
  -26.5421   -8.1289   39.2523 N   0  0  0  0  0  0  0  0  0  0  0  0
  -19.8605   -0.8096   38.5404 N   0  0  0  0  0  0  0  0  0  0  0  0
  -25.8506   -0.3452   40.7160 N   0  0  0  0  0  0  0  0  0  0  0  0
  -26.2435   -2.7067   40.7518 N   0  0  0  0  0  0  0  0  0  0  0  0
  -24.1495   -1.9014   40.0453 N   0  0  0  0  0  0  0  0  0  0  0  0
  -20.2039   -1.9995   38.2184 N   0  0  0  0  0  0  0  0  0  0  0  0
  -19.2523   -2.8616   37.4816 C   0  0  0  0  0  0  0  0  0  0  0  0
  -24.9890    0.7033   40.4428 C   0  0  0  0  0  0  0  0  0  0  0  0
  -20.8883   -0.2245   39.1440 C   0  0  0  0  0  0  0  0  0  0  0  0
  -26.6267   -6.3882   40.9512 C   0  0  0  0  0  0  0  0  0  0  0  0
  -25.8130   -5.8881   38.6179 C   0  0  0  0  0  0  0  0  0  0  0  0
  -26.8066   -4.9266   41.2868 C   0  0  0  0  0  0  0  0  0  0  0  0
  -25.9927   -4.4136   38.9387 C   0  0  0  0  0  0  0  0  0  0  0  0
  -22.1318   -6.0748   39.1405 C   0  0  0  0  0  0  0  0  0  0  0  0
  -20.7972   -5.4445   39.4862 C   0  0  0  0  0  0  0  0  0  0  0  0
  -22.1765   -3.6385   38.3506 C   0  0  0  0  0  0  0  0  0  0  0  0
  -25.4068   -1.6412   40.5104 C   0  0  0  0  0  0  0  0  0  0  0  0
  -23.7181    0.4559   39.9651 C   0  0  0  0  0  0  0  0  0  0  0  0
  -26.8135   -6.7015   39.4591 C   0  0  0  0  0  0  0  0  0  0  0  0
  -25.8561   -4.0653   40.4434 C   0  0  0  0  0  0  0  0  0  0  0  0
  -23.2830   -0.8546   39.7892 C   0  0  0  0  0  0  0  0  0  0  0  0
  -21.4693   -2.3111   38.5844 C   0  0  0  0  0  0  0  0  0  0  0  0
  -22.0595   -4.5998   39.5588 C   0  0  0  0  0  0  0  0  0  0  0  0
  -21.9352   -1.1652   39.2254 C   0  0  0  0  0  0  0  0  0  0  0  0
  -26.6586   -8.3536   38.2848 H   0  0  0  0  0  0  0  0  0  0  0  0
  -25.6040   -8.3337   39.5315 H   0  0  0  0  0  0  0  0  0  0  0  0
  -27.1442   -2.5368   41.1516 H   0  0  0  0  0  0  0  0  0  0  0  0
  -19.6737   -3.7521   37.3096 H   0  0  0  0  0  0  0  0  0  0  0  0
  -19.0172   -2.4303   36.6106 H   0  0  0  0  0  0  0  0  0  0  0  0
  -18.4232   -2.9850   38.0270 H   0  0  0  0  0  0  0  0  0  0  0  0
  -25.2891    1.6454   40.5925 H   0  0  0  0  0  0  0  0  0  0  0  0
  -20.9150    0.7166   39.4812 H   0  0  0  0  0  0  0  0  0  0  0  0
  -27.2966   -6.9174   41.4721 H   0  0  0  0  0  0  0  0  0  0  0  0
  -25.7034   -6.6633   41.2193 H   0  0  0  0  0  0  0  0  0  0  0  0
  -24.8795   -6.1695   38.8400 H   0  0  0  0  0  0  0  0  0  0  0  0
  -25.9858   -6.0443   37.6454 H   0  0  0  0  0  0  0  0  0  0  0  0
  -26.6081   -4.7840   42.2565 H   0  0  0  0  0  0  0  0  0  0  0  0
  -27.7510   -4.6583   41.0969 H   0  0  0  0  0  0  0  0  0  0  0  0
  -26.9041   -4.1360   38.6348 H   0  0  0  0  0  0  0  0  0  0  0  0
  -25.3013   -3.8969   38.4339 H   0  0  0  0  0  0  0  0  0  0  0  0
  -22.5406   -6.7498   39.7547 H   0  0  0  0  0  0  0  0  0  0  0  0
  -22.3406   -6.3166   38.1929 H   0  0  0  0  0  0  0  0  0  0  0  0
  -20.1249   -5.2747   38.7656 H   0  0  0  0  0  0  0  0  0  0  0  0
  -20.3249   -5.7078   40.3274 H   0  0  0  0  0  0  0  0  0  0  0  0
  -21.7712   -4.0801   37.5502 H   0  0  0  0  0  0  0  0  0  0  0  0
  -23.1449   -3.4587   38.1776 H   0  0  0  0  0  0  0  0  0  0  0  0
  -27.7493   -6.4873   39.1792 H   0  0  0  0  0  0  0  0  0  0  0  0
  -24.9132   -4.2199   40.7386 H   0  0  0  0  0  0  0  0  0  0  0  0
  -22.4171   -4.3203   40.4499 H   0  0  0  0  0  0  0  0  0  0  0  0
  1 19  1  0  0  0  0
  2 20  1  0  0  0  0
  3  7  1  0  0  0  0
  3 10  2  0  0  0  0
  4  9  1  0  0  0  0
  4 18  2  0  0  0  0
  5 18  1  0  0  0  0
  5 21  1  0  0  0  0
  6 18  1  0  0  0  0
  6 22  2  0  0  0  0
  7  8  1  0  0  0  0
  7 23  1  0  0  0  0
  9 19  2  0  0  0  0
 10 25  1  0  0  0  0
 11 13  1  0  0  0  0
 11 20  1  0  0  0  0
 12 14  1  0  0  0  0
 12 20  1  0  0  0  0
 13 21  1  0  0  0  0
 14 21  1  0  0  0  0
 15 16  1  0  0  0  0
 15 24  1  0  0  0  0
 16 24  1  0  0  0  0
 17 23  1  0  0  0  0
 17 24  1  0  0  0  0
 19 22  1  0  0  0  0
 22 25  1  0  0  0  0
 23 25  2  0  0  0  0
  2 26  1  0  0  0  0
  2 27  1  0  0  0  0
  5 28  1  0  0  0  0
  8 29  1  0  0  0  0
  8 30  1  0  0  0  0
  8 31  1  0  0  0  0
  9 32  1  0  0  0  0
 10 33  1  0  0  0  0
 11 34  1  0  0  0  0
 11 35  1  0  0  0  0
 12 36  1  0  0  0  0
 12 37  1  0  0  0  0
 13 38  1  0  0  0  0
 13 39  1  0  0  0  0
 14 40  1  0  0  0  0
 14 41  1  0  0  0  0
 15 42  1  0  0  0  0
 15 43  1  0  0  0  0
 16 44  1  0  0  0  0
 16 45  1  0  0  0  0
 17 46  1  0  0  0  0
 17 47  1  0  0  0  0
 20 48  1  0  0  0  0
 21 49  1  0  0  0  0
 24 50  1  0  0  0  0
M  END
> <pdb_id>
6GZM

> <uniprot_id>
P48730

> <usmiles>
Fc1c(nc(nc1)NC2CCC(N)CC2)C3=C(N(N=C3)C)CC4CC4

$$$$
LCQ_A_301
          07212404093D 1   1.00000     0.00000     0
            
 26 28  0  0  0  0            999 V2000
   26.4390   -9.1910   16.4780 N   0  0  0  0  0  0  0  0  0  0  0  0
   23.3640   -4.3990   17.7480 N   0  0  0  0  0  0  0  0  0  0  0  0
   24.0990   -5.8480   16.3010 N   0  0  0  0  0  0  0  0  0  0  0  0
   24.4510   -5.4410   19.7430 N   0  0  0  0  0  0  0  0  0  0  0  0
   25.6760   -7.3370   19.2880 N   0  0  0  0  0  0  0  0  0  0  0  0
   25.5520   -6.5600   21.5500 N   0  0  0  0  0  0  0  0  0  0  0  0
   25.9820   -8.3650   17.1050 C   0  0  0  0  0  0  0  0  0  0  0  0
   23.3760   -4.7450   16.4700 C   0  0  0  0  0  0  0  0  0  0  0  0
   27.3610   -9.8980   23.4240 C   0  0  0  0  0  0  0  0  0  0  0  0
   27.3140   -8.6650   24.0510 C   0  0  0  0  0  0  0  0  0  0  0  0
   26.8180  -10.0570   22.1550 C   0  0  0  0  0  0  0  0  0  0  0  0
   26.7250   -7.5870   23.4160 C   0  0  0  0  0  0  0  0  0  0  0  0
   26.2210   -8.9750   21.5200 C   0  0  0  0  0  0  0  0  0  0  0  0
   25.2090   -6.4490   20.1470 C   0  0  0  0  0  0  0  0  0  0  0  0
   24.1200   -5.2980   18.4330 C   0  0  0  0  0  0  0  0  0  0  0  0
   26.1760   -7.7330   22.1480 C   0  0  0  0  0  0  0  0  0  0  0  0
   25.3970   -7.2730   17.9990 C   0  0  0  0  0  0  0  0  0  0  0  0
   24.5830   -6.2160   17.5200 C   0  0  0  0  0  0  0  0  0  0  0  0
   25.3740   -5.8850   22.0670 H   0  0  0  0  0  0  0  0  0  0  0  0
   22.9420   -4.2840   15.7910 H   0  0  0  0  0  0  0  0  0  0  0  0
   27.7560  -10.6210   23.8530 H   0  0  0  0  0  0  0  0  0  0  0  0
   27.6780   -8.5620   24.8990 H   0  0  0  0  0  0  0  0  0  0  0  0
   26.8540  -10.8840   21.7330 H   0  0  0  0  0  0  0  0  0  0  0  0
   26.6970   -6.7600   23.8390 H   0  0  0  0  0  0  0  0  0  0  0  0
   25.8520   -9.0800   20.6740 H   0  0  0  0  0  0  0  0  0  0  0  0
   22.8836   -3.6146   18.1404 H   0  0  0  0  0  0  0  0  0  0  0  0
  1  7  3  0  0  0  0
  2  8  1  0  0  0  0
  2 15  1  0  0  0  0
  3  8  2  0  0  0  0
  3 18  1  0  0  0  0
  4 14  2  0  0  0  0
  4 15  1  0  0  0  0
  5 14  1  0  0  0  0
  5 17  2  0  0  0  0
  6 14  1  0  0  0  0
  6 16  1  0  0  0  0
  6 19  1  0  0  0  0
  7 17  1  0  0  0  0
  8 20  1  0  0  0  0
  9 10  2  0  0  0  0
  9 11  1  0  0  0  0
  9 21  1  0  0  0  0
 10 12  1  0  0  0  0
 10 22  1  0  0  0  0
 11 13  2  0  0  0  0
 11 23  1  0  0  0  0
 12 16  2  0  0  0  0
 12 24  1  0  0  0  0
 13 16  1  0  0  0  0
 13 25  1  0  0  0  0
 15 18  2  0  0  0  0
 17 18  1  0  0  0  0
  2 26  1  0  0  0  0
M  END
> <pdb_id>
6SGK

> <uniprot_id>
P51955

> <usmiles>
N#Cc1nc(nc2NC=Nc21)Nc3ccccc3

$$$$
LF0_B_604
          07192423583D 1   1.00000     0.00000     0
            
 57 60  0  0  0  0            999 V2000
   37.2006   33.1495    7.1075 O   0  0  0  0  0  0  0  0  0  0  0  0
   38.6395   33.6153    8.6770 O   0  0  0  0  0  0  0  0  0  0  0  0
   34.5875   31.4563   13.8778 O   0  0  0  0  0  0  0  0  0  0  0  0
   37.3717   30.5245    7.5513 O   0  0  0  0  0  0  0  0  0  0  0  0
   41.4250   30.2393    9.0205 N   0  0  0  0  0  0  0  0  0  0  0  0
   40.3066   30.7712    6.9314 C   0  0  0  0  0  0  0  0  0  0  0  0
   35.4965   29.5751    8.7347 C   0  0  0  0  0  0  0  0  0  0  0  0
   36.1419   28.8268    6.4436 C   0  0  0  0  0  0  0  0  0  0  0  0
   37.5799   28.2422    8.3796 C   0  0  0  0  0  0  0  0  0  0  0  0
   33.9470   32.6843   13.8660 C   0  0  0  0  0  0  0  0  0  0  0  0
   34.8579   33.8721   14.0238 C   0  0  0  0  0  0  0  0  0  0  0  0
   42.9138   29.4871   12.2440 C   0  0  0  0  0  0  0  0  0  0  0  0
   41.8428   29.7263   13.0970 C   0  0  0  0  0  0  0  0  0  0  0  0
   36.1963   30.0574   12.7391 C   0  0  0  0  0  0  0  0  0  0  0  0
   42.7703   29.6620   10.8774 C   0  0  0  0  0  0  0  0  0  0  0  0
   35.9799   33.8922   13.0070 C   0  0  0  0  0  0  0  0  0  0  0  0
   40.6233   30.1422   12.5794 C   0  0  0  0  0  0  0  0  0  0  0  0
   37.3284   29.8921   11.9605 C   0  0  0  0  0  0  0  0  0  0  0  0
   37.6130   32.2947   11.8435 C   0  0  0  0  0  0  0  0  0  0  0  0
   37.8830   32.7865    8.1063 C   0  0  0  0  0  0  0  0  0  0  0  0
   35.7587   31.3415   13.0729 C   0  0  0  0  0  0  0  0  0  0  0  0
   40.2941   30.6305    8.4565 C   0  0  0  0  0  0  0  0  0  0  0  0
   37.7950   31.3458    8.6181 C   0  0  2  0  0  0  0  0  0  0  0  0
   41.5342   30.0821   10.3517 C   0  0  0  0  0  0  0  0  0  0  0  0
   36.4654   32.4587   12.6223 C   0  0  0  0  0  0  0  0  0  0  0  0
   38.0417   31.0047   11.5046 C   0  0  0  0  0  0  0  0  0  0  0  0
   40.4798   30.3197   11.1927 C   0  0  0  0  0  0  0  0  0  0  0  0
   39.1531   30.9054    9.2285 C   0  0  0  0  0  0  0  0  0  0  0  0
   39.2615   30.7478   10.6233 C   0  0  0  0  0  0  0  0  0  0  0  0
   36.6707   29.3265    7.7927 C   0  0  0  0  0  0  0  0  0  0  0  0
   36.5977   32.4960    6.6497 H   0  0  0  0  0  0  0  0  0  0  0  0
   39.4056   31.0701    6.6168 H   0  0  0  0  0  0  0  0  0  0  0  0
   40.9938   31.4469    6.6646 H   0  0  0  0  0  0  0  0  0  0  0  0
   40.5285   29.8886    6.5170 H   0  0  0  0  0  0  0  0  0  0  0  0
   35.0104   28.7161    8.8954 H   0  0  0  0  0  0  0  0  0  0  0  0
   35.8368   29.9333    9.6042 H   0  0  0  0  0  0  0  0  0  0  0  0
   34.8728   30.2389    8.3220 H   0  0  0  0  0  0  0  0  0  0  0  0
   35.6370   27.9742    6.5785 H   0  0  0  0  0  0  0  0  0  0  0  0
   35.5339   29.5153    6.0482 H   0  0  0  0  0  0  0  0  0  0  0  0
   36.9099   28.6649    5.8238 H   0  0  0  0  0  0  0  0  0  0  0  0
   37.0480   27.4101    8.5365 H   0  0  0  0  0  0  0  0  0  0  0  0
   38.3225   28.0472    7.7388 H   0  0  0  0  0  0  0  0  0  0  0  0
   37.9628   28.5615    9.2464 H   0  0  0  0  0  0  0  0  0  0  0  0
   33.2856   32.6976   14.6159 H   0  0  0  0  0  0  0  0  0  0  0  0
   33.4648   32.7755   12.9946 H   0  0  0  0  0  0  0  0  0  0  0  0
   35.2578   33.8483   14.9400 H   0  0  0  0  0  0  0  0  0  0  0  0
   34.3163   34.7061   13.9181 H   0  0  0  0  0  0  0  0  0  0  0  0
   43.7914   29.1875   12.6183 H   0  0  0  0  0  0  0  0  0  0  0  0
   41.9505   29.5990   14.0830 H   0  0  0  0  0  0  0  0  0  0  0  0
   35.6912   29.2573   13.0629 H   0  0  0  0  0  0  0  0  0  0  0  0
   43.5428   29.4902   10.2661 H   0  0  0  0  0  0  0  0  0  0  0  0
   36.7513   34.3997   13.3909 H   0  0  0  0  0  0  0  0  0  0  0  0
   35.6556   34.3532   12.1809 H   0  0  0  0  0  0  0  0  0  0  0  0
   39.8507   30.3146   13.1905 H   0  0  0  0  0  0  0  0  0  0  0  0
   37.6380   28.9715   11.7227 H   0  0  0  0  0  0  0  0  0  0  0  0
   38.1260   33.0937   11.5296 H   0  0  0  0  0  0  0  0  0  0  0  0
   37.1008   31.3097    9.3370 H   0  0  0  0  0  0  0  0  0  0  0  0
  1 20  1  0  0  0  0
  2 20  2  0  0  0  0
  3 10  1  0  0  0  0
  3 21  1  0  0  0  0
  4 23  1  0  0  0  0
  4 30  1  0  0  0  0
  5 22  2  0  0  0  0
  5 24  1  0  0  0  0
  6 22  1  0  0  0  0
  7 30  1  0  0  0  0
  8 30  1  0  0  0  0
  9 30  1  0  0  0  0
 10 11  1  0  0  0  0
 11 16  1  0  0  0  0
 12 13  2  0  0  0  0
 12 15  1  0  0  0  0
 13 17  1  0  0  0  0
 14 18  2  0  0  0  0
 14 21  1  0  0  0  0
 15 24  2  0  0  0  0
 16 25  1  0  0  0  0
 17 27  2  0  0  0  0
 18 26  1  0  0  0  0
 19 25  1  0  0  0  0
 19 26  2  0  0  0  0
 20 23  1  0  0  0  0
 21 25  2  0  0  0  0
 22 28  1  0  0  0  0
 23 28  1  0  0  0  0
 24 27  1  0  0  0  0
 26 29  1  0  0  0  0
 27 29  1  0  0  0  0
 28 29  2  0  0  0  0
  1 31  1  0  0  0  0
  6 32  1  0  0  0  0
  6 33  1  0  0  0  0
  6 34  1  0  0  0  0
  7 35  1  0  0  0  0
  7 36  1  0  0  0  0
  7 37  1  0  0  0  0
  8 38  1  0  0  0  0
  8 39  1  0  0  0  0
  8 40  1  0  0  0  0
  9 41  1  0  0  0  0
  9 42  1  0  0  0  0
  9 43  1  0  0  0  0
 10 44  1  0  0  0  0
 10 45  1  0  0  0  0
 11 46  1  0  0  0  0
 11 47  1  0  0  0  0
 12 48  1  0  0  0  0
 13 49  1  0  0  0  0
 14 50  1  0  0  0  0
 15 51  1  0  0  0  0
 16 52  1  0  0  0  0
 16 53  1  0  0  0  0
 17 54  1  0  0  0  0
 18 55  1  0  0  0  0
 19 56  1  0  0  0  0
 23 57  1  0  0  0  0
M  END
> <pdb_id>
8A1P

> <uniprot_id>
Q76353

> <usmiles>
O=C(O)[C@@H](OC(C)(C)C)c1c(c2c(nc1C)cccc2)c3cc4c(OCCC4)cc3

$$$$
LG7_A_90
          07202400533D 1   1.00000     0.00000     0
            
 36 39  0  0  0  0            999 V2000
   26.6567    1.1535    2.3756 O   0  0  0  0  0  0  0  0  0  0  0  0
   29.1048    2.3187    6.2997 O   0  0  0  0  0  0  0  0  0  0  0  0
   30.5392    1.0140    3.1952 O   0  0  0  0  0  0  0  0  0  0  0  0
   25.5746    8.5279    3.7307 N   0  0  0  0  0  0  0  0  0  0  0  0
   28.0922    0.0808    3.7212 N   0  0  0  0  0  0  0  0  0  0  0  0
   27.6378    2.1254    4.2438 N   0  0  0  0  0  0  0  0  0  0  0  0
   25.9110    7.3836    3.7859 C   0  0  0  0  0  0  0  0  0  0  0  0
   28.1898   -1.2857    3.0475 C   0  0  0  0  0  0  0  0  0  0  0  0
   23.2435    3.1446    4.6011 C   0  0  0  0  0  0  0  0  0  0  0  0
   22.8955    4.5268    4.4458 C   0  0  0  0  0  0  0  0  0  0  0  0
   29.8122   -1.3059    3.1663 C   0  0  0  0  0  0  0  0  0  0  0  0
   28.1236    4.3445    3.8828 C   0  0  0  0  0  0  0  0  0  0  0  0
   27.7421    5.6639    3.7288 C   0  0  0  0  0  0  0  0  0  0  0  0
   24.6037    2.6291    4.5108 C   0  0  0  0  0  0  0  0  0  0  0  0
   23.8324    5.4810    4.2115 C   0  0  0  0  0  0  0  0  0  0  0  0
   27.3874    1.1296    3.3546 C   0  0  0  0  0  0  0  0  0  0  0  0
   28.5344    1.7290    5.2285 C   0  0  0  0  0  0  0  0  0  0  0  0
   30.2220   -0.0177    4.0846 C   0  0  2  0  0  0  0  0  0  0  0  0
   27.0633    3.3401    4.1291 C   0  0  0  0  0  0  0  0  0  0  0  0
   26.3202    5.9936    3.8554 C   0  0  0  0  0  0  0  0  0  0  0  0
   28.8391    0.2914    4.8631 C   0  0  2  0  0  0  0  0  0  0  0  0
   25.6282    3.6449    4.2544 C   0  0  0  0  0  0  0  0  0  0  0  0
   25.2269    4.9974    4.1106 C   0  0  0  0  0  0  0  0  0  0  0  0
   30.7985    1.8307    3.7109 H   0  0  0  0  0  0  0  0  0  0  0  0
   27.8583   -1.2905    2.1041 H   0  0  0  0  0  0  0  0  0  0  0  0
   27.7425   -2.0174    3.5617 H   0  0  0  0  0  0  0  0  0  0  0  0
   22.5067    2.4934    4.7828 H   0  0  0  0  0  0  0  0  0  0  0  0
   21.9347    4.7958    4.5119 H   0  0  0  0  0  0  0  0  0  0  0  0
   30.2267   -1.2304    2.2594 H   0  0  0  0  0  0  0  0  0  0  0  0
   30.1168   -2.1527    3.6025 H   0  0  0  0  0  0  0  0  0  0  0  0
   29.0855    4.0763    3.8296 H   0  0  0  0  0  0  0  0  0  0  0  0
   28.4186    6.3747    3.5362 H   0  0  0  0  0  0  0  0  0  0  0  0
   24.8208    1.6586    4.6156 H   0  0  0  0  0  0  0  0  0  0  0  0
   23.5954    6.4476    4.1136 H   0  0  0  0  0  0  0  0  0  0  0  0
   30.9732   -0.2223    4.7120 H   0  0  0  0  0  0  0  0  0  0  0  0
   28.6397   -0.3583    5.5967 H   0  0  0  0  0  0  0  0  0  0  0  0
  1 16  2  0  0  0  0
  2 17  2  0  0  0  0
  3 18  1  0  0  0  0
  4  7  3  0  0  0  0
  5  8  1  0  0  0  0
  5 16  1  0  0  0  0
  5 21  1  0  0  0  0
  6 16  1  0  0  0  0
  6 17  1  0  0  0  0
  6 19  1  0  0  0  0
  7 20  1  0  0  0  0
  8 11  1  0  0  0  0
  9 10  2  0  0  0  0
  9 14  1  0  0  0  0
 10 15  1  0  0  0  0
 11 18  1  0  0  0  0
 12 13  1  0  0  0  0
 12 19  2  0  0  0  0
 13 20  2  0  0  0  0
 14 22  2  0  0  0  0
 15 23  2  0  0  0  0
 17 21  1  0  0  0  0
 18 21  1  0  0  0  0
 19 22  1  0  0  0  0
 20 23  1  0  0  0  0
 22 23  1  0  0  0  0
  3 24  1  0  0  0  0
  8 25  1  0  0  0  0
  8 26  1  0  0  0  0
  9 27  1  0  0  0  0
 10 28  1  0  0  0  0
 11 29  1  0  0  0  0
 11 30  1  0  0  0  0
 12 31  1  0  0  0  0
 13 32  1  0  0  0  0
 14 33  1  0  0  0  0
 15 34  1  0  0  0  0
 18 35  1  0  0  0  0
 21 36  1  0  0  0  0
M  END
> <pdb_id>
2IHQ

> <uniprot_id>
P15207

> <usmiles>
O=C1N(c2c3c(c(C#N)cc2)cccc3)C(=O)[C@H]4N1CC[C@H]4O

$$$$
LGB_A_1
          07202400533D 1   1.00000     0.00000     0
            
 37 39  0  0  0  0            999 V2000
   23.4256    5.3713    4.2173 Cl  0  0  0  0  0  0  0  0  0  0  0  0
   31.9066    0.4216    6.2715 F   0  0  0  0  0  0  0  0  0  0  0  0
   29.9498    0.9420    7.0700 F   0  0  0  0  0  0  0  0  0  0  0  0
   31.2417    2.4793    6.3288 F   0  0  0  0  0  0  0  0  0  0  0  0
   31.2441   -1.7702    3.2562 O   0  0  0  0  0  0  0  0  0  0  0  0
   29.2360    1.9306    4.6887 O   0  0  0  0  0  0  0  0  0  0  0  0
   25.3977    8.3389    3.8015 N   0  0  0  0  0  0  0  0  0  0  0  0
   26.9968    1.8391    3.9278 N   0  0  0  0  0  0  0  0  0  0  0  0
   28.2915   -0.1336    4.5088 N   0  0  0  0  0  0  0  0  0  0  0  0
   24.2700    2.4857    4.2575 C   0  0  0  0  0  0  0  0  0  0  0  0
   25.7516    7.2531    3.8106 C   0  0  0  0  0  0  0  0  0  0  0  0
   27.6914   -1.1154    3.5700 C   0  0  0  0  0  0  0  0  0  0  0  0
   28.8243   -1.9306    2.9451 C   0  0  0  0  0  0  0  0  0  0  0  0
   27.6821    4.1612    3.7168 C   0  0  0  0  0  0  0  0  0  0  0  0
   27.3533    5.5178    3.6882 C   0  0  0  0  0  0  0  0  0  0  0  0
   28.1256    1.2615    4.3541 C   0  0  0  0  0  0  0  0  0  0  0  0
   25.0400    4.8902    4.0283 C   0  0  0  0  0  0  0  0  0  0  0  0
   30.0732   -1.0059    3.1606 C   0  0  1  0  0  0  0  0  0  0  0  0
   30.3418    1.1041    4.7236 C   0  0  2  0  0  0  0  0  0  0  0  0
   26.6927    3.1605    3.8992 C   0  0  0  0  0  0  0  0  0  0  0  0
   29.7465   -0.2813    4.4838 C   0  0  1  0  0  0  0  0  0  0  0  0
   26.0322    5.8738    3.8439 C   0  0  0  0  0  0  0  0  0  0  0  0
   25.3407    3.5318    4.0598 C   0  0  0  0  0  0  0  0  0  0  0  0
   30.8683    1.2370    6.1398 C   0  0  0  0  0  0  0  0  0  0  0  0
   32.0276   -1.1640    3.3930 H   0  0  0  0  0  0  0  0  0  0  0  0
   24.6866    1.5766    4.2499 H   0  0  0  0  0  0  0  0  0  0  0  0
   23.8147    2.6363    5.1350 H   0  0  0  0  0  0  0  0  0  0  0  0
   23.5994    2.5512    3.5185 H   0  0  0  0  0  0  0  0  0  0  0  0
   27.1856   -0.6341    2.8541 H   0  0  0  0  0  0  0  0  0  0  0  0
   27.0707   -1.7226    4.0659 H   0  0  0  0  0  0  0  0  0  0  0  0
   28.6585   -2.0919    1.9722 H   0  0  0  0  0  0  0  0  0  0  0  0
   28.9390   -2.8067    3.4134 H   0  0  0  0  0  0  0  0  0  0  0  0
   28.6377    3.8882    3.6062 H   0  0  0  0  0  0  0  0  0  0  0  0
   28.0596    6.2136    3.5579 H   0  0  0  0  0  0  0  0  0  0  0  0
   30.1496   -0.3460    2.4132 H   0  0  0  0  0  0  0  0  0  0  0  0
   31.0254    1.3508    4.0368 H   0  0  0  0  0  0  0  0  0  0  0  0
   30.0156   -0.8748    5.2423 H   0  0  0  0  0  0  0  0  0  0  0  0
  1 17  1  0  0  0  0
  2 24  1  0  0  0  0
  3 24  1  0  0  0  0
  4 24  1  0  0  0  0
  5 18  1  0  0  0  0
  6 16  1  0  0  0  0
  6 19  1  0  0  0  0
  7 11  3  0  0  0  0
  8 16  2  0  0  0  0
  8 20  1  0  0  0  0
  9 12  1  0  0  0  0
  9 16  1  0  0  0  0
  9 21  1  0  0  0  0
 10 23  1  0  0  0  0
 11 22  1  0  0  0  0
 12 13  1  0  0  0  0
 13 18  1  0  0  0  0
 14 15  1  0  0  0  0
 14 20  2  0  0  0  0
 15 22  2  0  0  0  0
 17 22  1  0  0  0  0
 17 23  2  0  0  0  0
 18 21  1  0  0  0  0
 19 21  1  0  0  0  0
 19 24  1  0  0  0  0
 20 23  1  0  0  0  0
  5 25  1  0  0  0  0
 10 26  1  0  0  0  0
 10 27  1  0  0  0  0
 10 28  1  0  0  0  0
 12 29  1  0  0  0  0
 12 30  1  0  0  0  0
 13 31  1  0  0  0  0
 13 32  1  0  0  0  0
 14 33  1  0  0  0  0
 15 34  1  0  0  0  0
 18 35  1  0  0  0  0
 19 36  1  0  0  0  0
 21 37  1  0  0  0  0
M  END
> <pdb_id>
3G0W

> <uniprot_id>
P15207

> <usmiles>
Clc1c(C#N)ccc(N=C2O[C@@H](C(F)(F)F)[C@H]3N2CC[C@@H]3O)c1C

$$$$
LGC_M_999
          07192417103D 1   1.00000     0.00000     0
            
 22 22  0  0  0  0            999 V2000
   48.0497  122.9745   51.6065 O   0  0  0  0  0  0  0  0  0  0  0  0
   45.9342  118.9187   52.6166 O   0  0  0  0  0  0  0  0  0  0  0  0
   47.2102  117.8835   54.7875 O   0  0  0  0  0  0  0  0  0  0  0  0
   49.4234  119.5522   55.6810 O   0  0  0  0  0  0  0  0  0  0  0  0
   49.2370  122.3389   54.8942 O   0  0  0  0  0  0  0  0  0  0  0  0
   46.6864  120.9275   52.8189 O   0  0  0  0  0  0  0  0  0  0  0  0
   47.2130  123.1783   52.8107 C   0  0  0  0  0  0  0  0  0  0  0  0
   46.8629  119.5828   53.1715 C   0  0  0  0  0  0  0  0  0  0  0  0
   47.7354  118.9912   54.0995 C   0  0  1  0  0  0  0  0  0  0  0  0
   48.2460  120.0872   55.0594 C   0  0  2  0  0  0  0  0  0  0  0  0
   48.6011  121.2835   54.1460 C   0  0  1  0  0  0  0  0  0  0  0  0
   47.2417  121.9163   53.7110 C   0  0  2  0  0  0  0  0  0  0  0  0
   48.0205  123.7963   51.0374 H   0  0  0  0  0  0  0  0  0  0  0  0
   47.8966  117.5295   55.4227 H   0  0  0  0  0  0  0  0  0  0  0  0
   49.7992  120.2253   56.3180 H   0  0  0  0  0  0  0  0  0  0  0  0
   49.4551  123.0978   54.2805 H   0  0  0  0  0  0  0  0  0  0  0  0
   46.2708  123.3610   52.5299 H   0  0  0  0  0  0  0  0  0  0  0  0
   47.5642  123.9592   53.3273 H   0  0  0  0  0  0  0  0  0  0  0  0
   48.5279  118.6640   53.5848 H   0  0  0  0  0  0  0  0  0  0  0  0
   47.5531  120.3347   55.7365 H   0  0  0  0  0  0  0  0  0  0  0  0
   49.1498  121.0016   53.3589 H   0  0  0  0  0  0  0  0  0  0  0  0
   46.6467  122.0418   54.5048 H   0  0  0  0  0  0  0  0  0  0  0  0
  1  7  1  0  0  0  0
  2  8  2  0  0  0  0
  3  9  1  0  0  0  0
  4 10  1  0  0  0  0
  5 11  1  0  0  0  0
  6  8  1  0  0  0  0
  6 12  1  0  0  0  0
  7 12  1  0  0  0  0
  8  9  1  0  0  0  0
  9 10  1  0  0  0  0
 10 11  1  0  0  0  0
 11 12  1  0  0  0  0
  1 13  1  0  0  0  0
  3 14  1  0  0  0  0
  4 15  1  0  0  0  0
  5 16  1  0  0  0  0
  7 17  1  0  0  0  0
  7 18  1  0  0  0  0
  9 19  1  0  0  0  0
 10 20  1  0  0  0  0
 11 21  1  0  0  0  0
 12 22  1  0  0  0  0
M  END
> <pdb_id>
1E6X

> <uniprot_id>
P29736

> <usmiles>
O=C1O[C@@H]([C@@H](O)[C@H](O)[C@H]1O)CO

$$$$
LGD_A_2226
          07202400533D 1   1.00000     0.00000     0
            
 35 36  0  0  0  0            999 V2000
   31.8884    0.7061    5.6197 F   0  0  0  0  0  0  0  0  0  0  0  0
   30.7339    2.2536    6.2639 F   0  0  0  0  0  0  0  0  0  0  0  0
   30.1233    0.3689    6.8719 F   0  0  0  0  0  0  0  0  0  0  0  0
   27.9218   -1.9127    3.6663 F   0  0  0  0  0  0  0  0  0  0  0  0
   26.3756   -0.8061    2.9330 F   0  0  0  0  0  0  0  0  0  0  0  0
   28.2401   -0.4655    2.1271 F   0  0  0  0  0  0  0  0  0  0  0  0
   23.7375    2.4993    5.7127 F   0  0  0  0  0  0  0  0  0  0  0  0
   22.2349    3.5396    4.5183 F   0  0  0  0  0  0  0  0  0  0  0  0
   23.6665    2.0853    3.6200 F   0  0  0  0  0  0  0  0  0  0  0  0
   24.5528    7.9074    4.0189 O   0  0  0  0  0  0  0  0  0  0  0  0
   26.3557    6.5390    4.0743 N   0  0  0  0  0  0  0  0  0  0  0  0
   28.6521    1.1328    4.4764 N   0  0  0  0  0  0  0  0  0  0  0  0
   30.1455    0.8366    4.5164 C   0  0  0  0  0  0  0  0  0  0  0  0
   27.7922   -0.0598    4.3103 C   0  0  0  0  0  0  0  0  0  0  0  0
   28.3536    5.0901    4.1402 C   0  0  0  0  0  0  0  0  0  0  0  0
   28.9325    3.7714    4.2426 C   0  0  0  0  0  0  0  0  0  0  0  0
   24.0526    5.6472    4.2444 C   0  0  0  0  0  0  0  0  0  0  0  0
   26.6522    2.7576    4.3998 C   0  0  0  0  0  0  0  0  0  0  0  0
   24.9658    6.7621    4.1051 C   0  0  0  0  0  0  0  0  0  0  0  0
   26.9208    5.2501    4.1699 C   0  0  0  0  0  0  0  0  0  0  0  0
   28.0910    2.5576    4.3717 C   0  0  0  0  0  0  0  0  0  0  0  0
   26.0267    4.0633    4.3106 C   0  0  0  0  0  0  0  0  0  0  0  0
   24.5675    4.2764    4.3488 C   0  0  0  0  0  0  0  0  0  0  0  0
   30.6346    1.0623    5.8438 C   0  0  0  0  0  0  0  0  0  0  0  0
   27.5764   -0.7193    3.2601 C   0  0  0  0  0  0  0  0  0  0  0  0
   23.5193    3.0645    4.5167 C   0  0  0  0  0  0  0  0  0  0  0  0
   26.9664    7.3254    3.9810 H   0  0  0  0  0  0  0  0  0  0  0  0
   30.6232    1.4389    3.8769 H   0  0  0  0  0  0  0  0  0  0  0  0
   30.3045   -0.1165    4.2588 H   0  0  0  0  0  0  0  0  0  0  0  0
   26.8866    0.2369    4.6135 H   0  0  0  0  0  0  0  0  0  0  0  0
   28.1582   -0.7280    4.9581 H   0  0  0  0  0  0  0  0  0  0  0  0
   28.9452    5.8911    4.0488 H   0  0  0  0  0  0  0  0  0  0  0  0
   29.9276    3.6741    4.2260 H   0  0  0  0  0  0  0  0  0  0  0  0
   23.0665    5.8118    4.2697 H   0  0  0  0  0  0  0  0  0  0  0  0
   26.0630    1.9540    4.4849 H   0  0  0  0  0  0  0  0  0  0  0  0
  1 24  1  0  0  0  0
  2 24  1  0  0  0  0
  3 24  1  0  0  0  0
  4 25  1  0  0  0  0
  5 25  1  0  0  0  0
  6 25  1  0  0  0  0
  7 26  1  0  0  0  0
  8 26  1  0  0  0  0
  9 26  1  0  0  0  0
 10 19  2  0  0  0  0
 11 19  1  0  0  0  0
 11 20  1  0  0  0  0
 12 13  1  0  0  0  0
 12 14  1  0  0  0  0
 12 21  1  0  0  0  0
 13 24  1  0  0  0  0
 14 25  1  0  0  0  0
 15 16  1  0  0  0  0
 15 20  2  0  0  0  0
 16 21  2  0  0  0  0
 17 19  1  0  0  0  0
 17 23  2  0  0  0  0
 18 21  1  0  0  0  0
 18 22  2  0  0  0  0
 20 22  1  0  0  0  0
 22 23  1  0  0  0  0
 23 26  1  0  0  0  0
 11 27  1  0  0  0  0
 13 28  1  0  0  0  0
 13 29  1  0  0  0  0
 14 30  1  0  0  0  0
 14 31  1  0  0  0  0
 15 32  1  0  0  0  0
 16 33  1  0  0  0  0
 17 34  1  0  0  0  0
 18 35  1  0  0  0  0
M  END
> <pdb_id>
2HVC

> <uniprot_id>
P10275

> <usmiles>
FC(F)(F)C=1c2c(NC(=O)C1)ccc(N(CC(F)(F)F)CC(F)(F)F)c2

$$$$
LGJ_A_301
          07192422073D 1   1.00000     0.00000     0
            
 59 63  0  0  0  0            999 V2000
   34.6300   34.4100   22.2560 S   0  0  0  0  0  0  0  0  0  0  0  0
   34.6310   33.5280   16.6040 F   0  0  0  0  0  0  0  0  0  0  0  0
   31.2780   28.1370   12.7110 F   0  0  0  0  0  0  0  0  0  0  0  0
   32.0090   26.1490   12.8290 F   0  0  0  0  0  0  0  0  0  0  0  0
   30.8880   27.0000   14.5180 F   0  0  0  0  0  0  0  0  0  0  0  0
   33.7780   34.6220   21.0970 O   0  0  0  0  0  0  0  0  0  0  0  0
   34.6910   33.0830   22.8820 O   0  0  0  0  0  0  0  0  0  0  0  0
   38.3580   30.8980    8.8320 O   0  0  0  0  0  0  0  0  0  0  0  0
   36.4830   29.3160   16.7620 O   0  0  0  0  0  0  0  0  0  0  0  0
   40.0330   29.7040    9.9920 N   0  0  0  0  0  0  0  0  0  0  0  0
   40.0900   28.9300   11.1240 N   0  0  0  0  0  0  0  0  0  0  0  0
   34.2780   27.3450   13.7420 N   0  0  0  0  0  0  0  0  0  0  0  0
   38.0050   29.6770   10.8090 N   0  0  0  0  0  0  0  0  0  0  0  0
   34.7260   30.7960   16.9360 N   0  0  0  0  0  0  0  0  0  0  0  0
   35.1710   27.9790   14.5030 N   0  0  0  0  0  0  0  0  0  0  0  0
   34.1500   35.5420   23.5310 C   0  0  0  0  0  0  0  0  0  0  0  0
   38.2440   36.2550   22.3950 C   0  0  0  0  0  0  0  0  0  0  0  0
   38.9190   35.7510   21.2720 C   0  0  0  0  0  0  0  0  0  0  0  0
   38.6930   26.7360   14.6070 C   0  0  0  0  0  0  0  0  0  0  0  0
   36.9400   35.8220   22.6710 C   0  0  0  0  0  0  0  0  0  0  0  0
   37.3450   26.8990   14.9730 C   0  0  0  0  0  0  0  0  0  0  0  0
   35.8950   31.1360   19.0560 C   0  0  0  0  0  0  0  0  0  0  0  0
   39.2180   27.4260   13.4950 C   0  0  0  0  0  0  0  0  0  0  0  0
   38.2750   34.8280   20.4390 C   0  0  0  0  0  0  0  0  0  0  0  0
   36.4510   32.0370   19.9900 C   0  0  0  0  0  0  0  0  0  0  0  0
   35.7750   33.9240   18.6160 C   0  0  0  0  0  0  0  0  0  0  0  0
   33.2470   28.6910   15.2880 C   0  0  0  0  0  0  0  0  0  0  0  0
   37.0420   28.4310   13.1100 C   0  0  0  0  0  0  0  0  0  0  0  0
   38.7380   30.1840    9.7610 C   0  0  0  0  0  0  0  0  0  0  0  0
   36.2820   34.8950   21.8310 C   0  0  0  0  0  0  0  0  0  0  0  0
   35.3560   29.6420   16.4190 C   0  0  0  0  0  0  0  0  0  0  0  0
   38.8780   28.9660   11.5720 C   0  0  0  0  0  0  0  0  0  0  0  0
   35.2200   33.0360   17.6950 C   0  0  0  0  0  0  0  0  0  0  0  0
   35.2700   31.6520   17.9000 C   0  0  0  0  0  0  0  0  0  0  0  0
   33.1070   27.7780   14.2230 C   0  0  0  0  0  0  0  0  0  0  0  0
   36.5250   27.7630   14.2190 C   0  0  0  0  0  0  0  0  0  0  0  0
   34.6110   28.8150   15.4440 C   0  0  0  0  0  0  0  0  0  0  0  0
   38.3830   28.2770   12.7510 C   0  0  0  0  0  0  0  0  0  0  0  0
   36.3820   33.4310   19.7730 C   0  0  0  0  0  0  0  0  0  0  0  0
   36.9620   34.3880   20.7100 C   0  0  0  0  0  0  0  0  0  0  0  0
   31.8610   27.2770   13.6040 C   0  0  0  0  0  0  0  0  0  0  0  0
   40.8185   29.9007    9.4052 H   0  0  0  0  0  0  0  0  0  0  0  0
   37.0274   29.8054   10.9761 H   0  0  0  0  0  0  0  0  0  0  0  0
   33.8169   31.0194   16.5843 H   0  0  0  0  0  0  0  0  0  0  0  0
   34.7300   35.4051   24.3340 H   0  0  0  0  0  0  0  0  0  0  0  0
   34.2543   36.4800   23.2005 H   0  0  0  0  0  0  0  0  0  0  0  0
   33.1947   35.3800   23.7783 H   0  0  0  0  0  0  0  0  0  0  0  0
   38.6910   36.9190   22.9944 H   0  0  0  0  0  0  0  0  0  0  0  0
   39.8518   36.0486   21.0687 H   0  0  0  0  0  0  0  0  0  0  0  0
   39.2824   26.1274   15.1382 H   0  0  0  0  0  0  0  0  0  0  0  0
   36.4661   36.1756   23.4775 H   0  0  0  0  0  0  0  0  0  0  0  0
   36.9720   26.4072   15.7598 H   0  0  0  0  0  0  0  0  0  0  0  0
   35.9431   30.1492   19.2106 H   0  0  0  0  0  0  0  0  0  0  0  0
   40.1774   27.3106   13.2377 H   0  0  0  0  0  0  0  0  0  0  0  0
   38.7549   34.4737   19.6364 H   0  0  0  0  0  0  0  0  0  0  0  0
   36.8977   31.6851   20.8126 H   0  0  0  0  0  0  0  0  0  0  0  0
   35.7385   34.9092   18.4487 H   0  0  0  0  0  0  0  0  0  0  0  0
   32.5240   29.1439   15.8097 H   0  0  0  0  0  0  0  0  0  0  0  0
   36.4482   29.0250   12.5673 H   0  0  0  0  0  0  0  0  0  0  0  0
  1  6  2  0  0  0  0
  1  7  2  0  0  0  0
  1 16  1  0  0  0  0
  1 30  1  0  0  0  0
  2 33  1  0  0  0  0
  3 41  1  0  0  0  0
  4 41  1  0  0  0  0
  5 41  1  0  0  0  0
  8 29  2  0  0  0  0
  9 31  2  0  0  0  0
 10 11  1  0  0  0  0
 10 29  1  0  0  0  0
 11 32  2  0  0  0  0
 12 15  1  0  0  0  0
 12 35  2  0  0  0  0
 13 29  1  0  0  0  0
 13 32  1  0  0  0  0
 14 31  1  0  0  0  0
 14 34  1  0  0  0  0
 15 36  1  0  0  0  0
 15 37  1  0  0  0  0
 17 18  2  0  0  0  0
 17 20  1  0  0  0  0
 18 24  1  0  0  0  0
 19 21  2  0  0  0  0
 19 23  1  0  0  0  0
 20 30  2  0  0  0  0
 21 36  1  0  0  0  0
 22 25  2  0  0  0  0
 22 34  1  0  0  0  0
 23 38  2  0  0  0  0
 24 40  2  0  0  0  0
 25 39  1  0  0  0  0
 26 33  1  0  0  0  0
 26 39  2  0  0  0  0
 27 35  1  0  0  0  0
 27 37  2  0  0  0  0
 28 36  2  0  0  0  0
 28 38  1  0  0  0  0
 30 40  1  0  0  0  0
 31 37  1  0  0  0  0
 32 38  1  0  0  0  0
 33 34  2  0  0  0  0
 35 41  1  0  0  0  0
 39 40  1  0  0  0  0
 10 42  1  0  0  0  0
 13 43  1  0  0  0  0
 14 44  1  0  0  0  0
 16 45  1  0  0  0  0
 16 46  1  0  0  0  0
 16 47  1  0  0  0  0
 17 48  1  0  0  0  0
 18 49  1  0  0  0  0
 19 50  1  0  0  0  0
 20 51  1  0  0  0  0
 21 52  1  0  0  0  0
 22 53  1  0  0  0  0
 23 54  1  0  0  0  0
 24 55  1  0  0  0  0
 25 56  1  0  0  0  0
 26 57  1  0  0  0  0
 27 58  1  0  0  0  0
 28 59  1  0  0  0  0
M  END
> <pdb_id>
3KQB

> <uniprot_id>
P00742

> <usmiles>
S(=O)(=O)(c1c(c2cc(F)c(NC(=O)C=3N(N=C(C3)C(F)(F)F)c4cc(ccc4)C5=NNC(=O)N5)cc2)cccc1)C

$$$$
LGV_A_1
          07202404193D 1   1.00000     0.00000     0
            
 46 50  0  0  0  0            999 V2000
  -11.5100   -0.1090   14.2230 F   0  0  0  0  0  0  0  0  0  0  0  0
  -16.3050    1.3970   10.6820 O   0  0  0  0  0  0  0  0  0  0  0  0
  -19.3920    3.4250   14.5620 N   0  0  0  0  0  0  0  0  0  0  0  0
  -19.4720    2.0820   14.6740 N   0  0  0  0  0  0  0  0  0  0  0  0
  -16.2630    6.0910    9.5670 N   0  0  0  0  0  0  0  0  0  0  0  0
  -13.5820   -0.1380   13.2800 N   0  0  0  0  0  0  0  0  0  0  0  0
  -14.9470    3.1040    9.9670 N   0  0  0  0  0  0  0  0  0  0  0  0
  -17.2260    4.4570   11.0090 N   0  0  0  0  0  0  0  0  0  0  0  0
  -18.5370    4.9380   12.9470 N   0  0  0  0  0  0  0  0  0  0  0  0
  -16.8270    7.0110   10.3940 N   0  0  0  0  0  0  0  0  0  0  0  0
  -15.9320    3.7260    9.1060 C   0  0  0  0  0  0  0  0  0  0  0  0
  -14.4440    0.4060   12.4090 C   0  0  0  0  0  0  0  0  0  0  0  0
  -16.7490    8.3690   10.2640 C   0  0  0  0  0  0  0  0  0  0  0  0
  -17.4570    8.9330   11.3080 C   0  0  0  0  0  0  0  0  0  0  0  0
  -11.9540    1.5210   12.6090 C   0  0  0  0  0  0  0  0  0  0  0  0
  -17.9820    7.8730   12.0950 C   0  0  0  0  0  0  0  0  0  0  0  0
  -12.8690    2.0720   11.7070 C   0  0  0  0  0  0  0  0  0  0  0  0
  -18.3440   -0.7040   12.1660 C   0  0  0  0  0  0  0  0  0  0  0  0
  -19.8180   -0.7170   12.4470 C   0  0  0  0  0  0  0  0  0  0  0  0
  -18.4740    2.4290   12.7460 C   0  0  0  0  0  0  0  0  0  0  0  0
  -12.3630    0.4360   13.3540 C   0  0  0  0  0  0  0  0  0  0  0  0
  -15.2270    1.9800   10.7030 C   0  0  0  0  0  0  0  0  0  0  0  0
  -16.4970    4.8650    9.9180 C   0  0  0  0  0  0  0  0  0  0  0  0
  -18.7850    3.6650   13.3880 C   0  0  0  0  0  0  0  0  0  0  0  0
  -17.7880    5.3070   11.8330 C   0  0  0  0  0  0  0  0  0  0  0  0
  -18.9330    1.4430   13.6050 C   0  0  0  0  0  0  0  0  0  0  0  0
  -17.5770    6.6970   11.5070 C   0  0  0  0  0  0  0  0  0  0  0  0
  -14.1460    1.4960   11.6000 C   0  0  0  0  0  0  0  0  0  0  0  0
  -18.8680   -0.0760   13.4280 C   0  0  0  0  0  0  0  0  0  0  0  0
  -19.7185    4.1037   15.2198 H   0  0  0  0  0  0  0  0  0  0  0  0
  -14.0336    3.5066   10.0270 H   0  0  0  0  0  0  0  0  0  0  0  0
  -18.9368    5.6819   13.4826 H   0  0  0  0  0  0  0  0  0  0  0  0
  -16.6516    3.0740    8.8669 H   0  0  0  0  0  0  0  0  0  0  0  0
  -15.5022    4.0691    8.2708 H   0  0  0  0  0  0  0  0  0  0  0  0
  -15.3564    0.0031   12.3372 H   0  0  0  0  0  0  0  0  0  0  0  0
  -16.2661    8.8656    9.5427 H   0  0  0  0  0  0  0  0  0  0  0  0
  -17.5780    9.9108   11.4788 H   0  0  0  0  0  0  0  0  0  0  0  0
  -11.0345    1.9010   12.7102 H   0  0  0  0  0  0  0  0  0  0  0  0
  -18.5400    7.9644   12.9198 H   0  0  0  0  0  0  0  0  0  0  0  0
  -12.6189    2.8623   11.1477 H   0  0  0  0  0  0  0  0  0  0  0  0
  -17.9802   -0.1269   11.4349 H   0  0  0  0  0  0  0  0  0  0  0  0
  -17.8195   -1.5541   12.2119 H   0  0  0  0  0  0  0  0  0  0  0  0
  -20.2749   -1.5751   12.6812 H   0  0  0  0  0  0  0  0  0  0  0  0
  -20.4356   -0.1479   11.9042 H   0  0  0  0  0  0  0  0  0  0  0  0
  -18.0210    2.3014   11.8636 H   0  0  0  0  0  0  0  0  0  0  0  0
  -18.7024   -0.5971   14.2653 H   0  0  0  0  0  0  0  0  0  0  0  0
  1 21  1  0  0  0  0
  2 22  2  0  0  0  0
  3  4  1  0  0  0  0
  3 24  1  0  0  0  0
  4 26  2  0  0  0  0
  5 10  1  0  0  0  0
  5 23  2  0  0  0  0
  6 12  1  0  0  0  0
  6 21  2  0  0  0  0
  7 11  1  0  0  0  0
  7 22  1  0  0  0  0
  8 23  1  0  0  0  0
  8 25  2  0  0  0  0
  9 24  1  0  0  0  0
  9 25  1  0  0  0  0
 10 13  1  0  0  0  0
 10 27  1  0  0  0  0
 11 23  1  0  0  0  0
 12 28  2  0  0  0  0
 13 14  2  0  0  0  0
 14 16  1  0  0  0  0
 15 17  2  0  0  0  0
 15 21  1  0  0  0  0
 16 27  2  0  0  0  0
 17 28  1  0  0  0  0
 18 19  1  0  0  0  0
 18 29  1  0  0  0  0
 19 29  1  0  0  0  0
 20 24  2  0  0  0  0
 20 26  1  0  0  0  0
 22 28  1  0  0  0  0
 25 27  1  0  0  0  0
 26 29  1  0  0  0  0
  3 30  1  0  0  0  0
  7 31  1  0  0  0  0
  9 32  1  0  0  0  0
 11 33  1  0  0  0  0
 11 34  1  0  0  0  0
 12 35  1  0  0  0  0
 13 36  1  0  0  0  0
 14 37  1  0  0  0  0
 15 38  1  0  0  0  0
 16 39  1  0  0  0  0
 17 40  1  0  0  0  0
 18 41  1  0  0  0  0
 18 42  1  0  0  0  0
 19 43  1  0  0  0  0
 19 44  1  0  0  0  0
 20 45  1  0  0  0  0
 29 46  1  0  0  0  0
M  END
> <pdb_id>
3NW7

> <uniprot_id>
P08069

> <usmiles>
Fc1ncc(cc1)C(=O)NCC2=NN3C(C(=N2)NC=4NN=C(C4)C5CC5)=CC=C3

$$$$
LIH_A_201
          07202413363D 1   1.00000     0.00000     0
            
 42 45  0  0  0  0            999 V2000
   18.4631    7.5273    4.7361 N   0  0  0  0  0  0  0  0  0  0  0  0
   18.9211    8.4451    0.2849 N   0  0  0  0  0  0  0  0  0  0  0  0
   16.2397    4.7160    1.8946 N   0  0  0  0  0  0  0  0  0  0  0  0
    9.9271    2.2325   -0.6347 N   0  0  0  0  0  0  0  0  0  0  0  0
   14.3662    3.7415   -1.7093 N   0  0  0  0  0  0  0  0  0  0  0  0
   18.6661    7.9447    2.4863 N   0  0  0  0  0  0  0  0  0  0  0  0
   17.3644    6.1292    3.2828 N   0  0  0  0  0  0  0  0  0  0  0  0
   16.7588    7.4309   -1.5016 C   0  0  0  0  0  0  0  0  0  0  0  0
   10.3237    0.9540   -0.9211 C   0  0  0  0  0  0  0  0  0  0  0  0
   15.7793    4.4335    0.6407 C   0  0  0  0  0  0  0  0  0  0  0  0
   15.3803    4.8601   -1.8938 C   0  0  0  0  0  0  0  0  0  0  0  0
   11.5758    0.5795   -1.3734 C   0  0  0  0  0  0  0  0  0  0  0  0
   11.3373    5.5279   -0.5592 C   0  0  0  0  0  0  0  0  0  0  0  0
   10.4228    4.5922   -0.5400 C   0  0  0  0  0  0  0  0  0  0  0  0
   12.6812    5.3586   -0.9779 C   0  0  0  0  0  0  0  0  0  0  0  0
   12.5292    1.6319   -1.4666 C   0  0  0  0  0  0  0  0  0  0  0  0
   18.1686    7.2265    3.5214 C   0  0  0  0  0  0  0  0  0  0  0  0
   18.2958    7.6866    1.2266 C   0  0  0  0  0  0  0  0  0  0  0  0
   16.9849    5.8593    1.9658 C   0  0  0  0  0  0  0  0  0  0  0  0
   10.8180    3.3199   -0.7536 C   0  0  0  0  0  0  0  0  0  0  0  0
   13.1475    4.0399   -1.3125 C   0  0  0  0  0  0  0  0  0  0  0  0
   15.9252    5.2803   -0.4780 C   0  0  0  0  0  0  0  0  0  0  0  0
   16.7038    6.4342   -0.3393 C   0  0  0  0  0  0  0  0  0  0  0  0
   12.1674    3.0335   -1.2018 C   0  0  0  0  0  0  0  0  0  0  0  0
   17.2878    6.6867    0.9095 C   0  0  0  0  0  0  0  0  0  0  0  0
   18.0881    6.9877    5.4899 H   0  0  0  0  0  0  0  0  0  0  0  0
   19.0673    8.3009    4.9273 H   0  0  0  0  0  0  0  0  0  0  0  0
   18.7049    8.3188   -0.6832 H   0  0  0  0  0  0  0  0  0  0  0  0
   19.5967    9.1286    0.5613 H   0  0  0  0  0  0  0  0  0  0  0  0
   14.6224    2.7914   -1.8874 H   0  0  0  0  0  0  0  0  0  0  0  0
   17.3508    8.1982   -1.2550 H   0  0  0  0  0  0  0  0  0  0  0  0
   17.1237    6.9760   -2.3139 H   0  0  0  0  0  0  0  0  0  0  0  0
   15.8377    7.7692   -1.6945 H   0  0  0  0  0  0  0  0  0  0  0  0
    9.6491    0.2273   -0.7920 H   0  0  0  0  0  0  0  0  0  0  0  0
   15.3045    3.5639    0.5057 H   0  0  0  0  0  0  0  0  0  0  0  0
   14.9413    5.6442   -2.3324 H   0  0  0  0  0  0  0  0  0  0  0  0
   16.1363    4.5391   -2.4643 H   0  0  0  0  0  0  0  0  0  0  0  0
   11.7958   -0.3649   -1.6178 H   0  0  0  0  0  0  0  0  0  0  0  0
   11.0652    6.4400   -0.2526 H   0  0  0  0  0  0  0  0  0  0  0  0
    9.4620    4.8130   -0.3723 H   0  0  0  0  0  0  0  0  0  0  0  0
   13.2960    6.1448   -1.0397 H   0  0  0  0  0  0  0  0  0  0  0  0
   13.4716    1.4127   -1.7192 H   0  0  0  0  0  0  0  0  0  0  0  0
  1 17  1  0  0  0  0
  2 18  1  0  0  0  0
  3 10  2  0  0  0  0
  3 19  1  0  0  0  0
  4  9  2  0  0  0  0
  4 20  1  0  0  0  0
  5 11  1  0  0  0  0
  5 21  1  0  0  0  0
  6 17  2  0  0  0  0
  6 18  1  0  0  0  0
  7 17  1  0  0  0  0
  7 19  2  0  0  0  0
  8 23  1  0  0  0  0
  9 12  1  0  0  0  0
 10 22  1  0  0  0  0
 11 22  1  0  0  0  0
 12 16  2  0  0  0  0
 13 14  2  0  0  0  0
 13 15  1  0  0  0  0
 14 20  1  0  0  0  0
 15 21  2  0  0  0  0
 16 24  1  0  0  0  0
 18 25  2  0  0  0  0
 19 25  1  0  0  0  0
 20 24  2  0  0  0  0
 21 24  1  0  0  0  0
 22 23  2  0  0  0  0
 23 25  1  0  0  0  0
  1 26  1  0  0  0  0
  1 27  1  0  0  0  0
  2 28  1  0  0  0  0
  2 29  1  0  0  0  0
  5 30  1  0  0  0  0
  8 31  1  0  0  0  0
  8 32  1  0  0  0  0
  8 33  1  0  0  0  0
  9 34  1  0  0  0  0
 10 35  1  0  0  0  0
 11 36  1  0  0  0  0
 11 37  1  0  0  0  0
 12 38  1  0  0  0  0
 13 39  1  0  0  0  0
 14 40  1  0  0  0  0
 15 41  1  0  0  0  0
 16 42  1  0  0  0  0
M  END
> <pdb_id>
1KMS

> <uniprot_id>
P00374

> <usmiles>
n1c(nc(N)c2c1ncc(c2C)CNc3c4c(nccc4)ccc3)N

$$$$
LII_A_201
          07202413363D 1   1.00000     0.00000     0
            
 44 46  0  0  0  0            999 V2000
   10.7768    1.3366   -0.4233 O   0  0  0  0  0  0  0  0  0  0  0  0
   13.5238    6.1041   -0.9097 O   0  0  0  0  0  0  0  0  0  0  0  0
   18.4270    7.5625    4.7948 N   0  0  0  0  0  0  0  0  0  0  0  0
   18.8930    8.2690    0.3582 N   0  0  0  0  0  0  0  0  0  0  0  0
   16.2808    4.5791    2.0091 N   0  0  0  0  0  0  0  0  0  0  0  0
   18.6428    7.8749    2.5366 N   0  0  0  0  0  0  0  0  0  0  0  0
   17.3618    6.1217    3.3933 N   0  0  0  0  0  0  0  0  0  0  0  0
   11.2079    0.2719   -1.2242 C   0  0  0  0  0  0  0  0  0  0  0  0
   13.1778    7.1005    0.0520 C   0  0  0  0  0  0  0  0  0  0  0  0
   16.8844    7.0498   -1.4732 C   0  0  0  0  0  0  0  0  0  0  0  0
   15.8575    4.1643    0.8076 C   0  0  0  0  0  0  0  0  0  0  0  0
   10.8801    3.7303    0.0605 C   0  0  0  0  0  0  0  0  0  0  0  0
   11.5637    4.9429   -0.0587 C   0  0  0  0  0  0  0  0  0  0  0  0
   15.8441    4.2762   -1.7479 C   0  0  0  0  0  0  0  0  0  0  0  0
   14.6046    3.7853   -2.0496 C   0  0  0  0  0  0  0  0  0  0  0  0
   12.5849    2.6279   -1.1614 C   0  0  0  0  0  0  0  0  0  0  0  0
   18.1415    7.1874    3.5605 C   0  0  0  0  0  0  0  0  0  0  0  0
   18.3109    7.5362    1.2856 C   0  0  0  0  0  0  0  0  0  0  0  0
   11.3795    2.5628   -0.4886 C   0  0  0  0  0  0  0  0  0  0  0  0
   12.7621    4.9806   -0.7270 C   0  0  0  0  0  0  0  0  0  0  0  0
   17.0148    5.7073    2.0889 C   0  0  0  0  0  0  0  0  0  0  0  0
   16.8340    6.1306   -0.3106 C   0  0  0  0  0  0  0  0  0  0  0  0
   16.2325    4.9610   -0.4265 C   0  0  0  0  0  0  0  0  0  0  0  0
   13.2842    3.8211   -1.2895 C   0  0  0  0  0  0  0  0  0  0  0  0
   17.3774    6.4867    1.0133 C   0  0  0  0  0  0  0  0  0  0  0  0
   18.0555    7.0528    5.5709 H   0  0  0  0  0  0  0  0  0  0  0  0
   19.0147    8.3560    4.9530 H   0  0  0  0  0  0  0  0  0  0  0  0
   18.7077    8.0918   -0.6084 H   0  0  0  0  0  0  0  0  0  0  0  0
   19.5201    9.0023    0.6208 H   0  0  0  0  0  0  0  0  0  0  0  0
   10.6486   -0.5352   -1.0352 H   0  0  0  0  0  0  0  0  0  0  0  0
   11.1174    0.5219   -2.1882 H   0  0  0  0  0  0  0  0  0  0  0  0
   12.1658    0.0687   -1.0211 H   0  0  0  0  0  0  0  0  0  0  0  0
   13.7411    7.9139   -0.0933 H   0  0  0  0  0  0  0  0  0  0  0  0
   12.2125    7.3410   -0.0498 H   0  0  0  0  0  0  0  0  0  0  0  0
   13.3373    6.7447    0.9728 H   0  0  0  0  0  0  0  0  0  0  0  0
   17.3721    7.8845   -1.2173 H   0  0  0  0  0  0  0  0  0  0  0  0
   17.3616    6.6037   -2.2303 H   0  0  0  0  0  0  0  0  0  0  0  0
   15.9535    7.2810   -1.7559 H   0  0  0  0  0  0  0  0  0  0  0  0
   15.3002    3.3380    0.7257 H   0  0  0  0  0  0  0  0  0  0  0  0
   10.0105    3.7057    0.5537 H   0  0  0  0  0  0  0  0  0  0  0  0
   11.1828    5.7772    0.3399 H   0  0  0  0  0  0  0  0  0  0  0  0
   16.5567    4.1824   -2.4432 H   0  0  0  0  0  0  0  0  0  0  0  0
   14.5550    3.3163   -2.9315 H   0  0  0  0  0  0  0  0  0  0  0  0
   12.9630    1.7953   -1.5661 H   0  0  0  0  0  0  0  0  0  0  0  0
  1  8  1  0  0  0  0
  1 19  1  0  0  0  0
  2  9  1  0  0  0  0
  2 20  1  0  0  0  0
  3 17  1  0  0  0  0
  4 18  1  0  0  0  0
  5 11  2  0  0  0  0
  5 21  1  0  0  0  0
  6 17  2  0  0  0  0
  6 18  1  0  0  0  0
  7 17  1  0  0  0  0
  7 21  2  0  0  0  0
 10 22  1  0  0  0  0
 11 23  1  0  0  0  0
 12 13  2  0  0  0  0
 12 19  1  0  0  0  0
 13 20  1  0  0  0  0
 14 15  2  0  0  0  0
 14 23  1  0  0  0  0
 15 24  1  0  0  0  0
 16 19  2  0  0  0  0
 16 24  1  0  0  0  0
 18 25  2  0  0  0  0
 20 24  2  0  0  0  0
 21 25  1  0  0  0  0
 22 23  2  0  0  0  0
 22 25  1  0  0  0  0
  3 26  1  0  0  0  0
  3 27  1  0  0  0  0
  4 28  1  0  0  0  0
  4 29  1  0  0  0  0
  8 30  1  0  0  0  0
  8 31  1  0  0  0  0
  8 32  1  0  0  0  0
  9 33  1  0  0  0  0
  9 34  1  0  0  0  0
  9 35  1  0  0  0  0
 10 36  1  0  0  0  0
 10 37  1  0  0  0  0
 10 38  1  0  0  0  0
 11 39  1  0  0  0  0
 12 40  1  0  0  0  0
 13 41  1  0  0  0  0
 14 42  1  0  0  0  0
 15 43  1  0  0  0  0
 16 44  1  0  0  0  0
M  END
> <pdb_id>
1KMV

> <uniprot_id>
P00374

> <usmiles>
O(c1c(cc(OC)cc1)/C=C\c2c(c3c(nc(nc3N)N)nc2)C)C

$$$$
LKG_A_1
          07202415303D 1   1.00000     0.00000     0
            
 37 40  0  0  0  0            999 V2000
   -0.5015  -18.4297   14.0246 O   0  0  0  0  0  0  0  0  0  0  0  0
   -1.1003  -14.1548   20.6336 N   0  0  0  0  0  0  0  0  0  0  0  0
   -0.2360  -14.0401   19.7497 N   0  0  0  0  0  0  0  0  0  0  0  0
   -3.1550  -13.9244   17.9702 N   0  0  0  0  0  0  0  0  0  0  0  0
   -2.1843  -13.9807   18.7349 N   0  0  0  0  0  0  0  0  0  0  0  0
   -7.6126  -13.7798   15.7155 C   0  0  0  0  0  0  0  0  0  0  0  0
   -6.3270  -14.0892   15.2603 C   0  0  0  0  0  0  0  0  0  0  0  0
   -7.8360  -13.5485   17.0694 C   0  0  0  0  0  0  0  0  0  0  0  0
    0.5222  -17.2515   15.8295 C   0  0  0  0  0  0  0  0  0  0  0  0
   -1.2503  -16.2311   14.5277 C   0  0  0  0  0  0  0  0  0  0  0  0
   -3.5967  -14.2335   20.6760 C   0  0  0  0  0  0  0  0  0  0  0  0
   -4.6680  -14.1696   19.7957 C   0  0  0  0  0  0  0  0  0  0  0  0
    0.6168  -16.0969   16.6123 C   0  0  0  0  0  0  0  0  0  0  0  0
   -1.1596  -15.0812   15.3103 C   0  0  0  0  0  0  0  0  0  0  0  0
   -5.2720  -14.1665   16.1676 C   0  0  0  0  0  0  0  0  0  0  0  0
   -6.7774  -13.6294   17.9727 C   0  0  0  0  0  0  0  0  0  0  0  0
   -0.1424  -13.7464   17.1910 C   0  0  0  0  0  0  0  0  0  0  0  0
   -0.4095  -17.3130   14.7945 C   0  0  0  0  0  0  0  0  0  0  0  0
   -2.3258  -14.1321   20.1203 C   0  0  0  0  0  0  0  0  0  0  0  0
   -0.8104  -13.9300   18.5564 C   0  0  0  0  0  0  0  0  0  0  0  0
   -4.4236  -14.0124   18.4264 C   0  0  0  0  0  0  0  0  0  0  0  0
   -0.2332  -15.0213   16.3489 C   0  0  0  0  0  0  0  0  0  0  0  0
   -5.4890  -13.9383   17.5264 C   0  0  0  0  0  0  0  0  0  0  0  0
   -1.1706  -18.4717   13.2826 H   0  0  0  0  0  0  0  0  0  0  0  0
   -8.3721  -13.7247   15.0674 H   0  0  0  0  0  0  0  0  0  0  0  0
   -6.1654  -14.2544   14.2874 H   0  0  0  0  0  0  0  0  0  0  0  0
   -8.7549  -13.3245   17.3939 H   0  0  0  0  0  0  0  0  0  0  0  0
    1.1213  -18.0311   16.0116 H   0  0  0  0  0  0  0  0  0  0  0  0
   -1.9131  -16.2806   13.7805 H   0  0  0  0  0  0  0  0  0  0  0  0
   -3.7320  -14.3468   21.6603 H   0  0  0  0  0  0  0  0  0  0  0  0
   -5.6058  -14.2352   20.1365 H   0  0  0  0  0  0  0  0  0  0  0  0
    1.2863  -16.0422   17.3531 H   0  0  0  0  0  0  0  0  0  0  0  0
   -1.7580  -14.3013   15.1267 H   0  0  0  0  0  0  0  0  0  0  0  0
   -4.3526  -14.3872   15.8420 H   0  0  0  0  0  0  0  0  0  0  0  0
   -6.9405  -13.4655   18.9456 H   0  0  0  0  0  0  0  0  0  0  0  0
    0.8208  -13.5152   17.3286 H   0  0  0  0  0  0  0  0  0  0  0  0
   -0.5977  -13.0014   16.7036 H   0  0  0  0  0  0  0  0  0  0  0  0
  1 18  1  0  0  0  0
  2  3  1  0  0  0  0
  2 19  2  0  0  0  0
  3 20  2  0  0  0  0
  4  5  1  0  0  0  0
  4 21  2  0  0  0  0
  5 19  1  0  0  0  0
  5 20  1  0  0  0  0
  6  7  2  0  0  0  0
  6  8  1  0  0  0  0
  7 15  1  0  0  0  0
  8 16  2  0  0  0  0
  9 13  1  0  0  0  0
  9 18  2  0  0  0  0
 10 14  2  0  0  0  0
 10 18  1  0  0  0  0
 11 12  2  0  0  0  0
 11 19  1  0  0  0  0
 12 21  1  0  0  0  0
 13 22  2  0  0  0  0
 14 22  1  0  0  0  0
 15 23  2  0  0  0  0
 16 23  1  0  0  0  0
 17 20  1  0  0  0  0
 17 22  1  0  0  0  0
 21 23  1  0  0  0  0
  1 24  1  0  0  0  0
  6 25  1  0  0  0  0
  7 26  1  0  0  0  0
  8 27  1  0  0  0  0
  9 28  1  0  0  0  0
 10 29  1  0  0  0  0
 11 30  1  0  0  0  0
 12 31  1  0  0  0  0
 13 32  1  0  0  0  0
 14 33  1  0  0  0  0
 15 34  1  0  0  0  0
 16 35  1  0  0  0  0
 17 36  1  0  0  0  0
 17 37  1  0  0  0  0
M  END
> <pdb_id>
3CCN

> <uniprot_id>
P08581

> <usmiles>
Oc1ccc(cc1)CC2=NN=C3N2N=C(c4ccccc4)C=C3

$$$$
LL1_A_351
          07192421293D 1   1.00000     0.00000     0
            
 24 26  0  0  0  0            999 V2000
    2.7800   10.1244    3.9647 N   0  0  0  0  0  0  0  0  0  0  0  0
    8.5479    9.8449    1.4127 N   0  0  0  0  0  0  0  0  0  0  0  0
    7.2959    9.7734    1.5675 N   0  0  0  0  0  0  0  0  0  0  0  0
    3.0820   10.1771    2.6478 C   0  0  0  0  0  0  0  0  0  0  0  0
    3.6680   10.0246    4.9624 C   0  0  0  0  0  0  0  0  0  0  0  0
   10.7570   10.8897    4.3266 C   0  0  0  0  0  0  0  0  0  0  0  0
    9.7050   11.0600    5.2641 C   0  0  0  0  0  0  0  0  0  0  0  0
    4.4499   10.1892    2.2938 C   0  0  0  0  0  0  0  0  0  0  0  0
    5.0760   10.0126    4.6303 C   0  0  0  0  0  0  0  0  0  0  0  0
   10.4500   10.4235    2.9933 C   0  0  0  0  0  0  0  0  0  0  0  0
    8.3630   10.8191    4.8615 C   0  0  0  0  0  0  0  0  0  0  0  0
    9.1190   10.1975    2.6017 C   0  0  0  0  0  0  0  0  0  0  0  0
    5.4760   10.1025    3.2565 C   0  0  0  0  0  0  0  0  0  0  0  0
    6.8620   10.0748    2.8164 C   0  0  0  0  0  0  0  0  0  0  0  0
    8.0500   10.3698    3.5502 C   0  0  0  0  0  0  0  0  0  0  0  0
    9.0398    9.6716    0.5594 H   0  0  0  0  0  0  0  0  0  0  0  0
    2.3650   10.2064    1.9514 H   0  0  0  0  0  0  0  0  0  0  0  0
    3.3653    9.9600    5.9133 H   0  0  0  0  0  0  0  0  0  0  0  0
   11.7017   11.0904    4.5860 H   0  0  0  0  0  0  0  0  0  0  0  0
    9.9063   11.3472    6.2006 H   0  0  0  0  0  0  0  0  0  0  0  0
    4.6985   10.2617    1.3279 H   0  0  0  0  0  0  0  0  0  0  0  0
    5.7641    9.9422    5.3525 H   0  0  0  0  0  0  0  0  0  0  0  0
   11.1918   10.2601    2.3429 H   0  0  0  0  0  0  0  0  0  0  0  0
    7.6222   10.9693    5.5162 H   0  0  0  0  0  0  0  0  0  0  0  0
  1  4  2  0  0  0  0
  1  5  1  0  0  0  0
  2  3  1  0  0  0  0
  2 12  1  0  0  0  0
  3 14  2  0  0  0  0
  4  8  1  0  0  0  0
  5  9  2  0  0  0  0
  6  7  2  0  0  0  0
  6 10  1  0  0  0  0
  7 11  1  0  0  0  0
  8 13  2  0  0  0  0
  9 13  1  0  0  0  0
 10 12  2  0  0  0  0
 11 15  2  0  0  0  0
 12 15  1  0  0  0  0
 13 14  1  0  0  0  0
 14 15  1  0  0  0  0
  2 16  1  0  0  0  0
  4 17  1  0  0  0  0
  5 18  1  0  0  0  0
  6 19  1  0  0  0  0
  7 20  1  0  0  0  0
  8 21  1  0  0  0  0
  9 22  1  0  0  0  0
 10 23  1  0  0  0  0
 11 24  1  0  0  0  0
M  END
> <pdb_id>
3DNE

> <uniprot_id>
P00517

> <usmiles>
n1ccc(cc1)C2=NNc3c2cccc3

$$$$
LL4_A_217
          07192423263D 1   1.00000     0.00000     0
            
 44 46  0  0  0  0            999 V2000
   27.6602   -4.4589   -5.4033 S   0  0  0  0  0  0  0  0  0  0  0  0
   28.0016  -13.1280   -7.9356 O   0  0  0  0  0  0  0  0  0  0  0  0
   27.2382   -8.2292   -2.4718 O   0  0  0  0  0  0  0  0  0  0  0  0
   27.2758   -6.8214   -2.2969 N   0  0  0  0  0  0  0  0  0  0  0  0
   27.5542   -7.2418   -4.4152 N   0  0  0  0  0  0  0  0  0  0  0  0
   28.0368  -12.0673   -6.0249 N   0  0  0  0  0  0  0  0  0  0  0  0
   29.6014  -17.1649   -5.5211 C   0  0  0  0  0  0  0  0  0  0  0  0
   30.8505  -17.2757   -7.7916 C   0  0  0  0  0  0  0  0  0  0  0  0
   27.9416   -2.7624   -5.0204 C   0  0  0  0  0  0  0  0  0  0  0  0
   28.4202  -12.0943   -4.5368 C   0  0  0  0  0  0  0  0  0  0  0  0
   26.9988  -11.1540   -6.5727 C   0  0  0  0  0  0  0  0  0  0  0  0
   28.0320   -2.6474   -3.6554 C   0  0  0  0  0  0  0  0  0  0  0  0
   29.3632  -14.1275   -6.1827 C   0  0  0  0  0  0  0  0  0  0  0  0
   27.8629   -3.8134   -2.9712 C   0  0  0  0  0  0  0  0  0  0  0  0
   28.2259  -10.7344   -3.8454 C   0  0  0  0  0  0  0  0  0  0  0  0
   27.2166   -9.7478   -6.0754 C   0  0  0  0  0  0  0  0  0  0  0  0
   29.6260  -15.2255   -7.2135 C   0  0  0  0  0  0  0  0  0  0  0  0
   28.4170  -13.0705   -6.7726 C   0  0  0  0  0  0  0  0  0  0  0  0
   27.6130   -4.9016   -3.7754 C   0  0  0  0  0  0  0  0  0  0  0  0
   27.3843   -8.4010   -3.8140 C   0  0  0  0  0  0  0  0  0  0  0  0
   27.4618   -6.2574   -3.4967 C   0  0  0  0  0  0  0  0  0  0  0  0
   30.4429  -16.3527   -6.6168 C   0  0  0  0  0  0  0  0  0  0  0  0
   27.6138   -9.6437   -4.5996 C   0  0  0  0  0  0  0  0  0  0  0  0
   29.3488  -16.5516   -4.7728 H   0  0  0  0  0  0  0  0  0  0  0  0
   28.7736  -17.5343   -5.9432 H   0  0  0  0  0  0  0  0  0  0  0  0
   30.1568  -17.9158   -5.1636 H   0  0  0  0  0  0  0  0  0  0  0  0
   31.3735  -16.7501   -8.4625 H   0  0  0  0  0  0  0  0  0  0  0  0
   31.4122  -18.0273   -7.4456 H   0  0  0  0  0  0  0  0  0  0  0  0
   30.0289  -17.6458   -8.2252 H   0  0  0  0  0  0  0  0  0  0  0  0
   28.0214   -2.0155   -5.6805 H   0  0  0  0  0  0  0  0  0  0  0  0
   29.3819  -12.3573   -4.4596 H   0  0  0  0  0  0  0  0  0  0  0  0
   27.8508  -12.7728   -4.0727 H   0  0  0  0  0  0  0  0  0  0  0  0
   26.0958  -11.4699   -6.2815 H   0  0  0  0  0  0  0  0  0  0  0  0
   27.0483  -11.1611   -7.5715 H   0  0  0  0  0  0  0  0  0  0  0  0
   28.2083   -1.7754   -3.1987 H   0  0  0  0  0  0  0  0  0  0  0  0
   30.2289  -13.6943   -5.9320 H   0  0  0  0  0  0  0  0  0  0  0  0
   28.9441  -14.5303   -5.3690 H   0  0  0  0  0  0  0  0  0  0  0  0
   27.9157   -3.8730   -1.9744 H   0  0  0  0  0  0  0  0  0  0  0  0
   28.5132  -10.5995   -2.8972 H   0  0  0  0  0  0  0  0  0  0  0  0
   26.3672   -9.2364   -6.2059 H   0  0  0  0  0  0  0  0  0  0  0  0
   27.9430   -9.3329   -6.6232 H   0  0  0  0  0  0  0  0  0  0  0  0
   30.1256  -14.8345   -7.9865 H   0  0  0  0  0  0  0  0  0  0  0  0
   28.7510  -15.5900   -7.5321 H   0  0  0  0  0  0  0  0  0  0  0  0
   31.2654  -15.9762   -6.1905 H   0  0  0  0  0  0  0  0  0  0  0  0
  1  9  1  0  0  0  0
  1 19  1  0  0  0  0
  2 18  2  0  0  0  0
  3  4  1  0  0  0  0
  3 20  1  0  0  0  0
  4 21  2  0  0  0  0
  5 20  2  0  0  0  0
  5 21  1  0  0  0  0
  6 10  1  0  0  0  0
  6 11  1  0  0  0  0
  6 18  1  0  0  0  0
  7 22  1  0  0  0  0
  8 22  1  0  0  0  0
  9 12  2  0  0  0  0
 10 15  1  0  0  0  0
 11 16  1  0  0  0  0
 12 14  1  0  0  0  0
 13 17  1  0  0  0  0
 13 18  1  0  0  0  0
 14 19  2  0  0  0  0
 15 23  2  0  0  0  0
 16 23  1  0  0  0  0
 17 22  1  0  0  0  0
 19 21  1  0  0  0  0
 20 23  1  0  0  0  0
  7 24  1  0  0  0  0
  7 25  1  0  0  0  0
  7 26  1  0  0  0  0
  8 27  1  0  0  0  0
  8 28  1  0  0  0  0
  8 29  1  0  0  0  0
  9 30  1  0  0  0  0
 10 31  1  0  0  0  0
 10 32  1  0  0  0  0
 11 33  1  0  0  0  0
 11 34  1  0  0  0  0
 12 35  1  0  0  0  0
 13 36  1  0  0  0  0
 13 37  1  0  0  0  0
 14 38  1  0  0  0  0
 15 39  1  0  0  0  0
 16 40  1  0  0  0  0
 16 41  1  0  0  0  0
 17 42  1  0  0  0  0
 17 43  1  0  0  0  0
 22 44  1  0  0  0  0
M  END
> <pdb_id>
3Q0V

> <uniprot_id>
P96222

> <usmiles>
S1C(C2=NOC(=N2)C3=CCN(C(=O)CCC(C)C)CC3)=CC=C1

$$$$
LL4_B_217
          07192423263D 1   1.00000     0.00000     0
            
 44 46  0  0  0  0            999 V2000
   27.6070   -4.4097   -5.3892 S   0  0  0  0  0  0  0  0  0  0  0  0
   28.0042  -13.0120   -8.0041 O   0  0  0  0  0  0  0  0  0  0  0  0
   27.1866   -8.3172   -2.5203 O   0  0  0  0  0  0  0  0  0  0  0  0
   27.1737   -6.8505   -2.3252 N   0  0  0  0  0  0  0  0  0  0  0  0
   27.5912   -7.2360   -4.4109 N   0  0  0  0  0  0  0  0  0  0  0  0
   28.1030  -12.1030   -6.0045 N   0  0  0  0  0  0  0  0  0  0  0  0
   29.5885  -17.3703   -5.4316 C   0  0  0  0  0  0  0  0  0  0  0  0
   30.5648  -16.8323   -7.6728 C   0  0  0  0  0  0  0  0  0  0  0  0
   27.8630   -2.7388   -5.0383 C   0  0  0  0  0  0  0  0  0  0  0  0
   28.5491  -12.0800   -4.5377 C   0  0  0  0  0  0  0  0  0  0  0  0
   27.0140  -11.2399   -6.4820 C   0  0  0  0  0  0  0  0  0  0  0  0
   27.9557   -2.6616   -3.6895 C   0  0  0  0  0  0  0  0  0  0  0  0
   29.5901  -14.0448   -6.6089 C   0  0  0  0  0  0  0  0  0  0  0  0
   27.8061   -3.8232   -2.9901 C   0  0  0  0  0  0  0  0  0  0  0  0
   28.2139  -10.7991   -3.8245 C   0  0  0  0  0  0  0  0  0  0  0  0
   27.0398   -9.7996   -6.0057 C   0  0  0  0  0  0  0  0  0  0  0  0
   29.1681  -15.3163   -6.2526 C   0  0  0  0  0  0  0  0  0  0  0  0
   28.4546  -13.0762   -6.8569 C   0  0  0  0  0  0  0  0  0  0  0  0
   27.5656   -4.9126   -3.7812 C   0  0  0  0  0  0  0  0  0  0  0  0
   27.4421   -8.4322   -3.8414 C   0  0  0  0  0  0  0  0  0  0  0  0
   27.4326   -6.2688   -3.5001 C   0  0  0  0  0  0  0  0  0  0  0  0
   30.2866  -16.3282   -6.2854 C   0  0  0  0  0  0  0  0  0  0  0  0
   27.7449   -9.6547   -4.6519 C   0  0  0  0  0  0  0  0  0  0  0  0
   29.4220  -16.9965   -4.5191 H   0  0  0  0  0  0  0  0  0  0  0  0
   28.7169  -17.6182   -5.8544 H   0  0  0  0  0  0  0  0  0  0  0  0
   30.1666  -18.1830   -5.3584 H   0  0  0  0  0  0  0  0  0  0  0  0
   31.0238  -16.1180   -8.2012 H   0  0  0  0  0  0  0  0  0  0  0  0
   31.1528  -17.6396   -7.6225 H   0  0  0  0  0  0  0  0  0  0  0  0
   29.7031  -17.0748   -8.1185 H   0  0  0  0  0  0  0  0  0  0  0  0
   27.9289   -1.9862   -5.6935 H   0  0  0  0  0  0  0  0  0  0  0  0
   29.5403  -12.2085   -4.5070 H   0  0  0  0  0  0  0  0  0  0  0  0
   28.1001  -12.8347   -4.0592 H   0  0  0  0  0  0  0  0  0  0  0  0
   26.1503  -11.6447   -6.1816 H   0  0  0  0  0  0  0  0  0  0  0  0
   27.0481  -11.2309   -7.4814 H   0  0  0  0  0  0  0  0  0  0  0  0
   28.1263   -1.7916   -3.2267 H   0  0  0  0  0  0  0  0  0  0  0  0
   30.5538  -13.7918   -6.6939 H   0  0  0  0  0  0  0  0  0  0  0  0
   27.8665   -3.8734   -1.9932 H   0  0  0  0  0  0  0  0  0  0  0  0
   29.0369  -10.5015   -3.3405 H   0  0  0  0  0  0  0  0  0  0  0  0
   27.4937  -11.0048   -3.1619 H   0  0  0  0  0  0  0  0  0  0  0  0
   26.0991   -9.4722   -5.9164 H   0  0  0  0  0  0  0  0  0  0  0  0
   27.5232   -9.2444   -6.6826 H   0  0  0  0  0  0  0  0  0  0  0  0
   28.2260  -15.5384   -6.0015 H   0  0  0  0  0  0  0  0  0  0  0  0
   31.1140  -15.9809   -5.8441 H   0  0  0  0  0  0  0  0  0  0  0  0
   28.6379   -9.3666   -4.9978 H   0  0  0  0  0  0  0  0  0  0  0  0
  1  9  1  0  0  0  0
  1 19  1  0  0  0  0
  2 18  2  0  0  0  0
  3  4  1  0  0  0  0
  3 20  1  0  0  0  0
  4 21  2  0  0  0  0
  5 20  2  0  0  0  0
  5 21  1  0  0  0  0
  6 10  1  0  0  0  0
  6 11  1  0  0  0  0
  6 18  1  0  0  0  0
  7 22  1  0  0  0  0
  8 22  1  0  0  0  0
  9 12  2  0  0  0  0
 10 15  1  0  0  0  0
 11 16  1  0  0  0  0
 12 14  1  0  0  0  0
 13 17  2  0  0  0  0
 13 18  1  0  0  0  0
 14 19  2  0  0  0  0
 15 23  1  0  0  0  0
 16 23  1  0  0  0  0
 17 22  1  0  0  0  0
 19 21  1  0  0  0  0
 20 23  1  0  0  0  0
  7 24  1  0  0  0  0
  7 25  1  0  0  0  0
  7 26  1  0  0  0  0
  8 27  1  0  0  0  0
  8 28  1  0  0  0  0
  8 29  1  0  0  0  0
  9 30  1  0  0  0  0
 10 31  1  0  0  0  0
 10 32  1  0  0  0  0
 11 33  1  0  0  0  0
 11 34  1  0  0  0  0
 12 35  1  0  0  0  0
 13 36  1  0  0  0  0
 14 37  1  0  0  0  0
 15 38  1  0  0  0  0
 15 39  1  0  0  0  0
 16 40  1  0  0  0  0
 16 41  1  0  0  0  0
 17 42  1  0  0  0  0
 22 43  1  0  0  0  0
 23 44  1  0  0  0  0
M  END
> <pdb_id>
3Q0V

> <uniprot_id>
P96222

> <usmiles>
S1C(C2=NOC(=N2)C3CCN(C(=O)/C=C/C(C)C)CC3)=CC=C1

$$$$
LLB_B_1
          07192417253D 1   1.00000     0.00000     0
            
 64 68  0  0  0  0            999 V2000
   23.4400   26.6540   69.3530 S   0  0  0  0  0  0  0  0  0  0  0  0
   24.9750   32.8430   71.4810 O   0  0  0  0  0  0  0  0  0  0  0  0
   23.8720   21.7760   67.8120 O   0  0  0  0  0  0  0  0  0  0  0  0
   27.8180   27.7300   70.0460 O   0  0  0  0  0  0  0  0  0  0  0  0
   30.0280   27.9810   64.0190 O   0  0  0  0  0  0  0  0  0  0  0  0
   31.2340   27.2690   61.0730 N   0  0  0  0  0  0  0  0  0  0  0  0
   30.2390   26.6650   56.8070 C   0  0  0  0  0  0  0  0  0  0  0  0
   31.0740   27.1860   63.5780 C   0  0  0  0  0  0  0  0  0  0  0  0
   31.4860   27.9380   62.3220 C   0  0  0  0  0  0  0  0  0  0  0  0
   29.7830   27.3620   60.7010 C   0  0  0  0  0  0  0  0  0  0  0  0
   32.1440   27.6820   59.9450 C   0  0  0  0  0  0  0  0  0  0  0  0
   25.5720   31.3070   69.7400 C   0  0  0  0  0  0  0  0  0  0  0  0
   24.2870   30.5310   71.6930 C   0  0  0  0  0  0  0  0  0  0  0  0
   25.9200   23.1100   67.9310 C   0  0  0  0  0  0  0  0  0  0  0  0
   30.2840   27.8990   66.5450 C   0  0  0  0  0  0  0  0  0  0  0  0
   28.1960   27.5990   65.2950 C   0  0  0  0  0  0  0  0  0  0  0  0
   29.4970   26.7540   59.2900 C   0  0  0  0  0  0  0  0  0  0  0  0
   31.9080   26.8810   58.6570 C   0  0  0  0  0  0  0  0  0  0  0  0
   25.5360   29.9940   69.2290 C   0  0  0  0  0  0  0  0  0  0  0  0
   24.2550   29.2130   71.1500 C   0  0  0  0  0  0  0  0  0  0  0  0
   29.5800   27.7140   67.7840 C   0  0  0  0  0  0  0  0  0  0  0  0
   27.5030   27.4160   66.4690 C   0  0  0  0  0  0  0  0  0  0  0  0
   26.5100   24.3560   68.2380 C   0  0  0  0  0  0  0  0  0  0  0  0
   23.6550   23.9700   68.5310 C   0  0  0  0  0  0  0  0  0  0  0  0
   24.2360   25.2080   68.8210 C   0  0  0  0  0  0  0  0  0  0  0  0
   24.9390   31.5680   70.9650 C   0  0  0  0  0  0  0  0  0  0  0  0
   24.5110   22.9360   68.0850 C   0  0  0  0  0  0  0  0  0  0  0  0
   24.8500   27.5650   69.4160 C   0  0  0  0  0  0  0  0  0  0  0  0
   29.5590   27.8280   65.3150 C   0  0  0  0  0  0  0  0  0  0  0  0
   27.3830   27.2950   69.0000 C   0  0  0  0  0  0  0  0  0  0  0  0
   30.5090   27.2570   58.2120 C   0  0  0  0  0  0  0  0  0  0  0  0
   24.8840   28.9570   69.9150 C   0  0  0  0  0  0  0  0  0  0  0  0
   28.1720   27.4640   67.7430 C   0  0  0  0  0  0  0  0  0  0  0  0
   25.6210   25.4020   68.6690 C   0  0  0  0  0  0  0  0  0  0  0  0
   26.0000   26.7460   69.0280 C   0  0  0  0  0  0  0  0  0  0  0  0
   24.5279   33.0423   72.3530 H   0  0  0  0  0  0  0  0  0  0  0  0
   22.8822   21.7088   67.9376 H   0  0  0  0  0  0  0  0  0  0  0  0
   30.9141   27.0201   56.1603 H   0  0  0  0  0  0  0  0  0  0  0  0
   30.3075   25.6681   56.8465 H   0  0  0  0  0  0  0  0  0  0  0  0
   29.3211   26.9244   56.5067 H   0  0  0  0  0  0  0  0  0  0  0  0
   30.7684   26.2572   63.3683 H   0  0  0  0  0  0  0  0  0  0  0  0
   31.8168   27.1495   64.2465 H   0  0  0  0  0  0  0  0  0  0  0  0
   30.9901   28.8063   62.3091 H   0  0  0  0  0  0  0  0  0  0  0  0
   32.4683   28.1159   62.3807 H   0  0  0  0  0  0  0  0  0  0  0  0
   29.5120   28.3246   60.6982 H   0  0  0  0  0  0  0  0  0  0  0  0
   29.2434   26.8658   61.3812 H   0  0  0  0  0  0  0  0  0  0  0  0
   33.0915   27.5469   60.2347 H   0  0  0  0  0  0  0  0  0  0  0  0
   31.9899   28.6507   59.7501 H   0  0  0  0  0  0  0  0  0  0  0  0
   26.0386   32.0369   69.2404 H   0  0  0  0  0  0  0  0  0  0  0  0
   23.8568   30.7254   72.5746 H   0  0  0  0  0  0  0  0  0  0  0  0
   26.4868   22.3525   67.6070 H   0  0  0  0  0  0  0  0  0  0  0  0
   31.2684   28.0751   66.5432 H   0  0  0  0  0  0  0  0  0  0  0  0
   27.7106   27.5662   64.4213 H   0  0  0  0  0  0  0  0  0  0  0  0
   28.5729   27.0132   59.0094 H   0  0  0  0  0  0  0  0  0  0  0  0
   29.5600   25.7578   59.3503 H   0  0  0  0  0  0  0  0  0  0  0  0
   31.9674   25.8993   58.8378 H   0  0  0  0  0  0  0  0  0  0  0  0
   32.5784   27.1325   57.9589 H   0  0  0  0  0  0  0  0  0  0  0  0
   25.9852   29.7965   68.3577 H   0  0  0  0  0  0  0  0  0  0  0  0
   23.7902   28.4764   71.6413 H   0  0  0  0  0  0  0  0  0  0  0  0
   30.0647   27.7591   68.6575 H   0  0  0  0  0  0  0  0  0  0  0  0
   26.5179   27.2468   66.4371 H   0  0  0  0  0  0  0  0  0  0  0  0
   27.4959   24.5038   68.1598 H   0  0  0  0  0  0  0  0  0  0  0  0
   22.6716   23.8211   68.6349 H   0  0  0  0  0  0  0  0  0  0  0  0
   30.4480   28.2536   58.1563 H   0  0  0  0  0  0  0  0  0  0  0  0
  1 25  1  0  0  0  0
  1 28  1  0  0  0  0
  2 26  1  0  0  0  0
  3 27  1  0  0  0  0
  4 30  2  0  0  0  0
  5  8  1  0  0  0  0
  5 29  1  0  0  0  0
  6  9  1  0  0  0  0
  6 10  1  0  0  0  0
  6 11  1  0  0  0  0
  7 31  1  0  0  0  0
  8  9  1  0  0  0  0
 10 17  1  0  0  0  0
 11 18  1  0  0  0  0
 12 19  1  0  0  0  0
 12 26  2  0  0  0  0
 13 20  2  0  0  0  0
 13 26  1  0  0  0  0
 14 23  1  0  0  0  0
 14 27  2  0  0  0  0
 15 21  1  0  0  0  0
 15 29  2  0  0  0  0
 16 22  2  0  0  0  0
 16 29  1  0  0  0  0
 17 31  1  0  0  0  0
 18 31  1  0  0  0  0
 19 32  2  0  0  0  0
 20 32  1  0  0  0  0
 21 33  2  0  0  0  0
 22 33  1  0  0  0  0
 23 34  2  0  0  0  0
 24 25  2  0  0  0  0
 24 27  1  0  0  0  0
 25 34  1  0  0  0  0
 28 32  1  0  0  0  0
 28 35  2  0  0  0  0
 30 33  1  0  0  0  0
 30 35  1  0  0  0  0
 34 35  1  0  0  0  0
  2 36  1  0  0  0  0
  3 37  1  0  0  0  0
  7 38  1  0  0  0  0
  7 39  1  0  0  0  0
  7 40  1  0  0  0  0
  8 41  1  0  0  0  0
  8 42  1  0  0  0  0
  9 43  1  0  0  0  0
  9 44  1  0  0  0  0
 10 45  1  0  0  0  0
 10 46  1  0  0  0  0
 11 47  1  0  0  0  0
 11 48  1  0  0  0  0
 12 49  1  0  0  0  0
 13 50  1  0  0  0  0
 14 51  1  0  0  0  0
 15 52  1  0  0  0  0
 16 53  1  0  0  0  0
 17 54  1  0  0  0  0
 17 55  1  0  0  0  0
 18 56  1  0  0  0  0
 18 57  1  0  0  0  0
 19 58  1  0  0  0  0
 20 59  1  0  0  0  0
 21 60  1  0  0  0  0
 22 61  1  0  0  0  0
 23 62  1  0  0  0  0
 24 63  1  0  0  0  0
 31 64  1  0  0  0  0
M  END
> <pdb_id>
2R6W

> <uniprot_id>
P03372

> <usmiles>
S1c2c(ccc(O)c2)C(=C1c3ccc(O)cc3)C(=O)c4ccc(OCCN5CCC(CC5)C)cc4

$$$$
LLX_B_400
          07202406043D 1   1.00000     0.00000     0
            
 38 40  0  0  0  0            999 V2000
   66.9468   31.4670   -0.7621 O   0  0  0  0  0  0  0  0  0  0  0  0
   65.9419   28.9093   -1.5693 N   0  0  0  0  0  0  0  0  0  0  0  0
   67.6632   29.7983    0.5310 N   0  0  0  0  0  0  0  0  0  0  0  0
   71.9724   32.0274   -0.9307 C   0  0  0  0  0  0  0  0  0  0  0  0
   63.3459   28.2737    6.5016 C   0  0  0  0  0  0  0  0  0  0  0  0
   71.6471   30.7195   -0.5952 C   0  0  0  0  0  0  0  0  0  0  0  0
   70.9655   32.9826   -1.0524 C   0  0  0  0  0  0  0  0  0  0  0  0
   64.7199   28.1971    6.2390 C   0  0  0  0  0  0  0  0  0  0  0  0
   62.4471   28.4352    5.4431 C   0  0  0  0  0  0  0  0  0  0  0  0
   70.3226   30.3186   -0.3936 C   0  0  0  0  0  0  0  0  0  0  0  0
   69.6358   32.5871   -0.8353 C   0  0  0  0  0  0  0  0  0  0  0  0
   65.1996   28.2386    4.9355 C   0  0  0  0  0  0  0  0  0  0  0  0
   62.9187   28.4852    4.1247 C   0  0  0  0  0  0  0  0  0  0  0  0
   64.3616   28.1749    0.0955 C   0  0  0  0  0  0  0  0  0  0  0  0
   63.9608   28.0478    1.4104 C   0  0  0  0  0  0  0  0  0  0  0  0
   66.0065   29.1068    2.1619 C   0  0  0  0  0  0  0  0  0  0  0  0
   67.8829   30.8597   -0.2700 C   0  0  0  0  0  0  0  0  0  0  0  0
   65.5903   28.7682   -0.2123 C   0  0  0  0  0  0  0  0  0  0  0  0
   66.4083   29.2415    0.8328 C   0  0  0  0  0  0  0  0  0  0  0  0
   69.3036   31.2672   -0.4990 C   0  0  0  0  0  0  0  0  0  0  0  0
   64.2973   28.3707    3.8636 C   0  0  0  0  0  0  0  0  0  0  0  0
   64.7692   28.4919    2.4558 C   0  0  0  0  0  0  0  0  0  0  0  0
   66.8142   29.3298   -1.8188 H   0  0  0  0  0  0  0  0  0  0  0  0
   65.3191   28.5889   -2.2831 H   0  0  0  0  0  0  0  0  0  0  0  0
   68.4643   29.3686    0.9478 H   0  0  0  0  0  0  0  0  0  0  0  0
   72.9269   32.2828   -1.0844 H   0  0  0  0  0  0  0  0  0  0  0  0
   63.0098   28.2131    7.4415 H   0  0  0  0  0  0  0  0  0  0  0  0
   72.3798   30.0463   -0.4952 H   0  0  0  0  0  0  0  0  0  0  0  0
   71.1849   33.9290   -1.2893 H   0  0  0  0  0  0  0  0  0  0  0  0
   65.3637   28.1114    6.9993 H   0  0  0  0  0  0  0  0  0  0  0  0
   61.4674   28.5151    5.6269 H   0  0  0  0  0  0  0  0  0  0  0  0
   70.1084   29.3661   -0.1770 H   0  0  0  0  0  0  0  0  0  0  0  0
   68.9060   33.2652   -0.9228 H   0  0  0  0  0  0  0  0  0  0  0  0
   66.1820   28.1750    4.7598 H   0  0  0  0  0  0  0  0  0  0  0  0
   62.2752   28.6024    3.3683 H   0  0  0  0  0  0  0  0  0  0  0  0
   63.7714   27.8416   -0.6396 H   0  0  0  0  0  0  0  0  0  0  0  0
   63.0758   27.6302    1.6164 H   0  0  0  0  0  0  0  0  0  0  0  0
   66.5901   29.4430    2.9011 H   0  0  0  0  0  0  0  0  0  0  0  0
  1 17  2  0  0  0  0
  2 18  1  0  0  0  0
  3 17  1  0  0  0  0
  3 19  1  0  0  0  0
  4  6  2  0  0  0  0
  4  7  1  0  0  0  0
  5  8  2  0  0  0  0
  5  9  1  0  0  0  0
  6 10  1  0  0  0  0
  7 11  2  0  0  0  0
  8 12  1  0  0  0  0
  9 13  2  0  0  0  0
 10 20  2  0  0  0  0
 11 20  1  0  0  0  0
 12 21  2  0  0  0  0
 13 21  1  0  0  0  0
 14 15  1  0  0  0  0
 14 18  2  0  0  0  0
 15 22  2  0  0  0  0
 16 19  2  0  0  0  0
 16 22  1  0  0  0  0
 17 20  1  0  0  0  0
 18 19  1  0  0  0  0
 21 22  1  0  0  0  0
  2 23  1  0  0  0  0
  2 24  1  0  0  0  0
  3 25  1  0  0  0  0
  4 26  1  0  0  0  0
  5 27  1  0  0  0  0
  6 28  1  0  0  0  0
  7 29  1  0  0  0  0
  8 30  1  0  0  0  0
  9 31  1  0  0  0  0
 10 32  1  0  0  0  0
 11 33  1  0  0  0  0
 12 34  1  0  0  0  0
 13 35  1  0  0  0  0
 14 36  1  0  0  0  0
 15 37  1  0  0  0  0
 16 38  1  0  0  0  0
M  END
> <pdb_id>
3MAX

> <uniprot_id>
Q92769

> <usmiles>
O=C(Nc1c(N)ccc(c2ccccc2)c1)c3ccccc3

$$$$
LMS_A_302
          07192416293D 1   1.00000     0.00000     0
            
 37 39  0  0  0  0            999 V2000
   -5.5731    0.8771   16.9470 S   0  0  0  0  0  0  0  0  0  0  0  0
   -5.3560    0.9175   18.3460 O   0  0  0  0  0  0  0  0  0  0  0  0
   -6.7826    1.3870   16.4228 O   0  0  0  0  0  0  0  0  0  0  0  0
   -6.3810    5.4869   13.2836 O   0  0  0  0  0  0  0  0  0  0  0  0
   -6.0502    2.9122   12.5851 O   0  0  0  0  0  0  0  0  0  0  0  0
   -4.3716    1.8208   16.4641 O   0  0  0  0  0  0  0  0  0  0  0  0
   -3.9278    4.4199   15.0519 O   0  0  0  0  0  0  0  0  0  0  0  0
   -5.2834   -0.5323   16.3241 N   0  0  0  0  0  0  0  0  0  0  0  0
    0.9858    8.5807   13.1800 N   0  0  0  0  0  0  0  0  0  0  0  0
   -0.6484    9.2882   14.6602 N   0  0  0  0  0  0  0  0  0  0  0  0
   -2.6876    8.0817   15.0798 N   0  0  0  0  0  0  0  0  0  0  0  0
   -0.8658    6.1683   12.6877 N   0  0  0  0  0  0  0  0  0  0  0  0
   -2.8046    6.0497   13.7763 N   0  0  0  0  0  0  0  0  0  0  0  0
   -4.2183    2.0569   15.0551 C   0  0  0  0  0  0  0  0  0  0  0  0
   -1.8329    9.0882   15.2406 C   0  0  0  0  0  0  0  0  0  0  0  0
   -1.9430    5.4700   12.8976 C   0  0  0  0  0  0  0  0  0  0  0  0
   -5.0362    5.0778   13.0532 C   0  0  2  0  0  0  0  0  0  0  0  0
   -4.9118    3.5774   13.1610 C   0  0  1  0  0  0  0  0  0  0  0  0
   -4.1184    5.5402   14.1924 C   0  0  1  0  0  0  0  0  0  0  0  0
   -0.2328    8.3932   13.7845 C   0  0  0  0  0  0  0  0  0  0  0  0
   -4.8135    3.3933   14.6450 C   0  0  2  0  0  0  0  0  0  0  0  0
   -2.2112    7.2144   14.1851 C   0  0  0  0  0  0  0  0  0  0  0  0
   -1.0185    7.2790   13.5061 C   0  0  0  0  0  0  0  0  0  0  0  0
   -6.4441    6.4821   13.2083 H   0  0  0  0  0  0  0  0  0  0  0  0
   -5.9373    1.9225   12.6723 H   0  0  0  0  0  0  0  0  0  0  0  0
   -5.4525   -0.5025   15.3389 H   0  0  0  0  0  0  0  0  0  0  0  0
   -4.3293   -0.7808   16.4911 H   0  0  0  0  0  0  0  0  0  0  0  0
    1.3208    7.9151   12.5131 H   0  0  0  0  0  0  0  0  0  0  0  0
    1.5383    9.3828   13.4067 H   0  0  0  0  0  0  0  0  0  0  0  0
   -4.6808    1.3273   14.5514 H   0  0  0  0  0  0  0  0  0  0  0  0
   -3.2442    2.0523   14.8291 H   0  0  0  0  0  0  0  0  0  0  0  0
   -2.1186    9.7947   15.8880 H   0  0  0  0  0  0  0  0  0  0  0  0
   -2.1208    4.5909   12.4553 H   0  0  0  0  0  0  0  0  0  0  0  0
   -4.7059    5.4049   12.1678 H   0  0  0  0  0  0  0  0  0  0  0  0
   -4.0704    3.2679   12.7181 H   0  0  0  0  0  0  0  0  0  0  0  0
   -4.5883    6.2577   14.7065 H   0  0  0  0  0  0  0  0  0  0  0  0
   -5.7097    3.5193   15.0705 H   0  0  0  0  0  0  0  0  0  0  0  0
  1  2  2  0  0  0  0
  1  3  2  0  0  0  0
  1  6  1  0  0  0  0
  1  8  1  0  0  0  0
  4 17  1  0  0  0  0
  5 18  1  0  0  0  0
  6 14  1  0  0  0  0
  7 19  1  0  0  0  0
  7 21  1  0  0  0  0
  9 20  1  0  0  0  0
 10 15  1  0  0  0  0
 10 20  2  0  0  0  0
 11 15  2  0  0  0  0
 11 22  1  0  0  0  0
 12 16  2  0  0  0  0
 12 23  1  0  0  0  0
 13 16  1  0  0  0  0
 13 19  1  0  0  0  0
 13 22  1  0  0  0  0
 14 21  1  0  0  0  0
 17 18  1  0  0  0  0
 17 19  1  0  0  0  0
 18 21  1  0  0  0  0
 20 23  1  0  0  0  0
 22 23  2  0  0  0  0
  4 24  1  0  0  0  0
  5 25  1  0  0  0  0
  8 26  1  0  0  0  0
  8 27  1  0  0  0  0
  9 28  1  0  0  0  0
  9 29  1  0  0  0  0
 14 30  1  0  0  0  0
 14 31  1  0  0  0  0
 15 32  1  0  0  0  0
 16 33  1  0  0  0  0
 17 34  1  0  0  0  0
 18 35  1  0  0  0  0
 19 36  1  0  0  0  0
 21 37  1  0  0  0  0
M  END
> <pdb_id>
6C7W

> <uniprot_id>
P00918

> <usmiles>
S(=O)(=O)(OC[C@H]1O[C@@H](N2c3ncnc(N)c3N=C2)[C@H](O)[C@@H]1O)N

$$$$
LNV_A_511
          07202417413D 1   1.00000     0.00000     0
            
 48 48  0  0  0  0            999 V2000
  159.9597  -40.6373  207.4121 O   0  0  0  0  0  0  0  0  0  0  0  0
  159.5396  -48.4792  204.0438 O   0  0  0  0  0  0  0  0  0  0  0  0
  160.9459  -46.9543  204.6054 O   0  0  0  0  0  0  0  0  0  0  0  0
  154.6118  -43.4844  206.5362 O   0  0  0  0  0  0  0  0  0  0  0  0
  160.6123  -43.3350  207.9060 O   0  0  0  0  0  0  0  0  0  0  0  0
  158.4187  -42.8859  205.2309 O   0  0  0  0  0  0  0  0  0  0  0  0
  159.2760  -45.4965  205.9612 O   0  0  0  0  0  0  0  0  0  0  0  0
  154.6360  -46.7875  208.7523 N   0  0  0  0  0  0  0  0  0  0  0  0
  153.1659  -46.9931  207.1185 N   0  0  0  0  0  0  0  0  0  0  0  0
  156.2017  -44.2949  207.8055 N   0  0  0  0  0  0  0  0  0  0  0  0
  155.2765  -46.8518  206.4744 N   0  0  0  0  0  0  0  0  0  0  0  0
  157.3863  -42.0487  205.0957 C   0  0  0  0  0  0  0  0  0  0  0  0
  154.3877  -43.0529  208.8257 C   0  0  0  0  0  0  0  0  0  0  0  0
  160.5034  -41.4673  206.4957 C   0  0  0  0  0  0  0  0  0  0  0  0
  157.6775  -47.3239  205.9074 C   0  0  0  0  0  0  0  0  0  0  0  0
  159.8589  -47.3466  204.6230 C   0  0  0  0  0  0  0  0  0  0  0  0
  154.9986  -43.6527  207.6146 C   0  0  0  0  0  0  0  0  0  0  0  0
  154.3544  -46.8581  207.5015 C   0  0  0  0  0  0  0  0  0  0  0  0
  160.2740  -42.9509  206.6967 C   0  0  2  0  0  0  0  0  0  0  0  0
  158.7983  -46.5478  205.2725 C   0  0  2  0  0  0  0  0  0  0  0  0
  158.7979  -43.2442  206.4396 C   0  0  2  0  0  0  0  0  0  0  0  0
  158.4543  -44.6571  206.6821 C   0  0  1  0  0  0  0  0  0  0  0  0
  156.6436  -46.5281  206.6790 C   0  0  1  0  0  0  0  0  0  0  0  0
  156.9451  -45.0201  206.8446 C   0  0  1  0  0  0  0  0  0  0  0  0
  160.1772  -39.6905  207.1751 H   0  0  0  0  0  0  0  0  0  0  0  0
  158.5943  -48.8043  204.0683 H   0  0  0  0  0  0  0  0  0  0  0  0
  160.4479  -44.3167  208.0022 H   0  0  0  0  0  0  0  0  0  0  0  0
  155.5859  -46.6800  209.0456 H   0  0  0  0  0  0  0  0  0  0  0  0
  153.9054  -46.8402  209.4330 H   0  0  0  0  0  0  0  0  0  0  0  0
  152.9583  -47.0469  206.1418 H   0  0  0  0  0  0  0  0  0  0  0  0
  152.4271  -47.0469  207.7904 H   0  0  0  0  0  0  0  0  0  0  0  0
  156.5930  -44.2429  208.7243 H   0  0  0  0  0  0  0  0  0  0  0  0
  157.2231  -41.8748  204.1245 H   0  0  0  0  0  0  0  0  0  0  0  0
  156.5697  -42.4580  205.5028 H   0  0  0  0  0  0  0  0  0  0  0  0
  157.5932  -41.1868  205.5585 H   0  0  0  0  0  0  0  0  0  0  0  0
  154.8971  -43.3446  209.6353 H   0  0  0  0  0  0  0  0  0  0  0  0
  154.4169  -42.0558  208.7549 H   0  0  0  0  0  0  0  0  0  0  0  0
  153.4372  -43.3538  208.9036 H   0  0  0  0  0  0  0  0  0  0  0  0
  161.4912  -41.3113  206.4948 H   0  0  0  0  0  0  0  0  0  0  0  0
  160.1262  -41.2210  205.6030 H   0  0  0  0  0  0  0  0  0  0  0  0
  158.0860  -47.9819  206.5399 H   0  0  0  0  0  0  0  0  0  0  0  0
  157.1992  -47.8145  205.1790 H   0  0  0  0  0  0  0  0  0  0  0  0
  160.8242  -43.4558  206.0316 H   0  0  0  0  0  0  0  0  0  0  0  0
  158.3471  -46.1112  204.4941 H   0  0  0  0  0  0  0  0  0  0  0  0
  158.2706  -42.6964  207.0890 H   0  0  0  0  0  0  0  0  0  0  0  0
  158.7954  -44.7909  207.6126 H   0  0  0  0  0  0  0  0  0  0  0  0
  156.7896  -46.8630  207.6099 H   0  0  0  0  0  0  0  0  0  0  0  0
  156.5672  -44.6544  205.9940 H   0  0  0  0  0  0  0  0  0  0  0  0
  1 14  1  0  0  0  0
  2 16  1  0  0  0  0
  3 16  2  0  0  0  0
  4 17  2  0  0  0  0
  5 19  1  0  0  0  0
  6 12  1  0  0  0  0
  6 21  1  0  0  0  0
  7 20  1  0  0  0  0
  7 22  1  0  0  0  0
  8 18  1  0  0  0  0
  9 18  1  0  0  0  0
 10 17  1  0  0  0  0
 10 24  1  0  0  0  0
 11 18  2  0  0  0  0
 11 23  1  0  0  0  0
 13 17  1  0  0  0  0
 14 19  1  0  0  0  0
 15 20  1  0  0  0  0
 15 23  1  0  0  0  0
 16 20  1  0  0  0  0
 19 21  1  0  0  0  0
 21 22  1  0  0  0  0
 22 24  1  0  0  0  0
 23 24  1  0  0  0  0
  1 25  1  0  0  0  0
  2 26  1  0  0  0  0
  5 27  1  0  0  0  0
  8 28  1  0  0  0  0
  8 29  1  0  0  0  0
  9 30  1  0  0  0  0
  9 31  1  0  0  0  0
 10 32  1  0  0  0  0
 12 33  1  0  0  0  0
 12 34  1  0  0  0  0
 12 35  1  0  0  0  0
 13 36  1  0  0  0  0
 13 37  1  0  0  0  0
 13 38  1  0  0  0  0
 14 39  1  0  0  0  0
 14 40  1  0  0  0  0
 15 41  1  0  0  0  0
 15 42  1  0  0  0  0
 19 43  1  0  0  0  0
 20 44  1  0  0  0  0
 21 45  1  0  0  0  0
 22 46  1  0  0  0  0
 23 47  1  0  0  0  0
 24 48  1  0  0  0  0
M  END
> <pdb_id>
4QN6

> <uniprot_id>
Q2FCL6

> <usmiles>
O=C(O)[C@@H]1O[C@@H]([C@H](OC)[C@H](O)CO)[C@H](NC(=O)C)[C@@H](N=C(N)N)C1

$$$$
LNV_A_513
          07202416543D 1   1.00000     0.00000     0
            
 48 48  0  0  0  0            999 V2000
   61.7420   19.1140  -30.5470 O   0  0  0  0  0  0  0  0  0  0  0  0
   65.1450   19.4520  -22.6420 O   0  0  0  0  0  0  0  0  0  0  0  0
   64.8020   20.7000  -24.4060 O   0  0  0  0  0  0  0  0  0  0  0  0
   62.7720   14.0080  -27.2120 O   0  0  0  0  0  0  0  0  0  0  0  0
   61.2600   20.0480  -27.8390 O   0  0  0  0  0  0  0  0  0  0  0  0
   63.9770   17.6940  -28.2000 O   0  0  0  0  0  0  0  0  0  0  0  0
   63.6580   18.7200  -25.7560 O   0  0  0  0  0  0  0  0  0  0  0  0
   60.5070   14.3540  -23.8890 N   0  0  0  0  0  0  0  0  0  0  0  0
   62.1020   12.8050  -23.5660 N   0  0  0  0  0  0  0  0  0  0  0  0
   61.4150   15.7300  -26.4810 N   0  0  0  0  0  0  0  0  0  0  0  0
   62.7820   15.0230  -24.0680 N   0  0  0  0  0  0  0  0  0  0  0  0
   64.1380   16.6470  -29.1130 C   0  0  0  0  0  0  0  0  0  0  0  0
   60.4510   13.7420  -27.6530 C   0  0  0  0  0  0  0  0  0  0  0  0
   62.6530   19.7700  -29.7290 C   0  0  0  0  0  0  0  0  0  0  0  0
   63.6360   17.2400  -23.7770 C   0  0  0  0  0  0  0  0  0  0  0  0
   64.6050   19.6350  -23.7610 C   0  0  0  0  0  0  0  0  0  0  0  0
   61.6400   14.4680  -27.1150 C   0  0  0  0  0  0  0  0  0  0  0  0
   61.7780   14.0340  -23.8340 C   0  0  0  0  0  0  0  0  0  0  0  0
   62.4990   19.5690  -28.2320 C   0  0  2  0  0  0  0  0  0  0  0  0
   63.6720   18.6520  -24.3430 C   0  0  1  0  0  0  0  0  0  0  0  0
   62.6860   18.0960  -27.8330 C   0  0  2  0  0  0  0  0  0  0  0  0
   62.5400   17.9350  -26.3780 C   0  0  1  0  0  0  0  0  0  0  0  0
   62.5590   16.4400  -24.4250 C   0  0  1  0  0  0  0  0  0  0  0  0
   62.5440   16.5160  -25.9060 C   0  0  1  0  0  0  0  0  0  0  0  0
   61.9435   19.3218  -31.5042 H   0  0  0  0  0  0  0  0  0  0  0  0
   64.9806   18.6027  -22.1404 H   0  0  0  0  0  0  0  0  0  0  0  0
   61.1502   19.9194  -26.8534 H   0  0  0  0  0  0  0  0  0  0  0  0
   60.2367   15.2947  -24.0939 H   0  0  0  0  0  0  0  0  0  0  0  0
   59.8085   13.6572  -23.7261 H   0  0  0  0  0  0  0  0  0  0  0  0
   63.0653   12.5406  -23.5195 H   0  0  0  0  0  0  0  0  0  0  0  0
   60.4845   16.0915  -26.4223 H   0  0  0  0  0  0  0  0  0  0  0  0
   63.7330   14.7263  -23.9814 H   0  0  0  0  0  0  0  0  0  0  0  0
   65.1129   16.4855  -29.2665 H   0  0  0  0  0  0  0  0  0  0  0  0
   63.7164   15.8175  -28.7467 H   0  0  0  0  0  0  0  0  0  0  0  0
   63.6999   16.8893  -29.9787 H   0  0  0  0  0  0  0  0  0  0  0  0
   59.6253   14.2777  -27.4763 H   0  0  0  0  0  0  0  0  0  0  0  0
   60.5585   13.6105  -28.6385 H   0  0  0  0  0  0  0  0  0  0  0  0
   60.3730   12.8516  -27.2045 H   0  0  0  0  0  0  0  0  0  0  0  0
   62.5730   20.7498  -29.9123 H   0  0  0  0  0  0  0  0  0  0  0  0
   63.5680   19.4569  -29.9835 H   0  0  0  0  0  0  0  0  0  0  0  0
   63.4644   17.2851  -22.7929 H   0  0  0  0  0  0  0  0  0  0  0  0
   64.5177   16.7978  -23.9417 H   0  0  0  0  0  0  0  0  0  0  0  0
   63.2029   20.1090  -27.7706 H   0  0  0  0  0  0  0  0  0  0  0  0
   62.7756   19.0174  -24.0919 H   0  0  0  0  0  0  0  0  0  0  0  0
   62.0096   17.5302  -28.3046 H   0  0  0  0  0  0  0  0  0  0  0  0
   61.6742   18.3531  -26.1029 H   0  0  0  0  0  0  0  0  0  0  0  0
   61.6712   16.7337  -24.0706 H   0  0  0  0  0  0  0  0  0  0  0  0
   63.3919   16.0981  -26.2323 H   0  0  0  0  0  0  0  0  0  0  0  0
  1 14  1  0  0  0  0
  2 16  1  0  0  0  0
  3 16  2  0  0  0  0
  4 17  2  0  0  0  0
  5 19  1  0  0  0  0
  6 12  1  0  0  0  0
  6 21  1  0  0  0  0
  7 20  1  0  0  0  0
  7 22  1  0  0  0  0
  8 18  1  0  0  0  0
  9 18  2  0  0  0  0
 10 17  1  0  0  0  0
 10 24  1  0  0  0  0
 11 18  1  0  0  0  0
 11 23  1  0  0  0  0
 13 17  1  0  0  0  0
 14 19  1  0  0  0  0
 15 20  1  0  0  0  0
 15 23  1  0  0  0  0
 16 20  1  0  0  0  0
 19 21  1  0  0  0  0
 21 22  1  0  0  0  0
 22 24  1  0  0  0  0
 23 24  1  0  0  0  0
  1 25  1  0  0  0  0
  2 26  1  0  0  0  0
  5 27  1  0  0  0  0
  8 28  1  0  0  0  0
  8 29  1  0  0  0  0
  9 30  1  0  0  0  0
 10 31  1  0  0  0  0
 11 32  1  0  0  0  0
 12 33  1  0  0  0  0
 12 34  1  0  0  0  0
 12 35  1  0  0  0  0
 13 36  1  0  0  0  0
 13 37  1  0  0  0  0
 13 38  1  0  0  0  0
 14 39  1  0  0  0  0
 14 40  1  0  0  0  0
 15 41  1  0  0  0  0
 15 42  1  0  0  0  0
 19 43  1  0  0  0  0
 20 44  1  0  0  0  0
 21 45  1  0  0  0  0
 22 46  1  0  0  0  0
 23 47  1  0  0  0  0
 24 48  1  0  0  0  0
M  END
> <pdb_id>
4MWU

> <uniprot_id>
nan

> <usmiles>
O=C(O)[C@H]1O[C@@H]([C@H](OC)[C@H](O)CO)[C@H](NC(=O)C)[C@@H](NC(=N)N)C1

$$$$
LNV_A_801
          07202402463D 1   1.00000     0.00000     0
            
 48 48  0  0  0  0            999 V2000
   70.2984   15.2975    4.5866 O   0  0  0  0  0  0  0  0  0  0  0  0
   63.9040   12.0703   -0.4528 O   0  0  0  0  0  0  0  0  0  0  0  0
   64.4079   12.6021    1.7078 O   0  0  0  0  0  0  0  0  0  0  0  0
   71.0200   14.3579   -1.4959 O   0  0  0  0  0  0  0  0  0  0  0  0
   67.6257   16.0495    3.5293 O   0  0  0  0  0  0  0  0  0  0  0  0
   69.3207   13.2654    1.9469 O   0  0  0  0  0  0  0  0  0  0  0  0
   66.6511   13.8618    1.1913 O   0  0  0  0  0  0  0  0  0  0  0  0
   69.2126   15.1031   -4.8446 N   0  0  0  0  0  0  0  0  0  0  0  0
   68.4819   16.7598   -3.4254 N   0  0  0  0  0  0  0  0  0  0  0  0
   69.4380   15.8168   -0.5984 N   0  0  0  0  0  0  0  0  0  0  0  0
   67.9350   14.4437   -2.9850 N   0  0  0  0  0  0  0  0  0  0  0  0
   70.6975   13.1057    1.9042 C   0  0  0  0  0  0  0  0  0  0  0  0
   71.6010   16.6633   -1.4132 C   0  0  0  0  0  0  0  0  0  0  0  0
   69.1490   14.4784    4.5542 C   0  0  0  0  0  0  0  0  0  0  0  0
   66.1177   13.8124   -1.3205 C   0  0  0  0  0  0  0  0  0  0  0  0
   64.6773   12.6682    0.5150 C   0  0  0  0  0  0  0  0  0  0  0  0
   70.6607   15.5106   -1.2737 C   0  0  0  0  0  0  0  0  0  0  0  0
   68.5812   15.4731   -3.7524 C   0  0  0  0  0  0  0  0  0  0  0  0
   68.1906   14.7941    3.4310 C   0  0  2  0  0  0  0  0  0  0  0  0
   65.9611   13.3031    0.1135 C   0  0  2  0  0  0  0  0  0  0  0  0
   68.7967   14.5279    2.0703 C   0  0  2  0  0  0  0  0  0  0  0  0
   67.8000   14.6588    0.9758 C   0  0  1  0  0  0  0  0  0  0  0  0
   67.3768   14.6167   -1.6648 C   0  0  1  0  0  0  0  0  0  0  0  0
   68.3042   14.9464   -0.4625 C   0  0  1  0  0  0  0  0  0  0  0  0
   70.8790   15.0268    5.3544 H   0  0  0  0  0  0  0  0  0  0  0  0
   64.1598   12.1488   -1.4163 H   0  0  0  0  0  0  0  0  0  0  0  0
   67.0041   16.1966    2.7598 H   0  0  0  0  0  0  0  0  0  0  0  0
   69.2801   14.1333   -5.0789 H   0  0  0  0  0  0  0  0  0  0  0  0
   69.6254   15.7915   -5.4411 H   0  0  0  0  0  0  0  0  0  0  0  0
   67.9989   17.0280   -2.5918 H   0  0  0  0  0  0  0  0  0  0  0  0
   69.3658   16.7227   -0.1812 H   0  0  0  0  0  0  0  0  0  0  0  0
   67.8665   13.5357   -3.3984 H   0  0  0  0  0  0  0  0  0  0  0  0
   70.9178   12.1346    1.8131 H   0  0  0  0  0  0  0  0  0  0  0  0
   71.0669   13.6062    1.1212 H   0  0  0  0  0  0  0  0  0  0  0  0
   71.1006   13.4613    2.7474 H   0  0  0  0  0  0  0  0  0  0  0  0
   71.1226   17.5126   -1.1900 H   0  0  0  0  0  0  0  0  0  0  0  0
   72.3726   16.5414   -0.7888 H   0  0  0  0  0  0  0  0  0  0  0  0
   71.9371   16.7073   -2.3539 H   0  0  0  0  0  0  0  0  0  0  0  0
   68.6622   14.5878    5.4208 H   0  0  0  0  0  0  0  0  0  0  0  0
   69.4446   13.5282    4.4555 H   0  0  0  0  0  0  0  0  0  0  0  0
   65.3294   14.3956   -1.5168 H   0  0  0  0  0  0  0  0  0  0  0  0
   66.1004   13.0146   -1.9231 H   0  0  0  0  0  0  0  0  0  0  0  0
   67.4351   14.1458    3.5256 H   0  0  0  0  0  0  0  0  0  0  0  0
   66.5037   12.4681    0.0219 H   0  0  0  0  0  0  0  0  0  0  0  0
   69.5283   15.1914    1.9138 H   0  0  0  0  0  0  0  0  0  0  0  0
   67.4230   15.5570    1.2018 H   0  0  0  0  0  0  0  0  0  0  0  0
   66.9578   15.5160   -1.7895 H   0  0  0  0  0  0  0  0  0  0  0  0
   68.8370   14.1033   -0.5344 H   0  0  0  0  0  0  0  0  0  0  0  0
  1 14  1  0  0  0  0
  2 16  1  0  0  0  0
  3 16  2  0  0  0  0
  4 17  2  0  0  0  0
  5 19  1  0  0  0  0
  6 12  1  0  0  0  0
  6 21  1  0  0  0  0
  7 20  1  0  0  0  0
  7 22  1  0  0  0  0
  8 18  1  0  0  0  0
  9 18  2  0  0  0  0
 10 17  1  0  0  0  0
 10 24  1  0  0  0  0
 11 18  1  0  0  0  0
 11 23  1  0  0  0  0
 13 17  1  0  0  0  0
 14 19  1  0  0  0  0
 15 20  1  0  0  0  0
 15 23  1  0  0  0  0
 16 20  1  0  0  0  0
 19 21  1  0  0  0  0
 21 22  1  0  0  0  0
 22 24  1  0  0  0  0
 23 24  1  0  0  0  0
  1 25  1  0  0  0  0
  2 26  1  0  0  0  0
  5 27  1  0  0  0  0
  8 28  1  0  0  0  0
  8 29  1  0  0  0  0
  9 30  1  0  0  0  0
 10 31  1  0  0  0  0
 11 32  1  0  0  0  0
 12 33  1  0  0  0  0
 12 34  1  0  0  0  0
 12 35  1  0  0  0  0
 13 36  1  0  0  0  0
 13 37  1  0  0  0  0
 13 38  1  0  0  0  0
 14 39  1  0  0  0  0
 14 40  1  0  0  0  0
 15 41  1  0  0  0  0
 15 42  1  0  0  0  0
 19 43  1  0  0  0  0
 20 44  1  0  0  0  0
 21 45  1  0  0  0  0
 22 46  1  0  0  0  0
 23 47  1  0  0  0  0
 24 48  1  0  0  0  0
M  END
> <pdb_id>
3TI3

> <uniprot_id>
C3W5S3

> <usmiles>
O=C(O)[C@@H]1O[C@@H]([C@H](OC)[C@H](O)CO)[C@H](NC(=O)C)[C@@H](NC(=N)N)C1

$$$$
LNV_A_901
          07202402463D 1   1.00000     0.00000     0
            
 48 48  0  0  0  0            999 V2000
   27.0140  -23.7160  -51.5580 O   0  0  0  0  0  0  0  0  0  0  0  0
   18.9860  -23.0460  -55.0440 O   0  0  0  0  0  0  0  0  0  0  0  0
   20.5340  -24.5860  -54.4980 O   0  0  0  0  0  0  0  0  0  0  0  0
   24.3660  -18.3370  -52.7880 O   0  0  0  0  0  0  0  0  0  0  0  0
   24.0700  -24.2820  -51.0350 O   0  0  0  0  0  0  0  0  0  0  0  0
   24.8350  -22.1760  -53.9020 O   0  0  0  0  0  0  0  0  0  0  0  0
   22.0870  -22.9530  -53.1080 O   0  0  0  0  0  0  0  0  0  0  0  0
   21.0770  -16.4930  -52.1190 N   0  0  0  0  0  0  0  0  0  0  0  0
   20.9930  -18.0970  -50.4590 N   0  0  0  0  0  0  0  0  0  0  0  0
   23.4660  -19.8650  -51.3000 N   0  0  0  0  0  0  0  0  0  0  0  0
   20.9880  -18.7400  -52.7820 N   0  0  0  0  0  0  0  0  0  0  0  0
   25.8990  -21.3040  -54.0700 C   0  0  0  0  0  0  0  0  0  0  0  0
   24.8620  -17.9790  -50.4810 C   0  0  0  0  0  0  0  0  0  0  0  0
   26.0920  -24.3940  -52.3760 C   0  0  0  0  0  0  0  0  0  0  0  0
   20.3500  -21.1210  -53.3690 C   0  0  0  0  0  0  0  0  0  0  0  0
   20.2320  -23.4100  -54.6070 C   0  0  0  0  0  0  0  0  0  0  0  0
   24.2190  -18.6990  -51.6250 C   0  0  0  0  0  0  0  0  0  0  0  0
   21.0730  -17.7540  -51.7450 C   0  0  0  0  0  0  0  0  0  0  0  0
   24.6500  -23.9580  -52.2490 C   0  0  2  0  0  0  0  0  0  0  0  0
   21.0230  -22.4130  -53.8270 C   0  0  2  0  0  0  0  0  0  0  0  0
   24.4430  -22.5050  -52.6270 C   0  0  2  0  0  0  0  0  0  0  0  0
   23.0120  -22.1040  -52.4560 C   0  0  1  0  0  0  0  0  0  0  0  0
   21.2170  -20.1380  -52.5740 C   0  0  1  0  0  0  0  0  0  0  0  0
   22.6590  -20.6070  -52.2260 C   0  0  1  0  0  0  0  0  0  0  0  0
   27.9319  -24.0787  -51.7188 H   0  0  0  0  0  0  0  0  0  0  0  0
   18.7491  -22.0782  -55.1296 H   0  0  0  0  0  0  0  0  0  0  0  0
   23.1218  -23.9645  -51.0233 H   0  0  0  0  0  0  0  0  0  0  0  0
   21.1378  -16.2595  -53.0895 H   0  0  0  0  0  0  0  0  0  0  0  0
   21.0193  -15.7678  -51.4329 H   0  0  0  0  0  0  0  0  0  0  0  0
   20.9916  -19.0624  -50.1982 H   0  0  0  0  0  0  0  0  0  0  0  0
   23.5029  -20.1905  -50.3552 H   0  0  0  0  0  0  0  0  0  0  0  0
   20.7551  -18.4335  -53.7049 H   0  0  0  0  0  0  0  0  0  0  0  0
   26.0635  -21.1631  -55.0463 H   0  0  0  0  0  0  0  0  0  0  0  0
   25.6834  -20.4280  -53.6385 H   0  0  0  0  0  0  0  0  0  0  0  0
   26.7178  -21.6917  -53.6465 H   0  0  0  0  0  0  0  0  0  0  0  0
   24.6180  -18.4312  -49.6231 H   0  0  0  0  0  0  0  0  0  0  0  0
   25.8554  -17.9930  -50.5944 H   0  0  0  0  0  0  0  0  0  0  0  0
   24.5421  -17.0318  -50.4612 H   0  0  0  0  0  0  0  0  0  0  0  0
   26.1389  -25.3668  -52.1492 H   0  0  0  0  0  0  0  0  0  0  0  0
   26.3699  -24.2597  -53.3272 H   0  0  0  0  0  0  0  0  0  0  0  0
   19.5715  -21.3722  -52.7938 H   0  0  0  0  0  0  0  0  0  0  0  0
   20.0218  -20.6446  -54.1847 H   0  0  0  0  0  0  0  0  0  0  0  0
   24.1493  -24.4867  -52.9344 H   0  0  0  0  0  0  0  0  0  0  0  0
   21.5500  -22.0315  -54.5864 H   0  0  0  0  0  0  0  0  0  0  0  0
   24.9859  -21.9516  -51.9953 H   0  0  0  0  0  0  0  0  0  0  0  0
   22.8783  -22.4318  -51.5208 H   0  0  0  0  0  0  0  0  0  0  0  0
   20.7925  -20.2392  -51.6742 H   0  0  0  0  0  0  0  0  0  0  0  0
   23.0937  -20.2600  -53.0571 H   0  0  0  0  0  0  0  0  0  0  0  0
  1 14  1  0  0  0  0
  2 16  1  0  0  0  0
  3 16  2  0  0  0  0
  4 17  2  0  0  0  0
  5 19  1  0  0  0  0
  6 12  1  0  0  0  0
  6 21  1  0  0  0  0
  7 20  1  0  0  0  0
  7 22  1  0  0  0  0
  8 18  1  0  0  0  0
  9 18  2  0  0  0  0
 10 17  1  0  0  0  0
 10 24  1  0  0  0  0
 11 18  1  0  0  0  0
 11 23  1  0  0  0  0
 13 17  1  0  0  0  0
 14 19  1  0  0  0  0
 15 20  1  0  0  0  0
 15 23  1  0  0  0  0
 16 20  1  0  0  0  0
 19 21  1  0  0  0  0
 21 22  1  0  0  0  0
 22 24  1  0  0  0  0
 23 24  1  0  0  0  0
  1 25  1  0  0  0  0
  2 26  1  0  0  0  0
  5 27  1  0  0  0  0
  8 28  1  0  0  0  0
  8 29  1  0  0  0  0
  9 30  1  0  0  0  0
 10 31  1  0  0  0  0
 11 32  1  0  0  0  0
 12 33  1  0  0  0  0
 12 34  1  0  0  0  0
 12 35  1  0  0  0  0
 13 36  1  0  0  0  0
 13 37  1  0  0  0  0
 13 38  1  0  0  0  0
 14 39  1  0  0  0  0
 14 40  1  0  0  0  0
 15 41  1  0  0  0  0
 15 42  1  0  0  0  0
 19 43  1  0  0  0  0
 20 44  1  0  0  0  0
 21 45  1  0  0  0  0
 22 46  1  0  0  0  0
 23 47  1  0  0  0  0
 24 48  1  0  0  0  0
M  END
> <pdb_id>
3TI8

> <uniprot_id>
A1ILL9

> <usmiles>
O=C(O)[C@@H]1O[C@@H]([C@H](OC)[C@H](O)CO)[C@H](NC(=O)C)[C@@H](NC(=N)N)C1

$$$$
LNV_B_511
          07202417413D 1   1.00000     0.00000     0
            
 48 48  0  0  0  0            999 V2000
  160.0750  -40.6520  207.3050 O   0  0  0  0  0  0  0  0  0  0  0  0
  160.9320  -46.9760  204.5050 O   0  0  0  0  0  0  0  0  0  0  0  0
  159.4850  -48.5410  204.0930 O   0  0  0  0  0  0  0  0  0  0  0  0
  154.5490  -43.4670  206.4990 O   0  0  0  0  0  0  0  0  0  0  0  0
  160.5800  -43.3530  207.9320 O   0  0  0  0  0  0  0  0  0  0  0  0
  158.3700  -42.8410  205.1930 O   0  0  0  0  0  0  0  0  0  0  0  0
  159.2070  -45.4600  205.9180 O   0  0  0  0  0  0  0  0  0  0  0  0
  153.1700  -47.0330  207.0960 N   0  0  0  0  0  0  0  0  0  0  0  0
  154.6380  -46.6790  208.6700 N   0  0  0  0  0  0  0  0  0  0  0  0
  156.2160  -44.2410  207.7950 N   0  0  0  0  0  0  0  0  0  0  0  0
  155.2640  -46.8050  206.4190 N   0  0  0  0  0  0  0  0  0  0  0  0
  157.3520  -42.0090  205.0740 C   0  0  0  0  0  0  0  0  0  0  0  0
  154.4650  -42.9870  208.8070 C   0  0  0  0  0  0  0  0  0  0  0  0
  160.5070  -41.5180  206.3700 C   0  0  0  0  0  0  0  0  0  0  0  0
  157.6440  -47.2930  205.8530 C   0  0  0  0  0  0  0  0  0  0  0  0
  159.8380  -47.3570  204.5710 C   0  0  0  0  0  0  0  0  0  0  0  0
  155.0570  -43.5300  207.5610 C   0  0  0  0  0  0  0  0  0  0  0  0
  154.3430  -46.7310  207.4280 C   0  0  0  0  0  0  0  0  0  0  0  0
  160.1790  -42.9290  206.7230 C   0  0  2  0  0  0  0  0  0  0  0  0
  158.7740  -46.5270  205.2170 C   0  0  2  0  0  0  0  0  0  0  0  0
  158.7230  -43.1960  206.4240 C   0  0  2  0  0  0  0  0  0  0  0  0
  158.3880  -44.6170  206.6440 C   0  0  1  0  0  0  0  0  0  0  0  0
  156.6130  -46.5050  206.6610 C   0  0  1  0  0  0  0  0  0  0  0  0
  156.9150  -44.9920  206.8380 C   0  0  1  0  0  0  0  0  0  0  0  0
  160.3136  -39.7201  207.0319 H   0  0  0  0  0  0  0  0  0  0  0  0
  161.1718  -46.0780  204.8738 H   0  0  0  0  0  0  0  0  0  0  0  0
  160.3073  -44.3068  208.0581 H   0  0  0  0  0  0  0  0  0  0  0  0
  152.9202  -47.0788  206.1288 H   0  0  0  0  0  0  0  0  0  0  0  0
  152.4858  -47.2277  207.7989 H   0  0  0  0  0  0  0  0  0  0  0  0
  155.5667  -46.4403  208.9538 H   0  0  0  0  0  0  0  0  0  0  0  0
  156.5884  -44.2193  208.7228 H   0  0  0  0  0  0  0  0  0  0  0  0
  154.9732  -47.0752  205.5012 H   0  0  0  0  0  0  0  0  0  0  0  0
  157.1867  -41.8209  204.1059 H   0  0  0  0  0  0  0  0  0  0  0  0
  156.5354  -42.4216  205.4776 H   0  0  0  0  0  0  0  0  0  0  0  0
  157.5628  -41.1543  205.5484 H   0  0  0  0  0  0  0  0  0  0  0  0
  155.0826  -43.1628  209.5736 H   0  0  0  0  0  0  0  0  0  0  0  0
  154.3276  -42.0014  208.7088 H   0  0  0  0  0  0  0  0  0  0  0  0
  153.5855  -43.4306  208.9790 H   0  0  0  0  0  0  0  0  0  0  0  0
  161.4991  -41.4294  206.2814 H   0  0  0  0  0  0  0  0  0  0  0  0
  160.0731  -41.2941  205.4973 H   0  0  0  0  0  0  0  0  0  0  0  0
  158.0508  -47.9689  206.4675 H   0  0  0  0  0  0  0  0  0  0  0  0
  157.1523  -47.7625  205.1196 H   0  0  0  0  0  0  0  0  0  0  0  0
  160.6875  -43.4877  206.0678 H   0  0  0  0  0  0  0  0  0  0  0  0
  158.3278  -46.1002  204.4304 H   0  0  0  0  0  0  0  0  0  0  0  0
  158.1781  -42.6538  207.0636 H   0  0  0  0  0  0  0  0  0  0  0  0
  158.7433  -44.7556  207.5684 H   0  0  0  0  0  0  0  0  0  0  0  0
  156.7488  -46.8602  207.5859 H   0  0  0  0  0  0  0  0  0  0  0  0
  156.5205  -44.6267  205.9948 H   0  0  0  0  0  0  0  0  0  0  0  0
  1 14  1  0  0  0  0
  2 16  1  0  0  0  0
  3 16  2  0  0  0  0
  4 17  2  0  0  0  0
  5 19  1  0  0  0  0
  6 12  1  0  0  0  0
  6 21  1  0  0  0  0
  7 20  1  0  0  0  0
  7 22  1  0  0  0  0
  8 18  1  0  0  0  0
  9 18  2  0  0  0  0
 10 17  1  0  0  0  0
 10 24  1  0  0  0  0
 11 18  1  0  0  0  0
 11 23  1  0  0  0  0
 13 17  1  0  0  0  0
 14 19  1  0  0  0  0
 15 20  1  0  0  0  0
 15 23  1  0  0  0  0
 16 20  1  0  0  0  0
 19 21  1  0  0  0  0
 21 22  1  0  0  0  0
 22 24  1  0  0  0  0
 23 24  1  0  0  0  0
  1 25  1  0  0  0  0
  2 26  1  0  0  0  0
  5 27  1  0  0  0  0
  8 28  1  0  0  0  0
  8 29  1  0  0  0  0
  9 30  1  0  0  0  0
 10 31  1  0  0  0  0
 11 32  1  0  0  0  0
 12 33  1  0  0  0  0
 12 34  1  0  0  0  0
 12 35  1  0  0  0  0
 13 36  1  0  0  0  0
 13 37  1  0  0  0  0
 13 38  1  0  0  0  0
 14 39  1  0  0  0  0
 14 40  1  0  0  0  0
 15 41  1  0  0  0  0
 15 42  1  0  0  0  0
 19 43  1  0  0  0  0
 20 44  1  0  0  0  0
 21 45  1  0  0  0  0
 22 46  1  0  0  0  0
 23 47  1  0  0  0  0
 24 48  1  0  0  0  0
M  END
> <pdb_id>
4QN6

> <uniprot_id>
Q2FCL6

> <usmiles>
O=C(O)[C@@H]1O[C@@H]([C@H](OC)[C@H](O)CO)[C@H](NC(=O)C)[C@@H](NC(=N)N)C1

$$$$
LNV_B_801
          07202402463D 1   1.00000     0.00000     0
            
 48 48  0  0  0  0            999 V2000
   70.2430   15.2870    4.6250 O   0  0  0  0  0  0  0  0  0  0  0  0
   63.9020   12.1380   -0.4640 O   0  0  0  0  0  0  0  0  0  0  0  0
   64.4270   12.5470    1.7140 O   0  0  0  0  0  0  0  0  0  0  0  0
   70.9820   14.4040   -1.5920 O   0  0  0  0  0  0  0  0  0  0  0  0
   67.6150   16.0060    3.5110 O   0  0  0  0  0  0  0  0  0  0  0  0
   69.3430   13.2430    1.9320 O   0  0  0  0  0  0  0  0  0  0  0  0
   66.7100   13.8120    1.1790 O   0  0  0  0  0  0  0  0  0  0  0  0
   69.1800   15.0730   -4.8860 N   0  0  0  0  0  0  0  0  0  0  0  0
   68.3980   16.7330   -3.4980 N   0  0  0  0  0  0  0  0  0  0  0  0
   69.4380   15.8450   -0.6140 N   0  0  0  0  0  0  0  0  0  0  0  0
   67.9470   14.4150   -2.9920 N   0  0  0  0  0  0  0  0  0  0  0  0
   70.7190   13.0640    1.9870 C   0  0  0  0  0  0  0  0  0  0  0  0
   71.6290   16.6860   -1.3890 C   0  0  0  0  0  0  0  0  0  0  0  0
   69.1220   14.4280    4.5460 C   0  0  0  0  0  0  0  0  0  0  0  0
   66.1710   13.7540   -1.3180 C   0  0  0  0  0  0  0  0  0  0  0  0
   64.7020   12.6650    0.5260 C   0  0  0  0  0  0  0  0  0  0  0  0
   70.6690   15.5460   -1.2730 C   0  0  0  0  0  0  0  0  0  0  0  0
   68.5480   15.4440   -3.7940 C   0  0  0  0  0  0  0  0  0  0  0  0
   68.1850   14.7530    3.4090 C   0  0  2  0  0  0  0  0  0  0  0  0
   65.7900   13.6060    0.1530 C   0  0  1  0  0  0  0  0  0  0  0  0
   68.8250   14.5110    2.0590 C   0  0  2  0  0  0  0  0  0  0  0  0
   67.8310   14.6490    0.9630 C   0  0  1  0  0  0  0  0  0  0  0  0
   67.4000   14.5960   -1.6720 C   0  0  1  0  0  0  0  0  0  0  0  0
   68.3250   14.9530   -0.4770 C   0  0  1  0  0  0  0  0  0  0  0  0
   70.8176   15.0150    5.3969 H   0  0  0  0  0  0  0  0  0  0  0  0
   64.1549   12.2519   -1.4248 H   0  0  0  0  0  0  0  0  0  0  0  0
   67.0077   16.1604    2.7317 H   0  0  0  0  0  0  0  0  0  0  0  0
   69.2858   14.1012   -5.0967 H   0  0  0  0  0  0  0  0  0  0  0  0
   69.5547   15.7627   -5.5056 H   0  0  0  0  0  0  0  0  0  0  0  0
   67.9153   17.0017   -2.6644 H   0  0  0  0  0  0  0  0  0  0  0  0
   69.3445   16.7564   -0.2132 H   0  0  0  0  0  0  0  0  0  0  0  0
   67.9048   13.4956   -3.3831 H   0  0  0  0  0  0  0  0  0  0  0  0
   70.9334   12.0932    1.8796 H   0  0  0  0  0  0  0  0  0  0  0  0
   71.1525   13.5845    1.2514 H   0  0  0  0  0  0  0  0  0  0  0  0
   71.0619   13.3854    2.8697 H   0  0  0  0  0  0  0  0  0  0  0  0
   71.1856   17.5278   -1.0812 H   0  0  0  0  0  0  0  0  0  0  0  0
   72.4316   16.5050   -0.8207 H   0  0  0  0  0  0  0  0  0  0  0  0
   71.9120   16.7878   -2.3427 H   0  0  0  0  0  0  0  0  0  0  0  0
   68.6122   14.4951    5.4037 H   0  0  0  0  0  0  0  0  0  0  0  0
   69.4505   13.4912    4.4259 H   0  0  0  0  0  0  0  0  0  0  0  0
   65.3878   14.1630   -1.7863 H   0  0  0  0  0  0  0  0  0  0  0  0
   66.3302   12.8339   -1.6760 H   0  0  0  0  0  0  0  0  0  0  0  0
   67.4306   14.1002    3.4778 H   0  0  0  0  0  0  0  0  0  0  0  0
   65.2773   14.4589    0.2513 H   0  0  0  0  0  0  0  0  0  0  0  0
   69.5573   15.1778    1.9210 H   0  0  0  0  0  0  0  0  0  0  0  0
   67.4335   15.5354    1.2004 H   0  0  0  0  0  0  0  0  0  0  0  0
   66.9558   15.4824   -1.8020 H   0  0  0  0  0  0  0  0  0  0  0  0
   68.8770   14.1224   -0.5506 H   0  0  0  0  0  0  0  0  0  0  0  0
  1 14  1  0  0  0  0
  2 16  1  0  0  0  0
  3 16  2  0  0  0  0
  4 17  2  0  0  0  0
  5 19  1  0  0  0  0
  6 12  1  0  0  0  0
  6 21  1  0  0  0  0
  7 20  1  0  0  0  0
  7 22  1  0  0  0  0
  8 18  1  0  0  0  0
  9 18  2  0  0  0  0
 10 17  1  0  0  0  0
 10 24  1  0  0  0  0
 11 18  1  0  0  0  0
 11 23  1  0  0  0  0
 13 17  1  0  0  0  0
 14 19  1  0  0  0  0
 15 20  1  0  0  0  0
 15 23  1  0  0  0  0
 16 20  1  0  0  0  0
 19 21  1  0  0  0  0
 21 22  1  0  0  0  0
 22 24  1  0  0  0  0
 23 24  1  0  0  0  0
  1 25  1  0  0  0  0
  2 26  1  0  0  0  0
  5 27  1  0  0  0  0
  8 28  1  0  0  0  0
  8 29  1  0  0  0  0
  9 30  1  0  0  0  0
 10 31  1  0  0  0  0
 11 32  1  0  0  0  0
 12 33  1  0  0  0  0
 12 34  1  0  0  0  0
 12 35  1  0  0  0  0
 13 36  1  0  0  0  0
 13 37  1  0  0  0  0
 13 38  1  0  0  0  0
 14 39  1  0  0  0  0
 14 40  1  0  0  0  0
 15 41  1  0  0  0  0
 15 42  1  0  0  0  0
 19 43  1  0  0  0  0
 20 44  1  0  0  0  0
 21 45  1  0  0  0  0
 22 46  1  0  0  0  0
 23 47  1  0  0  0  0
 24 48  1  0  0  0  0
M  END
> <pdb_id>
3TI3

> <uniprot_id>
C3W5S3

> <usmiles>
O=C(O)[C@H]1O[C@@H]([C@H](OC)[C@H](O)CO)[C@H](NC(=O)C)[C@@H](NC(=N)N)C1

$$$$
LNY_A_1003
          07202406303D 1   1.00000     0.00000     0
            
 37 38  0  0  0  0            999 V2000
   28.6170  178.4575   18.7937 S   0  0  0  0  0  0  0  0  0  0  0  0
   28.7205  184.1442   18.4961 O   0  0  0  0  0  0  0  0  0  0  0  0
   28.8233  174.5778   22.9202 O   0  0  0  0  0  0  0  0  0  0  0  0
   29.4081  172.5043   23.0340 O   0  0  0  0  0  0  0  0  0  0  0  0
   24.2838  171.4545   17.7659 O   0  0  0  0  0  0  0  0  0  0  0  0
   24.6734  173.0495   19.1644 O   0  0  0  0  0  0  0  0  0  0  0  0
   29.7318  183.2454   18.0648 C   0  0  0  0  0  0  0  0  0  0  0  0
   29.1395  181.9329   17.7781 C   0  0  0  0  0  0  0  0  0  0  0  0
   28.7417  180.8353   17.6061 C   0  0  0  0  0  0  0  0  0  0  0  0
   28.0992  178.9120   16.3000 C   0  0  0  0  0  0  0  0  0  0  0  0
   27.9213  177.5297   16.4911 C   0  0  0  0  0  0  0  0  0  0  0  0
   30.0011  173.6484   21.0500 C   0  0  0  0  0  0  0  0  0  0  0  0
   26.4757  172.3535   17.7260 C   0  0  0  0  0  0  0  0  0  0  0  0
   28.2135  173.0900   19.3939 C   0  0  0  0  0  0  0  0  0  0  0  0
   29.0529  175.3659   19.4362 C   0  0  0  0  0  0  0  0  0  0  0  0
   27.3222  174.7416   17.8625 C   0  0  0  0  0  0  0  0  0  0  0  0
   29.3577  173.5762   22.4190 C   0  0  0  0  0  0  0  0  0  0  0  0
   25.0573  172.2925   18.2582 C   0  0  0  0  0  0  0  0  0  0  0  0
   28.4047  179.5487   17.4909 C   0  0  0  0  0  0  0  0  0  0  0  0
   28.1430  177.1009   17.8112 C   0  0  0  0  0  0  0  0  0  0  0  0
   29.0528  174.0543   19.9472 C   0  0  0  0  0  0  0  0  0  0  0  0
   27.3283  173.4344   18.3706 C   0  0  0  0  0  0  0  0  0  0  0  0
   28.1433  175.7316   18.4226 C   0  0  0  0  0  0  0  0  0  0  0  0
   29.1282  185.0364   18.6902 H   0  0  0  0  0  0  0  0  0  0  0  0
   28.7916  175.4364   22.4086 H   0  0  0  0  0  0  0  0  0  0  0  0
   24.6015  170.8488   17.0363 H   0  0  0  0  0  0  0  0  0  0  0  0
   30.4198  183.1494   18.7842 H   0  0  0  0  0  0  0  0  0  0  0  0
   30.1633  183.6033   17.2367 H   0  0  0  0  0  0  0  0  0  0  0  0
   28.0156  179.3751   15.4176 H   0  0  0  0  0  0  0  0  0  0  0  0
   27.6604  176.9074   15.7531 H   0  0  0  0  0  0  0  0  0  0  0  0
   30.3729  172.7467   20.8292 H   0  0  0  0  0  0  0  0  0  0  0  0
   30.7450  174.3157   21.0868 H   0  0  0  0  0  0  0  0  0  0  0  0
   26.4358  172.5285   16.7422 H   0  0  0  0  0  0  0  0  0  0  0  0
   26.9119  171.4687   17.8897 H   0  0  0  0  0  0  0  0  0  0  0  0
   28.2451  172.1488   19.7304 H   0  0  0  0  0  0  0  0  0  0  0  0
   29.6997  176.0400   19.7928 H   0  0  0  0  0  0  0  0  0  0  0  0
   26.7262  174.9703   17.0928 H   0  0  0  0  0  0  0  0  0  0  0  0
  1 19  1  0  0  0  0
  1 20  1  0  0  0  0
  2  7  1  0  0  0  0
  3 17  1  0  0  0  0
  4 17  2  0  0  0  0
  5 18  1  0  0  0  0
  6 18  2  0  0  0  0
  7  8  1  0  0  0  0
  8  9  3  0  0  0  0
  9 19  1  0  0  0  0
 10 11  1  0  0  0  0
 10 19  2  0  0  0  0
 11 20  2  0  0  0  0
 12 17  1  0  0  0  0
 12 21  1  0  0  0  0
 13 18  1  0  0  0  0
 13 22  1  0  0  0  0
 14 21  2  0  0  0  0
 14 22  1  0  0  0  0
 15 21  1  0  0  0  0
 15 23  2  0  0  0  0
 16 22  2  0  0  0  0
 16 23  1  0  0  0  0
 20 23  1  0  0  0  0
  2 24  1  0  0  0  0
  3 25  1  0  0  0  0
  5 26  1  0  0  0  0
  7 27  1  0  0  0  0
  7 28  1  0  0  0  0
 10 29  1  0  0  0  0
 11 30  1  0  0  0  0
 12 31  1  0  0  0  0
 12 32  1  0  0  0  0
 13 33  1  0  0  0  0
 13 34  1  0  0  0  0
 14 35  1  0  0  0  0
 15 36  1  0  0  0  0
 16 37  1  0  0  0  0
M  END
> <pdb_id>
5HMY

> <uniprot_id>
Q6DLV0

> <usmiles>
S1C(C#CCO)=CC=C1c2cc(cc(c2)CC(=O)O)CC(=O)O

$$$$
LOD_A_401
          07202413553D 1   1.00000     0.00000     0
            
 52 56  0  0  0  0            999 V2000
   12.7636    6.6155   94.8370 Cl  0  0  0  0  0  0  0  0  0  0  0  0
    1.2198    2.3955  100.0054 O   0  0  0  0  0  0  0  0  0  0  0  0
    2.6515    1.0474  100.9850 O   0  0  0  0  0  0  0  0  0  0  0  0
    6.2675    3.8337   96.4590 O   0  0  0  0  0  0  0  0  0  0  0  0
    7.1050    2.4450   98.9104 N   0  0  0  0  0  0  0  0  0  0  0  0
    7.1857    2.8237   96.0447 C   0  0  0  0  0  0  0  0  0  0  0  0
    7.5547    1.5278   99.9718 C   0  0  0  0  0  0  0  0  0  0  0  0
    8.1704    3.2517   98.3057 C   0  0  0  0  0  0  0  0  0  0  0  0
    8.2556    2.7991  103.2512 C   0  0  0  0  0  0  0  0  0  0  0  0
   10.2250    6.2015   95.6190 C   0  0  0  0  0  0  0  0  0  0  0  0
    4.0033    3.6780   97.2079 C   0  0  0  0  0  0  0  0  0  0  0  0
    7.7003    1.4849  102.6485 C   0  0  0  0  0  0  0  0  0  0  0  0
    8.3210    3.3810  101.8017 C   0  0  0  0  0  0  0  0  0  0  0  0
    3.0060    3.2162   98.0838 C   0  0  0  0  0  0  0  0  0  0  0  0
    9.1797    5.3692   96.0856 C   0  0  0  0  0  0  0  0  0  0  0  0
   10.8124    2.0622   96.5969 C   0  0  0  0  0  0  0  0  0  0  0  0
   11.7816    4.2875   95.7459 C   0  0  0  0  0  0  0  0  0  0  0  0
    4.7376    2.1564   99.4313 C   0  0  0  0  0  0  0  0  0  0  0  0
    9.3240    1.6689   96.8185 C   0  0  0  0  0  0  0  0  0  0  0  0
    2.3233    1.9710  100.0925 C   0  0  0  0  0  0  0  0  0  0  0  0
   11.5001    5.6303   95.4577 C   0  0  0  0  0  0  0  0  0  0  0  0
    5.3658    3.3831   97.4287 C   0  0  0  0  0  0  0  0  0  0  0  0
    5.7619    2.6204   98.5714 C   0  0  0  0  0  0  0  0  0  0  0  0
    7.3760    2.2507  101.3428 C   0  0  0  0  0  0  0  0  0  0  0  0
    3.3859    2.4450   99.2035 C   0  0  0  0  0  0  0  0  0  0  0  0
   10.7286    3.5015   96.2065 C   0  0  0  0  0  0  0  0  0  0  0  0
    9.4488    4.0138   96.3748 C   0  0  0  0  0  0  0  0  0  0  0  0
    8.4913    2.9630   96.8720 C   0  0  1  0  0  0  0  0  0  0  0  0
    1.0046    3.0922   99.3211 H   0  0  0  0  0  0  0  0  0  0  0  0
    7.3908    2.9348   95.0722 H   0  0  0  0  0  0  0  0  0  0  0  0
    6.7845    1.9210   96.1997 H   0  0  0  0  0  0  0  0  0  0  0  0
    8.5175    1.2954   99.8338 H   0  0  0  0  0  0  0  0  0  0  0  0
    7.0044    0.6930   99.9543 H   0  0  0  0  0  0  0  0  0  0  0  0
    9.0032    3.1052   98.8395 H   0  0  0  0  0  0  0  0  0  0  0  0
    7.8984    4.2119   98.3693 H   0  0  0  0  0  0  0  0  0  0  0  0
    9.1440    2.7059  103.7007 H   0  0  0  0  0  0  0  0  0  0  0  0
    7.6220    3.2756  103.8607 H   0  0  0  0  0  0  0  0  0  0  0  0
   10.0620    7.1658   95.4105 H   0  0  0  0  0  0  0  0  0  0  0  0
    3.7426    4.2260   96.4131 H   0  0  0  0  0  0  0  0  0  0  0  0
    6.8983    1.1214  103.1225 H   0  0  0  0  0  0  0  0  0  0  0  0
    8.3816    0.7606  102.5425 H   0  0  0  0  0  0  0  0  0  0  0  0
    9.2303    3.3530  101.3863 H   0  0  0  0  0  0  0  0  0  0  0  0
    7.9402    4.3009  101.7085 H   0  0  0  0  0  0  0  0  0  0  0  0
    2.0436    3.4303   97.9167 H   0  0  0  0  0  0  0  0  0  0  0  0
    8.2584    5.7381   96.2093 H   0  0  0  0  0  0  0  0  0  0  0  0
   11.2231    1.5157   95.8670 H   0  0  0  0  0  0  0  0  0  0  0  0
   11.3426    1.9485   97.4371 H   0  0  0  0  0  0  0  0  0  0  0  0
   12.6998    3.9101   95.6257 H   0  0  0  0  0  0  0  0  0  0  0  0
    4.9870    1.6047  100.2272 H   0  0  0  0  0  0  0  0  0  0  0  0
    9.2298    1.1692   97.6796 H   0  0  0  0  0  0  0  0  0  0  0  0
    9.0090    1.0940   96.0633 H   0  0  0  0  0  0  0  0  0  0  0  0
    6.4354    2.5854  101.4007 H   0  0  0  0  0  0  0  0  0  0  0  0
  1 21  1  0  0  0  0
  2 20  1  0  0  0  0
  3 20  2  0  0  0  0
  4  6  1  0  0  0  0
  4 22  1  0  0  0  0
  5  7  1  0  0  0  0
  5  8  1  0  0  0  0
  5 23  1  0  0  0  0
  6 28  1  0  0  0  0
  7 24  1  0  0  0  0
  8 28  1  0  0  0  0
  9 12  1  0  0  0  0
  9 13  1  0  0  0  0
 10 15  2  0  0  0  0
 10 21  1  0  0  0  0
 11 14  1  0  0  0  0
 11 22  2  0  0  0  0
 12 24  1  0  0  0  0
 13 24  1  0  0  0  0
 14 25  2  0  0  0  0
 15 27  1  0  0  0  0
 16 19  1  0  0  0  0
 16 26  1  0  0  0  0
 17 21  2  0  0  0  0
 17 26  1  0  0  0  0
 18 23  2  0  0  0  0
 18 25  1  0  0  0  0
 19 28  1  0  0  0  0
 20 25  1  0  0  0  0
 22 23  1  0  0  0  0
 26 27  2  0  0  0  0
 27 28  1  0  0  0  0
  2 29  1  0  0  0  0
  6 30  1  0  0  0  0
  6 31  1  0  0  0  0
  7 32  1  0  0  0  0
  7 33  1  0  0  0  0
  8 34  1  0  0  0  0
  8 35  1  0  0  0  0
  9 36  1  0  0  0  0
  9 37  1  0  0  0  0
 10 38  1  0  0  0  0
 11 39  1  0  0  0  0
 12 40  1  0  0  0  0
 12 41  1  0  0  0  0
 13 42  1  0  0  0  0
 13 43  1  0  0  0  0
 14 44  1  0  0  0  0
 15 45  1  0  0  0  0
 16 46  1  0  0  0  0
 16 47  1  0  0  0  0
 17 48  1  0  0  0  0
 18 49  1  0  0  0  0
 19 50  1  0  0  0  0
 19 51  1  0  0  0  0
 24 52  1  0  0  0  0
M  END
> <pdb_id>
6O6F

> <uniprot_id>
Q07820

> <usmiles>
Clc1cc2c(cc1)[C@@]3(COc4c(N(C3)CC5CCC5)cc(cc4)C(=O)O)CC2

$$$$
LOG_A_1614
          07192422263D 1   1.00000     0.00000     0
            
 30 30  0  0  0  0            999 V2000
   18.9395   26.9750   26.2099 O   0  0  0  0  0  0  0  0  0  0  0  0
   16.9703   30.2105   28.3045 O   0  0  0  0  0  0  0  0  0  0  0  0
   17.2621   29.5028   22.6852 O   0  0  0  0  0  0  0  0  0  0  0  0
   14.1984   30.8691   26.2157 O   0  0  0  0  0  0  0  0  0  0  0  0
   13.4862   28.7056   24.5521 O   0  0  0  0  0  0  0  0  0  0  0  0
   17.4990   29.1799   25.6849 O   0  0  0  0  0  0  0  0  0  0  0  0
   17.7505   26.9060   25.3744 N   0  0  0  0  0  0  0  0  0  0  0  0
   15.9251   27.7199   22.9239 N   0  0  0  0  0  0  0  0  0  0  0  0
   16.6175   28.3216   20.6432 C   0  0  0  0  0  0  0  0  0  0  0  0
   17.0421   31.0569   27.1414 C   0  0  0  0  0  0  0  0  0  0  0  0
   16.6601   28.5645   22.1736 C   0  0  0  0  0  0  0  0  0  0  0  0
   17.0767   28.0311   25.1168 C   0  0  0  0  0  0  0  0  0  0  0  0
   15.1361   29.7716   25.9631 C   0  0  1  0  0  0  0  0  0  0  0  0
   14.8637   29.1724   24.6086 C   0  0  1  0  0  0  0  0  0  0  0  0
   16.5713   30.2903   25.8874 C   0  0  2  0  0  0  0  0  0  0  0  0
   15.8098   27.9391   24.3914 C   0  0  1  0  0  0  0  0  0  0  0  0
   19.4566   26.1436   26.4134 H   0  0  0  0  0  0  0  0  0  0  0  0
   17.2780   30.7207   29.1076 H   0  0  0  0  0  0  0  0  0  0  0  0
   14.3824   31.2643   27.1157 H   0  0  0  0  0  0  0  0  0  0  0  0
   13.3057   28.3078   23.6526 H   0  0  0  0  0  0  0  0  0  0  0  0
   15.4578   26.9468   22.4950 H   0  0  0  0  0  0  0  0  0  0  0  0
   16.0732   27.5052   20.4503 H   0  0  0  0  0  0  0  0  0  0  0  0
   16.2040   29.1123   20.1916 H   0  0  0  0  0  0  0  0  0  0  0  0
   17.5477   28.1908   20.3004 H   0  0  0  0  0  0  0  0  0  0  0  0
   17.9872   31.3557   27.0093 H   0  0  0  0  0  0  0  0  0  0  0  0
   16.4561   31.8556   27.2786 H   0  0  0  0  0  0  0  0  0  0  0  0
   15.0552   29.0740   26.6749 H   0  0  0  0  0  0  0  0  0  0  0  0
   15.0227   29.8547   23.8950 H   0  0  0  0  0  0  0  0  0  0  0  0
   16.6412   30.9039   25.1009 H   0  0  0  0  0  0  0  0  0  0  0  0
   15.3286   27.1438   24.7602 H   0  0  0  0  0  0  0  0  0  0  0  0
  1  7  1  0  0  0  0
  2 10  1  0  0  0  0
  3 11  2  0  0  0  0
  4 13  1  0  0  0  0
  5 14  1  0  0  0  0
  6 12  1  0  0  0  0
  6 15  1  0  0  0  0
  7 12  2  0  0  0  0
  8 11  1  0  0  0  0
  8 16  1  0  0  0  0
  9 11  1  0  0  0  0
 10 15  1  0  0  0  0
 12 16  1  0  0  0  0
 13 14  1  0  0  0  0
 13 15  1  0  0  0  0
 14 16  1  0  0  0  0
  1 17  1  0  0  0  0
  2 18  1  0  0  0  0
  4 19  1  0  0  0  0
  5 20  1  0  0  0  0
  8 21  1  0  0  0  0
  9 22  1  0  0  0  0
  9 23  1  0  0  0  0
  9 24  1  0  0  0  0
 10 25  1  0  0  0  0
 10 26  1  0  0  0  0
 13 27  1  0  0  0  0
 14 28  1  0  0  0  0
 15 29  1  0  0  0  0
 16 30  1  0  0  0  0
M  END
> <pdb_id>
4AZ7

> <uniprot_id>
P49610

> <usmiles>
O=C(N[C@H]1C(O[C@@H]([C@@H](O)[C@@H]1O)CO)=NO)C

$$$$
LOG_A_2044
          07192422263D 1   1.00000     0.00000     0
            
 30 30  0  0  0  0            999 V2000
  -34.4870  -24.6300  -56.6330 O   0  0  0  0  0  0  0  0  0  0  0  0
  -34.7450  -23.7030  -51.9830 O   0  0  0  0  0  0  0  0  0  0  0  0
  -30.9590  -25.2200  -56.0960 O   0  0  0  0  0  0  0  0  0  0  0  0
  -31.4730  -22.5510  -51.8370 O   0  0  0  0  0  0  0  0  0  0  0  0
  -30.4050  -21.1520  -54.0830 O   0  0  0  0  0  0  0  0  0  0  0  0
  -33.4230  -24.1690  -54.3550 O   0  0  0  0  0  0  0  0  0  0  0  0
  -33.4850  -23.7400  -56.6390 N   0  0  0  0  0  0  0  0  0  0  0  0
  -30.8990  -22.9740  -56.5840 N   0  0  0  0  0  0  0  0  0  0  0  0
  -29.4010  -24.5220  -57.7670 C   0  0  0  0  0  0  0  0  0  0  0  0
  -33.5210  -24.3970  -51.9530 C   0  0  0  0  0  0  0  0  0  0  0  0
  -30.4820  -24.2700  -56.7190 C   0  0  0  0  0  0  0  0  0  0  0  0
  -32.9290  -23.5410  -55.4880 C   0  0  0  0  0  0  0  0  0  0  0  0
  -32.1190  -22.6520  -53.0800 C   0  0  1  0  0  0  0  0  0  0  0  0
  -31.1190  -22.4560  -54.1980 C   0  0  1  0  0  0  0  0  0  0  0  0
  -32.6650  -24.0690  -53.1950 C   0  0  2  0  0  0  0  0  0  0  0  0
  -31.8630  -22.5850  -55.5260 C   0  0  1  0  0  0  0  0  0  0  0  0
  -34.9716  -24.8430  -57.4814 H   0  0  0  0  0  0  0  0  0  0  0  0
  -35.2786  -23.9330  -51.1691 H   0  0  0  0  0  0  0  0  0  0  0  0
  -32.1398  -22.6815  -51.1032 H   0  0  0  0  0  0  0  0  0  0  0  0
  -29.7551  -21.0601  -54.8375 H   0  0  0  0  0  0  0  0  0  0  0  0
  -30.5479  -22.2771  -57.2093 H   0  0  0  0  0  0  0  0  0  0  0  0
  -29.1245  -23.6526  -58.1764 H   0  0  0  0  0  0  0  0  0  0  0  0
  -28.6097  -24.9526  -57.3328 H   0  0  0  0  0  0  0  0  0  0  0  0
  -29.7606  -25.1259  -58.4783 H   0  0  0  0  0  0  0  0  0  0  0  0
  -33.7034  -25.3800  -51.9325 H   0  0  0  0  0  0  0  0  0  0  0  0
  -33.0168  -24.1343  -51.1303 H   0  0  0  0  0  0  0  0  0  0  0  0
  -32.8589  -21.9828  -53.1479 H   0  0  0  0  0  0  0  0  0  0  0  0
  -30.4419  -23.1900  -54.1453 H   0  0  0  0  0  0  0  0  0  0  0  0
  -31.9008  -24.7120  -53.2459 H   0  0  0  0  0  0  0  0  0  0  0  0
  -32.2472  -21.6922  -55.7611 H   0  0  0  0  0  0  0  0  0  0  0  0
  1  7  1  0  0  0  0
  2 10  1  0  0  0  0
  3 11  2  0  0  0  0
  4 13  1  0  0  0  0
  5 14  1  0  0  0  0
  6 12  1  0  0  0  0
  6 15  1  0  0  0  0
  7 12  2  0  0  0  0
  8 11  1  0  0  0  0
  8 16  1  0  0  0  0
  9 11  1  0  0  0  0
 10 15  1  0  0  0  0
 12 16  1  0  0  0  0
 13 14  1  0  0  0  0
 13 15  1  0  0  0  0
 14 16  1  0  0  0  0
  1 17  1  0  0  0  0
  2 18  1  0  0  0  0
  4 19  1  0  0  0  0
  5 20  1  0  0  0  0
  8 21  1  0  0  0  0
  9 22  1  0  0  0  0
  9 23  1  0  0  0  0
  9 24  1  0  0  0  0
 10 25  1  0  0  0  0
 10 26  1  0  0  0  0
 13 27  1  0  0  0  0
 14 28  1  0  0  0  0
 15 29  1  0  0  0  0
 16 30  1  0  0  0  0
M  END
> <pdb_id>
4AZH

> <uniprot_id>
P49610

> <usmiles>
O=C(N[C@H]1C(O[C@@H]([C@@H](O)[C@@H]1O)CO)=NO)C

$$$$
LQG_A_501
          07202414183D 1   1.00000     0.00000     0
            
 27 29  0  0  0  0            999 V2000
  -12.1743   25.9969  -21.0958 O   0  0  0  0  0  0  0  0  0  0  0  0
  -11.6576   23.9721  -24.1282 N   0  0  0  0  0  0  0  0  0  0  0  0
  -18.5385   23.3774  -22.6628 N   0  0  0  0  0  0  0  0  0  0  0  0
  -18.3112   23.3231  -23.9882 N   0  0  0  0  0  0  0  0  0  0  0  0
  -14.5723   23.6523  -21.3788 N   0  0  0  0  0  0  0  0  0  0  0  0
  -16.3168   23.4530  -22.9108 N   0  0  0  0  0  0  0  0  0  0  0  0
  -12.1920   27.2805  -20.5385 C   0  0  0  0  0  0  0  0  0  0  0  0
  -17.3693   23.4468  -21.9909 C   0  0  0  0  0  0  0  0  0  0  0  0
  -12.7874   23.7869  -24.0035 C   0  0  0  0  0  0  0  0  0  0  0  0
  -13.2257   23.8116  -20.8372 C   0  0  0  0  0  0  0  0  0  0  0  0
  -13.1297   27.3471  -19.5464 C   0  0  0  0  0  0  0  0  0  0  0  0
  -13.7304   26.0457  -19.4762 C   0  0  0  0  0  0  0  0  0  0  0  0
  -16.1527   23.3510  -25.3895 C   0  0  0  0  0  0  0  0  0  0  0  0
  -14.8037   23.4592  -25.2180 C   0  0  0  0  0  0  0  0  0  0  0  0
  -13.1207   25.2576  -20.4232 C   0  0  0  0  0  0  0  0  0  0  0  0
  -16.9471   23.3637  -24.1860 C   0  0  0  0  0  0  0  0  0  0  0  0
  -14.8791   23.5694  -22.6951 C   0  0  0  0  0  0  0  0  0  0  0  0
  -14.1567   23.5835  -23.9438 C   0  0  0  0  0  0  0  0  0  0  0  0
  -15.3279   23.6004  -20.7258 H   0  0  0  0  0  0  0  0  0  0  0  0
  -11.6048   28.0378  -20.8242 H   0  0  0  0  0  0  0  0  0  0  0  0
  -17.2721   23.4872  -20.9965 H   0  0  0  0  0  0  0  0  0  0  0  0
  -12.5418   23.5982  -21.5349 H   0  0  0  0  0  0  0  0  0  0  0  0
  -13.0944   23.2125  -20.0474 H   0  0  0  0  0  0  0  0  0  0  0  0
  -13.3524   28.1426  -18.9829 H   0  0  0  0  0  0  0  0  0  0  0  0
  -14.4593   25.7638  -18.8524 H   0  0  0  0  0  0  0  0  0  0  0  0
  -16.5663   23.2677  -26.2962 H   0  0  0  0  0  0  0  0  0  0  0  0
  -14.2273   23.4513  -26.0351 H   0  0  0  0  0  0  0  0  0  0  0  0
  1  7  1  0  0  0  0
  1 15  1  0  0  0  0
  2  9  3  0  0  0  0
  3  4  1  0  0  0  0
  3  8  2  0  0  0  0
  4 16  2  0  0  0  0
  5 10  1  0  0  0  0
  5 17  1  0  0  0  0
  6  8  1  0  0  0  0
  6 16  1  0  0  0  0
  6 17  1  0  0  0  0
  7 11  2  0  0  0  0
  9 18  1  0  0  0  0
 10 15  1  0  0  0  0
 11 12  1  0  0  0  0
 12 15  2  0  0  0  0
 13 14  2  0  0  0  0
 13 16  1  0  0  0  0
 14 18  1  0  0  0  0
 17 18  2  0  0  0  0
  5 19  1  0  0  0  0
  7 20  1  0  0  0  0
  8 21  1  0  0  0  0
 10 22  1  0  0  0  0
 10 23  1  0  0  0  0
 11 24  1  0  0  0  0
 12 25  1  0  0  0  0
 13 26  1  0  0  0  0
 14 27  1  0  0  0  0
M  END
> <pdb_id>
5H24

> <uniprot_id>
O75530

> <usmiles>
O1C(=CC=C1)CNC=2N3C(=NN=C3)C=CC2C#N

$$$$
LRG_A_501
          07202408433D 1   1.00000     0.00000     0
            
 42 44  0  0  0  0            999 V2000
   17.7686    6.9662   21.7490 O   0  0  0  0  0  0  0  0  0  0  0  0
   19.8345    6.1892   21.6245 O   0  0  0  0  0  0  0  0  0  0  0  0
   19.9188    6.6492   18.9750 O   0  0  0  0  0  0  0  0  0  0  0  0
   17.1909    4.8257   15.0888 C   0  0  0  0  0  0  0  0  0  0  0  0
   24.4943   13.8135   18.7979 C   0  0  0  0  0  0  0  0  0  0  0  0
   16.2656    5.3868   15.9496 C   0  0  0  0  0  0  0  0  0  0  0  0
   18.4164    4.3751   15.5704 C   0  0  0  0  0  0  0  0  0  0  0  0
   25.1258   12.5784   18.8600 C   0  0  0  0  0  0  0  0  0  0  0  0
   23.0917   13.8742   18.7965 C   0  0  0  0  0  0  0  0  0  0  0  0
   16.5736    5.4807   17.3103 C   0  0  0  0  0  0  0  0  0  0  0  0
   18.7216    4.4812   16.9297 C   0  0  0  0  0  0  0  0  0  0  0  0
   20.1972    8.9969   19.6509 C   0  0  0  0  0  0  0  0  0  0  0  0
   21.8510    7.9240   18.3579 C   0  0  0  0  0  0  0  0  0  0  0  0
   24.3923   11.3980   18.9365 C   0  0  0  0  0  0  0  0  0  0  0  0
   22.3624   12.6977   18.8513 C   0  0  0  0  0  0  0  0  0  0  0  0
   20.9751   10.1540   19.6196 C   0  0  0  0  0  0  0  0  0  0  0  0
   22.6277    9.0858   18.3386 C   0  0  0  0  0  0  0  0  0  0  0  0
   18.1195    5.1661   19.2956 C   0  0  0  0  0  0  0  0  0  0  0  0
   18.7742    6.5750   21.0804 C   0  0  0  0  0  0  0  0  0  0  0  0
   20.6265    7.8617   18.9991 C   0  0  0  0  0  0  0  0  0  0  0  0
   18.6724    6.5255   19.6034 C   0  0  1  0  0  0  0  0  0  0  0  0
   17.7890    5.0507   17.8086 C   0  0  0  0  0  0  0  0  0  0  0  0
   22.9879   11.4325   18.9430 C   0  0  0  0  0  0  0  0  0  0  0  0
   22.2139   10.2345   18.9737 C   0  0  0  0  0  0  0  0  0  0  0  0
   16.9401    7.2665   21.2764 H   0  0  0  0  0  0  0  0  0  0  0  0
   16.9784    4.7432   14.1151 H   0  0  0  0  0  0  0  0  0  0  0  0
   25.0347   14.6538   18.7544 H   0  0  0  0  0  0  0  0  0  0  0  0
   15.3887    5.7208   15.6040 H   0  0  0  0  0  0  0  0  0  0  0  0
   19.0814    3.9735   14.9408 H   0  0  0  0  0  0  0  0  0  0  0  0
   26.1248   12.5363   18.8496 H   0  0  0  0  0  0  0  0  0  0  0  0
   22.6241   14.7572   18.7563 H   0  0  0  0  0  0  0  0  0  0  0  0
   15.8983    5.8681   17.9380 H   0  0  0  0  0  0  0  0  0  0  0  0
   19.6010    4.1527   17.2742 H   0  0  0  0  0  0  0  0  0  0  0  0
   19.3285    8.9912   20.1461 H   0  0  0  0  0  0  0  0  0  0  0  0
   22.1927    7.1081   17.8914 H   0  0  0  0  0  0  0  0  0  0  0  0
   24.8680   10.5199   18.9872 H   0  0  0  0  0  0  0  0  0  0  0  0
   21.3638   12.7444   18.8252 H   0  0  0  0  0  0  0  0  0  0  0  0
   20.6293   10.9696   20.0835 H   0  0  0  0  0  0  0  0  0  0  0  0
   23.5020    9.0824   17.8532 H   0  0  0  0  0  0  0  0  0  0  0  0
   17.2873    5.0198   19.8305 H   0  0  0  0  0  0  0  0  0  0  0  0
   18.7975    4.4720   19.5375 H   0  0  0  0  0  0  0  0  0  0  0  0
   18.0481    7.2348   19.2760 H   0  0  0  0  0  0  0  0  0  0  0  0
  1 19  1  0  0  0  0
  2 19  2  0  0  0  0
  3 20  1  0  0  0  0
  3 21  1  0  0  0  0
  4  6  2  0  0  0  0
  4  7  1  0  0  0  0
  5  8  2  0  0  0  0
  5  9  1  0  0  0  0
  6 10  1  0  0  0  0
  7 11  2  0  0  0  0
  8 14  1  0  0  0  0
  9 15  2  0  0  0  0
 10 22  2  0  0  0  0
 11 22  1  0  0  0  0
 12 16  1  0  0  0  0
 12 20  2  0  0  0  0
 13 17  2  0  0  0  0
 13 20  1  0  0  0  0
 14 23  2  0  0  0  0
 15 23  1  0  0  0  0
 16 24  2  0  0  0  0
 17 24  1  0  0  0  0
 18 21  1  0  0  0  0
 18 22  1  0  0  0  0
 19 21  1  0  0  0  0
 23 24  1  0  0  0  0
  1 25  1  0  0  0  0
  4 26  1  0  0  0  0
  5 27  1  0  0  0  0
  6 28  1  0  0  0  0
  7 29  1  0  0  0  0
  8 30  1  0  0  0  0
  9 31  1  0  0  0  0
 10 32  1  0  0  0  0
 11 33  1  0  0  0  0
 12 34  1  0  0  0  0
 13 35  1  0  0  0  0
 14 36  1  0  0  0  0
 15 37  1  0  0  0  0
 16 38  1  0  0  0  0
 17 39  1  0  0  0  0
 18 40  1  0  0  0  0
 18 41  1  0  0  0  0
 21 42  1  0  0  0  0
M  END
> <pdb_id>
4L98

> <uniprot_id>
P37231

> <usmiles>
O=C(O)[C@@H](Oc1ccc(c2ccccc2)cc1)Cc3ccccc3

$$$$
LRI_A_506
          07202417423D 1   1.00000     0.00000     0
            
 31 33  0  0  0  0            999 V2000
    7.1368   26.9330   -2.9489 Cl  0  0  0  0  0  0  0  0  0  0  0  0
   13.0740   23.9370   -2.9130 S   0  0  0  0  0  0  0  0  0  0  0  0
    9.5133   23.0373   -1.2568 N   0  0  0  0  0  0  0  0  0  0  0  0
    8.5182   24.9514   -2.0409 N   0  0  0  0  0  0  0  0  0  0  0  0
   10.6335   25.0105   -1.2372 N   0  0  0  0  0  0  0  0  0  0  0  0
   11.9566   26.8820   -1.3558 N   0  0  0  0  0  0  0  0  0  0  0  0
   14.0646   23.8904   -4.2639 C   0  0  0  0  0  0  0  0  0  0  0  0
   14.8708   24.9932   -4.1664 C   0  0  0  0  0  0  0  0  0  0  0  0
   13.1111   26.0413   -1.0581 C   0  0  0  0  0  0  0  0  0  0  0  0
   14.6521   25.8712   -3.1647 C   0  0  0  0  0  0  0  0  0  0  0  0
   11.7563   29.4860   -1.4043 C   0  0  0  0  0  0  0  0  0  0  0  0
   13.1958   29.0298   -1.2181 C   0  0  0  0  0  0  0  0  0  0  0  0
    9.6778   26.9791   -2.0549 C   0  0  0  0  0  0  0  0  0  0  0  0
    8.5417   26.2333   -2.2671 C   0  0  0  0  0  0  0  0  0  0  0  0
    9.5600   24.3387   -1.5073 C   0  0  0  0  0  0  0  0  0  0  0  0
   13.6930   25.4027   -2.3255 C   0  0  0  0  0  0  0  0  0  0  0  0
   10.7771   26.2998   -1.5233 C   0  0  0  0  0  0  0  0  0  0  0  0
   12.2978   28.1608   -2.0171 C   0  0  0  0  0  0  0  0  0  0  0  0
   10.3040   22.5772   -0.8528 H   0  0  0  0  0  0  0  0  0  0  0  0
    8.6875   22.5160   -1.4717 H   0  0  0  0  0  0  0  0  0  0  0  0
   14.0667   23.2018   -4.9890 H   0  0  0  0  0  0  0  0  0  0  0  0
   15.6077   25.1452   -4.8251 H   0  0  0  0  0  0  0  0  0  0  0  0
   12.8298   25.3157   -0.4301 H   0  0  0  0  0  0  0  0  0  0  0  0
   13.8167   26.6020   -0.6250 H   0  0  0  0  0  0  0  0  0  0  0  0
   15.1291   26.7433   -3.0560 H   0  0  0  0  0  0  0  0  0  0  0  0
   11.5450   30.2664   -1.9929 H   0  0  0  0  0  0  0  0  0  0  0  0
   11.1153   29.4639   -0.6371 H   0  0  0  0  0  0  0  0  0  0  0  0
   13.5046   28.7251   -0.3171 H   0  0  0  0  0  0  0  0  0  0  0  0
   13.9343   29.5276   -1.6728 H   0  0  0  0  0  0  0  0  0  0  0  0
    9.7150   27.9551   -2.2696 H   0  0  0  0  0  0  0  0  0  0  0  0
   12.4426   28.1398   -3.0063 H   0  0  0  0  0  0  0  0  0  0  0  0
  1 14  1  0  0  0  0
  2  7  1  0  0  0  0
  2 16  1  0  0  0  0
  3 15  1  0  0  0  0
  4 14  1  0  0  0  0
  4 15  2  0  0  0  0
  5 15  1  0  0  0  0
  5 17  2  0  0  0  0
  6  9  1  0  0  0  0
  6 17  1  0  0  0  0
  6 18  1  0  0  0  0
  7  8  2  0  0  0  0
  8 10  1  0  0  0  0
  9 16  1  0  0  0  0
 10 16  2  0  0  0  0
 11 12  1  0  0  0  0
 11 18  1  0  0  0  0
 12 18  1  0  0  0  0
 13 14  2  0  0  0  0
 13 17  1  0  0  0  0
  3 19  1  0  0  0  0
  3 20  1  0  0  0  0
  7 21  1  0  0  0  0
  8 22  1  0  0  0  0
  9 23  1  0  0  0  0
  9 24  1  0  0  0  0
 10 25  1  0  0  0  0
 11 26  1  0  0  0  0
 11 27  1  0  0  0  0
 12 28  1  0  0  0  0
 12 29  1  0  0  0  0
 13 30  1  0  0  0  0
 18 31  1  0  0  0  0
M  END
> <pdb_id>
5IV3

> <uniprot_id>
Q96PN6

> <usmiles>
Clc1nc(nc(N(C2CC2)CC=3SC=CC3)c1)N

$$$$
LS5_A_301
          07192421083D 1   1.00000     0.00000     0
            
 40 42  0  0  0  0            999 V2000
    6.8084   23.9364    7.0807 S   0  0  0  0  0  0  0  0  0  0  0  0
    7.6058   23.9395    5.8089 O   0  0  0  0  0  0  0  0  0  0  0  0
    7.6186   24.2697    8.2880 O   0  0  0  0  0  0  0  0  0  0  0  0
    1.9061   30.6283    6.1610 O   0  0  0  0  0  0  0  0  0  0  0  0
    4.4269   20.9847    6.6720 N   0  0  0  0  0  0  0  0  0  0  0  0
    5.1584   22.4950    5.1174 N   0  0  0  0  0  0  0  0  0  0  0  0
    5.9591   22.5851    7.3275 N   0  0  0  0  0  0  0  0  0  0  0  0
    2.6871   28.1299    6.8525 N   0  0  0  0  0  0  0  0  0  0  0  0
    0.0654   31.4000    7.3044 N   0  0  0  0  0  0  0  0  0  0  0  0
    1.5672   28.1624    7.5959 C   0  0  0  0  0  0  0  0  0  0  0  0
   -2.6788   30.5539    9.7232 C   0  0  0  0  0  0  0  0  0  0  0  0
   -2.2726   29.2240    9.9526 C   0  0  0  0  0  0  0  0  0  0  0  0
    4.7163   25.3117    8.0391 C   0  0  0  0  0  0  0  0  0  0  0  0
    5.5043   25.9973    5.8307 C   0  0  0  0  0  0  0  0  0  0  0  0
   -1.9042   31.3673    8.8696 C   0  0  0  0  0  0  0  0  0  0  0  0
   -1.1730   28.6736    9.2776 C   0  0  0  0  0  0  0  0  0  0  0  0
    3.7387   26.3236    8.0328 C   0  0  0  0  0  0  0  0  0  0  0  0
    4.5119   26.9883    5.8347 C   0  0  0  0  0  0  0  0  0  0  0  0
    5.1783   22.0383    6.3738 C   0  0  0  0  0  0  0  0  0  0  0  0
    5.5870   25.1557    6.9540 C   0  0  0  0  0  0  0  0  0  0  0  0
    0.9760   30.4811    6.9662 C   0  0  0  0  0  0  0  0  0  0  0  0
    3.6015   27.1409    6.8910 C   0  0  0  0  0  0  0  0  0  0  0  0
   -0.8047   30.8269    8.1976 C   0  0  0  0  0  0  0  0  0  0  0  0
    0.7036   29.2657    7.5988 C   0  0  0  0  0  0  0  0  0  0  0  0
   -0.4109   29.4982    8.4354 C   0  0  0  0  0  0  0  0  0  0  0  0
    4.4221   20.6216    7.6038 H   0  0  0  0  0  0  0  0  0  0  0  0
    3.8659   20.5544    5.9648 H   0  0  0  0  0  0  0  0  0  0  0  0
    5.7142   23.2868    4.8643 H   0  0  0  0  0  0  0  0  0  0  0  0
    6.0142   22.1377    8.2201 H   0  0  0  0  0  0  0  0  0  0  0  0
    2.8530   28.8927    6.2277 H   0  0  0  0  0  0  0  0  0  0  0  0
    0.0253   32.3400    6.9657 H   0  0  0  0  0  0  0  0  0  0  0  0
    1.3429   27.3722    8.1662 H   0  0  0  0  0  0  0  0  0  0  0  0
   -3.5032   30.9153   10.1588 H   0  0  0  0  0  0  0  0  0  0  0  0
   -2.7773   28.6626   10.6085 H   0  0  0  0  0  0  0  0  0  0  0  0
    4.7899   24.6986    8.8256 H   0  0  0  0  0  0  0  0  0  0  0  0
    6.1299   25.8930    5.0575 H   0  0  0  0  0  0  0  0  0  0  0  0
   -2.1421   32.3306    8.7454 H   0  0  0  0  0  0  0  0  0  0  0  0
   -0.9359   27.7092    9.3946 H   0  0  0  0  0  0  0  0  0  0  0  0
    3.1483   26.4618    8.8280 H   0  0  0  0  0  0  0  0  0  0  0  0
    4.4510   27.6105    5.0542 H   0  0  0  0  0  0  0  0  0  0  0  0
  1  2  2  0  0  0  0
  1  3  2  0  0  0  0
  1  7  1  0  0  0  0
  1 20  1  0  0  0  0
  4 21  2  0  0  0  0
  5 19  1  0  0  0  0
  6 19  2  0  0  0  0
  7 19  1  0  0  0  0
  8 10  1  0  0  0  0
  8 22  1  0  0  0  0
  9 21  1  0  0  0  0
  9 23  1  0  0  0  0
 10 24  2  0  0  0  0
 11 12  2  0  0  0  0
 11 15  1  0  0  0  0
 12 16  1  0  0  0  0
 13 17  1  0  0  0  0
 13 20  2  0  0  0  0
 14 18  2  0  0  0  0
 14 20  1  0  0  0  0
 15 23  2  0  0  0  0
 16 25  2  0  0  0  0
 17 22  2  0  0  0  0
 18 22  1  0  0  0  0
 21 24  1  0  0  0  0
 23 25  1  0  0  0  0
 24 25  1  0  0  0  0
  5 26  1  0  0  0  0
  5 27  1  0  0  0  0
  6 28  1  0  0  0  0
  7 29  1  0  0  0  0
  8 30  1  0  0  0  0
  9 31  1  0  0  0  0
 10 32  1  0  0  0  0
 11 33  1  0  0  0  0
 12 34  1  0  0  0  0
 13 35  1  0  0  0  0
 14 36  1  0  0  0  0
 15 37  1  0  0  0  0
 16 38  1  0  0  0  0
 17 39  1  0  0  0  0
 18 40  1  0  0  0  0
M  END
> <pdb_id>
4FKP

> <uniprot_id>
P24941

> <usmiles>
S(=O)(=O)(NC(=N)N)c1ccc(N/C=C\2/c3c(NC2=O)cccc3)cc1

$$$$
LSA_A_503
          07192416293D 1   1.00000     0.00000     0
            
 17 18  0  0  0  0            999 V2000
   -6.3943    1.0779   17.1227 S   0  0  0  0  0  0  0  0  0  0  0  0
   -5.7089    1.0252   18.4004 O   0  0  0  0  0  0  0  0  0  0  0  0
   -7.8251    0.8757   17.0645 O   0  0  0  0  0  0  0  0  0  0  0  0
   -4.3563    0.1920   14.2273 O   0  0  0  0  0  0  0  0  0  0  0  0
   -5.6185    0.1418   15.9961 N   0  0  0  0  0  0  0  0  0  0  0  0
   -5.8378    4.8973   15.7426 C   0  0  0  0  0  0  0  0  0  0  0  0
   -5.0543    4.5982   14.6171 C   0  0  0  0  0  0  0  0  0  0  0  0
   -6.3084    3.8774   16.5767 C   0  0  0  0  0  0  0  0  0  0  0  0
   -4.6774    3.2806   14.3416 C   0  0  0  0  0  0  0  0  0  0  0  0
   -5.9587    2.5637   16.2652 C   0  0  0  0  0  0  0  0  0  0  0  0
   -4.8784    0.7874   15.1629 C   0  0  0  0  0  0  0  0  0  0  0  0
   -5.1972    2.2654   15.1438 C   0  0  0  0  0  0  0  0  0  0  0  0
   -3.7807    0.6884   13.5775 H   0  0  0  0  0  0  0  0  0  0  0  0
   -6.0619    5.8494   15.9505 H   0  0  0  0  0  0  0  0  0  0  0  0
   -4.7629    5.3347   14.0066 H   0  0  0  0  0  0  0  0  0  0  0  0
   -6.8783    4.0841   17.3720 H   0  0  0  0  0  0  0  0  0  0  0  0
   -4.0521    3.0717   13.5896 H   0  0  0  0  0  0  0  0  0  0  0  0
  1  2  2  0  0  0  0
  1  3  2  0  0  0  0
  1  5  1  0  0  0  0
  1 10  1  0  0  0  0
  4 11  1  0  0  0  0
  5 11  2  0  0  0  0
  6  7  2  0  0  0  0
  6  8  1  0  0  0  0
  7  9  1  0  0  0  0
  8 10  2  0  0  0  0
  9 12  2  0  0  0  0
 10 12  1  0  0  0  0
 11 12  1  0  0  0  0
  4 13  1  0  0  0  0
  6 14  1  0  0  0  0
  7 15  1  0  0  0  0
  8 16  1  0  0  0  0
  9 17  1  0  0  0  0
M  END
> <pdb_id>
2Q38

> <uniprot_id>
P00918

> <usmiles>
S1(=O)(=O)N=C(O)c2c1cccc2

$$$$
LSS_A_901
          07212403303D 1   1.00000     0.00000     0
            
 56 58  0  0  0  0            999 V2000
   -4.2320   -6.5150  -27.2150 S   0  0  0  0  0  0  0  0  0  0  0  0
   -4.7140   -5.9430  -26.0090 O   0  0  0  0  0  0  0  0  0  0  0  0
   -3.7110   -7.8380  -27.2500 O   0  0  0  0  0  0  0  0  0  0  0  0
   -4.1950   -3.6880  -27.6750 O   0  0  0  0  0  0  0  0  0  0  0  0
   -9.2920   -4.3230  -29.3760 O   0  0  0  0  0  0  0  0  0  0  0  0
   -7.5860   -4.6010  -31.4160 O   0  0  0  0  0  0  0  0  0  0  0  0
   -5.5030   -6.5330  -28.1780 O   0  0  0  0  0  0  0  0  0  0  0  0
   -7.6020   -7.4260  -29.8650 O   0  0  0  0  0  0  0  0  0  0  0  0
  -12.8550   -8.8110  -25.6790 N   0  0  0  0  0  0  0  0  0  0  0  0
   -0.8430   -4.4160  -28.6310 N   0  0  0  0  0  0  0  0  0  0  0  0
   -3.0770   -5.6330  -27.8750 N   0  0  0  0  0  0  0  0  0  0  0  0
  -13.3330   -8.3550  -27.8920 N   0  0  0  0  0  0  0  0  0  0  0  0
  -11.6950   -7.6000  -29.4930 N   0  0  0  0  0  0  0  0  0  0  0  0
   -9.9560   -8.0150  -26.4040 N   0  0  0  0  0  0  0  0  0  0  0  0
   -9.4940   -7.3330  -28.4990 N   0  0  0  0  0  0  0  0  0  0  0  0
   -1.4980   -1.5830  -32.0450 C   0  0  0  0  0  0  0  0  0  0  0  0
   -1.4520   -0.6410  -29.7040 C   0  0  0  0  0  0  0  0  0  0  0  0
   -5.2710   -6.8290  -29.6000 C   0  0  0  0  0  0  0  0  0  0  0  0
  -12.9200   -7.9600  -29.1000 C   0  0  0  0  0  0  0  0  0  0  0  0
   -9.0340   -7.5890  -27.2240 C   0  0  0  0  0  0  0  0  0  0  0  0
   -2.2850   -2.9910  -30.0910 C   0  0  0  0  0  0  0  0  0  0  0  0
   -3.1570   -4.2110  -28.0590 C   0  0  0  0  0  0  0  0  0  0  0  0
   -8.7650   -6.6790  -29.5730 C   0  0  1  0  0  0  0  0  0  0  0  0
   -8.2640   -5.2840  -29.1970 C   0  0  1  0  0  0  0  0  0  0  0  0
   -7.1040   -5.1020  -30.1730 C   0  0  1  0  0  0  0  0  0  0  0  0
  -12.4320   -8.4270  -26.8910 C   0  0  0  0  0  0  0  0  0  0  0  0
   -6.5590   -6.5330  -30.3330 C   0  0  2  0  0  0  0  0  0  0  0  0
   -1.9810   -3.4820  -28.6710 C   0  0  1  0  0  0  0  0  0  0  0  0
  -10.8270   -7.6680  -28.4750 C   0  0  0  0  0  0  0  0  0  0  0  0
   -1.3170   -1.9020  -30.5620 C   0  0  0  0  0  0  0  0  0  0  0  0
  -11.1030   -8.0720  -27.1760 C   0  0  0  0  0  0  0  0  0  0  0  0
   -8.9490   -3.4175  -29.1262 H   0  0  0  0  0  0  0  0  0  0  0  0
   -6.8200   -4.4851  -32.0483 H   0  0  0  0  0  0  0  0  0  0  0  0
  -12.2072   -8.8726  -24.9197 H   0  0  0  0  0  0  0  0  0  0  0  0
  -13.8185   -9.0360  -25.5338 H   0  0  0  0  0  0  0  0  0  0  0  0
   -0.6839   -4.7073  -27.6877 H   0  0  0  0  0  0  0  0  0  0  0  0
   -1.0475   -5.2149  -29.1966 H   0  0  0  0  0  0  0  0  0  0  0  0
   -2.2464   -6.0994  -28.1792 H   0  0  0  0  0  0  0  0  0  0  0  0
   -1.4050   -2.4225  -32.5803 H   0  0  0  0  0  0  0  0  0  0  0  0
   -2.4063   -1.1919  -32.1934 H   0  0  0  0  0  0  0  0  0  0  0  0
   -0.8011   -0.9257  -32.3320 H   0  0  0  0  0  0  0  0  0  0  0  0
   -1.3293   -0.8787  -28.7404 H   0  0  0  0  0  0  0  0  0  0  0  0
   -0.7548    0.0227  -29.9749 H   0  0  0  0  0  0  0  0  0  0  0  0
   -2.3600   -0.2435  -29.8363 H   0  0  0  0  0  0  0  0  0  0  0  0
   -5.0251   -7.7916  -29.7141 H   0  0  0  0  0  0  0  0  0  0  0  0
   -4.5347   -6.2526  -29.9544 H   0  0  0  0  0  0  0  0  0  0  0  0
  -13.6257   -7.9297  -29.8079 H   0  0  0  0  0  0  0  0  0  0  0  0
   -8.0803   -7.4599  -26.9524 H   0  0  0  0  0  0  0  0  0  0  0  0
   -3.2143   -2.6222  -30.1095 H   0  0  0  0  0  0  0  0  0  0  0  0
   -2.2220   -3.7675  -30.7179 H   0  0  0  0  0  0  0  0  0  0  0  0
   -9.3428   -6.6220  -30.3872 H   0  0  0  0  0  0  0  0  0  0  0  0
   -7.9335   -5.2725  -28.2533 H   0  0  0  0  0  0  0  0  0  0  0  0
   -6.4072   -4.4956  -29.7899 H   0  0  0  0  0  0  0  0  0  0  0  0
   -6.4122   -6.7055  -31.3070 H   0  0  0  0  0  0  0  0  0  0  0  0
   -1.7641   -2.6905  -28.0996 H   0  0  0  0  0  0  0  0  0  0  0  0
   -0.3880   -2.2514  -30.4401 H   0  0  0  0  0  0  0  0  0  0  0  0
  1  2  2  0  0  0  0
  1  3  2  0  0  0  0
  1  7  1  0  0  0  0
  1 11  1  0  0  0  0
  4 22  2  0  0  0  0
  5 24  1  0  0  0  0
  6 25  1  0  0  0  0
  7 18  1  0  0  0  0
  8 23  1  0  0  0  0
  8 27  1  0  0  0  0
  9 26  1  0  0  0  0
 10 28  1  0  0  0  0
 11 22  1  0  0  0  0
 12 19  1  0  0  0  0
 12 26  2  0  0  0  0
 13 19  2  0  0  0  0
 13 29  1  0  0  0  0
 14 20  2  0  0  0  0
 14 31  1  0  0  0  0
 15 20  1  0  0  0  0
 15 23  1  0  0  0  0
 15 29  1  0  0  0  0
 16 30  1  0  0  0  0
 17 30  1  0  0  0  0
 18 27  1  0  0  0  0
 21 28  1  0  0  0  0
 21 30  1  0  0  0  0
 22 28  1  0  0  0  0
 23 24  1  0  0  0  0
 24 25  1  0  0  0  0
 25 27  1  0  0  0  0
 26 31  1  0  0  0  0
 29 31  2  0  0  0  0
  5 32  1  0  0  0  0
  6 33  1  0  0  0  0
  9 34  1  0  0  0  0
  9 35  1  0  0  0  0
 10 36  1  0  0  0  0
 10 37  1  0  0  0  0
 11 38  1  0  0  0  0
 16 39  1  0  0  0  0
 16 40  1  0  0  0  0
 16 41  1  0  0  0  0
 17 42  1  0  0  0  0
 17 43  1  0  0  0  0
 17 44  1  0  0  0  0
 18 45  1  0  0  0  0
 18 46  1  0  0  0  0
 19 47  1  0  0  0  0
 20 48  1  0  0  0  0
 21 49  1  0  0  0  0
 21 50  1  0  0  0  0
 23 51  1  0  0  0  0
 24 52  1  0  0  0  0
 25 53  1  0  0  0  0
 27 54  1  0  0  0  0
 28 55  1  0  0  0  0
 30 56  1  0  0  0  0
M  END
> <pdb_id>
6Q89

> <uniprot_id>
nan

> <usmiles>
S(=O)(=O)(OC[C@H]1O[C@@H](N2c3ncnc(N)c3N=C2)[C@H](O)[C@@H]1O)NC(=O)[C@@H](N)CC(C)C

$$$$
LSX_B_505
          07202406173D 1   1.00000     0.00000     0
            
 38 38  0  0  0  0            999 V2000
   -0.5658   16.2493   21.3749 P   0  0  0  0  0  0  0  0  0  0  0  0
   -1.6933   15.5422   22.0944 O   0  0  0  0  0  0  0  0  0  0  0  0
    0.2266   17.1003   22.3346 O   0  0  0  0  0  0  0  0  0  0  0  0
   -0.9739   17.0265   20.1481 O   0  0  0  0  0  0  0  0  0  0  0  0
    4.6047   14.5540   18.4739 O   0  0  0  0  0  0  0  0  0  0  0  0
    3.9392   15.2748   20.8309 O   0  0  0  0  0  0  0  0  0  0  0  0
   -1.7476   11.1292   17.2746 O   0  0  0  0  0  0  0  0  0  0  0  0
    3.7580   13.7415   19.2378 N   0  0  0  0  0  0  0  0  0  0  0  0
   -2.6942   10.1571   17.7400 C   0  0  0  0  0  0  0  0  0  0  0  0
    3.3122   12.4991   18.6211 C   0  0  0  0  0  0  0  0  0  0  0  0
    2.5574   13.4454   21.4003 C   0  0  0  0  0  0  0  0  0  0  0  0
    1.4069   14.3443   21.8904 C   0  0  0  0  0  0  0  0  0  0  0  0
   -0.4283   13.1108   17.6149 C   0  0  0  0  0  0  0  0  0  0  0  0
   -1.3503   11.9581   19.5236 C   0  0  0  0  0  0  0  0  0  0  0  0
    0.1351   14.0464   18.4909 C   0  0  0  0  0  0  0  0  0  0  0  0
   -0.7918   12.8950   20.3989 C   0  0  0  0  0  0  0  0  0  0  0  0
    3.4723   14.2082   20.4626 C   0  0  0  0  0  0  0  0  0  0  0  0
    0.6099   14.9812   20.7550 C   0  0  1  0  0  0  0  0  0  0  0  0
   -1.1769   12.0550   18.1352 C   0  0  0  0  0  0  0  0  0  0  0  0
   -0.0378   13.9479   19.8807 C   0  0  0  0  0  0  0  0  0  0  0  0
   -2.2063   14.9838   21.4426 H   0  0  0  0  0  0  0  0  0  0  0  0
    0.9659   17.5588   21.8413 H   0  0  0  0  0  0  0  0  0  0  0  0
    4.7604   14.1282   17.5826 H   0  0  0  0  0  0  0  0  0  0  0  0
   -2.9878    9.5846   16.9744 H   0  0  0  0  0  0  0  0  0  0  0  0
   -2.2671    9.5844   18.4398 H   0  0  0  0  0  0  0  0  0  0  0  0
   -3.4875   10.6244   18.1301 H   0  0  0  0  0  0  0  0  0  0  0  0
    2.7171   12.0066   19.2562 H   0  0  0  0  0  0  0  0  0  0  0  0
    2.8072   12.7055   17.7831 H   0  0  0  0  0  0  0  0  0  0  0  0
    4.1063   11.9326   18.4009 H   0  0  0  0  0  0  0  0  0  0  0  0
    2.1753   12.6576   20.9171 H   0  0  0  0  0  0  0  0  0  0  0  0
    3.0853   13.1290   22.1885 H   0  0  0  0  0  0  0  0  0  0  0  0
    1.7930   15.0738   22.4549 H   0  0  0  0  0  0  0  0  0  0  0  0
    0.7843   13.7896   22.4425 H   0  0  0  0  0  0  0  0  0  0  0  0
   -0.2956   13.1983   16.6276 H   0  0  0  0  0  0  0  0  0  0  0  0
   -1.8862   11.2007   19.8966 H   0  0  0  0  0  0  0  0  0  0  0  0
    0.6731   14.8024   18.1180 H   0  0  0  0  0  0  0  0  0  0  0  0
   -0.9315   12.8109   21.3855 H   0  0  0  0  0  0  0  0  0  0  0  0
    1.2710   15.4641   20.1808 H   0  0  0  0  0  0  0  0  0  0  0  0
  1  2  1  0  0  0  0
  1  3  1  0  0  0  0
  1  4  2  0  0  0  0
  1 18  1  0  0  0  0
  5  8  1  0  0  0  0
  6 17  2  0  0  0  0
  7  9  1  0  0  0  0
  7 19  1  0  0  0  0
  8 10  1  0  0  0  0
  8 17  1  0  0  0  0
 11 12  1  0  0  0  0
 11 17  1  0  0  0  0
 12 18  1  0  0  0  0
 13 15  2  0  0  0  0
 13 19  1  0  0  0  0
 14 16  1  0  0  0  0
 14 19  2  0  0  0  0
 15 20  1  0  0  0  0
 16 20  2  0  0  0  0
 18 20  1  0  0  0  0
  2 21  1  0  0  0  0
  3 22  1  0  0  0  0
  5 23  1  0  0  0  0
  9 24  1  0  0  0  0
  9 25  1  0  0  0  0
  9 26  1  0  0  0  0
 10 27  1  0  0  0  0
 10 28  1  0  0  0  0
 10 29  1  0  0  0  0
 11 30  1  0  0  0  0
 11 31  1  0  0  0  0
 12 32  1  0  0  0  0
 12 33  1  0  0  0  0
 13 34  1  0  0  0  0
 14 35  1  0  0  0  0
 15 36  1  0  0  0  0
 16 37  1  0  0  0  0
 18 38  1  0  0  0  0
M  END
> <pdb_id>
3WQR

> <uniprot_id>
O96693

> <usmiles>
P(=O)(O)(O)[C@H](c1ccc(OC)cc1)CCC(=O)N(O)C

$$$$
LT3_B_2002
          07192418533D 1   1.00000     0.00000     0
            
 28 30  0  0  0  0            999 V2000
   28.0541   41.0554   16.9642 F   0  0  0  0  0  0  0  0  0  0  0  0
   26.4968   41.6909   15.5885 F   0  0  0  0  0  0  0  0  0  0  0  0
   26.2341   41.9582   17.7232 F   0  0  0  0  0  0  0  0  0  0  0  0
   28.9093   44.7361   21.1947 N   0  0  0  0  0  0  0  0  0  0  0  0
   28.2321   45.3192   15.3212 C   0  0  0  0  0  0  0  0  0  0  0  0
   28.9206   45.8661   16.3969 C   0  0  0  0  0  0  0  0  0  0  0  0
   30.7359   44.5212   19.4456 C   0  0  0  0  0  0  0  0  0  0  0  0
   30.2380   43.1349   19.0510 C   0  0  0  0  0  0  0  0  0  0  0  0
   27.6530   44.0627   15.4381 C   0  0  0  0  0  0  0  0  0  0  0  0
   28.6128   44.7179   19.7519 C   0  0  1  0  0  0  0  0  0  0  0  0
   29.6772   45.4486   18.9120 C   0  0  2  0  0  0  0  0  0  0  0  0
   28.7312   43.3188   19.1211 C   0  0  1  0  0  0  0  0  0  0  0  0
   29.0430   45.1374   17.5758 C   0  0  0  0  0  0  0  0  0  0  0  0
   28.4312   43.8970   17.7249 C   0  0  0  0  0  0  0  0  0  0  0  0
   27.7628   43.3499   16.6290 C   0  0  0  0  0  0  0  0  0  0  0  0
   27.1167   41.9668   16.7313 C   0  0  0  0  0  0  0  0  0  0  0  0
   28.1889   44.2497   21.6892 H   0  0  0  0  0  0  0  0  0  0  0  0
   29.7880   44.2882   21.3601 H   0  0  0  0  0  0  0  0  0  0  0  0
   28.1538   45.8294   14.4647 H   0  0  0  0  0  0  0  0  0  0  0  0
   29.3256   46.7776   16.3243 H   0  0  0  0  0  0  0  0  0  0  0  0
   31.6228   44.7140   19.0258 H   0  0  0  0  0  0  0  0  0  0  0  0
   30.8127   44.6025   20.4393 H   0  0  0  0  0  0  0  0  0  0  0  0
   30.5508   42.4378   19.6961 H   0  0  0  0  0  0  0  0  0  0  0  0
   30.5331   42.8907   18.1273 H   0  0  0  0  0  0  0  0  0  0  0  0
   27.1559   43.6688   14.6651 H   0  0  0  0  0  0  0  0  0  0  0  0
   27.7066   45.1031   19.5775 H   0  0  0  0  0  0  0  0  0  0  0  0
   29.8041   46.4189   19.1183 H   0  0  0  0  0  0  0  0  0  0  0  0
   28.1641   42.5744   19.4737 H   0  0  0  0  0  0  0  0  0  0  0  0
  1 16  1  0  0  0  0
  2 16  1  0  0  0  0
  3 16  1  0  0  0  0
  4 10  1  0  0  0  0
  5  6  2  0  0  0  0
  5  9  1  0  0  0  0
  6 13  1  0  0  0  0
  7  8  1  0  0  0  0
  7 11  1  0  0  0  0
  8 12  1  0  0  0  0
  9 15  2  0  0  0  0
 10 11  1  0  0  0  0
 10 12  1  0  0  0  0
 11 13  1  0  0  0  0
 12 14  1  0  0  0  0
 13 14  2  0  0  0  0
 14 15  1  0  0  0  0
 15 16  1  0  0  0  0
  4 17  1  0  0  0  0
  4 18  1  0  0  0  0
  5 19  1  0  0  0  0
  6 20  1  0  0  0  0
  7 21  1  0  0  0  0
  7 22  1  0  0  0  0
  8 23  1  0  0  0  0
  8 24  1  0  0  0  0
  9 25  1  0  0  0  0
 10 26  1  0  0  0  0
 11 27  1  0  0  0  0
 12 28  1  0  0  0  0
M  END
> <pdb_id>
3HCC

> <uniprot_id>
P11086

> <usmiles>
FC(F)(F)c1c2c(ccc1)[C@H]3[C@H](N)[C@@H]2CC3

$$$$
LTM_B_1716
          07202405173D 1   1.00000     0.00000     0
            
 29 29  0  0  0  0            999 V2000
   26.2640    3.1111  287.7685 O   0  0  0  0  0  0  0  0  0  0  0  0
   27.3948    1.6655  293.2453 O   0  0  0  0  0  0  0  0  0  0  0  0
   28.1263   -0.1734  290.7238 O   0  0  0  0  0  0  0  0  0  0  0  0
   27.9562    5.2048  289.9267 O   0  0  0  0  0  0  0  0  0  0  0  0
   30.2636    4.0523  291.0368 O   0  0  0  0  0  0  0  0  0  0  0  0
   26.9413    1.5630  290.0381 N   0  0  0  0  0  0  0  0  0  0  0  0
   29.5734    1.4528  292.5063 N   0  0  0  0  0  0  0  0  0  0  0  0
   29.0121    1.0746  294.8794 C   0  0  0  0  0  0  0  0  0  0  0  0
   25.7101    3.3908  289.0570 C   0  0  0  0  0  0  0  0  0  0  0  0
   28.5810    1.4365  293.4829 C   0  0  0  0  0  0  0  0  0  0  0  0
   28.0706    1.0519  290.6110 C   0  0  0  0  0  0  0  0  0  0  0  0
   26.7514    3.0374  290.1139 C   0  0  2  0  0  0  0  0  0  0  0  0
   28.0980    3.7737  289.9389 C   0  0  2  0  0  0  0  0  0  0  0  0
   28.9735    3.4010  291.1379 C   0  0  1  0  0  0  0  0  0  0  0  0
   29.2214    1.8909  291.1302 C   0  0  1  0  0  0  0  0  0  0  0  0
   25.5940    3.3372  287.0614 H   0  0  0  0  0  0  0  0  0  0  0  0
   28.8549    5.6278  289.8113 H   0  0  0  0  0  0  0  0  0  0  0  0
   30.8262    3.8016  291.8246 H   0  0  0  0  0  0  0  0  0  0  0  0
   26.2714    0.9729  289.5875 H   0  0  0  0  0  0  0  0  0  0  0  0
   30.5081    1.1743  292.7272 H   0  0  0  0  0  0  0  0  0  0  0  0
   30.0003    0.9227  294.8945 H   0  0  0  0  0  0  0  0  0  0  0  0
   28.7799    1.8205  295.5037 H   0  0  0  0  0  0  0  0  0  0  0  0
   28.5422    0.2403  295.1677 H   0  0  0  0  0  0  0  0  0  0  0  0
   24.8863    2.8416  289.1973 H   0  0  0  0  0  0  0  0  0  0  0  0
   25.4786    4.3615  289.1219 H   0  0  0  0  0  0  0  0  0  0  0  0
   26.3799    3.2641  291.0143 H   0  0  0  0  0  0  0  0  0  0  0  0
   28.5390    3.4721  289.0936 H   0  0  0  0  0  0  0  0  0  0  0  0
   28.5208    3.6689  291.9884 H   0  0  0  0  0  0  0  0  0  0  0  0
   30.0128    1.7163  290.5444 H   0  0  0  0  0  0  0  0  0  0  0  0
  1  9  1  0  0  0  0
  2 10  2  0  0  0  0
  3 11  2  0  0  0  0
  4 13  1  0  0  0  0
  5 14  1  0  0  0  0
  6 11  1  0  0  0  0
  6 12  1  0  0  0  0
  7 10  1  0  0  0  0
  7 15  1  0  0  0  0
  8 10  1  0  0  0  0
  9 12  1  0  0  0  0
 11 15  1  0  0  0  0
 12 13  1  0  0  0  0
 13 14  1  0  0  0  0
 14 15  1  0  0  0  0
  1 16  1  0  0  0  0
  4 17  1  0  0  0  0
  5 18  1  0  0  0  0
  6 19  1  0  0  0  0
  7 20  1  0  0  0  0
  8 21  1  0  0  0  0
  8 22  1  0  0  0  0
  8 23  1  0  0  0  0
  9 24  1  0  0  0  0
  9 25  1  0  0  0  0
 12 26  1  0  0  0  0
 13 27  1  0  0  0  0
 14 28  1  0  0  0  0
 15 29  1  0  0  0  0
M  END
> <pdb_id>
2XM1

> <uniprot_id>
Q89ZI2

> <usmiles>
O=C1N[C@@H]([C@@H](O)[C@H](O)[C@H]1NC(=O)C)CO

$$$$
LTS_A_601
          07202407493D 1   1.00000     0.00000     0
            
 49 51  0  0  0  0            999 V2000
    7.8731   -2.7107   46.5059 S   0  0  0  0  0  0  0  0  0  0  0  0
   12.3171   -0.8235   46.1866 F   0  0  0  0  0  0  0  0  0  0  0  0
   13.2841    1.0988   46.7613 F   0  0  0  0  0  0  0  0  0  0  0  0
   13.8744   -0.7810   47.7864 F   0  0  0  0  0  0  0  0  0  0  0  0
    6.8311   -3.4524   47.1148 O   0  0  0  0  0  0  0  0  0  0  0  0
    7.6250   -1.5663   45.7156 O   0  0  0  0  0  0  0  0  0  0  0  0
   11.7613    0.1115   48.2350 O   0  0  0  0  0  0  0  0  0  0  0  0
    8.4382   -7.9044   43.3985 N   0  0  0  0  0  0  0  0  0  0  0  0
   10.3633   -8.2699   36.3164 N   0  0  0  0  0  0  0  0  0  0  0  0
   10.0071   -7.8921   41.4890 N   0  0  0  0  0  0  0  0  0  0  0  0
   11.7685   -6.4599   42.2855 N   0  0  0  0  0  0  0  0  0  0  0  0
   11.8221   -7.3513   40.1401 N   0  0  0  0  0  0  0  0  0  0  0  0
    9.1544   -7.8910   42.5296 C   0  0  0  0  0  0  0  0  0  0  0  0
   11.5101   -7.6394   36.4834 C   0  0  0  0  0  0  0  0  0  0  0  0
    9.6518   -8.6426   37.3778 C   0  0  0  0  0  0  0  0  0  0  0  0
   11.5911   -6.6006   43.7239 C   0  0  0  0  0  0  0  0  0  0  0  0
    9.7637   -2.3221   50.0778 C   0  0  0  0  0  0  0  0  0  0  0  0
    8.8834   -2.7377   49.0819 C   0  0  0  0  0  0  0  0  0  0  0  0
   12.0006   -7.3302   37.7364 C   0  0  0  0  0  0  0  0  0  0  0  0
   10.0658   -8.3567   38.6679 C   0  0  0  0  0  0  0  0  0  0  0  0
    9.1425   -5.0955   46.1537 C   0  0  0  0  0  0  0  0  0  0  0  0
    9.5997   -3.4392   44.4978 C   0  0  0  0  0  0  0  0  0  0  0  0
   10.7283   -1.3691   49.7936 C   0  0  0  0  0  0  0  0  0  0  0  0
    9.9885   -5.9901   45.5191 C   0  0  0  0  0  0  0  0  0  0  0  0
   10.4449   -4.3319   43.8671 C   0  0  0  0  0  0  0  0  0  0  0  0
    9.9353   -1.2495   47.5268 C   0  0  0  0  0  0  0  0  0  0  0  0
    8.9287   -3.8345   45.6410 C   0  0  0  0  0  0  0  0  0  0  0  0
    8.9702   -2.2004   47.8005 C   0  0  0  0  0  0  0  0  0  0  0  0
   10.8286   -0.8412   48.5104 C   0  0  0  0  0  0  0  0  0  0  0  0
   11.1536   -7.2338   41.3392 C   0  0  0  0  0  0  0  0  0  0  0  0
   11.2716   -7.6699   38.8830 C   0  0  0  0  0  0  0  0  0  0  0  0
   10.6451   -5.6143   44.3570 C   0  0  0  0  0  0  0  0  0  0  0  0
   12.7949   -0.1027   47.2564 C   0  0  0  0  0  0  0  0  0  0  0  0
    9.7412   -8.4705   40.7177 H   0  0  0  0  0  0  0  0  0  0  0  0
   12.3872   -5.7427   41.9646 H   0  0  0  0  0  0  0  0  0  0  0  0
   12.0407   -7.3772   35.6773 H   0  0  0  0  0  0  0  0  0  0  0  0
    8.7964   -9.1420   37.2400 H   0  0  0  0  0  0  0  0  0  0  0  0
   12.4858   -6.4920   44.1573 H   0  0  0  0  0  0  0  0  0  0  0  0
   11.2433   -7.5208   43.9034 H   0  0  0  0  0  0  0  0  0  0  0  0
    9.6996   -2.7110   50.9968 H   0  0  0  0  0  0  0  0  0  0  0  0
    8.1865   -3.4245   49.2880 H   0  0  0  0  0  0  0  0  0  0  0  0
   12.8797   -6.8619   37.8256 H   0  0  0  0  0  0  0  0  0  0  0  0
    9.5059   -8.6394   39.4467 H   0  0  0  0  0  0  0  0  0  0  0  0
    8.6798   -5.3690   46.9969 H   0  0  0  0  0  0  0  0  0  0  0  0
    9.4745   -2.5171   44.1318 H   0  0  0  0  0  0  0  0  0  0  0  0
   11.3527   -1.0606   50.5112 H   0  0  0  0  0  0  0  0  0  0  0  0
   10.1255   -6.9052   45.8983 H   0  0  0  0  0  0  0  0  0  0  0  0
   10.9241   -4.0465   43.0371 H   0  0  0  0  0  0  0  0  0  0  0  0
    9.9915   -0.8511   46.6114 H   0  0  0  0  0  0  0  0  0  0  0  0
  1  5  2  0  0  0  0
  1  6  2  0  0  0  0
  1 27  1  0  0  0  0
  1 28  1  0  0  0  0
  2 33  1  0  0  0  0
  3 33  1  0  0  0  0
  4 33  1  0  0  0  0
  7 29  1  0  0  0  0
  7 33  1  0  0  0  0
  8 13  3  0  0  0  0
  9 14  2  0  0  0  0
  9 15  1  0  0  0  0
 10 13  1  0  0  0  0
 10 30  1  0  0  0  0
 11 16  1  0  0  0  0
 11 30  1  0  0  0  0
 12 30  2  0  0  0  0
 12 31  1  0  0  0  0
 14 19  1  0  0  0  0
 15 20  2  0  0  0  0
 16 32  1  0  0  0  0
 17 18  2  0  0  0  0
 17 23  1  0  0  0  0
 18 28  1  0  0  0  0
 19 31  2  0  0  0  0
 20 31  1  0  0  0  0
 21 24  1  0  0  0  0
 21 27  2  0  0  0  0
 22 25  2  0  0  0  0
 22 27  1  0  0  0  0
 23 29  2  0  0  0  0
 24 32  2  0  0  0  0
 25 32  1  0  0  0  0
 26 28  2  0  0  0  0
 26 29  1  0  0  0  0
 10 34  1  0  0  0  0
 11 35  1  0  0  0  0
 14 36  1  0  0  0  0
 15 37  1  0  0  0  0
 16 38  1  0  0  0  0
 16 39  1  0  0  0  0
 17 40  1  0  0  0  0
 18 41  1  0  0  0  0
 19 42  1  0  0  0  0
 20 43  1  0  0  0  0
 21 44  1  0  0  0  0
 22 45  1  0  0  0  0
 23 46  1  0  0  0  0
 24 47  1  0  0  0  0
 25 48  1  0  0  0  0
 26 49  1  0  0  0  0
M  END
> <pdb_id>
4LTS

> <uniprot_id>
P43490

> <usmiles>
S(=O)(=O)(c1cc(OC(F)(F)F)ccc1)c2ccc(cc2)CNC(=Nc3ccncc3)NC#N

$$$$
LTS_B_601
          07202407493D 1   1.00000     0.00000     0
            
 49 51  0  0  0  0            999 V2000
    7.8520   -2.7200   46.4970 S   0  0  0  0  0  0  0  0  0  0  0  0
   12.3030   -0.2980   46.0770 F   0  0  0  0  0  0  0  0  0  0  0  0
   13.7100    0.8250   47.4490 F   0  0  0  0  0  0  0  0  0  0  0  0
   13.3720   -1.3630   47.7750 F   0  0  0  0  0  0  0  0  0  0  0  0
    6.8170   -3.4880   47.0970 O   0  0  0  0  0  0  0  0  0  0  0  0
    7.6180   -1.5790   45.6980 O   0  0  0  0  0  0  0  0  0  0  0  0
   11.6680    0.1490   48.2700 O   0  0  0  0  0  0  0  0  0  0  0  0
    8.3720   -7.8970   43.3680 N   0  0  0  0  0  0  0  0  0  0  0  0
   10.2900   -8.2430   36.3580 N   0  0  0  0  0  0  0  0  0  0  0  0
   10.0410   -7.9130   41.5270 N   0  0  0  0  0  0  0  0  0  0  0  0
   11.6950   -6.3620   42.2790 N   0  0  0  0  0  0  0  0  0  0  0  0
   11.8490   -7.3450   40.1500 N   0  0  0  0  0  0  0  0  0  0  0  0
    9.1360   -7.8840   42.5290 C   0  0  0  0  0  0  0  0  0  0  0  0
   11.4310   -7.5710   36.4670 C   0  0  0  0  0  0  0  0  0  0  0  0
    9.6240   -8.6320   37.4360 C   0  0  0  0  0  0  0  0  0  0  0  0
   11.6030   -6.5540   43.7240 C   0  0  0  0  0  0  0  0  0  0  0  0
    9.6930   -2.3120   50.0890 C   0  0  0  0  0  0  0  0  0  0  0  0
    8.8410   -2.7360   49.0770 C   0  0  0  0  0  0  0  0  0  0  0  0
   11.9500   -7.2790   37.7140 C   0  0  0  0  0  0  0  0  0  0  0  0
   10.0900   -8.3700   38.7170 C   0  0  0  0  0  0  0  0  0  0  0  0
    9.1280   -5.0990   46.2000 C   0  0  0  0  0  0  0  0  0  0  0  0
    9.5670   -3.4500   44.5030 C   0  0  0  0  0  0  0  0  0  0  0  0
   10.6430   -1.3470   49.7990 C   0  0  0  0  0  0  0  0  0  0  0  0
    9.9860   -5.9850   45.5520 C   0  0  0  0  0  0  0  0  0  0  0  0
   10.4230   -4.3330   43.8800 C   0  0  0  0  0  0  0  0  0  0  0  0
    9.8850   -1.2310   47.5100 C   0  0  0  0  0  0  0  0  0  0  0  0
    8.9160   -3.8400   45.6570 C   0  0  0  0  0  0  0  0  0  0  0  0
    8.9280   -2.1930   47.7960 C   0  0  0  0  0  0  0  0  0  0  0  0
   10.7400   -0.8070   48.5210 C   0  0  0  0  0  0  0  0  0  0  0  0
   11.1560   -7.2060   41.3380 C   0  0  0  0  0  0  0  0  0  0  0  0
   11.2780   -7.6490   38.8910 C   0  0  0  0  0  0  0  0  0  0  0  0
   10.6430   -5.5960   44.4010 C   0  0  0  0  0  0  0  0  0  0  0  0
   12.7550   -0.1780   47.3900 C   0  0  0  0  0  0  0  0  0  0  0  0
   12.1870   -5.5561   41.9498 H   0  0  0  0  0  0  0  0  0  0  0  0
   12.8406   -7.2198   40.1829 H   0  0  0  0  0  0  0  0  0  0  0  0
   11.9159   -7.2755   35.6438 H   0  0  0  0  0  0  0  0  0  0  0  0
    8.7627   -9.1275   37.3234 H   0  0  0  0  0  0  0  0  0  0  0  0
   12.5122   -6.4231   44.1193 H   0  0  0  0  0  0  0  0  0  0  0  0
   11.2943   -7.4887   43.9001 H   0  0  0  0  0  0  0  0  0  0  0  0
    9.6217   -2.6963   51.0094 H   0  0  0  0  0  0  0  0  0  0  0  0
    8.1568   -3.4394   49.2698 H   0  0  0  0  0  0  0  0  0  0  0  0
   12.8221   -6.7942   37.7800 H   0  0  0  0  0  0  0  0  0  0  0  0
    9.5792   -8.6950   39.5129 H   0  0  0  0  0  0  0  0  0  0  0  0
    8.6699   -5.3676   47.0473 H   0  0  0  0  0  0  0  0  0  0  0  0
    9.4190   -2.5368   44.1234 H   0  0  0  0  0  0  0  0  0  0  0  0
   11.2660   -1.0351   50.5163 H   0  0  0  0  0  0  0  0  0  0  0  0
   10.1264   -6.9039   45.9207 H   0  0  0  0  0  0  0  0  0  0  0  0
   10.8911   -4.0572   43.0405 H   0  0  0  0  0  0  0  0  0  0  0  0
    9.9591   -0.8476   46.5894 H   0  0  0  0  0  0  0  0  0  0  0  0
  1  5  2  0  0  0  0
  1  6  2  0  0  0  0
  1 27  1  0  0  0  0
  1 28  1  0  0  0  0
  2 33  1  0  0  0  0
  3 33  1  0  0  0  0
  4 33  1  0  0  0  0
  7 29  1  0  0  0  0
  7 33  1  0  0  0  0
  8 13  3  0  0  0  0
  9 14  2  0  0  0  0
  9 15  1  0  0  0  0
 10 13  1  0  0  0  0
 10 30  2  0  0  0  0
 11 16  1  0  0  0  0
 11 30  1  0  0  0  0
 12 30  1  0  0  0  0
 12 31  1  0  0  0  0
 14 19  1  0  0  0  0
 15 20  2  0  0  0  0
 16 32  1  0  0  0  0
 17 18  2  0  0  0  0
 17 23  1  0  0  0  0
 18 28  1  0  0  0  0
 19 31  2  0  0  0  0
 20 31  1  0  0  0  0
 21 24  1  0  0  0  0
 21 27  2  0  0  0  0
 22 25  2  0  0  0  0
 22 27  1  0  0  0  0
 23 29  2  0  0  0  0
 24 32  2  0  0  0  0
 25 32  1  0  0  0  0
 26 28  2  0  0  0  0
 26 29  1  0  0  0  0
 11 34  1  0  0  0  0
 12 35  1  0  0  0  0
 14 36  1  0  0  0  0
 15 37  1  0  0  0  0
 16 38  1  0  0  0  0
 16 39  1  0  0  0  0
 17 40  1  0  0  0  0
 18 41  1  0  0  0  0
 19 42  1  0  0  0  0
 20 43  1  0  0  0  0
 21 44  1  0  0  0  0
 22 45  1  0  0  0  0
 23 46  1  0  0  0  0
 24 47  1  0  0  0  0
 25 48  1  0  0  0  0
 26 49  1  0  0  0  0
M  END
> <pdb_id>
4LTS

> <uniprot_id>
P43490

> <usmiles>
S(=O)(=O)(c1cc(OC(F)(F)F)ccc1)c2ccc(cc2)CNC(=NC#N)Nc3ccncc3

$$$$
LUW_A_601
          07212403323D 1   1.00000     0.00000     0
            
 46 49  0  0  0  0            999 V2000
   20.5331    0.3270   36.0384 O   0  0  0  0  0  0  0  0  0  0  0  0
   20.4845   -2.1862   32.8702 O   0  0  0  0  0  0  0  0  0  0  0  0
   27.0083    1.6837   36.5429 O   0  0  0  0  0  0  0  0  0  0  0  0
   16.2800    1.4381   30.5666 N   0  0  0  0  0  0  0  0  0  0  0  0
   18.0071    1.0292   32.8003 N   0  0  0  0  0  0  0  0  0  0  0  0
   18.7974   -0.9080   31.8427 N   0  0  0  0  0  0  0  0  0  0  0  0
   21.5974   -1.4133   35.0763 N   0  0  0  0  0  0  0  0  0  0  0  0
   17.0752    0.3274   30.7326 N   0  0  0  0  0  0  0  0  0  0  0  0
   15.5764    1.2497   29.4468 C   0  0  0  0  0  0  0  0  0  0  0  0
   18.8181    0.9060   33.8318 C   0  0  0  0  0  0  0  0  0  0  0  0
   16.8847   -0.5347   29.7634 C   0  0  0  0  0  0  0  0  0  0  0  0
   15.9436    0.0103   28.9296 C   0  0  0  0  0  0  0  0  0  0  0  0
   28.5071    2.4209   40.3574 C   0  0  0  0  0  0  0  0  0  0  0  0
   29.3131    1.8644   39.3799 C   0  0  0  0  0  0  0  0  0  0  0  0
   27.1886    2.7358   40.0770 C   0  0  0  0  0  0  0  0  0  0  0  0
   28.8025    1.6209   38.1207 C   0  0  0  0  0  0  0  0  0  0  0  0
   26.6800    2.4948   38.8098 C   0  0  0  0  0  0  0  0  0  0  0  0
   25.6644   -0.1314   37.4249 C   0  0  0  0  0  0  0  0  0  0  0  0
   24.9633    1.0740   35.4735 C   0  0  0  0  0  0  0  0  0  0  0  0
   24.5383   -0.9253   37.3432 C   0  0  0  0  0  0  0  0  0  0  0  0
   23.8327    0.2786   35.3817 C   0  0  0  0  0  0  0  0  0  0  0  0
   22.4128   -1.6038   36.2603 C   0  0  0  0  0  0  0  0  0  0  0  0
   20.6241   -0.3609   35.0823 C   0  0  0  0  0  0  0  0  0  0  0  0
   19.6346   -1.0856   32.8541 C   0  0  0  0  0  0  0  0  0  0  0  0
   17.9943    0.1416   31.8365 C   0  0  0  0  0  0  0  0  0  0  0  0
   27.4903    1.9304   37.8385 C   0  0  0  0  0  0  0  0  0  0  0  0
   25.8721    0.8719   36.4970 C   0  0  0  0  0  0  0  0  0  0  0  0
   23.6347   -0.7135   36.3193 C   0  0  0  0  0  0  0  0  0  0  0  0
   19.6943   -0.1618   33.8912 C   0  0  0  0  0  0  0  0  0  0  0  0
   20.2926   -2.6824   33.5326 H   0  0  0  0  0  0  0  0  0  0  0  0
   21.6943   -1.9191   34.3876 H   0  0  0  0  0  0  0  0  0  0  0  0
   14.9556    1.8384   29.0812 H   0  0  0  0  0  0  0  0  0  0  0  0
   18.8014    1.5356   34.5166 H   0  0  0  0  0  0  0  0  0  0  0  0
   17.3063   -1.3569   29.6615 H   0  0  0  0  0  0  0  0  0  0  0  0
   15.6087   -0.3786   28.1537 H   0  0  0  0  0  0  0  0  0  0  0  0
   28.8529    2.5843   41.2051 H   0  0  0  0  0  0  0  0  0  0  0  0
   30.1992    1.6550   39.5705 H   0  0  0  0  0  0  0  0  0  0  0  0
   26.6456    3.1064   40.7349 H   0  0  0  0  0  0  0  0  0  0  0  0
   29.3439    1.2471   37.4636 H   0  0  0  0  0  0  0  0  0  0  0  0
   25.7975    2.7121   38.6121 H   0  0  0  0  0  0  0  0  0  0  0  0
   26.2833   -0.2722   38.1045 H   0  0  0  0  0  0  0  0  0  0  0  0
   25.1109    1.7456   34.8468 H   0  0  0  0  0  0  0  0  0  0  0  0
   24.3896   -1.5959   37.9700 H   0  0  0  0  0  0  0  0  0  0  0  0
   23.2167    0.4102   34.6974 H   0  0  0  0  0  0  0  0  0  0  0  0
   22.7075   -2.5274   36.2824 H   0  0  0  0  0  0  0  0  0  0  0  0
   21.8658   -1.4231   37.0398 H   0  0  0  0  0  0  0  0  0  0  0  0
  1 23  2  0  0  0  0
  2 24  1  0  0  0  0
  2 30  1  0  0  0  0
  3 26  1  0  0  0  0
  3 27  1  0  0  0  0
  4  8  1  0  0  0  0
  4  9  2  0  0  0  0
  5 10  1  0  0  0  0
  5 25  2  0  0  0  0
  6 24  2  0  0  0  0
  6 25  1  0  0  0  0
  7 22  1  0  0  0  0
  7 23  1  0  0  0  0
  7 31  1  0  0  0  0
  8 11  1  0  0  0  0
  8 25  1  0  0  0  0
  9 12  1  0  0  0  0
  9 32  1  0  0  0  0
 10 29  2  0  0  0  0
 10 33  1  0  0  0  0
 11 12  2  0  0  0  0
 11 34  1  0  0  0  0
 12 35  1  0  0  0  0
 13 14  2  0  0  0  0
 13 15  1  0  0  0  0
 13 36  1  0  0  0  0
 14 16  1  0  0  0  0
 14 37  1  0  0  0  0
 15 17  2  0  0  0  0
 15 38  1  0  0  0  0
 16 26  2  0  0  0  0
 16 39  1  0  0  0  0
 17 26  1  0  0  0  0
 17 40  1  0  0  0  0
 18 20  2  0  0  0  0
 18 27  1  0  0  0  0
 18 41  1  0  0  0  0
 19 21  1  0  0  0  0
 19 27  2  0  0  0  0
 19 42  1  0  0  0  0
 20 28  1  0  0  0  0
 20 43  1  0  0  0  0
 21 28  2  0  0  0  0
 21 44  1  0  0  0  0
 22 28  1  0  0  0  0
 22 45  1  0  0  0  0
 22 46  1  0  0  0  0
 23 29  1  0  0  0  0
 24 29  1  0  0  0  0
M  END
> <pdb_id>
6ST3

> <uniprot_id>
Q9GZT9

> <usmiles>
O=C(NCc1ccc(Oc2ccccc2)cc1)c3c(O)nc(nc3)N4N=CC=C4

$$$$
LWG_A_1000
          07192419233D 1   1.00000     0.00000     0
            
 20 22  0  0  0  0            999 V2000
  -21.3593   39.6345    2.0013 Cl  0  0  0  0  0  0  0  0  0  0  0  0
  -19.9671   37.0164   -3.5257 Cl  0  0  0  0  0  0  0  0  0  0  0  0
  -19.2064   37.3580    1.6547 S   0  0  0  0  0  0  0  0  0  0  0  0
  -17.0302   35.3147    2.3091 O   0  0  0  0  0  0  0  0  0  0  0  0
  -16.8536   34.6831    0.0977 N   0  0  0  0  0  0  0  0  0  0  0  0
  -18.1668   35.6287   -1.6738 N   0  0  0  0  0  0  0  0  0  0  0  0
  -17.2634   34.8250   -1.2057 C   0  0  0  0  0  0  0  0  0  0  0  0
  -21.6787   39.3632   -0.7168 C   0  0  0  0  0  0  0  0  0  0  0  0
  -21.3636   38.7786   -1.9278 C   0  0  0  0  0  0  0  0  0  0  0  0
  -21.0440   38.9658    0.4370 C   0  0  0  0  0  0  0  0  0  0  0  0
  -20.4064   37.7932   -2.0300 C   0  0  0  0  0  0  0  0  0  0  0  0
  -17.3630   35.4093    1.1378 C   0  0  0  0  0  0  0  0  0  0  0  0
  -20.0970   37.9802    0.3276 C   0  0  0  0  0  0  0  0  0  0  0  0
  -18.3446   36.2900    0.6410 C   0  0  0  0  0  0  0  0  0  0  0  0
  -18.7410   36.4096   -0.6656 C   0  0  0  0  0  0  0  0  0  0  0  0
  -19.7522   37.3807   -0.8803 C   0  0  0  0  0  0  0  0  0  0  0  0
  -16.1416   34.0099    0.2972 H   0  0  0  0  0  0  0  0  0  0  0  0
  -16.8096   34.2367   -1.8751 H   0  0  0  0  0  0  0  0  0  0  0  0
  -22.3737   40.0812   -0.6785 H   0  0  0  0  0  0  0  0  0  0  0  0
  -21.8432   39.0786   -2.7524 H   0  0  0  0  0  0  0  0  0  0  0  0
  1 10  1  0  0  0  0
  2 11  1  0  0  0  0
  3 13  1  0  0  0  0
  3 14  1  0  0  0  0
  4 12  2  0  0  0  0
  5  7  1  0  0  0  0
  5 12  1  0  0  0  0
  6  7  2  0  0  0  0
  6 15  1  0  0  0  0
  8  9  2  0  0  0  0
  8 10  1  0  0  0  0
  9 11  1  0  0  0  0
 10 13  2  0  0  0  0
 11 16  2  0  0  0  0
 12 14  1  0  0  0  0
 13 16  1  0  0  0  0
 14 15  2  0  0  0  0
 15 16  1  0  0  0  0
  5 17  1  0  0  0  0
  7 18  1  0  0  0  0
  8 19  1  0  0  0  0
  9 20  1  0  0  0  0
M  END
> <pdb_id>
3JYA

> <uniprot_id>
P11309

> <usmiles>
Clc1c2SC=3C(=O)NC=NC3c2c(Cl)cc1

$$$$
LWS_A_1553
          07202405383D 1   1.00000     0.00000     0
            
 34 36  0  0  0  0            999 V2000
   -1.4115    8.3727   32.4558 F   0  0  0  0  0  0  0  0  0  0  0  0
   -0.2336   13.4230   32.5016 O   0  0  0  0  0  0  0  0  0  0  0  0
   -0.9420   11.2260   32.3622 N   0  0  0  0  0  0  0  0  0  0  0  0
   -4.2312    7.7660   27.9766 N   0  0  0  0  0  0  0  0  0  0  0  0
   -3.0998    6.8649   28.0806 C   0  0  0  0  0  0  0  0  0  0  0  0
   -1.1668   13.3243   29.6436 C   0  0  0  0  0  0  0  0  0  0  0  0
   -3.0841   13.5498   31.2506 C   0  0  0  0  0  0  0  0  0  0  0  0
   -5.2758    7.5417   27.1234 C   0  0  0  0  0  0  0  0  0  0  0  0
   -6.1509    8.5957   27.2521 C   0  0  0  0  0  0  0  0  0  0  0  0
   -5.5916    9.4794   28.2118 C   0  0  0  0  0  0  0  0  0  0  0  0
   -2.8832    8.6429   30.5938 C   0  0  0  0  0  0  0  0  0  0  0  0
   -3.2139   10.8304   29.6407 C   0  0  0  0  0  0  0  0  0  0  0  0
   -0.9302   12.5541   31.9939 C   0  0  0  0  0  0  0  0  0  0  0  0
   -2.0076    9.1553   31.5339 C   0  0  0  0  0  0  0  0  0  0  0  0
   -1.7699   10.5049   31.5137 C   0  0  0  0  0  0  0  0  0  0  0  0
   -4.4003    8.9456   28.6619 C   0  0  0  0  0  0  0  0  0  0  0  0
   -3.4779    9.4707   29.6442 C   0  0  0  0  0  0  0  0  0  0  0  0
   -2.3425   11.3329   30.5906 C   0  0  0  0  0  0  0  0  0  0  0  0
   -1.8890   12.7301   30.8301 C   0  0  0  0  0  0  0  0  0  0  0  0
   -0.4292   10.8389   33.1285 H   0  0  0  0  0  0  0  0  0  0  0  0
   -2.4552    7.2162   28.7597 H   0  0  0  0  0  0  0  0  0  0  0  0
   -3.4192    5.9598   28.3611 H   0  0  0  0  0  0  0  0  0  0  0  0
   -2.6447    6.7975   27.1927 H   0  0  0  0  0  0  0  0  0  0  0  0
   -0.3861   12.7467   29.4050 H   0  0  0  0  0  0  0  0  0  0  0  0
   -1.7923   13.3776   28.8652 H   0  0  0  0  0  0  0  0  0  0  0  0
   -0.8440   14.2420   29.8753 H   0  0  0  0  0  0  0  0  0  0  0  0
   -3.5259   13.1165   32.0361 H   0  0  0  0  0  0  0  0  0  0  0  0
   -2.7851   14.4703   31.5022 H   0  0  0  0  0  0  0  0  0  0  0  0
   -3.7333   13.6060   30.4921 H   0  0  0  0  0  0  0  0  0  0  0  0
   -5.3841    6.7546   26.5161 H   0  0  0  0  0  0  0  0  0  0  0  0
   -7.0149    8.7161   26.7633 H   0  0  0  0  0  0  0  0  0  0  0  0
   -5.9935   10.3445   28.5119 H   0  0  0  0  0  0  0  0  0  0  0  0
   -3.0922    7.6650   30.5958 H   0  0  0  0  0  0  0  0  0  0  0  0
   -3.6425   11.4339   28.9683 H   0  0  0  0  0  0  0  0  0  0  0  0
  1 14  1  0  0  0  0
  2 13  2  0  0  0  0
  3 13  1  0  0  0  0
  3 15  1  0  0  0  0
  4  5  1  0  0  0  0
  4  8  1  0  0  0  0
  4 16  1  0  0  0  0
  6 19  1  0  0  0  0
  7 19  1  0  0  0  0
  8  9  2  0  0  0  0
  9 10  1  0  0  0  0
 10 16  2  0  0  0  0
 11 14  1  0  0  0  0
 11 17  2  0  0  0  0
 12 17  1  0  0  0  0
 12 18  2  0  0  0  0
 13 19  1  0  0  0  0
 14 15  2  0  0  0  0
 15 18  1  0  0  0  0
 16 17  1  0  0  0  0
 18 19  1  0  0  0  0
  3 20  1  0  0  0  0
  5 21  1  0  0  0  0
  5 22  1  0  0  0  0
  5 23  1  0  0  0  0
  6 24  1  0  0  0  0
  6 25  1  0  0  0  0
  6 26  1  0  0  0  0
  7 27  1  0  0  0  0
  7 28  1  0  0  0  0
  7 29  1  0  0  0  0
  8 30  1  0  0  0  0
  9 31  1  0  0  0  0
 10 32  1  0  0  0  0
 11 33  1  0  0  0  0
 12 34  1  0  0  0  0
M  END
> <pdb_id>
5AM0

> <uniprot_id>
P34913

> <usmiles>
Fc1c2NC(=O)C(c2cc(c1)C=3N(C=CC3)C)(C)C

$$$$
LWW_A_601
          07202407493D 1   1.00000     0.00000     0
            
 45 48  0  0  0  0            999 V2000
    8.1335   -2.7019   46.3622 S   0  0  0  0  0  0  0  0  0  0  0  0
    6.9778   -3.3544   46.8594 O   0  0  0  0  0  0  0  0  0  0  0  0
    8.0699   -1.5924   45.4707 O   0  0  0  0  0  0  0  0  0  0  0  0
   10.1297   -8.2103   42.8153 O   0  0  0  0  0  0  0  0  0  0  0  0
    9.8753   -8.4819   36.2069 N   0  0  0  0  0  0  0  0  0  0  0  0
   11.8477   -6.8267   42.4268 N   0  0  0  0  0  0  0  0  0  0  0  0
   11.6851   -7.3880   39.6880 N   0  0  0  0  0  0  0  0  0  0  0  0
   11.0489   -7.8742   36.0715 C   0  0  0  0  0  0  0  0  0  0  0  0
   10.7403   -1.2418   49.7618 C   0  0  0  0  0  0  0  0  0  0  0  0
    9.8590   -2.2853   49.9806 C   0  0  0  0  0  0  0  0  0  0  0  0
   10.8210   -0.6431   48.5186 C   0  0  0  0  0  0  0  0  0  0  0  0
    9.3365   -8.7214   37.3888 C   0  0  0  0  0  0  0  0  0  0  0  0
   12.0325   -6.5840   43.8556 C   0  0  0  0  0  0  0  0  0  0  0  0
    9.0564   -2.7401   48.9506 C   0  0  0  0  0  0  0  0  0  0  0  0
   10.0181   -1.0999   47.4895 C   0  0  0  0  0  0  0  0  0  0  0  0
   11.7782   -7.4668   37.1447 C   0  0  0  0  0  0  0  0  0  0  0  0
   10.2321   -3.4036   44.7979 C   0  0  0  0  0  0  0  0  0  0  0  0
    9.1440   -5.2250   45.8893 C   0  0  0  0  0  0  0  0  0  0  0  0
   11.1338   -4.2720   44.2125 C   0  0  0  0  0  0  0  0  0  0  0  0
   10.0503   -6.0925   45.3061 C   0  0  0  0  0  0  0  0  0  0  0  0
    9.6931   -8.4116   39.9325 C   0  0  0  0  0  0  0  0  0  0  0  0
    9.1267   -2.1402   47.7080 C   0  0  0  0  0  0  0  0  0  0  0  0
    9.2312   -3.8703   45.6282 C   0  0  0  0  0  0  0  0  0  0  0  0
   10.8781   -7.6630   42.0241 C   0  0  0  0  0  0  0  0  0  0  0  0
   11.0369   -5.6261   44.4539 C   0  0  0  0  0  0  0  0  0  0  0  0
   10.7385   -7.8429   40.5856 C   0  0  0  0  0  0  0  0  0  0  0  0
   11.2542   -7.6817   38.4278 C   0  0  0  0  0  0  0  0  0  0  0  0
    9.9940   -8.3258   38.5467 C   0  0  0  0  0  0  0  0  0  0  0  0
   12.4367   -6.3751   41.7566 H   0  0  0  0  0  0  0  0  0  0  0  0
   12.5392   -6.9234   39.9219 H   0  0  0  0  0  0  0  0  0  0  0  0
   11.4071   -7.7113   35.1522 H   0  0  0  0  0  0  0  0  0  0  0  0
   11.3226   -0.9185   50.5078 H   0  0  0  0  0  0  0  0  0  0  0  0
    9.8024   -2.7109   50.8838 H   0  0  0  0  0  0  0  0  0  0  0  0
   11.4552    0.1145   48.3645 H   0  0  0  0  0  0  0  0  0  0  0  0
    8.4541   -9.1880   37.4502 H   0  0  0  0  0  0  0  0  0  0  0  0
   12.9495   -6.2098   43.9938 H   0  0  0  0  0  0  0  0  0  0  0  0
   11.9535   -7.4581   44.3348 H   0  0  0  0  0  0  0  0  0  0  0  0
    8.4266   -3.5014   49.1047 H   0  0  0  0  0  0  0  0  0  0  0  0
   10.0802   -0.6789   46.5846 H   0  0  0  0  0  0  0  0  0  0  0  0
   12.6668   -7.0248   37.0219 H   0  0  0  0  0  0  0  0  0  0  0  0
   10.3052   -2.4226   44.6178 H   0  0  0  0  0  0  0  0  0  0  0  0
    8.4304   -5.5756   46.4958 H   0  0  0  0  0  0  0  0  0  0  0  0
   11.8545   -3.9193   43.6156 H   0  0  0  0  0  0  0  0  0  0  0  0
    9.9920   -7.0712   45.5030 H   0  0  0  0  0  0  0  0  0  0  0  0
    8.8744   -8.8114   40.3446 H   0  0  0  0  0  0  0  0  0  0  0  0
  1  2  2  0  0  0  0
  1  3  2  0  0  0  0
  1 22  1  0  0  0  0
  1 23  1  0  0  0  0
  4 24  2  0  0  0  0
  5  8  2  0  0  0  0
  5 12  1  0  0  0  0
  6 13  1  0  0  0  0
  6 24  1  0  0  0  0
  7 26  1  0  0  0  0
  7 27  1  0  0  0  0
  8 16  1  0  0  0  0
  9 10  2  0  0  0  0
  9 11  1  0  0  0  0
 10 14  1  0  0  0  0
 11 15  2  0  0  0  0
 12 28  2  0  0  0  0
 13 25  1  0  0  0  0
 14 22  2  0  0  0  0
 15 22  1  0  0  0  0
 16 27  2  0  0  0  0
 17 19  2  0  0  0  0
 17 23  1  0  0  0  0
 18 20  1  0  0  0  0
 18 23  2  0  0  0  0
 19 25  1  0  0  0  0
 20 25  2  0  0  0  0
 21 26  2  0  0  0  0
 21 28  1  0  0  0  0
 24 26  1  0  0  0  0
 27 28  1  0  0  0  0
  6 29  1  0  0  0  0
  7 30  1  0  0  0  0
  8 31  1  0  0  0  0
  9 32  1  0  0  0  0
 10 33  1  0  0  0  0
 11 34  1  0  0  0  0
 12 35  1  0  0  0  0
 13 36  1  0  0  0  0
 13 37  1  0  0  0  0
 14 38  1  0  0  0  0
 15 39  1  0  0  0  0
 16 40  1  0  0  0  0
 17 41  1  0  0  0  0
 18 42  1  0  0  0  0
 19 43  1  0  0  0  0
 20 44  1  0  0  0  0
 21 45  1  0  0  0  0
M  END
> <pdb_id>
4LWW

> <uniprot_id>
P43490

> <usmiles>
S(=O)(=O)(c1ccc(cc1)CNC(=O)C=2Nc3c(cncc3)C2)c4ccccc4

$$$$
LYS_A_301
          07202408503D 1   1.00000     0.00000     0
            
 24 23  0  0  0  0            999 V2000
   36.8151    4.3999   38.7712 N   0  0  0  0  0  0  0  0  0  0  0  0
   37.8482    5.3002   38.1592 C   0  0  2  0  0  0  0  0  0  0  0  0
   38.6597    5.9728   39.2747 C   0  0  0  0  0  0  0  0  0  0  0  0
   39.6432    6.6462   39.0038 O   0  0  0  0  0  0  0  0  0  0  0  0
   37.1779    6.3734   37.3088 C   0  0  0  0  0  0  0  0  0  0  0  0
   36.1923    7.2351   38.1356 C   0  0  0  0  0  0  0  0  0  0  0  0
   35.9052    8.5844   37.4433 C   0  0  0  0  0  0  0  0  0  0  0  0
   34.5942    9.1539   37.9646 C   0  0  0  0  0  0  0  0  0  0  0  0
   34.3674   10.6057   37.4417 N   0  3  0  0  0  0  0  0  0  0  0  0
   38.3230    5.8643   40.4744 O   0  5  0  0  0  0  0  0  0  0  0  0
   37.2679    3.7016   39.3256 H   0  0  0  0  0  0  0  0  0  0  0  0
   36.2031    4.9395   39.3494 H   0  0  0  0  0  0  0  0  0  0  0  0
   38.4613    4.7579   37.5848 H   0  0  0  0  0  0  0  0  0  0  0  0
   36.6753    5.9303   36.5665 H   0  0  0  0  0  0  0  0  0  0  0  0
   37.8836    6.9687   36.9246 H   0  0  0  0  0  0  0  0  0  0  0  0
   36.5899    7.4099   39.0364 H   0  0  0  0  0  0  0  0  0  0  0  0
   35.3330    6.7348   38.2419 H   0  0  0  0  0  0  0  0  0  0  0  0
   35.8384    8.4445   36.4554 H   0  0  0  0  0  0  0  0  0  0  0  0
   36.6481    9.2244   37.6398 H   0  0  0  0  0  0  0  0  0  0  0  0
   34.6178    9.1665   38.9643 H   0  0  0  0  0  0  0  0  0  0  0  0
   33.8403    8.5739   37.6562 H   0  0  0  0  0  0  0  0  0  0  0  0
   33.5012   10.9566   37.7976 H   0  0  0  0  0  0  0  0  0  0  0  0
   35.1165   11.1919   37.7502 H   0  0  0  0  0  0  0  0  0  0  0  0
   34.3389   10.5993   36.4421 H   0  0  0  0  0  0  0  0  0  0  0  0
  1  2  1  0  0  0  0
  2  5  1  0  0  0  0
  2  3  1  0  0  0  0
  5  6  1  0  0  0  0
  6  7  1  0  0  0  0
  7  8  1  0  0  0  0
  8  9  1  0  0  0  0
  3  4  2  0  0  0  0
  3 10  1  0  0  0  0
  1 11  1  0  0  0  0
  1 12  1  0  0  0  0
  2 13  1  0  0  0  0
  5 14  1  0  0  0  0
  5 15  1  0  0  0  0
  6 16  1  0  0  0  0
  6 17  1  0  0  0  0
  7 18  1  0  0  0  0
  7 19  1  0  0  0  0
  8 20  1  0  0  0  0
  8 21  1  0  0  0  0
  9 22  1  0  0  0  0
  9 23  1  0  0  0  0
  9 24  1  0  0  0  0
M  CHG  2   9   1  10  -1
M  END
> <pdb_id>
2PVU

> <uniprot_id>
nan

> <usmiles>
[O-]C(=O)[C@@H](N)CCCC[NH3+]

$$$$
LYS_A_401
          07202415503D 1   1.00000     0.00000     0
            
 24 23  0  0  0  0            999 V2000
  -21.5501   17.4982  -14.0932 N   0  0  0  0  0  0  0  0  0  0  0  0
  -21.2801   17.4953  -12.6357 C   0  0  2  0  0  0  0  0  0  0  0  0
  -20.1363   16.5167  -12.3454 C   0  0  0  0  0  0  0  0  0  0  0  0
  -19.9296   16.2381  -11.1523 O   0  0  0  0  0  0  0  0  0  0  0  0
  -22.5707   17.1076  -11.8772 C   0  0  0  0  0  0  0  0  0  0  0  0
  -23.0600   15.6973  -12.1324 C   0  0  0  0  0  0  0  0  0  0  0  0
  -24.3086   15.3949  -11.3722 C   0  0  0  0  0  0  0  0  0  0  0  0
  -24.7075   13.9814  -11.6709 C   0  0  0  0  0  0  0  0  0  0  0  0
  -25.9470   13.5725  -10.9687 N   0  3  0  0  0  0  0  0  0  0  0  0
  -19.4762   16.0450  -13.3087 O   0  5  0  0  0  0  0  0  0  0  0  0
  -20.7168   17.7487  -14.5861 H   0  0  0  0  0  0  0  0  0  0  0  0
  -21.8453   16.5867  -14.3793 H   0  0  0  0  0  0  0  0  0  0  0  0
  -21.0014   18.4137  -12.3549 H   0  0  0  0  0  0  0  0  0  0  0  0
  -23.2940   17.7417  -12.1502 H   0  0  0  0  0  0  0  0  0  0  0  0
  -22.3959   17.2033  -10.8972 H   0  0  0  0  0  0  0  0  0  0  0  0
  -22.3480   15.0528  -11.8541 H   0  0  0  0  0  0  0  0  0  0  0  0
  -23.2428   15.5905  -13.1097 H   0  0  0  0  0  0  0  0  0  0  0  0
  -25.0368   16.0192  -11.6550 H   0  0  0  0  0  0  0  0  0  0  0  0
  -24.1418   15.4997  -10.3918 H   0  0  0  0  0  0  0  0  0  0  0  0
  -23.9652   13.3737  -11.3885 H   0  0  0  0  0  0  0  0  0  0  0  0
  -24.8545   13.8926  -12.6560 H   0  0  0  0  0  0  0  0  0  0  0  0
  -26.1657   12.6252  -11.2029 H   0  0  0  0  0  0  0  0  0  0  0  0
  -25.8111   13.6487   -9.9809 H   0  0  0  0  0  0  0  0  0  0  0  0
  -26.7004   14.1675  -11.2484 H   0  0  0  0  0  0  0  0  0  0  0  0
  1  2  1  0  0  0  0
  2  5  1  0  0  0  0
  2  3  1  0  0  0  0
  5  6  1  0  0  0  0
  6  7  1  0  0  0  0
  7  8  1  0  0  0  0
  8  9  1  0  0  0  0
  3  4  2  0  0  0  0
  3 10  1  0  0  0  0
  1 11  1  0  0  0  0
  1 12  1  0  0  0  0
  2 13  1  0  0  0  0
  5 14  1  0  0  0  0
  5 15  1  0  0  0  0
  6 16  1  0  0  0  0
  6 17  1  0  0  0  0
  7 18  1  0  0  0  0
  7 19  1  0  0  0  0
  8 20  1  0  0  0  0
  8 21  1  0  0  0  0
  9 22  1  0  0  0  0
  9 23  1  0  0  0  0
  9 24  1  0  0  0  0
M  CHG  2   9   1  10  -1
M  END
> <pdb_id>
3LP4

> <uniprot_id>
P05089

> <usmiles>
[O-]C(=O)[C@@H](N)CCCC[NH3+]

$$$$
LYS_A_960
          07202400433D 1   1.00000     0.00000     0
            
 24 23  0  0  0  0            999 V2000
   71.3569   44.8111    9.6036 N   0  0  0  0  0  0  0  0  0  0  0  0
   71.0604   45.9152    8.6296 C   0  0  2  0  0  0  0  0  0  0  0  0
   72.1227   45.9051    7.5470 C   0  0  0  0  0  0  0  0  0  0  0  0
   71.8584   46.2789    6.3969 O   0  0  0  0  0  0  0  0  0  0  0  0
   71.0788   47.2932    9.3162 C   0  0  0  0  0  0  0  0  0  0  0  0
   70.1396   47.4322   10.5367 C   0  0  0  0  0  0  0  0  0  0  0  0
   70.0100   48.8921   10.9994 C   0  0  0  0  0  0  0  0  0  0  0  0
   69.4331   48.9887   12.4188 C   0  0  0  0  0  0  0  0  0  0  0  0
   69.1248   50.3933   12.8372 N   0  3  0  0  0  0  0  0  0  0  0  0
   73.2740   45.5769    7.8477 O   0  5  0  0  0  0  0  0  0  0  0  0
   71.3373   43.9321    9.1271 H   0  0  0  0  0  0  0  0  0  0  0  0
   72.2624   44.9534   10.0033 H   0  0  0  0  0  0  0  0  0  0  0  0
   70.1629   45.7617    8.2162 H   0  0  0  0  0  0  0  0  0  0  0  0
   70.8111   47.9796    8.6400 H   0  0  0  0  0  0  0  0  0  0  0  0
   72.0134   47.4739    9.6226 H   0  0  0  0  0  0  0  0  0  0  0  0
   70.5060   46.8860   11.2900 H   0  0  0  0  0  0  0  0  0  0  0  0
   69.2334   47.0907   10.2874 H   0  0  0  0  0  0  0  0  0  0  0  0
   69.4047   49.3791   10.3697 H   0  0  0  0  0  0  0  0  0  0  0  0
   70.9150   49.3174   10.9877 H   0  0  0  0  0  0  0  0  0  0  0  0
   70.0988   48.6054   13.0590 H   0  0  0  0  0  0  0  0  0  0  0  0
   68.5890   48.4538   12.4557 H   0  0  0  0  0  0  0  0  0  0  0  0
   68.7540   50.3907   13.7659 H   0  0  0  0  0  0  0  0  0  0  0  0
   69.9623   50.9393   12.8142 H   0  0  0  0  0  0  0  0  0  0  0  0
   68.4524   50.7877   12.2108 H   0  0  0  0  0  0  0  0  0  0  0  0
  1  2  1  0  0  0  0
  2  5  1  0  0  0  0
  2  3  1  0  0  0  0
  5  6  1  0  0  0  0
  6  7  1  0  0  0  0
  7  8  1  0  0  0  0
  8  9  1  0  0  0  0
  3  4  2  0  0  0  0
  3 10  1  0  0  0  0
  1 11  1  0  0  0  0
  1 12  1  0  0  0  0
  2 13  1  0  0  0  0
  5 14  1  0  0  0  0
  5 15  1  0  0  0  0
  6 16  1  0  0  0  0
  6 17  1  0  0  0  0
  7 18  1  0  0  0  0
  7 19  1  0  0  0  0
  8 20  1  0  0  0  0
  8 21  1  0  0  0  0
  9 22  1  0  0  0  0
  9 23  1  0  0  0  0
  9 24  1  0  0  0  0
M  CHG  2   9   1  10  -1
M  END
> <pdb_id>
3B2X

> <uniprot_id>
P04825

> <usmiles>
[O-]C(=O)[C@@H](N)CCCC[NH3+]

$$$$
LZ2_A_1300
          07192421083D 1   1.00000     0.00000     0
            
 24 25  0  0  0  0            999 V2000
   -0.4754   26.2026   10.0117 S   0  0  0  0  0  0  0  0  0  0  0  0
    0.2518   24.9711   10.1736 O   0  0  0  0  0  0  0  0  0  0  0  0
   -1.8534   26.1571    9.6115 O   0  0  0  0  0  0  0  0  0  0  0  0
    1.1924   31.2352    6.3879 O   0  0  0  0  0  0  0  0  0  0  0  0
   -0.4043   26.9910   11.4068 N   0  0  0  0  0  0  0  0  0  0  0  0
    2.1595   27.2422    7.1854 C   0  0  0  0  0  0  0  0  0  0  0  0
   -1.2982   30.4619    8.9306 C   0  0  0  0  0  0  0  0  0  0  0  0
    1.4368   26.5418    8.1230 C   0  0  0  0  0  0  0  0  0  0  0  0
   -0.5772   31.1655    7.9849 C   0  0  0  0  0  0  0  0  0  0  0  0
   -0.9833   29.1457    9.2116 C   0  0  0  0  0  0  0  0  0  0  0  0
    1.8474   28.5625    6.9075 C   0  0  0  0  0  0  0  0  0  0  0  0
    0.3901   27.1542    8.8032 C   0  0  0  0  0  0  0  0  0  0  0  0
    0.4682   30.5550    7.3108 C   0  0  0  0  0  0  0  0  0  0  0  0
    0.0601   28.4931    8.5428 C   0  0  0  0  0  0  0  0  0  0  0  0
    0.7983   29.2111    7.5701 C   0  0  0  0  0  0  0  0  0  0  0  0
    1.9441   30.7818    5.9090 H   0  0  0  0  0  0  0  0  0  0  0  0
   -0.9021   27.8546   11.3273 H   0  0  0  0  0  0  0  0  0  0  0  0
   -0.8176   26.4330   12.1264 H   0  0  0  0  0  0  0  0  0  0  0  0
    2.9132   26.7963    6.7026 H   0  0  0  0  0  0  0  0  0  0  0  0
   -2.0518   30.9073    9.4141 H   0  0  0  0  0  0  0  0  0  0  0  0
    1.6653   25.5876    8.3164 H   0  0  0  0  0  0  0  0  0  0  0  0
   -0.8103   32.1175    7.7866 H   0  0  0  0  0  0  0  0  0  0  0  0
   -1.5090   28.6512    9.9039 H   0  0  0  0  0  0  0  0  0  0  0  0
    2.3797   29.0604    6.2229 H   0  0  0  0  0  0  0  0  0  0  0  0
  1  2  2  0  0  0  0
  1  3  2  0  0  0  0
  1  5  1  0  0  0  0
  1 12  1  0  0  0  0
  4 13  1  0  0  0  0
  6  8  2  0  0  0  0
  6 11  1  0  0  0  0
  7  9  1  0  0  0  0
  7 10  2  0  0  0  0
  8 12  1  0  0  0  0
  9 13  2  0  0  0  0
 10 14  1  0  0  0  0
 11 15  2  0  0  0  0
 12 14  2  0  0  0  0
 13 15  1  0  0  0  0
 14 15  1  0  0  0  0
  4 16  1  0  0  0  0
  5 17  1  0  0  0  0
  5 18  1  0  0  0  0
  6 19  1  0  0  0  0
  7 20  1  0  0  0  0
  8 21  1  0  0  0  0
  9 22  1  0  0  0  0
 10 23  1  0  0  0  0
 11 24  1  0  0  0  0
M  END
> <pdb_id>
2VTH

> <uniprot_id>
P24941

> <usmiles>
S(=O)(=O)(N)c1c2c(c(O)ccc2)ccc1

$$$$
LZ3_A_1299
          07192421083D 1   1.00000     0.00000     0
            
 34 36  0  0  0  0            999 V2000
    6.8704   23.9660    7.2236 S   0  0  0  0  0  0  0  0  0  0  0  0
    7.7796   24.4350    8.2167 O   0  0  0  0  0  0  0  0  0  0  0  0
    7.3839   23.6379    5.9152 O   0  0  0  0  0  0  0  0  0  0  0  0
    1.1725   27.1247    7.5183 O   0  0  0  0  0  0  0  0  0  0  0  0
    6.1507   22.6508    7.8007 N   0  0  0  0  0  0  0  0  0  0  0  0
    0.5625   31.5743    7.1238 N   0  0  0  0  0  0  0  0  0  0  0  0
    1.4081   30.5866    6.7422 N   0  0  0  0  0  0  0  0  0  0  0  0
    2.8710   28.2939    6.6084 N   0  0  0  0  0  0  0  0  0  0  0  0
   -2.3900   30.8974    9.3099 C   0  0  0  0  0  0  0  0  0  0  0  0
   -2.1571   29.5384    9.4482 C   0  0  0  0  0  0  0  0  0  0  0  0
    4.8092   25.5278    8.0657 C   0  0  0  0  0  0  0  0  0  0  0  0
    5.5957   25.9393    5.8357 C   0  0  0  0  0  0  0  0  0  0  0  0
    3.8828   26.5352    7.9254 C   0  0  0  0  0  0  0  0  0  0  0  0
    4.6679   26.9567    5.6994 C   0  0  0  0  0  0  0  0  0  0  0  0
   -1.5294   31.6763    8.5595 C   0  0  0  0  0  0  0  0  0  0  0  0
   -1.0653   28.9543    8.8300 C   0  0  0  0  0  0  0  0  0  0  0  0
    5.6633   25.2258    7.0196 C   0  0  0  0  0  0  0  0  0  0  0  0
    1.6534   28.2015    7.1329 C   0  0  0  0  0  0  0  0  0  0  0  0
    3.8161   27.2676    6.7405 C   0  0  0  0  0  0  0  0  0  0  0  0
   -0.4408   31.0973    7.9231 C   0  0  0  0  0  0  0  0  0  0  0  0
    0.9297   29.4640    7.2948 C   0  0  0  0  0  0  0  0  0  0  0  0
   -0.2138   29.7253    8.0420 C   0  0  0  0  0  0  0  0  0  0  0  0
    5.5053   22.2992    7.1226 H   0  0  0  0  0  0  0  0  0  0  0  0
    6.8395   21.9533    7.9983 H   0  0  0  0  0  0  0  0  0  0  0  0
    0.6595   32.5326    6.8548 H   0  0  0  0  0  0  0  0  0  0  0  0
    3.1204   29.1207    6.1042 H   0  0  0  0  0  0  0  0  0  0  0  0
   -3.1824   31.3155    9.7540 H   0  0  0  0  0  0  0  0  0  0  0  0
   -2.7791   28.9787    9.9958 H   0  0  0  0  0  0  0  0  0  0  0  0
    4.8653   25.0146    8.9221 H   0  0  0  0  0  0  0  0  0  0  0  0
    6.2150   25.7204    5.0816 H   0  0  0  0  0  0  0  0  0  0  0  0
    3.2550   26.7428    8.6756 H   0  0  0  0  0  0  0  0  0  0  0  0
    4.6141   27.4693    4.8425 H   0  0  0  0  0  0  0  0  0  0  0  0
   -1.6918   32.6595    8.4750 H   0  0  0  0  0  0  0  0  0  0  0  0
   -0.8875   27.9774    8.9491 H   0  0  0  0  0  0  0  0  0  0  0  0
  1  2  2  0  0  0  0
  1  3  2  0  0  0  0
  1  5  1  0  0  0  0
  1 17  1  0  0  0  0
  4 18  2  0  0  0  0
  6  7  1  0  0  0  0
  6 20  1  0  0  0  0
  7 21  2  0  0  0  0
  8 18  1  0  0  0  0
  8 19  1  0  0  0  0
  9 10  2  0  0  0  0
  9 15  1  0  0  0  0
 10 16  1  0  0  0  0
 11 13  1  0  0  0  0
 11 17  2  0  0  0  0
 12 14  2  0  0  0  0
 12 17  1  0  0  0  0
 13 19  2  0  0  0  0
 14 19  1  0  0  0  0
 15 20  2  0  0  0  0
 16 22  2  0  0  0  0
 18 21  1  0  0  0  0
 20 22  1  0  0  0  0
 21 22  1  0  0  0  0
  5 23  1  0  0  0  0
  5 24  1  0  0  0  0
  6 25  1  0  0  0  0
  8 26  1  0  0  0  0
  9 27  1  0  0  0  0
 10 28  1  0  0  0  0
 11 29  1  0  0  0  0
 12 30  1  0  0  0  0
 13 31  1  0  0  0  0
 14 32  1  0  0  0  0
 15 33  1  0  0  0  0
 16 34  1  0  0  0  0
M  END
> <pdb_id>
2VTI

> <uniprot_id>
P24941

> <usmiles>
S(=O)(=O)(N)c1ccc(NC(=O)C2=NNc3c2cccc3)cc1

$$$$
LZ4_A_1300
          07192421083D 1   1.00000     0.00000     0
            
 27 28  0  0  0  0            999 V2000
   -1.4260   30.7893    8.5819 Cl  0  0  0  0  0  0  0  0  0  0  0  0
    6.6403   24.0393    7.4573 S   0  0  0  0  0  0  0  0  0  0  0  0
    6.3805   22.7766    8.0989 O   0  0  0  0  0  0  0  0  0  0  0  0
    7.6329   24.9211    8.0241 O   0  0  0  0  0  0  0  0  0  0  0  0
    7.0717   23.7407    5.9441 N   0  0  0  0  0  0  0  0  0  0  0  0
    1.7704   30.5741    6.2800 N   0  0  0  0  0  0  0  0  0  0  0  0
    0.1972   28.8718    7.8628 N   0  0  0  0  0  0  0  0  0  0  0  0
    1.5264   27.0588    7.3258 N   0  0  0  0  0  0  0  0  0  0  0  0
    0.7085   31.0283    6.9499 C   0  0  0  0  0  0  0  0  0  0  0  0
    2.0401   29.2722    6.4007 C   0  0  0  0  0  0  0  0  0  0  0  0
    3.9146   24.2517    7.4983 C   0  0  0  0  0  0  0  0  0  0  0  0
    5.1353   26.3142    7.2919 C   0  0  0  0  0  0  0  0  0  0  0  0
    2.7298   24.9552    7.4751 C   0  0  0  0  0  0  0  0  0  0  0  0
    3.9507   27.0176    7.2657 C   0  0  0  0  0  0  0  0  0  0  0  0
   -0.0540   30.1737    7.7172 C   0  0  0  0  0  0  0  0  0  0  0  0
    5.1188   24.9348    7.4158 C   0  0  0  0  0  0  0  0  0  0  0  0
    1.2674   28.4266    7.1854 C   0  0  0  0  0  0  0  0  0  0  0  0
    2.7347   26.3456    7.3595 C   0  0  0  0  0  0  0  0  0  0  0  0
    7.2585   24.6035    5.4743 H   0  0  0  0  0  0  0  0  0  0  0  0
    7.8948   23.1729    5.9381 H   0  0  0  0  0  0  0  0  0  0  0  0
    0.7086   26.4908    7.4182 H   0  0  0  0  0  0  0  0  0  0  0  0
    0.4643   31.9964    6.8946 H   0  0  0  0  0  0  0  0  0  0  0  0
    2.8247   28.8935    5.9097 H   0  0  0  0  0  0  0  0  0  0  0  0
    3.9061   23.2547    7.5742 H   0  0  0  0  0  0  0  0  0  0  0  0
    6.0068   26.7996    7.2214 H   0  0  0  0  0  0  0  0  0  0  0  0
    1.8603   24.4656    7.5417 H   0  0  0  0  0  0  0  0  0  0  0  0
    3.9642   28.0138    7.1791 H   0  0  0  0  0  0  0  0  0  0  0  0
  1 15  1  0  0  0  0
  2  3  2  0  0  0  0
  2  4  2  0  0  0  0
  2  5  1  0  0  0  0
  2 16  1  0  0  0  0
  6  9  2  0  0  0  0
  6 10  1  0  0  0  0
  7 15  2  0  0  0  0
  7 17  1  0  0  0  0
  8 17  1  0  0  0  0
  8 18  1  0  0  0  0
  9 15  1  0  0  0  0
 10 17  2  0  0  0  0
 11 13  1  0  0  0  0
 11 16  2  0  0  0  0
 12 14  2  0  0  0  0
 12 16  1  0  0  0  0
 13 18  2  0  0  0  0
 14 18  1  0  0  0  0
  5 19  1  0  0  0  0
  5 20  1  0  0  0  0
  8 21  1  0  0  0  0
  9 22  1  0  0  0  0
 10 23  1  0  0  0  0
 11 24  1  0  0  0  0
 12 25  1  0  0  0  0
 13 26  1  0  0  0  0
 14 27  1  0  0  0  0
M  END
> <pdb_id>
2VTJ

> <uniprot_id>
P24941

> <usmiles>
Clc1nc(Nc2ccc(S(=O)(=O)N)cc2)cnc1

$$$$
LZ5_A_1299
          07192421083D 1   1.00000     0.00000     0
            
 23 24  0  0  0  0            999 V2000
    1.1699   27.4430    7.5880 O   0  0  0  0  0  0  0  0  0  0  0  0
    0.6068   31.7626    6.8436 N   0  0  0  0  0  0  0  0  0  0  0  0
    1.4713   30.7615    6.5468 N   0  0  0  0  0  0  0  0  0  0  0  0
    2.8107   28.3831    6.3983 N   0  0  0  0  0  0  0  0  0  0  0  0
   -0.4039   31.3306    7.6177 C   0  0  0  0  0  0  0  0  0  0  0  0
    5.5696   25.2514    6.3542 C   0  0  0  0  0  0  0  0  0  0  0  0
    4.8834   25.5444    7.5171 C   0  0  0  0  0  0  0  0  0  0  0  0
    5.3427   25.9894    5.2095 C   0  0  0  0  0  0  0  0  0  0  0  0
    3.9723   26.5823    7.5374 C   0  0  0  0  0  0  0  0  0  0  0  0
    4.4378   27.0282    5.2220 C   0  0  0  0  0  0  0  0  0  0  0  0
   -0.1996   30.0142    7.8312 C   0  0  0  0  0  0  0  0  0  0  0  0
    1.6360   28.4084    7.0559 C   0  0  0  0  0  0  0  0  0  0  0  0
    3.7357   27.3322    6.3845 C   0  0  0  0  0  0  0  0  0  0  0  0
    0.9638   29.7106    7.1356 C   0  0  0  0  0  0  0  0  0  0  0  0
    2.3077   30.8148    6.0012 H   0  0  0  0  0  0  0  0  0  0  0  0
    3.0461   29.1966    5.8665 H   0  0  0  0  0  0  0  0  0  0  0  0
   -1.1622   31.8801    7.9683 H   0  0  0  0  0  0  0  0  0  0  0  0
    6.2324   24.5028    6.3415 H   0  0  0  0  0  0  0  0  0  0  0  0
    5.0463   25.0054    8.3435 H   0  0  0  0  0  0  0  0  0  0  0  0
    5.8369   25.7691    4.3685 H   0  0  0  0  0  0  0  0  0  0  0  0
    3.4806   26.7972    8.3812 H   0  0  0  0  0  0  0  0  0  0  0  0
    4.2850   27.5658    4.3927 H   0  0  0  0  0  0  0  0  0  0  0  0
   -0.7639   29.3914    8.3732 H   0  0  0  0  0  0  0  0  0  0  0  0
  1 12  2  0  0  0  0
  2  3  1  0  0  0  0
  2  5  2  0  0  0  0
  3 14  1  0  0  0  0
  4 12  1  0  0  0  0
  4 13  1  0  0  0  0
  5 11  1  0  0  0  0
  6  7  2  0  0  0  0
  6  8  1  0  0  0  0
  7  9  1  0  0  0  0
  8 10  2  0  0  0  0
  9 13  2  0  0  0  0
 10 13  1  0  0  0  0
 11 14  2  0  0  0  0
 12 14  1  0  0  0  0
  3 15  1  0  0  0  0
  4 16  1  0  0  0  0
  5 17  1  0  0  0  0
  6 18  1  0  0  0  0
  7 19  1  0  0  0  0
  8 20  1  0  0  0  0
  9 21  1  0  0  0  0
 10 22  1  0  0  0  0
 11 23  1  0  0  0  0
M  END
> <pdb_id>
2VTL

> <uniprot_id>
P24941

> <usmiles>
O=C(Nc1ccccc1)C=2NN=CC2

$$$$
LZG_A_1245
          07192422073D 1   1.00000     0.00000     0
            
 52 55  0  0  0  0            999 V2000
   42.5113   28.7816   12.1660 Cl  0  0  0  0  0  0  0  0  0  0  0  0
   40.0647   27.7809   13.5400 S   0  0  0  0  0  0  0  0  0  0  0  0
   33.1515   26.6521   12.5827 F   0  0  0  0  0  0  0  0  0  0  0  0
   36.2007   29.8817   19.0304 F   0  0  0  0  0  0  0  0  0  0  0  0
   33.3760   30.0523   18.6762 O   0  0  0  0  0  0  0  0  0  0  0  0
   37.4677   26.7522   14.5775 O   0  0  0  0  0  0  0  0  0  0  0  0
   35.5357   33.8614   21.8309 O   0  0  0  0  0  0  0  0  0  0  0  0
   34.7159   30.7313   16.8832 N   0  0  0  0  0  0  0  0  0  0  0  0
   36.0871   27.9592   13.2846 N   0  0  0  0  0  0  0  0  0  0  0  0
   33.6154   28.8929   15.3065 N   0  0  0  0  0  0  0  0  0  0  0  0
   37.2729   34.3510   20.3861 N   0  0  0  0  0  0  0  0  0  0  0  0
   38.4666   35.0679   20.0880 C   0  0  0  0  0  0  0  0  0  0  0  0
   32.9345   28.9699   16.5922 C   0  0  0  0  0  0  0  0  0  0  0  0
   32.7120   28.3201   14.2986 C   0  0  0  0  0  0  0  0  0  0  0  0
   34.7730   27.9795   15.4077 C   0  0  0  0  0  0  0  0  0  0  0  0
   38.9976   35.9260   21.0024 C   0  0  0  0  0  0  0  0  0  0  0  0
   38.3544   36.1543   22.2604 C   0  0  0  0  0  0  0  0  0  0  0  0
   39.8520   29.1048   11.3127 C   0  0  0  0  0  0  0  0  0  0  0  0
   38.5197   28.7829   11.6999 C   0  0  0  0  0  0  0  0  0  0  0  0
   37.2039   35.4715   22.5413 C   0  0  0  0  0  0  0  0  0  0  0  0
   35.3149   33.0452   17.5245 C   0  0  0  0  0  0  0  0  0  0  0  0
   35.9450   33.9473   18.3800 C   0  0  0  0  0  0  0  0  0  0  0  0
   36.7827   32.0654   19.7332 C   0  0  0  0  0  0  0  0  0  0  0  0
   40.7808   28.6199   12.2085 C   0  0  0  0  0  0  0  0  0  0  0  0
   38.4915   28.0693   12.8939 C   0  0  0  0  0  0  0  0  0  0  0  0
   33.6699   29.9383   17.4675 C   0  0  0  0  0  0  0  0  0  0  0  0
   37.3489   27.5313   13.6150 C   0  0  0  0  0  0  0  0  0  0  0  0
   36.6103   34.5499   21.6287 C   0  0  0  0  0  0  0  0  0  0  0  0
   33.6589   27.7601   13.2428 C   0  0  1  0  0  0  0  0  0  0  0  0
   36.1292   31.2137   18.8451 C   0  0  0  0  0  0  0  0  0  0  0  0
   34.9305   27.3993   14.0095 C   0  0  1  0  0  0  0  0  0  0  0  0
   35.4040   31.6729   17.7440 C   0  0  0  0  0  0  0  0  0  0  0  0
   36.6812   33.4315   19.4677 C   0  0  0  0  0  0  0  0  0  0  0  0
   34.9603   30.6370   15.9182 H   0  0  0  0  0  0  0  0  0  0  0  0
   35.9540   28.6397   12.5640 H   0  0  0  0  0  0  0  0  0  0  0  0
   38.9165   34.9407   19.2040 H   0  0  0  0  0  0  0  0  0  0  0  0
   32.9251   28.0673   17.0226 H   0  0  0  0  0  0  0  0  0  0  0  0
   31.9950   29.2846   16.4571 H   0  0  0  0  0  0  0  0  0  0  0  0
   32.1196   29.0251   13.9087 H   0  0  0  0  0  0  0  0  0  0  0  0
   32.1499   27.5941   14.6948 H   0  0  0  0  0  0  0  0  0  0  0  0
   34.5930   27.2542   16.0722 H   0  0  0  0  0  0  0  0  0  0  0  0
   35.5955   28.4809   15.6762 H   0  0  0  0  0  0  0  0  0  0  0  0
   39.8503   36.4041   20.7917 H   0  0  0  0  0  0  0  0  0  0  0  0
   38.7386   36.8000   22.9202 H   0  0  0  0  0  0  0  0  0  0  0  0
   40.0858   29.6212   10.4889 H   0  0  0  0  0  0  0  0  0  0  0  0
   37.7056   29.0380   11.1782 H   0  0  0  0  0  0  0  0  0  0  0  0
   36.7596   35.6246   23.4241 H   0  0  0  0  0  0  0  0  0  0  0  0
   34.7924   33.3876   16.7436 H   0  0  0  0  0  0  0  0  0  0  0  0
   35.8771   34.9332   18.2272 H   0  0  0  0  0  0  0  0  0  0  0  0
   37.2960   31.7169   20.5174 H   0  0  0  0  0  0  0  0  0  0  0  0
   33.8680   28.4747   12.5752 H   0  0  0  0  0  0  0  0  0  0  0  0
   35.0183   26.4048   14.0660 H   0  0  0  0  0  0  0  0  0  0  0  0
  1 24  1  0  0  0  0
  2 24  1  0  0  0  0
  2 25  1  0  0  0  0
  3 29  1  0  0  0  0
  4 30  1  0  0  0  0
  5 26  2  0  0  0  0
  6 27  2  0  0  0  0
  7 28  2  0  0  0  0
  8 26  1  0  0  0  0
  8 32  1  0  0  0  0
  9 27  1  0  0  0  0
  9 31  1  0  0  0  0
 10 13  1  0  0  0  0
 10 14  1  0  0  0  0
 10 15  1  0  0  0  0
 11 12  1  0  0  0  0
 11 28  1  0  0  0  0
 11 33  1  0  0  0  0
 12 16  2  0  0  0  0
 13 26  1  0  0  0  0
 14 29  1  0  0  0  0
 15 31  1  0  0  0  0
 16 17  1  0  0  0  0
 17 20  2  0  0  0  0
 18 19  1  0  0  0  0
 18 24  2  0  0  0  0
 19 25  2  0  0  0  0
 20 28  1  0  0  0  0
 21 22  2  0  0  0  0
 21 32  1  0  0  0  0
 22 33  1  0  0  0  0
 23 30  1  0  0  0  0
 23 33  2  0  0  0  0
 25 27  1  0  0  0  0
 29 31  1  0  0  0  0
 30 32  2  0  0  0  0
  8 34  1  0  0  0  0
  9 35  1  0  0  0  0
 12 36  1  0  0  0  0
 13 37  1  0  0  0  0
 13 38  1  0  0  0  0
 14 39  1  0  0  0  0
 14 40  1  0  0  0  0
 15 41  1  0  0  0  0
 15 42  1  0  0  0  0
 16 43  1  0  0  0  0
 17 44  1  0  0  0  0
 18 45  1  0  0  0  0
 19 46  1  0  0  0  0
 20 47  1  0  0  0  0
 21 48  1  0  0  0  0
 22 49  1  0  0  0  0
 23 50  1  0  0  0  0
 29 51  1  0  0  0  0
 31 52  1  0  0  0  0
M  END
> <pdb_id>
2VWO

> <uniprot_id>
P00742

> <usmiles>
ClC=1SC(C(=O)N[C@@H]2[C@@H](F)CN(CC(=O)Nc3c(F)cc(N4C(=O)C=CC=C4)cc3)C2)=CC1

$$$$
LZJ_A_1448
          07202403363D 1   1.00000     0.00000     0
            
 29 31  0  0  0  0            999 V2000
   35.1531  128.6548   26.5769 Br  0  0  0  0  0  0  0  0  0  0  0  0
   39.4936  126.9420   23.2421 Br  0  0  0  0  0  0  0  0  0  0  0  0
   40.4528  134.7102   24.7799 N   0  0  0  0  0  0  0  0  0  0  0  0
   35.9040  129.5774   23.3742 N   0  0  0  0  0  0  0  0  0  0  0  0
   40.8361  132.5843   25.7178 N   0  0  0  0  0  0  0  0  0  0  0  0
   38.9642  132.9615   24.3426 N   0  0  0  0  0  0  0  0  0  0  0  0
   37.4496  131.2356   23.8821 N   0  0  0  0  0  0  0  0  0  0  0  0
   36.3516  124.9896   25.0894 C   0  0  0  0  0  0  0  0  0  0  0  0
   40.4830  131.2975   25.8926 C   0  0  0  0  0  0  0  0  0  0  0  0
   35.6722  126.0101   25.7421 C   0  0  0  0  0  0  0  0  0  0  0  0
   37.4881  125.2896   24.3475 C   0  0  0  0  0  0  0  0  0  0  0  0
   38.9235  129.4777   25.4398 C   0  0  0  0  0  0  0  0  0  0  0  0
   40.0887  133.4153   24.9458 C   0  0  0  0  0  0  0  0  0  0  0  0
   36.1263  127.3245   25.6560 C   0  0  0  0  0  0  0  0  0  0  0  0
   37.9412  126.6049   24.2595 C   0  0  0  0  0  0  0  0  0  0  0  0
   37.0355  129.9525   24.0179 C   0  0  0  0  0  0  0  0  0  0  0  0
   38.5731  131.6745   24.4944 C   0  0  0  0  0  0  0  0  0  0  0  0
   39.3295  130.8066   25.2806 C   0  0  0  0  0  0  0  0  0  0  0  0
   37.7570  129.0446   24.8014 C   0  0  0  0  0  0  0  0  0  0  0  0
   37.2698  127.6344   24.9171 C   0  0  0  0  0  0  0  0  0  0  0  0
   39.8980  135.3166   24.2102 H   0  0  0  0  0  0  0  0  0  0  0  0
   41.2762  135.0593   25.2273 H   0  0  0  0  0  0  0  0  0  0  0  0
   35.5716  128.6377   23.4539 H   0  0  0  0  0  0  0  0  0  0  0  0
   35.4013  130.2403   22.8193 H   0  0  0  0  0  0  0  0  0  0  0  0
   36.0256  124.0464   25.1526 H   0  0  0  0  0  0  0  0  0  0  0  0
   41.0456  130.6954   26.4591 H   0  0  0  0  0  0  0  0  0  0  0  0
   34.8532  125.8005   26.2763 H   0  0  0  0  0  0  0  0  0  0  0  0
   37.9823  124.5595   23.8755 H   0  0  0  0  0  0  0  0  0  0  0  0
   39.4590  128.8469   26.0013 H   0  0  0  0  0  0  0  0  0  0  0  0
  1 14  1  0  0  0  0
  2 15  1  0  0  0  0
  3 13  1  0  0  0  0
  4 16  1  0  0  0  0
  5  9  1  0  0  0  0
  5 13  2  0  0  0  0
  6 13  1  0  0  0  0
  6 17  2  0  0  0  0
  7 16  2  0  0  0  0
  7 17  1  0  0  0  0
  8 10  2  0  0  0  0
  8 11  1  0  0  0  0
  9 18  2  0  0  0  0
 10 14  1  0  0  0  0
 11 15  2  0  0  0  0
 12 18  1  0  0  0  0
 12 19  2  0  0  0  0
 14 20  2  0  0  0  0
 15 20  1  0  0  0  0
 16 19  1  0  0  0  0
 17 18  1  0  0  0  0
 19 20  1  0  0  0  0
  3 21  1  0  0  0  0
  3 22  1  0  0  0  0
  4 23  1  0  0  0  0
  4 24  1  0  0  0  0
  8 25  1  0  0  0  0
  9 26  1  0  0  0  0
 10 27  1  0  0  0  0
 11 28  1  0  0  0  0
 12 29  1  0  0  0  0
M  END
> <pdb_id>
2V58

> <uniprot_id>
P24182

> <usmiles>
Brc1c(c(Br)ccc1)c2c(nc3nc(ncc3c2)N)N

$$$$
LZK_A_1446
          07202403363D 1   1.00000     0.00000     0
            
 37 39  0  0  0  0            999 V2000
   35.6156  128.1084   25.7220 O   0  0  0  0  0  0  0  0  0  0  0  0
   39.6404  127.0547   23.3659 O   0  0  0  0  0  0  0  0  0  0  0  0
   40.4765  134.7303   24.9676 N   0  0  0  0  0  0  0  0  0  0  0  0
   36.1009  129.5823   23.1816 N   0  0  0  0  0  0  0  0  0  0  0  0
   40.9733  132.5460   25.7063 N   0  0  0  0  0  0  0  0  0  0  0  0
   39.0608  132.9716   24.4013 N   0  0  0  0  0  0  0  0  0  0  0  0
   37.6002  131.2446   23.8154 N   0  0  0  0  0  0  0  0  0  0  0  0
   34.2162  127.9053   25.8891 C   0  0  0  0  0  0  0  0  0  0  0  0
   40.6851  126.1669   22.9602 C   0  0  0  0  0  0  0  0  0  0  0  0
   40.6752  131.2364   25.7748 C   0  0  0  0  0  0  0  0  0  0  0  0
   36.9163  124.8699   24.5642 C   0  0  0  0  0  0  0  0  0  0  0  0
   36.0731  125.8112   25.1522 C   0  0  0  0  0  0  0  0  0  0  0  0
   38.1101  125.2757   23.9659 C   0  0  0  0  0  0  0  0  0  0  0  0
   39.1727  129.4214   25.1792 C   0  0  0  0  0  0  0  0  0  0  0  0
   40.1745  133.4117   25.0261 C   0  0  0  0  0  0  0  0  0  0  0  0
   37.2345  129.9426   23.8343 C   0  0  0  0  0  0  0  0  0  0  0  0
   36.4267  127.1642   25.1388 C   0  0  0  0  0  0  0  0  0  0  0  0
   38.4668  126.6288   23.9505 C   0  0  0  0  0  0  0  0  0  0  0  0
   38.7209  131.6667   24.4444 C   0  0  0  0  0  0  0  0  0  0  0  0
   39.5296  130.7652   25.1359 C   0  0  0  0  0  0  0  0  0  0  0  0
   38.0102  129.0070   24.5218 C   0  0  0  0  0  0  0  0  0  0  0  0
   37.6215  127.5670   24.5425 C   0  0  0  0  0  0  0  0  0  0  0  0
   39.8820  135.3576   24.4646 H   0  0  0  0  0  0  0  0  0  0  0  0
   41.2941  135.0769   25.4274 H   0  0  0  0  0  0  0  0  0  0  0  0
   35.8075  128.6263   23.1796 H   0  0  0  0  0  0  0  0  0  0  0  0
   35.5588  130.2727   22.7026 H   0  0  0  0  0  0  0  0  0  0  0  0
   33.8135  128.7068   26.3310 H   0  0  0  0  0  0  0  0  0  0  0  0
   33.7902  127.7684   24.9948 H   0  0  0  0  0  0  0  0  0  0  0  0
   34.0623  127.0979   26.4587 H   0  0  0  0  0  0  0  0  0  0  0  0
   41.4358  126.6949   22.5631 H   0  0  0  0  0  0  0  0  0  0  0  0
   41.0184  125.6592   23.7547 H   0  0  0  0  0  0  0  0  0  0  0  0
   40.3318  125.5256   22.2790 H   0  0  0  0  0  0  0  0  0  0  0  0
   41.2684  130.6082   26.2781 H   0  0  0  0  0  0  0  0  0  0  0  0
   36.6654  123.9019   24.5711 H   0  0  0  0  0  0  0  0  0  0  0  0
   35.2184  125.5201   25.5820 H   0  0  0  0  0  0  0  0  0  0  0  0
   38.7130  124.5970   23.5465 H   0  0  0  0  0  0  0  0  0  0  0  0
   39.7390  128.7616   25.6731 H   0  0  0  0  0  0  0  0  0  0  0  0
  1  8  1  0  0  0  0
  1 17  1  0  0  0  0
  2  9  1  0  0  0  0
  2 18  1  0  0  0  0
  3 15  1  0  0  0  0
  4 16  1  0  0  0  0
  5 10  1  0  0  0  0
  5 15  2  0  0  0  0
  6 15  1  0  0  0  0
  6 19  2  0  0  0  0
  7 16  2  0  0  0  0
  7 19  1  0  0  0  0
 10 20  2  0  0  0  0
 11 12  2  0  0  0  0
 11 13  1  0  0  0  0
 12 17  1  0  0  0  0
 13 18  2  0  0  0  0
 14 20  1  0  0  0  0
 14 21  2  0  0  0  0
 16 21  1  0  0  0  0
 17 22  2  0  0  0  0
 18 22  1  0  0  0  0
 19 20  1  0  0  0  0
 21 22  1  0  0  0  0
  3 23  1  0  0  0  0
  3 24  1  0  0  0  0
  4 25  1  0  0  0  0
  4 26  1  0  0  0  0
  8 27  1  0  0  0  0
  8 28  1  0  0  0  0
  8 29  1  0  0  0  0
  9 30  1  0  0  0  0
  9 31  1  0  0  0  0
  9 32  1  0  0  0  0
 10 33  1  0  0  0  0
 11 34  1  0  0  0  0
 12 35  1  0  0  0  0
 13 36  1  0  0  0  0
 14 37  1  0  0  0  0
M  END
> <pdb_id>
2V59

> <uniprot_id>
P24182

> <usmiles>
O(c1c(c(OC)ccc1)c2c(nc3nc(ncc3c2)N)N)C

$$$$
M00_A_601
          07202407403D 1   1.00000     0.00000     0
            
 40 41  0  0  0  0            999 V2000
   22.2939   -0.5519   13.5401 O   0  0  0  0  0  0  0  0  0  0  0  0
   19.9621   -2.9567   14.8809 O   0  0  0  0  0  0  0  0  0  0  0  0
   14.8791   -5.6161   11.1916 O   0  0  0  0  0  0  0  0  0  0  0  0
   21.8229   -3.2597   13.5494 N   0  0  0  0  0  0  0  0  0  0  0  0
   16.9027   -5.3985   12.1719 N   0  0  0  0  0  0  0  0  0  0  0  0
   18.5457   -7.1426   12.1937 N   0  0  0  0  0  0  0  0  0  0  0  0
   24.8890   -3.8354   14.1499 C   0  0  0  0  0  0  0  0  0  0  0  0
   23.4265   -1.3426   14.0048 C   0  0  0  0  0  0  0  0  0  0  0  0
   17.2406  -10.0128   10.4832 C   0  0  0  0  0  0  0  0  0  0  0  0
   16.0319   -9.5420   10.0463 C   0  0  0  0  0  0  0  0  0  0  0  0
   23.7384   -3.7091   15.0860 C   0  0  0  0  0  0  0  0  0  0  0  0
   19.7547   -4.0280   12.6507 C   0  0  0  0  0  0  0  0  0  0  0  0
   18.1273   -9.2013   11.1818 C   0  0  0  0  0  0  0  0  0  0  0  0
   19.1058   -5.2027   13.3112 C   0  0  0  0  0  0  0  0  0  0  0  0
   15.5802   -8.2579   10.3516 C   0  0  0  0  0  0  0  0  0  0  0  0
   20.5053   -3.3605   13.8033 C   0  0  0  0  0  0  0  0  0  0  0  0
   18.1777   -5.8971   12.5524 C   0  0  0  0  0  0  0  0  0  0  0  0
   15.9894   -6.1114   11.4409 C   0  0  0  0  0  0  0  0  0  0  0  0
   22.7890   -2.6390   14.5457 C   0  0  2  0  0  0  0  0  0  0  0  0
   17.7086   -7.9137   11.4780 C   0  0  0  0  0  0  0  0  0  0  0  0
   16.3865   -7.4173   11.0727 C   0  0  0  0  0  0  0  0  0  0  0  0
   22.6233    0.3163   13.1691 H   0  0  0  0  0  0  0  0  0  0  0  0
   22.1771   -3.6032   12.6796 H   0  0  0  0  0  0  0  0  0  0  0  0
   16.6573   -4.4713   12.4549 H   0  0  0  0  0  0  0  0  0  0  0  0
   25.5202   -4.5326   14.4896 H   0  0  0  0  0  0  0  0  0  0  0  0
   24.5551   -4.1005   13.2453 H   0  0  0  0  0  0  0  0  0  0  0  0
   25.3644   -2.9581   14.0858 H   0  0  0  0  0  0  0  0  0  0  0  0
   23.9209   -0.8619   14.7290 H   0  0  0  0  0  0  0  0  0  0  0  0
   24.0519   -1.5432   13.2507 H   0  0  0  0  0  0  0  0  0  0  0  0
   17.4916  -10.9624   10.2956 H   0  0  0  0  0  0  0  0  0  0  0  0
   15.4534  -10.1383    9.4897 H   0  0  0  0  0  0  0  0  0  0  0  0
   24.0680   -3.4417   15.9915 H   0  0  0  0  0  0  0  0  0  0  0  0
   23.2587   -4.5841   15.1510 H   0  0  0  0  0  0  0  0  0  0  0  0
   19.0709   -3.4109   12.2613 H   0  0  0  0  0  0  0  0  0  0  0  0
   20.3857   -4.3220   11.9327 H   0  0  0  0  0  0  0  0  0  0  0  0
   19.0292   -9.5327   11.4589 H   0  0  0  0  0  0  0  0  0  0  0  0
   18.6417   -4.8723   14.1331 H   0  0  0  0  0  0  0  0  0  0  0  0
   19.8280   -5.8437   13.5711 H   0  0  0  0  0  0  0  0  0  0  0  0
   14.6773   -7.9542   10.0473 H   0  0  0  0  0  0  0  0  0  0  0  0
   22.2285   -2.3584   15.3249 H   0  0  0  0  0  0  0  0  0  0  0  0
  1  8  1  0  0  0  0
  2 16  2  0  0  0  0
  3 18  2  0  0  0  0
  4 16  1  0  0  0  0
  4 19  1  0  0  0  0
  5 17  1  0  0  0  0
  5 18  1  0  0  0  0
  6 17  2  0  0  0  0
  6 20  1  0  0  0  0
  7 11  1  0  0  0  0
  8 19  1  0  0  0  0
  9 10  2  0  0  0  0
  9 13  1  0  0  0  0
 10 15  1  0  0  0  0
 11 19  1  0  0  0  0
 12 14  1  0  0  0  0
 12 16  1  0  0  0  0
 13 20  2  0  0  0  0
 14 17  1  0  0  0  0
 15 21  2  0  0  0  0
 18 21  1  0  0  0  0
 20 21  1  0  0  0  0
  1 22  1  0  0  0  0
  4 23  1  0  0  0  0
  5 24  1  0  0  0  0
  7 25  1  0  0  0  0
  7 26  1  0  0  0  0
  7 27  1  0  0  0  0
  8 28  1  0  0  0  0
  8 29  1  0  0  0  0
  9 30  1  0  0  0  0
 10 31  1  0  0  0  0
 11 32  1  0  0  0  0
 11 33  1  0  0  0  0
 12 34  1  0  0  0  0
 12 35  1  0  0  0  0
 13 36  1  0  0  0  0
 14 37  1  0  0  0  0
 14 38  1  0  0  0  0
 15 39  1  0  0  0  0
 19 40  1  0  0  0  0
M  END
> <pdb_id>
4L7R

> <uniprot_id>
Q9Y6F1

> <usmiles>
O=C1NC(=Nc2c1cccc2)CCC(=O)N[C@H](CO)CC

$$$$
M03_A_1354
          07192421303D 1   1.00000     0.00000     0
            
 44 47  0  0  0  0            999 V2000
   13.9412   13.1983    1.7122 Cl  0  0  0  0  0  0  0  0  0  0  0  0
   11.5030    7.1936    2.6334 N   0  0  0  0  0  0  0  0  0  0  0  0
    3.2436   10.2294    4.2131 N   0  0  0  0  0  0  0  0  0  0  0  0
    5.5421   10.4845    4.8797 N   0  0  0  0  0  0  0  0  0  0  0  0
    2.9129    9.9563    1.8450 N   0  0  0  0  0  0  0  0  0  0  0  0
    7.3549   10.3896    3.4453 N   0  0  0  0  0  0  0  0  0  0  0  0
    4.2234   10.4275    5.0956 C   0  0  0  0  0  0  0  0  0  0  0  0
   10.6170    7.6261    3.7516 C   0  0  0  0  0  0  0  0  0  0  0  0
    3.7101    9.8976    0.7565 C   0  0  0  0  0  0  0  0  0  0  0  0
    7.9994    9.9639    2.2028 C   0  0  0  0  0  0  0  0  0  0  0  0
    8.3439   10.6684    4.5059 C   0  0  0  0  0  0  0  0  0  0  0  0
   12.7409   11.5784    3.5242 C   0  0  0  0  0  0  0  0  0  0  0  0
   11.9940   11.3615    1.2558 C   0  0  0  0  0  0  0  0  0  0  0  0
    5.0203   10.0190    1.1652 C   0  0  0  0  0  0  0  0  0  0  0  0
   11.8168   10.6311    3.9250 C   0  0  0  0  0  0  0  0  0  0  0  0
   11.0758   10.3997    1.6527 C   0  0  0  0  0  0  0  0  0  0  0  0
    8.8429    8.7351    2.4415 C   0  0  0  0  0  0  0  0  0  0  0  0
    9.2236    9.4512    4.7597 C   0  0  0  0  0  0  0  0  0  0  0  0
   12.8249   11.9570    2.1921 C   0  0  0  0  0  0  0  0  0  0  0  0
    3.6900   10.1177    2.9621 C   0  0  0  0  0  0  0  0  0  0  0  0
    5.9767   10.3394    3.6163 C   0  0  0  0  0  0  0  0  0  0  0  0
    5.0249   10.1843    2.5647 C   0  0  0  0  0  0  0  0  0  0  0  0
   10.9582   10.0387    3.0003 C   0  0  0  0  0  0  0  0  0  0  0  0
    9.9392    8.9779    3.4823 C   0  0  0  0  0  0  0  0  0  0  0  0
   11.9176    6.3119    2.8585 H   0  0  0  0  0  0  0  0  0  0  0  0
   10.9636    7.1043    1.7961 H   0  0  0  0  0  0  0  0  0  0  0  0
    1.9150    9.8922    1.8371 H   0  0  0  0  0  0  0  0  0  0  0  0
    3.9338   10.5498    6.0449 H   0  0  0  0  0  0  0  0  0  0  0  0
   11.1665    7.7038    4.5835 H   0  0  0  0  0  0  0  0  0  0  0  0
    9.9079    6.9335    3.8841 H   0  0  0  0  0  0  0  0  0  0  0  0
    3.4013    9.7849   -0.1879 H   0  0  0  0  0  0  0  0  0  0  0  0
    8.5820   10.7027    1.8640 H   0  0  0  0  0  0  0  0  0  0  0  0
    7.2971    9.7544    1.5224 H   0  0  0  0  0  0  0  0  0  0  0  0
    7.8619   10.9060    5.3492 H   0  0  0  0  0  0  0  0  0  0  0  0
    8.9197   11.4357    4.2235 H   0  0  0  0  0  0  0  0  0  0  0  0
   13.3521   11.9931    4.1984 H   0  0  0  0  0  0  0  0  0  0  0  0
   12.0562   11.6254    0.2933 H   0  0  0  0  0  0  0  0  0  0  0  0
    5.8258    9.9941    0.5732 H   0  0  0  0  0  0  0  0  0  0  0  0
   11.7639   10.3682    4.8884 H   0  0  0  0  0  0  0  0  0  0  0  0
   10.4925    9.9602    0.9696 H   0  0  0  0  0  0  0  0  0  0  0  0
    9.2717    8.4666    1.5789 H   0  0  0  0  0  0  0  0  0  0  0  0
    8.2511    7.9962    2.7637 H   0  0  0  0  0  0  0  0  0  0  0  0
    8.6521    8.7064    5.1039 H   0  0  0  0  0  0  0  0  0  0  0  0
    9.9115    9.6880    5.4458 H   0  0  0  0  0  0  0  0  0  0  0  0
  1 19  1  0  0  0  0
  2  8  1  0  0  0  0
  3  7  2  0  0  0  0
  3 20  1  0  0  0  0
  4  7  1  0  0  0  0
  4 21  2  0  0  0  0
  5  9  1  0  0  0  0
  5 20  1  0  0  0  0
  6 10  1  0  0  0  0
  6 11  1  0  0  0  0
  6 21  1  0  0  0  0
  8 24  1  0  0  0  0
  9 14  2  0  0  0  0
 10 17  1  0  0  0  0
 11 18  1  0  0  0  0
 12 15  2  0  0  0  0
 12 19  1  0  0  0  0
 13 16  1  0  0  0  0
 13 19  2  0  0  0  0
 14 22  1  0  0  0  0
 15 23  1  0  0  0  0
 16 23  2  0  0  0  0
 17 24  1  0  0  0  0
 18 24  1  0  0  0  0
 20 22  2  0  0  0  0
 21 22  1  0  0  0  0
 23 24  1  0  0  0  0
  2 25  1  0  0  0  0
  2 26  1  0  0  0  0
  5 27  1  0  0  0  0
  7 28  1  0  0  0  0
  8 29  1  0  0  0  0
  8 30  1  0  0  0  0
  9 31  1  0  0  0  0
 10 32  1  0  0  0  0
 10 33  1  0  0  0  0
 11 34  1  0  0  0  0
 11 35  1  0  0  0  0
 12 36  1  0  0  0  0
 13 37  1  0  0  0  0
 14 38  1  0  0  0  0
 15 39  1  0  0  0  0
 16 40  1  0  0  0  0
 17 41  1  0  0  0  0
 17 42  1  0  0  0  0
 18 43  1  0  0  0  0
 18 44  1  0  0  0  0
M  END
> <pdb_id>
2VO0

> <uniprot_id>
P00517

> <usmiles>
Clc1ccc(cc1)C2(CN)CCN(c3ncnc4NC=Cc34)CC2

$$$$
M04_A_1352
          07192421303D 1   1.00000     0.00000     0
            
 47 50  0  0  0  0            999 V2000
   13.4827   14.2893   -0.7484 Cl  0  0  0  0  0  0  0  0  0  0  0  0
   11.1307    7.0889    3.1478 N   0  0  0  0  0  0  0  0  0  0  0  0
    3.5228   10.3003    4.0507 N   0  0  0  0  0  0  0  0  0  0  0  0
    5.8250   10.3259    4.7531 N   0  0  0  0  0  0  0  0  0  0  0  0
    3.2530   10.1195    1.6650 N   0  0  0  0  0  0  0  0  0  0  0  0
    7.6959   10.2057    3.2988 N   0  0  0  0  0  0  0  0  0  0  0  0
    4.5036   10.3593    4.9531 C   0  0  0  0  0  0  0  0  0  0  0  0
   10.5153    8.1496    3.9917 C   0  0  0  0  0  0  0  0  0  0  0  0
    4.0699   10.0530    0.5853 C   0  0  0  0  0  0  0  0  0  0  0  0
    8.2603    9.2685    2.3125 C   0  0  0  0  0  0  0  0  0  0  0  0
    8.4749   10.2678    4.5469 C   0  0  0  0  0  0  0  0  0  0  0  0
   12.8528   11.7353   -0.1210 C   0  0  0  0  0  0  0  0  0  0  0  0
   12.8747   13.2884    1.6957 C   0  0  0  0  0  0  0  0  0  0  0  0
    5.3707   10.0851    1.0206 C   0  0  0  0  0  0  0  0  0  0  0  0
   12.5272   10.7186    0.7533 C   0  0  0  0  0  0  0  0  0  0  0  0
   12.5481   12.2717    2.5681 C   0  0  0  0  0  0  0  0  0  0  0  0
    9.7304    9.5521    2.0346 C   0  0  0  0  0  0  0  0  0  0  0  0
    9.9459   10.5494    4.2669 C   0  0  0  0  0  0  0  0  0  0  0  0
   12.0556    9.8611    3.0637 C   0  0  0  0  0  0  0  0  0  0  0  0
   13.0207   13.0240    0.3458 C   0  0  0  0  0  0  0  0  0  0  0  0
    4.0009   10.2081    2.8024 C   0  0  0  0  0  0  0  0  0  0  0  0
    6.2707   10.2312    3.4872 C   0  0  0  0  0  0  0  0  0  0  0  0
   12.3591   10.9800    2.1046 C   0  0  0  0  0  0  0  0  0  0  0  0
    5.3360   10.1879    2.4442 C   0  0  0  0  0  0  0  0  0  0  0  0
   10.5758    9.5299    3.3098 C   0  0  0  0  0  0  0  0  0  0  0  0
   11.0728    6.2103    3.6219 H   0  0  0  0  0  0  0  0  0  0  0  0
   10.6423    7.0305    2.2771 H   0  0  0  0  0  0  0  0  0  0  0  0
    2.2536   10.1058    1.6325 H   0  0  0  0  0  0  0  0  0  0  0  0
    4.2114   10.4392    5.9061 H   0  0  0  0  0  0  0  0  0  0  0  0
   11.0063    8.1966    4.8616 H   0  0  0  0  0  0  0  0  0  0  0  0
    9.5584    7.9140    4.1613 H   0  0  0  0  0  0  0  0  0  0  0  0
    3.7743    9.9909   -0.3679 H   0  0  0  0  0  0  0  0  0  0  0  0
    7.7479    9.3516    1.4578 H   0  0  0  0  0  0  0  0  0  0  0  0
    8.1720    8.3368    2.6648 H   0  0  0  0  0  0  0  0  0  0  0  0
    8.3958    9.3927    5.0243 H   0  0  0  0  0  0  0  0  0  0  0  0
    8.1077   10.9969    5.1244 H   0  0  0  0  0  0  0  0  0  0  0  0
   12.9674   11.5385   -1.0947 H   0  0  0  0  0  0  0  0  0  0  0  0
   13.0063   14.2182    2.0395 H   0  0  0  0  0  0  0  0  0  0  0  0
    6.1896   10.0441    0.4481 H   0  0  0  0  0  0  0  0  0  0  0  0
   12.4116    9.7865    0.4099 H   0  0  0  0  0  0  0  0  0  0  0  0
   12.4468   12.4684    3.5433 H   0  0  0  0  0  0  0  0  0  0  0  0
    9.8096   10.4548    1.6116 H   0  0  0  0  0  0  0  0  0  0  0  0
   10.0788    8.8574    1.4053 H   0  0  0  0  0  0  0  0  0  0  0  0
   10.4459   10.5259    5.1326 H   0  0  0  0  0  0  0  0  0  0  0  0
   10.0250   11.4598    3.8608 H   0  0  0  0  0  0  0  0  0  0  0  0
   12.4606   10.1025    3.9455 H   0  0  0  0  0  0  0  0  0  0  0  0
   12.4942    9.0348    2.7104 H   0  0  0  0  0  0  0  0  0  0  0  0
  1 20  1  0  0  0  0
  2  8  1  0  0  0  0
  3  7  2  0  0  0  0
  3 21  1  0  0  0  0
  4  7  1  0  0  0  0
  4 22  2  0  0  0  0
  5  9  1  0  0  0  0
  5 21  1  0  0  0  0
  6 10  1  0  0  0  0
  6 11  1  0  0  0  0
  6 22  1  0  0  0  0
  8 25  1  0  0  0  0
  9 14  2  0  0  0  0
 10 17  1  0  0  0  0
 11 18  1  0  0  0  0
 12 15  2  0  0  0  0
 12 20  1  0  0  0  0
 13 16  1  0  0  0  0
 13 20  2  0  0  0  0
 14 24  1  0  0  0  0
 15 23  1  0  0  0  0
 16 23  2  0  0  0  0
 17 25  1  0  0  0  0
 18 25  1  0  0  0  0
 19 23  1  0  0  0  0
 19 25  1  0  0  0  0
 21 24  2  0  0  0  0
 22 24  1  0  0  0  0
  2 26  1  0  0  0  0
  2 27  1  0  0  0  0
  5 28  1  0  0  0  0
  7 29  1  0  0  0  0
  8 30  1  0  0  0  0
  8 31  1  0  0  0  0
  9 32  1  0  0  0  0
 10 33  1  0  0  0  0
 10 34  1  0  0  0  0
 11 35  1  0  0  0  0
 11 36  1  0  0  0  0
 12 37  1  0  0  0  0
 13 38  1  0  0  0  0
 14 39  1  0  0  0  0
 15 40  1  0  0  0  0
 16 41  1  0  0  0  0
 17 42  1  0  0  0  0
 17 43  1  0  0  0  0
 18 44  1  0  0  0  0
 18 45  1  0  0  0  0
 19 46  1  0  0  0  0
 19 47  1  0  0  0  0
M  END
> <pdb_id>
2VO3

> <uniprot_id>
P00517

> <usmiles>
Clc1ccc(cc1)CC2(CN)CCN(c3ncnc4NC=Cc34)CC2

$$$$
M0A_A_901
          07192416553D 1   1.00000     0.00000     0
            
 52 55  0  0  0  0            999 V2000
  -11.4030   21.3350  -39.2240 N   0  0  0  0  0  0  0  0  0  0  0  0
   -6.9270   18.0960  -36.3350 N   0  0  0  0  0  0  0  0  0  0  0  0
   -6.1760   20.2930  -36.0080 N   0  0  0  0  0  0  0  0  0  0  0  0
   -9.3820   18.8260  -35.0590 N   0  0  0  0  0  0  0  0  0  0  0  0
   -9.8060   20.8230  -34.3470 N   0  0  0  0  0  0  0  0  0  0  0  0
  -10.3970   18.6520  -30.3380 C   0  0  0  0  0  0  0  0  0  0  0  0
  -11.2930   22.8060  -39.0520 C   0  0  0  0  0  0  0  0  0  0  0  0
  -10.6690   21.9090  -33.8400 C   0  0  0  0  0  0  0  0  0  0  0  0
  -10.2720   19.0040  -31.7970 C   0  0  0  0  0  0  0  0  0  0  0  0
  -11.6240   19.1430  -32.4690 C   0  0  0  0  0  0  0  0  0  0  0  0
   -5.7110   23.7920  -35.2090 C   0  0  0  0  0  0  0  0  0  0  0  0
   -6.9350   24.1060  -34.6080 C   0  0  0  0  0  0  0  0  0  0  0  0
  -11.5370   25.0050  -36.0640 C   0  0  0  0  0  0  0  0  0  0  0  0
  -11.6290   19.1560  -34.0140 C   0  0  0  0  0  0  0  0  0  0  0  0
   -5.4570   22.5040  -35.6800 C   0  0  0  0  0  0  0  0  0  0  0  0
  -11.5350   24.5280  -37.3620 C   0  0  0  0  0  0  0  0  0  0  0  0
  -11.2810   24.1460  -34.9810 C   0  0  0  0  0  0  0  0  0  0  0  0
   -7.9000   23.1450  -34.4920 C   0  0  0  0  0  0  0  0  0  0  0  0
  -11.0080   22.3280  -36.4820 C   0  0  0  0  0  0  0  0  0  0  0  0
   -7.1260   19.3590  -35.8920 C   0  0  0  0  0  0  0  0  0  0  0  0
  -10.2810   19.6010  -34.4800 C   0  0  0  0  0  0  0  0  0  0  0  0
   -6.4450   21.5590  -35.5650 C   0  0  0  0  0  0  0  0  0  0  0  0
   -8.3190   19.6230  -35.3440 C   0  0  0  0  0  0  0  0  0  0  0  0
   -8.5900   20.8660  -34.8920 C   0  0  0  0  0  0  0  0  0  0  0  0
  -11.2670   23.1970  -37.5850 C   0  0  0  0  0  0  0  0  0  0  0  0
  -11.0090   22.7800  -35.1330 C   0  0  0  0  0  0  0  0  0  0  0  0
   -7.6590   21.8770  -34.9960 C   0  0  0  0  0  0  0  0  0  0  0  0
  -11.4174   21.1136  -40.1991 H   0  0  0  0  0  0  0  0  0  0  0  0
  -10.6186   20.8894  -38.7925 H   0  0  0  0  0  0  0  0  0  0  0  0
   -7.6506   17.4125  -36.2386 H   0  0  0  0  0  0  0  0  0  0  0  0
   -6.0564   17.8461  -36.7587 H   0  0  0  0  0  0  0  0  0  0  0  0
   -9.4852   18.5704  -29.9355 H   0  0  0  0  0  0  0  0  0  0  0  0
  -10.9074   19.3698  -29.8645 H   0  0  0  0  0  0  0  0  0  0  0  0
  -10.8814   17.7821  -30.2453 H   0  0  0  0  0  0  0  0  0  0  0  0
  -12.0780   23.2436  -39.4906 H   0  0  0  0  0  0  0  0  0  0  0  0
  -10.4495   23.1214  -39.4869 H   0  0  0  0  0  0  0  0  0  0  0  0
  -10.1837   22.4589  -33.1602 H   0  0  0  0  0  0  0  0  0  0  0  0
  -11.5038   21.5375  -33.4338 H   0  0  0  0  0  0  0  0  0  0  0  0
   -9.7549   18.2836  -32.2592 H   0  0  0  0  0  0  0  0  0  0  0  0
   -9.7810   19.8713  -31.8784 H   0  0  0  0  0  0  0  0  0  0  0  0
  -12.0314   20.0012  -32.1568 H   0  0  0  0  0  0  0  0  0  0  0  0
  -12.1920   18.3762  -32.1700 H   0  0  0  0  0  0  0  0  0  0  0  0
   -5.0102   24.4993  -35.3019 H   0  0  0  0  0  0  0  0  0  0  0  0
   -7.1031   25.0300  -34.2646 H   0  0  0  0  0  0  0  0  0  0  0  0
  -11.7228   25.9727  -35.8937 H   0  0  0  0  0  0  0  0  0  0  0  0
  -12.3281   19.7897  -34.3452 H   0  0  0  0  0  0  0  0  0  0  0  0
  -11.8208   18.2375  -34.3599 H   0  0  0  0  0  0  0  0  0  0  0  0
   -4.5752   22.2746  -36.0920 H   0  0  0  0  0  0  0  0  0  0  0  0
  -11.7257   25.1419  -38.1280 H   0  0  0  0  0  0  0  0  0  0  0  0
  -11.2936   24.5286  -34.0572 H   0  0  0  0  0  0  0  0  0  0  0  0
   -8.7711   23.3549  -34.0479 H   0  0  0  0  0  0  0  0  0  0  0  0
  -10.8184   21.3633  -36.6650 H   0  0  0  0  0  0  0  0  0  0  0  0
  1  7  1  0  0  0  0
  2 20  1  0  0  0  0
  3 20  2  0  0  0  0
  3 22  1  0  0  0  0
  4 21  2  0  0  0  0
  4 23  1  0  0  0  0
  5  8  1  0  0  0  0
  5 21  1  0  0  0  0
  5 24  1  0  0  0  0
  6  9  1  0  0  0  0
  7 25  1  0  0  0  0
  8 26  1  0  0  0  0
  9 10  1  0  0  0  0
 10 14  1  0  0  0  0
 11 12  2  0  0  0  0
 11 15  1  0  0  0  0
 12 18  1  0  0  0  0
 13 16  1  0  0  0  0
 13 17  2  0  0  0  0
 14 21  1  0  0  0  0
 15 22  2  0  0  0  0
 16 25  2  0  0  0  0
 17 26  1  0  0  0  0
 18 27  2  0  0  0  0
 19 25  1  0  0  0  0
 19 26  2  0  0  0  0
 20 23  1  0  0  0  0
 22 27  1  0  0  0  0
 23 24  2  0  0  0  0
 24 27  1  0  0  0  0
  1 28  1  0  0  0  0
  1 29  1  0  0  0  0
  2 30  1  0  0  0  0
  2 31  1  0  0  0  0
  6 32  1  0  0  0  0
  6 33  1  0  0  0  0
  6 34  1  0  0  0  0
  7 35  1  0  0  0  0
  7 36  1  0  0  0  0
  8 37  1  0  0  0  0
  8 38  1  0  0  0  0
  9 39  1  0  0  0  0
  9 40  1  0  0  0  0
 10 41  1  0  0  0  0
 10 42  1  0  0  0  0
 11 43  1  0  0  0  0
 12 44  1  0  0  0  0
 13 45  1  0  0  0  0
 14 46  1  0  0  0  0
 14 47  1  0  0  0  0
 15 48  1  0  0  0  0
 16 49  1  0  0  0  0
 17 50  1  0  0  0  0
 18 51  1  0  0  0  0
 19 52  1  0  0  0  0
M  END
> <pdb_id>
5AWB

> <uniprot_id>
Q9NR97

> <usmiles>
n1c(N)c2N=C(N(c2c3c1cccc3)Cc4cc(ccc4)CN)CCCC

$$$$
M0Y_A_702
          07202407573D 1   1.00000     0.00000     0
            
 35 37  0  0  0  0            999 V2000
   -1.2439    6.8531   15.0858 O   0  0  0  0  0  0  0  0  0  0  0  0
   -6.0823    4.9198   16.2590 O   0  0  0  0  0  0  0  0  0  0  0  0
   -1.3100    5.1056   16.5903 N   0  0  0  0  0  0  0  0  0  0  0  0
   -7.8330    5.6973   15.0477 N   0  0  0  0  0  0  0  0  0  0  0  0
   -6.0485    7.5894   13.8203 N   0  0  0  0  0  0  0  0  0  0  0  0
   -3.3460    5.9247   15.6880 N   0  0  0  0  0  0  0  0  0  0  0  0
   -4.9464    8.2828   13.4665 N   0  0  0  0  0  0  0  0  0  0  0  0
   -3.7868    7.8397   14.0596 C   0  0  0  0  0  0  0  0  0  0  0  0
   -7.2444   12.9257   13.3209 C   0  0  0  0  0  0  0  0  0  0  0  0
   -7.2727   11.8735   14.3086 C   0  0  0  0  0  0  0  0  0  0  0  0
   -4.2030   10.3695   10.4706 C   0  0  0  0  0  0  0  0  0  0  0  0
   -4.2026    9.2908   11.4233 C   0  0  0  0  0  0  0  0  0  0  0  0
   -6.5271   12.8001   12.1486 C   0  0  0  0  0  0  0  0  0  0  0  0
   -4.9707   11.4935   10.7115 C   0  0  0  0  0  0  0  0  0  0  0  0
   -6.5664   10.7163   14.0889 C   0  0  0  0  0  0  0  0  0  0  0  0
   -1.9394    6.0320   15.7515 C   0  0  0  0  0  0  0  0  0  0  0  0
   -6.5016    5.6983   15.3834 C   0  0  0  0  0  0  0  0  0  0  0  0
   -4.1684    6.7708   14.8906 C   0  0  0  0  0  0  0  0  0  0  0  0
   -5.6004    6.6476   14.7142 C   0  0  0  0  0  0  0  0  0  0  0  0
   -4.9753    9.3960   12.5758 C   0  0  0  0  0  0  0  0  0  0  0  0
   -5.7642   11.6091   11.9029 C   0  0  0  0  0  0  0  0  0  0  0  0
   -5.7805   10.5537   12.8756 C   0  0  0  0  0  0  0  0  0  0  0  0
   -1.8576    4.4557   17.1174 H   0  0  0  0  0  0  0  0  0  0  0  0
   -0.3127    5.0934   16.6626 H   0  0  0  0  0  0  0  0  0  0  0  0
   -8.1718    6.3222   14.3443 H   0  0  0  0  0  0  0  0  0  0  0  0
   -8.4640    5.0717   15.5065 H   0  0  0  0  0  0  0  0  0  0  0  0
   -3.7899    5.2142   16.2341 H   0  0  0  0  0  0  0  0  0  0  0  0
   -2.8642    8.2022   13.9274 H   0  0  0  0  0  0  0  0  0  0  0  0
   -7.7577   13.7671   13.4904 H   0  0  0  0  0  0  0  0  0  0  0  0
   -7.8038   11.9865   15.1484 H   0  0  0  0  0  0  0  0  0  0  0  0
   -3.6510   10.3062    9.6392 H   0  0  0  0  0  0  0  0  0  0  0  0
   -3.6518    8.4726   11.2585 H   0  0  0  0  0  0  0  0  0  0  0  0
   -6.5387   13.5366   11.4723 H   0  0  0  0  0  0  0  0  0  0  0  0
   -4.9737   12.2388   10.0447 H   0  0  0  0  0  0  0  0  0  0  0  0
   -6.5924    9.9816   14.7667 H   0  0  0  0  0  0  0  0  0  0  0  0
  1 16  2  0  0  0  0
  2 17  2  0  0  0  0
  3 16  1  0  0  0  0
  4 17  1  0  0  0  0
  5  7  1  0  0  0  0
  5 19  2  0  0  0  0
  6 16  1  0  0  0  0
  6 18  1  0  0  0  0
  7  8  1  0  0  0  0
  7 20  1  0  0  0  0
  8 18  2  0  0  0  0
  9 10  2  0  0  0  0
  9 13  1  0  0  0  0
 10 15  1  0  0  0  0
 11 12  1  0  0  0  0
 11 14  2  0  0  0  0
 12 20  2  0  0  0  0
 13 21  2  0  0  0  0
 14 21  1  0  0  0  0
 15 22  2  0  0  0  0
 17 19  1  0  0  0  0
 18 19  1  0  0  0  0
 20 22  1  0  0  0  0
 21 22  1  0  0  0  0
  3 23  1  0  0  0  0
  3 24  1  0  0  0  0
  4 25  1  0  0  0  0
  4 26  1  0  0  0  0
  6 27  1  0  0  0  0
  8 28  1  0  0  0  0
  9 29  1  0  0  0  0
 10 30  1  0  0  0  0
 11 31  1  0  0  0  0
 12 32  1  0  0  0  0
 13 33  1  0  0  0  0
 14 34  1  0  0  0  0
 15 35  1  0  0  0  0
M  END
> <pdb_id>
4M0Y

> <uniprot_id>
Q08881

> <usmiles>
O=C(NC=1C(=NN(c2c3c(ccc2)cccc3)C1)C(=O)N)N

$$$$
M1C_A_3001
          07202403143D 1   1.00000     0.00000     0
            
 36 36  0  0  0  0            999 V2000
   14.2550    3.3678    1.5839 O   0  0  0  0  0  0  0  0  0  0  0  0
   15.4575    5.3355    1.3231 O   0  0  0  0  0  0  0  0  0  0  0  0
   16.9038    2.9215    1.0995 N   0  0  0  0  0  0  0  0  0  0  0  0
   14.6639    3.9372    4.6141 N   0  0  0  0  0  0  0  0  0  0  0  0
   21.1337    3.7505    4.4802 C   0  0  0  0  0  0  0  0  0  0  0  0
   19.9762    4.5426    3.9099 C   0  0  0  0  0  0  0  0  0  0  0  0
   14.6627    4.8472    3.4866 C   0  0  0  0  0  0  0  0  0  0  0  0
   18.9207    3.6292    3.2765 C   0  0  0  0  0  0  0  0  0  0  0  0
   17.6471    4.3933    2.9348 C   0  0  0  0  0  0  0  0  0  0  0  0
   13.4516    3.3312    6.6740 C   0  0  0  0  0  0  0  0  0  0  0  0
   12.5739    4.2594    5.8481 C   0  0  0  0  0  0  0  0  0  0  0  0
   16.5328    3.4852    2.3950 C   0  0  1  0  0  0  0  0  0  0  0  0
   14.0871    4.4509    5.8496 C   0  0  0  0  0  0  0  0  0  0  0  0
   15.2223    4.2416    2.1991 C   0  0  0  0  0  0  0  0  0  0  0  0
   14.0767    2.5905    2.1873 H   0  0  0  0  0  0  0  0  0  0  0  0
   16.1274    5.9537    1.7342 H   0  0  0  0  0  0  0  0  0  0  0  0
   16.1652    2.3347    0.7675 H   0  0  0  0  0  0  0  0  0  0  0  0
   17.0603    3.6623    0.4462 H   0  0  0  0  0  0  0  0  0  0  0  0
   15.6128    3.6835    4.8016 H   0  0  0  0  0  0  0  0  0  0  0  0
   21.8001    4.3775    4.8835 H   0  0  0  0  0  0  0  0  0  0  0  0
   20.7954    3.1257    5.1839 H   0  0  0  0  0  0  0  0  0  0  0  0
   21.5700    3.2251    3.7497 H   0  0  0  0  0  0  0  0  0  0  0  0
   20.3245    5.1680    3.2116 H   0  0  0  0  0  0  0  0  0  0  0  0
   19.5499    5.0686    4.6458 H   0  0  0  0  0  0  0  0  0  0  0  0
   15.2164    5.6449    3.7256 H   0  0  0  0  0  0  0  0  0  0  0  0
   13.7203    5.1347    3.3154 H   0  0  0  0  0  0  0  0  0  0  0  0
   18.6969    2.8974    3.9203 H   0  0  0  0  0  0  0  0  0  0  0  0
   19.2958    3.2328    2.4385 H   0  0  0  0  0  0  0  0  0  0  0  0
   17.8634    5.0801    2.2409 H   0  0  0  0  0  0  0  0  0  0  0  0
   17.3159    4.8478    3.7617 H   0  0  0  0  0  0  0  0  0  0  0  0
   13.5701    2.3775    6.3973 H   0  0  0  0  0  0  0  0  0  0  0  0
   13.4407    3.3897    7.6723 H   0  0  0  0  0  0  0  0  0  0  0  0
   11.9856    4.9272    6.3040 H   0  0  0  0  0  0  0  0  0  0  0  0
   12.1149    3.9151    5.0290 H   0  0  0  0  0  0  0  0  0  0  0  0
   16.3819    2.7379    3.0421 H   0  0  0  0  0  0  0  0  0  0  0  0
   14.4943    5.2428    6.3047 H   0  0  0  0  0  0  0  0  0  0  0  0
  1 14  1  0  0  0  0
  2 14  1  0  0  0  0
  3 12  1  0  0  0  0
  4  7  1  0  0  0  0
  4 13  1  0  0  0  0
  5  6  1  0  0  0  0
  6  8  1  0  0  0  0
  7 14  1  0  0  0  0
  8  9  1  0  0  0  0
  9 12  1  0  0  0  0
 10 11  1  0  0  0  0
 10 13  1  0  0  0  0
 11 13  1  0  0  0  0
 12 14  1  0  0  0  0
  1 15  1  0  0  0  0
  2 16  1  0  0  0  0
  3 17  1  0  0  0  0
  3 18  1  0  0  0  0
  4 19  1  0  0  0  0
  5 20  1  0  0  0  0
  5 21  1  0  0  0  0
  5 22  1  0  0  0  0
  6 23  1  0  0  0  0
  6 24  1  0  0  0  0
  7 25  1  0  0  0  0
  7 26  1  0  0  0  0
  8 27  1  0  0  0  0
  8 28  1  0  0  0  0
  9 29  1  0  0  0  0
  9 30  1  0  0  0  0
 10 31  1  0  0  0  0
 10 32  1  0  0  0  0
 11 33  1  0  0  0  0
 11 34  1  0  0  0  0
 12 35  1  0  0  0  0
 13 36  1  0  0  0  0
M  END
> <pdb_id>
1QXW

> <uniprot_id>
P0A080

> <usmiles>
OC(O)([C@@H](N)CCCC)CNC1CC1

$$$$
M1S_A_1215
          07192418153D 1   1.00000     0.00000     0
            
 45 46  0  0  0  0            999 V2000
  -16.7360    3.5791   -1.0779 Cl  0  0  0  0  0  0  0  0  0  0  0  0
  -14.6571    0.9354   -4.2719 O   0  0  0  0  0  0  0  0  0  0  0  0
  -19.4479    1.8945   -6.4696 O   0  0  0  0  0  0  0  0  0  0  0  0
  -18.5382    5.8037   -1.4603 O   0  0  0  0  0  0  0  0  0  0  0  0
  -20.2450    4.4221   -5.6976 O   0  0  0  0  0  0  0  0  0  0  0  0
  -17.1652    1.8762   -6.1820 O   0  0  0  0  0  0  0  0  0  0  0  0
  -17.0128    1.0391   -7.3588 C   0  0  0  0  0  0  0  0  0  0  0  0
  -16.4127    1.8912   -8.4723 C   0  0  0  0  0  0  0  0  0  0  0  0
  -15.0830    2.5295   -8.1408 C   0  0  0  0  0  0  0  0  0  0  0  0
  -14.9743    3.8528   -8.0476 C   0  0  0  0  0  0  0  0  0  0  0  0
  -13.6377    4.4861   -7.7311 C   0  0  0  0  0  0  0  0  0  0  0  0
  -13.7318    5.2768   -6.4273 C   0  0  0  0  0  0  0  0  0  0  0  0
  -12.8774    4.6347   -5.3351 C   0  0  0  0  0  0  0  0  0  0  0  0
  -13.3818    3.2604   -4.9248 C   0  0  0  0  0  0  0  0  0  0  0  0
  -14.7899    3.3305   -4.3221 C   0  0  0  0  0  0  0  0  0  0  0  0
  -16.6777    1.7224   -3.4525 C   0  0  0  0  0  0  0  0  0  0  0  0
  -19.4311    5.1390   -3.5840 C   0  0  0  0  0  0  0  0  0  0  0  0
  -15.3228    1.9514   -4.0558 C   0  0  0  0  0  0  0  0  0  0  0  0
  -18.4822    2.2277   -5.8172 C   0  0  0  0  0  0  0  0  0  0  0  0
  -18.5675    4.9168   -2.5082 C   0  0  0  0  0  0  0  0  0  0  0  0
  -19.3785    4.2338   -4.6350 C   0  0  0  0  0  0  0  0  0  0  0  0
  -17.7344    3.8325   -2.5174 C   0  0  0  0  0  0  0  0  0  0  0  0
  -17.6478    2.9084   -3.5465 C   0  0  0  0  0  0  0  0  0  0  0  0
  -18.5043    3.1326   -4.6203 C   0  0  0  0  0  0  0  0  0  0  0  0
  -17.9209    5.6466   -0.6894 H   0  0  0  0  0  0  0  0  0  0  0  0
  -20.2331    3.7882   -6.4709 H   0  0  0  0  0  0  0  0  0  0  0  0
  -17.9051    0.6889   -7.6434 H   0  0  0  0  0  0  0  0  0  0  0  0
  -16.4041    0.2727   -7.1530 H   0  0  0  0  0  0  0  0  0  0  0  0
  -17.0617    2.6204   -8.6892 H   0  0  0  0  0  0  0  0  0  0  0  0
  -16.2857    1.3084   -9.2750 H   0  0  0  0  0  0  0  0  0  0  0  0
  -14.2795    1.9536   -7.9904 H   0  0  0  0  0  0  0  0  0  0  0  0
  -15.7787    4.4301   -8.1874 H   0  0  0  0  0  0  0  0  0  0  0  0
  -13.3786    5.1026   -8.4746 H   0  0  0  0  0  0  0  0  0  0  0  0
  -12.9461    3.7702   -7.6354 H   0  0  0  0  0  0  0  0  0  0  0  0
  -14.6852    5.2988   -6.1262 H   0  0  0  0  0  0  0  0  0  0  0  0
  -13.4111    6.2104   -6.5870 H   0  0  0  0  0  0  0  0  0  0  0  0
  -12.8845    5.2306   -4.5321 H   0  0  0  0  0  0  0  0  0  0  0  0
  -11.9410    4.5434   -5.6741 H   0  0  0  0  0  0  0  0  0  0  0  0
  -12.7572    2.8753   -4.2454 H   0  0  0  0  0  0  0  0  0  0  0  0
  -13.4033    2.6690   -5.7309 H   0  0  0  0  0  0  0  0  0  0  0  0
  -15.3982    3.7994   -4.9626 H   0  0  0  0  0  0  0  0  0  0  0  0
  -14.7541    3.8403   -3.4626 H   0  0  0  0  0  0  0  0  0  0  0  0
  -16.5518    1.5024   -2.4852 H   0  0  0  0  0  0  0  0  0  0  0  0
  -17.0961    0.9436   -3.9198 H   0  0  0  0  0  0  0  0  0  0  0  0
  -20.0598    5.9165   -3.5962 H   0  0  0  0  0  0  0  0  0  0  0  0
  1 22  1  0  0  0  0
  2 18  2  0  0  0  0
  3 19  2  0  0  0  0
  4 20  1  0  0  0  0
  5 21  1  0  0  0  0
  6  7  1  0  0  0  0
  6 19  1  0  0  0  0
  7  8  1  0  0  0  0
  8  9  1  0  0  0  0
  9 10  2  0  0  0  0
 10 11  1  0  0  0  0
 11 12  1  0  0  0  0
 12 13  1  0  0  0  0
 13 14  1  0  0  0  0
 14 15  1  0  0  0  0
 15 18  1  0  0  0  0
 16 18  1  0  0  0  0
 16 23  1  0  0  0  0
 17 20  2  0  0  0  0
 17 21  1  0  0  0  0
 19 24  1  0  0  0  0
 20 22  1  0  0  0  0
 21 24  2  0  0  0  0
 22 23  2  0  0  0  0
 23 24  1  0  0  0  0
  4 25  1  0  0  0  0
  5 26  1  0  0  0  0
  7 27  1  0  0  0  0
  7 28  1  0  0  0  0
  8 29  1  0  0  0  0
  8 30  1  0  0  0  0
  9 31  1  0  0  0  0
 10 32  1  0  0  0  0
 11 33  1  0  0  0  0
 11 34  1  0  0  0  0
 12 35  1  0  0  0  0
 12 36  1  0  0  0  0
 13 37  1  0  0  0  0
 13 38  1  0  0  0  0
 14 39  1  0  0  0  0
 14 40  1  0  0  0  0
 15 41  1  0  0  0  0
 15 42  1  0  0  0  0
 16 43  1  0  0  0  0
 16 44  1  0  0  0  0
 17 45  1  0  0  0  0
M  END
> <pdb_id>
2IWX

> <uniprot_id>
P02829

> <usmiles>
Clc1c(O)cc(O)c2c1CC(=O)CCCCC/C=C/CCOC2=O

$$$$
M1W_B_1200
          07202414463D 1   1.00000     0.00000     0
            
 38 40  0  0  0  0            999 V2000
   -3.9989   -6.4427   69.5150 O   0  0  0  0  0  0  0  0  0  0  0  0
   -3.7957   -5.8165   66.6534 O   0  0  0  0  0  0  0  0  0  0  0  0
   -6.3590  -10.6359   72.4077 O   0  0  0  0  0  0  0  0  0  0  0  0
   -3.5298   -5.9976   65.4724 N   0  0  0  0  0  0  0  0  0  0  0  0
   -4.9321   -8.4211   69.0056 N   0  0  0  0  0  0  0  0  0  0  0  0
   -3.5495   -7.0875   60.4769 N   0  0  0  0  0  0  0  0  0  0  0  0
   -3.8453   -7.9232   66.3411 N   0  0  0  0  0  0  0  0  0  0  0  0
   -6.8634  -11.1923   73.6281 C   0  0  0  0  0  0  0  0  0  0  0  0
   -6.8594   -9.3269   72.1151 C   0  0  0  0  0  0  0  0  0  0  0  0
   -5.2081   -8.6864   70.4171 C   0  0  0  0  0  0  0  0  0  0  0  0
   -3.9637   -5.8948   61.0049 C   0  0  0  0  0  0  0  0  0  0  0  0
   -6.6753   -9.0420   70.6224 C   0  0  0  0  0  0  0  0  0  0  0  0
   -2.5826   -9.9191   62.7149 C   0  0  0  0  0  0  0  0  0  0  0  0
   -3.9579   -5.9490   62.3453 C   0  0  0  0  0  0  0  0  0  0  0  0
   -2.8095   -9.2826   61.5093 C   0  0  0  0  0  0  0  0  0  0  0  0
   -2.8215   -9.2717   63.9172 C   0  0  0  0  0  0  0  0  0  0  0  0
   -4.3259   -7.2569   68.6698 C   0  0  0  0  0  0  0  0  0  0  0  0
   -4.0100   -6.9935   67.2503 C   0  0  0  0  0  0  0  0  0  0  0  0
   -3.5376   -7.2796   65.2042 C   0  0  0  0  0  0  0  0  0  0  0  0
   -3.2591   -7.9642   61.4908 C   0  0  0  0  0  0  0  0  0  0  0  0
   -3.2835   -7.9544   63.9185 C   0  0  0  0  0  0  0  0  0  0  0  0
   -3.5022   -7.2887   62.7014 C   0  0  0  0  0  0  0  0  0  0  0  0
   -5.1856   -9.0855   68.3025 H   0  0  0  0  0  0  0  0  0  0  0  0
   -3.4706   -7.2890   59.5006 H   0  0  0  0  0  0  0  0  0  0  0  0
   -6.4726  -12.1024   73.7661 H   0  0  0  0  0  0  0  0  0  0  0  0
   -6.6099  -10.6011   74.3937 H   0  0  0  0  0  0  0  0  0  0  0  0
   -7.8596  -11.2616   73.5761 H   0  0  0  0  0  0  0  0  0  0  0  0
   -6.3557   -8.6486   72.6501 H   0  0  0  0  0  0  0  0  0  0  0  0
   -7.8309   -9.2802   72.3475 H   0  0  0  0  0  0  0  0  0  0  0  0
   -4.9901   -7.8708   70.9531 H   0  0  0  0  0  0  0  0  0  0  0  0
   -4.6395   -9.4493   70.7249 H   0  0  0  0  0  0  0  0  0  0  0  0
   -4.2328   -5.0957   60.4673 H   0  0  0  0  0  0  0  0  0  0  0  0
   -7.2566   -8.2774   70.3440 H   0  0  0  0  0  0  0  0  0  0  0  0
   -6.9110   -9.8524   70.0860 H   0  0  0  0  0  0  0  0  0  0  0  0
   -2.2416  -10.8591   62.7200 H   0  0  0  0  0  0  0  0  0  0  0  0
   -4.2149   -5.2164   62.9755 H   0  0  0  0  0  0  0  0  0  0  0  0
   -2.6508   -9.7686   60.6499 H   0  0  0  0  0  0  0  0  0  0  0  0
   -2.6632   -9.7477   64.7823 H   0  0  0  0  0  0  0  0  0  0  0  0
  1 17  2  0  0  0  0
  2  4  1  0  0  0  0
  2 18  1  0  0  0  0
  3  8  1  0  0  0  0
  3  9  1  0  0  0  0
  4 19  2  0  0  0  0
  5 10  1  0  0  0  0
  5 17  1  0  0  0  0
  6 11  1  0  0  0  0
  6 20  1  0  0  0  0
  7 18  2  0  0  0  0
  7 19  1  0  0  0  0
  9 12  1  0  0  0  0
 10 12  1  0  0  0  0
 11 14  2  0  0  0  0
 13 15  2  0  0  0  0
 13 16  1  0  0  0  0
 14 22  1  0  0  0  0
 15 20  1  0  0  0  0
 16 21  2  0  0  0  0
 17 18  1  0  0  0  0
 19 21  1  0  0  0  0
 20 22  2  0  0  0  0
 21 22  1  0  0  0  0
  5 23  1  0  0  0  0
  6 24  1  0  0  0  0
  8 25  1  0  0  0  0
  8 26  1  0  0  0  0
  8 27  1  0  0  0  0
  9 28  1  0  0  0  0
  9 29  1  0  0  0  0
 10 30  1  0  0  0  0
 10 31  1  0  0  0  0
 11 32  1  0  0  0  0
 12 33  1  0  0  0  0
 12 34  1  0  0  0  0
 13 35  1  0  0  0  0
 14 36  1  0  0  0  0
 15 37  1  0  0  0  0
 16 38  1  0  0  0  0
M  END
> <pdb_id>
5AIV

> <uniprot_id>
O60760

> <usmiles>
O=C(NCCCOC)C=1ON=C(N1)c2c3c(NC=C3)ccc2

$$$$
M23_X_168
          07202402293D 1   1.00000     0.00000     0
            
 40 42  0  0  0  0            999 V2000
   -7.8868   36.3743   -6.2692 Br  0  0  0  0  0  0  0  0  0  0  0  0
   -3.4917   32.8216   -8.5930 O   0  0  0  0  0  0  0  0  0  0  0  0
   -7.1331   26.7208   -4.4203 N   0  0  0  0  0  0  0  0  0  0  0  0
   -2.9583   28.5186   -3.1605 N   0  0  0  0  0  0  0  0  0  0  0  0
   -5.0652   27.6357   -3.7948 N   0  0  0  0  0  0  0  0  0  0  0  0
   -6.5237   28.7904   -5.2843 N   0  0  0  0  0  0  0  0  0  0  0  0
   -1.1436   33.3402   -8.8881 C   0  0  0  0  0  0  0  0  0  0  0  0
   -2.7365   33.0650   -5.5328 C   0  0  0  0  0  0  0  0  0  0  0  0
   -2.4996   33.2504   -9.5412 C   0  0  0  0  0  0  0  0  0  0  0  0
   -5.7696   35.7268   -8.1858 C   0  0  0  0  0  0  0  0  0  0  0  0
   -4.7572   34.9229   -8.7343 C   0  0  0  0  0  0  0  0  0  0  0  0
   -6.2474   34.1026   -6.4683 C   0  0  0  0  0  0  0  0  0  0  0  0
   -5.9784   30.9541   -6.1780 C   0  0  0  0  0  0  0  0  0  0  0  0
   -3.4660   30.8484   -4.7097 C   0  0  0  0  0  0  0  0  0  0  0  0
   -6.2263   27.7240   -4.4912 C   0  0  0  0  0  0  0  0  0  0  0  0
   -6.5132   35.3198   -7.0723 C   0  0  0  0  0  0  0  0  0  0  0  0
   -4.1203   28.6098   -3.8239 C   0  0  0  0  0  0  0  0  0  0  0  0
   -4.4694   33.6748   -8.1585 C   0  0  0  0  0  0  0  0  0  0  0  0
   -5.6631   29.8377   -5.3910 C   0  0  0  0  0  0  0  0  0  0  0  0
   -3.7654   31.9539   -5.4928 C   0  0  0  0  0  0  0  0  0  0  0  0
   -4.3928   29.8073   -4.6568 C   0  0  0  0  0  0  0  0  0  0  0  0
   -5.2850   33.2496   -6.9978 C   0  0  0  0  0  0  0  0  0  0  0  0
   -5.0447   31.9952   -6.2428 C   0  0  0  0  0  0  0  0  0  0  0  0
   -7.9895   26.7838   -4.9327 H   0  0  0  0  0  0  0  0  0  0  0  0
   -6.9463   25.9170   -3.8556 H   0  0  0  0  0  0  0  0  0  0  0  0
   -2.2929   29.2632   -3.2128 H   0  0  0  0  0  0  0  0  0  0  0  0
   -2.7572   27.7059   -2.6136 H   0  0  0  0  0  0  0  0  0  0  0  0
   -0.4682   33.6394   -9.5621 H   0  0  0  0  0  0  0  0  0  0  0  0
   -1.1787   33.9987   -8.1364 H   0  0  0  0  0  0  0  0  0  0  0  0
   -0.8847   32.4421   -8.5327 H   0  0  0  0  0  0  0  0  0  0  0  0
   -3.0635   33.8008   -6.1258 H   0  0  0  0  0  0  0  0  0  0  0  0
   -2.5933   33.4200   -4.6090 H   0  0  0  0  0  0  0  0  0  0  0  0
   -1.8736   32.7075   -5.8900 H   0  0  0  0  0  0  0  0  0  0  0  0
   -2.7528   34.1498   -9.8975 H   0  0  0  0  0  0  0  0  0  0  0  0
   -2.4588   32.5932  -10.2938 H   0  0  0  0  0  0  0  0  0  0  0  0
   -5.9645   36.6148   -8.6023 H   0  0  0  0  0  0  0  0  0  0  0  0
   -4.2431   35.2380   -9.5320 H   0  0  0  0  0  0  0  0  0  0  0  0
   -6.7504   33.8353   -5.6464 H   0  0  0  0  0  0  0  0  0  0  0  0
   -6.8433   31.0053   -6.6774 H   0  0  0  0  0  0  0  0  0  0  0  0
   -2.6089   30.7993   -4.1970 H   0  0  0  0  0  0  0  0  0  0  0  0
  1 16  1  0  0  0  0
  2  9  1  0  0  0  0
  2 18  1  0  0  0  0
  3 15  1  0  0  0  0
  4 17  1  0  0  0  0
  5 15  2  0  0  0  0
  5 17  1  0  0  0  0
  6 15  1  0  0  0  0
  6 19  2  0  0  0  0
  7  9  1  0  0  0  0
  8 20  1  0  0  0  0
 10 11  2  0  0  0  0
 10 16  1  0  0  0  0
 11 18  1  0  0  0  0
 12 16  2  0  0  0  0
 12 22  1  0  0  0  0
 13 19  1  0  0  0  0
 13 23  2  0  0  0  0
 14 20  2  0  0  0  0
 14 21  1  0  0  0  0
 17 21  2  0  0  0  0
 18 22  2  0  0  0  0
 19 21  1  0  0  0  0
 20 23  1  0  0  0  0
 22 23  1  0  0  0  0
  3 24  1  0  0  0  0
  3 25  1  0  0  0  0
  4 26  1  0  0  0  0
  4 27  1  0  0  0  0
  7 28  1  0  0  0  0
  7 29  1  0  0  0  0
  7 30  1  0  0  0  0
  8 31  1  0  0  0  0
  8 32  1  0  0  0  0
  8 33  1  0  0  0  0
  9 34  1  0  0  0  0
  9 35  1  0  0  0  0
 10 36  1  0  0  0  0
 11 37  1  0  0  0  0
 12 38  1  0  0  0  0
 13 39  1  0  0  0  0
 14 40  1  0  0  0  0
M  END
> <pdb_id>
3SRS

> <uniprot_id>
P0A017

> <usmiles>
Brc1cc(c(OCC)cc1)c2c(cc3c(nc(nc3c2)N)N)C

$$$$
M24_A_552
          07192423323D 1   1.00000     0.00000     0
            
 64 69  0  0  0  0            999 V2000
   12.1619   30.3628    8.7017 P   0  0  0  0  0  0  0  0  0  0  0  0
   13.2307   41.4478    7.5562 F   0  0  0  0  0  0  0  0  0  0  0  0
   13.6161   29.9433    8.5428 O   0  0  0  0  0  0  0  0  0  0  0  0
   11.1128   29.9040    7.7437 O   0  0  0  0  0  0  0  0  0  0  0  0
   13.3669   32.6980   10.1512 O   0  0  0  0  0  0  0  0  0  0  0  0
    9.4035   29.9512   14.9588 O   0  0  0  0  0  0  0  0  0  0  0  0
    8.0134   30.0571   12.7645 O   0  0  0  0  0  0  0  0  0  0  0  0
   11.7435   30.2408   10.2512 O   0  0  0  0  0  0  0  0  0  0  0  0
   12.0618   31.9554    8.4258 O   0  0  0  0  0  0  0  0  0  0  0  0
   14.1632   39.2796   10.7215 O   0  0  0  0  0  0  0  0  0  0  0  0
   11.4883   30.9806   12.9416 O   0  0  0  0  0  0  0  0  0  0  0  0
   12.0151   37.2576   15.7673 N   0  0  0  0  0  0  0  0  0  0  0  0
   13.8509   38.0081   10.4574 N   0  0  0  0  0  0  0  0  0  0  0  0
   11.4812   35.5742   17.3413 N   0  0  0  0  0  0  0  0  0  0  0  0
   11.1115   33.3482   16.6707 N   0  0  0  0  0  0  0  0  0  0  0  0
   11.7769   34.9806   13.6493 N   0  0  0  0  0  0  0  0  0  0  0  0
   13.5089   39.2581    8.6740 N   0  0  0  0  0  0  0  0  0  0  0  0
   11.2919   32.9349   14.2500 N   0  0  0  0  0  0  0  0  0  0  0  0
   10.5021   30.7761   10.7262 C   0  0  0  0  0  0  0  0  0  0  0  0
   11.1834   34.2917   17.6194 C   0  0  0  0  0  0  0  0  0  0  0  0
   11.5863   33.7178   13.2119 C   0  0  0  0  0  0  0  0  0  0  0  0
   14.4246   44.2293    9.5785 C   0  0  0  0  0  0  0  0  0  0  0  0
   14.8252   43.5367   10.7167 C   0  0  0  0  0  0  0  0  0  0  0  0
   12.1346   35.7080    6.5793 C   0  0  0  0  0  0  0  0  0  0  0  0
   13.8692   43.5536    8.4987 C   0  0  0  0  0  0  0  0  0  0  0  0
   12.2284   34.4792    7.2104 C   0  0  0  0  0  0  0  0  0  0  0  0
   12.5509   36.8471    7.2346 C   0  0  0  0  0  0  0  0  0  0  0  0
   14.6794   42.1554   10.7694 C   0  0  0  0  0  0  0  0  0  0  0  0
   13.1161   35.5095    9.1754 C   0  0  0  0  0  0  0  0  0  0  0  0
   12.7676   32.9829    9.1287 C   0  0  0  0  0  0  0  0  0  0  0  0
   13.7444   42.1826    8.5521 C   0  0  0  0  0  0  0  0  0  0  0  0
   13.9606   40.0640    9.6647 C   0  0  0  0  0  0  0  0  0  0  0  0
    9.5346   31.1859   14.2705 C   0  0  2  0  0  0  0  0  0  0  0  0
    9.1232   30.9683   12.8361 C   0  0  1  0  0  0  0  0  0  0  0  0
   11.0249   31.4873   14.1927 C   0  0  1  0  0  0  0  0  0  0  0  0
   10.3888   30.4086   12.1974 C   0  0  2  0  0  0  0  0  0  0  0  0
   11.7235   35.9576   16.0697 C   0  0  0  0  0  0  0  0  0  0  0  0
   13.4391   37.9924    9.1947 C   0  0  0  0  0  0  0  0  0  0  0  0
   11.3147   33.6595   15.3633 C   0  0  0  0  0  0  0  0  0  0  0  0
   11.6263   34.9468   15.0021 C   0  0  0  0  0  0  0  0  0  0  0  0
   12.7118   34.3685    8.5151 C   0  0  0  0  0  0  0  0  0  0  0  0
   13.0152   36.7449    8.5252 C   0  0  0  0  0  0  0  0  0  0  0  0
   14.1656   41.5090    9.6690 C   0  0  0  0  0  0  0  0  0  0  0  0
   14.1621   30.3486    9.2760 H   0  0  0  0  0  0  0  0  0  0  0  0
    9.6717   30.0723   15.9145 H   0  0  0  0  0  0  0  0  0  0  0  0
    7.7530   29.9235   11.8083 H   0  0  0  0  0  0  0  0  0  0  0  0
   12.1917   37.5229   14.8195 H   0  0  0  0  0  0  0  0  0  0  0  0
   12.0519   37.9438   16.4938 H   0  0  0  0  0  0  0  0  0  0  0  0
    9.7398   30.3802   10.2142 H   0  0  0  0  0  0  0  0  0  0  0  0
   10.4945   31.7704   10.6196 H   0  0  0  0  0  0  0  0  0  0  0  0
   11.0093   34.0332   18.5696 H   0  0  0  0  0  0  0  0  0  0  0  0
   11.6551   33.4174   12.2606 H   0  0  0  0  0  0  0  0  0  0  0  0
   14.5374   45.2220    9.5371 H   0  0  0  0  0  0  0  0  0  0  0  0
   15.2161   44.0304   11.4935 H   0  0  0  0  0  0  0  0  0  0  0  0
   11.7662   35.7689    5.6516 H   0  0  0  0  0  0  0  0  0  0  0  0
   13.5632   44.0575    7.6909 H   0  0  0  0  0  0  0  0  0  0  0  0
   11.9441   33.6544    6.7216 H   0  0  0  0  0  0  0  0  0  0  0  0
   12.5158   37.7359    6.7777 H   0  0  0  0  0  0  0  0  0  0  0  0
   14.9418   41.6438   11.5875 H   0  0  0  0  0  0  0  0  0  0  0  0
   13.4766   35.4551   10.1065 H   0  0  0  0  0  0  0  0  0  0  0  0
    9.0188   31.9228   14.7075 H   0  0  0  0  0  0  0  0  0  0  0  0
    8.8803   31.8406   12.4116 H   0  0  0  0  0  0  0  0  0  0  0  0
   11.5019   31.0263   14.9411 H   0  0  0  0  0  0  0  0  0  0  0  0
   10.4007   29.4135   12.2953 H   0  0  0  0  0  0  0  0  0  0  0  0
  1  3  1  0  0  0  0
  1  4  2  0  0  0  0
  1  8  1  0  0  0  0
  1  9  1  0  0  0  0
  2 31  1  0  0  0  0
  5 30  2  0  0  0  0
  6 33  1  0  0  0  0
  7 34  1  0  0  0  0
  8 19  1  0  0  0  0
  9 30  1  0  0  0  0
 10 13  1  0  0  0  0
 10 32  1  0  0  0  0
 11 35  1  0  0  0  0
 11 36  1  0  0  0  0
 12 37  1  0  0  0  0
 13 38  2  0  0  0  0
 14 20  1  0  0  0  0
 14 37  2  0  0  0  0
 15 20  2  0  0  0  0
 15 39  1  0  0  0  0
 16 21  2  0  0  0  0
 16 40  1  0  0  0  0
 17 32  2  0  0  0  0
 17 38  1  0  0  0  0
 18 21  1  0  0  0  0
 18 35  1  0  0  0  0
 18 39  1  0  0  0  0
 19 36  1  0  0  0  0
 22 23  2  0  0  0  0
 22 25  1  0  0  0  0
 23 28  1  0  0  0  0
 24 26  1  0  0  0  0
 24 27  2  0  0  0  0
 25 31  2  0  0  0  0
 26 41  2  0  0  0  0
 27 42  1  0  0  0  0
 28 43  2  0  0  0  0
 29 41  1  0  0  0  0
 29 42  2  0  0  0  0
 30 41  1  0  0  0  0
 31 43  1  0  0  0  0
 32 43  1  0  0  0  0
 33 34  1  0  0  0  0
 33 35  1  0  0  0  0
 34 36  1  0  0  0  0
 37 40  1  0  0  0  0
 38 42  1  0  0  0  0
 39 40  2  0  0  0  0
  3 44  1  0  0  0  0
  6 45  1  0  0  0  0
  7 46  1  0  0  0  0
 12 47  1  0  0  0  0
 12 48  1  0  0  0  0
 19 49  1  0  0  0  0
 19 50  1  0  0  0  0
 20 51  1  0  0  0  0
 21 52  1  0  0  0  0
 22 53  1  0  0  0  0
 23 54  1  0  0  0  0
 24 55  1  0  0  0  0
 25 56  1  0  0  0  0
 26 57  1  0  0  0  0
 27 58  1  0  0  0  0
 28 59  1  0  0  0  0
 29 60  1  0  0  0  0
 33 61  1  0  0  0  0
 34 62  1  0  0  0  0
 35 63  1  0  0  0  0
 36 64  1  0  0  0  0
M  END
> <pdb_id>
3IES

> <uniprot_id>
P08659

> <usmiles>
P(=O)(OC(=O)c1cc(ccc1)C2=NOC(=N2)c3c(F)cccc3)(OC[C@H]4O[C@@H](N5c6ncnc(N)c6N=C5)[C@H](O)[C@@H]4O)O

$$$$
M25_A_301
          07192416293D 1   1.00000     0.00000     0
            
 30 30  0  0  0  0            999 V2000
   -5.8835    0.9701   16.8506 S   0  0  0  0  0  0  0  0  0  0  0  0
   -7.3315    1.0513   16.7285 O   0  0  0  0  0  0  0  0  0  0  0  0
   -5.3151    1.1411   18.1981 O   0  0  0  0  0  0  0  0  0  0  0  0
   -1.0992    8.6342   15.0860 O   0  0  0  0  0  0  0  0  0  0  0  0
   -5.4184   -0.4038   16.1881 N   0  0  0  0  0  0  0  0  0  0  0  0
   -2.3244    7.6546   13.4778 N   0  0  0  0  0  0  0  0  0  0  0  0
   -1.2611    9.7486   12.9582 C   0  0  0  0  0  0  0  0  0  0  0  0
   -2.7243    6.5201   14.3055 C   0  0  0  0  0  0  0  0  0  0  0  0
   -3.6720    5.5815   13.5280 C   0  0  0  0  0  0  0  0  0  0  0  0
   -3.8702    2.3257   15.5273 C   0  0  0  0  0  0  0  0  0  0  0  0
   -6.0765    3.3770   15.5020 C   0  0  0  0  0  0  0  0  0  0  0  0
   -3.3913    3.4071   14.7835 C   0  0  0  0  0  0  0  0  0  0  0  0
   -5.5335    4.4355   14.7622 C   0  0  0  0  0  0  0  0  0  0  0  0
   -1.5553    8.6469   13.9292 C   0  0  0  0  0  0  0  0  0  0  0  0
   -5.2098    2.3206   15.8891 C   0  0  0  0  0  0  0  0  0  0  0  0
   -4.2020    4.4825   14.4056 C   0  0  0  0  0  0  0  0  0  0  0  0
   -4.4243   -0.4876   16.2573 H   0  0  0  0  0  0  0  0  0  0  0  0
   -5.8514   -1.1679   16.6662 H   0  0  0  0  0  0  0  0  0  0  0  0
   -2.6412    7.6894   12.5300 H   0  0  0  0  0  0  0  0  0  0  0  0
   -1.7244    9.5619   12.0919 H   0  0  0  0  0  0  0  0  0  0  0  0
   -1.5879   10.6172   13.3306 H   0  0  0  0  0  0  0  0  0  0  0  0
   -0.2745    9.8022   12.8038 H   0  0  0  0  0  0  0  0  0  0  0  0
   -3.1942    6.8585   15.1208 H   0  0  0  0  0  0  0  0  0  0  0  0
   -1.9088    6.0098   14.5786 H   0  0  0  0  0  0  0  0  0  0  0  0
   -3.1711    5.1742   12.7642 H   0  0  0  0  0  0  0  0  0  0  0  0
   -4.4407    6.1152   13.1757 H   0  0  0  0  0  0  0  0  0  0  0  0
   -3.2640    1.5757   15.7918 H   0  0  0  0  0  0  0  0  0  0  0  0
   -7.0452    3.3655   15.7500 H   0  0  0  0  0  0  0  0  0  0  0  0
   -2.4294    3.4125   14.5101 H   0  0  0  0  0  0  0  0  0  0  0  0
   -6.1337    5.1848   14.4823 H   0  0  0  0  0  0  0  0  0  0  0  0
  1  2  2  0  0  0  0
  1  3  2  0  0  0  0
  1  5  1  0  0  0  0
  1 15  1  0  0  0  0
  4 14  2  0  0  0  0
  6  8  1  0  0  0  0
  6 14  1  0  0  0  0
  7 14  1  0  0  0  0
  8  9  1  0  0  0  0
  9 16  1  0  0  0  0
 10 12  2  0  0  0  0
 10 15  1  0  0  0  0
 11 13  1  0  0  0  0
 11 15  2  0  0  0  0
 12 16  1  0  0  0  0
 13 16  2  0  0  0  0
  5 17  1  0  0  0  0
  5 18  1  0  0  0  0
  6 19  1  0  0  0  0
  7 20  1  0  0  0  0
  7 21  1  0  0  0  0
  7 22  1  0  0  0  0
  8 23  1  0  0  0  0
  8 24  1  0  0  0  0
  9 25  1  0  0  0  0
  9 26  1  0  0  0  0
 10 27  1  0  0  0  0
 11 28  1  0  0  0  0
 12 29  1  0  0  0  0
 13 30  1  0  0  0  0
M  END
> <pdb_id>
2NNS

> <uniprot_id>
P00918

> <usmiles>
S(=O)(=O)(N)c1ccc(cc1)CCNC(=O)C

$$$$
M25_B_312
          07212403053D 1   1.00000     0.00000     0
            
 30 30  0  0  0  0            999 V2000
    3.3541   72.3379   58.8743 S   0  0  0  0  0  0  0  0  0  0  0  0
    3.7175   71.2261   59.7214 O   0  0  0  0  0  0  0  0  0  0  0  0
    2.3735   73.2673   59.4156 O   0  0  0  0  0  0  0  0  0  0  0  0
    1.2037   67.1090   52.1085 O   0  0  0  0  0  0  0  0  0  0  0  0
    4.7116   73.1657   58.4809 N   0  0  0  0  0  0  0  0  0  0  0  0
    1.2933   69.3366   51.5164 N   0  0  0  0  0  0  0  0  0  0  0  0
    0.3182   67.7654   49.9639 C   0  0  0  0  0  0  0  0  0  0  0  0
    1.9294   69.8031   52.7491 C   0  0  0  0  0  0  0  0  0  0  0  0
    0.8601   70.2332   53.7451 C   0  0  0  0  0  0  0  0  0  0  0  0
    2.4246   72.5989   56.3018 C   0  0  0  0  0  0  0  0  0  0  0  0
    2.2574   70.3590   57.3223 C   0  0  0  0  0  0  0  0  0  0  0  0
    1.8523   72.0838   55.1475 C   0  0  0  0  0  0  0  0  0  0  0  0
    1.6812   69.8785   56.1327 C   0  0  0  0  0  0  0  0  0  0  0  0
    0.9777   68.0229   51.3057 C   0  0  0  0  0  0  0  0  0  0  0  0
    2.6261   71.7325   57.3838 C   0  0  0  0  0  0  0  0  0  0  0  0
    1.4675   70.7337   55.0280 C   0  0  0  0  0  0  0  0  0  0  0  0
    4.4721   73.9389   57.8936 H   0  0  0  0  0  0  0  0  0  0  0  0
    5.1495   73.5031   59.3141 H   0  0  0  0  0  0  0  0  0  0  0  0
    1.0817   70.0032   50.8017 H   0  0  0  0  0  0  0  0  0  0  0  0
    0.2252   68.6282   49.4671 H   0  0  0  0  0  0  0  0  0  0  0  0
    0.8813   67.1332   49.4316 H   0  0  0  0  0  0  0  0  0  0  0  0
   -0.5866   67.3649   50.1086 H   0  0  0  0  0  0  0  0  0  0  0  0
    2.5242   70.5802   52.5432 H   0  0  0  0  0  0  0  0  0  0  0  0
    2.4732   69.0625   53.1439 H   0  0  0  0  0  0  0  0  0  0  0  0
    0.2720   69.4503   53.9481 H   0  0  0  0  0  0  0  0  0  0  0  0
    0.3129   70.9646   53.3381 H   0  0  0  0  0  0  0  0  0  0  0  0
    2.6859   73.5624   56.3597 H   0  0  0  0  0  0  0  0  0  0  0  0
    2.4042   69.7523   58.1035 H   0  0  0  0  0  0  0  0  0  0  0  0
    1.7073   72.6950   54.3694 H   0  0  0  0  0  0  0  0  0  0  0  0
    1.4183   68.9159   56.0675 H   0  0  0  0  0  0  0  0  0  0  0  0
  1  2  2  0  0  0  0
  1  3  2  0  0  0  0
  1  5  1  0  0  0  0
  1 15  1  0  0  0  0
  4 14  2  0  0  0  0
  6  8  1  0  0  0  0
  6 14  1  0  0  0  0
  7 14  1  0  0  0  0
  8  9  1  0  0  0  0
  9 16  1  0  0  0  0
 10 12  2  0  0  0  0
 10 15  1  0  0  0  0
 11 13  1  0  0  0  0
 11 15  2  0  0  0  0
 12 16  1  0  0  0  0
 13 16  2  0  0  0  0
  5 17  1  0  0  0  0
  5 18  1  0  0  0  0
  6 19  1  0  0  0  0
  7 20  1  0  0  0  0
  7 21  1  0  0  0  0
  7 22  1  0  0  0  0
  8 23  1  0  0  0  0
  8 24  1  0  0  0  0
  9 25  1  0  0  0  0
  9 26  1  0  0  0  0
 10 27  1  0  0  0  0
 11 28  1  0  0  0  0
 12 29  1  0  0  0  0
 13 30  1  0  0  0  0
M  END
> <pdb_id>
2NMX

> <uniprot_id>
P00915

> <usmiles>
S(=O)(=O)(N)c1ccc(cc1)CCNC(=O)C

$$$$
M28_A_301
          07192416293D 1   1.00000     0.00000     0
            
 26 26  0  0  0  0            999 V2000
   -5.8826    0.9509   16.8126 S   0  0  0  0  0  0  0  0  0  0  0  0
   -7.3149    1.0564   16.6762 O   0  0  0  0  0  0  0  0  0  0  0  0
   -5.3234    1.1361   18.1431 O   0  0  0  0  0  0  0  0  0  0  0  0
   -0.5607    7.2768   12.9273 O   0  0  0  0  0  0  0  0  0  0  0  0
   -2.5124    8.1765   12.7707 O   0  0  0  0  0  0  0  0  0  0  0  0
   -5.3690   -0.4239   16.1858 N   0  0  0  0  0  0  0  0  0  0  0  0
   -2.3873    6.1457   14.0074 C   0  0  0  0  0  0  0  0  0  0  0  0
   -6.0195    3.3433   15.4587 C   0  0  0  0  0  0  0  0  0  0  0  0
   -3.8643    2.2655   15.4620 C   0  0  0  0  0  0  0  0  0  0  0  0
   -3.6655    5.5390   13.5097 C   0  0  0  0  0  0  0  0  0  0  0  0
   -5.4972    4.3683   14.6945 C   0  0  0  0  0  0  0  0  0  0  0  0
   -3.3615    3.3471   14.7520 C   0  0  0  0  0  0  0  0  0  0  0  0
   -1.7873    7.2515   13.1718 C   0  0  0  0  0  0  0  0  0  0  0  0
   -5.2035    2.2789   15.8444 C   0  0  0  0  0  0  0  0  0  0  0  0
   -4.1594    4.4117   14.3494 C   0  0  0  0  0  0  0  0  0  0  0  0
    0.0284    6.5349   13.2477 H   0  0  0  0  0  0  0  0  0  0  0  0
   -4.3760   -0.4857   16.2861 H   0  0  0  0  0  0  0  0  0  0  0  0
   -5.8005   -1.1896   16.6629 H   0  0  0  0  0  0  0  0  0  0  0  0
   -1.7096    5.4131   14.0713 H   0  0  0  0  0  0  0  0  0  0  0  0
   -2.5637    6.5171   14.9190 H   0  0  0  0  0  0  0  0  0  0  0  0
   -6.9803    3.3638   15.7351 H   0  0  0  0  0  0  0  0  0  0  0  0
   -3.2760    1.4911   15.6946 H   0  0  0  0  0  0  0  0  0  0  0  0
   -3.5132    5.1985   12.5819 H   0  0  0  0  0  0  0  0  0  0  0  0
   -4.3674    6.2511   13.4924 H   0  0  0  0  0  0  0  0  0  0  0  0
   -6.1037    5.0994   14.3822 H   0  0  0  0  0  0  0  0  0  0  0  0
   -2.3885    3.3610   14.5215 H   0  0  0  0  0  0  0  0  0  0  0  0
  1  2  2  0  0  0  0
  1  3  2  0  0  0  0
  1  6  1  0  0  0  0
  1 14  1  0  0  0  0
  4 13  1  0  0  0  0
  5 13  2  0  0  0  0
  7 10  1  0  0  0  0
  7 13  1  0  0  0  0
  8 11  2  0  0  0  0
  8 14  1  0  0  0  0
  9 12  1  0  0  0  0
  9 14  2  0  0  0  0
 10 15  1  0  0  0  0
 11 15  1  0  0  0  0
 12 15  2  0  0  0  0
  4 16  1  0  0  0  0
  6 17  1  0  0  0  0
  6 18  1  0  0  0  0
  7 19  1  0  0  0  0
  7 20  1  0  0  0  0
  8 21  1  0  0  0  0
  9 22  1  0  0  0  0
 10 23  1  0  0  0  0
 10 24  1  0  0  0  0
 11 25  1  0  0  0  0
 12 26  1  0  0  0  0
M  END
> <pdb_id>
2NNO

> <uniprot_id>
P00918

> <usmiles>
S(=O)(=O)(N)c1ccc(cc1)CCC(=O)O

$$$$
M31_H_1
          07202416143D 1   1.00000     0.00000     0
            
 59 61  0  0  0  0            999 V2000
   16.3272   -8.1818   10.8803 Cl  0  0  0  0  0  0  0  0  0  0  0  0
   10.9906  -16.6966   10.2545 S   0  0  0  0  0  0  0  0  0  0  0  0
   10.2945  -17.6070   11.1141 O   0  0  0  0  0  0  0  0  0  0  0  0
   12.1618  -17.3257    9.7216 O   0  0  0  0  0  0  0  0  0  0  0  0
   13.1209  -13.1620   15.4714 O   0  0  0  0  0  0  0  0  0  0  0  0
   12.3446  -13.3911   12.5352 O   0  0  0  0  0  0  0  0  0  0  0  0
   15.4046  -14.2375   13.4635 N   0  0  0  0  0  0  0  0  0  0  0  0
   11.4520  -15.4187   11.1091 N   0  0  0  0  0  0  0  0  0  0  0  0
   13.1847  -11.0534   14.7362 N   0  0  0  0  0  0  0  0  0  0  0  0
   10.6153  -13.3917   13.9809 N   0  0  0  0  0  0  0  0  0  0  0  0
   10.0335  -16.1538    8.9910 C   0  0  0  0  0  0  0  0  0  0  0  0
   16.2133  -13.2472   14.1736 C   0  0  0  0  0  0  0  0  0  0  0  0
   10.7488  -15.1338   12.3364 C   0  0  0  0  0  0  0  0  0  0  0  0
   14.6025  -10.8858   14.9877 C   0  0  0  0  0  0  0  0  0  0  0  0
    9.3877  -13.9708   14.5338 C   0  0  0  0  0  0  0  0  0  0  0  0
    8.9799  -13.0095   15.6370 C   0  0  0  0  0  0  0  0  0  0  0  0
    6.6022  -13.9138   10.3469 C   0  0  0  0  0  0  0  0  0  0  0  0
    7.6653  -13.2592    9.7343 C   0  0  0  0  0  0  0  0  0  0  0  0
    6.6446  -15.2972   10.5099 C   0  0  0  0  0  0  0  0  0  0  0  0
   17.0830  -10.7501   11.4694 C   0  0  0  0  0  0  0  0  0  0  0  0
   10.2587  -12.2678   16.0116 C   0  0  0  0  0  0  0  0  0  0  0  0
    8.7688  -13.9893    9.2988 C   0  0  0  0  0  0  0  0  0  0  0  0
    7.7491  -16.0274   10.0803 C   0  0  0  0  0  0  0  0  0  0  0  0
   17.0282  -11.9110   12.2340 C   0  0  0  0  0  0  0  0  0  0  0  0
   15.4979   -9.7101   12.9803 C   0  0  0  0  0  0  0  0  0  0  0  0
   16.3062   -9.6738   11.8597 C   0  0  0  0  0  0  0  0  0  0  0  0
   12.5308  -12.1853   15.0100 C   0  0  0  0  0  0  0  0  0  0  0  0
   11.3178  -13.8835   12.9740 C   0  0  0  0  0  0  0  0  0  0  0  0
   11.0548  -12.1950   14.7093 C   0  0  1  0  0  0  0  0  0  0  0  0
    8.8171  -15.3778    9.4667 C   0  0  0  0  0  0  0  0  0  0  0  0
   16.2318  -11.9586   13.3705 C   0  0  0  0  0  0  0  0  0  0  0  0
   15.4641  -10.8671   13.7480 C   0  0  0  0  0  0  0  0  0  0  0  0
   15.3870  -15.0900   13.9859 H   0  0  0  0  0  0  0  0  0  0  0  0
   14.4721  -13.8922   13.3575 H   0  0  0  0  0  0  0  0  0  0  0  0
   11.3574  -14.6167   10.5193 H   0  0  0  0  0  0  0  0  0  0  0  0
   12.6748  -10.2893   14.3411 H   0  0  0  0  0  0  0  0  0  0  0  0
    9.7223  -16.9442    8.4633 H   0  0  0  0  0  0  0  0  0  0  0  0
   10.5840  -15.5583    8.4060 H   0  0  0  0  0  0  0  0  0  0  0  0
   17.1467  -13.5899   14.2795 H   0  0  0  0  0  0  0  0  0  0  0  0
   15.8171  -13.0748   15.0754 H   0  0  0  0  0  0  0  0  0  0  0  0
   10.8527  -15.9042   12.9654 H   0  0  0  0  0  0  0  0  0  0  0  0
    9.7786  -14.9937   12.1385 H   0  0  0  0  0  0  0  0  0  0  0  0
   14.9076  -11.6409   15.5680 H   0  0  0  0  0  0  0  0  0  0  0  0
   14.7331  -10.0201   15.4711 H   0  0  0  0  0  0  0  0  0  0  0  0
    9.5628  -14.8824   14.9057 H   0  0  0  0  0  0  0  0  0  0  0  0
    8.6765  -14.0276   13.8332 H   0  0  0  0  0  0  0  0  0  0  0  0
    8.6214  -13.5107   16.4246 H   0  0  0  0  0  0  0  0  0  0  0  0
    8.2869  -12.3690   15.3060 H   0  0  0  0  0  0  0  0  0  0  0  0
    5.8109  -13.3941   10.6689 H   0  0  0  0  0  0  0  0  0  0  0  0
    7.6377  -12.2677    9.6070 H   0  0  0  0  0  0  0  0  0  0  0  0
    5.8748  -15.7695   10.9392 H   0  0  0  0  0  0  0  0  0  0  0  0
   17.6677  -10.6950   10.6600 H   0  0  0  0  0  0  0  0  0  0  0  0
   10.7679  -12.7715   16.7094 H   0  0  0  0  0  0  0  0  0  0  0  0
   10.0491  -11.3502   16.3493 H   0  0  0  0  0  0  0  0  0  0  0  0
    9.5340  -13.5165    8.8618 H   0  0  0  0  0  0  0  0  0  0  0  0
    7.7755  -17.0183   10.2123 H   0  0  0  0  0  0  0  0  0  0  0  0
   17.5628  -12.7121   11.9648 H   0  0  0  0  0  0  0  0  0  0  0  0
   14.9461   -8.9157   13.2344 H   0  0  0  0  0  0  0  0  0  0  0  0
   10.8035  -11.3722   14.1997 H   0  0  0  0  0  0  0  0  0  0  0  0
  1 26  1  0  0  0  0
  2  3  2  0  0  0  0
  2  4  2  0  0  0  0
  2  8  1  0  0  0  0
  2 11  1  0  0  0  0
  5 27  2  0  0  0  0
  6 28  2  0  0  0  0
  7 12  1  0  0  0  0
  8 13  1  0  0  0  0
  9 14  1  0  0  0  0
  9 27  1  0  0  0  0
 10 15  1  0  0  0  0
 10 28  1  0  0  0  0
 10 29  1  0  0  0  0
 11 30  1  0  0  0  0
 12 31  1  0  0  0  0
 13 28  1  0  0  0  0
 14 32  1  0  0  0  0
 15 16  1  0  0  0  0
 16 21  1  0  0  0  0
 17 18  2  0  0  0  0
 17 19  1  0  0  0  0
 18 22  1  0  0  0  0
 19 23  2  0  0  0  0
 20 24  2  0  0  0  0
 20 26  1  0  0  0  0
 21 29  1  0  0  0  0
 22 30  2  0  0  0  0
 23 30  1  0  0  0  0
 24 31  1  0  0  0  0
 25 26  2  0  0  0  0
 25 32  1  0  0  0  0
 27 29  1  0  0  0  0
 31 32  2  0  0  0  0
  7 33  1  0  0  0  0
  7 34  1  0  0  0  0
  8 35  1  0  0  0  0
  9 36  1  0  0  0  0
 11 37  1  0  0  0  0
 11 38  1  0  0  0  0
 12 39  1  0  0  0  0
 12 40  1  0  0  0  0
 13 41  1  0  0  0  0
 13 42  1  0  0  0  0
 14 43  1  0  0  0  0
 14 44  1  0  0  0  0
 15 45  1  0  0  0  0
 15 46  1  0  0  0  0
 16 47  1  0  0  0  0
 16 48  1  0  0  0  0
 17 49  1  0  0  0  0
 18 50  1  0  0  0  0
 19 51  1  0  0  0  0
 20 52  1  0  0  0  0
 21 53  1  0  0  0  0
 21 54  1  0  0  0  0
 22 55  1  0  0  0  0
 23 56  1  0  0  0  0
 24 57  1  0  0  0  0
 25 58  1  0  0  0  0
 29 59  1  0  0  0  0
M  END
> <pdb_id>
3RML

> <uniprot_id>
P00734

> <usmiles>
Clc1cc(c(cc1)CN)CNC(=O)[C@H]2N(C(=O)CNS(=O)(=O)Cc3ccccc3)CCC2

$$$$
M32_H_1
          07202416143D 1   1.00000     0.00000     0
            
 62 64  0  0  0  0            999 V2000
   16.3386   -8.1474   10.8729 Cl  0  0  0  0  0  0  0  0  0  0  0  0
   12.7926  -17.0499   13.0481 S   0  0  0  0  0  0  0  0  0  0  0  0
   12.4021  -16.6406   14.3653 O   0  0  0  0  0  0  0  0  0  0  0  0
   14.2252  -17.0964   12.9949 O   0  0  0  0  0  0  0  0  0  0  0  0
   13.0771  -13.0964   15.4458 O   0  0  0  0  0  0  0  0  0  0  0  0
   12.4885  -13.3706   12.5340 O   0  0  0  0  0  0  0  0  0  0  0  0
   15.3866  -14.1493   13.5979 N   0  0  0  0  0  0  0  0  0  0  0  0
   12.2111  -16.0400   11.9441 N   0  0  0  0  0  0  0  0  0  0  0  0
   13.0812  -10.9967   14.6745 N   0  0  0  0  0  0  0  0  0  0  0  0
   10.6773  -13.4885   13.8707 N   0  0  0  0  0  0  0  0  0  0  0  0
   10.3625  -14.8682   10.9045 C   0  0  0  0  0  0  0  0  0  0  0  0
   12.1569  -18.5730   12.7664 C   0  0  0  0  0  0  0  0  0  0  0  0
   16.1221  -13.1170   14.3272 C   0  0  0  0  0  0  0  0  0  0  0  0
    9.4508  -14.1142   14.3781 C   0  0  0  0  0  0  0  0  0  0  0  0
   14.4847  -10.7798   15.0021 C   0  0  0  0  0  0  0  0  0  0  0  0
    8.9198  -13.1366   15.4157 C   0  0  0  0  0  0  0  0  0  0  0  0
   13.0708  -19.9271    8.7959 C   0  0  0  0  0  0  0  0  0  0  0  0
   11.8393  -19.3435    9.0693 C   0  0  0  0  0  0  0  0  0  0  0  0
   14.0088  -20.0764    9.8105 C   0  0  0  0  0  0  0  0  0  0  0  0
   17.0826  -10.7020   11.5757 C   0  0  0  0  0  0  0  0  0  0  0  0
   10.1209  -12.2937   15.8206 C   0  0  0  0  0  0  0  0  0  0  0  0
   11.5537  -18.9102   10.3582 C   0  0  0  0  0  0  0  0  0  0  0  0
   13.7232  -19.6401   11.1004 C   0  0  0  0  0  0  0  0  0  0  0  0
   17.0150  -11.8417   12.3739 C   0  0  0  0  0  0  0  0  0  0  0  0
   15.4339   -9.6292   12.9963 C   0  0  0  0  0  0  0  0  0  0  0  0
   16.2821   -9.6104   11.8968 C   0  0  0  0  0  0  0  0  0  0  0  0
   12.4677  -12.1553   14.9483 C   0  0  0  0  0  0  0  0  0  0  0  0
   11.4655  -13.9387   12.8999 C   0  0  0  0  0  0  0  0  0  0  0  0
   11.0574  -15.2136   12.2185 C   0  0  2  0  0  0  0  0  0  0  0  0
   11.0113  -12.2516   14.5812 C   0  0  1  0  0  0  0  0  0  0  0  0
   12.4917  -19.0555   11.3728 C   0  0  0  0  0  0  0  0  0  0  0  0
   16.1718  -11.8637   13.4803 C   0  0  0  0  0  0  0  0  0  0  0  0
   15.3863  -10.7690   13.7913 C   0  0  0  0  0  0  0  0  0  0  0  0
   15.3475  -14.9829   14.1489 H   0  0  0  0  0  0  0  0  0  0  0  0
   14.4578  -13.8285   13.4122 H   0  0  0  0  0  0  0  0  0  0  0  0
   11.9782  -16.5959   11.1462 H   0  0  0  0  0  0  0  0  0  0  0  0
   12.5638  -10.2626   14.2346 H   0  0  0  0  0  0  0  0  0  0  0  0
    9.5635  -14.2963   11.0903 H   0  0  0  0  0  0  0  0  0  0  0  0
   10.9972  -14.3719   10.3122 H   0  0  0  0  0  0  0  0  0  0  0  0
   10.0715  -15.7101   10.4500 H   0  0  0  0  0  0  0  0  0  0  0  0
   11.1628  -18.5357   12.8688 H   0  0  0  0  0  0  0  0  0  0  0  0
   12.5368  -19.2137   13.4336 H   0  0  0  0  0  0  0  0  0  0  0  0
   17.0520  -13.4344   14.5127 H   0  0  0  0  0  0  0  0  0  0  0  0
   15.6583  -12.9207   15.1911 H   0  0  0  0  0  0  0  0  0  0  0  0
    9.6539  -14.9987   14.7982 H   0  0  0  0  0  0  0  0  0  0  0  0
    8.7878  -14.2401   13.6402 H   0  0  0  0  0  0  0  0  0  0  0  0
   14.7844  -11.5115   15.6143 H   0  0  0  0  0  0  0  0  0  0  0  0
   14.5693   -9.8993   15.4686 H   0  0  0  0  0  0  0  0  0  0  0  0
    8.5538  -13.6282   16.2059 H   0  0  0  0  0  0  0  0  0  0  0  0
    8.2041  -12.5605   15.0208 H   0  0  0  0  0  0  0  0  0  0  0  0
   13.2818  -20.2394    7.8696 H   0  0  0  0  0  0  0  0  0  0  0  0
   11.1618  -19.2359    8.3416 H   0  0  0  0  0  0  0  0  0  0  0  0
   14.8930  -20.4994    9.6124 H   0  0  0  0  0  0  0  0  0  0  0  0
   17.6955  -10.6691   10.7862 H   0  0  0  0  0  0  0  0  0  0  0  0
   10.6048  -12.7169   16.5866 H   0  0  0  0  0  0  0  0  0  0  0  0
    9.8322  -11.3713   16.0773 H   0  0  0  0  0  0  0  0  0  0  0  0
   10.6677  -18.4912   10.5567 H   0  0  0  0  0  0  0  0  0  0  0  0
   14.4007  -19.7466   11.8282 H   0  0  0  0  0  0  0  0  0  0  0  0
   17.5714  -12.6425   12.1520 H   0  0  0  0  0  0  0  0  0  0  0  0
   14.8660   -8.8352   13.2129 H   0  0  0  0  0  0  0  0  0  0  0  0
   10.4231  -15.7152   12.8067 H   0  0  0  0  0  0  0  0  0  0  0  0
   10.7584  -11.4657   14.0169 H   0  0  0  0  0  0  0  0  0  0  0  0
  1 26  1  0  0  0  0
  2  3  2  0  0  0  0
  2  4  2  0  0  0  0
  2  8  1  0  0  0  0
  2 12  1  0  0  0  0
  5 27  2  0  0  0  0
  6 28  2  0  0  0  0
  7 13  1  0  0  0  0
  8 29  1  0  0  0  0
  9 15  1  0  0  0  0
  9 27  1  0  0  0  0
 10 14  1  0  0  0  0
 10 28  1  0  0  0  0
 10 30  1  0  0  0  0
 11 29  1  0  0  0  0
 12 31  1  0  0  0  0
 13 32  1  0  0  0  0
 14 16  1  0  0  0  0
 15 33  1  0  0  0  0
 16 21  1  0  0  0  0
 17 18  2  0  0  0  0
 17 19  1  0  0  0  0
 18 22  1  0  0  0  0
 19 23  2  0  0  0  0
 20 24  2  0  0  0  0
 20 26  1  0  0  0  0
 21 30  1  0  0  0  0
 22 31  2  0  0  0  0
 23 31  1  0  0  0  0
 24 32  1  0  0  0  0
 25 26  2  0  0  0  0
 25 33  1  0  0  0  0
 27 30  1  0  0  0  0
 28 29  1  0  0  0  0
 32 33  2  0  0  0  0
  7 34  1  0  0  0  0
  7 35  1  0  0  0  0
  8 36  1  0  0  0  0
  9 37  1  0  0  0  0
 11 38  1  0  0  0  0
 11 39  1  0  0  0  0
 11 40  1  0  0  0  0
 12 41  1  0  0  0  0
 12 42  1  0  0  0  0
 13 43  1  0  0  0  0
 13 44  1  0  0  0  0
 14 45  1  0  0  0  0
 14 46  1  0  0  0  0
 15 47  1  0  0  0  0
 15 48  1  0  0  0  0
 16 49  1  0  0  0  0
 16 50  1  0  0  0  0
 17 51  1  0  0  0  0
 18 52  1  0  0  0  0
 19 53  1  0  0  0  0
 20 54  1  0  0  0  0
 21 55  1  0  0  0  0
 21 56  1  0  0  0  0
 22 57  1  0  0  0  0
 23 58  1  0  0  0  0
 24 59  1  0  0  0  0
 25 60  1  0  0  0  0
 29 61  1  0  0  0  0
 30 62  1  0  0  0  0
M  END
> <pdb_id>
3RMM

> <uniprot_id>
P00734

> <usmiles>
Clc1cc(c(cc1)CN)CNC(=O)[C@H]2N(C(=O)[C@H](NS(=O)(=O)Cc3ccccc3)C)CCC2

$$$$
M3C_A_2001
          07202403143D 1   1.00000     0.00000     0
            
 28 28  0  0  0  0            999 V2000
   20.1420    4.5880    3.6080 S   0  0  0  0  0  0  0  0  0  0  0  0
   14.2010    2.2930    4.7930 S   0  0  0  0  0  0  0  0  0  0  0  0
   14.0720    3.0510    1.6930 O   0  0  0  0  0  0  0  0  0  0  0  0
   14.8810    5.1820    2.0730 O   0  0  0  0  0  0  0  0  0  0  0  0
   16.6960    2.9840    1.1790 N   0  0  0  0  0  0  0  0  0  0  0  0
   13.6810    4.8220    4.4880 N   0  0  0  0  0  0  0  0  0  0  0  0
   20.0090    4.1010    5.2380 C   0  0  0  0  0  0  0  0  0  0  0  0
   18.7680    3.5010    3.1040 C   0  0  0  0  0  0  0  0  0  0  0  0
   13.4010    3.1630    6.0040 C   0  0  0  0  0  0  0  0  0  0  0  0
   13.1830    4.4970    5.7200 C   0  0  0  0  0  0  0  0  0  0  0  0
   17.4030    4.1880    3.0830 C   0  0  0  0  0  0  0  0  0  0  0  0
   14.2670    3.7530    3.9390 C   0  0  0  0  0  0  0  0  0  0  0  0
   16.3050    3.2690    2.5540 C   0  0  1  0  0  0  0  0  0  0  0  0
   14.8820    3.8460    2.5570 C   0  0  0  0  0  0  0  0  0  0  0  0
   14.0625    2.1063    2.0208 H   0  0  0  0  0  0  0  0  0  0  0  0
   15.4455    5.7529    2.6691 H   0  0  0  0  0  0  0  0  0  0  0  0
   16.0189    2.3803    0.7582 H   0  0  0  0  0  0  0  0  0  0  0  0
   16.7467    3.8390    0.6628 H   0  0  0  0  0  0  0  0  0  0  0  0
   20.6966    4.5778    5.7855 H   0  0  0  0  0  0  0  0  0  0  0  0
   19.0964    4.3257    5.5796 H   0  0  0  0  0  0  0  0  0  0  0  0
   20.1560    3.1141    5.3041 H   0  0  0  0  0  0  0  0  0  0  0  0
   18.7235    2.7340    3.7441 H   0  0  0  0  0  0  0  0  0  0  0  0
   18.9606    3.1573    2.1849 H   0  0  0  0  0  0  0  0  0  0  0  0
   13.1076    2.7422    6.8624 H   0  0  0  0  0  0  0  0  0  0  0  0
   12.7227    5.1393    6.3329 H   0  0  0  0  0  0  0  0  0  0  0  0
   17.4577    4.9958    2.4961 H   0  0  0  0  0  0  0  0  0  0  0  0
   17.1685    4.4676    4.0140 H   0  0  0  0  0  0  0  0  0  0  0  0
   16.3124    2.4173    3.0780 H   0  0  0  0  0  0  0  0  0  0  0  0
  1  7  1  0  0  0  0
  1  8  1  0  0  0  0
  2  9  1  0  0  0  0
  2 12  1  0  0  0  0
  3 14  1  0  0  0  0
  4 14  1  0  0  0  0
  5 13  1  0  0  0  0
  6 10  1  0  0  0  0
  6 12  2  0  0  0  0
  8 11  1  0  0  0  0
  9 10  2  0  0  0  0
 11 13  1  0  0  0  0
 12 14  1  0  0  0  0
 13 14  1  0  0  0  0
  3 15  1  0  0  0  0
  4 16  1  0  0  0  0
  5 17  1  0  0  0  0
  5 18  1  0  0  0  0
  7 19  1  0  0  0  0
  7 20  1  0  0  0  0
  7 21  1  0  0  0  0
  8 22  1  0  0  0  0
  8 23  1  0  0  0  0
  9 24  1  0  0  0  0
 10 25  1  0  0  0  0
 11 26  1  0  0  0  0
 11 27  1  0  0  0  0
 13 28  1  0  0  0  0
M  END
> <pdb_id>
1QXZ

> <uniprot_id>
P0A080

> <usmiles>
S1C(=NC=C1)C(O)(O)[C@@H](N)CCSC

$$$$
M3Q_B_403
          07202410153D 1   1.00000     0.00000     0
            
 25 26  0  0  0  0            999 V2000
  -34.7071  -10.6990   67.2399 P   0  0  0  0  0  0  0  0  0  0  0  0
  -35.1667  -11.9329   67.8427 O   0  0  0  0  0  0  0  0  0  0  0  0
  -34.1869   -9.7089   67.9889 O   0  0  0  0  0  0  0  0  0  0  0  0
  -35.4633  -10.2373   66.1354 O   0  0  0  0  0  0  0  0  0  0  0  0
  -32.9172  -10.7087   63.7496 N   0  0  0  0  0  0  0  0  0  0  0  0
  -33.0679  -11.1792   66.4801 C   0  0  0  0  0  0  0  0  0  0  0  0
  -32.9886  -10.6309   62.4575 C   0  0  0  0  0  0  0  0  0  0  0  0
  -32.3661   -9.5893   61.7957 C   0  0  0  0  0  0  0  0  0  0  0  0
  -31.0275   -8.0119   66.0540 C   0  0  0  0  0  0  0  0  0  0  0  0
  -31.7312   -8.6323   62.5636 C   0  0  0  0  0  0  0  0  0  0  0  0
  -31.7115   -9.0557   66.6660 C   0  0  0  0  0  0  0  0  0  0  0  0
  -31.0168   -7.8486   64.7087 C   0  0  0  0  0  0  0  0  0  0  0  0
  -32.3295   -9.9637   65.8917 C   0  0  0  0  0  0  0  0  0  0  0  0
  -31.6808   -8.7638   63.9352 C   0  0  0  0  0  0  0  0  0  0  0  0
  -32.3116   -9.8161   64.5078 C   0  0  0  0  0  0  0  0  0  0  0  0
  -35.5173  -12.5413   67.1307 H   0  0  0  0  0  0  0  0  0  0  0  0
  -33.9288   -8.9444   67.3982 H   0  0  0  0  0  0  0  0  0  0  0  0
  -33.2321  -11.8423   65.7498 H   0  0  0  0  0  0  0  0  0  0  0  0
  -32.4942  -11.5955   67.1855 H   0  0  0  0  0  0  0  0  0  0  0  0
  -33.4928  -11.3229   61.9408 H   0  0  0  0  0  0  0  0  0  0  0  0
  -32.3750   -9.5305   60.7975 H   0  0  0  0  0  0  0  0  0  0  0  0
  -30.5273   -7.3606   66.6246 H   0  0  0  0  0  0  0  0  0  0  0  0
  -31.3067   -7.8413   62.1231 H   0  0  0  0  0  0  0  0  0  0  0  0
  -31.7431   -9.1295   67.6627 H   0  0  0  0  0  0  0  0  0  0  0  0
  -30.5356   -7.0782   64.2904 H   0  0  0  0  0  0  0  0  0  0  0  0
  1  2  1  0  0  0  0
  1  3  1  0  0  0  0
  1  4  2  0  0  0  0
  1  6  1  0  0  0  0
  5  7  2  0  0  0  0
  5 15  1  0  0  0  0
  6 13  1  0  0  0  0
  7  8  1  0  0  0  0
  8 10  2  0  0  0  0
  9 11  2  0  0  0  0
  9 12  1  0  0  0  0
 10 14  1  0  0  0  0
 11 13  1  0  0  0  0
 12 14  2  0  0  0  0
 13 15  2  0  0  0  0
 14 15  1  0  0  0  0
  2 16  1  0  0  0  0
  3 17  1  0  0  0  0
  6 18  1  0  0  0  0
  6 19  1  0  0  0  0
  7 20  1  0  0  0  0
  8 21  1  0  0  0  0
  9 22  1  0  0  0  0
 10 23  1  0  0  0  0
 11 24  1  0  0  0  0
 12 25  1  0  0  0  0
M  END
> <pdb_id>
6DD1

> <uniprot_id>
Q9K2N0

> <usmiles>
P(=O)(O)(O)Cc1c2ncccc2ccc1

$$$$
M41_H_1
          07202416143D 1   1.00000     0.00000     0
            
 68 70  0  0  0  0            999 V2000
   16.3388   -8.0778   10.8032 Cl  0  0  0  0  0  0  0  0  0  0  0  0
   13.0133  -17.0044   13.3697 S   0  0  0  0  0  0  0  0  0  0  0  0
   12.5389  -16.5521   14.6415 O   0  0  0  0  0  0  0  0  0  0  0  0
   14.4396  -16.9307   13.2478 O   0  0  0  0  0  0  0  0  0  0  0  0
   13.2490  -13.0737   15.5547 O   0  0  0  0  0  0  0  0  0  0  0  0
   12.5206  -13.3140   12.6115 O   0  0  0  0  0  0  0  0  0  0  0  0
   15.4684  -14.1087   13.6545 N   0  0  0  0  0  0  0  0  0  0  0  0
   12.3457  -16.1421   12.1814 N   0  0  0  0  0  0  0  0  0  0  0  0
   13.2090  -10.9939   14.7482 N   0  0  0  0  0  0  0  0  0  0  0  0
   10.8505  -13.5756   14.0815 N   0  0  0  0  0  0  0  0  0  0  0  0
   10.5311  -16.1363   10.0733 C   0  0  0  0  0  0  0  0  0  0  0  0
    9.3514  -14.1522   11.0782 C   0  0  0  0  0  0  0  0  0  0  0  0
   12.5523  -18.6011   13.1782 C   0  0  0  0  0  0  0  0  0  0  0  0
   16.2626  -13.0624   14.2784 C   0  0  0  0  0  0  0  0  0  0  0  0
    9.7087  -14.2772   14.6628 C   0  0  0  0  0  0  0  0  0  0  0  0
   14.6249  -10.7481   15.0105 C   0  0  0  0  0  0  0  0  0  0  0  0
    9.2458  -13.3916   15.8143 C   0  0  0  0  0  0  0  0  0  0  0  0
   14.5931  -20.4209    9.8576 C   0  0  0  0  0  0  0  0  0  0  0  0
   15.2460  -20.2947   11.0797 C   0  0  0  0  0  0  0  0  0  0  0  0
   13.2885  -19.9625    9.7114 C   0  0  0  0  0  0  0  0  0  0  0  0
   17.1080  -10.6471   11.4842 C   0  0  0  0  0  0  0  0  0  0  0  0
   10.3451  -12.3688   16.0552 C   0  0  0  0  0  0  0  0  0  0  0  0
   14.5903  -19.7083   12.1608 C   0  0  0  0  0  0  0  0  0  0  0  0
   12.6358  -19.3790   10.7904 C   0  0  0  0  0  0  0  0  0  0  0  0
   17.0751  -11.7867   12.2809 C   0  0  0  0  0  0  0  0  0  0  0  0
   15.5144   -9.5903   12.9565 C   0  0  0  0  0  0  0  0  0  0  0  0
   16.3227   -9.5506   11.8309 C   0  0  0  0  0  0  0  0  0  0  0  0
   12.6187  -12.1537   15.0554 C   0  0  0  0  0  0  0  0  0  0  0  0
   11.5830  -13.9686   13.0416 C   0  0  0  0  0  0  0  0  0  0  0  0
   11.1555  -12.3110   14.7609 C   0  0  1  0  0  0  0  0  0  0  0  0
   11.2140  -15.2643   12.3680 C   0  0  1  0  0  0  0  0  0  0  0  0
   10.6684  -14.9132   10.9808 C   0  0  0  0  0  0  0  0  0  0  0  0
   13.2837  -19.2459   12.0167 C   0  0  0  0  0  0  0  0  0  0  0  0
   16.2769  -11.8177   13.4186 C   0  0  0  0  0  0  0  0  0  0  0  0
   15.4876  -10.7250   13.7563 C   0  0  0  0  0  0  0  0  0  0  0  0
   15.4712  -14.9215   14.2370 H   0  0  0  0  0  0  0  0  0  0  0  0
   14.5289  -13.7876   13.5349 H   0  0  0  0  0  0  0  0  0  0  0  0
   12.0648  -16.8054   11.4878 H   0  0  0  0  0  0  0  0  0  0  0  0
   12.6631  -10.2709   14.3249 H   0  0  0  0  0  0  0  0  0  0  0  0
   11.4069  -16.6167   10.0267 H   0  0  0  0  0  0  0  0  0  0  0  0
    9.8337  -16.7498   10.4439 H   0  0  0  0  0  0  0  0  0  0  0  0
   10.2629  -15.8423    9.1559 H   0  0  0  0  0  0  0  0  0  0  0  0
    9.4682  -13.3590   11.6759 H   0  0  0  0  0  0  0  0  0  0  0  0
    9.0756  -13.8454   10.1673 H   0  0  0  0  0  0  0  0  0  0  0  0
    8.6464  -14.7529   11.4553 H   0  0  0  0  0  0  0  0  0  0  0  0
   11.5681  -18.6382   13.0053 H   0  0  0  0  0  0  0  0  0  0  0  0
   12.7627  -19.1043   14.0164 H   0  0  0  0  0  0  0  0  0  0  0  0
   17.2000  -13.3892   14.3985 H   0  0  0  0  0  0  0  0  0  0  0  0
   15.8700  -12.8404   15.1710 H   0  0  0  0  0  0  0  0  0  0  0  0
    9.9840  -15.1773   15.0004 H   0  0  0  0  0  0  0  0  0  0  0  0
    8.9800  -14.3835   13.9863 H   0  0  0  0  0  0  0  0  0  0  0  0
   14.9639  -11.4706   15.6130 H   0  0  0  0  0  0  0  0  0  0  0  0
   14.7116   -9.8637   15.4691 H   0  0  0  0  0  0  0  0  0  0  0  0
    9.1031  -13.9430   16.6362 H   0  0  0  0  0  0  0  0  0  0  0  0
    8.3932  -12.9291   15.5710 H   0  0  0  0  0  0  0  0  0  0  0  0
   15.0633  -20.8424    9.0822 H   0  0  0  0  0  0  0  0  0  0  0  0
   16.1845  -20.6244   11.1823 H   0  0  0  0  0  0  0  0  0  0  0  0
   12.8211  -20.0526    8.8319 H   0  0  0  0  0  0  0  0  0  0  0  0
   17.6893  -10.6155   10.6711 H   0  0  0  0  0  0  0  0  0  0  0  0
   10.9262  -12.6558   16.8167 H   0  0  0  0  0  0  0  0  0  0  0  0
    9.9486  -11.4733   16.2574 H   0  0  0  0  0  0  0  0  0  0  0  0
   15.0578  -19.6193   13.0403 H   0  0  0  0  0  0  0  0  0  0  0  0
   11.6962  -19.0529   10.6863 H   0  0  0  0  0  0  0  0  0  0  0  0
   17.6261  -12.5843   12.0352 H   0  0  0  0  0  0  0  0  0  0  0  0
   14.9493   -8.7999   13.1930 H   0  0  0  0  0  0  0  0  0  0  0  0
   10.8409  -11.5444   14.2012 H   0  0  0  0  0  0  0  0  0  0  0  0
   10.5081  -15.7321   12.8998 H   0  0  0  0  0  0  0  0  0  0  0  0
   11.3311  -14.3004   10.5504 H   0  0  0  0  0  0  0  0  0  0  0  0
  1 27  1  0  0  0  0
  2  3  2  0  0  0  0
  2  4  2  0  0  0  0
  2  8  1  0  0  0  0
  2 13  1  0  0  0  0
  5 28  2  0  0  0  0
  6 29  2  0  0  0  0
  7 14  1  0  0  0  0
  8 31  1  0  0  0  0
  9 16  1  0  0  0  0
  9 28  1  0  0  0  0
 10 15  1  0  0  0  0
 10 29  1  0  0  0  0
 10 30  1  0  0  0  0
 11 32  1  0  0  0  0
 12 32  1  0  0  0  0
 13 33  1  0  0  0  0
 14 34  1  0  0  0  0
 15 17  1  0  0  0  0
 16 35  1  0  0  0  0
 17 22  1  0  0  0  0
 18 19  2  0  0  0  0
 18 20  1  0  0  0  0
 19 23  1  0  0  0  0
 20 24  2  0  0  0  0
 21 25  2  0  0  0  0
 21 27  1  0  0  0  0
 22 30  1  0  0  0  0
 23 33  2  0  0  0  0
 24 33  1  0  0  0  0
 25 34  1  0  0  0  0
 26 27  2  0  0  0  0
 26 35  1  0  0  0  0
 28 30  1  0  0  0  0
 29 31  1  0  0  0  0
 31 32  1  0  0  0  0
 34 35  2  0  0  0  0
  7 36  1  0  0  0  0
  7 37  1  0  0  0  0
  8 38  1  0  0  0  0
  9 39  1  0  0  0  0
 11 40  1  0  0  0  0
 11 41  1  0  0  0  0
 11 42  1  0  0  0  0
 12 43  1  0  0  0  0
 12 44  1  0  0  0  0
 12 45  1  0  0  0  0
 13 46  1  0  0  0  0
 13 47  1  0  0  0  0
 14 48  1  0  0  0  0
 14 49  1  0  0  0  0
 15 50  1  0  0  0  0
 15 51  1  0  0  0  0
 16 52  1  0  0  0  0
 16 53  1  0  0  0  0
 17 54  1  0  0  0  0
 17 55  1  0  0  0  0
 18 56  1  0  0  0  0
 19 57  1  0  0  0  0
 20 58  1  0  0  0  0
 21 59  1  0  0  0  0
 22 60  1  0  0  0  0
 22 61  1  0  0  0  0
 23 62  1  0  0  0  0
 24 63  1  0  0  0  0
 25 64  1  0  0  0  0
 26 65  1  0  0  0  0
 30 66  1  0  0  0  0
 31 67  1  0  0  0  0
 32 68  1  0  0  0  0
M  END
> <pdb_id>
3RMN

> <uniprot_id>
P00734

> <usmiles>
Clc1cc(c(cc1)CN)CNC(=O)[C@H]2N(C(=O)[C@H](NS(=O)(=O)Cc3ccccc3)C(C)C)CCC2

$$$$
M42_B_233
          07202402453D 1   1.00000     0.00000     0
            
 24 26  0  0  0  0            999 V2000
   -5.3051   10.3304   14.4627 O   0  0  0  0  0  0  0  0  0  0  0  0
   -3.2653    3.8871   15.8750 O   0  0  0  0  0  0  0  0  0  0  0  0
   -4.7272    5.2748   14.7108 O   0  0  0  0  0  0  0  0  0  0  0  0
   -4.5806    8.2633   14.9708 N   0  0  0  0  0  0  0  0  0  0  0  0
   -1.4588    9.9427   17.5731 C   0  0  0  0  0  0  0  0  0  0  0  0
   -4.4670    3.8992   15.0245 C   0  0  0  0  0  0  0  0  0  0  0  0
   -1.9420    5.5654   17.0469 C   0  0  0  0  0  0  0  0  0  0  0  0
   -1.8226    6.9527   17.1807 C   0  0  0  0  0  0  0  0  0  0  0  0
   -3.4633   10.1572   15.9775 C   0  0  0  0  0  0  0  0  0  0  0  0
   -4.4733    9.5959   15.1152 C   0  0  0  0  0  0  0  0  0  0  0  0
   -2.9206    5.1403   16.2056 C   0  0  0  0  0  0  0  0  0  0  0  0
   -3.8407    6.0019   15.4831 C   0  0  0  0  0  0  0  0  0  0  0  0
   -3.7316    7.4285   15.6120 C   0  0  0  0  0  0  0  0  0  0  0  0
   -2.5330    9.3586   16.6774 C   0  0  0  0  0  0  0  0  0  0  0  0
   -2.6418    7.8762   16.5082 C   0  0  0  0  0  0  0  0  0  0  0  0
   -5.2959    7.8855   14.3830 H   0  0  0  0  0  0  0  0  0  0  0  0
   -0.9142    9.2021   17.9669 H   0  0  0  0  0  0  0  0  0  0  0  0
   -0.8663   10.5426   17.0355 H   0  0  0  0  0  0  0  0  0  0  0  0
   -1.8871   10.4685   18.3080 H   0  0  0  0  0  0  0  0  0  0  0  0
   -5.2429    3.5039   15.5162 H   0  0  0  0  0  0  0  0  0  0  0  0
   -4.3031    3.3784   14.1867 H   0  0  0  0  0  0  0  0  0  0  0  0
   -1.3469    4.9290   17.5377 H   0  0  0  0  0  0  0  0  0  0  0  0
   -1.1137    7.3081   17.7899 H   0  0  0  0  0  0  0  0  0  0  0  0
   -3.4201   11.1506   16.0839 H   0  0  0  0  0  0  0  0  0  0  0  0
  1 10  2  0  0  0  0
  2  6  1  0  0  0  0
  2 11  1  0  0  0  0
  3  6  1  0  0  0  0
  3 12  1  0  0  0  0
  4 10  1  0  0  0  0
  4 13  1  0  0  0  0
  5 14  1  0  0  0  0
  7  8  1  0  0  0  0
  7 11  2  0  0  0  0
  8 15  2  0  0  0  0
  9 10  1  0  0  0  0
  9 14  2  0  0  0  0
 11 12  1  0  0  0  0
 12 13  2  0  0  0  0
 13 15  1  0  0  0  0
 14 15  1  0  0  0  0
  4 16  1  0  0  0  0
  5 17  1  0  0  0  0
  5 18  1  0  0  0  0
  5 19  1  0  0  0  0
  6 20  1  0  0  0  0
  6 21  1  0  0  0  0
  7 22  1  0  0  0  0
  8 23  1  0  0  0  0
  9 24  1  0  0  0  0
M  END
> <pdb_id>
3NHU

> <uniprot_id>
P16083

> <usmiles>
O=C1Nc2c3OCOc3ccc2C(=C1)C

$$$$
M4D_D_901
          07192416553D 1   1.00000     0.00000     0
            
 48 49  0  0  0  0            999 V2000
  -10.4378   26.2721  -38.8645 N   0  0  0  0  0  0  0  0  0  0  0  0
   -7.9557   18.6145  -35.8024 N   0  0  0  0  0  0  0  0  0  0  0  0
   -7.1137   20.7044  -35.5055 N   0  0  0  0  0  0  0  0  0  0  0  0
  -10.1064   18.5075  -30.0933 C   0  0  0  0  0  0  0  0  0  0  0  0
  -10.8618   25.3581  -37.7862 C   0  0  0  0  0  0  0  0  0  0  0  0
  -10.2400   18.0298  -31.5235 C   0  0  0  0  0  0  0  0  0  0  0  0
  -10.2157   25.7672  -36.4785 C   0  0  0  0  0  0  0  0  0  0  0  0
  -10.5244   19.1714  -32.5113 C   0  0  0  0  0  0  0  0  0  0  0  0
  -10.6938   24.8073  -35.4088 C   0  0  0  0  0  0  0  0  0  0  0  0
  -10.5939   18.5740  -33.9106 C   0  0  0  0  0  0  0  0  0  0  0  0
   -6.1035   24.1268  -35.0094 C   0  0  0  0  0  0  0  0  0  0  0  0
   -6.0482   22.7832  -35.2938 C   0  0  0  0  0  0  0  0  0  0  0  0
  -10.7142   19.5826  -35.0528 C   0  0  0  0  0  0  0  0  0  0  0  0
   -9.7341   24.7476  -34.2268 C   0  0  0  0  0  0  0  0  0  0  0  0
   -7.2948   24.7505  -34.6614 C   0  0  0  0  0  0  0  0  0  0  0  0
   -9.5894   21.7838  -34.8143 C   0  0  0  0  0  0  0  0  0  0  0  0
   -8.1798   19.8996  -35.4823 C   0  0  0  0  0  0  0  0  0  0  0  0
   -7.1872   22.0098  -35.2322 C   0  0  0  0  0  0  0  0  0  0  0  0
   -9.4885   20.4443  -35.1212 C   0  0  0  0  0  0  0  0  0  0  0  0
   -8.4713   24.0446  -34.5935 C   0  0  0  0  0  0  0  0  0  0  0  0
   -8.4634   22.5908  -34.8573 C   0  0  0  0  0  0  0  0  0  0  0  0
  -10.8680   25.9959  -39.7239 H   0  0  0  0  0  0  0  0  0  0  0  0
  -10.7147   27.2059  -38.6380 H   0  0  0  0  0  0  0  0  0  0  0  0
   -8.7121   17.9604  -35.8039 H   0  0  0  0  0  0  0  0  0  0  0  0
   -7.0325   18.3118  -36.0392 H   0  0  0  0  0  0  0  0  0  0  0  0
   -9.9227   17.7263  -29.4967 H   0  0  0  0  0  0  0  0  0  0  0  0
   -9.3519   19.1606  -30.0291 H   0  0  0  0  0  0  0  0  0  0  0  0
  -10.9564   18.9512  -29.8092 H   0  0  0  0  0  0  0  0  0  0  0  0
  -10.5851   24.4247  -38.0149 H   0  0  0  0  0  0  0  0  0  0  0  0
  -11.8565   25.3969  -37.6908 H   0  0  0  0  0  0  0  0  0  0  0  0
  -10.9917   17.3719  -31.5712 H   0  0  0  0  0  0  0  0  0  0  0  0
   -9.3871   17.5814  -31.7911 H   0  0  0  0  0  0  0  0  0  0  0  0
  -10.4848   26.7011  -36.2431 H   0  0  0  0  0  0  0  0  0  0  0  0
   -9.2202   25.7178  -36.5602 H   0  0  0  0  0  0  0  0  0  0  0  0
   -9.7906   19.8493  -32.4675 H   0  0  0  0  0  0  0  0  0  0  0  0
  -11.3952   19.6077  -32.2847 H   0  0  0  0  0  0  0  0  0  0  0  0
  -10.7732   23.8934  -35.8070 H   0  0  0  0  0  0  0  0  0  0  0  0
  -11.5901   25.1076  -35.0824 H   0  0  0  0  0  0  0  0  0  0  0  0
  -11.3899   17.9698  -33.9482 H   0  0  0  0  0  0  0  0  0  0  0  0
   -9.7621   18.0390  -34.0586 H   0  0  0  0  0  0  0  0  0  0  0  0
   -5.2646   24.6691  -35.0542 H   0  0  0  0  0  0  0  0  0  0  0  0
   -5.1761   22.3643  -35.5469 H   0  0  0  0  0  0  0  0  0  0  0  0
  -11.5153   20.1609  -34.8986 H   0  0  0  0  0  0  0  0  0  0  0  0
  -10.8196   19.0906  -35.9170 H   0  0  0  0  0  0  0  0  0  0  0  0
  -10.1736   24.2576  -33.4740 H   0  0  0  0  0  0  0  0  0  0  0  0
   -9.5163   25.6793  -33.9360 H   0  0  0  0  0  0  0  0  0  0  0  0
   -7.2959   25.7294  -34.4568 H   0  0  0  0  0  0  0  0  0  0  0  0
  -10.4747   22.1735  -34.5607 H   0  0  0  0  0  0  0  0  0  0  0  0
  1  5  1  0  0  0  0
  2 17  1  0  0  0  0
  3 17  2  0  0  0  0
  3 18  1  0  0  0  0
  4  6  1  0  0  0  0
  5  7  1  0  0  0  0
  6  8  1  0  0  0  0
  7  9  1  0  0  0  0
  8 10  1  0  0  0  0
  9 14  1  0  0  0  0
 10 13  1  0  0  0  0
 11 12  1  0  0  0  0
 11 15  2  0  0  0  0
 12 18  2  0  0  0  0
 13 19  1  0  0  0  0
 14 20  1  0  0  0  0
 15 20  1  0  0  0  0
 16 19  2  0  0  0  0
 16 21  1  0  0  0  0
 17 19  1  0  0  0  0
 18 21  1  0  0  0  0
 20 21  2  0  0  0  0
  1 22  1  0  0  0  0
  1 23  1  0  0  0  0
  2 24  1  0  0  0  0
  2 25  1  0  0  0  0
  4 26  1  0  0  0  0
  4 27  1  0  0  0  0
  4 28  1  0  0  0  0
  5 29  1  0  0  0  0
  5 30  1  0  0  0  0
  6 31  1  0  0  0  0
  6 32  1  0  0  0  0
  7 33  1  0  0  0  0
  7 34  1  0  0  0  0
  8 35  1  0  0  0  0
  8 36  1  0  0  0  0
  9 37  1  0  0  0  0
  9 38  1  0  0  0  0
 10 39  1  0  0  0  0
 10 40  1  0  0  0  0
 11 41  1  0  0  0  0
 12 42  1  0  0  0  0
 13 43  1  0  0  0  0
 13 44  1  0  0  0  0
 14 45  1  0  0  0  0
 14 46  1  0  0  0  0
 15 47  1  0  0  0  0
 16 48  1  0  0  0  0
M  END
> <pdb_id>
5AWC

> <uniprot_id>
Q9NR97

> <usmiles>
n1c(N)c(cc2c1cccc2CCCCN)CCCCC

$$$$
M4S_A_308
          07192416293D 1   1.00000     0.00000     0
            
 21 21  0  0  0  0            999 V2000
   -5.9682    0.9277   16.9357 S   0  0  0  0  0  0  0  0  0  0  0  0
   -5.4317    1.0064   18.2635 O   0  0  0  0  0  0  0  0  0  0  0  0
   -7.4115    0.9333   16.8209 O   0  0  0  0  0  0  0  0  0  0  0  0
   -4.2841    5.8386   14.1190 O   0  0  0  0  0  0  0  0  0  0  0  0
   -5.3687   -0.3766   16.1820 N   0  0  0  0  0  0  0  0  0  0  0  0
   -2.9296    6.0424   13.7205 C   0  0  0  0  0  0  0  0  0  0  0  0
   -4.1049    2.4858   15.6546 C   0  0  0  0  0  0  0  0  0  0  0  0
   -6.3373    3.3835   15.7967 C   0  0  0  0  0  0  0  0  0  0  0  0
   -3.6947    3.6389   14.9906 C   0  0  0  0  0  0  0  0  0  0  0  0
   -5.9120    4.5297   15.1416 C   0  0  0  0  0  0  0  0  0  0  0  0
   -5.4238    2.3741   16.0597 C   0  0  0  0  0  0  0  0  0  0  0  0
   -4.5962    4.6563   14.7376 C   0  0  0  0  0  0  0  0  0  0  0  0
   -5.7444   -0.4290   15.2567 H   0  0  0  0  0  0  0  0  0  0  0  0
   -4.3725   -0.3052   16.1337 H   0  0  0  0  0  0  0  0  0  0  0  0
   -2.8415    6.9383   13.2851 H   0  0  0  0  0  0  0  0  0  0  0  0
   -2.3361    6.0027   14.5244 H   0  0  0  0  0  0  0  0  0  0  0  0
   -2.6618    5.3292   13.0728 H   0  0  0  0  0  0  0  0  0  0  0  0
   -3.4551    1.7478   15.8364 H   0  0  0  0  0  0  0  0  0  0  0  0
   -7.2925    3.2862   16.0762 H   0  0  0  0  0  0  0  0  0  0  0  0
   -2.7438    3.7317   14.6955 H   0  0  0  0  0  0  0  0  0  0  0  0
   -6.5610    5.2686   14.9606 H   0  0  0  0  0  0  0  0  0  0  0  0
  1  2  2  0  0  0  0
  1  3  2  0  0  0  0
  1  5  1  0  0  0  0
  1 11  1  0  0  0  0
  4  6  1  0  0  0  0
  4 12  1  0  0  0  0
  7  9  2  0  0  0  0
  7 11  1  0  0  0  0
  8 10  1  0  0  0  0
  8 11  2  0  0  0  0
  9 12  1  0  0  0  0
 10 12  2  0  0  0  0
  5 13  1  0  0  0  0
  5 14  1  0  0  0  0
  6 15  1  0  0  0  0
  6 16  1  0  0  0  0
  6 17  1  0  0  0  0
  7 18  1  0  0  0  0
  8 19  1  0  0  0  0
  9 20  1  0  0  0  0
 10 21  1  0  0  0  0
M  END
> <pdb_id>
6I0W

> <uniprot_id>
P00918

> <usmiles>
S(=O)(=O)(N)c1ccc(OC)cc1

$$$$
M4Z_B_1287
          07202416143D 1   1.00000     0.00000     0
            
 69 71  0  0  0  0            999 V2000
   14.2834  -17.0353   12.4723 O   0  0  0  0  0  0  0  0  0  0  0  0
   11.8408  -13.3618   15.9499 O   0  0  0  0  0  0  0  0  0  0  0  0
   11.7706  -13.3067   12.7857 O   0  0  0  0  0  0  0  0  0  0  0  0
   18.2366  -12.4652   11.1097 N   0  0  0  0  0  0  0  0  0  0  0  0
   17.7641  -10.2088   10.8241 N   0  0  0  0  0  0  0  0  0  0  0  0
   14.6468  -16.5836   14.6392 N   0  0  0  0  0  0  0  0  0  0  0  0
   12.4231  -11.2960   15.3141 N   0  0  0  0  0  0  0  0  0  0  0  0
   11.7345  -16.0048   12.4216 N   0  0  0  0  0  0  0  0  0  0  0  0
    9.9447  -13.3452   14.0441 N   0  0  0  0  0  0  0  0  0  0  0  0
   16.6803  -16.0750   15.8298 C   0  0  0  0  0  0  0  0  0  0  0  0
   16.0966  -16.8371   14.6382 C   0  0  0  0  0  0  0  0  0  0  0  0
   12.3608  -16.3460   13.7284 C   0  0  0  0  0  0  0  0  0  0  0  0
   13.7851  -11.4965   15.8129 C   0  0  0  0  0  0  0  0  0  0  0  0
    8.7087  -13.6890   14.7772 C   0  0  0  0  0  0  0  0  0  0  0  0
    7.9429  -15.3218    8.9017 C   0  0  0  0  0  0  0  0  0  0  0  0
    9.3380  -15.9623    8.8124 C   0  0  0  0  0  0  0  0  0  0  0  0
    8.0500  -13.9650    9.6124 C   0  0  0  0  0  0  0  0  0  0  0  0
    8.9498  -12.5534   15.7803 C   0  0  0  0  0  0  0  0  0  0  0  0
    9.8610  -16.2623   10.2229 C   0  0  0  0  0  0  0  0  0  0  0  0
    8.6528  -14.1617   11.0232 C   0  0  0  0  0  0  0  0  0  0  0  0
   15.3160  -10.3061   14.2570 C   0  0  0  0  0  0  0  0  0  0  0  0
   15.0519  -12.6971   14.0025 C   0  0  0  0  0  0  0  0  0  0  0  0
   16.2005  -10.2709   13.1962 C   0  0  0  0  0  0  0  0  0  0  0  0
   15.9462  -12.6849   12.9337 C   0  0  0  0  0  0  0  0  0  0  0  0
   13.8351  -16.6815   13.5559 C   0  0  0  0  0  0  0  0  0  0  0  0
   17.5175  -11.4103   11.4346 C   0  0  0  0  0  0  0  0  0  0  0  0
   11.5114  -12.2823   15.4736 C   0  0  0  0  0  0  0  0  0  0  0  0
   10.7581  -13.9034   13.1145 C   0  0  0  0  0  0  0  0  0  0  0  0
   14.7488  -11.5112   14.6553 C   0  0  0  0  0  0  0  0  0  0  0  0
   16.5087  -11.4616   12.5165 C   0  0  0  0  0  0  0  0  0  0  0  0
    9.9871  -14.9462   11.0114 C   0  0  0  0  0  0  0  0  0  0  0  0
   10.4751  -15.2251   12.4478 C   0  0  1  0  0  0  0  0  0  0  0  0
   10.1215  -12.1478   14.8752 C   0  0  1  0  0  0  0  0  0  0  0  0
    9.7155  -15.7856   12.9935 H   0  0  0  0  0  0  0  0  0  0  0  0
    9.9793  -11.2145   14.3350 H   0  0  0  0  0  0  0  0  0  0  0  0
   18.0616  -13.3450   11.5517 H   0  0  0  0  0  0  0  0  0  0  0  0
   18.9574  -12.3861   10.4211 H   0  0  0  0  0  0  0  0  0  0  0  0
   17.2218   -9.4043   11.0663 H   0  0  0  0  0  0  0  0  0  0  0  0
   14.2264  -16.3181   15.5069 H   0  0  0  0  0  0  0  0  0  0  0  0
   12.1703  -10.4409   14.8613 H   0  0  0  0  0  0  0  0  0  0  0  0
   11.5445  -16.8645   11.9473 H   0  0  0  0  0  0  0  0  0  0  0  0
   17.6689  -16.2206   15.8667 H   0  0  0  0  0  0  0  0  0  0  0  0
   16.4908  -15.0986   15.7262 H   0  0  0  0  0  0  0  0  0  0  0  0
   16.2625  -16.4077   16.6753 H   0  0  0  0  0  0  0  0  0  0  0  0
   16.5031  -16.5072   13.7862 H   0  0  0  0  0  0  0  0  0  0  0  0
   16.2748  -17.8163   14.7353 H   0  0  0  0  0  0  0  0  0  0  0  0
   11.8894  -17.1359   14.1206 H   0  0  0  0  0  0  0  0  0  0  0  0
   12.2734  -15.5649   14.3467 H   0  0  0  0  0  0  0  0  0  0  0  0
   13.8364  -12.3683   16.3000 H   0  0  0  0  0  0  0  0  0  0  0  0
   14.0245  -10.7519   16.4360 H   0  0  0  0  0  0  0  0  0  0  0  0
    8.7229  -14.6006   15.1879 H   0  0  0  0  0  0  0  0  0  0  0  0
    7.8746  -13.5800   14.2364 H   0  0  0  0  0  0  0  0  0  0  0  0
    7.3326  -15.9221    9.4185 H   0  0  0  0  0  0  0  0  0  0  0  0
    7.5775  -15.1882    7.9805 H   0  0  0  0  0  0  0  0  0  0  0  0
    9.9641  -15.3323    8.3529 H   0  0  0  0  0  0  0  0  0  0  0  0
    9.2800  -16.8139    8.2914 H   0  0  0  0  0  0  0  0  0  0  0  0
    7.1395  -13.5595    9.6936 H   0  0  0  0  0  0  0  0  0  0  0  0
    8.6395  -13.3568    9.0808 H   0  0  0  0  0  0  0  0  0  0  0  0
    9.2092  -12.8499   16.6994 H   0  0  0  0  0  0  0  0  0  0  0  0
    8.2120  -11.8813   15.8426 H   0  0  0  0  0  0  0  0  0  0  0  0
   10.7574  -16.7010   10.1601 H   0  0  0  0  0  0  0  0  0  0  0  0
    9.2232  -16.8729   10.6924 H   0  0  0  0  0  0  0  0  0  0  0  0
    7.9938  -14.6636   11.5834 H   0  0  0  0  0  0  0  0  0  0  0  0
    8.8167  -13.2617   11.4272 H   0  0  0  0  0  0  0  0  0  0  0  0
   15.0831   -9.4620   14.7398 H   0  0  0  0  0  0  0  0  0  0  0  0
   14.6314  -13.5552   14.2970 H   0  0  0  0  0  0  0  0  0  0  0  0
   16.6173   -9.4065   12.9148 H   0  0  0  0  0  0  0  0  0  0  0  0
   16.1866  -13.5361   12.4670 H   0  0  0  0  0  0  0  0  0  0  0  0
   10.6742  -14.3792   10.5571 H   0  0  0  0  0  0  0  0  0  0  0  0
  1 25  2  0  0  0  0
  2 27  2  0  0  0  0
  3 28  2  0  0  0  0
  4 26  1  0  0  0  0
  5 26  2  0  0  0  0
  6 11  1  0  0  0  0
  6 25  1  0  0  0  0
  7 13  1  0  0  0  0
  7 27  1  0  0  0  0
  8 12  1  0  0  0  0
  8 32  1  0  0  0  0
  9 14  1  0  0  0  0
  9 28  1  0  0  0  0
  9 33  1  0  0  0  0
 10 11  1  0  0  0  0
 12 25  1  0  0  0  0
 13 29  1  0  0  0  0
 14 18  1  0  0  0  0
 15 16  1  0  0  0  0
 15 17  1  0  0  0  0
 16 19  1  0  0  0  0
 17 20  1  0  0  0  0
 18 33  1  0  0  0  0
 19 31  1  0  0  0  0
 20 31  1  0  0  0  0
 21 23  1  0  0  0  0
 21 29  2  0  0  0  0
 22 24  2  0  0  0  0
 22 29  1  0  0  0  0
 23 30  2  0  0  0  0
 24 30  1  0  0  0  0
 26 30  1  0  0  0  0
 27 33  1  0  0  0  0
 28 32  1  0  0  0  0
 31 32  1  0  0  0  0
 32 34  1  0  0  0  0
 33 35  1  0  0  0  0
  4 36  1  0  0  0  0
  4 37  1  0  0  0  0
  5 38  1  0  0  0  0
  6 39  1  0  0  0  0
  7 40  1  0  0  0  0
  8 41  1  0  0  0  0
 10 42  1  0  0  0  0
 10 43  1  0  0  0  0
 10 44  1  0  0  0  0
 11 45  1  0  0  0  0
 11 46  1  0  0  0  0
 12 47  1  0  0  0  0
 12 48  1  0  0  0  0
 13 49  1  0  0  0  0
 13 50  1  0  0  0  0
 14 51  1  0  0  0  0
 14 52  1  0  0  0  0
 15 53  1  0  0  0  0
 15 54  1  0  0  0  0
 16 55  1  0  0  0  0
 16 56  1  0  0  0  0
 17 57  1  0  0  0  0
 17 58  1  0  0  0  0
 18 59  1  0  0  0  0
 18 60  1  0  0  0  0
 19 61  1  0  0  0  0
 19 62  1  0  0  0  0
 20 63  1  0  0  0  0
 20 64  1  0  0  0  0
 21 65  1  0  0  0  0
 22 66  1  0  0  0  0
 23 67  1  0  0  0  0
 24 68  1  0  0  0  0
 31 69  1  0  0  0  0
M  END
> <pdb_id>
4BAQ

> <uniprot_id>
P00734

> <usmiles>
O=C(N1[C@H](C(=O)NCc2ccc(cc2)C(=N)N)CC1)[C@H](NCC(=O)NCC)C3CCCCC3

$$$$
M5K_A_1366
          07202407523D 1   1.00000     0.00000     0
            
 22 23  0  0  0  0            999 V2000
    1.8368   17.6303   27.4971 N   0  0  0  0  0  0  0  0  0  0  0  0
    3.2417   16.8121   25.7379 N   0  0  0  0  0  0  0  0  0  0  0  0
    2.6007   20.3978   23.4151 C   0  0  0  0  0  0  0  0  0  0  0  0
    5.3042   15.9665   22.7777 C   0  0  0  0  0  0  0  0  0  0  0  0
    5.0778   17.1114   21.9967 C   0  0  0  0  0  0  0  0  0  0  0  0
    4.6875   15.8941   24.0273 C   0  0  0  0  0  0  0  0  0  0  0  0
    4.2667   18.1577   22.4454 C   0  0  0  0  0  0  0  0  0  0  0  0
    2.2273   18.9707   25.4858 C   0  0  0  0  0  0  0  0  0  0  0  0
    2.4215   17.7826   26.2131 C   0  0  0  0  0  0  0  0  0  0  0  0
    3.8204   16.9475   24.4851 C   0  0  0  0  0  0  0  0  0  0  0  0
    2.8280   19.1201   24.2268 C   0  0  0  0  0  0  0  0  0  0  0  0
    3.6370   18.0755   23.7211 C   0  0  0  0  0  0  0  0  0  0  0  0
    1.2306   18.3392   27.8577 H   0  0  0  0  0  0  0  0  0  0  0  0
    2.0310   16.8142   28.0413 H   0  0  0  0  0  0  0  0  0  0  0  0
    3.0988   20.3363   22.5501 H   0  0  0  0  0  0  0  0  0  0  0  0
    1.6239   20.5059   23.2302 H   0  0  0  0  0  0  0  0  0  0  0  0
    2.9309   21.1859   23.9345 H   0  0  0  0  0  0  0  0  0  0  0  0
    5.8895   15.2257   22.4483 H   0  0  0  0  0  0  0  0  0  0  0  0
    5.5078   17.1799   21.0965 H   0  0  0  0  0  0  0  0  0  0  0  0
    4.8502   15.0997   24.6125 H   0  0  0  0  0  0  0  0  0  0  0  0
    4.1282   18.9644   21.8708 H   0  0  0  0  0  0  0  0  0  0  0  0
    1.6639   19.7052   25.8642 H   0  0  0  0  0  0  0  0  0  0  0  0
  1  9  1  0  0  0  0
  2  9  2  0  0  0  0
  2 10  1  0  0  0  0
  3 11  1  0  0  0  0
  4  5  2  0  0  0  0
  4  6  1  0  0  0  0
  5  7  1  0  0  0  0
  6 10  2  0  0  0  0
  7 12  2  0  0  0  0
  8  9  1  0  0  0  0
  8 11  2  0  0  0  0
 10 12  1  0  0  0  0
 11 12  1  0  0  0  0
  1 13  1  0  0  0  0
  1 14  1  0  0  0  0
  3 15  1  0  0  0  0
  3 16  1  0  0  0  0
  3 17  1  0  0  0  0
  4 18  1  0  0  0  0
  5 19  1  0  0  0  0
  6 20  1  0  0  0  0
  7 21  1  0  0  0  0
  8 22  1  0  0  0  0
M  END
> <pdb_id>
5G66

> <uniprot_id>
O34453

> <usmiles>
n1c(N)cc(c2c1cccc2)C

$$$$
M6P_A_501
          07202403303D 1   1.00000     0.00000     0
            
 29 29  0  0  0  0            999 V2000
   24.5990   51.9140   13.5270 P   0  0  0  0  0  0  0  0  0  0  0  0
   25.2390   52.3250   12.2340 O   0  0  0  0  0  0  0  0  0  0  0  0
   23.6550   52.9830   14.0380 O   0  0  0  0  0  0  0  0  0  0  0  0
   23.8480   50.6060   13.4090 O   0  0  0  0  0  0  0  0  0  0  0  0
   27.7390   49.4860   18.6200 O   0  0  0  0  0  0  0  0  0  0  0  0
   29.9640   50.3750   15.8670 O   0  0  0  0  0  0  0  0  0  0  0  0
   30.0610   52.7880   17.0630 O   0  0  0  0  0  0  0  0  0  0  0  0
   27.3270   53.6050   16.9060 O   0  0  0  0  0  0  0  0  0  0  0  0
   25.7940   51.7250   14.6350 O   0  0  0  0  0  0  0  0  0  0  0  0
   27.0890   49.9120   16.4840 O   0  0  0  0  0  0  0  0  0  0  0  0
   25.4140   51.5670   15.9770 C   0  0  0  0  0  0  0  0  0  0  0  0
   28.2370   49.5130   17.3490 C   0  0  1  0  0  0  0  0  0  0  0  0
   29.3860   50.5030   17.1880 C   0  0  2  0  0  0  0  0  0  0  0  0
   28.9530   51.9170   17.3820 C   0  0  2  0  0  0  0  0  0  0  0  0
   27.7710   52.2910   16.5350 C   0  0  1  0  0  0  0  0  0  0  0  0
   26.6480   51.2820   16.7880 C   0  0  2  0  0  0  0  0  0  0  0  0
   25.8550   51.6016   11.9222 H   0  0  0  0  0  0  0  0  0  0  0  0
   23.2446   52.6816   14.8987 H   0  0  0  0  0  0  0  0  0  0  0  0
   28.4640   49.2230   19.2566 H   0  0  0  0  0  0  0  0  0  0  0  0
   30.7163   51.0263   15.7678 H   0  0  0  0  0  0  0  0  0  0  0  0
   29.7834   53.7404   17.1892 H   0  0  0  0  0  0  0  0  0  0  0  0
   26.5393   53.8613   16.3457 H   0  0  0  0  0  0  0  0  0  0  0  0
   24.7722   50.8045   16.0590 H   0  0  0  0  0  0  0  0  0  0  0  0
   24.9795   52.4054   16.3061 H   0  0  0  0  0  0  0  0  0  0  0  0
   28.5465   48.5975   17.0920 H   0  0  0  0  0  0  0  0  0  0  0  0
   30.0891   50.2888   17.8660 H   0  0  0  0  0  0  0  0  0  0  0  0
   28.7109   52.0476   18.3434 H   0  0  0  0  0  0  0  0  0  0  0  0
   28.0277   52.2790   15.5686 H   0  0  0  0  0  0  0  0  0  0  0  0
   26.4023   51.3238   17.7564 H   0  0  0  0  0  0  0  0  0  0  0  0
  1  2  1  0  0  0  0
  1  3  1  0  0  0  0
  1  4  2  0  0  0  0
  1  9  1  0  0  0  0
  5 12  1  0  0  0  0
  6 13  1  0  0  0  0
  7 14  1  0  0  0  0
  8 15  1  0  0  0  0
  9 11  1  0  0  0  0
 10 12  1  0  0  0  0
 10 16  1  0  0  0  0
 11 16  1  0  0  0  0
 12 13  1  0  0  0  0
 13 14  1  0  0  0  0
 14 15  1  0  0  0  0
 15 16  1  0  0  0  0
  2 17  1  0  0  0  0
  3 18  1  0  0  0  0
  5 19  1  0  0  0  0
  6 20  1  0  0  0  0
  7 21  1  0  0  0  0
  8 22  1  0  0  0  0
 11 23  1  0  0  0  0
 11 24  1  0  0  0  0
 12 25  1  0  0  0  0
 13 26  1  0  0  0  0
 14 27  1  0  0  0  0
 15 28  1  0  0  0  0
 16 29  1  0  0  0  0
M  END
> <pdb_id>
6NP8

> <uniprot_id>
Q8PGN7

> <usmiles>
P(=O)(OC[C@H]1O[C@H](O)[C@@H](O)[C@@H](O)[C@@H]1O)(O)O

$$$$
M6P_X_600
          07202403103D 1   1.00000     0.00000     0
            
 29 29  0  0  0  0            999 V2000
  -46.1190  -12.9590   18.0670 P   0  0  0  0  0  0  0  0  0  0  0  0
  -45.6850  -14.1250   18.8940 O   0  0  0  0  0  0  0  0  0  0  0  0
  -47.0390  -12.0700   18.8460 O   0  0  0  0  0  0  0  0  0  0  0  0
  -44.9750  -12.1390   17.5490 O   0  0  0  0  0  0  0  0  0  0  0  0
  -51.0290  -14.7930   14.4550 O   0  0  0  0  0  0  0  0  0  0  0  0
  -48.3360  -13.2090   12.5320 O   0  0  0  0  0  0  0  0  0  0  0  0
  -47.4770  -15.7180   12.1840 O   0  0  0  0  0  0  0  0  0  0  0  0
  -47.2190  -16.8440   14.8700 O   0  0  0  0  0  0  0  0  0  0  0  0
  -46.9080  -13.5700   16.7990 O   0  0  0  0  0  0  0  0  0  0  0  0
  -49.0940  -13.7300   15.3330 O   0  0  0  0  0  0  0  0  0  0  0  0
  -47.6840  -14.8150   16.9520 C   0  0  0  0  0  0  0  0  0  0  0  0
  -50.0030  -13.8350   14.1900 C   0  0  1  0  0  0  0  0  0  0  0  0
  -49.2410  -14.2680   12.9500 C   0  0  2  0  0  0  0  0  0  0  0  0
  -48.4170  -15.5590   13.2310 C   0  0  2  0  0  0  0  0  0  0  0  0
  -47.6520  -15.5310   14.5630 C   0  0  1  0  0  0  0  0  0  0  0  0
  -48.5380  -14.9940   15.7000 C   0  0  2  0  0  0  0  0  0  0  0  0
  -45.0726  -14.7051   18.3569 H   0  0  0  0  0  0  0  0  0  0  0  0
  -47.3175  -11.2971   18.2759 H   0  0  0  0  0  0  0  0  0  0  0  0
  -51.6407  -14.8531   13.6662 H   0  0  0  0  0  0  0  0  0  0  0  0
  -47.8372  -13.4997   11.7155 H   0  0  0  0  0  0  0  0  0  0  0  0
  -46.9355  -16.5432   12.3446 H   0  0  0  0  0  0  0  0  0  0  0  0
  -46.7195  -16.8363   15.7363 H   0  0  0  0  0  0  0  0  0  0  0  0
  -48.2724  -14.7515   17.7581 H   0  0  0  0  0  0  0  0  0  0  0  0
  -47.0627  -15.5920   17.0532 H   0  0  0  0  0  0  0  0  0  0  0  0
  -50.4228  -12.9431   14.0220 H   0  0  0  0  0  0  0  0  0  0  0  0
  -49.8925  -14.4503   12.2135 H   0  0  0  0  0  0  0  0  0  0  0  0
  -49.0365  -16.3440   13.2308 H   0  0  0  0  0  0  0  0  0  0  0  0
  -46.8520  -14.9388   14.4664 H   0  0  0  0  0  0  0  0  0  0  0  0
  -49.2751  -15.6435   15.8865 H   0  0  0  0  0  0  0  0  0  0  0  0
  1  2  1  0  0  0  0
  1  3  1  0  0  0  0
  1  4  2  0  0  0  0
  1  9  1  0  0  0  0
  5 12  1  0  0  0  0
  6 13  1  0  0  0  0
  7 14  1  0  0  0  0
  8 15  1  0  0  0  0
  9 11  1  0  0  0  0
 10 12  1  0  0  0  0
 10 16  1  0  0  0  0
 11 16  1  0  0  0  0
 12 13  1  0  0  0  0
 13 14  1  0  0  0  0
 14 15  1  0  0  0  0
 15 16  1  0  0  0  0
  2 17  1  0  0  0  0
  3 18  1  0  0  0  0
  5 19  1  0  0  0  0
  6 20  1  0  0  0  0
  7 21  1  0  0  0  0
  8 22  1  0  0  0  0
 11 23  1  0  0  0  0
 11 24  1  0  0  0  0
 12 25  1  0  0  0  0
 13 26  1  0  0  0  0
 14 27  1  0  0  0  0
 15 28  1  0  0  0  0
 16 29  1  0  0  0  0
M  END
> <pdb_id>
1PCM

> <uniprot_id>
P26276

> <usmiles>
P(=O)(OC[C@H]1O[C@H](O)[C@@H](O)[C@@H](O)[C@@H]1O)(O)O

$$$$
M6S_B_1287
          07202416143D 1   1.00000     0.00000     0
            
 66 68  0  0  0  0            999 V2000
   14.3301  -16.8259   12.5965 O   0  0  0  0  0  0  0  0  0  0  0  0
   11.7351  -13.2658   16.0278 O   0  0  0  0  0  0  0  0  0  0  0  0
   11.7958  -13.2988   12.8013 O   0  0  0  0  0  0  0  0  0  0  0  0
   18.2083  -12.3615   11.1725 N   0  0  0  0  0  0  0  0  0  0  0  0
   17.7592  -10.1113   10.8246 N   0  0  0  0  0  0  0  0  0  0  0  0
   14.5563  -16.1749   14.7348 N   0  0  0  0  0  0  0  0  0  0  0  0
   12.3861  -11.2939   15.2445 N   0  0  0  0  0  0  0  0  0  0  0  0
   11.7079  -15.9758   12.4174 N   0  0  0  0  0  0  0  0  0  0  0  0
    9.9065  -13.2963   13.9885 N   0  0  0  0  0  0  0  0  0  0  0  0
   16.0300  -16.2357   14.7453 C   0  0  0  0  0  0  0  0  0  0  0  0
   12.2905  -16.3560   13.7334 C   0  0  0  0  0  0  0  0  0  0  0  0
   13.7142  -11.5112   15.8147 C   0  0  0  0  0  0  0  0  0  0  0  0
    8.6481  -13.6149   14.6962 C   0  0  0  0  0  0  0  0  0  0  0  0
    7.7733  -15.3310    8.9378 C   0  0  0  0  0  0  0  0  0  0  0  0
    9.0785  -16.1494    8.9131 C   0  0  0  0  0  0  0  0  0  0  0  0
    7.9937  -13.9667    9.6160 C   0  0  0  0  0  0  0  0  0  0  0  0
    8.8924  -12.4891   15.7121 C   0  0  0  0  0  0  0  0  0  0  0  0
    9.6342  -16.3645   10.3347 C   0  0  0  0  0  0  0  0  0  0  0  0
    8.5514  -14.1848   11.0366 C   0  0  0  0  0  0  0  0  0  0  0  0
   15.2056  -10.2540   14.2829 C   0  0  0  0  0  0  0  0  0  0  0  0
   15.0414  -12.6456   14.0208 C   0  0  0  0  0  0  0  0  0  0  0  0
   16.1193  -10.1912   13.2459 C   0  0  0  0  0  0  0  0  0  0  0  0
   15.9380  -12.5956   12.9606 C   0  0  0  0  0  0  0  0  0  0  0  0
   13.8028  -16.4750   13.6433 C   0  0  0  0  0  0  0  0  0  0  0  0
   17.4907  -11.2971   11.4702 C   0  0  0  0  0  0  0  0  0  0  0  0
   11.4497  -12.2354   15.4460 C   0  0  0  0  0  0  0  0  0  0  0  0
   10.7396  -13.8694   13.0824 C   0  0  0  0  0  0  0  0  0  0  0  0
   14.6917  -11.4769   14.6783 C   0  0  0  0  0  0  0  0  0  0  0  0
   16.4740  -11.3577   12.5573 C   0  0  0  0  0  0  0  0  0  0  0  0
    9.8696  -15.0035   11.0258 C   0  0  0  0  0  0  0  0  0  0  0  0
   10.4374  -15.2026   12.4516 C   0  0  1  0  0  0  0  0  0  0  0  0
   10.0821  -12.1003   14.8191 C   0  0  1  0  0  0  0  0  0  0  0  0
    9.7056  -15.7452   13.0488 H   0  0  0  0  0  0  0  0  0  0  0  0
    9.9632  -11.1604   14.2883 H   0  0  0  0  0  0  0  0  0  0  0  0
   18.0271  -13.2311   11.6316 H   0  0  0  0  0  0  0  0  0  0  0  0
   18.9340  -12.2995   10.4873 H   0  0  0  0  0  0  0  0  0  0  0  0
   17.2246   -9.2936   11.0380 H   0  0  0  0  0  0  0  0  0  0  0  0
   14.0870  -15.8989   15.5736 H   0  0  0  0  0  0  0  0  0  0  0  0
   12.1805  -10.4679   14.7196 H   0  0  0  0  0  0  0  0  0  0  0  0
   11.5371  -16.8181   11.9061 H   0  0  0  0  0  0  0  0  0  0  0  0
   16.3679  -15.9747   15.6496 H   0  0  0  0  0  0  0  0  0  0  0  0
   16.3267  -17.1671   14.5346 H   0  0  0  0  0  0  0  0  0  0  0  0
   16.3944  -15.6064   14.0589 H   0  0  0  0  0  0  0  0  0  0  0  0
   11.9094  -17.2355   14.0183 H   0  0  0  0  0  0  0  0  0  0  0  0
   12.0569  -15.6568   14.4091 H   0  0  0  0  0  0  0  0  0  0  0  0
   13.7503  -12.3999   16.2716 H   0  0  0  0  0  0  0  0  0  0  0  0
   13.9275  -10.7891   16.4727 H   0  0  0  0  0  0  0  0  0  0  0  0
    8.6337  -14.5286   15.1023 H   0  0  0  0  0  0  0  0  0  0  0  0
    7.8279  -13.4847   14.1392 H   0  0  0  0  0  0  0  0  0  0  0  0
    7.0772  -15.8398    9.4444 H   0  0  0  0  0  0  0  0  0  0  0  0
    7.4613  -15.1835    7.9992 H   0  0  0  0  0  0  0  0  0  0  0  0
    9.7593  -15.6599    8.3682 H   0  0  0  0  0  0  0  0  0  0  0  0
    8.8962  -17.0402    8.4968 H   0  0  0  0  0  0  0  0  0  0  0  0
    7.1235  -13.4770    9.6707 H   0  0  0  0  0  0  0  0  0  0  0  0
    8.6454  -13.4295    9.0806 H   0  0  0  0  0  0  0  0  0  0  0  0
    9.1359  -12.7948   16.6325 H   0  0  0  0  0  0  0  0  0  0  0  0
    8.1649  -11.8054   15.7695 H   0  0  0  0  0  0  0  0  0  0  0  0
   10.5003  -16.8612   10.2794 H   0  0  0  0  0  0  0  0  0  0  0  0
    8.9779  -16.8973   10.8690 H   0  0  0  0  0  0  0  0  0  0  0  0
    7.8702  -14.6772   11.5785 H   0  0  0  0  0  0  0  0  0  0  0  0
    8.7285  -13.2935   11.4540 H   0  0  0  0  0  0  0  0  0  0  0  0
   14.9166   -9.4163   14.7464 H   0  0  0  0  0  0  0  0  0  0  0  0
   14.6506  -13.5202   14.3077 H   0  0  0  0  0  0  0  0  0  0  0  0
   16.5256   -9.3145   12.9886 H   0  0  0  0  0  0  0  0  0  0  0  0
   16.2016  -13.4354   12.4860 H   0  0  0  0  0  0  0  0  0  0  0  0
   10.5454  -14.4965   10.4908 H   0  0  0  0  0  0  0  0  0  0  0  0
  1 24  2  0  0  0  0
  2 26  2  0  0  0  0
  3 27  2  0  0  0  0
  4 25  1  0  0  0  0
  5 25  2  0  0  0  0
  6 10  1  0  0  0  0
  6 24  1  0  0  0  0
  7 12  1  0  0  0  0
  7 26  1  0  0  0  0
  8 11  1  0  0  0  0
  8 31  1  0  0  0  0
  9 13  1  0  0  0  0
  9 27  1  0  0  0  0
  9 32  1  0  0  0  0
 11 24  1  0  0  0  0
 12 28  1  0  0  0  0
 13 17  1  0  0  0  0
 14 15  1  0  0  0  0
 14 16  1  0  0  0  0
 15 18  1  0  0  0  0
 16 19  1  0  0  0  0
 17 32  1  0  0  0  0
 18 30  1  0  0  0  0
 19 30  1  0  0  0  0
 20 22  1  0  0  0  0
 20 28  2  0  0  0  0
 21 23  2  0  0  0  0
 21 28  1  0  0  0  0
 22 29  2  0  0  0  0
 23 29  1  0  0  0  0
 25 29  1  0  0  0  0
 26 32  1  0  0  0  0
 27 31  1  0  0  0  0
 30 31  1  0  0  0  0
 31 33  1  0  0  0  0
 32 34  1  0  0  0  0
  4 35  1  0  0  0  0
  4 36  1  0  0  0  0
  5 37  1  0  0  0  0
  6 38  1  0  0  0  0
  7 39  1  0  0  0  0
  8 40  1  0  0  0  0
 10 41  1  0  0  0  0
 10 42  1  0  0  0  0
 10 43  1  0  0  0  0
 11 44  1  0  0  0  0
 11 45  1  0  0  0  0
 12 46  1  0  0  0  0
 12 47  1  0  0  0  0
 13 48  1  0  0  0  0
 13 49  1  0  0  0  0
 14 50  1  0  0  0  0
 14 51  1  0  0  0  0
 15 52  1  0  0  0  0
 15 53  1  0  0  0  0
 16 54  1  0  0  0  0
 16 55  1  0  0  0  0
 17 56  1  0  0  0  0
 17 57  1  0  0  0  0
 18 58  1  0  0  0  0
 18 59  1  0  0  0  0
 19 60  1  0  0  0  0
 19 61  1  0  0  0  0
 20 62  1  0  0  0  0
 21 63  1  0  0  0  0
 22 64  1  0  0  0  0
 23 65  1  0  0  0  0
 30 66  1  0  0  0  0
M  END
> <pdb_id>
4BAN

> <uniprot_id>
P00734

> <usmiles>
O=C(N1[C@H](C(=O)NCc2ccc(cc2)C(=N)N)CC1)[C@H](NCC(=O)NC)C3CCCCC3

$$$$
M77_A_401
          07192421293D 1   1.00000     0.00000     0
            
 37 39  0  0  0  0            999 V2000
    8.3953   10.2703    4.0691 S   0  0  0  0  0  0  0  0  0  0  0  0
    8.0419    9.3610    5.1109 O   0  0  0  0  0  0  0  0  0  0  0  0
    8.9362   11.5478    4.4042 O   0  0  0  0  0  0  0  0  0  0  0  0
   11.2681    6.9603    2.6260 N   0  0  0  0  0  0  0  0  0  0  0  0
    3.0168   10.4965    4.4987 N   0  0  0  0  0  0  0  0  0  0  0  0
    9.5070    9.5092    3.1464 N   0  0  0  0  0  0  0  0  0  0  0  0
    9.8775    7.0421    3.1648 C   0  0  0  0  0  0  0  0  0  0  0  0
   12.1161    8.1554    2.9116 C   0  0  0  0  0  0  0  0  0  0  0  0
    4.0565   10.5529    5.3436 C   0  0  0  0  0  0  0  0  0  0  0  0
    3.2813   10.5092    3.1962 C   0  0  0  0  0  0  0  0  0  0  0  0
    9.1079    8.2053    2.5895 C   0  0  0  0  0  0  0  0  0  0  0  0
   10.6210   10.2603    2.5412 C   0  0  0  0  0  0  0  0  0  0  0  0
   11.7529    9.3588    2.0617 C   0  0  0  0  0  0  0  0  0  0  0  0
    6.1309   10.5552    0.7940 C   0  0  0  0  0  0  0  0  0  0  0  0
    5.3627   10.5666    4.9497 C   0  0  0  0  0  0  0  0  0  0  0  0
    7.2030   10.5083    1.6717 C   0  0  0  0  0  0  0  0  0  0  0  0
    4.8507   10.5666    1.2599 C   0  0  0  0  0  0  0  0  0  0  0  0
    6.9867   10.4860    3.0238 C   0  0  0  0  0  0  0  0  0  0  0  0
    4.5847   10.5492    2.6528 C   0  0  0  0  0  0  0  0  0  0  0  0
    5.6696   10.5442    3.5683 C   0  0  0  0  0  0  0  0  0  0  0  0
   11.2122    6.8473    1.6339 H   0  0  0  0  0  0  0  0  0  0  0  0
    9.9232    7.1465    4.1582 H   0  0  0  0  0  0  0  0  0  0  0  0
    9.3954    6.1951    2.9404 H   0  0  0  0  0  0  0  0  0  0  0  0
   13.0712    7.9176    2.7352 H   0  0  0  0  0  0  0  0  0  0  0  0
   12.0061    8.4010    3.8747 H   0  0  0  0  0  0  0  0  0  0  0  0
    3.8622   10.5872    6.3239 H   0  0  0  0  0  0  0  0  0  0  0  0
    2.5092   10.4892    2.5610 H   0  0  0  0  0  0  0  0  0  0  0  0
    9.2567    8.2249    1.6008 H   0  0  0  0  0  0  0  0  0  0  0  0
    8.1358    8.0653    2.7777 H   0  0  0  0  0  0  0  0  0  0  0  0
   10.9854   10.8950    3.2226 H   0  0  0  0  0  0  0  0  0  0  0  0
   10.2706   10.7759    1.7592 H   0  0  0  0  0  0  0  0  0  0  0  0
   11.4979    9.0175    1.1570 H   0  0  0  0  0  0  0  0  0  0  0  0
   12.5726    9.9265    1.9849 H   0  0  0  0  0  0  0  0  0  0  0  0
    6.2990   10.5810   -0.1915 H   0  0  0  0  0  0  0  0  0  0  0  0
    6.0954   10.5922    5.6298 H   0  0  0  0  0  0  0  0  0  0  0  0
    8.1376   10.4907    1.3163 H   0  0  0  0  0  0  0  0  0  0  0  0
    4.0893   10.5874    0.6119 H   0  0  0  0  0  0  0  0  0  0  0  0
  1  2  2  0  0  0  0
  1  3  2  0  0  0  0
  1  6  1  0  0  0  0
  1 18  1  0  0  0  0
  4  7  1  0  0  0  0
  4  8  1  0  0  0  0
  5  9  2  0  0  0  0
  5 10  1  0  0  0  0
  6 11  1  0  0  0  0
  6 12  1  0  0  0  0
  7 11  1  0  0  0  0
  8 13  1  0  0  0  0
  9 15  1  0  0  0  0
 10 19  2  0  0  0  0
 12 13  1  0  0  0  0
 14 16  1  0  0  0  0
 14 17  2  0  0  0  0
 15 20  2  0  0  0  0
 16 18  2  0  0  0  0
 17 19  1  0  0  0  0
 18 20  1  0  0  0  0
 19 20  1  0  0  0  0
  4 21  1  0  0  0  0
  7 22  1  0  0  0  0
  7 23  1  0  0  0  0
  8 24  1  0  0  0  0
  8 25  1  0  0  0  0
  9 26  1  0  0  0  0
 10 27  1  0  0  0  0
 11 28  1  0  0  0  0
 11 29  1  0  0  0  0
 12 30  1  0  0  0  0
 12 31  1  0  0  0  0
 13 32  1  0  0  0  0
 13 33  1  0  0  0  0
 14 34  1  0  0  0  0
 15 35  1  0  0  0  0
 16 36  1  0  0  0  0
 17 37  1  0  0  0  0
M  END
> <pdb_id>
5LCP

> <uniprot_id>
P25321

> <usmiles>
S(=O)(=O)(N1CCNCCC1)c2c3c(cncc3)ccc2

$$$$
M77_A_418
          07192420493D 1   1.00000     0.00000     0
            
 37 39  0  0  0  0            999 V2000
   16.3905    1.5752   29.5572 S   0  0  0  0  0  0  0  0  0  0  0  0
   17.2484    0.7904   30.3494 O   0  0  0  0  0  0  0  0  0  0  0  0
   15.4843    2.1272   30.4144 O   0  0  0  0  0  0  0  0  0  0  0  0
   19.9495    3.0637   28.9742 N   0  0  0  0  0  0  0  0  0  0  0  0
   14.0243   -2.9322   29.4346 N   0  0  0  0  0  0  0  0  0  0  0  0
   17.2845    2.5857   29.0897 N   0  0  0  0  0  0  0  0  0  0  0  0
   19.2960    2.0736   28.1555 C   0  0  0  0  0  0  0  0  0  0  0  0
   19.1274    3.5643   30.0526 C   0  0  0  0  0  0  0  0  0  0  0  0
   14.6061   -2.2613   30.3765 C   0  0  0  0  0  0  0  0  0  0  0  0
   13.9271   -2.4949   28.2136 C   0  0  0  0  0  0  0  0  0  0  0  0
   17.9132    2.5134   27.8053 C   0  0  0  0  0  0  0  0  0  0  0  0
   16.8329    3.9183   29.1775 C   0  0  0  0  0  0  0  0  0  0  0  0
   18.1275    4.5967   29.5416 C   0  0  0  0  0  0  0  0  0  0  0  0
   14.8907    0.3490   26.2234 C   0  0  0  0  0  0  0  0  0  0  0  0
   15.1474   -1.0590   30.0557 C   0  0  0  0  0  0  0  0  0  0  0  0
   15.5249    1.1169   27.1534 C   0  0  0  0  0  0  0  0  0  0  0  0
   14.3534   -0.8649   26.5739 C   0  0  0  0  0  0  0  0  0  0  0  0
   15.6099    0.6599   28.4352 C   0  0  0  0  0  0  0  0  0  0  0  0
   14.4476   -1.3013   27.8524 C   0  0  0  0  0  0  0  0  0  0  0  0
   15.0681   -0.5577   28.7798 C   0  0  0  0  0  0  0  0  0  0  0  0
   20.2081    3.8339   28.3912 H   0  0  0  0  0  0  0  0  0  0  0  0
   19.2493    1.2102   28.6579 H   0  0  0  0  0  0  0  0  0  0  0  0
   19.8221    1.9423   27.3153 H   0  0  0  0  0  0  0  0  0  0  0  0
   19.7145    3.9902   30.7411 H   0  0  0  0  0  0  0  0  0  0  0  0
   18.6288    2.8020   30.4652 H   0  0  0  0  0  0  0  0  0  0  0  0
   14.6551   -2.6172   31.3097 H   0  0  0  0  0  0  0  0  0  0  0  0
   13.4580   -3.0527   27.5288 H   0  0  0  0  0  0  0  0  0  0  0  0
   17.9198    3.4057   27.3541 H   0  0  0  0  0  0  0  0  0  0  0  0
   17.4585    1.8453   27.2162 H   0  0  0  0  0  0  0  0  0  0  0  0
   16.1397    4.0310   29.8894 H   0  0  0  0  0  0  0  0  0  0  0  0
   16.4716    4.2479   28.3052 H   0  0  0  0  0  0  0  0  0  0  0  0
   18.5029    5.0505   28.7335 H   0  0  0  0  0  0  0  0  0  0  0  0
   17.9569    5.2753   30.2561 H   0  0  0  0  0  0  0  0  0  0  0  0
   14.8162    0.6716   25.2798 H   0  0  0  0  0  0  0  0  0  0  0  0
   15.6134   -0.5273   30.7628 H   0  0  0  0  0  0  0  0  0  0  0  0
   15.9208    1.9997   26.9004 H   0  0  0  0  0  0  0  0  0  0  0  0
   13.8931   -1.4260   25.8859 H   0  0  0  0  0  0  0  0  0  0  0  0
  1  2  2  0  0  0  0
  1  3  2  0  0  0  0
  1  6  1  0  0  0  0
  1 18  1  0  0  0  0
  4  7  1  0  0  0  0
  4  8  1  0  0  0  0
  5  9  2  0  0  0  0
  5 10  1  0  0  0  0
  6 11  1  0  0  0  0
  6 12  1  0  0  0  0
  7 11  1  0  0  0  0
  8 13  1  0  0  0  0
  9 15  1  0  0  0  0
 10 19  2  0  0  0  0
 12 13  1  0  0  0  0
 14 16  1  0  0  0  0
 14 17  2  0  0  0  0
 15 20  2  0  0  0  0
 16 18  2  0  0  0  0
 17 19  1  0  0  0  0
 18 20  1  0  0  0  0
 19 20  1  0  0  0  0
  4 21  1  0  0  0  0
  7 22  1  0  0  0  0
  7 23  1  0  0  0  0
  8 24  1  0  0  0  0
  8 25  1  0  0  0  0
  9 26  1  0  0  0  0
 10 27  1  0  0  0  0
 11 28  1  0  0  0  0
 11 29  1  0  0  0  0
 12 30  1  0  0  0  0
 12 31  1  0  0  0  0
 13 32  1  0  0  0  0
 13 33  1  0  0  0  0
 14 34  1  0  0  0  0
 15 35  1  0  0  0  0
 16 36  1  0  0  0  0
 17 37  1  0  0  0  0
M  END
> <pdb_id>
3TKU

> <uniprot_id>
Q9Y5S2

> <usmiles>
S(=O)(=O)(N1CCNCCC1)c2c3c(cncc3)ccc2

$$$$
M7D_A_401
          07202405583D 1   1.00000     0.00000     0
            
 46 49  0  0  0  0            999 V2000
   70.1412   50.2259   10.6666 F   0  0  0  0  0  0  0  0  0  0  0  0
   73.1908   46.9541    6.0827 O   0  0  0  0  0  0  0  0  0  0  0  0
   71.6701   44.1281   -0.6166 N   0  0  0  0  0  0  0  0  0  0  0  0
   65.5838   48.3577    6.3708 N   0  0  0  0  0  0  0  0  0  0  0  0
   71.0543   46.8510    3.3115 N   0  0  0  0  0  0  0  0  0  0  0  0
   71.0771   47.8589    5.7528 N   0  0  0  0  0  0  0  0  0  0  0  0
   67.0216   49.6023    7.7389 N   0  0  0  0  0  0  0  0  0  0  0  0
   66.9221   47.6815    9.7373 N   0  0  0  0  0  0  0  0  0  0  0  0
   67.8507   51.2615    9.2846 C   0  0  0  0  0  0  0  0  0  0  0  0
   71.7640   44.6346    0.4234 C   0  0  0  0  0  0  0  0  0  0  0  0
   70.9850   46.2274    2.1135 C   0  0  0  0  0  0  0  0  0  0  0  0
   66.9402   46.5404   10.4714 C   0  0  0  0  0  0  0  0  0  0  0  0
   67.3062   49.0131   10.1445 C   0  0  0  0  0  0  0  0  0  0  0  0
   66.4883   45.5285    9.6508 C   0  0  0  0  0  0  0  0  0  0  0  0
   71.6829   49.2897    9.1316 C   0  0  0  0  0  0  0  0  0  0  0  0
   71.9374   48.6950    7.8941 C   0  0  0  0  0  0  0  0  0  0  0  0
   66.1921   46.0982    8.3862 C   0  0  0  0  0  0  0  0  0  0  0  0
   73.0212   45.5082    3.8066 C   0  0  0  0  0  0  0  0  0  0  0  0
   72.9203   44.8904    2.5632 C   0  0  0  0  0  0  0  0  0  0  0  0
   69.5821   48.8188    7.3598 C   0  0  0  0  0  0  0  0  0  0  0  0
   72.1785   47.1151    5.4207 C   0  0  0  0  0  0  0  0  0  0  0  0
   70.3795   49.6490    9.4786 C   0  0  0  0  0  0  0  0  0  0  0  0
   66.3562   48.5097    7.4873 C   0  0  0  0  0  0  0  0  0  0  0  0
   70.8835   48.4529    7.0103 C   0  0  0  0  0  0  0  0  0  0  0  0
   72.0708   46.4665    4.1145 C   0  0  0  0  0  0  0  0  0  0  0  0
   66.4718   47.4477    8.4662 C   0  0  0  0  0  0  0  0  0  0  0  0
   71.8863   45.2544    1.7031 C   0  0  0  0  0  0  0  0  0  0  0  0
   69.3257   49.4163    8.5949 C   0  0  0  0  0  0  0  0  0  0  0  0
   67.8785   49.7980    8.9381 C   0  0  1  0  0  0  0  0  0  0  0  0
   65.0899   47.5018    6.2172 H   0  0  0  0  0  0  0  0  0  0  0  0
   65.5122   49.1022    5.7071 H   0  0  0  0  0  0  0  0  0  0  0  0
   70.3688   47.9863    5.0584 H   0  0  0  0  0  0  0  0  0  0  0  0
   68.4202   51.4242   10.0903 H   0  0  0  0  0  0  0  0  0  0  0  0
   68.2030   51.7931    8.5144 H   0  0  0  0  0  0  0  0  0  0  0  0
   66.9102   51.5401    9.4794 H   0  0  0  0  0  0  0  0  0  0  0  0
   70.2453   46.4807    1.4900 H   0  0  0  0  0  0  0  0  0  0  0  0
   67.2265   46.4504   11.4253 H   0  0  0  0  0  0  0  0  0  0  0  0
   68.0031   48.9517   10.8591 H   0  0  0  0  0  0  0  0  0  0  0  0
   66.5048   49.4935   10.5009 H   0  0  0  0  0  0  0  0  0  0  0  0
   66.3875   44.5659    9.9022 H   0  0  0  0  0  0  0  0  0  0  0  0
   72.4346   49.4582    9.7693 H   0  0  0  0  0  0  0  0  0  0  0  0
   72.8716   48.4433    7.6414 H   0  0  0  0  0  0  0  0  0  0  0  0
   65.8446   45.6119    7.5844 H   0  0  0  0  0  0  0  0  0  0  0  0
   73.7490   45.2700    4.4498 H   0  0  0  0  0  0  0  0  0  0  0  0
   73.5828   44.1929    2.2902 H   0  0  0  0  0  0  0  0  0  0  0  0
   68.8301   48.6521    6.7220 H   0  0  0  0  0  0  0  0  0  0  0  0
  1 22  1  0  0  0  0
  2 21  2  0  0  0  0
  3 10  3  0  0  0  0
  4 23  1  0  0  0  0
  5 11  1  0  0  0  0
  5 25  2  0  0  0  0
  6 21  1  0  0  0  0
  6 24  1  0  0  0  0
  7 23  2  0  0  0  0
  7 29  1  0  0  0  0
  8 12  1  0  0  0  0
  8 13  1  0  0  0  0
  8 26  1  0  0  0  0
  9 29  1  0  0  0  0
 10 27  1  0  0  0  0
 11 27  2  0  0  0  0
 12 14  2  0  0  0  0
 13 29  1  0  0  0  0
 14 17  1  0  0  0  0
 15 16  1  0  0  0  0
 15 22  2  0  0  0  0
 16 24  2  0  0  0  0
 17 26  2  0  0  0  0
 18 19  2  0  0  0  0
 18 25  1  0  0  0  0
 19 27  1  0  0  0  0
 20 24  1  0  0  0  0
 20 28  2  0  0  0  0
 21 25  1  0  0  0  0
 22 28  1  0  0  0  0
 23 26  1  0  0  0  0
 28 29  1  0  0  0  0
  4 30  1  0  0  0  0
  4 31  1  0  0  0  0
  6 32  1  0  0  0  0
  9 33  1  0  0  0  0
  9 34  1  0  0  0  0
  9 35  1  0  0  0  0
 11 36  1  0  0  0  0
 12 37  1  0  0  0  0
 13 38  1  0  0  0  0
 13 39  1  0  0  0  0
 14 40  1  0  0  0  0
 15 41  1  0  0  0  0
 16 42  1  0  0  0  0
 17 43  1  0  0  0  0
 18 44  1  0  0  0  0
 19 45  1  0  0  0  0
 20 46  1  0  0  0  0
M  END
> <pdb_id>
6OD6

> <uniprot_id>
P56817

> <usmiles>
Fc1c(cc(NC(=O)c2ncc(C#N)cc2)cc1)[C@]3(N=C(N)C=4N(C=CC4)C3)C

$$$$
M87_B_800
          07192423083D 1   1.00000     0.00000     0
            
 40 42  0  0  0  0            999 V2000
   17.7038   14.7207   39.4147 F   0  0  0  0  0  0  0  0  0  0  0  0
    5.2273   11.9448   31.9035 N   0  0  0  0  0  0  0  0  0  0  0  0
   12.0011   13.7381   35.8595 N   0  0  0  0  0  0  0  0  0  0  0  0
    7.2846   12.5334   32.8425 N   0  0  0  0  0  0  0  0  0  0  0  0
   13.0449   14.6345   36.3404 C   0  0  0  0  0  0  0  0  0  0  0  0
   15.4034   17.4350   38.6881 C   0  0  0  0  0  0  0  0  0  0  0  0
   11.3683   14.1205   34.6587 C   0  0  0  0  0  0  0  0  0  0  0  0
   16.5807   16.7891   39.0779 C   0  0  0  0  0  0  0  0  0  0  0  0
   13.2255   14.3760   37.8303 C   0  0  0  0  0  0  0  0  0  0  0  0
   14.2942   16.6567   38.2988 C   0  0  0  0  0  0  0  0  0  0  0  0
    7.1262   10.5359   31.4295 C   0  0  0  0  0  0  0  0  0  0  0  0
   11.3006   11.8914   33.3846 C   0  0  0  0  0  0  0  0  0  0  0  0
    8.4729   10.2668   31.5976 C   0  0  0  0  0  0  0  0  0  0  0  0
   10.5977   10.9982   32.5910 C   0  0  0  0  0  0  0  0  0  0  0  0
   15.5580   14.6237   38.6712 C   0  0  0  0  0  0  0  0  0  0  0  0
    9.3515   13.2526   33.6352 C   0  0  0  0  0  0  0  0  0  0  0  0
   16.6227   15.3948   39.0615 C   0  0  0  0  0  0  0  0  0  0  0  0
    6.5525   11.6933   32.0453 C   0  0  0  0  0  0  0  0  0  0  0  0
   10.6779   13.0524   33.8742 C   0  0  0  0  0  0  0  0  0  0  0  0
   14.3802   15.2461   38.2973 C   0  0  0  0  0  0  0  0  0  0  0  0
    8.6160   12.2962   32.9575 C   0  0  0  0  0  0  0  0  0  0  0  0
    9.2318   11.1884   32.3625 C   0  0  0  0  0  0  0  0  0  0  0  0
    4.6644   11.3509   31.3287 H   0  0  0  0  0  0  0  0  0  0  0  0
    4.8132   12.7242   32.3738 H   0  0  0  0  0  0  0  0  0  0  0  0
   11.2997   13.6753   36.5694 H   0  0  0  0  0  0  0  0  0  0  0  0
   12.7736   15.5852   36.1900 H   0  0  0  0  0  0  0  0  0  0  0  0
   13.9008   14.4516   35.8567 H   0  0  0  0  0  0  0  0  0  0  0  0
   15.3490   18.4336   38.6856 H   0  0  0  0  0  0  0  0  0  0  0  0
   12.0665   14.5234   34.0669 H   0  0  0  0  0  0  0  0  0  0  0  0
   10.6849   14.8137   34.8875 H   0  0  0  0  0  0  0  0  0  0  0  0
   17.3797   17.3181   39.3638 H   0  0  0  0  0  0  0  0  0  0  0  0
   13.4370   13.4114   37.9881 H   0  0  0  0  0  0  0  0  0  0  0  0
   12.3908   14.6193   38.3244 H   0  0  0  0  0  0  0  0  0  0  0  0
   13.4436   17.1043   38.0227 H   0  0  0  0  0  0  0  0  0  0  0  0
    6.5565    9.9245   30.8802 H   0  0  0  0  0  0  0  0  0  0  0  0
   12.2574   11.7084   33.6104 H   0  0  0  0  0  0  0  0  0  0  0  0
    8.8945    9.4541   31.1955 H   0  0  0  0  0  0  0  0  0  0  0  0
   11.0685   10.2167   32.1814 H   0  0  0  0  0  0  0  0  0  0  0  0
   15.6318   13.6265   38.6570 H   0  0  0  0  0  0  0  0  0  0  0  0
    8.9088   14.0922   33.9501 H   0  0  0  0  0  0  0  0  0  0  0  0
  1 17  1  0  0  0  0
  2 18  1  0  0  0  0
  3  5  1  0  0  0  0
  3  7  1  0  0  0  0
  4 18  2  0  0  0  0
  4 21  1  0  0  0  0
  5  9  1  0  0  0  0
  6  8  2  0  0  0  0
  6 10  1  0  0  0  0
  7 19  1  0  0  0  0
  8 17  1  0  0  0  0
  9 20  1  0  0  0  0
 10 20  2  0  0  0  0
 11 13  2  0  0  0  0
 11 18  1  0  0  0  0
 12 14  1  0  0  0  0
 12 19  2  0  0  0  0
 13 22  1  0  0  0  0
 14 22  2  0  0  0  0
 15 17  2  0  0  0  0
 15 20  1  0  0  0  0
 16 19  1  0  0  0  0
 16 21  2  0  0  0  0
 21 22  1  0  0  0  0
  2 23  1  0  0  0  0
  2 24  1  0  0  0  0
  3 25  1  0  0  0  0
  5 26  1  0  0  0  0
  5 27  1  0  0  0  0
  6 28  1  0  0  0  0
  7 29  1  0  0  0  0
  7 30  1  0  0  0  0
  8 31  1  0  0  0  0
  9 32  1  0  0  0  0
  9 33  1  0  0  0  0
 10 34  1  0  0  0  0
 11 35  1  0  0  0  0
 12 36  1  0  0  0  0
 13 37  1  0  0  0  0
 14 38  1  0  0  0  0
 15 39  1  0  0  0  0
 16 40  1  0  0  0  0
M  END
> <pdb_id>
4CAR

> <uniprot_id>
P29473

> <usmiles>
Fc1cc(ccc1)CCNCc2cc3nc(N)ccc3cc2

$$$$
M8S_A_302
          07192416293D 1   1.00000     0.00000     0
            
 49 51  0  0  0  0            999 V2000
   -5.9219    0.9816   16.9044 S   0  0  0  0  0  0  0  0  0  0  0  0
   -5.4887    1.0612   18.2644 O   0  0  0  0  0  0  0  0  0  0  0  0
   -7.3842    1.0680   16.8019 O   0  0  0  0  0  0  0  0  0  0  0  0
   -4.5748    5.6197    9.6036 O   0  0  0  0  0  0  0  0  0  0  0  0
   -6.2438    6.3018   12.6284 O   0  0  0  0  0  0  0  0  0  0  0  0
   -5.8641    9.7745   11.1587 O   0  0  0  0  0  0  0  0  0  0  0  0
   -5.3085   -0.4226   16.2566 N   0  0  0  0  0  0  0  0  0  0  0  0
   -4.2219    5.6781   13.6456 N   0  0  0  0  0  0  0  0  0  0  0  0
   -5.9764    7.2976    8.8041 N   0  0  0  0  0  0  0  0  0  0  0  0
   -4.9229    7.6968   10.6746 N   0  0  0  0  0  0  0  0  0  0  0  0
   -9.1866    9.9914    7.7070 C   0  0  0  0  0  0  0  0  0  0  0  0
   -8.0347   10.7514    7.1201 C   0  0  0  0  0  0  0  0  0  0  0  0
   -8.7529    8.5898    8.0563 C   0  0  0  0  0  0  0  0  0  0  0  0
   -6.8339   10.9268    8.0151 C   0  0  0  0  0  0  0  0  0  0  0  0
   -4.2228    7.4043   11.9139 C   0  0  0  0  0  0  0  0  0  0  0  0
   -4.0681    2.4669   15.5406 C   0  0  0  0  0  0  0  0  0  0  0  0
   -6.2644    3.3541   15.6419 C   0  0  0  0  0  0  0  0  0  0  0  0
   -3.6952    3.5853   14.7866 C   0  0  0  0  0  0  0  0  0  0  0  0
   -5.9164    4.4494   14.8938 C   0  0  0  0  0  0  0  0  0  0  0  0
   -7.9113    8.5026    9.3139 C   0  0  0  0  0  0  0  0  0  0  0  0
   -5.9647    9.7058    8.1796 C   0  0  0  0  0  0  0  0  0  0  0  0
   -5.1106    6.7241    9.7028 C   0  0  0  0  0  0  0  0  0  0  0  0
   -5.0290    6.4006   12.7682 C   0  0  0  0  0  0  0  0  0  0  0  0
   -5.3688    2.3788   15.9638 C   0  0  0  0  0  0  0  0  0  0  0  0
   -5.7447    8.7851   10.4488 C   0  0  0  0  0  0  0  0  0  0  0  0
   -4.6278    4.5545   14.4537 C   0  0  0  0  0  0  0  0  0  0  0  0
   -6.4277    8.6278    9.1417 C   0  0  0  0  0  0  0  0  0  0  0  0
   -5.5972   -0.5036   15.3026 H   0  0  0  0  0  0  0  0  0  0  0  0
   -4.3097   -0.4022   16.3020 H   0  0  0  0  0  0  0  0  0  0  0  0
   -3.2677    5.9672   13.7223 H   0  0  0  0  0  0  0  0  0  0  0  0
   -6.2738    6.8269    7.9735 H   0  0  0  0  0  0  0  0  0  0  0  0
   -9.9313    9.9516    7.0408 H   0  0  0  0  0  0  0  0  0  0  0  0
   -9.5035   10.4560    8.5339 H   0  0  0  0  0  0  0  0  0  0  0  0
   -8.3647   11.6614    6.8691 H   0  0  0  0  0  0  0  0  0  0  0  0
   -7.7355   10.2669    6.2981 H   0  0  0  0  0  0  0  0  0  0  0  0
   -8.2178    8.2265    7.2936 H   0  0  0  0  0  0  0  0  0  0  0  0
   -9.5714    8.0300    8.1857 H   0  0  0  0  0  0  0  0  0  0  0  0
   -7.1611   11.1967    8.9207 H   0  0  0  0  0  0  0  0  0  0  0  0
   -6.2690   11.6583    7.6332 H   0  0  0  0  0  0  0  0  0  0  0  0
   -4.1002    8.2518   12.4303 H   0  0  0  0  0  0  0  0  0  0  0  0
   -3.3282    7.0111   11.7013 H   0  0  0  0  0  0  0  0  0  0  0  0
   -3.4048    1.7527   15.7642 H   0  0  0  0  0  0  0  0  0  0  0  0
   -7.2078    3.2681   15.9622 H   0  0  0  0  0  0  0  0  0  0  0  0
   -2.7470    3.6859   14.4853 H   0  0  0  0  0  0  0  0  0  0  0  0
   -6.5906    5.1549   14.6756 H   0  0  0  0  0  0  0  0  0  0  0  0
   -8.0932    7.6161    9.7392 H   0  0  0  0  0  0  0  0  0  0  0  0
   -8.2077    9.2340    9.9280 H   0  0  0  0  0  0  0  0  0  0  0  0
   -5.0680   10.0188    8.4925 H   0  0  0  0  0  0  0  0  0  0  0  0
   -5.8740    9.2815    7.2786 H   0  0  0  0  0  0  0  0  0  0  0  0
  1  2  2  0  0  0  0
  1  3  2  0  0  0  0
  1  7  1  0  0  0  0
  1 24  1  0  0  0  0
  4 22  2  0  0  0  0
  5 23  2  0  0  0  0
  6 25  2  0  0  0  0
  8 23  1  0  0  0  0
  8 26  1  0  0  0  0
  9 22  1  0  0  0  0
  9 27  1  0  0  0  0
 10 15  1  0  0  0  0
 10 22  1  0  0  0  0
 10 25  1  0  0  0  0
 11 12  1  0  0  0  0
 11 13  1  0  0  0  0
 12 14  1  0  0  0  0
 13 20  1  0  0  0  0
 14 21  1  0  0  0  0
 15 23  1  0  0  0  0
 16 18  1  0  0  0  0
 16 24  2  0  0  0  0
 17 19  2  0  0  0  0
 17 24  1  0  0  0  0
 18 26  2  0  0  0  0
 19 26  1  0  0  0  0
 20 27  1  0  0  0  0
 21 27  1  0  0  0  0
 25 27  1  0  0  0  0
  7 28  1  0  0  0  0
  7 29  1  0  0  0  0
  8 30  1  0  0  0  0
  9 31  1  0  0  0  0
 11 32  1  0  0  0  0
 11 33  1  0  0  0  0
 12 34  1  0  0  0  0
 12 35  1  0  0  0  0
 13 36  1  0  0  0  0
 13 37  1  0  0  0  0
 14 38  1  0  0  0  0
 14 39  1  0  0  0  0
 15 40  1  0  0  0  0
 15 41  1  0  0  0  0
 16 42  1  0  0  0  0
 17 43  1  0  0  0  0
 18 44  1  0  0  0  0
 19 45  1  0  0  0  0
 20 46  1  0  0  0  0
 20 47  1  0  0  0  0
 21 48  1  0  0  0  0
 21 49  1  0  0  0  0
M  END
> <pdb_id>
6OE0

> <uniprot_id>
P00918

> <usmiles>
S(=O)(=O)(N)c1ccc(NC(=O)CN2C(=O)NC3(C2=O)CCCCCC3)cc1

$$$$
M8V_A_303
          07192416293D 1   1.00000     0.00000     0
            
 46 48  0  0  0  0            999 V2000
   -5.8846    0.9899   16.7959 S   0  0  0  0  0  0  0  0  0  0  0  0
   -5.3406    1.1455   18.1339 O   0  0  0  0  0  0  0  0  0  0  0  0
   -7.3075    1.1274   16.6481 O   0  0  0  0  0  0  0  0  0  0  0  0
   -1.8911    9.7637   13.3806 O   0  0  0  0  0  0  0  0  0  0  0  0
   -4.8131    6.7016   13.1089 O   0  0  0  0  0  0  0  0  0  0  0  0
   -4.1118    7.6240   10.0193 O   0  0  0  0  0  0  0  0  0  0  0  0
   -5.3920   -0.4316   16.1845 N   0  0  0  0  0  0  0  0  0  0  0  0
   -3.1131    5.2189   13.6151 N   0  0  0  0  0  0  0  0  0  0  0  0
   -3.2445   10.4667   11.6377 N   0  0  0  0  0  0  0  0  0  0  0  0
   -2.8843    8.3578   11.8421 N   0  0  0  0  0  0  0  0  0  0  0  0
   -5.4240   12.1167    9.2341 C   0  0  0  0  0  0  0  0  0  0  0  0
   -5.9243   11.5941   10.5856 C   0  0  0  0  0  0  0  0  0  0  0  0
   -3.8965   11.9287    9.0480 C   0  0  0  0  0  0  0  0  0  0  0  0
   -2.4604    7.0345   12.3537 C   0  0  0  0  0  0  0  0  0  0  0  0
   -3.7862    2.2463   15.5248 C   0  0  0  0  0  0  0  0  0  0  0  0
   -5.9374    3.3579   15.3774 C   0  0  0  0  0  0  0  0  0  0  0  0
   -3.1564    3.2440   14.8181 C   0  0  0  0  0  0  0  0  0  0  0  0
   -5.2985    4.3678   14.6198 C   0  0  0  0  0  0  0  0  0  0  0  0
   -5.5788   10.1152   10.7659 C   0  0  0  0  0  0  0  0  0  0  0  0
   -3.5939   10.4359    9.1602 C   0  0  0  0  0  0  0  0  0  0  0  0
   -2.5875    9.5743   12.3943 C   0  0  0  0  0  0  0  0  0  0  0  0
   -3.6507    6.3260   13.1170 C   0  0  0  0  0  0  0  0  0  0  0  0
   -5.1358    2.2892   15.8439 C   0  0  0  0  0  0  0  0  0  0  0  0
   -3.6899    8.5025   10.7492 C   0  0  0  0  0  0  0  0  0  0  0  0
   -3.9290    4.2768   14.3456 C   0  0  0  0  0  0  0  0  0  0  0  0
   -4.0643    9.9463   10.5588 C   0  0  0  0  0  0  0  0  0  0  0  0
   -5.7634   -0.5447   15.2629 H   0  0  0  0  0  0  0  0  0  0  0  0
   -4.3929   -0.4496   16.1458 H   0  0  0  0  0  0  0  0  0  0  0  0
   -2.1387    5.0363   13.4840 H   0  0  0  0  0  0  0  0  0  0  0  0
   -3.1723   11.4491   11.8099 H   0  0  0  0  0  0  0  0  0  0  0  0
   -5.6366   13.0917    9.1696 H   0  0  0  0  0  0  0  0  0  0  0  0
   -5.8982   11.6232    8.5049 H   0  0  0  0  0  0  0  0  0  0  0  0
   -6.9170   11.7056   10.6317 H   0  0  0  0  0  0  0  0  0  0  0  0
   -5.4952   12.1215   11.3189 H   0  0  0  0  0  0  0  0  0  0  0  0
   -3.4028   12.4305    9.7583 H   0  0  0  0  0  0  0  0  0  0  0  0
   -3.6193   12.2655    8.1481 H   0  0  0  0  0  0  0  0  0  0  0  0
   -1.6925    7.1559   12.9827 H   0  0  0  0  0  0  0  0  0  0  0  0
   -2.1749    6.4612   11.5857 H   0  0  0  0  0  0  0  0  0  0  0  0
   -3.2489    1.4566   15.8209 H   0  0  0  0  0  0  0  0  0  0  0  0
   -6.9168    3.3979   15.5753 H   0  0  0  0  0  0  0  0  0  0  0  0
   -2.1703    3.2185   14.6541 H   0  0  0  0  0  0  0  0  0  0  0  0
   -5.8256    5.1468   14.2801 H   0  0  0  0  0  0  0  0  0  0  0  0
   -6.0756    9.5671   10.0930 H   0  0  0  0  0  0  0  0  0  0  0  0
   -5.8295    9.8190   11.6876 H   0  0  0  0  0  0  0  0  0  0  0  0
   -2.6109   10.2818    9.0610 H   0  0  0  0  0  0  0  0  0  0  0  0
   -4.0834    9.9370    8.4450 H   0  0  0  0  0  0  0  0  0  0  0  0
  1  2  2  0  0  0  0
  1  3  2  0  0  0  0
  1  7  1  0  0  0  0
  1 23  1  0  0  0  0
  4 21  2  0  0  0  0
  5 22  2  0  0  0  0
  6 24  2  0  0  0  0
  8 22  1  0  0  0  0
  8 25  1  0  0  0  0
  9 21  1  0  0  0  0
  9 26  1  0  0  0  0
 10 14  1  0  0  0  0
 10 21  1  0  0  0  0
 10 24  1  0  0  0  0
 11 12  1  0  0  0  0
 11 13  1  0  0  0  0
 12 19  1  0  0  0  0
 13 20  1  0  0  0  0
 14 22  1  0  0  0  0
 15 17  1  0  0  0  0
 15 23  2  0  0  0  0
 16 18  2  0  0  0  0
 16 23  1  0  0  0  0
 17 25  2  0  0  0  0
 18 25  1  0  0  0  0
 19 26  1  0  0  0  0
 20 26  1  0  0  0  0
 24 26  1  0  0  0  0
  7 27  1  0  0  0  0
  7 28  1  0  0  0  0
  8 29  1  0  0  0  0
  9 30  1  0  0  0  0
 11 31  1  0  0  0  0
 11 32  1  0  0  0  0
 12 33  1  0  0  0  0
 12 34  1  0  0  0  0
 13 35  1  0  0  0  0
 13 36  1  0  0  0  0
 14 37  1  0  0  0  0
 14 38  1  0  0  0  0
 15 39  1  0  0  0  0
 16 40  1  0  0  0  0
 17 41  1  0  0  0  0
 18 42  1  0  0  0  0
 19 43  1  0  0  0  0
 19 44  1  0  0  0  0
 20 45  1  0  0  0  0
 20 46  1  0  0  0  0
M  END
> <pdb_id>
6OE1

> <uniprot_id>
P00918

> <usmiles>
S(=O)(=O)(N)c1ccc(NC(=O)CN2C(=O)NC3(C2=O)CCCCC3)cc1

$$$$
MAJ_A_800
          07192416293D 1   1.00000     0.00000     0
            
 24 25  0  0  0  0            999 V2000
   -5.8171    0.9890   16.8388 S   0  0  0  0  0  0  0  0  0  0  0  0
   -7.2315    1.0438   16.6301 O   0  0  0  0  0  0  0  0  0  0  0  0
   -5.3023    1.1254   18.1673 O   0  0  0  0  0  0  0  0  0  0  0  0
   -5.2711   -0.3622   16.2871 N   0  0  0  0  0  0  0  0  0  0  0  0
   -4.7239    6.2565   13.3055 C   0  0  0  0  0  0  0  0  0  0  0  0
   -3.5015    5.5554   13.6424 C   0  0  0  0  0  0  0  0  0  0  0  0
   -5.8335    5.6406   14.0936 C   0  0  0  0  0  0  0  0  0  0  0  0
   -3.6854    2.2610   15.6136 C   0  0  0  0  0  0  0  0  0  0  0  0
   -3.0916    3.3059   14.8698 C   0  0  0  0  0  0  0  0  0  0  0  0
   -5.8769    3.3698   15.4353 C   0  0  0  0  0  0  0  0  0  0  0  0
   -5.0865    2.3105   15.8839 C   0  0  0  0  0  0  0  0  0  0  0  0
   -3.8719    4.3562   14.4272 C   0  0  0  0  0  0  0  0  0  0  0  0
   -5.2650    4.4177   14.6846 C   0  0  0  0  0  0  0  0  0  0  0  0
   -4.2824   -0.4058   16.4305 H   0  0  0  0  0  0  0  0  0  0  0  0
   -5.7113   -1.1207   16.7676 H   0  0  0  0  0  0  0  0  0  0  0  0
   -4.9100    6.1657   12.3272 H   0  0  0  0  0  0  0  0  0  0  0  0
   -4.6367    7.2248   13.5398 H   0  0  0  0  0  0  0  0  0  0  0  0
   -2.9077    6.1483   14.1863 H   0  0  0  0  0  0  0  0  0  0  0  0
   -3.0246    5.2818   12.8071 H   0  0  0  0  0  0  0  0  0  0  0  0
   -6.6029    5.4148   13.4961 H   0  0  0  0  0  0  0  0  0  0  0  0
   -6.1409    6.2653   14.8114 H   0  0  0  0  0  0  0  0  0  0  0  0
   -3.1317    1.4975   15.9460 H   0  0  0  0  0  0  0  0  0  0  0  0
   -2.1129    3.2849   14.6653 H   0  0  0  0  0  0  0  0  0  0  0  0
   -6.8561    3.3939   15.6367 H   0  0  0  0  0  0  0  0  0  0  0  0
  1  2  2  0  0  0  0
  1  3  2  0  0  0  0
  1  4  1  0  0  0  0
  1 11  1  0  0  0  0
  5  6  1  0  0  0  0
  5  7  1  0  0  0  0
  6 12  1  0  0  0  0
  7 13  1  0  0  0  0
  8  9  1  0  0  0  0
  8 11  2  0  0  0  0
  9 12  2  0  0  0  0
 10 11  1  0  0  0  0
 10 13  2  0  0  0  0
 12 13  1  0  0  0  0
  4 14  1  0  0  0  0
  4 15  1  0  0  0  0
  5 16  1  0  0  0  0
  5 17  1  0  0  0  0
  6 18  1  0  0  0  0
  6 19  1  0  0  0  0
  7 20  1  0  0  0  0
  7 21  1  0  0  0  0
  8 22  1  0  0  0  0
  9 23  1  0  0  0  0
 10 24  1  0  0  0  0
M  END
> <pdb_id>
2QOA

> <uniprot_id>
P00918

> <usmiles>
S(=O)(=O)(N)c1cc2c(cc1)CCC2

$$$$
MB1_A_800
          07192416293D 1   1.00000     0.00000     0
            
 19 19  0  0  0  0            999 V2000
   -6.6485    4.0330   17.4509 Cl  0  0  0  0  0  0  0  0  0  0  0  0
   -5.9989    0.9016   16.9093 S   0  0  0  0  0  0  0  0  0  0  0  0
   -7.4307    0.8393   16.8591 O   0  0  0  0  0  0  0  0  0  0  0  0
   -5.3605    1.1871   18.1649 O   0  0  0  0  0  0  0  0  0  0  0  0
   -4.2251    2.9142   11.1324 O   0  5  0  0  0  0  0  0  0  0  0  0
   -2.8641    1.3313   12.4315 O   0  0  0  0  0  0  0  0  0  0  0  0
   -5.4226   -0.4632   16.3917 N   0  0  0  0  0  0  0  0  0  0  0  0
   -3.8516    2.3412   12.3792 N   0  3  0  0  0  0  0  0  0  0  0  0
   -5.4679    4.5423   15.0606 C   0  0  0  0  0  0  0  0  0  0  0  0
   -4.8140    4.1615   13.8735 C   0  0  0  0  0  0  0  0  0  0  0  0
   -4.9022    1.8162   14.5874 C   0  0  0  0  0  0  0  0  0  0  0  0
   -5.8484    3.5649   16.0232 C   0  0  0  0  0  0  0  0  0  0  0  0
   -5.5551    2.1980   15.7726 C   0  0  0  0  0  0  0  0  0  0  0  0
   -4.5346    2.7844   13.6447 C   0  0  0  0  0  0  0  0  0  0  0  0
   -4.4234   -0.4355   16.4207 H   0  0  0  0  0  0  0  0  0  0  0  0
   -5.7525   -1.2065   16.9736 H   0  0  0  0  0  0  0  0  0  0  0  0
   -5.6667    5.5077   15.2292 H   0  0  0  0  0  0  0  0  0  0  0  0
   -4.5489    4.8503   13.1987 H   0  0  0  0  0  0  0  0  0  0  0  0
   -4.7000    0.8518   14.4172 H   0  0  0  0  0  0  0  0  0  0  0  0
  1 12  1  0  0  0  0
  2  3  2  0  0  0  0
  2  4  2  0  0  0  0
  2  7  1  0  0  0  0
  2 13  1  0  0  0  0
  5  8  1  0  0  0  0
  6  8  2  0  0  0  0
  8 14  1  0  0  0  0
  9 10  2  0  0  0  0
  9 12  1  0  0  0  0
 10 14  1  0  0  0  0
 11 13  1  0  0  0  0
 11 14  2  0  0  0  0
 12 13  2  0  0  0  0
  7 15  1  0  0  0  0
  7 16  1  0  0  0  0
  9 17  1  0  0  0  0
 10 18  1  0  0  0  0
 11 19  1  0  0  0  0
M  CHG  2   5  -1   8   1
M  END
> <pdb_id>
2QP6

> <uniprot_id>
P00918

> <usmiles>
Clc1c(S(=O)(=O)N)cc([N+]([O-])=O)cc1

$$$$
MB4_A_304
          07192416293D 1   1.00000     0.00000     0
            
 38 39  0  0  0  0            999 V2000
   -5.8467    1.0352   16.8255 S   0  0  0  0  0  0  0  0  0  0  0  0
   -1.6694    7.6894   11.6190 S   0  0  0  0  0  0  0  0  0  0  0  0
   -7.2609    1.1782   16.6388 O   0  0  0  0  0  0  0  0  0  0  0  0
   -5.4480   -0.2575   16.2724 O   0  0  0  0  0  0  0  0  0  0  0  0
   -2.6320    7.4083   10.6043 O   0  0  0  0  0  0  0  0  0  0  0  0
   -0.3531    7.7012   11.0598 O   0  0  0  0  0  0  0  0  0  0  0  0
   -3.8958    6.4622   13.0361 O   0  0  0  0  0  0  0  0  0  0  0  0
   -5.5138    1.0905   18.3540 N   0  0  0  0  0  0  0  0  0  0  0  0
   -1.6809    6.5387   12.7424 N   0  0  0  0  0  0  0  0  0  0  0  0
   -3.7188    2.2119   16.0755 N   0  0  0  0  0  0  0  0  0  0  0  0
   -2.5861    4.9897   14.1288 N   0  0  0  0  0  0  0  0  0  0  0  0
   -0.6023    8.7534   14.3513 C   0  0  0  0  0  0  0  0  0  0  0  0
   -2.9690    3.1199   15.4418 C   0  0  0  0  0  0  0  0  0  0  0  0
   -2.9730   11.3392   11.8581 C   0  0  0  0  0  0  0  0  0  0  0  0
   -2.4714   11.7745   13.0771 C   0  0  0  0  0  0  0  0  0  0  0  0
   -2.7036   10.0434   11.4297 C   0  0  0  0  0  0  0  0  0  0  0  0
   -5.6923    3.2506   15.2964 C   0  0  0  0  0  0  0  0  0  0  0  0
   -1.7074   10.9171   13.8588 C   0  0  0  0  0  0  0  0  0  0  0  0
   -4.9213    4.2264   14.6264 C   0  0  0  0  0  0  0  0  0  0  0  0
   -2.7915    6.0294   13.2985 C   0  0  0  0  0  0  0  0  0  0  0  0
   -5.0667    2.2223   16.0286 C   0  0  0  0  0  0  0  0  0  0  0  0
   -1.9436    9.1630   12.2115 C   0  0  0  0  0  0  0  0  0  0  0  0
   -3.5156    4.1559   14.6967 C   0  0  0  0  0  0  0  0  0  0  0  0
   -1.4370    9.6144   13.4365 C   0  0  0  0  0  0  0  0  0  0  0  0
   -4.5273    0.9907   18.4841 H   0  0  0  0  0  0  0  0  0  0  0  0
   -5.8124    1.9683   18.7286 H   0  0  0  0  0  0  0  0  0  0  0  0
   -0.7998    6.1777   13.0479 H   0  0  0  0  0  0  0  0  0  0  0  0
   -1.6321    4.8008   14.3618 H   0  0  0  0  0  0  0  0  0  0  0  0
   -0.4803    7.8503   13.9396 H   0  0  0  0  0  0  0  0  0  0  0  0
    0.2913    9.1809   14.4880 H   0  0  0  0  0  0  0  0  0  0  0  0
   -1.0646    8.6581   15.2329 H   0  0  0  0  0  0  0  0  0  0  0  0
   -1.9736    3.0497   15.5073 H   0  0  0  0  0  0  0  0  0  0  0  0
   -3.5238   11.9525   11.2921 H   0  0  0  0  0  0  0  0  0  0  0  0
   -2.6599   12.7046   13.3923 H   0  0  0  0  0  0  0  0  0  0  0  0
   -3.0588    9.7344   10.5475 H   0  0  0  0  0  0  0  0  0  0  0  0
   -6.6905    3.2901   15.2506 H   0  0  0  0  0  0  0  0  0  0  0  0
   -1.3467   11.2371   14.7348 H   0  0  0  0  0  0  0  0  0  0  0  0
   -5.3668    4.9572   14.1093 H   0  0  0  0  0  0  0  0  0  0  0  0
  1  3  2  0  0  0  0
  1  4  2  0  0  0  0
  1  8  1  0  0  0  0
  1 21  1  0  0  0  0
  2  5  2  0  0  0  0
  2  6  2  0  0  0  0
  2  9  1  0  0  0  0
  2 22  1  0  0  0  0
  7 20  2  0  0  0  0
  9 20  1  0  0  0  0
 10 13  1  0  0  0  0
 10 21  2  0  0  0  0
 11 20  1  0  0  0  0
 11 23  1  0  0  0  0
 12 24  1  0  0  0  0
 13 23  2  0  0  0  0
 14 15  2  0  0  0  0
 14 16  1  0  0  0  0
 15 18  1  0  0  0  0
 16 22  2  0  0  0  0
 17 19  2  0  0  0  0
 17 21  1  0  0  0  0
 18 24  2  0  0  0  0
 19 23  1  0  0  0  0
 22 24  1  0  0  0  0
  8 25  1  0  0  0  0
  8 26  1  0  0  0  0
  9 27  1  0  0  0  0
 11 28  1  0  0  0  0
 12 29  1  0  0  0  0
 12 30  1  0  0  0  0
 12 31  1  0  0  0  0
 13 32  1  0  0  0  0
 14 33  1  0  0  0  0
 15 34  1  0  0  0  0
 16 35  1  0  0  0  0
 17 36  1  0  0  0  0
 18 37  1  0  0  0  0
 19 38  1  0  0  0  0
M  END
> <pdb_id>
4KUY

> <uniprot_id>
P00918

> <usmiles>
S(=O)(=O)(NC(=O)Nc1cnc(S(=O)(=O)N)cc1)c2c(cccc2)C

$$$$
MB9_A_501
          07192419233D 1   1.00000     0.00000     0
            
 40 43  0  0  0  0            999 V2000
  -21.5932   39.7622    0.8484 Cl  0  0  0  0  0  0  0  0  0  0  0  0
  -18.4067   34.7053   -4.6473 O   0  0  0  0  0  0  0  0  0  0  0  0
  -17.9213   32.6412    0.1818 N   0  0  0  0  0  0  0  0  0  0  0  0
  -13.2865   34.1367   -3.2561 N   0  0  0  0  0  0  0  0  0  0  0  0
  -16.7555   34.1335   -3.2753 N   0  0  0  0  0  0  0  0  0  0  0  0
  -19.3605   36.6932   -2.6798 N   0  0  0  0  0  0  0  0  0  0  0  0
  -20.0694   37.0964   -3.9110 C   0  0  0  0  0  0  0  0  0  0  0  0
  -17.4286   33.5652   -0.2457 C   0  0  0  0  0  0  0  0  0  0  0  0
  -14.0601   32.9179   -2.8594 C   0  0  0  0  0  0  0  0  0  0  0  0
  -14.1259   35.3041   -3.5639 C   0  0  0  0  0  0  0  0  0  0  0  0
  -19.6216   37.9301    1.2251 C   0  0  0  0  0  0  0  0  0  0  0  0
  -18.7154   36.9785    0.7779 C   0  0  0  0  0  0  0  0  0  0  0  0
  -20.4730   38.2217   -1.0431 C   0  0  0  0  0  0  0  0  0  0  0  0
  -15.1162   33.1903   -1.7876 C   0  0  0  0  0  0  0  0  0  0  0  0
  -15.0783   35.6165   -2.4159 C   0  0  0  0  0  0  0  0  0  0  0  0
  -17.8206   34.9517   -3.5965 C   0  0  0  0  0  0  0  0  0  0  0  0
  -20.4789   38.5501    0.3087 C   0  0  0  0  0  0  0  0  0  0  0  0
  -19.5927   37.2264   -1.4773 C   0  0  0  0  0  0  0  0  0  0  0  0
  -18.3765   35.7903   -2.6359 C   0  0  0  0  0  0  0  0  0  0  0  0
  -18.7035   36.6313   -0.5684 C   0  0  0  0  0  0  0  0  0  0  0  0
  -17.9329   35.7208   -1.2980 C   0  0  0  0  0  0  0  0  0  0  0  0
  -16.8225   34.7615   -0.8563 C   0  0  2  0  0  0  0  0  0  0  0  0
  -15.9599   34.4026   -2.0545 C   0  0  0  0  0  0  0  0  0  0  0  0
  -12.7457   33.9155   -4.0676 H   0  0  0  0  0  0  0  0  0  0  0  0
  -16.5215   33.3609   -3.8655 H   0  0  0  0  0  0  0  0  0  0  0  0
  -19.7275   36.5608   -4.6831 H   0  0  0  0  0  0  0  0  0  0  0  0
  -21.0497   36.9329   -3.7999 H   0  0  0  0  0  0  0  0  0  0  0  0
  -19.9111   38.0686   -4.0836 H   0  0  0  0  0  0  0  0  0  0  0  0
  -13.4189   32.2366   -2.5065 H   0  0  0  0  0  0  0  0  0  0  0  0
  -14.5184   32.5555   -3.6709 H   0  0  0  0  0  0  0  0  0  0  0  0
  -14.6597   35.1138   -4.3879 H   0  0  0  0  0  0  0  0  0  0  0  0
  -13.5369   36.0962   -3.7239 H   0  0  0  0  0  0  0  0  0  0  0  0
  -19.6617   38.1708    2.1948 H   0  0  0  0  0  0  0  0  0  0  0  0
  -18.0783   36.5475    1.4168 H   0  0  0  0  0  0  0  0  0  0  0  0
  -21.0821   38.6852   -1.6868 H   0  0  0  0  0  0  0  0  0  0  0  0
  -14.6499   33.3184   -0.9123 H   0  0  0  0  0  0  0  0  0  0  0  0
  -15.7189   32.3943   -1.7309 H   0  0  0  0  0  0  0  0  0  0  0  0
  -15.6694   36.3773   -2.6838 H   0  0  0  0  0  0  0  0  0  0  0  0
  -14.5424   35.8776   -1.6129 H   0  0  0  0  0  0  0  0  0  0  0  0
  -16.2529   35.2192   -0.1737 H   0  0  0  0  0  0  0  0  0  0  0  0
  1 17  1  0  0  0  0
  2 16  2  0  0  0  0
  3  8  3  0  0  0  0
  4  9  1  0  0  0  0
  4 10  1  0  0  0  0
  5 16  1  0  0  0  0
  5 23  1  0  0  0  0
  6  7  1  0  0  0  0
  6 18  1  0  0  0  0
  6 19  1  0  0  0  0
  8 22  1  0  0  0  0
  9 14  1  0  0  0  0
 10 15  1  0  0  0  0
 11 12  1  0  0  0  0
 11 17  2  0  0  0  0
 12 20  2  0  0  0  0
 13 17  1  0  0  0  0
 13 18  2  0  0  0  0
 14 23  1  0  0  0  0
 15 23  1  0  0  0  0
 16 19  1  0  0  0  0
 18 20  1  0  0  0  0
 19 21  2  0  0  0  0
 20 21  1  0  0  0  0
 21 22  1  0  0  0  0
 22 23  1  0  0  0  0
  4 24  1  0  0  0  0
  5 25  1  0  0  0  0
  7 26  1  0  0  0  0
  7 27  1  0  0  0  0
  7 28  1  0  0  0  0
  9 29  1  0  0  0  0
  9 30  1  0  0  0  0
 10 31  1  0  0  0  0
 10 32  1  0  0  0  0
 11 33  1  0  0  0  0
 12 34  1  0  0  0  0
 13 35  1  0  0  0  0
 14 36  1  0  0  0  0
 14 37  1  0  0  0  0
 15 38  1  0  0  0  0
 15 39  1  0  0  0  0
 22 40  1  0  0  0  0
M  END
> <pdb_id>
3CY2

> <uniprot_id>
P11309

> <usmiles>
Clc1cc2N(C=3C(=O)NC4([C@H](C#N)C3c2cc1)CCNCC4)C

$$$$
MBM_D_2
          07192422073D 1   1.00000     0.00000     0
            
 70 74  0  0  0  0            999 V2000
   32.6977   28.2637   12.1956 O   0  0  0  0  0  0  0  0  0  0  0  0
   35.2991   33.0483   18.5755 O   0  0  0  0  0  0  0  0  0  0  0  0
   36.5843   29.8108   17.1475 O   0  0  0  0  0  0  0  0  0  0  0  0
   40.7633   27.7963   13.3238 O   0  0  0  0  0  0  0  0  0  0  0  0
   28.9161   28.5695   15.1389 N   0  0  0  0  0  0  0  0  0  0  0  0
   33.1086   28.7091   14.3882 N   0  0  0  0  0  0  0  0  0  0  0  0
   35.1803   28.1014   13.2527 N   0  0  0  0  0  0  0  0  0  0  0  0
   35.0351   28.7271   15.5375 N   0  0  0  0  0  0  0  0  0  0  0  0
   36.8446   33.2581   20.1306 N   0  0  0  0  0  0  0  0  0  0  0  0
   34.9297   30.4222   18.7220 N   0  0  0  0  0  0  0  0  0  0  0  0
   42.4778   28.7117   11.8811 C   0  0  0  0  0  0  0  0  0  0  0  0
   28.1415   28.9770   14.0959 C   0  0  0  0  0  0  0  0  0  0  0  0
   30.2400   28.4404   14.8589 C   0  0  0  0  0  0  0  0  0  0  0  0
   36.8799   34.7165   20.0177 C   0  0  0  0  0  0  0  0  0  0  0  0
   37.8418   32.6789   21.0180 C   0  0  0  0  0  0  0  0  0  0  0  0
   33.5222   30.4138   19.1858 C   0  0  0  0  0  0  0  0  0  0  0  0
   35.9159   30.9684   19.6548 C   0  0  0  0  0  0  0  0  0  0  0  0
   28.6473   29.2923   12.8058 C   0  0  0  0  0  0  0  0  0  0  0  0
   38.0424   35.1269   20.9414 C   0  0  0  0  0  0  0  0  0  0  0  0
   38.4340   33.9146   21.7340 C   0  0  0  0  0  0  0  0  0  0  0  0
   33.0873   28.9856   19.5992 C   0  0  0  0  0  0  0  0  0  0  0  0
   32.6091   28.1754   18.3882 C   0  0  0  0  0  0  0  0  0  0  0  0
   33.7610   27.8423   17.4398 C   0  0  0  0  0  0  0  0  0  0  0  0
   30.0205   29.1659   12.5566 C   0  0  0  0  0  0  0  0  0  0  0  0
   38.6378   27.1055   14.3962 C   0  0  0  0  0  0  0  0  0  0  0  0
   37.2599   27.2209   14.2673 C   0  0  0  0  0  0  0  0  0  0  0  0
   39.8928   29.0181   11.5698 C   0  0  0  0  0  0  0  0  0  0  0  0
   37.3903   28.6181   12.2863 C   0  0  0  0  0  0  0  0  0  0  0  0
   34.4293   28.5721   14.2920 C   0  0  0  0  0  0  0  0  0  0  0  0
   32.2887   28.5631   13.3062 C   0  0  0  0  0  0  0  0  0  0  0  0
   35.9772   32.4949   19.4082 C   0  0  0  0  0  0  0  0  0  0  0  0
   35.3941   29.7773   17.5670 C   0  0  0  0  0  0  0  0  0  0  0  0
   41.0490   28.5747   12.2008 C   0  0  0  0  0  0  0  0  0  0  0  0
   39.3952   27.7702   13.4176 C   0  0  0  0  0  0  0  0  0  0  0  0
   36.6250   27.9628   13.2794 C   0  0  0  0  0  0  0  0  0  0  0  0
   34.3086   29.1016   16.7474 C   0  0  1  0  0  0  0  0  0  0  0  0
   30.8508   28.7312   13.6015 C   0  0  0  0  0  0  0  0  0  0  0  0
   38.7783   28.5013   12.3569 C   0  0  0  0  0  0  0  0  0  0  0  0
   34.7022   27.8341   12.4161 H   0  0  0  0  0  0  0  0  0  0  0  0
   36.0209   28.5735   15.6063 H   0  0  0  0  0  0  0  0  0  0  0  0
   42.5840   29.2825   11.0669 H   0  0  0  0  0  0  0  0  0  0  0  0
   42.9523   29.1381   12.6513 H   0  0  0  0  0  0  0  0  0  0  0  0
   42.8688   27.8078   11.7079 H   0  0  0  0  0  0  0  0  0  0  0  0
   27.1565   29.0595   14.2470 H   0  0  0  0  0  0  0  0  0  0  0  0
   30.8349   28.1151   15.5938 H   0  0  0  0  0  0  0  0  0  0  0  0
   36.0187   35.1190   20.3282 H   0  0  0  0  0  0  0  0  0  0  0  0
   37.0579   34.9969   19.0745 H   0  0  0  0  0  0  0  0  0  0  0  0
   38.5454   32.1933   20.4992 H   0  0  0  0  0  0  0  0  0  0  0  0
   37.4190   32.0528   21.6732 H   0  0  0  0  0  0  0  0  0  0  0  0
   32.9313   30.7351   18.4457 H   0  0  0  0  0  0  0  0  0  0  0  0
   33.4327   31.0244   19.9727 H   0  0  0  0  0  0  0  0  0  0  0  0
   36.8119   30.5574   19.4866 H   0  0  0  0  0  0  0  0  0  0  0  0
   35.6361   30.7840   20.5970 H   0  0  0  0  0  0  0  0  0  0  0  0
   28.0293   29.6013   12.0829 H   0  0  0  0  0  0  0  0  0  0  0  0
   37.7482   35.8577   21.5573 H   0  0  0  0  0  0  0  0  0  0  0  0
   38.8179   35.4433   20.3951 H   0  0  0  0  0  0  0  0  0  0  0  0
   39.4304   33.8406   21.7746 H   0  0  0  0  0  0  0  0  0  0  0  0
   38.0665   33.9801   22.6618 H   0  0  0  0  0  0  0  0  0  0  0  0
   32.3414   29.0514   20.2620 H   0  0  0  0  0  0  0  0  0  0  0  0
   33.8650   28.5169   20.0180 H   0  0  0  0  0  0  0  0  0  0  0  0
   31.9243   28.7086   17.8915 H   0  0  0  0  0  0  0  0  0  0  0  0
   32.1981   27.3227   18.7107 H   0  0  0  0  0  0  0  0  0  0  0  0
   33.4327   27.2055   16.7421 H   0  0  0  0  0  0  0  0  0  0  0  0
   34.4977   27.4134   17.9625 H   0  0  0  0  0  0  0  0  0  0  0  0
   30.3995   29.3802   11.6564 H   0  0  0  0  0  0  0  0  0  0  0  0
   39.0625   26.5841   15.1363 H   0  0  0  0  0  0  0  0  0  0  0  0
   36.6869   26.7380   14.9295 H   0  0  0  0  0  0  0  0  0  0  0  0
   39.8362   29.5782   10.7433 H   0  0  0  0  0  0  0  0  0  0  0  0
   36.9516   29.1463   11.5594 H   0  0  0  0  0  0  0  0  0  0  0  0
   33.5703   29.7421   16.5362 H   0  0  0  0  0  0  0  0  0  0  0  0
  1 30  2  0  0  0  0
  2 31  2  0  0  0  0
  3 32  2  0  0  0  0
  4 33  1  0  0  0  0
  4 34  1  0  0  0  0
  5 12  2  0  0  0  0
  5 13  1  0  0  0  0
  6 29  2  0  0  0  0
  6 30  1  0  0  0  0
  7 29  1  0  0  0  0
  7 35  1  0  0  0  0
  8 29  1  0  0  0  0
  8 36  1  0  0  0  0
  9 14  1  0  0  0  0
  9 15  1  0  0  0  0
  9 31  1  0  0  0  0
 10 16  1  0  0  0  0
 10 17  1  0  0  0  0
 10 32  1  0  0  0  0
 11 33  1  0  0  0  0
 12 18  1  0  0  0  0
 13 37  2  0  0  0  0
 14 19  1  0  0  0  0
 15 20  1  0  0  0  0
 16 21  1  0  0  0  0
 17 31  1  0  0  0  0
 18 24  2  0  0  0  0
 19 20  1  0  0  0  0
 21 22  1  0  0  0  0
 22 23  1  0  0  0  0
 23 36  1  0  0  0  0
 24 37  1  0  0  0  0
 25 26  1  0  0  0  0
 25 34  2  0  0  0  0
 26 35  2  0  0  0  0
 27 33  2  0  0  0  0
 27 38  1  0  0  0  0
 28 35  1  0  0  0  0
 28 38  2  0  0  0  0
 30 37  1  0  0  0  0
 32 36  1  0  0  0  0
 34 38  1  0  0  0  0
  7 39  1  0  0  0  0
  8 40  1  0  0  0  0
 11 41  1  0  0  0  0
 11 42  1  0  0  0  0
 11 43  1  0  0  0  0
 12 44  1  0  0  0  0
 13 45  1  0  0  0  0
 14 46  1  0  0  0  0
 14 47  1  0  0  0  0
 15 48  1  0  0  0  0
 15 49  1  0  0  0  0
 16 50  1  0  0  0  0
 16 51  1  0  0  0  0
 17 52  1  0  0  0  0
 17 53  1  0  0  0  0
 18 54  1  0  0  0  0
 19 55  1  0  0  0  0
 19 56  1  0  0  0  0
 20 57  1  0  0  0  0
 20 58  1  0  0  0  0
 21 59  1  0  0  0  0
 21 60  1  0  0  0  0
 22 61  1  0  0  0  0
 22 62  1  0  0  0  0
 23 63  1  0  0  0  0
 23 64  1  0  0  0  0
 24 65  1  0  0  0  0
 25 66  1  0  0  0  0
 26 67  1  0  0  0  0
 27 68  1  0  0  0  0
 28 69  1  0  0  0  0
 36 70  1  0  0  0  0
M  END
> <pdb_id>
3K9X

> <uniprot_id>
P00742

> <usmiles>
O=C(N=C(Nc1cc2c(OC(=C2)C)cc1)N[C@@H]3C(=O)N(CC(=O)N4CCCC4)CCCC3)c5cnccc5

$$$$
MBY_A_402
          07202415543D 1   1.00000     0.00000     0
            
 35 37  0  0  0  0            999 V2000
    2.1240   -3.1650   22.4940 S   0  0  0  0  0  0  0  0  0  0  0  0
    5.2250    0.0250   21.5170 O   0  0  0  0  0  0  0  0  0  0  0  0
    0.4780   -5.7870   21.6870 O   0  0  0  0  0  0  0  0  0  0  0  0
    6.8900   -3.1530   16.9740 O   0  0  0  0  0  0  0  0  0  0  0  0
    7.6490   -0.8580   17.6230 O   0  0  0  0  0  0  0  0  0  0  0  0
    2.2130   -6.7600   20.6160 N   0  0  0  0  0  0  0  0  0  0  0  0
    4.2940   -5.7030   20.5300 N   0  0  0  0  0  0  0  0  0  0  0  0
    6.2610   -2.5960   19.9010 N   0  0  0  0  0  0  0  0  0  0  0  0
    3.5190   -6.7430   20.2540 C   0  0  0  0  0  0  0  0  0  0  0  0
    3.7220   -2.5320   22.3240 C   0  0  0  0  0  0  0  0  0  0  0  0
    5.0280   -0.3770   20.1440 C   0  0  0  0  0  0  0  0  0  0  0  0
    5.4540   -3.2360   18.8420 C   0  0  0  0  0  0  0  0  0  0  0  0
    6.0130   -3.0650   21.2970 C   0  0  0  0  0  0  0  0  0  0  0  0
    1.6510   -5.7520   21.3330 C   0  0  0  0  0  0  0  0  0  0  0  0
    2.4800   -4.5790   21.6550 C   0  0  0  0  0  0  0  0  0  0  0  0
    5.8210   -2.4670   17.6250 C   0  0  1  0  0  0  0  0  0  0  0  0
    6.2960   -1.0740   18.0890 C   0  0  1  0  0  0  0  0  0  0  0  0
    3.8450   -4.6420   21.2100 C   0  0  0  0  0  0  0  0  0  0  0  0
    6.2640   -1.1190   19.6150 C   0  0  2  0  0  0  0  0  0  0  0  0
    4.5540   -3.3820   21.6060 C   0  0  0  0  0  0  0  0  0  0  0  0
    4.4112    0.5058   21.8436 H   0  0  0  0  0  0  0  0  0  0  0  0
    7.1545   -2.6522   16.1498 H   0  0  0  0  0  0  0  0  0  0  0  0
    7.9640    0.0434   17.9201 H   0  0  0  0  0  0  0  0  0  0  0  0
    1.6456   -7.5383   20.3471 H   0  0  0  0  0  0  0  0  0  0  0  0
    3.9049   -7.5285   19.7703 H   0  0  0  0  0  0  0  0  0  0  0  0
    4.0152   -1.6530   22.6999 H   0  0  0  0  0  0  0  0  0  0  0  0
    4.8677    0.4355   19.5835 H   0  0  0  0  0  0  0  0  0  0  0  0
    4.2334   -0.9817   20.0895 H   0  0  0  0  0  0  0  0  0  0  0  0
    4.4766   -3.1540   19.0369 H   0  0  0  0  0  0  0  0  0  0  0  0
    5.6942   -4.2016   18.7422 H   0  0  0  0  0  0  0  0  0  0  0  0
    6.3174   -2.3496   21.9259 H   0  0  0  0  0  0  0  0  0  0  0  0
    6.5519   -3.8936   21.4488 H   0  0  0  0  0  0  0  0  0  0  0  0
    5.0345   -2.3831   17.0132 H   0  0  0  0  0  0  0  0  0  0  0  0
    5.6861   -0.3604   17.7443 H   0  0  0  0  0  0  0  0  0  0  0  0
    7.0946   -0.7028   19.9849 H   0  0  0  0  0  0  0  0  0  0  0  0
  1 10  1  0  0  0  0
  1 15  1  0  0  0  0
  2 11  1  0  0  0  0
  3 14  2  0  0  0  0
  4 16  1  0  0  0  0
  5 17  1  0  0  0  0
  6  9  1  0  0  0  0
  6 14  1  0  0  0  0
  7  9  2  0  0  0  0
  7 18  1  0  0  0  0
  8 12  1  0  0  0  0
  8 13  1  0  0  0  0
  8 19  1  0  0  0  0
 10 20  2  0  0  0  0
 11 19  1  0  0  0  0
 12 16  1  0  0  0  0
 13 20  1  0  0  0  0
 14 15  1  0  0  0  0
 15 18  2  0  0  0  0
 16 17  1  0  0  0  0
 17 19  1  0  0  0  0
 18 20  1  0  0  0  0
  2 21  1  0  0  0  0
  4 22  1  0  0  0  0
  5 23  1  0  0  0  0
  6 24  1  0  0  0  0
  9 25  1  0  0  0  0
 10 26  1  0  0  0  0
 11 27  1  0  0  0  0
 11 28  1  0  0  0  0
 12 29  1  0  0  0  0
 12 30  1  0  0  0  0
 13 31  1  0  0  0  0
 13 32  1  0  0  0  0
 16 33  1  0  0  0  0
 17 34  1  0  0  0  0
 19 35  1  0  0  0  0
M  END
> <pdb_id>
4I73

> <uniprot_id>
Q57ZL6

> <usmiles>
S1C=2C(=O)NC=NC2C(=C1)CN3[C@@H]([C@@H](O)[C@@H](O)C3)CO

$$$$
MC9_A_500
          07202400483D 1   1.00000     0.00000     0
            
 70 73  0  0  0  0            999 V2000
  -16.9844   -8.0929   31.3551 O   0  0  0  0  0  0  0  0  0  0  0  0
  -13.0313   -8.8358   29.5818 O   0  0  0  0  0  0  0  0  0  0  0  0
   -5.0383    0.3561   31.1622 O   0  0  0  0  0  0  0  0  0  0  0  0
   -9.6338    1.9110   30.7172 C   0  0  0  0  0  0  0  0  0  0  0  0
  -12.1289   -6.7548   31.3121 C   0  0  0  0  0  0  0  0  0  0  0  0
  -10.6021   -2.5530   32.5011 C   0  0  0  0  0  0  0  0  0  0  0  0
  -12.9816   -1.6736   34.6682 C   0  0  0  0  0  0  0  0  0  0  0  0
   -7.2941   -0.2795   31.8596 C   0  0  0  0  0  0  0  0  0  0  0  0
  -14.2401   -2.1881   33.7828 C   0  0  0  0  0  0  0  0  0  0  0  0
   -8.4008   -0.1993   31.0681 C   0  0  0  0  0  0  0  0  0  0  0  0
   -4.8270   -0.8892   33.6549 C   0  0  0  0  0  0  0  0  0  0  0  0
   -4.1009   -2.0687   32.8856 C   0  0  0  0  0  0  0  0  0  0  0  0
  -14.7087   -5.0310   32.4900 C   0  0  0  0  0  0  0  0  0  0  0  0
  -14.0356   -3.8753   31.8368 C   0  0  0  0  0  0  0  0  0  0  0  0
  -11.2829   -0.9276   29.7758 C   0  0  0  0  0  0  0  0  0  0  0  0
  -12.5184   -1.9255   29.9334 C   0  0  0  0  0  0  0  0  0  0  0  0
  -14.8183   -9.3193   31.3380 C   0  0  0  0  0  0  0  0  0  0  0  0
  -15.3555   -7.4752   33.1484 C   0  0  0  0  0  0  0  0  0  0  0  0
  -12.0182   -0.7340   33.7693 C   0  0  0  0  0  0  0  0  0  0  0  0
  -15.9659   -8.6416   32.2463 C   0  0  1  0  0  0  0  0  0  0  0  0
  -14.0753   -8.2450   30.4270 C   0  0  1  0  0  0  0  0  0  0  0  0
   -5.9059   -0.7760   31.4384 C   0  0  2  0  0  0  0  0  0  0  0  0
   -9.7202    0.5458   31.4325 C   0  0  2  0  0  0  0  0  0  0  0  0
  -13.4770   -7.0996   31.3561 C   0  0  0  0  0  0  0  0  0  0  0  0
   -5.3536   -1.8203   32.5387 C   0  0  0  0  0  0  0  0  0  0  0  0
  -14.5411   -6.4024   32.3511 C   0  0  0  0  0  0  0  0  0  0  0  0
  -13.8037   -2.6718   32.3049 C   0  0  0  0  0  0  0  0  0  0  0  0
  -11.2100   -0.1404   31.1401 C   0  0  2  0  0  0  0  0  0  0  0  0
  -13.0580   -1.5710   31.4930 C   0  0  1  0  0  0  0  0  0  0  0  0
  -11.6140   -1.1928   32.1958 C   0  0  1  0  0  0  0  0  0  0  0  0
  -17.7079   -7.6666   31.8981 H   0  0  0  0  0  0  0  0  0  0  0  0
  -12.6004   -8.1187   29.0340 H   0  0  0  0  0  0  0  0  0  0  0  0
   -4.1354    0.0251   30.8882 H   0  0  0  0  0  0  0  0  0  0  0  0
  -10.4581    2.4424   30.9126 H   0  0  0  0  0  0  0  0  0  0  0  0
   -8.8308    2.4088   31.0448 H   0  0  0  0  0  0  0  0  0  0  0  0
   -9.5566    1.7662   29.7307 H   0  0  0  0  0  0  0  0  0  0  0  0
  -11.7782   -6.0312   31.9066 H   0  0  0  0  0  0  0  0  0  0  0  0
  -11.5113   -7.2307   30.6859 H   0  0  0  0  0  0  0  0  0  0  0  0
  -10.2836   -2.9331   31.6328 H   0  0  0  0  0  0  0  0  0  0  0  0
   -9.8155   -2.2672   33.0484 H   0  0  0  0  0  0  0  0  0  0  0  0
  -11.1199   -3.2485   32.9994 H   0  0  0  0  0  0  0  0  0  0  0  0
  -12.4624   -2.4631   34.9953 H   0  0  0  0  0  0  0  0  0  0  0  0
  -13.3193   -1.1495   35.4500 H   0  0  0  0  0  0  0  0  0  0  0  0
   -7.3978    0.0149   32.8097 H   0  0  0  0  0  0  0  0  0  0  0  0
  -14.8965   -1.4390   33.6937 H   0  0  0  0  0  0  0  0  0  0  0  0
  -14.6723   -2.9555   34.2563 H   0  0  0  0  0  0  0  0  0  0  0  0
   -8.3630   -0.6566   30.1796 H   0  0  0  0  0  0  0  0  0  0  0  0
   -4.6034    0.0687   33.4751 H   0  0  0  0  0  0  0  0  0  0  0  0
   -5.1257   -0.9892   34.6040 H   0  0  0  0  0  0  0  0  0  0  0  0
   -3.8852   -2.9141   33.3742 H   0  0  0  0  0  0  0  0  0  0  0  0
   -3.3628   -1.8561   32.2453 H   0  0  0  0  0  0  0  0  0  0  0  0
  -15.4123   -4.7718   33.1517 H   0  0  0  0  0  0  0  0  0  0  0  0
  -13.7128   -4.0403   30.9048 H   0  0  0  0  0  0  0  0  0  0  0  0
  -11.4364   -0.2970   29.0149 H   0  0  0  0  0  0  0  0  0  0  0  0
  -10.4374   -1.4383   29.6200 H   0  0  0  0  0  0  0  0  0  0  0  0
  -12.2273   -2.8792   29.8575 H   0  0  0  0  0  0  0  0  0  0  0  0
  -13.2263   -1.7379   29.2525 H   0  0  0  0  0  0  0  0  0  0  0  0
  -15.2375  -10.0096   30.7483 H   0  0  0  0  0  0  0  0  0  0  0  0
  -14.1469   -9.7558   31.9370 H   0  0  0  0  0  0  0  0  0  0  0  0
  -14.7481   -7.8892   33.8265 H   0  0  0  0  0  0  0  0  0  0  0  0
  -16.1097   -7.0129   33.6147 H   0  0  0  0  0  0  0  0  0  0  0  0
  -11.1586   -0.6392   34.2714 H   0  0  0  0  0  0  0  0  0  0  0  0
  -12.4659    0.1578   33.7033 H   0  0  0  0  0  0  0  0  0  0  0  0
  -16.3783   -9.3367   32.8351 H   0  0  0  0  0  0  0  0  0  0  0  0
  -14.7572   -7.8279   29.8261 H   0  0  0  0  0  0  0  0  0  0  0  0
   -6.0184   -1.2795   30.5817 H   0  0  0  0  0  0  0  0  0  0  0  0
   -9.6801    0.7343   32.4137 H   0  0  0  0  0  0  0  0  0  0  0  0
   -6.0174   -2.5049   32.8399 H   0  0  0  0  0  0  0  0  0  0  0  0
  -11.8996    0.5837   31.1294 H   0  0  0  0  0  0  0  0  0  0  0  0
  -13.6278   -0.7499   31.4604 H   0  0  0  0  0  0  0  0  0  0  0  0
  1 20  1  0  0  0  0
  2 21  1  0  0  0  0
  3 22  1  0  0  0  0
  4 23  1  0  0  0  0
  5 24  2  0  0  0  0
  6 30  1  0  0  0  0
  7  9  1  0  0  0  0
  7 19  1  0  0  0  0
  8 10  2  0  0  0  0
  8 22  1  0  0  0  0
  9 27  1  0  0  0  0
 10 23  1  0  0  0  0
 11 12  1  0  0  0  0
 11 25  1  0  0  0  0
 12 25  1  0  0  0  0
 13 14  1  0  0  0  0
 13 26  2  0  0  0  0
 14 27  2  0  0  0  0
 15 16  1  0  0  0  0
 15 28  1  0  0  0  0
 16 29  1  0  0  0  0
 17 20  1  0  0  0  0
 17 21  1  0  0  0  0
 18 20  1  0  0  0  0
 18 26  1  0  0  0  0
 19 30  1  0  0  0  0
 21 24  1  0  0  0  0
 22 25  1  0  0  0  0
 23 28  1  0  0  0  0
 24 26  1  0  0  0  0
 27 29  1  0  0  0  0
 28 30  1  0  0  0  0
 29 30  1  0  0  0  0
  1 31  1  0  0  0  0
  2 32  1  0  0  0  0
  3 33  1  0  0  0  0
  4 34  1  0  0  0  0
  4 35  1  0  0  0  0
  4 36  1  0  0  0  0
  5 37  1  0  0  0  0
  5 38  1  0  0  0  0
  6 39  1  0  0  0  0
  6 40  1  0  0  0  0
  6 41  1  0  0  0  0
  7 42  1  0  0  0  0
  7 43  1  0  0  0  0
  8 44  1  0  0  0  0
  9 45  1  0  0  0  0
  9 46  1  0  0  0  0
 10 47  1  0  0  0  0
 11 48  1  0  0  0  0
 11 49  1  0  0  0  0
 12 50  1  0  0  0  0
 12 51  1  0  0  0  0
 13 52  1  0  0  0  0
 14 53  1  0  0  0  0
 15 54  1  0  0  0  0
 15 55  1  0  0  0  0
 16 56  1  0  0  0  0
 16 57  1  0  0  0  0
 17 58  1  0  0  0  0
 17 59  1  0  0  0  0
 18 60  1  0  0  0  0
 18 61  1  0  0  0  0
 19 62  1  0  0  0  0
 19 63  1  0  0  0  0
 20 64  1  0  0  0  0
 21 65  1  0  0  0  0
 22 66  1  0  0  0  0
 23 67  1  0  0  0  0
 25 68  1  0  0  0  0
 28 69  1  0  0  0  0
 29 70  1  0  0  0  0
M  END
> <pdb_id>
1S19

> <uniprot_id>
P11473

> <usmiles>
O[C@@H]1C\C(\C(=C)[C@@H](O)C1)=C\C=C/2\[C@H]3[C@@]([C@@H]([C@@H](/C=C/[C@@H](O)C4CC4)C)CC3)(CCC2)C

$$$$
MCF_A_373
          07202408473D 1   1.00000     0.00000     0
            
 39 41  0  0  0  0            999 V2000
   34.2629   24.3772   40.8450 S   0  0  0  0  0  0  0  0  0  0  0  0
   25.2909   24.5299   36.7472 O   0  0  0  0  0  0  0  0  0  0  0  0
   31.6345   24.2696   35.6809 O   0  0  0  0  0  0  0  0  0  0  0  0
   33.6953   23.3325   36.7567 O   0  0  0  0  0  0  0  0  0  0  0  0
   31.5328   22.5615   38.7531 O   0  0  0  0  0  0  0  0  0  0  0  0
   26.7440   26.4249   38.3450 N   0  0  0  0  0  0  0  0  0  0  0  0
   28.8224   25.4092   37.7627 N   0  0  0  0  0  0  0  0  0  0  0  0
   27.3536   22.1949   37.8532 N   0  0  0  0  0  0  0  0  0  0  0  0
   29.4117   23.0724   37.6956 N   0  0  0  0  0  0  0  0  0  0  0  0
   34.8985   25.9644   40.4620 C   0  0  0  0  0  0  0  0  0  0  0  0
   32.5941   24.2242   40.2714 C   0  0  0  0  0  0  0  0  0  0  0  0
   28.0494   26.4151   37.9740 C   0  0  0  0  0  0  0  0  0  0  0  0
   28.6872   21.9488   37.7359 C   0  0  0  0  0  0  0  0  0  0  0  0
   26.0601   25.3163   39.0101 C   0  0  0  0  0  0  0  0  0  0  0  0
   25.8511   24.1591   38.0264 C   0  0  2  0  0  0  0  0  0  0  0  0
   30.8871   23.0118   37.5524 C   0  0  1  0  0  0  0  0  0  0  0  0
   31.5630   24.2922   37.1101 C   0  0  1  0  0  0  0  0  0  0  0  0
   32.9518   24.1331   37.6988 C   0  0  1  0  0  0  0  0  0  0  0  0
   28.5233   24.0686   37.8076 C   0  0  0  0  0  0  0  0  0  0  0  0
   32.6577   23.3941   38.9972 C   0  0  2  0  0  0  0  0  0  0  0  0
   27.1511   23.5084   37.8805 C   0  0  0  0  0  0  0  0  0  0  0  0
   25.1923   23.7140   36.1774 H   0  0  0  0  0  0  0  0  0  0  0  0
   32.0776   25.1051   35.3560 H   0  0  0  0  0  0  0  0  0  0  0  0
   34.6255   23.1952   37.0971 H   0  0  0  0  0  0  0  0  0  0  0  0
   26.2118   27.2488   38.1498 H   0  0  0  0  0  0  0  0  0  0  0  0
   35.8399   26.0350   40.7918 H   0  0  0  0  0  0  0  0  0  0  0  0
   34.8812   26.1003   39.4714 H   0  0  0  0  0  0  0  0  0  0  0  0
   34.3371   26.6639   40.9042 H   0  0  0  0  0  0  0  0  0  0  0  0
   32.2098   25.1270   40.0783 H   0  0  0  0  0  0  0  0  0  0  0  0
   32.0324   23.7628   40.9581 H   0  0  0  0  0  0  0  0  0  0  0  0
   28.4681   27.3144   37.8473 H   0  0  0  0  0  0  0  0  0  0  0  0
   29.0810   21.0310   37.6855 H   0  0  0  0  0  0  0  0  0  0  0  0
   25.1716   25.6295   39.3457 H   0  0  0  0  0  0  0  0  0  0  0  0
   26.6145   24.9998   39.7799 H   0  0  0  0  0  0  0  0  0  0  0  0
   25.2282   23.5040   38.4539 H   0  0  0  0  0  0  0  0  0  0  0  0
   31.0796   22.3276   36.8489 H   0  0  0  0  0  0  0  0  0  0  0  0
   31.0958   25.1067   37.4541 H   0  0  0  0  0  0  0  0  0  0  0  0
   33.3899   25.0167   37.8641 H   0  0  0  0  0  0  0  0  0  0  0  0
   33.4273   22.7688   39.1264 H   0  0  0  0  0  0  0  0  0  0  0  0
  1 10  1  0  0  0  0
  1 11  1  0  0  0  0
  2 15  1  0  0  0  0
  3 17  1  0  0  0  0
  4 18  1  0  0  0  0
  5 16  1  0  0  0  0
  5 20  1  0  0  0  0
  6 12  1  0  0  0  0
  6 14  1  0  0  0  0
  7 12  2  0  0  0  0
  7 19  1  0  0  0  0
  8 13  2  0  0  0  0
  8 21  1  0  0  0  0
  9 13  1  0  0  0  0
  9 16  1  0  0  0  0
  9 19  1  0  0  0  0
 11 20  1  0  0  0  0
 14 15  1  0  0  0  0
 15 21  1  0  0  0  0
 16 17  1  0  0  0  0
 17 18  1  0  0  0  0
 18 20  1  0  0  0  0
 19 21  2  0  0  0  0
  2 22  1  0  0  0  0
  3 23  1  0  0  0  0
  4 24  1  0  0  0  0
  6 25  1  0  0  0  0
 10 26  1  0  0  0  0
 10 27  1  0  0  0  0
 10 28  1  0  0  0  0
 11 29  1  0  0  0  0
 11 30  1  0  0  0  0
 12 31  1  0  0  0  0
 13 32  1  0  0  0  0
 14 33  1  0  0  0  0
 14 34  1  0  0  0  0
 15 35  1  0  0  0  0
 16 36  1  0  0  0  0
 17 37  1  0  0  0  0
 18 38  1  0  0  0  0
 20 39  1  0  0  0  0
M  END
> <pdb_id>
3EWC

> <uniprot_id>
A5KE01

> <usmiles>
S(C[C@H]1O[C@@H](N2C=3N=CNC[C@@H](O)C3N=C2)[C@H](O)[C@@H]1O)C

$$$$
MCO_A_303
          07212402403D 1   1.00000     0.00000     0
            
 29 29  0  0  0  0            999 V2000
   48.8129    8.2783   45.9815 S   0  0  0  0  0  0  0  0  0  0  0  0
   45.4676   13.2164   46.0461 O   0  0  0  0  0  0  0  0  0  0  0  0
   46.0654   11.0973   46.2781 O   0  0  0  0  0  0  0  0  0  0  0  0
   49.0329   11.8222   45.4561 O   0  0  0  0  0  0  0  0  0  0  0  0
   48.3412   11.7277   47.6061 N   0  0  0  0  0  0  0  0  0  0  0  0
   51.6725   11.0910   46.9134 C   0  0  0  0  0  0  0  0  0  0  0  0
   50.3247    9.1890   45.9792 C   0  0  0  0  0  0  0  0  0  0  0  0
   48.2961   11.2692   49.0008 C   0  0  0  0  0  0  0  0  0  0  0  0
   47.1285   12.0409   49.6143 C   0  0  0  0  0  0  0  0  0  0  0  0
   47.0072   13.2932   48.7677 C   0  0  0  0  0  0  0  0  0  0  0  0
   46.1967   12.3234   46.5100 C   0  0  0  0  0  0  0  0  0  0  0  0
   49.1730   11.3916   46.5972 C   0  0  0  0  0  0  0  0  0  0  0  0
   47.2270   12.6292   47.4817 C   0  0  2  0  0  0  0  0  0  0  0  0
   50.3396   10.5032   46.7070 C   0  0  2  0  0  0  0  0  0  0  0  0
   48.9344    7.4294   45.4671 H   0  0  0  0  0  0  0  0  0  0  0  0
   45.6388   14.1735   46.2799 H   0  0  0  0  0  0  0  0  0  0  0  0
   51.5821   11.9584   47.4028 H   0  0  0  0  0  0  0  0  0  0  0  0
   52.2346   10.4622   47.4507 H   0  0  0  0  0  0  0  0  0  0  0  0
   52.1068   11.2520   46.0272 H   0  0  0  0  0  0  0  0  0  0  0  0
   50.5639    9.3713   45.0255 H   0  0  0  0  0  0  0  0  0  0  0  0
   51.0255    8.6084   46.3936 H   0  0  0  0  0  0  0  0  0  0  0  0
   49.1508   11.4858   49.4727 H   0  0  0  0  0  0  0  0  0  0  0  0
   48.1315   10.2839   49.0446 H   0  0  0  0  0  0  0  0  0  0  0  0
   47.3231   12.2764   50.5665 H   0  0  0  0  0  0  0  0  0  0  0  0
   46.2873   11.5020   49.5694 H   0  0  0  0  0  0  0  0  0  0  0  0
   47.7113   13.9715   48.9778 H   0  0  0  0  0  0  0  0  0  0  0  0
   46.1045   13.7185   48.8338 H   0  0  0  0  0  0  0  0  0  0  0  0
   47.6830   13.3753   46.9965 H   0  0  0  0  0  0  0  0  0  0  0  0
   50.1814   10.1625   47.6337 H   0  0  0  0  0  0  0  0  0  0  0  0
  1  7  1  0  0  0  0
  2 11  1  0  0  0  0
  3 11  2  0  0  0  0
  4 12  2  0  0  0  0
  5  8  1  0  0  0  0
  5 12  1  0  0  0  0
  5 13  1  0  0  0  0
  6 14  1  0  0  0  0
  7 14  1  0  0  0  0
  8  9  1  0  0  0  0
  9 10  1  0  0  0  0
 10 13  1  0  0  0  0
 11 13  1  0  0  0  0
 12 14  1  0  0  0  0
  1 15  1  0  0  0  0
  2 16  1  0  0  0  0
  6 17  1  0  0  0  0
  6 18  1  0  0  0  0
  6 19  1  0  0  0  0
  7 20  1  0  0  0  0
  7 21  1  0  0  0  0
  8 22  1  0  0  0  0
  8 23  1  0  0  0  0
  9 24  1  0  0  0  0
  9 25  1  0  0  0  0
 10 26  1  0  0  0  0
 10 27  1  0  0  0  0
 13 28  1  0  0  0  0
 14 29  1  0  0  0  0
M  END
> <pdb_id>
5ZJ2

> <uniprot_id>
C7C422

> <usmiles>
SC[C@H](C(=O)N1[C@@H](C(=O)O)CCC1)C

$$$$
MCO_B_350
          07202410153D 1   1.00000     0.00000     0
            
 29 29  0  0  0  0            999 V2000
  -35.4258  -10.5514   67.8394 S   0  0  0  0  0  0  0  0  0  0  0  0
  -34.7238   -7.2111   66.6418 O   0  0  0  0  0  0  0  0  0  0  0  0
  -34.3104   -5.6526   65.3130 O   0  0  0  0  0  0  0  0  0  0  0  0
  -33.4738   -9.7106   65.0834 O   0  0  0  0  0  0  0  0  0  0  0  0
  -32.4150   -8.3019   66.4985 N   0  0  0  0  0  0  0  0  0  0  0  0
  -31.5502  -11.6061   66.6239 C   0  0  0  0  0  0  0  0  0  0  0  0
  -34.0214  -11.5027   67.1146 C   0  0  0  0  0  0  0  0  0  0  0  0
  -31.7101   -8.0274   67.7090 C   0  0  0  0  0  0  0  0  0  0  0  0
  -30.9028   -6.7977   67.4222 C   0  0  0  0  0  0  0  0  0  0  0  0
  -31.6131   -6.1017   66.3427 C   0  0  0  0  0  0  0  0  0  0  0  0
  -33.9324   -6.6110   65.8994 C   0  0  0  0  0  0  0  0  0  0  0  0
  -32.8974   -9.5934   66.0881 C   0  0  0  0  0  0  0  0  0  0  0  0
  -32.5648   -7.0939   65.7352 C   0  0  2  0  0  0  0  0  0  0  0  0
  -32.7254  -10.7354   67.0233 C   0  0  2  0  0  0  0  0  0  0  0  0
  -36.2420  -11.1287   67.8639 H   0  0  0  0  0  0  0  0  0  0  0  0
  -34.4218   -8.0214   67.1439 H   0  0  0  0  0  0  0  0  0  0  0  0
  -30.7217  -11.0479   66.5792 H   0  0  0  0  0  0  0  0  0  0  0  0
  -31.4273  -12.3314   67.3012 H   0  0  0  0  0  0  0  0  0  0  0  0
  -31.7264  -12.0134   65.7277 H   0  0  0  0  0  0  0  0  0  0  0  0
  -34.2809  -11.7880   66.1919 H   0  0  0  0  0  0  0  0  0  0  0  0
  -33.8661  -12.3112   67.6822 H   0  0  0  0  0  0  0  0  0  0  0  0
  -31.1117   -8.7922   67.9476 H   0  0  0  0  0  0  0  0  0  0  0  0
  -32.3512   -7.8595   68.4578 H   0  0  0  0  0  0  0  0  0  0  0  0
  -29.9798   -7.0468   67.1288 H   0  0  0  0  0  0  0  0  0  0  0  0
  -30.8491   -6.2180   68.2352 H   0  0  0  0  0  0  0  0  0  0  0  0
  -30.9629   -5.7824   65.6532 H   0  0  0  0  0  0  0  0  0  0  0  0
  -32.1186   -5.3214   66.7109 H   0  0  0  0  0  0  0  0  0  0  0  0
  -32.3528   -7.2503   64.7705 H   0  0  0  0  0  0  0  0  0  0  0  0
  -32.5307  -10.3593   67.9292 H   0  0  0  0  0  0  0  0  0  0  0  0
  1  7  1  0  0  0  0
  2 11  1  0  0  0  0
  3 11  2  0  0  0  0
  4 12  2  0  0  0  0
  5  8  1  0  0  0  0
  5 12  1  0  0  0  0
  5 13  1  0  0  0  0
  6 14  1  0  0  0  0
  7 14  1  0  0  0  0
  8  9  1  0  0  0  0
  9 10  1  0  0  0  0
 10 13  1  0  0  0  0
 11 13  1  0  0  0  0
 12 14  1  0  0  0  0
  1 15  1  0  0  0  0
  2 16  1  0  0  0  0
  6 17  1  0  0  0  0
  6 18  1  0  0  0  0
  6 19  1  0  0  0  0
  7 20  1  0  0  0  0
  7 21  1  0  0  0  0
  8 22  1  0  0  0  0
  8 23  1  0  0  0  0
  9 24  1  0  0  0  0
  9 25  1  0  0  0  0
 10 26  1  0  0  0  0
 10 27  1  0  0  0  0
 13 28  1  0  0  0  0
 14 29  1  0  0  0  0
M  END
> <pdb_id>
4C1E

> <uniprot_id>
Q9K2N0

> <usmiles>
SC[C@H](C(=O)N1[C@@H](C(=O)O)CCC1)C

$$$$
MCZ_A_1
          07202400483D 1   1.00000     0.00000     0
            
 72 74  0  0  0  0            999 V2000
  -16.9410   -7.9140   31.4650 O   0  0  0  0  0  0  0  0  0  0  0  0
  -13.1550   -8.7840   29.6780 O   0  0  0  0  0  0  0  0  0  0  0  0
   -4.5510    0.4900   31.2270 O   0  0  0  0  0  0  0  0  0  0  0  0
   -8.6910   -0.3610   31.2430 O   0  0  0  0  0  0  0  0  0  0  0  0
   -9.6180    1.7850   30.6390 C   0  0  0  0  0  0  0  0  0  0  0  0
  -12.3060   -6.5770   31.1160 C   0  0  0  0  0  0  0  0  0  0  0  0
   -4.8270   -0.3290   33.4310 C   0  0  0  0  0  0  0  0  0  0  0  0
   -4.0580   -1.7820   31.5150 C   0  0  0  0  0  0  0  0  0  0  0  0
  -10.5960   -2.3120   32.4680 C   0  0  0  0  0  0  0  0  0  0  0  0
   -7.4770    0.0230   31.9030 C   0  0  0  0  0  0  0  0  0  0  0  0
  -12.9080   -1.6270   34.3860 C   0  0  0  0  0  0  0  0  0  0  0  0
  -14.1270   -2.1260   33.5710 C   0  0  0  0  0  0  0  0  0  0  0  0
  -13.7830   -3.9450   31.8130 C   0  0  0  0  0  0  0  0  0  0  0  0
  -14.5090   -5.0050   32.5270 C   0  0  0  0  0  0  0  0  0  0  0  0
  -11.2850   -0.8030   29.9000 C   0  0  0  0  0  0  0  0  0  0  0  0
  -12.3500   -1.8800   30.1090 C   0  0  0  0  0  0  0  0  0  0  0  0
   -6.4330   -1.0490   31.6080 C   0  0  0  0  0  0  0  0  0  0  0  0
  -12.0510   -0.6190   33.6160 C   0  0  0  0  0  0  0  0  0  0  0  0
  -14.8080   -9.1140   31.4370 C   0  0  0  0  0  0  0  0  0  0  0  0
  -15.2130   -7.2980   33.1190 C   0  0  0  0  0  0  0  0  0  0  0  0
  -15.8680   -8.4220   32.2920 C   0  0  1  0  0  0  0  0  0  0  0  0
  -14.1500   -8.1260   30.4680 C   0  0  1  0  0  0  0  0  0  0  0  0
   -9.7560    0.5410   31.5190 C   0  0  1  0  0  0  0  0  0  0  0  0
  -13.5920   -2.6910   32.2760 C   0  0  0  0  0  0  0  0  0  0  0  0
  -14.4370   -6.3330   32.2520 C   0  0  0  0  0  0  0  0  0  0  0  0
  -13.5960   -6.9580   31.2250 C   0  0  0  0  0  0  0  0  0  0  0  0
  -11.1190   -0.1200   31.2680 C   0  0  2  0  0  0  0  0  0  0  0  0
  -12.8270   -1.6430   31.5340 C   0  0  1  0  0  0  0  0  0  0  0  0
   -4.9920   -0.6610   31.9520 C   0  0  0  0  0  0  0  0  0  0  0  0
  -11.5960   -1.1700   32.2750 C   0  0  1  0  0  0  0  0  0  0  0  0
  -17.6232   -7.4655   32.0425 H   0  0  0  0  0  0  0  0  0  0  0  0
  -12.7368   -8.1254   29.0525 H   0  0  0  0  0  0  0  0  0  0  0  0
   -4.6404    0.3202   30.2456 H   0  0  0  0  0  0  0  0  0  0  0  0
  -10.3678    2.4169   30.8352 H   0  0  0  0  0  0  0  0  0  0  0  0
   -8.7451    2.2337   30.8306 H   0  0  0  0  0  0  0  0  0  0  0  0
   -9.6509    1.5174   29.6760 H   0  0  0  0  0  0  0  0  0  0  0  0
  -11.9708   -5.7919   31.6368 H   0  0  0  0  0  0  0  0  0  0  0  0
  -11.6853   -7.0798   30.5144 H   0  0  0  0  0  0  0  0  0  0  0  0
   -5.1242   -1.1083   33.9827 H   0  0  0  0  0  0  0  0  0  0  0  0
   -3.8656   -0.1319   33.6231 H   0  0  0  0  0  0  0  0  0  0  0  0
   -5.3829    0.4709   33.6571 H   0  0  0  0  0  0  0  0  0  0  0  0
   -4.3088   -2.6276   31.9863 H   0  0  0  0  0  0  0  0  0  0  0  0
   -4.1365   -1.9151   30.5270 H   0  0  0  0  0  0  0  0  0  0  0  0
   -3.1155   -1.5392   31.7448 H   0  0  0  0  0  0  0  0  0  0  0  0
  -10.3102   -2.6593   31.5749 H   0  0  0  0  0  0  0  0  0  0  0  0
   -9.7970   -1.9748   32.9658 H   0  0  0  0  0  0  0  0  0  0  0  0
  -11.0274   -3.0482   32.9894 H   0  0  0  0  0  0  0  0  0  0  0  0
   -7.6305    0.0873   32.8890 H   0  0  0  0  0  0  0  0  0  0  0  0
   -7.1651    0.9074   31.5558 H   0  0  0  0  0  0  0  0  0  0  0  0
  -12.3389   -2.4142   34.6238 H   0  0  0  0  0  0  0  0  0  0  0  0
  -13.2399   -1.1909   35.2224 H   0  0  0  0  0  0  0  0  0  0  0  0
  -14.7487   -1.3657   33.3829 H   0  0  0  0  0  0  0  0  0  0  0  0
  -14.6132   -2.8360   34.0804 H   0  0  0  0  0  0  0  0  0  0  0  0
  -13.4016   -4.1696   30.9163 H   0  0  0  0  0  0  0  0  0  0  0  0
  -15.1062   -4.7247   33.2785 H   0  0  0  0  0  0  0  0  0  0  0  0
  -11.5866   -0.1416   29.2133 H   0  0  0  0  0  0  0  0  0  0  0  0
  -10.4223   -1.2162   29.6085 H   0  0  0  0  0  0  0  0  0  0  0  0
  -11.9566   -2.7942   30.0120 H   0  0  0  0  0  0  0  0  0  0  0  0
  -13.1013   -1.7697   29.4584 H   0  0  0  0  0  0  0  0  0  0  0  0
   -6.4727   -1.2603   30.6314 H   0  0  0  0  0  0  0  0  0  0  0  0
   -6.6688   -1.8652   32.1354 H   0  0  0  0  0  0  0  0  0  0  0  0
  -11.2449   -0.3949   34.1638 H   0  0  0  0  0  0  0  0  0  0  0  0
  -12.5886    0.2096   33.4595 H   0  0  0  0  0  0  0  0  0  0  0  0
  -15.2395   -9.8478   30.9123 H   0  0  0  0  0  0  0  0  0  0  0  0
  -14.1065   -9.5005   32.0358 H   0  0  0  0  0  0  0  0  0  0  0  0
  -14.5885   -7.7085   33.7834 H   0  0  0  0  0  0  0  0  0  0  0  0
  -15.9289   -6.7937   33.6018 H   0  0  0  0  0  0  0  0  0  0  0  0
  -16.2505   -9.0955   32.9245 H   0  0  0  0  0  0  0  0  0  0  0  0
  -14.8575   -7.7842   29.8495 H   0  0  0  0  0  0  0  0  0  0  0  0
   -9.7037    0.8175   32.4786 H   0  0  0  0  0  0  0  0  0  0  0  0
  -11.7943    0.6171   31.2943 H   0  0  0  0  0  0  0  0  0  0  0  0
  -13.4340   -0.8497   31.4863 H   0  0  0  0  0  0  0  0  0  0  0  0
  1 21  1  0  0  0  0
  2 22  1  0  0  0  0
  3 29  1  0  0  0  0
  4 10  1  0  0  0  0
  4 23  1  0  0  0  0
  5 23  1  0  0  0  0
  6 26  2  0  0  0  0
  7 29  1  0  0  0  0
  8 29  1  0  0  0  0
  9 30  1  0  0  0  0
 10 17  1  0  0  0  0
 11 12  1  0  0  0  0
 11 18  1  0  0  0  0
 12 24  1  0  0  0  0
 13 14  1  0  0  0  0
 13 24  2  0  0  0  0
 14 25  2  0  0  0  0
 15 16  1  0  0  0  0
 15 27  1  0  0  0  0
 16 28  1  0  0  0  0
 17 29  1  0  0  0  0
 18 30  1  0  0  0  0
 19 21  1  0  0  0  0
 19 22  1  0  0  0  0
 20 21  1  0  0  0  0
 20 25  1  0  0  0  0
 22 26  1  0  0  0  0
 23 27  1  0  0  0  0
 24 28  1  0  0  0  0
 25 26  1  0  0  0  0
 27 30  1  0  0  0  0
 28 30  1  0  0  0  0
  1 31  1  0  0  0  0
  2 32  1  0  0  0  0
  3 33  1  0  0  0  0
  5 34  1  0  0  0  0
  5 35  1  0  0  0  0
  5 36  1  0  0  0  0
  6 37  1  0  0  0  0
  6 38  1  0  0  0  0
  7 39  1  0  0  0  0
  7 40  1  0  0  0  0
  7 41  1  0  0  0  0
  8 42  1  0  0  0  0
  8 43  1  0  0  0  0
  8 44  1  0  0  0  0
  9 45  1  0  0  0  0
  9 46  1  0  0  0  0
  9 47  1  0  0  0  0
 10 48  1  0  0  0  0
 10 49  1  0  0  0  0
 11 50  1  0  0  0  0
 11 51  1  0  0  0  0
 12 52  1  0  0  0  0
 12 53  1  0  0  0  0
 13 54  1  0  0  0  0
 14 55  1  0  0  0  0
 15 56  1  0  0  0  0
 15 57  1  0  0  0  0
 16 58  1  0  0  0  0
 16 59  1  0  0  0  0
 17 60  1  0  0  0  0
 17 61  1  0  0  0  0
 18 62  1  0  0  0  0
 18 63  1  0  0  0  0
 19 64  1  0  0  0  0
 19 65  1  0  0  0  0
 20 66  1  0  0  0  0
 20 67  1  0  0  0  0
 21 68  1  0  0  0  0
 22 69  1  0  0  0  0
 23 70  1  0  0  0  0
 27 71  1  0  0  0  0
 28 72  1  0  0  0  0
M  END
> <pdb_id>
3B0T

> <uniprot_id>
P11473

> <usmiles>
O([C@H]([C@@H]1[C@@]2([C@H](/C(=C/C=C/3\C(=C)[C@@H](O)C[C@H](O)C3)/CCC2)CC1)C)C)CCC(O)(C)C

$$$$
MD3_A_401
          07202402363D 1   1.00000     0.00000     0
            
 38 39  0  0  0  0            999 V2000
   -3.0860    3.9080    0.1400 S   0  0  0  0  0  0  0  0  0  0  0  0
   -1.5000   -1.2090    1.8320 O   0  0  0  0  0  0  0  0  0  0  0  0
   -1.9180   -0.9550    3.9970 O   0  0  0  0  0  0  0  0  0  0  0  0
   -4.1270    0.0620   -1.4300 O   0  0  0  0  0  0  0  0  0  0  0  0
   -4.7060    2.1220   -1.7700 O   0  0  0  0  0  0  0  0  0  0  0  0
   -4.0120    0.6340    3.2280 O   0  0  0  0  0  0  0  0  0  0  0  0
   -3.3650    0.5850    1.0330 N   0  0  0  0  0  0  0  0  0  0  0  0
   -2.6680    4.9440    1.5220 C   0  0  0  0  0  0  0  0  0  0  0  0
   -4.3410    2.8650    0.8490 C   0  0  0  0  0  0  0  0  0  0  0  0
   -0.4140    3.5120    7.4730 C   0  0  0  0  0  0  0  0  0  0  0  0
   -1.1550    4.7010    7.5180 C   0  0  0  0  0  0  0  0  0  0  0  0
   -1.3280    3.1830    2.7080 C   0  0  0  0  0  0  0  0  0  0  0  0
   -0.2890    2.8320    6.2630 C   0  0  0  0  0  0  0  0  0  0  0  0
   -1.7340    5.2050    6.3600 C   0  0  0  0  0  0  0  0  0  0  0  0
   -0.7400    2.6940    3.8680 C   0  0  0  0  0  0  0  0  0  0  0  0
   -2.1910    5.0380    3.9700 C   0  0  0  0  0  0  0  0  0  0  0  0
   -2.1510   -0.6860    2.7790 C   0  0  0  0  0  0  0  0  0  0  0  0
   -4.4070    1.1960   -0.9840 C   0  0  0  0  0  0  0  0  0  0  0  0
   -3.2460    0.2300    2.4010 C   0  0  0  0  0  0  0  0  0  0  0  0
   -2.0630    4.3640    2.7620 C   0  0  0  0  0  0  0  0  0  0  0  0
   -4.3950    1.4060    0.4960 C   0  0  1  0  0  0  0  0  0  0  0  0
   -0.8740    3.3530    5.0910 C   0  0  0  0  0  0  0  0  0  0  0  0
   -1.5940    4.5390    5.1390 C   0  0  0  0  0  0  0  0  0  0  0  0
   -1.7154   -0.9698    0.8852 H   0  0  0  0  0  0  0  0  0  0  0  0
   -3.8881   -0.6777   -0.8009 H   0  0  0  0  0  0  0  0  0  0  0  0
   -2.6752    0.2328    0.4005 H   0  0  0  0  0  0  0  0  0  0  0  0
   -3.5133    5.3983    1.8032 H   0  0  0  0  0  0  0  0  0  0  0  0
   -2.0206    5.6257    1.1813 H   0  0  0  0  0  0  0  0  0  0  0  0
   -5.2231    3.2575    0.5886 H   0  0  0  0  0  0  0  0  0  0  0  0
   -4.2327    2.9177    1.8417 H   0  0  0  0  0  0  0  0  0  0  0  0
    0.0203    3.1555    8.3003 H   0  0  0  0  0  0  0  0  0  0  0  0
   -1.2670    5.1871    8.3847 H   0  0  0  0  0  0  0  0  0  0  0  0
   -1.2243    2.6916    1.8432 H   0  0  0  0  0  0  0  0  0  0  0  0
    0.2179    1.9708    6.2260 H   0  0  0  0  0  0  0  0  0  0  0  0
   -2.2580    6.0557    6.4005 H   0  0  0  0  0  0  0  0  0  0  0  0
   -0.2074    1.8487    3.8256 H   0  0  0  0  0  0  0  0  0  0  0  0
   -2.7148    5.8890    4.0076 H   0  0  0  0  0  0  0  0  0  0  0  0
   -5.2621    1.0530    0.8475 H   0  0  0  0  0  0  0  0  0  0  0  0
  1  8  1  0  0  0  0
  1  9  1  0  0  0  0
  2 17  1  0  0  0  0
  3 17  2  0  0  0  0
  4 18  1  0  0  0  0
  5 18  2  0  0  0  0
  6 19  2  0  0  0  0
  7 19  1  0  0  0  0
  7 21  1  0  0  0  0
  8 20  1  0  0  0  0
  9 21  1  0  0  0  0
 10 11  1  0  0  0  0
 10 13  2  0  0  0  0
 11 14  2  0  0  0  0
 12 15  1  0  0  0  0
 12 20  2  0  0  0  0
 13 22  1  0  0  0  0
 14 23  1  0  0  0  0
 15 22  2  0  0  0  0
 16 20  1  0  0  0  0
 16 23  2  0  0  0  0
 17 19  1  0  0  0  0
 18 21  1  0  0  0  0
 22 23  1  0  0  0  0
  2 24  1  0  0  0  0
  4 25  1  0  0  0  0
  7 26  1  0  0  0  0
  8 27  1  0  0  0  0
  8 28  1  0  0  0  0
  9 29  1  0  0  0  0
  9 30  1  0  0  0  0
 10 31  1  0  0  0  0
 11 32  1  0  0  0  0
 12 33  1  0  0  0  0
 13 34  1  0  0  0  0
 14 35  1  0  0  0  0
 15 36  1  0  0  0  0
 16 37  1  0  0  0  0
 21 38  1  0  0  0  0
M  END
> <pdb_id>
3T4V

> <uniprot_id>
P05050

> <usmiles>
S(Cc1cc2c(cc1)cccc2)C[C@H](NC(=O)C(=O)O)C(=O)O

$$$$
MD5_B_217
          07202402363D 1   1.00000     0.00000     0
            
 34 34  0  0  0  0            999 V2000
   -1.5094    2.8142    2.2122 S   0  0  0  0  0  0  0  0  0  0  0  0
   -2.8364    6.5486    8.4490 O   0  0  0  0  0  0  0  0  0  0  0  0
   -4.1778    6.7262    6.5165 O   0  5  0  0  0  0  0  0  0  0  0  0
   -2.9066   -1.8427    4.0374 O   0  0  0  0  0  0  0  0  0  0  0  0
   -2.1970   -2.1558    2.0043 O   0  0  0  0  0  0  0  0  0  0  0  0
   -4.3782    2.2181   -1.5193 O   0  0  0  0  0  0  0  0  0  0  0  0
   -4.0295    0.0628   -1.2664 O   0  0  0  0  0  0  0  0  0  0  0  0
   -3.9401    0.5707    3.2609 O   0  0  0  0  0  0  0  0  0  0  0  0
   -3.1330    0.2243    1.1604 N   0  0  0  0  0  0  0  0  0  0  0  0
   -3.0696    6.1919    7.2530 N   0  3  0  0  0  0  0  0  0  0  0  0
   -2.4121    2.4619    0.6263 C   0  0  0  0  0  0  0  0  0  0  0  0
   -2.5178    3.9250    3.2093 C   0  0  0  0  0  0  0  0  0  0  0  0
   -0.4661    3.7595    6.3471 C   0  0  0  0  0  0  0  0  0  0  0  0
   -1.1690    4.6629    7.1597 C   0  0  0  0  0  0  0  0  0  0  0  0
   -0.8832    3.4925    5.0318 C   0  0  0  0  0  0  0  0  0  0  0  0
   -2.6875    5.0270    5.3255 C   0  0  0  0  0  0  0  0  0  0  0  0
   -2.7715   -1.4428    2.8545 C   0  0  0  0  0  0  0  0  0  0  0  0
   -4.0603    1.2379   -0.8320 C   0  0  0  0  0  0  0  0  0  0  0  0
   -3.3325   -0.1085    2.4501 C   0  0  0  0  0  0  0  0  0  0  0  0
   -3.6306    1.5073    0.6361 C   0  0  1  0  0  0  0  0  0  0  0  0
   -2.2915    5.3062    6.6241 C   0  0  0  0  0  0  0  0  0  0  0  0
   -2.0035    4.1398    4.5071 C   0  0  0  0  0  0  0  0  0  0  0  0
   -3.3678   -1.2651    4.7109 H   0  0  0  0  0  0  0  0  0  0  0  0
   -4.3834    3.1323   -1.1141 H   0  0  0  0  0  0  0  0  0  0  0  0
   -2.6439   -0.4037    0.5551 H   0  0  0  0  0  0  0  0  0  0  0  0
   -1.7439    2.0735   -0.0081 H   0  0  0  0  0  0  0  0  0  0  0  0
   -2.7345    3.3407    0.2742 H   0  0  0  0  0  0  0  0  0  0  0  0
   -3.4336    3.5322    3.2926 H   0  0  0  0  0  0  0  0  0  0  0  0
   -2.5746    4.8069    2.7413 H   0  0  0  0  0  0  0  0  0  0  0  0
    0.3440    3.2988    6.7096 H   0  0  0  0  0  0  0  0  0  0  0  0
   -0.8751    4.8427    8.0985 H   0  0  0  0  0  0  0  0  0  0  0  0
   -0.3768    2.8377    4.4707 H   0  0  0  0  0  0  0  0  0  0  0  0
   -3.4999    5.4841    4.9635 H   0  0  0  0  0  0  0  0  0  0  0  0
   -4.3839    1.8686    1.1856 H   0  0  0  0  0  0  0  0  0  0  0  0
  1 11  1  0  0  0  0
  1 12  1  0  0  0  0
  2 10  2  0  0  0  0
  3 10  1  0  0  0  0
  4 17  1  0  0  0  0
  5 17  2  0  0  0  0
  6 18  1  0  0  0  0
  7 18  2  0  0  0  0
  8 19  2  0  0  0  0
  9 19  1  0  0  0  0
  9 20  1  0  0  0  0
 10 21  1  0  0  0  0
 11 20  1  0  0  0  0
 12 22  1  0  0  0  0
 13 14  1  0  0  0  0
 13 15  2  0  0  0  0
 14 21  2  0  0  0  0
 15 22  1  0  0  0  0
 16 21  1  0  0  0  0
 16 22  2  0  0  0  0
 17 19  1  0  0  0  0
 18 20  1  0  0  0  0
  4 23  1  0  0  0  0
  6 24  1  0  0  0  0
  9 25  1  0  0  0  0
 11 26  1  0  0  0  0
 11 27  1  0  0  0  0
 12 28  1  0  0  0  0
 12 29  1  0  0  0  0
 13 30  1  0  0  0  0
 14 31  1  0  0  0  0
 15 32  1  0  0  0  0
 16 33  1  0  0  0  0
 20 34  1  0  0  0  0
M  CHG  2   3  -1  10   1
M  END
> <pdb_id>
3T4H

> <uniprot_id>
P05050

> <usmiles>
S(Cc1cc([N+]([O-])=O)ccc1)C[C@H](NC(=O)C(=O)O)C(=O)O

$$$$
MD6_A_401
          07202402363D 1   1.00000     0.00000     0
            
 22 22  0  0  0  0            999 V2000
   -4.1047    3.2127   -1.3594 O   0  0  0  0  0  0  0  0  0  0  0  0
   -4.7567    1.1927   -1.9936 O   0  0  0  0  0  0  0  0  0  0  0  0
   -3.4245    0.8992    2.8326 O   0  0  0  0  0  0  0  0  0  0  0  0
   -1.9490    4.3432    1.3733 O   0  0  0  0  0  0  0  0  0  0  0  0
   -3.2127    2.2056    0.9782 N   0  0  0  0  0  0  0  0  0  0  0  0
   -1.5623    2.2196    4.2799 N   0  0  0  0  0  0  0  0  0  0  0  0
   -0.6832    2.8985    5.0196 C   0  0  0  0  0  0  0  0  0  0  0  0
   -4.1164    1.4059    0.2776 C   0  0  0  0  0  0  0  0  0  0  0  0
   -0.1931    4.1102    4.5710 C   0  0  0  0  0  0  0  0  0  0  0  0
   -0.6070    4.6321    3.3369 C   0  0  0  0  0  0  0  0  0  0  0  0
   -4.3577    1.9416   -1.1119 C   0  0  0  0  0  0  0  0  0  0  0  0
   -2.9059    1.8856    2.3258 C   0  0  0  0  0  0  0  0  0  0  0  0
   -1.5071    3.8988    2.5801 C   0  0  0  0  0  0  0  0  0  0  0  0
   -1.9539    2.6983    3.0942 C   0  0  0  0  0  0  0  0  0  0  0  0
   -3.7792    3.8098   -0.6262 H   0  0  0  0  0  0  0  0  0  0  0  0
   -2.5987    3.7954    0.8462 H   0  0  0  0  0  0  0  0  0  0  0  0
   -2.7865    2.9946    0.5357 H   0  0  0  0  0  0  0  0  0  0  0  0
   -0.3791    2.5305    5.8983 H   0  0  0  0  0  0  0  0  0  0  0  0
   -4.9844    1.3835    0.7736 H   0  0  0  0  0  0  0  0  0  0  0  0
   -3.7471    0.4790    0.2100 H   0  0  0  0  0  0  0  0  0  0  0  0
    0.4614    4.6186    5.1306 H   0  0  0  0  0  0  0  0  0  0  0  0
   -0.2611    5.5119    3.0110 H   0  0  0  0  0  0  0  0  0  0  0  0
  1 11  1  0  0  0  0
  2 11  2  0  0  0  0
  3 12  2  0  0  0  0
  4 13  1  0  0  0  0
  5  8  1  0  0  0  0
  5 12  1  0  0  0  0
  6  7  1  0  0  0  0
  6 14  2  0  0  0  0
  7  9  2  0  0  0  0
  8 11  1  0  0  0  0
  9 10  1  0  0  0  0
 10 13  2  0  0  0  0
 12 14  1  0  0  0  0
 13 14  1  0  0  0  0
  1 15  1  0  0  0  0
  4 16  1  0  0  0  0
  5 17  1  0  0  0  0
  7 18  1  0  0  0  0
  8 19  1  0  0  0  0
  8 20  1  0  0  0  0
  9 21  1  0  0  0  0
 10 22  1  0  0  0  0
M  END
> <pdb_id>
3T3Y

> <uniprot_id>
P05050

> <usmiles>
O=C(O)CNC(=O)c1ncccc1O

$$$$
MD6_A_602
          07202406443D 1   1.00000     0.00000     0
            
 22 22  0  0  0  0            999 V2000
   34.1240   -8.5670  -21.5990 O   0  0  0  0  0  0  0  0  0  0  0  0
   34.6190   -6.8990  -20.2440 O   0  0  0  0  0  0  0  0  0  0  0  0
   31.3330   -5.3350  -23.6750 O   0  0  0  0  0  0  0  0  0  0  0  0
   31.3670   -9.4120  -24.3130 O   0  0  0  0  0  0  0  0  0  0  0  0
   32.1530   -7.2140  -22.8350 N   0  0  0  0  0  0  0  0  0  0  0  0
   29.3250   -6.5040  -24.9400 N   0  0  0  0  0  0  0  0  0  0  0  0
   28.3460   -6.9960  -25.7140 C   0  0  0  0  0  0  0  0  0  0  0  0
   32.9310   -6.4560  -21.8710 C   0  0  0  0  0  0  0  0  0  0  0  0
   28.3550   -8.3500  -26.0400 C   0  0  0  0  0  0  0  0  0  0  0  0
   29.3700   -9.1870  -25.5750 C   0  0  0  0  0  0  0  0  0  0  0  0
   33.9430   -7.3290  -21.1750 C   0  0  0  0  0  0  0  0  0  0  0  0
   31.3560   -6.5540  -23.6380 C   0  0  0  0  0  0  0  0  0  0  0  0
   30.3730   -8.6230  -24.7680 C   0  0  0  0  0  0  0  0  0  0  0  0
   30.3330   -7.2710  -24.4800 C   0  0  0  0  0  0  0  0  0  0  0  0
   33.5758   -8.9212  -22.3567 H   0  0  0  0  0  0  0  0  0  0  0  0
   32.0882   -9.0260  -23.7377 H   0  0  0  0  0  0  0  0  0  0  0  0
   32.2237   -8.2103  -22.8843 H   0  0  0  0  0  0  0  0  0  0  0  0
   27.6192   -6.3983  -26.0525 H   0  0  0  0  0  0  0  0  0  0  0  0
   32.3130   -6.0661  -21.1883 H   0  0  0  0  0  0  0  0  0  0  0  0
   33.4099   -5.7184  -22.3470 H   0  0  0  0  0  0  0  0  0  0  0  0
   27.6268   -8.7261  -26.6130 H   0  0  0  0  0  0  0  0  0  0  0  0
   29.3834  -10.1592  -25.8090 H   0  0  0  0  0  0  0  0  0  0  0  0
  1 11  1  0  0  0  0
  2 11  2  0  0  0  0
  3 12  2  0  0  0  0
  4 13  1  0  0  0  0
  5  8  1  0  0  0  0
  5 12  1  0  0  0  0
  6  7  1  0  0  0  0
  6 14  2  0  0  0  0
  7  9  2  0  0  0  0
  8 11  1  0  0  0  0
  9 10  1  0  0  0  0
 10 13  2  0  0  0  0
 12 14  1  0  0  0  0
 13 14  1  0  0  0  0
  1 15  1  0  0  0  0
  4 16  1  0  0  0  0
  5 17  1  0  0  0  0
  7 18  1  0  0  0  0
  8 19  1  0  0  0  0
  8 20  1  0  0  0  0
  9 21  1  0  0  0  0
 10 22  1  0  0  0  0
M  END
> <pdb_id>
4IE5

> <uniprot_id>
Q9C0B1

> <usmiles>
O=C(O)CNC(=O)c1ncccc1O

$$$$
ME1_A_1
          07192422073D 1   1.00000     0.00000     0
            
 43 45  0  0  0  0            999 V2000
   42.2925   28.7775   12.1803 Cl  0  0  0  0  0  0  0  0  0  0  0  0
   38.9969   28.7798   12.0248 S   0  0  0  0  0  0  0  0  0  0  0  0
   37.0417   27.1030   15.0580 O   0  0  0  0  0  0  0  0  0  0  0  0
   34.5722   28.3201   17.3733 O   0  0  0  0  0  0  0  0  0  0  0  0
   34.7389   33.4107   21.6743 O   0  0  0  0  0  0  0  0  0  0  0  0
   35.9118   27.9510   13.3157 N   0  0  0  0  0  0  0  0  0  0  0  0
   34.6898   29.6948   15.5805 N   0  0  0  0  0  0  0  0  0  0  0  0
   36.6749   33.6759   20.3621 N   0  0  0  0  0  0  0  0  0  0  0  0
   34.7598   27.5506   14.1463 C   0  0  0  0  0  0  0  0  0  0  0  0
   33.9793   28.7220   14.7387 C   0  0  0  0  0  0  0  0  0  0  0  0
   37.9210   34.2844   20.1568 C   0  0  0  0  0  0  0  0  0  0  0  0
   38.4179   35.1229   21.2105 C   0  0  0  0  0  0  0  0  0  0  0  0
   37.7141   35.3336   22.4452 C   0  0  0  0  0  0  0  0  0  0  0  0
   40.5722   27.6691   13.7297 C   0  0  0  0  0  0  0  0  0  0  0  0
   36.4213   34.7412   22.6540 C   0  0  0  0  0  0  0  0  0  0  0  0
   39.3325   27.3795   14.1675 C   0  0  0  0  0  0  0  0  0  0  0  0
   36.4639   31.2876   19.8292 C   0  0  0  0  0  0  0  0  0  0  0  0
   35.4672   33.0340   18.2358 C   0  0  0  0  0  0  0  0  0  0  0  0
   35.9685   30.2147   18.9797 C   0  0  0  0  0  0  0  0  0  0  0  0
   34.9666   31.9532   17.3872 C   0  0  0  0  0  0  0  0  0  0  0  0
   40.6081   28.4091   12.6045 C   0  0  0  0  0  0  0  0  0  0  0  0
   37.0698   27.6442   13.9404 C   0  0  0  0  0  0  0  0  0  0  0  0
   34.8080   29.4331   16.9061 C   0  0  0  0  0  0  0  0  0  0  0  0
   38.3379   27.9151   13.3755 C   0  0  0  0  0  0  0  0  0  0  0  0
   35.8665   33.8967   21.5556 C   0  0  0  0  0  0  0  0  0  0  0  0
   36.2333   32.6963   19.4564 C   0  0  0  0  0  0  0  0  0  0  0  0
   35.2396   30.5565   17.7572 C   0  0  0  0  0  0  0  0  0  0  0  0
   35.8449   28.3872   12.4184 H   0  0  0  0  0  0  0  0  0  0  0  0
   35.0763   30.5285   15.1860 H   0  0  0  0  0  0  0  0  0  0  0  0
   35.0971   26.9855   14.8992 H   0  0  0  0  0  0  0  0  0  0  0  0
   34.1360   27.0126   13.5793 H   0  0  0  0  0  0  0  0  0  0  0  0
   33.5850   29.2295   13.9725 H   0  0  0  0  0  0  0  0  0  0  0  0
   33.2445   28.3339   15.2949 H   0  0  0  0  0  0  0  0  0  0  0  0
   38.4402   34.1408   19.3143 H   0  0  0  0  0  0  0  0  0  0  0  0
   39.2962   35.5825   21.0790 H   0  0  0  0  0  0  0  0  0  0  0  0
   38.1257   35.8953   23.1629 H   0  0  0  0  0  0  0  0  0  0  0  0
   41.3984   27.3603   14.2009 H   0  0  0  0  0  0  0  0  0  0  0  0
   35.9131   34.8892   23.5025 H   0  0  0  0  0  0  0  0  0  0  0  0
   39.1509   26.8315   14.9841 H   0  0  0  0  0  0  0  0  0  0  0  0
   36.9622   31.0692   20.6682 H   0  0  0  0  0  0  0  0  0  0  0  0
   35.2942   33.9889   17.9945 H   0  0  0  0  0  0  0  0  0  0  0  0
   36.1237   29.2584   19.2274 H   0  0  0  0  0  0  0  0  0  0  0  0
   34.4426   32.1625   16.5616 H   0  0  0  0  0  0  0  0  0  0  0  0
  1 21  1  0  0  0  0
  2 21  1  0  0  0  0
  2 24  1  0  0  0  0
  3 22  2  0  0  0  0
  4 23  2  0  0  0  0
  5 25  2  0  0  0  0
  6  9  1  0  0  0  0
  6 22  1  0  0  0  0
  7 10  1  0  0  0  0
  7 23  1  0  0  0  0
  8 11  1  0  0  0  0
  8 25  1  0  0  0  0
  8 26  1  0  0  0  0
  9 10  1  0  0  0  0
 11 12  2  0  0  0  0
 12 13  1  0  0  0  0
 13 15  2  0  0  0  0
 14 16  1  0  0  0  0
 14 21  2  0  0  0  0
 15 25  1  0  0  0  0
 16 24  2  0  0  0  0
 17 19  1  0  0  0  0
 17 26  2  0  0  0  0
 18 20  2  0  0  0  0
 18 26  1  0  0  0  0
 19 27  2  0  0  0  0
 20 27  1  0  0  0  0
 22 24  1  0  0  0  0
 23 27  1  0  0  0  0
  6 28  1  0  0  0  0
  7 29  1  0  0  0  0
  9 30  1  0  0  0  0
  9 31  1  0  0  0  0
 10 32  1  0  0  0  0
 10 33  1  0  0  0  0
 11 34  1  0  0  0  0
 12 35  1  0  0  0  0
 13 36  1  0  0  0  0
 14 37  1  0  0  0  0
 15 38  1  0  0  0  0
 16 39  1  0  0  0  0
 17 40  1  0  0  0  0
 18 41  1  0  0  0  0
 19 42  1  0  0  0  0
 20 43  1  0  0  0  0
M  END
> <pdb_id>
2P93

> <uniprot_id>
P00742

> <usmiles>
ClC=1SC(C(=O)NCCNC(=O)c2ccc(N3C(=O)C=CC=C3)cc2)=CC1

$$$$
MEX_A_1
          07192420423D 1   1.00000     0.00000     0
            
 28 30  0  0  0  0            999 V2000
   66.0819   33.9746   21.4393 O   0  0  0  0  0  0  0  0  0  0  0  0
   67.0873   32.2833   27.6182 O   0  0  0  0  0  0  0  0  0  0  0  0
   64.5139   34.3219   24.1077 O   0  0  0  0  0  0  0  0  0  0  0  0
   66.4197   36.2613   21.0107 N   0  0  0  0  0  0  0  0  0  0  0  0
   66.6874   35.4805   23.0808 N   0  0  0  0  0  0  0  0  0  0  0  0
   67.2488   39.4964   22.5520 C   0  0  0  0  0  0  0  0  0  0  0  0
   67.4056   39.0234   23.8429 C   0  0  0  0  0  0  0  0  0  0  0  0
   66.9237   38.6566   21.5076 C   0  0  0  0  0  0  0  0  0  0  0  0
   68.1394   33.5665   25.9017 C   0  0  0  0  0  0  0  0  0  0  0  0
   67.2556   37.6893   24.1515 C   0  0  0  0  0  0  0  0  0  0  0  0
   68.0818   34.3717   24.7785 C   0  0  0  0  0  0  0  0  0  0  0  0
   65.7356   33.2579   25.8739 C   0  0  0  0  0  0  0  0  0  0  0  0
   66.3472   35.1084   21.8012 C   0  0  0  0  0  0  0  0  0  0  0  0
   66.9836   33.0316   26.4436 C   0  0  0  0  0  0  0  0  0  0  0  0
   65.7135   34.0365   24.7322 C   0  0  0  0  0  0  0  0  0  0  0  0
   66.7691   37.3281   21.8336 C   0  0  0  0  0  0  0  0  0  0  0  0
   66.8469   34.6192   24.2064 C   0  0  0  0  0  0  0  0  0  0  0  0
   66.9375   36.8596   23.1098 C   0  0  0  0  0  0  0  0  0  0  0  0
   66.2683   31.8853   28.0314 H   0  0  0  0  0  0  0  0  0  0  0  0
   64.5019   34.8856   23.2818 H   0  0  0  0  0  0  0  0  0  0  0  0
   66.2500   36.3100   20.0264 H   0  0  0  0  0  0  0  0  0  0  0  0
   67.3744   40.4720   22.3719 H   0  0  0  0  0  0  0  0  0  0  0  0
   67.6341   39.6682   24.5723 H   0  0  0  0  0  0  0  0  0  0  0  0
   66.8076   38.9915   20.5726 H   0  0  0  0  0  0  0  0  0  0  0  0
   69.0234   33.3692   26.3256 H   0  0  0  0  0  0  0  0  0  0  0  0
   67.3724   37.3463   25.0835 H   0  0  0  0  0  0  0  0  0  0  0  0
   68.9140   34.7661   24.3889 H   0  0  0  0  0  0  0  0  0  0  0  0
   64.8993   32.8779   26.2690 H   0  0  0  0  0  0  0  0  0  0  0  0
  1 13  2  0  0  0  0
  2 14  1  0  0  0  0
  3 15  1  0  0  0  0
  4 13  1  0  0  0  0
  4 16  1  0  0  0  0
  5 13  1  0  0  0  0
  5 17  1  0  0  0  0
  5 18  1  0  0  0  0
  6  7  2  0  0  0  0
  6  8  1  0  0  0  0
  7 10  1  0  0  0  0
  8 16  2  0  0  0  0
  9 11  1  0  0  0  0
  9 14  2  0  0  0  0
 10 18  2  0  0  0  0
 11 17  2  0  0  0  0
 12 14  1  0  0  0  0
 12 15  2  0  0  0  0
 15 17  1  0  0  0  0
 16 18  1  0  0  0  0
  2 19  1  0  0  0  0
  3 20  1  0  0  0  0
  4 21  1  0  0  0  0
  6 22  1  0  0  0  0
  7 23  1  0  0  0  0
  8 24  1  0  0  0  0
  9 25  1  0  0  0  0
 10 26  1  0  0  0  0
 11 27  1  0  0  0  0
 12 28  1  0  0  0  0
M  END
> <pdb_id>
3OW6

> <uniprot_id>
P07900

> <usmiles>
O=C1N(c2c(O)cc(O)cc2)c3c(N1)cccc3

$$$$
MFU_A_400
          07192418323D 1   1.00000     0.00000     0
            
 26 26  0  0  0  0            999 V2000
    4.6899    7.3999   -0.4578 O   0  0  0  0  0  0  0  0  0  0  0  0
    7.0274    7.7504   -1.8876 O   0  0  0  0  0  0  0  0  0  0  0  0
    7.0916   10.4492   -2.1015 O   0  0  0  0  0  0  0  0  0  0  0  0
    2.9506    8.7484   -2.2107 O   0  0  0  0  0  0  0  0  0  0  0  0
    4.1703   10.7218   -1.9622 O   0  0  0  0  0  0  0  0  0  0  0  0
    1.7092    9.4171   -2.5199 C   0  0  0  0  0  0  0  0  0  0  0  0
    5.1829   11.8963   -3.8049 C   0  0  0  0  0  0  0  0  0  0  0  0
    3.7727    9.5076   -1.3362 C   0  0  2  0  0  0  0  0  0  0  0  0
    5.0029    8.6811   -1.0041 C   0  0  2  0  0  0  0  0  0  0  0  0
    5.8227    8.4519   -2.2603 C   0  0  1  0  0  0  0  0  0  0  0  0
    6.1616    9.7557   -2.9511 C   0  0  1  0  0  0  0  0  0  0  0  0
    4.8833   10.5384   -3.2014 C   0  0  1  0  0  0  0  0  0  0  0  0
    5.5365    6.9056   -0.2608 H   0  0  0  0  0  0  0  0  0  0  0  0
    7.5844    7.5884   -2.7021 H   0  0  0  0  0  0  0  0  0  0  0  0
    7.3426   11.3205   -2.5233 H   0  0  0  0  0  0  0  0  0  0  0  0
    1.1672    8.8455   -3.1359 H   0  0  0  0  0  0  0  0  0  0  0  0
    1.1970    9.5762   -1.6758 H   0  0  0  0  0  0  0  0  0  0  0  0
    1.9034   10.2927   -2.9620 H   0  0  0  0  0  0  0  0  0  0  0  0
    5.6779   11.7767   -4.6655 H   0  0  0  0  0  0  0  0  0  0  0  0
    4.3253   12.3806   -3.9781 H   0  0  0  0  0  0  0  0  0  0  0  0
    5.7431   12.4273   -3.1692 H   0  0  0  0  0  0  0  0  0  0  0  0
    3.2697    9.7123   -0.4965 H   0  0  0  0  0  0  0  0  0  0  0  0
    5.5601    9.1847   -0.3439 H   0  0  0  0  0  0  0  0  0  0  0  0
    5.2970    7.8797   -2.8897 H   0  0  0  0  0  0  0  0  0  0  0  0
    6.6020    9.5581   -3.8269 H   0  0  0  0  0  0  0  0  0  0  0  0
    4.3060   10.0225   -3.8343 H   0  0  0  0  0  0  0  0  0  0  0  0
  1  9  1  0  0  0  0
  2 10  1  0  0  0  0
  3 11  1  0  0  0  0
  4  6  1  0  0  0  0
  4  8  1  0  0  0  0
  5  8  1  0  0  0  0
  5 12  1  0  0  0  0
  7 12  1  0  0  0  0
  8  9  1  0  0  0  0
  9 10  1  0  0  0  0
 10 11  1  0  0  0  0
 11 12  1  0  0  0  0
  1 13  1  0  0  0  0
  2 14  1  0  0  0  0
  3 15  1  0  0  0  0
  6 16  1  0  0  0  0
  6 17  1  0  0  0  0
  6 18  1  0  0  0  0
  7 19  1  0  0  0  0
  7 20  1  0  0  0  0
  7 21  1  0  0  0  0
  8 22  1  0  0  0  0
  9 23  1  0  0  0  0
 10 24  1  0  0  0  0
 11 25  1  0  0  0  0
 12 26  1  0  0  0  0
M  END
> <pdb_id>
2BOI

> <uniprot_id>
Q7NX84

> <usmiles>
O1[C@@H](OC)[C@@H](O)[C@H](O)[C@H](O)[C@@H]1C

$$$$
MFU_B_1090
          07192418313D 1   1.00000     0.00000     0
            
 26 26  0  0  0  0            999 V2000
  -26.3230    8.3900   -7.0010 O   0  0  0  0  0  0  0  0  0  0  0  0
  -23.6610    8.4730   -5.9610 O   0  0  0  0  0  0  0  0  0  0  0  0
  -23.0750   11.1410   -7.0390 O   0  0  0  0  0  0  0  0  0  0  0  0
  -25.5750    8.6080   -9.6470 O   0  0  0  0  0  0  0  0  0  0  0  0
  -24.6670   10.7300   -9.3200 O   0  0  0  0  0  0  0  0  0  0  0  0
  -25.9400    8.9180  -11.0710 C   0  0  0  0  0  0  0  0  0  0  0  0
  -22.4410   11.3270   -9.8440 C   0  0  0  0  0  0  0  0  0  0  0  0
  -25.6290    9.7250   -8.8500 C   0  0  2  0  0  0  0  0  0  0  0  0
  -25.3790    9.3890   -7.4400 C   0  0  2  0  0  0  0  0  0  0  0  0
  -23.9420    8.8870   -7.3070 C   0  0  1  0  0  0  0  0  0  0  0  0
  -22.9820    9.9160   -7.8060 C   0  0  1  0  0  0  0  0  0  0  0  0
  -23.3050   10.2720   -9.2750 C   0  0  1  0  0  0  0  0  0  0  0  0
  -26.1488    8.1652   -6.0423 H   0  0  0  0  0  0  0  0  0  0  0  0
  -22.7165    8.1498   -5.9020 H   0  0  0  0  0  0  0  0  0  0  0  0
  -22.4217   11.8085   -7.3964 H   0  0  0  0  0  0  0  0  0  0  0  0
  -25.8890    8.0822  -11.6177 H   0  0  0  0  0  0  0  0  0  0  0  0
  -26.8707    9.2822  -11.1048 H   0  0  0  0  0  0  0  0  0  0  0  0
  -25.3032    9.5959  -11.4383 H   0  0  0  0  0  0  0  0  0  0  0  0
  -21.4878   11.0256   -9.8210 H   0  0  0  0  0  0  0  0  0  0  0  0
  -22.7115   11.5052  -10.7901 H   0  0  0  0  0  0  0  0  0  0  0  0
  -22.5389   12.1642   -9.3060 H   0  0  0  0  0  0  0  0  0  0  0  0
  -26.5473   10.1147   -8.9202 H   0  0  0  0  0  0  0  0  0  0  0  0
  -25.4909   10.2119   -6.8829 H   0  0  0  0  0  0  0  0  0  0  0  0
  -23.8502    8.0822   -7.8934 H   0  0  0  0  0  0  0  0  0  0  0  0
  -22.0503    9.5573   -7.7480 H   0  0  0  0  0  0  0  0  0  0  0  0
  -23.2214    9.4474   -9.8345 H   0  0  0  0  0  0  0  0  0  0  0  0
  1  9  1  0  0  0  0
  2 10  1  0  0  0  0
  3 11  1  0  0  0  0
  4  6  1  0  0  0  0
  4  8  1  0  0  0  0
  5  8  1  0  0  0  0
  5 12  1  0  0  0  0
  7 12  1  0  0  0  0
  8  9  1  0  0  0  0
  9 10  1  0  0  0  0
 10 11  1  0  0  0  0
 11 12  1  0  0  0  0
  1 13  1  0  0  0  0
  2 14  1  0  0  0  0
  3 15  1  0  0  0  0
  6 16  1  0  0  0  0
  6 17  1  0  0  0  0
  6 18  1  0  0  0  0
  7 19  1  0  0  0  0
  7 20  1  0  0  0  0
  7 21  1  0  0  0  0
  8 22  1  0  0  0  0
  9 23  1  0  0  0  0
 10 24  1  0  0  0  0
 11 25  1  0  0  0  0
 12 26  1  0  0  0  0
M  END
> <pdb_id>
2BT9

> <uniprot_id>
Q8XXK6

> <usmiles>
O1[C@@H](OC)[C@@H](O)[C@H](O)[C@H](O)[C@@H]1C

$$$$
MFU_C_1117
          07192421293D 1   1.00000     0.00000     0
            
 26 26  0  0  0  0            999 V2000
  -25.5590  -15.1430   11.0360 O   0  0  0  0  0  0  0  0  0  0  0  0
  -24.4530  -13.7820    8.8360 O   0  0  0  0  0  0  0  0  0  0  0  0
  -26.6120  -12.4860    7.8160 O   0  0  0  0  0  0  0  0  0  0  0  0
  -27.6670  -16.5580    9.6590 O   0  0  0  0  0  0  0  0  0  0  0  0
  -28.5910  -14.4680    9.0030 O   0  0  0  0  0  0  0  0  0  0  0  0
  -28.8960  -17.2780    9.8600 C   0  0  0  0  0  0  0  0  0  0  0  0
  -28.9690  -13.7260    6.6960 C   0  0  0  0  0  0  0  0  0  0  0  0
  -27.7990  -15.1680    9.9840 C   0  0  2  0  0  0  0  0  0  0  0  0
  -26.4170  -14.5040   10.0690 C   0  0  2  0  0  0  0  0  0  0  0  0
  -25.7070  -14.4950    8.7220 C   0  0  1  0  0  0  0  0  0  0  0  0
  -26.6040  -13.9030    7.6330 C   0  0  1  0  0  0  0  0  0  0  0  0
  -28.0420  -14.4750    7.6640 C   0  0  1  0  0  0  0  0  0  0  0  0
  -24.6741  -14.6776   11.0555 H   0  0  0  0  0  0  0  0  0  0  0  0
  -23.9899  -13.7783    7.9497 H   0  0  0  0  0  0  0  0  0  0  0  0
  -27.1909  -12.0631    7.1188 H   0  0  0  0  0  0  0  0  0  0  0  0
  -28.7613  -18.2401    9.6227 H   0  0  0  0  0  0  0  0  0  0  0  0
  -29.1712  -17.2065   10.8187 H   0  0  0  0  0  0  0  0  0  0  0  0
  -29.6098  -16.8880    9.2783 H   0  0  0  0  0  0  0  0  0  0  0  0
  -28.5741  -13.7412    5.7774 H   0  0  0  0  0  0  0  0  0  0  0  0
  -29.8647  -14.1704    6.6812 H   0  0  0  0  0  0  0  0  0  0  0  0
  -29.0719  -12.7786    6.9990 H   0  0  0  0  0  0  0  0  0  0  0  0
  -28.2479  -15.0884   10.8740 H   0  0  0  0  0  0  0  0  0  0  0  0
  -26.5486  -13.5546   10.3540 H   0  0  0  0  0  0  0  0  0  0  0  0
  -25.5029  -15.4419    8.4736 H   0  0  0  0  0  0  0  0  0  0  0  0
  -26.1994  -14.1067    6.7415 H   0  0  0  0  0  0  0  0  0  0  0  0
  -27.9951  -15.4270    7.3617 H   0  0  0  0  0  0  0  0  0  0  0  0
  1  9  1  0  0  0  0
  2 10  1  0  0  0  0
  3 11  1  0  0  0  0
  4  6  1  0  0  0  0
  4  8  1  0  0  0  0
  5  8  1  0  0  0  0
  5 12  1  0  0  0  0
  7 12  1  0  0  0  0
  8  9  1  0  0  0  0
  9 10  1  0  0  0  0
 10 11  1  0  0  0  0
 11 12  1  0  0  0  0
  1 13  1  0  0  0  0
  2 14  1  0  0  0  0
  3 15  1  0  0  0  0
  6 16  1  0  0  0  0
  6 17  1  0  0  0  0
  6 18  1  0  0  0  0
  7 19  1  0  0  0  0
  7 20  1  0  0  0  0
  7 21  1  0  0  0  0
  8 22  1  0  0  0  0
  9 23  1  0  0  0  0
 10 24  1  0  0  0  0
 11 25  1  0  0  0  0
 12 26  1  0  0  0  0
M  END
> <pdb_id>
2JDM

> <uniprot_id>
Q9HYN5

> <usmiles>
O1[C@@H](OC)[C@@H](O)[C@H](O)[C@H](O)[C@@H]1C

$$$$
MFU_D_1117
          07192421303D 1   1.00000     0.00000     0
            
 26 26  0  0  0  0            999 V2000
   24.9704   -5.2544   25.7653 O   0  0  0  0  0  0  0  0  0  0  0  0
   22.8766   -7.1196   25.5586 O   0  0  0  0  0  0  0  0  0  0  0  0
   21.9565   -7.0758   28.0344 O   0  0  0  0  0  0  0  0  0  0  0  0
   26.3275   -6.5086   27.9679 O   0  0  0  0  0  0  0  0  0  0  0  0
   24.4509   -6.3359   29.3427 O   0  0  0  0  0  0  0  0  0  0  0  0
   27.2895   -6.4755   29.0579 C   0  0  0  0  0  0  0  0  0  0  0  0
   23.3390   -8.2603   30.3308 C   0  0  0  0  0  0  0  0  0  0  0  0
   25.1725   -5.7155   28.2398 C   0  0  2  0  0  0  0  0  0  0  0  0
   24.3252   -5.7399   26.9602 C   0  0  2  0  0  0  0  0  0  0  0  0
   23.8543   -7.1670   26.6374 C   0  0  1  0  0  0  0  0  0  0  0  0
   23.1871   -7.8029   27.8580 C   0  0  1  0  0  0  0  0  0  0  0  0
   24.0786   -7.7067   29.1137 C   0  0  1  0  0  0  0  0  0  0  0  0
   24.3347   -5.3137   24.9957 H   0  0  0  0  0  0  0  0  0  0  0  0
   22.5687   -8.0472   25.3469 H   0  0  0  0  0  0  0  0  0  0  0  0
   21.4631   -7.4420   28.8234 H   0  0  0  0  0  0  0  0  0  0  0  0
   28.0786   -7.0432   28.8233 H   0  0  0  0  0  0  0  0  0  0  0  0
   27.5895   -5.5337   29.2092 H   0  0  0  0  0  0  0  0  0  0  0  0
   26.8618   -6.8270   29.8907 H   0  0  0  0  0  0  0  0  0  0  0  0
   23.0849   -9.2126   30.1617 H   0  0  0  0  0  0  0  0  0  0  0  0
   23.9340   -8.2115   31.1331 H   0  0  0  0  0  0  0  0  0  0  0  0
   22.5141   -7.7192   30.4942 H   0  0  0  0  0  0  0  0  0  0  0  0
   25.4344   -4.7788   28.4719 H   0  0  0  0  0  0  0  0  0  0  0  0
   23.5134   -5.1782   27.1197 H   0  0  0  0  0  0  0  0  0  0  0  0
   24.6368   -7.7223   26.3560 H   0  0  0  0  0  0  0  0  0  0  0  0
   22.9836   -8.7629   27.6654 H   0  0  0  0  0  0  0  0  0  0  0  0
   24.9070   -8.2468   28.9649 H   0  0  0  0  0  0  0  0  0  0  0  0
  1  9  1  0  0  0  0
  2 10  1  0  0  0  0
  3 11  1  0  0  0  0
  4  6  1  0  0  0  0
  4  8  1  0  0  0  0
  5  8  1  0  0  0  0
  5 12  1  0  0  0  0
  7 12  1  0  0  0  0
  8  9  1  0  0  0  0
  9 10  1  0  0  0  0
 10 11  1  0  0  0  0
 11 12  1  0  0  0  0
  1 13  1  0  0  0  0
  2 14  1  0  0  0  0
  3 15  1  0  0  0  0
  6 16  1  0  0  0  0
  6 17  1  0  0  0  0
  6 18  1  0  0  0  0
  7 19  1  0  0  0  0
  7 20  1  0  0  0  0
  7 21  1  0  0  0  0
  8 22  1  0  0  0  0
  9 23  1  0  0  0  0
 10 24  1  0  0  0  0
 11 25  1  0  0  0  0
 12 26  1  0  0  0  0
M  END
> <pdb_id>
2JDU

> <uniprot_id>
Q9HYN5

> <usmiles>
O1[C@@H](OC)[C@@H](O)[C@H](O)[C@H](O)[C@@H]1C

$$$$
MG0_B_701
          07202416493D 1   1.00000     0.00000     0
            
 50 52  0  0  0  0            999 V2000
  -13.9040   46.1340   13.0410 S   0  0  0  0  0  0  0  0  0  0  0  0
  -14.4830   36.7280   20.7750 F   0  0  0  0  0  0  0  0  0  0  0  0
  -15.4980   37.9480   19.1450 F   0  0  0  0  0  0  0  0  0  0  0  0
  -14.6210   38.8560   21.0670 F   0  0  0  0  0  0  0  0  0  0  0  0
  -10.9220   38.3250   19.7900 F   0  0  0  0  0  0  0  0  0  0  0  0
  -12.2520   39.2710   21.2520 F   0  0  0  0  0  0  0  0  0  0  0  0
  -12.0020   37.1870   21.2040 F   0  0  0  0  0  0  0  0  0  0  0  0
  -14.9570   47.1040   13.5070 O   0  0  0  0  0  0  0  0  0  0  0  0
  -13.9560   45.6770   11.7040 O   0  0  0  0  0  0  0  0  0  0  0  0
  -12.9840   37.0070   18.6500 O   0  0  0  0  0  0  0  0  0  0  0  0
   -8.5300   48.1370   13.8900 N   0  0  0  0  0  0  0  0  0  0  0  0
   -9.9940   46.8650   12.7140 N   0  0  0  0  0  0  0  0  0  0  0  0
  -14.1040   44.7570   13.9170 N   0  0  0  0  0  0  0  0  0  0  0  0
  -13.4410   42.7140   15.8530 N   0  0  0  0  0  0  0  0  0  0  0  0
  -11.2310   46.4180   12.5260 C   0  0  0  0  0  0  0  0  0  0  0  0
  -14.1190   45.0420   15.2940 C   0  0  0  0  0  0  0  0  0  0  0  0
  -13.0160   43.8610   13.6580 C   0  0  0  0  0  0  0  0  0  0  0  0
  -14.4870   43.7550   16.0380 C   0  0  0  0  0  0  0  0  0  0  0  0
  -13.0090   42.5680   14.4850 C   0  0  0  0  0  0  0  0  0  0  0  0
  -12.0440   47.7240   14.3330 C   0  0  0  0  0  0  0  0  0  0  0  0
  -10.7490   48.1800   14.5550 C   0  0  0  0  0  0  0  0  0  0  0  0
  -13.7760   41.7260   18.0700 C   0  0  0  0  0  0  0  0  0  0  0  0
  -12.8350   40.4070   16.3370 C   0  0  0  0  0  0  0  0  0  0  0  0
  -13.7200   40.6070   18.9280 C   0  0  0  0  0  0  0  0  0  0  0  0
  -12.8120   39.2860   17.1900 C   0  0  0  0  0  0  0  0  0  0  0  0
  -12.2990   46.8270   13.3070 C   0  0  0  0  0  0  0  0  0  0  0  0
   -9.7410   47.7300   13.7180 C   0  0  0  0  0  0  0  0  0  0  0  0
  -13.3040   41.6520   16.7570 C   0  0  0  0  0  0  0  0  0  0  0  0
  -13.2420   39.3710   18.4880 C   0  0  0  0  0  0  0  0  0  0  0  0
  -14.5050   37.9150   20.1010 C   0  0  0  0  0  0  0  0  0  0  0  0
  -12.0540   38.2460   20.4410 C   0  0  0  0  0  0  0  0  0  0  0  0
  -13.1840   38.1450   19.4130 C   0  0  0  0  0  0  0  0  0  0  0  0
  -12.9457   36.2068   19.2486 H   0  0  0  0  0  0  0  0  0  0  0  0
   -8.3180   48.7782   14.6275 H   0  0  0  0  0  0  0  0  0  0  0  0
   -7.8026   47.8115   13.2859 H   0  0  0  0  0  0  0  0  0  0  0  0
  -11.3974   45.7602   11.7914 H   0  0  0  0  0  0  0  0  0  0  0  0
  -14.7970   45.7514   15.4866 H   0  0  0  0  0  0  0  0  0  0  0  0
  -13.2156   45.3564   15.5856 H   0  0  0  0  0  0  0  0  0  0  0  0
  -12.1639   44.3500   13.8447 H   0  0  0  0  0  0  0  0  0  0  0  0
  -13.0499   43.6075   12.6913 H   0  0  0  0  0  0  0  0  0  0  0  0
  -14.5792   43.9561   17.0132 H   0  0  0  0  0  0  0  0  0  0  0  0
  -15.3569   43.4107   15.6850 H   0  0  0  0  0  0  0  0  0  0  0  0
  -13.6152   41.9107   14.0373 H   0  0  0  0  0  0  0  0  0  0  0  0
  -12.0754   42.2096   14.4916 H   0  0  0  0  0  0  0  0  0  0  0  0
  -12.7923   48.0436   14.9143 H   0  0  0  0  0  0  0  0  0  0  0  0
  -10.5505   48.8167   15.3001 H   0  0  0  0  0  0  0  0  0  0  0  0
  -14.1597   42.5857   18.4071 H   0  0  0  0  0  0  0  0  0  0  0  0
  -12.5039   40.3069   15.3987 H   0  0  0  0  0  0  0  0  0  0  0  0
  -14.0301   40.7015   19.8740 H   0  0  0  0  0  0  0  0  0  0  0  0
  -12.4753   38.4113   16.8413 H   0  0  0  0  0  0  0  0  0  0  0  0
  1  8  2  0  0  0  0
  1  9  2  0  0  0  0
  1 13  1  0  0  0  0
  1 26  1  0  0  0  0
  2 30  1  0  0  0  0
  3 30  1  0  0  0  0
  4 30  1  0  0  0  0
  5 31  1  0  0  0  0
  6 31  1  0  0  0  0
  7 31  1  0  0  0  0
 10 32  1  0  0  0  0
 11 27  1  0  0  0  0
 12 15  1  0  0  0  0
 12 27  2  0  0  0  0
 13 16  1  0  0  0  0
 13 17  1  0  0  0  0
 14 18  1  0  0  0  0
 14 19  1  0  0  0  0
 14 28  1  0  0  0  0
 15 26  2  0  0  0  0
 16 18  1  0  0  0  0
 17 19  1  0  0  0  0
 20 21  2  0  0  0  0
 20 26  1  0  0  0  0
 21 27  1  0  0  0  0
 22 24  1  0  0  0  0
 22 28  2  0  0  0  0
 23 25  2  0  0  0  0
 23 28  1  0  0  0  0
 24 29  2  0  0  0  0
 25 29  1  0  0  0  0
 29 32  1  0  0  0  0
 30 32  1  0  0  0  0
 31 32  1  0  0  0  0
 10 33  1  0  0  0  0
 11 34  1  0  0  0  0
 11 35  1  0  0  0  0
 15 36  1  0  0  0  0
 16 37  1  0  0  0  0
 16 38  1  0  0  0  0
 17 39  1  0  0  0  0
 17 40  1  0  0  0  0
 18 41  1  0  0  0  0
 18 42  1  0  0  0  0
 19 43  1  0  0  0  0
 19 44  1  0  0  0  0
 20 45  1  0  0  0  0
 21 46  1  0  0  0  0
 22 47  1  0  0  0  0
 23 48  1  0  0  0  0
 24 49  1  0  0  0  0
 25 50  1  0  0  0  0
M  END
> <pdb_id>
4MRO

> <uniprot_id>
Q14397

> <usmiles>
S(=O)(=O)(N1CCN(c2ccc(cc2)C(O)(C(F)(F)F)C(F)(F)F)CC1)c3cnc(N)cc3

$$$$
MM9_B_1287
          07202416143D 1   1.00000     0.00000     0
            
 69 71  0  0  0  0            999 V2000
   11.7975  -13.2337   16.0247 O   0  0  0  0  0  0  0  0  0  0  0  0
   14.3785  -16.2944   12.6014 O   0  0  0  0  0  0  0  0  0  0  0  0
   11.8085  -13.2004   12.8189 O   0  0  0  0  0  0  0  0  0  0  0  0
   17.7704  -10.1003   10.8210 N   0  0  0  0  0  0  0  0  0  0  0  0
   18.1491  -12.3793   11.0013 N   0  0  0  0  0  0  0  0  0  0  0  0
   12.4346  -11.2302   15.2912 N   0  0  0  0  0  0  0  0  0  0  0  0
   11.7209  -15.8943   12.4232 N   0  0  0  0  0  0  0  0  0  0  0  0
   14.6142  -16.1587   14.8258 N   0  0  0  0  0  0  0  0  0  0  0  0
    9.9402  -13.2014   13.9974 N   0  0  0  0  0  0  0  0  0  0  0  0
   14.0425  -16.0783   16.1824 C   0  0  0  0  0  0  0  0  0  0  0  0
   16.0893  -16.1582   14.7153 C   0  0  0  0  0  0  0  0  0  0  0  0
   12.3120  -16.1985   13.7587 C   0  0  0  0  0  0  0  0  0  0  0  0
   13.7902  -11.3935   15.8232 C   0  0  0  0  0  0  0  0  0  0  0  0
    8.6912  -13.5305   14.7140 C   0  0  0  0  0  0  0  0  0  0  0  0
    7.8326  -15.2995    8.9353 C   0  0  0  0  0  0  0  0  0  0  0  0
    9.1814  -16.0384    8.8710 C   0  0  0  0  0  0  0  0  0  0  0  0
    7.9879  -13.9371    9.6369 C   0  0  0  0  0  0  0  0  0  0  0  0
    8.9395  -12.4058   15.7274 C   0  0  0  0  0  0  0  0  0  0  0  0
    9.7674  -16.2352   10.2784 C   0  0  0  0  0  0  0  0  0  0  0  0
    8.5417  -14.1618   11.0570 C   0  0  0  0  0  0  0  0  0  0  0  0
   15.3689  -10.1750   14.3247 C   0  0  0  0  0  0  0  0  0  0  0  0
   14.9821  -12.5234   13.9311 C   0  0  0  0  0  0  0  0  0  0  0  0
   16.2586  -10.1239   13.2714 C   0  0  0  0  0  0  0  0  0  0  0  0
   15.8417  -12.4876   12.8387 C   0  0  0  0  0  0  0  0  0  0  0  0
   17.4677  -11.2320   11.3926 C   0  0  0  0  0  0  0  0  0  0  0  0
   11.5045  -12.1841   15.4762 C   0  0  0  0  0  0  0  0  0  0  0  0
   13.8319  -16.2248   13.6979 C   0  0  0  0  0  0  0  0  0  0  0  0
   10.7606  -13.7762   13.0953 C   0  0  0  0  0  0  0  0  0  0  0  0
   14.7487  -11.3730   14.6616 C   0  0  0  0  0  0  0  0  0  0  0  0
   16.4790  -11.2788   12.4999 C   0  0  0  0  0  0  0  0  0  0  0  0
    9.9056  -14.8860   11.0168 C   0  0  0  0  0  0  0  0  0  0  0  0
   10.4615  -15.1068   12.4470 C   0  0  1  0  0  0  0  0  0  0  0  0
   10.1320  -12.0197   14.8433 C   0  0  1  0  0  0  0  0  0  0  0  0
    9.7227  -15.6559   13.0288 H   0  0  0  0  0  0  0  0  0  0  0  0
   10.0271  -11.0730   14.3209 H   0  0  0  0  0  0  0  0  0  0  0  0
   17.2932   -9.2626   11.0867 H   0  0  0  0  0  0  0  0  0  0  0  0
   18.4798  -10.0697   10.1168 H   0  0  0  0  0  0  0  0  0  0  0  0
   17.9334  -13.2584   11.4262 H   0  0  0  0  0  0  0  0  0  0  0  0
   12.1985  -10.4006   14.7852 H   0  0  0  0  0  0  0  0  0  0  0  0
   11.5329  -16.7626   11.9642 H   0  0  0  0  0  0  0  0  0  0  0  0
   13.0443  -16.0868   16.1245 H   0  0  0  0  0  0  0  0  0  0  0  0
   14.3519  -16.8617   16.7215 H   0  0  0  0  0  0  0  0  0  0  0  0
   14.3438  -15.2318   16.6214 H   0  0  0  0  0  0  0  0  0  0  0  0
   16.3514  -16.2160   13.7519 H   0  0  0  0  0  0  0  0  0  0  0  0
   16.4528  -15.3141   15.1095 H   0  0  0  0  0  0  0  0  0  0  0  0
   16.4609  -16.9440   15.2096 H   0  0  0  0  0  0  0  0  0  0  0  0
   11.9828  -17.0918   14.0647 H   0  0  0  0  0  0  0  0  0  0  0  0
   12.0242  -15.4963   14.4098 H   0  0  0  0  0  0  0  0  0  0  0  0
   13.8623  -12.2652   16.3078 H   0  0  0  0  0  0  0  0  0  0  0  0
   14.0013  -10.6445   16.4512 H   0  0  0  0  0  0  0  0  0  0  0  0
    8.6863  -14.4450   15.1185 H   0  0  0  0  0  0  0  0  0  0  0  0
    7.8650  -13.4045   14.1648 H   0  0  0  0  0  0  0  0  0  0  0  0
    7.1771  -15.8575    9.4443 H   0  0  0  0  0  0  0  0  0  0  0  0
    7.4944  -15.1529    8.0057 H   0  0  0  0  0  0  0  0  0  0  0  0
    9.8223  -15.5023    8.3216 H   0  0  0  0  0  0  0  0  0  0  0  0
    9.0446  -16.9329    8.4454 H   0  0  0  0  0  0  0  0  0  0  0  0
    7.0974  -13.4855    9.6922 H   0  0  0  0  0  0  0  0  0  0  0  0
    8.6210  -13.3632    9.1174 H   0  0  0  0  0  0  0  0  0  0  0  0
    9.1785  -12.7125   16.6487 H   0  0  0  0  0  0  0  0  0  0  0  0
    8.2146  -11.7191   15.7823 H   0  0  0  0  0  0  0  0  0  0  0  0
   10.6700  -16.6586   10.2001 H   0  0  0  0  0  0  0  0  0  0  0  0
    9.1626  -16.8342   10.8032 H   0  0  0  0  0  0  0  0  0  0  0  0
    7.8924  -14.7177   11.5761 H   0  0  0  0  0  0  0  0  0  0  0  0
    8.6560  -13.2759   11.5065 H   0  0  0  0  0  0  0  0  0  0  0  0
   15.1692   -9.3467   14.8482 H   0  0  0  0  0  0  0  0  0  0  0  0
   14.5337  -13.3795   14.1879 H   0  0  0  0  0  0  0  0  0  0  0  0
   16.7416   -9.2745   13.0589 H   0  0  0  0  0  0  0  0  0  0  0  0
   16.0057  -13.3131   12.2985 H   0  0  0  0  0  0  0  0  0  0  0  0
   10.5520  -14.3143   10.5116 H   0  0  0  0  0  0  0  0  0  0  0  0
  1 26  2  0  0  0  0
  2 27  2  0  0  0  0
  3 28  2  0  0  0  0
  4 25  1  0  0  0  0
  5 25  2  0  0  0  0
  6 13  1  0  0  0  0
  6 26  1  0  0  0  0
  7 12  1  0  0  0  0
  7 32  1  0  0  0  0
  8 10  1  0  0  0  0
  8 11  1  0  0  0  0
  8 27  1  0  0  0  0
  9 14  1  0  0  0  0
  9 28  1  0  0  0  0
  9 33  1  0  0  0  0
 12 27  1  0  0  0  0
 13 29  1  0  0  0  0
 14 18  1  0  0  0  0
 15 16  1  0  0  0  0
 15 17  1  0  0  0  0
 16 19  1  0  0  0  0
 17 20  1  0  0  0  0
 18 33  1  0  0  0  0
 19 31  1  0  0  0  0
 20 31  1  0  0  0  0
 21 23  1  0  0  0  0
 21 29  2  0  0  0  0
 22 24  2  0  0  0  0
 22 29  1  0  0  0  0
 23 30  2  0  0  0  0
 24 30  1  0  0  0  0
 25 30  1  0  0  0  0
 26 33  1  0  0  0  0
 28 32  1  0  0  0  0
 31 32  1  0  0  0  0
 32 34  1  0  0  0  0
 33 35  1  0  0  0  0
  4 36  1  0  0  0  0
  4 37  1  0  0  0  0
  5 38  1  0  0  0  0
  6 39  1  0  0  0  0
  7 40  1  0  0  0  0
 10 41  1  0  0  0  0
 10 42  1  0  0  0  0
 10 43  1  0  0  0  0
 11 44  1  0  0  0  0
 11 45  1  0  0  0  0
 11 46  1  0  0  0  0
 12 47  1  0  0  0  0
 12 48  1  0  0  0  0
 13 49  1  0  0  0  0
 13 50  1  0  0  0  0
 14 51  1  0  0  0  0
 14 52  1  0  0  0  0
 15 53  1  0  0  0  0
 15 54  1  0  0  0  0
 16 55  1  0  0  0  0
 16 56  1  0  0  0  0
 17 57  1  0  0  0  0
 17 58  1  0  0  0  0
 18 59  1  0  0  0  0
 18 60  1  0  0  0  0
 19 61  1  0  0  0  0
 19 62  1  0  0  0  0
 20 63  1  0  0  0  0
 20 64  1  0  0  0  0
 21 65  1  0  0  0  0
 22 66  1  0  0  0  0
 23 67  1  0  0  0  0
 24 68  1  0  0  0  0
 31 69  1  0  0  0  0
M  END
> <pdb_id>
4BAM

> <uniprot_id>
P00734

> <usmiles>
O=C(N1[C@H](C(=O)NCc2ccc(cc2)C(=N)N)CC1)[C@H](NCC(=O)N(C)C)C3CCCCC3

$$$$
MMA_A_400
          07192418323D 1   1.00000     0.00000     0
            
 27 27  0  0  0  0            999 V2000
    1.4550   10.1800   -1.1350 O   0  0  0  0  0  0  0  0  0  0  0  0
    7.0630   10.5050   -2.0260 O   0  0  0  0  0  0  0  0  0  0  0  0
    4.6840    7.3890   -0.5330 O   0  0  0  0  0  0  0  0  0  0  0  0
    7.0450    7.7960   -1.9030 O   0  0  0  0  0  0  0  0  0  0  0  0
    4.2840   10.0750   -4.2600 O   0  0  0  0  0  0  0  0  0  0  0  0
    4.1210   10.7250   -2.0210 O   0  0  0  0  0  0  0  0  0  0  0  0
    3.1480   10.8250   -4.7080 C   0  0  0  0  0  0  0  0  0  0  0  0
    2.6650    9.7520   -0.4460 C   0  0  0  0  0  0  0  0  0  0  0  0
    4.9120   10.5980   -3.1590 C   0  0  1  0  0  0  0  0  0  0  0  0
    3.6830    9.4300   -1.5330 C   0  0  2  0  0  0  0  0  0  0  0  0
    6.1880    9.8340   -2.9310 C   0  0  2  0  0  0  0  0  0  0  0  0
    4.9470    8.6860   -1.0610 C   0  0  2  0  0  0  0  0  0  0  0  0
    5.8520    8.4860   -2.2890 C   0  0  2  0  0  0  0  0  0  0  0  0
    0.7501   10.4048   -0.4622 H   0  0  0  0  0  0  0  0  0  0  0  0
    7.8952    9.9640   -1.9041 H   0  0  0  0  0  0  0  0  0  0  0  0
    5.5434    6.9649   -0.2473 H   0  0  0  0  0  0  0  0  0  0  0  0
    6.8032    6.9196   -1.4866 H   0  0  0  0  0  0  0  0  0  0  0  0
    2.7496   10.3796   -5.5098 H   0  0  0  0  0  0  0  0  0  0  0  0
    2.4668   10.8668   -3.9771 H   0  0  0  0  0  0  0  0  0  0  0  0
    3.4348   11.7520   -4.9497 H   0  0  0  0  0  0  0  0  0  0  0  0
    2.4799    8.9396    0.1070 H   0  0  0  0  0  0  0  0  0  0  0  0
    3.0064   10.4850    0.1423 H   0  0  0  0  0  0  0  0  0  0  0  0
    5.1860   11.5261   -3.4110 H   0  0  0  0  0  0  0  0  0  0  0  0
    3.2428    8.9190   -2.2713 H   0  0  0  0  0  0  0  0  0  0  0  0
    6.6535    9.6859   -3.8036 H   0  0  0  0  0  0  0  0  0  0  0  0
    5.4254    9.2367   -0.3770 H   0  0  0  0  0  0  0  0  0  0  0  0
    5.3626    7.9270   -2.9583 H   0  0  0  0  0  0  0  0  0  0  0  0
  1  8  1  0  0  0  0
  2 11  1  0  0  0  0
  3 12  1  0  0  0  0
  4 13  1  0  0  0  0
  5  7  1  0  0  0  0
  5  9  1  0  0  0  0
  6  9  1  0  0  0  0
  6 10  1  0  0  0  0
  8 10  1  0  0  0  0
  9 11  1  0  0  0  0
 10 12  1  0  0  0  0
 11 13  1  0  0  0  0
 12 13  1  0  0  0  0
  1 14  1  0  0  0  0
  2 15  1  0  0  0  0
  3 16  1  0  0  0  0
  4 17  1  0  0  0  0
  7 18  1  0  0  0  0
  7 19  1  0  0  0  0
  7 20  1  0  0  0  0
  8 21  1  0  0  0  0
  8 22  1  0  0  0  0
  9 23  1  0  0  0  0
 10 24  1  0  0  0  0
 11 25  1  0  0  0  0
 12 26  1  0  0  0  0
 13 27  1  0  0  0  0
M  END
> <pdb_id>
2BV4

> <uniprot_id>
Q7NX84

> <usmiles>
O1[C@@H]([C@@H](O)[C@H](O)[C@H](O)[C@H]1OC)CO

$$$$
MMA_D_1115
          07192421303D 1   1.00000     0.00000     0
            
 27 27  0  0  0  0            999 V2000
   27.1500   -5.0260   29.6040 O   0  0  0  0  0  0  0  0  0  0  0  0
   21.9180   -6.9520   28.1260 O   0  0  0  0  0  0  0  0  0  0  0  0
   25.1490   -5.2530   25.9360 O   0  0  0  0  0  0  0  0  0  0  0  0
   22.9910   -7.0490   25.6050 O   0  0  0  0  0  0  0  0  0  0  0  0
   24.9620   -8.6790   29.0670 O   0  0  0  0  0  0  0  0  0  0  0  0
   24.5200   -6.3710   29.4120 O   0  0  0  0  0  0  0  0  0  0  0  0
   25.5980   -8.9180   30.3330 C   0  0  0  0  0  0  0  0  0  0  0  0
   26.0660   -4.6560   28.7280 C   0  0  0  0  0  0  0  0  0  0  0  0
   23.9500   -7.6820   29.1960 C   0  0  1  0  0  0  0  0  0  0  0  0
   25.3420   -5.9250   28.3100 C   0  0  2  0  0  0  0  0  0  0  0  0
   23.1050   -7.7260   27.9160 C   0  0  2  0  0  0  0  0  0  0  0  0
   24.4450   -5.7580   27.0770 C   0  0  2  0  0  0  0  0  0  0  0  0
   23.8660   -7.1390   26.7420 C   0  0  2  0  0  0  0  0  0  0  0  0
   27.6413   -4.2040   29.8920 H   0  0  0  0  0  0  0  0  0  0  0  0
   21.3566   -6.9716   27.2987 H   0  0  0  0  0  0  0  0  0  0  0  0
   24.5168   -5.1652   25.1662 H   0  0  0  0  0  0  0  0  0  0  0  0
   23.4905   -6.6623   24.8298 H   0  0  0  0  0  0  0  0  0  0  0  0
   26.3035   -9.6184   30.2247 H   0  0  0  0  0  0  0  0  0  0  0  0
   26.0166   -8.0711   30.6609 H   0  0  0  0  0  0  0  0  0  0  0  0
   24.9165   -9.2309   30.9946 H   0  0  0  0  0  0  0  0  0  0  0  0
   26.4271   -4.1901   27.9202 H   0  0  0  0  0  0  0  0  0  0  0  0
   25.4341   -4.0481   29.2088 H   0  0  0  0  0  0  0  0  0  0  0  0
   23.3673   -7.9128   29.9753 H   0  0  0  0  0  0  0  0  0  0  0  0
   26.0232   -6.6306   28.1149 H   0  0  0  0  0  0  0  0  0  0  0  0
   22.8552   -8.6727   27.7127 H   0  0  0  0  0  0  0  0  0  0  0  0
   23.6954   -5.1350   27.3004 H   0  0  0  0  0  0  0  0  0  0  0  0
   24.6213   -7.7534   26.5138 H   0  0  0  0  0  0  0  0  0  0  0  0
  1  8  1  0  0  0  0
  2 11  1  0  0  0  0
  3 12  1  0  0  0  0
  4 13  1  0  0  0  0
  5  7  1  0  0  0  0
  5  9  1  0  0  0  0
  6  9  1  0  0  0  0
  6 10  1  0  0  0  0
  8 10  1  0  0  0  0
  9 11  1  0  0  0  0
 10 12  1  0  0  0  0
 11 13  1  0  0  0  0
 12 13  1  0  0  0  0
  1 14  1  0  0  0  0
  2 15  1  0  0  0  0
  3 16  1  0  0  0  0
  4 17  1  0  0  0  0
  7 18  1  0  0  0  0
  7 19  1  0  0  0  0
  7 20  1  0  0  0  0
  8 21  1  0  0  0  0
  8 22  1  0  0  0  0
  9 23  1  0  0  0  0
 10 24  1  0  0  0  0
 11 25  1  0  0  0  0
 12 26  1  0  0  0  0
 13 27  1  0  0  0  0
M  END
> <pdb_id>
2JDY

> <uniprot_id>
Q9HYN5

> <usmiles>
O1[C@@H]([C@@H](O)[C@H](O)[C@H](O)[C@H]1OC)CO

$$$$
MMH_A_1
          07212402253D 1   1.00000     0.00000     0
            
 52 54  0  0  0  0            999 V2000
  106.3396  -17.1971    8.5624 O   0  0  0  0  0  0  0  0  0  0  0  0
  111.1269  -18.1247    3.8292 O   0  0  0  0  0  0  0  0  0  0  0  0
  106.0582  -13.1878   10.3438 O   0  0  0  0  0  0  0  0  0  0  0  0
  107.5610  -15.2432    4.4110 N   0  0  0  0  0  0  0  0  0  0  0  0
  107.4174  -15.6171    3.2402 N   0  0  0  0  0  0  0  0  0  0  0  0
  108.2694  -15.8343    1.0820 N   0  0  0  0  0  0  0  0  0  0  0  0
  109.2422  -16.3074    0.4671 N   0  0  0  0  0  0  0  0  0  0  0  0
  108.3650  -17.5144    9.6333 N   0  0  0  0  0  0  0  0  0  0  0  0
  109.6273  -16.9659    5.0554 N   0  0  0  0  0  0  0  0  0  0  0  0
  104.7142  -12.7361   10.6916 C   0  0  0  0  0  0  0  0  0  0  0  0
  106.3698  -17.0006   10.9315 C   0  0  0  0  0  0  0  0  0  0  0  0
  111.4215  -17.6036    0.8665 C   0  0  0  0  0  0  0  0  0  0  0  0
  106.4794  -14.7805    5.0292 C   0  0  0  0  0  0  0  0  0  0  0  0
  111.3634  -18.6674    7.8317 C   0  0  0  0  0  0  0  0  0  0  0  0
  110.4197  -18.4455    8.8414 C   0  0  0  0  0  0  0  0  0  0  0  0
  111.1255  -18.1717    6.5307 C   0  0  0  0  0  0  0  0  0  0  0  0
  107.4208  -13.9564    8.5414 C   0  0  0  0  0  0  0  0  0  0  0  0
  105.0508  -13.5890    8.2099 C   0  0  0  0  0  0  0  0  0  0  0  0
  107.5412  -14.3610    7.2036 C   0  0  0  0  0  0  0  0  0  0  0  0
  105.1759  -13.9855    6.8793 C   0  0  0  0  0  0  0  0  0  0  0  0
  109.0208  -17.2412    7.3174 C   0  0  0  0  0  0  0  0  0  0  0  0
  107.0403  -17.2462    9.5740 C   0  0  0  0  0  0  0  0  0  0  0  0
  110.2023  -17.3240    3.8978 C   0  0  0  0  0  0  0  0  0  0  0  0
  108.3788  -16.0638    2.3972 C   0  0  0  0  0  0  0  0  0  0  0  0
  106.1683  -13.5750    9.0389 C   0  0  0  0  0  0  0  0  0  0  0  0
  110.0914  -16.9011    1.3197 C   0  0  0  0  0  0  0  0  0  0  0  0
  109.2341  -17.7405    8.6058 C   0  0  0  0  0  0  0  0  0  0  0  0
  109.9543  -17.4352    6.2787 C   0  0  0  0  0  0  0  0  0  0  0  0
  106.4207  -14.3650    6.3626 C   0  0  0  0  0  0  0  0  0  0  0  0
  109.5924  -16.7427    2.6026 C   0  0  0  0  0  0  0  0  0  0  0  0
  106.4868  -15.5860    2.8754 H   0  0  0  0  0  0  0  0  0  0  0  0
  107.5084  -15.3483    0.6523 H   0  0  0  0  0  0  0  0  0  0  0  0
  108.7594  -17.5520   10.5515 H   0  0  0  0  0  0  0  0  0  0  0  0
  108.8906  -16.2912    5.0084 H   0  0  0  0  0  0  0  0  0  0  0  0
  104.6919  -12.4662   11.6543 H   0  0  0  0  0  0  0  0  0  0  0  0
  104.4672  -11.9536   10.1202 H   0  0  0  0  0  0  0  0  0  0  0  0
  104.0627  -13.4793   10.5387 H   0  0  0  0  0  0  0  0  0  0  0  0
  107.0530  -17.0707   11.6583 H   0  0  0  0  0  0  0  0  0  0  0  0
  105.9641  -16.0866   10.9423 H   0  0  0  0  0  0  0  0  0  0  0  0
  105.6550  -17.6843   11.0788 H   0  0  0  0  0  0  0  0  0  0  0  0
  111.8922  -17.9744    1.6671 H   0  0  0  0  0  0  0  0  0  0  0  0
  111.2068  -18.3464    0.2323 H   0  0  0  0  0  0  0  0  0  0  0  0
  112.0122  -16.9371    0.4116 H   0  0  0  0  0  0  0  0  0  0  0  0
  105.6358  -14.7249    4.4952 H   0  0  0  0  0  0  0  0  0  0  0  0
  112.2021  -19.1744    8.0306 H   0  0  0  0  0  0  0  0  0  0  0  0
  110.5982  -18.8014    9.7587 H   0  0  0  0  0  0  0  0  0  0  0  0
  111.7827  -18.3428    5.7966 H   0  0  0  0  0  0  0  0  0  0  0  0
  108.2244  -13.9403    9.1363 H   0  0  0  0  0  0  0  0  0  0  0  0
  104.1585  -13.3147    8.5685 H   0  0  0  0  0  0  0  0  0  0  0  0
  108.4310  -14.6480    6.8486 H   0  0  0  0  0  0  0  0  0  0  0  0
  104.3692  -13.9991    6.2884 H   0  0  0  0  0  0  0  0  0  0  0  0
  108.1817  -16.7317    7.1270 H   0  0  0  0  0  0  0  0  0  0  0  0
  1 22  2  0  0  0  0
  2 23  2  0  0  0  0
  3 10  1  0  0  0  0
  3 25  1  0  0  0  0
  4  5  1  0  0  0  0
  4 13  2  0  0  0  0
  5 24  1  0  0  0  0
  6  7  1  0  0  0  0
  6 24  1  0  0  0  0
  7 26  2  0  0  0  0
  8 22  1  0  0  0  0
  8 27  1  0  0  0  0
  9 23  1  0  0  0  0
  9 28  1  0  0  0  0
 11 22  1  0  0  0  0
 12 26  1  0  0  0  0
 13 29  1  0  0  0  0
 14 15  1  0  0  0  0
 14 16  2  0  0  0  0
 15 27  2  0  0  0  0
 16 28  1  0  0  0  0
 17 19  1  0  0  0  0
 17 25  2  0  0  0  0
 18 20  2  0  0  0  0
 18 25  1  0  0  0  0
 19 29  2  0  0  0  0
 20 29  1  0  0  0  0
 21 27  1  0  0  0  0
 21 28  2  0  0  0  0
 23 30  1  0  0  0  0
 24 30  2  0  0  0  0
 26 30  1  0  0  0  0
  5 31  1  0  0  0  0
  6 32  1  0  0  0  0
  8 33  1  0  0  0  0
  9 34  1  0  0  0  0
 10 35  1  0  0  0  0
 10 36  1  0  0  0  0
 10 37  1  0  0  0  0
 11 38  1  0  0  0  0
 11 39  1  0  0  0  0
 11 40  1  0  0  0  0
 12 41  1  0  0  0  0
 12 42  1  0  0  0  0
 12 43  1  0  0  0  0
 13 44  1  0  0  0  0
 14 45  1  0  0  0  0
 15 46  1  0  0  0  0
 16 47  1  0  0  0  0
 17 48  1  0  0  0  0
 18 49  1  0  0  0  0
 19 50  1  0  0  0  0
 20 51  1  0  0  0  0
 21 52  1  0  0  0  0
M  END
> <pdb_id>
3FDN

> <uniprot_id>
O14965

> <usmiles>
O=C(Nc1cc(NC(=O)C)ccc1)C2=C(NN=C2C)NN=Cc3ccc(OC)cc3

$$$$
MMK_A_601
          07202406033D 1   1.00000     0.00000     0
            
 46 46  0  0  0  0            999 V2000
  -22.8010   18.8000    8.5010 O   0  0  0  0  0  0  0  0  0  0  0  0
  -24.2460   20.3580    7.9720 O   0  0  0  0  0  0  0  0  0  0  0  0
  -22.7510   21.5900   -0.0250 O   0  0  0  0  0  0  0  0  0  0  0  0
  -23.3350   19.5430    1.4730 N   0  0  0  0  0  0  0  0  0  0  0  0
  -23.6460   17.8380    3.6480 N   0  0  0  0  0  0  0  0  0  0  0  0
  -21.1710   25.4700   -0.3540 N   0  0  0  0  0  0  0  0  0  0  0  0
  -20.6400   21.8440    0.5670 N   0  0  0  0  0  0  0  0  0  0  0  0
  -21.3930   26.5760    0.5600 C   0  0  0  0  0  0  0  0  0  0  0  0
  -22.1840   25.4980   -1.3940 C   0  0  0  0  0  0  0  0  0  0  0  0
  -18.5190   20.6620    0.3620 C   0  0  0  0  0  0  0  0  0  0  0  0
  -23.4730   17.0160    4.7070 C   0  0  0  0  0  0  0  0  0  0  0  0
  -19.4730   21.3920    1.3040 C   0  0  0  0  0  0  0  0  0  0  0  0
  -21.9330   19.9070    1.4070 C   0  0  0  0  0  0  0  0  0  0  0  0
  -23.9810   20.0770    2.6570 C   0  0  0  0  0  0  0  0  0  0  0  0
  -21.2870   24.2240    0.3770 C   0  0  0  0  0  0  0  0  0  0  0  0
  -20.4750   23.0670   -0.2010 C   0  0  0  0  0  0  0  0  0  0  0  0
  -23.4320   17.4720    6.0090 C   0  0  0  0  0  0  0  0  0  0  0  0
  -23.7580   19.6900    5.1490 C   0  0  0  0  0  0  0  0  0  0  0  0
  -23.5420   19.3660    7.6540 C   0  0  0  0  0  0  0  0  0  0  0  0
  -21.8190   21.1870    0.5860 C   0  0  0  0  0  0  0  0  0  0  0  0
  -23.7880   19.1630    3.8640 C   0  0  0  0  0  0  0  0  0  0  0  0
  -23.5820   18.8320    6.2280 C   0  0  0  0  0  0  0  0  0  0  0  0
  -22.2468   18.0119    8.2331 H   0  0  0  0  0  0  0  0  0  0  0  0
  -23.4092   18.5459    1.4869 H   0  0  0  0  0  0  0  0  0  0  0  0
  -20.6970   26.5600    1.2779 H   0  0  0  0  0  0  0  0  0  0  0  0
  -21.3351   27.4394    0.0588 H   0  0  0  0  0  0  0  0  0  0  0  0
  -22.2998   26.4904    0.9729 H   0  0  0  0  0  0  0  0  0  0  0  0
  -22.0343   24.7374   -2.0257 H   0  0  0  0  0  0  0  0  0  0  0  0
  -23.0900   25.4134   -0.9792 H   0  0  0  0  0  0  0  0  0  0  0  0
  -22.1253   26.3625   -1.8933 H   0  0  0  0  0  0  0  0  0  0  0  0
  -17.7173   20.3527    0.8734 H   0  0  0  0  0  0  0  0  0  0  0  0
  -18.9845   19.8723   -0.0377 H   0  0  0  0  0  0  0  0  0  0  0  0
  -18.2303   21.2828   -0.3669 H   0  0  0  0  0  0  0  0  0  0  0  0
  -23.3703   16.0354    4.5399 H   0  0  0  0  0  0  0  0  0  0  0  0
  -19.7605   20.7705    2.0328 H   0  0  0  0  0  0  0  0  0  0  0  0
  -19.0063   22.1810    1.7036 H   0  0  0  0  0  0  0  0  0  0  0  0
  -21.4121   19.1746    0.9685 H   0  0  0  0  0  0  0  0  0  0  0  0
  -21.5785   20.0621    2.3291 H   0  0  0  0  0  0  0  0  0  0  0  0
  -24.9598   20.1738    2.4767 H   0  0  0  0  0  0  0  0  0  0  0  0
  -23.5897   20.9738    2.8634 H   0  0  0  0  0  0  0  0  0  0  0  0
  -22.2503   23.9555    0.3841 H   0  0  0  0  0  0  0  0  0  0  0  0
  -20.9784   24.3832    1.3148 H   0  0  0  0  0  0  0  0  0  0  0  0
  -20.7749   22.9005   -1.1403 H   0  0  0  0  0  0  0  0  0  0  0  0
  -19.5076   23.3201   -0.1999 H   0  0  0  0  0  0  0  0  0  0  0  0
  -23.2980   16.8395    6.7719 H   0  0  0  0  0  0  0  0  0  0  0  0
  -23.8617   20.6737    5.2957 H   0  0  0  0  0  0  0  0  0  0  0  0
  1 19  1  0  0  0  0
  2 19  2  0  0  0  0
  3 20  2  0  0  0  0
  4 13  1  0  0  0  0
  4 14  1  0  0  0  0
  5 11  2  0  0  0  0
  5 21  1  0  0  0  0
  6  8  1  0  0  0  0
  6  9  1  0  0  0  0
  6 15  1  0  0  0  0
  7 12  1  0  0  0  0
  7 16  1  0  0  0  0
  7 20  1  0  0  0  0
 10 12  1  0  0  0  0
 11 17  1  0  0  0  0
 13 20  1  0  0  0  0
 14 21  1  0  0  0  0
 15 16  1  0  0  0  0
 17 22  2  0  0  0  0
 18 21  2  0  0  0  0
 18 22  1  0  0  0  0
 19 22  1  0  0  0  0
  1 23  1  0  0  0  0
  4 24  1  0  0  0  0
  8 25  1  0  0  0  0
  8 26  1  0  0  0  0
  8 27  1  0  0  0  0
  9 28  1  0  0  0  0
  9 29  1  0  0  0  0
  9 30  1  0  0  0  0
 10 31  1  0  0  0  0
 10 32  1  0  0  0  0
 10 33  1  0  0  0  0
 11 34  1  0  0  0  0
 12 35  1  0  0  0  0
 12 36  1  0  0  0  0
 13 37  1  0  0  0  0
 13 38  1  0  0  0  0
 14 39  1  0  0  0  0
 14 40  1  0  0  0  0
 15 41  1  0  0  0  0
 15 42  1  0  0  0  0
 16 43  1  0  0  0  0
 16 44  1  0  0  0  0
 17 45  1  0  0  0  0
 18 46  1  0  0  0  0
M  END
> <pdb_id>
5ISL

> <uniprot_id>
P29375

> <usmiles>
O=C(O)c1cc(ncc1)CNCC(=O)N(CCN(C)C)CC

$$$$
MNI_A_600
          07202408413D 1   1.00000     0.00000     0
            
 45 46  0  0  0  0            999 V2000
   23.3580   56.1480  -25.9674 O   0  0  0  0  0  0  0  0  0  0  0  0
   25.2491   58.5228  -32.6122 O   0  0  0  0  0  0  0  0  0  0  0  0
   27.1848   58.1830  -27.1960 O   0  0  0  0  0  0  0  0  0  0  0  0
   26.1622   60.3362  -29.1057 O   0  0  0  0  0  0  0  0  0  0  0  0
   23.8374   57.6383  -31.1450 N   0  0  0  0  0  0  0  0  0  0  0  0
   23.7241   57.8573  -28.1387 N   0  0  0  0  0  0  0  0  0  0  0  0
   25.1844   52.8460  -35.3532 N   0  0  0  0  0  0  0  0  0  0  0  0
   26.0676   52.8531  -36.5103 C   0  0  0  0  0  0  0  0  0  0  0  0
   24.4834   51.6198  -35.0229 C   0  0  0  0  0  0  0  0  0  0  0  0
   24.4295   57.0914  -25.9017 C   0  0  0  0  0  0  0  0  0  0  0  0
   23.6130   58.8733  -30.4000 C   0  0  0  0  0  0  0  0  0  0  0  0
   24.1816   53.9737  -33.4723 C   0  0  0  0  0  0  0  0  0  0  0  0
   25.7137   55.1310  -34.9076 C   0  0  0  0  0  0  0  0  0  0  0  0
   24.0260   55.1256  -32.7135 C   0  0  0  0  0  0  0  0  0  0  0  0
   25.5702   56.2760  -34.1398 C   0  0  0  0  0  0  0  0  0  0  0  0
   24.5926   57.5566  -32.2499 C   0  0  0  0  0  0  0  0  0  0  0  0
   25.8328   58.5780  -27.4386 C   0  0  1  0  0  0  0  0  0  0  0  0
   25.6130   59.0359  -28.8648 C   0  0  1  0  0  0  0  0  0  0  0  0
   24.8395   57.4364  -27.3226 C   0  0  2  0  0  0  0  0  0  0  0  0
   24.1106   58.9811  -28.9752 C   0  0  2  0  0  0  0  0  0  0  0  0
   25.0278   53.9659  -34.5854 C   0  0  0  0  0  0  0  0  0  0  0  0
   24.7309   56.2857  -33.0368 C   0  0  0  0  0  0  0  0  0  0  0  0
   23.0703   55.9052  -25.0410 H   0  0  0  0  0  0  0  0  0  0  0  0
   27.2809   57.8899  -26.2448 H   0  0  0  0  0  0  0  0  0  0  0  0
   25.9949   60.5979  -30.0562 H   0  0  0  0  0  0  0  0  0  0  0  0
   23.4015   56.8025  -30.8112 H   0  0  0  0  0  0  0  0  0  0  0  0
   22.9663   58.1314  -27.5465 H   0  0  0  0  0  0  0  0  0  0  0  0
   26.4770   53.7598  -36.6115 H   0  0  0  0  0  0  0  0  0  0  0  0
   26.7899   52.1735  -36.3826 H   0  0  0  0  0  0  0  0  0  0  0  0
   25.5424   52.6310  -37.3319 H   0  0  0  0  0  0  0  0  0  0  0  0
   23.9192   51.7669  -34.2105 H   0  0  0  0  0  0  0  0  0  0  0  0
   23.9002   51.3523  -35.7899 H   0  0  0  0  0  0  0  0  0  0  0  0
   25.1477   50.8949  -34.8406 H   0  0  0  0  0  0  0  0  0  0  0  0
   25.2044   56.6911  -25.4126 H   0  0  0  0  0  0  0  0  0  0  0  0
   24.1258   57.9171  -25.4263 H   0  0  0  0  0  0  0  0  0  0  0  0
   22.6246   59.0235  -30.3757 H   0  0  0  0  0  0  0  0  0  0  0  0
   24.0493   59.6093  -30.9176 H   0  0  0  0  0  0  0  0  0  0  0  0
   23.6846   53.1431  -33.2210 H   0  0  0  0  0  0  0  0  0  0  0  0
   26.3186   55.1434  -35.7038 H   0  0  0  0  0  0  0  0  0  0  0  0
   23.4047   55.1240  -31.9299 H   0  0  0  0  0  0  0  0  0  0  0  0
   26.0769   57.1028  -34.3839 H   0  0  0  0  0  0  0  0  0  0  0  0
   25.5782   59.3106  -26.8073 H   0  0  0  0  0  0  0  0  0  0  0  0
   26.0208   58.3764  -29.4963 H   0  0  0  0  0  0  0  0  0  0  0  0
   25.2450   56.6229  -27.7393 H   0  0  0  0  0  0  0  0  0  0  0  0
   23.7351   59.8161  -28.5732 H   0  0  0  0  0  0  0  0  0  0  0  0
  1 10  1  0  0  0  0
  2 16  2  0  0  0  0
  3 17  1  0  0  0  0
  4 18  1  0  0  0  0
  5 11  1  0  0  0  0
  5 16  1  0  0  0  0
  6 19  1  0  0  0  0
  6 20  1  0  0  0  0
  7  8  1  0  0  0  0
  7  9  1  0  0  0  0
  7 21  1  0  0  0  0
 10 19  1  0  0  0  0
 11 20  1  0  0  0  0
 12 14  1  0  0  0  0
 12 21  2  0  0  0  0
 13 15  2  0  0  0  0
 13 21  1  0  0  0  0
 14 22  2  0  0  0  0
 15 22  1  0  0  0  0
 16 22  1  0  0  0  0
 17 18  1  0  0  0  0
 17 19  1  0  0  0  0
 18 20  1  0  0  0  0
  1 23  1  0  0  0  0
  3 24  1  0  0  0  0
  4 25  1  0  0  0  0
  5 26  1  0  0  0  0
  6 27  1  0  0  0  0
  8 28  1  0  0  0  0
  8 29  1  0  0  0  0
  8 30  1  0  0  0  0
  9 31  1  0  0  0  0
  9 32  1  0  0  0  0
  9 33  1  0  0  0  0
 10 34  1  0  0  0  0
 10 35  1  0  0  0  0
 11 36  1  0  0  0  0
 11 37  1  0  0  0  0
 12 38  1  0  0  0  0
 13 39  1  0  0  0  0
 14 40  1  0  0  0  0
 15 41  1  0  0  0  0
 17 42  1  0  0  0  0
 18 43  1  0  0  0  0
 19 44  1  0  0  0  0
 20 45  1  0  0  0  0
M  END
> <pdb_id>
2OYM

> <uniprot_id>
O33853

> <usmiles>
O=C(NC[C@H]1N[C@@H]([C@@H](O)[C@@H]1O)CO)c2ccc(N(C)C)cc2

$$$$
MNM_B_1868
          07192417363D 1   1.00000     0.00000     0
            
 24 24  0  0  0  0            999 V2000
  -17.8140   61.0957   48.3674 O   0  0  0  0  0  0  0  0  0  0  0  0
  -18.9923   55.0351   47.5491 O   0  0  0  0  0  0  0  0  0  0  0  0
  -20.2491   57.2579   46.1696 O   0  0  0  0  0  0  0  0  0  0  0  0
  -17.8915   59.2264   45.3048 O   0  0  0  0  0  0  0  0  0  0  0  0
  -18.3994   56.9800   48.8192 N   0  0  0  0  0  0  0  0  0  0  0  0
  -16.7544   60.2662   47.7532 C   0  0  0  0  0  0  0  0  0  0  0  0
  -17.7705   58.2754   48.9882 C   0  0  0  0  0  0  0  0  0  0  0  0
  -18.3448   56.3216   47.4852 C   0  0  2  0  0  0  0  0  0  0  0  0
  -18.8172   57.2256   46.3414 C   0  0  2  0  0  0  0  0  0  0  0  0
  -18.3625   58.6881   46.5503 C   0  0  1  0  0  0  0  0  0  0  0  0
  -17.2598   58.8277   47.6430 C   0  0  1  0  0  0  0  0  0  0  0  0
  -17.4948   62.0403   48.4450 H   0  0  0  0  0  0  0  0  0  0  0  0
  -18.9530   54.5972   46.6510 H   0  0  0  0  0  0  0  0  0  0  0  0
  -20.4800   57.8651   45.4094 H   0  0  0  0  0  0  0  0  0  0  0  0
  -17.5974   60.1725   45.4405 H   0  0  0  0  0  0  0  0  0  0  0  0
  -19.3655   57.0902   49.0526 H   0  0  0  0  0  0  0  0  0  0  0  0
  -15.9338   60.2917   48.3242 H   0  0  0  0  0  0  0  0  0  0  0  0
  -16.5377   60.6174   46.8423 H   0  0  0  0  0  0  0  0  0  0  0  0
  -16.9985   58.1834   49.6171 H   0  0  0  0  0  0  0  0  0  0  0  0
  -18.4378   58.9144   49.3708 H   0  0  0  0  0  0  0  0  0  0  0  0
  -17.3783   56.1356   47.3087 H   0  0  0  0  0  0  0  0  0  0  0  0
  -18.4094   56.8913   45.4918 H   0  0  0  0  0  0  0  0  0  0  0  0
  -19.1566   59.2225   46.8397 H   0  0  0  0  0  0  0  0  0  0  0  0
  -16.4863   58.2599   47.3612 H   0  0  0  0  0  0  0  0  0  0  0  0
  1  6  1  0  0  0  0
  2  8  1  0  0  0  0
  3  9  1  0  0  0  0
  4 10  1  0  0  0  0
  5  7  1  0  0  0  0
  5  8  1  0  0  0  0
  6 11  1  0  0  0  0
  7 11  1  0  0  0  0
  8  9  1  0  0  0  0
  9 10  1  0  0  0  0
 10 11  1  0  0  0  0
  1 12  1  0  0  0  0
  2 13  1  0  0  0  0
  3 14  1  0  0  0  0
  4 15  1  0  0  0  0
  5 16  1  0  0  0  0
  6 17  1  0  0  0  0
  6 18  1  0  0  0  0
  7 19  1  0  0  0  0
  7 20  1  0  0  0  0
  8 21  1  0  0  0  0
  9 22  1  0  0  0  0
 10 23  1  0  0  0  0
 11 24  1  0  0  0  0
M  END
> <pdb_id>
2VL4

> <uniprot_id>
Q8AAK6

> <usmiles>
O[C@@H]1[C@@H](CO)CN[C@@H](O)[C@H]1O

$$$$
MO8_A_237
          07192420423D 1   1.00000     0.00000     0
            
 23 24  0  0  0  0            999 V2000
   70.1959   36.7567   24.4471 S   0  0  0  0  0  0  0  0  0  0  0  0
   65.1310   33.3074   25.3906 N   0  0  0  0  0  0  0  0  0  0  0  0
   66.0099   34.5895   23.6945 N   0  0  0  0  0  0  0  0  0  0  0  0
   67.4086   33.8581   25.4597 N   0  0  0  0  0  0  0  0  0  0  0  0
   66.6901   36.0008   21.7745 C   0  0  0  0  0  0  0  0  0  0  0  0
   70.5456   35.6693   25.7761 C   0  0  0  0  0  0  0  0  0  0  0  0
   69.5040   35.9201   23.0441 C   0  0  0  0  0  0  0  0  0  0  0  0
   69.8430   34.3423   25.5700 C   0  0  0  0  0  0  0  0  0  0  0  0
   66.2020   33.9225   24.8409 C   0  0  0  0  0  0  0  0  0  0  0  0
   66.9856   35.2561   23.0553 C   0  0  0  0  0  0  0  0  0  0  0  0
   68.4935   34.4614   24.8988 C   0  0  0  0  0  0  0  0  0  0  0  0
   68.3298   35.2096   23.6482 C   0  0  0  0  0  0  0  0  0  0  0  0
   65.2308   32.7988   26.2458 H   0  0  0  0  0  0  0  0  0  0  0  0
   64.2389   33.3611   24.9419 H   0  0  0  0  0  0  0  0  0  0  0  0
   67.5268   36.4349   21.4407 H   0  0  0  0  0  0  0  0  0  0  0  0
   66.3501   35.3593   21.0868 H   0  0  0  0  0  0  0  0  0  0  0  0
   65.9977   36.7011   21.9483 H   0  0  0  0  0  0  0  0  0  0  0  0
   70.2291   36.0808   26.6308 H   0  0  0  0  0  0  0  0  0  0  0  0
   71.5325   35.5157   25.8255 H   0  0  0  0  0  0  0  0  0  0  0  0
   70.1562   35.2726   22.6499 H   0  0  0  0  0  0  0  0  0  0  0  0
   69.2130   36.5695   22.3416 H   0  0  0  0  0  0  0  0  0  0  0  0
   69.7133   33.9125   26.4636 H   0  0  0  0  0  0  0  0  0  0  0  0
   70.4268   33.7617   25.0025 H   0  0  0  0  0  0  0  0  0  0  0  0
  1  6  1  0  0  0  0
  1  7  1  0  0  0  0
  2  9  1  0  0  0  0
  3  9  2  0  0  0  0
  3 10  1  0  0  0  0
  4  9  1  0  0  0  0
  4 11  2  0  0  0  0
  5 10  1  0  0  0  0
  6  8  1  0  0  0  0
  7 12  1  0  0  0  0
  8 11  1  0  0  0  0
 10 12  2  0  0  0  0
 11 12  1  0  0  0  0
  2 13  1  0  0  0  0
  2 14  1  0  0  0  0
  5 15  1  0  0  0  0
  5 16  1  0  0  0  0
  5 17  1  0  0  0  0
  6 18  1  0  0  0  0
  6 19  1  0  0  0  0
  7 20  1  0  0  0  0
  7 21  1  0  0  0  0
  8 22  1  0  0  0  0
  8 23  1  0  0  0  0
M  END
> <pdb_id>
3FT5

> <uniprot_id>
P07900

> <usmiles>
S1Cc2c(nc(nc2C)N)CC1

$$$$
MOF_A_301
          07192422213D 1   1.00000     0.00000     0
            
 67 71  0  0  0  0            999 V2000
    2.9334    6.0281   48.0604 Cl  0  0  0  0  0  0  0  0  0  0  0  0
    8.1561    7.2192   42.6697 Cl  0  0  0  0  0  0  0  0  0  0  0  0
    6.3965    6.6509   48.7214 O   0  0  0  0  0  0  0  0  0  0  0  0
    9.5416    7.9751   37.9325 O   0  0  0  0  0  0  0  0  0  0  0  0
    4.9666    4.0900   47.8861 O   0  0  0  0  0  0  0  0  0  0  0  0
    4.8631    5.0467   42.1408 O   0  0  0  0  0  0  0  0  0  0  0  0
    8.2447    8.9985   48.7894 O   0  0  0  0  0  0  0  0  0  0  0  0
    7.0286    6.4428   46.4928 O   0  0  0  0  0  0  0  0  0  0  0  0
    8.5237    4.3032   47.9729 C   0  0  0  0  0  0  0  0  0  0  0  0
    6.9043    4.1602   40.0786 C   0  0  0  0  0  0  0  0  0  0  0  0
    5.4005    3.7055   44.5438 C   0  0  0  0  0  0  0  0  0  0  0  0
    4.1350    6.0403   46.8146 C   0  0  0  0  0  0  0  0  0  0  0  0
    9.2079    9.8631   48.2869 C   0  0  0  0  0  0  0  0  0  0  0  0
    9.4613    9.5628   46.9443 C   0  0  0  0  0  0  0  0  0  0  0  0
    8.6556    8.4505   46.6267 C   0  0  0  0  0  0  0  0  0  0  0  0
    7.4817    7.4711   38.8882 C   0  0  0  0  0  0  0  0  0  0  0  0
    9.8368    4.3348   41.1816 C   0  0  0  0  0  0  0  0  0  0  0  0
    9.5090    4.5243   42.6856 C   0  0  0  0  0  0  0  0  0  0  0  0
    9.6298    6.1882   39.4502 C   0  0  0  0  0  0  0  0  0  0  0  0
    8.3361    3.7881   45.5784 C   0  0  0  0  0  0  0  0  0  0  0  0
    6.8095    6.5859   39.8759 C   0  0  0  0  0  0  0  0  0  0  0  0
    5.6755    6.1681   44.0615 C   0  0  0  0  0  0  0  0  0  0  0  0
    6.9958    7.0487   47.7294 C   0  0  0  0  0  0  0  0  0  0  0  0
    8.9273    7.2191   38.6598 C   0  0  0  0  0  0  0  0  0  0  0  0
    5.1557    5.0527   47.1170 C   0  0  0  0  0  0  0  0  0  0  0  0
    5.8716    5.8887   42.6247 C   0  0  1  0  0  0  0  0  0  0  0  0
    7.9438    8.1643   47.6912 C   0  0  0  0  0  0  0  0  0  0  0  0
    7.5642    4.1495   46.7895 C   0  0  2  0  0  0  0  0  0  0  0  0
    9.0195    5.3943   40.4133 C   0  0  0  0  0  0  0  0  0  0  0  0
    8.0146    4.5036   42.9748 C   0  0  1  0  0  0  0  0  0  0  0  0
    7.6967    4.6630   44.4546 C   0  0  1  0  0  0  0  0  0  0  0  0
    7.3328    5.6455   42.1690 C   0  0  2  0  0  0  0  0  0  0  0  0
    6.4206    5.0970   46.4111 C   0  0  2  0  0  0  0  0  0  0  0  0
    7.5141    5.4669   40.6311 C   0  0  2  0  0  0  0  0  0  0  0  0
    6.2518    4.9672   44.8823 C   0  0  2  0  0  0  0  0  0  0  0  0
    5.0143    4.8704   41.1681 H   0  0  0  0  0  0  0  0  0  0  0  0
    8.0056    4.5473   48.7926 H   0  0  0  0  0  0  0  0  0  0  0  0
    9.0040    3.4397   48.1269 H   0  0  0  0  0  0  0  0  0  0  0  0
    9.1882    5.0230   47.7719 H   0  0  0  0  0  0  0  0  0  0  0  0
    7.3256    3.3766   40.5351 H   0  0  0  0  0  0  0  0  0  0  0  0
    5.9188    4.1545   40.2481 H   0  0  0  0  0  0  0  0  0  0  0  0
    7.0735    4.1033   39.0946 H   0  0  0  0  0  0  0  0  0  0  0  0
    5.7488    2.9210   45.0568 H   0  0  0  0  0  0  0  0  0  0  0  0
    4.4464    3.8703   44.7939 H   0  0  0  0  0  0  0  0  0  0  0  0
    5.4603    3.5161   43.5638 H   0  0  0  0  0  0  0  0  0  0  0  0
    4.5533    6.9472   46.7638 H   0  0  0  0  0  0  0  0  0  0  0  0
    3.7080    5.8206   45.9374 H   0  0  0  0  0  0  0  0  0  0  0  0
    9.6538   10.5915   48.8070 H   0  0  0  0  0  0  0  0  0  0  0  0
   10.0895   10.0421   46.3314 H   0  0  0  0  0  0  0  0  0  0  0  0
    8.6310    7.9683   45.7510 H   0  0  0  0  0  0  0  0  0  0  0  0
    7.3829    8.4140   39.2065 H   0  0  0  0  0  0  0  0  0  0  0  0
    7.0111    7.3639   38.0124 H   0  0  0  0  0  0  0  0  0  0  0  0
    9.5756    3.4162   40.8850 H   0  0  0  0  0  0  0  0  0  0  0  0
   10.8145    4.4712   41.0220 H   0  0  0  0  0  0  0  0  0  0  0  0
    9.8795    5.4039   42.9843 H   0  0  0  0  0  0  0  0  0  0  0  0
    9.9440    3.7868   43.2021 H   0  0  0  0  0  0  0  0  0  0  0  0
   10.6062    6.0530   39.2817 H   0  0  0  0  0  0  0  0  0  0  0  0
    8.2386    2.8147   45.3710 H   0  0  0  0  0  0  0  0  0  0  0  0
    9.3046    4.0088   45.6941 H   0  0  0  0  0  0  0  0  0  0  0  0
    6.0582    6.1486   39.3815 H   0  0  0  0  0  0  0  0  0  0  0  0
    6.4376    7.1943   40.5770 H   0  0  0  0  0  0  0  0  0  0  0  0
    4.7000    6.2722   44.2551 H   0  0  0  0  0  0  0  0  0  0  0  0
    6.1563    7.0089   44.3106 H   0  0  0  0  0  0  0  0  0  0  0  0
    5.6505    6.7655   42.1976 H   0  0  0  0  0  0  0  0  0  0  0  0
    7.0833    3.2997   47.0054 H   0  0  0  0  0  0  0  0  0  0  0  0
    7.6430    3.6293   42.6627 H   0  0  0  0  0  0  0  0  0  0  0  0
    8.1311    5.5443   44.6404 H   0  0  0  0  0  0  0  0  0  0  0  0
  1 12  1  0  0  0  0
  2 32  1  0  0  0  0
  3 23  2  0  0  0  0
  4 24  2  0  0  0  0
  5 25  2  0  0  0  0
  6 26  1  0  0  0  0
  7 13  1  0  0  0  0
  7 27  1  0  0  0  0
  8 23  1  0  0  0  0
  8 33  1  0  0  0  0
  9 28  1  0  0  0  0
 10 34  1  0  0  0  0
 11 35  1  0  0  0  0
 12 25  1  0  0  0  0
 13 14  2  0  0  0  0
 14 15  1  0  0  0  0
 15 27  2  0  0  0  0
 16 21  1  0  0  0  0
 16 24  1  0  0  0  0
 17 18  1  0  0  0  0
 17 29  1  0  0  0  0
 18 30  1  0  0  0  0
 19 24  1  0  0  0  0
 19 29  2  0  0  0  0
 20 28  1  0  0  0  0
 20 31  1  0  0  0  0
 21 34  1  0  0  0  0
 22 26  1  0  0  0  0
 22 35  1  0  0  0  0
 23 27  1  0  0  0  0
 25 33  1  0  0  0  0
 26 32  1  0  0  0  0
 28 33  1  0  0  0  0
 29 34  1  0  0  0  0
 30 31  1  0  0  0  0
 30 32  1  0  0  0  0
 31 35  1  0  0  0  0
 32 34  1  0  0  0  0
 33 35  1  0  0  0  0
  6 36  1  0  0  0  0
  9 37  1  0  0  0  0
  9 38  1  0  0  0  0
  9 39  1  0  0  0  0
 10 40  1  0  0  0  0
 10 41  1  0  0  0  0
 10 42  1  0  0  0  0
 11 43  1  0  0  0  0
 11 44  1  0  0  0  0
 11 45  1  0  0  0  0
 12 46  1  0  0  0  0
 12 47  1  0  0  0  0
 13 48  1  0  0  0  0
 14 49  1  0  0  0  0
 15 50  1  0  0  0  0
 16 51  1  0  0  0  0
 16 52  1  0  0  0  0
 17 53  1  0  0  0  0
 17 54  1  0  0  0  0
 18 55  1  0  0  0  0
 18 56  1  0  0  0  0
 19 57  1  0  0  0  0
 20 58  1  0  0  0  0
 20 59  1  0  0  0  0
 21 60  1  0  0  0  0
 21 61  1  0  0  0  0
 22 62  1  0  0  0  0
 22 63  1  0  0  0  0
 26 64  1  0  0  0  0
 28 65  1  0  0  0  0
 30 66  1  0  0  0  0
 31 67  1  0  0  0  0
M  END
> <pdb_id>
1SR7

> <uniprot_id>
P06401

> <usmiles>
Cl[C@]12[C@@]3(C(=CC(=O)CC3)CC[C@H]2[C@H]4[C@@]([C@@](OC(=O)C=5OC=CC5)(C(=O)CCl)[C@@H](C4)C)(C[C@@H]1O)C)C

$$$$
MOF_B_302
          07192422213D 1   1.00000     0.00000     0
            
 65 69  0  0  0  0            999 V2000
    2.8689    5.3990   47.5563 Cl  0  0  0  0  0  0  0  0  0  0  0  0
    8.1455    7.2586   42.6169 Cl  0  0  0  0  0  0  0  0  0  0  0  0
    6.6900    6.7188   48.6989 O   0  0  0  0  0  0  0  0  0  0  0  0
    9.2998    8.0504   38.0405 O   0  0  0  0  0  0  0  0  0  0  0  0
    5.1605    4.1191   48.0066 O   0  0  0  0  0  0  0  0  0  0  0  0
    4.9973    4.9554   42.1697 O   0  0  0  0  0  0  0  0  0  0  0  0
    8.6291    8.6437   46.3859 O   0  0  0  0  0  0  0  0  0  0  0  0
    7.2263    6.4062   46.5326 O   0  0  0  0  0  0  0  0  0  0  0  0
    8.6383    4.3578   48.0172 C   0  0  0  0  0  0  0  0  0  0  0  0
    6.7801    4.2522   40.1907 C   0  0  0  0  0  0  0  0  0  0  0  0
    5.6624    3.6443   44.6626 C   0  0  0  0  0  0  0  0  0  0  0  0
    4.3657    6.1027   47.0300 C   0  0  0  0  0  0  0  0  0  0  0  0
    9.2721    9.8330   46.5087 C   0  0  0  0  0  0  0  0  0  0  0  0
    9.0272   10.2671   47.8128 C   0  0  0  0  0  0  0  0  0  0  0  0
    8.2814    9.3803   48.5509 C   0  0  0  0  0  0  0  0  0  0  0  0
    7.2888    7.3782   38.9026 C   0  0  0  0  0  0  0  0  0  0  0  0
    9.7779    4.3455   41.1172 C   0  0  0  0  0  0  0  0  0  0  0  0
    9.5845    4.5506   42.6235 C   0  0  0  0  0  0  0  0  0  0  0  0
    9.6217    6.1744   39.4096 C   0  0  0  0  0  0  0  0  0  0  0  0
    8.5584    3.7923   45.5164 C   0  0  0  0  0  0  0  0  0  0  0  0
    6.7348    6.6249   39.9848 C   0  0  0  0  0  0  0  0  0  0  0  0
    5.7450    6.1561   44.1761 C   0  0  0  0  0  0  0  0  0  0  0  0
    7.2391    7.1693   47.7262 C   0  0  0  0  0  0  0  0  0  0  0  0
    8.7847    7.2273   38.7607 C   0  0  0  0  0  0  0  0  0  0  0  0
    5.3604    4.9846   47.2264 C   0  0  0  0  0  0  0  0  0  0  0  0
    5.8410    5.9348   42.7101 C   0  0  1  0  0  0  0  0  0  0  0  0
    8.0079    8.4128   47.6495 C   0  0  0  0  0  0  0  0  0  0  0  0
    7.7804    4.1188   46.7935 C   0  0  2  0  0  0  0  0  0  0  0  0
    8.9385    5.3894   40.4063 C   0  0  0  0  0  0  0  0  0  0  0  0
    8.0587    4.5326   42.9928 C   0  0  1  0  0  0  0  0  0  0  0  0
    7.8624    4.6726   44.4543 C   0  0  1  0  0  0  0  0  0  0  0  0
    7.2894    5.6526   42.2606 C   0  0  2  0  0  0  0  0  0  0  0  0
    6.6407    5.0785   46.4258 C   0  0  2  0  0  0  0  0  0  0  0  0
    7.4450    5.4926   40.7583 C   0  0  2  0  0  0  0  0  0  0  0  0
    6.4202    4.9577   44.9218 C   0  0  2  0  0  0  0  0  0  0  0  0
    5.1474    4.8937   41.1830 H   0  0  0  0  0  0  0  0  0  0  0  0
    8.0518    4.5632   48.8006 H   0  0  0  0  0  0  0  0  0  0  0  0
    9.1784    3.5388   48.2107 H   0  0  0  0  0  0  0  0  0  0  0  0
    9.2517    5.1295   47.8487 H   0  0  0  0  0  0  0  0  0  0  0  0
    7.1665    3.4385   40.6250 H   0  0  0  0  0  0  0  0  0  0  0  0
    5.7968    4.2899   40.3688 H   0  0  0  0  0  0  0  0  0  0  0  0
    6.9388    4.2107   39.2043 H   0  0  0  0  0  0  0  0  0  0  0  0
    6.1143    2.8970   45.1498 H   0  0  0  0  0  0  0  0  0  0  0  0
    4.7209    3.7330   44.9878 H   0  0  0  0  0  0  0  0  0  0  0  0
    5.6594    3.4492   43.6819 H   0  0  0  0  0  0  0  0  0  0  0  0
    4.6044    6.8972   47.5884 H   0  0  0  0  0  0  0  0  0  0  0  0
    4.3161    6.3736   46.0687 H   0  0  0  0  0  0  0  0  0  0  0  0
    9.8106   10.3019   45.8086 H   0  0  0  0  0  0  0  0  0  0  0  0
    9.3617   11.1375   48.1740 H   0  0  0  0  0  0  0  0  0  0  0  0
    8.0099    9.4370   49.5117 H   0  0  0  0  0  0  0  0  0  0  0  0
    6.7371    7.9513   38.2966 H   0  0  0  0  0  0  0  0  0  0  0  0
    9.4767    3.4286   40.8556 H   0  0  0  0  0  0  0  0  0  0  0  0
   10.7419    4.4608   40.8775 H   0  0  0  0  0  0  0  0  0  0  0  0
    9.9763    5.4318   42.8881 H   0  0  0  0  0  0  0  0  0  0  0  0
   10.0508    3.8167   43.1175 H   0  0  0  0  0  0  0  0  0  0  0  0
   10.5814    6.0257   39.1711 H   0  0  0  0  0  0  0  0  0  0  0  0
    8.4815    2.8222   45.2863 H   0  0  0  0  0  0  0  0  0  0  0  0
    9.5234    4.0371   45.6104 H   0  0  0  0  0  0  0  0  0  0  0  0
    5.8025    6.8522   40.2663 H   0  0  0  0  0  0  0  0  0  0  0  0
    4.7832    6.2171   44.4430 H   0  0  0  0  0  0  0  0  0  0  0  0
    6.2124    7.0066   44.4174 H   0  0  0  0  0  0  0  0  0  0  0  0
    5.5782    6.7983   42.2796 H   0  0  0  0  0  0  0  0  0  0  0  0
    7.3068    3.2635   47.0037 H   0  0  0  0  0  0  0  0  0  0  0  0
    7.6777    3.6529   42.7083 H   0  0  0  0  0  0  0  0  0  0  0  0
    8.2975    5.5571   44.6228 H   0  0  0  0  0  0  0  0  0  0  0  0
  1 12  1  0  0  0  0
  2 32  1  0  0  0  0
  3 23  2  0  0  0  0
  4 24  2  0  0  0  0
  5 25  2  0  0  0  0
  6 26  1  0  0  0  0
  7 13  1  0  0  0  0
  7 27  1  0  0  0  0
  8 23  1  0  0  0  0
  8 33  1  0  0  0  0
  9 28  1  0  0  0  0
 10 34  1  0  0  0  0
 11 35  1  0  0  0  0
 12 25  1  0  0  0  0
 13 14  2  0  0  0  0
 14 15  1  0  0  0  0
 15 27  2  0  0  0  0
 16 21  2  0  0  0  0
 16 24  1  0  0  0  0
 17 18  1  0  0  0  0
 17 29  1  0  0  0  0
 18 30  1  0  0  0  0
 19 24  1  0  0  0  0
 19 29  2  0  0  0  0
 20 28  1  0  0  0  0
 20 31  1  0  0  0  0
 21 34  1  0  0  0  0
 22 26  1  0  0  0  0
 22 35  1  0  0  0  0
 23 27  1  0  0  0  0
 25 33  1  0  0  0  0
 26 32  1  0  0  0  0
 28 33  1  0  0  0  0
 29 34  1  0  0  0  0
 30 31  1  0  0  0  0
 30 32  1  0  0  0  0
 31 35  1  0  0  0  0
 32 34  1  0  0  0  0
 33 35  1  0  0  0  0
  6 36  1  0  0  0  0
  9 37  1  0  0  0  0
  9 38  1  0  0  0  0
  9 39  1  0  0  0  0
 10 40  1  0  0  0  0
 10 41  1  0  0  0  0
 10 42  1  0  0  0  0
 11 43  1  0  0  0  0
 11 44  1  0  0  0  0
 11 45  1  0  0  0  0
 12 46  1  0  0  0  0
 12 47  1  0  0  0  0
 13 48  1  0  0  0  0
 14 49  1  0  0  0  0
 15 50  1  0  0  0  0
 16 51  1  0  0  0  0
 17 52  1  0  0  0  0
 17 53  1  0  0  0  0
 18 54  1  0  0  0  0
 18 55  1  0  0  0  0
 19 56  1  0  0  0  0
 20 57  1  0  0  0  0
 20 58  1  0  0  0  0
 21 59  1  0  0  0  0
 22 60  1  0  0  0  0
 22 61  1  0  0  0  0
 26 62  1  0  0  0  0
 28 63  1  0  0  0  0
 30 64  1  0  0  0  0
 31 65  1  0  0  0  0
M  END
> <pdb_id>
1SR7

> <uniprot_id>
P06401

> <usmiles>
Cl[C@]12[C@@]3(C(=CC(=O)C=C3)CC[C@H]2[C@H]4[C@@]([C@@](OC(=O)C=5OC=CC5)(C(=O)CCl)[C@@H](C4)C)(C[C@@H]1O)C)C

$$$$
MOJ_A_237
          07192420423D 1   1.00000     0.00000     0
            
 45 48  0  0  0  0            999 V2000
   75.8590   35.3191   27.0643 F   0  0  0  0  0  0  0  0  0  0  0  0
   70.3160   37.2920   21.2893 O   0  0  0  0  0  0  0  0  0  0  0  0
   65.0569   33.4230   25.5159 N   0  0  0  0  0  0  0  0  0  0  0  0
   69.2230   36.6665   21.9012 N   0  0  0  0  0  0  0  0  0  0  0  0
   73.9373   30.7628   22.9238 N   0  0  0  0  0  0  0  0  0  0  0  0
   65.8373   34.5546   23.6325 N   0  0  0  0  0  0  0  0  0  0  0  0
   67.2982   33.9936   25.4256 N   0  0  0  0  0  0  0  0  0  0  0  0
   66.4856   35.7687   21.5838 C   0  0  0  0  0  0  0  0  0  0  0  0
   72.8585   29.9709   23.1071 C   0  0  0  0  0  0  0  0  0  0  0  0
   74.0533   31.9367   23.5586 C   0  0  0  0  0  0  0  0  0  0  0  0
   71.8299   30.3268   23.9591 C   0  0  0  0  0  0  0  0  0  0  0  0
   73.7084   36.1339   26.4951 C   0  0  0  0  0  0  0  0  0  0  0  0
   71.9315   31.5592   24.6175 C   0  0  0  0  0  0  0  0  0  0  0  0
   72.4731   35.9472   25.8501 C   0  0  0  0  0  0  0  0  0  0  0  0
   74.4125   33.9327   25.7868 C   0  0  0  0  0  0  0  0  0  0  0  0
   70.7514   35.7955   23.5299 C   0  0  0  0  0  0  0  0  0  0  0  0
   69.7109   34.6127   25.5110 C   0  0  0  0  0  0  0  0  0  0  0  0
   66.0732   34.0067   24.8520 C   0  0  0  0  0  0  0  0  0  0  0  0
   74.6710   35.1395   26.4496 C   0  0  0  0  0  0  0  0  0  0  0  0
   66.8179   35.1726   22.9254 C   0  0  0  0  0  0  0  0  0  0  0  0
   69.3655   35.9125   22.9026 C   0  0  0  0  0  0  0  0  0  0  0  0
   68.3502   34.5986   24.8433 C   0  0  0  0  0  0  0  0  0  0  0  0
   73.0447   32.3702   24.4228 C   0  0  0  0  0  0  0  0  0  0  0  0
   70.8627   34.6088   24.4886 C   0  0  2  0  0  0  0  0  0  0  0  0
   72.1815   34.7616   25.1610 C   0  0  0  0  0  0  0  0  0  0  0  0
   73.2108   33.6850   25.1369 C   0  0  0  0  0  0  0  0  0  0  0  0
   68.1643   35.2357   23.5337 C   0  0  0  0  0  0  0  0  0  0  0  0
   70.1735   37.8847   20.4966 H   0  0  0  0  0  0  0  0  0  0  0  0
   65.2158   33.0153   26.4150 H   0  0  0  0  0  0  0  0  0  0  0  0
   64.1435   33.3975   25.1096 H   0  0  0  0  0  0  0  0  0  0  0  0
   67.3060   36.1843   21.1913 H   0  0  0  0  0  0  0  0  0  0  0  0
   66.1512   35.0505   20.9736 H   0  0  0  0  0  0  0  0  0  0  0  0
   65.7787   36.4672   21.6953 H   0  0  0  0  0  0  0  0  0  0  0  0
   72.8024   29.1034   22.6129 H   0  0  0  0  0  0  0  0  0  0  0  0
   74.8638   32.5042   23.4136 H   0  0  0  0  0  0  0  0  0  0  0  0
   71.0424   29.7269   24.1002 H   0  0  0  0  0  0  0  0  0  0  0  0
   73.8920   36.9851   26.9868 H   0  0  0  0  0  0  0  0  0  0  0  0
   71.2000   31.8574   25.2307 H   0  0  0  0  0  0  0  0  0  0  0  0
   71.7883   36.6752   25.8837 H   0  0  0  0  0  0  0  0  0  0  0  0
   75.1184   33.2245   25.7816 H   0  0  0  0  0  0  0  0  0  0  0  0
   70.9463   36.6358   24.0358 H   0  0  0  0  0  0  0  0  0  0  0  0
   71.4253   35.6822   22.7998 H   0  0  0  0  0  0  0  0  0  0  0  0
   69.7930   33.8023   26.0912 H   0  0  0  0  0  0  0  0  0  0  0  0
   69.7841   35.4352   26.0750 H   0  0  0  0  0  0  0  0  0  0  0  0
   70.8477   33.7546   23.9689 H   0  0  0  0  0  0  0  0  0  0  0  0
  1 19  1  0  0  0  0
  2  4  1  0  0  0  0
  3 18  1  0  0  0  0
  4 21  2  0  0  0  0
  5  9  2  0  0  0  0
  5 10  1  0  0  0  0
  6 18  2  0  0  0  0
  6 20  1  0  0  0  0
  7 18  1  0  0  0  0
  7 22  2  0  0  0  0
  8 20  1  0  0  0  0
  9 11  1  0  0  0  0
 10 23  2  0  0  0  0
 11 13  2  0  0  0  0
 12 14  2  0  0  0  0
 12 19  1  0  0  0  0
 13 23  1  0  0  0  0
 14 25  1  0  0  0  0
 15 19  2  0  0  0  0
 15 26  1  0  0  0  0
 16 21  1  0  0  0  0
 16 24  1  0  0  0  0
 17 22  1  0  0  0  0
 17 24  1  0  0  0  0
 20 27  2  0  0  0  0
 21 27  1  0  0  0  0
 22 27  1  0  0  0  0
 23 26  1  0  0  0  0
 24 25  1  0  0  0  0
 25 26  2  0  0  0  0
  2 28  1  0  0  0  0
  3 29  1  0  0  0  0
  3 30  1  0  0  0  0
  8 31  1  0  0  0  0
  8 32  1  0  0  0  0
  8 33  1  0  0  0  0
  9 34  1  0  0  0  0
 10 35  1  0  0  0  0
 11 36  1  0  0  0  0
 12 37  1  0  0  0  0
 13 38  1  0  0  0  0
 14 39  1  0  0  0  0
 15 40  1  0  0  0  0
 16 41  1  0  0  0  0
 16 42  1  0  0  0  0
 17 43  1  0  0  0  0
 17 44  1  0  0  0  0
 24 45  1  0  0  0  0
M  END
> <pdb_id>
3FT8

> <uniprot_id>
P07900

> <usmiles>
Fc1cc(c2cnccc2)c(cc1)[C@H]3Cc4nc(nc(c4C(=NO)C3)C)N

$$$$
MQM_A_501
          07202403363D 1   1.00000     0.00000     0
            
 44 47  0  0  0  0            999 V2000
   35.2780  128.7210   26.5320 Cl  0  0  0  0  0  0  0  0  0  0  0  0
   39.2780  126.6000   23.3270 Cl  0  0  0  0  0  0  0  0  0  0  0  0
   31.4650  129.6920   22.7820 N   0  0  0  0  0  0  0  0  0  0  0  0
   40.5150  134.6430   24.7980 N   0  0  0  0  0  0  0  0  0  0  0  0
   40.8420  132.5550   25.7330 N   0  0  0  0  0  0  0  0  0  0  0  0
   39.0190  132.9190   24.2910 N   0  0  0  0  0  0  0  0  0  0  0  0
   37.4980  131.1900   23.7760 N   0  0  0  0  0  0  0  0  0  0  0  0
   35.9380  129.6380   23.1810 N   0  0  0  0  0  0  0  0  0  0  0  0
   32.8820  129.6900   23.1790 C   0  0  0  0  0  0  0  0  0  0  0  0
   40.4340  131.2190   25.9040 C   0  0  0  0  0  0  0  0  0  0  0  0
   35.3520  128.2980   22.8080 C   0  0  0  0  0  0  0  0  0  0  0  0
   35.1520  130.6400   22.3890 C   0  0  0  0  0  0  0  0  0  0  0  0
   36.1950  125.0360   25.3130 C   0  0  0  0  0  0  0  0  0  0  0  0
   34.3810  128.5650   21.6310 C   0  0  0  0  0  0  0  0  0  0  0  0
   35.6050  126.1380   25.9000 C   0  0  0  0  0  0  0  0  0  0  0  0
   37.3170  125.2250   24.5130 C   0  0  0  0  0  0  0  0  0  0  0  0
   38.8640  129.4280   25.4100 C   0  0  0  0  0  0  0  0  0  0  0  0
   40.1230  133.3790   24.9370 C   0  0  0  0  0  0  0  0  0  0  0  0
   36.1350  127.4190   25.7150 C   0  0  0  0  0  0  0  0  0  0  0  0
   37.8670  126.5020   24.3240 C   0  0  0  0  0  0  0  0  0  0  0  0
   38.5970  131.6370   24.4300 C   0  0  0  0  0  0  0  0  0  0  0  0
   37.0390  129.9160   23.9070 C   0  0  0  0  0  0  0  0  0  0  0  0
   33.8660  129.8850   21.9770 C   0  0  1  0  0  0  0  0  0  0  0  0
   39.2980  130.7520   25.2500 C   0  0  0  0  0  0  0  0  0  0  0  0
   37.7340  128.9700   24.7370 C   0  0  0  0  0  0  0  0  0  0  0  0
   37.2740  127.6410   24.9130 C   0  0  0  0  0  0  0  0  0  0  0  0
   30.8919  129.5639   23.5914 H   0  0  0  0  0  0  0  0  0  0  0  0
   31.2411  130.5656   22.3499 H   0  0  0  0  0  0  0  0  0  0  0  0
   39.9954  135.2662   24.2135 H   0  0  0  0  0  0  0  0  0  0  0  0
   41.3292  134.9697   25.2780 H   0  0  0  0  0  0  0  0  0  0  0  0
   33.0869  128.8149   23.6174 H   0  0  0  0  0  0  0  0  0  0  0  0
   33.0290  130.4326   23.8324 H   0  0  0  0  0  0  0  0  0  0  0  0
   40.9595  130.6064   26.4944 H   0  0  0  0  0  0  0  0  0  0  0  0
   34.8570  127.9077   23.5843 H   0  0  0  0  0  0  0  0  0  0  0  0
   36.0763  127.6695   22.5244 H   0  0  0  0  0  0  0  0  0  0  0  0
   35.6642  130.9326   21.5815 H   0  0  0  0  0  0  0  0  0  0  0  0
   34.9294  131.4376   22.9496 H   0  0  0  0  0  0  0  0  0  0  0  0
   35.8227  124.1197   25.4603 H   0  0  0  0  0  0  0  0  0  0  0  0
   33.6495  127.8839   21.5985 H   0  0  0  0  0  0  0  0  0  0  0  0
   34.8630  128.5785   20.7550 H   0  0  0  0  0  0  0  0  0  0  0  0
   34.7883  126.0185   26.4646 H   0  0  0  0  0  0  0  0  0  0  0  0
   37.7391  124.4370   24.0647 H   0  0  0  0  0  0  0  0  0  0  0  0
   39.3692  128.8088   26.0112 H   0  0  0  0  0  0  0  0  0  0  0  0
   33.4154  130.3212   21.1981 H   0  0  0  0  0  0  0  0  0  0  0  0
  1 19  1  0  0  0  0
  2 20  1  0  0  0  0
  3  9  1  0  0  0  0
  4 18  1  0  0  0  0
  5 10  1  0  0  0  0
  5 18  2  0  0  0  0
  6 18  1  0  0  0  0
  6 21  2  0  0  0  0
  7 21  1  0  0  0  0
  7 22  2  0  0  0  0
  8 11  1  0  0  0  0
  8 12  1  0  0  0  0
  8 22  1  0  0  0  0
  9 23  1  0  0  0  0
 10 24  2  0  0  0  0
 11 14  1  0  0  0  0
 12 23  1  0  0  0  0
 13 15  2  0  0  0  0
 13 16  1  0  0  0  0
 14 23  1  0  0  0  0
 15 19  1  0  0  0  0
 16 20  2  0  0  0  0
 17 24  1  0  0  0  0
 17 25  2  0  0  0  0
 19 26  2  0  0  0  0
 20 26  1  0  0  0  0
 21 24  1  0  0  0  0
 22 25  1  0  0  0  0
 25 26  1  0  0  0  0
  3 27  1  0  0  0  0
  3 28  1  0  0  0  0
  4 29  1  0  0  0  0
  4 30  1  0  0  0  0
  9 31  1  0  0  0  0
  9 32  1  0  0  0  0
 10 33  1  0  0  0  0
 11 34  1  0  0  0  0
 11 35  1  0  0  0  0
 12 36  1  0  0  0  0
 12 37  1  0  0  0  0
 13 38  1  0  0  0  0
 14 39  1  0  0  0  0
 14 40  1  0  0  0  0
 15 41  1  0  0  0  0
 16 42  1  0  0  0  0
 17 43  1  0  0  0  0
 23 44  1  0  0  0  0
M  END
> <pdb_id>
6OI9

> <uniprot_id>
nan

> <usmiles>
Clc1c(c(Cl)ccc1)c2c(nc3nc(ncc3c2)N)N4C[C@H](CN)CC4

$$$$
MS0_A_403
          07202402463D 1   1.00000     0.00000     0
            
 25 26  0  0  0  0            999 V2000
   20.3138   10.8078   79.1868 O   0  0  0  0  0  0  0  0  0  0  0  0
   18.1271   10.4962   78.7443 O   0  0  0  0  0  0  0  0  0  0  0  0
   15.6675   16.4387   82.2282 O   0  0  0  0  0  0  0  0  0  0  0  0
   16.5493   14.8545   77.6181 O   0  0  0  0  0  0  0  0  0  0  0  0
   14.8698   17.5276   81.6880 C   0  0  0  0  0  0  0  0  0  0  0  0
   17.4322   13.9598   77.1943 C   0  0  0  0  0  0  0  0  0  0  0  0
   17.2425   14.7554   81.6847 C   0  0  0  0  0  0  0  0  0  0  0  0
   17.8910   13.9796   80.7173 C   0  0  0  0  0  0  0  0  0  0  0  0
   19.2272   12.4624   78.0920 C   0  0  0  0  0  0  0  0  0  0  0  0
   15.9554   15.7702   79.8984 C   0  0  0  0  0  0  0  0  0  0  0  0
   19.1983   11.1627   78.7549 C   0  0  0  0  0  0  0  0  0  0  0  0
   16.2779   15.6714   81.2764 C   0  0  0  0  0  0  0  0  0  0  0  0
   16.6441   14.9907   79.0159 C   0  0  0  0  0  0  0  0  0  0  0  0
   18.0481   13.4801   78.2755 C   0  0  0  0  0  0  0  0  0  0  0  0
   17.5927   14.1048   79.4026 C   0  0  0  0  0  0  0  0  0  0  0  0
   21.0917   11.4343   79.1374 H   0  0  0  0  0  0  0  0  0  0  0  0
   14.4563   18.0423   82.4391 H   0  0  0  0  0  0  0  0  0  0  0  0
   15.4551   18.1346   81.1504 H   0  0  0  0  0  0  0  0  0  0  0  0
   14.1495   17.1548   81.1030 H   0  0  0  0  0  0  0  0  0  0  0  0
   17.6033   13.6955   76.2452 H   0  0  0  0  0  0  0  0  0  0  0  0
   17.4686   14.6532   82.6534 H   0  0  0  0  0  0  0  0  0  0  0  0
   18.5873   13.3208   81.0023 H   0  0  0  0  0  0  0  0  0  0  0  0
   19.2984   12.2814   77.1111 H   0  0  0  0  0  0  0  0  0  0  0  0
   20.0559   12.9253   78.4066 H   0  0  0  0  0  0  0  0  0  0  0  0
   15.2416   16.3952   79.5821 H   0  0  0  0  0  0  0  0  0  0  0  0
  1 11  1  0  0  0  0
  2 11  2  0  0  0  0
  3  5  1  0  0  0  0
  3 12  1  0  0  0  0
  4  6  1  0  0  0  0
  4 13  1  0  0  0  0
  6 14  2  0  0  0  0
  7  8  1  0  0  0  0
  7 12  2  0  0  0  0
  8 15  2  0  0  0  0
  9 11  1  0  0  0  0
  9 14  1  0  0  0  0
 10 12  1  0  0  0  0
 10 13  2  0  0  0  0
 13 15  1  0  0  0  0
 14 15  1  0  0  0  0
  1 16  1  0  0  0  0
  5 17  1  0  0  0  0
  5 18  1  0  0  0  0
  5 19  1  0  0  0  0
  6 20  1  0  0  0  0
  7 21  1  0  0  0  0
  8 22  1  0  0  0  0
  9 23  1  0  0  0  0
  9 24  1  0  0  0  0
 10 25  1  0  0  0  0
M  END
> <pdb_id>
4DDH

> <uniprot_id>
P0A5R0

> <usmiles>
O=C(O)CC=1c2c(OC1)cc(OC)cc2

$$$$
MSN_A_5002
          07202412393D 1   1.00000     0.00000     0
            
 24 24  0  0  0  0            999 V2000
   29.3842   67.2371    7.7629 S   0  0  0  0  0  0  0  0  0  0  0  0
   31.9191   67.9860    5.6619 O   0  0  0  0  0  0  0  0  0  0  0  0
   33.9904   66.5431    7.0512 O   0  0  0  0  0  0  0  0  0  0  0  0
   33.7748   65.8409    9.6823 O   0  0  0  0  0  0  0  0  0  0  0  0
   31.3020   65.2563    9.7181 N   0  0  0  0  0  0  0  0  0  0  0  0
   28.5732   66.1052    8.9027 C   0  0  0  0  0  0  0  0  0  0  0  0
   31.0894   66.6712    7.7342 C   0  0  1  0  0  0  0  0  0  0  0  0
   31.9509   67.7644    7.0730 C   0  0  1  0  0  0  0  0  0  0  0  0
   33.2257   67.4430    7.8467 C   0  0  1  0  0  0  0  0  0  0  0  0
   32.9521   66.9339    9.2661 C   0  0  1  0  0  0  0  0  0  0  0  0
   31.4708   66.6191    9.2065 C   0  0  2  0  0  0  0  0  0  0  0  0
   32.5422   68.7322    5.4276 H   0  0  0  0  0  0  0  0  0  0  0  0
   34.8366   66.3108    7.5309 H   0  0  0  0  0  0  0  0  0  0  0  0
   33.5295   65.5751   10.6146 H   0  0  0  0  0  0  0  0  0  0  0  0
   31.5543   65.2297   10.6853 H   0  0  0  0  0  0  0  0  0  0  0  0
   30.3472   64.9774    9.6148 H   0  0  0  0  0  0  0  0  0  0  0  0
   27.6063   66.3478    8.9819 H   0  0  0  0  0  0  0  0  0  0  0  0
   28.6551   65.1699    8.5585 H   0  0  0  0  0  0  0  0  0  0  0  0
   29.0075   66.1689    9.8012 H   0  0  0  0  0  0  0  0  0  0  0  0
   31.1885   65.7839    7.2837 H   0  0  0  0  0  0  0  0  0  0  0  0
   31.6224   68.6209    7.4711 H   0  0  0  0  0  0  0  0  0  0  0  0
   33.7493   68.2911    7.9278 H   0  0  0  0  0  0  0  0  0  0  0  0
   33.0879   67.6916    9.9044 H   0  0  0  0  0  0  0  0  0  0  0  0
   30.9392   67.2754    9.7418 H   0  0  0  0  0  0  0  0  0  0  0  0
  1  6  1  0  0  0  0
  1  7  1  0  0  0  0
  2  8  1  0  0  0  0
  3  9  1  0  0  0  0
  4 10  1  0  0  0  0
  5 11  1  0  0  0  0
  7  8  1  0  0  0  0
  7 11  1  0  0  0  0
  8  9  1  0  0  0  0
  9 10  1  0  0  0  0
 10 11  1  0  0  0  0
  2 12  1  0  0  0  0
  3 13  1  0  0  0  0
  4 14  1  0  0  0  0
  5 15  1  0  0  0  0
  5 16  1  0  0  0  0
  6 17  1  0  0  0  0
  6 18  1  0  0  0  0
  6 19  1  0  0  0  0
  7 20  1  0  0  0  0
  8 21  1  0  0  0  0
  9 22  1  0  0  0  0
 10 23  1  0  0  0  0
 11 24  1  0  0  0  0
M  END
> <pdb_id>
2F7O

> <uniprot_id>
Q24451

> <usmiles>
S([C@H]1[C@H](O)[C@H](O)[C@H](O)[C@@H]1N)C

$$$$
MSR_A_166
          07202403293D 1   1.00000     0.00000     0
            
 20 21  0  0  0  0            999 V2000
   27.0949  -40.7199    5.9821 O   0  0  0  0  0  0  0  0  0  0  0  0
   29.6065  -38.4900   -0.8644 N   0  0  0  0  0  0  0  0  0  0  0  0
   28.8500  -38.5628    1.1288 N   0  0  0  0  0  0  0  0  0  0  0  0
   29.3591  -39.3323    0.1683 C   0  0  0  0  0  0  0  0  0  0  0  0
   29.2613  -37.2208   -0.5070 C   0  0  0  0  0  0  0  0  0  0  0  0
   28.7576  -37.2644    0.7744 C   0  0  0  0  0  0  0  0  0  0  0  0
   27.5827  -41.0072    3.6397 C   0  0  0  0  0  0  0  0  0  0  0  0
   27.9092  -38.8772    4.6962 C   0  0  0  0  0  0  0  0  0  0  0  0
   28.0383  -40.4291    2.4408 C   0  0  0  0  0  0  0  0  0  0  0  0
   28.3705  -38.3320    3.4947 C   0  0  0  0  0  0  0  0  0  0  0  0
   27.5162  -40.2150    4.7806 C   0  0  0  0  0  0  0  0  0  0  0  0
   28.4384  -39.0812    2.3077 C   0  0  0  0  0  0  0  0  0  0  0  0
   27.0565  -40.1281    6.7873 H   0  0  0  0  0  0  0  0  0  0  0  0
   29.5233  -40.3181    0.2018 H   0  0  0  0  0  0  0  0  0  0  0  0
   29.3567  -36.4029   -1.0744 H   0  0  0  0  0  0  0  0  0  0  0  0
   28.4031  -36.5046    1.3193 H   0  0  0  0  0  0  0  0  0  0  0  0
   27.3120  -41.9694    3.6709 H   0  0  0  0  0  0  0  0  0  0  0  0
   27.8595  -38.2989    5.5105 H   0  0  0  0  0  0  0  0  0  0  0  0
   28.0817  -41.0112    1.6289 H   0  0  0  0  0  0  0  0  0  0  0  0
   28.6625  -37.3757    3.4793 H   0  0  0  0  0  0  0  0  0  0  0  0
  1 11  1  0  0  0  0
  2  4  2  0  0  0  0
  2  5  1  0  0  0  0
  3  4  1  0  0  0  0
  3  6  1  0  0  0  0
  3 12  1  0  0  0  0
  5  6  2  0  0  0  0
  7  9  1  0  0  0  0
  7 11  2  0  0  0  0
  8 10  2  0  0  0  0
  8 11  1  0  0  0  0
  9 12  2  0  0  0  0
 10 12  1  0  0  0  0
  1 13  1  0  0  0  0
  4 14  1  0  0  0  0
  5 15  1  0  0  0  0
  6 16  1  0  0  0  0
  7 17  1  0  0  0  0
  8 18  1  0  0  0  0
  9 19  1  0  0  0  0
 10 20  1  0  0  0  0
M  END
> <pdb_id>
3QHD

> <uniprot_id>
Q3JRA0

> <usmiles>
Oc1ccc(N2C=NC=C2)cc1

$$$$
MT6_D_200
          07192415303D 1   1.00000     0.00000     0
            
 31 33  0  0  0  0            999 V2000
   19.0615  -28.3947   -1.2526 O   0  0  0  0  0  0  0  0  0  0  0  0
   13.2230  -30.1988    7.1355 O   0  0  0  0  0  0  0  0  0  0  0  0
   17.9630  -26.5894   -0.2080 O   0  0  0  0  0  0  0  0  0  0  0  0
   15.6299  -27.6296    4.0414 O   0  0  0  0  0  0  0  0  0  0  0  0
   13.4009  -27.9008    7.3922 N   0  0  0  0  0  0  0  0  0  0  0  0
   18.6019  -25.6011   -1.0447 C   0  0  0  0  0  0  0  0  0  0  0  0
   13.8820  -26.5981    7.0263 C   0  0  0  0  0  0  0  0  0  0  0  0
   17.3783  -31.2890    1.1660 C   0  0  0  0  0  0  0  0  0  0  0  0
   14.6649  -26.3084    5.8757 C   0  0  0  0  0  0  0  0  0  0  0  0
   17.9154  -30.3512    0.2705 C   0  0  0  0  0  0  0  0  0  0  0  0
   16.6590  -30.8042    2.2609 C   0  0  0  0  0  0  0  0  0  0  0  0
   15.0040  -29.7042    4.5277 C   0  0  0  0  0  0  0  0  0  0  0  0
   17.0057  -28.5020    1.5872 C   0  0  0  0  0  0  0  0  0  0  0  0
   18.2951  -27.9821   -0.3925 C   0  0  0  0  0  0  0  0  0  0  0  0
   13.6381  -28.9969    6.7506 C   0  0  0  0  0  0  0  0  0  0  0  0
   14.9543  -27.4781    5.1768 C   0  0  0  0  0  0  0  0  0  0  0  0
   15.7061  -28.9343    3.6135 C   0  0  0  0  0  0  0  0  0  0  0  0
   17.7291  -28.9758    0.4905 C   0  0  0  0  0  0  0  0  0  0  0  0
   16.4448  -29.4324    2.4287 C   0  0  0  0  0  0  0  0  0  0  0  0
   14.4693  -28.8477    5.5242 C   0  0  0  0  0  0  0  0  0  0  0  0
   12.8341  -27.9650    8.2135 H   0  0  0  0  0  0  0  0  0  0  0  0
   18.2704  -24.6906   -0.7976 H   0  0  0  0  0  0  0  0  0  0  0  0
   19.5922  -25.6425   -0.9126 H   0  0  0  0  0  0  0  0  0  0  0  0
   18.3855  -25.7858   -2.0034 H   0  0  0  0  0  0  0  0  0  0  0  0
   13.6478  -25.8347    7.6283 H   0  0  0  0  0  0  0  0  0  0  0  0
   17.5062  -32.2707    1.0251 H   0  0  0  0  0  0  0  0  0  0  0  0
   14.9656  -25.3936    5.6060 H   0  0  0  0  0  0  0  0  0  0  0  0
   18.4324  -30.6628   -0.5267 H   0  0  0  0  0  0  0  0  0  0  0  0
   16.2922  -31.4467    2.9337 H   0  0  0  0  0  0  0  0  0  0  0  0
   14.8930  -30.6973    4.4909 H   0  0  0  0  0  0  0  0  0  0  0  0
   16.8999  -27.5217    1.7540 H   0  0  0  0  0  0  0  0  0  0  0  0
  1 14  2  0  0  0  0
  2 15  2  0  0  0  0
  3  6  1  0  0  0  0
  3 14  1  0  0  0  0
  4 16  1  0  0  0  0
  4 17  1  0  0  0  0
  5  7  1  0  0  0  0
  5 15  1  0  0  0  0
  7  9  2  0  0  0  0
  8 10  1  0  0  0  0
  8 11  2  0  0  0  0
  9 16  1  0  0  0  0
 10 18  2  0  0  0  0
 11 19  1  0  0  0  0
 12 17  2  0  0  0  0
 12 20  1  0  0  0  0
 13 18  1  0  0  0  0
 13 19  2  0  0  0  0
 14 18  1  0  0  0  0
 15 20  1  0  0  0  0
 16 20  2  0  0  0  0
 17 19  1  0  0  0  0
  5 21  1  0  0  0  0
  6 22  1  0  0  0  0
  6 23  1  0  0  0  0
  6 24  1  0  0  0  0
  7 25  1  0  0  0  0
  8 26  1  0  0  0  0
  9 27  1  0  0  0  0
 10 28  1  0  0  0  0
 11 29  1  0  0  0  0
 12 30  1  0  0  0  0
 13 31  1  0  0  0  0
M  END
> <pdb_id>
4Y5D

> <uniprot_id>
P22629

> <usmiles>
O=C(OC)c1cc(ccc1)C=2OC3=C(C(=O)NC=C3)C2

$$$$
MTH_A_233
          07202415043D 1   1.00000     0.00000     0
            
 36 38  0  0  0  0            999 V2000
  -23.9846   12.1036    4.5313 S   0  0  0  0  0  0  0  0  0  0  0  0
  -23.5897    6.5679    2.7843 O   0  0  0  0  0  0  0  0  0  0  0  0
  -25.6131    7.9427    4.2253 O   0  0  0  0  0  0  0  0  0  0  0  0
  -25.2292    9.4466    1.6901 O   0  0  0  0  0  0  0  0  0  0  0  0
  -19.8078   11.4709   -1.9500 N   0  0  0  0  0  0  0  0  0  0  0  0
  -19.4652   10.6381    0.2303 N   0  0  0  0  0  0  0  0  0  0  0  0
  -21.1590    9.4625    1.4784 N   0  0  0  0  0  0  0  0  0  0  0  0
  -23.2514    9.2453    0.2497 N   0  0  0  0  0  0  0  0  0  0  0  0
  -25.4696   13.1570    4.2892 C   0  0  0  0  0  0  0  0  0  0  0  0
  -24.0267   11.1479    2.9803 C   0  0  0  0  0  0  0  0  0  0  0  0
  -19.9280    9.9908    1.3116 C   0  0  0  0  0  0  0  0  0  0  0  0
  -23.6298    9.6610   -1.0253 C   0  0  0  0  0  0  0  0  0  0  0  0
  -22.6767   10.2934   -1.6878 C   0  0  0  0  0  0  0  0  0  0  0  0
  -24.2103    8.4795    1.2639 C   0  0  1  0  0  0  0  0  0  0  0  0
  -23.6084    8.0264    2.6503 C   0  0  1  0  0  0  0  0  0  0  0  0
  -24.4488    8.7545    3.8043 C   0  0  1  0  0  0  0  0  0  0  0  0
  -20.2760   10.8229   -0.8766 C   0  0  0  0  0  0  0  0  0  0  0  0
  -24.9728    9.9490    3.0392 C   0  0  2  0  0  0  0  0  0  0  0  0
  -21.9416    9.6569    0.3792 C   0  0  0  0  0  0  0  0  0  0  0  0
  -21.6059   10.3023   -0.8110 C   0  0  0  0  0  0  0  0  0  0  0  0
  -23.2029    6.3197    3.6725 H   0  0  0  0  0  0  0  0  0  0  0  0
  -26.1135    8.4253    4.9441 H   0  0  0  0  0  0  0  0  0  0  0  0
  -20.3943   11.6038   -2.7490 H   0  0  0  0  0  0  0  0  0  0  0  0
  -18.8716   11.8222   -1.9530 H   0  0  0  0  0  0  0  0  0  0  0  0
  -25.5856   13.7568    5.0809 H   0  0  0  0  0  0  0  0  0  0  0  0
  -25.3542   13.7115    3.4651 H   0  0  0  0  0  0  0  0  0  0  0  0
  -26.2776   12.5763    4.1897 H   0  0  0  0  0  0  0  0  0  0  0  0
  -23.1038   10.8155    2.7863 H   0  0  0  0  0  0  0  0  0  0  0  0
  -24.3253   11.7527    2.2420 H   0  0  0  0  0  0  0  0  0  0  0  0
  -19.2919    9.8888    2.0764 H   0  0  0  0  0  0  0  0  0  0  0  0
  -24.5402    9.4959   -1.4048 H   0  0  0  0  0  0  0  0  0  0  0  0
  -22.7195   10.6770   -2.6103 H   0  0  0  0  0  0  0  0  0  0  0  0
  -24.6436    7.7027    0.8070 H   0  0  0  0  0  0  0  0  0  0  0  0
  -22.6650    8.3542    2.7004 H   0  0  0  0  0  0  0  0  0  0  0  0
  -23.8751    9.0228    4.5781 H   0  0  0  0  0  0  0  0  0  0  0  0
  -25.8387   10.2397    3.4463 H   0  0  0  0  0  0  0  0  0  0  0  0
  1  9  1  0  0  0  0
  1 10  1  0  0  0  0
  2 15  1  0  0  0  0
  3 16  1  0  0  0  0
  4 14  1  0  0  0  0
  4 18  1  0  0  0  0
  5 17  1  0  0  0  0
  6 11  1  0  0  0  0
  6 17  2  0  0  0  0
  7 11  2  0  0  0  0
  7 19  1  0  0  0  0
  8 12  1  0  0  0  0
  8 14  1  0  0  0  0
  8 19  1  0  0  0  0
 10 18  1  0  0  0  0
 12 13  2  0  0  0  0
 13 20  1  0  0  0  0
 14 15  1  0  0  0  0
 15 16  1  0  0  0  0
 16 18  1  0  0  0  0
 17 20  1  0  0  0  0
 19 20  2  0  0  0  0
  2 21  1  0  0  0  0
  3 22  1  0  0  0  0
  5 23  1  0  0  0  0
  5 24  1  0  0  0  0
  9 25  1  0  0  0  0
  9 26  1  0  0  0  0
  9 27  1  0  0  0  0
 10 28  1  0  0  0  0
 10 29  1  0  0  0  0
 11 30  1  0  0  0  0
 12 31  1  0  0  0  0
 13 32  1  0  0  0  0
 14 33  1  0  0  0  0
 15 34  1  0  0  0  0
 16 35  1  0  0  0  0
 18 36  1  0  0  0  0
M  END
> <pdb_id>
1NC1

> <uniprot_id>
P24247

> <usmiles>
S(C[C@H]1O[C@@H](N2c3ncnc(N)c3C=C2)[C@H](O)[C@@H]1O)C

$$$$
MTI_A_301
          07202403123D 1   1.00000     0.00000     0
            
 36 38  0  0  0  0            999 V2000
   34.4166   27.6203   65.5091 S   0  0  0  0  0  0  0  0  0  0  0  0
   33.2161   19.5749   63.2286 O   0  0  0  0  0  0  0  0  0  0  0  0
   30.3516   27.5790   66.9561 O   0  0  0  0  0  0  0  0  0  0  0  0
   29.2505   25.0884   67.0641 O   0  0  0  0  0  0  0  0  0  0  0  0
   33.1976   20.2665   65.4278 N   0  0  0  0  0  0  0  0  0  0  0  0
   32.1080   22.3200   66.1732 N   0  0  0  0  0  0  0  0  0  0  0  0
   31.5906   22.0997   62.5594 N   0  0  0  0  0  0  0  0  0  0  0  0
   30.9490   26.0091   64.1650 N   0  0  0  0  0  0  0  0  0  0  0  0
   35.8185   26.5660   65.8722 C   0  0  0  0  0  0  0  0  0  0  0  0
   32.8391   21.1748   66.4448 C   0  0  0  0  0  0  0  0  0  0  0  0
   33.2361   26.4031   64.8583 C   0  0  0  0  0  0  0  0  0  0  0  0
   30.9772   23.2136   62.8654 C   0  0  0  0  0  0  0  0  0  0  0  0
   32.8535   20.4261   64.0462 C   0  0  0  0  0  0  0  0  0  0  0  0
   31.2896   26.5088   66.5181 C   0  0  1  0  0  0  0  0  0  0  0  0
   30.5348   25.1105   66.3446 C   0  0  2  0  0  0  0  0  0  0  0  0
   31.7768   26.7922   65.0881 C   0  0  2  0  0  0  0  0  0  0  0  0
   32.0892   21.6282   63.7602 C   0  0  0  0  0  0  0  0  0  0  0  0
   31.7520   22.5007   64.8123 C   0  0  0  0  0  0  0  0  0  0  0  0
   30.3373   24.8530   64.8079 C   0  0  2  0  0  0  0  0  0  0  0  0
   31.0041   23.5654   64.2123 C   0  0  0  0  0  0  0  0  0  0  0  0
   30.8511   28.4396   67.0559 H   0  0  0  0  0  0  0  0  0  0  0  0
   28.8097   24.2005   66.9321 H   0  0  0  0  0  0  0  0  0  0  0  0
   31.8499   22.9725   66.8858 H   0  0  0  0  0  0  0  0  0  0  0  0
   31.6795   21.6809   61.6556 H   0  0  0  0  0  0  0  0  0  0  0  0
   31.5233   25.6902   63.4110 H   0  0  0  0  0  0  0  0  0  0  0  0
   36.5629   27.1185   66.2472 H   0  0  0  0  0  0  0  0  0  0  0  0
   35.5495   25.8719   66.5399 H   0  0  0  0  0  0  0  0  0  0  0  0
   36.1258   26.1189   65.0321 H   0  0  0  0  0  0  0  0  0  0  0  0
   33.1196   20.9877   67.3862 H   0  0  0  0  0  0  0  0  0  0  0  0
   33.4049   25.5258   65.3076 H   0  0  0  0  0  0  0  0  0  0  0  0
   33.3880   26.3085   63.8745 H   0  0  0  0  0  0  0  0  0  0  0  0
   30.5189   23.7759   62.1771 H   0  0  0  0  0  0  0  0  0  0  0  0
   32.0599   26.4252   67.1502 H   0  0  0  0  0  0  0  0  0  0  0  0
   31.1180   24.3874   66.7147 H   0  0  0  0  0  0  0  0  0  0  0  0
   31.6610   27.7652   64.8884 H   0  0  0  0  0  0  0  0  0  0  0  0
   29.3591   24.8417   64.6004 H   0  0  0  0  0  0  0  0  0  0  0  0
  1  9  1  0  0  0  0
  1 11  1  0  0  0  0
  2 13  2  0  0  0  0
  3 14  1  0  0  0  0
  4 15  1  0  0  0  0
  5 10  2  0  0  0  0
  5 13  1  0  0  0  0
  6 10  1  0  0  0  0
  6 18  1  0  0  0  0
  7 12  1  0  0  0  0
  7 17  1  0  0  0  0
  8 16  1  0  0  0  0
  8 19  1  0  0  0  0
 11 16  1  0  0  0  0
 12 20  2  0  0  0  0
 13 17  1  0  0  0  0
 14 15  1  0  0  0  0
 14 16  1  0  0  0  0
 15 19  1  0  0  0  0
 17 18  2  0  0  0  0
 18 20  1  0  0  0  0
 19 20  1  0  0  0  0
  3 21  1  0  0  0  0
  4 22  1  0  0  0  0
  6 23  1  0  0  0  0
  7 24  1  0  0  0  0
  8 25  1  0  0  0  0
  9 26  1  0  0  0  0
  9 27  1  0  0  0  0
  9 28  1  0  0  0  0
 10 29  1  0  0  0  0
 11 30  1  0  0  0  0
 11 31  1  0  0  0  0
 12 32  1  0  0  0  0
 14 33  1  0  0  0  0
 15 34  1  0  0  0  0
 16 35  1  0  0  0  0
 19 36  1  0  0  0  0
M  END
> <pdb_id>
1Q1G

> <uniprot_id>
Q8I3X4

> <usmiles>
S(C[C@H]1N[C@@H](C=2C=3NC=NC(=O)C3NC2)[C@H](O)[C@@H]1O)C

$$$$
MTI_F_306
          07202403123D 1   1.00000     0.00000     0
            
 36 38  0  0  0  0            999 V2000
   34.5750   27.5210   65.4310 S   0  0  0  0  0  0  0  0  0  0  0  0
   33.1940   19.5680   63.2270 O   0  0  0  0  0  0  0  0  0  0  0  0
   30.4910   27.5980   66.9450 O   0  0  0  0  0  0  0  0  0  0  0  0
   29.3200   25.1720   67.0690 O   0  0  0  0  0  0  0  0  0  0  0  0
   33.2040   20.2720   65.4160 N   0  0  0  0  0  0  0  0  0  0  0  0
   32.1460   22.3390   66.1780 N   0  0  0  0  0  0  0  0  0  0  0  0
   31.5900   22.1240   62.5570 N   0  0  0  0  0  0  0  0  0  0  0  0
   31.0410   26.0300   64.1980 N   0  0  0  0  0  0  0  0  0  0  0  0
   35.7510   26.4540   66.2660 C   0  0  0  0  0  0  0  0  0  0  0  0
   32.8690   21.1860   66.4420 C   0  0  0  0  0  0  0  0  0  0  0  0
   33.3440   26.3020   64.8930 C   0  0  0  0  0  0  0  0  0  0  0  0
   30.9900   23.2520   62.8750 C   0  0  0  0  0  0  0  0  0  0  0  0
   32.8500   20.4330   64.0420 C   0  0  0  0  0  0  0  0  0  0  0  0
   31.3990   26.5060   66.5400 C   0  0  1  0  0  0  0  0  0  0  0  0
   30.6020   25.1360   66.3640 C   0  0  2  0  0  0  0  0  0  0  0  0
   31.9070   26.7610   65.1170 C   0  0  2  0  0  0  0  0  0  0  0  0
   32.0960   21.6420   63.7600 C   0  0  0  0  0  0  0  0  0  0  0  0
   31.7810   22.5230   64.8190 C   0  0  0  0  0  0  0  0  0  0  0  0
   30.3940   24.8870   64.8300 C   0  0  2  0  0  0  0  0  0  0  0  0
   31.0360   23.5960   64.2260 C   0  0  0  0  0  0  0  0  0  0  0  0
   31.0132   28.4445   67.0487 H   0  0  0  0  0  0  0  0  0  0  0  0
   28.8445   24.3017   66.9407 H   0  0  0  0  0  0  0  0  0  0  0  0
   33.7246   19.4569   65.6703 H   0  0  0  0  0  0  0  0  0  0  0  0
   31.6653   21.7063   61.6515 H   0  0  0  0  0  0  0  0  0  0  0  0
   31.5919   25.7026   63.4303 H   0  0  0  0  0  0  0  0  0  0  0  0
   36.5051   27.0047   66.6238 H   0  0  0  0  0  0  0  0  0  0  0  0
   35.2954   25.9821   67.0208 H   0  0  0  0  0  0  0  0  0  0  0  0
   36.1079   25.7804   65.6188 H   0  0  0  0  0  0  0  0  0  0  0  0
   33.1604   20.9961   67.3796 H   0  0  0  0  0  0  0  0  0  0  0  0
   33.4906   25.4552   65.4043 H   0  0  0  0  0  0  0  0  0  0  0  0
   33.4738   26.1287   63.9167 H   0  0  0  0  0  0  0  0  0  0  0  0
   30.5322   23.8235   62.1940 H   0  0  0  0  0  0  0  0  0  0  0  0
   32.1571   26.4056   67.1843 H   0  0  0  0  0  0  0  0  0  0  0  0
   31.1547   24.3917   66.7389 H   0  0  0  0  0  0  0  0  0  0  0  0
   31.8422   27.7388   64.9180 H   0  0  0  0  0  0  0  0  0  0  0  0
   29.4163   24.9010   64.6207 H   0  0  0  0  0  0  0  0  0  0  0  0
  1  9  1  0  0  0  0
  1 11  1  0  0  0  0
  2 13  2  0  0  0  0
  3 14  1  0  0  0  0
  4 15  1  0  0  0  0
  5 10  1  0  0  0  0
  5 13  1  0  0  0  0
  6 10  2  0  0  0  0
  6 18  1  0  0  0  0
  7 12  1  0  0  0  0
  7 17  1  0  0  0  0
  8 16  1  0  0  0  0
  8 19  1  0  0  0  0
 11 16  1  0  0  0  0
 12 20  2  0  0  0  0
 13 17  1  0  0  0  0
 14 15  1  0  0  0  0
 14 16  1  0  0  0  0
 15 19  1  0  0  0  0
 17 18  2  0  0  0  0
 18 20  1  0  0  0  0
 19 20  1  0  0  0  0
  3 21  1  0  0  0  0
  4 22  1  0  0  0  0
  5 23  1  0  0  0  0
  7 24  1  0  0  0  0
  8 25  1  0  0  0  0
  9 26  1  0  0  0  0
  9 27  1  0  0  0  0
  9 28  1  0  0  0  0
 10 29  1  0  0  0  0
 11 30  1  0  0  0  0
 11 31  1  0  0  0  0
 12 32  1  0  0  0  0
 14 33  1  0  0  0  0
 15 34  1  0  0  0  0
 16 35  1  0  0  0  0
 19 36  1  0  0  0  0
M  END
> <pdb_id>
1Q1G

> <uniprot_id>
Q8I3X4

> <usmiles>
S(C[C@H]1N[C@@H](C=2C=3N=CNC(=O)C3NC2)[C@H](O)[C@@H]1O)C

$$$$
MTM_B_234
          07202415043D 1   1.00000     0.00000     0
            
 37 39  0  0  0  0            999 V2000
  -23.9082   12.1478    4.2464 S   0  0  0  0  0  0  0  0  0  0  0  0
  -25.4386    7.9392    4.0929 O   0  0  0  0  0  0  0  0  0  0  0  0
  -23.5205    6.6231    2.6908 O   0  0  0  0  0  0  0  0  0  0  0  0
  -19.6142   11.6805   -1.8193 N   0  0  0  0  0  0  0  0  0  0  0  0
  -19.3241   10.7335    0.3266 N   0  0  0  0  0  0  0  0  0  0  0  0
  -21.0395    9.4338    1.4726 N   0  0  0  0  0  0  0  0  0  0  0  0
  -22.4480   10.4233   -1.7226 N   0  0  0  0  0  0  0  0  0  0  0  0
  -25.1197    9.3886    1.3883 N   0  0  0  0  0  0  0  0  0  0  0  0
  -25.4374   13.1531    4.1362 C   0  0  0  0  0  0  0  0  0  0  0  0
  -24.0468   11.1905    2.6927 C   0  0  0  0  0  0  0  0  0  0  0  0
  -19.8089   10.0050    1.3713 C   0  0  0  0  0  0  0  0  0  0  0  0
  -23.4125    9.7342   -1.1265 C   0  0  0  0  0  0  0  0  0  0  0  0
  -20.0967   10.9597   -0.7935 C   0  0  0  0  0  0  0  0  0  0  0  0
  -24.3703    8.8077    3.5912 C   0  0  1  0  0  0  0  0  0  0  0  0
  -23.4893    8.0617    2.4767 C   0  0  2  0  0  0  0  0  0  0  0  0
  -24.9468    9.9387    2.7654 C   0  0  2  0  0  0  0  0  0  0  0  0
  -21.4182   10.3996   -0.8008 C   0  0  0  0  0  0  0  0  0  0  0  0
  -21.7894    9.6754    0.3482 C   0  0  0  0  0  0  0  0  0  0  0  0
  -24.0324    8.4513    1.0379 C   0  0  2  0  0  0  0  0  0  0  0  0
  -23.0913    9.2463    0.1453 C   0  0  0  0  0  0  0  0  0  0  0  0
  -25.9697    8.4292    4.7840 H   0  0  0  0  0  0  0  0  0  0  0  0
  -22.9685    6.1699    1.9909 H   0  0  0  0  0  0  0  0  0  0  0  0
  -20.1803   11.8404   -2.6280 H   0  0  0  0  0  0  0  0  0  0  0  0
  -18.6890   12.0573   -1.7742 H   0  0  0  0  0  0  0  0  0  0  0  0
  -22.4626   10.8564   -2.6238 H   0  0  0  0  0  0  0  0  0  0  0  0
  -25.1198   10.1450    0.7341 H   0  0  0  0  0  0  0  0  0  0  0  0
  -25.5051   13.7459    4.9386 H   0  0  0  0  0  0  0  0  0  0  0  0
  -25.4086   13.7140    3.3088 H   0  0  0  0  0  0  0  0  0  0  0  0
  -26.2325   12.5477    4.1009 H   0  0  0  0  0  0  0  0  0  0  0  0
  -23.1284   10.8954    2.4290 H   0  0  0  0  0  0  0  0  0  0  0  0
  -24.4171   11.7965    1.9887 H   0  0  0  0  0  0  0  0  0  0  0  0
  -19.1928    9.8763    2.1484 H   0  0  0  0  0  0  0  0  0  0  0  0
  -24.3025    9.5754   -1.5539 H   0  0  0  0  0  0  0  0  0  0  0  0
  -23.8002    9.1534    4.3365 H   0  0  0  0  0  0  0  0  0  0  0  0
  -22.5430    8.3752    2.5559 H   0  0  0  0  0  0  0  0  0  0  0  0
  -25.8405   10.1949    3.1338 H   0  0  0  0  0  0  0  0  0  0  0  0
  -24.3897    7.6492    0.5593 H   0  0  0  0  0  0  0  0  0  0  0  0
  1  9  1  0  0  0  0
  1 10  1  0  0  0  0
  2 14  1  0  0  0  0
  3 15  1  0  0  0  0
  4 13  1  0  0  0  0
  5 11  1  0  0  0  0
  5 13  2  0  0  0  0
  6 11  2  0  0  0  0
  6 18  1  0  0  0  0
  7 12  1  0  0  0  0
  7 17  1  0  0  0  0
  8 16  1  0  0  0  0
  8 19  1  0  0  0  0
 10 16  1  0  0  0  0
 12 20  2  0  0  0  0
 13 17  1  0  0  0  0
 14 15  1  0  0  0  0
 14 16  1  0  0  0  0
 15 19  1  0  0  0  0
 17 18  2  0  0  0  0
 18 20  1  0  0  0  0
 19 20  1  0  0  0  0
  2 21  1  0  0  0  0
  3 22  1  0  0  0  0
  4 23  1  0  0  0  0
  4 24  1  0  0  0  0
  7 25  1  0  0  0  0
  8 26  1  0  0  0  0
  9 27  1  0  0  0  0
  9 28  1  0  0  0  0
  9 29  1  0  0  0  0
 10 30  1  0  0  0  0
 10 31  1  0  0  0  0
 11 32  1  0  0  0  0
 12 33  1  0  0  0  0
 14 34  1  0  0  0  0
 15 35  1  0  0  0  0
 16 36  1  0  0  0  0
 19 37  1  0  0  0  0
M  END
> <pdb_id>
1Y6R

> <uniprot_id>
P24247

> <usmiles>
S(C[C@H]1N[C@@H](C=2c3ncnc(N)c3NC2)[C@H](O)[C@@H]1O)C

$$$$
MUJ_A_1839
          07192422223D 1   1.00000     0.00000     0
            
 49 51  0  0  0  0            999 V2000
   63.3850   30.5826   20.1076 O   0  0  0  0  0  0  0  0  0  0  0  0
   56.5127   27.0634   18.6557 O   0  0  0  0  0  0  0  0  0  0  0  0
   57.2727   29.4528   19.3087 O   0  0  0  0  0  0  0  0  0  0  0  0
   51.4172   26.1473   12.6608 N   0  0  0  0  0  0  0  0  0  0  0  0
   53.3285   29.4707   15.1478 N   0  0  0  0  0  0  0  0  0  0  0  0
   50.8365   26.2408   14.8780 N   0  0  0  0  0  0  0  0  0  0  0  0
   52.3749   27.8114   13.9032 N   0  0  0  0  0  0  0  0  0  0  0  0
   63.9138   30.2206   21.3795 C   0  0  0  0  0  0  0  0  0  0  0  0
   56.1417   25.7339   18.3075 C   0  0  0  0  0  0  0  0  0  0  0  0
   57.7614   30.7747   19.5684 C   0  0  0  0  0  0  0  0  0  0  0  0
   50.9896   26.8684   16.0487 C   0  0  0  0  0  0  0  0  0  0  0  0
   61.2148   30.3318   21.0578 C   0  0  0  0  0  0  0  0  0  0  0  0
   61.4566   30.9743   18.7657 C   0  0  0  0  0  0  0  0  0  0  0  0
   55.0733   30.3780   18.8364 C   0  0  0  0  0  0  0  0  0  0  0  0
   59.8407   30.3807   20.9194 C   0  0  0  0  0  0  0  0  0  0  0  0
   60.0812   31.0199   18.6404 C   0  0  0  0  0  0  0  0  0  0  0  0
   53.7779   30.1419   18.4171 C   0  0  0  0  0  0  0  0  0  0  0  0
   54.2594   27.8187   18.1367 C   0  0  0  0  0  0  0  0  0  0  0  0
   51.9289   28.6253   17.6056 C   0  0  0  0  0  0  0  0  0  0  0  0
   51.5457   26.7477   13.8454 C   0  0  0  0  0  0  0  0  0  0  0  0
   52.5073   28.4203   15.0975 C   0  0  0  0  0  0  0  0  0  0  0  0
   62.0238   30.6289   19.9775 C   0  0  0  0  0  0  0  0  0  0  0  0
   55.5566   28.0356   18.5539 C   0  0  0  0  0  0  0  0  0  0  0  0
   55.9701   29.3279   18.9078 C   0  0  0  0  0  0  0  0  0  0  0  0
   59.2534   30.7246   19.7122 C   0  0  0  0  0  0  0  0  0  0  0  0
   53.3536   28.8698   18.0640 C   0  0  0  0  0  0  0  0  0  0  0  0
   51.8002   27.9593   16.2490 C   0  0  0  0  0  0  0  0  0  0  0  0
   51.9238   26.4892   11.8693 H   0  0  0  0  0  0  0  0  0  0  0  0
   50.8143   25.3552   12.5645 H   0  0  0  0  0  0  0  0  0  0  0  0
   53.4631   29.9593   16.0099 H   0  0  0  0  0  0  0  0  0  0  0  0
   53.8093   29.7694   14.3235 H   0  0  0  0  0  0  0  0  0  0  0  0
   64.9130   30.2250   21.3387 H   0  0  0  0  0  0  0  0  0  0  0  0
   63.6054   30.8771   22.0679 H   0  0  0  0  0  0  0  0  0  0  0  0
   63.5944   29.3053   21.6251 H   0  0  0  0  0  0  0  0  0  0  0  0
   56.9274   25.1268   18.4258 H   0  0  0  0  0  0  0  0  0  0  0  0
   55.3942   25.4308   18.8986 H   0  0  0  0  0  0  0  0  0  0  0  0
   55.8428   25.7102   17.3535 H   0  0  0  0  0  0  0  0  0  0  0  0
   57.3547   31.1224   20.4132 H   0  0  0  0  0  0  0  0  0  0  0  0
   57.5180   31.3774   18.8085 H   0  0  0  0  0  0  0  0  0  0  0  0
   50.4780   26.5190   16.8337 H   0  0  0  0  0  0  0  0  0  0  0  0
   61.6222   30.0823   21.9364 H   0  0  0  0  0  0  0  0  0  0  0  0
   62.0393   31.1905   17.9823 H   0  0  0  0  0  0  0  0  0  0  0  0
   55.3604   31.3026   19.0866 H   0  0  0  0  0  0  0  0  0  0  0  0
   59.2599   30.1642   21.7041 H   0  0  0  0  0  0  0  0  0  0  0  0
   59.6761   31.2703   17.7611 H   0  0  0  0  0  0  0  0  0  0  0  0
   53.1329   30.9045   18.3673 H   0  0  0  0  0  0  0  0  0  0  0  0
   53.9683   26.8959   17.8841 H   0  0  0  0  0  0  0  0  0  0  0  0
   51.4601   29.5076   17.5643 H   0  0  0  0  0  0  0  0  0  0  0  0
   51.4808   28.0411   18.2823 H   0  0  0  0  0  0  0  0  0  0  0  0
  1  8  1  0  0  0  0
  1 22  1  0  0  0  0
  2  9  1  0  0  0  0
  2 23  1  0  0  0  0
  3 10  1  0  0  0  0
  3 24  1  0  0  0  0
  4 20  1  0  0  0  0
  5 21  1  0  0  0  0
  6 11  1  0  0  0  0
  6 20  2  0  0  0  0
  7 20  1  0  0  0  0
  7 21  2  0  0  0  0
 10 25  1  0  0  0  0
 11 27  2  0  0  0  0
 12 15  2  0  0  0  0
 12 22  1  0  0  0  0
 13 16  1  0  0  0  0
 13 22  2  0  0  0  0
 14 17  2  0  0  0  0
 14 24  1  0  0  0  0
 15 25  1  0  0  0  0
 16 25  2  0  0  0  0
 17 26  1  0  0  0  0
 18 23  1  0  0  0  0
 18 26  2  0  0  0  0
 19 26  1  0  0  0  0
 19 27  1  0  0  0  0
 21 27  1  0  0  0  0
 23 24  2  0  0  0  0
  4 28  1  0  0  0  0
  4 29  1  0  0  0  0
  5 30  1  0  0  0  0
  5 31  1  0  0  0  0
  8 32  1  0  0  0  0
  8 33  1  0  0  0  0
  8 34  1  0  0  0  0
  9 35  1  0  0  0  0
  9 36  1  0  0  0  0
  9 37  1  0  0  0  0
 10 38  1  0  0  0  0
 10 39  1  0  0  0  0
 11 40  1  0  0  0  0
 12 41  1  0  0  0  0
 13 42  1  0  0  0  0
 14 43  1  0  0  0  0
 15 44  1  0  0  0  0
 16 45  1  0  0  0  0
 17 46  1  0  0  0  0
 18 47  1  0  0  0  0
 19 48  1  0  0  0  0
 19 49  1  0  0  0  0
M  END
> <pdb_id>
4AT5

> <uniprot_id>
Q16620

> <usmiles>
O(c1c(OC)cc(cc1)Cc2c(nc(nc2)N)N)Cc3ccc(OC)cc3

$$$$
MVJ_A_1555
          07202405383D 1   1.00000     0.00000     0
            
 44 47  0  0  0  0            999 V2000
   -0.2815   13.4396   32.1999 O   0  0  0  0  0  0  0  0  0  0  0  0
   -2.9191   14.3976   28.6110 O   0  0  0  0  0  0  0  0  0  0  0  0
   -0.7480   11.1746   32.1084 N   0  0  0  0  0  0  0  0  0  0  0  0
   -3.7918   13.8825   29.6199 C   0  0  0  0  0  0  0  0  0  0  0  0
   -2.0047   13.4026   28.1408 C   0  0  0  0  0  0  0  0  0  0  0  0
   -6.3762    8.3131   26.6452 C   0  0  0  0  0  0  0  0  0  0  0  0
   -6.7969    8.2814   28.1041 C   0  0  0  0  0  0  0  0  0  0  0  0
   -4.9530    7.8146   26.4353 C   0  0  0  0  0  0  0  0  0  0  0  0
   -5.7689    8.9066   29.0396 C   0  0  0  0  0  0  0  0  0  0  0  0
   -3.9612    8.5580   27.3176 C   0  0  0  0  0  0  0  0  0  0  0  0
   -1.7985    9.0039   31.4896 C   0  0  0  0  0  0  0  0  0  0  0  0
   -2.6993    8.3975   30.6350 C   0  0  0  0  0  0  0  0  0  0  0  0
   -3.0037   13.4772   30.8613 C   0  0  0  0  0  0  0  0  0  0  0  0
   -1.0711   12.9957   29.2788 C   0  0  0  0  0  0  0  0  0  0  0  0
   -3.1636   10.4997   29.5734 C   0  0  0  0  0  0  0  0  0  0  0  0
   -0.8733   12.4892   31.6983 C   0  0  0  0  0  0  0  0  0  0  0  0
   -1.6028   10.3638   31.3603 C   0  0  0  0  0  0  0  0  0  0  0  0
   -4.3485    8.4254   28.7832 C   0  0  0  0  0  0  0  0  0  0  0  0
   -3.3831    9.1350   29.6810 C   0  0  0  0  0  0  0  0  0  0  0  0
   -2.2676   11.1156   30.4290 C   0  0  0  0  0  0  0  0  0  0  0  0
   -1.8416   12.5506   30.5219 C   0  0  0  0  0  0  0  0  0  0  0  0
   -0.1370   10.8533   32.8319 H   0  0  0  0  0  0  0  0  0  0  0  0
   -4.2722   13.0824   29.2606 H   0  0  0  0  0  0  0  0  0  0  0  0
   -4.4568   14.5866   29.8689 H   0  0  0  0  0  0  0  0  0  0  0  0
   -1.4668   13.7743   27.3842 H   0  0  0  0  0  0  0  0  0  0  0  0
   -2.5151   12.6025   27.8254 H   0  0  0  0  0  0  0  0  0  0  0  0
   -6.4377    9.2549   26.3146 H   0  0  0  0  0  0  0  0  0  0  0  0
   -6.9992    7.7339   26.1196 H   0  0  0  0  0  0  0  0  0  0  0  0
   -6.9344    7.3285   28.3745 H   0  0  0  0  0  0  0  0  0  0  0  0
   -7.6575    8.7819   28.1976 H   0  0  0  0  0  0  0  0  0  0  0  0
   -4.7000    7.9504   25.4774 H   0  0  0  0  0  0  0  0  0  0  0  0
   -4.9152    6.8398   26.6550 H   0  0  0  0  0  0  0  0  0  0  0  0
   -6.0162    8.6777   29.9811 H   0  0  0  0  0  0  0  0  0  0  0  0
   -5.7938    9.8992   28.9203 H   0  0  0  0  0  0  0  0  0  0  0  0
   -3.9565    9.5255   27.0647 H   0  0  0  0  0  0  0  0  0  0  0  0
   -3.0480    8.1737   27.1824 H   0  0  0  0  0  0  0  0  0  0  0  0
   -1.3046    8.4745   32.1794 H   0  0  0  0  0  0  0  0  0  0  0  0
   -2.8600    7.4130   30.7056 H   0  0  0  0  0  0  0  0  0  0  0  0
   -3.6181   13.0062   31.4944 H   0  0  0  0  0  0  0  0  0  0  0  0
   -2.6428   14.3012   31.2981 H   0  0  0  0  0  0  0  0  0  0  0  0
   -0.4952   13.7773   29.5187 H   0  0  0  0  0  0  0  0  0  0  0  0
   -0.4946   12.2397   28.9686 H   0  0  0  0  0  0  0  0  0  0  0  0
   -3.6495   11.0350   28.8824 H   0  0  0  0  0  0  0  0  0  0  0  0
   -4.3148    7.4533   29.0154 H   0  0  0  0  0  0  0  0  0  0  0  0
  1 16  2  0  0  0  0
  2  4  1  0  0  0  0
  2  5  1  0  0  0  0
  3 16  1  0  0  0  0
  3 17  1  0  0  0  0
  4 13  1  0  0  0  0
  5 14  1  0  0  0  0
  6  7  1  0  0  0  0
  6  8  1  0  0  0  0
  7  9  1  0  0  0  0
  8 10  1  0  0  0  0
  9 18  1  0  0  0  0
 10 18  1  0  0  0  0
 11 12  1  0  0  0  0
 11 17  2  0  0  0  0
 12 19  2  0  0  0  0
 13 21  1  0  0  0  0
 14 21  1  0  0  0  0
 15 19  1  0  0  0  0
 15 20  2  0  0  0  0
 16 21  1  0  0  0  0
 17 20  1  0  0  0  0
 18 19  1  0  0  0  0
 20 21  1  0  0  0  0
  3 22  1  0  0  0  0
  4 23  1  0  0  0  0
  4 24  1  0  0  0  0
  5 25  1  0  0  0  0
  5 26  1  0  0  0  0
  6 27  1  0  0  0  0
  6 28  1  0  0  0  0
  7 29  1  0  0  0  0
  7 30  1  0  0  0  0
  8 31  1  0  0  0  0
  8 32  1  0  0  0  0
  9 33  1  0  0  0  0
  9 34  1  0  0  0  0
 10 35  1  0  0  0  0
 10 36  1  0  0  0  0
 11 37  1  0  0  0  0
 12 38  1  0  0  0  0
 13 39  1  0  0  0  0
 13 40  1  0  0  0  0
 14 41  1  0  0  0  0
 14 42  1  0  0  0  0
 15 43  1  0  0  0  0
 18 44  1  0  0  0  0
M  END
> <pdb_id>
5AM4

> <uniprot_id>
P34913

> <usmiles>
O=C1Nc2c(cc(cc2)C3CCCCC3)C14CCOCC4

$$$$
MVL_A_1049
          07202412393D 1   1.00000     0.00000     0
            
 26 27  0  0  0  0            999 V2000
   27.9275   67.2312    7.1015 O   0  0  0  0  0  0  0  0  0  0  0  0
   33.5035   65.5418    9.3351 O   0  0  0  0  0  0  0  0  0  0  0  0
   34.0120   66.5784    7.0356 O   0  0  0  0  0  0  0  0  0  0  0  0
   31.7973   67.7847    5.6847 O   0  0  0  0  0  0  0  0  0  0  0  0
   30.8409   66.7691   10.9131 N   0  0  0  0  0  0  0  0  0  0  0  0
   30.1874   67.1312    8.8367 N   0  0  0  0  0  0  0  0  0  0  0  0
   29.5294   67.0055   10.9218 C   0  0  0  0  0  0  0  0  0  0  0  0
   29.1738   66.7686    6.6128 C   0  0  0  0  0  0  0  0  0  0  0  0
   29.1184   67.2525    9.6586 C   0  0  0  0  0  0  0  0  0  0  0  0
   31.2946   66.8383    9.6416 C   0  0  0  0  0  0  0  0  0  0  0  0
   32.7533   66.7203    9.0985 C   0  0  2  0  0  0  0  0  0  0  0  0
   32.8988   67.1431    7.6843 C   0  0  2  0  0  0  0  0  0  0  0  0
   31.6424   66.9310    6.8250 C   0  0  1  0  0  0  0  0  0  0  0  0
   30.2995   67.3915    7.3962 C   0  0  2  0  0  0  0  0  0  0  0  0
   27.1871   66.8125    6.5756 H   0  0  0  0  0  0  0  0  0  0  0  0
   34.4091   65.6344    8.9213 H   0  0  0  0  0  0  0  0  0  0  0  0
   34.0484   66.9048    6.0911 H   0  0  0  0  0  0  0  0  0  0  0  0
   31.0027   67.6877    5.0852 H   0  0  0  0  0  0  0  0  0  0  0  0
   28.9439   67.0009   11.7324 H   0  0  0  0  0  0  0  0  0  0  0  0
   29.2642   67.0178    5.6486 H   0  0  0  0  0  0  0  0  0  0  0  0
   29.2169   65.7739    6.7056 H   0  0  0  0  0  0  0  0  0  0  0  0
   28.1867   67.4845    9.3793 H   0  0  0  0  0  0  0  0  0  0  0  0
   33.2515   67.4227    9.6068 H   0  0  0  0  0  0  0  0  0  0  0  0
   33.0592   68.1300    7.7039 H   0  0  0  0  0  0  0  0  0  0  0  0
   31.5825   65.9762    6.5337 H   0  0  0  0  0  0  0  0  0  0  0  0
   30.2427   68.3813    7.2659 H   0  0  0  0  0  0  0  0  0  0  0  0
  1  8  1  0  0  0  0
  2 11  1  0  0  0  0
  3 12  1  0  0  0  0
  4 13  1  0  0  0  0
  5  7  1  0  0  0  0
  5 10  2  0  0  0  0
  6  9  1  0  0  0  0
  6 10  1  0  0  0  0
  6 14  1  0  0  0  0
  7  9  2  0  0  0  0
  8 14  1  0  0  0  0
 10 11  1  0  0  0  0
 11 12  1  0  0  0  0
 12 13  1  0  0  0  0
 13 14  1  0  0  0  0
  1 15  1  0  0  0  0
  2 16  1  0  0  0  0
  3 17  1  0  0  0  0
  4 18  1  0  0  0  0
  7 19  1  0  0  0  0
  8 20  1  0  0  0  0
  8 21  1  0  0  0  0
  9 22  1  0  0  0  0
 11 23  1  0  0  0  0
 12 24  1  0  0  0  0
 13 25  1  0  0  0  0
 14 26  1  0  0  0  0
M  END
> <pdb_id>
3D4Y

> <uniprot_id>
Q24451

> <usmiles>
O[C@@H]1C2=NC=CN2[C@@H]([C@@H](O)[C@@H]1O)CO

$$$$
MVL_A_503
          07192420163D 1   1.00000     0.00000     0
            
 26 27  0  0  0  0            999 V2000
   25.6566   22.0212   48.3948 O   0  0  0  0  0  0  0  0  0  0  0  0
   26.8127   16.3286   47.4257 O   0  0  0  0  0  0  0  0  0  0  0  0
   25.7293   17.8808   49.3063 O   0  0  0  0  0  0  0  0  0  0  0  0
   23.0782   18.2910   46.7999 O   0  0  0  0  0  0  0  0  0  0  0  0
   27.4878   18.6816   45.7625 N   0  0  0  0  0  0  0  0  0  0  0  0
   25.8410   19.7291   46.6562 N   0  0  0  0  0  0  0  0  0  0  0  0
   27.6409   19.9862   45.4380 C   0  0  0  0  0  0  0  0  0  0  0  0
   24.9911   20.7998   48.7160 C   0  0  0  0  0  0  0  0  0  0  0  0
   26.6047   20.6426   45.9960 C   0  0  0  0  0  0  0  0  0  0  0  0
   26.3900   18.5157   46.5016 C   0  0  0  0  0  0  0  0  0  0  0  0
   25.8102   17.2500   47.0170 C   0  0  2  0  0  0  0  0  0  0  0  0
   24.9069   17.5485   48.1929 C   0  0  2  0  0  0  0  0  0  0  0  0
   23.9320   18.6917   47.8705 C   0  0  1  0  0  0  0  0  0  0  0  0
   24.6135   19.9924   47.4683 C   0  0  2  0  0  0  0  0  0  0  0  0
   25.8814   22.5100   49.2377 H   0  0  0  0  0  0  0  0  0  0  0  0
   26.3796   15.4934   47.7646 H   0  0  0  0  0  0  0  0  0  0  0  0
   25.1528   18.0827   50.0981 H   0  0  0  0  0  0  0  0  0  0  0  0
   22.4416   19.0319   46.5861 H   0  0  0  0  0  0  0  0  0  0  0  0
   28.3777   20.3848   44.8919 H   0  0  0  0  0  0  0  0  0  0  0  0
   24.1570   21.0130   49.2248 H   0  0  0  0  0  0  0  0  0  0  0  0
   25.5967   20.2448   49.2863 H   0  0  0  0  0  0  0  0  0  0  0  0
   26.4281   21.6251   45.9358 H   0  0  0  0  0  0  0  0  0  0  0  0
   25.2644   16.8291   46.2924 H   0  0  0  0  0  0  0  0  0  0  0  0
   24.3807   16.7272   48.4132 H   0  0  0  0  0  0  0  0  0  0  0  0
   23.3683   18.8653   48.6780 H   0  0  0  0  0  0  0  0  0  0  0  0
   23.9755   20.5318   46.9188 H   0  0  0  0  0  0  0  0  0  0  0  0
  1  8  1  0  0  0  0
  2 11  1  0  0  0  0
  3 12  1  0  0  0  0
  4 13  1  0  0  0  0
  5  7  1  0  0  0  0
  5 10  2  0  0  0  0
  6  9  1  0  0  0  0
  6 10  1  0  0  0  0
  6 14  1  0  0  0  0
  7  9  2  0  0  0  0
  8 14  1  0  0  0  0
 10 11  1  0  0  0  0
 11 12  1  0  0  0  0
 12 13  1  0  0  0  0
 13 14  1  0  0  0  0
  1 15  1  0  0  0  0
  2 16  1  0  0  0  0
  3 17  1  0  0  0  0
  4 18  1  0  0  0  0
  7 19  1  0  0  0  0
  8 20  1  0  0  0  0
  8 21  1  0  0  0  0
  9 22  1  0  0  0  0
 11 23  1  0  0  0  0
 12 24  1  0  0  0  0
 13 25  1  0  0  0  0
 14 26  1  0  0  0  0
M  END
> <pdb_id>
4AYQ

> <uniprot_id>
B0SWV2

> <usmiles>
O[C@@H]1C2=NC=CN2[C@@H]([C@@H](O)[C@@H]1O)CO

$$$$
MVL_B_1868
          07192417363D 1   1.00000     0.00000     0
            
 26 27  0  0  0  0            999 V2000
  -17.6736   61.4141   48.3620 O   0  0  0  0  0  0  0  0  0  0  0  0
  -18.8518   55.4332   47.7654 O   0  0  0  0  0  0  0  0  0  0  0  0
  -20.0416   57.3506   46.3000 O   0  0  0  0  0  0  0  0  0  0  0  0
  -17.6558   59.3949   45.2232 O   0  0  0  0  0  0  0  0  0  0  0  0
  -18.7883   57.2578   49.9554 N   0  0  0  0  0  0  0  0  0  0  0  0
  -17.6731   58.7421   48.8202 N   0  0  0  0  0  0  0  0  0  0  0  0
  -18.7110   58.3869   50.7287 C   0  0  0  0  0  0  0  0  0  0  0  0
  -16.5994   60.6802   47.7026 C   0  0  0  0  0  0  0  0  0  0  0  0
  -17.9542   59.3145   50.0175 C   0  0  0  0  0  0  0  0  0  0  0  0
  -18.1545   57.4903   48.7949 C   0  0  0  0  0  0  0  0  0  0  0  0
  -18.0901   56.6381   47.5580 C   0  0  2  0  0  0  0  0  0  0  0  0
  -18.5978   57.4739   46.3842 C   0  0  2  0  0  0  0  0  0  0  0  0
  -18.1335   58.9580   46.4953 C   0  0  1  0  0  0  0  0  0  0  0  0
  -17.0339   59.2373   47.5814 C   0  0  2  0  0  0  0  0  0  0  0  0
  -17.4123   62.3748   48.4557 H   0  0  0  0  0  0  0  0  0  0  0  0
  -18.8091   54.8662   46.9428 H   0  0  0  0  0  0  0  0  0  0  0  0
  -20.3786   57.8962   45.5327 H   0  0  0  0  0  0  0  0  0  0  0  0
  -17.3564   60.3468   45.2885 H   0  0  0  0  0  0  0  0  0  0  0  0
  -19.1201   58.5193   51.6315 H   0  0  0  0  0  0  0  0  0  0  0  0
  -15.7627   60.7392   48.2472 H   0  0  0  0  0  0  0  0  0  0  0  0
  -16.4333   61.0632   46.7939 H   0  0  0  0  0  0  0  0  0  0  0  0
  -17.6735   60.2227   50.3279 H   0  0  0  0  0  0  0  0  0  0  0  0
  -17.1364   56.3903   47.3876 H   0  0  0  0  0  0  0  0  0  0  0  0
  -18.2083   57.0930   45.5456 H   0  0  0  0  0  0  0  0  0  0  0  0
  -18.9347   59.5106   46.7250 H   0  0  0  0  0  0  0  0  0  0  0  0
  -16.2323   58.6734   47.3830 H   0  0  0  0  0  0  0  0  0  0  0  0
  1  8  1  0  0  0  0
  2 11  1  0  0  0  0
  3 12  1  0  0  0  0
  4 13  1  0  0  0  0
  5  7  1  0  0  0  0
  5 10  2  0  0  0  0
  6  9  1  0  0  0  0
  6 10  1  0  0  0  0
  6 14  1  0  0  0  0
  7  9  2  0  0  0  0
  8 14  1  0  0  0  0
 10 11  1  0  0  0  0
 11 12  1  0  0  0  0
 12 13  1  0  0  0  0
 13 14  1  0  0  0  0
  1 15  1  0  0  0  0
  2 16  1  0  0  0  0
  3 17  1  0  0  0  0
  4 18  1  0  0  0  0
  7 19  1  0  0  0  0
  8 20  1  0  0  0  0
  8 21  1  0  0  0  0
  9 22  1  0  0  0  0
 11 23  1  0  0  0  0
 12 24  1  0  0  0  0
 13 25  1  0  0  0  0
 14 26  1  0  0  0  0
M  END
> <pdb_id>
2VMF

> <uniprot_id>
Q8AAK6

> <usmiles>
O[C@@H]1C2=NC=CN2[C@@H]([C@@H](O)[C@@H]1O)CO

$$$$
MVL_B_801
          07192418013D 1   1.00000     0.00000     0
            
 26 27  0  0  0  0            999 V2000
   12.6578  -10.0586   12.9090 O   0  0  0  0  0  0  0  0  0  0  0  0
   12.1093  -15.5167   10.5999 O   0  0  0  0  0  0  0  0  0  0  0  0
   11.0831  -13.4837    9.4936 O   0  0  0  0  0  0  0  0  0  0  0  0
   12.4720  -10.8824    9.4920 O   0  0  0  0  0  0  0  0  0  0  0  0
   13.3710  -14.8403   13.1579 N   0  0  0  0  0  0  0  0  0  0  0  0
   13.7688  -12.8109   12.3929 N   0  0  0  0  0  0  0  0  0  0  0  0
   13.7917  -14.0861   14.2143 C   0  0  0  0  0  0  0  0  0  0  0  0
   13.8230  -10.3138   12.1021 C   0  0  0  0  0  0  0  0  0  0  0  0
   14.0408  -12.8068   13.7184 C   0  0  0  0  0  0  0  0  0  0  0  0
   13.3549  -14.0420   12.0536 C   0  0  0  0  0  0  0  0  0  0  0  0
   13.0131  -14.4104   10.6496 C   0  0  2  0  0  0  0  0  0  0  0  0
   12.4515  -13.2242    9.8405 C   0  0  2  0  0  0  0  0  0  0  0  0
   12.5219  -11.8636   10.5286 C   0  0  1  0  0  0  0  0  0  0  0  0
   13.7800  -11.6884   11.4073 C   0  0  2  0  0  0  0  0  0  0  0  0
   12.7379   -9.1572   13.3346 H   0  0  0  0  0  0  0  0  0  0  0  0
   11.9027  -15.7357    9.6463 H   0  0  0  0  0  0  0  0  0  0  0  0
   10.7204  -12.7135    8.9690 H   0  0  0  0  0  0  0  0  0  0  0  0
   12.5154   -9.9685    9.8957 H   0  0  0  0  0  0  0  0  0  0  0  0
   13.9002  -14.3915   15.1603 H   0  0  0  0  0  0  0  0  0  0  0  0
   14.6320  -10.2777   12.6889 H   0  0  0  0  0  0  0  0  0  0  0  0
   13.8878   -9.6036   11.4011 H   0  0  0  0  0  0  0  0  0  0  0  0
   14.3639  -12.0235   14.2494 H   0  0  0  0  0  0  0  0  0  0  0  0
   13.8605  -14.6991   10.2039 H   0  0  0  0  0  0  0  0  0  0  0  0
   12.9740  -13.1620    8.9902 H   0  0  0  0  0  0  0  0  0  0  0  0
   11.7129  -11.7571   11.1066 H   0  0  0  0  0  0  0  0  0  0  0  0
   14.5900  -11.7795   10.8280 H   0  0  0  0  0  0  0  0  0  0  0  0
  1  8  1  0  0  0  0
  2 11  1  0  0  0  0
  3 12  1  0  0  0  0
  4 13  1  0  0  0  0
  5  7  1  0  0  0  0
  5 10  2  0  0  0  0
  6  9  1  0  0  0  0
  6 10  1  0  0  0  0
  6 14  1  0  0  0  0
  7  9  2  0  0  0  0
  8 14  1  0  0  0  0
 10 11  1  0  0  0  0
 11 12  1  0  0  0  0
 12 13  1  0  0  0  0
 13 14  1  0  0  0  0
  1 15  1  0  0  0  0
  2 16  1  0  0  0  0
  3 17  1  0  0  0  0
  4 18  1  0  0  0  0
  7 19  1  0  0  0  0
  8 20  1  0  0  0  0
  8 21  1  0  0  0  0
  9 22  1  0  0  0  0
 11 23  1  0  0  0  0
 12 24  1  0  0  0  0
 13 25  1  0  0  0  0
 14 26  1  0  0  0  0
M  END
> <pdb_id>
2WZS

> <uniprot_id>
Q8A0N1

> <usmiles>
O[C@@H]1C2=NC=CN2[C@@H]([C@@H](O)[C@@H]1O)CO

$$$$
MW5_A_1301
          07202400203D 1   1.00000     0.00000     0
            
 27 29  0  0  0  0            999 V2000
   13.9736   59.0089  -17.6824 Cl  0  0  0  0  0  0  0  0  0  0  0  0
   17.1582   55.6302  -19.5208 O   0  0  0  0  0  0  0  0  0  0  0  0
   18.8760   57.7680  -20.2006 N   0  0  0  0  0  0  0  0  0  0  0  0
   18.3868   59.9188  -19.7935 N   0  0  0  0  0  0  0  0  0  0  0  0
   16.2759   59.5243  -18.7441 N   0  0  0  0  0  0  0  0  0  0  0  0
   17.7126   57.8432  -19.5590 N   0  0  0  0  0  0  0  0  0  0  0  0
   19.2934   59.0072  -20.2467 C   0  0  0  0  0  0  0  0  0  0  0  0
   11.8604   54.4053  -20.8352 C   0  0  0  0  0  0  0  0  0  0  0  0
   13.0603   54.8506  -21.3101 C   0  0  0  0  0  0  0  0  0  0  0  0
   11.5842   54.5830  -19.4740 C   0  0  0  0  0  0  0  0  0  0  0  0
   13.9944   55.3863  -20.4427 C   0  0  0  0  0  0  0  0  0  0  0  0
   12.4912   55.1736  -18.6435 C   0  0  0  0  0  0  0  0  0  0  0  0
   14.6977   56.1474  -18.1091 C   0  0  0  0  0  0  0  0  0  0  0  0
   15.4695   58.5306  -18.3799 C   0  0  0  0  0  0  0  0  0  0  0  0
   17.4133   59.1776  -19.3669 C   0  0  0  0  0  0  0  0  0  0  0  0
   16.8705   56.8354  -19.2331 C   0  0  0  0  0  0  0  0  0  0  0  0
   13.6936   55.5842  -19.0890 C   0  0  0  0  0  0  0  0  0  0  0  0
   15.6977   57.1567  -18.5964 C   0  0  0  0  0  0  0  0  0  0  0  0
   16.0464   60.4806  -18.5630 H   0  0  0  0  0  0  0  0  0  0  0  0
   20.1989   59.2634  -20.5850 H   0  0  0  0  0  0  0  0  0  0  0  0
   11.1981   53.9652  -21.4416 H   0  0  0  0  0  0  0  0  0  0  0  0
   13.2642   54.7892  -22.2872 H   0  0  0  0  0  0  0  0  0  0  0  0
   10.7083   54.2722  -19.1049 H   0  0  0  0  0  0  0  0  0  0  0  0
   14.8993   55.6364  -20.7873 H   0  0  0  0  0  0  0  0  0  0  0  0
   12.2573   55.3047  -17.6802 H   0  0  0  0  0  0  0  0  0  0  0  0
   15.2154   55.3745  -17.7422 H   0  0  0  0  0  0  0  0  0  0  0  0
   14.1783   56.5804  -17.3725 H   0  0  0  0  0  0  0  0  0  0  0  0
  1 14  1  0  0  0  0
  2 16  2  0  0  0  0
  3  6  1  0  0  0  0
  3  7  2  0  0  0  0
  4  7  1  0  0  0  0
  4 15  2  0  0  0  0
  5 14  1  0  0  0  0
  5 15  1  0  0  0  0
  6 15  1  0  0  0  0
  6 16  1  0  0  0  0
  8  9  2  0  0  0  0
  8 10  1  0  0  0  0
  9 11  1  0  0  0  0
 10 12  2  0  0  0  0
 11 17  2  0  0  0  0
 12 17  1  0  0  0  0
 13 17  1  0  0  0  0
 13 18  1  0  0  0  0
 14 18  2  0  0  0  0
 16 18  1  0  0  0  0
  5 19  1  0  0  0  0
  7 20  1  0  0  0  0
  8 21  1  0  0  0  0
  9 22  1  0  0  0  0
 10 23  1  0  0  0  0
 11 24  1  0  0  0  0
 12 25  1  0  0  0  0
 13 26  1  0  0  0  0
 13 27  1  0  0  0  0
M  END
> <pdb_id>
2YC3

> <uniprot_id>
P69834

> <usmiles>
ClC=1NC2=NC=NN2C(=O)C1Cc3ccccc3

$$$$
MXX_A_231
          07202402453D 1   1.00000     0.00000     0
            
 32 33  0  0  0  0            999 V2000
   -5.3608   10.4978   14.6621 O   0  0  0  0  0  0  0  0  0  0  0  0
   -6.2112    5.7762   14.0147 O   0  0  0  0  0  0  0  0  0  0  0  0
   -1.6685    6.0197   17.1131 O   0  0  0  0  0  0  0  0  0  0  0  0
   -5.2360    8.2331   14.7569 N   0  0  0  0  0  0  0  0  0  0  0  0
   -6.5420    4.4733   13.5418 C   0  0  0  0  0  0  0  0  0  0  0  0
   -1.2622    4.7467   17.6454 C   0  0  0  0  0  0  0  0  0  0  0  0
   -6.4543    8.1694   13.9451 C   0  0  0  0  0  0  0  0  0  0  0  0
   -1.6459    8.6655   17.1402 C   0  0  0  0  0  0  0  0  0  0  0  0
   -4.4636    4.6635   15.1933 C   0  0  0  0  0  0  0  0  0  0  0  0
   -3.3041    4.7412   15.9822 C   0  0  0  0  0  0  0  0  0  0  0  0
   -3.5779    9.6216   15.8496 C   0  0  0  0  0  0  0  0  0  0  0  0
   -4.7330    9.4967   15.0792 C   0  0  0  0  0  0  0  0  0  0  0  0
   -5.0840    5.8373   14.7986 C   0  0  0  0  0  0  0  0  0  0  0  0
   -2.8004    5.9814   16.3474 C   0  0  0  0  0  0  0  0  0  0  0  0
   -4.5754    7.0635   15.1766 C   0  0  0  0  0  0  0  0  0  0  0  0
   -2.8789    8.4821   16.3095 C   0  0  0  0  0  0  0  0  0  0  0  0
   -3.4081    7.1392   15.9445 C   0  0  0  0  0  0  0  0  0  0  0  0
   -7.3702    4.5217   12.9834 H   0  0  0  0  0  0  0  0  0  0  0  0
   -5.7880    4.1178   12.9895 H   0  0  0  0  0  0  0  0  0  0  0  0
   -6.6999    3.8662   14.3205 H   0  0  0  0  0  0  0  0  0  0  0  0
   -0.4315    4.8628   18.1897 H   0  0  0  0  0  0  0  0  0  0  0  0
   -1.9909    4.3792   18.2233 H   0  0  0  0  0  0  0  0  0  0  0  0
   -1.0819    4.1130   16.8930 H   0  0  0  0  0  0  0  0  0  0  0  0
   -6.7018    7.2130   13.7900 H   0  0  0  0  0  0  0  0  0  0  0  0
   -7.1992    8.6329   14.4250 H   0  0  0  0  0  0  0  0  0  0  0  0
   -6.2932    8.6188   13.0665 H   0  0  0  0  0  0  0  0  0  0  0  0
   -1.2719    7.7706   17.3837 H   0  0  0  0  0  0  0  0  0  0  0  0
   -0.9658    9.1802   16.6181 H   0  0  0  0  0  0  0  0  0  0  0  0
   -1.8769    9.1681   17.9732 H   0  0  0  0  0  0  0  0  0  0  0  0
   -4.8348    3.7757   14.9212 H   0  0  0  0  0  0  0  0  0  0  0  0
   -2.8431    3.9052   16.2799 H   0  0  0  0  0  0  0  0  0  0  0  0
   -3.2379   10.5331   16.0809 H   0  0  0  0  0  0  0  0  0  0  0  0
  1 12  2  0  0  0  0
  2  5  1  0  0  0  0
  2 13  1  0  0  0  0
  3  6  1  0  0  0  0
  3 14  1  0  0  0  0
  4  7  1  0  0  0  0
  4 12  1  0  0  0  0
  4 15  1  0  0  0  0
  8 16  1  0  0  0  0
  9 10  2  0  0  0  0
  9 13  1  0  0  0  0
 10 14  1  0  0  0  0
 11 12  1  0  0  0  0
 11 16  2  0  0  0  0
 13 15  2  0  0  0  0
 14 17  2  0  0  0  0
 15 17  1  0  0  0  0
 16 17  1  0  0  0  0
  5 18  1  0  0  0  0
  5 19  1  0  0  0  0
  5 20  1  0  0  0  0
  6 21  1  0  0  0  0
  6 22  1  0  0  0  0
  6 23  1  0  0  0  0
  7 24  1  0  0  0  0
  7 25  1  0  0  0  0
  7 26  1  0  0  0  0
  8 27  1  0  0  0  0
  8 28  1  0  0  0  0
  8 29  1  0  0  0  0
  9 30  1  0  0  0  0
 10 31  1  0  0  0  0
 11 32  1  0  0  0  0
M  END
> <pdb_id>
3GAM

> <uniprot_id>
P16083

> <usmiles>
O=C1N(c2c(OC)ccc(OC)c2C(=C1)C)C

$$$$
MZA_A_1246
          07192422073D 1   1.00000     0.00000     0
            
 53 57  0  0  0  0            999 V2000
   42.5329   28.8831   12.1544 Cl  0  0  0  0  0  0  0  0  0  0  0  0
   34.6447   27.0276   14.6069 S   0  0  0  0  0  0  0  0  0  0  0  0
   36.0710   30.6585   19.3276 F   0  0  0  0  0  0  0  0  0  0  0  0
   34.4568   25.7363   15.1709 O   0  0  0  0  0  0  0  0  0  0  0  0
   33.8735   27.3648   13.4669 O   0  0  0  0  0  0  0  0  0  0  0  0
   36.2609   29.7136   16.8594 O   0  0  0  0  0  0  0  0  0  0  0  0
   34.2114   28.0443   15.7899 N   0  0  0  0  0  0  0  0  0  0  0  0
   37.3916   35.0034   21.4868 N   0  0  0  0  0  0  0  0  0  0  0  0
   34.5626   31.2954   17.0202 N   0  0  0  0  0  0  0  0  0  0  0  0
   38.1886   33.7584   21.5059 C   0  0  0  0  0  0  0  0  0  0  0  0
   37.1258   35.4106   20.0878 C   0  0  0  0  0  0  0  0  0  0  0  0
   33.1817   31.4627   16.5703 C   0  0  0  0  0  0  0  0  0  0  0  0
   39.9189   29.0536   11.5194 C   0  0  0  0  0  0  0  0  0  0  0  0
   37.4031   32.5830   20.9597 C   0  0  0  0  0  0  0  0  0  0  0  0
   37.3246   26.8754   15.2119 C   0  0  0  0  0  0  0  0  0  0  0  0
   32.8139   30.1036   15.9560 C   0  0  0  0  0  0  0  0  0  0  0  0
   35.1058   33.6232   17.4305 C   0  0  0  0  0  0  0  0  0  0  0  0
   38.5875   28.8613   11.7232 C   0  0  0  0  0  0  0  0  0  0  0  0
   38.6680   27.0689   15.0279 C   0  0  0  0  0  0  0  0  0  0  0  0
   35.7257   34.6338   18.1676 C   0  0  0  0  0  0  0  0  0  0  0  0
   40.4734   27.9795   13.6075 C   0  0  0  0  0  0  0  0  0  0  0  0
   36.7739   27.9613   13.1295 C   0  0  0  0  0  0  0  0  0  0  0  0
   40.8497   28.6155   12.4560 C   0  0  0  0  0  0  0  0  0  0  0  0
   36.3796   27.3066   14.2773 C   0  0  0  0  0  0  0  0  0  0  0  0
   35.1528   30.1524   16.5667 C   0  0  0  0  0  0  0  0  0  0  0  0
   35.9641   31.9465   18.9591 C   0  0  0  0  0  0  0  0  0  0  0  0
   34.1780   29.4880   15.6070 C   0  0  1  0  0  0  0  0  0  0  0  0
   35.2137   32.2674   17.8187 C   0  0  0  0  0  0  0  0  0  0  0  0
   36.4648   34.2920   19.3057 C   0  0  0  0  0  0  0  0  0  0  0  0
   39.1060   27.7411   13.8539 C   0  0  0  0  0  0  0  0  0  0  0  0
   38.1538   28.2002   12.8928 C   0  0  0  0  0  0  0  0  0  0  0  0
   36.5945   32.9461   19.7215 C   0  0  0  0  0  0  0  0  0  0  0  0
   34.8426   27.8747   16.5468 H   0  0  0  0  0  0  0  0  0  0  0  0
   37.8984   35.7287   21.9527 H   0  0  0  0  0  0  0  0  0  0  0  0
   38.4567   33.5594   22.4485 H   0  0  0  0  0  0  0  0  0  0  0  0
   39.0075   33.8890   20.9470 H   0  0  0  0  0  0  0  0  0  0  0  0
   37.9916   35.6487   19.6475 H   0  0  0  0  0  0  0  0  0  0  0  0
   36.5224   36.2080   20.0894 H   0  0  0  0  0  0  0  0  0  0  0  0
   33.1178   32.1893   15.8862 H   0  0  0  0  0  0  0  0  0  0  0  0
   32.5817   31.6768   17.3411 H   0  0  0  0  0  0  0  0  0  0  0  0
   40.2314   29.5142   10.6886 H   0  0  0  0  0  0  0  0  0  0  0  0
   36.7763   32.2592   21.6684 H   0  0  0  0  0  0  0  0  0  0  0  0
   38.0432   31.8525   20.7217 H   0  0  0  0  0  0  0  0  0  0  0  0
   37.0106   26.4115   16.0403 H   0  0  0  0  0  0  0  0  0  0  0  0
   32.2545   30.2216   15.1356 H   0  0  0  0  0  0  0  0  0  0  0  0
   32.3228   29.5343   16.6153 H   0  0  0  0  0  0  0  0  0  0  0  0
   34.5774   33.8614   16.6156 H   0  0  0  0  0  0  0  0  0  0  0  0
   37.9221   29.1852   11.0506 H   0  0  0  0  0  0  0  0  0  0  0  0
   39.3276   26.7440   15.7056 H   0  0  0  0  0  0  0  0  0  0  0  0
   35.6425   35.5897   17.8860 H   0  0  0  0  0  0  0  0  0  0  0  0
   41.1632   27.6859   14.2693 H   0  0  0  0  0  0  0  0  0  0  0  0
   36.0908   28.2668   12.4661 H   0  0  0  0  0  0  0  0  0  0  0  0
   34.4216   29.7161   14.6644 H   0  0  0  0  0  0  0  0  0  0  0  0
  1 23  1  0  0  0  0
  2  4  2  0  0  0  0
  2  5  2  0  0  0  0
  2  7  1  0  0  0  0
  2 24  1  0  0  0  0
  3 26  1  0  0  0  0
  6 25  2  0  0  0  0
  7 27  1  0  0  0  0
  8 10  1  0  0  0  0
  8 11  1  0  0  0  0
  9 12  1  0  0  0  0
  9 25  1  0  0  0  0
  9 28  1  0  0  0  0
 10 14  1  0  0  0  0
 11 29  1  0  0  0  0
 12 16  1  0  0  0  0
 13 18  2  0  0  0  0
 13 23  1  0  0  0  0
 14 32  1  0  0  0  0
 15 19  1  0  0  0  0
 15 24  2  0  0  0  0
 16 27  1  0  0  0  0
 17 20  2  0  0  0  0
 17 28  1  0  0  0  0
 18 31  1  0  0  0  0
 19 30  2  0  0  0  0
 20 29  1  0  0  0  0
 21 23  2  0  0  0  0
 21 30  1  0  0  0  0
 22 24  1  0  0  0  0
 22 31  2  0  0  0  0
 25 27  1  0  0  0  0
 26 28  2  0  0  0  0
 26 32  1  0  0  0  0
 29 32  2  0  0  0  0
 30 31  1  0  0  0  0
  7 33  1  0  0  0  0
  8 34  1  0  0  0  0
 10 35  1  0  0  0  0
 10 36  1  0  0  0  0
 11 37  1  0  0  0  0
 11 38  1  0  0  0  0
 12 39  1  0  0  0  0
 12 40  1  0  0  0  0
 13 41  1  0  0  0  0
 14 42  1  0  0  0  0
 14 43  1  0  0  0  0
 15 44  1  0  0  0  0
 16 45  1  0  0  0  0
 16 46  1  0  0  0  0
 17 47  1  0  0  0  0
 18 48  1  0  0  0  0
 19 49  1  0  0  0  0
 20 50  1  0  0  0  0
 21 51  1  0  0  0  0
 22 52  1  0  0  0  0
 27 53  1  0  0  0  0
M  END
> <pdb_id>
2Y7X

> <uniprot_id>
P00742

> <usmiles>
Clc1cc2c(cc(S(=O)(=O)N[C@@H]3C(=O)N(c4c(F)c5c(cc4)CNCC5)CC3)cc2)cc1

$$$$
MZB_A_1048
          07202412393D 1   1.00000     0.00000     0
            
 25 25  0  0  0  0            999 V2000
   29.3343   67.2991    7.7031 S   0  0  0  0  0  0  0  0  0  0  0  0
   28.5674   66.1611    8.6807 O   0  0  0  0  0  0  0  0  0  0  0  0
   31.9396   68.0263    5.7779 O   0  0  0  0  0  0  0  0  0  0  0  0
   33.9429   66.4877    6.9943 O   0  0  0  0  0  0  0  0  0  0  0  0
   33.7979   65.8959    9.5529 O   0  0  0  0  0  0  0  0  0  0  0  0
   31.2686   65.3367    9.7752 N   0  0  0  0  0  0  0  0  0  0  0  0
   28.9023   66.7428    6.0901 C   0  0  0  0  0  0  0  0  0  0  0  0
   31.0348   66.7645    7.7327 C   0  0  1  0  0  0  0  0  0  0  0  0
   31.9423   67.8789    7.2043 C   0  0  1  0  0  0  0  0  0  0  0  0
   33.3161   67.5266    7.7776 C   0  0  1  0  0  0  0  0  0  0  0  0
   32.9967   67.0219    9.1889 C   0  0  1  0  0  0  0  0  0  0  0  0
   31.4926   66.6571    9.1808 C   0  0  2  0  0  0  0  0  0  0  0  0
   28.7427   66.3749    9.6417 H   0  0  0  0  0  0  0  0  0  0  0  0
   32.5545   68.7710    5.5186 H   0  0  0  0  0  0  0  0  0  0  0  0
   34.8382   66.2711    7.3835 H   0  0  0  0  0  0  0  0  0  0  0  0
   33.5574   65.6006   10.4775 H   0  0  0  0  0  0  0  0  0  0  0  0
   31.5910   65.3382   10.7218 H   0  0  0  0  0  0  0  0  0  0  0  0
   30.2916   65.1239    9.7562 H   0  0  0  0  0  0  0  0  0  0  0  0
   29.2273   67.2404    5.2858 H   0  0  0  0  0  0  0  0  0  0  0  0
   28.3318   65.9292    5.9778 H   0  0  0  0  0  0  0  0  0  0  0  0
   31.1661   65.9075    7.2344 H   0  0  0  0  0  0  0  0  0  0  0  0
   31.6456   68.7437    7.6096 H   0  0  0  0  0  0  0  0  0  0  0  0
   33.8995   68.3378    7.8175 H   0  0  0  0  0  0  0  0  0  0  0  0
   33.1517   67.7608    9.8447 H   0  0  0  0  0  0  0  0  0  0  0  0
   30.9978   67.3372    9.7217 H   0  0  0  0  0  0  0  0  0  0  0  0
  1  2  1  0  0  0  0
  1  7  2  0  0  0  0
  1  8  1  0  0  0  0
  3  9  1  0  0  0  0
  4 10  1  0  0  0  0
  5 11  1  0  0  0  0
  6 12  1  0  0  0  0
  8  9  1  0  0  0  0
  8 12  1  0  0  0  0
  9 10  1  0  0  0  0
 10 11  1  0  0  0  0
 11 12  1  0  0  0  0
  2 13  1  0  0  0  0
  3 14  1  0  0  0  0
  4 15  1  0  0  0  0
  5 16  1  0  0  0  0
  6 17  1  0  0  0  0
  6 18  1  0  0  0  0
  7 19  1  0  0  0  0
  7 20  1  0  0  0  0
  8 21  1  0  0  0  0
  9 22  1  0  0  0  0
 10 23  1  0  0  0  0
 11 24  1  0  0  0  0
 12 25  1  0  0  0  0
M  END
> <pdb_id>
3DX2

> <uniprot_id>
Q24451

> <usmiles>
S(O)(=C)[C@H]1[C@H](O)[C@H](O)[C@H](O)[C@@H]1N

$$$$
MZM_A_263
          07192416293D 1   1.00000     0.00000     0
            
 22 22  0  0  0  0            999 V2000
   -5.9567    3.3575   15.0937 S   0  0  0  0  0  0  0  0  0  0  0  0
   -5.8744    0.9739   16.8093 S   0  0  0  0  0  0  0  0  0  0  0  0
   -7.0595    1.0869   16.6832 O   0  0  0  0  0  0  0  0  0  0  0  0
   -5.4209    6.8063   12.4313 O   0  0  0  0  0  0  0  0  0  0  0  0
   -5.4731    1.0717   17.8504 O   0  0  0  0  0  0  0  0  0  0  0  0
   -5.4355   -0.0417   16.4742 N   0  0  0  0  0  0  0  0  0  0  0  0
   -3.7490    2.3712   15.8468 N   0  0  0  0  0  0  0  0  0  0  0  0
   -4.6385    5.1270   13.7472 N   0  0  0  0  0  0  0  0  0  0  0  0
   -3.4509    3.4692   15.0734 N   0  0  0  0  0  0  0  0  0  0  0  0
   -2.0557    3.8988   14.8040 C   0  0  0  0  0  0  0  0  0  0  0  0
   -6.7307    5.3664   13.5232 C   0  0  0  0  0  0  0  0  0  0  0  0
   -5.0354    2.1951   15.9750 C   0  0  0  0  0  0  0  0  0  0  0  0
   -4.4747    4.0263   14.5772 C   0  0  0  0  0  0  0  0  0  0  0  0
   -5.4792    5.8255   13.1784 C   0  0  0  0  0  0  0  0  0  0  0  0
   -4.4457   -0.0406   16.6170 H   0  0  0  0  0  0  0  0  0  0  0  0
   -5.8489   -0.7770   17.0113 H   0  0  0  0  0  0  0  0  0  0  0  0
   -2.0639    4.7136   14.2242 H   0  0  0  0  0  0  0  0  0  0  0  0
   -1.5990    4.1093   15.6683 H   0  0  0  0  0  0  0  0  0  0  0  0
   -1.5645    3.1630   14.3379 H   0  0  0  0  0  0  0  0  0  0  0  0
   -6.6405    4.5744   14.1270 H   0  0  0  0  0  0  0  0  0  0  0  0
   -7.2328    6.0905   13.9959 H   0  0  0  0  0  0  0  0  0  0  0  0
   -7.2276    5.1008   12.6970 H   0  0  0  0  0  0  0  0  0  0  0  0
  1 12  1  0  0  0  0
  1 13  1  0  0  0  0
  2  3  2  0  0  0  0
  2  5  2  0  0  0  0
  2  6  1  0  0  0  0
  2 12  1  0  0  0  0
  4 14  2  0  0  0  0
 11 14  1  0  0  0  0
  7  9  1  0  0  0  0
  7 12  2  0  0  0  0
  8 13  2  0  0  0  0
  8 14  1  0  0  0  0
  9 10  1  0  0  0  0
  9 13  1  0  0  0  0
  6 15  1  0  0  0  0
  6 16  1  0  0  0  0
 10 17  1  0  0  0  0
 10 18  1  0  0  0  0
 10 19  1  0  0  0  0
 11 20  1  0  0  0  0
 11 21  1  0  0  0  0
 11 22  1  0  0  0  0
M  END
> <pdb_id>
3DAZ

> <uniprot_id>
P00918

> <usmiles>
S(=O)(=O)(N)C=1SC(=NC(=O)C)N(N1)C

$$$$
MZM_A_303
          07202411203D 1   1.00000     0.00000     0
            
 23 23  0  0  0  0            999 V2000
    9.6250  -40.8203  -76.5777 S   0  0  0  0  0  0  0  0  0  0  0  0
   10.6344  -38.5732  -75.0206 S   0  0  0  0  0  0  0  0  0  0  0  0
   10.0489  -39.2871  -73.9292 O   0  0  0  0  0  0  0  0  0  0  0  0
   10.0125  -37.2948  -74.9938 O   0  0  0  0  0  0  0  0  0  0  0  0
    8.3979  -43.5535  -76.7541 O   0  0  0  0  0  0  0  0  0  0  0  0
   12.2589  -38.4529  -74.8388 N   0  0  0  0  0  0  0  0  0  0  0  0
   10.5446  -38.9850  -77.7917 N   0  0  0  0  0  0  0  0  0  0  0  0
    9.0041  -42.3772  -78.6536 N   0  0  0  0  0  0  0  0  0  0  0  0
   10.0717  -40.1015  -78.7808 N   0  3  0  0  0  0  0  0  0  0  0  0
   10.1729  -40.0213  -80.1874 C   0  0  0  0  0  0  0  0  0  0  0  0
    7.9383  -44.6928  -78.7412 C   0  0  0  0  0  0  0  0  0  0  0  0
   10.2717  -39.4432  -76.5001 C   0  0  0  0  0  0  0  0  0  0  0  0
    9.5349  -41.1906  -78.0589 C   0  0  0  0  0  0  0  0  0  0  0  0
    8.4565  -43.5028  -77.9615 C   0  0  0  0  0  0  0  0  0  0  0  0
   12.6446  -37.9508  -75.6127 H   0  0  0  0  0  0  0  0  0  0  0  0
   12.4641  -37.9659  -73.9898 H   0  0  0  0  0  0  0  0  0  0  0  0
    9.0170  -42.4251  -79.6523 H   0  0  0  0  0  0  0  0  0  0  0  0
    9.8042  -40.8561  -80.5963 H   0  0  0  0  0  0  0  0  0  0  0  0
    9.6530  -39.2322  -80.5145 H   0  0  0  0  0  0  0  0  0  0  0  0
   11.1331  -39.9188  -80.4472 H   0  0  0  0  0  0  0  0  0  0  0  0
    8.0450  -44.5216  -79.7206 H   0  0  0  0  0  0  0  0  0  0  0  0
    8.4569  -45.5092  -78.4871 H   0  0  0  0  0  0  0  0  0  0  0  0
    6.9709  -44.8336  -78.5308 H   0  0  0  0  0  0  0  0  0  0  0  0
  1 12  1  0  0  0  0
  1 13  1  0  0  0  0
  2  3  2  0  0  0  0
  2  4  2  0  0  0  0
  2  6  1  0  0  0  0
  2 12  1  0  0  0  0
  5 14  2  0  0  0  0
  7  9  1  0  0  0  0
  7 12  2  0  0  0  0
  8 13  1  0  0  0  0
  8 14  1  0  0  0  0
  9 10  1  0  0  0  0
  9 13  2  0  0  0  0
 11 14  1  0  0  0  0
  6 15  1  0  0  0  0
  6 16  1  0  0  0  0
  8 17  1  0  0  0  0
 10 18  1  0  0  0  0
 10 19  1  0  0  0  0
 10 20  1  0  0  0  0
 11 21  1  0  0  0  0
 11 22  1  0  0  0  0
 11 23  1  0  0  0  0
M  CHG  1   9   1
M  END
> <pdb_id>
4YHA

> <uniprot_id>
K4NGD4

> <usmiles>
S(=O)(=O)(N)C=1SC(=[N+](N1)C)NC(=O)C

$$$$
MZM_C_303
          07202411203D 1   1.00000     0.00000     0
            
 22 22  0  0  0  0            999 V2000
    9.2710  -40.9090  -76.5605 S   0  0  0  0  0  0  0  0  0  0  0  0
   10.3962  -38.7534  -74.9389 S   0  0  0  0  0  0  0  0  0  0  0  0
    9.9428  -39.5684  -73.8696 O   0  0  0  0  0  0  0  0  0  0  0  0
    9.7123  -37.5267  -74.8076 O   0  0  0  0  0  0  0  0  0  0  0  0
    8.0509  -43.5183  -76.9378 O   0  0  0  0  0  0  0  0  0  0  0  0
   12.0024  -38.5046  -74.7661 N   0  0  0  0  0  0  0  0  0  0  0  0
   10.1969  -38.9949  -77.7004 N   0  0  0  0  0  0  0  0  0  0  0  0
    8.6173  -42.2472  -78.7609 N   0  0  0  0  0  0  0  0  0  0  0  0
    9.6892  -40.0265  -78.7452 N   0  0  0  0  0  0  0  0  0  0  0  0
    9.7461  -39.8691  -80.1544 C   0  0  0  0  0  0  0  0  0  0  0  0
    7.5349  -44.4913  -79.0362 C   0  0  0  0  0  0  0  0  0  0  0  0
    9.9537  -39.5430  -76.4316 C   0  0  0  0  0  0  0  0  0  0  0  0
    9.1610  -41.1434  -78.0682 C   0  0  0  0  0  0  0  0  0  0  0  0
    8.0796  -43.3997  -78.1456 C   0  0  0  0  0  0  0  0  0  0  0  0
   12.3333  -37.9307  -75.5152 H   0  0  0  0  0  0  0  0  0  0  0  0
   12.1770  -38.0476  -73.8939 H   0  0  0  0  0  0  0  0  0  0  0  0
    9.3539  -40.6760  -80.5961 H   0  0  0  0  0  0  0  0  0  0  0  0
    9.2259  -39.0575  -80.4204 H   0  0  0  0  0  0  0  0  0  0  0  0
   10.6986  -39.7627  -80.4398 H   0  0  0  0  0  0  0  0  0  0  0  0
    7.6408  -44.2239  -79.9939 H   0  0  0  0  0  0  0  0  0  0  0  0
    8.0376  -45.3395  -78.8693 H   0  0  0  0  0  0  0  0  0  0  0  0
    6.5657  -44.6331  -78.8349 H   0  0  0  0  0  0  0  0  0  0  0  0
  1 12  1  0  0  0  0
  1 13  1  0  0  0  0
  2  3  2  0  0  0  0
  2  4  2  0  0  0  0
  2  6  1  0  0  0  0
  2 12  1  0  0  0  0
  5 14  2  0  0  0  0
  7  9  1  0  0  0  0
  7 12  2  0  0  0  0
  8 13  2  0  0  0  0
  8 14  1  0  0  0  0
  9 10  1  0  0  0  0
  9 13  1  0  0  0  0
 11 14  1  0  0  0  0
  6 15  1  0  0  0  0
  6 16  1  0  0  0  0
 10 17  1  0  0  0  0
 10 18  1  0  0  0  0
 10 19  1  0  0  0  0
 11 20  1  0  0  0  0
 11 21  1  0  0  0  0
 11 22  1  0  0  0  0
M  END
> <pdb_id>
4YHA

> <uniprot_id>
K4NGD4

> <usmiles>
S(=O)(=O)(N)C=1SC(=NC(=O)C)N(N1)C

$$$$
MZT_A_401
          07192422373D 1   1.00000     0.00000     0
            
 29 28  0  0  0  0            999 V2000
   22.8258   27.1675   87.9834 O   0  0  0  0  0  0  0  0  0  0  0  0
   20.8952   26.5469   88.6357 O   0  0  0  0  0  0  0  0  0  0  0  0
   22.5971   31.9489   87.7991 N   0  3  0  0  0  0  0  0  0  0  0  0
   22.6088   32.8679   88.9499 C   0  0  0  0  0  0  0  0  0  0  0  0
   21.9574   32.6672   86.6920 C   0  0  0  0  0  0  0  0  0  0  0  0
   23.9868   31.6664   87.3863 C   0  0  0  0  0  0  0  0  0  0  0  0
   22.2699   29.9914   89.3930 C   0  0  0  0  0  0  0  0  0  0  0  0
   20.8566   28.5085   87.3640 C   0  0  0  0  0  0  0  0  0  0  0  0
   21.7334   29.7052   87.0023 C   0  0  0  0  0  0  0  0  0  0  0  0
   21.5959   27.3518   88.0345 C   0  0  0  0  0  0  0  0  0  0  0  0
   21.7992   30.7162   88.1448 C   0  0  2  0  0  0  0  0  0  0  0  0
   23.4089   27.8173   87.4957 H   0  0  0  0  0  0  0  0  0  0  0  0
   23.0386   32.4170   89.7322 H   0  0  0  0  0  0  0  0  0  0  0  0
   23.1258   33.6908   88.7142 H   0  0  0  0  0  0  0  0  0  0  0  0
   21.6700   33.1199   89.1849 H   0  0  0  0  0  0  0  0  0  0  0  0
   21.9278   32.0774   85.8850 H   0  0  0  0  0  0  0  0  0  0  0  0
   21.0263   32.9215   86.9534 H   0  0  0  0  0  0  0  0  0  0  0  0
   22.4821   33.4924   86.4827 H   0  0  0  0  0  0  0  0  0  0  0  0
   23.9821   31.0425   86.6048 H   0  0  0  0  0  0  0  0  0  0  0  0
   24.4380   32.5207   87.1281 H   0  0  0  0  0  0  0  0  0  0  0  0
   24.4812   31.2448   88.1464 H   0  0  0  0  0  0  0  0  0  0  0  0
   21.6921   29.1907   89.5514 H   0  0  0  0  0  0  0  0  0  0  0  0
   23.2184   29.6992   89.2711 H   0  0  0  0  0  0  0  0  0  0  0  0
   22.2091   30.6070   90.1788 H   0  0  0  0  0  0  0  0  0  0  0  0
   20.4377   28.1645   86.5236 H   0  0  0  0  0  0  0  0  0  0  0  0
   20.1415   28.8240   87.9878 H   0  0  0  0  0  0  0  0  0  0  0  0
   21.3537   30.1536   86.1931 H   0  0  0  0  0  0  0  0  0  0  0  0
   22.6580   29.3816   86.8011 H   0  0  0  0  0  0  0  0  0  0  0  0
   20.8618   31.0171   88.3202 H   0  0  0  0  0  0  0  0  0  0  0  0
  1 10  1  0  0  0  0
  2 10  2  0  0  0  0
  3  4  1  0  0  0  0
  3  5  1  0  0  0  0
  3  6  1  0  0  0  0
  3 11  1  0  0  0  0
  7 11  1  0  0  0  0
  8  9  1  0  0  0  0
  8 10  1  0  0  0  0
  9 11  1  0  0  0  0
  1 12  1  0  0  0  0
  4 13  1  0  0  0  0
  4 14  1  0  0  0  0
  4 15  1  0  0  0  0
  5 16  1  0  0  0  0
  5 17  1  0  0  0  0
  5 18  1  0  0  0  0
  6 19  1  0  0  0  0
  6 20  1  0  0  0  0
  6 21  1  0  0  0  0
  7 22  1  0  0  0  0
  7 23  1  0  0  0  0
  7 24  1  0  0  0  0
  8 25  1  0  0  0  0
  8 26  1  0  0  0  0
  9 27  1  0  0  0  0
  9 28  1  0  0  0  0
 11 29  1  0  0  0  0
M  CHG  1   3   1
M  END
> <pdb_id>
4BHF

> <uniprot_id>
O75936

> <usmiles>
O=C(O)CC[C@H]([N+](C)(C)C)C

$$$$
MZX_B_234
          07202402453D 1   1.00000     0.00000     0
            
 29 30  0  0  0  0            999 V2000
   -1.2963    5.7966   17.4638 O   0  0  0  0  0  0  0  0  0  0  0  0
   -4.5192    4.0918   14.7809 O   0  0  0  0  0  0  0  0  0  0  0  0
   -5.6814    9.4128   14.2002 O   0  0  0  0  0  0  0  0  0  0  0  0
   -2.9948    5.7857   16.0953 N   0  0  0  0  0  0  0  0  0  0  0  0
   -3.4451    3.7960   15.6994 C   0  0  0  0  0  0  0  0  0  0  0  0
   -5.4146   10.7304   14.6681 C   0  0  0  0  0  0  0  0  0  0  0  0
   -3.3393    9.9690   16.1079 C   0  0  0  0  0  0  0  0  0  0  0  0
   -5.8535    5.8420   13.8387 C   0  0  0  0  0  0  0  0  0  0  0  0
   -6.0338    7.2131   13.7943 C   0  0  0  0  0  0  0  0  0  0  0  0
   -2.1903    7.8823   16.8723 C   0  0  0  0  0  0  0  0  0  0  0  0
   -2.1326    6.4924   16.8337 C   0  0  0  0  0  0  0  0  0  0  0  0
   -4.8063    5.4299   14.6405 C   0  0  0  0  0  0  0  0  0  0  0  0
   -5.2305    8.1307   14.4821 C   0  0  0  0  0  0  0  0  0  0  0  0
   -3.9917    6.3166   15.3383 C   0  0  0  0  0  0  0  0  0  0  0  0
   -3.2001    8.4869   16.1005 C   0  0  0  0  0  0  0  0  0  0  0  0
   -4.1735    7.6708   15.2838 C   0  0  0  0  0  0  0  0  0  0  0  0
   -2.8991    4.7903   16.1002 H   0  0  0  0  0  0  0  0  0  0  0  0
   -3.3044    2.8068   15.7403 H   0  0  0  0  0  0  0  0  0  0  0  0
   -2.6057    4.2392   15.3846 H   0  0  0  0  0  0  0  0  0  0  0  0
   -3.6811    4.1371   16.6093 H   0  0  0  0  0  0  0  0  0  0  0  0
   -5.9857   11.3830   14.1702 H   0  0  0  0  0  0  0  0  0  0  0  0
   -5.6204   10.7851   15.6452 H   0  0  0  0  0  0  0  0  0  0  0  0
   -4.4504   10.9487   14.5177 H   0  0  0  0  0  0  0  0  0  0  0  0
   -4.0977   10.2355   15.5130 H   0  0  0  0  0  0  0  0  0  0  0  0
   -3.5209   10.2821   17.0400 H   0  0  0  0  0  0  0  0  0  0  0  0
   -2.4928   10.3849   15.7755 H   0  0  0  0  0  0  0  0  0  0  0  0
   -6.4327    5.2028   13.3328 H   0  0  0  0  0  0  0  0  0  0  0  0
   -6.7834    7.5704   13.2371 H   0  0  0  0  0  0  0  0  0  0  0  0
   -1.5495    8.4219   17.4185 H   0  0  0  0  0  0  0  0  0  0  0  0
  1 11  2  0  0  0  0
  2  5  1  0  0  0  0
  2 12  1  0  0  0  0
  3  6  1  0  0  0  0
  3 13  1  0  0  0  0
  4 11  1  0  0  0  0
  4 14  1  0  0  0  0
  7 15  1  0  0  0  0
  8  9  2  0  0  0  0
  8 12  1  0  0  0  0
  9 13  1  0  0  0  0
 10 11  1  0  0  0  0
 10 15  2  0  0  0  0
 12 14  2  0  0  0  0
 13 16  2  0  0  0  0
 14 16  1  0  0  0  0
 15 16  1  0  0  0  0
  4 17  1  0  0  0  0
  5 18  1  0  0  0  0
  5 19  1  0  0  0  0
  5 20  1  0  0  0  0
  6 21  1  0  0  0  0
  6 22  1  0  0  0  0
  6 23  1  0  0  0  0
  7 24  1  0  0  0  0
  7 25  1  0  0  0  0
  7 26  1  0  0  0  0
  8 27  1  0  0  0  0
  9 28  1  0  0  0  0
 10 29  1  0  0  0  0
M  END
> <pdb_id>
3NHS

> <uniprot_id>
P16083

> <usmiles>
O=C1Nc2c(OC)ccc(OC)c2C(=C1)C

$$$$
N0M_A_401
          07202413553D 1   1.00000     0.00000     0
            
 79 84  0  0  0  0            999 V2000
   12.4548    6.9111   94.7401 Cl  0  0  0  0  0  0  0  0  0  0  0  0
    0.3998    3.3053  101.4251 S   0  0  0  0  0  0  0  0  0  0  0  0
   -0.4784    2.2407  100.9438 O   0  0  0  0  0  0  0  0  0  0  0  0
   -0.3132    4.6331  101.4729 O   0  0  0  0  0  0  0  0  0  0  0  0
    2.4326    1.3383  100.7481 O   0  0  0  0  0  0  0  0  0  0  0  0
    6.2385    0.4488  104.5506 O   0  0  0  0  0  0  0  0  0  0  0  0
    6.4533    3.7554   96.4374 O   0  0  0  0  0  0  0  0  0  0  0  0
    1.6102    3.4455  100.3769 N   0  0  0  0  0  0  0  0  0  0  0  0
    7.0920    2.3351   98.8774 N   0  0  0  0  0  0  0  0  0  0  0  0
   -0.1593    2.9206  104.0826 C   0  0  0  0  0  0  0  0  0  0  0  0
    7.3744    2.6922   96.1004 C   0  0  0  0  0  0  0  0  0  0  0  0
    7.4174    1.5290  100.0926 C   0  0  0  0  0  0  0  0  0  0  0  0
    2.9157    3.1690  104.6840 C   0  0  0  0  0  0  0  0  0  0  0  0
    3.7923    1.9961  104.2709 C   0  0  0  0  0  0  0  0  0  0  0  0
   10.7104    1.3292   97.4079 C   0  0  0  0  0  0  0  0  0  0  0  0
    8.2361    3.0947   98.3658 C   0  0  0  0  0  0  0  0  0  0  0  0
    2.1440    3.7624  103.5136 C   0  0  0  0  0  0  0  0  0  0  0  0
    5.1410    2.4437  103.6770 C   0  0  0  0  0  0  0  0  0  0  0  0
   10.0150    6.0801   95.5983 C   0  0  0  0  0  0  0  0  0  0  0  0
   11.5553    2.0938   96.4036 C   0  0  0  0  0  0  0  0  0  0  0  0
    4.2384    3.7880   97.1315 C   0  0  0  0  0  0  0  0  0  0  0  0
    3.2205    3.4929   98.0191 C   0  0  0  0  0  0  0  0  0  0  0  0
    8.5438    3.0913  101.8467 C   0  0  0  0  0  0  0  0  0  0  0  0
    8.2060    2.6096  103.2785 C   0  0  0  0  0  0  0  0  0  0  0  0
    9.1539    5.1018   96.0999 C   0  0  0  0  0  0  0  0  0  0  0  0
   11.7908    4.4555   95.6292 C   0  0  0  0  0  0  0  0  0  0  0  0
    4.8119    2.3712   99.4422 C   0  0  0  0  0  0  0  0  0  0  0  0
    9.2417    1.3332   96.9904 C   0  0  0  0  0  0  0  0  0  0  0  0
   11.3423    5.7454   95.3645 C   0  0  0  0  0  0  0  0  0  0  0  0
    0.9970    2.8523  103.0834 C   0  0  2  0  0  0  0  0  0  0  0  0
    2.4311    2.4265  100.1643 C   0  0  0  0  0  0  0  0  0  0  0  0
    6.0116    1.2160  103.3460 C   0  0  1  0  0  0  0  0  0  0  0  0
    5.5522    3.3812   97.3998 C   0  0  0  0  0  0  0  0  0  0  0  0
    5.8439    2.6713   98.5586 C   0  0  0  0  0  0  0  0  0  0  0  0
    7.2598    2.3784  101.3804 C   0  0  2  0  0  0  0  0  0  0  0  0
    3.5171    2.7679   99.1710 C   0  0  0  0  0  0  0  0  0  0  0  0
   10.9587    3.4760   96.1379 C   0  0  0  0  0  0  0  0  0  0  0  0
    7.3694    1.5013  102.6394 C   0  0  1  0  0  0  0  0  0  0  0  0
    9.6163    3.8069   96.3776 C   0  0  0  0  0  0  0  0  0  0  0  0
    8.6361    2.7448   96.9377 C   0  0  1  0  0  0  0  0  0  0  0  0
    6.8034   -0.3482  104.3367 H   0  0  0  0  0  0  0  0  0  0  0  0
    1.7446    4.3047   99.8833 H   0  0  0  0  0  0  0  0  0  0  0  0
    0.1716    2.6713  104.9927 H   0  0  0  0  0  0  0  0  0  0  0  0
   -0.5264    3.8505  104.1045 H   0  0  0  0  0  0  0  0  0  0  0  0
   -0.8788    2.2847  103.8037 H   0  0  0  0  0  0  0  0  0  0  0  0
    7.6239    2.7755   95.1356 H   0  0  0  0  0  0  0  0  0  0  0  0
    6.9224    1.8134   96.2532 H   0  0  0  0  0  0  0  0  0  0  0  0
    8.3614    1.2055  100.0275 H   0  0  0  0  0  0  0  0  0  0  0  0
    6.7989    0.7447  100.1403 H   0  0  0  0  0  0  0  0  0  0  0  0
    3.4974    3.8806  105.0781 H   0  0  0  0  0  0  0  0  0  0  0  0
    2.2621    2.8538  105.3720 H   0  0  0  0  0  0  0  0  0  0  0  0
    3.3035    1.4572  103.5849 H   0  0  0  0  0  0  0  0  0  0  0  0
    3.9692    1.4297  105.0758 H   0  0  0  0  0  0  0  0  0  0  0  0
   10.7976    1.7601   98.3061 H   0  0  0  0  0  0  0  0  0  0  0  0
   11.0348    0.3846   97.4585 H   0  0  0  0  0  0  0  0  0  0  0  0
    9.0196    2.9195   98.9619 H   0  0  0  0  0  0  0  0  0  0  0  0
    8.0048    4.0672   98.3965 H   0  0  0  0  0  0  0  0  0  0  0  0
    2.7679    3.8862  102.7419 H   0  0  0  0  0  0  0  0  0  0  0  0
    1.7709    4.6492  103.7862 H   0  0  0  0  0  0  0  0  0  0  0  0
    5.6195    3.0185  104.3408 H   0  0  0  0  0  0  0  0  0  0  0  0
    4.9762    2.9667  102.8408 H   0  0  0  0  0  0  0  0  0  0  0  0
    9.6820    7.0042   95.4110 H   0  0  0  0  0  0  0  0  0  0  0  0
   11.5904    1.5809   95.5459 H   0  0  0  0  0  0  0  0  0  0  0  0
   12.4811    2.2000   96.7666 H   0  0  0  0  0  0  0  0  0  0  0  0
    4.0361    4.2947   96.2934 H   0  0  0  0  0  0  0  0  0  0  0  0
    2.2849    3.7954   97.8369 H   0  0  0  0  0  0  0  0  0  0  0  0
    9.3903    2.7162  101.4688 H   0  0  0  0  0  0  0  0  0  0  0  0
    8.5369    4.0841  101.7276 H   0  0  0  0  0  0  0  0  0  0  0  0
    7.6833    3.2634  103.8256 H   0  0  0  0  0  0  0  0  0  0  0  0
    8.9920    2.2869  103.8058 H   0  0  0  0  0  0  0  0  0  0  0  0
    8.1936    5.3277   96.2635 H   0  0  0  0  0  0  0  0  0  0  0  0
   12.7473    4.2293   95.4452 H   0  0  0  0  0  0  0  0  0  0  0  0
    5.0094    1.8639  100.2809 H   0  0  0  0  0  0  0  0  0  0  0  0
    8.7220    0.7879   97.6481 H   0  0  0  0  0  0  0  0  0  0  0  0
    9.1674    0.9205   96.0826 H   0  0  0  0  0  0  0  0  0  0  0  0
    1.3338    1.9113  103.0525 H   0  0  0  0  0  0  0  0  0  0  0  0
    5.4777    0.6382  102.7287 H   0  0  0  0  0  0  0  0  0  0  0  0
    6.4536    2.9700  101.3735 H   0  0  0  0  0  0  0  0  0  0  0  0
    7.8985    0.6681  102.4791 H   0  0  0  0  0  0  0  0  0  0  0  0
  1 29  1  0  0  0  0
  2  3  2  0  0  0  0
  2  4  2  0  0  0  0
  2  8  1  0  0  0  0
  2 30  1  0  0  0  0
  5 31  2  0  0  0  0
  6 32  1  0  0  0  0
  7 11  1  0  0  0  0
  7 33  1  0  0  0  0
  8 31  1  0  0  0  0
  9 12  1  0  0  0  0
  9 16  1  0  0  0  0
  9 34  1  0  0  0  0
 10 30  1  0  0  0  0
 11 40  1  0  0  0  0
 12 35  1  0  0  0  0
 13 14  1  0  0  0  0
 13 17  1  0  0  0  0
 14 18  1  0  0  0  0
 15 20  1  0  0  0  0
 15 28  1  0  0  0  0
 16 40  1  0  0  0  0
 17 30  1  0  0  0  0
 18 32  1  0  0  0  0
 19 25  2  0  0  0  0
 19 29  1  0  0  0  0
 20 37  1  0  0  0  0
 21 22  1  0  0  0  0
 21 33  2  0  0  0  0
 22 36  2  0  0  0  0
 23 24  1  0  0  0  0
 23 35  1  0  0  0  0
 24 38  1  0  0  0  0
 25 39  1  0  0  0  0
 26 29  2  0  0  0  0
 26 37  1  0  0  0  0
 27 34  2  0  0  0  0
 27 36  1  0  0  0  0
 28 40  1  0  0  0  0
 31 36  1  0  0  0  0
 32 38  1  0  0  0  0
 33 34  1  0  0  0  0
 35 38  1  0  0  0  0
 37 39  2  0  0  0  0
 39 40  1  0  0  0  0
  6 41  1  0  0  0  0
  8 42  1  0  0  0  0
 10 43  1  0  0  0  0
 10 44  1  0  0  0  0
 10 45  1  0  0  0  0
 11 46  1  0  0  0  0
 11 47  1  0  0  0  0
 12 48  1  0  0  0  0
 12 49  1  0  0  0  0
 13 50  1  0  0  0  0
 13 51  1  0  0  0  0
 14 52  1  0  0  0  0
 14 53  1  0  0  0  0
 15 54  1  0  0  0  0
 15 55  1  0  0  0  0
 16 56  1  0  0  0  0
 16 57  1  0  0  0  0
 17 58  1  0  0  0  0
 17 59  1  0  0  0  0
 18 60  1  0  0  0  0
 18 61  1  0  0  0  0
 19 62  1  0  0  0  0
 20 63  1  0  0  0  0
 20 64  1  0  0  0  0
 21 65  1  0  0  0  0
 22 66  1  0  0  0  0
 23 67  1  0  0  0  0
 23 68  1  0  0  0  0
 24 69  1  0  0  0  0
 24 70  1  0  0  0  0
 25 71  1  0  0  0  0
 26 72  1  0  0  0  0
 27 73  1  0  0  0  0
 28 74  1  0  0  0  0
 28 75  1  0  0  0  0
 30 76  1  0  0  0  0
 32 77  1  0  0  0  0
 35 78  1  0  0  0  0
 38 79  1  0  0  0  0
M  END
> <pdb_id>
6OQD

> <uniprot_id>
Q07820

> <usmiles>
Clc1cc2c(cc1)[C@@]3(COc4c5N(C3)C[C@H]6[C@H]([C@@H](O)CCCC[C@H](S(=O)(=O)NC(=O)c(c5)cc4)C)CC6)CCC2

$$$$
N0P_A_401
          07202413553D 1   1.00000     0.00000     0
            
 66 70  0  0  0  0            999 V2000
   12.7895    6.7722   94.7030 Cl  0  0  0  0  0  0  0  0  0  0  0  0
    1.9801    0.4048  102.2129 S   0  0  0  0  0  0  0  0  0  0  0  0
    0.9174   -0.1592  101.3300 O   0  0  0  0  0  0  0  0  0  0  0  0
    2.7008   -0.4381  103.1858 O   0  0  0  0  0  0  0  0  0  0  0  0
    1.4934    2.2785  100.2605 O   0  0  0  0  0  0  0  0  0  0  0  0
    3.7002    2.1631  103.8716 O   0  0  0  0  0  0  0  0  0  0  0  0
    6.3281    4.0498   96.6475 O   0  0  0  0  0  0  0  0  0  0  0  0
    3.1102    0.9007  101.0887 N   0  0  0  0  0  0  0  0  0  0  0  0
    7.3127    2.6724   99.0957 N   0  0  0  0  0  0  0  0  0  0  0  0
    1.4068    1.9245  102.9570 C   0  0  0  0  0  0  0  0  0  0  0  0
    2.3292    2.1448  104.1384 C   0  0  0  0  0  0  0  0  0  0  0  0
    4.4658    2.8114  104.8105 C   0  0  0  0  0  0  0  0  0  0  0  0
    7.1922    3.0363   96.1581 C   0  0  0  0  0  0  0  0  0  0  0  0
    7.7733    1.8318  100.2235 C   0  0  0  0  0  0  0  0  0  0  0  0
    5.8905    2.9811  104.2869 C   0  0  0  0  0  0  0  0  0  0  0  0
    7.7524    2.6849  101.5357 C   0  0  0  0  0  0  0  0  0  0  0  0
    6.4291    1.7833  103.5653 C   0  0  0  0  0  0  0  0  0  0  0  0
    7.7480    1.8591  102.8076 C   0  0  0  0  0  0  0  0  0  0  0  0
    8.3411    3.4706   98.3889 C   0  0  0  0  0  0  0  0  0  0  0  0
   10.2046    6.2379   95.3030 C   0  0  0  0  0  0  0  0  0  0  0  0
    4.1286    3.7331   97.3968 C   0  0  0  0  0  0  0  0  0  0  0  0
    3.2087    3.1929   98.2929 C   0  0  0  0  0  0  0  0  0  0  0  0
    9.1893    5.4160   95.8377 C   0  0  0  0  0  0  0  0  0  0  0  0
   10.9239    2.2384   96.7554 C   0  0  0  0  0  0  0  0  0  0  0  0
   11.8474    4.4078   95.7076 C   0  0  0  0  0  0  0  0  0  0  0  0
    4.9995    2.2428   99.6548 C   0  0  0  0  0  0  0  0  0  0  0  0
    9.4217    1.8200   96.8697 C   0  0  0  0  0  0  0  0  0  0  0  0
   11.5207    5.7128   95.2584 C   0  0  0  0  0  0  0  0  0  0  0  0
    2.6712    1.8860  100.2690 C   0  0  0  0  0  0  0  0  0  0  0  0
    5.5060    3.5257   97.6357 C   0  0  0  0  0  0  0  0  0  0  0  0
    5.9665    2.7800   98.7777 C   0  0  0  0  0  0  0  0  0  0  0  0
    3.6481    2.4513   99.3909 C   0  0  0  0  0  0  0  0  0  0  0  0
   10.8080    3.6269   96.2314 C   0  0  0  0  0  0  0  0  0  0  0  0
    9.4999    4.1200   96.2999 C   0  0  0  0  0  0  0  0  0  0  0  0
    8.5660    3.1222   96.9144 C   0  0  1  0  0  0  0  0  0  0  0  0
    4.0272    0.5067  101.0261 H   0  0  0  0  0  0  0  0  0  0  0  0
    0.4589    1.8324  103.2618 H   0  0  0  0  0  0  0  0  0  0  0  0
    1.4764    2.6829  102.3088 H   0  0  0  0  0  0  0  0  0  0  0  0
    2.0893    3.0241  104.5498 H   0  0  0  0  0  0  0  0  0  0  0  0
    2.1587    1.4113  104.7963 H   0  0  0  0  0  0  0  0  0  0  0  0
    4.4835    2.2736  105.6535 H   0  0  0  0  0  0  0  0  0  0  0  0
    4.0711    3.7110  104.9973 H   0  0  0  0  0  0  0  0  0  0  0  0
    7.3409    3.1676   95.1780 H   0  0  0  0  0  0  0  0  0  0  0  0
    6.7790    2.1394   96.3154 H   0  0  0  0  0  0  0  0  0  0  0  0
    8.7043    1.5128  100.0457 H   0  0  0  0  0  0  0  0  0  0  0  0
    7.1650    1.0447  100.3255 H   0  0  0  0  0  0  0  0  0  0  0  0
    6.4890    3.1736  105.0645 H   0  0  0  0  0  0  0  0  0  0  0  0
    5.9022    3.7577  103.6570 H   0  0  0  0  0  0  0  0  0  0  0  0
    6.9304    3.2544  101.5276 H   0  0  0  0  0  0  0  0  0  0  0  0
    8.5633    3.2701  101.5434 H   0  0  0  0  0  0  0  0  0  0  0  0
    5.7328    1.5138  102.9001 H   0  0  0  0  0  0  0  0  0  0  0  0
    6.5339    1.0613  104.2492 H   0  0  0  0  0  0  0  0  0  0  0  0
    8.4310    2.2492  103.4252 H   0  0  0  0  0  0  0  0  0  0  0  0
    8.0126    0.9259  102.5645 H   0  0  0  0  0  0  0  0  0  0  0  0
    9.2093    3.3446   98.8688 H   0  0  0  0  0  0  0  0  0  0  0  0
    8.0695    4.4318   98.4381 H   0  0  0  0  0  0  0  0  0  0  0  0
   10.0027    7.1581   94.9675 H   0  0  0  0  0  0  0  0  0  0  0  0
    3.8210    4.2562   96.6020 H   0  0  0  0  0  0  0  0  0  0  0  0
    2.2296    3.3370   98.1490 H   0  0  0  0  0  0  0  0  0  0  0  0
    8.2490    5.7527   95.8889 H   0  0  0  0  0  0  0  0  0  0  0  0
   11.4198    1.6480   96.1186 H   0  0  0  0  0  0  0  0  0  0  0  0
   11.3764    2.2213   97.6470 H   0  0  0  0  0  0  0  0  0  0  0  0
   12.7828    4.0585   95.6528 H   0  0  0  0  0  0  0  0  0  0  0  0
    5.2822    1.7177  100.4576 H   0  0  0  0  0  0  0  0  0  0  0  0
    9.2789    1.2903   97.7057 H   0  0  0  0  0  0  0  0  0  0  0  0
    9.1610    1.2688   96.0771 H   0  0  0  0  0  0  0  0  0  0  0  0
  1 28  1  0  0  0  0
  2  3  2  0  0  0  0
  2  4  2  0  0  0  0
  2  8  1  0  0  0  0
  2 10  1  0  0  0  0
  5 29  2  0  0  0  0
  6 11  1  0  0  0  0
  6 12  1  0  0  0  0
  7 13  1  0  0  0  0
  7 30  1  0  0  0  0
  8 29  1  0  0  0  0
  9 14  1  0  0  0  0
  9 19  1  0  0  0  0
  9 31  1  0  0  0  0
 10 11  1  0  0  0  0
 12 15  1  0  0  0  0
 13 35  1  0  0  0  0
 14 16  1  0  0  0  0
 15 17  1  0  0  0  0
 16 18  1  0  0  0  0
 17 18  1  0  0  0  0
 19 35  1  0  0  0  0
 20 23  2  0  0  0  0
 20 28  1  0  0  0  0
 21 22  1  0  0  0  0
 21 30  2  0  0  0  0
 22 32  2  0  0  0  0
 23 34  1  0  0  0  0
 24 27  1  0  0  0  0
 24 33  1  0  0  0  0
 25 28  2  0  0  0  0
 25 33  1  0  0  0  0
 26 31  2  0  0  0  0
 26 32  1  0  0  0  0
 27 35  1  0  0  0  0
 29 32  1  0  0  0  0
 30 31  1  0  0  0  0
 33 34  2  0  0  0  0
 34 35  1  0  0  0  0
  8 36  1  0  0  0  0
 10 37  1  0  0  0  0
 10 38  1  0  0  0  0
 11 39  1  0  0  0  0
 11 40  1  0  0  0  0
 12 41  1  0  0  0  0
 12 42  1  0  0  0  0
 13 43  1  0  0  0  0
 13 44  1  0  0  0  0
 14 45  1  0  0  0  0
 14 46  1  0  0  0  0
 15 47  1  0  0  0  0
 15 48  1  0  0  0  0
 16 49  1  0  0  0  0
 16 50  1  0  0  0  0
 17 51  1  0  0  0  0
 17 52  1  0  0  0  0
 18 53  1  0  0  0  0
 18 54  1  0  0  0  0
 19 55  1  0  0  0  0
 19 56  1  0  0  0  0
 20 57  1  0  0  0  0
 21 58  1  0  0  0  0
 22 59  1  0  0  0  0
 23 60  1  0  0  0  0
 24 61  1  0  0  0  0
 24 62  1  0  0  0  0
 25 63  1  0  0  0  0
 26 64  1  0  0  0  0
 27 65  1  0  0  0  0
 27 66  1  0  0  0  0
M  END
> <pdb_id>
6OQN

> <uniprot_id>
Q07820

> <usmiles>
Clc1cc2c(cc1)[C@@]3(COc4c5N(C3)CCCCCCOCCS(=O)(=O)NC(=O)c(c5)cc4)CC2

$$$$
N0S_A_501
          07202413553D 1   1.00000     0.00000     0
            
 77 82  0  0  0  0            999 V2000
   12.4483    6.9305   94.7611 Cl  0  0  0  0  0  0  0  0  0  0  0  0
    0.4814    3.3603  101.4431 S   0  0  0  0  0  0  0  0  0  0  0  0
   -0.1462    4.7210  101.5827 O   0  0  0  0  0  0  0  0  0  0  0  0
   -0.5046    2.3461  100.9348 O   0  0  0  0  0  0  0  0  0  0  0  0
    2.3684    1.3226  100.5881 O   0  0  0  0  0  0  0  0  0  0  0  0
    6.8470    0.3543  104.5286 O   0  0  0  0  0  0  0  0  0  0  0  0
    6.3830    3.7994   96.4022 O   0  0  0  0  0  0  0  0  0  0  0  0
    1.7044    3.4893  100.4004 N   0  0  0  0  0  0  0  0  0  0  0  0
    7.1246    2.1912   98.7793 N   0  0  0  0  0  0  0  0  0  0  0  0
    0.1867    2.7389  104.1494 C   0  0  0  0  0  0  0  0  0  0  0  0
    7.3349    2.7551   96.0166 C   0  0  0  0  0  0  0  0  0  0  0  0
    7.4306    1.5755  100.1029 C   0  0  0  0  0  0  0  0  0  0  0  0
    3.3474    3.2025  104.3435 C   0  0  0  0  0  0  0  0  0  0  0  0
    4.1046    2.1711  103.7839 C   0  0  0  0  0  0  0  0  0  0  0  0
   10.6791    1.3247   97.3448 C   0  0  0  0  0  0  0  0  0  0  0  0
    8.2271    3.0930   98.3410 C   0  0  0  0  0  0  0  0  0  0  0  0
    2.3608    3.8075  103.3546 C   0  0  0  0  0  0  0  0  0  0  0  0
    5.4840    2.2102  103.9157 C   0  0  0  0  0  0  0  0  0  0  0  0
   10.0389    6.0918   95.5901 C   0  0  0  0  0  0  0  0  0  0  0  0
   11.5323    2.0959   96.3697 C   0  0  0  0  0  0  0  0  0  0  0  0
    4.2576    3.8585   97.1146 C   0  0  0  0  0  0  0  0  0  0  0  0
    3.2382    3.5492   97.9974 C   0  0  0  0  0  0  0  0  0  0  0  0
    8.4722    3.2539  101.7751 C   0  0  0  0  0  0  0  0  0  0  0  0
    8.3637    2.7052  103.1999 C   0  0  0  0  0  0  0  0  0  0  0  0
    9.1717    5.1197   96.0871 C   0  0  0  0  0  0  0  0  0  0  0  0
   11.8206    4.4508   95.6074 C   0  0  0  0  0  0  0  0  0  0  0  0
    4.8218    2.3125   99.3649 C   0  0  0  0  0  0  0  0  0  0  0  0
    9.2234    1.3467   96.8463 C   0  0  0  0  0  0  0  0  0  0  0  0
   11.3654    5.7382   95.3647 C   0  0  0  0  0  0  0  0  0  0  0  0
    1.2088    2.8365  103.0234 C   0  0  2  0  0  0  0  0  0  0  0  0
    2.4621    2.4414  100.0966 C   0  0  0  0  0  0  0  0  0  0  0  0
    6.3566    1.0786  103.3966 C   0  0  1  0  0  0  0  0  0  0  0  0
    5.5489    3.4248   97.3887 C   0  0  0  0  0  0  0  0  0  0  0  0
    5.8737    2.6407   98.5183 C   0  0  0  0  0  0  0  0  0  0  0  0
    7.2323    2.4064  101.3806 C   0  0  2  0  0  0  0  0  0  0  0  0
    3.5431    2.7727   99.1110 C   0  0  0  0  0  0  0  0  0  0  0  0
   10.9485    3.4798   96.1014 C   0  0  0  0  0  0  0  0  0  0  0  0
    7.5728    1.5335  102.5837 C   0  0  1  0  0  0  0  0  0  0  0  0
    9.6218    3.8283   96.3428 C   0  0  0  0  0  0  0  0  0  0  0  0
    8.6242    2.7632   96.8922 C   0  0  1  0  0  0  0  0  0  0  0  0
    7.4262   -0.3989  104.2170 H   0  0  0  0  0  0  0  0  0  0  0  0
    1.8959    4.3737   99.9748 H   0  0  0  0  0  0  0  0  0  0  0  0
    0.6435    2.4478  104.9900 H   0  0  0  0  0  0  0  0  0  0  0  0
   -0.2374    3.6331  104.2930 H   0  0  0  0  0  0  0  0  0  0  0  0
   -0.5168    2.0719  103.9041 H   0  0  0  0  0  0  0  0  0  0  0  0
    7.5958    2.8968   95.0617 H   0  0  0  0  0  0  0  0  0  0  0  0
    6.8891    1.8650   96.1118 H   0  0  0  0  0  0  0  0  0  0  0  0
    8.3911    1.2982  100.0809 H   0  0  0  0  0  0  0  0  0  0  0  0
    6.8515    0.7648  100.1888 H   0  0  0  0  0  0  0  0  0  0  0  0
    3.9678    3.9212  104.6574 H   0  0  0  0  0  0  0  0  0  0  0  0
    2.8373    2.8387  105.1229 H   0  0  0  0  0  0  0  0  0  0  0  0
    3.6603    1.4188  103.2974 H   0  0  0  0  0  0  0  0  0  0  0  0
   10.7323    1.7496   98.2485 H   0  0  0  0  0  0  0  0  0  0  0  0
   11.0018    0.3799   97.4012 H   0  0  0  0  0  0  0  0  0  0  0  0
    9.0181    2.9656   98.9394 H   0  0  0  0  0  0  0  0  0  0  0  0
    7.9194    4.0431   98.3929 H   0  0  0  0  0  0  0  0  0  0  0  0
    2.8467    4.0326  102.5100 H   0  0  0  0  0  0  0  0  0  0  0  0
    1.9767    4.6416  103.7505 H   0  0  0  0  0  0  0  0  0  0  0  0
    5.9127    2.9967  104.3602 H   0  0  0  0  0  0  0  0  0  0  0  0
    9.7158    7.0190   95.4007 H   0  0  0  0  0  0  0  0  0  0  0  0
   11.5819    1.5901   95.5084 H   0  0  0  0  0  0  0  0  0  0  0  0
   12.4516    2.1976   96.7499 H   0  0  0  0  0  0  0  0  0  0  0  0
    4.0672    4.3884   96.2882 H   0  0  0  0  0  0  0  0  0  0  0  0
    2.3062    3.8753   97.8391 H   0  0  0  0  0  0  0  0  0  0  0  0
    9.3136    2.9985  101.2988 H   0  0  0  0  0  0  0  0  0  0  0  0
    8.3351    4.2418  101.7031 H   0  0  0  0  0  0  0  0  0  0  0  0
    7.8429    3.2778  103.8330 H   0  0  0  0  0  0  0  0  0  0  0  0
    9.2346    2.4503  103.6202 H   0  0  0  0  0  0  0  0  0  0  0  0
    8.2152    5.3533   96.2618 H   0  0  0  0  0  0  0  0  0  0  0  0
   12.7764    4.2177   95.4280 H   0  0  0  0  0  0  0  0  0  0  0  0
    4.9913    1.7379  100.1656 H   0  0  0  0  0  0  0  0  0  0  0  0
    8.6740    0.7441   97.4251 H   0  0  0  0  0  0  0  0  0  0  0  0
    9.1993    1.0156   95.9030 H   0  0  0  0  0  0  0  0  0  0  0  0
    1.6044    1.9277  102.8908 H   0  0  0  0  0  0  0  0  0  0  0  0
    5.7987    0.4676  102.8349 H   0  0  0  0  0  0  0  0  0  0  0  0
    6.3567    2.8857  101.4410 H   0  0  0  0  0  0  0  0  0  0  0  0
    8.1670    0.7681  102.3364 H   0  0  0  0  0  0  0  0  0  0  0  0
  1 29  1  0  0  0  0
  2  3  2  0  0  0  0
  2  4  2  0  0  0  0
  2  8  1  0  0  0  0
  2 30  1  0  0  0  0
  5 31  2  0  0  0  0
  6 32  1  0  0  0  0
  7 11  1  0  0  0  0
  7 33  1  0  0  0  0
  8 31  1  0  0  0  0
  9 12  1  0  0  0  0
  9 16  1  0  0  0  0
  9 34  1  0  0  0  0
 10 30  1  0  0  0  0
 11 40  1  0  0  0  0
 12 35  1  0  0  0  0
 13 14  1  0  0  0  0
 13 17  1  0  0  0  0
 14 18  2  0  0  0  0
 15 20  1  0  0  0  0
 15 28  1  0  0  0  0
 16 40  1  0  0  0  0
 17 30  1  0  0  0  0
 18 32  1  0  0  0  0
 19 25  2  0  0  0  0
 19 29  1  0  0  0  0
 20 37  1  0  0  0  0
 21 22  1  0  0  0  0
 21 33  2  0  0  0  0
 22 36  2  0  0  0  0
 23 24  1  0  0  0  0
 23 35  1  0  0  0  0
 24 38  1  0  0  0  0
 25 39  1  0  0  0  0
 26 29  2  0  0  0  0
 26 37  1  0  0  0  0
 27 34  2  0  0  0  0
 27 36  1  0  0  0  0
 28 40  1  0  0  0  0
 31 36  1  0  0  0  0
 32 38  1  0  0  0  0
 33 34  1  0  0  0  0
 35 38  1  0  0  0  0
 37 39  2  0  0  0  0
 39 40  1  0  0  0  0
  6 41  1  0  0  0  0
  8 42  1  0  0  0  0
 10 43  1  0  0  0  0
 10 44  1  0  0  0  0
 10 45  1  0  0  0  0
 11 46  1  0  0  0  0
 11 47  1  0  0  0  0
 12 48  1  0  0  0  0
 12 49  1  0  0  0  0
 13 50  1  0  0  0  0
 13 51  1  0  0  0  0
 14 52  1  0  0  0  0
 15 53  1  0  0  0  0
 15 54  1  0  0  0  0
 16 55  1  0  0  0  0
 16 56  1  0  0  0  0
 17 57  1  0  0  0  0
 17 58  1  0  0  0  0
 18 59  1  0  0  0  0
 19 60  1  0  0  0  0
 20 61  1  0  0  0  0
 20 62  1  0  0  0  0
 21 63  1  0  0  0  0
 22 64  1  0  0  0  0
 23 65  1  0  0  0  0
 23 66  1  0  0  0  0
 24 67  1  0  0  0  0
 24 68  1  0  0  0  0
 25 69  1  0  0  0  0
 26 70  1  0  0  0  0
 27 71  1  0  0  0  0
 28 72  1  0  0  0  0
 28 73  1  0  0  0  0
 30 74  1  0  0  0  0
 32 75  1  0  0  0  0
 35 76  1  0  0  0  0
 38 77  1  0  0  0  0
M  END
> <pdb_id>
6OQC

> <uniprot_id>
Q07820

> <usmiles>
Clc1cc2c(cc1)[C@@]3(COc4c5N(C3)C[C@H]6[C@H]([C@@H](O)/C=C/CC[C@H](S(=O)(=O)NC(=O)c(c5)cc4)C)CC6)CCC2

$$$$
N1N_A_302
          07202407183D 1   1.00000     0.00000     0
            
 46 49  0  0  0  0            999 V2000
   24.8912   19.4973   -2.0555 Cl  0  0  0  0  0  0  0  0  0  0  0  0
   27.1090   20.3022   -4.4555 Cl  0  0  0  0  0  0  0  0  0  0  0  0
   32.5387   18.3379   -4.9495 S   0  0  0  0  0  0  0  0  0  0  0  0
   37.4276   19.4720   -7.0564 O   0  0  0  0  0  0  0  0  0  0  0  0
   37.0332   20.3926   -9.0145 O   0  0  0  0  0  0  0  0  0  0  0  0
   30.5147   17.2259   -3.5169 O   0  0  0  0  0  0  0  0  0  0  0  0
   31.9750   21.0710   -8.9966 O   0  0  0  0  0  0  0  0  0  0  0  0
   29.8258   18.7575   -5.0301 N   0  0  0  0  0  0  0  0  0  0  0  0
   31.1391   19.6458   -6.7121 N   0  0  0  0  0  0  0  0  0  0  0  0
   28.0474   17.2666   -2.2030 N   0  0  0  0  0  0  0  0  0  0  0  0
   26.2695   16.8489   -0.5157 C   0  0  0  0  0  0  0  0  0  0  0  0
   32.0611   22.4339   -9.4122 C   0  0  0  0  0  0  0  0  0  0  0  0
   28.6953   23.5766  -11.8154 C   0  0  0  0  0  0  0  0  0  0  0  0
   29.1265   22.2748  -11.8281 C   0  0  0  0  0  0  0  0  0  0  0  0
   29.3372   24.4948  -11.0271 C   0  0  0  0  0  0  0  0  0  0  0  0
   30.2244   21.8949  -11.0686 C   0  0  0  0  0  0  0  0  0  0  0  0
   30.4224   24.1149  -10.2559 C   0  0  0  0  0  0  0  0  0  0  0  0
   34.7483   19.1727   -6.5125 C   0  0  0  0  0  0  0  0  0  0  0  0
   34.2890   20.5153   -8.4694 C   0  0  0  0  0  0  0  0  0  0  0  0
   31.0552   18.9482   -5.6215 C   0  0  0  0  0  0  0  0  0  0  0  0
   36.6722   19.9290   -7.9017 C   0  0  0  0  0  0  0  0  0  0  0  0
   26.3821   18.6907   -2.3489 C   0  0  0  0  0  0  0  0  0  0  0  0
   27.2917   19.0043   -3.3475 C   0  0  0  0  0  0  0  0  0  0  0  0
   33.3845   19.1408   -6.2475 C   0  0  0  0  0  0  0  0  0  0  0  0
   29.6371   17.9807   -3.9334 C   0  0  0  0  0  0  0  0  0  0  0  0
   32.9326   20.4615   -8.2249 C   0  0  0  0  0  0  0  0  0  0  0  0
   26.8467   17.5991   -1.6610 C   0  0  0  0  0  0  0  0  0  0  0  0
   28.3524   18.1098   -3.2392 C   0  0  0  0  0  0  0  0  0  0  0  0
   32.4621   19.7852   -7.0789 C   0  0  0  0  0  0  0  0  0  0  0  0
   30.8677   22.8137  -10.2528 C   0  0  0  0  0  0  0  0  0  0  0  0
   35.2049   19.8687   -7.6356 C   0  0  0  0  0  0  0  0  0  0  0  0
   37.0605   19.1219   -6.1946 H   0  0  0  0  0  0  0  0  0  0  0  0
   29.0314   19.2150   -5.4294 H   0  0  0  0  0  0  0  0  0  0  0  0
   28.6264   16.5137   -1.8901 H   0  0  0  0  0  0  0  0  0  0  0  0
   25.3866   17.2474   -0.2671 H   0  0  0  0  0  0  0  0  0  0  0  0
   26.1419   15.8915   -0.7746 H   0  0  0  0  0  0  0  0  0  0  0  0
   26.8914   16.9029    0.2656 H   0  0  0  0  0  0  0  0  0  0  0  0
   32.8946   22.5606   -9.9500 H   0  0  0  0  0  0  0  0  0  0  0  0
   32.0934   23.0218   -8.6039 H   0  0  0  0  0  0  0  0  0  0  0  0
   27.9167   23.8540  -12.3784 H   0  0  0  0  0  0  0  0  0  0  0  0
   28.6483   21.5969  -12.3865 H   0  0  0  0  0  0  0  0  0  0  0  0
   29.0208   25.4432  -11.0085 H   0  0  0  0  0  0  0  0  0  0  0  0
   30.5540   20.9516  -11.1099 H   0  0  0  0  0  0  0  0  0  0  0  0
   30.8894   24.7967   -9.6928 H   0  0  0  0  0  0  0  0  0  0  0  0
   35.3936   18.7048   -5.9087 H   0  0  0  0  0  0  0  0  0  0  0  0
   34.6238   21.0278   -9.2601 H   0  0  0  0  0  0  0  0  0  0  0  0
  1 22  1  0  0  0  0
  2 23  1  0  0  0  0
  3 20  1  0  0  0  0
  3 24  1  0  0  0  0
  4 21  1  0  0  0  0
  5 21  2  0  0  0  0
  6 25  2  0  0  0  0
  7 12  1  0  0  0  0
  7 26  1  0  0  0  0
  8 20  1  0  0  0  0
  8 25  1  0  0  0  0
  9 20  2  0  0  0  0
  9 29  1  0  0  0  0
 10 27  1  0  0  0  0
 10 28  1  0  0  0  0
 11 27  1  0  0  0  0
 12 30  1  0  0  0  0
 13 14  2  0  0  0  0
 13 15  1  0  0  0  0
 14 16  1  0  0  0  0
 15 17  2  0  0  0  0
 16 30  2  0  0  0  0
 17 30  1  0  0  0  0
 18 24  1  0  0  0  0
 18 31  2  0  0  0  0
 19 26  2  0  0  0  0
 19 31  1  0  0  0  0
 21 31  1  0  0  0  0
 22 23  1  0  0  0  0
 22 27  2  0  0  0  0
 23 28  2  0  0  0  0
 24 29  2  0  0  0  0
 25 28  1  0  0  0  0
 26 29  1  0  0  0  0
  4 32  1  0  0  0  0
  8 33  1  0  0  0  0
 10 34  1  0  0  0  0
 11 35  1  0  0  0  0
 11 36  1  0  0  0  0
 11 37  1  0  0  0  0
 12 38  1  0  0  0  0
 12 39  1  0  0  0  0
 13 40  1  0  0  0  0
 14 41  1  0  0  0  0
 15 42  1  0  0  0  0
 16 43  1  0  0  0  0
 17 44  1  0  0  0  0
 18 45  1  0  0  0  0
 19 46  1  0  0  0  0
M  END
> <pdb_id>
7P2M

> <uniprot_id>
P0AES6

> <usmiles>
ClC=1C(Cl)=C(NC1C(=O)NC=2Sc3c(N2)c(OCc4ccccc4)cc(c3)C(=O)O)C

$$$$
N1N_B_301
          07202413493D 1   1.00000     0.00000     0
            
 46 49  0  0  0  0            999 V2000
  -16.3560  -14.7700  -28.1930 Cl  0  0  0  0  0  0  0  0  0  0  0  0
  -13.3640  -16.1760  -28.7480 Cl  0  0  0  0  0  0  0  0  0  0  0  0
  -12.1730  -20.1960  -32.5810 S   0  0  0  0  0  0  0  0  0  0  0  0
   -8.7500  -24.4080  -33.6070 O   0  0  0  0  0  0  0  0  0  0  0  0
   -6.7710  -23.5800  -33.0860 O   0  0  0  0  0  0  0  0  0  0  0  0
  -14.2950  -18.6020  -32.6700 O   0  0  0  0  0  0  0  0  0  0  0  0
   -7.6110  -19.0850  -30.9440 O   0  0  0  0  0  0  0  0  0  0  0  0
  -12.6060  -17.7290  -31.4670 N   0  0  0  0  0  0  0  0  0  0  0  0
  -10.4580  -18.6350  -31.3850 N   0  0  0  0  0  0  0  0  0  0  0  0
  -16.1860  -16.7850  -31.6210 N   0  0  0  0  0  0  0  0  0  0  0  0
  -18.3270  -15.5890  -30.8800 C   0  0  0  0  0  0  0  0  0  0  0  0
   -6.2250  -19.2680  -30.5910 C   0  0  0  0  0  0  0  0  0  0  0  0
   -5.8970  -22.3510  -27.5930 C   0  0  0  0  0  0  0  0  0  0  0  0
   -4.9690  -22.2840  -28.6230 C   0  0  0  0  0  0  0  0  0  0  0  0
   -6.9320  -21.4180  -27.5350 C   0  0  0  0  0  0  0  0  0  0  0  0
   -5.0760  -21.2820  -29.5930 C   0  0  0  0  0  0  0  0  0  0  0  0
   -7.0450  -20.4150  -28.5040 C   0  0  0  0  0  0  0  0  0  0  0  0
  -10.0640  -21.9290  -32.9230 C   0  0  0  0  0  0  0  0  0  0  0  0
   -7.8780  -21.2550  -32.0820 C   0  0  0  0  0  0  0  0  0  0  0  0
  -11.7680  -18.7380  -31.7480 C   0  0  0  0  0  0  0  0  0  0  0  0
   -8.0890  -23.4520  -33.2000 C   0  0  0  0  0  0  0  0  0  0  0  0
  -16.0140  -15.7410  -29.6550 C   0  0  0  0  0  0  0  0  0  0  0  0
  -14.7560  -16.3300  -29.9210 C   0  0  0  0  0  0  0  0  0  0  0  0
  -10.5890  -20.7350  -32.4800 C   0  0  0  0  0  0  0  0  0  0  0  0
  -13.8810  -17.7970  -31.8520 C   0  0  0  0  0  0  0  0  0  0  0  0
   -8.3460  -20.0450  -31.6020 C   0  0  0  0  0  0  0  0  0  0  0  0
  -16.9070  -16.0270  -30.7610 C   0  0  0  0  0  0  0  0  0  0  0  0
  -14.9060  -16.9850  -31.2080 C   0  0  0  0  0  0  0  0  0  0  0  0
   -9.7700  -19.7390  -31.7730 C   0  0  0  0  0  0  0  0  0  0  0  0
   -6.1050  -20.3380  -29.5300 C   0  0  0  0  0  0  0  0  0  0  0  0
   -8.6980  -22.1720  -32.7390 C   0  0  0  0  0  0  0  0  0  0  0  0
   -9.7425  -24.3270  -33.6981 H   0  0  0  0  0  0  0  0  0  0  0  0
  -12.2752  -16.9270  -30.9696 H   0  0  0  0  0  0  0  0  0  0  0  0
  -16.5564  -17.1588  -32.4713 H   0  0  0  0  0  0  0  0  0  0  0  0
  -18.5735  -15.0373  -30.0832 H   0  0  0  0  0  0  0  0  0  0  0  0
  -18.4391  -15.0437  -31.7107 H   0  0  0  0  0  0  0  0  0  0  0  0
  -18.9209  -16.3923  -30.9259 H   0  0  0  0  0  0  0  0  0  0  0  0
   -5.8556  -18.4081  -30.2388 H   0  0  0  0  0  0  0  0  0  0  0  0
   -5.7095  -19.5450  -31.4019 H   0  0  0  0  0  0  0  0  0  0  0  0
   -5.8239  -23.0645  -26.8962 H   0  0  0  0  0  0  0  0  0  0  0  0
   -4.2254  -22.9508  -28.6715 H   0  0  0  0  0  0  0  0  0  0  0  0
   -7.6005  -21.4664  -26.7929 H   0  0  0  0  0  0  0  0  0  0  0  0
   -4.4104  -21.2406  -30.3382 H   0  0  0  0  0  0  0  0  0  0  0  0
   -7.7965  -19.7567  -28.4606 H   0  0  0  0  0  0  0  0  0  0  0  0
  -10.6474  -22.6088  -33.3673 H   0  0  0  0  0  0  0  0  0  0  0  0
   -6.9126  -21.4814  -31.9527 H   0  0  0  0  0  0  0  0  0  0  0  0
  1 22  1  0  0  0  0
  2 23  1  0  0  0  0
  3 20  1  0  0  0  0
  3 24  1  0  0  0  0
  4 21  1  0  0  0  0
  5 21  2  0  0  0  0
  6 25  2  0  0  0  0
  7 12  1  0  0  0  0
  7 26  1  0  0  0  0
  8 20  1  0  0  0  0
  8 25  1  0  0  0  0
  9 20  2  0  0  0  0
  9 29  1  0  0  0  0
 10 27  1  0  0  0  0
 10 28  1  0  0  0  0
 11 27  1  0  0  0  0
 12 30  1  0  0  0  0
 13 14  2  0  0  0  0
 13 15  1  0  0  0  0
 14 16  1  0  0  0  0
 15 17  2  0  0  0  0
 16 30  2  0  0  0  0
 17 30  1  0  0  0  0
 18 24  1  0  0  0  0
 18 31  2  0  0  0  0
 19 26  2  0  0  0  0
 19 31  1  0  0  0  0
 21 31  1  0  0  0  0
 22 23  1  0  0  0  0
 22 27  2  0  0  0  0
 23 28  2  0  0  0  0
 24 29  2  0  0  0  0
 25 28  1  0  0  0  0
 26 29  1  0  0  0  0
  4 32  1  0  0  0  0
  8 33  1  0  0  0  0
 10 34  1  0  0  0  0
 11 35  1  0  0  0  0
 11 36  1  0  0  0  0
 11 37  1  0  0  0  0
 12 38  1  0  0  0  0
 12 39  1  0  0  0  0
 13 40  1  0  0  0  0
 14 41  1  0  0  0  0
 15 42  1  0  0  0  0
 16 43  1  0  0  0  0
 17 44  1  0  0  0  0
 18 45  1  0  0  0  0
 19 46  1  0  0  0  0
M  END
> <pdb_id>
6TCK

> <uniprot_id>
P0A0K8

> <usmiles>
ClC=1C(Cl)=C(NC1C(=O)NC=2Sc3c(N2)c(OCc4ccccc4)cc(c3)C(=O)O)C

$$$$
N1Y_C_301
          07202406093D 1   1.00000     0.00000     0
            
 28 29  0  0  0  0            999 V2000
   58.4695   -0.3797  126.8237 Cl  0  0  0  0  0  0  0  0  0  0  0  0
   53.1904    4.1654  121.3285 O   0  5  0  0  0  0  0  0  0  0  0  0
   53.7943    5.3862  123.0502 O   0  0  0  0  0  0  0  0  0  0  0  0
   55.1104    2.6646  120.1734 N   0  0  0  0  0  0  0  0  0  0  0  0
   58.7346    0.0336  124.2848 N   0  0  0  0  0  0  0  0  0  0  0  0
   54.0328    4.5755  122.1435 N   0  3  0  0  0  0  0  0  0  0  0  0
   57.1608    2.7464  121.0662 N   0  0  0  0  0  0  0  0  0  0  0  0
   55.8504    1.7611  119.3333 C   0  0  0  0  0  0  0  0  0  0  0  0
   58.7078    0.8184  123.1487 C   0  0  0  0  0  0  0  0  0  0  0  0
   57.2731    1.8072  119.9370 C   0  0  0  0  0  0  0  0  0  0  0  0
   55.4031    4.1145  122.0899 C   0  0  0  0  0  0  0  0  0  0  0  0
   58.3556    3.0188  121.8730 C   0  0  0  0  0  0  0  0  0  0  0  0
   58.0827    1.9947  125.6003 C   0  0  0  0  0  0  0  0  0  0  0  0
   58.0635    2.7724  124.4145 C   0  0  0  0  0  0  0  0  0  0  0  0
   58.4218    0.6389  125.4734 C   0  0  0  0  0  0  0  0  0  0  0  0
   55.8519    3.2379  121.1713 C   0  0  0  0  0  0  0  0  0  0  0  0
   58.3804    2.1909  123.1460 C   0  0  0  0  0  0  0  0  0  0  0  0
   54.1382    2.8573  120.0400 H   0  0  0  0  0  0  0  0  0  0  0  0
   55.8530    2.0745  118.3837 H   0  0  0  0  0  0  0  0  0  0  0  0
   55.4710    0.8369  119.3783 H   0  0  0  0  0  0  0  0  0  0  0  0
   58.9342    0.3878  122.2751 H   0  0  0  0  0  0  0  0  0  0  0  0
   57.5516    0.9014  120.2564 H   0  0  0  0  0  0  0  0  0  0  0  0
   57.9328    2.1405  119.2635 H   0  0  0  0  0  0  0  0  0  0  0  0
   56.0491    4.4641  122.7686 H   0  0  0  0  0  0  0  0  0  0  0  0
   58.3664    3.9884  122.1176 H   0  0  0  0  0  0  0  0  0  0  0  0
   59.1678    2.8028  121.3310 H   0  0  0  0  0  0  0  0  0  0  0  0
   57.8637    2.3957  126.4898 H   0  0  0  0  0  0  0  0  0  0  0  0
   57.8248    3.7422  124.4657 H   0  0  0  0  0  0  0  0  0  0  0  0
  1 15  1  0  0  0  0
  2  6  1  0  0  0  0
  3  6  2  0  0  0  0
  4  8  1  0  0  0  0
  4 16  1  0  0  0  0
  5  9  2  0  0  0  0
  5 15  1  0  0  0  0
  6 11  1  0  0  0  0
  7 10  1  0  0  0  0
  7 12  1  0  0  0  0
  7 16  1  0  0  0  0
  8 10  1  0  0  0  0
  9 17  1  0  0  0  0
 11 16  2  0  0  0  0
 12 17  1  0  0  0  0
 13 14  1  0  0  0  0
 13 15  2  0  0  0  0
 14 17  2  0  0  0  0
  4 18  1  0  0  0  0
  8 19  1  0  0  0  0
  8 20  1  0  0  0  0
  9 21  1  0  0  0  0
 10 22  1  0  0  0  0
 10 23  1  0  0  0  0
 11 24  1  0  0  0  0
 12 25  1  0  0  0  0
 12 26  1  0  0  0  0
 13 27  1  0  0  0  0
 14 28  1  0  0  0  0
M  CHG  2   2  -1   6   1
M  END
> <pdb_id>
3WTL

> <uniprot_id>
P58154

> <usmiles>
Clc1ncc(cc1)CN2/C(/NCC2)=C/[N+]([O-])=O

$$$$
N22_A_219
          07202402293D 1   1.00000     0.00000     0
            
 43 44  0  0  0  0            999 V2000
   -6.7066   35.2249   -6.5835 O   0  0  0  0  0  0  0  0  0  0  0  0
   -1.7721   33.8766   -8.6537 O   0  0  0  0  0  0  0  0  0  0  0  0
   -7.3527   26.3570   -3.9792 N   0  0  0  0  0  0  0  0  0  0  0  0
   -3.3504   28.6146   -3.4172 N   0  0  0  0  0  0  0  0  0  0  0  0
   -5.3434   27.4935   -3.6876 N   0  0  0  0  0  0  0  0  0  0  0  0
   -6.9171   28.1817   -5.2793 N   0  0  0  0  0  0  0  0  0  0  0  0
   -6.6679   35.4598   -5.1827 C   0  0  0  0  0  0  0  0  0  0  0  0
   -1.7076   34.0643  -10.0729 C   0  0  0  0  0  0  0  0  0  0  0  0
   -7.6675   31.1222   -6.2381 C   0  0  0  0  0  0  0  0  0  0  0  0
   -6.6687   30.1091   -6.7853 C   0  0  0  0  0  0  0  0  0  0  0  0
   -3.4082   31.3776   -5.8106 C   0  0  0  0  0  0  0  0  0  0  0  0
   -5.0347   35.4988   -8.2338 C   0  0  0  0  0  0  0  0  0  0  0  0
   -3.7932   35.1602   -8.7585 C   0  0  0  0  0  0  0  0  0  0  0  0
   -2.5753   32.4985   -6.2501 C   0  0  0  0  0  0  0  0  0  0  0  0
   -4.0901   30.4579   -5.4593 C   0  0  0  0  0  0  0  0  0  0  0  0
   -4.6761   33.9087   -6.4477 C   0  0  0  0  0  0  0  0  0  0  0  0
   -6.5286   27.3402   -4.3119 C   0  0  0  0  0  0  0  0  0  0  0  0
   -4.5198   28.4914   -4.0273 C   0  0  0  0  0  0  0  0  0  0  0  0
   -5.4801   34.8777   -7.0724 C   0  0  0  0  0  0  0  0  0  0  0  0
   -2.9924   34.2008   -8.1378 C   0  0  0  0  0  0  0  0  0  0  0  0
   -6.1394   29.2000   -5.6685 C   0  0  0  0  0  0  0  0  0  0  0  0
   -3.4237   33.5614   -6.9723 C   0  0  0  0  0  0  0  0  0  0  0  0
   -4.9151   29.3715   -5.0477 C   0  0  0  0  0  0  0  0  0  0  0  0
   -8.2282   26.2569   -4.4519 H   0  0  0  0  0  0  0  0  0  0  0  0
   -7.0990   25.7153   -3.2554 H   0  0  0  0  0  0  0  0  0  0  0  0
   -2.7316   29.3590   -3.6679 H   0  0  0  0  0  0  0  0  0  0  0  0
   -3.0866   27.9631   -2.7059 H   0  0  0  0  0  0  0  0  0  0  0  0
   -7.5811   35.7108   -4.8616 H   0  0  0  0  0  0  0  0  0  0  0  0
   -6.3662   34.6297   -4.7138 H   0  0  0  0  0  0  0  0  0  0  0  0
   -6.0294   36.2040   -4.9870 H   0  0  0  0  0  0  0  0  0  0  0  0
   -0.7968   33.8139  -10.4011 H   0  0  0  0  0  0  0  0  0  0  0  0
   -2.3924   33.4866  -10.5170 H   0  0  0  0  0  0  0  0  0  0  0  0
   -1.8884   35.0234  -10.2908 H   0  0  0  0  0  0  0  0  0  0  0  0
   -7.9970   31.7015   -6.9836 H   0  0  0  0  0  0  0  0  0  0  0  0
   -8.4396   30.6394   -5.8248 H   0  0  0  0  0  0  0  0  0  0  0  0
   -7.2211   31.6904   -5.5468 H   0  0  0  0  0  0  0  0  0  0  0  0
   -5.9013   30.5978   -7.2003 H   0  0  0  0  0  0  0  0  0  0  0  0
   -7.1198   29.5468   -7.4784 H   0  0  0  0  0  0  0  0  0  0  0  0
   -5.6036   36.1842   -8.6883 H   0  0  0  0  0  0  0  0  0  0  0  0
   -3.4697   35.6096   -9.5912 H   0  0  0  0  0  0  0  0  0  0  0  0
   -1.8730   32.1592   -6.8759 H   0  0  0  0  0  0  0  0  0  0  0  0
   -2.1383   32.9144   -5.4526 H   0  0  0  0  0  0  0  0  0  0  0  0
   -5.0028   33.4601   -5.6158 H   0  0  0  0  0  0  0  0  0  0  0  0
  1  7  1  0  0  0  0
  1 19  1  0  0  0  0
  2  8  1  0  0  0  0
  2 20  1  0  0  0  0
  3 17  1  0  0  0  0
  4 18  1  0  0  0  0
  5 17  2  0  0  0  0
  5 18  1  0  0  0  0
  6 17  1  0  0  0  0
  6 21  2  0  0  0  0
  9 10  1  0  0  0  0
 10 21  1  0  0  0  0
 11 14  1  0  0  0  0
 11 15  3  0  0  0  0
 12 13  2  0  0  0  0
 12 19  1  0  0  0  0
 13 20  1  0  0  0  0
 14 22  1  0  0  0  0
 15 23  1  0  0  0  0
 16 19  2  0  0  0  0
 16 22  1  0  0  0  0
 18 23  2  0  0  0  0
 20 22  2  0  0  0  0
 21 23  1  0  0  0  0
  3 24  1  0  0  0  0
  3 25  1  0  0  0  0
  4 26  1  0  0  0  0
  4 27  1  0  0  0  0
  7 28  1  0  0  0  0
  7 29  1  0  0  0  0
  7 30  1  0  0  0  0
  8 31  1  0  0  0  0
  8 32  1  0  0  0  0
  8 33  1  0  0  0  0
  9 34  1  0  0  0  0
  9 35  1  0  0  0  0
  9 36  1  0  0  0  0
 10 37  1  0  0  0  0
 10 38  1  0  0  0  0
 12 39  1  0  0  0  0
 13 40  1  0  0  0  0
 14 41  1  0  0  0  0
 14 42  1  0  0  0  0
 16 43  1  0  0  0  0
M  END
> <pdb_id>
3FQ0

> <uniprot_id>
Q2YY41

> <usmiles>
O(c1c(cc(OC)cc1)CC#Cc2c(nc(nc2CC)N)N)C

$$$$
N22_A_219
          07202413023D 1   1.00000     0.00000     0
            
 43 44  0  0  0  0            999 V2000
   33.7796   11.8730   42.5189 O   0  0  0  0  0  0  0  0  0  0  0  0
   30.5779   15.2326   45.5531 O   0  0  0  0  0  0  0  0  0  0  0  0
   26.7226    6.9480   40.5297 N   0  0  0  0  0  0  0  0  0  0  0  0
   26.5276   11.5531   40.0632 N   0  0  0  0  0  0  0  0  0  0  0  0
   26.6421    9.2564   40.2959 N   0  0  0  0  0  0  0  0  0  0  0  0
   28.0649    8.2666   41.8503 N   0  0  0  0  0  0  0  0  0  0  0  0
   35.2023   11.9243   42.7987 C   0  0  0  0  0  0  0  0  0  0  0  0
   30.9772   15.3888   46.9220 C   0  0  0  0  0  0  0  0  0  0  0  0
   30.9230    8.9767   42.8298 C   0  0  0  0  0  0  0  0  0  0  0  0
   29.5788    9.4596   43.3624 C   0  0  0  0  0  0  0  0  0  0  0  0
   28.9541   12.9338   42.5065 C   0  0  0  0  0  0  0  0  0  0  0  0
   33.4847   13.2228   44.5114 C   0  0  0  0  0  0  0  0  0  0  0  0
   32.6723   14.0701   45.2697 C   0  0  0  0  0  0  0  0  0  0  0  0
   29.5309   14.1761   43.0309 C   0  0  0  0  0  0  0  0  0  0  0  0
   28.5051   11.8757   42.1010 C   0  0  0  0  0  0  0  0  0  0  0  0
   31.7398   13.0396   42.8616 C   0  0  0  0  0  0  0  0  0  0  0  0
   27.1362    8.1583   40.8899 C   0  0  0  0  0  0  0  0  0  0  0  0
   27.0499   10.4829   40.6606 C   0  0  0  0  0  0  0  0  0  0  0  0
   33.0210   12.7092   43.2958 C   0  0  0  0  0  0  0  0  0  0  0  0
   31.3872   14.4002   44.8244 C   0  0  0  0  0  0  0  0  0  0  0  0
   28.5230    9.4558   42.2613 C   0  0  0  0  0  0  0  0  0  0  0  0
   30.9135   13.8848   43.6118 C   0  0  0  0  0  0  0  0  0  0  0  0
   28.0124   10.6050   41.6639 C   0  0  0  0  0  0  0  0  0  0  0  0
   27.0976    6.1371   40.9791 H   0  0  0  0  0  0  0  0  0  0  0  0
   26.0363    6.8480   39.8093 H   0  0  0  0  0  0  0  0  0  0  0  0
   26.8260   12.4697   40.3292 H   0  0  0  0  0  0  0  0  0  0  0  0
   25.8371   11.4398   39.3488 H   0  0  0  0  0  0  0  0  0  0  0  0
   35.6840   11.2898   42.1943 H   0  0  0  0  0  0  0  0  0  0  0  0
   35.5392   12.8530   42.6437 H   0  0  0  0  0  0  0  0  0  0  0  0
   35.3643   11.6656   43.7510 H   0  0  0  0  0  0  0  0  0  0  0  0
   30.3424   16.0065   47.3860 H   0  0  0  0  0  0  0  0  0  0  0  0
   30.9671   14.4978   47.3759 H   0  0  0  0  0  0  0  0  0  0  0  0
   31.9006   15.7709   46.9583 H   0  0  0  0  0  0  0  0  0  0  0  0
   31.5976    8.9879   43.5680 H   0  0  0  0  0  0  0  0  0  0  0  0
   30.8275    8.0449   42.4796 H   0  0  0  0  0  0  0  0  0  0  0  0
   31.2258    9.5805   42.0924 H   0  0  0  0  0  0  0  0  0  0  0  0
   29.6814   10.3901   43.7143 H   0  0  0  0  0  0  0  0  0  0  0  0
   29.2831    8.8545   44.1015 H   0  0  0  0  0  0  0  0  0  0  0  0
   34.3989   12.9833   44.8383 H   0  0  0  0  0  0  0  0  0  0  0  0
   33.0106   14.4421   46.1341 H   0  0  0  0  0  0  0  0  0  0  0  0
   28.9380   14.5432   43.7476 H   0  0  0  0  0  0  0  0  0  0  0  0
   29.6133   14.8444   42.2916 H   0  0  0  0  0  0  0  0  0  0  0  0
   31.4035   12.6659   41.9971 H   0  0  0  0  0  0  0  0  0  0  0  0
  1  7  1  0  0  0  0
  1 19  1  0  0  0  0
  2  8  1  0  0  0  0
  2 20  1  0  0  0  0
  3 17  1  0  0  0  0
  4 18  1  0  0  0  0
  5 17  2  0  0  0  0
  5 18  1  0  0  0  0
  6 17  1  0  0  0  0
  6 21  2  0  0  0  0
  9 10  1  0  0  0  0
 10 21  1  0  0  0  0
 11 14  1  0  0  0  0
 11 15  3  0  0  0  0
 12 13  2  0  0  0  0
 12 19  1  0  0  0  0
 13 20  1  0  0  0  0
 14 22  1  0  0  0  0
 15 23  1  0  0  0  0
 16 19  2  0  0  0  0
 16 22  1  0  0  0  0
 18 23  2  0  0  0  0
 20 22  2  0  0  0  0
 21 23  1  0  0  0  0
  3 24  1  0  0  0  0
  3 25  1  0  0  0  0
  4 26  1  0  0  0  0
  4 27  1  0  0  0  0
  7 28  1  0  0  0  0
  7 29  1  0  0  0  0
  7 30  1  0  0  0  0
  8 31  1  0  0  0  0
  8 32  1  0  0  0  0
  8 33  1  0  0  0  0
  9 34  1  0  0  0  0
  9 35  1  0  0  0  0
  9 36  1  0  0  0  0
 10 37  1  0  0  0  0
 10 38  1  0  0  0  0
 12 39  1  0  0  0  0
 13 40  1  0  0  0  0
 14 41  1  0  0  0  0
 14 42  1  0  0  0  0
 16 43  1  0  0  0  0
M  END
> <pdb_id>
3FQO

> <uniprot_id>
Q2YY41

> <usmiles>
O(c1c(cc(OC)cc1)CC#Cc2c(nc(nc2CC)N)N)C

$$$$
N2Y_A_301
          07202406093D 1   1.00000     0.00000     0
            
 25 26  0  0  0  0            999 V2000
   58.8342   -0.4821  126.4387 Cl  0  0  0  0  0  0  0  0  0  0  0  0
   60.0564    2.8044  118.9926 N   0  0  0  0  0  0  0  0  0  0  0  0
   57.8703    2.2324  118.2501 N   0  0  0  0  0  0  0  0  0  0  0  0
   58.6798    0.1320  123.8423 N   0  0  0  0  0  0  0  0  0  0  0  0
   58.1835    2.8839  120.4596 N   0  0  0  0  0  0  0  0  0  0  0  0
   56.5480    2.1741  118.8612 C   0  0  0  0  0  0  0  0  0  0  0  0
   58.6695    0.9479  122.7690 C   0  0  0  0  0  0  0  0  0  0  0  0
   56.7464    2.6057  120.3186 C   0  0  0  0  0  0  0  0  0  0  0  0
   58.8100    3.3374  121.7227 C   0  0  0  0  0  0  0  0  0  0  0  0
   58.9854    2.0038  125.3444 C   0  0  0  0  0  0  0  0  0  0  0  0
   58.9778    2.8777  124.2386 C   0  0  0  0  0  0  0  0  0  0  0  0
   58.8101    2.6497  119.2042 C   0  0  0  0  0  0  0  0  0  0  0  0
   58.8312    0.6121  125.0977 C   0  0  0  0  0  0  0  0  0  0  0  0
   58.8176    2.3693  122.9205 C   0  0  0  0  0  0  0  0  0  0  0  0
   60.6558    3.1064  119.7340 H   0  0  0  0  0  0  0  0  0  0  0  0
   60.4357    2.6239  118.0851 H   0  0  0  0  0  0  0  0  0  0  0  0
   56.1851    1.2433  118.8194 H   0  0  0  0  0  0  0  0  0  0  0  0
   55.9205    2.7978  118.3950 H   0  0  0  0  0  0  0  0  0  0  0  0
   58.5573    0.5586  121.8547 H   0  0  0  0  0  0  0  0  0  0  0  0
   56.2114    3.4275  120.5147 H   0  0  0  0  0  0  0  0  0  0  0  0
   56.4707    1.8723  120.9400 H   0  0  0  0  0  0  0  0  0  0  0  0
   58.3276    4.1640  122.0127 H   0  0  0  0  0  0  0  0  0  0  0  0
   59.7625    3.5621  121.5171 H   0  0  0  0  0  0  0  0  0  0  0  0
   59.0960    2.3523  126.2752 H   0  0  0  0  0  0  0  0  0  0  0  0
   59.0856    3.8615  124.3820 H   0  0  0  0  0  0  0  0  0  0  0  0
  1 13  1  0  0  0  0
  2 12  1  0  0  0  0
  3  6  1  0  0  0  0
  3 12  2  0  0  0  0
  4  7  2  0  0  0  0
  4 13  1  0  0  0  0
  5  8  1  0  0  0  0
  5  9  1  0  0  0  0
  5 12  1  0  0  0  0
  6  8  1  0  0  0  0
  7 14  1  0  0  0  0
  9 14  1  0  0  0  0
 10 11  1  0  0  0  0
 10 13  2  0  0  0  0
 11 14  2  0  0  0  0
  2 15  1  0  0  0  0
  2 16  1  0  0  0  0
  6 17  1  0  0  0  0
  6 18  1  0  0  0  0
  7 19  1  0  0  0  0
  8 20  1  0  0  0  0
  8 21  1  0  0  0  0
  9 22  1  0  0  0  0
  9 23  1  0  0  0  0
 10 24  1  0  0  0  0
 11 25  1  0  0  0  0
M  END
> <pdb_id>
3WTN

> <uniprot_id>
P58154

> <usmiles>
Clc1ncc(cc1)CN2C(=NCC2)N

$$$$
N34_B_579
          07192423343D 1   1.00000     0.00000     0
            
 63 66  0  0  0  0            999 V2000
   28.2225   43.8632   35.9346 S   0  0  0  0  0  0  0  0  0  0  0  0
   24.3406   45.3191   39.8768 S   0  0  0  0  0  0  0  0  0  0  0  0
   26.8746   43.3270   35.9238 O   0  0  0  0  0  0  0  0  0  0  0  0
   29.2636   43.2108   35.1567 O   0  0  0  0  0  0  0  0  0  0  0  0
   24.3428   46.6059   39.2061 O   0  0  0  0  0  0  0  0  0  0  0  0
   23.5298   44.2272   39.3726 O   0  0  0  0  0  0  0  0  0  0  0  0
   26.3600   43.9996   44.7865 O   0  0  0  0  0  0  0  0  0  0  0  0
   22.1731   45.8691   43.3056 O   0  0  0  0  0  0  0  0  0  0  0  0
   28.8482   44.0783   37.5025 N   0  0  0  0  0  0  0  0  0  0  0  0
   24.1154   45.5536   41.5358 N   0  0  0  0  0  0  0  0  0  0  0  0
   25.8359   44.0588   42.2531 N   0  0  0  0  0  0  0  0  0  0  0  0
   24.8436   44.8516   46.3137 N   0  0  0  0  0  0  0  0  0  0  0  0
   23.7460   45.6804   46.6106 N   0  0  0  0  0  0  0  0  0  0  0  0
   28.1306   45.5308   35.3252 C   0  0  0  0  0  0  0  0  0  0  0  0
   26.7178   41.5288   48.5537 C   0  0  0  0  0  0  0  0  0  0  0  0
   25.1376   42.7474   50.0817 C   0  0  0  0  0  0  0  0  0  0  0  0
   24.3241   40.7321   48.8927 C   0  0  0  0  0  0  0  0  0  0  0  0
   24.0522   47.1124   46.7132 C   0  0  0  0  0  0  0  0  0  0  0  0
   25.4916   44.2002   47.4306 C   0  0  0  0  0  0  0  0  0  0  0  0
   22.6617   47.7424   46.7850 C   0  0  0  0  0  0  0  0  0  0  0  0
   28.5319   43.5647   39.8099 C   0  0  0  0  0  0  0  0  0  0  0  0
   21.7902   46.8195   45.9428 C   0  0  0  0  0  0  0  0  0  0  0  0
   27.7898   43.5646   40.9877 C   0  0  0  0  0  0  0  0  0  0  0  0
   24.7839   42.8545   47.6103 C   0  0  0  0  0  0  0  0  0  0  0  0
   26.7159   44.6737   38.6460 C   0  0  0  0  0  0  0  0  0  0  0  0
   25.2847   44.5760   45.0211 C   0  0  0  0  0  0  0  0  0  0  0  0
   24.8424   44.8306   42.5145 C   0  0  0  0  0  0  0  0  0  0  0  0
   25.9781   44.6666   39.8417 C   0  0  0  0  0  0  0  0  0  0  0  0
   28.0026   44.1083   38.6521 C   0  0  0  0  0  0  0  0  0  0  0  0
   23.1288   45.4577   44.2095 C   0  0  0  0  0  0  0  0  0  0  0  0
   26.4989   44.1099   41.0162 C   0  0  0  0  0  0  0  0  0  0  0  0
   22.6470   45.5666   45.6406 C   0  0  1  0  0  0  0  0  0  0  0  0
   24.3634   44.9866   43.8992 C   0  0  0  0  0  0  0  0  0  0  0  0
   25.2527   41.9536   48.7696 C   0  0  0  0  0  0  0  0  0  0  0  0
   22.3691   45.8456   42.3253 H   0  0  0  0  0  0  0  0  0  0  0  0
   29.8352   44.1867   37.6217 H   0  0  0  0  0  0  0  0  0  0  0  0
   26.1438   43.4069   42.9461 H   0  0  0  0  0  0  0  0  0  0  0  0
   29.0456   45.9342   35.3185 H   0  0  0  0  0  0  0  0  0  0  0  0
   27.7614   45.5262   34.3959 H   0  0  0  0  0  0  0  0  0  0  0  0
   27.5330   46.0701   35.9186 H   0  0  0  0  0  0  0  0  0  0  0  0
   26.7929   41.0127   47.7005 H   0  0  0  0  0  0  0  0  0  0  0  0
   27.2968   42.3426   48.5031 H   0  0  0  0  0  0  0  0  0  0  0  0
   27.0146   40.9555   49.3174 H   0  0  0  0  0  0  0  0  0  0  0  0
   24.1867   43.0232   50.2221 H   0  0  0  0  0  0  0  0  0  0  0  0
   25.4345   42.1740   50.8453 H   0  0  0  0  0  0  0  0  0  0  0  0
   25.7167   43.5610   50.0310 H   0  0  0  0  0  0  0  0  0  0  0  0
   23.3833   41.0412   49.0317 H   0  0  0  0  0  0  0  0  0  0  0  0
   24.3760   40.1881   48.0552 H   0  0  0  0  0  0  0  0  0  0  0  0
   24.6098   40.1733   49.6713 H   0  0  0  0  0  0  0  0  0  0  0  0
   24.5536   47.4334   45.9098 H   0  0  0  0  0  0  0  0  0  0  0  0
   24.5819   47.3107   47.5379 H   0  0  0  0  0  0  0  0  0  0  0  0
   25.3970   44.7546   48.2574 H   0  0  0  0  0  0  0  0  0  0  0  0
   26.4616   44.0581   47.2336 H   0  0  0  0  0  0  0  0  0  0  0  0
   22.6711   48.6669   46.4039 H   0  0  0  0  0  0  0  0  0  0  0  0
   22.3351   47.7746   47.7296 H   0  0  0  0  0  0  0  0  0  0  0  0
   29.4510   43.1707   39.8003 H   0  0  0  0  0  0  0  0  0  0  0  0
   21.5282   47.2731   45.0910 H   0  0  0  0  0  0  0  0  0  0  0  0
   20.9678   46.5621   46.4501 H   0  0  0  0  0  0  0  0  0  0  0  0
   28.1809   43.1722   41.8202 H   0  0  0  0  0  0  0  0  0  0  0  0
   24.9029   42.3379   46.7624 H   0  0  0  0  0  0  0  0  0  0  0  0
   23.8122   43.0436   47.7519 H   0  0  0  0  0  0  0  0  0  0  0  0
   26.3349   45.0712   37.8112 H   0  0  0  0  0  0  0  0  0  0  0  0
   22.1102   44.7519   45.8599 H   0  0  0  0  0  0  0  0  0  0  0  0
  1  3  2  0  0  0  0
  1  4  2  0  0  0  0
  1  9  1  0  0  0  0
  1 14  1  0  0  0  0
  2  5  2  0  0  0  0
  2  6  2  0  0  0  0
  2 10  1  0  0  0  0
  2 28  1  0  0  0  0
  7 26  2  0  0  0  0
  8 30  1  0  0  0  0
  9 29  1  0  0  0  0
 10 27  2  0  0  0  0
 11 27  1  0  0  0  0
 11 31  1  0  0  0  0
 12 13  1  0  0  0  0
 12 19  1  0  0  0  0
 12 26  1  0  0  0  0
 13 18  1  0  0  0  0
 13 32  1  0  0  0  0
 15 34  1  0  0  0  0
 16 34  1  0  0  0  0
 17 34  1  0  0  0  0
 18 20  1  0  0  0  0
 19 24  1  0  0  0  0
 20 22  1  0  0  0  0
 21 23  1  0  0  0  0
 21 29  2  0  0  0  0
 22 32  1  0  0  0  0
 23 31  2  0  0  0  0
 24 34  1  0  0  0  0
 25 28  2  0  0  0  0
 25 29  1  0  0  0  0
 26 33  1  0  0  0  0
 27 33  1  0  0  0  0
 28 31  1  0  0  0  0
 30 32  1  0  0  0  0
 30 33  2  0  0  0  0
  8 35  1  0  0  0  0
  9 36  1  0  0  0  0
 11 37  1  0  0  0  0
 14 38  1  0  0  0  0
 14 39  1  0  0  0  0
 14 40  1  0  0  0  0
 15 41  1  0  0  0  0
 15 42  1  0  0  0  0
 15 43  1  0  0  0  0
 16 44  1  0  0  0  0
 16 45  1  0  0  0  0
 16 46  1  0  0  0  0
 17 47  1  0  0  0  0
 17 48  1  0  0  0  0
 17 49  1  0  0  0  0
 18 50  1  0  0  0  0
 18 51  1  0  0  0  0
 19 52  1  0  0  0  0
 19 53  1  0  0  0  0
 20 54  1  0  0  0  0
 20 55  1  0  0  0  0
 21 56  1  0  0  0  0
 22 57  1  0  0  0  0
 22 58  1  0  0  0  0
 23 59  1  0  0  0  0
 24 60  1  0  0  0  0
 24 61  1  0  0  0  0
 25 62  1  0  0  0  0
 32 63  1  0  0  0  0
M  END
> <pdb_id>
3CVK

> <uniprot_id>
P26663

> <usmiles>
S1(=O)(=O)N=C(Nc2c1cc(NS(=O)(=O)C)cc2)C=3C(=O)N(N4[C@H](C3O)CCC4)CCC(C)(C)C

$$$$
N35_A_579
          07192423343D 1   1.00000     0.00000     0
            
 63 66  0  0  0  0            999 V2000
   28.1741   43.7201   35.6185 S   0  0  0  0  0  0  0  0  0  0  0  0
   24.4995   44.9483   39.7263 S   0  0  0  0  0  0  0  0  0  0  0  0
   26.8230   43.2502   35.7743 O   0  0  0  0  0  0  0  0  0  0  0  0
   29.0663   43.0274   34.7042 O   0  0  0  0  0  0  0  0  0  0  0  0
   24.5140   46.2317   39.0744 O   0  0  0  0  0  0  0  0  0  0  0  0
   23.6056   43.8904   39.2978 O   0  0  0  0  0  0  0  0  0  0  0  0
   26.5966   43.4358   44.4409 O   0  0  0  0  0  0  0  0  0  0  0  0
   22.5936   45.6162   43.3064 O   0  0  0  0  0  0  0  0  0  0  0  0
   28.9369   43.8967   37.1380 N   0  0  0  0  0  0  0  0  0  0  0  0
   24.3002   45.2060   41.3908 N   0  0  0  0  0  0  0  0  0  0  0  0
   24.5289   45.5602   46.4096 N   0  0  0  0  0  0  0  0  0  0  0  0
   26.0836   43.6929   41.9975 N   0  0  0  0  0  0  0  0  0  0  0  0
   25.5200   44.6934   46.0547 N   0  0  0  0  0  0  0  0  0  0  0  0
   22.6777   46.8216   45.9797 N   0  0  0  0  0  0  0  0  0  0  0  0
   28.1178   45.3944   35.0130 C   0  0  0  0  0  0  0  0  0  0  0  0
   26.1931   41.0560   46.5425 C   0  0  0  0  0  0  0  0  0  0  0  0
   24.3537   41.2030   48.2452 C   0  0  0  0  0  0  0  0  0  0  0  0
   26.4754   44.2895   47.0679 C   0  0  0  0  0  0  0  0  0  0  0  0
   22.7502   47.4657   47.2886 C   0  0  0  0  0  0  0  0  0  0  0  0
   21.7890   47.5937   45.1163 C   0  0  0  0  0  0  0  0  0  0  0  0
   21.6964   48.5666   47.2544 C   0  0  0  0  0  0  0  0  0  0  0  0
   21.7199   48.9576   45.7894 C   0  0  0  0  0  0  0  0  0  0  0  0
   28.7332   43.3142   39.4692 C   0  0  0  0  0  0  0  0  0  0  0  0
   25.9061   43.1747   47.9483 C   0  0  0  0  0  0  0  0  0  0  0  0
   28.0345   43.2705   40.6700 C   0  0  0  0  0  0  0  0  0  0  0  0
   26.8445   44.4030   38.3930 C   0  0  0  0  0  0  0  0  0  0  0  0
   25.7052   44.2190   44.7714 C   0  0  0  0  0  0  0  0  0  0  0  0
   25.1272   44.5173   42.3232 C   0  0  0  0  0  0  0  0  0  0  0  0
   26.1437   44.3325   39.6148 C   0  0  0  0  0  0  0  0  0  0  0  0
   23.6431   45.9636   45.5309 C   0  0  0  0  0  0  0  0  0  0  0  0
   28.1518   43.8756   38.3364 C   0  0  0  0  0  0  0  0  0  0  0  0
   23.6979   45.4572   44.1142 C   0  0  0  0  0  0  0  0  0  0  0  0
   26.7229   43.7760   40.7590 C   0  0  0  0  0  0  0  0  0  0  0  0
   25.2110   41.9937   47.2508 C   0  0  0  0  0  0  0  0  0  0  0  0
   24.8012   44.7716   43.7366 C   0  0  0  0  0  0  0  0  0  0  0  0
   22.6127   45.2858   42.3627 H   0  0  0  0  0  0  0  0  0  0  0  0
   29.9286   44.0143   37.1904 H   0  0  0  0  0  0  0  0  0  0  0  0
   26.3648   42.9871   42.6477 H   0  0  0  0  0  0  0  0  0  0  0  0
   29.0495   45.7389   34.8982 H   0  0  0  0  0  0  0  0  0  0  0  0
   27.6440   45.4147   34.1325 H   0  0  0  0  0  0  0  0  0  0  0  0
   27.6281   45.9696   35.6683 H   0  0  0  0  0  0  0  0  0  0  0  0
   26.7476   41.5805   45.8963 H   0  0  0  0  0  0  0  0  0  0  0  0
   26.7892   40.6245   47.2196 H   0  0  0  0  0  0  0  0  0  0  0  0
   25.6838   40.3509   46.0491 H   0  0  0  0  0  0  0  0  0  0  0  0
   23.7161   41.8232   48.7023 H   0  0  0  0  0  0  0  0  0  0  0  0
   23.8401   40.4983   47.7558 H   0  0  0  0  0  0  0  0  0  0  0  0
   24.9454   40.7718   48.9263 H   0  0  0  0  0  0  0  0  0  0  0  0
   26.6962   45.0783   47.6417 H   0  0  0  0  0  0  0  0  0  0  0  0
   27.3067   43.9600   46.6203 H   0  0  0  0  0  0  0  0  0  0  0  0
   23.6590   47.8553   47.4373 H   0  0  0  0  0  0  0  0  0  0  0  0
   22.5465   46.8083   48.0141 H   0  0  0  0  0  0  0  0  0  0  0  0
   20.8830   47.1729   45.0708 H   0  0  0  0  0  0  0  0  0  0  0  0
   22.1675   47.6708   44.1939 H   0  0  0  0  0  0  0  0  0  0  0  0
   21.9506   49.3346   47.8421 H   0  0  0  0  0  0  0  0  0  0  0  0
   20.7981   48.2217   47.5266 H   0  0  0  0  0  0  0  0  0  0  0  0
   20.8906   49.4523   45.5294 H   0  0  0  0  0  0  0  0  0  0  0  0
   22.5219   49.5140   45.5720 H   0  0  0  0  0  0  0  0  0  0  0  0
   29.6592   42.9401   39.4191 H   0  0  0  0  0  0  0  0  0  0  0  0
   25.2379   43.5927   48.5637 H   0  0  0  0  0  0  0  0  0  0  0  0
   26.6639   42.8010   48.4832 H   0  0  0  0  0  0  0  0  0  0  0  0
   28.4681   42.8757   41.4800 H   0  0  0  0  0  0  0  0  0  0  0  0
   26.4245   44.8172   37.5855 H   0  0  0  0  0  0  0  0  0  0  0  0
   24.5984   42.3707   46.5562 H   0  0  0  0  0  0  0  0  0  0  0  0
  1  3  2  0  0  0  0
  1  4  2  0  0  0  0
  1  9  1  0  0  0  0
  1 15  1  0  0  0  0
  2  5  2  0  0  0  0
  2  6  2  0  0  0  0
  2 10  1  0  0  0  0
  2 29  1  0  0  0  0
  7 27  2  0  0  0  0
  8 32  1  0  0  0  0
  9 31  1  0  0  0  0
 10 28  2  0  0  0  0
 11 13  1  0  0  0  0
 11 30  2  0  0  0  0
 12 28  1  0  0  0  0
 12 33  1  0  0  0  0
 13 18  1  0  0  0  0
 13 27  1  0  0  0  0
 14 19  1  0  0  0  0
 14 20  1  0  0  0  0
 14 30  1  0  0  0  0
 16 34  1  0  0  0  0
 17 34  1  0  0  0  0
 18 24  1  0  0  0  0
 19 21  1  0  0  0  0
 20 22  1  0  0  0  0
 21 22  1  0  0  0  0
 23 25  1  0  0  0  0
 23 31  2  0  0  0  0
 24 34  1  0  0  0  0
 25 33  2  0  0  0  0
 26 29  2  0  0  0  0
 26 31  1  0  0  0  0
 27 35  1  0  0  0  0
 28 35  1  0  0  0  0
 29 33  1  0  0  0  0
 30 32  1  0  0  0  0
 32 35  2  0  0  0  0
  8 36  1  0  0  0  0
  9 37  1  0  0  0  0
 12 38  1  0  0  0  0
 15 39  1  0  0  0  0
 15 40  1  0  0  0  0
 15 41  1  0  0  0  0
 16 42  1  0  0  0  0
 16 43  1  0  0  0  0
 16 44  1  0  0  0  0
 17 45  1  0  0  0  0
 17 46  1  0  0  0  0
 17 47  1  0  0  0  0
 18 48  1  0  0  0  0
 18 49  1  0  0  0  0
 19 50  1  0  0  0  0
 19 51  1  0  0  0  0
 20 52  1  0  0  0  0
 20 53  1  0  0  0  0
 21 54  1  0  0  0  0
 21 55  1  0  0  0  0
 22 56  1  0  0  0  0
 22 57  1  0  0  0  0
 23 58  1  0  0  0  0
 24 59  1  0  0  0  0
 24 60  1  0  0  0  0
 25 61  1  0  0  0  0
 26 62  1  0  0  0  0
 34 63  1  0  0  0  0
M  END
> <pdb_id>
3E51

> <uniprot_id>
P26663

> <usmiles>
S1(=O)(=O)N=C(Nc2c1cc(NS(=O)(=O)C)cc2)C=3C(=O)N(N=C(N4CCCC4)C3O)CCC(C)C

$$$$
N35_B_579
          07192423343D 1   1.00000     0.00000     0
            
 63 66  0  0  0  0            999 V2000
   28.2205   43.7337   35.6192 S   0  0  0  0  0  0  0  0  0  0  0  0
   24.4703   44.9880   39.7038 S   0  0  0  0  0  0  0  0  0  0  0  0
   26.8636   43.2212   35.7027 O   0  0  0  0  0  0  0  0  0  0  0  0
   29.1535   43.0121   34.7779 O   0  0  0  0  0  0  0  0  0  0  0  0
   24.4239   46.3141   39.1242 O   0  0  0  0  0  0  0  0  0  0  0  0
   23.6352   43.9047   39.2190 O   0  0  0  0  0  0  0  0  0  0  0  0
   26.5875   43.5221   44.3427 O   0  0  0  0  0  0  0  0  0  0  0  0
   22.5499   45.6457   43.2514 O   0  0  0  0  0  0  0  0  0  0  0  0
   28.9369   43.9524   37.1680 N   0  0  0  0  0  0  0  0  0  0  0  0
   24.2325   45.1866   41.3577 N   0  0  0  0  0  0  0  0  0  0  0  0
   24.5116   45.5610   46.3499 N   0  0  0  0  0  0  0  0  0  0  0  0
   26.0061   43.6728   41.9799 N   0  0  0  0  0  0  0  0  0  0  0  0
   25.5088   44.7112   45.9828 N   0  0  0  0  0  0  0  0  0  0  0  0
   22.6558   46.8146   46.0059 N   0  0  0  0  0  0  0  0  0  0  0  0
   28.1289   45.4081   35.0255 C   0  0  0  0  0  0  0  0  0  0  0  0
   25.8786   41.0959   46.1856 C   0  0  0  0  0  0  0  0  0  0  0  0
   24.3299   41.3208   48.1621 C   0  0  0  0  0  0  0  0  0  0  0  0
   26.4901   44.3205   46.9839 C   0  0  0  0  0  0  0  0  0  0  0  0
   22.8809   47.5592   47.2458 C   0  0  0  0  0  0  0  0  0  0  0  0
   21.5268   47.4033   45.2828 C   0  0  0  0  0  0  0  0  0  0  0  0
   22.1942   48.9003   47.0126 C   0  0  0  0  0  0  0  0  0  0  0  0
   20.9796   48.4972   46.2005 C   0  0  0  0  0  0  0  0  0  0  0  0
   28.6892   43.3157   39.4910 C   0  0  0  0  0  0  0  0  0  0  0  0
   26.1023   43.0737   47.7797 C   0  0  0  0  0  0  0  0  0  0  0  0
   27.9838   43.2545   40.6887 C   0  0  0  0  0  0  0  0  0  0  0  0
   26.8376   44.4413   38.4049 C   0  0  0  0  0  0  0  0  0  0  0  0
   25.6854   44.2611   44.6974 C   0  0  0  0  0  0  0  0  0  0  0  0
   25.0575   44.5063   42.2864 C   0  0  0  0  0  0  0  0  0  0  0  0
   26.1217   44.3668   39.6087 C   0  0  0  0  0  0  0  0  0  0  0  0
   23.6043   45.9673   45.4930 C   0  0  0  0  0  0  0  0  0  0  0  0
   28.1351   43.9102   38.3569 C   0  0  0  0  0  0  0  0  0  0  0  0
   23.6446   45.4823   44.0700 C   0  0  0  0  0  0  0  0  0  0  0  0
   26.6745   43.7738   40.7531 C   0  0  0  0  0  0  0  0  0  0  0  0
   25.1348   42.0776   47.1042 C   0  0  0  0  0  0  0  0  0  0  0  0
   24.7446   44.7929   43.6856 C   0  0  0  0  0  0  0  0  0  0  0  0
   22.5799   45.3221   42.3057 H   0  0  0  0  0  0  0  0  0  0  0  0
   29.9217   44.1104   37.2402 H   0  0  0  0  0  0  0  0  0  0  0  0
   23.5046   45.7882   41.6868 H   0  0  0  0  0  0  0  0  0  0  0  0
   29.0511   45.7886   34.9575 H   0  0  0  0  0  0  0  0  0  0  0  0
   27.6965   45.4190   34.1239 H   0  0  0  0  0  0  0  0  0  0  0  0
   27.5874   45.9581   35.6615 H   0  0  0  0  0  0  0  0  0  0  0  0
   26.3983   41.6080   45.5017 H   0  0  0  0  0  0  0  0  0  0  0  0
   26.5044   40.5381   46.7309 H   0  0  0  0  0  0  0  0  0  0  0  0
   25.2173   40.5028   45.7264 H   0  0  0  0  0  0  0  0  0  0  0  0
   23.8534   41.9749   48.7495 H   0  0  0  0  0  0  0  0  0  0  0  0
   23.6615   40.7286   47.7119 H   0  0  0  0  0  0  0  0  0  0  0  0
   24.9485   40.7640   48.7164 H   0  0  0  0  0  0  0  0  0  0  0  0
   26.6053   45.0796   47.6246 H   0  0  0  0  0  0  0  0  0  0  0  0
   27.3578   44.1408   46.5205 H   0  0  0  0  0  0  0  0  0  0  0  0
   23.8592   47.6863   47.4096 H   0  0  0  0  0  0  0  0  0  0  0  0
   22.4718   47.0827   48.0240 H   0  0  0  0  0  0  0  0  0  0  0  0
   20.8260   46.7120   45.1065 H   0  0  0  0  0  0  0  0  0  0  0  0
   21.8335   47.7956   44.4156 H   0  0  0  0  0  0  0  0  0  0  0  0
   22.7827   49.5253   46.4998 H   0  0  0  0  0  0  0  0  0  0  0  0
   21.9277   49.3270   47.8769 H   0  0  0  0  0  0  0  0  0  0  0  0
   20.2546   48.1419   46.7905 H   0  0  0  0  0  0  0  0  0  0  0  0
   20.6295   49.2693   45.6702 H   0  0  0  0  0  0  0  0  0  0  0  0
   29.6092   42.9269   39.4423 H   0  0  0  0  0  0  0  0  0  0  0  0
   25.6733   43.3805   48.6293 H   0  0  0  0  0  0  0  0  0  0  0  0
   26.9446   42.5781   47.9917 H   0  0  0  0  0  0  0  0  0  0  0  0
   28.4028   42.8447   41.4989 H   0  0  0  0  0  0  0  0  0  0  0  0
   26.4307   44.8652   37.5958 H   0  0  0  0  0  0  0  0  0  0  0  0
   24.4935   42.6010   46.5432 H   0  0  0  0  0  0  0  0  0  0  0  0
  1  3  2  0  0  0  0
  1  4  2  0  0  0  0
  1  9  1  0  0  0  0
  1 15  1  0  0  0  0
  2  5  2  0  0  0  0
  2  6  2  0  0  0  0
  2 10  1  0  0  0  0
  2 29  1  0  0  0  0
  7 27  2  0  0  0  0
  8 32  1  0  0  0  0
  9 31  1  0  0  0  0
 10 28  1  0  0  0  0
 11 13  1  0  0  0  0
 11 30  2  0  0  0  0
 12 28  2  0  0  0  0
 12 33  1  0  0  0  0
 13 18  1  0  0  0  0
 13 27  1  0  0  0  0
 14 19  1  0  0  0  0
 14 20  1  0  0  0  0
 14 30  1  0  0  0  0
 16 34  1  0  0  0  0
 17 34  1  0  0  0  0
 18 24  1  0  0  0  0
 19 21  1  0  0  0  0
 20 22  1  0  0  0  0
 21 22  1  0  0  0  0
 23 25  1  0  0  0  0
 23 31  2  0  0  0  0
 24 34  1  0  0  0  0
 25 33  2  0  0  0  0
 26 29  2  0  0  0  0
 26 31  1  0  0  0  0
 27 35  1  0  0  0  0
 28 35  1  0  0  0  0
 29 33  1  0  0  0  0
 30 32  1  0  0  0  0
 32 35  2  0  0  0  0
  8 36  1  0  0  0  0
  9 37  1  0  0  0  0
 10 38  1  0  0  0  0
 15 39  1  0  0  0  0
 15 40  1  0  0  0  0
 15 41  1  0  0  0  0
 16 42  1  0  0  0  0
 16 43  1  0  0  0  0
 16 44  1  0  0  0  0
 17 45  1  0  0  0  0
 17 46  1  0  0  0  0
 17 47  1  0  0  0  0
 18 48  1  0  0  0  0
 18 49  1  0  0  0  0
 19 50  1  0  0  0  0
 19 51  1  0  0  0  0
 20 52  1  0  0  0  0
 20 53  1  0  0  0  0
 21 54  1  0  0  0  0
 21 55  1  0  0  0  0
 22 56  1  0  0  0  0
 22 57  1  0  0  0  0
 23 58  1  0  0  0  0
 24 59  1  0  0  0  0
 24 60  1  0  0  0  0
 25 61  1  0  0  0  0
 26 62  1  0  0  0  0
 34 63  1  0  0  0  0
M  END
> <pdb_id>
3E51

> <uniprot_id>
P26663

> <usmiles>
S1(=O)(=O)NC(=Nc2c1cc(NS(=O)(=O)C)cc2)C=3C(=O)N(N=C(N4CCCC4)C3O)CCC(C)C

$$$$
N3F_A_361
          07202400263D 1   1.00000     0.00000     0
            
 38 40  0  0  0  0            999 V2000
   -2.0391   -3.7064   22.9996 O   0  0  0  0  0  0  0  0  0  0  0  0
   -2.3367    2.6116   16.9856 N   0  0  0  0  0  0  0  0  0  0  0  0
   -3.1239    1.3603   19.2589 N   0  0  0  0  0  0  0  0  0  0  0  0
   -0.5552   -1.3376   27.1560 C   0  0  0  0  0  0  0  0  0  0  0  0
    0.2441   -1.0369   26.0482 C   0  0  0  0  0  0  0  0  0  0  0  0
   -1.7641   -2.0252   26.9915 C   0  0  0  0  0  0  0  0  0  0  0  0
   -5.3241    0.8846   15.7828 C   0  0  0  0  0  0  0  0  0  0  0  0
   -5.7512    0.2356   16.9327 C   0  0  0  0  0  0  0  0  0  0  0  0
   -4.1713    1.6854   15.8125 C   0  0  0  0  0  0  0  0  0  0  0  0
   -5.0157    0.3811   18.1080 C   0  0  0  0  0  0  0  0  0  0  0  0
   -0.1585   -1.4169   24.7736 C   0  0  0  0  0  0  0  0  0  0  0  0
   -2.1720   -2.4001   25.7081 C   0  0  0  0  0  0  0  0  0  0  0  0
   -2.7784   -0.9480   19.8467 C   0  0  0  0  0  0  0  0  0  0  0  0
   -2.5142    0.8189   21.4753 C   0  0  0  0  0  0  0  0  0  0  0  0
   -2.4635   -1.8814   20.8383 C   0  0  0  0  0  0  0  0  0  0  0  0
   -2.1924   -0.1067   22.4586 C   0  0  0  0  0  0  0  0  0  0  0  0
   -3.4400    1.8359   16.9790 C   0  0  0  0  0  0  0  0  0  0  0  0
   -1.8322   -2.5193   23.2208 C   0  0  0  0  0  0  0  0  0  0  0  0
   -2.8035    0.4137   20.1652 C   0  0  0  0  0  0  0  0  0  0  0  0
   -3.8471    1.1715   18.1371 C   0  0  0  0  0  0  0  0  0  0  0  0
   -1.3733   -2.0954   24.6063 C   0  0  0  0  0  0  0  0  0  0  0  0
   -2.1604   -1.4675   22.1368 C   0  0  0  0  0  0  0  0  0  0  0  0
   -1.8076    2.7213   17.8271 H   0  0  0  0  0  0  0  0  0  0  0  0
   -2.0476    3.0770   16.1490 H   0  0  0  0  0  0  0  0  0  0  0  0
   -2.7943    2.2877   19.4357 H   0  0  0  0  0  0  0  0  0  0  0  0
   -0.2617   -1.0600   28.0708 H   0  0  0  0  0  0  0  0  0  0  0  0
    1.1071   -0.5474   26.1737 H   0  0  0  0  0  0  0  0  0  0  0  0
   -2.3307   -2.2460   27.7853 H   0  0  0  0  0  0  0  0  0  0  0  0
   -5.8385    0.7818   14.9314 H   0  0  0  0  0  0  0  0  0  0  0  0
   -6.5762   -0.3293   16.9185 H   0  0  0  0  0  0  0  0  0  0  0  0
   -3.8741    2.1533   14.9802 H   0  0  0  0  0  0  0  0  0  0  0  0
   -5.3202   -0.0805   18.9412 H   0  0  0  0  0  0  0  0  0  0  0  0
    0.4147   -1.2077   23.9813 H   0  0  0  0  0  0  0  0  0  0  0  0
   -3.0362   -2.8867   25.5801 H   0  0  0  0  0  0  0  0  0  0  0  0
   -2.9843   -1.2515   18.9164 H   0  0  0  0  0  0  0  0  0  0  0  0
   -2.5399    1.7917   21.7057 H   0  0  0  0  0  0  0  0  0  0  0  0
   -2.4552   -2.8562   20.6152 H   0  0  0  0  0  0  0  0  0  0  0  0
   -1.9854    0.1968   23.3887 H   0  0  0  0  0  0  0  0  0  0  0  0
  1 18  2  0  0  0  0
  2 17  1  0  0  0  0
  3 19  1  0  0  0  0
  3 20  1  0  0  0  0
  4  5  2  0  0  0  0
  4  6  1  0  0  0  0
  5 11  1  0  0  0  0
  6 12  2  0  0  0  0
  7  8  2  0  0  0  0
  7  9  1  0  0  0  0
  8 10  1  0  0  0  0
  9 17  2  0  0  0  0
 10 20  2  0  0  0  0
 11 21  2  0  0  0  0
 12 21  1  0  0  0  0
 13 15  1  0  0  0  0
 13 19  2  0  0  0  0
 14 16  2  0  0  0  0
 14 19  1  0  0  0  0
 15 22  2  0  0  0  0
 16 22  1  0  0  0  0
 17 20  1  0  0  0  0
 18 21  1  0  0  0  0
 18 22  1  0  0  0  0
  2 23  1  0  0  0  0
  2 24  1  0  0  0  0
  3 25  1  0  0  0  0
  4 26  1  0  0  0  0
  5 27  1  0  0  0  0
  6 28  1  0  0  0  0
  7 29  1  0  0  0  0
  8 30  1  0  0  0  0
  9 31  1  0  0  0  0
 10 32  1  0  0  0  0
 11 33  1  0  0  0  0
 12 34  1  0  0  0  0
 13 35  1  0  0  0  0
 14 36  1  0  0  0  0
 15 37  1  0  0  0  0
 16 38  1  0  0  0  0
M  END
> <pdb_id>
3QUD

> <uniprot_id>
Q16539

> <usmiles>
O=C(c1ccc(Nc2c(N)cccc2)cc1)c3ccccc3

$$$$
N3M_A_303
          07202407013D 1   1.00000     0.00000     0
            
 21 21  0  0  0  0            999 V2000
    5.1458   26.6531   17.3196 O   0  0  0  0  0  0  0  0  0  0  0  0
    8.6542   21.5835   18.4793 N   0  0  0  0  0  0  0  0  0  0  0  0
    5.3614   24.9434   18.8154 N   0  0  0  0  0  0  0  0  0  0  0  0
    4.2723   26.9798   19.5358 C   0  0  0  0  0  0  0  0  0  0  0  0
    6.4704   22.9670   15.9293 C   0  0  0  0  0  0  0  0  0  0  0  0
    7.4494   22.1796   16.5385 C   0  0  0  0  0  0  0  0  0  0  0  0
    5.7576   23.9006   16.6848 C   0  0  0  0  0  0  0  0  0  0  0  0
    7.0048   23.2654   18.6519 C   0  0  0  0  0  0  0  0  0  0  0  0
    4.9771   26.1689   18.4396 C   0  0  0  0  0  0  0  0  0  0  0  0
    7.7186   22.3328   17.8984 C   0  0  0  0  0  0  0  0  0  0  0  0
    6.0228   24.0607   18.0508 C   0  0  0  0  0  0  0  0  0  0  0  0
    8.8480   21.6925   19.4543 H   0  0  0  0  0  0  0  0  0  0  0  0
    9.1628   20.9119   17.9405 H   0  0  0  0  0  0  0  0  0  0  0  0
    5.1359   24.6605   19.7476 H   0  0  0  0  0  0  0  0  0  0  0  0
    4.2228   26.4355   20.3732 H   0  0  0  0  0  0  0  0  0  0  0  0
    4.7873   27.8184   19.7132 H   0  0  0  0  0  0  0  0  0  0  0  0
    3.3478   27.2137   19.2350 H   0  0  0  0  0  0  0  0  0  0  0  0
    6.2798   22.8626   14.9532 H   0  0  0  0  0  0  0  0  0  0  0  0
    7.9569   21.5066   16.0005 H   0  0  0  0  0  0  0  0  0  0  0  0
    5.0527   24.4589   16.2473 H   0  0  0  0  0  0  0  0  0  0  0  0
    7.1963   23.3661   19.6282 H   0  0  0  0  0  0  0  0  0  0  0  0
  1  9  2  0  0  0  0
  2 10  1  0  0  0  0
  3  9  1  0  0  0  0
  3 11  1  0  0  0  0
  4  9  1  0  0  0  0
  5  6  2  0  0  0  0
  5  7  1  0  0  0  0
  6 10  1  0  0  0  0
  7 11  2  0  0  0  0
  8 10  2  0  0  0  0
  8 11  1  0  0  0  0
  2 12  1  0  0  0  0
  2 13  1  0  0  0  0
  3 14  1  0  0  0  0
  4 15  1  0  0  0  0
  4 16  1  0  0  0  0
  4 17  1  0  0  0  0
  5 18  1  0  0  0  0
  6 19  1  0  0  0  0
  7 20  1  0  0  0  0
  8 21  1  0  0  0  0
M  END
> <pdb_id>
3R57

> <uniprot_id>
P30405

> <usmiles>
O=C(Nc1cc(N)ccc1)C

$$$$
N47_B_1506
          07202416363D 1   1.00000     0.00000     0
            
 56 58  0  0  0  0            999 V2000
   38.8820   12.5230  -13.6930 O   0  0  0  0  0  0  0  0  0  0  0  0
   36.1030   11.5560  -13.5900 O   0  0  0  0  0  0  0  0  0  0  0  0
   36.7450   19.4700   -9.9140 N   0  0  0  0  0  0  0  0  0  0  0  0
   35.6180   17.7380  -10.9110 N   0  0  0  0  0  0  0  0  0  0  0  0
   33.2900   17.5210  -10.9750 N   0  0  0  0  0  0  0  0  0  0  0  0
   34.6330   15.8920  -12.0120 N   0  0  0  0  0  0  0  0  0  0  0  0
   35.6470    8.2620  -12.2910 N   0  0  0  0  0  0  0  0  0  0  0  0
   40.2380   12.9530  -13.5300 C   0  0  0  0  0  0  0  0  0  0  0  0
   37.9430   18.7830  -10.3810 C   0  0  0  0  0  0  0  0  0  0  0  0
   31.7260   19.0970   -9.9390 C   0  0  0  0  0  0  0  0  0  0  0  0
   34.7560   11.0200  -13.4760 C   0  0  0  0  0  0  0  0  0  0  0  0
   35.8210    8.6440  -13.6990 C   0  0  0  0  0  0  0  0  0  0  0  0
   34.3860    7.5280  -12.0290 C   0  0  0  0  0  0  0  0  0  0  0  0
   36.7590    7.4050  -11.7860 C   0  0  0  0  0  0  0  0  0  0  0  0
   34.7630    9.6580  -14.1940 C   0  0  0  0  0  0  0  0  0  0  0  0
   34.6380    6.8370  -10.6710 C   0  0  0  0  0  0  0  0  0  0  0  0
   36.1020    6.3870  -10.8160 C   0  0  0  0  0  0  0  0  0  0  0  0
   38.0760   14.6790  -12.9020 C   0  0  0  0  0  0  0  0  0  0  0  0
   37.0120   15.5300  -12.4960 C   0  0  0  0  0  0  0  0  0  0  0  0
   34.2750   19.4420   -9.8480 C   0  0  0  0  0  0  0  0  0  0  0  0
   35.4240   13.7030  -12.8260 C   0  0  0  0  0  0  0  0  0  0  0  0
   34.5160   17.0870  -11.2630 C   0  0  0  0  0  0  0  0  0  0  0  0
   35.5210   18.8960  -10.2290 C   0  0  0  0  0  0  0  0  0  0  0  0
   33.1530   18.6780  -10.2590 C   0  0  0  0  0  0  0  0  0  0  0  0
   37.8360   13.3320  -13.2880 C   0  0  0  0  0  0  0  0  0  0  0  0
   36.4720   12.8370  -13.2400 C   0  0  0  0  0  0  0  0  0  0  0  0
   35.6740   15.0540  -12.4430 C   0  0  0  0  0  0  0  0  0  0  0  0
   36.8026   20.3190   -9.3888 H   0  0  0  0  0  0  0  0  0  0  0  0
   33.7404   15.5565  -12.3133 H   0  0  0  0  0  0  0  0  0  0  0  0
   40.8556   12.2465  -13.8756 H   0  0  0  0  0  0  0  0  0  0  0  0
   40.3825   13.8007  -14.0403 H   0  0  0  0  0  0  0  0  0  0  0  0
   40.4230   13.1121  -12.5602 H   0  0  0  0  0  0  0  0  0  0  0  0
   38.7535   19.2925  -10.0920 H   0  0  0  0  0  0  0  0  0  0  0  0
   37.9721   17.8621   -9.9923 H   0  0  0  0  0  0  0  0  0  0  0  0
   37.9252   18.7231  -11.3790 H   0  0  0  0  0  0  0  0  0  0  0  0
   31.7381   19.9495   -9.4164 H   0  0  0  0  0  0  0  0  0  0  0  0
   31.2203   19.2352  -10.7905 H   0  0  0  0  0  0  0  0  0  0  0  0
   31.2816   18.3817   -9.3997 H   0  0  0  0  0  0  0  0  0  0  0  0
   34.1010   11.6369  -13.9124 H   0  0  0  0  0  0  0  0  0  0  0  0
   34.5120   10.9015  -12.5135 H   0  0  0  0  0  0  0  0  0  0  0  0
   35.7579    7.8196  -14.2615 H   0  0  0  0  0  0  0  0  0  0  0  0
   36.7272    9.0528  -13.8072 H   0  0  0  0  0  0  0  0  0  0  0  0
   34.2114    6.8526  -12.7455 H   0  0  0  0  0  0  0  0  0  0  0  0
   33.6123    8.1587  -11.9697 H   0  0  0  0  0  0  0  0  0  0  0  0
   37.4347    7.9609  -11.3019 H   0  0  0  0  0  0  0  0  0  0  0  0
   37.2022    6.9271  -12.5444 H   0  0  0  0  0  0  0  0  0  0  0  0
   34.9279    9.8241  -15.1662 H   0  0  0  0  0  0  0  0  0  0  0  0
   33.8608    9.2434  -14.0750 H   0  0  0  0  0  0  0  0  0  0  0  0
   34.0277    6.0555  -10.5410 H   0  0  0  0  0  0  0  0  0  0  0  0
   34.5270    7.4767   -9.9105 H   0  0  0  0  0  0  0  0  0  0  0  0
   36.5618    6.4044   -9.9282 H   0  0  0  0  0  0  0  0  0  0  0  0
   36.1470    5.4634  -11.1967 H   0  0  0  0  0  0  0  0  0  0  0  0
   39.0106   15.0345  -12.9163 H   0  0  0  0  0  0  0  0  0  0  0  0
   37.2080   16.4777  -12.2440 H   0  0  0  0  0  0  0  0  0  0  0  0
   34.1912   20.2947   -9.3323 H   0  0  0  0  0  0  0  0  0  0  0  0
   34.4864   13.3560  -12.8026 H   0  0  0  0  0  0  0  0  0  0  0  0
  1  8  1  0  0  0  0
  1 25  1  0  0  0  0
  2 11  1  0  0  0  0
  2 26  1  0  0  0  0
  3  9  1  0  0  0  0
  3 23  1  0  0  0  0
  4 22  1  0  0  0  0
  4 23  2  0  0  0  0
  5 22  2  0  0  0  0
  5 24  1  0  0  0  0
  6 22  1  0  0  0  0
  6 27  1  0  0  0  0
  7 12  1  0  0  0  0
  7 13  1  0  0  0  0
  7 14  1  0  0  0  0
 10 24  1  0  0  0  0
 11 15  1  0  0  0  0
 12 15  1  0  0  0  0
 13 16  1  0  0  0  0
 14 17  1  0  0  0  0
 16 17  1  0  0  0  0
 18 19  1  0  0  0  0
 18 25  2  0  0  0  0
 19 27  2  0  0  0  0
 20 23  1  0  0  0  0
 20 24  2  0  0  0  0
 21 26  2  0  0  0  0
 21 27  1  0  0  0  0
 25 26  1  0  0  0  0
  3 28  1  0  0  0  0
  6 29  1  0  0  0  0
  8 30  1  0  0  0  0
  8 31  1  0  0  0  0
  8 32  1  0  0  0  0
  9 33  1  0  0  0  0
  9 34  1  0  0  0  0
  9 35  1  0  0  0  0
 10 36  1  0  0  0  0
 10 37  1  0  0  0  0
 10 38  1  0  0  0  0
 11 39  1  0  0  0  0
 11 40  1  0  0  0  0
 12 41  1  0  0  0  0
 12 42  1  0  0  0  0
 13 43  1  0  0  0  0
 13 44  1  0  0  0  0
 14 45  1  0  0  0  0
 14 46  1  0  0  0  0
 15 47  1  0  0  0  0
 15 48  1  0  0  0  0
 16 49  1  0  0  0  0
 16 50  1  0  0  0  0
 17 51  1  0  0  0  0
 17 52  1  0  0  0  0
 18 53  1  0  0  0  0
 19 54  1  0  0  0  0
 20 55  1  0  0  0  0
 21 56  1  0  0  0  0
M  END
> <pdb_id>
7BTV

> <uniprot_id>
Q96KQ7

> <usmiles>
O(c1c(OC)ccc(Nc2nc(NC)cc(n2)C)c1)CCCN3CCCC3

$$$$
N4N_A_401
          07202401373D 1   1.00000     0.00000     0
            
 32 34  0  0  0  0            999 V2000
   22.4045  -29.3769   17.1586 S   0  0  0  0  0  0  0  0  0  0  0  0
   21.8280  -37.2727   13.4025 O   0  0  0  0  0  0  0  0  0  0  0  0
   22.2434  -36.7555   15.5201 O   0  0  0  0  0  0  0  0  0  0  0  0
   23.6177  -27.6448   12.7577 N   0  0  0  0  0  0  0  0  0  0  0  0
   22.6250  -31.7193   15.7111 N   0  0  0  0  0  0  0  0  0  0  0  0
   22.9066  -29.5618   14.5873 N   0  0  0  0  0  0  0  0  0  0  0  0
   22.6259  -27.9193   16.2579 C   0  0  0  0  0  0  0  0  0  0  0  0
   23.8531  -26.7230   11.7931 C   0  0  0  0  0  0  0  0  0  0  0  0
   23.6100  -25.3558   11.9432 C   0  0  0  0  0  0  0  0  0  0  0  0
   23.0961  -24.9183   13.1685 C   0  0  0  0  0  0  0  0  0  0  0  0
   23.0666  -33.2935   12.3205 C   0  0  0  0  0  0  0  0  0  0  0  0
   23.0132  -32.3111   13.3144 C   0  0  0  0  0  0  0  0  0  0  0  0
   22.8400  -25.8303   14.1949 C   0  0  0  0  0  0  0  0  0  0  0  0
   22.8056  -34.6375   12.6085 C   0  0  0  0  0  0  0  0  0  0  0  0
   22.4437  -34.0217   14.8959 C   0  0  0  0  0  0  0  0  0  0  0  0
   22.6620  -30.3447   15.6859 C   0  0  0  0  0  0  0  0  0  0  0  0
   22.1649  -36.4891   14.3102 C   0  0  0  0  0  0  0  0  0  0  0  0
   22.6901  -32.6777   14.6346 C   0  0  0  0  0  0  0  0  0  0  0  0
   22.8682  -28.2161   14.9952 C   0  0  0  0  0  0  0  0  0  0  0  0
   23.1166  -27.1632   13.9232 C   0  0  0  0  0  0  0  0  0  0  0  0
   22.4841  -35.0151   13.9218 C   0  0  0  0  0  0  0  0  0  0  0  0
   21.7970  -36.9561   12.4545 H   0  0  0  0  0  0  0  0  0  0  0  0
   22.5390  -32.1194   16.6236 H   0  0  0  0  0  0  0  0  0  0  0  0
   22.5779  -26.9943   16.6349 H   0  0  0  0  0  0  0  0  0  0  0  0
   24.2235  -27.0410   10.9204 H   0  0  0  0  0  0  0  0  0  0  0  0
   23.7967  -24.7124   11.2008 H   0  0  0  0  0  0  0  0  0  0  0  0
   22.9109  -23.9460   13.3105 H   0  0  0  0  0  0  0  0  0  0  0  0
   23.2963  -33.0297   11.3837 H   0  0  0  0  0  0  0  0  0  0  0  0
   23.2031  -31.3555   13.0889 H   0  0  0  0  0  0  0  0  0  0  0  0
   22.4762  -25.5383   15.0795 H   0  0  0  0  0  0  0  0  0  0  0  0
   22.8477  -35.3248   11.8834 H   0  0  0  0  0  0  0  0  0  0  0  0
   22.2256  -34.2886   15.8346 H   0  0  0  0  0  0  0  0  0  0  0  0
  1  7  1  0  0  0  0
  1 16  1  0  0  0  0
  2 17  1  0  0  0  0
  3 17  2  0  0  0  0
  4  8  1  0  0  0  0
  4 20  2  0  0  0  0
  5 16  1  0  0  0  0
  5 18  1  0  0  0  0
  6 16  2  0  0  0  0
  6 19  1  0  0  0  0
  7 19  2  0  0  0  0
  8  9  2  0  0  0  0
  9 10  1  0  0  0  0
 10 13  2  0  0  0  0
 11 12  2  0  0  0  0
 11 14  1  0  0  0  0
 12 18  1  0  0  0  0
 13 20  1  0  0  0  0
 14 21  2  0  0  0  0
 15 18  2  0  0  0  0
 15 21  1  0  0  0  0
 17 21  1  0  0  0  0
 19 20  1  0  0  0  0
  2 22  1  0  0  0  0
  5 23  1  0  0  0  0
  7 24  1  0  0  0  0
  8 25  1  0  0  0  0
  9 26  1  0  0  0  0
 10 27  1  0  0  0  0
 11 28  1  0  0  0  0
 12 29  1  0  0  0  0
 13 30  1  0  0  0  0
 14 31  1  0  0  0  0
 15 32  1  0  0  0  0
M  END
> <pdb_id>
6TEI

> <uniprot_id>
P68400

> <usmiles>
S1C(=NC(c2ncccc2)=C1)Nc3cc(ccc3)C(=O)O

$$$$
N4Z_A_401
          07192420013D 1   1.00000     0.00000     0
            
 72 77  0  0  0  0            999 V2000
   36.2199  -10.7081    9.0552 Cl  0  0  0  0  0  0  0  0  0  0  0  0
   27.3817  -12.6095    9.7595 S   0  0  0  0  0  0  0  0  0  0  0  0
   35.4096   -9.2060    5.5168 F   0  0  0  0  0  0  0  0  0  0  0  0
   33.4858   -9.8570    4.9932 F   0  0  0  0  0  0  0  0  0  0  0  0
   26.8175  -13.1097   10.9746 O   0  0  0  0  0  0  0  0  0  0  0  0
   27.7227  -13.5288    8.7055 O   0  0  0  0  0  0  0  0  0  0  0  0
   28.5512  -13.5624   15.4356 O   0  0  0  0  0  0  0  0  0  0  0  0
   33.6681   -7.6959    5.6877 O   0  0  0  0  0  0  0  0  0  0  0  0
   33.8898   -9.5898    7.1939 O   0  0  0  0  0  0  0  0  0  0  0  0
   32.4974   -9.3694   19.4636 N   0  0  0  0  0  0  0  0  0  0  0  0
   34.7262   -8.5287   12.0676 N   0  0  0  0  0  0  0  0  0  0  0  0
   29.5461  -11.7556   14.1966 N   0  0  0  0  0  0  0  0  0  0  0  0
   29.4388  -11.6124   16.4996 N   0  0  0  0  0  0  0  0  0  0  0  0
   30.4059   -9.8858   15.2888 N   0  0  0  0  0  0  0  0  0  0  0  0
   30.5112   -9.9849   12.9555 N   0  0  0  0  0  0  0  0  0  0  0  0
   32.4252   -9.8165   11.0866 N   0  0  0  0  0  0  0  0  0  0  0  0
   30.3391   -9.7008   17.6449 N   0  0  0  0  0  0  0  0  0  0  0  0
   26.3454  -11.2645    9.1219 C   0  0  0  0  0  0  0  0  0  0  0  0
   28.0008  -14.1448   14.2300 C   0  0  0  0  0  0  0  0  0  0  0  0
   32.3985   -8.5488   18.2092 C   0  0  0  0  0  0  0  0  0  0  0  0
   31.5894  -10.5531   19.6096 C   0  0  0  0  0  0  0  0  0  0  0  0
   35.8361   -8.1651   12.7555 C   0  0  0  0  0  0  0  0  0  0  0  0
   30.9414   -8.3582   17.6650 C   0  0  0  0  0  0  0  0  0  0  0  0
   30.1756  -10.3268   18.9836 C   0  0  0  0  0  0  0  0  0  0  0  0
   37.1187   -8.5879   12.3401 C   0  0  0  0  0  0  0  0  0  0  0  0
   32.6687   -5.9855    8.8089 C   0  0  0  0  0  0  0  0  0  0  0  0
   37.2349   -9.4037   11.2013 C   0  0  0  0  0  0  0  0  0  0  0  0
   29.8827  -11.6054    9.1608 C   0  0  0  0  0  0  0  0  0  0  0  0
   32.9026   -6.1187    7.4330 C   0  0  0  0  0  0  0  0  0  0  0  0
   31.0569  -10.9011    9.4315 C   0  0  0  0  0  0  0  0  0  0  0  0
   32.8124   -7.0968    9.6774 C   0  0  0  0  0  0  0  0  0  0  0  0
   29.0776  -11.2062   11.4192 C   0  0  0  0  0  0  0  0  0  0  0  0
   36.0740   -9.7303   10.4899 C   0  0  0  0  0  0  0  0  0  0  0  0
   28.8826  -11.7375   10.1374 C   0  0  0  0  0  0  0  0  0  0  0  0
   29.1554  -12.2946   15.3639 C   0  0  0  0  0  0  0  0  0  0  0  0
   30.1514  -10.5453   14.1417 C   0  0  0  0  0  0  0  0  0  0  0  0
   30.0348  -10.3797   16.4910 C   0  0  0  0  0  0  0  0  0  0  0  0
   33.3050   -7.3953    6.9916 C   0  0  0  0  0  0  0  0  0  0  0  0
   31.2771  -10.4141   10.7348 C   0  0  0  0  0  0  0  0  0  0  0  0
   30.2939  -10.5517   11.7267 C   0  0  0  0  0  0  0  0  0  0  0  0
   33.5115   -8.4444    7.8586 C   0  0  0  0  0  0  0  0  0  0  0  0
   34.7981   -9.2932   10.9450 C   0  0  0  0  0  0  0  0  0  0  0  0
   33.5115   -9.5735   10.1572 C   0  0  2  0  0  0  0  0  0  0  0  0
   33.2926   -8.3469    9.2417 C   0  0  0  0  0  0  0  0  0  0  0  0
   34.1336   -9.0653    5.8659 C   0  0  0  0  0  0  0  0  0  0  0  0
   32.3134   -8.7579   20.2331 H   0  0  0  0  0  0  0  0  0  0  0  0
   30.9670   -9.0953   12.9819 H   0  0  0  0  0  0  0  0  0  0  0  0
   32.5376   -9.5242   12.0363 H   0  0  0  0  0  0  0  0  0  0  0  0
   26.7395  -10.9142    8.2722 H   0  0  0  0  0  0  0  0  0  0  0  0
   25.4236  -11.6093    8.9446 H   0  0  0  0  0  0  0  0  0  0  0  0
   26.3018  -10.5284    9.7974 H   0  0  0  0  0  0  0  0  0  0  0  0
   27.6093  -15.0404   14.4412 H   0  0  0  0  0  0  0  0  0  0  0  0
   27.2869  -13.5463   13.8666 H   0  0  0  0  0  0  0  0  0  0  0  0
   28.7259  -14.2500   13.5495 H   0  0  0  0  0  0  0  0  0  0  0  0
   32.9399   -8.9989   17.4990 H   0  0  0  0  0  0  0  0  0  0  0  0
   32.7816   -7.6445   18.3974 H   0  0  0  0  0  0  0  0  0  0  0  0
   31.4776  -10.7495   20.5837 H   0  0  0  0  0  0  0  0  0  0  0  0
   32.0148  -11.3374   19.1581 H   0  0  0  0  0  0  0  0  0  0  0  0
   35.7459   -7.5895   13.5683 H   0  0  0  0  0  0  0  0  0  0  0  0
   30.4215   -7.7528   18.2676 H   0  0  0  0  0  0  0  0  0  0  0  0
   30.9623   -7.9726   16.7425 H   0  0  0  0  0  0  0  0  0  0  0  0
   29.7054  -11.2043   18.8891 H   0  0  0  0  0  0  0  0  0  0  0  0
   29.6395   -9.7231   19.5736 H   0  0  0  0  0  0  0  0  0  0  0  0
   37.9332   -8.3104   12.8496 H   0  0  0  0  0  0  0  0  0  0  0  0
   32.3978   -5.0978    9.1814 H   0  0  0  0  0  0  0  0  0  0  0  0
   38.1276   -9.7436   10.9056 H   0  0  0  0  0  0  0  0  0  0  0  0
   29.7521  -12.0208    8.2606 H   0  0  0  0  0  0  0  0  0  0  0  0
   32.7904   -5.3520    6.8010 H   0  0  0  0  0  0  0  0  0  0  0  0
   31.7322  -10.7446    8.7107 H   0  0  0  0  0  0  0  0  0  0  0  0
   32.5624   -6.9885   10.6395 H   0  0  0  0  0  0  0  0  0  0  0  0
   28.3617  -11.2891   12.1124 H   0  0  0  0  0  0  0  0  0  0  0  0
   33.6452  -10.3861    9.5899 H   0  0  0  0  0  0  0  0  0  0  0  0
  1 33  1  0  0  0  0
  2  5  2  0  0  0  0
  2  6  2  0  0  0  0
  2 18  1  0  0  0  0
  2 34  1  0  0  0  0
  3 45  1  0  0  0  0
  4 45  1  0  0  0  0
  7 19  1  0  0  0  0
  7 35  1  0  0  0  0
  8 38  1  0  0  0  0
  8 45  1  0  0  0  0
  9 41  1  0  0  0  0
  9 45  1  0  0  0  0
 10 20  1  0  0  0  0
 10 21  1  0  0  0  0
 11 22  2  0  0  0  0
 11 42  1  0  0  0  0
 12 35  2  0  0  0  0
 12 36  1  0  0  0  0
 13 35  1  0  0  0  0
 13 37  2  0  0  0  0
 14 36  2  0  0  0  0
 14 37  1  0  0  0  0
 15 36  1  0  0  0  0
 15 40  1  0  0  0  0
 16 39  1  0  0  0  0
 16 43  1  0  0  0  0
 17 23  1  0  0  0  0
 17 24  1  0  0  0  0
 17 37  1  0  0  0  0
 20 23  1  0  0  0  0
 21 24  1  0  0  0  0
 22 25  1  0  0  0  0
 25 27  2  0  0  0  0
 26 29  2  0  0  0  0
 26 31  1  0  0  0  0
 27 33  1  0  0  0  0
 28 30  1  0  0  0  0
 28 34  2  0  0  0  0
 29 38  1  0  0  0  0
 30 39  2  0  0  0  0
 31 44  2  0  0  0  0
 32 34  1  0  0  0  0
 32 40  2  0  0  0  0
 33 42  2  0  0  0  0
 38 41  2  0  0  0  0
 39 40  1  0  0  0  0
 41 44  1  0  0  0  0
 42 43  1  0  0  0  0
 43 44  1  0  0  0  0
 10 46  1  0  0  0  0
 15 47  1  0  0  0  0
 16 48  1  0  0  0  0
 18 49  1  0  0  0  0
 18 50  1  0  0  0  0
 18 51  1  0  0  0  0
 19 52  1  0  0  0  0
 19 53  1  0  0  0  0
 19 54  1  0  0  0  0
 20 55  1  0  0  0  0
 20 56  1  0  0  0  0
 21 57  1  0  0  0  0
 21 58  1  0  0  0  0
 22 59  1  0  0  0  0
 23 60  1  0  0  0  0
 23 61  1  0  0  0  0
 24 62  1  0  0  0  0
 24 63  1  0  0  0  0
 25 64  1  0  0  0  0
 26 65  1  0  0  0  0
 27 66  1  0  0  0  0
 28 67  1  0  0  0  0
 29 68  1  0  0  0  0
 30 69  1  0  0  0  0
 31 70  1  0  0  0  0
 32 71  1  0  0  0  0
 43 72  1  0  0  0  0
M  END
> <pdb_id>
6TEL

> <uniprot_id>
Q8TEK3

> <usmiles>
Clc1c(nccc1)[C@@H](Nc2c(Nc3nc(OC)nc(n3)N4CCNCC4)cc(S(=O)(=O)C)cc2)c5c6OC(F)(F)Oc6ccc5

$$$$
N5B_A_300
          07192421083D 1   1.00000     0.00000     0
            
 30 32  0  0  0  0            999 V2000
    2.4686   26.8574    7.8712 O   0  0  0  0  0  0  0  0  0  0  0  0
    1.9095   30.8410    6.3651 N   0  0  0  0  0  0  0  0  0  0  0  0
    0.8122   31.4382    6.8863 N   0  0  0  0  0  0  0  0  0  0  0  0
    2.8340   28.4873    6.3514 N   0  0  0  0  0  0  0  0  0  0  0  0
    6.5473   24.8981    5.4844 C   0  0  0  0  0  0  0  0  0  0  0  0
    6.1066   24.7980    6.8231 C   0  0  0  0  0  0  0  0  0  0  0  0
    5.9098   25.7883    4.5853 C   0  0  0  0  0  0  0  0  0  0  0  0
    5.0181   25.5942    7.2712 C   0  0  0  0  0  0  0  0  0  0  0  0
    4.8226   26.5854    5.0275 C   0  0  0  0  0  0  0  0  0  0  0  0
   -2.4147   29.8126    8.0282 C   0  0  0  0  0  0  0  0  0  0  0  0
   -1.9506   30.1724    9.4581 C   0  0  0  0  0  0  0  0  0  0  0  0
    0.6907   29.2796    7.4460 C   0  0  0  0  0  0  0  0  0  0  0  0
    3.1514   27.2981    6.9301 C   0  0  0  0  0  0  0  0  0  0  0  0
    1.8506   29.5084    6.7032 C   0  0  0  0  0  0  0  0  0  0  0  0
    0.0437   30.5049    7.5575 C   0  0  0  0  0  0  0  0  0  0  0  0
    4.3472   26.5068    6.3844 C   0  0  0  0  0  0  0  0  0  0  0  0
   -1.2781   30.8195    8.2848 C   0  0  0  0  0  0  0  0  0  0  0  0
    2.6297   31.2860    5.8328 H   0  0  0  0  0  0  0  0  0  0  0  0
    3.3721   28.7016    5.5362 H   0  0  0  0  0  0  0  0  0  0  0  0
    7.3133   24.3376    5.1698 H   0  0  0  0  0  0  0  0  0  0  0  0
    6.5597   24.1681    7.4539 H   0  0  0  0  0  0  0  0  0  0  0  0
    6.2262   25.8548    3.6390 H   0  0  0  0  0  0  0  0  0  0  0  0
    4.7128   25.5186    8.2204 H   0  0  0  0  0  0  0  0  0  0  0  0
    4.3792   27.2120    4.3864 H   0  0  0  0  0  0  0  0  0  0  0  0
   -3.3018   30.1280    7.6912 H   0  0  0  0  0  0  0  0  0  0  0  0
   -2.2135   28.9115    7.6441 H   0  0  0  0  0  0  0  0  0  0  0  0
   -1.4560   29.4976   10.0058 H   0  0  0  0  0  0  0  0  0  0  0  0
   -2.5444   30.7141   10.0530 H   0  0  0  0  0  0  0  0  0  0  0  0
    0.3853   28.4056    7.8239 H   0  0  0  0  0  0  0  0  0  0  0  0
   -1.5704   31.7666    8.1522 H   0  0  0  0  0  0  0  0  0  0  0  0
  1 13  2  0  0  0  0
  2  3  1  0  0  0  0
  2 14  1  0  0  0  0
  3 15  2  0  0  0  0
  4 13  1  0  0  0  0
  4 14  1  0  0  0  0
  5  6  2  0  0  0  0
  5  7  1  0  0  0  0
  6  8  1  0  0  0  0
  7  9  2  0  0  0  0
  8 16  2  0  0  0  0
  9 16  1  0  0  0  0
 10 11  1  0  0  0  0
 10 17  1  0  0  0  0
 11 17  1  0  0  0  0
 12 14  2  0  0  0  0
 12 15  1  0  0  0  0
 13 16  1  0  0  0  0
 15 17  1  0  0  0  0
  2 18  1  0  0  0  0
  4 19  1  0  0  0  0
  5 20  1  0  0  0  0
  6 21  1  0  0  0  0
  7 22  1  0  0  0  0
  8 23  1  0  0  0  0
  9 24  1  0  0  0  0
 10 25  1  0  0  0  0
 10 26  1  0  0  0  0
 11 27  1  0  0  0  0
 11 28  1  0  0  0  0
 12 29  1  0  0  0  0
 17 30  1  0  0  0  0
M  END
> <pdb_id>
1VYZ

> <uniprot_id>
P24941

> <usmiles>
O=C(NC=1NN=C(C1)C2CC2)c3ccccc3

$$$$
N5J_C_403
          07202411573D 1   1.00000     0.00000     0
            
 16 17  0  0  0  0            999 V2000
   -1.8648  100.3524   15.1804 O   0  0  0  0  0  0  0  0  0  0  0  0
   -5.5789  103.2361   16.9253 N   0  0  0  0  0  0  0  0  0  0  0  0
   -3.2193   98.9294   16.3110 N   0  0  0  0  0  0  0  0  0  0  0  0
   -5.1676   99.6212   17.4346 N   0  0  0  0  0  0  0  0  0  0  0  0
   -4.3191   98.7049   17.0593 C   0  0  0  0  0  0  0  0  0  0  0  0
   -4.5018  103.5008   16.1877 C   0  0  0  0  0  0  0  0  0  0  0  0
   -5.7467  101.9730   17.3200 C   0  0  0  0  0  0  0  0  0  0  0  0
   -3.5720  102.5523   15.8204 C   0  0  0  0  0  0  0  0  0  0  0  0
   -2.8686  100.1645   15.8558 C   0  0  0  0  0  0  0  0  0  0  0  0
   -4.8998  100.9224   17.0170 C   0  0  0  0  0  0  0  0  0  0  0  0
   -3.7824  101.2412   16.2396 C   0  0  0  0  0  0  0  0  0  0  0  0
   -2.6339   98.1525   16.0795 H   0  0  0  0  0  0  0  0  0  0  0  0
   -4.4971   97.7643   17.3481 H   0  0  0  0  0  0  0  0  0  0  0  0
   -4.3597  104.4425   15.8827 H   0  0  0  0  0  0  0  0  0  0  0  0
   -6.5496  101.7692   17.8802 H   0  0  0  0  0  0  0  0  0  0  0  0
   -2.7730  102.7974   15.2713 H   0  0  0  0  0  0  0  0  0  0  0  0
  1  9  2  0  0  0  0
  2  6  2  0  0  0  0
  2  7  1  0  0  0  0
  3  5  1  0  0  0  0
  3  9  1  0  0  0  0
  4  5  2  0  0  0  0
  4 10  1  0  0  0  0
  6  8  1  0  0  0  0
  7 10  2  0  0  0  0
  8 11  2  0  0  0  0
  9 11  1  0  0  0  0
 10 11  1  0  0  0  0
  3 12  1  0  0  0  0
  5 13  1  0  0  0  0
  6 14  1  0  0  0  0
  7 15  1  0  0  0  0
  8 16  1  0  0  0  0
M  END
> <pdb_id>
5F37

> <uniprot_id>
O75164

> <usmiles>
O=C1NC=Nc2c1ccnc2

$$$$
N5K_A_401
          07192420013D 1   1.00000     0.00000     0
            
 59 63  0  0  0  0            999 V2000
   36.2183  -10.7872    9.1231 Cl  0  0  0  0  0  0  0  0  0  0  0  0
   27.1470  -12.2175    9.6023 S   0  0  0  0  0  0  0  0  0  0  0  0
   35.4019   -9.2836    5.4921 F   0  0  0  0  0  0  0  0  0  0  0  0
   33.4121   -9.9808    5.0581 F   0  0  0  0  0  0  0  0  0  0  0  0
   27.3829  -13.4114    8.8221 O   0  0  0  0  0  0  0  0  0  0  0  0
   26.3092  -12.2898   10.7689 O   0  0  0  0  0  0  0  0  0  0  0  0
   28.1354  -13.2584   15.3804 O   0  0  0  0  0  0  0  0  0  0  0  0
   33.6244   -7.7987    5.6549 O   0  0  0  0  0  0  0  0  0  0  0  0
   33.9531   -9.6691    7.1871 O   0  0  0  0  0  0  0  0  0  0  0  0
   26.5540  -10.9902    8.6750 N   0  0  0  0  0  0  0  0  0  0  0  0
   30.2768   -9.5962   17.5460 N   0  0  0  0  0  0  0  0  0  0  0  0
   34.7121   -8.6029   12.0867 N   0  0  0  0  0  0  0  0  0  0  0  0
   29.2396  -11.4161   16.4703 N   0  0  0  0  0  0  0  0  0  0  0  0
   29.3225  -11.5877   14.1544 N   0  0  0  0  0  0  0  0  0  0  0  0
   30.3706   -9.7873   15.2136 N   0  0  0  0  0  0  0  0  0  0  0  0
   30.4385   -9.9661   12.8910 N   0  0  0  0  0  0  0  0  0  0  0  0
   32.4090   -9.9568   11.0898 N   0  0  0  0  0  0  0  0  0  0  0  0
   27.4096  -13.6998   14.2120 C   0  0  0  0  0  0  0  0  0  0  0  0
   35.8156   -8.2366   12.7988 C   0  0  0  0  0  0  0  0  0  0  0  0
   37.1017   -8.6340   12.3840 C   0  0  0  0  0  0  0  0  0  0  0  0
   32.5498   -6.1476    8.8357 C   0  0  0  0  0  0  0  0  0  0  0  0
   37.2284   -9.4471   11.2386 C   0  0  0  0  0  0  0  0  0  0  0  0
   29.7425  -11.4684    9.0595 C   0  0  0  0  0  0  0  0  0  0  0  0
   32.8446   -6.2483    7.4563 C   0  0  0  0  0  0  0  0  0  0  0  0
   30.9949  -10.9524    9.4009 C   0  0  0  0  0  0  0  0  0  0  0  0
   32.7364   -7.2424    9.7198 C   0  0  0  0  0  0  0  0  0  0  0  0
   28.9362  -11.0805   11.3326 C   0  0  0  0  0  0  0  0  0  0  0  0
   36.0689   -9.7854   10.5290 C   0  0  0  0  0  0  0  0  0  0  0  0
   28.7216  -11.5300   10.0237 C   0  0  0  0  0  0  0  0  0  0  0  0
   28.8872  -12.0733   15.3394 C   0  0  0  0  0  0  0  0  0  0  0  0
   29.9563  -10.2624   16.4142 C   0  0  0  0  0  0  0  0  0  0  0  0
   30.0242  -10.4355   14.0815 C   0  0  0  0  0  0  0  0  0  0  0  0
   33.2682   -7.5064    6.9808 C   0  0  0  0  0  0  0  0  0  0  0  0
   33.5167   -8.5471    7.8631 C   0  0  0  0  0  0  0  0  0  0  0  0
   31.2204  -10.4669   10.7059 C   0  0  0  0  0  0  0  0  0  0  0  0
   30.1935  -10.5274   11.6751 C   0  0  0  0  0  0  0  0  0  0  0  0
   34.7899   -9.3762   10.9755 C   0  0  0  0  0  0  0  0  0  0  0  0
   33.5150   -9.6806   10.1837 C   0  0  2  0  0  0  0  0  0  0  0  0
   33.2770   -8.4648    9.2618 C   0  0  0  0  0  0  0  0  0  0  0  0
   34.1196   -9.1567    5.8498 C   0  0  0  0  0  0  0  0  0  0  0  0
   26.4036  -10.1834    9.2464 H   0  0  0  0  0  0  0  0  0  0  0  0
   27.2108  -10.7701    7.9537 H   0  0  0  0  0  0  0  0  0  0  0  0
   30.8044   -8.7482   17.4947 H   0  0  0  0  0  0  0  0  0  0  0  0
   29.9862   -9.9513   18.4345 H   0  0  0  0  0  0  0  0  0  0  0  0
   30.9781   -9.1243   12.8999 H   0  0  0  0  0  0  0  0  0  0  0  0
   32.5390   -9.7552   12.0606 H   0  0  0  0  0  0  0  0  0  0  0  0
   26.9338  -14.5548   14.4185 H   0  0  0  0  0  0  0  0  0  0  0  0
   26.7428  -13.0021   13.9505 H   0  0  0  0  0  0  0  0  0  0  0  0
   28.0498  -13.8482   13.4583 H   0  0  0  0  0  0  0  0  0  0  0  0
   35.7109   -7.6806   13.6234 H   0  0  0  0  0  0  0  0  0  0  0  0
   37.9120   -8.3442   12.8934 H   0  0  0  0  0  0  0  0  0  0  0  0
   32.2010   -5.2831    9.1976 H   0  0  0  0  0  0  0  0  0  0  0  0
   38.1249   -9.7745   10.9400 H   0  0  0  0  0  0  0  0  0  0  0  0
   29.5723  -11.7939    8.1294 H   0  0  0  0  0  0  0  0  0  0  0  0
   32.7565   -5.4619    6.8449 H   0  0  0  0  0  0  0  0  0  0  0  0
   31.7291  -10.9272    8.7224 H   0  0  0  0  0  0  0  0  0  0  0  0
   32.4812   -7.1469   10.6820 H   0  0  0  0  0  0  0  0  0  0  0  0
   28.2102  -11.1493   12.0169 H   0  0  0  0  0  0  0  0  0  0  0  0
   33.6745  -10.4881    9.6158 H   0  0  0  0  0  0  0  0  0  0  0  0
  1 28  1  0  0  0  0
  2  5  2  0  0  0  0
  2  6  2  0  0  0  0
  2 10  1  0  0  0  0
  2 29  1  0  0  0  0
  3 40  1  0  0  0  0
  4 40  1  0  0  0  0
  7 18  1  0  0  0  0
  7 30  1  0  0  0  0
  8 33  1  0  0  0  0
  8 40  1  0  0  0  0
  9 34  1  0  0  0  0
  9 40  1  0  0  0  0
 11 31  1  0  0  0  0
 12 19  2  0  0  0  0
 12 37  1  0  0  0  0
 13 30  1  0  0  0  0
 13 31  2  0  0  0  0
 14 30  2  0  0  0  0
 14 32  1  0  0  0  0
 15 31  1  0  0  0  0
 15 32  2  0  0  0  0
 16 32  1  0  0  0  0
 16 36  1  0  0  0  0
 17 35  1  0  0  0  0
 17 38  1  0  0  0  0
 19 20  1  0  0  0  0
 20 22  2  0  0  0  0
 21 24  2  0  0  0  0
 21 26  1  0  0  0  0
 22 28  1  0  0  0  0
 23 25  1  0  0  0  0
 23 29  2  0  0  0  0
 24 33  1  0  0  0  0
 25 35  2  0  0  0  0
 26 39  2  0  0  0  0
 27 29  1  0  0  0  0
 27 36  2  0  0  0  0
 28 37  2  0  0  0  0
 33 34  2  0  0  0  0
 34 39  1  0  0  0  0
 35 36  1  0  0  0  0
 37 38  1  0  0  0  0
 38 39  1  0  0  0  0
 10 41  1  0  0  0  0
 10 42  1  0  0  0  0
 11 43  1  0  0  0  0
 11 44  1  0  0  0  0
 16 45  1  0  0  0  0
 17 46  1  0  0  0  0
 18 47  1  0  0  0  0
 18 48  1  0  0  0  0
 18 49  1  0  0  0  0
 19 50  1  0  0  0  0
 20 51  1  0  0  0  0
 21 52  1  0  0  0  0
 22 53  1  0  0  0  0
 23 54  1  0  0  0  0
 24 55  1  0  0  0  0
 25 56  1  0  0  0  0
 26 57  1  0  0  0  0
 27 58  1  0  0  0  0
 38 59  1  0  0  0  0
M  END
> <pdb_id>
6TEN

> <uniprot_id>
Q8TEK3

> <usmiles>
Clc1c(nccc1)[C@@H](Nc2c(Nc3nc(OC)nc(n3)N)cc(S(=O)(=O)N)cc2)c4c5OC(F)(F)Oc5ccc4

$$$$
N6A_C_1294
          07192422273D 1   1.00000     0.00000     0
            
 45 47  0  0  0  0            999 V2000
   30.7655  -18.8388   58.9133 S   0  0  0  0  0  0  0  0  0  0  0  0
   30.4961  -20.3612   58.9496 O   0  0  0  0  0  0  0  0  0  0  0  0
   30.1773  -18.2317   60.1432 O   0  0  0  0  0  0  0  0  0  0  0  0
   35.9460  -19.8649   55.1115 O   0  0  0  0  0  0  0  0  0  0  0  0
   32.9513  -16.7860   56.7467 O   0  0  0  0  0  0  0  0  0  0  0  0
   33.5000  -20.7245   58.9332 N   0  0  0  0  0  0  0  0  0  0  0  0
   34.4946  -18.2698   55.8847 N   0  0  0  0  0  0  0  0  0  0  0  0
   32.3671  -18.4206   58.8536 N   0  0  0  0  0  0  0  0  0  0  0  0
   34.8272  -20.3684   56.9691 N   0  0  0  0  0  0  0  0  0  0  0  0
   32.8887  -17.4333   59.8189 C   0  0  0  0  0  0  0  0  0  0  0  0
   35.5359  -21.7157   57.0247 C   0  0  0  0  0  0  0  0  0  0  0  0
   28.8128  -17.0123   55.4036 C   0  0  0  0  0  0  0  0  0  0  0  0
   33.3731  -24.6584   54.9247 C   0  0  0  0  0  0  0  0  0  0  0  0
   29.5701  -18.1680   55.2342 C   0  0  0  0  0  0  0  0  0  0  0  0
   28.6626  -16.4179   56.6511 C   0  0  0  0  0  0  0  0  0  0  0  0
   33.5326  -24.7298   56.3059 C   0  0  0  0  0  0  0  0  0  0  0  0
   33.9575  -23.6023   54.2501 C   0  0  0  0  0  0  0  0  0  0  0  0
   30.1869  -18.7353   56.3474 C   0  0  0  0  0  0  0  0  0  0  0  0
   29.2595  -16.9911   57.7413 C   0  0  0  0  0  0  0  0  0  0  0  0
   34.2656  -23.7460   56.9826 C   0  0  0  0  0  0  0  0  0  0  0  0
   34.6724  -22.6323   54.9328 C   0  0  0  0  0  0  0  0  0  0  0  0
   35.1247  -19.5356   55.9692 C   0  0  0  0  0  0  0  0  0  0  0  0
   33.5235  -17.8794   56.8411 C   0  0  0  0  0  0  0  0  0  0  0  0
   30.0276  -18.1508   57.5839 C   0  0  0  0  0  0  0  0  0  0  0  0
   33.8840  -19.9872   57.9125 C   0  0  0  0  0  0  0  0  0  0  0  0
   33.2274  -18.7862   57.8570 C   0  0  0  0  0  0  0  0  0  0  0  0
   34.8350  -22.6887   56.3190 C   0  0  0  0  0  0  0  0  0  0  0  0
   32.8126  -20.3765   59.5708 H   0  0  0  0  0  0  0  0  0  0  0  0
   33.8956  -21.6325   59.0711 H   0  0  0  0  0  0  0  0  0  0  0  0
   34.7372  -17.6449   55.1426 H   0  0  0  0  0  0  0  0  0  0  0  0
   33.8645  -17.2894   59.6542 H   0  0  0  0  0  0  0  0  0  0  0  0
   32.4006  -16.5678   59.7071 H   0  0  0  0  0  0  0  0  0  0  0  0
   32.7544  -17.7740   60.7495 H   0  0  0  0  0  0  0  0  0  0  0  0
   35.6167  -22.0014   57.9796 H   0  0  0  0  0  0  0  0  0  0  0  0
   36.4484  -21.6197   56.6271 H   0  0  0  0  0  0  0  0  0  0  0  0
   28.3666  -16.6001   54.6093 H   0  0  0  0  0  0  0  0  0  0  0  0
   32.8489  -25.3536   54.4327 H   0  0  0  0  0  0  0  0  0  0  0  0
   29.6695  -18.5835   54.3301 H   0  0  0  0  0  0  0  0  0  0  0  0
   28.1245  -15.5809   56.7510 H   0  0  0  0  0  0  0  0  0  0  0  0
   33.1227  -25.4856   56.8166 H   0  0  0  0  0  0  0  0  0  0  0  0
   33.8628  -23.5380   53.2567 H   0  0  0  0  0  0  0  0  0  0  0  0
   30.7417  -19.5615   56.2489 H   0  0  0  0  0  0  0  0  0  0  0  0
   29.1472  -16.5828   58.6472 H   0  0  0  0  0  0  0  0  0  0  0  0
   34.3764  -23.8162   57.9740 H   0  0  0  0  0  0  0  0  0  0  0  0
   35.0809  -21.8755   54.4225 H   0  0  0  0  0  0  0  0  0  0  0  0
  1  2  2  0  0  0  0
  1  3  2  0  0  0  0
  1  8  1  0  0  0  0
  1 24  1  0  0  0  0
  4 22  2  0  0  0  0
  5 23  2  0  0  0  0
  6 25  1  0  0  0  0
  7 22  1  0  0  0  0
  7 23  1  0  0  0  0
  8 10  1  0  0  0  0
  8 26  1  0  0  0  0
  9 11  1  0  0  0  0
  9 22  1  0  0  0  0
  9 25  1  0  0  0  0
 11 27  1  0  0  0  0
 12 14  2  0  0  0  0
 12 15  1  0  0  0  0
 13 16  2  0  0  0  0
 13 17  1  0  0  0  0
 14 18  1  0  0  0  0
 15 19  2  0  0  0  0
 16 20  1  0  0  0  0
 17 21  2  0  0  0  0
 18 24  2  0  0  0  0
 19 24  1  0  0  0  0
 20 27  2  0  0  0  0
 21 27  1  0  0  0  0
 23 26  1  0  0  0  0
 25 26  2  0  0  0  0
  6 28  1  0  0  0  0
  6 29  1  0  0  0  0
  7 30  1  0  0  0  0
 10 31  1  0  0  0  0
 10 32  1  0  0  0  0
 10 33  1  0  0  0  0
 11 34  1  0  0  0  0
 11 35  1  0  0  0  0
 12 36  1  0  0  0  0
 13 37  1  0  0  0  0
 14 38  1  0  0  0  0
 15 39  1  0  0  0  0
 16 40  1  0  0  0  0
 17 41  1  0  0  0  0
 18 42  1  0  0  0  0
 19 43  1  0  0  0  0
 20 44  1  0  0  0  0
 21 45  1  0  0  0  0
M  END
> <pdb_id>
4ASJ

> <uniprot_id>
G3XCK4

> <usmiles>
S(=O)(=O)(N(C=1C(=O)NC(=O)N(C1N)Cc2ccccc2)C)c3ccccc3

$$$$
N6H_H_1001
          07202416143D 1   1.00000     0.00000     0
            
 54 57  0  0  0  0            999 V2000
   16.1333   -8.0224   10.8102 Cl  0  0  0  0  0  0  0  0  0  0  0  0
   10.5035  -17.3438   12.5849 O   0  0  0  0  0  0  0  0  0  0  0  0
    9.3032  -12.3448   15.1452 O   0  0  0  0  0  0  0  0  0  0  0  0
   12.0889  -11.7796   14.9434 O   0  0  0  0  0  0  0  0  0  0  0  0
    7.5244  -15.8081    9.1914 O   0  0  0  0  0  0  0  0  0  0  0  0
   14.2892  -11.0045   15.0580 N   0  0  0  0  0  0  0  0  0  0  0  0
   13.5966  -12.8853   13.7707 N   0  0  0  0  0  0  0  0  0  0  0  0
    9.5823  -16.0897   10.9350 N   0  0  0  0  0  0  0  0  0  0  0  0
    7.9755  -12.8762   15.3613 C   0  0  0  0  0  0  0  0  0  0  0  0
    6.9255  -14.3571   11.0763 C   0  0  0  0  0  0  0  0  0  0  0  0
    7.8020  -13.4269    8.9424 C   0  0  0  0  0  0  0  0  0  0  0  0
    7.6881  -17.1183    9.8195 C   0  0  0  0  0  0  0  0  0  0  0  0
   15.7147  -11.3382   14.9710 C   0  0  0  0  0  0  0  0  0  0  0  0
    9.1639  -17.2900   10.1540 C   0  0  0  0  0  0  0  0  0  0  0  0
    9.3296  -14.7300   10.3583 C   0  0  0  0  0  0  0  0  0  0  0  0
   17.8324  -11.5266   11.8416 C   0  0  0  0  0  0  0  0  0  0  0  0
   17.5046  -10.3571   11.1471 C   0  0  0  0  0  0  0  0  0  0  0  0
   17.2276  -11.8227   13.0770 C   0  0  0  0  0  0  0  0  0  0  0  0
   15.9432   -9.7700   12.9404 C   0  0  0  0  0  0  0  0  0  0  0  0
    9.7161  -14.2826   13.6319 C   0  0  0  0  0  0  0  0  0  0  0  0
   12.0264  -14.6127   12.8753 C   0  0  0  0  0  0  0  0  0  0  0  0
   13.3916  -11.8683   14.5955 C   0  0  0  0  0  0  0  0  0  0  0  0
   16.5480   -9.4677   11.6881 C   0  0  0  0  0  0  0  0  0  0  0  0
   10.2491  -16.2294   12.1009 C   0  0  0  0  0  0  0  0  0  0  0  0
   10.1265  -13.1546   14.3669 C   0  0  0  0  0  0  0  0  0  0  0  0
   11.4613  -12.8039   14.3353 C   0  0  0  0  0  0  0  0  0  0  0  0
   12.4178  -13.4995   13.5980 C   0  0  0  0  0  0  0  0  0  0  0  0
   16.2920  -10.9424   13.6199 C   0  0  0  0  0  0  0  0  0  0  0  0
   10.6725  -15.0013   12.8943 C   0  0  0  0  0  0  0  0  0  0  0  0
    7.8731  -14.5826    9.9015 C   0  0  0  0  0  0  0  0  0  0  0  0
   13.9962  -10.1373   15.4605 H   0  0  0  0  0  0  0  0  0  0  0  0
    7.4496  -12.2400   15.9257 H   0  0  0  0  0  0  0  0  0  0  0  0
    7.5175  -12.9974   14.4806 H   0  0  0  0  0  0  0  0  0  0  0  0
    8.0414  -13.7587   15.8269 H   0  0  0  0  0  0  0  0  0  0  0  0
    7.1783  -13.5143   11.5514 H   0  0  0  0  0  0  0  0  0  0  0  0
    5.9876  -14.2807   10.7381 H   0  0  0  0  0  0  0  0  0  0  0  0
    6.9898  -15.1287   11.7093 H   0  0  0  0  0  0  0  0  0  0  0  0
    8.0397  -12.5816    9.4209 H   0  0  0  0  0  0  0  0  0  0  0  0
    8.4449  -13.5769    8.1914 H   0  0  0  0  0  0  0  0  0  0  0  0
    6.8740  -13.3535    8.5772 H   0  0  0  0  0  0  0  0  0  0  0  0
    7.3959  -17.8373    9.1888 H   0  0  0  0  0  0  0  0  0  0  0  0
    7.1416  -17.1659   10.6556 H   0  0  0  0  0  0  0  0  0  0  0  0
   15.8272  -12.3238   15.0975 H   0  0  0  0  0  0  0  0  0  0  0  0
   16.2081  -10.8512   15.6917 H   0  0  0  0  0  0  0  0  0  0  0  0
    9.2974  -18.1173   10.6996 H   0  0  0  0  0  0  0  0  0  0  0  0
    9.7004  -17.3554    9.3126 H   0  0  0  0  0  0  0  0  0  0  0  0
    9.9332  -14.5914    9.5731 H   0  0  0  0  0  0  0  0  0  0  0  0
    9.5245  -14.0391   11.0546 H   0  0  0  0  0  0  0  0  0  0  0  0
   18.5040  -12.1591   11.4557 H   0  0  0  0  0  0  0  0  0  0  0  0
   17.9445  -10.1515   10.2729 H   0  0  0  0  0  0  0  0  0  0  0  0
   17.4680  -12.6622   13.5644 H   0  0  0  0  0  0  0  0  0  0  0  0
   15.2693   -9.1450   13.3344 H   0  0  0  0  0  0  0  0  0  0  0  0
    8.7579  -14.5686   13.6345 H   0  0  0  0  0  0  0  0  0  0  0  0
   12.6958  -15.1345   12.3464 H   0  0  0  0  0  0  0  0  0  0  0  0
  1 23  1  0  0  0  0
  2 24  2  0  0  0  0
  3  9  1  0  0  0  0
  3 25  1  0  0  0  0
  4 22  1  0  0  0  0
  4 26  1  0  0  0  0
  5 12  1  0  0  0  0
  5 30  1  0  0  0  0
  6 13  1  0  0  0  0
  6 22  1  0  0  0  0
  7 22  2  0  0  0  0
  7 27  1  0  0  0  0
  8 14  1  0  0  0  0
  8 15  1  0  0  0  0
  8 24  1  0  0  0  0
 10 30  1  0  0  0  0
 11 30  1  0  0  0  0
 12 14  1  0  0  0  0
 13 28  1  0  0  0  0
 15 30  1  0  0  0  0
 16 17  2  0  0  0  0
 16 18  1  0  0  0  0
 17 23  1  0  0  0  0
 18 28  2  0  0  0  0
 19 23  2  0  0  0  0
 19 28  1  0  0  0  0
 20 25  1  0  0  0  0
 20 29  2  0  0  0  0
 21 27  2  0  0  0  0
 21 29  1  0  0  0  0
 24 29  1  0  0  0  0
 25 26  2  0  0  0  0
 26 27  1  0  0  0  0
  6 31  1  0  0  0  0
  9 32  1  0  0  0  0
  9 33  1  0  0  0  0
  9 34  1  0  0  0  0
 10 35  1  0  0  0  0
 10 36  1  0  0  0  0
 10 37  1  0  0  0  0
 11 38  1  0  0  0  0
 11 39  1  0  0  0  0
 11 40  1  0  0  0  0
 12 41  1  0  0  0  0
 12 42  1  0  0  0  0
 13 43  1  0  0  0  0
 13 44  1  0  0  0  0
 14 45  1  0  0  0  0
 14 46  1  0  0  0  0
 15 47  1  0  0  0  0
 15 48  1  0  0  0  0
 16 49  1  0  0  0  0
 17 50  1  0  0  0  0
 18 51  1  0  0  0  0
 19 52  1  0  0  0  0
 20 53  1  0  0  0  0
 21 54  1  0  0  0  0
M  END
> <pdb_id>
6ZUH

> <uniprot_id>
P00734

> <usmiles>
Clc1cc(ccc1)CNC=2Oc3c(OC)cc(cc3N2)C(=O)N4CC(OCC4)(C)C

$$$$
N6L_H_1249
          07202416143D 1   1.00000     0.00000     0
            
 51 53  0  0  0  0            999 V2000
   16.2487   -8.3600   10.9031 Cl  0  0  0  0  0  0  0  0  0  0  0  0
   16.0846  -13.3190   14.6317 Cl  0  0  0  0  0  0  0  0  0  0  0  0
   12.6404  -13.2181   15.3750 O   0  0  0  0  0  0  0  0  0  0  0  0
   12.1849  -13.4016   12.2234 O   0  0  0  0  0  0  0  0  0  0  0  0
   12.3609  -16.1169   12.0219 N   0  0  0  0  0  0  0  0  0  0  0  0
   12.8226  -11.1401   14.5147 N   0  0  0  0  0  0  0  0  0  0  0  0
   10.4731  -13.6709   13.6312 N   0  0  0  0  0  0  0  0  0  0  0  0
   14.1948  -10.8778   14.9219 C   0  0  0  0  0  0  0  0  0  0  0  0
    9.3618  -14.3631   14.2943 C   0  0  0  0  0  0  0  0  0  0  0  0
    6.4897  -13.8072   10.4530 C   0  0  0  0  0  0  0  0  0  0  0  0
    8.6174  -13.2546   15.0239 C   0  0  0  0  0  0  0  0  0  0  0  0
    7.5319  -13.1350    9.8114 C   0  0  0  0  0  0  0  0  0  0  0  0
    6.7586  -14.9860   11.1353 C   0  0  0  0  0  0  0  0  0  0  0  0
   17.0910  -10.7992   11.7066 C   0  0  0  0  0  0  0  0  0  0  0  0
   17.0295  -11.8703   12.5670 C   0  0  0  0  0  0  0  0  0  0  0  0
    8.8239  -13.6468    9.8680 C   0  0  0  0  0  0  0  0  0  0  0  0
    8.0395  -15.5049   11.2048 C   0  0  0  0  0  0  0  0  0  0  0  0
    9.6911  -12.2249   15.3543 C   0  0  0  0  0  0  0  0  0  0  0  0
   15.2628   -9.8154   12.9505 C   0  0  0  0  0  0  0  0  0  0  0  0
   10.4695  -15.3939   10.6336 C   0  0  0  0  0  0  0  0  0  0  0  0
   16.1970   -9.7752   11.9438 C   0  0  0  0  0  0  0  0  0  0  0  0
   12.1399  -12.2716   14.7555 C   0  0  0  0  0  0  0  0  0  0  0  0
   16.0783  -11.9106   13.5767 C   0  0  0  0  0  0  0  0  0  0  0  0
   11.2664  -14.1187   12.6478 C   0  0  0  0  0  0  0  0  0  0  0  0
   11.0409  -15.5000   12.0503 C   0  0  2  0  0  0  0  0  0  0  0  0
    9.0786  -14.8299   10.5732 C   0  0  0  0  0  0  0  0  0  0  0  0
   10.7294  -12.3367   14.2383 C   0  0  1  0  0  0  0  0  0  0  0  0
   15.1833  -10.9014   13.7957 C   0  0  0  0  0  0  0  0  0  0  0  0
   12.7200  -16.1790   12.9531 H   0  0  0  0  0  0  0  0  0  0  0  0
   12.2918  -17.0341   11.6294 H   0  0  0  0  0  0  0  0  0  0  0  0
   12.3477  -10.4169   14.0133 H   0  0  0  0  0  0  0  0  0  0  0  0
   14.4626  -11.5728   15.5892 H   0  0  0  0  0  0  0  0  0  0  0  0
   14.2280   -9.9745   15.3498 H   0  0  0  0  0  0  0  0  0  0  0  0
    9.7035  -15.0460   14.9400 H   0  0  0  0  0  0  0  0  0  0  0  0
    8.7685  -14.8069   13.6227 H   0  0  0  0  0  0  0  0  0  0  0  0
    5.5589  -13.4431   10.4214 H   0  0  0  0  0  0  0  0  0  0  0  0
    8.1941  -13.6042   15.8598 H   0  0  0  0  0  0  0  0  0  0  0  0
    7.9140  -12.8552   14.4359 H   0  0  0  0  0  0  0  0  0  0  0  0
    7.3498  -12.2877    9.3125 H   0  0  0  0  0  0  0  0  0  0  0  0
    6.0097  -15.4711   11.5867 H   0  0  0  0  0  0  0  0  0  0  0  0
   17.7464  -10.7644   10.9521 H   0  0  0  0  0  0  0  0  0  0  0  0
   17.6757  -12.6266   12.4642 H   0  0  0  0  0  0  0  0  0  0  0  0
    9.5711  -13.1700    9.4051 H   0  0  0  0  0  0  0  0  0  0  0  0
    8.2157  -16.3541   11.7025 H   0  0  0  0  0  0  0  0  0  0  0  0
   10.1082  -12.4282   16.2402 H   0  0  0  0  0  0  0  0  0  0  0  0
    9.2982  -11.3056   15.3740 H   0  0  0  0  0  0  0  0  0  0  0  0
   14.6332   -9.0479   13.0714 H   0  0  0  0  0  0  0  0  0  0  0  0
   10.4547  -16.3094   10.2316 H   0  0  0  0  0  0  0  0  0  0  0  0
   11.0713  -14.8034   10.0958 H   0  0  0  0  0  0  0  0  0  0  0  0
   10.4245  -16.0309   12.6319 H   0  0  0  0  0  0  0  0  0  0  0  0
   10.5806  -11.6177   13.5594 H   0  0  0  0  0  0  0  0  0  0  0  0
  1 21  1  0  0  0  0
  2 23  1  0  0  0  0
  3 22  2  0  0  0  0
  4 24  2  0  0  0  0
  5 25  1  0  0  0  0
  6  8  1  0  0  0  0
  6 22  1  0  0  0  0
  7  9  1  0  0  0  0
  7 24  1  0  0  0  0
  7 27  1  0  0  0  0
  8 28  1  0  0  0  0
  9 11  1  0  0  0  0
 10 12  2  0  0  0  0
 10 13  1  0  0  0  0
 11 18  1  0  0  0  0
 12 16  1  0  0  0  0
 13 17  2  0  0  0  0
 14 15  2  0  0  0  0
 14 21  1  0  0  0  0
 15 23  1  0  0  0  0
 16 26  2  0  0  0  0
 17 26  1  0  0  0  0
 18 27  1  0  0  0  0
 19 21  2  0  0  0  0
 19 28  1  0  0  0  0
 20 25  1  0  0  0  0
 20 26  1  0  0  0  0
 22 27  1  0  0  0  0
 23 28  2  0  0  0  0
 24 25  1  0  0  0  0
  5 29  1  0  0  0  0
  5 30  1  0  0  0  0
  6 31  1  0  0  0  0
  8 32  1  0  0  0  0
  8 33  1  0  0  0  0
  9 34  1  0  0  0  0
  9 35  1  0  0  0  0
 10 36  1  0  0  0  0
 11 37  1  0  0  0  0
 11 38  1  0  0  0  0
 12 39  1  0  0  0  0
 13 40  1  0  0  0  0
 14 41  1  0  0  0  0
 15 42  1  0  0  0  0
 16 43  1  0  0  0  0
 17 44  1  0  0  0  0
 18 45  1  0  0  0  0
 18 46  1  0  0  0  0
 19 47  1  0  0  0  0
 20 48  1  0  0  0  0
 20 49  1  0  0  0  0
 25 50  1  0  0  0  0
 27 51  1  0  0  0  0
M  END
> <pdb_id>
4UDW

> <uniprot_id>
P00734

> <usmiles>
Clc1c(cc(Cl)cc1)CNC(=O)[C@H]2N(C(=O)[C@H](N)Cc3ccccc3)CCC2

$$$$
N7O_A_1
          07202404073D 1   1.00000     0.00000     0
            
 43 45  0  0  0  0            999 V2000
  -16.7660  -45.7410  -51.4420 Cl  0  0  0  0  0  0  0  0  0  0  0  0
  -15.9770  -48.2050  -57.0100 S   0  0  0  0  0  0  0  0  0  0  0  0
  -14.6630  -43.2090  -56.9060 P   0  0  0  0  0  0  0  0  0  0  0  0
   -3.6660  -45.1120  -56.2790 F   0  0  0  0  0  0  0  0  0  0  0  0
   -5.3870  -45.0840  -58.3430 F   0  0  0  0  0  0  0  0  0  0  0  0
  -15.6900  -42.7460  -55.9340 O   0  0  0  0  0  0  0  0  0  0  0  0
  -13.5540  -42.1140  -57.1180 O   0  0  0  0  0  0  0  0  0  0  0  0
  -12.3190  -45.2640  -58.1180 O   0  0  0  0  0  0  0  0  0  0  0  0
  -11.4550  -45.0920  -55.9930 N   0  0  0  0  0  0  0  0  0  0  0  0
  -15.3660  -43.4430  -58.5240 C   0  0  0  0  0  0  0  0  0  0  0  0
  -14.9290  -46.8920  -57.3610 C   0  0  0  0  0  0  0  0  0  0  0  0
  -10.0790  -45.2930  -56.3110 C   0  0  0  0  0  0  0  0  0  0  0  0
  -17.3220  -47.6490  -53.2360 C   0  0  0  0  0  0  0  0  0  0  0  0
  -17.1500  -48.2370  -54.4800 C   0  0  0  0  0  0  0  0  0  0  0  0
   -5.4160  -45.1750  -54.7110 C   0  0  0  0  0  0  0  0  0  0  0  0
   -9.1710  -45.2550  -55.3240 C   0  0  0  0  0  0  0  0  0  0  0  0
   -6.7840  -45.2150  -54.4840 C   0  0  0  0  0  0  0  0  0  0  0  0
  -15.7980  -45.8520  -53.9260 C   0  0  0  0  0  0  0  0  0  0  0  0
   -7.2370  -45.1660  -56.8600 C   0  0  0  0  0  0  0  0  0  0  0  0
  -16.6180  -46.4620  -53.0080 C   0  0  0  0  0  0  0  0  0  0  0  0
  -16.3170  -47.6280  -55.4240 C   0  0  0  0  0  0  0  0  0  0  0  0
  -13.9020  -44.7680  -56.3070 C   0  0  2  0  0  0  0  0  0  0  0  0
   -4.9690  -45.1470  -56.0280 C   0  0  0  0  0  0  0  0  0  0  0  0
   -5.8670  -45.1290  -57.0910 C   0  0  0  0  0  0  0  0  0  0  0  0
  -12.4850  -44.9430  -56.9670 C   0  0  0  0  0  0  0  0  0  0  0  0
   -7.7090  -45.2020  -55.5410 C   0  0  0  0  0  0  0  0  0  0  0  0
  -14.7910  -46.0040  -56.3470 C   0  0  0  0  0  0  0  0  0  0  0  0
  -15.6110  -46.4310  -55.1790 C   0  0  0  0  0  0  0  0  0  0  0  0
  -16.3825  -43.4578  -55.8164 H   0  0  0  0  0  0  0  0  0  0  0  0
  -11.7128  -45.0533  -55.0276 H   0  0  0  0  0  0  0  0  0  0  0  0
  -14.6548  -43.7534  -59.1547 H   0  0  0  0  0  0  0  0  0  0  0  0
  -16.0917  -44.1293  -58.4761 H   0  0  0  0  0  0  0  0  0  0  0  0
  -15.7465  -42.5778  -58.8504 H   0  0  0  0  0  0  0  0  0  0  0  0
  -14.4604  -46.7910  -58.2386 H   0  0  0  0  0  0  0  0  0  0  0  0
   -9.7954  -45.4597  -57.2554 H   0  0  0  0  0  0  0  0  0  0  0  0
  -17.9167  -48.0515  -52.5401 H   0  0  0  0  0  0  0  0  0  0  0  0
  -17.6191  -49.0920  -54.7010 H   0  0  0  0  0  0  0  0  0  0  0  0
   -4.7689  -45.1665  -53.9487 H   0  0  0  0  0  0  0  0  0  0  0  0
   -9.5041  -45.2630  -54.3812 H   0  0  0  0  0  0  0  0  0  0  0  0
   -7.1204  -45.2541  -53.5431 H   0  0  0  0  0  0  0  0  0  0  0  0
  -15.3369  -44.9951  -53.6955 H   0  0  0  0  0  0  0  0  0  0  0  0
   -7.8790  -45.1669  -57.6267 H   0  0  0  0  0  0  0  0  0  0  0  0
  -13.7188  -44.6113  -55.3365 H   0  0  0  0  0  0  0  0  0  0  0  0
  1 20  1  0  0  0  0
  2 11  1  0  0  0  0
  2 21  1  0  0  0  0
  3  6  1  0  0  0  0
  3  7  2  0  0  0  0
  3 10  1  0  0  0  0
  3 22  1  0  0  0  0
  4 23  1  0  0  0  0
  5 24  1  0  0  0  0
  8 25  2  0  0  0  0
  9 12  1  0  0  0  0
  9 25  1  0  0  0  0
 11 27  2  0  0  0  0
 12 16  2  0  0  0  0
 13 14  1  0  0  0  0
 13 20  2  0  0  0  0
 14 21  2  0  0  0  0
 15 17  1  0  0  0  0
 15 23  2  0  0  0  0
 16 26  1  0  0  0  0
 17 26  2  0  0  0  0
 18 20  1  0  0  0  0
 18 28  2  0  0  0  0
 19 24  2  0  0  0  0
 19 26  1  0  0  0  0
 21 28  1  0  0  0  0
 22 25  1  0  0  0  0
 22 27  1  0  0  0  0
 23 24  1  0  0  0  0
 27 28  1  0  0  0  0
  6 29  1  0  0  0  0
  9 30  1  0  0  0  0
 10 31  1  0  0  0  0
 10 32  1  0  0  0  0
 10 33  1  0  0  0  0
 11 34  1  0  0  0  0
 12 35  1  0  0  0  0
 13 36  1  0  0  0  0
 14 37  1  0  0  0  0
 15 38  1  0  0  0  0
 16 39  1  0  0  0  0
 17 40  1  0  0  0  0
 18 41  1  0  0  0  0
 19 42  1  0  0  0  0
 22 43  1  0  0  0  0
M  END
> <pdb_id>
3N7O

> <uniprot_id>
P23946

> <usmiles>
Clc1cc2c(SC=C2[C@H](P(=O)(O)C)C(=O)N/C=C/c3cc(F)c(F)cc3)cc1

$$$$
N8M_A_368
          07202412333D 1   1.00000     0.00000     0
            
 42 44  0  0  0  0            999 V2000
  -23.6373   -2.1249   38.2069 O   0  0  0  0  0  0  0  0  0  0  0  0
  -22.7442   -4.7710   38.0960 O   0  0  0  0  0  0  0  0  0  0  0  0
  -25.8143   -4.9766   37.9581 O   0  0  0  0  0  0  0  0  0  0  0  0
  -30.7477   -0.8843   37.7885 N   0  0  0  0  0  0  0  0  0  0  0  0
  -30.0582   -2.4703   39.3601 N   0  0  0  0  0  0  0  0  0  0  0  0
  -27.9102   -3.6015   39.2547 N   0  0  0  0  0  0  0  0  0  0  0  0
  -27.9996   -1.3904   36.4168 N   0  0  0  0  0  0  0  0  0  0  0  0
  -26.9740   -6.2217   40.0646 N   0  0  0  0  0  0  0  0  0  0  0  0
  -26.5734   -2.8773   37.3148 N   0  0  0  0  0  0  0  0  0  0  0  0
  -27.6115   -6.3776   41.3865 C   0  0  0  0  0  0  0  0  0  0  0  0
  -26.9437   -7.5414   39.3961 C   0  0  0  0  0  0  0  0  0  0  0  0
  -25.8153   -1.7161   35.2415 C   0  0  0  0  0  0  0  0  0  0  0  0
  -29.1149   -3.3341   39.7973 C   0  0  0  0  0  0  0  0  0  0  0  0
  -25.6025   -5.7080   40.2462 C   0  0  0  0  0  0  0  0  0  0  0  0
  -25.3747   -3.6984   37.5173 C   0  0  1  0  0  0  0  0  0  0  0  0
  -29.8075   -1.7451   38.2216 C   0  0  0  0  0  0  0  0  0  0  0  0
  -24.4621   -3.1914   38.6276 C   0  0  1  0  0  0  0  0  0  0  0  0
  -23.7517   -4.4626   39.0410 C   0  0  1  0  0  0  0  0  0  0  0  0
  -24.8582   -5.5054   38.9348 C   0  0  2  0  0  0  0  0  0  0  0  0
  -26.8306   -1.9678   36.3146 C   0  0  0  0  0  0  0  0  0  0  0  0
  -27.6925   -2.8674   38.1281 C   0  0  0  0  0  0  0  0  0  0  0  0
  -28.5592   -1.9452   37.5575 C   0  0  0  0  0  0  0  0  0  0  0  0
  -23.0601   -1.8296   38.9682 H   0  0  0  0  0  0  0  0  0  0  0  0
  -22.2758   -5.6109   38.3702 H   0  0  0  0  0  0  0  0  0  0  0  0
  -30.5887   -0.3447   36.9617 H   0  0  0  0  0  0  0  0  0  0  0  0
  -31.6049   -0.7845   38.2935 H   0  0  0  0  0  0  0  0  0  0  0  0
  -27.6387   -5.4919   41.8500 H   0  0  0  0  0  0  0  0  0  0  0  0
  -28.5434   -6.7209   41.2688 H   0  0  0  0  0  0  0  0  0  0  0  0
  -27.0846   -7.0256   41.9364 H   0  0  0  0  0  0  0  0  0  0  0  0
  -26.5137   -7.4503   38.4979 H   0  0  0  0  0  0  0  0  0  0  0  0
  -26.4191   -8.1853   39.9531 H   0  0  0  0  0  0  0  0  0  0  0  0
  -27.8779   -7.8806   39.2855 H   0  0  0  0  0  0  0  0  0  0  0  0
  -25.0118   -2.2894   35.4017 H   0  0  0  0  0  0  0  0  0  0  0  0
  -26.2105   -1.9377   34.3500 H   0  0  0  0  0  0  0  0  0  0  0  0
  -25.5460   -0.7531   35.2566 H   0  0  0  0  0  0  0  0  0  0  0  0
  -29.3397   -3.8398   40.6302 H   0  0  0  0  0  0  0  0  0  0  0  0
  -25.0903   -6.3606   40.8046 H   0  0  0  0  0  0  0  0  0  0  0  0
  -25.6528   -4.8297   40.7218 H   0  0  0  0  0  0  0  0  0  0  0  0
  -24.8646   -3.7836   36.6615 H   0  0  0  0  0  0  0  0  0  0  0  0
  -25.0281   -2.8778   39.3900 H   0  0  0  0  0  0  0  0  0  0  0  0
  -23.3857   -4.4003   39.9695 H   0  0  0  0  0  0  0  0  0  0  0  0
  -24.4828   -6.3749   38.6137 H   0  0  0  0  0  0  0  0  0  0  0  0
  1 17  1  0  0  0  0
  2 18  1  0  0  0  0
  3 15  1  0  0  0  0
  3 19  1  0  0  0  0
  4 16  1  0  0  0  0
  5 13  1  0  0  0  0
  5 16  2  0  0  0  0
  6 13  2  0  0  0  0
  6 21  1  0  0  0  0
  7 20  2  0  0  0  0
  7 22  1  0  0  0  0
  8 10  1  0  0  0  0
  8 11  1  0  0  0  0
  8 14  1  0  0  0  0
  9 15  1  0  0  0  0
  9 20  1  0  0  0  0
  9 21  1  0  0  0  0
 12 20  1  0  0  0  0
 14 19  1  0  0  0  0
 15 17  1  0  0  0  0
 16 22  1  0  0  0  0
 17 18  1  0  0  0  0
 18 19  1  0  0  0  0
 21 22  2  0  0  0  0
  1 23  1  0  0  0  0
  2 24  1  0  0  0  0
  4 25  1  0  0  0  0
  4 26  1  0  0  0  0
 10 27  1  0  0  0  0
 10 28  1  0  0  0  0
 10 29  1  0  0  0  0
 11 30  1  0  0  0  0
 11 31  1  0  0  0  0
 11 32  1  0  0  0  0
 12 33  1  0  0  0  0
 12 34  1  0  0  0  0
 12 35  1  0  0  0  0
 13 36  1  0  0  0  0
 14 37  1  0  0  0  0
 14 38  1  0  0  0  0
 15 39  1  0  0  0  0
 17 40  1  0  0  0  0
 18 41  1  0  0  0  0
 19 42  1  0  0  0  0
M  END
> <pdb_id>
3H0W

> <uniprot_id>
P17707

> <usmiles>
O1[C@@H](N2c3ncnc(N)c3N=C2C)[C@H](O)[C@H](O)[C@H]1CN(C)C

$$$$
N8P_A_499
          07192417443D 1   1.00000     0.00000     0
            
 22 22  0  0  0  0            999 V2000
   -4.6489   20.0332   29.9678 O   0  0  0  0  0  0  0  0  0  0  0  0
   -8.4362   18.8603   28.7422 O   0  0  0  0  0  0  0  0  0  0  0  0
   -9.9518   18.5713   30.3005 O   0  0  0  0  0  0  0  0  0  0  0  0
   -6.3367   18.5592   30.4960 N   0  0  0  0  0  0  0  0  0  0  0  0
   -6.7187   21.0269   30.5828 C   0  0  0  0  0  0  0  0  0  0  0  0
   -5.5738   17.3372   30.2995 C   0  0  0  0  0  0  0  0  0  0  0  0
   -6.5914   16.2225   30.3797 C   0  0  0  0  0  0  0  0  0  0  0  0
   -7.6642   16.7775   31.2236 C   0  0  0  0  0  0  0  0  0  0  0  0
   -5.8258   19.8740   30.3231 C   0  0  0  0  0  0  0  0  0  0  0  0
   -8.7500   18.5869   29.9317 C   0  0  0  0  0  0  0  0  0  0  0  0
   -7.6692   18.2505   30.9325 C   0  0  2  0  0  0  0  0  0  0  0  0
   -7.4745   18.8677   28.4679 H   0  0  0  0  0  0  0  0  0  0  0  0
   -7.6211   20.6945   30.8568 H   0  0  0  0  0  0  0  0  0  0  0  0
   -6.3336   21.5883   31.3153 H   0  0  0  0  0  0  0  0  0  0  0  0
   -6.8041   21.5763   29.7516 H   0  0  0  0  0  0  0  0  0  0  0  0
   -4.8835   17.2350   31.0157 H   0  0  0  0  0  0  0  0  0  0  0  0
   -5.1275   17.3418   29.4046 H   0  0  0  0  0  0  0  0  0  0  0  0
   -6.1933   15.4078   30.8013 H   0  0  0  0  0  0  0  0  0  0  0  0
   -6.9380   15.9918   29.4705 H   0  0  0  0  0  0  0  0  0  0  0  0
   -7.4714   16.6115   32.1907 H   0  0  0  0  0  0  0  0  0  0  0  0
   -8.5454   16.3695   30.9845 H   0  0  0  0  0  0  0  0  0  0  0  0
   -7.8522   18.7455   31.7819 H   0  0  0  0  0  0  0  0  0  0  0  0
  1  9  2  0  0  0  0
  2 10  1  0  0  0  0
  3 10  2  0  0  0  0
  4  6  1  0  0  0  0
  4  9  1  0  0  0  0
  4 11  1  0  0  0  0
  5  9  1  0  0  0  0
  6  7  1  0  0  0  0
  7  8  1  0  0  0  0
  8 11  1  0  0  0  0
 10 11  1  0  0  0  0
  2 12  1  0  0  0  0
  5 13  1  0  0  0  0
  5 14  1  0  0  0  0
  5 15  1  0  0  0  0
  6 16  1  0  0  0  0
  6 17  1  0  0  0  0
  7 18  1  0  0  0  0
  7 19  1  0  0  0  0
  8 20  1  0  0  0  0
  8 21  1  0  0  0  0
 11 22  1  0  0  0  0
M  END
> <pdb_id>
4AYU

> <uniprot_id>
P02743

> <usmiles>
O=C(O)[C@@H]1N(C(=O)C)CCC1

$$$$
N8Y_A_1383
          07192416553D 1   1.00000     0.00000     0
            
 22 23  0  0  0  0            999 V2000
  204.6490   -9.7640   64.1550 O   0  0  0  0  0  0  0  0  0  0  0  0
  204.1680   -4.4850   64.4350 N   0  0  0  0  0  0  0  0  0  0  0  0
  202.8490   -4.1140   62.5600 N   0  0  0  0  0  0  0  0  0  0  0  0
  202.1650   -5.8880   61.1180 N   0  0  0  0  0  0  0  0  0  0  0  0
  205.3870   -9.4920   65.3420 C   0  0  0  0  0  0  0  0  0  0  0  0
  202.2290   -4.6330   61.4990 C   0  0  0  0  0  0  0  0  0  0  0  0
  203.3940   -9.0870   62.3440 C   0  0  0  0  0  0  0  0  0  0  0  0
  202.7730   -8.1520   61.5770 C   0  0  0  0  0  0  0  0  0  0  0  0
  204.1700   -7.3950   63.8540 C   0  0  0  0  0  0  0  0  0  0  0  0
  203.5160   -4.9800   63.3700 C   0  0  0  0  0  0  0  0  0  0  0  0
  204.0890   -8.7090   63.4820 C   0  0  0  0  0  0  0  0  0  0  0  0
  202.8210   -6.7840   61.9210 C   0  0  0  0  0  0  0  0  0  0  0  0
  203.5340   -6.3970   63.0850 C   0  0  0  0  0  0  0  0  0  0  0  0
  204.6661   -5.0998   65.0464 H   0  0  0  0  0  0  0  0  0  0  0  0
  204.1552   -3.5017   64.6164 H   0  0  0  0  0  0  0  0  0  0  0  0
  205.7341  -10.3492   65.7225 H   0  0  0  0  0  0  0  0  0  0  0  0
  206.1543   -8.8881   65.1264 H   0  0  0  0  0  0  0  0  0  0  0  0
  204.7908   -9.0477   66.0107 H   0  0  0  0  0  0  0  0  0  0  0  0
  201.7484   -3.9784   60.9154 H   0  0  0  0  0  0  0  0  0  0  0  0
  203.3491  -10.0521   62.0859 H   0  0  0  0  0  0  0  0  0  0  0  0
  202.2754   -8.4374   60.7579 H   0  0  0  0  0  0  0  0  0  0  0  0
  204.6821   -7.1405   64.6744 H   0  0  0  0  0  0  0  0  0  0  0  0
  1  5  1  0  0  0  0
  1 11  1  0  0  0  0
  2 10  1  0  0  0  0
  3  6  1  0  0  0  0
  3 10  2  0  0  0  0
  4  6  2  0  0  0  0
  4 12  1  0  0  0  0
  7  8  1  0  0  0  0
  7 11  2  0  0  0  0
  8 12  2  0  0  0  0
  9 11  1  0  0  0  0
  9 13  2  0  0  0  0
 10 13  1  0  0  0  0
 12 13  1  0  0  0  0
  2 14  1  0  0  0  0
  2 15  1  0  0  0  0
  5 16  1  0  0  0  0
  5 17  1  0  0  0  0
  5 18  1  0  0  0  0
  6 19  1  0  0  0  0
  7 20  1  0  0  0  0
  8 21  1  0  0  0  0
  9 22  1  0  0  0  0
M  END
> <pdb_id>
5AQR

> <uniprot_id>
P11142

> <usmiles>
O(c1cc2c(ncnc2cc1)N)C

$$$$
N93_B_802
          07192416263D 1   1.00000     0.00000     0
            
 40 42  0  0  0  0            999 V2000
  -45.1069   17.8318   16.5380 Cl  0  0  0  0  0  0  0  0  0  0  0  0
  -41.5402   17.4218    6.9280 Cl  0  0  0  0  0  0  0  0  0  0  0  0
  -36.9034   14.8087    7.1199 Cl  0  0  0  0  0  0  0  0  0  0  0  0
  -41.7558   11.8862    8.8266 N   0  0  0  0  0  0  0  0  0  0  0  0
  -44.9251   14.0660   13.2596 N   0  0  0  0  0  0  0  0  0  0  0  0
  -42.7747   14.1352   12.8167 N   0  0  0  0  0  0  0  0  0  0  0  0
  -45.0379   15.8498   14.8831 N   0  0  0  0  0  0  0  0  0  0  0  0
  -44.1297   12.6191   11.6588 N   0  0  0  0  0  0  0  0  0  0  0  0
  -45.4549   12.0580   11.4951 C   0  0  0  0  0  0  0  0  0  0  0  0
  -42.9092   12.5388    9.4554 C   0  0  0  0  0  0  0  0  0  0  0  0
  -41.4908   12.3033    7.4426 C   0  0  0  0  0  0  0  0  0  0  0  0
  -43.0531   12.0209   10.8718 C   0  0  0  0  0  0  0  0  0  0  0  0
  -42.9495   16.9283   15.2481 C   0  0  0  0  0  0  0  0  0  0  0  0
  -42.3316   16.0415   14.3964 C   0  0  0  0  0  0  0  0  0  0  0  0
  -39.3037   15.9898    7.0818 C   0  0  0  0  0  0  0  0  0  0  0  0
  -41.3774   14.7787    7.1682 C   0  0  0  0  0  0  0  0  0  0  0  0
  -39.3082   13.5975    7.3140 C   0  0  0  0  0  0  0  0  0  0  0  0
  -43.9147   13.5680   12.5242 C   0  0  0  0  0  0  0  0  0  0  0  0
  -44.2865   16.7754   15.4441 C   0  0  0  0  0  0  0  0  0  0  0  0
  -44.3910   15.0131   14.0753 C   0  0  0  0  0  0  0  0  0  0  0  0
  -40.6736   15.9482    7.0684 C   0  0  0  0  0  0  0  0  0  0  0  0
  -38.6424   14.7979    7.1921 C   0  0  0  0  0  0  0  0  0  0  0  0
  -43.0958   15.0458   13.7966 C   0  0  0  0  0  0  0  0  0  0  0  0
  -40.6992   13.5828    7.3046 C   0  0  0  0  0  0  0  0  0  0  0  0
  -41.9174   10.8994    8.8286 H   0  0  0  0  0  0  0  0  0  0  0  0
  -45.8857   13.7918   13.2147 H   0  0  0  0  0  0  0  0  0  0  0  0
  -46.0993   12.5485   12.0818 H   0  0  0  0  0  0  0  0  0  0  0  0
  -45.7389   12.1471   10.5405 H   0  0  0  0  0  0  0  0  0  0  0  0
  -45.4413   11.0912   11.7500 H   0  0  0  0  0  0  0  0  0  0  0  0
  -43.7377   12.3300    8.9357 H   0  0  0  0  0  0  0  0  0  0  0  0
  -42.7670   13.5285    9.4725 H   0  0  0  0  0  0  0  0  0  0  0  0
  -42.3697   12.4306    6.9828 H   0  0  0  0  0  0  0  0  0  0  0  0
  -40.9807   11.5720    6.9900 H   0  0  0  0  0  0  0  0  0  0  0  0
  -43.2186   11.0359   10.8235 H   0  0  0  0  0  0  0  0  0  0  0  0
  -42.1917   12.1911   11.3502 H   0  0  0  0  0  0  0  0  0  0  0  0
  -42.4364   17.6555   15.7041 H   0  0  0  0  0  0  0  0  0  0  0  0
  -41.3512   16.1115   14.2121 H   0  0  0  0  0  0  0  0  0  0  0  0
  -38.8083   16.8558    7.0136 H   0  0  0  0  0  0  0  0  0  0  0  0
  -42.3770   14.7896    7.1426 H   0  0  0  0  0  0  0  0  0  0  0  0
  -38.7956   12.7440    7.4085 H   0  0  0  0  0  0  0  0  0  0  0  0
  1 19  1  0  0  0  0
  2 21  1  0  0  0  0
  3 22  1  0  0  0  0
  4 10  1  0  0  0  0
  4 11  1  0  0  0  0
  5 18  1  0  0  0  0
  5 20  1  0  0  0  0
  6 18  2  0  0  0  0
  6 23  1  0  0  0  0
  7 19  1  0  0  0  0
  7 20  2  0  0  0  0
  8  9  1  0  0  0  0
  8 12  1  0  0  0  0
  8 18  1  0  0  0  0
 10 12  1  0  0  0  0
 11 24  1  0  0  0  0
 13 14  1  0  0  0  0
 13 19  2  0  0  0  0
 14 23  2  0  0  0  0
 15 21  2  0  0  0  0
 15 22  1  0  0  0  0
 16 21  1  0  0  0  0
 16 24  2  0  0  0  0
 17 22  2  0  0  0  0
 17 24  1  0  0  0  0
 20 23  1  0  0  0  0
  4 25  1  0  0  0  0
  5 26  1  0  0  0  0
  9 27  1  0  0  0  0
  9 28  1  0  0  0  0
  9 29  1  0  0  0  0
 10 30  1  0  0  0  0
 10 31  1  0  0  0  0
 11 32  1  0  0  0  0
 11 33  1  0  0  0  0
 12 34  1  0  0  0  0
 12 35  1  0  0  0  0
 13 36  1  0  0  0  0
 14 37  1  0  0  0  0
 15 38  1  0  0  0  0
 16 39  1  0  0  0  0
 17 40  1  0  0  0  0
M  END
> <pdb_id>
5J59

> <uniprot_id>
Q38C91

> <usmiles>
Clc1nc2NC(=Nc2cc1)N(CCNCc3cc(Cl)cc(Cl)c3)C

$$$$
NB1_B_1590
          07202405173D 1   1.00000     0.00000     0
            
 33 34  0  0  0  0            999 V2000
   27.3886    0.9662  292.8254 S   0  0  0  0  0  0  0  0  0  0  0  0
   26.3604    3.1452  287.8067 O   0  0  0  0  0  0  0  0  0  0  0  0
   28.0482    5.1422  290.2127 O   0  0  0  0  0  0  0  0  0  0  0  0
   30.4540    3.9570  291.0894 O   0  0  0  0  0  0  0  0  0  0  0  0
   27.0835    1.6323  290.1650 O   0  0  0  0  0  0  0  0  0  0  0  0
   29.7528    1.5009  292.7035 N   0  0  0  0  0  0  0  0  0  0  0  0
   28.1983    0.4372  297.4116 C   0  0  0  0  0  0  0  0  0  0  0  0
   25.8143    3.3602  289.0943 C   0  0  0  0  0  0  0  0  0  0  0  0
   27.9153    0.6348  295.9196 C   0  0  0  0  0  0  0  0  0  0  0  0
   29.1914    0.9565  295.1327 C   0  0  0  0  0  0  0  0  0  0  0  0
   27.9411    1.0746  291.1456 C   0  0  1  0  0  0  0  0  0  0  0  0
   28.8643    1.1624  293.6680 C   0  0  0  0  0  0  0  0  0  0  0  0
   28.2444    3.7583  290.0364 C   0  0  1  0  0  0  0  0  0  0  0  0
   29.1710    3.3635  291.1955 C   0  0  1  0  0  0  0  0  0  0  0  0
   26.8776    3.0319  290.1780 C   0  0  2  0  0  0  0  0  0  0  0  0
   29.3125    1.8330  291.3298 C   0  0  1  0  0  0  0  0  0  0  0  0
   25.6722    3.3578  287.1130 H   0  0  0  0  0  0  0  0  0  0  0  0
   27.4482    5.4883  289.4914 H   0  0  0  0  0  0  0  0  0  0  0  0
   31.0186    3.6711  291.8637 H   0  0  0  0  0  0  0  0  0  0  0  0
   27.3441    0.2299  297.8884 H   0  0  0  0  0  0  0  0  0  0  0  0
   28.8396   -0.3207  297.5317 H   0  0  0  0  0  0  0  0  0  0  0  0
   28.5962    1.2735  297.7889 H   0  0  0  0  0  0  0  0  0  0  0  0
   25.0181    2.7685  289.2204 H   0  0  0  0  0  0  0  0  0  0  0  0
   25.5358    4.3167  289.1814 H   0  0  0  0  0  0  0  0  0  0  0  0
   27.2691    1.3901  295.8104 H   0  0  0  0  0  0  0  0  0  0  0  0
   27.5124   -0.2040  295.5532 H   0  0  0  0  0  0  0  0  0  0  0  0
   29.8360    0.1974  295.2237 H   0  0  0  0  0  0  0  0  0  0  0  0
   29.6044    1.7902  295.4993 H   0  0  0  0  0  0  0  0  0  0  0  0
   28.1588    0.1448  290.8489 H   0  0  0  0  0  0  0  0  0  0  0  0
   28.6680    3.5628  289.1519 H   0  0  0  0  0  0  0  0  0  0  0  0
   28.7543    3.7006  292.0398 H   0  0  0  0  0  0  0  0  0  0  0  0
   26.4925    3.2760  291.0680 H   0  0  0  0  0  0  0  0  0  0  0  0
   29.9803    1.4938  290.6673 H   0  0  0  0  0  0  0  0  0  0  0  0
  1 11  1  0  0  0  0
  1 12  1  0  0  0  0
  2  8  1  0  0  0  0
  3 13  1  0  0  0  0
  4 14  1  0  0  0  0
  5 11  1  0  0  0  0
  5 15  1  0  0  0  0
  6 12  2  0  0  0  0
  6 16  1  0  0  0  0
  7  9  1  0  0  0  0
  8 15  1  0  0  0  0
  9 10  1  0  0  0  0
 10 12  1  0  0  0  0
 11 16  1  0  0  0  0
 13 14  1  0  0  0  0
 13 15  1  0  0  0  0
 14 16  1  0  0  0  0
  2 17  1  0  0  0  0
  3 18  1  0  0  0  0
  4 19  1  0  0  0  0
  7 20  1  0  0  0  0
  7 21  1  0  0  0  0
  7 22  1  0  0  0  0
  8 23  1  0  0  0  0
  8 24  1  0  0  0  0
  9 25  1  0  0  0  0
  9 26  1  0  0  0  0
 10 27  1  0  0  0  0
 10 28  1  0  0  0  0
 11 29  1  0  0  0  0
 13 30  1  0  0  0  0
 14 31  1  0  0  0  0
 15 32  1  0  0  0  0
 16 33  1  0  0  0  0
M  END
> <pdb_id>
2J4G

> <uniprot_id>
Q89ZI2

> <usmiles>
S1C(=N[C@H]2[C@@H]1O[C@@H]([C@@H](O)[C@@H]2O)CO)CCC

$$$$
NB4_P_302
          07202403373D 1   1.00000     0.00000     0
            
 68 71  0  0  0  0            999 V2000
   23.0040   -6.8020    2.9000 F   0  0  0  0  0  0  0  0  0  0  0  0
   30.9560   -4.0870    4.8530 O   0  0  0  0  0  0  0  0  0  0  0  0
   30.9930   -1.4430    5.3820 O   0  0  0  0  0  0  0  0  0  0  0  0
   25.6830   -4.2500    4.3000 O   0  0  0  0  0  0  0  0  0  0  0  0
   18.2070   -6.4020   -0.0890 O   0  0  0  0  0  0  0  0  0  0  0  0
   23.9840   -6.6960    6.3310 N   0  0  0  0  0  0  0  0  0  0  0  0
   21.6160   -6.5220    6.2160 N   0  0  0  0  0  0  0  0  0  0  0  0
   26.3600   -6.2950    4.9470 N   0  0  0  0  0  0  0  0  0  0  0  0
   25.2360   -6.9090    4.4350 N   0  0  0  0  0  0  0  0  0  0  0  0
   29.8470   -3.2580    4.6970 N   0  0  0  0  0  0  0  0  0  0  0  0
   18.0830   -6.1290    2.7420 N   0  0  0  0  0  0  0  0  0  0  0  0
   20.4580   -6.5570    4.2100 N   0  0  0  0  0  0  0  0  0  0  0  0
   22.7050   -6.4960    8.3610 C   0  0  0  0  0  0  0  0  0  0  0  0
   29.9730   -1.9630    4.9870 C   0  0  0  0  0  0  0  0  0  0  0  0
   16.9790   -6.1520    0.5820 C   0  0  0  0  0  0  0  0  0  0  0  0
   19.0520   -7.1760    0.7550 C   0  0  0  0  0  0  0  0  0  0  0  0
   17.1980   -5.3710    1.8480 C   0  0  0  0  0  0  0  0  0  0  0  0
   18.3610   -5.3490    3.9550 C   0  0  0  0  0  0  0  0  0  0  0  0
   19.2290   -6.1620    4.8910 C   0  0  0  0  0  0  0  0  0  0  0  0
   28.5870   -3.7830    4.2520 C   0  0  0  0  0  0  0  0  0  0  0  0
   20.2110   -7.2830    2.9590 C   0  0  0  0  0  0  0  0  0  0  0  0
   26.4550   -5.1450    9.7450 C   0  0  0  0  0  0  0  0  0  0  0  0
   25.9450   -3.7580    9.9820 C   0  0  0  0  0  0  0  0  0  0  0  0
   27.1060   -5.1740    8.3680 C   0  0  0  0  0  0  0  0  0  0  0  0
   26.2540   -2.9440    8.7010 C   0  0  0  0  0  0  0  0  0  0  0  0
   27.4570   -3.4480    6.5190 C   0  0  0  0  0  0  0  0  0  0  0  0
   26.5250   -4.9740    4.8230 C   0  0  0  0  0  0  0  0  0  0  0  0
   22.7730   -6.5710    6.8780 C   0  0  0  0  0  0  0  0  0  0  0  0
   22.8950   -6.7340    4.2400 C   0  0  0  0  0  0  0  0  0  0  0  0
   24.0350   -6.7820    4.9910 C   0  0  0  0  0  0  0  0  0  0  0  0
   21.6540   -6.6170    4.8810 C   0  0  0  0  0  0  0  0  0  0  0  0
   19.3470   -6.4390    2.0460 C   0  0  2  0  0  0  0  0  0  0  0  0
   26.5190   -3.9800    7.6020 C   0  0  0  0  0  0  0  0  0  0  0  0
   27.8010   -4.4240    5.3890 C   0  0  1  0  0  0  0  0  0  0  0  0
   26.9240   -6.8130    5.3380 H   0  0  0  0  0  0  0  0  0  0  0  0
   25.3230   -7.3910    3.7290 H   0  0  0  0  0  0  0  0  0  0  0  0
   21.9420   -5.9610    8.6320 H   0  0  0  0  0  0  0  0  0  0  0  0
   23.5140   -6.0890    8.7110 H   0  0  0  0  0  0  0  0  0  0  0  0
   22.6140   -7.3860    8.7360 H   0  0  0  0  0  0  0  0  0  0  0  0
   16.5570   -7.0030    0.7770 H   0  0  0  0  0  0  0  0  0  0  0  0
   16.3940   -5.6650   -0.0200 H   0  0  0  0  0  0  0  0  0  0  0  0
   19.8710   -7.3690    0.2720 H   0  0  0  0  0  0  0  0  0  0  0  0
   18.6130   -8.0220    0.9320 H   0  0  0  0  0  0  0  0  0  0  0  0
   16.3420   -5.2090    2.2740 H   0  0  0  0  0  0  0  0  0  0  0  0
   17.5920   -4.5120    1.6290 H   0  0  0  0  0  0  0  0  0  0  0  0
   17.5380   -5.1130    4.4100 H   0  0  0  0  0  0  0  0  0  0  0  0
   18.8180   -4.5220    3.7370 H   0  0  0  0  0  0  0  0  0  0  0  0
   18.7490   -6.9520    5.1840 H   0  0  0  0  0  0  0  0  0  0  0  0
   19.4440   -5.6400    5.6790 H   0  0  0  0  0  0  0  0  0  0  0  0
   28.7780   -4.4240    3.5490 H   0  0  0  0  0  0  0  0  0  0  0  0
   28.0960   -3.0480    3.8530 H   0  0  0  0  0  0  0  0  0  0  0  0
   21.0570   -7.4870    2.5310 H   0  0  0  0  0  0  0  0  0  0  0  0
   19.7730   -8.1260    3.1550 H   0  0  0  0  0  0  0  0  0  0  0  0
   27.0960   -5.3860   10.4320 H   0  0  0  0  0  0  0  0  0  0  0  0
   25.7250   -5.7810    9.7930 H   0  0  0  0  0  0  0  0  0  0  0  0
   24.9920   -3.7760   10.1610 H   0  0  0  0  0  0  0  0  0  0  0  0
   26.3800   -3.3670   10.7560 H   0  0  0  0  0  0  0  0  0  0  0  0
   28.0710   -5.0980    8.4440 H   0  0  0  0  0  0  0  0  0  0  0  0
   26.9100   -6.0080    7.9140 H   0  0  0  0  0  0  0  0  0  0  0  0
   25.5040   -2.3750    8.4690 H   0  0  0  0  0  0  0  0  0  0  0  0
   27.0270   -2.3750    8.8370 H   0  0  0  0  0  0  0  0  0  0  0  0
   27.0460   -2.6540    6.1430 H   0  0  0  0  0  0  0  0  0  0  0  0
   28.2740   -3.1630    6.9570 H   0  0  0  0  0  0  0  0  0  0  0  0
   19.8150   -5.6150    1.8400 H   0  0  0  0  0  0  0  0  0  0  0  0
   25.6780   -4.2480    7.2000 H   0  0  0  0  0  0  0  0  0  0  0  0
   28.3540   -5.1360    5.7460 H   0  0  0  0  0  0  0  0  0  0  0  0
   30.7110   -5.0227    4.5992 H   0  0  0  0  0  0  0  0  0  0  0  0
   29.1690   -1.3800    4.8702 H   0  0  0  0  0  0  0  0  0  0  0  0
  1 29  1  0  0  0  0
  2 10  1  0  0  0  0
  3 14  2  0  0  0  0
  4 27  2  0  0  0  0
  5 15  1  0  0  0  0
  5 16  1  0  0  0  0
  6 28  2  0  0  0  0
  6 30  1  0  0  0  0
  7 28  1  0  0  0  0
  7 31  2  0  0  0  0
  8  9  1  0  0  0  0
  8 27  1  0  0  0  0
  8 35  1  0  0  0  0
  9 30  1  0  0  0  0
  9 36  1  0  0  0  0
 10 14  1  0  0  0  0
 10 20  1  0  0  0  0
 11 17  1  0  0  0  0
 11 18  1  0  0  0  0
 11 32  1  0  0  0  0
 12 19  1  0  0  0  0
 12 21  1  0  0  0  0
 12 31  1  0  0  0  0
 13 28  1  0  0  0  0
 13 37  1  0  0  0  0
 13 38  1  0  0  0  0
 13 39  1  0  0  0  0
 15 17  1  0  0  0  0
 15 40  1  0  0  0  0
 15 41  1  0  0  0  0
 16 32  1  0  0  0  0
 16 42  1  0  0  0  0
 16 43  1  0  0  0  0
 17 44  1  0  0  0  0
 17 45  1  0  0  0  0
 18 19  1  0  0  0  0
 18 46  1  0  0  0  0
 18 47  1  0  0  0  0
 19 48  1  0  0  0  0
 19 49  1  0  0  0  0
 20 34  1  0  0  0  0
 20 50  1  0  0  0  0
 20 51  1  0  0  0  0
 21 32  1  0  0  0  0
 21 52  1  0  0  0  0
 21 53  1  0  0  0  0
 22 23  1  0  0  0  0
 22 24  1  0  0  0  0
 22 54  1  0  0  0  0
 22 55  1  0  0  0  0
 23 25  1  0  0  0  0
 23 56  1  0  0  0  0
 23 57  1  0  0  0  0
 24 33  1  0  0  0  0
 24 58  1  0  0  0  0
 24 59  1  0  0  0  0
 25 33  1  0  0  0  0
 25 60  1  0  0  0  0
 25 61  1  0  0  0  0
 26 33  1  0  0  0  0
 26 34  1  0  0  0  0
 26 62  1  0  0  0  0
 26 63  1  0  0  0  0
 27 34  1  0  0  0  0
 29 30  2  0  0  0  0
 29 31  1  0  0  0  0
 32 64  1  0  0  0  0
 33 65  1  0  0  0  0
 34 66  1  0  0  0  0
  2 67  1  0  0  0  0
 14 68  1  0  0  0  0
M  END
> <pdb_id>
6OW2

> <uniprot_id>
Q939R9

> <usmiles>
Fc1c(nc(nc1NNC(=O)[C@@H](CN(O)C=O)CC2CCCC2)C)N3C[C@@H]4N(CCOC4)CC3

$$$$
NB9_D_2005
          07202416383D 1   1.00000     0.00000     0
            
 62 64  0  0  0  0            999 V2000
   72.9210  100.2400   94.0890 O   0  0  0  0  0  0  0  0  0  0  0  0
   73.8600  102.2300   94.2100 O   0  0  0  0  0  0  0  0  0  0  0  0
   78.7120   93.0600   94.8520 O   0  0  0  0  0  0  0  0  0  0  0  0
   78.4570  101.0630   90.7410 O   0  0  0  0  0  0  0  0  0  0  0  0
   77.6820   93.9110   91.9460 O   0  0  0  0  0  0  0  0  0  0  0  0
   74.9000   99.2530   92.6320 O   0  0  0  0  0  0  0  0  0  0  0  0
   84.1840   88.3310   95.7000 N   0  0  0  0  0  0  0  0  0  0  0  0
   82.6720   86.8790   94.5890 N   0  0  0  0  0  0  0  0  0  0  0  0
   80.2340   93.7830   93.1990 N   0  0  0  0  0  0  0  0  0  0  0  0
   77.0110   95.6910   93.2360 N   0  0  0  0  0  0  0  0  0  0  0  0
   75.1940  100.4850   93.2910 C   0  0  0  0  0  0  0  0  0  0  0  0
   75.5090   95.5770   93.1090 C   0  0  0  0  0  0  0  0  0  0  0  0
   77.3910   96.8710   94.1090 C   0  0  0  0  0  0  0  0  0  0  0  0
   79.9450   99.4760   91.7850 C   0  0  0  0  0  0  0  0  0  0  0  0
   78.2240   98.7190   90.2820 C   0  0  0  0  0  0  0  0  0  0  0  0
   74.8390   96.8860   92.6690 C   0  0  0  0  0  0  0  0  0  0  0  0
   76.7580   98.1850   93.6660 C   0  0  0  0  0  0  0  0  0  0  0  0
   80.3640   98.1610   91.9810 C   0  0  0  0  0  0  0  0  0  0  0  0
   78.6350   97.4050   90.4710 C   0  0  0  0  0  0  0  0  0  0  0  0
   80.0250   90.3830   94.9660 C   0  0  0  0  0  0  0  0  0  0  0  0
   81.9300   91.6590   94.1910 C   0  0  0  0  0  0  0  0  0  0  0  0
   80.8530   89.2710   95.1600 C   0  0  0  0  0  0  0  0  0  0  0  0
   82.7490   90.5610   94.3810 C   0  0  0  0  0  0  0  0  0  0  0  0
   80.1740   95.6460   91.5480 C   0  0  0  0  0  0  0  0  0  0  0  0
   73.9290  101.0170   93.8930 C   0  0  0  0  0  0  0  0  0  0  0  0
   79.7260   92.8440   94.2390 C   0  0  0  0  0  0  0  0  0  0  0  0
   78.8750   99.7490   90.9350 C   0  0  0  0  0  0  0  0  0  0  0  0
   78.0150   94.7850   92.5960 C   0  0  0  0  0  0  0  0  0  0  0  0
   83.0720   88.1760   95.0780 C   0  0  0  0  0  0  0  0  0  0  0  0
   75.2950   98.1020   93.3850 C   0  0  0  0  0  0  0  0  0  0  0  0
   79.5160   95.0550   92.8280 C   0  0  1  0  0  0  0  0  0  0  0  0
   79.7120   97.1290   91.3250 C   0  0  0  0  0  0  0  0  0  0  0  0
   80.5830   91.5780   94.4890 C   0  0  0  0  0  0  0  0  0  0  0  0
   82.1920   89.3570   94.8700 C   0  0  0  0  0  0  0  0  0  0  0  0
   72.9775   99.2742   93.8360 H   0  0  0  0  0  0  0  0  0  0  0  0
   77.6891  101.2585   90.1310 H   0  0  0  0  0  0  0  0  0  0  0  0
   84.4485   89.2359   96.0334 H   0  0  0  0  0  0  0  0  0  0  0  0
   84.7859   87.5468   95.8512 H   0  0  0  0  0  0  0  0  0  0  0  0
   81.8028   86.7730   94.1060 H   0  0  0  0  0  0  0  0  0  0  0  0
   81.0871   93.5596   92.7276 H   0  0  0  0  0  0  0  0  0  0  0  0
   75.5557  101.1428   92.6303 H   0  0  0  0  0  0  0  0  0  0  0  0
   75.8705  100.3293   94.0108 H   0  0  0  0  0  0  0  0  0  0  0  0
   75.1341   95.3108   93.9970 H   0  0  0  0  0  0  0  0  0  0  0  0
   75.2998   94.8700   92.4334 H   0  0  0  0  0  0  0  0  0  0  0  0
   78.3853   96.9749   94.0852 H   0  0  0  0  0  0  0  0  0  0  0  0
   77.0983   96.6788   95.0457 H   0  0  0  0  0  0  0  0  0  0  0  0
   80.4129  100.2245   92.2550 H   0  0  0  0  0  0  0  0  0  0  0  0
   77.4566   98.9197   89.6730 H   0  0  0  0  0  0  0  0  0  0  0  0
   73.8539   96.7930   92.8140 H   0  0  0  0  0  0  0  0  0  0  0  0
   75.0218   97.0144   91.6943 H   0  0  0  0  0  0  0  0  0  0  0  0
   77.2196   98.4889   92.8326 H   0  0  0  0  0  0  0  0  0  0  0  0
   76.8993   98.8598   94.3903 H   0  0  0  0  0  0  0  0  0  0  0  0
   81.1309   97.9634   92.5916 H   0  0  0  0  0  0  0  0  0  0  0  0
   78.1643   96.6592   89.9996 H   0  0  0  0  0  0  0  0  0  0  0  0
   79.0467   90.3259   95.1653 H   0  0  0  0  0  0  0  0  0  0  0  0
   82.3129   92.5125   93.8376 H   0  0  0  0  0  0  0  0  0  0  0  0
   80.4699   88.4158   95.5091 H   0  0  0  0  0  0  0  0  0  0  0  0
   83.7258   90.6181   94.1745 H   0  0  0  0  0  0  0  0  0  0  0  0
   79.9066   95.0958   90.7569 H   0  0  0  0  0  0  0  0  0  0  0  0
   81.1686   95.6231   91.6491 H   0  0  0  0  0  0  0  0  0  0  0  0
   74.8158   98.1347   94.2621 H   0  0  0  0  0  0  0  0  0  0  0  0
   79.6148   95.7120   93.5754 H   0  0  0  0  0  0  0  0  0  0  0  0
  1 25  1  0  0  0  0
  2 25  2  0  0  0  0
  3 26  2  0  0  0  0
  4 27  1  0  0  0  0
  5 28  2  0  0  0  0
  6 11  1  0  0  0  0
  6 30  1  0  0  0  0
  7 29  1  0  0  0  0
  8 29  2  0  0  0  0
  9 26  1  0  0  0  0
  9 31  1  0  0  0  0
 10 12  1  0  0  0  0
 10 13  1  0  0  0  0
 10 28  1  0  0  0  0
 11 25  1  0  0  0  0
 12 16  1  0  0  0  0
 13 17  1  0  0  0  0
 14 18  1  0  0  0  0
 14 27  2  0  0  0  0
 15 19  2  0  0  0  0
 15 27  1  0  0  0  0
 16 30  1  0  0  0  0
 17 30  1  0  0  0  0
 18 32  2  0  0  0  0
 19 32  1  0  0  0  0
 20 22  1  0  0  0  0
 20 33  2  0  0  0  0
 21 23  2  0  0  0  0
 21 33  1  0  0  0  0
 22 34  2  0  0  0  0
 23 34  1  0  0  0  0
 24 31  1  0  0  0  0
 24 32  1  0  0  0  0
 26 33  1  0  0  0  0
 28 31  1  0  0  0  0
 29 34  1  0  0  0  0
  1 35  1  0  0  0  0
  4 36  1  0  0  0  0
  7 37  1  0  0  0  0
  7 38  1  0  0  0  0
  8 39  1  0  0  0  0
  9 40  1  0  0  0  0
 11 41  1  0  0  0  0
 11 42  1  0  0  0  0
 12 43  1  0  0  0  0
 12 44  1  0  0  0  0
 13 45  1  0  0  0  0
 13 46  1  0  0  0  0
 14 47  1  0  0  0  0
 15 48  1  0  0  0  0
 16 49  1  0  0  0  0
 16 50  1  0  0  0  0
 17 51  1  0  0  0  0
 17 52  1  0  0  0  0
 18 53  1  0  0  0  0
 19 54  1  0  0  0  0
 20 55  1  0  0  0  0
 21 56  1  0  0  0  0
 22 57  1  0  0  0  0
 23 58  1  0  0  0  0
 24 59  1  0  0  0  0
 24 60  1  0  0  0  0
 30 61  1  0  0  0  0
 31 62  1  0  0  0  0
M  END
> <pdb_id>
7UJK

> <uniprot_id>
P08514

> <usmiles>
O=C(O)COC1CCN(C(=O)[C@@H](NC(=O)c2ccc(cc2)C(=N)N)Cc3ccc(O)cc3)CC1

$$$$
NBG_A_1
          07202400133D 1   1.00000     0.00000     0
            
 30 30  0  0  0  0            999 V2000
   33.3204   18.7206   27.3340 O   0  0  0  0  0  0  0  0  0  0  0  0
   34.2323   24.2639   29.9622 O   0  0  0  0  0  0  0  0  0  0  0  0
   34.0561   24.4236   26.2591 O   0  0  0  0  0  0  0  0  0  0  0  0
   32.9944   22.6979   24.1754 O   0  0  0  0  0  0  0  0  0  0  0  0
   31.3802   20.7098   25.2663 O   0  0  0  0  0  0  0  0  0  0  0  0
   33.6866   21.3443   27.9359 O   0  0  0  0  0  0  0  0  0  0  0  0
   35.1536   23.0237   28.3912 N   0  0  0  0  0  0  0  0  0  0  0  0
   36.5419   24.0823   29.9055 C   0  0  0  0  0  0  0  0  0  0  0  0
   32.2709   19.5024   27.7978 C   0  0  0  0  0  0  0  0  0  0  0  0
   35.1896   23.8114   29.4281 C   0  0  0  0  0  0  0  0  0  0  0  0
   33.9451   22.6936   27.7331 C   0  0  1  0  0  0  0  0  0  0  0  0
   34.0714   23.0279   26.2757 C   0  0  1  0  0  0  0  0  0  0  0  0
   32.8551   22.5178   25.5429 C   0  0  2  0  0  0  0  0  0  0  0  0
   32.5874   21.0725   25.8557 C   0  0  1  0  0  0  0  0  0  0  0  0
   32.4987   20.9169   27.3614 C   0  0  2  0  0  0  0  0  0  0  0  0
   33.1807   17.7722   27.6188 H   0  0  0  0  0  0  0  0  0  0  0  0
   34.1365   24.7467   25.3162 H   0  0  0  0  0  0  0  0  0  0  0  0
   32.1793   22.3540   23.7092 H   0  0  0  0  0  0  0  0  0  0  0  0
   31.1874   19.7490   25.4655 H   0  0  0  0  0  0  0  0  0  0  0  0
   36.0103   22.6387   28.0480 H   0  0  0  0  0  0  0  0  0  0  0  0
   37.2024   23.6107   29.3213 H   0  0  0  0  0  0  0  0  0  0  0  0
   36.7147   25.0668   29.8766 H   0  0  0  0  0  0  0  0  0  0  0  0
   36.6353   23.7550   30.8458 H   0  0  0  0  0  0  0  0  0  0  0  0
   32.2348   19.4596   28.7963 H   0  0  0  0  0  0  0  0  0  0  0  0
   31.4084   19.1676   27.4185 H   0  0  0  0  0  0  0  0  0  0  0  0
   33.2006   23.2317   28.1283 H   0  0  0  0  0  0  0  0  0  0  0  0
   34.9170   22.6635   25.8855 H   0  0  0  0  0  0  0  0  0  0  0  0
   32.0654   23.0511   25.8460 H   0  0  0  0  0  0  0  0  0  0  0  0
   33.3270   20.5031   25.4968 H   0  0  0  0  0  0  0  0  0  0  0  0
   31.7505   21.4859   27.7026 H   0  0  0  0  0  0  0  0  0  0  0  0
  1  9  1  0  0  0  0
  2 10  2  0  0  0  0
  3 12  1  0  0  0  0
  4 13  1  0  0  0  0
  5 14  1  0  0  0  0
  6 11  1  0  0  0  0
  6 15  1  0  0  0  0
  7 10  1  0  0  0  0
  7 11  1  0  0  0  0
  8 10  1  0  0  0  0
  9 15  1  0  0  0  0
 11 12  1  0  0  0  0
 12 13  1  0  0  0  0
 13 14  1  0  0  0  0
 14 15  1  0  0  0  0
  1 16  1  0  0  0  0
  3 17  1  0  0  0  0
  4 18  1  0  0  0  0
  5 19  1  0  0  0  0
  7 20  1  0  0  0  0
  8 21  1  0  0  0  0
  8 22  1  0  0  0  0
  8 23  1  0  0  0  0
  9 24  1  0  0  0  0
  9 25  1  0  0  0  0
 11 26  1  0  0  0  0
 12 27  1  0  0  0  0
 13 28  1  0  0  0  0
 14 29  1  0  0  0  0
 15 30  1  0  0  0  0
M  END
> <pdb_id>
3CEM

> <uniprot_id>
P06737

> <usmiles>
O=C(N[C@@H]1O[C@@H]([C@@H](O)[C@H](O)[C@H]1O)CO)C

$$$$
NDZ_B_302
          07202401353D 1   1.00000     0.00000     0
            
 37 38  0  0  0  0            999 V2000
    7.4150   16.8340    7.9410 O   0  0  0  0  0  0  0  0  0  0  0  0
    8.8250   16.5100    6.3040 O   0  0  0  0  0  0  0  0  0  0  0  0
    6.7800   11.7290    4.8750 O   0  0  0  0  0  0  0  0  0  0  0  0
    8.4490   13.0660    4.3100 O   0  0  0  0  0  0  0  0  0  0  0  0
    4.1380   10.7360    4.4710 O   0  0  0  0  0  0  0  0  0  0  0  0
    2.2560   12.7090    5.1550 O   0  0  0  0  0  0  0  0  0  0  0  0
    5.0690   12.0960    2.1450 O   0  0  0  0  0  0  0  0  0  0  0  0
    4.9400   13.6140    4.6680 O   0  0  0  0  0  0  0  0  0  0  0  0
    5.6180   14.9870    7.0690 N   0  0  0  0  0  0  0  0  0  0  0  0
    3.8550   11.3080    2.0990 C   0  0  0  0  0  0  0  0  0  0  0  0
    6.0390   14.1680    2.6250 C   0  0  0  0  0  0  0  0  0  0  0  0
    6.6580   15.2590    4.8380 C   0  0  0  0  0  0  0  0  0  0  0  0
    7.7680   16.2240    6.8840 C   0  0  0  0  0  0  0  0  0  0  0  0
    7.2040   12.8480    4.4320 C   0  0  0  0  0  0  0  0  0  0  0  0
    3.1890   11.2250    3.4930 C   0  0  2  0  0  0  0  0  0  0  0  0
    4.7100   13.4890    2.3370 C   0  0  2  0  0  0  0  0  0  0  0  0
    2.8060   12.6840    3.8410 C   0  0  2  0  0  0  0  0  0  0  0  0
    3.9250   13.6900    3.6540 C   0  0  1  0  0  0  0  0  0  0  0  0
    6.9090   15.0930    6.3440 C   0  0  1  0  0  0  0  0  0  0  0  0
    6.2050   13.9520    4.1410 C   0  0  1  0  0  0  0  0  0  0  0  0
    6.5587   16.5905    8.3965 H   0  0  0  0  0  0  0  0  0  0  0  0
    5.7974   11.5676    4.9672 H   0  0  0  0  0  0  0  0  0  0  0  0
    3.6973   10.6864    5.3673 H   0  0  0  0  0  0  0  0  0  0  0  0
    2.0038   13.6470    5.3930 H   0  0  0  0  0  0  0  0  0  0  0  0
    5.7931   14.8794    8.0476 H   0  0  0  0  0  0  0  0  0  0  0  0
    5.0806   15.8163    6.9158 H   0  0  0  0  0  0  0  0  0  0  0  0
    4.0775   10.3839    1.7882 H   0  0  0  0  0  0  0  0  0  0  0  0
    3.2157   11.7309    1.4567 H   0  0  0  0  0  0  0  0  0  0  0  0
    6.0028   15.1419    2.4009 H   0  0  0  0  0  0  0  0  0  0  0  0
    6.7830   13.7361    2.1152 H   0  0  0  0  0  0  0  0  0  0  0  0
    7.5056   15.5700    4.4080 H   0  0  0  0  0  0  0  0  0  0  0  0
    5.9462   15.9496    4.7097 H   0  0  0  0  0  0  0  0  0  0  0  0
    2.3769   10.6421    3.4642 H   0  0  0  0  0  0  0  0  0  0  0  0
    4.2409   13.8793    1.5448 H   0  0  0  0  0  0  0  0  0  0  0  0
    2.0721   12.9477    3.2150 H   0  0  0  0  0  0  0  0  0  0  0  0
    3.5342   14.6105    3.6583 H   0  0  0  0  0  0  0  0  0  0  0  0
    7.4081   14.2371    6.4794 H   0  0  0  0  0  0  0  0  0  0  0  0
  1 13  1  0  0  0  0
  2 13  2  0  0  0  0
  3 14  1  0  0  0  0
  4 14  2  0  0  0  0
  5 15  1  0  0  0  0
  6 17  1  0  0  0  0
  7 10  1  0  0  0  0
  7 16  1  0  0  0  0
  8 18  1  0  0  0  0
  8 20  1  0  0  0  0
  9 19  1  0  0  0  0
 10 15  1  0  0  0  0
 11 16  1  0  0  0  0
 11 20  1  0  0  0  0
 12 19  1  0  0  0  0
 12 20  1  0  0  0  0
 13 19  1  0  0  0  0
 14 20  1  0  0  0  0
 15 17  1  0  0  0  0
 16 18  1  0  0  0  0
 17 18  1  0  0  0  0
  1 21  1  0  0  0  0
  3 22  1  0  0  0  0
  5 23  1  0  0  0  0
  6 24  1  0  0  0  0
  9 25  1  0  0  0  0
  9 26  1  0  0  0  0
 10 27  1  0  0  0  0
 10 28  1  0  0  0  0
 11 29  1  0  0  0  0
 11 30  1  0  0  0  0
 12 31  1  0  0  0  0
 12 32  1  0  0  0  0
 15 33  1  0  0  0  0
 16 34  1  0  0  0  0
 17 35  1  0  0  0  0
 18 36  1  0  0  0  0
 19 37  1  0  0  0  0
M  END
> <pdb_id>
3QXM

> <uniprot_id>
Q13002

> <usmiles>
O=C(O)[C@@]1(O[C@H]2[C@H](OC[C@@H](O)[C@H]2O)C1)C[C@H](N)C(=O)O

$$$$
NGA_A_1300
          07202402303D 1   1.00000     0.00000     0
            
 30 30  0  0  0  0            999 V2000
   35.1892   18.2353  -11.9879 O   0  0  0  0  0  0  0  0  0  0  0  0
   33.0390   19.8722  -16.0079 O   0  0  0  0  0  0  0  0  0  0  0  0
   37.2161   18.6348  -16.2191 O   0  0  0  0  0  0  0  0  0  0  0  0
   36.3289   16.0856  -15.4940 O   0  0  0  0  0  0  0  0  0  0  0  0
   34.2909   15.8644  -17.5444 O   0  0  0  0  0  0  0  0  0  0  0  0
   35.4490   18.8063  -14.7017 O   0  0  0  0  0  0  0  0  0  0  0  0
   34.0583   19.0329  -17.8467 N   0  0  0  0  0  0  0  0  0  0  0  0
   32.1420   20.4361  -18.1471 C   0  0  0  0  0  0  0  0  0  0  0  0
   35.5284   17.1865  -12.9075 C   0  0  0  0  0  0  0  0  0  0  0  0
   33.1162   19.7589  -17.2304 C   0  0  0  0  0  0  0  0  0  0  0  0
   35.8184   18.9655  -16.0929 C   0  0  2  0  0  0  0  0  0  0  0  0
   34.9546   16.4431  -15.2658 C   0  0  2  0  0  0  0  0  0  0  0  0
   34.2900   16.9124  -16.5672 C   0  0  1  0  0  0  0  0  0  0  0  0
   34.8778   17.5658  -14.2301 C   0  0  2  0  0  0  0  0  0  0  0  0
   34.9978   18.1541  -17.1293 C   0  0  1  0  0  0  0  0  0  0  0  0
   35.5928   18.0386  -11.0943 H   0  0  0  0  0  0  0  0  0  0  0  0
   37.4979   18.7368  -17.1732 H   0  0  0  0  0  0  0  0  0  0  0  0
   36.7419   15.7834  -14.6348 H   0  0  0  0  0  0  0  0  0  0  0  0
   33.8543   16.1903  -18.3830 H   0  0  0  0  0  0  0  0  0  0  0  0
   34.1271   19.0904  -18.8427 H   0  0  0  0  0  0  0  0  0  0  0  0
   32.3730   20.2218  -19.0962 H   0  0  0  0  0  0  0  0  0  0  0  0
   31.2169   20.1128  -17.9481 H   0  0  0  0  0  0  0  0  0  0  0  0
   32.1864   21.4255  -18.0085 H   0  0  0  0  0  0  0  0  0  0  0  0
   35.1718   16.3104  -12.5829 H   0  0  0  0  0  0  0  0  0  0  0  0
   36.5208   17.1239  -13.0132 H   0  0  0  0  0  0  0  0  0  0  0  0
   35.7171   19.9338  -16.3214 H   0  0  0  0  0  0  0  0  0  0  0  0
   34.4632   15.6445  -14.9182 H   0  0  0  0  0  0  0  0  0  0  0  0
   33.3409   17.1548  -16.3664 H   0  0  0  0  0  0  0  0  0  0  0  0
   33.9095   17.7354  -14.0470 H   0  0  0  0  0  0  0  0  0  0  0  0
   35.6511   17.8230  -17.8102 H   0  0  0  0  0  0  0  0  0  0  0  0
  1  9  1  0  0  0  0
  2 10  2  0  0  0  0
  3 11  1  0  0  0  0
  4 12  1  0  0  0  0
  5 13  1  0  0  0  0
  6 11  1  0  0  0  0
  6 14  1  0  0  0  0
  7 10  1  0  0  0  0
  7 15  1  0  0  0  0
  8 10  1  0  0  0  0
  9 14  1  0  0  0  0
 11 15  1  0  0  0  0
 12 13  1  0  0  0  0
 12 14  1  0  0  0  0
 13 15  1  0  0  0  0
  1 16  1  0  0  0  0
  3 17  1  0  0  0  0
  4 18  1  0  0  0  0
  5 19  1  0  0  0  0
  7 20  1  0  0  0  0
  8 21  1  0  0  0  0
  8 22  1  0  0  0  0
  8 23  1  0  0  0  0
  9 24  1  0  0  0  0
  9 25  1  0  0  0  0
 11 26  1  0  0  0  0
 12 27  1  0  0  0  0
 13 28  1  0  0  0  0
 14 29  1  0  0  0  0
 15 30  1  0  0  0  0
M  END
> <pdb_id>
3GH7

> <uniprot_id>
nan

> <usmiles>
O=C(N[C@H]1[C@@H](O[C@@H]([C@H](O)[C@@H]1O)CO)O)C

$$$$
NGA_A_1627
          07192416333D 1   1.00000     0.00000     0
            
 30 30  0  0  0  0            999 V2000
   75.1100  -16.8511   53.1672 O   0  0  0  0  0  0  0  0  0  0  0  0
   71.4951  -20.0164   56.8376 O   0  0  0  0  0  0  0  0  0  0  0  0
   73.5453  -16.4882   57.3298 O   0  0  0  0  0  0  0  0  0  0  0  0
   72.1902  -15.9482   53.6749 O   0  0  0  0  0  0  0  0  0  0  0  0
   69.6933  -16.8971   54.6093 O   0  0  0  0  0  0  0  0  0  0  0  0
   73.7438  -17.4398   55.3504 O   0  0  0  0  0  0  0  0  0  0  0  0
   70.6558  -17.9992   57.3001 N   0  0  0  0  0  0  0  0  0  0  0  0
   69.7208  -19.9181   58.4077 C   0  0  0  0  0  0  0  0  0  0  0  0
   74.3466  -18.0584   53.1380 C   0  0  0  0  0  0  0  0  0  0  0  0
   70.7187  -19.3145   57.4623 C   0  0  0  0  0  0  0  0  0  0  0  0
   72.9492  -17.5083   56.5105 C   0  0  2  0  0  0  0  0  0  0  0  0
   71.9489  -17.3452   53.8168 C   0  0  2  0  0  0  0  0  0  0  0  0
   70.9016  -17.6095   54.8993 C   0  0  1  0  0  0  0  0  0  0  0  0
   73.2379  -18.0819   54.2069 C   0  0  2  0  0  0  0  0  0  0  0  0
   71.4311  -17.2720   56.3063 C   0  0  1  0  0  0  0  0  0  0  0  0
   75.8138  -16.8845   52.4576 H   0  0  0  0  0  0  0  0  0  0  0  0
   73.0601  -16.4358   58.2027 H   0  0  0  0  0  0  0  0  0  0  0  0
   72.8767  -15.7990   52.9633 H   0  0  0  0  0  0  0  0  0  0  0  0
   69.0189  -17.0794   55.3247 H   0  0  0  0  0  0  0  0  0  0  0  0
   70.0417  -17.4788   57.8935 H   0  0  0  0  0  0  0  0  0  0  0  0
   69.1749  -19.1914   58.8248 H   0  0  0  0  0  0  0  0  0  0  0  0
   69.1198  -20.5401   57.9057 H   0  0  0  0  0  0  0  0  0  0  0  0
   70.2029  -20.4248   59.1224 H   0  0  0  0  0  0  0  0  0  0  0  0
   74.9618  -18.8306   53.2970 H   0  0  0  0  0  0  0  0  0  0  0  0
   73.9244  -18.1489   52.2360 H   0  0  0  0  0  0  0  0  0  0  0  0
   73.0850  -18.3978   56.9468 H   0  0  0  0  0  0  0  0  0  0  0  0
   71.6166  -17.7085   52.9463 H   0  0  0  0  0  0  0  0  0  0  0  0
   70.6886  -18.5864   54.8824 H   0  0  0  0  0  0  0  0  0  0  0  0
   73.0188  -19.0311   54.4326 H   0  0  0  0  0  0  0  0  0  0  0  0
   71.2626  -16.2979   56.4575 H   0  0  0  0  0  0  0  0  0  0  0  0
  1  9  1  0  0  0  0
  2 10  2  0  0  0  0
  3 11  1  0  0  0  0
  4 12  1  0  0  0  0
  5 13  1  0  0  0  0
  6 11  1  0  0  0  0
  6 14  1  0  0  0  0
  7 10  1  0  0  0  0
  7 15  1  0  0  0  0
  8 10  1  0  0  0  0
  9 14  1  0  0  0  0
 11 15  1  0  0  0  0
 12 13  1  0  0  0  0
 12 14  1  0  0  0  0
 13 15  1  0  0  0  0
  1 16  1  0  0  0  0
  3 17  1  0  0  0  0
  4 18  1  0  0  0  0
  5 19  1  0  0  0  0
  7 20  1  0  0  0  0
  8 21  1  0  0  0  0
  8 22  1  0  0  0  0
  8 23  1  0  0  0  0
  9 24  1  0  0  0  0
  9 25  1  0  0  0  0
 11 26  1  0  0  0  0
 12 27  1  0  0  0  0
 13 28  1  0  0  0  0
 14 29  1  0  0  0  0
 15 30  1  0  0  0  0
M  END
> <pdb_id>
5AC4

> <uniprot_id>
C1CH75

> <usmiles>
O=C(N[C@H]1[C@@H](O[C@@H]([C@H](O)[C@@H]1O)CO)O)C

$$$$
NGA_A_4641
          07192422153D 1   1.00000     0.00000     0
            
 30 30  0  0  0  0            999 V2000
  -26.1990  -12.9460  -21.2970 O   0  0  0  0  0  0  0  0  0  0  0  0
  -28.5530   -5.9620  -22.7270 O   0  0  0  0  0  0  0  0  0  0  0  0
  -28.6810   -9.1270  -23.6690 O   0  0  0  0  0  0  0  0  0  0  0  0
  -25.1510   -8.7900  -20.5410 O   0  0  0  0  0  0  0  0  0  0  0  0
  -24.3780   -7.1820  -22.7230 O   0  0  0  0  0  0  0  0  0  0  0  0
  -27.1820  -10.1290  -22.1770 O   0  0  0  0  0  0  0  0  0  0  0  0
  -26.9460   -6.9540  -23.9720 N   0  0  0  0  0  0  0  0  0  0  0  0
  -28.1490   -5.0440  -24.8850 C   0  0  0  0  0  0  0  0  0  0  0  0
  -25.7420  -11.6340  -20.9230 C   0  0  0  0  0  0  0  0  0  0  0  0
  -27.9000   -6.0210  -23.7670 C   0  0  0  0  0  0  0  0  0  0  0  0
  -27.3140   -9.3450  -23.3580 C   0  0  2  0  0  0  0  0  0  0  0  0
  -24.9140   -9.4000  -21.8340 C   0  0  2  0  0  0  0  0  0  0  0  0
  -25.1530   -8.3660  -22.9350 C   0  0  1  0  0  0  0  0  0  0  0  0
  -25.8270  -10.6170  -22.0540 C   0  0  2  0  0  0  0  0  0  0  0  0
  -26.6450   -8.0260  -23.0190 C   0  0  1  0  0  0  0  0  0  0  0  0
  -26.1176  -13.5630  -20.5143 H   0  0  0  0  0  0  0  0  0  0  0  0
  -28.7499   -8.5754  -24.5003 H   0  0  0  0  0  0  0  0  0  0  0  0
  -24.9950   -9.4654  -19.8202 H   0  0  0  0  0  0  0  0  0  0  0  0
  -24.5582   -6.5295  -23.4590 H   0  0  0  0  0  0  0  0  0  0  0  0
  -26.4165   -6.9114  -24.8192 H   0  0  0  0  0  0  0  0  0  0  0  0
  -27.5300   -5.2423  -25.6450 H   0  0  0  0  0  0  0  0  0  0  0  0
  -29.0958   -5.1273  -25.1958 H   0  0  0  0  0  0  0  0  0  0  0  0
  -27.9866   -4.1134  -24.5568 H   0  0  0  0  0  0  0  0  0  0  0  0
  -24.7885  -11.7024  -20.6296 H   0  0  0  0  0  0  0  0  0  0  0  0
  -26.3025  -11.3085  -20.1615 H   0  0  0  0  0  0  0  0  0  0  0  0
  -26.8475   -9.7865  -24.1244 H   0  0  0  0  0  0  0  0  0  0  0  0
  -23.9614   -9.7011  -21.8774 H   0  0  0  0  0  0  0  0  0  0  0  0
  -24.8752   -8.7688  -23.8071 H   0  0  0  0  0  0  0  0  0  0  0  0
  -25.5668  -11.0644  -22.9097 H   0  0  0  0  0  0  0  0  0  0  0  0
  -26.9548   -7.7387  -22.1126 H   0  0  0  0  0  0  0  0  0  0  0  0
  1  9  1  0  0  0  0
  2 10  2  0  0  0  0
  3 11  1  0  0  0  0
  4 12  1  0  0  0  0
  5 13  1  0  0  0  0
  6 11  1  0  0  0  0
  6 14  1  0  0  0  0
  7 10  1  0  0  0  0
  7 15  1  0  0  0  0
  8 10  1  0  0  0  0
  9 14  1  0  0  0  0
 11 15  1  0  0  0  0
 12 13  1  0  0  0  0
 12 14  1  0  0  0  0
 13 15  1  0  0  0  0
  1 16  1  0  0  0  0
  3 17  1  0  0  0  0
  4 18  1  0  0  0  0
  5 19  1  0  0  0  0
  7 20  1  0  0  0  0
  8 21  1  0  0  0  0
  8 22  1  0  0  0  0
  8 23  1  0  0  0  0
  9 24  1  0  0  0  0
  9 25  1  0  0  0  0
 11 26  1  0  0  0  0
 12 27  1  0  0  0  0
 13 28  1  0  0  0  0
 14 29  1  0  0  0  0
 15 30  1  0  0  0  0
M  END
> <pdb_id>
4AAX

> <uniprot_id>
Q8XM24

> <usmiles>
O=C(N[C@H]1[C@@H](O[C@@H]([C@H](O)[C@@H]1O)CO)O)C

$$$$
NGA_B_1627
          07192416333D 1   1.00000     0.00000     0
            
 28 28  0  0  0  0            999 V2000
   75.0755  -16.6858   53.2881 O   0  0  0  0  0  0  0  0  0  0  0  0
   71.5263  -20.1433   56.8634 O   0  0  0  0  0  0  0  0  0  0  0  0
   73.5717  -16.8550   57.5895 O   0  0  0  0  0  0  0  0  0  0  0  0
   72.1211  -16.0185   53.5637 O   0  0  0  0  0  0  0  0  0  0  0  0
   69.7453  -17.0484   54.6257 O   0  0  0  0  0  0  0  0  0  0  0  0
   73.8454  -17.3772   55.3129 O   0  0  0  0  0  0  0  0  0  0  0  0
   70.6844  -18.0740   57.2789 N   0  0  0  0  0  0  0  0  0  0  0  0
   69.7704  -19.9302   58.4538 C   0  0  0  0  0  0  0  0  0  0  0  0
   74.4372  -17.9413   53.1344 C   0  0  0  0  0  0  0  0  0  0  0  0
   70.7578  -19.3930   57.4574 C   0  0  0  0  0  0  0  0  0  0  0  0
   72.9613  -17.3877   56.4140 C   0  0  0  0  0  0  0  0  0  0  0  0
   71.9939  -17.4456   53.7793 C   0  0  2  0  0  0  0  0  0  0  0  0
   70.9622  -17.7510   54.8695 C   0  0  1  0  0  0  0  0  0  0  0  0
   73.3351  -18.0559   54.1807 C   0  0  2  0  0  0  0  0  0  0  0  0
   71.4179  -17.3427   56.2685 C   0  0  1  0  0  0  0  0  0  0  0  0
   75.8024  -16.5958   52.6072 H   0  0  0  0  0  0  0  0  0  0  0  0
   72.7993  -15.8485   52.8488 H   0  0  0  0  0  0  0  0  0  0  0  0
   69.0870  -17.2615   55.3477 H   0  0  0  0  0  0  0  0  0  0  0  0
   70.0814  -17.5547   57.8845 H   0  0  0  0  0  0  0  0  0  0  0  0
   69.2344  -19.1755   58.8321 H   0  0  0  0  0  0  0  0  0  0  0  0
   69.1590  -20.5790   58.0007 H   0  0  0  0  0  0  0  0  0  0  0  0
   70.2604  -20.3939   59.1920 H   0  0  0  0  0  0  0  0  0  0  0  0
   75.1030  -18.6761   53.2641 H   0  0  0  0  0  0  0  0  0  0  0  0
   74.0410  -18.0082   52.2187 H   0  0  0  0  0  0  0  0  0  0  0  0
   71.6922  -17.8715   52.9263 H   0  0  0  0  0  0  0  0  0  0  0  0
   70.7727  -18.7329   54.8668 H   0  0  0  0  0  0  0  0  0  0  0  0
   73.2005  -19.0199   54.4101 H   0  0  0  0  0  0  0  0  0  0  0  0
   71.1570  -16.3834   56.3762 H   0  0  0  0  0  0  0  0  0  0  0  0
  1  9  1  0  0  0  0
  2 10  2  0  0  0  0
  3 11  2  0  0  0  0
  4 12  1  0  0  0  0
  5 13  1  0  0  0  0
  6 11  1  0  0  0  0
  6 14  1  0  0  0  0
  7 10  1  0  0  0  0
  7 15  1  0  0  0  0
  8 10  1  0  0  0  0
  9 14  1  0  0  0  0
 11 15  1  0  0  0  0
 12 13  1  0  0  0  0
 12 14  1  0  0  0  0
 13 15  1  0  0  0  0
  1 16  1  0  0  0  0
  4 17  1  0  0  0  0
  5 18  1  0  0  0  0
  7 19  1  0  0  0  0
  8 20  1  0  0  0  0
  8 21  1  0  0  0  0
  8 22  1  0  0  0  0
  9 23  1  0  0  0  0
  9 24  1  0  0  0  0
 12 25  1  0  0  0  0
 13 26  1  0  0  0  0
 14 27  1  0  0  0  0
 15 28  1  0  0  0  0
M  END
> <pdb_id>
5AC4

> <uniprot_id>
C1CH75

> <usmiles>
O=C1O[C@@H]([C@H](O)[C@H](O)[C@H]1NC(=O)C)CO

$$$$
NGA_B_2000
          07202400463D 1   1.00000     0.00000     0
            
 30 30  0  0  0  0            999 V2000
    7.0010  -20.6200   30.0580 O   0  0  0  0  0  0  0  0  0  0  0  0
    6.9910  -18.5050   22.5980 O   0  0  0  0  0  0  0  0  0  0  0  0
    8.2340  -17.9790   26.1790 O   0  0  0  0  0  0  0  0  0  0  0  0
    5.8900  -21.9470   26.1640 O   0  0  0  0  0  0  0  0  0  0  0  0
    4.3420  -20.2430   24.5020 O   0  0  0  0  0  0  0  0  0  0  0  0
    7.2670  -19.7180   27.3970 O   0  0  0  0  0  0  0  0  0  0  0  0
    5.9450  -17.8950   24.5100 N   0  0  0  0  0  0  0  0  0  0  0  0
    5.8070  -16.4150   22.6350 C   0  0  0  0  0  0  0  0  0  0  0  0
    6.3780  -21.3120   28.9610 C   0  0  0  0  0  0  0  0  0  0  0  0
    6.3070  -17.7020   23.2410 C   0  0  0  0  0  0  0  0  0  0  0  0
    7.0010  -18.5890   26.5480 C   0  0  2  0  0  0  0  0  0  0  0  0
    5.2230  -20.8230   26.7360 C   0  0  2  0  0  0  0  0  0  0  0  0
    5.0000  -19.7350   25.6700 C   0  0  1  0  0  0  0  0  0  0  0  0
    6.0510  -20.2700   27.9000 C   0  0  2  0  0  0  0  0  0  0  0  0
    6.3230  -19.0870   25.2690 C   0  0  1  0  0  0  0  0  0  0  0  0
    7.2312  -21.2750   30.7777 H   0  0  0  0  0  0  0  0  0  0  0  0
    8.0532  -17.1928   25.5881 H   0  0  0  0  0  0  0  0  0  0  0  0
    6.0284  -22.6453   26.8663 H   0  0  0  0  0  0  0  0  0  0  0  0
    4.2192  -19.5033   23.8403 H   0  0  0  0  0  0  0  0  0  0  0  0
    5.3917  -17.1952   24.9618 H   0  0  0  0  0  0  0  0  0  0  0  0
    5.2762  -15.9101   23.3157 H   0  0  0  0  0  0  0  0  0  0  0  0
    6.5855  -15.8604   22.3410 H   0  0  0  0  0  0  0  0  0  0  0  0
    5.2277  -16.6209   21.8463 H   0  0  0  0  0  0  0  0  0  0  0  0
    5.5397  -21.7607   29.2706 H   0  0  0  0  0  0  0  0  0  0  0  0
    7.0041  -21.9965   28.5876 H   0  0  0  0  0  0  0  0  0  0  0  0
    6.4142  -17.9303   27.0189 H   0  0  0  0  0  0  0  0  0  0  0  0
    4.3339  -21.1192   27.0851 H   0  0  0  0  0  0  0  0  0  0  0  0
    4.4177  -19.0267   26.0689 H   0  0  0  0  0  0  0  0  0  0  0  0
    5.5295  -19.5351   28.3335 H   0  0  0  0  0  0  0  0  0  0  0  0
    6.9071  -19.7053   24.7431 H   0  0  0  0  0  0  0  0  0  0  0  0
  1  9  1  0  0  0  0
  2 10  2  0  0  0  0
  3 11  1  0  0  0  0
  4 12  1  0  0  0  0
  5 13  1  0  0  0  0
  6 11  1  0  0  0  0
  6 14  1  0  0  0  0
  7 10  1  0  0  0  0
  7 15  1  0  0  0  0
  8 10  1  0  0  0  0
  9 14  1  0  0  0  0
 11 15  1  0  0  0  0
 12 13  1  0  0  0  0
 12 14  1  0  0  0  0
 13 15  1  0  0  0  0
  1 16  1  0  0  0  0
  3 17  1  0  0  0  0
  4 18  1  0  0  0  0
  5 19  1  0  0  0  0
  7 20  1  0  0  0  0
  8 21  1  0  0  0  0
  8 22  1  0  0  0  0
  8 23  1  0  0  0  0
  9 24  1  0  0  0  0
  9 25  1  0  0  0  0
 11 26  1  0  0  0  0
 12 27  1  0  0  0  0
 13 28  1  0  0  0  0
 14 29  1  0  0  0  0
 15 30  1  0  0  0  0
M  END
> <pdb_id>
3AJ5

> <uniprot_id>
P46084

> <usmiles>
O=C(N[C@H]1[C@@H](O[C@@H]([C@H](O)[C@@H]1O)CO)O)C

$$$$
NGH_A_269
          07192418003D 1   1.00000     0.00000     0
            
 45 45  0  0  0  0            999 V2000
   15.2646   26.1555    0.8088 S   0  0  0  0  0  0  0  0  0  0  0  0
   15.6369   25.4088    2.0916 O   0  0  0  0  0  0  0  0  0  0  0  0
   14.3844   25.3507   -0.1829 O   0  0  0  0  0  0  0  0  0  0  0  0
   18.2008   29.7406    3.2125 O   0  0  0  0  0  0  0  0  0  0  0  0
   15.8848   30.1799    2.1065 O   0  0  0  0  0  0  0  0  0  0  0  0
   20.4610   27.2417   -1.7947 O   0  0  0  0  0  0  0  0  0  0  0  0
   17.2015   28.9970    3.4608 N   0  0  0  0  0  0  0  0  0  0  0  0
   14.6204   27.4592    1.3940 N   0  0  0  0  0  0  0  0  0  0  0  0
   20.6050   27.5171   -3.1852 C   0  0  0  0  0  0  0  0  0  0  0  0
   11.4246   27.4463    0.7502 C   0  0  0  0  0  0  0  0  0  0  0  0
   11.7768   29.9225    0.6897 C   0  0  0  0  0  0  0  0  0  0  0  0
   15.0148   27.9180    2.7430 C   0  0  0  0  0  0  0  0  0  0  0  0
   13.7770   28.3386    0.5617 C   0  0  0  0  0  0  0  0  0  0  0  0
   16.6479   26.7805   -1.4439 C   0  0  0  0  0  0  0  0  0  0  0  0
   17.9160   26.5817    0.8349 C   0  0  0  0  0  0  0  0  0  0  0  0
   17.9451   27.1050   -2.1334 C   0  0  0  0  0  0  0  0  0  0  0  0
   19.1834   26.9239    0.1872 C   0  0  0  0  0  0  0  0  0  0  0  0
   16.1808   28.8821    2.4755 C   0  0  0  0  0  0  0  0  0  0  0  0
   16.6362   26.7233    0.0537 C   0  0  2  0  0  0  0  0  0  0  0  0
   19.1628   27.2977   -1.2528 C   0  0  1  0  0  0  0  0  0  0  0  0
   12.3609   28.5763    1.1297 C   0  0  0  0  0  0  0  0  0  0  0  0
   18.8303   29.7234    3.9893 H   0  0  0  0  0  0  0  0  0  0  0  0
   17.1335   28.5039    4.3281 H   0  0  0  0  0  0  0  0  0  0  0  0
   21.5689   27.4445   -3.4413 H   0  0  0  0  0  0  0  0  0  0  0  0
   20.0694   26.8577   -3.7128 H   0  0  0  0  0  0  0  0  0  0  0  0
   20.2777   28.4422   -3.3774 H   0  0  0  0  0  0  0  0  0  0  0  0
   11.8180   26.5748    1.0430 H   0  0  0  0  0  0  0  0  0  0  0  0
   10.5410   27.5806    1.1988 H   0  0  0  0  0  0  0  0  0  0  0  0
   11.2970   27.4379   -0.2416 H   0  0  0  0  0  0  0  0  0  0  0  0
   12.4042   30.6578    0.9461 H   0  0  0  0  0  0  0  0  0  0  0  0
   11.6505   29.9228   -0.3023 H   0  0  0  0  0  0  0  0  0  0  0  0
   10.8945   30.0655    1.1381 H   0  0  0  0  0  0  0  0  0  0  0  0
   15.3113   27.1484    3.3085 H   0  0  0  0  0  0  0  0  0  0  0  0
   14.2578   28.3908    3.1941 H   0  0  0  0  0  0  0  0  0  0  0  0
   13.6867   27.9225   -0.3431 H   0  0  0  0  0  0  0  0  0  0  0  0
   14.2342   29.2240    0.4773 H   0  0  0  0  0  0  0  0  0  0  0  0
   16.3510   25.8856   -1.7770 H   0  0  0  0  0  0  0  0  0  0  0  0
   15.9839   27.4758   -1.7191 H   0  0  0  0  0  0  0  0  0  0  0  0
   17.9003   26.2589    1.7812 H   0  0  0  0  0  0  0  0  0  0  0  0
   17.8092   27.9508   -2.6494 H   0  0  0  0  0  0  0  0  0  0  0  0
   18.1458   26.3571   -2.7661 H   0  0  0  0  0  0  0  0  0  0  0  0
   20.0418   26.9069    0.6998 H   0  0  0  0  0  0  0  0  0  0  0  0
   16.4859   27.6975    0.2219 H   0  0  0  0  0  0  0  0  0  0  0  0
   19.0997   28.2893   -1.1401 H   0  0  0  0  0  0  0  0  0  0  0  0
   12.4326   28.5885    2.1271 H   0  0  0  0  0  0  0  0  0  0  0  0
  1  2  2  0  0  0  0
  1  3  2  0  0  0  0
  1  8  1  0  0  0  0
  1 19  1  0  0  0  0
  4  7  1  0  0  0  0
  5 18  2  0  0  0  0
  6  9  1  0  0  0  0
  6 20  1  0  0  0  0
  7 18  1  0  0  0  0
  8 12  1  0  0  0  0
  8 13  1  0  0  0  0
 10 21  1  0  0  0  0
 11 21  1  0  0  0  0
 12 18  1  0  0  0  0
 13 21  1  0  0  0  0
 14 16  1  0  0  0  0
 14 19  1  0  0  0  0
 15 17  2  0  0  0  0
 15 19  1  0  0  0  0
 16 20  1  0  0  0  0
 17 20  1  0  0  0  0
  4 22  1  0  0  0  0
  7 23  1  0  0  0  0
  9 24  1  0  0  0  0
  9 25  1  0  0  0  0
  9 26  1  0  0  0  0
 10 27  1  0  0  0  0
 10 28  1  0  0  0  0
 10 29  1  0  0  0  0
 11 30  1  0  0  0  0
 11 31  1  0  0  0  0
 11 32  1  0  0  0  0
 12 33  1  0  0  0  0
 12 34  1  0  0  0  0
 13 35  1  0  0  0  0
 13 36  1  0  0  0  0
 14 37  1  0  0  0  0
 14 38  1  0  0  0  0
 15 39  1  0  0  0  0
 16 40  1  0  0  0  0
 16 41  1  0  0  0  0
 17 42  1  0  0  0  0
 19 43  1  0  0  0  0
 20 44  1  0  0  0  0
 21 45  1  0  0  0  0
M  END
> <pdb_id>
1RMZ

> <uniprot_id>
P39900

> <usmiles>
S(=O)(=O)(N(CC(=O)NO)CC(C)C)[C@H]1C=C[C@@H](OC)CC1

$$$$
NGH_A_306
          07192418003D 1   1.00000     0.00000     0
            
 39 39  0  0  0  0            999 V2000
   15.3095   26.1084    0.7716 S   0  0  0  0  0  0  0  0  0  0  0  0
   15.5666   25.5266    2.0292 O   0  0  0  0  0  0  0  0  0  0  0  0
   14.2950   25.7129   -0.0773 O   0  0  0  0  0  0  0  0  0  0  0  0
   18.1907   29.7550    3.2021 O   0  0  0  0  0  0  0  0  0  0  0  0
   15.9449   30.0852    2.0519 O   0  0  0  0  0  0  0  0  0  0  0  0
   20.3913   27.3730   -1.7788 O   0  0  0  0  0  0  0  0  0  0  0  0
   17.1248   28.9175    3.4354 N   0  0  0  0  0  0  0  0  0  0  0  0
   14.6713   27.4541    1.3701 N   0  0  0  0  0  0  0  0  0  0  0  0
   20.6382   27.5433   -3.1577 C   0  0  0  0  0  0  0  0  0  0  0  0
   11.3898   27.4271    1.0100 C   0  0  0  0  0  0  0  0  0  0  0  0
   11.7372   30.0121    0.8446 C   0  0  0  0  0  0  0  0  0  0  0  0
   15.0032   27.9445    2.7396 C   0  0  0  0  0  0  0  0  0  0  0  0
   13.8394   28.3817    0.5304 C   0  0  0  0  0  0  0  0  0  0  0  0
   16.7437   26.7505   -1.3445 C   0  0  0  0  0  0  0  0  0  0  0  0
   17.8945   26.5919    0.7455 C   0  0  0  0  0  0  0  0  0  0  0  0
   17.9541   27.0523   -1.9905 C   0  0  0  0  0  0  0  0  0  0  0  0
   19.0971   26.8949    0.1198 C   0  0  0  0  0  0  0  0  0  0  0  0
   16.0321   29.0781    2.7280 C   0  0  0  0  0  0  0  0  0  0  0  0
   16.6789   26.5299    0.0476 C   0  0  0  0  0  0  0  0  0  0  0  0
   19.1450   27.1201   -1.2376 C   0  0  0  0  0  0  0  0  0  0  0  0
   12.3090   28.5928    0.7398 C   0  0  0  0  0  0  0  0  0  0  0  0
   18.9448   29.5127    3.8124 H   0  0  0  0  0  0  0  0  0  0  0  0
   17.1819   28.2007    4.1304 H   0  0  0  0  0  0  0  0  0  0  0  0
   21.6126   27.7148   -3.3031 H   0  0  0  0  0  0  0  0  0  0  0  0
   20.3684   26.7153   -3.6493 H   0  0  0  0  0  0  0  0  0  0  0  0
   20.1085   28.3204   -3.4977 H   0  0  0  0  0  0  0  0  0  0  0  0
   11.8968   26.5716    0.9052 H   0  0  0  0  0  0  0  0  0  0  0  0
   11.0345   27.4920    1.9425 H   0  0  0  0  0  0  0  0  0  0  0  0
   10.6290   27.4453    0.3613 H   0  0  0  0  0  0  0  0  0  0  0  0
   12.3251   30.8021    0.6705 H   0  0  0  0  0  0  0  0  0  0  0  0
   10.7765   30.1475    1.0870 H   0  0  0  0  0  0  0  0  0  0  0  0
   15.3726   27.1825    3.2715 H   0  0  0  0  0  0  0  0  0  0  0  0
   14.1652   28.2775    3.1719 H   0  0  0  0  0  0  0  0  0  0  0  0
   13.9450   28.0655   -0.4125 H   0  0  0  0  0  0  0  0  0  0  0  0
   14.2557   29.2857    0.6275 H   0  0  0  0  0  0  0  0  0  0  0  0
   15.9051   26.6904   -1.8860 H   0  0  0  0  0  0  0  0  0  0  0  0
   17.8951   26.4113    1.7291 H   0  0  0  0  0  0  0  0  0  0  0  0
   17.9713   27.2178   -2.9766 H   0  0  0  0  0  0  0  0  0  0  0  0
   19.9364   26.9500    0.6606 H   0  0  0  0  0  0  0  0  0  0  0  0
  1  2  2  0  0  0  0
  1  3  2  0  0  0  0
  1  8  1  0  0  0  0
  1 19  1  0  0  0  0
  4  7  1  0  0  0  0
  5 18  2  0  0  0  0
  6  9  1  0  0  0  0
  6 20  1  0  0  0  0
  7 18  1  0  0  0  0
  8 12  1  0  0  0  0
  8 13  1  0  0  0  0
 10 21  1  0  0  0  0
 11 21  2  0  0  0  0
 12 18  1  0  0  0  0
 13 21  1  0  0  0  0
 14 16  2  0  0  0  0
 14 19  1  0  0  0  0
 15 17  1  0  0  0  0
 15 19  2  0  0  0  0
 16 20  1  0  0  0  0
 17 20  2  0  0  0  0
  4 22  1  0  0  0  0
  7 23  1  0  0  0  0
  9 24  1  0  0  0  0
  9 25  1  0  0  0  0
  9 26  1  0  0  0  0
 10 27  1  0  0  0  0
 10 28  1  0  0  0  0
 10 29  1  0  0  0  0
 11 30  1  0  0  0  0
 11 31  1  0  0  0  0
 12 32  1  0  0  0  0
 12 33  1  0  0  0  0
 13 34  1  0  0  0  0
 13 35  1  0  0  0  0
 14 36  1  0  0  0  0
 15 37  1  0  0  0  0
 16 38  1  0  0  0  0
 17 39  1  0  0  0  0
M  END
> <pdb_id>
5LAB

> <uniprot_id>
P39900

> <usmiles>
S(=O)(=O)(N(CC(=O)NO)CC(=C)C)c1ccc(OC)cc1

$$$$
NGT_A_1650
          07192416333D 1   1.00000     0.00000     0
            
 27 28  0  0  0  0            999 V2000
   71.8728  -19.7313   57.0411 S   0  0  0  0  0  0  0  0  0  0  0  0
   74.6440  -16.8594   53.4249 O   0  0  0  0  0  0  0  0  0  0  0  0
   71.1504  -17.1963   52.8145 O   0  0  0  0  0  0  0  0  0  0  0  0
   69.6646  -16.1692   55.0700 O   0  0  0  0  0  0  0  0  0  0  0  0
   73.4167  -17.9374   55.6767 O   0  0  0  0  0  0  0  0  0  0  0  0
   70.3149  -17.7358   57.5417 N   0  0  0  0  0  0  0  0  0  0  0  0
   69.5311  -19.9094   58.5544 C   0  0  0  0  0  0  0  0  0  0  0  0
   73.9309  -18.0828   53.3353 C   0  0  0  0  0  0  0  0  0  0  0  0
   70.4379  -19.0476   57.7242 C   0  0  0  0  0  0  0  0  0  0  0  0
   72.5501  -18.0443   56.7957 C   0  0  1  0  0  0  0  0  0  0  0  0
   71.7563  -17.0268   54.1102 C   0  0  1  0  0  0  0  0  0  0  0  0
   70.7203  -17.1929   55.2519 C   0  0  1  0  0  0  0  0  0  0  0  0
   72.8124  -18.1005   54.3797 C   0  0  2  0  0  0  0  0  0  0  0  0
   71.3153  -17.1185   56.6491 C   0  0  1  0  0  0  0  0  0  0  0  0
   75.3746  -16.8487   52.7422 H   0  0  0  0  0  0  0  0  0  0  0  0
   71.8452  -17.0828   52.1043 H   0  0  0  0  0  0  0  0  0  0  0  0
   68.9845  -16.2588   55.7976 H   0  0  0  0  0  0  0  0  0  0  0  0
   68.7535  -19.3665   58.8715 H   0  0  0  0  0  0  0  0  0  0  0  0
   69.2003  -20.6744   58.0018 H   0  0  0  0  0  0  0  0  0  0  0  0
   70.0355  -20.2614   59.3429 H   0  0  0  0  0  0  0  0  0  0  0  0
   74.5554  -18.8456   53.5032 H   0  0  0  0  0  0  0  0  0  0  0  0
   73.5347  -18.1713   52.4214 H   0  0  0  0  0  0  0  0  0  0  0  0
   73.0539  -17.7786   57.6176 H   0  0  0  0  0  0  0  0  0  0  0  0
   72.1765  -16.1212   54.1680 H   0  0  0  0  0  0  0  0  0  0  0  0
   70.2945  -18.0919   55.1491 H   0  0  0  0  0  0  0  0  0  0  0  0
   72.3671  -18.9953   54.3497 H   0  0  0  0  0  0  0  0  0  0  0  0
   71.5220  -16.1772   56.9161 H   0  0  0  0  0  0  0  0  0  0  0  0
  1  9  1  0  0  0  0
  1 10  1  0  0  0  0
  2  8  1  0  0  0  0
  3 11  1  0  0  0  0
  4 12  1  0  0  0  0
  5 10  1  0  0  0  0
  5 13  1  0  0  0  0
  6  9  2  0  0  0  0
  6 14  1  0  0  0  0
  7  9  1  0  0  0  0
  8 13  1  0  0  0  0
 10 14  1  0  0  0  0
 11 12  1  0  0  0  0
 11 13  1  0  0  0  0
 12 14  1  0  0  0  0
  2 15  1  0  0  0  0
  3 16  1  0  0  0  0
  4 17  1  0  0  0  0
  7 18  1  0  0  0  0
  7 19  1  0  0  0  0
  7 20  1  0  0  0  0
  8 21  1  0  0  0  0
  8 22  1  0  0  0  0
 10 23  1  0  0  0  0
 11 24  1  0  0  0  0
 12 25  1  0  0  0  0
 13 26  1  0  0  0  0
 14 27  1  0  0  0  0
M  END
> <pdb_id>
2EPN

> <uniprot_id>
Q6ST21

> <usmiles>
S1C(=N[C@H]2[C@@H]1O[C@@H]([C@@H](O)[C@@H]2O)CO)C

$$$$
NGT_A_1718
          07202405173D 1   1.00000     0.00000     0
            
 27 28  0  0  0  0            999 V2000
   27.1994    0.9794  292.7695 S   0  0  0  0  0  0  0  0  0  0  0  0
   26.3350    2.9582  287.7709 O   0  0  0  0  0  0  0  0  0  0  0  0
   28.0738    5.0889  289.8702 O   0  0  0  0  0  0  0  0  0  0  0  0
   30.3103    3.9309  291.0088 O   0  0  0  0  0  0  0  0  0  0  0  0
   26.9919    1.5749  290.0982 O   0  0  0  0  0  0  0  0  0  0  0  0
   29.6500    1.3342  292.6172 N   0  0  0  0  0  0  0  0  0  0  0  0
   29.0301    0.7356  294.8786 C   0  0  0  0  0  0  0  0  0  0  0  0
   25.8042    3.4087  289.0374 C   0  0  0  0  0  0  0  0  0  0  0  0
   28.7207    1.0233  293.4393 C   0  0  0  0  0  0  0  0  0  0  0  0
   27.8528    1.0377  291.1248 C   0  0  1  0  0  0  0  0  0  0  0  0
   28.1540    3.6607  290.0128 C   0  0  1  0  0  0  0  0  0  0  0  0
   29.0557    3.2763  291.1985 C   0  0  1  0  0  0  0  0  0  0  0  0
   26.7764    3.0121  290.1433 C   0  0  2  0  0  0  0  0  0  0  0  0
   29.1989    1.7629  291.2753 C   0  0  1  0  0  0  0  0  0  0  0  0
   25.7058    3.2124  287.0364 H   0  0  0  0  0  0  0  0  0  0  0  0
   27.4837    5.3139  289.0949 H   0  0  0  0  0  0  0  0  0  0  0  0
   30.9234    3.7020  291.7649 H   0  0  0  0  0  0  0  0  0  0  0  0
   30.0138    0.8274  295.0329 H   0  0  0  0  0  0  0  0  0  0  0  0
   28.5394    1.3836  295.4610 H   0  0  0  0  0  0  0  0  0  0  0  0
   28.7433   -0.1962  295.1013 H   0  0  0  0  0  0  0  0  0  0  0  0
   24.9154    2.9808  289.2012 H   0  0  0  0  0  0  0  0  0  0  0  0
   25.6979    4.4029  289.0232 H   0  0  0  0  0  0  0  0  0  0  0  0
   28.0605    0.0952  290.8632 H   0  0  0  0  0  0  0  0  0  0  0  0
   28.5788    3.2992  289.1828 H   0  0  0  0  0  0  0  0  0  0  0  0
   28.6397    3.6078  292.0453 H   0  0  0  0  0  0  0  0  0  0  0  0
   26.3820    3.2565  291.0292 H   0  0  0  0  0  0  0  0  0  0  0  0
   29.8411    1.4430  290.5787 H   0  0  0  0  0  0  0  0  0  0  0  0
  1  9  1  0  0  0  0
  1 10  1  0  0  0  0
  2  8  1  0  0  0  0
  3 11  1  0  0  0  0
  4 12  1  0  0  0  0
  5 10  1  0  0  0  0
  5 13  1  0  0  0  0
  6  9  2  0  0  0  0
  6 14  1  0  0  0  0
  7  9  1  0  0  0  0
  8 13  1  0  0  0  0
 10 14  1  0  0  0  0
 11 12  1  0  0  0  0
 11 13  1  0  0  0  0
 12 14  1  0  0  0  0
  2 15  1  0  0  0  0
  3 16  1  0  0  0  0
  4 17  1  0  0  0  0
  7 18  1  0  0  0  0
  7 19  1  0  0  0  0
  7 20  1  0  0  0  0
  8 21  1  0  0  0  0
  8 22  1  0  0  0  0
 10 23  1  0  0  0  0
 11 24  1  0  0  0  0
 12 25  1  0  0  0  0
 13 26  1  0  0  0  0
 14 27  1  0  0  0  0
M  END
> <pdb_id>
2CHN

> <uniprot_id>
Q89ZI2

> <usmiles>
S1C(=N[C@H]2[C@@H]1O[C@@H]([C@@H](O)[C@@H]2O)CO)C

$$$$
NGT_A_2000
          07202402303D 1   1.00000     0.00000     0
            
 27 28  0  0  0  0            999 V2000
   33.7966   20.1944  -15.8919 S   0  0  0  0  0  0  0  0  0  0  0  0
   35.2701   18.0777  -12.1341 O   0  0  0  0  0  0  0  0  0  0  0  0
   34.7343   15.2106  -15.1807 O   0  0  0  0  0  0  0  0  0  0  0  0
   34.8602   16.0459  -17.8526 O   0  0  0  0  0  0  0  0  0  0  0  0
   35.7960   18.7706  -14.7920 O   0  0  0  0  0  0  0  0  0  0  0  0
   34.2367   19.0515  -18.1460 N   0  0  0  0  0  0  0  0  0  0  0  0
   32.3347   20.7014  -18.2744 C   0  0  0  0  0  0  0  0  0  0  0  0
   35.5992   17.0501  -13.0676 C   0  0  0  0  0  0  0  0  0  0  0  0
   33.4327   19.9464  -17.5549 C   0  0  0  0  0  0  0  0  0  0  0  0
   35.4072   19.4137  -16.0131 C   0  0  1  0  0  0  0  0  0  0  0  0
   35.3228   16.4799  -15.5211 C   0  0  1  0  0  0  0  0  0  0  0  0
   34.6727   17.0103  -16.8038 C   0  0  1  0  0  0  0  0  0  0  0  0
   35.0896   17.5234  -14.4270 C   0  0  2  0  0  0  0  0  0  0  0  0
   35.2330   18.4087  -17.2080 C   0  0  1  0  0  0  0  0  0  0  0  0
   35.5852   17.8133  -11.2226 H   0  0  0  0  0  0  0  0  0  0  0  0
   35.1561   14.8612  -14.3441 H   0  0  0  0  0  0  0  0  0  0  0  0
   34.4391   16.3830  -18.6946 H   0  0  0  0  0  0  0  0  0  0  0  0
   32.2954   20.4038  -19.2283 H   0  0  0  0  0  0  0  0  0  0  0  0
   31.4576   20.5166  -17.8312 H   0  0  0  0  0  0  0  0  0  0  0  0
   32.5261   21.6822  -18.2388 H   0  0  0  0  0  0  0  0  0  0  0  0
   35.1529   16.1931  -12.8102 H   0  0  0  0  0  0  0  0  0  0  0  0
   36.5895   16.9144  -13.0976 H   0  0  0  0  0  0  0  0  0  0  0  0
   36.0908   20.1018  -16.2567 H   0  0  0  0  0  0  0  0  0  0  0  0
   36.3052   16.3639  -15.6679 H   0  0  0  0  0  0  0  0  0  0  0  0
   33.6908   17.1042  -16.6392 H   0  0  0  0  0  0  0  0  0  0  0  0
   34.1098   17.7116  -14.3601 H   0  0  0  0  0  0  0  0  0  0  0  0
   36.1082   18.2943  -17.6781 H   0  0  0  0  0  0  0  0  0  0  0  0
  1  9  1  0  0  0  0
  1 10  1  0  0  0  0
  2  8  1  0  0  0  0
  3 11  1  0  0  0  0
  4 12  1  0  0  0  0
  5 10  1  0  0  0  0
  5 13  1  0  0  0  0
  6  9  2  0  0  0  0
  6 14  1  0  0  0  0
  7  9  1  0  0  0  0
  8 13  1  0  0  0  0
 10 14  1  0  0  0  0
 11 12  1  0  0  0  0
 11 13  1  0  0  0  0
 12 14  1  0  0  0  0
  2 15  1  0  0  0  0
  3 16  1  0  0  0  0
  4 17  1  0  0  0  0
  7 18  1  0  0  0  0
  7 19  1  0  0  0  0
  7 20  1  0  0  0  0
  8 21  1  0  0  0  0
  8 22  1  0  0  0  0
 10 23  1  0  0  0  0
 11 24  1  0  0  0  0
 12 25  1  0  0  0  0
 13 26  1  0  0  0  0
 14 27  1  0  0  0  0
M  END
> <pdb_id>
3SUR

> <uniprot_id>
D0VX21

> <usmiles>
S1C(=N[C@H]2[C@@H]1O[C@@H]([C@@H](O)[C@@H]2O)CO)C

$$$$
NGT_A_511
          07202409593D 1   1.00000     0.00000     0
            
 27 28  0  0  0  0            999 V2000
   -5.4232   64.1871    9.0205 S   0  0  0  0  0  0  0  0  0  0  0  0
   -1.5673   66.1775   10.9094 O   0  0  0  0  0  0  0  0  0  0  0  0
   -3.3156   68.5748    7.8817 O   0  0  0  0  0  0  0  0  0  0  0  0
   -6.1351   68.5089    7.4442 O   0  0  0  0  0  0  0  0  0  0  0  0
   -4.4314   66.2187   10.5369 O   0  0  0  0  0  0  0  0  0  0  0  0
   -7.2750   65.8113    8.2128 N   0  0  0  0  0  0  0  0  0  0  0  0
   -7.5374   63.5220    7.3114 C   0  0  0  0  0  0  0  0  0  0  0  0
   -2.2671   67.3012   10.3736 C   0  0  0  0  0  0  0  0  0  0  0  0
   -6.8762   64.6176    8.1146 C   0  0  0  0  0  0  0  0  0  0  0  0
   -5.6367   65.7452   10.0130 C   0  0  1  0  0  0  0  0  0  0  0  0
   -4.2007   67.9920    8.8218 C   0  0  1  0  0  0  0  0  0  0  0  0
   -5.4358   67.4503    8.0810 C   0  0  1  0  0  0  0  0  0  0  0  0
   -3.4932   66.8505    9.5836 C   0  0  2  0  0  0  0  0  0  0  0  0
   -6.4113   66.6626    9.0205 C   0  0  1  0  0  0  0  0  0  0  0  0
   -0.7695   66.4951   11.4219 H   0  0  0  0  0  0  0  0  0  0  0  0
   -2.5103   68.9290    8.3571 H   0  0  0  0  0  0  0  0  0  0  0  0
   -6.9339   68.1417    6.9678 H   0  0  0  0  0  0  0  0  0  0  0  0
   -8.3436   63.8890    6.8475 H   0  0  0  0  0  0  0  0  0  0  0  0
   -6.8927   63.1713    6.6322 H   0  0  0  0  0  0  0  0  0  0  0  0
   -7.8134   62.7806    7.9231 H   0  0  0  0  0  0  0  0  0  0  0  0
   -1.6555   67.8097    9.7675 H   0  0  0  0  0  0  0  0  0  0  0  0
   -2.5604   67.8931   11.1243 H   0  0  0  0  0  0  0  0  0  0  0  0
   -6.2450   65.5398   10.7796 H   0  0  0  0  0  0  0  0  0  0  0  0
   -4.4912   68.6910    9.4753 H   0  0  0  0  0  0  0  0  0  0  0  0
   -5.1176   66.8215    7.3715 H   0  0  0  0  0  0  0  0  0  0  0  0
   -3.2048   66.1599    8.9203 H   0  0  0  0  0  0  0  0  0  0  0  0
   -6.9718   67.3108    9.5359 H   0  0  0  0  0  0  0  0  0  0  0  0
  1  9  1  0  0  0  0
  1 10  1  0  0  0  0
  2  8  1  0  0  0  0
  3 11  1  0  0  0  0
  4 12  1  0  0  0  0
  5 10  1  0  0  0  0
  5 13  1  0  0  0  0
  6  9  2  0  0  0  0
  6 14  1  0  0  0  0
  7  9  1  0  0  0  0
  8 13  1  0  0  0  0
 10 14  1  0  0  0  0
 11 12  1  0  0  0  0
 11 13  1  0  0  0  0
 12 14  1  0  0  0  0
  2 15  1  0  0  0  0
  3 16  1  0  0  0  0
  4 17  1  0  0  0  0
  7 18  1  0  0  0  0
  7 19  1  0  0  0  0
  7 20  1  0  0  0  0
  8 21  1  0  0  0  0
  8 22  1  0  0  0  0
 10 23  1  0  0  0  0
 11 24  1  0  0  0  0
 12 25  1  0  0  0  0
 13 26  1  0  0  0  0
 14 27  1  0  0  0  0
M  END
> <pdb_id>
1HP5

> <uniprot_id>
O85361

> <usmiles>
S1C(=N[C@H]2[C@@H]1O[C@@H]([C@@H](O)[C@@H]2O)CO)C

$$$$
NGW_A_1615
          07192422263D 1   1.00000     0.00000     0
            
 29 30  0  0  0  0            999 V2000
   17.5179   29.6078   22.6579 S   0  0  0  0  0  0  0  0  0  0  0  0
   17.1064   30.0934   28.0712 O   0  0  0  0  0  0  0  0  0  0  0  0
   14.2343   30.6385   26.1795 O   0  0  0  0  0  0  0  0  0  0  0  0
   13.5771   28.3280   24.5941 O   0  0  0  0  0  0  0  0  0  0  0  0
   17.5877   29.3632   25.3664 O   0  0  0  0  0  0  0  0  0  0  0  0
   15.7972   27.6313   22.6537 N   0  0  0  0  0  0  0  0  0  0  0  0
   16.5617   28.2858   20.3709 C   0  0  0  0  0  0  0  0  0  0  0  0
   17.1187   31.0221   26.9794 C   0  0  0  0  0  0  0  0  0  0  0  0
   16.1973   28.7480   21.7821 C   0  0  2  0  0  0  0  0  0  0  0  0
   17.3620   28.5959   24.1849 C   0  0  1  0  0  0  0  0  0  0  0  0
   15.1876   29.6467   25.8164 C   0  0  1  0  0  0  0  0  0  0  0  0
   14.8047   29.0620   24.4634 C   0  0  1  0  0  0  0  0  0  0  0  0
   16.5845   30.3246   25.7059 C   0  0  2  0  0  0  0  0  0  0  0  0
   15.8979   28.0564   24.0651 C   0  0  1  0  0  0  0  0  0  0  0  0
   17.4515   30.5429   28.8951 H   0  0  0  0  0  0  0  0  0  0  0  0
   14.4795   31.0272   27.0676 H   0  0  0  0  0  0  0  0  0  0  0  0
   13.3230   27.9428   23.7069 H   0  0  0  0  0  0  0  0  0  0  0  0
   16.4016   26.8505   22.4957 H   0  0  0  0  0  0  0  0  0  0  0  0
   15.7776   27.8212   19.9594 H   0  0  0  0  0  0  0  0  0  0  0  0
   16.8093   29.0787   19.8140 H   0  0  0  0  0  0  0  0  0  0  0  0
   17.3366   27.6553   20.4163 H   0  0  0  0  0  0  0  0  0  0  0  0
   18.0543   31.3371   26.8198 H   0  0  0  0  0  0  0  0  0  0  0  0
   16.5366   31.8047   27.2004 H   0  0  0  0  0  0  0  0  0  0  0  0
   15.4203   29.3732   21.7088 H   0  0  0  0  0  0  0  0  0  0  0  0
   18.0066   27.8322   24.1506 H   0  0  0  0  0  0  0  0  0  0  0  0
   15.2109   28.9245   26.5077 H   0  0  0  0  0  0  0  0  0  0  0  0
   14.7168   29.7830   23.7761 H   0  0  0  0  0  0  0  0  0  0  0  0
   16.5436   31.0037   24.9731 H   0  0  0  0  0  0  0  0  0  0  0  0
   15.8104   27.2473   24.6463 H   0  0  0  0  0  0  0  0  0  0  0  0
  1  9  1  0  0  0  0
  1 10  1  0  0  0  0
  2  8  1  0  0  0  0
  3 11  1  0  0  0  0
  4 12  1  0  0  0  0
  5 10  1  0  0  0  0
  5 13  1  0  0  0  0
  6  9  1  0  0  0  0
  6 14  1  0  0  0  0
  7  9  1  0  0  0  0
  8 13  1  0  0  0  0
 10 14  1  0  0  0  0
 11 12  1  0  0  0  0
 11 13  1  0  0  0  0
 12 14  1  0  0  0  0
  2 15  1  0  0  0  0
  3 16  1  0  0  0  0
  4 17  1  0  0  0  0
  6 18  1  0  0  0  0
  7 19  1  0  0  0  0
  7 20  1  0  0  0  0
  7 21  1  0  0  0  0
  8 22  1  0  0  0  0
  8 23  1  0  0  0  0
  9 24  1  0  0  0  0
 10 25  1  0  0  0  0
 11 26  1  0  0  0  0
 12 27  1  0  0  0  0
 13 28  1  0  0  0  0
 14 29  1  0  0  0  0
M  END
> <pdb_id>
4AZ5

> <uniprot_id>
P49610

> <usmiles>
S1[C@H]2O[C@@H]([C@@H](O)[C@H](O)[C@H]2N[C@@H]1C)CO

$$$$
NGW_A_2042
          07192422263D 1   1.00000     0.00000     0
            
 29 30  0  0  0  0            999 V2000
  -31.2093  -25.2707  -55.9983 S   0  0  0  0  0  0  0  0  0  0  0  0
  -34.8438  -23.5582  -52.1897 O   0  0  0  0  0  0  0  0  0  0  0  0
  -31.5326  -22.3713  -51.9746 O   0  0  0  0  0  0  0  0  0  0  0  0
  -30.8233  -21.0598  -54.2988 O   0  0  0  0  0  0  0  0  0  0  0  0
  -33.3798  -24.4862  -54.4107 O   0  0  0  0  0  0  0  0  0  0  0  0
  -31.0017  -22.8164  -56.8103 N   0  0  0  0  0  0  0  0  0  0  0  0
  -29.3258  -24.3302  -57.8520 C   0  0  0  0  0  0  0  0  0  0  0  0
  -33.7010  -24.4020  -52.0525 C   0  0  0  0  0  0  0  0  0  0  0  0
  -30.0881  -23.9575  -56.5725 C   0  0  2  0  0  0  0  0  0  0  0  0
  -32.6450  -24.1697  -55.6651 C   0  0  1  0  0  0  0  0  0  0  0  0
  -32.2353  -22.6676  -53.1796 C   0  0  1  0  0  0  0  0  0  0  0  0
  -31.2882  -22.4231  -54.3423 C   0  0  1  0  0  0  0  0  0  0  0  0
  -32.6945  -24.1177  -53.1828 C   0  0  2  0  0  0  0  0  0  0  0  0
  -31.9743  -22.7699  -55.6942 C   0  0  1  0  0  0  0  0  0  0  0  0
  -35.4906  -23.7504  -51.4517 H   0  0  0  0  0  0  0  0  0  0  0  0
  -32.1349  -22.5243  -51.1912 H   0  0  0  0  0  0  0  0  0  0  0  0
  -30.1996  -20.8958  -55.0631 H   0  0  0  0  0  0  0  0  0  0  0  0
  -31.4849  -22.9431  -57.6766 H   0  0  0  0  0  0  0  0  0  0  0  0
  -28.7289  -23.5729  -58.1170 H   0  0  0  0  0  0  0  0  0  0  0  0
  -28.7738  -25.1471  -57.6851 H   0  0  0  0  0  0  0  0  0  0  0  0
  -29.9783  -24.5133  -58.5874 H   0  0  0  0  0  0  0  0  0  0  0  0
  -33.9888  -25.3585  -52.0987 H   0  0  0  0  0  0  0  0  0  0  0  0
  -33.2650  -24.2273  -51.1697 H   0  0  0  0  0  0  0  0  0  0  0  0
  -29.4393  -23.7259  -55.8477 H   0  0  0  0  0  0  0  0  0  0  0  0
  -33.2820  -24.2345  -56.4332 H   0  0  0  0  0  0  0  0  0  0  0  0
  -33.0289  -22.0647  -53.2614 H   0  0  0  0  0  0  0  0  0  0  0  0
  -30.4975  -23.0251  -54.2313 H   0  0  0  0  0  0  0  0  0  0  0  0
  -31.8980  -24.7108  -53.0650 H   0  0  0  0  0  0  0  0  0  0  0  0
  -32.6689  -22.0790  -55.8948 H   0  0  0  0  0  0  0  0  0  0  0  0
  1  9  1  0  0  0  0
  1 10  1  0  0  0  0
  2  8  1  0  0  0  0
  3 11  1  0  0  0  0
  4 12  1  0  0  0  0
  5 10  1  0  0  0  0
  5 13  1  0  0  0  0
  6  9  1  0  0  0  0
  6 14  1  0  0  0  0
  7  9  1  0  0  0  0
  8 13  1  0  0  0  0
 10 14  1  0  0  0  0
 11 12  1  0  0  0  0
 11 13  1  0  0  0  0
 12 14  1  0  0  0  0
  2 15  1  0  0  0  0
  3 16  1  0  0  0  0
  4 17  1  0  0  0  0
  6 18  1  0  0  0  0
  7 19  1  0  0  0  0
  7 20  1  0  0  0  0
  7 21  1  0  0  0  0
  8 22  1  0  0  0  0
  8 23  1  0  0  0  0
  9 24  1  0  0  0  0
 10 25  1  0  0  0  0
 11 26  1  0  0  0  0
 12 27  1  0  0  0  0
 13 28  1  0  0  0  0
 14 29  1  0  0  0  0
M  END
> <pdb_id>
4AZC

> <uniprot_id>
P49610

> <usmiles>
S1[C@H]2O[C@@H]([C@@H](O)[C@H](O)[C@H]2N[C@@H]1C)CO

$$$$
NHE_A_1000
          07202415133D 1   1.00000     0.00000     0
            
 30 30  0  0  0  0            999 V2000
   -2.8301   -5.3865  -32.9767 S   0  0  0  0  0  0  0  0  0  0  0  0
   -3.8920   -5.1694  -31.9641 O   0  0  0  0  0  0  0  0  0  0  0  0
   -2.5255   -4.0954  -33.6266 O   0  0  0  0  0  0  0  0  0  0  0  0
   -1.6105   -5.9130  -32.3255 O   0  0  0  0  0  0  0  0  0  0  0  0
   -4.9099   -6.9851  -35.9261 N   0  0  0  0  0  0  0  0  0  0  0  0
   -3.3110   -6.4978  -34.1273 C   0  0  0  0  0  0  0  0  0  0  0  0
   -4.6047   -6.0892  -34.8244 C   0  0  0  0  0  0  0  0  0  0  0  0
   -7.5144   -6.3905  -39.2723 C   0  0  0  0  0  0  0  0  0  0  0  0
   -7.8350   -5.5603  -38.0291 C   0  0  0  0  0  0  0  0  0  0  0  0
   -7.0691   -7.8074  -38.9292 C   0  0  0  0  0  0  0  0  0  0  0  0
   -6.9348   -5.8328  -36.8183 C   0  0  0  0  0  0  0  0  0  0  0  0
   -5.8429   -7.8338  -38.0112 C   0  0  0  0  0  0  0  0  0  0  0  0
   -5.6377   -6.5928  -37.1302 C   0  0  0  0  0  0  0  0  0  0  0  0
   -4.1078   -6.0370  -31.5162 H   0  0  0  0  0  0  0  0  0  0  0  0
   -5.4362   -7.7352  -35.5256 H   0  0  0  0  0  0  0  0  0  0  0  0
   -3.4517   -7.3816  -33.6811 H   0  0  0  0  0  0  0  0  0  0  0  0
   -2.5889   -6.5822  -34.8139 H   0  0  0  0  0  0  0  0  0  0  0  0
   -5.3547   -6.1167  -34.1635 H   0  0  0  0  0  0  0  0  0  0  0  0
   -4.5057   -5.1589  -35.1777 H   0  0  0  0  0  0  0  0  0  0  0  0
   -6.7812   -5.9380  -39.7799 H   0  0  0  0  0  0  0  0  0  0  0  0
   -8.3334   -6.4413  -39.8439 H   0  0  0  0  0  0  0  0  0  0  0  0
   -8.7795   -5.7524  -37.7629 H   0  0  0  0  0  0  0  0  0  0  0  0
   -7.7465   -4.5939  -38.2701 H   0  0  0  0  0  0  0  0  0  0  0  0
   -6.8443   -8.2867  -39.7776 H   0  0  0  0  0  0  0  0  0  0  0  0
   -7.8229   -8.2777  -38.4704 H   0  0  0  0  0  0  0  0  0  0  0  0
   -7.4583   -6.3711  -36.1578 H   0  0  0  0  0  0  0  0  0  0  0  0
   -6.6885   -4.9533  -36.4110 H   0  0  0  0  0  0  0  0  0  0  0  0
   -5.0317   -7.9388  -38.5864 H   0  0  0  0  0  0  0  0  0  0  0  0
   -5.9288   -8.6269  -37.4081 H   0  0  0  0  0  0  0  0  0  0  0  0
   -5.0466   -5.9670  -37.6390 H   0  0  0  0  0  0  0  0  0  0  0  0
  1  2  1  0  0  0  0
  1  3  2  0  0  0  0
  1  4  2  0  0  0  0
  1  6  1  0  0  0  0
  5  7  1  0  0  0  0
  5 13  1  0  0  0  0
  6  7  1  0  0  0  0
  8  9  1  0  0  0  0
  8 10  1  0  0  0  0
  9 11  1  0  0  0  0
 10 12  1  0  0  0  0
 11 13  1  0  0  0  0
 12 13  1  0  0  0  0
  2 14  1  0  0  0  0
  5 15  1  0  0  0  0
  6 16  1  0  0  0  0
  6 17  1  0  0  0  0
  7 18  1  0  0  0  0
  7 19  1  0  0  0  0
  8 20  1  0  0  0  0
  8 21  1  0  0  0  0
  9 22  1  0  0  0  0
  9 23  1  0  0  0  0
 10 24  1  0  0  0  0
 10 25  1  0  0  0  0
 11 26  1  0  0  0  0
 11 27  1  0  0  0  0
 12 28  1  0  0  0  0
 12 29  1  0  0  0  0
 13 30  1  0  0  0  0
M  END
> <pdb_id>
2VW2

> <uniprot_id>
Q54727

> <usmiles>
S(=O)(=O)(O)CCNC1CCCCC1

$$$$
NHG_A_1541
          07192421493D 1   1.00000     0.00000     0
            
 28 30  0  0  0  0            999 V2000
    5.6040   63.5473   62.6945 O   0  0  0  0  0  0  0  0  0  0  0  0
    3.8168   69.6540   64.8637 N   0  0  0  0  0  0  0  0  0  0  0  0
    2.5099   67.6308   64.6232 N   0  0  0  0  0  0  0  0  0  0  0  0
    3.5189   68.4867   61.4495 C   0  0  0  0  0  0  0  0  0  0  0  0
    5.1878   69.1471   64.7087 C   0  0  0  0  0  0  0  0  0  0  0  0
    3.8576   64.2160   64.1785 C   0  0  0  0  0  0  0  0  0  0  0  0
    3.0687   65.2279   64.7141 C   0  0  0  0  0  0  0  0  0  0  0  0
    5.2827   69.0631   63.1869 C   0  0  0  0  0  0  0  0  0  0  0  0
    4.9146   65.8270   62.7417 C   0  0  0  0  0  0  0  0  0  0  0  0
    4.7891   64.5175   63.1913 C   0  0  0  0  0  0  0  0  0  0  0  0
    3.0043   68.8393   63.9448 C   0  0  2  0  0  0  0  0  0  0  0  0
    3.1973   66.5423   64.2785 C   0  0  0  0  0  0  0  0  0  0  0  0
    4.1236   66.8358   63.2803 C   0  0  0  0  0  0  0  0  0  0  0  0
    3.9849   68.3090   62.8968 C   0  0  1  0  0  0  0  0  0  0  0  0
    6.2719   63.7705   61.9845 H   0  0  0  0  0  0  0  0  0  0  0  0
    3.7688   70.6207   64.6125 H   0  0  0  0  0  0  0  0  0  0  0  0
    1.7461   67.6267   65.2687 H   0  0  0  0  0  0  0  0  0  0  0  0
    2.6700   67.9775   61.3077 H   0  0  0  0  0  0  0  0  0  0  0  0
    3.3599   69.4571   61.2673 H   0  0  0  0  0  0  0  0  0  0  0  0
    4.2223   68.1418   60.8281 H   0  0  0  0  0  0  0  0  0  0  0  0
    5.3002   68.2499   65.1358 H   0  0  0  0  0  0  0  0  0  0  0  0
    5.8613   69.7827   65.0862 H   0  0  0  0  0  0  0  0  0  0  0  0
    3.7556   63.2754   64.5020 H   0  0  0  0  0  0  0  0  0  0  0  0
    2.3988   65.0072   65.4229 H   0  0  0  0  0  0  0  0  0  0  0  0
    6.0876   68.5489   62.8908 H   0  0  0  0  0  0  0  0  0  0  0  0
    5.2911   69.9687   62.7628 H   0  0  0  0  0  0  0  0  0  0  0  0
    5.5783   66.0449   62.0261 H   0  0  0  0  0  0  0  0  0  0  0  0
    2.2625   69.3673   63.5312 H   0  0  0  0  0  0  0  0  0  0  0  0
  1 10  1  0  0  0  0
  2  5  1  0  0  0  0
  2 11  1  0  0  0  0
  3 11  1  0  0  0  0
  3 12  1  0  0  0  0
  4 14  1  0  0  0  0
  5  8  1  0  0  0  0
  6  7  1  0  0  0  0
  6 10  2  0  0  0  0
  7 12  2  0  0  0  0
  8 14  1  0  0  0  0
  9 10  1  0  0  0  0
  9 13  2  0  0  0  0
 11 14  1  0  0  0  0
 12 13  1  0  0  0  0
 13 14  1  0  0  0  0
  1 15  1  0  0  0  0
  2 16  1  0  0  0  0
  3 17  1  0  0  0  0
  4 18  1  0  0  0  0
  4 19  1  0  0  0  0
  4 20  1  0  0  0  0
  5 21  1  0  0  0  0
  5 22  1  0  0  0  0
  6 23  1  0  0  0  0
  7 24  1  0  0  0  0
  8 25  1  0  0  0  0
  8 26  1  0  0  0  0
  9 27  1  0  0  0  0
 11 28  1  0  0  0  0
M  END
> <pdb_id>
3ZV7

> <uniprot_id>
P04058

> <usmiles>
Oc1cc2c(N[C@H]3NCC[C@@]23C)cc1

$$$$
NHI_A_504
          07212402253D 1   1.00000     0.00000     0
            
 40 42  0  0  0  0            999 V2000
  106.1895  -14.9814    9.5710 O   0  0  0  0  0  0  0  0  0  0  0  0
  105.9904  -12.8900    8.9771 O   0  0  0  0  0  0  0  0  0  0  0  0
  110.6822  -18.6097   10.0809 O   0  0  0  0  0  0  0  0  0  0  0  0
  110.6269  -20.7738    9.3079 O   0  0  0  0  0  0  0  0  0  0  0  0
  108.2767  -16.0514    1.4389 N   0  0  0  0  0  0  0  0  0  0  0  0
  109.1568  -16.8038    3.5518 N   0  0  0  0  0  0  0  0  0  0  0  0
  107.1553  -15.6102    3.3660 N   0  0  0  0  0  0  0  0  0  0  0  0
  111.1680  -17.9864    3.5668 N   0  0  0  0  0  0  0  0  0  0  0  0
  109.3617  -16.6151    0.8223 C   0  0  0  0  0  0  0  0  0  0  0  0
  110.3813  -17.2871    1.5039 C   0  0  0  0  0  0  0  0  0  0  0  0
  106.1435  -14.1531    4.9288 C   0  0  0  0  0  0  0  0  0  0  0  0
  107.4826  -16.0460    5.7369 C   0  0  0  0  0  0  0  0  0  0  0  0
  111.1040  -19.7167    5.1852 C   0  0  0  0  0  0  0  0  0  0  0  0
  110.9358  -17.3576    5.8592 C   0  0  0  0  0  0  0  0  0  0  0  0
  105.8827  -13.7741    6.2771 C   0  0  0  0  0  0  0  0  0  0  0  0
  107.2339  -15.6759    7.0809 C   0  0  0  0  0  0  0  0  0  0  0  0
  110.9916  -20.1068    6.5507 C   0  0  0  0  0  0  0  0  0  0  0  0
  110.8223  -17.7473    7.2127 C   0  0  0  0  0  0  0  0  0  0  0  0
  108.2113  -16.1628    2.7989 C   0  0  0  0  0  0  0  0  0  0  0  0
  106.1967  -14.1640    8.6756 C   0  0  0  0  0  0  0  0  0  0  0  0
  110.7165  -19.5901    9.0385 C   0  0  0  0  0  0  0  0  0  0  0  0
  110.2307  -17.3590    2.8915 C   0  0  0  0  0  0  0  0  0  0  0  0
  106.9489  -15.2902    4.6342 C   0  0  0  0  0  0  0  0  0  0  0  0
  111.0731  -18.3386    4.8245 C   0  0  0  0  0  0  0  0  0  0  0  0
  106.4335  -14.5354    7.3666 C   0  0  0  0  0  0  0  0  0  0  0  0
  110.8472  -19.1162    7.5667 C   0  0  0  0  0  0  0  0  0  0  0  0
  106.3430  -15.9482    9.3666 H   0  0  0  0  0  0  0  0  0  0  0  0
  110.7560  -17.6381    9.8562 H   0  0  0  0  0  0  0  0  0  0  0  0
  106.3989  -15.4024    2.7459 H   0  0  0  0  0  0  0  0  0  0  0  0
  112.0150  -18.2109    3.0850 H   0  0  0  0  0  0  0  0  0  0  0  0
  109.4289  -16.5420   -0.1727 H   0  0  0  0  0  0  0  0  0  0  0  0
  111.1651  -17.6890    1.0305 H   0  0  0  0  0  0  0  0  0  0  0  0
  105.7564  -13.6144    4.1805 H   0  0  0  0  0  0  0  0  0  0  0  0
  108.0430  -16.8527    5.5491 H   0  0  0  0  0  0  0  0  0  0  0  0
  111.2053  -20.4141    4.4757 H   0  0  0  0  0  0  0  0  0  0  0  0
  110.9201  -16.3865    5.6211 H   0  0  0  0  0  0  0  0  0  0  0  0
  105.3135  -12.9742    6.4674 H   0  0  0  0  0  0  0  0  0  0  0  0
  107.6207  -16.2158    7.8284 H   0  0  0  0  0  0  0  0  0  0  0  0
  111.0139  -21.0757    6.7971 H   0  0  0  0  0  0  0  0  0  0  0  0
  110.7239  -17.0514    7.9241 H   0  0  0  0  0  0  0  0  0  0  0  0
  1 20  1  0  0  0  0
  2 20  2  0  0  0  0
  3 21  1  0  0  0  0
  4 21  2  0  0  0  0
  5  9  1  0  0  0  0
  5 19  2  0  0  0  0
  6 19  1  0  0  0  0
  6 22  2  0  0  0  0
  7 19  1  0  0  0  0
  7 23  1  0  0  0  0
  8 22  1  0  0  0  0
  8 24  1  0  0  0  0
  9 10  2  0  0  0  0
 10 22  1  0  0  0  0
 11 15  1  0  0  0  0
 11 23  2  0  0  0  0
 12 16  2  0  0  0  0
 12 23  1  0  0  0  0
 13 17  1  0  0  0  0
 13 24  2  0  0  0  0
 14 18  2  0  0  0  0
 14 24  1  0  0  0  0
 15 25  2  0  0  0  0
 16 25  1  0  0  0  0
 17 26  2  0  0  0  0
 18 26  1  0  0  0  0
 20 25  1  0  0  0  0
 21 26  1  0  0  0  0
  1 27  1  0  0  0  0
  3 28  1  0  0  0  0
  7 29  1  0  0  0  0
  8 30  1  0  0  0  0
  9 31  1  0  0  0  0
 10 32  1  0  0  0  0
 11 33  1  0  0  0  0
 12 34  1  0  0  0  0
 13 35  1  0  0  0  0
 14 36  1  0  0  0  0
 15 37  1  0  0  0  0
 16 38  1  0  0  0  0
 17 39  1  0  0  0  0
 18 40  1  0  0  0  0
M  END
> <pdb_id>
4DEA

> <uniprot_id>
O14965

> <usmiles>
O=C(O)c1ccc(Nc2nc(Nc3ccc(cc3)C(=O)O)ccn2)cc1

$$$$
NHK_A_0
          07192418003D 1   1.00000     0.00000     0
            
 36 36  0  0  0  0            999 V2000
   15.7395   26.1347    0.6866 S   0  0  0  0  0  0  0  0  0  0  0  0
   16.1425   25.4498    1.8981 O   0  0  0  0  0  0  0  0  0  0  0  0
   14.9708   25.2710   -0.1749 O   0  0  0  0  0  0  0  0  0  0  0  0
   18.1866   29.8209    3.2286 O   0  0  0  0  0  0  0  0  0  0  0  0
   11.9932   27.5220    1.1076 O   0  0  0  0  0  0  0  0  0  0  0  0
   16.0685   29.9754    1.5534 O   0  0  0  0  0  0  0  0  0  0  0  0
   20.5777   27.6073   -2.1092 O   0  0  0  0  0  0  0  0  0  0  0  0
   17.1320   28.9153    3.2328 N   0  0  0  0  0  0  0  0  0  0  0  0
   14.9208   27.3957    1.0731 N   0  0  0  0  0  0  0  0  0  0  0  0
   20.8186   27.5721   -3.5164 C   0  0  0  0  0  0  0  0  0  0  0  0
   12.8218   28.5974    0.6518 C   0  0  0  0  0  0  0  0  0  0  0  0
   14.1083   28.0383    0.0455 C   0  0  0  0  0  0  0  0  0  0  0  0
   15.0302   28.0066    2.4043 C   0  0  0  0  0  0  0  0  0  0  0  0
   18.2603   26.7361    0.5763 C   0  0  0  0  0  0  0  0  0  0  0  0
   17.0270   26.7399   -1.5134 C   0  0  0  0  0  0  0  0  0  0  0  0
   19.4209   27.0822   -0.1055 C   0  0  0  0  0  0  0  0  0  0  0  0
   18.1945   27.1048   -2.1890 C   0  0  0  0  0  0  0  0  0  0  0  0
   16.1186   29.0624    2.3667 C   0  0  0  0  0  0  0  0  0  0  0  0
   17.0576   26.5721   -0.1171 C   0  0  0  0  0  0  0  0  0  0  0  0
   19.3958   27.2735   -1.4880 C   0  0  0  0  0  0  0  0  0  0  0  0
   18.8493   29.5642    3.9322 H   0  0  0  0  0  0  0  0  0  0  0  0
   11.1532   27.8932    1.5032 H   0  0  0  0  0  0  0  0  0  0  0  0
   17.1290   28.1542    3.8814 H   0  0  0  0  0  0  0  0  0  0  0  0
   21.7576   27.8623   -3.7012 H   0  0  0  0  0  0  0  0  0  0  0  0
   20.6849   26.6405   -3.8543 H   0  0  0  0  0  0  0  0  0  0  0  0
   20.1819   28.1891   -3.9791 H   0  0  0  0  0  0  0  0  0  0  0  0
   13.0493   29.1913    1.4234 H   0  0  0  0  0  0  0  0  0  0  0  0
   12.3301   29.1247   -0.0411 H   0  0  0  0  0  0  0  0  0  0  0  0
   13.8757   27.3666   -0.6578 H   0  0  0  0  0  0  0  0  0  0  0  0
   14.6296   28.7856   -0.3666 H   0  0  0  0  0  0  0  0  0  0  0  0
   15.2645   27.3057    3.0780 H   0  0  0  0  0  0  0  0  0  0  0  0
   14.1591   28.4300    2.6530 H   0  0  0  0  0  0  0  0  0  0  0  0
   18.2857   26.6040    1.5672 H   0  0  0  0  0  0  0  0  0  0  0  0
   16.1758   26.5990   -2.0189 H   0  0  0  0  0  0  0  0  0  0  0  0
   20.2782   27.1946    0.3968 H   0  0  0  0  0  0  0  0  0  0  0  0
   18.1724   27.2464   -3.1787 H   0  0  0  0  0  0  0  0  0  0  0  0
  1  2  2  0  0  0  0
  1  3  2  0  0  0  0
  1  9  1  0  0  0  0
  1 19  1  0  0  0  0
  4  8  1  0  0  0  0
  5 11  1  0  0  0  0
  6 18  2  0  0  0  0
  7 10  1  0  0  0  0
  7 20  1  0  0  0  0
  8 18  1  0  0  0  0
  9 12  1  0  0  0  0
  9 13  1  0  0  0  0
 11 12  1  0  0  0  0
 13 18  1  0  0  0  0
 14 16  2  0  0  0  0
 14 19  1  0  0  0  0
 15 17  1  0  0  0  0
 15 19  2  0  0  0  0
 16 20  1  0  0  0  0
 17 20  2  0  0  0  0
  4 21  1  0  0  0  0
  5 22  1  0  0  0  0
  8 23  1  0  0  0  0
 10 24  1  0  0  0  0
 10 25  1  0  0  0  0
 10 26  1  0  0  0  0
 11 27  1  0  0  0  0
 11 28  1  0  0  0  0
 12 29  1  0  0  0  0
 12 30  1  0  0  0  0
 13 31  1  0  0  0  0
 13 32  1  0  0  0  0
 14 33  1  0  0  0  0
 15 34  1  0  0  0  0
 16 35  1  0  0  0  0
 17 36  1  0  0  0  0
M  END
> <pdb_id>
3NX7

> <uniprot_id>
P39900

> <usmiles>
S(=O)(=O)(N(CC(=O)NO)CCO)c1ccc(OC)cc1

$$$$
NHT_A_801
          07202405173D 1   1.00000     0.00000     0
            
 32 33  0  0  0  0            999 V2000
   27.4173    1.0728  292.7735 S   0  0  0  0  0  0  0  0  0  0  0  0
   26.2862    3.2040  287.7375 O   0  0  0  0  0  0  0  0  0  0  0  0
   27.9569    5.1180  289.8136 O   0  0  0  0  0  0  0  0  0  0  0  0
   30.3479    4.0378  290.9175 O   0  0  0  0  0  0  0  0  0  0  0  0
   27.0650    1.5565  290.1821 O   0  0  0  0  0  0  0  0  0  0  0  0
   29.4222    1.1103  294.5031 N   0  0  0  0  0  0  0  0  0  0  0  0
   29.8726    1.5698  292.3413 N   0  0  0  0  0  0  0  0  0  0  0  0
   29.2240    0.4699  296.8619 C   0  0  0  0  0  0  0  0  0  0  0  0
   25.7744    3.2085  289.0686 C   0  0  0  0  0  0  0  0  0  0  0  0
   28.4943    0.7434  295.5631 C   0  0  0  0  0  0  0  0  0  0  0  0
   29.0327    1.2594  293.2402 C   0  0  0  0  0  0  0  0  0  0  0  0
   28.0188    1.0736  291.1035 C   0  0  1  0  0  0  0  0  0  0  0  0
   28.1638    3.7087  289.8720 C   0  0  1  0  0  0  0  0  0  0  0  0
   29.0830    3.3825  291.0226 C   0  0  1  0  0  0  0  0  0  0  0  0
   26.8531    2.9775  290.1113 C   0  0  2  0  0  0  0  0  0  0  0  0
   29.3236    1.8820  291.0441 C   0  0  1  0  0  0  0  0  0  0  0  0
   25.5383    3.3597  287.0923 H   0  0  0  0  0  0  0  0  0  0  0  0
   27.3474    5.3341  289.0508 H   0  0  0  0  0  0  0  0  0  0  0  0
   30.9179    3.7898  291.7008 H   0  0  0  0  0  0  0  0  0  0  0  0
   30.3847    1.2552  294.7323 H   0  0  0  0  0  0  0  0  0  0  0  0
   28.5629    0.2210  297.5697 H   0  0  0  0  0  0  0  0  0  0  0  0
   29.8697   -0.2822  296.7295 H   0  0  0  0  0  0  0  0  0  0  0  0
   29.7213    1.2904  297.1440 H   0  0  0  0  0  0  0  0  0  0  0  0
   25.0898    2.4842  289.1506 H   0  0  0  0  0  0  0  0  0  0  0  0
   25.3449    4.0945  289.2433 H   0  0  0  0  0  0  0  0  0  0  0  0
   27.9961   -0.0795  295.2897 H   0  0  0  0  0  0  0  0  0  0  0  0
   27.8477    1.4931  295.7042 H   0  0  0  0  0  0  0  0  0  0  0  0
   28.2328    0.1289  290.8552 H   0  0  0  0  0  0  0  0  0  0  0  0
   28.5727    3.3935  289.0157 H   0  0  0  0  0  0  0  0  0  0  0  0
   28.6441    3.6551  291.8788 H   0  0  0  0  0  0  0  0  0  0  0  0
   26.4931    3.2771  290.9948 H   0  0  0  0  0  0  0  0  0  0  0  0
   29.9201    1.5837  290.2989 H   0  0  0  0  0  0  0  0  0  0  0  0
  1 11  1  0  0  0  0
  1 12  1  0  0  0  0
  2  9  1  0  0  0  0
  3 13  1  0  0  0  0
  4 14  1  0  0  0  0
  5 12  1  0  0  0  0
  5 15  1  0  0  0  0
  6 10  1  0  0  0  0
  6 11  1  0  0  0  0
  7 11  2  0  0  0  0
  7 16  1  0  0  0  0
  8 10  1  0  0  0  0
  9 15  1  0  0  0  0
 12 16  1  0  0  0  0
 13 14  1  0  0  0  0
 13 15  1  0  0  0  0
 14 16  1  0  0  0  0
  2 17  1  0  0  0  0
  3 18  1  0  0  0  0
  4 19  1  0  0  0  0
  6 20  1  0  0  0  0
  8 21  1  0  0  0  0
  8 22  1  0  0  0  0
  8 23  1  0  0  0  0
  9 24  1  0  0  0  0
  9 25  1  0  0  0  0
 10 26  1  0  0  0  0
 10 27  1  0  0  0  0
 12 28  1  0  0  0  0
 13 29  1  0  0  0  0
 14 30  1  0  0  0  0
 15 31  1  0  0  0  0
 16 32  1  0  0  0  0
M  END
> <pdb_id>
5MI6

> <uniprot_id>
Q89ZI2

> <usmiles>
S1C(=N[C@H]2[C@@H]1O[C@@H]([C@@H](O)[C@@H]2O)CO)NCC

$$$$
NHT_B_1001
          07192419533D 1   1.00000     0.00000     0
            
 32 33  0  0  0  0            999 V2000
   20.3237    3.0207   25.3732 S   0  0  0  0  0  0  0  0  0  0  0  0
   15.4482    4.4200   27.3510 O   0  0  0  0  0  0  0  0  0  0  0  0
   15.8875    1.1540   26.5611 O   0  0  0  0  0  0  0  0  0  0  0  0
   18.1705   -0.0744   27.8847 O   0  0  0  0  0  0  0  0  0  0  0  0
   18.2593    3.9603   26.7567 O   0  0  0  0  0  0  0  0  0  0  0  0
   22.3198    1.2016   25.6277 N   0  0  0  0  0  0  0  0  0  0  0  0
   20.7644    1.3545   27.3353 N   0  0  0  0  0  0  0  0  0  0  0  0
   23.5542    1.3789   23.5467 C   0  0  0  0  0  0  0  0  0  0  0  0
   15.9712    4.0412   26.0700 C   0  0  0  0  0  0  0  0  0  0  0  0
   22.3650    0.8128   24.2298 C   0  0  0  0  0  0  0  0  0  0  0  0
   21.2325    1.7665   26.1941 C   0  0  0  0  0  0  0  0  0  0  0  0
   19.5117    3.3412   26.9608 C   0  0  1  0  0  0  0  0  0  0  0  0
   16.9827    1.9198   27.0783 C   0  0  1  0  0  0  0  0  0  0  0  0
   18.2881    1.0968   27.0700 C   0  0  1  0  0  0  0  0  0  0  0  0
   17.1959    3.1521   26.2006 C   0  0  2  0  0  0  0  0  0  0  0  0
   19.4360    1.9553   27.5981 C   0  0  1  0  0  0  0  0  0  0  0  0
   14.6455    5.0028   27.2242 H   0  0  0  0  0  0  0  0  0  0  0  0
   15.0557    1.7088   26.5774 H   0  0  0  0  0  0  0  0  0  0  0  0
   19.0295   -0.5857   27.8595 H   0  0  0  0  0  0  0  0  0  0  0  0
   23.1283    1.0443   26.1949 H   0  0  0  0  0  0  0  0  0  0  0  0
   23.5557    1.0932   22.5884 H   0  0  0  0  0  0  0  0  0  0  0  0
   23.5237    2.3772   23.5969 H   0  0  0  0  0  0  0  0  0  0  0  0
   24.3849    1.0479   23.9945 H   0  0  0  0  0  0  0  0  0  0  0  0
   16.2234    4.8674   25.5662 H   0  0  0  0  0  0  0  0  0  0  0  0
   15.2641    3.5459   25.5653 H   0  0  0  0  0  0  0  0  0  0  0  0
   21.5394    1.1444   23.7733 H   0  0  0  0  0  0  0  0  0  0  0  0
   22.4005   -0.1849   24.1709 H   0  0  0  0  0  0  0  0  0  0  0  0
   20.0913    3.9349   27.5190 H   0  0  0  0  0  0  0  0  0  0  0  0
   16.7761    2.2079   28.0134 H   0  0  0  0  0  0  0  0  0  0  0  0
   18.4932    0.8209   26.1309 H   0  0  0  0  0  0  0  0  0  0  0  0
   17.4693    2.8498   25.2875 H   0  0  0  0  0  0  0  0  0  0  0  0
   19.3248    2.0640   28.5859 H   0  0  0  0  0  0  0  0  0  0  0  0
  1 11  1  0  0  0  0
  1 12  1  0  0  0  0
  2  9  1  0  0  0  0
  3 13  1  0  0  0  0
  4 14  1  0  0  0  0
  5 12  1  0  0  0  0
  5 15  1  0  0  0  0
  6 10  1  0  0  0  0
  6 11  1  0  0  0  0
  7 11  2  0  0  0  0
  7 16  1  0  0  0  0
  8 10  1  0  0  0  0
  9 15  1  0  0  0  0
 12 16  1  0  0  0  0
 13 14  1  0  0  0  0
 13 15  1  0  0  0  0
 14 16  1  0  0  0  0
  2 17  1  0  0  0  0
  3 18  1  0  0  0  0
  4 19  1  0  0  0  0
  6 20  1  0  0  0  0
  8 21  1  0  0  0  0
  8 22  1  0  0  0  0
  8 23  1  0  0  0  0
  9 24  1  0  0  0  0
  9 25  1  0  0  0  0
 10 26  1  0  0  0  0
 10 27  1  0  0  0  0
 12 28  1  0  0  0  0
 13 29  1  0  0  0  0
 14 30  1  0  0  0  0
 15 31  1  0  0  0  0
 16 32  1  0  0  0  0
M  END
> <pdb_id>
5M7S

> <uniprot_id>
O60502

> <usmiles>
S1C(=N[C@H]2[C@@H]1O[C@@H]([C@@H](O)[C@@H]2O)CO)NCC

$$$$
NHV_B_1868
          07192417363D 1   1.00000     0.00000     0
            
 41 43  0  0  0  0            999 V2000
  -17.7030   61.4480   48.2840 O   0  0  0  0  0  0  0  0  0  0  0  0
  -18.9470   55.2860   47.9070 O   0  0  0  0  0  0  0  0  0  0  0  0
  -19.9990   57.3080   46.1630 O   0  0  0  0  0  0  0  0  0  0  0  0
  -17.6210   59.4140   45.2970 O   0  0  0  0  0  0  0  0  0  0  0  0
  -20.8940   58.8430   52.1170 N   0  0  0  0  0  0  0  0  0  0  0  0
  -18.9500   57.1570   50.0760 N   0  0  0  0  0  0  0  0  0  0  0  0
  -17.7790   58.6220   48.9340 N   0  0  0  0  0  0  0  0  0  0  0  0
  -16.6930   60.5750   47.7270 C   0  0  0  0  0  0  0  0  0  0  0  0
  -19.4500   58.5880   52.1640 C   0  0  0  0  0  0  0  0  0  0  0  0
  -22.5080   62.5620   50.9380 C   0  0  0  0  0  0  0  0  0  0  0  0
  -21.1360   62.4500   51.2000 C   0  0  0  0  0  0  0  0  0  0  0  0
  -23.3310   61.4470   51.0580 C   0  0  0  0  0  0  0  0  0  0  0  0
  -18.1600   59.2510   50.0460 C   0  0  0  0  0  0  0  0  0  0  0  0
  -20.5870   61.2220   51.5930 C   0  0  0  0  0  0  0  0  0  0  0  0
  -22.7740   60.2260   51.4560 C   0  0  0  0  0  0  0  0  0  0  0  0
  -18.9080   58.3410   50.7780 C   0  0  0  0  0  0  0  0  0  0  0  0
  -21.4050   60.0770   51.7290 C   0  0  0  0  0  0  0  0  0  0  0  0
  -18.3510   57.4110   48.9040 C   0  0  0  0  0  0  0  0  0  0  0  0
  -18.2390   56.5250   47.6620 C   0  0  2  0  0  0  0  0  0  0  0  0
  -18.5920   57.3570   46.4090 C   0  0  2  0  0  0  0  0  0  0  0  0
  -18.1940   58.8710   46.5160 C   0  0  1  0  0  0  0  0  0  0  0  0
  -17.1680   59.1340   47.6670 C   0  0  2  0  0  0  0  0  0  0  0  0
  -17.3566   62.3858   48.3081 H   0  0  0  0  0  0  0  0  0  0  0  0
  -18.8800   54.6987   47.1004 H   0  0  0  0  0  0  0  0  0  0  0  0
  -20.2144   57.8497   45.3505 H   0  0  0  0  0  0  0  0  0  0  0  0
  -17.3922   60.3774   45.4366 H   0  0  0  0  0  0  0  0  0  0  0  0
  -21.5267   58.1112   52.3703 H   0  0  0  0  0  0  0  0  0  0  0  0
  -15.8730   60.6225   48.2974 H   0  0  0  0  0  0  0  0  0  0  0  0
  -16.4733   60.8827   46.8012 H   0  0  0  0  0  0  0  0  0  0  0  0
  -19.2768   57.7838   52.7326 H   0  0  0  0  0  0  0  0  0  0  0  0
  -18.9890   59.3820   52.5603 H   0  0  0  0  0  0  0  0  0  0  0  0
  -22.8951   63.4427   50.6650 H   0  0  0  0  0  0  0  0  0  0  0  0
  -20.5451   63.2512   51.1060 H   0  0  0  0  0  0  0  0  0  0  0  0
  -24.3092   61.5169   50.8622 H   0  0  0  0  0  0  0  0  0  0  0  0
  -17.9480   60.1941   50.3021 H   0  0  0  0  0  0  0  0  0  0  0  0
  -19.6068   61.1550   51.7791 H   0  0  0  0  0  0  0  0  0  0  0  0
  -23.3731   59.4308   51.5493 H   0  0  0  0  0  0  0  0  0  0  0  0
  -17.2724   56.2836   47.5756 H   0  0  0  0  0  0  0  0  0  0  0  0
  -18.1192   56.9603   45.6222 H   0  0  0  0  0  0  0  0  0  0  0  0
  -19.0232   59.3908   46.7215 H   0  0  0  0  0  0  0  0  0  0  0  0
  -16.3652   58.5682   47.4791 H   0  0  0  0  0  0  0  0  0  0  0  0
  1  8  1  0  0  0  0
  2 19  1  0  0  0  0
  3 20  1  0  0  0  0
  4 21  1  0  0  0  0
  5  9  1  0  0  0  0
  5 17  1  0  0  0  0
  6 16  1  0  0  0  0
  6 18  2  0  0  0  0
  7 13  1  0  0  0  0
  7 18  1  0  0  0  0
  7 22  1  0  0  0  0
  8 22  1  0  0  0  0
  9 16  1  0  0  0  0
 10 11  2  0  0  0  0
 10 12  1  0  0  0  0
 11 14  1  0  0  0  0
 12 15  2  0  0  0  0
 13 16  2  0  0  0  0
 14 17  2  0  0  0  0
 15 17  1  0  0  0  0
 18 19  1  0  0  0  0
 19 20  1  0  0  0  0
 20 21  1  0  0  0  0
 21 22  1  0  0  0  0
  1 23  1  0  0  0  0
  2 24  1  0  0  0  0
  3 25  1  0  0  0  0
  4 26  1  0  0  0  0
  5 27  1  0  0  0  0
  8 28  1  0  0  0  0
  8 29  1  0  0  0  0
  9 30  1  0  0  0  0
  9 31  1  0  0  0  0
 10 32  1  0  0  0  0
 11 33  1  0  0  0  0
 12 34  1  0  0  0  0
 13 35  1  0  0  0  0
 14 36  1  0  0  0  0
 15 37  1  0  0  0  0
 19 38  1  0  0  0  0
 20 39  1  0  0  0  0
 21 40  1  0  0  0  0
 22 41  1  0  0  0  0
M  END
> <pdb_id>
2VOT

> <uniprot_id>
Q8AAK6

> <usmiles>
O[C@@H]1C2=NC(=CN2[C@@H]([C@@H](O)[C@@H]1O)CO)CNc3ccccc3

$$$$
NI9_A_363
          07192421513D 1   1.00000     0.00000     0
            
 29 29  0  0  0  0            999 V2000
   12.6090   17.1790  176.2980 P   0  0  0  0  0  0  0  0  0  0  0  0
   11.7750   14.6490  174.9260 P   0  0  0  0  0  0  0  0  0  0  0  0
   10.4220   21.4330  172.3520 F   0  0  0  0  0  0  0  0  0  0  0  0
   12.9210   16.2900  177.4610 O   0  0  0  0  0  0  0  0  0  0  0  0
   13.6790   17.0160  175.2550 O   0  0  0  0  0  0  0  0  0  0  0  0
   12.3040   18.6090  176.6790 O   0  0  0  0  0  0  0  0  0  0  0  0
   10.5740   14.0980  174.2270 O   0  0  0  0  0  0  0  0  0  0  0  0
   12.1170   14.0430  176.2870 O   0  0  0  0  0  0  0  0  0  0  0  0
   12.9650   14.7780  174.0210 O   0  0  0  0  0  0  0  0  0  0  0  0
   10.1990   16.0760  176.3300 O   0  0  0  0  0  0  0  0  0  0  0  0
   10.3130   18.4990  174.4420 N   0  3  0  0  0  0  0  0  0  0  0  0
    9.7090   18.9550  175.5330 C   0  0  0  0  0  0  0  0  0  0  0  0
   10.5280   19.3260  173.4170 C   0  0  0  0  0  0  0  0  0  0  0  0
   10.7420   17.0950  174.2200 C   0  0  0  0  0  0  0  0  0  0  0  0
    9.3190   20.2800  175.6090 C   0  0  0  0  0  0  0  0  0  0  0  0
    9.5300   21.1530  174.5600 C   0  0  0  0  0  0  0  0  0  0  0  0
   10.1700   20.6660  173.4400 C   0  0  0  0  0  0  0  0  0  0  0  0
   11.2510   16.3240  175.4210 C   0  0  0  0  0  0  0  0  0  0  0  0
   12.2126   16.3935  178.1592 H   0  0  0  0  0  0  0  0  0  0  0  0
   13.4766   17.6076  174.4746 H   0  0  0  0  0  0  0  0  0  0  0  0
   10.4516   14.5688  173.3533 H   0  0  0  0  0  0  0  0  0  0  0  0
   12.9335   14.4883  176.6545 H   0  0  0  0  0  0  0  0  0  0  0  0
    9.4526   15.6083  175.8565 H   0  0  0  0  0  0  0  0  0  0  0  0
    9.5356   18.3391  176.3015 H   0  0  0  0  0  0  0  0  0  0  0  0
   10.9671   18.9633  172.5950 H   0  0  0  0  0  0  0  0  0  0  0  0
   11.4749   17.1092  173.5399 H   0  0  0  0  0  0  0  0  0  0  0  0
    9.9569   16.5957  173.8536 H   0  0  0  0  0  0  0  0  0  0  0  0
    8.8750   20.6127  176.4410 H   0  0  0  0  0  0  0  0  0  0  0  0
    9.2291   22.1053  174.6109 H   0  0  0  0  0  0  0  0  0  0  0  0
  1  4  1  0  0  0  0
  1  5  1  0  0  0  0
  1  6  2  0  0  0  0
  1 18  1  0  0  0  0
  2  7  1  0  0  0  0
  2  8  1  0  0  0  0
  2  9  2  0  0  0  0
  2 18  1  0  0  0  0
  3 17  1  0  0  0  0
 10 18  1  0  0  0  0
 11 12  2  0  0  0  0
 11 13  1  0  0  0  0
 11 14  1  0  0  0  0
 12 15  1  0  0  0  0
 13 17  2  0  0  0  0
 14 18  1  0  0  0  0
 15 16  2  0  0  0  0
 16 17  1  0  0  0  0
  4 19  1  0  0  0  0
  5 20  1  0  0  0  0
  7 21  1  0  0  0  0
  8 22  1  0  0  0  0
 10 23  1  0  0  0  0
 12 24  1  0  0  0  0
 13 25  1  0  0  0  0
 14 26  1  0  0  0  0
 14 27  1  0  0  0  0
 15 28  1  0  0  0  0
 16 29  1  0  0  0  0
M  CHG  1  11   1
M  END
> <pdb_id>
3ICN

> <uniprot_id>
Q95WL3

> <usmiles>
P(=O)(O)(O)C(P(=O)(O)O)(O)C[n+]1cc(F)ccc1

$$$$
NIF_C_455
          07202416383D 1   1.00000     0.00000     0
            
 33 35  0  0  0  0            999 V2000
   81.4649   94.4474   92.4932 S   0  0  0  0  0  0  0  0  0  0  0  0
   78.1713   92.4047   95.3098 O   0  0  0  0  0  0  0  0  0  0  0  0
   79.1425   94.4588   93.7582 N   0  0  0  0  0  0  0  0  0  0  0  0
   83.9369   87.5797   94.9242 N   0  0  0  0  0  0  0  0  0  0  0  0
   81.7084   91.9701   93.5925 N   0  0  0  0  0  0  0  0  0  0  0  0
   79.7897   93.2097   94.0109 N   0  0  0  0  0  0  0  0  0  0  0  0
   82.0308   89.6704   94.5368 N   0  0  0  0  0  0  0  0  0  0  0  0
   80.5844   97.2981   91.6944 C   0  0  0  0  0  0  0  0  0  0  0  0
   84.3682   88.9748   94.5991 C   0  0  0  0  0  0  0  0  0  0  0  0
   82.8157   87.7406   95.8740 C   0  0  0  0  0  0  0  0  0  0  0  0
   83.2719   89.6895   93.8136 C   0  0  0  0  0  0  0  0  0  0  0  0
   81.6458   88.5117   95.2415 C   0  0  0  0  0  0  0  0  0  0  0  0
   79.4532   96.6591   92.5103 C   0  0  0  0  0  0  0  0  0  0  0  0
   79.9748   90.9956   95.0146 C   0  0  0  0  0  0  0  0  0  0  0  0
   81.0117   93.0671   93.4272 C   0  0  0  0  0  0  0  0  0  0  0  0
   79.8606   95.2596   92.9722 C   0  0  0  0  0  0  0  0  0  0  0  0
   79.2339   92.2351   94.8047 C   0  0  0  0  0  0  0  0  0  0  0  0
   81.1740   90.8412   94.4433 C   0  0  0  0  0  0  0  0  0  0  0  0
   84.6857   87.0692   95.3468 H   0  0  0  0  0  0  0  0  0  0  0  0
   80.3065   98.2119   91.3982 H   0  0  0  0  0  0  0  0  0  0  0  0
   81.4060   97.3665   92.2603 H   0  0  0  0  0  0  0  0  0  0  0  0
   80.7779   96.7323   90.8929 H   0  0  0  0  0  0  0  0  0  0  0  0
   85.2031   88.9439   94.0496 H   0  0  0  0  0  0  0  0  0  0  0  0
   84.5461   89.4728   95.4479 H   0  0  0  0  0  0  0  0  0  0  0  0
   83.1393   88.2422   96.6763 H   0  0  0  0  0  0  0  0  0  0  0  0
   82.4947   86.8357   96.1537 H   0  0  0  0  0  0  0  0  0  0  0  0
   83.5459   90.6385   93.6577 H   0  0  0  0  0  0  0  0  0  0  0  0
   83.1461   89.2301   92.9344 H   0  0  0  0  0  0  0  0  0  0  0  0
   81.1744   87.9003   94.6059 H   0  0  0  0  0  0  0  0  0  0  0  0
   81.0179   88.7826   95.9711 H   0  0  0  0  0  0  0  0  0  0  0  0
   78.6326   96.5936   91.9425 H   0  0  0  0  0  0  0  0  0  0  0  0
   79.2607   97.2278   93.3099 H   0  0  0  0  0  0  0  0  0  0  0  0
   79.5890   90.2674   95.5811 H   0  0  0  0  0  0  0  0  0  0  0  0
  1 15  1  0  0  0  0
  1 16  1  0  0  0  0
  2 17  2  0  0  0  0
  3  6  1  0  0  0  0
  3 16  2  0  0  0  0
  4  9  1  0  0  0  0
  4 10  1  0  0  0  0
  5 15  2  0  0  0  0
  5 18  1  0  0  0  0
  6 15  1  0  0  0  0
  6 17  1  0  0  0  0
  7 11  1  0  0  0  0
  7 12  1  0  0  0  0
  7 18  1  0  0  0  0
  8 13  1  0  0  0  0
  9 11  1  0  0  0  0
 10 12  1  0  0  0  0
 13 16  1  0  0  0  0
 14 17  1  0  0  0  0
 14 18  2  0  0  0  0
  4 19  1  0  0  0  0
  8 20  1  0  0  0  0
  8 21  1  0  0  0  0
  8 22  1  0  0  0  0
  9 23  1  0  0  0  0
  9 24  1  0  0  0  0
 10 25  1  0  0  0  0
 10 26  1  0  0  0  0
 11 27  1  0  0  0  0
 11 28  1  0  0  0  0
 12 29  1  0  0  0  0
 12 30  1  0  0  0  0
 13 31  1  0  0  0  0
 13 32  1  0  0  0  0
 14 33  1  0  0  0  0
M  END
> <pdb_id>
3NIF

> <uniprot_id>
P08514

> <usmiles>
S1C2=NC(N3CCNCC3)=CC(=O)N2N=C1CC

$$$$
NK1_A_4001
          07202412393D 1   1.00000     0.00000     0
            
 27 28  0  0  0  0            999 V2000
   31.2189   65.9143    8.9251 S   0  3  0  0  0  0  0  0  0  0  0  0
   34.0591   66.4795    7.1112 O   0  0  0  0  0  0  0  0  0  0  0  0
   29.0914   65.0589    6.7670 O   0  0  0  0  0  0  0  0  0  0  0  0
   32.0062   67.9875    5.7476 O   0  0  0  0  0  0  0  0  0  0  0  0
   30.0325   67.0358    9.6992 C   0  0  0  0  0  0  0  0  0  0  0  0
   32.8240   66.6805    9.1800 C   0  0  0  0  0  0  0  0  0  0  0  0
   28.6750   66.9282    9.0084 C   0  0  0  0  0  0  0  0  0  0  0  0
   28.7100   67.2965    7.5266 C   0  0  0  0  0  0  0  0  0  0  0  0
   31.0718   66.3095    7.1755 C   0  0  1  0  0  0  0  0  0  0  0  0
   33.1844   67.3479    7.8445 C   0  0  2  0  0  0  0  0  0  0  0  0
   29.6303   66.3834    6.6894 C   0  0  1  0  0  0  0  0  0  0  0  0
   31.8749   67.5936    7.1210 C   0  0  1  0  0  0  0  0  0  0  0  0
   34.2989   66.9067    6.2394 H   0  0  0  0  0  0  0  0  0  0  0  0
   29.6630   64.4347    6.2344 H   0  0  0  0  0  0  0  0  0  0  0  0
   32.5345   68.8348    5.6929 H   0  0  0  0  0  0  0  0  0  0  0  0
   30.3679   67.9748    9.6234 H   0  0  0  0  0  0  0  0  0  0  0  0
   29.9317   66.7947   10.6644 H   0  0  0  0  0  0  0  0  0  0  0  0
   33.5059   65.9894    9.4193 H   0  0  0  0  0  0  0  0  0  0  0  0
   32.7722   67.3639    9.9082 H   0  0  0  0  0  0  0  0  0  0  0  0
   28.0356   67.5420    9.4714 H   0  0  0  0  0  0  0  0  0  0  0  0
   28.3520   65.9855    9.0920 H   0  0  0  0  0  0  0  0  0  0  0  0
   29.0355   68.2382    7.4416 H   0  0  0  0  0  0  0  0  0  0  0  0
   27.7812   67.2307    7.1617 H   0  0  0  0  0  0  0  0  0  0  0  0
   31.5520   65.6090    6.6477 H   0  0  0  0  0  0  0  0  0  0  0  0
   33.6426   68.2199    8.0168 H   0  0  0  0  0  0  0  0  0  0  0  0
   29.6190   66.6883    5.7371 H   0  0  0  0  0  0  0  0  0  0  0  0
   31.3702   68.3055    7.6094 H   0  0  0  0  0  0  0  0  0  0  0  0
  1  5  1  0  0  0  0
  1  6  1  0  0  0  0
  1  9  1  0  0  0  0
  2 10  1  0  0  0  0
  3 11  1  0  0  0  0
  4 12  1  0  0  0  0
  5  7  1  0  0  0  0
  6 10  1  0  0  0  0
  7  8  1  0  0  0  0
  8 11  1  0  0  0  0
  9 11  1  0  0  0  0
  9 12  1  0  0  0  0
 10 12  1  0  0  0  0
  2 13  1  0  0  0  0
  3 14  1  0  0  0  0
  4 15  1  0  0  0  0
  5 16  1  0  0  0  0
  5 17  1  0  0  0  0
  6 18  1  0  0  0  0
  6 19  1  0  0  0  0
  7 20  1  0  0  0  0
  7 21  1  0  0  0  0
  8 22  1  0  0  0  0
  8 23  1  0  0  0  0
  9 24  1  0  0  0  0
 10 25  1  0  0  0  0
 11 26  1  0  0  0  0
 12 27  1  0  0  0  0
M  CHG  1   1   1
M  END
> <pdb_id>
2OW6

> <uniprot_id>
Q24451

> <usmiles>
[S+]12[C@H]([C@H](O)[C@H](O)C1)[C@@H](O)CCC2

$$$$
NK2_A_6001
          07202412393D 1   1.00000     0.00000     0
            
 26 27  0  0  0  0            999 V2000
   31.0890   65.9254    8.8135 S   0  3  0  0  0  0  0  0  0  0  0  0
   33.9948   66.4847    7.0639 O   0  0  0  0  0  0  0  0  0  0  0  0
   31.9871   68.0449    5.7227 O   0  0  0  0  0  0  0  0  0  0  0  0
   29.8400   66.9883    9.5512 C   0  0  0  0  0  0  0  0  0  0  0  0
   32.7561   66.5717    9.1215 C   0  0  0  0  0  0  0  0  0  0  0  0
   28.5256   66.8652    8.7817 C   0  0  0  0  0  0  0  0  0  0  0  0
   28.6060   67.2856    7.2990 C   0  0  0  0  0  0  0  0  0  0  0  0
   29.5502   66.4394    6.4483 C   0  0  0  0  0  0  0  0  0  0  0  0
   30.9601   66.2509    7.0474 C   0  0  1  0  0  0  0  0  0  0  0  0
   33.0861   67.2887    7.8092 C   0  0  2  0  0  0  0  0  0  0  0  0
   31.8018   67.5427    7.0473 C   0  0  1  0  0  0  0  0  0  0  0  0
   34.2177   66.9435    6.2038 H   0  0  0  0  0  0  0  0  0  0  0  0
   32.5352   68.8806    5.7566 H   0  0  0  0  0  0  0  0  0  0  0  0
   30.1535   67.9374    9.5210 H   0  0  0  0  0  0  0  0  0  0  0  0
   29.6934   66.7158   10.5022 H   0  0  0  0  0  0  0  0  0  0  0  0
   33.4031   65.8304    9.3001 H   0  0  0  0  0  0  0  0  0  0  0  0
   32.7592   67.2095    9.8917 H   0  0  0  0  0  0  0  0  0  0  0  0
   27.8450   67.4424    9.2329 H   0  0  0  0  0  0  0  0  0  0  0  0
   28.2306   65.9104    8.8194 H   0  0  0  0  0  0  0  0  0  0  0  0
   28.9179   68.2349    7.2605 H   0  0  0  0  0  0  0  0  0  0  0  0
   27.6888   67.2198    6.9061 H   0  0  0  0  0  0  0  0  0  0  0  0
   29.6469   66.8811    5.5564 H   0  0  0  0  0  0  0  0  0  0  0  0
   29.1383   65.5359    6.3299 H   0  0  0  0  0  0  0  0  0  0  0  0
   31.4445   65.5376    6.5410 H   0  0  0  0  0  0  0  0  0  0  0  0
   33.5208   68.1650    8.0168 H   0  0  0  0  0  0  0  0  0  0  0  0
   31.2866   68.2323    7.5563 H   0  0  0  0  0  0  0  0  0  0  0  0
  1  4  1  0  0  0  0
  1  5  1  0  0  0  0
  1  9  1  0  0  0  0
  2 10  1  0  0  0  0
  3 11  1  0  0  0  0
  4  6  1  0  0  0  0
  5 10  1  0  0  0  0
  6  7  1  0  0  0  0
  7  8  1  0  0  0  0
  8  9  1  0  0  0  0
  9 11  1  0  0  0  0
 10 11  1  0  0  0  0
  2 12  1  0  0  0  0
  3 13  1  0  0  0  0
  4 14  1  0  0  0  0
  4 15  1  0  0  0  0
  5 16  1  0  0  0  0
  5 17  1  0  0  0  0
  6 18  1  0  0  0  0
  6 19  1  0  0  0  0
  7 20  1  0  0  0  0
  7 21  1  0  0  0  0
  8 22  1  0  0  0  0
  8 23  1  0  0  0  0
  9 24  1  0  0  0  0
 10 25  1  0  0  0  0
 11 26  1  0  0  0  0
M  CHG  1   1   1
M  END
> <pdb_id>
2OW7

> <uniprot_id>
Q24451

> <usmiles>
[S+]12[C@H]([C@H](O)[C@H](O)C1)CCCC2

$$$$
NM7_B_2000
          07192417023D 1   1.00000     0.00000     0
            
 29 30  0  0  0  0            999 V2000
   58.8955  -13.3787    7.1361 S   0  0  0  0  0  0  0  0  0  0  0  0
   57.5960   -7.6254   10.1907 F   0  0  0  0  0  0  0  0  0  0  0  0
   59.1297  -16.3180    7.2375 O   0  0  0  0  0  0  0  0  0  0  0  0
   58.6830  -14.4729    2.7463 O   0  0  0  0  0  0  0  0  0  0  0  0
   59.8993  -17.5066    5.4708 N   0  0  0  0  0  0  0  0  0  0  0  0
   58.1681  -12.3373    2.3559 N   0  0  0  0  0  0  0  0  0  0  0  0
   59.3684  -15.2763    5.2039 N   0  0  0  0  0  0  0  0  0  0  0  0
   58.1813   -9.8595    9.8041 C   0  0  0  0  0  0  0  0  0  0  0  0
   57.5434   -8.4156    7.9830 C   0  0  0  0  0  0  0  0  0  0  0  0
   58.4033  -10.8882    8.9041 C   0  0  0  0  0  0  0  0  0  0  0  0
   57.7720   -9.4496    7.0895 C   0  0  0  0  0  0  0  0  0  0  0  0
   58.3285  -11.7814    5.2262 C   0  0  0  0  0  0  0  0  0  0  0  0
   58.9522  -13.9890    5.5223 C   0  0  0  0  0  0  0  0  0  0  0  0
   59.4686  -16.3836    6.0480 C   0  0  0  0  0  0  0  0  0  0  0  0
   58.4340  -11.8006    6.5839 C   0  0  0  0  0  0  0  0  0  0  0  0
   57.7636   -8.6491    9.3172 C   0  0  0  0  0  0  0  0  0  0  0  0
   58.4958  -13.3349    3.1614 C   0  0  0  0  0  0  0  0  0  0  0  0
   58.2063  -10.6986    7.5342 C   0  0  0  0  0  0  0  0  0  0  0  0
   58.6061  -13.0310    4.6112 C   0  0  0  0  0  0  0  0  0  0  0  0
   60.1608  -17.5042    4.5056 H   0  0  0  0  0  0  0  0  0  0  0  0
   59.9607  -18.3508    6.0033 H   0  0  0  0  0  0  0  0  0  0  0  0
   58.0228  -11.4208    2.7286 H   0  0  0  0  0  0  0  0  0  0  0  0
   58.0658  -12.5001    1.3746 H   0  0  0  0  0  0  0  0  0  0  0  0
   59.6288  -15.4283    4.2504 H   0  0  0  0  0  0  0  0  0  0  0  0
   58.3224   -9.9966   10.7846 H   0  0  0  0  0  0  0  0  0  0  0  0
   57.2263   -7.5225    7.6639 H   0  0  0  0  0  0  0  0  0  0  0  0
   58.7088  -11.7793    9.2395 H   0  0  0  0  0  0  0  0  0  0  0  0
   57.6236   -9.2985    6.1121 H   0  0  0  0  0  0  0  0  0  0  0  0
   58.0784  -10.9624    4.7097 H   0  0  0  0  0  0  0  0  0  0  0  0
  1 13  1  0  0  0  0
  1 15  1  0  0  0  0
  2 16  1  0  0  0  0
  3 14  2  0  0  0  0
  4 17  2  0  0  0  0
  5 14  1  0  0  0  0
  6 17  1  0  0  0  0
  7 13  1  0  0  0  0
  7 14  1  0  0  0  0
  8 10  1  0  0  0  0
  8 16  2  0  0  0  0
  9 11  2  0  0  0  0
  9 16  1  0  0  0  0
 10 18  2  0  0  0  0
 11 18  1  0  0  0  0
 12 15  2  0  0  0  0
 12 19  1  0  0  0  0
 13 19  2  0  0  0  0
 15 18  1  0  0  0  0
 17 19  1  0  0  0  0
  5 20  1  0  0  0  0
  5 21  1  0  0  0  0
  6 22  1  0  0  0  0
  6 23  1  0  0  0  0
  7 24  1  0  0  0  0
  8 25  1  0  0  0  0
  9 26  1  0  0  0  0
 10 27  1  0  0  0  0
 11 28  1  0  0  0  0
 12 29  1  0  0  0  0
M  END
> <pdb_id>
7AX4

> <uniprot_id>
P29597

> <usmiles>
S1C(NC(=O)N)=C(C(=O)N)C=C1c2ccc(F)cc2

$$$$
NMM_A_404
          07202411533D 1   1.00000     0.00000     0
            
 29 28  0  0  0  0            999 V2000
   19.8922   -5.8904   25.5223 O   0  0  0  0  0  0  0  0  0  0  0  0
   18.9080   -7.5692   24.7007 O   0  0  0  0  0  0  0  0  0  0  0  0
   22.7763   -2.3490   20.8043 N   0  0  0  0  0  0  0  0  0  0  0  0
   21.3133   -8.4573   23.5107 N   0  0  0  0  0  0  0  0  0  0  0  0
   23.5221   -3.8394   19.2444 N   0  0  0  0  0  0  0  0  0  0  0  0
   21.6121   -4.3015   20.3429 N   0  0  0  0  0  0  0  0  0  0  0  0
   24.6923   -3.1036   18.8578 C   0  0  0  0  0  0  0  0  0  0  0  0
   20.5310   -4.1007   21.2656 C   0  0  0  0  0  0  0  0  0  0  0  0
   20.7200   -4.7990   22.5994 C   0  0  0  0  0  0  0  0  0  0  0  0
   20.7512   -6.3084   22.4437 C   0  0  0  0  0  0  0  0  0  0  0  0
   19.8953   -6.8211   24.7274 C   0  0  0  0  0  0  0  0  0  0  0  0
   22.6418   -3.4554   20.1585 C   0  0  0  0  0  0  0  0  0  0  0  0
   21.0458   -7.0037   23.7800 C   0  0  1  0  0  0  0  0  0  0  0  0
   20.6744   -5.2691   25.5677 H   0  0  0  0  0  0  0  0  0  0  0  0
   22.0970   -2.0838   21.4887 H   0  0  0  0  0  0  0  0  0  0  0  0
   23.5599   -1.7554   20.6214 H   0  0  0  0  0  0  0  0  0  0  0  0
   21.5073   -8.9258   24.3726 H   0  0  0  0  0  0  0  0  0  0  0  0
   20.5103   -8.8699   23.0805 H   0  0  0  0  0  0  0  0  0  0  0  0
   21.5989   -5.1368   19.7934 H   0  0  0  0  0  0  0  0  0  0  0  0
   25.1864   -3.6102   18.1513 H   0  0  0  0  0  0  0  0  0  0  0  0
   24.4211   -2.2103   18.4994 H   0  0  0  0  0  0  0  0  0  0  0  0
   25.2848   -2.9776   19.6535 H   0  0  0  0  0  0  0  0  0  0  0  0
   19.6915   -4.4460   20.8461 H   0  0  0  0  0  0  0  0  0  0  0  0
   20.4400   -3.1193   21.4346 H   0  0  0  0  0  0  0  0  0  0  0  0
   19.9637   -4.5513   23.2048 H   0  0  0  0  0  0  0  0  0  0  0  0
   21.5833   -4.4970   23.0037 H   0  0  0  0  0  0  0  0  0  0  0  0
   21.4636   -6.5529   21.7858 H   0  0  0  0  0  0  0  0  0  0  0  0
   19.8633   -6.6189   22.1042 H   0  0  0  0  0  0  0  0  0  0  0  0
   21.8641   -6.5943   24.1834 H   0  0  0  0  0  0  0  0  0  0  0  0
  1 11  1  0  0  0  0
  2 11  2  0  0  0  0
  3 12  1  0  0  0  0
  4 13  1  0  0  0  0
  5  7  1  0  0  0  0
  5 12  2  0  0  0  0
  6  8  1  0  0  0  0
  6 12  1  0  0  0  0
  8  9  1  0  0  0  0
  9 10  1  0  0  0  0
 10 13  1  0  0  0  0
 11 13  1  0  0  0  0
  1 14  1  0  0  0  0
  3 15  1  0  0  0  0
  3 16  1  0  0  0  0
  4 17  1  0  0  0  0
  4 18  1  0  0  0  0
  6 19  1  0  0  0  0
  7 20  1  0  0  0  0
  7 21  1  0  0  0  0
  7 22  1  0  0  0  0
  8 23  1  0  0  0  0
  8 24  1  0  0  0  0
  9 25  1  0  0  0  0
  9 26  1  0  0  0  0
 10 27  1  0  0  0  0
 10 28  1  0  0  0  0
 13 29  1  0  0  0  0
M  END
> <pdb_id>
6OI1

> <uniprot_id>
P61964

> <usmiles>
O=C(O)[C@@H](N)CCCNC(=NC)N

$$$$
NMN_A_504
          07202407493D 1   1.00000     0.00000     0
            
 38 39  0  0  0  0            999 V2000
    6.3654   -5.7349   31.4864 P   0  0  0  0  0  0  0  0  0  0  0  0
    5.7711   -4.5602   32.2474 O   0  0  0  0  0  0  0  0  0  0  0  0
    5.2779   -6.5153   30.7740 O   0  0  0  0  0  0  0  0  0  0  0  0
    7.4888   -5.3314   30.5443 O   0  0  0  0  0  0  0  0  0  0  0  0
    9.5580   -8.7684   40.7516 O   0  0  0  0  0  0  0  0  0  0  0  0
    7.1948  -10.8169   36.5111 O   0  0  0  0  0  0  0  0  0  0  0  0
    5.4640  -10.0954   34.8492 O   0  0  0  0  0  0  0  0  0  0  0  0
    7.1533   -6.6721   32.5494 O   0  0  0  0  0  0  0  0  0  0  0  0
    8.4605   -8.0367   34.7385 O   0  0  0  0  0  0  0  0  0  0  0  0
   11.5191   -7.6560   41.0777 N   0  0  0  0  0  0  0  0  0  0  0  0
    9.7368   -8.5176   36.5625 N   0  3  0  0  0  0  0  0  0  0  0  0
   10.8184   -7.8975   36.0211 C   0  0  0  0  0  0  0  0  0  0  0  0
   11.8161   -7.3557   36.8117 C   0  0  0  0  0  0  0  0  0  0  0  0
    9.6318   -8.6338   37.9255 C   0  0  0  0  0  0  0  0  0  0  0  0
   11.7201   -7.4659   38.1707 C   0  0  0  0  0  0  0  0  0  0  0  0
    6.4835   -7.1508   33.6761 C   0  0  0  0  0  0  0  0  0  0  0  0
   10.4973   -8.2238   40.2491 C   0  0  0  0  0  0  0  0  0  0  0  0
   10.6285   -8.0979   38.7341 C   0  0  0  0  0  0  0  0  0  0  0  0
    7.2387   -9.3623   36.1825 C   0  0  2  0  0  0  0  0  0  0  0  0
    6.3549   -8.9876   35.3130 C   0  0  1  0  0  0  0  0  0  0  0  0
    8.7505   -9.0136   35.5909 C   0  0  1  0  0  0  0  0  0  0  0  0
    7.1343   -8.3273   34.1012 C   0  0  2  0  0  0  0  0  0  0  0  0
    6.3910  -11.0934   36.4854 H   0  0  0  0  0  0  0  0  0  0  0  0
    4.7664   -9.7717   34.4830 H   0  0  0  0  0  0  0  0  0  0  0  0
   12.1997   -7.2635   40.7261 H   0  0  0  0  0  0  0  0  0  0  0  0
   11.4569   -7.7199   41.9327 H   0  0  0  0  0  0  0  0  0  0  0  0
   10.8897   -7.8358   35.0951 H   0  0  0  0  0  0  0  0  0  0  0  0
   12.5409   -6.9213   36.4241 H   0  0  0  0  0  0  0  0  0  0  0  0
    8.9011   -9.0661   38.3052 H   0  0  0  0  0  0  0  0  0  0  0  0
   12.3886   -7.1163   38.7151 H   0  0  0  0  0  0  0  0  0  0  0  0
    6.5106   -6.4861   34.3824 H   0  0  0  0  0  0  0  0  0  0  0  0
    5.5601   -7.3472   33.4522 H   0  0  0  0  0  0  0  0  0  0  0  0
    7.0423   -8.8339   36.9717 H   0  0  0  0  0  0  0  0  0  0  0  0
    5.8054   -8.3144   35.7436 H   0  0  0  0  0  0  0  0  0  0  0  0
    9.1324   -9.8202   35.2113 H   0  0  0  0  0  0  0  0  0  0  0  0
    7.2195   -8.9135   33.3340 H   0  0  0  0  0  0  0  0  0  0  0  0
    6.5021   -4.0585   32.7098 H   0  0  0  0  0  0  0  0  0  0  0  0
    5.6872   -7.2824   30.2800 H   0  0  0  0  0  0  0  0  0  0  0  0
  1  2  1  0  0  0  0
  1  3  1  0  0  0  0
  1  4  2  0  0  0  0
  1  8  1  0  0  0  0
  5 17  2  0  0  0  0
  6 19  1  0  0  0  0
  6 23  1  0  0  0  0
  7 20  1  0  0  0  0
  7 24  1  0  0  0  0
  8 16  1  0  0  0  0
  9 21  1  0  0  0  0
  9 22  1  0  0  0  0
 10 17  1  0  0  0  0
 10 25  1  0  0  0  0
 10 26  1  0  0  0  0
 11 12  2  0  0  0  0
 11 14  1  0  0  0  0
 11 21  1  0  0  0  0
 12 13  1  0  0  0  0
 12 27  1  0  0  0  0
 13 15  2  0  0  0  0
 13 28  1  0  0  0  0
 14 18  2  0  0  0  0
 14 29  1  0  0  0  0
 15 18  1  0  0  0  0
 15 30  1  0  0  0  0
 16 22  1  0  0  0  0
 16 31  1  0  0  0  0
 16 32  1  0  0  0  0
 17 18  1  0  0  0  0
 19 20  1  0  0  0  0
 19 21  1  0  0  0  0
 19 33  1  0  0  0  0
 20 22  1  0  0  0  0
 20 34  1  0  0  0  0
 21 35  1  0  0  0  0
 22 36  1  0  0  0  0
  2 37  1  0  0  0  0
  3 38  1  0  0  0  0
M  CHG  1  11   1
M  END
> <pdb_id>
6TAC

> <uniprot_id>
P43490

> <usmiles>
P(=O)(OC[C@H]1O[C@@H]([n+]2cc(ccc2)C(=O)N)[C@H](O)[C@@H]1O)(O)O

$$$$
NNH_A_403
          07202406483D 1   1.00000     0.00000     0
            
 24 23  0  0  0  0            999 V2000
   15.7890  -16.4180   30.8120 O   0  0  0  0  0  0  0  0  0  0  0  0
   14.4350  -22.9860   28.3200 O   0  0  0  0  0  0  0  0  0  0  0  0
   14.1940  -24.0530   30.3020 O   0  0  0  0  0  0  0  0  0  0  0  0
   14.8610  -16.8080   28.4350 N   0  0  0  0  0  0  0  0  0  0  0  0
   12.2700  -22.2170   31.1380 N   0  0  0  0  0  0  0  0  0  0  0  0
   15.0400  -17.4570   30.5330 N   0  0  0  0  0  0  0  0  0  0  0  0
   13.8510  -18.6540   29.1140 N   0  0  0  0  0  0  0  0  0  0  0  0
   13.8440  -19.9700   29.7970 C   0  0  0  0  0  0  0  0  0  0  0  0
   12.7680  -20.8570   29.1330 C   0  0  0  0  0  0  0  0  0  0  0  0
   13.8210  -23.2120   29.5080 C   0  0  0  0  0  0  0  0  0  0  0  0
   14.5890  -17.6420   29.3650 C   0  0  0  0  0  0  0  0  0  0  0  0
   12.6090  -22.2880   29.7000 C   0  0  1  0  0  0  0  0  0  0  0  0
   16.1369  -16.2873   31.7404 H   0  0  0  0  0  0  0  0  0  0  0  0
   14.0861  -22.2805   27.7031 H   0  0  0  0  0  0  0  0  0  0  0  0
   14.5046  -16.9543   27.5122 H   0  0  0  0  0  0  0  0  0  0  0  0
   15.4302  -16.0093   28.6304 H   0  0  0  0  0  0  0  0  0  0  0  0
   12.1677  -23.1426   31.5024 H   0  0  0  0  0  0  0  0  0  0  0  0
   13.0010  -21.7440   31.6298 H   0  0  0  0  0  0  0  0  0  0  0  0
   13.1977  -18.5453   28.3648 H   0  0  0  0  0  0  0  0  0  0  0  0
   13.6295  -19.8467   30.7659 H   0  0  0  0  0  0  0  0  0  0  0  0
   14.7412  -20.4024   29.7067 H   0  0  0  0  0  0  0  0  0  0  0  0
   12.9969  -20.9380   28.1629 H   0  0  0  0  0  0  0  0  0  0  0  0
   11.8881  -20.3919   29.2302 H   0  0  0  0  0  0  0  0  0  0  0  0
   11.8337  -22.7108   29.2308 H   0  0  0  0  0  0  0  0  0  0  0  0
  1  6  1  0  0  0  0
  2 10  1  0  0  0  0
  3 10  2  0  0  0  0
  4 11  1  0  0  0  0
  5 12  1  0  0  0  0
  6 11  2  0  0  0  0
  7  8  1  0  0  0  0
  7 11  1  0  0  0  0
  8  9  1  0  0  0  0
  9 12  1  0  0  0  0
 10 12  1  0  0  0  0
  1 13  1  0  0  0  0
  2 14  1  0  0  0  0
  4 15  1  0  0  0  0
  4 16  1  0  0  0  0
  5 17  1  0  0  0  0
  5 18  1  0  0  0  0
  7 19  1  0  0  0  0
  8 20  1  0  0  0  0
  8 21  1  0  0  0  0
  9 22  1  0  0  0  0
  9 23  1  0  0  0  0
 12 24  1  0  0  0  0
M  END
> <pdb_id>
4IU1

> <uniprot_id>
Q6TUJ5

> <usmiles>
O=C(O)[C@@H](N)CCNC(=NO)N

$$$$
NNH_A_901
          07202415503D 1   1.00000     0.00000     0
            
 24 23  0  0  0  0            999 V2000
  -26.9444   13.3615  -13.3236 O   0  0  0  0  0  0  0  0  0  0  0  0
  -19.5844   15.4767  -13.2012 O   0  0  0  0  0  0  0  0  0  0  0  0
  -20.0230   15.6964  -11.0063 O   0  0  0  0  0  0  0  0  0  0  0  0
  -26.5752   14.0752  -10.7800 N   0  0  0  0  0  0  0  0  0  0  0  0
  -21.5021   17.4327  -13.8815 N   0  0  0  0  0  0  0  0  0  0  0  0
  -25.8486   13.9543  -13.0216 N   0  0  0  0  0  0  0  0  0  0  0  0
  -24.4392   14.9846  -11.3724 N   0  0  0  0  0  0  0  0  0  0  0  0
  -23.3145   15.3429  -12.2670 C   0  0  0  0  0  0  0  0  0  0  0  0
  -22.6177   16.6220  -11.9430 C   0  0  0  0  0  0  0  0  0  0  0  0
  -20.2099   16.0097  -12.3079 C   0  0  0  0  0  0  0  0  0  0  0  0
  -25.6063   14.3555  -11.6773 C   0  0  0  0  0  0  0  0  0  0  0  0
  -21.2858   17.0945  -12.4850 C   0  0  1  0  0  0  0  0  0  0  0  0
  -27.1164   13.0790  -14.2673 H   0  0  0  0  0  0  0  0  0  0  0  0
  -19.7516   15.7360  -14.1524 H   0  0  0  0  0  0  0  0  0  0  0  0
  -26.4587   14.3340   -9.8211 H   0  0  0  0  0  0  0  0  0  0  0  0
  -27.4094   13.6087  -11.0742 H   0  0  0  0  0  0  0  0  0  0  0  0
  -20.6441   17.7520  -14.2840 H   0  0  0  0  0  0  0  0  0  0  0  0
  -21.8210   16.6235  -14.3750 H   0  0  0  0  0  0  0  0  0  0  0  0
  -24.3250   15.2402  -10.4124 H   0  0  0  0  0  0  0  0  0  0  0  0
  -23.6722   15.4143  -13.1981 H   0  0  0  0  0  0  0  0  0  0  0  0
  -22.6402   14.6056  -12.2246 H   0  0  0  0  0  0  0  0  0  0  0  0
  -22.5018   16.6083  -10.9499 H   0  0  0  0  0  0  0  0  0  0  0  0
  -23.2672   17.3401  -12.1930 H   0  0  0  0  0  0  0  0  0  0  0  0
  -21.0049   17.9166  -11.9898 H   0  0  0  0  0  0  0  0  0  0  0  0
  1  6  1  0  0  0  0
  2 10  1  0  0  0  0
  3 10  2  0  0  0  0
  4 11  1  0  0  0  0
  5 12  1  0  0  0  0
  6 11  2  0  0  0  0
  7  8  1  0  0  0  0
  7 11  1  0  0  0  0
  8  9  1  0  0  0  0
  9 12  1  0  0  0  0
 10 12  1  0  0  0  0
  1 13  1  0  0  0  0
  2 14  1  0  0  0  0
  4 15  1  0  0  0  0
  4 16  1  0  0  0  0
  5 17  1  0  0  0  0
  5 18  1  0  0  0  0
  7 19  1  0  0  0  0
  8 20  1  0  0  0  0
  8 21  1  0  0  0  0
  9 22  1  0  0  0  0
  9 23  1  0  0  0  0
 12 24  1  0  0  0  0
M  END
> <pdb_id>
3KV2

> <uniprot_id>
P05089

> <usmiles>
O=C(O)[C@@H](N)CCNC(=NO)N

$$$$
NNH_B_405
          07202417303D 1   1.00000     0.00000     0
            
 24 23  0  0  0  0            999 V2000
  -53.7552  -19.3365   49.4003 O   0  0  0  0  0  0  0  0  0  0  0  0
  -57.8706  -18.5924   56.1208 O   0  0  0  0  0  0  0  0  0  0  0  0
  -56.4977  -20.3462   56.2794 O   0  0  0  0  0  0  0  0  0  0  0  0
  -53.2646  -21.5304   51.0935 N   0  0  0  0  0  0  0  0  0  0  0  0
  -59.2329  -19.7536   53.9007 N   0  0  0  0  0  0  0  0  0  0  0  0
  -54.5199  -19.5368   50.4844 N   0  0  0  0  0  0  0  0  0  0  0  0
  -55.0552  -20.8872   52.5114 N   0  0  0  0  0  0  0  0  0  0  0  0
  -56.1867  -20.1202   53.0077 C   0  0  0  0  0  0  0  0  0  0  0  0
  -57.1143  -21.1374   53.6781 C   0  0  0  0  0  0  0  0  0  0  0  0
  -57.5569  -19.7150   55.6904 C   0  0  0  0  0  0  0  0  0  0  0  0
  -54.2230  -20.6957   51.3516 C   0  0  0  0  0  0  0  0  0  0  0  0
  -58.2124  -20.5319   54.5697 C   0  0  1  0  0  0  0  0  0  0  0  0
  -53.9359  -18.5593   48.7976 H   0  0  0  0  0  0  0  0  0  0  0  0
  -58.6401  -18.0987   55.7157 H   0  0  0  0  0  0  0  0  0  0  0  0
  -53.0958  -22.3027   51.7059 H   0  0  0  0  0  0  0  0  0  0  0  0
  -52.6944  -21.4017   50.2822 H   0  0  0  0  0  0  0  0  0  0  0  0
  -59.8880  -19.4129   54.5751 H   0  0  0  0  0  0  0  0  0  0  0  0
  -58.8074  -18.9810   53.4294 H   0  0  0  0  0  0  0  0  0  0  0  0
  -54.8144  -21.6814   53.0694 H   0  0  0  0  0  0  0  0  0  0  0  0
  -56.6572  -19.6642   52.2522 H   0  0  0  0  0  0  0  0  0  0  0  0
  -55.8809  -19.4370   53.6708 H   0  0  0  0  0  0  0  0  0  0  0  0
  -56.5536  -21.7415   54.2445 H   0  0  0  0  0  0  0  0  0  0  0  0
  -57.5587  -21.6720   52.9593 H   0  0  0  0  0  0  0  0  0  0  0  0
  -58.6795  -21.2988   55.0098 H   0  0  0  0  0  0  0  0  0  0  0  0
  1  6  1  0  0  0  0
  2 10  1  0  0  0  0
  3 10  2  0  0  0  0
  4 11  1  0  0  0  0
  5 12  1  0  0  0  0
  6 11  2  0  0  0  0
  7  8  1  0  0  0  0
  7 11  1  0  0  0  0
  8  9  1  0  0  0  0
  9 12  1  0  0  0  0
 10 12  1  0  0  0  0
  1 13  1  0  0  0  0
  2 14  1  0  0  0  0
  4 15  1  0  0  0  0
  4 16  1  0  0  0  0
  5 17  1  0  0  0  0
  5 18  1  0  0  0  0
  7 19  1  0  0  0  0
  8 20  1  0  0  0  0
  8 21  1  0  0  0  0
  9 22  1  0  0  0  0
  9 23  1  0  0  0  0
 12 24  1  0  0  0  0
M  END
> <pdb_id>
4Q3U

> <uniprot_id>
Q6WVP6

> <usmiles>
O=C(O)[C@@H](N)CCNC(=NO)N

$$$$
NOH_A_501
          07212403373D 1   1.00000     0.00000     0
            
 35 36  0  0  0  0            999 V2000
   49.2868  -17.2187   44.0301 P   0  0  0  0  0  0  0  0  0  0  0  0
   48.4557  -16.9167   45.2894 O   0  0  0  0  0  0  0  0  0  0  0  0
   50.0661  -18.5822   44.1008 O   0  0  0  0  0  0  0  0  0  0  0  0
   48.4843  -16.9542   42.7844 O   0  0  0  0  0  0  0  0  0  0  0  0
   56.7062  -17.1486   37.9605 O   0  0  0  0  0  0  0  0  0  0  0  0
   52.4965  -12.9473   37.8730 O   0  0  0  0  0  0  0  0  0  0  0  0
   50.1925  -12.3700   42.3616 O   0  0  0  0  0  0  0  0  0  0  0  0
   50.3237  -16.0257   44.2096 O   0  0  0  0  0  0  0  0  0  0  0  0
   52.4542  -13.9117   42.1549 O   0  0  0  0  0  0  0  0  0  0  0  0
   55.8410  -16.1017   37.4553 N   0  0  0  0  0  0  0  0  0  0  0  0
   54.0656  -14.5714   37.7893 N   0  0  0  0  0  0  0  0  0  0  0  0
   52.9510  -14.3582   39.8253 N   0  0  0  0  0  0  0  0  0  0  0  0
   51.2853  -15.7543   43.2094 C   0  0  0  0  0  0  0  0  0  0  0  0
   53.8113  -15.3544   40.3444 C   0  0  0  0  0  0  0  0  0  0  0  0
   54.7596  -15.9652   39.6129 C   0  0  0  0  0  0  0  0  0  0  0  0
   50.5920  -14.1476   40.7064 C   0  0  0  0  0  0  0  0  0  0  0  0
   53.0946  -13.8927   38.4935 C   0  0  0  0  0  0  0  0  0  0  0  0
   54.9288  -15.5739   38.2426 C   0  0  0  0  0  0  0  0  0  0  0  0
   50.1790  -13.7782   42.1207 C   0  0  1  0  0  0  0  0  0  0  0  0
   52.0231  -13.7062   40.7836 C   0  0  1  0  0  0  0  0  0  0  0  0
   51.3365  -14.2717   42.9583 C   0  0  2  0  0  0  0  0  0  0  0  0
   47.9885  -16.0396   45.1781 H   0  0  0  0  0  0  0  0  0  0  0  0
   50.5826  -18.7152   43.2549 H   0  0  0  0  0  0  0  0  0  0  0  0
   57.4012  -17.5531   37.3661 H   0  0  0  0  0  0  0  0  0  0  0  0
   49.9129  -12.1905   43.3048 H   0  0  0  0  0  0  0  0  0  0  0  0
   54.1660  -14.3133   36.8284 H   0  0  0  0  0  0  0  0  0  0  0  0
   51.0322  -16.2275   42.3656 H   0  0  0  0  0  0  0  0  0  0  0  0
   52.1830  -16.0728   43.5138 H   0  0  0  0  0  0  0  0  0  0  0  0
   53.7087  -15.6175   41.3037 H   0  0  0  0  0  0  0  0  0  0  0  0
   55.3350  -16.6773   40.0152 H   0  0  0  0  0  0  0  0  0  0  0  0
   50.0760  -13.6400   40.0164 H   0  0  0  0  0  0  0  0  0  0  0  0
   50.5073  -15.1285   40.5312 H   0  0  0  0  0  0  0  0  0  0  0  0
   49.3119  -14.2002   42.3854 H   0  0  0  0  0  0  0  0  0  0  0  0
   52.0458  -12.7227   40.6041 H   0  0  0  0  0  0  0  0  0  0  0  0
   51.3658  -13.7777   43.8273 H   0  0  0  0  0  0  0  0  0  0  0  0
  1  2  1  0  0  0  0
  1  3  1  0  0  0  0
  1  4  2  0  0  0  0
  1  8  1  0  0  0  0
  5 10  1  0  0  0  0
  6 17  2  0  0  0  0
  7 19  1  0  0  0  0
  8 13  1  0  0  0  0
  9 20  1  0  0  0  0
  9 21  1  0  0  0  0
 10 18  2  0  0  0  0
 11 17  1  0  0  0  0
 11 18  1  0  0  0  0
 12 14  1  0  0  0  0
 12 17  1  0  0  0  0
 12 20  1  0  0  0  0
 13 21  1  0  0  0  0
 14 15  2  0  0  0  0
 15 18  1  0  0  0  0
 16 19  1  0  0  0  0
 16 20  1  0  0  0  0
 19 21  1  0  0  0  0
  2 22  1  0  0  0  0
  3 23  1  0  0  0  0
  5 24  1  0  0  0  0
  7 25  1  0  0  0  0
 11 26  1  0  0  0  0
 13 27  1  0  0  0  0
 13 28  1  0  0  0  0
 14 29  1  0  0  0  0
 15 30  1  0  0  0  0
 16 31  1  0  0  0  0
 16 32  1  0  0  0  0
 19 33  1  0  0  0  0
 20 34  1  0  0  0  0
 21 35  1  0  0  0  0
M  END
> <pdb_id>
4EIN

> <uniprot_id>
P07607

> <usmiles>
P(=O)(OC[C@H]1O[C@@H](N2C(=O)NC(=NO)C=C2)C[C@@H]1O)(O)O

$$$$
NOJ_A_1023
          07212404123D 1   1.00000     0.00000     0
            
 24 24  0  0  0  0            999 V2000
   16.5372   20.8917   -9.7072 O   0  0  0  0  0  0  0  0  0  0  0  0
   15.8107   18.9780  -15.3629 O   0  0  0  0  0  0  0  0  0  0  0  0
   14.7217   17.4412  -13.2610 O   0  0  0  0  0  0  0  0  0  0  0  0
   13.8032   18.9012  -10.9086 O   0  0  0  0  0  0  0  0  0  0  0  0
   16.0883   21.3254  -12.5211 N   0  0  0  0  0  0  0  0  0  0  0  0
   15.2810   21.3538  -10.1951 C   0  0  0  0  0  0  0  0  0  0  0  0
   16.0166   20.8896  -13.9170 C   0  0  0  0  0  0  0  0  0  0  0  0
   15.9221   19.3744  -13.9987 C   0  0  1  0  0  0  0  0  0  0  0  0
   14.7682   18.8663  -13.1472 C   0  0  2  0  0  0  0  0  0  0  0  0
   14.9202   19.3203  -11.6957 C   0  0  1  0  0  0  0  0  0  0  0  0
   15.0382   20.8412  -11.6136 C   0  0  2  0  0  0  0  0  0  0  0  0
   16.3599   20.4471   -8.8375 H   0  0  0  0  0  0  0  0  0  0  0  0
   14.8636   18.7554  -15.5617 H   0  0  0  0  0  0  0  0  0  0  0  0
   14.8319   17.0456  -12.3600 H   0  0  0  0  0  0  0  0  0  0  0  0
   14.1277   18.7752   -9.9789 H   0  0  0  0  0  0  0  0  0  0  0  0
   17.0142   21.1661  -12.1363 H   0  0  0  0  0  0  0  0  0  0  0  0
   14.4567   21.0996   -9.5313 H   0  0  0  0  0  0  0  0  0  0  0  0
   15.3275   22.4402  -10.1419 H   0  0  0  0  0  0  0  0  0  0  0  0
   15.1722   21.3612  -14.4175 H   0  0  0  0  0  0  0  0  0  0  0  0
   16.9064   21.2456  -14.4290 H   0  0  0  0  0  0  0  0  0  0  0  0
   16.8083   18.8848  -13.6012 H   0  0  0  0  0  0  0  0  0  0  0  0
   13.8303   19.2808  -13.5123 H   0  0  0  0  0  0  0  0  0  0  0  0
   15.8129   18.8607  -11.2745 H   0  0  0  0  0  0  0  0  0  0  0  0
   14.1002   21.2755  -11.9579 H   0  0  0  0  0  0  0  0  0  0  0  0
  1  6  1  0  0  0  0
  1 12  1  0  0  0  0
  2  8  1  0  0  0  0
  2 13  1  0  0  0  0
  3  9  1  0  0  0  0
  3 14  1  0  0  0  0
  4 10  1  0  0  0  0
  4 15  1  0  0  0  0
  5  7  1  0  0  0  0
  5 11  1  0  0  0  0
  5 16  1  0  0  0  0
  6 11  1  0  0  0  0
  6 17  1  0  0  0  0
  6 18  1  0  0  0  0
  7  8  1  0  0  0  0
  7 19  1  0  0  0  0
  7 20  1  0  0  0  0
  8  9  1  0  0  0  0
  8 21  1  0  0  0  0
  9 10  1  0  0  0  0
  9 22  1  0  0  0  0
 10 11  1  0  0  0  0
 10 23  1  0  0  0  0
 11 24  1  0  0  0  0
M  END
> <pdb_id>
5IEE

> <uniprot_id>
Q8BHN3

> <usmiles>
O[C@H]1[C@H](O)[C@@H](O)CN[C@@H]1CO

$$$$
NOJ_A_1447
          07192418433D 1   1.00000     0.00000     0
            
 24 24  0  0  0  0            999 V2000
   -2.4289    8.2498    8.7364 O   0  0  0  0  0  0  0  0  0  0  0  0
    0.9440   12.9050   10.1896 O   0  0  0  0  0  0  0  0  0  0  0  0
    0.9755   12.2306    7.3605 O   0  0  0  0  0  0  0  0  0  0  0  0
   -1.3625   10.8238    6.4920 O   0  0  0  0  0  0  0  0  0  0  0  0
   -1.7366   10.5515   10.2652 N   0  0  0  0  0  0  0  0  0  0  0  0
   -3.1437    9.4697    8.6514 C   0  0  0  0  0  0  0  0  0  0  0  0
   -0.3814   10.9553   10.6342 C   0  0  0  0  0  0  0  0  0  0  0  0
    0.5039   11.6974    9.6140 C   0  0  1  0  0  0  0  0  0  0  0  0
   -0.1330   11.9456    8.2437 C   0  0  2  0  0  0  0  0  0  0  0  0
   -1.0026   10.7157    7.8622 C   0  0  1  0  0  0  0  0  0  0  0  0
   -2.1887   10.6559    8.8553 C   0  0  2  0  0  0  0  0  0  0  0  0
   -3.0585    7.4845    8.6026 H   0  0  0  0  0  0  0  0  0  0  0  0
    1.5201   13.3955    9.5356 H   0  0  0  0  0  0  0  0  0  0  0  0
    0.6307   12.4046    6.4381 H   0  0  0  0  0  0  0  0  0  0  0  0
   -1.9233   10.0378    6.2317 H   0  0  0  0  0  0  0  0  0  0  0  0
   -2.3619   11.1102   10.8101 H   0  0  0  0  0  0  0  0  0  0  0  0
   -3.8507    9.4889    9.3584 H   0  0  0  0  0  0  0  0  0  0  0  0
   -3.5714    9.5404    7.7503 H   0  0  0  0  0  0  0  0  0  0  0  0
    0.1088   10.1222   10.8904 H   0  0  0  0  0  0  0  0  0  0  0  0
   -0.4647   11.5518   11.4325 H   0  0  0  0  0  0  0  0  0  0  0  0
    1.3146   11.1318    9.4628 H   0  0  0  0  0  0  0  0  0  0  0  0
   -0.7197   12.7534    8.2997 H   0  0  0  0  0  0  0  0  0  0  0  0
   -0.4506    9.8901    7.9795 H   0  0  0  0  0  0  0  0  0  0  0  0
   -2.7166   11.4998    8.7599 H   0  0  0  0  0  0  0  0  0  0  0  0
  1  6  1  0  0  0  0
  2  8  1  0  0  0  0
  3  9  1  0  0  0  0
  4 10  1  0  0  0  0
  5  7  1  0  0  0  0
  5 11  1  0  0  0  0
  6 11  1  0  0  0  0
  7  8  1  0  0  0  0
  8  9  1  0  0  0  0
  9 10  1  0  0  0  0
 10 11  1  0  0  0  0
  1 12  1  0  0  0  0
  2 13  1  0  0  0  0
  3 14  1  0  0  0  0
  4 15  1  0  0  0  0
  5 16  1  0  0  0  0
  6 17  1  0  0  0  0
  6 18  1  0  0  0  0
  7 19  1  0  0  0  0
  7 20  1  0  0  0  0
  8 21  1  0  0  0  0
  9 22  1  0  0  0  0
 10 23  1  0  0  0  0
 11 24  1  0  0  0  0
M  END
> <pdb_id>
1OIM

> <uniprot_id>
Q08638

> <usmiles>
O[C@H]1[C@H](O)[C@@H](O)CN[C@@H]1CO

$$$$
NOK_A_2000
          07202402303D 1   1.00000     0.00000     0
            
 30 30  0  0  0  0            999 V2000
   39.0367   16.9327  -15.4883 O   0  0  0  0  0  0  0  0  0  0  0  0
   33.0609   19.9596  -16.0785 O   0  0  0  0  0  0  0  0  0  0  0  0
   35.5839   15.9938  -14.4076 O   0  0  0  0  0  0  0  0  0  0  0  0
   34.4092   16.0497  -17.1274 O   0  0  0  0  0  0  0  0  0  0  0  0
   37.1835   18.8861  -16.1333 N   0  0  0  0  0  0  0  0  0  0  0  0
   33.8979   18.9765  -17.9585 N   0  0  0  0  0  0  0  0  0  0  0  0
   31.8690   20.2934  -18.1163 C   0  0  0  0  0  0  0  0  0  0  0  0
   38.2120   17.4414  -14.4340 C   0  0  0  0  0  0  0  0  0  0  0  0
   35.9161   19.4639  -16.6368 C   0  0  0  0  0  0  0  0  0  0  0  0
   33.0066   19.7245  -17.2829 C   0  0  0  0  0  0  0  0  0  0  0  0
   36.8950   17.9516  -15.0213 C   0  0  2  0  0  0  0  0  0  0  0  0
   35.0991   18.3623  -17.3337 C   0  0  1  0  0  0  0  0  0  0  0  0
   36.0374   16.7743  -15.5232 C   0  0  2  0  0  0  0  0  0  0  0  0
   34.8046   17.1952  -16.3684 C   0  0  2  0  0  0  0  0  0  0  0  0
   39.8983   16.5987  -15.1060 H   0  0  0  0  0  0  0  0  0  0  0  0
   35.0279   15.2312  -14.7383 H   0  0  0  0  0  0  0  0  0  0  0  0
   34.2167   15.2892  -16.5073 H   0  0  0  0  0  0  0  0  0  0  0  0
   37.7773   19.6208  -15.8053 H   0  0  0  0  0  0  0  0  0  0  0  0
   33.7439   18.8253  -18.9349 H   0  0  0  0  0  0  0  0  0  0  0  0
   31.9774   20.0068  -19.0682 H   0  0  0  0  0  0  0  0  0  0  0  0
   30.9963   19.9554  -17.7639 H   0  0  0  0  0  0  0  0  0  0  0  0
   31.8850   21.2919  -18.0649 H   0  0  0  0  0  0  0  0  0  0  0  0
   38.6850   18.1924  -13.9731 H   0  0  0  0  0  0  0  0  0  0  0  0
   38.0238   16.7123  -13.7760 H   0  0  0  0  0  0  0  0  0  0  0  0
   36.1176   20.1944  -17.2894 H   0  0  0  0  0  0  0  0  0  0  0  0
   35.3910   19.8361  -15.8714 H   0  0  0  0  0  0  0  0  0  0  0  0
   36.3903   18.4403  -14.3097 H   0  0  0  0  0  0  0  0  0  0  0  0
   35.6643   17.9984  -18.0741 H   0  0  0  0  0  0  0  0  0  0  0  0
   36.6169   16.1911  -16.0924 H   0  0  0  0  0  0  0  0  0  0  0  0
   34.0592   17.4563  -15.7550 H   0  0  0  0  0  0  0  0  0  0  0  0
  1  8  1  0  0  0  0
  2 10  2  0  0  0  0
  3 13  1  0  0  0  0
  4 14  1  0  0  0  0
  5  9  1  0  0  0  0
  5 11  1  0  0  0  0
  6 10  1  0  0  0  0
  6 12  1  0  0  0  0
  7 10  1  0  0  0  0
  8 11  1  0  0  0  0
  9 12  1  0  0  0  0
 11 13  1  0  0  0  0
 12 14  1  0  0  0  0
 13 14  1  0  0  0  0
  1 15  1  0  0  0  0
  3 16  1  0  0  0  0
  4 17  1  0  0  0  0
  5 18  1  0  0  0  0
  6 19  1  0  0  0  0
  7 20  1  0  0  0  0
  7 21  1  0  0  0  0
  7 22  1  0  0  0  0
  8 23  1  0  0  0  0
  8 24  1  0  0  0  0
  9 25  1  0  0  0  0
  9 26  1  0  0  0  0
 11 27  1  0  0  0  0
 12 28  1  0  0  0  0
 13 29  1  0  0  0  0
 14 30  1  0  0  0  0
M  END
> <pdb_id>
3SUV

> <uniprot_id>
D0VX21

> <usmiles>
O=C(N[C@@H]1[C@@H](O)[C@H](O)[C@H](NC1)CO)C

$$$$
NOY_A_1446
          07192418433D 1   1.00000     0.00000     0
            
 24 24  0  0  0  0            999 V2000
   -2.3246    7.9260    8.7162 O   0  0  0  0  0  0  0  0  0  0  0  0
    0.8570   13.0204   10.2109 O   0  0  0  0  0  0  0  0  0  0  0  0
    0.9396   12.1112    7.5353 O   0  0  0  0  0  0  0  0  0  0  0  0
   -1.3968   10.7487    6.6780 O   0  0  0  0  0  0  0  0  0  0  0  0
   -0.6391   11.2896   10.7665 N   0  0  0  0  0  0  0  0  0  0  0  0
   -2.9727    9.2146    8.6169 C   0  0  0  0  0  0  0  0  0  0  0  0
   -1.4613   10.1424   10.3963 C   0  0  0  0  0  0  0  0  0  0  0  0
    0.4021   11.7346    9.8205 C   0  0  1  0  0  0  0  0  0  0  0  0
   -0.1563   11.8654    8.4107 C   0  0  2  0  0  0  0  0  0  0  0  0
   -0.9021   10.6003    8.0043 C   0  0  1  0  0  0  0  0  0  0  0  0
   -2.0604   10.3703    9.0015 C   0  0  1  0  0  0  0  0  0  0  0  0
   -2.9686    7.2078    8.4527 H   0  0  0  0  0  0  0  0  0  0  0  0
    1.5637   13.3312    9.5752 H   0  0  0  0  0  0  0  0  0  0  0  0
    0.6035   12.2022    6.5979 H   0  0  0  0  0  0  0  0  0  0  0  0
   -1.8865    9.9190    6.4100 H   0  0  0  0  0  0  0  0  0  0  0  0
   -0.1812   11.0615   11.6257 H   0  0  0  0  0  0  0  0  0  0  0  0
   -3.7668    9.2196    9.2246 H   0  0  0  0  0  0  0  0  0  0  0  0
   -3.2746    9.3476    7.6729 H   0  0  0  0  0  0  0  0  0  0  0  0
   -2.1994   10.0327   11.0621 H   0  0  0  0  0  0  0  0  0  0  0  0
   -0.8966    9.3172   10.3856 H   0  0  0  0  0  0  0  0  0  0  0  0
    1.1650   11.0880    9.8255 H   0  0  0  0  0  0  0  0  0  0  0  0
   -0.7847   12.6426    8.3768 H   0  0  0  0  0  0  0  0  0  0  0  0
   -0.2759    9.8213    8.0388 H   0  0  0  0  0  0  0  0  0  0  0  0
   -2.6122   11.2036    9.0334 H   0  0  0  0  0  0  0  0  0  0  0  0
  1  6  1  0  0  0  0
  2  8  1  0  0  0  0
  3  9  1  0  0  0  0
  4 10  1  0  0  0  0
  5  7  1  0  0  0  0
  5  8  1  0  0  0  0
  6 11  1  0  0  0  0
  7 11  1  0  0  0  0
  8  9  1  0  0  0  0
  9 10  1  0  0  0  0
 10 11  1  0  0  0  0
  1 12  1  0  0  0  0
  2 13  1  0  0  0  0
  3 14  1  0  0  0  0
  4 15  1  0  0  0  0
  5 16  1  0  0  0  0
  6 17  1  0  0  0  0
  6 18  1  0  0  0  0
  7 19  1  0  0  0  0
  7 20  1  0  0  0  0
  8 21  1  0  0  0  0
  9 22  1  0  0  0  0
 10 23  1  0  0  0  0
 11 24  1  0  0  0  0
M  END
> <pdb_id>
2J75

> <uniprot_id>
Q08638

> <usmiles>
O[C@H]1NC[C@@H]([C@@H](O)[C@@H]1O)CO

$$$$
NPO_A_202
          07202417443D 1   1.00000     0.00000     0
            
 15 15  0  0  0  0            999 V2000
    7.1146   -2.1726   16.7173 O   0  5  0  0  0  0  0  0  0  0  0  0
    5.4238   -0.8416   17.0831 O   0  0  0  0  0  0  0  0  0  0  0  0
    4.9452   -1.0493   10.7415 O   0  0  0  0  0  0  0  0  0  0  0  0
    6.0237   -1.4603   16.2597 N   0  3  0  0  0  0  0  0  0  0  0  0
    6.0301   -2.2408   12.6587 C   0  0  0  0  0  0  0  0  0  0  0  0
    4.6572   -0.3434   12.9818 C   0  0  0  0  0  0  0  0  0  0  0  0
    6.3418   -2.3441   13.9956 C   0  0  0  0  0  0  0  0  0  0  0  0
    4.9179   -0.4353   14.3042 C   0  0  0  0  0  0  0  0  0  0  0  0
    5.2115   -1.2249   12.1084 C   0  0  0  0  0  0  0  0  0  0  0  0
    5.7330   -1.4131   14.8793 C   0  0  0  0  0  0  0  0  0  0  0  0
    4.3531   -0.3022   10.4394 H   0  0  0  0  0  0  0  0  0  0  0  0
    6.4060   -2.9273   12.0363 H   0  0  0  0  0  0  0  0  0  0  0  0
    4.0527    0.3778   12.6435 H   0  0  0  0  0  0  0  0  0  0  0  0
    6.9708   -3.0454   14.3308 H   0  0  0  0  0  0  0  0  0  0  0  0
    4.5001    0.2409   14.9110 H   0  0  0  0  0  0  0  0  0  0  0  0
  1  4  1  0  0  0  0
  2  4  2  0  0  0  0
  3  9  1  0  0  0  0
  4 10  1  0  0  0  0
  5  7  1  0  0  0  0
  5  9  2  0  0  0  0
  6  8  2  0  0  0  0
  6  9  1  0  0  0  0
  7 10  2  0  0  0  0
  8 10  1  0  0  0  0
  3 11  1  0  0  0  0
  5 12  1  0  0  0  0
  6 13  1  0  0  0  0
  7 14  1  0  0  0  0
  8 15  1  0  0  0  0
M  CHG  2   1  -1   4   1
M  END
> <pdb_id>
6VDW

> <uniprot_id>
Q9NAV7

> <usmiles>
[O-][N+](=O)c1ccc(O)cc1

$$$$
NPO_A_300
          07192423353D 1   1.00000     0.00000     0
            
 15 15  0  0  0  0            999 V2000
   21.0209   -9.4413   -8.6788 O   0  5  0  0  0  0  0  0  0  0  0  0
   19.1617  -10.3654   -8.1724 O   0  0  0  0  0  0  0  0  0  0  0  0
   17.3203   -4.2462   -8.3844 O   0  0  0  0  0  0  0  0  0  0  0  0
   19.7773   -9.3329   -8.4209 N   0  3  0  0  0  0  0  0  0  0  0  0
   17.2130   -6.5832   -7.9112 C   0  0  0  0  0  0  0  0  0  0  0  0
   19.2987   -5.6143   -8.7848 C   0  0  0  0  0  0  0  0  0  0  0  0
   17.8074   -7.8731   -8.0839 C   0  0  0  0  0  0  0  0  0  0  0  0
   19.9162   -6.8961   -8.8336 C   0  0  0  0  0  0  0  0  0  0  0  0
   17.9756   -5.4596   -8.2752 C   0  0  0  0  0  0  0  0  0  0  0  0
   19.1712   -8.0164   -8.4316 C   0  0  0  0  0  0  0  0  0  0  0  0
   17.8291   -3.4245   -8.6412 H   0  0  0  0  0  0  0  0  0  0  0  0
   16.2878   -6.4843   -7.5447 H   0  0  0  0  0  0  0  0  0  0  0  0
   19.7988   -4.8125   -9.1120 H   0  0  0  0  0  0  0  0  0  0  0  0
   17.2467   -8.6912   -7.9560 H   0  0  0  0  0  0  0  0  0  0  0  0
   20.8603   -6.9965   -9.1474 H   0  0  0  0  0  0  0  0  0  0  0  0
  1  4  1  0  0  0  0
  2  4  2  0  0  0  0
  3  9  1  0  0  0  0
  4 10  1  0  0  0  0
  5  7  1  0  0  0  0
  5  9  2  0  0  0  0
  6  8  2  0  0  0  0
  6  9  1  0  0  0  0
  7 10  2  0  0  0  0
  8 10  1  0  0  0  0
  3 11  1  0  0  0  0
  5 12  1  0  0  0  0
  6 13  1  0  0  0  0
  7 14  1  0  0  0  0
  8 15  1  0  0  0  0
M  CHG  2   1  -1   4   1
M  END
> <pdb_id>
3U3R

> <uniprot_id>
P50225

> <usmiles>
[O-][N+](=O)c1ccc(O)cc1

$$$$
NPO_A_404
          07212404053D 1   1.00000     0.00000     0
            
 15 15  0  0  0  0            999 V2000
   -1.6550  -10.9990  -14.4491 O   0  5  0  0  0  0  0  0  0  0  0  0
   -3.7193  -11.5374  -14.7026 O   0  0  0  0  0  0  0  0  0  0  0  0
   -0.9159  -16.3911  -17.5100 O   0  0  0  0  0  0  0  0  0  0  0  0
   -2.5265  -11.7475  -14.8513 N   0  3  0  0  0  0  0  0  0  0  0  0
   -2.6850  -14.9070  -16.8237 C   0  0  0  0  0  0  0  0  0  0  0  0
   -0.3935  -14.4105  -16.3285 C   0  0  0  0  0  0  0  0  0  0  0  0
   -3.0845  -13.7646  -16.1564 C   0  0  0  0  0  0  0  0  0  0  0  0
   -0.7711  -13.2539  -15.6729 C   0  0  0  0  0  0  0  0  0  0  0  0
   -1.3400  -15.2445  -16.9029 C   0  0  0  0  0  0  0  0  0  0  0  0
   -2.1148  -12.9594  -15.5960 C   0  0  0  0  0  0  0  0  0  0  0  0
    0.0603  -16.6043  -17.5497 H   0  0  0  0  0  0  0  0  0  0  0  0
   -3.3700  -15.4955  -17.2532 H   0  0  0  0  0  0  0  0  0  0  0  0
    0.5757  -14.6490  -16.3893 H   0  0  0  0  0  0  0  0  0  0  0  0
   -4.0531  -13.5275  -16.0816 H   0  0  0  0  0  0  0  0  0  0  0  0
   -0.0879  -12.6477  -15.2657 H   0  0  0  0  0  0  0  0  0  0  0  0
  1  4  1  0  0  0  0
  2  4  2  0  0  0  0
  3  9  1  0  0  0  0
  4 10  1  0  0  0  0
  5  7  1  0  0  0  0
  5  9  2  0  0  0  0
  6  8  2  0  0  0  0
  6  9  1  0  0  0  0
  7 10  2  0  0  0  0
  8 10  1  0  0  0  0
  3 11  1  0  0  0  0
  5 12  1  0  0  0  0
  6 13  1  0  0  0  0
  7 14  1  0  0  0  0
  8 15  1  0  0  0  0
M  CHG  2   1  -1   4   1
M  END
> <pdb_id>
6SDP

> <uniprot_id>
Q8WS26

> <usmiles>
[O-][N+](=O)c1ccc(O)cc1

$$$$
NPO_B_202
          07202414543D 1   1.00000     0.00000     0
            
 15 15  0  0  0  0            999 V2000
   26.6990   28.2850    0.1360 O   0  5  0  0  0  0  0  0  0  0  0  0
   25.7450   27.2150   -1.4500 O   0  0  0  0  0  0  0  0  0  0  0  0
   30.3830   23.3030    0.1130 O   0  0  0  0  0  0  0  0  0  0  0  0
   26.6000   27.2450   -0.5390 N   0  3  0  0  0  0  0  0  0  0  0  0
   29.4740   25.3470    0.7980 C   0  0  0  0  0  0  0  0  0  0  0  0
   28.5060   24.1340   -1.0620 C   0  0  0  0  0  0  0  0  0  0  0  0
   28.4920   26.3180    0.6460 C   0  0  0  0  0  0  0  0  0  0  0  0
   27.5260   25.1140   -1.1960 C   0  0  0  0  0  0  0  0  0  0  0  0
   29.4470   24.2570   -0.0500 C   0  0  0  0  0  0  0  0  0  0  0  0
   27.5610   26.2580   -0.3690 C   0  0  0  0  0  0  0  0  0  0  0  0
   30.3897   22.5017   -0.4853 H   0  0  0  0  0  0  0  0  0  0  0  0
   30.1799   25.4347    1.5009 H   0  0  0  0  0  0  0  0  0  0  0  0
   28.5312   23.3530   -1.6860 H   0  0  0  0  0  0  0  0  0  0  0  0
   28.4596   27.0817    1.2908 H   0  0  0  0  0  0  0  0  0  0  0  0
   26.8000   25.0080   -1.8755 H   0  0  0  0  0  0  0  0  0  0  0  0
  1  4  1  0  0  0  0
  2  4  2  0  0  0  0
  3  9  1  0  0  0  0
  4 10  1  0  0  0  0
  5  7  1  0  0  0  0
  5  9  2  0  0  0  0
  6  8  2  0  0  0  0
  6  9  1  0  0  0  0
  7 10  2  0  0  0  0
  8 10  1  0  0  0  0
  3 11  1  0  0  0  0
  5 12  1  0  0  0  0
  6 13  1  0  0  0  0
  7 14  1  0  0  0  0
  8 15  1  0  0  0  0
M  CHG  2   1  -1   4   1
M  END
> <pdb_id>
4EKQ

> <uniprot_id>
P00720

> <usmiles>
[O-][N+](=O)c1ccc(O)cc1

$$$$
NPO_B_705
          07202416113D 1   1.00000     0.00000     0
            
 15 15  0  0  0  0            999 V2000
    2.7835    9.7828   14.9707 O   0  5  0  0  0  0  0  0  0  0  0  0
    1.3343    9.0360   16.4123 O   0  0  0  0  0  0  0  0  0  0  0  0
    5.5012   11.7043   20.1706 O   0  0  0  0  0  0  0  0  0  0  0  0
    2.4078    9.6094   16.1160 N   0  3  0  0  0  0  0  0  0  0  0  0
    3.7932   10.2169   19.4389 C   0  0  0  0  0  0  0  0  0  0  0  0
    4.9031   11.6680   17.8552 C   0  0  0  0  0  0  0  0  0  0  0  0
    3.0083    9.6897   18.4434 C   0  0  0  0  0  0  0  0  0  0  0  0
    4.1480   11.1327   16.8434 C   0  0  0  0  0  0  0  0  0  0  0  0
    4.7263   11.2121   19.1620 C   0  0  0  0  0  0  0  0  0  0  0  0
    3.1993   10.1585   17.1495 C   0  0  0  0  0  0  0  0  0  0  0  0
    6.1741   12.4193   19.9807 H   0  0  0  0  0  0  0  0  0  0  0  0
    3.6933    9.8814   20.3757 H   0  0  0  0  0  0  0  0  0  0  0  0
    5.5762   12.3807   17.6577 H   0  0  0  0  0  0  0  0  0  0  0  0
    2.3214    8.9909   18.6431 H   0  0  0  0  0  0  0  0  0  0  0  0
    4.2761   11.4369   15.8995 H   0  0  0  0  0  0  0  0  0  0  0  0
  1  4  1  0  0  0  0
  2  4  2  0  0  0  0
  3  9  1  0  0  0  0
  4 10  1  0  0  0  0
  5  7  1  0  0  0  0
  5  9  2  0  0  0  0
  6  8  2  0  0  0  0
  6  9  1  0  0  0  0
  7 10  2  0  0  0  0
  8 10  1  0  0  0  0
  3 11  1  0  0  0  0
  5 12  1  0  0  0  0
  6 13  1  0  0  0  0
  7 14  1  0  0  0  0
  8 15  1  0  0  0  0
M  CHG  2   1  -1   4   1
M  END
> <pdb_id>
6ZE7

> <uniprot_id>
nan

> <usmiles>
[O-][N+](=O)c1ccc(O)cc1

$$$$
NPO_D_402
          07192419503D 1   1.00000     0.00000     0
            
 15 15  0  0  0  0            999 V2000
  -18.1798    1.0000   44.2672 O   0  5  0  0  0  0  0  0  0  0  0  0
  -20.5197    1.3900   44.6884 O   0  0  0  0  0  0  0  0  0  0  0  0
  -19.9647    2.5882   38.5085 O   0  0  0  0  0  0  0  0  0  0  0  0
  -19.4404    1.3332   43.8253 N   0  3  0  0  0  0  0  0  0  0  0  0
  -19.7219    3.2436   40.7614 C   0  0  0  0  0  0  0  0  0  0  0  0
  -19.8201    0.8963   40.1981 C   0  0  0  0  0  0  0  0  0  0  0  0
  -19.5965    2.9432   42.1115 C   0  0  0  0  0  0  0  0  0  0  0  0
  -19.6927    0.5785   41.5527 C   0  0  0  0  0  0  0  0  0  0  0  0
  -19.8306    2.2363   39.8132 C   0  0  0  0  0  0  0  0  0  0  0  0
  -19.5859    1.6144   42.4880 C   0  0  0  0  0  0  0  0  0  0  0  0
  -20.0449    1.8814   37.8057 H   0  0  0  0  0  0  0  0  0  0  0  0
  -19.7341    4.1997   40.4683 H   0  0  0  0  0  0  0  0  0  0  0  0
  -19.9027    0.1721   39.5135 H   0  0  0  0  0  0  0  0  0  0  0  0
  -19.5159    3.6701   42.7935 H   0  0  0  0  0  0  0  0  0  0  0  0
  -19.6781   -0.3762   41.8500 H   0  0  0  0  0  0  0  0  0  0  0  0
  1  4  1  0  0  0  0
  2  4  2  0  0  0  0
  3  9  1  0  0  0  0
  4 10  1  0  0  0  0
  5  7  1  0  0  0  0
  5  9  2  0  0  0  0
  6  8  2  0  0  0  0
  6  9  1  0  0  0  0
  7 10  2  0  0  0  0
  8 10  1  0  0  0  0
  3 11  1  0  0  0  0
  5 12  1  0  0  0  0
  6 13  1  0  0  0  0
  7 14  1  0  0  0  0
  8 15  1  0  0  0  0
M  CHG  2   1  -1   4   1
M  END
> <pdb_id>
5M4O

> <uniprot_id>
F8TW83

> <usmiles>
[O-][N+](=O)c1ccc(O)cc1

$$$$
NPO_X_1601
          07202400423D 1   1.00000     0.00000     0
            
 15 15  0  0  0  0            999 V2000
   50.2349  -10.9350   10.9849 O   0  5  0  0  0  0  0  0  0  0  0  0
   48.9248  -11.5705   12.5306 O   0  0  0  0  0  0  0  0  0  0  0  0
   47.8799   -5.4117   12.3951 O   0  0  0  0  0  0  0  0  0  0  0  0
   49.3802  -10.6791   11.8214 N   0  3  0  0  0  0  0  0  0  0  0  0
   47.6052   -7.6787   13.0145 C   0  0  0  0  0  0  0  0  0  0  0  0
   49.2592   -7.0278   11.3318 C   0  0  0  0  0  0  0  0  0  0  0  0
   47.9717   -9.0151   12.8698 C   0  0  0  0  0  0  0  0  0  0  0  0
   49.6267   -8.3693   11.2001 C   0  0  0  0  0  0  0  0  0  0  0  0
   48.2531   -6.7000   12.2445 C   0  0  0  0  0  0  0  0  0  0  0  0
   48.9819   -9.3509   11.9631 C   0  0  0  0  0  0  0  0  0  0  0  0
   48.3262   -4.6958   11.8581 H   0  0  0  0  0  0  0  0  0  0  0  0
   46.8876   -7.4192   13.6607 H   0  0  0  0  0  0  0  0  0  0  0  0
   49.7057   -6.3189   10.7858 H   0  0  0  0  0  0  0  0  0  0  0  0
   47.5178   -9.7255   13.4077 H   0  0  0  0  0  0  0  0  0  0  0  0
   50.3505   -8.6287   10.5607 H   0  0  0  0  0  0  0  0  0  0  0  0
  1  4  1  0  0  0  0
  2  4  2  0  0  0  0
  3  9  1  0  0  0  0
  4 10  1  0  0  0  0
  5  7  1  0  0  0  0
  5  9  2  0  0  0  0
  6  8  2  0  0  0  0
  6  9  1  0  0  0  0
  7 10  2  0  0  0  0
  8 10  1  0  0  0  0
  3 11  1  0  0  0  0
  5 12  1  0  0  0  0
  6 13  1  0  0  0  0
  7 14  1  0  0  0  0
  8 15  1  0  0  0  0
M  CHG  2   1  -1   4   1
M  END
> <pdb_id>
2ZYV

> <uniprot_id>
Q9R2C2

> <usmiles>
[O-][N+](=O)c1ccc(O)cc1

$$$$
NPZ_A_1
          07192418453D 1   1.00000     0.00000     0
            
 34 37  0  0  0  0            999 V2000
   46.3280   10.2782   30.4627 N   0  0  0  0  0  0  0  0  0  0  0  0
   46.0343   14.3972   32.0709 N   0  0  0  0  0  0  0  0  0  0  0  0
   48.4493   11.0522   30.0261 N   0  0  0  0  0  0  0  0  0  0  0  0
   49.1316   13.2232   30.5894 N   0  0  0  0  0  0  0  0  0  0  0  0
   47.3818   14.5657   31.7265 N   0  0  0  0  0  0  0  0  0  0  0  0
   47.9125   15.9307   32.0353 C   0  0  0  0  0  0  0  0  0  0  0  0
   49.3908   12.0104   30.0812 C   0  0  0  0  0  0  0  0  0  0  0  0
   39.9420   10.3634   32.4738 C   0  0  0  0  0  0  0  0  0  0  0  0
   40.2084   11.0344   33.6641 C   0  0  0  0  0  0  0  0  0  0  0  0
   40.8741   10.3904   31.4411 C   0  0  0  0  0  0  0  0  0  0  0  0
   41.3998   11.7565   33.8260 C   0  0  0  0  0  0  0  0  0  0  0  0
   42.9415   11.1134   30.5963 C   0  0  0  0  0  0  0  0  0  0  0  0
   44.1247   11.8118   30.7110 C   0  0  0  0  0  0  0  0  0  0  0  0
   43.5662   12.5176   32.9502 C   0  0  0  0  0  0  0  0  0  0  0  0
   47.2156   11.2745   30.5261 C   0  0  0  0  0  0  0  0  0  0  0  0
   47.9101   13.4902   31.1247 C   0  0  0  0  0  0  0  0  0  0  0  0
   45.7047   13.1260   31.7474 C   0  0  0  0  0  0  0  0  0  0  0  0
   42.0475   11.1083   31.6320 C   0  0  0  0  0  0  0  0  0  0  0  0
   44.4640   12.4980   31.8663 C   0  0  0  0  0  0  0  0  0  0  0  0
   42.3488   11.7983   32.8154 C   0  0  0  0  0  0  0  0  0  0  0  0
   46.9146   12.5219   31.0947 C   0  0  0  0  0  0  0  0  0  0  0  0
   45.4044   10.4077   30.8235 H   0  0  0  0  0  0  0  0  0  0  0  0
   46.5871    9.4029   30.0544 H   0  0  0  0  0  0  0  0  0  0  0  0
   48.8742   15.9832   31.7663 H   0  0  0  0  0  0  0  0  0  0  0  0
   47.3871   16.6149   31.5295 H   0  0  0  0  0  0  0  0  0  0  0  0
   47.8307   16.1060   33.0164 H   0  0  0  0  0  0  0  0  0  0  0  0
   50.3077   11.8132   29.7341 H   0  0  0  0  0  0  0  0  0  0  0  0
   39.0833    9.8634   32.3613 H   0  0  0  0  0  0  0  0  0  0  0  0
   39.5439   11.0013   34.4108 H   0  0  0  0  0  0  0  0  0  0  0  0
   40.7034    9.9053   30.5835 H   0  0  0  0  0  0  0  0  0  0  0  0
   41.5671   12.2474   34.6810 H   0  0  0  0  0  0  0  0  0  0  0  0
   42.7368   10.6107   29.7564 H   0  0  0  0  0  0  0  0  0  0  0  0
   44.7576   11.8236   29.9368 H   0  0  0  0  0  0  0  0  0  0  0  0
   43.7784   13.0213   33.7876 H   0  0  0  0  0  0  0  0  0  0  0  0
  1 15  1  0  0  0  0
  2  5  1  0  0  0  0
  2 17  2  0  0  0  0
  3  7  1  0  0  0  0
  3 15  2  0  0  0  0
  4  7  2  0  0  0  0
  4 16  1  0  0  0  0
  5  6  1  0  0  0  0
  5 16  1  0  0  0  0
  8  9  2  0  0  0  0
  8 10  1  0  0  0  0
  9 11  1  0  0  0  0
 10 18  2  0  0  0  0
 11 20  2  0  0  0  0
 12 13  2  0  0  0  0
 12 18  1  0  0  0  0
 13 19  1  0  0  0  0
 14 19  2  0  0  0  0
 14 20  1  0  0  0  0
 15 21  1  0  0  0  0
 16 21  2  0  0  0  0
 17 19  1  0  0  0  0
 17 21  1  0  0  0  0
 18 20  1  0  0  0  0
  1 22  1  0  0  0  0
  1 23  1  0  0  0  0
  6 24  1  0  0  0  0
  6 25  1  0  0  0  0
  6 26  1  0  0  0  0
  7 27  1  0  0  0  0
  8 28  1  0  0  0  0
  9 29  1  0  0  0  0
 10 30  1  0  0  0  0
 11 31  1  0  0  0  0
 12 32  1  0  0  0  0
 13 33  1  0  0  0  0
 14 34  1  0  0  0  0
M  END
> <pdb_id>
3ENE

> <uniprot_id>
P48736

> <usmiles>
n1c2N(N=C(c2c(nc1)N)c3cc4c(cc3)cccc4)C

$$$$
NQH_A_201
          07202408113D 1   1.00000     0.00000     0
            
 24 25  0  0  0  0            999 V2000
  -27.5941    9.4596   10.9968 Cl  0  0  0  0  0  0  0  0  0  0  0  0
  -29.0422   11.3303   13.8808 N   0  0  0  0  0  0  0  0  0  0  0  0
  -25.4451    8.6341   12.1733 N   0  0  0  0  0  0  0  0  0  0  0  0
  -26.6402    9.9028   15.9075 N   0  0  0  0  0  0  0  0  0  0  0  0
  -28.1382   10.6567   13.7238 C   0  0  0  0  0  0  0  0  0  0  0  0
  -24.7306    8.3400   13.2623 C   0  0  0  0  0  0  0  0  0  0  0  0
  -25.9099    9.5582   17.1090 C   0  0  0  0  0  0  0  0  0  0  0  0
  -25.0804    8.7259   14.5350 C   0  0  0  0  0  0  0  0  0  0  0  0
  -24.1459   10.5786   18.6623 C   0  0  0  0  0  0  0  0  0  0  0  0
  -23.5261   10.4778   17.3323 C   0  0  0  0  0  0  0  0  0  0  0  0
  -26.5517    9.3219   12.3584 C   0  0  0  0  0  0  0  0  0  0  0  0
  -24.9695   10.6945   17.4501 C   0  0  0  0  0  0  0  0  0  0  0  0
  -26.2301    9.4891   14.6963 C   0  0  0  0  0  0  0  0  0  0  0  0
  -26.9867    9.8148   13.5805 C   0  0  0  0  0  0  0  0  0  0  0  0
  -27.4672   10.4603   15.9802 H   0  0  0  0  0  0  0  0  0  0  0  0
  -23.8919    7.8079   13.1456 H   0  0  0  0  0  0  0  0  0  0  0  0
  -25.3842    8.7216   16.9547 H   0  0  0  0  0  0  0  0  0  0  0  0
  -26.5511    9.4147   17.8628 H   0  0  0  0  0  0  0  0  0  0  0  0
  -24.5227    8.4645   15.3228 H   0  0  0  0  0  0  0  0  0  0  0  0
  -23.9788   11.3827   19.2329 H   0  0  0  0  0  0  0  0  0  0  0  0
  -24.2204    9.7677   19.2427 H   0  0  0  0  0  0  0  0  0  0  0  0
  -23.1776    9.5982   17.0087 H   0  0  0  0  0  0  0  0  0  0  0  0
  -22.9360   11.2131   16.9989 H   0  0  0  0  0  0  0  0  0  0  0  0
  -25.2941   11.6137   17.2273 H   0  0  0  0  0  0  0  0  0  0  0  0
  1 11  1  0  0  0  0
  2  5  3  0  0  0  0
  3  6  2  0  0  0  0
  3 11  1  0  0  0  0
  4  7  1  0  0  0  0
  4 13  1  0  0  0  0
  5 14  1  0  0  0  0
  6  8  1  0  0  0  0
  7 12  1  0  0  0  0
  8 13  2  0  0  0  0
  9 10  1  0  0  0  0
  9 12  1  0  0  0  0
 10 12  1  0  0  0  0
 11 14  2  0  0  0  0
 13 14  1  0  0  0  0
  4 15  1  0  0  0  0
  6 16  1  0  0  0  0
  7 17  1  0  0  0  0
  7 18  1  0  0  0  0
  8 19  1  0  0  0  0
  9 20  1  0  0  0  0
  9 21  1  0  0  0  0
 10 22  1  0  0  0  0
 10 23  1  0  0  0  0
 12 24  1  0  0  0  0
M  END
> <pdb_id>
6TOG

> <uniprot_id>
P41182

> <usmiles>
Clc1nccc(NCC2CC2)c1C#N

$$$$
NQK_A_201
          07202408113D 1   1.00000     0.00000     0
            
 34 36  0  0  0  0            999 V2000
  -27.8937   10.1192   10.8274 Cl  0  0  0  0  0  0  0  0  0  0  0  0
  -21.3203   10.8039   20.7273 O   0  0  0  0  0  0  0  0  0  0  0  0
  -29.0595   11.4377   14.0011 N   0  0  0  0  0  0  0  0  0  0  0  0
  -25.6365    9.1088   11.6124 N   0  0  0  0  0  0  0  0  0  0  0  0
  -26.2006   10.0422   15.6327 N   0  0  0  0  0  0  0  0  0  0  0  0
  -22.3789    9.1235   19.5060 N   0  0  0  0  0  0  0  0  0  0  0  0
  -22.9966   11.2301   19.1719 N   0  0  0  0  0  0  0  0  0  0  0  0
  -21.7774    7.9252   20.0832 C   0  0  0  0  0  0  0  0  0  0  0  0
  -23.0882   12.6827   19.2471 C   0  0  0  0  0  0  0  0  0  0  0  0
  -28.1211   10.8517   13.7403 C   0  0  0  0  0  0  0  0  0  0  0  0
  -24.7331    8.7819   12.5392 C   0  0  0  0  0  0  0  0  0  0  0  0
  -24.8680    9.0707   13.8810 C   0  0  0  0  0  0  0  0  0  0  0  0
  -24.8994    8.4121   16.8594 C   0  0  0  0  0  0  0  0  0  0  0  0
  -23.9351    8.0948   17.7996 C   0  0  0  0  0  0  0  0  0  0  0  0
  -24.7227   10.7684   17.3908 C   0  0  0  0  0  0  0  0  0  0  0  0
  -26.7086    9.7468   12.0282 C   0  0  0  0  0  0  0  0  0  0  0  0
  -22.1348   10.4313   19.9107 C   0  0  0  0  0  0  0  0  0  0  0  0
  -25.2868    9.7353   16.6496 C   0  0  0  0  0  0  0  0  0  0  0  0
  -26.0079    9.7441   14.3043 C   0  0  0  0  0  0  0  0  0  0  0  0
  -23.3670    9.1219   18.5319 C   0  0  0  0  0  0  0  0  0  0  0  0
  -23.7584   10.4392   18.3240 C   0  0  0  0  0  0  0  0  0  0  0  0
  -26.9598   10.1103   13.3482 C   0  0  0  0  0  0  0  0  0  0  0  0
  -27.0474   10.5080   15.8897 H   0  0  0  0  0  0  0  0  0  0  0  0
  -22.1240    7.1163   19.6082 H   0  0  0  0  0  0  0  0  0  0  0  0
  -20.7834    7.9700   19.9834 H   0  0  0  0  0  0  0  0  0  0  0  0
  -22.0128    7.8683   21.0535 H   0  0  0  0  0  0  0  0  0  0  0  0
  -23.7882   13.0060   18.6104 H   0  0  0  0  0  0  0  0  0  0  0  0
  -23.3336   12.9535   20.1780 H   0  0  0  0  0  0  0  0  0  0  0  0
  -22.2055   13.0854   19.0047 H   0  0  0  0  0  0  0  0  0  0  0  0
  -23.9093    8.2987   12.2428 H   0  0  0  0  0  0  0  0  0  0  0  0
  -24.1611    8.8016   14.5351 H   0  0  0  0  0  0  0  0  0  0  0  0
  -25.3243    7.6828   16.3231 H   0  0  0  0  0  0  0  0  0  0  0  0
  -23.6555    7.1459   17.9462 H   0  0  0  0  0  0  0  0  0  0  0  0
  -25.0056   11.7176   17.2530 H   0  0  0  0  0  0  0  0  0  0  0  0
  1 16  1  0  0  0  0
  2 17  2  0  0  0  0
  3 10  3  0  0  0  0
  4 11  2  0  0  0  0
  4 16  1  0  0  0  0
  5 18  1  0  0  0  0
  5 19  1  0  0  0  0
  6  8  1  0  0  0  0
  6 17  1  0  0  0  0
  6 20  1  0  0  0  0
  7  9  1  0  0  0  0
  7 17  1  0  0  0  0
  7 21  1  0  0  0  0
 10 22  1  0  0  0  0
 11 12  1  0  0  0  0
 12 19  2  0  0  0  0
 13 14  1  0  0  0  0
 13 18  2  0  0  0  0
 14 20  2  0  0  0  0
 15 18  1  0  0  0  0
 15 21  2  0  0  0  0
 16 22  2  0  0  0  0
 19 22  1  0  0  0  0
 20 21  1  0  0  0  0
  5 23  1  0  0  0  0
  8 24  1  0  0  0  0
  8 25  1  0  0  0  0
  8 26  1  0  0  0  0
  9 27  1  0  0  0  0
  9 28  1  0  0  0  0
  9 29  1  0  0  0  0
 11 30  1  0  0  0  0
 12 31  1  0  0  0  0
 13 32  1  0  0  0  0
 14 33  1  0  0  0  0
 15 34  1  0  0  0  0
M  END
> <pdb_id>
6TOH

> <uniprot_id>
P41182

> <usmiles>
Clc1nccc(Nc2cc3N(C(=O)N(c3cc2)C)C)c1C#N

$$$$
NQN_A_201
          07202408113D 1   1.00000     0.00000     0
            
 44 46  0  0  0  0            999 V2000
  -28.1059   10.2391   10.6555 Cl  0  0  0  0  0  0  0  0  0  0  0  0
  -21.5766   10.9196   20.5769 O   0  0  0  0  0  0  0  0  0  0  0  0
  -21.6945   15.2267   19.3628 O   0  0  0  0  0  0  0  0  0  0  0  0
  -29.2581   11.4903   13.9018 N   0  0  0  0  0  0  0  0  0  0  0  0
  -25.8969    9.1418   11.4404 N   0  0  0  0  0  0  0  0  0  0  0  0
  -26.3807   10.0944   15.4561 N   0  0  0  0  0  0  0  0  0  0  0  0
  -22.5229    9.2374   19.3065 N   0  0  0  0  0  0  0  0  0  0  0  0
  -23.2072   11.3131   18.9903 N   0  0  0  0  0  0  0  0  0  0  0  0
  -21.8046    8.0829   19.8295 C   0  0  0  0  0  0  0  0  0  0  0  0
  -23.3637   15.5636   17.6597 C   0  0  0  0  0  0  0  0  0  0  0  0
  -28.3505   10.9067   13.5613 C   0  0  0  0  0  0  0  0  0  0  0  0
  -25.0002    8.7940   12.3617 C   0  0  0  0  0  0  0  0  0  0  0  0
  -23.1949   12.7691   18.9921 C   0  0  0  0  0  0  0  0  0  0  0  0
  -25.1195    9.0896   13.7018 C   0  0  0  0  0  0  0  0  0  0  0  0
  -22.2165   13.3338   17.9752 C   0  0  0  0  0  0  0  0  0  0  0  0
  -24.9910    8.4781   16.6214 C   0  0  0  0  0  0  0  0  0  0  0  0
  -24.0257    8.1772   17.5651 C   0  0  0  0  0  0  0  0  0  0  0  0
  -24.8803   10.8277   17.1770 C   0  0  0  0  0  0  0  0  0  0  0  0
  -26.9456    9.8057   11.8584 C   0  0  0  0  0  0  0  0  0  0  0  0
  -22.3420   10.5370   19.7303 C   0  0  0  0  0  0  0  0  0  0  0  0
  -22.0955   14.8398   18.0485 C   0  0  2  0  0  0  0  0  0  0  0  0
  -25.4144    9.7913   16.4248 C   0  0  0  0  0  0  0  0  0  0  0  0
  -26.2336    9.7923   14.1290 C   0  0  0  0  0  0  0  0  0  0  0  0
  -23.4905    9.2107   18.3103 C   0  0  0  0  0  0  0  0  0  0  0  0
  -23.9181   10.5160   18.1136 C   0  0  0  0  0  0  0  0  0  0  0  0
  -27.1859   10.1701   13.1789 C   0  0  0  0  0  0  0  0  0  0  0  0
  -20.8552   14.7431   19.6111 H   0  0  0  0  0  0  0  0  0  0  0  0
  -27.2192   10.5541   15.7488 H   0  0  0  0  0  0  0  0  0  0  0  0
  -22.1151    7.2564   19.3600 H   0  0  0  0  0  0  0  0  0  0  0  0
  -20.8236    8.2039   19.6779 H   0  0  0  0  0  0  0  0  0  0  0  0
  -21.9821    7.9959   20.8098 H   0  0  0  0  0  0  0  0  0  0  0  0
  -23.6367   15.2864   16.7385 H   0  0  0  0  0  0  0  0  0  0  0  0
  -24.0908   15.3329   18.3064 H   0  0  0  0  0  0  0  0  0  0  0  0
  -23.2030   16.5504   17.6770 H   0  0  0  0  0  0  0  0  0  0  0  0
  -24.1915    8.2876   12.0624 H   0  0  0  0  0  0  0  0  0  0  0  0
  -22.9333   13.0882   19.9030 H   0  0  0  0  0  0  0  0  0  0  0  0
  -24.1132   13.0996   18.7741 H   0  0  0  0  0  0  0  0  0  0  0  0
  -24.4163    8.8029   14.3524 H   0  0  0  0  0  0  0  0  0  0  0  0
  -22.5284   13.0829   17.0588 H   0  0  0  0  0  0  0  0  0  0  0  0
  -21.3157   12.9328   18.1422 H   0  0  0  0  0  0  0  0  0  0  0  0
  -25.3904    7.7436   16.0729 H   0  0  0  0  0  0  0  0  0  0  0  0
  -23.7223    7.2346   17.7048 H   0  0  0  0  0  0  0  0  0  0  0  0
  -25.1838   11.7712   17.0439 H   0  0  0  0  0  0  0  0  0  0  0  0
  -21.3758   15.1205   17.4136 H   0  0  0  0  0  0  0  0  0  0  0  0
  1 19  1  0  0  0  0
  2 20  2  0  0  0  0
  3 21  1  0  0  0  0
  4 11  3  0  0  0  0
  5 12  2  0  0  0  0
  5 19  1  0  0  0  0
  6 22  1  0  0  0  0
  6 23  1  0  0  0  0
  7  9  1  0  0  0  0
  7 20  1  0  0  0  0
  7 24  1  0  0  0  0
  8 13  1  0  0  0  0
  8 20  1  0  0  0  0
  8 25  1  0  0  0  0
 10 21  1  0  0  0  0
 11 26  1  0  0  0  0
 12 14  1  0  0  0  0
 13 15  1  0  0  0  0
 14 23  2  0  0  0  0
 15 21  1  0  0  0  0
 16 17  1  0  0  0  0
 16 22  2  0  0  0  0
 17 24  2  0  0  0  0
 18 22  1  0  0  0  0
 18 25  2  0  0  0  0
 19 26  2  0  0  0  0
 23 26  1  0  0  0  0
 24 25  1  0  0  0  0
  3 27  1  0  0  0  0
  6 28  1  0  0  0  0
  9 29  1  0  0  0  0
  9 30  1  0  0  0  0
  9 31  1  0  0  0  0
 10 32  1  0  0  0  0
 10 33  1  0  0  0  0
 10 34  1  0  0  0  0
 12 35  1  0  0  0  0
 13 36  1  0  0  0  0
 13 37  1  0  0  0  0
 14 38  1  0  0  0  0
 15 39  1  0  0  0  0
 15 40  1  0  0  0  0
 16 41  1  0  0  0  0
 17 42  1  0  0  0  0
 18 43  1  0  0  0  0
 21 44  1  0  0  0  0
M  END
> <pdb_id>
6TOI

> <uniprot_id>
P41182

> <usmiles>
Clc1nccc(Nc2cc3N(C(=O)N(c3cc2)C)CC[C@H](O)C)c1C#N

$$$$
NQQ_A_201
          07202408113D 1   1.00000     0.00000     0
            
 47 49  0  0  0  0            999 V2000
  -28.2252    9.9630   10.6130 Cl  0  0  0  0  0  0  0  0  0  0  0  0
  -21.5407   10.9038   20.5406 O   0  0  0  0  0  0  0  0  0  0  0  0
  -21.7031   15.1774   19.3368 O   0  0  0  0  0  0  0  0  0  0  0  0
  -29.2500   11.4046   13.8733 N   0  0  0  0  0  0  0  0  0  0  0  0
  -25.8691    9.1344   11.3201 N   0  0  0  0  0  0  0  0  0  0  0  0
  -26.3450   10.0683   15.3645 N   0  0  0  0  0  0  0  0  0  0  0  0
  -22.5764    9.2277   19.3152 N   0  0  0  0  0  0  0  0  0  0  0  0
  -23.1333   11.3184   18.9014 N   0  0  0  0  0  0  0  0  0  0  0  0
  -21.9060    8.0694   19.8926 C   0  0  0  0  0  0  0  0  0  0  0  0
  -20.8189   15.3121   17.1103 C   0  0  0  0  0  0  0  0  0  0  0  0
  -23.2600   15.5815   17.5728 C   0  0  0  0  0  0  0  0  0  0  0  0
  -28.3396   10.8253   13.4998 C   0  0  0  0  0  0  0  0  0  0  0  0
  -24.9154    8.8675   12.2198 C   0  0  0  0  0  0  0  0  0  0  0  0
  -23.1085   12.7798   18.9258 C   0  0  0  0  0  0  0  0  0  0  0  0
  -25.0132    9.1661   13.5635 C   0  0  0  0  0  0  0  0  0  0  0  0
  -25.0651    8.4610   16.6432 C   0  0  0  0  0  0  0  0  0  0  0  0
  -24.1223    8.1598   17.6119 C   0  0  0  0  0  0  0  0  0  0  0  0
  -24.8395   10.8277   17.0896 C   0  0  0  0  0  0  0  0  0  0  0  0
  -22.1649   13.3461   17.8736 C   0  0  0  0  0  0  0  0  0  0  0  0
  -26.9598    9.7256   11.7670 C   0  0  0  0  0  0  0  0  0  0  0  0
  -22.3210   10.5278   19.6884 C   0  0  0  0  0  0  0  0  0  0  0  0
  -25.4215    9.7829   16.3781 C   0  0  0  0  0  0  0  0  0  0  0  0
  -26.1665    9.7946   14.0261 C   0  0  0  0  0  0  0  0  0  0  0  0
  -23.5402    9.2036   18.3134 C   0  0  0  0  0  0  0  0  0  0  0  0
  -23.8956   10.5186   18.0542 C   0  0  0  0  0  0  0  0  0  0  0  0
  -27.1715   10.1040   13.0852 C   0  0  0  0  0  0  0  0  0  0  0  0
  -21.9869   14.8543   17.9656 C   0  0  0  0  0  0  0  0  0  0  0  0
  -22.4646   14.8815   19.9135 H   0  0  0  0  0  0  0  0  0  0  0  0
  -27.2028   10.5059   15.6339 H   0  0  0  0  0  0  0  0  0  0  0  0
  -22.2549    7.2352   19.4655 H   0  0  0  0  0  0  0  0  0  0  0  0
  -20.9215    8.1396   19.7318 H   0  0  0  0  0  0  0  0  0  0  0  0
  -22.0817    8.0388   20.8765 H   0  0  0  0  0  0  0  0  0  0  0  0
  -21.0019   15.0938   16.1518 H   0  0  0  0  0  0  0  0  0  0  0  0
  -20.6995   16.2999   17.2103 H   0  0  0  0  0  0  0  0  0  0  0  0
  -19.9859   14.8442   17.4056 H   0  0  0  0  0  0  0  0  0  0  0  0
  -23.4820   15.3740   16.6201 H   0  0  0  0  0  0  0  0  0  0  0  0
  -24.0102   15.2825   18.1625 H   0  0  0  0  0  0  0  0  0  0  0  0
  -23.1266   16.5670   17.6769 H   0  0  0  0  0  0  0  0  0  0  0  0
  -24.0791    8.4235   11.8983 H   0  0  0  0  0  0  0  0  0  0  0  0
  -22.8059   13.0835   19.8292 H   0  0  0  0  0  0  0  0  0  0  0  0
  -24.0316   13.1223   18.7509 H   0  0  0  0  0  0  0  0  0  0  0  0
  -24.2707    8.9358   14.1925 H   0  0  0  0  0  0  0  0  0  0  0  0
  -25.4959    7.7207   16.1270 H   0  0  0  0  0  0  0  0  0  0  0  0
  -23.8675    7.2114   17.8007 H   0  0  0  0  0  0  0  0  0  0  0  0
  -25.0964   11.7771   16.9089 H   0  0  0  0  0  0  0  0  0  0  0  0
  -22.5302   13.1252   16.9693 H   0  0  0  0  0  0  0  0  0  0  0  0
  -21.2699   12.9144   17.9861 H   0  0  0  0  0  0  0  0  0  0  0  0
  1 20  1  0  0  0  0
  2 21  2  0  0  0  0
  3 27  1  0  0  0  0
  4 12  3  0  0  0  0
  5 13  2  0  0  0  0
  5 20  1  0  0  0  0
  6 22  1  0  0  0  0
  6 23  1  0  0  0  0
  7  9  1  0  0  0  0
  7 21  1  0  0  0  0
  7 24  1  0  0  0  0
  8 14  1  0  0  0  0
  8 21  1  0  0  0  0
  8 25  1  0  0  0  0
 10 27  1  0  0  0  0
 11 27  1  0  0  0  0
 12 26  1  0  0  0  0
 13 15  1  0  0  0  0
 14 19  1  0  0  0  0
 15 23  2  0  0  0  0
 16 17  1  0  0  0  0
 16 22  2  0  0  0  0
 17 24  2  0  0  0  0
 18 22  1  0  0  0  0
 18 25  2  0  0  0  0
 19 27  1  0  0  0  0
 20 26  2  0  0  0  0
 23 26  1  0  0  0  0
 24 25  1  0  0  0  0
  3 28  1  0  0  0  0
  6 29  1  0  0  0  0
  9 30  1  0  0  0  0
  9 31  1  0  0  0  0
  9 32  1  0  0  0  0
 10 33  1  0  0  0  0
 10 34  1  0  0  0  0
 10 35  1  0  0  0  0
 11 36  1  0  0  0  0
 11 37  1  0  0  0  0
 11 38  1  0  0  0  0
 13 39  1  0  0  0  0
 14 40  1  0  0  0  0
 14 41  1  0  0  0  0
 15 42  1  0  0  0  0
 16 43  1  0  0  0  0
 17 44  1  0  0  0  0
 18 45  1  0  0  0  0
 19 46  1  0  0  0  0
 19 47  1  0  0  0  0
M  END
> <pdb_id>
6TOJ

> <uniprot_id>
P41182

> <usmiles>
Clc1nccc(Nc2cc3N(C(=O)N(c3cc2)C)CCC(O)(C)C)c1C#N

$$$$
NSG_B_1627
          07192416333D 1   1.00000     0.00000     0
            
 29 30  0  0  0  0            999 V2000
   71.9057  -19.6818   57.0731 S   0  0  0  0  0  0  0  0  0  0  0  0
   74.7865  -16.9379   53.3373 O   0  0  0  0  0  0  0  0  0  0  0  0
   71.9204  -15.9328   53.8033 O   0  0  0  0  0  0  0  0  0  0  0  0
   69.4591  -16.6332   54.6973 O   0  0  0  0  0  0  0  0  0  0  0  0
   73.3837  -17.8330   55.5945 O   0  0  0  0  0  0  0  0  0  0  0  0
   70.1941  -17.7473   57.4351 N   0  0  0  0  0  0  0  0  0  0  0  0
   69.6075  -19.8189   58.7085 C   0  0  0  0  0  0  0  0  0  0  0  0
   74.0042  -18.1293   53.2228 C   0  0  0  0  0  0  0  0  0  0  0  0
   70.2113  -19.2245   57.4468 C   0  0  2  0  0  0  0  0  0  0  0  0
   72.4392  -18.0094   56.6741 C   0  0  1  0  0  0  0  0  0  0  0  0
   71.6357  -17.3528   53.9154 C   0  0  2  0  0  0  0  0  0  0  0  0
   70.5597  -17.5452   54.9747 C   0  0  1  0  0  0  0  0  0  0  0  0
   72.8751  -18.2092   54.2909 C   0  0  2  0  0  0  0  0  0  0  0  0
   71.1100  -17.2819   56.3711 C   0  0  1  0  0  0  0  0  0  0  0  0
   75.4949  -16.9352   52.6315 H   0  0  0  0  0  0  0  0  0  0  0  0
   72.6267  -15.7881   53.1103 H   0  0  0  0  0  0  0  0  0  0  0  0
   68.7459  -16.7516   55.3882 H   0  0  0  0  0  0  0  0  0  0  0  0
   70.4997  -17.3983   58.3211 H   0  0  0  0  0  0  0  0  0  0  0  0
   68.6670  -19.4955   58.8123 H   0  0  0  0  0  0  0  0  0  0  0  0
   69.6115  -20.8167   58.6419 H   0  0  0  0  0  0  0  0  0  0  0  0
   70.1468  -19.5356   59.5016 H   0  0  0  0  0  0  0  0  0  0  0  0
   74.6065  -18.9198   53.3338 H   0  0  0  0  0  0  0  0  0  0  0  0
   73.5875  -18.1527   52.3141 H   0  0  0  0  0  0  0  0  0  0  0  0
   69.6482  -19.5308   56.6792 H   0  0  0  0  0  0  0  0  0  0  0  0
   72.8328  -17.6045   57.4994 H   0  0  0  0  0  0  0  0  0  0  0  0
   71.2799  -17.6759   53.0385 H   0  0  0  0  0  0  0  0  0  0  0  0
   70.2227  -18.4856   54.9295 H   0  0  0  0  0  0  0  0  0  0  0  0
   72.5782  -19.1625   54.3460 H   0  0  0  0  0  0  0  0  0  0  0  0
   71.2520  -16.2979   56.4788 H   0  0  0  0  0  0  0  0  0  0  0  0
  1  9  1  0  0  0  0
  1 10  1  0  0  0  0
  2  8  1  0  0  0  0
  3 11  1  0  0  0  0
  4 12  1  0  0  0  0
  5 10  1  0  0  0  0
  5 13  1  0  0  0  0
  6  9  1  0  0  0  0
  6 14  1  0  0  0  0
  7  9  1  0  0  0  0
  8 13  1  0  0  0  0
 10 14  1  0  0  0  0
 11 12  1  0  0  0  0
 11 13  1  0  0  0  0
 12 14  1  0  0  0  0
  2 15  1  0  0  0  0
  3 16  1  0  0  0  0
  4 17  1  0  0  0  0
  6 18  1  0  0  0  0
  7 19  1  0  0  0  0
  7 20  1  0  0  0  0
  7 21  1  0  0  0  0
  8 22  1  0  0  0  0
  8 23  1  0  0  0  0
  9 24  1  0  0  0  0
 10 25  1  0  0  0  0
 11 26  1  0  0  0  0
 12 27  1  0  0  0  0
 13 28  1  0  0  0  0
 14 29  1  0  0  0  0
M  END
> <pdb_id>
5A6K

> <uniprot_id>
C1CH75

> <usmiles>
S1[C@H]2O[C@@H]([C@H](O)[C@H](O)[C@H]2N[C@@H]1C)CO

$$$$
NTQ_A_1201
          07212403553D 1   1.00000     0.00000     0
            
 45 48  0  0  0  0            999 V2000
   36.1667   21.1108  237.1668 F   0  0  0  0  0  0  0  0  0  0  0  0
   37.6959   22.7678  237.7010 F   0  0  0  0  0  0  0  0  0  0  0  0
   43.5245   23.9968  246.7843 O   0  0  0  0  0  0  0  0  0  0  0  0
   40.2407   21.9049  238.6084 O   0  0  0  0  0  0  0  0  0  0  0  0
   39.7795   22.2998  248.9869 N   0  0  0  0  0  0  0  0  0  0  0  0
   38.6970   21.5942  248.5015 N   0  0  0  0  0  0  0  0  0  0  0  0
   41.8024   23.2417  247.9601 N   0  0  0  0  0  0  0  0  0  0  0  0
   39.3778   20.5299  240.1828 N   0  0  0  0  0  0  0  0  0  0  0  0
   37.7224   20.7104  246.4088 C   0  0  0  0  0  0  0  0  0  0  0  0
   40.2258   19.9522  242.4124 C   0  0  0  0  0  0  0  0  0  0  0  0
   39.5888   22.2864  241.7901 C   0  0  0  0  0  0  0  0  0  0  0  0
   40.9116   20.4814  243.6682 C   0  0  0  0  0  0  0  0  0  0  0  0
   40.2603   22.8322  243.0495 C   0  0  0  0  0  0  0  0  0  0  0  0
   41.9463   22.9151  245.5620 C   0  0  0  0  0  0  0  0  0  0  0  0
   38.5694   20.8427  236.4239 C   0  0  0  0  0  0  0  0  0  0  0  0
   42.4598   23.4021  246.7910 C   0  0  0  0  0  0  0  0  0  0  0  0
   39.4568   21.0220  238.9192 C   0  0  0  0  0  0  0  0  0  0  0  0
   40.5835   22.5775  248.0001 C   0  0  0  0  0  0  0  0  0  0  0  0
   38.7914   21.4378  247.1810 C   0  0  0  0  0  0  0  0  0  0  0  0
   40.2238   21.0068  241.2909 C   0  0  0  0  0  0  0  0  0  0  0  0
   40.2046   21.7538  244.1507 C   0  0  0  0  0  0  0  0  0  0  0  0
   40.7457   22.2485  245.4868 C   0  0  0  0  0  0  0  0  0  0  0  0
   39.9790   22.0398  246.7564 C   0  0  0  0  0  0  0  0  0  0  0  0
   38.4994   20.4599  237.9066 C   0  0  1  0  0  0  0  0  0  0  0  0
   37.5079   21.4701  237.3226 C   0  0  0  0  0  0  0  0  0  0  0  0
   39.9235   22.5566  249.9426 H   0  0  0  0  0  0  0  0  0  0  0  0
   42.1970   23.6046  248.8043 H   0  0  0  0  0  0  0  0  0  0  0  0
   38.7120   19.8078  240.3704 H   0  0  0  0  0  0  0  0  0  0  0  0
   37.9650   20.6935  245.4388 H   0  0  0  0  0  0  0  0  0  0  0  0
   37.6444   19.7734  246.7493 H   0  0  0  0  0  0  0  0  0  0  0  0
   36.8480   21.1814  246.5255 H   0  0  0  0  0  0  0  0  0  0  0  0
   39.2811   19.7105  242.6341 H   0  0  0  0  0  0  0  0  0  0  0  0
   40.7120   19.1385  242.0938 H   0  0  0  0  0  0  0  0  0  0  0  0
   39.6534   22.9768  241.0695 H   0  0  0  0  0  0  0  0  0  0  0  0
   38.6265   22.1065  241.9941 H   0  0  0  0  0  0  0  0  0  0  0  0
   41.8671   20.6910  243.4611 H   0  0  0  0  0  0  0  0  0  0  0  0
   40.8708   19.7866  244.3863 H   0  0  0  0  0  0  0  0  0  0  0  0
   39.7790   23.6526  243.3581 H   0  0  0  0  0  0  0  0  0  0  0  0
   41.2134   23.0599  242.8502 H   0  0  0  0  0  0  0  0  0  0  0  0
   42.4732   23.0608  244.7247 H   0  0  0  0  0  0  0  0  0  0  0  0
   38.3033   20.1803  235.7236 H   0  0  0  0  0  0  0  0  0  0  0  0
   39.3298   21.3973  236.0863 H   0  0  0  0  0  0  0  0  0  0  0  0
   41.1554   21.1797  240.9711 H   0  0  0  0  0  0  0  0  0  0  0  0
   39.2416   21.5224  244.2893 H   0  0  0  0  0  0  0  0  0  0  0  0
   38.1322   19.5517  238.1077 H   0  0  0  0  0  0  0  0  0  0  0  0
  1 25  1  0  0  0  0
  2 25  1  0  0  0  0
  3 16  2  0  0  0  0
  4 17  2  0  0  0  0
  5  6  1  0  0  0  0
  5 18  1  0  0  0  0
  6 19  2  0  0  0  0
  7 16  1  0  0  0  0
  7 18  1  0  0  0  0
  8 17  1  0  0  0  0
  8 20  1  0  0  0  0
  9 19  1  0  0  0  0
 10 12  1  0  0  0  0
 10 20  1  0  0  0  0
 11 13  1  0  0  0  0
 11 20  1  0  0  0  0
 12 21  1  0  0  0  0
 13 21  1  0  0  0  0
 14 16  1  0  0  0  0
 14 22  2  0  0  0  0
 15 24  1  0  0  0  0
 15 25  1  0  0  0  0
 17 24  1  0  0  0  0
 18 23  2  0  0  0  0
 19 23  1  0  0  0  0
 21 22  1  0  0  0  0
 22 23  1  0  0  0  0
 24 25  1  0  0  0  0
  5 26  1  0  0  0  0
  7 27  1  0  0  0  0
  8 28  1  0  0  0  0
  9 29  1  0  0  0  0
  9 30  1  0  0  0  0
  9 31  1  0  0  0  0
 10 32  1  0  0  0  0
 10 33  1  0  0  0  0
 11 34  1  0  0  0  0
 11 35  1  0  0  0  0
 12 36  1  0  0  0  0
 12 37  1  0  0  0  0
 13 38  1  0  0  0  0
 13 39  1  0  0  0  0
 14 40  1  0  0  0  0
 15 41  1  0  0  0  0
 15 42  1  0  0  0  0
 20 43  1  0  0  0  0
 21 44  1  0  0  0  0
 24 45  1  0  0  0  0
M  END
> <pdb_id>
6TPF

> <uniprot_id>
P23458

> <usmiles>
FC1(F)[C@H](C(=O)NC2CCC(C=3C4=C(NN=C4C)NC(=O)C3)CC2)C1

$$$$
NTZ_A_1446
          07192418433D 1   1.00000     0.00000     0
            
 24 25  0  0  0  0            999 V2000
   -2.4872    8.0355    8.4969 O   0  0  0  0  0  0  0  0  0  0  0  0
    0.6876   12.8006   10.2830 O   0  0  0  0  0  0  0  0  0  0  0  0
    0.8380   12.1014    7.4350 O   0  0  0  0  0  0  0  0  0  0  0  0
   -1.4905   10.8273    6.4312 O   0  0  0  0  0  0  0  0  0  0  0  0
   -1.9171    9.7617   12.0915 N   0  0  0  0  0  0  0  0  0  0  0  0
   -2.6728    9.7013   10.9311 N   0  0  0  0  0  0  0  0  0  0  0  0
   -0.7481   10.5106   11.8005 N   0  0  0  0  0  0  0  0  0  0  0  0
   -1.9115   10.3832    9.9946 N   0  0  0  0  0  0  0  0  0  0  0  0
   -3.2219    9.2369    8.2206 C   0  0  0  0  0  0  0  0  0  0  0  0
   -0.7687   10.8523   10.4953 C   0  0  0  0  0  0  0  0  0  0  0  0
    0.2571   11.5769    9.6851 C   0  0  1  0  0  0  0  0  0  0  0  0
   -0.2934   11.8449    8.2887 C   0  0  2  0  0  0  0  0  0  0  0  0
   -1.1143   10.6379    7.7838 C   0  0  1  0  0  0  0  0  0  0  0  0
   -2.4141   10.4677    8.6098 C   0  0  2  0  0  0  0  0  0  0  0  0
   -3.0356    7.2416    8.2342 H   0  0  0  0  0  0  0  0  0  0  0  0
    1.3703   13.2362    9.6962 H   0  0  0  0  0  0  0  0  0  0  0  0
    0.5193   12.2830    6.5047 H   0  0  0  0  0  0  0  0  0  0  0  0
   -2.0205   10.0388    6.1191 H   0  0  0  0  0  0  0  0  0  0  0  0
   -4.0750    9.2266    8.7421 H   0  0  0  0  0  0  0  0  0  0  0  0
   -3.4292    9.2767    7.2431 H   0  0  0  0  0  0  0  0  0  0  0  0
    1.0549   10.9810    9.5931 H   0  0  0  0  0  0  0  0  0  0  0  0
   -0.8787   12.6553    8.3141 H   0  0  0  0  0  0  0  0  0  0  0  0
   -0.5627    9.8074    7.8604 H   0  0  0  0  0  0  0  0  0  0  0  0
   -2.9820   11.2848    8.5102 H   0  0  0  0  0  0  0  0  0  0  0  0
  1  9  1  0  0  0  0
  2 11  1  0  0  0  0
  3 12  1  0  0  0  0
  4 13  1  0  0  0  0
  5  6  2  0  0  0  0
  5  7  1  0  0  0  0
  6  8  1  0  0  0  0
  7 10  2  0  0  0  0
  8 10  1  0  0  0  0
  8 14  1  0  0  0  0
  9 14  1  0  0  0  0
 10 11  1  0  0  0  0
 11 12  1  0  0  0  0
 12 13  1  0  0  0  0
 13 14  1  0  0  0  0
  1 15  1  0  0  0  0
  2 16  1  0  0  0  0
  3 17  1  0  0  0  0
  4 18  1  0  0  0  0
  9 19  1  0  0  0  0
  9 20  1  0  0  0  0
 11 21  1  0  0  0  0
 12 22  1  0  0  0  0
 13 23  1  0  0  0  0
 14 24  1  0  0  0  0
M  END
> <pdb_id>
2J7B

> <uniprot_id>
Q08638

> <usmiles>
O[C@@H]1[C@H](N2N=NN=C2[C@H](O)[C@H]1O)CO

$$$$
NU1_A_1202
          07192423423D 1   1.00000     0.00000     0
            
 21 22  0  0  0  0            999 V2000
    7.4740   -9.8861   16.0142 O   0  0  0  0  0  0  0  0  0  0  0  0
    3.1307  -13.6259   14.4949 O   0  0  0  0  0  0  0  0  0  0  0  0
    6.7237  -10.2272   13.9041 N   0  0  0  0  0  0  0  0  0  0  0  0
    4.9716  -11.7974   13.5355 N   0  0  0  0  0  0  0  0  0  0  0  0
    5.8996  -10.6000   11.5413 C   0  0  0  0  0  0  0  0  0  0  0  0
    4.7363  -12.5986   17.6126 C   0  0  0  0  0  0  0  0  0  0  0  0
    3.8879  -13.2541   16.7172 C   0  0  0  0  0  0  0  0  0  0  0  0
    5.6712  -11.6747   17.1378 C   0  0  0  0  0  0  0  0  0  0  0  0
    5.8417  -10.8961   13.0405 C   0  0  0  0  0  0  0  0  0  0  0  0
    6.6849  -10.4782   15.2779 C   0  0  0  0  0  0  0  0  0  0  0  0
    3.9848  -12.9998   15.3465 C   0  0  0  0  0  0  0  0  0  0  0  0
    4.9072  -12.0613   14.8637 C   0  0  0  0  0  0  0  0  0  0  0  0
    5.7607  -11.4021   15.7693 C   0  0  0  0  0  0  0  0  0  0  0  0
    3.1889  -13.4532   13.5116 H   0  0  0  0  0  0  0  0  0  0  0  0
    7.3808   -9.5699   13.5352 H   0  0  0  0  0  0  0  0  0  0  0  0
    5.2142  -11.1515   11.0658 H   0  0  0  0  0  0  0  0  0  0  0  0
    5.7133   -9.6299   11.3857 H   0  0  0  0  0  0  0  0  0  0  0  0
    6.8092  -10.8249   11.1920 H   0  0  0  0  0  0  0  0  0  0  0  0
    4.6747  -12.7902   18.5922 H   0  0  0  0  0  0  0  0  0  0  0  0
    3.2104  -13.9061   17.0575 H   0  0  0  0  0  0  0  0  0  0  0  0
    6.2787  -11.2066   17.7795 H   0  0  0  0  0  0  0  0  0  0  0  0
  1 10  2  0  0  0  0
  2 11  1  0  0  0  0
  3  9  1  0  0  0  0
  3 10  1  0  0  0  0
  4  9  2  0  0  0  0
  4 12  1  0  0  0  0
  5  9  1  0  0  0  0
  6  7  2  0  0  0  0
  6  8  1  0  0  0  0
  7 11  1  0  0  0  0
  8 13  2  0  0  0  0
 10 13  1  0  0  0  0
 11 12  2  0  0  0  0
 12 13  1  0  0  0  0
  2 14  1  0  0  0  0
  3 15  1  0  0  0  0
  5 16  1  0  0  0  0
  5 17  1  0  0  0  0
  5 18  1  0  0  0  0
  6 19  1  0  0  0  0
  7 20  1  0  0  0  0
  8 21  1  0  0  0  0
M  END
> <pdb_id>
4PNM

> <uniprot_id>
Q9H2K2

> <usmiles>
O=C1NC(=Nc2c(O)cccc21)C

$$$$
NU3_A_1351
          07192422523D 1   1.00000     0.00000     0
            
 30 32  0  0  0  0            999 V2000
  -32.9347  -10.4030   -4.6837 O   0  0  0  0  0  0  0  0  0  0  0  0
  -27.9957   -9.3094    4.7527 O   0  0  0  0  0  0  0  0  0  0  0  0
  -32.7084  -10.0629   -2.4508 N   0  0  0  0  0  0  0  0  0  0  0  0
  -27.9010  -10.1605   -1.6998 N   0  0  0  0  0  0  0  0  0  0  0  0
  -30.1158  -10.0419   -1.3308 N   0  0  0  0  0  0  0  0  0  0  0  0
  -28.8068  -10.8511   -5.2505 C   0  0  0  0  0  0  0  0  0  0  0  0
  -27.9487  -10.6518   -4.1807 C   0  0  0  0  0  0  0  0  0  0  0  0
  -29.4495   -9.2225    2.8705 C   0  0  0  0  0  0  0  0  0  0  0  0
  -27.1557   -9.8725    2.5688 C   0  0  0  0  0  0  0  0  0  0  0  0
  -30.1838  -10.7877   -5.0691 C   0  0  0  0  0  0  0  0  0  0  0  0
  -29.6688   -9.3687    1.5097 C   0  0  0  0  0  0  0  0  0  0  0  0
  -27.3778  -10.0063    1.2061 C   0  0  0  0  0  0  0  0  0  0  0  0
  -32.2085  -10.3033   -3.6828 C   0  0  0  0  0  0  0  0  0  0  0  0
  -28.1929   -9.4797    3.4047 C   0  0  0  0  0  0  0  0  0  0  0  0
  -28.9026   -9.9777   -0.7834 C   0  0  0  0  0  0  0  0  0  0  0  0
  -28.5046  -10.3847   -2.9294 C   0  0  0  0  0  0  0  0  0  0  0  0
  -28.6420   -9.7720    0.6595 C   0  0  0  0  0  0  0  0  0  0  0  0
  -29.9140  -10.2983   -2.6875 C   0  0  0  0  0  0  0  0  0  0  0  0
  -30.7264  -10.4917   -3.8146 C   0  0  0  0  0  0  0  0  0  0  0  0
  -27.0975   -9.4901    5.1534 H   0  0  0  0  0  0  0  0  0  0  0  0
  -32.0920   -9.9888   -1.6669 H   0  0  0  0  0  0  0  0  0  0  0  0
  -33.6947   -9.9590   -2.3230 H   0  0  0  0  0  0  0  0  0  0  0  0
  -26.9181  -10.1368   -1.5169 H   0  0  0  0  0  0  0  0  0  0  0  0
  -28.4334  -11.0417   -6.1583 H   0  0  0  0  0  0  0  0  0  0  0  0
  -26.9573  -10.6983   -4.3025 H   0  0  0  0  0  0  0  0  0  0  0  0
  -30.1964   -8.9316    3.4684 H   0  0  0  0  0  0  0  0  0  0  0  0
  -26.2496  -10.0586    2.9489 H   0  0  0  0  0  0  0  0  0  0  0  0
  -30.7929  -10.9555   -5.8442 H   0  0  0  0  0  0  0  0  0  0  0  0
  -30.5763   -9.1821    1.1334 H   0  0  0  0  0  0  0  0  0  0  0  0
  -26.6231  -10.2741    0.6071 H   0  0  0  0  0  0  0  0  0  0  0  0
  1 13  2  0  0  0  0
  2 14  1  0  0  0  0
  3 13  1  0  0  0  0
  4 15  1  0  0  0  0
  4 16  1  0  0  0  0
  5 15  2  0  0  0  0
  5 18  1  0  0  0  0
  6  7  2  0  0  0  0
  6 10  1  0  0  0  0
  7 16  1  0  0  0  0
  8 11  1  0  0  0  0
  8 14  2  0  0  0  0
  9 12  2  0  0  0  0
  9 14  1  0  0  0  0
 10 19  2  0  0  0  0
 11 17  2  0  0  0  0
 12 17  1  0  0  0  0
 13 19  1  0  0  0  0
 15 17  1  0  0  0  0
 16 18  2  0  0  0  0
 18 19  1  0  0  0  0
  2 20  1  0  0  0  0
  3 21  1  0  0  0  0
  3 22  1  0  0  0  0
  4 23  1  0  0  0  0
  6 24  1  0  0  0  0
  7 25  1  0  0  0  0
  8 26  1  0  0  0  0
  9 27  1  0  0  0  0
 10 28  1  0  0  0  0
 11 29  1  0  0  0  0
 12 30  1  0  0  0  0
M  END
> <pdb_id>
4C35

> <uniprot_id>
P00517

> <usmiles>
O=C(N)c1c2N=C(Nc2ccc1)c3ccc(O)cc3

$$$$
NUP_A_1000
          07202408053D 1   1.00000     0.00000     0
            
 36 37  0  0  0  0            999 V2000
   12.1528   13.5312   42.1062 P   0  0  0  0  0  0  0  0  0  0  0  0
   13.3272   12.7764   42.7006 O   0  0  0  0  0  0  0  0  0  0  0  0
   10.8851   13.3748   42.8657 O   0  0  0  0  0  0  0  0  0  0  0  0
   12.4837   14.9991   41.8069 O   0  0  0  0  0  0  0  0  0  0  0  0
   15.1066   10.6497   38.9919 O   0  0  0  0  0  0  0  0  0  0  0  0
   18.5488    9.6024   36.2432 O   0  0  0  0  0  0  0  0  0  0  0  0
   11.8826    8.4301   37.6631 O   0  0  0  0  0  0  0  0  0  0  0  0
   10.2065   10.5019   38.0019 O   0  0  0  0  0  0  0  0  0  0  0  0
   11.7881   12.8270   40.6902 O   0  0  0  0  0  0  0  0  0  0  0  0
   12.9745   11.8593   37.4373 O   0  0  0  0  0  0  0  0  0  0  0  0
   14.2064    9.8611   34.5062 N   0  0  0  0  0  0  0  0  0  0  0  0
   16.7603   10.1130   37.6176 N   0  0  0  0  0  0  0  0  0  0  0  0
   14.5614   10.2192   36.8294 N   0  0  0  0  0  0  0  0  0  0  0  0
   12.8171   12.4873   39.7619 C   0  0  0  0  0  0  0  0  0  0  0  0
   16.3579    9.6375   35.3407 C   0  0  0  0  0  0  0  0  0  0  0  0
   15.4525   10.3598   37.8318 C   0  0  0  0  0  0  0  0  0  0  0  0
   17.2352    9.7720   36.4037 C   0  0  0  0  0  0  0  0  0  0  0  0
   12.4961    9.6544   38.1428 C   0  0  2  0  0  0  0  0  0  0  0  0
   11.4542   10.5935   38.7296 C   0  0  1  0  0  0  0  0  0  0  0  0
   13.1326   10.4849   37.0301 C   0  0  1  0  0  0  0  0  0  0  0  0
   15.0254    9.9312   35.5841 C   0  0  0  0  0  0  0  0  0  0  0  0
   12.0661   11.9820   38.5315 C   0  0  2  0  0  0  0  0  0  0  0  0
   14.1402   12.9287   42.1386 H   0  0  0  0  0  0  0  0  0  0  0  0
   10.1607   13.8977   42.4164 H   0  0  0  0  0  0  0  0  0  0  0  0
   12.5872    7.8310   37.2829 H   0  0  0  0  0  0  0  0  0  0  0  0
    9.5386   11.1272   38.4055 H   0  0  0  0  0  0  0  0  0  0  0  0
   14.5832    9.6466   33.6050 H   0  0  0  0  0  0  0  0  0  0  0  0
   13.2254   10.0237   34.6121 H   0  0  0  0  0  0  0  0  0  0  0  0
   17.3984   10.1852   38.3842 H   0  0  0  0  0  0  0  0  0  0  0  0
   13.4080   11.7718   40.1346 H   0  0  0  0  0  0  0  0  0  0  0  0
   13.3684   13.2902   39.5352 H   0  0  0  0  0  0  0  0  0  0  0  0
   16.6715    9.3418   34.4384 H   0  0  0  0  0  0  0  0  0  0  0  0
   13.1830    9.4377   38.8364 H   0  0  0  0  0  0  0  0  0  0  0  0
   11.3128   10.4036   39.7012 H   0  0  0  0  0  0  0  0  0  0  0  0
   12.6399   10.3308   36.1737 H   0  0  0  0  0  0  0  0  0  0  0  0
   11.3445   12.6319   38.2927 H   0  0  0  0  0  0  0  0  0  0  0  0
  1  2  1  0  0  0  0
  1  3  1  0  0  0  0
  1  4  2  0  0  0  0
  1  9  1  0  0  0  0
  5 16  2  0  0  0  0
  6 17  2  0  0  0  0
  7 18  1  0  0  0  0
  8 19  1  0  0  0  0
  9 14  1  0  0  0  0
 10 20  1  0  0  0  0
 10 22  1  0  0  0  0
 11 21  1  0  0  0  0
 12 16  1  0  0  0  0
 12 17  1  0  0  0  0
 13 16  1  0  0  0  0
 13 20  1  0  0  0  0
 13 21  1  0  0  0  0
 14 22  1  0  0  0  0
 15 17  1  0  0  0  0
 15 21  2  0  0  0  0
 18 19  1  0  0  0  0
 18 20  1  0  0  0  0
 19 22  1  0  0  0  0
  2 23  1  0  0  0  0
  3 24  1  0  0  0  0
  7 25  1  0  0  0  0
  8 26  1  0  0  0  0
 11 27  1  0  0  0  0
 11 28  1  0  0  0  0
 12 29  1  0  0  0  0
 14 30  1  0  0  0  0
 14 31  1  0  0  0  0
 15 32  1  0  0  0  0
 18 33  1  0  0  0  0
 19 34  1  0  0  0  0
 20 35  1  0  0  0  0
 22 36  1  0  0  0  0
M  END
> <pdb_id>
3DBP

> <uniprot_id>
P11172

> <usmiles>
P(=O)(OC[C@H]1O[C@@H](N2C(=O)NC(=O)C=C2N)[C@H](O)[C@@H]1O)(O)O

$$$$
NUP_A_301
          07202402263D 1   1.00000     0.00000     0
            
 36 37  0  0  0  0            999 V2000
   39.0680   34.6993   35.3281 P   0  0  0  0  0  0  0  0  0  0  0  0
   39.1585   33.5591   36.3117 O   0  0  0  0  0  0  0  0  0  0  0  0
   37.8676   34.5891   34.4063 O   0  0  0  0  0  0  0  0  0  0  0  0
   40.3755   34.8849   34.5991 O   0  0  0  0  0  0  0  0  0  0  0  0
   42.1505   38.7371   36.3140 O   0  0  0  0  0  0  0  0  0  0  0  0
   45.6332   40.8784   38.2308 O   0  0  0  0  0  0  0  0  0  0  0  0
   38.9588   41.1790   35.8376 O   0  0  0  0  0  0  0  0  0  0  0  0
   37.3172   39.5133   37.1630 O   0  0  0  0  0  0  0  0  0  0  0  0
   38.7581   36.0371   36.1653 O   0  0  0  0  0  0  0  0  0  0  0  0
   39.9635   38.6517   38.3363 O   0  0  0  0  0  0  0  0  0  0  0  0
   41.3232   41.5411   39.9216 N   0  0  0  0  0  0  0  0  0  0  0  0
   43.8581   39.8534   37.2788 N   0  0  0  0  0  0  0  0  0  0  0  0
   41.6488   40.2283   37.9762 N   0  0  0  0  0  0  0  0  0  0  0  0
   39.8020   36.8571   36.6755 C   0  0  0  0  0  0  0  0  0  0  0  0
   43.4758   41.4363   38.9772 C   0  0  0  0  0  0  0  0  0  0  0  0
   42.5315   39.5494   37.1913 C   0  0  0  0  0  0  0  0  0  0  0  0
   44.3765   40.7751   38.1382 C   0  0  0  0  0  0  0  0  0  0  0  0
   39.5668   39.9940   36.4108 C   0  0  2  0  0  0  0  0  0  0  0  0
   38.4840   38.9439   36.5427 C   0  0  1  0  0  0  0  0  0  0  0  0
   40.1802   39.9746   37.8249 C   0  0  1  0  0  0  0  0  0  0  0  0
   42.1073   41.1275   38.9089 C   0  0  0  0  0  0  0  0  0  0  0  0
   39.0778   37.9155   37.4773 C   0  0  2  0  0  0  0  0  0  0  0  0
   39.9641   33.6820   36.8913 H   0  0  0  0  0  0  0  0  0  0  0  0
   37.8572   35.3672   33.7782 H   0  0  0  0  0  0  0  0  0  0  0  0
   39.6511   41.8936   35.7375 H   0  0  0  0  0  0  0  0  0  0  0  0
   36.6083   38.8129   37.2457 H   0  0  0  0  0  0  0  0  0  0  0  0
   41.6745   42.1959   40.5907 H   0  0  0  0  0  0  0  0  0  0  0  0
   40.3893   41.1934   40.0049 H   0  0  0  0  0  0  0  0  0  0  0  0
   44.4904   39.3694   36.6739 H   0  0  0  0  0  0  0  0  0  0  0  0
   40.3248   37.2714   35.9305 H   0  0  0  0  0  0  0  0  0  0  0  0
   40.4168   36.3273   37.2598 H   0  0  0  0  0  0  0  0  0  0  0  0
   43.8038   42.1258   39.6230 H   0  0  0  0  0  0  0  0  0  0  0  0
   40.2538   39.6543   35.7684 H   0  0  0  0  0  0  0  0  0  0  0  0
   38.2614   38.5404   35.6552 H   0  0  0  0  0  0  0  0  0  0  0  0
   39.6824   40.6250   38.3986 H   0  0  0  0  0  0  0  0  0  0  0  0
   38.3527   37.4923   38.0205 H   0  0  0  0  0  0  0  0  0  0  0  0
  1  2  1  0  0  0  0
  1  3  1  0  0  0  0
  1  4  2  0  0  0  0
  1  9  1  0  0  0  0
  5 16  2  0  0  0  0
  6 17  2  0  0  0  0
  7 18  1  0  0  0  0
  8 19  1  0  0  0  0
  9 14  1  0  0  0  0
 10 20  1  0  0  0  0
 10 22  1  0  0  0  0
 11 21  1  0  0  0  0
 12 16  1  0  0  0  0
 12 17  1  0  0  0  0
 13 16  1  0  0  0  0
 13 20  1  0  0  0  0
 13 21  1  0  0  0  0
 14 22  1  0  0  0  0
 15 17  1  0  0  0  0
 15 21  2  0  0  0  0
 18 19  1  0  0  0  0
 18 20  1  0  0  0  0
 19 22  1  0  0  0  0
  2 23  1  0  0  0  0
  3 24  1  0  0  0  0
  7 25  1  0  0  0  0
  8 26  1  0  0  0  0
 11 27  1  0  0  0  0
 11 28  1  0  0  0  0
 12 29  1  0  0  0  0
 14 30  1  0  0  0  0
 14 31  1  0  0  0  0
 15 32  1  0  0  0  0
 18 33  1  0  0  0  0
 19 34  1  0  0  0  0
 20 35  1  0  0  0  0
 22 36  1  0  0  0  0
M  END
> <pdb_id>
3WJX

> <uniprot_id>
O26232

> <usmiles>
P(=O)(OC[C@H]1O[C@@H](N2C(=O)NC(=O)C=C2N)[C@H](O)[C@@H]1O)(O)O

$$$$
NUP_A_301
          07202400023D 1   1.00000     0.00000     0
            
 36 37  0  0  0  0            999 V2000
   19.0780   34.7420   38.5890 P   0  0  0  0  0  0  0  0  0  0  0  0
   18.9590   33.6230   37.5840 O   0  0  0  0  0  0  0  0  0  0  0  0
   20.2480   34.5930   39.5550 O   0  0  0  0  0  0  0  0  0  0  0  0
   17.7980   34.9560   39.3200 O   0  0  0  0  0  0  0  0  0  0  0  0
   15.9500   38.6870   37.4440 O   0  0  0  0  0  0  0  0  0  0  0  0
   12.6380   41.0790   35.7650 O   0  0  0  0  0  0  0  0  0  0  0  0
   19.0370   41.2410   38.0750 O   0  0  0  0  0  0  0  0  0  0  0  0
   20.7930   39.6810   36.8710 O   0  0  0  0  0  0  0  0  0  0  0  0
   19.4230   36.0370   37.7210 O   0  0  0  0  0  0  0  0  0  0  0  0
   18.1890   38.7840   35.7110 O   0  0  0  0  0  0  0  0  0  0  0  0
   16.9820   42.4450   34.8760 N   0  0  0  0  0  0  0  0  0  0  0  0
   14.3060   39.8820   36.6580 N   0  0  0  0  0  0  0  0  0  0  0  0
   16.5520   40.4350   36.2190 N   0  0  0  0  0  0  0  0  0  0  0  0
   18.3840   36.8360   37.1410 C   0  0  0  0  0  0  0  0  0  0  0  0
   14.7920   41.8240   35.3850 C   0  0  0  0  0  0  0  0  0  0  0  0
   15.6160   39.5900   36.6870 C   0  0  0  0  0  0  0  0  0  0  0  0
   13.8660   40.9200   35.9100 C   0  0  0  0  0  0  0  0  0  0  0  0
   18.5120   39.9650   37.6920 C   0  0  2  0  0  0  0  0  0  0  0  0
   19.6790   38.9970   37.5040 C   0  0  1  0  0  0  0  0  0  0  0  0
   18.0010   40.0750   36.2690 C   0  0  1  0  0  0  0  0  0  0  0  0
   16.1500   41.5220   35.5020 C   0  0  0  0  0  0  0  0  0  0  0  0
   19.1270   38.0210   36.5040 C   0  0  2  0  0  0  0  0  0  0  0  0
   18.1728   33.7912   36.9894 H   0  0  0  0  0  0  0  0  0  0  0  0
   20.2600   35.3686   40.1862 H   0  0  0  0  0  0  0  0  0  0  0  0
   18.2841   41.8867   38.2021 H   0  0  0  0  0  0  0  0  0  0  0  0
   21.5524   39.0414   36.7514 H   0  0  0  0  0  0  0  0  0  0  0  0
   16.5869   43.2126   34.3713 H   0  0  0  0  0  0  0  0  0  0  0  0
   17.9750   42.3408   34.9308 H   0  0  0  0  0  0  0  0  0  0  0  0
   13.6579   39.3344   37.1872 H   0  0  0  0  0  0  0  0  0  0  0  0
   17.7473   37.1535   37.8437 H   0  0  0  0  0  0  0  0  0  0  0  0
   17.8837   36.3175   36.4476 H   0  0  0  0  0  0  0  0  0  0  0  0
   14.4903   42.6656   34.9370 H   0  0  0  0  0  0  0  0  0  0  0  0
   17.8208   39.6220   38.3281 H   0  0  0  0  0  0  0  0  0  0  0  0
   19.9443   38.5530   38.3598 H   0  0  0  0  0  0  0  0  0  0  0  0
   18.5392   40.7488   35.7627 H   0  0  0  0  0  0  0  0  0  0  0  0
   19.8650   37.6822   35.9204 H   0  0  0  0  0  0  0  0  0  0  0  0
  1  2  1  0  0  0  0
  1  3  1  0  0  0  0
  1  4  2  0  0  0  0
  1  9  1  0  0  0  0
  5 16  2  0  0  0  0
  6 17  2  0  0  0  0
  7 18  1  0  0  0  0
  8 19  1  0  0  0  0
  9 14  1  0  0  0  0
 10 20  1  0  0  0  0
 10 22  1  0  0  0  0
 11 21  1  0  0  0  0
 12 16  1  0  0  0  0
 12 17  1  0  0  0  0
 13 16  1  0  0  0  0
 13 20  1  0  0  0  0
 13 21  1  0  0  0  0
 14 22  1  0  0  0  0
 15 17  1  0  0  0  0
 15 21  2  0  0  0  0
 18 19  1  0  0  0  0
 18 20  1  0  0  0  0
 19 22  1  0  0  0  0
  2 23  1  0  0  0  0
  3 24  1  0  0  0  0
  7 25  1  0  0  0  0
  8 26  1  0  0  0  0
 11 27  1  0  0  0  0
 11 28  1  0  0  0  0
 12 29  1  0  0  0  0
 14 30  1  0  0  0  0
 14 31  1  0  0  0  0
 15 32  1  0  0  0  0
 18 33  1  0  0  0  0
 19 34  1  0  0  0  0
 20 35  1  0  0  0  0
 22 36  1  0  0  0  0
M  END
> <pdb_id>
3WJY

> <uniprot_id>
O26232

> <usmiles>
P(=O)(OC[C@H]1O[C@@H](N2C(=O)NC(=O)C=C2N)[C@H](O)[C@@H]1O)(O)O

$$$$
NVS_B_202
          07202405323D 1   1.00000     0.00000     0
            
 33 35  0  0  0  0            999 V2000
  -15.7817   -2.0516   -2.7667 O   0  0  0  0  0  0  0  0  0  0  0  0
  -17.9803   -2.3922    3.6992 O   0  0  0  0  0  0  0  0  0  0  0  0
  -10.3143    0.1285   -4.8865 O   0  0  0  0  0  0  0  0  0  0  0  0
  -16.3023   -2.5848   -0.6763 O   0  0  0  0  0  0  0  0  0  0  0  0
  -14.1219   -1.7787   -1.1672 N   0  0  0  0  0  0  0  0  0  0  0  0
   -9.3314   -0.7334   -5.4772 C   0  0  0  0  0  0  0  0  0  0  0  0
  -13.5939   -2.0701    0.1595 C   0  0  0  0  0  0  0  0  0  0  0  0
  -15.6337   -2.1233    3.3363 C   0  0  0  0  0  0  0  0  0  0  0  0
  -11.5859   -1.7430   -3.9184 C   0  0  0  0  0  0  0  0  0  0  0  0
  -11.8829    0.4929   -3.1329 C   0  0  0  0  0  0  0  0  0  0  0  0
  -12.5487   -2.1829   -3.0003 C   0  0  0  0  0  0  0  0  0  0  0  0
  -12.8336    0.0498   -2.1935 C   0  0  0  0  0  0  0  0  0  0  0  0
  -14.5414   -2.0354    2.4768 C   0  0  0  0  0  0  0  0  0  0  0  0
  -17.1267   -2.4875    1.5104 C   0  0  0  0  0  0  0  0  0  0  0  0
  -15.4036   -2.0964   -1.5907 C   0  0  0  0  0  0  0  0  0  0  0  0
  -16.9098   -2.3422    2.8637 C   0  0  0  0  0  0  0  0  0  0  0  0
  -11.2507   -0.3933   -3.9951 C   0  0  0  0  0  0  0  0  0  0  0  0
  -16.0319   -2.4326    0.6555 C   0  0  0  0  0  0  0  0  0  0  0  0
  -13.1747   -1.2826   -2.1193 C   0  0  0  0  0  0  0  0  0  0  0  0
  -14.7506   -2.2009    1.1264 C   0  0  0  0  0  0  0  0  0  0  0  0
  -18.8957   -2.5524    3.3300 H   0  0  0  0  0  0  0  0  0  0  0  0
   -8.7440   -0.2008   -6.0865 H   0  0  0  0  0  0  0  0  0  0  0  0
   -8.7755   -1.1481   -4.7567 H   0  0  0  0  0  0  0  0  0  0  0  0
   -9.7895   -1.4522   -6.0001 H   0  0  0  0  0  0  0  0  0  0  0  0
  -12.9930   -1.3265    0.4529 H   0  0  0  0  0  0  0  0  0  0  0  0
  -13.0775   -2.9261    0.1353 H   0  0  0  0  0  0  0  0  0  0  0  0
  -15.4886   -2.0252    4.3208 H   0  0  0  0  0  0  0  0  0  0  0  0
  -11.1368   -2.4019   -4.5220 H   0  0  0  0  0  0  0  0  0  0  0  0
  -11.6583    1.4662   -3.1802 H   0  0  0  0  0  0  0  0  0  0  0  0
  -12.7947   -3.1518   -2.9710 H   0  0  0  0  0  0  0  0  0  0  0  0
  -13.2644    0.7074   -1.5755 H   0  0  0  0  0  0  0  0  0  0  0  0
  -13.6245   -1.8558    2.8332 H   0  0  0  0  0  0  0  0  0  0  0  0
  -18.0495   -2.6290    1.1521 H   0  0  0  0  0  0  0  0  0  0  0  0
  1 15  2  0  0  0  0
  2 16  1  0  0  0  0
  3  6  1  0  0  0  0
  3 17  1  0  0  0  0
  4 15  1  0  0  0  0
  4 18  1  0  0  0  0
  5  7  1  0  0  0  0
  5 15  1  0  0  0  0
  5 19  1  0  0  0  0
  7 20  1  0  0  0  0
  8 13  1  0  0  0  0
  8 16  2  0  0  0  0
  9 11  2  0  0  0  0
  9 17  1  0  0  0  0
 10 12  1  0  0  0  0
 10 17  2  0  0  0  0
 11 19  1  0  0  0  0
 12 19  2  0  0  0  0
 13 20  2  0  0  0  0
 14 16  1  0  0  0  0
 14 18  2  0  0  0  0
 18 20  1  0  0  0  0
  2 21  1  0  0  0  0
  6 22  1  0  0  0  0
  6 23  1  0  0  0  0
  6 24  1  0  0  0  0
  7 25  1  0  0  0  0
  7 26  1  0  0  0  0
  8 27  1  0  0  0  0
  9 28  1  0  0  0  0
 10 29  1  0  0  0  0
 11 30  1  0  0  0  0
 12 31  1  0  0  0  0
 13 32  1  0  0  0  0
 14 33  1  0  0  0  0
M  END
> <pdb_id>
5HVT

> <uniprot_id>
P14174

> <usmiles>
O=C1Oc2c(ccc(O)c2)CN1c3ccc(OC)cc3

$$$$
NVU_A_1215
          07202400463D 1   1.00000     0.00000     0
            
 20 21  0  0  0  0            999 V2000
   10.4912   -1.9261   21.8625 O   0  0  0  0  0  0  0  0  0  0  0  0
   11.6606   -2.2363   19.9354 O   0  0  0  0  0  0  0  0  0  0  0  0
   14.2719    1.2784   19.0183 O   0  0  0  0  0  0  0  0  0  0  0  0
   13.7865    0.8717   20.2600 N   0  0  0  0  0  0  0  0  0  0  0  0
   12.3942    0.8717   15.9707 C   0  0  0  0  0  0  0  0  0  0  0  0
   11.2775    0.2781   16.5198 C   0  0  0  0  0  0  0  0  0  0  0  0
   13.4744    1.2541   16.7276 C   0  0  0  0  0  0  0  0  0  0  0  0
   11.1729    0.0295   17.8691 C   0  0  0  0  0  0  0  0  0  0  0  0
   11.7953   -0.1718   21.1703 C   0  0  0  0  0  0  0  0  0  0  0  0
   11.2797   -1.5835   20.9464 C   0  0  0  0  0  0  0  0  0  0  0  0
   13.3431    0.9949   18.0675 C   0  0  0  0  0  0  0  0  0  0  0  0
   12.5789    0.3459   20.0294 C   0  0  0  0  0  0  0  0  0  0  0  0
   12.2470    0.4036   18.6528 C   0  0  0  0  0  0  0  0  0  0  0  0
   10.2838   -1.2914   22.6070 H   0  0  0  0  0  0  0  0  0  0  0  0
   12.4185    1.0299   14.9836 H   0  0  0  0  0  0  0  0  0  0  0  0
   10.5206    0.0204   15.9192 H   0  0  0  0  0  0  0  0  0  0  0  0
   14.2871    1.6846   16.3351 H   0  0  0  0  0  0  0  0  0  0  0  0
   10.3602   -0.4003   18.2625 H   0  0  0  0  0  0  0  0  0  0  0  0
   12.3777   -0.1708   21.9832 H   0  0  0  0  0  0  0  0  0  0  0  0
   11.0131    0.4329   21.3199 H   0  0  0  0  0  0  0  0  0  0  0  0
  1 10  1  0  0  0  0
  2 10  2  0  0  0  0
  3  4  1  0  0  0  0
  3 11  1  0  0  0  0
  4 12  2  0  0  0  0
  5  6  2  0  0  0  0
  5  7  1  0  0  0  0
  6  8  1  0  0  0  0
  7 11  2  0  0  0  0
  8 13  2  0  0  0  0
  9 10  1  0  0  0  0
  9 12  1  0  0  0  0
 11 13  1  0  0  0  0
 12 13  1  0  0  0  0
  1 14  1  0  0  0  0
  5 15  1  0  0  0  0
  6 16  1  0  0  0  0
  7 17  1  0  0  0  0
  8 18  1  0  0  0  0
  9 19  1  0  0  0  0
  9 20  1  0  0  0  0
M  END
> <pdb_id>
4CK2

> <uniprot_id>
Q76353

> <usmiles>
O=C(O)CC1=NOc2c1cccc2

$$$$
NVU_A_402
          07192417023D 1   1.00000     0.00000     0
            
 20 21  0  0  0  0            999 V2000
   -8.2764   39.2944   19.3579 O   0  0  0  0  0  0  0  0  0  0  0  0
   -8.4506   41.4404   19.4278 O   0  0  0  0  0  0  0  0  0  0  0  0
   -4.1315   40.2839   22.3637 O   0  0  0  0  0  0  0  0  0  0  0  0
   -4.3925   40.5626   20.9855 N   0  0  0  0  0  0  0  0  0  0  0  0
   -6.7292   39.0621   24.6217 C   0  0  0  0  0  0  0  0  0  0  0  0
   -7.7382   39.0487   23.6946 C   0  0  0  0  0  0  0  0  0  0  0  0
   -5.4841   39.4750   24.2192 C   0  0  0  0  0  0  0  0  0  0  0  0
   -7.5626   39.4308   22.3811 C   0  0  0  0  0  0  0  0  0  0  0  0
   -6.2581   40.5104   19.4207 C   0  0  0  0  0  0  0  0  0  0  0  0
   -7.7644   40.4045   19.3938 C   0  0  0  0  0  0  0  0  0  0  0  0
   -5.2982   39.8545   22.9206 C   0  0  0  0  0  0  0  0  0  0  0  0
   -5.6891   40.2945   20.7823 C   0  0  0  0  0  0  0  0  0  0  0  0
   -6.3044   39.8409   21.9814 C   0  0  0  0  0  0  0  0  0  0  0  0
   -7.6992   38.4782   19.3311 H   0  0  0  0  0  0  0  0  0  0  0  0
   -6.8959   38.7786   25.5661 H   0  0  0  0  0  0  0  0  0  0  0  0
   -8.6465   38.7471   23.9846 H   0  0  0  0  0  0  0  0  0  0  0  0
   -4.7233   39.4976   24.8678 H   0  0  0  0  0  0  0  0  0  0  0  0
   -8.3255   39.4117   21.7347 H   0  0  0  0  0  0  0  0  0  0  0  0
   -5.9960   41.4226   19.1057 H   0  0  0  0  0  0  0  0  0  0  0  0
   -5.8781   39.8223   18.8026 H   0  0  0  0  0  0  0  0  0  0  0  0
  1 10  1  0  0  0  0
  2 10  2  0  0  0  0
  3  4  1  0  0  0  0
  3 11  1  0  0  0  0
  4 12  2  0  0  0  0
  5  6  2  0  0  0  0
  5  7  1  0  0  0  0
  6  8  1  0  0  0  0
  7 11  2  0  0  0  0
  8 13  2  0  0  0  0
  9 10  1  0  0  0  0
  9 12  1  0  0  0  0
 11 13  1  0  0  0  0
 12 13  1  0  0  0  0
  1 14  1  0  0  0  0
  5 15  1  0  0  0  0
  6 16  1  0  0  0  0
  7 17  1  0  0  0  0
  8 18  1  0  0  0  0
  9 19  1  0  0  0  0
  9 20  1  0  0  0  0
M  END
> <pdb_id>
5I5S

> <uniprot_id>
O15382

> <usmiles>
O=C(O)CC1=NOc2c1cccc2

$$$$
NVX_A_1351
          07192421293D 1   1.00000     0.00000     0
            
 41 44  0  0  0  0            999 V2000
   13.7361   14.5646   -0.0997 Cl  0  0  0  0  0  0  0  0  0  0  0  0
    3.3012   10.5643    4.7055 O   0  0  0  0  0  0  0  0  0  0  0  0
   11.2457   11.6209    3.5535 O   0  0  0  0  0  0  0  0  0  0  0  0
   10.8705    7.2128    3.1215 N   0  0  0  0  0  0  0  0  0  0  0  0
    3.1890   10.2554    2.4458 N   0  0  0  0  0  0  0  0  0  0  0  0
    5.2806    9.7242    1.2649 N   0  0  0  0  0  0  0  0  0  0  0  0
    3.8815    9.9749    1.3195 C   0  0  0  0  0  0  0  0  0  0  0  0
   13.0047   10.9397   -0.8435 C   0  0  0  0  0  0  0  0  0  0  0  0
   11.6184    8.4734    2.8182 C   0  0  0  0  0  0  0  0  0  0  0  0
    9.4915    7.6524    3.4566 C   0  0  0  0  0  0  0  0  0  0  0  0
   13.4776   12.2435   -0.9385 C   0  0  0  0  0  0  0  0  0  0  0  0
   12.2998   10.5682    0.3181 C   0  0  0  0  0  0  0  0  0  0  0  0
    7.4489    9.8746    4.7607 C   0  0  0  0  0  0  0  0  0  0  0  0
    6.0631   10.1412    4.7714 C   0  0  0  0  0  0  0  0  0  0  0  0
   12.4911   12.7313    1.2705 C   0  0  0  0  0  0  0  0  0  0  0  0
    7.3694    9.5022    2.4218 C   0  0  0  0  0  0  0  0  0  0  0  0
   13.1989   13.0978    0.1069 C   0  0  0  0  0  0  0  0  0  0  0  0
    3.9059   10.3406    3.6285 C   0  0  0  0  0  0  0  0  0  0  0  0
   11.2716   10.9739    2.5108 C   0  0  0  0  0  0  0  0  0  0  0  0
    5.9797    9.7729    2.4055 C   0  0  0  0  0  0  0  0  0  0  0  0
   11.9912   11.4240    1.3785 C   0  0  0  0  0  0  0  0  0  0  0  0
    8.1312    9.5906    3.5595 C   0  0  0  0  0  0  0  0  0  0  0  0
    5.2964   10.1120    3.5879 C   0  0  0  0  0  0  0  0  0  0  0  0
   10.5301    9.6009    2.4738 C   0  0  2  0  0  0  0  0  0  0  0  0
    9.5520    9.2722    3.5947 C   0  0  2  0  0  0  0  0  0  0  0  0
   11.2853    6.7363    3.8967 H   0  0  0  0  0  0  0  0  0  0  0  0
    2.1991   10.3957    2.4263 H   0  0  0  0  0  0  0  0  0  0  0  0
    3.3719    9.9411    0.4598 H   0  0  0  0  0  0  0  0  0  0  0  0
   13.1610   10.2825   -1.5808 H   0  0  0  0  0  0  0  0  0  0  0  0
   12.2245    8.3321    2.0354 H   0  0  0  0  0  0  0  0  0  0  0  0
   12.1589    8.7504    3.6126 H   0  0  0  0  0  0  0  0  0  0  0  0
    9.1969    7.2418    4.3195 H   0  0  0  0  0  0  0  0  0  0  0  0
    8.8577    7.3900    2.7290 H   0  0  0  0  0  0  0  0  0  0  0  0
   13.9997   12.5499   -1.7344 H   0  0  0  0  0  0  0  0  0  0  0  0
   11.9966    9.6179    0.3893 H   0  0  0  0  0  0  0  0  0  0  0  0
    7.9571    9.8874    5.6219 H   0  0  0  0  0  0  0  0  0  0  0  0
    5.6140   10.3559    5.6387 H   0  0  0  0  0  0  0  0  0  0  0  0
   12.3476   13.3923    2.0070 H   0  0  0  0  0  0  0  0  0  0  0  0
    7.8148    9.2350    1.5673 H   0  0  0  0  0  0  0  0  0  0  0  0
   10.1170    9.4398    1.5776 H   0  0  0  0  0  0  0  0  0  0  0  0
    9.9416    9.5289    4.4792 H   0  0  0  0  0  0  0  0  0  0  0  0
  1 17  1  0  0  0  0
  2 18  2  0  0  0  0
  3 19  2  0  0  0  0
  4  9  1  0  0  0  0
  4 10  1  0  0  0  0
  5  7  1  0  0  0  0
  5 18  1  0  0  0  0
  6  7  2  0  0  0  0
  6 20  1  0  0  0  0
  8 11  2  0  0  0  0
  8 12  1  0  0  0  0
  9 24  1  0  0  0  0
 10 25  1  0  0  0  0
 11 17  1  0  0  0  0
 12 21  2  0  0  0  0
 13 14  1  0  0  0  0
 13 22  2  0  0  0  0
 14 23  2  0  0  0  0
 15 17  2  0  0  0  0
 15 21  1  0  0  0  0
 16 20  2  0  0  0  0
 16 22  1  0  0  0  0
 18 23  1  0  0  0  0
 19 21  1  0  0  0  0
 19 24  1  0  0  0  0
 20 23  1  0  0  0  0
 22 25  1  0  0  0  0
 24 25  1  0  0  0  0
  4 26  1  0  0  0  0
  5 27  1  0  0  0  0
  7 28  1  0  0  0  0
  8 29  1  0  0  0  0
  9 30  1  0  0  0  0
  9 31  1  0  0  0  0
 10 32  1  0  0  0  0
 10 33  1  0  0  0  0
 11 34  1  0  0  0  0
 12 35  1  0  0  0  0
 13 36  1  0  0  0  0
 14 37  1  0  0  0  0
 15 38  1  0  0  0  0
 16 39  1  0  0  0  0
 24 40  1  0  0  0  0
 25 41  1  0  0  0  0
M  END
> <pdb_id>
4UJ1

> <uniprot_id>
P17612

> <usmiles>
Clc1cc(ccc1)C(=O)[C@@H]2[C@@H](c3cc4N=CNC(=O)c4cc3)CNC2

$$$$
NVX_A_401
          07202403383D 1   1.00000     0.00000     0
            
 41 44  0  0  0  0            999 V2000
   77.8411   95.7068   32.7754 Cl  0  0  0  0  0  0  0  0  0  0  0  0
   75.6878   89.7733   22.1836 O   0  0  0  0  0  0  0  0  0  0  0  0
   77.5131   95.3957   27.3662 O   0  0  0  0  0  0  0  0  0  0  0  0
   73.3617   91.1408   25.2465 N   0  0  0  0  0  0  0  0  0  0  0  0
   74.4077   97.5891   25.2435 N   0  0  0  0  0  0  0  0  0  0  0  0
   73.9275   89.5192   23.6181 N   0  0  0  0  0  0  0  0  0  0  0  0
   73.1734   89.9881   24.6362 C   0  0  0  0  0  0  0  0  0  0  0  0
   74.3972   96.2211   30.8781 C   0  0  0  0  0  0  0  0  0  0  0  0
   75.3534   96.1579   31.8742 C   0  0  0  0  0  0  0  0  0  0  0  0
   74.7516   96.0373   29.5547 C   0  0  0  0  0  0  0  0  0  0  0  0
   76.4919   93.5636   23.9294 C   0  0  0  0  0  0  0  0  0  0  0  0
   76.3382   92.3118   23.3669 C   0  0  0  0  0  0  0  0  0  0  0  0
   77.0435   95.7252   30.2031 C   0  0  0  0  0  0  0  0  0  0  0  0
   74.5890   93.1987   25.3426 C   0  0  0  0  0  0  0  0  0  0  0  0
   74.8194   97.3134   26.6292 C   0  0  0  0  0  0  0  0  0  0  0  0
   74.6284   96.3553   24.4808 C   0  0  0  0  0  0  0  0  0  0  0  0
   76.6583   95.8904   31.5198 C   0  0  0  0  0  0  0  0  0  0  0  0
   75.0201   90.2040   23.1196 C   0  0  0  0  0  0  0  0  0  0  0  0
   76.3815   95.6504   27.7486 C   0  0  0  0  0  0  0  0  0  0  0  0
   74.4219   91.9254   24.7861 C   0  0  0  0  0  0  0  0  0  0  0  0
   76.0760   95.8001   29.2006 C   0  0  0  0  0  0  0  0  0  0  0  0
   75.6069   94.0363   24.8851 C   0  0  0  0  0  0  0  0  0  0  0  0
   75.2832   91.4962   23.7686 C   0  0  0  0  0  0  0  0  0  0  0  0
   75.2597   95.8406   26.7422 C   0  0  2  0  0  0  0  0  0  0  0  0
   75.6455   95.4995   25.2750 C   0  0  2  0  0  0  0  0  0  0  0  0
   73.4462   97.9079   25.1801 H   0  0  0  0  0  0  0  0  0  0  0  0
   73.6942   88.6277   23.1924 H   0  0  0  0  0  0  0  0  0  0  0  0
   72.3433   89.3762   24.9881 H   0  0  0  0  0  0  0  0  0  0  0  0
   73.3595   96.4184   31.1451 H   0  0  0  0  0  0  0  0  0  0  0  0
   75.0946   96.3137   32.9202 H   0  0  0  0  0  0  0  0  0  0  0  0
   73.9788   96.0805   28.7882 H   0  0  0  0  0  0  0  0  0  0  0  0
   77.3307   94.1761   23.6026 H   0  0  0  0  0  0  0  0  0  0  0  0
   77.0388   91.9616   22.6115 H   0  0  0  0  0  0  0  0  0  0  0  0
   78.0872   95.5401   29.9550 H   0  0  0  0  0  0  0  0  0  0  0  0
   73.9148   93.5214   26.1339 H   0  0  0  0  0  0  0  0  0  0  0  0
   75.6420   97.9843   26.8729 H   0  0  0  0  0  0  0  0  0  0  0  0
   74.0513   97.5422   27.3665 H   0  0  0  0  0  0  0  0  0  0  0  0
   74.9934   96.5096   23.4659 H   0  0  0  0  0  0  0  0  0  0  0  0
   73.6728   95.8475   24.3638 H   0  0  0  0  0  0  0  0  0  0  0  0
   74.4089   95.2356   27.0501 H   0  0  0  0  0  0  0  0  0  0  0  0
   76.6467   95.8756   25.0688 H   0  0  0  0  0  0  0  0  0  0  0  0
  1 17  1  0  0  0  0
  2 18  2  0  0  0  0
  3 19  2  0  0  0  0
  4  7  2  0  0  0  0
  4 20  1  0  0  0  0
  5 15  1  0  0  0  0
  5 16  1  0  0  0  0
  5 26  1  0  0  0  0
  6  7  1  0  0  0  0
  6 18  1  0  0  0  0
  6 27  1  0  0  0  0
  7 28  1  0  0  0  0
  8  9  2  0  0  0  0
  8 10  1  0  0  0  0
  8 29  1  0  0  0  0
  9 17  1  0  0  0  0
  9 30  1  0  0  0  0
 10 21  2  0  0  0  0
 10 31  1  0  0  0  0
 11 12  1  0  0  0  0
 11 22  2  0  0  0  0
 11 32  1  0  0  0  0
 12 23  2  0  0  0  0
 12 33  1  0  0  0  0
 13 17  2  0  0  0  0
 13 21  1  0  0  0  0
 13 34  1  0  0  0  0
 14 20  2  0  0  0  0
 14 22  1  0  0  0  0
 14 35  1  0  0  0  0
 15 24  1  0  0  0  0
 15 36  1  0  0  0  0
 15 37  1  0  0  0  0
 16 25  1  0  0  0  0
 16 38  1  0  0  0  0
 16 39  1  0  0  0  0
 18 23  1  0  0  0  0
 19 21  1  0  0  0  0
 19 24  1  0  0  0  0
 20 23  1  0  0  0  0
 22 25  1  0  0  0  0
 24 25  1  0  0  0  0
 24 40  1  0  0  0  0
 25 41  1  0  0  0  0
M  END
> <pdb_id>
4Z84

> <uniprot_id>
P00517

> <usmiles>
Clc1cc(ccc1)C(=O)[C@@H]2[C@@H](c3cc4N=CNC(=O)c4cc3)CNC2

$$$$
NW5_A_307
          07212401303D 1   1.00000     0.00000     0
            
 59 62  0  0  0  0            999 V2000
   39.6433  -19.5680   30.7597 O   0  0  0  0  0  0  0  0  0  0  0  0
   38.5611  -20.7670   29.2691 O   0  0  0  0  0  0  0  0  0  0  0  0
   35.7059  -14.5885   29.2993 O   0  0  0  0  0  0  0  0  0  0  0  0
   41.0407  -21.2381   27.5293 O   0  0  0  0  0  0  0  0  0  0  0  0
   41.1983  -14.7826   22.8703 N   0  0  0  0  0  0  0  0  0  0  0  0
   37.0829  -12.4614   27.0541 N   0  0  0  0  0  0  0  0  0  0  0  0
   43.6378  -15.6394   25.1045 C   0  0  0  0  0  0  0  0  0  0  0  0
   43.5755  -17.3648   23.2583 C   0  0  0  0  0  0  0  0  0  0  0  0
   35.2635  -13.6584   28.2771 C   0  0  0  0  0  0  0  0  0  0  0  0
   41.1710  -20.8652   26.1520 C   0  0  0  0  0  0  0  0  0  0  0  0
   41.8706  -15.5365   23.4413 C   0  0  0  0  0  0  0  0  0  0  0  0
   40.4286  -24.9065   27.3814 C   0  0  0  0  0  0  0  0  0  0  0  0
   40.1734  -25.1519   28.7361 C   0  0  0  0  0  0  0  0  0  0  0  0
   40.7219  -23.6187   26.9374 C   0  0  0  0  0  0  0  0  0  0  0  0
   37.3592  -16.3438   29.3392 C   0  0  0  0  0  0  0  0  0  0  0  0
   40.2693  -24.0988   29.6610 C   0  0  0  0  0  0  0  0  0  0  0  0
   38.3733  -17.0037   28.6456 C   0  0  0  0  0  0  0  0  0  0  0  0
   40.6455  -21.6327   30.1985 C   0  0  0  0  0  0  0  0  0  0  0  0
   39.9760  -18.6894   26.8101 C   0  0  0  0  0  0  0  0  0  0  0  0
   38.1324  -15.5163   26.7390 C   0  0  0  0  0  0  0  0  0  0  0  0
   41.8347  -18.6717   25.2232 C   0  0  0  0  0  0  0  0  0  0  0  0
   40.7091  -16.6167   25.7752 C   0  0  0  0  0  0  0  0  0  0  0  0
   39.5263  -20.6293   30.0106 C   0  0  0  0  0  0  0  0  0  0  0  0
   40.7963  -22.5668   27.8681 C   0  0  0  0  0  0  0  0  0  0  0  0
   36.7458  -15.2843   28.7106 C   0  0  0  0  0  0  0  0  0  0  0  0
   36.2585  -13.6989   27.0931 C   0  0  2  0  0  0  0  0  0  0  0  0
   40.9655  -19.3622   26.0764 C   0  0  0  0  0  0  0  0  0  0  0  0
   40.5275  -22.8054   29.2100 C   0  0  0  0  0  0  0  0  0  0  0  0
   38.7761  -16.5723   27.3688 C   0  0  0  0  0  0  0  0  0  0  0  0
   39.8443  -17.3048   26.6419 C   0  0  0  0  0  0  0  0  0  0  0  0
   37.0991  -14.9051   27.4345 C   0  0  0  0  0  0  0  0  0  0  0  0
   41.7021  -17.3019   25.0434 C   0  0  0  0  0  0  0  0  0  0  0  0
   42.6935  -16.4775   24.1961 C   0  0  0  0  0  0  0  0  0  0  0  0
   40.4353  -19.4656   31.3615 H   0  0  0  0  0  0  0  0  0  0  0  0
   37.7179  -12.5081   26.2830 H   0  0  0  0  0  0  0  0  0  0  0  0
   36.4859  -11.6664   26.9465 H   0  0  0  0  0  0  0  0  0  0  0  0
   43.0911  -15.0641   25.7128 H   0  0  0  0  0  0  0  0  0  0  0  0
   44.2077  -16.2540   25.6499 H   0  0  0  0  0  0  0  0  0  0  0  0
   44.2218  -15.0612   24.5347 H   0  0  0  0  0  0  0  0  0  0  0  0
   42.9851  -17.9123   22.6653 H   0  0  0  0  0  0  0  0  0  0  0  0
   44.1598  -16.7784   22.6974 H   0  0  0  0  0  0  0  0  0  0  0  0
   44.1457  -17.9711   23.8126 H   0  0  0  0  0  0  0  0  0  0  0  0
   35.2317  -12.7337   28.6565 H   0  0  0  0  0  0  0  0  0  0  0  0
   34.3523  -13.9194   27.9582 H   0  0  0  0  0  0  0  0  0  0  0  0
   40.4796  -21.3342   25.6025 H   0  0  0  0  0  0  0  0  0  0  0  0
   42.0821  -21.1044   25.8163 H   0  0  0  0  0  0  0  0  0  0  0  0
   40.4002  -25.6620   26.7269 H   0  0  0  0  0  0  0  0  0  0  0  0
   39.9245  -26.0705   29.0432 H   0  0  0  0  0  0  0  0  0  0  0  0
   40.8781  -23.4438   25.9653 H   0  0  0  0  0  0  0  0  0  0  0  0
   37.0881  -16.6296   30.2583 H   0  0  0  0  0  0  0  0  0  0  0  0
   40.1528  -24.2762   30.6382 H   0  0  0  0  0  0  0  0  0  0  0  0
   38.8207  -17.7951   29.0622 H   0  0  0  0  0  0  0  0  0  0  0  0
   40.6075  -21.9900   31.1317 H   0  0  0  0  0  0  0  0  0  0  0  0
   41.5214  -21.1727   30.0530 H   0  0  0  0  0  0  0  0  0  0  0  0
   39.3785  -19.1871   27.4387 H   0  0  0  0  0  0  0  0  0  0  0  0
   38.4010  -15.2100   25.8258 H   0  0  0  0  0  0  0  0  0  0  0  0
   42.5556  -19.1686   24.7402 H   0  0  0  0  0  0  0  0  0  0  0  0
   40.6197  -15.6257   25.6752 H   0  0  0  0  0  0  0  0  0  0  0  0
   35.7768  -13.8338   26.2272 H   0  0  0  0  0  0  0  0  0  0  0  0
  1 23  1  0  0  0  0
  2 23  2  0  0  0  0
  3  9  1  0  0  0  0
  3 25  1  0  0  0  0
  4 10  1  0  0  0  0
  4 24  1  0  0  0  0
  5 11  3  0  0  0  0
  6 26  1  0  0  0  0
  7 33  1  0  0  0  0
  8 33  1  0  0  0  0
  9 26  1  0  0  0  0
 10 27  1  0  0  0  0
 11 33  1  0  0  0  0
 12 13  2  0  0  0  0
 12 14  1  0  0  0  0
 13 16  1  0  0  0  0
 14 24  2  0  0  0  0
 15 17  2  0  0  0  0
 15 25  1  0  0  0  0
 16 28  2  0  0  0  0
 17 29  1  0  0  0  0
 18 23  1  0  0  0  0
 18 28  1  0  0  0  0
 19 27  1  0  0  0  0
 19 30  2  0  0  0  0
 20 29  2  0  0  0  0
 20 31  1  0  0  0  0
 21 27  2  0  0  0  0
 21 32  1  0  0  0  0
 22 30  1  0  0  0  0
 22 32  2  0  0  0  0
 24 28  1  0  0  0  0
 25 31  2  0  0  0  0
 26 31  1  0  0  0  0
 29 30  1  0  0  0  0
 32 33  1  0  0  0  0
  1 34  1  0  0  0  0
  6 35  1  0  0  0  0
  6 36  1  0  0  0  0
  7 37  1  0  0  0  0
  7 38  1  0  0  0  0
  7 39  1  0  0  0  0
  8 40  1  0  0  0  0
  8 41  1  0  0  0  0
  8 42  1  0  0  0  0
  9 43  1  0  0  0  0
  9 44  1  0  0  0  0
 10 45  1  0  0  0  0
 10 46  1  0  0  0  0
 12 47  1  0  0  0  0
 13 48  1  0  0  0  0
 14 49  1  0  0  0  0
 15 50  1  0  0  0  0
 16 51  1  0  0  0  0
 17 52  1  0  0  0  0
 18 53  1  0  0  0  0
 18 54  1  0  0  0  0
 19 55  1  0  0  0  0
 20 56  1  0  0  0  0
 21 57  1  0  0  0  0
 22 58  1  0  0  0  0
 26 59  1  0  0  0  0
M  END
> <pdb_id>
6TS6

> <uniprot_id>
P03951

> <usmiles>
O=C(O)Cc1c(OCc2cc(c3cc4c(OC[C@H]4N)cc3)cc(c2)C(C#N)(C)C)cccc1

$$$$
NWL_A_400
          07192422273D 1   1.00000     0.00000     0
            
 35 36  0  0  0  0            999 V2000
   36.0475  -19.5789   54.9120 O   0  0  0  0  0  0  0  0  0  0  0  0
   32.5905  -17.0579   56.4536 O   0  0  0  0  0  0  0  0  0  0  0  0
   33.2934  -21.3081   58.2660 N   0  0  0  0  0  0  0  0  0  0  0  0
   31.8596  -19.0101   58.2305 N   0  0  0  0  0  0  0  0  0  0  0  0
   34.3257  -18.2837   55.6671 N   0  0  0  0  0  0  0  0  0  0  0  0
   34.7399  -20.4948   56.5499 N   0  0  0  0  0  0  0  0  0  0  0  0
   32.2495  -18.9705   60.6443 C   0  0  0  0  0  0  0  0  0  0  0  0
   31.9764  -18.1208   59.3976 C   0  0  0  0  0  0  0  0  0  0  0  0
   35.5634  -21.7262   56.5707 C   0  0  0  0  0  0  0  0  0  0  0  0
   34.3557  -24.8812   53.8932 C   0  0  0  0  0  0  0  0  0  0  0  0
   35.0494  -25.1668   55.0635 C   0  0  0  0  0  0  0  0  0  0  0  0
   34.0558  -23.5712   53.5700 C   0  0  0  0  0  0  0  0  0  0  0  0
   35.4270  -24.1348   55.9233 C   0  0  0  0  0  0  0  0  0  0  0  0
   34.4362  -22.5384   54.4256 C   0  0  0  0  0  0  0  0  0  0  0  0
   35.0861  -19.4565   55.6742 C   0  0  0  0  0  0  0  0  0  0  0  0
   33.2332  -18.1168   56.5148 C   0  0  0  0  0  0  0  0  0  0  0  0
   33.6309  -20.3323   57.4133 C   0  0  0  0  0  0  0  0  0  0  0  0
   32.8872  -19.1452   57.3884 C   0  0  0  0  0  0  0  0  0  0  0  0
   35.1128  -22.8123   55.6096 C   0  0  0  0  0  0  0  0  0  0  0  0
   32.5091  -21.1907   58.8751 H   0  0  0  0  0  0  0  0  0  0  0  0
   33.8257  -22.1543   58.2935 H   0  0  0  0  0  0  0  0  0  0  0  0
   31.0107  -19.5132   58.0682 H   0  0  0  0  0  0  0  0  0  0  0  0
   34.5722  -17.5464   55.0381 H   0  0  0  0  0  0  0  0  0  0  0  0
   32.3305  -18.3741   61.4429 H   0  0  0  0  0  0  0  0  0  0  0  0
   31.4949  -19.6119   60.7823 H   0  0  0  0  0  0  0  0  0  0  0  0
   33.1013  -19.4795   60.5206 H   0  0  0  0  0  0  0  0  0  0  0  0
   31.1241  -17.6118   59.5184 H   0  0  0  0  0  0  0  0  0  0  0  0
   32.7306  -17.4794   59.2567 H   0  0  0  0  0  0  0  0  0  0  0  0
   35.5381  -22.1012   57.4974 H   0  0  0  0  0  0  0  0  0  0  0  0
   36.5031  -21.4756   56.3380 H   0  0  0  0  0  0  0  0  0  0  0  0
   34.0738  -25.6234   53.2852 H   0  0  0  0  0  0  0  0  0  0  0  0
   35.2783  -26.1136   55.2895 H   0  0  0  0  0  0  0  0  0  0  0  0
   33.5663  -23.3644   52.7229 H   0  0  0  0  0  0  0  0  0  0  0  0
   35.9236  -24.3435   56.7657 H   0  0  0  0  0  0  0  0  0  0  0  0
   34.2206  -21.5918   54.1859 H   0  0  0  0  0  0  0  0  0  0  0  0
  1 15  2  0  0  0  0
  2 16  2  0  0  0  0
  3 17  1  0  0  0  0
  4  8  1  0  0  0  0
  4 18  1  0  0  0  0
  5 15  1  0  0  0  0
  5 16  1  0  0  0  0
  6  9  1  0  0  0  0
  6 15  1  0  0  0  0
  6 17  1  0  0  0  0
  7  8  1  0  0  0  0
  9 19  1  0  0  0  0
 10 11  2  0  0  0  0
 10 12  1  0  0  0  0
 11 13  1  0  0  0  0
 12 14  2  0  0  0  0
 13 19  2  0  0  0  0
 14 19  1  0  0  0  0
 16 18  1  0  0  0  0
 17 18  2  0  0  0  0
  3 20  1  0  0  0  0
  3 21  1  0  0  0  0
  4 22  1  0  0  0  0
  5 23  1  0  0  0  0
  7 24  1  0  0  0  0
  7 25  1  0  0  0  0
  7 26  1  0  0  0  0
  8 27  1  0  0  0  0
  8 28  1  0  0  0  0
  9 29  1  0  0  0  0
  9 30  1  0  0  0  0
 10 31  1  0  0  0  0
 11 32  1  0  0  0  0
 12 33  1  0  0  0  0
 13 34  1  0  0  0  0
 14 35  1  0  0  0  0
M  END
> <pdb_id>
4B3U

> <uniprot_id>
Q9HU22

> <usmiles>
O=C1N(C(N)=C(NCC)C(=O)N1)Cc2ccccc2

$$$$
NWW_A_601
          07192419313D 1   1.00000     0.00000     0
            
 32 34  0  0  0  0            999 V2000
   12.7347  -20.5427  -13.8916 O   0  0  0  0  0  0  0  0  0  0  0  0
    8.8773  -20.3361  -11.2413 O   0  0  0  0  0  0  0  0  0  0  0  0
   11.0903  -21.1930   -9.9427 O   0  0  0  0  0  0  0  0  0  0  0  0
   12.3413  -19.0921  -11.6348 O   0  0  0  0  0  0  0  0  0  0  0  0
   14.4696  -21.6598  -12.7974 N   0  0  0  0  0  0  0  0  0  0  0  0
    8.7012  -13.3984  -12.9737 N   0  0  0  0  0  0  0  0  0  0  0  0
    9.4772  -13.9933  -10.7523 N   0  0  0  0  0  0  0  0  0  0  0  0
   10.2588  -16.1287  -10.1611 N   0  0  0  0  0  0  0  0  0  0  0  0
    9.4332  -16.4258  -13.5392 N   0  0  0  0  0  0  0  0  0  0  0  0
   10.2264  -17.7881  -12.0214 N   0  0  0  0  0  0  0  0  0  0  0  0
    9.9736  -14.8817   -9.8470 C   0  0  0  0  0  0  0  0  0  0  0  0
    9.8515  -17.6796  -13.3079 C   0  0  0  0  0  0  0  0  0  0  0  0
   13.2585  -20.8433  -12.8269 C   0  0  0  0  0  0  0  0  0  0  0  0
   10.7586  -18.9454  -11.3565 C   0  0  1  0  0  0  0  0  0  0  0  0
   10.2493  -20.1083  -11.8095 C   0  0  1  0  0  0  0  0  0  0  0  0
   11.2473  -21.0831  -11.2533 C   0  0  1  0  0  0  0  0  0  0  0  0
    9.2338  -14.3669  -12.0096 C   0  0  0  0  0  0  0  0  0  0  0  0
   12.6312  -20.3546  -11.5241 C   0  0  2  0  0  0  0  0  0  0  0  0
   10.0502  -16.5844  -11.4317 C   0  0  0  0  0  0  0  0  0  0  0  0
    9.5326  -15.7169  -12.3920 C   0  0  0  0  0  0  0  0  0  0  0  0
    8.5132  -21.2013  -11.5860 H   0  0  0  0  0  0  0  0  0  0  0  0
   11.7580  -21.8433   -9.5804 H   0  0  0  0  0  0  0  0  0  0  0  0
   14.8896  -21.8998  -11.9222 H   0  0  0  0  0  0  0  0  0  0  0  0
   14.8785  -21.9788  -13.6524 H   0  0  0  0  0  0  0  0  0  0  0  0
    8.5191  -13.6794  -13.9160 H   0  0  0  0  0  0  0  0  0  0  0  0
    8.5202  -12.4571  -12.6888 H   0  0  0  0  0  0  0  0  0  0  0  0
   10.1275  -14.5754   -8.9075 H   0  0  0  0  0  0  0  0  0  0  0  0
    9.8799  -18.4155  -13.9843 H   0  0  0  0  0  0  0  0  0  0  0  0
   10.5972  -18.8699  -10.3725 H   0  0  0  0  0  0  0  0  0  0  0  0
   10.2365  -20.1335  -12.8091 H   0  0  0  0  0  0  0  0  0  0  0  0
   11.1970  -21.9708  -11.7109 H   0  0  0  0  0  0  0  0  0  0  0  0
   13.2580  -20.5021  -10.7590 H   0  0  0  0  0  0  0  0  0  0  0  0
  1 13  2  0  0  0  0
  2 15  1  0  0  0  0
  3 16  1  0  0  0  0
  4 14  1  0  0  0  0
  4 18  1  0  0  0  0
  5 13  1  0  0  0  0
  6 17  1  0  0  0  0
  7 11  1  0  0  0  0
  7 17  2  0  0  0  0
  8 11  2  0  0  0  0
  8 19  1  0  0  0  0
  9 12  2  0  0  0  0
  9 20  1  0  0  0  0
 10 12  1  0  0  0  0
 10 14  1  0  0  0  0
 10 19  1  0  0  0  0
 13 18  1  0  0  0  0
 14 15  1  0  0  0  0
 15 16  1  0  0  0  0
 16 18  1  0  0  0  0
 17 20  1  0  0  0  0
 19 20  2  0  0  0  0
  2 21  1  0  0  0  0
  3 22  1  0  0  0  0
  5 23  1  0  0  0  0
  5 24  1  0  0  0  0
  6 25  1  0  0  0  0
  6 26  1  0  0  0  0
 11 27  1  0  0  0  0
 12 28  1  0  0  0  0
 14 29  1  0  0  0  0
 15 30  1  0  0  0  0
 16 31  1  0  0  0  0
 18 32  1  0  0  0  0
M  END
> <pdb_id>
6TTV

> <uniprot_id>
Q86U44

> <usmiles>
O=C(N)[C@H]1O[C@@H](N2c3ncnc(N)c3N=C2)[C@H](O)[C@@H]1O

$$$$
NX5_A_2001
          07202401243D 1   1.00000     0.00000     0
            
 29 30  0  0  0  0            999 V2000
   16.1570   26.9960   55.0690 Cl  0  0  0  0  0  0  0  0  0  0  0  0
   17.7110   25.1090   56.9360 Cl  0  0  0  0  0  0  0  0  0  0  0  0
   19.3910   29.6850   60.4550 S   0  0  0  0  0  0  0  0  0  0  0  0
   22.9540   31.1600   61.4000 O   0  0  0  0  0  0  0  0  0  0  0  0
   21.1760   31.8290   60.3300 O   0  0  0  0  0  0  0  0  0  0  0  0
   17.6880   29.0240   60.4900 C   0  0  0  0  0  0  0  0  0  0  0  0
   19.3230   29.8680   64.5720 C   0  0  0  0  0  0  0  0  0  0  0  0
   20.5140   30.6520   64.8220 C   0  0  0  0  0  0  0  0  0  0  0  0
   16.3100   28.9590   56.9020 C   0  0  0  0  0  0  0  0  0  0  0  0
   18.9160   29.5590   63.2290 C   0  0  0  0  0  0  0  0  0  0  0  0
   16.6590   29.3800   58.2170 C   0  0  0  0  0  0  0  0  0  0  0  0
   21.3400   31.1460   63.7550 C   0  0  0  0  0  0  0  0  0  0  0  0
   17.7080   27.1330   58.7830 C   0  0  0  0  0  0  0  0  0  0  0  0
   16.6590   27.6070   56.5860 C   0  0  0  0  0  0  0  0  0  0  0  0
   17.3540   26.7160   57.4770 C   0  0  0  0  0  0  0  0  0  0  0  0
   19.7460   30.0560   62.1540 C   0  0  0  0  0  0  0  0  0  0  0  0
   21.7200   31.2920   61.3110 C   0  0  0  0  0  0  0  0  0  0  0  0
   17.3360   28.4890   59.1230 C   0  0  0  0  0  0  0  0  0  0  0  0
   20.9190   30.8290   62.4150 C   0  0  0  0  0  0  0  0  0  0  0  0
   23.3532   30.7223   62.2056 H   0  0  0  0  0  0  0  0  0  0  0  0
   17.0508   29.7538   60.7380 H   0  0  0  0  0  0  0  0  0  0  0  0
   17.6289   28.2869   61.1632 H   0  0  0  0  0  0  0  0  0  0  0  0
   18.7775   29.5378   65.3424 H   0  0  0  0  0  0  0  0  0  0  0  0
   20.7699   30.8562   65.7669 H   0  0  0  0  0  0  0  0  0  0  0  0
   15.8549   29.5631   56.2478 H   0  0  0  0  0  0  0  0  0  0  0  0
   18.0925   29.0223   63.0452 H   0  0  0  0  0  0  0  0  0  0  0  0
   16.4308   30.3069   58.5151 H   0  0  0  0  0  0  0  0  0  0  0  0
   22.1648   31.6824   63.9339 H   0  0  0  0  0  0  0  0  0  0  0  0
   18.1824   26.5317   59.4259 H   0  0  0  0  0  0  0  0  0  0  0  0
  1 14  1  0  0  0  0
  2 15  1  0  0  0  0
  3  6  1  0  0  0  0
  3 16  1  0  0  0  0
  4 17  1  0  0  0  0
  5 17  2  0  0  0  0
  6 18  1  0  0  0  0
  7  8  2  0  0  0  0
  7 10  1  0  0  0  0
  8 12  1  0  0  0  0
  9 11  2  0  0  0  0
  9 14  1  0  0  0  0
 10 16  2  0  0  0  0
 11 18  1  0  0  0  0
 12 19  2  0  0  0  0
 13 15  1  0  0  0  0
 13 18  2  0  0  0  0
 14 15  2  0  0  0  0
 16 19  1  0  0  0  0
 17 19  1  0  0  0  0
  4 20  1  0  0  0  0
  6 21  1  0  0  0  0
  6 22  1  0  0  0  0
  7 23  1  0  0  0  0
  8 24  1  0  0  0  0
  9 25  1  0  0  0  0
 10 26  1  0  0  0  0
 11 27  1  0  0  0  0
 12 28  1  0  0  0  0
 13 29  1  0  0  0  0
M  END
> <pdb_id>
3QCK

> <uniprot_id>
P23470

> <usmiles>
Clc1c(Cl)ccc(c1)CSc2c(cccc2)C(=O)O

$$$$
NXY_B_2001
          07202401243D 1   1.00000     0.00000     0
            
 26 27  0  0  0  0            999 V2000
   15.9879   26.9467   55.0766 Cl  0  0  0  0  0  0  0  0  0  0  0  0
   17.5650   25.1793   56.9242 Cl  0  0  0  0  0  0  0  0  0  0  0  0
   18.9639   30.0913   60.5635 S   0  0  0  0  0  0  0  0  0  0  0  0
   20.6438   30.4858   64.6245 S   0  0  0  0  0  0  0  0  0  0  0  0
   22.8412   31.4421   62.6297 O   0  0  0  0  0  0  0  0  0  0  0  0
   21.6716   31.2653   60.7874 O   0  0  0  0  0  0  0  0  0  0  0  0
   19.0389   29.6944   64.6793 C   0  0  0  0  0  0  0  0  0  0  0  0
   17.5371   28.9780   60.5433 C   0  0  0  0  0  0  0  0  0  0  0  0
   18.8403   29.7166   63.3750 C   0  0  0  0  0  0  0  0  0  0  0  0
   16.0062   28.9214   56.9715 C   0  0  0  0  0  0  0  0  0  0  0  0
   16.3966   29.3548   58.2760 C   0  0  0  0  0  0  0  0  0  0  0  0
   17.7100   27.2340   58.7257 C   0  0  0  0  0  0  0  0  0  0  0  0
   16.4594   27.6232   56.6058 C   0  0  0  0  0  0  0  0  0  0  0  0
   17.2695   26.7918   57.4465 C   0  0  0  0  0  0  0  0  0  0  0  0
   19.4226   30.0914   62.2533 C   0  0  0  0  0  0  0  0  0  0  0  0
   21.7930   31.1384   62.0232 C   0  0  0  0  0  0  0  0  0  0  0  0
   17.2190   28.5204   59.1251 C   0  0  0  0  0  0  0  0  0  0  0  0
   20.6693   30.6060   62.8266 C   0  0  0  0  0  0  0  0  0  0  0  0
   22.8970   31.3249   63.6212 H   0  0  0  0  0  0  0  0  0  0  0  0
   18.4838   29.3528   65.4377 H   0  0  0  0  0  0  0  0  0  0  0  0
   16.7433   29.4574   60.9177 H   0  0  0  0  0  0  0  0  0  0  0  0
   17.7394   28.1774   61.1073 H   0  0  0  0  0  0  0  0  0  0  0  0
   17.9487   29.3139   63.1679 H   0  0  0  0  0  0  0  0  0  0  0  0
   15.4548   29.4891   56.3602 H   0  0  0  0  0  0  0  0  0  0  0  0
   16.0966   30.2492   58.6074 H   0  0  0  0  0  0  0  0  0  0  0  0
   18.3169   26.6878   59.3031 H   0  0  0  0  0  0  0  0  0  0  0  0
  1 13  1  0  0  0  0
  2 14  1  0  0  0  0
  3  8  1  0  0  0  0
  3 15  1  0  0  0  0
  4  7  1  0  0  0  0
  4 18  1  0  0  0  0
  5 16  1  0  0  0  0
  6 16  2  0  0  0  0
  7  9  2  0  0  0  0
  8 17  1  0  0  0  0
  9 15  1  0  0  0  0
 10 11  2  0  0  0  0
 10 13  1  0  0  0  0
 11 17  1  0  0  0  0
 12 14  1  0  0  0  0
 12 17  2  0  0  0  0
 13 14  2  0  0  0  0
 15 18  2  0  0  0  0
 16 18  1  0  0  0  0
  5 19  1  0  0  0  0
  7 20  1  0  0  0  0
  8 21  1  0  0  0  0
  8 22  1  0  0  0  0
  9 23  1  0  0  0  0
 10 24  1  0  0  0  0
 11 25  1  0  0  0  0
 12 26  1  0  0  0  0
M  END
> <pdb_id>
3QCE

> <uniprot_id>
P23470

> <usmiles>
Clc1c(Cl)ccc(c1)CSC2=C(SC=C2)C(=O)O

$$$$
NYA_A_1
          07202400393D 1   1.00000     0.00000     0
            
 87 92  0  0  0  0            999 V2000
   17.4421    8.2446   19.3733 O   0  0  0  0  0  0  0  0  0  0  0  0
   15.4132    4.7077   18.0145 O   0  0  0  0  0  0  0  0  0  0  0  0
   11.6872   -1.3933   27.9298 O   0  0  0  0  0  0  0  0  0  0  0  0
   15.3919    1.4857   29.0532 C   0  0  0  0  0  0  0  0  0  0  0  0
   15.1605    7.3049   16.9516 C   0  0  0  0  0  0  0  0  0  0  0  0
   13.6170    3.7028   25.3000 C   0  0  0  0  0  0  0  0  0  0  0  0
   14.3314    6.6632   26.3557 C   0  0  0  0  0  0  0  0  0  0  0  0
   15.5417    6.9281   25.4302 C   0  0  0  0  0  0  0  0  0  0  0  0
   13.6522    1.0298   27.3619 C   0  0  0  0  0  0  0  0  0  0  0  0
   12.3773    0.8698   27.7573 C   0  0  0  0  0  0  0  0  0  0  0  0
   15.5534    6.9187   22.3921 C   0  0  0  0  0  0  0  0  0  0  0  0
   15.8017    5.7114   23.2235 C   0  0  0  0  0  0  0  0  0  0  0  0
   16.1674    2.1197   25.8355 C   0  0  0  0  0  0  0  0  0  0  0  0
   16.5758    3.1868   24.7914 C   0  0  0  0  0  0  0  0  0  0  0  0
   15.2233    8.2255   20.2975 C   0  0  0  0  0  0  0  0  0  0  0  0
   15.5624    5.5897   20.2087 C   0  0  0  0  0  0  0  0  0  0  0  0
    7.7355    2.1101   28.0655 C   0  0  0  0  0  0  0  0  0  0  0  0
    7.2494    0.6465   26.0269 C   0  0  0  0  0  0  0  0  0  0  0  0
    7.1456   -0.3631   28.3534 C   0  0  0  0  0  0  0  0  0  0  0  0
   14.3923    5.3081   27.1358 C   0  0  0  0  0  0  0  0  0  0  0  0
    9.6194    1.4755   26.4856 C   0  0  0  0  0  0  0  0  0  0  0  0
    9.5061    0.4524   28.8262 C   0  0  0  0  0  0  0  0  0  0  0  0
    9.0524   -0.9799   26.7623 C   0  0  0  0  0  0  0  0  0  0  0  0
   16.0709    8.2935   19.0193 C   0  0  2  0  0  0  0  0  0  0  0  0
   16.0425    5.7454   18.7537 C   0  0  2  0  0  0  0  0  0  0  0  0
   14.5423    2.1057   27.9425 C   0  0  2  0  0  0  0  0  0  0  0  0
   11.4331   -0.1814   27.2244 C   0  0  2  0  0  0  0  0  0  0  0  0
   15.4657    6.9022   21.0352 C   0  0  0  0  0  0  0  0  0  0  0  0
    8.1035    1.8417   26.5722 C   0  0  3  0  0  0  0  0  0  0  0  0
    7.9913    0.8216   28.9168 C   0  0  3  0  0  0  0  0  0  0  0  0
    7.5265   -0.6351   26.8641 C   0  0  3  0  0  0  0  0  0  0  0  0
   15.7299    7.1142   18.1625 C   0  0  0  0  0  0  0  0  0  0  0  0
   15.8198    5.7147   24.5785 C   0  0  0  0  0  0  0  0  0  0  0  0
   15.4628    2.9019   26.9742 C   0  0  2  0  0  0  0  0  0  0  0  0
   16.0964    4.4907   25.4511 C   0  0  1  0  0  0  0  0  0  0  0  0
   14.8130    4.1051   26.2260 C   0  0  1  0  0  0  0  0  0  0  0  0
    9.9334    0.1885   27.3359 C   0  0  3  0  0  0  0  0  0  0  0  0
   18.0018    8.2885   18.5457 H   0  0  0  0  0  0  0  0  0  0  0  0
   15.6932    4.7640   17.0562 H   0  0  0  0  0  0  0  0  0  0  0  0
   11.0735   -2.1086   27.5955 H   0  0  0  0  0  0  0  0  0  0  0  0
   15.9870    2.1858   29.4478 H   0  0  0  0  0  0  0  0  0  0  0  0
   14.7933    1.1174   29.7645 H   0  0  0  0  0  0  0  0  0  0  0  0
   15.9508    0.7487   28.6732 H   0  0  0  0  0  0  0  0  0  0  0  0
   14.9317    6.5189   16.3773 H   0  0  0  0  0  0  0  0  0  0  0  0
   14.9680    8.2320   16.6300 H   0  0  0  0  0  0  0  0  0  0  0  0
   13.8881    2.9345   24.7201 H   0  0  0  0  0  0  0  0  0  0  0  0
   12.8347    3.4357   25.8628 H   0  0  0  0  0  0  0  0  0  0  0  0
   13.3639    4.4811   24.7253 H   0  0  0  0  0  0  0  0  0  0  0  0
   13.5037    6.6632   25.7945 H   0  0  0  0  0  0  0  0  0  0  0  0
   14.2812    7.4057   27.0237 H   0  0  0  0  0  0  0  0  0  0  0  0
   16.3462    7.1318   25.9881 H   0  0  0  0  0  0  0  0  0  0  0  0
   15.3405    7.7085   24.8381 H   0  0  0  0  0  0  0  0  0  0  0  0
   14.0232    0.4187   26.6626 H   0  0  0  0  0  0  0  0  0  0  0  0
   12.0281    1.4935   28.4566 H   0  0  0  0  0  0  0  0  0  0  0  0
   15.4443    7.7962   22.8591 H   0  0  0  0  0  0  0  0  0  0  0  0
   15.9653    4.8437   22.7540 H   0  0  0  0  0  0  0  0  0  0  0  0
   16.9756    1.6458   26.1853 H   0  0  0  0  0  0  0  0  0  0  0  0
   15.5411    1.4547   25.4288 H   0  0  0  0  0  0  0  0  0  0  0  0
   16.1157    3.0328   23.9170 H   0  0  0  0  0  0  0  0  0  0  0  0
   17.5658    3.1951   24.6501 H   0  0  0  0  0  0  0  0  0  0  0  0
   14.2557    8.2940   20.0544 H   0  0  0  0  0  0  0  0  0  0  0  0
   15.4710    8.9864   20.8972 H   0  0  0  0  0  0  0  0  0  0  0  0
   16.1997    4.9784   20.6780 H   0  0  0  0  0  0  0  0  0  0  0  0
   14.6538    5.1725   20.1887 H   0  0  0  0  0  0  0  0  0  0  0  0
    6.7701    2.3632   28.1288 H   0  0  0  0  0  0  0  0  0  0  0  0
    8.2996    2.8573   28.4169 H   0  0  0  0  0  0  0  0  0  0  0  0
    7.4911    0.4761   25.0716 H   0  0  0  0  0  0  0  0  0  0  0  0
    6.2786    0.8784   26.0889 H   0  0  0  0  0  0  0  0  0  0  0  0
    6.1743   -0.1318   28.4092 H   0  0  0  0  0  0  0  0  0  0  0  0
    7.3245   -1.1841   28.8955 H   0  0  0  0  0  0  0  0  0  0  0  0
   13.4882    5.1186   27.5189 H   0  0  0  0  0  0  0  0  0  0  0  0
   15.0570    5.3957   27.8778 H   0  0  0  0  0  0  0  0  0  0  0  0
   10.1617    2.2395   26.8351 H   0  0  0  0  0  0  0  0  0  0  0  0
    9.8613    1.3044   25.5305 H   0  0  0  0  0  0  0  0  0  0  0  0
    9.6745   -0.3726   29.3658 H   0  0  0  0  0  0  0  0  0  0  0  0
   10.0493    1.2074   29.1934 H   0  0  0  0  0  0  0  0  0  0  0  0
    9.2907   -1.1283   25.8025 H   0  0  0  0  0  0  0  0  0  0  0  0
    9.2348   -1.8134   27.2838 H   0  0  0  0  0  0  0  0  0  0  0  0
   15.8762    9.1412   18.5258 H   0  0  0  0  0  0  0  0  0  0  0  0
   17.0319    5.6032   18.7262 H   0  0  0  0  0  0  0  0  0  0  0  0
   13.9394    2.7729   28.3800 H   0  0  0  0  0  0  0  0  0  0  0  0
   11.6464   -0.3317   26.2590 H   0  0  0  0  0  0  0  0  0  0  0  0
    7.9230    2.6610   26.0280 H   0  0  0  0  0  0  0  0  0  0  0  0
    7.7415    0.9915   29.8701 H   0  0  0  0  0  0  0  0  0  0  0  0
    6.9831   -1.3957   26.5090 H   0  0  0  0  0  0  0  0  0  0  0  0
   16.1924    3.2875   27.5389 H   0  0  0  0  0  0  0  0  0  0  0  0
   16.7851    4.7546   26.1264 H   0  0  0  0  0  0  0  0  0  0  0  0
  1 24  1  0  0  0  0
  2 25  1  0  0  0  0
  3 27  1  0  0  0  0
  4 26  1  0  0  0  0
  5 32  2  0  0  0  0
  6 36  1  0  0  0  0
  7  8  1  0  0  0  0
  7 20  1  0  0  0  0
  8 33  1  0  0  0  0
  9 10  2  0  0  0  0
  9 26  1  0  0  0  0
 10 27  1  0  0  0  0
 11 12  1  0  0  0  0
 11 28  2  0  0  0  0
 12 33  2  0  0  0  0
 13 14  1  0  0  0  0
 13 34  1  0  0  0  0
 14 35  1  0  0  0  0
 15 24  1  0  0  0  0
 15 28  1  0  0  0  0
 16 25  1  0  0  0  0
 16 28  1  0  0  0  0
 17 29  1  0  0  0  0
 17 30  1  0  0  0  0
 18 29  1  0  0  0  0
 18 31  1  0  0  0  0
 19 30  1  0  0  0  0
 19 31  1  0  0  0  0
 20 36  1  0  0  0  0
 21 29  1  0  0  0  0
 21 37  1  0  0  0  0
 22 30  1  0  0  0  0
 22 37  1  0  0  0  0
 23 31  1  0  0  0  0
 23 37  1  0  0  0  0
 24 32  1  0  0  0  0
 25 32  1  0  0  0  0
 26 34  1  0  0  0  0
 27 37  1  0  0  0  0
 33 35  1  0  0  0  0
 34 36  1  0  0  0  0
 35 36  1  0  0  0  0
  1 38  1  0  0  0  0
  2 39  1  0  0  0  0
  3 40  1  0  0  0  0
  4 41  1  0  0  0  0
  4 42  1  0  0  0  0
  4 43  1  0  0  0  0
  5 44  1  0  0  0  0
  5 45  1  0  0  0  0
  6 46  1  0  0  0  0
  6 47  1  0  0  0  0
  6 48  1  0  0  0  0
  7 49  1  0  0  0  0
  7 50  1  0  0  0  0
  8 51  1  0  0  0  0
  8 52  1  0  0  0  0
  9 53  1  0  0  0  0
 10 54  1  0  0  0  0
 11 55  1  0  0  0  0
 12 56  1  0  0  0  0
 13 57  1  0  0  0  0
 13 58  1  0  0  0  0
 14 59  1  0  0  0  0
 14 60  1  0  0  0  0
 15 61  1  0  0  0  0
 15 62  1  0  0  0  0
 16 63  1  0  0  0  0
 16 64  1  0  0  0  0
 17 65  1  0  0  0  0
 17 66  1  0  0  0  0
 18 67  1  0  0  0  0
 18 68  1  0  0  0  0
 19 69  1  0  0  0  0
 19 70  1  0  0  0  0
 20 71  1  0  0  0  0
 20 72  1  0  0  0  0
 21 73  1  0  0  0  0
 21 74  1  0  0  0  0
 22 75  1  0  0  0  0
 22 76  1  0  0  0  0
 23 77  1  0  0  0  0
 23 78  1  0  0  0  0
 24 79  1  0  0  0  0
 25 80  1  0  0  0  0
 26 81  1  0  0  0  0
 27 82  1  0  0  0  0
 29 83  1  0  0  0  0
 30 84  1  0  0  0  0
 31 85  1  0  0  0  0
 34 86  1  0  0  0  0
 35 87  1  0  0  0  0
M  END
> <pdb_id>
2ZMH

> <uniprot_id>
P13053

> <usmiles>
O[C@H](/C=C/[C@H]([C@@H]1[C@@]2([C@H](/C(=C/C=C3C[C@@H](O)C(=C)[C@H](O)C3)/CCC2)CC1)C)C)C45CC6CC(C4)CC(C5)C6

$$$$
NYE_A_401
          07202413533D 1   1.00000     0.00000     0
            
 23 24  0  0  0  0            999 V2000
   24.3800    4.3260   -4.2010 O   0  0  0  0  0  0  0  0  0  0  0  0
   25.2260    6.3730   -4.4270 O   0  0  0  0  0  0  0  0  0  0  0  0
   23.6220    8.4070   -4.3270 N   0  0  0  0  0  0  0  0  0  0  0  0
   18.5380    6.9440   -1.2970 C   0  0  0  0  0  0  0  0  0  0  0  0
   18.7390    5.5730   -1.2720 C   0  0  0  0  0  0  0  0  0  0  0  0
   19.4720    7.7710   -1.8480 C   0  0  0  0  0  0  0  0  0  0  0  0
   19.8680    5.0260   -1.8170 C   0  0  0  0  0  0  0  0  0  0  0  0
   21.6320    8.0630   -3.0320 C   0  0  0  0  0  0  0  0  0  0  0  0
   22.0270    5.3290   -3.0120 C   0  0  0  0  0  0  0  0  0  0  0  0
   24.2570    5.5370   -4.1020 C   0  0  0  0  0  0  0  0  0  0  0  0
   22.7520    7.5590   -3.6480 C   0  0  0  0  0  0  0  0  0  0  0  0
   20.6470    7.2450   -2.4380 C   0  0  0  0  0  0  0  0  0  0  0  0
   20.8490    5.8480   -2.4260 C   0  0  0  0  0  0  0  0  0  0  0  0
   22.9860    6.1460   -3.5780 C   0  0  0  0  0  0  0  0  0  0  0  0
   26.0320    5.9020   -4.7650 H   0  0  0  0  0  0  0  0  0  0  0  0
   24.4660    8.1030   -4.8000 H   0  0  0  0  0  0  0  0  0  0  0  0
   23.4220    9.3980   -4.3690 H   0  0  0  0  0  0  0  0  0  0  0  0
   17.6120    7.3600   -0.9110 H   0  0  0  0  0  0  0  0  0  0  0  0
   17.9890    4.9300   -0.8140 H   0  0  0  0  0  0  0  0  0  0  0  0
   19.3330    8.8490   -1.8460 H   0  0  0  0  0  0  0  0  0  0  0  0
   20.0380    3.9560   -1.7700 H   0  0  0  0  0  0  0  0  0  0  0  0
   21.4720    9.1380   -2.9840 H   0  0  0  0  0  0  0  0  0  0  0  0
   22.1640    4.2490   -3.0040 H   0  0  0  0  0  0  0  0  0  0  0  0
  1 10  2  0  0  0  0
  2 10  1  0  0  0  0
  2 15  1  0  0  0  0
  3 11  1  0  0  0  0
  3 16  1  0  0  0  0
  3 17  1  0  0  0  0
  4  5  2  0  0  0  0
  4  6  1  0  0  0  0
  4 18  1  0  0  0  0
  5  7  1  0  0  0  0
  5 19  1  0  0  0  0
  6 12  2  0  0  0  0
  6 20  1  0  0  0  0
  7 13  2  0  0  0  0
  7 21  1  0  0  0  0
  8 11  2  0  0  0  0
  8 12  1  0  0  0  0
  8 22  1  0  0  0  0
  9 13  1  0  0  0  0
  9 14  2  0  0  0  0
  9 23  1  0  0  0  0
 10 14  1  0  0  0  0
 11 14  1  0  0  0  0
 12 13  1  0  0  0  0
M  END
> <pdb_id>
6TV3

> <uniprot_id>
O74036

> <usmiles>
O=C(O)c1c(N)cc2c(c1)cccc2

$$$$
NYU_A_901
          07192417253D 1   1.00000     0.00000     0
            
 69 73  0  0  0  0            999 V2000
   24.3094   22.2958   67.7390 O   0  0  0  0  0  0  0  0  0  0  0  0
   28.3459   32.0733   70.7820 O   0  0  0  0  0  0  0  0  0  0  0  0
   29.1541   28.1518   63.8603 O   0  0  0  0  0  0  0  0  0  0  0  0
   30.5444   27.3684   61.1934 N   0  0  0  0  0  0  0  0  0  0  0  0
   29.3348   26.5717   61.3822 C   0  0  0  0  0  0  0  0  0  0  0  0
   30.6333   27.7502   59.7879 C   0  0  0  0  0  0  0  0  0  0  0  0
   27.1240   30.6637   68.6282 C   0  0  0  0  0  0  0  0  0  0  0  0
   30.5177   28.2671   63.4951 C   0  0  0  0  0  0  0  0  0  0  0  0
   30.5376   28.5494   62.0196 C   0  0  0  0  0  0  0  0  0  0  0  0
   26.1748   23.6676   68.3767 C   0  0  0  0  0  0  0  0  0  0  0  0
   27.5139   27.8862   65.5344 C   0  0  0  0  0  0  0  0  0  0  0  0
   29.7997   28.0274   66.1544 C   0  0  0  0  0  0  0  0  0  0  0  0
   25.9694   31.7551   71.2887 C   0  0  0  0  0  0  0  0  0  0  0  0
   27.1637   27.7540   66.8616 C   0  0  0  0  0  0  0  0  0  0  0  0
   29.4292   27.9198   67.4780 C   0  0  0  0  0  0  0  0  0  0  0  0
   23.3998   26.8181   69.1298 C   0  0  0  0  0  0  0  0  0  0  0  0
   26.6219   24.8674   68.8312 C   0  0  0  0  0  0  0  0  0  0  0  0
   23.9119   27.8933   70.0411 C   0  0  0  0  0  0  0  0  0  0  0  0
   24.9483   30.7735   70.6703 C   0  0  0  0  0  0  0  0  0  0  0  0
   23.9536   24.5084   68.4270 C   0  0  0  0  0  0  0  0  0  0  0  0
   28.1395   28.8920   70.1081 C   0  0  0  0  0  0  0  0  0  0  0  0
   24.8253   23.4809   68.1605 C   0  0  0  0  0  0  0  0  0  0  0  0
   28.8357   28.0326   65.1749 C   0  0  0  0  0  0  0  0  0  0  0  0
   27.3501   31.1154   71.0890 C   0  0  1  0  0  0  0  0  0  0  0  0
   28.1125   27.7698   67.8583 C   0  0  0  0  0  0  0  0  0  0  0  0
   24.4100   25.7308   68.8929 C   0  0  0  0  0  0  0  0  0  0  0  0
   25.7699   25.9414   69.0728 C   0  0  0  0  0  0  0  0  0  0  0  0
   25.2749   28.3791   69.5839 C   0  0  2  0  0  0  0  0  0  0  0  0
   27.7467   27.6479   69.3280 C   0  0  2  0  0  0  0  0  0  0  0  0
   26.3015   27.2371   69.6627 C   0  0  2  0  0  0  0  0  0  0  0  0
   25.7800   29.5049   70.4600 C   0  0  1  0  0  0  0  0  0  0  0  0
   27.1428   30.0317   70.0177 C   0  0  1  0  0  0  0  0  0  0  0  0
   23.3243   22.2025   67.5943 H   0  0  0  0  0  0  0  0  0  0  0  0
   29.2253   31.6128   70.6609 H   0  0  0  0  0  0  0  0  0  0  0  0
   29.2597   26.3020   62.3422 H   0  0  0  0  0  0  0  0  0  0  0  0
   28.5349   27.1140   61.1248 H   0  0  0  0  0  0  0  0  0  0  0  0
   29.3815   25.7538   60.8088 H   0  0  0  0  0  0  0  0  0  0  0  0
   31.4578   28.2971   59.6426 H   0  0  0  0  0  0  0  0  0  0  0  0
   30.6748   26.9274   59.2210 H   0  0  0  0  0  0  0  0  0  0  0  0
   29.8283   28.2877   59.5370 H   0  0  0  0  0  0  0  0  0  0  0  0
   26.4567   31.4083   68.6097 H   0  0  0  0  0  0  0  0  0  0  0  0
   28.0317   31.0243   68.4137 H   0  0  0  0  0  0  0  0  0  0  0  0
   26.8712   29.9726   67.9511 H   0  0  0  0  0  0  0  0  0  0  0  0
   31.0018   27.4143   63.6908 H   0  0  0  0  0  0  0  0  0  0  0  0
   30.9481   29.0174   63.9968 H   0  0  0  0  0  0  0  0  0  0  0  0
   29.7257   29.0869   61.7920 H   0  0  0  0  0  0  0  0  0  0  0  0
   31.3585   29.0817   61.8130 H   0  0  0  0  0  0  0  0  0  0  0  0
   26.8202   22.9245   68.2000 H   0  0  0  0  0  0  0  0  0  0  0  0
   26.8048   27.8759   64.8294 H   0  0  0  0  0  0  0  0  0  0  0  0
   30.7660   28.1015   65.9081 H   0  0  0  0  0  0  0  0  0  0  0  0
   25.7830   31.8814   72.2630 H   0  0  0  0  0  0  0  0  0  0  0  0
   25.9261   32.6394   70.8237 H   0  0  0  0  0  0  0  0  0  0  0  0
   26.2000   27.6443   67.1049 H   0  0  0  0  0  0  0  0  0  0  0  0
   30.1370   27.9514   68.1837 H   0  0  0  0  0  0  0  0  0  0  0  0
   23.1610   27.2304   68.2506 H   0  0  0  0  0  0  0  0  0  0  0  0
   22.5832   26.4124   69.5405 H   0  0  0  0  0  0  0  0  0  0  0  0
   27.6009   24.9834   68.9987 H   0  0  0  0  0  0  0  0  0  0  0  0
   23.9877   27.5286   70.9691 H   0  0  0  0  0  0  0  0  0  0  0  0
   23.2710   28.6609   70.0359 H   0  0  0  0  0  0  0  0  0  0  0  0
   24.5956   31.1209   69.8014 H   0  0  0  0  0  0  0  0  0  0  0  0
   24.1865   30.6050   71.2958 H   0  0  0  0  0  0  0  0  0  0  0  0
   22.9736   24.3719   68.2825 H   0  0  0  0  0  0  0  0  0  0  0  0
   29.0178   29.2166   69.7570 H   0  0  0  0  0  0  0  0  0  0  0  0
   28.2382   28.6390   71.0706 H   0  0  0  0  0  0  0  0  0  0  0  0
   27.6083   30.6624   71.9424 H   0  0  0  0  0  0  0  0  0  0  0  0
   25.2106   28.7001   68.6389 H   0  0  0  0  0  0  0  0  0  0  0  0
   28.3233   26.9140   69.6870 H   0  0  0  0  0  0  0  0  0  0  0  0
   26.3440   27.0388   70.6420 H   0  0  0  0  0  0  0  0  0  0  0  0
   25.9171   29.1094   71.3682 H   0  0  0  0  0  0  0  0  0  0  0  0
  1 22  1  0  0  0  0
  2 24  1  0  0  0  0
  3  8  1  0  0  0  0
  3 23  1  0  0  0  0
  4  5  1  0  0  0  0
  4  6  1  0  0  0  0
  4  9  1  0  0  0  0
  7 32  1  0  0  0  0
  8  9  1  0  0  0  0
 10 17  1  0  0  0  0
 10 22  2  0  0  0  0
 11 14  2  0  0  0  0
 11 23  1  0  0  0  0
 12 15  1  0  0  0  0
 12 23  2  0  0  0  0
 13 19  1  0  0  0  0
 13 24  1  0  0  0  0
 14 25  1  0  0  0  0
 15 25  2  0  0  0  0
 16 18  1  0  0  0  0
 16 26  1  0  0  0  0
 17 27  2  0  0  0  0
 18 28  1  0  0  0  0
 19 31  1  0  0  0  0
 20 22  1  0  0  0  0
 20 26  2  0  0  0  0
 21 29  1  0  0  0  0
 21 32  1  0  0  0  0
 24 32  1  0  0  0  0
 25 29  1  0  0  0  0
 26 27  1  0  0  0  0
 27 30  1  0  0  0  0
 28 30  1  0  0  0  0
 28 31  1  0  0  0  0
 29 30  1  0  0  0  0
 31 32  1  0  0  0  0
  1 33  1  0  0  0  0
  2 34  1  0  0  0  0
  5 35  1  0  0  0  0
  5 36  1  0  0  0  0
  5 37  1  0  0  0  0
  6 38  1  0  0  0  0
  6 39  1  0  0  0  0
  6 40  1  0  0  0  0
  7 41  1  0  0  0  0
  7 42  1  0  0  0  0
  7 43  1  0  0  0  0
  8 44  1  0  0  0  0
  8 45  1  0  0  0  0
  9 46  1  0  0  0  0
  9 47  1  0  0  0  0
 10 48  1  0  0  0  0
 11 49  1  0  0  0  0
 12 50  1  0  0  0  0
 13 51  1  0  0  0  0
 13 52  1  0  0  0  0
 14 53  1  0  0  0  0
 15 54  1  0  0  0  0
 16 55  1  0  0  0  0
 16 56  1  0  0  0  0
 17 57  1  0  0  0  0
 18 58  1  0  0  0  0
 18 59  1  0  0  0  0
 19 60  1  0  0  0  0
 19 61  1  0  0  0  0
 20 62  1  0  0  0  0
 21 63  1  0  0  0  0
 21 64  1  0  0  0  0
 24 65  1  0  0  0  0
 28 66  1  0  0  0  0
 29 67  1  0  0  0  0
 30 68  1  0  0  0  0
 31 69  1  0  0  0  0
M  END
> <pdb_id>
7UJ7

> <uniprot_id>
P03372

> <usmiles>
O(c1ccc(cc1)[C@@H]2[C@@H]3c4c(cc(O)cc4)CC[C@H]3[C@H]5[C@@]([C@@H](O)CC5)(C2)C)CCN(C)C

$$$$
NZ9_B_401
          07212402463D 1   1.00000     0.00000     0
            
 24 25  0  0  0  0            999 V2000
   33.8925    8.3183   28.8935 S   0  0  0  0  0  0  0  0  0  0  0  0
   30.3950    7.2640   30.9053 S   0  0  0  0  0  0  0  0  0  0  0  0
   29.5786    6.4547   30.0966 O   0  0  0  0  0  0  0  0  0  0  0  0
   29.7675    8.3878   31.5412 O   0  0  0  0  0  0  0  0  0  0  0  0
   34.2141    5.5458   29.1777 O   0  0  0  0  0  0  0  0  0  0  0  0
   32.1142    4.9434   29.7376 O   0  0  0  0  0  0  0  0  0  0  0  0
   30.9817    6.3178   32.1607 N   0  0  0  0  0  0  0  0  0  0  0  0
   33.0134    9.7048   29.3349 C   0  0  0  0  0  0  0  0  0  0  0  0
   31.8640    9.3735   29.9757 C   0  0  0  0  0  0  0  0  0  0  0  0
   31.7991    7.8287   34.0909 C   0  0  0  0  0  0  0  0  0  0  0  0
   32.1333    6.3980   34.4557 C   0  0  0  0  0  0  0  0  0  0  0  0
   33.0140    5.7622   29.5175 C   0  0  0  0  0  0  0  0  0  0  0  0
   32.7251    7.2806   29.5850 C   0  0  0  0  0  0  0  0  0  0  0  0
   31.6577    7.9660   30.1359 C   0  0  0  0  0  0  0  0  0  0  0  0
   32.0675    6.8140   32.9891 C   0  0  0  0  0  0  0  0  0  0  0  0
   34.8386    6.3131   29.0320 H   0  0  0  0  0  0  0  0  0  0  0  0
   31.2955    5.4595   31.7548 H   0  0  0  0  0  0  0  0  0  0  0  0
   33.3054   10.6426   29.1468 H   0  0  0  0  0  0  0  0  0  0  0  0
   31.2142   10.0567   30.3088 H   0  0  0  0  0  0  0  0  0  0  0  0
   32.4604    8.5570   34.2705 H   0  0  0  0  0  0  0  0  0  0  0  0
   30.8727    8.1768   34.2338 H   0  0  0  0  0  0  0  0  0  0  0  0
   31.4275    5.8018   34.8383 H   0  0  0  0  0  0  0  0  0  0  0  0
   33.0152    6.1820   34.8749 H   0  0  0  0  0  0  0  0  0  0  0  0
   32.9508    6.9043   32.5291 H   0  0  0  0  0  0  0  0  0  0  0  0
  1  8  1  0  0  0  0
  1 13  1  0  0  0  0
  2  3  2  0  0  0  0
  2  4  2  0  0  0  0
  2  7  1  0  0  0  0
  2 14  1  0  0  0  0
  5 12  1  0  0  0  0
  6 12  2  0  0  0  0
  7 15  1  0  0  0  0
  8  9  2  0  0  0  0
  9 14  1  0  0  0  0
 10 11  1  0  0  0  0
 10 15  1  0  0  0  0
 11 15  1  0  0  0  0
 12 13  1  0  0  0  0
 13 14  2  0  0  0  0
  5 16  1  0  0  0  0
  7 17  1  0  0  0  0
  8 18  1  0  0  0  0
  9 19  1  0  0  0  0
 10 20  1  0  0  0  0
 10 21  1  0  0  0  0
 11 22  1  0  0  0  0
 11 23  1  0  0  0  0
 15 24  1  0  0  0  0
M  END
> <pdb_id>
4KZA

> <uniprot_id>
P00811

> <usmiles>
S(=O)(=O)(NC1CC1)C2=C(SC=C2)C(=O)O

$$$$
NZA_A_7001
          07202408433D 1   1.00000     0.00000     0
            
 43 46  0  0  0  0            999 V2000
   12.8742    4.4643   15.8550 Cl  0  0  0  0  0  0  0  0  0  0  0  0
   21.1829    6.7948   10.7633 Cl  0  0  0  0  0  0  0  0  0  0  0  0
   16.4989   10.5412   10.2921 S   0  0  0  0  0  0  0  0  0  0  0  0
   12.8523    8.0565    9.4916 O   0  0  0  0  0  0  0  0  0  0  0  0
   13.5527    9.9416   10.3642 O   0  0  0  0  0  0  0  0  0  0  0  0
   15.4062    6.8285   10.1696 N   0  0  0  0  0  0  0  0  0  0  0  0
   14.3930    5.7628   10.1130 C   0  0  0  0  0  0  0  0  0  0  0  0
   18.8924   11.9059    6.6778 C   0  0  0  0  0  0  0  0  0  0  0  0
   18.3825   10.6077    6.7071 C   0  0  0  0  0  0  0  0  0  0  0  0
   18.6621   12.7647    7.7518 C   0  0  0  0  0  0  0  0  0  0  0  0
   18.8492    5.5069   10.5269 C   0  0  0  0  0  0  0  0  0  0  0  0
   14.4640    5.6217   13.9862 C   0  0  0  0  0  0  0  0  0  0  0  0
   12.5475    4.3784   13.1848 C   0  0  0  0  0  0  0  0  0  0  0  0
   17.6422   10.1605    7.8067 C   0  0  0  0  0  0  0  0  0  0  0  0
   17.9237   12.3207    8.8497 C   0  0  0  0  0  0  0  0  0  0  0  0
   17.4635    5.4366   10.3910 C   0  0  0  0  0  0  0  0  0  0  0  0
   14.7940    5.9160   12.6604 C   0  0  0  0  0  0  0  0  0  0  0  0
   12.8904    4.6705   11.8645 C   0  0  0  0  0  0  0  0  0  0  0  0
   18.7366    7.9338   10.5075 C   0  0  0  0  0  0  0  0  0  0  0  0
   13.3318    4.8478   14.2357 C   0  0  0  0  0  0  0  0  0  0  0  0
   19.4717    6.7498   10.5851 C   0  0  0  0  0  0  0  0  0  0  0  0
   13.7442    8.7617    9.9978 C   0  0  0  0  0  0  0  0  0  0  0  0
   17.4199   11.0188    8.8830 C   0  0  0  0  0  0  0  0  0  0  0  0
   16.3412    8.8019   10.2503 C   0  0  0  0  0  0  0  0  0  0  0  0
   16.7183    6.6119   10.3083 C   0  0  0  0  0  0  0  0  0  0  0  0
   15.1374    8.1310   10.1524 C   0  0  0  0  0  0  0  0  0  0  0  0
   14.0182    5.4425   11.5876 C   0  0  0  0  0  0  0  0  0  0  0  0
   17.3515    7.8565   10.3712 C   0  0  0  0  0  0  0  0  0  0  0  0
   13.0546    7.1173    9.2142 H   0  0  0  0  0  0  0  0  0  0  0  0
   14.7686    4.9507    9.6665 H   0  0  0  0  0  0  0  0  0  0  0  0
   13.5873    6.0768    9.6108 H   0  0  0  0  0  0  0  0  0  0  0  0
   19.4213   12.2195    5.8892 H   0  0  0  0  0  0  0  0  0  0  0  0
   18.5473    9.9923    5.9363 H   0  0  0  0  0  0  0  0  0  0  0  0
   19.0252   13.6963    7.7354 H   0  0  0  0  0  0  0  0  0  0  0  0
   19.3925    4.6692   10.5822 H   0  0  0  0  0  0  0  0  0  0  0  0
   15.0282    5.9592   14.7398 H   0  0  0  0  0  0  0  0  0  0  0  0
   11.7344    3.8292   13.3777 H   0  0  0  0  0  0  0  0  0  0  0  0
   17.2745    9.2306    7.8208 H   0  0  0  0  0  0  0  0  0  0  0  0
   17.7543   12.9388    9.6173 H   0  0  0  0  0  0  0  0  0  0  0  0
   17.0065    4.5479   10.3530 H   0  0  0  0  0  0  0  0  0  0  0  0
   15.6003    6.4762   12.4703 H   0  0  0  0  0  0  0  0  0  0  0  0
   12.3260    4.3254   11.1146 H   0  0  0  0  0  0  0  0  0  0  0  0
   19.1953    8.8214   10.5488 H   0  0  0  0  0  0  0  0  0  0  0  0
  1 20  1  0  0  0  0
  2 21  1  0  0  0  0
  3 23  1  0  0  0  0
  3 24  1  0  0  0  0
  4 22  1  0  0  0  0
  5 22  2  0  0  0  0
  6  7  1  0  0  0  0
  6 25  1  0  0  0  0
  6 26  1  0  0  0  0
  7 27  1  0  0  0  0
  8  9  2  0  0  0  0
  8 10  1  0  0  0  0
  9 14  1  0  0  0  0
 10 15  2  0  0  0  0
 11 16  1  0  0  0  0
 11 21  2  0  0  0  0
 12 17  1  0  0  0  0
 12 20  2  0  0  0  0
 13 18  2  0  0  0  0
 13 20  1  0  0  0  0
 14 23  2  0  0  0  0
 15 23  1  0  0  0  0
 16 25  2  0  0  0  0
 17 27  2  0  0  0  0
 18 27  1  0  0  0  0
 19 21  1  0  0  0  0
 19 28  2  0  0  0  0
 22 26  1  0  0  0  0
 24 26  2  0  0  0  0
 24 28  1  0  0  0  0
 25 28  1  0  0  0  0
  4 29  1  0  0  0  0
  7 30  1  0  0  0  0
  7 31  1  0  0  0  0
  8 32  1  0  0  0  0
  9 33  1  0  0  0  0
 10 34  1  0  0  0  0
 11 35  1  0  0  0  0
 12 36  1  0  0  0  0
 13 37  1  0  0  0  0
 14 38  1  0  0  0  0
 15 39  1  0  0  0  0
 16 40  1  0  0  0  0
 17 41  1  0  0  0  0
 18 42  1  0  0  0  0
 19 43  1  0  0  0  0
M  END
> <pdb_id>
2Q5S

> <uniprot_id>
P37231

> <usmiles>
Clc1cc2c(N(C(C(=O)O)=C2Sc3ccccc3)Cc4ccc(Cl)cc4)cc1

$$$$
NZO_B_504
          07202409083D 1   1.00000     0.00000     0
            
 32 34  0  0  0  0            999 V2000
   14.8781  -66.3332  -42.4416 S   0  0  0  0  0  0  0  0  0  0  0  0
   17.3816  -64.6884  -33.1628 O   0  0  0  0  0  0  0  0  0  0  0  0
   13.2316  -66.8136  -38.9290 O   0  0  0  0  0  0  0  0  0  0  0  0
   19.2338  -63.6821  -32.3428 O   0  0  0  0  0  0  0  0  0  0  0  0
   18.6006  -63.4609  -34.6735 N   0  0  0  0  0  0  0  0  0  0  0  0
   18.0526  -63.3282  -37.0320 N   0  0  0  0  0  0  0  0  0  0  0  0
   16.8578  -64.7140  -35.8368 N   0  0  0  0  0  0  0  0  0  0  0  0
   18.8273  -64.1907  -31.0981 C   0  0  0  0  0  0  0  0  0  0  0  0
   13.9054  -66.6753  -43.7581 C   0  0  0  0  0  0  0  0  0  0  0  0
   12.6217  -66.9022  -43.2234 C   0  0  0  0  0  0  0  0  0  0  0  0
   12.5553  -66.7815  -41.7936 C   0  0  0  0  0  0  0  0  0  0  0  0
   16.8875  -63.7805  -39.2763 C   0  0  0  0  0  0  0  0  0  0  0  0
   15.8721  -64.5269  -39.8754 C   0  0  0  0  0  0  0  0  0  0  0  0
   15.3610  -65.5501  -37.7434 C   0  0  0  0  0  0  0  0  0  0  0  0
   18.3548  -63.9962  -33.3865 C   0  0  0  0  0  0  0  0  0  0  0  0
   17.8523  -63.8331  -35.8170 C   0  0  0  0  0  0  0  0  0  0  0  0
   13.7780  -66.4449  -41.1793 C   0  0  0  0  0  0  0  0  0  0  0  0
   13.9943  -66.2594  -39.6922 C   0  0  0  0  0  0  0  0  0  0  0  0
   17.1404  -63.9191  -37.8882 C   0  0  0  0  0  0  0  0  0  0  0  0
   16.3852  -64.7965  -37.1333 C   0  0  0  0  0  0  0  0  0  0  0  0
   15.1059  -65.4182  -39.1054 C   0  0  0  0  0  0  0  0  0  0  0  0
   19.3348  -62.7904  -34.7801 H   0  0  0  0  0  0  0  0  0  0  0  0
   18.7388  -62.6448  -37.2813 H   0  0  0  0  0  0  0  0  0  0  0  0
   19.4940  -63.9329  -30.3988 H   0  0  0  0  0  0  0  0  0  0  0  0
   17.9321  -63.8137  -30.8602 H   0  0  0  0  0  0  0  0  0  0  0  0
   18.7662  -65.1875  -31.1491 H   0  0  0  0  0  0  0  0  0  0  0  0
   14.1769  -66.7111  -44.7198 H   0  0  0  0  0  0  0  0  0  0  0  0
   11.8280  -67.1271  -43.7886 H   0  0  0  0  0  0  0  0  0  0  0  0
   11.7112  -66.9246  -41.2768 H   0  0  0  0  0  0  0  0  0  0  0  0
   17.4356  -63.1492  -39.8248 H   0  0  0  0  0  0  0  0  0  0  0  0
   15.6895  -64.4274  -40.8535 H   0  0  0  0  0  0  0  0  0  0  0  0
   14.8150  -66.1828  -37.1943 H   0  0  0  0  0  0  0  0  0  0  0  0
  1  9  1  0  0  0  0
  1 17  1  0  0  0  0
  2 15  2  0  0  0  0
  3 18  2  0  0  0  0
  4  8  1  0  0  0  0
  4 15  1  0  0  0  0
  5 15  1  0  0  0  0
  5 16  1  0  0  0  0
  6 16  1  0  0  0  0
  6 19  1  0  0  0  0
  7 16  2  0  0  0  0
  7 20  1  0  0  0  0
  9 10  2  0  0  0  0
 10 11  1  0  0  0  0
 11 17  2  0  0  0  0
 12 13  1  0  0  0  0
 12 19  2  0  0  0  0
 13 21  2  0  0  0  0
 14 20  2  0  0  0  0
 14 21  1  0  0  0  0
 17 18  1  0  0  0  0
 18 21  1  0  0  0  0
 19 20  1  0  0  0  0
  5 22  1  0  0  0  0
  6 23  1  0  0  0  0
  8 24  1  0  0  0  0
  8 25  1  0  0  0  0
  8 26  1  0  0  0  0
  9 27  1  0  0  0  0
 10 28  1  0  0  0  0
 11 29  1  0  0  0  0
 12 30  1  0  0  0  0
 13 31  1  0  0  0  0
 14 32  1  0  0  0  0
M  END
> <pdb_id>
5CA1

> <uniprot_id>
P32882

> <usmiles>
S1C(C(=O)c2cc3N=C(Nc3cc2)NC(=O)OC)=CC=C1

$$$$
O1Z_A_516
          07192421083D 1   1.00000     0.00000     0
            
 46 49  0  0  0  0            999 V2000
    1.6092   27.8183    7.5367 S   0  0  0  0  0  0  0  0  0  0  0  0
   -0.9784   30.1450    9.5512 O   0  0  0  0  0  0  0  0  0  0  0  0
    0.4720   31.5526    7.6087 N   0  0  0  0  0  0  0  0  0  0  0  0
    2.0155   30.1498    6.4642 N   0  0  0  0  0  0  0  0  0  0  0  0
    3.4126   28.4005    5.6028 N   0  0  0  0  0  0  0  0  0  0  0  0
    6.3205   25.1688    6.0349 C   0  0  0  0  0  0  0  0  0  0  0  0
    5.6103   25.6993    7.3071 C   0  0  0  0  0  0  0  0  0  0  0  0
    5.3990   25.2014    4.7888 C   0  0  0  0  0  0  0  0  0  0  0  0
   -1.3900   22.8688   11.2195 C   0  0  0  0  0  0  0  0  0  0  0  0
   -1.3473   22.8813    9.7738 C   0  0  0  0  0  0  0  0  0  0  0  0
    4.9916   27.0982    7.0607 C   0  0  0  0  0  0  0  0  0  0  0  0
    4.7614   26.5964    4.5672 C   0  0  0  0  0  0  0  0  0  0  0  0
   -1.2243   24.0909   11.9764 C   0  0  0  0  0  0  0  0  0  0  0  0
   -1.1366   24.1184    9.0562 C   0  0  0  0  0  0  0  0  0  0  0  0
   -0.6143   27.8138   11.3035 C   0  0  0  0  0  0  0  0  0  0  0  0
   -0.8383   26.5772   12.0120 C   0  0  0  0  0  0  0  0  0  0  0  0
   -0.7424   26.6061    9.1024 C   0  0  0  0  0  0  0  0  0  0  0  0
    2.4183   28.8465    6.4419 C   0  0  0  0  0  0  0  0  0  0  0  0
    0.7032   29.1635    8.0794 C   0  0  0  0  0  0  0  0  0  0  0  0
    1.0377   30.3299    7.3900 C   0  0  0  0  0  0  0  0  0  0  0  0
   -0.3136   29.0193    9.1779 C   0  0  0  0  0  0  0  0  0  0  0  0
    4.0113   27.0779    5.8381 C   0  0  0  0  0  0  0  0  0  0  0  0
   -0.5584   27.8644    9.8451 C   0  0  0  0  0  0  0  0  0  0  0  0
   -1.0101   25.3456   11.2848 C   0  0  0  0  0  0  0  0  0  0  0  0
   -0.9637   25.3602    9.7913 C   0  0  0  0  0  0  0  0  0  0  0  0
   -0.2461   31.6554    8.2970 H   0  0  0  0  0  0  0  0  0  0  0  0
    0.7757   32.3457    7.0807 H   0  0  0  0  0  0  0  0  0  0  0  0
    3.7248   28.9688    4.8416 H   0  0  0  0  0  0  0  0  0  0  0  0
    6.6083   24.2250    6.1973 H   0  0  0  0  0  0  0  0  0  0  0  0
    7.1242   25.7361    5.8553 H   0  0  0  0  0  0  0  0  0  0  0  0
    6.2767   25.7635    8.0500 H   0  0  0  0  0  0  0  0  0  0  0  0
    4.8840   25.0621    7.5649 H   0  0  0  0  0  0  0  0  0  0  0  0
    4.6686   24.5294    4.9110 H   0  0  0  0  0  0  0  0  0  0  0  0
    5.9399   24.9629    3.9822 H   0  0  0  0  0  0  0  0  0  0  0  0
   -1.5359   22.0050   11.7018 H   0  0  0  0  0  0  0  0  0  0  0  0
   -1.4644   22.0274    9.2667 H   0  0  0  0  0  0  0  0  0  0  0  0
    5.7260   27.7521    6.8790 H   0  0  0  0  0  0  0  0  0  0  0  0
    4.4884   27.3805    7.8775 H   0  0  0  0  0  0  0  0  0  0  0  0
    4.1140   26.5423    3.8069 H   0  0  0  0  0  0  0  0  0  0  0  0
    5.4821   27.2531    4.3451 H   0  0  0  0  0  0  0  0  0  0  0  0
   -1.2577   24.0693   12.9756 H   0  0  0  0  0  0  0  0  0  0  0  0
   -1.1100   24.1197    8.0566 H   0  0  0  0  0  0  0  0  0  0  0  0
   -0.4941   28.6587   11.8248 H   0  0  0  0  0  0  0  0  0  0  0  0
   -0.8744   26.5751   13.0113 H   0  0  0  0  0  0  0  0  0  0  0  0
   -0.7133   26.6167    8.1029 H   0  0  0  0  0  0  0  0  0  0  0  0
    3.2758   26.4295    6.0346 H   0  0  0  0  0  0  0  0  0  0  0  0
  1 18  1  0  0  0  0
  1 19  1  0  0  0  0
  2 21  2  0  0  0  0
  3 20  1  0  0  0  0
  4 18  2  0  0  0  0
  4 20  1  0  0  0  0
  5 18  1  0  0  0  0
  5 22  1  0  0  0  0
  6  7  1  0  0  0  0
  6  8  1  0  0  0  0
  7 11  1  0  0  0  0
  8 12  1  0  0  0  0
  9 10  2  0  0  0  0
  9 13  1  0  0  0  0
 10 14  1  0  0  0  0
 11 22  1  0  0  0  0
 12 22  1  0  0  0  0
 13 24  2  0  0  0  0
 14 25  2  0  0  0  0
 15 16  2  0  0  0  0
 15 23  1  0  0  0  0
 16 24  1  0  0  0  0
 17 23  2  0  0  0  0
 17 25  1  0  0  0  0
 19 20  2  0  0  0  0
 19 21  1  0  0  0  0
 21 23  1  0  0  0  0
 24 25  1  0  0  0  0
  3 26  1  0  0  0  0
  3 27  1  0  0  0  0
  5 28  1  0  0  0  0
  6 29  1  0  0  0  0
  6 30  1  0  0  0  0
  7 31  1  0  0  0  0
  7 32  1  0  0  0  0
  8 33  1  0  0  0  0
  8 34  1  0  0  0  0
  9 35  1  0  0  0  0
 10 36  1  0  0  0  0
 11 37  1  0  0  0  0
 11 38  1  0  0  0  0
 12 39  1  0  0  0  0
 12 40  1  0  0  0  0
 13 41  1  0  0  0  0
 14 42  1  0  0  0  0
 15 43  1  0  0  0  0
 16 44  1  0  0  0  0
 17 45  1  0  0  0  0
 22 46  1  0  0  0  0
M  END
> <pdb_id>
3RAH

> <uniprot_id>
P24941

> <usmiles>
S1C(=NC(N)=C1C(=O)c2cc3c(cc2)cccc3)NC4CCCCC4

$$$$
O23_A_901
          07192416223D 1   1.00000     0.00000     0
            
 47 51  0  0  0  0            999 V2000
   34.4176   35.0742   60.9436 S   0  0  0  0  0  0  0  0  0  0  0  0
   40.0834   33.9291   72.5931 O   0  0  0  0  0  0  0  0  0  0  0  0
   34.0852   36.4313   65.5407 N   0  0  0  0  0  0  0  0  0  0  0  0
   33.4391   34.7497   64.0005 N   0  0  0  0  0  0  0  0  0  0  0  0
   34.9217   32.7720   65.7440 N   0  0  0  0  0  0  0  0  0  0  0  0
   38.5749   32.6195   73.5874 N   0  0  0  0  0  0  0  0  0  0  0  0
   35.4384   34.4712   67.0663 N   0  0  0  0  0  0  0  0  0  0  0  0
   35.3949   36.2455   60.1127 C   0  0  0  0  0  0  0  0  0  0  0  0
   34.7420   36.7530   66.6826 C   0  0  0  0  0  0  0  0  0  0  0  0
   32.7964   35.6924   63.1068 C   0  0  0  0  0  0  0  0  0  0  0  0
   35.6691   32.2609   66.7518 C   0  0  0  0  0  0  0  0  0  0  0  0
   35.4170   35.7755   67.4430 C   0  0  0  0  0  0  0  0  0  0  0  0
   35.1946   37.4750   60.7514 C   0  0  0  0  0  0  0  0  0  0  0  0
   34.3100   37.4823   61.8375 C   0  0  0  0  0  0  0  0  0  0  0  0
   39.0840   31.2609   75.5992 C   0  0  0  0  0  0  0  0  0  0  0  0
   40.2784   31.2576   74.6463 C   0  0  0  0  0  0  0  0  0  0  0  0
   37.4502   32.2377   70.8839 C   0  0  0  0  0  0  0  0  0  0  0  0
   38.3107   34.4396   70.3971 C   0  0  0  0  0  0  0  0  0  0  0  0
   36.7258   32.2624   69.6846 C   0  0  0  0  0  0  0  0  0  0  0  0
   37.5904   34.4523   69.1964 C   0  0  0  0  0  0  0  0  0  0  0  0
   39.0261   33.3078   72.5314 C   0  0  0  0  0  0  0  0  0  0  0  0
   33.7778   36.2210   62.0839 C   0  0  0  0  0  0  0  0  0  0  0  0
   34.0802   35.1430   65.1216 C   0  0  0  0  0  0  0  0  0  0  0  0
   34.7930   34.1082   65.9362 C   0  0  0  0  0  0  0  0  0  0  0  0
   39.4129   32.5029   74.7733 C   0  0  0  0  0  0  0  0  0  0  0  0
   35.9869   33.3386   67.5629 C   0  0  0  0  0  0  0  0  0  0  0  0
   38.2421   33.3297   71.2433 C   0  0  0  0  0  0  0  0  0  0  0  0
   36.7804   33.3721   68.8395 C   0  0  0  0  0  0  0  0  0  0  0  0
   33.4065   33.7751   63.7793 H   0  0  0  0  0  0  0  0  0  0  0  0
   37.6722   32.1899   73.5623 H   0  0  0  0  0  0  0  0  0  0  0  0
   35.9885   36.0739   59.3264 H   0  0  0  0  0  0  0  0  0  0  0  0
   34.7478   37.7039   66.9923 H   0  0  0  0  0  0  0  0  0  0  0  0
   32.4366   36.4572   63.6412 H   0  0  0  0  0  0  0  0  0  0  0  0
   32.0446   35.2339   62.6330 H   0  0  0  0  0  0  0  0  0  0  0  0
   35.9357   31.3061   66.8828 H   0  0  0  0  0  0  0  0  0  0  0  0
   35.8913   36.0497   68.2796 H   0  0  0  0  0  0  0  0  0  0  0  0
   35.6597   38.3064   60.4474 H   0  0  0  0  0  0  0  0  0  0  0  0
   34.0876   38.2975   62.3723 H   0  0  0  0  0  0  0  0  0  0  0  0
   39.2326   31.2635   76.5881 H   0  0  0  0  0  0  0  0  0  0  0  0
   38.2716   30.7183   75.3856 H   0  0  0  0  0  0  0  0  0  0  0  0
   40.2483   30.7114   73.8092 H   0  0  0  0  0  0  0  0  0  0  0  0
   41.2092   31.2566   75.0117 H   0  0  0  0  0  0  0  0  0  0  0  0
   37.3998   31.4380   71.4822 H   0  0  0  0  0  0  0  0  0  0  0  0
   38.8749   35.2257   70.6494 H   0  0  0  0  0  0  0  0  0  0  0  0
   36.1630   31.4756   69.4311 H   0  0  0  0  0  0  0  0  0  0  0  0
   37.6567   35.2432   68.5881 H   0  0  0  0  0  0  0  0  0  0  0  0
   39.7726   33.3229   75.2184 H   0  0  0  0  0  0  0  0  0  0  0  0
  1  8  1  0  0  0  0
  1 22  1  0  0  0  0
  2 21  2  0  0  0  0
  3  9  1  0  0  0  0
  3 23  2  0  0  0  0
  4 10  1  0  0  0  0
  4 23  1  0  0  0  0
  5 11  1  0  0  0  0
  5 24  2  0  0  0  0
  6 21  1  0  0  0  0
  6 25  1  0  0  0  0
  7 12  1  0  0  0  0
  7 24  1  0  0  0  0
  7 26  1  0  0  0  0
  8 13  2  0  0  0  0
  9 12  2  0  0  0  0
 10 22  1  0  0  0  0
 11 26  2  0  0  0  0
 13 14  1  0  0  0  0
 14 22  2  0  0  0  0
 15 16  1  0  0  0  0
 15 25  1  0  0  0  0
 16 25  1  0  0  0  0
 17 19  1  0  0  0  0
 17 27  2  0  0  0  0
 18 20  2  0  0  0  0
 18 27  1  0  0  0  0
 19 28  2  0  0  0  0
 20 28  1  0  0  0  0
 21 27  1  0  0  0  0
 23 24  1  0  0  0  0
 26 28  1  0  0  0  0
  4 29  1  0  0  0  0
  6 30  1  0  0  0  0
  8 31  1  0  0  0  0
  9 32  1  0  0  0  0
 10 33  1  0  0  0  0
 10 34  1  0  0  0  0
 11 35  1  0  0  0  0
 12 36  1  0  0  0  0
 13 37  1  0  0  0  0
 14 38  1  0  0  0  0
 15 39  1  0  0  0  0
 15 40  1  0  0  0  0
 16 41  1  0  0  0  0
 16 42  1  0  0  0  0
 17 43  1  0  0  0  0
 18 44  1  0  0  0  0
 19 45  1  0  0  0  0
 20 46  1  0  0  0  0
 25 47  1  0  0  0  0
M  END
> <pdb_id>
3WZK

> <uniprot_id>
P33981

> <usmiles>
S1C(=CC=C1)CNC2=NC=CN3C2=NC=C3c4ccc(cc4)C(=O)NC5CC5

$$$$
O2U_A_502
          07202411093D 1   1.00000     0.00000     0
            
 19 19  0  0  0  0            999 V2000
   11.0997  -11.1873  -23.8142 O   0  0  0  0  0  0  0  0  0  0  0  0
    5.0230  -13.8274  -21.4576 O   0  0  0  0  0  0  0  0  0  0  0  0
    6.8742  -14.2704  -20.3060 O   0  0  0  0  0  0  0  0  0  0  0  0
   11.3111  -11.5479  -21.0025 O   0  0  0  0  0  0  0  0  0  0  0  0
    8.7629  -12.2963  -24.5511 O   0  0  0  0  0  0  0  0  0  0  0  0
   10.2114  -11.7957  -22.9350 N   0  0  0  0  0  0  0  0  0  0  0  0
    7.0001  -13.1852  -22.4453 C   0  0  0  0  0  0  0  0  0  0  0  0
    9.1701  -12.5677  -21.0319 C   0  0  0  0  0  0  0  0  0  0  0  0
    6.2621  -13.8446  -21.2899 C   0  0  0  0  0  0  0  0  0  0  0  0
   10.3296  -11.9699  -21.6202 C   0  0  0  0  0  0  0  0  0  0  0  0
    9.0924  -12.3222  -23.3661 C   0  0  0  0  0  0  0  0  0  0  0  0
    8.4667  -13.0666  -22.2973 C   0  0  2  0  0  0  0  0  0  0  0  0
    6.5951  -12.1804  -22.5680 H   0  0  0  0  0  0  0  0  0  0  0  0
    6.8022  -13.7693  -23.3444 H   0  0  0  0  0  0  0  0  0  0  0  0
    8.5664  -11.8385  -20.4922 H   0  0  0  0  0  0  0  0  0  0  0  0
    9.4326  -13.3884  -20.3640 H   0  0  0  0  0  0  0  0  0  0  0  0
    8.7020  -14.1306  -22.2693 H   0  0  0  0  0  0  0  0  0  0  0  0
   10.7230  -11.2139  -24.7402 H   0  0  0  0  0  0  0  0  0  0  0  0
    4.6379  -13.4551  -22.3020 H   0  0  0  0  0  0  0  0  0  0  0  0
  1  6  1  0  0  0  0
  2  9  1  0  0  0  0
  3  9  2  0  0  0  0
  4 10  2  0  0  0  0
  5 11  2  0  0  0  0
  6 10  1  0  0  0  0
  6 11  1  0  0  0  0
  7  9  1  0  0  0  0
  7 12  1  0  0  0  0
  7 13  1  0  0  0  0
  7 14  1  0  0  0  0
  8 10  1  0  0  0  0
  8 12  1  0  0  0  0
  8 15  1  0  0  0  0
  8 16  1  0  0  0  0
 11 12  1  0  0  0  0
 12 17  1  0  0  0  0
  1 18  1  0  0  0  0
  2 19  1  0  0  0  0
M  END
> <pdb_id>
7UQ3

> <uniprot_id>
Q8N371

> <usmiles>
O=C(O)C[C@H]1C(=O)N(O)C(=O)C1

$$$$
O2Y_A_703
          07212403223D 1   1.00000     0.00000     0
            
 21 21  0  0  0  0            999 V2000
    2.5240   -4.7390    9.6500 S   0  0  0  0  0  0  0  0  0  0  0  0
    3.8800   -7.5850    7.8020 O   0  0  0  0  0  0  0  0  0  0  0  0
    4.7540   -6.7750    9.6640 O   0  0  0  0  0  0  0  0  0  0  0  0
    2.5630   -2.1500   10.2870 O   0  0  0  0  0  0  0  0  0  0  0  0
    0.8860   -0.6880   10.5380 O   0  0  0  0  0  0  0  0  0  0  0  0
   -0.9210   -2.5830   10.1070 N   0  0  0  0  0  0  0  0  0  0  0  0
    2.4150   -6.5080    9.1570 C   0  0  0  0  0  0  0  0  0  0  0  0
   -1.8640   -3.5040    9.9190 C   0  0  0  0  0  0  0  0  0  0  0  0
   -1.5260   -4.8210    9.6640 C   0  0  0  0  0  0  0  0  0  0  0  0
   -0.1940   -5.1860    9.5640 C   0  0  0  0  0  0  0  0  0  0  0  0
    3.7870   -7.0330    8.8750 C   0  0  0  0  0  0  0  0  0  0  0  0
    1.3250   -1.8650   10.2850 C   0  0  0  0  0  0  0  0  0  0  0  0
    0.7940   -4.2420    9.7580 C   0  0  0  0  0  0  0  0  0  0  0  0
    0.4080   -2.9090   10.0590 C   0  0  0  0  0  0  0  0  0  0  0  0
    3.0619   -7.7454    7.2497 H   0  0  0  0  0  0  0  0  0  0  0  0
    2.8617   -3.0825   10.0838 H   0  0  0  0  0  0  0  0  0  0  0  0
    1.8511   -6.5908    8.3353 H   0  0  0  0  0  0  0  0  0  0  0  0
    2.0022   -7.0360    9.8992 H   0  0  0  0  0  0  0  0  0  0  0  0
   -2.8277   -3.2407    9.9626 H   0  0  0  0  0  0  0  0  0  0  0  0
   -2.2431   -5.5089    9.5520 H   0  0  0  0  0  0  0  0  0  0  0  0
    0.0516   -6.1318    9.3516 H   0  0  0  0  0  0  0  0  0  0  0  0
  1  7  1  0  0  0  0
  1 13  1  0  0  0  0
  2 11  1  0  0  0  0
  3 11  2  0  0  0  0
  4 12  1  0  0  0  0
  5 12  2  0  0  0  0
  6  8  1  0  0  0  0
  6 14  2  0  0  0  0
  7 11  1  0  0  0  0
  8  9  2  0  0  0  0
  9 10  1  0  0  0  0
 10 13  2  0  0  0  0
 12 14  1  0  0  0  0
 13 14  1  0  0  0  0
  2 15  1  0  0  0  0
  4 16  1  0  0  0  0
  7 17  1  0  0  0  0
  7 18  1  0  0  0  0
  8 19  1  0  0  0  0
  9 20  1  0  0  0  0
 10 21  1  0  0  0  0
M  END
> <pdb_id>
6P5O

> <uniprot_id>
P07379

> <usmiles>
S(c1c(nccc1)C(=O)O)CC(=O)O

$$$$
O38_A_1796
          07192416223D 1   1.00000     0.00000     0
            
 57 60  0  0  0  0            999 V2000
   32.6979   35.6355   61.5934 O   0  0  0  0  0  0  0  0  0  0  0  0
   35.5046   34.4917   60.3769 N   0  0  0  0  0  0  0  0  0  0  0  0
   38.8862   33.5794   70.8070 N   0  0  0  0  0  0  0  0  0  0  0  0
   32.1044   40.3229   62.3897 N   0  0  0  0  0  0  0  0  0  0  0  0
   35.9057   34.9212   67.2791 N   0  0  0  0  0  0  0  0  0  0  0  0
   34.7706   33.7315   65.5858 N   0  0  0  0  0  0  0  0  0  0  0  0
   37.0703   36.0333   68.9609 N   0  0  0  0  0  0  0  0  0  0  0  0
   31.5287   39.5166   61.4648 N   0  0  0  0  0  0  0  0  0  0  0  0
   30.7248   40.0535   60.3710 C   0  0  0  0  0  0  0  0  0  0  0  0
   32.9479   34.4445   60.8460 C   0  0  0  0  0  0  0  0  0  0  0  0
   34.3763   34.4693   60.5862 C   0  0  0  0  0  0  0  0  0  0  0  0
   38.1468   33.6010   69.9309 C   0  0  0  0  0  0  0  0  0  0  0  0
   32.7564   39.4916   63.2302 C   0  0  0  0  0  0  0  0  0  0  0  0
   31.7946   38.1807   61.6871 C   0  0  0  0  0  0  0  0  0  0  0  0
   35.8493   40.1061   69.1900 C   0  0  0  0  0  0  0  0  0  0  0  0
   37.1136   39.7956   68.4062 C   0  0  0  0  0  0  0  0  0  0  0  0
   34.7786   39.0731   68.8779 C   0  0  0  0  0  0  0  0  0  0  0  0
   36.0093   32.4827   67.1796 C   0  0  0  0  0  0  0  0  0  0  0  0
   37.6256   38.4069   68.7533 C   0  0  0  0  0  0  0  0  0  0  0  0
   35.2746   37.6790   69.2357 C   0  0  0  0  0  0  0  0  0  0  0  0
   34.1300   36.0478   65.4841 C   0  0  0  0  0  0  0  0  0  0  0  0
   36.8534   32.4540   68.2527 C   0  0  0  0  0  0  0  0  0  0  0  0
   33.6074   37.1227   64.8013 C   0  0  0  0  0  0  0  0  0  0  0  0
   33.7285   34.6434   63.5767 C   0  0  0  0  0  0  0  0  0  0  0  0
   35.5683   33.7438   66.7123 C   0  0  0  0  0  0  0  0  0  0  0  0
   36.7419   34.8593   68.3571 C   0  0  0  0  0  0  0  0  0  0  0  0
   33.1987   35.7482   62.8958 C   0  0  0  0  0  0  0  0  0  0  0  0
   36.5710   37.3240   68.4975 C   0  0  0  0  0  0  0  0  0  0  0  0
   34.1961   34.7933   64.8674 C   0  0  0  0  0  0  0  0  0  0  0  0
   37.2457   33.6374   68.8579 C   0  0  0  0  0  0  0  0  0  0  0  0
   32.5876   38.1385   62.8258 C   0  0  0  0  0  0  0  0  0  0  0  0
   33.1326   36.9962   63.4954 C   0  0  0  0  0  0  0  0  0  0  0  0
   34.5695   32.8215   65.2232 H   0  0  0  0  0  0  0  0  0  0  0  0
   37.6784   36.0110   69.7544 H   0  0  0  0  0  0  0  0  0  0  0  0
   30.3917   39.3017   59.8019 H   0  0  0  0  0  0  0  0  0  0  0  0
   29.9469   40.5581   60.7455 H   0  0  0  0  0  0  0  0  0  0  0  0
   31.2852   40.6685   59.8162 H   0  0  0  0  0  0  0  0  0  0  0  0
   32.4329   34.4508   59.9888 H   0  0  0  0  0  0  0  0  0  0  0  0
   32.6997   33.6350   61.3781 H   0  0  0  0  0  0  0  0  0  0  0  0
   33.2846   39.7862   64.0265 H   0  0  0  0  0  0  0  0  0  0  0  0
   31.4810   37.4039   61.1410 H   0  0  0  0  0  0  0  0  0  0  0  0
   35.5171   41.0147   68.9365 H   0  0  0  0  0  0  0  0  0  0  0  0
   36.0531   40.0868   70.1688 H   0  0  0  0  0  0  0  0  0  0  0  0
   37.8153   40.4713   68.6320 H   0  0  0  0  0  0  0  0  0  0  0  0
   36.9130   39.8376   67.4275 H   0  0  0  0  0  0  0  0  0  0  0  0
   34.5616   39.1065   67.9023 H   0  0  0  0  0  0  0  0  0  0  0  0
   33.9567   39.2781   69.4094 H   0  0  0  0  0  0  0  0  0  0  0  0
   35.7115   31.6371   66.7366 H   0  0  0  0  0  0  0  0  0  0  0  0
   37.8786   38.3887   69.7205 H   0  0  0  0  0  0  0  0  0  0  0  0
   38.4312   38.2110   68.1942 H   0  0  0  0  0  0  0  0  0  0  0  0
   34.5704   37.0128   68.9901 H   0  0  0  0  0  0  0  0  0  0  0  0
   35.4424   37.6388   70.2207 H   0  0  0  0  0  0  0  0  0  0  0  0
   34.4621   36.1632   66.4203 H   0  0  0  0  0  0  0  0  0  0  0  0
   37.1885   31.5789   68.6019 H   0  0  0  0  0  0  0  0  0  0  0  0
   33.5670   38.0147   65.2515 H   0  0  0  0  0  0  0  0  0  0  0  0
   33.7676   33.7498   63.1294 H   0  0  0  0  0  0  0  0  0  0  0  0
   36.3861   37.2713   67.5162 H   0  0  0  0  0  0  0  0  0  0  0  0
  1 10  1  0  0  0  0
  1 27  1  0  0  0  0
  2 11  3  0  0  0  0
  3 12  3  0  0  0  0
  4  8  1  0  0  0  0
  4 13  2  0  0  0  0
  5 25  1  0  0  0  0
  5 26  2  0  0  0  0
  6 25  1  0  0  0  0
  6 29  1  0  0  0  0
  7 26  1  0  0  0  0
  7 28  1  0  0  0  0
  8  9  1  0  0  0  0
  8 14  1  0  0  0  0
 10 11  1  0  0  0  0
 12 30  1  0  0  0  0
 13 31  1  0  0  0  0
 14 31  2  0  0  0  0
 15 16  1  0  0  0  0
 15 17  1  0  0  0  0
 16 19  1  0  0  0  0
 17 20  1  0  0  0  0
 18 22  1  0  0  0  0
 18 25  2  0  0  0  0
 19 28  1  0  0  0  0
 20 28  1  0  0  0  0
 21 23  1  0  0  0  0
 21 29  2  0  0  0  0
 22 30  2  0  0  0  0
 23 32  2  0  0  0  0
 24 27  2  0  0  0  0
 24 29  1  0  0  0  0
 26 30  1  0  0  0  0
 27 32  1  0  0  0  0
 31 32  1  0  0  0  0
  6 33  1  0  0  0  0
  7 34  1  0  0  0  0
  9 35  1  0  0  0  0
  9 36  1  0  0  0  0
  9 37  1  0  0  0  0
 10 38  1  0  0  0  0
 10 39  1  0  0  0  0
 13 40  1  0  0  0  0
 14 41  1  0  0  0  0
 15 42  1  0  0  0  0
 15 43  1  0  0  0  0
 16 44  1  0  0  0  0
 16 45  1  0  0  0  0
 17 46  1  0  0  0  0
 17 47  1  0  0  0  0
 18 48  1  0  0  0  0
 19 49  1  0  0  0  0
 19 50  1  0  0  0  0
 20 51  1  0  0  0  0
 20 52  1  0  0  0  0
 21 53  1  0  0  0  0
 22 54  1  0  0  0  0
 23 55  1  0  0  0  0
 24 56  1  0  0  0  0
 28 57  1  0  0  0  0
M  END
> <pdb_id>
5AP1

> <uniprot_id>
P33981

> <usmiles>
O(c1c(ccc(Nc2nc(NC3CCCCC3)c(C#N)cc2)c1)C=4C=NN(C4)C)CC#N

$$$$
O4Y_A_302
          07212402463D 1   1.00000     0.00000     0
            
 26 27  0  0  0  0            999 V2000
   -0.4721   21.7828   11.2674 O   0  0  0  0  0  0  0  0  0  0  0  0
    0.5248   21.0167    9.3817 O   0  0  0  0  0  0  0  0  0  0  0  0
    2.1955   24.2061    9.8649 O   0  0  0  0  0  0  0  0  0  0  0  0
    4.8098   21.2051    8.9661 N   0  0  0  0  0  0  0  0  0  0  0  0
    2.9450   22.0778   10.1228 N   0  0  0  0  0  0  0  0  0  0  0  0
    2.3936   20.7358   12.1244 C   0  0  0  0  0  0  0  0  0  0  0  0
    3.8480   21.0953    9.8031 C   0  0  0  0  0  0  0  0  0  0  0  0
    6.2655   23.8108    6.8616 C   0  0  0  0  0  0  0  0  0  0  0  0
    5.4074   24.8978    7.1117 C   0  0  0  0  0  0  0  0  0  0  0  0
    6.0387   22.5999    7.4525 C   0  0  0  0  0  0  0  0  0  0  0  0
    4.3325   24.7604    7.9612 C   0  0  0  0  0  0  0  0  0  0  0  0
    0.5332   21.4997   10.5331 C   0  0  0  0  0  0  0  0  0  0  0  0
    3.0237   23.3496    9.5664 C   0  0  0  0  0  0  0  0  0  0  0  0
    4.9764   22.4404    8.3520 C   0  0  0  0  0  0  0  0  0  0  0  0
    1.9175   21.8103   11.1365 C   0  0  2  0  0  0  0  0  0  0  0  0
    4.1205   23.5287    8.6182 C   0  0  0  0  0  0  0  0  0  0  0  0
   -0.3324   22.1687   12.1793 H   0  0  0  0  0  0  0  0  0  0  0  0
    1.6802   20.5692   12.8050 H   0  0  0  0  0  0  0  0  0  0  0  0
    2.5857   19.8889   11.6286 H   0  0  0  0  0  0  0  0  0  0  0  0
    3.2251   21.0495   12.5829 H   0  0  0  0  0  0  0  0  0  0  0  0
    3.7452   20.2147   10.2656 H   0  0  0  0  0  0  0  0  0  0  0  0
    7.0463   23.9254    6.2473 H   0  0  0  0  0  0  0  0  0  0  0  0
    5.5797   25.7776    6.6687 H   0  0  0  0  0  0  0  0  0  0  0  0
    6.6336   21.8241    7.2421 H   0  0  0  0  0  0  0  0  0  0  0  0
    3.7074   25.5263    8.1116 H   0  0  0  0  0  0  0  0  0  0  0  0
    1.8138   22.6537   11.6638 H   0  0  0  0  0  0  0  0  0  0  0  0
  1 12  1  0  0  0  0
  2 12  2  0  0  0  0
  3 13  2  0  0  0  0
  4  7  2  0  0  0  0
  4 14  1  0  0  0  0
  5  7  1  0  0  0  0
  5 13  1  0  0  0  0
  5 15  1  0  0  0  0
  6 15  1  0  0  0  0
  8  9  2  0  0  0  0
  8 10  1  0  0  0  0
  9 11  1  0  0  0  0
 10 14  2  0  0  0  0
 11 16  2  0  0  0  0
 12 15  1  0  0  0  0
 13 16  1  0  0  0  0
 14 16  1  0  0  0  0
  1 17  1  0  0  0  0
  6 18  1  0  0  0  0
  6 19  1  0  0  0  0
  6 20  1  0  0  0  0
  7 21  1  0  0  0  0
  8 22  1  0  0  0  0
  9 23  1  0  0  0  0
 10 24  1  0  0  0  0
 11 25  1  0  0  0  0
 15 26  1  0  0  0  0
M  END
> <pdb_id>
6P9G

> <uniprot_id>
P45974

> <usmiles>
O=C(O)[C@H](N1C(=O)c2c(N=C1)cccc2)C

$$$$
O54_A_301
          07202407183D 1   1.00000     0.00000     0
            
 44 46  0  0  0  0            999 V2000
   27.0762   18.2944   -2.7865 O   0  0  0  0  0  0  0  0  0  0  0  0
   27.2339   16.7177   -1.2220 N   0  0  0  0  0  0  0  0  0  0  0  0
   25.7037   21.1853   -7.1185 N   0  0  0  0  0  0  0  0  0  0  0  0
   30.9875   17.1236   -3.6249 N   0  0  0  0  0  0  0  0  0  0  0  0
   28.9001   16.9003   -2.7203 N   0  0  0  0  0  0  0  0  0  0  0  0
   26.0801   16.8739    0.8848 C   0  0  0  0  0  0  0  0  0  0  0  0
   25.9123   21.0742   -9.5827 C   0  0  0  0  0  0  0  0  0  0  0  0
   33.8971   18.7657   -6.3681 C   0  0  0  0  0  0  0  0  0  0  0  0
   25.9711   17.1062   -0.5934 C   0  0  0  0  0  0  0  0  0  0  0  0
   26.1689   21.0426   -5.8580 C   0  0  0  0  0  0  0  0  0  0  0  0
   31.8815   17.6563   -4.4969 C   0  0  0  0  0  0  0  0  0  0  0  0
   27.4749   20.6414   -5.6309 C   0  0  0  0  0  0  0  0  0  0  0  0
   31.9987   20.0479   -7.3754 C   0  0  0  0  0  0  0  0  0  0  0  0
   30.6623   20.4178   -7.4580 C   0  0  0  0  0  0  0  0  0  0  0  0
   27.7801   20.5043   -8.0102 C   0  0  0  0  0  0  0  0  0  0  0  0
   29.2432   18.3818   -4.6613 C   0  0  0  0  0  0  0  0  0  0  0  0
   27.7267   17.3706   -2.2738 C   0  0  0  0  0  0  0  0  0  0  0  0
   29.6838   17.4511   -3.7201 C   0  0  0  0  0  0  0  0  0  0  0  0
   26.4680   20.9156   -8.1853 C   0  0  0  0  0  0  0  0  0  0  0  0
   32.4252   19.1254   -6.4011 C   0  0  0  0  0  0  0  0  0  0  0  0
   28.3126   20.3460   -6.7205 C   0  0  0  0  0  0  0  0  0  0  0  0
   31.4953   18.5909   -5.4978 C   0  0  0  0  0  0  0  0  0  0  0  0
   29.7312   19.8924   -6.5653 C   0  0  0  0  0  0  0  0  0  0  0  0
   30.1459   18.9621   -5.5942 C   0  0  0  0  0  0  0  0  0  0  0  0
   27.7417   15.9399   -0.8517 H   0  0  0  0  0  0  0  0  0  0  0  0
   29.2443   16.0672   -2.2872 H   0  0  0  0  0  0  0  0  0  0  0  0
   25.2225   17.1356    1.3275 H   0  0  0  0  0  0  0  0  0  0  0  0
   26.2624   15.9059    1.0576 H   0  0  0  0  0  0  0  0  0  0  0  0
   26.8279   17.4251    1.2547 H   0  0  0  0  0  0  0  0  0  0  0  0
   26.6157   20.8315  -10.2507 H   0  0  0  0  0  0  0  0  0  0  0  0
   25.1219   20.4724   -9.6973 H   0  0  0  0  0  0  0  0  0  0  0  0
   25.6317   22.0236   -9.7241 H   0  0  0  0  0  0  0  0  0  0  0  0
   34.0627   18.1064   -5.6348 H   0  0  0  0  0  0  0  0  0  0  0  0
   34.1615   18.3630   -7.2444 H   0  0  0  0  0  0  0  0  0  0  0  0
   34.4382   19.5904   -6.2035 H   0  0  0  0  0  0  0  0  0  0  0  0
   25.2253   16.5546   -0.9669 H   0  0  0  0  0  0  0  0  0  0  0  0
   25.7908   18.0739   -0.7698 H   0  0  0  0  0  0  0  0  0  0  0  0
   25.5653   21.2282   -5.0827 H   0  0  0  0  0  0  0  0  0  0  0  0
   32.8414   17.3833   -4.4337 H   0  0  0  0  0  0  0  0  0  0  0  0
   27.8204   20.5622   -4.6958 H   0  0  0  0  0  0  0  0  0  0  0  0
   32.6625   20.4396   -8.0125 H   0  0  0  0  0  0  0  0  0  0  0  0
   30.3675   21.0643   -8.1616 H   0  0  0  0  0  0  0  0  0  0  0  0
   28.3522   20.3185   -8.8091 H   0  0  0  0  0  0  0  0  0  0  0  0
   28.2785   18.6446   -4.6801 H   0  0  0  0  0  0  0  0  0  0  0  0
  1 17  2  0  0  0  0
  2  9  1  0  0  0  0
  2 17  1  0  0  0  0
  3 10  2  0  0  0  0
  3 19  1  0  0  0  0
  4 11  1  0  0  0  0
  4 18  2  0  0  0  0
  5 17  1  0  0  0  0
  5 18  1  0  0  0  0
  6  9  1  0  0  0  0
  7 19  1  0  0  0  0
  8 20  1  0  0  0  0
 10 12  1  0  0  0  0
 11 22  2  0  0  0  0
 12 21  2  0  0  0  0
 13 14  1  0  0  0  0
 13 20  2  0  0  0  0
 14 23  2  0  0  0  0
 15 19  2  0  0  0  0
 15 21  1  0  0  0  0
 16 18  1  0  0  0  0
 16 24  2  0  0  0  0
 20 22  1  0  0  0  0
 21 23  1  0  0  0  0
 22 24  1  0  0  0  0
 23 24  1  0  0  0  0
  2 25  1  0  0  0  0
  5 26  1  0  0  0  0
  6 27  1  0  0  0  0
  6 28  1  0  0  0  0
  6 29  1  0  0  0  0
  7 30  1  0  0  0  0
  7 31  1  0  0  0  0
  7 32  1  0  0  0  0
  8 33  1  0  0  0  0
  8 34  1  0  0  0  0
  8 35  1  0  0  0  0
  9 36  1  0  0  0  0
  9 37  1  0  0  0  0
 10 38  1  0  0  0  0
 11 39  1  0  0  0  0
 12 40  1  0  0  0  0
 13 41  1  0  0  0  0
 14 42  1  0  0  0  0
 15 43  1  0  0  0  0
 16 44  1  0  0  0  0
M  END
> <pdb_id>
5MMN

> <uniprot_id>
P0AES7

> <usmiles>
O=C(Nc1ncc2c(c(c3cc(ncc3)C)ccc2C)c1)NCC

$$$$
O6A_A_509
          07202411513D 1   1.00000     0.00000     0
            
 52 55  0  0  0  0            999 V2000
   19.0318   -2.4719   17.1311 S   0  0  0  0  0  0  0  0  0  0  0  0
   19.3439   -2.5615   18.5283 O   0  0  0  0  0  0  0  0  0  0  0  0
   17.9432   -3.2785   16.6722 O   0  0  0  0  0  0  0  0  0  0  0  0
   17.3324    3.9606   14.7350 O   0  0  0  0  0  0  0  0  0  0  0  0
   14.5762    5.6429   17.9010 O   0  0  0  0  0  0  0  0  0  0  0  0
   25.0367   -3.7732   14.3203 N   0  0  0  0  0  0  0  0  0  0  0  0
   15.2510    4.5341   17.5281 N   0  0  0  0  0  0  0  0  0  0  0  0
   17.1964    2.8341   16.6766 N   0  0  0  0  0  0  0  0  0  0  0  0
   18.6484   -0.8821   16.8744 N   0  0  0  0  0  0  0  0  0  0  0  0
   23.7667   -3.5550   13.6186 C   0  0  0  0  0  0  0  0  0  0  0  0
   19.5519    0.1278   17.4655 C   0  0  0  0  0  0  0  0  0  0  0  0
   18.1414   -0.5740   15.5264 C   0  0  0  0  0  0  0  0  0  0  0  0
   21.7042   -2.4191   16.6191 C   0  0  0  0  0  0  0  0  0  0  0  0
   20.2151   -3.3940   14.9150 C   0  0  0  0  0  0  0  0  0  0  0  0
   18.7105    1.3653   17.6362 C   0  0  0  0  0  0  0  0  0  0  0  0
   17.2270    0.6180   15.6835 C   0  0  0  0  0  0  0  0  0  0  0  0
   22.8263   -2.6676   15.8178 C   0  0  0  0  0  0  0  0  0  0  0  0
   21.3357   -3.6237   14.1328 C   0  0  0  0  0  0  0  0  0  0  0  0
   13.8722    8.7154   16.0664 C   0  0  0  0  0  0  0  0  0  0  0  0
   15.0439    9.1325   16.8994 C   0  0  0  0  0  0  0  0  0  0  0  0
   15.8404    6.2051   16.1563 C   0  0  0  0  0  0  0  0  0  0  0  0
   20.4594   -2.7838   16.1340 C   0  0  0  0  0  0  0  0  0  0  0  0
   16.9041    3.8598   15.8651 C   0  0  0  0  0  0  0  0  0  0  0  0
   14.9437    6.6468   17.0640 C   0  0  0  0  0  0  0  0  0  0  0  0
   18.0697    1.7496   16.2900 C   0  0  0  0  0  0  0  0  0  0  0  0
   16.0470    4.8161   16.5001 C   0  0  0  0  0  0  0  0  0  0  0  0
   22.6171   -3.2689   14.5610 C   0  0  0  0  0  0  0  0  0  0  0  0
   14.2702    7.9348   17.2450 C   0  0  0  0  0  0  0  0  0  0  0  0
   25.7587   -3.9571   13.6533 H   0  0  0  0  0  0  0  0  0  0  0  0
   25.2705   -2.9565   14.8480 H   0  0  0  0  0  0  0  0  0  0  0  0
   16.7918    2.8184   17.5910 H   0  0  0  0  0  0  0  0  0  0  0  0
   23.5493   -4.3750   13.0891 H   0  0  0  0  0  0  0  0  0  0  0  0
   23.8734   -2.7770   12.9994 H   0  0  0  0  0  0  0  0  0  0  0  0
   20.3216    0.3097   16.8535 H   0  0  0  0  0  0  0  0  0  0  0  0
   19.8965   -0.1859   18.3503 H   0  0  0  0  0  0  0  0  0  0  0  0
   17.6344   -1.3541   15.1599 H   0  0  0  0  0  0  0  0  0  0  0  0
   18.8993   -0.3512   14.9134 H   0  0  0  0  0  0  0  0  0  0  0  0
   21.7997   -1.9899   17.5172 H   0  0  0  0  0  0  0  0  0  0  0  0
   19.2948   -3.6508   14.6200 H   0  0  0  0  0  0  0  0  0  0  0  0
   19.2868    2.1171   17.9564 H   0  0  0  0  0  0  0  0  0  0  0  0
   17.9910    1.1875   18.3077 H   0  0  0  0  0  0  0  0  0  0  0  0
   16.4672    0.3907   16.2927 H   0  0  0  0  0  0  0  0  0  0  0  0
   16.8681    0.8960   14.7925 H   0  0  0  0  0  0  0  0  0  0  0  0
   23.7458   -2.4261   16.1278 H   0  0  0  0  0  0  0  0  0  0  0  0
   21.2240   -4.0551   13.2376 H   0  0  0  0  0  0  0  0  0  0  0  0
   14.0154    8.3461   15.1482 H   0  0  0  0  0  0  0  0  0  0  0  0
   13.0290    9.2527   16.0819 H   0  0  0  0  0  0  0  0  0  0  0  0
   14.9861    9.9497   17.4729 H   0  0  0  0  0  0  0  0  0  0  0  0
   15.9725    9.0431   16.5392 H   0  0  0  0  0  0  0  0  0  0  0  0
   16.2658    6.7222   15.4135 H   0  0  0  0  0  0  0  0  0  0  0  0
   18.7633    2.0642   15.6419 H   0  0  0  0  0  0  0  0  0  0  0  0
   13.6749    8.0113   18.0448 H   0  0  0  0  0  0  0  0  0  0  0  0
  1  2  2  0  0  0  0
  1  3  2  0  0  0  0
  1  9  1  0  0  0  0
  1 22  1  0  0  0  0
  4 23  2  0  0  0  0
  5  7  1  0  0  0  0
  5 24  1  0  0  0  0
  6 10  1  0  0  0  0
  7 26  2  0  0  0  0
  8 23  1  0  0  0  0
  8 25  1  0  0  0  0
  9 11  1  0  0  0  0
  9 12  1  0  0  0  0
 10 27  1  0  0  0  0
 11 15  1  0  0  0  0
 12 16  1  0  0  0  0
 13 17  1  0  0  0  0
 13 22  2  0  0  0  0
 14 18  2  0  0  0  0
 14 22  1  0  0  0  0
 15 25  1  0  0  0  0
 16 25  1  0  0  0  0
 17 27  2  0  0  0  0
 18 27  1  0  0  0  0
 19 20  1  0  0  0  0
 19 28  1  0  0  0  0
 20 28  1  0  0  0  0
 21 24  2  0  0  0  0
 21 26  1  0  0  0  0
 23 26  1  0  0  0  0
 24 28  1  0  0  0  0
  6 29  1  0  0  0  0
  6 30  1  0  0  0  0
  8 31  1  0  0  0  0
 10 32  1  0  0  0  0
 10 33  1  0  0  0  0
 11 34  1  0  0  0  0
 11 35  1  0  0  0  0
 12 36  1  0  0  0  0
 12 37  1  0  0  0  0
 13 38  1  0  0  0  0
 14 39  1  0  0  0  0
 15 40  1  0  0  0  0
 15 41  1  0  0  0  0
 16 42  1  0  0  0  0
 16 43  1  0  0  0  0
 17 44  1  0  0  0  0
 18 45  1  0  0  0  0
 19 46  1  0  0  0  0
 19 47  1  0  0  0  0
 20 48  1  0  0  0  0
 20 49  1  0  0  0  0
 21 50  1  0  0  0  0
 25 51  1  0  0  0  0
 28 52  1  0  0  0  0
M  END
> <pdb_id>
6PAF

> <uniprot_id>
Q9H7B4

> <usmiles>
S(=O)(=O)(N1CCC(NC(=O)C2=NOC(=C2)C3CC3)CC1)c4ccc(cc4)CN

$$$$
O74_C_1247
          07192422433D 1   1.00000     0.00000     0
            
 39 42  0  0  0  0            999 V2000
   -1.4958  172.1511   34.3960 Cl  0  0  0  0  0  0  0  0  0  0  0  0
    3.7945  178.9722   32.6047 O   0  0  0  0  0  0  0  0  0  0  0  0
    2.0020  175.4369   33.9544 N   0  0  0  0  0  0  0  0  0  0  0  0
    0.1992  173.9719   34.1657 N   0  0  0  0  0  0  0  0  0  0  0  0
    1.8072  177.2895   32.5695 N   0  0  0  0  0  0  0  0  0  0  0  0
    1.3615  171.3274   36.9601 C   0  0  0  0  0  0  0  0  0  0  0  0
    6.5945  177.2411   34.2161 C   0  0  0  0  0  0  0  0  0  0  0  0
    2.2102  172.4064   36.7227 C   0  0  0  0  0  0  0  0  0  0  0  0
   -1.5075  177.2691   31.0746 C   0  0  0  0  0  0  0  0  0  0  0  0
    5.9756  176.0655   34.6340 C   0  0  0  0  0  0  0  0  0  0  0  0
   -2.0553  176.1081   31.6355 C   0  0  0  0  0  0  0  0  0  0  0  0
    0.1904  171.1888   36.2619 C   0  0  0  0  0  0  0  0  0  0  0  0
    5.8645  178.2138   33.5620 C   0  0  0  0  0  0  0  0  0  0  0  0
    1.9090  173.3780   35.7945 C   0  0  0  0  0  0  0  0  0  0  0  0
   -0.2027  177.6755   31.3726 C   0  0  0  0  0  0  0  0  0  0  0  0
    4.6456  175.8866   34.3513 C   0  0  0  0  0  0  0  0  0  0  0  0
   -1.3150  175.3501   32.5197 C   0  0  0  0  0  0  0  0  0  0  0  0
   -0.1043  172.1640   35.3405 C   0  0  0  0  0  0  0  0  0  0  0  0
    4.5055  178.0292   33.2892 C   0  0  0  0  0  0  0  0  0  0  0  0
    2.5325  176.5751   33.4292 C   0  0  0  0  0  0  0  0  0  0  0  0
    0.7765  175.0468   33.6780 C   0  0  0  0  0  0  0  0  0  0  0  0
    0.7269  173.2283   35.1120 C   0  0  0  0  0  0  0  0  0  0  0  0
    0.5485  176.9158   32.2602 C   0  0  0  0  0  0  0  0  0  0  0  0
    3.8696  176.8841   33.7111 C   0  0  0  0  0  0  0  0  0  0  0  0
   -0.0130  175.7725   32.8194 C   0  0  0  0  0  0  0  0  0  0  0  0
    2.8231  178.8270   32.4166 H   0  0  0  0  0  0  0  0  0  0  0  0
   -0.6910  173.7050   33.7964 H   0  0  0  0  0  0  0  0  0  0  0  0
    1.6098  170.6457   37.6483 H   0  0  0  0  0  0  0  0  0  0  0  0
    7.5693  177.3811   34.3900 H   0  0  0  0  0  0  0  0  0  0  0  0
    3.0624  172.4773   37.2412 H   0  0  0  0  0  0  0  0  0  0  0  0
   -2.0607  177.8186   30.4484 H   0  0  0  0  0  0  0  0  0  0  0  0
    6.4903  175.3662   35.1301 H   0  0  0  0  0  0  0  0  0  0  0  0
   -2.9846  175.8280   31.3946 H   0  0  0  0  0  0  0  0  0  0  0  0
   -0.4216  170.4131   36.4162 H   0  0  0  0  0  0  0  0  0  0  0  0
    6.3137  179.0615   33.2797 H   0  0  0  0  0  0  0  0  0  0  0  0
    2.5192  174.1522   35.6263 H   0  0  0  0  0  0  0  0  0  0  0  0
    0.1823  178.4981   30.9541 H   0  0  0  0  0  0  0  0  0  0  0  0
    4.2091  175.0235   34.6055 H   0  0  0  0  0  0  0  0  0  0  0  0
   -1.6964  174.5238   32.9342 H   0  0  0  0  0  0  0  0  0  0  0  0
  1 18  1  0  0  0  0
  2 19  1  0  0  0  0
  3 20  2  0  0  0  0
  3 21  1  0  0  0  0
  4 21  1  0  0  0  0
  4 22  1  0  0  0  0
  5 20  1  0  0  0  0
  5 23  2  0  0  0  0
  6  8  2  0  0  0  0
  6 12  1  0  0  0  0
  7 10  2  0  0  0  0
  7 13  1  0  0  0  0
  8 14  1  0  0  0  0
  9 11  1  0  0  0  0
  9 15  2  0  0  0  0
 10 16  1  0  0  0  0
 11 17  2  0  0  0  0
 12 18  2  0  0  0  0
 13 19  2  0  0  0  0
 14 22  2  0  0  0  0
 15 23  1  0  0  0  0
 16 24  2  0  0  0  0
 17 25  1  0  0  0  0
 18 22  1  0  0  0  0
 19 24  1  0  0  0  0
 20 24  1  0  0  0  0
 21 25  2  0  0  0  0
 23 25  1  0  0  0  0
  2 26  1  0  0  0  0
  4 27  1  0  0  0  0
  6 28  1  0  0  0  0
  7 29  1  0  0  0  0
  8 30  1  0  0  0  0
  9 31  1  0  0  0  0
 10 32  1  0  0  0  0
 11 33  1  0  0  0  0
 12 34  1  0  0  0  0
 13 35  1  0  0  0  0
 14 36  1  0  0  0  0
 15 37  1  0  0  0  0
 16 38  1  0  0  0  0
 17 39  1  0  0  0  0
M  END
> <pdb_id>
4BNX

> <uniprot_id>
O54438

> <usmiles>
Clc1c(Nc2nc(nc3c2cccc3)c4c(O)cccc4)cccc1

$$$$
O84_A_305
          07212403203D 1   1.00000     0.00000     0
            
 56 59  0  0  0  0            999 V2000
   -3.1930   20.0380   23.9890 P   0  0  0  0  0  0  0  0  0  0  0  0
   -5.7820   24.8420   32.0490 P   0  0  0  0  0  0  0  0  0  0  0  0
   -2.9200   20.4750   22.5210 O   0  0  0  0  0  0  0  0  0  0  0  0
   -4.0340   18.7730   23.9360 O   0  0  0  0  0  0  0  0  0  0  0  0
   -1.9010   19.8310   24.7410 O   0  0  0  0  0  0  0  0  0  0  0  0
   -6.2110   26.2050   32.4090 O   0  0  0  0  0  0  0  0  0  0  0  0
   -6.9190   23.9700   31.6620 O   0  0  0  0  0  0  0  0  0  0  0  0
   -5.0130   24.1820   33.2180 O   0  0  0  0  0  0  0  0  0  0  0  0
   -1.6020   28.5990   26.2210 O   0  0  0  0  0  0  0  0  0  0  0  0
   -1.6870   24.9650   23.6240 O   0  0  0  0  0  0  0  0  0  0  0  0
   -3.3620   25.4170   31.0680 O   0  0  0  0  0  0  0  0  0  0  0  0
   -2.9780   27.5870   29.1100 O   0  0  0  0  0  0  0  0  0  0  0  0
   -5.0180   25.4680   29.4950 O   0  0  0  0  0  0  0  0  0  0  0  0
   -1.6460   26.6990   24.9620 N   0  0  0  0  0  0  0  0  0  0  0  0
   -3.0190   26.8900   26.8520 N   0  0  0  0  0  0  0  0  0  0  0  0
   -4.1740   21.2510   24.7830 C   0  0  0  0  0  0  0  0  0  0  0  0
   -3.2420   26.8060   31.2940 C   0  0  0  0  0  0  0  0  0  0  0  0
   -3.5420   22.5850   24.6520 C   0  0  0  0  0  0  0  0  0  0  0  0
   -3.8790   20.7360   29.6080 C   0  0  0  0  0  0  0  0  0  0  0  0
   -3.1130   21.3380   30.6000 C   0  0  0  0  0  0  0  0  0  0  0  0
   -4.8150   21.4680   28.9010 C   0  0  0  0  0  0  0  0  0  0  0  0
   -3.3940   25.5570   26.6720 C   0  0  0  0  0  0  0  0  0  0  0  0
   -3.5130   23.4250   25.5900 C   0  0  0  0  0  0  0  0  0  0  0  0
   -3.3430   22.6830   30.9520 C   0  0  0  0  0  0  0  0  0  0  0  0
   -5.0400   22.8010   29.2610 C   0  0  0  0  0  0  0  0  0  0  0  0
   -5.1370   27.3760   28.0960 C   0  0  0  0  0  0  0  0  0  0  0  0
   -2.0860   27.4340   26.0260 C   0  0  0  0  0  0  0  0  0  0  0  0
   -2.1300   25.4330   24.6920 C   0  0  0  0  0  0  0  0  0  0  0  0
   -3.6230   27.7180   27.8990 C   0  0  1  0  0  0  0  0  0  0  0  0
   -3.9480   27.5540   30.1700 C   0  0  2  0  0  0  0  0  0  0  0  0
   -5.1660   26.8960   29.5390 C   0  0  2  0  0  0  0  0  0  0  0  0
   -2.9760   24.8030   25.6450 C   0  0  0  0  0  0  0  0  0  0  0  0
   -4.3130   23.4000   30.2820 C   0  0  0  0  0  0  0  0  0  0  0  0
   -4.5610   24.8280   30.7040 C   0  0  2  0  0  0  0  0  0  0  0  0
   -2.3667   21.3080   22.5186 H   0  0  0  0  0  0  0  0  0  0  0  0
   -4.2289   18.4631   24.8666 H   0  0  0  0  0  0  0  0  0  0  0  0
   -5.4116   26.7505   32.6609 H   0  0  0  0  0  0  0  0  0  0  0  0
   -6.5766   23.0601   31.4279 H   0  0  0  0  0  0  0  0  0  0  0  0
   -0.9509   27.0898   24.3586 H   0  0  0  0  0  0  0  0  0  0  0  0
   -4.2633   21.0213   25.7522 H   0  0  0  0  0  0  0  0  0  0  0  0
   -5.0801   21.2717   24.3605 H   0  0  0  0  0  0  0  0  0  0  0  0
   -2.2751   27.0607   31.3107 H   0  0  0  0  0  0  0  0  0  0  0  0
   -3.6638   27.0409   32.1697 H   0  0  0  0  0  0  0  0  0  0  0  0
   -3.1194   22.8293   23.7792 H   0  0  0  0  0  0  0  0  0  0  0  0
   -3.7519   19.7653   29.4041 H   0  0  0  0  0  0  0  0  0  0  0  0
   -2.3978   20.8157   31.0644 H   0  0  0  0  0  0  0  0  0  0  0  0
   -5.3219   21.0521   28.1460 H   0  0  0  0  0  0  0  0  0  0  0  0
   -4.0069   25.1427   27.3448 H   0  0  0  0  0  0  0  0  0  0  0  0
   -3.9233   23.1060   26.4444 H   0  0  0  0  0  0  0  0  0  0  0  0
   -2.8088   23.1133   31.6797 H   0  0  0  0  0  0  0  0  0  0  0  0
   -5.7353   23.3311   28.7756 H   0  0  0  0  0  0  0  0  0  0  0  0
   -5.4319   26.6563   27.4674 H   0  0  0  0  0  0  0  0  0  0  0  0
   -5.7118   28.1846   27.9702 H   0  0  0  0  0  0  0  0  0  0  0  0
   -3.5561   28.6743   27.6145 H   0  0  0  0  0  0  0  0  0  0  0  0
   -4.1712   28.4840   30.4620 H   0  0  0  0  0  0  0  0  0  0  0  0
   -6.0113   27.1652   30.0004 H   0  0  0  0  0  0  0  0  0  0  0  0
  1  3  1  0  0  0  0
  1  4  1  0  0  0  0
  1  5  2  0  0  0  0
  1 16  1  0  0  0  0
  2  6  1  0  0  0  0
  2  7  1  0  0  0  0
  2  8  2  0  0  0  0
  2 34  1  0  0  0  0
  9 27  2  0  0  0  0
 10 28  2  0  0  0  0
 11 17  1  0  0  0  0
 11 34  1  0  0  0  0
 12 29  1  0  0  0  0
 12 30  1  0  0  0  0
 13 31  1  0  0  0  0
 13 34  1  0  0  0  0
 14 27  1  0  0  0  0
 14 28  1  0  0  0  0
 15 22  1  0  0  0  0
 15 27  1  0  0  0  0
 15 29  1  0  0  0  0
 16 18  1  0  0  0  0
 17 30  1  0  0  0  0
 18 23  2  0  0  0  0
 19 20  2  0  0  0  0
 19 21  1  0  0  0  0
 20 24  1  0  0  0  0
 21 25  2  0  0  0  0
 22 32  2  0  0  0  0
 23 32  1  0  0  0  0
 24 33  2  0  0  0  0
 25 33  1  0  0  0  0
 26 29  1  0  0  0  0
 26 31  1  0  0  0  0
 28 32  1  0  0  0  0
 30 31  1  0  0  0  0
 33 34  1  0  0  0  0
  3 35  1  0  0  0  0
  4 36  1  0  0  0  0
  6 37  1  0  0  0  0
  7 38  1  0  0  0  0
 14 39  1  0  0  0  0
 16 40  1  0  0  0  0
 16 41  1  0  0  0  0
 17 42  1  0  0  0  0
 17 43  1  0  0  0  0
 18 44  1  0  0  0  0
 19 45  1  0  0  0  0
 20 46  1  0  0  0  0
 21 47  1  0  0  0  0
 22 48  1  0  0  0  0
 23 49  1  0  0  0  0
 24 50  1  0  0  0  0
 25 51  1  0  0  0  0
 26 52  1  0  0  0  0
 26 53  1  0  0  0  0
 29 54  1  0  0  0  0
 30 55  1  0  0  0  0
 31 56  1  0  0  0  0
M  END
> <pdb_id>
6G2M

> <uniprot_id>
Q9NPB1

> <usmiles>
P(=O)(O)(O)[C@]1(O[C@H]2[C@H](O[C@@H](N3C(=O)NC(=O)C(/C=C/CP(=O)(O)O)=C3)C2)CO1)c4ccccc4

$$$$
O8A_A_1001
          07212404153D 1   1.00000     0.00000     0
            
 40 43  0  0  0  0            999 V2000
    5.3197   50.3176    1.6597 S   0  0  0  0  0  0  0  0  0  0  0  0
    2.0993   55.5794    7.0472 F   0  0  0  0  0  0  0  0  0  0  0  0
    3.3294   54.2535    8.0779 F   0  0  0  0  0  0  0  0  0  0  0  0
    3.6365   56.2800    8.1683 F   0  0  0  0  0  0  0  0  0  0  0  0
    7.3960   48.5647    0.9625 O   0  0  0  0  0  0  0  0  0  0  0  0
    4.0807   55.1857    6.3202 O   0  0  0  0  0  0  0  0  0  0  0  0
    6.3783   46.6807    0.8428 N   0  0  0  0  0  0  0  0  0  0  0  0
    2.0610   53.7198    2.1354 N   0  0  0  0  0  0  0  0  0  0  0  0
    3.0351   51.7110    2.3027 N   0  0  0  0  0  0  0  0  0  0  0  0
    1.6577   51.9547    0.2496 C   0  0  0  0  0  0  0  0  0  0  0  0
    2.9710   49.3402    1.7645 C   0  0  0  0  0  0  0  0  0  0  0  0
    3.8172   48.3017    1.4117 C   0  0  0  0  0  0  0  0  0  0  0  0
    4.4065   53.0711    5.3859 C   0  0  0  0  0  0  0  0  0  0  0  0
    7.3753   44.7032   -0.0153 C   0  0  0  0  0  0  0  0  0  0  0  0
    8.0551   45.8814   -0.6650 C   0  0  0  0  0  0  0  0  0  0  0  0
    4.2050   52.1233    4.4082 C   0  0  0  0  0  0  0  0  0  0  0  0
    2.9975   54.6647    4.2848 C   0  0  0  0  0  0  0  0  0  0  0  0
    3.6696   50.5000    1.9161 C   0  0  0  0  0  0  0  0  0  0  0  0
    5.1396   48.6719    1.3138 C   0  0  0  0  0  0  0  0  0  0  0  0
    6.3829   47.9620    1.0098 C   0  0  0  0  0  0  0  0  0  0  0  0
    2.2035   52.5380    1.5113 C   0  0  0  0  0  0  0  0  0  0  0  0
    3.8129   54.3077    5.3354 C   0  0  0  0  0  0  0  0  0  0  0  0
    7.6042   45.9647    0.7698 C   0  0  0  0  0  0  0  0  0  0  0  0
    2.7645   53.7538    3.2823 C   0  0  0  0  0  0  0  0  0  0  0  0
    3.3999   52.4603    3.3639 C   0  0  0  0  0  0  0  0  0  0  0  0
    3.2770   55.3262    7.4192 C   0  0  0  0  0  0  0  0  0  0  0  0
    5.5097   46.1913    0.7646 H   0  0  0  0  0  0  0  0  0  0  0  0
    2.0102   51.0264    0.1318 H   0  0  0  0  0  0  0  0  0  0  0  0
    0.6593   51.9283    0.2992 H   0  0  0  0  0  0  0  0  0  0  0  0
    1.9381   52.5188   -0.5270 H   0  0  0  0  0  0  0  0  0  0  0  0
    1.9831   49.2509    1.8906 H   0  0  0  0  0  0  0  0  0  0  0  0
    3.4970   47.3693    1.2436 H   0  0  0  0  0  0  0  0  0  0  0  0
    5.0041   52.8519    6.1572 H   0  0  0  0  0  0  0  0  0  0  0  0
    7.8998   43.8791    0.1988 H   0  0  0  0  0  0  0  0  0  0  0  0
    6.4487   44.4467   -0.2902 H   0  0  0  0  0  0  0  0  0  0  0  0
    7.5795   46.4071   -1.3703 H   0  0  0  0  0  0  0  0  0  0  0  0
    9.0305   45.8395   -0.8814 H   0  0  0  0  0  0  0  0  0  0  0  0
    4.6339   51.2216    4.4632 H   0  0  0  0  0  0  0  0  0  0  0  0
    2.5811   55.5733    4.2517 H   0  0  0  0  0  0  0  0  0  0  0  0
    8.2660   45.9947    1.5189 H   0  0  0  0  0  0  0  0  0  0  0  0
  1 18  1  0  0  0  0
  1 19  1  0  0  0  0
  2 26  1  0  0  0  0
  3 26  1  0  0  0  0
  4 26  1  0  0  0  0
  5 20  2  0  0  0  0
  6 22  1  0  0  0  0
  6 26  1  0  0  0  0
  7 20  1  0  0  0  0
  7 23  1  0  0  0  0
  8 21  2  0  0  0  0
  8 24  1  0  0  0  0
  9 18  1  0  0  0  0
  9 21  1  0  0  0  0
  9 25  1  0  0  0  0
 10 21  1  0  0  0  0
 11 12  1  0  0  0  0
 11 18  2  0  0  0  0
 12 19  2  0  0  0  0
 13 16  1  0  0  0  0
 13 22  2  0  0  0  0
 14 15  1  0  0  0  0
 14 23  1  0  0  0  0
 15 23  1  0  0  0  0
 16 25  2  0  0  0  0
 17 22  1  0  0  0  0
 17 24  2  0  0  0  0
 19 20  1  0  0  0  0
 24 25  1  0  0  0  0
  7 27  1  0  0  0  0
 10 28  1  0  0  0  0
 10 29  1  0  0  0  0
 10 30  1  0  0  0  0
 11 31  1  0  0  0  0
 12 32  1  0  0  0  0
 13 33  1  0  0  0  0
 14 34  1  0  0  0  0
 14 35  1  0  0  0  0
 15 36  1  0  0  0  0
 15 37  1  0  0  0  0
 16 38  1  0  0  0  0
 17 39  1  0  0  0  0
 23 40  1  0  0  0  0
M  END
> <pdb_id>
3O8A

> <uniprot_id>
Q08210

> <usmiles>
S1C(N2c3c(N=C2C)cc(OC(F)(F)F)cc3)=CC=C1C(=O)NC4CC4

$$$$
O8G_A_217
          07192423263D 1   1.00000     0.00000     0
            
 36 38  0  0  0  0            999 V2000
   27.6386   -3.8730   -3.1850 S   0  0  0  0  0  0  0  0  0  0  0  0
   28.5187  -13.9526   -7.4784 O   0  0  0  0  0  0  0  0  0  0  0  0
   27.1566   -8.2620   -2.6677 O   0  0  0  0  0  0  0  0  0  0  0  0
   29.4065  -17.2947   -7.1766 N   0  5  0  0  0  0  0  0  0  0  0  0
   29.9413  -16.3579   -6.8602 N   0  3  0  0  0  0  0  0  0  0  0  0
   27.1996   -6.8827   -2.6504 N   0  0  0  0  0  0  0  0  0  0  0  0
   30.4903  -15.4114   -6.5677 N   0  0  0  0  0  0  0  0  0  0  0  0
   27.4421   -7.5160   -4.7351 N   0  0  0  0  0  0  0  0  0  0  0  0
   28.3632  -12.4436   -5.7664 N   0  0  0  0  0  0  0  0  0  0  0  0
   27.6709   -2.6408   -4.3454 C   0  0  0  0  0  0  0  0  0  0  0  0
   29.8210  -14.5130   -5.5791 C   0  0  0  0  0  0  0  0  0  0  0  0
   27.3743  -11.5567   -6.4867 C   0  0  0  0  0  0  0  0  0  0  0  0
   28.7891  -12.1065   -4.3249 C   0  0  0  0  0  0  0  0  0  0  0  0
   27.5459   -3.2651   -5.5324 C   0  0  0  0  0  0  0  0  0  0  0  0
   27.4128   -4.6123   -5.5236 C   0  0  0  0  0  0  0  0  0  0  0  0
   27.3786  -10.1144   -6.0382 C   0  0  0  0  0  0  0  0  0  0  0  0
   28.7148  -10.6062   -3.9734 C   0  0  0  0  0  0  0  0  0  0  0  0
   27.4491   -5.1367   -4.2983 C   0  0  0  0  0  0  0  0  0  0  0  0
   28.8363  -13.5884   -6.3338 C   0  0  0  0  0  0  0  0  0  0  0  0
   27.3200   -8.5981   -3.9836 C   0  0  0  0  0  0  0  0  0  0  0  0
   27.3736   -6.4692   -3.9083 C   0  0  0  0  0  0  0  0  0  0  0  0
   27.3900  -10.0258   -4.4808 C   0  0  0  0  0  0  0  0  0  0  0  0
   27.7631   -1.6582   -4.1840 H   0  0  0  0  0  0  0  0  0  0  0  0
   30.5083  -13.9596   -5.1086 H   0  0  0  0  0  0  0  0  0  0  0  0
   29.3206  -15.0627   -4.9102 H   0  0  0  0  0  0  0  0  0  0  0  0
   26.4574  -11.9268   -6.3375 H   0  0  0  0  0  0  0  0  0  0  0  0
   27.5884  -11.5800   -7.4632 H   0  0  0  0  0  0  0  0  0  0  0  0
   29.7330  -12.4112   -4.1981 H   0  0  0  0  0  0  0  0  0  0  0  0
   28.1909  -12.6048   -3.6973 H   0  0  0  0  0  0  0  0  0  0  0  0
   27.5513   -2.7514   -6.3903 H   0  0  0  0  0  0  0  0  0  0  0  0
   27.2986   -5.1592   -6.3529 H   0  0  0  0  0  0  0  0  0  0  0  0
   26.5598   -9.6588   -6.3876 H   0  0  0  0  0  0  0  0  0  0  0  0
   28.1928   -9.6599   -6.3995 H   0  0  0  0  0  0  0  0  0  0  0  0
   29.4770  -10.1247   -4.4061 H   0  0  0  0  0  0  0  0  0  0  0  0
   28.7695  -10.4935   -2.9812 H   0  0  0  0  0  0  0  0  0  0  0  0
   26.6258  -10.5514   -4.1071 H   0  0  0  0  0  0  0  0  0  0  0  0
  1 10  1  0  0  0  0
  1 18  1  0  0  0  0
  2 19  2  0  0  0  0
  3  6  1  0  0  0  0
  3 20  1  0  0  0  0
  4  5  2  0  0  0  0
  5  7  2  0  0  0  0
  6 21  2  0  0  0  0
  7 11  1  0  0  0  0
  8 20  2  0  0  0  0
  8 21  1  0  0  0  0
  9 12  1  0  0  0  0
  9 13  1  0  0  0  0
  9 19  1  0  0  0  0
 10 14  2  0  0  0  0
 11 19  1  0  0  0  0
 12 16  1  0  0  0  0
 13 17  1  0  0  0  0
 14 15  1  0  0  0  0
 15 18  2  0  0  0  0
 16 22  1  0  0  0  0
 17 22  1  0  0  0  0
 18 21  1  0  0  0  0
 20 22  1  0  0  0  0
 10 23  1  0  0  0  0
 11 24  1  0  0  0  0
 11 25  1  0  0  0  0
 12 26  1  0  0  0  0
 12 27  1  0  0  0  0
 13 28  1  0  0  0  0
 13 29  1  0  0  0  0
 14 30  1  0  0  0  0
 15 31  1  0  0  0  0
 16 32  1  0  0  0  0
 16 33  1  0  0  0  0
 17 34  1  0  0  0  0
 17 35  1  0  0  0  0
 22 36  1  0  0  0  0
M  CHG  2   4  -1   5   1
M  END
> <pdb_id>
3O8G

> <uniprot_id>
P96222

> <usmiles>
S1C(C2=NOC(=N2)C3CCN(C(=O)CN=[N+]=[N-])CC3)=CC=C1

$$$$
O9A_A_806
          07212403243D 1   1.00000     0.00000     0
            
 47 49  0  0  0  0            999 V2000
    3.2020   -7.9240  -19.5890 S   0  0  0  0  0  0  0  0  0  0  0  0
    5.6800  -11.5330  -20.7000 F   0  0  0  0  0  0  0  0  0  0  0  0
    2.6180   -6.7690  -18.9650 O   0  0  0  0  0  0  0  0  0  0  0  0
    4.5720   -7.5300  -19.7480 O   0  0  0  0  0  0  0  0  0  0  0  0
    5.3500   -9.8900  -17.1020 O   0  0  0  0  0  0  0  0  0  0  0  0
    8.0960  -14.1450  -16.5030 O   0  0  0  0  0  0  0  0  0  0  0  0
    3.0800   -9.3020  -18.6820 N   0  0  0  0  0  0  0  0  0  0  0  0
    3.9720  -10.3500  -18.8940 N   0  0  0  0  0  0  0  0  0  0  0  0
    8.2860  -15.8210  -14.8880 C   0  0  0  0  0  0  0  0  0  0  0  0
    7.3370  -13.6530  -21.3820 C   0  0  0  0  0  0  0  0  0  0  0  0
    7.7360  -15.4750  -16.2560 C   0  0  0  0  0  0  0  0  0  0  0  0
   -0.1160   -7.5580  -25.5140 C   0  0  0  0  0  0  0  0  0  0  0  0
   -0.6050   -6.5810  -24.6410 C   0  0  0  0  0  0  0  0  0  0  0  0
    3.0120   -9.0630  -22.0840 C   0  0  0  0  0  0  0  0  0  0  0  0
    0.8980   -8.4180  -25.1050 C   0  0  0  0  0  0  0  0  0  0  0  0
   -0.0750   -6.4640  -23.3590 C   0  0  0  0  0  0  0  0  0  0  0  0
    2.4820   -9.1790  -23.3650 C   0  0  0  0  0  0  0  0  0  0  0  0
    1.5070   -7.2260  -21.6230 C   0  0  0  0  0  0  0  0  0  0  0  0
    7.7160  -13.9070  -18.8960 C   0  0  0  0  0  0  0  0  0  0  0  0
    6.6360  -12.4300  -17.3280 C   0  0  0  0  0  0  0  0  0  0  0  0
    2.5140   -8.0920  -21.2160 C   0  0  0  0  0  0  0  0  0  0  0  0
    5.1050  -10.5980  -18.0640 C   0  0  0  0  0  0  0  0  0  0  0  0
    6.2570  -12.1690  -19.6800 C   0  0  0  0  0  0  0  0  0  0  0  0
    7.4720  -13.5020  -17.5840 C   0  0  0  0  0  0  0  0  0  0  0  0
    7.0980  -13.2350  -19.9430 C   0  0  0  0  0  0  0  0  0  0  0  0
    1.4400   -8.2990  -23.7880 C   0  0  0  0  0  0  0  0  0  0  0  0
    0.9620   -7.3450  -22.9370 C   0  0  0  0  0  0  0  0  0  0  0  0
    6.0230  -11.7620  -18.3720 C   0  0  0  0  0  0  0  0  0  0  0  0
    2.1617   -9.6680  -18.8331 H   0  0  0  0  0  0  0  0  0  0  0  0
    3.8097  -10.9608  -19.6689 H   0  0  0  0  0  0  0  0  0  0  0  0
    8.0532  -16.7676  -14.6648 H   0  0  0  0  0  0  0  0  0  0  0  0
    9.2803  -15.7143  -14.8917 H   0  0  0  0  0  0  0  0  0  0  0  0
    7.8877  -15.2096  -14.2042 H   0  0  0  0  0  0  0  0  0  0  0  0
    6.8130  -13.0595  -21.9929 H   0  0  0  0  0  0  0  0  0  0  0  0
    8.3109  -13.5738  -21.5947 H   0  0  0  0  0  0  0  0  0  0  0  0
    7.0446  -14.6011  -21.5067 H   0  0  0  0  0  0  0  0  0  0  0  0
    8.1332  -16.0753  -16.9502 H   0  0  0  0  0  0  0  0  0  0  0  0
    6.7406  -15.5706  -16.2627 H   0  0  0  0  0  0  0  0  0  0  0  0
   -0.4965   -7.6386  -26.4353 H   0  0  0  0  0  0  0  0  0  0  0  0
   -1.3357   -5.9662  -24.9378 H   0  0  0  0  0  0  0  0  0  0  0  0
    3.7466   -9.6731  -21.7871 H   0  0  0  0  0  0  0  0  0  0  0  0
    1.2463   -9.1167  -25.7300 H   0  0  0  0  0  0  0  0  0  0  0  0
   -0.4215   -5.7630  -22.7356 H   0  0  0  0  0  0  0  0  0  0  0  0
    2.8305   -9.8782  -23.9892 H   0  0  0  0  0  0  0  0  0  0  0  0
    1.1657   -6.5231  -20.9989 H   0  0  0  0  0  0  0  0  0  0  0  0
    8.3302  -14.6741  -19.0814 H   0  0  0  0  0  0  0  0  0  0  0  0
    6.4746  -12.1374  -16.3855 H   0  0  0  0  0  0  0  0  0  0  0  0
  1  3  2  0  0  0  0
  1  4  2  0  0  0  0
  1  7  1  0  0  0  0
  1 21  1  0  0  0  0
  2 23  1  0  0  0  0
  5 22  2  0  0  0  0
  6 11  1  0  0  0  0
  6 24  1  0  0  0  0
  7  8  1  0  0  0  0
  8 22  1  0  0  0  0
  9 11  1  0  0  0  0
 10 25  1  0  0  0  0
 12 13  2  0  0  0  0
 12 15  1  0  0  0  0
 13 16  1  0  0  0  0
 14 17  2  0  0  0  0
 14 21  1  0  0  0  0
 15 26  2  0  0  0  0
 16 27  2  0  0  0  0
 17 26  1  0  0  0  0
 18 21  2  0  0  0  0
 18 27  1  0  0  0  0
 19 24  2  0  0  0  0
 19 25  1  0  0  0  0
 20 24  1  0  0  0  0
 20 28  2  0  0  0  0
 22 28  1  0  0  0  0
 23 25  2  0  0  0  0
 23 28  1  0  0  0  0
 26 27  1  0  0  0  0
  7 29  1  0  0  0  0
  8 30  1  0  0  0  0
  9 31  1  0  0  0  0
  9 32  1  0  0  0  0
  9 33  1  0  0  0  0
 10 34  1  0  0  0  0
 10 35  1  0  0  0  0
 10 36  1  0  0  0  0
 11 37  1  0  0  0  0
 11 38  1  0  0  0  0
 12 39  1  0  0  0  0
 13 40  1  0  0  0  0
 14 41  1  0  0  0  0
 15 42  1  0  0  0  0
 16 43  1  0  0  0  0
 17 44  1  0  0  0  0
 18 45  1  0  0  0  0
 19 46  1  0  0  0  0
 20 47  1  0  0  0  0
M  END
> <pdb_id>
6PDG

> <uniprot_id>
Q9H7Z6

> <usmiles>
S(=O)(=O)(NNC(=O)c1c(F)c(cc(OCC)c1)C)c2cc3c(cc2)cccc3

$$$$
O9J_A_806
          07212403243D 1   1.00000     0.00000     0
            
 43 45  0  0  0  0            999 V2000
    3.2841   -7.8366  -19.7269 S   0  0  0  0  0  0  0  0  0  0  0  0
    5.9042  -11.2661  -20.8364 F   0  0  0  0  0  0  0  0  0  0  0  0
    2.6862   -6.6676  -19.1367 O   0  0  0  0  0  0  0  0  0  0  0  0
    4.6493   -7.4141  -19.9374 O   0  0  0  0  0  0  0  0  0  0  0  0
    5.5936   -9.8069  -17.2070 O   0  0  0  0  0  0  0  0  0  0  0  0
    3.2363   -9.1685  -18.7332 N   0  0  0  0  0  0  0  0  0  0  0  0
    4.0979  -10.2669  -18.9516 N   0  0  0  0  0  0  0  0  0  0  0  0
    8.2852  -14.1612  -15.7652 N   0  0  0  0  0  0  0  0  0  0  0  0
    7.2389  -13.5192  -21.7307 C   0  0  0  0  0  0  0  0  0  0  0  0
    8.7274  -14.8373  -14.7249 C   0  0  0  0  0  0  0  0  0  0  0  0
    8.5536  -16.2179  -14.6991 C   0  0  0  0  0  0  0  0  0  0  0  0
    1.4418   -8.7439  -23.8384 C   0  0  0  0  0  0  0  0  0  0  0  0
    7.9306  -16.8823  -15.7697 C   0  0  0  0  0  0  0  0  0  0  0  0
    2.6125   -9.3894  -23.4406 C   0  0  0  0  0  0  0  0  0  0  0  0
    0.8196   -7.8236  -22.9933 C   0  0  0  0  0  0  0  0  0  0  0  0
    3.1719   -9.1206  -22.1856 C   0  0  0  0  0  0  0  0  0  0  0  0
    1.3790   -7.5568  -21.7433 C   0  0  0  0  0  0  0  0  0  0  0  0
    7.4773  -16.1182  -16.8592 C   0  0  0  0  0  0  0  0  0  0  0  0
    7.4723  -14.1455  -19.2605 C   0  0  0  0  0  0  0  0  0  0  0  0
    6.5287  -12.6705  -17.5465 C   0  0  0  0  0  0  0  0  0  0  0  0
    2.5447   -8.2013  -21.3436 C   0  0  0  0  0  0  0  0  0  0  0  0
    5.2777  -10.5180  -18.1500 C   0  0  0  0  0  0  0  0  0  0  0  0
    6.3142  -12.0932  -19.8765 C   0  0  0  0  0  0  0  0  0  0  0  0
    7.6906  -14.7477  -16.7854 C   0  0  0  0  0  0  0  0  0  0  0  0
    7.0038  -13.2623  -20.2473 C   0  0  0  0  0  0  0  0  0  0  0  0
    7.2193  -13.8446  -17.9153 C   0  0  0  0  0  0  0  0  0  0  0  0
    6.0872  -11.7904  -18.5319 C   0  0  0  0  0  0  0  0  0  0  0  0
    2.3031   -9.5249  -18.7791 H   0  0  0  0  0  0  0  0  0  0  0  0
    3.8829  -10.9007  -19.6946 H   0  0  0  0  0  0  0  0  0  0  0  0
    6.8305  -12.7798  -22.2660 H   0  0  0  0  0  0  0  0  0  0  0  0
    8.2218  -13.5574  -21.9108 H   0  0  0  0  0  0  0  0  0  0  0  0
    6.8187  -14.3891  -21.9891 H   0  0  0  0  0  0  0  0  0  0  0  0
    9.1799  -14.3670  -13.9672 H   0  0  0  0  0  0  0  0  0  0  0  0
    8.8752  -16.7425  -13.9109 H   0  0  0  0  0  0  0  0  0  0  0  0
    1.0456   -8.9418  -24.7350 H   0  0  0  0  0  0  0  0  0  0  0  0
    7.8125  -17.8753  -15.7566 H   0  0  0  0  0  0  0  0  0  0  0  0
    3.0533  -10.0456  -24.0531 H   0  0  0  0  0  0  0  0  0  0  0  0
   -0.0186   -7.3602  -23.2809 H   0  0  0  0  0  0  0  0  0  0  0  0
    4.0106   -9.5818  -21.8961 H   0  0  0  0  0  0  0  0  0  0  0  0
    0.9396   -6.8989  -21.1317 H   0  0  0  0  0  0  0  0  0  0  0  0
    7.0253  -16.5391  -17.6457 H   0  0  0  0  0  0  0  0  0  0  0  0
    7.9758  -14.9718  -19.5126 H   0  0  0  0  0  0  0  0  0  0  0  0
    6.3569  -12.4712  -16.5818 H   0  0  0  0  0  0  0  0  0  0  0  0
  1  3  2  0  0  0  0
  1  4  2  0  0  0  0
  1  6  1  0  0  0  0
  1 21  1  0  0  0  0
  2 23  1  0  0  0  0
  5 22  2  0  0  0  0
  6  7  1  0  0  0  0
  7 22  1  0  0  0  0
  8 10  2  0  0  0  0
  8 24  1  0  0  0  0
  9 25  1  0  0  0  0
 10 11  1  0  0  0  0
 11 13  2  0  0  0  0
 12 14  2  0  0  0  0
 12 15  1  0  0  0  0
 13 18  1  0  0  0  0
 14 16  1  0  0  0  0
 15 17  2  0  0  0  0
 16 21  2  0  0  0  0
 17 21  1  0  0  0  0
 18 24  2  0  0  0  0
 19 25  2  0  0  0  0
 19 26  1  0  0  0  0
 20 26  2  0  0  0  0
 20 27  1  0  0  0  0
 22 27  1  0  0  0  0
 23 25  1  0  0  0  0
 23 27  2  0  0  0  0
 24 26  1  0  0  0  0
  6 28  1  0  0  0  0
  7 29  1  0  0  0  0
  9 30  1  0  0  0  0
  9 31  1  0  0  0  0
  9 32  1  0  0  0  0
 10 33  1  0  0  0  0
 11 34  1  0  0  0  0
 12 35  1  0  0  0  0
 13 36  1  0  0  0  0
 14 37  1  0  0  0  0
 15 38  1  0  0  0  0
 16 39  1  0  0  0  0
 17 40  1  0  0  0  0
 18 41  1  0  0  0  0
 19 42  1  0  0  0  0
 20 43  1  0  0  0  0
M  END
> <pdb_id>
6PDA

> <uniprot_id>
Q9H7Z6

> <usmiles>
S(=O)(=O)(NNC(=O)c1c(F)c(cc(c2ncccc2)c1)C)c3ccccc3

$$$$
O9P_A_806
          07212403243D 1   1.00000     0.00000     0
            
 42 43  0  0  0  0            999 V2000
    3.2010   -7.9416  -19.7074 S   0  0  0  0  0  0  0  0  0  0  0  0
    5.7157  -11.4748  -20.7822 F   0  0  0  0  0  0  0  0  0  0  0  0
    4.5614   -7.5226  -19.8518 O   0  0  0  0  0  0  0  0  0  0  0  0
    2.5482   -6.8056  -19.1454 O   0  0  0  0  0  0  0  0  0  0  0  0
    5.4107   -9.8510  -17.2063 O   0  0  0  0  0  0  0  0  0  0  0  0
    7.9778  -14.2136  -16.5837 O   0  0  0  0  0  0  0  0  0  0  0  0
    3.1221   -9.2682  -18.7270 N   0  0  0  0  0  0  0  0  0  0  0  0
    3.9821  -10.3340  -18.9494 N   0  0  0  0  0  0  0  0  0  0  0  0
    8.6831  -15.4755  -14.3058 C   0  0  0  0  0  0  0  0  0  0  0  0
    7.3249  -13.6447  -21.4847 C   0  0  0  0  0  0  0  0  0  0  0  0
    8.1936  -15.5916  -16.7598 C   0  0  0  0  0  0  0  0  0  0  0  0
    8.6216  -16.2058  -15.4307 C   0  0  0  0  0  0  0  0  0  0  0  0
    1.4396   -8.7769  -23.8236 C   0  0  0  0  0  0  0  0  0  0  0  0
    0.8299   -7.8544  -22.9848 C   0  0  0  0  0  0  0  0  0  0  0  0
    2.5914   -9.4412  -23.4133 C   0  0  0  0  0  0  0  0  0  0  0  0
    1.3720   -7.6021  -21.7357 C   0  0  0  0  0  0  0  0  0  0  0  0
    3.1314   -9.1938  -22.1533 C   0  0  0  0  0  0  0  0  0  0  0  0
    7.6699  -13.9511  -18.9970 C   0  0  0  0  0  0  0  0  0  0  0  0
    6.6105  -12.4558  -17.4123 C   0  0  0  0  0  0  0  0  0  0  0  0
    2.5167   -8.2723  -21.3185 C   0  0  0  0  0  0  0  0  0  0  0  0
    5.1357  -10.5764  -18.1460 C   0  0  0  0  0  0  0  0  0  0  0  0
    6.2613  -12.1570  -19.7730 C   0  0  0  0  0  0  0  0  0  0  0  0
    7.4208  -13.5455  -17.6769 C   0  0  0  0  0  0  0  0  0  0  0  0
    7.0807  -13.2479  -20.0436 C   0  0  0  0  0  0  0  0  0  0  0  0
    6.0252  -11.7605  -18.4558 C   0  0  0  0  0  0  0  0  0  0  0  0
    2.1910   -9.6263  -18.7966 H   0  0  0  0  0  0  0  0  0  0  0  0
    3.7849  -10.9588  -19.7048 H   0  0  0  0  0  0  0  0  0  0  0  0
    8.9669  -15.9026  -13.4473 H   0  0  0  0  0  0  0  0  0  0  0  0
    8.4450  -14.5045  -14.3264 H   0  0  0  0  0  0  0  0  0  0  0  0
    6.8217  -13.0280  -22.0901 H   0  0  0  0  0  0  0  0  0  0  0  0
    8.3026  -13.5850  -21.6858 H   0  0  0  0  0  0  0  0  0  0  0  0
    7.0115  -14.5832  -21.6297 H   0  0  0  0  0  0  0  0  0  0  0  0
    8.9121  -15.7334  -17.4407 H   0  0  0  0  0  0  0  0  0  0  0  0
    7.3483  -16.0254  -17.0719 H   0  0  0  0  0  0  0  0  0  0  0  0
    8.8623  -17.1758  -15.3965 H   0  0  0  0  0  0  0  0  0  0  0  0
    1.0500   -8.9648  -24.7253 H   0  0  0  0  0  0  0  0  0  0  0  0
    0.0039   -7.3747  -23.2807 H   0  0  0  0  0  0  0  0  0  0  0  0
    3.0327  -10.0979  -24.0248 H   0  0  0  0  0  0  0  0  0  0  0  0
    0.9380   -6.9346  -21.1307 H   0  0  0  0  0  0  0  0  0  0  0  0
    3.9544   -9.6761  -21.8534 H   0  0  0  0  0  0  0  0  0  0  0  0
    8.2627  -14.7347  -19.1832 H   0  0  0  0  0  0  0  0  0  0  0  0
    6.4479  -12.1708  -16.4676 H   0  0  0  0  0  0  0  0  0  0  0  0
  1  3  2  0  0  0  0
  1  4  2  0  0  0  0
  1  7  1  0  0  0  0
  1 20  1  0  0  0  0
  2 22  1  0  0  0  0
  5 21  2  0  0  0  0
  6 11  1  0  0  0  0
  6 23  1  0  0  0  0
  7  8  1  0  0  0  0
  8 21  1  0  0  0  0
  9 12  2  0  0  0  0
 10 24  1  0  0  0  0
 11 12  1  0  0  0  0
 13 14  2  0  0  0  0
 13 15  1  0  0  0  0
 14 16  1  0  0  0  0
 15 17  2  0  0  0  0
 16 20  2  0  0  0  0
 17 20  1  0  0  0  0
 18 23  2  0  0  0  0
 18 24  1  0  0  0  0
 19 23  1  0  0  0  0
 19 25  2  0  0  0  0
 21 25  1  0  0  0  0
 22 24  2  0  0  0  0
 22 25  1  0  0  0  0
  7 26  1  0  0  0  0
  8 27  1  0  0  0  0
  9 28  1  0  0  0  0
  9 29  1  0  0  0  0
 10 30  1  0  0  0  0
 10 31  1  0  0  0  0
 10 32  1  0  0  0  0
 11 33  1  0  0  0  0
 11 34  1  0  0  0  0
 12 35  1  0  0  0  0
 13 36  1  0  0  0  0
 14 37  1  0  0  0  0
 15 38  1  0  0  0  0
 16 39  1  0  0  0  0
 17 40  1  0  0  0  0
 18 41  1  0  0  0  0
 19 42  1  0  0  0  0
M  END
> <pdb_id>
6PDC

> <uniprot_id>
Q9H7Z6

> <usmiles>
S(=O)(=O)(NNC(=O)c1c(F)c(cc(OCC=C)c1)C)c2ccccc2

$$$$
O9S_A_803
          07212403243D 1   1.00000     0.00000     0
            
 44 45  0  0  0  0            999 V2000
    3.1693   -7.9131  -19.6852 S   0  0  0  0  0  0  0  0  0  0  0  0
    5.7372  -11.3938  -20.7841 F   0  0  0  0  0  0  0  0  0  0  0  0
    2.5667   -6.7714  -19.0986 O   0  0  0  0  0  0  0  0  0  0  0  0
    4.5587   -7.5328  -19.8213 O   0  0  0  0  0  0  0  0  0  0  0  0
    5.4431   -9.7757  -17.1833 O   0  0  0  0  0  0  0  0  0  0  0  0
    7.9726  -14.1559  -16.5306 O   0  0  0  0  0  0  0  0  0  0  0  0
    3.0943   -9.2344  -18.7086 N   0  0  0  0  0  0  0  0  0  0  0  0
    3.9853  -10.2798  -18.9293 N   0  0  0  0  0  0  0  0  0  0  0  0
    8.1067  -15.7177  -14.6808 C   0  0  0  0  0  0  0  0  0  0  0  0
    8.4130  -16.3297  -16.9560 C   0  0  0  0  0  0  0  0  0  0  0  0
    7.3001  -13.5286  -21.4771 C   0  0  0  0  0  0  0  0  0  0  0  0
    1.4241   -8.7422  -23.7860 C   0  0  0  0  0  0  0  0  0  0  0  0
    2.5980   -9.3697  -23.3735 C   0  0  0  0  0  0  0  0  0  0  0  0
    0.7838   -7.8539  -22.9414 C   0  0  0  0  0  0  0  0  0  0  0  0
    3.1257   -9.1090  -22.1202 C   0  0  0  0  0  0  0  0  0  0  0  0
    1.3144   -7.5912  -21.6861 C   0  0  0  0  0  0  0  0  0  0  0  0
    7.6405  -13.8671  -18.9741 C   0  0  0  0  0  0  0  0  0  0  0  0
    6.5971  -12.4006  -17.3941 C   0  0  0  0  0  0  0  0  0  0  0  0
    2.4834   -8.2218  -21.2866 C   0  0  0  0  0  0  0  0  0  0  0  0
    5.1491  -10.5051  -18.1249 C   0  0  0  0  0  0  0  0  0  0  0  0
    6.2615  -12.0694  -19.7589 C   0  0  0  0  0  0  0  0  0  0  0  0
    7.5905  -15.4443  -16.0899 C   0  0  0  0  0  0  0  0  0  0  0  0
    7.3930  -13.5015  -17.6422 C   0  0  0  0  0  0  0  0  0  0  0  0
    7.0697  -13.1525  -20.0290 C   0  0  0  0  0  0  0  0  0  0  0  0
    6.0282  -11.6869  -18.4379 C   0  0  0  0  0  0  0  0  0  0  0  0
    2.1719   -9.6111  -18.7935 H   0  0  0  0  0  0  0  0  0  0  0  0
    3.8042  -10.9057  -19.6879 H   0  0  0  0  0  0  0  0  0  0  0  0
    7.8235  -16.6328  -14.3938 H   0  0  0  0  0  0  0  0  0  0  0  0
    9.1050  -15.6605  -14.6747 H   0  0  0  0  0  0  0  0  0  0  0  0
    7.7300  -15.0391  -14.0503 H   0  0  0  0  0  0  0  0  0  0  0  0
    8.2239  -17.2855  -16.7307 H   0  0  0  0  0  0  0  0  0  0  0  0
    8.1858  -16.1621  -17.9153 H   0  0  0  0  0  0  0  0  0  0  0  0
    9.3825  -16.1371  -16.8044 H   0  0  0  0  0  0  0  0  0  0  0  0
    6.8047  -12.8932  -22.0694 H   0  0  0  0  0  0  0  0  0  0  0  0
    8.2778  -13.4820  -21.6820 H   0  0  0  0  0  0  0  0  0  0  0  0
    6.9702  -14.4591  -21.6363 H   0  0  0  0  0  0  0  0  0  0  0  0
    1.0454   -8.9339  -24.6915 H   0  0  0  0  0  0  0  0  0  0  0  0
    3.0613  -10.0110  -23.9851 H   0  0  0  0  0  0  0  0  0  0  0  0
   -0.0590   -7.4023  -23.2341 H   0  0  0  0  0  0  0  0  0  0  0  0
    3.9665   -9.5615  -21.8232 H   0  0  0  0  0  0  0  0  0  0  0  0
    0.8554   -6.9494  -21.0718 H   0  0  0  0  0  0  0  0  0  0  0  0
    8.2327  -14.6487  -19.1701 H   0  0  0  0  0  0  0  0  0  0  0  0
    6.4291  -12.1147  -16.4506 H   0  0  0  0  0  0  0  0  0  0  0  0
    6.6091  -15.6119  -16.1835 H   0  0  0  0  0  0  0  0  0  0  0  0
  1  3  2  0  0  0  0
  1  4  2  0  0  0  0
  1  7  1  0  0  0  0
  1 19  1  0  0  0  0
  2 21  1  0  0  0  0
  5 20  2  0  0  0  0
  6 22  1  0  0  0  0
  6 23  1  0  0  0  0
  7  8  1  0  0  0  0
  8 20  1  0  0  0  0
  9 22  1  0  0  0  0
 10 22  1  0  0  0  0
 11 24  1  0  0  0  0
 12 13  2  0  0  0  0
 12 14  1  0  0  0  0
 13 15  1  0  0  0  0
 14 16  2  0  0  0  0
 15 19  2  0  0  0  0
 16 19  1  0  0  0  0
 17 23  2  0  0  0  0
 17 24  1  0  0  0  0
 18 23  1  0  0  0  0
 18 25  2  0  0  0  0
 20 25  1  0  0  0  0
 21 24  2  0  0  0  0
 21 25  1  0  0  0  0
  7 26  1  0  0  0  0
  8 27  1  0  0  0  0
  9 28  1  0  0  0  0
  9 29  1  0  0  0  0
  9 30  1  0  0  0  0
 10 31  1  0  0  0  0
 10 32  1  0  0  0  0
 10 33  1  0  0  0  0
 11 34  1  0  0  0  0
 11 35  1  0  0  0  0
 11 36  1  0  0  0  0
 12 37  1  0  0  0  0
 13 38  1  0  0  0  0
 14 39  1  0  0  0  0
 15 40  1  0  0  0  0
 16 41  1  0  0  0  0
 17 42  1  0  0  0  0
 18 43  1  0  0  0  0
 22 44  1  0  0  0  0
M  END
> <pdb_id>
6PDD

> <uniprot_id>
Q9H7Z6

> <usmiles>
S(=O)(=O)(NNC(=O)c1c(F)c(cc(OC(C)C)c1)C)c2ccccc2

$$$$
O9V_A_806
          07212403243D 1   1.00000     0.00000     0
            
 44 45  0  0  0  0            999 V2000
    3.2418   -8.0169  -19.6533 S   0  0  0  0  0  0  0  0  0  0  0  0
    5.7999  -11.5316  -20.5551 F   0  0  0  0  0  0  0  0  0  0  0  0
    4.5881   -7.6494  -19.7819 O   0  0  0  0  0  0  0  0  0  0  0  0
    2.6600   -6.8561  -19.1061 O   0  0  0  0  0  0  0  0  0  0  0  0
    5.3372   -9.8419  -17.0301 O   0  0  0  0  0  0  0  0  0  0  0  0
    8.1858  -14.1744  -16.4500 O   0  0  0  0  0  0  0  0  0  0  0  0
    3.0808   -9.3375  -18.6608 N   0  0  0  0  0  0  0  0  0  0  0  0
    4.0364  -10.4168  -18.8203 N   0  0  0  0  0  0  0  0  0  0  0  0
    9.0855  -15.0280  -14.1478 C   0  0  0  0  0  0  0  0  0  0  0  0
    7.4567  -13.5911  -21.3046 C   0  0  0  0  0  0  0  0  0  0  0  0
    7.6241  -15.4831  -16.2328 C   0  0  0  0  0  0  0  0  0  0  0  0
    8.3096  -16.0982  -14.9915 C   0  0  0  0  0  0  0  0  0  0  0  0
    1.5199   -8.9028  -23.7936 C   0  0  0  0  0  0  0  0  0  0  0  0
    2.6750   -9.5787  -23.3612 C   0  0  0  0  0  0  0  0  0  0  0  0
    0.8946   -7.9526  -22.9468 C   0  0  0  0  0  0  0  0  0  0  0  0
    3.1999   -9.3166  -22.1100 C   0  0  0  0  0  0  0  0  0  0  0  0
    1.4186   -7.6846  -21.6987 C   0  0  0  0  0  0  0  0  0  0  0  0
    7.8248  -13.8862  -18.7613 C   0  0  0  0  0  0  0  0  0  0  0  0
    6.7150  -12.4536  -17.2005 C   0  0  0  0  0  0  0  0  0  0  0  0
    2.5656   -8.3565  -21.2624 C   0  0  0  0  0  0  0  0  0  0  0  0
    5.1444  -10.5929  -17.9634 C   0  0  0  0  0  0  0  0  0  0  0  0
    6.3573  -12.1556  -19.5468 C   0  0  0  0  0  0  0  0  0  0  0  0
    7.5825  -13.5104  -17.4738 C   0  0  0  0  0  0  0  0  0  0  0  0
    7.2058  -13.2004  -19.8153 C   0  0  0  0  0  0  0  0  0  0  0  0
    6.1119  -11.7788  -18.2414 C   0  0  0  0  0  0  0  0  0  0  0  0
    2.1696   -9.7191  -18.8158 H   0  0  0  0  0  0  0  0  0  0  0  0
    3.9046  -11.0649  -19.5704 H   0  0  0  0  0  0  0  0  0  0  0  0
    9.5108  -15.4704  -13.3583 H   0  0  0  0  0  0  0  0  0  0  0  0
    9.7929  -14.6057  -14.7145 H   0  0  0  0  0  0  0  0  0  0  0  0
    8.4474  -14.3255  -13.8326 H   0  0  0  0  0  0  0  0  0  0  0  0
    6.9280  -12.9873  -21.9012 H   0  0  0  0  0  0  0  0  0  0  0  0
    8.4301  -13.4979  -21.5143 H   0  0  0  0  0  0  0  0  0  0  0  0
    7.1730  -14.5384  -21.4531 H   0  0  0  0  0  0  0  0  0  0  0  0
    7.7896  -16.0602  -17.0325 H   0  0  0  0  0  0  0  0  0  0  0  0
    6.6397  -15.4077  -16.0742 H   0  0  0  0  0  0  0  0  0  0  0  0
    7.6103  -16.5182  -14.4131 H   0  0  0  0  0  0  0  0  0  0  0  0
    8.9558  -16.7984  -15.2950 H   0  0  0  0  0  0  0  0  0  0  0  0
    1.1393   -9.0923  -24.6987 H   0  0  0  0  0  0  0  0  0  0  0  0
    3.1160  -10.2484  -23.9587 H   0  0  0  0  0  0  0  0  0  0  0  0
    0.0716   -7.4755  -23.2550 H   0  0  0  0  0  0  0  0  0  0  0  0
    4.0202   -9.7967  -21.7991 H   0  0  0  0  0  0  0  0  0  0  0  0
    0.9785   -7.0100  -21.1060 H   0  0  0  0  0  0  0  0  0  0  0  0
    8.4423  -14.6490  -18.9533 H   0  0  0  0  0  0  0  0  0  0  0  0
    6.5309  -12.1863  -16.2546 H   0  0  0  0  0  0  0  0  0  0  0  0
  1  3  2  0  0  0  0
  1  4  2  0  0  0  0
  1  7  1  0  0  0  0
  1 20  1  0  0  0  0
  2 22  1  0  0  0  0
  5 21  2  0  0  0  0
  6 11  1  0  0  0  0
  6 23  1  0  0  0  0
  7  8  1  0  0  0  0
  8 21  1  0  0  0  0
  9 12  1  0  0  0  0
 10 24  1  0  0  0  0
 11 12  1  0  0  0  0
 13 14  2  0  0  0  0
 13 15  1  0  0  0  0
 14 16  1  0  0  0  0
 15 17  2  0  0  0  0
 16 20  2  0  0  0  0
 17 20  1  0  0  0  0
 18 23  2  0  0  0  0
 18 24  1  0  0  0  0
 19 23  1  0  0  0  0
 19 25  2  0  0  0  0
 21 25  1  0  0  0  0
 22 24  2  0  0  0  0
 22 25  1  0  0  0  0
  7 26  1  0  0  0  0
  8 27  1  0  0  0  0
  9 28  1  0  0  0  0
  9 29  1  0  0  0  0
  9 30  1  0  0  0  0
 10 31  1  0  0  0  0
 10 32  1  0  0  0  0
 10 33  1  0  0  0  0
 11 34  1  0  0  0  0
 11 35  1  0  0  0  0
 12 36  1  0  0  0  0
 12 37  1  0  0  0  0
 13 38  1  0  0  0  0
 14 39  1  0  0  0  0
 15 40  1  0  0  0  0
 16 41  1  0  0  0  0
 17 42  1  0  0  0  0
 18 43  1  0  0  0  0
 19 44  1  0  0  0  0
M  END
> <pdb_id>
6PDE

> <uniprot_id>
Q9H7Z6

> <usmiles>
S(=O)(=O)(NNC(=O)c1c(F)c(cc(OCCC)c1)C)c2ccccc2

$$$$
O9W_A_913
          07192420443D 1   1.00000     0.00000     0
            
 59 62  0  0  0  0            999 V2000
    7.4386  -23.9349   45.9394 Cl  0  0  0  0  0  0  0  0  0  0  0  0
    8.2159  -13.7129   54.2183 F   0  0  0  0  0  0  0  0  0  0  0  0
    8.5323  -22.5042   54.4562 O   0  0  0  0  0  0  0  0  0  0  0  0
    9.1843  -19.1142   48.2654 N   0  0  0  0  0  0  0  0  0  0  0  0
   10.4030  -18.5411   48.2086 N   0  0  0  0  0  0  0  0  0  0  0  0
   10.2769  -19.6820   50.1079 N   0  0  0  0  0  0  0  0  0  0  0  0
    9.1343  -19.8251   49.4056 N   0  0  0  0  0  0  0  0  0  0  0  0
   11.6564  -19.0175   55.3409 N   0  0  0  0  0  0  0  0  0  0  0  0
   10.4991  -21.3681   54.3383 N   0  0  0  0  0  0  0  0  0  0  0  0
   12.4403  -18.4784   49.8179 C   0  0  0  0  0  0  0  0  0  0  0  0
   13.0055  -21.3604   53.5874 C   0  0  0  0  0  0  0  0  0  0  0  0
   10.5501  -19.6791   56.0766 C   0  0  0  0  0  0  0  0  0  0  0  0
   10.5408  -21.2028   55.7952 C   0  0  0  0  0  0  0  0  0  0  0  0
    7.9652  -20.5514   49.8461 C   0  0  0  0  0  0  0  0  0  0  0  0
   11.6590  -19.2381   53.8591 C   0  0  0  0  0  0  0  0  0  0  0  0
   11.9824  -17.6378   55.8381 C   0  0  0  0  0  0  0  0  0  0  0  0
    7.7554  -24.7048   48.5212 C   0  0  0  0  0  0  0  0  0  0  0  0
    8.8836  -15.3484   55.7992 C   0  0  0  0  0  0  0  0  0  0  0  0
   10.2474  -14.8621   53.8344 C   0  0  0  0  0  0  0  0  0  0  0  0
    9.3326  -22.2639   52.3272 C   0  0  0  0  0  0  0  0  0  0  0  0
    9.8231  -16.3084   56.1936 C   0  0  0  0  0  0  0  0  0  0  0  0
   11.1726  -15.8360   54.2259 C   0  0  0  0  0  0  0  0  0  0  0  0
    7.9345  -24.4042   49.8695 C   0  0  0  0  0  0  0  0  0  0  0  0
    8.2526  -22.8446   51.7921 C   0  0  0  0  0  0  0  0  0  0  0  0
    7.7623  -22.3185   48.0679 C   0  0  0  0  0  0  0  0  0  0  0  0
    7.6846  -23.6358   47.6287 C   0  0  0  0  0  0  0  0  0  0  0  0
   11.0509  -18.9128   49.4382 C   0  0  0  0  0  0  0  0  0  0  0  0
    9.1061  -14.6230   54.6200 C   0  0  0  0  0  0  0  0  0  0  0  0
    9.4510  -22.0418   53.7875 C   0  0  0  0  0  0  0  0  0  0  0  0
   11.5711  -20.7605   53.5022 C   0  0  2  0  0  0  0  0  0  0  0  0
   10.9607  -16.5724   55.4030 C   0  0  0  0  0  0  0  0  0  0  0  0
    7.9874  -22.0268   49.4110 C   0  0  0  0  0  0  0  0  0  0  0  0
    8.0785  -23.0863   50.3132 C   0  0  0  0  0  0  0  0  0  0  0  0
   12.6754  -18.8580   50.7127 H   0  0  0  0  0  0  0  0  0  0  0  0
   13.0913  -18.8084   49.1343 H   0  0  0  0  0  0  0  0  0  0  0  0
   12.4778  -17.4799   49.8591 H   0  0  0  0  0  0  0  0  0  0  0  0
   13.6149  -20.8554   52.9762 H   0  0  0  0  0  0  0  0  0  0  0  0
   13.3414  -21.2890   54.5266 H   0  0  0  0  0  0  0  0  0  0  0  0
   12.9814  -22.3221   53.3143 H   0  0  0  0  0  0  0  0  0  0  0  0
    9.6790  -19.2856   55.7830 H   0  0  0  0  0  0  0  0  0  0  0  0
   10.6708  -19.5270   57.0576 H   0  0  0  0  0  0  0  0  0  0  0  0
   11.3679  -21.6257   56.1655 H   0  0  0  0  0  0  0  0  0  0  0  0
    9.7356  -21.6243   56.2122 H   0  0  0  0  0  0  0  0  0  0  0  0
    7.1526  -20.1155   49.4591 H   0  0  0  0  0  0  0  0  0  0  0  0
    7.9210  -20.5123   50.8443 H   0  0  0  0  0  0  0  0  0  0  0  0
   12.5037  -18.8635   53.4767 H   0  0  0  0  0  0  0  0  0  0  0  0
   10.8737  -18.7653   53.4593 H   0  0  0  0  0  0  0  0  0  0  0  0
   12.8810  -17.3779   55.4846 H   0  0  0  0  0  0  0  0  0  0  0  0
   12.0109  -17.6598   56.8374 H   0  0  0  0  0  0  0  0  0  0  0  0
    7.6805  -25.6507   48.2055 H   0  0  0  0  0  0  0  0  0  0  0  0
    8.0659  -15.1823   56.3504 H   0  0  0  0  0  0  0  0  0  0  0  0
   10.3977  -14.3368   52.9969 H   0  0  0  0  0  0  0  0  0  0  0  0
   10.0778  -21.9728   51.7273 H   0  0  0  0  0  0  0  0  0  0  0  0
    9.6858  -16.8130   57.0460 H   0  0  0  0  0  0  0  0  0  0  0  0
   11.9844  -16.0076   53.6678 H   0  0  0  0  0  0  0  0  0  0  0  0
    7.9607  -25.1490   50.5361 H   0  0  0  0  0  0  0  0  0  0  0  0
    7.5194  -23.1348   52.4071 H   0  0  0  0  0  0  0  0  0  0  0  0
    7.6553  -21.5718   47.4115 H   0  0  0  0  0  0  0  0  0  0  0  0
   11.2775  -20.8260   52.5486 H   0  0  0  0  0  0  0  0  0  0  0  0
  1 26  1  0  0  0  0
  2 28  1  0  0  0  0
  3 29  2  0  0  0  0
  4  5  2  0  0  0  0
  4  7  1  0  0  0  0
  5 27  1  0  0  0  0
  6  7  1  0  0  0  0
  6 27  2  0  0  0  0
  7 14  1  0  0  0  0
  8 12  1  0  0  0  0
  8 15  1  0  0  0  0
  8 16  1  0  0  0  0
  9 13  1  0  0  0  0
  9 29  1  0  0  0  0
  9 30  1  0  0  0  0
 10 27  1  0  0  0  0
 11 30  1  0  0  0  0
 12 13  1  0  0  0  0
 14 32  1  0  0  0  0
 15 30  1  0  0  0  0
 16 31  1  0  0  0  0
 17 23  2  0  0  0  0
 17 26  1  0  0  0  0
 18 21  2  0  0  0  0
 18 28  1  0  0  0  0
 19 22  1  0  0  0  0
 19 28  2  0  0  0  0
 20 24  2  0  0  0  0
 20 29  1  0  0  0  0
 21 31  1  0  0  0  0
 22 31  2  0  0  0  0
 23 33  1  0  0  0  0
 24 33  1  0  0  0  0
 25 26  2  0  0  0  0
 25 32  1  0  0  0  0
 32 33  2  0  0  0  0
 10 34  1  0  0  0  0
 10 35  1  0  0  0  0
 10 36  1  0  0  0  0
 11 37  1  0  0  0  0
 11 38  1  0  0  0  0
 11 39  1  0  0  0  0
 12 40  1  0  0  0  0
 12 41  1  0  0  0  0
 13 42  1  0  0  0  0
 13 43  1  0  0  0  0
 14 44  1  0  0  0  0
 14 45  1  0  0  0  0
 15 46  1  0  0  0  0
 15 47  1  0  0  0  0
 16 48  1  0  0  0  0
 16 49  1  0  0  0  0
 17 50  1  0  0  0  0
 18 51  1  0  0  0  0
 19 52  1  0  0  0  0
 20 53  1  0  0  0  0
 21 54  1  0  0  0  0
 22 55  1  0  0  0  0
 23 56  1  0  0  0  0
 24 57  1  0  0  0  0
 25 58  1  0  0  0  0
 30 59  1  0  0  0  0
M  END
> <pdb_id>
6Y5M

> <uniprot_id>
Q9R1E6

> <usmiles>
Clc1cc(c(cc1)/C=C/C(=O)N2[C@@H](CN(Cc3ccc(F)cc3)CC2)C)CN4N=NC(=N4)C

$$$$
O9Y_A_806
          07212403243D 1   1.00000     0.00000     0
            
 40 42  0  0  0  0            999 V2000
    3.2766   -7.9549  -19.6536 S   0  0  0  0  0  0  0  0  0  0  0  0
    5.8637  -11.5987  -20.8382 F   0  0  0  0  0  0  0  0  0  0  0  0
    4.5837   -7.4174  -19.8892 O   0  0  0  0  0  0  0  0  0  0  0  0
    2.5835   -6.8598  -19.0456 O   0  0  0  0  0  0  0  0  0  0  0  0
    5.6650   -9.9401  -17.2358 O   0  0  0  0  0  0  0  0  0  0  0  0
    3.2898   -9.2735  -18.6551 N   0  0  0  0  0  0  0  0  0  0  0  0
    4.1215  -10.3751  -18.8879 N   0  0  0  0  0  0  0  0  0  0  0  0
    7.8544  -16.0424  -16.7772 N   0  0  0  0  0  0  0  0  0  0  0  0
    8.2668  -14.2643  -15.5634 N   0  0  0  0  0  0  0  0  0  0  0  0
    7.7820  -14.7097  -16.7102 N   0  0  0  0  0  0  0  0  0  0  0  0
    7.1891  -13.8719  -21.5432 C   0  0  0  0  0  0  0  0  0  0  0  0
    8.3887  -16.4682  -15.6222 C   0  0  0  0  0  0  0  0  0  0  0  0
    8.6544  -15.3430  -14.8541 C   0  0  0  0  0  0  0  0  0  0  0  0
    1.6149   -8.8491  -23.7952 C   0  0  0  0  0  0  0  0  0  0  0  0
    0.9846   -7.9013  -22.9988 C   0  0  0  0  0  0  0  0  0  0  0  0
    2.7333   -9.5290  -23.3308 C   0  0  0  0  0  0  0  0  0  0  0  0
    1.4898   -7.6263  -21.7389 C   0  0  0  0  0  0  0  0  0  0  0  0
    3.2455   -9.2551  -22.0738 C   0  0  0  0  0  0  0  0  0  0  0  0
    7.4900  -14.2814  -19.0592 C   0  0  0  0  0  0  0  0  0  0  0  0
    6.5740  -12.7189  -17.4457 C   0  0  0  0  0  0  0  0  0  0  0  0
    2.6142   -8.3062  -21.2744 C   0  0  0  0  0  0  0  0  0  0  0  0
    5.3161  -10.6588  -18.1499 C   0  0  0  0  0  0  0  0  0  0  0  0
    6.2970  -12.3288  -19.8033 C   0  0  0  0  0  0  0  0  0  0  0  0
    7.2721  -13.8873  -17.7442 C   0  0  0  0  0  0  0  0  0  0  0  0
    6.9879  -13.4931  -20.0879 C   0  0  0  0  0  0  0  0  0  0  0  0
    6.1011  -11.9197  -18.4782 C   0  0  0  0  0  0  0  0  0  0  0  0
    2.3543   -9.6268  -18.6464 H   0  0  0  0  0  0  0  0  0  0  0  0
    3.8643  -11.0070  -19.6190 H   0  0  0  0  0  0  0  0  0  0  0  0
    6.7583  -13.1853  -22.1289 H   0  0  0  0  0  0  0  0  0  0  0  0
    8.1677  -13.9148  -21.7442 H   0  0  0  0  0  0  0  0  0  0  0  0
    6.7738  -14.7651  -21.7156 H   0  0  0  0  0  0  0  0  0  0  0  0
    8.5629  -17.4183  -15.3633 H   0  0  0  0  0  0  0  0  0  0  0  0
    9.0600  -15.3342  -13.9400 H   0  0  0  0  0  0  0  0  0  0  0  0
    1.2605   -9.0434  -24.7099 H   0  0  0  0  0  0  0  0  0  0  0  0
    0.1731   -7.4215  -23.3324 H   0  0  0  0  0  0  0  0  0  0  0  0
    3.1707  -10.2195  -23.9068 H   0  0  0  0  0  0  0  0  0  0  0  0
    1.0475   -6.9395  -21.1622 H   0  0  0  0  0  0  0  0  0  0  0  0
    4.0594   -9.7334  -21.7440 H   0  0  0  0  0  0  0  0  0  0  0  0
    7.9992  -15.1179  -19.2617 H   0  0  0  0  0  0  0  0  0  0  0  0
    6.4146  -12.4575  -16.4937 H   0  0  0  0  0  0  0  0  0  0  0  0
  1  3  2  0  0  0  0
  1  4  2  0  0  0  0
  1  6  1  0  0  0  0
  1 21  1  0  0  0  0
  2 23  1  0  0  0  0
  5 22  2  0  0  0  0
  6  7  1  0  0  0  0
  7 22  1  0  0  0  0
  8 10  1  0  0  0  0
  8 12  2  0  0  0  0
  9 10  1  0  0  0  0
  9 13  2  0  0  0  0
 10 24  1  0  0  0  0
 11 25  1  0  0  0  0
 12 13  1  0  0  0  0
 14 15  2  0  0  0  0
 14 16  1  0  0  0  0
 15 17  1  0  0  0  0
 16 18  2  0  0  0  0
 17 21  2  0  0  0  0
 18 21  1  0  0  0  0
 19 24  2  0  0  0  0
 19 25  1  0  0  0  0
 20 24  1  0  0  0  0
 20 26  2  0  0  0  0
 22 26  1  0  0  0  0
 23 25  2  0  0  0  0
 23 26  1  0  0  0  0
  6 27  1  0  0  0  0
  7 28  1  0  0  0  0
 11 29  1  0  0  0  0
 11 30  1  0  0  0  0
 11 31  1  0  0  0  0
 12 32  1  0  0  0  0
 13 33  1  0  0  0  0
 14 34  1  0  0  0  0
 15 35  1  0  0  0  0
 16 36  1  0  0  0  0
 17 37  1  0  0  0  0
 18 38  1  0  0  0  0
 19 39  1  0  0  0  0
 20 40  1  0  0  0  0
M  END
> <pdb_id>
6PDF

> <uniprot_id>
Q9H7Z6

> <usmiles>
S(=O)(=O)(NNC(=O)c1c(F)c(cc(N2N=CC=N2)c1)C)c3ccccc3

$$$$
OA1_A_1447
          07202403363D 1   1.00000     0.00000     0
            
 22 23  0  0  0  0            999 V2000
   42.1348  126.5377   22.9907 Br  0  0  0  0  0  0  0  0  0  0  0  0
   37.5939  130.8893   23.8471 O   0  0  0  0  0  0  0  0  0  0  0  0
   39.3523  132.8959   24.4232 O   0  0  0  0  0  0  0  0  0  0  0  0
   40.7345  134.7577   25.1546 N   0  0  0  0  0  0  0  0  0  0  0  0
   41.2143  132.4893   25.4834 N   0  0  0  0  0  0  0  0  0  0  0  0
   38.3425  126.8040   24.0614 C   0  0  0  0  0  0  0  0  0  0  0  0
   40.7588  131.3679   25.2612 C   0  0  0  0  0  0  0  0  0  0  0  0
   39.4520  126.4266   23.7353 C   0  0  0  0  0  0  0  0  0  0  0  0
   38.0281  128.0242   24.2138 C   0  0  0  0  0  0  0  0  0  0  0  0
   40.2527  128.6675   23.6258 C   0  0  0  0  0  0  0  0  0  0  0  0
   40.4224  127.2107   23.5074 C   0  0  0  0  0  0  0  0  0  0  0  0
   40.5125  133.4502   25.0616 C   0  0  0  0  0  0  0  0  0  0  0  0
   38.7133  130.4986   24.1442 C   0  0  0  0  0  0  0  0  0  0  0  0
   39.6608  131.5018   24.6335 C   0  0  0  0  0  0  0  0  0  0  0  0
   39.0397  129.0794   23.9925 C   0  0  0  0  0  0  0  0  0  0  0  0
   41.5591  135.0937   25.6098 H   0  0  0  0  0  0  0  0  0  0  0  0
   40.0769  135.4052   24.7695 H   0  0  0  0  0  0  0  0  0  0  0  0
   37.6372  126.1128   24.2187 H   0  0  0  0  0  0  0  0  0  0  0  0
   41.1795  130.5009   25.5282 H   0  0  0  0  0  0  0  0  0  0  0  0
   39.6075  125.4432   23.6418 H   0  0  0  0  0  0  0  0  0  0  0  0
   37.0974  128.2716   24.4831 H   0  0  0  0  0  0  0  0  0  0  0  0
   40.9993  129.3070   23.4428 H   0  0  0  0  0  0  0  0  0  0  0  0
  1 11  1  0  0  0  0
  2 13  2  0  0  0  0
  3 12  1  0  0  0  0
  3 14  1  0  0  0  0
  4 12  1  0  0  0  0
  5  7  1  0  0  0  0
  5 12  2  0  0  0  0
  6  8  2  0  0  0  0
  6  9  1  0  0  0  0
  7 14  2  0  0  0  0
  8 11  1  0  0  0  0
  9 15  2  0  0  0  0
 10 11  2  0  0  0  0
 10 15  1  0  0  0  0
 13 14  1  0  0  0  0
 13 15  1  0  0  0  0
  4 16  1  0  0  0  0
  4 17  1  0  0  0  0
  6 18  1  0  0  0  0
  7 19  1  0  0  0  0
  8 20  1  0  0  0  0
  9 21  1  0  0  0  0
 10 22  1  0  0  0  0
M  END
> <pdb_id>
2W6M

> <uniprot_id>
P24182

> <usmiles>
Brc1cc(ccc1)C(=O)C=2OC(=NC2)N

$$$$
OA2_A_1446
          07202403363D 1   1.00000     0.00000     0
            
 40 42  0  0  0  0            999 V2000
   37.3054  131.3285   23.5234 O   0  0  0  0  0  0  0  0  0  0  0  0
   39.1513  132.8410   24.3532 O   0  0  0  0  0  0  0  0  0  0  0  0
   40.3897  134.7555   24.9376 N   0  0  0  0  0  0  0  0  0  0  0  0
   41.1433  132.5512   25.4227 N   0  0  0  0  0  0  0  0  0  0  0  0
   38.2099  129.3326   23.9511 N   0  0  0  0  0  0  0  0  0  0  0  0
   40.6176  131.3186   25.1854 C   0  0  0  0  0  0  0  0  0  0  0  0
   34.8224  126.2949   26.0489 C   0  0  0  0  0  0  0  0  0  0  0  0
   41.8177  126.5790   21.7797 C   0  0  0  0  0  0  0  0  0  0  0  0
   35.4548  125.6621   24.9852 C   0  0  0  0  0  0  0  0  0  0  0  0
   34.9473  127.6732   26.2174 C   0  0  0  0  0  0  0  0  0  0  0  0
   41.2172  127.7937   21.4547 C   0  0  0  0  0  0  0  0  0  0  0  0
   41.5455  125.9791   22.9981 C   0  0  0  0  0  0  0  0  0  0  0  0
   37.1447  128.6074   23.2519 C   0  0  0  0  0  0  0  0  0  0  0  0
   39.1647  128.4390   24.5908 C   0  0  0  0  0  0  0  0  0  0  0  0
   36.2041  126.4076   24.0780 C   0  0  0  0  0  0  0  0  0  0  0  0
   35.7075  128.4268   25.3112 C   0  0  0  0  0  0  0  0  0  0  0  0
   40.3595  128.4097   22.3560 C   0  0  0  0  0  0  0  0  0  0  0  0
   40.6818  126.5941   23.8984 C   0  0  0  0  0  0  0  0  0  0  0  0
   40.2490  133.4097   24.9060 C   0  0  0  0  0  0  0  0  0  0  0  0
   38.2566  130.6810   23.9710 C   0  0  0  0  0  0  0  0  0  0  0  0
   39.3931  131.5068   24.5245 C   0  0  0  0  0  0  0  0  0  0  0  0
   36.3249  127.7949   24.2385 C   0  0  0  0  0  0  0  0  0  0  0  0
   40.0933  127.8109   23.5814 C   0  0  0  0  0  0  0  0  0  0  0  0
   41.2050  135.1635   25.3486 H   0  0  0  0  0  0  0  0  0  0  0  0
   39.6784  135.3418   24.5500 H   0  0  0  0  0  0  0  0  0  0  0  0
   41.0274  130.4414   25.4355 H   0  0  0  0  0  0  0  0  0  0  0  0
   34.2768  125.7605   26.6945 H   0  0  0  0  0  0  0  0  0  0  0  0
   42.4440  126.1413   21.1345 H   0  0  0  0  0  0  0  0  0  0  0  0
   35.3719  124.6721   24.8712 H   0  0  0  0  0  0  0  0  0  0  0  0
   34.4940  128.1253   26.9857 H   0  0  0  0  0  0  0  0  0  0  0  0
   41.4043  128.2225   20.5709 H   0  0  0  0  0  0  0  0  0  0  0  0
   41.9699  125.1040   23.2304 H   0  0  0  0  0  0  0  0  0  0  0  0
   37.5523  127.9927   22.5767 H   0  0  0  0  0  0  0  0  0  0  0  0
   36.5484  129.2631   22.7887 H   0  0  0  0  0  0  0  0  0  0  0  0
   38.6647  127.7157   25.0670 H   0  0  0  0  0  0  0  0  0  0  0  0
   39.7061  128.9600   25.2507 H   0  0  0  0  0  0  0  0  0  0  0  0
   36.6565  125.9525   23.3111 H   0  0  0  0  0  0  0  0  0  0  0  0
   35.8048  129.4142   25.4364 H   0  0  0  0  0  0  0  0  0  0  0  0
   39.9334  129.2840   22.1235 H   0  0  0  0  0  0  0  0  0  0  0  0
   40.4842  126.1584   24.7766 H   0  0  0  0  0  0  0  0  0  0  0  0
  1 20  2  0  0  0  0
  2 19  1  0  0  0  0
  2 21  1  0  0  0  0
  3 19  1  0  0  0  0
  4  6  1  0  0  0  0
  4 19  2  0  0  0  0
  5 13  1  0  0  0  0
  5 14  1  0  0  0  0
  5 20  1  0  0  0  0
  6 21  2  0  0  0  0
  7  9  2  0  0  0  0
  7 10  1  0  0  0  0
  8 11  2  0  0  0  0
  8 12  1  0  0  0  0
  9 15  1  0  0  0  0
 10 16  2  0  0  0  0
 11 17  1  0  0  0  0
 12 18  2  0  0  0  0
 13 22  1  0  0  0  0
 14 23  1  0  0  0  0
 15 22  2  0  0  0  0
 16 22  1  0  0  0  0
 17 23  2  0  0  0  0
 18 23  1  0  0  0  0
 20 21  1  0  0  0  0
  3 24  1  0  0  0  0
  3 25  1  0  0  0  0
  6 26  1  0  0  0  0
  7 27  1  0  0  0  0
  8 28  1  0  0  0  0
  9 29  1  0  0  0  0
 10 30  1  0  0  0  0
 11 31  1  0  0  0  0
 12 32  1  0  0  0  0
 13 33  1  0  0  0  0
 13 34  1  0  0  0  0
 14 35  1  0  0  0  0
 14 36  1  0  0  0  0
 15 37  1  0  0  0  0
 16 38  1  0  0  0  0
 17 39  1  0  0  0  0
 18 40  1  0  0  0  0
M  END
> <pdb_id>
2W6N

> <uniprot_id>
P24182

> <usmiles>
O=C(N(Cc1ccccc1)Cc2ccccc2)C=3OC(=NC3)N

$$$$
OA4_A_1447
          07202403363D 1   1.00000     0.00000     0
            
 33 35  0  0  0  0            999 V2000
   40.3076  134.5226   24.5247 N   0  0  0  0  0  0  0  0  0  0  0  0
   41.1143  130.4983   26.5566 N   0  0  0  0  0  0  0  0  0  0  0  0
   40.6279  132.4400   25.5246 N   0  0  0  0  0  0  0  0  0  0  0  0
   38.6971  132.8610   24.2698 N   0  0  0  0  0  0  0  0  0  0  0  0
   39.1420  128.3683   26.3400 C   0  0  0  0  0  0  0  0  0  0  0  0
   35.0726  125.3942   25.4446 C   0  0  0  0  0  0  0  0  0  0  0  0
   34.4783  126.6050   25.7784 C   0  0  0  0  0  0  0  0  0  0  0  0
   36.3700  125.3660   24.9435 C   0  0  0  0  0  0  0  0  0  0  0  0
   35.1904  127.7895   25.6041 C   0  0  0  0  0  0  0  0  0  0  0  0
   37.0842  126.5516   24.7672 C   0  0  0  0  0  0  0  0  0  0  0  0
   37.0169  131.2804   23.9614 C   0  0  0  0  0  0  0  0  0  0  0  0
   36.4916  130.0217   24.1725 C   0  0  0  0  0  0  0  0  0  0  0  0
   39.8742  133.2719   24.7771 C   0  0  0  0  0  0  0  0  0  0  0  0
   40.2254  131.1773   25.7921 C   0  0  0  0  0  0  0  0  0  0  0  0
   38.2447  131.6133   24.5121 C   0  0  0  0  0  0  0  0  0  0  0  0
   36.4968  127.7693   25.1060 C   0  0  0  0  0  0  0  0  0  0  0  0
   38.4288  129.4109   25.5099 C   0  0  0  0  0  0  0  0  0  0  0  0
   37.1871  129.0839   24.9352 C   0  0  0  0  0  0  0  0  0  0  0  0
   38.9792  130.7045   25.2938 C   0  0  0  0  0  0  0  0  0  0  0  0
   39.7515  135.1422   23.9708 H   0  0  0  0  0  0  0  0  0  0  0  0
   41.1853  134.8311   24.8914 H   0  0  0  0  0  0  0  0  0  0  0  0
   40.9265  129.5523   26.8208 H   0  0  0  0  0  0  0  0  0  0  0  0
   41.9581  130.9431   26.8567 H   0  0  0  0  0  0  0  0  0  0  0  0
   40.0045  128.7445   26.6785 H   0  0  0  0  0  0  0  0  0  0  0  0
   38.5656  128.1071   27.1142 H   0  0  0  0  0  0  0  0  0  0  0  0
   39.3279  127.5634   25.7763 H   0  0  0  0  0  0  0  0  0  0  0  0
   34.5661  124.5404   25.5650 H   0  0  0  0  0  0  0  0  0  0  0  0
   33.5465  126.6259   26.1410 H   0  0  0  0  0  0  0  0  0  0  0  0
   36.7933  124.4911   24.7083 H   0  0  0  0  0  0  0  0  0  0  0  0
   34.7630  128.6630   25.8375 H   0  0  0  0  0  0  0  0  0  0  0  0
   38.0137  126.5277   24.3992 H   0  0  0  0  0  0  0  0  0  0  0  0
   36.5140  131.9492   23.4138 H   0  0  0  0  0  0  0  0  0  0  0  0
   35.6059  129.7804   23.7757 H   0  0  0  0  0  0  0  0  0  0  0  0
  1 13  1  0  0  0  0
  2 14  1  0  0  0  0
  3 13  2  0  0  0  0
  3 14  1  0  0  0  0
  4 13  1  0  0  0  0
  4 15  2  0  0  0  0
  5 17  1  0  0  0  0
  6  7  2  0  0  0  0
  6  8  1  0  0  0  0
  7  9  1  0  0  0  0
  8 10  2  0  0  0  0
  9 16  2  0  0  0  0
 10 16  1  0  0  0  0
 11 12  2  0  0  0  0
 11 15  1  0  0  0  0
 12 18  1  0  0  0  0
 14 19  2  0  0  0  0
 15 19  1  0  0  0  0
 16 18  1  0  0  0  0
 17 18  2  0  0  0  0
 17 19  1  0  0  0  0
  1 20  1  0  0  0  0
  1 21  1  0  0  0  0
  2 22  1  0  0  0  0
  2 23  1  0  0  0  0
  5 24  1  0  0  0  0
  5 25  1  0  0  0  0
  5 26  1  0  0  0  0
  6 27  1  0  0  0  0
  7 28  1  0  0  0  0
  8 29  1  0  0  0  0
  9 30  1  0  0  0  0
 10 31  1  0  0  0  0
 11 32  1  0  0  0  0
 12 33  1  0  0  0  0
M  END
> <pdb_id>
2W6P

> <uniprot_id>
P24182

> <usmiles>
n1c(nc2c(c1N)c(c(c3ccccc3)cc2)C)N

$$$$
OAN_A_1614
          07192422263D 1   1.00000     0.00000     0
            
 44 45  0  0  0  0            999 V2000
   16.9440   30.1440   28.2870 O   0  0  0  0  0  0  0  0  0  0  0  0
   19.0500   25.1810   26.6520 O   0  0  0  0  0  0  0  0  0  0  0  0
   17.3190   29.4780   22.6700 O   0  0  0  0  0  0  0  0  0  0  0  0
   14.2170   30.8200   26.2140 O   0  0  0  0  0  0  0  0  0  0  0  0
   13.4560   28.7200   24.5300 O   0  0  0  0  0  0  0  0  0  0  0  0
   19.0210   27.3280   25.9370 O   0  0  0  0  0  0  0  0  0  0  0  0
   17.4890   29.2220   25.6960 O   0  0  0  0  0  0  0  0  0  0  0  0
   17.8700   27.0350   25.2180 N   0  0  0  0  0  0  0  0  0  0  0  0
   20.8270   26.5840   26.9810 N   0  0  0  0  0  0  0  0  0  0  0  0
   15.9240   27.7410   22.9320 N   0  0  0  0  0  0  0  0  0  0  0  0
   16.6440   28.3000   20.6800 C   0  0  0  0  0  0  0  0  0  0  0  0
   16.9500   31.0220   27.1510 C   0  0  0  0  0  0  0  0  0  0  0  0
   23.6480   24.4710   29.2540 C   0  0  0  0  0  0  0  0  0  0  0  0
   23.6510   25.8660   29.2020 C   0  0  0  0  0  0  0  0  0  0  0  0
   22.6780   23.7710   28.5440 C   0  0  0  0  0  0  0  0  0  0  0  0
   22.6870   26.4880   28.4290 C   0  0  0  0  0  0  0  0  0  0  0  0
   21.7150   24.4560   27.7890 C   0  0  0  0  0  0  0  0  0  0  0  0
   19.6060   26.2770   26.5620 C   0  0  0  0  0  0  0  0  0  0  0  0
   16.6780   28.5570   22.1850 C   0  0  0  0  0  0  0  0  0  0  0  0
   17.0840   28.0710   25.1210 C   0  0  0  0  0  0  0  0  0  0  0  0
   15.1110   29.7540   25.9620 C   0  0  1  0  0  0  0  0  0  0  0  0
   14.8260   29.1540   24.5970 C   0  0  1  0  0  0  0  0  0  0  0  0
   16.5170   30.3370   25.8870 C   0  0  2  0  0  0  0  0  0  0  0  0
   21.7170   25.8240   27.7060 C   0  0  0  0  0  0  0  0  0  0  0  0
   15.7670   27.9320   24.3740 C   0  0  1  0  0  0  0  0  0  0  0  0
   17.2390   30.6476   29.0990 H   0  0  0  0  0  0  0  0  0  0  0  0
   14.4096   31.2109   27.1141 H   0  0  0  0  0  0  0  0  0  0  0  0
   13.2748   28.3260   23.6289 H   0  0  0  0  0  0  0  0  0  0  0  0
   21.1467   27.4990   26.7347 H   0  0  0  0  0  0  0  0  0  0  0  0
   15.4534   26.9770   22.4905 H   0  0  0  0  0  0  0  0  0  0  0  0
   16.0669   27.5056   20.4904 H   0  0  0  0  0  0  0  0  0  0  0  0
   16.2711   29.1019   20.2132 H   0  0  0  0  0  0  0  0  0  0  0  0
   17.5718   28.1242   20.3508 H   0  0  0  0  0  0  0  0  0  0  0  0
   17.8775   31.3732   27.0230 H   0  0  0  0  0  0  0  0  0  0  0  0
   16.3273   31.7833   27.3318 H   0  0  0  0  0  0  0  0  0  0  0  0
   24.3332   23.9820   29.7938 H   0  0  0  0  0  0  0  0  0  0  0  0
   24.3291   26.3992   29.7079 H   0  0  0  0  0  0  0  0  0  0  0  0
   22.6673   22.7715   28.5722 H   0  0  0  0  0  0  0  0  0  0  0  0
   22.6935   27.4873   28.3915 H   0  0  0  0  0  0  0  0  0  0  0  0
   21.0133   23.9362   27.3018 H   0  0  0  0  0  0  0  0  0  0  0  0
   15.0497   29.0588   26.6782 H   0  0  0  0  0  0  0  0  0  0  0  0
   14.9946   29.8395   23.8887 H   0  0  0  0  0  0  0  0  0  0  0  0
   16.5783   30.9744   25.1189 H   0  0  0  0  0  0  0  0  0  0  0  0
   15.3009   27.1242   24.7349 H   0  0  0  0  0  0  0  0  0  0  0  0
  1 12  1  0  0  0  0
  2 18  2  0  0  0  0
  3 19  2  0  0  0  0
  4 21  1  0  0  0  0
  5 22  1  0  0  0  0
  6  8  1  0  0  0  0
  6 18  1  0  0  0  0
  7 20  1  0  0  0  0
  7 23  1  0  0  0  0
  8 20  2  0  0  0  0
  9 18  1  0  0  0  0
  9 24  1  0  0  0  0
 10 19  1  0  0  0  0
 10 25  1  0  0  0  0
 11 19  1  0  0  0  0
 12 23  1  0  0  0  0
 13 14  2  0  0  0  0
 13 15  1  0  0  0  0
 14 16  1  0  0  0  0
 15 17  2  0  0  0  0
 16 24  2  0  0  0  0
 17 24  1  0  0  0  0
 20 25  1  0  0  0  0
 21 22  1  0  0  0  0
 21 23  1  0  0  0  0
 22 25  1  0  0  0  0
  1 26  1  0  0  0  0
  4 27  1  0  0  0  0
  5 28  1  0  0  0  0
  9 29  1  0  0  0  0
 10 30  1  0  0  0  0
 11 31  1  0  0  0  0
 11 32  1  0  0  0  0
 11 33  1  0  0  0  0
 12 34  1  0  0  0  0
 12 35  1  0  0  0  0
 13 36  1  0  0  0  0
 14 37  1  0  0  0  0
 15 38  1  0  0  0  0
 16 39  1  0  0  0  0
 17 40  1  0  0  0  0
 21 41  1  0  0  0  0
 22 42  1  0  0  0  0
 23 43  1  0  0  0  0
 25 44  1  0  0  0  0
M  END
> <pdb_id>
4AZ6

> <uniprot_id>
P49610

> <usmiles>
O=C(ON=C1O[C@@H]([C@@H](O)[C@H](O)[C@H]1NC(=O)C)CO)Nc2ccccc2

$$$$
OAN_A_1625
          07192421263D 1   1.00000     0.00000     0
            
 44 45  0  0  0  0            999 V2000
   28.5057   40.7414   21.9370 O   0  0  0  0  0  0  0  0  0  0  0  0
   31.6064   41.7824   16.7954 O   0  0  0  0  0  0  0  0  0  0  0  0
   34.3016   40.2477   22.3084 O   0  0  0  0  0  0  0  0  0  0  0  0
   30.2936   42.7063   23.8485 O   0  0  0  0  0  0  0  0  0  0  0  0
   32.3792   44.2534   22.8682 O   0  0  0  0  0  0  0  0  0  0  0  0
   31.9180   40.2394   18.3973 O   0  0  0  0  0  0  0  0  0  0  0  0
   31.4530   40.5549   21.1028 O   0  0  0  0  0  0  0  0  0  0  0  0
   32.5154   41.2431   19.1471 N   0  0  0  0  0  0  0  0  0  0  0  0
   30.2491   39.9317   16.8105 N   0  0  0  0  0  0  0  0  0  0  0  0
   34.4489   42.3373   21.3952 N   0  0  0  0  0  0  0  0  0  0  0  0
   36.4940   41.2529   22.1269 C   0  0  0  0  0  0  0  0  0  0  0  0
   29.5788   40.0493   22.5758 C   0  0  0  0  0  0  0  0  0  0  0  0
   27.7802   40.9205   13.5377 C   0  0  0  0  0  0  0  0  0  0  0  0
   29.1290   41.2767   13.5066 C   0  0  0  0  0  0  0  0  0  0  0  0
   27.2642   40.2259   14.6428 C   0  0  0  0  0  0  0  0  0  0  0  0
   29.9600   40.9454   14.5945 C   0  0  0  0  0  0  0  0  0  0  0  0
   28.1031   39.8956   15.7187 C   0  0  0  0  0  0  0  0  0  0  0  0
   31.2588   40.7049   17.2982 C   0  0  0  0  0  0  0  0  0  0  0  0
   34.9640   41.2290   21.9490 C   0  0  0  0  0  0  0  0  0  0  0  0
   32.3116   41.4126   20.4630 C   0  0  0  0  0  0  0  0  0  0  0  0
   30.9044   42.3695   22.6086 C   0  0  1  0  0  0  0  0  0  0  0  0
   32.3390   42.8632   22.5668 C   0  0  1  0  0  0  0  0  0  0  0  0
   30.9111   40.8414   22.4181 C   0  0  2  0  0  0  0  0  0  0  0  0
   29.4642   40.2544   15.7284 C   0  0  0  0  0  0  0  0  0  0  0  0
   33.0055   42.5748   21.1858 C   0  0  1  0  0  0  0  0  0  0  0  0
   27.6597   40.2198   22.0478 H   0  0  0  0  0  0  0  0  0  0  0  0
   29.3507   42.3733   23.8570 H   0  0  0  0  0  0  0  0  0  0  0  0
   33.3262   44.5735   22.8394 H   0  0  0  0  0  0  0  0  0  0  0  0
   30.0648   39.0648   17.2738 H   0  0  0  0  0  0  0  0  0  0  0  0
   35.0855   43.0516   21.1042 H   0  0  0  0  0  0  0  0  0  0  0  0
   36.8562   42.1190   21.7823 H   0  0  0  0  0  0  0  0  0  0  0  0
   36.7183   41.1602   23.0970 H   0  0  0  0  0  0  0  0  0  0  0  0
   36.9008   40.4950   21.6168 H   0  0  0  0  0  0  0  0  0  0  0  0
   29.6819   39.1460   22.1592 H   0  0  0  0  0  0  0  0  0  0  0  0
   29.3707   39.9460   23.5484 H   0  0  0  0  0  0  0  0  0  0  0  0
   27.1816   41.1600   12.7732 H   0  0  0  0  0  0  0  0  0  0  0  0
   29.5031   41.7637   12.7173 H   0  0  0  0  0  0  0  0  0  0  0  0
   26.2988   39.9663   14.6638 H   0  0  0  0  0  0  0  0  0  0  0  0
   30.9254   41.2046   14.5661 H   0  0  0  0  0  0  0  0  0  0  0  0
   27.7250   39.3935   16.4964 H   0  0  0  0  0  0  0  0  0  0  0  0
   30.3893   42.7918   21.8627 H   0  0  0  0  0  0  0  0  0  0  0  0
   32.8568   42.3766   23.2705 H   0  0  0  0  0  0  0  0  0  0  0  0
   31.5540   40.4669   23.0863 H   0  0  0  0  0  0  0  0  0  0  0  0
   32.9068   43.3928   20.6192 H   0  0  0  0  0  0  0  0  0  0  0  0
  1 12  1  0  0  0  0
  2 18  2  0  0  0  0
  3 19  2  0  0  0  0
  4 21  1  0  0  0  0
  5 22  1  0  0  0  0
  6  8  1  0  0  0  0
  6 18  1  0  0  0  0
  7 20  1  0  0  0  0
  7 23  1  0  0  0  0
  8 20  2  0  0  0  0
  9 18  1  0  0  0  0
  9 24  1  0  0  0  0
 10 19  1  0  0  0  0
 10 25  1  0  0  0  0
 11 19  1  0  0  0  0
 12 23  1  0  0  0  0
 13 14  2  0  0  0  0
 13 15  1  0  0  0  0
 14 16  1  0  0  0  0
 15 17  2  0  0  0  0
 16 24  2  0  0  0  0
 17 24  1  0  0  0  0
 20 25  1  0  0  0  0
 21 22  1  0  0  0  0
 21 23  1  0  0  0  0
 22 25  1  0  0  0  0
  1 26  1  0  0  0  0
  4 27  1  0  0  0  0
  5 28  1  0  0  0  0
  9 29  1  0  0  0  0
 10 30  1  0  0  0  0
 11 31  1  0  0  0  0
 11 32  1  0  0  0  0
 11 33  1  0  0  0  0
 12 34  1  0  0  0  0
 12 35  1  0  0  0  0
 13 36  1  0  0  0  0
 14 37  1  0  0  0  0
 15 38  1  0  0  0  0
 16 39  1  0  0  0  0
 17 40  1  0  0  0  0
 21 41  1  0  0  0  0
 22 42  1  0  0  0  0
 23 43  1  0  0  0  0
 25 44  1  0  0  0  0
M  END
> <pdb_id>
2CBJ

> <uniprot_id>
Q8XL08

> <usmiles>
O=C(ON=C1O[C@@H]([C@@H](O)[C@H](O)[C@H]1NC(=O)C)CO)Nc2ccccc2

$$$$
OAN_A_1718
          07202405173D 1   1.00000     0.00000     0
            
 46 47  0  0  0  0            999 V2000
   27.3449   -1.8504  287.5994 O   0  0  0  0  0  0  0  0  0  0  0  0
   27.3740    1.9955  293.1755 O   0  0  0  0  0  0  0  0  0  0  0  0
   25.8418    2.9759  288.0642 O   0  0  0  0  0  0  0  0  0  0  0  0
   28.0781    5.4115  289.9623 O   0  0  0  0  0  0  0  0  0  0  0  0
   30.2918    4.0391  290.6985 O   0  0  0  0  0  0  0  0  0  0  0  0
   27.9581   -0.7744  289.4470 O   0  0  0  0  0  0  0  0  0  0  0  0
   26.5820    2.0974  290.4551 O   0  0  0  0  0  0  0  0  0  0  0  0
   27.9383    0.5536  289.2044 N   0  0  0  0  0  0  0  0  0  0  0  0
   29.6774   -1.4495  287.7307 N   0  0  0  0  0  0  0  0  0  0  0  0
   29.4652    1.3976  292.1041 N   0  0  0  0  0  0  0  0  0  0  0  0
   28.9377    0.8293  294.5624 C   0  0  0  0  0  0  0  0  0  0  0  0
   31.1928   -4.4799  285.1892 C   0  0  0  0  0  0  0  0  0  0  0  0
   31.9669   -3.3519  285.4768 C   0  0  0  0  0  0  0  0  0  0  0  0
   29.9006   -4.6113  285.7477 C   0  0  0  0  0  0  0  0  0  0  0  0
   31.4726   -2.3716  286.3029 C   0  0  0  0  0  0  0  0  0  0  0  0
   29.4102   -3.6390  286.5668 C   0  0  0  0  0  0  0  0  0  0  0  0
   25.6837    3.9030  289.0830 C   0  0  0  0  0  0  0  0  0  0  0  0
   28.2243   -1.4049  288.2177 C   0  0  0  0  0  0  0  0  0  0  0  0
   28.5265    1.4380  293.2737 C   0  0  0  0  0  0  0  0  0  0  0  0
   27.8583    1.3724  290.1750 C   0  0  1  0  0  0  0  0  0  0  0  0
   30.1834   -2.5050  286.8524 C   0  0  0  0  0  0  0  0  0  0  0  0
   28.0295    4.0133  289.9048 C   0  0  1  0  0  0  0  0  0  0  0  0
   28.9906    3.4635  290.9192 C   0  0  1  0  0  0  0  0  0  0  0  0
   26.6304    3.5542  290.2178 C   0  0  2  0  0  0  0  0  0  0  0  0
   29.1207    1.9902  290.7854 C   0  0  1  0  0  0  0  0  0  0  0  0
   25.4841    3.3107  287.2860 H   0  0  0  0  0  0  0  0  0  0  0  0
   27.7524    5.7437  289.2291 H   0  0  0  0  0  0  0  0  0  0  0  0
   30.5220    4.5888  291.4273 H   0  0  0  0  0  0  0  0  0  0  0  0
   30.2380   -0.8058  287.9935 H   0  0  0  0  0  0  0  0  0  0  0  0
   30.3011    0.9837  292.2098 H   0  0  0  0  0  0  0  0  0  0  0  0
   28.2754    1.0217  295.2361 H   0  0  0  0  0  0  0  0  0  0  0  0
   29.0152   -0.1060  294.4546 H   0  0  0  0  0  0  0  0  0  0  0  0
   29.8005    1.1967  294.8395 H   0  0  0  0  0  0  0  0  0  0  0  0
   31.5366   -5.1580  284.6187 H   0  0  0  0  0  0  0  0  0  0  0  0
   32.9095   -3.2557  285.0694 H   0  0  0  0  0  0  0  0  0  0  0  0
   29.3739   -5.3788  285.5516 H   0  0  0  0  0  0  0  0  0  0  0  0
   32.0301   -1.5576  286.5091 H   0  0  0  0  0  0  0  0  0  0  0  0
   28.4986   -3.7318  286.9582 H   0  0  0  0  0  0  0  0  0  0  0  0
   24.7743    3.8794  289.4055 H   0  0  0  0  0  0  0  0  0  0  0  0
   25.8709    4.7204  288.7754 H   0  0  0  0  0  0  0  0  0  0  0  0
   28.3003    3.6922  288.9450 H   0  0  0  0  0  0  0  0  0  0  0  0
   28.6781    3.6893  291.8368 H   0  0  0  0  0  0  0  0  0  0  0  0
   26.3385    3.9890  290.9898 H   0  0  0  0  0  0  0  0  0  0  0  0
   29.9022    1.7443  290.3025 H   0  0  0  0  0  0  0  0  0  0  0  0
   27.1513    0.7282  288.6127 H   0  0  0  0  0  0  0  0  0  0  0  0
   27.7353    0.6767  290.8827 H   0  0  0  0  0  0  0  0  0  0  0  0
  1 18  2  0  0  0  0
  2 19  2  0  0  0  0
  3 17  1  0  0  0  0
  3 26  1  0  0  0  0
  4 22  1  0  0  0  0
  4 27  1  0  0  0  0
  5 23  1  0  0  0  0
  5 28  1  0  0  0  0
  6  8  1  0  0  0  0
  6 18  1  0  0  0  0
  7 20  1  0  0  0  0
  7 24  1  0  0  0  0
  8 20  1  0  0  0  0
  9 18  1  0  0  0  0
  9 21  1  0  0  0  0
  9 29  1  0  0  0  0
 10 19  1  0  0  0  0
 10 25  1  0  0  0  0
 10 30  1  0  0  0  0
 11 19  1  0  0  0  0
 11 31  1  0  0  0  0
 11 32  1  0  0  0  0
 11 33  1  0  0  0  0
 12 13  2  0  0  0  0
 12 14  1  0  0  0  0
 12 34  1  0  0  0  0
 13 15  1  0  0  0  0
 13 35  1  0  0  0  0
 14 16  2  0  0  0  0
 14 36  1  0  0  0  0
 15 21  2  0  0  0  0
 15 37  1  0  0  0  0
 16 21  1  0  0  0  0
 16 38  1  0  0  0  0
 17 24  1  0  0  0  0
 17 39  1  0  0  0  0
 17 40  1  0  0  0  0
 20 25  1  0  0  0  0
 22 23  1  0  0  0  0
 22 24  1  0  0  0  0
 22 41  1  0  0  0  0
 23 25  1  0  0  0  0
 23 42  1  0  0  0  0
 24 43  1  0  0  0  0
 25 44  1  0  0  0  0
  8 45  1  0  0  0  0
 20 46  1  0  0  0  0
M  END
> <pdb_id>
4UR9

> <uniprot_id>
Q89ZI2

> <usmiles>
O=C(ON[C@@H]1O[C@@H]([C@@H](O)[C@H](O)[C@H]1NC(=O)C)CO)Nc2ccccc2

$$$$
OAN_B_1718
          07202405173D 1   1.00000     0.00000     0
            
 44 45  0  0  0  0            999 V2000
   27.3090   -1.9650  287.2920 O   0  0  0  0  0  0  0  0  0  0  0  0
   27.3870    1.7120  293.0080 O   0  0  0  0  0  0  0  0  0  0  0  0
   25.8490    2.6720  288.0880 O   0  0  0  0  0  0  0  0  0  0  0  0
   27.9870    5.3250  290.0990 O   0  0  0  0  0  0  0  0  0  0  0  0
   30.3420    4.1730  290.8180 O   0  0  0  0  0  0  0  0  0  0  0  0
   27.4650   -0.5360  288.9920 O   0  0  0  0  0  0  0  0  0  0  0  0
   26.8870    1.8030  290.2480 O   0  0  0  0  0  0  0  0  0  0  0  0
   28.4920    0.1130  289.5940 N   0  0  0  0  0  0  0  0  0  0  0  0
   29.4980   -1.7650  288.1240 N   0  0  0  0  0  0  0  0  0  0  0  0
   29.6560    1.4400  292.2340 N   0  0  0  0  0  0  0  0  0  0  0  0
   28.8990    0.7510  294.6000 C   0  0  0  0  0  0  0  0  0  0  0  0
   31.4360   -4.0090  285.1020 C   0  0  0  0  0  0  0  0  0  0  0  0
   31.9420   -2.7570  285.4620 C   0  0  0  0  0  0  0  0  0  0  0  0
   30.2840   -4.5200  285.7430 C   0  0  0  0  0  0  0  0  0  0  0  0
   31.3200   -2.0200  286.4410 C   0  0  0  0  0  0  0  0  0  0  0  0
   29.6670   -3.7910  286.7130 C   0  0  0  0  0  0  0  0  0  0  0  0
   25.8340    3.6580  289.0640 C   0  0  0  0  0  0  0  0  0  0  0  0
   27.9990   -1.4580  288.0720 C   0  0  0  0  0  0  0  0  0  0  0  0
   28.5810    1.3210  293.2670 C   0  0  0  0  0  0  0  0  0  0  0  0
   28.2700    1.2300  290.1730 C   0  0  0  0  0  0  0  0  0  0  0  0
   30.1690   -2.5340  287.0730 C   0  0  0  0  0  0  0  0  0  0  0  0
   28.1220    3.9350  289.9770 C   0  0  1  0  0  0  0  0  0  0  0  0
   29.1030    3.4640  291.0110 C   0  0  1  0  0  0  0  0  0  0  0  0
   26.7820    3.2760  290.1860 C   0  0  2  0  0  0  0  0  0  0  0  0
   29.3880    2.0080  290.8900 C   0  0  1  0  0  0  0  0  0  0  0  0
   24.9890    2.4950  287.8170 H   0  0  0  0  0  0  0  0  0  0  0  0
   27.9300    5.6800  289.3090 H   0  0  0  0  0  0  0  0  0  0  0  0
   30.6590    4.4870  291.6470 H   0  0  0  0  0  0  0  0  0  0  0  0
   29.9780   -1.4650  288.8150 H   0  0  0  0  0  0  0  0  0  0  0  0
   30.5240    1.1500  292.4440 H   0  0  0  0  0  0  0  0  0  0  0  0
   29.6430    1.2280  294.9840 H   0  0  0  0  0  0  0  0  0  0  0  0
   29.1250   -0.1610  294.5020 H   0  0  0  0  0  0  0  0  0  0  0  0
   28.1210    0.8330  295.1860 H   0  0  0  0  0  0  0  0  0  0  0  0
   31.8660   -4.5180  284.4240 H   0  0  0  0  0  0  0  0  0  0  0  0
   32.7820   -2.3860  284.9920 H   0  0  0  0  0  0  0  0  0  0  0  0
   29.9410   -5.3720  285.4960 H   0  0  0  0  0  0  0  0  0  0  0  0
   31.6830   -1.1170  286.7020 H   0  0  0  0  0  0  0  0  0  0  0  0
   28.8560   -4.1520  287.1640 H   0  0  0  0  0  0  0  0  0  0  0  0
   26.1150    4.4970  288.6800 H   0  0  0  0  0  0  0  0  0  0  0  0
   25.0050    3.7420  289.3880 H   0  0  0  0  0  0  0  0  0  0  0  0
   28.4790    3.7030  289.0190 H   0  0  0  0  0  0  0  0  0  0  0  0
   28.7500    3.6590  291.9210 H   0  0  0  0  0  0  0  0  0  0  0  0
   26.4230    3.5800  290.9920 H   0  0  0  0  0  0  0  0  0  0  0  0
   30.2370    1.8470  290.4920 H   0  0  0  0  0  0  0  0  0  0  0  0
  1 18  2  0  0  0  0
  2 19  2  0  0  0  0
  3 17  1  0  0  0  0
  3 26  1  0  0  0  0
  4 22  1  0  0  0  0
  4 27  1  0  0  0  0
  5 23  1  0  0  0  0
  5 28  1  0  0  0  0
  6  8  1  0  0  0  0
  6 18  1  0  0  0  0
  7 20  1  0  0  0  0
  7 24  1  0  0  0  0
  8 20  2  0  0  0  0
  9 18  1  0  0  0  0
  9 21  1  0  0  0  0
  9 29  1  0  0  0  0
 10 19  1  0  0  0  0
 10 25  1  0  0  0  0
 10 30  1  0  0  0  0
 11 19  1  0  0  0  0
 11 31  1  0  0  0  0
 11 32  1  0  0  0  0
 11 33  1  0  0  0  0
 12 13  2  0  0  0  0
 12 14  1  0  0  0  0
 12 34  1  0  0  0  0
 13 15  1  0  0  0  0
 13 35  1  0  0  0  0
 14 16  2  0  0  0  0
 14 36  1  0  0  0  0
 15 21  2  0  0  0  0
 15 37  1  0  0  0  0
 16 21  1  0  0  0  0
 16 38  1  0  0  0  0
 17 24  1  0  0  0  0
 17 39  1  0  0  0  0
 17 40  1  0  0  0  0
 20 25  1  0  0  0  0
 22 23  1  0  0  0  0
 22 24  1  0  0  0  0
 22 41  1  0  0  0  0
 23 25  1  0  0  0  0
 23 42  1  0  0  0  0
 24 43  1  0  0  0  0
 25 44  1  0  0  0  0
M  END
> <pdb_id>
4UR9

> <uniprot_id>
Q89ZI2

> <usmiles>
O=C(ON=C1O[C@@H]([C@@H](O)[C@H](O)[C@H]1NC(=O)C)CO)Nc2ccccc2

$$$$
OAN_B_2040
          07192422263D 1   1.00000     0.00000     0
            
 44 45  0  0  0  0            999 V2000
  -34.8035  -23.6555  -51.8560 O   0  0  0  0  0  0  0  0  0  0  0  0
  -37.2250  -25.3345  -56.5408 O   0  0  0  0  0  0  0  0  0  0  0  0
  -30.9779  -25.3173  -56.0864 O   0  0  0  0  0  0  0  0  0  0  0  0
  -31.4915  -22.3576  -51.8359 O   0  0  0  0  0  0  0  0  0  0  0  0
  -30.8030  -21.1063  -54.2315 O   0  0  0  0  0  0  0  0  0  0  0  0
  -35.0931  -24.8005  -56.0573 O   0  0  0  0  0  0  0  0  0  0  0  0
  -33.4484  -24.4206  -54.2174 O   0  0  0  0  0  0  0  0  0  0  0  0
  -34.0945  -23.8989  -56.3201 N   0  0  0  0  0  0  0  0  0  0  0  0
  -36.3049  -23.5309  -57.5789 N   0  0  0  0  0  0  0  0  0  0  0  0
  -31.0742  -23.0946  -56.5517 N   0  0  0  0  0  0  0  0  0  0  0  0
  -29.5799  -24.4885  -57.8624 C   0  0  0  0  0  0  0  0  0  0  0  0
  -33.6307  -24.4706  -51.8471 C   0  0  0  0  0  0  0  0  0  0  0  0
  -39.4510  -22.2007  -59.9749 C   0  0  0  0  0  0  0  0  0  0  0  0
  -38.1226  -22.0178  -60.3511 C   0  0  0  0  0  0  0  0  0  0  0  0
  -39.7244  -22.8471  -58.7722 C   0  0  0  0  0  0  0  0  0  0  0  0
  -37.0795  -22.4704  -59.5406 C   0  0  0  0  0  0  0  0  0  0  0  0
  -38.6813  -23.2988  -57.9668 C   0  0  0  0  0  0  0  0  0  0  0  0
  -36.2728  -24.5730  -56.7242 C   0  0  0  0  0  0  0  0  0  0  0  0
  -30.6114  -24.3376  -56.7282 C   0  0  0  0  0  0  0  0  0  0  0  0
  -33.2194  -23.7013  -55.3495 C   0  0  0  0  0  0  0  0  0  0  0  0
  -32.2220  -22.6458  -53.0205 C   0  0  1  0  0  0  0  0  0  0  0  0
  -31.3079  -22.4446  -54.2121 C   0  0  1  0  0  0  0  0  0  0  0  0
  -32.7096  -24.1012  -53.0092 C   0  0  2  0  0  0  0  0  0  0  0  0
  -37.3430  -23.1220  -58.3430 C   0  0  0  0  0  0  0  0  0  0  0  0
  -32.0547  -22.6908  -55.5249 C   0  0  1  0  0  0  0  0  0  0  0  0
  -35.3930  -23.9113  -51.0898 H   0  0  0  0  0  0  0  0  0  0  0  0
  -32.0830  -22.4863  -51.0399 H   0  0  0  0  0  0  0  0  0  0  0  0
  -30.2021  -20.9882  -55.0221 H   0  0  0  0  0  0  0  0  0  0  0  0
  -35.4623  -22.9980  -57.6570 H   0  0  0  0  0  0  0  0  0  0  0  0
  -30.7285  -22.3832  -57.1636 H   0  0  0  0  0  0  0  0  0  0  0  0
  -29.4013  -23.5938  -58.2717 H   0  0  0  0  0  0  0  0  0  0  0  0
  -28.7293  -24.8614  -57.4918 H   0  0  0  0  0  0  0  0  0  0  0  0
  -29.9397  -25.1083  -58.5598 H   0  0  0  0  0  0  0  0  0  0  0  0
  -33.8972  -25.4307  -51.9315 H   0  0  0  0  0  0  0  0  0  0  0  0
  -33.1426  -24.3347  -50.9849 H   0  0  0  0  0  0  0  0  0  0  0  0
  -40.1949  -21.8737  -60.5578 H   0  0  0  0  0  0  0  0  0  0  0  0
  -37.9130  -21.5561  -61.2130 H   0  0  0  0  0  0  0  0  0  0  0  0
  -40.6721  -22.9875  -58.4859 H   0  0  0  0  0  0  0  0  0  0  0  0
  -36.1324  -22.3237  -59.8259 H   0  0  0  0  0  0  0  0  0  0  0  0
  -38.8916  -23.7580  -57.1037 H   0  0  0  0  0  0  0  0  0  0  0  0
  -33.0061  -22.0291  -53.0903 H   0  0  0  0  0  0  0  0  0  0  0  0
  -30.5408  -23.0828  -54.1474 H   0  0  0  0  0  0  0  0  0  0  0  0
  -31.9072  -24.6966  -52.9700 H   0  0  0  0  0  0  0  0  0  0  0  0
  -32.4522  -21.8198  -55.8136 H   0  0  0  0  0  0  0  0  0  0  0  0
  1 12  1  0  0  0  0
  2 18  2  0  0  0  0
  3 19  2  0  0  0  0
  4 21  1  0  0  0  0
  5 22  1  0  0  0  0
  6  8  1  0  0  0  0
  6 18  1  0  0  0  0
  7 20  1  0  0  0  0
  7 23  1  0  0  0  0
  8 20  2  0  0  0  0
  9 18  1  0  0  0  0
  9 24  1  0  0  0  0
 10 19  1  0  0  0  0
 10 25  1  0  0  0  0
 11 19  1  0  0  0  0
 12 23  1  0  0  0  0
 13 14  2  0  0  0  0
 13 15  1  0  0  0  0
 14 16  1  0  0  0  0
 15 17  2  0  0  0  0
 16 24  2  0  0  0  0
 17 24  1  0  0  0  0
 20 25  1  0  0  0  0
 21 22  1  0  0  0  0
 21 23  1  0  0  0  0
 22 25  1  0  0  0  0
  1 26  1  0  0  0  0
  4 27  1  0  0  0  0
  5 28  1  0  0  0  0
  9 29  1  0  0  0  0
 10 30  1  0  0  0  0
 11 31  1  0  0  0  0
 11 32  1  0  0  0  0
 11 33  1  0  0  0  0
 12 34  1  0  0  0  0
 12 35  1  0  0  0  0
 13 36  1  0  0  0  0
 14 37  1  0  0  0  0
 15 38  1  0  0  0  0
 16 39  1  0  0  0  0
 17 40  1  0  0  0  0
 21 41  1  0  0  0  0
 22 42  1  0  0  0  0
 23 43  1  0  0  0  0
 25 44  1  0  0  0  0
M  END
> <pdb_id>
4AZI

> <uniprot_id>
P49610

> <usmiles>
O=C(ON=C1O[C@@H]([C@@H](O)[C@H](O)[C@H]1NC(=O)C)CO)Nc2ccccc2

$$$$
OAN_B_401
          07202411483D 1   1.00000     0.00000     0
            
 44 45  0  0  0  0            999 V2000
    8.0940   -4.0610   56.3780 O   0  0  0  0  0  0  0  0  0  0  0  0
   10.2510   -1.7060   51.9940 O   0  0  0  0  0  0  0  0  0  0  0  0
    8.8970   -8.6550   51.6810 O   0  0  0  0  0  0  0  0  0  0  0  0
    8.8290   -6.5900   48.6510 O   0  0  0  0  0  0  0  0  0  0  0  0
    9.6440   -4.0470   49.1880 O   0  0  0  0  0  0  0  0  0  0  0  0
    7.5710   -5.5460   54.7130 O   0  0  0  0  0  0  0  0  0  0  0  0
    7.5380   -6.3010   52.1280 O   0  0  0  0  0  0  0  0  0  0  0  0
    8.1280   -4.7040   53.6930 N   0  0  0  0  0  0  0  0  0  0  0  0
    7.0440   -5.9880   56.9870 N   0  0  0  0  0  0  0  0  0  0  0  0
    8.2450   -2.6920   51.6150 N   0  0  0  0  0  0  0  0  0  0  0  0
    8.3500   -0.3150   51.9850 C   0  0  0  0  0  0  0  0  0  0  0  0
    6.5600   -5.7620   61.1740 C   0  0  0  0  0  0  0  0  0  0  0  0
    5.8910   -6.7070   60.4030 C   0  0  0  0  0  0  0  0  0  0  0  0
    7.4180   -4.8560   60.5550 C   0  0  0  0  0  0  0  0  0  0  0  0
    6.0790   -6.7440   59.0220 C   0  0  0  0  0  0  0  0  0  0  0  0
    7.6090   -4.8910   59.1730 C   0  0  0  0  0  0  0  0  0  0  0  0
    7.8030   -8.3160   50.8210 C   0  0  0  0  0  0  0  0  0  0  0  0
    7.5890   -5.1380   56.1040 C   0  0  0  0  0  0  0  0  0  0  0  0
    9.0420   -1.6380   51.8660 C   0  0  0  0  0  0  0  0  0  0  0  0
    8.1390   -5.0130   52.4690 C   0  0  0  0  0  0  0  0  0  0  0  0
    6.9350   -5.8390   58.3790 C   0  0  0  0  0  0  0  0  0  0  0  0
    8.7990   -6.1490   50.0110 C   0  0  1  0  0  0  0  0  0  0  0  0
    8.6540   -4.6300   50.0440 C   0  0  1  0  0  0  0  0  0  0  0  0
    7.6410   -6.8000   50.7560 C   0  0  2  0  0  0  0  0  0  0  0  0
    8.7500   -4.0620   51.4670 C   0  0  1  0  0  0  0  0  0  0  0  0
    8.5990   -8.8670   52.4480 H   0  0  0  0  0  0  0  0  0  0  0  0
    8.0330   -6.6750   48.3630 H   0  0  0  0  0  0  0  0  0  0  0  0
    9.9160   -3.3160   49.5260 H   0  0  0  0  0  0  0  0  0  0  0  0
    6.7250   -6.7100   56.6460 H   0  0  0  0  0  0  0  0  0  0  0  0
    7.3970   -2.5740   51.5350 H   0  0  0  0  0  0  0  0  0  0  0  0
    8.9710    0.3430   52.3330 H   0  0  0  0  0  0  0  0  0  0  0  0
    8.0370   -0.0340   51.1110 H   0  0  0  0  0  0  0  0  0  0  0  0
    7.5940   -0.3970   52.5870 H   0  0  0  0  0  0  0  0  0  0  0  0
    6.4350   -5.7340   62.0950 H   0  0  0  0  0  0  0  0  0  0  0  0
    5.3160   -7.3140   60.8110 H   0  0  0  0  0  0  0  0  0  0  0  0
    7.8670   -4.2210   61.0660 H   0  0  0  0  0  0  0  0  0  0  0  0
    5.6220   -7.3850   58.5270 H   0  0  0  0  0  0  0  0  0  0  0  0
    8.1920   -4.2660   58.8070 H   0  0  0  0  0  0  0  0  0  0  0  0
    6.9870   -8.7180   51.1570 H   0  0  0  0  0  0  0  0  0  0  0  0
    7.9670   -8.6650   49.9310 H   0  0  0  0  0  0  0  0  0  0  0  0
    9.6300   -6.3980   50.4440 H   0  0  0  0  0  0  0  0  0  0  0  0
    7.7740   -4.4110   49.6980 H   0  0  0  0  0  0  0  0  0  0  0  0
    6.8220   -6.6040   50.2760 H   0  0  0  0  0  0  0  0  0  0  0  0
    9.7010   -4.0190   51.6530 H   0  0  0  0  0  0  0  0  0  0  0  0
  1 18  2  0  0  0  0
  2 19  2  0  0  0  0
  3 17  1  0  0  0  0
  3 26  1  0  0  0  0
  4 22  1  0  0  0  0
  4 27  1  0  0  0  0
  5 23  1  0  0  0  0
  5 28  1  0  0  0  0
  6  8  1  0  0  0  0
  6 18  1  0  0  0  0
  7 20  1  0  0  0  0
  7 24  1  0  0  0  0
  8 20  2  0  0  0  0
  9 18  1  0  0  0  0
  9 21  1  0  0  0  0
  9 29  1  0  0  0  0
 10 19  1  0  0  0  0
 10 25  1  0  0  0  0
 10 30  1  0  0  0  0
 11 19  1  0  0  0  0
 11 31  1  0  0  0  0
 11 32  1  0  0  0  0
 11 33  1  0  0  0  0
 12 13  2  0  0  0  0
 12 14  1  0  0  0  0
 12 34  1  0  0  0  0
 13 15  1  0  0  0  0
 13 35  1  0  0  0  0
 14 16  2  0  0  0  0
 14 36  1  0  0  0  0
 15 21  2  0  0  0  0
 15 37  1  0  0  0  0
 16 21  1  0  0  0  0
 16 38  1  0  0  0  0
 17 24  1  0  0  0  0
 17 39  1  0  0  0  0
 17 40  1  0  0  0  0
 20 25  1  0  0  0  0
 22 23  1  0  0  0  0
 22 24  1  0  0  0  0
 22 41  1  0  0  0  0
 23 25  1  0  0  0  0
 23 42  1  0  0  0  0
 24 43  1  0  0  0  0
 25 44  1  0  0  0  0
M  END
> <pdb_id>
5UTQ

> <uniprot_id>
nan

> <usmiles>
O=C(ON=C1O[C@@H]([C@@H](O)[C@H](O)[C@H]1NC(=O)C)CO)Nc2ccccc2

$$$$
OAN_D_1627
          07192416333D 1   1.00000     0.00000     0
            
 44 45  0  0  0  0            999 V2000
   74.8830  -16.7280   53.3320 O   0  0  0  0  0  0  0  0  0  0  0  0
   75.2200  -15.3430   59.1860 O   0  0  0  0  0  0  0  0  0  0  0  0
   71.7580  -19.8080   56.8640 O   0  0  0  0  0  0  0  0  0  0  0  0
   71.3270  -17.1490   52.7960 O   0  0  0  0  0  0  0  0  0  0  0  0
   69.7870  -16.3010   55.0460 O   0  0  0  0  0  0  0  0  0  0  0  0
   74.8070  -17.0530   57.6900 O   0  0  0  0  0  0  0  0  0  0  0  0
   73.6930  -17.8180   55.6170 O   0  0  0  0  0  0  0  0  0  0  0  0
   73.5160  -16.8270   57.6850 N   0  0  0  0  0  0  0  0  0  0  0  0
   76.9690  -16.5630   58.3860 N   0  0  0  0  0  0  0  0  0  0  0  0
   70.7670  -17.8960   57.5300 N   0  0  0  0  0  0  0  0  0  0  0  0
   70.2360  -19.9730   58.6640 C   0  0  0  0  0  0  0  0  0  0  0  0
   74.2050  -18.0010   53.3320 C   0  0  0  0  0  0  0  0  0  0  0  0
   80.1860  -15.0250   60.5760 C   0  0  0  0  0  0  0  0  0  0  0  0
   78.9190  -14.4970   60.7920 C   0  0  0  0  0  0  0  0  0  0  0  0
   80.3590  -16.0520   59.6730 C   0  0  0  0  0  0  0  0  0  0  0  0
   77.8160  -14.9820   60.0790 C   0  0  0  0  0  0  0  0  0  0  0  0
   79.2650  -16.5280   58.9610 C   0  0  0  0  0  0  0  0  0  0  0  0
   75.6950  -16.2370   58.4820 C   0  0  0  0  0  0  0  0  0  0  0  0
   70.9940  -19.1960   57.6010 C   0  0  0  0  0  0  0  0  0  0  0  0
   72.9250  -17.2360   56.6280 C   0  0  0  0  0  0  0  0  0  0  0  0
   71.9000  -17.0170   54.1100 C   0  0  1  0  0  0  0  0  0  0  0  0
   70.8840  -17.2650   55.1760 C   0  0  1  0  0  0  0  0  0  0  0  0
   73.0530  -18.0300   54.3040 C   0  0  2  0  0  0  0  0  0  0  0  0
   77.9810  -15.9980   59.1350 C   0  0  0  0  0  0  0  0  0  0  0  0
   71.4720  -17.0360   56.5590 C   0  0  1  0  0  0  0  0  0  0  0  0
   75.6373  -16.7521   52.6759 H   0  0  0  0  0  0  0  0  0  0  0  0
   72.0308  -16.9774   52.1067 H   0  0  0  0  0  0  0  0  0  0  0  0
   69.1085  -16.4697   55.7610 H   0  0  0  0  0  0  0  0  0  0  0  0
   77.2195  -17.2693   57.7239 H   0  0  0  0  0  0  0  0  0  0  0  0
   70.0999  -17.4839   58.1506 H   0  0  0  0  0  0  0  0  0  0  0  0
   69.6560  -19.3466   59.1847 H   0  0  0  0  0  0  0  0  0  0  0  0
   69.6663  -20.6684   58.2259 H   0  0  0  0  0  0  0  0  0  0  0  0
   70.8868  -20.4155   59.2810 H   0  0  0  0  0  0  0  0  0  0  0  0
   74.8585  -18.7144   53.5851 H   0  0  0  0  0  0  0  0  0  0  0  0
   73.8555  -18.1802   52.4124 H   0  0  0  0  0  0  0  0  0  0  0  0
   80.9718  -14.6602   61.0753 H   0  0  0  0  0  0  0  0  0  0  0  0
   78.7940  -13.7650   61.4618 H   0  0  0  0  0  0  0  0  0  0  0  0
   81.2648  -16.4513   59.5315 H   0  0  0  0  0  0  0  0  0  0  0  0
   76.9072  -14.5998   60.2462 H   0  0  0  0  0  0  0  0  0  0  0  0
   79.3987  -17.2709   58.3051 H   0  0  0  0  0  0  0  0  0  0  0  0
   72.2610  -16.0904   54.2150 H   0  0  0  0  0  0  0  0  0  0  0  0
   70.5313  -18.1979   55.1034 H   0  0  0  0  0  0  0  0  0  0  0  0
   72.6622  -18.9504   54.2944 H   0  0  0  0  0  0  0  0  0  0  0  0
   71.2875  -16.0858   56.8101 H   0  0  0  0  0  0  0  0  0  0  0  0
  1 12  1  0  0  0  0
  2 18  2  0  0  0  0
  3 19  2  0  0  0  0
  4 21  1  0  0  0  0
  5 22  1  0  0  0  0
  6  8  1  0  0  0  0
  6 18  1  0  0  0  0
  7 20  1  0  0  0  0
  7 23  1  0  0  0  0
  8 20  2  0  0  0  0
  9 18  1  0  0  0  0
  9 24  1  0  0  0  0
 10 19  1  0  0  0  0
 10 25  1  0  0  0  0
 11 19  1  0  0  0  0
 12 23  1  0  0  0  0
 13 14  2  0  0  0  0
 13 15  1  0  0  0  0
 14 16  1  0  0  0  0
 15 17  2  0  0  0  0
 16 24  2  0  0  0  0
 17 24  1  0  0  0  0
 20 25  1  0  0  0  0
 21 22  1  0  0  0  0
 21 23  1  0  0  0  0
 22 25  1  0  0  0  0
  1 26  1  0  0  0  0
  4 27  1  0  0  0  0
  5 28  1  0  0  0  0
  9 29  1  0  0  0  0
 10 30  1  0  0  0  0
 11 31  1  0  0  0  0
 11 32  1  0  0  0  0
 11 33  1  0  0  0  0
 12 34  1  0  0  0  0
 12 35  1  0  0  0  0
 13 36  1  0  0  0  0
 14 37  1  0  0  0  0
 15 38  1  0  0  0  0
 16 39  1  0  0  0  0
 17 40  1  0  0  0  0
 21 41  1  0  0  0  0
 22 42  1  0  0  0  0
 23 43  1  0  0  0  0
 25 44  1  0  0  0  0
M  END
> <pdb_id>
5A6B

> <uniprot_id>
C1CH75

> <usmiles>
O=C(ON=C1O[C@@H]([C@@H](O)[C@H](O)[C@H]1NC(=O)C)CO)Nc2ccccc2

$$$$
OBW_A_401
          07202416123D 1   1.00000     0.00000     0
            
 33 36  0  0  0  0            999 V2000
   60.8475    2.4000   -2.2286 S   0  0  0  0  0  0  0  0  0  0  0  0
   66.7713   -0.6424   -5.8623 S   0  0  0  0  0  0  0  0  0  0  0  0
   63.7063    1.1532   -3.2358 S   0  0  0  0  0  0  0  0  0  0  0  0
   59.7598    4.0045   -0.2032 O   0  0  0  0  0  0  0  0  0  0  0  0
   57.6821    4.2891   -0.9642 O   0  0  0  0  0  0  0  0  0  0  0  0
   59.8478    1.3173   -4.4834 N   0  0  0  0  0  0  0  0  0  0  0  0
   61.2006    0.1104   -6.0770 N   0  0  0  0  0  0  0  0  0  0  0  0
   59.0631    2.7354   -2.1115 C   0  0  0  0  0  0  0  0  0  0  0  0
   60.0611    0.6516   -5.6230 C   0  0  0  0  0  0  0  0  0  0  0  0
   70.5968   -1.0873   -4.6429 C   0  0  0  0  0  0  0  0  0  0  0  0
   70.5271   -0.4531   -3.4193 C   0  0  0  0  0  0  0  0  0  0  0  0
   69.4789   -1.1590   -5.4592 C   0  0  0  0  0  0  0  0  0  0  0  0
   69.3345    0.1123   -2.9890 C   0  0  0  0  0  0  0  0  0  0  0  0
   63.6542   -0.0739   -5.4995 C   0  0  0  0  0  0  0  0  0  0  0  0
   66.8246    0.4877   -3.5338 C   0  0  0  0  0  0  0  0  0  0  0  0
   58.8706    3.7291   -0.9904 C   0  0  0  0  0  0  0  0  0  0  0  0
   60.9247    1.4632   -3.7047 C   0  0  0  0  0  0  0  0  0  0  0  0
   65.9627    0.1585   -4.5223 C   0  0  0  0  0  0  0  0  0  0  0  0
   64.5130    0.3113   -4.5339 C   0  0  0  0  0  0  0  0  0  0  0  0
   68.2783   -0.5986   -5.0258 C   0  0  0  0  0  0  0  0  0  0  0  0
   62.1849    0.9705   -4.0654 C   0  0  0  0  0  0  0  0  0  0  0  0
   62.2887    0.2963   -5.2783 C   0  0  0  0  0  0  0  0  0  0  0  0
   68.1837    0.0396   -3.7831 C   0  0  0  0  0  0  0  0  0  0  0  0
   60.6462    3.5463   -0.2698 H   0  0  0  0  0  0  0  0  0  0  0  0
   58.5678    1.8904   -1.9097 H   0  0  0  0  0  0  0  0  0  0  0  0
   58.7292    3.1202   -2.9720 H   0  0  0  0  0  0  0  0  0  0  0  0
   59.2637    0.5427   -6.2165 H   0  0  0  0  0  0  0  0  0  0  0  0
   71.4584   -1.4972   -4.9423 H   0  0  0  0  0  0  0  0  0  0  0  0
   71.3400   -0.4005   -2.8395 H   0  0  0  0  0  0  0  0  0  0  0  0
   69.5331   -1.6087   -6.3508 H   0  0  0  0  0  0  0  0  0  0  0  0
   69.2970    0.5758   -2.1037 H   0  0  0  0  0  0  0  0  0  0  0  0
   63.9490   -0.5804   -6.3098 H   0  0  0  0  0  0  0  0  0  0  0  0
   66.5533    0.9897   -2.7126 H   0  0  0  0  0  0  0  0  0  0  0  0
  1  8  1  0  0  0  0
  1 17  1  0  0  0  0
  2 18  1  0  0  0  0
  2 20  1  0  0  0  0
  3 19  1  0  0  0  0
  3 21  1  0  0  0  0
  4 16  1  0  0  0  0
  5 16  2  0  0  0  0
  6  9  2  0  0  0  0
  6 17  1  0  0  0  0
  7  9  1  0  0  0  0
  7 22  2  0  0  0  0
  8 16  1  0  0  0  0
 10 11  2  0  0  0  0
 10 12  1  0  0  0  0
 11 13  1  0  0  0  0
 12 20  2  0  0  0  0
 13 23  2  0  0  0  0
 14 19  2  0  0  0  0
 14 22  1  0  0  0  0
 15 18  2  0  0  0  0
 15 23  1  0  0  0  0
 17 21  2  0  0  0  0
 18 19  1  0  0  0  0
 20 23  1  0  0  0  0
 21 22  1  0  0  0  0
  4 24  1  0  0  0  0
  8 25  1  0  0  0  0
  8 26  1  0  0  0  0
  9 27  1  0  0  0  0
 10 28  1  0  0  0  0
 11 29  1  0  0  0  0
 12 30  1  0  0  0  0
 13 31  1  0  0  0  0
 14 32  1  0  0  0  0
 15 33  1  0  0  0  0
M  END
> <pdb_id>
6Y6H

> <uniprot_id>
O94768

> <usmiles>
S1c2c(SCC(=O)O)ncnc2C=C1C=3Sc4c(cccc4)C3

$$$$
OCZ_A_404
          07202409213D 1   1.00000     0.00000     0
            
 30 32  0  0  0  0            999 V2000
  -18.6254  -12.6472   28.3126 Cl  0  0  0  0  0  0  0  0  0  0  0  0
  -13.5482  -12.8359   21.7836 O   0  0  0  0  0  0  0  0  0  0  0  0
  -11.9277  -11.3909   21.1831 N   0  0  0  0  0  0  0  0  0  0  0  0
  -13.8039  -12.8407   25.0077 N   0  0  0  0  0  0  0  0  0  0  0  0
  -14.6588   -9.3127   22.9069 C   0  0  0  0  0  0  0  0  0  0  0  0
  -16.3444  -13.8704   27.5287 C   0  0  0  0  0  0  0  0  0  0  0  0
  -15.1901  -13.9818   26.7700 C   0  0  0  0  0  0  0  0  0  0  0  0
  -13.1923   -9.5879   23.2181 C   0  0  0  0  0  0  0  0  0  0  0  0
  -15.5750   -9.7675   24.0358 C   0  0  0  0  0  0  0  0  0  0  0  0
  -16.9208  -11.8111   26.3923 C   0  0  0  0  0  0  0  0  0  0  0  0
  -12.8505  -11.8439   22.0209 C   0  0  0  0  0  0  0  0  0  0  0  0
  -17.1882  -12.7891   27.3335 C   0  0  0  0  0  0  0  0  0  0  0  0
  -14.9007  -12.9988   25.8349 C   0  0  0  0  0  0  0  0  0  0  0  0
  -13.9595  -11.6620   24.3045 C   0  0  0  0  0  0  0  0  0  0  0  0
  -12.9209  -11.1068   23.3638 C   0  0  2  0  0  0  0  0  0  0  0  0
  -15.1345  -11.0688   24.6393 C   0  0  0  0  0  0  0  0  0  0  0  0
  -15.7584  -11.9055   25.6286 C   0  0  0  0  0  0  0  0  0  0  0  0
  -11.3888  -10.5832   21.4219 H   0  0  0  0  0  0  0  0  0  0  0  0
  -11.7708  -11.8571   20.3124 H   0  0  0  0  0  0  0  0  0  0  0  0
  -13.0313  -13.4710   24.9318 H   0  0  0  0  0  0  0  0  0  0  0  0
  -14.9090   -9.8013   22.0710 H   0  0  0  0  0  0  0  0  0  0  0  0
  -14.7808   -8.3300   22.7678 H   0  0  0  0  0  0  0  0  0  0  0  0
  -16.5668  -14.5657   28.2122 H   0  0  0  0  0  0  0  0  0  0  0  0
  -14.5744  -14.7598   26.8948 H   0  0  0  0  0  0  0  0  0  0  0  0
  -12.9497   -9.1305   24.0737 H   0  0  0  0  0  0  0  0  0  0  0  0
  -12.6286   -9.2264   22.4754 H   0  0  0  0  0  0  0  0  0  0  0  0
  -16.5006   -9.8781   23.6738 H   0  0  0  0  0  0  0  0  0  0  0  0
  -15.5778   -9.0669   24.7494 H   0  0  0  0  0  0  0  0  0  0  0  0
  -17.5526  -11.0471   26.2616 H   0  0  0  0  0  0  0  0  0  0  0  0
  -12.0308  -11.2097   23.8078 H   0  0  0  0  0  0  0  0  0  0  0  0
  1 12  1  0  0  0  0
  2 11  2  0  0  0  0
  3 11  1  0  0  0  0
  4 13  1  0  0  0  0
  4 14  1  0  0  0  0
  5  8  1  0  0  0  0
  5  9  1  0  0  0  0
  6  7  1  0  0  0  0
  6 12  2  0  0  0  0
  7 13  2  0  0  0  0
  8 15  1  0  0  0  0
  9 16  1  0  0  0  0
 10 12  1  0  0  0  0
 10 17  2  0  0  0  0
 11 15  1  0  0  0  0
 13 17  1  0  0  0  0
 14 15  1  0  0  0  0
 14 16  2  0  0  0  0
 16 17  1  0  0  0  0
  3 18  1  0  0  0  0
  3 19  1  0  0  0  0
  4 20  1  0  0  0  0
  5 21  1  0  0  0  0
  5 22  1  0  0  0  0
  6 23  1  0  0  0  0
  7 24  1  0  0  0  0
  8 25  1  0  0  0  0
  8 26  1  0  0  0  0
  9 27  1  0  0  0  0
  9 28  1  0  0  0  0
 10 29  1  0  0  0  0
 15 30  1  0  0  0  0
M  END
> <pdb_id>
5D7P

> <uniprot_id>
Q8IXJ6

> <usmiles>
Clc1cc2c(NC3=C2CCC[C@@H]3C(=O)N)cc1

$$$$
ODR_A_169
          07212401333D 1   1.00000     0.00000     0
            
 38 39  0  0  0  0            999 V2000
  -14.9945  -23.2189  -15.5162 O   0  0  0  0  0  0  0  0  0  0  0  0
  -15.5248  -23.7203  -22.4070 O   0  0  0  0  0  0  0  0  0  0  0  0
  -13.6677  -18.2161  -18.3583 O   0  0  0  0  0  0  0  0  0  0  0  0
  -16.2462  -22.5906  -22.8044 N   0  0  0  0  0  0  0  0  0  0  0  0
  -13.0107  -16.1023  -19.2369 C   0  0  0  0  0  0  0  0  0  0  0  0
  -16.7406  -21.5921  -15.4382 C   0  0  0  0  0  0  0  0  0  0  0  0
  -14.0325  -24.4881  -20.4846 C   0  0  0  0  0  0  0  0  0  0  0  0
  -16.7596  -20.3347  -22.0057 C   0  0  0  0  0  0  0  0  0  0  0  0
  -13.5097  -17.4943  -19.6060 C   0  0  0  0  0  0  0  0  0  0  0  0
  -14.4764  -20.0803  -17.2791 C   0  0  0  0  0  0  0  0  0  0  0  0
  -14.3964  -20.1588  -19.6747 C   0  0  0  0  0  0  0  0  0  0  0  0
  -15.2125  -22.0641  -18.4037 C   0  0  0  0  0  0  0  0  0  0  0  0
  -15.2889  -21.8616  -15.7752 C   0  0  2  0  0  0  0  0  0  0  0  0
  -14.9210  -23.4636  -21.2056 C   0  0  0  0  0  0  0  0  0  0  0  0
  -14.1709  -19.4694  -18.4783 C   0  0  0  0  0  0  0  0  0  0  0  0
  -16.0689  -21.6776  -21.8487 C   0  0  0  0  0  0  0  0  0  0  0  0
  -15.0016  -21.3588  -17.2111 C   0  0  0  0  0  0  0  0  0  0  0  0
  -14.9042  -21.4572  -19.6430 C   0  0  0  0  0  0  0  0  0  0  0  0
  -15.2208  -22.1535  -20.8287 C   0  0  0  0  0  0  0  0  0  0  0  0
  -14.0363  -23.4002  -15.7378 H   0  0  0  0  0  0  0  0  0  0  0  0
  -12.8852  -15.5617  -20.0688 H   0  0  0  0  0  0  0  0  0  0  0  0
  -13.6812  -15.6537  -18.6459 H   0  0  0  0  0  0  0  0  0  0  0  0
  -12.1384  -16.1780  -18.7538 H   0  0  0  0  0  0  0  0  0  0  0  0
  -16.9523  -20.6319  -15.6204 H   0  0  0  0  0  0  0  0  0  0  0  0
  -17.3271  -22.1752  -16.0003 H   0  0  0  0  0  0  0  0  0  0  0  0
  -16.9008  -21.7911  -14.4714 H   0  0  0  0  0  0  0  0  0  0  0  0
  -13.6965  -24.0944  -19.6290 H   0  0  0  0  0  0  0  0  0  0  0  0
  -14.5655  -25.3107  -20.2865 H   0  0  0  0  0  0  0  0  0  0  0  0
  -13.2568  -24.7264  -21.0691 H   0  0  0  0  0  0  0  0  0  0  0  0
  -16.5402  -19.7534  -21.2222 H   0  0  0  0  0  0  0  0  0  0  0  0
  -16.4445  -19.8941  -22.8463 H   0  0  0  0  0  0  0  0  0  0  0  0
  -17.7490  -20.4722  -22.0521 H   0  0  0  0  0  0  0  0  0  0  0  0
  -14.3863  -17.4323  -20.0833 H   0  0  0  0  0  0  0  0  0  0  0  0
  -12.8435  -17.9567  -20.1912 H   0  0  0  0  0  0  0  0  0  0  0  0
  -14.3122  -19.5810  -16.4284 H   0  0  0  0  0  0  0  0  0  0  0  0
  -14.1939  -19.7213  -20.5508 H   0  0  0  0  0  0  0  0  0  0  0  0
  -15.5799  -22.9938  -18.3781 H   0  0  0  0  0  0  0  0  0  0  0  0
  -14.7324  -21.3127  -15.1514 H   0  0  0  0  0  0  0  0  0  0  0  0
  1 13  1  0  0  0  0
  2  4  1  0  0  0  0
  2 14  1  0  0  0  0
  3  9  1  0  0  0  0
  3 15  1  0  0  0  0
  4 16  2  0  0  0  0
  5  9  1  0  0  0  0
  6 13  1  0  0  0  0
  7 14  1  0  0  0  0
  8 16  1  0  0  0  0
 10 15  2  0  0  0  0
 10 17  1  0  0  0  0
 11 15  1  0  0  0  0
 11 18  2  0  0  0  0
 12 17  2  0  0  0  0
 12 18  1  0  0  0  0
 13 17  1  0  0  0  0
 14 19  2  0  0  0  0
 16 19  1  0  0  0  0
 18 19  1  0  0  0  0
  1 20  1  0  0  0  0
  5 21  1  0  0  0  0
  5 22  1  0  0  0  0
  5 23  1  0  0  0  0
  6 24  1  0  0  0  0
  6 25  1  0  0  0  0
  6 26  1  0  0  0  0
  7 27  1  0  0  0  0
  7 28  1  0  0  0  0
  7 29  1  0  0  0  0
  8 30  1  0  0  0  0
  8 31  1  0  0  0  0
  8 32  1  0  0  0  0
  9 33  1  0  0  0  0
  9 34  1  0  0  0  0
 10 35  1  0  0  0  0
 11 36  1  0  0  0  0
 12 37  1  0  0  0  0
 13 38  1  0  0  0  0
M  END
> <pdb_id>
3SVG

> <uniprot_id>
O60885

> <usmiles>
O1N=C(C(c2cc(OCC)cc(c2)[C@H](O)C)=C1C)C

$$$$
ODW_A_701
          07202415563D 1   1.00000     0.00000     0
            
 28 29  0  0  0  0            999 V2000
   80.8080   87.9770   16.8320 O   0  0  0  0  0  0  0  0  0  0  0  0
   78.8770   88.0020   20.4990 O   0  0  0  0  0  0  0  0  0  0  0  0
   77.2800   89.7280   21.4930 O   0  0  0  0  0  0  0  0  0  0  0  0
   75.3950   90.4280   19.4170 O   0  0  0  0  0  0  0  0  0  0  0  0
   76.9130   89.6730   17.9210 N   0  0  0  0  0  0  0  0  0  0  0  0
   80.0730   87.7780   18.0220 C   0  0  0  0  0  0  0  0  0  0  0  0
   77.0600   87.3820   18.2240 C   0  0  0  0  0  0  0  0  0  0  0  0
   76.1500   88.0670   19.3310 C   0  0  0  0  0  0  0  0  0  0  0  0
   78.9760   89.1280   19.8650 C   0  0  2  0  0  0  0  0  0  0  0  0
   77.7800   88.6640   17.6190 C   0  0  2  0  0  0  0  0  0  0  0  0
   77.6360   89.9770   20.1600 C   0  0  1  0  0  0  0  0  0  0  0  0
   79.1150   88.8920   18.2430 C   0  0  2  0  0  0  0  0  0  0  0  0
   76.5440   89.6060   19.1690 C   0  0  2  0  0  0  0  0  0  0  0  0
   81.4454   87.2173   16.7029 H   0  0  0  0  0  0  0  0  0  0  0  0
   79.6965   87.4533   20.3338 H   0  0  0  0  0  0  0  0  0  0  0  0
   76.4498   90.2384   21.7172 H   0  0  0  0  0  0  0  0  0  0  0  0
   75.1356   90.3566   20.3801 H   0  0  0  0  0  0  0  0  0  0  0  0
   76.1057   89.5981   17.3356 H   0  0  0  0  0  0  0  0  0  0  0  0
   80.7062   87.7320   18.7946 H   0  0  0  0  0  0  0  0  0  0  0  0
   79.5664   86.9185   17.9546 H   0  0  0  0  0  0  0  0  0  0  0  0
   76.5117   86.9061   17.5364 H   0  0  0  0  0  0  0  0  0  0  0  0
   77.7164   86.7441   18.6269 H   0  0  0  0  0  0  0  0  0  0  0  0
   76.3717   87.7285   20.2455 H   0  0  0  0  0  0  0  0  0  0  0  0
   75.1784   87.9183   19.1470 H   0  0  0  0  0  0  0  0  0  0  0  0
   79.7723   89.6319   20.1996 H   0  0  0  0  0  0  0  0  0  0  0  0
   77.8727   88.5729   16.6275 H   0  0  0  0  0  0  0  0  0  0  0  0
   77.8437   90.9500   20.0595 H   0  0  0  0  0  0  0  0  0  0  0  0
   79.5063   89.7205   17.8423 H   0  0  0  0  0  0  0  0  0  0  0  0
  1  6  1  0  0  0  0
  2  9  1  0  0  0  0
  3 11  1  0  0  0  0
  4 13  1  0  0  0  0
  5 10  1  0  0  0  0
  5 13  1  0  0  0  0
  6 12  1  0  0  0  0
  7  8  1  0  0  0  0
  7 10  1  0  0  0  0
  8 13  1  0  0  0  0
  9 11  1  0  0  0  0
  9 12  1  0  0  0  0
 10 12  1  0  0  0  0
 11 13  1  0  0  0  0
  1 14  1  0  0  0  0
  2 15  1  0  0  0  0
  3 16  1  0  0  0  0
  4 17  1  0  0  0  0
  5 18  1  0  0  0  0
  6 19  1  0  0  0  0
  6 20  1  0  0  0  0
  7 21  1  0  0  0  0
  7 22  1  0  0  0  0
  8 23  1  0  0  0  0
  8 24  1  0  0  0  0
  9 25  1  0  0  0  0
 10 26  1  0  0  0  0
 11 27  1  0  0  0  0
 12 28  1  0  0  0  0
M  END
> <pdb_id>
6Y6S

> <uniprot_id>
P54818

> <usmiles>
O[C@@]12N[C@@H]([C@@H]([C@H](O)[C@@H]1O)CO)CC2

$$$$
OE2_A_1264
          07192416293D 1   1.00000     0.00000     0
            
 35 35  0  0  0  0            999 V2000
   -0.8739    9.2085   15.6809 Br  0  0  0  0  0  0  0  0  0  0  0  0
   -5.7087    0.9883   16.7498 S   0  0  0  0  0  0  0  0  0  0  0  0
   -7.0911    1.2876   16.4180 O   0  0  0  0  0  0  0  0  0  0  0  0
   -5.3835    1.0774   18.1654 O   0  0  0  0  0  0  0  0  0  0  0  0
   -0.2113    5.0004   13.1039 O   0  0  0  0  0  0  0  0  0  0  0  0
   -4.8247    5.0201   13.5517 O   0  0  0  0  0  0  0  0  0  0  0  0
   -1.6737   11.1894   13.6015 O   0  0  0  0  0  0  0  0  0  0  0  0
   -5.3152   -0.4708   16.1952 N   0  0  0  0  0  0  0  0  0  0  0  0
   -1.3762    4.4273   13.6594 N   0  0  0  0  0  0  0  0  0  0  0  0
   -3.7245    3.0280   14.0139 N   0  0  0  0  0  0  0  0  0  0  0  0
   -4.6275    2.1355   15.9688 C   0  0  0  0  0  0  0  0  0  0  0  0
   -4.9279    2.3476   14.5157 C   0  0  0  0  0  0  0  0  0  0  0  0
   -2.4260    9.6392   11.9776 C   0  0  0  0  0  0  0  0  0  0  0  0
   -2.6096    8.3175   11.6372 C   0  0  0  0  0  0  0  0  0  0  0  0
   -1.7467    7.5350   13.7287 C   0  0  0  0  0  0  0  0  0  0  0  0
   -2.5148    5.9046   12.0291 C   0  0  0  0  0  0  0  0  0  0  0  0
   -1.5703    8.8476   14.0392 C   0  0  0  0  0  0  0  0  0  0  0  0
   -3.7998    4.3400   13.6284 C   0  0  0  0  0  0  0  0  0  0  0  0
   -1.8867    9.8974   13.2051 C   0  0  0  0  0  0  0  0  0  0  0  0
   -2.2791    7.2768   12.5003 C   0  0  0  0  0  0  0  0  0  0  0  0
   -2.4664    4.8853   13.1383 C   0  0  0  0  0  0  0  0  0  0  0  0
    0.6901    4.7190   13.4329 H   0  0  0  0  0  0  0  0  0  0  0  0
   -1.2787   11.3779   14.5006 H   0  0  0  0  0  0  0  0  0  0  0  0
   -4.3630   -0.6699   16.4270 H   0  0  0  0  0  0  0  0  0  0  0  0
   -5.9104   -1.1577   16.6122 H   0  0  0  0  0  0  0  0  0  0  0  0
   -2.8562    2.5355   13.9545 H   0  0  0  0  0  0  0  0  0  0  0  0
   -3.6911    1.7947   16.0518 H   0  0  0  0  0  0  0  0  0  0  0  0
   -4.7053    3.0144   16.4395 H   0  0  0  0  0  0  0  0  0  0  0  0
   -5.0665    1.4747   14.0480 H   0  0  0  0  0  0  0  0  0  0  0  0
   -5.7385    2.9213   14.3980 H   0  0  0  0  0  0  0  0  0  0  0  0
   -2.6770   10.3782   11.3525 H   0  0  0  0  0  0  0  0  0  0  0  0
   -2.9930    8.0981   10.7401 H   0  0  0  0  0  0  0  0  0  0  0  0
   -1.5007    6.8028   14.3638 H   0  0  0  0  0  0  0  0  0  0  0  0
   -1.8139    5.6745   11.3539 H   0  0  0  0  0  0  0  0  0  0  0  0
   -3.4170    5.8656   11.5994 H   0  0  0  0  0  0  0  0  0  0  0  0
  1 17  1  0  0  0  0
  2  3  2  0  0  0  0
  2  4  2  0  0  0  0
  2  8  1  0  0  0  0
  2 11  1  0  0  0  0
  5  9  1  0  0  0  0
  6 18  2  0  0  0  0
  7 19  1  0  0  0  0
  9 21  2  0  0  0  0
 10 12  1  0  0  0  0
 10 18  1  0  0  0  0
 11 12  1  0  0  0  0
 13 14  1  0  0  0  0
 13 19  2  0  0  0  0
 14 20  2  0  0  0  0
 15 17  2  0  0  0  0
 15 20  1  0  0  0  0
 16 20  1  0  0  0  0
 16 21  1  0  0  0  0
 17 19  1  0  0  0  0
 18 21  1  0  0  0  0
  5 22  1  0  0  0  0
  7 23  1  0  0  0  0
  8 24  1  0  0  0  0
  8 25  1  0  0  0  0
 10 26  1  0  0  0  0
 11 27  1  0  0  0  0
 11 28  1  0  0  0  0
 12 29  1  0  0  0  0
 12 30  1  0  0  0  0
 13 31  1  0  0  0  0
 14 32  1  0  0  0  0
 15 33  1  0  0  0  0
 16 34  1  0  0  0  0
 16 35  1  0  0  0  0
M  END
> <pdb_id>
5A6H

> <uniprot_id>
P00918

> <usmiles>
Brc1c(O)ccc(c1)CC(=NO)C(=O)NCCS(=O)(=O)N

$$$$
OE4_C_601
          07202407493D 1   1.00000     0.00000     0
            
 51 55  0  0  0  0            999 V2000
    8.2042   -7.3154   43.1837 O   0  0  0  0  0  0  0  0  0  0  0  0
    6.3914   -2.6100   49.0677 O   0  0  0  0  0  0  0  0  0  0  0  0
   10.5200   -0.8772   48.1552 O   0  0  0  0  0  0  0  0  0  0  0  0
    9.7982   -8.5603   36.6413 N   0  0  0  0  0  0  0  0  0  0  0  0
   10.0655   -6.0466   43.5618 N   0  0  0  0  0  0  0  0  0  0  0  0
    9.9834   -7.6870   41.8805 N   0  0  0  0  0  0  0  0  0  0  0  0
    8.4032   -1.7935   48.2208 N   0  0  0  0  0  0  0  0  0  0  0  0
   10.7425   -7.7911   36.0422 C   0  0  0  0  0  0  0  0  0  0  0  0
    9.7847   -8.7684   37.9852 C   0  0  0  0  0  0  0  0  0  0  0  0
   11.7313   -7.1656   36.8041 C   0  0  0  0  0  0  0  0  0  0  0  0
    8.6038   -1.8181   52.8706 C   0  0  0  0  0  0  0  0  0  0  0  0
    9.8863   -1.2620   52.6050 C   0  0  0  0  0  0  0  0  0  0  0  0
   11.3036   -7.3817   41.3615 C   0  0  0  0  0  0  0  0  0  0  0  0
    9.4424   -8.7725   41.0915 C   0  0  0  0  0  0  0  0  0  0  0  0
    8.0941   -1.7486   46.8080 C   0  0  0  0  0  0  0  0  0  0  0  0
   11.7129   -7.3521   38.1973 C   0  0  0  0  0  0  0  0  0  0  0  0
    7.6973   -2.1285   51.8325 C   0  0  0  0  0  0  0  0  0  0  0  0
   10.3441   -1.0598   51.2837 C   0  0  0  0  0  0  0  0  0  0  0  0
   10.3060   -3.8753   44.5270 C   0  0  0  0  0  0  0  0  0  0  0  0
    8.3998   -5.2105   45.1987 C   0  0  0  0  0  0  0  0  0  0  0  0
    9.8271   -2.7977   45.2919 C   0  0  0  0  0  0  0  0  0  0  0  0
    7.9273   -4.1452   45.9789 C   0  0  0  0  0  0  0  0  0  0  0  0
    9.3556   -7.0025   42.8837 C   0  0  0  0  0  0  0  0  0  0  0  0
    7.5297   -2.1642   49.1918 C   0  0  0  0  0  0  0  0  0  0  0  0
    9.5383   -1.2981   48.7575 C   0  0  0  0  0  0  0  0  0  0  0  0
    9.6108   -5.0887   44.4932 C   0  0  0  0  0  0  0  0  0  0  0  0
    8.6440   -2.9398   46.0308 C   0  0  0  0  0  0  0  0  0  0  0  0
   10.7208   -8.1399   38.8182 C   0  0  0  0  0  0  0  0  0  0  0  0
   10.7512   -8.4163   40.3295 C   0  0  0  0  0  0  0  0  0  0  0  0
    8.1698   -1.9359   50.5273 C   0  0  0  0  0  0  0  0  0  0  0  0
    9.4454   -1.4027   50.2570 C   0  0  0  0  0  0  0  0  0  0  0  0
   11.0465   -6.0247   43.3692 H   0  0  0  0  0  0  0  0  0  0  0  0
   10.7300   -7.6718   35.0494 H   0  0  0  0  0  0  0  0  0  0  0  0
    9.0988   -9.3770   38.3840 H   0  0  0  0  0  0  0  0  0  0  0  0
   12.4333   -6.6005   36.3707 H   0  0  0  0  0  0  0  0  0  0  0  0
    8.3368   -1.9940   53.8181 H   0  0  0  0  0  0  0  0  0  0  0  0
   10.4770   -1.0084   53.3709 H   0  0  0  0  0  0  0  0  0  0  0  0
   12.0846   -7.6693   41.9158 H   0  0  0  0  0  0  0  0  0  0  0  0
   11.4546   -6.4501   41.0306 H   0  0  0  0  0  0  0  0  0  0  0  0
    8.5811   -8.5973   40.6145 H   0  0  0  0  0  0  0  0  0  0  0  0
    9.4050   -9.6717   41.5275 H   0  0  0  0  0  0  0  0  0  0  0  0
    8.4847   -0.9119   46.4243 H   0  0  0  0  0  0  0  0  0  0  0  0
    7.1000   -1.7318   46.7012 H   0  0  0  0  0  0  0  0  0  0  0  0
   12.4168   -6.9177   38.7593 H   0  0  0  0  0  0  0  0  0  0  0  0
    6.7742   -2.4653   52.0178 H   0  0  0  0  0  0  0  0  0  0  0  0
   11.2544   -0.6941   51.0895 H   0  0  0  0  0  0  0  0  0  0  0  0
   11.1512   -3.7737   44.0023 H   0  0  0  0  0  0  0  0  0  0  0  0
    7.8742   -6.0594   45.1437 H   0  0  0  0  0  0  0  0  0  0  0  0
   10.3285   -1.9327   45.3091 H   0  0  0  0  0  0  0  0  0  0  0  0
    7.0788   -4.2447   46.4987 H   0  0  0  0  0  0  0  0  0  0  0  0
   11.3363   -9.2207   40.4326 H   0  0  0  0  0  0  0  0  0  0  0  0
  1 23  2  0  0  0  0
  2 24  2  0  0  0  0
  3 25  2  0  0  0  0
  4  8  2  0  0  0  0
  4  9  1  0  0  0  0
  5 23  1  0  0  0  0
  5 26  1  0  0  0  0
  6 13  1  0  0  0  0
  6 14  1  0  0  0  0
  6 23  1  0  0  0  0
  7 15  1  0  0  0  0
  7 24  1  0  0  0  0
  7 25  1  0  0  0  0
  8 10  1  0  0  0  0
  9 28  2  0  0  0  0
 10 16  2  0  0  0  0
 11 12  2  0  0  0  0
 11 17  1  0  0  0  0
 12 18  1  0  0  0  0
 13 29  1  0  0  0  0
 14 29  1  0  0  0  0
 15 27  1  0  0  0  0
 16 28  1  0  0  0  0
 17 30  2  0  0  0  0
 18 31  2  0  0  0  0
 19 21  1  0  0  0  0
 19 26  2  0  0  0  0
 20 22  2  0  0  0  0
 20 26  1  0  0  0  0
 21 27  2  0  0  0  0
 22 27  1  0  0  0  0
 24 30  1  0  0  0  0
 25 31  1  0  0  0  0
 28 29  1  0  0  0  0
 30 31  1  0  0  0  0
  5 32  1  0  0  0  0
  8 33  1  0  0  0  0
  9 34  1  0  0  0  0
 10 35  1  0  0  0  0
 11 36  1  0  0  0  0
 12 37  1  0  0  0  0
 13 38  1  0  0  0  0
 13 39  1  0  0  0  0
 14 40  1  0  0  0  0
 14 41  1  0  0  0  0
 15 42  1  0  0  0  0
 15 43  1  0  0  0  0
 16 44  1  0  0  0  0
 17 45  1  0  0  0  0
 18 46  1  0  0  0  0
 19 47  1  0  0  0  0
 20 48  1  0  0  0  0
 21 49  1  0  0  0  0
 22 50  1  0  0  0  0
 29 51  1  0  0  0  0
M  END
> <pdb_id>
6PEB

> <uniprot_id>
P43490

> <usmiles>
O=C(N1CC(c2cnccc2)C1)Nc3ccc(cc3)CN4C(=O)c5c(cccc5)C4=O

$$$$
OEM_A_287
          07202407113D 1   1.00000     0.00000     0
            
 19 18  0  0  0  0            999 V2000
    9.6367   38.0055   12.3224 O   0  0  0  0  0  0  0  0  0  0  0  0
    8.0602   38.2898   13.8172 O   0  0  0  0  0  0  0  0  0  0  0  0
    8.1308   36.1955    9.0907 O   0  0  0  0  0  0  0  0  0  0  0  0
    6.9463   36.2403   10.9331 O   0  0  0  0  0  0  0  0  0  0  0  0
    9.2743   38.5624    9.7453 N   0  0  0  0  0  0  0  0  0  0  0  0
    9.7316   39.9182    9.4890 C   0  0  0  0  0  0  0  0  0  0  0  0
    7.5698   38.8740   11.5541 C   0  0  0  0  0  0  0  0  0  0  0  0
    8.4851   38.3541   12.6425 C   0  0  0  0  0  0  0  0  0  0  0  0
    7.6479   36.8027   10.0755 C   0  0  0  0  0  0  0  0  0  0  0  0
    7.9150   38.2808   10.1764 C   0  0  2  0  0  0  0  0  0  0  0  0
    9.9334   38.0745   11.3700 H   0  0  0  0  0  0  0  0  0  0  0  0
    8.6903   36.6886    8.4245 H   0  0  0  0  0  0  0  0  0  0  0  0
    9.8757   38.1924   10.4534 H   0  0  0  0  0  0  0  0  0  0  0  0
   10.6900   39.8985    9.2043 H   0  0  0  0  0  0  0  0  0  0  0  0
    9.1767   40.3257    8.7637 H   0  0  0  0  0  0  0  0  0  0  0  0
    9.6427   40.4632   10.3228 H   0  0  0  0  0  0  0  0  0  0  0  0
    7.6565   39.8692   11.5078 H   0  0  0  0  0  0  0  0  0  0  0  0
    6.6269   38.6319   11.7826 H   0  0  0  0  0  0  0  0  0  0  0  0
    7.3095   38.7248    9.5159 H   0  0  0  0  0  0  0  0  0  0  0  0
  1  8  1  0  0  0  0
  2  8  2  0  0  0  0
  3  9  1  0  0  0  0
  4  9  2  0  0  0  0
  5  6  1  0  0  0  0
  5 10  1  0  0  0  0
  7  8  1  0  0  0  0
  7 10  1  0  0  0  0
  9 10  1  0  0  0  0
  1 11  1  0  0  0  0
  3 12  1  0  0  0  0
  5 13  1  0  0  0  0
  6 14  1  0  0  0  0
  6 15  1  0  0  0  0
  6 16  1  0  0  0  0
  7 17  1  0  0  0  0
  7 18  1  0  0  0  0
 10 19  1  0  0  0  0
M  END
> <pdb_id>
3OEM

> <uniprot_id>
Q62645

> <usmiles>
O=C(O)[C@H](NC)CC(=O)O

$$$$
OFG_A_2401
          07192418053D 1   1.00000     0.00000     0
            
 46 49  0  0  0  0            999 V2000
    8.9591   16.6902   12.0376 F   0  0  0  0  0  0  0  0  0  0  0  0
    5.1315   14.7944    9.1070 O   0  0  0  0  0  0  0  0  0  0  0  0
    3.0847   14.2073   10.8038 N   0  0  0  0  0  0  0  0  0  0  0  0
    3.5250   20.9981    6.7074 N   0  0  0  0  0  0  0  0  0  0  0  0
    2.1932   20.9114    6.7162 N   0  0  0  0  0  0  0  0  0  0  0  0
    6.8914   18.4690    6.2604 N   0  0  0  0  0  0  0  0  0  0  0  0
    7.7928   16.4312    5.6908 N   0  0  0  0  0  0  0  0  0  0  0  0
    1.9527   16.2341   10.2191 N   0  0  0  0  0  0  0  0  0  0  0  0
    7.5101   17.3241    6.6673 N   0  0  0  0  0  0  0  0  0  0  0  0
    6.9538   13.5770    8.1362 C   0  0  0  0  0  0  0  0  0  0  0  0
    0.2130   19.6226    7.4269 C   0  0  0  0  0  0  0  0  0  0  0  0
    6.7816   18.2781    4.9491 C   0  0  0  0  0  0  0  0  0  0  0  0
    7.3258   17.0442    4.6024 C   0  0  0  0  0  0  0  0  0  0  0  0
    3.9018   19.9066    7.3745 C   0  0  0  0  0  0  0  0  0  0  0  0
    1.8892   17.4063    9.5021 C   0  0  0  0  0  0  0  0  0  0  0  0
    9.1230   17.8844    9.9980 C   0  0  0  0  0  0  0  0  0  0  0  0
    8.7450   18.0279    8.6405 C   0  0  0  0  0  0  0  0  0  0  0  0
    7.7008   15.8904   10.1848 C   0  0  0  0  0  0  0  0  0  0  0  0
    3.9852   16.9537    8.4406 C   0  0  0  0  0  0  0  0  0  0  0  0
    8.6001   16.8211   10.7576 C   0  0  0  0  0  0  0  0  0  0  0  0
    3.0376   15.4042   10.0563 C   0  0  0  0  0  0  0  0  0  0  0  0
    6.3003   14.9609    8.2496 C   0  0  2  0  0  0  0  0  0  0  0  0
    4.0976   15.7252    9.1667 C   0  0  0  0  0  0  0  0  0  0  0  0
    1.6900   19.8111    7.3595 C   0  0  0  0  0  0  0  0  0  0  0  0
    7.8339   17.0980    8.0369 C   0  0  0  0  0  0  0  0  0  0  0  0
    2.8753   17.8336    8.5887 C   0  0  0  0  0  0  0  0  0  0  0  0
    2.8131   19.1005    7.8221 C   0  0  0  0  0  0  0  0  0  0  0  0
    7.2900   16.0029    8.8073 C   0  0  0  0  0  0  0  0  0  0  0  0
    3.8620   13.5860   10.7045 H   0  0  0  0  0  0  0  0  0  0  0  0
    2.3408   13.9808   11.4325 H   0  0  0  0  0  0  0  0  0  0  0  0
    4.0997   21.7079    6.3003 H   0  0  0  0  0  0  0  0  0  0  0  0
    7.7651   13.6381    7.5546 H   0  0  0  0  0  0  0  0  0  0  0  0
    7.2192   13.2581    9.0460 H   0  0  0  0  0  0  0  0  0  0  0  0
    6.3030   12.9331    7.7339 H   0  0  0  0  0  0  0  0  0  0  0  0
    0.0068   18.7803    7.9249 H   0  0  0  0  0  0  0  0  0  0  0  0
   -0.2009   20.3999    7.9007 H   0  0  0  0  0  0  0  0  0  0  0  0
   -0.1578   19.5613    6.5002 H   0  0  0  0  0  0  0  0  0  0  0  0
    6.3694   18.9247    4.3073 H   0  0  0  0  0  0  0  0  0  0  0  0
    7.3613   16.6727    3.6746 H   0  0  0  0  0  0  0  0  0  0  0  0
    4.8594   19.6744    7.5452 H   0  0  0  0  0  0  0  0  0  0  0  0
    1.0916   17.9941    9.6375 H   0  0  0  0  0  0  0  0  0  0  0  0
    9.7580   18.5351   10.4145 H   0  0  0  0  0  0  0  0  0  0  0  0
    9.1157   18.7824    8.0989 H   0  0  0  0  0  0  0  0  0  0  0  0
    7.3443   15.1424   10.7447 H   0  0  0  0  0  0  0  0  0  0  0  0
    4.7149   17.2039    7.8043 H   0  0  0  0  0  0  0  0  0  0  0  0
    5.9985   15.2529    7.3421 H   0  0  0  0  0  0  0  0  0  0  0  0
  1 20  1  0  0  0  0
  2 22  1  0  0  0  0
  2 23  1  0  0  0  0
  3 21  1  0  0  0  0
  4  5  1  0  0  0  0
  4 14  1  0  0  0  0
  5 24  2  0  0  0  0
  6  9  1  0  0  0  0
  6 12  2  0  0  0  0
  7  9  1  0  0  0  0
  7 13  2  0  0  0  0
  8 15  1  0  0  0  0
  8 21  2  0  0  0  0
  9 25  1  0  0  0  0
 10 22  1  0  0  0  0
 11 24  1  0  0  0  0
 12 13  1  0  0  0  0
 14 27  2  0  0  0  0
 15 26  2  0  0  0  0
 16 17  2  0  0  0  0
 16 20  1  0  0  0  0
 17 25  1  0  0  0  0
 18 20  2  0  0  0  0
 18 28  1  0  0  0  0
 19 23  2  0  0  0  0
 19 26  1  0  0  0  0
 21 23  1  0  0  0  0
 22 28  1  0  0  0  0
 24 27  1  0  0  0  0
 25 28  2  0  0  0  0
 26 27  1  0  0  0  0
  3 29  1  0  0  0  0
  3 30  1  0  0  0  0
  4 31  1  0  0  0  0
 10 32  1  0  0  0  0
 10 33  1  0  0  0  0
 10 34  1  0  0  0  0
 11 35  1  0  0  0  0
 11 36  1  0  0  0  0
 11 37  1  0  0  0  0
 12 38  1  0  0  0  0
 13 39  1  0  0  0  0
 14 40  1  0  0  0  0
 15 41  1  0  0  0  0
 16 42  1  0  0  0  0
 17 43  1  0  0  0  0
 18 44  1  0  0  0  0
 19 45  1  0  0  0  0
 22 46  1  0  0  0  0
M  END
> <pdb_id>
4CCB

> <uniprot_id>
Q9UM73

> <usmiles>
Fc1cc(c(N2N=CC=N2)cc1)[C@H](Oc3c(ncc(c3)C=4C(=NNC4)C)N)C

$$$$
OGA_A_1700
          07202410113D 1   1.00000     0.00000     0
            
 15 14  0  0  0  0            999 V2000
   84.3166   38.5458   21.5558 O   0  0  0  0  0  0  0  0  0  0  0  0
   82.9260   38.4177   23.2523 O   0  0  0  0  0  0  0  0  0  0  0  0
   79.3584   41.0840   24.1250 O   0  0  0  0  0  0  0  0  0  0  0  0
   79.3948   43.1957   23.5612 O   0  0  0  0  0  0  0  0  0  0  0  0
   81.8094   42.8048   22.4775 O   0  0  0  0  0  0  0  0  0  0  0  0
   81.5486   40.5936   22.5867 N   0  0  0  0  0  0  0  0  0  0  0  0
   82.7584   40.3170   21.8354 C   0  0  0  0  0  0  0  0  0  0  0  0
   83.3773   39.0014   22.2431 C   0  0  0  0  0  0  0  0  0  0  0  0
   79.8982   42.0519   23.5465 C   0  0  0  0  0  0  0  0  0  0  0  0
   81.1532   41.8397   22.8318 C   0  0  0  0  0  0  0  0  0  0  0  0
   84.6422   39.0510   20.7566 H   0  0  0  0  0  0  0  0  0  0  0  0
   79.7868   40.1810   24.0944 H   0  0  0  0  0  0  0  0  0  0  0  0
   80.9998   39.8304   22.9279 H   0  0  0  0  0  0  0  0  0  0  0  0
   83.4176   41.0507   22.0001 H   0  0  0  0  0  0  0  0  0  0  0  0
   82.5347   40.2825   20.8613 H   0  0  0  0  0  0  0  0  0  0  0  0
  1  8  1  0  0  0  0
  2  8  2  0  0  0  0
  3  9  1  0  0  0  0
  4  9  2  0  0  0  0
  5 10  2  0  0  0  0
  6  7  1  0  0  0  0
  6 10  1  0  0  0  0
  7  8  1  0  0  0  0
  9 10  1  0  0  0  0
  1 11  1  0  0  0  0
  3 12  1  0  0  0  0
  6 13  1  0  0  0  0
  7 14  1  0  0  0  0
  7 15  1  0  0  0  0
M  END
> <pdb_id>
4EYU

> <uniprot_id>
Q5NCY0

> <usmiles>
O=C(O)C(=O)NCC(=O)O

$$$$
OGA_A_302
          07202417003D 1   1.00000     0.00000     0
            
 15 14  0  0  0  0            999 V2000
   -2.9390   13.6160  -22.0910 O   0  0  0  0  0  0  0  0  0  0  0  0
   -4.6640   12.2810  -21.6990 O   0  0  0  0  0  0  0  0  0  0  0  0
   -8.0790   14.4950  -18.7300 O   0  0  0  0  0  0  0  0  0  0  0  0
   -8.1610   16.6700  -18.8730 O   0  0  0  0  0  0  0  0  0  0  0  0
   -6.7110   16.5690  -21.0830 O   0  0  0  0  0  0  0  0  0  0  0  0
   -6.2090   14.4390  -20.8280 N   0  0  0  0  0  0  0  0  0  0  0  0
   -5.0250   14.6290  -21.6540 C   0  0  0  0  0  0  0  0  0  0  0  0
   -4.1470   13.4170  -21.8180 C   0  0  0  0  0  0  0  0  0  0  0  0
   -7.7530   15.5620  -19.2920 C   0  0  0  0  0  0  0  0  0  0  0  0
   -6.8660   15.5380  -20.4580 C   0  0  0  0  0  0  0  0  0  0  0  0
   -2.5919   14.5504  -22.1713 H   0  0  0  0  0  0  0  0  0  0  0  0
   -7.7418   13.6216  -19.0813 H   0  0  0  0  0  0  0  0  0  0  0  0
   -6.5145   13.5278  -20.5516 H   0  0  0  0  0  0  0  0  0  0  0  0
   -4.4745   15.3545  -21.2409 H   0  0  0  0  0  0  0  0  0  0  0  0
   -5.3266   14.9161  -22.5632 H   0  0  0  0  0  0  0  0  0  0  0  0
  1  8  1  0  0  0  0
  2  8  2  0  0  0  0
  3  9  1  0  0  0  0
  4  9  2  0  0  0  0
  5 10  2  0  0  0  0
  6  7  1  0  0  0  0
  6 10  1  0  0  0  0
  7  8  1  0  0  0  0
  9 10  1  0  0  0  0
  1 11  1  0  0  0  0
  3 12  1  0  0  0  0
  6 13  1  0  0  0  0
  7 14  1  0  0  0  0
  7 15  1  0  0  0  0
M  END
> <pdb_id>
4NRP

> <uniprot_id>
Q6P6C2

> <usmiles>
O=C(O)C(=O)NCC(=O)O

$$$$
OGA_A_404
          07202410153D 1   1.00000     0.00000     0
            
 15 14  0  0  0  0            999 V2000
   12.4378    1.9468   17.6188 O   0  0  0  0  0  0  0  0  0  0  0  0
   10.7670    0.4206   17.6133 O   0  0  0  0  0  0  0  0  0  0  0  0
    6.3546    1.6371   17.0009 O   0  0  0  0  0  0  0  0  0  0  0  0
    5.6188    3.6858   17.7228 O   0  0  0  0  0  0  0  0  0  0  0  0
    7.9972    4.3008   18.4479 O   0  0  0  0  0  0  0  0  0  0  0  0
    8.8587    2.3836   17.5632 N   0  0  0  0  0  0  0  0  0  0  0  0
   10.2752    2.7409   17.8385 C   0  0  0  0  0  0  0  0  0  0  0  0
   11.2161    1.5854   17.7131 C   0  0  0  0  0  0  0  0  0  0  0  0
    6.4675    2.7805   17.5192 C   0  0  0  0  0  0  0  0  0  0  0  0
    7.8652    3.1995   17.8778 C   0  0  0  0  0  0  0  0  0  0  0  0
   12.6828    2.9114   17.7160 H   0  0  0  0  0  0  0  0  0  0  0  0
    7.1551    1.0431   16.9211 H   0  0  0  0  0  0  0  0  0  0  0  0
    8.6516    1.5063   17.1303 H   0  0  0  0  0  0  0  0  0  0  0  0
   10.3361    3.0992   18.7702 H   0  0  0  0  0  0  0  0  0  0  0  0
   10.5550    3.4489   17.1902 H   0  0  0  0  0  0  0  0  0  0  0  0
  1  8  1  0  0  0  0
  2  8  2  0  0  0  0
  3  9  1  0  0  0  0
  4  9  2  0  0  0  0
  5 10  2  0  0  0  0
  6  7  1  0  0  0  0
  6 10  1  0  0  0  0
  7  8  1  0  0  0  0
  9 10  1  0  0  0  0
  1 11  1  0  0  0  0
  3 12  1  0  0  0  0
  6 13  1  0  0  0  0
  7 14  1  0  0  0  0
  7 15  1  0  0  0  0
M  END
> <pdb_id>
5PMH

> <uniprot_id>
Q6B0I6

> <usmiles>
O=C(O)C(=O)NCC(=O)O

$$$$
OGA_A_502
          07212403323D 1   1.00000     0.00000     0
            
 15 14  0  0  0  0            999 V2000
   16.7150    1.5841   25.7305 O   0  0  0  0  0  0  0  0  0  0  0  0
   15.2168    3.2358   25.6187 O   0  0  0  0  0  0  0  0  0  0  0  0
   17.8676    0.7323   31.7745 O   0  0  0  0  0  0  0  0  0  0  0  0
   18.4574   -0.1828   29.8407 O   0  0  0  0  0  0  0  0  0  0  0  0
   15.7420    1.9449   30.5075 O   0  0  0  0  0  0  0  0  0  0  0  0
   16.7009    1.5043   28.4134 N   0  0  0  0  0  0  0  0  0  0  0  0
   15.8910    2.5098   27.7781 C   0  0  0  0  0  0  0  0  0  0  0  0
   15.9583    2.4419   26.2661 C   0  0  0  0  0  0  0  0  0  0  0  0
   17.7466    0.5833   30.5155 C   0  0  0  0  0  0  0  0  0  0  0  0
   16.6887    1.3681   29.7643 C   0  0  0  0  0  0  0  0  0  0  0  0
   17.0329    0.8657   27.8527 H   0  0  0  0  0  0  0  0  0  0  0  0
   14.9643    2.3913   28.0586 H   0  0  0  0  0  0  0  0  0  0  0  0
   16.1980    3.3906   28.0680 H   0  0  0  0  0  0  0  0  0  0  0  0
   17.2766    0.9862   26.3025 H   0  0  0  0  0  0  0  0  0  0  0  0
   17.2659    1.3640   32.2633 H   0  0  0  0  0  0  0  0  0  0  0  0
  1  8  1  0  0  0  0
  2  8  2  0  0  0  0
  3  9  1  0  0  0  0
  4  9  2  0  0  0  0
  5 10  2  0  0  0  0
  6  7  1  0  0  0  0
  6 10  1  0  0  0  0
  6 11  1  0  0  0  0
  7  8  1  0  0  0  0
  7 12  1  0  0  0  0
  7 13  1  0  0  0  0
  9 10  1  0  0  0  0
  1 14  1  0  0  0  0
  3 15  1  0  0  0  0
M  END
> <pdb_id>
5L9R

> <uniprot_id>
Q9GZT9

> <usmiles>
O=C(O)C(=O)NCC(=O)O

$$$$
OGA_A_502
          07202411093D 1   1.00000     0.00000     0
            
 15 14  0  0  0  0            999 V2000
    5.1442  -13.7816  -21.4093 O   0  0  0  0  0  0  0  0  0  0  0  0
    7.0005  -13.9076  -20.2210 O   0  0  0  0  0  0  0  0  0  0  0  0
   11.0131  -11.8345  -21.4841 O   0  0  0  0  0  0  0  0  0  0  0  0
   11.3107  -11.1335  -23.5926 O   0  0  0  0  0  0  0  0  0  0  0  0
    8.9287  -12.0974  -24.2480 O   0  0  0  0  0  0  0  0  0  0  0  0
    8.4863  -12.7739  -22.1540 N   0  0  0  0  0  0  0  0  0  0  0  0
    7.1211  -13.1583  -22.4811 C   0  0  0  0  0  0  0  0  0  0  0  0
    6.4078  -13.6548  -21.2554 C   0  0  0  0  0  0  0  0  0  0  0  0
   10.6390  -11.6874  -22.6821 C   0  0  0  0  0  0  0  0  0  0  0  0
    9.3088  -12.2086  -23.0435 C   0  0  0  0  0  0  0  0  0  0  0  0
    8.7364  -12.9497  -21.2949 H   0  0  0  0  0  0  0  0  0  0  0  0
    7.1372  -13.8655  -23.1533 H   0  0  0  0  0  0  0  0  0  0  0  0
    6.6456  -12.3838  -22.8389 H   0  0  0  0  0  0  0  0  0  0  0  0
    4.7222  -13.5557  -22.2873 H   0  0  0  0  0  0  0  0  0  0  0  0
   10.4131  -12.2881  -20.8251 H   0  0  0  0  0  0  0  0  0  0  0  0
  1  8  1  0  0  0  0
  2  8  2  0  0  0  0
  3  9  1  0  0  0  0
  4  9  2  0  0  0  0
  5 10  2  0  0  0  0
  6  7  1  0  0  0  0
  6 10  1  0  0  0  0
  6 11  1  0  0  0  0
  7  8  1  0  0  0  0
  7 12  1  0  0  0  0
  7 13  1  0  0  0  0
  9 10  1  0  0  0  0
  1 14  1  0  0  0  0
  3 15  1  0  0  0  0
M  END
> <pdb_id>
6F4R

> <uniprot_id>
Q8N371

> <usmiles>
O=C(O)C(=O)NCC(=O)O

$$$$
OGA_A_601
          07202406443D 1   1.00000     0.00000     0
            
 15 14  0  0  0  0            999 V2000
   34.8148   -6.9435  -20.0053 O   0  0  0  0  0  0  0  0  0  0  0  0
   34.4014   -8.5883  -21.3956 O   0  0  0  0  0  0  0  0  0  0  0  0
   30.6932   -8.8094  -24.2790 O   0  0  0  0  0  0  0  0  0  0  0  0
   29.5317   -6.9399  -24.6798 O   0  0  0  0  0  0  0  0  0  0  0  0
   31.5873   -5.5413  -23.7126 O   0  0  0  0  0  0  0  0  0  0  0  0
   32.2880   -7.3340  -22.4328 N   0  0  0  0  0  0  0  0  0  0  0  0
   33.2021   -6.5316  -21.7001 C   0  0  0  0  0  0  0  0  0  0  0  0
   34.1940   -7.3983  -21.0016 C   0  0  0  0  0  0  0  0  0  0  0  0
   30.5298   -7.5566  -24.1914 C   0  0  0  0  0  0  0  0  0  0  0  0
   31.5087   -6.7315  -23.4525 C   0  0  0  0  0  0  0  0  0  0  0  0
   34.6490   -6.0064  -19.6980 H   0  0  0  0  0  0  0  0  0  0  0  0
   31.5006   -9.2379  -23.8735 H   0  0  0  0  0  0  0  0  0  0  0  0
   32.1954   -8.3094  -22.2327 H   0  0  0  0  0  0  0  0  0  0  0  0
   32.7007   -5.9911  -21.0246 H   0  0  0  0  0  0  0  0  0  0  0  0
   33.6818   -5.9186  -22.3279 H   0  0  0  0  0  0  0  0  0  0  0  0
  1  8  1  0  0  0  0
  2  8  2  0  0  0  0
  3  9  1  0  0  0  0
  4  9  2  0  0  0  0
  5 10  2  0  0  0  0
  6  7  1  0  0  0  0
  6 10  1  0  0  0  0
  7  8  1  0  0  0  0
  9 10  1  0  0  0  0
  1 11  1  0  0  0  0
  3 12  1  0  0  0  0
  6 13  1  0  0  0  0
  7 14  1  0  0  0  0
  7 15  1  0  0  0  0
M  END
> <pdb_id>
4IDZ

> <uniprot_id>
Q9C0B1

> <usmiles>
O=C(O)C(=O)NCC(=O)O

$$$$
OGA_A_601
          07192422393D 1   1.00000     0.00000     0
            
 15 14  0  0  0  0            999 V2000
  -25.6986   16.6828   -7.5870 O   0  0  0  0  0  0  0  0  0  0  0  0
  -24.4327   17.7441   -9.0355 O   0  0  0  0  0  0  0  0  0  0  0  0
  -24.1097   22.2964   -9.5779 O   0  0  0  0  0  0  0  0  0  0  0  0
  -25.6834   23.6318   -8.8569 O   0  0  0  0  0  0  0  0  0  0  0  0
  -26.9220   21.5351   -7.7743 O   0  0  0  0  0  0  0  0  0  0  0  0
  -25.2543   20.1713   -8.3459 N   0  0  0  0  0  0  0  0  0  0  0  0
  -25.7598   19.0576   -7.5673 C   0  0  0  0  0  0  0  0  0  0  0  0
  -25.2615   17.7350   -8.0999 C   0  0  0  0  0  0  0  0  0  0  0  0
  -25.1740   22.4946   -8.9532 C   0  0  0  0  0  0  0  0  0  0  0  0
  -25.8428   21.3640   -8.3162 C   0  0  0  0  0  0  0  0  0  0  0  0
  -26.3615   16.7287   -6.8397 H   0  0  0  0  0  0  0  0  0  0  0  0
  -23.7284   21.3738   -9.6360 H   0  0  0  0  0  0  0  0  0  0  0  0
  -24.4449   20.0399   -8.9183 H   0  0  0  0  0  0  0  0  0  0  0  0
  -26.7592   19.0652   -7.6010 H   0  0  0  0  0  0  0  0  0  0  0  0
  -25.4575   19.1605   -6.6197 H   0  0  0  0  0  0  0  0  0  0  0  0
  1  8  1  0  0  0  0
  2  8  2  0  0  0  0
  3  9  1  0  0  0  0
  4  9  2  0  0  0  0
  5 10  2  0  0  0  0
  6  7  1  0  0  0  0
  6 10  1  0  0  0  0
  7  8  1  0  0  0  0
  9 10  1  0  0  0  0
  1 11  1  0  0  0  0
  3 12  1  0  0  0  0
  6 13  1  0  0  0  0
  7 14  1  0  0  0  0
  7 15  1  0  0  0  0
M  END
> <pdb_id>
4Z1V

> <uniprot_id>
Q9NWT6

> <usmiles>
O=C(O)C(=O)NCC(=O)O

$$$$
OGA_A_802
          07202406313D 1   1.00000     0.00000     0
            
 15 14  0  0  0  0            999 V2000
   58.6076   19.0795   12.3616 O   0  0  0  0  0  0  0  0  0  0  0  0
   59.5388   17.4872   11.1972 O   0  0  0  0  0  0  0  0  0  0  0  0
   56.2135   18.3641   16.0961 O   0  0  0  0  0  0  0  0  0  0  0  0
   57.1568   17.7642   17.9809 O   0  0  0  0  0  0  0  0  0  0  0  0
   59.0519   16.4320   16.3489 O   0  0  0  0  0  0  0  0  0  0  0  0
   58.2690   17.5809   14.4935 N   0  0  0  0  0  0  0  0  0  0  0  0
   59.2503   17.0871   13.5501 C   0  0  0  0  0  0  0  0  0  0  0  0
   59.1256   17.9350   12.2944 C   0  0  0  0  0  0  0  0  0  0  0  0
   57.1458   17.8017   16.7201 C   0  0  0  0  0  0  0  0  0  0  0  0
   58.2555   17.1834   15.8869 C   0  0  0  0  0  0  0  0  0  0  0  0
   58.2807   19.4296   13.2394 H   0  0  0  0  0  0  0  0  0  0  0  0
   56.2216   18.3840   15.0964 H   0  0  0  0  0  0  0  0  0  0  0  0
   57.5727   18.2219   14.1704 H   0  0  0  0  0  0  0  0  0  0  0  0
   59.0682   16.1274   13.3359 H   0  0  0  0  0  0  0  0  0  0  0  0
   60.1697   17.1745   13.9336 H   0  0  0  0  0  0  0  0  0  0  0  0
  1  8  1  0  0  0  0
  2  8  2  0  0  0  0
  3  9  1  0  0  0  0
  4  9  2  0  0  0  0
  5 10  2  0  0  0  0
  6  7  1  0  0  0  0
  6 10  1  0  0  0  0
  7  8  1  0  0  0  0
  9 10  1  0  0  0  0
  1 11  1  0  0  0  0
  3 12  1  0  0  0  0
  6 13  1  0  0  0  0
  7 14  1  0  0  0  0
  7 15  1  0  0  0  0
M  END
> <pdb_id>
5JZU

> <uniprot_id>
Q12797

> <usmiles>
O=C(O)C(=O)NCC(=O)O

$$$$
OGA_B_403
          07202406423D 1   1.00000     0.00000     0
            
 15 14  0  0  0  0            999 V2000
   32.1465    2.9531  -20.7569 O   0  0  0  0  0  0  0  0  0  0  0  0
   30.1075    3.1528  -21.8012 O   0  0  0  0  0  0  0  0  0  0  0  0
   26.6981    1.0064  -18.7952 O   0  0  0  0  0  0  0  0  0  0  0  0
   27.2078   -0.6123  -17.3626 O   0  0  0  0  0  0  0  0  0  0  0  0
   29.8852   -0.3285  -18.1070 O   0  0  0  0  0  0  0  0  0  0  0  0
   29.2760    1.2719  -19.4872 N   0  0  0  0  0  0  0  0  0  0  0  0
   30.6194    1.5236  -19.9236 C   0  0  0  0  0  0  0  0  0  0  0  0
   30.9316    2.6264  -20.9217 C   0  0  0  0  0  0  0  0  0  0  0  0
   27.5623    0.2650  -18.1856 C   0  0  0  0  0  0  0  0  0  0  0  0
   28.9938    0.3746  -18.5633 C   0  0  0  0  0  0  0  0  0  0  0  0
   32.6974    2.4946  -20.0595 H   0  0  0  0  0  0  0  0  0  0  0  0
   27.0054    1.6994  -19.4473 H   0  0  0  0  0  0  0  0  0  0  0  0
   28.5286    1.7945  -19.8975 H   0  0  0  0  0  0  0  0  0  0  0  0
   30.9489    0.6718  -20.3308 H   0  0  0  0  0  0  0  0  0  0  0  0
   31.1506    1.7274  -19.1013 H   0  0  0  0  0  0  0  0  0  0  0  0
  1  8  1  0  0  0  0
  2  8  2  0  0  0  0
  3  9  1  0  0  0  0
  4  9  2  0  0  0  0
  5 10  2  0  0  0  0
  6  7  1  0  0  0  0
  6 10  1  0  0  0  0
  7  8  1  0  0  0  0
  9 10  1  0  0  0  0
  1 11  1  0  0  0  0
  3 12  1  0  0  0  0
  6 13  1  0  0  0  0
  7 14  1  0  0  0  0
  7 15  1  0  0  0  0
M  END
> <pdb_id>
4XDO

> <uniprot_id>
Q9H3R0

> <usmiles>
O=C(O)C(=O)NCC(=O)O

$$$$
OGA_B_500
          07202411573D 1   1.00000     0.00000     0
            
 15 14  0  0  0  0            999 V2000
   -3.3083   98.9114   15.8958 O   0  0  0  0  0  0  0  0  0  0  0  0
   -1.6711  100.4095   15.6360 O   0  0  0  0  0  0  0  0  0  0  0  0
   -2.3944  104.8250   17.5657 O   0  0  0  0  0  0  0  0  0  0  0  0
   -4.4711  105.6193   17.6308 O   0  0  0  0  0  0  0  0  0  0  0  0
   -5.3936  103.3349   16.5936 O   0  0  0  0  0  0  0  0  0  0  0  0
   -3.3665  102.4373   16.4732 N   0  0  0  0  0  0  0  0  0  0  0  0
   -3.9047  101.1937   15.9205 C   0  0  0  0  0  0  0  0  0  0  0  0
   -2.8662  100.0803   15.8166 C   0  0  0  0  0  0  0  0  0  0  0  0
   -3.6290  104.7316   17.3582 C   0  0  0  0  0  0  0  0  0  0  0  0
   -4.1832  103.4286   16.7735 C   0  0  0  0  0  0  0  0  0  0  0  0
   -4.2851   98.7552   16.0421 H   0  0  0  0  0  0  0  0  0  0  0  0
   -1.7874  104.0696   17.3190 H   0  0  0  0  0  0  0  0  0  0  0  0
   -2.3826  102.5353   16.6228 H   0  0  0  0  0  0  0  0  0  0  0  0
   -4.2616  101.3813   15.0053 H   0  0  0  0  0  0  0  0  0  0  0  0
   -4.6487  100.8798   16.5104 H   0  0  0  0  0  0  0  0  0  0  0  0
  1  8  1  0  0  0  0
  2  8  2  0  0  0  0
  3  9  1  0  0  0  0
  4  9  2  0  0  0  0
  5 10  2  0  0  0  0
  6  7  1  0  0  0  0
  6 10  1  0  0  0  0
  7  8  1  0  0  0  0
  9 10  1  0  0  0  0
  1 11  1  0  0  0  0
  3 12  1  0  0  0  0
  6 13  1  0  0  0  0
  7 14  1  0  0  0  0
  7 15  1  0  0  0  0
M  END
> <pdb_id>
2OX0

> <uniprot_id>
O75164

> <usmiles>
O=C(O)C(=O)NCC(=O)O

$$$$
OGA_B_502
          07202401113D 1   1.00000     0.00000     0
            
 15 14  0  0  0  0            999 V2000
    1.2083  -13.2614  -89.9653 O   0  0  0  0  0  0  0  0  0  0  0  0
   -0.0398  -14.9852  -90.7278 O   0  0  0  0  0  0  0  0  0  0  0  0
    2.4004  -16.6647  -96.0919 O   0  0  0  0  0  0  0  0  0  0  0  0
    0.7689  -17.3472  -94.6737 O   0  0  0  0  0  0  0  0  0  0  0  0
    2.9083  -14.5350  -94.6186 O   0  0  0  0  0  0  0  0  0  0  0  0
    1.4646  -15.2660  -92.9065 N   0  0  0  0  0  0  0  0  0  0  0  0
    1.6887  -14.0996  -92.0938 C   0  0  0  0  0  0  0  0  0  0  0  0
    0.8735  -14.1191  -90.8233 C   0  0  0  0  0  0  0  0  0  0  0  0
    1.7084  -16.5738  -95.0287 C   0  0  0  0  0  0  0  0  0  0  0  0
    2.0258  -15.4128  -94.1270 C   0  0  0  0  0  0  0  0  0  0  0  0
    0.9176  -15.8932  -92.5344 H   0  0  0  0  0  0  0  0  0  0  0  0
    1.4457  -13.3070  -92.6088 H   0  0  0  0  0  0  0  0  0  0  0  0
    2.6342  -14.0570  -91.8586 H   0  0  0  0  0  0  0  0  0  0  0  0
    1.9542  -12.6244  -90.1597 H   0  0  0  0  0  0  0  0  0  0  0  0
    3.1224  -15.9982  -96.2770 H   0  0  0  0  0  0  0  0  0  0  0  0
  1  8  1  0  0  0  0
  2  8  2  0  0  0  0
  3  9  1  0  0  0  0
  4  9  2  0  0  0  0
  5 10  2  0  0  0  0
  6  7  1  0  0  0  0
  6 10  1  0  0  0  0
  6 11  1  0  0  0  0
  7  8  1  0  0  0  0
  7 12  1  0  0  0  0
  7 13  1  0  0  0  0
  9 10  1  0  0  0  0
  1 14  1  0  0  0  0
  3 15  1  0  0  0  0
M  END
> <pdb_id>
7YXI

> <uniprot_id>
Q9VU77

> <usmiles>
O=C(O)C(=O)NCC(=O)O

$$$$
OGA_C_302
          07202417403D 1   1.00000     0.00000     0
            
 15 14  0  0  0  0            999 V2000
   -0.7767    3.6590  -19.9523 O   0  0  0  0  0  0  0  0  0  0  0  0
   -1.7313    2.0796  -21.0977 O   0  0  0  0  0  0  0  0  0  0  0  0
    0.7331    1.5066  -15.3851 O   0  0  0  0  0  0  0  0  0  0  0  0
   -0.0134   -0.5343  -15.2030 O   0  0  0  0  0  0  0  0  0  0  0  0
   -0.0335   -0.7392  -17.7680 O   0  0  0  0  0  0  0  0  0  0  0  0
   -0.1586    1.5159  -18.0391 N   0  0  0  0  0  0  0  0  0  0  0  0
   -0.2418    1.3650  -19.4612 C   0  0  0  0  0  0  0  0  0  0  0  0
   -0.9681    2.4547  -20.2118 C   0  0  0  0  0  0  0  0  0  0  0  0
    0.2372    0.4790  -15.9008 C   0  0  0  0  0  0  0  0  0  0  0  0
   -0.0251    0.4067  -17.2905 C   0  0  0  0  0  0  0  0  0  0  0  0
   -0.1456    3.9187  -19.2214 H   0  0  0  0  0  0  0  0  0  0  0  0
    0.9278    2.3067  -15.9525 H   0  0  0  0  0  0  0  0  0  0  0  0
   -0.1987    2.4206  -17.6150 H   0  0  0  0  0  0  0  0  0  0  0  0
   -0.7112    0.5021  -19.6484 H   0  0  0  0  0  0  0  0  0  0  0  0
    0.6916    1.3208  -19.8173 H   0  0  0  0  0  0  0  0  0  0  0  0
  1  8  1  0  0  0  0
  2  8  2  0  0  0  0
  3  9  1  0  0  0  0
  4  9  2  0  0  0  0
  5 10  2  0  0  0  0
  6  7  1  0  0  0  0
  6 10  1  0  0  0  0
  7  8  1  0  0  0  0
  9 10  1  0  0  0  0
  1 11  1  0  0  0  0
  3 12  1  0  0  0  0
  6 13  1  0  0  0  0
  7 14  1  0  0  0  0
  7 15  1  0  0  0  0
M  END
> <pdb_id>
4QKF

> <uniprot_id>
Q9BT30

> <usmiles>
O=C(O)C(=O)NCC(=O)O

$$$$
OGA_C_902
          07192423203D 1   1.00000     0.00000     0
            
 15 14  0  0  0  0            999 V2000
  -67.5213  -67.4977  -64.0901 O   0  0  0  0  0  0  0  0  0  0  0  0
  -65.9903  -66.3802  -65.2602 O   0  0  0  0  0  0  0  0  0  0  0  0
  -62.8873  -63.4548  -63.9178 O   0  0  0  0  0  0  0  0  0  0  0  0
  -62.6092  -62.8447  -61.8093 O   0  0  0  0  0  0  0  0  0  0  0  0
  -64.6342  -64.4817  -61.0956 O   0  0  0  0  0  0  0  0  0  0  0  0
  -64.9530  -65.1304  -63.2263 N   0  0  0  0  0  0  0  0  0  0  0  0
  -66.0625  -66.0408  -62.9107 C   0  0  0  0  0  0  0  0  0  0  0  0
  -66.5679  -66.6958  -64.1979 C   0  0  0  0  0  0  0  0  0  0  0  0
  -63.1844  -63.5015  -62.7039 C   0  0  0  0  0  0  0  0  0  0  0  0
  -64.3299  -64.4252  -62.2859 C   0  0  0  0  0  0  0  0  0  0  0  0
  -67.9177  -67.6852  -63.1914 H   0  0  0  0  0  0  0  0  0  0  0  0
  -63.3930  -64.0102  -64.5780 H   0  0  0  0  0  0  0  0  0  0  0  0
  -64.6572  -65.0382  -64.1771 H   0  0  0  0  0  0  0  0  0  0  0  0
  -66.8060  -65.5249  -62.4852 H   0  0  0  0  0  0  0  0  0  0  0  0
  -65.7439  -66.7482  -62.2798 H   0  0  0  0  0  0  0  0  0  0  0  0
  1  8  1  0  0  0  0
  2  8  2  0  0  0  0
  3  9  1  0  0  0  0
  4  9  2  0  0  0  0
  5 10  2  0  0  0  0
  6  7  1  0  0  0  0
  6 10  1  0  0  0  0
  7  8  1  0  0  0  0
  9 10  1  0  0  0  0
  1 11  1  0  0  0  0
  3 12  1  0  0  0  0
  6 13  1  0  0  0  0
  7 14  1  0  0  0  0
  7 15  1  0  0  0  0
M  END
> <pdb_id>
4CCK

> <uniprot_id>
Q9H6W3

> <usmiles>
O=C(O)C(=O)NCC(=O)O

$$$$
OGM_A_401
          07202411533D 1   1.00000     0.00000     0
            
 33 33  0  0  0  0            999 V2000
   25.6371   -1.2823   18.8538 O   0  0  0  0  0  0  0  0  0  0  0  0
   21.2759   -3.8501   25.1496 O   0  0  0  0  0  0  0  0  0  0  0  0
   22.3838   -5.5714   26.1276 O   0  0  0  0  0  0  0  0  0  0  0  0
   20.3862   -5.9133   24.7116 N   0  0  0  0  0  0  0  0  0  0  0  0
   22.8701   -4.2385   19.7021 N   0  0  0  0  0  0  0  0  0  0  0  0
   22.5807   -2.2979   20.5975 N   0  0  0  0  0  0  0  0  0  0  0  0
   22.9606   -4.6692   27.0303 C   0  0  0  0  0  0  0  0  0  0  0  0
   24.5007   -0.9932   19.6443 C   0  0  0  0  0  0  0  0  0  0  0  0
   19.4118   -5.4364   23.7686 C   0  0  0  0  0  0  0  0  0  0  0  0
   23.8314   -3.4627   19.2751 C   0  0  0  0  0  0  0  0  0  0  0  0
   19.6990   -6.0309   22.4010 C   0  0  0  0  0  0  0  0  0  0  0  0
   20.9799   -5.4873   21.7652 C   0  0  0  0  0  0  0  0  0  0  0  0
   20.8483   -4.0435   21.2757 C   0  0  0  0  0  0  0  0  0  0  0  0
   21.3505   -5.0181   25.3261 C   0  0  0  0  0  0  0  0  0  0  0  0
   22.0780   -3.5456   20.5318 C   0  0  0  0  0  0  0  0  0  0  0  0
   23.6556   -2.2353   19.8391 C   0  0  0  0  0  0  0  0  0  0  0  0
   26.1816   -0.4517   18.7365 H   0  0  0  0  0  0  0  0  0  0  0  0
   20.4004   -6.8844   24.9502 H   0  0  0  0  0  0  0  0  0  0  0  0
   22.2008   -1.5439   21.1334 H   0  0  0  0  0  0  0  0  0  0  0  0
   23.6752   -5.1327   27.5542 H   0  0  0  0  0  0  0  0  0  0  0  0
   23.3601   -3.9032   26.5267 H   0  0  0  0  0  0  0  0  0  0  0  0
   22.2581   -4.3274   27.6547 H   0  0  0  0  0  0  0  0  0  0  0  0
   23.9532   -0.2916   19.1882 H   0  0  0  0  0  0  0  0  0  0  0  0
   24.7988   -0.6553   20.5370 H   0  0  0  0  0  0  0  0  0  0  0  0
   19.4596   -4.4390   23.7153 H   0  0  0  0  0  0  0  0  0  0  0  0
   18.4975   -5.7109   24.0662 H   0  0  0  0  0  0  0  0  0  0  0  0
   24.5645   -3.7235   18.6470 H   0  0  0  0  0  0  0  0  0  0  0  0
   18.9305   -5.8226   21.7961 H   0  0  0  0  0  0  0  0  0  0  0  0
   19.7879   -7.0223   22.4976 H   0  0  0  0  0  0  0  0  0  0  0  0
   21.2173   -6.0663   20.9852 H   0  0  0  0  0  0  0  0  0  0  0  0
   21.7126   -5.5264   22.4446 H   0  0  0  0  0  0  0  0  0  0  0  0
   20.6956   -3.4525   22.0678 H   0  0  0  0  0  0  0  0  0  0  0  0
   20.0613   -3.9872   20.6612 H   0  0  0  0  0  0  0  0  0  0  0  0
  1  8  1  0  0  0  0
  2 14  2  0  0  0  0
  3  7  1  0  0  0  0
  3 14  1  0  0  0  0
  4  9  1  0  0  0  0
  4 14  1  0  0  0  0
  5 10  1  0  0  0  0
  5 15  2  0  0  0  0
  6 15  1  0  0  0  0
  6 16  1  0  0  0  0
  8 16  1  0  0  0  0
  9 11  1  0  0  0  0
 10 16  2  0  0  0  0
 11 12  1  0  0  0  0
 12 13  1  0  0  0  0
 13 15  1  0  0  0  0
  1 17  1  0  0  0  0
  4 18  1  0  0  0  0
  6 19  1  0  0  0  0
  7 20  1  0  0  0  0
  7 21  1  0  0  0  0
  7 22  1  0  0  0  0
  8 23  1  0  0  0  0
  8 24  1  0  0  0  0
  9 25  1  0  0  0  0
  9 26  1  0  0  0  0
 10 27  1  0  0  0  0
 11 28  1  0  0  0  0
 11 29  1  0  0  0  0
 12 30  1  0  0  0  0
 12 31  1  0  0  0  0
 13 32  1  0  0  0  0
 13 33  1  0  0  0  0
M  END
> <pdb_id>
6PGA

> <uniprot_id>
P61964

> <usmiles>
O=C(OC)NCCCCC1=NC=C(N1)CO

$$$$
OGN_A_2000
          07202402303D 1   1.00000     0.00000     0
            
 46 47  0  0  0  0            999 V2000
   35.2640   18.1420  -11.9300 O   0  0  0  0  0  0  0  0  0  0  0  0
   38.8860   21.5650  -16.4170 O   0  0  0  0  0  0  0  0  0  0  0  0
   33.3700   19.7720  -15.9560 O   0  0  0  0  0  0  0  0  0  0  0  0
   36.3120   15.8520  -15.4180 O   0  0  0  0  0  0  0  0  0  0  0  0
   34.3870   15.7610  -17.5010 O   0  0  0  0  0  0  0  0  0  0  0  0
   37.8340   19.9010  -15.3130 O   0  0  0  0  0  0  0  0  0  0  0  0
   35.7630   18.6190  -14.6960 O   0  0  0  0  0  0  0  0  0  0  0  0
   36.9110   19.8020  -16.4330 N   0  0  0  0  0  0  0  0  0  0  0  0
   39.8310   20.5740  -14.5920 N   0  0  0  0  0  0  0  0  0  0  0  0
   34.2910   18.9070  -17.8230 N   0  0  0  0  0  0  0  0  0  0  0  0
   32.5050   20.5000  -18.0730 C   0  0  0  0  0  0  0  0  0  0  0  0
   35.4560   17.0660  -12.8490 C   0  0  0  0  0  0  0  0  0  0  0  0
   43.3710   22.5820  -14.0090 C   0  0  0  0  0  0  0  0  0  0  0  0
   43.1990   21.3020  -13.4840 C   0  0  0  0  0  0  0  0  0  0  0  0
   42.3590   23.2020  -14.7380 C   0  0  0  0  0  0  0  0  0  0  0  0
   41.9950   20.6350  -13.7020 C   0  0  0  0  0  0  0  0  0  0  0  0
   41.1530   22.5320  -14.9480 C   0  0  0  0  0  0  0  0  0  0  0  0
   38.8700   20.7410  -15.5030 C   0  0  0  0  0  0  0  0  0  0  0  0
   33.4330   19.6920  -17.1760 C   0  0  0  0  0  0  0  0  0  0  0  0
   36.1910   18.5890  -16.0950 C   0  0  2  0  0  0  0  0  0  0  0  0
   34.9710   16.3290  -15.2180 C   0  0  2  0  0  0  0  0  0  0  0  0
   34.4030   16.8240  -16.5560 C   0  0  1  0  0  0  0  0  0  0  0  0
   34.9530   17.4980  -14.2210 C   0  0  2  0  0  0  0  0  0  0  0  0
   40.9790   21.2430  -14.4410 C   0  0  0  0  0  0  0  0  0  0  0  0
   35.2290   17.9830  -17.1500 C   0  0  1  0  0  0  0  0  0  0  0  0
   35.5909   17.8698  -11.0250 H   0  0  0  0  0  0  0  0  0  0  0  0
   36.6842   15.5290  -14.5478 H   0  0  0  0  0  0  0  0  0  0  0  0
   34.0160   16.0919  -18.3687 H   0  0  0  0  0  0  0  0  0  0  0  0
   37.3972   19.7100  -17.3020 H   0  0  0  0  0  0  0  0  0  0  0  0
   39.6695   19.8444  -13.9275 H   0  0  0  0  0  0  0  0  0  0  0  0
   34.3020   18.9442  -18.8222 H   0  0  0  0  0  0  0  0  0  0  0  0
   32.7094   20.2993  -19.0311 H   0  0  0  0  0  0  0  0  0  0  0  0
   31.5554   20.2557  -17.8765 H   0  0  0  0  0  0  0  0  0  0  0  0
   32.6407   21.4756  -17.9005 H   0  0  0  0  0  0  0  0  0  0  0  0
   34.9439   16.2645  -12.5401 H   0  0  0  0  0  0  0  0  0  0  0  0
   36.4285   16.8396  -12.9033 H   0  0  0  0  0  0  0  0  0  0  0  0
   44.2350   23.0628  -13.8598 H   0  0  0  0  0  0  0  0  0  0  0  0
   43.9302   20.8680  -12.9577 H   0  0  0  0  0  0  0  0  0  0  0  0
   42.4957   24.1208  -15.1083 H   0  0  0  0  0  0  0  0  0  0  0  0
   41.8585   19.7178  -13.3277 H   0  0  0  0  0  0  0  0  0  0  0  0
   40.4161   22.9736  -15.4598 H   0  0  0  0  0  0  0  0  0  0  0  0
   36.9262   17.9115  -16.0720 H   0  0  0  0  0  0  0  0  0  0  0  0
   34.4013   15.5849  -14.8692 H   0  0  0  0  0  0  0  0  0  0  0  0
   33.4652   17.1390  -16.4104 H   0  0  0  0  0  0  0  0  0  0  0  0
   34.0088   17.8126  -14.1239 H   0  0  0  0  0  0  0  0  0  0  0  0
   35.8033   17.5869  -17.8664 H   0  0  0  0  0  0  0  0  0  0  0  0
  1 12  1  0  0  0  0
  2 18  2  0  0  0  0
  3 19  2  0  0  0  0
  4 21  1  0  0  0  0
  5 22  1  0  0  0  0
  6  8  1  0  0  0  0
  6 18  1  0  0  0  0
  7 20  1  0  0  0  0
  7 23  1  0  0  0  0
  8 20  1  0  0  0  0
  9 18  1  0  0  0  0
  9 24  1  0  0  0  0
 10 19  1  0  0  0  0
 10 25  1  0  0  0  0
 11 19  1  0  0  0  0
 12 23  1  0  0  0  0
 13 14  2  0  0  0  0
 13 15  1  0  0  0  0
 14 16  1  0  0  0  0
 15 17  2  0  0  0  0
 16 24  2  0  0  0  0
 17 24  1  0  0  0  0
 20 25  1  0  0  0  0
 21 22  1  0  0  0  0
 21 23  1  0  0  0  0
 22 25  1  0  0  0  0
  1 26  1  0  0  0  0
  4 27  1  0  0  0  0
  5 28  1  0  0  0  0
  8 29  1  0  0  0  0
  9 30  1  0  0  0  0
 10 31  1  0  0  0  0
 11 32  1  0  0  0  0
 11 33  1  0  0  0  0
 11 34  1  0  0  0  0
 12 35  1  0  0  0  0
 12 36  1  0  0  0  0
 13 37  1  0  0  0  0
 14 38  1  0  0  0  0
 15 39  1  0  0  0  0
 16 40  1  0  0  0  0
 17 41  1  0  0  0  0
 20 42  1  0  0  0  0
 21 43  1  0  0  0  0
 22 44  1  0  0  0  0
 23 45  1  0  0  0  0
 25 46  1  0  0  0  0
M  END
> <pdb_id>
3SUU

> <uniprot_id>
D0VX21

> <usmiles>
O=C(ON[C@H]1O[C@@H]([C@H](O)[C@H](O)[C@H]1NC(=O)C)CO)Nc2ccccc2

$$$$
OGY_D_401
          07202411533D 1   1.00000     0.00000     0
            
 32 33  0  0  0  0            999 V2000
   25.6260   -1.2827   19.0226 O   0  0  0  0  0  0  0  0  0  0  0  0
   22.8026   -4.3350   19.6840 N   0  0  0  0  0  0  0  0  0  0  0  0
   22.5435   -2.4631   20.7040 N   0  0  0  0  0  0  0  0  0  0  0  0
   24.5014   -1.1256   19.8446 C   0  0  0  0  0  0  0  0  0  0  0  0
   23.7919   -3.5736   19.2827 C   0  0  0  0  0  0  0  0  0  0  0  0
   18.3778   -9.5225   22.2606 C   0  0  0  0  0  0  0  0  0  0  0  0
   19.7446   -9.2478   22.4102 C   0  0  0  0  0  0  0  0  0  0  0  0
   17.4513   -8.4890   22.3785 C   0  0  0  0  0  0  0  0  0  0  0  0
   20.9602   -4.9057   22.4935 C   0  0  0  0  0  0  0  0  0  0  0  0
   20.7358   -4.2481   21.1582 C   0  0  0  0  0  0  0  0  0  0  0  0
   20.1688   -7.9446   22.6885 C   0  0  0  0  0  0  0  0  0  0  0  0
   17.8842   -7.1757   22.6512 C   0  0  0  0  0  0  0  0  0  0  0  0
   19.6453   -5.4464   23.1137 C   0  0  0  0  0  0  0  0  0  0  0  0
   22.0138   -3.6702   20.5327 C   0  0  0  0  0  0  0  0  0  0  0  0
   23.6350   -2.3782   19.9388 C   0  0  0  0  0  0  0  0  0  0  0  0
   19.2396   -6.8902   22.8065 C   0  0  0  0  0  0  0  0  0  0  0  0
   26.1476   -0.4297   19.0047 H   0  0  0  0  0  0  0  0  0  0  0  0
   22.1872   -1.7445   21.3012 H   0  0  0  0  0  0  0  0  0  0  0  0
   23.9429   -0.3816   19.4777 H   0  0  0  0  0  0  0  0  0  0  0  0
   24.8127   -0.8864   20.7643 H   0  0  0  0  0  0  0  0  0  0  0  0
   24.5124   -3.8143   18.6324 H   0  0  0  0  0  0  0  0  0  0  0  0
   18.0700  -10.4547   22.0705 H   0  0  0  0  0  0  0  0  0  0  0  0
   20.4157   -9.9834   22.3179 H   0  0  0  0  0  0  0  0  0  0  0  0
   16.4757   -8.6795   22.2693 H   0  0  0  0  0  0  0  0  0  0  0  0
   21.3584   -4.2348   23.1191 H   0  0  0  0  0  0  0  0  0  0  0  0
   21.5961   -5.6680   22.3734 H   0  0  0  0  0  0  0  0  0  0  0  0
   20.0790   -3.5038   21.2791 H   0  0  0  0  0  0  0  0  0  0  0  0
   20.3569   -4.9284   20.5308 H   0  0  0  0  0  0  0  0  0  0  0  0
   21.1442   -7.7578   22.8055 H   0  0  0  0  0  0  0  0  0  0  0  0
   17.2114   -6.4406   22.7342 H   0  0  0  0  0  0  0  0  0  0  0  0
   18.9032   -4.8561   22.7961 H   0  0  0  0  0  0  0  0  0  0  0  0
   19.7319   -5.3679   24.1068 H   0  0  0  0  0  0  0  0  0  0  0  0
  1  4  1  0  0  0  0
  2  5  1  0  0  0  0
  2 14  2  0  0  0  0
  3 14  1  0  0  0  0
  3 15  1  0  0  0  0
  4 15  1  0  0  0  0
  5 15  2  0  0  0  0
  6  7  2  0  0  0  0
  6  8  1  0  0  0  0
  7 11  1  0  0  0  0
  8 12  2  0  0  0  0
  9 10  1  0  0  0  0
  9 13  1  0  0  0  0
 10 14  1  0  0  0  0
 11 16  2  0  0  0  0
 12 16  1  0  0  0  0
 13 16  1  0  0  0  0
  1 17  1  0  0  0  0
  3 18  1  0  0  0  0
  4 19  1  0  0  0  0
  4 20  1  0  0  0  0
  5 21  1  0  0  0  0
  6 22  1  0  0  0  0
  7 23  1  0  0  0  0
  8 24  1  0  0  0  0
  9 25  1  0  0  0  0
  9 26  1  0  0  0  0
 10 27  1  0  0  0  0
 10 28  1  0  0  0  0
 11 29  1  0  0  0  0
 12 30  1  0  0  0  0
 13 31  1  0  0  0  0
 13 32  1  0  0  0  0
M  END
> <pdb_id>
6PG8

> <uniprot_id>
P61964

> <usmiles>
OCC=1NC(=NC1)CCCc2ccccc2

$$$$
OH1_B_401
          07202411533D 1   1.00000     0.00000     0
            
 39 40  0  0  0  0            999 V2000
   25.6700   -1.2993   19.0234 O   0  0  0  0  0  0  0  0  0  0  0  0
   21.2594   -3.8818   25.1340 O   0  0  0  0  0  0  0  0  0  0  0  0
   20.2650   -5.9486   24.8351 N   0  0  0  0  0  0  0  0  0  0  0  0
   22.8149   -4.3702   19.7559 N   0  0  0  0  0  0  0  0  0  0  0  0
   22.5965   -2.4710   20.7213 N   0  0  0  0  0  0  0  0  0  0  0  0
   24.4731   -1.0956   19.7479 C   0  0  0  0  0  0  0  0  0  0  0  0
   19.2680   -5.5193   23.8773 C   0  0  0  0  0  0  0  0  0  0  0  0
   23.7892   -3.5814   19.2950 C   0  0  0  0  0  0  0  0  0  0  0  0
   19.5616   -6.1325   22.5268 C   0  0  0  0  0  0  0  0  0  0  0  0
   24.0502   -6.6396   28.2427 C   0  0  0  0  0  0  0  0  0  0  0  0
   20.8989   -5.6481   21.9016 C   0  0  0  0  0  0  0  0  0  0  0  0
   23.3618   -7.5031   27.4043 C   0  0  0  0  0  0  0  0  0  0  0  0
   23.8314   -5.2639   28.1431 C   0  0  0  0  0  0  0  0  0  0  0  0
   20.8342   -4.1864   21.4298 C   0  0  0  0  0  0  0  0  0  0  0  0
   22.4559   -7.0002   26.4775 C   0  0  0  0  0  0  0  0  0  0  0  0
   22.9126   -4.7422   27.2216 C   0  0  0  0  0  0  0  0  0  0  0  0
   21.2355   -5.0433   25.3927 C   0  0  0  0  0  0  0  0  0  0  0  0
   22.0748   -3.6955   20.6454 C   0  0  0  0  0  0  0  0  0  0  0  0
   23.6434   -2.3561   19.9108 C   0  0  0  0  0  0  0  0  0  0  0  0
   22.2340   -5.6050   26.3903 C   0  0  0  0  0  0  0  0  0  0  0  0
   26.1677   -0.4349   18.9520 H   0  0  0  0  0  0  0  0  0  0  0  0
   20.2801   -6.9072   25.1193 H   0  0  0  0  0  0  0  0  0  0  0  0
   22.2479   -1.7396   21.3074 H   0  0  0  0  0  0  0  0  0  0  0  0
   23.9228   -0.4143   19.2653 H   0  0  0  0  0  0  0  0  0  0  0  0
   24.7078   -0.7513   20.6570 H   0  0  0  0  0  0  0  0  0  0  0  0
   19.2878   -4.5224   23.8011 H   0  0  0  0  0  0  0  0  0  0  0  0
   18.3630   -5.8121   24.1857 H   0  0  0  0  0  0  0  0  0  0  0  0
   24.4919   -3.8320   18.6290 H   0  0  0  0  0  0  0  0  0  0  0  0
   18.8167   -5.8953   21.9031 H   0  0  0  0  0  0  0  0  0  0  0  0
   19.6037   -7.1260   22.6330 H   0  0  0  0  0  0  0  0  0  0  0  0
   24.6987   -6.9993   28.9136 H   0  0  0  0  0  0  0  0  0  0  0  0
   21.1148   -6.2289   21.1167 H   0  0  0  0  0  0  0  0  0  0  0  0
   21.6221   -5.7318   22.5871 H   0  0  0  0  0  0  0  0  0  0  0  0
   23.5172   -8.4890   27.4665 H   0  0  0  0  0  0  0  0  0  0  0  0
   24.3383   -4.6409   28.7388 H   0  0  0  0  0  0  0  0  0  0  0  0
   20.7272   -3.6049   22.2362 H   0  0  0  0  0  0  0  0  0  0  0  0
   20.0340   -4.0867   20.8384 H   0  0  0  0  0  0  0  0  0  0  0  0
   21.9612   -7.6241   25.8725 H   0  0  0  0  0  0  0  0  0  0  0  0
   22.7522   -3.7565   27.1688 H   0  0  0  0  0  0  0  0  0  0  0  0
  1  6  1  0  0  0  0
  2 17  2  0  0  0  0
  3  7  1  0  0  0  0
  3 17  1  0  0  0  0
  4  8  1  0  0  0  0
  4 18  2  0  0  0  0
  5 18  1  0  0  0  0
  5 19  1  0  0  0  0
  6 19  1  0  0  0  0
  7  9  1  0  0  0  0
  8 19  2  0  0  0  0
  9 11  1  0  0  0  0
 10 12  2  0  0  0  0
 10 13  1  0  0  0  0
 11 14  1  0  0  0  0
 12 15  1  0  0  0  0
 13 16  2  0  0  0  0
 14 18  1  0  0  0  0
 15 20  2  0  0  0  0
 16 20  1  0  0  0  0
 17 20  1  0  0  0  0
  1 21  1  0  0  0  0
  3 22  1  0  0  0  0
  5 23  1  0  0  0  0
  6 24  1  0  0  0  0
  6 25  1  0  0  0  0
  7 26  1  0  0  0  0
  7 27  1  0  0  0  0
  8 28  1  0  0  0  0
  9 29  1  0  0  0  0
  9 30  1  0  0  0  0
 10 31  1  0  0  0  0
 11 32  1  0  0  0  0
 11 33  1  0  0  0  0
 12 34  1  0  0  0  0
 13 35  1  0  0  0  0
 14 36  1  0  0  0  0
 14 37  1  0  0  0  0
 15 38  1  0  0  0  0
 16 39  1  0  0  0  0
M  END
> <pdb_id>
6PG9

> <uniprot_id>
P61964

> <usmiles>
O=C(NCCCCC1=NC=C(N1)CO)c2ccccc2

$$$$
OH7_A_402
          07202411533D 1   1.00000     0.00000     0
            
 32 32  0  0  0  0            999 V2000
   25.6542   -1.4103   18.8813 O   0  0  0  0  0  0  0  0  0  0  0  0
   21.4648   -3.6387   25.0616 O   0  0  0  0  0  0  0  0  0  0  0  0
   20.5778   -5.7516   24.9738 N   0  0  0  0  0  0  0  0  0  0  0  0
   22.8446   -4.4763   19.6833 N   0  0  0  0  0  0  0  0  0  0  0  0
   22.6559   -2.5833   20.7388 N   0  0  0  0  0  0  0  0  0  0  0  0
   22.6528   -5.2200   26.3571 C   0  0  0  0  0  0  0  0  0  0  0  0
   19.4732   -5.4642   24.0789 C   0  0  0  0  0  0  0  0  0  0  0  0
   24.5784   -1.2183   19.7938 C   0  0  0  0  0  0  0  0  0  0  0  0
   23.8317   -3.6678   19.2335 C   0  0  0  0  0  0  0  0  0  0  0  0
   19.7049   -6.1309   22.7134 C   0  0  0  0  0  0  0  0  0  0  0  0
   20.9977   -5.6887   22.0047 C   0  0  0  0  0  0  0  0  0  0  0  0
   20.8745   -4.3038   21.3440 C   0  0  0  0  0  0  0  0  0  0  0  0
   21.5341   -4.7595   25.4241 C   0  0  0  0  0  0  0  0  0  0  0  0
   22.1186   -3.7968   20.6140 C   0  0  0  0  0  0  0  0  0  0  0  0
   23.7070   -2.4806   19.9393 C   0  0  0  0  0  0  0  0  0  0  0  0
   26.1915   -0.5693   18.8179 H   0  0  0  0  0  0  0  0  0  0  0  0
   20.6863   -6.6907   25.2999 H   0  0  0  0  0  0  0  0  0  0  0  0
   22.3176   -1.8617   21.3429 H   0  0  0  0  0  0  0  0  0  0  0  0
   22.5447   -6.1950   26.5513 H   0  0  0  0  0  0  0  0  0  0  0  0
   23.5379   -5.0636   25.9188 H   0  0  0  0  0  0  0  0  0  0  0  0
   22.6080   -4.7029   27.2118 H   0  0  0  0  0  0  0  0  0  0  0  0
   19.3984   -4.4748   23.9544 H   0  0  0  0  0  0  0  0  0  0  0  0
   18.6258   -5.8150   24.4776 H   0  0  0  0  0  0  0  0  0  0  0  0
   24.0059   -0.4680   19.4634 H   0  0  0  0  0  0  0  0  0  0  0  0
   24.9543   -0.9814   20.6896 H   0  0  0  0  0  0  0  0  0  0  0  0
   24.5132   -3.8828   18.5339 H   0  0  0  0  0  0  0  0  0  0  0  0
   18.9308   -5.9084   22.1207 H   0  0  0  0  0  0  0  0  0  0  0  0
   19.7458   -7.1206   22.8509 H   0  0  0  0  0  0  0  0  0  0  0  0
   21.2203   -6.3606   21.2984 H   0  0  0  0  0  0  0  0  0  0  0  0
   21.7359   -5.6562   22.6785 H   0  0  0  0  0  0  0  0  0  0  0  0
   20.6486   -3.6425   22.0593 H   0  0  0  0  0  0  0  0  0  0  0  0
   20.1268   -4.3464   20.6813 H   0  0  0  0  0  0  0  0  0  0  0  0
  1  8  1  0  0  0  0
  2 13  2  0  0  0  0
  3  7  1  0  0  0  0
  3 13  1  0  0  0  0
  4  9  1  0  0  0  0
  4 14  2  0  0  0  0
  5 14  1  0  0  0  0
  5 15  1  0  0  0  0
  6 13  1  0  0  0  0
  7 10  1  0  0  0  0
  8 15  1  0  0  0  0
  9 15  2  0  0  0  0
 10 11  1  0  0  0  0
 11 12  1  0  0  0  0
 12 14  1  0  0  0  0
  1 16  1  0  0  0  0
  3 17  1  0  0  0  0
  5 18  1  0  0  0  0
  6 19  1  0  0  0  0
  6 20  1  0  0  0  0
  6 21  1  0  0  0  0
  7 22  1  0  0  0  0
  7 23  1  0  0  0  0
  8 24  1  0  0  0  0
  8 25  1  0  0  0  0
  9 26  1  0  0  0  0
 10 27  1  0  0  0  0
 10 28  1  0  0  0  0
 11 29  1  0  0  0  0
 11 30  1  0  0  0  0
 12 31  1  0  0  0  0
 12 32  1  0  0  0  0
M  END
> <pdb_id>
6PG6

> <uniprot_id>
P61964

> <usmiles>
O=C(NCCCCC1=NC=C(N1)CO)C

$$$$
OHJ_B_401
          07202411533D 1   1.00000     0.00000     0
            
 25 25  0  0  0  0            999 V2000
   25.6733   -1.3764   18.8574 O   0  0  0  0  0  0  0  0  0  0  0  0
   22.8654   -4.3992   19.6425 N   0  0  0  0  0  0  0  0  0  0  0  0
   22.6645   -2.4801   20.6679 N   0  0  0  0  0  0  0  0  0  0  0  0
   19.8948   -7.3878   22.9832 C   0  0  0  0  0  0  0  0  0  0  0  0
   24.6290   -1.1549   19.7930 C   0  0  0  0  0  0  0  0  0  0  0  0
   23.8906   -3.6089   19.2288 C   0  0  0  0  0  0  0  0  0  0  0  0
   19.8156   -5.9052   22.6853 C   0  0  0  0  0  0  0  0  0  0  0  0
   20.9892   -5.5125   21.8080 C   0  0  0  0  0  0  0  0  0  0  0  0
   20.8339   -4.1453   21.2087 C   0  0  0  0  0  0  0  0  0  0  0  0
   22.1001   -3.6856   20.5079 C   0  0  0  0  0  0  0  0  0  0  0  0
   23.7478   -2.3843   19.8908 C   0  0  0  0  0  0  0  0  0  0  0  0
   26.2484   -0.5603   18.8004 H   0  0  0  0  0  0  0  0  0  0  0  0
   22.3264   -1.7619   21.2761 H   0  0  0  0  0  0  0  0  0  0  0  0
   19.1234   -7.6532   23.5616 H   0  0  0  0  0  0  0  0  0  0  0  0
   19.8614   -7.9022   22.1263 H   0  0  0  0  0  0  0  0  0  0  0  0
   20.7518   -7.5870   23.4584 H   0  0  0  0  0  0  0  0  0  0  0  0
   24.0777   -0.3757   19.4950 H   0  0  0  0  0  0  0  0  0  0  0  0
   25.0248   -0.9595   20.6903 H   0  0  0  0  0  0  0  0  0  0  0  0
   24.6083   -3.8549   18.5773 H   0  0  0  0  0  0  0  0  0  0  0  0
   19.8498   -5.3892   23.5413 H   0  0  0  0  0  0  0  0  0  0  0  0
   18.9594   -5.7044   22.2092 H   0  0  0  0  0  0  0  0  0  0  0  0
   21.0715   -6.1790   21.0670 H   0  0  0  0  0  0  0  0  0  0  0  0
   21.8214   -5.5260   22.3623 H   0  0  0  0  0  0  0  0  0  0  0  0
   20.6140   -3.4964   21.9371 H   0  0  0  0  0  0  0  0  0  0  0  0
   20.0866   -4.1667   20.5445 H   0  0  0  0  0  0  0  0  0  0  0  0
  1  5  1  0  0  0  0
  2  6  1  0  0  0  0
  2 10  2  0  0  0  0
  3 10  1  0  0  0  0
  3 11  1  0  0  0  0
  4  7  1  0  0  0  0
  5 11  1  0  0  0  0
  6 11  2  0  0  0  0
  7  8  1  0  0  0  0
  8  9  1  0  0  0  0
  9 10  1  0  0  0  0
  1 12  1  0  0  0  0
  3 13  1  0  0  0  0
  4 14  1  0  0  0  0
  4 15  1  0  0  0  0
  4 16  1  0  0  0  0
  5 17  1  0  0  0  0
  5 18  1  0  0  0  0
  6 19  1  0  0  0  0
  7 20  1  0  0  0  0
  7 21  1  0  0  0  0
  8 22  1  0  0  0  0
  8 23  1  0  0  0  0
  9 24  1  0  0  0  0
  9 25  1  0  0  0  0
M  END
> <pdb_id>
6PG3

> <uniprot_id>
P61964

> <usmiles>
OCC=1NC(=NC1)CCCC

$$$$
OJG_A_401
          07202411533D 1   1.00000     0.00000     0
            
 42 43  0  0  0  0            999 V2000
   25.6419   -1.2989   18.9352 O   0  0  0  0  0  0  0  0  0  0  0  0
   21.3584   -3.7098   25.2237 O   0  0  0  0  0  0  0  0  0  0  0  0
   20.5910   -5.8116   24.7554 N   0  0  0  0  0  0  0  0  0  0  0  0
   22.7942   -4.3795   19.6806 N   0  0  0  0  0  0  0  0  0  0  0  0
   22.5955   -2.4551   20.6865 N   0  0  0  0  0  0  0  0  0  0  0  0
   24.4784   -1.0718   19.7096 C   0  0  0  0  0  0  0  0  0  0  0  0
   19.5121   -5.4007   23.9009 C   0  0  0  0  0  0  0  0  0  0  0  0
   23.7633   -3.5695   19.2160 C   0  0  0  0  0  0  0  0  0  0  0  0
   19.6142   -6.0677   22.5326 C   0  0  0  0  0  0  0  0  0  0  0  0
   20.8305   -5.8463   30.1798 C   0  0  0  0  0  0  0  0  0  0  0  0
   20.8080   -5.6098   21.6739 C   0  0  0  0  0  0  0  0  0  0  0  0
   20.7220   -6.8704   29.2634 C   0  0  0  0  0  0  0  0  0  0  0  0
   21.5133   -4.6904   29.8719 C   0  0  0  0  0  0  0  0  0  0  0  0
   20.8543   -4.1166   21.3841 C   0  0  0  0  0  0  0  0  0  0  0  0
   21.2742   -6.7007   28.0057 C   0  0  0  0  0  0  0  0  0  0  0  0
   22.0761   -4.5205   28.6180 C   0  0  0  0  0  0  0  0  0  0  0  0
   22.5532   -5.4058   26.3090 C   0  0  0  0  0  0  0  0  0  0  0  0
   21.4648   -4.8687   25.3910 C   0  0  0  0  0  0  0  0  0  0  0  0
   22.0892   -3.6574   20.5821 C   0  0  0  0  0  0  0  0  0  0  0  0
   23.6221   -2.3351   19.8646 C   0  0  0  0  0  0  0  0  0  0  0  0
   21.9619   -5.5481   27.6951 C   0  0  0  0  0  0  0  0  0  0  0  0
   26.1651   -0.4497   18.8629 H   0  0  0  0  0  0  0  0  0  0  0  0
   20.7379   -6.7882   24.9123 H   0  0  0  0  0  0  0  0  0  0  0  0
   22.2568   -1.7375   21.2951 H   0  0  0  0  0  0  0  0  0  0  0  0
   23.9293   -0.3646   19.2641 H   0  0  0  0  0  0  0  0  0  0  0  0
   24.7537   -0.7572   20.6180 H   0  0  0  0  0  0  0  0  0  0  0  0
   19.5469   -4.4081   23.7844 H   0  0  0  0  0  0  0  0  0  0  0  0
   18.6433   -5.6562   24.3253 H   0  0  0  0  0  0  0  0  0  0  0  0
   24.4560   -3.8049   18.5342 H   0  0  0  0  0  0  0  0  0  0  0  0
   18.7743   -5.8696   22.0273 H   0  0  0  0  0  0  0  0  0  0  0  0
   19.6937   -7.0545   22.6735 H   0  0  0  0  0  0  0  0  0  0  0  0
   20.4076   -5.9439   31.0807 H   0  0  0  0  0  0  0  0  0  0  0  0
   20.7660   -6.0945   20.8002 H   0  0  0  0  0  0  0  0  0  0  0  0
   21.6493   -5.8593   22.1535 H   0  0  0  0  0  0  0  0  0  0  0  0
   20.2528   -7.7204   29.5030 H   0  0  0  0  0  0  0  0  0  0  0  0
   21.6033   -3.9689   30.5585 H   0  0  0  0  0  0  0  0  0  0  0  0
   20.8502   -3.6290   22.2572 H   0  0  0  0  0  0  0  0  0  0  0  0
   20.0360   -3.8742   20.8631 H   0  0  0  0  0  0  0  0  0  0  0  0
   21.1734   -7.4196   27.3178 H   0  0  0  0  0  0  0  0  0  0  0  0
   22.5546   -3.6743   28.3834 H   0  0  0  0  0  0  0  0  0  0  0  0
   23.3237   -4.7689   26.3318 H   0  0  0  0  0  0  0  0  0  0  0  0
   22.8666   -6.2966   25.9799 H   0  0  0  0  0  0  0  0  0  0  0  0
  1  6  1  0  0  0  0
  2 18  2  0  0  0  0
  3  7  1  0  0  0  0
  3 18  1  0  0  0  0
  4  8  1  0  0  0  0
  4 19  2  0  0  0  0
  5 19  1  0  0  0  0
  5 20  1  0  0  0  0
  6 20  1  0  0  0  0
  7  9  1  0  0  0  0
  8 20  2  0  0  0  0
  9 11  1  0  0  0  0
 10 12  2  0  0  0  0
 10 13  1  0  0  0  0
 11 14  1  0  0  0  0
 12 15  1  0  0  0  0
 13 16  2  0  0  0  0
 14 19  1  0  0  0  0
 15 21  2  0  0  0  0
 16 21  1  0  0  0  0
 17 18  1  0  0  0  0
 17 21  1  0  0  0  0
  1 22  1  0  0  0  0
  3 23  1  0  0  0  0
  5 24  1  0  0  0  0
  6 25  1  0  0  0  0
  6 26  1  0  0  0  0
  7 27  1  0  0  0  0
  7 28  1  0  0  0  0
  8 29  1  0  0  0  0
  9 30  1  0  0  0  0
  9 31  1  0  0  0  0
 10 32  1  0  0  0  0
 11 33  1  0  0  0  0
 11 34  1  0  0  0  0
 12 35  1  0  0  0  0
 13 36  1  0  0  0  0
 14 37  1  0  0  0  0
 14 38  1  0  0  0  0
 15 39  1  0  0  0  0
 16 40  1  0  0  0  0
 17 41  1  0  0  0  0
 17 42  1  0  0  0  0
M  END
> <pdb_id>
6PGB

> <uniprot_id>
P61964

> <usmiles>
O=C(NCCCCC1=NC=C(N1)CO)Cc2ccccc2

$$$$
OJM_A_401
          07202411533D 1   1.00000     0.00000     0
            
 28 28  0  0  0  0            999 V2000
   25.7481   -1.2768   18.9308 O   0  0  0  0  0  0  0  0  0  0  0  0
   19.9302   -5.3358   23.9836 O   0  0  0  0  0  0  0  0  0  0  0  0
   18.7380   -6.3428   22.3287 O   0  0  0  0  0  0  0  0  0  0  0  0
   22.7377   -4.3289   19.6656 N   0  0  0  0  0  0  0  0  0  0  0  0
   22.6202   -2.4277   20.6199 N   0  0  0  0  0  0  0  0  0  0  0  0
   17.1329   -8.0551   22.8850 C   0  0  0  0  0  0  0  0  0  0  0  0
   18.0543   -6.9891   23.4252 C   0  0  0  0  0  0  0  0  0  0  0  0
   24.5411   -1.0881   19.6623 C   0  0  0  0  0  0  0  0  0  0  0  0
   23.7837   -3.5596   19.1601 C   0  0  0  0  0  0  0  0  0  0  0  0
   20.8282   -5.4972   21.7268 C   0  0  0  0  0  0  0  0  0  0  0  0
   20.8390   -4.0609   21.3086 C   0  0  0  0  0  0  0  0  0  0  0  0
   19.8166   -5.6940   22.8181 C   0  0  0  0  0  0  0  0  0  0  0  0
   22.0431   -3.6187   20.5431 C   0  0  0  0  0  0  0  0  0  0  0  0
   23.7214   -2.3199   19.7703 C   0  0  0  0  0  0  0  0  0  0  0  0
   26.2535   -0.4147   18.8936 H   0  0  0  0  0  0  0  0  0  0  0  0
   22.3029   -1.6917   21.2178 H   0  0  0  0  0  0  0  0  0  0  0  0
   16.6596   -8.5024   23.6439 H   0  0  0  0  0  0  0  0  0  0  0  0
   16.4613   -7.6366   22.2736 H   0  0  0  0  0  0  0  0  0  0  0  0
   17.6671   -8.7326   22.3795 H   0  0  0  0  0  0  0  0  0  0  0  0
   17.5201   -6.3115   23.9306 H   0  0  0  0  0  0  0  0  0  0  0  0
   18.7260   -7.4076   24.0365 H   0  0  0  0  0  0  0  0  0  0  0  0
   23.9983   -0.3850   19.2031 H   0  0  0  0  0  0  0  0  0  0  0  0
   24.7739   -0.7800   20.5847 H   0  0  0  0  0  0  0  0  0  0  0  0
   24.4568   -3.8507   18.4802 H   0  0  0  0  0  0  0  0  0  0  0  0
   21.7346   -5.7533   22.0625 H   0  0  0  0  0  0  0  0  0  0  0  0
   20.5887   -6.0705   20.9432 H   0  0  0  0  0  0  0  0  0  0  0  0
   20.7765   -3.5000   22.1342 H   0  0  0  0  0  0  0  0  0  0  0  0
   20.0350   -3.9015   20.7357 H   0  0  0  0  0  0  0  0  0  0  0  0
  1  8  1  0  0  0  0
  2 12  2  0  0  0  0
  3  7  1  0  0  0  0
  3 12  1  0  0  0  0
  4  9  1  0  0  0  0
  4 13  2  0  0  0  0
  5 13  1  0  0  0  0
  5 14  1  0  0  0  0
  6  7  1  0  0  0  0
  8 14  1  0  0  0  0
  9 14  2  0  0  0  0
 10 11  1  0  0  0  0
 10 12  1  0  0  0  0
 11 13  1  0  0  0  0
  1 15  1  0  0  0  0
  5 16  1  0  0  0  0
  6 17  1  0  0  0  0
  6 18  1  0  0  0  0
  6 19  1  0  0  0  0
  7 20  1  0  0  0  0
  7 21  1  0  0  0  0
  8 22  1  0  0  0  0
  8 23  1  0  0  0  0
  9 24  1  0  0  0  0
 10 25  1  0  0  0  0
 10 26  1  0  0  0  0
 11 27  1  0  0  0  0
 11 28  1  0  0  0  0
M  END
> <pdb_id>
6PGE

> <uniprot_id>
P61964

> <usmiles>
O=C(OCC)CCC1=NC=C(N1)CO

$$$$
OK1_B_503
          07192420153D 1   1.00000     0.00000     0
            
 38 40  0  0  0  0            999 V2000
   11.8540  -35.9569   44.6978 Cl  0  0  0  0  0  0  0  0  0  0  0  0
   11.4267  -27.9747   44.8309 O   0  0  0  0  0  0  0  0  0  0  0  0
    9.5833  -28.9515   44.0906 O   0  0  0  0  0  0  0  0  0  0  0  0
    9.4372  -30.5892   49.1776 O   0  0  0  0  0  0  0  0  0  0  0  0
   12.2239  -36.7839   47.4016 O   0  0  0  0  0  0  0  0  0  0  0  0
   10.3411  -32.6650   49.2618 O   0  0  0  0  0  0  0  0  0  0  0  0
    9.8757  -31.8316   47.2620 N   0  0  0  0  0  0  0  0  0  0  0  0
   12.5605  -37.3613   48.6670 C   0  0  0  0  0  0  0  0  0  0  0  0
    9.5768  -30.8264   46.2259 C   0  0  0  0  0  0  0  0  0  0  0  0
   13.8526  -40.1397   46.9896 C   0  0  0  0  0  0  0  0  0  0  0  0
   10.7820  -29.9493   45.9182 C   0  0  0  0  0  0  0  0  0  0  0  0
   14.3528  -38.7518   47.4204 C   0  0  0  0  0  0  0  0  0  0  0  0
   12.4727  -39.6772   47.4483 C   0  0  0  0  0  0  0  0  0  0  0  0
   11.3717  -34.7858   48.4931 C   0  0  0  0  0  0  0  0  0  0  0  0
   10.8315  -33.7768   45.9071 C   0  0  0  0  0  0  0  0  0  0  0  0
   10.5304  -28.9210   44.8517 C   0  0  0  0  0  0  0  0  0  0  0  0
    9.8049  -31.5841   48.6032 C   0  0  0  0  0  0  0  0  0  0  0  0
   11.4403  -35.0083   46.0891 C   0  0  0  0  0  0  0  0  0  0  0  0
   11.7021  -35.5191   47.3618 C   0  0  0  0  0  0  0  0  0  0  0  0
   10.7737  -33.5592   48.3055 C   0  0  0  0  0  0  0  0  0  0  0  0
   10.4940  -33.0620   47.0511 C   0  0  0  0  0  0  0  0  0  0  0  0
   13.1833  -38.7093   48.4104 C   0  0  0  0  0  0  0  0  0  0  0  0
   12.1887  -27.9934   45.4782 H   0  0  0  0  0  0  0  0  0  0  0  0
   11.7354  -37.4684   49.2219 H   0  0  0  0  0  0  0  0  0  0  0  0
   13.2108  -36.7724   49.1470 H   0  0  0  0  0  0  0  0  0  0  0  0
    8.8281  -30.2458   46.5457 H   0  0  0  0  0  0  0  0  0  0  0  0
    9.2987  -31.2981   45.3891 H   0  0  0  0  0  0  0  0  0  0  0  0
   14.2343  -40.9046   47.5085 H   0  0  0  0  0  0  0  0  0  0  0  0
   13.9291  -40.3297   46.0108 H   0  0  0  0  0  0  0  0  0  0  0  0
   11.5315  -30.5386   45.6167 H   0  0  0  0  0  0  0  0  0  0  0  0
   11.0480  -29.4743   46.7570 H   0  0  0  0  0  0  0  0  0  0  0  0
   14.3178  -38.0552   46.7038 H   0  0  0  0  0  0  0  0  0  0  0  0
   15.2584  -38.7482   47.8447 H   0  0  0  0  0  0  0  0  0  0  0  0
   11.9252  -40.3832   47.8975 H   0  0  0  0  0  0  0  0  0  0  0  0
   11.9259  -39.2323   46.7391 H   0  0  0  0  0  0  0  0  0  0  0  0
   11.5609  -35.1352   49.4108 H   0  0  0  0  0  0  0  0  0  0  0  0
   10.6431  -33.4178   44.9930 H   0  0  0  0  0  0  0  0  0  0  0  0
   13.4214  -39.1649   49.2682 H   0  0  0  0  0  0  0  0  0  0  0  0
  1 18  1  0  0  0  0
  2 16  1  0  0  0  0
  3 16  2  0  0  0  0
  4 17  2  0  0  0  0
  5  8  1  0  0  0  0
  5 19  1  0  0  0  0
  6 17  1  0  0  0  0
  6 20  1  0  0  0  0
  7  9  1  0  0  0  0
  7 17  1  0  0  0  0
  7 21  1  0  0  0  0
  8 22  1  0  0  0  0
  9 11  1  0  0  0  0
 10 12  1  0  0  0  0
 10 13  1  0  0  0  0
 11 16  1  0  0  0  0
 12 22  1  0  0  0  0
 13 22  1  0  0  0  0
 14 19  1  0  0  0  0
 14 20  2  0  0  0  0
 15 18  1  0  0  0  0
 15 21  2  0  0  0  0
 18 19  2  0  0  0  0
 20 21  1  0  0  0  0
  2 23  1  0  0  0  0
  8 24  1  0  0  0  0
  8 25  1  0  0  0  0
  9 26  1  0  0  0  0
  9 27  1  0  0  0  0
 10 28  1  0  0  0  0
 10 29  1  0  0  0  0
 11 30  1  0  0  0  0
 11 31  1  0  0  0  0
 12 32  1  0  0  0  0
 12 33  1  0  0  0  0
 13 34  1  0  0  0  0
 13 35  1  0  0  0  0
 14 36  1  0  0  0  0
 15 37  1  0  0  0  0
 22 38  1  0  0  0  0
M  END
> <pdb_id>
5MZK

> <uniprot_id>
Q84HF5

> <usmiles>
Clc1c(OCC2CCC2)cc3OC(=O)N(c3c1)CCC(=O)O

$$$$
OK3_B_600
          07202410153D 1   1.00000     0.00000     0
            
 44 46  0  0  0  0            999 V2000
  -36.0520   -6.2070   67.2530 O   0  0  0  0  0  0  0  0  0  0  0  0
  -35.9910   -7.8740   68.7520 O   0  0  0  0  0  0  0  0  0  0  0  0
  -32.1110  -13.9030   65.1880 O   0  0  0  0  0  0  0  0  0  0  0  0
  -35.5070  -12.1040   68.0710 O   0  0  0  0  0  0  0  0  0  0  0  0
  -35.8610  -10.7300   66.1020 O   0  0  0  0  0  0  0  0  0  0  0  0
  -34.4560   -9.8740   67.9450 O   0  0  0  0  0  0  0  0  0  0  0  0
  -34.8180  -15.6760   58.9790 N   0  0  0  0  0  0  0  0  0  0  0  0
  -33.4410  -12.0560   65.1250 N   0  0  0  0  0  0  0  0  0  0  0  0
  -34.2200  -14.4090   59.0200 C   0  0  0  0  0  0  0  0  0  0  0  0
  -32.1360   -7.1270   65.9650 C   0  0  0  0  0  0  0  0  0  0  0  0
  -31.6720   -8.4560   66.0180 C   0  0  0  0  0  0  0  0  0  0  0  0
  -32.5580  -14.3370   60.9170 C   0  0  0  0  0  0  0  0  0  0  0  0
  -34.8200  -13.5250   61.2830 C   0  0  0  0  0  0  0  0  0  0  0  0
  -32.2110  -14.0370   62.2480 C   0  0  0  0  0  0  0  0  0  0  0  0
  -34.4680  -13.2300   62.5820 C   0  0  0  0  0  0  0  0  0  0  0  0
  -33.3610   -6.7110   66.5330 C   0  0  0  0  0  0  0  0  0  0  0  0
  -32.1060  -10.7860   66.7880 C   0  0  0  0  0  0  0  0  0  0  0  0
  -35.4700   -7.2180   67.7730 C   0  0  0  0  0  0  0  0  0  0  0  0
  -32.8190  -13.1770   64.4870 C   0  0  0  0  0  0  0  0  0  0  0  0
  -33.6620   -8.9320   67.2300 C   0  0  0  0  0  0  0  0  0  0  0  0
  -33.2470  -11.7250   66.5410 C   0  0  1  0  0  0  0  0  0  0  0  0
  -33.8490  -14.0930   60.4680 C   0  0  0  0  0  0  0  0  0  0  0  0
  -33.1730  -13.4330   63.0430 C   0  0  0  0  0  0  0  0  0  0  0  0
  -32.4940   -9.3450   66.7080 C   0  0  0  0  0  0  0  0  0  0  0  0
  -34.1390   -7.6220   67.2100 C   0  0  0  0  0  0  0  0  0  0  0  0
  -34.6510  -11.0690   67.1340 B   0  5  0  0  0  0  0  0  0  0  0  0
  -35.6221   -5.7183   66.4938 H   0  0  0  0  0  0  0  0  0  0  0  0
  -34.9232  -12.4489   68.8060 H   0  0  0  0  0  0  0  0  0  0  0  0
  -35.5387  -10.0822   65.4117 H   0  0  0  0  0  0  0  0  0  0  0  0
  -35.0667  -15.8969   58.0359 H   0  0  0  0  0  0  0  0  0  0  0  0
  -34.1743  -16.3597   59.3229 H   0  0  0  0  0  0  0  0  0  0  0  0
  -34.0377  -11.4692   64.5777 H   0  0  0  0  0  0  0  0  0  0  0  0
  -34.8618  -13.7222   58.6789 H   0  0  0  0  0  0  0  0  0  0  0  0
  -33.3964  -14.4065   58.4528 H   0  0  0  0  0  0  0  0  0  0  0  0
  -31.5704   -6.4442   65.5025 H   0  0  0  0  0  0  0  0  0  0  0  0
  -30.8139   -8.7412   65.5909 H   0  0  0  0  0  0  0  0  0  0  0  0
  -31.8764  -14.7248   60.2965 H   0  0  0  0  0  0  0  0  0  0  0  0
  -35.7402  -13.3372   60.9397 H   0  0  0  0  0  0  0  0  0  0  0  0
  -31.3029  -14.2519   62.6073 H   0  0  0  0  0  0  0  0  0  0  0  0
  -35.1582  -12.8625   63.2054 H   0  0  0  0  0  0  0  0  0  0  0  0
  -33.6605   -5.7611   66.4436 H   0  0  0  0  0  0  0  0  0  0  0  0
  -31.3974  -10.9617   66.1046 H   0  0  0  0  0  0  0  0  0  0  0  0
  -31.7401  -10.9653   67.7012 H   0  0  0  0  0  0  0  0  0  0  0  0
  -33.0654  -12.5738   67.0376 H   0  0  0  0  0  0  0  0  0  0  0  0
  1 18  1  0  0  0  0
  2 18  2  0  0  0  0
  3 19  2  0  0  0  0
  4 26  1  0  0  0  0
  5 26  1  0  0  0  0
  6 20  1  0  0  0  0
  6 26  1  0  0  0  0
  7  9  1  0  0  0  0
  8 19  1  0  0  0  0
  8 21  1  0  0  0  0
  9 22  1  0  0  0  0
 10 11  2  0  0  0  0
 10 16  1  0  0  0  0
 11 24  1  0  0  0  0
 12 14  2  0  0  0  0
 12 22  1  0  0  0  0
 13 15  1  0  0  0  0
 13 22  2  0  0  0  0
 14 23  1  0  0  0  0
 15 23  2  0  0  0  0
 16 25  2  0  0  0  0
 17 21  1  0  0  0  0
 17 24  1  0  0  0  0
 18 25  1  0  0  0  0
 19 23  1  0  0  0  0
 20 24  2  0  0  0  0
 20 25  1  0  0  0  0
 21 26  1  0  0  0  0
  1 27  1  0  0  0  0
  4 28  1  0  0  0  0
  5 29  1  0  0  0  0
  7 30  1  0  0  0  0
  7 31  1  0  0  0  0
  8 32  1  0  0  0  0
  9 33  1  0  0  0  0
  9 34  1  0  0  0  0
 10 35  1  0  0  0  0
 11 36  1  0  0  0  0
 12 37  1  0  0  0  0
 13 38  1  0  0  0  0
 14 39  1  0  0  0  0
 15 40  1  0  0  0  0
 16 41  1  0  0  0  0
 17 42  1  0  0  0  0
 17 43  1  0  0  0  0
 21 44  1  0  0  0  0
M  CHG  1  26  -1
M  END
> <pdb_id>
5FQC

> <uniprot_id>
Q9K2N0

> <usmiles>
O=C(O)c1c2O[B-](O)(O)[C@@H](NC(=O)c3ccc(cc3)CN)Cc2ccc1

$$$$
OKI_A_2
          07212401303D 1   1.00000     0.00000     0
            
 64 68  0  0  0  0            999 V2000
   22.8887  -17.6891  137.8271 Cl  0  0  0  0  0  0  0  0  0  0  0  0
   20.6913  -10.6553  141.7584 O   0  0  0  0  0  0  0  0  0  0  0  0
   20.3504  -11.2124  139.5611 N   0  0  0  0  0  0  0  0  0  0  0  0
   24.1264  -10.9991  137.2371 N   0  0  0  0  0  0  0  0  0  0  0  0
   23.1591  -11.0532  139.3315 N   0  0  0  0  0  0  0  0  0  0  0  0
   16.6775   -9.9009  137.8685 C   0  0  0  0  0  0  0  0  0  0  0  0
   25.4046  -12.3455  143.7617 C   0  0  0  0  0  0  0  0  0  0  0  0
   17.5175   -8.8984  138.6325 C   0  0  0  0  0  0  0  0  0  0  0  0
   16.6924  -11.2529  138.5469 C   0  0  0  0  0  0  0  0  0  0  0  0
   23.9259  -12.3510  144.0707 C   0  0  0  0  0  0  0  0  0  0  0  0
   25.7255  -11.2178  142.8049 C   0  0  0  0  0  0  0  0  0  0  0  0
   24.2452   -7.3077  137.9204 C   0  0  0  0  0  0  0  0  0  0  0  0
   23.6529   -7.3330  139.1971 C   0  0  0  0  0  0  0  0  0  0  0  0
   22.0610  -15.1596  137.5700 C   0  0  0  0  0  0  0  0  0  0  0  0
   24.3266  -15.4820  138.3892 C   0  0  0  0  0  0  0  0  0  0  0  0
   18.9430   -9.3907  138.7316 C   0  0  0  0  0  0  0  0  0  0  0  0
   18.1124  -11.7525  138.6860 C   0  0  0  0  0  0  0  0  0  0  0  0
   24.4520   -8.4626  137.1821 C   0  0  0  0  0  0  0  0  0  0  0  0
   23.2411   -8.5198  139.7834 C   0  0  0  0  0  0  0  0  0  0  0  0
   23.1130  -12.5123  142.8040 C   0  0  0  0  0  0  0  0  0  0  0  0
   24.8868  -11.2768  141.5407 C   0  0  0  0  0  0  0  0  0  0  0  0
   22.2388  -13.7837  137.6591 C   0  0  0  0  0  0  0  0  0  0  0  0
   24.4975  -14.0990  138.4772 C   0  0  0  0  0  0  0  0  0  0  0  0
   21.1234  -11.1061  140.6840 C   0  0  0  0  0  0  0  0  0  0  0  0
   23.1087  -16.0077  137.9375 C   0  0  0  0  0  0  0  0  0  0  0  0
   23.6012  -11.7878  138.1955 C   0  0  0  0  0  0  0  0  0  0  0  0
   18.9886  -10.7455  139.4546 C   0  0  0  0  0  0  0  0  0  0  0  0
   24.0497   -9.6866  137.7406 C   0  0  0  0  0  0  0  0  0  0  0  0
   23.4365   -9.7042  139.0569 C   0  0  0  0  0  0  0  0  0  0  0  0
   22.5884  -11.6128  140.5219 C   0  0  2  0  0  0  0  0  0  0  0  0
   23.4503  -13.2445  138.1052 C   0  0  0  0  0  0  0  0  0  0  0  0
   23.3953  -11.3797  141.8242 C   0  0  0  0  0  0  0  0  0  0  0  0
   20.7575  -11.6445  138.7563 H   0  0  0  0  0  0  0  0  0  0  0  0
   17.0438   -9.9959  136.9428 H   0  0  0  0  0  0  0  0  0  0  0  0
   15.7352   -9.5693  137.8217 H   0  0  0  0  0  0  0  0  0  0  0  0
   25.6595  -13.2176  143.3440 H   0  0  0  0  0  0  0  0  0  0  0  0
   25.9202  -12.2184  144.6090 H   0  0  0  0  0  0  0  0  0  0  0  0
   17.1418   -8.7834  139.5521 H   0  0  0  0  0  0  0  0  0  0  0  0
   17.5025   -8.0204  138.1541 H   0  0  0  0  0  0  0  0  0  0  0  0
   16.1658  -11.9031  137.9991 H   0  0  0  0  0  0  0  0  0  0  0  0
   16.2806  -11.1715  139.4545 H   0  0  0  0  0  0  0  0  0  0  0  0
   23.6797  -11.4874  144.5107 H   0  0  0  0  0  0  0  0  0  0  0  0
   23.7231  -13.1100  144.6894 H   0  0  0  0  0  0  0  0  0  0  0  0
   26.6915  -11.2753  142.5527 H   0  0  0  0  0  0  0  0  0  0  0  0
   25.5524  -10.3469  143.2649 H   0  0  0  0  0  0  0  0  0  0  0  0
   24.5256   -6.4291  137.5339 H   0  0  0  0  0  0  0  0  0  0  0  0
   23.5260   -6.4740  139.6931 H   0  0  0  0  0  0  0  0  0  0  0  0
   21.1935  -15.5378  137.2468 H   0  0  0  0  0  0  0  0  0  0  0  0
   25.0720  -16.0963  138.6481 H   0  0  0  0  0  0  0  0  0  0  0  0
   19.4873   -8.7253  139.2426 H   0  0  0  0  0  0  0  0  0  0  0  0
   19.3212   -9.4945  137.8117 H   0  0  0  0  0  0  0  0  0  0  0  0
   18.4994  -11.8913  137.7744 H   0  0  0  0  0  0  0  0  0  0  0  0
   18.1048  -12.6215  139.1808 H   0  0  0  0  0  0  0  0  0  0  0  0
   24.8759   -8.4252  136.2771 H   0  0  0  0  0  0  0  0  0  0  0  0
   22.8204   -8.5314  140.6905 H   0  0  0  0  0  0  0  0  0  0  0  0
   22.1405  -12.5081  143.0370 H   0  0  0  0  0  0  0  0  0  0  0  0
   23.3487  -13.3834  142.3731 H   0  0  0  0  0  0  0  0  0  0  0  0
   25.1665  -12.0764  141.0093 H   0  0  0  0  0  0  0  0  0  0  0  0
   25.0539  -10.4473  141.0078 H   0  0  0  0  0  0  0  0  0  0  0  0
   21.4913  -13.1716  137.4009 H   0  0  0  0  0  0  0  0  0  0  0  0
   25.3631  -13.7198  138.8042 H   0  0  0  0  0  0  0  0  0  0  0  0
   18.6150  -10.6314  140.3751 H   0  0  0  0  0  0  0  0  0  0  0  0
   22.5400  -12.6019  140.3834 H   0  0  0  0  0  0  0  0  0  0  0  0
   23.0909  -10.5209  142.2363 H   0  0  0  0  0  0  0  0  0  0  0  0
  1 25  1  0  0  0  0
  2 24  2  0  0  0  0
  3 24  1  0  0  0  0
  3 27  1  0  0  0  0
  4 26  2  0  0  0  0
  4 28  1  0  0  0  0
  5 26  1  0  0  0  0
  5 29  1  0  0  0  0
  5 30  1  0  0  0  0
  6  8  1  0  0  0  0
  6  9  1  0  0  0  0
  7 10  1  0  0  0  0
  7 11  1  0  0  0  0
  8 16  1  0  0  0  0
  9 17  1  0  0  0  0
 10 20  1  0  0  0  0
 11 21  1  0  0  0  0
 12 13  2  0  0  0  0
 12 18  1  0  0  0  0
 13 19  1  0  0  0  0
 14 22  2  0  0  0  0
 14 25  1  0  0  0  0
 15 23  1  0  0  0  0
 15 25  2  0  0  0  0
 16 27  1  0  0  0  0
 17 27  1  0  0  0  0
 18 28  2  0  0  0  0
 19 29  2  0  0  0  0
 20 32  1  0  0  0  0
 21 32  1  0  0  0  0
 22 31  1  0  0  0  0
 23 31  2  0  0  0  0
 24 30  1  0  0  0  0
 26 31  1  0  0  0  0
 28 29  1  0  0  0  0
 30 32  1  0  0  0  0
  3 33  1  0  0  0  0
  6 34  1  0  0  0  0
  6 35  1  0  0  0  0
  7 36  1  0  0  0  0
  7 37  1  0  0  0  0
  8 38  1  0  0  0  0
  8 39  1  0  0  0  0
  9 40  1  0  0  0  0
  9 41  1  0  0  0  0
 10 42  1  0  0  0  0
 10 43  1  0  0  0  0
 11 44  1  0  0  0  0
 11 45  1  0  0  0  0
 12 46  1  0  0  0  0
 13 47  1  0  0  0  0
 14 48  1  0  0  0  0
 15 49  1  0  0  0  0
 16 50  1  0  0  0  0
 16 51  1  0  0  0  0
 17 52  1  0  0  0  0
 17 53  1  0  0  0  0
 18 54  1  0  0  0  0
 19 55  1  0  0  0  0
 20 56  1  0  0  0  0
 20 57  1  0  0  0  0
 21 58  1  0  0  0  0
 21 59  1  0  0  0  0
 22 60  1  0  0  0  0
 23 61  1  0  0  0  0
 27 62  1  0  0  0  0
 30 63  1  0  0  0  0
 32 64  1  0  0  0  0
M  END
> <pdb_id>
3OKI

> <uniprot_id>
Q96RI1

> <usmiles>
Clc1ccc(cc1)C2=Nc3c(N2[C@H](C(=O)NC4CCCCC4)C5CCCCC5)cccc3

$$$$
OKM_B_400
          07212403273D 1   1.00000     0.00000     0
            
 29 29  0  0  0  0            999 V2000
  -58.3650   -7.7770  -57.3050 O   0  0  0  0  0  0  0  0  0  0  0  0
  -56.4970   -3.5310  -57.0010 N   0  0  0  0  0  0  0  0  0  0  0  0
  -57.3610   -5.7940  -57.2250 N   0  0  0  0  0  0  0  0  0  0  0  0
  -59.4260   -6.3480  -55.9900 N   0  0  0  0  0  0  0  0  0  0  0  0
  -58.4620   -4.0820  -55.8410 N   0  0  0  0  0  0  0  0  0  0  0  0
  -60.4800   -4.6960  -54.6370 N   0  0  0  0  0  0  0  0  0  0  0  0
  -54.5280   -2.5300  -57.9840 C   0  0  0  0  0  0  0  0  0  0  0  0
  -61.4920   -2.5950  -54.9650 C   0  0  0  0  0  0  0  0  0  0  0  0
  -61.4700   -3.6780  -52.6290 C   0  0  0  0  0  0  0  0  0  0  0  0
  -55.3840   -3.7900  -57.8710 C   0  0  0  0  0  0  0  0  0  0  0  0
  -58.3610   -6.7040  -56.8330 C   0  0  0  0  0  0  0  0  0  0  0  0
  -57.4180   -4.4490  -56.6930 C   0  0  0  0  0  0  0  0  0  0  0  0
  -59.4490   -5.0230  -55.5120 C   0  0  0  0  0  0  0  0  0  0  0  0
  -60.6990   -3.4290  -53.9850 C   0  0  0  0  0  0  0  0  0  0  0  0
  -56.5874   -2.6170  -56.6055 H   0  0  0  0  0  0  0  0  0  0  0  0
  -58.5056   -3.1551  -55.4682 H   0  0  0  0  0  0  0  0  0  0  0  0
  -61.1417   -5.4191  -54.4386 H   0  0  0  0  0  0  0  0  0  0  0  0
  -53.7520   -2.7074  -58.5893 H   0  0  0  0  0  0  0  0  0  0  0  0
  -55.0796   -1.7848  -58.3587 H   0  0  0  0  0  0  0  0  0  0  0  0
  -54.1920   -2.2729  -57.0779 H   0  0  0  0  0  0  0  0  0  0  0  0
  -61.6762   -1.6969  -54.5657 H   0  0  0  0  0  0  0  0  0  0  0  0
  -60.9671   -2.4834  -55.8088 H   0  0  0  0  0  0  0  0  0  0  0  0
  -62.3573   -3.0530  -55.1688 H   0  0  0  0  0  0  0  0  0  0  0  0
  -61.6266   -2.8039  -52.1692 H   0  0  0  0  0  0  0  0  0  0  0  0
  -62.3484   -4.1159  -52.8205 H   0  0  0  0  0  0  0  0  0  0  0  0
  -60.9232   -4.2718  -52.0388 H   0  0  0  0  0  0  0  0  0  0  0  0
  -55.7208   -4.0474  -58.7767 H   0  0  0  0  0  0  0  0  0  0  0  0
  -54.8332   -4.5356  -57.4959 H   0  0  0  0  0  0  0  0  0  0  0  0
  -59.8209   -2.9882  -53.7988 H   0  0  0  0  0  0  0  0  0  0  0  0
  1 11  2  0  0  0  0
  2 10  1  0  0  0  0
  2 12  1  0  0  0  0
  3 11  1  0  0  0  0
  3 12  2  0  0  0  0
  4 11  1  0  0  0  0
  4 13  2  0  0  0  0
  5 12  1  0  0  0  0
  5 13  1  0  0  0  0
  6 13  1  0  0  0  0
  6 14  1  0  0  0  0
  7 10  1  0  0  0  0
  8 14  1  0  0  0  0
  9 14  1  0  0  0  0
  2 15  1  0  0  0  0
  5 16  1  0  0  0  0
  6 17  1  0  0  0  0
  7 18  1  0  0  0  0
  7 19  1  0  0  0  0
  7 20  1  0  0  0  0
  8 21  1  0  0  0  0
  8 22  1  0  0  0  0
  8 23  1  0  0  0  0
  9 24  1  0  0  0  0
  9 25  1  0  0  0  0
  9 26  1  0  0  0  0
 10 27  1  0  0  0  0
 10 28  1  0  0  0  0
 14 29  1  0  0  0  0
M  END
> <pdb_id>
6PI6

> <uniprot_id>
Q936X6

> <usmiles>
O=C1N=C(NC(=N1)NCC)NC(C)C

$$$$
OKP_A_401
          07212403273D 1   1.00000     0.00000     0
            
 34 33  0  0  0  0            999 V2000
   26.3650   37.3120   74.0690 O   0  0  0  0  0  0  0  0  0  0  0  0
   25.8680   35.1510   74.8850 O   0  0  0  0  0  0  0  0  0  0  0  0
   33.7710   32.6970   72.2740 N   0  0  0  0  0  0  0  0  0  0  0  0
   32.3770   35.5280   71.9550 N   0  0  0  0  0  0  0  0  0  0  0  0
   34.3330   33.9620   72.0710 C   0  0  0  0  0  0  0  0  0  0  0  0
   33.3680   35.9630   72.9210 C   0  0  0  0  0  0  0  0  0  0  0  0
   31.1070   35.3490   72.5220 C   0  0  0  0  0  0  0  0  0  0  0  0
   34.1940   34.8460   73.2600 C   0  0  0  0  0  0  0  0  0  0  0  0
   30.0860   35.1620   71.4410 C   0  0  0  0  0  0  0  0  0  0  0  0
   29.0480   36.2050   71.5350 C   0  0  0  0  0  0  0  0  0  0  0  0
   28.7190   36.4550   72.9340 C   0  0  0  0  0  0  0  0  0  0  0  0
   27.8090   35.4360   73.4320 C   0  0  0  0  0  0  0  0  0  0  0  0
   26.6190   35.9910   74.1610 B   0  0  0  0  0  0  0  0  0  0  0  0
   27.0488   37.7427   73.4799 H   0  0  0  0  0  0  0  0  0  0  0  0
   26.2373   34.2247   74.8100 H   0  0  0  0  0  0  0  0  0  0  0  0
   33.8898   32.1433   71.4498 H   0  0  0  0  0  0  0  0  0  0  0  0
   34.2257   32.2499   73.0443 H   0  0  0  0  0  0  0  0  0  0  0  0
   32.6758   34.6593   71.5599 H   0  0  0  0  0  0  0  0  0  0  0  0
   33.8755   34.3951   71.2944 H   0  0  0  0  0  0  0  0  0  0  0  0
   35.3054   33.8515   71.8657 H   0  0  0  0  0  0  0  0  0  0  0  0
   32.9110   36.3057   73.7418 H   0  0  0  0  0  0  0  0  0  0  0  0
   33.9294   36.6893   72.5243 H   0  0  0  0  0  0  0  0  0  0  0  0
   30.8703   36.1543   73.0656 H   0  0  0  0  0  0  0  0  0  0  0  0
   31.1179   34.5408   73.1108 H   0  0  0  0  0  0  0  0  0  0  0  0
   35.0965   35.1709   73.5426 H   0  0  0  0  0  0  0  0  0  0  0  0
   33.7740   34.3347   74.0097 H   0  0  0  0  0  0  0  0  0  0  0  0
   29.6605   34.2626   71.5406 H   0  0  0  0  0  0  0  0  0  0  0  0
   30.5344   35.2217   70.5492 H   0  0  0  0  0  0  0  0  0  0  0  0
   28.2276   35.9006   71.0509 H   0  0  0  0  0  0  0  0  0  0  0  0
   29.3871   37.0485   71.1185 H   0  0  0  0  0  0  0  0  0  0  0  0
   28.2848   37.3522   73.0149 H   0  0  0  0  0  0  0  0  0  0  0  0
   29.5584   36.4407   73.4773 H   0  0  0  0  0  0  0  0  0  0  0  0
   28.3134   34.8415   74.0582 H   0  0  0  0  0  0  0  0  0  0  0  0
   27.4806   34.8993   72.6547 H   0  0  0  0  0  0  0  0  0  0  0  0
  1 13  1  0  0  0  0
  2 13  1  0  0  0  0
  3  5  1  0  0  0  0
  4  6  1  0  0  0  0
  4  7  1  0  0  0  0
  5  8  1  0  0  0  0
  6  8  1  0  0  0  0
  7  9  1  0  0  0  0
  9 10  1  0  0  0  0
 10 11  1  0  0  0  0
 11 12  1  0  0  0  0
 12 13  1  0  0  0  0
  1 14  1  0  0  0  0
  2 15  1  0  0  0  0
  3 16  1  0  0  0  0
  3 17  1  0  0  0  0
  4 18  1  0  0  0  0
  5 19  1  0  0  0  0
  5 20  1  0  0  0  0
  6 21  1  0  0  0  0
  6 22  1  0  0  0  0
  7 23  1  0  0  0  0
  7 24  1  0  0  0  0
  8 25  1  0  0  0  0
  8 26  1  0  0  0  0
  9 27  1  0  0  0  0
  9 28  1  0  0  0  0
 10 29  1  0  0  0  0
 10 30  1  0  0  0  0
 11 31  1  0  0  0  0
 11 32  1  0  0  0  0
 12 33  1  0  0  0  0
 12 34  1  0  0  0  0
M  END
> <pdb_id>
6PHT

> <uniprot_id>
nan

> <usmiles>
OB(O)CCCCCNCCCN

$$$$
OLQ_A_402
          07202415573D 1   1.00000     0.00000     0
            
 20 20  0  0  0  0            999 V2000
   17.5616   16.5889   20.9521 F   0  0  0  0  0  0  0  0  0  0  0  0
   16.0158   12.2176   20.5906 F   0  0  0  0  0  0  0  0  0  0  0  0
   15.2774   15.4603   22.2990 O   0  0  0  0  0  0  0  0  0  0  0  0
   18.3814   11.3332   19.6588 O   0  0  0  0  0  0  0  0  0  0  0  0
   14.4364   14.7777   20.3481 N   0  0  0  0  0  0  0  0  0  0  0  0
   19.6253   11.0485   19.0610 C   0  0  0  0  0  0  0  0  0  0  0  0
   19.1157   14.9620   20.1041 C   0  0  0  0  0  0  0  0  0  0  0  0
   19.3069   13.6209   19.7945 C   0  0  0  0  0  0  0  0  0  0  0  0
   15.4913   14.9311   21.2716 C   0  0  0  0  0  0  0  0  0  0  0  0
   17.8697   15.3324   20.6022 C   0  0  0  0  0  0  0  0  0  0  0  0
   17.0288   13.1142   20.4095 C   0  0  0  0  0  0  0  0  0  0  0  0
   18.2600   12.6940   19.9615 C   0  0  0  0  0  0  0  0  0  0  0  0
   16.8540   14.4311   20.7760 C   0  0  0  0  0  0  0  0  0  0  0  0
   14.5831   14.3965   19.5948 H   0  0  0  0  0  0  0  0  0  0  0  0
   13.6419   15.0268   20.5567 H   0  0  0  0  0  0  0  0  0  0  0  0
   19.6745   10.1028   18.8527 H   0  0  0  0  0  0  0  0  0  0  0  0
   20.3396   11.2822   19.6751 H   0  0  0  0  0  0  0  0  0  0  0  0
   19.7176   11.5654   18.2462 H   0  0  0  0  0  0  0  0  0  0  0  0
   19.7928   15.5875   19.9822 H   0  0  0  0  0  0  0  0  0  0  0  0
   20.1314   13.3335   19.4738 H   0  0  0  0  0  0  0  0  0  0  0  0
  1 10  1  0  0  0  0
  2 11  1  0  0  0  0
  3  9  2  0  0  0  0
  4  6  1  0  0  0  0
  4 12  1  0  0  0  0
  5  9  1  0  0  0  0
  5 14  1  0  0  0  0
  5 15  1  0  0  0  0
  6 16  1  0  0  0  0
  6 17  1  0  0  0  0
  6 18  1  0  0  0  0
  7  8  2  0  0  0  0
  7 10  1  0  0  0  0
  7 19  1  0  0  0  0
  8 12  1  0  0  0  0
  8 20  1  0  0  0  0
  9 13  1  0  0  0  0
 10 13  2  0  0  0  0
 11 12  2  0  0  0  0
 11 13  1  0  0  0  0
M  END
> <pdb_id>
6YD1

> <uniprot_id>
P0A031

> <usmiles>
Fc1c(OC)ccc(F)c1C(=O)N

$$$$
OMW_A_402
          07202415573D 1   1.00000     0.00000     0
            
 33 34  0  0  0  0            999 V2000
   17.6780   16.5940   20.7450 F   0  0  0  0  0  0  0  0  0  0  0  0
   15.9090   12.2060   20.4260 F   0  0  0  0  0  0  0  0  0  0  0  0
   22.6380    6.9190   17.8080 F   0  0  0  0  0  0  0  0  0  0  0  0
   22.4790    6.2830   19.9540 F   0  0  0  0  0  0  0  0  0  0  0  0
   21.5740    5.0450   18.3360 F   0  0  0  0  0  0  0  0  0  0  0  0
   15.3450   15.5180   22.0820 O   0  0  0  0  0  0  0  0  0  0  0  0
   18.2680   11.2460   19.5390 O   0  0  0  0  0  0  0  0  0  0  0  0
   14.3020   14.7160   20.1970 N   0  0  0  0  0  0  0  0  0  0  0  0
   19.5700   10.7620   19.3500 C   0  0  0  0  0  0  0  0  0  0  0  0
   18.1060    7.2460   18.9760 C   0  0  0  0  0  0  0  0  0  0  0  0
   19.1000   14.8350   19.9660 C   0  0  0  0  0  0  0  0  0  0  0  0
   18.1970    8.6290   19.1450 C   0  0  0  0  0  0  0  0  0  0  0  0
   19.2610   13.4850   19.6690 C   0  0  0  0  0  0  0  0  0  0  0  0
   19.2840    6.5090   18.8490 C   0  0  0  0  0  0  0  0  0  0  0  0
   20.6200    8.5000   19.0540 C   0  0  0  0  0  0  0  0  0  0  0  0
   15.4470   14.9300   21.0610 C   0  0  0  0  0  0  0  0  0  0  0  0
   17.8660   15.2820   20.4330 C   0  0  0  0  0  0  0  0  0  0  0  0
   16.9500   13.0750   20.2780 C   0  0  0  0  0  0  0  0  0  0  0  0
   18.1810   12.6070   19.8310 C   0  0  0  0  0  0  0  0  0  0  0  0
   19.4490    9.2460   19.1870 C   0  0  0  0  0  0  0  0  0  0  0  0
   20.5350    7.1270   18.8890 C   0  0  0  0  0  0  0  0  0  0  0  0
   16.8040   14.4070   20.5840 C   0  0  0  0  0  0  0  0  0  0  0  0
   21.8360    6.3180   18.7460 C   0  0  0  0  0  0  0  0  0  0  0  0
   14.4105   14.2160   19.3378 H   0  0  0  0  0  0  0  0  0  0  0  0
   13.4040   15.0685   20.4604 H   0  0  0  0  0  0  0  0  0  0  0  0
   20.1384   10.9801   20.1433 H   0  0  0  0  0  0  0  0  0  0  0  0
   19.9735   11.1668   18.5294 H   0  0  0  0  0  0  0  0  0  0  0  0
   17.2150    6.7930   18.9466 H   0  0  0  0  0  0  0  0  0  0  0  0
   19.8590   15.4749   19.8459 H   0  0  0  0  0  0  0  0  0  0  0  0
   17.3658    9.1775   19.2359 H   0  0  0  0  0  0  0  0  0  0  0  0
   20.1422   13.1435   19.3419 H   0  0  0  0  0  0  0  0  0  0  0  0
   19.2310    5.5179   18.7268 H   0  0  0  0  0  0  0  0  0  0  0  0
   21.5119    8.9516   19.0775 H   0  0  0  0  0  0  0  0  0  0  0  0
  1 17  1  0  0  0  0
  2 18  1  0  0  0  0
  3 23  1  0  0  0  0
  4 23  1  0  0  0  0
  5 23  1  0  0  0  0
  6 16  2  0  0  0  0
  7  9  1  0  0  0  0
  7 19  1  0  0  0  0
  8 16  1  0  0  0  0
  9 20  1  0  0  0  0
 10 12  1  0  0  0  0
 10 14  2  0  0  0  0
 11 13  2  0  0  0  0
 11 17  1  0  0  0  0
 12 20  2  0  0  0  0
 13 19  1  0  0  0  0
 14 21  1  0  0  0  0
 15 20  1  0  0  0  0
 15 21  2  0  0  0  0
 16 22  1  0  0  0  0
 17 22  2  0  0  0  0
 18 19  2  0  0  0  0
 18 22  1  0  0  0  0
 21 23  1  0  0  0  0
  8 24  1  0  0  0  0
  8 25  1  0  0  0  0
  9 26  1  0  0  0  0
  9 27  1  0  0  0  0
 10 28  1  0  0  0  0
 11 29  1  0  0  0  0
 12 30  1  0  0  0  0
 13 31  1  0  0  0  0
 14 32  1  0  0  0  0
 15 33  1  0  0  0  0
M  END
> <pdb_id>
6YD6

> <uniprot_id>
P0A031

> <usmiles>
Fc1c(OCc2cc(ccc2)C(F)(F)F)ccc(F)c1C(=O)N

$$$$
ONR_A_1554
          07202405383D 1   1.00000     0.00000     0
            
 19 20  0  0  0  0            999 V2000
   -5.9472    8.1106   26.4716 Cl  0  0  0  0  0  0  0  0  0  0  0  0
   -1.9660    8.4409   30.6794 O   0  0  0  0  0  0  0  0  0  0  0  0
   -2.6927   11.7274   28.2060 O   0  0  0  0  0  0  0  0  0  0  0  0
   -2.0673   12.9067   28.6071 N   0  0  0  0  0  0  0  0  0  0  0  0
   -1.4904   12.6217   29.7819 C   0  0  0  0  0  0  0  0  0  0  0  0
   -4.5143    7.0940   28.4916 C   0  0  0  0  0  0  0  0  0  0  0  0
   -3.5653    7.1827   29.4896 C   0  0  0  0  0  0  0  0  0  0  0  0
   -1.7411   11.2841   30.1735 C   0  0  0  0  0  0  0  0  0  0  0  0
   -4.1103    9.3932   27.9218 C   0  0  0  0  0  0  0  0  0  0  0  0
   -4.7683    8.2008   27.7101 C   0  0  0  0  0  0  0  0  0  0  0  0
   -2.8983    8.3755   29.6795 C   0  0  0  0  0  0  0  0  0  0  0  0
   -2.4881   10.7606   29.1451 C   0  0  0  0  0  0  0  0  0  0  0  0
   -3.1487    9.4931   28.9093 C   0  0  0  0  0  0  0  0  0  0  0  0
   -1.4659    9.2915   30.8419 H   0  0  0  0  0  0  0  0  0  0  0  0
   -0.9502   13.2723   30.3157 H   0  0  0  0  0  0  0  0  0  0  0  0
   -5.0104    6.2395   28.3376 H   0  0  0  0  0  0  0  0  0  0  0  0
   -3.3635    6.3923   30.0680 H   0  0  0  0  0  0  0  0  0  0  0  0
   -1.4420   10.8242   31.0096 H   0  0  0  0  0  0  0  0  0  0  0  0
   -4.3298   10.1896   27.3583 H   0  0  0  0  0  0  0  0  0  0  0  0
  1 10  1  0  0  0  0
  2 11  1  0  0  0  0
  3  4  1  0  0  0  0
  3 12  1  0  0  0  0
  4  5  2  0  0  0  0
  5  8  1  0  0  0  0
  6  7  1  0  0  0  0
  6 10  2  0  0  0  0
  7 11  2  0  0  0  0
  8 12  2  0  0  0  0
  9 10  1  0  0  0  0
  9 13  2  0  0  0  0
 11 13  1  0  0  0  0
 12 13  1  0  0  0  0
  2 14  1  0  0  0  0
  5 15  1  0  0  0  0
  6 16  1  0  0  0  0
  7 17  1  0  0  0  0
  8 18  1  0  0  0  0
  9 19  1  0  0  0  0
M  END
> <pdb_id>
5ALE

> <uniprot_id>
P34913

> <usmiles>
Clc1cc(c(O)cc1)C=2ON=CC2

$$$$
OOG_A_401
          07192420423D 1   1.00000     0.00000     0
            
 19 18  0  0  0  0            999 V2000
   13.2280  195.4030   85.4030 O   0  0  0  0  0  0  0  0  0  0  0  0
   12.4630  196.1390   87.4000 O   0  0  0  0  0  0  0  0  0  0  0  0
    7.4040  191.2670   84.5940 O   0  0  0  0  0  0  0  0  0  0  0  0
    5.9420  192.6960   83.7700 O   0  0  0  0  0  0  0  0  0  0  0  0
    7.5320  194.7870   84.4250 O   0  0  0  0  0  0  0  0  0  0  0  0
   10.0720  194.5930   85.6440 C   0  0  0  0  0  0  0  0  0  0  0  0
   11.3580  194.2010   86.3540 C   0  0  0  0  0  0  0  0  0  0  0  0
    9.1620  193.3750   85.4450 C   0  0  0  0  0  0  0  0  0  0  0  0
   12.4080  195.3290   86.3940 C   0  0  0  0  0  0  0  0  0  0  0  0
    7.0500  192.4510   84.2830 C   0  0  0  0  0  0  0  0  0  0  0  0
    7.9110  193.6220   84.6530 C   0  0  0  0  0  0  0  0  0  0  0  0
   13.1531  194.7577   84.6428 H   0  0  0  0  0  0  0  0  0  0  0  0
    8.3013  191.1050   85.0046 H   0  0  0  0  0  0  0  0  0  0  0  0
   10.2970  194.9827   84.7510 H   0  0  0  0  0  0  0  0  0  0  0  0
    9.5898  195.2753   86.1935 H   0  0  0  0  0  0  0  0  0  0  0  0
   11.7551  193.4159   85.8787 H   0  0  0  0  0  0  0  0  0  0  0  0
   11.1345  193.9434   87.2940 H   0  0  0  0  0  0  0  0  0  0  0  0
    8.8932  193.0410   86.3484 H   0  0  0  0  0  0  0  0  0  0  0  0
    9.6908  192.6698   84.9727 H   0  0  0  0  0  0  0  0  0  0  0  0
  1  9  1  0  0  0  0
  2  9  2  0  0  0  0
  3 10  1  0  0  0  0
  4 10  2  0  0  0  0
  5 11  2  0  0  0  0
  6  7  1  0  0  0  0
  6  8  1  0  0  0  0
  7  9  1  0  0  0  0
  8 11  1  0  0  0  0
 10 11  1  0  0  0  0
  1 12  1  0  0  0  0
  3 13  1  0  0  0  0
  6 14  1  0  0  0  0
  6 15  1  0  0  0  0
  7 16  1  0  0  0  0
  7 17  1  0  0  0  0
  8 18  1  0  0  0  0
  8 19  1  0  0  0  0
M  END
> <pdb_id>
5OEI

> <uniprot_id>
Q6N193

> <usmiles>
O=C(O)C(=O)CCCC(=O)O

$$$$
OP1_A_301
          07202417253D 1   1.00000     0.00000     0
            
 38 38  0  0  0  0            999 V2000
   57.9020    0.9690  -17.6475 O   0  0  0  0  0  0  0  0  0  0  0  0
   57.6476   -0.2364  -19.4427 O   0  0  0  0  0  0  0  0  0  0  0  0
   54.8661   -2.5418  -15.0115 O   0  0  0  0  0  0  0  0  0  0  0  0
   54.3523   -1.1185  -13.4286 O   0  0  0  0  0  0  0  0  0  0  0  0
   59.1306   -1.7884  -16.2385 O   0  0  0  0  0  0  0  0  0  0  0  0
   50.5359    0.8954  -19.2714 N   0  0  0  0  0  0  0  0  0  0  0  0
   50.6488    2.9300  -18.1727 N   0  0  0  0  0  0  0  0  0  0  0  0
   52.5560    1.5345  -18.1114 N   0  0  0  0  0  0  0  0  0  0  0  0
   56.8850   -0.9803  -16.0090 N   0  0  0  0  0  0  0  0  0  0  0  0
   53.2294    0.2805  -18.4061 C   0  0  0  0  0  0  0  0  0  0  0  0
   54.6199    0.2692  -17.8478 C   0  0  0  0  0  0  0  0  0  0  0  0
   55.2467   -1.1094  -17.8886 C   0  0  0  0  0  0  0  0  0  0  0  0
   58.2969   -1.0731  -14.0310 C   0  0  0  0  0  0  0  0  0  0  0  0
   57.0936   -0.2415  -13.7824 C   0  0  0  0  0  0  0  0  0  0  0  0
   51.1981    1.7623  -18.5257 C   0  0  0  0  0  0  0  0  0  0  0  0
   57.4653   -0.0578  -18.2152 C   0  0  0  0  0  0  0  0  0  0  0  0
   55.0636   -1.4130  -14.4461 C   0  0  0  0  0  0  0  0  0  0  0  0
   58.1107   -1.4203  -15.4501 C   0  0  0  0  0  0  0  0  0  0  0  0
   56.7073   -1.1304  -17.4610 C   0  0  1  0  0  0  0  0  0  0  0  0
   56.1291   -0.4586  -14.8879 C   0  0  2  0  0  0  0  0  0  0  0  0
   57.7509    1.1013  -16.6679 H   0  0  0  0  0  0  0  0  0  0  0  0
   55.4075   -2.8020  -15.8111 H   0  0  0  0  0  0  0  0  0  0  0  0
   50.9617    0.0272  -19.5261 H   0  0  0  0  0  0  0  0  0  0  0  0
   49.6091    1.1076  -19.5811 H   0  0  0  0  0  0  0  0  0  0  0  0
   51.1641    3.5745  -17.6078 H   0  0  0  0  0  0  0  0  0  0  0  0
   53.0449    2.2501  -17.6126 H   0  0  0  0  0  0  0  0  0  0  0  0
   53.2748    0.1596  -19.3977 H   0  0  0  0  0  0  0  0  0  0  0  0
   52.7094   -0.4720  -18.0020 H   0  0  0  0  0  0  0  0  0  0  0  0
   54.5872    0.5792  -16.8977 H   0  0  0  0  0  0  0  0  0  0  0  0
   55.1862    0.8955  -18.3835 H   0  0  0  0  0  0  0  0  0  0  0  0
   55.1868   -1.4558  -18.8248 H   0  0  0  0  0  0  0  0  0  0  0  0
   54.7302   -1.7092  -17.2776 H   0  0  0  0  0  0  0  0  0  0  0  0
   58.3059   -1.8882  -13.4517 H   0  0  0  0  0  0  0  0  0  0  0  0
   59.1388   -0.5529  -13.8877 H   0  0  0  0  0  0  0  0  0  0  0  0
   57.3530    0.7236  -13.7468 H   0  0  0  0  0  0  0  0  0  0  0  0
   56.6750   -0.5064  -12.9137 H   0  0  0  0  0  0  0  0  0  0  0  0
   57.0893   -2.0161  -17.7248 H   0  0  0  0  0  0  0  0  0  0  0  0
   55.7116    0.4135  -15.1432 H   0  0  0  0  0  0  0  0  0  0  0  0
  1 16  1  0  0  0  0
  2 16  2  0  0  0  0
  3 17  1  0  0  0  0
  4 17  2  0  0  0  0
  5 18  2  0  0  0  0
  6 15  1  0  0  0  0
  7 15  2  0  0  0  0
  8 10  1  0  0  0  0
  8 15  1  0  0  0  0
  9 18  1  0  0  0  0
  9 19  1  0  0  0  0
  9 20  1  0  0  0  0
 10 11  1  0  0  0  0
 11 12  1  0  0  0  0
 12 19  1  0  0  0  0
 13 14  1  0  0  0  0
 13 18  1  0  0  0  0
 14 20  1  0  0  0  0
 16 19  1  0  0  0  0
 17 20  1  0  0  0  0
  1 21  1  0  0  0  0
  3 22  1  0  0  0  0
  6 23  1  0  0  0  0
  6 24  1  0  0  0  0
  7 25  1  0  0  0  0
  8 26  1  0  0  0  0
 10 27  1  0  0  0  0
 10 28  1  0  0  0  0
 11 29  1  0  0  0  0
 11 30  1  0  0  0  0
 12 31  1  0  0  0  0
 12 32  1  0  0  0  0
 13 33  1  0  0  0  0
 13 34  1  0  0  0  0
 14 35  1  0  0  0  0
 14 36  1  0  0  0  0
 19 37  1  0  0  0  0
 20 38  1  0  0  0  0
M  END
> <pdb_id>
4PP0

> <uniprot_id>
P35120

> <usmiles>
O=C(O)[C@@H]1N(C(=O)CC1)[C@H](C(=O)O)CCCNC(=N)N

$$$$
OP1_A_303
          07202417243D 1   1.00000     0.00000     0
            
 38 38  0  0  0  0            999 V2000
    2.3190   16.5140    4.0120 O   0  0  0  0  0  0  0  0  0  0  0  0
    1.2100   18.0940    2.9220 O   0  0  0  0  0  0  0  0  0  0  0  0
    5.9990   19.6060    1.2410 O   0  0  0  0  0  0  0  0  0  0  0  0
    5.8640   21.7570    1.4910 O   0  0  0  0  0  0  0  0  0  0  0  0
    2.8840   17.3690    0.2630 O   0  0  0  0  0  0  0  0  0  0  0  0
    2.9350   22.9470    8.2860 N   0  0  0  0  0  0  0  0  0  0  0  0
    4.6850   21.4410    8.6750 N   0  0  0  0  0  0  0  0  0  0  0  0
    3.2780   21.2540    6.7290 N   0  0  0  0  0  0  0  0  0  0  0  0
    3.4440   19.1650    1.8200 N   0  0  0  0  0  0  0  0  0  0  0  0
    4.0440   20.1050    6.2120 C   0  0  0  0  0  0  0  0  0  0  0  0
    3.3640   19.6380    4.9860 C   0  0  0  0  0  0  0  0  0  0  0  0
    4.2630   18.8010    4.1560 C   0  0  0  0  0  0  0  0  0  0  0  0
    2.9710   19.7560   -0.4650 C   0  0  0  0  0  0  0  0  0  0  0  0
    3.1700   20.9910    0.3660 C   0  0  0  0  0  0  0  0  0  0  0  0
    3.6790   21.8850    7.9520 C   0  0  0  0  0  0  0  0  0  0  0  0
    2.3030   17.5440    3.2890 C   0  0  0  0  0  0  0  0  0  0  0  0
    5.2910   20.6450    1.4570 C   0  0  0  0  0  0  0  0  0  0  0  0
    2.8980   18.6940    0.5760 C   0  0  0  0  0  0  0  0  0  0  0  0
    3.6270   18.2040    2.9130 C   0  0  1  0  0  0  0  0  0  0  0  0
    3.8300   20.5530    1.6260 C   0  0  2  0  0  0  0  0  0  0  0  0
    3.1912   16.1066    4.2827 H   0  0  0  0  0  0  0  0  0  0  0  0
    5.5672   18.7046    1.2086 H   0  0  0  0  0  0  0  0  0  0  0  0
    2.1825   23.2363    7.6944 H   0  0  0  0  0  0  0  0  0  0  0  0
    3.1319   23.4509    9.1270 H   0  0  0  0  0  0  0  0  0  0  0  0
    5.2038   20.6415    8.3723 H   0  0  0  0  0  0  0  0  0  0  0  0
    2.4813   21.5920    6.2280 H   0  0  0  0  0  0  0  0  0  0  0  0
    4.0632   19.3726    6.8926 H   0  0  0  0  0  0  0  0  0  0  0  0
    4.9796   20.3860    5.9983 H   0  0  0  0  0  0  0  0  0  0  0  0
    3.0736   20.4321    4.4521 H   0  0  0  0  0  0  0  0  0  0  0  0
    2.5625   19.0983    5.2437 H   0  0  0  0  0  0  0  0  0  0  0  0
    4.5971   18.0489    4.7241 H   0  0  0  0  0  0  0  0  0  0  0  0
    5.0341   19.3683    3.8668 H   0  0  0  0  0  0  0  0  0  0  0  0
    3.7418   19.6061   -1.0841 H   0  0  0  0  0  0  0  0  0  0  0  0
    2.1237   19.8060   -0.9937 H   0  0  0  0  0  0  0  0  0  0  0  0
    2.2880   21.4167    0.5683 H   0  0  0  0  0  0  0  0  0  0  0  0
    3.7517   21.6437   -0.1195 H   0  0  0  0  0  0  0  0  0  0  0  0
    4.2367   17.4845    2.5805 H   0  0  0  0  0  0  0  0  0  0  0  0
    3.5278   21.1144    2.3964 H   0  0  0  0  0  0  0  0  0  0  0  0
  1 16  1  0  0  0  0
  2 16  2  0  0  0  0
  3 17  1  0  0  0  0
  4 17  2  0  0  0  0
  5 18  2  0  0  0  0
  6 15  1  0  0  0  0
  7 15  2  0  0  0  0
  8 10  1  0  0  0  0
  8 15  1  0  0  0  0
  9 18  1  0  0  0  0
  9 19  1  0  0  0  0
  9 20  1  0  0  0  0
 10 11  1  0  0  0  0
 11 12  1  0  0  0  0
 12 19  1  0  0  0  0
 13 14  1  0  0  0  0
 13 18  1  0  0  0  0
 14 20  1  0  0  0  0
 16 19  1  0  0  0  0
 17 20  1  0  0  0  0
  1 21  1  0  0  0  0
  3 22  1  0  0  0  0
  6 23  1  0  0  0  0
  6 24  1  0  0  0  0
  7 25  1  0  0  0  0
  8 26  1  0  0  0  0
 10 27  1  0  0  0  0
 10 28  1  0  0  0  0
 11 29  1  0  0  0  0
 11 30  1  0  0  0  0
 12 31  1  0  0  0  0
 12 32  1  0  0  0  0
 13 33  1  0  0  0  0
 13 34  1  0  0  0  0
 14 35  1  0  0  0  0
 14 36  1  0  0  0  0
 19 37  1  0  0  0  0
 20 38  1  0  0  0  0
M  END
> <pdb_id>
4POW

> <uniprot_id>
P35120

> <usmiles>
O=C(O)[C@@H]1N(C(=O)CC1)[C@H](C(=O)O)CCCNC(=N)N

$$$$
OP1_B_301
          07202417243D 1   1.00000     0.00000     0
            
 40 40  0  0  0  0            999 V2000
    2.2594   16.6363    4.1420 O   0  0  0  0  0  0  0  0  0  0  0  0
    1.1297   18.2080    3.0764 O   0  0  0  0  0  0  0  0  0  0  0  0
    5.8621   21.8015    1.5710 O   0  0  0  0  0  0  0  0  0  0  0  0
    6.0340   19.6517    1.3415 O   0  0  0  0  0  0  0  0  0  0  0  0
    2.4992   17.5839    0.4431 O   0  0  0  0  0  0  0  0  0  0  0  0
    2.9120   23.0005    8.5308 N   0  0  0  0  0  0  0  0  0  0  0  0
    4.7578   21.5581    8.7477 N   0  0  0  0  0  0  0  0  0  0  0  0
    3.2273   21.3333    6.8955 N   0  0  0  0  0  0  0  0  0  0  0  0
    3.3776   19.2495    1.8926 N   0  0  0  0  0  0  0  0  0  0  0  0
    3.9921   20.2282    6.3055 C   0  0  0  0  0  0  0  0  0  0  0  0
    3.3859   19.7752    5.0264 C   0  0  0  0  0  0  0  0  0  0  0  0
    4.2086   18.8397    4.2264 C   0  0  0  0  0  0  0  0  0  0  0  0
    2.7256   19.8538   -0.3039 C   0  0  0  0  0  0  0  0  0  0  0  0
    3.1127   21.0738    0.4533 C   0  0  0  0  0  0  0  0  0  0  0  0
    3.6775   21.9761    8.1140 C   0  0  0  0  0  0  0  0  0  0  0  0
    2.2211   17.6660    3.4227 C   0  0  0  0  0  0  0  0  0  0  0  0
    5.2972   20.6869    1.5104 C   0  0  0  0  0  0  0  0  0  0  0  0
    3.2019   18.7333    0.5647 C   0  0  2  0  0  0  0  0  0  0  0  0
    3.5487   18.2768    2.9866 C   0  0  1  0  0  0  0  0  0  0  0  0
    3.8352   20.6089    1.6766 C   0  0  2  0  0  0  0  0  0  0  0  0
    3.1399   16.2359    4.3956 H   0  0  0  0  0  0  0  0  0  0  0  0
    5.3189   22.6308    1.7021 H   0  0  0  0  0  0  0  0  0  0  0  0
    2.4450   17.3268   -0.5217 H   0  0  0  0  0  0  0  0  0  0  0  0
    2.1050   23.2682    8.0044 H   0  0  0  0  0  0  0  0  0  0  0  0
    3.1499   23.4944    9.3672 H   0  0  0  0  0  0  0  0  0  0  0  0
    5.2844   20.7893    8.3847 H   0  0  0  0  0  0  0  0  0  0  0  0
    2.3872   21.6459    6.4523 H   0  0  0  0  0  0  0  0  0  0  0  0
    4.0067   19.4623    6.9484 H   0  0  0  0  0  0  0  0  0  0  0  0
    4.9277   20.5355    6.1319 H   0  0  0  0  0  0  0  0  0  0  0  0
    3.2076   20.5844    4.4665 H   0  0  0  0  0  0  0  0  0  0  0  0
    2.5213   19.3202    5.2394 H   0  0  0  0  0  0  0  0  0  0  0  0
    4.4601   18.0718    4.8155 H   0  0  0  0  0  0  0  0  0  0  0  0
    5.0348   19.3252    3.9406 H   0  0  0  0  0  0  0  0  0  0  0  0
    3.1762   19.8298   -1.1963 H   0  0  0  0  0  0  0  0  0  0  0  0
    1.7345   19.8114   -0.4296 H   0  0  0  0  0  0  0  0  0  0  0  0
    2.2976   21.5927    0.7108 H   0  0  0  0  0  0  0  0  0  0  0  0
    3.7121   21.6491   -0.1033 H   0  0  0  0  0  0  0  0  0  0  0  0
    4.1225   18.5177    0.2393 H   0  0  0  0  0  0  0  0  0  0  0  0
    4.1264   17.5352    2.6456 H   0  0  0  0  0  0  0  0  0  0  0  0
    3.5623   21.1750    2.4544 H   0  0  0  0  0  0  0  0  0  0  0  0
  1 16  1  0  0  0  0
  2 16  2  0  0  0  0
  3 17  1  0  0  0  0
  4 17  2  0  0  0  0
  5 18  1  0  0  0  0
  6 15  1  0  0  0  0
  7 15  2  0  0  0  0
  8 10  1  0  0  0  0
  8 15  1  0  0  0  0
  9 18  1  0  0  0  0
  9 19  1  0  0  0  0
  9 20  1  0  0  0  0
 10 11  1  0  0  0  0
 11 12  1  0  0  0  0
 12 19  1  0  0  0  0
 13 14  1  0  0  0  0
 13 18  1  0  0  0  0
 14 20  1  0  0  0  0
 16 19  1  0  0  0  0
 17 20  1  0  0  0  0
  1 21  1  0  0  0  0
  3 22  1  0  0  0  0
  5 23  1  0  0  0  0
  6 24  1  0  0  0  0
  6 25  1  0  0  0  0
  7 26  1  0  0  0  0
  8 27  1  0  0  0  0
 10 28  1  0  0  0  0
 10 29  1  0  0  0  0
 11 30  1  0  0  0  0
 11 31  1  0  0  0  0
 12 32  1  0  0  0  0
 12 33  1  0  0  0  0
 13 34  1  0  0  0  0
 13 35  1  0  0  0  0
 14 36  1  0  0  0  0
 14 37  1  0  0  0  0
 18 38  1  0  0  0  0
 19 39  1  0  0  0  0
 20 40  1  0  0  0  0
M  END
> <pdb_id>
4POW

> <uniprot_id>
P35120

> <usmiles>
O=C(O)[C@@H]1N([C@@H](O)CC1)[C@H](C(=O)O)CCCNC(=N)N

$$$$
OP1_B_301
          07202417253D 1   1.00000     0.00000     0
            
 40 40  0  0  0  0            999 V2000
   57.8450    1.0730  -17.6930 O   0  0  0  0  0  0  0  0  0  0  0  0
   57.6500   -0.1630  -19.4750 O   0  0  0  0  0  0  0  0  0  0  0  0
   54.9080   -2.4900  -15.0270 O   0  0  0  0  0  0  0  0  0  0  0  0
   54.3470   -1.0320  -13.4900 O   0  0  0  0  0  0  0  0  0  0  0  0
   59.1550   -1.6810  -16.2330 O   0  0  0  0  0  0  0  0  0  0  0  0
   50.5220    0.8670  -19.2200 N   0  0  0  0  0  0  0  0  0  0  0  0
   50.6360    3.0200  -18.3050 N   0  0  0  0  0  0  0  0  0  0  0  0
   52.5320    1.5530  -18.1520 N   0  0  0  0  0  0  0  0  0  0  0  0
   56.9560   -0.9020  -15.9980 N   0  0  0  0  0  0  0  0  0  0  0  0
   53.1930    0.2920  -18.3840 C   0  0  0  0  0  0  0  0  0  0  0  0
   54.6130    0.2600  -17.8880 C   0  0  0  0  0  0  0  0  0  0  0  0
   55.3000   -1.0940  -17.8790 C   0  0  0  0  0  0  0  0  0  0  0  0
   58.3550   -1.0850  -14.0940 C   0  0  0  0  0  0  0  0  0  0  0  0
   57.2020   -0.2060  -13.7970 C   0  0  0  0  0  0  0  0  0  0  0  0
   51.1780    1.8140  -18.5770 C   0  0  0  0  0  0  0  0  0  0  0  0
   57.4840    0.0140  -18.2560 C   0  0  0  0  0  0  0  0  0  0  0  0
   55.1080   -1.3690  -14.4500 C   0  0  0  0  0  0  0  0  0  0  0  0
   58.0580   -1.6520  -15.4320 C   0  0  2  0  0  0  0  0  0  0  0  0
   56.7510   -1.0630  -17.4440 C   0  0  1  0  0  0  0  0  0  0  0  0
   56.2120   -0.4250  -14.8580 C   0  0  2  0  0  0  0  0  0  0  0  0
   57.7004    1.1914  -16.7106 H   0  0  0  0  0  0  0  0  0  0  0  0
   55.4955   -2.7742  -15.7846 H   0  0  0  0  0  0  0  0  0  0  0  0
   59.8777   -2.2110  -15.7894 H   0  0  0  0  0  0  0  0  0  0  0  0
   50.9626   -0.0124  -19.4003 H   0  0  0  0  0  0  0  0  0  0  0  0
   49.5841    1.0286  -19.5271 H   0  0  0  0  0  0  0  0  0  0  0  0
   51.1698    3.7090  -17.8147 H   0  0  0  0  0  0  0  0  0  0  0  0
   53.0330    2.2764  -17.6769 H   0  0  0  0  0  0  0  0  0  0  0  0
   53.1970    0.1128  -19.3678 H   0  0  0  0  0  0  0  0  0  0  0  0
   52.6779   -0.4264  -17.9164 H   0  0  0  0  0  0  0  0  0  0  0  0
   54.6146    0.6072  -16.9502 H   0  0  0  0  0  0  0  0  0  0  0  0
   55.1514    0.8694  -18.4700 H   0  0  0  0  0  0  0  0  0  0  0  0
   55.2600   -1.4701  -18.8047 H   0  0  0  0  0  0  0  0  0  0  0  0
   54.7998   -1.6932  -17.2539 H   0  0  0  0  0  0  0  0  0  0  0  0
   58.4300   -1.8118  -13.4113 H   0  0  0  0  0  0  0  0  0  0  0  0
   59.2046   -0.5580  -14.1145 H   0  0  0  0  0  0  0  0  0  0  0  0
   57.4923    0.7509  -13.7902 H   0  0  0  0  0  0  0  0  0  0  0  0
   56.8103   -0.4419  -12.9076 H   0  0  0  0  0  0  0  0  0  0  0  0
   57.7504   -2.5946  -15.3022 H   0  0  0  0  0  0  0  0  0  0  0  0
   57.1509   -1.9433  -17.6991 H   0  0  0  0  0  0  0  0  0  0  0  0
   55.8026    0.4562  -15.0945 H   0  0  0  0  0  0  0  0  0  0  0  0
  1 16  1  0  0  0  0
  2 16  2  0  0  0  0
  3 17  1  0  0  0  0
  4 17  2  0  0  0  0
  5 18  1  0  0  0  0
  6 15  1  0  0  0  0
  7 15  2  0  0  0  0
  8 10  1  0  0  0  0
  8 15  1  0  0  0  0
  9 18  1  0  0  0  0
  9 19  1  0  0  0  0
  9 20  1  0  0  0  0
 10 11  1  0  0  0  0
 11 12  1  0  0  0  0
 12 19  1  0  0  0  0
 13 14  1  0  0  0  0
 13 18  1  0  0  0  0
 14 20  1  0  0  0  0
 16 19  1  0  0  0  0
 17 20  1  0  0  0  0
  1 21  1  0  0  0  0
  3 22  1  0  0  0  0
  5 23  1  0  0  0  0
  6 24  1  0  0  0  0
  6 25  1  0  0  0  0
  7 26  1  0  0  0  0
  8 27  1  0  0  0  0
 10 28  1  0  0  0  0
 10 29  1  0  0  0  0
 11 30  1  0  0  0  0
 11 31  1  0  0  0  0
 12 32  1  0  0  0  0
 12 33  1  0  0  0  0
 13 34  1  0  0  0  0
 13 35  1  0  0  0  0
 14 36  1  0  0  0  0
 14 37  1  0  0  0  0
 18 38  1  0  0  0  0
 19 39  1  0  0  0  0
 20 40  1  0  0  0  0
M  END
> <pdb_id>
4PP0

> <uniprot_id>
P35120

> <usmiles>
O=C(O)[C@@H]1N([C@@H](O)CC1)[C@H](C(=O)O)CCCNC(=N)N

$$$$
OS2_A_307
          07202404323D 1   1.00000     0.00000     0
            
 41 43  0  0  0  0            999 V2000
   64.6755  -13.6599    8.9182 S   0  0  0  0  0  0  0  0  0  0  0  0
   61.3287  -17.2842   10.4602 O   0  0  0  0  0  0  0  0  0  0  0  0
   64.7374  -18.3035    1.8739 N   0  0  0  0  0  0  0  0  0  0  0  0
   63.8585  -19.8111    3.4735 N   0  0  0  0  0  0  0  0  0  0  0  0
   62.3813  -19.1956    5.1989 N   0  0  0  0  0  0  0  0  0  0  0  0
   63.0993  -16.1827    3.4457 N   0  0  0  0  0  0  0  0  0  0  0  0
   61.2585  -16.4929    7.7181 N   0  0  0  0  0  0  0  0  0  0  0  0
   65.3172  -13.6611   12.6536 C   0  0  0  0  0  0  0  0  0  0  0  0
   64.1293  -12.8341   10.3401 C   0  0  0  0  0  0  0  0  0  0  0  0
   64.2696  -15.3661    9.2500 C   0  0  0  0  0  0  0  0  0  0  0  0
   63.0859  -20.0942    4.5148 C   0  0  0  0  0  0  0  0  0  0  0  0
   62.2354  -15.7373    4.3763 C   0  0  0  0  0  0  0  0  0  0  0  0
   62.0624  -17.6284    8.2167 C   0  0  0  0  0  0  0  0  0  0  0  0
   62.0531  -15.2875    8.0222 C   0  0  0  0  0  0  0  0  0  0  0  0
   60.8279  -16.6167    6.3310 C   0  0  0  0  0  0  0  0  0  0  0  0
   64.7441  -13.2566   11.5869 C   0  0  0  0  0  0  0  0  0  0  0  0
   63.9788  -18.5786    2.9361 C   0  0  0  0  0  0  0  0  0  0  0  0
   62.4427  -17.0977    9.5842 C   0  0  1  0  0  0  0  0  0  0  0  0
   63.2695  -17.5181    3.6042 C   0  0  0  0  0  0  0  0  0  0  0  0
   62.4655  -17.9406    4.7343 C   0  0  0  0  0  0  0  0  0  0  0  0
   62.7610  -15.6227    9.3377 C   0  0  1  0  0  0  0  0  0  0  0  0
   61.8379  -16.7203    5.2316 C   0  0  0  0  0  0  0  0  0  0  0  0
   61.5590  -16.9398   11.3703 H   0  0  0  0  0  0  0  0  0  0  0  0
   64.7853  -17.3686    1.5222 H   0  0  0  0  0  0  0  0  0  0  0  0
   65.2582  -19.0323    1.4292 H   0  0  0  0  0  0  0  0  0  0  0  0
   63.5441  -15.6194    2.7494 H   0  0  0  0  0  0  0  0  0  0  0  0
   65.7662  -13.9779   13.4891 H   0  0  0  0  0  0  0  0  0  0  0  0
   63.1428  -12.9777   10.4194 H   0  0  0  0  0  0  0  0  0  0  0  0
   64.3156  -11.8589   10.2202 H   0  0  0  0  0  0  0  0  0  0  0  0
   64.6876  -15.6288   10.1196 H   0  0  0  0  0  0  0  0  0  0  0  0
   64.6458  -15.9308    8.5154 H   0  0  0  0  0  0  0  0  0  0  0  0
   63.0292  -21.0492    4.8058 H   0  0  0  0  0  0  0  0  0  0  0  0
   61.9201  -14.7901    4.4336 H   0  0  0  0  0  0  0  0  0  0  0  0
   62.8664  -17.7935    7.6455 H   0  0  0  0  0  0  0  0  0  0  0  0
   61.5212  -18.4668    8.2809 H   0  0  0  0  0  0  0  0  0  0  0  0
   61.4595  -14.4904    8.1326 H   0  0  0  0  0  0  0  0  0  0  0  0
   62.7186  -15.1097    7.2972 H   0  0  0  0  0  0  0  0  0  0  0  0
   60.2679  -15.8125    6.1315 H   0  0  0  0  0  0  0  0  0  0  0  0
   60.2612  -17.4389    6.2787 H   0  0  0  0  0  0  0  0  0  0  0  0
   63.2479  -17.5762    9.9344 H   0  0  0  0  0  0  0  0  0  0  0  0
   62.3718  -15.0706   10.0750 H   0  0  0  0  0  0  0  0  0  0  0  0
  1  9  1  0  0  0  0
  1 10  1  0  0  0  0
  2 18  1  0  0  0  0
  3 17  1  0  0  0  0
  4 11  1  0  0  0  0
  4 17  2  0  0  0  0
  5 11  2  0  0  0  0
  5 20  1  0  0  0  0
  6 12  1  0  0  0  0
  6 19  1  0  0  0  0
  7 13  1  0  0  0  0
  7 14  1  0  0  0  0
  7 15  1  0  0  0  0
  8 16  3  0  0  0  0
  9 16  1  0  0  0  0
 10 21  1  0  0  0  0
 12 22  2  0  0  0  0
 13 18  1  0  0  0  0
 14 21  1  0  0  0  0
 15 22  1  0  0  0  0
 17 19  1  0  0  0  0
 18 21  1  0  0  0  0
 19 20  2  0  0  0  0
 20 22  1  0  0  0  0
  2 23  1  0  0  0  0
  3 24  1  0  0  0  0
  3 25  1  0  0  0  0
  6 26  1  0  0  0  0
  8 27  1  0  0  0  0
  9 28  1  0  0  0  0
  9 29  1  0  0  0  0
 10 30  1  0  0  0  0
 10 31  1  0  0  0  0
 11 32  1  0  0  0  0
 12 33  1  0  0  0  0
 13 34  1  0  0  0  0
 13 35  1  0  0  0  0
 14 36  1  0  0  0  0
 14 37  1  0  0  0  0
 15 38  1  0  0  0  0
 15 39  1  0  0  0  0
 18 40  1  0  0  0  0
 21 41  1  0  0  0  0
M  END
> <pdb_id>
6DYZ

> <uniprot_id>
Q13126

> <usmiles>
S(CC#C)C[C@@H]1[C@@H](O)CN(CC=2c3ncnc(N)c3NC2)C1

$$$$
OS2_B_309
          07212402473D 1   1.00000     0.00000     0
            
 41 43  0  0  0  0            999 V2000
  -33.6975  -35.6720  -57.3629 S   0  0  0  0  0  0  0  0  0  0  0  0
  -29.6704  -36.9242  -55.9037 O   0  0  0  0  0  0  0  0  0  0  0  0
  -32.9848  -28.2231  -55.3207 N   0  0  0  0  0  0  0  0  0  0  0  0
  -32.9314  -29.9901  -53.7480 N   0  0  0  0  0  0  0  0  0  0  0  0
  -31.3448  -31.7640  -53.9341 N   0  0  0  0  0  0  0  0  0  0  0  0
  -30.6429  -29.6627  -56.6929 N   0  0  0  0  0  0  0  0  0  0  0  0
  -29.2861  -34.1331  -56.0979 N   0  0  0  0  0  0  0  0  0  0  0  0
  -35.8197  -37.7331  -59.4568 C   0  0  0  0  0  0  0  0  0  0  0  0
  -33.6907  -36.0815  -59.1109 C   0  0  0  0  0  0  0  0  0  0  0  0
  -32.3589  -34.5802  -57.2056 C   0  0  0  0  0  0  0  0  0  0  0  0
  -32.3802  -31.1552  -53.3278 C   0  0  0  0  0  0  0  0  0  0  0  0
  -29.7195  -30.6277  -56.8996 C   0  0  0  0  0  0  0  0  0  0  0  0
  -30.1414  -34.7392  -55.0549 C   0  0  0  0  0  0  0  0  0  0  0  0
  -29.9535  -34.3128  -57.4021 C   0  0  0  0  0  0  0  0  0  0  0  0
  -28.8314  -32.7800  -55.8326 C   0  0  0  0  0  0  0  0  0  0  0  0
  -34.8144  -36.9787  -59.3298 C   0  0  0  0  0  0  0  0  0  0  0  0
  -32.4698  -29.3744  -54.8665 C   0  0  0  0  0  0  0  0  0  0  0  0
  -30.7074  -35.9402  -55.7994 C   0  0  1  0  0  0  0  0  0  0  0  0
  -31.3509  -29.9588  -55.5825 C   0  0  0  0  0  0  0  0  0  0  0  0
  -30.8362  -31.1963  -55.0406 C   0  0  0  0  0  0  0  0  0  0  0  0
  -31.0509  -35.3282  -57.1502 C   0  0  1  0  0  0  0  0  0  0  0  0
  -29.7678  -31.6193  -55.9434 C   0  0  0  0  0  0  0  0  0  0  0  0
  -30.0188  -37.7253  -56.3904 H   0  0  0  0  0  0  0  0  0  0  0  0
  -32.6153  -27.8024  -56.1492 H   0  0  0  0  0  0  0  0  0  0  0  0
  -33.7385  -27.7848  -54.8309 H   0  0  0  0  0  0  0  0  0  0  0  0
  -30.7797  -28.8579  -57.2704 H   0  0  0  0  0  0  0  0  0  0  0  0
  -36.6155  -38.3302  -59.5574 H   0  0  0  0  0  0  0  0  0  0  0  0
  -32.8338  -36.5349  -59.3561 H   0  0  0  0  0  0  0  0  0  0  0  0
  -33.7984  -35.2528  -59.6602 H   0  0  0  0  0  0  0  0  0  0  0  0
  -32.4674  -34.0496  -56.3649 H   0  0  0  0  0  0  0  0  0  0  0  0
  -32.3482  -33.9616  -57.9912 H   0  0  0  0  0  0  0  0  0  0  0  0
  -32.7681  -31.5901  -52.5151 H   0  0  0  0  0  0  0  0  0  0  0  0
  -29.0726  -30.6229  -57.6622 H   0  0  0  0  0  0  0  0  0  0  0  0
  -30.8652  -34.1131  -54.7649 H   0  0  0  0  0  0  0  0  0  0  0  0
  -29.6053  -35.0205  -54.2590 H   0  0  0  0  0  0  0  0  0  0  0  0
  -29.3066  -34.6570  -58.0826 H   0  0  0  0  0  0  0  0  0  0  0  0
  -30.3422  -33.4478  -57.7193 H   0  0  0  0  0  0  0  0  0  0  0  0
  -28.0807  -32.6020  -56.4689 H   0  0  0  0  0  0  0  0  0  0  0  0
  -28.4821  -32.7757  -54.8955 H   0  0  0  0  0  0  0  0  0  0  0  0
  -31.5187  -36.3069  -55.3441 H   0  0  0  0  0  0  0  0  0  0  0  0
  -31.0315  -36.0337  -57.8587 H   0  0  0  0  0  0  0  0  0  0  0  0
  1  9  1  0  0  0  0
  1 10  1  0  0  0  0
  2 18  1  0  0  0  0
  3 17  1  0  0  0  0
  4 11  1  0  0  0  0
  4 17  2  0  0  0  0
  5 11  2  0  0  0  0
  5 20  1  0  0  0  0
  6 12  1  0  0  0  0
  6 19  1  0  0  0  0
  7 13  1  0  0  0  0
  7 14  1  0  0  0  0
  7 15  1  0  0  0  0
  8 16  3  0  0  0  0
  9 16  1  0  0  0  0
 10 21  1  0  0  0  0
 12 22  2  0  0  0  0
 13 18  1  0  0  0  0
 14 21  1  0  0  0  0
 15 22  1  0  0  0  0
 17 19  1  0  0  0  0
 18 21  1  0  0  0  0
 19 20  2  0  0  0  0
 20 22  1  0  0  0  0
  2 23  1  0  0  0  0
  3 24  1  0  0  0  0
  3 25  1  0  0  0  0
  6 26  1  0  0  0  0
  8 27  1  0  0  0  0
  9 28  1  0  0  0  0
  9 29  1  0  0  0  0
 10 30  1  0  0  0  0
 10 31  1  0  0  0  0
 11 32  1  0  0  0  0
 12 33  1  0  0  0  0
 13 34  1  0  0  0  0
 13 35  1  0  0  0  0
 14 36  1  0  0  0  0
 14 37  1  0  0  0  0
 15 38  1  0  0  0  0
 15 39  1  0  0  0  0
 18 40  1  0  0  0  0
 21 41  1  0  0  0  0
M  END
> <pdb_id>
6DYU

> <uniprot_id>
nan

> <usmiles>
S(CC#C)C[C@@H]1[C@@H](O)CN(CC=2c3ncnc(N)c3NC2)C1

$$$$
OS3_A_307
          07202404323D 1   1.00000     0.00000     0
            
 47 49  0  0  0  0            999 V2000
   64.6289  -13.7632    8.7752 S   0  0  0  0  0  0  0  0  0  0  0  0
   61.3090  -17.3196   10.5019 O   0  0  0  0  0  0  0  0  0  0  0  0
   64.7553  -18.2605    1.8979 N   0  0  0  0  0  0  0  0  0  0  0  0
   63.9162  -19.8367    3.4825 N   0  0  0  0  0  0  0  0  0  0  0  0
   62.3741  -19.2194    5.2040 N   0  0  0  0  0  0  0  0  0  0  0  0
   63.0600  -16.1823    3.4380 N   0  0  0  0  0  0  0  0  0  0  0  0
   61.1776  -16.5846    7.7344 N   0  0  0  0  0  0  0  0  0  0  0  0
   67.1444  -13.6813   13.4871 C   0  0  0  0  0  0  0  0  0  0  0  0
   65.1473  -13.0049   10.2651 C   0  0  0  0  0  0  0  0  0  0  0  0
   64.1754  -15.4494    9.1681 C   0  0  0  0  0  0  0  0  0  0  0  0
   63.1179  -20.1220    4.5371 C   0  0  0  0  0  0  0  0  0  0  0  0
   62.1746  -15.7249    4.3613 C   0  0  0  0  0  0  0  0  0  0  0  0
   62.0588  -17.6917    8.2077 C   0  0  0  0  0  0  0  0  0  0  0  0
   61.9279  -15.3429    8.0212 C   0  0  0  0  0  0  0  0  0  0  0  0
   60.7492  -16.6703    6.3443 C   0  0  0  0  0  0  0  0  0  0  0  0
   66.0594  -13.1022   13.1541 C   0  0  0  0  0  0  0  0  0  0  0  0
   64.2779  -13.2261   11.4821 C   0  0  0  0  0  0  0  0  0  0  0  0
   64.8411  -12.4340   12.6731 C   0  0  0  0  0  0  0  0  0  0  0  0
   64.0090  -18.5773    2.9839 C   0  0  0  0  0  0  0  0  0  0  0  0
   62.4089  -17.1681    9.5802 C   0  0  1  0  0  0  0  0  0  0  0  0
   63.2346  -17.5404    3.6203 C   0  0  0  0  0  0  0  0  0  0  0  0
   62.4306  -17.9403    4.7501 C   0  0  0  0  0  0  0  0  0  0  0  0
   62.6833  -15.6797    9.3169 C   0  0  1  0  0  0  0  0  0  0  0  0
   61.7487  -16.7407    5.2197 C   0  0  0  0  0  0  0  0  0  0  0  0
   61.5738  -16.9641   11.3983 H   0  0  0  0  0  0  0  0  0  0  0  0
   64.7884  -17.3156    1.5723 H   0  0  0  0  0  0  0  0  0  0  0  0
   65.2729  -18.9717    1.4222 H   0  0  0  0  0  0  0  0  0  0  0  0
   63.5117  -15.6264    2.7402 H   0  0  0  0  0  0  0  0  0  0  0  0
   67.9960  -14.1359   13.7485 H   0  0  0  0  0  0  0  0  0  0  0  0
   65.1944  -12.0194   10.1023 H   0  0  0  0  0  0  0  0  0  0  0  0
   66.0606  -13.3515   10.4789 H   0  0  0  0  0  0  0  0  0  0  0  0
   64.6177  -15.6995   10.0294 H   0  0  0  0  0  0  0  0  0  0  0  0
   64.5117  -16.0421    8.4362 H   0  0  0  0  0  0  0  0  0  0  0  0
   63.0773  -21.0730    4.8436 H   0  0  0  0  0  0  0  0  0  0  0  0
   61.8653  -14.7757    4.4193 H   0  0  0  0  0  0  0  0  0  0  0  0
   62.8691  -17.7952    7.6308 H   0  0  0  0  0  0  0  0  0  0  0  0
   61.5698  -18.5627    8.2550 H   0  0  0  0  0  0  0  0  0  0  0  0
   61.3061  -14.5719    8.1588 H   0  0  0  0  0  0  0  0  0  0  0  0
   62.5646  -15.1294    7.2802 H   0  0  0  0  0  0  0  0  0  0  0  0
   60.1856  -15.8624    6.1717 H   0  0  0  0  0  0  0  0  0  0  0  0
   60.1842  -17.4923    6.2726 H   0  0  0  0  0  0  0  0  0  0  0  0
   64.2639  -14.2002   11.7078 H   0  0  0  0  0  0  0  0  0  0  0  0
   63.3476  -12.9158   11.2868 H   0  0  0  0  0  0  0  0  0  0  0  0
   65.0609  -11.5025   12.3832 H   0  0  0  0  0  0  0  0  0  0  0  0
   64.1626  -12.4033   13.4071 H   0  0  0  0  0  0  0  0  0  0  0  0
   63.2284  -17.6208    9.9318 H   0  0  0  0  0  0  0  0  0  0  0  0
   62.3272  -15.1290   10.0718 H   0  0  0  0  0  0  0  0  0  0  0  0
  1  9  1  0  0  0  0
  1 10  1  0  0  0  0
  2 20  1  0  0  0  0
  3 19  1  0  0  0  0
  4 11  1  0  0  0  0
  4 19  2  0  0  0  0
  5 11  2  0  0  0  0
  5 22  1  0  0  0  0
  6 12  1  0  0  0  0
  6 21  1  0  0  0  0
  7 13  1  0  0  0  0
  7 14  1  0  0  0  0
  7 15  1  0  0  0  0
  8 16  3  0  0  0  0
  9 17  1  0  0  0  0
 10 23  1  0  0  0  0
 12 24  2  0  0  0  0
 13 20  1  0  0  0  0
 14 23  1  0  0  0  0
 15 24  1  0  0  0  0
 16 18  1  0  0  0  0
 17 18  1  0  0  0  0
 19 21  1  0  0  0  0
 20 23  1  0  0  0  0
 21 22  2  0  0  0  0
 22 24  1  0  0  0  0
  2 25  1  0  0  0  0
  3 26  1  0  0  0  0
  3 27  1  0  0  0  0
  6 28  1  0  0  0  0
  8 29  1  0  0  0  0
  9 30  1  0  0  0  0
  9 31  1  0  0  0  0
 10 32  1  0  0  0  0
 10 33  1  0  0  0  0
 11 34  1  0  0  0  0
 12 35  1  0  0  0  0
 13 36  1  0  0  0  0
 13 37  1  0  0  0  0
 14 38  1  0  0  0  0
 14 39  1  0  0  0  0
 15 40  1  0  0  0  0
 15 41  1  0  0  0  0
 17 42  1  0  0  0  0
 17 43  1  0  0  0  0
 18 44  1  0  0  0  0
 18 45  1  0  0  0  0
 20 46  1  0  0  0  0
 23 47  1  0  0  0  0
M  END
> <pdb_id>
6DZ0

> <uniprot_id>
Q13126

> <usmiles>
S(C[C@@H]1[C@@H](O)CN(CC=2c3ncnc(N)c3NC2)C1)CCCC#C

$$$$
OS3_B_305
          07212402473D 1   1.00000     0.00000     0
            
 47 49  0  0  0  0            999 V2000
  -33.7444  -35.7479  -57.3682 S   0  0  0  0  0  0  0  0  0  0  0  0
  -29.6867  -36.9026  -55.9727 O   0  0  0  0  0  0  0  0  0  0  0  0
  -33.0170  -28.2003  -55.3467 N   0  0  0  0  0  0  0  0  0  0  0  0
  -32.9579  -29.9905  -53.7469 N   0  0  0  0  0  0  0  0  0  0  0  0
  -31.3387  -31.7097  -53.9020 N   0  0  0  0  0  0  0  0  0  0  0  0
  -30.6475  -29.6542  -56.6893 N   0  0  0  0  0  0  0  0  0  0  0  0
  -29.2643  -34.1297  -56.0735 N   0  0  0  0  0  0  0  0  0  0  0  0
  -34.6143  -35.7872  -62.8088 C   0  0  0  0  0  0  0  0  0  0  0  0
  -33.6820  -36.2475  -59.0870 C   0  0  0  0  0  0  0  0  0  0  0  0
  -32.3702  -34.6156  -57.3096 C   0  0  0  0  0  0  0  0  0  0  0  0
  -32.3845  -31.1340  -53.3070 C   0  0  0  0  0  0  0  0  0  0  0  0
  -29.7211  -30.6301  -56.8682 C   0  0  0  0  0  0  0  0  0  0  0  0
  -30.1616  -34.7344  -55.0759 C   0  0  0  0  0  0  0  0  0  0  0  0
  -29.9029  -34.2747  -57.4039 C   0  0  0  0  0  0  0  0  0  0  0  0
  -28.8038  -32.7604  -55.7787 C   0  0  0  0  0  0  0  0  0  0  0  0
  -34.6739  -36.6580  -61.8745 C   0  0  0  0  0  0  0  0  0  0  0  0
  -34.8826  -37.1135  -59.4725 C   0  0  0  0  0  0  0  0  0  0  0  0
  -34.7081  -37.7116  -60.8661 C   0  0  0  0  0  0  0  0  0  0  0  0
  -32.5036  -29.3479  -54.8618 C   0  0  0  0  0  0  0  0  0  0  0  0
  -30.7181  -35.9271  -55.8549 C   0  0  1  0  0  0  0  0  0  0  0  0
  -31.3807  -29.9505  -55.5728 C   0  0  0  0  0  0  0  0  0  0  0  0
  -30.8402  -31.1560  -55.0199 C   0  0  0  0  0  0  0  0  0  0  0  0
  -31.0236  -35.2953  -57.2113 C   0  0  1  0  0  0  0  0  0  0  0  0
  -29.7475  -31.5927  -55.8899 C   0  0  0  0  0  0  0  0  0  0  0  0
  -30.0313  -37.6924  -56.4801 H   0  0  0  0  0  0  0  0  0  0  0  0
  -32.6293  -27.7882  -56.1712 H   0  0  0  0  0  0  0  0  0  0  0  0
  -33.7857  -27.7608  -54.8820 H   0  0  0  0  0  0  0  0  0  0  0  0
  -30.7731  -28.8535  -57.2751 H   0  0  0  0  0  0  0  0  0  0  0  0
  -34.5677  -35.1061  -63.5396 H   0  0  0  0  0  0  0  0  0  0  0  0
  -32.8434  -36.7698  -59.2416 H   0  0  0  0  0  0  0  0  0  0  0  0
  -33.6757  -35.4291  -59.6616 H   0  0  0  0  0  0  0  0  0  0  0  0
  -32.4834  -34.0233  -56.5119 H   0  0  0  0  0  0  0  0  0  0  0  0
  -32.3833  -34.0606  -58.1414 H   0  0  0  0  0  0  0  0  0  0  0  0
  -32.7651  -31.5711  -52.4921 H   0  0  0  0  0  0  0  0  0  0  0  0
  -29.0820  -30.6461  -57.6372 H   0  0  0  0  0  0  0  0  0  0  0  0
  -30.8881  -34.1023  -54.8065 H   0  0  0  0  0  0  0  0  0  0  0  0
  -29.6590  -35.0304  -54.2636 H   0  0  0  0  0  0  0  0  0  0  0  0
  -29.2401  -34.6064  -58.0752 H   0  0  0  0  0  0  0  0  0  0  0  0
  -30.2768  -33.3989  -57.7092 H   0  0  0  0  0  0  0  0  0  0  0  0
  -28.0439  -32.5741  -56.4015 H   0  0  0  0  0  0  0  0  0  0  0  0
  -28.4684  -32.7683  -54.8366 H   0  0  0  0  0  0  0  0  0  0  0  0
  -35.7085  -36.5497  -59.4607 H   0  0  0  0  0  0  0  0  0  0  0  0
  -34.9760  -37.8554  -58.8086 H   0  0  0  0  0  0  0  0  0  0  0  0
  -33.8511  -38.2259  -60.8985 H   0  0  0  0  0  0  0  0  0  0  0  0
  -35.4731  -38.3263  -61.0584 H   0  0  0  0  0  0  0  0  0  0  0  0
  -31.5393  -36.3026  -55.4251 H   0  0  0  0  0  0  0  0  0  0  0  0
  -30.9563  -35.9953  -57.9224 H   0  0  0  0  0  0  0  0  0  0  0  0
  1  9  1  0  0  0  0
  1 10  1  0  0  0  0
  2 20  1  0  0  0  0
  3 19  1  0  0  0  0
  4 11  1  0  0  0  0
  4 19  2  0  0  0  0
  5 11  2  0  0  0  0
  5 22  1  0  0  0  0
  6 12  1  0  0  0  0
  6 21  1  0  0  0  0
  7 13  1  0  0  0  0
  7 14  1  0  0  0  0
  7 15  1  0  0  0  0
  8 16  3  0  0  0  0
  9 17  1  0  0  0  0
 10 23  1  0  0  0  0
 12 24  2  0  0  0  0
 13 20  1  0  0  0  0
 14 23  1  0  0  0  0
 15 24  1  0  0  0  0
 16 18  1  0  0  0  0
 17 18  1  0  0  0  0
 19 21  1  0  0  0  0
 20 23  1  0  0  0  0
 21 22  2  0  0  0  0
 22 24  1  0  0  0  0
  2 25  1  0  0  0  0
  3 26  1  0  0  0  0
  3 27  1  0  0  0  0
  6 28  1  0  0  0  0
  8 29  1  0  0  0  0
  9 30  1  0  0  0  0
  9 31  1  0  0  0  0
 10 32  1  0  0  0  0
 10 33  1  0  0  0  0
 11 34  1  0  0  0  0
 12 35  1  0  0  0  0
 13 36  1  0  0  0  0
 13 37  1  0  0  0  0
 14 38  1  0  0  0  0
 14 39  1  0  0  0  0
 15 40  1  0  0  0  0
 15 41  1  0  0  0  0
 17 42  1  0  0  0  0
 17 43  1  0  0  0  0
 18 44  1  0  0  0  0
 18 45  1  0  0  0  0
 20 46  1  0  0  0  0
 23 47  1  0  0  0  0
M  END
> <pdb_id>
6DYV

> <uniprot_id>
nan

> <usmiles>
S(C[C@@H]1[C@@H](O)CN(CC=2c3ncnc(N)c3NC2)C1)CCCC#C

$$$$
OS5_A_307
          07212402473D 1   1.00000     0.00000     0
            
 64 68  0  0  0  0            999 V2000
   86.0680  157.5850  177.7960 S   0  0  0  0  0  0  0  0  0  0  0  0
   85.8310  162.4770  179.2490 O   0  0  0  0  0  0  0  0  0  0  0  0
   81.1520  161.4890  171.5170 N   0  0  0  0  0  0  0  0  0  0  0  0
   91.9890  160.4910  177.0900 N   0  0  0  0  0  0  0  0  0  0  0  0
   90.8100  159.8640  177.5120 N   0  0  0  0  0  0  0  0  0  0  0  0
   81.2690  163.1790  173.1670 N   0  0  0  0  0  0  0  0  0  0  0  0
   83.1910  163.4800  174.4510 N   0  0  0  0  0  0  0  0  0  0  0  0
   83.9530  160.7860  172.3750 N   0  0  0  0  0  0  0  0  0  0  0  0
   92.9980  159.5770  177.3790 N   0  0  0  0  0  0  0  0  0  0  0  0
   86.1980  161.9210  176.2970 N   0  0  0  0  0  0  0  0  0  0  0  0
   87.5520  157.4040  178.7390 C   0  0  0  0  0  0  0  0  0  0  0  0
   85.2230  159.0580  178.3040 C   0  0  0  0  0  0  0  0  0  0  0  0
   81.9250  163.8460  174.1310 C   0  0  0  0  0  0  0  0  0  0  0  0
   85.1390  160.8600  173.0530 C   0  0  0  0  0  0  0  0  0  0  0  0
   88.7180  157.9660  177.9370 C   0  0  0  0  0  0  0  0  0  0  0  0
   94.8700  159.7840  172.7320 C   0  0  0  0  0  0  0  0  0  0  0  0
   93.8750  160.5930  173.2550 C   0  0  0  0  0  0  0  0  0  0  0  0
   95.6850  159.0780  173.6020 C   0  0  0  0  0  0  0  0  0  0  0  0
   92.4980  158.4630  177.9420 C   0  0  0  0  0  0  0  0  0  0  0  0
   85.0590  162.3850  177.0580 C   0  0  0  0  0  0  0  0  0  0  0  0
   94.3290  160.0560  177.0110 C   0  0  0  0  0  0  0  0  0  0  0  0
   86.2950  160.4760  176.5160 C   0  0  0  0  0  0  0  0  0  0  0  0
   86.1730  162.3020  174.8790 C   0  0  0  0  0  0  0  0  0  0  0  0
   90.0790  157.6700  178.5580 C   0  0  0  0  0  0  0  0  0  0  0  0
   93.7010  160.6930  174.6270 C   0  0  0  0  0  0  0  0  0  0  0  0
   95.5160  159.1550  174.9890 C   0  0  0  0  0  0  0  0  0  0  0  0
   81.8360  162.1520  172.4850 C   0  0  0  0  0  0  0  0  0  0  0  0
   85.1770  161.5950  178.3420 C   0  0  1  0  0  0  0  0  0  0  0  0
   91.1080  158.6410  178.0190 C   0  0  0  0  0  0  0  0  0  0  0  0
   83.1200  161.7510  172.8180 C   0  0  0  0  0  0  0  0  0  0  0  0
   83.7760  162.4370  173.8090 C   0  0  0  0  0  0  0  0  0  0  0  0
   94.5170  159.9690  175.5090 C   0  0  0  0  0  0  0  0  0  0  0  0
   85.9890  160.3390  178.0020 C   0  0  1  0  0  0  0  0  0  0  0  0
   85.0580  161.8800  173.9810 C   0  0  0  0  0  0  0  0  0  0  0  0
   85.9469  162.0216  180.1317 H   0  0  0  0  0  0  0  0  0  0  0  0
   81.5866  160.7346  171.0251 H   0  0  0  0  0  0  0  0  0  0  0  0
   80.2137  161.7552  171.2961 H   0  0  0  0  0  0  0  0  0  0  0  0
   83.7367  160.1197  171.6613 H   0  0  0  0  0  0  0  0  0  0  0  0
   87.7121  156.4356  178.9303 H   0  0  0  0  0  0  0  0  0  0  0  0
   87.4653  157.9041  179.6006 H   0  0  0  0  0  0  0  0  0  0  0  0
   85.0676  159.0084  179.2906 H   0  0  0  0  0  0  0  0  0  0  0  0
   84.3436  159.0969  177.8296 H   0  0  0  0  0  0  0  0  0  0  0  0
   81.4837  164.6058  174.6085 H   0  0  0  0  0  0  0  0  0  0  0  0
   85.9338  160.2723  172.9017 H   0  0  0  0  0  0  0  0  0  0  0  0
   88.6086  158.9578  177.8712 H   0  0  0  0  0  0  0  0  0  0  0  0
   88.6941  157.5665  177.0206 H   0  0  0  0  0  0  0  0  0  0  0  0
   94.9981  159.7107  171.7430 H   0  0  0  0  0  0  0  0  0  0  0  0
   93.2785  161.1081  172.6395 H   0  0  0  0  0  0  0  0  0  0  0  0
   96.4111  158.4998  173.2300 H   0  0  0  0  0  0  0  0  0  0  0  0
   93.0157  157.6635  178.2465 H   0  0  0  0  0  0  0  0  0  0  0  0
   84.2016  162.1805  176.5857 H   0  0  0  0  0  0  0  0  0  0  0  0
   85.1173  163.3680  177.2322 H   0  0  0  0  0  0  0  0  0  0  0  0
   95.0201  159.4929  177.4640 H   0  0  0  0  0  0  0  0  0  0  0  0
   94.4305  161.0072  177.3025 H   0  0  0  0  0  0  0  0  0  0  0  0
   87.2130  160.1404  176.3048 H   0  0  0  0  0  0  0  0  0  0  0  0
   85.6241  159.9820  175.9630 H   0  0  0  0  0  0  0  0  0  0  0  0
   87.0136  161.9417  174.4746 H   0  0  0  0  0  0  0  0  0  0  0  0
   86.1930  163.3015  174.8544 H   0  0  0  0  0  0  0  0  0  0  0  0
   90.3523  156.7355  178.3299 H   0  0  0  0  0  0  0  0  0  0  0  0
   90.0191  157.7667  179.5515 H   0  0  0  0  0  0  0  0  0  0  0  0
   92.9853  161.2883  174.9921 H   0  0  0  0  0  0  0  0  0  0  0  0
   96.1082  158.6295  175.5998 H   0  0  0  0  0  0  0  0  0  0  0  0
   84.2716  161.3457  178.6856 H   0  0  0  0  0  0  0  0  0  0  0  0
   86.8444  160.3453  178.5200 H   0  0  0  0  0  0  0  0  0  0  0  0
  1 11  1  0  0  0  0
  1 12  1  0  0  0  0
  2 28  1  0  0  0  0
  3 27  1  0  0  0  0
  4  5  2  0  0  0  0
  4  9  1  0  0  0  0
  5 29  1  0  0  0  0
  6 13  1  0  0  0  0
  6 27  2  0  0  0  0
  7 13  2  0  0  0  0
  7 31  1  0  0  0  0
  8 14  1  0  0  0  0
  8 30  1  0  0  0  0
  9 19  1  0  0  0  0
  9 21  1  0  0  0  0
 10 20  1  0  0  0  0
 10 22  1  0  0  0  0
 10 23  1  0  0  0  0
 11 15  1  0  0  0  0
 12 33  1  0  0  0  0
 14 34  2  0  0  0  0
 15 24  1  0  0  0  0
 16 17  2  0  0  0  0
 16 18  1  0  0  0  0
 17 25  1  0  0  0  0
 18 26  2  0  0  0  0
 19 29  2  0  0  0  0
 20 28  1  0  0  0  0
 21 32  1  0  0  0  0
 22 33  1  0  0  0  0
 23 34  1  0  0  0  0
 24 29  1  0  0  0  0
 25 32  2  0  0  0  0
 26 32  1  0  0  0  0
 27 30  1  0  0  0  0
 28 33  1  0  0  0  0
 30 31  2  0  0  0  0
 31 34  1  0  0  0  0
  2 35  1  0  0  0  0
  3 36  1  0  0  0  0
  3 37  1  0  0  0  0
  8 38  1  0  0  0  0
 11 39  1  0  0  0  0
 11 40  1  0  0  0  0
 12 41  1  0  0  0  0
 12 42  1  0  0  0  0
 13 43  1  0  0  0  0
 14 44  1  0  0  0  0
 15 45  1  0  0  0  0
 15 46  1  0  0  0  0
 16 47  1  0  0  0  0
 17 48  1  0  0  0  0
 18 49  1  0  0  0  0
 19 50  1  0  0  0  0
 20 51  1  0  0  0  0
 20 52  1  0  0  0  0
 21 53  1  0  0  0  0
 21 54  1  0  0  0  0
 22 55  1  0  0  0  0
 22 56  1  0  0  0  0
 23 57  1  0  0  0  0
 23 58  1  0  0  0  0
 24 59  1  0  0  0  0
 24 60  1  0  0  0  0
 25 61  1  0  0  0  0
 26 62  1  0  0  0  0
 28 63  1  0  0  0  0
 33 64  1  0  0  0  0
M  END
> <pdb_id>
6DZ2

> <uniprot_id>
Q13126

> <usmiles>
S(C[C@@H]1[C@@H](O)CN(CC=2c3ncnc(N)c3NC2)C1)CCCC=4N=NN(C4)Cc5ccccc5

$$$$
OS5_B_307
          07212402473D 1   1.00000     0.00000     0
            
 64 68  0  0  0  0            999 V2000
  -33.7770  -35.8530  -57.5580 S   0  0  0  0  0  0  0  0  0  0  0  0
  -29.7210  -36.9080  -55.8880 O   0  0  0  0  0  0  0  0  0  0  0  0
  -33.0190  -28.2220  -55.3090 N   0  0  0  0  0  0  0  0  0  0  0  0
  -37.0160  -39.3570  -62.7210 N   0  0  0  0  0  0  0  0  0  0  0  0
  -36.6890  -38.3260  -61.8160 N   0  0  0  0  0  0  0  0  0  0  0  0
  -32.9310  -29.9880  -53.7520 N   0  0  0  0  0  0  0  0  0  0  0  0
  -31.3450  -31.7390  -53.9030 N   0  0  0  0  0  0  0  0  0  0  0  0
  -30.6770  -29.6610  -56.6580 N   0  0  0  0  0  0  0  0  0  0  0  0
  -35.9130  -39.4550  -63.5680 N   0  0  0  0  0  0  0  0  0  0  0  0
  -29.3600  -34.1070  -56.0950 N   0  0  0  0  0  0  0  0  0  0  0  0
  -33.6000  -36.1320  -59.3060 C   0  0  0  0  0  0  0  0  0  0  0  0
  -32.4900  -34.6960  -57.2170 C   0  0  0  0  0  0  0  0  0  0  0  0
  -32.3730  -31.1220  -53.3100 C   0  0  0  0  0  0  0  0  0  0  0  0
  -29.7560  -30.6310  -56.8450 C   0  0  0  0  0  0  0  0  0  0  0  0
  -34.7270  -36.9800  -59.8830 C   0  0  0  0  0  0  0  0  0  0  0  0
  -35.3630  -44.4130  -63.0850 C   0  0  0  0  0  0  0  0  0  0  0  0
  -36.6360  -43.8250  -63.0210 C   0  0  0  0  0  0  0  0  0  0  0  0
  -34.2910  -43.7160  -63.6480 C   0  0  0  0  0  0  0  0  0  0  0  0
  -34.9780  -38.5700  -63.2210 C   0  0  0  0  0  0  0  0  0  0  0  0
  -30.2090  -34.7280  -55.0610 C   0  0  0  0  0  0  0  0  0  0  0  0
  -36.0020  -40.4560  -64.6320 C   0  0  0  0  0  0  0  0  0  0  0  0
  -30.0460  -34.2660  -57.3990 C   0  0  0  0  0  0  0  0  0  0  0  0
  -28.8820  -32.7520  -55.7720 C   0  0  0  0  0  0  0  0  0  0  0  0
  -34.7390  -36.7710  -61.3980 C   0  0  0  0  0  0  0  0  0  0  0  0
  -36.8410  -42.5410  -63.5270 C   0  0  0  0  0  0  0  0  0  0  0  0
  -34.4960  -42.4230  -64.1510 C   0  0  0  0  0  0  0  0  0  0  0  0
  -32.4570  -29.3700  -54.8710 C   0  0  0  0  0  0  0  0  0  0  0  0
  -30.7550  -35.9280  -55.8200 C   0  0  1  0  0  0  0  0  0  0  0  0
  -35.4560  -37.8750  -62.1160 C   0  0  0  0  0  0  0  0  0  0  0  0
  -31.3850  -29.9680  -55.5250 C   0  0  0  0  0  0  0  0  0  0  0  0
  -30.8690  -31.1550  -55.0310 C   0  0  0  0  0  0  0  0  0  0  0  0
  -35.7700  -41.8420  -64.0880 C   0  0  0  0  0  0  0  0  0  0  0  0
  -31.1110  -35.3370  -57.1810 C   0  0  1  0  0  0  0  0  0  0  0  0
  -29.8310  -31.5870  -55.8480 C   0  0  0  0  0  0  0  0  0  0  0  0
  -30.0541  -37.7102  -56.3835 H   0  0  0  0  0  0  0  0  0  0  0  0
  -32.6661  -27.7742  -56.1306 H   0  0  0  0  0  0  0  0  0  0  0  0
  -33.7878  -27.8201  -54.8116 H   0  0  0  0  0  0  0  0  0  0  0  0
  -30.8174  -28.8614  -57.2419 H   0  0  0  0  0  0  0  0  0  0  0  0
  -32.7316  -36.6003  -59.4689 H   0  0  0  0  0  0  0  0  0  0  0  0
  -33.5943  -35.2474  -59.7722 H   0  0  0  0  0  0  0  0  0  0  0  0
  -32.6684  -34.2731  -56.3286 H   0  0  0  0  0  0  0  0  0  0  0  0
  -32.4965  -33.9930  -57.9281 H   0  0  0  0  0  0  0  0  0  0  0  0
  -32.7500  -31.5353  -52.4811 H   0  0  0  0  0  0  0  0  0  0  0  0
  -29.1056  -30.6550  -57.6042 H   0  0  0  0  0  0  0  0  0  0  0  0
  -35.6022  -36.6939  -59.4930 H   0  0  0  0  0  0  0  0  0  0  0  0
  -34.5683  -37.9449  -59.6738 H   0  0  0  0  0  0  0  0  0  0  0  0
  -35.2227  -45.3356  -62.7257 H   0  0  0  0  0  0  0  0  0  0  0  0
  -37.3976  -44.3275  -62.6118 H   0  0  0  0  0  0  0  0  0  0  0  0
  -33.3845  -44.1359  -63.6920 H   0  0  0  0  0  0  0  0  0  0  0  0
  -34.0963  -38.4318  -63.6721 H   0  0  0  0  0  0  0  0  0  0  0  0
  -30.9417  -34.1133  -54.7689 H   0  0  0  0  0  0  0  0  0  0  0  0
  -29.6728  -35.0093  -54.2652 H   0  0  0  0  0  0  0  0  0  0  0  0
  -35.3110  -40.2573  -65.3270 H   0  0  0  0  0  0  0  0  0  0  0  0
  -36.9117  -40.4146  -65.0451 H   0  0  0  0  0  0  0  0  0  0  0  0
  -29.3964  -34.5587  -58.1007 H   0  0  0  0  0  0  0  0  0  0  0  0
  -30.4706  -33.4042  -57.6764 H   0  0  0  0  0  0  0  0  0  0  0  0
  -28.1288  -32.5534  -56.3991 H   0  0  0  0  0  0  0  0  0  0  0  0
  -28.5358  -32.7828  -54.8344 H   0  0  0  0  0  0  0  0  0  0  0  0
  -33.7949  -36.7337  -61.7255 H   0  0  0  0  0  0  0  0  0  0  0  0
  -35.1964  -35.9050  -61.6001 H   0  0  0  0  0  0  0  0  0  0  0  0
  -37.7490  -42.1239  -63.4882 H   0  0  0  0  0  0  0  0  0  0  0  0
  -33.7341  -41.9161  -64.5542 H   0  0  0  0  0  0  0  0  0  0  0  0
  -31.5670  -36.2969  -55.3678 H   0  0  0  0  0  0  0  0  0  0  0  0
  -31.0408  -36.0397  -57.8890 H   0  0  0  0  0  0  0  0  0  0  0  0
  1 11  1  0  0  0  0
  1 12  1  0  0  0  0
  2 28  1  0  0  0  0
  3 27  1  0  0  0  0
  4  5  2  0  0  0  0
  4  9  1  0  0  0  0
  5 29  1  0  0  0  0
  6 13  1  0  0  0  0
  6 27  2  0  0  0  0
  7 13  2  0  0  0  0
  7 31  1  0  0  0  0
  8 14  1  0  0  0  0
  8 30  1  0  0  0  0
  9 19  1  0  0  0  0
  9 21  1  0  0  0  0
 10 20  1  0  0  0  0
 10 22  1  0  0  0  0
 10 23  1  0  0  0  0
 11 15  1  0  0  0  0
 12 33  1  0  0  0  0
 14 34  2  0  0  0  0
 15 24  1  0  0  0  0
 16 17  2  0  0  0  0
 16 18  1  0  0  0  0
 17 25  1  0  0  0  0
 18 26  2  0  0  0  0
 19 29  2  0  0  0  0
 20 28  1  0  0  0  0
 21 32  1  0  0  0  0
 22 33  1  0  0  0  0
 23 34  1  0  0  0  0
 24 29  1  0  0  0  0
 25 32  2  0  0  0  0
 26 32  1  0  0  0  0
 27 30  1  0  0  0  0
 28 33  1  0  0  0  0
 30 31  2  0  0  0  0
 31 34  1  0  0  0  0
  2 35  1  0  0  0  0
  3 36  1  0  0  0  0
  3 37  1  0  0  0  0
  8 38  1  0  0  0  0
 11 39  1  0  0  0  0
 11 40  1  0  0  0  0
 12 41  1  0  0  0  0
 12 42  1  0  0  0  0
 13 43  1  0  0  0  0
 14 44  1  0  0  0  0
 15 45  1  0  0  0  0
 15 46  1  0  0  0  0
 16 47  1  0  0  0  0
 17 48  1  0  0  0  0
 18 49  1  0  0  0  0
 19 50  1  0  0  0  0
 20 51  1  0  0  0  0
 20 52  1  0  0  0  0
 21 53  1  0  0  0  0
 21 54  1  0  0  0  0
 22 55  1  0  0  0  0
 22 56  1  0  0  0  0
 23 57  1  0  0  0  0
 23 58  1  0  0  0  0
 24 59  1  0  0  0  0
 24 60  1  0  0  0  0
 25 61  1  0  0  0  0
 26 62  1  0  0  0  0
 28 63  1  0  0  0  0
 33 64  1  0  0  0  0
M  END
> <pdb_id>
6DYW

> <uniprot_id>
nan

> <usmiles>
S(C[C@@H]1[C@@H](O)CN(CC=2c3ncnc(N)c3NC2)C1)CCCC=4N=NN(C4)Cc5ccccc5

$$$$
OSE_A_1768
          07202412173D 1   1.00000     0.00000     0
            
 16 15  0  0  0  0            999 V2000
   14.0257   47.3139   39.9486 S   0  0  0  0  0  0  0  0  0  0  0  0
   14.4463   46.7620   38.6685 O   0  0  0  0  0  0  0  0  0  0  0  0
   14.5094   48.6680   40.1153 O   0  0  0  0  0  0  0  0  0  0  0  0
   12.5990   46.9859   40.0895 O   0  0  0  0  0  0  0  0  0  0  0  0
   17.7883   45.4442   40.5047 O   0  0  0  0  0  0  0  0  0  0  0  0
   16.8181   43.7805   39.4971 O   0  0  0  0  0  0  0  0  0  0  0  0
   14.6583   46.3967   41.1101 O   0  0  0  0  0  0  0  0  0  0  0  0
   16.1486   44.8646   42.8213 N   0  0  0  0  0  0  0  0  0  0  0  0
   14.5034   44.9470   41.0384 C   0  0  0  0  0  0  0  0  0  0  0  0
   16.8979   44.5595   40.4673 C   0  0  0  0  0  0  0  0  0  0  0  0
   15.8831   44.6634   41.5079 C   0  0  0  0  0  0  0  0  0  0  0  0
   14.1001   45.8281   38.5782 H   0  0  0  0  0  0  0  0  0  0  0  0
   17.8444   46.0644   41.2871 H   0  0  0  0  0  0  0  0  0  0  0  0
   17.0651   44.6858   43.1792 H   0  0  0  0  0  0  0  0  0  0  0  0
   14.3287   44.6163   40.1110 H   0  0  0  0  0  0  0  0  0  0  0  0
   13.7989   44.5965   41.6555 H   0  0  0  0  0  0  0  0  0  0  0  0
  1  2  1  0  0  0  0
  1  3  2  0  0  0  0
  1  4  2  0  0  0  0
  1  7  1  0  0  0  0
  5 10  1  0  0  0  0
  6 10  2  0  0  0  0
  7  9  1  0  0  0  0
  8 11  2  0  0  0  0
  9 11  1  0  0  0  0
 10 11  1  0  0  0  0
  2 12  1  0  0  0  0
  5 13  1  0  0  0  0
  8 14  1  0  0  0  0
  9 15  1  0  0  0  0
  9 16  1  0  0  0  0
M  END
> <pdb_id>
2PVV

> <uniprot_id>
Q04609

> <usmiles>
S(=O)(=O)(OCC(=N)C(=O)O)O

$$$$
OTW_A_1489
          07212401303D 1   1.00000     0.00000     0
            
 24 25  0  0  0  0            999 V2000
   35.7077  -13.0250   27.6346 N   0  0  0  0  0  0  0  0  0  0  0  0
   40.7280  -18.4613   25.5533 N   0  0  0  0  0  0  0  0  0  0  0  0
   37.4033  -14.1300   26.3863 N   0  0  0  0  0  0  0  0  0  0  0  0
   37.1361  -17.3737   29.1238 C   0  0  0  0  0  0  0  0  0  0  0  0
   39.9078  -16.3042   24.9496 C   0  0  0  0  0  0  0  0  0  0  0  0
   39.0758  -15.2339   25.1671 C   0  0  0  0  0  0  0  0  0  0  0  0
   36.4607  -15.1650   28.3003 C   0  0  0  0  0  0  0  0  0  0  0  0
   38.9921  -17.3807   26.8671 C   0  0  0  0  0  0  0  0  0  0  0  0
   36.5512  -14.1199   27.4164 C   0  0  0  0  0  0  0  0  0  0  0  0
   39.8704  -17.3857   25.7992 C   0  0  0  0  0  0  0  0  0  0  0  0
   38.1892  -15.2015   26.2241 C   0  0  0  0  0  0  0  0  0  0  0  0
   37.2689  -16.2641   28.1356 C   0  0  0  0  0  0  0  0  0  0  0  0
   38.1584  -16.2973   27.0756 C   0  0  0  0  0  0  0  0  0  0  0  0
   35.0742  -13.0283   28.4083 H   0  0  0  0  0  0  0  0  0  0  0  0
   35.7383  -12.2393   27.0168 H   0  0  0  0  0  0  0  0  0  0  0  0
   40.7174  -19.2575   26.1582 H   0  0  0  0  0  0  0  0  0  0  0  0
   41.3523  -18.4346   24.7726 H   0  0  0  0  0  0  0  0  0  0  0  0
   37.7760  -18.1060   28.8908 H   0  0  0  0  0  0  0  0  0  0  0  0
   37.3420  -17.0303   30.0402 H   0  0  0  0  0  0  0  0  0  0  0  0
   36.2014  -17.7285   29.1030 H   0  0  0  0  0  0  0  0  0  0  0  0
   40.5401  -16.2976   24.1749 H   0  0  0  0  0  0  0  0  0  0  0  0
   39.1133  -14.4550   24.5411 H   0  0  0  0  0  0  0  0  0  0  0  0
   35.8109  -15.1273   29.0595 H   0  0  0  0  0  0  0  0  0  0  0  0
   38.9596  -18.1623   27.4900 H   0  0  0  0  0  0  0  0  0  0  0  0
  1  9  1  0  0  0  0
  2 10  1  0  0  0  0
  3  9  2  0  0  0  0
  3 11  1  0  0  0  0
  4 12  1  0  0  0  0
  5  6  1  0  0  0  0
  5 10  2  0  0  0  0
  6 11  2  0  0  0  0
  7  9  1  0  0  0  0
  7 12  2  0  0  0  0
  8 10  1  0  0  0  0
  8 13  2  0  0  0  0
 11 13  1  0  0  0  0
 12 13  1  0  0  0  0
  1 14  1  0  0  0  0
  1 15  1  0  0  0  0
  2 16  1  0  0  0  0
  2 17  1  0  0  0  0
  4 18  1  0  0  0  0
  4 19  1  0  0  0  0
  4 20  1  0  0  0  0
  5 21  1  0  0  0  0
  6 22  1  0  0  0  0
  7 23  1  0  0  0  0
  8 24  1  0  0  0  0
M  END
> <pdb_id>
4CR9

> <uniprot_id>
P03951

> <usmiles>
n1c(N)cc(c2c1ccc(N)c2)C

$$$$
OYS_A_263
          07192416293D 1   1.00000     0.00000     0
            
 34 35  0  0  0  0            999 V2000
   -5.8269    0.9928   16.7744 S   0  0  0  0  0  0  0  0  0  0  0  0
   -7.2488    1.2217   16.6212 O   0  0  0  0  0  0  0  0  0  0  0  0
   -5.3278    1.1922   18.1378 O   0  0  0  0  0  0  0  0  0  0  0  0
   -4.7100    6.6173   12.9340 O   0  0  0  0  0  0  0  0  0  0  0  0
   -5.3397   -0.4296   16.1981 N   0  0  0  0  0  0  0  0  0  0  0  0
   -3.0290    5.1683   13.5503 N   0  0  0  0  0  0  0  0  0  0  0  0
   -1.3292   10.5846   14.3509 C   0  0  0  0  0  0  0  0  0  0  0  0
   -1.9541   10.7484   13.1195 C   0  0  0  0  0  0  0  0  0  0  0  0
   -1.0963    9.3105   14.9075 C   0  0  0  0  0  0  0  0  0  0  0  0
   -2.3299    9.6088   12.4120 C   0  0  0  0  0  0  0  0  0  0  0  0
   -1.4981    8.1806   14.1809 C   0  0  0  0  0  0  0  0  0  0  0  0
   -3.7009    2.1826   15.5349 C   0  0  0  0  0  0  0  0  0  0  0  0
   -5.8025    3.3216   15.2607 C   0  0  0  0  0  0  0  0  0  0  0  0
   -3.0730    3.1688   14.7926 C   0  0  0  0  0  0  0  0  0  0  0  0
   -5.1766    4.3197   14.5072 C   0  0  0  0  0  0  0  0  0  0  0  0
   -2.4975    7.1322   12.1857 C   0  0  0  0  0  0  0  0  0  0  0  0
   -3.5245    6.3193   12.9052 C   0  0  0  0  0  0  0  0  0  0  0  0
   -5.0717    2.2568   15.7955 C   0  0  0  0  0  0  0  0  0  0  0  0
   -3.7959    4.2349   14.2848 C   0  0  0  0  0  0  0  0  0  0  0  0
   -2.0679    8.3354   12.9427 C   0  0  0  0  0  0  0  0  0  0  0  0
   -4.3536   -0.5243   16.3343 H   0  0  0  0  0  0  0  0  0  0  0  0
   -5.8151   -1.1652   16.6807 H   0  0  0  0  0  0  0  0  0  0  0  0
   -2.0462    4.9964   13.4824 H   0  0  0  0  0  0  0  0  0  0  0  0
   -1.0361   11.3956   14.8572 H   0  0  0  0  0  0  0  0  0  0  0  0
   -2.1293   11.6614   12.7510 H   0  0  0  0  0  0  0  0  0  0  0  0
   -0.6548    9.2148   15.7997 H   0  0  0  0  0  0  0  0  0  0  0  0
   -2.7861    9.6975   11.5266 H   0  0  0  0  0  0  0  0  0  0  0  0
   -1.3697    7.2657   14.5636 H   0  0  0  0  0  0  0  0  0  0  0  0
   -3.1696    1.4121   15.8870 H   0  0  0  0  0  0  0  0  0  0  0  0
   -6.7886    3.3704   15.4194 H   0  0  0  0  0  0  0  0  0  0  0  0
   -2.0894    3.1104   14.6219 H   0  0  0  0  0  0  0  0  0  0  0  0
   -5.7058    5.0813   14.1333 H   0  0  0  0  0  0  0  0  0  0  0  0
   -2.8817    7.4275   11.3109 H   0  0  0  0  0  0  0  0  0  0  0  0
   -1.6959    6.5575   12.0207 H   0  0  0  0  0  0  0  0  0  0  0  0
  1  2  2  0  0  0  0
  1  3  2  0  0  0  0
  1  5  1  0  0  0  0
  1 18  1  0  0  0  0
  4 17  2  0  0  0  0
  6 17  1  0  0  0  0
  6 19  1  0  0  0  0
  7  8  2  0  0  0  0
  7  9  1  0  0  0  0
  8 10  1  0  0  0  0
  9 11  2  0  0  0  0
 10 20  2  0  0  0  0
 11 20  1  0  0  0  0
 12 14  1  0  0  0  0
 12 18  2  0  0  0  0
 13 15  2  0  0  0  0
 13 18  1  0  0  0  0
 14 19  2  0  0  0  0
 15 19  1  0  0  0  0
 16 17  1  0  0  0  0
 16 20  1  0  0  0  0
  5 21  1  0  0  0  0
  5 22  1  0  0  0  0
  6 23  1  0  0  0  0
  7 24  1  0  0  0  0
  8 25  1  0  0  0  0
  9 26  1  0  0  0  0
 10 27  1  0  0  0  0
 11 28  1  0  0  0  0
 12 29  1  0  0  0  0
 13 30  1  0  0  0  0
 14 31  1  0  0  0  0
 15 32  1  0  0  0  0
 16 33  1  0  0  0  0
 16 34  1  0  0  0  0
M  END
> <pdb_id>
3OYS

> <uniprot_id>
P00918

> <usmiles>
S(=O)(=O)(N)c1ccc(NC(=O)Cc2ccccc2)cc1

$$$$
P2L_A_3101
          07212404123D 1   1.00000     0.00000     0
            
 34 35  0  0  0  0            999 V2000
    8.0353    0.9269   -3.6846 Cl  0  0  0  0  0  0  0  0  0  0  0  0
    7.2334    3.7549   -4.2652 O   0  0  0  0  0  0  0  0  0  0  0  0
    5.2291    3.8045   -1.2164 N   0  0  0  0  0  0  0  0  0  0  0  0
    6.6117    0.1846   -1.0119 N   0  0  0  0  0  0  0  0  0  0  0  0
    5.8458    4.2751   -2.4739 N   0  0  0  0  0  0  0  0  0  0  0  0
    5.0729   -2.4431    1.0941 N   0  0  0  0  0  0  0  0  0  0  0  0
    5.5816    5.5981   -2.9140 C   0  0  0  0  0  0  0  0  0  0  0  0
    4.0275   -2.9976    1.0651 C   0  0  0  0  0  0  0  0  0  0  0  0
    5.4759    2.4491   -0.7226 C   0  0  0  0  0  0  0  0  0  0  0  0
    5.2868   -1.8035    2.3814 C   0  0  0  0  0  0  0  0  0  0  0  0
    5.1647   -1.5187   -0.0351 C   0  0  0  0  0  0  0  0  0  0  0  0
    6.6527   -1.0660    2.4349 C   0  0  0  0  0  0  0  0  0  0  0  0
    6.8691   -0.1090    1.3359 C   0  0  0  0  0  0  0  0  0  0  0  0
    6.7323    3.4005   -3.2580 C   0  0  0  0  0  0  0  0  0  0  0  0
    6.9747    2.0260   -2.7601 C   0  0  0  0  0  0  0  0  0  0  0  0
    5.9085   -0.1603    0.2321 C   0  0  1  0  0  0  0  0  0  0  0  0
    6.3533    1.5494   -1.5165 C   0  0  0  0  0  0  0  0  0  0  0  0
    7.2192   -0.4561   -1.4814 H   0  0  0  0  0  0  0  0  0  0  0  0
    6.0659    5.7667   -3.7725 H   0  0  0  0  0  0  0  0  0  0  0  0
    4.5985    5.7113   -3.0581 H   0  0  0  0  0  0  0  0  0  0  0  0
    5.8941    6.2484   -2.2216 H   0  0  0  0  0  0  0  0  0  0  0  0
    3.9036   -3.4288    0.1714 H   0  0  0  0  0  0  0  0  0  0  0  0
    4.0013   -3.6971    1.7793 H   0  0  0  0  0  0  0  0  0  0  0  0
    3.2945   -2.3353    1.2201 H   0  0  0  0  0  0  0  0  0  0  0  0
    5.0626    2.1345    0.1319 H   0  0  0  0  0  0  0  0  0  0  0  0
    5.2667   -2.5012    3.0975 H   0  0  0  0  0  0  0  0  0  0  0  0
    4.5544   -1.1415    2.5403 H   0  0  0  0  0  0  0  0  0  0  0  0
    4.2332   -1.3030   -0.3280 H   0  0  0  0  0  0  0  0  0  0  0  0
    5.6463   -1.9889   -0.7747 H   0  0  0  0  0  0  0  0  0  0  0  0
    7.3801   -1.7514    2.4010 H   0  0  0  0  0  0  0  0  0  0  0  0
    6.7052   -0.5668    3.2998 H   0  0  0  0  0  0  0  0  0  0  0  0
    7.7783   -0.2810    0.9567 H   0  0  0  0  0  0  0  0  0  0  0  0
    6.8386    0.8123    1.7237 H   0  0  0  0  0  0  0  0  0  0  0  0
    5.2151    0.5413    0.3967 H   0  0  0  0  0  0  0  0  0  0  0  0
  1 15  1  0  0  0  0
  2 14  2  0  0  0  0
  3  5  1  0  0  0  0
  3  9  2  0  0  0  0
  4 16  1  0  0  0  0
  4 17  1  0  0  0  0
  5  7  1  0  0  0  0
  5 14  1  0  0  0  0
  6  8  1  0  0  0  0
  6 10  1  0  0  0  0
  6 11  1  0  0  0  0
  9 17  1  0  0  0  0
 10 12  1  0  0  0  0
 11 16  1  0  0  0  0
 12 13  1  0  0  0  0
 13 16  1  0  0  0  0
 14 15  1  0  0  0  0
 15 17  2  0  0  0  0
  4 18  1  0  0  0  0
  7 19  1  0  0  0  0
  7 20  1  0  0  0  0
  7 21  1  0  0  0  0
  8 22  1  0  0  0  0
  8 23  1  0  0  0  0
  8 24  1  0  0  0  0
  9 25  1  0  0  0  0
 10 26  1  0  0  0  0
 10 27  1  0  0  0  0
 11 28  1  0  0  0  0
 11 29  1  0  0  0  0
 12 30  1  0  0  0  0
 12 31  1  0  0  0  0
 13 32  1  0  0  0  0
 13 33  1  0  0  0  0
 16 34  1  0  0  0  0
M  END
> <pdb_id>
7LP0

> <uniprot_id>
Q12830

> <usmiles>
ClC=1C(=O)N(N=CC1N[C@H]2CN(CCC2)C)C

$$$$
P2L_A_901
          07192419583D 1   1.00000     0.00000     0
            
 34 35  0  0  0  0            999 V2000
  -18.4071   -6.2551    9.5322 Cl  0  0  0  0  0  0  0  0  0  0  0  0
  -21.0098   -4.9172    9.9390 O   0  0  0  0  0  0  0  0  0  0  0  0
  -20.1638   -4.7056   13.3625 N   0  0  0  0  0  0  0  0  0  0  0  0
  -17.1113   -6.3271   12.2920 N   0  0  0  0  0  0  0  0  0  0  0  0
  -20.8224   -4.6125   12.1742 N   0  0  0  0  0  0  0  0  0  0  0  0
  -15.7530   -7.8327   15.4086 N   0  0  0  0  0  0  0  0  0  0  0  0
  -22.1327   -3.9707   12.2480 C   0  0  0  0  0  0  0  0  0  0  0  0
  -16.0228   -9.1030   16.1005 C   0  0  0  0  0  0  0  0  0  0  0  0
  -18.9949   -5.2600   13.3653 C   0  0  0  0  0  0  0  0  0  0  0  0
  -14.3180   -7.6794   15.1507 C   0  0  0  0  0  0  0  0  0  0  0  0
  -16.5014   -7.7676   14.1472 C   0  0  0  0  0  0  0  0  0  0  0  0
  -14.0350   -6.3295   14.5261 C   0  0  0  0  0  0  0  0  0  0  0  0
  -14.8340   -6.1543   13.2459 C   0  0  0  0  0  0  0  0  0  0  0  0
  -20.3530   -5.0569   10.9645 C   0  0  0  0  0  0  0  0  0  0  0  0
  -19.0475   -5.6653   11.0274 C   0  0  0  0  0  0  0  0  0  0  0  0
  -16.3018   -6.4133   13.5063 C   0  0  1  0  0  0  0  0  0  0  0  0
  -18.3283   -5.7795   12.2010 C   0  0  0  0  0  0  0  0  0  0  0  0
  -16.7207   -6.7115   11.4556 H   0  0  0  0  0  0  0  0  0  0  0  0
  -22.5430   -3.9448   11.3364 H   0  0  0  0  0  0  0  0  0  0  0  0
  -22.7240   -4.4900   12.8651 H   0  0  0  0  0  0  0  0  0  0  0  0
  -22.0281   -3.0380   12.5930 H   0  0  0  0  0  0  0  0  0  0  0  0
  -17.0049   -9.1896   16.2675 H   0  0  0  0  0  0  0  0  0  0  0  0
  -15.7130   -9.8648   15.5316 H   0  0  0  0  0  0  0  0  0  0  0  0
  -15.5338   -9.1179   16.9727 H   0  0  0  0  0  0  0  0  0  0  0  0
  -18.5194   -5.3329   14.2420 H   0  0  0  0  0  0  0  0  0  0  0  0
  -14.0164   -8.4006   14.5271 H   0  0  0  0  0  0  0  0  0  0  0  0
  -13.8183   -7.7544   16.0136 H   0  0  0  0  0  0  0  0  0  0  0  0
  -17.4744   -7.9087   14.3302 H   0  0  0  0  0  0  0  0  0  0  0  0
  -16.1720   -8.4803   13.5280 H   0  0  0  0  0  0  0  0  0  0  0  0
  -13.0596   -6.2625   14.3165 H   0  0  0  0  0  0  0  0  0  0  0  0
  -14.2874   -5.6091   15.1722 H   0  0  0  0  0  0  0  0  0  0  0  0
  -14.5016   -6.7998   12.5582 H   0  0  0  0  0  0  0  0  0  0  0  0
  -14.7181   -5.2198   12.9095 H   0  0  0  0  0  0  0  0  0  0  0  0
  -16.6294   -5.7178   14.1457 H   0  0  0  0  0  0  0  0  0  0  0  0
  1 15  1  0  0  0  0
  2 14  2  0  0  0  0
  3  5  1  0  0  0  0
  3  9  2  0  0  0  0
  4 16  1  0  0  0  0
  4 17  1  0  0  0  0
  5  7  1  0  0  0  0
  5 14  1  0  0  0  0
  6  8  1  0  0  0  0
  6 10  1  0  0  0  0
  6 11  1  0  0  0  0
  9 17  1  0  0  0  0
 10 12  1  0  0  0  0
 11 16  1  0  0  0  0
 12 13  1  0  0  0  0
 13 16  1  0  0  0  0
 14 15  1  0  0  0  0
 15 17  2  0  0  0  0
  4 18  1  0  0  0  0
  7 19  1  0  0  0  0
  7 20  1  0  0  0  0
  7 21  1  0  0  0  0
  8 22  1  0  0  0  0
  8 23  1  0  0  0  0
  8 24  1  0  0  0  0
  9 25  1  0  0  0  0
 10 26  1  0  0  0  0
 10 27  1  0  0  0  0
 11 28  1  0  0  0  0
 11 29  1  0  0  0  0
 12 30  1  0  0  0  0
 12 31  1  0  0  0  0
 13 32  1  0  0  0  0
 13 33  1  0  0  0  0
 16 34  1  0  0  0  0
M  END
> <pdb_id>
5ML0

> <uniprot_id>
Q9JHD1

> <usmiles>
ClC=1C(=O)N(N=CC1N[C@H]2CN(CCC2)C)C

$$$$
P2N_A_1214
          07192418153D 1   1.00000     0.00000     0
            
 42 43  0  0  0  0            999 V2000
  -16.6681    3.5983   -1.1737 Cl  0  0  0  0  0  0  0  0  0  0  0  0
  -14.4480    1.2752   -4.0136 O   0  0  0  0  0  0  0  0  0  0  0  0
  -19.5300    1.8588   -6.5105 O   0  0  0  0  0  0  0  0  0  0  0  0
  -18.6191    5.6837   -1.4776 O   0  0  0  0  0  0  0  0  0  0  0  0
  -20.3453    4.3341   -5.7125 O   0  0  0  0  0  0  0  0  0  0  0  0
  -17.2342    1.8629   -6.3728 O   0  0  0  0  0  0  0  0  0  0  0  0
  -17.0742    1.0272   -7.5224 C   0  0  0  0  0  0  0  0  0  0  0  0
  -16.4336    1.7728   -8.6992 C   0  0  0  0  0  0  0  0  0  0  0  0
  -15.5886    2.9703   -8.3330 C   0  0  0  0  0  0  0  0  0  0  0  0
  -14.3267    2.9842   -7.9366 C   0  0  0  0  0  0  0  0  0  0  0  0
  -13.7603    4.3742   -7.6347 C   0  0  0  0  0  0  0  0  0  0  0  0
  -13.2725    4.7384   -6.2132 C   0  0  0  0  0  0  0  0  0  0  0  0
  -13.4200    3.6868   -5.1120 C   0  0  0  0  0  0  0  0  0  0  0  0
  -14.8169    3.5872   -4.4853 C   0  0  0  0  0  0  0  0  0  0  0  0
  -16.6816    1.7891   -3.6461 C   0  0  0  0  0  0  0  0  0  0  0  0
  -19.5299    5.0510   -3.5843 C   0  0  0  0  0  0  0  0  0  0  0  0
  -15.2464    2.1780   -4.0573 C   0  0  0  0  0  0  0  0  0  0  0  0
  -18.5394    2.2100   -5.8926 C   0  0  0  0  0  0  0  0  0  0  0  0
  -18.6371    4.8481   -2.5411 C   0  0  0  0  0  0  0  0  0  0  0  0
  -19.4881    4.1735   -4.6644 C   0  0  0  0  0  0  0  0  0  0  0  0
  -17.7512    3.8032   -2.5681 C   0  0  0  0  0  0  0  0  0  0  0  0
  -17.6863    2.9326   -3.6460 C   0  0  0  0  0  0  0  0  0  0  0  0
  -18.5734    3.1125   -4.6868 C   0  0  0  0  0  0  0  0  0  0  0  0
  -17.9720    5.5290   -0.7310 H   0  0  0  0  0  0  0  0  0  0  0  0
  -20.3125    3.7019   -6.4866 H   0  0  0  0  0  0  0  0  0  0  0  0
  -17.9735    0.6929   -7.8046 H   0  0  0  0  0  0  0  0  0  0  0  0
  -16.4921    0.2517   -7.2777 H   0  0  0  0  0  0  0  0  0  0  0  0
  -17.1682    2.0873   -9.3004 H   0  0  0  0  0  0  0  0  0  0  0  0
  -15.8524    1.1260   -9.1931 H   0  0  0  0  0  0  0  0  0  0  0  0
  -16.0381    3.8612   -8.3983 H   0  0  0  0  0  0  0  0  0  0  0  0
  -13.7837    2.1499   -7.8413 H   0  0  0  0  0  0  0  0  0  0  0  0
  -14.4775    5.0311   -7.8671 H   0  0  0  0  0  0  0  0  0  0  0  0
  -12.9795    4.5030   -8.2460 H   0  0  0  0  0  0  0  0  0  0  0  0
  -13.7826    5.5476   -5.9220 H   0  0  0  0  0  0  0  0  0  0  0  0
  -12.3005    4.9636   -6.2810 H   0  0  0  0  0  0  0  0  0  0  0  0
  -12.7699    3.9074   -4.3849 H   0  0  0  0  0  0  0  0  0  0  0  0
  -13.1925    2.7952   -5.5035 H   0  0  0  0  0  0  0  0  0  0  0  0
  -15.4801    3.9220   -5.1547 H   0  0  0  0  0  0  0  0  0  0  0  0
  -14.8347    4.1744   -3.6760 H   0  0  0  0  0  0  0  0  0  0  0  0
  -16.6465    1.4076   -2.7224 H   0  0  0  0  0  0  0  0  0  0  0  0
  -17.0076    1.0904   -4.2830 H   0  0  0  0  0  0  0  0  0  0  0  0
  -20.1849    5.8064   -3.5607 H   0  0  0  0  0  0  0  0  0  0  0  0
  1 21  1  0  0  0  0
  2 17  2  0  0  0  0
  3 18  2  0  0  0  0
  4 19  1  0  0  0  0
  5 20  1  0  0  0  0
  6  7  1  0  0  0  0
  6 18  1  0  0  0  0
  7  8  1  0  0  0  0
  8  9  1  0  0  0  0
  9 10  2  0  0  0  0
 10 11  1  0  0  0  0
 11 12  1  0  0  0  0
 12 13  1  0  0  0  0
 13 14  1  0  0  0  0
 14 17  1  0  0  0  0
 15 17  1  0  0  0  0
 15 22  1  0  0  0  0
 16 19  2  0  0  0  0
 16 20  1  0  0  0  0
 18 23  1  0  0  0  0
 19 21  1  0  0  0  0
 20 23  2  0  0  0  0
 21 22  2  0  0  0  0
 22 23  1  0  0  0  0
  4 24  1  0  0  0  0
  5 25  1  0  0  0  0
  7 26  1  0  0  0  0
  7 27  1  0  0  0  0
  8 28  1  0  0  0  0
  8 29  1  0  0  0  0
  9 30  1  0  0  0  0
 10 31  1  0  0  0  0
 11 32  1  0  0  0  0
 11 33  1  0  0  0  0
 12 34  1  0  0  0  0
 12 35  1  0  0  0  0
 13 36  1  0  0  0  0
 13 37  1  0  0  0  0
 14 38  1  0  0  0  0
 14 39  1  0  0  0  0
 15 40  1  0  0  0  0
 15 41  1  0  0  0  0
 16 42  1  0  0  0  0
M  END
> <pdb_id>
2CGF

> <uniprot_id>
P02829

> <usmiles>
Clc1c(O)cc(O)c2c1CC(=O)CCCC/C=C/CCOC2=O

$$$$
P35_A_502
          07202406103D 1   1.00000     0.00000     0
            
 50 53  0  0  0  0            999 V2000
  -62.8345   10.0152    9.2260 S   0  0  0  0  0  0  0  0  0  0  0  0
  -63.3225   10.1046    7.8487 O   0  0  0  0  0  0  0  0  0  0  0  0
  -63.0652    8.7386    9.8612 O   0  0  0  0  0  0  0  0  0  0  0  0
  -57.1472   11.5742    9.2001 O   0  0  0  0  0  0  0  0  0  0  0  0
  -61.0430   10.0912   11.5794 O   0  0  0  0  0  0  0  0  0  0  0  0
  -71.9797   12.2177   13.4990 N   0  0  0  0  0  0  0  0  0  0  0  0
  -68.5411   14.1415   11.8362 N   0  0  0  0  0  0  0  0  0  0  0  0
  -63.6364   11.0815   10.1653 N   0  0  0  0  0  0  0  0  0  0  0  0
  -60.5343   10.8397    8.0806 C   0  0  0  0  0  0  0  0  0  0  0  0
  -59.2322   11.2098    8.0497 C   0  0  0  0  0  0  0  0  0  0  0  0
  -66.3235   14.7867   11.0308 C   0  0  0  0  0  0  0  0  0  0  0  0
  -65.0614   14.4929   10.5548 C   0  0  0  0  0  0  0  0  0  0  0  0
  -59.0734   10.8238   10.4033 C   0  0  0  0  0  0  0  0  0  0  0  0
  -66.8826   12.4785   11.2299 C   0  0  0  0  0  0  0  0  0  0  0  0
  -70.6371   11.5602   13.6704 C   0  0  0  0  0  0  0  0  0  0  0  0
  -72.1132   12.9368   12.2023 C   0  0  0  0  0  0  0  0  0  0  0  0
  -63.4544   12.5117    9.9299 C   0  0  0  0  0  0  0  0  0  0  0  0
  -65.0065   10.8269   10.5348 C   0  0  0  0  0  0  0  0  0  0  0  0
  -69.4853   12.5153   13.3741 C   0  0  0  0  0  0  0  0  0  0  0  0
  -70.9664   13.8856   11.9028 C   0  0  0  0  0  0  0  0  0  0  0  0
  -61.2286   10.4760    9.2274 C   0  0  0  0  0  0  0  0  0  0  0  0
  -58.4591   11.2045    9.2188 C   0  0  0  0  0  0  0  0  0  0  0  0
  -60.4261   10.4713   10.4218 C   0  0  0  0  0  0  0  0  0  0  0  0
  -67.2490   13.8070   11.3657 C   0  0  0  0  0  0  0  0  0  0  0  0
  -64.6858   13.1511   10.4078 C   0  0  0  0  0  0  0  0  0  0  0  0
  -65.6349   12.1635   10.7542 C   0  0  0  0  0  0  0  0  0  0  0  0
  -69.6108   13.1978   12.0378 C   0  0  0  0  0  0  0  0  0  0  0  0
  -56.6415   10.8909    9.1672 H   0  0  0  0  0  0  0  0  0  0  0  0
  -60.4933    9.8401   12.1767 H   0  0  0  0  0  0  0  0  0  0  0  0
  -72.6319   11.6179   13.5889 H   0  0  0  0  0  0  0  0  0  0  0  0
  -68.7387   14.9567   12.0252 H   0  0  0  0  0  0  0  0  0  0  0  0
  -60.9897   10.8684    7.2706 H   0  0  0  0  0  0  0  0  0  0  0  0
  -58.7780   11.4661    7.2794 H   0  0  0  0  0  0  0  0  0  0  0  0
  -66.5856   15.6740   11.1195 H   0  0  0  0  0  0  0  0  0  0  0  0
  -64.4942   15.1966   10.3370 H   0  0  0  0  0  0  0  0  0  0  0  0
  -58.5864   10.8263   11.1954 H   0  0  0  0  0  0  0  0  0  0  0  0
  -67.5054   11.8267   11.4581 H   0  0  0  0  0  0  0  0  0  0  0  0
  -70.5705   11.2188   14.5752 H   0  0  0  0  0  0  0  0  0  0  0  0
  -70.5968   10.7687   13.1106 H   0  0  0  0  0  0  0  0  0  0  0  0
  -72.9541   13.4213   12.2072 H   0  0  0  0  0  0  0  0  0  0  0  0
  -72.2238   12.2842   11.4933 H   0  0  0  0  0  0  0  0  0  0  0  0
  -62.6671   12.8444   10.3883 H   0  0  0  0  0  0  0  0  0  0  0  0
  -63.3041   12.6810    8.9864 H   0  0  0  0  0  0  0  0  0  0  0  0
  -65.0534   10.2390   11.3046 H   0  0  0  0  0  0  0  0  0  0  0  0
  -65.4668   10.4014    9.7939 H   0  0  0  0  0  0  0  0  0  0  0  0
  -69.4128   13.1754   14.0818 H   0  0  0  0  0  0  0  0  0  0  0  0
  -68.6568   12.0139   13.4358 H   0  0  0  0  0  0  0  0  0  0  0  0
  -71.0114   14.6612   12.4833 H   0  0  0  0  0  0  0  0  0  0  0  0
  -71.0938   14.2471   11.0116 H   0  0  0  0  0  0  0  0  0  0  0  0
  -69.5515   12.5185   11.3476 H   0  0  0  0  0  0  0  0  0  0  0  0
  1  2  2  0  0  0  0
  1  3  2  0  0  0  0
  1  8  1  0  0  0  0
  1 21  1  0  0  0  0
  4 22  1  0  0  0  0
  4 28  1  0  0  0  0
  5 23  1  0  0  0  0
  5 29  1  0  0  0  0
  6 15  1  0  0  0  0
  6 16  1  0  0  0  0
  6 30  1  0  0  0  0
  7 24  1  0  0  0  0
  7 27  1  0  0  0  0
  7 31  1  0  0  0  0
  8 17  1  0  0  0  0
  8 18  1  0  0  0  0
  9 10  2  0  0  0  0
  9 21  1  0  0  0  0
  9 32  1  0  0  0  0
 10 22  1  0  0  0  0
 10 33  1  0  0  0  0
 11 12  1  0  0  0  0
 11 24  2  0  0  0  0
 11 34  1  0  0  0  0
 12 25  2  0  0  0  0
 12 35  1  0  0  0  0
 13 22  2  0  0  0  0
 13 23  1  0  0  0  0
 13 36  1  0  0  0  0
 14 24  1  0  0  0  0
 14 26  2  0  0  0  0
 14 37  1  0  0  0  0
 15 19  1  0  0  0  0
 15 38  1  0  0  0  0
 15 39  1  0  0  0  0
 16 20  1  0  0  0  0
 16 40  1  0  0  0  0
 16 41  1  0  0  0  0
 17 25  1  0  0  0  0
 17 42  1  0  0  0  0
 17 43  1  0  0  0  0
 18 26  1  0  0  0  0
 18 44  1  0  0  0  0
 18 45  1  0  0  0  0
 19 27  1  0  0  0  0
 19 46  1  0  0  0  0
 19 47  1  0  0  0  0
 20 27  1  0  0  0  0
 20 48  1  0  0  0  0
 20 49  1  0  0  0  0
 21 23  2  0  0  0  0
 25 26  1  0  0  0  0
 27 50  1  0  0  0  0
M  END
> <pdb_id>
5J71

> <uniprot_id>
Q15119

> <usmiles>
S(=O)(=O)(N1Cc2c(ccc(NC3CCNCC3)c2)C1)c4c(O)cc(O)cc4

$$$$
P36_A_401
          07202400263D 1   1.00000     0.00000     0
            
 39 41  0  0  0  0            999 V2000
   -2.5690   -3.8116   20.1735 Br  0  0  0  0  0  0  0  0  0  0  0  0
   -1.1462   -3.8806   22.6283 O   0  0  0  0  0  0  0  0  0  0  0  0
   -3.0401   -0.8095   19.7412 O   0  0  0  0  0  0  0  0  0  0  0  0
   -0.9242   -1.6398   23.1906 N   0  0  0  0  0  0  0  0  0  0  0  0
   -3.3775    0.5528   19.4709 C   0  0  0  0  0  0  0  0  0  0  0  0
   -1.2028   -0.3243   22.8735 C   0  0  0  0  0  0  0  0  0  0  0  0
   -0.1786   -1.9378   24.3888 C   0  0  0  0  0  0  0  0  0  0  0  0
   -5.4531    0.2247   15.7639 C   0  0  0  0  0  0  0  0  0  0  0  0
   -2.4453   -1.8822   27.9619 C   0  0  0  0  0  0  0  0  0  0  0  0
   -4.1365    0.6319   15.7868 C   0  0  0  0  0  0  0  0  0  0  0  0
   -6.0941   -0.0700   16.9469 C   0  0  0  0  0  0  0  0  0  0  0  0
   -2.9873   -2.4195   26.8138 C   0  0  0  0  0  0  0  0  0  0  0  0
   -1.1711   -1.3664   27.9474 C   0  0  0  0  0  0  0  0  0  0  0  0
   -1.8902    0.0016   21.7688 C   0  0  0  0  0  0  0  0  0  0  0  0
   -3.4652    0.7332   16.9870 C   0  0  0  0  0  0  0  0  0  0  0  0
   -5.4277    0.0483   18.1441 C   0  0  0  0  0  0  0  0  0  0  0  0
   -2.2613   -2.4450   25.6435 C   0  0  0  0  0  0  0  0  0  0  0  0
   -0.4370   -1.3839   26.7799 C   0  0  0  0  0  0  0  0  0  0  0  0
   -1.3341   -2.6963   22.4117 C   0  0  0  0  0  0  0  0  0  0  0  0
   -2.0780   -2.3485   21.1929 C   0  0  0  0  0  0  0  0  0  0  0  0
   -2.3361   -1.0638   20.9057 C   0  0  0  0  0  0  0  0  0  0  0  0
   -4.1082    0.4485   18.1700 C   0  0  0  0  0  0  0  0  0  0  0  0
   -0.9860   -1.9251   25.6340 C   0  0  0  0  0  0  0  0  0  0  0  0
   -2.5575    1.1180   19.3813 H   0  0  0  0  0  0  0  0  0  0  0  0
   -3.9652    0.9292   20.1871 H   0  0  0  0  0  0  0  0  0  0  0  0
   -0.8844    0.4024   23.4822 H   0  0  0  0  0  0  0  0  0  0  0  0
    0.5491   -1.2581   24.4812 H   0  0  0  0  0  0  0  0  0  0  0  0
    0.2254   -2.8469   24.2875 H   0  0  0  0  0  0  0  0  0  0  0  0
   -5.9398    0.1439   14.8940 H   0  0  0  0  0  0  0  0  0  0  0  0
   -2.9800   -1.8677   28.8068 H   0  0  0  0  0  0  0  0  0  0  0  0
   -3.6675    0.8540   14.9319 H   0  0  0  0  0  0  0  0  0  0  0  0
   -7.0476   -0.3711   16.9353 H   0  0  0  0  0  0  0  0  0  0  0  0
   -3.9145   -2.7936   26.8308 H   0  0  0  0  0  0  0  0  0  0  0  0
   -0.7775   -0.9795   28.7813 H   0  0  0  0  0  0  0  0  0  0  0  0
   -2.0880    0.9571   21.5498 H   0  0  0  0  0  0  0  0  0  0  0  0
   -2.5058    1.0151   16.9978 H   0  0  0  0  0  0  0  0  0  0  0  0
   -5.9024   -0.1568   19.0000 H   0  0  0  0  0  0  0  0  0  0  0  0
   -2.6551   -2.8359   24.8116 H   0  0  0  0  0  0  0  0  0  0  0  0
    0.4888   -1.0063   26.7632 H   0  0  0  0  0  0  0  0  0  0  0  0
  1 20  1  0  0  0  0
  2 19  2  0  0  0  0
  3  5  1  0  0  0  0
  3 21  1  0  0  0  0
  4  6  1  0  0  0  0
  4  7  1  0  0  0  0
  4 19  1  0  0  0  0
  5 22  1  0  0  0  0
  6 14  2  0  0  0  0
  7 23  1  0  0  0  0
  8 10  2  0  0  0  0
  8 11  1  0  0  0  0
  9 12  2  0  0  0  0
  9 13  1  0  0  0  0
 10 15  1  0  0  0  0
 11 16  2  0  0  0  0
 12 17  1  0  0  0  0
 13 18  2  0  0  0  0
 14 21  1  0  0  0  0
 15 22  2  0  0  0  0
 16 22  1  0  0  0  0
 17 23  2  0  0  0  0
 18 23  1  0  0  0  0
 19 20  1  0  0  0  0
 20 21  2  0  0  0  0
  5 24  1  0  0  0  0
  5 25  1  0  0  0  0
  6 26  1  0  0  0  0
  7 27  1  0  0  0  0
  7 28  1  0  0  0  0
  8 29  1  0  0  0  0
  9 30  1  0  0  0  0
 10 31  1  0  0  0  0
 11 32  1  0  0  0  0
 12 33  1  0  0  0  0
 13 34  1  0  0  0  0
 14 35  1  0  0  0  0
 15 36  1  0  0  0  0
 16 37  1  0  0  0  0
 17 38  1  0  0  0  0
 18 39  1  0  0  0  0
M  END
> <pdb_id>
3HP2

> <uniprot_id>
Q16539

> <usmiles>
BrC=1C(=O)N(C=CC1OCc2ccccc2)Cc3ccccc3

$$$$
P3Y_A_1
          07192422043D 1   1.00000     0.00000     0
            
 48 51  0  0  0  0            999 V2000
   40.2876   -7.6094  -29.4488 O   0  0  0  0  0  0  0  0  0  0  0  0
   35.8284   -6.3113  -21.4663 O   0  0  0  0  0  0  0  0  0  0  0  0
   37.8770   -5.0834  -26.8684 N   0  0  0  0  0  0  0  0  0  0  0  0
   34.2410   -9.7543  -25.1707 N   0  0  0  0  0  0  0  0  0  0  0  0
   33.6553  -10.4715  -22.8985 N   0  0  0  0  0  0  0  0  0  0  0  0
   38.3093   -8.1608  -30.4327 N   0  0  0  0  0  0  0  0  0  0  0  0
   35.6974   -4.8997  -21.2059 C   0  0  0  0  0  0  0  0  0  0  0  0
   37.1058   -7.5499  -31.0423 C   0  0  0  0  0  0  0  0  0  0  0  0
   38.8276   -9.4236  -31.0034 C   0  0  0  0  0  0  0  0  0  0  0  0
   38.5158   -5.6345  -27.9512 C   0  0  0  0  0  0  0  0  0  0  0  0
   37.0858   -5.8820  -26.0737 C   0  0  0  0  0  0  0  0  0  0  0  0
   35.0261   -8.9823  -25.9804 C   0  0  0  0  0  0  0  0  0  0  0  0
   34.1921  -10.1097  -21.6857 C   0  0  0  0  0  0  0  0  0  0  0  0
   37.5480   -7.6528  -18.3827 C   0  0  0  0  0  0  0  0  0  0  0  0
   37.2764   -9.0219  -18.5297 C   0  0  0  0  0  0  0  0  0  0  0  0
   37.0835   -6.7395  -19.3421 C   0  0  0  0  0  0  0  0  0  0  0  0
   36.5328   -9.4803  -19.6421 C   0  0  0  0  0  0  0  0  0  0  0  0
   37.5531   -7.8123  -27.4313 C   0  0  0  0  0  0  0  0  0  0  0  0
   36.1871   -8.1438  -24.0358 C   0  0  0  0  0  0  0  0  0  0  0  0
   39.0628   -7.5964  -29.4160 C   0  0  0  0  0  0  0  0  0  0  0  0
   34.3882   -9.7493  -23.8069 C   0  0  0  0  0  0  0  0  0  0  0  0
   36.3225   -7.1840  -20.4807 C   0  0  0  0  0  0  0  0  0  0  0  0
   38.3691   -7.0132  -28.2621 C   0  0  0  0  0  0  0  0  0  0  0  0
   36.8968   -7.2758  -26.3255 C   0  0  0  0  0  0  0  0  0  0  0  0
   36.0339   -8.1389  -25.4456 C   0  0  0  0  0  0  0  0  0  0  0  0
   35.2546   -9.1731  -21.7803 C   0  0  0  0  0  0  0  0  0  0  0  0
   36.0468   -8.5899  -20.6306 C   0  0  0  0  0  0  0  0  0  0  0  0
   35.3447   -8.9660  -23.2024 C   0  0  0  0  0  0  0  0  0  0  0  0
   32.9070  -11.1104  -23.0769 H   0  0  0  0  0  0  0  0  0  0  0  0
   35.3323   -4.4435  -22.0174 H   0  0  0  0  0  0  0  0  0  0  0  0
   35.0747   -4.7591  -20.4361 H   0  0  0  0  0  0  0  0  0  0  0  0
   36.5941   -4.5171  -20.9834 H   0  0  0  0  0  0  0  0  0  0  0  0
   36.8759   -6.7079  -30.5543 H   0  0  0  0  0  0  0  0  0  0  0  0
   37.2890   -7.3392  -32.0026 H   0  0  0  0  0  0  0  0  0  0  0  0
   36.3400   -8.1900  -30.9817 H   0  0  0  0  0  0  0  0  0  0  0  0
   39.6369   -9.7130  -30.4922 H   0  0  0  0  0  0  0  0  0  0  0  0
   38.1236  -10.1311  -30.9414 H   0  0  0  0  0  0  0  0  0  0  0  0
   39.0726   -9.2803  -31.9623 H   0  0  0  0  0  0  0  0  0  0  0  0
   39.0926   -5.0575  -28.5294 H   0  0  0  0  0  0  0  0  0  0  0  0
   36.6243   -5.4698  -25.2881 H   0  0  0  0  0  0  0  0  0  0  0  0
   34.8873   -9.0125  -26.9703 H   0  0  0  0  0  0  0  0  0  0  0  0
   33.8633  -10.4740  -20.8144 H   0  0  0  0  0  0  0  0  0  0  0  0
   38.0720   -7.3283  -17.5952 H   0  0  0  0  0  0  0  0  0  0  0  0
   37.6087   -9.6735  -17.8478 H   0  0  0  0  0  0  0  0  0  0  0  0
   37.2840   -5.7659  -19.2332 H   0  0  0  0  0  0  0  0  0  0  0  0
   36.3453  -10.4584  -19.7331 H   0  0  0  0  0  0  0  0  0  0  0  0
   37.4441   -8.7839  -27.6411 H   0  0  0  0  0  0  0  0  0  0  0  0
   36.8886   -7.5695  -23.6139 H   0  0  0  0  0  0  0  0  0  0  0  0
  1 20  2  0  0  0  0
  2  7  1  0  0  0  0
  2 22  1  0  0  0  0
  3 10  2  0  0  0  0
  3 11  1  0  0  0  0
  4 12  2  0  0  0  0
  4 21  1  0  0  0  0
  5 13  1  0  0  0  0
  5 21  1  0  0  0  0
  6  8  1  0  0  0  0
  6  9  1  0  0  0  0
  6 20  1  0  0  0  0
 10 23  1  0  0  0  0
 11 24  2  0  0  0  0
 12 25  1  0  0  0  0
 13 26  2  0  0  0  0
 14 15  2  0  0  0  0
 14 16  1  0  0  0  0
 15 17  1  0  0  0  0
 16 22  2  0  0  0  0
 17 27  2  0  0  0  0
 18 23  2  0  0  0  0
 18 24  1  0  0  0  0
 19 25  2  0  0  0  0
 19 28  1  0  0  0  0
 20 23  1  0  0  0  0
 21 28  2  0  0  0  0
 22 27  1  0  0  0  0
 24 25  1  0  0  0  0
 26 27  1  0  0  0  0
 26 28  1  0  0  0  0
  5 29  1  0  0  0  0
  7 30  1  0  0  0  0
  7 31  1  0  0  0  0
  7 32  1  0  0  0  0
  8 33  1  0  0  0  0
  8 34  1  0  0  0  0
  8 35  1  0  0  0  0
  9 36  1  0  0  0  0
  9 37  1  0  0  0  0
  9 38  1  0  0  0  0
 10 39  1  0  0  0  0
 11 40  1  0  0  0  0
 12 41  1  0  0  0  0
 13 42  1  0  0  0  0
 14 43  1  0  0  0  0
 15 44  1  0  0  0  0
 16 45  1  0  0  0  0
 17 46  1  0  0  0  0
 18 47  1  0  0  0  0
 19 48  1  0  0  0  0
M  END
> <pdb_id>
2QOH

> <uniprot_id>
P00520

> <usmiles>
O=C(N(C)C)c1cncc(c2cnc3NC=C(c4c(OC)cccc4)c3c2)c1

$$$$
P3Y_A_1
          07202400343D 1   1.00000     0.00000     0
            
 48 51  0  0  0  0            999 V2000
   22.2250   -7.4060    3.8850 O   0  0  0  0  0  0  0  0  0  0  0  0
   17.7490   -5.5430   11.8760 O   0  0  0  0  0  0  0  0  0  0  0  0
   19.9670   -4.5750    6.3890 N   0  0  0  0  0  0  0  0  0  0  0  0
   16.5060   -9.2590    8.3320 N   0  0  0  0  0  0  0  0  0  0  0  0
   15.9650   -9.8960   10.6090 N   0  0  0  0  0  0  0  0  0  0  0  0
   20.2490   -7.4680    2.6990 N   0  0  0  0  0  0  0  0  0  0  0  0
   17.6720   -4.1120   12.0080 C   0  0  0  0  0  0  0  0  0  0  0  0
   18.7740   -7.4760    2.6120 C   0  0  0  0  0  0  0  0  0  0  0  0
   21.0070   -7.9270    1.5160 C   0  0  0  0  0  0  0  0  0  0  0  0
   20.5360   -5.1640    5.2910 C   0  0  0  0  0  0  0  0  0  0  0  0
   19.2180   -5.3330    7.2550 C   0  0  0  0  0  0  0  0  0  0  0  0
   17.2470   -8.4830    7.4880 C   0  0  0  0  0  0  0  0  0  0  0  0
   16.4730   -9.4440   11.7990 C   0  0  0  0  0  0  0  0  0  0  0  0
   19.6640   -6.6250   14.9760 C   0  0  0  0  0  0  0  0  0  0  0  0
   19.5160   -8.0170   14.8690 C   0  0  0  0  0  0  0  0  0  0  0  0
   19.0910   -5.7890   14.0020 C   0  0  0  0  0  0  0  0  0  0  0  0
   18.8000   -8.5850   13.7850 C   0  0  0  0  0  0  0  0  0  0  0  0
   19.6030   -7.3100    5.9250 C   0  0  0  0  0  0  0  0  0  0  0  0
   18.3460   -7.4790    9.3900 C   0  0  0  0  0  0  0  0  0  0  0  0
   21.0130   -7.1580    3.8420 C   0  0  0  0  0  0  0  0  0  0  0  0
   16.6440   -9.1800    9.6830 C   0  0  0  0  0  0  0  0  0  0  0  0
   18.3520   -6.3410   12.8870 C   0  0  0  0  0  0  0  0  0  0  0  0
   20.3730   -6.5440    5.0260 C   0  0  0  0  0  0  0  0  0  0  0  0
   19.0080   -6.7250    7.0540 C   0  0  0  0  0  0  0  0  0  0  0  0
   18.1980   -7.5600    7.9830 C   0  0  0  0  0  0  0  0  0  0  0  0
   17.4640   -8.4560   11.6670 C   0  0  0  0  0  0  0  0  0  0  0  0
   18.2100   -7.7730   12.7840 C   0  0  0  0  0  0  0  0  0  0  0  0
   17.5490   -8.3090   10.2520 C   0  0  0  0  0  0  0  0  0  0  0  0
   15.2603  -10.5898   10.4604 H   0  0  0  0  0  0  0  0  0  0  0  0
   17.2180   -3.7271   11.2044 H   0  0  0  0  0  0  0  0  0  0  0  0
   17.1497   -3.8806   12.8288 H   0  0  0  0  0  0  0  0  0  0  0  0
   18.5948   -3.7340   12.0825 H   0  0  0  0  0  0  0  0  0  0  0  0
   18.3875   -7.1448    3.4728 H   0  0  0  0  0  0  0  0  0  0  0  0
   18.4810   -6.8805    1.8640 H   0  0  0  0  0  0  0  0  0  0  0  0
   18.4553   -8.4082    2.4403 H   0  0  0  0  0  0  0  0  0  0  0  0
   21.9872   -7.8718    1.7061 H   0  0  0  0  0  0  0  0  0  0  0  0
   20.7605   -8.8737    1.3089 H   0  0  0  0  0  0  0  0  0  0  0  0
   20.7862   -7.3460    0.7326 H   0  0  0  0  0  0  0  0  0  0  0  0
   21.0786   -4.6062    4.6629 H   0  0  0  0  0  0  0  0  0  0  0  0
   18.8069   -4.8919    8.0528 H   0  0  0  0  0  0  0  0  0  0  0  0
   17.1150   -8.5687    6.5005 H   0  0  0  0  0  0  0  0  0  0  0  0
   16.1647   -9.7880   12.6859 H   0  0  0  0  0  0  0  0  0  0  0  0
   20.1740   -6.2306   15.7405 H   0  0  0  0  0  0  0  0  0  0  0  0
   19.9191   -8.6131   15.5634 H   0  0  0  0  0  0  0  0  0  0  0  0
   19.1957   -4.7976   14.0808 H   0  0  0  0  0  0  0  0  0  0  0  0
   18.7093   -9.5791   13.7254 H   0  0  0  0  0  0  0  0  0  0  0  0
   19.4784   -8.2876    5.7554 H   0  0  0  0  0  0  0  0  0  0  0  0
   19.0077   -6.8418    9.7851 H   0  0  0  0  0  0  0  0  0  0  0  0
  1 20  2  0  0  0  0
  2  7  1  0  0  0  0
  2 22  1  0  0  0  0
  3 10  2  0  0  0  0
  3 11  1  0  0  0  0
  4 12  2  0  0  0  0
  4 21  1  0  0  0  0
  5 13  1  0  0  0  0
  5 21  1  0  0  0  0
  6  8  1  0  0  0  0
  6  9  1  0  0  0  0
  6 20  1  0  0  0  0
 10 23  1  0  0  0  0
 11 24  2  0  0  0  0
 12 25  1  0  0  0  0
 13 26  2  0  0  0  0
 14 15  2  0  0  0  0
 14 16  1  0  0  0  0
 15 17  1  0  0  0  0
 16 22  2  0  0  0  0
 17 27  2  0  0  0  0
 18 23  2  0  0  0  0
 18 24  1  0  0  0  0
 19 25  2  0  0  0  0
 19 28  1  0  0  0  0
 20 23  1  0  0  0  0
 21 28  2  0  0  0  0
 22 27  1  0  0  0  0
 24 25  1  0  0  0  0
 26 27  1  0  0  0  0
 26 28  1  0  0  0  0
  5 29  1  0  0  0  0
  7 30  1  0  0  0  0
  7 31  1  0  0  0  0
  7 32  1  0  0  0  0
  8 33  1  0  0  0  0
  8 34  1  0  0  0  0
  8 35  1  0  0  0  0
  9 36  1  0  0  0  0
  9 37  1  0  0  0  0
  9 38  1  0  0  0  0
 10 39  1  0  0  0  0
 11 40  1  0  0  0  0
 12 41  1  0  0  0  0
 13 42  1  0  0  0  0
 14 43  1  0  0  0  0
 15 44  1  0  0  0  0
 16 45  1  0  0  0  0
 17 46  1  0  0  0  0
 18 47  1  0  0  0  0
 19 48  1  0  0  0  0
M  END
> <pdb_id>
2Z60

> <uniprot_id>
P00520

> <usmiles>
O=C(N(C)C)c1cncc(c2cnc3NC=C(c4c(OC)cccc4)c3c2)c1

$$$$
P43_B_1263
          07192422123D 1   1.00000     0.00000     0
            
 53 56  0  0  0  0            999 V2000
   38.1390   45.6120   -7.2860 F   0  0  0  0  0  0  0  0  0  0  0  0
   29.6200   44.4840   -7.4580 O   0  0  0  0  0  0  0  0  0  0  0  0
   32.3850   44.6590   -7.0620 O   0  0  0  0  0  0  0  0  0  0  0  0
   29.7250   37.1370  -10.7880 N   0  0  0  0  0  0  0  0  0  0  0  0
   29.6020   42.6010   -6.0150 N   0  0  0  0  0  0  0  0  0  0  0  0
   30.6660   36.8370   -9.6740 C   0  0  0  0  0  0  0  0  0  0  0  0
   28.2360   42.0810   -6.4140 C   0  0  0  0  0  0  0  0  0  0  0  0
   30.3510   41.7160   -4.9200 C   0  0  0  0  0  0  0  0  0  0  0  0
   38.4780   47.2040  -10.7470 C   0  0  0  0  0  0  0  0  0  0  0  0
   37.1170   47.3110  -11.2330 C   0  0  0  0  0  0  0  0  0  0  0  0
   29.1700   35.8680   -6.0860 C   0  0  0  0  0  0  0  0  0  0  0  0
   38.8490   46.6690   -9.4310 C   0  0  0  0  0  0  0  0  0  0  0  0
   29.6830   35.7830   -7.4960 C   0  0  0  0  0  0  0  0  0  0  0  0
   28.2300   40.6080   -6.8250 C   0  0  0  0  0  0  0  0  0  0  0  0
   30.5380   40.2380   -5.3380 C   0  0  0  0  0  0  0  0  0  0  0  0
   33.5150   44.8800   -5.1790 C   0  0  0  0  0  0  0  0  0  0  0  0
   34.5250   45.5160   -7.4520 C   0  0  0  0  0  0  0  0  0  0  0  0
   32.1540   44.3260   -4.8810 C   0  0  0  0  0  0  0  0  0  0  0  0
   36.0750   46.8230  -10.3330 C   0  0  0  0  0  0  0  0  0  0  0  0
   28.9280   37.1870   -5.5670 C   0  0  0  0  0  0  0  0  0  0  0  0
   35.3950   45.8630   -8.1650 C   0  0  0  0  0  0  0  0  0  0  0  0
   29.8380   38.2860   -7.7750 C   0  0  0  0  0  0  0  0  0  0  0  0
   37.8100   46.1790   -8.5390 C   0  0  0  0  0  0  0  0  0  0  0  0
   30.1760   43.7470   -6.5520 C   0  0  0  0  0  0  0  0  0  0  0  0
   33.5380   45.0390   -6.5420 C   0  0  0  0  0  0  0  0  0  0  0  0
   31.5450   44.2210   -6.0910 C   0  0  0  0  0  0  0  0  0  0  0  0
   30.0500   36.9820   -8.2740 C   0  0  0  0  0  0  0  0  0  0  0  0
   36.4440   46.2830   -9.0230 C   0  0  0  0  0  0  0  0  0  0  0  0
   29.0390   39.7260   -5.7870 C   0  0  0  0  0  0  0  0  0  0  0  0
   29.2500   38.3620   -6.3670 C   0  0  0  0  0  0  0  0  0  0  0  0
   30.1960   37.0214  -11.6625 H   0  0  0  0  0  0  0  0  0  0  0  0
   28.9459   36.5116  -10.7438 H   0  0  0  0  0  0  0  0  0  0  0  0
   31.4423   37.4637   -9.7417 H   0  0  0  0  0  0  0  0  0  0  0  0
   30.9872   35.8959   -9.7795 H   0  0  0  0  0  0  0  0  0  0  0  0
   27.9051   42.6246   -7.1854 H   0  0  0  0  0  0  0  0  0  0  0  0
   27.6168   42.1937   -5.6369 H   0  0  0  0  0  0  0  0  0  0  0  0
   29.8167   41.7401   -4.0750 H   0  0  0  0  0  0  0  0  0  0  0  0
   31.2534   42.1143   -4.7553 H   0  0  0  0  0  0  0  0  0  0  0  0
   39.2139   47.5154  -11.3483 H   0  0  0  0  0  0  0  0  0  0  0  0
   36.9038   47.6960  -12.1310 H   0  0  0  0  0  0  0  0  0  0  0  0
   29.0053   35.0488   -5.5366 H   0  0  0  0  0  0  0  0  0  0  0  0
   39.8084   46.6417   -9.1502 H   0  0  0  0  0  0  0  0  0  0  0  0
   29.7789   34.8832   -7.9216 H   0  0  0  0  0  0  0  0  0  0  0  0
   28.6505   40.5186   -7.7279 H   0  0  0  0  0  0  0  0  0  0  0  0
   27.2850   40.2831   -6.8638 H   0  0  0  0  0  0  0  0  0  0  0  0
   30.8784   39.6962   -4.5695 H   0  0  0  0  0  0  0  0  0  0  0  0
   31.1769   40.1680   -6.1041 H   0  0  0  0  0  0  0  0  0  0  0  0
   34.2451   45.0878   -4.5280 H   0  0  0  0  0  0  0  0  0  0  0  0
   31.7767   44.0861   -3.9865 H   0  0  0  0  0  0  0  0  0  0  0  0
   35.1148   46.8576  -10.6101 H   0  0  0  0  0  0  0  0  0  0  0  0
   28.5371   37.2986   -4.6533 H   0  0  0  0  0  0  0  0  0  0  0  0
   30.0578   39.1038   -8.3069 H   0  0  0  0  0  0  0  0  0  0  0  0
   28.4832   39.6299   -4.9612 H   0  0  0  0  0  0  0  0  0  0  0  0
  1 23  1  0  0  0  0
  2 24  2  0  0  0  0
  3 25  1  0  0  0  0
  3 26  1  0  0  0  0
  4  6  1  0  0  0  0
  5  7  1  0  0  0  0
  5  8  1  0  0  0  0
  5 24  1  0  0  0  0
  6 27  1  0  0  0  0
  7 14  1  0  0  0  0
  8 15  1  0  0  0  0
  9 10  2  0  0  0  0
  9 12  1  0  0  0  0
 10 19  1  0  0  0  0
 11 13  2  0  0  0  0
 11 20  1  0  0  0  0
 12 23  2  0  0  0  0
 13 27  1  0  0  0  0
 14 29  1  0  0  0  0
 15 29  1  0  0  0  0
 16 18  1  0  0  0  0
 16 25  2  0  0  0  0
 17 21  3  0  0  0  0
 17 25  1  0  0  0  0
 18 26  2  0  0  0  0
 19 28  2  0  0  0  0
 20 30  2  0  0  0  0
 21 28  1  0  0  0  0
 22 27  2  0  0  0  0
 22 30  1  0  0  0  0
 23 28  1  0  0  0  0
 24 26  1  0  0  0  0
 29 30  1  0  0  0  0
  4 31  1  0  0  0  0
  4 32  1  0  0  0  0
  6 33  1  0  0  0  0
  6 34  1  0  0  0  0
  7 35  1  0  0  0  0
  7 36  1  0  0  0  0
  8 37  1  0  0  0  0
  8 38  1  0  0  0  0
  9 39  1  0  0  0  0
 10 40  1  0  0  0  0
 11 41  1  0  0  0  0
 12 42  1  0  0  0  0
 13 43  1  0  0  0  0
 14 44  1  0  0  0  0
 14 45  1  0  0  0  0
 15 46  1  0  0  0  0
 15 47  1  0  0  0  0
 16 48  1  0  0  0  0
 18 49  1  0  0  0  0
 19 50  1  0  0  0  0
 20 51  1  0  0  0  0
 22 52  1  0  0  0  0
 29 53  1  0  0  0  0
M  END
> <pdb_id>
4A6L

> <uniprot_id>
Q15661

> <usmiles>
Fc1c(C#CC=2OC(C(=O)N3CCC(c4cc(ccc4)CN)CC3)=CC2)cccc1

$$$$
P46_A_501
          07202406103D 1   1.00000     0.00000     0
            
 64 67  0  0  0  0            999 V2000
  -62.8390    9.9520    9.2030 S   0  0  0  0  0  0  0  0  0  0  0  0
  -63.3050   10.1050    7.8710 O   0  0  0  0  0  0  0  0  0  0  0  0
  -62.9890    8.7080    9.8740 O   0  0  0  0  0  0  0  0  0  0  0  0
  -73.3280   15.9690   13.3380 O   0  0  0  0  0  0  0  0  0  0  0  0
  -57.2010   11.5820    9.1470 O   0  0  0  0  0  0  0  0  0  0  0  0
  -72.4280   11.7400   16.0140 O   0  0  0  0  0  0  0  0  0  0  0  0
  -61.0220    9.9920   11.5720 O   0  0  0  0  0  0  0  0  0  0  0  0
  -75.5280   15.4780   13.4650 N   0  0  0  0  0  0  0  0  0  0  0  0
  -74.9760   12.5340   16.1020 N   0  0  0  0  0  0  0  0  0  0  0  0
  -68.6400   14.2730   11.8540 N   0  0  0  0  0  0  0  0  0  0  0  0
  -63.7120   11.0510   10.0660 N   0  0  0  0  0  0  0  0  0  0  0  0
  -71.9390   12.2750   13.8790 N   0  0  0  0  0  0  0  0  0  0  0  0
  -72.2350   12.9420   12.5970 C   0  0  0  0  0  0  0  0  0  0  0  0
  -70.6500   11.5690   13.8060 C   0  0  0  0  0  0  0  0  0  0  0  0
  -63.5400   12.5440    9.8590 C   0  0  0  0  0  0  0  0  0  0  0  0
  -65.1180   10.8430   10.4930 C   0  0  0  0  0  0  0  0  0  0  0  0
  -71.1500   13.9300   12.1910 C   0  0  0  0  0  0  0  0  0  0  0  0
  -69.5210   12.5310   13.4490 C   0  0  0  0  0  0  0  0  0  0  0  0
  -60.5800   10.8370    8.0730 C   0  0  0  0  0  0  0  0  0  0  0  0
  -59.2550   11.2330    8.0230 C   0  0  0  0  0  0  0  0  0  0  0  0
  -66.4130   14.9260   10.9720 C   0  0  0  0  0  0  0  0  0  0  0  0
  -65.1460   14.5520   10.4720 C   0  0  0  0  0  0  0  0  0  0  0  0
  -73.9820   14.6540   15.2480 C   0  0  0  0  0  0  0  0  0  0  0  0
  -59.0660   10.7830   10.3960 C   0  0  0  0  0  0  0  0  0  0  0  0
  -66.9770   12.5790   11.2130 C   0  0  0  0  0  0  0  0  0  0  0  0
  -74.2300   15.4170   13.9640 C   0  0  0  0  0  0  0  0  0  0  0  0
  -61.2210   10.3880    9.2360 C   0  0  0  0  0  0  0  0  0  0  0  0
  -58.4970   11.1990    9.1860 C   0  0  0  0  0  0  0  0  0  0  0  0
  -72.7870   12.3400   14.9920 C   0  0  0  0  0  0  0  0  0  0  0  0
  -60.4190   10.4090   10.3900 C   0  0  0  0  0  0  0  0  0  0  0  0
  -74.1690   13.1060   15.0340 C   0  0  1  0  0  0  0  0  0  0  0  0
  -69.7080   13.3230   12.1220 C   0  0  0  0  0  0  0  0  0  0  0  0
  -67.3510   13.9670   11.3550 C   0  0  0  0  0  0  0  0  0  0  0  0
  -64.8130   13.1970   10.3520 C   0  0  0  0  0  0  0  0  0  0  0  0
  -65.7360   12.2230   10.7270 C   0  0  0  0  0  0  0  0  0  0  0  0
  -56.6480   11.5606    9.9799 H   0  0  0  0  0  0  0  0  0  0  0  0
  -61.9855    9.7243   11.5744 H   0  0  0  0  0  0  0  0  0  0  0  0
  -76.2754   15.0350   13.9602 H   0  0  0  0  0  0  0  0  0  0  0  0
  -75.7131   15.9648   12.6113 H   0  0  0  0  0  0  0  0  0  0  0  0
  -75.0836   11.5517   15.9489 H   0  0  0  0  0  0  0  0  0  0  0  0
  -74.5232   12.6869   16.9804 H   0  0  0  0  0  0  0  0  0  0  0  0
  -68.8351   15.2359   12.0403 H   0  0  0  0  0  0  0  0  0  0  0  0
  -73.1011   13.4343   12.6839 H   0  0  0  0  0  0  0  0  0  0  0  0
  -72.3176   12.2453   11.8844 H   0  0  0  0  0  0  0  0  0  0  0  0
  -70.7063   10.8565   13.1066 H   0  0  0  0  0  0  0  0  0  0  0  0
  -70.4553   11.1507   14.6932 H   0  0  0  0  0  0  0  0  0  0  0  0
  -63.4024   12.7445    8.8890 H   0  0  0  0  0  0  0  0  0  0  0  0
  -62.7559   12.8771   10.3827 H   0  0  0  0  0  0  0  0  0  0  0  0
  -65.1428   10.3099   11.3387 H   0  0  0  0  0  0  0  0  0  0  0  0
  -65.6237   10.3590    9.7789 H   0  0  0  0  0  0  0  0  0  0  0  0
  -71.1427   14.6762   12.8567 H   0  0  0  0  0  0  0  0  0  0  0  0
  -71.3797   14.2916   11.2874 H   0  0  0  0  0  0  0  0  0  0  0  0
  -68.6766   12.0005   13.3745 H   0  0  0  0  0  0  0  0  0  0  0  0
  -69.4341   13.1933   14.1932 H   0  0  0  0  0  0  0  0  0  0  0  0
  -61.1129   10.8734    7.2276 H   0  0  0  0  0  0  0  0  0  0  0  0
  -58.8492   11.5392    7.1618 H   0  0  0  0  0  0  0  0  0  0  0  0
  -66.6418   15.8961   11.0529 H   0  0  0  0  0  0  0  0  0  0  0  0
  -64.4869   15.2546   10.2038 H   0  0  0  0  0  0  0  0  0  0  0  0
  -74.6279   14.9676   15.9440 H   0  0  0  0  0  0  0  0  0  0  0  0
  -73.0474   14.8302   15.5570 H   0  0  0  0  0  0  0  0  0  0  0  0
  -58.5260   10.7533   11.2371 H   0  0  0  0  0  0  0  0  0  0  0  0
  -67.6279   11.8650   11.4710 H   0  0  0  0  0  0  0  0  0  0  0  0
  -74.6410   12.9594   14.1647 H   0  0  0  0  0  0  0  0  0  0  0  0
  -69.7037   12.6560   11.3769 H   0  0  0  0  0  0  0  0  0  0  0  0
  1  2  2  0  0  0  0
  1  3  2  0  0  0  0
  1 11  1  0  0  0  0
  1 27  1  0  0  0  0
  4 26  2  0  0  0  0
  5 28  1  0  0  0  0
  6 29  2  0  0  0  0
  7 30  1  0  0  0  0
  8 26  1  0  0  0  0
  9 31  1  0  0  0  0
 10 32  1  0  0  0  0
 10 33  1  0  0  0  0
 11 15  1  0  0  0  0
 11 16  1  0  0  0  0
 12 13  1  0  0  0  0
 12 14  1  0  0  0  0
 12 29  1  0  0  0  0
 13 17  1  0  0  0  0
 14 18  1  0  0  0  0
 15 34  1  0  0  0  0
 16 35  1  0  0  0  0
 17 32  1  0  0  0  0
 18 32  1  0  0  0  0
 19 20  1  0  0  0  0
 19 27  2  0  0  0  0
 20 28  2  0  0  0  0
 21 22  1  0  0  0  0
 21 33  2  0  0  0  0
 22 34  2  0  0  0  0
 23 26  1  0  0  0  0
 23 31  1  0  0  0  0
 24 28  1  0  0  0  0
 24 30  2  0  0  0  0
 25 33  1  0  0  0  0
 25 35  2  0  0  0  0
 27 30  1  0  0  0  0
 29 31  1  0  0  0  0
 34 35  1  0  0  0  0
  5 36  1  0  0  0  0
  7 37  1  0  0  0  0
  8 38  1  0  0  0  0
  8 39  1  0  0  0  0
  9 40  1  0  0  0  0
  9 41  1  0  0  0  0
 10 42  1  0  0  0  0
 13 43  1  0  0  0  0
 13 44  1  0  0  0  0
 14 45  1  0  0  0  0
 14 46  1  0  0  0  0
 15 47  1  0  0  0  0
 15 48  1  0  0  0  0
 16 49  1  0  0  0  0
 16 50  1  0  0  0  0
 17 51  1  0  0  0  0
 17 52  1  0  0  0  0
 18 53  1  0  0  0  0
 18 54  1  0  0  0  0
 19 55  1  0  0  0  0
 20 56  1  0  0  0  0
 21 57  1  0  0  0  0
 22 58  1  0  0  0  0
 23 59  1  0  0  0  0
 23 60  1  0  0  0  0
 24 61  1  0  0  0  0
 25 62  1  0  0  0  0
 31 63  1  0  0  0  0
 32 64  1  0  0  0  0
M  END
> <pdb_id>
5J6A

> <uniprot_id>
Q15119

> <usmiles>
S(=O)(=O)(N1Cc2c(ccc(NC3CCN(C(=O)[C@@H](N)CC(=O)N)CC3)c2)C1)c4c(O)cc(O)cc4

$$$$
P57_A_301
          07212403273D 1   1.00000     0.00000     0
            
 36 39  0  0  0  0            999 V2000
  -15.5650  -26.2930   -3.0460 N   0  0  0  0  0  0  0  0  0  0  0  0
  -13.8330  -31.9320   -5.6360 N   0  0  0  0  0  0  0  0  0  0  0  0
  -15.7320  -28.2370   -3.9370 N   0  0  0  0  0  0  0  0  0  0  0  0
  -16.4130  -27.2220   -3.4380 C   0  0  0  0  0  0  0  0  0  0  0  0
  -14.3280  -26.7230   -3.2550 C   0  0  0  0  0  0  0  0  0  0  0  0
  -14.4360  -27.9750   -3.8310 C   0  0  0  0  0  0  0  0  0  0  0  0
  -16.3250  -29.4510   -4.4790 C   0  0  0  0  0  0  0  0  0  0  0  0
  -14.8860  -28.9700   -9.6410 C   0  0  0  0  0  0  0  0  0  0  0  0
  -14.5450  -30.3100   -9.5890 C   0  0  0  0  0  0  0  0  0  0  0  0
  -15.1500  -28.2540   -8.4930 C   0  0  0  0  0  0  0  0  0  0  0  0
  -13.5780  -33.4410   -2.2120 C   0  0  0  0  0  0  0  0  0  0  0  0
  -14.4860  -32.5940   -1.5760 C   0  0  0  0  0  0  0  0  0  0  0  0
  -13.2860  -33.3000   -3.5650 C   0  0  0  0  0  0  0  0  0  0  0  0
  -14.4550  -30.9660   -8.3810 C   0  0  0  0  0  0  0  0  0  0  0  0
  -15.0650  -28.9080   -7.2780 C   0  0  0  0  0  0  0  0  0  0  0  0
  -15.1100  -31.6000   -2.3200 C   0  0  0  0  0  0  0  0  0  0  0  0
  -13.9180  -32.2800   -4.3190 C   0  0  0  0  0  0  0  0  0  0  0  0
  -14.6350  -30.9190   -5.8810 C   0  0  0  0  0  0  0  0  0  0  0  0
  -14.7520  -30.2520   -7.2300 C   0  0  0  0  0  0  0  0  0  0  0  0
  -15.2870  -30.5590   -4.7030 C   0  0  0  0  0  0  0  0  0  0  0  0
  -14.8220  -31.4600   -3.7030 C   0  0  0  0  0  0  0  0  0  0  0  0
  -13.2488  -32.3799   -6.3128 H   0  0  0  0  0  0  0  0  0  0  0  0
  -17.4091  -27.1673   -3.3689 H   0  0  0  0  0  0  0  0  0  0  0  0
  -13.4818  -26.2363   -3.0381 H   0  0  0  0  0  0  0  0  0  0  0  0
  -13.6824  -28.5687   -4.1133 H   0  0  0  0  0  0  0  0  0  0  0  0
  -16.7574  -29.2342   -5.3542 H   0  0  0  0  0  0  0  0  0  0  0  0
  -17.0172  -29.7840   -3.8387 H   0  0  0  0  0  0  0  0  0  0  0  0
  -14.9420  -28.5122  -10.5283 H   0  0  0  0  0  0  0  0  0  0  0  0
  -14.3620  -30.8073  -10.4370 H   0  0  0  0  0  0  0  0  0  0  0  0
  -15.3968  -27.2860   -8.5379 H   0  0  0  0  0  0  0  0  0  0  0  0
  -13.1287  -34.1629   -1.6856 H   0  0  0  0  0  0  0  0  0  0  0  0
  -14.6843  -32.7004   -0.6017 H   0  0  0  0  0  0  0  0  0  0  0  0
  -12.6323  -33.9164   -4.0040 H   0  0  0  0  0  0  0  0  0  0  0  0
  -14.1838  -31.9275   -8.3356 H   0  0  0  0  0  0  0  0  0  0  0  0
  -15.2310  -28.4052   -6.4297 H   0  0  0  0  0  0  0  0  0  0  0  0
  -15.7626  -30.9826   -1.8807 H   0  0  0  0  0  0  0  0  0  0  0  0
  1  4  2  0  0  0  0
  1  5  1  0  0  0  0
  2 17  1  0  0  0  0
  2 18  1  0  0  0  0
  3  4  1  0  0  0  0
  3  6  1  0  0  0  0
  3  7  1  0  0  0  0
  5  6  2  0  0  0  0
  7 20  1  0  0  0  0
  8  9  2  0  0  0  0
  8 10  1  0  0  0  0
  9 14  1  0  0  0  0
 10 15  2  0  0  0  0
 11 12  2  0  0  0  0
 11 13  1  0  0  0  0
 12 16  1  0  0  0  0
 13 17  2  0  0  0  0
 14 19  2  0  0  0  0
 15 19  1  0  0  0  0
 16 21  2  0  0  0  0
 17 21  1  0  0  0  0
 18 19  1  0  0  0  0
 18 20  2  0  0  0  0
 20 21  1  0  0  0  0
  2 22  1  0  0  0  0
  4 23  1  0  0  0  0
  5 24  1  0  0  0  0
  6 25  1  0  0  0  0
  7 26  1  0  0  0  0
  7 27  1  0  0  0  0
  8 28  1  0  0  0  0
  9 29  1  0  0  0  0
 10 30  1  0  0  0  0
 11 31  1  0  0  0  0
 12 32  1  0  0  0  0
 13 33  1  0  0  0  0
 14 34  1  0  0  0  0
 15 35  1  0  0  0  0
 16 36  1  0  0  0  0
M  END
> <pdb_id>
6PYA

> <uniprot_id>
P04278

> <usmiles>
N1=CN(C=C1)CC=2c3c(NC2c4ccccc4)cccc3

$$$$
P58_A_263
          07192416293D 1   1.00000     0.00000     0
            
 23 23  0  0  0  0            999 V2000
   -7.2871    1.7909   16.9759 S   0  0  0  0  0  0  0  0  0  0  0  0
   -4.9505    0.0464   16.3665 S   0  0  0  0  0  0  0  0  0  0  0  0
   -5.2729    2.6505   15.3938 N   0  0  0  0  0  0  0  0  0  0  0  0
   -6.0469    3.8878   15.2034 C   0  0  0  0  0  0  0  0  0  0  0  0
   -3.9973    2.4618   14.6740 C   0  0  0  0  0  0  0  0  0  0  0  0
   -4.8868    1.1167   10.6253 C   0  0  0  0  0  0  0  0  0  0  0  0
   -4.7424    2.5184   10.8720 C   0  0  0  0  0  0  0  0  0  0  0  0
   -4.6979    0.2106   11.7037 C   0  0  0  0  0  0  0  0  0  0  0  0
   -4.4711    2.9786   12.1775 C   0  0  0  0  0  0  0  0  0  0  0  0
   -4.4155    0.6718   13.0121 C   0  0  0  0  0  0  0  0  0  0  0  0
   -5.6663    1.6674   16.3401 C   0  0  0  0  0  0  0  0  0  0  0  0
   -4.2842    2.0462   13.2281 C   0  0  0  0  0  0  0  0  0  0  0  0
   -7.7520    2.6761   16.9915 H   0  0  0  0  0  0  0  0  0  0  0  0
   -6.8765    3.8512   15.7607 H   0  0  0  0  0  0  0  0  0  0  0  0
   -5.4936    4.6732   15.4808 H   0  0  0  0  0  0  0  0  0  0  0  0
   -6.2967    3.9798   14.2395 H   0  0  0  0  0  0  0  0  0  0  0  0
   -3.4618    1.7484   15.1259 H   0  0  0  0  0  0  0  0  0  0  0  0
   -3.4820    3.3188   14.6785 H   0  0  0  0  0  0  0  0  0  0  0  0
   -5.1163    0.7810    9.7118 H   0  0  0  0  0  0  0  0  0  0  0  0
   -4.8337    3.1711   10.1199 H   0  0  0  0  0  0  0  0  0  0  0  0
   -4.7657   -0.7728   11.5349 H   0  0  0  0  0  0  0  0  0  0  0  0
   -4.4109    3.9598   12.3610 H   0  0  0  0  0  0  0  0  0  0  0  0
   -4.3119    0.0257   13.7683 H   0  0  0  0  0  0  0  0  0  0  0  0
  1 11  1  0  0  0  0
  2 11  2  0  0  0  0
  3  4  1  0  0  0  0
  3  5  1  0  0  0  0
  3 11  1  0  0  0  0
  5 12  1  0  0  0  0
  6  7  2  0  0  0  0
  6  8  1  0  0  0  0
  7  9  1  0  0  0  0
  8 10  2  0  0  0  0
  9 12  2  0  0  0  0
 10 12  1  0  0  0  0
  1 13  1  0  0  0  0
  4 14  1  0  0  0  0
  4 15  1  0  0  0  0
  4 16  1  0  0  0  0
  5 17  1  0  0  0  0
  5 18  1  0  0  0  0
  6 19  1  0  0  0  0
  7 20  1  0  0  0  0
  8 21  1  0  0  0  0
  9 22  1  0  0  0  0
 10 23  1  0  0  0  0
M  END
> <pdb_id>
3P58

> <uniprot_id>
P00918

> <usmiles>
S=C(S)N(Cc1ccccc1)C

$$$$
P65_A_205
          07202411363D 1   1.00000     0.00000     0
            
 38 39  0  0  0  0            999 V2000
   -0.1800    4.6340   16.4070 Cl  0  0  0  0  0  0  0  0  0  0  0  0
   -3.1820    5.4830   16.0140 Cl  0  0  0  0  0  0  0  0  0  0  0  0
   -0.6670    1.0600   12.3090 Cl  0  0  0  0  0  0  0  0  0  0  0  0
   -3.4230    2.0490   12.1660 O   0  0  0  0  0  0  0  0  0  0  0  0
   -5.6930   -0.2980   13.0100 O   0  0  0  0  0  0  0  0  0  0  0  0
   -5.1410   -5.1310   15.6120 N   0  0  0  0  0  0  0  0  0  0  0  0
   -7.2880   -2.5300   12.2200 N   0  0  0  0  0  0  0  0  0  0  0  0
   -6.1540   -3.7540   13.9470 N   0  0  0  0  0  0  0  0  0  0  0  0
   -4.5340   -2.8280   15.2990 N   0  0  0  0  0  0  0  0  0  0  0  0
   -3.7780   -0.4760   15.1400 C   0  0  0  0  0  0  0  0  0  0  0  0
   -4.8060    2.2350   12.2000 C   0  0  0  0  0  0  0  0  0  0  0  0
   -5.1030   -0.2170   11.7430 C   0  0  0  0  0  0  0  0  0  0  0  0
   -5.3620    1.2000   11.2300 C   0  0  0  0  0  0  0  0  0  0  0  0
   -0.5870    2.8910   14.3340 C   0  0  0  0  0  0  0  0  0  0  0  0
   -3.2540    3.6470   13.9820 C   0  0  0  0  0  0  0  0  0  0  0  0
   -5.2790   -3.8610   14.9310 C   0  0  0  0  0  0  0  0  0  0  0  0
   -1.1560    3.8600   15.1390 C   0  0  0  0  0  0  0  0  0  0  0  0
   -2.4760    4.2330   14.9650 C   0  0  0  0  0  0  0  0  0  0  0  0
   -1.3620    2.3050   13.3550 C   0  0  0  0  0  0  0  0  0  0  0  0
   -6.3150   -2.6160   13.3000 C   0  0  0  0  0  0  0  0  0  0  0  0
   -2.6850    2.6760   13.1730 C   0  0  0  0  0  0  0  0  0  0  0  0
   -5.5480   -1.5200   13.6620 C   0  0  0  0  0  0  0  0  0  0  0  0
   -4.6430   -1.6570   14.7000 C   0  0  0  0  0  0  0  0  0  0  0  0
   -4.4834   -5.2290   16.3589 H   0  0  0  0  0  0  0  0  0  0  0  0
   -5.7033   -5.9103   15.3355 H   0  0  0  0  0  0  0  0  0  0  0  0
   -7.4130   -1.6690   11.7270 H   0  0  0  0  0  0  0  0  0  0  0  0
   -7.8312   -3.3320   11.9713 H   0  0  0  0  0  0  0  0  0  0  0  0
   -3.9945    0.3230   14.5790 H   0  0  0  0  0  0  0  0  0  0  0  0
   -3.9613   -0.2683   16.1009 H   0  0  0  0  0  0  0  0  0  0  0  0
   -2.8123   -0.7101   15.0280 H   0  0  0  0  0  0  0  0  0  0  0  0
   -5.0445    3.1597   11.9033 H   0  0  0  0  0  0  0  0  0  0  0  0
   -5.1598    2.0792   13.1223 H   0  0  0  0  0  0  0  0  0  0  0  0
   -5.5156   -0.8878   11.1268 H   0  0  0  0  0  0  0  0  0  0  0  0
   -4.1195   -0.3856   11.8090 H   0  0  0  0  0  0  0  0  0  0  0  0
   -4.9193    1.3129   10.3404 H   0  0  0  0  0  0  0  0  0  0  0  0
   -6.3475    1.3384   11.1319 H   0  0  0  0  0  0  0  0  0  0  0  0
    0.3675    2.6202   14.4589 H   0  0  0  0  0  0  0  0  0  0  0  0
   -4.2083    3.9188   13.8577 H   0  0  0  0  0  0  0  0  0  0  0  0
  1 17  1  0  0  0  0
  2 18  1  0  0  0  0
  3 19  1  0  0  0  0
  4 11  1  0  0  0  0
  4 21  1  0  0  0  0
  5 12  1  0  0  0  0
  5 22  1  0  0  0  0
  6 16  1  0  0  0  0
  7 20  1  0  0  0  0
  8 16  2  0  0  0  0
  8 20  1  0  0  0  0
  9 16  1  0  0  0  0
  9 23  2  0  0  0  0
 10 23  1  0  0  0  0
 11 13  1  0  0  0  0
 12 13  1  0  0  0  0
 14 17  2  0  0  0  0
 14 19  1  0  0  0  0
 15 18  2  0  0  0  0
 15 21  1  0  0  0  0
 17 18  1  0  0  0  0
 19 21  2  0  0  0  0
 20 22  2  0  0  0  0
 22 23  1  0  0  0  0
  6 24  1  0  0  0  0
  6 25  1  0  0  0  0
  7 26  1  0  0  0  0
  7 27  1  0  0  0  0
 10 28  1  0  0  0  0
 10 29  1  0  0  0  0
 10 30  1  0  0  0  0
 11 31  1  0  0  0  0
 11 32  1  0  0  0  0
 12 33  1  0  0  0  0
 12 34  1  0  0  0  0
 13 35  1  0  0  0  0
 13 36  1  0  0  0  0
 14 37  1  0  0  0  0
 15 38  1  0  0  0  0
M  END
> <pdb_id>
5U27

> <uniprot_id>
nan

> <usmiles>
Clc1c(Cl)cc(OCCCOc2c(nc(nc2C)N)N)c(Cl)c1

$$$$
P7B_A_362
          07202400263D 1   1.00000     0.00000     0
            
 61 64  0  0  0  0            999 V2000
    1.4970    2.2343   13.1990 S   0  0  0  0  0  0  0  0  0  0  0  0
   -0.1727    2.1021   15.5257 O   0  0  0  0  0  0  0  0  0  0  0  0
    1.0371   11.2390   10.9131 O   0  0  0  0  0  0  0  0  0  0  0  0
   -0.7994    5.9648   12.7141 O   0  0  0  0  0  0  0  0  0  0  0  0
    2.4729    9.6996   11.7002 N   0  0  0  0  0  0  0  0  0  0  0  0
   -0.7429    3.7278   13.9595 N   0  0  0  0  0  0  0  0  0  0  0  0
   -2.1997    3.0404   15.6072 N   0  0  0  0  0  0  0  0  0  0  0  0
    0.8672    6.9582   11.6631 N   0  0  0  0  0  0  0  0  0  0  0  0
    3.3205    1.1279   10.6192 C   0  0  0  0  0  0  0  0  0  0  0  0
    4.9005    3.0704   11.1977 C   0  0  0  0  0  0  0  0  0  0  0  0
    4.2214    1.2829   12.7810 C   0  0  0  0  0  0  0  0  0  0  0  0
    2.9902    8.3548   11.3383 C   0  0  0  0  0  0  0  0  0  0  0  0
    2.2379    7.2726   12.1186 C   0  0  0  0  0  0  0  0  0  0  0  0
   -0.0214    8.0683   11.2227 C   0  0  0  0  0  0  0  0  0  0  0  0
   -6.0393   -0.1807   17.0948 C   0  0  0  0  0  0  0  0  0  0  0  0
   -5.6426    0.3428   15.8658 C   0  0  0  0  0  0  0  0  0  0  0  0
   -2.3209    2.2059   19.1543 C   0  0  0  0  0  0  0  0  0  0  0  0
    0.0637    9.3439   12.0793 C   0  0  0  0  0  0  0  0  0  0  0  0
   -1.9222    2.7776   17.9326 C   0  0  0  0  0  0  0  0  0  0  0  0
   -5.2741    0.1562   18.2026 C   0  0  0  0  0  0  0  0  0  0  0  0
   -3.4511    1.3981   19.1867 C   0  0  0  0  0  0  0  0  0  0  0  0
   -4.5608    1.2226   15.6759 C   0  0  0  0  0  0  0  0  0  0  0  0
    2.1750    4.2478   11.7393 C   0  0  0  0  0  0  0  0  0  0  0  0
   -1.0490    2.9550   15.0337 C   0  0  0  0  0  0  0  0  0  0  0  0
    0.3977    3.5935   13.2231 C   0  0  0  0  0  0  0  0  0  0  0  0
    1.2238   10.2616   11.6677 C   0  0  0  0  0  0  0  0  0  0  0  0
    0.3203    5.8781   12.2534 C   0  0  0  0  0  0  0  0  0  0  0  0
    2.5607    2.9440   12.0528 C   0  0  0  0  0  0  0  0  0  0  0  0
   -2.6371    2.4313   16.7550 C   0  0  0  0  0  0  0  0  0  0  0  0
   -4.1678    1.0372   18.0392 C   0  0  0  0  0  0  0  0  0  0  0  0
    1.0025    4.5678   12.4040 C   0  0  0  0  0  0  0  0  0  0  0  0
   -3.7790    1.5715   16.7939 C   0  0  0  0  0  0  0  0  0  0  0  0
    3.7713    2.1556   11.6255 C   0  0  0  0  0  0  0  0  0  0  0  0
    3.1805   10.3213   12.0359 H   0  0  0  0  0  0  0  0  0  0  0  0
   -1.3933    4.4387   13.6921 H   0  0  0  0  0  0  0  0  0  0  0  0
   -2.8652    3.6323   15.1526 H   0  0  0  0  0  0  0  0  0  0  0  0
    2.5761    0.5849   11.0078 H   0  0  0  0  0  0  0  0  0  0  0  0
    2.9997    1.5896    9.7922 H   0  0  0  0  0  0  0  0  0  0  0  0
    4.0866    0.5275   10.3898 H   0  0  0  0  0  0  0  0  0  0  0  0
    5.1138    3.7061   11.9396 H   0  0  0  0  0  0  0  0  0  0  0  0
    5.7101    2.5235   10.9844 H   0  0  0  0  0  0  0  0  0  0  0  0
    4.6232    3.5856   10.3867 H   0  0  0  0  0  0  0  0  0  0  0  0
    4.5498    1.8616   13.5276 H   0  0  0  0  0  0  0  0  0  0  0  0
    3.4517    0.7306   13.1012 H   0  0  0  0  0  0  0  0  0  0  0  0
    4.9596    0.6810   12.4764 H   0  0  0  0  0  0  0  0  0  0  0  0
    3.9642    8.3049   11.5593 H   0  0  0  0  0  0  0  0  0  0  0  0
    2.8627    8.2044   10.3580 H   0  0  0  0  0  0  0  0  0  0  0  0
    2.7756    6.4312   12.0650 H   0  0  0  0  0  0  0  0  0  0  0  0
    2.1798    7.5710   13.0713 H   0  0  0  0  0  0  0  0  0  0  0  0
   -0.9654    7.7394   11.2478 H   0  0  0  0  0  0  0  0  0  0  0  0
    0.2231    8.3080   10.2831 H   0  0  0  0  0  0  0  0  0  0  0  0
   -6.8407   -0.7735   17.1751 H   0  0  0  0  0  0  0  0  0  0  0  0
   -6.1662    0.0729   15.0577 H   0  0  0  0  0  0  0  0  0  0  0  0
   -1.7978    2.3786   19.9889 H   0  0  0  0  0  0  0  0  0  0  0  0
    0.1899    9.0788   13.0352 H   0  0  0  0  0  0  0  0  0  0  0  0
   -0.7934    9.8503   11.9842 H   0  0  0  0  0  0  0  0  0  0  0  0
   -1.1519    3.4141   17.8939 H   0  0  0  0  0  0  0  0  0  0  0  0
   -5.4969   -0.2152   19.1039 H   0  0  0  0  0  0  0  0  0  0  0  0
   -3.7678    1.0582   20.0722 H   0  0  0  0  0  0  0  0  0  0  0  0
   -4.3526    1.5909   14.7698 H   0  0  0  0  0  0  0  0  0  0  0  0
    2.6719    4.8610   11.1252 H   0  0  0  0  0  0  0  0  0  0  0  0
  1 25  1  0  0  0  0
  1 28  1  0  0  0  0
  2 24  2  0  0  0  0
  3 26  2  0  0  0  0
  4 27  2  0  0  0  0
  5 12  1  0  0  0  0
  5 26  1  0  0  0  0
  6 24  1  0  0  0  0
  6 25  1  0  0  0  0
  7 24  1  0  0  0  0
  7 29  1  0  0  0  0
  8 13  1  0  0  0  0
  8 14  1  0  0  0  0
  8 27  1  0  0  0  0
  9 33  1  0  0  0  0
 10 33  1  0  0  0  0
 11 33  1  0  0  0  0
 12 13  1  0  0  0  0
 14 18  1  0  0  0  0
 15 16  2  0  0  0  0
 15 20  1  0  0  0  0
 16 22  1  0  0  0  0
 17 19  1  0  0  0  0
 17 21  2  0  0  0  0
 18 26  1  0  0  0  0
 19 29  2  0  0  0  0
 20 30  2  0  0  0  0
 21 30  1  0  0  0  0
 22 32  2  0  0  0  0
 23 28  2  0  0  0  0
 23 31  1  0  0  0  0
 25 31  2  0  0  0  0
 27 31  1  0  0  0  0
 28 33  1  0  0  0  0
 29 32  1  0  0  0  0
 30 32  1  0  0  0  0
  5 34  1  0  0  0  0
  6 35  1  0  0  0  0
  7 36  1  0  0  0  0
  9 37  1  0  0  0  0
  9 38  1  0  0  0  0
  9 39  1  0  0  0  0
 10 40  1  0  0  0  0
 10 41  1  0  0  0  0
 10 42  1  0  0  0  0
 11 43  1  0  0  0  0
 11 44  1  0  0  0  0
 11 45  1  0  0  0  0
 12 46  1  0  0  0  0
 12 47  1  0  0  0  0
 13 48  1  0  0  0  0
 13 49  1  0  0  0  0
 14 50  1  0  0  0  0
 14 51  1  0  0  0  0
 15 52  1  0  0  0  0
 16 53  1  0  0  0  0
 17 54  1  0  0  0  0
 18 55  1  0  0  0  0
 18 56  1  0  0  0  0
 19 57  1  0  0  0  0
 20 58  1  0  0  0  0
 21 59  1  0  0  0  0
 22 60  1  0  0  0  0
 23 61  1  0  0  0  0
M  END
> <pdb_id>
3P7B

> <uniprot_id>
P47811

> <usmiles>
S1C(NC(=O)Nc2c3c(ccc2)cccc3)=C(C(=O)N4CCNC(=O)CC4)C=C1C(C)(C)C

$$$$
P7D_B_504
          07202414053D 1   1.00000     0.00000     0
            
 43 44  0  0  0  0            999 V2000
   -0.8352  -24.0035   31.3758 S   0  0  0  0  0  0  0  0  0  0  0  0
   -1.5738  -25.1401   31.7563 O   0  0  0  0  0  0  0  0  0  0  0  0
    0.5223  -24.1421   30.9941 O   0  0  0  0  0  0  0  0  0  0  0  0
   -1.8277  -18.6588   25.4396 O   0  0  0  0  0  0  0  0  0  0  0  0
   -2.8049  -19.0832   23.2828 O   0  0  0  0  0  0  0  0  0  0  0  0
   -3.3323  -19.7488   24.3353 N   0  0  0  0  0  0  0  0  0  0  0  0
   -1.6863  -23.2737   30.1152 N   0  0  0  0  0  0  0  0  0  0  0  0
   -1.7299  -19.8583   36.8413 N   0  0  0  0  0  0  0  0  0  0  0  0
   -0.4587  -20.5679   37.2314 C   0  0  0  0  0  0  0  0  0  0  0  0
   -2.9288  -20.7309   37.1927 C   0  0  0  0  0  0  0  0  0  0  0  0
   -3.0886  -23.3957   29.8658 C   0  0  0  0  0  0  0  0  0  0  0  0
   -1.2425  -22.3069   29.1707 C   0  0  0  0  0  0  0  0  0  0  0  0
   -3.4476  -22.5966   28.8070 C   0  0  0  0  0  0  0  0  0  0  0  0
   -3.1324  -20.0896   26.8124 C   0  0  0  0  0  0  0  0  0  0  0  0
   -2.2329  -22.5312   33.1983 C   0  0  0  0  0  0  0  0  0  0  0  0
   -0.1038  -21.7372   32.7702 C   0  0  0  0  0  0  0  0  0  0  0  0
   -2.2609  -21.0061   27.2523 C   0  0  0  0  0  0  0  0  0  0  0  0
   -2.4600  -21.4940   34.0907 C   0  0  0  0  0  0  0  0  0  0  0  0
   -0.2958  -20.6804   33.6736 C   0  0  0  0  0  0  0  0  0  0  0  0
   -1.7409  -19.3964   35.3744 C   0  0  0  0  0  0  0  0  0  0  0  0
   -2.7746  -19.4652   25.5751 C   0  0  0  0  0  0  0  0  0  0  0  0
   -1.0423  -22.7257   32.5027 C   0  0  0  0  0  0  0  0  0  0  0  0
   -2.2826  -21.8793   28.3794 C   0  0  0  0  0  0  0  0  0  0  0  0
   -1.4921  -20.5267   34.3700 C   0  0  0  0  0  0  0  0  0  0  0  0
   -2.2540  -19.6674   23.0036 H   0  0  0  0  0  0  0  0  0  0  0  0
   -3.9843  -20.2923   24.2028 H   0  0  0  0  0  0  0  0  0  0  0  0
   -0.4380  -21.4753   36.8916 H   0  0  0  0  0  0  0  0  0  0  0  0
   -0.3921  -20.6651   38.1941 H   0  0  0  0  0  0  0  0  0  0  0  0
    0.3801  -20.1539   36.9738 H   0  0  0  0  0  0  0  0  0  0  0  0
   -3.8061  -20.3578   37.0122 H   0  0  0  0  0  0  0  0  0  0  0  0
   -2.9070  -21.5681   36.7026 H   0  0  0  0  0  0  0  0  0  0  0  0
   -2.9237  -20.9892   38.1275 H   0  0  0  0  0  0  0  0  0  0  0  0
   -3.6317  -23.9589   30.3690 H   0  0  0  0  0  0  0  0  0  0  0  0
   -0.3493  -22.0507   29.1591 H   0  0  0  0  0  0  0  0  0  0  0  0
   -4.2969  -22.5263   28.4336 H   0  0  0  0  0  0  0  0  0  0  0  0
   -3.9294  -19.8531   27.2296 H   0  0  0  0  0  0  0  0  0  0  0  0
   -2.9275  -23.1363   33.0681 H   0  0  0  0  0  0  0  0  0  0  0  0
    0.7227  -21.7764   32.3454 H   0  0  0  0  0  0  0  0  0  0  0  0
   -1.5405  -21.1185   26.6759 H   0  0  0  0  0  0  0  0  0  0  0  0
   -3.2791  -21.4570   34.5287 H   0  0  0  0  0  0  0  0  0  0  0  0
    0.3841  -20.0644   33.8243 H   0  0  0  0  0  0  0  0  0  0  0  0
   -1.1315  -18.6541   35.2398 H   0  0  0  0  0  0  0  0  0  0  0  0
   -2.5878  -18.9620   35.1833 H   0  0  0  0  0  0  0  0  0  0  0  0
  1  2  2  0  0  0  0
  1  3  2  0  0  0  0
  1  7  1  0  0  0  0
  1 22  1  0  0  0  0
  4 21  2  0  0  0  0
  5  6  1  0  0  0  0
  5 25  1  0  0  0  0
  6 21  1  0  0  0  0
  6 26  1  0  0  0  0
  7 11  1  0  0  0  0
  7 12  1  0  0  0  0
  8  9  1  0  0  0  0
  8 10  1  0  0  0  0
  8 20  1  0  0  0  0
  9 27  1  0  0  0  0
  9 28  1  0  0  0  0
  9 29  1  0  0  0  0
 10 30  1  0  0  0  0
 10 31  1  0  0  0  0
 10 32  1  0  0  0  0
 11 13  2  0  0  0  0
 11 33  1  0  0  0  0
 12 23  2  0  0  0  0
 12 34  1  0  0  0  0
 13 23  1  0  0  0  0
 13 35  1  0  0  0  0
 14 17  2  0  0  0  0
 14 21  1  0  0  0  0
 14 36  1  0  0  0  0
 15 18  2  0  0  0  0
 15 22  1  0  0  0  0
 15 37  1  0  0  0  0
 16 19  1  0  0  0  0
 16 22  2  0  0  0  0
 16 38  1  0  0  0  0
 17 23  1  0  0  0  0
 17 39  1  0  0  0  0
 18 24  1  0  0  0  0
 18 40  1  0  0  0  0
 19 24  2  0  0  0  0
 19 41  1  0  0  0  0
 20 24  1  0  0  0  0
 20 42  1  0  0  0  0
 20 43  1  0  0  0  0
M  END
> <pdb_id>
6UOB

> <uniprot_id>
F8W4B7

> <usmiles>
S(=O)(=O)(N1C=C(/C=C/C(=O)NO)C=C1)c2ccc(cc2)CN(C)C

$$$$
P9T_A_303
          07212402403D 1   1.00000     0.00000     0
            
 25 26  0  0  0  0            999 V2000
   49.3457    9.1683   45.9037 P   0  0  0  0  0  0  0  0  0  0  0  0
   51.0397   15.1460   42.1272 F   0  0  0  0  0  0  0  0  0  0  0  0
   51.8088   10.9921   43.8413 F   0  0  0  0  0  0  0  0  0  0  0  0
   48.7143    9.6609   44.6382 O   0  0  0  0  0  0  0  0  0  0  0  0
   48.4809    9.1885   47.1362 O   0  0  0  0  0  0  0  0  0  0  0  0
   49.8971    7.7014   45.6476 O   0  0  0  0  0  0  0  0  0  0  0  0
   48.7753   13.7547   48.5109 O   0  0  0  0  0  0  0  0  0  0  0  0
   49.4884   14.1966   46.4970 O   0  0  0  0  0  0  0  0  0  0  0  0
   50.8275   10.1721   46.3374 C   0  0  0  0  0  0  0  0  0  0  0  0
   51.3640   13.1238   43.0767 C   0  0  0  0  0  0  0  0  0  0  0  0
   50.2207   14.7682   44.3034 C   0  0  0  0  0  0  0  0  0  0  0  0
   49.7563   12.0825   47.5238 C   0  0  0  0  0  0  0  0  0  0  0  0
   50.8582   14.3435   43.2214 C   0  0  0  0  0  0  0  0  0  0  0  0
   49.3344   13.4297   47.5660 C   0  0  0  0  0  0  0  0  0  0  0  0
   51.2723   12.1817   44.0800 C   0  0  0  0  0  0  0  0  0  0  0  0
   50.0809   13.8492   45.3774 C   0  0  0  0  0  0  0  0  0  0  0  0
   50.4079   11.6545   46.4149 C   0  0  0  0  0  0  0  0  0  0  0  0
   50.6079   12.5725   45.2871 C   0  0  0  0  0  0  0  0  0  0  0  0
   49.3760    9.6023   43.8907 H   0  0  0  0  0  0  0  0  0  0  0  0
   49.0025    8.8403   47.9151 H   0  0  0  0  0  0  0  0  0  0  0  0
   51.5305   10.0566   45.6358 H   0  0  0  0  0  0  0  0  0  0  0  0
   51.1879    9.8768   47.2222 H   0  0  0  0  0  0  0  0  0  0  0  0
   51.8217   12.8830   42.2208 H   0  0  0  0  0  0  0  0  0  0  0  0
   49.8536   15.6966   44.3610 H   0  0  0  0  0  0  0  0  0  0  0  0
   49.5797   11.4632   48.2888 H   0  0  0  0  0  0  0  0  0  0  0  0
  1  4  1  0  0  0  0
  1  5  1  0  0  0  0
  1  6  2  0  0  0  0
  1  9  1  0  0  0  0
  2 13  1  0  0  0  0
  3 15  1  0  0  0  0
  7 14  2  0  0  0  0
  8 14  1  0  0  0  0
  8 16  1  0  0  0  0
  9 17  1  0  0  0  0
 10 13  2  0  0  0  0
 10 15  1  0  0  0  0
 11 13  1  0  0  0  0
 11 16  2  0  0  0  0
 12 14  1  0  0  0  0
 12 17  2  0  0  0  0
 15 18  2  0  0  0  0
 16 18  1  0  0  0  0
 17 18  1  0  0  0  0
  4 19  1  0  0  0  0
  5 20  1  0  0  0  0
  9 21  1  0  0  0  0
  9 22  1  0  0  0  0
 10 23  1  0  0  0  0
 11 24  1  0  0  0  0
 12 25  1  0  0  0  0
M  END
> <pdb_id>
6D1F

> <uniprot_id>
C7C422

> <usmiles>
P(=O)(O)(O)CC=1c2c(F)cc(F)cc2OC(=O)C1

$$$$
PAB_A_396
          07202403093D 1   1.00000     0.00000     0
            
 17 17  0  0  0  0            999 V2000
   16.3595   97.3259   45.7538 O   0  0  0  0  0  0  0  0  0  0  0  0
   18.3617   97.4139   46.6054 O   0  0  0  0  0  0  0  0  0  0  0  0
   17.7493   91.1643   46.0547 N   0  0  0  0  0  0  0  0  0  0  0  0
   16.4984   93.1635   45.6730 C   0  0  0  0  0  0  0  0  0  0  0  0
   18.7328   93.2731   46.5945 C   0  0  0  0  0  0  0  0  0  0  0  0
   16.4090   94.5462   45.6910 C   0  0  0  0  0  0  0  0  0  0  0  0
   18.6323   94.6538   46.6087 C   0  0  0  0  0  0  0  0  0  0  0  0
   17.3949   96.7620   46.1628 C   0  0  0  0  0  0  0  0  0  0  0  0
   17.6637   92.5050   46.1127 C   0  0  0  0  0  0  0  0  0  0  0  0
   17.4750   95.3313   46.1689 C   0  0  0  0  0  0  0  0  0  0  0  0
   15.5981   96.7804   45.4036 H   0  0  0  0  0  0  0  0  0  0  0  0
   18.5789   90.7023   46.3682 H   0  0  0  0  0  0  0  0  0  0  0  0
   16.9834   90.6293   45.6982 H   0  0  0  0  0  0  0  0  0  0  0  0
   15.7236   92.6245   45.3427 H   0  0  0  0  0  0  0  0  0  0  0  0
   19.5636   92.8262   46.9262 H   0  0  0  0  0  0  0  0  0  0  0  0
   15.5769   94.9916   45.3604 H   0  0  0  0  0  0  0  0  0  0  0  0
   19.4074   95.1902   46.9425 H   0  0  0  0  0  0  0  0  0  0  0  0
  1  8  1  0  0  0  0
  2  8  2  0  0  0  0
  3  9  1  0  0  0  0
  4  6  1  0  0  0  0
  4  9  2  0  0  0  0
  5  7  2  0  0  0  0
  5  9  1  0  0  0  0
  6 10  2  0  0  0  0
  7 10  1  0  0  0  0
  8 10  1  0  0  0  0
  1 11  1  0  0  0  0
  3 12  1  0  0  0  0
  3 13  1  0  0  0  0
  4 14  1  0  0  0  0
  5 15  1  0  0  0  0
  6 16  1  0  0  0  0
  7 17  1  0  0  0  0
M  END
> <pdb_id>
1PBD

> <uniprot_id>
P00438

> <usmiles>
O=C(O)c1ccc(N)cc1

$$$$
PAC_A_317
          07202404503D 1   1.00000     0.00000     0
            
 18 18  0  0  0  0            999 V2000
   62.9588   -6.0928   42.7774 O   0  0  0  0  0  0  0  0  0  0  0  0
   63.3557   -6.2128   40.6246 O   0  0  0  0  0  0  0  0  0  0  0  0
   63.6699  -11.0337   39.4166 C   0  0  0  0  0  0  0  0  0  0  0  0
   64.8853  -10.3431   39.3055 C   0  0  0  0  0  0  0  0  0  0  0  0
   62.7609  -10.6747   40.4200 C   0  0  0  0  0  0  0  0  0  0  0  0
   65.1836   -9.2915   40.2057 C   0  0  0  0  0  0  0  0  0  0  0  0
   63.0723   -9.6251   41.3054 C   0  0  0  0  0  0  0  0  0  0  0  0
   64.5294   -7.7112   42.0600 C   0  0  0  0  0  0  0  0  0  0  0  0
   63.5432   -6.5933   41.8032 C   0  0  0  0  0  0  0  0  0  0  0  0
   64.2797   -8.9266   41.2083 C   0  0  0  0  0  0  0  0  0  0  0  0
   63.1433   -6.4323   43.6997 H   0  0  0  0  0  0  0  0  0  0  0  0
   63.4537  -11.7773   38.7839 H   0  0  0  0  0  0  0  0  0  0  0  0
   65.5400  -10.5927   38.5920 H   0  0  0  0  0  0  0  0  0  0  0  0
   61.8925  -11.1629   40.5074 H   0  0  0  0  0  0  0  0  0  0  0  0
   66.0523   -8.8031   40.1233 H   0  0  0  0  0  0  0  0  0  0  0  0
   62.4169   -9.3742   42.0178 H   0  0  0  0  0  0  0  0  0  0  0  0
   64.4648   -7.9778   43.0217 H   0  0  0  0  0  0  0  0  0  0  0  0
   65.4508   -7.3727   41.8691 H   0  0  0  0  0  0  0  0  0  0  0  0
  1  9  1  0  0  0  0
  2  9  2  0  0  0  0
  3  4  2  0  0  0  0
  3  5  1  0  0  0  0
  4  6  1  0  0  0  0
  5  7  2  0  0  0  0
  6 10  2  0  0  0  0
  7 10  1  0  0  0  0
  8  9  1  0  0  0  0
  8 10  1  0  0  0  0
  1 11  1  0  0  0  0
  3 12  1  0  0  0  0
  4 13  1  0  0  0  0
  5 14  1  0  0  0  0
  6 15  1  0  0  0  0
  7 16  1  0  0  0  0
  8 17  1  0  0  0  0
  8 18  1  0  0  0  0
M  END
> <pdb_id>
2INE

> <uniprot_id>
P15121

> <usmiles>
O=C(O)Cc1ccccc1

$$$$
PAL_A_1311
          07192421153D 1   1.00000     0.00000     0
            
 26 25  0  0  0  0            999 V2000
   46.0070   29.5840   15.9460 P   0  0  0  0  0  0  0  0  0  0  0  0
   45.9660   30.5120   17.1780 O   0  0  0  0  0  0  0  0  0  0  0  0
   47.0690   28.5590   15.9510 O   0  0  0  0  0  0  0  0  0  0  0  0
   46.3960   30.6030   14.7470 O   0  0  0  0  0  0  0  0  0  0  0  0
   42.5700   29.7540   20.0760 O   0  0  0  0  0  0  0  0  0  0  0  0
   40.9980   28.2940   20.6580 O   0  0  0  0  0  0  0  0  0  0  0  0
   40.8690   32.4270   18.6500 O   0  0  0  0  0  0  0  0  0  0  0  0
   43.0400   31.9800   18.2310 O   0  0  0  0  0  0  0  0  0  0  0  0
   43.0070   31.0150   15.2890 O   0  0  0  0  0  0  0  0  0  0  0  0
   42.6070   29.5920   17.0360 N   0  0  0  0  0  0  0  0  0  0  0  0
   44.3640   29.0280   15.4540 C   0  0  0  0  0  0  0  0  0  0  0  0
   40.7170   29.4480   18.6010 C   0  0  0  0  0  0  0  0  0  0  0  0
   41.4990   29.1320   19.8640 C   0  0  0  0  0  0  0  0  0  0  0  0
   41.8220   31.6970   18.1950 C   0  0  0  0  0  0  0  0  0  0  0  0
   43.2480   29.9560   15.9130 C   0  0  0  0  0  0  0  0  0  0  0  0
   41.5030   30.3420   17.6060 C   0  0  1  0  0  0  0  0  0  0  0  0
   45.2162   31.1660   17.0779 H   0  0  0  0  0  0  0  0  0  0  0  0
   47.0098   28.0136   15.1149 H   0  0  0  0  0  0  0  0  0  0  0  0
   42.9110   30.4073   19.4001 H   0  0  0  0  0  0  0  0  0  0  0  0
   39.9216   32.1158   18.5757 H   0  0  0  0  0  0  0  0  0  0  0  0
   42.9063   28.7604   17.5039 H   0  0  0  0  0  0  0  0  0  0  0  0
   44.2050   28.1225   15.8474 H   0  0  0  0  0  0  0  0  0  0  0  0
   44.3356   28.9676   14.4562 H   0  0  0  0  0  0  0  0  0  0  0  0
   39.8751   29.9223   18.8583 H   0  0  0  0  0  0  0  0  0  0  0  0
   40.4889   28.5881   18.1444 H   0  0  0  0  0  0  0  0  0  0  0  0
   40.8757   30.5180   16.8474 H   0  0  0  0  0  0  0  0  0  0  0  0
  1  2  1  0  0  0  0
  1  3  1  0  0  0  0
  1  4  2  0  0  0  0
  1 11  1  0  0  0  0
  5 13  1  0  0  0  0
  6 13  2  0  0  0  0
  7 14  1  0  0  0  0
  8 14  2  0  0  0  0
  9 15  2  0  0  0  0
 10 15  1  0  0  0  0
 10 16  1  0  0  0  0
 11 15  1  0  0  0  0
 12 13  1  0  0  0  0
 12 16  1  0  0  0  0
 14 16  1  0  0  0  0
  2 17  1  0  0  0  0
  3 18  1  0  0  0  0
  5 19  1  0  0  0  0
  7 20  1  0  0  0  0
 10 21  1  0  0  0  0
 11 22  1  0  0  0  0
 11 23  1  0  0  0  0
 12 24  1  0  0  0  0
 12 25  1  0  0  0  0
 16 26  1  0  0  0  0
M  END
> <pdb_id>
1D09

> <uniprot_id>
P0A786

> <usmiles>
P(=O)(O)(O)CC(=O)N[C@H](C(=O)O)CC(=O)O

$$$$
PAN_A_901
          07202403143D 1   1.00000     0.00000     0
            
 28 27  0  0  0  0            999 V2000
   -7.5276    6.4631  -13.7146 P   0  0  0  0  0  0  0  0  0  0  0  0
   -8.6467    6.2371  -14.7007 O   0  0  0  0  0  0  0  0  0  0  0  0
   -8.0018    7.0587  -12.4134 O   0  0  0  0  0  0  0  0  0  0  0  0
   -6.3061    7.1390  -14.2921 O   0  0  0  0  0  0  0  0  0  0  0  0
   -5.2238    7.7868   -7.3469 O   0  0  0  0  0  0  0  0  0  0  0  0
   -3.8463    6.4974   -9.2094 O   0  0  0  0  0  0  0  0  0  0  0  0
   -5.6910    2.9337  -11.5674 O   0  0  0  0  0  0  0  0  0  0  0  0
   -6.2662    4.1058   -8.2695 O   0  0  0  0  0  0  0  0  0  0  0  0
   -7.1757    6.0255  -10.1688 O   0  0  0  0  0  0  0  0  0  0  0  0
   -6.9694    4.9954  -13.3362 O   0  0  0  0  0  0  0  0  0  0  0  0
   -5.5035    6.6180   -7.6948 N   0  0  0  0  0  0  0  0  0  0  0  0
   -7.6338    4.1456  -12.3915 C   0  0  0  0  0  0  0  0  0  0  0  0
   -4.8506    6.0274   -8.6988 C   0  0  0  0  0  0  0  0  0  0  0  0
   -6.7513    3.8148  -11.1804 C   0  0  2  0  0  0  0  0  0  0  0  0
   -5.4058    4.7325   -9.2210 C   0  0  2  0  0  0  0  0  0  0  0  0
   -6.1714    5.0659  -10.4972 C   0  0  2  0  0  0  0  0  0  0  0  0
   -8.2757    5.8424  -15.5413 H   0  0  0  0  0  0  0  0  0  0  0  0
   -7.2215    7.1860  -11.8011 H   0  0  0  0  0  0  0  0  0  0  0  0
   -5.8123    8.0577   -6.5851 H   0  0  0  0  0  0  0  0  0  0  0  0
   -5.1232    2.7254  -10.7711 H   0  0  0  0  0  0  0  0  0  0  0  0
   -6.6162    3.2496   -8.6497 H   0  0  0  0  0  0  0  0  0  0  0  0
   -6.7501    6.8163   -9.7290 H   0  0  0  0  0  0  0  0  0  0  0  0
   -6.2255    6.1196   -7.2148 H   0  0  0  0  0  0  0  0  0  0  0  0
   -7.8850    3.2922  -12.8484 H   0  0  0  0  0  0  0  0  0  0  0  0
   -8.4604    4.6074  -12.0700 H   0  0  0  0  0  0  0  0  0  0  0  0
   -7.3183    3.3355  -10.5105 H   0  0  0  0  0  0  0  0  0  0  0  0
   -4.6510    4.1145   -9.4408 H   0  0  0  0  0  0  0  0  0  0  0  0
   -5.5326    5.4959  -11.1351 H   0  0  0  0  0  0  0  0  0  0  0  0
  1  2  1  0  0  0  0
  1  3  1  0  0  0  0
  1  4  2  0  0  0  0
  1 10  1  0  0  0  0
  5 11  1  0  0  0  0
  6 13  2  0  0  0  0
  7 14  1  0  0  0  0
  8 15  1  0  0  0  0
  9 16  1  0  0  0  0
 10 12  1  0  0  0  0
 11 13  1  0  0  0  0
 12 14  1  0  0  0  0
 13 15  1  0  0  0  0
 14 16  1  0  0  0  0
 15 16  1  0  0  0  0
  2 17  1  0  0  0  0
  3 18  1  0  0  0  0
  5 19  1  0  0  0  0
  7 20  1  0  0  0  0
  8 21  1  0  0  0  0
  9 22  1  0  0  0  0
 11 23  1  0  0  0  0
 12 24  1  0  0  0  0
 12 25  1  0  0  0  0
 14 26  1  0  0  0  0
 15 27  1  0  0  0  0
 16 28  1  0  0  0  0
M  END
> <pdb_id>
2GC0

> <uniprot_id>
P83194

> <usmiles>
P(=O)(OC[C@@H](O)[C@@H](O)[C@H](O)C(=O)NO)(O)O

$$$$
PBD_C_402
          07202410253D 1   1.00000     0.00000     0
            
 42 43  0  0  0  0            999 V2000
   20.6381   18.4041   56.7644 S   0  0  0  0  0  0  0  0  0  0  0  0
   19.3566   12.5256   62.1105 O   0  0  0  0  0  0  0  0  0  0  0  0
   21.3992   14.1093   62.6527 O   0  0  0  0  0  0  0  0  0  0  0  0
   12.7658   18.8157   60.5475 N   0  0  0  0  0  0  0  0  0  0  0  0
   18.8178   17.5771   58.5167 N   0  0  0  0  0  0  0  0  0  0  0  0
   20.8267   16.3038   58.3783 N   0  0  0  0  0  0  0  0  0  0  0  0
   14.6246   19.4829   59.7330 N   0  0  0  0  0  0  0  0  0  0  0  0
   18.2235   11.6025   61.9443 C   0  0  0  0  0  0  0  0  0  0  0  0
   22.2694   15.1441   63.1427 C   0  0  0  0  0  0  0  0  0  0  0  0
   13.5555   18.7992   59.4648 C   0  0  0  0  0  0  0  0  0  0  0  0
   13.3839   19.5422   61.5159 C   0  0  0  0  0  0  0  0  0  0  0  0
   17.8600   18.6338   58.1348 C   0  0  0  0  0  0  0  0  0  0  0  0
   14.5368   19.9413   61.0098 C   0  0  0  0  0  0  0  0  0  0  0  0
   15.7234   19.6412   58.8389 C   0  0  0  0  0  0  0  0  0  0  0  0
   16.7047   18.4929   59.1080 C   0  0  0  0  0  0  0  0  0  0  0  0
   19.0134   13.5298   59.9195 C   0  0  0  0  0  0  0  0  0  0  0  0
   19.3987   14.5020   59.0097 C   0  0  0  0  0  0  0  0  0  0  0  0
   21.1565   15.2641   60.5120 C   0  0  0  0  0  0  0  0  0  0  0  0
   20.0576   17.3732   57.9777 C   0  0  0  0  0  0  0  0  0  0  0  0
   19.6859   13.4279   61.1281 C   0  0  0  0  0  0  0  0  0  0  0  0
   20.7516   14.3200   61.4450 C   0  0  0  0  0  0  0  0  0  0  0  0
   20.4658   15.3706   59.2944 C   0  0  0  0  0  0  0  0  0  0  0  0
   18.5318   16.9491   59.2404 H   0  0  0  0  0  0  0  0  0  0  0  0
   21.7288   16.2067   57.9579 H   0  0  0  0  0  0  0  0  0  0  0  0
   18.1404   11.0269   62.7577 H   0  0  0  0  0  0  0  0  0  0  0  0
   17.3815   12.1274   61.8199 H   0  0  0  0  0  0  0  0  0  0  0  0
   18.3783   11.0258   61.1422 H   0  0  0  0  0  0  0  0  0  0  0  0
   22.6662   14.8603   64.0157 H   0  0  0  0  0  0  0  0  0  0  0  0
   23.0013   15.3054   62.4806 H   0  0  0  0  0  0  0  0  0  0  0  0
   21.7459   15.9861   63.2726 H   0  0  0  0  0  0  0  0  0  0  0  0
   13.3551   18.3393   58.5997 H   0  0  0  0  0  0  0  0  0  0  0  0
   13.0341   19.7365   62.4323 H   0  0  0  0  0  0  0  0  0  0  0  0
   17.5454   18.4992   57.1951 H   0  0  0  0  0  0  0  0  0  0  0  0
   18.2816   19.5366   58.2191 H   0  0  0  0  0  0  0  0  0  0  0  0
   15.2271   20.4873   61.4846 H   0  0  0  0  0  0  0  0  0  0  0  0
   16.1726   20.5197   59.0019 H   0  0  0  0  0  0  0  0  0  0  0  0
   15.4024   19.6015   57.8927 H   0  0  0  0  0  0  0  0  0  0  0  0
   17.0427   18.5472   60.0476 H   0  0  0  0  0  0  0  0  0  0  0  0
   16.2474   17.6147   58.9685 H   0  0  0  0  0  0  0  0  0  0  0  0
   18.2589   12.9088   59.7068 H   0  0  0  0  0  0  0  0  0  0  0  0
   18.9115   14.5862   58.1405 H   0  0  0  0  0  0  0  0  0  0  0  0
   21.9334   15.8633   60.7053 H   0  0  0  0  0  0  0  0  0  0  0  0
  1 19  2  0  0  0  0
  2  8  1  0  0  0  0
  2 20  1  0  0  0  0
  3  9  1  0  0  0  0
  3 21  1  0  0  0  0
  4 10  2  0  0  0  0
  4 11  1  0  0  0  0
  5 12  1  0  0  0  0
  5 19  1  0  0  0  0
  6 19  1  0  0  0  0
  6 22  1  0  0  0  0
  7 10  1  0  0  0  0
  7 13  1  0  0  0  0
  7 14  1  0  0  0  0
 11 13  2  0  0  0  0
 12 15  1  0  0  0  0
 14 15  1  0  0  0  0
 16 17  2  0  0  0  0
 16 20  1  0  0  0  0
 17 22  1  0  0  0  0
 18 21  1  0  0  0  0
 18 22  2  0  0  0  0
 20 21  2  0  0  0  0
  5 23  1  0  0  0  0
  6 24  1  0  0  0  0
  8 25  1  0  0  0  0
  8 26  1  0  0  0  0
  8 27  1  0  0  0  0
  9 28  1  0  0  0  0
  9 29  1  0  0  0  0
  9 30  1  0  0  0  0
 10 31  1  0  0  0  0
 11 32  1  0  0  0  0
 12 33  1  0  0  0  0
 12 34  1  0  0  0  0
 13 35  1  0  0  0  0
 14 36  1  0  0  0  0
 14 37  1  0  0  0  0
 15 38  1  0  0  0  0
 15 39  1  0  0  0  0
 16 40  1  0  0  0  0
 17 41  1  0  0  0  0
 18 42  1  0  0  0  0
M  END
> <pdb_id>
4YWY

> <uniprot_id>
Q16769

> <usmiles>
S=C(Nc1cc(OC)c(OC)cc1)NCCCN2C=NC=C2

$$$$
PBQ_A_401
          07192420003D 1   1.00000     0.00000     0
            
 21 22  0  0  0  0            999 V2000
   11.7746   31.7752  -17.5076 Br  0  0  0  0  0  0  0  0  0  0  0  0
   17.5240   24.8526  -18.3843 Br  0  0  0  0  0  0  0  0  0  0  0  0
   14.5645   30.5813  -12.9336 Br  0  0  0  0  0  0  0  0  0  0  0  0
   17.8562   27.2242  -21.0379 Br  0  0  0  0  0  0  0  0  0  0  0  0
   16.1802   30.2604  -19.9348 Br  0  0  0  0  0  0  0  0  0  0  0  0
   16.2349   28.7620  -14.7795 O   0  0  0  0  0  0  0  0  0  0  0  0
   16.1489   27.1419  -17.3943 N   0  0  0  0  0  0  0  0  0  0  0  0
   13.3458   31.0001  -15.3630 C   0  0  0  0  0  0  0  0  0  0  0  0
   13.9707   29.9955  -17.4653 C   0  0  0  0  0  0  0  0  0  0  0  0
   13.1509   30.8449  -16.7222 C   0  0  0  0  0  0  0  0  0  0  0  0
   16.8484   26.5732  -18.3898 C   0  0  0  0  0  0  0  0  0  0  0  0
   14.3752   30.3035  -14.7497 C   0  0  0  0  0  0  0  0  0  0  0  0
   16.9861   27.5037  -19.4221 C   0  0  0  0  0  0  0  0  0  0  0  0
   16.3298   28.6627  -18.9997 C   0  0  0  0  0  0  0  0  0  0  0  0
   15.2225   29.4430  -15.4663 C   0  0  0  0  0  0  0  0  0  0  0  0
   15.8288   28.4068  -17.7180 C   0  0  0  0  0  0  0  0  0  0  0  0
   15.0245   29.3038  -16.8529 C   0  0  0  0  0  0  0  0  0  0  0  0
   16.8472   28.1454  -15.2743 H   0  0  0  0  0  0  0  0  0  0  0  0
   15.9021   26.6902  -16.5369 H   0  0  0  0  0  0  0  0  0  0  0  0
   12.7538   31.6051  -14.8305 H   0  0  0  0  0  0  0  0  0  0  0  0
   13.8048   29.8791  -18.4445 H   0  0  0  0  0  0  0  0  0  0  0  0
  1 10  1  0  0  0  0
  2 11  1  0  0  0  0
  3 12  1  0  0  0  0
  4 13  1  0  0  0  0
  5 14  1  0  0  0  0
  6 15  1  0  0  0  0
  7 11  1  0  0  0  0
  7 16  1  0  0  0  0
  8 10  2  0  0  0  0
  8 12  1  0  0  0  0
  9 10  1  0  0  0  0
  9 17  2  0  0  0  0
 11 13  2  0  0  0  0
 12 15  2  0  0  0  0
 13 14  1  0  0  0  0
 14 16  2  0  0  0  0
 15 17  1  0  0  0  0
 16 17  1  0  0  0  0
  6 18  1  0  0  0  0
  7 19  1  0  0  0  0
  8 20  1  0  0  0  0
  9 21  1  0  0  0  0
M  END
> <pdb_id>
4NAK

> <uniprot_id>
P69834

> <usmiles>
Brc1c(O)c(cc(Br)c1)C=2NC(Br)=C(Br)C2Br

$$$$
PBZ_A_1
          07192419343D 1   1.00000     0.00000     0
            
 19 19  0  0  0  0            999 V2000
   45.3500   22.3139   49.3095 N   0  0  0  0  0  0  0  0  0  0  0  0
   47.2636   18.3934   54.0390 N   0  0  0  0  0  0  0  0  0  0  0  0
   46.1228   16.9024   52.7368 N   0  0  0  0  0  0  0  0  0  0  0  0
   45.5075   19.9969   49.8060 C   0  0  0  0  0  0  0  0  0  0  0  0
   46.0418   21.6297   51.4905 C   0  0  0  0  0  0  0  0  0  0  0  0
   45.7916   18.9765   50.7078 C   0  0  0  0  0  0  0  0  0  0  0  0
   46.3349   20.6079   52.4012 C   0  0  0  0  0  0  0  0  0  0  0  0
   45.6376   21.3235   50.1953 C   0  0  0  0  0  0  0  0  0  0  0  0
   46.5354   18.1529   52.9572 C   0  0  0  0  0  0  0  0  0  0  0  0
   46.2117   19.2738   52.0049 C   0  0  0  0  0  0  0  0  0  0  0  0
   45.4415   23.2714   49.5829 H   0  0  0  0  0  0  0  0  0  0  0  0
   45.0470   22.0848   48.3844 H   0  0  0  0  0  0  0  0  0  0  0  0
   47.5860   19.3208   54.2287 H   0  0  0  0  0  0  0  0  0  0  0  0
   47.4904   17.6474   54.6651 H   0  0  0  0  0  0  0  0  0  0  0  0
   45.5722   16.6926   51.9288 H   0  0  0  0  0  0  0  0  0  0  0  0
   45.2096   19.7751   48.8775 H   0  0  0  0  0  0  0  0  0  0  0  0
   46.1236   22.5856   51.7727 H   0  0  0  0  0  0  0  0  0  0  0  0
   45.6941   18.0224   50.4243 H   0  0  0  0  0  0  0  0  0  0  0  0
   46.6306   20.8315   53.3300 H   0  0  0  0  0  0  0  0  0  0  0  0
  1  8  1  0  0  0  0
  2  9  1  0  0  0  0
  3  9  2  0  0  0  0
  4  6  1  0  0  0  0
  4  8  2  0  0  0  0
  5  7  2  0  0  0  0
  5  8  1  0  0  0  0
  6 10  2  0  0  0  0
  7 10  1  0  0  0  0
  9 10  1  0  0  0  0
  1 11  1  0  0  0  0
  1 12  1  0  0  0  0
  2 13  1  0  0  0  0
  2 14  1  0  0  0  0
  3 15  1  0  0  0  0
  4 16  1  0  0  0  0
  5 17  1  0  0  0  0
  6 18  1  0  0  0  0
  7 19  1  0  0  0  0
M  END
> <pdb_id>
3GY4

> <uniprot_id>
P00760

> <usmiles>
N=C(N)c1ccc(N)cc1

$$$$
PC_A_301
          07192423443D 1   1.00000     0.00000     0
            
 26 25  0  0  0  0            999 V2000
   15.3685   11.6926   19.7866 P   0  0  0  0  0  0  0  0  0  0  0  0
   15.8997   11.1060   21.0893 O   0  0  0  0  0  0  0  0  0  0  0  0
   15.0880   10.6292   18.7574 O   0  0  0  0  0  0  0  0  0  0  0  0
   14.1747   12.5859   20.0304 O   0  0  0  0  0  0  0  0  0  0  0  0
   16.5163   12.6188   19.2420 O   0  0  0  0  0  0  0  0  0  0  0  0
   17.9207   15.4288   18.5764 N   0  3  0  0  0  0  0  0  0  0  0  0
   16.7058   16.3257   18.7463 C   0  0  0  0  0  0  0  0  0  0  0  0
   19.0802   16.0712   17.9767 C   0  0  0  0  0  0  0  0  0  0  0  0
   18.2844   14.9770   19.8595 C   0  0  0  0  0  0  0  0  0  0  0  0
   16.3125   13.4498   18.1053 C   0  0  0  0  0  0  0  0  0  0  0  0
   17.5381   14.2797   17.6949 C   0  0  0  0  0  0  0  0  0  0  0  0
   16.0717   11.8442   21.7416 H   0  0  0  0  0  0  0  0  0  0  0  0
   14.7426   11.0567   17.9220 H   0  0  0  0  0  0  0  0  0  0  0  0
   15.9618   15.8036   19.1632 H   0  0  0  0  0  0  0  0  0  0  0  0
   16.9418   17.0984   19.3356 H   0  0  0  0  0  0  0  0  0  0  0  0
   16.4145   16.6652   17.8520 H   0  0  0  0  0  0  0  0  0  0  0  0
   19.8272   15.4104   17.9042 H   0  0  0  0  0  0  0  0  0  0  0  0
   18.8416   16.4059   17.0651 H   0  0  0  0  0  0  0  0  0  0  0  0
   19.3688   16.8391   18.5487 H   0  0  0  0  0  0  0  0  0  0  0  0
   19.0842   14.3809   19.7887 H   0  0  0  0  0  0  0  0  0  0  0  0
   18.5038   15.7616   20.4394 H   0  0  0  0  0  0  0  0  0  0  0  0
   17.5236   14.4676   20.2616 H   0  0  0  0  0  0  0  0  0  0  0  0
   15.5630   14.0796   18.3093 H   0  0  0  0  0  0  0  0  0  0  0  0
   16.0574   12.8669   17.3339 H   0  0  0  0  0  0  0  0  0  0  0  0
   18.3209   13.6587   17.6553 H   0  0  0  0  0  0  0  0  0  0  0  0
   17.3587   14.6484   16.7828 H   0  0  0  0  0  0  0  0  0  0  0  0
  1  2  1  0  0  0  0
  1  3  1  0  0  0  0
  1  4  2  0  0  0  0
  1  5  1  0  0  0  0
  5 10  1  0  0  0  0
  6  7  1  0  0  0  0
  6  8  1  0  0  0  0
  6  9  1  0  0  0  0
  6 11  1  0  0  0  0
 10 11  1  0  0  0  0
  2 12  1  0  0  0  0
  3 13  1  0  0  0  0
  7 14  1  0  0  0  0
  7 15  1  0  0  0  0
  7 16  1  0  0  0  0
  8 17  1  0  0  0  0
  8 18  1  0  0  0  0
  8 19  1  0  0  0  0
  9 20  1  0  0  0  0
  9 21  1  0  0  0  0
  9 22  1  0  0  0  0
 10 23  1  0  0  0  0
 10 24  1  0  0  0  0
 11 25  1  0  0  0  0
 11 26  1  0  0  0  0
M  CHG  1   6   1
M  END
> <pdb_id>
3UJ9

> <uniprot_id>
Q6T755

> <usmiles>
P(=O)(OCC[N+](C)(C)C)(O)O

$$$$
PCG_A_301
          07202416583D 1   1.00000     0.00000     0
            
 35 38  0  0  0  0            999 V2000
   31.0234    5.4275   71.1736 P   0  0  0  0  0  0  0  0  0  0  0  0
   31.5452    4.7319   70.0380 O   0  0  0  0  0  0  0  0  0  0  0  0
   31.9510    6.1422   72.0056 O   0  0  0  0  0  0  0  0  0  0  0  0
   26.0874   12.0174   75.5805 O   0  0  0  0  0  0  0  0  0  0  0  0
   27.3947    7.2636   69.6507 O   0  0  0  0  0  0  0  0  0  0  0  0
   30.1730    4.2705   72.1559 O   0  0  0  0  0  0  0  0  0  0  0  0
   29.8618    6.4232   70.5566 O   0  0  0  0  0  0  0  0  0  0  0  0
   27.1844    6.2631   72.8400 O   0  0  0  0  0  0  0  0  0  0  0  0
   30.1427    9.5934   75.1641 N   0  0  0  0  0  0  0  0  0  0  0  0
   25.0917   10.0898   73.6502 N   0  0  0  0  0  0  0  0  0  0  0  0
   28.1054   10.8610   75.3892 N   0  0  0  0  0  0  0  0  0  0  0  0
   28.3341    8.9479   73.9786 N   0  0  0  0  0  0  0  0  0  0  0  0
   26.2393    8.5073   72.8295 N   0  0  0  0  0  0  0  0  0  0  0  0
   29.1908    4.8062   72.9410 C   0  0  0  0  0  0  0  0  0  0  0  0
   25.0273    9.0728   72.7763 C   0  0  0  0  0  0  0  0  0  0  0  0
   26.7899   11.0475   75.0743 C   0  0  0  0  0  0  0  0  0  0  0  0
   28.8617    9.7601   74.8790 C   0  0  0  0  0  0  0  0  0  0  0  0
   27.7536    7.5462   71.0547 C   0  0  1  0  0  0  0  0  0  0  0  0
   26.6362    7.3319   72.0428 C   0  0  1  0  0  0  0  0  0  0  0  0
   28.2541    5.6784   72.0828 C   0  0  2  0  0  0  0  0  0  0  0  0
   28.9763    6.8311   71.6354 C   0  0  1  0  0  0  0  0  0  0  0  0
   27.0454    9.1750   73.6248 C   0  0  0  0  0  0  0  0  0  0  0  0
   26.2963   10.1702   74.1680 C   0  0  0  0  0  0  0  0  0  0  0  0
   30.7973    4.2812   69.5505 H   0  0  0  0  0  0  0  0  0  0  0  0
   28.1873    7.4298   69.0641 H   0  0  0  0  0  0  0  0  0  0  0  0
   30.6407    8.8113   74.7895 H   0  0  0  0  0  0  0  0  0  0  0  0
   30.6131   10.2495   75.7543 H   0  0  0  0  0  0  0  0  0  0  0  0
   28.5547   11.5161   75.9967 H   0  0  0  0  0  0  0  0  0  0  0  0
   29.6067    5.3692   73.6552 H   0  0  0  0  0  0  0  0  0  0  0  0
   28.6636    4.0685   73.3627 H   0  0  0  0  0  0  0  0  0  0  0  0
   24.2484    8.7990   72.2121 H   0  0  0  0  0  0  0  0  0  0  0  0
   27.9660    8.5227   71.0907 H   0  0  0  0  0  0  0  0  0  0  0  0
   25.8353    6.9885   71.5523 H   0  0  0  0  0  0  0  0  0  0  0  0
   27.8973    5.1591   71.3062 H   0  0  0  0  0  0  0  0  0  0  0  0
   29.4329    7.3353   72.3684 H   0  0  0  0  0  0  0  0  0  0  0  0
  1  2  1  0  0  0  0
  1  3  2  0  0  0  0
  1  6  1  0  0  0  0
  1  7  1  0  0  0  0
  4 16  2  0  0  0  0
  5 18  1  0  0  0  0
  6 14  1  0  0  0  0
  7 21  1  0  0  0  0
  8 19  1  0  0  0  0
  8 20  1  0  0  0  0
  9 17  1  0  0  0  0
 10 15  2  0  0  0  0
 10 23  1  0  0  0  0
 11 16  1  0  0  0  0
 11 17  1  0  0  0  0
 12 17  2  0  0  0  0
 12 22  1  0  0  0  0
 13 15  1  0  0  0  0
 13 19  1  0  0  0  0
 13 22  1  0  0  0  0
 14 20  1  0  0  0  0
 16 23  1  0  0  0  0
 18 19  1  0  0  0  0
 18 21  1  0  0  0  0
 20 21  1  0  0  0  0
 22 23  2  0  0  0  0
  2 24  1  0  0  0  0
  5 25  1  0  0  0  0
  9 26  1  0  0  0  0
  9 27  1  0  0  0  0
 11 28  1  0  0  0  0
 14 29  1  0  0  0  0
 14 30  1  0  0  0  0
 15 31  1  0  0  0  0
 18 32  1  0  0  0  0
 19 33  1  0  0  0  0
 20 34  1  0  0  0  0
 21 35  1  0  0  0  0
M  END
> <pdb_id>
4N9I

> <uniprot_id>
C3SQJ7

> <usmiles>
P1(=O)(O[C@@H]2[C@H](O[C@@H](N3C=4N=C(NC(=O)C4N=C3)N)[C@@H]2O)CO1)O

$$$$
PCG_A_401
          07202408503D 1   1.00000     0.00000     0
            
 35 38  0  0  0  0            999 V2000
   13.9377   23.8160  -21.7874 P   0  0  0  0  0  0  0  0  0  0  0  0
   14.6622   24.2667  -22.9575 O   0  0  0  0  0  0  0  0  0  0  0  0
   13.2135   22.5760  -21.8553 O   0  0  0  0  0  0  0  0  0  0  0  0
   16.0905   32.8838  -22.3273 O   0  0  0  0  0  0  0  0  0  0  0  0
   11.6533   27.2933  -20.5562 O   0  0  0  0  0  0  0  0  0  0  0  0
   14.9447   23.7619  -20.5144 O   0  0  0  0  0  0  0  0  0  0  0  0
   12.9955   25.0323  -21.3818 O   0  0  0  0  0  0  0  0  0  0  0  0
   15.0579   27.2982  -19.6845 O   0  0  0  0  0  0  0  0  0  0  0  0
   16.9662   28.7481  -24.0905 N   0  0  0  0  0  0  0  0  0  0  0  0
   14.5052   31.5474  -20.2938 N   0  0  0  0  0  0  0  0  0  0  0  0
   16.5744   30.8820  -23.2499 N   0  0  0  0  0  0  0  0  0  0  0  0
   15.6747   28.9192  -22.2323 N   0  0  0  0  0  0  0  0  0  0  0  0
   14.3021   29.3992  -20.2666 N   0  0  0  0  0  0  0  0  0  0  0  0
   15.6071   24.9548  -20.1325 C   0  0  0  0  0  0  0  0  0  0  0  0
   13.9678   30.5154  -19.6646 C   0  0  0  0  0  0  0  0  0  0  0  0
   15.9445   31.6840  -22.3071 C   0  0  0  0  0  0  0  0  0  0  0  0
   16.3969   29.4874  -23.2055 C   0  0  0  0  0  0  0  0  0  0  0  0
   12.9997   27.4198  -20.9247 C   0  0  1  0  0  0  0  0  0  0  0  0
   13.8739   28.1019  -19.8578 C   0  0  1  0  0  0  0  0  0  0  0  0
   14.6055   26.0562  -20.0059 C   0  0  2  0  0  0  0  0  0  0  0  0
   13.7602   26.2185  -21.2497 C   0  0  1  0  0  0  0  0  0  0  0  0
   15.0407   29.6953  -21.3125 C   0  0  0  0  0  0  0  0  0  0  0  0
   15.2104   31.0743  -21.2838 C   0  0  0  0  0  0  0  0  0  0  0  0
   15.1114   25.1373  -22.7566 H   0  0  0  0  0  0  0  0  0  0  0  0
   11.1470   26.8440  -21.2923 H   0  0  0  0  0  0  0  0  0  0  0  0
   16.8451   27.7558  -24.0660 H   0  0  0  0  0  0  0  0  0  0  0  0
   17.5301   29.1656  -24.8031 H   0  0  0  0  0  0  0  0  0  0  0  0
   17.1506   31.2935  -23.9560 H   0  0  0  0  0  0  0  0  0  0  0  0
   16.2847   25.1976  -20.8267 H   0  0  0  0  0  0  0  0  0  0  0  0
   16.0645   24.8165  -19.2541 H   0  0  0  0  0  0  0  0  0  0  0  0
   13.3914   30.5771  -18.8498 H   0  0  0  0  0  0  0  0  0  0  0  0
   13.0237   28.0051  -21.7352 H   0  0  0  0  0  0  0  0  0  0  0  0
   13.3733   28.1636  -18.9943 H   0  0  0  0  0  0  0  0  0  0  0  0
   13.9803   25.7859  -19.2737 H   0  0  0  0  0  0  0  0  0  0  0  0
   14.3341   26.3656  -22.0554 H   0  0  0  0  0  0  0  0  0  0  0  0
  1  2  1  0  0  0  0
  1  3  2  0  0  0  0
  1  6  1  0  0  0  0
  1  7  1  0  0  0  0
  4 16  2  0  0  0  0
  5 18  1  0  0  0  0
  6 14  1  0  0  0  0
  7 21  1  0  0  0  0
  8 19  1  0  0  0  0
  8 20  1  0  0  0  0
  9 17  1  0  0  0  0
 10 15  2  0  0  0  0
 10 23  1  0  0  0  0
 11 16  1  0  0  0  0
 11 17  1  0  0  0  0
 12 17  2  0  0  0  0
 12 22  1  0  0  0  0
 13 15  1  0  0  0  0
 13 19  1  0  0  0  0
 13 22  1  0  0  0  0
 14 20  1  0  0  0  0
 16 23  1  0  0  0  0
 18 19  1  0  0  0  0
 18 21  1  0  0  0  0
 20 21  1  0  0  0  0
 22 23  2  0  0  0  0
  2 24  1  0  0  0  0
  5 25  1  0  0  0  0
  9 26  1  0  0  0  0
  9 27  1  0  0  0  0
 11 28  1  0  0  0  0
 14 29  1  0  0  0  0
 14 30  1  0  0  0  0
 15 31  1  0  0  0  0
 18 32  1  0  0  0  0
 19 33  1  0  0  0  0
 20 34  1  0  0  0  0
 21 35  1  0  0  0  0
M  END
> <pdb_id>
2Q0A

> <uniprot_id>
O88703

> <usmiles>
P1(=O)(O[C@@H]2[C@H](O[C@@H](N3C=4N=C(NC(=O)C4N=C3)N)[C@@H]2O)CO1)O

$$$$
PCG_A_401
          07192416133D 1   1.00000     0.00000     0
            
 37 40  0  0  0  0            999 V2000
   33.2061  -39.1252  -47.5365 P   0  0  0  0  0  0  0  0  0  0  0  0
   33.9001  -37.8905  -48.3703 O   0  0  0  0  0  0  0  0  0  0  0  0
   32.1365  -38.8123  -46.5972 O   0  0  0  0  0  0  0  0  0  0  0  0
   42.3331  -40.6438  -50.3538 O   0  0  0  0  0  0  0  0  0  0  0  0
   36.0358  -41.9846  -45.8412 O   0  0  0  0  0  0  0  0  0  0  0  0
   32.6458  -40.0669  -48.6023 O   0  0  0  0  0  0  0  0  0  0  0  0
   34.4564  -39.8747  -46.7723 O   0  0  0  0  0  0  0  0  0  0  0  0
   35.8182  -42.0651  -49.3456 O   0  0  0  0  0  0  0  0  0  0  0  0
   38.6887  -37.3893  -50.1721 N   0  0  0  0  0  0  0  0  0  0  0  0
   40.3687  -42.8230  -49.2218 N   0  0  0  0  0  0  0  0  0  0  0  0
   40.5244  -39.0548  -50.2835 N   0  0  0  0  0  0  0  0  0  0  0  0
   38.2650  -39.8150  -49.4332 N   0  0  0  0  0  0  0  0  0  0  0  0
   38.1255  -42.3156  -48.7111 N   0  0  0  0  0  0  0  0  0  0  0  0
   33.7983  -40.4561  -49.5370 C   0  0  0  0  0  0  0  0  0  0  0  0
   39.0829  -43.4151  -48.8844 C   0  0  0  0  0  0  0  0  0  0  0  0
   41.0074  -40.3289  -50.0665 C   0  0  0  0  0  0  0  0  0  0  0  0
   39.1751  -38.7463  -49.9809 C   0  0  0  0  0  0  0  0  0  0  0  0
   36.4112  -41.4642  -47.0679 C   0  0  1  0  0  0  0  0  0  0  0  0
   36.7175  -42.4204  -48.2405 C   0  0  1  0  0  0  0  0  0  0  0  0
   34.7099  -41.3418  -48.7708 C   0  0  2  0  0  0  0  0  0  0  0  0
   35.3892  -40.5377  -47.6909 C   0  0  1  0  0  0  0  0  0  0  0  0
   38.7600  -41.0868  -49.2232 C   0  0  0  0  0  0  0  0  0  0  0  0
   40.1122  -41.4032  -49.5213 C   0  0  0  0  0  0  0  0  0  0  0  0
   34.6122  -38.2531  -48.9715 H   0  0  0  0  0  0  0  0  0  0  0  0
   35.8755  -41.2368  -45.1969 H   0  0  0  0  0  0  0  0  0  0  0  0
   37.7375  -37.1647  -49.9605 H   0  0  0  0  0  0  0  0  0  0  0  0
   39.3054  -36.6808  -50.5152 H   0  0  0  0  0  0  0  0  0  0  0  0
   41.2534  -43.2886  -49.2456 H   0  0  0  0  0  0  0  0  0  0  0  0
   41.1272  -38.3485  -50.6547 H   0  0  0  0  0  0  0  0  0  0  0  0
   34.2882  -39.6369  -49.8353 H   0  0  0  0  0  0  0  0  0  0  0  0
   33.4420  -40.9408  -50.3358 H   0  0  0  0  0  0  0  0  0  0  0  0
   39.1596  -43.9385  -48.0357 H   0  0  0  0  0  0  0  0  0  0  0  0
   38.7804  -44.0187  -49.6221 H   0  0  0  0  0  0  0  0  0  0  0  0
   37.2371  -40.9222  -46.9124 H   0  0  0  0  0  0  0  0  0  0  0  0
   36.5342  -43.3612  -47.9555 H   0  0  0  0  0  0  0  0  0  0  0  0
   34.1345  -42.0165  -48.3085 H   0  0  0  0  0  0  0  0  0  0  0  0
   35.9017  -39.8133  -48.1518 H   0  0  0  0  0  0  0  0  0  0  0  0
  1  2  1  0  0  0  0
  1  3  2  0  0  0  0
  1  6  1  0  0  0  0
  1  7  1  0  0  0  0
  4 16  2  0  0  0  0
  5 18  1  0  0  0  0
  6 14  1  0  0  0  0
  7 21  1  0  0  0  0
  8 19  1  0  0  0  0
  8 20  1  0  0  0  0
  9 17  1  0  0  0  0
 10 15  1  0  0  0  0
 10 23  1  0  0  0  0
 11 16  1  0  0  0  0
 11 17  1  0  0  0  0
 12 17  2  0  0  0  0
 12 22  1  0  0  0  0
 13 15  1  0  0  0  0
 13 19  1  0  0  0  0
 13 22  1  0  0  0  0
 14 20  1  0  0  0  0
 16 23  1  0  0  0  0
 18 19  1  0  0  0  0
 18 21  1  0  0  0  0
 20 21  1  0  0  0  0
 22 23  2  0  0  0  0
  2 24  1  0  0  0  0
  5 25  1  0  0  0  0
  9 26  1  0  0  0  0
  9 27  1  0  0  0  0
 10 28  1  0  0  0  0
 11 29  1  0  0  0  0
 14 30  1  0  0  0  0
 14 31  1  0  0  0  0
 15 32  1  0  0  0  0
 15 33  1  0  0  0  0
 18 34  1  0  0  0  0
 19 35  1  0  0  0  0
 20 36  1  0  0  0  0
 21 37  1  0  0  0  0
M  END
> <pdb_id>
4Z07

> <uniprot_id>
Q13976

> <usmiles>
P1(=O)(O[C@@H]2[C@H](O[C@@H](N3C=4N=C(NC(=O)C4NC3)N)[C@@H]2O)CO1)O

$$$$
PCG_A_425
          07202406163D 1   1.00000     0.00000     0
            
 35 38  0  0  0  0            999 V2000
   -9.7616   -1.8090  -17.2701 P   0  0  0  0  0  0  0  0  0  0  0  0
   -9.8878   -0.5074  -17.9458 O   0  0  0  0  0  0  0  0  0  0  0  0
   -9.8519   -3.1443  -18.1922 O   0  0  0  0  0  0  0  0  0  0  0  0
   -5.0768   -9.4782  -13.8500 O   0  0  0  0  0  0  0  0  0  0  0  0
   -6.6098   -1.6800  -14.3262 O   0  0  0  0  0  0  0  0  0  0  0  0
  -10.8225   -1.9226  -16.1676 O   0  0  0  0  0  0  0  0  0  0  0  0
   -8.3252   -1.8555  -16.4598 O   0  0  0  0  0  0  0  0  0  0  0  0
   -8.9904   -4.0603  -13.6472 O   0  0  0  0  0  0  0  0  0  0  0  0
   -7.3882   -7.5520  -17.7113 N   0  0  0  0  0  0  0  0  0  0  0  0
   -5.7537   -6.8219  -12.2433 N   0  0  0  0  0  0  0  0  0  0  0  0
   -6.2168   -8.5248  -15.7468 N   0  0  0  0  0  0  0  0  0  0  0  0
   -7.2165   -6.2040  -15.5417 N   0  0  0  0  0  0  0  0  0  0  0  0
   -6.8763   -5.0490  -13.2431 N   0  0  0  0  0  0  0  0  0  0  0  0
  -10.6861   -3.2011  -15.3298 C   0  0  0  0  0  0  0  0  0  0  0  0
   -6.2668   -5.4842  -11.9983 C   0  0  0  0  0  0  0  0  0  0  0  0
   -5.7939   -8.4320  -14.4331 C   0  0  0  0  0  0  0  0  0  0  0  0
   -6.9289   -7.4436  -16.3378 C   0  0  0  0  0  0  0  0  0  0  0  0
   -7.0411   -2.9717  -14.6458 C   0  0  1  0  0  0  0  0  0  0  0  0
   -7.5735   -3.7758  -13.4412 C   0  0  1  0  0  0  0  0  0  0  0  0
   -9.4248   -3.0450  -14.5754 C   0  0  2  0  0  0  0  0  0  0  0  0
   -8.2662   -3.0031  -15.5588 C   0  0  1  0  0  0  0  0  0  0  0  0
   -6.7827   -6.1212  -14.2381 C   0  0  0  0  0  0  0  0  0  0  0  0
   -6.0775   -7.1955  -13.6281 C   0  0  0  0  0  0  0  0  0  0  0  0
   -9.8153    0.2269  -17.2709 H   0  0  0  0  0  0  0  0  0  0  0  0
   -6.2809   -1.2243  -15.1533 H   0  0  0  0  0  0  0  0  0  0  0  0
   -7.8891   -6.7957  -18.1322 H   0  0  0  0  0  0  0  0  0  0  0  0
   -7.2035   -8.3829  -18.2362 H   0  0  0  0  0  0  0  0  0  0  0  0
   -6.0228   -9.3486  -16.2794 H   0  0  0  0  0  0  0  0  0  0  0  0
  -10.6414   -4.0048  -15.9231 H   0  0  0  0  0  0  0  0  0  0  0  0
  -11.4596   -3.2923  -14.7027 H   0  0  0  0  0  0  0  0  0  0  0  0
   -6.2114   -4.9672  -11.1441 H   0  0  0  0  0  0  0  0  0  0  0  0
   -6.2923   -3.4752  -15.0767 H   0  0  0  0  0  0  0  0  0  0  0  0
   -7.4732   -3.2219  -12.6147 H   0  0  0  0  0  0  0  0  0  0  0  0
   -9.4560   -2.1707  -14.0909 H   0  0  0  0  0  0  0  0  0  0  0  0
   -8.2573   -3.8463  -16.0964 H   0  0  0  0  0  0  0  0  0  0  0  0
  1  2  1  0  0  0  0
  1  3  2  0  0  0  0
  1  6  1  0  0  0  0
  1  7  1  0  0  0  0
  4 16  2  0  0  0  0
  5 18  1  0  0  0  0
  6 14  1  0  0  0  0
  7 21  1  0  0  0  0
  8 19  1  0  0  0  0
  8 20  1  0  0  0  0
  9 17  1  0  0  0  0
 10 15  2  0  0  0  0
 10 23  1  0  0  0  0
 11 16  1  0  0  0  0
 11 17  1  0  0  0  0
 12 17  2  0  0  0  0
 12 22  1  0  0  0  0
 13 15  1  0  0  0  0
 13 19  1  0  0  0  0
 13 22  1  0  0  0  0
 14 20  1  0  0  0  0
 16 23  1  0  0  0  0
 18 19  1  0  0  0  0
 18 21  1  0  0  0  0
 20 21  1  0  0  0  0
 22 23  2  0  0  0  0
  2 24  1  0  0  0  0
  5 25  1  0  0  0  0
  9 26  1  0  0  0  0
  9 27  1  0  0  0  0
 11 28  1  0  0  0  0
 14 29  1  0  0  0  0
 14 30  1  0  0  0  0
 15 31  1  0  0  0  0
 18 32  1  0  0  0  0
 19 33  1  0  0  0  0
 20 34  1  0  0  0  0
 21 35  1  0  0  0  0
M  END
> <pdb_id>
4KU7

> <uniprot_id>
Q13976

> <usmiles>
P1(=O)(O[C@@H]2[C@H](O[C@@H](N3C=4N=C(NC(=O)C4N=C3)N)[C@@H]2O)CO1)O

$$$$
PCG_A_900
          07202417403D 1   1.00000     0.00000     0
            
 35 38  0  0  0  0            999 V2000
   95.3961   27.9766   13.0515 P   0  0  0  0  0  0  0  0  0  0  0  0
   95.5649   28.9600   11.8618 O   0  0  0  0  0  0  0  0  0  0  0  0
   95.6747   28.3564   14.4975 O   0  0  0  0  0  0  0  0  0  0  0  0
   96.0177   20.9271    6.1674 O   0  0  0  0  0  0  0  0  0  0  0  0
   96.8306   23.8838   13.3208 O   0  0  0  0  0  0  0  0  0  0  0  0
   93.8262   27.5209   13.0116 O   0  0  0  0  0  0  0  0  0  0  0  0
   96.2710   26.6096   12.8534 O   0  0  0  0  0  0  0  0  0  0  0  0
   94.0208   24.0183   11.9566 O   0  0  0  0  0  0  0  0  0  0  0  0
   96.8175   18.6624   10.0067 N   0  0  0  0  0  0  0  0  0  0  0  0
   95.1808   23.3679    7.9390 N   0  0  0  0  0  0  0  0  0  0  0  0
   96.4147   19.8981    8.0963 N   0  0  0  0  0  0  0  0  0  0  0  0
   96.0688   20.8291   10.2242 N   0  0  0  0  0  0  0  0  0  0  0  0
   95.2898   23.1244   10.1608 N   0  0  0  0  0  0  0  0  0  0  0  0
   93.3604   26.3578   12.3201 C   0  0  0  0  0  0  0  0  0  0  0  0
   94.9849   23.9721    9.1501 C   0  0  0  0  0  0  0  0  0  0  0  0
   96.0148   20.9530    7.4139 C   0  0  0  0  0  0  0  0  0  0  0  0
   96.4279   19.8209    9.4348 C   0  0  0  0  0  0  0  0  0  0  0  0
   96.3724   24.2517   12.0276 C   0  0  1  0  0  0  0  0  0  0  0  0
   95.2263   23.3445   11.6232 C   0  0  1  0  0  0  0  0  0  0  0  0
   94.3476   25.2373   12.6028 C   0  0  2  0  0  0  0  0  0  0  0  0
   95.7030   25.5944   12.0450 C   0  0  1  0  0  0  0  0  0  0  0  0
   95.6889   21.9785    9.6516 C   0  0  0  0  0  0  0  0  0  0  0  0
   95.6135   22.1232    8.1941 C   0  0  0  0  0  0  0  0  0  0  0  0
   95.3267   28.4954   11.0089 H   0  0  0  0  0  0  0  0  0  0  0  0
   97.5864   24.4811   13.5890 H   0  0  0  0  0  0  0  0  0  0  0  0
   96.8365   18.5781   11.0029 H   0  0  0  0  0  0  0  0  0  0  0  0
   97.0872   17.8881    9.4342 H   0  0  0  0  0  0  0  0  0  0  0  0
   96.7296   19.1014    7.5805 H   0  0  0  0  0  0  0  0  0  0  0  0
   93.3193   26.5377   11.3373 H   0  0  0  0  0  0  0  0  0  0  0  0
   92.4513   26.1043   12.6508 H   0  0  0  0  0  0  0  0  0  0  0  0
   94.6612   24.9103    9.2722 H   0  0  0  0  0  0  0  0  0  0  0  0
   97.1136   24.2231   11.3569 H   0  0  0  0  0  0  0  0  0  0  0  0
   95.2840   22.4727   12.1095 H   0  0  0  0  0  0  0  0  0  0  0  0
   94.4167   25.0888   13.5893 H   0  0  0  0  0  0  0  0  0  0  0  0
   95.6016   25.9299   11.1085 H   0  0  0  0  0  0  0  0  0  0  0  0
  1  2  1  0  0  0  0
  1  3  2  0  0  0  0
  1  6  1  0  0  0  0
  1  7  1  0  0  0  0
  4 16  2  0  0  0  0
  5 18  1  0  0  0  0
  6 14  1  0  0  0  0
  7 21  1  0  0  0  0
  8 19  1  0  0  0  0
  8 20  1  0  0  0  0
  9 17  1  0  0  0  0
 10 15  2  0  0  0  0
 10 23  1  0  0  0  0
 11 16  1  0  0  0  0
 11 17  1  0  0  0  0
 12 17  2  0  0  0  0
 12 22  1  0  0  0  0
 13 15  1  0  0  0  0
 13 19  1  0  0  0  0
 13 22  1  0  0  0  0
 14 20  1  0  0  0  0
 16 23  1  0  0  0  0
 18 19  1  0  0  0  0
 18 21  1  0  0  0  0
 20 21  1  0  0  0  0
 22 23  2  0  0  0  0
  2 24  1  0  0  0  0
  5 25  1  0  0  0  0
  9 26  1  0  0  0  0
  9 27  1  0  0  0  0
 11 28  1  0  0  0  0
 14 29  1  0  0  0  0
 14 30  1  0  0  0  0
 15 31  1  0  0  0  0
 18 32  1  0  0  0  0
 19 33  1  0  0  0  0
 20 34  1  0  0  0  0
 21 35  1  0  0  0  0
M  END
> <pdb_id>
3DYQ

> <uniprot_id>
O76083

> <usmiles>
P1(=O)(O[C@@H]2[C@H](O[C@@H](N3C=4N=C(NC(=O)C4N=C3)N)[C@@H]2O)CO1)O

$$$$
PCG_B_402
          07202408503D 1   1.00000     0.00000     0
            
 35 38  0  0  0  0            999 V2000
   13.8180   23.6700  -21.8230 P   0  0  0  0  0  0  0  0  0  0  0  0
   14.6100   23.8620  -23.0580 O   0  0  0  0  0  0  0  0  0  0  0  0
   12.8940   22.5200  -21.7400 O   0  0  0  0  0  0  0  0  0  0  0  0
   16.1580   32.9000  -22.6780 O   0  0  0  0  0  0  0  0  0  0  0  0
   11.7860   27.1030  -20.2290 O   0  0  0  0  0  0  0  0  0  0  0  0
   14.8660   23.6160  -20.5730 O   0  0  0  0  0  0  0  0  0  0  0  0
   13.0000   25.0470  -21.4440 O   0  0  0  0  0  0  0  0  0  0  0  0
   15.1800   27.3060  -19.7830 O   0  0  0  0  0  0  0  0  0  0  0  0
   16.9380   28.4900  -24.2610 N   0  0  0  0  0  0  0  0  0  0  0  0
   14.6020   31.6860  -20.4800 N   0  0  0  0  0  0  0  0  0  0  0  0
   16.5980   30.7710  -23.5370 N   0  0  0  0  0  0  0  0  0  0  0  0
   15.6750   28.8970  -22.3480 N   0  0  0  0  0  0  0  0  0  0  0  0
   14.3700   29.5150  -20.3490 N   0  0  0  0  0  0  0  0  0  0  0  0
   15.6420   24.8110  -20.2740 C   0  0  0  0  0  0  0  0  0  0  0  0
   14.0590   30.6920  -19.7680 C   0  0  0  0  0  0  0  0  0  0  0  0
   16.0090   31.6750  -22.5730 C   0  0  0  0  0  0  0  0  0  0  0  0
   16.4100   29.3520  -23.3950 C   0  0  0  0  0  0  0  0  0  0  0  0
   13.0110   27.4390  -20.8520 C   0  0  1  0  0  0  0  0  0  0  0  0
   13.9600   28.1690  -19.8640 C   0  0  1  0  0  0  0  0  0  0  0  0
   14.6770   26.0030  -20.0690 C   0  0  2  0  0  0  0  0  0  0  0  0
   13.7820   26.2220  -21.2430 C   0  0  1  0  0  0  0  0  0  0  0  0
   15.1090   29.7560  -21.4210 C   0  0  0  0  0  0  0  0  0  0  0  0
   15.2550   31.1470  -21.5070 C   0  0  0  0  0  0  0  0  0  0  0  0
   15.1835   24.6757  -22.9631 H   0  0  0  0  0  0  0  0  0  0  0  0
   11.1951   26.6351  -20.8862 H   0  0  0  0  0  0  0  0  0  0  0  0
   16.7929   27.5080  -24.1405 H   0  0  0  0  0  0  0  0  0  0  0  0
   17.4798   28.8245  -25.0321 H   0  0  0  0  0  0  0  0  0  0  0  0
   15.5383   27.9120  -22.2431 H   0  0  0  0  0  0  0  0  0  0  0  0
   16.2604   25.0078  -21.0348 H   0  0  0  0  0  0  0  0  0  0  0  0
   16.1749   24.6644  -19.4406 H   0  0  0  0  0  0  0  0  0  0  0  0
   13.5111   30.8035  -18.9390 H   0  0  0  0  0  0  0  0  0  0  0  0
   12.8430   28.0120  -21.6542 H   0  0  0  0  0  0  0  0  0  0  0  0
   13.5300   28.2431  -18.9642 H   0  0  0  0  0  0  0  0  0  0  0  0
   14.0826   25.7561  -19.3037 H   0  0  0  0  0  0  0  0  0  0  0  0
   14.3289   26.4117  -22.0584 H   0  0  0  0  0  0  0  0  0  0  0  0
  1  2  1  0  0  0  0
  1  3  2  0  0  0  0
  1  6  1  0  0  0  0
  1  7  1  0  0  0  0
  4 16  2  0  0  0  0
  5 18  1  0  0  0  0
  6 14  1  0  0  0  0
  7 21  1  0  0  0  0
  8 19  1  0  0  0  0
  8 20  1  0  0  0  0
  9 17  1  0  0  0  0
 10 15  2  0  0  0  0
 10 23  1  0  0  0  0
 11 16  1  0  0  0  0
 11 17  2  0  0  0  0
 12 17  1  0  0  0  0
 12 22  1  0  0  0  0
 13 15  1  0  0  0  0
 13 19  1  0  0  0  0
 13 22  1  0  0  0  0
 14 20  1  0  0  0  0
 16 23  1  0  0  0  0
 18 19  1  0  0  0  0
 18 21  1  0  0  0  0
 20 21  1  0  0  0  0
 22 23  2  0  0  0  0
  2 24  1  0  0  0  0
  5 25  1  0  0  0  0
  9 26  1  0  0  0  0
  9 27  1  0  0  0  0
 12 28  1  0  0  0  0
 14 29  1  0  0  0  0
 14 30  1  0  0  0  0
 15 31  1  0  0  0  0
 18 32  1  0  0  0  0
 19 33  1  0  0  0  0
 20 34  1  0  0  0  0
 21 35  1  0  0  0  0
M  END
> <pdb_id>
2Q0A

> <uniprot_id>
O88703

> <usmiles>
P1(=O)(O[C@@H]2[C@H](O[C@@H](N3C=4NC(=NC(=O)C4N=C3)N)[C@@H]2O)CO1)O

$$$$
PCG_C_301
          07202416583D 1   1.00000     0.00000     0
            
 35 38  0  0  0  0            999 V2000
   31.1010    5.3960   71.1420 P   0  0  0  0  0  0  0  0  0  0  0  0
   31.6620    4.6110   70.0250 O   0  0  0  0  0  0  0  0  0  0  0  0
   31.9140    6.2010   72.0450 O   0  0  0  0  0  0  0  0  0  0  0  0
   26.3110   11.9730   75.5040 O   0  0  0  0  0  0  0  0  0  0  0  0
   27.4980    7.3510   69.6880 O   0  0  0  0  0  0  0  0  0  0  0  0
   30.3250    4.3080   72.0720 O   0  0  0  0  0  0  0  0  0  0  0  0
   29.9120    6.3550   70.5200 O   0  0  0  0  0  0  0  0  0  0  0  0
   27.2400    6.2180   72.7450 O   0  0  0  0  0  0  0  0  0  0  0  0
   30.3450    9.6640   75.2330 N   0  0  0  0  0  0  0  0  0  0  0  0
   25.1750   10.1200   73.6580 N   0  0  0  0  0  0  0  0  0  0  0  0
   28.3460   10.8680   75.4410 N   0  0  0  0  0  0  0  0  0  0  0  0
   28.5040    8.9780   73.9990 N   0  0  0  0  0  0  0  0  0  0  0  0
   26.4100    8.4270   72.8210 N   0  0  0  0  0  0  0  0  0  0  0  0
   29.2570    4.7220   72.9150 C   0  0  0  0  0  0  0  0  0  0  0  0
   25.1740    9.0510   72.7910 C   0  0  0  0  0  0  0  0  0  0  0  0
   26.9950   11.0130   75.0560 C   0  0  0  0  0  0  0  0  0  0  0  0
   29.0710    9.8140   74.8710 C   0  0  0  0  0  0  0  0  0  0  0  0
   27.8260    7.5290   70.9770 C   0  0  1  0  0  0  0  0  0  0  0  0
   26.7130    7.2800   71.9730 C   0  0  1  0  0  0  0  0  0  0  0  0
   28.3690    5.6340   72.0370 C   0  0  2  0  0  0  0  0  0  0  0  0
   29.0980    6.8360   71.5040 C   0  0  1  0  0  0  0  0  0  0  0  0
   27.2180    9.1400   73.6080 C   0  0  0  0  0  0  0  0  0  0  0  0
   26.4510   10.1690   74.1460 C   0  0  0  0  0  0  0  0  0  0  0  0
   30.9224    4.1407   69.5436 H   0  0  0  0  0  0  0  0  0  0  0  0
   28.2941    7.5382   69.1125 H   0  0  0  0  0  0  0  0  0  0  0  0
   30.8910    8.9216   74.8448 H   0  0  0  0  0  0  0  0  0  0  0  0
   30.7548   10.2939   75.8927 H   0  0  0  0  0  0  0  0  0  0  0  0
   29.0383    8.2186   73.6279 H   0  0  0  0  0  0  0  0  0  0  0  0
   29.6089    5.2292   73.7017 H   0  0  0  0  0  0  0  0  0  0  0  0
   28.7366    3.9301   73.2346 H   0  0  0  0  0  0  0  0  0  0  0  0
   24.3991    8.7681   72.2257 H   0  0  0  0  0  0  0  0  0  0  0  0
   28.0205    8.5068   71.0552 H   0  0  0  0  0  0  0  0  0  0  0  0
   25.8873    6.9794   71.4957 H   0  0  0  0  0  0  0  0  0  0  0  0
   28.0232    5.0997   71.2657 H   0  0  0  0  0  0  0  0  0  0  0  0
   29.5805    7.3591   72.2065 H   0  0  0  0  0  0  0  0  0  0  0  0
  1  2  1  0  0  0  0
  1  3  2  0  0  0  0
  1  6  1  0  0  0  0
  1  7  1  0  0  0  0
  4 16  2  0  0  0  0
  5 18  1  0  0  0  0
  6 14  1  0  0  0  0
  7 21  1  0  0  0  0
  8 19  1  0  0  0  0
  8 20  1  0  0  0  0
  9 17  1  0  0  0  0
 10 15  2  0  0  0  0
 10 23  1  0  0  0  0
 11 16  1  0  0  0  0
 11 17  2  0  0  0  0
 12 17  1  0  0  0  0
 12 22  1  0  0  0  0
 13 15  1  0  0  0  0
 13 19  1  0  0  0  0
 13 22  1  0  0  0  0
 14 20  1  0  0  0  0
 16 23  1  0  0  0  0
 18 19  1  0  0  0  0
 18 21  1  0  0  0  0
 20 21  1  0  0  0  0
 22 23  2  0  0  0  0
  2 24  1  0  0  0  0
  5 25  1  0  0  0  0
  9 26  1  0  0  0  0
  9 27  1  0  0  0  0
 12 28  1  0  0  0  0
 14 29  1  0  0  0  0
 14 30  1  0  0  0  0
 15 31  1  0  0  0  0
 18 32  1  0  0  0  0
 19 33  1  0  0  0  0
 20 34  1  0  0  0  0
 21 35  1  0  0  0  0
M  END
> <pdb_id>
4N9I

> <uniprot_id>
C3SQJ7

> <usmiles>
P1(=O)(O[C@@H]2[C@H](O[C@@H](N3C=4NC(=NC(=O)C4N=C3)N)[C@@H]2O)CO1)O

$$$$
PCG_C_401
          07192416133D 1   1.00000     0.00000     0
            
 37 40  0  0  0  0            999 V2000
   33.2960  -39.1080  -47.4500 P   0  0  0  0  0  0  0  0  0  0  0  0
   32.2430  -38.7170  -46.5190 O   0  0  0  0  0  0  0  0  0  0  0  0
   34.0300  -37.8400  -48.1880 O   0  0  0  0  0  0  0  0  0  0  0  0
   42.3330  -40.7040  -50.2220 O   0  0  0  0  0  0  0  0  0  0  0  0
   35.9500  -41.9510  -45.6450 O   0  0  0  0  0  0  0  0  0  0  0  0
   32.7880  -39.9990  -48.5700 O   0  0  0  0  0  0  0  0  0  0  0  0
   34.5010  -39.9380  -46.6940 O   0  0  0  0  0  0  0  0  0  0  0  0
   35.8070  -42.2400  -49.1490 O   0  0  0  0  0  0  0  0  0  0  0  0
   38.5630  -37.5450  -50.1400 N   0  0  0  0  0  0  0  0  0  0  0  0
   40.3530  -42.8950  -49.0270 N   0  0  0  0  0  0  0  0  0  0  0  0
   40.4850  -39.1630  -50.1610 N   0  0  0  0  0  0  0  0  0  0  0  0
   38.2260  -39.9410  -49.3340 N   0  0  0  0  0  0  0  0  0  0  0  0
   38.1120  -42.4100  -48.5590 N   0  0  0  0  0  0  0  0  0  0  0  0
   33.9940  -40.3930  -49.4430 C   0  0  0  0  0  0  0  0  0  0  0  0
   39.0440  -43.5070  -48.8290 C   0  0  0  0  0  0  0  0  0  0  0  0
   41.0000  -40.4220  -49.9220 C   0  0  0  0  0  0  0  0  0  0  0  0
   39.1150  -38.8720  -49.8860 C   0  0  0  0  0  0  0  0  0  0  0  0
   36.4300  -41.5120  -46.8870 C   0  0  1  0  0  0  0  0  0  0  0  0
   36.7290  -42.5150  -48.0390 C   0  0  1  0  0  0  0  0  0  0  0  0
   34.7770  -41.3690  -48.6490 C   0  0  2  0  0  0  0  0  0  0  0  0
   35.4770  -40.5710  -47.5880 C   0  0  1  0  0  0  0  0  0  0  0  0
   38.7390  -41.1950  -49.1010 C   0  0  0  0  0  0  0  0  0  0  0  0
   40.1030  -41.4930  -49.3740 C   0  0  0  0  0  0  0  0  0  0  0  0
   34.7370  -38.1792  -48.8086 H   0  0  0  0  0  0  0  0  0  0  0  0
   35.8202  -41.1647  -45.0409 H   0  0  0  0  0  0  0  0  0  0  0  0
   37.6010  -37.3573  -49.9419 H   0  0  0  0  0  0  0  0  0  0  0  0
   39.1468  -36.8235  -50.5122 H   0  0  0  0  0  0  0  0  0  0  0  0
   41.2433  -43.3425  -48.9428 H   0  0  0  0  0  0  0  0  0  0  0  0
   37.2656  -39.7449  -49.1359 H   0  0  0  0  0  0  0  0  0  0  0  0
   34.5503  -39.5881  -49.6494 H   0  0  0  0  0  0  0  0  0  0  0  0
   33.6825  -40.8107  -50.2965 H   0  0  0  0  0  0  0  0  0  0  0  0
   39.0706  -44.1373  -48.0531 H   0  0  0  0  0  0  0  0  0  0  0  0
   38.7658  -44.0027  -49.6517 H   0  0  0  0  0  0  0  0  0  0  0  0
   37.2729  -41.0026  -46.7137 H   0  0  0  0  0  0  0  0  0  0  0  0
   36.5742  -43.4463  -47.7093 H   0  0  0  0  0  0  0  0  0  0  0  0
   34.1143  -41.9512  -48.1780 H   0  0  0  0  0  0  0  0  0  0  0  0
   36.0115  -39.8525  -48.0330 H   0  0  0  0  0  0  0  0  0  0  0  0
  1  2  2  0  0  0  0
  1  3  1  0  0  0  0
  1  6  1  0  0  0  0
  1  7  1  0  0  0  0
  4 16  2  0  0  0  0
  5 18  1  0  0  0  0
  6 14  1  0  0  0  0
  7 21  1  0  0  0  0
  8 19  1  0  0  0  0
  8 20  1  0  0  0  0
  9 17  1  0  0  0  0
 10 15  1  0  0  0  0
 10 23  1  0  0  0  0
 11 16  1  0  0  0  0
 11 17  2  0  0  0  0
 12 17  1  0  0  0  0
 12 22  1  0  0  0  0
 13 15  1  0  0  0  0
 13 19  1  0  0  0  0
 13 22  1  0  0  0  0
 14 20  1  0  0  0  0
 16 23  1  0  0  0  0
 18 19  1  0  0  0  0
 18 21  1  0  0  0  0
 20 21  1  0  0  0  0
 22 23  2  0  0  0  0
  3 24  1  0  0  0  0
  5 25  1  0  0  0  0
  9 26  1  0  0  0  0
  9 27  1  0  0  0  0
 10 28  1  0  0  0  0
 12 29  1  0  0  0  0
 14 30  1  0  0  0  0
 14 31  1  0  0  0  0
 15 32  1  0  0  0  0
 15 33  1  0  0  0  0
 18 34  1  0  0  0  0
 19 35  1  0  0  0  0
 20 36  1  0  0  0  0
 21 37  1  0  0  0  0
M  END
> <pdb_id>
4Z07

> <uniprot_id>
Q13976

> <usmiles>
P1(=O)(O[C@@H]2[C@H](O[C@@H](N3C=4NC(=NC(=O)C4NC3)N)[C@@H]2O)CO1)O

$$$$
PD2_A_1343
          07202410153D 1   1.00000     0.00000     0
            
 17 17  0  0  0  0            999 V2000
    9.6067    5.9970   15.5327 O   0  0  0  0  0  0  0  0  0  0  0  0
    7.5465    6.0522   16.4433 O   0  0  0  0  0  0  0  0  0  0  0  0
   11.1855    0.2532   17.9100 O   0  0  0  0  0  0  0  0  0  0  0  0
   12.5265    1.9222   17.3811 O   0  0  0  0  0  0  0  0  0  0  0  0
    8.0677    4.1678   18.1847 N   0  0  0  0  0  0  0  0  0  0  0  0
    8.2069    3.0600   18.9424 C   0  0  0  0  0  0  0  0  0  0  0  0
    9.2557    2.1591   18.8055 C   0  0  0  0  0  0  0  0  0  0  0  0
   10.1237    3.5529   17.0367 C   0  0  0  0  0  0  0  0  0  0  0  0
    8.7940    5.5379   16.3314 C   0  0  0  0  0  0  0  0  0  0  0  0
   11.3084    1.4602   17.7133 C   0  0  0  0  0  0  0  0  0  0  0  0
    9.0205    4.3818   17.2403 C   0  0  0  0  0  0  0  0  0  0  0  0
   10.2127    2.4221   17.8471 C   0  0  0  0  0  0  0  0  0  0  0  0
   10.5225    5.6007   15.4677 H   0  0  0  0  0  0  0  0  0  0  0  0
   10.2936   -0.1245   18.1588 H   0  0  0  0  0  0  0  0  0  0  0  0
    7.5162    2.8770   19.6419 H   0  0  0  0  0  0  0  0  0  0  0  0
    9.3152    1.3454   19.3836 H   0  0  0  0  0  0  0  0  0  0  0  0
   10.8155    3.7593   16.3447 H   0  0  0  0  0  0  0  0  0  0  0  0
  1  9  1  0  0  0  0
  2  9  2  0  0  0  0
  3 10  1  0  0  0  0
  4 10  2  0  0  0  0
  5  6  1  0  0  0  0
  5 11  2  0  0  0  0
  6  7  2  0  0  0  0
  7 12  1  0  0  0  0
  8 11  1  0  0  0  0
  8 12  2  0  0  0  0
  9 11  1  0  0  0  0
 10 12  1  0  0  0  0
  1 13  1  0  0  0  0
  3 14  1  0  0  0  0
  6 15  1  0  0  0  0
  7 16  1  0  0  0  0
  8 17  1  0  0  0  0
M  END
> <pdb_id>
4D6Q

> <uniprot_id>
Q6B0I6

> <usmiles>
O=C(O)c1nccc(c1)C(=O)O

$$$$
PD2_A_1351
          07192422393D 1   1.00000     0.00000     0
            
 17 17  0  0  0  0            999 V2000
  -25.6214   23.9474   -9.1343 O   0  0  0  0  0  0  0  0  0  0  0  0
  -23.5936   22.7537   -9.7308 O   0  0  0  0  0  0  0  0  0  0  0  0
  -25.3730   16.7690   -7.4339 O   0  0  0  0  0  0  0  0  0  0  0  0
  -24.1192   17.4405   -9.3850 O   0  0  0  0  0  0  0  0  0  0  0  0
  -26.6747   21.6780   -7.7162 N   0  0  0  0  0  0  0  0  0  0  0  0
  -27.2504   20.6375   -7.2629 C   0  0  0  0  0  0  0  0  0  0  0  0
  -26.5984   19.2713   -7.4642 C   0  0  0  0  0  0  0  0  0  0  0  0
  -24.7827   20.3990   -8.6277 C   0  0  0  0  0  0  0  0  0  0  0  0
  -24.8146   22.8176   -9.0483 C   0  0  0  0  0  0  0  0  0  0  0  0
  -24.8303   17.7796   -8.2280 C   0  0  0  0  0  0  0  0  0  0  0  0
  -25.3877   21.5643   -8.4384 C   0  0  0  0  0  0  0  0  0  0  0  0
  -25.4531   19.1675   -8.0819 C   0  0  0  0  0  0  0  0  0  0  0  0
  -26.4910   23.9794   -8.6416 H   0  0  0  0  0  0  0  0  0  0  0  0
  -25.8824   17.0030   -6.6057 H   0  0  0  0  0  0  0  0  0  0  0  0
  -28.1222   20.7138   -6.7791 H   0  0  0  0  0  0  0  0  0  0  0  0
  -27.0526   18.4496   -7.1201 H   0  0  0  0  0  0  0  0  0  0  0  0
  -23.9120   20.3410   -9.1160 H   0  0  0  0  0  0  0  0  0  0  0  0
  1  9  1  0  0  0  0
  2  9  2  0  0  0  0
  3 10  1  0  0  0  0
  4 10  2  0  0  0  0
  5  6  1  0  0  0  0
  5 11  2  0  0  0  0
  6  7  2  0  0  0  0
  7 12  1  0  0  0  0
  8 11  1  0  0  0  0
  8 12  2  0  0  0  0
  9 11  1  0  0  0  0
 10 12  1  0  0  0  0
  1 13  1  0  0  0  0
  3 14  1  0  0  0  0
  6 15  1  0  0  0  0
  7 16  1  0  0  0  0
  8 17  1  0  0  0  0
M  END
> <pdb_id>
2W0X

> <uniprot_id>
Q9NWT6

> <usmiles>
O=C(O)c1nccc(c1)C(=O)O

$$$$
PD2_A_1356
          07202411573D 1   1.00000     0.00000     0
            
 17 17  0  0  0  0            999 V2000
   -6.7605  103.6052   19.0125 O   0  0  0  0  0  0  0  0  0  0  0  0
   -6.5267  101.5039   19.5393 O   0  0  0  0  0  0  0  0  0  0  0  0
   -2.2903   99.9993   14.9599 O   0  0  0  0  0  0  0  0  0  0  0  0
   -3.2546   98.7713   16.4386 O   0  0  0  0  0  0  0  0  0  0  0  0
   -5.1259  103.4359   16.9315 N   0  0  0  0  0  0  0  0  0  0  0  0
   -4.2845  103.4262   15.8899 C   0  0  0  0  0  0  0  0  0  0  0  0
   -3.6158  102.2616   15.5523 C   0  0  0  0  0  0  0  0  0  0  0  0
   -4.6976  101.1049   17.4000 C   0  0  0  0  0  0  0  0  0  0  0  0
   -6.2748  102.4719   18.8227 C   0  0  0  0  0  0  0  0  0  0  0  0
   -3.0853   99.8752   15.8913 C   0  0  0  0  0  0  0  0  0  0  0  0
   -5.3334  102.3243   17.6829 C   0  0  0  0  0  0  0  0  0  0  0  0
   -3.8233  101.1019   16.3081 C   0  0  0  0  0  0  0  0  0  0  0  0
   -6.5235  104.3596   18.4004 H   0  0  0  0  0  0  0  0  0  0  0  0
   -2.1623  100.8918   14.5273 H   0  0  0  0  0  0  0  0  0  0  0  0
   -4.1392  104.2593   15.3562 H   0  0  0  0  0  0  0  0  0  0  0  0
   -2.9886  102.2492   14.7735 H   0  0  0  0  0  0  0  0  0  0  0  0
   -4.8607  100.2847   17.9482 H   0  0  0  0  0  0  0  0  0  0  0  0
  1  9  1  0  0  0  0
  2  9  2  0  0  0  0
  3 10  1  0  0  0  0
  4 10  2  0  0  0  0
  5  6  1  0  0  0  0
  5 11  2  0  0  0  0
  6  7  2  0  0  0  0
  7 12  1  0  0  0  0
  8 11  1  0  0  0  0
  8 12  2  0  0  0  0
  9 11  1  0  0  0  0
 10 12  1  0  0  0  0
  1 13  1  0  0  0  0
  3 14  1  0  0  0  0
  6 15  1  0  0  0  0
  7 16  1  0  0  0  0
  8 17  1  0  0  0  0
M  END
> <pdb_id>
2VD7

> <uniprot_id>
O75164

> <usmiles>
O=C(O)c1nccc(c1)C(=O)O

$$$$
PD2_A_401
          07202406423D 1   1.00000     0.00000     0
            
 17 17  0  0  0  0            999 V2000
   31.4443    1.5289  -15.4982 O   0  0  0  0  0  0  0  0  0  0  0  0
   29.7278    0.2170  -15.2712 O   0  0  0  0  0  0  0  0  0  0  0  0
   32.3645    3.1435  -20.4373 O   0  0  0  0  0  0  0  0  0  0  0  0
   30.6199    2.6963  -21.7340 O   0  0  0  0  0  0  0  0  0  0  0  0
   29.6306   -0.2320  -17.9021 N   0  0  0  0  0  0  0  0  0  0  0  0
   29.3171   -0.3422  -19.2045 C   0  0  0  0  0  0  0  0  0  0  0  0
   29.8327    0.5742  -20.1067 C   0  0  0  0  0  0  0  0  0  0  0  0
   30.9889    1.6751  -18.3135 C   0  0  0  0  0  0  0  0  0  0  0  0
   30.5823    0.8173  -15.9726 C   0  0  0  0  0  0  0  0  0  0  0  0
   31.2434    2.5731  -20.6651 C   0  0  0  0  0  0  0  0  0  0  0  0
   30.4408    0.7282  -17.4616 C   0  0  0  0  0  0  0  0  0  0  0  0
   30.6703    1.5914  -19.6619 C   0  0  0  0  0  0  0  0  0  0  0  0
   32.1017    1.9853  -16.0978 H   0  0  0  0  0  0  0  0  0  0  0  0
   32.8239    3.0103  -19.5591 H   0  0  0  0  0  0  0  0  0  0  0  0
   28.7178   -1.0783  -19.5191 H   0  0  0  0  0  0  0  0  0  0  0  0
   29.6027    0.5042  -21.0774 H   0  0  0  0  0  0  0  0  0  0  0  0
   31.5929    2.3935  -17.9683 H   0  0  0  0  0  0  0  0  0  0  0  0
  1  9  1  0  0  0  0
  2  9  2  0  0  0  0
  3 10  1  0  0  0  0
  4 10  2  0  0  0  0
  5  6  1  0  0  0  0
  5 11  2  0  0  0  0
  6  7  2  0  0  0  0
  7 12  1  0  0  0  0
  8 11  1  0  0  0  0
  8 12  2  0  0  0  0
  9 11  1  0  0  0  0
 10 12  1  0  0  0  0
  1 13  1  0  0  0  0
  3 14  1  0  0  0  0
  6 15  1  0  0  0  0
  7 16  1  0  0  0  0
  8 17  1  0  0  0  0
M  END
> <pdb_id>
4LXL

> <uniprot_id>
O94953

> <usmiles>
O=C(O)c1nccc(c1)C(=O)O

$$$$
PD2_A_502
          07202411093D 1   1.00000     0.00000     0
            
 17 17  0  0  0  0            999 V2000
   11.5460  -11.1880  -23.5680 O   0  0  0  0  0  0  0  0  0  0  0  0
   11.4390  -11.8780  -21.4740 O   0  0  0  0  0  0  0  0  0  0  0  0
    5.2550  -13.5240  -21.2370 O   0  0  0  0  0  0  0  0  0  0  0  0
    7.0040  -13.8560  -19.9780 O   0  0  0  0  0  0  0  0  0  0  0  0
    8.9890  -11.6990  -23.9920 N   0  0  0  0  0  0  0  0  0  0  0  0
    7.6750  -11.8870  -24.1840 C   0  0  0  0  0  0  0  0  0  0  0  0
    6.8490  -12.4600  -23.2240 C   0  0  0  0  0  0  0  0  0  0  0  0
    8.6620  -12.5910  -21.8020 C   0  0  0  0  0  0  0  0  0  0  0  0
   10.9080  -11.6750  -22.5940 C   0  0  0  0  0  0  0  0  0  0  0  0
    6.5050  -13.4300  -21.0430 C   0  0  0  0  0  0  0  0  0  0  0  0
    9.4680  -12.0120  -22.7880 C   0  0  0  0  0  0  0  0  0  0  0  0
    7.3480  -12.8330  -22.0300 C   0  0  0  0  0  0  0  0  0  0  0  0
    7.3120  -11.6750  -25.0140 H   0  0  0  0  0  0  0  0  0  0  0  0
    5.9580  -12.6350  -23.4260 H   0  0  0  0  0  0  0  0  0  0  0  0
    9.0320  -12.8110  -20.9780 H   0  0  0  0  0  0  0  0  0  0  0  0
   11.0863  -11.0418  -24.4439 H   0  0  0  0  0  0  0  0  0  0  0  0
    4.8541  -13.1841  -22.0877 H   0  0  0  0  0  0  0  0  0  0  0  0
  1  9  1  0  0  0  0
  2  9  2  0  0  0  0
  3 10  1  0  0  0  0
  4 10  2  0  0  0  0
  5  6  1  0  0  0  0
  5 11  2  0  0  0  0
  6  7  2  0  0  0  0
  6 13  1  0  0  0  0
  7 12  1  0  0  0  0
  7 14  1  0  0  0  0
  8 11  1  0  0  0  0
  8 12  2  0  0  0  0
  8 15  1  0  0  0  0
  9 11  1  0  0  0  0
 10 12  1  0  0  0  0
  1 16  1  0  0  0  0
  3 17  1  0  0  0  0
M  END
> <pdb_id>
6I9L

> <uniprot_id>
Q8N371

> <usmiles>
O=C(O)c1nccc(c1)C(=O)O

$$$$
PD2_A_507
          07202401113D 1   1.00000     0.00000     0
            
 17 17  0  0  0  0            999 V2000
    2.2010  -16.7240  -96.2020 O   0  0  0  0  0  0  0  0  0  0  0  0
    0.4590  -17.3420  -95.0420 O   0  0  0  0  0  0  0  0  0  0  0  0
   -0.3750  -15.1150  -90.7500 O   0  0  0  0  0  0  0  0  0  0  0  0
    1.1750  -13.9350  -89.7850 O   0  0  0  0  0  0  0  0  0  0  0  0
    3.1450  -15.1120  -94.1080 N   0  0  0  0  0  0  0  0  0  0  0  0
    3.5610  -14.3040  -93.1080 C   0  0  0  0  0  0  0  0  0  0  0  0
    2.7670  -14.1240  -91.9860 C   0  0  0  0  0  0  0  0  0  0  0  0
    1.1590  -15.5730  -92.8970 C   0  0  0  0  0  0  0  0  0  0  0  0
    1.5130  -16.6550  -95.1480 C   0  0  0  0  0  0  0  0  0  0  0  0
    0.7700  -14.5960  -90.7790 C   0  0  0  0  0  0  0  0  0  0  0  0
    1.9580  -15.7420  -94.0080 C   0  0  0  0  0  0  0  0  0  0  0  0
    1.5730  -14.7630  -91.8970 C   0  0  0  0  0  0  0  0  0  0  0  0
    4.3800  -13.8690  -93.1730 H   0  0  0  0  0  0  0  0  0  0  0  0
    3.0520  -13.5680  -91.2980 H   0  0  0  0  0  0  0  0  0  0  0  0
    0.3420  -16.0130  -92.8360 H   0  0  0  0  0  0  0  0  0  0  0  0
    3.0365  -16.1816  -96.2901 H   0  0  0  0  0  0  0  0  0  0  0  0
   -0.7054  -15.6412  -91.5335 H   0  0  0  0  0  0  0  0  0  0  0  0
  1  9  1  0  0  0  0
  2  9  2  0  0  0  0
  3 10  1  0  0  0  0
  4 10  2  0  0  0  0
  5  6  1  0  0  0  0
  5 11  2  0  0  0  0
  6  7  2  0  0  0  0
  6 13  1  0  0  0  0
  7 12  1  0  0  0  0
  7 14  1  0  0  0  0
  8 11  1  0  0  0  0
  8 12  2  0  0  0  0
  8 15  1  0  0  0  0
  9 11  1  0  0  0  0
 10 12  1  0  0  0  0
  1 16  1  0  0  0  0
  3 17  1  0  0  0  0
M  END
> <pdb_id>
7YXJ

> <uniprot_id>
Q9VU77

> <usmiles>
O=C(O)c1nccc(c1)C(=O)O

$$$$
PD2_A_802
          07202406313D 1   1.00000     0.00000     0
            
 17 17  0  0  0  0            999 V2000
   55.8130   18.5380   16.2080 O   0  0  0  0  0  0  0  0  0  0  0  0
   56.7910   17.9150   18.0610 O   0  0  0  0  0  0  0  0  0  0  0  0
   59.7530   16.9820   11.6640 O   0  0  0  0  0  0  0  0  0  0  0  0
   58.9150   18.9600   12.0510 O   0  0  0  0  0  0  0  0  0  0  0  0
   59.0060   16.8830   16.6110 N   0  0  0  0  0  0  0  0  0  0  0  0
   60.0850   16.4850   15.8980 C   0  0  0  0  0  0  0  0  0  0  0  0
   60.1790   16.7960   14.5520 C   0  0  0  0  0  0  0  0  0  0  0  0
   58.1100   17.8980   14.6600 C   0  0  0  0  0  0  0  0  0  0  0  0
   56.8030   18.0390   16.8060 C   0  0  0  0  0  0  0  0  0  0  0  0
   59.2890   17.8330   12.4660 C   0  0  0  0  0  0  0  0  0  0  0  0
   58.0200   17.5840   16.0060 C   0  0  0  0  0  0  0  0  0  0  0  0
   59.1880   17.4940   13.9470 C   0  0  0  0  0  0  0  0  0  0  0  0
   55.8266   18.6345   15.2128 H   0  0  0  0  0  0  0  0  0  0  0  0
   60.0487   16.0877   11.9997 H   0  0  0  0  0  0  0  0  0  0  0  0
   60.8147   15.9661   16.3433 H   0  0  0  0  0  0  0  0  0  0  0  0
   60.9785   16.5053   14.0264 H   0  0  0  0  0  0  0  0  0  0  0  0
   57.3820   18.4208   14.2166 H   0  0  0  0  0  0  0  0  0  0  0  0
  1  9  1  0  0  0  0
  2  9  2  0  0  0  0
  3 10  1  0  0  0  0
  4 10  2  0  0  0  0
  5  6  1  0  0  0  0
  5 11  2  0  0  0  0
  6  7  2  0  0  0  0
  7 12  1  0  0  0  0
  8 11  1  0  0  0  0
  8 12  2  0  0  0  0
  9 11  1  0  0  0  0
 10 12  1  0  0  0  0
  1 13  1  0  0  0  0
  3 14  1  0  0  0  0
  6 15  1  0  0  0  0
  7 16  1  0  0  0  0
  8 17  1  0  0  0  0
M  END
> <pdb_id>
5JTC

> <uniprot_id>
Q12797

> <usmiles>
O=C(O)c1nccc(c1)C(=O)O

$$$$
PD2_B_702
          07192423203D 1   1.00000     0.00000     0
            
 17 17  0  0  0  0            999 V2000
  -62.8830  -63.1160  -64.1170 O   0  0  0  0  0  0  0  0  0  0  0  0
  -62.9090  -62.6980  -61.8730 O   0  0  0  0  0  0  0  0  0  0  0  0
  -66.5260  -66.4970  -65.3350 O   0  0  0  0  0  0  0  0  0  0  0  0
  -67.6430  -67.3640  -63.6420 O   0  0  0  0  0  0  0  0  0  0  0  0
  -64.3530  -64.3870  -61.1910 N   0  0  0  0  0  0  0  0  0  0  0  0
  -65.3190  -65.2170  -60.7790 C   0  0  0  0  0  0  0  0  0  0  0  0
  -66.1030  -65.9360  -61.6920 C   0  0  0  0  0  0  0  0  0  0  0  0
  -64.9750  -64.9270  -63.4670 C   0  0  0  0  0  0  0  0  0  0  0  0
  -63.2040  -63.3160  -62.9060 C   0  0  0  0  0  0  0  0  0  0  0  0
  -66.7350  -66.6390  -64.0720 C   0  0  0  0  0  0  0  0  0  0  0  0
  -64.2020  -64.2680  -62.5160 C   0  0  0  0  0  0  0  0  0  0  0  0
  -65.9330  -65.8420  -63.0570 C   0  0  0  0  0  0  0  0  0  0  0  0
  -63.2207  -63.7287  -64.8315 H   0  0  0  0  0  0  0  0  0  0  0  0
  -65.7862  -65.9057  -65.6560 H   0  0  0  0  0  0  0  0  0  0  0  0
  -65.4849  -65.3265  -59.7990 H   0  0  0  0  0  0  0  0  0  0  0  0
  -66.8153  -66.5424  -61.3385 H   0  0  0  0  0  0  0  0  0  0  0  0
  -64.8405  -64.7419  -64.4405 H   0  0  0  0  0  0  0  0  0  0  0  0
  1  9  1  0  0  0  0
  2  9  2  0  0  0  0
  3 10  1  0  0  0  0
  4 10  2  0  0  0  0
  5  6  1  0  0  0  0
  5 11  2  0  0  0  0
  6  7  2  0  0  0  0
  7 12  1  0  0  0  0
  8 11  1  0  0  0  0
  8 12  2  0  0  0  0
  9 11  1  0  0  0  0
 10 12  1  0  0  0  0
  1 13  1  0  0  0  0
  3 14  1  0  0  0  0
  6 15  1  0  0  0  0
  7 16  1  0  0  0  0
  8 17  1  0  0  0  0
M  END
> <pdb_id>
4DIQ

> <uniprot_id>
Q9H6W3

> <usmiles>
O=C(O)c1nccc(c1)C(=O)O

$$$$
PE2_A_1
          07192419053D 1   1.00000     0.00000     0
            
 33 34  0  0  0  0            999 V2000
   15.6568   94.2351   42.6092 O   0  0  0  0  0  0  0  0  0  0  0  0
   16.1037   94.5771   45.7193 O   0  0  0  0  0  0  0  0  0  0  0  0
   25.5515   96.5127   44.6167 O   0  0  0  0  0  0  0  0  0  0  0  0
   23.7234   92.1406   44.3006 N   0  0  0  0  0  0  0  0  0  0  0  0
   22.7798   97.5140   44.1677 N   0  0  0  0  0  0  0  0  0  0  0  0
   24.6418   94.3528   44.4581 N   0  0  0  0  0  0  0  0  0  0  0  0
   22.2629   93.9011   44.1236 N   0  0  0  0  0  0  0  0  0  0  0  0
   21.0559   96.0608   43.9133 N   0  0  0  0  0  0  0  0  0  0  0  0
   16.6794   93.6547   43.4428 C   0  0  0  0  0  0  0  0  0  0  0  0
   16.7182   95.5598   44.7963 C   0  0  0  0  0  0  0  0  0  0  0  0
   21.5291   97.3311   43.9568 C   0  0  0  0  0  0  0  0  0  0  0  0
   19.6415   95.6602   43.6630 C   0  0  0  0  0  0  0  0  0  0  0  0
   18.8272   94.4849   44.2008 C   0  0  0  0  0  0  0  0  0  0  0  0
   23.5371   93.4797   44.2851 C   0  0  0  0  0  0  0  0  0  0  0  0
   24.5788   95.7546   44.4573 C   0  0  0  0  0  0  0  0  0  0  0  0
   22.2024   95.2905   44.1071 C   0  0  0  0  0  0  0  0  0  0  0  0
   23.2444   96.2021   44.2481 C   0  0  0  0  0  0  0  0  0  0  0  0
   17.4642   94.8472   43.7334 C   0  0  0  0  0  0  0  0  0  0  0  0
   15.0190   93.5218   42.3186 H   0  0  0  0  0  0  0  0  0  0  0  0
   15.6010   95.0614   46.4354 H   0  0  0  0  0  0  0  0  0  0  0  0
   22.9442   91.5259   44.1786 H   0  0  0  0  0  0  0  0  0  0  0  0
   24.6405   91.7649   44.4340 H   0  0  0  0  0  0  0  0  0  0  0  0
   25.5402   93.9344   44.5917 H   0  0  0  0  0  0  0  0  0  0  0  0
   17.2144   92.9673   42.9516 H   0  0  0  0  0  0  0  0  0  0  0  0
   16.2972   93.2489   44.2730 H   0  0  0  0  0  0  0  0  0  0  0  0
   17.3463   96.1474   45.3065 H   0  0  0  0  0  0  0  0  0  0  0  0
   16.0011   96.1196   44.3811 H   0  0  0  0  0  0  0  0  0  0  0  0
   20.9145   98.1092   43.8268 H   0  0  0  0  0  0  0  0  0  0  0  0
   19.5947   95.5508   42.6701 H   0  0  0  0  0  0  0  0  0  0  0  0
   19.1123   96.4639   43.9351 H   0  0  0  0  0  0  0  0  0  0  0  0
   18.8717   94.4332   45.1985 H   0  0  0  0  0  0  0  0  0  0  0  0
   19.1315   93.6170   43.8082 H   0  0  0  0  0  0  0  0  0  0  0  0
   17.5257   95.4215   42.9171 H   0  0  0  0  0  0  0  0  0  0  0  0
  1  9  1  0  0  0  0
  2 10  1  0  0  0  0
  3 15  2  0  0  0  0
  4 14  1  0  0  0  0
  5 11  2  0  0  0  0
  5 17  1  0  0  0  0
  6 14  1  0  0  0  0
  6 15  1  0  0  0  0
  7 14  2  0  0  0  0
  7 16  1  0  0  0  0
  8 11  1  0  0  0  0
  8 12  1  0  0  0  0
  8 16  1  0  0  0  0
  9 18  1  0  0  0  0
 10 18  1  0  0  0  0
 12 13  1  0  0  0  0
 13 18  1  0  0  0  0
 15 17  1  0  0  0  0
 16 17  2  0  0  0  0
  1 19  1  0  0  0  0
  2 20  1  0  0  0  0
  4 21  1  0  0  0  0
  4 22  1  0  0  0  0
  6 23  1  0  0  0  0
  9 24  1  0  0  0  0
  9 25  1  0  0  0  0
 10 26  1  0  0  0  0
 10 27  1  0  0  0  0
 11 28  1  0  0  0  0
 12 29  1  0  0  0  0
 12 30  1  0  0  0  0
 13 31  1  0  0  0  0
 13 32  1  0  0  0  0
 18 33  1  0  0  0  0
M  END
> <pdb_id>
1KI3

> <uniprot_id>
P03176

> <usmiles>
O=C1NC(=NC=2N(C=NC12)CCC(CO)CO)N

$$$$
PEP_A_1268
          07202412333D 1   1.00000     0.00000     0
            
 15 14  0  0  0  0            999 V2000
   32.3166   49.5985   19.1949 P   0  0  0  0  0  0  0  0  0  0  0  0
   32.9531   48.3077   19.7173 O   0  0  0  0  0  0  0  0  0  0  0  0
   33.1024   50.3233   18.1152 O   0  0  0  0  0  0  0  0  0  0  0  0
   30.8465   49.4128   18.8021 O   0  0  0  0  0  0  0  0  0  0  0  0
   33.4297   52.2109   23.3868 O   0  0  0  0  0  0  0  0  0  0  0  0
   31.4077   51.7828   22.6911 O   0  0  0  0  0  0  0  0  0  0  0  0
   32.2383   50.6135   20.4395 O   0  0  0  0  0  0  0  0  0  0  0  0
   34.5374   50.8951   21.0666 C   0  0  0  0  0  0  0  0  0  0  0  0
   32.6626   51.7210   22.5148 C   0  0  0  0  0  0  0  0  0  0  0  0
   33.2374   51.0567   21.2932 C   0  0  0  0  0  0  0  0  0  0  0  0
   32.3652   47.9067   20.4199 H   0  0  0  0  0  0  0  0  0  0  0  0
   32.6087   51.1486   17.8409 H   0  0  0  0  0  0  0  0  0  0  0  0
   34.4209   52.1693   23.2609 H   0  0  0  0  0  0  0  0  0  0  0  0
   35.2064   51.2399   21.7251 H   0  0  0  0  0  0  0  0  0  0  0  0
   34.8463   50.4287   20.2377 H   0  0  0  0  0  0  0  0  0  0  0  0
  1  2  1  0  0  0  0
  1  3  1  0  0  0  0
  1  4  2  0  0  0  0
  1  7  1  0  0  0  0
  5  9  1  0  0  0  0
  6  9  2  0  0  0  0
  7 10  1  0  0  0  0
  8 10  2  0  0  0  0
  9 10  1  0  0  0  0
  2 11  1  0  0  0  0
  3 12  1  0  0  0  0
  5 13  1  0  0  0  0
  8 14  1  0  0  0  0
  8 15  1  0  0  0  0
M  END
> <pdb_id>
2A21

> <uniprot_id>
O66496

> <usmiles>
P(=O)(OC(C(=O)O)=C)(O)O

$$$$
PEP_A_3000
          07192419043D 1   1.00000     0.00000     0
            
 15 14  0  0  0  0            999 V2000
   12.8673    4.8874    5.4740 P   0  0  0  0  0  0  0  0  0  0  0  0
   13.6640    4.0898    6.3884 O   0  0  0  0  0  0  0  0  0  0  0  0
   13.3865    4.8656    4.1027 O   0  0  0  0  0  0  0  0  0  0  0  0
   11.3799    4.4456    5.4383 O   0  0  0  0  0  0  0  0  0  0  0  0
   12.4769    9.0414    3.3840 O   0  0  0  0  0  0  0  0  0  0  0  0
   11.1129    7.6055    3.9930 O   0  0  0  0  0  0  0  0  0  0  0  0
   12.8589    6.4786    5.9138 O   0  0  0  0  0  0  0  0  0  0  0  0
   14.5131    8.1803    5.2641 C   0  0  0  0  0  0  0  0  0  0  0  0
   12.1738    8.0702    4.1282 C   0  0  0  0  0  0  0  0  0  0  0  0
   13.2824    7.6025    5.1409 C   0  0  0  0  0  0  0  0  0  0  0  0
   13.2681    4.1390    7.3053 H   0  0  0  0  0  0  0  0  0  0  0  0
   12.8035    5.4282    3.5166 H   0  0  0  0  0  0  0  0  0  0  0  0
   13.3760    9.4715    3.4647 H   0  0  0  0  0  0  0  0  0  0  0  0
   14.7554    8.9666    4.6957 H   0  0  0  0  0  0  0  0  0  0  0  0
   15.1722    7.8174    5.9227 H   0  0  0  0  0  0  0  0  0  0  0  0
  1  2  1  0  0  0  0
  1  3  1  0  0  0  0
  1  4  2  0  0  0  0
  1  7  1  0  0  0  0
  5  9  1  0  0  0  0
  6  9  2  0  0  0  0
  7 10  1  0  0  0  0
  8 10  2  0  0  0  0
  9 10  1  0  0  0  0
  2 11  1  0  0  0  0
  3 12  1  0  0  0  0
  5 13  1  0  0  0  0
  8 14  1  0  0  0  0
  8 15  1  0  0  0  0
M  END
> <pdb_id>
1VBH

> <uniprot_id>
P11155

> <usmiles>
P(=O)(OC(C(=O)O)=C)(O)O

$$$$
PEP_A_705
          07212403223D 1   1.00000     0.00000     0
            
 15 14  0  0  0  0            999 V2000
    2.5441   -3.4497   10.5004 P   0  0  0  0  0  0  0  0  0  0  0  0
    1.1425   -3.8556   10.9726 O   0  0  0  0  0  0  0  0  0  0  0  0
    2.5726   -2.3821    9.4462 O   0  0  0  0  0  0  0  0  0  0  0  0
    3.4935   -3.1807   11.6866 O   0  0  0  0  0  0  0  0  0  0  0  0
    3.4300   -7.6317    7.8939 O   0  0  0  0  0  0  0  0  0  0  0  0
    4.5388   -7.0173    9.6944 O   0  0  0  0  0  0  0  0  0  0  0  0
    3.3206   -4.7157    9.9215 O   0  0  0  0  0  0  0  0  0  0  0  0
    1.8775   -5.2659    8.0797 C   0  0  0  0  0  0  0  0  0  0  0  0
    3.6460   -6.8326    8.8199 C   0  0  0  0  0  0  0  0  0  0  0  0
    2.8730   -5.6032    8.8857 C   0  0  0  0  0  0  0  0  0  0  0  0
    1.2191   -4.5675   11.6707 H   0  0  0  0  0  0  0  0  0  0  0  0
    3.5209   -2.1819    9.2001 H   0  0  0  0  0  0  0  0  0  0  0  0
    2.7109   -7.4403    7.2258 H   0  0  0  0  0  0  0  0  0  0  0  0
    1.5786   -5.8965    7.3634 H   0  0  0  0  0  0  0  0  0  0  0  0
    1.4248   -4.3808    8.1875 H   0  0  0  0  0  0  0  0  0  0  0  0
  1  2  1  0  0  0  0
  1  3  1  0  0  0  0
  1  4  2  0  0  0  0
  1  7  1  0  0  0  0
  5  9  1  0  0  0  0
  6  9  2  0  0  0  0
  7 10  1  0  0  0  0
  8 10  2  0  0  0  0
  9 10  1  0  0  0  0
  2 11  1  0  0  0  0
  3 12  1  0  0  0  0
  5 13  1  0  0  0  0
  8 14  1  0  0  0  0
  8 15  1  0  0  0  0
M  END
> <pdb_id>
4GNL

> <uniprot_id>
P07379

> <usmiles>
P(=O)(OC(C(=O)O)=C)(O)O

$$$$
PEP_B_503
          07192416223D 1   1.00000     0.00000     0
            
 15 14  0  0  0  0            999 V2000
   73.9986  110.6656  -92.7967 P   0  0  0  0  0  0  0  0  0  0  0  0
   73.7944  110.7388  -91.3170 O   0  0  0  0  0  0  0  0  0  0  0  0
   72.8530  110.7352  -93.7762 O   0  0  0  0  0  0  0  0  0  0  0  0
   74.9478  109.5423  -93.1431 O   0  0  0  0  0  0  0  0  0  0  0  0
   77.1511  111.1093  -94.3199 O   0  0  0  0  0  0  0  0  0  0  0  0
   78.3152  112.3312  -92.8486 O   0  0  0  0  0  0  0  0  0  0  0  0
   74.7567  111.9987  -93.2095 O   0  0  0  0  0  0  0  0  0  0  0  0
   75.9845  113.2534  -91.6085 C   0  0  0  0  0  0  0  0  0  0  0  0
   77.2207  111.8953  -93.3189 C   0  0  0  0  0  0  0  0  0  0  0  0
   75.9606  112.3627  -92.6299 C   0  0  0  0  0  0  0  0  0  0  0  0
   74.6788  110.6743  -90.8549 H   0  0  0  0  0  0  0  0  0  0  0  0
   73.2074  110.6683  -94.7089 H   0  0  0  0  0  0  0  0  0  0  0  0
   76.2601  110.7964  -94.6489 H   0  0  0  0  0  0  0  0  0  0  0  0
   76.8558  113.5138  -91.1925 H   0  0  0  0  0  0  0  0  0  0  0  0
   75.1309  113.6501  -91.2710 H   0  0  0  0  0  0  0  0  0  0  0  0
  1  2  1  0  0  0  0
  1  3  1  0  0  0  0
  1  4  2  0  0  0  0
  1  7  1  0  0  0  0
  5  9  1  0  0  0  0
  6  9  2  0  0  0  0
  7 10  1  0  0  0  0
  8 10  2  0  0  0  0
  9 10  1  0  0  0  0
  2 11  1  0  0  0  0
  3 12  1  0  0  0  0
  5 13  1  0  0  0  0
  8 14  1  0  0  0  0
  8 15  1  0  0  0  0
M  END
> <pdb_id>
3UJR

> <uniprot_id>
P09104

> <usmiles>
P(=O)(OC(C(=O)O)=C)(O)O

$$$$
PEP_D_404
          07202409223D 1   1.00000     0.00000     0
            
 15 14  0  0  0  0            999 V2000
   34.0860  -32.9650  -41.1850 P   0  0  0  0  0  0  0  0  0  0  0  0
   34.7600  -33.9370  -42.1790 O   0  0  0  0  0  0  0  0  0  0  0  0
   35.0500  -31.9130  -40.6890 O   0  0  0  0  0  0  0  0  0  0  0  0
   32.7020  -32.4450  -41.5710 O   0  0  0  0  0  0  0  0  0  0  0  0
   31.9760  -35.8110  -39.2130 O   0  0  0  0  0  0  0  0  0  0  0  0
   31.5150  -34.7870  -37.3060 O   0  0  0  0  0  0  0  0  0  0  0  0
   33.7580  -33.9510  -39.9490 O   0  0  0  0  0  0  0  0  0  0  0  0
   32.7860  -32.4720  -38.2840 C   0  0  0  0  0  0  0  0  0  0  0  0
   32.0580  -34.8250  -38.4430 C   0  0  0  0  0  0  0  0  0  0  0  0
   32.8440  -33.6750  -38.8740 C   0  0  0  0  0  0  0  0  0  0  0  0
   34.0932  -34.6168  -42.4845 H   0  0  0  0  0  0  0  0  0  0  0  0
   34.5795  -31.3044  -40.0500 H   0  0  0  0  0  0  0  0  0  0  0  0
   32.4270  -35.7875  -40.1052 H   0  0  0  0  0  0  0  0  0  0  0  0
   32.1391  -32.3114  -37.5385 H   0  0  0  0  0  0  0  0  0  0  0  0
   33.3896  -31.7356  -38.5896 H   0  0  0  0  0  0  0  0  0  0  0  0
  1  2  1  0  0  0  0
  1  3  1  0  0  0  0
  1  4  2  0  0  0  0
  1  7  1  0  0  0  0
  5  9  1  0  0  0  0
  6  9  2  0  0  0  0
  7 10  1  0  0  0  0
  8 10  2  0  0  0  0
  9 10  1  0  0  0  0
  2 11  1  0  0  0  0
  3 12  1  0  0  0  0
  5 13  1  0  0  0  0
  8 14  1  0  0  0  0
  8 15  1  0  0  0  0
M  END
> <pdb_id>
5DCB

> <uniprot_id>
Q9K169

> <usmiles>
P(=O)(OC(C(=O)O)=C)(O)O

$$$$
PEQ_A_301
          07202412503D 1   1.00000     0.00000     0
            
 17 16  0  0  0  0            999 V2000
   -5.3563    6.3244   14.2788 P   0  0  0  0  0  0  0  0  0  0  0  0
   -4.9545    6.7799   15.6608 O   0  0  0  0  0  0  0  0  0  0  0  0
   -4.7731    7.1570   13.1602 O   0  0  0  0  0  0  0  0  0  0  0  0
   -5.2588    4.8358   14.0487 O   0  0  0  0  0  0  0  0  0  0  0  0
   -9.6652    8.5509   13.6908 O   0  0  0  0  0  0  0  0  0  0  0  0
   -9.0092    6.9994   12.2845 O   0  0  0  0  0  0  0  0  0  0  0  0
   -6.9362    6.6225   14.2011 O   0  0  0  0  0  0  0  0  0  0  0  0
   -7.1850    8.9351   14.8089 C   0  0  0  0  0  0  0  0  0  0  0  0
   -8.7777    7.8143   13.2026 C   0  0  0  0  0  0  0  0  0  0  0  0
   -7.3621    7.8925   13.7122 C   0  0  2  0  0  0  0  0  0  0  0  0
   -5.3768    6.1841   16.3440 H   0  0  0  0  0  0  0  0  0  0  0  0
   -5.0823    6.7965   12.2802 H   0  0  0  0  0  0  0  0  0  0  0  0
   -9.4365    9.1898   14.4253 H   0  0  0  0  0  0  0  0  0  0  0  0
   -7.4824    9.8281   14.4711 H   0  0  0  0  0  0  0  0  0  0  0  0
   -7.7351    8.6794   15.6039 H   0  0  0  0  0  0  0  0  0  0  0  0
   -6.2213    8.9821   15.0716 H   0  0  0  0  0  0  0  0  0  0  0  0
   -6.7703    8.1443   12.9464 H   0  0  0  0  0  0  0  0  0  0  0  0
  1  2  1  0  0  0  0
  1  3  1  0  0  0  0
  1  4  2  0  0  0  0
  1  7  1  0  0  0  0
  5  9  1  0  0  0  0
  6  9  2  0  0  0  0
  7 10  1  0  0  0  0
  8 10  1  0  0  0  0
  9 10  1  0  0  0  0
  2 11  1  0  0  0  0
  3 12  1  0  0  0  0
  5 13  1  0  0  0  0
  8 14  1  0  0  0  0
  8 15  1  0  0  0  0
  8 16  1  0  0  0  0
 10 17  1  0  0  0  0
M  END
> <pdb_id>
3FJ7

> <uniprot_id>
Q0PBL7

> <usmiles>
P(=O)(O[C@@H](C(=O)O)C)(O)O

$$$$
PEY_A_701
          07192418593D 1   1.00000     0.00000     0
            
 24 26  0  0  0  0            999 V2000
   13.1390   53.5300   81.8750 C   0  0  0  0  0  0  0  0  0  0  0  0
   14.8550   47.9380   78.3030 C   0  0  0  0  0  0  0  0  0  0  0  0
   13.2870   53.6160   80.5080 C   0  0  0  0  0  0  0  0  0  0  0  0
   14.6620   49.1450   77.6620 C   0  0  0  0  0  0  0  0  0  0  0  0
   13.3330   52.3480   82.5360 C   0  0  0  0  0  0  0  0  0  0  0  0
   14.7360   47.8460   79.6700 C   0  0  0  0  0  0  0  0  0  0  0  0
   13.6300   52.4890   79.7950 C   0  0  0  0  0  0  0  0  0  0  0  0
   14.3110   50.2620   78.3890 C   0  0  0  0  0  0  0  0  0  0  0  0
   13.8760   50.0360   82.4500 C   0  0  0  0  0  0  0  0  0  0  0  0
   14.2170   48.9260   81.7280 C   0  0  0  0  0  0  0  0  0  0  0  0
   13.6760   51.2290   81.8160 C   0  0  0  0  0  0  0  0  0  0  0  0
   14.3960   48.9880   80.3860 C   0  0  0  0  0  0  0  0  0  0  0  0
   13.8320   51.3010   80.4630 C   0  0  0  0  0  0  0  0  0  0  0  0
   14.1720   50.1810   79.7480 C   0  0  0  0  0  0  0  0  0  0  0  0
   12.8851   54.3465   82.3936 H   0  0  0  0  0  0  0  0  0  0  0  0
   15.0832   47.1238   77.7691 H   0  0  0  0  0  0  0  0  0  0  0  0
   13.1468   54.4877   80.0385 H   0  0  0  0  0  0  0  0  0  0  0  0
   14.7768   49.2090   76.6707 H   0  0  0  0  0  0  0  0  0  0  0  0
   13.2267   52.2991   83.5291 H   0  0  0  0  0  0  0  0  0  0  0  0
   14.8907   46.9764   80.1388 H   0  0  0  0  0  0  0  0  0  0  0  0
   13.7316   52.5324   78.8011 H   0  0  0  0  0  0  0  0  0  0  0  0
   14.1576   51.1332   77.9226 H   0  0  0  0  0  0  0  0  0  0  0  0
   13.7730   49.9742   83.4428 H   0  0  0  0  0  0  0  0  0  0  0  0
   14.3366   48.0520   82.1990 H   0  0  0  0  0  0  0  0  0  0  0  0
  1  3  2  0  0  0  0
  1  5  1  0  0  0  0
  2  4  2  0  0  0  0
  2  6  1  0  0  0  0
  3  7  1  0  0  0  0
  4  8  1  0  0  0  0
  5 11  2  0  0  0  0
  6 12  2  0  0  0  0
  7 13  2  0  0  0  0
  8 14  2  0  0  0  0
  9 10  2  0  0  0  0
  9 11  1  0  0  0  0
 10 12  1  0  0  0  0
 11 13  1  0  0  0  0
 12 14  1  0  0  0  0
 13 14  1  0  0  0  0
  1 15  1  0  0  0  0
  2 16  1  0  0  0  0
  3 17  1  0  0  0  0
  4 18  1  0  0  0  0
  5 19  1  0  0  0  0
  6 20  1  0  0  0  0
  7 21  1  0  0  0  0
  8 22  1  0  0  0  0
  9 23  1  0  0  0  0
 10 24  1  0  0  0  0
M  END
> <pdb_id>
2HMK

> <uniprot_id>
P0A111

> <usmiles>
c12c3c(ccc1cccc2)cccc3

$$$$
PF4_A_999
          07192416573D 1   1.00000     0.00000     0
            
 44 47  0  0  0  0            999 V2000
   26.3343   -4.1357   23.3020 S   0  0  0  0  0  0  0  0  0  0  0  0
   16.3775   -6.9888   24.5136 O   0  0  0  0  0  0  0  0  0  0  0  0
   19.7503   -3.0117   17.2176 O   0  0  0  0  0  0  0  0  0  0  0  0
   22.6427   -5.5716   24.0367 N   0  0  0  0  0  0  0  0  0  0  0  0
   23.3750   -4.4813   22.2956 N   0  0  0  0  0  0  0  0  0  0  0  0
   16.0548   -8.0971   25.3461 C   0  0  0  0  0  0  0  0  0  0  0  0
   18.8807   -3.8567   16.4336 C   0  0  0  0  0  0  0  0  0  0  0  0
   27.5305   -4.4922   24.5328 C   0  0  0  0  0  0  0  0  0  0  0  0
   26.9170   -5.2351   25.4545 C   0  0  0  0  0  0  0  0  0  0  0  0
   25.4954   -5.5222   25.2056 C   0  0  0  0  0  0  0  0  0  0  0  0
   17.8724   -5.4352   23.6092 C   0  0  0  0  0  0  0  0  0  0  0  0
   18.7862   -7.5110   24.4814 C   0  0  0  0  0  0  0  0  0  0  0  0
   20.0260   -4.7100   18.9401 C   0  0  0  0  0  0  0  0  0  0  0  0
   21.1336   -2.5515   19.0997 C   0  0  0  0  0  0  0  0  0  0  0  0
   19.1465   -5.0188   23.2520 C   0  0  0  0  0  0  0  0  0  0  0  0
   20.0860   -7.0861   24.1303 C   0  0  0  0  0  0  0  0  0  0  0  0
   20.5983   -5.0870   20.1603 C   0  0  0  0  0  0  0  0  0  0  0  0
   21.7002   -2.9504   20.3137 C   0  0  0  0  0  0  0  0  0  0  0  0
   25.0303   -5.0033   24.0554 C   0  0  0  0  0  0  0  0  0  0  0  0
   23.7013   -5.0442   23.4831 C   0  0  0  0  0  0  0  0  0  0  0  0
   17.6850   -6.6712   24.2163 C   0  0  0  0  0  0  0  0  0  0  0  0
   20.2791   -3.4335   18.4073 C   0  0  0  0  0  0  0  0  0  0  0  0
   21.5786   -5.3696   23.1605 C   0  0  0  0  0  0  0  0  0  0  0  0
   22.0432   -4.6681   22.1024 C   0  0  0  0  0  0  0  0  0  0  0  0
   20.2336   -5.8469   23.5052 C   0  0  0  0  0  0  0  0  0  0  0  0
   21.4132   -4.2042   20.8518 C   0  0  0  0  0  0  0  0  0  0  0  0
   22.6033   -6.0334   24.9228 H   0  0  0  0  0  0  0  0  0  0  0  0
   15.0617   -8.1633   25.4430 H   0  0  0  0  0  0  0  0  0  0  0  0
   16.4062   -8.9375   24.9334 H   0  0  0  0  0  0  0  0  0  0  0  0
   16.4698   -7.9694   26.2470 H   0  0  0  0  0  0  0  0  0  0  0  0
   18.6019   -3.3708   15.6053 H   0  0  0  0  0  0  0  0  0  0  0  0
   19.3673   -4.6932   16.1815 H   0  0  0  0  0  0  0  0  0  0  0  0
   18.0708   -4.0914   16.9711 H   0  0  0  0  0  0  0  0  0  0  0  0
   28.4857   -4.1964   24.5418 H   0  0  0  0  0  0  0  0  0  0  0  0
   27.3935   -5.5761   26.2648 H   0  0  0  0  0  0  0  0  0  0  0  0
   24.9275   -6.0541   25.8338 H   0  0  0  0  0  0  0  0  0  0  0  0
   17.0861   -4.8440   23.4293 H   0  0  0  0  0  0  0  0  0  0  0  0
   18.6474   -8.4013   24.9150 H   0  0  0  0  0  0  0  0  0  0  0  0
   19.4364   -5.3492   18.4464 H   0  0  0  0  0  0  0  0  0  0  0  0
   21.3332   -1.6463   18.7246 H   0  0  0  0  0  0  0  0  0  0  0  0
   19.2818   -4.1293   22.8155 H   0  0  0  0  0  0  0  0  0  0  0  0
   20.8819   -7.6594   24.3249 H   0  0  0  0  0  0  0  0  0  0  0  0
   20.4186   -5.9967   20.5347 H   0  0  0  0  0  0  0  0  0  0  0  0
   22.3166   -2.3313   20.8004 H   0  0  0  0  0  0  0  0  0  0  0  0
  1  8  1  0  0  0  0
  1 19  1  0  0  0  0
  2  6  1  0  0  0  0
  2 21  1  0  0  0  0
  3  7  1  0  0  0  0
  3 22  1  0  0  0  0
  4 20  1  0  0  0  0
  4 23  1  0  0  0  0
  5 20  2  0  0  0  0
  5 24  1  0  0  0  0
  8  9  2  0  0  0  0
  9 10  1  0  0  0  0
 10 19  2  0  0  0  0
 11 15  2  0  0  0  0
 11 21  1  0  0  0  0
 12 16  1  0  0  0  0
 12 21  2  0  0  0  0
 13 17  2  0  0  0  0
 13 22  1  0  0  0  0
 14 18  1  0  0  0  0
 14 22  2  0  0  0  0
 15 25  1  0  0  0  0
 16 25  2  0  0  0  0
 17 26  1  0  0  0  0
 18 26  2  0  0  0  0
 19 20  1  0  0  0  0
 23 24  2  0  0  0  0
 23 25  1  0  0  0  0
 24 26  1  0  0  0  0
  4 27  1  0  0  0  0
  6 28  1  0  0  0  0
  6 29  1  0  0  0  0
  6 30  1  0  0  0  0
  7 31  1  0  0  0  0
  7 32  1  0  0  0  0
  7 33  1  0  0  0  0
  8 34  1  0  0  0  0
  9 35  1  0  0  0  0
 10 36  1  0  0  0  0
 11 37  1  0  0  0  0
 12 38  1  0  0  0  0
 13 39  1  0  0  0  0
 14 40  1  0  0  0  0
 15 41  1  0  0  0  0
 16 42  1  0  0  0  0
 17 43  1  0  0  0  0
 18 44  1  0  0  0  0
M  END
> <pdb_id>
3HQW

> <uniprot_id>
Q9QYJ6

> <usmiles>
S1C(C2=NC(c3ccc(OC)cc3)=C(N2)c4ccc(OC)cc4)=CC=C1

$$$$
PF6_A_999
          07192416573D 1   1.00000     0.00000     0
            
 50 54  0  0  0  0            999 V2000
   20.7866   -4.1716   21.5315 O   0  0  0  0  0  0  0  0  0  0  0  0
   16.7134   -2.0994   15.2618 N   0  0  0  0  0  0  0  0  0  0  0  0
   17.7286   -2.6766   16.0051 N   0  0  0  0  0  0  0  0  0  0  0  0
   15.8801    2.2838   20.4566 N   0  0  0  0  0  0  0  0  0  0  0  0
   23.9901   -4.7752   22.3834 N   0  0  0  0  0  0  0  0  0  0  0  0
   21.8431   -5.1093   21.3190 C   0  0  0  0  0  0  0  0  0  0  0  0
   15.1025    1.3735   21.0224 C   0  0  0  0  0  0  0  0  0  0  0  0
   16.5220    2.0233   19.3155 C   0  0  0  0  0  0  0  0  0  0  0  0
   15.8127   -1.6495   16.0914 C   0  0  0  0  0  0  0  0  0  0  0  0
   27.0796   -4.3779   24.1902 C   0  0  0  0  0  0  0  0  0  0  0  0
   26.6902   -4.8477   25.4415 C   0  0  0  0  0  0  0  0  0  0  0  0
   14.9237    0.1509   20.4153 C   0  0  0  0  0  0  0  0  0  0  0  0
   16.3991    0.7931   18.6592 C   0  0  0  0  0  0  0  0  0  0  0  0
   26.1900   -4.3450   23.1697 C   0  0  0  0  0  0  0  0  0  0  0  0
   19.9927   -4.5803   19.2004 C   0  0  0  0  0  0  0  0  0  0  0  0
   19.1378   -2.8517   20.5881 C   0  0  0  0  0  0  0  0  0  0  0  0
   22.2827   -5.6672   23.7685 C   0  0  0  0  0  0  0  0  0  0  0  0
   25.4245   -5.2991   25.6761 C   0  0  0  0  0  0  0  0  0  0  0  0
   19.1336   -4.1675   18.1775 C   0  0  0  0  0  0  0  0  0  0  0  0
   18.2934   -2.4440   19.5996 C   0  0  0  0  0  0  0  0  0  0  0  0
   23.1394   -5.7131   24.8482 C   0  0  0  0  0  0  0  0  0  0  0  0
   15.3653   -1.5565   18.6332 C   0  0  0  0  0  0  0  0  0  0  0  0
   20.0100   -3.9019   20.4284 C   0  0  0  0  0  0  0  0  0  0  0  0
   22.7503   -5.1770   22.5385 C   0  0  0  0  0  0  0  0  0  0  0  0
   24.8729   -4.7875   23.3801 C   0  0  0  0  0  0  0  0  0  0  0  0
   15.5894   -0.1825   19.2294 C   0  0  0  0  0  0  0  0  0  0  0  0
   17.3852   -2.5999   17.3207 C   0  0  0  0  0  0  0  0  0  0  0  0
   16.1920   -1.9284   17.4032 C   0  0  0  0  0  0  0  0  0  0  0  0
   24.4767   -5.2808   24.6547 C   0  0  0  0  0  0  0  0  0  0  0  0
   18.2664   -3.0944   18.3858 C   0  0  0  0  0  0  0  0  0  0  0  0
   16.6770   -2.0380   14.2643 H   0  0  0  0  0  0  0  0  0  0  0  0
   22.3802   -4.8251   20.5249 H   0  0  0  0  0  0  0  0  0  0  0  0
   21.4511   -6.0136   21.1501 H   0  0  0  0  0  0  0  0  0  0  0  0
   14.6459    1.5738   21.8892 H   0  0  0  0  0  0  0  0  0  0  0  0
   17.1086    2.7285   18.9174 H   0  0  0  0  0  0  0  0  0  0  0  0
   14.9739   -1.1746   15.8253 H   0  0  0  0  0  0  0  0  0  0  0  0
   28.0179   -4.0642   24.0447 H   0  0  0  0  0  0  0  0  0  0  0  0
   27.3558   -4.8545   26.1879 H   0  0  0  0  0  0  0  0  0  0  0  0
   14.3039   -0.5147   20.8311 H   0  0  0  0  0  0  0  0  0  0  0  0
   16.8821    0.6202   17.8008 H   0  0  0  0  0  0  0  0  0  0  0  0
   26.4690   -4.0074   22.2707 H   0  0  0  0  0  0  0  0  0  0  0  0
   20.5980   -5.3631   19.0560 H   0  0  0  0  0  0  0  0  0  0  0  0
   19.1223   -2.3684   21.4634 H   0  0  0  0  0  0  0  0  0  0  0  0
   21.3373   -5.9801   23.8606 H   0  0  0  0  0  0  0  0  0  0  0  0
   25.1766   -5.6434   26.5817 H   0  0  0  0  0  0  0  0  0  0  0  0
   19.1406   -4.6412   17.2968 H   0  0  0  0  0  0  0  0  0  0  0  0
   17.6870   -1.6645   19.7569 H   0  0  0  0  0  0  0  0  0  0  0  0
   22.8277   -6.0409   25.7400 H   0  0  0  0  0  0  0  0  0  0  0  0
   14.4006   -1.6195   18.3773 H   0  0  0  0  0  0  0  0  0  0  0  0
   15.5660   -2.2295   19.3451 H   0  0  0  0  0  0  0  0  0  0  0  0
  1  6  1  0  0  0  0
  1 23  1  0  0  0  0
  2  3  1  0  0  0  0
  2  9  1  0  0  0  0
  3 27  2  0  0  0  0
  4  7  2  0  0  0  0
  4  8  1  0  0  0  0
  5 24  2  0  0  0  0
  5 25  1  0  0  0  0
  6 24  1  0  0  0  0
  7 12  1  0  0  0  0
  8 13  2  0  0  0  0
  9 28  2  0  0  0  0
 10 11  2  0  0  0  0
 10 14  1  0  0  0  0
 11 18  1  0  0  0  0
 12 26  2  0  0  0  0
 13 26  1  0  0  0  0
 14 25  2  0  0  0  0
 15 19  1  0  0  0  0
 15 23  2  0  0  0  0
 16 20  2  0  0  0  0
 16 23  1  0  0  0  0
 17 21  2  0  0  0  0
 17 24  1  0  0  0  0
 18 29  2  0  0  0  0
 19 30  2  0  0  0  0
 20 30  1  0  0  0  0
 21 29  1  0  0  0  0
 22 26  1  0  0  0  0
 22 28  1  0  0  0  0
 25 29  1  0  0  0  0
 27 28  1  0  0  0  0
 27 30  1  0  0  0  0
  2 31  1  0  0  0  0
  6 32  1  0  0  0  0
  6 33  1  0  0  0  0
  7 34  1  0  0  0  0
  8 35  1  0  0  0  0
  9 36  1  0  0  0  0
 10 37  1  0  0  0  0
 11 38  1  0  0  0  0
 12 39  1  0  0  0  0
 13 40  1  0  0  0  0
 14 41  1  0  0  0  0
 15 42  1  0  0  0  0
 16 43  1  0  0  0  0
 17 44  1  0  0  0  0
 18 45  1  0  0  0  0
 19 46  1  0  0  0  0
 20 47  1  0  0  0  0
 21 48  1  0  0  0  0
 22 49  1  0  0  0  0
 22 50  1  0  0  0  0
M  END
> <pdb_id>
3HQY

> <uniprot_id>
Q9QYJ6

> <usmiles>
O(c1ccc(cc1)C2=NNC=C2Cc3ccncc3)Cc4nc5c(cc4)cccc5

$$$$
PF8_A_999
          07192416573D 1   1.00000     0.00000     0
            
 47 51  0  0  0  0            999 V2000
   21.5605   -4.1789   21.8275 O   0  0  0  0  0  0  0  0  0  0  0  0
   15.0630   -0.9444   19.1344 N   0  0  0  0  0  0  0  0  0  0  0  0
   16.0356   -1.4644   19.9979 N   0  0  0  0  0  0  0  0  0  0  0  0
   19.2673   -2.4489   14.5657 N   0  0  0  0  0  0  0  0  0  0  0  0
   23.8652   -4.7473   23.0637 N   0  0  0  0  0  0  0  0  0  0  0  0
   21.4399   -5.1830   22.8533 C   0  0  0  0  0  0  0  0  0  0  0  0
   19.2836   -3.2849   15.6169 C   0  0  0  0  0  0  0  0  0  0  0  0
   18.4892   -1.3419   14.5268 C   0  0  0  0  0  0  0  0  0  0  0  0
   15.5147   -1.0258   17.8534 C   0  0  0  0  0  0  0  0  0  0  0  0
   27.4160   -4.2616   23.7817 C   0  0  0  0  0  0  0  0  0  0  0  0
   27.5006   -4.8069   25.0601 C   0  0  0  0  0  0  0  0  0  0  0  0
   18.4680   -3.0308   16.7157 C   0  0  0  0  0  0  0  0  0  0  0  0
   17.6579   -1.0411   15.6107 C   0  0  0  0  0  0  0  0  0  0  0  0
   20.6722   -2.6707   20.1747 C   0  0  0  0  0  0  0  0  0  0  0  0
   19.1646   -3.9667   21.5545 C   0  0  0  0  0  0  0  0  0  0  0  0
   26.1969   -4.2253   23.1131 C   0  0  0  0  0  0  0  0  0  0  0  0
   22.7746   -5.8100   24.9098 C   0  0  0  0  0  0  0  0  0  0  0  0
   26.3645   -5.3519   25.6703 C   0  0  0  0  0  0  0  0  0  0  0  0
   19.5518   -2.0969   19.5448 C   0  0  0  0  0  0  0  0  0  0  0  0
   18.0544   -3.4000   20.9149 C   0  0  0  0  0  0  0  0  0  0  0  0
   23.9849   -5.8517   25.6098 C   0  0  0  0  0  0  0  0  0  0  0  0
   20.4748   -3.6085   21.1951 C   0  0  0  0  0  0  0  0  0  0  0  0
   22.7401   -5.2505   23.6311 C   0  0  0  0  0  0  0  0  0  0  0  0
   25.0593   -4.7675   23.7234 C   0  0  0  0  0  0  0  0  0  0  0  0
   17.0547   -1.8517   19.2196 C   0  0  0  0  0  0  0  0  0  0  0  0
   25.1396   -5.3263   25.0077 C   0  0  0  0  0  0  0  0  0  0  0  0
   18.2411   -2.4558   19.9087 C   0  0  0  0  0  0  0  0  0  0  0  0
   17.6489   -1.8972   16.7108 C   0  0  0  0  0  0  0  0  0  0  0  0
   16.7726   -1.6024   17.8826 C   0  0  0  0  0  0  0  0  0  0  0  0
   14.1780   -0.5727   19.4147 H   0  0  0  0  0  0  0  0  0  0  0  0
   21.2538   -6.0712   22.4332 H   0  0  0  0  0  0  0  0  0  0  0  0
   20.6913   -4.9431   23.4713 H   0  0  0  0  0  0  0  0  0  0  0  0
   19.8799   -4.0876   15.6100 H   0  0  0  0  0  0  0  0  0  0  0  0
   18.5086   -0.7419   13.7270 H   0  0  0  0  0  0  0  0  0  0  0  0
   15.0247   -0.7228   17.0361 H   0  0  0  0  0  0  0  0  0  0  0  0
   28.2357   -3.8943   23.3421 H   0  0  0  0  0  0  0  0  0  0  0  0
   28.3758   -4.8093   25.5440 H   0  0  0  0  0  0  0  0  0  0  0  0
   18.4678   -3.6515   17.4997 H   0  0  0  0  0  0  0  0  0  0  0  0
   17.0795   -0.2255   15.5967 H   0  0  0  0  0  0  0  0  0  0  0  0
   21.5973   -2.4117   19.8969 H   0  0  0  0  0  0  0  0  0  0  0  0
   19.0218   -4.6391   22.2808 H   0  0  0  0  0  0  0  0  0  0  0  0
   26.1333   -3.8150   22.2034 H   0  0  0  0  0  0  0  0  0  0  0  0
   21.9410   -6.1778   25.3218 H   0  0  0  0  0  0  0  0  0  0  0  0
   26.4323   -5.7593   26.5811 H   0  0  0  0  0  0  0  0  0  0  0  0
   19.6906   -1.4192   18.8226 H   0  0  0  0  0  0  0  0  0  0  0  0
   17.1298   -3.6730   21.1804 H   0  0  0  0  0  0  0  0  0  0  0  0
   24.0273   -6.2500   26.5261 H   0  0  0  0  0  0  0  0  0  0  0  0
  1  6  1  0  0  0  0
  1 22  1  0  0  0  0
  2  3  1  0  0  0  0
  2  9  1  0  0  0  0
  3 25  2  0  0  0  0
  4  7  2  0  0  0  0
  4  8  1  0  0  0  0
  5 23  2  0  0  0  0
  5 24  1  0  0  0  0
  6 23  1  0  0  0  0
  7 12  1  0  0  0  0
  8 13  2  0  0  0  0
  9 29  2  0  0  0  0
 10 11  2  0  0  0  0
 10 16  1  0  0  0  0
 11 18  1  0  0  0  0
 12 28  2  0  0  0  0
 13 28  1  0  0  0  0
 14 19  2  0  0  0  0
 14 22  1  0  0  0  0
 15 20  1  0  0  0  0
 15 22  2  0  0  0  0
 16 24  2  0  0  0  0
 17 21  2  0  0  0  0
 17 23  1  0  0  0  0
 18 26  2  0  0  0  0
 19 27  1  0  0  0  0
 20 27  2  0  0  0  0
 21 26  1  0  0  0  0
 24 26  1  0  0  0  0
 25 27  1  0  0  0  0
 25 29  1  0  0  0  0
 28 29  1  0  0  0  0
  2 30  1  0  0  0  0
  6 31  1  0  0  0  0
  6 32  1  0  0  0  0
  7 33  1  0  0  0  0
  8 34  1  0  0  0  0
  9 35  1  0  0  0  0
 10 36  1  0  0  0  0
 11 37  1  0  0  0  0
 12 38  1  0  0  0  0
 13 39  1  0  0  0  0
 14 40  1  0  0  0  0
 15 41  1  0  0  0  0
 16 42  1  0  0  0  0
 17 43  1  0  0  0  0
 18 44  1  0  0  0  0
 19 45  1  0  0  0  0
 20 46  1  0  0  0  0
 21 47  1  0  0  0  0
M  END
> <pdb_id>
3HQZ

> <uniprot_id>
Q9QYJ6

> <usmiles>
O(c1ccc(cc1)C2=NNC=C2c3ccncc3)Cc4nc5c(cc4)cccc5

$$$$
PFF_A_601
          07202412453D 1   1.00000     0.00000     0
            
 23 23  0  0  0  0            999 V2000
  -28.5789    0.4685  -23.1349 F   0  0  0  0  0  0  0  0  0  0  0  0
  -27.4609   -5.7763  -18.0308 O   0  0  0  0  0  0  0  0  0  0  0  0
  -25.3028   -5.3663  -17.8563 O   0  0  0  0  0  0  0  0  0  0  0  0
  -25.3577   -3.0844  -19.1746 N   0  0  0  0  0  0  0  0  0  0  0  0
  -28.5412   -0.8524  -21.1910 C   0  0  0  0  0  0  0  0  0  0  0  0
  -27.4813   -1.6281  -23.2243 C   0  0  0  0  0  0  0  0  0  0  0  0
  -28.1601   -2.0163  -20.5460 C   0  0  0  0  0  0  0  0  0  0  0  0
  -27.1004   -2.8005  -22.5717 C   0  0  0  0  0  0  0  0  0  0  0  0
  -27.0379   -4.2379  -20.4982 C   0  0  0  0  0  0  0  0  0  0  0  0
  -28.1984   -0.6628  -22.5263 C   0  0  0  0  0  0  0  0  0  0  0  0
  -26.4421   -5.0760  -18.2667 C   0  0  0  0  0  0  0  0  0  0  0  0
  -27.4445   -2.9869  -21.2326 C   0  0  0  0  0  0  0  0  0  0  0  0
  -26.6012   -3.8317  -19.0943 C   0  0  1  0  0  0  0  0  0  0  0  0
  -28.3531   -5.4963  -18.3852 H   0  0  0  0  0  0  0  0  0  0  0  0
  -25.0695   -2.8170  -18.2552 H   0  0  0  0  0  0  0  0  0  0  0  0
  -24.6516   -3.6562  -19.5922 H   0  0  0  0  0  0  0  0  0  0  0  0
  -29.0598   -0.1521  -20.7004 H   0  0  0  0  0  0  0  0  0  0  0  0
  -27.2410   -1.4833  -24.1841 H   0  0  0  0  0  0  0  0  0  0  0  0
  -28.4003   -2.1576  -19.5856 H   0  0  0  0  0  0  0  0  0  0  0  0
  -26.5838   -3.5032  -23.0608 H   0  0  0  0  0  0  0  0  0  0  0  0
  -26.2795   -4.6817  -20.9756 H   0  0  0  0  0  0  0  0  0  0  0  0
  -27.8125   -4.8682  -20.4447 H   0  0  0  0  0  0  0  0  0  0  0  0
  -27.3066   -3.2529  -18.6852 H   0  0  0  0  0  0  0  0  0  0  0  0
  1 10  1  0  0  0  0
  2 11  1  0  0  0  0
  3 11  2  0  0  0  0
  4 13  1  0  0  0  0
  5  7  2  0  0  0  0
  5 10  1  0  0  0  0
  6  8  1  0  0  0  0
  6 10  2  0  0  0  0
  7 12  1  0  0  0  0
  8 12  2  0  0  0  0
  9 12  1  0  0  0  0
  9 13  1  0  0  0  0
 11 13  1  0  0  0  0
  2 14  1  0  0  0  0
  4 15  1  0  0  0  0
  4 16  1  0  0  0  0
  5 17  1  0  0  0  0
  6 18  1  0  0  0  0
  7 19  1  0  0  0  0
  8 20  1  0  0  0  0
  9 21  1  0  0  0  0
  9 22  1  0  0  0  0
 13 23  1  0  0  0  0
M  END
> <pdb_id>
3F3C

> <uniprot_id>
O67854

> <usmiles>
Fc1ccc(cc1)C[C@H](N)C(=O)O

$$$$
PFK_A_999
          07192416573D 1   1.00000     0.00000     0
            
 42 45  0  0  0  0            999 V2000
   19.4285   -3.8646   17.5585 O   0  0  0  0  0  0  0  0  0  0  0  0
   20.1823   -4.0403   20.1980 O   0  0  0  0  0  0  0  0  0  0  0  0
   14.8136   -0.7939   19.9093 N   0  0  0  0  0  0  0  0  0  0  0  0
   16.3418   -1.5310   21.4975 N   0  0  0  0  0  0  0  0  0  0  0  0
   23.7899   -4.7638   22.6120 N   0  0  0  0  0  0  0  0  0  0  0  0
   18.9733   -4.0412   16.2152 C   0  0  0  0  0  0  0  0  0  0  0  0
   15.2046   -0.8923   21.1950 C   0  0  0  0  0  0  0  0  0  0  0  0
   20.9096   -3.8192   21.3953 C   0  0  0  0  0  0  0  0  0  0  0  0
   15.5153   -1.3333   18.8961 C   0  0  0  0  0  0  0  0  0  0  0  0
   27.0570   -4.3001   24.1917 C   0  0  0  0  0  0  0  0  0  0  0  0
   26.7770   -4.7108   25.4956 C   0  0  0  0  0  0  0  0  0  0  0  0
   21.4617   -5.1845   21.7983 C   0  0  0  0  0  0  0  0  0  0  0  0
   22.1901   -5.6027   24.2054 C   0  0  0  0  0  0  0  0  0  0  0  0
   26.0570   -4.3035   23.2227 C   0  0  0  0  0  0  0  0  0  0  0  0
   25.4935   -5.1594   25.8274 C   0  0  0  0  0  0  0  0  0  0  0  0
   23.1660   -5.5943   25.2145 C   0  0  0  0  0  0  0  0  0  0  0  0
   18.2611   -2.7796   20.8423 C   0  0  0  0  0  0  0  0  0  0  0  0
   17.4697   -2.6045   18.1799 C   0  0  0  0  0  0  0  0  0  0  0  0
   22.5119   -5.1618   22.9069 C   0  0  0  0  0  0  0  0  0  0  0  0
   18.6422   -3.2839   18.5250 C   0  0  0  0  0  0  0  0  0  0  0  0
   19.0411   -3.3553   19.8591 C   0  0  0  0  0  0  0  0  0  0  0  0
   17.0920   -2.1003   20.5111 C   0  0  0  0  0  0  0  0  0  0  0  0
   24.7607   -4.7421   23.5583 C   0  0  0  0  0  0  0  0  0  0  0  0
   16.7081   -2.0092   19.1889 C   0  0  0  0  0  0  0  0  0  0  0  0
   24.4669   -5.1550   24.8760 C   0  0  0  0  0  0  0  0  0  0  0  0
   19.6916   -4.4794   15.6747 H   0  0  0  0  0  0  0  0  0  0  0  0
   18.1561   -4.6177   16.2132 H   0  0  0  0  0  0  0  0  0  0  0  0
   18.7537   -3.1503   15.8178 H   0  0  0  0  0  0  0  0  0  0  0  0
   14.6471   -0.4896   21.9210 H   0  0  0  0  0  0  0  0  0  0  0  0
   20.3070   -3.4619   22.1089 H   0  0  0  0  0  0  0  0  0  0  0  0
   21.6566   -3.1738   21.2359 H   0  0  0  0  0  0  0  0  0  0  0  0
   15.1924   -1.2537   17.9530 H   0  0  0  0  0  0  0  0  0  0  0  0
   27.9808   -4.0017   23.9519 H   0  0  0  0  0  0  0  0  0  0  0  0
   27.4934   -4.6846   26.1928 H   0  0  0  0  0  0  0  0  0  0  0  0
   21.8756   -5.6016   20.9891 H   0  0  0  0  0  0  0  0  0  0  0  0
   20.6963   -5.7479   22.1092 H   0  0  0  0  0  0  0  0  0  0  0  0
   21.2647   -5.9223   24.4088 H   0  0  0  0  0  0  0  0  0  0  0  0
   26.2579   -3.9960   22.2926 H   0  0  0  0  0  0  0  0  0  0  0  0
   25.3080   -5.4866   26.7540 H   0  0  0  0  0  0  0  0  0  0  0  0
   22.9479   -5.8901   26.1446 H   0  0  0  0  0  0  0  0  0  0  0  0
   18.5383   -2.8514   21.8005 H   0  0  0  0  0  0  0  0  0  0  0  0
   17.1804   -2.5454   17.2245 H   0  0  0  0  0  0  0  0  0  0  0  0
  1  6  1  0  0  0  0
  1 20  1  0  0  0  0
  2  8  1  0  0  0  0
  2 21  1  0  0  0  0
  3  7  2  0  0  0  0
  3  9  1  0  0  0  0
  4  7  1  0  0  0  0
  4 22  2  0  0  0  0
  5 19  2  0  0  0  0
  5 23  1  0  0  0  0
  8 12  1  0  0  0  0
  9 24  2  0  0  0  0
 10 11  2  0  0  0  0
 10 14  1  0  0  0  0
 11 15  1  0  0  0  0
 12 19  1  0  0  0  0
 13 16  2  0  0  0  0
 13 19  1  0  0  0  0
 14 23  2  0  0  0  0
 15 25  2  0  0  0  0
 16 25  1  0  0  0  0
 17 21  2  0  0  0  0
 17 22  1  0  0  0  0
 18 20  2  0  0  0  0
 18 24  1  0  0  0  0
 20 21  1  0  0  0  0
 22 24  1  0  0  0  0
 23 25  1  0  0  0  0
  6 26  1  0  0  0  0
  6 27  1  0  0  0  0
  6 28  1  0  0  0  0
  7 29  1  0  0  0  0
  8 30  1  0  0  0  0
  8 31  1  0  0  0  0
  9 32  1  0  0  0  0
 10 33  1  0  0  0  0
 11 34  1  0  0  0  0
 12 35  1  0  0  0  0
 12 36  1  0  0  0  0
 13 37  1  0  0  0  0
 14 38  1  0  0  0  0
 15 39  1  0  0  0  0
 16 40  1  0  0  0  0
 17 41  1  0  0  0  0
 18 42  1  0  0  0  0
M  END
> <pdb_id>
3QPN

> <uniprot_id>
Q9QYJ6

> <usmiles>
O(c1c(OC)cc2c(ncnc2)c1)CCc3nc4c(cc3)cccc4

$$$$
PFO_A_401
          07202405003D 1   1.00000     0.00000     0
            
 53 57  0  0  0  0            999 V2000
  -19.5510    3.8430   42.8150 F   0  0  0  0  0  0  0  0  0  0  0  0
  -22.1120   -8.6290   33.6960 O   0  0  0  0  0  0  0  0  0  0  0  0
  -26.0080   -2.7170   40.8240 N   0  0  0  0  0  0  0  0  0  0  0  0
  -23.0430   -8.0240   34.5700 N   0  0  0  0  0  0  0  0  0  0  0  0
  -25.6100   -0.4570   40.8690 N   0  0  0  0  0  0  0  0  0  0  0  0
  -19.5270   -1.2560   38.9540 N   0  0  0  0  0  0  0  0  0  0  0  0
  -23.8690   -2.0490   40.3670 N   0  0  0  0  0  0  0  0  0  0  0  0
  -22.4760   -6.3810   37.4090 N   0  0  0  0  0  0  0  0  0  0  0  0
  -21.3830   -2.4760   38.7370 N   0  0  0  0  0  0  0  0  0  0  0  0
  -21.1360   -9.1810   34.4330 C   0  0  0  0  0  0  0  0  0  0  0  0
  -20.0630   -2.3150   38.4130 C   0  0  0  0  0  0  0  0  0  0  0  0
  -24.7570    0.5280   40.5430 C   0  0  0  0  0  0  0  0  0  0  0  0
  -22.8310   -6.0200   38.7910 C   0  0  0  0  0  0  0  0  0  0  0  0
  -22.8040   -5.2560   36.5120 C   0  0  0  0  0  0  0  0  0  0  0  0
  -23.1700   -7.6020   37.0000 C   0  0  0  0  0  0  0  0  0  0  0  0
  -21.3520   -8.9690   35.7320 C   0  0  0  0  0  0  0  0  0  0  0  0
  -23.4670    0.2980   40.1080 C   0  0  0  0  0  0  0  0  0  0  0  0
  -19.2040    2.6590   40.8220 C   0  0  0  0  0  0  0  0  0  0  0  0
  -20.4590    1.6880   42.6400 C   0  0  0  0  0  0  0  0  0  0  0  0
  -22.0200   -4.8170   39.2740 C   0  0  0  0  0  0  0  0  0  0  0  0
  -21.9980   -4.0060   36.8750 C   0  0  0  0  0  0  0  0  0  0  0  0
  -19.4840    1.5480   40.0420 C   0  0  0  0  0  0  0  0  0  0  0  0
  -20.7180    0.5730   41.8610 C   0  0  0  0  0  0  0  0  0  0  0  0
  -25.1300   -1.7220   40.7350 C   0  0  0  0  0  0  0  0  0  0  0  0
  -19.7200    2.7080   42.0920 C   0  0  0  0  0  0  0  0  0  0  0  0
  -22.5710   -8.2100   35.7640 C   0  0  0  0  0  0  0  0  0  0  0  0
  -23.0590   -1.0300   40.0410 C   0  0  0  0  0  0  0  0  0  0  0  0
  -22.2300   -3.6250   38.3370 C   0  0  0  0  0  0  0  0  0  0  0  0
  -20.5450   -0.6800   39.7000 C   0  0  0  0  0  0  0  0  0  0  0  0
  -20.2480    0.4950   40.5460 C   0  0  0  0  0  0  0  0  0  0  0  0
  -21.7150   -1.4070   39.5500 C   0  0  0  0  0  0  0  0  0  0  0  0
  -25.7012   -3.6643   40.7318 H   0  0  0  0  0  0  0  0  0  0  0  0
  -26.9750   -2.5178   40.9831 H   0  0  0  0  0  0  0  0  0  0  0  0
  -20.3550   -9.6819   34.0600 H   0  0  0  0  0  0  0  0  0  0  0  0
  -19.5604   -2.9454   37.8214 H   0  0  0  0  0  0  0  0  0  0  0  0
  -25.0716    1.4742   40.6191 H   0  0  0  0  0  0  0  0  0  0  0  0
  -22.6462   -6.7995   39.3895 H   0  0  0  0  0  0  0  0  0  0  0  0
  -23.8043   -5.7938   38.8293 H   0  0  0  0  0  0  0  0  0  0  0  0
  -23.7793   -5.0496   36.5907 H   0  0  0  0  0  0  0  0  0  0  0  0
  -22.5936   -5.5177   35.5701 H   0  0  0  0  0  0  0  0  0  0  0  0
  -24.1284   -7.3819   36.8183 H   0  0  0  0  0  0  0  0  0  0  0  0
  -23.1162   -8.2675   37.7445 H   0  0  0  0  0  0  0  0  0  0  0  0
  -20.7938   -9.2693   36.5055 H   0  0  0  0  0  0  0  0  0  0  0  0
  -22.8568    1.0484   39.8539 H   0  0  0  0  0  0  0  0  0  0  0  0
  -18.6405    3.4054   40.4681 H   0  0  0  0  0  0  0  0  0  0  0  0
  -20.8012    1.7492   43.5776 H   0  0  0  0  0  0  0  0  0  0  0  0
  -21.0496   -5.0579   39.2892 H   0  0  0  0  0  0  0  0  0  0  0  0
  -22.3162   -4.5681   40.1961 H   0  0  0  0  0  0  0  0  0  0  0  0
  -22.2837   -3.2484   36.2882 H   0  0  0  0  0  0  0  0  0  0  0  0
  -21.0252   -4.1890   36.7331 H   0  0  0  0  0  0  0  0  0  0  0  0
  -19.1341    1.5006   39.1064 H   0  0  0  0  0  0  0  0  0  0  0  0
  -21.2470   -0.1849   42.2428 H   0  0  0  0  0  0  0  0  0  0  0  0
  -23.1842   -3.3391   38.4246 H   0  0  0  0  0  0  0  0  0  0  0  0
  1 25  1  0  0  0  0
  2  4  1  0  0  0  0
  2 10  1  0  0  0  0
  3 24  1  0  0  0  0
  4 26  2  0  0  0  0
  5 12  1  0  0  0  0
  5 24  2  0  0  0  0
  6 11  2  0  0  0  0
  6 29  1  0  0  0  0
  7 24  1  0  0  0  0
  7 27  2  0  0  0  0
  8 13  1  0  0  0  0
  8 14  1  0  0  0  0
  8 15  1  0  0  0  0
  9 11  1  0  0  0  0
  9 28  1  0  0  0  0
  9 31  1  0  0  0  0
 10 16  2  0  0  0  0
 12 17  2  0  0  0  0
 13 20  1  0  0  0  0
 14 21  1  0  0  0  0
 15 26  1  0  0  0  0
 16 26  1  0  0  0  0
 17 27  1  0  0  0  0
 18 22  2  0  0  0  0
 18 25  1  0  0  0  0
 19 23  1  0  0  0  0
 19 25  2  0  0  0  0
 20 28  1  0  0  0  0
 21 28  1  0  0  0  0
 22 30  1  0  0  0  0
 23 30  2  0  0  0  0
 27 31  1  0  0  0  0
 29 30  1  0  0  0  0
 29 31  2  0  0  0  0
  3 32  1  0  0  0  0
  3 33  1  0  0  0  0
 10 34  1  0  0  0  0
 11 35  1  0  0  0  0
 12 36  1  0  0  0  0
 13 37  1  0  0  0  0
 13 38  1  0  0  0  0
 14 39  1  0  0  0  0
 14 40  1  0  0  0  0
 15 41  1  0  0  0  0
 15 42  1  0  0  0  0
 16 43  1  0  0  0  0
 17 44  1  0  0  0  0
 18 45  1  0  0  0  0
 19 46  1  0  0  0  0
 20 47  1  0  0  0  0
 20 48  1  0  0  0  0
 21 49  1  0  0  0  0
 21 50  1  0  0  0  0
 22 51  1  0  0  0  0
 23 52  1  0  0  0  0
 28 53  1  0  0  0  0
M  END
> <pdb_id>
4TN6

> <uniprot_id>
P48730

> <usmiles>
Fc1ccc(cc1)C=2N=CN(C2c3nc(ncc3)N)C4CCN(CC5=NOC=C5)CC4

$$$$
PFT_A_501
          07202406103D 1   1.00000     0.00000     0
            
 32 34  0  0  0  0            999 V2000
  -63.1346    8.9528   10.4541 O   0  0  0  0  0  0  0  0  0  0  0  0
  -57.4552   11.4149    8.9543 O   0  0  0  0  0  0  0  0  0  0  0  0
  -60.9721   10.2613   12.0323 O   0  0  0  0  0  0  0  0  0  0  0  0
  -63.8298   11.0972   10.1205 N   0  0  0  0  0  0  0  0  0  0  0  0
  -63.6114   12.4626    9.7716 C   0  0  0  0  0  0  0  0  0  0  0  0
  -65.1994   10.8745   10.4686 C   0  0  0  0  0  0  0  0  0  0  0  0
  -66.2593   14.9547   10.9665 C   0  0  0  0  0  0  0  0  0  0  0  0
  -67.2354   13.9984   11.3990 C   0  0  0  0  0  0  0  0  0  0  0  0
  -65.0947   14.5822   10.4408 C   0  0  0  0  0  0  0  0  0  0  0  0
  -66.9773   12.6534   11.2741 C   0  0  0  0  0  0  0  0  0  0  0  0
  -59.6807   11.0370    8.1638 C   0  0  0  0  0  0  0  0  0  0  0  0
  -60.9722   10.7312    8.4068 C   0  0  0  0  0  0  0  0  0  0  0  0
  -59.1800   10.8298   10.5210 C   0  0  0  0  0  0  0  0  0  0  0  0
  -62.8300   10.0859   10.1238 C   0  0  0  0  0  0  0  0  0  0  0  0
  -58.7735   11.0877    9.2045 C   0  0  0  0  0  0  0  0  0  0  0  0
  -60.5131   10.5104   10.7662 C   0  0  0  0  0  0  0  0  0  0  0  0
  -64.8258   13.1587   10.3112 C   0  0  0  0  0  0  0  0  0  0  0  0
  -65.7452   12.2498   10.7173 C   0  0  0  0  0  0  0  0  0  0  0  0
  -61.3832   10.4597    9.7559 C   0  0  0  0  0  0  0  0  0  0  0  0
  -56.7977   11.4519    9.7069 H   0  0  0  0  0  0  0  0  0  0  0  0
  -61.9348   10.0343   12.1795 H   0  0  0  0  0  0  0  0  0  0  0  0
  -63.5472   12.5725    8.7797 H   0  0  0  0  0  0  0  0  0  0  0  0
  -62.7785   12.8125   10.2003 H   0  0  0  0  0  0  0  0  0  0  0  0
  -65.2688   10.3113   11.2920 H   0  0  0  0  0  0  0  0  0  0  0  0
  -65.6881   10.4296    9.7182 H   0  0  0  0  0  0  0  0  0  0  0  0
  -66.4590   15.9299   11.0625 H   0  0  0  0  0  0  0  0  0  0  0  0
  -68.1018   14.3084   11.7906 H   0  0  0  0  0  0  0  0  0  0  0  0
  -64.4238   15.2615   10.1434 H   0  0  0  0  0  0  0  0  0  0  0  0
  -67.6492   11.9752   11.5718 H   0  0  0  0  0  0  0  0  0  0  0  0
  -59.3799   11.2271    7.2293 H   0  0  0  0  0  0  0  0  0  0  0  0
  -61.6339   10.6940    7.6580 H   0  0  0  0  0  0  0  0  0  0  0  0
  -58.5223   10.8744   11.2730 H   0  0  0  0  0  0  0  0  0  0  0  0
  1 14  2  0  0  0  0
  2 15  1  0  0  0  0
  3 16  1  0  0  0  0
  4  5  1  0  0  0  0
  4  6  1  0  0  0  0
  4 14  1  0  0  0  0
  5 17  1  0  0  0  0
  6 18  1  0  0  0  0
  7  8  2  0  0  0  0
  7  9  1  0  0  0  0
  8 10  1  0  0  0  0
  9 17  2  0  0  0  0
 10 18  2  0  0  0  0
 11 12  1  0  0  0  0
 11 15  2  0  0  0  0
 12 19  2  0  0  0  0
 13 15  1  0  0  0  0
 13 16  2  0  0  0  0
 14 19  1  0  0  0  0
 16 19  1  0  0  0  0
 17 18  1  0  0  0  0
  2 20  1  0  0  0  0
  3 21  1  0  0  0  0
  5 22  1  0  0  0  0
  5 23  1  0  0  0  0
  6 24  1  0  0  0  0
  6 25  1  0  0  0  0
  7 26  1  0  0  0  0
  8 27  1  0  0  0  0
  9 28  1  0  0  0  0
 10 29  1  0  0  0  0
 11 30  1  0  0  0  0
 12 31  1  0  0  0  0
 13 32  1  0  0  0  0
M  END
> <pdb_id>
4MP7

> <uniprot_id>
Q15119

> <usmiles>
O=C(N1Cc2c(cccc2)C1)c3c(O)cc(O)cc3

$$$$
PFT_C_901
          07192420423D 1   1.00000     0.00000     0
            
 32 34  0  0  0  0            999 V2000
   66.2737   34.0255   21.6861 O   0  0  0  0  0  0  0  0  0  0  0  0
   66.8721   32.1683   27.7892 O   0  0  0  0  0  0  0  0  0  0  0  0
   64.3875   33.9780   24.3043 O   0  0  0  0  0  0  0  0  0  0  0  0
   66.8703   35.9251   22.6762 N   0  0  0  0  0  0  0  0  0  0  0  0
   66.6800   36.6892   21.3733 C   0  0  0  0  0  0  0  0  0  0  0  0
   67.3129   36.9073   23.8020 C   0  0  0  0  0  0  0  0  0  0  0  0
   67.4157   40.6658   21.7366 C   0  0  0  0  0  0  0  0  0  0  0  0
   67.7663   40.6462   23.1639 C   0  0  0  0  0  0  0  0  0  0  0  0
   67.0413   39.4148   21.0366 C   0  0  0  0  0  0  0  0  0  0  0  0
   67.7500   39.4401   23.8880 C   0  0  0  0  0  0  0  0  0  0  0  0
   68.1178   32.9286   25.9279 C   0  0  0  0  0  0  0  0  0  0  0  0
   68.1555   33.5109   24.6522 C   0  0  0  0  0  0  0  0  0  0  0  0
   65.4837   33.0555   26.1131 C   0  0  0  0  0  0  0  0  0  0  0  0
   66.6348   34.5035   22.7439 C   0  0  0  0  0  0  0  0  0  0  0  0
   66.8221   32.7264   26.5917 C   0  0  0  0  0  0  0  0  0  0  0  0
   65.6201   33.6400   24.8218 C   0  0  0  0  0  0  0  0  0  0  0  0
   67.0197   38.1683   21.7629 C   0  0  0  0  0  0  0  0  0  0  0  0
   67.3803   38.2448   23.1731 C   0  0  0  0  0  0  0  0  0  0  0  0
   66.8677   33.8610   24.1203 C   0  0  0  0  0  0  0  0  0  0  0  0
   66.0279   32.0010   28.2985 H   0  0  0  0  0  0  0  0  0  0  0  0
   64.3237   34.4002   23.4000 H   0  0  0  0  0  0  0  0  0  0  0  0
   65.7373   36.6127   21.0487 H   0  0  0  0  0  0  0  0  0  0  0  0
   67.3038   36.3533   20.6677 H   0  0  0  0  0  0  0  0  0  0  0  0
   68.2097   36.6456   24.1588 H   0  0  0  0  0  0  0  0  0  0  0  0
   66.6449   36.9066   24.5462 H   0  0  0  0  0  0  0  0  0  0  0  0
   67.4300   41.5302   21.2341 H   0  0  0  0  0  0  0  0  0  0  0  0
   68.0186   41.4974   23.6241 H   0  0  0  0  0  0  0  0  0  0  0  0
   66.8045   39.4343   20.0652 H   0  0  0  0  0  0  0  0  0  0  0  0
   67.9854   39.4134   24.8595 H   0  0  0  0  0  0  0  0  0  0  0  0
   68.9653   32.6533   26.3818 H   0  0  0  0  0  0  0  0  0  0  0  0
   69.0082   33.6692   24.1543 H   0  0  0  0  0  0  0  0  0  0  0  0
   64.6261   32.8990   26.6030 H   0  0  0  0  0  0  0  0  0  0  0  0
  1 14  2  0  0  0  0
  2 15  1  0  0  0  0
  3 16  1  0  0  0  0
  4  5  1  0  0  0  0
  4  6  1  0  0  0  0
  4 14  1  0  0  0  0
  5 17  1  0  0  0  0
  6 18  1  0  0  0  0
  7  8  2  0  0  0  0
  7  9  1  0  0  0  0
  8 10  1  0  0  0  0
  9 17  2  0  0  0  0
 10 18  2  0  0  0  0
 11 12  1  0  0  0  0
 11 15  2  0  0  0  0
 12 19  2  0  0  0  0
 13 15  1  0  0  0  0
 13 16  2  0  0  0  0
 14 19  1  0  0  0  0
 16 19  1  0  0  0  0
 17 18  1  0  0  0  0
  2 20  1  0  0  0  0
  3 21  1  0  0  0  0
  5 22  1  0  0  0  0
  5 23  1  0  0  0  0
  6 24  1  0  0  0  0
  6 25  1  0  0  0  0
  7 26  1  0  0  0  0
  8 27  1  0  0  0  0
  9 28  1  0  0  0  0
 10 29  1  0  0  0  0
 11 30  1  0  0  0  0
 12 31  1  0  0  0  0
 13 32  1  0  0  0  0
M  END
> <pdb_id>
3K99

> <uniprot_id>
P07900

> <usmiles>
O=C(N1Cc2c(cccc2)C1)c3c(O)cc(O)cc3

$$$$
PFU_A_1
          07202408053D 1   1.00000     0.00000     0
            
 36 37  0  0  0  0            999 V2000
   12.2122   13.3789   42.0885 P   0  0  0  0  0  0  0  0  0  0  0  0
   12.5107   14.7945   41.7161 O   0  0  0  0  0  0  0  0  0  0  0  0
   13.3899   12.6504   42.6713 O   0  0  0  0  0  0  0  0  0  0  0  0
   10.9427   13.2687   42.8352 O   0  0  0  0  0  0  0  0  0  0  0  0
   17.7413    9.2611   34.4795 O   0  0  0  0  0  0  0  0  0  0  0  0
   10.0396   10.4559   37.9340 O   0  0  0  0  0  0  0  0  0  0  0  0
   11.7087    8.4131   37.7124 O   0  0  0  0  0  0  0  0  0  0  0  0
   14.9644    9.6222   34.7189 O   0  0  0  0  0  0  0  0  0  0  0  0
   11.8321   12.6089   40.7221 O   0  0  0  0  0  0  0  0  0  0  0  0
   12.6778   11.7940   37.3146 O   0  0  0  0  0  0  0  0  0  0  0  0
   19.0072   10.0095   36.1866 N   0  0  0  0  0  0  0  0  0  0  0  0
   16.6276   10.2830   37.8015 N   0  0  0  0  0  0  0  0  0  0  0  0
   15.2881   10.4868   38.1751 N   0  0  0  0  0  0  0  0  0  0  0  0
   12.7188   12.3920   39.6386 C   0  0  0  0  0  0  0  0  0  0  0  0
   17.8758    9.6781   35.6529 C   0  0  0  0  0  0  0  0  0  0  0  0
   11.2324   10.5729   38.7219 C   0  0  1  0  0  0  0  0  0  0  0  0
   12.3018    9.6258   38.2177 C   0  0  2  0  0  0  0  0  0  0  0  0
   15.3360    9.9145   36.0677 C   0  0  0  0  0  0  0  0  0  0  0  0
   11.8478   11.9371   38.4694 C   0  0  2  0  0  0  0  0  0  0  0  0
   12.9851   10.4005   37.0950 C   0  0  2  0  0  0  0  0  0  0  0  0
   16.7114    9.9122   36.4956 C   0  0  0  0  0  0  0  0  0  0  0  0
   14.4417   10.2743   37.1403 C   0  0  0  0  0  0  0  0  0  0  0  0
   11.6890   15.2197   41.3365 H   0  0  0  0  0  0  0  0  0  0  0  0
   13.1236   11.7134   42.8976 H   0  0  0  0  0  0  0  0  0  0  0  0
    9.3470   11.0879   38.2818 H   0  0  0  0  0  0  0  0  0  0  0  0
   12.4286    7.8014   37.3847 H   0  0  0  0  0  0  0  0  0  0  0  0
   14.0005    9.6318   34.4526 H   0  0  0  0  0  0  0  0  0  0  0  0
   19.0379   10.3350   37.1316 H   0  0  0  0  0  0  0  0  0  0  0  0
   19.8507    9.9401   35.6540 H   0  0  0  0  0  0  0  0  0  0  0  0
   17.4115   10.3953   38.4121 H   0  0  0  0  0  0  0  0  0  0  0  0
   13.3859   11.6843   39.8713 H   0  0  0  0  0  0  0  0  0  0  0  0
   13.1980   13.2385   39.4066 H   0  0  0  0  0  0  0  0  0  0  0  0
   11.0450   10.4298   39.6936 H   0  0  0  0  0  0  0  0  0  0  0  0
   12.9550    9.4177   38.9457 H   0  0  0  0  0  0  0  0  0  0  0  0
   11.1295   12.6105   38.2943 H   0  0  0  0  0  0  0  0  0  0  0  0
   12.6375   10.1034   36.2056 H   0  0  0  0  0  0  0  0  0  0  0  0
  1  2  1  0  0  0  0
  1  3  1  0  0  0  0
  1  4  2  0  0  0  0
  1  9  1  0  0  0  0
  5 15  2  0  0  0  0
  6 16  1  0  0  0  0
  7 17  1  0  0  0  0
  8 18  1  0  0  0  0
  9 14  1  0  0  0  0
 10 19  1  0  0  0  0
 10 20  1  0  0  0  0
 11 15  1  0  0  0  0
 12 13  1  0  0  0  0
 12 21  1  0  0  0  0
 13 22  2  0  0  0  0
 14 19  1  0  0  0  0
 15 21  1  0  0  0  0
 16 17  1  0  0  0  0
 16 19  1  0  0  0  0
 17 20  1  0  0  0  0
 18 21  2  0  0  0  0
 18 22  1  0  0  0  0
 20 22  1  0  0  0  0
  2 23  1  0  0  0  0
  3 24  1  0  0  0  0
  6 25  1  0  0  0  0
  7 26  1  0  0  0  0
  8 27  1  0  0  0  0
 11 28  1  0  0  0  0
 11 29  1  0  0  0  0
 12 30  1  0  0  0  0
 14 31  1  0  0  0  0
 14 32  1  0  0  0  0
 16 33  1  0  0  0  0
 17 34  1  0  0  0  0
 19 35  1  0  0  0  0
 20 36  1  0  0  0  0
M  END
> <pdb_id>
3MI2

> <uniprot_id>
P11172

> <usmiles>
P(=O)(OC[C@H]1O[C@@H](C2=NNC(C(=O)N)=C2O)[C@H](O)[C@@H]1O)(O)O

$$$$
PFU_A_2000
          07202402263D 1   1.00000     0.00000     0
            
 36 37  0  0  0  0            999 V2000
   39.0500   34.6320   35.2520 P   0  0  0  0  0  0  0  0  0  0  0  0
   37.8840   34.5440   34.3100 O   0  0  0  0  0  0  0  0  0  0  0  0
   39.0970   33.5560   36.3060 O   0  0  0  0  0  0  0  0  0  0  0  0
   40.3410   34.8560   34.5120 O   0  0  0  0  0  0  0  0  0  0  0  0
   46.1090   40.1520   38.5060 O   0  0  0  0  0  0  0  0  0  0  0  0
   37.3470   39.7460   36.9190 O   0  0  0  0  0  0  0  0  0  0  0  0
   39.2880   41.0660   35.5940 O   0  0  0  0  0  0  0  0  0  0  0  0
   42.1070   41.6610   39.2000 O   0  0  0  0  0  0  0  0  0  0  0  0
   38.6450   36.0020   36.0300 O   0  0  0  0  0  0  0  0  0  0  0  0
   39.8120   38.7080   38.1750 O   0  0  0  0  0  0  0  0  0  0  0  0
   44.9570   41.8220   39.5490 N   0  0  0  0  0  0  0  0  0  0  0  0
   43.7990   39.2750   37.0690 N   0  0  0  0  0  0  0  0  0  0  0  0
   42.4600   39.0270   36.7540 N   0  0  0  0  0  0  0  0  0  0  0  0
   39.6150   36.7450   36.7620 C   0  0  0  0  0  0  0  0  0  0  0  0
   45.0970   40.8010   38.6830 C   0  0  0  0  0  0  0  0  0  0  0  0
   38.3890   38.9350   36.3300 C   0  0  1  0  0  0  0  0  0  0  0  0
   39.6310   39.7660   36.0670 C   0  0  2  0  0  0  0  0  0  0  0  0
   42.5420   40.6440   38.2600 C   0  0  0  0  0  0  0  0  0  0  0  0
   38.8950   37.9510   37.3790 C   0  0  2  0  0  0  0  0  0  0  0  0
   40.1810   39.9060   37.4690 C   0  0  2  0  0  0  0  0  0  0  0  0
   43.9170   40.2680   37.9720 C   0  0  0  0  0  0  0  0  0  0  0  0
   41.6410   39.8370   37.4520 C   0  0  0  0  0  0  0  0  0  0  0  0
   37.9327   35.2923   33.6485 H   0  0  0  0  0  0  0  0  0  0  0  0
   39.9009   33.6915   36.8851 H   0  0  0  0  0  0  0  0  0  0  0  0
   36.5385   39.1813   37.0844 H   0  0  0  0  0  0  0  0  0  0  0  0
   40.1226   41.5916   35.4290 H   0  0  0  0  0  0  0  0  0  0  0  0
   41.1315   41.8428   39.3240 H   0  0  0  0  0  0  0  0  0  0  0  0
   44.0804   42.2974   39.6240 H   0  0  0  0  0  0  0  0  0  0  0  0
   45.7295   42.1050   40.1174 H   0  0  0  0  0  0  0  0  0  0  0  0
   44.5718   38.7782   36.6741 H   0  0  0  0  0  0  0  0  0  0  0  0
   40.3412   37.0567   36.1493 H   0  0  0  0  0  0  0  0  0  0  0  0
   40.0091   36.1757   37.4836 H   0  0  0  0  0  0  0  0  0  0  0  0
   38.0734   38.4675   35.5042 H   0  0  0  0  0  0  0  0  0  0  0  0
   40.2721   39.3009   35.4565 H   0  0  0  0  0  0  0  0  0  0  0  0
   38.1329   37.6375   37.9455 H   0  0  0  0  0  0  0  0  0  0  0  0
   39.8472   40.7310   37.9250 H   0  0  0  0  0  0  0  0  0  0  0  0
  1  2  1  0  0  0  0
  1  3  1  0  0  0  0
  1  4  2  0  0  0  0
  1  9  1  0  0  0  0
  5 15  2  0  0  0  0
  6 16  1  0  0  0  0
  7 17  1  0  0  0  0
  8 18  1  0  0  0  0
  9 14  1  0  0  0  0
 10 19  1  0  0  0  0
 10 20  1  0  0  0  0
 11 15  1  0  0  0  0
 12 13  1  0  0  0  0
 12 21  1  0  0  0  0
 13 22  2  0  0  0  0
 14 19  1  0  0  0  0
 15 21  1  0  0  0  0
 16 17  1  0  0  0  0
 16 19  1  0  0  0  0
 17 20  1  0  0  0  0
 18 21  2  0  0  0  0
 18 22  1  0  0  0  0
 20 22  1  0  0  0  0
  2 23  1  0  0  0  0
  3 24  1  0  0  0  0
  6 25  1  0  0  0  0
  7 26  1  0  0  0  0
  8 27  1  0  0  0  0
 11 28  1  0  0  0  0
 11 29  1  0  0  0  0
 12 30  1  0  0  0  0
 14 31  1  0  0  0  0
 14 32  1  0  0  0  0
 16 33  1  0  0  0  0
 17 34  1  0  0  0  0
 19 35  1  0  0  0  0
 20 36  1  0  0  0  0
M  END
> <pdb_id>
3SEC

> <uniprot_id>
O26232

> <usmiles>
P(=O)(OC[C@H]1O[C@@H](C2=NNC(C(=O)N)=C2O)[C@H](O)[C@@H]1O)(O)O

$$$$
PGI_A_1447
          07192418433D 1   1.00000     0.00000     0
            
 42 44  0  0  0  0            999 V2000
   -2.7750    8.0450    8.4800 O   0  0  0  0  0  0  0  0  0  0  0  0
    0.7430   12.7850   10.1550 O   0  0  0  0  0  0  0  0  0  0  0  0
    0.8140   12.2110    7.3370 O   0  0  0  0  0  0  0  0  0  0  0  0
   -1.5160   10.8410    6.3370 O   0  0  0  0  0  0  0  0  0  0  0  0
   -0.2800   10.2540   11.5880 N   0  0  0  0  0  0  0  0  0  0  0  0
   -1.7290   10.2150    9.9710 N   0  0  0  0  0  0  0  0  0  0  0  0
   -3.2670    9.3630    8.2000 C   0  0  0  0  0  0  0  0  0  0  0  0
    0.8590    4.7600   10.7710 C   0  0  0  0  0  0  0  0  0  0  0  0
    1.5000    6.0000   10.6790 C   0  0  0  0  0  0  0  0  0  0  0  0
   -0.1050    4.5860   11.7730 C   0  0  0  0  0  0  0  0  0  0  0  0
   -2.2130    9.4230   10.9420 C   0  0  0  0  0  0  0  0  0  0  0  0
   -1.3760    8.7660   13.3130 C   0  0  0  0  0  0  0  0  0  0  0  0
    1.1890    7.0310   11.5850 C   0  0  0  0  0  0  0  0  0  0  0  0
   -0.4210    5.6130   12.6800 C   0  0  0  0  0  0  0  0  0  0  0  0
   -0.0900    7.9790   13.5770 C   0  0  0  0  0  0  0  0  0  0  0  0
   -1.2870    9.4600   11.9730 C   0  0  0  0  0  0  0  0  0  0  0  0
   -0.5520   10.7170   10.3680 C   0  0  0  0  0  0  0  0  0  0  0  0
    0.3640   11.5580    9.5490 C   0  0  1  0  0  0  0  0  0  0  0  0
   -0.2660   11.8380    8.1920 C   0  0  2  0  0  0  0  0  0  0  0  0
   -1.1030   10.6420    7.6940 C   0  0  1  0  0  0  0  0  0  0  0  0
    0.2210    6.8550   12.5880 C   0  0  0  0  0  0  0  0  0  0  0  0
   -2.3130   10.4730    8.6290 C   0  0  2  0  0  0  0  0  0  0  0  0
   -3.4447    7.3676    8.1757 H   0  0  0  0  0  0  0  0  0  0  0  0
    1.3546   13.2847    9.5417 H   0  0  0  0  0  0  0  0  0  0  0  0
    0.4618   12.4094    6.4223 H   0  0  0  0  0  0  0  0  0  0  0  0
   -2.0562   10.0557    6.0344 H   0  0  0  0  0  0  0  0  0  0  0  0
   -4.1338    9.4865    8.6832 H   0  0  0  0  0  0  0  0  0  0  0  0
   -3.4204    9.4408    7.2149 H   0  0  0  0  0  0  0  0  0  0  0  0
    1.0826    4.0180   10.1390 H   0  0  0  0  0  0  0  0  0  0  0  0
    2.1832    6.1547    9.9653 H   0  0  0  0  0  0  0  0  0  0  0  0
   -0.5803    3.7091   11.8449 H   0  0  0  0  0  0  0  0  0  0  0  0
   -3.0706    8.9090   10.9246 H   0  0  0  0  0  0  0  0  0  0  0  0
   -1.5007    9.4490   14.0327 H   0  0  0  0  0  0  0  0  0  0  0  0
   -2.1545    8.1384   13.3105 H   0  0  0  0  0  0  0  0  0  0  0  0
    1.6667    7.9066   11.5134 H   0  0  0  0  0  0  0  0  0  0  0  0
   -1.1054    5.4566   13.3922 H   0  0  0  0  0  0  0  0  0  0  0  0
   -0.1605    7.5740   14.4886 H   0  0  0  0  0  0  0  0  0  0  0  0
    0.6736    8.6244   13.5571 H   0  0  0  0  0  0  0  0  0  0  0  0
    1.1981   11.0295    9.3909 H   0  0  0  0  0  0  0  0  0  0  0  0
   -0.8744   12.6259    8.2875 H   0  0  0  0  0  0  0  0  0  0  0  0
   -0.5423    9.8154    7.7414 H   0  0  0  0  0  0  0  0  0  0  0  0
   -2.8178   11.3357    8.6594 H   0  0  0  0  0  0  0  0  0  0  0  0
  1  7  1  0  0  0  0
  2 18  1  0  0  0  0
  3 19  1  0  0  0  0
  4 20  1  0  0  0  0
  5 16  1  0  0  0  0
  5 17  2  0  0  0  0
  6 11  1  0  0  0  0
  6 17  1  0  0  0  0
  6 22  1  0  0  0  0
  7 22  1  0  0  0  0
  8  9  2  0  0  0  0
  8 10  1  0  0  0  0
  9 13  1  0  0  0  0
 10 14  2  0  0  0  0
 11 16  2  0  0  0  0
 12 15  1  0  0  0  0
 12 16  1  0  0  0  0
 13 21  2  0  0  0  0
 14 21  1  0  0  0  0
 15 21  1  0  0  0  0
 17 18  1  0  0  0  0
 18 19  1  0  0  0  0
 19 20  1  0  0  0  0
 20 22  1  0  0  0  0
  1 23  1  0  0  0  0
  2 24  1  0  0  0  0
  3 25  1  0  0  0  0
  4 26  1  0  0  0  0
  7 27  1  0  0  0  0
  7 28  1  0  0  0  0
  8 29  1  0  0  0  0
  9 30  1  0  0  0  0
 10 31  1  0  0  0  0
 11 32  1  0  0  0  0
 12 33  1  0  0  0  0
 12 34  1  0  0  0  0
 13 35  1  0  0  0  0
 14 36  1  0  0  0  0
 15 37  1  0  0  0  0
 15 38  1  0  0  0  0
 18 39  1  0  0  0  0
 19 40  1  0  0  0  0
 20 41  1  0  0  0  0
 22 42  1  0  0  0  0
M  END
> <pdb_id>
2CET

> <uniprot_id>
Q08638

> <usmiles>
O[C@@H]1[C@H](N2C(=NC(=C2)CCc3ccccc3)[C@H](O)[C@H]1O)CO

$$$$
PHB_A_303
          07192416293D 1   1.00000     0.00000     0
            
 16 16  0  0  0  0            999 V2000
   -3.5425    7.3193   13.2315 O   0  0  0  0  0  0  0  0  0  0  0  0
   -5.8164    1.9332   15.6664 O   0  0  0  0  0  0  0  0  0  0  0  0
   -3.7269    1.4964   15.7516 O   0  0  0  0  0  0  0  0  0  0  0  0
   -2.6392    5.3122   14.3297 C   0  0  0  0  0  0  0  0  0  0  0  0
   -5.0675    5.5929   13.7991 C   0  0  0  0  0  0  0  0  0  0  0  0
   -3.0287    4.0199   14.7923 C   0  0  0  0  0  0  0  0  0  0  0  0
   -5.3972    4.3713   14.3649 C   0  0  0  0  0  0  0  0  0  0  0  0
   -3.7400    6.0512   13.7950 C   0  0  0  0  0  0  0  0  0  0  0  0
   -4.6307    2.2783   15.3609 C   0  0  0  0  0  0  0  0  0  0  0  0
   -4.3692    3.5566   14.8074 C   0  0  0  0  0  0  0  0  0  0  0  0
   -4.3193    7.8280   12.8602 H   0  0  0  0  0  0  0  0  0  0  0  0
   -6.5899    2.5038   15.3908 H   0  0  0  0  0  0  0  0  0  0  0  0
   -1.7031    5.6612   14.3745 H   0  0  0  0  0  0  0  0  0  0  0  0
   -5.7848    6.1557   13.3882 H   0  0  0  0  0  0  0  0  0  0  0  0
   -2.3144    3.4045   15.1255 H   0  0  0  0  0  0  0  0  0  0  0  0
   -6.3518    4.0863   14.4512 H   0  0  0  0  0  0  0  0  0  0  0  0
  1  8  1  0  0  0  0
  2  9  1  0  0  0  0
  3  9  2  0  0  0  0
  4  6  1  0  0  0  0
  4  8  2  0  0  0  0
  5  7  2  0  0  0  0
  5  8  1  0  0  0  0
  6 10  2  0  0  0  0
  7 10  1  0  0  0  0
  9 10  1  0  0  0  0
  1 11  1  0  0  0  0
  2 12  1  0  0  0  0
  4 13  1  0  0  0  0
  5 14  1  0  0  0  0
  6 15  1  0  0  0  0
  7 16  1  0  0  0  0
M  END
> <pdb_id>
4E3G

> <uniprot_id>
P00918

> <usmiles>
O=C(O)c1ccc(O)cc1

$$$$
PHB_A_396
          07202403093D 1   1.00000     0.00000     0
            
 16 16  0  0  0  0            999 V2000
   17.6770   91.2769   46.1005 O   0  0  0  0  0  0  0  0  0  0  0  0
   18.4169   97.3807   46.9212 O   0  0  0  0  0  0  0  0  0  0  0  0
   16.5954   97.4108   45.7704 O   0  0  0  0  0  0  0  0  0  0  0  0
   18.7832   93.2678   46.5601 C   0  0  0  0  0  0  0  0  0  0  0  0
   16.4949   93.2526   45.6976 C   0  0  0  0  0  0  0  0  0  0  0  0
   18.7562   94.6588   46.5635 C   0  0  0  0  0  0  0  0  0  0  0  0
   16.4870   94.6466   45.7098 C   0  0  0  0  0  0  0  0  0  0  0  0
   17.6465   92.5778   46.1187 C   0  0  0  0  0  0  0  0  0  0  0  0
   17.5581   96.7902   46.2390 C   0  0  0  0  0  0  0  0  0  0  0  0
   17.6195   95.3886   46.1464 C   0  0  0  0  0  0  0  0  0  0  0  0
   16.8780   90.7623   45.7896 H   0  0  0  0  0  0  0  0  0  0  0  0
   19.1923   96.8734   47.2971 H   0  0  0  0  0  0  0  0  0  0  0  0
   19.5957   92.7716   46.8659 H   0  0  0  0  0  0  0  0  0  0  0  0
   15.6905   92.7428   45.3926 H   0  0  0  0  0  0  0  0  0  0  0  0
   19.5663   95.1581   46.8707 H   0  0  0  0  0  0  0  0  0  0  0  0
   15.6689   95.1346   45.4057 H   0  0  0  0  0  0  0  0  0  0  0  0
  1  8  1  0  0  0  0
  2  9  1  0  0  0  0
  3  9  2  0  0  0  0
  4  6  1  0  0  0  0
  4  8  2  0  0  0  0
  5  7  2  0  0  0  0
  5  8  1  0  0  0  0
  6 10  2  0  0  0  0
  7 10  1  0  0  0  0
  9 10  1  0  0  0  0
  1 11  1  0  0  0  0
  2 12  1  0  0  0  0
  4 13  1  0  0  0  0
  5 14  1  0  0  0  0
  6 15  1  0  0  0  0
  7 16  1  0  0  0  0
M  END
> <pdb_id>
1PDH

> <uniprot_id>
P00438

> <usmiles>
O=C(O)c1ccc(O)cc1

$$$$
PHB_B_402
          07192419503D 1   1.00000     0.00000     0
            
 16 16  0  0  0  0            999 V2000
  -19.8170    2.5270   38.0740 O   0  0  0  0  0  0  0  0  0  0  0  0
  -20.2560    0.0330   43.8060 O   0  0  0  0  0  0  0  0  0  0  0  0
  -19.4540    1.9830   44.3400 O   0  0  0  0  0  0  0  0  0  0  0  0
  -19.9110    0.8340   39.7390 C   0  0  0  0  0  0  0  0  0  0  0  0
  -19.4930    3.1240   40.3310 C   0  0  0  0  0  0  0  0  0  0  0  0
  -19.8700    0.4850   41.0780 C   0  0  0  0  0  0  0  0  0  0  0  0
  -19.4370    2.7670   41.6660 C   0  0  0  0  0  0  0  0  0  0  0  0
  -19.7360    2.1600   39.3660 C   0  0  0  0  0  0  0  0  0  0  0  0
  -19.7560    1.1060   43.5120 C   0  0  0  0  0  0  0  0  0  0  0  0
  -19.6420    1.4480   42.0550 C   0  0  0  0  0  0  0  0  0  0  0  0
  -19.6892    3.4850   37.8174 H   0  0  0  0  0  0  0  0  0  0  0  0
  -20.4751   -0.6295   43.0897 H   0  0  0  0  0  0  0  0  0  0  0  0
  -20.0662    0.1333   39.0426 H   0  0  0  0  0  0  0  0  0  0  0  0
  -19.3581    4.0777   40.0623 H   0  0  0  0  0  0  0  0  0  0  0  0
  -20.0057   -0.4690   41.3453 H   0  0  0  0  0  0  0  0  0  0  0  0
  -19.2474    3.4638   42.3577 H   0  0  0  0  0  0  0  0  0  0  0  0
  1  8  1  0  0  0  0
  2  9  1  0  0  0  0
  3  9  2  0  0  0  0
  4  6  1  0  0  0  0
  4  8  2  0  0  0  0
  5  7  2  0  0  0  0
  5  8  1  0  0  0  0
  6 10  2  0  0  0  0
  7 10  1  0  0  0  0
  9 10  1  0  0  0  0
  1 11  1  0  0  0  0
  2 12  1  0  0  0  0
  4 13  1  0  0  0  0
  5 14  1  0  0  0  0
  6 15  1  0  0  0  0
  7 16  1  0  0  0  0
M  END
> <pdb_id>
5M21

> <uniprot_id>
F8TW83

> <usmiles>
O=C(O)c1ccc(O)cc1

$$$$
PHB_B_999
          07192417113D 1   1.00000     0.00000     0
            
 16 16  0  0  0  0            999 V2000
    8.7019  -13.4145   40.5811 O   0  0  0  0  0  0  0  0  0  0  0  0
   14.3412  -16.2969   39.6934 O   0  0  0  0  0  0  0  0  0  0  0  0
   14.8986  -14.8358   41.2011 O   0  0  0  0  0  0  0  0  0  0  0  0
   10.3321  -14.9273   39.7033 C   0  0  0  0  0  0  0  0  0  0  0  0
   10.9549  -13.3182   41.3653 C   0  0  0  0  0  0  0  0  0  0  0  0
   11.6265  -15.3978   39.6747 C   0  0  0  0  0  0  0  0  0  0  0  0
   12.2503  -13.7867   41.3387 C   0  0  0  0  0  0  0  0  0  0  0  0
    9.9973  -13.8860   40.5496 C   0  0  0  0  0  0  0  0  0  0  0  0
   14.0318  -15.3528   40.4591 C   0  0  0  0  0  0  0  0  0  0  0  0
   12.5871  -14.8270   40.4924 C   0  0  0  0  0  0  0  0  0  0  0  0
    8.4586  -12.6616   41.1926 H   0  0  0  0  0  0  0  0  0  0  0  0
   13.6479  -16.7084   39.1017 H   0  0  0  0  0  0  0  0  0  0  0  0
    9.6364  -15.3377   39.1137 H   0  0  0  0  0  0  0  0  0  0  0  0
   10.7083  -12.5659   41.9762 H   0  0  0  0  0  0  0  0  0  0  0  0
   11.8721  -16.1508   39.0642 H   0  0  0  0  0  0  0  0  0  0  0  0
   12.9446  -13.3757   41.9295 H   0  0  0  0  0  0  0  0  0  0  0  0
  1  8  1  0  0  0  0
  2  9  1  0  0  0  0
  3  9  2  0  0  0  0
  4  6  1  0  0  0  0
  4  8  2  0  0  0  0
  5  7  2  0  0  0  0
  5  8  1  0  0  0  0
  6 10  2  0  0  0  0
  7 10  1  0  0  0  0
  9 10  1  0  0  0  0
  1 11  1  0  0  0  0
  2 12  1  0  0  0  0
  4 13  1  0  0  0  0
  5 14  1  0  0  0  0
  6 15  1  0  0  0  0
  7 16  1  0  0  0  0
M  END
> <pdb_id>
2BUR

> <uniprot_id>
P20371

> <usmiles>
O=C(O)c1ccc(O)cc1

$$$$
PHB_B_999
          07192418323D 1   1.00000     0.00000     0
            
 16 16  0  0  0  0            999 V2000
    8.2650  -14.4152   41.2622 O   0  0  0  0  0  0  0  0  0  0  0  0
   14.2934  -15.9646   39.8791 O   0  0  0  0  0  0  0  0  0  0  0  0
   14.6361  -14.5684   41.5028 O   0  0  0  0  0  0  0  0  0  0  0  0
   10.1301  -15.4640   40.1773 C   0  0  0  0  0  0  0  0  0  0  0  0
   10.5077  -13.9228   41.9663 C   0  0  0  0  0  0  0  0  0  0  0  0
   11.4904  -15.6514   40.0507 C   0  0  0  0  0  0  0  0  0  0  0  0
   11.8699  -14.1034   41.8477 C   0  0  0  0  0  0  0  0  0  0  0  0
    9.6383  -14.6016   41.1336 C   0  0  0  0  0  0  0  0  0  0  0  0
   13.8502  -15.1774   40.7499 C   0  0  0  0  0  0  0  0  0  0  0  0
   12.3538  -14.9707   40.8853 C   0  0  0  0  0  0  0  0  0  0  0  0
    7.9081  -13.7896   41.9559 H   0  0  0  0  0  0  0  0  0  0  0  0
   13.6608  -16.4516   39.2768 H   0  0  0  0  0  0  0  0  0  0  0  0
    9.5000  -15.9540   39.5749 H   0  0  0  0  0  0  0  0  0  0  0  0
   10.1472  -13.2975   42.6584 H   0  0  0  0  0  0  0  0  0  0  0  0
   11.8494  -16.2771   39.3580 H   0  0  0  0  0  0  0  0  0  0  0  0
   12.4998  -13.6132   42.4501 H   0  0  0  0  0  0  0  0  0  0  0  0
  1  8  1  0  0  0  0
  2  9  1  0  0  0  0
  3  9  2  0  0  0  0
  4  6  1  0  0  0  0
  4  8  2  0  0  0  0
  5  7  2  0  0  0  0
  5  8  1  0  0  0  0
  6 10  2  0  0  0  0
  7 10  1  0  0  0  0
  9 10  1  0  0  0  0
  1 11  1  0  0  0  0
  2 12  1  0  0  0  0
  4 13  1  0  0  0  0
  5 14  1  0  0  0  0
  6 15  1  0  0  0  0
  7 16  1  0  0  0  0
M  END
> <pdb_id>
2BUW

> <uniprot_id>
P20371

> <usmiles>
O=C(O)c1ccc(O)cc1

$$$$
PHE_A_900
          07202400433D 1   1.00000     0.00000     0
            
 22 22  0  0  0  0            999 V2000
   70.8713   45.0553    9.6004 N   0  0  0  0  0  0  0  0  0  0  0  0
   71.0223   45.8652    8.3605 C   0  0  2  0  0  0  0  0  0  0  0  0
   72.2491   45.3828    7.6024 C   0  0  0  0  0  0  0  0  0  0  0  0
   73.4067   45.7154    7.9226 O   0  0  0  0  0  0  0  0  0  0  0  0
   71.1306   47.3570    8.6795 C   0  0  0  0  0  0  0  0  0  0  0  0
   69.9354   47.9101    9.4125 C   0  0  0  0  0  0  0  0  0  0  0  0
   68.7454   48.1773    8.7398 C   0  0  0  0  0  0  0  0  0  0  0  0
   70.0098   48.1778   10.7784 C   0  0  0  0  0  0  0  0  0  0  0  0
   67.6396   48.7112    9.4138 C   0  0  0  0  0  0  0  0  0  0  0  0
   68.9099   48.7058   11.4634 C   0  0  0  0  0  0  0  0  0  0  0  0
   67.7256   48.9730   10.7776 C   0  0  0  0  0  0  0  0  0  0  0  0
   72.1161   44.6145    6.6580 O   0  5  0  0  0  0  0  0  0  0  0  0
   70.8032   44.0871    9.3598 H   0  0  0  0  0  0  0  0  0  0  0  0
   71.6663   45.1971   10.1901 H   0  0  0  0  0  0  0  0  0  0  0  0
   70.2165   45.7206    7.7862 H   0  0  0  0  0  0  0  0  0  0  0  0
   71.2322   47.8569    7.8194 H   0  0  0  0  0  0  0  0  0  0  0  0
   71.9421   47.5002    9.2461 H   0  0  0  0  0  0  0  0  0  0  0  0
   68.6795   47.9851    7.7606 H   0  0  0  0  0  0  0  0  0  0  0  0
   70.8581   47.9907   11.2738 H   0  0  0  0  0  0  0  0  0  0  0  0
   66.7930   48.9032    8.9175 H   0  0  0  0  0  0  0  0  0  0  0  0
   68.9731   48.8914   12.4440 H   0  0  0  0  0  0  0  0  0  0  0  0
   66.9392   49.3523   11.2652 H   0  0  0  0  0  0  0  0  0  0  0  0
  1  2  1  0  0  0  0
  2  5  1  0  0  0  0
  2  3  1  0  0  0  0
  5  6  1  0  0  0  0
  6  7  2  0  0  0  0
  6  8  1  0  0  0  0
  7  9  1  0  0  0  0
  9 11  2  0  0  0  0
 11 10  1  0  0  0  0
 10  8  2  0  0  0  0
  3  4  2  0  0  0  0
  3 12  1  0  0  0  0
  1 13  1  0  0  0  0
  1 14  1  0  0  0  0
  2 15  1  0  0  0  0
  5 16  1  0  0  0  0
  5 17  1  0  0  0  0
  7 18  1  0  0  0  0
  8 19  1  0  0  0  0
  9 20  1  0  0  0  0
 10 21  1  0  0  0  0
 11 22  1  0  0  0  0
M  CHG  1  12  -1
M  END
> <pdb_id>
3B34

> <uniprot_id>
P04825

> <usmiles>
[O-]C(=O)[C@@H](N)Cc1ccccc1

$$$$
PHE_B_301
          07202406473D 1   1.00000     0.00000     0
            
 23 23  0  0  0  0            999 V2000
    6.8630   29.2030   10.8350 N   0  3  0  0  0  0  0  0  0  0  0  0
    6.6870   27.7470   11.0620 C   0  0  2  0  0  0  0  0  0  0  0  0
    5.2540   27.3470   10.7730 C   0  0  0  0  0  0  0  0  0  0  0  0
    4.3450   28.1910   10.7930 O   0  0  0  0  0  0  0  0  0  0  0  0
    6.9680   27.3500   12.5030 C   0  0  0  0  0  0  0  0  0  0  0  0
    8.4160   27.3820   12.8790 C   0  0  0  0  0  0  0  0  0  0  0  0
    9.2750   26.3530   12.4890 C   0  0  0  0  0  0  0  0  0  0  0  0
    8.9200   28.4340   13.6690 C   0  0  0  0  0  0  0  0  0  0  0  0
   10.6370   26.3720   12.8640 C   0  0  0  0  0  0  0  0  0  0  0  0
   10.2700   28.4760   14.0500 C   0  0  0  0  0  0  0  0  0  0  0  0
   11.1340   27.4560   13.6380 C   0  0  0  0  0  0  0  0  0  0  0  0
    5.0190   26.1380   10.6200 O   0  5  0  0  0  0  0  0  0  0  0  0
    7.8000   29.4100   10.8000 H   0  0  0  0  0  0  0  0  0  0  0  0
    6.4490   29.4500   10.0040 H   0  0  0  0  0  0  0  0  0  0  0  0
    6.4540   29.6910   11.5530 H   0  0  0  0  0  0  0  0  0  0  0  0
    7.2830   27.2420   10.4710 H   0  0  0  0  0  0  0  0  0  0  0  0
    6.4970   27.9610   13.0910 H   0  0  0  0  0  0  0  0  0  0  0  0
    6.6470   26.4460   12.6450 H   0  0  0  0  0  0  0  0  0  0  0  0
    8.9480   25.6510   11.9740 H   0  0  0  0  0  0  0  0  0  0  0  0
    8.3490   29.1180   13.9350 H   0  0  0  0  0  0  0  0  0  0  0  0
   11.2080   25.6910   12.5900 H   0  0  0  0  0  0  0  0  0  0  0  0
   10.5900   29.1840   14.5620 H   0  0  0  0  0  0  0  0  0  0  0  0
   12.0290   27.4740   13.8910 H   0  0  0  0  0  0  0  0  0  0  0  0
  1  2  1  0  0  0  0
  2  5  1  0  0  0  0
  2  3  1  0  0  0  0
  5  6  1  0  0  0  0
  6  7  2  0  0  0  0
  6  8  1  0  0  0  0
  7  9  1  0  0  0  0
  9 11  2  0  0  0  0
 11 10  1  0  0  0  0
 10  8  2  0  0  0  0
  3  4  2  0  0  0  0
  3 12  1  0  0  0  0
  1 13  1  0  0  0  0
  1 14  1  0  0  0  0
  1 15  1  0  0  0  0
  2 16  1  0  0  0  0
  5 17  1  0  0  0  0
  5 18  1  0  0  0  0
  7 19  1  0  0  0  0
  8 20  1  0  0  0  0
  9 21  1  0  0  0  0
 10 22  1  0  0  0  0
 11 23  1  0  0  0  0
M  CHG  2   1   1  12  -1
M  END
> <pdb_id>
4IO7

> <uniprot_id>
E9P5T5

> <usmiles>
[O-]C(=O)[C@@H]([NH3+])Cc1ccccc1

$$$$
PHE_B_900
          07202400323D 1   1.00000     0.00000     0
            
 22 22  0  0  0  0            999 V2000
   87.5650  -75.3110   12.5540 N   0  0  0  0  0  0  0  0  0  0  0  0
   88.0490  -74.0750   11.7210 C   0  0  2  0  0  0  0  0  0  0  0  0
   88.9660  -73.1010   12.5150 C   0  0  0  0  0  0  0  0  0  0  0  0
   89.6000  -72.1740   11.8570 O   0  0  0  0  0  0  0  0  0  0  0  0
   86.9050  -73.2730   11.0890 C   0  0  0  0  0  0  0  0  0  0  0  0
   85.9300  -72.6180   12.1310 C   0  0  0  0  0  0  0  0  0  0  0  0
   84.8670  -73.3510   12.7030 C   0  0  0  0  0  0  0  0  0  0  0  0
   86.0530  -71.2930   12.4810 C   0  0  0  0  0  0  0  0  0  0  0  0
   83.9520  -72.7850   13.5590 C   0  0  0  0  0  0  0  0  0  0  0  0
   85.1790  -70.7430   13.4320 C   0  0  0  0  0  0  0  0  0  0  0  0
   84.1110  -71.4850   13.9460 C   0  0  0  0  0  0  0  0  0  0  0  0
   89.0500  -73.1420   13.7810 O   0  5  0  0  0  0  0  0  0  0  0  0
   88.3575  -75.7866   12.9359 H   0  0  0  0  0  0  0  0  0  0  0  0
   86.9724  -75.0006   13.2973 H   0  0  0  0  0  0  0  0  0  0  0  0
   88.5979  -74.4348   10.9665 H   0  0  0  0  0  0  0  0  0  0  0  0
   86.3745  -73.8885   10.5061 H   0  0  0  0  0  0  0  0  0  0  0  0
   87.3028  -72.5452   10.5304 H   0  0  0  0  0  0  0  0  0  0  0  0
   84.7762  -74.3207   12.4763 H   0  0  0  0  0  0  0  0  0  0  0  0
   86.7607  -70.7252   12.0605 H   0  0  0  0  0  0  0  0  0  0  0  0
   83.1771  -73.3204   13.8951 H   0  0  0  0  0  0  0  0  0  0  0  0
   85.3226  -69.8049   13.7471 H   0  0  0  0  0  0  0  0  0  0  0  0
   83.4701  -71.0679   14.5905 H   0  0  0  0  0  0  0  0  0  0  0  0
  1  2  1  0  0  0  0
  2  5  1  0  0  0  0
  2  3  1  0  0  0  0
  5  6  1  0  0  0  0
  6  7  2  0  0  0  0
  6  8  1  0  0  0  0
  7  9  1  0  0  0  0
  9 11  2  0  0  0  0
 11 10  1  0  0  0  0
 10  8  2  0  0  0  0
  3  4  2  0  0  0  0
  3 12  1  0  0  0  0
  1 13  1  0  0  0  0
  1 14  1  0  0  0  0
  2 15  1  0  0  0  0
  5 16  1  0  0  0  0
  5 17  1  0  0  0  0
  7 18  1  0  0  0  0
  8 19  1  0  0  0  0
  9 20  1  0  0  0  0
 10 21  1  0  0  0  0
 11 22  1  0  0  0  0
M  CHG  1  12  -1
M  END
> <pdb_id>
2YPO

> <uniprot_id>
O53512

> <usmiles>
[O-]C(=O)[C@@H](N)Cc1ccccc1

$$$$
PJK_A_508
          07202416263D 1   1.00000     0.00000     0
            
 30 31  0  0  0  0            999 V2000
   31.1632   66.6363   73.6176 Cl  0  0  0  0  0  0  0  0  0  0  0  0
   30.7645   65.7325   70.7076 F   0  0  0  0  0  0  0  0  0  0  0  0
   28.8337   64.8724   70.2364 F   0  0  0  0  0  0  0  0  0  0  0  0
   29.8660   64.2510   72.0277 F   0  0  0  0  0  0  0  0  0  0  0  0
   21.1798   69.3269   72.2801 O   0  0  0  0  0  0  0  0  0  0  0  0
   22.6800   70.8161   72.9410 O   0  0  0  0  0  0  0  0  0  0  0  0
   25.6368   68.0546   71.9976 N   0  0  0  0  0  0  0  0  0  0  0  0
   24.9477   67.2750   71.0997 C   0  0  0  0  0  0  0  0  0  0  0  0
   24.7972   68.8944   72.9158 C   0  0  0  0  0  0  0  0  0  0  0  0
   28.8911   68.0800   73.7871 C   0  0  0  0  0  0  0  0  0  0  0  0
   23.4933   68.0371   71.0932 C   0  0  0  0  0  0  0  0  0  0  0  0
   27.6053   68.4319   73.4083 C   0  0  0  0  0  0  0  0  0  0  0  0
   27.6299   66.7287   71.6675 C   0  0  0  0  0  0  0  0  0  0  0  0
   29.5364   67.0621   73.0863 C   0  0  0  0  0  0  0  0  0  0  0  0
   22.3732   69.6759   72.5517 C   0  0  0  0  0  0  0  0  0  0  0  0
   27.0028   67.7194   72.3858 C   0  0  0  0  0  0  0  0  0  0  0  0
   23.3679   68.4455   72.3828 C   0  0  2  0  0  0  0  0  0  0  0  0
   28.8919   66.3989   72.0498 C   0  0  0  0  0  0  0  0  0  0  0  0
   29.5932   65.2951   71.2664 C   0  0  0  0  0  0  0  0  0  0  0  0
   20.9895   68.3954   71.9704 H   0  0  0  0  0  0  0  0  0  0  0  0
   24.8676   66.3301   71.4169 H   0  0  0  0  0  0  0  0  0  0  0  0
   25.3750   67.2881   70.1957 H   0  0  0  0  0  0  0  0  0  0  0  0
   24.9589   69.8729   72.7877 H   0  0  0  0  0  0  0  0  0  0  0  0
   24.9344   68.6570   73.8775 H   0  0  0  0  0  0  0  0  0  0  0  0
   29.3459   68.5459   74.5461 H   0  0  0  0  0  0  0  0  0  0  0  0
   22.7575   67.4089   70.8402 H   0  0  0  0  0  0  0  0  0  0  0  0
   23.4966   68.8162   70.4664 H   0  0  0  0  0  0  0  0  0  0  0  0
   27.1245   69.1819   73.8625 H   0  0  0  0  0  0  0  0  0  0  0  0
   27.1790   66.2725   70.9003 H   0  0  0  0  0  0  0  0  0  0  0  0
   23.0383   67.6809   72.9367 H   0  0  0  0  0  0  0  0  0  0  0  0
  1 14  1  0  0  0  0
  2 19  1  0  0  0  0
  3 19  1  0  0  0  0
  4 19  1  0  0  0  0
  5 15  1  0  0  0  0
  6 15  2  0  0  0  0
  7  8  1  0  0  0  0
  7  9  1  0  0  0  0
  7 16  1  0  0  0  0
  8 11  1  0  0  0  0
  9 17  1  0  0  0  0
 10 12  1  0  0  0  0
 10 14  2  0  0  0  0
 11 17  1  0  0  0  0
 12 16  2  0  0  0  0
 13 16  1  0  0  0  0
 13 18  2  0  0  0  0
 14 18  1  0  0  0  0
 15 17  1  0  0  0  0
 18 19  1  0  0  0  0
  5 20  1  0  0  0  0
  8 21  1  0  0  0  0
  8 22  1  0  0  0  0
  9 23  1  0  0  0  0
  9 24  1  0  0  0  0
 10 25  1  0  0  0  0
 11 26  1  0  0  0  0
 11 27  1  0  0  0  0
 12 28  1  0  0  0  0
 13 29  1  0  0  0  0
 17 30  1  0  0  0  0
M  END
> <pdb_id>
6YSK

> <uniprot_id>
Q6P988

> <usmiles>
Clc1c(cc(N2C[C@@H](C(=O)O)CC2)cc1)C(F)(F)F

$$$$
PK2_A_400
          07202407253D 1   1.00000     0.00000     0
            
 54 57  0  0  0  0            999 V2000
  103.5298   16.8733   23.9626 O   0  0  0  0  0  0  0  0  0  0  0  0
   99.2666   15.4919   24.7203 N   0  0  0  0  0  0  0  0  0  0  0  0
  103.2531   17.3407   16.4399 N   0  0  0  0  0  0  0  0  0  0  0  0
   98.5191   13.8955   17.8723 N   0  0  0  0  0  0  0  0  0  0  0  0
  101.4303   16.1207   24.3367 N   0  0  0  0  0  0  0  0  0  0  0  0
  103.7530   17.1867   18.7424 N   0  0  0  0  0  0  0  0  0  0  0  0
  100.0946   15.6275   22.5365 N   0  0  0  0  0  0  0  0  0  0  0  0
  101.8021   16.4815   18.0571 N   0  0  0  0  0  0  0  0  0  0  0  0
  102.4093   17.1998   15.2662 C   0  0  0  0  0  0  0  0  0  0  0  0
   99.5971   14.0175   18.9251 C   0  0  0  0  0  0  0  0  0  0  0  0
   97.2089   13.6191   18.5378 C   0  0  0  0  0  0  0  0  0  0  0  0
   93.5956   15.0536   16.4225 C   0  0  0  0  0  0  0  0  0  0  0  0
   94.9758   15.1506   15.7246 C   0  0  0  0  0  0  0  0  0  0  0  0
   93.4811   13.7703   17.2845 C   0  0  0  0  0  0  0  0  0  0  0  0
   99.4271   15.4092   19.6200 C   0  0  0  0  0  0  0  0  0  0  0  0
   96.1151   15.0996   16.7861 C   0  0  0  0  0  0  0  0  0  0  0  0
   94.6432   13.7297   18.3221 C   0  0  0  0  0  0  0  0  0  0  0  0
  103.3202   16.8320   21.2079 C   0  0  0  0  0  0  0  0  0  0  0  0
  100.2411   15.7429   23.8066 C   0  0  0  0  0  0  0  0  0  0  0  0
  102.9201   16.9649   17.6883 C   0  0  0  0  0  0  0  0  0  0  0  0
  102.4495   16.5056   23.5569 C   0  0  0  0  0  0  0  0  0  0  0  0
  102.9719   16.8087   19.8477 C   0  0  0  0  0  0  0  0  0  0  0  0
  101.7765   16.3167   19.3968 C   0  0  0  0  0  0  0  0  0  0  0  0
  101.0189   15.9806   21.6128 C   0  0  0  0  0  0  0  0  0  0  0  0
   96.0100   13.7478   17.5540 C   0  0  0  0  0  0  0  0  0  0  0  0
  102.2844   16.3979   22.0551 C   0  0  0  0  0  0  0  0  0  0  0  0
  100.7477   15.8658   20.2346 C   0  0  0  0  0  0  0  0  0  0  0  0
   98.3574   15.2075   24.4162 H   0  0  0  0  0  0  0  0  0  0  0  0
   99.4589   15.5916   25.6965 H   0  0  0  0  0  0  0  0  0  0  0  0
  104.1558   17.7506   16.3096 H   0  0  0  0  0  0  0  0  0  0  0  0
   98.7428   13.1451   17.2503 H   0  0  0  0  0  0  0  0  0  0  0  0
  101.5491   16.1119   25.3296 H   0  0  0  0  0  0  0  0  0  0  0  0
  104.6908   17.5336   18.7324 H   0  0  0  0  0  0  0  0  0  0  0  0
  102.8906   17.5553   14.4650 H   0  0  0  0  0  0  0  0  0  0  0  0
  102.1942   16.2336   15.1243 H   0  0  0  0  0  0  0  0  0  0  0  0
  101.5620   17.7136   15.4012 H   0  0  0  0  0  0  0  0  0  0  0  0
  100.4991   13.9582   18.4975 H   0  0  0  0  0  0  0  0  0  0  0  0
   99.4991   13.2857   19.5995 H   0  0  0  0  0  0  0  0  0  0  0  0
   97.0835   14.2716   19.2851 H   0  0  0  0  0  0  0  0  0  0  0  0
   97.2247   12.6895   18.9061 H   0  0  0  0  0  0  0  0  0  0  0  0
   92.8793   15.0409   15.7248 H   0  0  0  0  0  0  0  0  0  0  0  0
   93.4731   15.8523   17.0117 H   0  0  0  0  0  0  0  0  0  0  0  0
   95.0318   16.0121   15.2199 H   0  0  0  0  0  0  0  0  0  0  0  0
   95.0803   14.3850   15.0897 H   0  0  0  0  0  0  0  0  0  0  0  0
   93.5356   12.9661   16.6926 H   0  0  0  0  0  0  0  0  0  0  0  0
   92.6049   13.7705   17.7665 H   0  0  0  0  0  0  0  0  0  0  0  0
   98.7373   15.3351   20.3403 H   0  0  0  0  0  0  0  0  0  0  0  0
   99.1300   16.0814   18.9419 H   0  0  0  0  0  0  0  0  0  0  0  0
   96.0144   15.8608   17.4268 H   0  0  0  0  0  0  0  0  0  0  0  0
   97.0036   15.1618   16.3315 H   0  0  0  0  0  0  0  0  0  0  0  0
   94.5763   12.8950   18.8687 H   0  0  0  0  0  0  0  0  0  0  0  0
   94.5851   14.5270   18.9228 H   0  0  0  0  0  0  0  0  0  0  0  0
  104.2154   17.1277   21.5412 H   0  0  0  0  0  0  0  0  0  0  0  0
   96.0339   12.9914   16.9002 H   0  0  0  0  0  0  0  0  0  0  0  0
  1 21  2  0  0  0  0
  2 19  1  0  0  0  0
  3  9  1  0  0  0  0
  3 20  1  0  0  0  0
  4 10  1  0  0  0  0
  4 11  1  0  0  0  0
  5 19  1  0  0  0  0
  5 21  1  0  0  0  0
  6 20  1  0  0  0  0
  6 22  1  0  0  0  0
  7 19  2  0  0  0  0
  7 24  1  0  0  0  0
  8 20  2  0  0  0  0
  8 23  1  0  0  0  0
 10 15  1  0  0  0  0
 11 25  1  0  0  0  0
 12 13  1  0  0  0  0
 12 14  1  0  0  0  0
 13 16  1  0  0  0  0
 14 17  1  0  0  0  0
 15 27  1  0  0  0  0
 16 25  1  0  0  0  0
 17 25  1  0  0  0  0
 18 22  2  0  0  0  0
 18 26  1  0  0  0  0
 21 26  1  0  0  0  0
 22 23  1  0  0  0  0
 23 27  2  0  0  0  0
 24 26  2  0  0  0  0
 24 27  1  0  0  0  0
  2 28  1  0  0  0  0
  2 29  1  0  0  0  0
  3 30  1  0  0  0  0
  4 31  1  0  0  0  0
  5 32  1  0  0  0  0
  6 33  1  0  0  0  0
  9 34  1  0  0  0  0
  9 35  1  0  0  0  0
  9 36  1  0  0  0  0
 10 37  1  0  0  0  0
 10 38  1  0  0  0  0
 11 39  1  0  0  0  0
 11 40  1  0  0  0  0
 12 41  1  0  0  0  0
 12 42  1  0  0  0  0
 13 43  1  0  0  0  0
 13 44  1  0  0  0  0
 14 45  1  0  0  0  0
 14 46  1  0  0  0  0
 15 47  1  0  0  0  0
 15 48  1  0  0  0  0
 16 49  1  0  0  0  0
 16 50  1  0  0  0  0
 17 51  1  0  0  0  0
 17 52  1  0  0  0  0
 18 53  1  0  0  0  0
 25 54  1  0  0  0  0
M  END
> <pdb_id>
3EOS

> <uniprot_id>
P28720

> <usmiles>
O=C1NC(=Nc2c1cc3NC(=Nc3c2CCNCC4CCCCC4)NC)N

$$$$
PK3_A_500
          07202407253D 1   1.00000     0.00000     0
            
 34 36  0  0  0  0            999 V2000
   98.8055   13.7642   18.0140 O   0  0  0  0  0  0  0  0  0  0  0  0
  103.6252   16.9828   23.9051 O   0  0  0  0  0  0  0  0  0  0  0  0
   99.3653   15.4717   24.6029 N   0  0  0  0  0  0  0  0  0  0  0  0
  103.5226   17.2700   16.3324 N   0  0  0  0  0  0  0  0  0  0  0  0
  101.5422   16.2205   24.3101 N   0  0  0  0  0  0  0  0  0  0  0  0
  100.1458   15.7989   22.4589 N   0  0  0  0  0  0  0  0  0  0  0  0
  103.8283   17.2719   18.7105 N   0  0  0  0  0  0  0  0  0  0  0  0
  101.7926   16.5946   17.8720 N   0  0  0  0  0  0  0  0  0  0  0  0
  102.5212   17.3021   15.2657 C   0  0  0  0  0  0  0  0  0  0  0  0
   99.7450   14.1238   19.0286 C   0  0  0  0  0  0  0  0  0  0  0  0
   99.5080   15.5966   19.5228 C   0  0  0  0  0  0  0  0  0  0  0  0
  103.3518   16.9932   21.1329 C   0  0  0  0  0  0  0  0  0  0  0  0
  100.3294   15.8372   23.8382 C   0  0  0  0  0  0  0  0  0  0  0  0
  103.1033   17.0582   17.6011 C   0  0  0  0  0  0  0  0  0  0  0  0
  102.5429   16.6115   23.5005 C   0  0  0  0  0  0  0  0  0  0  0  0
  103.0842   16.9379   19.7660 C   0  0  0  0  0  0  0  0  0  0  0  0
  101.8504   16.5296   19.2880 C   0  0  0  0  0  0  0  0  0  0  0  0
  101.0867   16.1292   21.5380 C   0  0  0  0  0  0  0  0  0  0  0  0
  100.8141   16.1640   20.1582 C   0  0  0  0  0  0  0  0  0  0  0  0
  102.3394   16.5646   22.0022 C   0  0  0  0  0  0  0  0  0  0  0  0
   98.9780   12.8248   17.7178 H   0  0  0  0  0  0  0  0  0  0  0  0
   98.4891   15.1977   24.2065 H   0  0  0  0  0  0  0  0  0  0  0  0
   99.4905   15.4610   25.5949 H   0  0  0  0  0  0  0  0  0  0  0  0
  104.4928   17.4013   16.1286 H   0  0  0  0  0  0  0  0  0  0  0  0
  101.6982   16.2122   25.2978 H   0  0  0  0  0  0  0  0  0  0  0  0
  104.7647   17.6213   18.7405 H   0  0  0  0  0  0  0  0  0  0  0  0
  102.9733   17.4660   14.3889 H   0  0  0  0  0  0  0  0  0  0  0  0
  102.0398   16.4262   15.2339 H   0  0  0  0  0  0  0  0  0  0  0  0
  101.8663   18.0361   15.4453 H   0  0  0  0  0  0  0  0  0  0  0  0
  100.6707   14.0487   18.6579 H   0  0  0  0  0  0  0  0  0  0  0  0
   99.6444   13.4992   19.8030 H   0  0  0  0  0  0  0  0  0  0  0  0
   98.7778   15.6030   20.2060 H   0  0  0  0  0  0  0  0  0  0  0  0
   99.2427   16.1677   18.7460 H   0  0  0  0  0  0  0  0  0  0  0  0
  104.2295   17.3249   21.4788 H   0  0  0  0  0  0  0  0  0  0  0  0
  1 10  1  0  0  0  0
  2 15  2  0  0  0  0
  3 13  1  0  0  0  0
  4  9  1  0  0  0  0
  4 14  1  0  0  0  0
  5 13  1  0  0  0  0
  5 15  1  0  0  0  0
  6 13  2  0  0  0  0
  6 18  1  0  0  0  0
  7 14  1  0  0  0  0
  7 16  1  0  0  0  0
  8 14  2  0  0  0  0
  8 17  1  0  0  0  0
 10 11  1  0  0  0  0
 11 19  1  0  0  0  0
 12 16  1  0  0  0  0
 12 20  2  0  0  0  0
 15 20  1  0  0  0  0
 16 17  2  0  0  0  0
 17 19  1  0  0  0  0
 18 19  2  0  0  0  0
 18 20  1  0  0  0  0
  1 21  1  0  0  0  0
  3 22  1  0  0  0  0
  3 23  1  0  0  0  0
  4 24  1  0  0  0  0
  5 25  1  0  0  0  0
  7 26  1  0  0  0  0
  9 27  1  0  0  0  0
  9 28  1  0  0  0  0
  9 29  1  0  0  0  0
 10 30  1  0  0  0  0
 10 31  1  0  0  0  0
 11 32  1  0  0  0  0
 11 33  1  0  0  0  0
 12 34  1  0  0  0  0
M  END
> <pdb_id>
3EOU

> <uniprot_id>
P28720

> <usmiles>
O=C1NC(=Nc2c(c3N=C(Nc3cc21)NC)CCO)N

$$$$
PKU_A_1201
          07192420223D 1   1.00000     0.00000     0
            
 17 17  0  0  0  0            999 V2000
   11.7396   16.8573    9.8855 Br  0  0  0  0  0  0  0  0  0  0  0  0
    5.9969   14.5897    8.5151 O   0  0  0  0  0  0  0  0  0  0  0  0
    7.4023   12.9886    9.2421 N   0  0  0  0  0  0  0  0  0  0  0  0
    8.0871   16.3069    8.2484 N   0  0  0  0  0  0  0  0  0  0  0  0
    6.3129   12.0037    9.1207 C   0  0  0  0  0  0  0  0  0  0  0  0
    9.2110   16.9993    8.4685 C   0  0  0  0  0  0  0  0  0  0  0  0
    9.3253   15.1124    9.5978 C   0  0  0  0  0  0  0  0  0  0  0  0
    7.1145   14.2570    8.9072 C   0  0  0  0  0  0  0  0  0  0  0  0
    9.9634   16.2625    9.2842 C   0  0  0  0  0  0  0  0  0  0  0  0
    8.1341   15.1670    8.9559 C   0  0  0  0  0  0  0  0  0  0  0  0
    8.3134   12.7249    9.5591 H   0  0  0  0  0  0  0  0  0  0  0  0
    7.3351   16.5921    7.6540 H   0  0  0  0  0  0  0  0  0  0  0  0
    6.6464   11.1021    9.3962 H   0  0  0  0  0  0  0  0  0  0  0  0
    5.5528   12.2729    9.7121 H   0  0  0  0  0  0  0  0  0  0  0  0
    6.0003   11.9678    8.1715 H   0  0  0  0  0  0  0  0  0  0  0  0
    9.4416   17.8970    8.0930 H   0  0  0  0  0  0  0  0  0  0  0  0
    9.6629   14.3746   10.1823 H   0  0  0  0  0  0  0  0  0  0  0  0
  1  9  1  0  0  0  0
  2  8  2  0  0  0  0
  3  5  1  0  0  0  0
  3  8  1  0  0  0  0
  4  6  1  0  0  0  0
  4 10  1  0  0  0  0
  6  9  2  0  0  0  0
  7  9  1  0  0  0  0
  7 10  2  0  0  0  0
  8 10  1  0  0  0  0
  3 11  1  0  0  0  0
  4 12  1  0  0  0  0
  5 13  1  0  0  0  0
  5 14  1  0  0  0  0
  5 15  1  0  0  0  0
  6 16  1  0  0  0  0
  7 17  1  0  0  0  0
M  END
> <pdb_id>
5MQE

> <uniprot_id>
Q92793

> <usmiles>
BrC1=CNC(C(=O)NC)=C1

$$$$
PNZ_A_1203
          07192421223D 1   1.00000     0.00000     0
            
 19 19  0  0  0  0            999 V2000
    7.0256   -5.1335   34.4689 O   0  5  0  0  0  0  0  0  0  0  0  0
    8.8211   -4.1444   34.9004 O   0  0  0  0  0  0  0  0  0  0  0  0
    4.9393   -2.0044   40.5598 N   0  0  0  0  0  0  0  0  0  0  0  0
    7.6421   -4.3439   35.0876 N   0  3  0  0  0  0  0  0  0  0  0  0
    4.9471   -1.4416   39.1886 C   0  0  0  0  0  0  0  0  0  0  0  0
    5.6304   -3.8606   36.2282 C   0  0  0  0  0  0  0  0  0  0  0  0
    7.6533   -2.7462   36.8800 C   0  0  0  0  0  0  0  0  0  0  0  0
    4.9047   -3.0788   37.3190 C   0  0  0  0  0  0  0  0  0  0  0  0
    6.9954   -2.0420   37.8739 C   0  0  0  0  0  0  0  0  0  0  0  0
    6.9752   -3.6342   36.0586 C   0  0  0  0  0  0  0  0  0  0  0  0
    5.6205   -2.1825   38.0917 C   0  0  0  0  0  0  0  0  0  0  0  0
    4.4480   -1.3846   41.1717 H   0  0  0  0  0  0  0  0  0  0  0  0
    4.4846   -2.8950   40.5521 H   0  0  0  0  0  0  0  0  0  0  0  0
    5.3871   -0.5454   39.2457 H   0  0  0  0  0  0  0  0  0  0  0  0
    3.9916   -1.3271   38.9169 H   0  0  0  0  0  0  0  0  0  0  0  0
    5.1422   -4.5179   35.6540 H   0  0  0  0  0  0  0  0  0  0  0  0
    8.6359   -2.6119   36.7519 H   0  0  0  0  0  0  0  0  0  0  0  0
    3.9257   -3.2125   37.4731 H   0  0  0  0  0  0  0  0  0  0  0  0
    7.5176   -1.4154   38.4524 H   0  0  0  0  0  0  0  0  0  0  0  0
  1  4  1  0  0  0  0
  2  4  2  0  0  0  0
  3  5  1  0  0  0  0
  4 10  1  0  0  0  0
  5 11  1  0  0  0  0
  6  8  1  0  0  0  0
  6 10  2  0  0  0  0
  7  9  2  0  0  0  0
  7 10  1  0  0  0  0
  8 11  2  0  0  0  0
  9 11  1  0  0  0  0
  3 12  1  0  0  0  0
  3 13  1  0  0  0  0
  5 14  1  0  0  0  0
  5 15  1  0  0  0  0
  6 16  1  0  0  0  0
  7 17  1  0  0  0  0
  8 18  1  0  0  0  0
  9 19  1  0  0  0  0
M  CHG  2   1  -1   4   1
M  END
> <pdb_id>
2HJ4

> <uniprot_id>
P84887

> <usmiles>
[O-][N+](=O)c1ccc(cc1)CN

$$$$
PPR_A_1000
          07192419043D 1   1.00000     0.00000     0
            
 15 14  0  0  0  0            999 V2000
   14.5980    5.6080    4.7980 P   0  0  0  0  0  0  0  0  0  0  0  0
   15.9860    5.4370    4.1140 O   0  0  0  0  0  0  0  0  0  0  0  0
   13.4770    5.3690    3.9050 O   0  0  0  0  0  0  0  0  0  0  0  0
   14.5940    4.8220    6.0460 O   0  0  0  0  0  0  0  0  0  0  0  0
   12.8380    8.8970    3.2100 O   0  0  0  0  0  0  0  0  0  0  0  0
   10.9970    8.4700    4.3360 O   0  0  0  0  0  0  0  0  0  0  0  0
   12.4330    7.2480    6.3020 O   0  0  0  0  0  0  0  0  0  0  0  0
   14.4390    7.5000    5.2770 C   0  0  0  0  0  0  0  0  0  0  0  0
   12.2140    8.4000    4.2270 C   0  0  0  0  0  0  0  0  0  0  0  0
   13.0990    7.7160    5.2690 C   0  0  0  0  0  0  0  0  0  0  0  0
   16.7101    5.6147    4.7804 H   0  0  0  0  0  0  0  0  0  0  0  0
   12.6200    5.4948    4.4048 H   0  0  0  0  0  0  0  0  0  0  0  0
   13.8335    8.8238    3.1496 H   0  0  0  0  0  0  0  0  0  0  0  0
   14.8987    8.0792    4.6038 H   0  0  0  0  0  0  0  0  0  0  0  0
   14.8237    7.6730    6.1837 H   0  0  0  0  0  0  0  0  0  0  0  0
  1  2  1  0  0  0  0
  1  3  1  0  0  0  0
  1  4  2  0  0  0  0
  1  8  1  0  0  0  0
  5  9  1  0  0  0  0
  6  9  2  0  0  0  0
  7 10  2  0  0  0  0
  8 10  1  0  0  0  0
  9 10  1  0  0  0  0
  2 11  1  0  0  0  0
  3 12  1  0  0  0  0
  5 13  1  0  0  0  0
  8 14  1  0  0  0  0
  8 15  1  0  0  0  0
M  END
> <pdb_id>
1KC7

> <uniprot_id>
P22983

> <usmiles>
P(=O)(O)(O)CC(=O)C(=O)O

$$$$
PQQ_A_1608
          07192423013D 1   1.00000     0.00000     0
            
 32 34  0  0  0  0            999 V2000
   24.1760   42.1180   19.6140 O   0  0  0  0  0  0  0  0  0  0  0  0
   24.2600   41.7080   17.4760 O   0  0  0  0  0  0  0  0  0  0  0  0
   15.5280   35.2700   18.3100 O   0  0  0  0  0  0  0  0  0  0  0  0
   15.9870   36.2450   20.2360 O   0  0  0  0  0  0  0  0  0  0  0  0
   20.9760   39.2660   22.0370 O   0  0  0  0  0  0  0  0  0  0  0  0
   19.1320   38.3390   21.2330 O   0  0  0  0  0  0  0  0  0  0  0  0
   21.3680   39.1430   14.9400 O   0  0  0  0  0  0  0  0  0  0  0  0
   19.2340   37.4990   14.5810 O   0  0  0  0  0  0  0  0  0  0  0  0
   22.0600   40.0880   17.5520 N   0  0  0  0  0  0  0  0  0  0  0  0
   18.2640   37.4870   19.1340 N   0  0  0  0  0  0  0  0  0  0  0  0
   21.8610   40.2650   19.8610 C   0  0  0  0  0  0  0  0  0  0  0  0
   17.6340   36.6900   17.0720 C   0  0  0  0  0  0  0  0  0  0  0  0
   23.7410   41.5090   18.6080 C   0  0  0  0  0  0  0  0  0  0  0  0
   16.2470   35.9990   19.0390 C   0  0  0  0  0  0  0  0  0  0  0  0
   20.1550   39.0520   21.1070 C   0  0  0  0  0  0  0  0  0  0  0  0
   20.6970   38.8050   15.9350 C   0  0  0  0  0  0  0  0  0  0  0  0
   19.5480   37.9100   15.7300 C   0  0  0  0  0  0  0  0  0  0  0  0
   22.5360   40.5980   18.7030 C   0  0  0  0  0  0  0  0  0  0  0  0
   17.3900   36.7120   18.4440 C   0  0  0  0  0  0  0  0  0  0  0  0
   21.0200   39.2760   17.3230 C   0  0  0  0  0  0  0  0  0  0  0  0
   19.1570   38.0150   18.2740 C   0  0  0  0  0  0  0  0  0  0  0  0
   20.7240   39.4350   19.7960 C   0  0  0  0  0  0  0  0  0  0  0  0
   18.7730   37.5190   16.9310 C   0  0  0  0  0  0  0  0  0  0  0  0
   20.2410   38.8580   18.5000 C   0  0  0  0  0  0  0  0  0  0  0  0
   23.7639   41.9596   20.5113 H   0  0  0  0  0  0  0  0  0  0  0  0
   15.7849   35.1072   17.3574 H   0  0  0  0  0  0  0  0  0  0  0  0
   21.7751   39.8450   21.8751 H   0  0  0  0  0  0  0  0  0  0  0  0
   22.1545   39.7507   15.0503 H   0  0  0  0  0  0  0  0  0  0  0  0
   18.4487   36.8909   14.4648 H   0  0  0  0  0  0  0  0  0  0  0  0
   18.2481   37.6415   20.1219 H   0  0  0  0  0  0  0  0  0  0  0  0
   22.1784   40.6121   20.7435 H   0  0  0  0  0  0  0  0  0  0  0  0
   17.1269   36.2055   16.3591 H   0  0  0  0  0  0  0  0  0  0  0  0
  1 13  1  0  0  0  0
  2 13  2  0  0  0  0
  3 14  1  0  0  0  0
  4 14  2  0  0  0  0
  5 15  1  0  0  0  0
  6 15  2  0  0  0  0
  7 16  1  0  0  0  0
  8 17  1  0  0  0  0
  9 18  2  0  0  0  0
  9 20  1  0  0  0  0
 10 19  1  0  0  0  0
 10 21  1  0  0  0  0
 11 18  1  0  0  0  0
 11 22  2  0  0  0  0
 12 19  2  0  0  0  0
 12 23  1  0  0  0  0
 13 18  1  0  0  0  0
 14 19  1  0  0  0  0
 15 22  1  0  0  0  0
 16 17  1  0  0  0  0
 16 20  2  0  0  0  0
 17 23  2  0  0  0  0
 20 24  1  0  0  0  0
 21 23  1  0  0  0  0
 21 24  2  0  0  0  0
 22 24  1  0  0  0  0
  1 25  1  0  0  0  0
  3 26  1  0  0  0  0
  5 27  1  0  0  0  0
  7 28  1  0  0  0  0
  8 29  1  0  0  0  0
 10 30  1  0  0  0  0
 11 31  1  0  0  0  0
 12 32  1  0  0  0  0
M  END
> <pdb_id>
4CVB

> <uniprot_id>
Q93RE9

> <usmiles>
O=C(O)c1nc2c(O)c(O)c3c(NC(C(=O)O)=C3)c2c(c1)C(=O)O

$$$$
PQQ_A_1608
          07192423013D 1   1.00000     0.00000     0
            
 32 34  0  0  0  0            999 V2000
   24.0549   42.0290   19.6336 O   0  0  0  0  0  0  0  0  0  0  0  0
   24.1255   41.7454   17.4776 O   0  0  0  0  0  0  0  0  0  0  0  0
   15.9893   36.2207   20.1476 O   0  0  0  0  0  0  0  0  0  0  0  0
   15.4646   35.2646   18.2419 O   0  0  0  0  0  0  0  0  0  0  0  0
   20.8440   39.2636   22.0851 O   0  0  0  0  0  0  0  0  0  0  0  0
   19.1094   38.2468   21.1969 O   0  0  0  0  0  0  0  0  0  0  0  0
   21.0745   39.5253   14.8702 O   0  0  0  0  0  0  0  0  0  0  0  0
   19.6340   37.2200   14.7683 O   0  0  0  0  0  0  0  0  0  0  0  0
   21.9437   40.2490   17.4201 N   0  0  0  0  0  0  0  0  0  0  0  0
   18.2094   37.5033   19.0291 N   0  0  0  0  0  0  0  0  0  0  0  0
   21.8077   40.2065   19.7956 C   0  0  0  0  0  0  0  0  0  0  0  0
   17.4632   36.8804   16.9498 C   0  0  0  0  0  0  0  0  0  0  0  0
   23.6144   41.5208   18.5923 C   0  0  0  0  0  0  0  0  0  0  0  0
   16.1884   36.0183   18.9392 C   0  0  0  0  0  0  0  0  0  0  0  0
   20.1421   38.9497   21.0974 C   0  0  0  0  0  0  0  0  0  0  0  0
   20.4696   39.1024   15.8743 C   0  0  0  0  0  0  0  0  0  0  0  0
   19.3135   38.2248   15.6423 C   0  0  2  0  0  0  0  0  0  0  0  0
   22.4161   40.6253   18.6195 C   0  0  0  0  0  0  0  0  0  0  0  0
   17.2914   36.7840   18.3254 C   0  0  0  0  0  0  0  0  0  0  0  0
   20.8826   39.4537   17.2558 C   0  0  0  0  0  0  0  0  0  0  0  0
   19.0552   38.1051   18.1832 C   0  0  0  0  0  0  0  0  0  0  0  0
   20.6850   39.3692   19.7675 C   0  0  0  0  0  0  0  0  0  0  0  0
   18.5954   37.7216   16.8338 C   0  0  0  0  0  0  0  0  0  0  0  0
   20.1495   38.9345   18.4374 C   0  0  0  0  0  0  0  0  0  0  0  0
   23.6202   41.8270   20.5113 H   0  0  0  0  0  0  0  0  0  0  0  0
   16.5950   36.8303   20.6589 H   0  0  0  0  0  0  0  0  0  0  0  0
   21.6607   39.8268   21.9594 H   0  0  0  0  0  0  0  0  0  0  0  0
   18.8352   36.6358   14.6246 H   0  0  0  0  0  0  0  0  0  0  0  0
   18.2461   37.5716   20.0261 H   0  0  0  0  0  0  0  0  0  0  0  0
   22.1764   40.5071   20.6752 H   0  0  0  0  0  0  0  0  0  0  0  0
   16.9213   36.4597   16.2222 H   0  0  0  0  0  0  0  0  0  0  0  0
   18.6484   38.7917   15.1564 H   0  0  0  0  0  0  0  0  0  0  0  0
  1 13  1  0  0  0  0
  2 13  2  0  0  0  0
  3 14  1  0  0  0  0
  4 14  2  0  0  0  0
  5 15  1  0  0  0  0
  6 15  2  0  0  0  0
  7 16  2  0  0  0  0
  8 17  1  0  0  0  0
  9 18  2  0  0  0  0
  9 20  1  0  0  0  0
 10 19  1  0  0  0  0
 10 21  1  0  0  0  0
 11 18  1  0  0  0  0
 11 22  2  0  0  0  0
 12 19  2  0  0  0  0
 12 23  1  0  0  0  0
 13 18  1  0  0  0  0
 14 19  1  0  0  0  0
 15 22  1  0  0  0  0
 16 17  1  0  0  0  0
 16 20  1  0  0  0  0
 17 23  1  0  0  0  0
 20 24  2  0  0  0  0
 21 23  2  0  0  0  0
 21 24  1  0  0  0  0
 22 24  1  0  0  0  0
  1 25  1  0  0  0  0
  3 26  1  0  0  0  0
  5 27  1  0  0  0  0
  8 28  1  0  0  0  0
 10 29  1  0  0  0  0
 11 30  1  0  0  0  0
 12 31  1  0  0  0  0
 17 32  1  0  0  0  0
M  END
> <pdb_id>
4CVC

> <uniprot_id>
Q93RE9

> <usmiles>
O=C(O)c1nc2c(c(c1)C(=O)O)C=3NC(C(=O)O)=CC3[C@H](O)C2=O

$$$$
PQQ_A_504
          07192421143D 1   1.00000     0.00000     0
            
 32 34  0  0  0  0            999 V2000
   17.1759   55.3327   72.7873 O   0  0  0  0  0  0  0  0  0  0  0  0
   18.6088   56.5367   71.6597 O   0  0  0  0  0  0  0  0  0  0  0  0
   18.0420   50.0216   64.2479 O   0  0  0  0  0  0  0  0  0  0  0  0
   17.0881   48.2518   64.8121 O   0  0  0  0  0  0  0  0  0  0  0  0
   20.1231   54.2623   67.1487 O   0  0  0  0  0  0  0  0  0  0  0  0
   18.5353   53.4139   66.1502 O   0  0  0  0  0  0  0  0  0  0  0  0
   15.0099   51.9189   71.4466 O   0  0  0  0  0  0  0  0  0  0  0  0
   14.4939   49.8372   69.8601 O   0  0  0  0  0  0  0  0  0  0  0  0
   16.7821   53.7363   70.8403 N   0  0  0  0  0  0  0  0  0  0  0  0
   17.6217   51.1863   66.6439 N   0  0  0  0  0  0  0  0  0  0  0  0
   18.4251   54.6707   69.4512 C   0  0  0  0  0  0  0  0  0  0  0  0
   16.0945   49.6772   67.2628 C   0  0  0  0  0  0  0  0  0  0  0  0
   17.8293   55.5434   71.7215 C   0  0  0  0  0  0  0  0  0  0  0  0
   17.3834   49.3953   65.1025 C   0  0  0  0  0  0  0  0  0  0  0  0
   18.9814   53.7877   67.2284 C   0  0  0  0  0  0  0  0  0  0  0  0
   15.6898   51.8186   70.2679 C   0  0  0  0  0  0  0  0  0  0  0  0
   15.4320   50.7601   69.4317 C   0  0  0  0  0  0  0  0  0  0  0  0
   17.6973   54.6665   70.6205 C   0  0  0  0  0  0  0  0  0  0  0  0
   17.0245   50.0148   66.2914 C   0  0  0  0  0  0  0  0  0  0  0  0
   16.6467   52.7898   69.8995 C   0  0  0  0  0  0  0  0  0  0  0  0
   17.0609   51.5668   67.8436 C   0  0  0  0  0  0  0  0  0  0  0  0
   18.2576   53.6947   68.4590 C   0  0  0  0  0  0  0  0  0  0  0  0
   16.1255   50.6378   68.2231 C   0  0  0  0  0  0  0  0  0  0  0  0
   17.3483   52.6815   68.6681 C   0  0  0  0  0  0  0  0  0  0  0  0
   16.5563   54.5501   72.8475 H   0  0  0  0  0  0  0  0  0  0  0  0
   18.3178   50.9667   64.4232 H   0  0  0  0  0  0  0  0  0  0  0  0
   20.5833   54.5985   67.9704 H   0  0  0  0  0  0  0  0  0  0  0  0
   15.1892   52.6853   72.0635 H   0  0  0  0  0  0  0  0  0  0  0  0
   14.2707   49.0484   69.2875 H   0  0  0  0  0  0  0  0  0  0  0  0
   18.3287   51.6748   66.1325 H   0  0  0  0  0  0  0  0  0  0  0  0
   19.0974   55.3963   69.3047 H   0  0  0  0  0  0  0  0  0  0  0  0
   15.5051   48.8695   67.2575 H   0  0  0  0  0  0  0  0  0  0  0  0
  1 13  1  0  0  0  0
  2 13  2  0  0  0  0
  3 14  1  0  0  0  0
  4 14  2  0  0  0  0
  5 15  1  0  0  0  0
  6 15  2  0  0  0  0
  7 16  1  0  0  0  0
  8 17  1  0  0  0  0
  9 18  2  0  0  0  0
  9 20  1  0  0  0  0
 10 19  1  0  0  0  0
 10 21  1  0  0  0  0
 11 18  1  0  0  0  0
 11 22  2  0  0  0  0
 12 19  2  0  0  0  0
 12 23  1  0  0  0  0
 13 18  1  0  0  0  0
 14 19  1  0  0  0  0
 15 22  1  0  0  0  0
 16 17  1  0  0  0  0
 16 20  2  0  0  0  0
 17 23  2  0  0  0  0
 20 24  1  0  0  0  0
 21 23  1  0  0  0  0
 21 24  2  0  0  0  0
 22 24  1  0  0  0  0
  1 25  1  0  0  0  0
  3 26  1  0  0  0  0
  5 27  1  0  0  0  0
  7 28  1  0  0  0  0
  8 29  1  0  0  0  0
 10 30  1  0  0  0  0
 11 31  1  0  0  0  0
 12 32  1  0  0  0  0
M  END
> <pdb_id>
1CQ1

> <uniprot_id>
P13650

> <usmiles>
O=C(O)c1nc2c(O)c(O)c3c(NC(C(=O)O)=C3)c2c(c1)C(=O)O

$$$$
PQQ_A_504
          07192421143D 1   1.00000     0.00000     0
            
 32 34  0  0  0  0            999 V2000
   17.2280   55.5030   72.6680 O   0  0  0  0  0  0  0  0  0  0  0  0
   18.6680   56.5350   71.4430 O   0  0  0  0  0  0  0  0  0  0  0  0
   18.0050   50.0790   64.3080 O   0  0  0  0  0  0  0  0  0  0  0  0
   17.0510   48.2220   64.9020 O   0  0  0  0  0  0  0  0  0  0  0  0
   19.9720   54.5820   67.2460 O   0  0  0  0  0  0  0  0  0  0  0  0
   18.8810   53.0960   66.2630 O   0  0  0  0  0  0  0  0  0  0  0  0
   14.9920   51.9500   71.3660 O   0  0  0  0  0  0  0  0  0  0  0  0
   14.3810   49.8750   69.8040 O   0  0  0  0  0  0  0  0  0  0  0  0
   16.6170   53.8330   70.7010 N   0  0  0  0  0  0  0  0  0  0  0  0
   17.4690   51.2140   66.5660 N   0  0  0  0  0  0  0  0  0  0  0  0
   18.3340   54.7160   69.3330 C   0  0  0  0  0  0  0  0  0  0  0  0
   15.8830   49.7240   67.1510 C   0  0  0  0  0  0  0  0  0  0  0  0
   17.7990   55.6340   71.5430 C   0  0  0  0  0  0  0  0  0  0  0  0
   17.3250   49.3900   65.0860 C   0  0  0  0  0  0  0  0  0  0  0  0
   19.0260   53.7740   67.2340 C   0  0  0  0  0  0  0  0  0  0  0  0
   15.1890   52.1260   70.0140 C   0  0  2  0  0  0  0  0  0  0  0  0
   15.2010   50.8460   69.2740 C   0  0  0  0  0  0  0  0  0  0  0  0
   17.5300   54.7520   70.4660 C   0  0  0  0  0  0  0  0  0  0  0  0
   16.8620   50.0380   66.2410 C   0  0  0  0  0  0  0  0  0  0  0  0
   16.4490   52.9060   69.7270 C   0  0  0  0  0  0  0  0  0  0  0  0
   16.8520   51.6230   67.7260 C   0  0  0  0  0  0  0  0  0  0  0  0
   18.1440   53.7200   68.3460 C   0  0  0  0  0  0  0  0  0  0  0  0
   15.9040   50.7020   68.0940 C   0  0  0  0  0  0  0  0  0  0  0  0
   17.1940   52.7490   68.5440 C   0  0  0  0  0  0  0  0  0  0  0  0
   16.5293   54.7989   72.7951 H   0  0  0  0  0  0  0  0  0  0  0  0
   18.1926   51.0375   64.5227 H   0  0  0  0  0  0  0  0  0  0  0  0
   20.1214   55.1651   68.0445 H   0  0  0  0  0  0  0  0  0  0  0  0
   14.9917   52.8402   71.8215 H   0  0  0  0  0  0  0  0  0  0  0  0
   18.2026   51.6784   66.0698 H   0  0  0  0  0  0  0  0  0  0  0  0
   19.0535   55.4003   69.2142 H   0  0  0  0  0  0  0  0  0  0  0  0
   15.2741   48.9312   67.1249 H   0  0  0  0  0  0  0  0  0  0  0  0
   14.4200   52.6635   69.6679 H   0  0  0  0  0  0  0  0  0  0  0  0
  1 13  1  0  0  0  0
  2 13  2  0  0  0  0
  3 14  1  0  0  0  0
  4 14  2  0  0  0  0
  5 15  1  0  0  0  0
  6 15  2  0  0  0  0
  7 16  1  0  0  0  0
  8 17  2  0  0  0  0
  9 18  2  0  0  0  0
  9 20  1  0  0  0  0
 10 19  1  0  0  0  0
 10 21  1  0  0  0  0
 11 18  1  0  0  0  0
 11 22  2  0  0  0  0
 12 19  2  0  0  0  0
 12 23  1  0  0  0  0
 13 18  1  0  0  0  0
 14 19  1  0  0  0  0
 15 22  1  0  0  0  0
 16 17  1  0  0  0  0
 16 20  1  0  0  0  0
 17 23  1  0  0  0  0
 20 24  2  0  0  0  0
 21 23  2  0  0  0  0
 21 24  1  0  0  0  0
 22 24  1  0  0  0  0
  1 25  1  0  0  0  0
  3 26  1  0  0  0  0
  5 27  1  0  0  0  0
  7 28  1  0  0  0  0
 10 29  1  0  0  0  0
 11 30  1  0  0  0  0
 12 31  1  0  0  0  0
 16 32  1  0  0  0  0
M  END
> <pdb_id>
1CRU

> <uniprot_id>
P13650

> <usmiles>
O=C(O)c1nc2c(c(c1)C(=O)O)C=3NC(C(=O)O)=CC3C(=O)[C@H]2O

$$$$
PQQ_A_701
          07192418223D 1   1.00000     0.00000     0
            
 32 34  0  0  0  0            999 V2000
   58.4462    8.8350   20.0968 O   0  0  0  0  0  0  0  0  0  0  0  0
   57.7670    9.0312   22.1924 O   0  0  0  0  0  0  0  0  0  0  0  0
   50.9074    1.9179   21.2998 O   0  0  0  0  0  0  0  0  0  0  0  0
   50.6494    1.2233   19.2014 O   0  0  0  0  0  0  0  0  0  0  0  0
   54.1648    6.0617   23.8380 O   0  0  0  0  0  0  0  0  0  0  0  0
   52.5717    5.4326   22.4494 O   0  0  0  0  0  0  0  0  0  0  0  0
   56.9567    5.5670   17.3330 O   0  0  0  0  0  0  0  0  0  0  0  0
   55.3997    3.4753   16.7025 O   0  0  0  0  0  0  0  0  0  0  0  0
   56.5023    7.0262   19.5119 N   0  0  0  0  0  0  0  0  0  0  0  0
   52.7769    3.9010   20.4261 N   0  0  0  0  0  0  0  0  0  0  0  0
   55.6058    7.2891   21.7249 C   0  0  0  0  0  0  0  0  0  0  0  0
   53.0023    2.7837   18.4988 C   0  0  0  0  0  0  0  0  0  0  0  0
   57.6648    8.5725   21.0342 C   0  0  0  0  0  0  0  0  0  0  0  0
   51.1966    1.9233   20.0870 C   0  0  0  0  0  0  0  0  0  0  0  0
   53.7134    5.8720   22.6879 C   0  0  0  0  0  0  0  0  0  0  0  0
   55.6118    5.5984   17.7765 C   0  0  1  0  0  0  0  0  0  0  0  0
   54.9905    4.1685   17.5962 C   0  0  0  0  0  0  0  0  0  0  0  0
   56.5203    7.6209   20.7255 C   0  0  0  0  0  0  0  0  0  0  0  0
   52.2917    2.8540   19.6681 C   0  0  0  0  0  0  0  0  0  0  0  0
   55.5738    6.0849   19.2774 C   0  0  0  0  0  0  0  0  0  0  0  0
   53.7804    4.4997   19.7720 C   0  0  0  0  0  0  0  0  0  0  0  0
   54.6107    6.2861   21.5112 C   0  0  0  0  0  0  0  0  0  0  0  0
   53.9500    3.8216   18.5550 C   0  0  0  0  0  0  0  0  0  0  0  0
   54.5946    5.6532   20.2251 C   0  0  0  0  0  0  0  0  0  0  0  0
   58.2995    8.4286   19.1949 H   0  0  0  0  0  0  0  0  0  0  0  0
   51.4006    2.5132   21.9341 H   0  0  0  0  0  0  0  0  0  0  0  0
   55.0916    6.4172   23.9590 H   0  0  0  0  0  0  0  0  0  0  0  0
   57.3650    6.4732   17.4425 H   0  0  0  0  0  0  0  0  0  0  0  0
   52.4321    4.1708   21.3252 H   0  0  0  0  0  0  0  0  0  0  0  0
   55.6472    7.7609   22.6057 H   0  0  0  0  0  0  0  0  0  0  0  0
   52.8732    2.1271   17.7557 H   0  0  0  0  0  0  0  0  0  0  0  0
   55.1002    6.2470   17.2130 H   0  0  0  0  0  0  0  0  0  0  0  0
  1 13  1  0  0  0  0
  2 13  2  0  0  0  0
  3 14  1  0  0  0  0
  4 14  2  0  0  0  0
  5 15  1  0  0  0  0
  6 15  2  0  0  0  0
  7 16  1  0  0  0  0
  8 17  2  0  0  0  0
  9 18  2  0  0  0  0
  9 20  1  0  0  0  0
 10 19  1  0  0  0  0
 10 21  1  0  0  0  0
 11 18  1  0  0  0  0
 11 22  2  0  0  0  0
 12 19  2  0  0  0  0
 12 23  1  0  0  0  0
 13 18  1  0  0  0  0
 14 19  1  0  0  0  0
 15 22  1  0  0  0  0
 16 17  1  0  0  0  0
 16 20  1  0  0  0  0
 17 23  1  0  0  0  0
 20 24  2  0  0  0  0
 21 23  2  0  0  0  0
 21 24  1  0  0  0  0
 22 24  1  0  0  0  0
  1 25  1  0  0  0  0
  3 26  1  0  0  0  0
  5 27  1  0  0  0  0
  7 28  1  0  0  0  0
 10 29  1  0  0  0  0
 11 30  1  0  0  0  0
 12 31  1  0  0  0  0
 16 32  1  0  0  0  0
M  END
> <pdb_id>
1G72

> <uniprot_id>
P38539

> <usmiles>
O=C(O)c1nc2c(c(c1)C(=O)O)C=3NC(C(=O)O)=CC3C(=O)[C@@H]2O

$$$$
PQQ_C_703
          07192418223D 1   1.00000     0.00000     0
            
 32 34  0  0  0  0            999 V2000
   58.4760    8.8690   20.2180 O   0  0  0  0  0  0  0  0  0  0  0  0
   57.8370    9.0010   22.3260 O   0  0  0  0  0  0  0  0  0  0  0  0
   51.0110    1.8750   21.3420 O   0  0  0  0  0  0  0  0  0  0  0  0
   50.6130    1.3570   19.2160 O   0  0  0  0  0  0  0  0  0  0  0  0
   54.2080    6.1070   23.9010 O   0  0  0  0  0  0  0  0  0  0  0  0
   52.6210    5.4640   22.5020 O   0  0  0  0  0  0  0  0  0  0  0  0
   56.9110    5.6080   17.3860 O   0  0  0  0  0  0  0  0  0  0  0  0
   55.3850    3.5430   16.6790 O   0  0  0  0  0  0  0  0  0  0  0  0
   56.6240    6.9840   19.6480 N   0  0  0  0  0  0  0  0  0  0  0  0
   52.8160    3.9290   20.4690 N   0  0  0  0  0  0  0  0  0  0  0  0
   55.6610    7.2920   21.8170 C   0  0  0  0  0  0  0  0  0  0  0  0
   53.0290    2.8280   18.5300 C   0  0  0  0  0  0  0  0  0  0  0  0
   57.7090    8.5920   21.1520 C   0  0  0  0  0  0  0  0  0  0  0  0
   51.2270    1.9660   20.1150 C   0  0  0  0  0  0  0  0  0  0  0  0
   53.7640    5.8930   22.7470 C   0  0  0  0  0  0  0  0  0  0  0  0
   55.9400    5.3690   18.0610 C   0  0  0  0  0  0  0  0  0  0  0  0
   55.0540    4.1830   17.6400 C   0  0  0  0  0  0  0  0  0  0  0  0
   56.6060    7.5980   20.8470 C   0  0  0  0  0  0  0  0  0  0  0  0
   52.3120    2.9060   19.6930 C   0  0  0  0  0  0  0  0  0  0  0  0
   55.7000    6.0500   19.3990 C   0  0  0  0  0  0  0  0  0  0  0  0
   53.8420    4.5080   19.8340 C   0  0  0  0  0  0  0  0  0  0  0  0
   54.6630    6.2980   21.5870 C   0  0  0  0  0  0  0  0  0  0  0  0
   54.0090    3.8350   18.6040 C   0  0  0  0  0  0  0  0  0  0  0  0
   54.6800    5.6470   20.3120 C   0  0  0  0  0  0  0  0  0  0  0  0
   58.3045    8.5008   19.3042 H   0  0  0  0  0  0  0  0  0  0  0  0
   51.5598    2.4067   21.9871 H   0  0  0  0  0  0  0  0  0  0  0  0
   55.1384    6.4527   24.0226 H   0  0  0  0  0  0  0  0  0  0  0  0
   57.5118    6.3703   17.6265 H   0  0  0  0  0  0  0  0  0  0  0  0
   54.8303    2.7664   16.3802 H   0  0  0  0  0  0  0  0  0  0  0  0
   52.4683    4.1967   21.3676 H   0  0  0  0  0  0  0  0  0  0  0  0
   55.6799    7.7763   22.6917 H   0  0  0  0  0  0  0  0  0  0  0  0
   52.8853    2.1844   17.7783 H   0  0  0  0  0  0  0  0  0  0  0  0
  1 13  1  0  0  0  0
  2 13  2  0  0  0  0
  3 14  1  0  0  0  0
  4 14  2  0  0  0  0
  5 15  1  0  0  0  0
  6 15  2  0  0  0  0
  7 16  1  0  0  0  0
  8 17  1  0  0  0  0
  9 18  2  0  0  0  0
  9 20  1  0  0  0  0
 10 19  1  0  0  0  0
 10 21  1  0  0  0  0
 11 18  1  0  0  0  0
 11 22  2  0  0  0  0
 12 19  2  0  0  0  0
 12 23  1  0  0  0  0
 13 18  1  0  0  0  0
 14 19  1  0  0  0  0
 15 22  1  0  0  0  0
 16 17  1  0  0  0  0
 16 20  2  0  0  0  0
 17 23  2  0  0  0  0
 20 24  1  0  0  0  0
 21 23  1  0  0  0  0
 21 24  2  0  0  0  0
 22 24  1  0  0  0  0
  1 25  1  0  0  0  0
  3 26  1  0  0  0  0
  5 27  1  0  0  0  0
  7 28  1  0  0  0  0
  8 29  1  0  0  0  0
 10 30  1  0  0  0  0
 11 31  1  0  0  0  0
 12 32  1  0  0  0  0
M  END
> <pdb_id>
2AD8

> <uniprot_id>
P38539

> <usmiles>
O=C(O)c1nc2c(O)c(O)c3c(NC(C(=O)O)=C3)c2c(c1)C(=O)O

$$$$
PR2_A_401
          07192422073D 1   1.00000     0.00000     0
            
 46 50  0  0  0  0            999 V2000
   35.7276   34.1827   17.7570 S   0  0  0  0  0  0  0  0  0  0  0  0
   32.7837   33.8979   17.0725 S   0  0  0  0  0  0  0  0  0  0  0  0
   31.4869   34.2242   17.5776 O   0  0  0  0  0  0  0  0  0  0  0  0
   33.1435   34.2265   15.7203 O   0  0  0  0  0  0  0  0  0  0  0  0
   32.9062   30.7552   14.5581 O   0  0  0  0  0  0  0  0  0  0  0  0
   32.6700   32.2679   17.0931 N   0  0  0  0  0  0  0  0  0  0  0  0
   39.1458   28.1216   12.0578 N   0  0  0  0  0  0  0  0  0  0  0  0
   35.2387   35.4500   21.3766 N   0  0  0  0  0  0  0  0  0  0  0  0
   35.7164   28.5941   13.4561 N   0  0  0  0  0  0  0  0  0  0  0  0
   34.0325   29.3034   15.9517 N   0  0  0  0  0  0  0  0  0  0  0  0
   39.6197   27.2055   12.9595 C   0  0  0  0  0  0  0  0  0  0  0  0
   36.4961   35.6283   21.9028 C   0  0  0  0  0  0  0  0  0  0  0  0
   37.9021   28.6626   12.0884 C   0  0  0  0  0  0  0  0  0  0  0  0
   34.7015   29.3106   17.2501 C   0  0  0  0  0  0  0  0  0  0  0  0
   37.6792   35.3611   21.1396 C   0  0  0  0  0  0  0  0  0  0  0  0
   33.9943   28.0644   15.1723 C   0  0  0  0  0  0  0  0  0  0  0  0
   38.7904   26.7492   14.0278 C   0  0  0  0  0  0  0  0  0  0  0  0
   37.5199   34.8904   19.7943 C   0  0  0  0  0  0  0  0  0  0  0  0
   34.2236   30.5884   17.8941 C   0  0  0  0  0  0  0  0  0  0  0  0
   33.8136   34.7962   19.4555 C   0  0  0  0  0  0  0  0  0  0  0  0
   36.4135   27.0695   15.0061 C   0  0  0  0  0  0  0  0  0  0  0  0
   34.0651   34.3333   18.1340 C   0  0  0  0  0  0  0  0  0  0  0  0
   36.2079   34.7137   19.2761 C   0  0  0  0  0  0  0  0  0  0  0  0
   33.5097   30.4998   15.5941 C   0  0  0  0  0  0  0  0  0  0  0  0
   35.3681   27.8989   14.5548 C   0  0  0  0  0  0  0  0  0  0  0  0
   33.8266   31.4703   16.7070 C   0  0  1  0  0  0  0  0  0  0  0  0
   37.0120   28.2595   13.1280 C   0  0  0  0  0  0  0  0  0  0  0  0
   35.0881   34.9949   20.0635 C   0  0  0  0  0  0  0  0  0  0  0  0
   37.4715   27.2868   14.1090 C   0  0  0  0  0  0  0  0  0  0  0  0
   31.9241   32.0191   16.4753 H   0  0  0  0  0  0  0  0  0  0  0  0
   35.1352   29.2417   12.9632 H   0  0  0  0  0  0  0  0  0  0  0  0
   40.5517   26.8545   12.8687 H   0  0  0  0  0  0  0  0  0  0  0  0
   36.5877   35.9533   22.8440 H   0  0  0  0  0  0  0  0  0  0  0  0
   37.6160   29.3280   11.3988 H   0  0  0  0  0  0  0  0  0  0  0  0
   35.6953   29.3179   17.1388 H   0  0  0  0  0  0  0  0  0  0  0  0
   34.4328   28.5155   17.7938 H   0  0  0  0  0  0  0  0  0  0  0  0
   38.5881   35.4987   21.5330 H   0  0  0  0  0  0  0  0  0  0  0  0
   33.2995   28.1287   14.4560 H   0  0  0  0  0  0  0  0  0  0  0  0
   33.7880   27.2882   15.7681 H   0  0  0  0  0  0  0  0  0  0  0  0
   39.1207   26.0794   14.6928 H   0  0  0  0  0  0  0  0  0  0  0  0
   38.3199   34.6895   19.2291 H   0  0  0  0  0  0  0  0  0  0  0  0
   34.9555   31.0148   18.4255 H   0  0  0  0  0  0  0  0  0  0  0  0
   33.4377   30.4156   18.4878 H   0  0  0  0  0  0  0  0  0  0  0  0
   32.9193   34.9515   19.8752 H   0  0  0  0  0  0  0  0  0  0  0  0
   36.4041   26.4569   15.7965 H   0  0  0  0  0  0  0  0  0  0  0  0
   34.5872   32.0642   16.4449 H   0  0  0  0  0  0  0  0  0  0  0  0
  1 22  1  0  0  0  0
  1 23  1  0  0  0  0
  2  3  2  0  0  0  0
  2  4  2  0  0  0  0
  2  6  1  0  0  0  0
  2 22  1  0  0  0  0
  5 24  2  0  0  0  0
  6 26  1  0  0  0  0
  7 11  2  0  0  0  0
  7 13  1  0  0  0  0
  8 12  2  0  0  0  0
  8 28  1  0  0  0  0
  9 25  1  0  0  0  0
  9 27  1  0  0  0  0
 10 14  1  0  0  0  0
 10 16  1  0  0  0  0
 10 24  1  0  0  0  0
 11 17  1  0  0  0  0
 12 15  1  0  0  0  0
 13 27  2  0  0  0  0
 14 19  1  0  0  0  0
 15 18  2  0  0  0  0
 16 25  1  0  0  0  0
 17 29  2  0  0  0  0
 18 23  1  0  0  0  0
 19 26  1  0  0  0  0
 20 22  2  0  0  0  0
 20 28  1  0  0  0  0
 21 25  2  0  0  0  0
 21 29  1  0  0  0  0
 23 28  2  0  0  0  0
 24 26  1  0  0  0  0
 27 29  1  0  0  0  0
  6 30  1  0  0  0  0
  9 31  1  0  0  0  0
 11 32  1  0  0  0  0
 12 33  1  0  0  0  0
 13 34  1  0  0  0  0
 14 35  1  0  0  0  0
 14 36  1  0  0  0  0
 15 37  1  0  0  0  0
 16 38  1  0  0  0  0
 16 39  1  0  0  0  0
 17 40  1  0  0  0  0
 18 41  1  0  0  0  0
 19 42  1  0  0  0  0
 19 43  1  0  0  0  0
 20 44  1  0  0  0  0
 21 45  1  0  0  0  0
 26 46  1  0  0  0  0
M  END
> <pdb_id>
1F0S

> <uniprot_id>
P00742

> <usmiles>
S(=O)(=O)(N[C@@H]1C(=O)N(CC=2Nc3c(ccnc3)C2)CC1)C=4Sc5c(nccc5)C4

$$$$
PRZ_A_300
          07202408203D 1   1.00000     0.00000     0
            
 26 26  0  0  0  0            999 V2000
   51.4490   24.1800   39.5540 O   0  0  0  0  0  0  0  0  0  0  0  0
   52.4990   22.8350   41.1810 N   0  0  0  0  0  0  0  0  0  0  0  0
   50.2220   22.7330   42.6440 N   0  0  0  0  0  0  0  0  0  0  0  0
   52.6300   24.2120   38.7450 C   0  0  0  0  0  0  0  0  0  0  0  0
   48.6560   26.0310   42.5680 C   0  0  0  0  0  0  0  0  0  0  0  0
   47.6780   26.0350   40.2720 C   0  0  0  0  0  0  0  0  0  0  0  0
   52.4750   22.1470   42.3280 C   0  0  0  0  0  0  0  0  0  0  0  0
   51.3130   22.1010   43.0850 C   0  0  0  0  0  0  0  0  0  0  0  0
   48.9370   24.0740   41.0140 C   0  0  0  0  0  0  0  0  0  0  0  0
   51.3990   23.4670   40.7230 C   0  0  0  0  0  0  0  0  0  0  0  0
   48.8530   25.5790   41.1280 C   0  0  0  0  0  0  0  0  0  0  0  0
   50.2270   23.4220   41.4790 C   0  0  0  0  0  0  0  0  0  0  0  0
   52.4672   24.7824   37.9399 H   0  0  0  0  0  0  0  0  0  0  0  0
   53.3873   24.5927   39.2756 H   0  0  0  0  0  0  0  0  0  0  0  0
   52.8603   23.2833   38.4544 H   0  0  0  0  0  0  0  0  0  0  0  0
   49.4314   25.7274   43.1217 H   0  0  0  0  0  0  0  0  0  0  0  0
   48.5947   27.0286   42.5988 H   0  0  0  0  0  0  0  0  0  0  0  0
   47.8125   25.6339   42.9296 H   0  0  0  0  0  0  0  0  0  0  0  0
   47.8162   25.7337   39.3285 H   0  0  0  0  0  0  0  0  0  0  0  0
   46.8322   25.6379   40.6282 H   0  0  0  0  0  0  0  0  0  0  0  0
   47.6144   27.0327   40.2974 H   0  0  0  0  0  0  0  0  0  0  0  0
   53.2944   21.6659   42.6398 H   0  0  0  0  0  0  0  0  0  0  0  0
   51.2926   21.6006   43.9505 H   0  0  0  0  0  0  0  0  0  0  0  0
   48.8079   23.8361   40.0513 H   0  0  0  0  0  0  0  0  0  0  0  0
   48.1906   23.6876   41.5558 H   0  0  0  0  0  0  0  0  0  0  0  0
   49.6952   25.9823   40.7702 H   0  0  0  0  0  0  0  0  0  0  0  0
  1  4  1  0  0  0  0
  1 10  1  0  0  0  0
  2  7  2  0  0  0  0
  2 10  1  0  0  0  0
  3  8  2  0  0  0  0
  3 12  1  0  0  0  0
  5 11  1  0  0  0  0
  6 11  1  0  0  0  0
  7  8  1  0  0  0  0
  9 11  1  0  0  0  0
  9 12  1  0  0  0  0
 10 12  2  0  0  0  0
  4 13  1  0  0  0  0
  4 14  1  0  0  0  0
  4 15  1  0  0  0  0
  5 16  1  0  0  0  0
  5 17  1  0  0  0  0
  5 18  1  0  0  0  0
  6 19  1  0  0  0  0
  6 20  1  0  0  0  0
  6 21  1  0  0  0  0
  7 22  1  0  0  0  0
  8 23  1  0  0  0  0
  9 24  1  0  0  0  0
  9 25  1  0  0  0  0
 11 26  1  0  0  0  0
M  END
> <pdb_id>
2NND

> <uniprot_id>
P11589

> <usmiles>
O(c1nccnc1CC(C)C)C

$$$$
PT6_B_1260
          07202415153D 1   1.00000     0.00000     0
            
 44 46  0  0  0  0            999 V2000
  110.3926   70.3435   33.4440 S   0  0  0  0  0  0  0  0  0  0  0  0
  112.2072   64.6889   35.2408 O   0  0  0  0  0  0  0  0  0  0  0  0
  109.4606   67.5322   32.6325 O   0  0  0  0  0  0  0  0  0  0  0  0
  110.9527   65.6855   42.1064 N   0  0  0  0  0  0  0  0  0  0  0  0
  110.1171   65.2406   35.9705 N   0  0  0  0  0  0  0  0  0  0  0  0
  110.3612   63.6831   40.0922 C   0  0  0  0  0  0  0  0  0  0  0  0
  111.4083   71.7316   33.5879 C   0  0  0  0  0  0  0  0  0  0  0  0
  110.5100   67.7541   31.6497 C   0  0  0  0  0  0  0  0  0  0  0  0
  108.9262   65.9046   35.7908 C   0  0  0  0  0  0  0  0  0  0  0  0
  110.4048   64.5828   37.2655 C   0  0  0  0  0  0  0  0  0  0  0  0
  111.9129   72.1239   32.3969 C   0  0  0  0  0  0  0  0  0  0  0  0
  111.2800   67.7758   39.1069 C   0  0  0  0  0  0  0  0  0  0  0  0
  110.1525   69.0658   30.9744 C   0  0  0  0  0  0  0  0  0  0  0  0
  108.6694   66.6612   34.7044 C   0  0  0  0  0  0  0  0  0  0  0  0
  111.5014   71.2829   31.3212 C   0  0  0  0  0  0  0  0  0  0  0  0
  111.2895   67.3696   40.4314 C   0  0  0  0  0  0  0  0  0  0  0  0
  110.9877   66.8715   38.0972 C   0  0  0  0  0  0  0  0  0  0  0  0
  110.8615   66.0062   33.8319 C   0  0  0  0  0  0  0  0  0  0  0  0
  111.1277   65.2409   34.9998 C   0  0  0  0  0  0  0  0  0  0  0  0
  110.6830   70.2369   31.7593 C   0  0  0  0  0  0  0  0  0  0  0  0
  109.7160   66.7247   33.6980 C   0  0  0  0  0  0  0  0  0  0  0  0
  110.9614   66.0559   40.7855 C   0  0  0  0  0  0  0  0  0  0  0  0
  110.6338   65.1274   39.7372 C   0  0  0  0  0  0  0  0  0  0  0  0
  110.6677   65.5506   38.3990 C   0  0  0  0  0  0  0  0  0  0  0  0
  110.7185   64.7472   42.3610 H   0  0  0  0  0  0  0  0  0  0  0  0
  111.1805   66.3537   42.8147 H   0  0  0  0  0  0  0  0  0  0  0  0
  110.1499   63.1696   39.2606 H   0  0  0  0  0  0  0  0  0  0  0  0
  111.1690   63.2895   40.5308 H   0  0  0  0  0  0  0  0  0  0  0  0
  109.5843   63.6351   40.7200 H   0  0  0  0  0  0  0  0  0  0  0  0
  111.6015   72.1930   34.4538 H   0  0  0  0  0  0  0  0  0  0  0  0
  110.5282   67.0097   30.9822 H   0  0  0  0  0  0  0  0  0  0  0  0
  111.4014   67.8220   32.0978 H   0  0  0  0  0  0  0  0  0  0  0  0
  108.2211   65.8230   36.4953 H   0  0  0  0  0  0  0  0  0  0  0  0
  111.2121   64.0036   37.1522 H   0  0  0  0  0  0  0  0  0  0  0  0
  109.6192   64.0151   37.5118 H   0  0  0  0  0  0  0  0  0  0  0  0
  112.5101   72.9178   32.2824 H   0  0  0  0  0  0  0  0  0  0  0  0
  111.4853   68.7272   38.8776 H   0  0  0  0  0  0  0  0  0  0  0  0
  109.1574   69.1396   30.9086 H   0  0  0  0  0  0  0  0  0  0  0  0
  110.5492   69.0802   30.0565 H   0  0  0  0  0  0  0  0  0  0  0  0
  107.8050   67.1524   34.5970 H   0  0  0  0  0  0  0  0  0  0  0  0
  111.7665   71.4242   30.3673 H   0  0  0  0  0  0  0  0  0  0  0  0
  111.5345   68.0253   41.1456 H   0  0  0  0  0  0  0  0  0  0  0  0
  111.0070   67.1710   37.1433 H   0  0  0  0  0  0  0  0  0  0  0  0
  111.5333   66.0160   33.0912 H   0  0  0  0  0  0  0  0  0  0  0  0
  1  7  1  0  0  0  0
  1 20  1  0  0  0  0
  2 19  2  0  0  0  0
  3  8  1  0  0  0  0
  3 21  1  0  0  0  0
  4 22  1  0  0  0  0
  5  9  1  0  0  0  0
  5 10  1  0  0  0  0
  5 19  1  0  0  0  0
  6 23  1  0  0  0  0
  7 11  2  0  0  0  0
  8 13  1  0  0  0  0
  9 14  2  0  0  0  0
 10 24  1  0  0  0  0
 11 15  1  0  0  0  0
 12 16  1  0  0  0  0
 12 17  2  0  0  0  0
 13 20  1  0  0  0  0
 14 21  1  0  0  0  0
 15 20  2  0  0  0  0
 16 22  2  0  0  0  0
 17 24  1  0  0  0  0
 18 19  1  0  0  0  0
 18 21  2  0  0  0  0
 22 23  1  0  0  0  0
 23 24  2  0  0  0  0
  4 25  1  0  0  0  0
  4 26  1  0  0  0  0
  6 27  1  0  0  0  0
  6 28  1  0  0  0  0
  6 29  1  0  0  0  0
  7 30  1  0  0  0  0
  8 31  1  0  0  0  0
  8 32  1  0  0  0  0
  9 33  1  0  0  0  0
 10 34  1  0  0  0  0
 10 35  1  0  0  0  0
 11 36  1  0  0  0  0
 12 37  1  0  0  0  0
 13 38  1  0  0  0  0
 13 39  1  0  0  0  0
 14 40  1  0  0  0  0
 15 41  1  0  0  0  0
 16 42  1  0  0  0  0
 17 43  1  0  0  0  0
 18 44  1  0  0  0  0
M  END
> <pdb_id>
4CV1

> <uniprot_id>
Q7A6D8

> <usmiles>
S1C(=CC=C1)CCOC2=CC(=O)N(C=C2)Cc3c(c(N)ccc3)C

$$$$
PTU_A_810
          07192423083D 1   1.00000     0.00000     0
            
 24 24  0  0  0  0            999 V2000
    6.7437   10.7117   30.4982 S   0  0  0  0  0  0  0  0  0  0  0  0
    4.7716   12.0680   32.0199 N   0  0  0  0  0  0  0  0  0  0  0  0
    7.0696   12.6397   32.4914 N   0  0  0  0  0  0  0  0  0  0  0  0
    9.0879   10.4056   29.1361 C   0  0  0  0  0  0  0  0  0  0  0  0
    8.0209   11.4453   29.4463 C   0  0  0  0  0  0  0  0  0  0  0  0
   11.1422   12.7469   33.5576 C   0  0  0  0  0  0  0  0  0  0  0  0
   10.3662   13.9239   33.5189 C   0  0  0  0  0  0  0  0  0  0  0  0
   10.5638   11.4979   33.2239 C   0  0  0  0  0  0  0  0  0  0  0  0
    8.9988   13.8598   33.1585 C   0  0  0  0  0  0  0  0  0  0  0  0
    9.1964   11.4278   32.8616 C   0  0  0  0  0  0  0  0  0  0  0  0
    6.2183   11.8933   31.7537 C   0  0  0  0  0  0  0  0  0  0  0  0
    8.3873   12.6186   32.8219 C   0  0  0  0  0  0  0  0  0  0  0  0
    4.4660   12.7201   32.7138 H   0  0  0  0  0  0  0  0  0  0  0  0
    4.1005   11.5338   31.5058 H   0  0  0  0  0  0  0  0  0  0  0  0
    9.7920   10.8137   28.5550 H   0  0  0  0  0  0  0  0  0  0  0  0
    9.5023   10.0885   29.9892 H   0  0  0  0  0  0  0  0  0  0  0  0
    8.6706    9.6313   28.6603 H   0  0  0  0  0  0  0  0  0  0  0  0
    8.4391   12.2194   29.9217 H   0  0  0  0  0  0  0  0  0  0  0  0
    7.6073   11.7623   28.5928 H   0  0  0  0  0  0  0  0  0  0  0  0
   12.1055   12.7945   33.8218 H   0  0  0  0  0  0  0  0  0  0  0  0
   10.7823   14.8043   33.7462 H   0  0  0  0  0  0  0  0  0  0  0  0
   11.1199   10.6670   33.2442 H   0  0  0  0  0  0  0  0  0  0  0  0
    8.4542   14.6983   33.1402 H   0  0  0  0  0  0  0  0  0  0  0  0
    8.7892   10.5439   32.6314 H   0  0  0  0  0  0  0  0  0  0  0  0
  1  5  1  0  0  0  0
  1 11  1  0  0  0  0
  2 11  1  0  0  0  0
  3 11  2  0  0  0  0
  3 12  1  0  0  0  0
  4  5  1  0  0  0  0
  6  7  2  0  0  0  0
  6  8  1  0  0  0  0
  7  9  1  0  0  0  0
  8 10  2  0  0  0  0
  9 12  2  0  0  0  0
 10 12  1  0  0  0  0
  2 13  1  0  0  0  0
  2 14  1  0  0  0  0
  4 15  1  0  0  0  0
  4 16  1  0  0  0  0
  4 17  1  0  0  0  0
  5 18  1  0  0  0  0
  5 19  1  0  0  0  0
  6 20  1  0  0  0  0
  7 21  1  0  0  0  0
  8 22  1  0  0  0  0
  9 23  1  0  0  0  0
 10 24  1  0  0  0  0
M  END
> <pdb_id>
1D1V

> <uniprot_id>
P29473

> <usmiles>
S(C(=Nc1ccccc1)N)CC

$$$$
PVP_A_404
          07202406453D 1   1.00000     0.00000     0
            
 43 45  0  0  0  0            999 V2000
   19.6793   -3.9405   17.1211 Cl  0  0  0  0  0  0  0  0  0  0  0  0
   20.6324  -10.7133   21.0524 O   0  0  0  0  0  0  0  0  0  0  0  0
   22.5136   -6.0736   11.5328 N   0  0  0  0  0  0  0  0  0  0  0  0
   21.7077   -6.6345   14.9860 N   0  0  0  0  0  0  0  0  0  0  0  0
   21.0037   -4.9097   13.5405 N   0  0  0  0  0  0  0  0  0  0  0  0
   21.2087   -7.9137   19.7043 N   0  0  0  0  0  0  0  0  0  0  0  0
   21.3509   -6.6907   17.2477 N   0  0  0  0  0  0  0  0  0  0  0  0
   19.7005   -2.9861   14.2097 C   0  0  0  0  0  0  0  0  0  0  0  0
   20.2513   -9.3621   21.3638 C   0  0  0  0  0  0  0  0  0  0  0  0
   23.1661   -6.6708   10.5257 C   0  0  0  0  0  0  0  0  0  0  0  0
   21.3906   -8.3832   21.0789 C   0  0  0  0  0  0  0  0  0  0  0  0
   21.5402   -8.8107   18.5879 C   0  0  0  0  0  0  0  0  0  0  0  0
   20.7007   -6.5605   19.5163 C   0  0  0  0  0  0  0  0  0  0  0  0
   21.4948   -8.1449   17.2057 C   0  0  0  0  0  0  0  0  0  0  0  0
   21.5963   -5.9125   18.4729 C   0  0  0  0  0  0  0  0  0  0  0  0
   23.5484   -8.0123   10.6003 C   0  0  0  0  0  0  0  0  0  0  0  0
   23.2906   -8.7440   11.7438 C   0  0  0  0  0  0  0  0  0  0  0  0
   22.6743   -8.1052   12.8053 C   0  0  0  0  0  0  0  0  0  0  0  0
   21.6216   -6.0933   13.7662 C   0  0  0  0  0  0  0  0  0  0  0  0
   20.4736   -4.8213   15.8068 C   0  0  0  0  0  0  0  0  0  0  0  0
   21.1445   -6.0298   16.0305 C   0  0  0  0  0  0  0  0  0  0  0  0
   20.3831   -4.2836   14.5301 C   0  0  0  0  0  0  0  0  0  0  0  0
   22.2857   -6.7793   12.6659 C   0  0  0  0  0  0  0  0  0  0  0  0
   19.8689  -11.3285   21.2486 H   0  0  0  0  0  0  0  0  0  0  0  0
   19.2744   -2.6203   15.0371 H   0  0  0  0  0  0  0  0  0  0  0  0
   20.3733   -2.3320   13.8641 H   0  0  0  0  0  0  0  0  0  0  0  0
   18.9988   -3.1414   13.5143 H   0  0  0  0  0  0  0  0  0  0  0  0
   20.0093   -9.3070   22.3325 H   0  0  0  0  0  0  0  0  0  0  0  0
   19.4593   -9.1107   20.8074 H   0  0  0  0  0  0  0  0  0  0  0  0
   23.3838   -6.1449    9.7035 H   0  0  0  0  0  0  0  0  0  0  0  0
   21.3496   -7.6124   21.7145 H   0  0  0  0  0  0  0  0  0  0  0  0
   22.2728   -8.8450   21.1713 H   0  0  0  0  0  0  0  0  0  0  0  0
   20.8882   -9.5689   18.5916 H   0  0  0  0  0  0  0  0  0  0  0  0
   22.4639   -9.1646   18.7346 H   0  0  0  0  0  0  0  0  0  0  0  0
   20.7449   -6.0511   20.3757 H   0  0  0  0  0  0  0  0  0  0  0  0
   19.7548   -6.5872   19.1929 H   0  0  0  0  0  0  0  0  0  0  0  0
   22.3438   -8.3626   16.7243 H   0  0  0  0  0  0  0  0  0  0  0  0
   20.7188   -8.5227   16.7006 H   0  0  0  0  0  0  0  0  0  0  0  0
   21.3473   -4.9533   18.3390 H   0  0  0  0  0  0  0  0  0  0  0  0
   22.5569   -5.9727   18.7442 H   0  0  0  0  0  0  0  0  0  0  0  0
   24.0094   -8.4439    9.8249 H   0  0  0  0  0  0  0  0  0  0  0  0
   23.5427   -9.7099   11.8026 H   0  0  0  0  0  0  0  0  0  0  0  0
   22.5107   -8.5927   13.6630 H   0  0  0  0  0  0  0  0  0  0  0  0
  1 20  1  0  0  0  0
  2  9  1  0  0  0  0
  3 10  2  0  0  0  0
  3 23  1  0  0  0  0
  4 19  2  0  0  0  0
  4 21  1  0  0  0  0
  5 19  1  0  0  0  0
  5 22  2  0  0  0  0
  6 11  1  0  0  0  0
  6 12  1  0  0  0  0
  6 13  1  0  0  0  0
  7 14  1  0  0  0  0
  7 15  1  0  0  0  0
  7 21  1  0  0  0  0
  8 22  1  0  0  0  0
  9 11  1  0  0  0  0
 10 16  1  0  0  0  0
 12 14  1  0  0  0  0
 13 15  1  0  0  0  0
 16 17  2  0  0  0  0
 17 18  1  0  0  0  0
 18 23  2  0  0  0  0
 19 23  1  0  0  0  0
 20 21  2  0  0  0  0
 20 22  1  0  0  0  0
  2 24  1  0  0  0  0
  8 25  1  0  0  0  0
  8 26  1  0  0  0  0
  8 27  1  0  0  0  0
  9 28  1  0  0  0  0
  9 29  1  0  0  0  0
 10 30  1  0  0  0  0
 11 31  1  0  0  0  0
 11 32  1  0  0  0  0
 12 33  1  0  0  0  0
 12 34  1  0  0  0  0
 13 35  1  0  0  0  0
 13 36  1  0  0  0  0
 14 37  1  0  0  0  0
 14 38  1  0  0  0  0
 15 39  1  0  0  0  0
 15 40  1  0  0  0  0
 16 41  1  0  0  0  0
 17 42  1  0  0  0  0
 18 43  1  0  0  0  0
M  END
> <pdb_id>
4IKR

> <uniprot_id>
P53582

> <usmiles>
Clc1c(nc(nc1C)c2ncccc2)N3CCN(CCO)CC3

$$$$
PW1_B_1721
          07192422303D 1   1.00000     0.00000     0
            
 29 30  0  0  0  0            999 V2000
    5.1530   17.9000  -39.8186 F   0  0  0  0  0  0  0  0  0  0  0  0
    4.1506   13.4000  -40.7216 F   0  0  0  0  0  0  0  0  0  0  0  0
    6.0132   15.3372  -40.0638 O   0  0  0  0  0  0  0  0  0  0  0  0
    1.5989   13.2821  -42.4441 N   0  3  0  0  0  0  0  0  0  0  0  0
    7.5313   13.6119  -36.6141 C   0  0  0  0  0  0  0  0  0  0  0  0
    6.2109   13.9990  -36.6064 C   0  0  0  0  0  0  0  0  0  0  0  0
    8.3029   13.8010  -37.7391 C   0  0  0  0  0  0  0  0  0  0  0  0
    5.6526   14.5783  -37.7253 C   0  0  0  0  0  0  0  0  0  0  0  0
    7.7511   14.3794  -38.8627 C   0  0  0  0  0  0  0  0  0  0  0  0
    2.9407   17.2968  -40.3307 C   0  0  0  0  0  0  0  0  0  0  0  0
    2.0175   16.3257  -40.6582 C   0  0  0  0  0  0  0  0  0  0  0  0
    1.3547   13.9672  -41.1565 C   0  0  0  0  0  0  0  0  0  0  0  0
    6.4259   14.7697  -38.8604 C   0  0  0  0  0  0  0  0  0  0  0  0
    4.2481   16.9460  -40.1399 C   0  0  0  0  0  0  0  0  0  0  0  0
    3.7397   14.6756  -40.5965 C   0  0  0  0  0  0  0  0  0  0  0  0
    4.6772   15.6447  -40.2663 C   0  0  0  0  0  0  0  0  0  0  0  0
    2.4062   14.9964  -40.7954 C   0  0  0  0  0  0  0  0  0  0  0  0
    0.9608   12.6387  -42.5874 H   0  0  0  0  0  0  0  0  0  0  0  0
    2.4093   12.8883  -42.4305 H   0  0  0  0  0  0  0  0  0  0  0  0
    1.5687   13.8823  -43.1293 H   0  0  0  0  0  0  0  0  0  0  0  0
    7.9107   13.2148  -35.8447 H   0  0  0  0  0  0  0  0  0  0  0  0
    5.6862   13.8670  -35.8332 H   0  0  0  0  0  0  0  0  0  0  0  0
    9.2092   13.5338  -37.7408 H   0  0  0  0  0  0  0  0  0  0  0  0
    4.7462   14.8433  -37.7196 H   0  0  0  0  0  0  0  0  0  0  0  0
    8.2794   14.5099  -39.6347 H   0  0  0  0  0  0  0  0  0  0  0  0
    2.6757   18.1930  -40.2382 H   0  0  0  0  0  0  0  0  0  0  0  0
    1.1130   16.5647  -40.7897 H   0  0  0  0  0  0  0  0  0  0  0  0
    0.4813   14.4018  -41.2053 H   0  0  0  0  0  0  0  0  0  0  0  0
    1.3128   13.2889  -40.4526 H   0  0  0  0  0  0  0  0  0  0  0  0
  1 14  1  0  0  0  0
  2 15  1  0  0  0  0
  3 13  1  0  0  0  0
  3 16  1  0  0  0  0
  4 12  1  0  0  0  0
  4 18  1  0  0  0  0
  4 19  1  0  0  0  0
  4 20  1  0  0  0  0
  5  6  2  0  0  0  0
  5  7  1  0  0  0  0
  5 21  1  0  0  0  0
  6  8  1  0  0  0  0
  6 22  1  0  0  0  0
  7  9  2  0  0  0  0
  7 23  1  0  0  0  0
  8 13  2  0  0  0  0
  8 24  1  0  0  0  0
  9 13  1  0  0  0  0
  9 25  1  0  0  0  0
 10 11  2  0  0  0  0
 10 14  1  0  0  0  0
 10 26  1  0  0  0  0
 11 17  1  0  0  0  0
 11 27  1  0  0  0  0
 12 17  1  0  0  0  0
 12 28  1  0  0  0  0
 12 29  1  0  0  0  0
 14 16  2  0  0  0  0
 15 16  1  0  0  0  0
 15 17  2  0  0  0  0
M  CHG  1   4   1
M  END
> <pdb_id>
4B76

> <uniprot_id>
P26663

> <usmiles>
Fc1c(Oc2ccccc2)c(F)ccc1C[NH3+]

$$$$
PXJ_A_500
          07192420423D 1   1.00000     0.00000     0
            
 52 53  0  0  0  0            999 V2000
   21.8180   39.8703   35.4985 O   0  0  0  0  0  0  0  0  0  0  0  0
   24.7513   37.2293   26.9816 O   0  0  0  0  0  0  0  0  0  0  0  0
   20.3477   35.3251   31.9532 O   0  0  0  0  0  0  0  0  0  0  0  0
   19.6479   35.0552   29.2808 O   0  0  0  0  0  0  0  0  0  0  0  0
   20.5548   37.8551   32.0992 O   0  0  0  0  0  0  0  0  0  0  0  0
   21.4599   36.9730   29.5393 O   0  0  0  0  0  0  0  0  0  0  0  0
   21.4748   39.9219   33.2974 N   0  0  0  0  0  0  0  0  0  0  0  0
   23.8269   38.0662   28.7963 N   0  0  0  0  0  0  0  0  0  0  0  0
   21.6065   41.3567   33.2076 C   0  0  0  0  0  0  0  0  0  0  0  0
   24.7876   39.1436   28.9080 C   0  0  0  0  0  0  0  0  0  0  0  0
   22.1099   41.9131   31.8891 C   0  0  0  0  0  0  0  0  0  0  0  0
   24.5253   39.8805   30.1926 C   0  0  0  0  0  0  0  0  0  0  0  0
   22.3497   40.8644   30.8183 C   0  0  0  0  0  0  0  0  0  0  0  0
   23.6128   41.0648   30.0102 C   0  0  0  0  0  0  0  0  0  0  0  0
   21.4180   35.6383   35.4789 C   0  0  0  0  0  0  0  0  0  0  0  0
   22.0184   34.0828   26.6361 C   0  0  0  0  0  0  0  0  0  0  0  0
   20.9988   35.0582   34.2844 C   0  0  0  0  0  0  0  0  0  0  0  0
   20.9026   34.0614   27.4910 C   0  0  0  0  0  0  0  0  0  0  0  0
   21.5759   37.0245   35.5482 C   0  0  0  0  0  0  0  0  0  0  0  0
   22.9718   35.0838   26.7712 C   0  0  0  0  0  0  0  0  0  0  0  0
   21.5085   39.2884   34.4726 C   0  0  0  0  0  0  0  0  0  0  0  0
   23.8715   37.1638   27.8225 C   0  0  0  0  0  0  0  0  0  0  0  0
   20.7353   35.8389   33.1534 C   0  0  0  0  0  0  0  0  0  0  0  0
   20.7414   35.0459   28.4670 C   0  0  0  0  0  0  0  0  0  0  0  0
   20.8616   37.1842   33.2341 C   0  0  0  0  0  0  0  0  0  0  0  0
   21.6949   36.0397   28.5824 C   0  0  0  0  0  0  0  0  0  0  0  0
   21.2771   37.8071   34.4328 C   0  0  0  0  0  0  0  0  0  0  0  0
   22.8151   36.0738   27.7346 C   0  0  0  0  0  0  0  0  0  0  0  0
   20.1739   35.9357   31.1805 H   0  0  0  0  0  0  0  0  0  0  0  0
   19.5475   35.7678   29.9752 H   0  0  0  0  0  0  0  0  0  0  0  0
   20.6218   38.8525   32.0743 H   0  0  0  0  0  0  0  0  0  0  0  0
   22.1087   37.7212   29.6780 H   0  0  0  0  0  0  0  0  0  0  0  0
   21.3555   39.3895   32.4593 H   0  0  0  0  0  0  0  0  0  0  0  0
   23.1003   37.9986   29.4801 H   0  0  0  0  0  0  0  0  0  0  0  0
   22.2426   41.6480   33.9221 H   0  0  0  0  0  0  0  0  0  0  0  0
   20.7057   41.7551   33.3806 H   0  0  0  0  0  0  0  0  0  0  0  0
   24.6866   39.7681   28.1336 H   0  0  0  0  0  0  0  0  0  0  0  0
   25.7151   38.7699   28.9161 H   0  0  0  0  0  0  0  0  0  0  0  0
   22.9725   42.3895   32.0593 H   0  0  0  0  0  0  0  0  0  0  0  0
   21.4325   42.5630   31.5445 H   0  0  0  0  0  0  0  0  0  0  0  0
   25.3977   40.2029   30.5599 H   0  0  0  0  0  0  0  0  0  0  0  0
   24.1029   39.2488   30.8427 H   0  0  0  0  0  0  0  0  0  0  0  0
   21.5721   40.8775   30.1896 H   0  0  0  0  0  0  0  0  0  0  0  0
   22.4032   39.9707   31.2637 H   0  0  0  0  0  0  0  0  0  0  0  0
   23.3773   41.1571   29.0427 H   0  0  0  0  0  0  0  0  0  0  0  0
   24.0780   41.8938   30.3206 H   0  0  0  0  0  0  0  0  0  0  0  0
   21.6041   35.0682   36.2791 H   0  0  0  0  0  0  0  0  0  0  0  0
   22.1253   33.3797   25.9330 H   0  0  0  0  0  0  0  0  0  0  0  0
   20.8840   34.0661   34.2339 H   0  0  0  0  0  0  0  0  0  0  0  0
   20.2202   33.3363   27.3992 H   0  0  0  0  0  0  0  0  0  0  0  0
   21.9009   37.4528   36.3914 H   0  0  0  0  0  0  0  0  0  0  0  0
   23.7736   35.0924   26.1736 H   0  0  0  0  0  0  0  0  0  0  0  0
  1 21  2  0  0  0  0
  2 22  2  0  0  0  0
  3 23  1  0  0  0  0
  4 24  1  0  0  0  0
  5 25  1  0  0  0  0
  6 26  1  0  0  0  0
  7  9  1  0  0  0  0
  7 21  1  0  0  0  0
  8 10  1  0  0  0  0
  8 22  1  0  0  0  0
  9 11  1  0  0  0  0
 10 12  1  0  0  0  0
 11 13  1  0  0  0  0
 12 14  1  0  0  0  0
 13 14  1  0  0  0  0
 15 17  2  0  0  0  0
 15 19  1  0  0  0  0
 16 18  2  0  0  0  0
 16 20  1  0  0  0  0
 17 23  1  0  0  0  0
 18 24  1  0  0  0  0
 19 27  2  0  0  0  0
 20 28  2  0  0  0  0
 21 27  1  0  0  0  0
 22 28  1  0  0  0  0
 23 25  2  0  0  0  0
 24 26  2  0  0  0  0
 25 27  1  0  0  0  0
 26 28  1  0  0  0  0
  3 29  1  0  0  0  0
  4 30  1  0  0  0  0
  5 31  1  0  0  0  0
  6 32  1  0  0  0  0
  7 33  1  0  0  0  0
  8 34  1  0  0  0  0
  9 35  1  0  0  0  0
  9 36  1  0  0  0  0
 10 37  1  0  0  0  0
 10 38  1  0  0  0  0
 11 39  1  0  0  0  0
 11 40  1  0  0  0  0
 12 41  1  0  0  0  0
 12 42  1  0  0  0  0
 13 43  1  0  0  0  0
 13 44  1  0  0  0  0
 14 45  1  0  0  0  0
 14 46  1  0  0  0  0
 15 47  1  0  0  0  0
 16 48  1  0  0  0  0
 17 49  1  0  0  0  0
 18 50  1  0  0  0  0
 19 51  1  0  0  0  0
 20 52  1  0  0  0  0
M  END
> <pdb_id>
5A5V

> <uniprot_id>
Q0P8Q4

> <usmiles>
O=C(NCCCCCCNC(=O)c1c(O)c(O)ccc1)c2c(O)c(O)ccc2

$$$$
PY9_B_901
          07192420423D 1   1.00000     0.00000     0
            
 41 43  0  0  0  0            999 V2000
   66.2561   33.9561   21.7916 O   0  0  0  0  0  0  0  0  0  0  0  0
   67.0509   32.1621   27.8235 O   0  0  0  0  0  0  0  0  0  0  0  0
   64.3833   34.2193   24.3859 O   0  0  0  0  0  0  0  0  0  0  0  0
   67.1428   35.9926   22.5616 N   0  0  0  0  0  0  0  0  0  0  0  0
   68.8090   37.9511   26.2815 C   0  0  0  0  0  0  0  0  0  0  0  0
   67.0558   36.6370   21.2458 C   0  0  0  0  0  0  0  0  0  0  0  0
   67.5833   38.0562   21.4176 C   0  0  0  0  0  0  0  0  0  0  0  0
   71.9343   36.2918   24.7702 C   0  0  0  0  0  0  0  0  0  0  0  0
   71.4669   35.8187   23.5251 C   0  0  0  0  0  0  0  0  0  0  0  0
   68.1193   32.9115   25.8317 C   0  0  0  0  0  0  0  0  0  0  0  0
   67.4637   38.3154   22.9235 C   0  0  0  0  0  0  0  0  0  0  0  0
   71.0513   36.9806   25.6442 C   0  0  0  0  0  0  0  0  0  0  0  0
   70.1183   36.0307   23.1449 C   0  0  0  0  0  0  0  0  0  0  0  0
   68.0430   33.5268   24.5561 C   0  0  0  0  0  0  0  0  0  0  0  0
   65.6836   33.1921   26.1023 C   0  0  0  0  0  0  0  0  0  0  0  0
   66.7103   34.6418   22.7086 C   0  0  0  0  0  0  0  0  0  0  0  0
   66.9422   32.7496   26.5972 C   0  0  0  0  0  0  0  0  0  0  0  0
   65.6139   33.8109   24.8193 C   0  0  0  0  0  0  0  0  0  0  0  0
   67.7013   36.9438   23.5798 C   0  0  2  0  0  0  0  0  0  0  0  0
   69.6804   37.2089   25.2865 C   0  0  0  0  0  0  0  0  0  0  0  0
   66.7870   33.9839   24.0455 C   0  0  0  0  0  0  0  0  0  0  0  0
   69.1845   36.7262   24.0041 C   0  0  0  0  0  0  0  0  0  0  0  0
   66.2370   32.0329   28.3899 H   0  0  0  0  0  0  0  0  0  0  0  0
   64.2881   34.6580   23.4924 H   0  0  0  0  0  0  0  0  0  0  0  0
   67.8843   38.0423   25.9117 H   0  0  0  0  0  0  0  0  0  0  0  0
   68.7754   37.4409   27.1409 H   0  0  0  0  0  0  0  0  0  0  0  0
   69.1925   38.8595   26.4479 H   0  0  0  0  0  0  0  0  0  0  0  0
   66.1058   36.6577   20.9343 H   0  0  0  0  0  0  0  0  0  0  0  0
   67.6138   36.1400   20.5812 H   0  0  0  0  0  0  0  0  0  0  0  0
   67.0283   38.7071   20.8996 H   0  0  0  0  0  0  0  0  0  0  0  0
   68.5360   38.1200   21.1204 H   0  0  0  0  0  0  0  0  0  0  0  0
   72.8864   36.1422   25.0368 H   0  0  0  0  0  0  0  0  0  0  0  0
   72.0885   35.3332   22.9103 H   0  0  0  0  0  0  0  0  0  0  0  0
   68.9989   32.5949   26.1867 H   0  0  0  0  0  0  0  0  0  0  0  0
   66.5531   38.6611   23.1501 H   0  0  0  0  0  0  0  0  0  0  0  0
   68.1543   38.9735   23.2235 H   0  0  0  0  0  0  0  0  0  0  0  0
   71.3911   37.3122   26.5242 H   0  0  0  0  0  0  0  0  0  0  0  0
   69.8033   35.6904   22.2589 H   0  0  0  0  0  0  0  0  0  0  0  0
   68.8726   33.6418   24.0098 H   0  0  0  0  0  0  0  0  0  0  0  0
   64.8553   33.0702   26.6493 H   0  0  0  0  0  0  0  0  0  0  0  0
   67.1324   36.8895   24.4004 H   0  0  0  0  0  0  0  0  0  0  0  0
  1 16  2  0  0  0  0
  2 17  1  0  0  0  0
  3 18  1  0  0  0  0
  4  6  1  0  0  0  0
  4 16  1  0  0  0  0
  4 19  1  0  0  0  0
  5 20  1  0  0  0  0
  6  7  1  0  0  0  0
  7 11  1  0  0  0  0
  8  9  2  0  0  0  0
  8 12  1  0  0  0  0
  9 13  1  0  0  0  0
 10 14  1  0  0  0  0
 10 17  2  0  0  0  0
 11 19  1  0  0  0  0
 12 20  2  0  0  0  0
 13 22  2  0  0  0  0
 14 21  2  0  0  0  0
 15 17  1  0  0  0  0
 15 18  2  0  0  0  0
 16 21  1  0  0  0  0
 18 21  1  0  0  0  0
 19 22  1  0  0  0  0
 20 22  1  0  0  0  0
  2 23  1  0  0  0  0
  3 24  1  0  0  0  0
  5 25  1  0  0  0  0
  5 26  1  0  0  0  0
  5 27  1  0  0  0  0
  6 28  1  0  0  0  0
  6 29  1  0  0  0  0
  7 30  1  0  0  0  0
  7 31  1  0  0  0  0
  8 32  1  0  0  0  0
  9 33  1  0  0  0  0
 10 34  1  0  0  0  0
 11 35  1  0  0  0  0
 11 36  1  0  0  0  0
 12 37  1  0  0  0  0
 13 38  1  0  0  0  0
 14 39  1  0  0  0  0
 15 40  1  0  0  0  0
 19 41  1  0  0  0  0
M  END
> <pdb_id>
3EKR

> <uniprot_id>
P07900

> <usmiles>
O=C(N1[C@@H](c2c(cccc2)C)CCC1)c3c(O)cc(O)cc3

$$$$
PYU_A_901
          07192420423D 1   1.00000     0.00000     0
            
 25 26  0  0  0  0            999 V2000
   66.3458   34.1671   21.7386 O   0  0  0  0  0  0  0  0  0  0  0  0
   67.1673   32.5099   27.8207 O   0  0  0  0  0  0  0  0  0  0  0  0
   64.4359   34.0154   24.1615 O   0  0  0  0  0  0  0  0  0  0  0  0
   69.2693   34.4425   23.9598 O   0  0  0  0  0  0  0  0  0  0  0  0
   67.0462   36.2306   22.4106 N   0  0  0  0  0  0  0  0  0  0  0  0
   66.9560   36.8566   21.1817 C   0  0  0  0  0  0  0  0  0  0  0  0
   67.4879   37.1866   23.3247 C   0  0  0  0  0  0  0  0  0  0  0  0
   67.3338   38.1720   21.3236 C   0  0  0  0  0  0  0  0  0  0  0  0
   67.6672   38.3772   22.6734 C   0  0  0  0  0  0  0  0  0  0  0  0
   65.7689   33.2580   25.9849 C   0  0  0  0  0  0  0  0  0  0  0  0
   68.2336   33.4627   25.9082 C   0  0  0  0  0  0  0  0  0  0  0  0
   66.7388   34.8718   22.6751 C   0  0  0  0  0  0  0  0  0  0  0  0
   67.0477   33.0690   26.5821 C   0  0  0  0  0  0  0  0  0  0  0  0
   65.6811   33.8503   24.6986 C   0  0  0  0  0  0  0  0  0  0  0  0
   68.1328   34.0538   24.6200 C   0  0  0  0  0  0  0  0  0  0  0  0
   66.8525   34.2500   24.0125 C   0  0  0  0  0  0  0  0  0  0  0  0
   68.0722   32.3836   28.2271 H   0  0  0  0  0  0  0  0  0  0  0  0
   64.3323   34.4290   23.2570 H   0  0  0  0  0  0  0  0  0  0  0  0
   69.2031   34.8589   23.0530 H   0  0  0  0  0  0  0  0  0  0  0  0
   66.6640   36.4241   20.3287 H   0  0  0  0  0  0  0  0  0  0  0  0
   67.6478   37.0280   24.2990 H   0  0  0  0  0  0  0  0  0  0  0  0
   67.3654   38.8585   20.5971 H   0  0  0  0  0  0  0  0  0  0  0  0
   67.9783   39.2349   23.0827 H   0  0  0  0  0  0  0  0  0  0  0  0
   64.9400   32.9759   26.4680 H   0  0  0  0  0  0  0  0  0  0  0  0
   69.1278   33.3259   26.3344 H   0  0  0  0  0  0  0  0  0  0  0  0
  1 12  2  0  0  0  0
  2 13  1  0  0  0  0
  3 14  1  0  0  0  0
  4 15  1  0  0  0  0
  5  6  1  0  0  0  0
  5  7  1  0  0  0  0
  5 12  1  0  0  0  0
  6  8  2  0  0  0  0
  7  9  2  0  0  0  0
  8  9  1  0  0  0  0
 10 13  2  0  0  0  0
 10 14  1  0  0  0  0
 11 13  1  0  0  0  0
 11 15  2  0  0  0  0
 12 16  1  0  0  0  0
 14 16  2  0  0  0  0
 15 16  1  0  0  0  0
  2 17  1  0  0  0  0
  3 18  1  0  0  0  0
  4 19  1  0  0  0  0
  6 20  1  0  0  0  0
  7 21  1  0  0  0  0
  8 22  1  0  0  0  0
  9 23  1  0  0  0  0
 10 24  1  0  0  0  0
 11 25  1  0  0  0  0
M  END
> <pdb_id>
3EKO

> <uniprot_id>
P07900

> <usmiles>
O=C(N1C=CC=C1)c2c(O)cc(O)cc2O

$$$$
PYV_A_201
          07202404083D 1   1.00000     0.00000     0
            
 35 37  0  0  0  0            999 V2000
  -60.9540   39.8970  -24.3040 Br  0  0  0  0  0  0  0  0  0  0  0  0
  -54.9610   40.2900  -22.2550 S   0  0  0  0  0  0  0  0  0  0  0  0
  -54.1590   41.1450  -23.0720 O   0  0  0  0  0  0  0  0  0  0  0  0
  -54.4580   38.9460  -22.2920 O   0  0  0  0  0  0  0  0  0  0  0  0
  -54.9590   40.8390  -20.7420 N   0  0  0  0  0  0  0  0  0  0  0  0
  -57.3020   39.7430  -18.0860 N   0  0  0  0  0  0  0  0  0  0  0  0
  -58.5280   40.0500  -17.6340 C   0  0  0  0  0  0  0  0  0  0  0  0
  -55.3270   40.0160  -19.6050 C   0  0  0  0  0  0  0  0  0  0  0  0
  -59.2690   41.0630  -18.2240 C   0  0  0  0  0  0  0  0  0  0  0  0
  -58.7010   41.7430  -19.2800 C   0  0  0  0  0  0  0  0  0  0  0  0
  -58.8540   43.8530  -23.1300 C   0  0  0  0  0  0  0  0  0  0  0  0
  -57.5360   43.9480  -22.7050 C   0  0  0  0  0  0  0  0  0  0  0  0
  -58.3670   39.0070  -23.5340 C   0  0  0  0  0  0  0  0  0  0  0  0
  -57.4290   41.4150  -19.7280 C   0  0  0  0  0  0  0  0  0  0  0  0
  -57.0540   39.1090  -23.1020 C   0  0  0  0  0  0  0  0  0  0  0  0
  -59.4090   42.6160  -23.4570 C   0  0  0  0  0  0  0  0  0  0  0  0
  -56.7330   42.8100  -22.5750 C   0  0  0  0  0  0  0  0  0  0  0  0
  -59.1820   40.1190  -23.6700 C   0  0  0  0  0  0  0  0  0  0  0  0
  -56.4650   40.3140  -22.7660 C   0  0  0  0  0  0  0  0  0  0  0  0
  -56.7260   40.3910  -19.1230 C   0  0  0  0  0  0  0  0  0  0  0  0
  -58.6460   41.4640  -23.3350 C   0  0  0  0  0  0  0  0  0  0  0  0
  -57.2490   41.5630  -22.8760 C   0  0  0  0  0  0  0  0  0  0  0  0
  -55.5833   41.6201  -20.7310 H   0  0  0  0  0  0  0  0  0  0  0  0
  -58.9117   39.5422  -16.8626 H   0  0  0  0  0  0  0  0  0  0  0  0
  -54.6711   40.1615  -18.8643 H   0  0  0  0  0  0  0  0  0  0  0  0
  -55.3164   39.0533  -19.8753 H   0  0  0  0  0  0  0  0  0  0  0  0
  -60.1848   41.2925  -17.8944 H   0  0  0  0  0  0  0  0  0  0  0  0
  -59.2097   42.4788  -19.7270 H   0  0  0  0  0  0  0  0  0  0  0  0
  -59.4114   44.6801  -23.2025 H   0  0  0  0  0  0  0  0  0  0  0  0
  -57.1537   44.8461  -22.4878 H   0  0  0  0  0  0  0  0  0  0  0  0
  -58.7369   38.1043  -23.7540 H   0  0  0  0  0  0  0  0  0  0  0  0
  -57.0213   41.9199  -20.4888 H   0  0  0  0  0  0  0  0  0  0  0  0
  -56.5084   38.2740  -23.0301 H   0  0  0  0  0  0  0  0  0  0  0  0
  -60.3542   42.5597  -23.7785 H   0  0  0  0  0  0  0  0  0  0  0  0
  -55.7865   42.8983  -22.2646 H   0  0  0  0  0  0  0  0  0  0  0  0
  1 18  1  0  0  0  0
  2  3  2  0  0  0  0
  2  4  2  0  0  0  0
  2  5  1  0  0  0  0
  2 19  1  0  0  0  0
  5  8  1  0  0  0  0
  6  7  2  0  0  0  0
  6 20  1  0  0  0  0
  7  9  1  0  0  0  0
  8 20  1  0  0  0  0
  9 10  2  0  0  0  0
 10 14  1  0  0  0  0
 11 12  2  0  0  0  0
 11 16  1  0  0  0  0
 12 17  1  0  0  0  0
 13 15  1  0  0  0  0
 13 18  2  0  0  0  0
 14 20  2  0  0  0  0
 15 19  2  0  0  0  0
 16 21  2  0  0  0  0
 17 22  2  0  0  0  0
 18 21  1  0  0  0  0
 19 22  1  0  0  0  0
 21 22  1  0  0  0  0
  5 23  1  0  0  0  0
  7 24  1  0  0  0  0
  8 25  1  0  0  0  0
  8 26  1  0  0  0  0
  9 27  1  0  0  0  0
 10 28  1  0  0  0  0
 11 29  1  0  0  0  0
 12 30  1  0  0  0  0
 13 31  1  0  0  0  0
 14 32  1  0  0  0  0
 15 33  1  0  0  0  0
 16 34  1  0  0  0  0
 17 35  1  0  0  0  0
M  END
> <pdb_id>
3NEF

> <uniprot_id>
Q8VZS8

> <usmiles>
Brc1c2c(c(S(=O)(=O)NCc3ncccc3)cc1)cccc2

$$$$
PZ8_A_1501
          07202416263D 1   1.00000     0.00000     0
            
 29 30  0  0  0  0            999 V2000
   29.8851   62.1480   71.3008 Cl  0  0  0  0  0  0  0  0  0  0  0  0
   23.8734   67.4662   71.8254 O   0  0  0  0  0  0  0  0  0  0  0  0
   24.3758   69.5429   72.4978 O   0  0  0  0  0  0  0  0  0  0  0  0
   28.0585   66.9568   71.4888 N   0  0  0  0  0  0  0  0  0  0  0  0
   29.8426   68.4527   72.4703 C   0  0  0  0  0  0  0  0  0  0  0  0
   25.9812   65.7527   70.6969 C   0  0  0  0  0  0  0  0  0  0  0  0
   30.5895   65.4623   69.2224 C   0  0  0  0  0  0  0  0  0  0  0  0
   30.6457   64.1599   69.6819 C   0  0  0  0  0  0  0  0  0  0  0  0
   29.7627   66.3909   69.8288 C   0  0  0  0  0  0  0  0  0  0  0  0
   29.0329   64.7046   71.3931 C   0  0  0  0  0  0  0  0  0  0  0  0
   27.2675   68.8294   72.4222 C   0  0  0  0  0  0  0  0  0  0  0  0
   24.7289   68.4200   72.1177 C   0  0  0  0  0  0  0  0  0  0  0  0
   29.8624   63.7990   70.7567 C   0  0  0  0  0  0  0  0  0  0  0  0
   28.4243   68.1279   72.1489 C   0  0  0  0  0  0  0  0  0  0  0  0
   26.6720   66.8966   71.3631 C   0  0  0  0  0  0  0  0  0  0  0  0
   28.9804   66.0130   70.9106 C   0  0  0  0  0  0  0  0  0  0  0  0
   26.1568   68.0608   71.9316 C   0  0  0  0  0  0  0  0  0  0  0  0
   24.2050   66.5730   71.5217 H   0  0  0  0  0  0  0  0  0  0  0  0
   29.8843   69.3334   72.9422 H   0  0  0  0  0  0  0  0  0  0  0  0
   30.2223   67.7401   73.0603 H   0  0  0  0  0  0  0  0  0  0  0  0
   30.3732   68.5025   71.6241 H   0  0  0  0  0  0  0  0  0  0  0  0
   24.9930   65.9050   70.7131 H   0  0  0  0  0  0  0  0  0  0  0  0
   26.2922   65.6818   69.7491 H   0  0  0  0  0  0  0  0  0  0  0  0
   26.1959   64.9053   71.1824 H   0  0  0  0  0  0  0  0  0  0  0  0
   31.1528   65.7364   68.4430 H   0  0  0  0  0  0  0  0  0  0  0  0
   31.2447   63.4909   69.2418 H   0  0  0  0  0  0  0  0  0  0  0  0
   29.7290   67.3307   69.4888 H   0  0  0  0  0  0  0  0  0  0  0  0
   28.4831   64.4280   72.1813 H   0  0  0  0  0  0  0  0  0  0  0  0
   27.2120   69.7163   72.8808 H   0  0  0  0  0  0  0  0  0  0  0  0
  1 13  1  0  0  0  0
  2 12  1  0  0  0  0
  3 12  2  0  0  0  0
  4 14  1  0  0  0  0
  4 15  1  0  0  0  0
  4 16  1  0  0  0  0
  5 14  1  0  0  0  0
  6 15  1  0  0  0  0
  7  8  2  0  0  0  0
  7  9  1  0  0  0  0
  8 13  1  0  0  0  0
  9 16  2  0  0  0  0
 10 13  2  0  0  0  0
 10 16  1  0  0  0  0
 11 14  2  0  0  0  0
 11 17  1  0  0  0  0
 12 17  1  0  0  0  0
 15 17  2  0  0  0  0
  2 18  1  0  0  0  0
  5 19  1  0  0  0  0
  5 20  1  0  0  0  0
  5 21  1  0  0  0  0
  6 22  1  0  0  0  0
  6 23  1  0  0  0  0
  6 24  1  0  0  0  0
  7 25  1  0  0  0  0
  8 26  1  0  0  0  0
  9 27  1  0  0  0  0
 10 28  1  0  0  0  0
 11 29  1  0  0  0  0
M  END
> <pdb_id>
6YXI

> <uniprot_id>
Q6P988

> <usmiles>
Clc1cc(N2C(=C(C(=O)O)C=C2C)C)ccc1

$$$$
Q02_A_404
          07202405073D 1   1.00000     0.00000     0
            
 20 20  0  0  0  0            999 V2000
   22.0329   -2.6493   11.4089 P   0  0  0  0  0  0  0  0  0  0  0  0
   22.4995   -2.3677   12.8312 O   0  0  0  0  0  0  0  0  0  0  0  0
   21.9265   -1.5003   10.7190 O   0  0  0  0  0  0  0  0  0  0  0  0
   20.7055   -3.3644   11.3515 O   0  0  0  0  0  0  0  0  0  0  0  0
   24.3579   -2.9614    9.8323 N   0  0  0  0  0  0  0  0  0  0  0  0
   24.1223   -7.7198   11.5959 C   0  0  0  0  0  0  0  0  0  0  0  0
   24.9395   -7.0210   10.7561 C   0  0  0  0  0  0  0  0  0  0  0  0
   23.0706   -7.0412   12.1540 C   0  0  0  0  0  0  0  0  0  0  0  0
   24.6860   -5.7016   10.4323 C   0  0  0  0  0  0  0  0  0  0  0  0
   22.8082   -5.7148   11.8372 C   0  0  0  0  0  0  0  0  0  0  0  0
   23.3594   -3.6294   10.5909 C   0  0  0  0  0  0  0  0  0  0  0  0
   23.6273   -5.0220   10.9844 C   0  0  0  0  0  0  0  0  0  0  0  0
   22.5748   -3.2289   13.3339 H   0  0  0  0  0  0  0  0  0  0  0  0
   21.6198   -1.6978    9.7879 H   0  0  0  0  0  0  0  0  0  0  0  0
   25.0815   -3.4873    9.3852 H   0  0  0  0  0  0  0  0  0  0  0  0
   24.2839   -8.6862   11.7957 H   0  0  0  0  0  0  0  0  0  0  0  0
   25.7408   -7.4742   10.3657 H   0  0  0  0  0  0  0  0  0  0  0  0
   22.4771   -7.5131   12.8059 H   0  0  0  0  0  0  0  0  0  0  0  0
   25.2849   -5.2323    9.7834 H   0  0  0  0  0  0  0  0  0  0  0  0
   22.0120   -5.2598   12.2361 H   0  0  0  0  0  0  0  0  0  0  0  0
  1  2  1  0  0  0  0
  1  3  1  0  0  0  0
  1  4  2  0  0  0  0
  1 11  1  0  0  0  0
  5 11  2  0  0  0  0
  6  7  2  0  0  0  0
  6  8  1  0  0  0  0
  7  9  1  0  0  0  0
  8 10  2  0  0  0  0
  9 12  2  0  0  0  0
 10 12  1  0  0  0  0
 11 12  1  0  0  0  0
  2 13  1  0  0  0  0
  3 14  1  0  0  0  0
  5 15  1  0  0  0  0
  6 16  1  0  0  0  0
  7 17  1  0  0  0  0
  8 18  1  0  0  0  0
  9 19  1  0  0  0  0
 10 20  1  0  0  0  0
M  END
> <pdb_id>
4U73

> <uniprot_id>
P53582

> <usmiles>
P(=O)(O)(O)C(=N)c1ccccc1

$$$$
Q04_A_403
          07202405073D 1   1.00000     0.00000     0
            
 31 31  0  0  0  0            999 V2000
   21.9050   -2.5740   11.3950 P   0  0  0  0  0  0  0  0  0  0  0  0
   20.5450   -3.0990   11.4820 O   0  0  0  0  0  0  0  0  0  0  0  0
   22.5600   -2.1420   12.7660 O   0  0  0  0  0  0  0  0  0  0  0  0
   21.9010   -1.2670   10.4750 O   0  0  0  0  0  0  0  0  0  0  0  0
   24.1810   -2.9310   10.0350 N   0  0  0  0  0  0  0  0  0  0  0  0
   24.6210   -8.7840   11.2020 C   0  0  0  0  0  0  0  0  0  0  0  0
   25.4390   -7.6230   11.7560 C   0  0  0  0  0  0  0  0  0  0  0  0
   23.6640   -8.3580   10.1370 C   0  0  0  0  0  0  0  0  0  0  0  0
   24.4610   -6.6090   12.3460 C   0  0  0  0  0  0  0  0  0  0  0  0
   22.9080   -7.0740   10.5700 C   0  0  0  0  0  0  0  0  0  0  0  0
   23.4780   -4.6950   11.5730 C   0  0  0  0  0  0  0  0  0  0  0  0
   23.0560   -3.6050   10.5720 C   0  0  1  0  0  0  0  0  0  0  0  0
   23.8740   -6.0470   11.0400 C   0  0  0  0  0  0  0  0  0  0  0  0
   20.2224   -3.3421   10.5672 H   0  0  0  0  0  0  0  0  0  0  0  0
   23.4845   -1.7987   12.6002 H   0  0  0  0  0  0  0  0  0  0  0  0
   24.7823   -3.5917    9.5857 H   0  0  0  0  0  0  0  0  0  0  0  0
   23.8754   -2.2512    9.3683 H   0  0  0  0  0  0  0  0  0  0  0  0
   24.1030   -9.1967   11.9512 H   0  0  0  0  0  0  0  0  0  0  0  0
   25.2474   -9.4617   10.8169 H   0  0  0  0  0  0  0  0  0  0  0  0
   25.9689   -7.1984   11.0219 H   0  0  0  0  0  0  0  0  0  0  0  0
   26.0596   -7.9521   12.4677 H   0  0  0  0  0  0  0  0  0  0  0  0
   23.0030   -9.0909    9.9759 H   0  0  0  0  0  0  0  0  0  0  0  0
   24.1697   -8.1740    9.2942 H   0  0  0  0  0  0  0  0  0  0  0  0
   24.9287   -5.9046   12.8799 H   0  0  0  0  0  0  0  0  0  0  0  0
   23.7629   -7.0476   12.9120 H   0  0  0  0  0  0  0  0  0  0  0  0
   22.2752   -7.2969   11.3115 H   0  0  0  0  0  0  0  0  0  0  0  0
   22.3949   -6.7136    9.7910 H   0  0  0  0  0  0  0  0  0  0  0  0
   22.7088   -4.8372   12.1960 H   0  0  0  0  0  0  0  0  0  0  0  0
   24.2600   -4.3390   12.0846 H   0  0  0  0  0  0  0  0  0  0  0  0
   22.5787   -4.0529    9.8160 H   0  0  0  0  0  0  0  0  0  0  0  0
   24.6034   -5.9397   10.3643 H   0  0  0  0  0  0  0  0  0  0  0  0
  1  2  1  0  0  0  0
  1  3  1  0  0  0  0
  1  4  2  0  0  0  0
  1 12  1  0  0  0  0
  5 12  1  0  0  0  0
  6  7  1  0  0  0  0
  6  8  1  0  0  0  0
  7  9  1  0  0  0  0
  8 10  1  0  0  0  0
  9 13  1  0  0  0  0
 10 13  1  0  0  0  0
 11 12  1  0  0  0  0
 11 13  1  0  0  0  0
  2 14  1  0  0  0  0
  3 15  1  0  0  0  0
  5 16  1  0  0  0  0
  5 17  1  0  0  0  0
  6 18  1  0  0  0  0
  6 19  1  0  0  0  0
  7 20  1  0  0  0  0
  7 21  1  0  0  0  0
  8 22  1  0  0  0  0
  8 23  1  0  0  0  0
  9 24  1  0  0  0  0
  9 25  1  0  0  0  0
 10 26  1  0  0  0  0
 10 27  1  0  0  0  0
 11 28  1  0  0  0  0
 11 29  1  0  0  0  0
 12 30  1  0  0  0  0
 13 31  1  0  0  0  0
M  END
> <pdb_id>
4U70

> <uniprot_id>
P53582

> <usmiles>
P(=O)(O)(O)[C@@H](N)CC1CCCCC1

$$$$
Q07_A_404
          07202406453D 1   1.00000     0.00000     0
            
 27 26  0  0  0  0            999 V2000
   21.6088   -2.2805   11.2108 P   0  0  0  0  0  0  0  0  0  0  0  0
   22.2157   -1.8774   12.5079 O   0  0  0  0  0  0  0  0  0  0  0  0
   20.1659   -2.8026   11.2493 O   0  0  0  0  0  0  0  0  0  0  0  0
   21.6840   -0.9450   10.3533 O   0  0  0  0  0  0  0  0  0  0  0  0
   23.8801   -2.6495    9.8107 N   0  0  0  0  0  0  0  0  0  0  0  0
   24.0064   -8.1536   10.6780 C   0  0  0  0  0  0  0  0  0  0  0  0
   22.0668   -5.2012   12.1224 C   0  0  0  0  0  0  0  0  0  0  0  0
   24.5497   -6.8063   11.0381 C   0  0  0  0  0  0  0  0  0  0  0  0
   23.7740   -5.6942   10.2743 C   0  0  0  0  0  0  0  0  0  0  0  0
   22.7363   -3.4202   10.3322 C   0  0  1  0  0  0  0  0  0  0  0  0
   23.1747   -4.6302   11.1669 C   0  0  1  0  0  0  0  0  0  0  0  0
   23.1504   -1.5573   12.3534 H   0  0  0  0  0  0  0  0  0  0  0  0
   19.8723   -3.0393   10.3231 H   0  0  0  0  0  0  0  0  0  0  0  0
   24.5038   -3.2641    9.3277 H   0  0  0  0  0  0  0  0  0  0  0  0
   23.5492   -1.9474    9.1801 H   0  0  0  0  0  0  0  0  0  0  0  0
   24.5114   -8.8601   11.1738 H   0  0  0  0  0  0  0  0  0  0  0  0
   23.0386   -8.1999   10.9256 H   0  0  0  0  0  0  0  0  0  0  0  0
   24.1062   -8.3012    9.6940 H   0  0  0  0  0  0  0  0  0  0  0  0
   21.7029   -4.4625   12.6897 H   0  0  0  0  0  0  0  0  0  0  0  0
   21.3281   -5.5974   11.5770 H   0  0  0  0  0  0  0  0  0  0  0  0
   22.4638   -5.9072   12.7088 H   0  0  0  0  0  0  0  0  0  0  0  0
   25.5177   -6.7634   10.7910 H   0  0  0  0  0  0  0  0  0  0  0  0
   24.4502   -6.6621   12.0226 H   0  0  0  0  0  0  0  0  0  0  0  0
   23.0329   -6.1258    9.7599 H   0  0  0  0  0  0  0  0  0  0  0  0
   24.4064   -5.2508    9.6391 H   0  0  0  0  0  0  0  0  0  0  0  0
   22.2370   -3.7748    9.5417 H   0  0  0  0  0  0  0  0  0  0  0  0
   23.9156   -4.3098   11.7571 H   0  0  0  0  0  0  0  0  0  0  0  0
  1  2  1  0  0  0  0
  1  3  1  0  0  0  0
  1  4  2  0  0  0  0
  1 10  1  0  0  0  0
  5 10  1  0  0  0  0
  6  8  1  0  0  0  0
  7 11  1  0  0  0  0
  8  9  1  0  0  0  0
  9 11  1  0  0  0  0
 10 11  1  0  0  0  0
  2 12  1  0  0  0  0
  3 13  1  0  0  0  0
  5 14  1  0  0  0  0
  5 15  1  0  0  0  0
  6 16  1  0  0  0  0
  6 17  1  0  0  0  0
  6 18  1  0  0  0  0
  7 19  1  0  0  0  0
  7 20  1  0  0  0  0
  7 21  1  0  0  0  0
  8 22  1  0  0  0  0
  8 23  1  0  0  0  0
  9 24  1  0  0  0  0
  9 25  1  0  0  0  0
 10 26  1  0  0  0  0
 11 27  1  0  0  0  0
M  END
> <pdb_id>
4U69

> <uniprot_id>
P53582

> <usmiles>
P(=O)(O)(O)[C@@H](N)[C@H](CCC)C

$$$$
Q07_A_404
          07202405073D 1   1.00000     0.00000     0
            
 27 26  0  0  0  0            999 V2000
   21.9991   -2.5976   11.3570 P   0  0  0  0  0  0  0  0  0  0  0  0
   22.6009   -2.3395   12.7200 O   0  0  0  0  0  0  0  0  0  0  0  0
   20.6596   -3.3648   11.5475 O   0  0  0  0  0  0  0  0  0  0  0  0
   21.7731   -1.4861   10.6076 O   0  0  0  0  0  0  0  0  0  0  0  0
   24.3293   -3.0563    9.9929 N   0  0  0  0  0  0  0  0  0  0  0  0
   23.8827   -8.6509   10.5958 C   0  0  0  0  0  0  0  0  0  0  0  0
   24.5184   -4.5599   12.3661 C   0  0  0  0  0  0  0  0  0  0  0  0
   23.8348   -7.3690   11.3820 C   0  0  0  0  0  0  0  0  0  0  0  0
   23.8946   -6.1142   10.5314 C   0  0  0  0  0  0  0  0  0  0  0  0
   23.1395   -3.7061   10.4612 C   0  0  1  0  0  0  0  0  0  0  0  0
   23.5022   -4.8953   11.3159 C   0  0  2  0  0  0  0  0  0  0  0  0
   23.4644   -1.8460   12.6151 H   0  0  0  0  0  0  0  0  0  0  0  0
   20.2479   -3.5437   10.6540 H   0  0  0  0  0  0  0  0  0  0  0  0
   24.9048   -3.7193    9.5141 H   0  0  0  0  0  0  0  0  0  0  0  0
   24.0811   -2.3170    9.3670 H   0  0  0  0  0  0  0  0  0  0  0  0
   23.8391   -9.4285   11.2231 H   0  0  0  0  0  0  0  0  0  0  0  0
   23.1057   -8.6857    9.9673 H   0  0  0  0  0  0  0  0  0  0  0  0
   24.7351   -8.6906   10.0745 H   0  0  0  0  0  0  0  0  0  0  0  0
   24.2244   -3.7456   12.8665 H   0  0  0  0  0  0  0  0  0  0  0  0
   24.6072   -5.3274   13.0011 H   0  0  0  0  0  0  0  0  0  0  0  0
   25.4014   -4.3832   11.9312 H   0  0  0  0  0  0  0  0  0  0  0  0
   24.6117   -7.3582   12.0116 H   0  0  0  0  0  0  0  0  0  0  0  0
   22.9823   -7.3533   11.9044 H   0  0  0  0  0  0  0  0  0  0  0  0
   23.2699   -6.2169    9.7573 H   0  0  0  0  0  0  0  0  0  0  0  0
   24.8281   -5.9957   10.1930 H   0  0  0  0  0  0  0  0  0  0  0  0
   22.6522   -4.0517    9.6592 H   0  0  0  0  0  0  0  0  0  0  0  0
   22.6686   -5.1430   11.8096 H   0  0  0  0  0  0  0  0  0  0  0  0
  1  2  1  0  0  0  0
  1  3  1  0  0  0  0
  1  4  2  0  0  0  0
  1 10  1  0  0  0  0
  5 10  1  0  0  0  0
  6  8  1  0  0  0  0
  7 11  1  0  0  0  0
  8  9  1  0  0  0  0
  9 11  1  0  0  0  0
 10 11  1  0  0  0  0
  2 12  1  0  0  0  0
  3 13  1  0  0  0  0
  5 14  1  0  0  0  0
  5 15  1  0  0  0  0
  6 16  1  0  0  0  0
  6 17  1  0  0  0  0
  6 18  1  0  0  0  0
  7 19  1  0  0  0  0
  7 20  1  0  0  0  0
  7 21  1  0  0  0  0
  8 22  1  0  0  0  0
  8 23  1  0  0  0  0
  9 24  1  0  0  0  0
  9 25  1  0  0  0  0
 10 26  1  0  0  0  0
 11 27  1  0  0  0  0
M  END
> <pdb_id>
4U6Z

> <uniprot_id>
P53582

> <usmiles>
P(=O)(O)(O)[C@@H](N)[C@@H](CCC)C

$$$$
Q0M_A_401
          07202413533D 1   1.00000     0.00000     0
            
 47 49  0  0  0  0            999 V2000
   -7.6670   -3.7740    3.1410 Br  0  0  0  0  0  0  0  0  0  0  0  0
   -2.5070   -2.2740    2.3710 Cl  0  0  0  0  0  0  0  0  0  0  0  0
   -5.8120   -2.3990   -1.9220 S   0  0  0  0  0  0  0  0  0  0  0  0
   -7.1390   -2.8480   -2.2060 O   0  0  0  0  0  0  0  0  0  0  0  0
   -5.5250   -1.0480   -2.2360 O   0  0  0  0  0  0  0  0  0  0  0  0
   -1.7140   -7.2180   -1.3130 O   0  0  0  0  0  0  0  0  0  0  0  0
   -3.2450   -2.0000   -0.5020 O   0  0  0  0  0  0  0  0  0  0  0  0
   -2.7640   -4.8090   -1.5820 O   0  0  0  0  0  0  0  0  0  0  0  0
   -7.5430   -9.9140   -3.5360 N   0  0  0  0  0  0  0  0  0  0  0  0
   -4.6850   -3.3200   -2.7320 N   0  0  0  0  0  0  0  0  0  0  0  0
   -3.0010   -9.0290   -1.3360 N   0  0  0  0  0  0  0  0  0  0  0  0
   -1.9320   -9.8350   -0.7240 C   0  0  0  0  0  0  0  0  0  0  0  0
   -7.3760   -8.8150   -3.7940 C   0  0  0  0  0  0  0  0  0  0  0  0
   -8.7240   -6.8880   -5.6140 C   0  0  0  0  0  0  0  0  0  0  0  0
   -5.0320   -2.9550    2.5430 C   0  0  0  0  0  0  0  0  0  0  0  0
   -6.5340   -3.0620    0.6610 C   0  0  0  0  0  0  0  0  0  0  0  0
   -5.8840   -5.3410   -3.3790 C   0  0  0  0  0  0  0  0  0  0  0  0
   -4.9740   -7.5140   -2.8550 C   0  0  0  0  0  0  0  0  0  0  0  0
   -7.2140   -7.2260   -5.7130 C   0  0  0  0  0  0  0  0  0  0  0  0
   -8.5330   -6.5870   -4.0970 C   0  0  0  0  0  0  0  0  0  0  0  0
   -6.2820   -3.2160    2.0080 C   0  0  0  0  0  0  0  0  0  0  0  0
   -4.0450   -2.5580    1.6930 C   0  0  0  0  0  0  0  0  0  0  0  0
   -2.8150   -7.7010   -1.5960 C   0  0  0  0  0  0  0  0  0  0  0  0
   -5.5020   -2.6410   -0.1790 C   0  0  0  0  0  0  0  0  0  0  0  0
   -4.2500   -2.3870    0.3390 C   0  0  0  0  0  0  0  0  0  0  0  0
   -3.8070   -5.4960   -2.1830 C   0  0  0  0  0  0  0  0  0  0  0  0
   -4.8090   -4.7220   -2.7600 C   0  0  0  0  0  0  0  0  0  0  0  0
   -3.8820   -6.9040   -2.2080 C   0  0  0  0  0  0  0  0  0  0  0  0
   -5.9970   -6.7380   -3.4340 C   0  0  0  0  0  0  0  0  0  0  0  0
   -7.1980   -7.3940   -4.1600 C   0  0  0  0  0  0  0  0  0  0  0  0
   -3.4267   -1.8851   -1.4786 H   0  0  0  0  0  0  0  0  0  0  0  0
   -2.0157   -5.3133   -1.1511 H   0  0  0  0  0  0  0  0  0  0  0  0
   -3.9197   -2.8767   -3.1987 H   0  0  0  0  0  0  0  0  0  0  0  0
   -3.8744   -9.4591   -1.5643 H   0  0  0  0  0  0  0  0  0  0  0  0
   -2.2482  -10.7769   -0.6104 H   0  0  0  0  0  0  0  0  0  0  0  0
   -1.1256   -9.8231   -1.3152 H   0  0  0  0  0  0  0  0  0  0  0  0
   -1.6961   -9.4526    0.1693 H   0  0  0  0  0  0  0  0  0  0  0  0
   -9.3315   -7.6585   -5.8072 H   0  0  0  0  0  0  0  0  0  0  0  0
   -9.0051   -6.0974   -6.1580 H   0  0  0  0  0  0  0  0  0  0  0  0
   -4.8594   -3.0549    3.5229 H   0  0  0  0  0  0  0  0  0  0  0  0
   -7.4439   -3.2495    0.2910 H   0  0  0  0  0  0  0  0  0  0  0  0
   -6.5967   -4.7774   -3.7967 H   0  0  0  0  0  0  0  0  0  0  0  0
   -5.0238   -8.5116   -2.9040 H   0  0  0  0  0  0  0  0  0  0  0  0
   -6.6438   -6.4790   -6.0548 H   0  0  0  0  0  0  0  0  0  0  0  0
   -7.0090   -8.0618   -6.2223 H   0  0  0  0  0  0  0  0  0  0  0  0
   -9.2318   -6.9861   -3.5033 H   0  0  0  0  0  0  0  0  0  0  0  0
   -8.4223   -5.6179   -3.8767 H   0  0  0  0  0  0  0  0  0  0  0  0
  1 21  1  0  0  0  0
  2 22  1  0  0  0  0
  3  4  2  0  0  0  0
  3  5  2  0  0  0  0
  3 10  1  0  0  0  0
  3 24  1  0  0  0  0
  6 23  2  0  0  0  0
  7 25  1  0  0  0  0
  8 26  1  0  0  0  0
  9 13  3  0  0  0  0
 10 27  1  0  0  0  0
 11 12  1  0  0  0  0
 11 23  1  0  0  0  0
 13 30  1  0  0  0  0
 14 19  1  0  0  0  0
 14 20  1  0  0  0  0
 15 21  2  0  0  0  0
 15 22  1  0  0  0  0
 16 21  1  0  0  0  0
 16 24  2  0  0  0  0
 17 27  1  0  0  0  0
 17 29  2  0  0  0  0
 18 28  2  0  0  0  0
 18 29  1  0  0  0  0
 19 30  1  0  0  0  0
 20 30  1  0  0  0  0
 22 25  2  0  0  0  0
 23 28  1  0  0  0  0
 24 25  1  0  0  0  0
 26 27  2  0  0  0  0
 26 28  1  0  0  0  0
 29 30  1  0  0  0  0
  7 31  1  0  0  0  0
  8 32  1  0  0  0  0
 10 33  1  0  0  0  0
 11 34  1  0  0  0  0
 12 35  1  0  0  0  0
 12 36  1  0  0  0  0
 12 37  1  0  0  0  0
 14 38  1  0  0  0  0
 14 39  1  0  0  0  0
 15 40  1  0  0  0  0
 16 41  1  0  0  0  0
 17 42  1  0  0  0  0
 18 43  1  0  0  0  0
 19 44  1  0  0  0  0
 19 45  1  0  0  0  0
 20 46  1  0  0  0  0
 20 47  1  0  0  0  0
M  END
> <pdb_id>
6U5Y

> <uniprot_id>
P61964

> <usmiles>
Brc1cc(Cl)c(O)c(S(=O)(=O)Nc2c(O)c(cc(c2)C3(C#N)CCC3)C(=O)NC)c1

$$$$
Q11_X_169
          07202402293D 1   1.00000     0.00000     0
            
 34 36  0  0  0  0            999 V2000
   -2.9961   32.8461   -8.3503 O   0  0  0  0  0  0  0  0  0  0  0  0
   -7.0845   26.6869   -4.3635 N   0  0  0  0  0  0  0  0  0  0  0  0
   -2.9776   28.5221   -3.0094 N   0  0  0  0  0  0  0  0  0  0  0  0
   -5.0409   27.6306   -3.7044 N   0  0  0  0  0  0  0  0  0  0  0  0
   -6.4412   28.7051   -5.2940 N   0  0  0  0  0  0  0  0  0  0  0  0
   -1.9336   33.4245   -9.1062 C   0  0  0  0  0  0  0  0  0  0  0  0
   -5.7770   35.1354   -9.0763 C   0  0  0  0  0  0  0  0  0  0  0  0
   -6.7412   34.7054   -8.1622 C   0  0  0  0  0  0  0  0  0  0  0  0
   -4.5253   34.5266   -9.1506 C   0  0  0  0  0  0  0  0  0  0  0  0
   -6.4797   33.6438   -7.2945 C   0  0  0  0  0  0  0  0  0  0  0  0
   -3.7653   31.8721   -5.6553 C   0  0  0  0  0  0  0  0  0  0  0  0
   -3.4518   30.8222   -4.7855 C   0  0  0  0  0  0  0  0  0  0  0  0
   -5.8673   30.8127   -6.2935 C   0  0  0  0  0  0  0  0  0  0  0  0
   -6.1715   27.6855   -4.4513 C   0  0  0  0  0  0  0  0  0  0  0  0
   -4.0990   28.6050   -3.7542 C   0  0  0  0  0  0  0  0  0  0  0  0
   -4.2178   33.4637   -8.2979 C   0  0  0  0  0  0  0  0  0  0  0  0
   -5.5939   29.7500   -5.4368 C   0  0  0  0  0  0  0  0  0  0  0  0
   -4.9531   31.8702   -6.3993 C   0  0  0  0  0  0  0  0  0  0  0  0
   -4.3431   29.7586   -4.6568 C   0  0  0  0  0  0  0  0  0  0  0  0
   -5.2432   33.0040   -7.3239 C   0  0  0  0  0  0  0  0  0  0  0  0
   -7.9196   26.7233   -4.9124 H   0  0  0  0  0  0  0  0  0  0  0  0
   -6.9228   25.9141   -3.7498 H   0  0  0  0  0  0  0  0  0  0  0  0
   -2.2915   29.2481   -3.0562 H   0  0  0  0  0  0  0  0  0  0  0  0
   -2.8322   27.7346   -2.4105 H   0  0  0  0  0  0  0  0  0  0  0  0
   -1.1206   32.8465   -9.0348 H   0  0  0  0  0  0  0  0  0  0  0  0
   -2.2078   33.4971  -10.0651 H   0  0  0  0  0  0  0  0  0  0  0  0
   -1.7275   34.3353   -8.7485 H   0  0  0  0  0  0  0  0  0  0  0  0
   -5.9890   35.8957   -9.6902 H   0  0  0  0  0  0  0  0  0  0  0  0
   -7.6295   35.1636   -8.1288 H   0  0  0  0  0  0  0  0  0  0  0  0
   -3.8491   34.8498   -9.8127 H   0  0  0  0  0  0  0  0  0  0  0  0
   -7.1822   33.3418   -6.6500 H   0  0  0  0  0  0  0  0  0  0  0  0
   -3.1297   32.6385   -5.7480 H   0  0  0  0  0  0  0  0  0  0  0  0
   -2.5992   30.8348   -4.2630 H   0  0  0  0  0  0  0  0  0  0  0  0
   -6.7110   30.8216   -6.8303 H   0  0  0  0  0  0  0  0  0  0  0  0
  1  6  1  0  0  0  0
  1 16  1  0  0  0  0
  2 14  1  0  0  0  0
  3 15  1  0  0  0  0
  4 14  2  0  0  0  0
  4 15  1  0  0  0  0
  5 14  1  0  0  0  0
  5 17  2  0  0  0  0
  7  8  2  0  0  0  0
  7  9  1  0  0  0  0
  8 10  1  0  0  0  0
  9 16  2  0  0  0  0
 10 20  2  0  0  0  0
 11 12  2  0  0  0  0
 11 18  1  0  0  0  0
 12 19  1  0  0  0  0
 13 17  1  0  0  0  0
 13 18  2  0  0  0  0
 15 19  2  0  0  0  0
 16 20  1  0  0  0  0
 17 19  1  0  0  0  0
 18 20  1  0  0  0  0
  2 21  1  0  0  0  0
  2 22  1  0  0  0  0
  3 23  1  0  0  0  0
  3 24  1  0  0  0  0
  6 25  1  0  0  0  0
  6 26  1  0  0  0  0
  6 27  1  0  0  0  0
  7 28  1  0  0  0  0
  8 29  1  0  0  0  0
  9 30  1  0  0  0  0
 10 31  1  0  0  0  0
 11 32  1  0  0  0  0
 12 33  1  0  0  0  0
 13 34  1  0  0  0  0
M  END
> <pdb_id>
3SQY

> <uniprot_id>
P0A017

> <usmiles>
O(c1c(c2cc3nc(nc(N)c3cc2)N)cccc1)C

$$$$
Q12_X_169
          07202402293D 1   1.00000     0.00000     0
            
 41 43  0  0  0  0            999 V2000
   -7.8432   36.2532   -9.3530 O   0  0  0  0  0  0  0  0  0  0  0  0
   -6.9416   36.6116   -6.7084 O   0  0  0  0  0  0  0  0  0  0  0  0
   -7.2136   26.5911   -4.2607 N   0  0  0  0  0  0  0  0  0  0  0  0
   -3.0717   28.6113   -3.2691 N   0  0  0  0  0  0  0  0  0  0  0  0
   -5.1520   27.6303   -3.7718 N   0  0  0  0  0  0  0  0  0  0  0  0
   -6.7496   28.6655   -5.2129 N   0  0  0  0  0  0  0  0  0  0  0  0
   -8.6384   36.0561  -10.5202 C   0  0  0  0  0  0  0  0  0  0  0  0
   -6.4761   36.8532   -5.3850 C   0  0  0  0  0  0  0  0  0  0  0  0
   -3.2838   33.1827   -5.9025 C   0  0  0  0  0  0  0  0  0  0  0  0
   -7.1565   33.8977   -9.2573 C   0  0  0  0  0  0  0  0  0  0  0  0
   -6.5914   32.8348   -8.5217 C   0  0  0  0  0  0  0  0  0  0  0  0
   -6.2558   34.2861   -6.5917 C   0  0  0  0  0  0  0  0  0  0  0  0
   -6.3844   30.8263   -6.2017 C   0  0  0  0  0  0  0  0  0  0  0  0
   -3.7953   30.9294   -4.9219 C   0  0  0  0  0  0  0  0  0  0  0  0
   -6.3534   27.6409   -4.4091 C   0  0  0  0  0  0  0  0  0  0  0  0
   -4.2589   28.6588   -3.8893 C   0  0  0  0  0  0  0  0  0  0  0  0
   -7.2912   35.1654   -8.6705 C   0  0  0  0  0  0  0  0  0  0  0  0
   -6.8188   35.3599   -7.2862 C   0  0  0  0  0  0  0  0  0  0  0  0
   -5.9593   29.7616   -5.3971 C   0  0  0  0  0  0  0  0  0  0  0  0
   -4.2154   31.9991   -5.7275 C   0  0  0  0  0  0  0  0  0  0  0  0
   -6.1150   33.0355   -7.2274 C   0  0  0  0  0  0  0  0  0  0  0  0
   -4.6427   29.8245   -4.7466 C   0  0  0  0  0  0  0  0  0  0  0  0
   -5.5490   31.9322   -6.3920 C   0  0  0  0  0  0  0  0  0  0  0  0
   -8.0970   26.5986   -4.7292 H   0  0  0  0  0  0  0  0  0  0  0  0
   -6.9602   25.8148   -3.6836 H   0  0  0  0  0  0  0  0  0  0  0  0
   -2.4276   29.3704   -3.3633 H   0  0  0  0  0  0  0  0  0  0  0  0
   -2.8300   27.8167   -2.7121 H   0  0  0  0  0  0  0  0  0  0  0  0
   -8.9442   36.9421  -10.8687 H   0  0  0  0  0  0  0  0  0  0  0  0
   -8.0947   35.5924  -11.2196 H   0  0  0  0  0  0  0  0  0  0  0  0
   -9.4341   35.4956  -10.2906 H   0  0  0  0  0  0  0  0  0  0  0  0
   -6.6485   37.8073   -5.1400 H   0  0  0  0  0  0  0  0  0  0  0  0
   -6.9585   36.2529   -4.7471 H   0  0  0  0  0  0  0  0  0  0  0  0
   -5.4942   36.6693   -5.3382 H   0  0  0  0  0  0  0  0  0  0  0  0
   -3.7148   33.8609   -6.4978 H   0  0  0  0  0  0  0  0  0  0  0  0
   -3.0957   33.5936   -5.0105 H   0  0  0  0  0  0  0  0  0  0  0  0
   -2.4266   32.8741   -6.3148 H   0  0  0  0  0  0  0  0  0  0  0  0
   -7.4614   33.7477  -10.1978 H   0  0  0  0  0  0  0  0  0  0  0  0
   -6.5319   31.9258   -8.9343 H   0  0  0  0  0  0  0  0  0  0  0  0
   -5.9533   34.4043   -5.6458 H   0  0  0  0  0  0  0  0  0  0  0  0
   -7.2831   30.7960   -6.6393 H   0  0  0  0  0  0  0  0  0  0  0  0
   -2.9002   30.9543   -4.4767 H   0  0  0  0  0  0  0  0  0  0  0  0
  1  7  1  0  0  0  0
  1 17  1  0  0  0  0
  2  8  1  0  0  0  0
  2 18  1  0  0  0  0
  3 15  1  0  0  0  0
  4 16  1  0  0  0  0
  5 15  2  0  0  0  0
  5 16  1  0  0  0  0
  6 15  1  0  0  0  0
  6 19  2  0  0  0  0
  9 20  1  0  0  0  0
 10 11  2  0  0  0  0
 10 17  1  0  0  0  0
 11 21  1  0  0  0  0
 12 18  1  0  0  0  0
 12 21  2  0  0  0  0
 13 19  1  0  0  0  0
 13 23  2  0  0  0  0
 14 20  2  0  0  0  0
 14 22  1  0  0  0  0
 16 22  2  0  0  0  0
 17 18  2  0  0  0  0
 19 22  1  0  0  0  0
 20 23  1  0  0  0  0
 21 23  1  0  0  0  0
  3 24  1  0  0  0  0
  3 25  1  0  0  0  0
  4 26  1  0  0  0  0
  4 27  1  0  0  0  0
  7 28  1  0  0  0  0
  7 29  1  0  0  0  0
  7 30  1  0  0  0  0
  8 31  1  0  0  0  0
  8 32  1  0  0  0  0
  8 33  1  0  0  0  0
  9 34  1  0  0  0  0
  9 35  1  0  0  0  0
  9 36  1  0  0  0  0
 10 37  1  0  0  0  0
 11 38  1  0  0  0  0
 12 39  1  0  0  0  0
 13 40  1  0  0  0  0
 14 41  1  0  0  0  0
M  END
> <pdb_id>
3SR5

> <uniprot_id>
P0A017

> <usmiles>
O(c1c(OC)ccc(c2c(cc3c(nc(nc3c2)N)N)C)c1)C

$$$$
Q13_A_902
          07202407523D 1   1.00000     0.00000     0
            
 52 53  0  0  0  0            999 V2000
    7.6560   11.8000   24.1810 O   0  0  0  0  0  0  0  0  0  0  0  0
    5.5740   15.4880   24.5100 O   0  0  0  0  0  0  0  0  0  0  0  0
    5.1140    7.7530   23.2070 N   0  0  0  0  0  0  0  0  0  0  0  0
    1.7260   17.4820   27.3290 N   0  0  0  0  0  0  0  0  0  0  0  0
    6.1320   13.2140   26.2010 N   0  0  0  0  0  0  0  0  0  0  0  0
    6.8830    9.2380   23.4910 N   0  0  0  0  0  0  0  0  0  0  0  0
    3.0700   16.7120   25.5630 N   0  0  0  0  0  0  0  0  0  0  0  0
    7.4190   15.0510   23.0640 C   0  0  0  0  0  0  0  0  0  0  0  0
    9.3730    6.8850   20.9100 C   0  0  0  0  0  0  0  0  0  0  0  0
    2.6060   20.4370   23.5720 C   0  0  0  0  0  0  0  0  0  0  0  0
    8.1840   12.8360   24.9920 C   0  0  0  0  0  0  0  0  0  0  0  0
    8.6950   10.8830   23.8630 C   0  0  0  0  0  0  0  0  0  0  0  0
    4.4050   15.7210   23.7790 C   0  0  0  0  0  0  0  0  0  0  0  0
    7.1710    7.3310   22.0890 C   0  0  0  0  0  0  0  0  0  0  0  0
    2.1700   18.9060   25.4860 C   0  0  0  0  0  0  0  0  0  0  0  0
    8.9490    8.8670   22.4140 C   0  0  0  0  0  0  0  0  0  0  0  0
    3.5240   18.1020   23.6420 C   0  0  0  0  0  0  0  0  0  0  0  0
    6.3920    8.1240   22.9390 C   0  0  0  0  0  0  0  0  0  0  0  0
    2.3360   17.6970   26.1380 C   0  0  0  0  0  0  0  0  0  0  0  0
    6.4400   14.4480   24.0860 C   0  0  1  0  0  0  0  0  0  0  0  0
    7.1220   13.8600   25.3370 C   0  0  1  0  0  0  0  0  0  0  0  0
    8.1330    9.6290   23.2410 C   0  0  0  0  0  0  0  0  0  0  0  0
    3.6420   16.8750   24.3400 C   0  0  0  0  0  0  0  0  0  0  0  0
    8.4750    7.7050   21.8320 C   0  0  0  0  0  0  0  0  0  0  0  0
    2.7590   19.1100   24.2200 C   0  0  0  0  0  0  0  0  0  0  0  0
    4.7387    6.9211   22.7983 H   0  0  0  0  0  0  0  0  0  0  0  0
    4.5479    8.3116   23.8132 H   0  0  0  0  0  0  0  0  0  0  0  0
    1.1850   18.2089   27.7521 H   0  0  0  0  0  0  0  0  0  0  0  0
    1.8169   16.5965   27.7847 H   0  0  0  0  0  0  0  0  0  0  0  0
    5.4194   13.8729   26.4420 H   0  0  0  0  0  0  0  0  0  0  0  0
    5.7214   12.4410   25.7174 H   0  0  0  0  0  0  0  0  0  0  0  0
    8.0461   14.3408   22.7439 H   0  0  0  0  0  0  0  0  0  0  0  0
    6.9064   15.4177   22.2876 H   0  0  0  0  0  0  0  0  0  0  0  0
    7.9409   15.7864   23.4961 H   0  0  0  0  0  0  0  0  0  0  0  0
   10.2735    7.3160   20.8520 H   0  0  0  0  0  0  0  0  0  0  0  0
    9.4695    5.9592   21.2756 H   0  0  0  0  0  0  0  0  0  0  0  0
    8.9645    6.8424   19.9983 H   0  0  0  0  0  0  0  0  0  0  0  0
    3.0724   20.4318   22.6875 H   0  0  0  0  0  0  0  0  0  0  0  0
    1.6346   20.6313   23.4354 H   0  0  0  0  0  0  0  0  0  0  0  0
    3.0079   21.1418   24.1566 H   0  0  0  0  0  0  0  0  0  0  0  0
    8.9261   13.2898   24.4987 H   0  0  0  0  0  0  0  0  0  0  0  0
    8.5401   12.4384   25.8376 H   0  0  0  0  0  0  0  0  0  0  0  0
    9.1864   10.6417   24.6998 H   0  0  0  0  0  0  0  0  0  0  0  0
    9.3263   11.3140   23.2182 H   0  0  0  0  0  0  0  0  0  0  0  0
    3.8308   14.9029   23.8116 H   0  0  0  0  0  0  0  0  0  0  0  0
    4.6477   15.9204   22.8296 H   0  0  0  0  0  0  0  0  0  0  0  0
    6.7888    6.5055   21.6738 H   0  0  0  0  0  0  0  0  0  0  0  0
    1.6332   19.6345   25.9115 H   0  0  0  0  0  0  0  0  0  0  0  0
    9.8883    9.1615   22.2378 H   0  0  0  0  0  0  0  0  0  0  0  0
    3.9766   18.2394   22.7610 H   0  0  0  0  0  0  0  0  0  0  0  0
    5.9004   13.7335   23.6407 H   0  0  0  0  0  0  0  0  0  0  0  0
    7.5515   14.6057   25.8463 H   0  0  0  0  0  0  0  0  0  0  0  0
  1 11  1  0  0  0  0
  1 12  1  0  0  0  0
  2 13  1  0  0  0  0
  2 20  1  0  0  0  0
  3 18  1  0  0  0  0
  4 19  1  0  0  0  0
  5 21  1  0  0  0  0
  6 18  2  0  0  0  0
  6 22  1  0  0  0  0
  7 19  2  0  0  0  0
  7 23  1  0  0  0  0
  8 20  1  0  0  0  0
  9 24  1  0  0  0  0
 10 25  1  0  0  0  0
 11 21  1  0  0  0  0
 12 22  1  0  0  0  0
 13 23  1  0  0  0  0
 14 18  1  0  0  0  0
 14 24  2  0  0  0  0
 15 19  1  0  0  0  0
 15 25  2  0  0  0  0
 16 22  2  0  0  0  0
 16 24  1  0  0  0  0
 17 23  2  0  0  0  0
 17 25  1  0  0  0  0
 20 21  1  0  0  0  0
  3 26  1  0  0  0  0
  3 27  1  0  0  0  0
  4 28  1  0  0  0  0
  4 29  1  0  0  0  0
  5 30  1  0  0  0  0
  5 31  1  0  0  0  0
  8 32  1  0  0  0  0
  8 33  1  0  0  0  0
  8 34  1  0  0  0  0
  9 35  1  0  0  0  0
  9 36  1  0  0  0  0
  9 37  1  0  0  0  0
 10 38  1  0  0  0  0
 10 39  1  0  0  0  0
 10 40  1  0  0  0  0
 11 41  1  0  0  0  0
 11 42  1  0  0  0  0
 12 43  1  0  0  0  0
 12 44  1  0  0  0  0
 13 45  1  0  0  0  0
 13 46  1  0  0  0  0
 14 47  1  0  0  0  0
 15 48  1  0  0  0  0
 16 49  1  0  0  0  0
 17 50  1  0  0  0  0
 20 51  1  0  0  0  0
 21 52  1  0  0  0  0
M  END
> <pdb_id>
4LWA

> <uniprot_id>
O34453

> <usmiles>
O([C@H]([C@@H](N)COCc1nc(N)cc(c1)C)C)Cc2nc(N)cc(c2)C

$$$$
Q17_A_401
          07192419233D 1   1.00000     0.00000     0
            
 40 42  0  0  0  0            999 V2000
  -17.3014   35.7911    3.0853 O   0  0  0  0  0  0  0  0  0  0  0  0
  -15.5564   37.2853   -5.4085 N   0  0  0  0  0  0  0  0  0  0  0  0
  -19.6794   37.2796   -2.7674 N   0  0  0  0  0  0  0  0  0  0  0  0
  -18.4750   36.2434   -1.0819 N   0  0  0  0  0  0  0  0  0  0  0  0
  -18.7509   36.9586    1.2574 N   0  0  0  0  0  0  0  0  0  0  0  0
  -16.5968   36.3723   -4.9081 C   0  0  0  0  0  0  0  0  0  0  0  0
  -18.9642   36.5064   -3.8020 C   0  0  0  0  0  0  0  0  0  0  0  0
  -17.5344   37.1589   -3.9763 C   0  0  0  0  0  0  0  0  0  0  0  0
  -15.2238   33.2793    1.4559 C   0  0  0  0  0  0  0  0  0  0  0  0
  -21.1653   39.6819    1.4626 C   0  0  0  0  0  0  0  0  0  0  0  0
  -15.6025   33.4415    0.1255 C   0  0  0  0  0  0  0  0  0  0  0  0
  -21.5194   39.8459    0.0892 C   0  0  0  0  0  0  0  0  0  0  0  0
  -15.7934   34.0477    2.4614 C   0  0  0  0  0  0  0  0  0  0  0  0
  -20.2581   38.7362    1.8474 C   0  0  0  0  0  0  0  0  0  0  0  0
  -16.5763   34.3781   -0.2323 C   0  0  0  0  0  0  0  0  0  0  0  0
  -20.9684   39.0537   -0.8854 C   0  0  0  0  0  0  0  0  0  0  0  0
  -16.7516   35.0050    2.1227 C   0  0  0  0  0  0  0  0  0  0  0  0
  -19.3843   37.1867   -1.4567 C   0  0  0  0  0  0  0  0  0  0  0  0
  -18.2060   36.1847    0.2928 C   0  0  0  0  0  0  0  0  0  0  0  0
  -19.6768   37.9027    0.8336 C   0  0  0  0  0  0  0  0  0  0  0  0
  -17.1894   35.1732    0.7374 C   0  0  0  0  0  0  0  0  0  0  0  0
  -20.0389   38.0643   -0.5198 C   0  0  0  0  0  0  0  0  0  0  0  0
  -17.9875   36.4760    2.8401 H   0  0  0  0  0  0  0  0  0  0  0  0
  -14.9391   36.7860   -6.0164 H   0  0  0  0  0  0  0  0  0  0  0  0
  -15.9852   38.0355   -5.9118 H   0  0  0  0  0  0  0  0  0  0  0  0
  -20.4126   37.8974   -3.0514 H   0  0  0  0  0  0  0  0  0  0  0  0
  -16.1714   35.6218   -4.4023 H   0  0  0  0  0  0  0  0  0  0  0  0
  -17.1186   36.0026   -5.6769 H   0  0  0  0  0  0  0  0  0  0  0  0
  -19.4657   36.5463   -4.6662 H   0  0  0  0  0  0  0  0  0  0  0  0
  -18.8721   35.5533   -3.5137 H   0  0  0  0  0  0  0  0  0  0  0  0
  -17.6520   38.0783   -4.3518 H   0  0  0  0  0  0  0  0  0  0  0  0
  -17.1044   37.2193   -3.0755 H   0  0  0  0  0  0  0  0  0  0  0  0
  -14.5302   32.5981    1.6904 H   0  0  0  0  0  0  0  0  0  0  0  0
  -21.5880   40.2685    2.1534 H   0  0  0  0  0  0  0  0  0  0  0  0
  -15.1725   32.8811   -0.5823 H   0  0  0  0  0  0  0  0  0  0  0  0
  -22.1810   40.5508   -0.1666 H   0  0  0  0  0  0  0  0  0  0  0  0
  -15.5215   33.9176    3.4149 H   0  0  0  0  0  0  0  0  0  0  0  0
  -20.0057   38.6274    2.8089 H   0  0  0  0  0  0  0  0  0  0  0  0
  -16.8364   34.4795   -1.1926 H   0  0  0  0  0  0  0  0  0  0  0  0
  -21.2245   39.1783   -1.8440 H   0  0  0  0  0  0  0  0  0  0  0  0
  1 17  1  0  0  0  0
  2  6  1  0  0  0  0
  3  7  1  0  0  0  0
  3 18  1  0  0  0  0
  4 18  1  0  0  0  0
  4 19  2  0  0  0  0
  5 19  1  0  0  0  0
  5 20  2  0  0  0  0
  6  8  1  0  0  0  0
  7  8  1  0  0  0  0
  9 11  2  0  0  0  0
  9 13  1  0  0  0  0
 10 12  1  0  0  0  0
 10 14  2  0  0  0  0
 11 15  1  0  0  0  0
 12 16  2  0  0  0  0
 13 17  2  0  0  0  0
 14 20  1  0  0  0  0
 15 21  2  0  0  0  0
 16 22  1  0  0  0  0
 17 21  1  0  0  0  0
 18 22  2  0  0  0  0
 19 21  1  0  0  0  0
 20 22  1  0  0  0  0
  1 23  1  0  0  0  0
  2 24  1  0  0  0  0
  2 25  1  0  0  0  0
  3 26  1  0  0  0  0
  6 27  1  0  0  0  0
  6 28  1  0  0  0  0
  7 29  1  0  0  0  0
  7 30  1  0  0  0  0
  8 31  1  0  0  0  0
  8 32  1  0  0  0  0
  9 33  1  0  0  0  0
 10 34  1  0  0  0  0
 11 35  1  0  0  0  0
 12 36  1  0  0  0  0
 13 37  1  0  0  0  0
 14 38  1  0  0  0  0
 15 39  1  0  0  0  0
 16 40  1  0  0  0  0
M  END
> <pdb_id>
4LM5

> <uniprot_id>
P11309

> <usmiles>
Oc1c(c2nc(NCCCN)c3c(n2)cccc3)cccc1

$$$$
Q1G_A_401
          07202413533D 1   1.00000     0.00000     0
            
 40 42  0  0  0  0            999 V2000
   -7.6271   -3.9078    3.0710 Br  0  0  0  0  0  0  0  0  0  0  0  0
   -5.6108   -2.4263   -1.9227 S   0  0  0  0  0  0  0  0  0  0  0  0
   -5.2850   -1.0366   -2.1490 O   0  0  0  0  0  0  0  0  0  0  0  0
   -6.9274   -2.9665   -2.2549 O   0  0  0  0  0  0  0  0  0  0  0  0
   -2.9985   -2.1105   -0.3845 O   0  0  0  0  0  0  0  0  0  0  0  0
   -2.7464   -5.0303   -1.1091 O   0  0  0  0  0  0  0  0  0  0  0  0
   -8.2083   -9.1964   -2.9642 N   0  0  0  0  0  0  0  0  0  0  0  0
   -4.4562   -3.4006   -2.7202 N   0  0  0  0  0  0  0  0  0  0  0  0
   -7.5248   -8.5300   -3.6218 C   0  0  0  0  0  0  0  0  0  0  0  0
   -7.2978   -8.1455   -6.4840 C   0  0  0  0  0  0  0  0  0  0  0  0
   -4.9401   -3.1545    2.5142 C   0  0  0  0  0  0  0  0  0  0  0  0
   -3.8756   -2.7367    1.7057 C   0  0  0  0  0  0  0  0  0  0  0  0
   -3.7664   -6.9876   -1.9141 C   0  0  0  0  0  0  0  0  0  0  0  0
   -4.7108   -7.6259   -2.7230 C   0  0  0  0  0  0  0  0  0  0  0  0
   -7.4277   -6.9065   -5.5786 C   0  0  0  0  0  0  0  0  0  0  0  0
   -6.0514   -8.5187   -5.6646 C   0  0  0  0  0  0  0  0  0  0  0  0
   -6.4238   -3.1247    0.5950 C   0  0  0  0  0  0  0  0  0  0  0  0
   -5.4919   -5.4994   -3.5251 C   0  0  0  0  0  0  0  0  0  0  0  0
   -6.2018   -3.3448    1.9567 C   0  0  0  0  0  0  0  0  0  0  0  0
   -5.3510   -2.7158   -0.2046 C   0  0  0  0  0  0  0  0  0  0  0  0
   -4.0837   -2.5134    0.3465 C   0  0  0  0  0  0  0  0  0  0  0  0
   -3.6883   -5.6065   -1.9156 C   0  0  0  0  0  0  0  0  0  0  0  0
   -4.5550   -4.8448   -2.7064 C   0  0  0  0  0  0  0  0  0  0  0  0
   -5.6063   -6.9135   -3.5513 C   0  0  0  0  0  0  0  0  0  0  0  0
   -6.6600   -7.7053   -4.4653 C   0  0  0  0  0  0  0  0  0  0  0  0
   -3.0927   -1.9363   -1.3647 H   0  0  0  0  0  0  0  0  0  0  0  0
   -2.6551   -4.0349   -1.0791 H   0  0  0  0  0  0  0  0  0  0  0  0
   -3.6980   -2.9652   -3.2055 H   0  0  0  0  0  0  0  0  0  0  0  0
   -7.1201   -7.9430   -7.4470 H   0  0  0  0  0  0  0  0  0  0  0  0
   -8.0544   -8.7957   -6.4142 H   0  0  0  0  0  0  0  0  0  0  0  0
   -4.7942   -3.3160    3.4903 H   0  0  0  0  0  0  0  0  0  0  0  0
   -2.9684   -2.5990    2.1031 H   0  0  0  0  0  0  0  0  0  0  0  0
   -3.1512   -7.5258   -1.3380 H   0  0  0  0  0  0  0  0  0  0  0  0
   -4.7541   -8.6249   -2.7151 H   0  0  0  0  0  0  0  0  0  0  0  0
   -8.3680   -6.6628   -5.3409 H   0  0  0  0  0  0  0  0  0  0  0  0
   -6.9476   -6.0956   -5.9134 H   0  0  0  0  0  0  0  0  0  0  0  0
   -5.1937   -8.1502   -6.0230 H   0  0  0  0  0  0  0  0  0  0  0  0
   -5.9469   -9.4979   -5.4911 H   0  0  0  0  0  0  0  0  0  0  0  0
   -7.3325   -3.2570    0.1993 H   0  0  0  0  0  0  0  0  0  0  0  0
   -6.0951   -4.9526   -4.1058 H   0  0  0  0  0  0  0  0  0  0  0  0
  1 19  1  0  0  0  0
  2  3  2  0  0  0  0
  2  4  2  0  0  0  0
  2  8  1  0  0  0  0
  2 20  1  0  0  0  0
  5 21  1  0  0  0  0
  6 22  1  0  0  0  0
  7  9  3  0  0  0  0
  8 23  1  0  0  0  0
  9 25  1  0  0  0  0
 10 15  1  0  0  0  0
 10 16  1  0  0  0  0
 11 12  1  0  0  0  0
 11 19  2  0  0  0  0
 12 21  2  0  0  0  0
 13 14  1  0  0  0  0
 13 22  2  0  0  0  0
 14 24  2  0  0  0  0
 15 25  1  0  0  0  0
 16 25  1  0  0  0  0
 17 19  1  0  0  0  0
 17 20  2  0  0  0  0
 18 23  2  0  0  0  0
 18 24  1  0  0  0  0
 20 21  1  0  0  0  0
 22 23  1  0  0  0  0
 24 25  1  0  0  0  0
  5 26  1  0  0  0  0
  6 27  1  0  0  0  0
  8 28  1  0  0  0  0
 10 29  1  0  0  0  0
 10 30  1  0  0  0  0
 11 31  1  0  0  0  0
 12 32  1  0  0  0  0
 13 33  1  0  0  0  0
 14 34  1  0  0  0  0
 15 35  1  0  0  0  0
 15 36  1  0  0  0  0
 16 37  1  0  0  0  0
 16 38  1  0  0  0  0
 17 39  1  0  0  0  0
 18 40  1  0  0  0  0
M  END
> <pdb_id>
6U8O

> <uniprot_id>
P61964

> <usmiles>
Brc1cc(S(=O)(=O)Nc2c(O)ccc(c2)C3(C#N)CCC3)c(O)cc1

$$$$
Q1M_A_401
          07202413533D 1   1.00000     0.00000     0
            
 35 36  0  0  0  0            999 V2000
   -7.0801   -3.6663    3.0526 Br  0  0  0  0  0  0  0  0  0  0  0  0
   -8.6049   -7.5042   -3.7678 Cl  0  0  0  0  0  0  0  0  0  0  0  0
   -6.0719   -2.4952   -2.2509 S   0  0  0  0  0  0  0  0  0  0  0  0
   -7.4880   -2.7808   -2.2396 O   0  0  0  0  0  0  0  0  0  0  0  0
   -5.6627   -1.1882   -2.7255 O   0  0  0  0  0  0  0  0  0  0  0  0
   -4.0562   -9.4131   -1.8885 O   0  0  0  0  0  0  0  0  0  0  0  0
   -2.7940   -7.6428   -1.2982 O   0  0  0  0  0  0  0  0  0  0  0  0
   -3.4423   -5.3344   -2.1151 O   0  0  0  0  0  0  0  0  0  0  0  0
   -3.2668   -2.1957   -1.3640 O   0  0  0  0  0  0  0  0  0  0  0  0
   -5.2645   -3.6501   -3.1765 N   0  0  0  0  0  0  0  0  0  0  0  0
   -1.8663   -2.1423   -1.1365 C   0  0  0  0  0  0  0  0  0  0  0  0
   -4.5064   -3.0453    2.0150 C   0  0  0  0  0  0  0  0  0  0  0  0
   -3.6194   -2.7053    0.9929 C   0  0  0  0  0  0  0  0  0  0  0  0
   -6.3200   -3.0335    0.4060 C   0  0  0  0  0  0  0  0  0  0  0  0
   -6.8261   -5.5424   -3.4427 C   0  0  0  0  0  0  0  0  0  0  0  0
   -6.0992   -7.7738   -2.7660 C   0  0  0  0  0  0  0  0  0  0  0  0
   -5.8557   -3.2005    1.7070 C   0  0  0  0  0  0  0  0  0  0  0  0
   -7.0655   -6.9072   -3.2936 C   0  0  0  0  0  0  0  0  0  0  0  0
   -3.8078   -8.0882   -1.7862 C   0  0  0  0  0  0  0  0  0  0  0  0
   -5.4130   -2.7000   -0.6080 C   0  0  0  0  0  0  0  0  0  0  0  0
   -4.6357   -5.8807   -2.5054 C   0  0  0  0  0  0  0  0  0  0  0  0
   -4.0612   -2.5310   -0.3233 C   0  0  0  0  0  0  0  0  0  0  0  0
   -5.6028   -5.0317   -3.0402 C   0  0  0  0  0  0  0  0  0  0  0  0
   -4.8718   -7.2416   -2.3590 C   0  0  0  0  0  0  0  0  0  0  0  0
   -4.9101   -9.7313   -2.3003 H   0  0  0  0  0  0  0  0  0  0  0  0
   -2.7283   -5.9177   -1.7277 H   0  0  0  0  0  0  0  0  0  0  0  0
   -4.5513   -3.3692   -3.8188 H   0  0  0  0  0  0  0  0  0  0  0  0
   -1.4007   -1.8841   -1.9830 H   0  0  0  0  0  0  0  0  0  0  0  0
   -1.6693   -1.4649   -0.4277 H   0  0  0  0  0  0  0  0  0  0  0  0
   -1.5425   -3.0403   -0.8385 H   0  0  0  0  0  0  0  0  0  0  0  0
   -4.1793   -3.1750    2.9511 H   0  0  0  0  0  0  0  0  0  0  0  0
   -2.6497   -2.5840    1.2050 H   0  0  0  0  0  0  0  0  0  0  0  0
   -7.2909   -3.1502    0.1971 H   0  0  0  0  0  0  0  0  0  0  0  0
   -7.5246   -4.9426   -3.8331 H   0  0  0  0  0  0  0  0  0  0  0  0
   -6.2836   -8.7530   -2.6822 H   0  0  0  0  0  0  0  0  0  0  0  0
  1 17  1  0  0  0  0
  2 18  1  0  0  0  0
  3  4  2  0  0  0  0
  3  5  2  0  0  0  0
  3 10  1  0  0  0  0
  3 20  1  0  0  0  0
  6 19  1  0  0  0  0
  7 19  2  0  0  0  0
  8 21  1  0  0  0  0
  9 11  1  0  0  0  0
  9 22  1  0  0  0  0
 10 23  1  0  0  0  0
 12 13  2  0  0  0  0
 12 17  1  0  0  0  0
 13 22  1  0  0  0  0
 14 17  2  0  0  0  0
 14 20  1  0  0  0  0
 15 18  2  0  0  0  0
 15 23  1  0  0  0  0
 16 18  1  0  0  0  0
 16 24  2  0  0  0  0
 19 24  1  0  0  0  0
 20 22  2  0  0  0  0
 21 23  2  0  0  0  0
 21 24  1  0  0  0  0
  6 25  1  0  0  0  0
  8 26  1  0  0  0  0
 10 27  1  0  0  0  0
 11 28  1  0  0  0  0
 11 29  1  0  0  0  0
 11 30  1  0  0  0  0
 12 31  1  0  0  0  0
 13 32  1  0  0  0  0
 14 33  1  0  0  0  0
 15 34  1  0  0  0  0
 16 35  1  0  0  0  0
M  END
> <pdb_id>
6U8B

> <uniprot_id>
P61964

> <usmiles>
Brc1cc(S(=O)(=O)Nc2c(O)c(cc(Cl)c2)C(=O)O)c(OC)cc1

$$$$
Q1P_A_401
          07202413533D 1   1.00000     0.00000     0
            
 39 41  0  0  0  0            999 V2000
   -7.1363   -3.7720    3.1048 Br  0  0  0  0  0  0  0  0  0  0  0  0
   -5.8177   -2.4413   -2.1077 S   0  0  0  0  0  0  0  0  0  0  0  0
   -5.1547   -9.0490   -2.5913 F   0  0  0  0  0  0  0  0  0  0  0  0
   -5.4715   -1.0795   -2.4790 O   0  0  0  0  0  0  0  0  0  0  0  0
   -7.1945   -2.9006   -2.1587 O   0  0  0  0  0  0  0  0  0  0  0  0
   -1.9653   -7.0857   -0.9525 O   0  0  0  0  0  0  0  0  0  0  0  0
   -2.9088   -9.0766   -1.3763 O   0  0  0  0  0  0  0  0  0  0  0  0
   -3.0739   -1.8884   -0.9572 O   0  0  0  0  0  0  0  0  0  0  0  0
   -2.9049   -4.9142   -1.7365 O   0  0  0  0  0  0  0  0  0  0  0  0
   -4.8758   -3.5171   -2.9706 N   0  0  0  0  0  0  0  0  0  0  0  0
   -4.5460   -2.8920    2.2303 C   0  0  0  0  0  0  0  0  0  0  0  0
   -3.6174   -2.4584    1.2770 C   0  0  0  0  0  0  0  0  0  0  0  0
   -8.6975   -7.3519   -3.5927 C   0  0  0  0  0  0  0  0  0  0  0  0
   -8.1611   -7.1635   -4.9794 C   0  0  0  0  0  0  0  0  0  0  0  0
   -6.2543   -3.0527    0.5143 C   0  0  0  0  0  0  0  0  0  0  0  0
   -6.0560   -5.6490   -3.4314 C   0  0  0  0  0  0  0  0  0  0  0  0
   -5.8602   -3.1828    1.8389 C   0  0  0  0  0  0  0  0  0  0  0  0
   -5.3214   -2.6147   -0.4238 C   0  0  0  0  0  0  0  0  0  0  0  0
   -2.9490   -7.8629   -1.4740 C   0  0  0  0  0  0  0  0  0  0  0  0
   -5.0838   -7.7167   -2.6836 C   0  0  0  0  0  0  0  0  0  0  0  0
   -4.0100   -2.3165   -0.0550 C   0  0  0  0  0  0  0  0  0  0  0  0
   -3.9503   -5.6484   -2.2524 C   0  0  0  0  0  0  0  0  0  0  0  0
   -4.9822   -4.9404   -2.9013 C   0  0  0  0  0  0  0  0  0  0  0  0
   -7.2968   -7.8007   -3.9185 C   0  0  0  0  0  0  0  0  0  0  0  0
   -6.1306   -7.0476   -3.3342 C   0  0  0  0  0  0  0  0  0  0  0  0
   -3.9958   -7.0452   -2.1371 C   0  0  0  0  0  0  0  0  0  0  0  0
   -2.0139   -6.0908   -1.0416 H   0  0  0  0  0  0  0  0  0  0  0  0
   -3.3217   -1.7760   -1.9195 H   0  0  0  0  0  0  0  0  0  0  0  0
   -2.1521   -5.3769   -1.2684 H   0  0  0  0  0  0  0  0  0  0  0  0
   -4.1836   -3.1356   -3.5833 H   0  0  0  0  0  0  0  0  0  0  0  0
   -4.2729   -2.9939    3.1869 H   0  0  0  0  0  0  0  0  0  0  0  0
   -2.6776   -2.2512    1.5488 H   0  0  0  0  0  0  0  0  0  0  0  0
   -9.4120   -8.0303   -3.4217 H   0  0  0  0  0  0  0  0  0  0  0  0
   -8.8427   -6.5586   -3.0015 H   0  0  0  0  0  0  0  0  0  0  0  0
   -7.9480   -6.2449   -5.3123 H   0  0  0  0  0  0  0  0  0  0  0  0
   -8.5173   -7.7167   -5.7325 H   0  0  0  0  0  0  0  0  0  0  0  0
   -7.1907   -3.2693    0.2381 H   0  0  0  0  0  0  0  0  0  0  0  0
   -6.7909   -5.1511   -3.8919 H   0  0  0  0  0  0  0  0  0  0  0  0
   -7.1710   -8.7891   -4.0033 H   0  0  0  0  0  0  0  0  0  0  0  0
  1 17  1  0  0  0  0
  2  4  2  0  0  0  0
  2  5  2  0  0  0  0
  2 10  1  0  0  0  0
  2 18  1  0  0  0  0
  3 20  1  0  0  0  0
  6 19  1  0  0  0  0
  7 19  2  0  0  0  0
  8 21  1  0  0  0  0
  9 22  1  0  0  0  0
 10 23  1  0  0  0  0
 11 12  1  0  0  0  0
 11 17  2  0  0  0  0
 12 21  2  0  0  0  0
 13 14  1  0  0  0  0
 13 24  1  0  0  0  0
 14 24  1  0  0  0  0
 15 17  1  0  0  0  0
 15 18  2  0  0  0  0
 16 23  1  0  0  0  0
 16 25  2  0  0  0  0
 18 21  1  0  0  0  0
 19 26  1  0  0  0  0
 20 25  1  0  0  0  0
 20 26  2  0  0  0  0
 22 23  2  0  0  0  0
 22 26  1  0  0  0  0
 24 25  1  0  0  0  0
  6 27  1  0  0  0  0
  8 28  1  0  0  0  0
  9 29  1  0  0  0  0
 10 30  1  0  0  0  0
 11 31  1  0  0  0  0
 12 32  1  0  0  0  0
 13 33  1  0  0  0  0
 13 34  1  0  0  0  0
 14 35  1  0  0  0  0
 14 36  1  0  0  0  0
 15 37  1  0  0  0  0
 16 38  1  0  0  0  0
 24 39  1  0  0  0  0
M  END
> <pdb_id>
6U8L

> <uniprot_id>
P61964

> <usmiles>
Brc1cc(S(=O)(=O)Nc2c(O)c(c(F)c(c2)C3CC3)C(=O)O)c(O)cc1

$$$$
Q20_X_168
          07202402293D 1   1.00000     0.00000     0
            
 42 44  0  0  0  0            999 V2000
   -8.4872   35.8285   -5.6638 O   0  0  0  0  0  0  0  0  0  0  0  0
   -3.4571   32.9398   -8.4825 O   0  0  0  0  0  0  0  0  0  0  0  0
   -7.1542   26.7314   -4.4355 N   0  0  0  0  0  0  0  0  0  0  0  0
   -2.9563   28.5073   -3.1665 N   0  0  0  0  0  0  0  0  0  0  0  0
   -5.0747   27.6349   -3.7919 N   0  0  0  0  0  0  0  0  0  0  0  0
   -6.5198   28.8169   -5.2536 N   0  0  0  0  0  0  0  0  0  0  0  0
   -1.0959   33.1108   -8.9355 C   0  0  0  0  0  0  0  0  0  0  0  0
   -2.7692   33.1042   -5.5192 C   0  0  0  0  0  0  0  0  0  0  0  0
   -2.4747   33.5151   -9.3702 C   0  0  0  0  0  0  0  0  0  0  0  0
   -7.8917   36.0567   -6.7152 C   0  0  0  0  0  0  0  0  0  0  0  0
   -4.8573   34.9227   -8.7024 C   0  0  0  0  0  0  0  0  0  0  0  0
   -5.9540   35.6528   -8.2432 C   0  0  0  0  0  0  0  0  0  0  0  0
   -6.0062   30.9830   -6.1301 C   0  0  0  0  0  0  0  0  0  0  0  0
   -6.4307   34.0456   -6.5145 C   0  0  0  0  0  0  0  0  0  0  0  0
   -3.4611   30.8649   -4.6913 C   0  0  0  0  0  0  0  0  0  0  0  0
   -6.2305   27.7340   -4.4840 C   0  0  0  0  0  0  0  0  0  0  0  0
   -4.1180   28.6093   -3.8266 C   0  0  0  0  0  0  0  0  0  0  0  0
   -4.5190   33.7059   -8.0933 C   0  0  0  0  0  0  0  0  0  0  0  0
   -5.6711   29.8659   -5.3587 C   0  0  0  0  0  0  0  0  0  0  0  0
   -6.7422   35.2363   -7.1687 C   0  0  0  0  0  0  0  0  0  0  0  0
   -3.7843   31.9819   -5.4657 C   0  0  0  0  0  0  0  0  0  0  0  0
   -4.3900   29.8223   -4.6399 C   0  0  0  0  0  0  0  0  0  0  0  0
   -5.3672   33.2575   -6.9647 C   0  0  0  0  0  0  0  0  0  0  0  0
   -5.0735   32.0246   -6.2035 C   0  0  0  0  0  0  0  0  0  0  0  0
   -8.0074   26.8122   -4.9507 H   0  0  0  0  0  0  0  0  0  0  0  0
   -6.9781   25.9155   -3.8846 H   0  0  0  0  0  0  0  0  0  0  0  0
   -2.2842   29.2458   -3.2203 H   0  0  0  0  0  0  0  0  0  0  0  0
   -2.7616   27.6927   -2.6201 H   0  0  0  0  0  0  0  0  0  0  0  0
   -0.4203   33.5121   -9.5540 H   0  0  0  0  0  0  0  0  0  0  0  0
   -0.9308   33.4368   -8.0047 H   0  0  0  0  0  0  0  0  0  0  0  0
   -1.0180   32.1140   -8.9584 H   0  0  0  0  0  0  0  0  0  0  0  0
   -3.1157   33.8396   -6.1014 H   0  0  0  0  0  0  0  0  0  0  0  0
   -2.6118   33.4556   -4.5964 H   0  0  0  0  0  0  0  0  0  0  0  0
   -1.9095   32.7584   -5.8953 H   0  0  0  0  0  0  0  0  0  0  0  0
   -2.5507   34.5119   -9.3478 H   0  0  0  0  0  0  0  0  0  0  0  0
   -2.6379   33.1892  -10.3015 H   0  0  0  0  0  0  0  0  0  0  0  0
   -8.1928   36.8219   -7.2841 H   0  0  0  0  0  0  0  0  0  0  0  0
   -4.3120   35.2675   -9.4665 H   0  0  0  0  0  0  0  0  0  0  0  0
   -6.1852   36.5102   -8.7030 H   0  0  0  0  0  0  0  0  0  0  0  0
   -6.8809   31.0361   -6.6120 H   0  0  0  0  0  0  0  0  0  0  0  0
   -6.9681   33.7548   -5.7229 H   0  0  0  0  0  0  0  0  0  0  0  0
   -2.5963   30.8133   -4.1919 H   0  0  0  0  0  0  0  0  0  0  0  0
  1 10  2  0  0  0  0
  2  9  1  0  0  0  0
  2 18  1  0  0  0  0
  3 16  1  0  0  0  0
  4 17  1  0  0  0  0
  5 16  2  0  0  0  0
  5 17  1  0  0  0  0
  6 16  1  0  0  0  0
  6 19  2  0  0  0  0
  7  9  1  0  0  0  0
  8 21  1  0  0  0  0
 10 20  1  0  0  0  0
 11 12  1  0  0  0  0
 11 18  2  0  0  0  0
 12 20  2  0  0  0  0
 13 19  1  0  0  0  0
 13 24  2  0  0  0  0
 14 20  1  0  0  0  0
 14 23  2  0  0  0  0
 15 21  2  0  0  0  0
 15 22  1  0  0  0  0
 17 22  2  0  0  0  0
 18 23  1  0  0  0  0
 19 22  1  0  0  0  0
 21 24  1  0  0  0  0
 23 24  1  0  0  0  0
  3 25  1  0  0  0  0
  3 26  1  0  0  0  0
  4 27  1  0  0  0  0
  4 28  1  0  0  0  0
  7 29  1  0  0  0  0
  7 30  1  0  0  0  0
  7 31  1  0  0  0  0
  8 32  1  0  0  0  0
  8 33  1  0  0  0  0
  8 34  1  0  0  0  0
  9 35  1  0  0  0  0
  9 36  1  0  0  0  0
 10 37  1  0  0  0  0
 11 38  1  0  0  0  0
 12 39  1  0  0  0  0
 13 40  1  0  0  0  0
 14 41  1  0  0  0  0
 15 42  1  0  0  0  0
M  END
> <pdb_id>
3SRR

> <uniprot_id>
P0A017

> <usmiles>
O=Cc1cc(c(OCC)cc1)c2c(cc3c(nc(nc3c2)N)N)C

$$$$
Q26_X_169
          07202402293D 1   1.00000     0.00000     0
            
 55 58  0  0  0  0            999 V2000
  -10.2230   35.2610   -2.3420 S   0  0  0  0  0  0  0  0  0  0  0  0
  -10.0820   35.1100   -0.9180 O   0  0  0  0  0  0  0  0  0  0  0  0
   -9.6440   34.0920   -3.0080 O   0  0  0  0  0  0  0  0  0  0  0  0
   -3.4740   33.2570   -8.3480 O   0  0  0  0  0  0  0  0  0  0  0  0
   -7.0850   26.8520   -4.3450 N   0  0  0  0  0  0  0  0  0  0  0  0
   -2.7980   28.4860   -3.2480 N   0  0  0  0  0  0  0  0  0  0  0  0
   -9.4430   36.5750   -2.8460 N   0  0  0  0  0  0  0  0  0  0  0  0
   -4.9520   27.7100   -3.8020 N   0  0  0  0  0  0  0  0  0  0  0  0
   -6.4720   28.9270   -5.1770 N   0  0  0  0  0  0  0  0  0  0  0  0
  -11.8200   35.3920   -2.7900 C   0  0  0  0  0  0  0  0  0  0  0  0
   -1.1880   33.1930   -8.9110 C   0  0  0  0  0  0  0  0  0  0  0  0
   -2.4880   33.9140   -9.1640 C   0  0  0  0  0  0  0  0  0  0  0  0
   -9.6250   37.8500   -6.2900 C   0  0  0  0  0  0  0  0  0  0  0  0
   -4.8720   35.2650   -8.3700 C   0  0  0  0  0  0  0  0  0  0  0  0
   -9.9100   37.6690   -4.9330 C   0  0  0  0  0  0  0  0  0  0  0  0
   -8.5870   37.1190   -6.8990 C   0  0  0  0  0  0  0  0  0  0  0  0
   -5.9580   35.9470   -7.8020 C   0  0  0  0  0  0  0  0  0  0  0  0
   -3.7470   32.0740   -5.5140 C   0  0  0  0  0  0  0  0  0  0  0  0
   -3.3650   30.9420   -4.7700 C   0  0  0  0  0  0  0  0  0  0  0  0
   -8.1390   36.0250   -4.7860 C   0  0  0  0  0  0  0  0  0  0  0  0
   -5.9470   31.0990   -6.0220 C   0  0  0  0  0  0  0  0  0  0  0  0
   -6.3660   34.1510   -6.2390 C   0  0  0  0  0  0  0  0  0  0  0  0
   -6.1520   27.8340   -4.4290 C   0  0  0  0  0  0  0  0  0  0  0  0
   -3.9820   28.6600   -3.8730 C   0  0  0  0  0  0  0  0  0  0  0  0
   -4.5160   33.9970   -7.8760 C   0  0  0  0  0  0  0  0  0  0  0  0
   -9.1700   36.7550   -4.1730 C   0  0  0  0  0  0  0  0  0  0  0  0
   -5.6030   29.9640   -5.2890 C   0  0  0  0  0  0  0  0  0  0  0  0
   -7.8510   36.1860   -6.1520 C   0  0  0  0  0  0  0  0  0  0  0  0
   -6.7180   35.4040   -6.7550 C   0  0  0  0  0  0  0  0  0  0  0  0
   -5.0060   32.1240   -6.1380 C   0  0  0  0  0  0  0  0  0  0  0  0
   -4.2850   29.8950   -4.6490 C   0  0  0  0  0  0  0  0  0  0  0  0
   -5.3190   33.4060   -6.8070 C   0  0  0  0  0  0  0  0  0  0  0  0
   -7.9636   26.9559   -4.8110 H   0  0  0  0  0  0  0  0  0  0  0  0
   -6.8938   26.0245   -3.8171 H   0  0  0  0  0  0  0  0  0  0  0  0
   -2.0925   29.1922   -3.3078 H   0  0  0  0  0  0  0  0  0  0  0  0
   -2.6265   27.6509   -2.7253 H   0  0  0  0  0  0  0  0  0  0  0  0
   -9.1555   37.2658   -2.1826 H   0  0  0  0  0  0  0  0  0  0  0  0
  -11.8803   35.4952   -3.7828 H   0  0  0  0  0  0  0  0  0  0  0  0
  -12.3134   34.5685   -2.5099 H   0  0  0  0  0  0  0  0  0  0  0  0
  -12.2261   36.1910   -2.3465 H   0  0  0  0  0  0  0  0  0  0  0  0
   -0.4627   33.6119   -9.4573 H   0  0  0  0  0  0  0  0  0  0  0  0
   -0.9542   33.2578   -7.9409 H   0  0  0  0  0  0  0  0  0  0  0  0
   -1.2850   32.2312   -9.1670 H   0  0  0  0  0  0  0  0  0  0  0  0
   -2.4075   34.8762   -8.9039 H   0  0  0  0  0  0  0  0  0  0  0  0
   -2.7382   33.8497  -10.1300 H   0  0  0  0  0  0  0  0  0  0  0  0
  -10.1598   38.5004   -6.8294 H   0  0  0  0  0  0  0  0  0  0  0  0
   -4.3549   35.6769   -9.1203 H   0  0  0  0  0  0  0  0  0  0  0  0
  -10.6449   38.1942   -4.5039 H   0  0  0  0  0  0  0  0  0  0  0  0
   -8.3739   37.2648   -7.8651 H   0  0  0  0  0  0  0  0  0  0  0  0
   -6.1988   36.8510   -8.1552 H   0  0  0  0  0  0  0  0  0  0  0  0
   -3.1191   32.8476   -5.5994 H   0  0  0  0  0  0  0  0  0  0  0  0
   -2.4634   30.8877   -4.3409 H   0  0  0  0  0  0  0  0  0  0  0  0
   -7.6014   35.3806   -4.2421 H   0  0  0  0  0  0  0  0  0  0  0  0
   -6.8455   31.1770   -6.4540 H   0  0  0  0  0  0  0  0  0  0  0  0
   -6.8663   33.7815   -5.4560 H   0  0  0  0  0  0  0  0  0  0  0  0
  1  2  2  0  0  0  0
  1  3  2  0  0  0  0
  1  7  1  0  0  0  0
  1 10  1  0  0  0  0
  4 12  1  0  0  0  0
  4 25  1  0  0  0  0
  5 23  1  0  0  0  0
  6 24  1  0  0  0  0
  7 26  1  0  0  0  0
  8 23  2  0  0  0  0
  8 24  1  0  0  0  0
  9 23  1  0  0  0  0
  9 27  2  0  0  0  0
 11 12  1  0  0  0  0
 13 15  2  0  0  0  0
 13 16  1  0  0  0  0
 14 17  1  0  0  0  0
 14 25  2  0  0  0  0
 15 26  1  0  0  0  0
 16 28  2  0  0  0  0
 17 29  2  0  0  0  0
 18 19  2  0  0  0  0
 18 30  1  0  0  0  0
 19 31  1  0  0  0  0
 20 26  2  0  0  0  0
 20 28  1  0  0  0  0
 21 27  1  0  0  0  0
 21 30  2  0  0  0  0
 22 29  1  0  0  0  0
 22 32  2  0  0  0  0
 24 31  2  0  0  0  0
 25 32  1  0  0  0  0
 27 31  1  0  0  0  0
 28 29  1  0  0  0  0
 30 32  1  0  0  0  0
  5 33  1  0  0  0  0
  5 34  1  0  0  0  0
  6 35  1  0  0  0  0
  6 36  1  0  0  0  0
  7 37  1  0  0  0  0
 10 38  1  0  0  0  0
 10 39  1  0  0  0  0
 10 40  1  0  0  0  0
 11 41  1  0  0  0  0
 11 42  1  0  0  0  0
 11 43  1  0  0  0  0
 12 44  1  0  0  0  0
 12 45  1  0  0  0  0
 13 46  1  0  0  0  0
 14 47  1  0  0  0  0
 15 48  1  0  0  0  0
 16 49  1  0  0  0  0
 17 50  1  0  0  0  0
 18 51  1  0  0  0  0
 19 52  1  0  0  0  0
 20 53  1  0  0  0  0
 21 54  1  0  0  0  0
 22 55  1  0  0  0  0
M  END
> <pdb_id>
3SRU

> <uniprot_id>
P0A017

> <usmiles>
S(=O)(=O)(Nc1cc(c2cc(c(OCC)cc2)c3cc4nc(nc(N)c4cc3)N)ccc1)C

$$$$
Q27_X_168
          07202402293D 1   1.00000     0.00000     0
            
 46 49  0  0  0  0            999 V2000
   -3.5684   32.7938   -8.5535 O   0  0  0  0  0  0  0  0  0  0  0  0
   -7.0819   26.6790   -4.4650 N   0  0  0  0  0  0  0  0  0  0  0  0
   -2.9284   28.4629   -3.0751 N   0  0  0  0  0  0  0  0  0  0  0  0
   -5.0237   27.5985   -3.7789 N   0  0  0  0  0  0  0  0  0  0  0  0
   -6.4480   28.7746   -5.2647 N   0  0  0  0  0  0  0  0  0  0  0  0
   -1.1853   33.0376   -8.8714 C   0  0  0  0  0  0  0  0  0  0  0  0
   -2.7078   33.1207   -5.3757 C   0  0  0  0  0  0  0  0  0  0  0  0
   -2.5492   33.2733   -9.4529 C   0  0  0  0  0  0  0  0  0  0  0  0
   -8.1971   35.8609   -5.2299 C   0  0  0  0  0  0  0  0  0  0  0  0
   -7.9067   34.6580   -4.5631 C   0  0  0  0  0  0  0  0  0  0  0  0
   -4.8622   34.8852   -8.6874 C   0  0  0  0  0  0  0  0  0  0  0  0
   -7.5350   36.2325   -6.4133 C   0  0  0  0  0  0  0  0  0  0  0  0
   -5.8496   35.7156   -8.1407 C   0  0  0  0  0  0  0  0  0  0  0  0
   -6.9352   33.8005   -5.0858 C   0  0  0  0  0  0  0  0  0  0  0  0
   -5.8941   30.9663   -6.0870 C   0  0  0  0  0  0  0  0  0  0  0  0
   -3.4038   30.8522   -4.5781 C   0  0  0  0  0  0  0  0  0  0  0  0
   -6.1672   27.6953   -4.4946 C   0  0  0  0  0  0  0  0  0  0  0  0
   -4.0748   28.5756   -3.7637 C   0  0  0  0  0  0  0  0  0  0  0  0
   -4.5321   33.6494   -8.0898 C   0  0  0  0  0  0  0  0  0  0  0  0
   -5.5894   29.8350   -5.3310 C   0  0  0  0  0  0  0  0  0  0  0  0
   -3.7046   31.9795   -5.3431 C   0  0  0  0  0  0  0  0  0  0  0  0
   -6.5547   35.4071   -6.9750 C   0  0  0  0  0  0  0  0  0  0  0  0
   -4.3327   29.7960   -4.5716 C   0  0  0  0  0  0  0  0  0  0  0  0
   -6.2602   34.1390   -6.2614 C   0  0  0  0  0  0  0  0  0  0  0  0
   -4.9614   32.0145   -6.1106 C   0  0  0  0  0  0  0  0  0  0  0  0
   -5.2430   33.2537   -6.8603 C   0  0  0  0  0  0  0  0  0  0  0  0
   -7.9271   26.7514   -4.9945 H   0  0  0  0  0  0  0  0  0  0  0  0
   -6.9055   25.8634   -3.9138 H   0  0  0  0  0  0  0  0  0  0  0  0
   -2.2595   29.2060   -3.0925 H   0  0  0  0  0  0  0  0  0  0  0  0
   -2.7431   27.6357   -2.5446 H   0  0  0  0  0  0  0  0  0  0  0  0
   -0.4897   33.3750   -9.5056 H   0  0  0  0  0  0  0  0  0  0  0  0
   -1.1059   33.5229   -8.0006 H   0  0  0  0  0  0  0  0  0  0  0  0
   -1.0520   32.0581   -8.7205 H   0  0  0  0  0  0  0  0  0  0  0  0
   -3.0579   33.8525   -5.9605 H   0  0  0  0  0  0  0  0  0  0  0  0
   -2.5717   33.4710   -4.4490 H   0  0  0  0  0  0  0  0  0  0  0  0
   -1.8362   32.7918   -5.7391 H   0  0  0  0  0  0  0  0  0  0  0  0
   -2.6780   34.2533   -9.6044 H   0  0  0  0  0  0  0  0  0  0  0  0
   -2.6242   32.7886  -10.3243 H   0  0  0  0  0  0  0  0  0  0  0  0
   -8.8944   36.4698   -4.8518 H   0  0  0  0  0  0  0  0  0  0  0  0
   -8.3912   34.4180   -3.7219 H   0  0  0  0  0  0  0  0  0  0  0  0
   -4.3824   35.1733   -9.5162 H   0  0  0  0  0  0  0  0  0  0  0  0
   -7.7675   37.0970   -6.8589 H   0  0  0  0  0  0  0  0  0  0  0  0
   -6.0604   36.5735   -8.6093 H   0  0  0  0  0  0  0  0  0  0  0  0
   -6.7227   32.9428   -4.6177 H   0  0  0  0  0  0  0  0  0  0  0  0
   -6.7519   31.0288   -6.5972 H   0  0  0  0  0  0  0  0  0  0  0  0
   -2.5555   30.7970   -4.0516 H   0  0  0  0  0  0  0  0  0  0  0  0
  1  8  1  0  0  0  0
  1 19  1  0  0  0  0
  2 17  1  0  0  0  0
  3 18  1  0  0  0  0
  4 17  2  0  0  0  0
  4 18  1  0  0  0  0
  5 17  1  0  0  0  0
  5 20  2  0  0  0  0
  6  8  1  0  0  0  0
  7 21  1  0  0  0  0
  9 10  2  0  0  0  0
  9 12  1  0  0  0  0
 10 14  1  0  0  0  0
 11 13  2  0  0  0  0
 11 19  1  0  0  0  0
 12 22  2  0  0  0  0
 13 22  1  0  0  0  0
 14 24  2  0  0  0  0
 15 20  1  0  0  0  0
 15 25  2  0  0  0  0
 16 21  2  0  0  0  0
 16 23  1  0  0  0  0
 18 23  2  0  0  0  0
 19 26  2  0  0  0  0
 20 23  1  0  0  0  0
 21 25  1  0  0  0  0
 22 24  1  0  0  0  0
 24 26  1  0  0  0  0
 25 26  1  0  0  0  0
  2 27  1  0  0  0  0
  2 28  1  0  0  0  0
  3 29  1  0  0  0  0
  3 30  1  0  0  0  0
  6 31  1  0  0  0  0
  6 32  1  0  0  0  0
  6 33  1  0  0  0  0
  7 34  1  0  0  0  0
  7 35  1  0  0  0  0
  7 36  1  0  0  0  0
  8 37  1  0  0  0  0
  8 38  1  0  0  0  0
  9 39  1  0  0  0  0
 10 40  1  0  0  0  0
 11 41  1  0  0  0  0
 12 42  1  0  0  0  0
 13 43  1  0  0  0  0
 14 44  1  0  0  0  0
 15 45  1  0  0  0  0
 16 46  1  0  0  0  0
M  END
> <pdb_id>
3SRW

> <uniprot_id>
P0A017

> <usmiles>
O(c1c(c2c(cc3c(nc(nc3c2)N)N)C)c4c(cc1)cccc4)CC

$$$$
Q3D_A_501
          07202414183D 1   1.00000     0.00000     0
            
 56 61  0  0  0  0            999 V2000
  -19.8860   23.8720  -25.3890 S   0  0  0  0  0  0  0  0  0  0  0  0
  -14.1980   25.7300  -19.3620 F   0  0  0  0  0  0  0  0  0  0  0  0
  -19.4800   24.8410  -26.3640 O   0  0  0  0  0  0  0  0  0  0  0  0
  -21.0520   24.1550  -24.6050 O   0  0  0  0  0  0  0  0  0  0  0  0
  -10.2860   26.4390  -23.0660 O   0  0  0  0  0  0  0  0  0  0  0  0
  -18.8870   23.5040  -22.9340 N   0  0  0  0  0  0  0  0  0  0  0  0
  -14.4040   23.6310  -23.6580 N   0  0  0  0  0  0  0  0  0  0  0  0
  -17.3440   22.7700  -28.7650 N   0  0  0  0  0  0  0  0  0  0  0  0
  -14.9140   23.5010  -21.4010 N   0  0  0  0  0  0  0  0  0  0  0  0
  -16.6870   23.4960  -23.0170 N   0  0  0  0  0  0  0  0  0  0  0  0
  -20.1220   22.3360  -26.1910 C   0  0  0  0  0  0  0  0  0  0  0  0
  -17.7970   23.4400  -22.2250 C   0  0  0  0  0  0  0  0  0  0  0  0
  -17.1270   22.8040  -27.4440 C   0  0  0  0  0  0  0  0  0  0  0  0
  -14.7810   23.7340  -24.9690 C   0  0  0  0  0  0  0  0  0  0  0  0
  -12.6240   27.1750  -20.3120 C   0  0  0  0  0  0  0  0  0  0  0  0
  -11.6210   27.4050  -21.2400 C   0  0  0  0  0  0  0  0  0  0  0  0
  -16.2200   24.8710  -28.9590 C   0  0  0  0  0  0  0  0  0  0  0  0
  -16.0150   24.8980  -27.5860 C   0  0  0  0  0  0  0  0  0  0  0  0
  -10.2360   25.1620  -23.7520 C   0  0  0  0  0  0  0  0  0  0  0  0
  -13.5130   23.5110  -21.0030 C   0  0  0  0  0  0  0  0  0  0  0  0
  -11.2770   24.2630  -23.1310 C   0  0  0  0  0  0  0  0  0  0  0  0
  -15.6330   23.7670  -31.7870 C   0  0  0  0  0  0  0  0  0  0  0  0
  -16.8780   24.5520  -32.0030 C   0  0  0  0  0  0  0  0  0  0  0  0
  -18.5150   23.6100  -24.2640 C   0  0  0  0  0  0  0  0  0  0  0  0
  -13.2300   25.9410  -20.2750 C   0  0  0  0  0  0  0  0  0  0  0  0
  -15.3180   23.5290  -22.7010 C   0  0  0  0  0  0  0  0  0  0  0  0
  -11.2710   26.3820  -22.1040 C   0  0  0  0  0  0  0  0  0  0  0  0
  -16.8560   23.7660  -29.5180 C   0  0  0  0  0  0  0  0  0  0  0  0
  -17.1300   23.5920  -24.3500 C   0  0  0  0  0  0  0  0  0  0  0  0
  -16.4520   23.8300  -26.7980 C   0  0  0  0  0  0  0  0  0  0  0  0
  -16.0980   23.7170  -25.3590 C   0  0  0  0  0  0  0  0  0  0  0  0
  -12.9060   24.8940  -21.1190 C   0  0  0  0  0  0  0  0  0  0  0  0
  -11.8950   25.1410  -22.0730 C   0  0  0  0  0  0  0  0  0  0  0  0
  -16.8730   23.4280  -30.9940 C   0  0  0  0  0  0  0  0  0  0  0  0
  -15.5800   23.4670  -20.6370 H   0  0  0  0  0  0  0  0  0  0  0  0
  -21.1210   21.9160  -26.0880 H   0  0  0  0  0  0  0  0  0  0  0  0
  -19.4730   21.5370  -25.8410 H   0  0  0  0  0  0  0  0  0  0  0  0
  -19.9510   22.3680  -27.2660 H   0  0  0  0  0  0  0  0  0  0  0  0
  -17.8160   23.3220  -21.1450 H   0  0  0  0  0  0  0  0  0  0  0  0
  -17.4700   21.9250  -26.9010 H   0  0  0  0  0  0  0  0  0  0  0  0
  -13.9540   23.9120  -25.6530 H   0  0  0  0  0  0  0  0  0  0  0  0
  -12.9420   27.9630  -19.6310 H   0  0  0  0  0  0  0  0  0  0  0  0
  -11.1160   28.3690  -21.2910 H   0  0  0  0  0  0  0  0  0  0  0  0
  -15.8820   25.7000  -29.5800 H   0  0  0  0  0  0  0  0  0  0  0  0
  -15.5150   25.7500  -27.1270 H   0  0  0  0  0  0  0  0  0  0  0  0
  -10.4060   25.3740  -24.8070 H   0  0  0  0  0  0  0  0  0  0  0  0
   -9.2110   24.8080  -23.6570 H   0  0  0  0  0  0  0  0  0  0  0  0
  -12.9690   22.7670  -21.5840 H   0  0  0  0  0  0  0  0  0  0  0  0
  -13.3860   23.2100  -19.9660 H   0  0  0  0  0  0  0  0  0  0  0  0
  -10.8590   23.3650  -22.6800 H   0  0  0  0  0  0  0  0  0  0  0  0
  -11.9780   23.9040  -23.8810 H   0  0  0  0  0  0  0  0  0  0  0  0
  -14.7700   24.2080  -31.2900 H   0  0  0  0  0  0  0  0  0  0  0  0
  -15.2680   23.0800  -32.5490 H   0  0  0  0  0  0  0  0  0  0  0  0
  -17.4440   24.4520  -32.9280 H   0  0  0  0  0  0  0  0  0  0  0  0
  -16.9510   25.5860  -31.6700 H   0  0  0  0  0  0  0  0  0  0  0  0
  -17.4180   22.5060  -31.1930 H   0  0  0  0  0  0  0  0  0  0  0  0
  1  3  2  0  0  0  0
  1  4  2  0  0  0  0
  1 11  1  0  0  0  0
  1 24  1  0  0  0  0
  2 25  1  0  0  0  0
  5 19  1  0  0  0  0
  5 27  1  0  0  0  0
  6 12  2  0  0  0  0
  6 24  1  0  0  0  0
  7 14  1  0  0  0  0
  7 26  2  0  0  0  0
  8 13  2  0  0  0  0
  8 28  1  0  0  0  0
  9 20  1  0  0  0  0
  9 26  1  0  0  0  0
  9 35  1  0  0  0  0
 10 12  1  0  0  0  0
 10 26  1  0  0  0  0
 10 29  1  0  0  0  0
 11 36  1  0  0  0  0
 11 37  1  0  0  0  0
 11 38  1  0  0  0  0
 12 39  1  0  0  0  0
 13 30  1  0  0  0  0
 13 40  1  0  0  0  0
 14 31  2  0  0  0  0
 14 41  1  0  0  0  0
 15 16  2  0  0  0  0
 15 25  1  0  0  0  0
 15 42  1  0  0  0  0
 16 27  1  0  0  0  0
 16 43  1  0  0  0  0
 17 18  1  0  0  0  0
 17 28  2  0  0  0  0
 17 44  1  0  0  0  0
 18 30  2  0  0  0  0
 18 45  1  0  0  0  0
 19 21  1  0  0  0  0
 19 46  1  0  0  0  0
 19 47  1  0  0  0  0
 20 32  1  0  0  0  0
 20 48  1  0  0  0  0
 20 49  1  0  0  0  0
 21 33  1  0  0  0  0
 21 50  1  0  0  0  0
 21 51  1  0  0  0  0
 22 23  1  0  0  0  0
 22 34  1  0  0  0  0
 22 52  1  0  0  0  0
 22 53  1  0  0  0  0
 23 34  1  0  0  0  0
 23 54  1  0  0  0  0
 23 55  1  0  0  0  0
 24 29  2  0  0  0  0
 25 32  2  0  0  0  0
 27 33  2  0  0  0  0
 28 34  1  0  0  0  0
 29 31  1  0  0  0  0
 30 31  1  0  0  0  0
 32 33  1  0  0  0  0
 34 56  1  0  0  0  0
M  END
> <pdb_id>
6W7F

> <uniprot_id>
O75530

> <usmiles>
S(=O)(=O)(C=1N=CN2C(=NC=C(c3cnc(cc3)C4CC4)C21)NCc5c(F)ccc6OCCc65)C

$$$$
Q47_A_404
          07212403523D 1   1.00000     0.00000     0
            
 42 44  0  0  0  0            999 V2000
   -6.6260   20.9790  270.1510 Br  0  0  0  0  0  0  0  0  0  0  0  0
  -14.2570   16.0680  267.9830 O   0  0  0  0  0  0  0  0  0  0  0  0
   -9.1790   21.5460  264.6530 O   0  0  0  0  0  0  0  0  0  0  0  0
   -7.7090   16.6420  263.9740 O   0  0  0  0  0  0  0  0  0  0  0  0
   -7.0280   18.2200  270.6020 O   0  0  0  0  0  0  0  0  0  0  0  0
   -9.2360   18.0640  264.7390 N   0  0  0  0  0  0  0  0  0  0  0  0
   -7.5110   20.1890  264.2310 N   0  0  0  0  0  0  0  0  0  0  0  0
  -13.4350   18.2810  267.6300 C   0  0  0  0  0  0  0  0  0  0  0  0
  -12.0380   16.3090  267.4960 C   0  0  0  0  0  0  0  0  0  0  0  0
   -6.6590   17.2700  268.4570 C   0  0  0  0  0  0  0  0  0  0  0  0
  -12.2980   19.0390  267.3060 C   0  0  0  0  0  0  0  0  0  0  0  0
  -10.9550   17.1150  267.2020 C   0  0  0  0  0  0  0  0  0  0  0  0
   -6.3410   17.4230  267.1490 C   0  0  0  0  0  0  0  0  0  0  0  0
   -6.1790   19.7830  267.5310 C   0  0  0  0  0  0  0  0  0  0  0  0
   -9.8760   19.3450  266.7130 C   0  0  0  0  0  0  0  0  0  0  0  0
   -5.7490   18.8240  265.1890 C   0  0  0  0  0  0  0  0  0  0  0  0
  -13.2530   16.8890  267.7090 C   0  0  0  0  0  0  0  0  0  0  0  0
   -6.4770   19.5640  268.8670 C   0  0  0  0  0  0  0  0  0  0  0  0
   -8.7990   20.4680  264.6660 C   0  0  0  0  0  0  0  0  0  0  0  0
   -7.9530   17.7510  264.2890 C   0  0  0  0  0  0  0  0  0  0  0  0
   -6.7360   18.3650  269.3050 C   0  0  0  0  0  0  0  0  0  0  0  0
  -11.0630   18.4780  267.0860 C   0  0  0  0  0  0  0  0  0  0  0  0
   -6.1040   18.6810  266.6210 C   0  0  0  0  0  0  0  0  0  0  0  0
   -9.6240   19.3280  265.1710 C   0  0  1  0  0  0  0  0  0  0  0  0
   -6.9350   18.9240  264.2250 C   0  0  1  0  0  0  0  0  0  0  0  0
  -14.0974   15.0821  268.0327 H   0  0  0  0  0  0  0  0  0  0  0  0
   -7.0785   19.0229  271.1960 H   0  0  0  0  0  0  0  0  0  0  0  0
   -9.9194   17.3340  264.7518 H   0  0  0  0  0  0  0  0  0  0  0  0
   -6.9578   20.9526  263.8981 H   0  0  0  0  0  0  0  0  0  0  0  0
  -14.3243   18.7074  267.7953 H   0  0  0  0  0  0  0  0  0  0  0  0
  -11.9322   15.3162  267.5516 H   0  0  0  0  0  0  0  0  0  0  0  0
   -6.8408   16.3546  268.8162 H   0  0  0  0  0  0  0  0  0  0  0  0
  -12.3913   20.0319  267.2320 H   0  0  0  0  0  0  0  0  0  0  0  0
  -10.0599   16.6896  267.0689 H   0  0  0  0  0  0  0  0  0  0  0  0
   -6.2767   16.6186  266.5583 H   0  0  0  0  0  0  0  0  0  0  0  0
   -6.0160   20.7133  267.2023 H   0  0  0  0  0  0  0  0  0  0  0  0
   -9.0615   19.0009  267.1801 H   0  0  0  0  0  0  0  0  0  0  0  0
  -10.0549   20.2850  267.0036 H   0  0  0  0  0  0  0  0  0  0  0  0
   -5.2034   18.0284  264.9255 H   0  0  0  0  0  0  0  0  0  0  0  0
   -5.1992   19.6532  265.0888 H   0  0  0  0  0  0  0  0  0  0  0  0
  -10.5269   19.4688  264.7648 H   0  0  0  0  0  0  0  0  0  0  0  0
   -6.5230   18.8444  263.3173 H   0  0  0  0  0  0  0  0  0  0  0  0
  1 18  1  0  0  0  0
  2 17  1  0  0  0  0
  3 19  2  0  0  0  0
  4 20  2  0  0  0  0
  5 21  1  0  0  0  0
  6 20  1  0  0  0  0
  6 24  1  0  0  0  0
  7 19  1  0  0  0  0
  7 25  1  0  0  0  0
  8 11  1  0  0  0  0
  8 17  2  0  0  0  0
  9 12  2  0  0  0  0
  9 17  1  0  0  0  0
 10 13  1  0  0  0  0
 10 21  2  0  0  0  0
 11 22  2  0  0  0  0
 12 22  1  0  0  0  0
 13 23  2  0  0  0  0
 14 18  2  0  0  0  0
 14 23  1  0  0  0  0
 15 22  1  0  0  0  0
 15 24  1  0  0  0  0
 16 23  1  0  0  0  0
 16 25  1  0  0  0  0
 18 21  1  0  0  0  0
 19 24  1  0  0  0  0
 20 25  1  0  0  0  0
  2 26  1  0  0  0  0
  5 27  1  0  0  0  0
  6 28  1  0  0  0  0
  7 29  1  0  0  0  0
  8 30  1  0  0  0  0
  9 31  1  0  0  0  0
 10 32  1  0  0  0  0
 11 33  1  0  0  0  0
 12 34  1  0  0  0  0
 13 35  1  0  0  0  0
 14 36  1  0  0  0  0
 15 37  1  0  0  0  0
 15 38  1  0  0  0  0
 16 39  1  0  0  0  0
 16 40  1  0  0  0  0
 24 41  1  0  0  0  0
 25 42  1  0  0  0  0
M  END
> <pdb_id>
6RQB

> <uniprot_id>
P9WPP6

> <usmiles>
Brc1c(O)ccc(c1)C[C@@H]2NC(=O)[C@@H](NC2=O)Cc3ccc(O)cc3

$$$$
Q51_A_401
          07202413553D 1   1.00000     0.00000     0
            
 80 85  0  0  0  0            999 V2000
   12.4150    6.9410   94.7290 Cl  0  0  0  0  0  0  0  0  0  0  0  0
    1.3340    1.9750  102.4380 S   0  0  0  0  0  0  0  0  0  0  0  0
    0.7900    0.5910  102.3640 O   0  0  0  0  0  0  0  0  0  0  0  0
    0.2810    2.9840  102.0420 O   0  0  0  0  0  0  0  0  0  0  0  0
    1.1300    2.0420   99.5640 O   0  0  0  0  0  0  0  0  0  0  0  0
    7.0050    0.3570  104.6340 O   0  0  0  0  0  0  0  0  0  0  0  0
    6.3770    3.7870   96.4500 O   0  0  0  0  0  0  0  0  0  0  0  0
    2.5160    2.2360  101.3490 N   0  0  0  0  0  0  0  0  0  0  0  0
    7.0920    2.2980   98.8160 N   0  0  0  0  0  0  0  0  0  0  0  0
    1.1170    2.2330  105.1910 C   0  0  0  0  0  0  0  0  0  0  0  0
    2.0260    4.8200  104.1210 C   0  0  0  0  0  0  0  0  0  0  0  0
    7.3240    2.7660   96.0630 C   0  0  0  0  0  0  0  0  0  0  0  0
    7.4180    1.5390  100.0770 C   0  0  0  0  0  0  0  0  0  0  0  0
    5.1340    2.5520  104.9320 C   0  0  0  0  0  0  0  0  0  0  0  0
   10.6660    1.3910   97.4080 C   0  0  0  0  0  0  0  0  0  0  0  0
    8.1560    3.2080   98.3570 C   0  0  0  0  0  0  0  0  0  0  0  0
    5.3890    1.9710  103.7000 C   0  0  0  0  0  0  0  0  0  0  0  0
    9.9860    6.0990   95.5900 C   0  0  0  0  0  0  0  0  0  0  0  0
    4.0070    3.5870  105.1310 C   0  0  0  0  0  0  0  0  0  0  0  0
   11.5310    2.1640   96.4230 C   0  0  0  0  0  0  0  0  0  0  0  0
    4.1540    3.7780   97.1460 C   0  0  0  0  0  0  0  0  0  0  0  0
    3.1360    3.4220   98.0160 C   0  0  0  0  0  0  0  0  0  0  0  0
    8.5070    3.2500  101.7390 C   0  0  0  0  0  0  0  0  0  0  0  0
    8.3900    2.7400  103.1930 C   0  0  0  0  0  0  0  0  0  0  0  0
    9.1450    5.1300   96.0890 C   0  0  0  0  0  0  0  0  0  0  0  0
   11.7780    4.5120   95.6370 C   0  0  0  0  0  0  0  0  0  0  0  0
    4.7370    2.2950   99.4010 C   0  0  0  0  0  0  0  0  0  0  0  0
    9.2110    1.3970   96.9310 C   0  0  0  0  0  0  0  0  0  0  0  0
   11.3160    5.7870   95.3660 C   0  0  0  0  0  0  0  0  0  0  0  0
    2.1270    2.2670  104.0590 C   0  0  2  0  0  0  0  0  0  0  0  0
    2.2380    2.3070  100.0580 C   0  0  0  0  0  0  0  0  0  0  0  0
    6.4990    0.9400  103.4200 C   0  0  1  0  0  0  0  0  0  0  0  0
    5.4740    3.3970   97.4090 C   0  0  0  0  0  0  0  0  0  0  0  0
    5.7930    2.6630   98.5570 C   0  0  0  0  0  0  0  0  0  0  0  0
    2.9320    3.5720  104.0320 C   0  0  1  0  0  0  0  0  0  0  0  0
    7.3090    2.3560  101.3900 C   0  0  2  0  0  0  0  0  0  0  0  0
    3.4080    2.6680   99.1450 C   0  0  0  0  0  0  0  0  0  0  0  0
   10.9380    3.5330   96.1430 C   0  0  0  0  0  0  0  0  0  0  0  0
    7.6970    1.4990  102.6140 C   0  0  1  0  0  0  0  0  0  0  0  0
    9.5870    3.8530   96.3690 C   0  0  0  0  0  0  0  0  0  0  0  0
    8.5920    2.8200   96.9270 C   0  0  1  0  0  0  0  0  0  0  0  0
    7.7212   -0.3048  104.4127 H   0  0  0  0  0  0  0  0  0  0  0  0
    3.4606    2.3436  101.6591 H   0  0  0  0  0  0  0  0  0  0  0  0
    1.5845    2.3960  106.0598 H   0  0  0  0  0  0  0  0  0  0  0  0
    0.4283    2.9431  105.0447 H   0  0  0  0  0  0  0  0  0  0  0  0
    0.6726    1.3375  105.2144 H   0  0  0  0  0  0  0  0  0  0  0  0
    1.3377    4.7846  103.3965 H   0  0  0  0  0  0  0  0  0  0  0  0
    1.5718    4.8393  105.0117 H   0  0  0  0  0  0  0  0  0  0  0  0
    2.5821    5.6440  104.0125 H   0  0  0  0  0  0  0  0  0  0  0  0
    7.5770    2.9033   95.1053 H   0  0  0  0  0  0  0  0  0  0  0  0
    6.8961    1.8685   96.1693 H   0  0  0  0  0  0  0  0  0  0  0  0
    8.3562    1.2014  100.0004 H   0  0  0  0  0  0  0  0  0  0  0  0
    6.7892    0.7642  100.1423 H   0  0  0  0  0  0  0  0  0  0  0  0
    5.6977    2.2925  105.7162 H   0  0  0  0  0  0  0  0  0  0  0  0
   10.7224    1.8213   98.3089 H   0  0  0  0  0  0  0  0  0  0  0  0
   10.9924    0.4477   97.4681 H   0  0  0  0  0  0  0  0  0  0  0  0
    8.9404    3.1401   98.9736 H   0  0  0  0  0  0  0  0  0  0  0  0
    7.8128    4.1472   98.3565 H   0  0  0  0  0  0  0  0  0  0  0  0
    4.8073    2.2420  102.9331 H   0  0  0  0  0  0  0  0  0  0  0  0
    9.6406    7.0163   95.3919 H   0  0  0  0  0  0  0  0  0  0  0  0
    4.4189    4.4979  105.1536 H   0  0  0  0  0  0  0  0  0  0  0  0
    3.5619    3.4007  106.0069 H   0  0  0  0  0  0  0  0  0  0  0  0
   11.5906    1.6512   95.5665 H   0  0  0  0  0  0  0  0  0  0  0  0
   12.4467    2.2761   96.8088 H   0  0  0  0  0  0  0  0  0  0  0  0
    3.9439    4.3101   96.3258 H   0  0  0  0  0  0  0  0  0  0  0  0
    2.1978    3.7118   97.8271 H   0  0  0  0  0  0  0  0  0  0  0  0
    9.3592    3.0017  101.2786 H   0  0  0  0  0  0  0  0  0  0  0  0
    8.3411    4.2298  101.6274 H   0  0  0  0  0  0  0  0  0  0  0  0
    7.8155    3.3011  103.7890 H   0  0  0  0  0  0  0  0  0  0  0  0
    9.2634    2.5595  103.6454 H   0  0  0  0  0  0  0  0  0  0  0  0
    8.1854    5.3582   96.2534 H   0  0  0  0  0  0  0  0  0  0  0  0
   12.7381    4.2920   95.4642 H   0  0  0  0  0  0  0  0  0  0  0  0
    4.9368    1.7478  100.2138 H   0  0  0  0  0  0  0  0  0  0  0  0
    8.6718    0.8146   97.5393 H   0  0  0  0  0  0  0  0  0  0  0  0
    9.1769    1.0300   96.0014 H   0  0  0  0  0  0  0  0  0  0  0  0
    2.7740    1.5203  104.2136 H   0  0  0  0  0  0  0  0  0  0  0  0
    6.0932    0.2024  102.8803 H   0  0  0  0  0  0  0  0  0  0  0  0
    3.4058    3.6108  103.1522 H   0  0  0  0  0  0  0  0  0  0  0  0
    6.4283    2.8179  101.4951 H   0  0  0  0  0  0  0  0  0  0  0  0
    8.3528    0.7828  102.3752 H   0  0  0  0  0  0  0  0  0  0  0  0
  1 29  1  0  0  0  0
  2  3  2  0  0  0  0
  2  4  2  0  0  0  0
  2  8  1  0  0  0  0
  2 30  1  0  0  0  0
  5 31  2  0  0  0  0
  6 32  1  0  0  0  0
  7 12  1  0  0  0  0
  7 33  1  0  0  0  0
  8 31  1  0  0  0  0
  9 13  1  0  0  0  0
  9 16  1  0  0  0  0
  9 34  1  0  0  0  0
 10 30  1  0  0  0  0
 11 35  1  0  0  0  0
 12 41  1  0  0  0  0
 13 36  1  0  0  0  0
 14 17  2  0  0  0  0
 14 19  1  0  0  0  0
 15 20  1  0  0  0  0
 15 28  1  0  0  0  0
 16 41  1  0  0  0  0
 17 32  1  0  0  0  0
 18 25  2  0  0  0  0
 18 29  1  0  0  0  0
 19 35  1  0  0  0  0
 20 38  1  0  0  0  0
 21 22  1  0  0  0  0
 21 33  2  0  0  0  0
 22 37  2  0  0  0  0
 23 24  1  0  0  0  0
 23 36  1  0  0  0  0
 24 39  1  0  0  0  0
 25 40  1  0  0  0  0
 26 29  2  0  0  0  0
 26 38  1  0  0  0  0
 27 34  2  0  0  0  0
 27 37  1  0  0  0  0
 28 41  1  0  0  0  0
 30 35  1  0  0  0  0
 31 37  1  0  0  0  0
 32 39  1  0  0  0  0
 33 34  1  0  0  0  0
 36 39  1  0  0  0  0
 38 40  2  0  0  0  0
 40 41  1  0  0  0  0
  6 42  1  0  0  0  0
  8 43  1  0  0  0  0
 10 44  1  0  0  0  0
 10 45  1  0  0  0  0
 10 46  1  0  0  0  0
 11 47  1  0  0  0  0
 11 48  1  0  0  0  0
 11 49  1  0  0  0  0
 12 50  1  0  0  0  0
 12 51  1  0  0  0  0
 13 52  1  0  0  0  0
 13 53  1  0  0  0  0
 14 54  1  0  0  0  0
 15 55  1  0  0  0  0
 15 56  1  0  0  0  0
 16 57  1  0  0  0  0
 16 58  1  0  0  0  0
 17 59  1  0  0  0  0
 18 60  1  0  0  0  0
 19 61  1  0  0  0  0
 19 62  1  0  0  0  0
 20 63  1  0  0  0  0
 20 64  1  0  0  0  0
 21 65  1  0  0  0  0
 22 66  1  0  0  0  0
 23 67  1  0  0  0  0
 23 68  1  0  0  0  0
 24 69  1  0  0  0  0
 24 70  1  0  0  0  0
 25 71  1  0  0  0  0
 26 72  1  0  0  0  0
 27 73  1  0  0  0  0
 28 74  1  0  0  0  0
 28 75  1  0  0  0  0
 30 76  1  0  0  0  0
 32 77  1  0  0  0  0
 35 78  1  0  0  0  0
 36 79  1  0  0  0  0
 39 80  1  0  0  0  0
M  END
> <pdb_id>
6UDV

> <uniprot_id>
Q07820

> <usmiles>
Clc1cc2c(cc1)[C@@]3(COc4c5N(C3)C[C@H]6[C@H]([C@@H](O)/C=C/C[C@@H]([C@H](S(=O)(=O)NC(=O)c(c5)cc4)C)C)CC6)CCC2

$$$$
Q54_B_401
          07202413553D 1   1.00000     0.00000     0
            
 55 59  0  0  0  0            999 V2000
   12.5644    6.9874   94.6591 Cl  0  0  0  0  0  0  0  0  0  0  0  0
    1.1898    2.2989   99.7799 O   0  0  0  0  0  0  0  0  0  0  0  0
    2.7236    1.6529  101.2230 O   0  0  0  0  0  0  0  0  0  0  0  0
    6.3766    3.7510   96.3522 O   0  0  0  0  0  0  0  0  0  0  0  0
    7.1829    2.4724   98.8899 N   0  0  0  0  0  0  0  0  0  0  0  0
    7.3767    2.7792   96.0557 C   0  0  0  0  0  0  0  0  0  0  0  0
    7.5511    1.6593  100.0594 C   0  0  0  0  0  0  0  0  0  0  0  0
    8.2060    3.3480   98.3538 C   0  0  0  0  0  0  0  0  0  0  0  0
    8.3109    2.8802  103.2555 C   0  0  0  0  0  0  0  0  0  0  0  0
   10.7578    1.3243   97.3802 C   0  0  0  0  0  0  0  0  0  0  0  0
   10.1424    6.1023   95.5772 C   0  0  0  0  0  0  0  0  0  0  0  0
    4.1244    3.6759   97.0843 C   0  0  0  0  0  0  0  0  0  0  0  0
    7.7946    1.5713  102.6207 C   0  0  0  0  0  0  0  0  0  0  0  0
    8.4117    3.4942  101.8147 C   0  0  0  0  0  0  0  0  0  0  0  0
   11.5920    2.1432   96.3905 C   0  0  0  0  0  0  0  0  0  0  0  0
    3.1181    3.2866   97.9892 C   0  0  0  0  0  0  0  0  0  0  0  0
    9.2650    5.1722   96.0957 C   0  0  0  0  0  0  0  0  0  0  0  0
   11.9126    4.4518   95.5916 C   0  0  0  0  0  0  0  0  0  0  0  0
    4.7952    2.3106   99.4118 C   0  0  0  0  0  0  0  0  0  0  0  0
    9.2374    1.3970   97.0266 C   0  0  0  0  0  0  0  0  0  0  0  0
    2.4585    2.1662  100.1119 C   0  0  0  0  0  0  0  0  0  0  0  0
   11.4361    5.7312   95.3354 C   0  0  0  0  0  0  0  0  0  0  0  0
    5.4657    3.3815   97.3422 C   0  0  0  0  0  0  0  0  0  0  0  0
    5.8363    2.6953   98.5364 C   0  0  0  0  0  0  0  0  0  0  0  0
    7.3766    2.4190  101.3830 C   0  0  0  0  0  0  0  0  0  0  0  0
    3.4792    2.5705   99.1957 C   0  0  0  0  0  0  0  0  0  0  0  0
   11.0381    3.5027   96.1187 C   0  0  0  0  0  0  0  0  0  0  0  0
    9.6585    3.8422   96.3914 C   0  0  0  0  0  0  0  0  0  0  0  0
    8.6334    2.8485   96.9620 C   0  0  1  0  0  0  0  0  0  0  0  0
    0.9431    2.7048   98.8999 H   0  0  0  0  0  0  0  0  0  0  0  0
    7.6679    2.9105   95.1081 H   0  0  0  0  0  0  0  0  0  0  0  0
    6.9692    1.8715   96.1564 H   0  0  0  0  0  0  0  0  0  0  0  0
    8.5088    1.3853   99.9708 H   0  0  0  0  0  0  0  0  0  0  0  0
    6.9718    0.8444  100.0786 H   0  0  0  0  0  0  0  0  0  0  0  0
    8.9974    3.3488   98.9649 H   0  0  0  0  0  0  0  0  0  0  0  0
    7.8429    4.2767   98.2773 H   0  0  0  0  0  0  0  0  0  0  0  0
    9.1871    2.7922  103.7293 H   0  0  0  0  0  0  0  0  0  0  0  0
    7.6527    3.3368  103.8540 H   0  0  0  0  0  0  0  0  0  0  0  0
   10.8966    1.6857   98.3022 H   0  0  0  0  0  0  0  0  0  0  0  0
   11.0556    0.3702   97.3478 H   0  0  0  0  0  0  0  0  0  0  0  0
    9.8368    7.0341   95.3812 H   0  0  0  0  0  0  0  0  0  0  0  0
    3.8768    4.1676   96.2495 H   0  0  0  0  0  0  0  0  0  0  0  0
    7.0345    1.1423  103.1087 H   0  0  0  0  0  0  0  0  0  0  0  0
    8.5021    0.8882  102.4390 H   0  0  0  0  0  0  0  0  0  0  0  0
    9.3101    3.4092  101.3838 H   0  0  0  0  0  0  0  0  0  0  0  0
    8.0931    4.4389  101.7374 H   0  0  0  0  0  0  0  0  0  0  0  0
   11.6376    1.6424   95.5261 H   0  0  0  0  0  0  0  0  0  0  0  0
   12.5136    2.2469   96.7647 H   0  0  0  0  0  0  0  0  0  0  0  0
    2.1603    3.5032   97.8002 H   0  0  0  0  0  0  0  0  0  0  0  0
    8.3188    5.4454   96.2690 H   0  0  0  0  0  0  0  0  0  0  0  0
   12.8656    4.2159   95.4014 H   0  0  0  0  0  0  0  0  0  0  0  0
    5.0434    1.8151  100.2441 H   0  0  0  0  0  0  0  0  0  0  0  0
    8.7334    0.8828   97.7206 H   0  0  0  0  0  0  0  0  0  0  0  0
    9.1067    0.9674   96.1331 H   0  0  0  0  0  0  0  0  0  0  0  0
    6.4418    2.7606  101.4806 H   0  0  0  0  0  0  0  0  0  0  0  0
  1 22  1  0  0  0  0
  2 21  1  0  0  0  0
  3 21  2  0  0  0  0
  4  6  1  0  0  0  0
  4 23  1  0  0  0  0
  5  7  1  0  0  0  0
  5  8  1  0  0  0  0
  5 24  1  0  0  0  0
  6 29  1  0  0  0  0
  7 25  1  0  0  0  0
  8 29  1  0  0  0  0
  9 13  1  0  0  0  0
  9 14  1  0  0  0  0
 10 15  1  0  0  0  0
 10 20  1  0  0  0  0
 11 17  2  0  0  0  0
 11 22  1  0  0  0  0
 12 16  1  0  0  0  0
 12 23  2  0  0  0  0
 13 25  1  0  0  0  0
 14 25  1  0  0  0  0
 15 27  1  0  0  0  0
 16 26  2  0  0  0  0
 17 28  1  0  0  0  0
 18 22  2  0  0  0  0
 18 27  1  0  0  0  0
 19 24  2  0  0  0  0
 19 26  1  0  0  0  0
 20 29  1  0  0  0  0
 21 26  1  0  0  0  0
 23 24  1  0  0  0  0
 27 28  2  0  0  0  0
 28 29  1  0  0  0  0
  2 30  1  0  0  0  0
  6 31  1  0  0  0  0
  6 32  1  0  0  0  0
  7 33  1  0  0  0  0
  7 34  1  0  0  0  0
  8 35  1  0  0  0  0
  8 36  1  0  0  0  0
  9 37  1  0  0  0  0
  9 38  1  0  0  0  0
 10 39  1  0  0  0  0
 10 40  1  0  0  0  0
 11 41  1  0  0  0  0
 12 42  1  0  0  0  0
 13 43  1  0  0  0  0
 13 44  1  0  0  0  0
 14 45  1  0  0  0  0
 14 46  1  0  0  0  0
 15 47  1  0  0  0  0
 15 48  1  0  0  0  0
 16 49  1  0  0  0  0
 17 50  1  0  0  0  0
 18 51  1  0  0  0  0
 19 52  1  0  0  0  0
 20 53  1  0  0  0  0
 20 54  1  0  0  0  0
 25 55  1  0  0  0  0
M  END
> <pdb_id>
6UDY

> <uniprot_id>
Q07820

> <usmiles>
Clc1cc2c(cc1)[C@@]3(COc4c(N(C3)CC5CCC5)cc(cc4)C(=O)O)CCC2

$$$$
Q57_A_401
          07202413553D 1   1.00000     0.00000     0
            
 59 63  0  0  0  0            999 V2000
   12.4670    6.9269   94.7205 Cl  0  0  0  0  0  0  0  0  0  0  0  0
    1.5605   -0.0205   99.1233 O   0  0  0  0  0  0  0  0  0  0  0  0
    3.0889   -0.4461  100.7090 O   0  0  0  0  0  0  0  0  0  0  0  0
    1.1707    2.3731  100.0193 O   0  0  0  0  0  0  0  0  0  0  0  0
    6.3728    3.7902   96.4965 O   0  0  0  0  0  0  0  0  0  0  0  0
    7.1779    2.4536   98.9688 N   0  0  0  0  0  0  0  0  0  0  0  0
    7.2380    2.7748   96.0454 C   0  0  0  0  0  0  0  0  0  0  0  0
    7.5877    1.5844  100.1190 C   0  0  0  0  0  0  0  0  0  0  0  0
    8.2471    3.2478   98.3397 C   0  0  0  0  0  0  0  0  0  0  0  0
    8.4215    2.7327  103.2979 C   0  0  0  0  0  0  0  0  0  0  0  0
   10.6195    1.3975   97.3172 C   0  0  0  0  0  0  0  0  0  0  0  0
   10.0096    6.2022   95.5977 C   0  0  0  0  0  0  0  0  0  0  0  0
    4.0867    3.6225   97.1939 C   0  0  0  0  0  0  0  0  0  0  0  0
    7.7772    1.4474  102.7009 C   0  0  0  0  0  0  0  0  0  0  0  0
    8.4742    3.3202  101.8658 C   0  0  0  0  0  0  0  0  0  0  0  0
   11.4444    2.2169   96.3005 C   0  0  0  0  0  0  0  0  0  0  0  0
    3.0801    3.1673   98.0748 C   0  0  0  0  0  0  0  0  0  0  0  0
    9.0962    5.2538   96.1156 C   0  0  0  0  0  0  0  0  0  0  0  0
   11.7737    4.5146   95.5622 C   0  0  0  0  0  0  0  0  0  0  0  0
    4.7975    2.1926   99.4774 C   0  0  0  0  0  0  0  0  0  0  0  0
    9.1158    1.4314   96.9578 C   0  0  0  0  0  0  0  0  0  0  0  0
    2.3018    0.3895   99.9455 C   0  0  0  0  0  0  0  0  0  0  0  0
   11.3280    5.8057   95.3368 C   0  0  0  0  0  0  0  0  0  0  0  0
    2.4474    1.8644  100.2498 C   0  0  1  0  0  0  0  0  0  0  0  0
    5.4499    3.3672   97.4468 C   0  0  0  0  0  0  0  0  0  0  0  0
    5.8359    2.6416   98.6276 C   0  0  0  0  0  0  0  0  0  0  0  0
    7.3917    2.2813  101.4556 C   0  0  0  0  0  0  0  0  0  0  0  0
    3.4338    2.4338   99.2334 C   0  0  0  0  0  0  0  0  0  0  0  0
   10.8738    3.5808   96.0671 C   0  0  0  0  0  0  0  0  0  0  0  0
    9.5125    3.9185   96.3546 C   0  0  0  0  0  0  0  0  0  0  0  0
    8.5374    2.8517   96.9037 C   0  0  1  0  0  0  0  0  0  0  0  0
    1.0051    0.6164   98.5886 H   0  0  0  0  0  0  0  0  0  0  0  0
    1.1670    3.3572  100.1969 H   0  0  0  0  0  0  0  0  0  0  0  0
    7.4573    2.9169   95.0801 H   0  0  0  0  0  0  0  0  0  0  0  0
    6.8049    1.8809   96.1607 H   0  0  0  0  0  0  0  0  0  0  0  0
    8.5538    1.3474  100.0167 H   0  0  0  0  0  0  0  0  0  0  0  0
    7.0366    0.7500  100.1057 H   0  0  0  0  0  0  0  0  0  0  0  0
    9.0837    3.1307   98.8747 H   0  0  0  0  0  0  0  0  0  0  0  0
    7.9749    4.2100   98.3528 H   0  0  0  0  0  0  0  0  0  0  0  0
    9.3168    2.5893  103.7195 H   0  0  0  0  0  0  0  0  0  0  0  0
    7.8320    3.2358  103.9300 H   0  0  0  0  0  0  0  0  0  0  0  0
   10.7471    1.7841   98.2305 H   0  0  0  0  0  0  0  0  0  0  0  0
   10.9373    0.4494   97.3091 H   0  0  0  0  0  0  0  0  0  0  0  0
    9.7184    7.1423   95.4204 H   0  0  0  0  0  0  0  0  0  0  0  0
    3.8273    4.1354   96.3756 H   0  0  0  0  0  0  0  0  0  0  0  0
    6.9995    1.0933  103.2203 H   0  0  0  0  0  0  0  0  0  0  0  0
    8.4227    0.7053  102.5199 H   0  0  0  0  0  0  0  0  0  0  0  0
    9.3537    3.2078  101.4032 H   0  0  0  0  0  0  0  0  0  0  0  0
    8.1812    4.2739  101.7973 H   0  0  0  0  0  0  0  0  0  0  0  0
   11.4629    1.7238   95.4307 H   0  0  0  0  0  0  0  0  0  0  0  0
   12.3769    2.3145   96.6483 H   0  0  0  0  0  0  0  0  0  0  0  0
    2.1189    3.3629   97.8802 H   0  0  0  0  0  0  0  0  0  0  0  0
    8.1543    5.5253   96.3137 H   0  0  0  0  0  0  0  0  0  0  0  0
   12.7205    4.2588   95.3666 H   0  0  0  0  0  0  0  0  0  0  0  0
    5.0470    1.6755  100.2961 H   0  0  0  0  0  0  0  0  0  0  0  0
    8.6128    0.9098   97.6469 H   0  0  0  0  0  0  0  0  0  0  0  0
    8.9938    1.0045   96.0618 H   0  0  0  0  0  0  0  0  0  0  0  0
    2.7478    2.0231  101.1903 H   0  0  0  0  0  0  0  0  0  0  0  0
    6.4700    2.6601  101.5395 H   0  0  0  0  0  0  0  0  0  0  0  0
  1 23  1  0  0  0  0
  2 22  1  0  0  0  0
  3 22  2  0  0  0  0
  4 24  1  0  0  0  0
  5  7  1  0  0  0  0
  5 25  1  0  0  0  0
  6  8  1  0  0  0  0
  6  9  1  0  0  0  0
  6 26  1  0  0  0  0
  7 31  1  0  0  0  0
  8 27  1  0  0  0  0
  9 31  1  0  0  0  0
 10 14  1  0  0  0  0
 10 15  1  0  0  0  0
 11 16  1  0  0  0  0
 11 21  1  0  0  0  0
 12 18  2  0  0  0  0
 12 23  1  0  0  0  0
 13 17  1  0  0  0  0
 13 25  2  0  0  0  0
 14 27  1  0  0  0  0
 15 27  1  0  0  0  0
 16 29  1  0  0  0  0
 17 28  2  0  0  0  0
 18 30  1  0  0  0  0
 19 23  2  0  0  0  0
 19 29  1  0  0  0  0
 20 26  2  0  0  0  0
 20 28  1  0  0  0  0
 21 31  1  0  0  0  0
 22 24  1  0  0  0  0
 24 28  1  0  0  0  0
 25 26  1  0  0  0  0
 29 30  2  0  0  0  0
 30 31  1  0  0  0  0
  2 32  1  0  0  0  0
  4 33  1  0  0  0  0
  7 34  1  0  0  0  0
  7 35  1  0  0  0  0
  8 36  1  0  0  0  0
  8 37  1  0  0  0  0
  9 38  1  0  0  0  0
  9 39  1  0  0  0  0
 10 40  1  0  0  0  0
 10 41  1  0  0  0  0
 11 42  1  0  0  0  0
 11 43  1  0  0  0  0
 12 44  1  0  0  0  0
 13 45  1  0  0  0  0
 14 46  1  0  0  0  0
 14 47  1  0  0  0  0
 15 48  1  0  0  0  0
 15 49  1  0  0  0  0
 16 50  1  0  0  0  0
 16 51  1  0  0  0  0
 17 52  1  0  0  0  0
 18 53  1  0  0  0  0
 19 54  1  0  0  0  0
 20 55  1  0  0  0  0
 21 56  1  0  0  0  0
 21 57  1  0  0  0  0
 24 58  1  0  0  0  0
 27 59  1  0  0  0  0
M  END
> <pdb_id>
6UDX

> <uniprot_id>
Q07820

> <usmiles>
Clc1cc2c(cc1)[C@@]3(COc4c(N(C3)CC5CCC5)cc(cc4)[C@@H](O)C(=O)O)CCC2

$$$$
Q67_A_602
          07212402413D 1   1.00000     0.00000     0
            
 45 48  0  0  0  0            999 V2000
  128.0416   16.5356    6.0657 Cl  0  0  0  0  0  0  0  0  0  0  0  0
  130.3738   14.8000    7.3482 Cl  0  0  0  0  0  0  0  0  0  0  0  0
  133.6469   13.7440    4.2112 O   0  0  0  0  0  0  0  0  0  0  0  0
  136.5977   13.3304   -1.4717 O   0  0  0  0  0  0  0  0  0  0  0  0
  135.6955    9.4741   -4.7959 N   0  0  0  0  0  0  0  0  0  0  0  0
  135.3861   15.0794    3.5536 N   0  0  0  0  0  0  0  0  0  0  0  0
  135.1909   12.0281   -0.3629 N   0  0  0  0  0  0  0  0  0  0  0  0
  133.0170   15.3928    6.2318 N   0  0  0  0  0  0  0  0  0  0  0  0
  135.3264   14.7258    6.7172 C   0  0  0  0  0  0  0  0  0  0  0  0
  134.9609    9.2210   -3.6980 C   0  0  0  0  0  0  0  0  0  0  0  0
  136.4637   10.5667   -4.8951 C   0  0  0  0  0  0  0  0  0  0  0  0
  131.3355   17.8200    4.0832 C   0  0  0  0  0  0  0  0  0  0  0  0
  130.0160   17.6558    4.4976 C   0  0  0  0  0  0  0  0  0  0  0  0
  136.9081   14.9984    0.2354 C   0  0  0  0  0  0  0  0  0  0  0  0
  134.9938   10.0999   -2.6174 C   0  0  0  0  0  0  0  0  0  0  0  0
  136.5330   11.4804   -3.8474 C   0  0  0  0  0  0  0  0  0  0  0  0
  132.3469   17.0660    4.6547 C   0  0  0  0  0  0  0  0  0  0  0  0
  136.5543   15.3779    1.5278 C   0  0  0  0  0  0  0  0  0  0  0  0
  135.1427   13.4458    1.7560 C   0  0  0  0  0  0  0  0  0  0  0  0
  134.4449   14.6522    4.4064 C   0  0  0  0  0  0  0  0  0  0  0  0
  129.7287   16.7456    5.5017 C   0  0  0  0  0  0  0  0  0  0  0  0
  130.7412   15.9995    6.0682 C   0  0  0  0  0  0  0  0  0  0  0  0
  135.8533   12.1788   -1.5540 C   0  0  0  0  0  0  0  0  0  0  0  0
  136.3680   13.8392   -0.2768 C   0  0  0  0  0  0  0  0  0  0  0  0
  135.6685   14.6252    2.2969 C   0  0  0  0  0  0  0  0  0  0  0  0
  134.3803   15.3834    5.7158 C   0  0  1  0  0  0  0  0  0  0  0  0
  132.0506   16.1508    5.6568 C   0  0  0  0  0  0  0  0  0  0  0  0
  135.4996   13.0683    0.4616 C   0  0  0  0  0  0  0  0  0  0  0  0
  135.7910   11.2415   -2.7015 C   0  0  0  0  0  0  0  0  0  0  0  0
  135.9583   15.8313    3.8811 H   0  0  0  0  0  0  0  0  0  0  0  0
  132.7898   14.8290    7.0259 H   0  0  0  0  0  0  0  0  0  0  0  0
  136.2559   14.7276    6.3483 H   0  0  0  0  0  0  0  0  0  0  0  0
  135.3082   15.2356    7.5773 H   0  0  0  0  0  0  0  0  0  0  0  0
  135.0349   13.7835    6.8819 H   0  0  0  0  0  0  0  0  0  0  0  0
  134.3904    8.4007   -3.6572 H   0  0  0  0  0  0  0  0  0  0  0  0
  136.9920   10.7274   -5.7289 H   0  0  0  0  0  0  0  0  0  0  0  0
  131.5537   18.4856    3.3694 H   0  0  0  0  0  0  0  0  0  0  0  0
  129.2836   18.1893    4.0747 H   0  0  0  0  0  0  0  0  0  0  0  0
  137.5384   15.5536   -0.3073 H   0  0  0  0  0  0  0  0  0  0  0  0
  134.4551    9.9154   -1.7954 H   0  0  0  0  0  0  0  0  0  0  0  0
  137.1083   12.2951   -3.9202 H   0  0  0  0  0  0  0  0  0  0  0  0
  133.2911   17.1804    4.3457 H   0  0  0  0  0  0  0  0  0  0  0  0
  136.9461   16.2128    1.9143 H   0  0  0  0  0  0  0  0  0  0  0  0
  134.5172   12.8794    2.2926 H   0  0  0  0  0  0  0  0  0  0  0  0
  134.6742   16.3281    5.5700 H   0  0  0  0  0  0  0  0  0  0  0  0
  1 21  1  0  0  0  0
  2 22  1  0  0  0  0
  3 20  2  0  0  0  0
  4 23  1  0  0  0  0
  4 24  1  0  0  0  0
  5 10  2  0  0  0  0
  5 11  1  0  0  0  0
  6 20  1  0  0  0  0
  6 25  1  0  0  0  0
  7 23  2  0  0  0  0
  7 28  1  0  0  0  0
  8 26  1  0  0  0  0
  8 27  1  0  0  0  0
  9 26  1  0  0  0  0
 10 15  1  0  0  0  0
 11 16  2  0  0  0  0
 12 13  2  0  0  0  0
 12 17  1  0  0  0  0
 13 21  1  0  0  0  0
 14 18  1  0  0  0  0
 14 24  2  0  0  0  0
 15 29  2  0  0  0  0
 16 29  1  0  0  0  0
 17 27  2  0  0  0  0
 18 25  2  0  0  0  0
 19 25  1  0  0  0  0
 19 28  2  0  0  0  0
 20 26  1  0  0  0  0
 21 22  2  0  0  0  0
 22 27  1  0  0  0  0
 23 29  1  0  0  0  0
 24 28  1  0  0  0  0
  6 30  1  0  0  0  0
  8 31  1  0  0  0  0
  9 32  1  0  0  0  0
  9 33  1  0  0  0  0
  9 34  1  0  0  0  0
 10 35  1  0  0  0  0
 11 36  1  0  0  0  0
 12 37  1  0  0  0  0
 13 38  1  0  0  0  0
 14 39  1  0  0  0  0
 15 40  1  0  0  0  0
 16 41  1  0  0  0  0
 17 42  1  0  0  0  0
 18 43  1  0  0  0  0
 19 44  1  0  0  0  0
 26 45  1  0  0  0  0
M  END
> <pdb_id>
4ZQO

> <uniprot_id>
P9WKI7

> <usmiles>
Clc1c(Cl)cccc1N[C@H](C(=O)Nc2cc3N=C(Oc3cc2)c4ccncc4)C

$$$$
Q71_A_302
          07192416293D 1   1.00000     0.00000     0
            
 19 20  0  0  0  0            999 V2000
   -6.1669    1.1561   16.9288 S   0  0  0  0  0  0  0  0  0  0  0  0
   -6.2890    6.0965   15.8175 F   0  0  0  0  0  0  0  0  0  0  0  0
   -5.4912    1.0607   18.2455 O   0  0  0  0  0  0  0  0  0  0  0  0
   -7.6432    1.1427   16.9824 O   0  0  0  0  0  0  0  0  0  0  0  0
   -3.9433   -0.8959   14.8410 O   0  0  0  0  0  0  0  0  0  0  0  0
   -5.6154   -0.0830   16.1183 N   0  0  0  0  0  0  0  0  0  0  0  0
   -3.8338    1.2907   14.8981 N   0  0  0  0  0  0  0  0  0  0  0  0
   -4.5361    4.8679   14.9153 C   0  0  0  0  0  0  0  0  0  0  0  0
   -3.9656    3.6539   14.6898 C   0  0  0  0  0  0  0  0  0  0  0  0
   -6.2509    3.7712   16.2723 C   0  0  0  0  0  0  0  0  0  0  0  0
   -4.4262    0.0092   15.3434 C   0  0  0  0  0  0  0  0  0  0  0  0
   -5.6699    2.5083   16.1119 C   0  0  0  0  0  0  0  0  0  0  0  0
   -5.6648    4.8935   15.6922 C   0  0  0  0  0  0  0  0  0  0  0  0
   -4.5737    2.5518   15.2818 C   0  0  0  0  0  0  0  0  0  0  0  0
   -3.2335    1.3058   14.2832 H   0  0  0  0  0  0  0  0  0  0  0  0
   -4.2091    5.6387   14.5090 H   0  0  0  0  0  0  0  0  0  0  0  0
   -3.2947    3.5487   14.0545 H   0  0  0  0  0  0  0  0  0  0  0  0
   -6.9567    3.8785   16.8675 H   0  0  0  0  0  0  0  0  0  0  0  0
   -6.1128   -0.9499   16.1507 H   0  0  0  0  0  0  0  0  0  0  0  0
  1  3  2  0  0  0  0
  1  4  2  0  0  0  0
  1  6  1  0  0  0  0
  1 12  1  0  0  0  0
  2 13  1  0  0  0  0
  5 11  2  0  0  0  0
  6 11  1  0  0  0  0
  7 11  1  0  0  0  0
  7 14  1  0  0  0  0
  7 15  1  0  0  0  0
  8  9  1  0  0  0  0
  8 13  2  0  0  0  0
  8 16  1  0  0  0  0
  9 14  2  0  0  0  0
  9 17  1  0  0  0  0
 10 12  2  0  0  0  0
 10 13  1  0  0  0  0
 10 18  1  0  0  0  0
 12 14  1  0  0  0  0
  6 19  1  0  0  0  0
M  END
> <pdb_id>
6UGR

> <uniprot_id>
P00918

> <usmiles>
S1(=O)(=O)NC(=O)Nc2c1cc(F)cc2

$$$$
Q77_A_302
          07192416293D 1   1.00000     0.00000     0
            
 25 26  0  0  0  0            999 V2000
   -5.9706    1.1924   16.7771 S   0  0  0  0  0  0  0  0  0  0  0  0
   -7.4296    1.1815   16.7616 O   0  0  0  0  0  0  0  0  0  0  0  0
   -5.3924    1.0910   18.1039 O   0  0  0  0  0  0  0  0  0  0  0  0
   -3.6975   -0.9273   14.7710 O   0  0  0  0  0  0  0  0  0  0  0  0
   -5.3920   -0.0984   16.0508 N   0  0  0  0  0  0  0  0  0  0  0  0
   -3.6054    1.2857   14.7933 N   0  0  0  0  0  0  0  0  0  0  0  0
   -5.8640    6.3615   16.1396 C   0  0  0  0  0  0  0  0  0  0  0  0
   -2.4860    3.6194   13.7641 C   0  0  0  0  0  0  0  0  0  0  0  0
   -5.9442    3.8201   16.3318 C   0  0  0  0  0  0  0  0  0  0  0  0
   -4.2381    4.9394   14.9775 C   0  0  0  0  0  0  0  0  0  0  0  0
   -4.2098   -0.0161   15.2380 C   0  0  0  0  0  0  0  0  0  0  0  0
   -5.3879    2.5586   16.0654 C   0  0  0  0  0  0  0  0  0  0  0  0
   -4.3035    2.5860   15.2220 C   0  0  0  0  0  0  0  0  0  0  0  0
   -5.3403    4.9750   15.7979 C   0  0  0  0  0  0  0  0  0  0  0  0
   -3.6858    3.7278   14.7032 C   0  0  0  0  0  0  0  0  0  0  0  0
   -2.9665    1.2996   14.2166 H   0  0  0  0  0  0  0  0  0  0  0  0
   -5.6792    6.9668   15.4046 H   0  0  0  0  0  0  0  0  0  0  0  0
   -5.4260    6.6841   16.9424 H   0  0  0  0  0  0  0  0  0  0  0  0
   -6.8207    6.3173   16.2887 H   0  0  0  0  0  0  0  0  0  0  0  0
   -2.2244    4.5059   13.4700 H   0  0  0  0  0  0  0  0  0  0  0  0
   -2.7271    3.0808   12.9929 H   0  0  0  0  0  0  0  0  0  0  0  0
   -1.7464    3.2015   14.2312 H   0  0  0  0  0  0  0  0  0  0  0  0
   -6.6482    3.9001   16.9343 H   0  0  0  0  0  0  0  0  0  0  0  0
   -3.8484    5.7239   14.6658 H   0  0  0  0  0  0  0  0  0  0  0  0
   -5.8560   -0.9774   16.1609 H   0  0  0  0  0  0  0  0  0  0  0  0
  1  2  2  0  0  0  0
  1  3  2  0  0  0  0
  1  5  1  0  0  0  0
  1 12  1  0  0  0  0
  4 11  2  0  0  0  0
  5 11  1  0  0  0  0
  6 11  1  0  0  0  0
  6 13  1  0  0  0  0
  6 16  1  0  0  0  0
  7 14  1  0  0  0  0
  7 17  1  0  0  0  0
  7 18  1  0  0  0  0
  7 19  1  0  0  0  0
  8 15  1  0  0  0  0
  8 20  1  0  0  0  0
  8 21  1  0  0  0  0
  8 22  1  0  0  0  0
  9 12  1  0  0  0  0
  9 14  2  0  0  0  0
  9 23  1  0  0  0  0
 10 14  1  0  0  0  0
 10 15  2  0  0  0  0
 10 24  1  0  0  0  0
 12 13  2  0  0  0  0
 13 15  1  0  0  0  0
  5 25  1  0  0  0  0
M  END
> <pdb_id>
6UGN

> <uniprot_id>
P00918

> <usmiles>
S1(=O)(=O)NC(=O)Nc2c1cc(cc2C)C

$$$$
Q7A_A_302
          07192416293D 1   1.00000     0.00000     0
            
 19 20  0  0  0  0            999 V2000
   -2.5665    3.9582   13.9421 Cl  0  0  0  0  0  0  0  0  0  0  0  0
   -6.1981    1.1834   16.8194 S   0  0  0  0  0  0  0  0  0  0  0  0
   -5.5018    1.1467   18.1279 O   0  0  0  0  0  0  0  0  0  0  0  0
   -7.6375    1.1311   16.9578 O   0  0  0  0  0  0  0  0  0  0  0  0
   -3.7043   -0.7901   15.0352 O   0  0  0  0  0  0  0  0  0  0  0  0
   -5.5236   -0.1001   16.1919 N   0  0  0  0  0  0  0  0  0  0  0  0
   -3.7767    1.4549   14.9859 N   0  0  0  0  0  0  0  0  0  0  0  0
   -5.9397    4.9553   15.9845 C   0  0  0  0  0  0  0  0  0  0  0  0
   -4.8717    5.0225   15.0863 C   0  0  0  0  0  0  0  0  0  0  0  0
   -6.4131    3.7174   16.4126 C   0  0  0  0  0  0  0  0  0  0  0  0
   -4.3135    0.0962   15.4124 C   0  0  0  0  0  0  0  0  0  0  0  0
   -4.0945    3.9095   14.8823 C   0  0  0  0  0  0  0  0  0  0  0  0
   -5.7128    2.5802   16.1306 C   0  0  0  0  0  0  0  0  0  0  0  0
   -4.5869    2.7028   15.3633 C   0  0  0  0  0  0  0  0  0  0  0  0
   -3.1006    1.5129   14.4650 H   0  0  0  0  0  0  0  0  0  0  0  0
   -6.3949    5.7295   16.2114 H   0  0  0  0  0  0  0  0  0  0  0  0
   -4.4970    5.8508   14.9116 H   0  0  0  0  0  0  0  0  0  0  0  0
   -7.1572    3.6808   16.9633 H   0  0  0  0  0  0  0  0  0  0  0  0
   -5.9139   -1.0110   16.3259 H   0  0  0  0  0  0  0  0  0  0  0  0
  1 12  1  0  0  0  0
  2  3  2  0  0  0  0
  2  4  2  0  0  0  0
  2  6  1  0  0  0  0
  2 13  1  0  0  0  0
  5 11  2  0  0  0  0
  6 11  1  0  0  0  0
  7 11  1  0  0  0  0
  7 14  1  0  0  0  0
  7 15  1  0  0  0  0
  8  9  2  0  0  0  0
  8 10  1  0  0  0  0
  8 16  1  0  0  0  0
  9 12  1  0  0  0  0
  9 17  1  0  0  0  0
 10 13  2  0  0  0  0
 10 18  1  0  0  0  0
 12 14  2  0  0  0  0
 13 14  1  0  0  0  0
  6 19  1  0  0  0  0
M  END
> <pdb_id>
6UGP

> <uniprot_id>
P00918

> <usmiles>
Clc1c2NC(=O)NS(=O)(=O)c2ccc1

$$$$
Q7Z_A_517
          07202416103D 1   1.00000     0.00000     0
            
 63 66  0  0  0  0            999 V2000
   36.4230   30.7460   20.9900 O   0  0  0  0  0  0  0  0  0  0  0  0
   35.4180   37.3270   21.7340 O   0  0  0  0  0  0  0  0  0  0  0  0
   35.3020   35.0050   19.7870 O   0  0  0  0  0  0  0  0  0  0  0  0
   34.4720   32.5150   20.2320 O   0  0  0  0  0  0  0  0  0  0  0  0
   36.9470   30.9780   11.9900 N   0  0  0  0  0  0  0  0  0  0  0  0
   36.5010   32.1530   14.0380 N   0  0  0  0  0  0  0  0  0  0  0  0
   37.1040   28.5550   12.1680 N   0  0  0  0  0  0  0  0  0  0  0  0
   36.3500   30.9910   16.0730 N   0  0  0  0  0  0  0  0  0  0  0  0
   37.1210   28.2160   16.8010 N   0  0  0  0  0  0  0  0  0  0  0  0
   35.1600   28.9230   20.5880 N   0  0  0  0  0  0  0  0  0  0  0  0
   36.6870   36.6780   21.8460 C   0  0  0  0  0  0  0  0  0  0  0  0
   38.5920   27.9020   16.7580 C   0  0  0  0  0  0  0  0  0  0  0  0
   33.8760   28.2740   20.3020 C   0  0  0  0  0  0  0  0  0  0  0  0
   36.7150   32.0670   12.7230 C   0  0  0  0  0  0  0  0  0  0  0  0
   34.8070   37.2150   20.4720 C   0  0  0  0  0  0  0  0  0  0  0  0
   35.5550   36.3780   19.4680 C   0  0  0  0  0  0  0  0  0  0  0  0
   34.1180   31.1630   20.5650 C   0  0  0  0  0  0  0  0  0  0  0  0
   36.9670   27.6630   13.2050 C   0  0  0  0  0  0  0  0  0  0  0  0
   36.4600   27.7650   18.0550 C   0  0  0  0  0  0  0  0  0  0  0  0
   36.3370   28.0610   20.5800 C   0  0  0  0  0  0  0  0  0  0  0  0
   36.4190   27.6240   15.6690 C   0  0  0  0  0  0  0  0  0  0  0  0
   37.1750   28.1810   19.3080 C   0  0  0  0  0  0  0  0  0  0  0  0
   36.4340   34.3110   17.7270 C   0  0  0  0  0  0  0  0  0  0  0  0
   36.6990   33.3130   16.8060 C   0  0  0  0  0  0  0  0  0  0  0  0
   35.3940   31.7640   18.1120 C   0  0  0  0  0  0  0  0  0  0  0  0
   35.3200   30.2540   20.7470 C   0  0  0  0  0  0  0  0  0  0  0  0
   36.9270   29.8120   12.6650 C   0  0  0  0  0  0  0  0  0  0  0  0
   36.5040   30.9710   14.7020 C   0  0  0  0  0  0  0  0  0  0  0  0
   35.6910   34.0420   18.8690 C   0  0  0  0  0  0  0  0  0  0  0  0
   35.1760   32.7470   19.0680 C   0  0  0  0  0  0  0  0  0  0  0  0
   36.1680   32.0390   16.9800 C   0  0  0  0  0  0  0  0  0  0  0  0
   36.6970   28.3250   14.3710 C   0  0  0  0  0  0  0  0  0  0  0  0
   36.6830   29.7110   14.0440 C   0  0  0  0  0  0  0  0  0  0  0  0
   37.2994   28.3224   11.2153 H   0  0  0  0  0  0  0  0  0  0  0  0
   36.3729   30.0859   16.4975 H   0  0  0  0  0  0  0  0  0  0  0  0
   37.0471   36.8073   22.7699 H   0  0  0  0  0  0  0  0  0  0  0  0
   36.5788   35.7006   21.6642 H   0  0  0  0  0  0  0  0  0  0  0  0
   37.3227   37.0721   21.1823 H   0  0  0  0  0  0  0  0  0  0  0  0
   38.9774   28.2283   15.8949 H   0  0  0  0  0  0  0  0  0  0  0  0
   39.0521   28.3557   17.5211 H   0  0  0  0  0  0  0  0  0  0  0  0
   38.7240   26.9133   16.8294 H   0  0  0  0  0  0  0  0  0  0  0  0
   33.1441   28.9546   20.3338 H   0  0  0  0  0  0  0  0  0  0  0  0
   33.9070   27.8601   19.3922 H   0  0  0  0  0  0  0  0  0  0  0  0
   33.7015   27.5648   20.9850 H   0  0  0  0  0  0  0  0  0  0  0  0
   36.6992   32.9326   12.2225 H   0  0  0  0  0  0  0  0  0  0  0  0
   34.7073   38.1354   20.0941 H   0  0  0  0  0  0  0  0  0  0  0  0
   33.9028   36.8080   20.6014 H   0  0  0  0  0  0  0  0  0  0  0  0
   35.2305   36.5803   18.5440 H   0  0  0  0  0  0  0  0  0  0  0  0
   36.5351   36.5680   19.5261 H   0  0  0  0  0  0  0  0  0  0  0  0
   33.5494   30.7937   19.8299 H   0  0  0  0  0  0  0  0  0  0  0  0
   33.5956   31.1727   21.4177 H   0  0  0  0  0  0  0  0  0  0  0  0
   37.0526   26.6704   13.1190 H   0  0  0  0  0  0  0  0  0  0  0  0
   36.4067   26.7665   18.0405 H   0  0  0  0  0  0  0  0  0  0  0  0
   35.5365   28.1478   18.0785 H   0  0  0  0  0  0  0  0  0  0  0  0
   36.0345   27.1122   20.6709 H   0  0  0  0  0  0  0  0  0  0  0  0
   36.9119   28.3038   21.3613 H   0  0  0  0  0  0  0  0  0  0  0  0
   35.4360   27.6640   15.8480 H   0  0  0  0  0  0  0  0  0  0  0  0
   36.7034   26.6692   15.5822 H   0  0  0  0  0  0  0  0  0  0  0  0
   37.4550   29.1356   19.2064 H   0  0  0  0  0  0  0  0  0  0  0  0
   37.9858   27.6050   19.4117 H   0  0  0  0  0  0  0  0  0  0  0  0
   36.7810   35.2354   17.5687 H   0  0  0  0  0  0  0  0  0  0  0  0
   37.2746   33.5083   16.0120 H   0  0  0  0  0  0  0  0  0  0  0  0
   34.9956   30.8549   18.2334 H   0  0  0  0  0  0  0  0  0  0  0  0
  1 26  2  0  0  0  0
  2 11  1  0  0  0  0
  2 15  1  0  0  0  0
  3 16  1  0  0  0  0
  3 29  1  0  0  0  0
  4 17  1  0  0  0  0
  4 30  1  0  0  0  0
  5 14  2  0  0  0  0
  5 27  1  0  0  0  0
  6 14  1  0  0  0  0
  6 28  2  0  0  0  0
  7 18  1  0  0  0  0
  7 27  1  0  0  0  0
  8 28  1  0  0  0  0
  8 31  1  0  0  0  0
  9 12  1  0  0  0  0
  9 19  1  0  0  0  0
  9 21  1  0  0  0  0
 10 13  1  0  0  0  0
 10 20  1  0  0  0  0
 10 26  1  0  0  0  0
 15 16  1  0  0  0  0
 17 26  1  0  0  0  0
 18 32  2  0  0  0  0
 19 22  1  0  0  0  0
 20 22  1  0  0  0  0
 21 32  1  0  0  0  0
 23 24  1  0  0  0  0
 23 29  2  0  0  0  0
 24 31  2  0  0  0  0
 25 30  2  0  0  0  0
 25 31  1  0  0  0  0
 27 33  2  0  0  0  0
 28 33  1  0  0  0  0
 29 30  1  0  0  0  0
 32 33  1  0  0  0  0
  7 34  1  0  0  0  0
  8 35  1  0  0  0  0
 11 36  1  0  0  0  0
 11 37  1  0  0  0  0
 11 38  1  0  0  0  0
 12 39  1  0  0  0  0
 12 40  1  0  0  0  0
 12 41  1  0  0  0  0
 13 42  1  0  0  0  0
 13 43  1  0  0  0  0
 13 44  1  0  0  0  0
 14 45  1  0  0  0  0
 15 46  1  0  0  0  0
 15 47  1  0  0  0  0
 16 48  1  0  0  0  0
 16 49  1  0  0  0  0
 17 50  1  0  0  0  0
 17 51  1  0  0  0  0
 18 52  1  0  0  0  0
 19 53  1  0  0  0  0
 19 54  1  0  0  0  0
 20 55  1  0  0  0  0
 20 56  1  0  0  0  0
 21 57  1  0  0  0  0
 21 58  1  0  0  0  0
 22 59  1  0  0  0  0
 22 60  1  0  0  0  0
 23 61  1  0  0  0  0
 24 62  1  0  0  0  0
 25 63  1  0  0  0  0
M  END
> <pdb_id>
6Z53

> <uniprot_id>
P49761

> <usmiles>
O=C1N(CCCN(CC=2c3c(ncnc3NC2)Nc4cc(OC1)c(OCCOC)cc4)C)C

$$$$
Q7Z_A_803
          07202416103D 1   1.00000     0.00000     0
            
 63 66  0  0  0  0            999 V2000
   28.0140   32.0500   14.2220 O   0  0  0  0  0  0  0  0  0  0  0  0
   30.4570   27.6930   16.4490 O   0  0  0  0  0  0  0  0  0  0  0  0
   29.2670   27.7140   13.8680 O   0  0  0  0  0  0  0  0  0  0  0  0
   27.5290   29.5760   13.3430 O   0  0  0  0  0  0  0  0  0  0  0  0
   32.4190   30.9570    6.1260 N   0  0  0  0  0  0  0  0  0  0  0  0
   31.9040   30.2590    8.3590 N   0  0  0  0  0  0  0  0  0  0  0  0
   30.9410   32.6970    5.3320 N   0  0  0  0  0  0  0  0  0  0  0  0
   30.1130   31.1150    9.5900 N   0  0  0  0  0  0  0  0  0  0  0  0
   27.9200   33.1340    8.7760 N   0  0  0  0  0  0  0  0  0  0  0  0
   26.6390   33.1590   12.8370 N   0  0  0  0  0  0  0  0  0  0  0  0
   30.3780   27.5360   17.8820 C   0  0  0  0  0  0  0  0  0  0  0  0
   27.0520   32.7830    7.6440 C   0  0  0  0  0  0  0  0  0  0  0  0
   27.1930   34.4800   13.1860 C   0  0  0  0  0  0  0  0  0  0  0  0
   32.5810   30.2170    7.2180 C   0  0  0  0  0  0  0  0  0  0  0  0
   30.1040   26.5270   15.7490 C   0  0  0  0  0  0  0  0  0  0  0  0
   30.2340   26.7500   14.2890 C   0  0  0  0  0  0  0  0  0  0  0  0
   26.5230   30.6530   13.1050 C   0  0  0  0  0  0  0  0  0  0  0  0
   29.9190   33.4300    5.8860 C   0  0  0  0  0  0  0  0  0  0  0  0
   27.2420   33.7000    9.9240 C   0  0  0  0  0  0  0  0  0  0  0  0
   25.6140   33.1780   11.7990 C   0  0  0  0  0  0  0  0  0  0  0  0
   29.0300   33.9480    8.3050 C   0  0  0  0  0  0  0  0  0  0  0  0
   26.0690   32.8580   10.3940 C   0  0  0  0  0  0  0  0  0  0  0  0
   30.6460   28.3320   11.9640 C   0  0  0  0  0  0  0  0  0  0  0  0
   30.8450   29.1600   10.8810 C   0  0  0  0  0  0  0  0  0  0  0  0
   28.8260   30.3520   11.4330 C   0  0  0  0  0  0  0  0  0  0  0  0
   27.0980   32.0270   13.4240 C   0  0  0  0  0  0  0  0  0  0  0  0
   31.4160   31.8360    6.2730 C   0  0  0  0  0  0  0  0  0  0  0  0
   30.8990   31.1430    8.4640 C   0  0  0  0  0  0  0  0  0  0  0  0
   29.5340   28.4820   12.7730 C   0  0  0  0  0  0  0  0  0  0  0  0
   28.6160   29.5030   12.5070 C   0  0  0  0  0  0  0  0  0  0  0  0
   29.9370   30.1830   10.6100 C   0  0  0  0  0  0  0  0  0  0  0  0
   29.7400   33.0900    7.1960 C   0  0  0  0  0  0  0  0  0  0  0  0
   30.6230   32.0190    7.4420 C   0  0  0  0  0  0  0  0  0  0  0  0
   31.2790   32.7820    4.3947 H   0  0  0  0  0  0  0  0  0  0  0  0
   29.5500   31.9341    9.7005 H   0  0  0  0  0  0  0  0  0  0  0  0
   30.6389   28.3931   18.3261 H   0  0  0  0  0  0  0  0  0  0  0  0
   29.4416   27.2984   18.1402 H   0  0  0  0  0  0  0  0  0  0  0  0
   30.9988   26.8077   18.1723 H   0  0  0  0  0  0  0  0  0  0  0  0
   27.6067   32.4023    6.9041 H   0  0  0  0  0  0  0  0  0  0  0  0
   26.3783   32.1051    7.9382 H   0  0  0  0  0  0  0  0  0  0  0  0
   26.5801   33.6026    7.3191 H   0  0  0  0  0  0  0  0  0  0  0  0
   27.8841   34.3733   13.9008 H   0  0  0  0  0  0  0  0  0  0  0  0
   27.6118   34.8904   12.3760 H   0  0  0  0  0  0  0  0  0  0  0  0
   26.4588   35.0723   13.5179 H   0  0  0  0  0  0  0  0  0  0  0  0
   33.3121   29.5362    7.1741 H   0  0  0  0  0  0  0  0  0  0  0  0
   29.1575   26.2861   15.9638 H   0  0  0  0  0  0  0  0  0  0  0  0
   30.7089   25.7799   16.0246 H   0  0  0  0  0  0  0  0  0  0  0  0
   31.1527   27.0874   14.0836 H   0  0  0  0  0  0  0  0  0  0  0  0
   30.0792   25.8888   13.8049 H   0  0  0  0  0  0  0  0  0  0  0  0
   25.7268   30.4897   13.6876 H   0  0  0  0  0  0  0  0  0  0  0  0
   26.2436   30.6316   12.1451 H   0  0  0  0  0  0  0  0  0  0  0  0
   29.3812   34.1170    5.3974 H   0  0  0  0  0  0  0  0  0  0  0  0
   26.9041   34.6087    9.6787 H   0  0  0  0  0  0  0  0  0  0  0  0
   27.8981   33.7797   10.6744 H   0  0  0  0  0  0  0  0  0  0  0  0
   25.2115   34.0933   11.7866 H   0  0  0  0  0  0  0  0  0  0  0  0
   24.9143   32.5095   12.0511 H   0  0  0  0  0  0  0  0  0  0  0  0
   29.6628   34.1431    9.0543 H   0  0  0  0  0  0  0  0  0  0  0  0
   28.6941   34.8076    7.9200 H   0  0  0  0  0  0  0  0  0  0  0  0
   26.3384   31.8955   10.3612 H   0  0  0  0  0  0  0  0  0  0  0  0
   25.3015   33.0108    9.7714 H   0  0  0  0  0  0  0  0  0  0  0  0
   31.3126   27.6149   12.1674 H   0  0  0  0  0  0  0  0  0  0  0  0
   31.6403   29.0274   10.2895 H   0  0  0  0  0  0  0  0  0  0  0  0
   28.1769   31.0898   11.2476 H   0  0  0  0  0  0  0  0  0  0  0  0
  1 26  2  0  0  0  0
  2 11  1  0  0  0  0
  2 15  1  0  0  0  0
  3 16  1  0  0  0  0
  3 29  1  0  0  0  0
  4 17  1  0  0  0  0
  4 30  1  0  0  0  0
  5 14  2  0  0  0  0
  5 27  1  0  0  0  0
  6 14  1  0  0  0  0
  6 28  2  0  0  0  0
  7 18  1  0  0  0  0
  7 27  1  0  0  0  0
  8 28  1  0  0  0  0
  8 31  1  0  0  0  0
  9 12  1  0  0  0  0
  9 19  1  0  0  0  0
  9 21  1  0  0  0  0
 10 13  1  0  0  0  0
 10 20  1  0  0  0  0
 10 26  1  0  0  0  0
 15 16  1  0  0  0  0
 17 26  1  0  0  0  0
 18 32  2  0  0  0  0
 19 22  1  0  0  0  0
 20 22  1  0  0  0  0
 21 32  1  0  0  0  0
 23 24  1  0  0  0  0
 23 29  2  0  0  0  0
 24 31  2  0  0  0  0
 25 30  2  0  0  0  0
 25 31  1  0  0  0  0
 27 33  2  0  0  0  0
 28 33  1  0  0  0  0
 29 30  1  0  0  0  0
 32 33  1  0  0  0  0
  7 34  1  0  0  0  0
  8 35  1  0  0  0  0
 11 36  1  0  0  0  0
 11 37  1  0  0  0  0
 11 38  1  0  0  0  0
 12 39  1  0  0  0  0
 12 40  1  0  0  0  0
 12 41  1  0  0  0  0
 13 42  1  0  0  0  0
 13 43  1  0  0  0  0
 13 44  1  0  0  0  0
 14 45  1  0  0  0  0
 15 46  1  0  0  0  0
 15 47  1  0  0  0  0
 16 48  1  0  0  0  0
 16 49  1  0  0  0  0
 17 50  1  0  0  0  0
 17 51  1  0  0  0  0
 18 52  1  0  0  0  0
 19 53  1  0  0  0  0
 19 54  1  0  0  0  0
 20 55  1  0  0  0  0
 20 56  1  0  0  0  0
 21 57  1  0  0  0  0
 21 58  1  0  0  0  0
 22 59  1  0  0  0  0
 22 60  1  0  0  0  0
 23 61  1  0  0  0  0
 24 62  1  0  0  0  0
 25 63  1  0  0  0  0
M  END
> <pdb_id>
6Z5B

> <uniprot_id>
Q8TF76

> <usmiles>
O=C1N(CCCN(CC=2c3c(ncnc3NC2)Nc4cc(OC1)c(OCCOC)cc4)C)C

$$$$
Q88_C_1383
          07192416553D 1   1.00000     0.00000     0
            
 17 18  0  0  0  0            999 V2000
  205.6280   -6.3600   65.6151 N   0  0  0  0  0  0  0  0  0  0  0  0
  202.7719   -8.1731   61.3594 N   0  0  0  0  0  0  0  0  0  0  0  0
  202.0793   -5.9790   61.0911 N   0  0  0  0  0  0  0  0  0  0  0  0
  202.6743   -4.1941   62.5997 N   0  0  0  0  0  0  0  0  0  0  0  0
  204.1969   -4.9488   64.3508 N   0  0  0  0  0  0  0  0  0  0  0  0
  204.3447   -7.1380   63.7893 N   0  0  0  0  0  0  0  0  0  0  0  0
  202.0592   -4.7133   61.5328 C   0  0  0  0  0  0  0  0  0  0  0  0
  204.7472   -6.1779   64.6280 C   0  0  0  0  0  0  0  0  0  0  0  0
  202.7888   -6.9029   61.7800 C   0  0  0  0  0  0  0  0  0  0  0  0
  203.3896   -5.1283   63.2544 C   0  0  0  0  0  0  0  0  0  0  0  0
  203.4923   -6.4723   62.9205 C   0  0  0  0  0  0  0  0  0  0  0  0
  206.0064   -7.2698   65.7860 H   0  0  0  0  0  0  0  0  0  0  0  0
  205.9093   -5.5867   66.1833 H   0  0  0  0  0  0  0  0  0  0  0  0
  203.2896   -8.8707   61.8548 H   0  0  0  0  0  0  0  0  0  0  0  0
  202.2416   -8.4247   60.5498 H   0  0  0  0  0  0  0  0  0  0  0  0
  204.3532   -4.0953   64.8479 H   0  0  0  0  0  0  0  0  0  0  0  0
  201.5122   -4.0736   60.9929 H   0  0  0  0  0  0  0  0  0  0  0  0
  1  8  1  0  0  0  0
  2  9  1  0  0  0  0
  3  7  2  0  0  0  0
  3  9  1  0  0  0  0
  4  7  1  0  0  0  0
  4 10  2  0  0  0  0
  5  8  1  0  0  0  0
  5 10  1  0  0  0  0
  6  8  2  0  0  0  0
  6 11  1  0  0  0  0
  9 11  2  0  0  0  0
 10 11  1  0  0  0  0
  1 12  1  0  0  0  0
  1 13  1  0  0  0  0
  2 14  1  0  0  0  0
  2 15  1  0  0  0  0
  5 16  1  0  0  0  0
  7 17  1  0  0  0  0
M  END
> <pdb_id>
5AQJ

> <uniprot_id>
P11142

> <usmiles>
n1c2NC(=Nc2c(nc1)N)N

$$$$
Q8M_B_401
          07202413533D 1   1.00000     0.00000     0
            
 38 40  0  0  0  0            999 V2000
   -7.6303   -3.8529    3.0912 Br  0  0  0  0  0  0  0  0  0  0  0  0
   -2.3530   -2.3147    2.7981 Cl  0  0  0  0  0  0  0  0  0  0  0  0
   -5.3945   -2.3399   -1.8072 S   0  0  0  0  0  0  0  0  0  0  0  0
   -6.7427   -2.6453   -2.1534 O   0  0  0  0  0  0  0  0  0  0  0  0
   -4.9814   -1.0296   -2.1500 O   0  0  0  0  0  0  0  0  0  0  0  0
   -2.8779   -1.9411   -0.1316 O   0  0  0  0  0  0  0  0  0  0  0  0
   -4.3703   -3.3653   -2.6005 N   0  0  0  0  0  0  0  0  0  0  0  0
   -4.1726   -5.6238   -1.9790 N   0  0  0  0  0  0  0  0  0  0  0  0
   -5.6818   -6.5526   -3.3011 N   0  0  0  0  0  0  0  0  0  0  0  0
   -4.7374   -6.7448   -2.3348 C   0  0  0  0  0  0  0  0  0  0  0  0
   -5.7040   -5.2212   -3.5732 C   0  0  0  0  0  0  0  0  0  0  0  0
   -8.4621   -6.9830   -5.1821 C   0  0  0  0  0  0  0  0  0  0  0  0
   -7.3765   -7.3632   -6.1909 C   0  0  0  0  0  0  0  0  0  0  0  0
   -7.9823   -7.3532   -3.7756 C   0  0  0  0  0  0  0  0  0  0  0  0
   -6.1337   -7.7638   -5.3997 C   0  0  0  0  0  0  0  0  0  0  0  0
   -4.9353   -3.0227    2.7287 C   0  0  0  0  0  0  0  0  0  0  0  0
   -6.2569   -3.0381    0.7252 C   0  0  0  0  0  0  0  0  0  0  0  0
   -6.1503   -3.2441    2.0963 C   0  0  0  0  0  0  0  0  0  0  0  0
   -3.8489   -2.5857    1.9785 C   0  0  0  0  0  0  0  0  0  0  0  0
   -5.1808   -2.5984   -0.0454 C   0  0  0  0  0  0  0  0  0  0  0  0
   -4.7832   -4.6853   -2.7379 C   0  0  0  0  0  0  0  0  0  0  0  0
   -3.9647   -2.3748    0.5969 C   0  0  0  0  0  0  0  0  0  0  0  0
   -6.4736   -7.6412   -3.8989 C   0  0  0  0  0  0  0  0  0  0  0  0
   -2.9637   -1.7916   -1.1166 H   0  0  0  0  0  0  0  0  0  0  0  0
   -3.4938   -3.0507   -2.9649 H   0  0  0  0  0  0  0  0  0  0  0  0
   -4.5063   -7.6369   -1.9465 H   0  0  0  0  0  0  0  0  0  0  0  0
   -6.2739   -4.7435   -4.2418 H   0  0  0  0  0  0  0  0  0  0  0  0
   -9.3042   -7.4801   -5.3915 H   0  0  0  0  0  0  0  0  0  0  0  0
   -8.6352   -5.9992   -5.2299 H   0  0  0  0  0  0  0  0  0  0  0  0
   -7.1692   -6.5821   -6.7798 H   0  0  0  0  0  0  0  0  0  0  0  0
   -7.6860   -8.1309   -6.7521 H   0  0  0  0  0  0  0  0  0  0  0  0
   -8.4647   -8.1653   -3.4472 H   0  0  0  0  0  0  0  0  0  0  0  0
   -8.1400   -6.5938   -3.1443 H   0  0  0  0  0  0  0  0  0  0  0  0
   -5.3738   -7.1550   -5.6277 H   0  0  0  0  0  0  0  0  0  0  0  0
   -5.8815   -8.7070   -5.6159 H   0  0  0  0  0  0  0  0  0  0  0  0
   -4.8419   -3.1757    3.7125 H   0  0  0  0  0  0  0  0  0  0  0  0
   -7.1340   -3.2110    0.2770 H   0  0  0  0  0  0  0  0  0  0  0  0
   -6.2595   -8.5019   -3.4370 H   0  0  0  0  0  0  0  0  0  0  0  0
  1 18  1  0  0  0  0
  2 19  1  0  0  0  0
  3  4  2  0  0  0  0
  3  5  2  0  0  0  0
  3  7  1  0  0  0  0
  3 20  1  0  0  0  0
  6 22  1  0  0  0  0
  7 21  1  0  0  0  0
  8 10  2  0  0  0  0
  8 21  1  0  0  0  0
  9 10  1  0  0  0  0
  9 11  1  0  0  0  0
  9 23  1  0  0  0  0
 11 21  2  0  0  0  0
 12 13  1  0  0  0  0
 12 14  1  0  0  0  0
 13 15  1  0  0  0  0
 14 23  1  0  0  0  0
 15 23  1  0  0  0  0
 16 18  2  0  0  0  0
 16 19  1  0  0  0  0
 17 18  1  0  0  0  0
 17 20  2  0  0  0  0
 19 22  2  0  0  0  0
 20 22  1  0  0  0  0
  6 24  1  0  0  0  0
  7 25  1  0  0  0  0
 10 26  1  0  0  0  0
 11 27  1  0  0  0  0
 12 28  1  0  0  0  0
 12 29  1  0  0  0  0
 13 30  1  0  0  0  0
 13 31  1  0  0  0  0
 14 32  1  0  0  0  0
 14 33  1  0  0  0  0
 15 34  1  0  0  0  0
 15 35  1  0  0  0  0
 16 36  1  0  0  0  0
 17 37  1  0  0  0  0
 23 38  1  0  0  0  0
M  END
> <pdb_id>
6UIK

> <uniprot_id>
P61964

> <usmiles>
Brc1cc(Cl)c(O)c(S(=O)(=O)NC=2N=CN(C2)C3CCCC3)c1

$$$$
Q8P_B_401
          07202413533D 1   1.00000     0.00000     0
            
 45 47  0  0  0  0            999 V2000
   -7.5085   -3.8310    3.0678 Br  0  0  0  0  0  0  0  0  0  0  0  0
   -2.3225   -2.1738    2.5104 Cl  0  0  0  0  0  0  0  0  0  0  0  0
   -5.6635   -2.3541   -1.9558 S   0  0  0  0  0  0  0  0  0  0  0  0
   -6.9894   -2.7591   -2.2405 O   0  0  0  0  0  0  0  0  0  0  0  0
   -5.3448   -1.0263   -2.3240 O   0  0  0  0  0  0  0  0  0  0  0  0
   -4.5160   -9.0238   -1.8163 O   0  0  0  0  0  0  0  0  0  0  0  0
   -2.9934   -1.8483   -0.3945 O   0  0  0  0  0  0  0  0  0  0  0  0
   -4.5802   -3.2777   -2.8037 N   0  0  0  0  0  0  0  0  0  0  0  0
   -2.6052   -7.9066   -1.6897 N   0  0  0  0  0  0  0  0  0  0  0  0
   -4.0350   -5.4720   -2.2383 N   0  0  0  0  0  0  0  0  0  0  0  0
   -5.6483   -6.5920   -3.3041 N   0  0  0  0  0  0  0  0  0  0  0  0
   -1.8521   -9.0552   -1.1743 C   0  0  0  0  0  0  0  0  0  0  0  0
   -5.8464   -5.2730   -3.5431 C   0  0  0  0  0  0  0  0  0  0  0  0
   -8.5789   -7.2420   -4.9815 C   0  0  0  0  0  0  0  0  0  0  0  0
   -7.4148   -7.0885   -5.9624 C   0  0  0  0  0  0  0  0  0  0  0  0
   -7.9673   -7.3931   -3.5854 C   0  0  0  0  0  0  0  0  0  0  0  0
   -6.2840   -7.8940   -5.3353 C   0  0  0  0  0  0  0  0  0  0  0  0
   -4.8692   -2.9419    2.5632 C   0  0  0  0  0  0  0  0  0  0  0  0
   -6.3106   -3.0214    0.6371 C   0  0  0  0  0  0  0  0  0  0  0  0
   -6.1081   -3.2066    1.9999 C   0  0  0  0  0  0  0  0  0  0  0  0
   -3.8426   -2.4894    1.7528 C   0  0  0  0  0  0  0  0  0  0  0  0
   -3.9392   -7.9460   -1.9922 C   0  0  0  0  0  0  0  0  0  0  0  0
   -5.2880   -2.5661   -0.2025 C   0  0  0  0  0  0  0  0  0  0  0  0
   -4.8579   -4.6312   -2.8745 C   0  0  0  0  0  0  0  0  0  0  0  0
   -4.5193   -6.6903   -2.4938 C   0  0  0  0  0  0  0  0  0  0  0  0
   -4.0377   -2.2983    0.3731 C   0  0  0  0  0  0  0  0  0  0  0  0
   -6.4822   -7.7087   -3.8204 C   0  0  0  0  0  0  0  0  0  0  0  0
   -3.1188   -1.7083   -1.3767 H   0  0  0  0  0  0  0  0  0  0  0  0
   -3.7726   -2.8799   -3.2390 H   0  0  0  0  0  0  0  0  0  0  0  0
   -2.1157   -7.0456   -1.8278 H   0  0  0  0  0  0  0  0  0  0  0  0
   -0.8990   -8.7904   -1.0278 H   0  0  0  0  0  0  0  0  0  0  0  0
   -2.2519   -9.3543   -0.3078 H   0  0  0  0  0  0  0  0  0  0  0  0
   -1.8920   -9.8040   -1.8359 H   0  0  0  0  0  0  0  0  0  0  0  0
   -6.5699   -4.8601   -4.0963 H   0  0  0  0  0  0  0  0  0  0  0  0
   -9.1171   -8.0531   -5.2108 H   0  0  0  0  0  0  0  0  0  0  0  0
   -9.1653   -6.4327   -5.0144 H   0  0  0  0  0  0  0  0  0  0  0  0
   -7.1551   -6.1274   -6.0562 H   0  0  0  0  0  0  0  0  0  0  0  0
   -7.6569   -7.4575   -6.8598 H   0  0  0  0  0  0  0  0  0  0  0  0
   -8.4092   -8.1405   -3.0891 H   0  0  0  0  0  0  0  0  0  0  0  0
   -8.0664   -6.5440   -3.0665 H   0  0  0  0  0  0  0  0  0  0  0  0
   -5.3943   -7.5390   -5.6225 H   0  0  0  0  0  0  0  0  0  0  0  0
   -6.3547   -8.8593   -5.5866 H   0  0  0  0  0  0  0  0  0  0  0  0
   -4.7193   -3.0761    3.5427 H   0  0  0  0  0  0  0  0  0  0  0  0
   -7.2099   -3.2185    0.2469 H   0  0  0  0  0  0  0  0  0  0  0  0
   -6.2403   -8.5547   -3.3452 H   0  0  0  0  0  0  0  0  0  0  0  0
  1 20  1  0  0  0  0
  2 21  1  0  0  0  0
  3  4  2  0  0  0  0
  3  5  2  0  0  0  0
  3  8  1  0  0  0  0
  3 23  1  0  0  0  0
  6 22  2  0  0  0  0
  7 26  1  0  0  0  0
  8 24  1  0  0  0  0
  9 12  1  0  0  0  0
  9 22  1  0  0  0  0
 10 24  1  0  0  0  0
 10 25  2  0  0  0  0
 11 13  1  0  0  0  0
 11 25  1  0  0  0  0
 11 27  1  0  0  0  0
 13 24  2  0  0  0  0
 14 15  1  0  0  0  0
 14 16  1  0  0  0  0
 15 17  1  0  0  0  0
 16 27  1  0  0  0  0
 17 27  1  0  0  0  0
 18 20  2  0  0  0  0
 18 21  1  0  0  0  0
 19 20  1  0  0  0  0
 19 23  2  0  0  0  0
 21 26  2  0  0  0  0
 22 25  1  0  0  0  0
 23 26  1  0  0  0  0
  7 28  1  0  0  0  0
  8 29  1  0  0  0  0
  9 30  1  0  0  0  0
 12 31  1  0  0  0  0
 12 32  1  0  0  0  0
 12 33  1  0  0  0  0
 13 34  1  0  0  0  0
 14 35  1  0  0  0  0
 14 36  1  0  0  0  0
 15 37  1  0  0  0  0
 15 38  1  0  0  0  0
 16 39  1  0  0  0  0
 16 40  1  0  0  0  0
 17 41  1  0  0  0  0
 17 42  1  0  0  0  0
 18 43  1  0  0  0  0
 19 44  1  0  0  0  0
 27 45  1  0  0  0  0
M  END
> <pdb_id>
6UIF

> <uniprot_id>
P61964

> <usmiles>
Brc1cc(Cl)c(O)c(S(=O)(=O)NC=2N=C(N(C2)C3CCCC3)C(=O)NC)c1

$$$$
Q8S_B_401
          07202413533D 1   1.00000     0.00000     0
            
 41 43  0  0  0  0            999 V2000
   -7.4237   -3.7632    3.1387 Br  0  0  0  0  0  0  0  0  0  0  0  0
   -2.2331   -2.1285    2.4201 Cl  0  0  0  0  0  0  0  0  0  0  0  0
   -5.6375   -2.2630   -1.9160 S   0  0  0  0  0  0  0  0  0  0  0  0
   -6.9786   -2.6601   -2.1706 O   0  0  0  0  0  0  0  0  0  0  0  0
   -5.1966   -0.9284   -2.1869 O   0  0  0  0  0  0  0  0  0  0  0  0
   -3.0398   -1.8010   -0.5400 O   0  0  0  0  0  0  0  0  0  0  0  0
   -4.5892   -3.2635   -2.7486 N   0  0  0  0  0  0  0  0  0  0  0  0
   -4.0935   -5.5299   -2.2977 N   0  0  0  0  0  0  0  0  0  0  0  0
   -5.7972   -6.5229   -3.2979 N   0  0  0  0  0  0  0  0  0  0  0  0
   -4.1414   -8.0520   -2.1829 C   0  0  0  0  0  0  0  0  0  0  0  0
   -5.9759   -5.1862   -3.4729 C   0  0  0  0  0  0  0  0  0  0  0  0
   -8.6621   -7.1234   -5.0189 C   0  0  0  0  0  0  0  0  0  0  0  0
   -7.4474   -7.1010   -5.9361 C   0  0  0  0  0  0  0  0  0  0  0  0
   -8.1520   -7.2533   -3.5836 C   0  0  0  0  0  0  0  0  0  0  0  0
   -6.4192   -7.9576   -5.2189 C   0  0  0  0  0  0  0  0  0  0  0  0
   -4.7682   -2.8934    2.5324 C   0  0  0  0  0  0  0  0  0  0  0  0
   -6.2876   -2.9704    0.6773 C   0  0  0  0  0  0  0  0  0  0  0  0
   -6.0340   -3.1590    2.0317 C   0  0  0  0  0  0  0  0  0  0  0  0
   -3.7669   -2.4453    1.6878 C   0  0  0  0  0  0  0  0  0  0  0  0
   -5.2833   -2.5156   -0.1813 C   0  0  0  0  0  0  0  0  0  0  0  0
   -4.9255   -4.6088   -2.8483 C   0  0  0  0  0  0  0  0  0  0  0  0
   -4.6503   -6.6801   -2.5684 C   0  0  0  0  0  0  0  0  0  0  0  0
   -4.0146   -2.2500    0.3252 C   0  0  0  0  0  0  0  0  0  0  0  0
   -6.6649   -7.6337   -3.7377 C   0  0  0  0  0  0  0  0  0  0  0  0
   -3.2517   -1.6725   -1.5088 H   0  0  0  0  0  0  0  0  0  0  0  0
   -3.7503   -2.9074   -3.1603 H   0  0  0  0  0  0  0  0  0  0  0  0
   -4.7719   -8.7493   -2.5239 H   0  0  0  0  0  0  0  0  0  0  0  0
   -3.2365   -8.1965   -2.5832 H   0  0  0  0  0  0  0  0  0  0  0  0
   -4.0796   -8.1169   -1.1870 H   0  0  0  0  0  0  0  0  0  0  0  0
   -6.7218   -4.7299   -3.9581 H   0  0  0  0  0  0  0  0  0  0  0  0
   -9.2465   -7.9026   -5.2453 H   0  0  0  0  0  0  0  0  0  0  0  0
   -9.1826   -6.2757   -5.1209 H   0  0  0  0  0  0  0  0  0  0  0  0
   -7.1100   -6.1671   -6.0541 H   0  0  0  0  0  0  0  0  0  0  0  0
   -7.6711   -7.4900   -6.8297 H   0  0  0  0  0  0  0  0  0  0  0  0
   -8.6512   -7.9682   -3.0940 H   0  0  0  0  0  0  0  0  0  0  0  0
   -8.2466   -6.3861   -3.0947 H   0  0  0  0  0  0  0  0  0  0  0  0
   -5.4904   -7.7067   -5.4917 H   0  0  0  0  0  0  0  0  0  0  0  0
   -6.5700   -8.9288   -5.4035 H   0  0  0  0  0  0  0  0  0  0  0  0
   -4.5783   -3.0258    3.5052 H   0  0  0  0  0  0  0  0  0  0  0  0
   -7.1991   -3.1626    0.3137 H   0  0  0  0  0  0  0  0  0  0  0  0
   -6.4713   -8.4441   -3.1849 H   0  0  0  0  0  0  0  0  0  0  0  0
  1 18  1  0  0  0  0
  2 19  1  0  0  0  0
  3  4  2  0  0  0  0
  3  5  2  0  0  0  0
  3  7  1  0  0  0  0
  3 20  1  0  0  0  0
  6 23  1  0  0  0  0
  7 21  1  0  0  0  0
  8 21  1  0  0  0  0
  8 22  2  0  0  0  0
  9 11  1  0  0  0  0
  9 22  1  0  0  0  0
  9 24  1  0  0  0  0
 10 22  1  0  0  0  0
 11 21  2  0  0  0  0
 12 13  1  0  0  0  0
 12 14  1  0  0  0  0
 13 15  1  0  0  0  0
 14 24  1  0  0  0  0
 15 24  1  0  0  0  0
 16 18  2  0  0  0  0
 16 19  1  0  0  0  0
 17 18  1  0  0  0  0
 17 20  2  0  0  0  0
 19 23  2  0  0  0  0
 20 23  1  0  0  0  0
  6 25  1  0  0  0  0
  7 26  1  0  0  0  0
 10 27  1  0  0  0  0
 10 28  1  0  0  0  0
 10 29  1  0  0  0  0
 11 30  1  0  0  0  0
 12 31  1  0  0  0  0
 12 32  1  0  0  0  0
 13 33  1  0  0  0  0
 13 34  1  0  0  0  0
 14 35  1  0  0  0  0
 14 36  1  0  0  0  0
 15 37  1  0  0  0  0
 15 38  1  0  0  0  0
 16 39  1  0  0  0  0
 17 40  1  0  0  0  0
 24 41  1  0  0  0  0
M  END
> <pdb_id>
6UJ4

> <uniprot_id>
P61964

> <usmiles>
Brc1cc(Cl)c(O)c(S(=O)(=O)NC=2N=C(N(C2)C3CCCC3)C)c1

$$$$
Q9P_A_401
          07192420003D 1   1.00000     0.00000     0
            
 27 29  0  0  0  0            999 V2000
    6.7897   23.5482  -17.5682 Cl  0  0  0  0  0  0  0  0  0  0  0  0
    2.3537   22.0398  -19.4680 O   0  0  0  0  0  0  0  0  0  0  0  0
    3.6382   19.5842  -20.1050 N   0  0  0  0  0  0  0  0  0  0  0  0
    5.6903   19.1750  -19.6817 N   0  0  0  0  0  0  0  0  0  0  0  0
    6.1753   21.3117  -18.6600 N   0  0  0  0  0  0  0  0  0  0  0  0
    4.1334   20.6802  -19.5073 N   0  0  0  0  0  0  0  0  0  0  0  0
    4.5918   18.6708  -20.2036 C   0  0  0  0  0  0  0  0  0  0  0  0
    3.8923   27.3348  -20.9282 C   0  0  0  0  0  0  0  0  0  0  0  0
    4.2757   27.5029  -19.5996 C   0  0  0  0  0  0  0  0  0  0  0  0
    3.4708   26.0794  -21.3490 C   0  0  0  0  0  0  0  0  0  0  0  0
    4.2453   26.4285  -18.7130 C   0  0  0  0  0  0  0  0  0  0  0  0
    3.4335   25.0061  -20.4573 C   0  0  0  0  0  0  0  0  0  0  0  0
    3.8010   24.0894  -18.1721 C   0  0  0  0  0  0  0  0  0  0  0  0
    5.6763   22.5080  -18.3114 C   0  0  0  0  0  0  0  0  0  0  0  0
    5.4119   20.3963  -19.2540 C   0  0  0  0  0  0  0  0  0  0  0  0
    3.5432   21.8520  -19.1938 C   0  0  0  0  0  0  0  0  0  0  0  0
    3.8399   25.1512  -19.1227 C   0  0  0  0  0  0  0  0  0  0  0  0
    4.3336   22.8556  -18.5797 C   0  0  0  0  0  0  0  0  0  0  0  0
    7.1351   21.1046  -18.4707 H   0  0  0  0  0  0  0  0  0  0  0  0
    4.4948   17.7595  -20.6037 H   0  0  0  0  0  0  0  0  0  0  0  0
    3.9200   28.1034  -21.5673 H   0  0  0  0  0  0  0  0  0  0  0  0
    4.5750   28.4018  -19.2796 H   0  0  0  0  0  0  0  0  0  0  0  0
    3.1916   25.9436  -22.2996 H   0  0  0  0  0  0  0  0  0  0  0  0
    4.5192   26.5722  -17.7620 H   0  0  0  0  0  0  0  0  0  0  0  0
    3.1103   24.1152  -20.7767 H   0  0  0  0  0  0  0  0  0  0  0  0
    2.8437   23.9390  -17.9254 H   0  0  0  0  0  0  0  0  0  0  0  0
    4.3106   24.3871  -17.3648 H   0  0  0  0  0  0  0  0  0  0  0  0
  1 14  1  0  0  0  0
  2 16  2  0  0  0  0
  3  6  1  0  0  0  0
  3  7  2  0  0  0  0
  4  7  1  0  0  0  0
  4 15  2  0  0  0  0
  5 14  1  0  0  0  0
  5 15  1  0  0  0  0
  6 15  1  0  0  0  0
  6 16  1  0  0  0  0
  8  9  2  0  0  0  0
  8 10  1  0  0  0  0
  9 11  1  0  0  0  0
 10 12  2  0  0  0  0
 11 17  2  0  0  0  0
 12 17  1  0  0  0  0
 13 17  1  0  0  0  0
 13 18  1  0  0  0  0
 14 18  2  0  0  0  0
 16 18  1  0  0  0  0
  5 19  1  0  0  0  0
  7 20  1  0  0  0  0
  8 21  1  0  0  0  0
  9 22  1  0  0  0  0
 10 23  1  0  0  0  0
 11 24  1  0  0  0  0
 12 25  1  0  0  0  0
 13 26  1  0  0  0  0
 13 27  1  0  0  0  0
M  END
> <pdb_id>
5MRO

> <uniprot_id>
P69834

> <usmiles>
ClC=1NC2=NC=NN2C(=O)C1Cc3ccccc3

$$$$
Q9T_A_401
          07192420003D 1   1.00000     0.00000     0
            
 22 23  0  0  0  0            999 V2000
   11.5080   31.7750  -17.5620 Br  0  0  0  0  0  0  0  0  0  0  0  0
   15.6240   31.7470  -13.7650 Br  0  0  0  0  0  0  0  0  0  0  0  0
   19.0700   26.5840  -18.9680 F   0  0  0  0  0  0  0  0  0  0  0  0
   18.2190   26.4250  -20.9930 F   0  0  0  0  0  0  0  0  0  0  0  0
   17.5550   25.0890  -19.3820 F   0  0  0  0  0  0  0  0  0  0  0  0
   16.8030   29.6980  -15.7400 O   0  0  0  0  0  0  0  0  0  0  0  0
   15.2010   28.5830  -19.5520 O   0  0  0  0  0  0  0  0  0  0  0  0
   15.9600   27.6950  -20.1620 N   0  0  0  0  0  0  0  0  0  0  0  0
   13.7020   31.5510  -15.8430 C   0  0  0  0  0  0  0  0  0  0  0  0
   13.8330   30.1720  -17.8170 C   0  0  0  0  0  0  0  0  0  0  0  0
   16.7470   27.9830  -18.1260 C   0  0  0  0  0  0  0  0  0  0  0  0
   13.1550   31.1080  -17.0390 C   0  0  0  0  0  0  0  0  0  0  0  0
   14.9320   31.0720  -15.4120 C   0  0  0  0  0  0  0  0  0  0  0  0
   15.6090   30.1380  -16.2040 C   0  0  0  0  0  0  0  0  0  0  0  0
   15.6670   28.7660  -18.2670 C   0  0  0  0  0  0  0  0  0  0  0  0
   16.8930   27.3390  -19.2920 C   0  0  0  0  0  0  0  0  0  0  0  0
   15.0770   29.6470  -17.4210 C   0  0  0  0  0  0  0  0  0  0  0  0
   17.9720   26.3220  -19.6520 C   0  0  0  0  0  0  0  0  0  0  0  0
   17.3287   29.0300  -16.2667 H   0  0  0  0  0  0  0  0  0  0  0  0
   13.2071   32.2196  -15.2879 H   0  0  0  0  0  0  0  0  0  0  0  0
   13.4258   29.8659  -18.6775 H   0  0  0  0  0  0  0  0  0  0  0  0
   17.3259   27.8973  -17.3151 H   0  0  0  0  0  0  0  0  0  0  0  0
  1 12  1  0  0  0  0
  2 13  1  0  0  0  0
  3 18  1  0  0  0  0
  4 18  1  0  0  0  0
  5 18  1  0  0  0  0
  6 14  1  0  0  0  0
  7  8  1  0  0  0  0
  7 15  1  0  0  0  0
  8 16  2  0  0  0  0
  9 12  2  0  0  0  0
  9 13  1  0  0  0  0
 10 12  1  0  0  0  0
 10 17  2  0  0  0  0
 11 15  2  0  0  0  0
 11 16  1  0  0  0  0
 13 14  2  0  0  0  0
 14 17  1  0  0  0  0
 15 17  1  0  0  0  0
 16 18  1  0  0  0  0
  6 19  1  0  0  0  0
  9 20  1  0  0  0  0
 10 21  1  0  0  0  0
 11 22  1  0  0  0  0
M  END
> <pdb_id>
5MRM

> <uniprot_id>
P69834

> <usmiles>
Brc1c(O)c(cc(Br)c1)C=2ON=C(C2)C(F)(F)F

$$$$
QAD_A_401
          07202414053D 1   1.00000     0.00000     0
            
 34 35  0  0  0  0            999 V2000
   52.4830    5.2510  -16.0880 S   0  0  0  0  0  0  0  0  0  0  0  0
   50.8050    5.3420  -20.8590 O   0  0  0  0  0  0  0  0  0  0  0  0
   51.1500    7.5280  -17.4420 O   0  0  0  0  0  0  0  0  0  0  0  0
   51.5080    7.4400  -21.1640 O   0  0  0  0  0  0  0  0  0  0  0  0
   54.3460    0.5590  -14.7970 O   0  0  0  0  0  0  0  0  0  0  0  0
   52.6250   -0.6110  -16.3650 O   0  0  0  0  0  0  0  0  0  0  0  0
   55.3320    1.1470  -13.9580 C   0  0  0  0  0  0  0  0  0  0  0  0
   51.8380   -1.2730  -17.3590 C   0  0  0  0  0  0  0  0  0  0  0  0
   53.4760    2.7660  -15.3310 C   0  0  0  0  0  0  0  0  0  0  0  0
   50.8230    3.9080  -17.5510 C   0  0  0  0  0  0  0  0  0  0  0  0
   51.5850    1.5100  -16.9460 C   0  0  0  0  0  0  0  0  0  0  0  0
   49.5580    7.1300  -19.9230 C   0  0  0  0  0  0  0  0  0  0  0  0
   49.3880    6.4170  -18.6070 C   0  0  0  0  0  0  0  0  0  0  0  0
   50.6720    6.5390  -20.7310 C   0  0  0  0  0  0  0  0  0  0  0  0
   51.1860    5.1870  -17.2700 C   0  0  0  0  0  0  0  0  0  0  0  0
   52.5420    3.5200  -16.0290 C   0  0  0  0  0  0  0  0  0  0  0  0
   50.6370    6.4510  -17.7640 C   0  0  0  0  0  0  0  0  0  0  0  0
   53.4760    1.3880  -15.4400 C   0  0  0  0  0  0  0  0  0  0  0  0
   52.5120    0.7470  -16.2640 C   0  0  0  0  0  0  0  0  0  0  0  0
   51.5870    2.9070  -16.8670 C   0  0  0  0  0  0  0  0  0  0  0  0
   52.2510    7.0710  -21.7090 H   0  0  0  0  0  0  0  0  0  0  0  0
   55.7990    0.2660  -13.5220 H   0  0  0  0  0  0  0  0  0  0  0  0
   54.9380    1.7560  -13.1450 H   0  0  0  0  0  0  0  0  0  0  0  0
   56.0650    1.7220  -14.5200 H   0  0  0  0  0  0  0  0  0  0  0  0
   52.3220   -2.2460  -17.4170 H   0  0  0  0  0  0  0  0  0  0  0  0
   51.8840   -0.8440  -18.3580 H   0  0  0  0  0  0  0  0  0  0  0  0
   50.8000   -1.4160  -17.0620 H   0  0  0  0  0  0  0  0  0  0  0  0
   54.1890    3.3210  -14.7230 H   0  0  0  0  0  0  0  0  0  0  0  0
   50.0290    3.6080  -18.2340 H   0  0  0  0  0  0  0  0  0  0  0  0
   50.7960    1.0790  -17.5600 H   0  0  0  0  0  0  0  0  0  0  0  0
   48.6440    7.0660  -20.5110 H   0  0  0  0  0  0  0  0  0  0  0  0
   49.7160    8.1940  -19.7500 H   0  0  0  0  0  0  0  0  0  0  0  0
   49.0290    5.4060  -18.7850 H   0  0  0  0  0  0  0  0  0  0  0  0
   48.5610    6.8580  -18.0550 H   0  0  0  0  0  0  0  0  0  0  0  0
  1 15  1  0  0  0  0
  1 16  1  0  0  0  0
  2 14  2  0  0  0  0
  3 17  2  0  0  0  0
  4 14  1  0  0  0  0
  4 21  1  0  0  0  0
  5  7  1  0  0  0  0
  5 18  1  0  0  0  0
  6  8  1  0  0  0  0
  6 19  1  0  0  0  0
  7 22  1  0  0  0  0
  7 23  1  0  0  0  0
  7 24  1  0  0  0  0
  8 25  1  0  0  0  0
  8 26  1  0  0  0  0
  8 27  1  0  0  0  0
  9 16  2  0  0  0  0
  9 18  1  0  0  0  0
  9 28  1  0  0  0  0
 10 15  2  0  0  0  0
 10 20  1  0  0  0  0
 10 29  1  0  0  0  0
 11 19  1  0  0  0  0
 11 20  2  0  0  0  0
 11 30  1  0  0  0  0
 12 13  1  0  0  0  0
 12 14  1  0  0  0  0
 12 31  1  0  0  0  0
 12 32  1  0  0  0  0
 13 17  1  0  0  0  0
 13 33  1  0  0  0  0
 13 34  1  0  0  0  0
 15 17  1  0  0  0  0
 16 20  1  0  0  0  0
 18 19  2  0  0  0  0
M  END
> <pdb_id>
6UKM

> <uniprot_id>
Q12306

> <usmiles>
S1c2c(cc(OC)c(OC)c2)C=C1C(=O)CCC(=O)O

$$$$
QC1_D_503
          07202411573D 1   1.00000     0.00000     0
            
 27 28  0  0  0  0            999 V2000
   -6.9322   93.9407   18.9334 F   0  0  0  0  0  0  0  0  0  0  0  0
   -3.3608   98.7304   15.9871 O   0  0  0  0  0  0  0  0  0  0  0  0
   -1.9369  100.2133   14.9982 O   0  0  0  0  0  0  0  0  0  0  0  0
   -5.3723  103.2966   16.7473 N   0  0  0  0  0  0  0  0  0  0  0  0
   -5.4169   99.6585   17.3396 N   0  0  0  0  0  0  0  0  0  0  0  0
   -4.2558  103.4966   16.0433 C   0  0  0  0  0  0  0  0  0  0  0  0
   -5.7246  102.0873   17.1886 C   0  0  0  0  0  0  0  0  0  0  0  0
   -6.5365   99.4169   17.9635 C   0  0  0  0  0  0  0  0  0  0  0  0
   -6.9375   96.1489   19.9058 C   0  0  0  0  0  0  0  0  0  0  0  0
   -6.7961   95.7403   17.5242 C   0  0  0  0  0  0  0  0  0  0  0  0
   -3.4776  102.3905   15.6797 C   0  0  0  0  0  0  0  0  0  0  0  0
   -6.8653   97.5184   19.6777 C   0  0  0  0  0  0  0  0  0  0  0  0
   -6.7378   97.0948   17.3054 C   0  0  0  0  0  0  0  0  0  0  0  0
   -6.8856   95.2778   18.8167 C   0  0  0  0  0  0  0  0  0  0  0  0
   -2.9560   99.9717   15.6868 C   0  0  0  0  0  0  0  0  0  0  0  0
   -6.7950   98.0081   18.3677 C   0  0  0  0  0  0  0  0  0  0  0  0
   -5.0109  100.9015   16.8732 C   0  0  0  0  0  0  0  0  0  0  0  0
   -3.8394  101.1043   16.1229 C   0  0  0  0  0  0  0  0  0  0  0  0
   -4.1821   98.5925   16.5407 H   0  0  0  0  0  0  0  0  0  0  0  0
   -3.9797  104.4209   15.7798 H   0  0  0  0  0  0  0  0  0  0  0  0
   -6.5335  102.0127   17.7717 H   0  0  0  0  0  0  0  0  0  0  0  0
   -7.1920  100.1457   18.1614 H   0  0  0  0  0  0  0  0  0  0  0  0
   -7.0254   95.7934   20.8363 H   0  0  0  0  0  0  0  0  0  0  0  0
   -6.7739   95.1003   16.7562 H   0  0  0  0  0  0  0  0  0  0  0  0
   -2.6672  102.5140   15.1070 H   0  0  0  0  0  0  0  0  0  0  0  0
   -6.8635   98.1541   20.4496 H   0  0  0  0  0  0  0  0  0  0  0  0
   -6.6527   97.4367   16.3695 H   0  0  0  0  0  0  0  0  0  0  0  0
  1 14  1  0  0  0  0
  2 15  1  0  0  0  0
  3 15  2  0  0  0  0
  4  6  2  0  0  0  0
  4  7  1  0  0  0  0
  5  8  2  0  0  0  0
  5 17  1  0  0  0  0
  6 11  1  0  0  0  0
  7 17  2  0  0  0  0
  8 16  1  0  0  0  0
  9 12  2  0  0  0  0
  9 14  1  0  0  0  0
 10 13  1  0  0  0  0
 10 14  2  0  0  0  0
 11 18  2  0  0  0  0
 12 16  1  0  0  0  0
 13 16  2  0  0  0  0
 15 18  1  0  0  0  0
 17 18  1  0  0  0  0
  2 19  1  0  0  0  0
  6 20  1  0  0  0  0
  7 21  1  0  0  0  0
  8 22  1  0  0  0  0
  9 23  1  0  0  0  0
 10 24  1  0  0  0  0
 11 25  1  0  0  0  0
 12 26  1  0  0  0  0
 13 27  1  0  0  0  0
M  END
> <pdb_id>
6CG1

> <uniprot_id>
O75164

> <usmiles>
Fc1ccc(cc1)C=Nc2c(ccnc2)C(=O)O

$$$$
QC2_B_503
          07202411573D 1   1.00000     0.00000     0
            
 32 34  0  0  0  0            999 V2000
   -3.1918   98.8233   16.3095 O   0  0  0  0  0  0  0  0  0  0  0  0
   -2.0375  100.0590   15.0314 O   0  0  0  0  0  0  0  0  0  0  0  0
   -8.1026   97.6153   16.7865 O   0  0  0  0  0  0  0  0  0  0  0  0
   -6.4811  103.5892   19.0173 N   0  0  0  0  0  0  0  0  0  0  0  0
   -5.1909  103.3328   16.6217 N   0  0  0  0  0  0  0  0  0  0  0  0
   -6.2798  102.3521   18.4564 N   0  0  0  0  0  0  0  0  0  0  0  0
   -7.2082  103.4114   20.1200 C   0  0  0  0  0  0  0  0  0  0  0  0
   -4.2287  103.3879   15.7598 C   0  0  0  0  0  0  0  0  0  0  0  0
   -6.4713   97.7963   19.9624 C   0  0  0  0  0  0  0  0  0  0  0  0
   -7.0301   97.2224   18.8440 C   0  0  0  0  0  0  0  0  0  0  0  0
   -7.4293  102.1059   20.2993 C   0  0  0  0  0  0  0  0  0  0  0  0
   -3.5023  102.2743   15.4409 C   0  0  0  0  0  0  0  0  0  0  0  0
   -6.4002   99.2076   20.1129 C   0  0  0  0  0  0  0  0  0  0  0  0
   -7.4773   99.5250   18.0366 C   0  0  0  0  0  0  0  0  0  0  0  0
   -4.6613  101.0776   17.1694 C   0  0  0  0  0  0  0  0  0  0  0  0
   -2.9825   99.9397   15.8095 C   0  0  0  0  0  0  0  0  0  0  0  0
   -7.5207   98.1151   17.8952 C   0  0  0  0  0  0  0  0  0  0  0  0
   -5.4849  102.1991   17.3727 C   0  0  0  0  0  0  0  0  0  0  0  0
   -6.8508  101.4457   19.3059 C   0  0  0  0  0  0  0  0  0  0  0  0
   -3.7324  101.0814   16.1443 C   0  0  0  0  0  0  0  0  0  0  0  0
   -6.9210  100.0967   19.1742 C   0  0  0  0  0  0  0  0  0  0  0  0
   -3.9526   98.6950   16.9457 H   0  0  0  0  0  0  0  0  0  0  0  0
   -8.4635   98.2342   16.0889 H   0  0  0  0  0  0  0  0  0  0  0  0
   -7.5370  104.1411   20.7195 H   0  0  0  0  0  0  0  0  0  0  0  0
   -4.0122  104.2592   15.3193 H   0  0  0  0  0  0  0  0  0  0  0  0
   -6.1076   97.2080   20.6847 H   0  0  0  0  0  0  0  0  0  0  0  0
   -7.0804   96.2313   18.7209 H   0  0  0  0  0  0  0  0  0  0  0  0
   -7.9431  101.6971   21.0535 H   0  0  0  0  0  0  0  0  0  0  0  0
   -2.8153  102.3092   14.7151 H   0  0  0  0  0  0  0  0  0  0  0  0
   -5.9568   99.5794   20.9284 H   0  0  0  0  0  0  0  0  0  0  0  0
   -7.8483  100.1098   17.3153 H   0  0  0  0  0  0  0  0  0  0  0  0
   -4.7469  100.2788   17.7648 H   0  0  0  0  0  0  0  0  0  0  0  0
  1 16  1  0  0  0  0
  2 16  2  0  0  0  0
  3 17  1  0  0  0  0
  4  6  1  0  0  0  0
  4  7  2  0  0  0  0
  5  8  2  0  0  0  0
  5 18  1  0  0  0  0
  6 18  1  0  0  0  0
  6 19  1  0  0  0  0
  7 11  1  0  0  0  0
  8 12  1  0  0  0  0
  9 10  1  0  0  0  0
  9 13  2  0  0  0  0
 10 17  2  0  0  0  0
 11 19  2  0  0  0  0
 12 20  2  0  0  0  0
 13 21  1  0  0  0  0
 14 17  1  0  0  0  0
 14 21  2  0  0  0  0
 15 18  2  0  0  0  0
 15 20  1  0  0  0  0
 16 20  1  0  0  0  0
 19 21  1  0  0  0  0
  1 22  1  0  0  0  0
  3 23  1  0  0  0  0
  7 24  1  0  0  0  0
  8 25  1  0  0  0  0
  9 26  1  0  0  0  0
 10 27  1  0  0  0  0
 11 28  1  0  0  0  0
 12 29  1  0  0  0  0
 13 30  1  0  0  0  0
 14 31  1  0  0  0  0
 15 32  1  0  0  0  0
M  END
> <pdb_id>
6CG2

> <uniprot_id>
O75164

> <usmiles>
O=C(O)c1cc(ncc1)N2N=CC=C2c3cc(O)ccc3

$$$$
QCP_A_504
          07202414053D 1   1.00000     0.00000     0
            
 43 44  0  0  0  0            999 V2000
   -1.8620  -18.5800   25.4660 O   0  0  0  0  0  0  0  0  0  0  0  0
   -0.3140  -22.1230   31.3320 O   0  0  0  0  0  0  0  0  0  0  0  0
   -2.9690  -19.7480   23.3370 O   0  0  0  0  0  0  0  0  0  0  0  0
   -3.0470  -20.2570   24.5930 N   0  0  0  0  0  0  0  0  0  0  0  0
   -2.5040  -22.1430   30.7410 N   0  0  0  0  0  0  0  0  0  0  0  0
   -0.6190  -25.1170   32.6710 C   0  0  0  0  0  0  0  0  0  0  0  0
   -1.0870  -24.3600   34.9750 C   0  0  0  0  0  0  0  0  0  0  0  0
   -2.4330  -19.3480   35.4940 C   0  0  0  0  0  0  0  0  0  0  0  0
   -1.1990  -19.6010   34.9190 C   0  0  0  0  0  0  0  0  0  0  0  0
   -3.4590  -20.2460   35.2620 C   0  0  0  0  0  0  0  0  0  0  0  0
   -1.0050  -20.7370   34.1350 C   0  0  0  0  0  0  0  0  0  0  0  0
   -3.2590  -21.3760   34.4790 C   0  0  0  0  0  0  0  0  0  0  0  0
   -1.5880  -20.5710   29.1700 C   0  0  0  0  0  0  0  0  0  0  0  0
   -3.4570  -21.8560   28.5640 C   0  0  0  0  0  0  0  0  0  0  0  0
   -1.6140  -19.9300   27.9530 C   0  0  0  0  0  0  0  0  0  0  0  0
   -3.4750  -21.2170   27.3320 C   0  0  0  0  0  0  0  0  0  0  0  0
   -2.4890  -19.5780   25.6920 C   0  0  0  0  0  0  0  0  0  0  0  0
   -1.4750  -22.3840   31.6460 C   0  0  0  0  0  0  0  0  0  0  0  0
   -2.5070  -21.5760   29.5150 C   0  0  0  0  0  0  0  0  0  0  0  0
   -2.5570  -20.2210   26.9920 C   0  0  0  0  0  0  0  0  0  0  0  0
   -2.0230  -21.6740   33.9090 C   0  0  0  0  0  0  0  0  0  0  0  0
   -0.7480  -23.8780   33.5610 C   0  0  0  0  0  0  0  0  0  0  0  0
   -1.7940  -22.9110   33.0180 C   0  0  2  0  0  0  0  0  0  0  0  0
   -2.5340  -20.3340   22.9000 H   0  0  0  0  0  0  0  0  0  0  0  0
   -3.5050  -21.0200   24.6250 H   0  0  0  0  0  0  0  0  0  0  0  0
   -3.2970  -22.2960   31.0360 H   0  0  0  0  0  0  0  0  0  0  0  0
   -1.4790  -25.5150   32.4640 H   0  0  0  0  0  0  0  0  0  0  0  0
   -0.0970  -25.8340   33.0640 H   0  0  0  0  0  0  0  0  0  0  0  0
   -0.2360  -24.9110   31.8030 H   0  0  0  0  0  0  0  0  0  0  0  0
   -2.0190  -24.5850   35.1220 H   0  0  0  0  0  0  0  0  0  0  0  0
   -0.8410  -23.7260   35.6660 H   0  0  0  0  0  0  0  0  0  0  0  0
   -0.6030  -25.1630   35.2220 H   0  0  0  0  0  0  0  0  0  0  0  0
   -2.5680  -18.5900   36.0160 H   0  0  0  0  0  0  0  0  0  0  0  0
   -0.5120  -18.9940   35.0780 H   0  0  0  0  0  0  0  0  0  0  0  0
   -4.2850  -20.0690   35.6510 H   0  0  0  0  0  0  0  0  0  0  0  0
   -0.1500  -20.8470   33.7870 H   0  0  0  0  0  0  0  0  0  0  0  0
   -3.9930  -21.9370   34.3730 H   0  0  0  0  0  0  0  0  0  0  0  0
   -0.9240  -20.2950   29.7600 H   0  0  0  0  0  0  0  0  0  0  0  0
   -4.1130  -22.4970   28.7180 H   0  0  0  0  0  0  0  0  0  0  0  0
   -0.9650  -19.2940   27.7560 H   0  0  0  0  0  0  0  0  0  0  0  0
   -4.1260  -21.4740   26.7190 H   0  0  0  0  0  0  0  0  0  0  0  0
    0.1240  -23.4550   33.6050 H   0  0  0  0  0  0  0  0  0  0  0  0
   -2.6330  -23.3970   32.9870 H   0  0  0  0  0  0  0  0  0  0  0  0
  1 17  2  0  0  0  0
  2 18  2  0  0  0  0
  3  4  1  0  0  0  0
  3 24  1  0  0  0  0
  4 17  1  0  0  0  0
  4 25  1  0  0  0  0
  5 18  1  0  0  0  0
  5 19  1  0  0  0  0
  5 26  1  0  0  0  0
  6 22  1  0  0  0  0
  6 27  1  0  0  0  0
  6 28  1  0  0  0  0
  6 29  1  0  0  0  0
  7 22  1  0  0  0  0
  7 30  1  0  0  0  0
  7 31  1  0  0  0  0
  7 32  1  0  0  0  0
  8  9  2  0  0  0  0
  8 10  1  0  0  0  0
  8 33  1  0  0  0  0
  9 11  1  0  0  0  0
  9 34  1  0  0  0  0
 10 12  2  0  0  0  0
 10 35  1  0  0  0  0
 11 21  2  0  0  0  0
 11 36  1  0  0  0  0
 12 21  1  0  0  0  0
 12 37  1  0  0  0  0
 13 15  1  0  0  0  0
 13 19  2  0  0  0  0
 13 38  1  0  0  0  0
 14 16  2  0  0  0  0
 14 19  1  0  0  0  0
 14 39  1  0  0  0  0
 15 20  2  0  0  0  0
 15 40  1  0  0  0  0
 16 20  1  0  0  0  0
 16 41  1  0  0  0  0
 17 20  1  0  0  0  0
 18 23  1  0  0  0  0
 21 23  1  0  0  0  0
 22 23  1  0  0  0  0
 22 42  1  0  0  0  0
 23 43  1  0  0  0  0
M  END
> <pdb_id>
6UO7

> <uniprot_id>
F8W4B7

> <usmiles>
O=C(NO)c1ccc(NC(=O)[C@H](c2ccccc2)C(C)C)cc1

$$$$
QCQ_A_604
          07212404023D 1   1.00000     0.00000     0
            
 56 59  0  0  0  0            999 V2000
  -14.0754   22.9003  -39.0657 Cl  0  0  0  0  0  0  0  0  0  0  0  0
  -16.9595   19.6391  -29.1102 P   0  0  0  0  0  0  0  0  0  0  0  0
  -18.7572   17.7006  -30.5299 P   0  0  0  0  0  0  0  0  0  0  0  0
  -14.1331   18.3902  -33.7596 F   0  0  0  0  0  0  0  0  0  0  0  0
  -16.3565   20.0544  -30.4177 O   0  0  0  0  0  0  0  0  0  0  0  0
  -15.9715   19.7696  -27.9305 O   0  0  0  0  0  0  0  0  0  0  0  0
  -18.2299   20.4375  -28.7419 O   0  0  0  0  0  0  0  0  0  0  0  0
  -19.9469   18.6758  -30.2566 O   0  0  0  0  0  0  0  0  0  0  0  0
  -19.2946   16.2789  -30.5746 O   0  0  0  0  0  0  0  0  0  0  0  0
  -16.3945   16.7191  -36.0216 O   0  0  0  0  0  0  0  0  0  0  0  0
  -18.1155   18.2550  -31.8536 O   0  0  0  0  0  0  0  0  0  0  0  0
  -16.8219   19.3213  -34.0833 O   0  0  0  0  0  0  0  0  0  0  0  0
  -12.7900   24.8168  -34.7360 N   0  0  0  0  0  0  0  0  0  0  0  0
  -14.2264   22.4396  -33.3534 N   0  0  0  0  0  0  0  0  0  0  0  0
  -13.3585   23.7631  -36.7204 N   0  0  0  0  0  0  0  0  0  0  0  0
  -14.5157   21.6576  -36.8293 N   0  0  0  0  0  0  0  0  0  0  0  0
  -15.0807   20.7909  -34.6235 N   0  0  0  0  0  0  0  0  0  0  0  0
  -17.5154   17.9460  -29.2506 C   0  0  0  0  0  0  0  0  0  0  0  0
  -14.8894   21.3084  -33.3693 C   0  0  0  0  0  0  0  0  0  0  0  0
  -17.0672   17.5140  -32.5044 C   0  0  0  0  0  0  0  0  0  0  0  0
  -12.2937   24.7692  -33.3693 C   0  0  0  0  0  0  0  0  0  0  0  0
   -8.5703   26.8006  -32.6485 C   0  0  0  0  0  0  0  0  0  0  0  0
   -8.5749   25.4700  -33.0307 C   0  0  0  0  0  0  0  0  0  0  0  0
   -9.7685   27.4786  -32.5150 C   0  0  0  0  0  0  0  0  0  0  0  0
   -9.7757   24.8172  -33.2686 C   0  0  0  0  0  0  0  0  0  0  0  0
  -10.9703   26.8279  -32.7638 C   0  0  0  0  0  0  0  0  0  0  0  0
  -13.9538   22.7458  -37.3316 C   0  0  0  0  0  0  0  0  0  0  0  0
  -14.8982   18.3130  -34.9249 C   0  0  1  0  0  0  0  0  0  0  0  0
  -15.9351   17.2131  -34.7686 C   0  0  1  0  0  0  0  0  0  0  0  0
  -13.3402   23.7608  -35.3724 C   0  0  0  0  0  0  0  0  0  0  0  0
  -15.7635   19.5579  -34.9890 C   0  0  1  0  0  0  0  0  0  0  0  0
  -17.0412   17.8961  -33.9611 C   0  0  2  0  0  0  0  0  0  0  0  0
  -14.4995   21.6883  -35.4891 C   0  0  0  0  0  0  0  0  0  0  0  0
  -10.9880   25.4892  -33.1401 C   0  0  0  0  0  0  0  0  0  0  0  0
  -13.9661   22.6884  -34.6939 C   0  0  0  0  0  0  0  0  0  0  0  0
  -17.0347   19.9512  -31.1453 H   0  0  0  0  0  0  0  0  0  0  0  0
  -16.4215   19.4813  -27.0853 H   0  0  0  0  0  0  0  0  0  0  0  0
  -19.6070   19.6157  -30.2246 H   0  0  0  0  0  0  0  0  0  0  0  0
  -17.0725   16.0002  -35.8681 H   0  0  0  0  0  0  0  0  0  0  0  0
  -12.7197   25.6818  -35.2328 H   0  0  0  0  0  0  0  0  0  0  0  0
  -17.9059   17.6674  -28.3731 H   0  0  0  0  0  0  0  0  0  0  0  0
  -16.7256   17.3701  -29.4618 H   0  0  0  0  0  0  0  0  0  0  0  0
  -15.2256   20.8629  -32.5396 H   0  0  0  0  0  0  0  0  0  0  0  0
  -17.2433   16.5335  -32.4165 H   0  0  0  0  0  0  0  0  0  0  0  0
  -16.1875   17.7338  -32.0828 H   0  0  0  0  0  0  0  0  0  0  0  0
  -12.1670   23.8095  -33.1185 H   0  0  0  0  0  0  0  0  0  0  0  0
  -12.9837   25.1811  -32.7741 H   0  0  0  0  0  0  0  0  0  0  0  0
   -7.7051   27.2692  -32.4698 H   0  0  0  0  0  0  0  0  0  0  0  0
   -7.7105   24.9781  -33.1357 H   0  0  0  0  0  0  0  0  0  0  0  0
   -9.7696   28.4397  -32.2387 H   0  0  0  0  0  0  0  0  0  0  0  0
   -9.7704   23.8534  -33.5351 H   0  0  0  0  0  0  0  0  0  0  0  0
  -11.8318   27.3273  -32.6714 H   0  0  0  0  0  0  0  0  0  0  0  0
  -14.3365   18.1953  -35.7439 H   0  0  0  0  0  0  0  0  0  0  0  0
  -15.5473   16.4616  -34.2349 H   0  0  0  0  0  0  0  0  0  0  0  0
  -16.1365   19.6508  -35.9122 H   0  0  0  0  0  0  0  0  0  0  0  0
  -17.9254   17.6697  -34.3697 H   0  0  0  0  0  0  0  0  0  0  0  0
  1 27  1  0  0  0  0
  2  5  1  0  0  0  0
  2  6  1  0  0  0  0
  2  7  2  0  0  0  0
  2 18  1  0  0  0  0
  3  8  1  0  0  0  0
  3  9  2  0  0  0  0
  3 11  1  0  0  0  0
  3 18  1  0  0  0  0
  4 28  1  0  0  0  0
 10 29  1  0  0  0  0
 11 20  1  0  0  0  0
 12 31  1  0  0  0  0
 12 32  1  0  0  0  0
 13 21  1  0  0  0  0
 13 30  1  0  0  0  0
 14 19  2  0  0  0  0
 14 35  1  0  0  0  0
 15 27  1  0  0  0  0
 15 30  2  0  0  0  0
 16 27  2  0  0  0  0
 16 33  1  0  0  0  0
 17 19  1  0  0  0  0
 17 31  1  0  0  0  0
 17 33  1  0  0  0  0
 20 32  1  0  0  0  0
 21 34  1  0  0  0  0
 22 23  2  0  0  0  0
 22 24  1  0  0  0  0
 23 25  1  0  0  0  0
 24 26  2  0  0  0  0
 25 34  2  0  0  0  0
 26 34  1  0  0  0  0
 28 29  1  0  0  0  0
 28 31  1  0  0  0  0
 29 32  1  0  0  0  0
 30 35  1  0  0  0  0
 33 35  2  0  0  0  0
  5 36  1  0  0  0  0
  6 37  1  0  0  0  0
  8 38  1  0  0  0  0
 10 39  1  0  0  0  0
 13 40  1  0  0  0  0
 18 41  1  0  0  0  0
 18 42  1  0  0  0  0
 19 43  1  0  0  0  0
 20 44  1  0  0  0  0
 20 45  1  0  0  0  0
 21 46  1  0  0  0  0
 21 47  1  0  0  0  0
 22 48  1  0  0  0  0
 23 49  1  0  0  0  0
 24 50  1  0  0  0  0
 25 51  1  0  0  0  0
 26 52  1  0  0  0  0
 28 53  1  0  0  0  0
 29 54  1  0  0  0  0
 31 55  1  0  0  0  0
 32 56  1  0  0  0  0
M  END
> <pdb_id>
6Z9B

> <uniprot_id>
P21589

> <usmiles>
Clc1nc2N(C=Nc2c(n1)NCc3ccccc3)[C@@H]4O[C@@H]([C@@H](O)[C@@H]4F)COP(=O)(O)CP(=O)(O)O

$$$$
QF1_B_401
          07202413533D 1   1.00000     0.00000     0
            
 44 46  0  0  0  0            999 V2000
   -7.5004   -3.8320    3.0068 Br  0  0  0  0  0  0  0  0  0  0  0  0
   -2.3232   -2.3420    2.5209 Cl  0  0  0  0  0  0  0  0  0  0  0  0
   -5.5996   -2.4343   -1.9994 S   0  0  0  0  0  0  0  0  0  0  0  0
   -3.9283   -8.4272   -2.0684 S   0  0  0  0  0  0  0  0  0  0  0  0
   -6.9175   -2.8124   -2.2935 O   0  0  0  0  0  0  0  0  0  0  0  0
   -5.2643   -1.1076   -2.2916 O   0  0  0  0  0  0  0  0  0  0  0  0
   -3.0626   -8.2485   -0.9723 O   0  0  0  0  0  0  0  0  0  0  0  0
   -3.3471   -9.0486   -3.1965 O   0  0  0  0  0  0  0  0  0  0  0  0
   -2.9494   -2.0086   -0.3958 O   0  0  0  0  0  0  0  0  0  0  0  0
   -4.5505   -3.3967   -2.8353 N   0  0  0  0  0  0  0  0  0  0  0  0
   -4.0281   -5.6196   -2.3287 N   0  0  0  0  0  0  0  0  0  0  0  0
   -5.7162   -6.6793   -3.2898 N   0  0  0  0  0  0  0  0  0  0  0  0
   -5.3418   -9.3459   -1.5440 C   0  0  0  0  0  0  0  0  0  0  0  0
   -5.9021   -5.3579   -3.5052 C   0  0  0  0  0  0  0  0  0  0  0  0
   -7.2922   -7.3298   -5.9926 C   0  0  0  0  0  0  0  0  0  0  0  0
   -8.5510   -7.2972   -5.1294 C   0  0  0  0  0  0  0  0  0  0  0  0
   -6.2994   -8.1670   -5.1985 C   0  0  0  0  0  0  0  0  0  0  0  0
   -8.0685   -7.3694   -3.6789 C   0  0  0  0  0  0  0  0  0  0  0  0
   -4.8738   -3.0275    2.5199 C   0  0  0  0  0  0  0  0  0  0  0  0
   -6.2916   -3.0692    0.5782 C   0  0  0  0  0  0  0  0  0  0  0  0
   -4.5563   -6.8004   -2.5695 C   0  0  0  0  0  0  0  0  0  0  0  0
   -6.0942   -3.2509    1.9340 C   0  0  0  0  0  0  0  0  0  0  0  0
   -3.8280   -2.6097    1.7279 C   0  0  0  0  0  0  0  0  0  0  0  0
   -5.2476   -2.6512   -0.2416 C   0  0  0  0  0  0  0  0  0  0  0  0
   -4.8676   -4.7437   -2.8990 C   0  0  0  0  0  0  0  0  0  0  0  0
   -4.0080   -2.4189    0.3554 C   0  0  0  0  0  0  0  0  0  0  0  0
   -6.5925   -7.7871   -3.7430 C   0  0  0  0  0  0  0  0  0  0  0  0
   -3.0594   -1.8669   -1.3795 H   0  0  0  0  0  0  0  0  0  0  0  0
   -3.7303   -3.0272   -3.2721 H   0  0  0  0  0  0  0  0  0  0  0  0
   -5.9609   -9.4762   -2.3185 H   0  0  0  0  0  0  0  0  0  0  0  0
   -5.0501  -10.2372   -1.1969 H   0  0  0  0  0  0  0  0  0  0  0  0
   -5.8152   -8.8447   -0.8196 H   0  0  0  0  0  0  0  0  0  0  0  0
   -6.6507   -4.9266   -4.0088 H   0  0  0  0  0  0  0  0  0  0  0  0
   -6.9388   -6.4053   -6.1355 H   0  0  0  0  0  0  0  0  0  0  0  0
   -7.4827   -7.7543   -6.8777 H   0  0  0  0  0  0  0  0  0  0  0  0
   -9.1373   -8.0794   -5.3400 H   0  0  0  0  0  0  0  0  0  0  0  0
   -9.0577   -6.4493   -5.2854 H   0  0  0  0  0  0  0  0  0  0  0  0
   -5.3585   -7.9351   -5.4456 H   0  0  0  0  0  0  0  0  0  0  0  0
   -6.4531   -9.1433   -5.3508 H   0  0  0  0  0  0  0  0  0  0  0  0
   -8.5993   -8.0468   -3.1696 H   0  0  0  0  0  0  0  0  0  0  0  0
   -8.1578   -6.4761   -3.2383 H   0  0  0  0  0  0  0  0  0  0  0  0
   -4.7465   -3.1654    3.5021 H   0  0  0  0  0  0  0  0  0  0  0  0
   -7.1939   -3.2399    0.1822 H   0  0  0  0  0  0  0  0  0  0  0  0
   -6.4482   -8.5845   -3.1571 H   0  0  0  0  0  0  0  0  0  0  0  0
  1 22  1  0  0  0  0
  2 23  1  0  0  0  0
  3  5  2  0  0  0  0
  3  6  2  0  0  0  0
  3 10  1  0  0  0  0
  3 24  1  0  0  0  0
  4  7  2  0  0  0  0
  4  8  2  0  0  0  0
  4 13  1  0  0  0  0
  4 21  1  0  0  0  0
  9 26  1  0  0  0  0
 10 25  1  0  0  0  0
 11 21  2  0  0  0  0
 11 25  1  0  0  0  0
 12 14  1  0  0  0  0
 12 21  1  0  0  0  0
 12 27  1  0  0  0  0
 14 25  2  0  0  0  0
 15 16  1  0  0  0  0
 15 17  1  0  0  0  0
 16 18  1  0  0  0  0
 17 27  1  0  0  0  0
 18 27  1  0  0  0  0
 19 22  2  0  0  0  0
 19 23  1  0  0  0  0
 20 22  1  0  0  0  0
 20 24  2  0  0  0  0
 23 26  2  0  0  0  0
 24 26  1  0  0  0  0
  9 28  1  0  0  0  0
 10 29  1  0  0  0  0
 13 30  1  0  0  0  0
 13 31  1  0  0  0  0
 13 32  1  0  0  0  0
 14 33  1  0  0  0  0
 15 34  1  0  0  0  0
 15 35  1  0  0  0  0
 16 36  1  0  0  0  0
 16 37  1  0  0  0  0
 17 38  1  0  0  0  0
 17 39  1  0  0  0  0
 18 40  1  0  0  0  0
 18 41  1  0  0  0  0
 19 42  1  0  0  0  0
 20 43  1  0  0  0  0
 27 44  1  0  0  0  0
M  END
> <pdb_id>
6UOZ

> <uniprot_id>
P61964

> <usmiles>
Brc1cc(Cl)c(O)c(S(=O)(=O)NC=2N=C(S(=O)(=O)C)N(C2)C3CCCC3)c1

$$$$
QFB_A_701
          07192419173D 1   1.00000     0.00000     0
            
 60 64  0  0  0  0            999 V2000
   -0.0651    1.3689   12.3206 O   0  0  0  0  0  0  0  0  0  0  0  0
   -1.3329    5.8164   11.9511 O   0  0  0  0  0  0  0  0  0  0  0  0
    1.0378    6.1370   13.7960 N   0  0  0  0  0  0  0  0  0  0  0  0
    5.0936    3.0024   14.1264 N   0  0  0  0  0  0  0  0  0  0  0  0
   -2.0735    1.2470   11.3008 N   0  0  0  0  0  0  0  0  0  0  0  0
    4.3204   -1.1640   16.7260 N   0  0  0  0  0  0  0  0  0  0  0  0
    3.1999    0.0909   15.0069 N   0  0  0  0  0  0  0  0  0  0  0  0
    2.1936   -1.7480   16.0846 N   0  0  0  0  0  0  0  0  0  0  0  0
   -2.8614   -0.7797   13.0164 N   0  0  0  0  0  0  0  0  0  0  0  0
    2.6657    4.4469   12.0244 N   0  0  0  0  0  0  0  0  0  0  0  0
    4.1311    2.0398   14.1112 N   0  0  0  0  0  0  0  0  0  0  0  0
   -1.7113   -1.8929   14.5554 N   0  0  0  0  0  0  0  0  0  0  0  0
   -1.6644    1.8821   10.0605 C   0  0  0  0  0  0  0  0  0  0  0  0
   -4.0861   -2.6396   14.1209 C   0  0  0  0  0  0  0  0  0  0  0  0
   -0.7435    5.4247   10.6922 C   0  0  0  0  0  0  0  0  0  0  0  0
   -0.9620    4.9016   13.0050 C   0  0  0  0  0  0  0  0  0  0  0  0
    5.4134   -0.4139   16.5181 C   0  0  0  0  0  0  0  0  0  0  0  0
    4.6276    3.9371   13.3181 C   0  0  0  0  0  0  0  0  0  0  0  0
   -1.2824   -2.8016   15.5115 C   0  0  0  0  0  0  0  0  0  0  0  0
    3.0483    2.4123   13.3922 C   0  0  0  0  0  0  0  0  0  0  0  0
    5.4608    0.6412   15.6338 C   0  0  0  0  0  0  0  0  0  0  0  0
    0.7673    5.3915   10.7773 C   0  0  0  0  0  0  0  0  0  0  0  0
   -0.0160   -2.7548   15.9715 C   0  0  0  0  0  0  0  0  0  0  0  0
    0.4737   -0.8319   14.5401 C   0  0  0  0  0  0  0  0  0  0  0  0
   -1.2012    0.9043   12.2442 C   0  0  0  0  0  0  0  0  0  0  0  0
    3.2720   -0.8899   15.9308 C   0  0  0  0  0  0  0  0  0  0  0  0
   -2.9112   -1.7619   13.8901 C   0  0  0  0  0  0  0  0  0  0  0  0
    4.2951    0.8588   14.8939 C   0  0  0  0  0  0  0  0  0  0  0  0
    0.5427    4.8654   13.2411 C   0  0  1  0  0  0  0  0  0  0  0  0
    3.3502    3.6217   12.8432 C   0  0  0  0  0  0  0  0  0  0  0  0
    0.9240   -1.7219   15.4800 C   0  0  0  0  0  0  0  0  0  0  0  0
    1.2114    4.4678   11.9125 C   0  0  2  0  0  0  0  0  0  0  0  0
   -1.6196   -0.1881   13.1471 C   0  0  0  0  0  0  0  0  0  0  0  0
   -0.8475   -0.9147   14.0473 C   0  0  0  0  0  0  0  0  0  0  0  0
    2.0260    6.0767   13.9375 H   0  0  0  0  0  0  0  0  0  0  0  0
    0.8373    6.8799   13.1574 H   0  0  0  0  0  0  0  0  0  0  0  0
   -3.0446    1.0610   11.4506 H   0  0  0  0  0  0  0  0  0  0  0  0
    2.3416   -2.5021   16.7245 H   0  0  0  0  0  0  0  0  0  0  0  0
    3.1883    5.0846   11.4584 H   0  0  0  0  0  0  0  0  0  0  0  0
   -2.4695    2.0549    9.4932 H   0  0  0  0  0  0  0  0  0  0  0  0
   -1.2080    2.7482   10.2643 H   0  0  0  0  0  0  0  0  0  0  0  0
   -1.0340    1.2804    9.5701 H   0  0  0  0  0  0  0  0  0  0  0  0
   -3.8696   -3.3054   14.8349 H   0  0  0  0  0  0  0  0  0  0  0  0
   -4.8659   -2.0838   14.4088 H   0  0  0  0  0  0  0  0  0  0  0  0
   -4.3141   -3.1208   13.2744 H   0  0  0  0  0  0  0  0  0  0  0  0
   -1.0155    6.0801    9.9876 H   0  0  0  0  0  0  0  0  0  0  0  0
   -1.0758    4.5141   10.4466 H   0  0  0  0  0  0  0  0  0  0  0  0
   -1.2700    3.9833   12.7562 H   0  0  0  0  0  0  0  0  0  0  0  0
   -1.4128    5.1866   13.8509 H   0  0  0  0  0  0  0  0  0  0  0  0
    6.2410   -0.6335   17.0347 H   0  0  0  0  0  0  0  0  0  0  0  0
    5.1270    4.7687   13.0752 H   0  0  0  0  0  0  0  0  0  0  0  0
   -1.9144   -3.4934   15.8606 H   0  0  0  0  0  0  0  0  0  0  0  0
    2.1953    1.9015   13.2849 H   0  0  0  0  0  0  0  0  0  0  0  0
    6.2744    1.2130   15.5283 H   0  0  0  0  0  0  0  0  0  0  0  0
    1.1089    6.3153   10.9502 H   0  0  0  0  0  0  0  0  0  0  0  0
    1.1396    5.0549    9.9125 H   0  0  0  0  0  0  0  0  0  0  0  0
    0.2907   -3.4227   16.6496 H   0  0  0  0  0  0  0  0  0  0  0  0
    1.0857   -0.1177   14.2003 H   0  0  0  0  0  0  0  0  0  0  0  0
    0.7318    4.1447   13.9081 H   0  0  0  0  0  0  0  0  0  0  0  0
    0.9105    3.5414   11.6860 H   0  0  0  0  0  0  0  0  0  0  0  0
  1 25  2  0  0  0  0
  2 15  1  0  0  0  0
  2 16  1  0  0  0  0
  3 29  1  0  0  0  0
  4 11  1  0  0  0  0
  4 18  2  0  0  0  0
  5 13  1  0  0  0  0
  5 25  1  0  0  0  0
  6 17  1  0  0  0  0
  6 26  2  0  0  0  0
  7 26  1  0  0  0  0
  7 28  2  0  0  0  0
  8 26  1  0  0  0  0
  8 31  1  0  0  0  0
  9 27  2  0  0  0  0
  9 33  1  0  0  0  0
 10 30  1  0  0  0  0
 10 32  1  0  0  0  0
 11 20  1  0  0  0  0
 11 28  1  0  0  0  0
 12 19  1  0  0  0  0
 12 27  1  0  0  0  0
 12 34  1  0  0  0  0
 14 27  1  0  0  0  0
 15 22  1  0  0  0  0
 16 29  1  0  0  0  0
 17 21  2  0  0  0  0
 18 30  1  0  0  0  0
 19 23  2  0  0  0  0
 20 30  2  0  0  0  0
 21 28  1  0  0  0  0
 22 32  1  0  0  0  0
 23 31  1  0  0  0  0
 24 31  2  0  0  0  0
 24 34  1  0  0  0  0
 25 33  1  0  0  0  0
 29 32  1  0  0  0  0
 33 34  2  0  0  0  0
  3 35  1  0  0  0  0
  3 36  1  0  0  0  0
  5 37  1  0  0  0  0
  8 38  1  0  0  0  0
 10 39  1  0  0  0  0
 13 40  1  0  0  0  0
 13 41  1  0  0  0  0
 13 42  1  0  0  0  0
 14 43  1  0  0  0  0
 14 44  1  0  0  0  0
 14 45  1  0  0  0  0
 15 46  1  0  0  0  0
 15 47  1  0  0  0  0
 16 48  1  0  0  0  0
 16 49  1  0  0  0  0
 17 50  1  0  0  0  0
 18 51  1  0  0  0  0
 19 52  1  0  0  0  0
 20 53  1  0  0  0  0
 21 54  1  0  0  0  0
 22 55  1  0  0  0  0
 22 56  1  0  0  0  0
 23 57  1  0  0  0  0
 24 58  1  0  0  0  0
 29 59  1  0  0  0  0
 32 60  1  0  0  0  0
M  END
> <pdb_id>
6ZCQ

> <uniprot_id>
P43405

> <usmiles>
O=C(NC)C=1N=C(N2C1C=C(Nc3nc(N4N=CC(N[C@H]5[C@@H](N)COCC5)=C4)ccn3)C=C2)C

$$$$
QGM_A_301
          07202414073D 1   1.00000     0.00000     0
            
 40 42  0  0  0  0            999 V2000
  -10.0320  -14.3820   39.4580 Cl  0  0  0  0  0  0  0  0  0  0  0  0
  -13.2260  -12.0840   42.8260 Cl  0  0  0  0  0  0  0  0  0  0  0  0
  -13.2490   -8.0640   44.2180 O   0  0  0  0  0  0  0  0  0  0  0  0
  -10.5770   -5.7440   40.2650 O   0  0  0  0  0  0  0  0  0  0  0  0
  -10.1950   -6.9770   38.4560 O   0  0  0  0  0  0  0  0  0  0  0  0
  -11.5350   -9.0290   45.3530 N   0  0  0  0  0  0  0  0  0  0  0  0
  -11.8010   -9.4200   43.1130 N   0  0  0  0  0  0  0  0  0  0  0  0
  -10.5190   -9.2640   39.6240 N   0  0  0  0  0  0  0  0  0  0  0  0
  -12.4790   -7.3460   49.0150 C   0  0  0  0  0  0  0  0  0  0  0  0
  -12.3460   -8.7230   48.8730 C   0  0  0  0  0  0  0  0  0  0  0  0
  -12.2880   -6.5170   47.9080 C   0  0  0  0  0  0  0  0  0  0  0  0
  -12.0210   -9.2750   47.6320 C   0  0  0  0  0  0  0  0  0  0  0  0
  -11.9730   -7.0670   46.6630 C   0  0  0  0  0  0  0  0  0  0  0  0
  -11.6240  -13.0470   41.1200 C   0  0  0  0  0  0  0  0  0  0  0  0
  -10.3670  -11.6760   39.6120 C   0  0  0  0  0  0  0  0  0  0  0  0
  -12.2190   -8.1440   40.9290 C   0  0  0  0  0  0  0  0  0  0  0  0
  -12.2600   -8.7980   44.2290 C   0  0  0  0  0  0  0  0  0  0  0  0
  -10.7230  -12.9360   40.0870 C   0  0  0  0  0  0  0  0  0  0  0  0
  -10.5100   -6.8490   39.6670 C   0  0  0  0  0  0  0  0  0  0  0  0
  -12.1620  -11.8850   41.6370 C   0  0  0  0  0  0  0  0  0  0  0  0
  -11.8470   -8.4540   46.5210 C   0  0  0  0  0  0  0  0  0  0  0  0
  -10.7830   -8.0440   40.4140 C   0  0  2  0  0  0  0  0  0  0  0  0
  -12.4140   -9.4620   41.7700 C   0  0  1  0  0  0  0  0  0  0  0  0
  -10.9050  -10.5100   40.1380 C   0  0  0  0  0  0  0  0  0  0  0  0
  -11.8370  -10.6070   41.1660 C   0  0  0  0  0  0  0  0  0  0  0  0
  -10.8343   -5.7130   41.2308 H   0  0  0  0  0  0  0  0  0  0  0  0
  -10.7480   -9.6442   45.3075 H   0  0  0  0  0  0  0  0  0  0  0  0
  -10.9368   -9.9131   43.2132 H   0  0  0  0  0  0  0  0  0  0  0  0
  -10.0700   -9.2019   38.7326 H   0  0  0  0  0  0  0  0  0  0  0  0
  -12.7100   -6.9520   49.9046 H   0  0  0  0  0  0  0  0  0  0  0  0
  -12.4837   -9.3205   49.6629 H   0  0  0  0  0  0  0  0  0  0  0  0
  -12.3770   -5.5259   48.0066 H   0  0  0  0  0  0  0  0  0  0  0  0
  -11.9127  -10.2649   47.5409 H   0  0  0  0  0  0  0  0  0  0  0  0
  -11.8374   -6.4695   45.8727 H   0  0  0  0  0  0  0  0  0  0  0  0
  -11.8816  -13.9415   41.4855 H   0  0  0  0  0  0  0  0  0  0  0  0
   -9.7023  -11.6095   38.8679 H   0  0  0  0  0  0  0  0  0  0  0  0
  -12.8474   -8.1541   40.1512 H   0  0  0  0  0  0  0  0  0  0  0  0
  -12.4169   -7.3525   41.5072 H   0  0  0  0  0  0  0  0  0  0  0  0
  -10.1729   -8.0551   41.2062 H   0  0  0  0  0  0  0  0  0  0  0  0
  -13.3949   -9.6240   41.8773 H   0  0  0  0  0  0  0  0  0  0  0  0
  1 18  1  0  0  0  0
  2 20  1  0  0  0  0
  3 17  2  0  0  0  0
  4 19  1  0  0  0  0
  5 19  2  0  0  0  0
  6 17  1  0  0  0  0
  6 21  1  0  0  0  0
  7 17  1  0  0  0  0
  7 23  1  0  0  0  0
  8 22  1  0  0  0  0
  8 24  1  0  0  0  0
  9 10  2  0  0  0  0
  9 11  1  0  0  0  0
 10 12  1  0  0  0  0
 11 13  2  0  0  0  0
 12 21  2  0  0  0  0
 13 21  1  0  0  0  0
 14 18  2  0  0  0  0
 14 20  1  0  0  0  0
 15 18  1  0  0  0  0
 15 24  2  0  0  0  0
 16 22  1  0  0  0  0
 16 23  1  0  0  0  0
 19 22  1  0  0  0  0
 20 25  2  0  0  0  0
 23 25  1  0  0  0  0
 24 25  1  0  0  0  0
  4 26  1  0  0  0  0
  6 27  1  0  0  0  0
  7 28  1  0  0  0  0
  8 29  1  0  0  0  0
  9 30  1  0  0  0  0
 10 31  1  0  0  0  0
 11 32  1  0  0  0  0
 12 33  1  0  0  0  0
 13 34  1  0  0  0  0
 14 35  1  0  0  0  0
 15 36  1  0  0  0  0
 16 37  1  0  0  0  0
 16 38  1  0  0  0  0
 22 39  1  0  0  0  0
 23 40  1  0  0  0  0
M  END
> <pdb_id>
6USU

> <uniprot_id>
P35439

> <usmiles>
Clc1c2c(N[C@@H](C(=O)O)C[C@@H]2NC(=O)Nc3ccccc3)cc(Cl)c1

$$$$
QIC_A_301
          07202415343D 1   1.00000     0.00000     0
            
 25 25  0  0  0  0            999 V2000
  -15.7590    2.0320   16.2960 O   0  0  0  0  0  0  0  0  0  0  0  0
  -15.3280   -0.0180   16.8600 O   0  0  0  0  0  0  0  0  0  0  0  0
  -18.2630    2.3370   20.5600 O   0  0  0  0  0  0  0  0  0  0  0  0
  -19.8030   -1.4050   19.1030 O   0  0  0  0  0  0  0  0  0  0  0  0
  -19.3710    0.0710   21.4530 O   0  0  0  0  0  0  0  0  0  0  0  0
  -17.9490    2.2020   17.6980 O   0  0  0  0  0  0  0  0  0  0  0  0
  -16.4760    1.2190   19.3510 C   0  0  0  0  0  0  0  0  0  0  0  0
  -17.9940   -0.2240   17.9580 C   0  0  0  0  0  0  0  0  0  0  0  0
  -16.0140    1.0110   16.9820 C   0  0  0  0  0  0  0  0  0  0  0  0
  -17.4480    1.1650   20.5140 C   0  0  2  0  0  0  0  0  0  0  0  0
  -19.0320   -0.1970   19.0770 C   0  0  2  0  0  0  0  0  0  0  0  0
  -18.3670   -0.0520   20.4480 C   0  0  3  0  0  0  0  0  0  0  0  0
  -17.1370    1.0480   17.9800 C   0  0  3  0  0  0  0  0  0  0  0  0
  -16.3158    2.8561   16.4000 H   0  0  0  0  0  0  0  0  0  0  0  0
  -18.8928    2.2749   21.3343 H   0  0  0  0  0  0  0  0  0  0  0  0
  -20.4724   -1.3573   19.8444 H   0  0  0  0  0  0  0  0  0  0  0  0
  -19.9780   -0.7229   21.4167 H   0  0  0  0  0  0  0  0  0  0  0  0
  -18.3824    2.0940   16.8033 H   0  0  0  0  0  0  0  0  0  0  0  0
  -15.8030    0.4888   19.4692 H   0  0  0  0  0  0  0  0  0  0  0  0
  -16.0130    2.1052   19.3688 H   0  0  0  0  0  0  0  0  0  0  0  0
  -18.4630   -0.2883   17.0771 H   0  0  0  0  0  0  0  0  0  0  0  0
  -17.4018   -1.0206   18.0792 H   0  0  0  0  0  0  0  0  0  0  0  0
  -16.9208    1.1152   21.3623 H   0  0  0  0  0  0  0  0  0  0  0  0
  -19.6471    0.5778   18.9308 H   0  0  0  0  0  0  0  0  0  0  0  0
  -17.8268   -0.8732   20.6319 H   0  0  0  0  0  0  0  0  0  0  0  0
  1  9  1  0  0  0  0
  2  9  2  0  0  0  0
  3 10  1  0  0  0  0
  4 11  1  0  0  0  0
  5 12  1  0  0  0  0
  6 13  1  0  0  0  0
  7 10  1  0  0  0  0
  7 13  1  0  0  0  0
  8 11  1  0  0  0  0
  8 13  1  0  0  0  0
  9 13  1  0  0  0  0
 10 12  1  0  0  0  0
 11 12  1  0  0  0  0
  1 14  1  0  0  0  0
  3 15  1  0  0  0  0
  4 16  1  0  0  0  0
  5 17  1  0  0  0  0
  6 18  1  0  0  0  0
  7 19  1  0  0  0  0
  7 20  1  0  0  0  0
  8 21  1  0  0  0  0
  8 22  1  0  0  0  0
 10 23  1  0  0  0  0
 11 24  1  0  0  0  0
 12 25  1  0  0  0  0
M  END
> <pdb_id>
4GUI

> <uniprot_id>
P58687

> <usmiles>
O=C(O)C1(O)C[C@@H](O)C(O)[C@H](O)C1

$$$$
QIG_A_999
          07192421333D 1   1.00000     0.00000     0
            
 43 47  0  0  0  0            999 V2000
   17.5260   68.9890    0.6340 N   0  0  0  0  0  0  0  0  0  0  0  0
   18.7540   69.1080    1.2150 N   0  0  0  0  0  0  0  0  0  0  0  0
   16.0450   65.9520    6.2370 N   0  0  0  0  0  0  0  0  0  0  0  0
   17.9370   67.3340    6.4620 N   0  0  0  0  0  0  0  0  0  0  0  0
   14.7140   65.1940    8.0750 N   0  0  0  0  0  0  0  0  0  0  0  0
   12.8130   64.3140    6.1560 N   0  0  0  0  0  0  0  0  0  0  0  0
   10.5430   63.4270    5.7160 C   0  0  0  0  0  0  0  0  0  0  0  0
   16.7490   68.5010    1.6190 C   0  0  0  0  0  0  0  0  0  0  0  0
   16.0440   66.5100   11.2690 C   0  0  0  0  0  0  0  0  0  0  0  0
   17.1590   67.2720   10.8450 C   0  0  0  0  0  0  0  0  0  0  0  0
   13.7740   63.3590    3.6870 C   0  0  0  0  0  0  0  0  0  0  0  0
   12.4230   63.1370    4.0410 C   0  0  0  0  0  0  0  0  0  0  0  0
   15.2340   65.8140   10.3020 C   0  0  0  0  0  0  0  0  0  0  0  0
   14.6400   64.0490    4.5510 C   0  0  0  0  0  0  0  0  0  0  0  0
   19.5150   68.2030    4.7920 C   0  0  0  0  0  0  0  0  0  0  0  0
   17.4710   67.3440    9.4690 C   0  0  0  0  0  0  0  0  0  0  0  0
   19.8420   68.6760    3.4870 C   0  0  0  0  0  0  0  0  0  0  0  0
   17.1590   67.8350    4.1460 C   0  0  0  0  0  0  0  0  0  0  0  0
   15.0010   65.2550    6.7440 C   0  0  0  0  0  0  0  0  0  0  0  0
   16.8690   66.6410    7.0800 C   0  0  0  0  0  0  0  0  0  0  0  0
   11.9710   63.6300    5.2890 C   0  0  0  0  0  0  0  0  0  0  0  0
   18.1890   67.7830    5.1390 C   0  0  0  0  0  0  0  0  0  0  0  0
   14.1390   64.5220    5.7880 C   0  0  0  0  0  0  0  0  0  0  0  0
   18.7840   68.7140    2.5300 C   0  0  0  0  0  0  0  0  0  0  0  0
   15.5260   65.8760    8.9280 C   0  0  0  0  0  0  0  0  0  0  0  0
   17.4620   68.3060    2.8250 C   0  0  0  0  0  0  0  0  0  0  0  0
   16.6650   66.6530    8.4910 C   0  0  0  0  0  0  0  0  0  0  0  0
   19.5579   69.4504    0.7286 H   0  0  0  0  0  0  0  0  0  0  0  0
   18.6769   67.5563    7.0969 H   0  0  0  0  0  0  0  0  0  0  0  0
   10.0508   62.9243    5.0053 H   0  0  0  0  0  0  0  0  0  0  0  0
   10.5211   62.9056    6.5690 H   0  0  0  0  0  0  0  0  0  0  0  0
   10.1078   64.3161    5.8575 H   0  0  0  0  0  0  0  0  0  0  0  0
   15.7757   68.2988    1.5102 H   0  0  0  0  0  0  0  0  0  0  0  0
   15.8181   66.4547   12.2416 H   0  0  0  0  0  0  0  0  0  0  0  0
   17.7220   67.7561   11.5149 H   0  0  0  0  0  0  0  0  0  0  0  0
   14.1170   63.0205    2.8107 H   0  0  0  0  0  0  0  0  0  0  0  0
   11.8046   62.6459    3.4275 H   0  0  0  0  0  0  0  0  0  0  0  0
   14.4500   65.2771   10.6136 H   0  0  0  0  0  0  0  0  0  0  0  0
   15.5947   64.2037    4.2967 H   0  0  0  0  0  0  0  0  0  0  0  0
   20.2331   68.1630    5.4868 H   0  0  0  0  0  0  0  0  0  0  0  0
   18.2599   67.8803    9.1689 H   0  0  0  0  0  0  0  0  0  0  0  0
   20.7696   68.9675    3.2533 H   0  0  0  0  0  0  0  0  0  0  0  0
   16.2297   67.5435    4.3728 H   0  0  0  0  0  0  0  0  0  0  0  0
  1  2  1  0  0  0  0
  1  8  2  0  0  0  0
  2 24  1  0  0  0  0
  3 19  1  0  0  0  0
  3 20  2  0  0  0  0
  4 20  1  0  0  0  0
  4 22  1  0  0  0  0
  5 19  2  0  0  0  0
  5 25  1  0  0  0  0
  6 21  1  0  0  0  0
  6 23  2  0  0  0  0
  7 21  1  0  0  0  0
  8 26  1  0  0  0  0
  9 10  2  0  0  0  0
  9 13  1  0  0  0  0
 10 16  1  0  0  0  0
 11 12  1  0  0  0  0
 11 14  2  0  0  0  0
 12 21  2  0  0  0  0
 13 25  2  0  0  0  0
 14 23  1  0  0  0  0
 15 17  1  0  0  0  0
 15 22  2  0  0  0  0
 16 27  2  0  0  0  0
 17 24  2  0  0  0  0
 18 22  1  0  0  0  0
 18 26  2  0  0  0  0
 19 23  1  0  0  0  0
 20 27  1  0  0  0  0
 24 26  1  0  0  0  0
 25 27  1  0  0  0  0
  2 28  1  0  0  0  0
  4 29  1  0  0  0  0
  7 30  1  0  0  0  0
  7 31  1  0  0  0  0
  7 32  1  0  0  0  0
  8 33  1  0  0  0  0
  9 34  1  0  0  0  0
 10 35  1  0  0  0  0
 11 36  1  0  0  0  0
 12 37  1  0  0  0  0
 13 38  1  0  0  0  0
 14 39  1  0  0  0  0
 15 40  1  0  0  0  0
 16 41  1  0  0  0  0
 17 42  1  0  0  0  0
 18 43  1  0  0  0  0
M  END
> <pdb_id>
3GXL

> <uniprot_id>
P36897

> <usmiles>
n1c(nc2c(c1Nc3cc4c(NN=C4)cc3)cccc2)c5nc(ccc5)C

$$$$
QIV_A_1482
          07202416203D 1   1.00000     0.00000     0
            
 22 23  0  0  0  0            999 V2000
   -4.4527   -4.9142   30.7552 S   0  0  0  0  0  0  0  0  0  0  0  0
   -1.9711   -6.1302   30.1210 O   0  0  0  0  0  0  0  0  0  0  0  0
   -8.5041   -0.8672   30.8090 O   0  0  0  0  0  0  0  0  0  0  0  0
   -2.3306   -4.0192   29.2921 N   0  0  0  0  0  0  0  0  0  0  0  0
   -4.2512   -2.7585   29.6327 N   0  0  0  0  0  0  0  0  0  0  0  0
   -0.2338   -5.1171   28.8253 C   0  0  0  0  0  0  0  0  0  0  0  0
   -6.8916   -4.0393   31.5364 C   0  0  0  0  0  0  0  0  0  0  0  0
   -7.8455   -3.0375   31.5290 C   0  0  0  0  0  0  0  0  0  0  0  0
   -6.3609   -1.7466   30.1836 C   0  0  0  0  0  0  0  0  0  0  0  0
   -3.5510   -3.8713   29.8134 C   0  0  0  0  0  0  0  0  0  0  0  0
   -1.6120   -5.1440   29.4829 C   0  0  0  0  0  0  0  0  0  0  0  0
   -5.7385   -3.8808   30.8979 C   0  0  0  0  0  0  0  0  0  0  0  0
   -7.5822   -1.8662   30.8377 C   0  0  0  0  0  0  0  0  0  0  0  0
   -5.4637   -2.7417   30.2169 C   0  0  0  0  0  0  0  0  0  0  0  0
   -8.3110   -0.0229   30.3091 H   0  0  0  0  0  0  0  0  0  0  0  0
   -1.9400   -3.2776   28.7467 H   0  0  0  0  0  0  0  0  0  0  0  0
   -0.1077   -4.2458   28.3510 H   0  0  0  0  0  0  0  0  0  0  0  0
    0.4721   -5.2204   29.5261 H   0  0  0  0  0  0  0  0  0  0  0  0
   -0.1633   -5.8676   28.1681 H   0  0  0  0  0  0  0  0  0  0  0  0
   -7.0724   -4.8914   32.0276 H   0  0  0  0  0  0  0  0  0  0  0  0
   -8.7113   -3.1570   32.0150 H   0  0  0  0  0  0  0  0  0  0  0  0
   -6.1494   -0.9077   29.6823 H   0  0  0  0  0  0  0  0  0  0  0  0
  1 10  1  0  0  0  0
  1 12  1  0  0  0  0
  2 11  2  0  0  0  0
  3 13  1  0  0  0  0
  4 10  1  0  0  0  0
  4 11  1  0  0  0  0
  5 10  2  0  0  0  0
  5 14  1  0  0  0  0
  6 11  1  0  0  0  0
  7  8  1  0  0  0  0
  7 12  2  0  0  0  0
  8 13  2  0  0  0  0
  9 13  1  0  0  0  0
  9 14  2  0  0  0  0
 12 14  1  0  0  0  0
  3 15  1  0  0  0  0
  4 16  1  0  0  0  0
  6 17  1  0  0  0  0
  6 18  1  0  0  0  0
  6 19  1  0  0  0  0
  7 20  1  0  0  0  0
  8 21  1  0  0  0  0
  9 22  1  0  0  0  0
M  END
> <pdb_id>
5A3X

> <uniprot_id>
Q13627

> <usmiles>
S1c2c(N=C1NC(=O)C)cc(O)cc2

$$$$
QJ4_A_503
          07192423083D 1   1.00000     0.00000     0
            
 51 52  0  0  0  0            999 V2000
   17.0997   10.9973   38.1369 N   0  0  0  0  0  0  0  0  0  0  0  0
    4.8064   11.8020   31.9772 N   0  0  0  0  0  0  0  0  0  0  0  0
   15.7260   12.8615   37.9171 N   0  0  0  0  0  0  0  0  0  0  0  0
    6.9198   12.6219   32.3791 N   0  0  0  0  0  0  0  0  0  0  0  0
   18.6898   15.3845   39.7291 C   0  0  0  0  0  0  0  0  0  0  0  0
    8.5587   10.2591   29.2165 C   0  0  0  0  0  0  0  0  0  0  0  0
   12.1576   14.1542   34.9435 C   0  0  0  0  0  0  0  0  0  0  0  0
   12.6217   15.2339   35.8912 C   0  0  0  0  0  0  0  0  0  0  0  0
   10.8577   14.5499   34.2568 C   0  0  0  0  0  0  0  0  0  0  0  0
   14.1098   15.0427   36.1676 C   0  0  0  0  0  0  0  0  0  0  0  0
   10.2093   13.2798   33.7343 C   0  0  0  0  0  0  0  0  0  0  0  0
   14.1708   14.7730   37.6606 C   0  0  0  0  0  0  0  0  0  0  0  0
    8.9548   13.7392   33.0157 C   0  0  0  0  0  0  0  0  0  0  0  0
   17.8897   13.1253   38.9213 C   0  0  0  0  0  0  0  0  0  0  0  0
    6.6518   11.0618   30.6265 C   0  0  0  0  0  0  0  0  0  0  0  0
   16.4463   15.0256   38.6757 C   0  0  0  0  0  0  0  0  0  0  0  0
    8.8377   11.9649   31.1075 C   0  0  0  0  0  0  0  0  0  0  0  0
   16.8981   12.3197   38.3244 C   0  0  0  0  0  0  0  0  0  0  0  0
    6.1194   11.8432   31.6518 C   0  0  0  0  0  0  0  0  0  0  0  0
   15.4916   14.1929   38.0853 C   0  0  0  0  0  0  0  0  0  0  0  0
    8.2403   12.7215   32.1374 C   0  0  0  0  0  0  0  0  0  0  0  0
   17.6544   14.4868   39.0933 C   0  0  0  0  0  0  0  0  0  0  0  0
    8.0165   11.1111   30.3494 C   0  0  0  0  0  0  0  0  0  0  0  0
   17.9579   10.5758   38.4299 H   0  0  0  0  0  0  0  0  0  0  0  0
   16.3907   10.4397   37.7050 H   0  0  0  0  0  0  0  0  0  0  0  0
    4.1787   11.2277   31.4516 H   0  0  0  0  0  0  0  0  0  0  0  0
    4.4638   12.3458   32.7433 H   0  0  0  0  0  0  0  0  0  0  0  0
   18.3416   16.3212   39.7657 H   0  0  0  0  0  0  0  0  0  0  0  0
   18.8841   15.0646   40.6564 H   0  0  0  0  0  0  0  0  0  0  0  0
   19.5292   15.3619   39.1860 H   0  0  0  0  0  0  0  0  0  0  0  0
    9.5458   10.3983   29.1377 H   0  0  0  0  0  0  0  0  0  0  0  0
    8.3721    9.2950   29.4057 H   0  0  0  0  0  0  0  0  0  0  0  0
    8.1154   10.5225   28.3597 H   0  0  0  0  0  0  0  0  0  0  0  0
   12.0114   13.3090   35.4575 H   0  0  0  0  0  0  0  0  0  0  0  0
   12.8614   14.0045   34.2491 H   0  0  0  0  0  0  0  0  0  0  0  0
   12.1103   15.1707   36.7483 H   0  0  0  0  0  0  0  0  0  0  0  0
   12.4697   16.1316   35.4777 H   0  0  0  0  0  0  0  0  0  0  0  0
   11.0487   15.1723   33.4978 H   0  0  0  0  0  0  0  0  0  0  0  0
   10.2493   14.9990   34.9112 H   0  0  0  0  0  0  0  0  0  0  0  0
   14.6242   15.8676   35.9335 H   0  0  0  0  0  0  0  0  0  0  0  0
   14.4711   14.2666   35.6506 H   0  0  0  0  0  0  0  0  0  0  0  0
    9.9761   12.6686   34.4907 H   0  0  0  0  0  0  0  0  0  0  0  0
   10.8229   12.8078   33.1013 H   0  0  0  0  0  0  0  0  0  0  0  0
   13.4450   14.1282   37.9002 H   0  0  0  0  0  0  0  0  0  0  0  0
   14.0263   15.6339   38.1485 H   0  0  0  0  0  0  0  0  0  0  0  0
    9.2079   14.5125   32.4344 H   0  0  0  0  0  0  0  0  0  0  0  0
    8.3047   14.0442   33.7117 H   0  0  0  0  0  0  0  0  0  0  0  0
   18.7551   12.7220   39.2186 H   0  0  0  0  0  0  0  0  0  0  0  0
    6.0540   10.4660   30.0901 H   0  0  0  0  0  0  0  0  0  0  0  0
   16.2602   16.0008   38.7960 H   0  0  0  0  0  0  0  0  0  0  0  0
    9.8179   12.0337   30.9217 H   0  0  0  0  0  0  0  0  0  0  0  0
  1 18  1  0  0  0  0
  2 19  1  0  0  0  0
  3 18  2  0  0  0  0
  3 20  1  0  0  0  0
  4 19  2  0  0  0  0
  4 21  1  0  0  0  0
  5 22  1  0  0  0  0
  6 23  1  0  0  0  0
  7  8  1  0  0  0  0
  7  9  1  0  0  0  0
  8 10  1  0  0  0  0
  9 11  1  0  0  0  0
 10 12  1  0  0  0  0
 11 13  1  0  0  0  0
 12 20  1  0  0  0  0
 13 21  1  0  0  0  0
 14 18  1  0  0  0  0
 14 22  2  0  0  0  0
 15 19  1  0  0  0  0
 15 23  2  0  0  0  0
 16 20  2  0  0  0  0
 16 22  1  0  0  0  0
 17 21  2  0  0  0  0
 17 23  1  0  0  0  0
  1 24  1  0  0  0  0
  1 25  1  0  0  0  0
  2 26  1  0  0  0  0
  2 27  1  0  0  0  0
  5 28  1  0  0  0  0
  5 29  1  0  0  0  0
  5 30  1  0  0  0  0
  6 31  1  0  0  0  0
  6 32  1  0  0  0  0
  6 33  1  0  0  0  0
  7 34  1  0  0  0  0
  7 35  1  0  0  0  0
  8 36  1  0  0  0  0
  8 37  1  0  0  0  0
  9 38  1  0  0  0  0
  9 39  1  0  0  0  0
 10 40  1  0  0  0  0
 10 41  1  0  0  0  0
 11 42  1  0  0  0  0
 11 43  1  0  0  0  0
 12 44  1  0  0  0  0
 12 45  1  0  0  0  0
 13 46  1  0  0  0  0
 13 47  1  0  0  0  0
 14 48  1  0  0  0  0
 15 49  1  0  0  0  0
 16 50  1  0  0  0  0
 17 51  1  0  0  0  0
M  END
> <pdb_id>
4JSL

> <uniprot_id>
P29473

> <usmiles>
n1c(N)cc(cc1CCCCCCCc2nc(N)cc(c2)C)C

$$$$
QJI_A_1007
          07192420223D 1   1.00000     0.00000     0
            
 44 47  0  0  0  0            999 V2000
  -91.9498  -21.2087    8.1493 Cl  0  0  0  0  0  0  0  0  0  0  0  0
  -89.6461  -17.9469    9.4275 O   0  0  0  0  0  0  0  0  0  0  0  0
  -83.8081  -16.4735   11.4772 N   0  0  0  0  0  0  0  0  0  0  0  0
  -89.0959  -16.3929    5.1217 N   0  0  0  0  0  0  0  0  0  0  0  0
  -91.4672  -18.3248    8.1827 N   0  0  0  0  0  0  0  0  0  0  0  0
  -88.2451  -16.9460    7.1262 N   0  0  0  0  0  0  0  0  0  0  0  0
  -83.8602  -17.7892   10.8701 C   0  0  0  0  0  0  0  0  0  0  0  0
  -83.5318  -15.4666   10.4601 C   0  0  0  0  0  0  0  0  0  0  0  0
  -90.0857  -16.8645    5.9311 C   0  0  0  0  0  0  0  0  0  0  0  0
  -87.2460  -17.0713    8.0931 C   0  0  0  0  0  0  0  0  0  0  0  0
  -93.6612  -19.7625   11.4538 C   0  0  0  0  0  0  0  0  0  0  0  0
  -93.4041  -18.4082   11.3663 C   0  0  0  0  0  0  0  0  0  0  0  0
  -84.9713  -17.8871    9.8189 C   0  0  0  0  0  0  0  0  0  0  0  0
  -84.6488  -15.4464    9.4411 C   0  0  0  0  0  0  0  0  0  0  0  0
  -93.2285  -20.6293   10.4543 C   0  0  0  0  0  0  0  0  0  0  0  0
  -86.6556  -16.0427    5.5654 C   0  0  0  0  0  0  0  0  0  0  0  0
  -92.6857  -17.8901   10.2920 C   0  0  0  0  0  0  0  0  0  0  0  0
  -85.6959  -16.1744    6.4996 C   0  0  0  0  0  0  0  0  0  0  0  0
  -90.2221  -17.8940    8.3411 C   0  0  0  0  0  0  0  0  0  0  0  0
  -92.5072  -20.1192    9.3870 C   0  0  0  0  0  0  0  0  0  0  0  0
  -87.9853  -16.4327    5.8637 C   0  0  0  0  0  0  0  0  0  0  0  0
  -92.2272  -18.7612    9.2783 C   0  0  0  0  0  0  0  0  0  0  0  0
  -89.6095  -17.2421    7.1679 C   0  0  0  0  0  0  0  0  0  0  0  0
  -85.9767  -16.7095    7.7973 C   0  0  0  0  0  0  0  0  0  0  0  0
  -84.8200  -16.7892    8.7589 C   0  0  0  0  0  0  0  0  0  0  0  0
  -83.0840  -16.4552   12.1667 H   0  0  0  0  0  0  0  0  0  0  0  0
  -91.8703  -18.3385    7.2676 H   0  0  0  0  0  0  0  0  0  0  0  0
  -84.0292  -18.4687   11.5841 H   0  0  0  0  0  0  0  0  0  0  0  0
  -82.9817  -17.9783   10.4312 H   0  0  0  0  0  0  0  0  0  0  0  0
  -82.6695  -15.6846   10.0029 H   0  0  0  0  0  0  0  0  0  0  0  0
  -83.4615  -14.5680   10.8932 H   0  0  0  0  0  0  0  0  0  0  0  0
  -91.0459  -16.9291    5.6592 H   0  0  0  0  0  0  0  0  0  0  0  0
  -87.4679  -17.4273    9.0009 H   0  0  0  0  0  0  0  0  0  0  0  0
  -94.1618  -20.1229   12.2409 H   0  0  0  0  0  0  0  0  0  0  0  0
  -93.7372  -17.7938   12.0815 H   0  0  0  0  0  0  0  0  0  0  0  0
  -85.8583  -17.7869   10.2697 H   0  0  0  0  0  0  0  0  0  0  0  0
  -84.9228  -18.7811    9.3735 H   0  0  0  0  0  0  0  0  0  0  0  0
  -84.4409  -14.7563    8.7478 H   0  0  0  0  0  0  0  0  0  0  0  0
  -85.5030  -15.2079    9.9031 H   0  0  0  0  0  0  0  0  0  0  0  0
  -93.4354  -21.6063   10.5058 H   0  0  0  0  0  0  0  0  0  0  0  0
  -86.4315  -15.6713    4.6644 H   0  0  0  0  0  0  0  0  0  0  0  0
  -92.4958  -16.9098   10.2383 H   0  0  0  0  0  0  0  0  0  0  0  0
  -84.7620  -15.8910    6.2815 H   0  0  0  0  0  0  0  0  0  0  0  0
  -83.9910  -16.9780    8.2325 H   0  0  0  0  0  0  0  0  0  0  0  0
  1 20  1  0  0  0  0
  2 19  2  0  0  0  0
  3  7  1  0  0  0  0
  3  8  1  0  0  0  0
  4  9  1  0  0  0  0
  4 21  2  0  0  0  0
  5 19  1  0  0  0  0
  5 22  1  0  0  0  0
  6 10  1  0  0  0  0
  6 21  1  0  0  0  0
  6 23  1  0  0  0  0
  7 13  1  0  0  0  0
  8 14  1  0  0  0  0
  9 23  2  0  0  0  0
 10 24  2  0  0  0  0
 11 12  2  0  0  0  0
 11 15  1  0  0  0  0
 12 17  1  0  0  0  0
 13 25  1  0  0  0  0
 14 25  1  0  0  0  0
 15 20  2  0  0  0  0
 16 18  2  0  0  0  0
 16 21  1  0  0  0  0
 17 22  2  0  0  0  0
 18 24  1  0  0  0  0
 19 23  1  0  0  0  0
 20 22  1  0  0  0  0
 24 25  1  0  0  0  0
  3 26  1  0  0  0  0
  5 27  1  0  0  0  0
  7 28  1  0  0  0  0
  7 29  1  0  0  0  0
  8 30  1  0  0  0  0
  8 31  1  0  0  0  0
  9 32  1  0  0  0  0
 10 33  1  0  0  0  0
 11 34  1  0  0  0  0
 12 35  1  0  0  0  0
 13 36  1  0  0  0  0
 13 37  1  0  0  0  0
 14 38  1  0  0  0  0
 14 39  1  0  0  0  0
 15 40  1  0  0  0  0
 16 41  1  0  0  0  0
 17 42  1  0  0  0  0
 18 43  1  0  0  0  0
 25 44  1  0  0  0  0
M  END
> <pdb_id>
8BK0

> <uniprot_id>
P29317

> <usmiles>
Clc1c(NC(=O)C=2N3C(=NC2)C=CC(=C3)C4CCNCC4)cccc1

$$$$
QL7_B_502
          07202414093D 1   1.00000     0.00000     0
            
 62 66  0  0  0  0            999 V2000
   29.5580   23.2520   24.6350 F   0  0  0  0  0  0  0  0  0  0  0  0
   27.7690   22.9210   32.5590 O   0  0  0  0  0  0  0  0  0  0  0  0
   31.3850   25.3670   26.2590 O   0  0  0  0  0  0  0  0  0  0  0  0
   29.6230   21.0870   22.8240 O   0  0  0  0  0  0  0  0  0  0  0  0
   28.4180   30.2160   31.0000 O   0  0  0  0  0  0  0  0  0  0  0  0
   25.0960   24.5220   35.4480 N   0  0  0  0  0  0  0  0  0  0  0  0
   26.9680   27.0850   33.8500 N   0  0  0  0  0  0  0  0  0  0  0  0
   28.0810   25.0930   31.9210 N   0  0  0  0  0  0  0  0  0  0  0  0
   25.4940   25.8020   35.2320 N   0  0  0  0  0  0  0  0  0  0  0  0
   30.8780   23.2550   26.9640 N   0  0  0  0  0  0  0  0  0  0  0  0
   28.7640   27.4250   30.6550 N   0  0  0  0  0  0  0  0  0  0  0  0
   31.6480   20.2470   23.8400 C   0  0  0  0  0  0  0  0  0  0  0  0
   31.5890   22.4980   22.7660 C   0  0  0  0  0  0  0  0  0  0  0  0
   29.3750   29.4970   31.7740 C   0  0  0  0  0  0  0  0  0  0  0  0
   27.3000   29.3810   30.6540 C   0  0  0  0  0  0  0  0  0  0  0  0
   26.5850   28.1800   34.5250 C   0  0  0  0  0  0  0  0  0  0  0  0
   25.8040   23.8120   34.5590 C   0  0  0  0  0  0  0  0  0  0  0  0
   29.8920   28.2790   31.0380 C   0  0  0  0  0  0  0  0  0  0  0  0
   27.7380   28.1450   29.8880 C   0  0  0  0  0  0  0  0  0  0  0  0
   25.1000   26.9490   35.8970 C   0  0  0  0  0  0  0  0  0  0  0  0
   31.4320   22.4860   25.8540 C   0  0  0  0  0  0  0  0  0  0  0  0
   30.2220   22.5730   28.0810 C   0  0  0  0  0  0  0  0  0  0  0  0
   25.6600   28.1690   35.5540 C   0  0  0  0  0  0  0  0  0  0  0  0
   29.0710   23.7380   30.1250 C   0  0  0  0  0  0  0  0  0  0  0  0
   29.8730   26.1530   28.8800 C   0  0  0  0  0  0  0  0  0  0  0  0
   27.5270   24.1250   32.6850 C   0  0  0  0  0  0  0  0  0  0  0  0
   30.8840   24.5990   27.0610 C   0  0  0  0  0  0  0  0  0  0  0  0
   30.3030   22.0980   24.9230 C   0  0  2  0  0  0  0  0  0  0  0  0
   26.4300   25.9090   34.2090 C   0  0  0  0  0  0  0  0  0  0  0  0
   28.7660   24.9830   30.6890 C   0  0  0  0  0  0  0  0  0  0  0  0
   29.1460   26.1850   30.0670 C   0  0  0  0  0  0  0  0  0  0  0  0
   29.7720   23.7250   28.9230 C   0  0  0  0  0  0  0  0  0  0  0  0
   26.6260   24.5980   33.7430 C   0  0  0  0  0  0  0  0  0  0  0  0
   30.1720   24.9140   28.3230 C   0  0  0  0  0  0  0  0  0  0  0  0
   30.8000   21.4790   23.5690 C   0  0  0  0  0  0  0  0  0  0  0  0
   29.0599   21.8931   22.6420 H   0  0  0  0  0  0  0  0  0  0  0  0
   27.9936   26.0224   32.2795 H   0  0  0  0  0  0  0  0  0  0  0  0
   32.4637   20.5105   24.3549 H   0  0  0  0  0  0  0  0  0  0  0  0
   31.1170   19.5872   24.3716 H   0  0  0  0  0  0  0  0  0  0  0  0
   31.9212   19.8328   22.9718 H   0  0  0  0  0  0  0  0  0  0  0  0
   32.4027   22.7697   23.2799 H   0  0  0  0  0  0  0  0  0  0  0  0
   31.8650   22.0938   21.8940 H   0  0  0  0  0  0  0  0  0  0  0  0
   31.0189   23.3016   22.5953 H   0  0  0  0  0  0  0  0  0  0  0  0
   28.9452   29.2015   32.6272 H   0  0  0  0  0  0  0  0  0  0  0  0
   30.1445   30.1014   31.9803 H   0  0  0  0  0  0  0  0  0  0  0  0
   26.6664   29.9066   30.0862 H   0  0  0  0  0  0  0  0  0  0  0  0
   26.8371   29.0952   31.4930 H   0  0  0  0  0  0  0  0  0  0  0  0
   26.9926   29.0565   34.2689 H   0  0  0  0  0  0  0  0  0  0  0  0
   25.7503   22.8161   34.4856 H   0  0  0  0  0  0  0  0  0  0  0  0
   30.3841   28.5693   30.2173 H   0  0  0  0  0  0  0  0  0  0  0  0
   30.5106   27.7670   31.6340 H   0  0  0  0  0  0  0  0  0  0  0  0
   26.9499   27.5467   29.7437 H   0  0  0  0  0  0  0  0  0  0  0  0
   28.1153   28.4186   29.0032 H   0  0  0  0  0  0  0  0  0  0  0  0
   24.4137   26.8979   36.6225 H   0  0  0  0  0  0  0  0  0  0  0  0
   31.8777   21.6622   26.2044 H   0  0  0  0  0  0  0  0  0  0  0  0
   32.1002   23.0419   25.3596 H   0  0  0  0  0  0  0  0  0  0  0  0
   30.8634   21.9881   28.5775 H   0  0  0  0  0  0  0  0  0  0  0  0
   29.4457   22.0259   27.7680 H   0  0  0  0  0  0  0  0  0  0  0  0
   25.4053   29.0097   36.0320 H   0  0  0  0  0  0  0  0  0  0  0  0
   28.7943   22.8869   30.5711 H   0  0  0  0  0  0  0  0  0  0  0  0
   30.1725   26.9991   28.4392 H   0  0  0  0  0  0  0  0  0  0  0  0
   29.7126   21.4367   25.3857 H   0  0  0  0  0  0  0  0  0  0  0  0
  1 28  1  0  0  0  0
  2 26  2  0  0  0  0
  3 27  2  0  0  0  0
  4 35  1  0  0  0  0
  5 14  1  0  0  0  0
  5 15  1  0  0  0  0
  6  9  1  0  0  0  0
  6 17  2  0  0  0  0
  7 16  2  0  0  0  0
  7 29  1  0  0  0  0
  8 26  1  0  0  0  0
  8 30  1  0  0  0  0
  9 20  1  0  0  0  0
  9 29  1  0  0  0  0
 10 21  1  0  0  0  0
 10 22  1  0  0  0  0
 10 27  1  0  0  0  0
 11 18  1  0  0  0  0
 11 19  1  0  0  0  0
 11 31  1  0  0  0  0
 12 35  1  0  0  0  0
 13 35  1  0  0  0  0
 14 18  1  0  0  0  0
 15 19  1  0  0  0  0
 16 23  1  0  0  0  0
 17 33  1  0  0  0  0
 20 23  2  0  0  0  0
 21 28  1  0  0  0  0
 22 32  1  0  0  0  0
 24 30  2  0  0  0  0
 24 32  1  0  0  0  0
 25 31  2  0  0  0  0
 25 34  1  0  0  0  0
 26 33  1  0  0  0  0
 27 34  1  0  0  0  0
 28 35  1  0  0  0  0
 29 33  2  0  0  0  0
 30 31  1  0  0  0  0
 32 34  2  0  0  0  0
  4 36  1  0  0  0  0
  8 37  1  0  0  0  0
 12 38  1  0  0  0  0
 12 39  1  0  0  0  0
 12 40  1  0  0  0  0
 13 41  1  0  0  0  0
 13 42  1  0  0  0  0
 13 43  1  0  0  0  0
 14 44  1  0  0  0  0
 14 45  1  0  0  0  0
 15 46  1  0  0  0  0
 15 47  1  0  0  0  0
 16 48  1  0  0  0  0
 17 49  1  0  0  0  0
 18 50  1  0  0  0  0
 18 51  1  0  0  0  0
 19 52  1  0  0  0  0
 19 53  1  0  0  0  0
 20 54  1  0  0  0  0
 21 55  1  0  0  0  0
 21 56  1  0  0  0  0
 22 57  1  0  0  0  0
 22 58  1  0  0  0  0
 23 59  1  0  0  0  0
 24 60  1  0  0  0  0
 25 61  1  0  0  0  0
 28 62  1  0  0  0  0
M  END
> <pdb_id>
6UYA

> <uniprot_id>
Q9NWZ3

> <usmiles>
F[C@@H](C(O)(C)C)CN1C(=O)c2c(cc(NC(=O)C3=C4N=CC=CN4N=C3)c(N5CCOCC5)c2)C1

$$$$
QM2_A_401
          07202416123D 1   1.00000     0.00000     0
            
 37 40  0  0  0  0            999 V2000
   60.8010    2.4140   -2.2070 S   0  0  0  0  0  0  0  0  0  0  0  0
   63.7240    1.1090   -3.2510 S   0  0  0  0  0  0  0  0  0  0  0  0
   57.6110    4.3270   -0.9470 O   0  0  0  0  0  0  0  0  0  0  0  0
   59.7140    3.9690   -0.2270 O   0  0  0  0  0  0  0  0  0  0  0  0
   59.8570    1.3340   -4.4980 N   0  0  0  0  0  0  0  0  0  0  0  0
   61.1790    0.0900   -6.0870 N   0  0  0  0  0  0  0  0  0  0  0  0
   59.0520    2.8560   -2.2130 C   0  0  0  0  0  0  0  0  0  0  0  0
   60.0520    0.6420   -5.6280 C   0  0  0  0  0  0  0  0  0  0  0  0
   66.7160    0.4560   -3.4580 C   0  0  0  0  0  0  0  0  0  0  0  0
   66.5940   -0.5490   -5.6230 C   0  0  0  0  0  0  0  0  0  0  0  0
   68.0820    0.1980   -3.4260 C   0  0  0  0  0  0  0  0  0  0  0  0
   67.9540   -0.7900   -5.5890 C   0  0  0  0  0  0  0  0  0  0  0  0
   70.8540   -1.1620   -3.1190 C   0  0  0  0  0  0  0  0  0  0  0  0
   71.1780    0.1540   -3.7210 C   0  0  0  0  0  0  0  0  0  0  0  0
   63.6030   -0.1070   -5.5030 C   0  0  0  0  0  0  0  0  0  0  0  0
   58.7110    3.7930   -1.0740 C   0  0  0  0  0  0  0  0  0  0  0  0
   60.9240    1.4840   -3.7080 C   0  0  0  0  0  0  0  0  0  0  0  0
   64.4950    0.2670   -4.5630 C   0  0  0  0  0  0  0  0  0  0  0  0
   62.1920    0.9630   -4.0630 C   0  0  0  0  0  0  0  0  0  0  0  0
   62.2590    0.2820   -5.2810 C   0  0  0  0  0  0  0  0  0  0  0  0
   65.9510    0.0780   -4.5540 C   0  0  0  0  0  0  0  0  0  0  0  0
   68.7170   -0.4310   -4.4850 C   0  0  0  0  0  0  0  0  0  0  0  0
   70.2000   -0.7590   -4.4180 C   0  0  0  0  0  0  0  0  0  0  0  0
   56.8914    4.1558   -1.6199 H   0  0  0  0  0  0  0  0  0  0  0  0
   58.5063    2.0229   -2.1226 H   0  0  0  0  0  0  0  0  0  0  0  0
   58.8336    3.3051   -3.0794 H   0  0  0  0  0  0  0  0  0  0  0  0
   59.2451    0.5222   -6.2064 H   0  0  0  0  0  0  0  0  0  0  0  0
   66.2806    0.9177   -2.6852 H   0  0  0  0  0  0  0  0  0  0  0  0
   66.0633   -0.8272   -6.4236 H   0  0  0  0  0  0  0  0  0  0  0  0
   68.6152    0.4710   -2.6252 H   0  0  0  0  0  0  0  0  0  0  0  0
   68.3959   -1.2296   -6.3710 H   0  0  0  0  0  0  0  0  0  0  0  0
   70.3112   -1.2066   -2.2803 H   0  0  0  0  0  0  0  0  0  0  0  0
   71.5404   -1.8892   -3.1109 H   0  0  0  0  0  0  0  0  0  0  0  0
   72.0824    0.3117   -4.1176 H   0  0  0  0  0  0  0  0  0  0  0  0
   70.8532    0.9943   -3.2869 H   0  0  0  0  0  0  0  0  0  0  0  0
   63.8750   -0.6294   -6.3111 H   0  0  0  0  0  0  0  0  0  0  0  0
   70.5629   -1.2189   -5.2284 H   0  0  0  0  0  0  0  0  0  0  0  0
  1  7  1  0  0  0  0
  1 17  1  0  0  0  0
  2 18  1  0  0  0  0
  2 19  1  0  0  0  0
  3 16  1  0  0  0  0
  4 16  2  0  0  0  0
  5  8  2  0  0  0  0
  5 17  1  0  0  0  0
  6  8  1  0  0  0  0
  6 20  2  0  0  0  0
  7 16  1  0  0  0  0
  9 11  1  0  0  0  0
  9 21  2  0  0  0  0
 10 12  2  0  0  0  0
 10 21  1  0  0  0  0
 11 22  2  0  0  0  0
 12 22  1  0  0  0  0
 13 14  1  0  0  0  0
 13 23  1  0  0  0  0
 14 23  1  0  0  0  0
 15 18  2  0  0  0  0
 15 20  1  0  0  0  0
 17 19  2  0  0  0  0
 18 21  1  0  0  0  0
 19 20  1  0  0  0  0
 22 23  1  0  0  0  0
  3 24  1  0  0  0  0
  7 25  1  0  0  0  0
  7 26  1  0  0  0  0
  8 27  1  0  0  0  0
  9 28  1  0  0  0  0
 10 29  1  0  0  0  0
 11 30  1  0  0  0  0
 12 31  1  0  0  0  0
 13 32  1  0  0  0  0
 13 33  1  0  0  0  0
 14 34  1  0  0  0  0
 14 35  1  0  0  0  0
 15 36  1  0  0  0  0
 23 37  1  0  0  0  0
M  END
> <pdb_id>
6ZJF

> <uniprot_id>
O94768

> <usmiles>
S1c2c(SCC(=O)O)ncnc2C=C1c3ccc(cc3)C4CC4

$$$$
QMG_A_201
          07212401333D 1   1.00000     0.00000     0
            
 44 47  0  0  0  0            999 V2000
  -11.3589  -16.8028  -22.5589 O   0  0  0  0  0  0  0  0  0  0  0  0
  -16.9274  -23.1477  -23.2782 O   0  0  0  0  0  0  0  0  0  0  0  0
  -13.2010  -22.2432  -19.7004 N   0  0  0  0  0  0  0  0  0  0  0  0
  -11.3596  -15.0254  -21.1688 N   0  0  0  0  0  0  0  0  0  0  0  0
  -14.9560  -22.4363  -21.2844 N   0  0  0  0  0  0  0  0  0  0  0  0
  -17.6852  -20.9226  -23.4866 C   0  0  0  0  0  0  0  0  0  0  0  0
  -14.3819  -19.8307  -17.6739 C   0  0  0  0  0  0  0  0  0  0  0  0
  -13.0751  -23.5938  -19.6473 C   0  0  0  0  0  0  0  0  0  0  0  0
  -14.8655  -23.8093  -21.2696 C   0  0  0  0  0  0  0  0  0  0  0  0
  -13.9037  -24.4189  -20.4384 C   0  0  0  0  0  0  0  0  0  0  0  0
  -10.1620  -12.8157  -21.5894 C   0  0  0  0  0  0  0  0  0  0  0  0
   -9.1600  -13.9679  -21.7489 C   0  0  0  0  0  0  0  0  0  0  0  0
  -13.0145  -17.8261  -18.2375 C   0  0  0  0  0  0  0  0  0  0  0  0
  -12.3604  -16.9497  -19.1230 C   0  0  0  0  0  0  0  0  0  0  0  0
  -15.4341  -20.2817  -21.6276 C   0  0  0  0  0  0  0  0  0  0  0  0
  -13.0794  -18.3297  -20.9709 C   0  0  0  0  0  0  0  0  0  0  0  0
  -11.7002  -16.3237  -21.4407 C   0  0  0  0  0  0  0  0  0  0  0  0
  -16.7857  -21.9471  -22.9184 C   0  0  0  0  0  0  0  0  0  0  0  0
  -14.1327  -21.6813  -20.5141 C   0  0  0  0  0  0  0  0  0  0  0  0
  -10.6470  -14.1855  -22.0803 C   0  0  0  0  0  0  0  0  0  0  0  0
  -15.7712  -21.5982  -21.9885 C   0  0  0  0  0  0  0  0  0  0  0  0
  -13.7194  -18.9661  -18.6926 C   0  0  0  0  0  0  0  0  0  0  0  0
  -12.3884  -17.1798  -20.5232 C   0  0  0  0  0  0  0  0  0  0  0  0
  -14.4093  -20.3246  -20.6892 C   0  0  0  0  0  0  0  0  0  0  0  0
  -13.7576  -19.2156  -20.0912 C   0  0  0  0  0  0  0  0  0  0  0  0
  -11.6241  -14.6435  -20.2832 H   0  0  0  0  0  0  0  0  0  0  0  0
  -17.4514  -20.0269  -23.1083 H   0  0  0  0  0  0  0  0  0  0  0  0
  -17.5810  -20.9020  -24.4809 H   0  0  0  0  0  0  0  0  0  0  0  0
  -18.6323  -21.1453  -23.2552 H   0  0  0  0  0  0  0  0  0  0  0  0
  -14.8394  -20.5936  -18.1309 H   0  0  0  0  0  0  0  0  0  0  0  0
  -13.6946  -20.1856  -17.0402 H   0  0  0  0  0  0  0  0  0  0  0  0
  -15.0559  -19.2928  -17.1676 H   0  0  0  0  0  0  0  0  0  0  0  0
  -12.3919  -24.0065  -19.0447 H   0  0  0  0  0  0  0  0  0  0  0  0
  -15.4714  -24.3651  -21.8388 H   0  0  0  0  0  0  0  0  0  0  0  0
  -13.8105  -25.4141  -20.4097 H   0  0  0  0  0  0  0  0  0  0  0  0
  -10.1356  -12.0399  -22.2197 H   0  0  0  0  0  0  0  0  0  0  0  0
  -10.4130  -12.4949  -20.6761 H   0  0  0  0  0  0  0  0  0  0  0  0
   -8.7595  -14.3982  -20.9400 H   0  0  0  0  0  0  0  0  0  0  0  0
   -8.4820  -13.9432  -22.4835 H   0  0  0  0  0  0  0  0  0  0  0  0
  -12.9801  -17.6378  -17.2560 H   0  0  0  0  0  0  0  0  0  0  0  0
  -11.8706  -16.1562  -18.7618 H   0  0  0  0  0  0  0  0  0  0  0  0
  -15.8610  -19.4517  -21.9865 H   0  0  0  0  0  0  0  0  0  0  0  0
  -13.0913  -18.5281  -21.9509 H   0  0  0  0  0  0  0  0  0  0  0  0
  -10.8889  -14.2599  -23.0478 H   0  0  0  0  0  0  0  0  0  0  0  0
  1 17  2  0  0  0  0
  2 18  2  0  0  0  0
  3  8  2  0  0  0  0
  3 19  1  0  0  0  0
  4 17  1  0  0  0  0
  4 20  1  0  0  0  0
  5  9  1  0  0  0  0
  5 19  1  0  0  0  0
  5 21  1  0  0  0  0
  6 18  1  0  0  0  0
  7 22  1  0  0  0  0
  8 10  1  0  0  0  0
  9 10  2  0  0  0  0
 11 12  1  0  0  0  0
 11 20  1  0  0  0  0
 12 20  1  0  0  0  0
 13 14  1  0  0  0  0
 13 22  2  0  0  0  0
 14 23  2  0  0  0  0
 15 21  2  0  0  0  0
 15 24  1  0  0  0  0
 16 23  1  0  0  0  0
 16 25  2  0  0  0  0
 17 23  1  0  0  0  0
 18 21  1  0  0  0  0
 19 24  2  0  0  0  0
 22 25  1  0  0  0  0
 24 25  1  0  0  0  0
  4 26  1  0  0  0  0
  6 27  1  0  0  0  0
  6 28  1  0  0  0  0
  6 29  1  0  0  0  0
  7 30  1  0  0  0  0
  7 31  1  0  0  0  0
  7 32  1  0  0  0  0
  8 33  1  0  0  0  0
  9 34  1  0  0  0  0
 10 35  1  0  0  0  0
 11 36  1  0  0  0  0
 11 37  1  0  0  0  0
 12 38  1  0  0  0  0
 12 39  1  0  0  0  0
 13 40  1  0  0  0  0
 14 41  1  0  0  0  0
 15 42  1  0  0  0  0
 16 43  1  0  0  0  0
 20 44  1  0  0  0  0
M  END
> <pdb_id>
6V1U

> <uniprot_id>
O60885

> <usmiles>
O=C(NC1CC1)c2cc(c(cc2)C)C3=C4N=CC=CN4C(C(=O)C)=C3

$$$$
QMG_A_301
          07202405143D 1   1.00000     0.00000     0
            
 44 47  0  0  0  0            999 V2000
    5.3258   17.7612    8.0151 O   0  0  0  0  0  0  0  0  0  0  0  0
   -2.5829   11.6777   11.2782 O   0  0  0  0  0  0  0  0  0  0  0  0
    1.4877   14.9529   11.9822 N   0  0  0  0  0  0  0  0  0  0  0  0
    3.2922   18.3614    8.7441 N   0  0  0  0  0  0  0  0  0  0  0  0
   -0.2976   13.4823   11.4458 N   0  0  0  0  0  0  0  0  0  0  0  0
   -2.1301   11.0527    9.0841 C   0  0  0  0  0  0  0  0  0  0  0  0
    3.0291   11.7157    8.3607 C   0  0  0  0  0  0  0  0  0  0  0  0
    0.8964   15.2727   13.1609 C   0  0  0  0  0  0  0  0  0  0  0  0
   -0.9264   13.7787   12.6250 C   0  0  0  0  0  0  0  0  0  0  0  0
   -0.3351   14.6917   13.5192 C   0  0  0  0  0  0  0  0  0  0  0  0
    3.5801   20.5156    7.3915 C   0  0  0  0  0  0  0  0  0  0  0  0
    2.4013   20.6761    8.3562 C   0  0  0  0  0  0  0  0  0  0  0  0
    4.3506   13.7047    7.6515 C   0  0  0  0  0  0  0  0  0  0  0  0
    4.6353   15.0777    7.6525 C   0  0  0  0  0  0  0  0  0  0  0  0
    0.3672   12.7353    9.4714 C   0  0  0  0  0  0  0  0  0  0  0  0
    2.7808   15.4637    9.1621 C   0  0  0  0  0  0  0  0  0  0  0  0
    4.1827   17.3920    8.3815 C   0  0  0  0  0  0  0  0  0  0  0  0
   -1.8104   11.8274   10.3041 C   0  0  0  0  0  0  0  0  0  0  0  0
    0.8908   14.0681   11.1431 C   0  0  0  0  0  0  0  0  0  0  0  0
    3.5766   19.7632    8.7334 C   0  0  0  0  0  0  0  0  0  0  0  0
   -0.6511   12.6482   10.4287 C   0  0  0  0  0  0  0  0  0  0  0  0
    3.2783   13.1831    8.4041 C   0  0  0  0  0  0  0  0  0  0  0  0
    3.8607   15.9941    8.4061 C   0  0  0  0  0  0  0  0  0  0  0  0
    1.3459   13.6252    9.9060 C   0  0  0  0  0  0  0  0  0  0  0  0
    2.4785   14.0762    9.1736 C   0  0  0  0  0  0  0  0  0  0  0  0
    2.3807   18.0721    9.0366 H   0  0  0  0  0  0  0  0  0  0  0  0
   -1.4512   11.2495    8.3768 H   0  0  0  0  0  0  0  0  0  0  0  0
   -2.1164   10.0756    9.2965 H   0  0  0  0  0  0  0  0  0  0  0  0
   -3.0387   11.3095    8.7547 H   0  0  0  0  0  0  0  0  0  0  0  0
    2.2434   11.4937    8.9381 H   0  0  0  0  0  0  0  0  0  0  0  0
    2.8399   11.4374    7.4190 H   0  0  0  0  0  0  0  0  0  0  0  0
    3.8367   11.2304    8.6958 H   0  0  0  0  0  0  0  0  0  0  0  0
    1.3375   15.9242   13.7781 H   0  0  0  0  0  0  0  0  0  0  0  0
   -1.8009   13.3492   12.8502 H   0  0  0  0  0  0  0  0  0  0  0  0
   -0.7782   14.9214   14.3858 H   0  0  0  0  0  0  0  0  0  0  0  0
    4.2140   21.2751    7.2458 H   0  0  0  0  0  0  0  0  0  0  0  0
    3.4608   20.0122    6.5357 H   0  0  0  0  0  0  0  0  0  0  0  0
    1.5125   20.2781    8.1294 H   0  0  0  0  0  0  0  0  0  0  0  0
    2.2656   21.5410    8.8395 H   0  0  0  0  0  0  0  0  0  0  0  0
    4.9173   13.0853    7.1082 H   0  0  0  0  0  0  0  0  0  0  0  0
    5.4026   15.4180    7.1090 H   0  0  0  0  0  0  0  0  0  0  0  0
    0.3883   12.2342    8.6064 H   0  0  0  0  0  0  0  0  0  0  0  0
    2.2161   16.0870    9.7030 H   0  0  0  0  0  0  0  0  0  0  0  0
    4.1991   20.1008    9.4394 H   0  0  0  0  0  0  0  0  0  0  0  0
  1 17  2  0  0  0  0
  2 18  2  0  0  0  0
  3  8  2  0  0  0  0
  3 19  1  0  0  0  0
  4 17  1  0  0  0  0
  4 20  1  0  0  0  0
  5  9  1  0  0  0  0
  5 19  1  0  0  0  0
  5 21  1  0  0  0  0
  6 18  1  0  0  0  0
  7 22  1  0  0  0  0
  8 10  1  0  0  0  0
  9 10  2  0  0  0  0
 11 12  1  0  0  0  0
 11 20  1  0  0  0  0
 12 20  1  0  0  0  0
 13 14  1  0  0  0  0
 13 22  2  0  0  0  0
 14 23  2  0  0  0  0
 15 21  2  0  0  0  0
 15 24  1  0  0  0  0
 16 23  1  0  0  0  0
 16 25  2  0  0  0  0
 17 23  1  0  0  0  0
 18 21  1  0  0  0  0
 19 24  2  0  0  0  0
 22 25  1  0  0  0  0
 24 25  1  0  0  0  0
  4 26  1  0  0  0  0
  6 27  1  0  0  0  0
  6 28  1  0  0  0  0
  6 29  1  0  0  0  0
  7 30  1  0  0  0  0
  7 31  1  0  0  0  0
  7 32  1  0  0  0  0
  8 33  1  0  0  0  0
  9 34  1  0  0  0  0
 10 35  1  0  0  0  0
 11 36  1  0  0  0  0
 11 37  1  0  0  0  0
 12 38  1  0  0  0  0
 12 39  1  0  0  0  0
 13 40  1  0  0  0  0
 14 41  1  0  0  0  0
 15 42  1  0  0  0  0
 16 43  1  0  0  0  0
 20 44  1  0  0  0  0
M  END
> <pdb_id>
6V14

> <uniprot_id>
Q9H8M2

> <usmiles>
O=C(NC1CC1)c2cc(c(cc2)C)C3=C4N=CC=CN4C(C(=O)C)=C3

$$$$
QMR_A_1214
          07192422283D 1   1.00000     0.00000     0
            
 29 32  0  0  0  0            999 V2000
   45.0159    9.5007   14.6618 N   0  0  0  0  0  0  0  0  0  0  0  0
   44.3556   12.8979   19.2503 N   0  0  0  0  0  0  0  0  0  0  0  0
   41.7586   12.4337   18.4571 N   0  0  0  0  0  0  0  0  0  0  0  0
   43.3323   13.0135   20.1195 C   0  0  0  0  0  0  0  0  0  0  0  0
   42.0173   12.7842   19.7329 C   0  0  0  0  0  0  0  0  0  0  0  0
   46.2044   10.4090   14.6045 C   0  0  0  0  0  0  0  0  0  0  0  0
   43.7956    9.9959   13.8377 C   0  0  0  0  0  0  0  0  0  0  0  0
   45.1789   12.3803   17.0057 C   0  0  0  0  0  0  0  0  0  0  0  0
   42.5393   11.9376   16.2024 C   0  0  0  0  0  0  0  0  0  0  0  0
   44.9097   12.1150   13.5670 C   0  0  0  0  0  0  0  0  0  0  0  0
   44.0974   12.5145   17.9255 C   0  0  0  0  0  0  0  0  0  0  0  0
   42.8280   12.2920   17.5429 C   0  0  0  0  0  0  0  0  0  0  0  0
   45.8575   11.8369   14.6199 C   0  0  1  0  0  0  0  0  0  0  0  0
   43.6519   11.4379   13.9042 C   0  0  2  0  0  0  0  0  0  0  0  0
   44.9260   12.0102   15.6540 C   0  0  0  0  0  0  0  0  0  0  0  0
   43.6141   11.7888   15.2692 C   0  0  0  0  0  0  0  0  0  0  0  0
   44.7342    9.4127   15.6173 H   0  0  0  0  0  0  0  0  0  0  0  0
   43.5241   13.2708   21.0666 H   0  0  0  0  0  0  0  0  0  0  0  0
   41.2720   12.8780   20.3931 H   0  0  0  0  0  0  0  0  0  0  0  0
   46.7092   10.2158   13.7631 H   0  0  0  0  0  0  0  0  0  0  0  0
   46.7870   10.2170   15.3942 H   0  0  0  0  0  0  0  0  0  0  0  0
   42.9661    9.5706   14.1998 H   0  0  0  0  0  0  0  0  0  0  0  0
   43.9187    9.7263   12.8826 H   0  0  0  0  0  0  0  0  0  0  0  0
   46.1167   12.5465   17.3105 H   0  0  0  0  0  0  0  0  0  0  0  0
   41.5937   11.7929   15.9109 H   0  0  0  0  0  0  0  0  0  0  0  0
   45.2585   11.7702   12.6956 H   0  0  0  0  0  0  0  0  0  0  0  0
   44.7573   13.1010   13.4984 H   0  0  0  0  0  0  0  0  0  0  0  0
   46.6407   12.4578   14.6533 H   0  0  0  0  0  0  0  0  0  0  0  0
   42.8680   11.7808   13.3866 H   0  0  0  0  0  0  0  0  0  0  0  0
  1  6  1  0  0  0  0
  1  7  1  0  0  0  0
  2  4  2  0  0  0  0
  2 11  1  0  0  0  0
  3  5  2  0  0  0  0
  3 12  1  0  0  0  0
  4  5  1  0  0  0  0
  6 13  1  0  0  0  0
  7 14  1  0  0  0  0
  8 11  2  0  0  0  0
  8 15  1  0  0  0  0
  9 12  2  0  0  0  0
  9 16  1  0  0  0  0
 10 13  1  0  0  0  0
 10 14  1  0  0  0  0
 11 12  1  0  0  0  0
 13 15  1  0  0  0  0
 14 16  1  0  0  0  0
 15 16  2  0  0  0  0
  1 17  1  0  0  0  0
  4 18  1  0  0  0  0
  5 19  1  0  0  0  0
  6 20  1  0  0  0  0
  6 21  1  0  0  0  0
  7 22  1  0  0  0  0
  7 23  1  0  0  0  0
  8 24  1  0  0  0  0
  9 25  1  0  0  0  0
 10 26  1  0  0  0  0
 10 27  1  0  0  0  0
 13 28  1  0  0  0  0
 14 29  1  0  0  0  0
M  END
> <pdb_id>
4AFG

> <uniprot_id>
nan

> <usmiles>
n1c2c(ncc1)cc3c(c2)[C@@H]4CNC[C@H]3C4

$$$$
QMS_A_305
          07192422123D 1   1.00000     0.00000     0
            
 25 26  0  0  0  0            999 V2000
   11.1059   -0.9597   -1.3012 S   0  0  0  0  0  0  0  0  0  0  0  0
   11.4101   -1.3734    0.0718 O   0  0  0  0  0  0  0  0  0  0  0  0
   12.3492   -0.4547   -1.8718 O   0  0  0  0  0  0  0  0  0  0  0  0
    9.9795    0.1649   -1.1793 N   0  0  0  0  0  0  0  0  0  0  0  0
    8.0086    2.0613   -0.6163 N   0  0  0  0  0  0  0  0  0  0  0  0
   10.6581   -2.2196   -2.2111 C   0  0  0  0  0  0  0  0  0  0  0  0
    7.0541    2.9689   -0.3589 C   0  0  0  0  0  0  0  0  0  0  0  0
    6.2649    3.5044   -1.3855 C   0  0  0  0  0  0  0  0  0  0  0  0
    8.6974    0.7804   -4.5472 C   0  0  0  0  0  0  0  0  0  0  0  0
    9.4560    0.2428   -3.5121 C   0  0  0  0  0  0  0  0  0  0  0  0
    6.4827    3.0807   -2.6900 C   0  0  0  0  0  0  0  0  0  0  0  0
    7.7100    1.7099   -4.2618 C   0  0  0  0  0  0  0  0  0  0  0  0
    9.2314    0.6652   -2.1920 C   0  0  0  0  0  0  0  0  0  0  0  0
    8.2525    1.6235   -1.8963 C   0  0  0  0  0  0  0  0  0  0  0  0
    7.4801    2.1399   -2.9537 C   0  0  0  0  0  0  0  0  0  0  0  0
    9.8096    0.5363   -0.2666 H   0  0  0  0  0  0  0  0  0  0  0  0
   10.4579   -1.9060   -3.1393 H   0  0  0  0  0  0  0  0  0  0  0  0
   11.3988   -2.8909   -2.2385 H   0  0  0  0  0  0  0  0  0  0  0  0
    9.8408   -2.6409   -1.8180 H   0  0  0  0  0  0  0  0  0  0  0  0
    6.9033    3.2686    0.5831 H   0  0  0  0  0  0  0  0  0  0  0  0
    5.5566    4.1805   -1.1823 H   0  0  0  0  0  0  0  0  0  0  0  0
    8.8638    0.4975   -5.4918 H   0  0  0  0  0  0  0  0  0  0  0  0
   10.1584   -0.4416   -3.7075 H   0  0  0  0  0  0  0  0  0  0  0  0
    5.9280    3.4476   -3.4367 H   0  0  0  0  0  0  0  0  0  0  0  0
    7.1527    2.0790   -5.0056 H   0  0  0  0  0  0  0  0  0  0  0  0
  1  2  2  0  0  0  0
  1  3  2  0  0  0  0
  1  4  1  0  0  0  0
  1  6  1  0  0  0  0
  4 13  1  0  0  0  0
  5  7  1  0  0  0  0
  5 14  2  0  0  0  0
  7  8  2  0  0  0  0
  8 11  1  0  0  0  0
  9 10  1  0  0  0  0
  9 12  2  0  0  0  0
 10 13  2  0  0  0  0
 11 15  2  0  0  0  0
 12 15  1  0  0  0  0
 13 14  1  0  0  0  0
 14 15  1  0  0  0  0
  4 16  1  0  0  0  0
  6 17  1  0  0  0  0
  6 18  1  0  0  0  0
  6 19  1  0  0  0  0
  7 20  1  0  0  0  0
  8 21  1  0  0  0  0
  9 22  1  0  0  0  0
 10 23  1  0  0  0  0
 11 24  1  0  0  0  0
 12 25  1  0  0  0  0
M  END
> <pdb_id>
2BB7

> <uniprot_id>
P07906

> <usmiles>
S(=O)(=O)(Nc1c2ncccc2ccc1)C

$$$$
QMS_C_202
          07202403293D 1   1.00000     0.00000     0
            
 25 26  0  0  0  0            999 V2000
   32.1010  -37.3210    0.6560 S   0  0  0  0  0  0  0  0  0  0  0  0
   32.2080  -37.3610    2.0820 O   0  0  0  0  0  0  0  0  0  0  0  0
   33.1550  -37.8970   -0.1200 O   0  0  0  0  0  0  0  0  0  0  0  0
   30.7290  -38.0750    0.2210 N   0  0  0  0  0  0  0  0  0  0  0  0
   28.5420  -38.9770   -1.0100 N   0  0  0  0  0  0  0  0  0  0  0  0
   31.9250  -35.6480    0.1690 C   0  0  0  0  0  0  0  0  0  0  0  0
   27.4820  -39.4900   -1.6140 C   0  0  0  0  0  0  0  0  0  0  0  0
   26.2010  -39.5060   -1.0690 C   0  0  0  0  0  0  0  0  0  0  0  0
   28.0820  -37.1720    2.7020 C   0  0  0  0  0  0  0  0  0  0  0  0
   29.3330  -37.2520    2.1090 C   0  0  0  0  0  0  0  0  0  0  0  0
   26.0030  -38.9490    0.1570 C   0  0  0  0  0  0  0  0  0  0  0  0
   26.9820  -37.7280    2.1120 C   0  0  0  0  0  0  0  0  0  0  0  0
   29.4920  -37.8820    0.8910 C   0  0  0  0  0  0  0  0  0  0  0  0
   28.3520  -38.4330    0.2300 C   0  0  0  0  0  0  0  0  0  0  0  0
   27.0870  -38.3760    0.8560 C   0  0  0  0  0  0  0  0  0  0  0  0
   30.7571  -38.7048   -0.5553 H   0  0  0  0  0  0  0  0  0  0  0  0
   31.8483  -35.5970   -0.8268 H   0  0  0  0  0  0  0  0  0  0  0  0
   31.1016  -35.2641    0.5868 H   0  0  0  0  0  0  0  0  0  0  0  0
   32.7246  -35.1277    0.4689 H   0  0  0  0  0  0  0  0  0  0  0  0
   27.6095  -39.8922   -2.5206 H   0  0  0  0  0  0  0  0  0  0  0  0
   25.4401  -39.9193   -1.5693 H   0  0  0  0  0  0  0  0  0  0  0  0
   27.9831  -36.6988    3.5774 H   0  0  0  0  0  0  0  0  0  0  0  0
   30.1259  -36.8503    2.5671 H   0  0  0  0  0  0  0  0  0  0  0  0
   25.0890  -38.9457    0.5627 H   0  0  0  0  0  0  0  0  0  0  0  0
   26.0948  -37.6772    2.5707 H   0  0  0  0  0  0  0  0  0  0  0  0
  1  2  2  0  0  0  0
  1  3  2  0  0  0  0
  1  4  1  0  0  0  0
  1  6  1  0  0  0  0
  4 13  1  0  0  0  0
  5  7  1  0  0  0  0
  5 14  2  0  0  0  0
  7  8  2  0  0  0  0
  8 11  1  0  0  0  0
  9 10  1  0  0  0  0
  9 12  2  0  0  0  0
 10 13  2  0  0  0  0
 11 15  2  0  0  0  0
 12 15  1  0  0  0  0
 13 14  1  0  0  0  0
 14 15  1  0  0  0  0
  4 16  1  0  0  0  0
  6 17  1  0  0  0  0
  6 18  1  0  0  0  0
  6 19  1  0  0  0  0
  7 20  1  0  0  0  0
  8 21  1  0  0  0  0
  9 22  1  0  0  0  0
 10 23  1  0  0  0  0
 11 24  1  0  0  0  0
 12 25  1  0  0  0  0
M  END
> <pdb_id>
6NMO

> <uniprot_id>
Q3JRA0

> <usmiles>
S(=O)(=O)(Nc1c2ncccc2ccc1)C

$$$$
QMT_A_301
          07202416123D 1   1.00000     0.00000     0
            
 49 52  0  0  0  0            999 V2000
   17.2860    5.9090   34.2420 O   0  0  0  0  0  0  0  0  0  0  0  0
   20.6680   10.0490   40.7850 O   0  0  0  0  0  0  0  0  0  0  0  0
   18.6680    9.3060   38.9870 N   0  0  0  0  0  0  0  0  0  0  0  0
   18.0100    8.1480   37.1300 N   0  0  0  0  0  0  0  0  0  0  0  0
   18.2550    7.3270   36.0810 N   0  0  0  0  0  0  0  0  0  0  0  0
   21.1660    7.9230   39.0360 N   0  0  0  0  0  0  0  0  0  0  0  0
   22.5920    8.0670   38.7380 C   0  0  0  0  0  0  0  0  0  0  0  0
   20.2390   13.4080   43.1650 C   0  0  0  0  0  0  0  0  0  0  0  0
   23.2030    9.2000   39.5430 C   0  0  0  0  0  0  0  0  0  0  0  0
   20.0400   13.4740   41.8010 C   0  0  0  0  0  0  0  0  0  0  0  0
   20.5880   12.2090   43.7540 C   0  0  0  0  0  0  0  0  0  0  0  0
   20.0270    4.3970   32.3910 C   0  0  0  0  0  0  0  0  0  0  0  0
   21.1060    4.7640   33.1690 C   0  0  0  0  0  0  0  0  0  0  0  0
   20.8700    7.7100   40.4540 C   0  0  0  0  0  0  0  0  0  0  0  0
   18.7480    4.7800   32.7560 C   0  0  0  0  0  0  0  0  0  0  0  0
   22.8850    9.0560   41.0330 C   0  0  0  0  0  0  0  0  0  0  0  0
   20.1880   12.3430   41.0170 C   0  0  0  0  0  0  0  0  0  0  0  0
   20.7410   11.0680   42.9840 C   0  0  0  0  0  0  0  0  0  0  0  0
   20.9140    5.5130   34.3230 C   0  0  0  0  0  0  0  0  0  0  0  0
   20.4790    6.9420   36.8670 C   0  0  0  0  0  0  0  0  0  0  0  0
   18.5480    5.5400   33.9100 C   0  0  0  0  0  0  0  0  0  0  0  0
   21.4000    8.8720   41.2630 C   0  0  1  0  0  0  0  0  0  0  0  0
   20.5360   11.1420   41.6160 C   0  0  0  0  0  0  0  0  0  0  0  0
   18.9660    8.3940   38.0500 C   0  0  0  0  0  0  0  0  0  0  0  0
   19.4540    6.7500   35.9360 C   0  0  0  0  0  0  0  0  0  0  0  0
   20.2370    7.7660   37.9640 C   0  0  0  0  0  0  0  0  0  0  0  0
   19.6360    5.9190   34.7130 C   0  0  0  0  0  0  0  0  0  0  0  0
   17.1244    6.4534   35.0651 H   0  0  0  0  0  0  0  0  0  0  0  0
   19.3363    9.5312   39.6960 H   0  0  0  0  0  0  0  0  0  0  0  0
   17.7775    9.7609   38.9767 H   0  0  0  0  0  0  0  0  0  0  0  0
   22.7047    8.2602   37.7633 H   0  0  0  0  0  0  0  0  0  0  0  0
   23.0616    7.2138   38.9652 H   0  0  0  0  0  0  0  0  0  0  0  0
   20.1305   14.2283   43.7266 H   0  0  0  0  0  0  0  0  0  0  0  0
   22.8348   10.0694   39.2136 H   0  0  0  0  0  0  0  0  0  0  0  0
   24.1952    9.1899   39.4190 H   0  0  0  0  0  0  0  0  0  0  0  0
   19.7875   14.3436   41.3768 H   0  0  0  0  0  0  0  0  0  0  0  0
   20.7312   12.1642   44.7427 H   0  0  0  0  0  0  0  0  0  0  0  0
   20.1692    3.8542   31.5633 H   0  0  0  0  0  0  0  0  0  0  0  0
   22.0296    4.4897   32.9010 H   0  0  0  0  0  0  0  0  0  0  0  0
   21.3058    6.8641   40.7615 H   0  0  0  0  0  0  0  0  0  0  0  0
   19.8805    7.6402   40.5806 H   0  0  0  0  0  0  0  0  0  0  0  0
   17.9664    4.5121   32.1926 H   0  0  0  0  0  0  0  0  0  0  0  0
   23.1893    9.8793   41.5121 H   0  0  0  0  0  0  0  0  0  0  0  0
   23.3717    8.2608   41.3946 H   0  0  0  0  0  0  0  0  0  0  0  0
   20.0454   12.3916   40.0284 H   0  0  0  0  0  0  0  0  0  0  0  0
   20.9966   10.2005   43.4108 H   0  0  0  0  0  0  0  0  0  0  0  0
   21.7031    5.7654   34.8831 H   0  0  0  0  0  0  0  0  0  0  0  0
   21.3668    6.4975   36.7481 H   0  0  0  0  0  0  0  0  0  0  0  0
   21.2182    8.7254   42.2353 H   0  0  0  0  0  0  0  0  0  0  0  0
  1 21  1  0  0  0  0
  2 22  1  0  0  0  0
  2 23  1  0  0  0  0
  3 24  1  0  0  0  0
  4  5  1  0  0  0  0
  4 24  2  0  0  0  0
  5 25  2  0  0  0  0
  6  7  1  0  0  0  0
  6 14  1  0  0  0  0
  6 26  1  0  0  0  0
  7  9  1  0  0  0  0
  8 10  2  0  0  0  0
  8 11  1  0  0  0  0
  9 16  1  0  0  0  0
 10 17  1  0  0  0  0
 11 18  2  0  0  0  0
 12 13  2  0  0  0  0
 12 15  1  0  0  0  0
 13 19  1  0  0  0  0
 14 22  1  0  0  0  0
 15 21  2  0  0  0  0
 16 22  1  0  0  0  0
 17 23  2  0  0  0  0
 18 23  1  0  0  0  0
 19 27  2  0  0  0  0
 20 25  1  0  0  0  0
 20 26  2  0  0  0  0
 21 27  1  0  0  0  0
 24 26  1  0  0  0  0
 25 27  1  0  0  0  0
  1 28  1  0  0  0  0
  3 29  1  0  0  0  0
  3 30  1  0  0  0  0
  7 31  1  0  0  0  0
  7 32  1  0  0  0  0
  8 33  1  0  0  0  0
  9 34  1  0  0  0  0
  9 35  1  0  0  0  0
 10 36  1  0  0  0  0
 11 37  1  0  0  0  0
 12 38  1  0  0  0  0
 13 39  1  0  0  0  0
 14 40  1  0  0  0  0
 14 41  1  0  0  0  0
 15 42  1  0  0  0  0
 16 43  1  0  0  0  0
 16 44  1  0  0  0  0
 17 45  1  0  0  0  0
 18 46  1  0  0  0  0
 19 47  1  0  0  0  0
 20 48  1  0  0  0  0
 22 49  1  0  0  0  0
M  END
> <pdb_id>
6ZN6

> <uniprot_id>
Q86U86

> <usmiles>
O(c1ccccc1)[C@H]2CN(c3c(nnc(c4c(O)cccc4)c3)N)CCC2

$$$$
QMW_A_301
          07202416123D 1   1.00000     0.00000     0
            
 39 41  0  0  0  0            999 V2000
   23.6047    9.1956   42.0915 O   0  0  0  0  0  0  0  0  0  0  0  0
   17.2180    5.8861   34.2783 O   0  0  0  0  0  0  0  0  0  0  0  0
   18.3847    9.3079   38.9873 N   0  0  0  0  0  0  0  0  0  0  0  0
   17.8320    8.1287   37.1322 N   0  0  0  0  0  0  0  0  0  0  0  0
   18.1182    7.3054   36.1113 N   0  0  0  0  0  0  0  0  0  0  0  0
   20.9609    8.1698   39.0212 N   0  0  0  0  0  0  0  0  0  0  0  0
   22.3806    7.9224   38.7659 C   0  0  0  0  0  0  0  0  0  0  0  0
   20.5867    7.7624   40.3769 C   0  0  0  0  0  0  0  0  0  0  0  0
   20.0157    4.4480   32.4605 C   0  0  0  0  0  0  0  0  0  0  0  0
   21.0659    4.7916   33.2771 C   0  0  0  0  0  0  0  0  0  0  0  0
   23.2389    8.7133   39.7448 C   0  0  0  0  0  0  0  0  0  0  0  0
   21.3877    8.5539   41.3997 C   0  0  0  0  0  0  0  0  0  0  0  0
   18.7292    4.8221   32.7928 C   0  0  0  0  0  0  0  0  0  0  0  0
   20.8446    5.5253   34.4316 C   0  0  0  0  0  0  0  0  0  0  0  0
   20.3422    7.0071   36.9313 C   0  0  0  0  0  0  0  0  0  0  0  0
   18.7518    8.4269   38.0489 C   0  0  0  0  0  0  0  0  0  0  0  0
   22.8734    8.3749   41.1754 C   0  0  0  0  0  0  0  0  0  0  0  0
   18.4943    5.5504   33.9512 C   0  0  0  0  0  0  0  0  0  0  0  0
   19.3364    6.7642   35.9940 C   0  0  0  0  0  0  0  0  0  0  0  0
   20.0445    7.8574   37.9907 C   0  0  0  0  0  0  0  0  0  0  0  0
   19.5551    5.9252   34.7887 C   0  0  0  0  0  0  0  0  0  0  0  0
   23.3500    8.9575   43.0288 H   0  0  0  0  0  0  0  0  0  0  0  0
   17.0365    6.4105   35.1102 H   0  0  0  0  0  0  0  0  0  0  0  0
   19.0300    9.5733   39.7037 H   0  0  0  0  0  0  0  0  0  0  0  0
   17.4652    9.7008   38.9719 H   0  0  0  0  0  0  0  0  0  0  0  0
   22.6017    8.2029   37.8319 H   0  0  0  0  0  0  0  0  0  0  0  0
   22.5703    6.9466   38.8745 H   0  0  0  0  0  0  0  0  0  0  0  0
   20.7740    6.7870   40.4928 H   0  0  0  0  0  0  0  0  0  0  0  0
   19.6113    7.9334   40.5164 H   0  0  0  0  0  0  0  0  0  0  0  0
   20.1837    3.9260   31.6243 H   0  0  0  0  0  0  0  0  0  0  0  0
   21.9951    4.5107   33.0369 H   0  0  0  0  0  0  0  0  0  0  0  0
   23.0943    9.6909   39.5920 H   0  0  0  0  0  0  0  0  0  0  0  0
   24.2016    8.4907   39.5909 H   0  0  0  0  0  0  0  0  0  0  0  0
   21.1540    8.2337   42.3178 H   0  0  0  0  0  0  0  0  0  0  0  0
   21.1582    9.5236   41.3164 H   0  0  0  0  0  0  0  0  0  0  0  0
   17.9659    4.5683   32.1987 H   0  0  0  0  0  0  0  0  0  0  0  0
   21.6177    5.7715   35.0161 H   0  0  0  0  0  0  0  0  0  0  0  0
   21.2445    6.5849   36.8440 H   0  0  0  0  0  0  0  0  0  0  0  0
   23.1087    7.4182   41.3468 H   0  0  0  0  0  0  0  0  0  0  0  0
  1 17  1  0  0  0  0
  2 18  1  0  0  0  0
  3 16  1  0  0  0  0
  4  5  1  0  0  0  0
  4 16  2  0  0  0  0
  5 19  2  0  0  0  0
  6  7  1  0  0  0  0
  6  8  1  0  0  0  0
  6 20  1  0  0  0  0
  7 11  1  0  0  0  0
  8 12  1  0  0  0  0
  9 10  2  0  0  0  0
  9 13  1  0  0  0  0
 10 14  1  0  0  0  0
 11 17  1  0  0  0  0
 12 17  1  0  0  0  0
 13 18  2  0  0  0  0
 14 21  2  0  0  0  0
 15 19  1  0  0  0  0
 15 20  2  0  0  0  0
 16 20  1  0  0  0  0
 18 21  1  0  0  0  0
 19 21  1  0  0  0  0
  1 22  1  0  0  0  0
  2 23  1  0  0  0  0
  3 24  1  0  0  0  0
  3 25  1  0  0  0  0
  7 26  1  0  0  0  0
  7 27  1  0  0  0  0
  8 28  1  0  0  0  0
  8 29  1  0  0  0  0
  9 30  1  0  0  0  0
 10 31  1  0  0  0  0
 11 32  1  0  0  0  0
 11 33  1  0  0  0  0
 12 34  1  0  0  0  0
 12 35  1  0  0  0  0
 13 36  1  0  0  0  0
 14 37  1  0  0  0  0
 15 38  1  0  0  0  0
 17 39  1  0  0  0  0
M  END
> <pdb_id>
6ZNV

> <uniprot_id>
Q86U86

> <usmiles>
Oc1c(c2nnc(N)c(N3CCC(O)CC3)c2)cccc1

$$$$
QNM_A_901
          07212403323D 1   1.00000     0.00000     0
            
 32 33  0  0  0  0            999 V2000
   16.5383    1.8866   25.7512 O   0  0  0  0  0  0  0  0  0  0  0  0
   15.0379    3.5341   25.8174 O   0  0  0  0  0  0  0  0  0  0  0  0
   16.0692    1.7560   30.4984 O   0  0  0  0  0  0  0  0  0  0  0  0
   17.5311   -0.8446   27.8601 O   0  0  0  0  0  0  0  0  0  0  0  0
   17.9180    0.8787   32.1775 O   0  0  0  0  0  0  0  0  0  0  0  0
   16.5769    1.4604   28.3268 N   0  0  0  0  0  0  0  0  0  0  0  0
   18.7535   -2.0381   29.3654 N   0  0  0  0  0  0  0  0  0  0  0  0
   19.0704   -3.0730   28.3559 C   0  0  0  0  0  0  0  0  0  0  0  0
   15.7085    2.5583   27.8732 C   0  0  0  0  0  0  0  0  0  0  0  0
   20.5199   -3.3616   32.3353 C   0  0  0  0  0  0  0  0  0  0  0  0
   20.2218   -2.3818   33.2716 C   0  0  0  0  0  0  0  0  0  0  0  0
   20.0313   -3.2536   31.0344 C   0  0  0  0  0  0  0  0  0  0  0  0
   19.4362   -1.2872   32.9133 C   0  0  0  0  0  0  0  0  0  0  0  0
   15.7694    2.6716   26.3482 C   0  0  0  0  0  0  0  0  0  0  0  0
   16.7160    1.1866   29.6222 C   0  0  0  0  0  0  0  0  0  0  0  0
   17.9535   -0.9465   29.0110 C   0  0  0  0  0  0  0  0  0  0  0  0
   18.1622   -0.0925   31.2561 C   0  0  0  0  0  0  0  0  0  0  0  0
   19.2464   -2.1624   30.6720 C   0  0  0  0  0  0  0  0  0  0  0  0
   18.9498   -1.1839   31.6143 C   0  0  0  0  0  0  0  0  0  0  0  0
   17.6562    0.0258   29.9642 C   0  0  0  0  0  0  0  0  0  0  0  0
   17.0844    1.2297   26.2710 H   0  0  0  0  0  0  0  0  0  0  0  0
   17.3543    1.6681   31.9344 H   0  0  0  0  0  0  0  0  0  0  0  0
   17.0702    0.9116   27.6518 H   0  0  0  0  0  0  0  0  0  0  0  0
   19.6473   -3.7771   28.7701 H   0  0  0  0  0  0  0  0  0  0  0  0
   18.2224   -3.4882   28.0266 H   0  0  0  0  0  0  0  0  0  0  0  0
   19.5557   -2.6531   27.5890 H   0  0  0  0  0  0  0  0  0  0  0  0
   16.0176    3.4168   28.2825 H   0  0  0  0  0  0  0  0  0  0  0  0
   14.7667    2.3747   28.1551 H   0  0  0  0  0  0  0  0  0  0  0  0
   21.0851   -4.1450   32.5938 H   0  0  0  0  0  0  0  0  0  0  0  0
   20.5712   -2.4610   34.2052 H   0  0  0  0  0  0  0  0  0  0  0  0
   20.2449   -3.9608   30.3605 H   0  0  0  0  0  0  0  0  0  0  0  0
   19.2235   -0.5796   33.5871 H   0  0  0  0  0  0  0  0  0  0  0  0
  1 14  1  0  0  0  0
  2 14  2  0  0  0  0
  3 15  2  0  0  0  0
  4 16  2  0  0  0  0
  5 17  1  0  0  0  0
  6  9  1  0  0  0  0
  6 15  1  0  0  0  0
  7  8  1  0  0  0  0
  7 16  1  0  0  0  0
  7 18  1  0  0  0  0
  9 14  1  0  0  0  0
 10 11  2  0  0  0  0
 10 12  1  0  0  0  0
 11 13  1  0  0  0  0
 12 18  2  0  0  0  0
 13 19  2  0  0  0  0
 15 20  1  0  0  0  0
 16 20  1  0  0  0  0
 17 19  1  0  0  0  0
 17 20  2  0  0  0  0
 18 19  1  0  0  0  0
  1 21  1  0  0  0  0
  5 22  1  0  0  0  0
  6 23  1  0  0  0  0
  8 24  1  0  0  0  0
  8 25  1  0  0  0  0
  8 26  1  0  0  0  0
  9 27  1  0  0  0  0
  9 28  1  0  0  0  0
 10 29  1  0  0  0  0
 11 30  1  0  0  0  0
 12 31  1  0  0  0  0
 13 32  1  0  0  0  0
M  END
> <pdb_id>
4BQW

> <uniprot_id>
Q9GZT9

> <usmiles>
O=C(O)CNC(=O)C=1C(=O)N(c2c(cccc2)C1O)C

$$$$
QPN_B_202
          07202414463D 1   1.00000     0.00000     0
            
 36 38  0  0  0  0            999 V2000
   -1.7358  -10.3737   63.0613 F   0  0  0  0  0  0  0  0  0  0  0  0
   -3.9179   -5.6067   70.7281 O   0  0  0  0  0  0  0  0  0  0  0  0
   -3.5314   -4.9992   64.3991 N   0  0  0  0  0  0  0  0  0  0  0  0
   -3.6156   -6.3408   64.6874 N   0  0  0  0  0  0  0  0  0  0  0  0
   -4.5571   -6.4365   68.6833 N   0  0  0  0  0  0  0  0  0  0  0  0
   -5.8586   -8.0379   71.2508 C   0  0  0  0  0  0  0  0  0  0  0  0
   -3.7911   -4.3906   65.5640 C   0  0  0  0  0  0  0  0  0  0  0  0
   -5.0274   -7.5443   67.8583 C   0  0  0  0  0  0  0  0  0  0  0  0
   -4.4010   -5.1313   68.0330 C   0  0  0  0  0  0  0  0  0  0  0  0
   -3.6612   -7.8363   61.3751 C   0  0  0  0  0  0  0  0  0  0  0  0
   -4.4827   -7.9025   70.6291 C   0  0  0  0  0  0  0  0  0  0  0  0
   -4.0906   -7.8459   66.6956 C   0  0  0  0  0  0  0  0  0  0  0  0
   -2.9403   -8.9922   61.5815 C   0  0  0  0  0  0  0  0  0  0  0  0
   -3.9129   -6.9607   62.4111 C   0  0  0  0  0  0  0  0  0  0  0  0
   -2.6871   -8.3971   63.9212 C   0  0  0  0  0  0  0  0  0  0  0  0
   -4.3038   -6.5416   70.0347 C   0  0  0  0  0  0  0  0  0  0  0  0
   -2.4666   -9.2525   62.8529 C   0  0  0  0  0  0  0  0  0  0  0  0
   -3.4186   -7.2635   63.6722 C   0  0  0  0  0  0  0  0  0  0  0  0
   -3.9046   -6.5509   66.0119 C   0  0  0  0  0  0  0  0  0  0  0  0
   -4.0361   -5.3175   66.6087 C   0  0  0  0  0  0  0  0  0  0  0  0
   -5.9590   -8.9526   71.6421 H   0  0  0  0  0  0  0  0  0  0  0  0
   -5.9676   -7.3532   71.9715 H   0  0  0  0  0  0  0  0  0  0  0  0
   -6.5568   -7.8971   70.5489 H   0  0  0  0  0  0  0  0  0  0  0  0
   -3.8099   -3.3979   65.6830 H   0  0  0  0  0  0  0  0  0  0  0  0
   -5.9282   -7.3113   67.4920 H   0  0  0  0  0  0  0  0  0  0  0  0
   -5.1013   -8.3611   68.4305 H   0  0  0  0  0  0  0  0  0  0  0  0
   -3.6801   -4.6148   68.4951 H   0  0  0  0  0  0  0  0  0  0  0  0
   -5.2624   -4.6267   68.0913 H   0  0  0  0  0  0  0  0  0  0  0  0
   -4.0075   -7.6289   60.4602 H   0  0  0  0  0  0  0  0  0  0  0  0
   -4.3775   -8.5908   69.9114 H   0  0  0  0  0  0  0  0  0  0  0  0
   -3.7882   -8.0470   71.3340 H   0  0  0  0  0  0  0  0  0  0  0  0
   -4.5023   -8.5147   66.0765 H   0  0  0  0  0  0  0  0  0  0  0  0
   -3.2157   -8.1959   67.0303 H   0  0  0  0  0  0  0  0  0  0  0  0
   -2.7642   -9.6272   60.8293 H   0  0  0  0  0  0  0  0  0  0  0  0
   -4.4403   -6.1252   62.2566 H   0  0  0  0  0  0  0  0  0  0  0  0
   -2.3288   -8.5974   64.8331 H   0  0  0  0  0  0  0  0  0  0  0  0
  1 17  1  0  0  0  0
  2 16  2  0  0  0  0
  3  4  1  0  0  0  0
  3  7  2  0  0  0  0
  4 18  1  0  0  0  0
  4 19  1  0  0  0  0
  5  8  1  0  0  0  0
  5  9  1  0  0  0  0
  5 16  1  0  0  0  0
  6 11  1  0  0  0  0
  7 20  1  0  0  0  0
  8 12  1  0  0  0  0
  9 20  1  0  0  0  0
 10 13  2  0  0  0  0
 10 14  1  0  0  0  0
 11 16  1  0  0  0  0
 12 19  1  0  0  0  0
 13 17  1  0  0  0  0
 14 18  2  0  0  0  0
 15 17  2  0  0  0  0
 15 18  1  0  0  0  0
 19 20  2  0  0  0  0
  6 21  1  0  0  0  0
  6 22  1  0  0  0  0
  6 23  1  0  0  0  0
  7 24  1  0  0  0  0
  8 25  1  0  0  0  0
  8 26  1  0  0  0  0
  9 27  1  0  0  0  0
  9 28  1  0  0  0  0
 10 29  1  0  0  0  0
 11 30  1  0  0  0  0
 11 31  1  0  0  0  0
 12 32  1  0  0  0  0
 12 33  1  0  0  0  0
 13 34  1  0  0  0  0
 14 35  1  0  0  0  0
 15 36  1  0  0  0  0
M  END
> <pdb_id>
6ZTC

> <uniprot_id>
O60760

> <usmiles>
Fc1cc(N2N=CC3=C2CCN(C(=O)CC)C3)ccc1

$$$$
QPW_H_1001
          07202416143D 1   1.00000     0.00000     0
            
 60 63  0  0  0  0            999 V2000
   16.0664   -8.0324   10.8282 Cl  0  0  0  0  0  0  0  0  0  0  0  0
   10.5917  -17.2794   12.4024 O   0  0  0  0  0  0  0  0  0  0  0  0
    9.2624  -12.3488   15.1126 O   0  0  0  0  0  0  0  0  0  0  0  0
   11.5137  -18.5392    9.1012 O   0  0  0  0  0  0  0  0  0  0  0  0
   12.1094  -11.8211   14.9676 O   0  0  0  0  0  0  0  0  0  0  0  0
   14.2870  -11.0415   15.1474 N   0  0  0  0  0  0  0  0  0  0  0  0
   13.5941  -12.9213   13.8135 N   0  0  0  0  0  0  0  0  0  0  0  0
    9.4554  -15.9727   10.8875 N   0  0  0  0  0  0  0  0  0  0  0  0
    7.9094  -12.8585   15.2692 C   0  0  0  0  0  0  0  0  0  0  0  0
    7.2968  -13.0726    9.6753 C   0  0  0  0  0  0  0  0  0  0  0  0
   10.7748  -19.2848    8.0593 C   0  0  0  0  0  0  0  0  0  0  0  0
   11.2557  -17.1747    8.7839 C   0  0  0  0  0  0  0  0  0  0  0  0
   15.7054  -11.3809   15.0095 C   0  0  0  0  0  0  0  0  0  0  0  0
    9.0637  -14.6467   10.3512 C   0  0  0  0  0  0  0  0  0  0  0  0
    9.0376  -17.1646   10.0846 C   0  0  0  0  0  0  0  0  0  0  0  0
    7.5453  -14.3910   10.4403 C   0  0  0  0  0  0  0  0  0  0  0  0
   17.7766  -11.4847   11.7960 C   0  0  0  0  0  0  0  0  0  0  0  0
    9.4214  -18.5514    7.9820 C   0  0  0  0  0  0  0  0  0  0  0  0
   17.4108  -10.3160   11.1385 C   0  0  0  0  0  0  0  0  0  0  0  0
   17.2082  -11.8135   13.0470 C   0  0  0  0  0  0  0  0  0  0  0  0
   15.8593   -9.7621   12.9857 C   0  0  0  0  0  0  0  0  0  0  0  0
    9.7018  -14.2647   13.5680 C   0  0  0  0  0  0  0  0  0  0  0  0
   12.0041  -14.6290   12.8304 C   0  0  0  0  0  0  0  0  0  0  0  0
   13.3914  -11.8995   14.6416 C   0  0  0  0  0  0  0  0  0  0  0  0
   16.4708   -9.4535   11.7563 C   0  0  0  0  0  0  0  0  0  0  0  0
   10.2131  -16.1760   11.9901 C   0  0  0  0  0  0  0  0  0  0  0  0
   10.0947  -13.1545   14.3359 C   0  0  0  0  0  0  0  0  0  0  0  0
   11.4467  -12.8116   14.3212 C   0  0  0  0  0  0  0  0  0  0  0  0
   12.4039  -13.5188   13.6043 C   0  0  0  0  0  0  0  0  0  0  0  0
    9.7284  -17.1847    8.6936 C   0  0  2  0  0  0  0  0  0  0  0  0
   16.2761  -10.9487   13.6518 C   0  0  0  0  0  0  0  0  0  0  0  0
   10.6529  -14.9634   12.8112 C   0  0  0  0  0  0  0  0  0  0  0  0
   13.9978  -10.1995   15.6027 H   0  0  0  0  0  0  0  0  0  0  0  0
    7.3790  -12.2277   15.8355 H   0  0  0  0  0  0  0  0  0  0  0  0
    7.4787  -12.9423   14.3706 H   0  0  0  0  0  0  0  0  0  0  0  0
    7.9401  -13.7560   15.7092 H   0  0  0  0  0  0  0  0  0  0  0  0
    6.3216  -12.8525    9.6984 H   0  0  0  0  0  0  0  0  0  0  0  0
    7.8154  -12.3342   10.1063 H   0  0  0  0  0  0  0  0  0  0  0  0
    7.5924  -13.1774    8.7257 H   0  0  0  0  0  0  0  0  0  0  0  0
   10.6485  -20.2404    8.3255 H   0  0  0  0  0  0  0  0  0  0  0  0
   11.2541  -19.2435    7.1826 H   0  0  0  0  0  0  0  0  0  0  0  0
   11.6741  -16.9138    7.9138 H   0  0  0  0  0  0  0  0  0  0  0  0
   11.5777  -16.5619    9.5055 H   0  0  0  0  0  0  0  0  0  0  0  0
   15.8100  -12.3711   15.1023 H   0  0  0  0  0  0  0  0  0  0  0  0
   16.2183  -10.9221   15.7351 H   0  0  0  0  0  0  0  0  0  0  0  0
    9.3405  -14.5957    9.3916 H   0  0  0  0  0  0  0  0  0  0  0  0
    9.5383  -13.9380   10.8732 H   0  0  0  0  0  0  0  0  0  0  0  0
    8.0464  -17.1376    9.9548 H   0  0  0  0  0  0  0  0  0  0  0  0
    9.2861  -17.9953   10.5828 H   0  0  0  0  0  0  0  0  0  0  0  0
    7.0399  -15.1415   10.0146 H   0  0  0  0  0  0  0  0  0  0  0  0
    7.2630  -14.2983   11.3951 H   0  0  0  0  0  0  0  0  0  0  0  0
   18.4478  -12.0981   11.3800 H   0  0  0  0  0  0  0  0  0  0  0  0
    8.7084  -19.0581    8.4665 H   0  0  0  0  0  0  0  0  0  0  0  0
    9.1423  -18.4088    7.0324 H   0  0  0  0  0  0  0  0  0  0  0  0
   17.8031  -10.0882   10.2473 H   0  0  0  0  0  0  0  0  0  0  0  0
   17.4689  -12.6635   13.5046 H   0  0  0  0  0  0  0  0  0  0  0  0
   15.1565   -9.1684   13.3776 H   0  0  0  0  0  0  0  0  0  0  0  0
    8.7451  -14.5556   13.5616 H   0  0  0  0  0  0  0  0  0  0  0  0
   12.6726  -15.1605   12.3103 H   0  0  0  0  0  0  0  0  0  0  0  0
    9.4074  -16.4206    8.1340 H   0  0  0  0  0  0  0  0  0  0  0  0
  1 25  1  0  0  0  0
  2 26  2  0  0  0  0
  3  9  1  0  0  0  0
  3 27  1  0  0  0  0
  4 11  1  0  0  0  0
  4 12  1  0  0  0  0
  5 24  1  0  0  0  0
  5 28  1  0  0  0  0
  6 13  1  0  0  0  0
  6 24  1  0  0  0  0
  7 24  2  0  0  0  0
  7 29  1  0  0  0  0
  8 14  1  0  0  0  0
  8 15  1  0  0  0  0
  8 26  1  0  0  0  0
 10 16  1  0  0  0  0
 11 18  1  0  0  0  0
 12 30  1  0  0  0  0
 13 31  1  0  0  0  0
 14 16  1  0  0  0  0
 15 30  1  0  0  0  0
 17 19  2  0  0  0  0
 17 20  1  0  0  0  0
 18 30  1  0  0  0  0
 19 25  1  0  0  0  0
 20 31  2  0  0  0  0
 21 25  2  0  0  0  0
 21 31  1  0  0  0  0
 22 27  1  0  0  0  0
 22 32  2  0  0  0  0
 23 29  2  0  0  0  0
 23 32  1  0  0  0  0
 26 32  1  0  0  0  0
 27 28  2  0  0  0  0
 28 29  1  0  0  0  0
  6 33  1  0  0  0  0
  9 34  1  0  0  0  0
  9 35  1  0  0  0  0
  9 36  1  0  0  0  0
 10 37  1  0  0  0  0
 10 38  1  0  0  0  0
 10 39  1  0  0  0  0
 11 40  1  0  0  0  0
 11 41  1  0  0  0  0
 12 42  1  0  0  0  0
 12 43  1  0  0  0  0
 13 44  1  0  0  0  0
 13 45  1  0  0  0  0
 14 46  1  0  0  0  0
 14 47  1  0  0  0  0
 15 48  1  0  0  0  0
 15 49  1  0  0  0  0
 16 50  1  0  0  0  0
 16 51  1  0  0  0  0
 17 52  1  0  0  0  0
 18 53  1  0  0  0  0
 18 54  1  0  0  0  0
 19 55  1  0  0  0  0
 20 56  1  0  0  0  0
 21 57  1  0  0  0  0
 22 58  1  0  0  0  0
 23 59  1  0  0  0  0
 30 60  1  0  0  0  0
M  END
> <pdb_id>
6ZUG

> <uniprot_id>
P00734

> <usmiles>
Clc1cc(ccc1)CNC=2Oc3c(OC)cc(cc3N2)C(=O)N(C[C@H]4COCC4)CCC

$$$$
QQ5_H_1001
          07202416143D 1   1.00000     0.00000     0
            
 54 57  0  0  0  0            999 V2000
   16.0482   -8.0677   10.8979 Cl  0  0  0  0  0  0  0  0  0  0  0  0
   10.2460  -17.2437   12.7191 O   0  0  0  0  0  0  0  0  0  0  0  0
    5.3697  -14.9851    9.9160 O   0  0  0  0  0  0  0  0  0  0  0  0
    9.3860  -12.2543   15.2605 O   0  0  0  0  0  0  0  0  0  0  0  0
   12.1820  -11.8293   15.0038 O   0  0  0  0  0  0  0  0  0  0  0  0
   14.3906  -11.1144   15.1486 N   0  0  0  0  0  0  0  0  0  0  0  0
   13.6232  -13.0129   13.8595 N   0  0  0  0  0  0  0  0  0  0  0  0
    9.2485  -15.9788   11.1555 N   0  0  0  0  0  0  0  0  0  0  0  0
    8.0203  -12.6568   15.4114 C   0  0  0  0  0  0  0  0  0  0  0  0
    7.4616  -12.9627    9.4903 C   0  0  0  0  0  0  0  0  0  0  0  0
   15.7705  -11.4598   14.9706 C   0  0  0  0  0  0  0  0  0  0  0  0
    8.5795  -17.1201   10.5568 C   0  0  0  0  0  0  0  0  0  0  0  0
    8.9740  -14.7023   10.5036 C   0  0  0  0  0  0  0  0  0  0  0  0
   17.8354  -11.5337   11.8148 C   0  0  0  0  0  0  0  0  0  0  0  0
    7.0573  -16.6988   10.3787 C   0  0  0  0  0  0  0  0  0  0  0  0
   17.4230  -10.4046   11.2131 C   0  0  0  0  0  0  0  0  0  0  0  0
   17.2184  -11.8770   13.0055 C   0  0  0  0  0  0  0  0  0  0  0  0
   15.9112   -9.8371   13.0385 C   0  0  0  0  0  0  0  0  0  0  0  0
    9.7194  -14.2113   13.6806 C   0  0  0  0  0  0  0  0  0  0  0  0
   11.9666  -14.6078   12.9633 C   0  0  0  0  0  0  0  0  0  0  0  0
   13.4449  -11.9604   14.6551 C   0  0  0  0  0  0  0  0  0  0  0  0
   16.4635   -9.5637   11.7945 C   0  0  0  0  0  0  0  0  0  0  0  0
   10.1206  -16.1383   12.1640 C   0  0  0  0  0  0  0  0  0  0  0  0
    6.7106  -15.3656    9.7628 C   0  0  2  0  0  0  0  0  0  0  0  0
   10.1581  -13.1057   14.4277 C   0  0  0  0  0  0  0  0  0  0  0  0
   11.5128  -12.7855   14.3696 C   0  0  0  0  0  0  0  0  0  0  0  0
   12.4214  -13.5261   13.6484 C   0  0  0  0  0  0  0  0  0  0  0  0
    7.5317  -14.2529   10.3108 C   0  0  2  0  0  0  0  0  0  0  0  0
   16.3018  -11.0702   13.6318 C   0  0  0  0  0  0  0  0  0  0  0  0
   10.6291  -14.9328   12.9475 C   0  0  0  0  0  0  0  0  0  0  0  0
    5.2240  -14.0958    9.4825 H   0  0  0  0  0  0  0  0  0  0  0  0
   14.1294  -10.2737   15.6230 H   0  0  0  0  0  0  0  0  0  0  0  0
    7.5462  -12.0099   16.0087 H   0  0  0  0  0  0  0  0  0  0  0  0
    7.5760  -12.6706   14.5157 H   0  0  0  0  0  0  0  0  0  0  0  0
    7.9849  -13.5709   15.8153 H   0  0  0  0  0  0  0  0  0  0  0  0
    6.5059  -12.6902    9.3787 H   0  0  0  0  0  0  0  0  0  0  0  0
    7.9615  -12.2382    9.9649 H   0  0  0  0  0  0  0  0  0  0  0  0
    7.8715  -13.1167    8.5913 H   0  0  0  0  0  0  0  0  0  0  0  0
   15.8673  -12.4495   15.0759 H   0  0  0  0  0  0  0  0  0  0  0  0
   16.3084  -10.9955   15.6742 H   0  0  0  0  0  0  0  0  0  0  0  0
    8.6507  -17.9173   11.1563 H   0  0  0  0  0  0  0  0  0  0  0  0
    8.9863  -17.3335    9.6686 H   0  0  0  0  0  0  0  0  0  0  0  0
    9.3893  -14.7447    9.5949 H   0  0  0  0  0  0  0  0  0  0  0  0
    9.4288  -13.9954   11.0453 H   0  0  0  0  0  0  0  0  0  0  0  0
   18.5573  -12.1015   11.4191 H   0  0  0  0  0  0  0  0  0  0  0  0
    6.6457  -16.7116   11.2900 H   0  0  0  0  0  0  0  0  0  0  0  0
    6.6284  -17.4002    9.8094 H   0  0  0  0  0  0  0  0  0  0  0  0
   17.8117  -10.1573   10.3256 H   0  0  0  0  0  0  0  0  0  0  0  0
   17.4511  -12.7528   13.4284 H   0  0  0  0  0  0  0  0  0  0  0  0
   15.2788   -9.2071   13.4893 H   0  0  0  0  0  0  0  0  0  0  0  0
    8.7536  -14.4705   13.6826 H   0  0  0  0  0  0  0  0  0  0  0  0
   12.6159  -15.1788   12.4610 H   0  0  0  0  0  0  0  0  0  0  0  0
    6.8983  -15.4266    8.7825 H   0  0  0  0  0  0  0  0  0  0  0  0
    7.1683  -14.0417   11.2181 H   0  0  0  0  0  0  0  0  0  0  0  0
  1 22  1  0  0  0  0
  2 23  2  0  0  0  0
  3 24  1  0  0  0  0
  4  9  1  0  0  0  0
  4 25  1  0  0  0  0
  5 21  1  0  0  0  0
  5 26  1  0  0  0  0
  6 11  1  0  0  0  0
  6 21  1  0  0  0  0
  7 21  2  0  0  0  0
  7 27  1  0  0  0  0
  8 12  1  0  0  0  0
  8 13  1  0  0  0  0
  8 23  1  0  0  0  0
 10 28  1  0  0  0  0
 11 29  1  0  0  0  0
 12 15  1  0  0  0  0
 13 28  1  0  0  0  0
 14 16  2  0  0  0  0
 14 17  1  0  0  0  0
 15 24  1  0  0  0  0
 16 22  1  0  0  0  0
 17 29  2  0  0  0  0
 18 22  2  0  0  0  0
 18 29  1  0  0  0  0
 19 25  1  0  0  0  0
 19 30  2  0  0  0  0
 20 27  2  0  0  0  0
 20 30  1  0  0  0  0
 23 30  1  0  0  0  0
 24 28  1  0  0  0  0
 25 26  2  0  0  0  0
 26 27  1  0  0  0  0
  3 31  1  0  0  0  0
  6 32  1  0  0  0  0
  9 33  1  0  0  0  0
  9 34  1  0  0  0  0
  9 35  1  0  0  0  0
 10 36  1  0  0  0  0
 10 37  1  0  0  0  0
 10 38  1  0  0  0  0
 11 39  1  0  0  0  0
 11 40  1  0  0  0  0
 12 41  1  0  0  0  0
 12 42  1  0  0  0  0
 13 43  1  0  0  0  0
 13 44  1  0  0  0  0
 14 45  1  0  0  0  0
 15 46  1  0  0  0  0
 15 47  1  0  0  0  0
 16 48  1  0  0  0  0
 17 49  1  0  0  0  0
 18 50  1  0  0  0  0
 19 51  1  0  0  0  0
 20 52  1  0  0  0  0
 24 53  1  0  0  0  0
 28 54  1  0  0  0  0
M  END
> <pdb_id>
6ZUN

> <uniprot_id>
P00734

> <usmiles>
Clc1cc(ccc1)CNC=2Oc3c(OC)cc(cc3N2)C(=O)N4C[C@H]([C@H](O)CC4)C

$$$$
QQE_H_1001
          07202416143D 1   1.00000     0.00000     0
            
 61 64  0  0  0  0            999 V2000
   16.0059   -7.9309   10.6771 Cl  0  0  0  0  0  0  0  0  0  0  0  0
    6.5047  -17.6311   13.8741 O   0  0  0  0  0  0  0  0  0  0  0  0
   10.5949  -17.0435   12.4860 O   0  0  0  0  0  0  0  0  0  0  0  0
    9.4237  -12.1622   15.4376 O   0  0  0  0  0  0  0  0  0  0  0  0
    7.3594  -15.4558    9.2426 O   0  0  0  0  0  0  0  0  0  0  0  0
   12.2195  -11.5755   15.0955 O   0  0  0  0  0  0  0  0  0  0  0  0
   14.3598  -10.8663   15.1312 N   0  0  0  0  0  0  0  0  0  0  0  0
   13.6613  -12.6743   13.8332 N   0  0  0  0  0  0  0  0  0  0  0  0
    8.9709  -15.7783   11.4488 N   0  0  0  0  0  0  0  0  0  0  0  0
    8.0705  -12.6024   15.7274 C   0  0  0  0  0  0  0  0  0  0  0  0
    7.3525  -13.1549    9.1081 C   0  0  0  0  0  0  0  0  0  0  0  0
   16.5143  -10.0176   15.7457 C   0  0  0  0  0  0  0  0  0  0  0  0
    7.4537  -18.0718   12.8905 C   0  0  0  0  0  0  0  0  0  0  0  0
    8.0730  -16.6205    9.3777 C   0  0  0  0  0  0  0  0  0  0  0  0
    8.4239  -14.4450   11.0612 C   0  0  0  0  0  0  0  0  0  0  0  0
   17.7550  -11.3234   11.7688 C   0  0  0  0  0  0  0  0  0  0  0  0
   17.3988  -10.2097   11.0170 C   0  0  0  0  0  0  0  0  0  0  0  0
    7.0076  -17.2917   11.6005 C   0  0  0  0  0  0  0  0  0  0  0  0
   17.1953  -11.6212   12.9841 C   0  0  0  0  0  0  0  0  0  0  0  0
   15.9010   -9.6623   12.8034 C   0  0  0  0  0  0  0  0  0  0  0  0
    9.7851  -14.0269   13.7915 C   0  0  0  0  0  0  0  0  0  0  0  0
   12.0354  -14.3661   12.9415 C   0  0  0  0  0  0  0  0  0  0  0  0
   13.4841  -11.7008   14.7120 C   0  0  0  0  0  0  0  0  0  0  0  0
   16.4203   -9.3672   11.5404 C   0  0  0  0  0  0  0  0  0  0  0  0
   10.0962  -15.9360   12.2285 C   0  0  0  0  0  0  0  0  0  0  0  0
    8.1829  -14.3305    9.5411 C   0  0  1  0  0  0  0  0  0  0  0  0
   10.2219  -12.9406   14.5603 C   0  0  0  0  0  0  0  0  0  0  0  0
   15.7766  -11.0634   14.8808 C   0  0  2  0  0  0  0  0  0  0  0  0
   11.5632  -12.6078   14.4880 C   0  0  0  0  0  0  0  0  0  0  0  0
   12.4751  -13.2867   13.6923 C   0  0  0  0  0  0  0  0  0  0  0  0
    8.3025  -16.9467   10.8386 C   0  0  2  0  0  0  0  0  0  0  0  0
   10.6601  -14.7498   13.0108 C   0  0  0  0  0  0  0  0  0  0  0  0
   16.2537  -10.7845   13.4891 C   0  0  0  0  0  0  0  0  0  0  0  0
    6.7008  -18.0746   14.7487 H   0  0  0  0  0  0  0  0  0  0  0  0
   14.0614  -10.0604   15.6426 H   0  0  0  0  0  0  0  0  0  0  0  0
    7.6372  -11.9563   16.3558 H   0  0  0  0  0  0  0  0  0  0  0  0
    7.5446  -12.6447   14.8778 H   0  0  0  0  0  0  0  0  0  0  0  0
    8.0977  -13.5092   16.1480 H   0  0  0  0  0  0  0  0  0  0  0  0
    7.8565  -12.3088    9.2818 H   0  0  0  0  0  0  0  0  0  0  0  0
    7.1530  -13.2295    8.1310 H   0  0  0  0  0  0  0  0  0  0  0  0
    6.4956  -13.1443    9.6234 H   0  0  0  0  0  0  0  0  0  0  0  0
   17.5009  -10.1096   15.6106 H   0  0  0  0  0  0  0  0  0  0  0  0
   16.2252   -9.0989   15.4766 H   0  0  0  0  0  0  0  0  0  0  0  0
   16.2944  -10.1674   16.7096 H   0  0  0  0  0  0  0  0  0  0  0  0
    7.3956  -19.0604   12.7516 H   0  0  0  0  0  0  0  0  0  0  0  0
    8.3864  -17.8266   13.1550 H   0  0  0  0  0  0  0  0  0  0  0  0
    8.9572  -16.5175    8.9223 H   0  0  0  0  0  0  0  0  0  0  0  0
    7.5635  -17.3680    8.9514 H   0  0  0  0  0  0  0  0  0  0  0  0
    9.0745  -13.7377   11.3379 H   0  0  0  0  0  0  0  0  0  0  0  0
    7.5554  -14.3032   11.5362 H   0  0  0  0  0  0  0  0  0  0  0  0
   18.4547  -11.9382   11.4047 H   0  0  0  0  0  0  0  0  0  0  0  0
   17.8284  -10.0205   10.1341 H   0  0  0  0  0  0  0  0  0  0  0  0
    6.5199  -16.4557   11.8519 H   0  0  0  0  0  0  0  0  0  0  0  0
    6.4153  -17.8661   11.0354 H   0  0  0  0  0  0  0  0  0  0  0  0
   17.4751  -12.4382   13.4883 H   0  0  0  0  0  0  0  0  0  0  0  0
   15.2484   -9.0279   13.2177 H   0  0  0  0  0  0  0  0  0  0  0  0
    8.8185  -14.2828   13.8096 H   0  0  0  0  0  0  0  0  0  0  0  0
   12.6727  -14.8701   12.3586 H   0  0  0  0  0  0  0  0  0  0  0  0
    9.0445  -14.3696    9.0351 H   0  0  0  0  0  0  0  0  0  0  0  0
   16.0468  -11.9860   15.1561 H   0  0  0  0  0  0  0  0  0  0  0  0
    8.9212  -17.7303   10.8946 H   0  0  0  0  0  0  0  0  0  0  0  0
  1 24  1  0  0  0  0
  2 13  1  0  0  0  0
  3 25  2  0  0  0  0
  4 10  1  0  0  0  0
  4 27  1  0  0  0  0
  5 14  1  0  0  0  0
  5 26  1  0  0  0  0
  6 23  1  0  0  0  0
  6 29  1  0  0  0  0
  7 23  1  0  0  0  0
  7 28  1  0  0  0  0
  8 23  2  0  0  0  0
  8 30  1  0  0  0  0
  9 15  1  0  0  0  0
  9 25  1  0  0  0  0
  9 31  1  0  0  0  0
 11 26  1  0  0  0  0
 12 28  1  0  0  0  0
 13 18  1  0  0  0  0
 14 31  1  0  0  0  0
 15 26  1  0  0  0  0
 16 17  2  0  0  0  0
 16 19  1  0  0  0  0
 17 24  1  0  0  0  0
 18 31  1  0  0  0  0
 19 33  2  0  0  0  0
 20 24  2  0  0  0  0
 20 33  1  0  0  0  0
 21 27  1  0  0  0  0
 21 32  2  0  0  0  0
 22 30  2  0  0  0  0
 22 32  1  0  0  0  0
 25 32  1  0  0  0  0
 27 29  2  0  0  0  0
 28 33  1  0  0  0  0
 29 30  1  0  0  0  0
  2 34  1  0  0  0  0
  7 35  1  0  0  0  0
 10 36  1  0  0  0  0
 10 37  1  0  0  0  0
 10 38  1  0  0  0  0
 11 39  1  0  0  0  0
 11 40  1  0  0  0  0
 11 41  1  0  0  0  0
 12 42  1  0  0  0  0
 12 43  1  0  0  0  0
 12 44  1  0  0  0  0
 13 45  1  0  0  0  0
 13 46  1  0  0  0  0
 14 47  1  0  0  0  0
 14 48  1  0  0  0  0
 15 49  1  0  0  0  0
 15 50  1  0  0  0  0
 16 51  1  0  0  0  0
 17 52  1  0  0  0  0
 18 53  1  0  0  0  0
 18 54  1  0  0  0  0
 19 55  1  0  0  0  0
 20 56  1  0  0  0  0
 21 57  1  0  0  0  0
 22 58  1  0  0  0  0
 26 59  1  0  0  0  0
 28 60  1  0  0  0  0
 31 61  1  0  0  0  0
M  END
> <pdb_id>
6ZUX

> <uniprot_id>
P00734

> <usmiles>
Clc1cc(ccc1)[C@H](NC=2Oc3c(OC)cc(cc3N2)C(=O)N4[C@H](CO[C@H](C4)C)CCO)C

$$$$
QQK_H_1001
          07202416143D 1   1.00000     0.00000     0
            
 67 70  0  0  0  0            999 V2000
   16.0070   -7.9030   10.6360 Cl  0  0  0  0  0  0  0  0  0  0  0  0
    4.6650  -13.8830   12.3040 O   0  0  0  0  0  0  0  0  0  0  0  0
   10.5920  -17.2120   12.2630 O   0  0  0  0  0  0  0  0  0  0  0  0
    9.2960  -12.3460   15.1750 O   0  0  0  0  0  0  0  0  0  0  0  0
   12.1940  -11.6080   14.9810 O   0  0  0  0  0  0  0  0  0  0  0  0
    7.2200  -15.4830    9.2170 O   0  0  0  0  0  0  0  0  0  0  0  0
   14.3230  -10.9160   14.9720 N   0  0  0  0  0  0  0  0  0  0  0  0
   13.6260  -12.7940   13.7340 N   0  0  0  0  0  0  0  0  0  0  0  0
    9.4030  -15.8770   10.9480 N   0  0  0  0  0  0  0  0  0  0  0  0
    7.9500  -12.8240   15.2610 C   0  0  0  0  0  0  0  0  0  0  0  0
   11.2000  -17.1330    8.8330 C   0  0  0  0  0  0  0  0  0  0  0  0
   16.4410  -10.1480   15.6280 C   0  0  0  0  0  0  0  0  0  0  0  0
    7.3990  -13.1070    9.0100 C   0  0  0  0  0  0  0  0  0  0  0  0
    5.2450  -14.3730   11.0550 C   0  0  0  0  0  0  0  0  0  0  0  0
    7.4340  -16.7790    9.7990 C   0  0  0  0  0  0  0  0  0  0  0  0
    9.6600  -16.9880    8.7740 C   0  0  0  0  0  0  0  0  0  0  0  0
    9.0760  -14.4960   10.4100 C   0  0  0  0  0  0  0  0  0  0  0  0
   17.7830  -11.3170   11.6360 C   0  0  0  0  0  0  0  0  0  0  0  0
   17.3820  -10.1650   10.9550 C   0  0  0  0  0  0  0  0  0  0  0  0
   17.2100  -11.6800   12.8390 C   0  0  0  0  0  0  0  0  0  0  0  0
   15.8580   -9.6750   12.7240 C   0  0  0  0  0  0  0  0  0  0  0  0
    9.7700  -14.1700   13.5890 C   0  0  0  0  0  0  0  0  0  0  0  0
   12.0280  -14.4720   12.8150 C   0  0  0  0  0  0  0  0  0  0  0  0
    6.7670  -14.2220   11.2060 C   0  0  0  0  0  0  0  0  0  0  0  0
   13.4460  -11.7710   14.5860 C   0  0  0  0  0  0  0  0  0  0  0  0
   16.3950   -9.3530   11.4800 C   0  0  0  0  0  0  0  0  0  0  0  0
   10.2410  -16.0790   11.9760 C   0  0  0  0  0  0  0  0  0  0  0  0
   10.1860  -13.0480   14.3520 C   0  0  0  0  0  0  0  0  0  0  0  0
   15.7270  -11.1820   14.7590 C   0  0  2  0  0  0  0  0  0  0  0  0
   11.5290  -12.6750   14.3620 C   0  0  0  0  0  0  0  0  0  0  0  0
   12.4430  -13.3710   13.5880 C   0  0  0  0  0  0  0  0  0  0  0  0
    8.9160  -17.0130   10.1370 C   0  0  1  0  0  0  0  0  0  0  0  0
   10.7020  -14.8920   12.8370 C   0  0  0  0  0  0  0  0  0  0  0  0
   16.2550  -10.8200   13.3620 C   0  0  0  0  0  0  0  0  0  0  0  0
    7.6020  -14.3490    9.9400 C   0  0  2  0  0  0  0  0  0  0  0  0
    3.6688  -13.9584   12.2611 H   0  0  0  0  0  0  0  0  0  0  0  0
   14.0351  -10.0688   15.4186 H   0  0  0  0  0  0  0  0  0  0  0  0
    7.4261  -12.2358   15.8771 H   0  0  0  0  0  0  0  0  0  0  0  0
    7.5328  -12.8105   14.3523 H   0  0  0  0  0  0  0  0  0  0  0  0
    7.9505  -13.7597   15.6137 H   0  0  0  0  0  0  0  0  0  0  0  0
   11.5733  -17.1038    7.9058 H   0  0  0  0  0  0  0  0  0  0  0  0
   11.5850  -16.3832    9.3711 H   0  0  0  0  0  0  0  0  0  0  0  0
   11.4365  -18.0056    9.2603 H   0  0  0  0  0  0  0  0  0  0  0  0
   17.4303  -10.2632   15.5383 H   0  0  0  0  0  0  0  0  0  0  0  0
   16.1842   -9.2284   15.3308 H   0  0  0  0  0  0  0  0  0  0  0  0
   16.1759  -10.2756   16.5837 H   0  0  0  0  0  0  0  0  0  0  0  0
    7.6645  -12.2767    9.5000 H   0  0  0  0  0  0  0  0  0  0  0  0
    7.9656  -13.2069    8.1921 H   0  0  0  0  0  0  0  0  0  0  0  0
    6.4372  -13.0437    8.7436 H   0  0  0  0  0  0  0  0  0  0  0  0
    4.9169  -13.8290   10.2827 H   0  0  0  0  0  0  0  0  0  0  0  0
    5.0036  -15.3330   10.9130 H   0  0  0  0  0  0  0  0  0  0  0  0
    7.1351  -17.4789    9.1503 H   0  0  0  0  0  0  0  0  0  0  0  0
    6.8950  -16.8504   10.6383 H   0  0  0  0  0  0  0  0  0  0  0  0
    9.3039  -17.7392    8.2183 H   0  0  0  0  0  0  0  0  0  0  0  0
    9.4524  -16.1168    8.3291 H   0  0  0  0  0  0  0  0  0  0  0  0
    9.6766  -14.3083    9.6328 H   0  0  0  0  0  0  0  0  0  0  0  0
    9.2465  -13.8259   11.1325 H   0  0  0  0  0  0  0  0  0  0  0  0
   18.5011  -11.8917   11.2436 H   0  0  0  0  0  0  0  0  0  0  0  0
   17.8112   -9.9270   10.0837 H   0  0  0  0  0  0  0  0  0  0  0  0
   17.4709  -12.5223   13.3106 H   0  0  0  0  0  0  0  0  0  0  0  0
   15.1841   -9.0716   13.1504 H   0  0  0  0  0  0  0  0  0  0  0  0
    8.8085  -14.4448   13.5891 H   0  0  0  0  0  0  0  0  0  0  0  0
   12.6920  -14.9562   12.2453 H   0  0  0  0  0  0  0  0  0  0  0  0
    7.0782  -14.9257   11.8447 H   0  0  0  0  0  0  0  0  0  0  0  0
    6.9435  -13.3176   11.5945 H   0  0  0  0  0  0  0  0  0  0  0  0
   15.9713  -12.1166   15.0176 H   0  0  0  0  0  0  0  0  0  0  0  0
    9.0497  -17.8837   10.6103 H   0  0  0  0  0  0  0  0  0  0  0  0
  1 26  1  0  0  0  0
  2 14  1  0  0  0  0
  3 27  2  0  0  0  0
  4 10  1  0  0  0  0
  4 28  1  0  0  0  0
  5 25  1  0  0  0  0
  5 30  1  0  0  0  0
  6 15  1  0  0  0  0
  6 35  1  0  0  0  0
  7 25  1  0  0  0  0
  7 29  1  0  0  0  0
  8 25  2  0  0  0  0
  8 31  1  0  0  0  0
  9 17  1  0  0  0  0
  9 27  1  0  0  0  0
  9 32  1  0  0  0  0
 11 16  1  0  0  0  0
 12 29  1  0  0  0  0
 13 35  1  0  0  0  0
 14 24  1  0  0  0  0
 15 32  1  0  0  0  0
 16 32  1  0  0  0  0
 17 35  1  0  0  0  0
 18 19  2  0  0  0  0
 18 20  1  0  0  0  0
 19 26  1  0  0  0  0
 20 34  2  0  0  0  0
 21 26  2  0  0  0  0
 21 34  1  0  0  0  0
 22 28  1  0  0  0  0
 22 33  2  0  0  0  0
 23 31  2  0  0  0  0
 23 33  1  0  0  0  0
 24 35  1  0  0  0  0
 27 33  1  0  0  0  0
 28 30  2  0  0  0  0
 29 34  1  0  0  0  0
 30 31  1  0  0  0  0
  2 36  1  0  0  0  0
  7 37  1  0  0  0  0
 10 38  1  0  0  0  0
 10 39  1  0  0  0  0
 10 40  1  0  0  0  0
 11 41  1  0  0  0  0
 11 42  1  0  0  0  0
 11 43  1  0  0  0  0
 12 44  1  0  0  0  0
 12 45  1  0  0  0  0
 12 46  1  0  0  0  0
 13 47  1  0  0  0  0
 13 48  1  0  0  0  0
 13 49  1  0  0  0  0
 14 50  1  0  0  0  0
 14 51  1  0  0  0  0
 15 52  1  0  0  0  0
 15 53  1  0  0  0  0
 16 54  1  0  0  0  0
 16 55  1  0  0  0  0
 17 56  1  0  0  0  0
 17 57  1  0  0  0  0
 18 58  1  0  0  0  0
 19 59  1  0  0  0  0
 20 60  1  0  0  0  0
 21 61  1  0  0  0  0
 22 62  1  0  0  0  0
 23 63  1  0  0  0  0
 24 64  1  0  0  0  0
 24 65  1  0  0  0  0
 29 66  1  0  0  0  0
 32 67  1  0  0  0  0
M  END
> <pdb_id>
6ZUW

> <uniprot_id>
P00734

> <usmiles>
Clc1cc(ccc1)[C@H](NC=2Oc3c(OC)cc(cc3N2)C(=O)N4[C@@H](CO[C@](C4)(CCO)C)CC)C

$$$$
QQT_H_1001
          07202416143D 1   1.00000     0.00000     0
            
 61 64  0  0  0  0            999 V2000
   15.9611   -7.9069   10.6977 Cl  0  0  0  0  0  0  0  0  0  0  0  0
   16.0972  -10.2240   17.1587 F   0  0  0  0  0  0  0  0  0  0  0  0
    6.4286  -17.2484   13.9802 O   0  0  0  0  0  0  0  0  0  0  0  0
   10.6022  -16.9971   12.3943 O   0  0  0  0  0  0  0  0  0  0  0  0
    9.4094  -12.1368   15.3806 O   0  0  0  0  0  0  0  0  0  0  0  0
    7.4153  -15.4093    9.1851 O   0  0  0  0  0  0  0  0  0  0  0  0
   12.1469  -11.5719   15.0131 O   0  0  0  0  0  0  0  0  0  0  0  0
   14.3118  -10.8008   14.9901 N   0  0  0  0  0  0  0  0  0  0  0  0
   13.6085  -12.6873   13.7490 N   0  0  0  0  0  0  0  0  0  0  0  0
    9.0188  -15.7225   11.4218 N   0  0  0  0  0  0  0  0  0  0  0  0
    8.1492  -12.6782   15.6310 C   0  0  0  0  0  0  0  0  0  0  0  0
    7.5036  -12.9834    9.1845 C   0  0  0  0  0  0  0  0  0  0  0  0
   16.4658  -10.2215   15.8144 C   0  0  0  0  0  0  0  0  0  0  0  0
    7.4340  -17.5774   12.9844 C   0  0  0  0  0  0  0  0  0  0  0  0
    8.3140  -16.5254    9.3835 C   0  0  0  0  0  0  0  0  0  0  0  0
    8.4043  -14.3850   11.0546 C   0  0  0  0  0  0  0  0  0  0  0  0
   17.7569  -11.4141   11.7438 C   0  0  0  0  0  0  0  0  0  0  0  0
   17.3611  -10.2554   11.0415 C   0  0  0  0  0  0  0  0  0  0  0  0
    7.1275  -17.1504   11.5312 C   0  0  0  0  0  0  0  0  0  0  0  0
   17.1368  -11.7175   12.9244 C   0  0  0  0  0  0  0  0  0  0  0  0
   15.8341   -9.6333   12.8418 C   0  0  0  0  0  0  0  0  0  0  0  0
    9.7416  -13.9529   13.7323 C   0  0  0  0  0  0  0  0  0  0  0  0
   11.9359  -14.3512   12.8909 C   0  0  0  0  0  0  0  0  0  0  0  0
   16.3977   -9.3305   11.5847 C   0  0  0  0  0  0  0  0  0  0  0  0
   13.4082  -11.6848   14.5998 C   0  0  0  0  0  0  0  0  0  0  0  0
   10.0665  -15.8935   12.2056 C   0  0  0  0  0  0  0  0  0  0  0  0
    8.2124  -14.2552    9.5864 C   0  0  1  0  0  0  0  0  0  0  0  0
   10.1599  -12.8929   14.5015 C   0  0  0  0  0  0  0  0  0  0  0  0
   11.5008  -12.5704   14.4106 C   0  0  0  0  0  0  0  0  0  0  0  0
    8.4372  -16.9149   10.7871 C   0  0  2  0  0  0  0  0  0  0  0  0
   15.6633  -11.1409   14.8042 C   0  0  2  0  0  0  0  0  0  0  0  0
   12.3888  -13.2709   13.5949 C   0  0  0  0  0  0  0  0  0  0  0  0
   10.6089  -14.6977   12.9666 C   0  0  0  0  0  0  0  0  0  0  0  0
   16.1802  -10.8435   13.4453 C   0  0  0  0  0  0  0  0  0  0  0  0
    6.7307  -17.5698   14.8776 H   0  0  0  0  0  0  0  0  0  0  0  0
   14.0451   -9.9285   15.3997 H   0  0  0  0  0  0  0  0  0  0  0  0
    7.6549  -12.0899   16.2711 H   0  0  0  0  0  0  0  0  0  0  0  0
    7.6376  -12.7423   14.7741 H   0  0  0  0  0  0  0  0  0  0  0  0
    8.2511  -13.5906   16.0275 H   0  0  0  0  0  0  0  0  0  0  0  0
    8.0523  -12.1944    9.4608 H   0  0  0  0  0  0  0  0  0  0  0  0
    7.3779  -12.9710    8.1925 H   0  0  0  0  0  0  0  0  0  0  0  0
    6.6113  -12.9427    9.6341 H   0  0  0  0  0  0  0  0  0  0  0  0
   17.4242  -10.5036   15.7714 H   0  0  0  0  0  0  0  0  0  0  0  0
   16.3804   -9.2804   15.4874 H   0  0  0  0  0  0  0  0  0  0  0  0
    7.5551  -18.5700   12.9907 H   0  0  0  0  0  0  0  0  0  0  0  0
    8.2886  -17.1356   13.2575 H   0  0  0  0  0  0  0  0  0  0  0  0
    9.2190  -16.2708    9.0426 H   0  0  0  0  0  0  0  0  0  0  0  0
    7.9703  -17.3079    8.8644 H   0  0  0  0  0  0  0  0  0  0  0  0
    9.0089  -13.6530   11.3688 H   0  0  0  0  0  0  0  0  0  0  0  0
    7.5163  -14.3009   11.5066 H   0  0  0  0  0  0  0  0  0  0  0  0
   18.4796  -12.0040   11.3837 H   0  0  0  0  0  0  0  0  0  0  0  0
   17.7596  -10.0711   10.1430 H   0  0  0  0  0  0  0  0  0  0  0  0
    6.5906  -16.3068   11.5372 H   0  0  0  0  0  0  0  0  0  0  0  0
    6.6087  -17.8724   11.0735 H   0  0  0  0  0  0  0  0  0  0  0  0
   17.3669  -12.5600   13.4116 H   0  0  0  0  0  0  0  0  0  0  0  0
   15.2038   -8.9984   13.2886 H   0  0  0  0  0  0  0  0  0  0  0  0
    8.7705  -14.1916   13.7293 H   0  0  0  0  0  0  0  0  0  0  0  0
   12.5651  -14.8846   12.3256 H   0  0  0  0  0  0  0  0  0  0  0  0
    9.1025  -14.2947    9.1323 H   0  0  0  0  0  0  0  0  0  0  0  0
    9.0469  -17.7016   10.8846 H   0  0  0  0  0  0  0  0  0  0  0  0
   15.8095  -12.1051   15.0251 H   0  0  0  0  0  0  0  0  0  0  0  0
  1 24  1  0  0  0  0
  2 13  1  0  0  0  0
  3 14  1  0  0  0  0
  4 26  2  0  0  0  0
  5 11  1  0  0  0  0
  5 28  1  0  0  0  0
  6 15  1  0  0  0  0
  6 27  1  0  0  0  0
  7 25  1  0  0  0  0
  7 29  1  0  0  0  0
  8 25  1  0  0  0  0
  8 31  1  0  0  0  0
  9 25  2  0  0  0  0
  9 32  1  0  0  0  0
 10 16  1  0  0  0  0
 10 26  1  0  0  0  0
 10 30  1  0  0  0  0
 12 27  1  0  0  0  0
 13 31  1  0  0  0  0
 14 19  1  0  0  0  0
 15 30  1  0  0  0  0
 16 27  1  0  0  0  0
 17 18  2  0  0  0  0
 17 20  1  0  0  0  0
 18 24  1  0  0  0  0
 19 30  1  0  0  0  0
 20 34  2  0  0  0  0
 21 24  2  0  0  0  0
 21 34  1  0  0  0  0
 22 28  1  0  0  0  0
 22 33  2  0  0  0  0
 23 32  2  0  0  0  0
 23 33  1  0  0  0  0
 26 33  1  0  0  0  0
 28 29  2  0  0  0  0
 29 32  1  0  0  0  0
 31 34  1  0  0  0  0
  3 35  1  0  0  0  0
  8 36  1  0  0  0  0
 11 37  1  0  0  0  0
 11 38  1  0  0  0  0
 11 39  1  0  0  0  0
 12 40  1  0  0  0  0
 12 41  1  0  0  0  0
 12 42  1  0  0  0  0
 13 43  1  0  0  0  0
 13 44  1  0  0  0  0
 14 45  1  0  0  0  0
 14 46  1  0  0  0  0
 15 47  1  0  0  0  0
 15 48  1  0  0  0  0
 16 49  1  0  0  0  0
 16 50  1  0  0  0  0
 17 51  1  0  0  0  0
 18 52  1  0  0  0  0
 19 53  1  0  0  0  0
 19 54  1  0  0  0  0
 20 55  1  0  0  0  0
 21 56  1  0  0  0  0
 22 57  1  0  0  0  0
 23 58  1  0  0  0  0
 27 59  1  0  0  0  0
 30 60  1  0  0  0  0
 31 61  1  0  0  0  0
M  END
> <pdb_id>
6ZV8

> <uniprot_id>
P00734

> <usmiles>
Clc1cc(ccc1)[C@H](NC=2Oc3c(OC)cc(cc3N2)C(=O)N4[C@H](CO[C@H](C4)C)CCO)CF

$$$$
QQW_H_302
          07202416143D 1   1.00000     0.00000     0
            
 61 64  0  0  0  0            999 V2000
   16.0177   -7.9377   10.6656 Cl  0  0  0  0  0  0  0  0  0  0  0  0
   11.4789  -18.4326    9.3870 O   0  0  0  0  0  0  0  0  0  0  0  0
   10.7627  -17.3054   12.1950 O   0  0  0  0  0  0  0  0  0  0  0  0
    9.3606  -12.3669   15.0277 O   0  0  0  0  0  0  0  0  0  0  0  0
    7.3267  -15.6293    9.3203 O   0  0  0  0  0  0  0  0  0  0  0  0
   12.1685  -11.7309   14.9310 O   0  0  0  0  0  0  0  0  0  0  0  0
   14.2808  -10.9497   15.0482 N   0  0  0  0  0  0  0  0  0  0  0  0
   13.7098  -12.8604   13.7625 N   0  0  0  0  0  0  0  0  0  0  0  0
    9.6191  -15.9557   10.8318 N   0  0  0  0  0  0  0  0  0  0  0  0
    8.0313  -12.9051   15.2033 C   0  0  0  0  0  0  0  0  0  0  0  0
    7.3174  -13.2371    9.3572 C   0  0  0  0  0  0  0  0  0  0  0  0
   16.3805  -10.0747   15.7129 C   0  0  0  0  0  0  0  0  0  0  0  0
   11.1931  -17.3054    8.6297 C   0  0  0  0  0  0  0  0  0  0  0  0
    7.6004  -16.8671    9.9380 C   0  0  0  0  0  0  0  0  0  0  0  0
    9.1933  -14.5787   10.3700 C   0  0  0  0  0  0  0  0  0  0  0  0
   17.7307  -11.3911   11.6295 C   0  0  0  0  0  0  0  0  0  0  0  0
   17.3805  -10.2275   10.9325 C   0  0  0  0  0  0  0  0  0  0  0  0
    9.6764  -17.1578    8.6362 C   0  0  0  0  0  0  0  0  0  0  0  0
   17.1696  -11.6602   12.8729 C   0  0  0  0  0  0  0  0  0  0  0  0
   15.8647   -9.6469   12.7489 C   0  0  0  0  0  0  0  0  0  0  0  0
    9.8214  -14.2617   13.5543 C   0  0  0  0  0  0  0  0  0  0  0  0
   12.1081  -14.5852   12.8246 C   0  0  0  0  0  0  0  0  0  0  0  0
   13.4532  -11.8404   14.5981 C   0  0  0  0  0  0  0  0  0  0  0  0
   16.4498   -9.3698   11.5118 C   0  0  0  0  0  0  0  0  0  0  0  0
   10.3151  -16.1791   11.9673 C   0  0  0  0  0  0  0  0  0  0  0  0
    7.6926  -14.4953   10.1420 C   0  0  2  0  0  0  0  0  0  0  0  0
   10.2299  -13.1462   14.3004 C   0  0  0  0  0  0  0  0  0  0  0  0
   15.7075  -11.0991   14.8199 C   0  0  2  0  0  0  0  0  0  0  0  0
   11.5662  -12.7713   14.2937 C   0  0  0  0  0  0  0  0  0  0  0  0
   12.5246  -13.4727   13.5778 C   0  0  0  0  0  0  0  0  0  0  0  0
    9.0769  -17.0950   10.0365 C   0  0  1  0  0  0  0  0  0  0  0  0
   10.7689  -14.9732   12.8234 C   0  0  0  0  0  0  0  0  0  0  0  0
   16.2241  -10.8106   13.4230 C   0  0  0  0  0  0  0  0  0  0  0  0
   12.4685  -18.5740    9.4139 H   0  0  0  0  0  0  0  0  0  0  0  0
   13.9364  -10.1584   15.5534 H   0  0  0  0  0  0  0  0  0  0  0  0
    7.4817  -12.2665   15.7421 H   0  0  0  0  0  0  0  0  0  0  0  0
    7.6051  -13.0392   14.3087 H   0  0  0  0  0  0  0  0  0  0  0  0
    8.0871  -13.7819   15.6808 H   0  0  0  0  0  0  0  0  0  0  0  0
    7.5552  -12.4268    9.8929 H   0  0  0  0  0  0  0  0  0  0  0  0
    7.8175  -13.2227    8.4913 H   0  0  0  0  0  0  0  0  0  0  0  0
    6.3343  -13.2390    9.1743 H   0  0  0  0  0  0  0  0  0  0  0  0
   17.3721  -10.1316   15.5971 H   0  0  0  0  0  0  0  0  0  0  0  0
   16.0678   -9.1582   15.4632 H   0  0  0  0  0  0  0  0  0  0  0  0
   16.1453  -10.2586   16.6673 H   0  0  0  0  0  0  0  0  0  0  0  0
   11.5253  -17.4238    7.6940 H   0  0  0  0  0  0  0  0  0  0  0  0
   11.6212  -16.4980    9.0357 H   0  0  0  0  0  0  0  0  0  0  0  0
    7.1903  -17.6015    9.3972 H   0  0  0  0  0  0  0  0  0  0  0  0
    7.2059  -16.8696   10.8569 H   0  0  0  0  0  0  0  0  0  0  0  0
    9.6627  -14.3657    9.5131 H   0  0  0  0  0  0  0  0  0  0  0  0
    9.4520  -13.9098   11.0669 H   0  0  0  0  0  0  0  0  0  0  0  0
   18.3875  -12.0313   11.2309 H   0  0  0  0  0  0  0  0  0  0  0  0
   17.7879  -10.0189   10.0434 H   0  0  0  0  0  0  0  0  0  0  0  0
    9.2802  -17.9412    8.1572 H   0  0  0  0  0  0  0  0  0  0  0  0
    9.4384  -16.3159    8.1521 H   0  0  0  0  0  0  0  0  0  0  0  0
   17.4521  -12.4770   13.3759 H   0  0  0  0  0  0  0  0  0  0  0  0
   15.1962   -9.0176   13.1455 H   0  0  0  0  0  0  0  0  0  0  0  0
    8.8616  -14.5423   13.5474 H   0  0  0  0  0  0  0  0  0  0  0  0
   12.7759  -15.1005   12.2873 H   0  0  0  0  0  0  0  0  0  0  0  0
    7.2039  -14.5227   11.0140 H   0  0  0  0  0  0  0  0  0  0  0  0
   15.9927  -12.0171   15.0955 H   0  0  0  0  0  0  0  0  0  0  0  0
    9.2532  -17.9543   10.5167 H   0  0  0  0  0  0  0  0  0  0  0  0
  1 24  1  0  0  0  0
  2 13  1  0  0  0  0
  3 25  2  0  0  0  0
  4 10  1  0  0  0  0
  4 27  1  0  0  0  0
  5 14  1  0  0  0  0
  5 26  1  0  0  0  0
  6 23  1  0  0  0  0
  6 29  1  0  0  0  0
  7 23  1  0  0  0  0
  7 28  1  0  0  0  0
  8 23  2  0  0  0  0
  8 30  1  0  0  0  0
  9 15  1  0  0  0  0
  9 25  1  0  0  0  0
  9 31  1  0  0  0  0
 11 26  1  0  0  0  0
 12 28  1  0  0  0  0
 13 18  1  0  0  0  0
 14 31  1  0  0  0  0
 15 26  1  0  0  0  0
 16 17  2  0  0  0  0
 16 19  1  0  0  0  0
 17 24  1  0  0  0  0
 18 31  1  0  0  0  0
 19 33  2  0  0  0  0
 20 24  2  0  0  0  0
 20 33  1  0  0  0  0
 21 27  1  0  0  0  0
 21 32  2  0  0  0  0
 22 30  2  0  0  0  0
 22 32  1  0  0  0  0
 25 32  1  0  0  0  0
 27 29  2  0  0  0  0
 28 33  1  0  0  0  0
 29 30  1  0  0  0  0
  2 34  1  0  0  0  0
  7 35  1  0  0  0  0
 10 36  1  0  0  0  0
 10 37  1  0  0  0  0
 10 38  1  0  0  0  0
 11 39  1  0  0  0  0
 11 40  1  0  0  0  0
 11 41  1  0  0  0  0
 12 42  1  0  0  0  0
 12 43  1  0  0  0  0
 12 44  1  0  0  0  0
 13 45  1  0  0  0  0
 13 46  1  0  0  0  0
 14 47  1  0  0  0  0
 14 48  1  0  0  0  0
 15 49  1  0  0  0  0
 15 50  1  0  0  0  0
 16 51  1  0  0  0  0
 17 52  1  0  0  0  0
 18 53  1  0  0  0  0
 18 54  1  0  0  0  0
 19 55  1  0  0  0  0
 20 56  1  0  0  0  0
 21 57  1  0  0  0  0
 22 58  1  0  0  0  0
 26 59  1  0  0  0  0
 28 60  1  0  0  0  0
 31 61  1  0  0  0  0
M  END
> <pdb_id>
6ZV7

> <uniprot_id>
P00734

> <usmiles>
Clc1cc(ccc1)[C@H](NC=2Oc3c(OC)cc(cc3N2)C(=O)N4[C@@H](CO[C@@H](C4)C)CCO)C

$$$$
QSS_A_1701
          07202414123D 1   1.00000     0.00000     0
            
 31 32  0  0  0  0            999 V2000
  -22.9540  -16.6010    9.9330 N   0  0  0  0  0  0  0  0  0  0  0  0
  -22.0210  -12.7370    6.5930 N   0  0  0  0  0  0  0  0  0  0  0  0
  -22.5920  -15.3990    7.4800 N   0  0  0  0  0  0  0  0  0  0  0  0
  -21.9200  -11.2750    6.8530 C   0  0  0  0  0  0  0  0  0  0  0  0
  -23.3900  -13.2080    6.7990 C   0  0  0  0  0  0  0  0  0  0  0  0
  -21.1130  -13.4780    7.4670 C   0  0  0  0  0  0  0  0  0  0  0  0
  -23.4910  -14.6990    6.5650 C   0  0  0  0  0  0  0  0  0  0  0  0
  -21.2250  -14.9600    7.2220 C   0  0  0  0  0  0  0  0  0  0  0  0
  -22.9410  -19.5710    7.8070 C   0  0  0  0  0  0  0  0  0  0  0  0
  -22.7650  -19.0080    6.5590 C   0  0  0  0  0  0  0  0  0  0  0  0
  -23.0170  -18.7660    8.9270 C   0  0  0  0  0  0  0  0  0  0  0  0
  -22.6780  -17.6280    6.4210 C   0  0  0  0  0  0  0  0  0  0  0  0
  -22.9160  -17.3730    8.8280 C   0  0  0  0  0  0  0  0  0  0  0  0
  -22.7470  -16.8190    7.5520 C   0  0  0  0  0  0  0  0  0  0  0  0
  -22.8810  -15.6070    9.8513 H   0  0  0  0  0  0  0  0  0  0  0  0
  -23.0551  -17.0225   10.8342 H   0  0  0  0  0  0  0  0  0  0  0  0
  -20.9775  -10.9747    6.7065 H   0  0  0  0  0  0  0  0  0  0  0  0
  -22.5274  -10.7828    6.2294 H   0  0  0  0  0  0  0  0  0  0  0  0
  -22.1873  -11.0852    7.7977 H   0  0  0  0  0  0  0  0  0  0  0  0
  -23.9980  -12.7349    6.1614 H   0  0  0  0  0  0  0  0  0  0  0  0
  -23.6680  -13.0047    7.7378 H   0  0  0  0  0  0  0  0  0  0  0  0
  -21.3452  -13.2849    8.4203 H   0  0  0  0  0  0  0  0  0  0  0  0
  -20.1737  -13.1861    7.2870 H   0  0  0  0  0  0  0  0  0  0  0  0
  -24.4311  -14.9987    6.7274 H   0  0  0  0  0  0  0  0  0  0  0  0
  -23.2333  -14.9063    5.6213 H   0  0  0  0  0  0  0  0  0  0  0  0
  -20.9858  -15.1588    6.2716 H   0  0  0  0  0  0  0  0  0  0  0  0
  -20.5991  -15.4460    7.8319 H   0  0  0  0  0  0  0  0  0  0  0  0
  -23.0137  -20.5640    7.9005 H   0  0  0  0  0  0  0  0  0  0  0  0
  -22.6999  -19.5949    5.7519 H   0  0  0  0  0  0  0  0  0  0  0  0
  -23.1466  -19.1860    9.8252 H   0  0  0  0  0  0  0  0  0  0  0  0
  -22.5666  -17.2187    5.5154 H   0  0  0  0  0  0  0  0  0  0  0  0
  1 13  1  0  0  0  0
  2  4  1  0  0  0  0
  2  5  1  0  0  0  0
  2  6  1  0  0  0  0
  3  7  1  0  0  0  0
  3  8  1  0  0  0  0
  3 14  1  0  0  0  0
  5  7  1  0  0  0  0
  6  8  1  0  0  0  0
  9 10  2  0  0  0  0
  9 11  1  0  0  0  0
 10 12  1  0  0  0  0
 11 13  2  0  0  0  0
 12 14  2  0  0  0  0
 13 14  1  0  0  0  0
  1 15  1  0  0  0  0
  1 16  1  0  0  0  0
  4 17  1  0  0  0  0
  4 18  1  0  0  0  0
  4 19  1  0  0  0  0
  5 20  1  0  0  0  0
  5 21  1  0  0  0  0
  6 22  1  0  0  0  0
  6 23  1  0  0  0  0
  7 24  1  0  0  0  0
  7 25  1  0  0  0  0
  8 26  1  0  0  0  0
  8 27  1  0  0  0  0
  9 28  1  0  0  0  0
 10 29  1  0  0  0  0
 11 30  1  0  0  0  0
 12 31  1  0  0  0  0
M  END
> <pdb_id>
6VA5

> <uniprot_id>
Q12888

> <usmiles>
N1(c2c(N)cccc2)CCN(CC1)C

$$$$
QTM_B_2001
          07192420503D 1   1.00000     0.00000     0
            
 36 37  0  0  0  0            999 V2000
   -0.2207  -39.9016   41.3420 Cl  0  0  0  0  0  0  0  0  0  0  0  0
    1.7526  -32.6451   42.8264 S   0  0  0  0  0  0  0  0  0  0  0  0
   -2.6652  -41.3756   42.1008 F   0  0  0  0  0  0  0  0  0  0  0  0
    3.0720  -33.1928   42.9069 O   0  0  0  0  0  0  0  0  0  0  0  0
    1.2481  -32.2121   41.5550 O   0  0  0  0  0  0  0  0  0  0  0  0
   -1.9724  -36.7062   44.8749 O   0  0  0  0  0  0  0  0  0  0  0  0
    1.6860  -31.3909   43.8212 N   0  0  0  0  0  0  0  0  0  0  0  0
    0.1594  -36.7227   48.6792 N   0  0  0  0  0  0  0  0  0  0  0  0
   -0.0880  -35.8183   47.5417 C   0  0  0  0  0  0  0  0  0  0  0  0
   -0.5703  -34.0488   42.8122 C   0  0  0  0  0  0  0  0  0  0  0  0
   -3.4237  -39.8458   43.7140 C   0  0  0  0  0  0  0  0  0  0  0  0
   -3.2394  -38.6686   44.4138 C   0  0  0  0  0  0  0  0  0  0  0  0
    0.4763  -36.4118   46.2542 C   0  0  0  0  0  0  0  0  0  0  0  0
   -1.4423  -35.0048   43.2879 C   0  0  0  0  0  0  0  0  0  0  0  0
   -1.2196  -38.2503   43.2036 C   0  0  0  0  0  0  0  0  0  0  0  0
    0.9993  -34.6117   44.5498 C   0  0  0  0  0  0  0  0  0  0  0  0
   -1.3984  -39.4320   42.5132 C   0  0  0  0  0  0  0  0  0  0  0  0
    0.6439  -33.8654   43.4392 C   0  0  0  0  0  0  0  0  0  0  0  0
   -2.4931  -40.2148   42.7777 C   0  0  0  0  0  0  0  0  0  0  0  0
   -2.1479  -37.8730   44.1462 C   0  0  0  0  0  0  0  0  0  0  0  0
   -1.0942  -35.7474   44.3954 C   0  0  0  0  0  0  0  0  0  0  0  0
    0.1206  -35.5754   45.0425 C   0  0  0  0  0  0  0  0  0  0  0  0
    0.7724  -30.9860   43.7864 H   0  0  0  0  0  0  0  0  0  0  0  0
    1.8807  -31.6946   44.7539 H   0  0  0  0  0  0  0  0  0  0  0  0
   -0.2161  -36.3193   49.5136 H   0  0  0  0  0  0  0  0  0  0  0  0
   -0.2818  -37.6034   48.5069 H   0  0  0  0  0  0  0  0  0  0  0  0
    0.3526  -34.9383   47.7192 H   0  0  0  0  0  0  0  0  0  0  0  0
   -1.0733  -35.6828   47.4374 H   0  0  0  0  0  0  0  0  0  0  0  0
   -0.8166  -33.4926   42.0184 H   0  0  0  0  0  0  0  0  0  0  0  0
   -4.2238  -40.4198   43.8879 H   0  0  0  0  0  0  0  0  0  0  0  0
   -3.8984  -38.3946   45.1143 H   0  0  0  0  0  0  0  0  0  0  0  0
    0.1042  -37.3320   46.1323 H   0  0  0  0  0  0  0  0  0  0  0  0
    1.4721  -36.4624   46.3309 H   0  0  0  0  0  0  0  0  0  0  0  0
   -2.3197  -35.1580   42.8333 H   0  0  0  0  0  0  0  0  0  0  0  0
   -0.4231  -37.6740   43.0204 H   0  0  0  0  0  0  0  0  0  0  0  0
    1.8813  -34.4603   44.9961 H   0  0  0  0  0  0  0  0  0  0  0  0
  1 17  1  0  0  0  0
  2  4  2  0  0  0  0
  2  5  2  0  0  0  0
  2  7  1  0  0  0  0
  2 18  1  0  0  0  0
  3 19  1  0  0  0  0
  6 20  1  0  0  0  0
  6 21  1  0  0  0  0
  8  9  1  0  0  0  0
  9 13  1  0  0  0  0
 10 14  2  0  0  0  0
 10 18  1  0  0  0  0
 11 12  2  0  0  0  0
 11 19  1  0  0  0  0
 12 20  1  0  0  0  0
 13 22  1  0  0  0  0
 14 21  1  0  0  0  0
 15 17  1  0  0  0  0
 15 20  2  0  0  0  0
 16 18  2  0  0  0  0
 16 22  1  0  0  0  0
 17 19  2  0  0  0  0
 21 22  2  0  0  0  0
  7 23  1  0  0  0  0
  7 24  1  0  0  0  0
  8 25  1  0  0  0  0
  8 26  1  0  0  0  0
  9 27  1  0  0  0  0
  9 28  1  0  0  0  0
 10 29  1  0  0  0  0
 11 30  1  0  0  0  0
 12 31  1  0  0  0  0
 13 32  1  0  0  0  0
 13 33  1  0  0  0  0
 14 34  1  0  0  0  0
 15 35  1  0  0  0  0
 16 36  1  0  0  0  0
M  END
> <pdb_id>
6V9J

> <uniprot_id>
Q07889

> <usmiles>
Clc1c(F)ccc(Oc2c(cc(S(=O)(=O)N)cc2)CCN)c1

$$$$
QUP_A_2000
          07202414163D 1   1.00000     0.00000     0
            
 39 42  0  0  0  0            999 V2000
   55.2858   -3.7521   27.8967 Cl  0  0  0  0  0  0  0  0  0  0  0  0
   57.2669   -9.1860   31.9540 O   0  0  0  0  0  0  0  0  0  0  0  0
   57.3161   -7.6150   30.3726 N   0  0  0  0  0  0  0  0  0  0  0  0
   49.7916  -11.9561   31.8545 N   0  0  0  0  0  0  0  0  0  0  0  0
   51.9595  -11.2038   32.2752 N   0  0  0  0  0  0  0  0  0  0  0  0
   49.8412  -11.2924   30.6267 N   0  0  0  0  0  0  0  0  0  0  0  0
   54.6193   -8.5614   29.6219 N   0  0  0  0  0  0  0  0  0  0  0  0
   56.0728   -9.7395   27.4933 C   0  0  0  0  0  0  0  0  0  0  0  0
   50.8672  -11.8889   32.6498 C   0  0  0  0  0  0  0  0  0  0  0  0
   48.8694  -11.2489   29.7094 C   0  0  0  0  0  0  0  0  0  0  0  0
   53.3764   -9.0287   29.5431 C   0  0  0  0  0  0  0  0  0  0  0  0
   49.3281  -10.4889   28.6467 C   0  0  0  0  0  0  0  0  0  0  0  0
   56.2453   -6.0509   26.7036 C   0  0  0  0  0  0  0  0  0  0  0  0
   50.6109  -10.0684   28.9438 C   0  0  0  0  0  0  0  0  0  0  0  0
   56.4110   -7.4241   26.6337 C   0  0  0  0  0  0  0  0  0  0  0  0
   54.9932   -6.3742   28.7266 C   0  0  0  0  0  0  0  0  0  0  0  0
   54.4300   -9.7522   31.4036 C   0  0  0  0  0  0  0  0  0  0  0  0
   56.7094   -8.5852   31.0508 C   0  0  0  0  0  0  0  0  0  0  0  0
   55.5272   -5.5261   27.7646 C   0  0  0  0  0  0  0  0  0  0  0  0
   52.0106  -10.5599   31.0864 C   0  0  0  0  0  0  0  0  0  0  0  0
   50.9119  -10.6100   30.2392 C   0  0  0  0  0  0  0  0  0  0  0  0
   55.3076   -8.9436   30.6926 C   0  0  0  0  0  0  0  0  0  0  0  0
   55.1409   -7.7606   28.6865 C   0  0  0  0  0  0  0  0  0  0  0  0
   55.8675   -8.2527   27.6089 C   0  0  0  0  0  0  0  0  0  0  0  0
   53.2327   -9.8042   30.6901 C   0  0  0  0  0  0  0  0  0  0  0  0
   56.8320   -7.1409   29.6371 H   0  0  0  0  0  0  0  0  0  0  0  0
   58.2563   -7.3598   30.5981 H   0  0  0  0  0  0  0  0  0  0  0  0
   55.6272  -10.1983   28.2620 H   0  0  0  0  0  0  0  0  0  0  0  0
   55.6758  -10.0651   26.6351 H   0  0  0  0  0  0  0  0  0  0  0  0
   57.0518   -9.9428   27.5059 H   0  0  0  0  0  0  0  0  0  0  0  0
   50.8566  -12.3552   33.5344 H   0  0  0  0  0  0  0  0  0  0  0  0
   47.9728  -11.6864   29.7784 H   0  0  0  0  0  0  0  0  0  0  0  0
   52.7008   -8.8615   28.8251 H   0  0  0  0  0  0  0  0  0  0  0  0
   48.8204  -10.2807   27.8107 H   0  0  0  0  0  0  0  0  0  0  0  0
   56.6354   -5.4524   26.0039 H   0  0  0  0  0  0  0  0  0  0  0  0
   51.2069   -9.5030   28.3737 H   0  0  0  0  0  0  0  0  0  0  0  0
   56.9260   -7.8232   25.8751 H   0  0  0  0  0  0  0  0  0  0  0  0
   54.4785   -5.9718   29.4837 H   0  0  0  0  0  0  0  0  0  0  0  0
   54.6219  -10.2133   32.2700 H   0  0  0  0  0  0  0  0  0  0  0  0
  1 19  1  0  0  0  0
  2 18  2  0  0  0  0
  3 18  1  0  0  0  0
  4  6  1  0  0  0  0
  4  9  2  0  0  0  0
  5  9  1  0  0  0  0
  5 20  2  0  0  0  0
  6 10  1  0  0  0  0
  6 21  1  0  0  0  0
  7 11  1  0  0  0  0
  7 22  1  0  0  0  0
  7 23  1  0  0  0  0
  8 24  1  0  0  0  0
 10 12  2  0  0  0  0
 11 25  2  0  0  0  0
 12 14  1  0  0  0  0
 13 15  1  0  0  0  0
 13 19  2  0  0  0  0
 14 21  2  0  0  0  0
 15 24  2  0  0  0  0
 16 19  1  0  0  0  0
 16 23  2  0  0  0  0
 17 22  2  0  0  0  0
 17 25  1  0  0  0  0
 18 22  1  0  0  0  0
 20 21  1  0  0  0  0
 20 25  1  0  0  0  0
 23 24  1  0  0  0  0
  3 26  1  0  0  0  0
  3 27  1  0  0  0  0
  8 28  1  0  0  0  0
  8 29  1  0  0  0  0
  8 30  1  0  0  0  0
  9 31  1  0  0  0  0
 10 32  1  0  0  0  0
 11 33  1  0  0  0  0
 12 34  1  0  0  0  0
 13 35  1  0  0  0  0
 14 36  1  0  0  0  0
 15 37  1  0  0  0  0
 16 38  1  0  0  0  0
 17 39  1  0  0  0  0
M  END
> <pdb_id>
5AEP

> <uniprot_id>
O60674

> <usmiles>
Clc1cc(N2C(C(=O)N)=CC(C3=NC=NN4C3=CC=C4)=C2)c(cc1)C

$$$$
QUS_A_1001
          07202401353D 1   1.00000     0.00000     0
            
 20 20  0  0  0  0            999 V2000
    4.3647   11.0465    4.7412 O   0  0  0  0  0  0  0  0  0  0  0  0
    7.1713   16.8893    7.6271 O   0  0  0  0  0  0  0  0  0  0  0  0
    8.7537   16.2353    6.2251 O   0  0  0  0  0  0  0  0  0  0  0  0
    8.5954   12.7105    4.3983 O   0  0  0  0  0  0  0  0  0  0  0  0
    5.1946   13.1017    4.2948 O   0  0  0  0  0  0  0  0  0  0  0  0
    5.4492   15.0275    7.0738 N   0  0  0  0  0  0  0  0  0  0  0  0
    6.6428   11.4946    4.6553 N   0  0  0  0  0  0  0  0  0  0  0  0
    6.5258   13.6381    4.1783 N   0  0  0  0  0  0  0  0  0  0  0  0
    6.6374   14.9819    4.7712 C   0  0  0  0  0  0  0  0  0  0  0  0
    5.3305   11.7676    4.5885 C   0  0  0  0  0  0  0  0  0  0  0  0
    7.6103   16.1073    6.7606 C   0  0  0  0  0  0  0  0  0  0  0  0
    7.3957   12.5897    4.4158 C   0  0  0  0  0  0  0  0  0  0  0  0
    6.7379   14.9161    6.3068 C   0  0  1  0  0  0  0  0  0  0  0  0
    6.2624   16.7434    8.0178 H   0  0  0  0  0  0  0  0  0  0  0  0
    5.6388   14.9720    8.0541 H   0  0  0  0  0  0  0  0  0  0  0  0
    5.0134   15.9036    6.8677 H   0  0  0  0  0  0  0  0  0  0  0  0
    7.0176   10.5899    4.8580 H   0  0  0  0  0  0  0  0  0  0  0  0
    5.8293   15.5153    4.5212 H   0  0  0  0  0  0  0  0  0  0  0  0
    7.4563   15.4288    4.4110 H   0  0  0  0  0  0  0  0  0  0  0  0
    7.1945   14.0646    6.5645 H   0  0  0  0  0  0  0  0  0  0  0  0
  1 10  2  0  0  0  0
  2 11  1  0  0  0  0
  3 11  2  0  0  0  0
  4 12  2  0  0  0  0
  5  8  1  0  0  0  0
  5 10  1  0  0  0  0
  6 13  1  0  0  0  0
  7 10  1  0  0  0  0
  7 12  1  0  0  0  0
  8  9  1  0  0  0  0
  8 12  1  0  0  0  0
  9 13  1  0  0  0  0
 11 13  1  0  0  0  0
  2 14  1  0  0  0  0
  6 15  1  0  0  0  0
  6 16  1  0  0  0  0
  7 17  1  0  0  0  0
  9 18  1  0  0  0  0
  9 19  1  0  0  0  0
 13 20  1  0  0  0  0
M  END
> <pdb_id>
1S9T

> <uniprot_id>
P42260

> <usmiles>
O=C1ON(C(=O)N1)C[C@H](N)C(=O)O

$$$$
QUS_A_301
          07202403063D 1   1.00000     0.00000     0
            
 20 20  0  0  0  0            999 V2000
   15.5250    2.0420   12.0010 O   0  0  0  0  0  0  0  0  0  0  0  0
   13.9960    1.7570   19.3480 O   0  0  0  0  0  0  0  0  0  0  0  0
   15.7640    0.5270   18.8920 O   0  0  0  0  0  0  0  0  0  0  0  0
   16.9670   -0.5020   15.5150 O   0  0  0  0  0  0  0  0  0  0  0  0
   15.9150    2.4860   14.1900 O   0  0  0  0  0  0  0  0  0  0  0  0
   13.5190    2.5360   16.9410 N   0  0  0  0  0  0  0  0  0  0  0  0
   16.2850    0.4170   13.5050 N   0  0  0  0  0  0  0  0  0  0  0  0
   16.3790    1.6670   15.2710 N   0  0  0  0  0  0  0  0  0  0  0  0
   16.0570    2.0870   16.6370 C   0  0  0  0  0  0  0  0  0  0  0  0
   15.8780    1.6490   13.0980 C   0  0  0  0  0  0  0  0  0  0  0  0
   14.8140    1.2690   18.5500 C   0  0  0  0  0  0  0  0  0  0  0  0
   16.5890    0.3950   14.8250 C   0  0  0  0  0  0  0  0  0  0  0  0
   14.6700    1.5780   17.0550 C   0  0  1  0  0  0  0  0  0  0  0  0
   13.2584    2.3428   19.0122 H   0  0  0  0  0  0  0  0  0  0  0  0
   12.6788    2.0849   17.2419 H   0  0  0  0  0  0  0  0  0  0  0  0
   13.6925    3.3354   17.5162 H   0  0  0  0  0  0  0  0  0  0  0  0
   16.3519   -0.3779   12.9019 H   0  0  0  0  0  0  0  0  0  0  0  0
   16.0666    3.0859   16.6831 H   0  0  0  0  0  0  0  0  0  0  0  0
   16.7436    1.7178   17.2633 H   0  0  0  0  0  0  0  0  0  0  0  0
   14.4572    0.7370   16.5575 H   0  0  0  0  0  0  0  0  0  0  0  0
  1 10  2  0  0  0  0
  2 11  1  0  0  0  0
  3 11  2  0  0  0  0
  4 12  2  0  0  0  0
  5  8  1  0  0  0  0
  5 10  1  0  0  0  0
  6 13  1  0  0  0  0
  7 10  1  0  0  0  0
  7 12  1  0  0  0  0
  8  9  1  0  0  0  0
  8 12  1  0  0  0  0
  9 13  1  0  0  0  0
 11 13  1  0  0  0  0
  2 14  1  0  0  0  0
  6 15  1  0  0  0  0
  6 16  1  0  0  0  0
  7 17  1  0  0  0  0
  9 18  1  0  0  0  0
  9 19  1  0  0  0  0
 13 20  1  0  0  0  0
M  END
> <pdb_id>
1P1O

> <uniprot_id>
P19491

> <usmiles>
O=C1ON(C(=O)N1)C[C@H](N)C(=O)O

$$$$
QUS_A_741
          07202412473D 1   1.00000     0.00000     0
            
 20 20  0  0  0  0            999 V2000
   16.7814   42.6687   13.6753 O   0  0  0  0  0  0  0  0  0  0  0  0
   19.8757   41.6654   17.5940 O   0  0  0  0  0  0  0  0  0  0  0  0
   18.8540   40.5283   19.2031 O   0  0  0  0  0  0  0  0  0  0  0  0
   14.8037   40.4071   17.0195 O   0  0  0  0  0  0  0  0  0  0  0  0
   17.2599   42.5033   15.8870 O   0  0  0  0  0  0  0  0  0  0  0  0
   18.4918   43.8982   17.9840 N   0  0  0  0  0  0  0  0  0  0  0  0
   15.4936   41.2829   15.0291 N   0  0  0  0  0  0  0  0  0  0  0  0
   16.7442   41.6123   16.9017 N   0  0  0  0  0  0  0  0  0  0  0  0
   16.6170   42.2916   18.2020 C   0  0  0  0  0  0  0  0  0  0  0  0
   16.4695   42.1520   14.7393 C   0  0  0  0  0  0  0  0  0  0  0  0
   19.0134   41.5416   18.4738 C   0  0  0  0  0  0  0  0  0  0  0  0
   15.5809   41.0457   16.3457 C   0  0  0  0  0  0  0  0  0  0  0  0
   18.0379   42.6717   18.6762 C   0  0  1  0  0  0  0  0  0  0  0  0
   19.9287   42.5099   17.0611 H   0  0  0  0  0  0  0  0  0  0  0  0
   19.4112   44.1365   18.2967 H   0  0  0  0  0  0  0  0  0  0  0  0
   18.5064   43.7379   16.9971 H   0  0  0  0  0  0  0  0  0  0  0  0
   14.8317   40.8894   14.3911 H   0  0  0  0  0  0  0  0  0  0  0  0
   16.1893   41.6783   18.8661 H   0  0  0  0  0  0  0  0  0  0  0  0
   16.0596   43.1158   18.1023 H   0  0  0  0  0  0  0  0  0  0  0  0
   17.9936   42.8690   19.6555 H   0  0  0  0  0  0  0  0  0  0  0  0
  1 10  2  0  0  0  0
  2 11  1  0  0  0  0
  3 11  2  0  0  0  0
  4 12  2  0  0  0  0
  5  8  1  0  0  0  0
  5 10  1  0  0  0  0
  6 13  1  0  0  0  0
  7 10  1  0  0  0  0
  7 12  1  0  0  0  0
  8  9  1  0  0  0  0
  8 12  1  0  0  0  0
  9 13  1  0  0  0  0
 11 13  1  0  0  0  0
  2 14  1  0  0  0  0
  6 15  1  0  0  0  0
  6 16  1  0  0  0  0
  7 17  1  0  0  0  0
  9 18  1  0  0  0  0
  9 19  1  0  0  0  0
 13 20  1  0  0  0  0
M  END
> <pdb_id>
3FEE

> <uniprot_id>
Q9Y3Q0

> <usmiles>
O=C1ON(C(=O)N1)C[C@H](N)C(=O)O

$$$$
QUZ_A_299
          07202414183D 1   1.00000     0.00000     0
            
 16 17  0  0  0  0            999 V2000
   -4.5510   -3.9009   20.9554 N   0  0  0  0  0  0  0  0  0  0  0  0
   -2.7068   -3.3556   19.4007 N   0  0  0  0  0  0  0  0  0  0  0  0
   -3.3782   -4.1667   20.2243 C   0  0  0  0  0  0  0  0  0  0  0  0
   -3.2317    0.1463   18.2992 C   0  0  0  0  0  0  0  0  0  0  0  0
   -4.4128    0.4967   19.0019 C   0  0  0  0  0  0  0  0  0  0  0  0
   -5.0665   -2.6908   20.8077 C   0  0  0  0  0  0  0  0  0  0  0  0
   -2.6661   -1.0960   18.4157 C   0  0  0  0  0  0  0  0  0  0  0  0
   -5.0225   -0.4162   19.8244 C   0  0  0  0  0  0  0  0  0  0  0  0
   -3.2655   -2.0837   19.2595 C   0  0  0  0  0  0  0  0  0  0  0  0
   -4.4612   -1.7042   19.9599 C   0  0  0  0  0  0  0  0  0  0  0  0
   -2.9964   -5.0842   20.3356 H   0  0  0  0  0  0  0  0  0  0  0  0
   -2.8006    0.8237   17.7032 H   0  0  0  0  0  0  0  0  0  0  0  0
   -4.8022    1.4119   18.8974 H   0  0  0  0  0  0  0  0  0  0  0  0
   -5.9036   -2.4569   21.3023 H   0  0  0  0  0  0  0  0  0  0  0  0
   -1.8316   -1.3131   17.9093 H   0  0  0  0  0  0  0  0  0  0  0  0
   -5.8548   -0.1722   20.3222 H   0  0  0  0  0  0  0  0  0  0  0  0
  1  3  2  0  0  0  0
  1  6  1  0  0  0  0
  2  3  1  0  0  0  0
  2  9  2  0  0  0  0
  4  5  1  0  0  0  0
  4  7  2  0  0  0  0
  5  8  2  0  0  0  0
  6 10  2  0  0  0  0
  7  9  1  0  0  0  0
  8 10  1  0  0  0  0
  9 10  1  0  0  0  0
  3 11  1  0  0  0  0
  4 12  1  0  0  0  0
  5 13  1  0  0  0  0
  6 14  1  0  0  0  0
  7 15  1  0  0  0  0
  8 16  1  0  0  0  0
M  END
> <pdb_id>
3NC2

> <uniprot_id>
P50053-2

> <usmiles>
n1c2c(cnc1)cccc2

$$$$
QWI_A_1352
          07192421293D 1   1.00000     0.00000     0
            
 50 54  0  0  0  0            999 V2000
    3.3439   10.0933    4.4752 N   0  0  0  0  0  0  0  0  0  0  0  0
    3.2734   10.1037    2.0379 N   0  0  0  0  0  0  0  0  0  0  0  0
    5.5567    9.8954    5.4201 N   0  0  0  0  0  0  0  0  0  0  0  0
    5.4612    9.9085    1.5891 N   0  0  0  0  0  0  0  0  0  0  0  0
   11.4051    7.8460    4.2742 N   0  0  0  0  0  0  0  0  0  0  0  0
    7.4208    9.4522    4.0856 N   0  0  0  0  0  0  0  0  0  0  0  0
    4.2253   10.0417    5.4810 C   0  0  0  0  0  0  0  0  0  0  0  0
    4.2440   10.0362    1.0952 C   0  0  0  0  0  0  0  0  0  0  0  0
   12.6672    8.4764    4.6980 C   0  0  0  0  0  0  0  0  0  0  0  0
    8.0135    8.8740    2.8705 C   0  0  0  0  0  0  0  0  0  0  0  0
    8.2960    9.4071    5.2696 C   0  0  0  0  0  0  0  0  0  0  0  0
   13.8608   12.7379   -0.2081 C   0  0  0  0  0  0  0  0  0  0  0  0
   13.7657   11.3683   -0.3452 C   0  0  0  0  0  0  0  0  0  0  0  0
   13.4631   13.3349    0.9710 C   0  0  0  0  0  0  0  0  0  0  0  0
   13.3069    9.2897    3.5868 C   0  0  0  0  0  0  0  0  0  0  0  0
   13.2739   10.5917    0.6987 C   0  0  0  0  0  0  0  0  0  0  0  0
   12.9703   12.5603    2.0170 C   0  0  0  0  0  0  0  0  0  0  0  0
    9.2572    8.0250    3.0832 C   0  0  0  0  0  0  0  0  0  0  0  0
    9.7604    9.6726    4.9519 C   0  0  0  0  0  0  0  0  0  0  0  0
   10.9736    9.7173    2.6922 C   0  0  0  0  0  0  0  0  0  0  0  0
    3.9041   10.0229    3.2487 C   0  0  0  0  0  0  0  0  0  0  0  0
    6.0357    9.7927    4.1589 C   0  0  0  0  0  0  0  0  0  0  0  0
    5.2584    9.8886    2.9604 C   0  0  0  0  0  0  0  0  0  0  0  0
   12.8712   11.1788    1.8949 C   0  0  0  0  0  0  0  0  0  0  0  0
   12.3287   10.3445    3.0437 C   0  0  2  0  0  0  0  0  0  0  0  0
   10.3515    8.8315    3.8063 C   0  0  0  0  0  0  0  0  0  0  0  0
    6.3260    9.8418    1.0915 H   0  0  0  0  0  0  0  0  0  0  0  0
   11.0342    7.3328    5.0482 H   0  0  0  0  0  0  0  0  0  0  0  0
    3.8396   10.1231    6.4001 H   0  0  0  0  0  0  0  0  0  0  0  0
    4.0554   10.0793    0.1142 H   0  0  0  0  0  0  0  0  0  0  0  0
   13.3053    7.7601    4.9805 H   0  0  0  0  0  0  0  0  0  0  0  0
   12.4805    9.0809    5.4724 H   0  0  0  0  0  0  0  0  0  0  0  0
    8.2564    9.6269    2.2589 H   0  0  0  0  0  0  0  0  0  0  0  0
    7.3207    8.3001    2.4338 H   0  0  0  0  0  0  0  0  0  0  0  0
    8.2214    8.5002    5.6841 H   0  0  0  0  0  0  0  0  0  0  0  0
    7.9831   10.0982    5.9211 H   0  0  0  0  0  0  0  0  0  0  0  0
   14.2159   13.2949   -0.9588 H   0  0  0  0  0  0  0  0  0  0  0  0
   14.0515   10.9323   -1.1986 H   0  0  0  0  0  0  0  0  0  0  0  0
   13.5292   14.3274    1.0741 H   0  0  0  0  0  0  0  0  0  0  0  0
   13.5721    8.6759    2.8432 H   0  0  0  0  0  0  0  0  0  0  0  0
   14.1192    9.7504    3.9446 H   0  0  0  0  0  0  0  0  0  0  0  0
   13.2088    9.5999    0.5886 H   0  0  0  0  0  0  0  0  0  0  0  0
   12.6839   13.0028    2.8668 H   0  0  0  0  0  0  0  0  0  0  0  0
    9.6045    7.7237    2.1952 H   0  0  0  0  0  0  0  0  0  0  0  0
    9.0187    7.2266    3.6362 H   0  0  0  0  0  0  0  0  0  0  0  0
   10.2935    9.4872    5.7774 H   0  0  0  0  0  0  0  0  0  0  0  0
    9.8524   10.6373    4.7054 H   0  0  0  0  0  0  0  0  0  0  0  0
   11.0961    9.1505    1.8775 H   0  0  0  0  0  0  0  0  0  0  0  0
   10.3323   10.4574    2.4900 H   0  0  0  0  0  0  0  0  0  0  0  0
   12.1565   10.9809    3.7956 H   0  0  0  0  0  0  0  0  0  0  0  0
  1  7  2  0  0  0  0
  1 21  1  0  0  0  0
  2  8  2  0  0  0  0
  2 21  1  0  0  0  0
  3  7  1  0  0  0  0
  3 22  2  0  0  0  0
  4  8  1  0  0  0  0
  4 23  1  0  0  0  0
  5  9  1  0  0  0  0
  5 26  1  0  0  0  0
  6 10  1  0  0  0  0
  6 11  1  0  0  0  0
  6 22  1  0  0  0  0
  9 15  1  0  0  0  0
 10 18  1  0  0  0  0
 11 19  1  0  0  0  0
 12 13  2  0  0  0  0
 12 14  1  0  0  0  0
 13 16  1  0  0  0  0
 14 17  2  0  0  0  0
 15 25  1  0  0  0  0
 16 24  2  0  0  0  0
 17 24  1  0  0  0  0
 18 26  1  0  0  0  0
 19 26  1  0  0  0  0
 20 25  1  0  0  0  0
 20 26  1  0  0  0  0
 21 23  2  0  0  0  0
 22 23  1  0  0  0  0
 24 25  1  0  0  0  0
  4 27  1  0  0  0  0
  5 28  1  0  0  0  0
  7 29  1  0  0  0  0
  8 30  1  0  0  0  0
  9 31  1  0  0  0  0
  9 32  1  0  0  0  0
 10 33  1  0  0  0  0
 10 34  1  0  0  0  0
 11 35  1  0  0  0  0
 11 36  1  0  0  0  0
 12 37  1  0  0  0  0
 13 38  1  0  0  0  0
 14 39  1  0  0  0  0
 15 40  1  0  0  0  0
 15 41  1  0  0  0  0
 16 42  1  0  0  0  0
 17 43  1  0  0  0  0
 18 44  1  0  0  0  0
 18 45  1  0  0  0  0
 19 46  1  0  0  0  0
 19 47  1  0  0  0  0
 20 48  1  0  0  0  0
 20 49  1  0  0  0  0
 25 50  1  0  0  0  0
M  END
> <pdb_id>
3ZO4

> <uniprot_id>
P00517

> <usmiles>
n1c2N=CNc2c(nc1)N3CCC4(NCC[C@@H](c5ccccc5)C4)CC3

$$$$
QWS_A_702
          07202407573D 1   1.00000     0.00000     0
            
 45 47  0  0  0  0            999 V2000
   -1.1930    6.9490   14.9240 O   0  0  0  0  0  0  0  0  0  0  0  0
   -5.8170    5.0430   16.1020 O   0  0  0  0  0  0  0  0  0  0  0  0
   -7.6600   11.9310   15.4830 O   0  0  0  0  0  0  0  0  0  0  0  0
   -1.3090    5.2050   16.3790 N   0  0  0  0  0  0  0  0  0  0  0  0
   -7.6220    5.9340   14.9960 N   0  0  0  0  0  0  0  0  0  0  0  0
   -5.9110    7.6360   13.7130 N   0  0  0  0  0  0  0  0  0  0  0  0
   -3.2210    5.9550   15.4290 N   0  0  0  0  0  0  0  0  0  0  0  0
   -4.8350    8.2730   13.2250 N   0  0  0  0  0  0  0  0  0  0  0  0
   -8.0820   11.4480   17.7610 C   0  0  0  0  0  0  0  0  0  0  0  0
   -8.6290    9.7680   16.0850 C   0  0  0  0  0  0  0  0  0  0  0  0
   -3.6570    7.7990   13.7530 C   0  0  0  0  0  0  0  0  0  0  0  0
   -4.4090   10.3510   10.2270 C   0  0  0  0  0  0  0  0  0  0  0  0
   -7.0720   12.8120   13.3830 C   0  0  0  0  0  0  0  0  0  0  0  0
   -4.3210    9.2890   11.1180 C   0  0  0  0  0  0  0  0  0  0  0  0
   -5.1310   11.4790   10.5860 C   0  0  0  0  0  0  0  0  0  0  0  0
   -6.4490   12.7150   12.1590 C   0  0  0  0  0  0  0  0  0  0  0  0
   -6.2980   10.6140   13.9400 C   0  0  0  0  0  0  0  0  0  0  0  0
   -1.8620    6.1160   15.5250 C   0  0  0  0  0  0  0  0  0  0  0  0
   -6.2880    5.8450   15.3080 C   0  0  0  0  0  0  0  0  0  0  0  0
   -7.6210   10.8440   16.4440 C   0  0  0  0  0  0  0  0  0  0  0  0
   -6.9940   11.7510   14.2780 C   0  0  0  0  0  0  0  0  0  0  0  0
   -4.0230    6.7930   14.6450 C   0  0  0  0  0  0  0  0  0  0  0  0
   -5.4350    6.7330   14.5680 C   0  0  0  0  0  0  0  0  0  0  0  0
   -4.9580    9.3740   12.3440 C   0  0  0  0  0  0  0  0  0  0  0  0
   -5.7490   11.5690   11.8120 C   0  0  0  0  0  0  0  0  0  0  0  0
   -5.6710   10.5080   12.7100 C   0  0  0  0  0  0  0  0  0  0  0  0
   -1.8920    4.5424   16.8493 H   0  0  0  0  0  0  0  0  0  0  0  0
   -0.3211    5.2005   16.5341 H   0  0  0  0  0  0  0  0  0  0  0  0
   -7.9367    6.6160   14.3358 H   0  0  0  0  0  0  0  0  0  0  0  0
   -8.2790    5.3168   15.4289 H   0  0  0  0  0  0  0  0  0  0  0  0
   -3.6549    5.2115   15.9379 H   0  0  0  0  0  0  0  0  0  0  0  0
   -8.0773   10.7434   18.4706 H   0  0  0  0  0  0  0  0  0  0  0  0
   -7.4633   12.1888   18.0227 H   0  0  0  0  0  0  0  0  0  0  0  0
   -9.0086   11.8091   17.6559 H   0  0  0  0  0  0  0  0  0  0  0  0
   -8.5843    9.0310   16.7594 H   0  0  0  0  0  0  0  0  0  0  0  0
   -9.5486   10.1608   16.0809 H   0  0  0  0  0  0  0  0  0  0  0  0
   -8.4183    9.4031   15.1781 H   0  0  0  0  0  0  0  0  0  0  0  0
   -2.7309    8.1112   13.5410 H   0  0  0  0  0  0  0  0  0  0  0  0
   -3.9566   10.3026    9.3365 H   0  0  0  0  0  0  0  0  0  0  0  0
   -7.5771   13.6400   13.6266 H   0  0  0  0  0  0  0  0  0  0  0  0
   -3.8016    8.4696   10.8757 H   0  0  0  0  0  0  0  0  0  0  0  0
   -5.2039   12.2408    9.9423 H   0  0  0  0  0  0  0  0  0  0  0  0
   -6.5017   13.4777   11.5144 H   0  0  0  0  0  0  0  0  0  0  0  0
   -6.2442    9.8556   14.5896 H   0  0  0  0  0  0  0  0  0  0  0  0
   -6.6993   10.4642   16.5232 H   0  0  0  0  0  0  0  0  0  0  0  0
  1 18  2  0  0  0  0
  2 19  2  0  0  0  0
  3 20  1  0  0  0  0
  3 21  1  0  0  0  0
  4 18  1  0  0  0  0
  5 19  1  0  0  0  0
  6  8  1  0  0  0  0
  6 23  2  0  0  0  0
  7 18  1  0  0  0  0
  7 22  1  0  0  0  0
  8 11  1  0  0  0  0
  8 24  1  0  0  0  0
  9 20  1  0  0  0  0
 10 20  1  0  0  0  0
 11 22  2  0  0  0  0
 12 14  2  0  0  0  0
 12 15  1  0  0  0  0
 13 16  2  0  0  0  0
 13 21  1  0  0  0  0
 14 24  1  0  0  0  0
 15 25  2  0  0  0  0
 16 25  1  0  0  0  0
 17 21  2  0  0  0  0
 17 26  1  0  0  0  0
 19 23  1  0  0  0  0
 22 23  1  0  0  0  0
 24 26  2  0  0  0  0
 25 26  1  0  0  0  0
  4 27  1  0  0  0  0
  4 28  1  0  0  0  0
  5 29  1  0  0  0  0
  5 30  1  0  0  0  0
  7 31  1  0  0  0  0
  9 32  1  0  0  0  0
  9 33  1  0  0  0  0
  9 34  1  0  0  0  0
 10 35  1  0  0  0  0
 10 36  1  0  0  0  0
 10 37  1  0  0  0  0
 11 38  1  0  0  0  0
 12 39  1  0  0  0  0
 13 40  1  0  0  0  0
 14 41  1  0  0  0  0
 15 42  1  0  0  0  0
 16 43  1  0  0  0  0
 17 44  1  0  0  0  0
 20 45  1  0  0  0  0
M  END
> <pdb_id>
4M14

> <uniprot_id>
Q08881

> <usmiles>
O=C(NC=1C(=NN(c2c3c(ccc(OC(C)C)c3)ccc2)C1)C(=O)N)N

$$$$
QYK_A_501
          07202416203D 1   1.00000     0.00000     0
            
 20 21  0  0  0  0            999 V2000
   -3.0113   -3.1924   29.4672 Br  0  0  0  0  0  0  0  0  0  0  0  0
   -5.5653   -5.0021   31.8832 N   0  0  0  0  0  0  0  0  0  0  0  0
   -8.5505   -2.8088   31.7270 N   0  0  0  0  0  0  0  0  0  0  0  0
   -8.8655   -0.8457   30.5520 N   0  0  0  0  0  0  0  0  0  0  0  0
   -7.1726    0.1010   29.0983 N   0  0  0  0  0  0  0  0  0  0  0  0
   -5.1139   -1.2070   29.0363 N   0  0  0  0  0  0  0  0  0  0  0  0
   -4.3175   -0.3911   28.1165 C   0  0  0  0  0  0  0  0  0  0  0  0
   -8.3647    0.0683   29.6933 C   0  0  0  0  0  0  0  0  0  0  0  0
   -5.5991   -4.0505   31.2184 C   0  0  0  0  0  0  0  0  0  0  0  0
   -4.6909   -2.4021   29.6390 C   0  0  0  0  0  0  0  0  0  0  0  0
   -8.0871   -1.8863   30.8816 C   0  0  0  0  0  0  0  0  0  0  0  0
   -6.3976   -0.9334   29.4558 C   0  0  0  0  0  0  0  0  0  0  0  0
   -5.6821   -2.8709   30.4356 C   0  0  0  0  0  0  0  0  0  0  0  0
   -6.7867   -1.9587   30.3420 C   0  0  0  0  0  0  0  0  0  0  0  0
   -7.9777   -3.5887   31.9792 H   0  0  0  0  0  0  0  0  0  0  0  0
   -9.4707   -2.7203   32.1085 H   0  0  0  0  0  0  0  0  0  0  0  0
   -4.8499    0.4060   27.8317 H   0  0  0  0  0  0  0  0  0  0  0  0
   -3.4834   -0.0876   28.5771 H   0  0  0  0  0  0  0  0  0  0  0  0
   -4.0755   -0.9348   27.3128 H   0  0  0  0  0  0  0  0  0  0  0  0
   -8.9751    0.8289   29.4725 H   0  0  0  0  0  0  0  0  0  0  0  0
  1 10  1  0  0  0  0
  2  9  3  0  0  0  0
  3 11  1  0  0  0  0
  4  8  2  0  0  0  0
  4 11  1  0  0  0  0
  5  8  1  0  0  0  0
  5 12  2  0  0  0  0
  6  7  1  0  0  0  0
  6 10  1  0  0  0  0
  6 12  1  0  0  0  0
  9 13  1  0  0  0  0
 10 13  2  0  0  0  0
 11 14  2  0  0  0  0
 12 14  1  0  0  0  0
 13 14  1  0  0  0  0
  3 15  1  0  0  0  0
  3 16  1  0  0  0  0
  7 17  1  0  0  0  0
  7 18  1  0  0  0  0
  7 19  1  0  0  0  0
  8 20  1  0  0  0  0
M  END
> <pdb_id>
7A51

> <uniprot_id>
Q13627

> <usmiles>
BrC=1N(c2ncnc(N)c2C1C#N)C

$$$$
QYW_A_503
          07202416203D 1   1.00000     0.00000     0
            
 29 31  0  0  0  0            999 V2000
   -5.5755   -5.3702   32.3514 N   0  0  0  0  0  0  0  0  0  0  0  0
   -8.4418   -3.0628   31.9222 N   0  0  0  0  0  0  0  0  0  0  0  0
   -1.7597   -5.6476   29.7931 N   0  0  0  0  0  0  0  0  0  0  0  0
   -8.5851   -1.1435   30.6241 N   0  0  0  0  0  0  0  0  0  0  0  0
   -6.7720   -0.3934   29.2407 N   0  0  0  0  0  0  0  0  0  0  0  0
   -4.8323   -1.8553   29.2608 N   0  0  0  0  0  0  0  0  0  0  0  0
   -8.7675    0.9065   29.3129 C   0  0  0  0  0  0  0  0  0  0  0  0
   -0.7171   -4.9061   29.3815 C   0  0  0  0  0  0  0  0  0  0  0  0
   -5.6041   -4.4900   31.6209 C   0  0  0  0  0  0  0  0  0  0  0  0
   -2.9347   -5.0160   29.9733 C   0  0  0  0  0  0  0  0  0  0  0  0
   -0.7825   -3.5596   29.2370 C   0  0  0  0  0  0  0  0  0  0  0  0
   -2.0137   -2.9189   29.3521 C   0  0  0  0  0  0  0  0  0  0  0  0
   -7.9990   -0.2902   29.7629 C   0  0  0  0  0  0  0  0  0  0  0  0
   -7.8906   -2.2090   31.0422 C   0  0  0  0  0  0  0  0  0  0  0  0
   -6.0789   -1.4620   29.6541 C   0  0  0  0  0  0  0  0  0  0  0  0
   -4.4599   -3.0026   29.9300 C   0  0  0  0  0  0  0  0  0  0  0  0
   -3.1325   -3.6452   29.7649 C   0  0  0  0  0  0  0  0  0  0  0  0
   -5.5585   -3.3752   30.7290 C   0  0  0  0  0  0  0  0  0  0  0  0
   -6.5730   -2.3902   30.5691 C   0  0  0  0  0  0  0  0  0  0  0  0
   -7.9255   -3.8596   32.2363 H   0  0  0  0  0  0  0  0  0  0  0  0
   -9.3680   -2.9013   32.2626 H   0  0  0  0  0  0  0  0  0  0  0  0
   -4.2697   -1.3798   28.5845 H   0  0  0  0  0  0  0  0  0  0  0  0
   -8.2087    1.4432   28.6807 H   0  0  0  0  0  0  0  0  0  0  0  0
   -9.6036    0.6113   28.8505 H   0  0  0  0  0  0  0  0  0  0  0  0
   -9.0055    1.4674   30.1059 H   0  0  0  0  0  0  0  0  0  0  0  0
    0.1450   -5.3679   29.1727 H   0  0  0  0  0  0  0  0  0  0  0  0
   -3.7169   -5.5607   30.2755 H   0  0  0  0  0  0  0  0  0  0  0  0
    0.0456   -3.0314   29.0495 H   0  0  0  0  0  0  0  0  0  0  0  0
   -2.0960   -1.9451   29.1404 H   0  0  0  0  0  0  0  0  0  0  0  0
  1  9  3  0  0  0  0
  2 14  1  0  0  0  0
  3  8  2  0  0  0  0
  3 10  1  0  0  0  0
  4 13  2  0  0  0  0
  4 14  1  0  0  0  0
  5 13  1  0  0  0  0
  5 15  2  0  0  0  0
  6 15  1  0  0  0  0
  6 16  1  0  0  0  0
  7 13  1  0  0  0  0
  8 11  1  0  0  0  0
  9 18  1  0  0  0  0
 10 17  2  0  0  0  0
 11 12  2  0  0  0  0
 12 17  1  0  0  0  0
 14 19  2  0  0  0  0
 15 19  1  0  0  0  0
 16 17  1  0  0  0  0
 16 18  2  0  0  0  0
 18 19  1  0  0  0  0
  2 20  1  0  0  0  0
  2 21  1  0  0  0  0
  6 22  1  0  0  0  0
  7 23  1  0  0  0  0
  7 24  1  0  0  0  0
  7 25  1  0  0  0  0
  8 26  1  0  0  0  0
 10 27  1  0  0  0  0
 11 28  1  0  0  0  0
 12 29  1  0  0  0  0
M  END
> <pdb_id>
7A5D

> <uniprot_id>
Q13627

> <usmiles>
N#CC=1c2c(nc(nc2N)C)NC1c3cnccc3

$$$$
QZ8_A_1201
          07202414163D 1   1.00000     0.00000     0
            
 28 30  0  0  0  0            999 V2000
   53.5722  -11.8009   33.8433 O   0  0  0  0  0  0  0  0  0  0  0  0
   49.6830  -11.9852   31.2950 N   0  0  0  0  0  0  0  0  0  0  0  0
   49.3062  -11.4081   30.1690 N   0  0  0  0  0  0  0  0  0  0  0  0
   51.6429  -11.9899   32.6927 N   0  0  0  0  0  0  0  0  0  0  0  0
   50.1142   -9.8299   28.4980 C   0  0  0  0  0  0  0  0  0  0  0  0
   54.5419   -7.5724   28.1231 C   0  0  0  0  0  0  0  0  0  0  0  0
   53.8493   -8.6788   27.6517 C   0  0  0  0  0  0  0  0  0  0  0  0
   54.5875   -7.3451   29.4945 C   0  0  0  0  0  0  0  0  0  0  0  0
   53.2071   -9.5374   28.5424 C   0  0  0  0  0  0  0  0  0  0  0  0
   53.9360   -8.2034   30.3852 C   0  0  0  0  0  0  0  0  0  0  0  0
   53.3761  -10.5821   31.9089 C   0  0  0  0  0  0  0  0  0  0  0  0
   52.9057  -11.4718   32.8624 C   0  0  0  0  0  0  0  0  0  0  0  0
   50.8969  -11.5912   31.5941 C   0  0  0  0  0  0  0  0  0  0  0  0
   50.3035  -10.6369   29.7881 C   0  0  0  0  0  0  0  0  0  0  0  0
   53.2135   -9.3024   29.9164 C   0  0  0  0  0  0  0  0  0  0  0  0
   52.5903  -10.1943   30.8075 C   0  0  0  0  0  0  0  0  0  0  0  0
   51.3351  -10.7204   30.6640 C   0  0  0  0  0  0  0  0  0  0  0  0
   49.1306  -12.6213   31.8338 H   0  0  0  0  0  0  0  0  0  0  0  0
   51.2690  -12.6433   33.3509 H   0  0  0  0  0  0  0  0  0  0  0  0
   50.9362   -9.2891   28.3196 H   0  0  0  0  0  0  0  0  0  0  0  0
   49.9543  -10.4552   27.7342 H   0  0  0  0  0  0  0  0  0  0  0  0
   49.3288   -9.2192   28.5990 H   0  0  0  0  0  0  0  0  0  0  0  0
   54.9997   -6.9499   27.4883 H   0  0  0  0  0  0  0  0  0  0  0  0
   53.8109   -8.8608   26.6692 H   0  0  0  0  0  0  0  0  0  0  0  0
   55.0927   -6.5578   29.8479 H   0  0  0  0  0  0  0  0  0  0  0  0
   52.7304  -10.3415   28.1872 H   0  0  0  0  0  0  0  0  0  0  0  0
   53.9881   -8.0285   31.3684 H   0  0  0  0  0  0  0  0  0  0  0  0
   54.2975  -10.2061   32.0062 H   0  0  0  0  0  0  0  0  0  0  0  0
  1 12  2  0  0  0  0
  2  3  1  0  0  0  0
  2 13  1  0  0  0  0
  3 14  2  0  0  0  0
  4 12  1  0  0  0  0
  4 13  1  0  0  0  0
  5 14  1  0  0  0  0
  6  7  2  0  0  0  0
  6  8  1  0  0  0  0
  7  9  1  0  0  0  0
  8 10  2  0  0  0  0
  9 15  2  0  0  0  0
 10 15  1  0  0  0  0
 11 12  1  0  0  0  0
 11 16  2  0  0  0  0
 13 17  2  0  0  0  0
 14 17  1  0  0  0  0
 15 16  1  0  0  0  0
 16 17  1  0  0  0  0
  2 18  1  0  0  0  0
  4 19  1  0  0  0  0
  5 20  1  0  0  0  0
  5 21  1  0  0  0  0
  5 22  1  0  0  0  0
  6 23  1  0  0  0  0
  7 24  1  0  0  0  0
  8 25  1  0  0  0  0
  9 26  1  0  0  0  0
 10 27  1  0  0  0  0
 11 28  1  0  0  0  0
M  END
> <pdb_id>
6TPD

> <uniprot_id>
O60674

> <usmiles>
O=C1NC=2NN=C(C2C(c3ccccc3)=C1)C

$$$$
QZE_A_1211
          07202405173D 1   1.00000     0.00000     0
            
 47 51  0  0  0  0            999 V2000
   51.9460   41.8990    5.2540 O   0  0  0  0  0  0  0  0  0  0  0  0
   50.8610   42.1450    7.2660 O   0  0  0  0  0  0  0  0  0  0  0  0
   53.7210   33.2690    8.5670 O   0  0  0  0  0  0  0  0  0  0  0  0
   54.8660   36.5170    8.1290 N   0  0  0  0  0  0  0  0  0  0  0  0
   44.2440   34.2290    5.0260 N   0  0  0  0  0  0  0  0  0  0  0  0
   44.2400   33.1740    4.1060 N   0  0  0  0  0  0  0  0  0  0  0  0
   51.5520   33.1150    7.9860 N   0  0  0  0  0  0  0  0  0  0  0  0
   53.8870   35.9040    8.0300 C   0  0  0  0  0  0  0  0  0  0  0  0
   48.0670   30.7890    7.6690 C   0  0  0  0  0  0  0  0  0  0  0  0
   45.2360   33.9930    5.7810 C   0  0  0  0  0  0  0  0  0  0  0  0
   45.4160   32.2010    4.3570 C   0  0  0  0  0  0  0  0  0  0  0  0
   47.0370   31.2470    6.8890 C   0  0  0  0  0  0  0  0  0  0  0  0
   49.1680   31.5860    7.8810 C   0  0  0  0  0  0  0  0  0  0  0  0
   52.3300   39.1610    5.9430 C   0  0  0  0  0  0  0  0  0  0  0  0
   50.5690   39.4310    7.5170 C   0  0  0  0  0  0  0  0  0  0  0  0
   52.3470   37.8020    6.2120 C   0  0  0  0  0  0  0  0  0  0  0  0
   50.5950   38.0690    7.7790 C   0  0  0  0  0  0  0  0  0  0  0  0
   49.0880   35.6250    6.7620 C   0  0  0  0  0  0  0  0  0  0  0  0
   48.3170   34.6540    5.9110 C   0  0  0  0  0  0  0  0  0  0  0  0
   51.4540   41.4280    6.2770 C   0  0  0  0  0  0  0  0  0  0  0  0
   52.6960   33.8000    8.1610 C   0  0  0  0  0  0  0  0  0  0  0  0
   51.4460   39.9780    6.6020 C   0  0  0  0  0  0  0  0  0  0  0  0
   45.9790   32.9010    5.5200 C   0  0  0  0  0  0  0  0  0  0  0  0
   51.4890   37.2380    7.1270 C   0  0  0  0  0  0  0  0  0  0  0  0
   50.4020   33.6840    7.5320 C   0  0  0  0  0  0  0  0  0  0  0  0
   52.6430   35.2450    7.8520 C   0  0  0  0  0  0  0  0  0  0  0  0
   47.1170   32.4930    6.3230 C   0  0  0  0  0  0  0  0  0  0  0  0
   49.2490   32.8380    7.3240 C   0  0  0  0  0  0  0  0  0  0  0  0
   50.3400   34.9900    7.2530 C   0  0  0  0  0  0  0  0  0  0  0  0
   48.2160   33.3010    6.5360 C   0  0  0  0  0  0  0  0  0  0  0  0
   51.4980   35.8070    7.4150 C   0  0  0  0  0  0  0  0  0  0  0  0
   52.3639   41.2944    4.5759 H   0  0  0  0  0  0  0  0  0  0  0  0
   43.6066   34.9979    5.0769 H   0  0  0  0  0  0  0  0  0  0  0  0
   51.5460   32.1382    8.2003 H   0  0  0  0  0  0  0  0  0  0  0  0
   48.0182   29.8796    8.0820 H   0  0  0  0  0  0  0  0  0  0  0  0
   45.4588   34.5984    6.5451 H   0  0  0  0  0  0  0  0  0  0  0  0
   45.7003   31.3678    3.8828 H   0  0  0  0  0  0  0  0  0  0  0  0
   46.2315   30.6752    6.7337 H   0  0  0  0  0  0  0  0  0  0  0  0
   49.9193   31.2488    8.4484 H   0  0  0  0  0  0  0  0  0  0  0  0
   52.9610   39.5460    5.2695 H   0  0  0  0  0  0  0  0  0  0  0  0
   49.9134   40.0179    7.9921 H   0  0  0  0  0  0  0  0  0  0  0  0
   52.9988   37.2171    5.7292 H   0  0  0  0  0  0  0  0  0  0  0  0
   49.9596   37.6827    8.4476 H   0  0  0  0  0  0  0  0  0  0  0  0
   48.5270   35.8982    7.5434 H   0  0  0  0  0  0  0  0  0  0  0  0
   49.3175   36.4321    6.2180 H   0  0  0  0  0  0  0  0  0  0  0  0
   48.7775   34.5657    5.0277 H   0  0  0  0  0  0  0  0  0  0  0  0
   47.3940   35.0125    5.7714 H   0  0  0  0  0  0  0  0  0  0  0  0
  1 20  1  0  0  0  0
  2 20  2  0  0  0  0
  3 21  2  0  0  0  0
  4  8  3  0  0  0  0
  5  6  1  0  0  0  0
  5 10  1  0  0  0  0
  6 11  2  0  0  0  0
  7 21  1  0  0  0  0
  7 25  1  0  0  0  0
  8 26  1  0  0  0  0
  9 12  2  0  0  0  0
  9 13  1  0  0  0  0
 10 23  2  0  0  0  0
 11 23  1  0  0  0  0
 12 27  1  0  0  0  0
 13 28  2  0  0  0  0
 14 16  1  0  0  0  0
 14 22  2  0  0  0  0
 15 17  2  0  0  0  0
 15 22  1  0  0  0  0
 16 24  2  0  0  0  0
 17 24  1  0  0  0  0
 18 19  1  0  0  0  0
 18 29  1  0  0  0  0
 19 30  1  0  0  0  0
 20 22  1  0  0  0  0
 21 26  1  0  0  0  0
 23 27  1  0  0  0  0
 24 31  1  0  0  0  0
 25 28  1  0  0  0  0
 25 29  2  0  0  0  0
 26 31  2  0  0  0  0
 27 30  2  0  0  0  0
 28 30  1  0  0  0  0
 29 31  1  0  0  0  0
  1 32  1  0  0  0  0
  5 33  1  0  0  0  0
  7 34  1  0  0  0  0
  9 35  1  0  0  0  0
 10 36  1  0  0  0  0
 11 37  1  0  0  0  0
 12 38  1  0  0  0  0
 13 39  1  0  0  0  0
 14 40  1  0  0  0  0
 15 41  1  0  0  0  0
 16 42  1  0  0  0  0
 17 43  1  0  0  0  0
 18 44  1  0  0  0  0
 18 45  1  0  0  0  0
 19 46  1  0  0  0  0
 19 47  1  0  0  0  0
M  END
> <pdb_id>
4UNR

> <uniprot_id>
nan

> <usmiles>
O=C(O)c1ccc(cc1)C2=C(C#N)C(=O)NC=3c4c(c(ccc4)C=5C=NNC5)CCC32

$$$$
QZP_A_502
          07202414513D 1   1.00000     0.00000     0
            
 27 27  0  0  0  0            999 V2000
   -1.0925   13.2645  -24.2229 O   0  0  0  0  0  0  0  0  0  0  0  0
    0.1206   14.0266  -22.5319 O   0  0  0  0  0  0  0  0  0  0  0  0
   -5.7222   18.3666  -22.1222 C   0  0  0  0  0  0  0  0  0  0  0  0
   -7.9412   17.5260  -21.3880 C   0  0  0  0  0  0  0  0  0  0  0  0
   -4.6557   14.6445  -22.6017 C   0  0  0  0  0  0  0  0  0  0  0  0
   -3.3916   15.8859  -20.9519 C   0  0  0  0  0  0  0  0  0  0  0  0
   -3.4690   14.1105  -23.1002 C   0  0  0  0  0  0  0  0  0  0  0  0
   -2.1984   15.3588  -21.4533 C   0  0  0  0  0  0  0  0  0  0  0  0
   -5.9466   16.0757  -20.9899 C   0  0  0  0  0  0  0  0  0  0  0  0
   -0.9889   13.8839  -23.1247 C   0  0  0  0  0  0  0  0  0  0  0  0
   -6.5807   17.0986  -21.9319 C   0  0  0  0  0  0  0  0  0  0  0  0
   -4.6147   15.5263  -21.5256 C   0  0  0  0  0  0  0  0  0  0  0  0
   -2.2546   14.4712  -22.5213 C   0  0  0  0  0  0  0  0  0  0  0  0
   -1.9860   13.1716  -24.6623 H   0  0  0  0  0  0  0  0  0  0  0  0
   -4.8237   18.1105  -22.4788 H   0  0  0  0  0  0  0  0  0  0  0  0
   -6.1744   18.9814  -22.7684 H   0  0  0  0  0  0  0  0  0  0  0  0
   -5.6122   18.8297  -21.2428 H   0  0  0  0  0  0  0  0  0  0  0  0
   -8.5162   16.7185  -21.2563 H   0  0  0  0  0  0  0  0  0  0  0  0
   -7.8183   17.9939  -20.5128 H   0  0  0  0  0  0  0  0  0  0  0  0
   -8.3805   18.1456  -22.0384 H   0  0  0  0  0  0  0  0  0  0  0  0
   -5.5318   14.3957  -23.0148 H   0  0  0  0  0  0  0  0  0  0  0  0
   -3.3705   16.5220  -20.1806 H   0  0  0  0  0  0  0  0  0  0  0  0
   -3.4892   13.4718  -23.8694 H   0  0  0  0  0  0  0  0  0  0  0  0
   -1.3198   15.6158  -21.0509 H   0  0  0  0  0  0  0  0  0  0  0  0
   -6.5826   15.3134  -20.8698 H   0  0  0  0  0  0  0  0  0  0  0  0
   -5.7805   16.5136  -20.1064 H   0  0  0  0  0  0  0  0  0  0  0  0
   -6.7155   16.6685  -22.8246 H   0  0  0  0  0  0  0  0  0  0  0  0
  1 10  1  0  0  0  0
  2 10  2  0  0  0  0
  3 11  1  0  0  0  0
  4 11  1  0  0  0  0
  5  7  1  0  0  0  0
  5 12  2  0  0  0  0
  6  8  2  0  0  0  0
  6 12  1  0  0  0  0
  7 13  2  0  0  0  0
  8 13  1  0  0  0  0
  9 11  1  0  0  0  0
  9 12  1  0  0  0  0
 10 13  1  0  0  0  0
  1 14  1  0  0  0  0
  3 15  1  0  0  0  0
  3 16  1  0  0  0  0
  3 17  1  0  0  0  0
  4 18  1  0  0  0  0
  4 19  1  0  0  0  0
  4 20  1  0  0  0  0
  5 21  1  0  0  0  0
  6 22  1  0  0  0  0
  7 23  1  0  0  0  0
  8 24  1  0  0  0  0
  9 25  1  0  0  0  0
  9 26  1  0  0  0  0
 11 27  1  0  0  0  0
M  END
> <pdb_id>
6VJX

> <uniprot_id>
Q2IU02

> <usmiles>
O=C(O)c1ccc(cc1)CC(C)C

$$$$
QZW_A_501
          07202416203D 1   1.00000     0.00000     0
            
 39 42  0  0  0  0            999 V2000
   -1.6063   -1.9158   25.6333 S   0  0  0  0  0  0  0  0  0  0  0  0
   -4.8619   -1.5264   29.0998 O   0  0  0  0  0  0  0  0  0  0  0  0
   -3.6365   -7.1141   32.6202 N   0  0  0  0  0  0  0  0  0  0  0  0
   -2.9489   -6.0349   30.7356 N   0  0  0  0  0  0  0  0  0  0  0  0
   -8.5107   -2.8752   31.5565 N   0  0  0  0  0  0  0  0  0  0  0  0
   -6.7255   -0.1602   29.1677 N   0  0  0  0  0  0  0  0  0  0  0  0
   -8.6729   -0.7682   30.3993 N   0  0  0  0  0  0  0  0  0  0  0  0
   -8.6576    1.3210   29.2096 C   0  0  0  0  0  0  0  0  0  0  0  0
   -1.0777   -2.3017   27.1760 C   0  0  0  0  0  0  0  0  0  0  0  0
   -2.9756   -1.1018   26.2101 C   0  0  0  0  0  0  0  0  0  0  0  0
   -4.2121   -0.5185   28.3009 C   0  0  0  0  0  0  0  0  0  0  0  0
   -3.1416   -5.0640   29.8356 C   0  0  0  0  0  0  0  0  0  0  0  0
   -7.5423   -3.8532   31.6473 C   0  0  0  0  0  0  0  0  0  0  0  0
   -1.9620   -1.8853   28.1094 C   0  0  0  0  0  0  0  0  0  0  0  0
   -4.2405   -4.2231   29.8640 C   0  0  0  0  0  0  0  0  0  0  0  0
   -4.9955   -5.3739   31.7897 C   0  0  0  0  0  0  0  0  0  0  0  0
   -6.0956   -1.2656   29.5363 C   0  0  0  0  0  0  0  0  0  0  0  0
   -3.8705   -6.1839   31.6951 C   0  0  0  0  0  0  0  0  0  0  0  0
   -7.9698    0.0658   29.6208 C   0  0  0  0  0  0  0  0  0  0  0  0
   -8.0314   -1.8840   30.7635 C   0  0  0  0  0  0  0  0  0  0  0  0
   -3.0707   -1.1587   27.5770 C   0  0  0  0  0  0  0  0  0  0  0  0
   -5.1870   -4.3500   30.8726 C   0  0  0  0  0  0  0  0  0  0  0  0
   -6.4112   -3.5103   30.9427 C   0  0  0  0  0  0  0  0  0  0  0  0
   -6.7034   -2.2109   30.3731 C   0  0  0  0  0  0  0  0  0  0  0  0
   -4.2955   -7.2630   33.3575 H   0  0  0  0  0  0  0  0  0  0  0  0
   -2.8019   -7.6633   32.5772 H   0  0  0  0  0  0  0  0  0  0  0  0
   -9.4081   -2.8935   31.9974 H   0  0  0  0  0  0  0  0  0  0  0  0
   -9.5688    1.3517   29.6204 H   0  0  0  0  0  0  0  0  0  0  0  0
   -8.1258    2.1093   29.5191 H   0  0  0  0  0  0  0  0  0  0  0  0
   -8.7401    1.3450   28.2133 H   0  0  0  0  0  0  0  0  0  0  0  0
   -0.2216   -2.7770   27.3790 H   0  0  0  0  0  0  0  0  0  0  0  0
   -3.6367   -0.6348   25.6229 H   0  0  0  0  0  0  0  0  0  0  0  0
   -3.8708    0.2131   28.8911 H   0  0  0  0  0  0  0  0  0  0  0  0
   -4.8611   -0.1392   27.6413 H   0  0  0  0  0  0  0  0  0  0  0  0
   -2.4629   -4.9406   29.1117 H   0  0  0  0  0  0  0  0  0  0  0  0
   -7.6488   -4.7047   32.1607 H   0  0  0  0  0  0  0  0  0  0  0  0
   -1.8500   -2.0694   29.0859 H   0  0  0  0  0  0  0  0  0  0  0  0
   -4.3531   -3.5238   29.1580 H   0  0  0  0  0  0  0  0  0  0  0  0
   -5.6651   -5.5281   32.5163 H   0  0  0  0  0  0  0  0  0  0  0  0
  1  9  1  0  0  0  0
  1 10  1  0  0  0  0
  2 11  1  0  0  0  0
  2 17  1  0  0  0  0
  3 18  1  0  0  0  0
  4 12  1  0  0  0  0
  4 18  2  0  0  0  0
  5 13  1  0  0  0  0
  5 20  1  0  0  0  0
  6 17  1  0  0  0  0
  6 19  2  0  0  0  0
  7 19  1  0  0  0  0
  7 20  2  0  0  0  0
  8 19  1  0  0  0  0
  9 14  2  0  0  0  0
 10 21  2  0  0  0  0
 11 21  1  0  0  0  0
 12 15  2  0  0  0  0
 13 23  2  0  0  0  0
 14 21  1  0  0  0  0
 15 22  1  0  0  0  0
 16 18  1  0  0  0  0
 16 22  2  0  0  0  0
 17 24  2  0  0  0  0
 20 24  1  0  0  0  0
 22 23  1  0  0  0  0
 23 24  1  0  0  0  0
  3 25  1  0  0  0  0
  3 26  1  0  0  0  0
  5 27  1  0  0  0  0
  8 28  1  0  0  0  0
  8 29  1  0  0  0  0
  8 30  1  0  0  0  0
  9 31  1  0  0  0  0
 10 32  1  0  0  0  0
 11 33  1  0  0  0  0
 11 34  1  0  0  0  0
 12 35  1  0  0  0  0
 13 36  1  0  0  0  0
 14 37  1  0  0  0  0
 15 38  1  0  0  0  0
 16 39  1  0  0  0  0
M  END
> <pdb_id>
7A5L

> <uniprot_id>
Q13627

> <usmiles>
S1C=C(C=C1)COc2nc(nc3NC=C(c23)c4cc(ncc4)N)C

$$$$
QZZ_A_1210
          07202405173D 1   1.00000     0.00000     0
            
 40 42  0  0  0  0            999 V2000
   51.8608   42.5029    6.2554 O   0  0  0  0  0  0  0  0  0  0  0  0
   49.7357   41.9671    6.1106 O   0  0  0  0  0  0  0  0  0  0  0  0
   53.9373   33.4376    8.7542 O   0  0  0  0  0  0  0  0  0  0  0  0
   46.2261   32.9119    5.6976 O   0  0  0  0  0  0  0  0  0  0  0  0
   55.1162   36.6468    8.1267 N   0  0  0  0  0  0  0  0  0  0  0  0
   51.7507   33.3319    8.2014 N   0  0  0  0  0  0  0  0  0  0  0  0
   46.3033   34.1084    4.9285 C   0  0  0  0  0  0  0  0  0  0  0  0
   54.0957   36.1353    8.1020 C   0  0  0  0  0  0  0  0  0  0  0  0
   48.4218   30.7641    7.6525 C   0  0  0  0  0  0  0  0  0  0  0  0
   47.3524   31.1833    6.8917 C   0  0  0  0  0  0  0  0  0  0  0  0
   49.4552   31.6398    7.9738 C   0  0  0  0  0  0  0  0  0  0  0  0
   50.2923   39.5390    7.3963 C   0  0  0  0  0  0  0  0  0  0  0  0
   52.3226   39.5152    6.1343 C   0  0  0  0  0  0  0  0  0  0  0  0
   50.4648   38.1967    7.6856 C   0  0  0  0  0  0  0  0  0  0  0  0
   52.4986   38.1506    6.4265 C   0  0  0  0  0  0  0  0  0  0  0  0
   48.3241   33.3750    6.7707 C   0  0  0  0  0  0  0  0  0  0  0  0
   50.5212   35.2008    7.4204 C   0  0  0  0  0  0  0  0  0  0  0  0
   50.9832   41.6635    6.3129 C   0  0  0  0  0  0  0  0  0  0  0  0
   52.9385   34.0267    8.3423 C   0  0  0  0  0  0  0  0  0  0  0  0
   47.3017   32.4939    6.4624 C   0  0  0  0  0  0  0  0  0  0  0  0
   50.5388   33.8789    7.7645 C   0  0  0  0  0  0  0  0  0  0  0  0
   51.2117   40.2148    6.6223 C   0  0  0  0  0  0  0  0  0  0  0  0
   51.5621   37.4742    7.2144 C   0  0  0  0  0  0  0  0  0  0  0  0
   49.4103   32.9584    7.5455 C   0  0  0  0  0  0  0  0  0  0  0  0
   52.8755   35.4240    7.9948 C   0  0  0  0  0  0  0  0  0  0  0  0
   51.6781   36.0107    7.5274 C   0  0  0  0  0  0  0  0  0  0  0  0
   52.8130   42.2425    6.4153 H   0  0  0  0  0  0  0  0  0  0  0  0
   51.7585   32.3585    8.4305 H   0  0  0  0  0  0  0  0  0  0  0  0
   45.4396   34.2500    4.4448 H   0  0  0  0  0  0  0  0  0  0  0  0
   46.4765   34.8841    5.5353 H   0  0  0  0  0  0  0  0  0  0  0  0
   47.0478   34.0310    4.2655 H   0  0  0  0  0  0  0  0  0  0  0  0
   48.4561   29.8191    7.9779 H   0  0  0  0  0  0  0  0  0  0  0  0
   46.6208   30.5447    6.6532 H   0  0  0  0  0  0  0  0  0  0  0  0
   50.2320   31.3174    8.5147 H   0  0  0  0  0  0  0  0  0  0  0  0
   49.4931   40.0235    7.7520 H   0  0  0  0  0  0  0  0  0  0  0  0
   52.9984   39.9913    5.5718 H   0  0  0  0  0  0  0  0  0  0  0  0
   49.7829   37.7304    8.2492 H   0  0  0  0  0  0  0  0  0  0  0  0
   53.2954   37.6629    6.0697 H   0  0  0  0  0  0  0  0  0  0  0  0
   48.2852   34.3167    6.4366 H   0  0  0  0  0  0  0  0  0  0  0  0
   49.6710   35.6064    7.0849 H   0  0  0  0  0  0  0  0  0  0  0  0
  1 18  1  0  0  0  0
  2 18  2  0  0  0  0
  3 19  2  0  0  0  0
  4  7  1  0  0  0  0
  4 20  1  0  0  0  0
  5  8  3  0  0  0  0
  6 19  1  0  0  0  0
  6 21  1  0  0  0  0
  8 25  1  0  0  0  0
  9 10  2  0  0  0  0
  9 11  1  0  0  0  0
 10 20  1  0  0  0  0
 11 24  2  0  0  0  0
 12 14  1  0  0  0  0
 12 22  2  0  0  0  0
 13 15  2  0  0  0  0
 13 22  1  0  0  0  0
 14 23  2  0  0  0  0
 15 23  1  0  0  0  0
 16 20  2  0  0  0  0
 16 24  1  0  0  0  0
 17 21  2  0  0  0  0
 17 26  1  0  0  0  0
 18 22  1  0  0  0  0
 19 25  1  0  0  0  0
 21 24  1  0  0  0  0
 23 26  1  0  0  0  0
 25 26  2  0  0  0  0
  1 27  1  0  0  0  0
  6 28  1  0  0  0  0
  7 29  1  0  0  0  0
  7 30  1  0  0  0  0
  7 31  1  0  0  0  0
  9 32  1  0  0  0  0
 10 33  1  0  0  0  0
 11 34  1  0  0  0  0
 12 35  1  0  0  0  0
 13 36  1  0  0  0  0
 14 37  1  0  0  0  0
 15 38  1  0  0  0  0
 16 39  1  0  0  0  0
 17 40  1  0  0  0  0
M  END
> <pdb_id>
4UNN

> <uniprot_id>
F2GKC3

> <usmiles>
O=C(O)c1ccc(cc1)C2=C(C#N)C(=O)NC(c3cc(OC)ccc3)=C2

$$$$
R05_A_501
          07202416203D 1   1.00000     0.00000     0
            
 43 46  0  0  0  0            999 V2000
   -1.9865   -1.9610   30.0877 F   0  0  0  0  0  0  0  0  0  0  0  0
   -3.6562   -0.2356   26.0672 F   0  0  0  0  0  0  0  0  0  0  0  0
   -3.6773   -7.1119   32.8106 N   0  0  0  0  0  0  0  0  0  0  0  0
   -3.1154   -6.1723   30.7814 N   0  0  0  0  0  0  0  0  0  0  0  0
   -4.9041   -1.5618   29.2602 N   0  0  0  0  0  0  0  0  0  0  0  0
   -8.5236   -2.9161   31.7948 N   0  0  0  0  0  0  0  0  0  0  0  0
   -6.7148   -0.1795   29.4403 N   0  0  0  0  0  0  0  0  0  0  0  0
   -8.6251   -0.7570   30.7005 N   0  0  0  0  0  0  0  0  0  0  0  0
   -8.5821    1.3784   29.5616 C   0  0  0  0  0  0  0  0  0  0  0  0
   -3.3962   -5.2847   29.8194 C   0  0  0  0  0  0  0  0  0  0  0  0
   -4.0217   -0.4996   28.8480 C   0  0  0  0  0  0  0  0  0  0  0  0
   -7.5934   -3.9195   31.8530 C   0  0  0  0  0  0  0  0  0  0  0  0
   -0.6663   -2.1193   26.7466 C   0  0  0  0  0  0  0  0  0  0  0  0
   -4.4692   -4.4185   29.8851 C   0  0  0  0  0  0  0  0  0  0  0  0
   -0.7771   -2.3262   28.0958 C   0  0  0  0  0  0  0  0  0  0  0  0
   -1.6222   -1.4066   26.0522 C   0  0  0  0  0  0  0  0  0  0  0  0
   -5.0402   -5.3922   31.9925 C   0  0  0  0  0  0  0  0  0  0  0  0
   -3.9443   -6.2252   31.8638 C   0  0  0  0  0  0  0  0  0  0  0  0
   -7.9384    0.0752   29.9190 C   0  0  0  0  0  0  0  0  0  0  0  0
   -1.8655   -1.7980   28.7487 C   0  0  0  0  0  0  0  0  0  0  0  0
   -2.7000   -0.9149   26.7404 C   0  0  0  0  0  0  0  0  0  0  0  0
   -6.1027   -1.3415   29.7495 C   0  0  0  0  0  0  0  0  0  0  0  0
   -8.0244   -1.9127   31.0246 C   0  0  0  0  0  0  0  0  0  0  0  0
   -5.3049   -4.4613   30.9967 C   0  0  0  0  0  0  0  0  0  0  0  0
   -2.8417   -1.0659   28.1014 C   0  0  0  0  0  0  0  0  0  0  0  0
   -6.4848   -3.5958   31.1229 C   0  0  0  0  0  0  0  0  0  0  0  0
   -6.7396   -2.2874   30.5780 C   0  0  0  0  0  0  0  0  0  0  0  0
   -4.2659   -7.1755   33.6165 H   0  0  0  0  0  0  0  0  0  0  0  0
   -2.8870   -7.7179   32.7196 H   0  0  0  0  0  0  0  0  0  0  0  0
   -4.5902   -2.5070   29.1699 H   0  0  0  0  0  0  0  0  0  0  0  0
   -9.4178   -2.9205   32.2425 H   0  0  0  0  0  0  0  0  0  0  0  0
   -9.4861    1.4311   29.9859 H   0  0  0  0  0  0  0  0  0  0  0  0
   -8.0143    2.1324   29.8921 H   0  0  0  0  0  0  0  0  0  0  0  0
   -8.6760    1.4425   28.5681 H   0  0  0  0  0  0  0  0  0  0  0  0
   -2.8015   -5.2474   29.0164 H   0  0  0  0  0  0  0  0  0  0  0  0
   -3.6968   -0.0075   29.6556 H   0  0  0  0  0  0  0  0  0  0  0  0
   -4.5190    0.1304   28.2514 H   0  0  0  0  0  0  0  0  0  0  0  0
   -7.7097   -4.7731   32.3608 H   0  0  0  0  0  0  0  0  0  0  0  0
    0.1216   -2.4915   26.2559 H   0  0  0  0  0  0  0  0  0  0  0  0
   -4.6433   -3.7697   29.1444 H   0  0  0  0  0  0  0  0  0  0  0  0
   -0.0842   -2.8481   28.5933 H   0  0  0  0  0  0  0  0  0  0  0  0
   -1.5303   -1.2524   25.0684 H   0  0  0  0  0  0  0  0  0  0  0  0
   -5.6354   -5.4593   32.7933 H   0  0  0  0  0  0  0  0  0  0  0  0
  1 20  1  0  0  0  0
  2 21  1  0  0  0  0
  3 18  1  0  0  0  0
  4 10  1  0  0  0  0
  4 18  2  0  0  0  0
  5 11  1  0  0  0  0
  5 22  1  0  0  0  0
  6 12  1  0  0  0  0
  6 23  1  0  0  0  0
  7 19  2  0  0  0  0
  7 22  1  0  0  0  0
  8 19  1  0  0  0  0
  8 23  2  0  0  0  0
  9 19  1  0  0  0  0
 10 14  2  0  0  0  0
 11 25  1  0  0  0  0
 12 26  2  0  0  0  0
 13 15  2  0  0  0  0
 13 16  1  0  0  0  0
 14 24  1  0  0  0  0
 15 20  1  0  0  0  0
 16 21  2  0  0  0  0
 17 18  1  0  0  0  0
 17 24  2  0  0  0  0
 20 25  2  0  0  0  0
 21 25  1  0  0  0  0
 22 27  2  0  0  0  0
 23 27  1  0  0  0  0
 24 26  1  0  0  0  0
 26 27  1  0  0  0  0
  3 28  1  0  0  0  0
  3 29  1  0  0  0  0
  5 30  1  0  0  0  0
  6 31  1  0  0  0  0
  9 32  1  0  0  0  0
  9 33  1  0  0  0  0
  9 34  1  0  0  0  0
 10 35  1  0  0  0  0
 11 36  1  0  0  0  0
 11 37  1  0  0  0  0
 12 38  1  0  0  0  0
 13 39  1  0  0  0  0
 14 40  1  0  0  0  0
 15 41  1  0  0  0  0
 16 42  1  0  0  0  0
 17 43  1  0  0  0  0
M  END
> <pdb_id>
7A5N

> <uniprot_id>
Q13627

> <usmiles>
Fc1c(c(F)ccc1)CNc2nc(nc3NC=C(c32)c4cc(ncc4)N)C

$$$$
R13_A_200
          07202410543D 1   1.00000     0.00000     0
            
 55 56  0  0  0  0            999 V2000
  -23.1284   -3.0360   12.8136 O   0  0  0  0  0  0  0  0  0  0  0  0
  -21.4277   -2.1507   11.7813 O   0  0  0  0  0  0  0  0  0  0  0  0
  -23.8691   -0.2599   14.3066 C   0  0  0  0  0  0  0  0  0  0  0  0
  -23.8117    2.9804   18.2291 C   0  0  0  0  0  0  0  0  0  0  0  0
  -17.9297    5.3597   22.4382 C   0  0  0  0  0  0  0  0  0  0  0  0
  -18.6360    3.5349   23.9294 C   0  0  0  0  0  0  0  0  0  0  0  0
  -22.3073    7.0000   21.1402 C   0  0  0  0  0  0  0  0  0  0  0  0
  -23.0867    5.6096   23.0236 C   0  0  0  0  0  0  0  0  0  0  0  0
  -22.5058    0.8380   16.6847 C   0  0  0  0  0  0  0  0  0  0  0  0
  -21.8621   -0.1259   15.9235 C   0  0  0  0  0  0  0  0  0  0  0  0
  -21.8770    1.3865   17.7928 C   0  0  0  0  0  0  0  0  0  0  0  0
  -20.3304    2.3652   20.0886 C   0  0  0  0  0  0  0  0  0  0  0  0
  -19.5732    2.9070   21.1510 C   0  0  0  0  0  0  0  0  0  0  0  0
  -21.7096   -1.6310   14.0500 C   0  0  0  0  0  0  0  0  0  0  0  0
  -22.0464    4.1040   20.4123 C   0  0  0  0  0  0  0  0  0  0  0  0
  -19.9591    5.6379   23.9108 C   0  0  0  0  0  0  0  0  0  0  0  0
  -20.7938    6.6582   23.0719 C   0  0  0  0  0  0  0  0  0  0  0  0
  -22.1094   -2.3180   12.8111 C   0  0  0  0  0  0  0  0  0  0  0  0
  -22.4474   -0.6871   14.7755 C   0  0  0  0  0  0  0  0  0  0  0  0
  -22.4143    2.3926   18.5411 C   0  0  0  0  0  0  0  0  0  0  0  0
  -21.5661    2.9632   19.7216 C   0  0  0  0  0  0  0  0  0  0  0  0
  -20.0289    4.0693   21.8589 C   0  0  0  0  0  0  0  0  0  0  0  0
  -21.2978    4.6856   21.4710 C   0  0  0  0  0  0  0  0  0  0  0  0
  -19.1541    4.6556   23.0251 C   0  0  0  0  0  0  0  0  0  0  0  0
  -21.8587    5.9713   22.1855 C   0  0  0  0  0  0  0  0  0  0  0  0
  -23.6562   -3.1521   13.6550 H   0  0  0  0  0  0  0  0  0  0  0  0
  -24.1124   -0.7642   13.4781 H   0  0  0  0  0  0  0  0  0  0  0  0
  -24.5325   -0.4622   15.0270 H   0  0  0  0  0  0  0  0  0  0  0  0
  -23.8756    0.7213   14.1135 H   0  0  0  0  0  0  0  0  0  0  0  0
  -24.0237    3.7031   18.8870 H   0  0  0  0  0  0  0  0  0  0  0  0
  -23.8146    3.3604   17.3041 H   0  0  0  0  0  0  0  0  0  0  0  0
  -24.4996    2.2576   18.2948 H   0  0  0  0  0  0  0  0  0  0  0  0
  -18.2278    6.1023   21.8384 H   0  0  0  0  0  0  0  0  0  0  0  0
  -17.3727    5.7334   23.1798 H   0  0  0  0  0  0  0  0  0  0  0  0
  -17.3881    4.7037   21.9125 H   0  0  0  0  0  0  0  0  0  0  0  0
  -19.4102    3.0484   24.3341 H   0  0  0  0  0  0  0  0  0  0  0  0
  -18.0873    2.8972   23.3888 H   0  0  0  0  0  0  0  0  0  0  0  0
  -18.0719    3.9270   24.6561 H   0  0  0  0  0  0  0  0  0  0  0  0
  -21.5265    7.2602   20.5721 H   0  0  0  0  0  0  0  0  0  0  0  0
  -23.0203    6.6005   20.5640 H   0  0  0  0  0  0  0  0  0  0  0  0
  -22.6675    7.8100   21.6029 H   0  0  0  0  0  0  0  0  0  0  0  0
  -22.8300    4.9379   23.7185 H   0  0  0  0  0  0  0  0  0  0  0  0
  -23.4400    6.4320   23.4695 H   0  0  0  0  0  0  0  0  0  0  0  0
  -23.7928    5.2225   22.4306 H   0  0  0  0  0  0  0  0  0  0  0  0
  -23.4260    1.1386   16.4340 H   0  0  0  0  0  0  0  0  0  0  0  0
  -20.9513   -0.4318   16.2006 H   0  0  0  0  0  0  0  0  0  0  0  0
  -20.9827    1.0254   18.0570 H   0  0  0  0  0  0  0  0  0  0  0  0
  -19.9971    1.5617   19.5953 H   0  0  0  0  0  0  0  0  0  0  0  0
  -18.7098    2.4757   21.4128 H   0  0  0  0  0  0  0  0  0  0  0  0
  -20.8086   -1.8650   14.4153 H   0  0  0  0  0  0  0  0  0  0  0  0
  -22.9243    4.5052   20.1509 H   0  0  0  0  0  0  0  0  0  0  0  0
  -20.5834    5.1110   24.4875 H   0  0  0  0  0  0  0  0  0  0  0  0
  -19.3199    6.1455   24.4886 H   0  0  0  0  0  0  0  0  0  0  0  0
  -20.1711    7.1734   22.4829 H   0  0  0  0  0  0  0  0  0  0  0  0
  -21.2555    7.2859   23.6986 H   0  0  0  0  0  0  0  0  0  0  0  0
  1 18  1  0  0  0  0
  2 18  2  0  0  0  0
  3 19  1  0  0  0  0
  4 20  1  0  0  0  0
  5 24  1  0  0  0  0
  6 24  1  0  0  0  0
  7 25  1  0  0  0  0
  8 25  1  0  0  0  0
  9 10  2  0  0  0  0
  9 11  1  0  0  0  0
 10 19  1  0  0  0  0
 11 20  2  0  0  0  0
 12 13  1  0  0  0  0
 12 21  2  0  0  0  0
 13 22  2  0  0  0  0
 14 18  1  0  0  0  0
 14 19  2  0  0  0  0
 15 21  1  0  0  0  0
 15 23  2  0  0  0  0
 16 17  1  0  0  0  0
 16 24  1  0  0  0  0
 17 25  1  0  0  0  0
 20 21  1  0  0  0  0
 22 23  1  0  0  0  0
 22 24  1  0  0  0  0
 23 25  1  0  0  0  0
  1 26  1  0  0  0  0
  3 27  1  0  0  0  0
  3 28  1  0  0  0  0
  3 29  1  0  0  0  0
  4 30  1  0  0  0  0
  4 31  1  0  0  0  0
  4 32  1  0  0  0  0
  5 33  1  0  0  0  0
  5 34  1  0  0  0  0
  5 35  1  0  0  0  0
  6 36  1  0  0  0  0
  6 37  1  0  0  0  0
  6 38  1  0  0  0  0
  7 39  1  0  0  0  0
  7 40  1  0  0  0  0
  7 41  1  0  0  0  0
  8 42  1  0  0  0  0
  8 43  1  0  0  0  0
  8 44  1  0  0  0  0
  9 45  1  0  0  0  0
 10 46  1  0  0  0  0
 11 47  1  0  0  0  0
 12 48  1  0  0  0  0
 13 49  1  0  0  0  0
 14 50  1  0  0  0  0
 15 51  1  0  0  0  0
 16 52  1  0  0  0  0
 16 53  1  0  0  0  0
 17 54  1  0  0  0  0
 17 55  1  0  0  0  0
M  END
> <pdb_id>
2CBS

> <uniprot_id>
P29373

> <usmiles>
O=C(O)/C=C(/C=C/C=C(/c1cc2c(cc1)C(CCC2(C)C)(C)C)\C)\C

$$$$
R18_A_1001
          07202400533D 1   1.00000     0.00000     0
            
 45 48  0  0  0  0            999 V2000
   24.3192    7.5944    3.5482 O   0  0  0  0  0  0  0  0  0  0  0  0
   30.7290   -1.3021    3.8426 O   0  0  0  0  0  0  0  0  0  0  0  0
   29.5704   -0.5146    1.8152 C   0  0  0  0  0  0  0  0  0  0  0  0
   29.0964    0.2509    5.6907 C   0  0  0  0  0  0  0  0  0  0  0  0
   26.5250    6.7823    4.0437 C   0  0  0  0  0  0  0  0  0  0  0  0
   24.5172    2.8365    4.5929 C   0  0  0  0  0  0  0  0  0  0  0  0
   27.3506    5.5775    3.6028 C   0  0  0  0  0  0  0  0  0  0  0  0
   25.2629    1.6875    3.8999 C   0  0  0  0  0  0  0  0  0  0  0  0
   28.8944    2.9963    3.7894 C   0  0  0  0  0  0  0  0  0  0  0  0
   27.0289   -0.9375    3.9259 C   0  0  0  0  0  0  0  0  0  0  0  0
   24.4798    5.3393    4.1831 C   0  0  0  0  0  0  0  0  0  0  0  0
   28.3383   -1.7232    3.6251 C   0  0  0  0  0  0  0  0  0  0  0  0
   29.6404    1.8752    3.8509 C   0  0  0  0  0  0  0  0  0  0  0  0
   25.0375    6.6471    3.8675 C   0  0  0  0  0  0  0  0  0  0  0  0
   25.2119    4.1803    4.2390 C   0  0  0  0  0  0  0  0  0  0  0  0
   26.7031    4.1842    3.9360 C   0  0  0  0  0  0  0  0  0  0  0  0
   27.4201    3.0440    3.9962 C   0  0  0  0  0  0  0  0  0  0  0  0
   26.7426    1.6657    4.3246 C   0  0  2  0  0  0  0  0  0  0  0  0
   27.5522    0.5095    3.6545 C   0  0  1  0  0  0  0  0  0  0  0  0
   29.5228   -0.7068    3.3112 C   0  0  1  0  0  0  0  0  0  0  0  0
   29.0389    0.5090    4.1216 C   0  0  2  0  0  0  0  0  0  0  0  0
   30.6413   -1.4052    4.8334 H   0  0  0  0  0  0  0  0  0  0  0  0
   28.7142   -0.1015    1.5048 H   0  0  0  0  0  0  0  0  0  0  0  0
   30.3346    0.0861    1.5804 H   0  0  0  0  0  0  0  0  0  0  0  0
   29.6938   -1.4010    1.3690 H   0  0  0  0  0  0  0  0  0  0  0  0
   28.7046   -0.6460    5.8955 H   0  0  0  0  0  0  0  0  0  0  0  0
   30.0476    0.2772    5.9981 H   0  0  0  0  0  0  0  0  0  0  0  0
   28.5733    0.9593    6.1644 H   0  0  0  0  0  0  0  0  0  0  0  0
   26.8275    7.5740    3.5129 H   0  0  0  0  0  0  0  0  0  0  0  0
   26.7071    6.9422    5.0139 H   0  0  0  0  0  0  0  0  0  0  0  0
   24.5377    2.6997    5.5833 H   0  0  0  0  0  0  0  0  0  0  0  0
   23.5681    2.8573    4.2788 H   0  0  0  0  0  0  0  0  0  0  0  0
   28.2398    5.6251    4.0579 H   0  0  0  0  0  0  0  0  0  0  0  0
   27.4794    5.6329    2.6127 H   0  0  0  0  0  0  0  0  0  0  0  0
   25.2074    1.8104    2.9090 H   0  0  0  0  0  0  0  0  0  0  0  0
   24.8358    0.8193    4.1525 H   0  0  0  0  0  0  0  0  0  0  0  0
   29.3639    3.8566    3.5910 H   0  0  0  0  0  0  0  0  0  0  0  0
   26.7277   -1.0570    4.8719 H   0  0  0  0  0  0  0  0  0  0  0  0
   26.2871   -1.1915    3.3052 H   0  0  0  0  0  0  0  0  0  0  0  0
   23.4993    5.2824    4.3714 H   0  0  0  0  0  0  0  0  0  0  0  0
   28.1936   -2.3176    2.8341 H   0  0  0  0  0  0  0  0  0  0  0  0
   28.5809   -2.2793    4.4200 H   0  0  0  0  0  0  0  0  0  0  0  0
   30.6282    1.9468    3.7128 H   0  0  0  0  0  0  0  0  0  0  0  0
   26.7774    1.5330    5.3151 H   0  0  0  0  0  0  0  0  0  0  0  0
   27.5410    0.6597    2.6659 H   0  0  0  0  0  0  0  0  0  0  0  0
  1 14  2  0  0  0  0
  2 20  1  0  0  0  0
  3 20  1  0  0  0  0
  4 21  1  0  0  0  0
  5  7  1  0  0  0  0
  5 14  1  0  0  0  0
  6  8  1  0  0  0  0
  6 15  1  0  0  0  0
  7 16  1  0  0  0  0
  8 18  1  0  0  0  0
  9 13  2  0  0  0  0
  9 17  1  0  0  0  0
 10 12  1  0  0  0  0
 10 19  1  0  0  0  0
 11 14  1  0  0  0  0
 11 15  2  0  0  0  0
 12 20  1  0  0  0  0
 13 21  1  0  0  0  0
 15 16  1  0  0  0  0
 16 17  2  0  0  0  0
 17 18  1  0  0  0  0
 18 19  1  0  0  0  0
 19 21  1  0  0  0  0
 20 21  1  0  0  0  0
  2 22  1  0  0  0  0
  3 23  1  0  0  0  0
  3 24  1  0  0  0  0
  3 25  1  0  0  0  0
  4 26  1  0  0  0  0
  4 27  1  0  0  0  0
  4 28  1  0  0  0  0
  5 29  1  0  0  0  0
  5 30  1  0  0  0  0
  6 31  1  0  0  0  0
  6 32  1  0  0  0  0
  7 33  1  0  0  0  0
  7 34  1  0  0  0  0
  8 35  1  0  0  0  0
  8 36  1  0  0  0  0
  9 37  1  0  0  0  0
 10 38  1  0  0  0  0
 10 39  1  0  0  0  0
 11 40  1  0  0  0  0
 12 41  1  0  0  0  0
 12 42  1  0  0  0  0
 13 43  1  0  0  0  0
 18 44  1  0  0  0  0
 19 45  1  0  0  0  0
M  END
> <pdb_id>
1XOW

> <uniprot_id>
P10275

> <usmiles>
O=C1C=C2C(=C3C=C[C@@]4([C@@](O)(CC[C@H]4[C@@H]3CC2)C)C)CC1

$$$$
R4P_A_401
          07212403373D 1   1.00000     0.00000     0
            
 43 46  0  0  0  0            999 V2000
   33.6835  -15.0767  -26.6298 O   0  0  0  0  0  0  0  0  0  0  0  0
   34.3757  -16.9257  -25.8809 O   0  0  0  0  0  0  0  0  0  0  0  0
   35.3932  -17.0703  -21.4809 N   0  0  0  0  0  0  0  0  0  0  0  0
   34.9817  -15.8885  -20.9157 N   0  0  0  0  0  0  0  0  0  0  0  0
   35.1101  -17.0125  -22.8562 N   0  0  0  0  0  0  0  0  0  0  0  0
   35.4216  -18.1408  -23.7493 C   0  0  0  0  0  0  0  0  0  0  0  0
   30.7695   -7.3078  -24.3730 C   0  0  0  0  0  0  0  0  0  0  0  0
   31.5303   -5.3548  -21.1992 C   0  0  0  0  0  0  0  0  0  0  0  0
   32.0465   -6.3203  -20.3682 C   0  0  0  0  0  0  0  0  0  0  0  0
   31.1363   -5.7207  -22.4754 C   0  0  0  0  0  0  0  0  0  0  0  0
   32.1638   -7.6199  -20.8305 C   0  0  0  0  0  0  0  0  0  0  0  0
   32.2158  -11.6738  -21.7142 C   0  0  0  0  0  0  0  0  0  0  0  0
   33.1883  -10.9771  -23.8065 C   0  0  0  0  0  0  0  0  0  0  0  0
   31.7887  -10.3739  -21.4537 C   0  0  0  0  0  0  0  0  0  0  0  0
   32.7662   -9.6752  -23.5400 C   0  0  0  0  0  0  0  0  0  0  0  0
   33.8681  -13.8852  -21.9689 C   0  0  0  0  0  0  0  0  0  0  0  0
   33.4398  -13.9058  -24.3121 C   0  0  0  0  0  0  0  0  0  0  0  0
   34.0256  -15.7745  -25.6687 C   0  0  0  0  0  0  0  0  0  0  0  0
   34.4345  -15.1542  -21.9531 C   0  0  0  0  0  0  0  0  0  0  0  0
   34.5143  -15.8201  -23.1453 C   0  0  0  0  0  0  0  0  0  0  0  0
   31.2525   -7.0284  -22.9516 C   0  0  0  0  0  0  0  0  0  0  0  0
   32.8886  -11.9828  -22.8900 C   0  0  0  0  0  0  0  0  0  0  0  0
   32.0324   -9.3620  -22.3861 C   0  0  0  0  0  0  0  0  0  0  0  0
   33.3579  -13.2687  -23.0988 C   0  0  0  0  0  0  0  0  0  0  0  0
   34.0052  -15.1667  -24.3064 C   0  0  0  0  0  0  0  0  0  0  0  0
   31.7336   -8.0216  -22.1033 C   0  0  0  0  0  0  0  0  0  0  0  0
   33.3927  -14.1312  -26.4829 H   0  0  0  0  0  0  0  0  0  0  0  0
   35.1486  -17.9116  -24.6836 H   0  0  0  0  0  0  0  0  0  0  0  0
   36.4044  -18.3240  -23.7247 H   0  0  0  0  0  0  0  0  0  0  0  0
   34.9234  -18.9532  -23.4463 H   0  0  0  0  0  0  0  0  0  0  0  0
   30.9081   -8.2745  -24.5882 H   0  0  0  0  0  0  0  0  0  0  0  0
   29.7968   -7.0867  -24.4440 H   0  0  0  0  0  0  0  0  0  0  0  0
   31.2872   -6.7453  -25.0177 H   0  0  0  0  0  0  0  0  0  0  0  0
   31.4412   -4.4083  -20.8889 H   0  0  0  0  0  0  0  0  0  0  0  0
   32.3342   -6.0864  -19.4395 H   0  0  0  0  0  0  0  0  0  0  0  0
   30.7538   -5.0215  -23.0793 H   0  0  0  0  0  0  0  0  0  0  0  0
   32.5746   -8.3044  -20.2284 H   0  0  0  0  0  0  0  0  0  0  0  0
   32.0356  -12.3951  -21.0454 H   0  0  0  0  0  0  0  0  0  0  0  0
   33.6976  -11.1856  -24.6415 H   0  0  0  0  0  0  0  0  0  0  0  0
   31.3088  -10.1653  -20.6015 H   0  0  0  0  0  0  0  0  0  0  0  0
   32.9921   -8.9470  -24.1871 H   0  0  0  0  0  0  0  0  0  0  0  0
   33.8262  -13.3831  -21.1051 H   0  0  0  0  0  0  0  0  0  0  0  0
   33.1083  -13.4804  -25.1543 H   0  0  0  0  0  0  0  0  0  0  0  0
  1 18  1  0  0  0  0
  2 18  2  0  0  0  0
  3  4  2  0  0  0  0
  3  5  1  0  0  0  0
  4 19  1  0  0  0  0
  5  6  1  0  0  0  0
  5 20  1  0  0  0  0
  7 21  1  0  0  0  0
  8  9  2  0  0  0  0
  8 10  1  0  0  0  0
  9 11  1  0  0  0  0
 10 21  2  0  0  0  0
 11 26  2  0  0  0  0
 12 14  2  0  0  0  0
 12 22  1  0  0  0  0
 13 15  1  0  0  0  0
 13 22  2  0  0  0  0
 14 23  1  0  0  0  0
 15 23  2  0  0  0  0
 16 19  1  0  0  0  0
 16 24  2  0  0  0  0
 17 24  1  0  0  0  0
 17 25  2  0  0  0  0
 18 25  1  0  0  0  0
 19 20  2  0  0  0  0
 20 25  1  0  0  0  0
 21 26  1  0  0  0  0
 22 24  1  0  0  0  0
 23 26  1  0  0  0  0
  1 27  1  0  0  0  0
  6 28  1  0  0  0  0
  6 29  1  0  0  0  0
  6 30  1  0  0  0  0
  7 31  1  0  0  0  0
  7 32  1  0  0  0  0
  7 33  1  0  0  0  0
  8 34  1  0  0  0  0
  9 35  1  0  0  0  0
 10 36  1  0  0  0  0
 11 37  1  0  0  0  0
 12 38  1  0  0  0  0
 13 39  1  0  0  0  0
 14 40  1  0  0  0  0
 15 41  1  0  0  0  0
 16 42  1  0  0  0  0
 17 43  1  0  0  0  0
M  END
> <pdb_id>
6VND

> <uniprot_id>
Q02127

> <usmiles>
O=C(O)c1c2N(N=Nc2cc(c3ccc(c4c(cccc4)C)cc3)c1)C

$$$$
R59_A_504
          07202410153D 1   1.00000     0.00000     0
            
 39 40  0  0  0  0            999 V2000
  -35.4960  -10.4005   68.1212 S   0  0  0  0  0  0  0  0  0  0  0  0
  -36.0834   -6.2256   66.1075 O   0  0  0  0  0  0  0  0  0  0  0  0
  -36.0730   -5.9478   68.2143 O   0  0  0  0  0  0  0  0  0  0  0  0
  -33.4869   -9.6473   64.8260 O   0  0  0  0  0  0  0  0  0  0  0  0
  -33.0549   -3.0676   65.8080 N   0  0  0  0  0  0  0  0  0  0  0  0
  -34.0453   -7.8317   65.9932 N   0  0  0  0  0  0  0  0  0  0  0  0
  -31.6516  -10.5491   66.5912 C   0  0  0  0  0  0  0  0  0  0  0  0
  -33.9583  -11.0450   67.3838 C   0  0  0  0  0  0  0  0  0  0  0  0
  -33.2051   -4.3829   65.8339 C   0  0  0  0  0  0  0  0  0  0  0  0
  -31.9967   -1.1459   68.8241 C   0  0  0  0  0  0  0  0  0  0  0  0
  -31.8999   -2.2363   69.6970 C   0  0  0  0  0  0  0  0  0  0  0  0
  -32.3796   -1.3264   67.4910 C   0  0  0  0  0  0  0  0  0  0  0  0
  -32.1804   -3.5181   69.2193 C   0  0  0  0  0  0  0  0  0  0  0  0
  -32.9475   -6.2698   67.6015 C   0  0  0  0  0  0  0  0  0  0  0  0
  -35.4995   -6.3799   67.1952 C   0  0  0  0  0  0  0  0  0  0  0  0
  -33.5101   -9.1484   65.8955 C   0  0  0  0  0  0  0  0  0  0  0  0
  -32.6656   -2.6203   67.0150 C   0  0  0  0  0  0  0  0  0  0  0  0
  -34.1690   -7.1297   67.2736 C   0  0  1  0  0  0  0  0  0  0  0  0
  -32.9703   -9.9367   67.0895 C   0  0  2  0  0  0  0  0  0  0  0  0
  -32.9164   -4.8354   67.1064 C   0  0  0  0  0  0  0  0  0  0  0  0
  -32.5615   -3.7016   67.8730 C   0  0  0  0  0  0  0  0  0  0  0  0
  -36.1226  -11.1587   68.3014 H   0  0  0  0  0  0  0  0  0  0  0  0
  -35.6623   -6.5558   65.2627 H   0  0  0  0  0  0  0  0  0  0  0  0
  -33.2088   -2.4900   65.0063 H   0  0  0  0  0  0  0  0  0  0  0  0
  -34.3470   -7.3704   65.1589 H   0  0  0  0  0  0  0  0  0  0  0  0
  -30.9974   -9.8183   66.3961 H   0  0  0  0  0  0  0  0  0  0  0  0
  -31.2772  -11.1524   67.2953 H   0  0  0  0  0  0  0  0  0  0  0  0
  -31.8221  -11.0749   65.7579 H   0  0  0  0  0  0  0  0  0  0  0  0
  -34.1809  -11.5158   66.5301 H   0  0  0  0  0  0  0  0  0  0  0  0
  -33.5394  -11.6915   68.0215 H   0  0  0  0  0  0  0  0  0  0  0  0
  -33.4815   -4.9537   65.0608 H   0  0  0  0  0  0  0  0  0  0  0  0
  -31.7895   -0.2264   69.1579 H   0  0  0  0  0  0  0  0  0  0  0  0
  -31.6331   -2.0988   70.6509 H   0  0  0  0  0  0  0  0  0  0  0  0
  -32.4499   -0.5393   66.8782 H   0  0  0  0  0  0  0  0  0  0  0  0
  -32.1112   -4.3060   69.8312 H   0  0  0  0  0  0  0  0  0  0  0  0
  -32.1490   -6.7323   67.2161 H   0  0  0  0  0  0  0  0  0  0  0  0
  -32.8667   -6.2398   68.5978 H   0  0  0  0  0  0  0  0  0  0  0  0
  -34.2533   -7.8213   67.9909 H   0  0  0  0  0  0  0  0  0  0  0  0
  -32.8269   -9.3489   67.8856 H   0  0  0  0  0  0  0  0  0  0  0  0
  1  8  1  0  0  0  0
  2 15  1  0  0  0  0
  3 15  2  0  0  0  0
  4 16  2  0  0  0  0
  5  9  1  0  0  0  0
  5 17  1  0  0  0  0
  6 16  1  0  0  0  0
  6 18  1  0  0  0  0
  7 19  1  0  0  0  0
  8 19  1  0  0  0  0
  9 20  2  0  0  0  0
 10 11  2  0  0  0  0
 10 12  1  0  0  0  0
 11 13  1  0  0  0  0
 12 17  2  0  0  0  0
 13 21  2  0  0  0  0
 14 18  1  0  0  0  0
 14 20  1  0  0  0  0
 15 18  1  0  0  0  0
 16 19  1  0  0  0  0
 17 21  1  0  0  0  0
 20 21  1  0  0  0  0
  1 22  1  0  0  0  0
  2 23  1  0  0  0  0
  5 24  1  0  0  0  0
  6 25  1  0  0  0  0
  7 26  1  0  0  0  0
  7 27  1  0  0  0  0
  7 28  1  0  0  0  0
  8 29  1  0  0  0  0
  8 30  1  0  0  0  0
  9 31  1  0  0  0  0
 10 32  1  0  0  0  0
 11 33  1  0  0  0  0
 12 34  1  0  0  0  0
 13 35  1  0  0  0  0
 14 36  1  0  0  0  0
 14 37  1  0  0  0  0
 18 38  1  0  0  0  0
 19 39  1  0  0  0  0
M  END
> <pdb_id>
5N4T

> <uniprot_id>
Q9K2N0

> <usmiles>
SC[C@H](C(=O)N[C@H](C(=O)O)CC=1c2c(NC1)cccc2)C

$$$$
R6P_A_1201
          07202414163D 1   1.00000     0.00000     0
            
 66 71  0  0  0  0            999 V2000
   54.8384  -10.7961   26.3371 N   0  0  0  0  0  0  0  0  0  0  0  0
   55.3344   -8.7337   30.2430 N   0  0  0  0  0  0  0  0  0  0  0  0
   57.4997  -11.6234   39.1945 N   0  0  0  0  0  0  0  0  0  0  0  0
   48.9480  -11.2167   29.8423 N   0  0  0  0  0  0  0  0  0  0  0  0
   50.0839  -11.6724   31.9096 N   0  0  0  0  0  0  0  0  0  0  0  0
   51.3390  -11.9797   33.7864 N   0  0  0  0  0  0  0  0  0  0  0  0
   52.2700  -10.8276   32.0182 N   0  0  0  0  0  0  0  0  0  0  0  0
   54.8336   -8.5863   29.1071 N   0  0  0  0  0  0  0  0  0  0  0  0
   55.5090  -10.0621   26.7904 C   0  0  0  0  0  0  0  0  0  0  0  0
   56.0870  -11.1621   39.2935 C   0  0  0  0  0  0  0  0  0  0  0  0
   57.6549  -12.9759   38.6429 C   0  0  0  0  0  0  0  0  0  0  0  0
   49.2830  -10.6023   28.7656 C   0  0  0  0  0  0  0  0  0  0  0  0
   54.4959   -9.3331   30.9805 C   0  0  0  0  0  0  0  0  0  0  0  0
   55.5851   -5.2938   25.8013 C   0  0  0  0  0  0  0  0  0  0  0  0
   55.0966   -4.7202   27.2565 C   0  0  0  0  0  0  0  0  0  0  0  0
   53.6682   -9.0786   29.0185 C   0  0  0  0  0  0  0  0  0  0  0  0
   56.4190   -9.0313   27.4052 C   0  0  0  0  0  0  0  0  0  0  0  0
   55.4140  -11.1444   37.9361 C   0  0  0  0  0  0  0  0  0  0  0  0
   57.0619  -12.9028   37.2574 C   0  0  0  0  0  0  0  0  0  0  0  0
   50.5461  -10.1416   28.9088 C   0  0  0  0  0  0  0  0  0  0  0  0
   53.6300  -11.3016   34.3347 C   0  0  0  0  0  0  0  0  0  0  0  0
   52.3611  -12.7396   35.7383 C   0  0  0  0  0  0  0  0  0  0  0  0
   55.9529   -6.5523   26.0733 C   0  0  0  0  0  0  0  0  0  0  0  0
   54.6230   -5.7394   27.9975 C   0  0  0  0  0  0  0  0  0  0  0  0
   54.6719  -11.3998   35.1983 C   0  0  0  0  0  0  0  0  0  0  0  0
   53.3885  -12.8451   36.6095 C   0  0  0  0  0  0  0  0  0  0  0  0
   51.2264  -11.4700   32.4846 C   0  0  0  0  0  0  0  0  0  0  0  0
   49.9352  -11.1883   30.6949 C   0  0  0  0  0  0  0  0  0  0  0  0
   52.4849  -11.9918   34.6115 C   0  0  0  0  0  0  0  0  0  0  0  0
   52.1838  -10.3239   30.8384 C   0  0  0  0  0  0  0  0  0  0  0  0
   55.6509   -7.9508   28.1317 C   0  0  1  0  0  0  0  0  0  0  0  0
   53.3819   -9.5897   30.2591 C   0  0  0  0  0  0  0  0  0  0  0  0
   54.9242   -7.0329   27.1707 C   0  0  2  0  0  0  0  0  0  0  0  0
   55.6635  -12.4467   37.3536 C   0  0  0  0  0  0  0  0  0  0  0  0
   54.5264  -12.1545   36.3624 C   0  0  0  0  0  0  0  0  0  0  0  0
   50.9813  -10.5160   30.1547 C   0  0  0  0  0  0  0  0  0  0  0  0
   57.8985  -11.6111   40.1115 H   0  0  0  0  0  0  0  0  0  0  0  0
   48.0622  -11.6520   30.0033 H   0  0  0  0  0  0  0  0  0  0  0  0
   50.5104  -12.3818   34.1761 H   0  0  0  0  0  0  0  0  0  0  0  0
   56.0725  -10.2382   39.6757 H   0  0  0  0  0  0  0  0  0  0  0  0
   55.5845  -11.7807   39.8975 H   0  0  0  0  0  0  0  0  0  0  0  0
   57.1613  -13.6423   39.2018 H   0  0  0  0  0  0  0  0  0  0  0  0
   58.6214  -13.2287   38.5986 H   0  0  0  0  0  0  0  0  0  0  0  0
   48.7066  -10.4844   27.9570 H   0  0  0  0  0  0  0  0  0  0  0  0
   54.6357   -9.5766   31.9403 H   0  0  0  0  0  0  0  0  0  0  0  0
   56.3560   -4.7638   25.4479 H   0  0  0  0  0  0  0  0  0  0  0  0
   54.8360   -5.2748   25.1391 H   0  0  0  0  0  0  0  0  0  0  0  0
   55.1430   -3.7648   27.5478 H   0  0  0  0  0  0  0  0  0  0  0  0
   53.0792   -9.0916   28.2106 H   0  0  0  0  0  0  0  0  0  0  0  0
   56.9622   -8.6080   26.6801 H   0  0  0  0  0  0  0  0  0  0  0  0
   57.0277   -9.4861   28.0554 H   0  0  0  0  0  0  0  0  0  0  0  0
   55.8066  -10.4256   37.3624 H   0  0  0  0  0  0  0  0  0  0  0  0
   54.4311  -10.9908   38.0370 H   0  0  0  0  0  0  0  0  0  0  0  0
   57.0903  -13.8078   36.8330 H   0  0  0  0  0  0  0  0  0  0  0  0
   57.5869  -12.2576   36.7023 H   0  0  0  0  0  0  0  0  0  0  0  0
   51.0674   -9.6232   28.2310 H   0  0  0  0  0  0  0  0  0  0  0  0
   53.6994  -10.7359   33.5130 H   0  0  0  0  0  0  0  0  0  0  0  0
   51.5021  -13.2162   35.9250 H   0  0  0  0  0  0  0  0  0  0  0  0
   56.8874   -6.5791   26.4283 H   0  0  0  0  0  0  0  0  0  0  0  0
   55.8906   -7.1240   25.2552 H   0  0  0  0  0  0  0  0  0  0  0  0
   54.1734   -5.6819   28.8888 H   0  0  0  0  0  0  0  0  0  0  0  0
   55.5356  -10.9357   35.0023 H   0  0  0  0  0  0  0  0  0  0  0  0
   53.3097  -13.4229   37.4219 H   0  0  0  0  0  0  0  0  0  0  0  0
   56.3193   -7.3935   28.6242 H   0  0  0  0  0  0  0  0  0  0  0  0
   54.1020   -7.4475   26.7806 H   0  0  0  0  0  0  0  0  0  0  0  0
   55.2514  -13.0817   38.0070 H   0  0  0  0  0  0  0  0  0  0  0  0
  1  9  3  0  0  0  0
  2  8  1  0  0  0  0
  2 13  2  0  0  0  0
  3 10  1  0  0  0  0
  3 11  1  0  0  0  0
  4 12  1  0  0  0  0
  4 28  1  0  0  0  0
  5 27  2  0  0  0  0
  5 28  1  0  0  0  0
  6 27  1  0  0  0  0
  6 29  1  0  0  0  0
  7 27  1  0  0  0  0
  7 30  2  0  0  0  0
  8 16  1  0  0  0  0
  8 31  1  0  0  0  0
  9 17  1  0  0  0  0
 10 18  1  0  0  0  0
 11 19  1  0  0  0  0
 12 20  2  0  0  0  0
 13 32  1  0  0  0  0
 14 15  1  0  0  0  0
 14 23  1  0  0  0  0
 15 24  2  0  0  0  0
 16 32  2  0  0  0  0
 17 31  1  0  0  0  0
 18 34  1  0  0  0  0
 19 34  1  0  0  0  0
 20 36  1  0  0  0  0
 21 25  1  0  0  0  0
 21 29  2  0  0  0  0
 22 26  2  0  0  0  0
 22 29  1  0  0  0  0
 23 33  1  0  0  0  0
 24 33  1  0  0  0  0
 25 35  2  0  0  0  0
 26 35  1  0  0  0  0
 28 36  2  0  0  0  0
 30 32  1  0  0  0  0
 30 36  1  0  0  0  0
 31 33  1  0  0  0  0
 34 35  1  0  0  0  0
  3 37  1  0  0  0  0
  4 38  1  0  0  0  0
  6 39  1  0  0  0  0
 10 40  1  0  0  0  0
 10 41  1  0  0  0  0
 11 42  1  0  0  0  0
 11 43  1  0  0  0  0
 12 44  1  0  0  0  0
 13 45  1  0  0  0  0
 14 46  1  0  0  0  0
 14 47  1  0  0  0  0
 15 48  1  0  0  0  0
 16 49  1  0  0  0  0
 17 50  1  0  0  0  0
 17 51  1  0  0  0  0
 18 52  1  0  0  0  0
 18 53  1  0  0  0  0
 19 54  1  0  0  0  0
 19 55  1  0  0  0  0
 20 56  1  0  0  0  0
 21 57  1  0  0  0  0
 22 58  1  0  0  0  0
 23 59  1  0  0  0  0
 23 60  1  0  0  0  0
 24 61  1  0  0  0  0
 25 62  1  0  0  0  0
 26 63  1  0  0  0  0
 31 64  1  0  0  0  0
 33 65  1  0  0  0  0
 34 66  1  0  0  0  0
M  END
> <pdb_id>
6VNB

> <uniprot_id>
O60674

> <usmiles>
N#CC[C@H](N1N=CC(c2nc(nc3NC=Cc32)Nc4ccc(cc4)C5CCNCC5)=C1)[C@H]6C=CCC6

$$$$
R6P_B_1201
          07202414163D 1   1.00000     0.00000     0
            
 66 71  0  0  0  0            999 V2000
   54.6730  -10.9102   26.4581 N   0  0  0  0  0  0  0  0  0  0  0  0
   55.2769   -8.7307   30.5182 N   0  0  0  0  0  0  0  0  0  0  0  0
   56.1137  -13.1984   40.1570 N   0  0  0  0  0  0  0  0  0  0  0  0
   48.9139  -11.2472   29.7190 N   0  0  0  0  0  0  0  0  0  0  0  0
   50.0116  -11.8411   31.8239 N   0  0  0  0  0  0  0  0  0  0  0  0
   51.1829  -12.3425   33.7399 N   0  0  0  0  0  0  0  0  0  0  0  0
   52.1466  -10.9939   32.0850 N   0  0  0  0  0  0  0  0  0  0  0  0
   54.8621   -8.6785   29.3275 N   0  0  0  0  0  0  0  0  0  0  0  0
   55.3757  -10.1943   26.8936 C   0  0  0  0  0  0  0  0  0  0  0  0
   56.5113  -13.6409   38.8143 C   0  0  0  0  0  0  0  0  0  0  0  0
   56.1265  -11.7424   40.2246 C   0  0  0  0  0  0  0  0  0  0  0  0
   49.2400  -10.5475   28.7106 C   0  0  0  0  0  0  0  0  0  0  0  0
   54.3949   -9.2879   31.2530 C   0  0  0  0  0  0  0  0  0  0  0  0
   55.2854   -5.5515   25.8478 C   0  0  0  0  0  0  0  0  0  0  0  0
   54.5171   -4.9747   27.1687 C   0  0  0  0  0  0  0  0  0  0  0  0
   53.7247   -9.2189   29.2113 C   0  0  0  0  0  0  0  0  0  0  0  0
   56.3370   -9.2002   27.5053 C   0  0  0  0  0  0  0  0  0  0  0  0
   55.5654  -13.1484   37.7292 C   0  0  0  0  0  0  0  0  0  0  0  0
   55.1742  -11.1479   39.2066 C   0  0  0  0  0  0  0  0  0  0  0  0
   50.4919  -10.0866   28.9406 C   0  0  0  0  0  0  0  0  0  0  0  0
   53.3611  -11.5017   34.5339 C   0  0  0  0  0  0  0  0  0  0  0  0
   51.9868  -12.7640   35.9381 C   0  0  0  0  0  0  0  0  0  0  0  0
   55.8572   -6.6941   26.2323 C   0  0  0  0  0  0  0  0  0  0  0  0
   54.6769   -5.8820   28.1436 C   0  0  0  0  0  0  0  0  0  0  0  0
   54.2758  -11.3753   35.5337 C   0  0  0  0  0  0  0  0  0  0  0  0
   52.8826  -12.6437   36.9519 C   0  0  0  0  0  0  0  0  0  0  0  0
   51.1101  -11.6805   32.4826 C   0  0  0  0  0  0  0  0  0  0  0  0
   49.8863  -11.2604   30.6156 C   0  0  0  0  0  0  0  0  0  0  0  0
   52.2015  -12.1946   34.7286 C   0  0  0  0  0  0  0  0  0  0  0  0
   52.1061  -10.3718   30.9367 C   0  0  0  0  0  0  0  0  0  0  0  0
   55.6769   -8.1033   28.3058 C   0  0  1  0  0  0  0  0  0  0  0  0
   53.3422   -9.6222   30.4700 C   0  0  0  0  0  0  0  0  0  0  0  0
   54.9071   -7.2010   27.3671 C   0  0  2  0  0  0  0  0  0  0  0  0
   55.1666  -11.7425   37.8619 C   0  0  0  0  0  0  0  0  0  0  0  0
   54.0843  -11.9856   36.7541 C   0  0  0  0  0  0  0  0  0  0  0  0
   50.9305  -10.5228   30.1690 C   0  0  0  0  0  0  0  0  0  0  0  0
   56.7541  -13.5671   40.8307 H   0  0  0  0  0  0  0  0  0  0  0  0
   48.0405  -11.7235   29.8213 H   0  0  0  0  0  0  0  0  0  0  0  0
   50.4417  -12.9790   33.9534 H   0  0  0  0  0  0  0  0  0  0  0  0
   56.5241  -14.6407   38.7978 H   0  0  0  0  0  0  0  0  0  0  0  0
   57.4286  -13.2926   38.6213 H   0  0  0  0  0  0  0  0  0  0  0  0
   57.0524  -11.4137   40.0383 H   0  0  0  0  0  0  0  0  0  0  0  0
   55.8485  -11.4543   41.1409 H   0  0  0  0  0  0  0  0  0  0  0  0
   48.6794  -10.3708   27.9016 H   0  0  0  0  0  0  0  0  0  0  0  0
   54.4685   -9.4497   32.2370 H   0  0  0  0  0  0  0  0  0  0  0  0
   55.3201   -5.1347   24.9394 H   0  0  0  0  0  0  0  0  0  0  0  0
   53.5445   -4.8492   26.9727 H   0  0  0  0  0  0  0  0  0  0  0  0
   54.9171   -4.1006   27.4442 H   0  0  0  0  0  0  0  0  0  0  0  0
   53.2028   -9.3317   28.3658 H   0  0  0  0  0  0  0  0  0  0  0  0
   56.8603   -8.7760   26.7662 H   0  0  0  0  0  0  0  0  0  0  0  0
   56.9583   -9.6980   28.1104 H   0  0  0  0  0  0  0  0  0  0  0  0
   54.7393  -13.7113   37.7559 H   0  0  0  0  0  0  0  0  0  0  0  0
   56.0181  -13.2625   36.8449 H   0  0  0  0  0  0  0  0  0  0  0  0
   55.4076  -10.1808   39.1060 H   0  0  0  0  0  0  0  0  0  0  0  0
   54.2489  -11.2308   39.5768 H   0  0  0  0  0  0  0  0  0  0  0  0
   51.0187   -9.5147   28.3118 H   0  0  0  0  0  0  0  0  0  0  0  0
   53.5410  -11.0811   33.6447 H   0  0  0  0  0  0  0  0  0  0  0  0
   51.1475  -13.2863   36.0888 H   0  0  0  0  0  0  0  0  0  0  0  0
   56.6899   -7.1220   25.8808 H   0  0  0  0  0  0  0  0  0  0  0  0
   53.8589   -5.9411   28.7158 H   0  0  0  0  0  0  0  0  0  0  0  0
   55.4674   -5.6595   28.7142 H   0  0  0  0  0  0  0  0  0  0  0  0
   55.1003  -10.8306   35.3801 H   0  0  0  0  0  0  0  0  0  0  0  0
   52.6724  -13.0337   37.8483 H   0  0  0  0  0  0  0  0  0  0  0  0
   56.3934   -7.5609   28.7445 H   0  0  0  0  0  0  0  0  0  0  0  0
   54.0627   -7.6125   27.0240 H   0  0  0  0  0  0  0  0  0  0  0  0
   55.8891  -11.2461   37.3807 H   0  0  0  0  0  0  0  0  0  0  0  0
  1  9  3  0  0  0  0
  2  8  1  0  0  0  0
  2 13  2  0  0  0  0
  3 10  1  0  0  0  0
  3 11  1  0  0  0  0
  4 12  1  0  0  0  0
  4 28  1  0  0  0  0
  5 27  2  0  0  0  0
  5 28  1  0  0  0  0
  6 27  1  0  0  0  0
  6 29  1  0  0  0  0
  7 27  1  0  0  0  0
  7 30  2  0  0  0  0
  8 16  1  0  0  0  0
  8 31  1  0  0  0  0
  9 17  1  0  0  0  0
 10 18  1  0  0  0  0
 11 19  1  0  0  0  0
 12 20  2  0  0  0  0
 13 32  1  0  0  0  0
 14 15  1  0  0  0  0
 14 23  2  0  0  0  0
 15 24  1  0  0  0  0
 16 32  2  0  0  0  0
 17 31  1  0  0  0  0
 18 34  1  0  0  0  0
 19 34  1  0  0  0  0
 20 36  1  0  0  0  0
 21 25  1  0  0  0  0
 21 29  2  0  0  0  0
 22 26  2  0  0  0  0
 22 29  1  0  0  0  0
 23 33  1  0  0  0  0
 24 33  1  0  0  0  0
 25 35  2  0  0  0  0
 26 35  1  0  0  0  0
 28 36  2  0  0  0  0
 30 32  1  0  0  0  0
 30 36  1  0  0  0  0
 31 33  1  0  0  0  0
 34 35  1  0  0  0  0
  3 37  1  0  0  0  0
  4 38  1  0  0  0  0
  6 39  1  0  0  0  0
 10 40  1  0  0  0  0
 10 41  1  0  0  0  0
 11 42  1  0  0  0  0
 11 43  1  0  0  0  0
 12 44  1  0  0  0  0
 13 45  1  0  0  0  0
 14 46  1  0  0  0  0
 15 47  1  0  0  0  0
 15 48  1  0  0  0  0
 16 49  1  0  0  0  0
 17 50  1  0  0  0  0
 17 51  1  0  0  0  0
 18 52  1  0  0  0  0
 18 53  1  0  0  0  0
 19 54  1  0  0  0  0
 19 55  1  0  0  0  0
 20 56  1  0  0  0  0
 21 57  1  0  0  0  0
 22 58  1  0  0  0  0
 23 59  1  0  0  0  0
 24 60  1  0  0  0  0
 24 61  1  0  0  0  0
 25 62  1  0  0  0  0
 26 63  1  0  0  0  0
 31 64  1  0  0  0  0
 33 65  1  0  0  0  0
 34 66  1  0  0  0  0
M  END
> <pdb_id>
6VNB

> <uniprot_id>
O60674

> <usmiles>
N#CC[C@H](N1N=CC(c2nc(nc3NC=Cc32)Nc4ccc(cc4)C5CCNCC5)=C1)[C@@H]6C=CCC6

$$$$
R6V_A_1201
          07202414163D 1   1.00000     0.00000     0
            
 68 73  0  0  0  0            999 V2000
   54.6970  -11.2160   26.7120 N   0  0  0  0  0  0  0  0  0  0  0  0
   55.1800   -8.5720   30.2270 N   0  0  0  0  0  0  0  0  0  0  0  0
   56.5900  -12.5020   40.3000 N   0  0  0  0  0  0  0  0  0  0  0  0
   48.7260  -11.3810   29.7890 N   0  0  0  0  0  0  0  0  0  0  0  0
   49.9570  -11.8060   31.9250 N   0  0  0  0  0  0  0  0  0  0  0  0
   51.1930  -12.1580   33.8950 N   0  0  0  0  0  0  0  0  0  0  0  0
   52.0460  -10.8340   32.0700 N   0  0  0  0  0  0  0  0  0  0  0  0
   54.5700   -8.5100   29.0240 N   0  0  0  0  0  0  0  0  0  0  0  0
   55.3320  -10.3110   26.9250 C   0  0  0  0  0  0  0  0  0  0  0  0
   55.8680  -13.6220   39.6810 C   0  0  0  0  0  0  0  0  0  0  0  0
   55.7290  -11.2830   40.3730 C   0  0  0  0  0  0  0  0  0  0  0  0
   48.9930  -10.6980   28.6800 C   0  0  0  0  0  0  0  0  0  0  0  0
   54.3400   -9.1690   31.0790 C   0  0  0  0  0  0  0  0  0  0  0  0
   54.4950   -4.8080   27.0330 C   0  0  0  0  0  0  0  0  0  0  0  0
   55.4040   -5.3730   25.8280 C   0  0  0  0  0  0  0  0  0  0  0  0
   53.3780   -9.0770   29.0390 C   0  0  0  0  0  0  0  0  0  0  0  0
   56.1370   -9.0890   27.3500 C   0  0  0  0  0  0  0  0  0  0  0  0
   55.3810  -13.3020   38.2650 C   0  0  0  0  0  0  0  0  0  0  0  0
   55.1270  -10.9070   39.0130 C   0  0  0  0  0  0  0  0  0  0  0  0
   50.2510  -10.1280   28.8070 C   0  0  0  0  0  0  0  0  0  0  0  0
   52.1520  -12.6650   36.0250 C   0  0  0  0  0  0  0  0  0  0  0  0
   53.5350  -11.2870   34.5380 C   0  0  0  0  0  0  0  0  0  0  0  0
   54.9520   -5.5960   28.3540 C   0  0  0  0  0  0  0  0  0  0  0  0
   56.4050   -6.1210   26.4110 C   0  0  0  0  0  0  0  0  0  0  0  0
   53.1510  -12.6090   37.0110 C   0  0  0  0  0  0  0  0  0  0  0  0
   54.5220  -11.2330   35.5230 C   0  0  0  0  0  0  0  0  0  0  0  0
   51.0710  -11.5810   32.5660 C   0  0  0  0  0  0  0  0  0  0  0  0
   49.7820  -11.2780   30.6520 C   0  0  0  0  0  0  0  0  0  0  0  0
   52.3340  -12.0190   34.7990 C   0  0  0  0  0  0  0  0  0  0  0  0
   51.9350  -10.2630   30.8740 C   0  0  0  0  0  0  0  0  0  0  0  0
   55.1680   -7.9530   27.7790 C   0  0  2  0  0  0  0  0  0  0  0  0
   53.1510   -9.4890   30.3580 C   0  0  0  0  0  0  0  0  0  0  0  0
   55.8690   -6.5490   27.9370 C   0  0  0  0  0  0  0  0  0  0  0  0
   55.3950  -11.8610   37.8960 C   0  0  0  0  0  0  0  0  0  0  0  0
   54.3310  -11.9280   36.7660 C   0  0  0  0  0  0  0  0  0  0  0  0
   50.7470  -10.4970   30.0940 C   0  0  0  0  0  0  0  0  0  0  0  0
   57.4026  -12.2959   39.7549 H   0  0  0  0  0  0  0  0  0  0  0  0
   47.8839  -11.8908   29.9648 H   0  0  0  0  0  0  0  0  0  0  0  0
   50.4214  -12.7031   34.2228 H   0  0  0  0  0  0  0  0  0  0  0  0
   55.0756  -13.8446   40.2490 H   0  0  0  0  0  0  0  0  0  0  0  0
   56.4797  -14.4119   39.6379 H   0  0  0  0  0  0  0  0  0  0  0  0
   56.2833  -10.5180   40.7009 H   0  0  0  0  0  0  0  0  0  0  0  0
   54.9837  -11.4549   41.0172 H   0  0  0  0  0  0  0  0  0  0  0  0
   48.3888  -10.6101   27.8880 H   0  0  0  0  0  0  0  0  0  0  0  0
   54.5135   -9.3570   32.0457 H   0  0  0  0  0  0  0  0  0  0  0  0
   53.5276   -4.9788   26.8458 H   0  0  0  0  0  0  0  0  0  0  0  0
   54.6440   -3.8258   27.1473 H   0  0  0  0  0  0  0  0  0  0  0  0
   55.7974   -4.6153   25.3073 H   0  0  0  0  0  0  0  0  0  0  0  0
   54.8544   -5.9456   25.2197 H   0  0  0  0  0  0  0  0  0  0  0  0
   52.7591   -9.1900   28.2617 H   0  0  0  0  0  0  0  0  0  0  0  0
   56.6981   -8.7766   26.5835 H   0  0  0  0  0  0  0  0  0  0  0  0
   56.7284   -9.3307   28.1193 H   0  0  0  0  0  0  0  0  0  0  0  0
   54.4413  -13.6332   38.1797 H   0  0  0  0  0  0  0  0  0  0  0  0
   55.9669  -13.7916   37.6192 H   0  0  0  0  0  0  0  0  0  0  0  0
   55.4964  -10.0157   38.7501 H   0  0  0  0  0  0  0  0  0  0  0  0
   54.1358  -10.8371   39.1253 H   0  0  0  0  0  0  0  0  0  0  0  0
   50.7211   -9.5657   28.1267 H   0  0  0  0  0  0  0  0  0  0  0  0
   51.3067  -13.1694   36.2011 H   0  0  0  0  0  0  0  0  0  0  0  0
   53.6653  -10.8210   33.6629 H   0  0  0  0  0  0  0  0  0  0  0  0
   54.1646   -6.0373   28.7844 H   0  0  0  0  0  0  0  0  0  0  0  0
   55.3776   -4.9662   29.0038 H   0  0  0  0  0  0  0  0  0  0  0  0
   57.2426   -5.5792   26.4805 H   0  0  0  0  0  0  0  0  0  0  0  0
   56.5826   -6.9409   25.8667 H   0  0  0  0  0  0  0  0  0  0  0  0
   53.0095  -13.0618   37.8913 H   0  0  0  0  0  0  0  0  0  0  0  0
   55.3605  -10.7117   35.3641 H   0  0  0  0  0  0  0  0  0  0  0  0
   54.4482   -7.8726   27.0895 H   0  0  0  0  0  0  0  0  0  0  0  0
   56.6349   -6.6065   28.5774 H   0  0  0  0  0  0  0  0  0  0  0  0
   56.2822  -11.6410   37.4904 H   0  0  0  0  0  0  0  0  0  0  0  0
  1  9  3  0  0  0  0
  2  8  1  0  0  0  0
  2 13  2  0  0  0  0
  3 10  1  0  0  0  0
  3 11  1  0  0  0  0
  4 12  1  0  0  0  0
  4 28  1  0  0  0  0
  5 27  2  0  0  0  0
  5 28  1  0  0  0  0
  6 27  1  0  0  0  0
  6 29  1  0  0  0  0
  7 27  1  0  0  0  0
  7 30  2  0  0  0  0
  8 16  1  0  0  0  0
  8 31  1  0  0  0  0
  9 17  1  0  0  0  0
 10 18  1  0  0  0  0
 11 19  1  0  0  0  0
 12 20  2  0  0  0  0
 13 32  1  0  0  0  0
 14 15  1  0  0  0  0
 14 23  1  0  0  0  0
 15 24  1  0  0  0  0
 16 32  2  0  0  0  0
 17 31  1  0  0  0  0
 18 34  1  0  0  0  0
 19 34  1  0  0  0  0
 20 36  1  0  0  0  0
 21 25  1  0  0  0  0
 21 29  2  0  0  0  0
 22 26  2  0  0  0  0
 22 29  1  0  0  0  0
 23 33  1  0  0  0  0
 24 33  1  0  0  0  0
 25 35  2  0  0  0  0
 26 35  1  0  0  0  0
 28 36  2  0  0  0  0
 30 32  1  0  0  0  0
 30 36  1  0  0  0  0
 31 33  1  0  0  0  0
 34 35  1  0  0  0  0
  3 37  1  0  0  0  0
  4 38  1  0  0  0  0
  6 39  1  0  0  0  0
 10 40  1  0  0  0  0
 10 41  1  0  0  0  0
 11 42  1  0  0  0  0
 11 43  1  0  0  0  0
 12 44  1  0  0  0  0
 13 45  1  0  0  0  0
 14 46  1  0  0  0  0
 14 47  1  0  0  0  0
 15 48  1  0  0  0  0
 15 49  1  0  0  0  0
 16 50  1  0  0  0  0
 17 51  1  0  0  0  0
 17 52  1  0  0  0  0
 18 53  1  0  0  0  0
 18 54  1  0  0  0  0
 19 55  1  0  0  0  0
 19 56  1  0  0  0  0
 20 57  1  0  0  0  0
 21 58  1  0  0  0  0
 22 59  1  0  0  0  0
 23 60  1  0  0  0  0
 23 61  1  0  0  0  0
 24 62  1  0  0  0  0
 24 63  1  0  0  0  0
 25 64  1  0  0  0  0
 26 65  1  0  0  0  0
 31 66  1  0  0  0  0
 33 67  1  0  0  0  0
 34 68  1  0  0  0  0
M  END
> <pdb_id>
6VS3

> <uniprot_id>
O60674

> <usmiles>
N#CC[C@@H](N1N=CC(c2nc(nc3NC=Cc32)Nc4ccc(cc4)C5CCNCC5)=C1)C6CCCC6

$$$$
R6V_B_1201
          07202414163D 1   1.00000     0.00000     0
            
 66 71  0  0  0  0            999 V2000
   54.7418  -11.1593   26.5373 N   0  0  0  0  0  0  0  0  0  0  0  0
   55.2016   -8.4692   29.9366 N   0  0  0  0  0  0  0  0  0  0  0  0
   58.0596  -11.5522   39.0196 N   0  0  0  0  0  0  0  0  0  0  0  0
   48.7132  -11.2820   29.8185 N   0  0  0  0  0  0  0  0  0  0  0  0
   50.0966  -11.7413   31.8786 N   0  0  0  0  0  0  0  0  0  0  0  0
   51.4437  -12.1336   33.7687 N   0  0  0  0  0  0  0  0  0  0  0  0
   52.2083  -10.7731   31.9254 N   0  0  0  0  0  0  0  0  0  0  0  0
   54.5626   -8.4269   28.7501 N   0  0  0  0  0  0  0  0  0  0  0  0
   55.4112  -10.2483   26.7044 C   0  0  0  0  0  0  0  0  0  0  0  0
   57.7488  -10.4715   38.0655 C   0  0  0  0  0  0  0  0  0  0  0  0
   57.9832  -12.8826   38.3548 C   0  0  0  0  0  0  0  0  0  0  0  0
   48.9254  -10.5925   28.7064 C   0  0  0  0  0  0  0  0  0  0  0  0
   54.3904   -9.0431   30.8226 C   0  0  0  0  0  0  0  0  0  0  0  0
   54.4590   -4.6452   27.0072 C   0  0  0  0  0  0  0  0  0  0  0  0
   55.6021   -4.8103   25.8891 C   0  0  0  0  0  0  0  0  0  0  0  0
   53.3713   -8.9920   28.8273 C   0  0  0  0  0  0  0  0  0  0  0  0
   56.1582   -8.9438   27.0183 C   0  0  0  0  0  0  0  0  0  0  0  0
   56.4313  -10.6959   37.3189 C   0  0  0  0  0  0  0  0  0  0  0  0
   56.5630  -13.1666   37.8872 C   0  0  0  0  0  0  0  0  0  0  0  0
   50.2069  -10.0251   28.7808 C   0  0  0  0  0  0  0  0  0  0  0  0
   53.7377  -11.2448   34.4112 C   0  0  0  0  0  0  0  0  0  0  0  0
   52.4453  -12.7078   35.8950 C   0  0  0  0  0  0  0  0  0  0  0  0
   54.9148   -5.5769   28.2335 C   0  0  0  0  0  0  0  0  0  0  0  0
   56.2930   -5.9752   26.1926 C   0  0  0  0  0  0  0  0  0  0  0  0
   54.7854  -11.2017   35.3656 C   0  0  0  0  0  0  0  0  0  0  0  0
   53.4604  -12.6649   36.8195 C   0  0  0  0  0  0  0  0  0  0  0  0
   51.2483  -11.5087   32.4718 C   0  0  0  0  0  0  0  0  0  0  0  0
   49.8360  -11.2071   30.6295 C   0  0  0  0  0  0  0  0  0  0  0  0
   52.5765  -11.9972   34.6749 C   0  0  0  0  0  0  0  0  0  0  0  0
   52.0120  -10.1780   30.7422 C   0  0  0  0  0  0  0  0  0  0  0  0
   55.1354   -7.8797   27.4925 C   0  0  2  0  0  0  0  0  0  0  0  0
   53.1920   -9.3936   30.1570 C   0  0  0  0  0  0  0  0  0  0  0  0
   55.8158   -6.4960   27.7021 C   0  0  2  0  0  0  0  0  0  0  0  0
   55.7114  -11.9435   37.6943 C   0  0  0  0  0  0  0  0  0  0  0  0
   54.6473  -11.9088   36.5716 C   0  0  0  0  0  0  0  0  0  0  0  0
   50.7818  -10.4190   30.0278 C   0  0  0  0  0  0  0  0  0  0  0  0
   57.4023  -11.5238   39.7727 H   0  0  0  0  0  0  0  0  0  0  0  0
   47.8738  -11.7791   30.0387 H   0  0  0  0  0  0  0  0  0  0  0  0
   50.7067  -12.7339   34.0791 H   0  0  0  0  0  0  0  0  0  0  0  0
   58.4892  -10.4145   37.3959 H   0  0  0  0  0  0  0  0  0  0  0  0
   57.6874   -9.6096   38.5688 H   0  0  0  0  0  0  0  0  0  0  0  0
   58.2636  -13.5906   39.0030 H   0  0  0  0  0  0  0  0  0  0  0  0
   58.5971  -12.8914   37.5655 H   0  0  0  0  0  0  0  0  0  0  0  0
   48.2835  -10.4937   27.9460 H   0  0  0  0  0  0  0  0  0  0  0  0
   54.5927   -9.1992   31.7894 H   0  0  0  0  0  0  0  0  0  0  0  0
   53.5751   -4.9468   26.6497 H   0  0  0  0  0  0  0  0  0  0  0  0
   54.3924   -3.6913   27.2998 H   0  0  0  0  0  0  0  0  0  0  0  0
   55.7808   -4.1931   25.1229 H   0  0  0  0  0  0  0  0  0  0  0  0
   52.7201   -9.1107   28.0777 H   0  0  0  0  0  0  0  0  0  0  0  0
   56.6245   -8.6179   26.1959 H   0  0  0  0  0  0  0  0  0  0  0  0
   56.8308   -9.1077   27.7400 H   0  0  0  0  0  0  0  0  0  0  0  0
   56.6301  -10.7331   36.3396 H   0  0  0  0  0  0  0  0  0  0  0  0
   55.8296   -9.9198   37.5077 H   0  0  0  0  0  0  0  0  0  0  0  0
   56.1211  -13.7500   38.5686 H   0  0  0  0  0  0  0  0  0  0  0  0
   56.6132  -13.6524   37.0146 H   0  0  0  0  0  0  0  0  0  0  0  0
   50.6391   -9.4494   28.0867 H   0  0  0  0  0  0  0  0  0  0  0  0
   53.8231  -10.7413   33.5514 H   0  0  0  0  0  0  0  0  0  0  0  0
   51.6179  -13.2375   36.0815 H   0  0  0  0  0  0  0  0  0  0  0  0
   54.1246   -6.0502   28.6229 H   0  0  0  0  0  0  0  0  0  0  0  0
   55.3566   -5.0270   28.9423 H   0  0  0  0  0  0  0  0  0  0  0  0
   56.9644   -6.4261   25.6044 H   0  0  0  0  0  0  0  0  0  0  0  0
   55.6143  -10.6732   35.1821 H   0  0  0  0  0  0  0  0  0  0  0  0
   53.3675  -13.1697   37.6777 H   0  0  0  0  0  0  0  0  0  0  0  0
   54.4100   -7.7913   26.8099 H   0  0  0  0  0  0  0  0  0  0  0  0
   56.6098   -6.5887   28.3029 H   0  0  0  0  0  0  0  0  0  0  0  0
   55.2400  -11.7681   38.5586 H   0  0  0  0  0  0  0  0  0  0  0  0
  1  9  3  0  0  0  0
  2  8  1  0  0  0  0
  2 13  2  0  0  0  0
  3 10  1  0  0  0  0
  3 11  1  0  0  0  0
  4 12  1  0  0  0  0
  4 28  1  0  0  0  0
  5 27  2  0  0  0  0
  5 28  1  0  0  0  0
  6 27  1  0  0  0  0
  6 29  1  0  0  0  0
  7 27  1  0  0  0  0
  7 30  2  0  0  0  0
  8 16  1  0  0  0  0
  8 31  1  0  0  0  0
  9 17  1  0  0  0  0
 10 18  1  0  0  0  0
 11 19  1  0  0  0  0
 12 20  2  0  0  0  0
 13 32  1  0  0  0  0
 14 15  1  0  0  0  0
 14 23  1  0  0  0  0
 15 24  2  0  0  0  0
 16 32  2  0  0  0  0
 17 31  1  0  0  0  0
 18 34  1  0  0  0  0
 19 34  1  0  0  0  0
 20 36  1  0  0  0  0
 21 25  1  0  0  0  0
 21 29  2  0  0  0  0
 22 26  2  0  0  0  0
 22 29  1  0  0  0  0
 23 33  1  0  0  0  0
 24 33  1  0  0  0  0
 25 35  2  0  0  0  0
 26 35  1  0  0  0  0
 28 36  2  0  0  0  0
 30 32  1  0  0  0  0
 30 36  1  0  0  0  0
 31 33  1  0  0  0  0
 34 35  1  0  0  0  0
  3 37  1  0  0  0  0
  4 38  1  0  0  0  0
  6 39  1  0  0  0  0
 10 40  1  0  0  0  0
 10 41  1  0  0  0  0
 11 42  1  0  0  0  0
 11 43  1  0  0  0  0
 12 44  1  0  0  0  0
 13 45  1  0  0  0  0
 14 46  1  0  0  0  0
 14 47  1  0  0  0  0
 15 48  1  0  0  0  0
 16 49  1  0  0  0  0
 17 50  1  0  0  0  0
 17 51  1  0  0  0  0
 18 52  1  0  0  0  0
 18 53  1  0  0  0  0
 19 54  1  0  0  0  0
 19 55  1  0  0  0  0
 20 56  1  0  0  0  0
 21 57  1  0  0  0  0
 22 58  1  0  0  0  0
 23 59  1  0  0  0  0
 23 60  1  0  0  0  0
 24 61  1  0  0  0  0
 25 62  1  0  0  0  0
 26 63  1  0  0  0  0
 31 64  1  0  0  0  0
 33 65  1  0  0  0  0
 34 66  1  0  0  0  0
M  END
> <pdb_id>
6VS3

> <uniprot_id>
O60674

> <usmiles>
N#CC[C@@H](N1N=CC(c2nc(nc3NC=Cc32)Nc4ccc(cc4)C5CCNCC5)=C1)[C@H]6C=CCC6

$$$$
R77_B_501
          07202406173D 1   1.00000     0.00000     0
            
 46 46  0  0  0  0            999 V2000
   -0.7067   16.3334   21.1800 P   0  0  0  0  0  0  0  0  0  0  0  0
   -1.8492   15.8739   22.0402 O   0  0  0  0  0  0  0  0  0  0  0  0
   -0.3152   17.7519   21.4475 O   0  0  0  0  0  0  0  0  0  0  0  0
   -0.9125   16.1527   19.6935 O   0  0  0  0  0  0  0  0  0  0  0  0
    4.6824   14.3928   18.4615 O   0  0  0  0  0  0  0  0  0  0  0  0
    3.7838   15.1235   20.8399 O   0  0  0  0  0  0  0  0  0  0  0  0
    3.7229   13.6481   19.1608 N   0  0  0  0  0  0  0  0  0  0  0  0
    3.2996   12.4237   18.4988 C   0  0  0  0  0  0  0  0  0  0  0  0
    0.7115   15.3019   21.6660 C   0  0  0  0  0  0  0  0  0  0  0  0
    2.5531   10.4435   15.7017 C   0  0  0  0  0  0  0  0  0  0  0  0
    1.6772   11.4803   15.4081 C   0  0  0  0  0  0  0  0  0  0  0  0
    2.2659    9.5615   16.7357 C   0  0  0  0  0  0  0  0  0  0  0  0
   -0.2404   11.8014   20.2853 C   0  0  0  0  0  0  0  0  0  0  0  0
   -0.9433   12.1201   18.9602 C   0  0  0  0  0  0  0  0  0  0  0  0
   -0.2557   13.0075   21.2373 C   0  0  0  0  0  0  0  0  0  0  0  0
    0.5200   11.6360   16.1592 C   0  0  0  0  0  0  0  0  0  0  0  0
    1.1058    9.7167   17.4814 C   0  0  0  0  0  0  0  0  0  0  0  0
   -1.0376   10.9235   18.0089 C   0  0  0  0  0  0  0  0  0  0  0  0
    2.2300   13.3853   21.1179 C   0  0  0  0  0  0  0  0  0  0  0  0
    3.3085   14.1141   20.3486 C   0  0  0  0  0  0  0  0  0  0  0  0
    0.8475   14.0075   20.8628 C   0  0  2  0  0  0  0  0  0  0  0  0
    0.2303   10.7573   17.1933 C   0  0  0  0  0  0  0  0  0  0  0  0
   -2.0696   14.9232   21.8217 H   0  0  0  0  0  0  0  0  0  0  0  0
    0.4462   18.0058   20.8509 H   0  0  0  0  0  0  0  0  0  0  0  0
    4.8979   13.9334   17.5998 H   0  0  0  0  0  0  0  0  0  0  0  0
    2.6184   11.9579   19.0635 H   0  0  0  0  0  0  0  0  0  0  0  0
    2.8997   12.6465   17.6098 H   0  0  0  0  0  0  0  0  0  0  0  0
    4.0899   11.8250   18.3682 H   0  0  0  0  0  0  0  0  0  0  0  0
    0.6096   15.0629   22.6316 H   0  0  0  0  0  0  0  0  0  0  0  0
    1.5467   15.8377   21.5416 H   0  0  0  0  0  0  0  0  0  0  0  0
    3.3914   10.3317   15.1682 H   0  0  0  0  0  0  0  0  0  0  0  0
    1.8791   12.1118   14.6594 H   0  0  0  0  0  0  0  0  0  0  0  0
    2.8962    8.8133   16.9431 H   0  0  0  0  0  0  0  0  0  0  0  0
    0.7086   11.5486   20.0968 H   0  0  0  0  0  0  0  0  0  0  0  0
   -0.7085   11.0348   20.7249 H   0  0  0  0  0  0  0  0  0  0  0  0
   -0.4356   12.8491   18.5010 H   0  0  0  0  0  0  0  0  0  0  0  0
   -1.8702   12.4361   19.1627 H   0  0  0  0  0  0  0  0  0  0  0  0
   -0.1062   12.6889   22.1734 H   0  0  0  0  0  0  0  0  0  0  0  0
   -1.1446   13.4616   21.1778 H   0  0  0  0  0  0  0  0  0  0  0  0
   -0.1087   12.3860   15.9536 H   0  0  0  0  0  0  0  0  0  0  0  0
    0.9000    9.0807   18.2251 H   0  0  0  0  0  0  0  0  0  0  0  0
   -1.8077   11.0636   17.3865 H   0  0  0  0  0  0  0  0  0  0  0  0
   -1.1894   10.0935   18.5455 H   0  0  0  0  0  0  0  0  0  0  0  0
    2.4354   13.4364   22.0952 H   0  0  0  0  0  0  0  0  0  0  0  0
    2.2147   12.4277   20.8301 H   0  0  0  0  0  0  0  0  0  0  0  0
    0.7676   14.2239   19.8898 H   0  0  0  0  0  0  0  0  0  0  0  0
  1  2  1  0  0  0  0
  1  3  1  0  0  0  0
  1  4  2  0  0  0  0
  1  9  1  0  0  0  0
  5  7  1  0  0  0  0
  6 20  2  0  0  0  0
  7  8  1  0  0  0  0
  7 20  1  0  0  0  0
  9 21  1  0  0  0  0
 10 11  2  0  0  0  0
 10 12  1  0  0  0  0
 11 16  1  0  0  0  0
 12 17  2  0  0  0  0
 13 14  1  0  0  0  0
 13 15  1  0  0  0  0
 14 18  1  0  0  0  0
 15 21  1  0  0  0  0
 16 22  2  0  0  0  0
 17 22  1  0  0  0  0
 18 22  1  0  0  0  0
 19 20  1  0  0  0  0
 19 21  1  0  0  0  0
  2 23  1  0  0  0  0
  3 24  1  0  0  0  0
  5 25  1  0  0  0  0
  8 26  1  0  0  0  0
  8 27  1  0  0  0  0
  8 28  1  0  0  0  0
  9 29  1  0  0  0  0
  9 30  1  0  0  0  0
 10 31  1  0  0  0  0
 11 32  1  0  0  0  0
 12 33  1  0  0  0  0
 13 34  1  0  0  0  0
 13 35  1  0  0  0  0
 14 36  1  0  0  0  0
 14 37  1  0  0  0  0
 15 38  1  0  0  0  0
 15 39  1  0  0  0  0
 16 40  1  0  0  0  0
 17 41  1  0  0  0  0
 18 42  1  0  0  0  0
 18 43  1  0  0  0  0
 19 44  1  0  0  0  0
 19 45  1  0  0  0  0
 21 46  1  0  0  0  0
M  END
> <pdb_id>
4Y6P

> <uniprot_id>
Q8IKG4

> <usmiles>
P(=O)(O)(O)C[C@@H](CC(=O)N(O)C)CCCCc1ccccc1

$$$$
R91_A_501
          07202412153D 1   1.00000     0.00000     0
            
 42 43  0  0  0  0            999 V2000
   41.2200   46.8193   63.1058 F   0  0  0  0  0  0  0  0  0  0  0  0
   41.1244   44.6792   63.7397 F   0  0  0  0  0  0  0  0  0  0  0  0
   48.5603   44.8239   63.6812 O   0  0  0  0  0  0  0  0  0  0  0  0
   45.3518   48.3740   68.5335 O   0  0  0  0  0  0  0  0  0  0  0  0
   42.5214   46.1316   64.8229 O   0  0  0  0  0  0  0  0  0  0  0  0
   44.6930   46.5088   66.3265 O   0  0  0  0  0  0  0  0  0  0  0  0
   49.4370   46.0932   59.5472 C   0  0  0  0  0  0  0  0  0  0  0  0
   48.2086   47.4464   61.3127 C   0  0  0  0  0  0  0  0  0  0  0  0
   44.7232   47.3077   69.2473 C   0  0  0  0  0  0  0  0  0  0  0  0
   46.2563   47.8522   67.5522 C   0  0  0  0  0  0  0  0  0  0  0  0
   45.1691   46.0145   68.6269 C   0  0  0  0  0  0  0  0  0  0  0  0
   43.9072   45.3805   62.9494 C   0  0  0  0  0  0  0  0  0  0  0  0
   45.1827   45.1120   62.4555 C   0  0  0  0  0  0  0  0  0  0  0  0
   48.1089   44.9632   61.3631 C   0  0  0  0  0  0  0  0  0  0  0  0
   46.1347   45.7787   64.5527 C   0  0  0  0  0  0  0  0  0  0  0  0
   41.2691   45.9653   64.1698 C   0  0  0  0  0  0  0  0  0  0  0  0
   47.7111   45.0273   62.8193 C   0  0  0  0  0  0  0  0  0  0  0  0
   48.9737   46.1630   61.0061 C   0  0  0  0  0  0  0  0  0  0  0  0
   45.7496   46.4482   67.3043 C   0  0  1  0  0  0  0  0  0  0  0  0
   43.7454   45.8543   64.2553 C   0  0  0  0  0  0  0  0  0  0  0  0
   44.8619   46.0471   65.0491 C   0  0  0  0  0  0  0  0  0  0  0  0
   46.3037   45.3114   63.2612 C   0  0  0  0  0  0  0  0  0  0  0  0
   49.9319   45.2376   59.3952 H   0  0  0  0  0  0  0  0  0  0  0  0
   48.6413   46.1301   58.9427 H   0  0  0  0  0  0  0  0  0  0  0  0
   50.0403   46.8664   59.3517 H   0  0  0  0  0  0  0  0  0  0  0  0
   47.9281   47.4461   62.2725 H   0  0  0  0  0  0  0  0  0  0  0  0
   48.7975   48.2355   61.1377 H   0  0  0  0  0  0  0  0  0  0  0  0
   47.3985   47.4991   60.7287 H   0  0  0  0  0  0  0  0  0  0  0  0
   43.7291   47.3925   69.1796 H   0  0  0  0  0  0  0  0  0  0  0  0
   44.9953   47.3352   70.2092 H   0  0  0  0  0  0  0  0  0  0  0  0
   47.1924   47.8362   67.9035 H   0  0  0  0  0  0  0  0  0  0  0  0
   46.2242   48.3958   66.7135 H   0  0  0  0  0  0  0  0  0  0  0  0
   44.3952   45.3955   68.4931 H   0  0  0  0  0  0  0  0  0  0  0  0
   45.8612   45.5656   69.1922 H   0  0  0  0  0  0  0  0  0  0  0  0
   43.1063   45.2340   62.3689 H   0  0  0  0  0  0  0  0  0  0  0  0
   45.2945   44.7754   61.5205 H   0  0  0  0  0  0  0  0  0  0  0  0
   47.2862   44.9672   60.7947 H   0  0  0  0  0  0  0  0  0  0  0  0
   48.6244   44.1225   61.1974 H   0  0  0  0  0  0  0  0  0  0  0  0
   46.9344   45.9251   65.1350 H   0  0  0  0  0  0  0  0  0  0  0  0
   40.5309   46.1867   64.8070 H   0  0  0  0  0  0  0  0  0  0  0  0
   49.7861   46.1418   61.5889 H   0  0  0  0  0  0  0  0  0  0  0  0
   46.4864   45.8394   67.0103 H   0  0  0  0  0  0  0  0  0  0  0  0
  1 16  1  0  0  0  0
  2 16  1  0  0  0  0
  3 17  2  0  0  0  0
  4  9  1  0  0  0  0
  4 10  1  0  0  0  0
  5 16  1  0  0  0  0
  5 20  1  0  0  0  0
  6 19  1  0  0  0  0
  6 21  1  0  0  0  0
  7 18  1  0  0  0  0
  8 18  1  0  0  0  0
  9 11  1  0  0  0  0
 10 19  1  0  0  0  0
 11 19  1  0  0  0  0
 12 13  1  0  0  0  0
 12 20  2  0  0  0  0
 13 22  2  0  0  0  0
 14 17  1  0  0  0  0
 14 18  1  0  0  0  0
 15 21  2  0  0  0  0
 15 22  1  0  0  0  0
 17 22  1  0  0  0  0
 20 21  1  0  0  0  0
  7 23  1  0  0  0  0
  7 24  1  0  0  0  0
  7 25  1  0  0  0  0
  8 26  1  0  0  0  0
  8 27  1  0  0  0  0
  8 28  1  0  0  0  0
  9 29  1  0  0  0  0
  9 30  1  0  0  0  0
 10 31  1  0  0  0  0
 10 32  1  0  0  0  0
 11 33  1  0  0  0  0
 11 34  1  0  0  0  0
 12 35  1  0  0  0  0
 13 36  1  0  0  0  0
 14 37  1  0  0  0  0
 14 38  1  0  0  0  0
 15 39  1  0  0  0  0
 16 40  1  0  0  0  0
 18 41  1  0  0  0  0
 19 42  1  0  0  0  0
M  END
> <pdb_id>
5WH5

> <uniprot_id>
Q08499

> <usmiles>
FC(F)Oc1c(O[C@H]2COCC2)cc(cc1)C(=O)CC(C)C

$$$$
R9B_A_1438
          07212401303D 1   1.00000     0.00000     0
            
 62 66  0  0  0  0            999 V2000
   33.7416  -14.2842   29.7236 Cl  0  0  0  0  0  0  0  0  0  0  0  0
   49.0066  -22.5171   33.1445 O   0  0  0  0  0  0  0  0  0  0  0  0
   39.8966  -15.7902   25.1315 O   0  0  0  0  0  0  0  0  0  0  0  0
   39.6957  -18.9590   30.1433 O   0  0  0  0  0  0  0  0  0  0  0  0
   42.9546  -20.7306   27.8796 O   0  0  0  0  0  0  0  0  0  0  0  0
   48.0128  -20.5062   29.1109 O   0  0  0  0  0  0  0  0  0  0  0  0
   38.3754  -19.0889   28.3270 N   0  0  0  0  0  0  0  0  0  0  0  0
   46.8656  -22.4035   32.5695 N   0  0  0  0  0  0  0  0  0  0  0  0
   38.2970  -14.5873   26.0975 N   0  0  0  0  0  0  0  0  0  0  0  0
   41.3614  -20.9572   29.4300 N   0  0  0  0  0  0  0  0  0  0  0  0
   41.2700  -25.5396   28.7174 C   0  0  0  0  0  0  0  0  0  0  0  0
   40.6404  -25.0311   29.8538 C   0  0  0  0  0  0  0  0  0  0  0  0
   41.2748  -24.8517   27.5059 C   0  0  0  0  0  0  0  0  0  0  0  0
   37.4844  -18.0055   28.6648 C   0  0  0  0  0  0  0  0  0  0  0  0
   35.3894  -13.3037   27.8968 C   0  0  0  0  0  0  0  0  0  0  0  0
   39.9918  -23.8081   29.7775 C   0  0  0  0  0  0  0  0  0  0  0  0
   40.6215  -23.6311   27.4301 C   0  0  0  0  0  0  0  0  0  0  0  0
   36.4717  -13.3549   27.0489 C   0  0  0  0  0  0  0  0  0  0  0  0
   44.5114  -22.3421   32.0093 C   0  0  0  0  0  0  0  0  0  0  0  0
   43.4972  -22.0145   31.1625 C   0  0  0  0  0  0  0  0  0  0  0  0
   48.5586  -21.5013   31.1465 C   0  0  0  0  0  0  0  0  0  0  0  0
   35.8299  -15.5719   28.6632 C   0  0  0  0  0  0  0  0  0  0  0  0
   38.7522  -16.8933   26.7933 C   0  0  0  0  0  0  0  0  0  0  0  0
   39.2814  -21.8109   28.4941 C   0  0  0  0  0  0  0  0  0  0  0  0
   45.1098  -21.0156   29.6597 C   0  0  0  0  0  0  0  0  0  0  0  0
   35.0916  -14.4070   28.6791 C   0  0  0  0  0  0  0  0  0  0  0  0
   48.1638  -22.1578   32.3304 C   0  0  0  0  0  0  0  0  0  0  0  0
   38.9992  -15.7432   25.9628 C   0  0  0  0  0  0  0  0  0  0  0  0
   39.4354  -19.4801   29.0704 C   0  0  0  0  0  0  0  0  0  0  0  0
   42.6672  -20.9728   29.0347 C   0  0  0  0  0  0  0  0  0  0  0  0
   47.5988  -21.1066   30.2365 C   0  0  0  0  0  0  0  0  0  0  0  0
   39.9841  -23.1229   28.5690 C   0  0  0  0  0  0  0  0  0  0  0  0
   40.2481  -20.6306   28.5374 C   0  0  1  0  0  0  0  0  0  0  0  0
   45.8430  -22.0397   31.7055 C   0  0  0  0  0  0  0  0  0  0  0  0
   37.2468  -14.5158   26.9962 C   0  0  0  0  0  0  0  0  0  0  0  0
   43.7751  -21.3219   29.9722 C   0  0  0  0  0  0  0  0  0  0  0  0
   37.7568  -16.8504   27.7306 C   0  0  0  0  0  0  0  0  0  0  0  0
   46.1553  -21.3747   30.5153 C   0  0  0  0  0  0  0  0  0  0  0  0
   36.9277  -15.6313   27.8038 C   0  0  0  0  0  0  0  0  0  0  0  0
   47.3451  -20.2069   28.4292 H   0  0  0  0  0  0  0  0  0  0  0  0
   38.1956  -19.5882   27.4795 H   0  0  0  0  0  0  0  0  0  0  0  0
   46.6224  -22.8749   33.4173 H   0  0  0  0  0  0  0  0  0  0  0  0
   38.5392  -13.7883   25.5471 H   0  0  0  0  0  0  0  0  0  0  0  0
   41.1533  -21.1813   30.3822 H   0  0  0  0  0  0  0  0  0  0  0  0
   41.7319  -26.4247   28.7741 H   0  0  0  0  0  0  0  0  0  0  0  0
   40.6566  -25.5425   30.7130 H   0  0  0  0  0  0  0  0  0  0  0  0
   41.7405  -25.2309   26.7063 H   0  0  0  0  0  0  0  0  0  0  0  0
   37.6441  -17.7198   29.6097 H   0  0  0  0  0  0  0  0  0  0  0  0
   36.5357  -18.3050   28.5629 H   0  0  0  0  0  0  0  0  0  0  0  0
   34.8248  -12.4799   27.9476 H   0  0  0  0  0  0  0  0  0  0  0  0
   39.5360  -23.4247   30.5808 H   0  0  0  0  0  0  0  0  0  0  0  0
   40.6056  -23.1190   26.5714 H   0  0  0  0  0  0  0  0  0  0  0  0
   36.7012  -12.5683   26.4756 H   0  0  0  0  0  0  0  0  0  0  0  0
   44.2998  -22.8093   32.8677 H   0  0  0  0  0  0  0  0  0  0  0  0
   42.5559  -22.2665   31.3873 H   0  0  0  0  0  0  0  0  0  0  0  0
   49.5262  -21.3231   30.9677 H   0  0  0  0  0  0  0  0  0  0  0  0
   35.5871  -16.3467   29.2470 H   0  0  0  0  0  0  0  0  0  0  0  0
   39.3055  -17.7193   26.6854 H   0  0  0  0  0  0  0  0  0  0  0  0
   38.6518  -21.7390   29.2678 H   0  0  0  0  0  0  0  0  0  0  0  0
   38.7645  -21.7716   27.6390 H   0  0  0  0  0  0  0  0  0  0  0  0
   45.3160  -20.5317   28.8092 H   0  0  0  0  0  0  0  0  0  0  0  0
   40.5863  -20.4230   27.6195 H   0  0  0  0  0  0  0  0  0  0  0  0
  1 26  1  0  0  0  0
  2 27  2  0  0  0  0
  3 28  2  0  0  0  0
  4 29  2  0  0  0  0
  5 30  2  0  0  0  0
  6 31  1  0  0  0  0
  7 14  1  0  0  0  0
  7 29  1  0  0  0  0
  8 27  1  0  0  0  0
  8 34  1  0  0  0  0
  9 28  1  0  0  0  0
  9 35  1  0  0  0  0
 10 30  1  0  0  0  0
 10 33  1  0  0  0  0
 11 12  2  0  0  0  0
 11 13  1  0  0  0  0
 12 16  1  0  0  0  0
 13 17  2  0  0  0  0
 14 37  1  0  0  0  0
 15 18  1  0  0  0  0
 15 26  2  0  0  0  0
 16 32  2  0  0  0  0
 17 32  1  0  0  0  0
 18 35  2  0  0  0  0
 19 20  1  0  0  0  0
 19 34  2  0  0  0  0
 20 36  2  0  0  0  0
 21 27  1  0  0  0  0
 21 31  2  0  0  0  0
 22 26  1  0  0  0  0
 22 39  2  0  0  0  0
 23 28  1  0  0  0  0
 23 37  2  0  0  0  0
 24 32  1  0  0  0  0
 24 33  1  0  0  0  0
 25 36  1  0  0  0  0
 25 38  2  0  0  0  0
 29 33  1  0  0  0  0
 30 36  1  0  0  0  0
 31 38  1  0  0  0  0
 34 38  1  0  0  0  0
 35 39  1  0  0  0  0
 37 39  1  0  0  0  0
  6 40  1  0  0  0  0
  7 41  1  0  0  0  0
  8 42  1  0  0  0  0
  9 43  1  0  0  0  0
 10 44  1  0  0  0  0
 11 45  1  0  0  0  0
 12 46  1  0  0  0  0
 13 47  1  0  0  0  0
 14 48  1  0  0  0  0
 14 49  1  0  0  0  0
 15 50  1  0  0  0  0
 16 51  1  0  0  0  0
 17 52  1  0  0  0  0
 18 53  1  0  0  0  0
 19 54  1  0  0  0  0
 20 55  1  0  0  0  0
 21 56  1  0  0  0  0
 22 57  1  0  0  0  0
 23 58  1  0  0  0  0
 24 59  1  0  0  0  0
 24 60  1  0  0  0  0
 25 61  1  0  0  0  0
 33 62  1  0  0  0  0
M  END
> <pdb_id>
4CRF

> <uniprot_id>
P03951

> <usmiles>
Clc1cc2c(NC(=O)C=C2CNC(=O)[C@@H](NC(=O)c3cc4c(NC(=O)C=C4O)cc3)Cc5ccccc5)cc1

$$$$
RA1_A_302
          07192416293D 1   1.00000     0.00000     0
            
 33 34  0  0  0  0            999 V2000
   -1.9875    8.0229   14.6499 Cl  0  0  0  0  0  0  0  0  0  0  0  0
   -5.9194    0.9577   16.9063 S   0  0  0  0  0  0  0  0  0  0  0  0
   -5.3764    1.0629   18.2333 O   0  0  0  0  0  0  0  0  0  0  0  0
   -7.3639    1.0651   16.7822 O   0  0  0  0  0  0  0  0  0  0  0  0
   -0.4509    9.4847    8.9164 O   0  5  0  0  0  0  0  0  0  0  0  0
   -0.5713   10.9664   10.4010 O   0  0  0  0  0  0  0  0  0  0  0  0
   -5.4030    6.4812   12.9120 O   0  0  0  0  0  0  0  0  0  0  0  0
   -5.3641   -0.3862   16.2555 N   0  0  0  0  0  0  0  0  0  0  0  0
   -3.6231    5.3249   13.6332 N   0  0  0  0  0  0  0  0  0  0  0  0
   -0.8476    9.8702    9.9898 N   0  3  0  0  0  0  0  0  0  0  0  0
   -6.0996    3.2796   15.5360 C   0  0  0  0  0  0  0  0  0  0  0  0
   -3.8950    2.3176   15.6573 C   0  0  0  0  0  0  0  0  0  0  0  0
   -5.6253    4.3076   14.7506 C   0  0  0  0  0  0  0  0  0  0  0  0
   -3.3863    3.3633   14.9077 C   0  0  0  0  0  0  0  0  0  0  0  0
   -2.6355    8.1896   10.1107 C   0  0  0  0  0  0  0  0  0  0  0  0
   -3.4266    7.3330   10.8440 C   0  0  0  0  0  0  0  0  0  0  0  0
   -1.4935    8.9034   12.1906 C   0  0  0  0  0  0  0  0  0  0  0  0
   -2.2866    8.0106   12.9397 C   0  0  0  0  0  0  0  0  0  0  0  0
   -5.2830    2.2467   16.0030 C   0  0  0  0  0  0  0  0  0  0  0  0
   -4.1725    6.3120   12.9182 C   0  0  0  0  0  0  0  0  0  0  0  0
   -4.2631    4.3674   14.4320 C   0  0  0  0  0  0  0  0  0  0  0  0
   -1.6824    8.9613   10.7991 C   0  0  0  0  0  0  0  0  0  0  0  0
   -3.2468    7.2461   12.2324 C   0  0  0  0  0  0  0  0  0  0  0  0
   -5.7281   -0.4832   15.3292 H   0  0  0  0  0  0  0  0  0  0  0  0
   -4.3654   -0.3511   16.2192 H   0  0  0  0  0  0  0  0  0  0  0  0
   -2.6259    5.2615   13.5928 H   0  0  0  0  0  0  0  0  0  0  0  0
   -7.0688    3.2726   15.7820 H   0  0  0  0  0  0  0  0  0  0  0  0
   -3.2781    1.5933   15.9653 H   0  0  0  0  0  0  0  0  0  0  0  0
   -6.2517    5.0084   14.4093 H   0  0  0  0  0  0  0  0  0  0  0  0
   -2.4084    3.4093   14.7040 H   0  0  0  0  0  0  0  0  0  0  0  0
   -2.7359    8.2607    9.1183 H   0  0  0  0  0  0  0  0  0  0  0  0
   -4.1234    6.7775   10.3902 H   0  0  0  0  0  0  0  0  0  0  0  0
   -0.8123    9.4821   12.6389 H   0  0  0  0  0  0  0  0  0  0  0  0
  1 18  1  0  0  0  0
  2  3  2  0  0  0  0
  2  4  2  0  0  0  0
  2  8  1  0  0  0  0
  2 19  1  0  0  0  0
  5 10  1  0  0  0  0
  6 10  2  0  0  0  0
  7 20  2  0  0  0  0
  9 20  1  0  0  0  0
  9 21  1  0  0  0  0
 10 22  1  0  0  0  0
 11 13  1  0  0  0  0
 11 19  2  0  0  0  0
 12 14  2  0  0  0  0
 12 19  1  0  0  0  0
 13 21  2  0  0  0  0
 14 21  1  0  0  0  0
 15 16  1  0  0  0  0
 15 22  2  0  0  0  0
 16 23  2  0  0  0  0
 17 18  2  0  0  0  0
 17 22  1  0  0  0  0
 18 23  1  0  0  0  0
 20 23  1  0  0  0  0
  8 24  1  0  0  0  0
  8 25  1  0  0  0  0
  9 26  1  0  0  0  0
 11 27  1  0  0  0  0
 12 28  1  0  0  0  0
 13 29  1  0  0  0  0
 14 30  1  0  0  0  0
 15 31  1  0  0  0  0
 16 32  1  0  0  0  0
 17 33  1  0  0  0  0
M  CHG  2   5  -1  10   1
M  END
> <pdb_id>
5NXG

> <uniprot_id>
P00918

> <usmiles>
Clc1c(ccc([N+]([O-])=O)c1)C(=O)Nc2ccc(S(=O)(=O)N)cc2

$$$$
RAB_A_602
          07192421323D 1   1.00000     0.00000     0
            
 32 34  0  0  0  0            999 V2000
   24.2450    7.4600   15.1760 O   0  0  0  0  0  0  0  0  0  0  0  0
   18.5430    8.5010   15.4680 O   0  0  0  0  0  0  0  0  0  0  0  0
   20.5820    6.4820   17.1070 O   0  0  0  0  0  0  0  0  0  0  0  0
   21.8440    9.1240   15.1180 O   0  0  0  0  0  0  0  0  0  0  0  0
   18.6060   14.8180   13.2010 N   0  0  0  0  0  0  0  0  0  0  0  0
   19.8560   14.7900   15.1570 N   0  0  0  0  0  0  0  0  0  0  0  0
   20.6370   12.7540   16.0150 N   0  0  0  0  0  0  0  0  0  0  0  0
   18.9720   11.7640   13.1690 N   0  0  0  0  0  0  0  0  0  0  0  0
   20.0690   10.7530   14.7460 N   0  0  0  0  0  0  0  0  0  0  0  0
   22.9230    6.9220   14.9930 C   0  0  0  0  0  0  0  0  0  0  0  0
   20.5240   14.0780   16.0870 C   0  0  0  0  0  0  0  0  0  0  0  0
   19.3810   10.5580   13.6180 C   0  0  0  0  0  0  0  0  0  0  0  0
   20.7290    9.7530   15.6740 C   0  0  1  0  0  0  0  0  0  0  0  0
   19.8050    8.6050   16.1480 C   0  0  2  0  0  0  0  0  0  0  0  0
   20.6080    7.3200   15.9490 C   0  0  1  0  0  0  0  0  0  0  0  0
   19.2690   14.1070   14.1290 C   0  0  0  0  0  0  0  0  0  0  0  0
   21.9910    7.8490   15.7560 C   0  0  2  0  0  0  0  0  0  0  0  0
   20.0710   12.0560   15.0140 C   0  0  0  0  0  0  0  0  0  0  0  0
   19.3930   12.7100   14.0210 C   0  0  0  0  0  0  0  0  0  0  0  0
   24.9076    6.8877   14.6928 H   0  0  0  0  0  0  0  0  0  0  0  0
   18.0236    7.7340   15.8447 H   0  0  0  0  0  0  0  0  0  0  0  0
   21.1180    5.6559   16.9328 H   0  0  0  0  0  0  0  0  0  0  0  0
   18.1643   14.3512   12.4348 H   0  0  0  0  0  0  0  0  0  0  0  0
   18.5544   15.8138   13.2767 H   0  0  0  0  0  0  0  0  0  0  0  0
   22.8703    5.9940   15.3619 H   0  0  0  0  0  0  0  0  0  0  0  0
   22.6834    6.9089   14.0222 H   0  0  0  0  0  0  0  0  0  0  0  0
   20.9475   14.5596   16.8543 H   0  0  0  0  0  0  0  0  0  0  0  0
   19.2008    9.6757   13.1832 H   0  0  0  0  0  0  0  0  0  0  0  0
   21.0353   10.2499   16.4860 H   0  0  0  0  0  0  0  0  0  0  0  0
   19.6300    8.7216   17.1256 H   0  0  0  0  0  0  0  0  0  0  0  0
   20.2967    6.8234   15.1388 H   0  0  0  0  0  0  0  0  0  0  0  0
   22.3878    8.0041   16.6607 H   0  0  0  0  0  0  0  0  0  0  0  0
  1 10  1  0  0  0  0
  2 14  1  0  0  0  0
  3 15  1  0  0  0  0
  4 13  1  0  0  0  0
  4 17  1  0  0  0  0
  5 16  1  0  0  0  0
  6 11  1  0  0  0  0
  6 16  2  0  0  0  0
  7 11  2  0  0  0  0
  7 18  1  0  0  0  0
  8 12  2  0  0  0  0
  8 19  1  0  0  0  0
  9 12  1  0  0  0  0
  9 13  1  0  0  0  0
  9 18  1  0  0  0  0
 10 17  1  0  0  0  0
 13 14  1  0  0  0  0
 14 15  1  0  0  0  0
 15 17  1  0  0  0  0
 16 19  1  0  0  0  0
 18 19  2  0  0  0  0
  1 20  1  0  0  0  0
  2 21  1  0  0  0  0
  3 22  1  0  0  0  0
  5 23  1  0  0  0  0
  5 24  1  0  0  0  0
 10 25  1  0  0  0  0
 10 26  1  0  0  0  0
 11 27  1  0  0  0  0
 12 28  1  0  0  0  0
 13 29  1  0  0  0  0
 14 30  1  0  0  0  0
 15 31  1  0  0  0  0
 17 32  1  0  0  0  0
M  END
> <pdb_id>
3GLQ

> <uniprot_id>
Q3JY79

> <usmiles>
O1[C@@H](N2c3ncnc(N)c3N=C2)[C@@H](O)[C@H](O)[C@H]1CO

$$$$
RC1_A_501
          07192419173D 1   1.00000     0.00000     0
            
 41 41  0  0  0  0            999 V2000
   53.6605    7.9424   27.8301 P   0  0  0  0  0  0  0  0  0  0  0  0
   61.0733    8.9436   30.4620 P   0  0  0  0  0  0  0  0  0  0  0  0
   52.6255    8.9001   27.2369 O   0  0  0  0  0  0  0  0  0  0  0  0
   53.3481    7.4844   29.3055 O   0  0  0  0  0  0  0  0  0  0  0  0
   54.1649    6.8705   26.8331 O   0  0  0  0  0  0  0  0  0  0  0  0
   60.2380    8.4485   31.6617 O   0  0  0  0  0  0  0  0  0  0  0  0
   61.6736   10.3002   30.7377 O   0  0  0  0  0  0  0  0  0  0  0  0
   62.1292    7.8643   30.1176 O   0  0  0  0  0  0  0  0  0  0  0  0
   55.2758   13.4117   25.9843 O   0  0  0  0  0  0  0  0  0  0  0  0
   56.9579   14.2354   27.0828 O   0  0  0  0  0  0  0  0  0  0  0  0
   60.6519   10.5552   27.0704 O   0  0  0  0  0  0  0  0  0  0  0  0
   61.1521    8.4576   27.6213 O   0  0  0  0  0  0  0  0  0  0  0  0
   56.5539    8.8027   30.4375 O   0  0  0  0  0  0  0  0  0  0  0  0
   55.0697    8.8354   27.9870 O   0  0  0  0  0  0  0  0  0  0  0  0
   59.0251   10.1453   29.3907 O   0  0  0  0  0  0  0  0  0  0  0  0
   59.1821    7.4424   28.9857 C   0  0  0  0  0  0  0  0  0  0  0  0
   55.0872   11.3706   28.0369 C   0  0  0  0  0  0  0  0  0  0  0  0
   57.6544   11.7010   28.1339 C   0  0  0  0  0  0  0  0  0  0  0  0
   56.1599   13.3562   26.8359 C   0  0  0  0  0  0  0  0  0  0  0  0
   60.5309    9.5375   27.8235 C   0  0  0  0  0  0  0  0  0  0  0  0
   56.6050   10.0632   29.7531 C   0  0  2  0  0  0  0  0  0  0  0  0
   55.2309   10.1178   28.9084 C   0  0  2  0  0  0  0  0  0  0  0  0
   57.7861   10.2290   28.7335 C   0  0  2  0  0  0  0  0  0  0  0  0
   56.2694   12.1275   27.6686 C   0  0  0  0  0  0  0  0  0  0  0  0
   59.8118    8.9410   29.1055 C   0  0  2  0  0  0  0  0  0  0  0  0
   52.8925    9.1433   26.3043 H   0  0  0  0  0  0  0  0  0  0  0  0
   54.0659    6.8636   29.6208 H   0  0  0  0  0  0  0  0  0  0  0  0
   59.8532    7.5497   31.4517 H   0  0  0  0  0  0  0  0  0  0  0  0
   62.2080   10.5954   29.9457 H   0  0  0  0  0  0  0  0  0  0  0  0
   54.6611   12.6344   25.8504 H   0  0  0  0  0  0  0  0  0  0  0  0
   60.1385   11.3895   27.2712 H   0  0  0  0  0  0  0  0  0  0  0  0
   57.3795    8.6899   30.9904 H   0  0  0  0  0  0  0  0  0  0  0  0
   58.4983    7.4254   28.2563 H   0  0  0  0  0  0  0  0  0  0  0  0
   59.9106    6.7906   28.7750 H   0  0  0  0  0  0  0  0  0  0  0  0
   58.7511    7.1917   29.8525 H   0  0  0  0  0  0  0  0  0  0  0  0
   54.1841   11.6646   27.7240 H   0  0  0  0  0  0  0  0  0  0  0  0
   58.2709   11.7649   27.3491 H   0  0  0  0  0  0  0  0  0  0  0  0
   57.9478   12.3439   28.8414 H   0  0  0  0  0  0  0  0  0  0  0  0
   56.6240   10.8097   30.4182 H   0  0  0  0  0  0  0  0  0  0  0  0
   54.4744   10.1166   29.5624 H   0  0  0  0  0  0  0  0  0  0  0  0
   57.7245    9.5446   28.0070 H   0  0  0  0  0  0  0  0  0  0  0  0
  1  3  1  0  0  0  0
  1  4  1  0  0  0  0
  1  5  2  0  0  0  0
  1 14  1  0  0  0  0
  2  6  1  0  0  0  0
  2  7  1  0  0  0  0
  2  8  2  0  0  0  0
  2 25  1  0  0  0  0
  9 19  1  0  0  0  0
 10 19  2  0  0  0  0
 11 20  1  0  0  0  0
 12 20  2  0  0  0  0
 13 21  1  0  0  0  0
 14 22  1  0  0  0  0
 15 23  1  0  0  0  0
 15 25  1  0  0  0  0
 16 25  1  0  0  0  0
 17 22  1  0  0  0  0
 17 24  2  0  0  0  0
 18 23  1  0  0  0  0
 18 24  1  0  0  0  0
 19 24  1  0  0  0  0
 20 25  1  0  0  0  0
 21 22  1  0  0  0  0
 21 23  1  0  0  0  0
  3 26  1  0  0  0  0
  4 27  1  0  0  0  0
  6 28  1  0  0  0  0
  7 29  1  0  0  0  0
  9 30  1  0  0  0  0
 11 31  1  0  0  0  0
 13 32  1  0  0  0  0
 16 33  1  0  0  0  0
 16 34  1  0  0  0  0
 16 35  1  0  0  0  0
 17 36  1  0  0  0  0
 18 37  1  0  0  0  0
 18 38  1  0  0  0  0
 21 39  1  0  0  0  0
 22 40  1  0  0  0  0
 23 41  1  0  0  0  0
M  END
> <pdb_id>
1X8T

> <uniprot_id>
P0A6D3

> <usmiles>
P(=O)(O[C@@H]1C=C(C(=O)O)C[C@@H](O[C@](P(=O)(O)O)(C(=O)O)C)[C@@H]1O)(O)O

$$$$
RC1_A_601
          07202408483D 1   1.00000     0.00000     0
            
 41 41  0  0  0  0            999 V2000
 -127.4296   31.0636  123.1570 P   0  0  0  0  0  0  0  0  0  0  0  0
 -133.6412   30.2563  128.0866 P   0  0  0  0  0  0  0  0  0  0  0  0
 -125.9958   31.0154  123.5460 O   0  0  0  0  0  0  0  0  0  0  0  0
 -127.7062   32.2699  122.3452 O   0  0  0  0  0  0  0  0  0  0  0  0
 -127.7814   29.8257  122.4201 O   0  0  0  0  0  0  0  0  0  0  0  0
 -134.7598   30.7352  127.1507 O   0  0  0  0  0  0  0  0  0  0  0  0
 -133.4507   31.2457  129.2292 O   0  0  0  0  0  0  0  0  0  0  0  0
 -133.9329   28.8268  128.5490 O   0  0  0  0  0  0  0  0  0  0  0  0
 -125.5207   31.9848  128.4587 O   0  0  0  0  0  0  0  0  0  0  0  0
 -127.0154   32.1819  130.0028 O   0  0  0  0  0  0  0  0  0  0  0  0
 -131.0223   27.8651  127.0286 O   0  0  0  0  0  0  0  0  0  0  0  0
 -130.9863   28.9254  128.9437 O   0  0  0  0  0  0  0  0  0  0  0  0
 -130.8184   32.3433  124.7474 O   0  0  0  0  0  0  0  0  0  0  0  0
 -128.2858   31.1678  124.4705 O   0  0  0  0  0  0  0  0  0  0  0  0
 -131.4583   31.3562  127.4350 O   0  0  0  0  0  0  0  0  0  0  0  0
 -132.4046   29.7138  125.6628 C   0  0  0  0  0  0  0  0  0  0  0  0
 -127.4055   32.4647  126.4130 C   0  0  0  0  0  0  0  0  0  0  0  0
 -129.0606   31.4633  128.0588 C   0  0  0  0  0  0  0  0  0  0  0  0
 -126.6841   32.0824  128.8254 C   0  0  0  0  0  0  0  0  0  0  0  0
 -131.3138   28.8534  127.7532 C   0  0  0  0  0  0  0  0  0  0  0  0
 -129.8956   32.4645  125.8475 C   0  0  2  0  0  0  0  0  0  0  0  0
 -128.4620   32.4001  125.2816 C   0  0  2  0  0  0  0  0  0  0  0  0
 -130.1005   31.3404  126.8968 C   0  0  2  0  0  0  0  0  0  0  0  0
 -127.7437   32.0032  127.7541 C   0  0  0  0  0  0  0  0  0  0  0  0
 -132.1115   30.0478  127.1366 C   0  0  2  0  0  0  0  0  0  0  0  0
 -125.8262   30.1956  124.0931 H   0  0  0  0  0  0  0  0  0  0  0  0
 -128.6735   32.2869  122.0923 H   0  0  0  0  0  0  0  0  0  0  0  0
 -134.8752   30.0783  126.4057 H   0  0  0  0  0  0  0  0  0  0  0  0
 -132.7203   30.9230  129.8312 H   0  0  0  0  0  0  0  0  0  0  0  0
 -125.3083   31.9064  127.4847 H   0  0  0  0  0  0  0  0  0  0  0  0
 -131.3067   27.8468  126.0700 H   0  0  0  0  0  0  0  0  0  0  0  0
 -131.7560   32.3828  125.0930 H   0  0  0  0  0  0  0  0  0  0  0  0
 -131.5425   29.6054  125.1678 H   0  0  0  0  0  0  0  0  0  0  0  0
 -132.9276   28.8630  125.6115 H   0  0  0  0  0  0  0  0  0  0  0  0
 -132.9340   30.4559  125.2518 H   0  0  0  0  0  0  0  0  0  0  0  0
 -127.1318   33.4228  126.4979 H   0  0  0  0  0  0  0  0  0  0  0  0
 -126.6236   31.9203  126.1091 H   0  0  0  0  0  0  0  0  0  0  0  0
 -129.2948   31.1780  128.9882 H   0  0  0  0  0  0  0  0  0  0  0  0
 -130.0312   33.3511  126.2897 H   0  0  0  0  0  0  0  0  0  0  0  0
 -128.3270   33.1896  124.6830 H   0  0  0  0  0  0  0  0  0  0  0  0
 -129.9565   30.4612  126.4426 H   0  0  0  0  0  0  0  0  0  0  0  0
  1  3  1  0  0  0  0
  1  4  1  0  0  0  0
  1  5  2  0  0  0  0
  1 14  1  0  0  0  0
  2  6  1  0  0  0  0
  2  7  1  0  0  0  0
  2  8  2  0  0  0  0
  2 25  1  0  0  0  0
  9 19  1  0  0  0  0
 10 19  2  0  0  0  0
 11 20  1  0  0  0  0
 12 20  2  0  0  0  0
 13 21  1  0  0  0  0
 14 22  1  0  0  0  0
 15 23  1  0  0  0  0
 15 25  1  0  0  0  0
 16 25  1  0  0  0  0
 17 22  1  0  0  0  0
 17 24  1  0  0  0  0
 18 23  1  0  0  0  0
 18 24  2  0  0  0  0
 19 24  1  0  0  0  0
 20 25  1  0  0  0  0
 21 22  1  0  0  0  0
 21 23  1  0  0  0  0
  3 26  1  0  0  0  0
  4 27  1  0  0  0  0
  6 28  1  0  0  0  0
  7 29  1  0  0  0  0
  9 30  1  0  0  0  0
 11 31  1  0  0  0  0
 13 32  1  0  0  0  0
 16 33  1  0  0  0  0
 16 34  1  0  0  0  0
 16 35  1  0  0  0  0
 17 36  1  0  0  0  0
 17 37  1  0  0  0  0
 18 38  1  0  0  0  0
 21 39  1  0  0  0  0
 22 40  1  0  0  0  0
 23 41  1  0  0  0  0
M  END
> <pdb_id>
2PQC

> <uniprot_id>
Q9R4E4

> <usmiles>
P(=O)(O[C@H]1[C@@H](O)[C@H](O[C@](P(=O)(O)O)(C(=O)O)C)C=C(C(=O)O)C1)(O)O

$$$$
RC5_B_501
          07202406173D 1   1.00000     0.00000     0
            
 43 43  0  0  0  0            999 V2000
   -0.8383   16.1165   21.5278 P   0  0  0  0  0  0  0  0  0  0  0  0
   -2.2032   15.9444   22.2053 O   0  0  0  0  0  0  0  0  0  0  0  0
   -1.0550   16.6892   20.1848 O   0  0  0  0  0  0  0  0  0  0  0  0
    0.0184   17.0556   22.3190 O   0  0  0  0  0  0  0  0  0  0  0  0
    5.0192   14.2869   18.6010 O   0  0  0  0  0  0  0  0  0  0  0  0
    3.7509   15.2420   20.7876 O   0  0  0  0  0  0  0  0  0  0  0  0
    3.9791   13.6202   19.2547 N   0  0  0  0  0  0  0  0  0  0  0  0
    3.6127   12.3262   18.6805 C   0  0  0  0  0  0  0  0  0  0  0  0
   -0.1353   14.4243   21.4518 C   0  0  0  0  0  0  0  0  0  0  0  0
    2.9285   10.5056   15.4539 C   0  0  0  0  0  0  0  0  0  0  0  0
    2.5352    9.7437   16.5336 C   0  0  0  0  0  0  0  0  0  0  0  0
    2.2027   11.6478   15.1130 C   0  0  0  0  0  0  0  0  0  0  0  0
   -0.0877   12.2357   19.1805 C   0  0  0  0  0  0  0  0  0  0  0  0
    1.4141   10.1050   17.2792 C   0  0  0  0  0  0  0  0  0  0  0  0
    1.0807   12.0218   15.8535 C   0  0  0  0  0  0  0  0  0  0  0  0
    0.4321   13.6789   19.0840 C   0  0  0  0  0  0  0  0  0  0  0  0
   -0.5130   11.6519   17.8130 C   0  0  0  0  0  0  0  0  0  0  0  0
    2.1775   13.5360   20.9871 C   0  0  0  0  0  0  0  0  0  0  0  0
    3.3773   14.1559   20.3303 C   0  0  0  0  0  0  0  0  0  0  0  0
    0.9642   14.2956   20.4165 C   0  0  2  0  0  0  0  0  0  0  0  0
    0.6920   11.2538   16.9609 C   0  0  0  0  0  0  0  0  0  0  0  0
   -2.0756   15.5566   23.1182 H   0  0  0  0  0  0  0  0  0  0  0  0
   -0.1738   16.8086   19.7272 H   0  0  0  0  0  0  0  0  0  0  0  0
    5.3364   13.7348   17.8299 H   0  0  0  0  0  0  0  0  0  0  0  0
    2.8651   11.9260   19.2104 H   0  0  0  0  0  0  0  0  0  0  0  0
    3.3191   12.4531   17.7330 H   0  0  0  0  0  0  0  0  0  0  0  0
    4.4035   11.7146   18.7053 H   0  0  0  0  0  0  0  0  0  0  0  0
   -0.8678   13.7832   21.2224 H   0  0  0  0  0  0  0  0  0  0  0  0
    0.2410   14.1932   22.3490 H   0  0  0  0  0  0  0  0  0  0  0  0
    3.7301   10.2411   14.9177 H   0  0  0  0  0  0  0  0  0  0  0  0
    3.0567    8.9278   16.7831 H   0  0  0  0  0  0  0  0  0  0  0  0
    2.4889   12.2026   14.3318 H   0  0  0  0  0  0  0  0  0  0  0  0
   -0.8787   12.2225   19.7921 H   0  0  0  0  0  0  0  0  0  0  0  0
    0.6371   11.6610   19.5605 H   0  0  0  0  0  0  0  0  0  0  0  0
    1.1256    9.5352   18.0487 H   0  0  0  0  0  0  0  0  0  0  0  0
    0.5563   12.8334   15.5960 H   0  0  0  0  0  0  0  0  0  0  0  0
   -0.3172   14.2544   18.7564 H   0  0  0  0  0  0  0  0  0  0  0  0
    1.1787   13.6931   18.4189 H   0  0  0  0  0  0  0  0  0  0  0  0
   -1.0444   12.3402   17.3193 H   0  0  0  0  0  0  0  0  0  0  0  0
   -1.0792   10.8426   17.9695 H   0  0  0  0  0  0  0  0  0  0  0  0
    2.2251   13.6469   21.9798 H   0  0  0  0  0  0  0  0  0  0  0  0
    2.1189   12.5632   20.7629 H   0  0  0  0  0  0  0  0  0  0  0  0
    1.2744   15.2224   20.2047 H   0  0  0  0  0  0  0  0  0  0  0  0
  1  2  1  0  0  0  0
  1  3  1  0  0  0  0
  1  4  2  0  0  0  0
  1  9  1  0  0  0  0
  5  7  1  0  0  0  0
  6 19  2  0  0  0  0
  7  8  1  0  0  0  0
  7 19  1  0  0  0  0
  9 20  1  0  0  0  0
 10 11  2  0  0  0  0
 10 12  1  0  0  0  0
 11 14  1  0  0  0  0
 12 15  2  0  0  0  0
 13 16  1  0  0  0  0
 13 17  1  0  0  0  0
 14 21  2  0  0  0  0
 15 21  1  0  0  0  0
 16 20  1  0  0  0  0
 17 21  1  0  0  0  0
 18 19  1  0  0  0  0
 18 20  1  0  0  0  0
  2 22  1  0  0  0  0
  3 23  1  0  0  0  0
  5 24  1  0  0  0  0
  8 25  1  0  0  0  0
  8 26  1  0  0  0  0
  8 27  1  0  0  0  0
  9 28  1  0  0  0  0
  9 29  1  0  0  0  0
 10 30  1  0  0  0  0
 11 31  1  0  0  0  0
 12 32  1  0  0  0  0
 13 33  1  0  0  0  0
 13 34  1  0  0  0  0
 14 35  1  0  0  0  0
 15 36  1  0  0  0  0
 16 37  1  0  0  0  0
 16 38  1  0  0  0  0
 17 39  1  0  0  0  0
 17 40  1  0  0  0  0
 18 41  1  0  0  0  0
 18 42  1  0  0  0  0
 20 43  1  0  0  0  0
M  END
> <pdb_id>
4Y67

> <uniprot_id>
Q8IKG4

> <usmiles>
P(=O)(O)(O)C[C@@H](CC(=O)N(O)C)CCCc1ccccc1

$$$$
RCM_B_307
          07202403313D 1   1.00000     0.00000     0
            
 31 33  0  0  0  0            999 V2000
  -18.0998    7.9082  -32.8814 Cl  0  0  0  0  0  0  0  0  0  0  0  0
  -15.3498   13.0811  -36.2374 O   0  0  0  0  0  0  0  0  0  0  0  0
  -18.1668   15.2317  -33.0759 O   0  0  0  0  0  0  0  0  0  0  0  0
  -18.6403   10.8415  -32.0961 N   0  0  0  0  0  0  0  0  0  0  0  0
  -15.0544   13.6170  -33.8934 N   0  0  0  0  0  0  0  0  0  0  0  0
  -17.0026   14.5294  -35.1486 N   0  0  0  0  0  0  0  0  0  0  0  0
  -18.1704   13.9080  -35.8651 C   0  0  0  0  0  0  0  0  0  0  0  0
  -18.3390   12.1333  -31.8213 C   0  0  0  0  0  0  0  0  0  0  0  0
  -14.7462    9.5988  -32.9056 C   0  0  0  0  0  0  0  0  0  0  0  0
  -15.7342    8.6398  -33.0127 C   0  0  0  0  0  0  0  0  0  0  0  0
  -15.0561   10.8833  -32.5552 C   0  0  0  0  0  0  0  0  0  0  0  0
  -16.2507   13.6365  -31.7136 C   0  0  0  0  0  0  0  0  0  0  0  0
  -15.7791   13.6952  -35.1806 C   0  0  0  0  0  0  0  0  0  0  0  0
  -17.1387   14.7431  -33.6932 C   0  0  0  0  0  0  0  0  0  0  0  0
  -17.0616    8.9539  -32.7593 C   0  0  0  0  0  0  0  0  0  0  0  0
  -15.9149   14.4094  -32.9495 C   0  0  2  0  0  0  0  0  0  0  0  0
  -17.3909   10.2453  -32.4016 C   0  0  0  0  0  0  0  0  0  0  0  0
  -16.9721   12.3488  -31.9649 C   0  0  0  0  0  0  0  0  0  0  0  0
  -16.3780   11.1631  -32.3122 C   0  0  0  0  0  0  0  0  0  0  0  0
  -19.5408   10.4067  -32.0858 H   0  0  0  0  0  0  0  0  0  0  0  0
  -14.1938   13.1470  -33.6972 H   0  0  0  0  0  0  0  0  0  0  0  0
  -18.9604   14.5183  -35.8067 H   0  0  0  0  0  0  0  0  0  0  0  0
  -17.9327   13.7615  -36.8254 H   0  0  0  0  0  0  0  0  0  0  0  0
  -18.3944   13.0312  -35.4396 H   0  0  0  0  0  0  0  0  0  0  0  0
  -19.0032   12.8313  -31.5538 H   0  0  0  0  0  0  0  0  0  0  0  0
  -13.7944    9.3510  -33.0862 H   0  0  0  0  0  0  0  0  0  0  0  0
  -15.4897    7.7067  -33.2765 H   0  0  0  0  0  0  0  0  0  0  0  0
  -14.3509   11.5883  -32.4792 H   0  0  0  0  0  0  0  0  0  0  0  0
  -16.8287   14.2105  -31.1334 H   0  0  0  0  0  0  0  0  0  0  0  0
  -15.3984   13.4288  -31.2336 H   0  0  0  0  0  0  0  0  0  0  0  0
  -15.4403   15.2521  -32.6955 H   0  0  0  0  0  0  0  0  0  0  0  0
  1 15  1  0  0  0  0
  2 13  2  0  0  0  0
  3 14  2  0  0  0  0
  4  8  1  0  0  0  0
  4 17  1  0  0  0  0
  5 13  1  0  0  0  0
  5 16  1  0  0  0  0
  6  7  1  0  0  0  0
  6 13  1  0  0  0  0
  6 14  1  0  0  0  0
  8 18  2  0  0  0  0
  9 10  2  0  0  0  0
  9 11  1  0  0  0  0
 10 15  1  0  0  0  0
 11 19  2  0  0  0  0
 12 16  1  0  0  0  0
 12 18  1  0  0  0  0
 14 16  1  0  0  0  0
 15 17  2  0  0  0  0
 17 19  1  0  0  0  0
 18 19  1  0  0  0  0
  4 20  1  0  0  0  0
  5 21  1  0  0  0  0
  7 22  1  0  0  0  0
  7 23  1  0  0  0  0
  7 24  1  0  0  0  0
  8 25  1  0  0  0  0
  9 26  1  0  0  0  0
 10 27  1  0  0  0  0
 11 28  1  0  0  0  0
 12 29  1  0  0  0  0
 12 30  1  0  0  0  0
 16 31  1  0  0  0  0
M  END
> <pdb_id>
4ITH

> <uniprot_id>
Q13546

> <usmiles>
Clc1c2NC=C(c2ccc1)C[C@H]3NC(=O)N(C3=O)C

$$$$
RES_A_1471
          07192421233D 1   1.00000     0.00000     0
            
 24 23  0  0  0  0            999 V2000
   44.4261   20.9104   27.5498 P   0  0  0  0  0  0  0  0  0  0  0  0
   43.6228   20.6226   28.7876 O   0  0  0  0  0  0  0  0  0  0  0  0
   44.3879   22.3503   27.0625 O   0  0  0  0  0  0  0  0  0  0  0  0
   45.8418   20.3821   27.6055 O   0  0  0  0  0  0  0  0  0  0  0  0
   42.7268   18.0336   21.3795 O   0  0  0  0  0  0  0  0  0  0  0  0
   40.9776   19.3842   22.9365 O   0  0  0  0  0  0  0  0  0  0  0  0
   42.6943   22.4401   25.2151 O   0  0  0  0  0  0  0  0  0  0  0  0
   43.6575   21.7618   22.6433 O   0  0  0  0  0  0  0  0  0  0  0  0
   43.6891   19.9965   26.4455 O   0  0  0  0  0  0  0  0  0  0  0  0
   42.8552   19.3800   21.7181 N   0  0  0  0  0  0  0  0  0  0  0  0
   43.7592   20.2871   25.0570 C   0  0  0  0  0  0  0  0  0  0  0  0
   42.0192   19.9292   22.5882 C   0  0  0  0  0  0  0  0  0  0  0  0
   42.5457   21.1273   24.6782 C   0  0  2  0  0  0  0  0  0  0  0  0
   42.4159   21.2635   23.1683 C   0  0  1  0  0  0  0  0  0  0  0  0
   43.7120   19.6554   29.0255 H   0  0  0  0  0  0  0  0  0  0  0  0
   44.9494   22.4388   26.2397 H   0  0  0  0  0  0  0  0  0  0  0  0
   43.4335   17.7879   20.7160 H   0  0  0  0  0  0  0  0  0  0  0  0
   41.8989   22.9934   24.9677 H   0  0  0  0  0  0  0  0  0  0  0  0
   43.8666   22.6448   23.0635 H   0  0  0  0  0  0  0  0  0  0  0  0
   43.5789   19.9322   21.3040 H   0  0  0  0  0  0  0  0  0  0  0  0
   43.7566   19.4352   24.5334 H   0  0  0  0  0  0  0  0  0  0  0  0
   44.5970   20.7965   24.8607 H   0  0  0  0  0  0  0  0  0  0  0  0
   41.7179   20.7059   25.0487 H   0  0  0  0  0  0  0  0  0  0  0  0
   41.6947   21.9266   22.9677 H   0  0  0  0  0  0  0  0  0  0  0  0
  1  2  1  0  0  0  0
  1  3  1  0  0  0  0
  1  4  2  0  0  0  0
  1  9  1  0  0  0  0
  5 10  1  0  0  0  0
  6 12  2  0  0  0  0
  7 13  1  0  0  0  0
  8 14  1  0  0  0  0
  9 11  1  0  0  0  0
 10 12  1  0  0  0  0
 11 13  1  0  0  0  0
 12 14  1  0  0  0  0
 13 14  1  0  0  0  0
  2 15  1  0  0  0  0
  3 16  1  0  0  0  0
  5 17  1  0  0  0  0
  7 18  1  0  0  0  0
  8 19  1  0  0  0  0
 10 20  1  0  0  0  0
 11 21  1  0  0  0  0
 11 22  1  0  0  0  0
 13 23  1  0  0  0  0
 14 24  1  0  0  0  0
M  END
> <pdb_id>
2IZ1

> <uniprot_id>
P96789

> <usmiles>
P(=O)(OC[C@@H](O)[C@@H](O)C(=O)NO)(O)O

$$$$
RF3_A_217
          07192423263D 1   1.00000     0.00000     0
            
 41 44  0  0  0  0            999 V2000
   30.0734  -15.7567   -8.1323 S   0  0  0  0  0  0  0  0  0  0  0  0
   27.4558   -4.4686   -5.4217 S   0  0  0  0  0  0  0  0  0  0  0  0
   28.4096  -13.3601   -7.6358 O   0  0  0  0  0  0  0  0  0  0  0  0
   27.2269   -8.1398   -2.5302 O   0  0  0  0  0  0  0  0  0  0  0  0
   27.2909   -6.7997   -2.3956 N   0  0  0  0  0  0  0  0  0  0  0  0
   27.5202   -7.2941   -4.4375 N   0  0  0  0  0  0  0  0  0  0  0  0
   28.2512  -12.1670   -5.7872 N   0  0  0  0  0  0  0  0  0  0  0  0
   30.2804  -17.4118   -8.0205 C   0  0  0  0  0  0  0  0  0  0  0  0
   27.7864   -2.8435   -5.1216 C   0  0  0  0  0  0  0  0  0  0  0  0
   28.5308  -12.0731   -4.3343 C   0  0  0  0  0  0  0  0  0  0  0  0
   27.3873  -11.1471   -6.4480 C   0  0  0  0  0  0  0  0  0  0  0  0
   30.0806  -17.8056   -6.7740 C   0  0  0  0  0  0  0  0  0  0  0  0
   28.0045   -2.7537   -3.8084 C   0  0  0  0  0  0  0  0  0  0  0  0
   29.7734  -16.8269   -5.9027 C   0  0  0  0  0  0  0  0  0  0  0  0
   27.9288   -3.8745   -3.1124 C   0  0  0  0  0  0  0  0  0  0  0  0
   28.5376  -10.6423   -3.7904 C   0  0  0  0  0  0  0  0  0  0  0  0
   27.4544   -9.7812   -5.8474 C   0  0  0  0  0  0  0  0  0  0  0  0
   29.4662  -14.2903   -5.7189 C   0  0  0  0  0  0  0  0  0  0  0  0
   29.7163  -15.6157   -6.4253 C   0  0  0  0  0  0  0  0  0  0  0  0
   28.6243  -13.2425   -6.4706 C   0  0  0  0  0  0  0  0  0  0  0  0
   27.6187   -4.9454   -3.8711 C   0  0  0  0  0  0  0  0  0  0  0  0
   27.3570   -8.3969   -3.7905 C   0  0  0  0  0  0  0  0  0  0  0  0
   27.4710   -6.2947   -3.5665 C   0  0  0  0  0  0  0  0  0  0  0  0
   27.3704   -9.8308   -4.3482 C   0  0  0  0  0  0  0  0  0  0  0  0
   30.5194  -18.0139   -8.7823 H   0  0  0  0  0  0  0  0  0  0  0  0
   27.8135   -2.1000   -5.7899 H   0  0  0  0  0  0  0  0  0  0  0  0
   29.4278  -12.4795   -4.1602 H   0  0  0  0  0  0  0  0  0  0  0  0
   27.8294  -12.5916   -3.8453 H   0  0  0  0  0  0  0  0  0  0  0  0
   26.4398  -11.4626   -6.3970 H   0  0  0  0  0  0  0  0  0  0  0  0
   27.6648  -11.0789   -7.4064 H   0  0  0  0  0  0  0  0  0  0  0  0
   30.1528  -18.7640   -6.4979 H   0  0  0  0  0  0  0  0  0  0  0  0
   28.2153   -1.8793   -3.3713 H   0  0  0  0  0  0  0  0  0  0  0  0
   29.6015  -17.0036   -4.9336 H   0  0  0  0  0  0  0  0  0  0  0  0
   28.0852   -3.9235   -2.1259 H   0  0  0  0  0  0  0  0  0  0  0  0
   29.3957  -10.1992   -4.0500 H   0  0  0  0  0  0  0  0  0  0  0  0
   28.4663  -10.6725   -2.7934 H   0  0  0  0  0  0  0  0  0  0  0  0
   26.6931   -9.2353   -6.1971 H   0  0  0  0  0  0  0  0  0  0  0  0
   28.3195   -9.3536   -6.1099 H   0  0  0  0  0  0  0  0  0  0  0  0
   30.3571  -13.8789   -5.5262 H   0  0  0  0  0  0  0  0  0  0  0  0
   28.9986  -14.4912   -4.8582 H   0  0  0  0  0  0  0  0  0  0  0  0
   26.5158  -10.2818   -4.0907 H   0  0  0  0  0  0  0  0  0  0  0  0
  1  8  1  0  0  0  0
  1 19  1  0  0  0  0
  2  9  1  0  0  0  0
  2 21  1  0  0  0  0
  3 20  2  0  0  0  0
  4  5  1  0  0  0  0
  4 22  1  0  0  0  0
  5 23  2  0  0  0  0
  6 22  2  0  0  0  0
  6 23  1  0  0  0  0
  7 10  1  0  0  0  0
  7 11  1  0  0  0  0
  7 20  1  0  0  0  0
  8 12  2  0  0  0  0
  9 13  2  0  0  0  0
 10 16  1  0  0  0  0
 11 17  1  0  0  0  0
 12 14  1  0  0  0  0
 13 15  1  0  0  0  0
 14 19  2  0  0  0  0
 15 21  2  0  0  0  0
 16 24  1  0  0  0  0
 17 24  1  0  0  0  0
 18 19  1  0  0  0  0
 18 20  1  0  0  0  0
 21 23  1  0  0  0  0
 22 24  1  0  0  0  0
  8 25  1  0  0  0  0
  9 26  1  0  0  0  0
 10 27  1  0  0  0  0
 10 28  1  0  0  0  0
 11 29  1  0  0  0  0
 11 30  1  0  0  0  0
 12 31  1  0  0  0  0
 13 32  1  0  0  0  0
 14 33  1  0  0  0  0
 15 34  1  0  0  0  0
 16 35  1  0  0  0  0
 16 36  1  0  0  0  0
 17 37  1  0  0  0  0
 17 38  1  0  0  0  0
 18 39  1  0  0  0  0
 18 40  1  0  0  0  0
 24 41  1  0  0  0  0
M  END
> <pdb_id>
3G1M

> <uniprot_id>
P96222

> <usmiles>
S1C(C2=NOC(=N2)C3CCN(C(=O)CC=4SC=CC4)CC3)=CC=C1

$$$$
RF7_B_501
          07202406173D 1   1.00000     0.00000     0
            
 34 34  0  0  0  0            999 V2000
   -0.5386   16.0527   21.3017 P   0  0  0  0  0  0  0  0  0  0  0  0
   -1.8057   15.5441   21.9406 O   0  0  0  0  0  0  0  0  0  0  0  0
   -0.9157   16.9963   20.1892 O   0  0  0  0  0  0  0  0  0  0  0  0
    0.2673   16.8088   22.3225 O   0  0  0  0  0  0  0  0  0  0  0  0
    4.8825   14.4098   18.3945 O   0  0  0  0  0  0  0  0  0  0  0  0
    3.6613   15.1440   20.6708 O   0  0  0  0  0  0  0  0  0  0  0  0
    3.9481   13.6323   19.0470 N   0  0  0  0  0  0  0  0  0  0  0  0
    3.6079   12.3375   18.4652 C   0  0  0  0  0  0  0  0  0  0  0  0
    0.4137   14.6853   20.6023 C   0  0  0  0  0  0  0  0  0  0  0  0
   -0.8123   10.8150   23.7120 C   0  0  0  0  0  0  0  0  0  0  0  0
   -1.4859   11.5597   22.7513 C   0  0  0  0  0  0  0  0  0  0  0  0
    0.5178   11.0907   23.9888 C   0  0  0  0  0  0  0  0  0  0  0  0
   -0.8260   12.5762   22.0631 C   0  0  0  0  0  0  0  0  0  0  0  0
    1.1830   12.1063   23.3068 C   0  0  0  0  0  0  0  0  0  0  0  0
    2.3691   13.1779   20.8798 C   0  0  0  0  0  0  0  0  0  0  0  0
    3.3722   14.0607   20.1787 C   0  0  0  0  0  0  0  0  0  0  0  0
    1.2652   13.9280   21.6199 C   0  0  2  0  0  0  0  0  0  0  0  0
    0.5128   12.8664   22.3512 C   0  0  0  0  0  0  0  0  0  0  0  0
   -1.5755   14.9149   22.6829 H   0  0  0  0  0  0  0  0  0  0  0  0
   -0.0865   17.3449   19.7524 H   0  0  0  0  0  0  0  0  0  0  0  0
    5.2005   13.9320   17.5756 H   0  0  0  0  0  0  0  0  0  0  0  0
    2.9239   11.8846   19.0370 H   0  0  0  0  0  0  0  0  0  0  0  0
    3.2378   12.4720   17.5460 H   0  0  0  0  0  0  0  0  0  0  0  0
    4.4289   11.7689   18.4141 H   0  0  0  0  0  0  0  0  0  0  0  0
    1.0207   15.0540   19.8983 H   0  0  0  0  0  0  0  0  0  0  0  0
   -0.2257   14.0389   20.1859 H   0  0  0  0  0  0  0  0  0  0  0  0
   -1.2854   10.0828   24.2019 H   0  0  0  0  0  0  0  0  0  0  0  0
   -2.4467   11.3656   22.5533 H   0  0  0  0  0  0  0  0  0  0  0  0
    1.0023   10.5572   24.6822 H   0  0  0  0  0  0  0  0  0  0  0  0
   -1.3101   13.0995   21.3618 H   0  0  0  0  0  0  0  0  0  0  0  0
    2.1458   12.2907   23.5039 H   0  0  0  0  0  0  0  0  0  0  0  0
    2.8608   12.6138   21.5430 H   0  0  0  0  0  0  0  0  0  0  0  0
    1.9400   12.5892   20.1946 H   0  0  0  0  0  0  0  0  0  0  0  0
    1.6681   14.5703   22.2719 H   0  0  0  0  0  0  0  0  0  0  0  0
  1  2  1  0  0  0  0
  1  3  1  0  0  0  0
  1  4  2  0  0  0  0
  1  9  1  0  0  0  0
  5  7  1  0  0  0  0
  6 16  2  0  0  0  0
  7  8  1  0  0  0  0
  7 16  1  0  0  0  0
  9 17  1  0  0  0  0
 10 11  2  0  0  0  0
 10 12  1  0  0  0  0
 11 13  1  0  0  0  0
 12 14  2  0  0  0  0
 13 18  2  0  0  0  0
 14 18  1  0  0  0  0
 15 16  1  0  0  0  0
 15 17  1  0  0  0  0
 17 18  1  0  0  0  0
  2 19  1  0  0  0  0
  3 20  1  0  0  0  0
  5 21  1  0  0  0  0
  8 22  1  0  0  0  0
  8 23  1  0  0  0  0
  8 24  1  0  0  0  0
  9 25  1  0  0  0  0
  9 26  1  0  0  0  0
 10 27  1  0  0  0  0
 11 28  1  0  0  0  0
 12 29  1  0  0  0  0
 13 30  1  0  0  0  0
 14 31  1  0  0  0  0
 15 32  1  0  0  0  0
 15 33  1  0  0  0  0
 17 34  1  0  0  0  0
M  END
> <pdb_id>
4Y6R

> <uniprot_id>
Q8IKG4

> <usmiles>
P(=O)(O)(O)C[C@@H](c1ccccc1)CC(=O)N(O)C

$$$$
RG2_A_502
          07202417153D 1   1.00000     0.00000     0
            
 37 39  0  0  0  0            999 V2000
   13.8903  -25.6269    1.0391 Cl  0  0  0  0  0  0  0  0  0  0  0  0
   12.9823  -18.1734    5.6961 F   0  0  0  0  0  0  0  0  0  0  0  0
   11.6199  -16.9189    4.6053 F   0  0  0  0  0  0  0  0  0  0  0  0
   13.2024  -16.0263    5.7316 F   0  0  0  0  0  0  0  0  0  0  0  0
   18.4391  -19.2903   -1.4401 O   0  0  0  0  0  0  0  0  0  0  0  0
   17.9594  -17.1928   -1.7026 O   0  0  0  0  0  0  0  0  0  0  0  0
   18.0352  -20.2898    0.9528 N   0  0  0  0  0  0  0  0  0  0  0  0
   16.3601  -19.2387    2.2673 N   0  0  0  0  0  0  0  0  0  0  0  0
   16.1577  -17.2506    0.3916 N   0  0  0  0  0  0  0  0  0  0  0  0
   18.2219  -21.4027    1.8715 C   0  0  0  0  0  0  0  0  0  0  0  0
   15.8664  -24.3280    2.4946 C   0  0  0  0  0  0  0  0  0  0  0  0
   15.4550  -23.4828    0.2587 C   0  0  0  0  0  0  0  0  0  0  0  0
   14.4764  -16.1514    1.6584 C   0  0  0  0  0  0  0  0  0  0  0  0
   16.8561  -23.3607    2.6810 C   0  0  0  0  0  0  0  0  0  0  0  0
   16.4477  -22.5185    0.4460 C   0  0  0  0  0  0  0  0  0  0  0  0
   13.6658  -16.1169    2.7959 C   0  0  0  0  0  0  0  0  0  0  0  0
   14.6680  -18.1767    3.5890 C   0  0  0  0  0  0  0  0  0  0  0  0
   15.1679  -24.3875    1.2845 C   0  0  0  0  0  0  0  0  0  0  0  0
   17.8683  -18.2511   -1.0528 C   0  0  0  0  0  0  0  0  0  0  0  0
   17.1468  -19.2822    1.1548 C   0  0  0  0  0  0  0  0  0  0  0  0
   15.3759  -17.2060    1.4901 C   0  0  0  0  0  0  0  0  0  0  0  0
   15.4777  -18.2211    2.4514 C   0  0  0  0  0  0  0  0  0  0  0  0
   17.0351  -18.2651    0.2036 C   0  0  0  0  0  0  0  0  0  0  0  0
   17.1492  -22.4520    1.6571 C   0  0  0  0  0  0  0  0  0  0  0  0
   13.7606  -17.1241    3.7643 C   0  0  0  0  0  0  0  0  0  0  0  0
   12.8762  -17.0631    4.9851 C   0  0  0  0  0  0  0  0  0  0  0  0
   18.3575  -20.1333   -0.9084 H   0  0  0  0  0  0  0  0  0  0  0  0
   18.5938  -20.2652    0.1237 H   0  0  0  0  0  0  0  0  0  0  0  0
   18.1700  -21.0659    2.8116 H   0  0  0  0  0  0  0  0  0  0  0  0
   19.1201  -21.8129    1.7135 H   0  0  0  0  0  0  0  0  0  0  0  0
   15.6574  -24.9774    3.2257 H   0  0  0  0  0  0  0  0  0  0  0  0
   14.9524  -23.5257   -0.6047 H   0  0  0  0  0  0  0  0  0  0  0  0
   14.4130  -15.4276    0.9713 H   0  0  0  0  0  0  0  0  0  0  0  0
   17.3557  -23.3171    3.5461 H   0  0  0  0  0  0  0  0  0  0  0  0
   16.6588  -21.8725   -0.2876 H   0  0  0  0  0  0  0  0  0  0  0  0
   13.0140  -15.3686    2.9193 H   0  0  0  0  0  0  0  0  0  0  0  0
   14.7364  -18.8973    4.2790 H   0  0  0  0  0  0  0  0  0  0  0  0
  1 18  1  0  0  0  0
  2 26  1  0  0  0  0
  3 26  1  0  0  0  0
  4 26  1  0  0  0  0
  5 19  1  0  0  0  0
  6 19  2  0  0  0  0
  7 10  1  0  0  0  0
  7 20  1  0  0  0  0
  8 20  2  0  0  0  0
  8 22  1  0  0  0  0
  9 21  1  0  0  0  0
  9 23  2  0  0  0  0
 10 24  1  0  0  0  0
 11 14  1  0  0  0  0
 11 18  2  0  0  0  0
 12 15  2  0  0  0  0
 12 18  1  0  0  0  0
 13 16  1  0  0  0  0
 13 21  2  0  0  0  0
 14 24  2  0  0  0  0
 15 24  1  0  0  0  0
 16 25  2  0  0  0  0
 17 22  2  0  0  0  0
 17 25  1  0  0  0  0
 19 23  1  0  0  0  0
 20 23  1  0  0  0  0
 21 22  1  0  0  0  0
 25 26  1  0  0  0  0
  5 27  1  0  0  0  0
  7 28  1  0  0  0  0
 10 29  1  0  0  0  0
 10 30  1  0  0  0  0
 11 31  1  0  0  0  0
 12 32  1  0  0  0  0
 13 33  1  0  0  0  0
 14 34  1  0  0  0  0
 15 35  1  0  0  0  0
 16 36  1  0  0  0  0
 17 37  1  0  0  0  0
M  END
> <pdb_id>
4P8P

> <uniprot_id>
P72056

> <usmiles>
Clc1ccc(cc1)CNc2nc3c(nc2C(=O)O)ccc(c3)C(F)(F)F

$$$$
RG4_B_1201
          07202414163D 1   1.00000     0.00000     0
            
 39 42  0  0  0  0            999 V2000
   55.0654  -11.0125   26.4926 N   0  0  0  0  0  0  0  0  0  0  0  0
   55.3079   -8.9579   30.8549 N   0  0  0  0  0  0  0  0  0  0  0  0
   49.7165  -11.6960   31.7753 N   0  0  0  0  0  0  0  0  0  0  0  0
   51.8737  -10.9672   32.1601 N   0  0  0  0  0  0  0  0  0  0  0  0
   48.7564  -11.1015   29.5361 N   0  0  0  0  0  0  0  0  0  0  0  0
   54.9225   -8.7854   29.5564 N   0  0  0  0  0  0  0  0  0  0  0  0
   50.7779  -11.6164   32.5620 C   0  0  0  0  0  0  0  0  0  0  0  0
   55.7637  -10.3252   27.0731 C   0  0  0  0  0  0  0  0  0  0  0  0
   49.2156  -10.4199   28.4845 C   0  0  0  0  0  0  0  0  0  0  0  0
   54.3024   -9.5137   31.5161 C   0  0  0  0  0  0  0  0  0  0  0  0
   54.7943   -4.9496   27.1912 C   0  0  0  0  0  0  0  0  0  0  0  0
   55.8294   -5.4785   26.1077 C   0  0  0  0  0  0  0  0  0  0  0  0
   53.7015   -9.2277   29.3745 C   0  0  0  0  0  0  0  0  0  0  0  0
   56.5980   -9.4134   27.9845 C   0  0  0  0  0  0  0  0  0  0  0  0
   50.5029   -9.9867   28.7848 C   0  0  0  0  0  0  0  0  0  0  0  0
   54.7774   -5.8795   28.1883 C   0  0  0  0  0  0  0  0  0  0  0  0
   56.1272   -7.0006   26.5218 C   0  0  0  0  0  0  0  0  0  0  0  0
   49.7070  -11.1385   30.5290 C   0  0  0  0  0  0  0  0  0  0  0  0
   51.9360  -10.3548   30.9761 C   0  0  0  0  0  0  0  0  0  0  0  0
   55.8447   -8.2222   28.5853 C   0  0  1  0  0  0  0  0  0  0  0  0
   53.2614   -9.6815   30.6073 C   0  0  0  0  0  0  0  0  0  0  0  0
   55.2163   -7.3257   27.5060 C   0  0  1  0  0  0  0  0  0  0  0  0
   50.8219  -10.4405   30.0923 C   0  0  0  0  0  0  0  0  0  0  0  0
   47.8520  -11.5241   29.5936 H   0  0  0  0  0  0  0  0  0  0  0  0
   50.7592  -12.0460   33.4648 H   0  0  0  0  0  0  0  0  0  0  0  0
   48.7217  -10.2505   27.6316 H   0  0  0  0  0  0  0  0  0  0  0  0
   54.2935   -9.7649   32.4840 H   0  0  0  0  0  0  0  0  0  0  0  0
   54.2619   -4.1041   27.1501 H   0  0  0  0  0  0  0  0  0  0  0  0
   56.6700   -4.9373   26.1316 H   0  0  0  0  0  0  0  0  0  0  0  0
   55.4313   -5.4354   25.1914 H   0  0  0  0  0  0  0  0  0  0  0  0
   53.1892   -9.2358   28.5157 H   0  0  0  0  0  0  0  0  0  0  0  0
   57.3627   -9.0566   27.4480 H   0  0  0  0  0  0  0  0  0  0  0  0
   56.9498   -9.9684   28.7382 H   0  0  0  0  0  0  0  0  0  0  0  0
   51.0982   -9.4508   28.1862 H   0  0  0  0  0  0  0  0  0  0  0  0
   54.5447   -5.7198   29.1477 H   0  0  0  0  0  0  0  0  0  0  0  0
   57.0597   -7.0869   26.8724 H   0  0  0  0  0  0  0  0  0  0  0  0
   56.0111   -7.6024   25.7316 H   0  0  0  0  0  0  0  0  0  0  0  0
   56.5090   -7.6683   29.0872 H   0  0  0  0  0  0  0  0  0  0  0  0
   54.4184   -7.7751   27.1043 H   0  0  0  0  0  0  0  0  0  0  0  0
  1  8  3  0  0  0  0
  2  6  1  0  0  0  0
  2 10  2  0  0  0  0
  3  7  2  0  0  0  0
  3 18  1  0  0  0  0
  4  7  1  0  0  0  0
  4 19  2  0  0  0  0
  5  9  1  0  0  0  0
  5 18  1  0  0  0  0
  6 13  1  0  0  0  0
  6 20  1  0  0  0  0
  8 14  1  0  0  0  0
  9 15  2  0  0  0  0
 10 21  1  0  0  0  0
 11 12  1  0  0  0  0
 11 16  2  0  0  0  0
 12 17  1  0  0  0  0
 13 21  2  0  0  0  0
 14 20  1  0  0  0  0
 15 23  1  0  0  0  0
 16 22  1  0  0  0  0
 17 22  1  0  0  0  0
 18 23  2  0  0  0  0
 19 21  1  0  0  0  0
 19 23  1  0  0  0  0
 20 22  1  0  0  0  0
  5 24  1  0  0  0  0
  7 25  1  0  0  0  0
  9 26  1  0  0  0  0
 10 27  1  0  0  0  0
 11 28  1  0  0  0  0
 12 29  1  0  0  0  0
 12 30  1  0  0  0  0
 13 31  1  0  0  0  0
 14 32  1  0  0  0  0
 14 33  1  0  0  0  0
 15 34  1  0  0  0  0
 16 35  1  0  0  0  0
 17 36  1  0  0  0  0
 17 37  1  0  0  0  0
 20 38  1  0  0  0  0
 22 39  1  0  0  0  0
M  END
> <pdb_id>
6VSN

> <uniprot_id>
O60674

> <usmiles>
N#CC[C@H](N1N=CC(c2ncnc3NC=Cc32)=C1)[C@H]4C=CCC4

$$$$
RGG_B_401
          07202413053D 1   1.00000     0.00000     0
            
 35 35  0  0  0  0            999 V2000
    1.9900   -5.7850  -38.4160 O   0  0  0  0  0  0  0  0  0  0  0  0
    2.8550   -1.4350  -43.8380 O   0  0  0  0  0  0  0  0  0  0  0  0
   -0.9570   -4.4910  -40.0820 O   0  0  0  0  0  0  0  0  0  0  0  0
    0.4880   -7.2530  -44.6290 O   0  0  0  0  0  0  0  0  0  0  0  0
    0.1080   -5.8000  -47.0870 O   0  0  0  0  0  0  0  0  0  0  0  0
   -0.2290   -3.2810  -46.0410 O   0  0  0  0  0  0  0  0  0  0  0  0
    0.4020   -5.4750  -42.3250 O   0  0  0  0  0  0  0  0  0  0  0  0
    1.1530   -3.7700  -43.7260 O   0  0  0  0  0  0  0  0  0  0  0  0
    0.9370   -4.8530  -38.6860 C   0  0  0  0  0  0  0  0  0  0  0  0
    2.0320   -1.8510  -44.9410 C   0  0  0  0  0  0  0  0  0  0  0  0
    1.1300   -5.2160  -41.1310 C   0  0  0  0  0  0  0  0  0  0  0  0
    0.1970   -5.3200  -39.9280 C   0  0  2  0  0  0  0  0  0  0  0  0
    1.1200   -5.1870  -43.5250 C   0  0  2  0  0  0  0  0  0  0  0  0
    0.3690   -5.8310  -44.6890 C   0  0  1  0  0  0  0  0  0  0  0  0
    0.9520   -5.3760  -46.0230 C   0  0  2  0  0  0  0  0  0  0  0  0
    1.0790   -3.8670  -46.0910 C   0  0  2  0  0  0  0  0  0  0  0  0
    1.8780   -3.3750  -44.8980 C   0  0  2  0  0  0  0  0  0  0  0  0
    2.4906   -5.4952  -37.6003 H   0  0  0  0  0  0  0  0  0  0  0  0
    2.9613   -0.4409  -43.8578 H   0  0  0  0  0  0  0  0  0  0  0  0
   -1.4659   -4.7757  -40.8944 H   0  0  0  0  0  0  0  0  0  0  0  0
   -0.0074   -7.6616  -45.3956 H   0  0  0  0  0  0  0  0  0  0  0  0
    0.4944   -5.4994  -47.9590 H   0  0  0  0  0  0  0  0  0  0  0  0
   -0.1500   -2.2851  -46.0856 H   0  0  0  0  0  0  0  0  0  0  0  0
    1.3219   -3.9435  -38.8431 H   0  0  0  0  0  0  0  0  0  0  0  0
    0.3076   -4.8190  -37.9096 H   0  0  0  0  0  0  0  0  0  0  0  0
    2.4632   -1.5813  -45.8020 H   0  0  0  0  0  0  0  0  0  0  0  0
    1.1322   -1.4205  -44.8696 H   0  0  0  0  0  0  0  0  0  0  0  0
    1.5189   -4.2956  -41.1716 H   0  0  0  0  0  0  0  0  0  0  0  0
    1.8671   -5.8855  -41.0391 H   0  0  0  0  0  0  0  0  0  0  0  0
   -0.0887   -6.2708  -39.8085 H   0  0  0  0  0  0  0  0  0  0  0  0
    2.0497   -5.5509  -43.4685 H   0  0  0  0  0  0  0  0  0  0  0  0
   -0.5968   -5.5758  -44.6437 H   0  0  0  0  0  0  0  0  0  0  0  0
    1.8567   -5.7855  -46.1407 H   0  0  0  0  0  0  0  0  0  0  0  0
    1.5376   -3.6025  -46.9394 H   0  0  0  0  0  0  0  0  0  0  0  0
    2.7808   -3.8050  -44.8966 H   0  0  0  0  0  0  0  0  0  0  0  0
  1  9  1  0  0  0  0
  2 10  1  0  0  0  0
  3 12  1  0  0  0  0
  4 14  1  0  0  0  0
  5 15  1  0  0  0  0
  6 16  1  0  0  0  0
  7 11  1  0  0  0  0
  7 13  1  0  0  0  0
  8 13  1  0  0  0  0
  8 17  1  0  0  0  0
  9 12  1  0  0  0  0
 10 17  1  0  0  0  0
 11 12  1  0  0  0  0
 13 14  1  0  0  0  0
 14 15  1  0  0  0  0
 15 16  1  0  0  0  0
 16 17  1  0  0  0  0
  1 18  1  0  0  0  0
  2 19  1  0  0  0  0
  3 20  1  0  0  0  0
  4 21  1  0  0  0  0
  5 22  1  0  0  0  0
  6 23  1  0  0  0  0
  9 24  1  0  0  0  0
  9 25  1  0  0  0  0
 10 26  1  0  0  0  0
 10 27  1  0  0  0  0
 11 28  1  0  0  0  0
 11 29  1  0  0  0  0
 12 30  1  0  0  0  0
 13 31  1  0  0  0  0
 14 32  1  0  0  0  0
 15 33  1  0  0  0  0
 16 34  1  0  0  0  0
 17 35  1  0  0  0  0
M  END
> <pdb_id>
3GA5

> <uniprot_id>
P23905

> <usmiles>
O1[C@@H](OC[C@H](O)CO)[C@H](O)[C@@H](O)[C@@H](O)[C@H]1CO

$$$$
RGJ_A_1157
          07192416543D 1   1.00000     0.00000     0
            
 44 46  0  0  0  0            999 V2000
    9.4950   23.0400    4.3760 Cl  0  0  0  0  0  0  0  0  0  0  0  0
   14.3040   22.2660    5.5400 F   0  0  0  0  0  0  0  0  0  0  0  0
   15.1690   17.7220    6.4150 O   0  0  0  0  0  0  0  0  0  0  0  0
   17.2600   23.6280    0.7080 O   0  0  0  0  0  0  0  0  0  0  0  0
   14.8300   22.8150    0.6190 O   0  0  0  0  0  0  0  0  0  0  0  0
   17.1870   17.9280    7.2750 N   0  0  0  0  0  0  0  0  0  0  0  0
   18.2430   20.8180    4.4770 N   0  0  0  0  0  0  0  0  0  0  0  0
   14.2560   19.5660    4.7320 N   0  0  0  0  0  0  0  0  0  0  0  0
   18.5870   24.1460    0.7360 C   0  0  0  0  0  0  0  0  0  0  0  0
   13.5170   22.2810    0.4020 C   0  0  0  0  0  0  0  0  0  0  0  0
   17.0110   16.7830    8.1500 C   0  0  0  0  0  0  0  0  0  0  0  0
   17.8550   19.9010    5.3340 C   0  0  0  0  0  0  0  0  0  0  0  0
   10.8080   20.7210    4.0800 C   0  0  0  0  0  0  0  0  0  0  0  0
   11.9310   19.9190    4.1580 C   0  0  0  0  0  0  0  0  0  0  0  0
   12.0560   22.5790    4.9900 C   0  0  0  0  0  0  0  0  0  0  0  0
   17.7800   22.2210    2.6090 C   0  0  0  0  0  0  0  0  0  0  0  0
   15.1340   21.3660    2.5450 C   0  0  0  0  0  0  0  0  0  0  0  0
   10.8900   22.0360    4.4880 C   0  0  0  0  0  0  0  0  0  0  0  0
   13.1450   21.7530    5.0720 C   0  0  0  0  0  0  0  0  0  0  0  0
   16.2330   18.3150    6.4370 C   0  0  0  0  0  0  0  0  0  0  0  0
   16.9220   22.7150    1.6700 C   0  0  0  0  0  0  0  0  0  0  0  0
   15.5790   22.2870    1.6400 C   0  0  0  0  0  0  0  0  0  0  0  0
   13.1350   20.4260    4.6460 C   0  0  0  0  0  0  0  0  0  0  0  0
   17.3280   21.3080    3.5910 C   0  0  0  0  0  0  0  0  0  0  0  0
   15.5790   19.9470    4.5900 C   0  0  0  0  0  0  0  0  0  0  0  0
   16.5610   19.4020    5.4490 C   0  0  0  0  0  0  0  0  0  0  0  0
   15.9760   20.8950    3.5850 C   0  0  0  0  0  0  0  0  0  0  0  0
   18.0472   18.4372    7.3043 H   0  0  0  0  0  0  0  0  0  0  0  0
   14.0764   18.5987    4.9110 H   0  0  0  0  0  0  0  0  0  0  0  0
   18.7062   24.7980   -0.0128 H   0  0  0  0  0  0  0  0  0  0  0  0
   18.7462   24.6078    1.6086 H   0  0  0  0  0  0  0  0  0  0  0  0
   19.2399   23.3958    0.6318 H   0  0  0  0  0  0  0  0  0  0  0  0
   13.0876   22.7543   -0.3672 H   0  0  0  0  0  0  0  0  0  0  0  0
   13.5840   21.3045    0.1971 H   0  0  0  0  0  0  0  0  0  0  0  0
   12.9638   22.4118    1.2247 H   0  0  0  0  0  0  0  0  0  0  0  0
   17.8359   16.6542    8.7004 H   0  0  0  0  0  0  0  0  0  0  0  0
   16.2292   16.9414    8.7531 H   0  0  0  0  0  0  0  0  0  0  0  0
   16.8466   15.9647    7.5992 H   0  0  0  0  0  0  0  0  0  0  0  0
   18.5463   19.5312    5.9547 H   0  0  0  0  0  0  0  0  0  0  0  0
    9.9462   20.3522    3.7318 H   0  0  0  0  0  0  0  0  0  0  0  0
   11.8796   18.9654    3.8614 H   0  0  0  0  0  0  0  0  0  0  0  0
   12.1031   23.5345    5.2812 H   0  0  0  0  0  0  0  0  0  0  0  0
   18.7382   22.5072    2.6031 H   0  0  0  0  0  0  0  0  0  0  0  0
   14.1993   21.0179    2.4733 H   0  0  0  0  0  0  0  0  0  0  0  0
  1 18  1  0  0  0  0
  2 19  1  0  0  0  0
  3 20  2  0  0  0  0
  4  9  1  0  0  0  0
  4 21  1  0  0  0  0
  5 10  1  0  0  0  0
  5 22  1  0  0  0  0
  6 11  1  0  0  0  0
  6 20  1  0  0  0  0
  7 12  1  0  0  0  0
  7 24  2  0  0  0  0
  8 23  1  0  0  0  0
  8 25  1  0  0  0  0
 12 26  2  0  0  0  0
 13 14  1  0  0  0  0
 13 18  2  0  0  0  0
 14 23  2  0  0  0  0
 15 18  1  0  0  0  0
 15 19  2  0  0  0  0
 16 21  2  0  0  0  0
 16 24  1  0  0  0  0
 17 22  2  0  0  0  0
 17 27  1  0  0  0  0
 19 23  1  0  0  0  0
 20 26  1  0  0  0  0
 21 22  1  0  0  0  0
 24 27  1  0  0  0  0
 25 26  1  0  0  0  0
 25 27  2  0  0  0  0
  6 28  1  0  0  0  0
  8 29  1  0  0  0  0
  9 30  1  0  0  0  0
  9 31  1  0  0  0  0
  9 32  1  0  0  0  0
 10 33  1  0  0  0  0
 10 34  1  0  0  0  0
 10 35  1  0  0  0  0
 11 36  1  0  0  0  0
 11 37  1  0  0  0  0
 11 38  1  0  0  0  0
 12 39  1  0  0  0  0
 13 40  1  0  0  0  0
 14 41  1  0  0  0  0
 15 42  1  0  0  0  0
 16 43  1  0  0  0  0
 17 44  1  0  0  0  0
M  END
> <pdb_id>
5ANV

> <uniprot_id>
P36639

> <usmiles>
Clc1cc(F)c(Nc2c3c(ncc2C(=O)NC)cc(OC)c(OC)c3)cc1

$$$$
RHH_A_501
          07202416203D 1   1.00000     0.00000     0
            
 46 49  0  0  0  0            999 V2000
   -3.7302    0.0466   28.8720 O   0  0  0  0  0  0  0  0  0  0  0  0
   -1.3592   -5.1416   29.3711 N   0  0  0  0  0  0  0  0  0  0  0  0
   -3.5095   -7.5093   32.5725 N   0  0  0  0  0  0  0  0  0  0  0  0
   -2.3662   -1.3387   27.6603 N   0  0  0  0  0  0  0  0  0  0  0  0
   -2.4369   -6.3095   30.9756 N   0  0  0  0  0  0  0  0  0  0  0  0
   -8.6272   -0.6872   30.5051 N   0  0  0  0  0  0  0  0  0  0  0  0
   -5.6512   -2.5560   29.9144 N   0  0  0  0  0  0  0  0  0  0  0  0
   -6.7699   -0.4989   29.2509 N   0  0  0  0  0  0  0  0  0  0  0  0
   -8.4255    1.3503   29.0831 C   0  0  0  0  0  0  0  0  0  0  0  0
   -4.7241   -0.2729   27.8925 C   0  0  0  0  0  0  0  0  0  0  0  0
   -1.2206   -2.0464   27.5794 C   0  0  0  0  0  0  0  0  0  0  0  0
   -5.9807    0.3056   28.3158 C   0  0  0  0  0  0  0  0  0  0  0  0
   -0.2679   -2.0494   28.5739 C   0  0  0  0  0  0  0  0  0  0  0  0
   -0.5146   -1.3090   29.7109 C   0  0  0  0  0  0  0  0  0  0  0  0
   -1.6871   -0.6010   29.8209 C   0  0  0  0  0  0  0  0  0  0  0  0
   -7.9395   -2.8717   31.5493 C   0  0  0  0  0  0  0  0  0  0  0  0
   -6.9245   -3.7894   31.5496 C   0  0  0  0  0  0  0  0  0  0  0  0
   -3.5129   -4.3961   29.9955 C   0  0  0  0  0  0  0  0  0  0  0  0
   -4.6460   -5.6463   31.6578 C   0  0  0  0  0  0  0  0  0  0  0  0
   -2.5697   -0.6596   28.7632 C   0  0  0  0  0  0  0  0  0  0  0  0
   -2.4367   -5.2903   30.1089 C   0  0  0  0  0  0  0  0  0  0  0  0
   -3.5371   -6.5024   31.7168 C   0  0  0  0  0  0  0  0  0  0  0  0
   -7.9704    0.0496   29.6294 C   0  0  0  0  0  0  0  0  0  0  0  0
   -6.6409   -1.6707   29.9495 C   0  0  0  0  0  0  0  0  0  0  0  0
   -7.7955   -1.7753   30.7194 C   0  0  0  0  0  0  0  0  0  0  0  0
   -5.7914   -3.6328   30.7137 C   0  0  0  0  0  0  0  0  0  0  0  0
   -4.6540   -4.5926   30.7598 C   0  0  0  0  0  0  0  0  0  0  0  0
   -1.3069   -4.3956   28.7072 H   0  0  0  0  0  0  0  0  0  0  0  0
   -0.5917   -5.7744   29.4737 H   0  0  0  0  0  0  0  0  0  0  0  0
   -4.3043   -7.6969   33.1496 H   0  0  0  0  0  0  0  0  0  0  0  0
   -2.6938   -8.0835   32.6428 H   0  0  0  0  0  0  0  0  0  0  0  0
   -7.7439    1.6983   28.4395 H   0  0  0  0  0  0  0  0  0  0  0  0
   -9.2978    1.2263   28.6101 H   0  0  0  0  0  0  0  0  0  0  0  0
   -8.5419    2.0036   29.8312 H   0  0  0  0  0  0  0  0  0  0  0  0
   -4.8173   -1.2657   27.8167 H   0  0  0  0  0  0  0  0  0  0  0  0
   -4.4591    0.1058   27.0058 H   0  0  0  0  0  0  0  0  0  0  0  0
   -1.0555   -2.5943   26.7593 H   0  0  0  0  0  0  0  0  0  0  0  0
   -5.7824    1.1813   28.7560 H   0  0  0  0  0  0  0  0  0  0  0  0
   -6.5371    0.4612   27.4996 H   0  0  0  0  0  0  0  0  0  0  0  0
    0.5782   -2.5731   28.4744 H   0  0  0  0  0  0  0  0  0  0  0  0
    0.1566   -1.2876   30.4519 H   0  0  0  0  0  0  0  0  0  0  0  0
   -1.8927   -0.0628   30.6382 H   0  0  0  0  0  0  0  0  0  0  0  0
   -8.7495   -2.9888   32.1239 H   0  0  0  0  0  0  0  0  0  0  0  0
   -6.9836   -4.5859   32.1513 H   0  0  0  0  0  0  0  0  0  0  0  0
   -3.4573   -3.6207   29.3664 H   0  0  0  0  0  0  0  0  0  0  0  0
   -5.4283   -5.7962   32.2624 H   0  0  0  0  0  0  0  0  0  0  0  0
  1 10  1  0  0  0  0
  1 20  1  0  0  0  0
  2 21  1  0  0  0  0
  3 22  1  0  0  0  0
  4 11  2  0  0  0  0
  4 20  1  0  0  0  0
  5 21  2  0  0  0  0
  5 22  1  0  0  0  0
  6 23  2  0  0  0  0
  6 25  1  0  0  0  0
  7 24  1  0  0  0  0
  7 26  2  0  0  0  0
  8 12  1  0  0  0  0
  8 23  1  0  0  0  0
  8 24  1  0  0  0  0
  9 23  1  0  0  0  0
 10 12  1  0  0  0  0
 11 13  1  0  0  0  0
 13 14  2  0  0  0  0
 14 15  1  0  0  0  0
 15 20  2  0  0  0  0
 16 17  2  0  0  0  0
 16 25  1  0  0  0  0
 17 26  1  0  0  0  0
 18 21  1  0  0  0  0
 18 27  2  0  0  0  0
 19 22  2  0  0  0  0
 19 27  1  0  0  0  0
 24 25  2  0  0  0  0
 26 27  1  0  0  0  0
  2 28  1  0  0  0  0
  2 29  1  0  0  0  0
  3 30  1  0  0  0  0
  3 31  1  0  0  0  0
  9 32  1  0  0  0  0
  9 33  1  0  0  0  0
  9 34  1  0  0  0  0
 10 35  1  0  0  0  0
 10 36  1  0  0  0  0
 11 37  1  0  0  0  0
 12 38  1  0  0  0  0
 12 39  1  0  0  0  0
 13 40  1  0  0  0  0
 14 41  1  0  0  0  0
 15 42  1  0  0  0  0
 16 43  1  0  0  0  0
 17 44  1  0  0  0  0
 18 45  1  0  0  0  0
 19 46  1  0  0  0  0
M  END
> <pdb_id>
7AK2

> <uniprot_id>
Q13627

> <usmiles>
O(c1ncccc1)CCN2c3nc(c4cc(nc(N)c4)N)ccc3N=C2C

$$$$
RHW_A_501
          07202416203D 1   1.00000     0.00000     0
            
 28 30  0  0  0  0            999 V2000
   -8.7808   -0.8473   30.3894 O   0  0  0  0  0  0  0  0  0  0  0  0
   -3.3426   -7.3840   32.6688 N   0  0  0  0  0  0  0  0  0  0  0  0
   -1.2707   -5.2653   29.1296 N   0  0  0  0  0  0  0  0  0  0  0  0
   -2.3931   -6.3016   30.9079 N   0  0  0  0  0  0  0  0  0  0  0  0
   -8.1654    0.0925   29.5869 C   0  0  0  0  0  0  0  0  0  0  0  0
   -6.9285   -0.2621   29.2530 C   0  0  0  0  0  0  0  0  0  0  0  0
   -8.0538   -3.0013   31.2982 C   0  0  0  0  0  0  0  0  0  0  0  0
   -6.9757   -3.8759   31.2997 C   0  0  0  0  0  0  0  0  0  0  0  0
   -4.5617   -5.5683   31.6855 C   0  0  0  0  0  0  0  0  0  0  0  0
   -3.4792   -4.4534   29.8504 C   0  0  0  0  0  0  0  0  0  0  0  0
   -5.6250   -2.4224   29.9090 C   0  0  0  0  0  0  0  0  0  0  0  0
   -3.4316   -6.4116   31.7554 C   0  0  0  0  0  0  0  0  0  0  0  0
   -2.4024   -5.3684   29.9365 C   0  0  0  0  0  0  0  0  0  0  0  0
   -7.8581   -1.8356   30.5901 C   0  0  0  0  0  0  0  0  0  0  0  0
   -6.6766   -1.5177   29.9154 C   0  0  0  0  0  0  0  0  0  0  0  0
   -5.7483   -3.6088   30.6188 C   0  0  0  0  0  0  0  0  0  0  0  0
   -4.5914   -4.5581   30.7127 C   0  0  0  0  0  0  0  0  0  0  0  0
   -4.0816   -7.5191   33.3289 H   0  0  0  0  0  0  0  0  0  0  0  0
   -2.5371   -7.9762   32.6919 H   0  0  0  0  0  0  0  0  0  0  0  0
   -1.2389   -4.5848   28.3975 H   0  0  0  0  0  0  0  0  0  0  0  0
   -0.4904   -5.8717   29.2828 H   0  0  0  0  0  0  0  0  0  0  0  0
   -8.6004    0.9428   29.2906 H   0  0  0  0  0  0  0  0  0  0  0  0
   -6.2990    0.2411   28.6611 H   0  0  0  0  0  0  0  0  0  0  0  0
   -8.9091   -3.2025   31.7756 H   0  0  0  0  0  0  0  0  0  0  0  0
   -7.0625   -4.7359   31.8026 H   0  0  0  0  0  0  0  0  0  0  0  0
   -5.3268   -5.6888   32.3180 H   0  0  0  0  0  0  0  0  0  0  0  0
   -3.4513   -3.7223   29.1687 H   0  0  0  0  0  0  0  0  0  0  0  0
   -4.7883   -2.2222   29.3993 H   0  0  0  0  0  0  0  0  0  0  0  0
  1  5  1  0  0  0  0
  1 14  1  0  0  0  0
  2 12  1  0  0  0  0
  3 13  1  0  0  0  0
  4 12  2  0  0  0  0
  4 13  1  0  0  0  0
  5  6  2  0  0  0  0
  6 15  1  0  0  0  0
  7  8  1  0  0  0  0
  7 14  2  0  0  0  0
  8 16  2  0  0  0  0
  9 12  1  0  0  0  0
  9 17  2  0  0  0  0
 10 13  2  0  0  0  0
 10 17  1  0  0  0  0
 11 15  2  0  0  0  0
 11 16  1  0  0  0  0
 14 15  1  0  0  0  0
 16 17  1  0  0  0  0
  2 18  1  0  0  0  0
  2 19  1  0  0  0  0
  3 20  1  0  0  0  0
  3 21  1  0  0  0  0
  5 22  1  0  0  0  0
  6 23  1  0  0  0  0
  7 24  1  0  0  0  0
  8 25  1  0  0  0  0
  9 26  1  0  0  0  0
 10 27  1  0  0  0  0
 11 28  1  0  0  0  0
M  END
> <pdb_id>
7AJ5

> <uniprot_id>
Q13627

> <usmiles>
O1c2c(cc(c3cc(nc(N)c3)N)cc2)C=C1

$$$$
RHZ_A_501
          07202416203D 1   1.00000     0.00000     0
            
 27 28  0  0  0  0            999 V2000
   -8.7528   -0.4304   29.9980 Cl  0  0  0  0  0  0  0  0  0  0  0  0
   -6.2000   -0.3363   28.7560 O   0  0  0  0  0  0  0  0  0  0  0  0
   -3.3968   -7.3805   32.5357 N   0  0  0  0  0  0  0  0  0  0  0  0
   -2.3287   -6.3827   30.7989 N   0  0  0  0  0  0  0  0  0  0  0  0
   -4.9340   -0.1393   28.0983 C   0  0  0  0  0  0  0  0  0  0  0  0
   -2.3240   -5.4467   29.8474 C   0  0  0  0  0  0  0  0  0  0  0  0
   -7.7666   -2.7331   30.9891 C   0  0  0  0  0  0  0  0  0  0  0  0
   -3.3302   -4.5002   29.7128 C   0  0  0  0  0  0  0  0  0  0  0  0
   -6.7652   -3.6906   31.0920 C   0  0  0  0  0  0  0  0  0  0  0  0
   -4.4778   -5.5288   31.5189 C   0  0  0  0  0  0  0  0  0  0  0  0
   -5.3498   -2.3976   29.6364 C   0  0  0  0  0  0  0  0  0  0  0  0
   -7.5288   -1.6131   30.2206 C   0  0  0  0  0  0  0  0  0  0  0  0
   -3.3950   -6.4278   31.6235 C   0  0  0  0  0  0  0  0  0  0  0  0
   -6.3353   -1.4407   29.5455 C   0  0  0  0  0  0  0  0  0  0  0  0
   -4.4359   -4.5244   30.5520 C   0  0  0  0  0  0  0  0  0  0  0  0
   -5.5427   -3.5251   30.4302 C   0  0  0  0  0  0  0  0  0  0  0  0
   -4.1628   -7.4605   33.1735 H   0  0  0  0  0  0  0  0  0  0  0  0
   -2.6323   -8.0228   32.5894 H   0  0  0  0  0  0  0  0  0  0  0  0
   -4.9675    0.6997   27.5552 H   0  0  0  0  0  0  0  0  0  0  0  0
   -4.2102   -0.0638   28.7841 H   0  0  0  0  0  0  0  0  0  0  0  0
   -4.7453   -0.9171   27.4987 H   0  0  0  0  0  0  0  0  0  0  0  0
   -1.5605   -5.4264   29.2019 H   0  0  0  0  0  0  0  0  0  0  0  0
   -8.6397   -2.8533   31.4615 H   0  0  0  0  0  0  0  0  0  0  0  0
   -3.2582   -3.7959   29.0065 H   0  0  0  0  0  0  0  0  0  0  0  0
   -6.9197   -4.5086   31.6460 H   0  0  0  0  0  0  0  0  0  0  0  0
   -5.2650   -5.6109   32.1301 H   0  0  0  0  0  0  0  0  0  0  0  0
   -4.4943   -2.2828   29.1316 H   0  0  0  0  0  0  0  0  0  0  0  0
  1 12  1  0  0  0  0
  2  5  1  0  0  0  0
  2 14  1  0  0  0  0
  3 13  1  0  0  0  0
  4  6  1  0  0  0  0
  4 13  2  0  0  0  0
  6  8  2  0  0  0  0
  7  9  1  0  0  0  0
  7 12  2  0  0  0  0
  8 15  1  0  0  0  0
  9 16  2  0  0  0  0
 10 13  1  0  0  0  0
 10 15  2  0  0  0  0
 11 14  2  0  0  0  0
 11 16  1  0  0  0  0
 12 14  1  0  0  0  0
 15 16  1  0  0  0  0
  3 17  1  0  0  0  0
  3 18  1  0  0  0  0
  5 19  1  0  0  0  0
  5 20  1  0  0  0  0
  5 21  1  0  0  0  0
  6 22  1  0  0  0  0
  7 23  1  0  0  0  0
  8 24  1  0  0  0  0
  9 25  1  0  0  0  0
 10 26  1  0  0  0  0
 11 27  1  0  0  0  0
M  END
> <pdb_id>
7AJ4

> <uniprot_id>
Q13627

> <usmiles>
Clc1c(OC)cc(c2cc(ncc2)N)cc1

$$$$
RIS_A_403
          07212404223D 1   1.00000     0.00000     0
            
 28 28  0  0  0  0            999 V2000
   10.3470   -2.8340   19.9470 P   0  0  0  0  0  0  0  0  0  0  0  0
    8.3150   -4.9390   20.6970 P   0  0  0  0  0  0  0  0  0  0  0  0
   10.8590   -2.9000   21.3550 O   0  0  0  0  0  0  0  0  0  0  0  0
   11.0740   -3.7650   19.0080 O   0  0  0  0  0  0  0  0  0  0  0  0
   10.4620   -1.4270   19.4410 O   0  0  0  0  0  0  0  0  0  0  0  0
    8.7480   -4.8930   22.1400 O   0  0  0  0  0  0  0  0  0  0  0  0
    6.8620   -5.3310   20.5650 O   0  0  0  0  0  0  0  0  0  0  0  0
    9.1940   -5.8960   19.9340 O   0  0  0  0  0  0  0  0  0  0  0  0
    8.0730   -3.3030   18.6540 O   0  0  0  0  0  0  0  0  0  0  0  0
    4.3790   -1.7020   19.2370 N   0  0  0  0  0  0  0  0  0  0  0  0
    3.5810   -2.2840   20.1340 C   0  0  0  0  0  0  0  0  0  0  0  0
    4.1300   -2.8360   21.2690 C   0  0  0  0  0  0  0  0  0  0  0  0
    5.7000   -1.6390   19.4480 C   0  0  0  0  0  0  0  0  0  0  0  0
    5.4570   -2.7720   21.4960 C   0  0  0  0  0  0  0  0  0  0  0  0
    7.7800   -2.1430   20.7990 C   0  0  0  0  0  0  0  0  0  0  0  0
    6.2640   -2.1940   20.5810 C   0  0  0  0  0  0  0  0  0  0  0  0
    8.5240   -3.2350   19.9790 C   0  0  0  0  0  0  0  0  0  0  0  0
   10.3415   -2.2645   21.9280 H   0  0  0  0  0  0  0  0  0  0  0  0
   10.6907   -3.6772   18.0886 H   0  0  0  0  0  0  0  0  0  0  0  0
    9.7118   -4.6311   22.1906 H   0  0  0  0  0  0  0  0  0  0  0  0
    6.6089   -5.3517   19.5978 H   0  0  0  0  0  0  0  0  0  0  0  0
    7.0963   -3.5172   18.6449 H   0  0  0  0  0  0  0  0  0  0  0  0
    2.5931   -2.3188   19.9830 H   0  0  0  0  0  0  0  0  0  0  0  0
    3.5368   -3.2903   21.9336 H   0  0  0  0  0  0  0  0  0  0  0  0
    6.2858   -1.1845   18.7770 H   0  0  0  0  0  0  0  0  0  0  0  0
    5.8418   -3.1507   22.3378 H   0  0  0  0  0  0  0  0  0  0  0  0
    7.9713   -2.2826   21.7706 H   0  0  0  0  0  0  0  0  0  0  0  0
    8.1163   -1.2439   20.5189 H   0  0  0  0  0  0  0  0  0  0  0  0
  1  3  1  0  0  0  0
  1  4  1  0  0  0  0
  1  5  2  0  0  0  0
  1 17  1  0  0  0  0
  2  6  1  0  0  0  0
  2  7  1  0  0  0  0
  2  8  2  0  0  0  0
  2 17  1  0  0  0  0
  9 17  1  0  0  0  0
 10 11  2  0  0  0  0
 10 13  1  0  0  0  0
 11 12  1  0  0  0  0
 12 14  2  0  0  0  0
 13 16  2  0  0  0  0
 14 16  1  0  0  0  0
 15 16  1  0  0  0  0
 15 17  1  0  0  0  0
  3 18  1  0  0  0  0
  4 19  1  0  0  0  0
  6 20  1  0  0  0  0
  7 21  1  0  0  0  0
  9 22  1  0  0  0  0
 11 23  1  0  0  0  0
 12 24  1  0  0  0  0
 13 25  1  0  0  0  0
 14 26  1  0  0  0  0
 15 27  1  0  0  0  0
 15 28  1  0  0  0  0
M  END
> <pdb_id>
8SU2

> <uniprot_id>
Q9K499

> <usmiles>
P(=O)(O)(O)C(P(=O)(O)O)(O)Cc1cnccc1

$$$$
RJ2_A_501
          07202416203D 1   1.00000     0.00000     0
            
 38 41  0  0  0  0            999 V2000
   -9.0477   -0.7404   30.4943 O   0  0  0  0  0  0  0  0  0  0  0  0
    1.4640   -3.6083   28.6188 N   0  0  0  0  0  0  0  0  0  0  0  0
   -2.4767   -5.9558   30.5088 N   0  0  0  0  0  0  0  0  0  0  0  0
   -1.1678   -4.3180   29.5132 N   0  0  0  0  0  0  0  0  0  0  0  0
   -8.5491    0.2050   29.6151 C   0  0  0  0  0  0  0  0  0  0  0  0
    0.8139   -4.7919   28.0958 C   0  0  0  0  0  0  0  0  0  0  0  0
    0.4550   -2.5553   28.7189 C   0  0  0  0  0  0  0  0  0  0  0  0
   -3.6415   -6.3508   31.0543 C   0  0  0  0  0  0  0  0  0  0  0  0
   -0.2125   -5.3229   29.0672 C   0  0  0  0  0  0  0  0  0  0  0  0
   -0.6727   -2.9439   29.6638 C   0  0  0  0  0  0  0  0  0  0  0  0
   -7.3125   -0.0996   29.1987 C   0  0  0  0  0  0  0  0  0  0  0  0
   -4.7518   -5.5245   31.1113 C   0  0  0  0  0  0  0  0  0  0  0  0
   -8.1299   -2.8041   31.4240 C   0  0  0  0  0  0  0  0  0  0  0  0
   -7.0071   -3.6111   31.3956 C   0  0  0  0  0  0  0  0  0  0  0  0
   -3.4598   -3.8053   30.0826 C   0  0  0  0  0  0  0  0  0  0  0  0
   -5.8596   -2.1747   29.8277 C   0  0  0  0  0  0  0  0  0  0  0  0
   -2.3902   -4.7021   29.9995 C   0  0  0  0  0  0  0  0  0  0  0  0
   -8.0555   -1.6622   30.6621 C   0  0  0  0  0  0  0  0  0  0  0  0
   -6.9600   -1.3304   29.8577 C   0  0  0  0  0  0  0  0  0  0  0  0
   -4.6749   -4.2229   30.6223 C   0  0  0  0  0  0  0  0  0  0  0  0
   -5.8529   -3.3066   30.6269 C   0  0  0  0  0  0  0  0  0  0  0  0
    2.1962   -3.3208   28.0013 H   0  0  0  0  0  0  0  0  0  0  0  0
   -9.0522    1.0190   29.3248 H   0  0  0  0  0  0  0  0  0  0  0  0
    1.5034   -5.4973   27.9313 H   0  0  0  0  0  0  0  0  0  0  0  0
    0.3603   -4.5618   27.2349 H   0  0  0  0  0  0  0  0  0  0  0  0
    0.0727   -2.3855   27.8106 H   0  0  0  0  0  0  0  0  0  0  0  0
    0.8897   -1.7213   29.0589 H   0  0  0  0  0  0  0  0  0  0  0  0
   -3.7081   -7.2743   31.4321 H   0  0  0  0  0  0  0  0  0  0  0  0
   -0.7167   -6.0626   28.6215 H   0  0  0  0  0  0  0  0  0  0  0  0
    0.2663   -5.6815   29.8685 H   0  0  0  0  0  0  0  0  0  0  0  0
   -0.3424   -2.8350   30.6014 H   0  0  0  0  0  0  0  0  0  0  0  0
   -1.4381   -2.3201   29.5055 H   0  0  0  0  0  0  0  0  0  0  0  0
   -6.7481    0.4225   28.5592 H   0  0  0  0  0  0  0  0  0  0  0  0
   -5.6075   -5.8622   31.5032 H   0  0  0  0  0  0  0  0  0  0  0  0
   -8.9404   -3.0355   31.9620 H   0  0  0  0  0  0  0  0  0  0  0  0
   -7.0082   -4.4486   31.9421 H   0  0  0  0  0  0  0  0  0  0  0  0
   -3.3531   -2.8663   29.7556 H   0  0  0  0  0  0  0  0  0  0  0  0
   -5.0802   -1.9687   29.2360 H   0  0  0  0  0  0  0  0  0  0  0  0
  1  5  1  0  0  0  0
  1 18  1  0  0  0  0
  2  6  1  0  0  0  0
  2  7  1  0  0  0  0
  3  8  2  0  0  0  0
  3 17  1  0  0  0  0
  4  9  1  0  0  0  0
  4 10  1  0  0  0  0
  4 17  1  0  0  0  0
  5 11  2  0  0  0  0
  6  9  1  0  0  0  0
  7 10  1  0  0  0  0
  8 12  1  0  0  0  0
 11 19  1  0  0  0  0
 12 20  2  0  0  0  0
 13 14  1  0  0  0  0
 13 18  2  0  0  0  0
 14 21  2  0  0  0  0
 15 17  2  0  0  0  0
 15 20  1  0  0  0  0
 16 19  2  0  0  0  0
 16 21  1  0  0  0  0
 18 19  1  0  0  0  0
 20 21  1  0  0  0  0
  2 22  1  0  0  0  0
  5 23  1  0  0  0  0
  6 24  1  0  0  0  0
  6 25  1  0  0  0  0
  7 26  1  0  0  0  0
  7 27  1  0  0  0  0
  8 28  1  0  0  0  0
  9 29  1  0  0  0  0
  9 30  1  0  0  0  0
 10 31  1  0  0  0  0
 10 32  1  0  0  0  0
 11 33  1  0  0  0  0
 12 34  1  0  0  0  0
 13 35  1  0  0  0  0
 14 36  1  0  0  0  0
 15 37  1  0  0  0  0
 16 38  1  0  0  0  0
M  END
> <pdb_id>
7AJA

> <uniprot_id>
Q13627

> <usmiles>
O1c2c(cc(c3cc(ncc3)N4CCNCC4)cc2)C=C1

$$$$
RJ8_A_501
          07202416203D 1   1.00000     0.00000     0
            
 26 28  0  0  0  0            999 V2000
   -8.8260   -0.8046   30.4082 O   0  0  0  0  0  0  0  0  0  0  0  0
   -3.4395   -7.4576   32.6164 N   0  0  0  0  0  0  0  0  0  0  0  0
   -2.4740   -6.3741   30.8713 N   0  0  0  0  0  0  0  0  0  0  0  0
   -8.2239    0.1450   29.5949 C   0  0  0  0  0  0  0  0  0  0  0  0
   -2.5259   -5.4147   29.9436 C   0  0  0  0  0  0  0  0  0  0  0  0
   -6.9860   -0.2151   29.2371 C   0  0  0  0  0  0  0  0  0  0  0  0
   -8.0644   -2.9558   31.3127 C   0  0  0  0  0  0  0  0  0  0  0  0
   -3.5521   -4.4821   29.8735 C   0  0  0  0  0  0  0  0  0  0  0  0
   -6.9917   -3.8293   31.3263 C   0  0  0  0  0  0  0  0  0  0  0  0
   -4.6201   -5.5910   31.6818 C   0  0  0  0  0  0  0  0  0  0  0  0
   -5.6621   -2.3972   29.9014 C   0  0  0  0  0  0  0  0  0  0  0  0
   -3.5211   -6.4798   31.7181 C   0  0  0  0  0  0  0  0  0  0  0  0
   -7.8955   -1.7987   30.5827 C   0  0  0  0  0  0  0  0  0  0  0  0
   -6.7285   -1.4919   29.8830 C   0  0  0  0  0  0  0  0  0  0  0  0
   -4.6348   -4.5532   30.7376 C   0  0  0  0  0  0  0  0  0  0  0  0
   -5.7640   -3.5663   30.6579 C   0  0  0  0  0  0  0  0  0  0  0  0
   -4.1792   -7.5943   33.2753 H   0  0  0  0  0  0  0  0  0  0  0  0
   -2.6384   -8.0560   32.6327 H   0  0  0  0  0  0  0  0  0  0  0  0
   -8.6631    0.9971   29.3102 H   0  0  0  0  0  0  0  0  0  0  0  0
   -1.7908   -5.3657   29.2674 H   0  0  0  0  0  0  0  0  0  0  0  0
   -6.3620    0.2930   28.6434 H   0  0  0  0  0  0  0  0  0  0  0  0
   -8.9130   -3.1523   31.8039 H   0  0  0  0  0  0  0  0  0  0  0  0
   -3.5103   -3.7510   29.1925 H   0  0  0  0  0  0  0  0  0  0  0  0
   -7.0840   -4.6878   31.8307 H   0  0  0  0  0  0  0  0  0  0  0  0
   -5.3797   -5.7010   32.3229 H   0  0  0  0  0  0  0  0  0  0  0  0
   -4.8323   -2.2083   29.3762 H   0  0  0  0  0  0  0  0  0  0  0  0
  1  4  1  0  0  0  0
  1 13  1  0  0  0  0
  2 12  1  0  0  0  0
  3  5  1  0  0  0  0
  3 12  2  0  0  0  0
  4  6  2  0  0  0  0
  5  8  2  0  0  0  0
  6 14  1  0  0  0  0
  7  9  1  0  0  0  0
  7 13  2  0  0  0  0
  8 15  1  0  0  0  0
  9 16  2  0  0  0  0
 10 12  1  0  0  0  0
 10 15  2  0  0  0  0
 11 14  2  0  0  0  0
 11 16  1  0  0  0  0
 13 14  1  0  0  0  0
 15 16  1  0  0  0  0
  2 17  1  0  0  0  0
  2 18  1  0  0  0  0
  4 19  1  0  0  0  0
  5 20  1  0  0  0  0
  6 21  1  0  0  0  0
  7 22  1  0  0  0  0
  8 23  1  0  0  0  0
  9 24  1  0  0  0  0
 10 25  1  0  0  0  0
 11 26  1  0  0  0  0
M  END
> <pdb_id>
7AJ8

> <uniprot_id>
Q13627

> <usmiles>
O1c2c(cc(c3cc(ncc3)N)cc2)C=C1

$$$$
RJE_A_1157
          07192416543D 1   1.00000     0.00000     0
            
 43 45  0  0  0  0            999 V2000
   18.6365   21.2607    3.7164 O   0  0  0  0  0  0  0  0  0  0  0  0
   11.1201   20.8428    5.3884 O   0  0  0  0  0  0  0  0  0  0  0  0
   12.7139   18.0057    5.4236 O   0  0  0  0  0  0  0  0  0  0  0  0
   17.0115   17.4549    7.1083 N   0  0  0  0  0  0  0  0  0  0  0  0
   14.8657   17.7986    6.1904 N   0  0  0  0  0  0  0  0  0  0  0  0
   14.4380   19.3671    4.5443 N   0  0  0  0  0  0  0  0  0  0  0  0
   17.8616   19.6896    5.1791 N   0  0  0  0  0  0  0  0  0  0  0  0
   16.4425   20.6551    3.8046 N   0  0  0  0  0  0  0  0  0  0  0  0
   10.4286   21.7003    4.4610 C   0  0  0  0  0  0  0  0  0  0  0  0
   16.5694   16.4426    8.0608 C   0  0  0  0  0  0  0  0  0  0  0  0
   10.8262   19.4513    5.3548 C   0  0  0  0  0  0  0  0  0  0  0  0
   11.8812   18.7244    4.5129 C   0  0  0  0  0  0  0  0  0  0  0  0
   15.9743   21.4690    2.6728 C   0  0  0  0  0  0  0  0  0  0  0  0
   13.6027   24.9587    3.2343 C   0  0  0  0  0  0  0  0  0  0  0  0
   13.2219   23.7826    3.8544 C   0  0  0  0  0  0  0  0  0  0  0  0
   14.7361   24.9924    2.4499 C   0  0  0  0  0  0  0  0  0  0  0  0
   13.9865   22.6344    3.6906 C   0  0  0  0  0  0  0  0  0  0  0  0
   15.5040   23.8529    2.2790 C   0  0  0  0  0  0  0  0  0  0  0  0
   17.7244   20.5920    4.1914 C   0  0  0  0  0  0  0  0  0  0  0  0
   14.0201   18.4169    5.3699 C   0  0  0  0  0  0  0  0  0  0  0  0
   16.1524   18.1088    6.2379 C   0  0  0  0  0  0  0  0  0  0  0  0
   15.7156   19.7435    4.5337 C   0  0  0  0  0  0  0  0  0  0  0  0
   16.6125   19.1254    5.4082 C   0  0  0  0  0  0  0  0  0  0  0  0
   15.1328   22.6831    2.9113 C   0  0  0  0  0  0  0  0  0  0  0  0
   17.9833   17.6892    7.0816 H   0  0  0  0  0  0  0  0  0  0  0  0
   18.7086   19.4653    5.6611 H   0  0  0  0  0  0  0  0  0  0  0  0
   10.7288   22.6450    4.5932 H   0  0  0  0  0  0  0  0  0  0  0  0
   10.6335   21.4133    3.5253 H   0  0  0  0  0  0  0  0  0  0  0  0
    9.4434   21.6382    4.6206 H   0  0  0  0  0  0  0  0  0  0  0  0
   17.3552   16.1095    8.5819 H   0  0  0  0  0  0  0  0  0  0  0  0
   15.9002   16.8434    8.6865 H   0  0  0  0  0  0  0  0  0  0  0  0
   16.1497   15.6810    7.5670 H   0  0  0  0  0  0  0  0  0  0  0  0
    9.9227   19.3115    4.9497 H   0  0  0  0  0  0  0  0  0  0  0  0
   10.8342   19.0867    6.2859 H   0  0  0  0  0  0  0  0  0  0  0  0
   11.4383   18.0909    3.8784 H   0  0  0  0  0  0  0  0  0  0  0  0
   12.4258   19.3860    3.9974 H   0  0  0  0  0  0  0  0  0  0  0  0
   15.4416   20.8617    2.0834 H   0  0  0  0  0  0  0  0  0  0  0  0
   16.7903   21.7769    2.1836 H   0  0  0  0  0  0  0  0  0  0  0  0
   13.0548   25.7864    3.3551 H   0  0  0  0  0  0  0  0  0  0  0  0
   12.3974   23.7588    4.4198 H   0  0  0  0  0  0  0  0  0  0  0  0
   15.0051   25.8449    2.0017 H   0  0  0  0  0  0  0  0  0  0  0  0
   13.7126   21.7794    4.1311 H   0  0  0  0  0  0  0  0  0  0  0  0
   16.3206   23.8771    1.7024 H   0  0  0  0  0  0  0  0  0  0  0  0
  1 19  2  0  0  0  0
  2  9  1  0  0  0  0
  2 11  1  0  0  0  0
  3 12  1  0  0  0  0
  3 20  1  0  0  0  0
  4 10  1  0  0  0  0
  4 21  1  0  0  0  0
  5 20  2  0  0  0  0
  5 21  1  0  0  0  0
  6 20  1  0  0  0  0
  6 22  2  0  0  0  0
  7 19  1  0  0  0  0
  7 23  1  0  0  0  0
  8 13  1  0  0  0  0
  8 19  1  0  0  0  0
  8 22  1  0  0  0  0
 11 12  1  0  0  0  0
 13 24  1  0  0  0  0
 14 15  2  0  0  0  0
 14 16  1  0  0  0  0
 15 17  1  0  0  0  0
 16 18  2  0  0  0  0
 17 24  2  0  0  0  0
 18 24  1  0  0  0  0
 21 23  2  0  0  0  0
 22 23  1  0  0  0  0
  4 25  1  0  0  0  0
  7 26  1  0  0  0  0
  9 27  1  0  0  0  0
  9 28  1  0  0  0  0
  9 29  1  0  0  0  0
 10 30  1  0  0  0  0
 10 31  1  0  0  0  0
 10 32  1  0  0  0  0
 11 33  1  0  0  0  0
 11 34  1  0  0  0  0
 12 35  1  0  0  0  0
 12 36  1  0  0  0  0
 13 37  1  0  0  0  0
 13 38  1  0  0  0  0
 14 39  1  0  0  0  0
 15 40  1  0  0  0  0
 16 41  1  0  0  0  0
 17 42  1  0  0  0  0
 18 43  1  0  0  0  0
M  END
> <pdb_id>
5ANT

> <uniprot_id>
P36639

> <usmiles>
O=C1N(c2nc(OCCOC)nc(NC)c2N1)Cc3ccccc3

$$$$
RJP_C_147
          07192422283D 1   1.00000     0.00000     0
            
 40 41  0  0  0  0            999 V2000
   27.6980   49.2922    8.7240 O   0  0  0  0  0  0  0  0  0  0  0  0
   31.3043   42.3878    6.2719 O   0  0  0  0  0  0  0  0  0  0  0  0
   29.5125   42.7823    4.9700 O   0  0  0  0  0  0  0  0  0  0  0  0
   29.8544   42.4296   11.0343 O   0  0  0  0  0  0  0  0  0  0  0  0
   28.2690   44.8320   10.8724 O   0  0  0  0  0  0  0  0  0  0  0  0
   27.9400   42.1514    7.1625 O   0  0  0  0  0  0  0  0  0  0  0  0
   28.8087   49.3285    6.7070 N   0  0  0  0  0  0  0  0  0  0  0  0
   29.5124   53.3877    6.0780 C   0  0  0  0  0  0  0  0  0  0  0  0
   29.1553   52.9609    7.3650 C   0  0  0  0  0  0  0  0  0  0  0  0
   29.6451   52.4793    5.0325 C   0  0  0  0  0  0  0  0  0  0  0  0
   28.2805   47.1917    7.4737 C   0  0  0  0  0  0  0  0  0  0  0  0
   28.9321   51.6191    7.6215 C   0  0  0  0  0  0  0  0  0  0  0  0
   29.3698   51.1646    5.2839 C   0  0  0  0  0  0  0  0  0  0  0  0
   28.1527   46.4079    8.7146 C   0  0  0  0  0  0  0  0  0  0  0  0
   30.0262   42.5286    8.5319 C   0  0  0  0  0  0  0  0  0  0  0  0
   28.9120   44.4033    7.4045 C   0  0  0  0  0  0  0  0  0  0  0  0
   28.2324   48.7084    7.7434 C   0  0  0  0  0  0  0  0  0  0  0  0
   30.0860   42.6749    6.0889 C   0  0  0  0  0  0  0  0  0  0  0  0
   29.2179   42.8797    9.7882 C   0  0  2  0  0  0  0  0  0  0  0  0
   29.0101   50.7263    6.5518 C   0  0  0  0  0  0  0  0  0  0  0  0
   28.8094   44.3232    9.7784 C   0  0  0  0  0  0  0  0  0  0  0  0
   28.6752   44.9997    8.6127 C   0  0  0  0  0  0  0  0  0  0  0  0
   29.2199   42.9288    7.2915 C   0  0  2  0  0  0  0  0  0  0  0  0
   31.6692   42.3253    7.2008 H   0  0  0  0  0  0  0  0  0  0  0  0
   29.2820   42.6868   11.8128 H   0  0  0  0  0  0  0  0  0  0  0  0
   27.4516   42.4472    6.3416 H   0  0  0  0  0  0  0  0  0  0  0  0
   29.1323   48.7454    5.9618 H   0  0  0  0  0  0  0  0  0  0  0  0
   29.6743   54.3599    5.9089 H   0  0  0  0  0  0  0  0  0  0  0  0
   29.0612   53.6301    8.1022 H   0  0  0  0  0  0  0  0  0  0  0  0
   29.9335   52.7798    4.1234 H   0  0  0  0  0  0  0  0  0  0  0  0
   27.5298   46.9487    6.8593 H   0  0  0  0  0  0  0  0  0  0  0  0
   29.1528   46.9683    7.0388 H   0  0  0  0  0  0  0  0  0  0  0  0
   28.7213   51.2992    8.5452 H   0  0  0  0  0  0  0  0  0  0  0  0
   29.4288   50.5022    4.5371 H   0  0  0  0  0  0  0  0  0  0  0  0
   27.1843   46.3660    8.9605 H   0  0  0  0  0  0  0  0  0  0  0  0
   28.6598   46.8789    9.4364 H   0  0  0  0  0  0  0  0  0  0  0  0
   30.2051   41.5449    8.5125 H   0  0  0  0  0  0  0  0  0  0  0  0
   30.8941   43.0251    8.5422 H   0  0  0  0  0  0  0  0  0  0  0  0
   28.8805   44.9587    6.5734 H   0  0  0  0  0  0  0  0  0  0  0  0
   28.3676   42.3583    9.7161 H   0  0  0  0  0  0  0  0  0  0  0  0
  1 17  2  0  0  0  0
  2 18  1  0  0  0  0
  3 18  2  0  0  0  0
  4 19  1  0  0  0  0
  5 21  2  0  0  0  0
  6 23  1  0  0  0  0
  7 17  1  0  0  0  0
  7 20  1  0  0  0  0
  8  9  2  0  0  0  0
  8 10  1  0  0  0  0
  9 12  1  0  0  0  0
 10 13  2  0  0  0  0
 11 14  1  0  0  0  0
 11 17  1  0  0  0  0
 12 20  2  0  0  0  0
 13 20  1  0  0  0  0
 14 22  1  0  0  0  0
 15 19  1  0  0  0  0
 15 23  1  0  0  0  0
 16 22  2  0  0  0  0
 16 23  1  0  0  0  0
 18 23  1  0  0  0  0
 19 21  1  0  0  0  0
 21 22  1  0  0  0  0
  2 24  1  0  0  0  0
  4 25  1  0  0  0  0
  6 26  1  0  0  0  0
  7 27  1  0  0  0  0
  8 28  1  0  0  0  0
  9 29  1  0  0  0  0
 10 30  1  0  0  0  0
 11 31  1  0  0  0  0
 11 32  1  0  0  0  0
 12 33  1  0  0  0  0
 13 34  1  0  0  0  0
 14 35  1  0  0  0  0
 14 36  1  0  0  0  0
 15 37  1  0  0  0  0
 15 38  1  0  0  0  0
 16 39  1  0  0  0  0
 19 40  1  0  0  0  0
M  END
> <pdb_id>
3N86

> <uniprot_id>
P0A4Z6

> <usmiles>
O=C(O)[C@]1(O)C=C(C(=O)[C@H](O)C1)CCC(=O)Nc2ccccc2

$$$$
RK2_B_501
          07202416203D 1   1.00000     0.00000     0
            
 49 52  0  0  0  0            999 V2000
   -3.7683    0.3161   29.5291 O   0  0  0  0  0  0  0  0  0  0  0  0
   -1.4216   -5.0829   29.3327 N   0  0  0  0  0  0  0  0  0  0  0  0
   -3.5309   -7.3431   32.7066 N   0  0  0  0  0  0  0  0  0  0  0  0
   -2.7327   -0.6776   27.7292 N   0  0  0  0  0  0  0  0  0  0  0  0
   -2.4897   -6.2029   31.0088 N   0  0  0  0  0  0  0  0  0  0  0  0
   -8.5891   -0.5254   30.4652 N   0  0  0  0  0  0  0  0  0  0  0  0
   -5.6448   -2.4140   29.9543 N   0  0  0  0  0  0  0  0  0  0  0  0
   -6.7167   -0.3248   29.2689 N   0  0  0  0  0  0  0  0  0  0  0  0
   -5.1606    2.3156   29.2801 C   0  0  0  0  0  0  0  0  0  0  0  0
   -8.4305    1.5005   29.0361 C   0  0  0  0  0  0  0  0  0  0  0  0
   -1.7024   -1.4225   27.2815 C   0  0  0  0  0  0  0  0  0  0  0  0
   -5.8004    0.1536   28.2315 C   0  0  0  0  0  0  0  0  0  0  0  0
   -0.6843   -1.8794   28.0975 C   0  0  0  0  0  0  0  0  0  0  0  0
   -0.7297   -1.5615   29.4366 C   0  0  0  0  0  0  0  0  0  0  0  0
   -1.7751   -0.8091   29.9173 C   0  0  0  0  0  0  0  0  0  0  0  0
   -7.9506   -2.7200   31.5385 C   0  0  0  0  0  0  0  0  0  0  0  0
   -6.9594   -3.6498   31.5515 C   0  0  0  0  0  0  0  0  0  0  0  0
   -3.5605   -4.2906   30.0011 C   0  0  0  0  0  0  0  0  0  0  0  0
   -4.6834   -5.5062   31.7089 C   0  0  0  0  0  0  0  0  0  0  0  0
   -2.7519   -0.4029   29.0087 C   0  0  0  0  0  0  0  0  0  0  0  0
   -2.4945   -5.2014   30.1104 C   0  0  0  0  0  0  0  0  0  0  0  0
   -3.5706   -6.3586   31.7940 C   0  0  0  0  0  0  0  0  0  0  0  0
   -4.6512    1.0524   28.6369 C   0  0  2  0  0  0  0  0  0  0  0  0
   -7.9341    0.2150   29.5887 C   0  0  0  0  0  0  0  0  0  0  0  0
   -6.6288   -1.5241   29.9399 C   0  0  0  0  0  0  0  0  0  0  0  0
   -7.7858   -1.6208   30.7097 C   0  0  0  0  0  0  0  0  0  0  0  0
   -5.8105   -3.4916   30.7414 C   0  0  0  0  0  0  0  0  0  0  0  0
   -4.6863   -4.4576   30.7961 C   0  0  0  0  0  0  0  0  0  0  0  0
   -1.3774   -4.3542   28.6492 H   0  0  0  0  0  0  0  0  0  0  0  0
   -0.6592   -5.7224   29.4316 H   0  0  0  0  0  0  0  0  0  0  0  0
   -4.3121   -7.4955   33.3121 H   0  0  0  0  0  0  0  0  0  0  0  0
   -2.7201   -7.9237   32.7808 H   0  0  0  0  0  0  0  0  0  0  0  0
   -5.7624    2.7955   28.6416 H   0  0  0  0  0  0  0  0  0  0  0  0
   -5.6700    2.0855   30.1093 H   0  0  0  0  0  0  0  0  0  0  0  0
   -4.3877    2.9045   29.5163 H   0  0  0  0  0  0  0  0  0  0  0  0
   -7.7581    1.8692   28.3942 H   0  0  0  0  0  0  0  0  0  0  0  0
   -9.2963    1.3464   28.5600 H   0  0  0  0  0  0  0  0  0  0  0  0
   -8.5714    2.1516   29.7818 H   0  0  0  0  0  0  0  0  0  0  0  0
   -1.6729   -1.6565   26.3097 H   0  0  0  0  0  0  0  0  0  0  0  0
   -6.3483    0.6585   27.5645 H   0  0  0  0  0  0  0  0  0  0  0  0
   -5.4033   -0.6533   27.7942 H   0  0  0  0  0  0  0  0  0  0  0  0
    0.0655   -2.4264   27.7251 H   0  0  0  0  0  0  0  0  0  0  0  0
   -0.0084   -1.8753   30.0541 H   0  0  0  0  0  0  0  0  0  0  0  0
   -1.8331   -0.5619   30.8846 H   0  0  0  0  0  0  0  0  0  0  0  0
   -8.7677   -2.8246   32.1054 H   0  0  0  0  0  0  0  0  0  0  0  0
   -7.0432   -4.4542   32.1397 H   0  0  0  0  0  0  0  0  0  0  0  0
   -3.5079   -3.5286   29.3557 H   0  0  0  0  0  0  0  0  0  0  0  0
   -5.4731   -5.6534   32.3044 H   0  0  0  0  0  0  0  0  0  0  0  0
   -4.1373    1.2999   27.8155 H   0  0  0  0  0  0  0  0  0  0  0  0
  1 20  1  0  0  0  0
  1 23  1  0  0  0  0
  2 21  1  0  0  0  0
  3 22  1  0  0  0  0
  4 11  2  0  0  0  0
  4 20  1  0  0  0  0
  5 21  2  0  0  0  0
  5 22  1  0  0  0  0
  6 24  2  0  0  0  0
  6 26  1  0  0  0  0
  7 25  1  0  0  0  0
  7 27  2  0  0  0  0
  8 12  1  0  0  0  0
  8 24  1  0  0  0  0
  8 25  1  0  0  0  0
  9 23  1  0  0  0  0
 10 24  1  0  0  0  0
 11 13  1  0  0  0  0
 12 23  1  0  0  0  0
 13 14  2  0  0  0  0
 14 15  1  0  0  0  0
 15 20  2  0  0  0  0
 16 17  2  0  0  0  0
 16 26  1  0  0  0  0
 17 27  1  0  0  0  0
 18 21  1  0  0  0  0
 18 28  2  0  0  0  0
 19 22  2  0  0  0  0
 19 28  1  0  0  0  0
 25 26  2  0  0  0  0
 27 28  1  0  0  0  0
  2 29  1  0  0  0  0
  2 30  1  0  0  0  0
  3 31  1  0  0  0  0
  3 32  1  0  0  0  0
  9 33  1  0  0  0  0
  9 34  1  0  0  0  0
  9 35  1  0  0  0  0
 10 36  1  0  0  0  0
 10 37  1  0  0  0  0
 10 38  1  0  0  0  0
 11 39  1  0  0  0  0
 12 40  1  0  0  0  0
 12 41  1  0  0  0  0
 13 42  1  0  0  0  0
 14 43  1  0  0  0  0
 15 44  1  0  0  0  0
 16 45  1  0  0  0  0
 17 46  1  0  0  0  0
 18 47  1  0  0  0  0
 19 48  1  0  0  0  0
 23 49  1  0  0  0  0
M  END
> <pdb_id>
7AKA

> <uniprot_id>
Q13627

> <usmiles>
O(c1ncccc1)[C@@H](CN2c3nc(c4cc(nc(N)c4)N)ccc3N=C2C)C

$$$$
RK5_A_501
          07202416203D 1   1.00000     0.00000     0
            
 34 36  0  0  0  0            999 V2000
   -8.5305   -0.8926   30.4283 O   0  0  0  0  0  0  0  0  0  0  0  0
   -1.2224   -5.5645   29.2336 N   0  0  0  0  0  0  0  0  0  0  0  0
   -3.3716   -7.6374   32.7270 N   0  0  0  0  0  0  0  0  0  0  0  0
   -2.3432   -6.5848   30.9738 N   0  0  0  0  0  0  0  0  0  0  0  0
   -8.6153    1.2215   29.1715 C   0  0  0  0  0  0  0  0  0  0  0  0
   -5.7138    0.1221   28.2015 C   0  0  0  0  0  0  0  0  0  0  0  0
   -7.8396   -3.0507   31.3831 C   0  0  0  0  0  0  0  0  0  0  0  0
   -6.8091   -3.9759   31.3884 C   0  0  0  0  0  0  0  0  0  0  0  0
   -3.3723   -4.7048   29.9080 C   0  0  0  0  0  0  0  0  0  0  0  0
   -4.5217   -5.8161   31.6816 C   0  0  0  0  0  0  0  0  0  0  0  0
   -5.4870   -2.6829   29.8380 C   0  0  0  0  0  0  0  0  0  0  0  0
   -2.3285   -5.6401   30.0194 C   0  0  0  0  0  0  0  0  0  0  0  0
   -3.4111   -6.6746   31.7894 C   0  0  0  0  0  0  0  0  0  0  0  0
   -7.9171   -0.0309   29.5315 C   0  0  0  0  0  0  0  0  0  0  0  0
   -7.6484   -1.9458   30.5892 C   0  0  0  0  0  0  0  0  0  0  0  0
   -6.7224   -0.5099   29.1096 C   0  0  0  0  0  0  0  0  0  0  0  0
   -5.6211   -3.8150   30.6268 C   0  0  0  0  0  0  0  0  0  0  0  0
   -4.5135   -4.8159   30.7102 C   0  0  0  0  0  0  0  0  0  0  0  0
   -6.5106   -1.7412   29.8205 C   0  0  0  0  0  0  0  0  0  0  0  0
   -1.1689   -4.8759   28.5105 H   0  0  0  0  0  0  0  0  0  0  0  0
   -0.4619   -6.1975   29.3784 H   0  0  0  0  0  0  0  0  0  0  0  0
   -4.1372   -7.7502   33.3603 H   0  0  0  0  0  0  0  0  0  0  0  0
   -2.5766   -8.2406   32.7910 H   0  0  0  0  0  0  0  0  0  0  0  0
   -8.0585    1.7386   28.5214 H   0  0  0  0  0  0  0  0  0  0  0  0
   -9.4978    1.0033   28.7549 H   0  0  0  0  0  0  0  0  0  0  0  0
   -8.7619    1.7699   29.9948 H   0  0  0  0  0  0  0  0  0  0  0  0
   -4.9347   -0.4944   28.0883 H   0  0  0  0  0  0  0  0  0  0  0  0
   -6.1318    0.2983   27.3103 H   0  0  0  0  0  0  0  0  0  0  0  0
   -5.4013    0.9847   28.5995 H   0  0  0  0  0  0  0  0  0  0  0  0
   -8.6711   -3.1789   31.9236 H   0  0  0  0  0  0  0  0  0  0  0  0
   -6.9058   -4.7947   31.9543 H   0  0  0  0  0  0  0  0  0  0  0  0
   -3.2986   -3.9547   29.2508 H   0  0  0  0  0  0  0  0  0  0  0  0
   -5.3057   -5.9222   32.2932 H   0  0  0  0  0  0  0  0  0  0  0  0
   -4.6635   -2.5449   29.2877 H   0  0  0  0  0  0  0  0  0  0  0  0
  1 14  1  0  0  0  0
  1 15  1  0  0  0  0
  2 12  1  0  0  0  0
  3 13  1  0  0  0  0
  4 12  2  0  0  0  0
  4 13  1  0  0  0  0
  5 14  1  0  0  0  0
  6 16  1  0  0  0  0
  7  8  1  0  0  0  0
  7 15  2  0  0  0  0
  8 17  2  0  0  0  0
  9 12  1  0  0  0  0
  9 18  2  0  0  0  0
 10 13  2  0  0  0  0
 10 18  1  0  0  0  0
 11 17  1  0  0  0  0
 11 19  2  0  0  0  0
 14 16  2  0  0  0  0
 15 19  1  0  0  0  0
 16 19  1  0  0  0  0
 17 18  1  0  0  0  0
  2 20  1  0  0  0  0
  2 21  1  0  0  0  0
  3 22  1  0  0  0  0
  3 23  1  0  0  0  0
  5 24  1  0  0  0  0
  5 25  1  0  0  0  0
  5 26  1  0  0  0  0
  6 27  1  0  0  0  0
  6 28  1  0  0  0  0
  6 29  1  0  0  0  0
  7 30  1  0  0  0  0
  8 31  1  0  0  0  0
  9 32  1  0  0  0  0
 10 33  1  0  0  0  0
 11 34  1  0  0  0  0
M  END
> <pdb_id>
7AKL

> <uniprot_id>
Q13627

> <usmiles>
O1c2c(cc(c3cc(nc(N)c3)N)cc2)C(=C1C)C

$$$$
RKD_A_1351
          07192421303D 1   1.00000     0.00000     0
            
 39 41  0  0  0  0            999 V2000
   13.7567   13.3429   -0.6406 Cl  0  0  0  0  0  0  0  0  0  0  0  0
   11.5564   10.0565    4.7160 O   0  0  0  0  0  0  0  0  0  0  0  0
   10.5541    7.3581    4.0108 N   0  3  0  0  0  0  0  0  0  0  0  0
    3.1236   10.4805    4.1686 N   0  0  0  0  0  0  0  0  0  0  0  0
    3.1418   10.4375    2.8185 N   0  0  0  0  0  0  0  0  0  0  0  0
    4.4006   10.3885    4.5194 C   0  0  0  0  0  0  0  0  0  0  0  0
    4.3870   10.3227    2.3396 C   0  0  0  0  0  0  0  0  0  0  0  0
   12.8368   12.7417    1.8125 C   0  0  0  0  0  0  0  0  0  0  0  0
   12.5019   11.0871    0.1325 C   0  0  0  0  0  0  0  0  0  0  0  0
    7.3914    9.7619    2.2761 C   0  0  0  0  0  0  0  0  0  0  0  0
    7.4521   10.4500    4.5626 C   0  0  0  0  0  0  0  0  0  0  0  0
   12.2196   11.9352    2.7356 C   0  0  0  0  0  0  0  0  0  0  0  0
   11.8795   10.2717    1.0568 C   0  0  0  0  0  0  0  0  0  0  0  0
    8.7713    9.6448    2.2737 C   0  0  0  0  0  0  0  0  0  0  0  0
    8.8280   10.3320    4.5573 C   0  0  0  0  0  0  0  0  0  0  0  0
   11.3029    8.2875    3.1235 C   0  0  0  0  0  0  0  0  0  0  0  0
   12.9729   12.3139    0.5235 C   0  0  0  0  0  0  0  0  0  0  0  0
    5.2315   10.2896    3.4165 C   0  0  0  0  0  0  0  0  0  0  0  0
    6.7074   10.1683    3.4209 C   0  0  0  0  0  0  0  0  0  0  0  0
   11.7302   10.6871    2.3749 C   0  0  0  0  0  0  0  0  0  0  0  0
    9.5101    9.9276    3.4135 C   0  0  0  0  0  0  0  0  0  0  0  0
   11.0436    9.7954    3.4113 C   0  0  2  0  0  0  0  0  0  0  0  0
   11.3763   10.7830    4.9351 H   0  0  0  0  0  0  0  0  0  0  0  0
   10.4416    7.7310    4.8466 H   0  0  0  0  0  0  0  0  0  0  0  0
   11.0154    6.5758    4.1045 H   0  0  0  0  0  0  0  0  0  0  0  0
    9.7279    7.1689    3.6537 H   0  0  0  0  0  0  0  0  0  0  0  0
    2.3892   10.4844    2.3425 H   0  0  0  0  0  0  0  0  0  0  0  0
    4.6859   10.3932    5.4189 H   0  0  0  0  0  0  0  0  0  0  0  0
    4.6145   10.2768    1.4240 H   0  0  0  0  0  0  0  0  0  0  0  0
   13.1662   13.5864    2.0648 H   0  0  0  0  0  0  0  0  0  0  0  0
   12.6026   10.8034   -0.7626 H   0  0  0  0  0  0  0  0  0  0  0  0
    6.9070    9.5652    1.4909 H   0  0  0  0  0  0  0  0  0  0  0  0
    7.0106   10.7255    5.3509 H   0  0  0  0  0  0  0  0  0  0  0  0
   12.1272   12.2316    3.6205 H   0  0  0  0  0  0  0  0  0  0  0  0
   11.5571    9.4348    0.7933 H   0  0  0  0  0  0  0  0  0  0  0  0
    9.2119    9.3702    1.4914 H   0  0  0  0  0  0  0  0  0  0  0  0
    9.3113   10.5276    5.3405 H   0  0  0  0  0  0  0  0  0  0  0  0
   12.2576    8.1031    3.2296 H   0  0  0  0  0  0  0  0  0  0  0  0
   11.0490    8.0906    2.2054 H   0  0  0  0  0  0  0  0  0  0  0  0
  1 17  1  0  0  0  0
  2 22  1  0  0  0  0
  2 23  1  0  0  0  0
  3 16  1  0  0  0  0
  3 24  1  0  0  0  0
  3 25  1  0  0  0  0
  3 26  1  0  0  0  0
  4  5  1  0  0  0  0
  4  6  2  0  0  0  0
  5  7  1  0  0  0  0
  5 27  1  0  0  0  0
  6 18  1  0  0  0  0
  6 28  1  0  0  0  0
  7 18  2  0  0  0  0
  7 29  1  0  0  0  0
  8 12  2  0  0  0  0
  8 17  1  0  0  0  0
  8 30  1  0  0  0  0
  9 13  1  0  0  0  0
  9 17  2  0  0  0  0
  9 31  1  0  0  0  0
 10 14  1  0  0  0  0
 10 19  2  0  0  0  0
 10 32  1  0  0  0  0
 11 15  2  0  0  0  0
 11 19  1  0  0  0  0
 11 33  1  0  0  0  0
 12 20  1  0  0  0  0
 12 34  1  0  0  0  0
 13 20  2  0  0  0  0
 13 35  1  0  0  0  0
 14 21  2  0  0  0  0
 14 36  1  0  0  0  0
 15 21  1  0  0  0  0
 15 37  1  0  0  0  0
 16 22  1  0  0  0  0
 16 38  1  0  0  0  0
 16 39  1  0  0  0  0
 18 19  1  0  0  0  0
 20 22  1  0  0  0  0
 21 22  1  0  0  0  0
M  CHG  1   3   1
M  END
> <pdb_id>
4AXA

> <uniprot_id>
P00517

> <usmiles>
Clc1ccc(cc1)[C@@](O)(c2ccc(cc2)C=3C=NNC3)C[NH3+]

$$$$
RKH_A_501
          07202416203D 1   1.00000     0.00000     0
            
 31 33  0  0  0  0            999 V2000
   -8.4619   -0.6000   30.4692 O   0  0  0  0  0  0  0  0  0  0  0  0
   -3.4276   -7.4628   32.8207 N   0  0  0  0  0  0  0  0  0  0  0  0
   -1.3799   -5.4352   29.2201 N   0  0  0  0  0  0  0  0  0  0  0  0
   -2.4156   -6.4057   31.0313 N   0  0  0  0  0  0  0  0  0  0  0  0
   -8.5551    1.5672   29.3334 C   0  0  0  0  0  0  0  0  0  0  0  0
   -7.8563   -2.8193   31.3506 C   0  0  0  0  0  0  0  0  0  0  0  0
   -6.8527   -3.7677   31.3653 C   0  0  0  0  0  0  0  0  0  0  0  0
   -6.6313   -0.1592   29.2878 C   0  0  0  0  0  0  0  0  0  0  0  0
   -4.5522   -5.6012   31.7707 C   0  0  0  0  0  0  0  0  0  0  0  0
   -3.4547   -4.5285   29.9503 C   0  0  0  0  0  0  0  0  0  0  0  0
   -5.4550   -2.4509   29.9248 C   0  0  0  0  0  0  0  0  0  0  0  0
   -7.8410    0.3017   29.6360 C   0  0  0  0  0  0  0  0  0  0  0  0
   -3.4888   -6.5126   31.8502 C   0  0  0  0  0  0  0  0  0  0  0  0
   -2.4157   -5.4705   30.0666 C   0  0  0  0  0  0  0  0  0  0  0  0
   -7.6318   -1.7012   30.5839 C   0  0  0  0  0  0  0  0  0  0  0  0
   -6.4557   -1.4716   29.9086 C   0  0  0  0  0  0  0  0  0  0  0  0
   -5.6460   -3.6095   30.6554 C   0  0  0  0  0  0  0  0  0  0  0  0
   -4.5742   -4.6341   30.7539 C   0  0  0  0  0  0  0  0  0  0  0  0
   -4.1938   -7.5829   33.4519 H   0  0  0  0  0  0  0  0  0  0  0  0
   -2.6163   -8.0417   32.9032 H   0  0  0  0  0  0  0  0  0  0  0  0
   -1.3523   -4.7503   28.4920 H   0  0  0  0  0  0  0  0  0  0  0  0
   -0.6334   -6.0938   29.3156 H   0  0  0  0  0  0  0  0  0  0  0  0
   -7.9965    2.1270   28.7215 H   0  0  0  0  0  0  0  0  0  0  0  0
   -9.4280    1.3600   28.8916 H   0  0  0  0  0  0  0  0  0  0  0  0
   -8.7221    2.0672   30.1832 H   0  0  0  0  0  0  0  0  0  0  0  0
   -8.7019   -2.9399   31.8706 H   0  0  0  0  0  0  0  0  0  0  0  0
   -6.9879   -4.6007   31.9018 H   0  0  0  0  0  0  0  0  0  0  0  0
   -5.9670    0.3109   28.7067 H   0  0  0  0  0  0  0  0  0  0  0  0
   -5.2952   -5.6407   32.4389 H   0  0  0  0  0  0  0  0  0  0  0  0
   -3.3832   -3.7836   29.2870 H   0  0  0  0  0  0  0  0  0  0  0  0
   -4.6079   -2.3135   29.4115 H   0  0  0  0  0  0  0  0  0  0  0  0
  1 12  1  0  0  0  0
  1 15  1  0  0  0  0
  2 13  1  0  0  0  0
  3 14  1  0  0  0  0
  4 13  2  0  0  0  0
  4 14  1  0  0  0  0
  5 12  1  0  0  0  0
  6  7  1  0  0  0  0
  6 15  2  0  0  0  0
  7 17  2  0  0  0  0
  8 12  2  0  0  0  0
  8 16  1  0  0  0  0
  9 13  1  0  0  0  0
  9 18  2  0  0  0  0
 10 14  2  0  0  0  0
 10 18  1  0  0  0  0
 11 16  2  0  0  0  0
 11 17  1  0  0  0  0
 15 16  1  0  0  0  0
 17 18  1  0  0  0  0
  2 19  1  0  0  0  0
  2 20  1  0  0  0  0
  3 21  1  0  0  0  0
  3 22  1  0  0  0  0
  5 23  1  0  0  0  0
  5 24  1  0  0  0  0
  5 25  1  0  0  0  0
  6 26  1  0  0  0  0
  7 27  1  0  0  0  0
  8 28  1  0  0  0  0
  9 29  1  0  0  0  0
 10 30  1  0  0  0  0
 11 31  1  0  0  0  0
M  END
> <pdb_id>
7AJS

> <uniprot_id>
Q13627

> <usmiles>
O1c2c(cc(c3cc(nc(N)c3)N)cc2)C=C1C

$$$$
RKK_B_501
          07202416203D 1   1.00000     0.00000     0
            
 51 53  0  0  0  0            999 V2000
   -1.4969   -5.6536   29.0896 N   0  0  0  0  0  0  0  0  0  0  0  0
   -3.3596   -7.7471   32.7465 N   0  0  0  0  0  0  0  0  0  0  0  0
   -2.4108   -6.6891   30.9124 N   0  0  0  0  0  0  0  0  0  0  0  0
   -8.4590   -0.9171   30.7351 N   0  0  0  0  0  0  0  0  0  0  0  0
   -5.4619   -2.7120   30.2155 N   0  0  0  0  0  0  0  0  0  0  0  0
   -6.5165   -0.5789   29.6801 N   0  0  0  0  0  0  0  0  0  0  0  0
   -3.4998   -0.4676   26.2780 C   0  0  0  0  0  0  0  0  0  0  0  0
   -9.1191    3.6146   26.8292 C   0  0  0  0  0  0  0  0  0  0  0  0
   -5.4425    0.0469   28.9028 C   0  0  0  0  0  0  0  0  0  0  0  0
   -4.8099   -1.0481   26.7373 C   0  0  0  0  0  0  0  0  0  0  0  0
   -9.4692    2.7512   28.0048 C   0  0  0  0  0  0  0  0  0  0  0  0
   -5.6717   -0.0274   27.4085 C   0  0  0  0  0  0  0  0  0  0  0  0
   -8.5083    1.5769   28.1869 C   0  0  0  0  0  0  0  0  0  0  0  0
   -8.2579    1.2790   29.6273 C   0  0  0  0  0  0  0  0  0  0  0  0
   -7.8766   -3.2175   31.5788 C   0  0  0  0  0  0  0  0  0  0  0  0
   -6.8668   -4.1429   31.5677 C   0  0  0  0  0  0  0  0  0  0  0  0
   -3.5056   -4.7631   29.9564 C   0  0  0  0  0  0  0  0  0  0  0  0
   -4.4669   -5.8464   31.8386 C   0  0  0  0  0  0  0  0  0  0  0  0
   -2.4615   -5.7060   29.9936 C   0  0  0  0  0  0  0  0  0  0  0  0
   -3.4103   -6.7731   31.8157 C   0  0  0  0  0  0  0  0  0  0  0  0
   -7.7793   -0.0877   29.9756 C   0  0  0  0  0  0  0  0  0  0  0  0
   -6.4599   -1.8465   30.2476 C   0  0  0  0  0  0  0  0  0  0  0  0
   -7.6645   -2.0420   30.8841 C   0  0  0  0  0  0  0  0  0  0  0  0
   -5.6494   -3.8674   30.8972 C   0  0  0  0  0  0  0  0  0  0  0  0
   -4.5337   -4.8459   30.8815 C   0  0  0  0  0  0  0  0  0  0  0  0
   -1.5032   -4.9367   28.3925 H   0  0  0  0  0  0  0  0  0  0  0  0
   -0.7614   -6.3311   29.1034 H   0  0  0  0  0  0  0  0  0  0  0  0
   -4.0892   -7.8282   33.4256 H   0  0  0  0  0  0  0  0  0  0  0  0
   -2.5925   -8.3885   32.7577 H   0  0  0  0  0  0  0  0  0  0  0  0
   -2.9558   -1.1810   25.8362 H   0  0  0  0  0  0  0  0  0  0  0  0
   -3.6727    0.2712   25.6266 H   0  0  0  0  0  0  0  0  0  0  0  0
   -3.0003   -0.1074   27.0658 H   0  0  0  0  0  0  0  0  0  0  0  0
   -9.7776    4.3637   26.7579 H   0  0  0  0  0  0  0  0  0  0  0  0
   -8.2001    3.9891   26.9526 H   0  0  0  0  0  0  0  0  0  0  0  0
   -9.1461    3.0664   25.9932 H   0  0  0  0  0  0  0  0  0  0  0  0
   -4.5828   -0.4170   29.1166 H   0  0  0  0  0  0  0  0  0  0  0  0
   -5.3769    1.0090   29.1675 H   0  0  0  0  0  0  0  0  0  0  0  0
   -4.6256   -1.7894   27.3827 H   0  0  0  0  0  0  0  0  0  0  0  0
   -5.2980   -1.4108   25.9436 H   0  0  0  0  0  0  0  0  0  0  0  0
  -10.3924    2.3905   27.8722 H   0  0  0  0  0  0  0  0  0  0  0  0
   -9.4465    3.3133   28.8316 H   0  0  0  0  0  0  0  0  0  0  0  0
   -5.4740    0.8685   27.0105 H   0  0  0  0  0  0  0  0  0  0  0  0
   -6.6300   -0.2611   27.2439 H   0  0  0  0  0  0  0  0  0  0  0  0
   -7.6384    1.8002   27.7472 H   0  0  0  0  0  0  0  0  0  0  0  0
   -8.9026    0.7666   27.7533 H   0  0  0  0  0  0  0  0  0  0  0  0
   -9.1164    1.4294   30.1176 H   0  0  0  0  0  0  0  0  0  0  0  0
   -7.5704    1.9285   29.9520 H   0  0  0  0  0  0  0  0  0  0  0  0
   -8.7317   -3.3856   32.0693 H   0  0  0  0  0  0  0  0  0  0  0  0
   -6.9895   -5.0181   32.0357 H   0  0  0  0  0  0  0  0  0  0  0  0
   -3.5055   -4.0385   29.2672 H   0  0  0  0  0  0  0  0  0  0  0  0
   -5.1711   -5.9090   32.5459 H   0  0  0  0  0  0  0  0  0  0  0  0
  1 19  1  0  0  0  0
  2 20  1  0  0  0  0
  3 19  2  0  0  0  0
  3 20  1  0  0  0  0
  4 21  2  0  0  0  0
  4 23  1  0  0  0  0
  5 22  1  0  0  0  0
  5 24  2  0  0  0  0
  6  9  1  0  0  0  0
  6 21  1  0  0  0  0
  6 22  1  0  0  0  0
  7 10  1  0  0  0  0
  8 11  1  0  0  0  0
  9 12  1  0  0  0  0
 10 12  1  0  0  0  0
 11 13  1  0  0  0  0
 13 14  1  0  0  0  0
 14 21  1  0  0  0  0
 15 16  2  0  0  0  0
 15 23  1  0  0  0  0
 16 24  1  0  0  0  0
 17 19  1  0  0  0  0
 17 25  2  0  0  0  0
 18 20  2  0  0  0  0
 18 25  1  0  0  0  0
 22 23  2  0  0  0  0
 24 25  1  0  0  0  0
  1 26  1  0  0  0  0
  1 27  1  0  0  0  0
  2 28  1  0  0  0  0
  2 29  1  0  0  0  0
  7 30  1  0  0  0  0
  7 31  1  0  0  0  0
  7 32  1  0  0  0  0
  8 33  1  0  0  0  0
  8 34  1  0  0  0  0
  8 35  1  0  0  0  0
  9 36  1  0  0  0  0
  9 37  1  0  0  0  0
 10 38  1  0  0  0  0
 10 39  1  0  0  0  0
 11 40  1  0  0  0  0
 11 41  1  0  0  0  0
 12 42  1  0  0  0  0
 12 43  1  0  0  0  0
 13 44  1  0  0  0  0
 13 45  1  0  0  0  0
 14 46  1  0  0  0  0
 14 47  1  0  0  0  0
 15 48  1  0  0  0  0
 16 49  1  0  0  0  0
 17 50  1  0  0  0  0
 18 51  1  0  0  0  0
M  END
> <pdb_id>
7AJV

> <uniprot_id>
Q13627

> <usmiles>
n1c(N)cc(c2nc3N(C(=Nc3cc2)CCCC)CCCC)cc1N

$$$$
RKX_A_301
          07192419343D 1   1.00000     0.00000     0
            
 21 21  0  0  0  0            999 V2000
   45.4907   22.1291   49.1605 O   0  0  0  0  0  0  0  0  0  0  0  0
   47.2249   18.3346   54.1159 N   0  0  0  0  0  0  0  0  0  0  0  0
   46.2549   16.9155   52.6683 N   0  0  0  0  0  0  0  0  0  0  0  0
   45.4845   23.5199   49.3445 C   0  0  0  0  0  0  0  0  0  0  0  0
   46.3447   21.5909   51.4598 C   0  0  0  0  0  0  0  0  0  0  0  0
   45.4949   19.9776   49.9208 C   0  0  0  0  0  0  0  0  0  0  0  0
   46.5899   20.5924   52.3805 C   0  0  0  0  0  0  0  0  0  0  0  0
   45.7551   18.9898   50.8359 C   0  0  0  0  0  0  0  0  0  0  0  0
   45.8066   21.2884   50.2111 C   0  0  0  0  0  0  0  0  0  0  0  0
   46.6076   18.1724   53.0250 C   0  0  0  0  0  0  0  0  0  0  0  0
   46.3359   19.2673   52.0645 C   0  0  0  0  0  0  0  0  0  0  0  0
   47.4978   19.2525   54.4043 H   0  0  0  0  0  0  0  0  0  0  0  0
   47.4405   17.5452   54.6906 H   0  0  0  0  0  0  0  0  0  0  0  0
   45.7657   16.7579   51.8105 H   0  0  0  0  0  0  0  0  0  0  0  0
   45.2359   23.9686   48.4861 H   0  0  0  0  0  0  0  0  0  0  0  0
   44.8187   23.7598   50.0510 H   0  0  0  0  0  0  0  0  0  0  0  0
   46.3946   23.8228   49.6275 H   0  0  0  0  0  0  0  0  0  0  0  0
   46.5553   22.5406   51.6914 H   0  0  0  0  0  0  0  0  0  0  0  0
   45.0783   19.7465   49.0416 H   0  0  0  0  0  0  0  0  0  0  0  0
   46.9535   20.8269   53.2820 H   0  0  0  0  0  0  0  0  0  0  0  0
   45.5198   18.0442   50.6114 H   0  0  0  0  0  0  0  0  0  0  0  0
  1  4  1  0  0  0  0
  1  9  1  0  0  0  0
  2 10  1  0  0  0  0
  3 10  2  0  0  0  0
  5  7  1  0  0  0  0
  5  9  2  0  0  0  0
  6  8  2  0  0  0  0
  6  9  1  0  0  0  0
  7 11  2  0  0  0  0
  8 11  1  0  0  0  0
 10 11  1  0  0  0  0
  2 12  1  0  0  0  0
  2 13  1  0  0  0  0
  3 14  1  0  0  0  0
  4 15  1  0  0  0  0
  4 16  1  0  0  0  0
  4 17  1  0  0  0  0
  5 18  1  0  0  0  0
  6 19  1  0  0  0  0
  7 20  1  0  0  0  0
  8 21  1  0  0  0  0
M  END
> <pdb_id>
7WA2

> <uniprot_id>
P00760

> <usmiles>
O(c1ccc(cc1)C(=N)N)C

$$$$
RKZ_A_501
          07202416203D 1   1.00000     0.00000     0
            
 50 53  0  0  0  0            999 V2000
   -3.7610    0.1190   29.5730 O   0  0  0  0  0  0  0  0  0  0  0  0
   -1.4340   -5.0610   29.3810 N   0  0  0  0  0  0  0  0  0  0  0  0
   -3.5910   -7.3890   32.5820 N   0  0  0  0  0  0  0  0  0  0  0  0
   -2.5220   -6.2110   30.9720 N   0  0  0  0  0  0  0  0  0  0  0  0
   -8.5960   -0.5370   30.5490 N   0  0  0  0  0  0  0  0  0  0  0  0
   -5.6970   -2.4550   29.9510 N   0  0  0  0  0  0  0  0  0  0  0  0
   -6.7580   -0.4110   29.2760 N   0  0  0  0  0  0  0  0  0  0  0  0
   -4.9410    2.2000   29.1390 C   0  0  0  0  0  0  0  0  0  0  0  0
   -8.4380    1.4340   29.0620 C   0  0  0  0  0  0  0  0  0  0  0  0
   -5.8690    0.0620   28.2180 C   0  0  0  0  0  0  0  0  0  0  0  0
   -0.4660   -1.9200   28.0800 C   0  0  0  0  0  0  0  0  0  0  0  0
   -0.5950   -1.6960   29.4290 C   0  0  0  0  0  0  0  0  0  0  0  0
   -1.4410   -1.4610   27.2270 C   0  0  0  0  0  0  0  0  0  0  0  0
   -1.6960   -1.0180   29.9330 C   0  0  0  0  0  0  0  0  0  0  0  0
   -2.5490   -0.7810   27.7020 C   0  0  0  0  0  0  0  0  0  0  0  0
   -7.9160   -2.6970   31.6450 C   0  0  0  0  0  0  0  0  0  0  0  0
   -6.9320   -3.6290   31.6460 C   0  0  0  0  0  0  0  0  0  0  0  0
   -3.5740   -4.2720   30.0200 C   0  0  0  0  0  0  0  0  0  0  0  0
   -4.7070   -5.5220   31.6850 C   0  0  0  0  0  0  0  0  0  0  0  0
   -2.5060   -5.1820   30.1230 C   0  0  0  0  0  0  0  0  0  0  0  0
   -3.6050   -6.3760   31.7420 C   0  0  0  0  0  0  0  0  0  0  0  0
   -4.6240    0.8170   28.6260 C   0  0  2  0  0  0  0  0  0  0  0  0
   -2.6710   -0.5500   29.0640 C   0  0  0  0  0  0  0  0  0  0  0  0
   -7.9570    0.1630   29.6390 C   0  0  0  0  0  0  0  0  0  0  0  0
   -6.6690   -1.5670   29.9720 C   0  0  0  0  0  0  0  0  0  0  0  0
   -7.7840   -1.6330   30.7780 C   0  0  0  0  0  0  0  0  0  0  0  0
   -5.8290   -3.5050   30.7830 C   0  0  0  0  0  0  0  0  0  0  0  0
   -4.7080   -4.4690   30.8000 C   0  0  0  0  0  0  0  0  0  0  0  0
   -1.3622   -4.3097   28.7250 H   0  0  0  0  0  0  0  0  0  0  0  0
   -0.6871   -5.7199   29.4703 H   0  0  0  0  0  0  0  0  0  0  0  0
   -4.3762   -7.5546   33.1787 H   0  0  0  0  0  0  0  0  0  0  0  0
   -2.7952   -7.9931   32.6235 H   0  0  0  0  0  0  0  0  0  0  0  0
   -5.5324    2.6709   28.4844 H   0  0  0  0  0  0  0  0  0  0  0  0
   -5.4087    2.1296   30.0201 H   0  0  0  0  0  0  0  0  0  0  0  0
   -4.0920    2.7161   29.2525 H   0  0  0  0  0  0  0  0  0  0  0  0
   -7.7746    1.7684   28.3926 H   0  0  0  0  0  0  0  0  0  0  0  0
   -9.3185    1.2838   28.6123 H   0  0  0  0  0  0  0  0  0  0  0  0
   -8.5467    2.1106   29.7902 H   0  0  0  0  0  0  0  0  0  0  0  0
   -6.4038    0.6663   27.6275 H   0  0  0  0  0  0  0  0  0  0  0  0
   -5.5744   -0.7386   27.6963 H   0  0  0  0  0  0  0  0  0  0  0  0
    0.3282   -2.4114   27.7226 H   0  0  0  0  0  0  0  0  0  0  0  0
    0.1122   -2.0251   30.0548 H   0  0  0  0  0  0  0  0  0  0  0  0
   -1.3481   -1.6214   26.2443 H   0  0  0  0  0  0  0  0  0  0  0  0
   -1.7861   -0.8675   30.9175 H   0  0  0  0  0  0  0  0  0  0  0  0
   -3.2541   -0.4597   27.0698 H   0  0  0  0  0  0  0  0  0  0  0  0
   -8.7079   -2.7779   32.2502 H   0  0  0  0  0  0  0  0  0  0  0  0
   -6.9910   -4.4115   32.2658 H   0  0  0  0  0  0  0  0  0  0  0  0
   -3.5183   -3.4940   29.3942 H   0  0  0  0  0  0  0  0  0  0  0  0
   -5.4924   -5.6748   32.2848 H   0  0  0  0  0  0  0  0  0  0  0  0
   -4.0849    0.9422   27.7931 H   0  0  0  0  0  0  0  0  0  0  0  0
  1 22  1  0  0  0  0
  1 23  1  0  0  0  0
  2 20  1  0  0  0  0
  3 21  1  0  0  0  0
  4 20  2  0  0  0  0
  4 21  1  0  0  0  0
  5 24  2  0  0  0  0
  5 26  1  0  0  0  0
  6 25  1  0  0  0  0
  6 27  2  0  0  0  0
  7 10  1  0  0  0  0
  7 24  1  0  0  0  0
  7 25  1  0  0  0  0
  8 22  1  0  0  0  0
  9 24  1  0  0  0  0
 10 22  1  0  0  0  0
 11 12  2  0  0  0  0
 11 13  1  0  0  0  0
 12 14  1  0  0  0  0
 13 15  2  0  0  0  0
 14 23  2  0  0  0  0
 15 23  1  0  0  0  0
 16 17  2  0  0  0  0
 16 26  1  0  0  0  0
 17 27  1  0  0  0  0
 18 20  1  0  0  0  0
 18 28  2  0  0  0  0
 19 21  2  0  0  0  0
 19 28  1  0  0  0  0
 25 26  2  0  0  0  0
 27 28  1  0  0  0  0
  2 29  1  0  0  0  0
  2 30  1  0  0  0  0
  3 31  1  0  0  0  0
  3 32  1  0  0  0  0
  8 33  1  0  0  0  0
  8 34  1  0  0  0  0
  8 35  1  0  0  0  0
  9 36  1  0  0  0  0
  9 37  1  0  0  0  0
  9 38  1  0  0  0  0
 10 39  1  0  0  0  0
 10 40  1  0  0  0  0
 11 41  1  0  0  0  0
 12 42  1  0  0  0  0
 13 43  1  0  0  0  0
 14 44  1  0  0  0  0
 15 45  1  0  0  0  0
 16 46  1  0  0  0  0
 17 47  1  0  0  0  0
 18 48  1  0  0  0  0
 19 49  1  0  0  0  0
 22 50  1  0  0  0  0
M  END
> <pdb_id>
7AJY

> <uniprot_id>
Q13627

> <usmiles>
O(c1ccccc1)[C@@H](CN2c3nc(c4cc(nc(N)c4)N)ccc3N=C2C)C

$$$$
RLG_A_201
          07212401333D 1   1.00000     0.00000     0
            
 26 27  0  0  0  0            999 V2000
  -16.9320  -23.3221  -22.9860 O   0  0  0  0  0  0  0  0  0  0  0  0
  -16.4423  -21.1345  -22.4760 N   0  0  0  0  0  0  0  0  0  0  0  0
  -17.7240  -20.5863  -22.9099 C   0  0  0  0  0  0  0  0  0  0  0  0
  -15.2860  -20.3854  -21.9485 C   0  0  0  0  0  0  0  0  0  0  0  0
  -14.8846  -21.3395  -17.0475 C   0  0  0  0  0  0  0  0  0  0  0  0
  -14.5031  -20.2073  -17.7513 C   0  0  0  0  0  0  0  0  0  0  0  0
  -15.0834  -22.5343  -17.7472 C   0  0  0  0  0  0  0  0  0  0  0  0
  -14.3288  -20.2394  -19.1329 C   0  0  0  0  0  0  0  0  0  0  0  0
  -14.9129  -22.5635  -19.1305 C   0  0  0  0  0  0  0  0  0  0  0  0
  -14.7678  -22.7249  -22.0405 C   0  0  0  0  0  0  0  0  0  0  0  0
  -16.1735  -22.5062  -22.5601 C   0  0  0  0  0  0  0  0  0  0  0  0
  -14.3435  -21.4260  -21.3219 C   0  0  2  0  0  0  0  0  0  0  0  0
  -14.5303  -21.4447  -19.8450 C   0  0  0  0  0  0  0  0  0  0  0  0
  -18.3168  -21.3296  -23.2196 H   0  0  0  0  0  0  0  0  0  0  0  0
  -18.1586  -20.1097  -22.1456 H   0  0  0  0  0  0  0  0  0  0  0  0
  -17.5745  -19.9439  -23.6616 H   0  0  0  0  0  0  0  0  0  0  0  0
  -15.5858  -19.7291  -21.2561 H   0  0  0  0  0  0  0  0  0  0  0  0
  -14.8216  -19.8998  -22.6891 H   0  0  0  0  0  0  0  0  0  0  0  0
  -15.0155  -21.3024  -16.0568 H   0  0  0  0  0  0  0  0  0  0  0  0
  -14.3501  -19.3512  -17.2576 H   0  0  0  0  0  0  0  0  0  0  0  0
  -15.3470  -23.3650  -17.2567 H   0  0  0  0  0  0  0  0  0  0  0  0
  -14.0609  -19.4093  -19.6219 H   0  0  0  0  0  0  0  0  0  0  0  0
  -15.0723  -23.4204  -19.6206 H   0  0  0  0  0  0  0  0  0  0  0  0
  -14.1466  -22.9152  -22.8008 H   0  0  0  0  0  0  0  0  0  0  0  0
  -14.7544  -23.4921  -21.3992 H   0  0  0  0  0  0  0  0  0  0  0  0
  -13.3938  -21.2059  -21.5444 H   0  0  0  0  0  0  0  0  0  0  0  0
  1 11  2  0  0  0  0
  2  3  1  0  0  0  0
  2  4  1  0  0  0  0
  2 11  1  0  0  0  0
  4 12  1  0  0  0  0
  5  6  2  0  0  0  0
  5  7  1  0  0  0  0
  6  8  1  0  0  0  0
  7  9  2  0  0  0  0
  8 13  2  0  0  0  0
  9 13  1  0  0  0  0
 10 11  1  0  0  0  0
 10 12  1  0  0  0  0
 12 13  1  0  0  0  0
  3 14  1  0  0  0  0
  3 15  1  0  0  0  0
  3 16  1  0  0  0  0
  4 17  1  0  0  0  0
  4 18  1  0  0  0  0
  5 19  1  0  0  0  0
  6 20  1  0  0  0  0
  7 21  1  0  0  0  0
  8 22  1  0  0  0  0
  9 23  1  0  0  0  0
 10 24  1  0  0  0  0
 10 25  1  0  0  0  0
 12 26  1  0  0  0  0
M  END
> <pdb_id>
6VUB

> <uniprot_id>
O60885

> <usmiles>
O=C1N(C[C@@H](c2ccccc2)C1)C

$$$$
RLJ_A_1
          07202400533D 1   1.00000     0.00000     0
            
 42 43  0  0  0  0            999 V2000
   23.7206    2.4958    4.2194 F   0  0  0  0  0  0  0  0  0  0  0  0
   23.5991    4.0656    5.6812 F   0  0  0  0  0  0  0  0  0  0  0  0
   23.0238    4.4338    3.6305 F   0  0  0  0  0  0  0  0  0  0  0  0
   27.3814    0.7836    4.4333 O   0  0  0  0  0  0  0  0  0  0  0  0
   30.8241    1.3287    3.6963 O   0  0  0  0  0  0  0  0  0  0  0  0
   30.1565    1.2668    6.4009 O   0  0  0  0  0  0  0  0  0  0  0  0
   29.1176    0.1569   12.9362 N   0  0  0  0  0  0  0  0  0  0  0  0
   24.0588    7.4675    3.8441 N   0  0  0  0  0  0  0  0  0  0  0  0
   28.6454    2.6152    3.9792 N   0  0  0  0  0  0  0  0  0  0  0  0
   29.5950   -0.7393    3.3063 C   0  0  0  0  0  0  0  0  0  0  0  0
   30.0890    0.0752    5.6051 C   0  0  0  0  0  0  0  0  0  0  0  0
   29.2913    0.3148   11.8229 C   0  0  0  0  0  0  0  0  0  0  0  0
   24.7919    6.5971    3.8643 C   0  0  0  0  0  0  0  0  0  0  0  0
   29.3081    1.9597    8.4968 C   0  0  0  0  0  0  0  0  0  0  0  0
   30.3731   -0.1914    8.2964 C   0  0  0  0  0  0  0  0  0  0  0  0
   28.0416    4.8430    3.7068 C   0  0  0  0  0  0  0  0  0  0  0  0
   29.0846    1.7227    9.8476 C   0  0  0  0  0  0  0  0  0  0  0  0
   30.1515   -0.4294    9.6491 C   0  0  0  0  0  0  0  0  0  0  0  0
   27.0670    5.8334    3.6748 C   0  0  0  0  0  0  0  0  0  0  0  0
   26.3339    3.2128    4.1535 C   0  0  0  0  0  0  0  0  0  0  0  0
   28.4668    1.3155    4.2033 C   0  0  0  0  0  0  0  0  0  0  0  0
   29.9539    1.0047    7.7197 C   0  0  0  0  0  0  0  0  0  0  0  0
   27.6751    3.5247    3.9476 C   0  0  0  0  0  0  0  0  0  0  0  0
   29.5078    0.5296   10.4243 C   0  0  0  0  0  0  0  0  0  0  0  0
   25.7298    5.5165    3.8857 C   0  0  0  0  0  0  0  0  0  0  0  0
   25.3493    4.1972    4.1286 C   0  0  0  0  0  0  0  0  0  0  0  0
   23.8927    3.8002    4.4123 C   0  0  0  0  0  0  0  0  0  0  0  0
   29.7636    0.5030    4.1834 C   0  0  1  0  0  0  0  0  0  0  0  0
   30.9166    2.1332    4.2831 H   0  0  0  0  0  0  0  0  0  0  0  0
   29.5808    2.9324    3.8225 H   0  0  0  0  0  0  0  0  0  0  0  0
   28.8496   -1.3015    3.6643 H   0  0  0  0  0  0  0  0  0  0  0  0
   29.3817   -0.4599    2.3701 H   0  0  0  0  0  0  0  0  0  0  0  0
   30.4436   -1.2684    3.3111 H   0  0  0  0  0  0  0  0  0  0  0  0
   29.3727   -0.5295    5.9535 H   0  0  0  0  0  0  0  0  0  0  0  0
   30.9676   -0.4017    5.6270 H   0  0  0  0  0  0  0  0  0  0  0  0
   29.0043    2.8180    8.0833 H   0  0  0  0  0  0  0  0  0  0  0  0
   30.8342   -0.8804    7.7373 H   0  0  0  0  0  0  0  0  0  0  0  0
   29.0020    5.0781    3.5571 H   0  0  0  0  0  0  0  0  0  0  0  0
   28.6193    2.4100   10.4054 H   0  0  0  0  0  0  0  0  0  0  0  0
   30.4543   -1.2878   10.0632 H   0  0  0  0  0  0  0  0  0  0  0  0
   27.3299    6.7820    3.4987 H   0  0  0  0  0  0  0  0  0  0  0  0
   26.0723    2.2625    4.3226 H   0  0  0  0  0  0  0  0  0  0  0  0
  1 27  1  0  0  0  0
  2 27  1  0  0  0  0
  3 27  1  0  0  0  0
  4 21  2  0  0  0  0
  5 28  1  0  0  0  0
  6 11  1  0  0  0  0
  6 22  1  0  0  0  0
  7 12  3  0  0  0  0
  8 13  3  0  0  0  0
  9 21  1  0  0  0  0
  9 23  1  0  0  0  0
 10 28  1  0  0  0  0
 11 28  1  0  0  0  0
 12 24  1  0  0  0  0
 13 25  1  0  0  0  0
 14 17  1  0  0  0  0
 14 22  2  0  0  0  0
 15 18  2  0  0  0  0
 15 22  1  0  0  0  0
 16 19  1  0  0  0  0
 16 23  2  0  0  0  0
 17 24  2  0  0  0  0
 18 24  1  0  0  0  0
 19 25  2  0  0  0  0
 20 23  1  0  0  0  0
 20 26  2  0  0  0  0
 21 28  1  0  0  0  0
 25 26  1  0  0  0  0
 26 27  1  0  0  0  0
  5 29  1  0  0  0  0
  9 30  1  0  0  0  0
 10 31  1  0  0  0  0
 10 32  1  0  0  0  0
 10 33  1  0  0  0  0
 11 34  1  0  0  0  0
 11 35  1  0  0  0  0
 14 36  1  0  0  0  0
 15 37  1  0  0  0  0
 16 38  1  0  0  0  0
 17 39  1  0  0  0  0
 18 40  1  0  0  0  0
 19 41  1  0  0  0  0
 20 42  1  0  0  0  0
M  END
> <pdb_id>
3RLJ

> <uniprot_id>
P10275

> <usmiles>
FC(F)(F)c1c(C#N)ccc(NC(=O)[C@@](O)(COc2ccc(C#N)cc2)C)c1

$$$$
RM1_B_1498
          07212403183D 1   1.00000     0.00000     0
            
 24 25  0  0  0  0            999 V2000
   18.7953  127.7569   18.3370 N   0  0  0  0  0  0  0  0  0  0  0  0
   19.9014  127.7118   17.3772 C   0  0  0  0  0  0  0  0  0  0  0  0
   15.9779  127.8883   22.4738 C   0  0  0  0  0  0  0  0  0  0  0  0
   16.4209  128.9757   21.8056 C   0  0  0  0  0  0  0  0  0  0  0  0
   16.4627  126.6685   22.1766 C   0  0  0  0  0  0  0  0  0  0  0  0
   19.0883  125.7903   19.7139 C   0  0  0  0  0  0  0  0  0  0  0  0
   17.4338  128.8713   20.9211 C   0  0  0  0  0  0  0  0  0  0  0  0
   18.0341  125.2992   20.7150 C   0  0  0  0  0  0  0  0  0  0  0  0
   19.0386  127.3285   19.7089 C   0  0  2  0  0  0  0  0  0  0  0  0
   17.4166  126.5711   21.2292 C   0  0  0  0  0  0  0  0  0  0  0  0
   17.9206  127.6456   20.6489 C   0  0  0  0  0  0  0  0  0  0  0  0
   18.0664  127.1771   17.9729 H   0  0  0  0  0  0  0  0  0  0  0  0
   19.5825  128.0336   16.4858 H   0  0  0  0  0  0  0  0  0  0  0  0
   20.6446  128.2993   17.6974 H   0  0  0  0  0  0  0  0  0  0  0  0
   20.2321  126.7718   17.2936 H   0  0  0  0  0  0  0  0  0  0  0  0
   15.2883  127.9900   23.1908 H   0  0  0  0  0  0  0  0  0  0  0  0
   15.9942  129.8654   21.9681 H   0  0  0  0  0  0  0  0  0  0  0  0
   16.1235  125.8541   22.6474 H   0  0  0  0  0  0  0  0  0  0  0  0
   18.8821  125.4389   18.8007 H   0  0  0  0  0  0  0  0  0  0  0  0
   19.9964  125.4788   19.9938 H   0  0  0  0  0  0  0  0  0  0  0  0
   17.8137  129.6836   20.4786 H   0  0  0  0  0  0  0  0  0  0  0  0
   18.4601  124.7832   21.4581 H   0  0  0  0  0  0  0  0  0  0  0  0
   17.3499  124.7278   20.2618 H   0  0  0  0  0  0  0  0  0  0  0  0
   19.8996  127.7082   20.0474 H   0  0  0  0  0  0  0  0  0  0  0  0
  1  2  1  0  0  0  0
  1  9  1  0  0  0  0
  3  4  2  0  0  0  0
  3  5  1  0  0  0  0
  4  7  1  0  0  0  0
  5 10  2  0  0  0  0
  6  8  1  0  0  0  0
  6  9  1  0  0  0  0
  7 11  2  0  0  0  0
  8 10  1  0  0  0  0
  9 11  1  0  0  0  0
 10 11  1  0  0  0  0
  1 12  1  0  0  0  0
  2 13  1  0  0  0  0
  2 14  1  0  0  0  0
  2 15  1  0  0  0  0
  3 16  1  0  0  0  0
  4 17  1  0  0  0  0
  5 18  1  0  0  0  0
  6 19  1  0  0  0  0
  6 20  1  0  0  0  0
  7 21  1  0  0  0  0
  8 22  1  0  0  0  0
  8 23  1  0  0  0  0
  9 24  1  0  0  0  0
M  END
> <pdb_id>
2C67

> <uniprot_id>
P27338

> <usmiles>
N([C@H]1c2c(cccc2)CC1)C

$$$$
RME_A_418
          07202401523D 1   1.00000     0.00000     0
            
 38 39  0  0  0  0            999 V2000
   -1.5594   -0.2764  -14.8218 O   0  0  0  0  0  0  0  0  0  0  0  0
   -0.9912    1.9423  -15.1758 N   0  0  0  0  0  0  0  0  0  0  0  0
   -1.4595    0.8449  -19.3682 N   0  0  0  0  0  0  0  0  0  0  0  0
    2.8220    2.8193  -17.6753 N   0  0  0  0  0  0  0  0  0  0  0  0
    0.2374    1.6671  -17.8965 N   0  0  0  0  0  0  0  0  0  0  0  0
    3.8417    3.7630  -17.1014 C   0  0  0  0  0  0  0  0  0  0  0  0
   -0.5168    3.7128  -13.5319 C   0  0  0  0  0  0  0  0  0  0  0  0
   -0.5938    2.2217  -13.8048 C   0  0  0  0  0  0  0  0  0  0  0  0
   -2.6466    0.2324  -19.5936 C   0  0  0  0  0  0  0  0  0  0  0  0
    2.3058    1.8564  -16.6230 C   0  0  0  0  0  0  0  0  0  0  0  0
    1.7086    3.5814  -18.3648 C   0  0  0  0  0  0  0  0  0  0  0  0
    1.3254    0.8904  -17.2874 C   0  0  0  0  0  0  0  0  0  0  0  0
    0.6799    2.6116  -18.9403 C   0  0  0  0  0  0  0  0  0  0  0  0
   -3.4680   -0.2406  -18.5927 C   0  0  0  0  0  0  0  0  0  0  0  0
   -3.0422   -0.0707  -17.2804 C   0  0  0  0  0  0  0  0  0  0  0  0
   -1.4424    0.6936  -15.5679 C   0  0  0  0  0  0  0  0  0  0  0  0
   -1.0107    1.0232  -18.0856 C   0  0  0  0  0  0  0  0  0  0  0  0
   -1.8139    0.5600  -17.0046 C   0  0  0  0  0  0  0  0  0  0  0  0
   -0.9369    2.6738  -15.8554 H   0  0  0  0  0  0  0  0  0  0  0  0
    4.1620    4.3833  -17.8174 H   0  0  0  0  0  0  0  0  0  0  0  0
    3.4263    4.2933  -16.3623 H   0  0  0  0  0  0  0  0  0  0  0  0
    4.6151    3.2403  -16.7427 H   0  0  0  0  0  0  0  0  0  0  0  0
   -0.2416    3.8640  -12.5825 H   0  0  0  0  0  0  0  0  0  0  0  0
    0.1550    4.1295  -14.1442 H   0  0  0  0  0  0  0  0  0  0  0  0
   -1.4133    4.1271  -13.6891 H   0  0  0  0  0  0  0  0  0  0  0  0
    0.3050    1.8157  -13.6394 H   0  0  0  0  0  0  0  0  0  0  0  0
   -1.2633    1.8134  -13.1843 H   0  0  0  0  0  0  0  0  0  0  0  0
   -2.9444    0.1166  -20.5412 H   0  0  0  0  0  0  0  0  0  0  0  0
    1.8394    2.3657  -15.8998 H   0  0  0  0  0  0  0  0  0  0  0  0
    3.0699    1.3445  -16.2306 H   0  0  0  0  0  0  0  0  0  0  0  0
    2.0948    4.1307  -19.1059 H   0  0  0  0  0  0  0  0  0  0  0  0
    1.2611    4.1825  -17.7027 H   0  0  0  0  0  0  0  0  0  0  0  0
    1.7986    0.3634  -17.9934 H   0  0  0  0  0  0  0  0  0  0  0  0
    0.9504    0.2669  -16.6013 H   0  0  0  0  0  0  0  0  0  0  0  0
   -0.1086    3.1264  -19.2768 H   0  0  0  0  0  0  0  0  0  0  0  0
    1.0918    2.1015  -19.6953 H   0  0  0  0  0  0  0  0  0  0  0  0
   -4.3369   -0.6887  -18.8026 H   0  0  0  0  0  0  0  0  0  0  0  0
   -3.6122   -0.3988  -16.5271 H   0  0  0  0  0  0  0  0  0  0  0  0
  1 16  2  0  0  0  0
  2  8  1  0  0  0  0
  2 16  1  0  0  0  0
  3  9  2  0  0  0  0
  3 17  1  0  0  0  0
  4  6  1  0  0  0  0
  4 10  1  0  0  0  0
  4 11  1  0  0  0  0
  5 12  1  0  0  0  0
  5 13  1  0  0  0  0
  5 17  1  0  0  0  0
  7  8  1  0  0  0  0
  9 14  1  0  0  0  0
 10 12  1  0  0  0  0
 11 13  1  0  0  0  0
 14 15  2  0  0  0  0
 15 18  1  0  0  0  0
 16 18  1  0  0  0  0
 17 18  2  0  0  0  0
  2 19  1  0  0  0  0
  6 20  1  0  0  0  0
  6 21  1  0  0  0  0
  6 22  1  0  0  0  0
  7 23  1  0  0  0  0
  7 24  1  0  0  0  0
  7 25  1  0  0  0  0
  8 26  1  0  0  0  0
  8 27  1  0  0  0  0
  9 28  1  0  0  0  0
 10 29  1  0  0  0  0
 10 30  1  0  0  0  0
 11 31  1  0  0  0  0
 11 32  1  0  0  0  0
 12 33  1  0  0  0  0
 12 34  1  0  0  0  0
 13 35  1  0  0  0  0
 13 36  1  0  0  0  0
 14 37  1  0  0  0  0
 15 38  1  0  0  0  0
M  END
> <pdb_id>
3RME

> <uniprot_id>
Q9BZP6

> <usmiles>
O=C(NCC)c1c(nccc1)N2CCN(CC2)C

$$$$
RNE_A_201
          07212402503D 1   1.00000     0.00000     0
            
 52 52  0  0  0  0            999 V2000
  -18.5229   -1.7648    8.5235 N   0  0  0  0  0  0  0  0  0  0  0  0
  -13.0796   -2.4004   15.1728 C   0  0  0  0  0  0  0  0  0  0  0  0
  -16.5707    0.2215   11.8187 C   0  0  0  0  0  0  0  0  0  0  0  0
  -11.0798   -5.1729   18.7218 C   0  0  0  0  0  0  0  0  0  0  0  0
  -13.3920   -8.0486   15.4266 C   0  0  0  0  0  0  0  0  0  0  0  0
  -14.9400   -7.6280   17.3070 C   0  0  0  0  0  0  0  0  0  0  0  0
  -15.5865   -2.2177   13.4178 C   0  0  0  0  0  0  0  0  0  0  0  0
  -15.2086   -3.4337   14.2624 C   0  0  0  0  0  0  0  0  0  0  0  0
  -16.8077   -2.2486   12.8117 C   0  0  0  0  0  0  0  0  0  0  0  0
  -13.9051   -4.8639   15.7120 C   0  0  0  0  0  0  0  0  0  0  0  0
  -18.1438   -1.5875   10.9126 C   0  0  0  0  0  0  0  0  0  0  0  0
  -12.8382   -5.1179   16.4878 C   0  0  0  0  0  0  0  0  0  0  0  0
  -18.7407   -0.8547    9.6981 C   0  0  0  0  0  0  0  0  0  0  0  0
  -12.6890   -8.6930   19.0675 C   0  0  0  0  0  0  0  0  0  0  0  0
  -11.7004   -7.5719   19.3500 C   0  0  0  0  0  0  0  0  0  0  0  0
  -12.8829   -8.9381   17.6118 C   0  0  0  0  0  0  0  0  0  0  0  0
  -14.0708   -3.5372   14.9855 C   0  0  0  0  0  0  0  0  0  0  0  0
  -17.2488   -1.1518   11.8173 C   0  0  0  0  0  0  0  0  0  0  0  0
  -11.8861   -6.4099   18.3662 C   0  0  0  0  0  0  0  0  0  0  0  0
  -12.6801   -6.4494   17.2902 C   0  0  0  0  0  0  0  0  0  0  0  0
  -13.4654   -7.7336   16.9153 C   0  0  0  0  0  0  0  0  0  0  0  0
  -18.9672   -1.4510    7.8194 H   0  0  0  0  0  0  0  0  0  0  0  0
  -17.6544   -1.8017    8.3340 H   0  0  0  0  0  0  0  0  0  0  0  0
  -13.2169   -1.7342   14.4805 H   0  0  0  0  0  0  0  0  0  0  0  0
  -12.1754   -2.7470   15.1137 H   0  0  0  0  0  0  0  0  0  0  0  0
  -13.2137   -1.9937   16.0432 H   0  0  0  0  0  0  0  0  0  0  0  0
  -16.1168    0.3591   10.9711 H   0  0  0  0  0  0  0  0  0  0  0  0
  -17.2385    0.9134   11.9437 H   0  0  0  0  0  0  0  0  0  0  0  0
  -15.9243    0.2620   12.5406 H   0  0  0  0  0  0  0  0  0  0  0  0
  -10.3151   -5.1039   18.1283 H   0  0  0  0  0  0  0  0  0  0  0  0
  -11.6360   -4.3851   18.6233 H   0  0  0  0  0  0  0  0  0  0  0  0
  -10.7721   -5.2399   19.6388 H   0  0  0  0  0  0  0  0  0  0  0  0
  -13.7787   -7.3156   14.9220 H   0  0  0  0  0  0  0  0  0  0  0  0
  -12.4650   -8.1661   15.1674 H   0  0  0  0  0  0  0  0  0  0  0  0
  -13.8857   -8.8635   15.2439 H   0  0  0  0  0  0  0  0  0  0  0  0
  -15.3980   -7.0397   16.6867 H   0  0  0  0  0  0  0  0  0  0  0  0
  -15.3457   -8.5081   17.2763 H   0  0  0  0  0  0  0  0  0  0  0  0
  -15.0109   -7.2696   18.2053 H   0  0  0  0  0  0  0  0  0  0  0  0
  -14.9849   -1.5237   13.2660 H   0  0  0  0  0  0  0  0  0  0  0  0
  -15.7531   -4.1860   14.2052 H   0  0  0  0  0  0  0  0  0  0  0  0
  -17.3506   -2.9943   12.9301 H   0  0  0  0  0  0  0  0  0  0  0  0
  -14.5774   -5.5031   15.6438 H   0  0  0  0  0  0  0  0  0  0  0  0
  -18.4125   -2.4721   11.0143 H   0  0  0  0  0  0  0  0  0  0  0  0
  -12.1833   -4.4634   16.5759 H   0  0  0  0  0  0  0  0  0  0  0  0
  -18.2816   -0.0120    9.5577 H   0  0  0  0  0  0  0  0  0  0  0  0
  -19.6889   -0.7019    9.8318 H   0  0  0  0  0  0  0  0  0  0  0  0
  -13.5444   -8.4601   19.4598 H   0  0  0  0  0  0  0  0  0  0  0  0
  -12.3609   -9.5083   19.4781 H   0  0  0  0  0  0  0  0  0  0  0  0
  -10.7973   -7.9167   19.2672 H   0  0  0  0  0  0  0  0  0  0  0  0
  -11.8405   -7.2474   20.2540 H   0  0  0  0  0  0  0  0  0  0  0  0
  -12.0243   -9.1481   17.2112 H   0  0  0  0  0  0  0  0  0  0  0  0
  -13.4840   -9.6901   17.4972 H   0  0  0  0  0  0  0  0  0  0  0  0
  1 13  1  0  0  0  0
  1 22  1  0  0  0  0
  1 23  1  0  0  0  0
  2 17  1  0  0  0  0
  2 24  1  0  0  0  0
  2 25  1  0  0  0  0
  2 26  1  0  0  0  0
  3 18  1  0  0  0  0
  3 27  1  0  0  0  0
  3 28  1  0  0  0  0
  3 29  1  0  0  0  0
  4 19  1  0  0  0  0
  4 30  1  0  0  0  0
  4 31  1  0  0  0  0
  4 32  1  0  0  0  0
  5 21  1  0  0  0  0
  5 33  1  0  0  0  0
  5 34  1  0  0  0  0
  5 35  1  0  0  0  0
  6 21  1  0  0  0  0
  6 36  1  0  0  0  0
  6 37  1  0  0  0  0
  6 38  1  0  0  0  0
  7  8  1  0  0  0  0
  7  9  2  0  0  0  0
  7 39  1  0  0  0  0
  8 17  2  0  0  0  0
  8 40  1  0  0  0  0
  9 18  1  0  0  0  0
  9 41  1  0  0  0  0
 10 12  2  0  0  0  0
 10 17  1  0  0  0  0
 10 42  1  0  0  0  0
 11 13  1  0  0  0  0
 11 18  2  0  0  0  0
 11 43  1  0  0  0  0
 12 20  1  0  0  0  0
 12 44  1  0  0  0  0
 13 45  1  0  0  0  0
 13 46  1  0  0  0  0
 14 15  1  0  0  0  0
 14 16  1  0  0  0  0
 14 47  1  0  0  0  0
 14 48  1  0  0  0  0
 15 19  1  0  0  0  0
 15 49  1  0  0  0  0
 15 50  1  0  0  0  0
 16 21  1  0  0  0  0
 16 51  1  0  0  0  0
 16 52  1  0  0  0  0
 19 20  2  0  0  0  0
 20 21  1  0  0  0  0
M  END
> <pdb_id>
5HA1

> <uniprot_id>
P09455

> <usmiles>
NC/C=C(/C=C/C=C(/C=C/C1=C(CCCC1(C)C)C)\C)\C

$$$$
RNK_A_201
          07212401333D 1   1.00000     0.00000     0
            
 29 30  0  0  0  0            999 V2000
  -14.7297  -24.6459  -21.6313 Cl  0  0  0  0  0  0  0  0  0  0  0  0
  -14.8518  -22.9783  -17.1708 S   0  0  0  0  0  0  0  0  0  0  0  0
  -16.8776  -23.2688  -23.0809 O   0  0  0  0  0  0  0  0  0  0  0  0
  -15.7158  -20.2913  -21.5620 N   0  0  0  0  0  0  0  0  0  0  0  0
  -13.3246  -22.5215  -20.0111 N   0  0  0  0  0  0  0  0  0  0  0  0
  -16.4277  -21.1785  -22.3114 N   0  0  0  0  0  0  0  0  0  0  0  0
  -17.5413  -20.5990  -23.0504 C   0  0  0  0  0  0  0  0  0  0  0  0
  -13.8222  -19.0988  -17.5135 C   0  0  0  0  0  0  0  0  0  0  0  0
  -15.7896  -21.9728  -16.1446 C   0  0  0  0  0  0  0  0  0  0  0  0
  -14.7380  -20.7454  -20.8598 C   0  0  0  0  0  0  0  0  0  0  0  0
  -12.8769  -21.8214  -18.8284 C   0  0  0  0  0  0  0  0  0  0  0  0
  -15.4418  -20.6715  -16.2686 C   0  0  0  0  0  0  0  0  0  0  0  0
  -15.0696  -22.9686  -21.6131 C   0  0  0  0  0  0  0  0  0  0  0  0
  -13.9705  -21.6222  -17.7910 C   0  0  0  0  0  0  0  0  0  0  0  0
  -16.1836  -22.5307  -22.3875 C   0  0  0  0  0  0  0  0  0  0  0  0
  -14.3428  -22.1236  -20.7958 C   0  0  0  0  0  0  0  0  0  0  0  0
  -14.3953  -20.4561  -17.2139 C   0  0  0  0  0  0  0  0  0  0  0  0
  -12.8437  -23.3610  -20.2641 H   0  0  0  0  0  0  0  0  0  0  0  0
  -18.0058  -21.3161  -23.5699 H   0  0  0  0  0  0  0  0  0  0  0  0
  -18.1853  -20.1813  -22.4095 H   0  0  0  0  0  0  0  0  0  0  0  0
  -17.1972  -19.9016  -23.6792 H   0  0  0  0  0  0  0  0  0  0  0  0
  -13.1037  -19.1852  -18.2037 H   0  0  0  0  0  0  0  0  0  0  0  0
  -14.5454  -18.5003  -17.8584 H   0  0  0  0  0  0  0  0  0  0  0  0
  -13.4363  -18.7080  -16.6778 H   0  0  0  0  0  0  0  0  0  0  0  0
  -16.5047  -22.3072  -15.5308 H   0  0  0  0  0  0  0  0  0  0  0  0
  -14.2140  -20.0885  -20.3177 H   0  0  0  0  0  0  0  0  0  0  0  0
  -12.5339  -20.9231  -19.1032 H   0  0  0  0  0  0  0  0  0  0  0  0
  -12.1362  -22.3475  -18.4106 H   0  0  0  0  0  0  0  0  0  0  0  0
  -15.8748  -19.9345  -15.7498 H   0  0  0  0  0  0  0  0  0  0  0  0
  1 13  1  0  0  0  0
  2  9  1  0  0  0  0
  2 14  1  0  0  0  0
  3 15  2  0  0  0  0
  4  6  1  0  0  0  0
  4 10  2  0  0  0  0
  5 11  1  0  0  0  0
  5 16  1  0  0  0  0
  6  7  1  0  0  0  0
  6 15  1  0  0  0  0
  8 17  1  0  0  0  0
  9 12  2  0  0  0  0
 10 16  1  0  0  0  0
 11 14  1  0  0  0  0
 12 17  1  0  0  0  0
 13 15  1  0  0  0  0
 13 16  2  0  0  0  0
 14 17  2  0  0  0  0
  5 18  1  0  0  0  0
  7 19  1  0  0  0  0
  7 20  1  0  0  0  0
  7 21  1  0  0  0  0
  8 22  1  0  0  0  0
  8 23  1  0  0  0  0
  8 24  1  0  0  0  0
  9 25  1  0  0  0  0
 10 26  1  0  0  0  0
 11 27  1  0  0  0  0
 11 28  1  0  0  0  0
 12 29  1  0  0  0  0
M  END
> <pdb_id>
5MKZ

> <uniprot_id>
O60885

> <usmiles>
ClC=1C(=O)N(N=CC1NCC=2SC=CC2C)C

$$$$
RO3_F_1336
          07212401293D 1   1.00000     0.00000     0
            
 30 31  0  0  0  0            999 V2000
   18.7229   -7.4534   29.9895 Br  0  0  0  0  0  0  0  0  0  0  0  0
   20.5116   -9.1475   31.8388 S   0  0  0  0  0  0  0  0  0  0  0  0
   24.4221  -11.9076   34.3963 S   0  0  0  0  0  0  0  0  0  0  0  0
   25.0056  -12.1608   35.6877 O   0  0  0  0  0  0  0  0  0  0  0  0
   25.1561  -10.8013   33.8281 O   0  0  0  0  0  0  0  0  0  0  0  0
   22.7030  -10.4860   32.5817 O   0  0  0  0  0  0  0  0  0  0  0  0
   22.9583  -11.4691   34.5848 N   0  0  0  0  0  0  0  0  0  0  0  0
   18.8785   -9.3536   33.5881 N   0  0  0  0  0  0  0  0  0  0  0  0
   20.9789  -10.4455   34.0160 N   0  0  0  0  0  0  0  0  0  0  0  0
   25.1010  -16.5785   30.8078 C   0  0  0  0  0  0  0  0  0  0  0  0
   18.2819   -8.6190   32.6536 C   0  0  0  0  0  0  0  0  0  0  0  0
   24.4274  -14.4951   33.9348 C   0  0  0  0  0  0  0  0  0  0  0  0
   24.9379  -13.0229   32.0993 C   0  0  0  0  0  0  0  0  0  0  0  0
   24.5890  -15.5974   33.0798 C   0  0  0  0  0  0  0  0  0  0  0  0
   25.0923  -14.1131   31.2363 C   0  0  0  0  0  0  0  0  0  0  0  0
   19.1267   -8.4433   31.6059 C   0  0  0  0  0  0  0  0  0  0  0  0
   20.1162   -9.7361   33.2594 C   0  0  0  0  0  0  0  0  0  0  0  0
   22.2365  -10.7846   33.6768 C   0  0  0  0  0  0  0  0  0  0  0  0
   24.6021  -13.1973   33.4454 C   0  0  0  0  0  0  0  0  0  0  0  0
   24.9248  -15.4030   31.7300 C   0  0  0  0  0  0  0  0  0  0  0  0
   22.5101  -11.7106   35.4455 H   0  0  0  0  0  0  0  0  0  0  0  0
   20.6538  -10.7476   34.9121 H   0  0  0  0  0  0  0  0  0  0  0  0
   25.3367  -16.2517   29.8926 H   0  0  0  0  0  0  0  0  0  0  0  0
   25.8346  -17.1648   31.1515 H   0  0  0  0  0  0  0  0  0  0  0  0
   24.2490  -17.1003   30.7663 H   0  0  0  0  0  0  0  0  0  0  0  0
   17.3534   -8.2525   32.7136 H   0  0  0  0  0  0  0  0  0  0  0  0
   24.1871  -14.6386   34.8948 H   0  0  0  0  0  0  0  0  0  0  0  0
   25.0707  -12.0972   31.7452 H   0  0  0  0  0  0  0  0  0  0  0  0
   24.4645  -16.5244   33.4335 H   0  0  0  0  0  0  0  0  0  0  0  0
   25.3208  -13.9667   30.2738 H   0  0  0  0  0  0  0  0  0  0  0  0
  1 16  1  0  0  0  0
  2 16  1  0  0  0  0
  2 17  1  0  0  0  0
  3  4  2  0  0  0  0
  3  5  2  0  0  0  0
  3  7  1  0  0  0  0
  3 19  1  0  0  0  0
  6 18  2  0  0  0  0
  7 18  1  0  0  0  0
  8 11  1  0  0  0  0
  8 17  2  0  0  0  0
  9 17  1  0  0  0  0
  9 18  1  0  0  0  0
 10 20  1  0  0  0  0
 11 16  2  0  0  0  0
 12 14  1  0  0  0  0
 12 19  2  0  0  0  0
 13 15  2  0  0  0  0
 13 19  1  0  0  0  0
 14 20  2  0  0  0  0
 15 20  1  0  0  0  0
  7 21  1  0  0  0  0
  9 22  1  0  0  0  0
 10 23  1  0  0  0  0
 10 24  1  0  0  0  0
 10 25  1  0  0  0  0
 11 26  1  0  0  0  0
 12 27  1  0  0  0  0
 13 28  1  0  0  0  0
 14 29  1  0  0  0  0
 15 30  1  0  0  0  0
M  END
> <pdb_id>
2WBB

> <uniprot_id>
P09467

> <usmiles>
BrC=1SC(=NC1)NC(=O)NS(=O)(=O)c2ccc(cc2)C

$$$$
RO8_A_1000
          07212401293D 1   1.00000     0.00000     0
            
 27 28  0  0  0  0            999 V2000
   18.4103   -7.6560   29.8914 Br  0  0  0  0  0  0  0  0  0  0  0  0
   25.7069  -14.3025   29.4586 Cl  0  0  0  0  0  0  0  0  0  0  0  0
   20.4962   -9.3979   31.4571 S   0  0  0  0  0  0  0  0  0  0  0  0
   24.4704  -11.8375   34.1591 S   0  0  0  0  0  0  0  0  0  0  0  0
   25.2488  -10.7740   33.5807 O   0  0  0  0  0  0  0  0  0  0  0  0
   24.9866  -12.0843   35.4780 O   0  0  0  0  0  0  0  0  0  0  0  0
   22.6538  -10.4612   32.3176 O   0  0  0  0  0  0  0  0  0  0  0  0
   23.0036  -11.4317   34.3120 N   0  0  0  0  0  0  0  0  0  0  0  0
   18.9683   -9.3275   33.6137 N   0  0  0  0  0  0  0  0  0  0  0  0
   21.0100  -10.5274   33.8143 N   0  0  0  0  0  0  0  0  0  0  0  0
   18.3266   -8.6183   32.6521 C   0  0  0  0  0  0  0  0  0  0  0  0
   24.5054  -15.6596   33.0481 C   0  0  0  0  0  0  0  0  0  0  0  0
   24.9034  -15.6012   31.7245 C   0  0  0  0  0  0  0  0  0  0  0  0
   24.3738  -14.4788   33.7835 C   0  0  0  0  0  0  0  0  0  0  0  0
   25.0535  -13.1766   31.8966 C   0  0  0  0  0  0  0  0  0  0  0  0
   19.0052   -8.5677   31.4739 C   0  0  0  0  0  0  0  0  0  0  0  0
   20.1242   -9.8332   33.0969 C   0  0  0  0  0  0  0  0  0  0  0  0
   25.1756  -14.3607   31.1607 C   0  0  0  0  0  0  0  0  0  0  0  0
   22.2525  -10.7829   33.4253 C   0  0  0  0  0  0  0  0  0  0  0  0
   24.6290  -13.2511   33.2122 C   0  0  0  0  0  0  0  0  0  0  0  0
   22.5602  -11.6813   35.1729 H   0  0  0  0  0  0  0  0  0  0  0  0
   20.7178  -10.8782   34.7040 H   0  0  0  0  0  0  0  0  0  0  0  0
   17.4413   -8.1758   32.7950 H   0  0  0  0  0  0  0  0  0  0  0  0
   24.3128  -16.5424   33.4765 H   0  0  0  0  0  0  0  0  0  0  0  0
   24.9937  -16.4371   31.1830 H   0  0  0  0  0  0  0  0  0  0  0  0
   24.0894  -14.5255   34.7411 H   0  0  0  0  0  0  0  0  0  0  0  0
   25.2688  -12.2934   31.4801 H   0  0  0  0  0  0  0  0  0  0  0  0
  1 16  1  0  0  0  0
  2 18  1  0  0  0  0
  3 16  1  0  0  0  0
  3 17  1  0  0  0  0
  4  5  2  0  0  0  0
  4  6  2  0  0  0  0
  4  8  1  0  0  0  0
  4 20  1  0  0  0  0
  7 19  2  0  0  0  0
  8 19  1  0  0  0  0
  9 11  1  0  0  0  0
  9 17  2  0  0  0  0
 10 17  1  0  0  0  0
 10 19  1  0  0  0  0
 11 16  2  0  0  0  0
 12 13  2  0  0  0  0
 12 14  1  0  0  0  0
 13 18  1  0  0  0  0
 14 20  2  0  0  0  0
 15 18  2  0  0  0  0
 15 20  1  0  0  0  0
  8 21  1  0  0  0  0
 10 22  1  0  0  0  0
 11 23  1  0  0  0  0
 12 24  1  0  0  0  0
 13 25  1  0  0  0  0
 14 26  1  0  0  0  0
 15 27  1  0  0  0  0
M  END
> <pdb_id>
2Y5L

> <uniprot_id>
P09467

> <usmiles>
BrC=1SC(=NC1)NC(=O)NS(=O)(=O)c2cc(Cl)ccc2

$$$$
ROL_A_1003
          07202412153D 1   1.00000     0.00000     0
            
 41 43  0  0  0  0            999 V2000
   49.5534   43.1520   63.2581 O   0  0  0  0  0  0  0  0  0  0  0  0
   42.4866   45.8817   64.5322 O   0  0  0  0  0  0  0  0  0  0  0  0
   44.8256   46.3838   65.8748 O   0  0  0  0  0  0  0  0  0  0  0  0
   49.2294   45.4018   63.1966 N   0  0  0  0  0  0  0  0  0  0  0  0
   41.2382   45.2995   64.0982 C   0  0  0  0  0  0  0  0  0  0  0  0
   48.6670   46.3375   62.2484 C   0  0  0  0  0  0  0  0  0  0  0  0
   45.4401   48.2746   67.8615 C   0  0  0  0  0  0  0  0  0  0  0  0
   45.0823   46.9988   68.6537 C   0  0  0  0  0  0  0  0  0  0  0  0
   46.5608   47.8219   66.8916 C   0  0  0  0  0  0  0  0  0  0  0  0
   45.5087   45.8610   67.7105 C   0  0  0  0  0  0  0  0  0  0  0  0
   43.7428   45.4480   62.4918 C   0  0  0  0  0  0  0  0  0  0  0  0
   44.9712   45.3626   61.8265 C   0  0  0  0  0  0  0  0  0  0  0  0
   48.0147   44.1104   61.7247 C   0  0  0  0  0  0  0  0  0  0  0  0
   46.1309   45.9548   63.8431 C   0  0  0  0  0  0  0  0  0  0  0  0
   48.9100   44.1254   62.9292 C   0  0  0  0  0  0  0  0  0  0  0  0
   46.1076   46.3933   66.5731 C   0  0  0  0  0  0  0  0  0  0  0  0
   43.6939   45.7888   63.8422 C   0  0  0  0  0  0  0  0  0  0  0  0
   44.8945   46.0438   64.5233 C   0  0  0  0  0  0  0  0  0  0  0  0
   47.4965   45.4969   61.7011 C   0  0  1  0  0  0  0  0  0  0  0  0
   46.1787   45.6129   62.4867 C   0  0  0  0  0  0  0  0  0  0  0  0
   49.7979   45.6771   63.9719 H   0  0  0  0  0  0  0  0  0  0  0  0
   40.5234   45.5077   64.7659 H   0  0  0  0  0  0  0  0  0  0  0  0
   40.9844   45.6797   63.2088 H   0  0  0  0  0  0  0  0  0  0  0  0
   41.3422   44.3081   64.0196 H   0  0  0  0  0  0  0  0  0  0  0  0
   49.3207   46.5751   61.5298 H   0  0  0  0  0  0  0  0  0  0  0  0
   48.3465   47.1719   62.6966 H   0  0  0  0  0  0  0  0  0  0  0  0
   45.7710   48.9914   68.4752 H   0  0  0  0  0  0  0  0  0  0  0  0
   44.6466   48.6104   67.3539 H   0  0  0  0  0  0  0  0  0  0  0  0
   44.1011   46.9583   68.8423 H   0  0  0  0  0  0  0  0  0  0  0  0
   45.5893   46.9586   69.5147 H   0  0  0  0  0  0  0  0  0  0  0  0
   47.4573   47.8332   67.3345 H   0  0  0  0  0  0  0  0  0  0  0  0
   46.5879   48.3909   66.0697 H   0  0  0  0  0  0  0  0  0  0  0  0
   44.7038   45.3304   67.4449 H   0  0  0  0  0  0  0  0  0  0  0  0
   46.1599   45.2657   68.1812 H   0  0  0  0  0  0  0  0  0  0  0  0
   42.8948   45.2633   61.9949 H   0  0  0  0  0  0  0  0  0  0  0  0
   44.9860   45.1171   60.8572 H   0  0  0  0  0  0  0  0  0  0  0  0
   47.2731   43.4482   61.8326 H   0  0  0  0  0  0  0  0  0  0  0  0
   48.5295   43.9017   60.8932 H   0  0  0  0  0  0  0  0  0  0  0  0
   46.9809   46.1384   64.3368 H   0  0  0  0  0  0  0  0  0  0  0  0
   46.8113   45.8140   66.1619 H   0  0  0  0  0  0  0  0  0  0  0  0
   47.3284   45.7607   60.7512 H   0  0  0  0  0  0  0  0  0  0  0  0
  1 15  2  0  0  0  0
  2  5  1  0  0  0  0
  2 17  1  0  0  0  0
  3 16  1  0  0  0  0
  3 18  1  0  0  0  0
  4  6  1  0  0  0  0
  4 15  1  0  0  0  0
  6 19  1  0  0  0  0
  7  8  1  0  0  0  0
  7  9  1  0  0  0  0
  8 10  1  0  0  0  0
  9 16  1  0  0  0  0
 10 16  1  0  0  0  0
 11 12  2  0  0  0  0
 11 17  1  0  0  0  0
 12 20  1  0  0  0  0
 13 15  1  0  0  0  0
 13 19  1  0  0  0  0
 14 18  1  0  0  0  0
 14 20  2  0  0  0  0
 17 18  2  0  0  0  0
 19 20  1  0  0  0  0
  4 21  1  0  0  0  0
  5 22  1  0  0  0  0
  5 23  1  0  0  0  0
  5 24  1  0  0  0  0
  6 25  1  0  0  0  0
  6 26  1  0  0  0  0
  7 27  1  0  0  0  0
  7 28  1  0  0  0  0
  8 29  1  0  0  0  0
  8 30  1  0  0  0  0
  9 31  1  0  0  0  0
  9 32  1  0  0  0  0
 10 33  1  0  0  0  0
 10 34  1  0  0  0  0
 11 35  1  0  0  0  0
 12 36  1  0  0  0  0
 13 37  1  0  0  0  0
 13 38  1  0  0  0  0
 14 39  1  0  0  0  0
 16 40  1  0  0  0  0
 19 41  1  0  0  0  0
M  END
> <pdb_id>
1XN0

> <uniprot_id>
Q07343

> <usmiles>
O=C1NC[C@H](c2cc(OC3CCCC3)c(OC)cc2)C1

$$$$
ROL_A_101
          07202412153D 1   1.00000     0.00000     0
            
 41 43  0  0  0  0            999 V2000
   50.0582   45.8866   63.8598 O   0  0  0  0  0  0  0  0  0  0  0  0
   42.4638   46.2837   64.3088 O   0  0  0  0  0  0  0  0  0  0  0  0
   44.7612   46.4010   65.8720 O   0  0  0  0  0  0  0  0  0  0  0  0
   48.8329   44.2165   62.8941 N   0  0  0  0  0  0  0  0  0  0  0  0
   41.2572   45.6088   63.8482 C   0  0  0  0  0  0  0  0  0  0  0  0
   48.0618   43.9765   61.7057 C   0  0  0  0  0  0  0  0  0  0  0  0
   46.4568   47.6227   68.6165 C   0  0  0  0  0  0  0  0  0  0  0  0
   45.0951   47.0118   68.9136 C   0  0  0  0  0  0  0  0  0  0  0  0
   46.4725   47.7222   67.0674 C   0  0  0  0  0  0  0  0  0  0  0  0
   45.1368   45.8377   67.9183 C   0  0  0  0  0  0  0  0  0  0  0  0
   43.8224   45.7928   62.3713 C   0  0  0  0  0  0  0  0  0  0  0  0
   45.0464   45.5704   61.7562 C   0  0  0  0  0  0  0  0  0  0  0  0
   48.5298   46.3944   62.1373 C   0  0  0  0  0  0  0  0  0  0  0  0
   46.1499   45.9059   63.8412 C   0  0  0  0  0  0  0  0  0  0  0  0
   49.2519   45.4836   63.0490 C   0  0  0  0  0  0  0  0  0  0  0  0
   45.9336   46.3417   66.6790 C   0  0  0  0  0  0  0  0  0  0  0  0
   43.7312   46.0692   63.7322 C   0  0  0  0  0  0  0  0  0  0  0  0
   44.9071   46.1204   64.4887 C   0  0  0  0  0  0  0  0  0  0  0  0
   47.5227   45.3823   61.5994 C   0  0  2  0  0  0  0  0  0  0  0  0
   46.2358   45.5991   62.4714 C   0  0  0  0  0  0  0  0  0  0  0  0
   49.0417   43.4958   63.5552 H   0  0  0  0  0  0  0  0  0  0  0  0
   40.4770   45.9094   64.3968 H   0  0  0  0  0  0  0  0  0  0  0  0
   41.0955   45.8338   62.8873 H   0  0  0  0  0  0  0  0  0  0  0  0
   41.3710   44.6199   63.9443 H   0  0  0  0  0  0  0  0  0  0  0  0
   47.3434   43.2940   61.8400 H   0  0  0  0  0  0  0  0  0  0  0  0
   48.6262   43.7166   60.9222 H   0  0  0  0  0  0  0  0  0  0  0  0
   47.1939   47.0322   68.9451 H   0  0  0  0  0  0  0  0  0  0  0  0
   46.5427   48.5271   69.0345 H   0  0  0  0  0  0  0  0  0  0  0  0
   44.3479   47.6459   68.7145 H   0  0  0  0  0  0  0  0  0  0  0  0
   45.0230   46.6985   69.8605 H   0  0  0  0  0  0  0  0  0  0  0  0
   47.3985   47.8662   66.7183 H   0  0  0  0  0  0  0  0  0  0  0  0
   45.8753   48.4546   66.7406 H   0  0  0  0  0  0  0  0  0  0  0  0
   44.2090   45.5776   67.6509 H   0  0  0  0  0  0  0  0  0  0  0  0
   45.5978   45.0515   68.3298 H   0  0  0  0  0  0  0  0  0  0  0  0
   42.9865   45.7534   61.8239 H   0  0  0  0  0  0  0  0  0  0  0  0
   45.0722   45.3850   60.7739 H   0  0  0  0  0  0  0  0  0  0  0  0
   49.1210   46.7615   61.4192 H   0  0  0  0  0  0  0  0  0  0  0  0
   48.0886   47.1486   62.6237 H   0  0  0  0  0  0  0  0  0  0  0  0
   46.9924   45.9749   64.3756 H   0  0  0  0  0  0  0  0  0  0  0  0
   46.6301   45.7045   66.3490 H   0  0  0  0  0  0  0  0  0  0  0  0
   47.3176   45.5904   60.6431 H   0  0  0  0  0  0  0  0  0  0  0  0
  1 15  2  0  0  0  0
  2  5  1  0  0  0  0
  2 17  1  0  0  0  0
  3 16  1  0  0  0  0
  3 18  1  0  0  0  0
  4  6  1  0  0  0  0
  4 15  1  0  0  0  0
  6 19  1  0  0  0  0
  7  8  1  0  0  0  0
  7  9  1  0  0  0  0
  8 10  1  0  0  0  0
  9 16  1  0  0  0  0
 10 16  1  0  0  0  0
 11 12  2  0  0  0  0
 11 17  1  0  0  0  0
 12 20  1  0  0  0  0
 13 15  1  0  0  0  0
 13 19  1  0  0  0  0
 14 18  1  0  0  0  0
 14 20  2  0  0  0  0
 17 18  2  0  0  0  0
 19 20  1  0  0  0  0
  4 21  1  0  0  0  0
  5 22  1  0  0  0  0
  5 23  1  0  0  0  0
  5 24  1  0  0  0  0
  6 25  1  0  0  0  0
  6 26  1  0  0  0  0
  7 27  1  0  0  0  0
  7 28  1  0  0  0  0
  8 29  1  0  0  0  0
  8 30  1  0  0  0  0
  9 31  1  0  0  0  0
  9 32  1  0  0  0  0
 10 33  1  0  0  0  0
 10 34  1  0  0  0  0
 11 35  1  0  0  0  0
 12 36  1  0  0  0  0
 13 37  1  0  0  0  0
 13 38  1  0  0  0  0
 14 39  1  0  0  0  0
 16 40  1  0  0  0  0
 19 41  1  0  0  0  0
M  END
> <pdb_id>
1XMY

> <uniprot_id>
Q07343

> <usmiles>
O=C1NC[C@@H](c2cc(OC3CCCC3)c(OC)cc2)C1

$$$$
RSV_A_397
          07202405583D 1   1.00000     0.00000     0
            
 26 28  0  0  0  0            999 V2000
   71.2283   50.0393   14.5670 S   0  0  0  0  0  0  0  0  0  0  0  0
   65.8440   48.1839    6.3144 N   0  0  0  0  0  0  0  0  0  0  0  0
   66.8681   49.5042    7.9224 N   0  0  0  0  0  0  0  0  0  0  0  0
   70.0945   51.2680   14.6401 C   0  0  0  0  0  0  0  0  0  0  0  0
   70.7656   49.4079   13.0500 C   0  0  0  0  0  0  0  0  0  0  0  0
   69.3938   51.1516   13.5011 C   0  0  0  0  0  0  0  0  0  0  0  0
   66.9244   47.1284    8.1393 C   0  0  0  0  0  0  0  0  0  0  0  0
   67.8868   50.9248    9.5165 C   0  0  0  0  0  0  0  0  0  0  0  0
   67.6603   47.2521    9.3242 C   0  0  0  0  0  0  0  0  0  0  0  0
   68.6110   51.0956   10.6990 C   0  0  0  0  0  0  0  0  0  0  0  0
   68.7024   48.6990   10.9695 C   0  0  0  0  0  0  0  0  0  0  0  0
   66.5326   48.2843    7.4512 C   0  0  0  0  0  0  0  0  0  0  0  0
   67.5759   49.6466    9.0546 C   0  0  0  0  0  0  0  0  0  0  0  0
   69.7417   50.1688   12.6220 C   0  0  0  0  0  0  0  0  0  0  0  0
   67.9852   48.5282    9.7850 C   0  0  0  0  0  0  0  0  0  0  0  0
   69.0374   49.9840   11.4274 C   0  0  0  0  0  0  0  0  0  0  0  0
   65.5925   47.2832    5.9601 H   0  0  0  0  0  0  0  0  0  0  0  0
   65.5789   49.0091    5.8157 H   0  0  0  0  0  0  0  0  0  0  0  0
   69.9673   51.9396   15.3700 H   0  0  0  0  0  0  0  0  0  0  0  0
   71.1738   48.6286   12.5746 H   0  0  0  0  0  0  0  0  0  0  0  0
   68.6345   51.7710   13.3019 H   0  0  0  0  0  0  0  0  0  0  0  0
   66.6810   46.2244    7.7878 H   0  0  0  0  0  0  0  0  0  0  0  0
   67.5890   51.7258    8.9973 H   0  0  0  0  0  0  0  0  0  0  0  0
   67.9480   46.4397    9.8313 H   0  0  0  0  0  0  0  0  0  0  0  0
   68.8246   52.0167   11.0243 H   0  0  0  0  0  0  0  0  0  0  0  0
   68.9812   47.8975   11.4985 H   0  0  0  0  0  0  0  0  0  0  0  0
  1  4  1  0  0  0  0
  1  5  1  0  0  0  0
  2 12  1  0  0  0  0
  3 12  2  0  0  0  0
  3 13  1  0  0  0  0
  4  6  2  0  0  0  0
  5 14  2  0  0  0  0
  6 14  1  0  0  0  0
  7  9  2  0  0  0  0
  7 12  1  0  0  0  0
  8 10  1  0  0  0  0
  8 13  2  0  0  0  0
  9 15  1  0  0  0  0
 10 16  2  0  0  0  0
 11 15  2  0  0  0  0
 11 16  1  0  0  0  0
 13 15  1  0  0  0  0
 14 16  1  0  0  0  0
  2 17  1  0  0  0  0
  2 18  1  0  0  0  0
  4 19  1  0  0  0  0
  5 20  1  0  0  0  0
  6 21  1  0  0  0  0
  7 22  1  0  0  0  0
  8 23  1  0  0  0  0
  9 24  1  0  0  0  0
 10 25  1  0  0  0  0
 11 26  1  0  0  0  0
M  END
> <pdb_id>
3RSX

> <uniprot_id>
P56817

> <usmiles>
S1C=C(c2cc3c(nc(N)cc3)cc2)C=C1

$$$$
RTE_A_501
          07202408433D 1   1.00000     0.00000     0
            
 46 49  0  0  0  0            999 V2000
   17.3680   13.9720    3.9274 Cl  0  0  0  0  0  0  0  0  0  0  0  0
   18.6586   15.3504    6.1725 F   0  0  0  0  0  0  0  0  0  0  0  0
   19.5394    4.2002   17.1451 O   0  0  0  0  0  0  0  0  0  0  0  0
   20.5822    3.3772   15.3322 O   0  0  0  0  0  0  0  0  0  0  0  0
   17.5362    4.4144   11.4658 O   0  0  0  0  0  0  0  0  0  0  0  0
   19.1590   11.5562    8.9987 O   0  0  0  0  0  0  0  0  0  0  0  0
   15.8682    7.4536   10.7245 N   0  0  0  0  0  0  0  0  0  0  0  0
   17.9221    6.8867   10.0393 N   0  0  0  0  0  0  0  0  0  0  0  0
   19.1278    6.1184    9.6928 C   0  0  0  0  0  0  0  0  0  0  0  0
   16.4298    5.0267   10.8297 C   0  0  0  0  0  0  0  0  0  0  0  0
   16.1844    5.0186   14.8640 C   0  0  0  0  0  0  0  0  0  0  0  0
   17.7061   11.9059    5.6108 C   0  0  0  0  0  0  0  0  0  0  0  0
   16.2528    4.9338   13.4757 C   0  0  0  0  0  0  0  0  0  0  0  0
   18.1307   11.3353    6.8102 C   0  0  0  0  0  0  0  0  0  0  0  0
   16.9866   10.9269    9.8746 C   0  0  0  0  0  0  0  0  0  0  0  0
   16.1021    9.9381   10.3240 C   0  0  0  0  0  0  0  0  0  0  0  0
   17.2898    4.6822   15.6373 C   0  0  0  0  0  0  0  0  0  0  0  0
   18.9174   13.4945    7.5867 C   0  0  0  0  0  0  0  0  0  0  0  0
   18.6837    9.2341    9.4629 C   0  0  0  0  0  0  0  0  0  0  0  0
   18.5323    4.1780   13.6377 C   0  0  0  0  0  0  0  0  0  0  0  0
   19.6316    3.9024   15.8293 C   0  0  0  0  0  0  0  0  0  0  0  0
   17.8932   13.2581    5.4163 C   0  0  0  0  0  0  0  0  0  0  0  0
   18.4885   14.0372    6.3890 C   0  0  0  0  0  0  0  0  0  0  0  0
   17.4328    4.5121   12.8563 C   0  0  0  0  0  0  0  0  0  0  0  0
   18.7355   12.1256    7.8025 C   0  0  0  0  0  0  0  0  0  0  0  0
   18.2788   10.5772    9.4425 C   0  0  0  0  0  0  0  0  0  0  0  0
   16.7467    6.4761   10.5251 C   0  0  0  0  0  0  0  0  0  0  0  0
   16.5020    8.6277   10.3421 C   0  0  0  0  0  0  0  0  0  0  0  0
   17.8158    8.2674    9.9042 C   0  0  0  0  0  0  0  0  0  0  0  0
   18.4643    4.2614   15.0234 C   0  0  0  0  0  0  0  0  0  0  0  0
   18.7154    4.6409   17.5015 H   0  0  0  0  0  0  0  0  0  0  0  0
   19.8334    6.7404    9.3534 H   0  0  0  0  0  0  0  0  0  0  0  0
   19.4652    5.6432   10.5055 H   0  0  0  0  0  0  0  0  0  0  0  0
   18.9044    5.4492    8.9842 H   0  0  0  0  0  0  0  0  0  0  0  0
   15.6337    4.9812   11.4330 H   0  0  0  0  0  0  0  0  0  0  0  0
   16.2295    4.5449    9.9766 H   0  0  0  0  0  0  0  0  0  0  0  0
   15.3396    5.3217   15.3051 H   0  0  0  0  0  0  0  0  0  0  0  0
   17.2740   11.3448    4.9048 H   0  0  0  0  0  0  0  0  0  0  0  0
   15.4565    5.1751   12.9210 H   0  0  0  0  0  0  0  0  0  0  0  0
   18.0037   10.3557    6.9656 H   0  0  0  0  0  0  0  0  0  0  0  0
   16.6986   11.8844    9.8610 H   0  0  0  0  0  0  0  0  0  0  0  0
   15.1834   10.1873   10.6302 H   0  0  0  0  0  0  0  0  0  0  0  0
   17.2402    4.7429   16.6342 H   0  0  0  0  0  0  0  0  0  0  0  0
   19.3482   14.0688    8.2829 H   0  0  0  0  0  0  0  0  0  0  0  0
   19.6018    8.9821    9.1568 H   0  0  0  0  0  0  0  0  0  0  0  0
   19.3788    3.8753   13.1997 H   0  0  0  0  0  0  0  0  0  0  0  0
  1 22  1  0  0  0  0
  2 23  1  0  0  0  0
  3 21  1  0  0  0  0
  4 21  2  0  0  0  0
  5 10  1  0  0  0  0
  5 24  1  0  0  0  0
  6 25  1  0  0  0  0
  6 26  1  0  0  0  0
  7 27  2  0  0  0  0
  7 28  1  0  0  0  0
  8  9  1  0  0  0  0
  8 27  1  0  0  0  0
  8 29  1  0  0  0  0
 10 27  1  0  0  0  0
 11 13  2  0  0  0  0
 11 17  1  0  0  0  0
 12 14  2  0  0  0  0
 12 22  1  0  0  0  0
 13 24  1  0  0  0  0
 14 25  1  0  0  0  0
 15 16  1  0  0  0  0
 15 26  2  0  0  0  0
 16 28  2  0  0  0  0
 17 30  2  0  0  0  0
 18 23  1  0  0  0  0
 18 25  2  0  0  0  0
 19 26  1  0  0  0  0
 19 29  2  0  0  0  0
 20 24  2  0  0  0  0
 20 30  1  0  0  0  0
 21 30  1  0  0  0  0
 22 23  2  0  0  0  0
 28 29  1  0  0  0  0
  3 31  1  0  0  0  0
  9 32  1  0  0  0  0
  9 33  1  0  0  0  0
  9 34  1  0  0  0  0
 10 35  1  0  0  0  0
 10 36  1  0  0  0  0
 11 37  1  0  0  0  0
 12 38  1  0  0  0  0
 13 39  1  0  0  0  0
 14 40  1  0  0  0  0
 15 41  1  0  0  0  0
 16 42  1  0  0  0  0
 17 43  1  0  0  0  0
 18 44  1  0  0  0  0
 19 45  1  0  0  0  0
 20 46  1  0  0  0  0
M  END
> <pdb_id>
5Z5S

> <uniprot_id>
P37231

> <usmiles>
Clc1c(F)cc(Oc2cc3N(C(=Nc3cc2)COc4cc(ccc4)C(=O)O)C)cc1

$$$$
RTF_A_501
          07202408433D 1   1.00000     0.00000     0
            
 51 54  0  0  0  0            999 V2000
   20.4608    3.2789   15.3237 O   0  0  0  0  0  0  0  0  0  0  0  0
   19.4479    4.2608   17.0721 O   0  0  0  0  0  0  0  0  0  0  0  0
   17.6426    4.5943   11.3270 O   0  0  0  0  0  0  0  0  0  0  0  0
   19.0300   11.6794    8.5922 O   0  0  0  0  0  0  0  0  0  0  0  0
   17.7753   11.5128    6.5872 N   0  0  0  0  0  0  0  0  0  0  0  0
   15.9168    7.5750   10.5837 N   0  0  0  0  0  0  0  0  0  0  0  0
   17.9195    7.0243    9.7429 N   0  0  0  0  0  0  0  0  0  0  0  0
   19.1046    6.2706    9.3065 C   0  0  0  0  0  0  0  0  0  0  0  0
   17.1612   14.0047    3.8224 C   0  0  0  0  0  0  0  0  0  0  0  0
   19.8057   14.3145    8.0780 C   0  0  0  0  0  0  0  0  0  0  0  0
   16.5195    5.1505   10.6573 C   0  0  0  0  0  0  0  0  0  0  0  0
   17.3523   12.1067    5.4614 C   0  0  0  0  0  0  0  0  0  0  0  0
   16.1814    5.1613   14.6903 C   0  0  0  0  0  0  0  0  0  0  0  0
   16.3014    5.1091   13.3050 C   0  0  0  0  0  0  0  0  0  0  0  0
   16.9310   11.0483    9.6335 C   0  0  0  0  0  0  0  0  0  0  0  0
   16.0950   10.0579   10.1529 C   0  0  0  0  0  0  0  0  0  0  0  0
   17.2410    4.7658   15.4986 C   0  0  0  0  0  0  0  0  0  0  0  0
   18.6051    9.3667    9.0995 C   0  0  0  0  0  0  0  0  0  0  0  0
   18.5458    4.2653   13.5363 C   0  0  0  0  0  0  0  0  0  0  0  0
   18.4769   14.1373    5.9560 C   0  0  0  0  0  0  0  0  0  0  0  0
   19.5437    3.8995   15.7720 C   0  0  0  0  0  0  0  0  0  0  0  0
   18.5568   12.2406    7.4062 C   0  0  0  0  0  0  0  0  0  0  0  0
   16.7908    6.6026   10.3214 C   0  0  0  0  0  0  0  0  0  0  0  0
   17.4882    4.6597   12.7198 C   0  0  0  0  0  0  0  0  0  0  0  0
   18.1870   10.7010    9.1061 C   0  0  0  0  0  0  0  0  0  0  0  0
   16.5093    8.7542   10.1450 C   0  0  0  0  0  0  0  0  0  0  0  0
   17.7864    8.4010    9.6096 C   0  0  0  0  0  0  0  0  0  0  0  0
   17.6721   13.4074    5.1017 C   0  0  0  0  0  0  0  0  0  0  0  0
   18.9291   13.5521    7.1272 C   0  0  0  0  0  0  0  0  0  0  0  0
   18.4254    4.3172   14.9228 C   0  0  0  0  0  0  0  0  0  0  0  0
   20.4762    3.0406   14.3527 H   0  0  0  0  0  0  0  0  0  0  0  0
   19.7726    6.9002    8.9099 H   0  0  0  0  0  0  0  0  0  0  0  0
   19.5113    5.8047   10.0924 H   0  0  0  0  0  0  0  0  0  0  0  0
   18.8357    5.5944    8.6207 H   0  0  0  0  0  0  0  0  0  0  0  0
   17.4946   14.9436    3.7364 H   0  0  0  0  0  0  0  0  0  0  0  0
   17.4875   13.4628    3.0479 H   0  0  0  0  0  0  0  0  0  0  0  0
   16.1612   14.0055    3.8309 H   0  0  0  0  0  0  0  0  0  0  0  0
   20.0307   13.7351    8.8613 H   0  0  0  0  0  0  0  0  0  0  0  0
   20.6475   14.5854    7.6110 H   0  0  0  0  0  0  0  0  0  0  0  0
   19.3228   15.1308    8.3949 H   0  0  0  0  0  0  0  0  0  0  0  0
   15.7163    5.0911   11.2501 H   0  0  0  0  0  0  0  0  0  0  0  0
   16.3497    4.6406    9.8139 H   0  0  0  0  0  0  0  0  0  0  0  0
   16.7700   11.5789    4.8430 H   0  0  0  0  0  0  0  0  0  0  0  0
   15.3309    5.4842   15.1055 H   0  0  0  0  0  0  0  0  0  0  0  0
   15.5366    5.3938   12.7270 H   0  0  0  0  0  0  0  0  0  0  0  0
   16.6366   12.0040    9.6366 H   0  0  0  0  0  0  0  0  0  0  0  0
   15.2001   10.2998   10.5279 H   0  0  0  0  0  0  0  0  0  0  0  0
   17.1520    4.8037   16.4939 H   0  0  0  0  0  0  0  0  0  0  0  0
   19.4986    9.1214    8.7232 H   0  0  0  0  0  0  0  0  0  0  0  0
   19.3977    3.9426   13.1237 H   0  0  0  0  0  0  0  0  0  0  0  0
   18.7302   15.0782    5.7309 H   0  0  0  0  0  0  0  0  0  0  0  0
  1 21  1  0  0  0  0
  2 21  2  0  0  0  0
  3 11  1  0  0  0  0
  3 24  1  0  0  0  0
  4 22  1  0  0  0  0
  4 25  1  0  0  0  0
  5 12  2  0  0  0  0
  5 22  1  0  0  0  0
  6 23  2  0  0  0  0
  6 26  1  0  0  0  0
  7  8  1  0  0  0  0
  7 23  1  0  0  0  0
  7 27  1  0  0  0  0
  9 28  1  0  0  0  0
 10 29  1  0  0  0  0
 11 23  1  0  0  0  0
 12 28  1  0  0  0  0
 13 14  2  0  0  0  0
 13 17  1  0  0  0  0
 14 24  1  0  0  0  0
 15 16  1  0  0  0  0
 15 25  2  0  0  0  0
 16 26  2  0  0  0  0
 17 30  2  0  0  0  0
 18 25  1  0  0  0  0
 18 27  2  0  0  0  0
 19 24  2  0  0  0  0
 19 30  1  0  0  0  0
 20 28  2  0  0  0  0
 20 29  1  0  0  0  0
 21 30  1  0  0  0  0
 22 29  2  0  0  0  0
 26 27  1  0  0  0  0
  1 31  1  0  0  0  0
  8 32  1  0  0  0  0
  8 33  1  0  0  0  0
  8 34  1  0  0  0  0
  9 35  1  0  0  0  0
  9 36  1  0  0  0  0
  9 37  1  0  0  0  0
 10 38  1  0  0  0  0
 10 39  1  0  0  0  0
 10 40  1  0  0  0  0
 11 41  1  0  0  0  0
 11 42  1  0  0  0  0
 12 43  1  0  0  0  0
 13 44  1  0  0  0  0
 14 45  1  0  0  0  0
 15 46  1  0  0  0  0
 16 47  1  0  0  0  0
 17 48  1  0  0  0  0
 18 49  1  0  0  0  0
 19 50  1  0  0  0  0
 20 51  1  0  0  0  0
M  END
> <pdb_id>
5Z6S

> <uniprot_id>
P37231

> <usmiles>
O=C(O)c1cc(OCC2=Nc3c(N2C)cc(Oc4ncc(cc4C)C)cc3)ccc1

$$$$
RTL_A_201
          07212402503D 1   1.00000     0.00000     0
            
 51 51  0  0  0  0            999 V2000
  -18.5704   -1.6841    8.5621 O   0  0  0  0  0  0  0  0  0  0  0  0
  -13.3576   -2.4737   14.9890 C   0  0  0  0  0  0  0  0  0  0  0  0
  -16.5600    0.0428   11.4849 C   0  0  0  0  0  0  0  0  0  0  0  0
  -11.3706   -5.0569   18.5899 C   0  0  0  0  0  0  0  0  0  0  0  0
  -15.3654   -7.4091   17.4107 C   0  0  0  0  0  0  0  0  0  0  0  0
  -13.8077   -8.0560   15.5364 C   0  0  0  0  0  0  0  0  0  0  0  0
  -15.9126   -2.2253   13.3253 C   0  0  0  0  0  0  0  0  0  0  0  0
  -15.5793   -3.4072   14.2202 C   0  0  0  0  0  0  0  0  0  0  0  0
  -17.0940   -2.2230   12.6751 C   0  0  0  0  0  0  0  0  0  0  0  0
  -14.3031   -4.8382   15.6836 C   0  0  0  0  0  0  0  0  0  0  0  0
  -18.4755   -1.4706   10.8505 C   0  0  0  0  0  0  0  0  0  0  0  0
  -13.2228   -5.1007   16.4554 C   0  0  0  0  0  0  0  0  0  0  0  0
  -18.8968   -0.7302    9.6030 C   0  0  0  0  0  0  0  0  0  0  0  0
  -13.1391   -8.4070   19.2364 C   0  0  0  0  0  0  0  0  0  0  0  0
  -12.0821   -7.3202   19.4648 C   0  0  0  0  0  0  0  0  0  0  0  0
  -13.4279   -8.8244   17.8156 C   0  0  0  0  0  0  0  0  0  0  0  0
  -14.4250   -3.5403   14.8916 C   0  0  0  0  0  0  0  0  0  0  0  0
  -17.4356   -1.1735   11.6508 C   0  0  0  0  0  0  0  0  0  0  0  0
  -12.2672   -6.2681   18.3709 C   0  0  0  0  0  0  0  0  0  0  0  0
  -13.0549   -6.3810   17.3087 C   0  0  0  0  0  0  0  0  0  0  0  0
  -13.9124   -7.6459   16.9960 C   0  0  0  0  0  0  0  0  0  0  0  0
  -19.0171   -1.5031    7.8617 H   0  0  0  0  0  0  0  0  0  0  0  0
  -12.8523   -2.4462   14.1609 H   0  0  0  0  0  0  0  0  0  0  0  0
  -13.7734   -1.6111   15.1422 H   0  0  0  0  0  0  0  0  0  0  0  0
  -12.7602   -2.6803   15.7251 H   0  0  0  0  0  0  0  0  0  0  0  0
  -16.2028    0.0626   10.5839 H   0  0  0  0  0  0  0  0  0  0  0  0
  -15.8303    0.0046   12.1228 H   0  0  0  0  0  0  0  0  0  0  0  0
  -17.0853    0.8424   11.6430 H   0  0  0  0  0  0  0  0  0  0  0  0
  -10.5550   -5.1616   18.0740 H   0  0  0  0  0  0  0  0  0  0  0  0
  -11.1506   -4.9832   19.5312 H   0  0  0  0  0  0  0  0  0  0  0  0
  -11.8341   -4.2551   18.3019 H   0  0  0  0  0  0  0  0  0  0  0  0
  -15.8980   -8.1866   17.1837 H   0  0  0  0  0  0  0  0  0  0  0  0
  -15.4077   -7.2562   18.3683 H   0  0  0  0  0  0  0  0  0  0  0  0
  -15.7118   -6.6315   16.9442 H   0  0  0  0  0  0  0  0  0  0  0  0
  -13.8321   -7.2648   14.9763 H   0  0  0  0  0  0  0  0  0  0  0  0
  -14.5520   -8.6354   15.3103 H   0  0  0  0  0  0  0  0  0  0  0  0
  -12.9740   -8.5298   15.3930 H   0  0  0  0  0  0  0  0  0  0  0  0
  -15.2843   -1.5581   13.1677 H   0  0  0  0  0  0  0  0  0  0  0  0
  -16.1679   -4.1276   14.2213 H   0  0  0  0  0  0  0  0  0  0  0  0
  -17.6705   -2.9431   12.7894 H   0  0  0  0  0  0  0  0  0  0  0  0
  -14.9960   -5.4564   15.6492 H   0  0  0  0  0  0  0  0  0  0  0  0
  -18.8779   -2.2976   10.9915 H   0  0  0  0  0  0  0  0  0  0  0  0
  -12.5473   -4.4626   16.4912 H   0  0  0  0  0  0  0  0  0  0  0  0
  -18.3851    0.0862    9.4965 H   0  0  0  0  0  0  0  0  0  0  0  0
  -19.8496   -0.5452    9.6163 H   0  0  0  0  0  0  0  0  0  0  0  0
  -12.8554   -9.1977   19.7216 H   0  0  0  0  0  0  0  0  0  0  0  0
  -13.9713   -8.0911   19.6233 H   0  0  0  0  0  0  0  0  0  0  0  0
  -12.2116   -6.9143   20.3360 H   0  0  0  0  0  0  0  0  0  0  0  0
  -11.1948   -7.7074   19.4009 H   0  0  0  0  0  0  0  0  0  0  0  0
  -14.1122   -9.5120   17.8197 H   0  0  0  0  0  0  0  0  0  0  0  0
  -12.6166   -9.1773   17.4176 H   0  0  0  0  0  0  0  0  0  0  0  0
  1 13  1  0  0  0  0
  1 22  1  0  0  0  0
  2 17  1  0  0  0  0
  2 23  1  0  0  0  0
  2 24  1  0  0  0  0
  2 25  1  0  0  0  0
  3 18  1  0  0  0  0
  3 26  1  0  0  0  0
  3 27  1  0  0  0  0
  3 28  1  0  0  0  0
  4 19  1  0  0  0  0
  4 29  1  0  0  0  0
  4 30  1  0  0  0  0
  4 31  1  0  0  0  0
  5 21  1  0  0  0  0
  5 32  1  0  0  0  0
  5 33  1  0  0  0  0
  5 34  1  0  0  0  0
  6 21  1  0  0  0  0
  6 35  1  0  0  0  0
  6 36  1  0  0  0  0
  6 37  1  0  0  0  0
  7  8  1  0  0  0  0
  7  9  2  0  0  0  0
  7 38  1  0  0  0  0
  8 17  2  0  0  0  0
  8 39  1  0  0  0  0
  9 18  1  0  0  0  0
  9 40  1  0  0  0  0
 10 12  2  0  0  0  0
 10 17  1  0  0  0  0
 10 41  1  0  0  0  0
 11 13  1  0  0  0  0
 11 18  2  0  0  0  0
 11 42  1  0  0  0  0
 12 20  1  0  0  0  0
 12 43  1  0  0  0  0
 13 44  1  0  0  0  0
 13 45  1  0  0  0  0
 14 15  1  0  0  0  0
 14 16  1  0  0  0  0
 14 46  1  0  0  0  0
 14 47  1  0  0  0  0
 15 19  1  0  0  0  0
 15 48  1  0  0  0  0
 15 49  1  0  0  0  0
 16 21  1  0  0  0  0
 16 50  1  0  0  0  0
 16 51  1  0  0  0  0
 19 20  2  0  0  0  0
 20 21  1  0  0  0  0
M  END
> <pdb_id>
5H8T

> <uniprot_id>
P09455

> <usmiles>
OC/C=C(/C=C/C=C(/C=C/C1=C(CCCC1(C)C)C)\C)\C

$$$$
RUG_A_998
          07202400133D 1   1.00000     0.00000     0
            
 33 34  0  0  0  0            999 V2000
   33.2908   18.7614   27.4618 O   0  0  0  0  0  0  0  0  0  0  0  0
   38.0819   24.2974   31.6761 O   0  0  0  0  0  0  0  0  0  0  0  0
   34.1288   24.5992   26.2627 O   0  0  0  0  0  0  0  0  0  0  0  0
   33.1576   22.6737   24.2973 O   0  0  0  0  0  0  0  0  0  0  0  0
   31.4272   20.6819   25.3854 O   0  0  0  0  0  0  0  0  0  0  0  0
   33.5285   21.5583   28.2570 O   0  0  0  0  0  0  0  0  0  0  0  0
   34.3685   24.0746   30.0187 N   0  0  0  0  0  0  0  0  0  0  0  0
   35.4050   24.3930   30.6185 N   0  0  0  0  0  0  0  0  0  0  0  0
   34.6462   23.5039   28.9567 N   0  0  0  0  0  0  0  0  0  0  0  0
   32.2279   19.5399   28.0170 C   0  0  0  0  0  0  0  0  0  0  0  0
   37.9339   24.1721   30.2599 C   0  0  0  0  0  0  0  0  0  0  0  0
   35.9696   23.4061   28.8265 C   0  0  0  0  0  0  0  0  0  0  0  0
   33.6046   22.9972   28.0440 C   0  0  1  0  0  0  0  0  0  0  0  0
   33.9335   23.2113   26.5505 C   0  0  1  0  0  0  0  0  0  0  0  0
   32.8118   22.6115   25.6797 C   0  0  2  0  0  0  0  0  0  0  0  0
   32.5804   21.1476   26.0644 C   0  0  1  0  0  0  0  0  0  0  0  0
   32.3814   20.9967   27.5841 C   0  0  2  0  0  0  0  0  0  0  0  0
   36.4588   23.9914   29.9070 C   0  0  0  0  0  0  0  0  0  0  0  0
   33.1892   17.8080   27.7459 H   0  0  0  0  0  0  0  0  0  0  0  0
   39.0491   24.4154   31.9011 H   0  0  0  0  0  0  0  0  0  0  0  0
   34.3400   24.7118   25.2918 H   0  0  0  0  0  0  0  0  0  0  0  0
   32.4183   22.2804   23.7508 H   0  0  0  0  0  0  0  0  0  0  0  0
   31.2620   19.7256   25.6263 H   0  0  0  0  0  0  0  0  0  0  0  0
   32.2601   19.4838   29.0149 H   0  0  0  0  0  0  0  0  0  0  0  0
   31.3509   19.1864   27.6914 H   0  0  0  0  0  0  0  0  0  0  0  0
   38.4511   23.3778   29.9412 H   0  0  0  0  0  0  0  0  0  0  0  0
   38.2828   24.9972   29.8155 H   0  0  0  0  0  0  0  0  0  0  0  0
   36.4796   22.9834   28.0774 H   0  0  0  0  0  0  0  0  0  0  0  0
   32.7254   23.4204   28.2628 H   0  0  0  0  0  0  0  0  0  0  0  0
   34.7833   22.7261   26.3443 H   0  0  0  0  0  0  0  0  0  0  0  0
   31.9685   23.1273   25.8302 H   0  0  0  0  0  0  0  0  0  0  0  0
   33.3706   20.6043   25.7808 H   0  0  0  0  0  0  0  0  0  0  0  0
   31.5641   21.5044   27.8567 H   0  0  0  0  0  0  0  0  0  0  0  0
  1 10  1  0  0  0  0
  2 11  1  0  0  0  0
  3 14  1  0  0  0  0
  4 15  1  0  0  0  0
  5 16  1  0  0  0  0
  6 13  1  0  0  0  0
  6 17  1  0  0  0  0
  7  8  2  0  0  0  0
  7  9  1  0  0  0  0
  8 18  1  0  0  0  0
  9 12  1  0  0  0  0
  9 13  1  0  0  0  0
 10 17  1  0  0  0  0
 11 18  1  0  0  0  0
 12 18  2  0  0  0  0
 13 14  1  0  0  0  0
 14 15  1  0  0  0  0
 15 16  1  0  0  0  0
 16 17  1  0  0  0  0
  1 19  1  0  0  0  0
  2 20  1  0  0  0  0
  3 21  1  0  0  0  0
  4 22  1  0  0  0  0
  5 23  1  0  0  0  0
 10 24  1  0  0  0  0
 10 25  1  0  0  0  0
 11 26  1  0  0  0  0
 11 27  1  0  0  0  0
 12 28  1  0  0  0  0
 13 29  1  0  0  0  0
 14 30  1  0  0  0  0
 15 31  1  0  0  0  0
 16 32  1  0  0  0  0
 17 33  1  0  0  0  0
M  END
> <pdb_id>
3G2I

> <uniprot_id>
P00489

> <usmiles>
O1[C@@H](N2N=NC(=C2)CO)[C@H](O)[C@@H](O)[C@H](O)[C@H]1CO

$$$$
RUM_A_800
          07212402213D 1   1.00000     0.00000     0
            
 42 44  0  0  0  0            999 V2000
   36.7045   48.0054   42.3245 Br  0  0  0  0  0  0  0  0  0  0  0  0
   36.6948   47.4510   39.3979 O   0  0  0  0  0  0  0  0  0  0  0  0
   36.4485   51.9009   37.7520 N   0  0  0  0  0  0  0  0  0  0  0  0
   39.4946   52.3883   35.3853 N   0  0  0  0  0  0  0  0  0  0  0  0
   39.2300   50.5067   40.1600 N   0  0  0  0  0  0  0  0  0  0  0  0
   39.9203   50.7751   37.9282 N   0  0  0  0  0  0  0  0  0  0  0  0
   38.2170   49.0290   38.5294 N   0  0  0  0  0  0  0  0  0  0  0  0
   36.1120   50.8826   37.3022 C   0  0  0  0  0  0  0  0  0  0  0  0
   38.5624   49.9391   41.1842 C   0  0  0  0  0  0  0  0  0  0  0  0
   40.8256   49.8528   37.2189 C   0  0  0  0  0  0  0  0  0  0  0  0
   41.3755   50.4077   35.9094 C   0  0  0  0  0  0  0  0  0  0  0  0
   33.9428   48.4831   35.7192 C   0  0  0  0  0  0  0  0  0  0  0  0
   34.7688   47.3636   35.6160 C   0  0  0  0  0  0  0  0  0  0  0  0
   39.9432   52.2409   37.7816 C   0  0  0  0  0  0  0  0  0  0  0  0
   38.0435   48.5442   37.1502 C   0  0  0  0  0  0  0  0  0  0  0  0
   41.7594   51.8734   36.0445 C   0  0  0  0  0  0  0  0  0  0  0  0
   34.4028   49.6726   36.3073 C   0  0  0  0  0  0  0  0  0  0  0  0
   36.0822   47.4049   36.0955 C   0  0  0  0  0  0  0  0  0  0  0  0
   37.6750   48.8886   40.9518 C   0  0  0  0  0  0  0  0  0  0  0  0
   37.4895   48.4022   39.5710 C   0  0  0  0  0  0  0  0  0  0  0  0
   40.4905   52.6475   36.4003 C   0  0  1  0  0  0  0  0  0  0  0  0
   39.0955   50.1192   38.8655 C   0  0  0  0  0  0  0  0  0  0  0  0
   35.7155   49.7676   36.7837 C   0  0  0  0  0  0  0  0  0  0  0  0
   36.6037   48.5630   36.6811 C   0  0  0  0  0  0  0  0  0  0  0  0
   39.8537   52.6536   34.4905 H   0  0  0  0  0  0  0  0  0  0  0  0
   39.2707   51.4137   35.3791 H   0  0  0  0  0  0  0  0  0  0  0  0
   38.7043   50.2732   42.1160 H   0  0  0  0  0  0  0  0  0  0  0  0
   40.3233   49.0119   37.0176 H   0  0  0  0  0  0  0  0  0  0  0  0
   41.5968   49.6445   37.8205 H   0  0  0  0  0  0  0  0  0  0  0  0
   40.6768   50.3186   35.1996 H   0  0  0  0  0  0  0  0  0  0  0  0
   42.1851   49.8822   35.6480 H   0  0  0  0  0  0  0  0  0  0  0  0
   33.0075   48.4378   35.3684 H   0  0  0  0  0  0  0  0  0  0  0  0
   34.4195   46.5258   35.1963 H   0  0  0  0  0  0  0  0  0  0  0  0
   40.5271   52.6318   38.4931 H   0  0  0  0  0  0  0  0  0  0  0  0
   39.0132   52.5944   37.8822 H   0  0  0  0  0  0  0  0  0  0  0  0
   38.3806   47.6041   37.1003 H   0  0  0  0  0  0  0  0  0  0  0  0
   38.5830   49.1246   36.5402 H   0  0  0  0  0  0  0  0  0  0  0  0
   42.1339   52.2096   35.1804 H   0  0  0  0  0  0  0  0  0  0  0  0
   42.4409   51.9829   36.7681 H   0  0  0  0  0  0  0  0  0  0  0  0
   33.7880   50.4573   36.3864 H   0  0  0  0  0  0  0  0  0  0  0  0
   36.6588   46.5916   36.0181 H   0  0  0  0  0  0  0  0  0  0  0  0
   40.6985   53.6256   36.4087 H   0  0  0  0  0  0  0  0  0  0  0  0
  1 19  1  0  0  0  0
  2 20  2  0  0  0  0
  3  8  3  0  0  0  0
  4 21  1  0  0  0  0
  5  9  1  0  0  0  0
  5 22  2  0  0  0  0
  6 10  1  0  0  0  0
  6 14  1  0  0  0  0
  6 22  1  0  0  0  0
  7 15  1  0  0  0  0
  7 20  1  0  0  0  0
  7 22  1  0  0  0  0
  8 23  1  0  0  0  0
  9 19  2  0  0  0  0
 10 11  1  0  0  0  0
 11 16  1  0  0  0  0
 12 13  2  0  0  0  0
 12 17  1  0  0  0  0
 13 18  1  0  0  0  0
 14 21  1  0  0  0  0
 15 24  1  0  0  0  0
 16 21  1  0  0  0  0
 17 23  2  0  0  0  0
 18 24  2  0  0  0  0
 19 20  1  0  0  0  0
 23 24  1  0  0  0  0
  4 25  1  0  0  0  0
  4 26  1  0  0  0  0
  9 27  1  0  0  0  0
 10 28  1  0  0  0  0
 10 29  1  0  0  0  0
 11 30  1  0  0  0  0
 11 31  1  0  0  0  0
 12 32  1  0  0  0  0
 13 33  1  0  0  0  0
 14 34  1  0  0  0  0
 14 35  1  0  0  0  0
 15 36  1  0  0  0  0
 15 37  1  0  0  0  0
 16 38  1  0  0  0  0
 16 39  1  0  0  0  0
 17 40  1  0  0  0  0
 18 41  1  0  0  0  0
 21 42  1  0  0  0  0
M  END
> <pdb_id>
3G0G

> <uniprot_id>
P27487

> <usmiles>
BrC=1C(=O)N(C(=NC1)N2C[C@H](N)CCC2)Cc3c(C#N)cccc3

$$$$
RUY_A_508
          07202416263D 1   1.00000     0.00000     0
            
 24 25  0  0  0  0            999 V2000
   30.3828   65.0390   72.1134 O   0  0  0  0  0  0  0  0  0  0  0  0
   30.1622   67.6705   74.5167 N   0  0  0  0  0  0  0  0  0  0  0  0
   30.8480   65.7216   73.1979 N   0  0  0  0  0  0  0  0  0  0  0  0
   29.2404   65.6385   71.6903 N   0  0  0  0  0  0  0  0  0  0  0  0
   27.8738   67.5620   72.3648 N   0  0  0  0  0  0  0  0  0  0  0  0
   26.6306   67.1344   71.5739 C   0  0  0  0  0  0  0  0  0  0  0  0
   28.0639   69.0673   72.2311 C   0  0  0  0  0  0  0  0  0  0  0  0
   25.3901   67.9892   71.8562 C   0  0  0  0  0  0  0  0  0  0  0  0
   26.7858   69.8305   72.5779 C   0  0  0  0  0  0  0  0  0  0  0  0
   25.6665   69.4083   71.7455 C   0  0  0  0  0  0  0  0  0  0  0  0
   30.0182   66.7150   73.4376 C   0  0  0  0  0  0  0  0  0  0  0  0
   29.0090   66.6679   72.4836 C   0  0  0  0  0  0  0  0  0  0  0  0
   29.4872   68.3992   74.6327 H   0  0  0  0  0  0  0  0  0  0  0  0
   30.9366   67.6014   75.1456 H   0  0  0  0  0  0  0  0  0  0  0  0
   26.4192   66.1856   71.8085 H   0  0  0  0  0  0  0  0  0  0  0  0
   26.8411   67.1976   70.5983 H   0  0  0  0  0  0  0  0  0  0  0  0
   28.3224   69.2790   71.2886 H   0  0  0  0  0  0  0  0  0  0  0  0
   28.7934   69.3582   72.8502 H   0  0  0  0  0  0  0  0  0  0  0  0
   25.0693   67.7949   72.7832 H   0  0  0  0  0  0  0  0  0  0  0  0
   24.6762   67.7478   71.1990 H   0  0  0  0  0  0  0  0  0  0  0  0
   26.9435   70.8081   72.4383 H   0  0  0  0  0  0  0  0  0  0  0  0
   26.5581   69.6633   73.5372 H   0  0  0  0  0  0  0  0  0  0  0  0
   24.8512   69.9157   72.0245 H   0  0  0  0  0  0  0  0  0  0  0  0
   25.8800   69.6191   70.7915 H   0  0  0  0  0  0  0  0  0  0  0  0
  1  3  1  0  0  0  0
  1  4  1  0  0  0  0
  2 11  1  0  0  0  0
  3 11  2  0  0  0  0
  4 12  2  0  0  0  0
  5  6  1  0  0  0  0
  5  7  1  0  0  0  0
  5 12  1  0  0  0  0
  6  8  1  0  0  0  0
  7  9  1  0  0  0  0
  8 10  1  0  0  0  0
  9 10  1  0  0  0  0
 11 12  1  0  0  0  0
  2 13  1  0  0  0  0
  2 14  1  0  0  0  0
  6 15  1  0  0  0  0
  6 16  1  0  0  0  0
  7 17  1  0  0  0  0
  7 18  1  0  0  0  0
  8 19  1  0  0  0  0
  8 20  1  0  0  0  0
  9 21  1  0  0  0  0
  9 22  1  0  0  0  0
 10 23  1  0  0  0  0
 10 24  1  0  0  0  0
M  END
> <pdb_id>
7B8U

> <uniprot_id>
Q6P988

> <usmiles>
O1N=C(N2CCCCC2)C(=N1)N

$$$$
RVD_C_451
          07202401573D 1   1.00000     0.00000     0
            
 30 30  0  0  0  0            999 V2000
   42.9210  -53.9610   31.5050 O   0  0  0  0  0  0  0  0  0  0  0  0
   41.5660  -54.7730   30.0240 O   0  0  0  0  0  0  0  0  0  0  0  0
   45.1560  -53.8310   23.7210 O   0  0  0  0  0  0  0  0  0  0  0  0
   43.1040  -53.2620   23.7550 O   0  0  0  0  0  0  0  0  0  0  0  0
   41.9770  -52.6730   25.8710 O   0  0  0  0  0  0  0  0  0  0  0  0
   42.0290  -52.4210   28.4730 O   0  0  0  0  0  0  0  0  0  0  0  0
   42.6560  -49.4170   30.2910 C   0  0  0  0  0  0  0  0  0  0  0  0
   41.4370  -50.2620   30.0600 C   0  0  0  0  0  0  0  0  0  0  0  0
   45.3860  -53.5510   27.8780 C   0  0  0  0  0  0  0  0  0  0  0  0
   41.7000  -51.5100   30.5700 C   0  0  0  0  0  0  0  0  0  0  0  0
   44.2620  -53.1260   28.5440 C   0  0  0  0  0  0  0  0  0  0  0  0
   45.3510  -53.6750   26.5160 C   0  0  0  0  0  0  0  0  0  0  0  0
   42.2070  -53.8600   30.5020 C   0  0  0  0  0  0  0  0  0  0  0  0
   44.1510  -53.5080   24.3160 C   0  0  0  0  0  0  0  0  0  0  0  0
   42.0310  -52.5330   29.8140 C   0  0  0  0  0  0  0  0  0  0  0  0
   43.1140  -52.8410   27.8620 C   0  0  0  0  0  0  0  0  0  0  0  0
   43.0910  -52.9600   26.5140 C   0  0  0  0  0  0  0  0  0  0  0  0
   44.2000  -53.3800   25.8290 C   0  0  0  0  0  0  0  0  0  0  0  0
   43.4222  -53.1649   31.8442 H   0  0  0  0  0  0  0  0  0  0  0  0
   45.9965  -54.0242   24.2272 H   0  0  0  0  0  0  0  0  0  0  0  0
   41.9394  -52.7545   24.8750 H   0  0  0  0  0  0  0  0  0  0  0  0
   42.4978  -48.4979   29.9301 H   0  0  0  0  0  0  0  0  0  0  0  0
   42.8427  -49.3623   31.2719 H   0  0  0  0  0  0  0  0  0  0  0  0
   43.4396  -49.8278   29.8249 H   0  0  0  0  0  0  0  0  0  0  0  0
   41.2462  -50.3262   29.0805 H   0  0  0  0  0  0  0  0  0  0  0  0
   40.6493  -49.8607   30.5274 H   0  0  0  0  0  0  0  0  0  0  0  0
   46.2212  -53.7675   28.3836 H   0  0  0  0  0  0  0  0  0  0  0  0
   41.6369  -51.6461   31.5587 H   0  0  0  0  0  0  0  0  0  0  0  0
   44.2849  -53.0243   29.5386 H   0  0  0  0  0  0  0  0  0  0  0  0
   46.1643  -53.9807   26.0208 H   0  0  0  0  0  0  0  0  0  0  0  0
  1 13  1  0  0  0  0
  2 13  2  0  0  0  0
  3 14  1  0  0  0  0
  4 14  2  0  0  0  0
  5 17  1  0  0  0  0
  6 15  1  0  0  0  0
  6 16  1  0  0  0  0
  7  8  1  0  0  0  0
  8 10  1  0  0  0  0
  9 11  2  0  0  0  0
  9 12  1  0  0  0  0
 10 15  2  0  0  0  0
 11 16  1  0  0  0  0
 12 18  2  0  0  0  0
 13 15  1  0  0  0  0
 14 18  1  0  0  0  0
 16 17  2  0  0  0  0
 17 18  1  0  0  0  0
  1 19  1  0  0  0  0
  3 20  1  0  0  0  0
  5 21  1  0  0  0  0
  7 22  1  0  0  0  0
  7 23  1  0  0  0  0
  7 24  1  0  0  0  0
  8 25  1  0  0  0  0
  8 26  1  0  0  0  0
  9 27  1  0  0  0  0
 10 28  1  0  0  0  0
 11 29  1  0  0  0  0
 12 30  1  0  0  0  0
M  END
> <pdb_id>
3RV9

> <uniprot_id>
Q7D785

> <usmiles>
O=C(O)c1c(O)c(O/C(/C(=O)O)=C\CC)ccc1

$$$$
RVE_A_451
          07202401573D 1   1.00000     0.00000     0
            
 24 24  0  0  0  0            999 V2000
   45.3262  -53.5926   23.8328 O   0  0  0  0  0  0  0  0  0  0  0  0
   43.3529  -53.0975   24.4513 O   0  0  0  0  0  0  0  0  0  0  0  0
   44.4716  -55.2128   32.7220 O   0  0  0  0  0  0  0  0  0  0  0  0
   45.1031  -56.3919   31.0285 O   0  0  0  0  0  0  0  0  0  0  0  0
   44.7821  -55.4327   28.6337 O   0  0  0  0  0  0  0  0  0  0  0  0
   43.7751  -53.4921   27.0292 O   0  0  0  0  0  0  0  0  0  0  0  0
   46.0945  -53.4810   26.6586 C   0  0  0  0  0  0  0  0  0  0  0  0
   43.0304  -52.2142   30.3078 C   0  0  0  0  0  0  0  0  0  0  0  0
   43.1303  -52.3246   28.9352 C   0  0  0  0  0  0  0  0  0  0  0  0
   43.5189  -53.1892   31.1274 C   0  0  0  0  0  0  0  0  0  0  0  0
   44.4729  -53.4781   24.6722 C   0  0  0  0  0  0  0  0  0  0  0  0
   44.6515  -55.3753   31.5223 C   0  0  0  0  0  0  0  0  0  0  0  0
   44.8108  -53.6393   26.2068 C   0  0  0  0  0  0  0  0  0  0  0  0
   43.7529  -53.4045   28.3604 C   0  0  0  0  0  0  0  0  0  0  0  0
   44.2074  -54.4005   29.1750 C   0  0  0  0  0  0  0  0  0  0  0  0
   44.1147  -54.2909   30.5849 C   0  0  0  0  0  0  0  0  0  0  0  0
   46.2378  -53.9153   24.0872 H   0  0  0  0  0  0  0  0  0  0  0  0
   44.0960  -54.3495   33.0589 H   0  0  0  0  0  0  0  0  0  0  0  0
   45.1230  -56.1749   29.2107 H   0  0  0  0  0  0  0  0  0  0  0  0
   46.8636  -53.5946   26.0296 H   0  0  0  0  0  0  0  0  0  0  0  0
   46.2624  -53.2519   27.6174 H   0  0  0  0  0  0  0  0  0  0  0  0
   42.5936  -51.4080   30.7069 H   0  0  0  0  0  0  0  0  0  0  0  0
   42.7445  -51.6092   28.3527 H   0  0  0  0  0  0  0  0  0  0  0  0
   43.4410  -53.0972   32.1201 H   0  0  0  0  0  0  0  0  0  0  0  0
  1 11  1  0  0  0  0
  2 11  2  0  0  0  0
  3 12  1  0  0  0  0
  4 12  2  0  0  0  0
  5 15  1  0  0  0  0
  6 13  1  0  0  0  0
  6 14  1  0  0  0  0
  7 13  2  0  0  0  0
  8  9  2  0  0  0  0
  8 10  1  0  0  0  0
  9 14  1  0  0  0  0
 10 16  2  0  0  0  0
 11 13  1  0  0  0  0
 12 16  1  0  0  0  0
 14 15  2  0  0  0  0
 15 16  1  0  0  0  0
  1 17  1  0  0  0  0
  3 18  1  0  0  0  0
  5 19  1  0  0  0  0
  7 20  1  0  0  0  0
  7 21  1  0  0  0  0
  8 22  1  0  0  0  0
  9 23  1  0  0  0  0
 10 24  1  0  0  0  0
M  END
> <pdb_id>
3ST6

> <uniprot_id>
Q7D785

> <usmiles>
O=C(O)c1c(O)c(OC(C(=O)O)=C)ccc1

$$$$
RYJ_B_1
          07192416293D 1   1.00000     0.00000     0
            
 27 27  0  0  0  0            999 V2000
   -5.9576    0.8940   16.9731 S   0  0  0  0  0  0  0  0  0  0  0  0
   -0.5762    7.6759   14.7117 F   0  0  0  0  0  0  0  0  0  0  0  0
   -2.4300    8.4885   14.8487 F   0  0  0  0  0  0  0  0  0  0  0  0
   -1.1783    9.1245   13.1985 F   0  0  0  0  0  0  0  0  0  0  0  0
   -5.4513    0.9775   18.3268 O   0  0  0  0  0  0  0  0  0  0  0  0
   -5.3757   -0.3844   16.2567 O   0  0  0  0  0  0  0  0  0  0  0  0
   -4.6940    6.6718   13.7571 O   0  0  0  0  0  0  0  0  0  0  0  0
   -7.4237    0.9576   16.8137 N   0  0  0  0  0  0  0  0  0  0  0  0
   -2.6024    5.8785   13.7794 N   0  0  0  0  0  0  0  0  0  0  0  0
   -2.1193    7.0130   12.9756 C   0  0  0  0  0  0  0  0  0  0  0  0
   -4.0156    2.4728   15.9189 C   0  0  0  0  0  0  0  0  0  0  0  0
   -6.2572    3.3069   15.7505 C   0  0  0  0  0  0  0  0  0  0  0  0
   -3.5145    3.5962   15.1840 C   0  0  0  0  0  0  0  0  0  0  0  0
   -5.7311    4.4132   15.0977 C   0  0  0  0  0  0  0  0  0  0  0  0
   -5.4082    2.2657   16.1519 C   0  0  0  0  0  0  0  0  0  0  0  0
   -3.8843    5.7546   14.0678 C   0  0  0  0  0  0  0  0  0  0  0  0
   -4.3913    4.5592   14.8224 C   0  0  0  0  0  0  0  0  0  0  0  0
   -1.5928    8.0914   13.9297 C   0  0  0  0  0  0  0  0  0  0  0  0
   -7.6567    0.8910   15.8435 H   0  0  0  0  0  0  0  0  0  0  0  0
   -7.8462    0.1998   17.3108 H   0  0  0  0  0  0  0  0  0  0  0  0
   -1.9525    5.1944   14.1105 H   0  0  0  0  0  0  0  0  0  0  0  0
   -2.8698    7.3832   12.4283 H   0  0  0  0  0  0  0  0  0  0  0  0
   -1.3836    6.7091   12.3702 H   0  0  0  0  0  0  0  0  0  0  0  0
   -3.3637    1.8076   16.2828 H   0  0  0  0  0  0  0  0  0  0  0  0
   -7.2387    3.2527   15.9340 H   0  0  0  0  0  0  0  0  0  0  0  0
   -2.5457    3.6656   14.9460 H   0  0  0  0  0  0  0  0  0  0  0  0
   -6.3568    5.1397   14.8135 H   0  0  0  0  0  0  0  0  0  0  0  0
  1  5  2  0  0  0  0
  1  6  2  0  0  0  0
  1  8  1  0  0  0  0
  1 15  1  0  0  0  0
  2 18  1  0  0  0  0
  3 18  1  0  0  0  0
  4 18  1  0  0  0  0
  7 16  2  0  0  0  0
  9 10  1  0  0  0  0
  9 16  1  0  0  0  0
 10 18  1  0  0  0  0
 11 13  1  0  0  0  0
 11 15  2  0  0  0  0
 12 14  2  0  0  0  0
 12 15  1  0  0  0  0
 13 17  2  0  0  0  0
 14 17  1  0  0  0  0
 16 17  1  0  0  0  0
  8 19  1  0  0  0  0
  8 20  1  0  0  0  0
  9 21  1  0  0  0  0
 10 22  1  0  0  0  0
 10 23  1  0  0  0  0
 11 24  1  0  0  0  0
 12 25  1  0  0  0  0
 13 26  1  0  0  0  0
 14 27  1  0  0  0  0
M  END
> <pdb_id>
3RYJ

> <uniprot_id>
P00918

> <usmiles>
S(=O)(=O)(N)c1ccc(cc1)C(=O)NCC(F)(F)F

$$$$
RYS_A_301
          07202414183D 1   1.00000     0.00000     0
            
 45 47  0  0  0  0            999 V2000
   -4.8430   -5.1560   21.1110 F   0  0  0  0  0  0  0  0  0  0  0  0
   -3.7290   -4.7850   19.3220 F   0  0  0  0  0  0  0  0  0  0  0  0
   -2.9080   -4.2930   21.2040 F   0  0  0  0  0  0  0  0  0  0  0  0
  -10.6470   -1.8040   23.4290 O   0  0  0  0  0  0  0  0  0  0  0  0
  -10.4170   -0.2220   21.1560 O   0  0  0  0  0  0  0  0  0  0  0  0
   -4.8830    1.3190   16.0140 O   0  0  0  0  0  0  0  0  0  0  0  0
   -1.7600   -2.1910   18.5000 N   0  0  0  0  0  0  0  0  0  0  0  0
   -5.9560   -0.4890   20.2280 N   0  0  0  0  0  0  0  0  0  0  0  0
   -4.3850    0.3940   18.8170 N   0  0  0  0  0  0  0  0  0  0  0  0
   -7.5840   -1.1490   21.6910 N   0  0  0  0  0  0  0  0  0  0  0  0
   -2.6510    2.2060   16.1400 C   0  0  0  0  0  0  0  0  0  0  0  0
   -2.7800   -2.0880   18.9910 C   0  0  0  0  0  0  0  0  0  0  0  0
   -5.1060    1.6680   18.9300 C   0  0  0  0  0  0  0  0  0  0  0  0
   -8.3990   -2.0790   22.4800 C   0  0  0  0  0  0  0  0  0  0  0  0
   -8.1130    0.2190   21.6980 C   0  0  0  0  0  0  0  0  0  0  0  0
   -3.4500    0.4010   17.6940 C   0  0  0  0  0  0  0  0  0  0  0  0
   -5.8220   -2.7000   21.1260 C   0  0  0  0  0  0  0  0  0  0  0  0
   -4.3340    2.6040   18.0150 C   0  0  0  0  0  0  0  0  0  0  0  0
   -9.3900   -1.1650   23.1920 C   0  0  1  0  0  0  0  0  0  0  0  0
   -9.5230    0.0510   22.2350 C   0  0  2  0  0  0  0  0  0  0  0  0
   -6.4490   -1.4590   21.0020 C   0  0  0  0  0  0  0  0  0  0  0  0
   -4.8120   -0.6790   19.5630 C   0  0  0  0  0  0  0  0  0  0  0  0
   -4.0550   -1.8990   19.6220 C   0  0  0  0  0  0  0  0  0  0  0  0
   -4.6380   -2.9010   20.4240 C   0  0  0  0  0  0  0  0  0  0  0  0
   -4.0280   -4.2750   20.5130 C   0  0  0  0  0  0  0  0  0  0  0  0
   -3.8290    1.6540   16.9280 C   0  0  2  0  0  0  0  0  0  0  0  0
  -11.2614   -1.1681   23.8961 H   0  0  0  0  0  0  0  0  0  0  0  0
  -11.3450   -0.3323   21.5118 H   0  0  0  0  0  0  0  0  0  0  0  0
   -5.6627    0.9548   16.5234 H   0  0  0  0  0  0  0  0  0  0  0  0
   -1.9106    2.4426   16.7692 H   0  0  0  0  0  0  0  0  0  0  0  0
   -2.3300    1.5150   15.4924 H   0  0  0  0  0  0  0  0  0  0  0  0
   -2.9378    3.0234   15.6404 H   0  0  0  0  0  0  0  0  0  0  0  0
   -5.0943    2.0015   19.8727 H   0  0  0  0  0  0  0  0  0  0  0  0
   -6.0526    1.5701   18.6228 H   0  0  0  0  0  0  0  0  0  0  0  0
   -7.8358   -2.5780   23.1386 H   0  0  0  0  0  0  0  0  0  0  0  0
   -8.8743   -2.7294   21.8875 H   0  0  0  0  0  0  0  0  0  0  0  0
   -8.1256    0.6021   20.7744 H   0  0  0  0  0  0  0  0  0  0  0  0
   -7.5706    0.8089   22.2962 H   0  0  0  0  0  0  0  0  0  0  0  0
   -3.5664   -0.4141   17.1265 H   0  0  0  0  0  0  0  0  0  0  0  0
   -2.5046    0.4508   18.0160 H   0  0  0  0  0  0  0  0  0  0  0  0
   -6.2109   -3.4204   21.7002 H   0  0  0  0  0  0  0  0  0  0  0  0
   -3.5738    3.0377   18.4987 H   0  0  0  0  0  0  0  0  0  0  0  0
   -4.9306    3.3089   17.6313 H   0  0  0  0  0  0  0  0  0  0  0  0
   -8.9999   -0.8635   24.0620 H   0  0  0  0  0  0  0  0  0  0  0  0
   -9.8110    0.8669   22.7363 H   0  0  0  0  0  0  0  0  0  0  0  0
  1 25  1  0  0  0  0
  2 25  1  0  0  0  0
  3 25  1  0  0  0  0
  4 19  1  0  0  0  0
  5 20  1  0  0  0  0
  6 26  1  0  0  0  0
  7 12  3  0  0  0  0
  8 21  2  0  0  0  0
  8 22  1  0  0  0  0
  9 13  1  0  0  0  0
  9 16  1  0  0  0  0
  9 22  1  0  0  0  0
 10 14  1  0  0  0  0
 10 15  1  0  0  0  0
 10 21  1  0  0  0  0
 11 26  1  0  0  0  0
 12 23  1  0  0  0  0
 13 18  1  0  0  0  0
 14 19  1  0  0  0  0
 15 20  1  0  0  0  0
 16 26  1  0  0  0  0
 17 21  1  0  0  0  0
 17 24  2  0  0  0  0
 18 26  1  0  0  0  0
 19 20  1  0  0  0  0
 22 23  2  0  0  0  0
 23 24  1  0  0  0  0
 24 25  1  0  0  0  0
  4 27  1  0  0  0  0
  5 28  1  0  0  0  0
  6 29  1  0  0  0  0
 11 30  1  0  0  0  0
 11 31  1  0  0  0  0
 11 32  1  0  0  0  0
 13 33  1  0  0  0  0
 13 34  1  0  0  0  0
 14 35  1  0  0  0  0
 14 36  1  0  0  0  0
 15 37  1  0  0  0  0
 15 38  1  0  0  0  0
 16 39  1  0  0  0  0
 16 40  1  0  0  0  0
 17 41  1  0  0  0  0
 18 42  1  0  0  0  0
 18 43  1  0  0  0  0
 19 44  1  0  0  0  0
 20 45  1  0  0  0  0
M  END
> <pdb_id>
6W0N

> <uniprot_id>
P50053

> <usmiles>
FC(F)(F)c1c(C#N)c(nc(N2C[C@@H](O)[C@@H](O)C2)c1)N3C[C@@](O)(CC3)C

$$$$
RYV_B_1
          07192416293D 1   1.00000     0.00000     0
            
 27 27  0  0  0  0            999 V2000
   -5.9681    0.9399   16.9519 S   0  0  0  0  0  0  0  0  0  0  0  0
   -7.3832    1.0191   16.7971 O   0  0  0  0  0  0  0  0  0  0  0  0
   -5.4630    0.9963   18.3265 O   0  0  0  0  0  0  0  0  0  0  0  0
   -4.3763    6.7026   13.8319 O   0  0  0  0  0  0  0  0  0  0  0  0
   -5.3468   -0.3715   16.2153 N   0  0  0  0  0  0  0  0  0  0  0  0
   -2.3799    5.7121   13.7569 N   0  0  0  0  0  0  0  0  0  0  0  0
   -1.6017    7.9399   14.0928 C   0  0  0  0  0  0  0  0  0  0  0  0
   -1.7668    6.8438   13.0161 C   0  0  0  0  0  0  0  0  0  0  0  0
   -6.1485    3.3536   15.6524 C   0  0  0  0  0  0  0  0  0  0  0  0
   -3.9187    2.4112   15.9437 C   0  0  0  0  0  0  0  0  0  0  0  0
   -5.5964    4.4631   14.9915 C   0  0  0  0  0  0  0  0  0  0  0  0
   -3.3695    3.5046   15.2728 C   0  0  0  0  0  0  0  0  0  0  0  0
   -5.3226    2.3046   16.1020 C   0  0  0  0  0  0  0  0  0  0  0  0
   -3.6233    5.7112   14.0634 C   0  0  0  0  0  0  0  0  0  0  0  0
   -4.2064    4.5506   14.7952 C   0  0  0  0  0  0  0  0  0  0  0  0
   -4.3557   -0.3896   16.3473 H   0  0  0  0  0  0  0  0  0  0  0  0
   -5.7507   -1.1974   16.6087 H   0  0  0  0  0  0  0  0  0  0  0  0
   -1.8099    4.9345   14.0221 H   0  0  0  0  0  0  0  0  0  0  0  0
   -1.1900    8.7527   13.6806 H   0  0  0  0  0  0  0  0  0  0  0  0
   -2.4978    8.1747   14.4694 H   0  0  0  0  0  0  0  0  0  0  0  0
   -1.0106    7.6016   14.8250 H   0  0  0  0  0  0  0  0  0  0  0  0
   -2.3673    7.1550   12.2795 H   0  0  0  0  0  0  0  0  0  0  0  0
   -0.8801    6.5819   12.6351 H   0  0  0  0  0  0  0  0  0  0  0  0
   -7.1357    3.3079   15.8050 H   0  0  0  0  0  0  0  0  0  0  0  0
   -3.3198    1.7009   16.3137 H   0  0  0  0  0  0  0  0  0  0  0  0
   -6.1935    5.1933   14.6594 H   0  0  0  0  0  0  0  0  0  0  0  0
   -2.3814    3.5530   15.1270 H   0  0  0  0  0  0  0  0  0  0  0  0
  1  2  2  0  0  0  0
  1  3  2  0  0  0  0
  1  5  1  0  0  0  0
  1 13  1  0  0  0  0
  4 14  2  0  0  0  0
  6  8  1  0  0  0  0
  6 14  1  0  0  0  0
  7  8  1  0  0  0  0
  9 11  1  0  0  0  0
  9 13  2  0  0  0  0
 10 12  2  0  0  0  0
 10 13  1  0  0  0  0
 11 15  2  0  0  0  0
 12 15  1  0  0  0  0
 14 15  1  0  0  0  0
  5 16  1  0  0  0  0
  5 17  1  0  0  0  0
  6 18  1  0  0  0  0
  7 19  1  0  0  0  0
  7 20  1  0  0  0  0
  7 21  1  0  0  0  0
  8 22  1  0  0  0  0
  8 23  1  0  0  0  0
  9 24  1  0  0  0  0
 10 25  1  0  0  0  0
 11 26  1  0  0  0  0
 12 27  1  0  0  0  0
M  END
> <pdb_id>
3RYV

> <uniprot_id>
P00918

> <usmiles>
S(=O)(=O)(N)c1ccc(cc1)C(=O)NCC

$$$$
RYX_B_1
          07192416293D 1   1.00000     0.00000     0
            
 30 30  0  0  0  0            999 V2000
   -5.9340    0.8930   16.9831 S   0  0  0  0  0  0  0  0  0  0  0  0
   -0.9152    9.3528   12.5641 F   0  0  0  0  0  0  0  0  0  0  0  0
   -0.3884    9.6812   14.7066 F   0  0  0  0  0  0  0  0  0  0  0  0
   -2.4088    9.0870   14.3572 F   0  0  0  0  0  0  0  0  0  0  0  0
   -0.0352    6.8768   13.4476 F   0  0  0  0  0  0  0  0  0  0  0  0
   -1.3528    7.4364   15.2335 F   0  0  0  0  0  0  0  0  0  0  0  0
   -7.3888    0.9954   16.8530 O   0  0  0  0  0  0  0  0  0  0  0  0
   -5.4198    0.9746   18.3178 O   0  0  0  0  0  0  0  0  0  0  0  0
   -4.6229    6.6700   13.7809 O   0  0  0  0  0  0  0  0  0  0  0  0
   -5.3074   -0.3692   16.2535 N   0  0  0  0  0  0  0  0  0  0  0  0
   -2.5804    5.7929   13.6749 N   0  0  0  0  0  0  0  0  0  0  0  0
   -2.0946    6.9303   12.9324 C   0  0  0  0  0  0  0  0  0  0  0  0
   -3.9618    2.3897   15.8765 C   0  0  0  0  0  0  0  0  0  0  0  0
   -6.1975    3.3082   15.7248 C   0  0  0  0  0  0  0  0  0  0  0  0
   -3.5500    3.5130   15.1558 C   0  0  0  0  0  0  0  0  0  0  0  0
   -5.7772    4.4926   15.1011 C   0  0  0  0  0  0  0  0  0  0  0  0
   -5.3454    2.2427   16.1678 C   0  0  0  0  0  0  0  0  0  0  0  0
   -3.8637    5.7522   14.0645 C   0  0  0  0  0  0  0  0  0  0  0  0
   -4.4104    4.5766   14.8037 C   0  0  0  0  0  0  0  0  0  0  0  0
   -1.1759    9.0275   13.8485 C   0  0  0  0  0  0  0  0  0  0  0  0
   -1.0915    7.5407   13.9153 C   0  0  0  0  0  0  0  0  0  0  0  0
   -4.3161   -0.3722   16.3852 H   0  0  0  0  0  0  0  0  0  0  0  0
   -5.6975   -1.2051   16.6396 H   0  0  0  0  0  0  0  0  0  0  0  0
   -1.9635    5.0382   13.8981 H   0  0  0  0  0  0  0  0  0  0  0  0
   -2.8336    7.5703   12.7219 H   0  0  0  0  0  0  0  0  0  0  0  0
   -1.6470    6.6473   12.0842 H   0  0  0  0  0  0  0  0  0  0  0  0
   -3.2991    1.7052   16.1803 H   0  0  0  0  0  0  0  0  0  0  0  0
   -7.1800    3.1967   15.8740 H   0  0  0  0  0  0  0  0  0  0  0  0
   -2.5923    3.5674   14.8731 H   0  0  0  0  0  0  0  0  0  0  0  0
   -6.4142    5.2317   14.8821 H   0  0  0  0  0  0  0  0  0  0  0  0
  1  7  2  0  0  0  0
  1  8  2  0  0  0  0
  1 10  1  0  0  0  0
  1 17  1  0  0  0  0
  2 20  1  0  0  0  0
  3 20  1  0  0  0  0
  4 20  1  0  0  0  0
  5 21  1  0  0  0  0
  6 21  1  0  0  0  0
  9 18  2  0  0  0  0
 11 12  1  0  0  0  0
 11 18  1  0  0  0  0
 12 21  1  0  0  0  0
 13 15  1  0  0  0  0
 13 17  2  0  0  0  0
 14 16  2  0  0  0  0
 14 17  1  0  0  0  0
 15 19  2  0  0  0  0
 16 19  1  0  0  0  0
 18 19  1  0  0  0  0
 20 21  1  0  0  0  0
 10 22  1  0  0  0  0
 10 23  1  0  0  0  0
 11 24  1  0  0  0  0
 12 25  1  0  0  0  0
 12 26  1  0  0  0  0
 13 27  1  0  0  0  0
 14 28  1  0  0  0  0
 15 29  1  0  0  0  0
 16 30  1  0  0  0  0
M  END
> <pdb_id>
3RYX

> <uniprot_id>
P00918

> <usmiles>
S(=O)(=O)(N)c1ccc(cc1)C(=O)NCC(F)(F)C(F)(F)F

$$$$
RYY_A_262
          07192416293D 1   1.00000     0.00000     0
            
 30 30  0  0  0  0            999 V2000
   -5.9709    0.9118   16.9742 S   0  0  0  0  0  0  0  0  0  0  0  0
   -7.4179    0.9722   16.8139 O   0  0  0  0  0  0  0  0  0  0  0  0
   -5.4325    0.9910   18.3349 O   0  0  0  0  0  0  0  0  0  0  0  0
   -4.5931    6.6885   13.7967 O   0  0  0  0  0  0  0  0  0  0  0  0
   -5.3888   -0.3568   16.2154 N   0  0  0  0  0  0  0  0  0  0  0  0
   -2.5699    5.7726   13.6800 N   0  0  0  0  0  0  0  0  0  0  0  0
   -1.5283    8.2541   14.7308 C   0  0  0  0  0  0  0  0  0  0  0  0
   -2.0648    6.8789   12.8336 C   0  0  0  0  0  0  0  0  0  0  0  0
   -1.0008    7.5702   13.5230 C   0  0  0  0  0  0  0  0  0  0  0  0
   -6.2128    3.3494   15.7147 C   0  0  0  0  0  0  0  0  0  0  0  0
   -3.9620    2.4456   15.9222 C   0  0  0  0  0  0  0  0  0  0  0  0
   -5.7059    4.4624   15.0423 C   0  0  0  0  0  0  0  0  0  0  0  0
   -3.4500    3.5366   15.2408 C   0  0  0  0  0  0  0  0  0  0  0  0
   -5.3378    2.3214   16.1746 C   0  0  0  0  0  0  0  0  0  0  0  0
   -3.8212    5.7487   14.0287 C   0  0  0  0  0  0  0  0  0  0  0  0
   -4.3209    4.5515   14.7949 C   0  0  0  0  0  0  0  0  0  0  0  0
   -4.3962   -0.3885   16.3318 H   0  0  0  0  0  0  0  0  0  0  0  0
   -5.7956   -1.1879   16.5947 H   0  0  0  0  0  0  0  0  0  0  0  0
   -1.9505    5.0476   13.9814 H   0  0  0  0  0  0  0  0  0  0  0  0
   -0.7821    8.7282   15.1981 H   0  0  0  0  0  0  0  0  0  0  0  0
   -2.2266    8.9168   14.4603 H   0  0  0  0  0  0  0  0  0  0  0  0
   -1.9315    7.5779   15.3474 H   0  0  0  0  0  0  0  0  0  0  0  0
   -2.8092    7.5191   12.6437 H   0  0  0  0  0  0  0  0  0  0  0  0
   -1.7171    6.5072   11.9728 H   0  0  0  0  0  0  0  0  0  0  0  0
   -0.3015    6.9099   13.7967 H   0  0  0  0  0  0  0  0  0  0  0  0
   -0.5966    8.2488   12.9097 H   0  0  0  0  0  0  0  0  0  0  0  0
   -7.1968    3.2721   15.8751 H   0  0  0  0  0  0  0  0  0  0  0  0
   -3.3392    1.7312   16.2412 H   0  0  0  0  0  0  0  0  0  0  0  0
   -6.3201    5.1907   14.7386 H   0  0  0  0  0  0  0  0  0  0  0  0
   -2.4677    3.6044   15.0659 H   0  0  0  0  0  0  0  0  0  0  0  0
  1  2  2  0  0  0  0
  1  3  2  0  0  0  0
  1  5  1  0  0  0  0
  1 14  1  0  0  0  0
  4 15  2  0  0  0  0
  6  8  1  0  0  0  0
  6 15  1  0  0  0  0
  7  9  1  0  0  0  0
  8  9  1  0  0  0  0
 10 12  1  0  0  0  0
 10 14  2  0  0  0  0
 11 13  2  0  0  0  0
 11 14  1  0  0  0  0
 12 16  2  0  0  0  0
 13 16  1  0  0  0  0
 15 16  1  0  0  0  0
  5 17  1  0  0  0  0
  5 18  1  0  0  0  0
  6 19  1  0  0  0  0
  7 20  1  0  0  0  0
  7 21  1  0  0  0  0
  7 22  1  0  0  0  0
  8 23  1  0  0  0  0
  8 24  1  0  0  0  0
  9 25  1  0  0  0  0
  9 26  1  0  0  0  0
 10 27  1  0  0  0  0
 11 28  1  0  0  0  0
 12 29  1  0  0  0  0
 13 30  1  0  0  0  0
M  END
> <pdb_id>
3RYY

> <uniprot_id>
P00918

> <usmiles>
S(=O)(=O)(N)c1ccc(cc1)C(=O)NCCC

$$$$
RYZ_A_262
          07192416293D 1   1.00000     0.00000     0
            
 33 33  0  0  0  0            999 V2000
   -5.9671    0.9369   16.9791 S   0  0  0  0  0  0  0  0  0  0  0  0
   -0.0280   11.2119   13.3150 F   0  0  0  0  0  0  0  0  0  0  0  0
   -0.1969   10.1251   15.2228 F   0  0  0  0  0  0  0  0  0  0  0  0
   -1.8918   11.0270   14.4671 F   0  0  0  0  0  0  0  0  0  0  0  0
   -0.7705    7.6399   14.9381 F   0  0  0  0  0  0  0  0  0  0  0  0
   -2.5216    8.4843   14.7329 F   0  0  0  0  0  0  0  0  0  0  0  0
   -2.0048    9.6774   12.3303 F   0  0  0  0  0  0  0  0  0  0  0  0
   -0.0546    8.7933   12.5002 F   0  0  0  0  0  0  0  0  0  0  0  0
   -7.4362    0.9569   16.8534 O   0  0  0  0  0  0  0  0  0  0  0  0
   -5.4663    0.9838   18.3189 O   0  0  0  0  0  0  0  0  0  0  0  0
   -4.6669    6.6411   13.7223 O   0  0  0  0  0  0  0  0  0  0  0  0
   -5.3564   -0.3460   16.2124 N   0  0  0  0  0  0  0  0  0  0  0  0
   -2.5619    5.8363   13.7260 N   0  0  0  0  0  0  0  0  0  0  0  0
   -2.0010    6.9753   12.9700 C   0  0  0  0  0  0  0  0  0  0  0  0
   -4.0367    2.4250   15.9572 C   0  0  0  0  0  0  0  0  0  0  0  0
   -6.2932    3.3633   15.7066 C   0  0  0  0  0  0  0  0  0  0  0  0
   -3.5109    3.5692   15.2542 C   0  0  0  0  0  0  0  0  0  0  0  0
   -5.7532    4.4797   15.0004 C   0  0  0  0  0  0  0  0  0  0  0  0
   -5.4292    2.2853   16.1590 C   0  0  0  0  0  0  0  0  0  0  0  0
   -3.8527    5.7471   14.0354 C   0  0  0  0  0  0  0  0  0  0  0  0
   -4.3645    4.5835   14.7862 C   0  0  0  0  0  0  0  0  0  0  0  0
   -0.7548   10.4551   14.0855 C   0  0  0  0  0  0  0  0  0  0  0  0
   -1.5561    8.0912   13.9608 C   0  0  0  0  0  0  0  0  0  0  0  0
   -1.0644    9.2660   13.1851 C   0  0  0  0  0  0  0  0  0  0  0  0
   -4.3607   -0.3472   16.3056 H   0  0  0  0  0  0  0  0  0  0  0  0
   -5.7296   -1.1827   16.6131 H   0  0  0  0  0  0  0  0  0  0  0  0
   -1.9468    5.1035   14.0167 H   0  0  0  0  0  0  0  0  0  0  0  0
   -2.6968    7.3384   12.3503 H   0  0  0  0  0  0  0  0  0  0  0  0
   -1.2112    6.6664   12.4401 H   0  0  0  0  0  0  0  0  0  0  0  0
   -3.4121    1.7255   16.3043 H   0  0  0  0  0  0  0  0  0  0  0  0
   -7.2750    3.3223   15.8920 H   0  0  0  0  0  0  0  0  0  0  0  0
   -2.5259    3.6422   15.0976 H   0  0  0  0  0  0  0  0  0  0  0  0
   -6.3640    5.1924   14.6555 H   0  0  0  0  0  0  0  0  0  0  0  0
  1  9  2  0  0  0  0
  1 10  2  0  0  0  0
  1 12  1  0  0  0  0
  1 19  1  0  0  0  0
  2 22  1  0  0  0  0
  3 22  1  0  0  0  0
  4 22  1  0  0  0  0
  5 23  1  0  0  0  0
  6 23  1  0  0  0  0
  7 24  1  0  0  0  0
  8 24  1  0  0  0  0
 11 20  2  0  0  0  0
 13 14  1  0  0  0  0
 13 20  1  0  0  0  0
 14 23  1  0  0  0  0
 15 17  1  0  0  0  0
 15 19  2  0  0  0  0
 16 18  2  0  0  0  0
 16 19  1  0  0  0  0
 17 21  2  0  0  0  0
 18 21  1  0  0  0  0
 20 21  1  0  0  0  0
 22 24  1  0  0  0  0
 23 24  1  0  0  0  0
 12 25  1  0  0  0  0
 12 26  1  0  0  0  0
 13 27  1  0  0  0  0
 14 28  1  0  0  0  0
 14 29  1  0  0  0  0
 15 30  1  0  0  0  0
 16 31  1  0  0  0  0
 17 32  1  0  0  0  0
 18 33  1  0  0  0  0
M  END
> <pdb_id>
3RYZ

> <uniprot_id>
P00918

> <usmiles>
S(=O)(=O)(N)c1ccc(cc1)C(=O)NCC(F)(F)C(F)(F)C(F)(F)F

$$$$
RZ1_B_1
          07192416293D 1   1.00000     0.00000     0
            
 36 36  0  0  0  0            999 V2000
   -5.9952    0.9235   16.9693 S   0  0  0  0  0  0  0  0  0  0  0  0
    1.3438   10.0477   13.9038 F   0  0  0  0  0  0  0  0  0  0  0  0
    0.5384   12.0264   14.6447 F   0  0  0  0  0  0  0  0  0  0  0  0
   -0.0004   11.4236   12.5458 F   0  0  0  0  0  0  0  0  0  0  0  0
   -0.6270    7.4872   14.5736 F   0  0  0  0  0  0  0  0  0  0  0  0
   -2.4955    8.3527   14.7148 F   0  0  0  0  0  0  0  0  0  0  0  0
   -0.2972    9.8952   15.5469 F   0  0  0  0  0  0  0  0  0  0  0  0
   -1.9211   11.0054   14.3669 F   0  0  0  0  0  0  0  0  0  0  0  0
   -2.2591    9.6984   12.4301 F   0  0  0  0  0  0  0  0  0  0  0  0
   -0.2719    8.9092   12.2883 F   0  0  0  0  0  0  0  0  0  0  0  0
   -7.4587    0.9552   16.8347 O   0  0  0  0  0  0  0  0  0  0  0  0
   -5.4427    0.9923   18.3095 O   0  0  0  0  0  0  0  0  0  0  0  0
   -4.6979    6.6406   13.6551 O   0  0  0  0  0  0  0  0  0  0  0  0
   -5.3699   -0.3790   16.2409 N   0  0  0  0  0  0  0  0  0  0  0  0
   -2.6142    5.8015   13.6315 N   0  0  0  0  0  0  0  0  0  0  0  0
   -2.0849    6.9024   12.8565 C   0  0  0  0  0  0  0  0  0  0  0  0
   -3.9901    2.4195   15.8672 C   0  0  0  0  0  0  0  0  0  0  0  0
   -6.2856    3.3421   15.6852 C   0  0  0  0  0  0  0  0  0  0  0  0
   -3.5397    3.5425   15.1546 C   0  0  0  0  0  0  0  0  0  0  0  0
   -5.8041    4.4450   14.9913 C   0  0  0  0  0  0  0  0  0  0  0  0
   -5.3939    2.2913   16.1238 C   0  0  0  0  0  0  0  0  0  0  0  0
   -3.9000    5.7159   13.9602 C   0  0  0  0  0  0  0  0  0  0  0  0
   -4.4281    4.5461   14.7296 C   0  0  0  0  0  0  0  0  0  0  0  0
    0.3683   11.0128   13.7855 C   0  0  0  0  0  0  0  0  0  0  0  0
   -1.5896    7.9698   13.8373 C   0  0  0  0  0  0  0  0  0  0  0  0
   -0.8059   10.2647   14.2880 C   0  0  0  0  0  0  0  0  0  0  0  0
   -1.1997    9.2472   13.1535 C   0  0  0  0  0  0  0  0  0  0  0  0
   -4.3757   -0.3754   16.3477 H   0  0  0  0  0  0  0  0  0  0  0  0
   -5.7469   -1.2066   16.6568 H   0  0  0  0  0  0  0  0  0  0  0  0
   -1.9909    5.0790   13.9308 H   0  0  0  0  0  0  0  0  0  0  0  0
   -2.8019    7.2832   12.2727 H   0  0  0  0  0  0  0  0  0  0  0  0
   -1.3261    6.5844   12.2880 H   0  0  0  0  0  0  0  0  0  0  0  0
   -3.3459    1.7253   16.1883 H   0  0  0  0  0  0  0  0  0  0  0  0
   -7.2631    3.2737   15.8844 H   0  0  0  0  0  0  0  0  0  0  0  0
   -2.5659    3.6304   14.9449 H   0  0  0  0  0  0  0  0  0  0  0  0
   -6.4310    5.1597   14.6813 H   0  0  0  0  0  0  0  0  0  0  0  0
  1 11  2  0  0  0  0
  1 12  2  0  0  0  0
  1 14  1  0  0  0  0
  1 21  1  0  0  0  0
  2 24  1  0  0  0  0
  3 24  1  0  0  0  0
  4 24  1  0  0  0  0
  5 25  1  0  0  0  0
  6 25  1  0  0  0  0
  7 26  1  0  0  0  0
  8 26  1  0  0  0  0
  9 27  1  0  0  0  0
 10 27  1  0  0  0  0
 13 22  2  0  0  0  0
 15 16  1  0  0  0  0
 15 22  1  0  0  0  0
 16 25  1  0  0  0  0
 17 19  1  0  0  0  0
 17 21  2  0  0  0  0
 18 20  2  0  0  0  0
 18 21  1  0  0  0  0
 19 23  2  0  0  0  0
 20 23  1  0  0  0  0
 22 23  1  0  0  0  0
 24 26  1  0  0  0  0
 25 27  1  0  0  0  0
 26 27  1  0  0  0  0
 14 28  1  0  0  0  0
 14 29  1  0  0  0  0
 15 30  1  0  0  0  0
 16 31  1  0  0  0  0
 16 32  1  0  0  0  0
 17 33  1  0  0  0  0
 18 34  1  0  0  0  0
 19 35  1  0  0  0  0
 20 36  1  0  0  0  0
M  END
> <pdb_id>
3RZ1

> <uniprot_id>
P00918

> <usmiles>
S(=O)(=O)(N)c1ccc(cc1)C(=O)NCC(F)(F)C(F)(F)C(F)(F)C(F)(F)F

$$$$
RZ7_A_262
          07192416293D 1   1.00000     0.00000     0
            
 39 39  0  0  0  0            999 V2000
   -6.0222    0.8922   16.9677 S   0  0  0  0  0  0  0  0  0  0  0  0
    1.8378   11.2451   15.7150 F   0  0  0  0  0  0  0  0  0  0  0  0
    0.1141   12.5863   15.2082 F   0  0  0  0  0  0  0  0  0  0  0  0
    1.8957   12.5207   13.9824 F   0  0  0  0  0  0  0  0  0  0  0  0
   -0.5713    7.2593   14.4444 F   0  0  0  0  0  0  0  0  0  0  0  0
   -2.4069    8.2623   14.7248 F   0  0  0  0  0  0  0  0  0  0  0  0
    0.0625   11.3524   12.5620 F   0  0  0  0  0  0  0  0  0  0  0  0
    1.1306    9.5926   13.7942 F   0  0  0  0  0  0  0  0  0  0  0  0
   -2.2734    9.5346   12.3129 F   0  0  0  0  0  0  0  0  0  0  0  0
   -0.2549    8.8331   12.1368 F   0  0  0  0  0  0  0  0  0  0  0  0
   -0.3687    9.7893   15.4340 F   0  0  0  0  0  0  0  0  0  0  0  0
   -1.8836   11.0350   14.2116 F   0  0  0  0  0  0  0  0  0  0  0  0
   -7.4494    0.8826   16.8617 O   0  0  0  0  0  0  0  0  0  0  0  0
   -5.4736    0.9568   18.3264 O   0  0  0  0  0  0  0  0  0  0  0  0
   -4.7655    6.6739   13.7055 O   0  0  0  0  0  0  0  0  0  0  0  0
   -5.3943   -0.3939   16.2795 N   0  0  0  0  0  0  0  0  0  0  0  0
   -2.7307    5.7214   13.6133 N   0  0  0  0  0  0  0  0  0  0  0  0
   -2.2061    6.8541   12.8420 C   0  0  0  0  0  0  0  0  0  0  0  0
   -4.0341    2.4586   15.9044 C   0  0  0  0  0  0  0  0  0  0  0  0
   -6.2988    3.2321   15.6749 C   0  0  0  0  0  0  0  0  0  0  0  0
   -3.5924    3.5865   15.1722 C   0  0  0  0  0  0  0  0  0  0  0  0
   -5.8891    4.3518   14.9506 C   0  0  0  0  0  0  0  0  0  0  0  0
   -5.4206    2.2320   16.1357 C   0  0  0  0  0  0  0  0  0  0  0  0
   -4.0069    5.7077   13.9690 C   0  0  0  0  0  0  0  0  0  0  0  0
   -4.5033    4.5422   14.7309 C   0  0  0  0  0  0  0  0  0  0  0  0
    1.0784   11.7922   14.7203 C   0  0  0  0  0  0  0  0  0  0  0  0
   -1.5801    7.8490   13.8098 C   0  0  0  0  0  0  0  0  0  0  0  0
    0.4275   10.7735   13.7312 C   0  0  0  0  0  0  0  0  0  0  0  0
   -1.2111    9.1198   13.0625 C   0  0  0  0  0  0  0  0  0  0  0  0
   -0.8501   10.1766   14.1828 C   0  0  0  0  0  0  0  0  0  0  0  0
   -4.3985   -0.3654   16.3658 H   0  0  0  0  0  0  0  0  0  0  0  0
   -5.7444   -1.2163   16.7278 H   0  0  0  0  0  0  0  0  0  0  0  0
   -2.1289    4.9647   13.8688 H   0  0  0  0  0  0  0  0  0  0  0  0
   -2.9507    7.2944   12.3403 H   0  0  0  0  0  0  0  0  0  0  0  0
   -1.5144    6.5310   12.1961 H   0  0  0  0  0  0  0  0  0  0  0  0
   -3.3624    1.8113   16.2646 H   0  0  0  0  0  0  0  0  0  0  0  0
   -7.2729    3.1338   15.8787 H   0  0  0  0  0  0  0  0  0  0  0  0
   -2.6193    3.6977   14.9705 H   0  0  0  0  0  0  0  0  0  0  0  0
   -6.5582    5.0044   14.5951 H   0  0  0  0  0  0  0  0  0  0  0  0
  1 13  2  0  0  0  0
  1 14  2  0  0  0  0
  1 16  1  0  0  0  0
  1 23  1  0  0  0  0
  2 26  1  0  0  0  0
  3 26  1  0  0  0  0
  4 26  1  0  0  0  0
  5 27  1  0  0  0  0
  6 27  1  0  0  0  0
  7 28  1  0  0  0  0
  8 28  1  0  0  0  0
  9 29  1  0  0  0  0
 10 29  1  0  0  0  0
 11 30  1  0  0  0  0
 12 30  1  0  0  0  0
 15 24  2  0  0  0  0
 17 18  1  0  0  0  0
 17 24  1  0  0  0  0
 18 27  1  0  0  0  0
 19 21  1  0  0  0  0
 19 23  2  0  0  0  0
 20 22  2  0  0  0  0
 20 23  1  0  0  0  0
 21 25  2  0  0  0  0
 22 25  1  0  0  0  0
 24 25  1  0  0  0  0
 26 28  1  0  0  0  0
 27 29  1  0  0  0  0
 28 30  1  0  0  0  0
 29 30  1  0  0  0  0
 16 31  1  0  0  0  0
 16 32  1  0  0  0  0
 17 33  1  0  0  0  0
 18 34  1  0  0  0  0
 18 35  1  0  0  0  0
 19 36  1  0  0  0  0
 20 37  1  0  0  0  0
 21 38  1  0  0  0  0
 22 39  1  0  0  0  0
M  END
> <pdb_id>
3RZ7

> <uniprot_id>
P00918

> <usmiles>
S(=O)(=O)(N)c1ccc(cc1)C(=O)NCC(F)(F)C(F)(F)C(F)(F)C(F)(F)C(F)(F)F

$$$$
RZ8_A_262
          07192416293D 1   1.00000     0.00000     0
            
 39 39  0  0  0  0            999 V2000
   -5.9921    0.9187   16.9650 S   0  0  0  0  0  0  0  0  0  0  0  0
   -7.4323    0.9618   16.7970 O   0  0  0  0  0  0  0  0  0  0  0  0
   -5.4445    0.9782   18.3051 O   0  0  0  0  0  0  0  0  0  0  0  0
   -4.5326    6.6941   13.7218 O   0  0  0  0  0  0  0  0  0  0  0  0
   -5.3503   -0.3121   16.2534 N   0  0  0  0  0  0  0  0  0  0  0  0
   -2.5630    5.6448   13.5923 N   0  0  0  0  0  0  0  0  0  0  0  0
   -1.8593   11.9421   13.3301 C   0  0  0  0  0  0  0  0  0  0  0  0
   -2.0082    6.7325   12.7606 C   0  0  0  0  0  0  0  0  0  0  0  0
   -1.6338   10.7946   14.3102 C   0  0  0  0  0  0  0  0  0  0  0  0
   -0.8490    7.2254   13.5545 C   0  0  0  0  0  0  0  0  0  0  0  0
   -1.1230    9.5555   13.6076 C   0  0  0  0  0  0  0  0  0  0  0  0
   -1.3464    8.3186   14.4524 C   0  0  0  0  0  0  0  0  0  0  0  0
   -6.2579    3.3107   15.6664 C   0  0  0  0  0  0  0  0  0  0  0  0
   -4.0085    2.4473   15.8988 C   0  0  0  0  0  0  0  0  0  0  0  0
   -5.7771    4.4076   14.9587 C   0  0  0  0  0  0  0  0  0  0  0  0
   -3.4957    3.5184   15.1550 C   0  0  0  0  0  0  0  0  0  0  0  0
   -5.3880    2.2803   16.1757 C   0  0  0  0  0  0  0  0  0  0  0  0
   -3.8259    5.6975   13.9893 C   0  0  0  0  0  0  0  0  0  0  0  0
   -4.3805    4.5482   14.7517 C   0  0  0  0  0  0  0  0  0  0  0  0
   -4.3605   -0.3006   16.3956 H   0  0  0  0  0  0  0  0  0  0  0  0
   -5.7320   -1.1540   16.6346 H   0  0  0  0  0  0  0  0  0  0  0  0
   -1.9868    4.8709   13.8550 H   0  0  0  0  0  0  0  0  0  0  0  0
   -2.1957   12.7427   13.8260 H   0  0  0  0  0  0  0  0  0  0  0  0
   -0.9967   12.1684   12.8777 H   0  0  0  0  0  0  0  0  0  0  0  0
   -2.5333   11.6672   12.6444 H   0  0  0  0  0  0  0  0  0  0  0  0
   -2.6828    7.4582   12.6258 H   0  0  0  0  0  0  0  0  0  0  0  0
   -1.7100    6.3853   11.8715 H   0  0  0  0  0  0  0  0  0  0  0  0
   -2.4995   10.5783   14.7616 H   0  0  0  0  0  0  0  0  0  0  0  0
   -0.9630   11.0795   14.9949 H   0  0  0  0  0  0  0  0  0  0  0  0
   -0.1432    7.5817   12.9422 H   0  0  0  0  0  0  0  0  0  0  0  0
   -0.4696    6.4801   14.1027 H   0  0  0  0  0  0  0  0  0  0  0  0
   -0.1439    9.6593   13.4329 H   0  0  0  0  0  0  0  0  0  0  0  0
   -1.6071    9.4496   12.7390 H   0  0  0  0  0  0  0  0  0  0  0  0
   -0.8184    8.3590   15.3006 H   0  0  0  0  0  0  0  0  0  0  0  0
   -2.3153    8.1974   14.6682 H   0  0  0  0  0  0  0  0  0  0  0  0
   -7.2419    3.2343   15.8275 H   0  0  0  0  0  0  0  0  0  0  0  0
   -3.3679    1.7656   16.2523 H   0  0  0  0  0  0  0  0  0  0  0  0
   -6.4111    5.0919   14.5986 H   0  0  0  0  0  0  0  0  0  0  0  0
   -2.5258    3.5549   14.9141 H   0  0  0  0  0  0  0  0  0  0  0  0
  1  2  2  0  0  0  0
  1  3  2  0  0  0  0
  1  5  1  0  0  0  0
  1 17  1  0  0  0  0
  4 18  2  0  0  0  0
  6  8  1  0  0  0  0
  6 18  1  0  0  0  0
  7  9  1  0  0  0  0
  8 10  1  0  0  0  0
  9 11  1  0  0  0  0
 10 12  1  0  0  0  0
 11 12  1  0  0  0  0
 13 15  1  0  0  0  0
 13 17  2  0  0  0  0
 14 16  2  0  0  0  0
 14 17  1  0  0  0  0
 15 19  2  0  0  0  0
 16 19  1  0  0  0  0
 18 19  1  0  0  0  0
  5 20  1  0  0  0  0
  5 21  1  0  0  0  0
  6 22  1  0  0  0  0
  7 23  1  0  0  0  0
  7 24  1  0  0  0  0
  7 25  1  0  0  0  0
  8 26  1  0  0  0  0
  8 27  1  0  0  0  0
  9 28  1  0  0  0  0
  9 29  1  0  0  0  0
 10 30  1  0  0  0  0
 10 31  1  0  0  0  0
 11 32  1  0  0  0  0
 11 33  1  0  0  0  0
 12 34  1  0  0  0  0
 12 35  1  0  0  0  0
 13 36  1  0  0  0  0
 14 37  1  0  0  0  0
 15 38  1  0  0  0  0
 16 39  1  0  0  0  0
M  END
> <pdb_id>
3RZ8

> <uniprot_id>
P00918

> <usmiles>
S(=O)(=O)(N)c1ccc(cc1)C(=O)NCCCCCC

$$$$
RZB_A_708
          07202400553D 1   1.00000     0.00000     0
            
 42 44  0  0  0  0            999 V2000
   23.4215    1.7397    5.3185 Cl  0  0  0  0  0  0  0  0  0  0  0  0
   34.3480    4.1968    2.9810 O   0  0  0  0  0  0  0  0  0  0  0  0
   36.3219    5.1042    3.1524 O   0  0  0  0  0  0  0  0  0  0  0  0
   25.8544   -0.0722    0.2687 O   0  0  0  0  0  0  0  0  0  0  0  0
   34.4992    1.6177    1.5503 N   0  0  0  0  0  0  0  0  0  0  0  0
   32.9585    2.2797   -1.6639 N   0  0  0  0  0  0  0  0  0  0  0  0
   31.9012    1.6044   -1.9660 N   0  0  0  0  0  0  0  0  0  0  0  0
   31.7212    2.4703   -0.0270 N   0  0  0  0  0  0  0  0  0  0  0  0
   32.8547    2.8057   -0.5009 N   0  0  0  0  0  0  0  0  0  0  0  0
   33.8324    3.6117    0.1791 C   0  0  0  0  0  0  0  0  0  0  0  0
   24.3778   -0.1818    3.6178 C   0  0  0  0  0  0  0  0  0  0  0  0
   24.4065    2.0442    2.8472 C   0  0  0  0  0  0  0  0  0  0  0  0
   24.9658   -0.5868    2.4246 C   0  0  0  0  0  0  0  0  0  0  0  0
   25.0016    1.6653    1.6658 C   0  0  0  0  0  0  0  0  0  0  0  0
   28.0023    0.6075    0.9952 C   0  0  0  0  0  0  0  0  0  0  0  0
   27.5132    0.5964   -1.3347 C   0  0  0  0  0  0  0  0  0  0  0  0
   29.2818    1.0474    0.7548 C   0  0  0  0  0  0  0  0  0  0  0  0
   28.7937    1.0323   -1.5810 C   0  0  0  0  0  0  0  0  0  0  0  0
   36.0282    3.5034    1.4935 C   0  0  0  0  0  0  0  0  0  0  0  0
   35.5797    4.3326    2.6326 C   0  0  0  0  0  0  0  0  0  0  0  0
   24.1063    1.1489    3.8508 C   0  0  0  0  0  0  0  0  0  0  0  0
   25.2911    0.3197    1.4307 C   0  0  0  0  0  0  0  0  0  0  0  0
   27.1022    0.3891   -0.0305 C   0  0  0  0  0  0  0  0  0  0  0  0
   34.9553    2.7171    0.7193 C   0  0  1  0  0  0  0  0  0  0  0  0
   31.1078    1.7691   -0.8158 C   0  0  0  0  0  0  0  0  0  0  0  0
   29.7079    1.2559   -0.5425 C   0  0  0  0  0  0  0  0  0  0  0  0
   33.7659    3.5330    2.5114 H   0  0  0  0  0  0  0  0  0  0  0  0
   35.2868    1.0856    1.8609 H   0  0  0  0  0  0  0  0  0  0  0  0
   34.0084    1.9801    2.3426 H   0  0  0  0  0  0  0  0  0  0  0  0
   33.3959    4.0927    0.9393 H   0  0  0  0  0  0  0  0  0  0  0  0
   34.2167    4.2778   -0.4602 H   0  0  0  0  0  0  0  0  0  0  0  0
   24.1497   -0.8629    4.3135 H   0  0  0  0  0  0  0  0  0  0  0  0
   24.1827    3.0093    2.9832 H   0  0  0  0  0  0  0  0  0  0  0  0
   25.1586   -1.5575    2.2811 H   0  0  0  0  0  0  0  0  0  0  0  0
   25.2266    2.3533    0.9759 H   0  0  0  0  0  0  0  0  0  0  0  0
   27.7146    0.4409    1.9383 H   0  0  0  0  0  0  0  0  0  0  0  0
   26.8833    0.4304   -2.0934 H   0  0  0  0  0  0  0  0  0  0  0  0
   29.9043    1.2166    1.5190 H   0  0  0  0  0  0  0  0  0  0  0  0
   29.0801    1.1939   -2.5254 H   0  0  0  0  0  0  0  0  0  0  0  0
   36.6880    2.8404    1.8473 H   0  0  0  0  0  0  0  0  0  0  0  0
   36.4827    4.1107    0.8419 H   0  0  0  0  0  0  0  0  0  0  0  0
   35.4095    2.3115   -0.0739 H   0  0  0  0  0  0  0  0  0  0  0  0
  1 21  1  0  0  0  0
  2 20  1  0  0  0  0
  3 20  2  0  0  0  0
  4 22  1  0  0  0  0
  4 23  1  0  0  0  0
  5 24  1  0  0  0  0
  6  7  2  0  0  0  0
  6  9  1  0  0  0  0
  7 25  1  0  0  0  0
  8  9  1  0  0  0  0
  8 25  2  0  0  0  0
  9 10  1  0  0  0  0
 10 24  1  0  0  0  0
 11 13  2  0  0  0  0
 11 21  1  0  0  0  0
 12 14  1  0  0  0  0
 12 21  2  0  0  0  0
 13 22  1  0  0  0  0
 14 22  2  0  0  0  0
 15 17  1  0  0  0  0
 15 23  2  0  0  0  0
 16 18  2  0  0  0  0
 16 23  1  0  0  0  0
 17 26  2  0  0  0  0
 18 26  1  0  0  0  0
 19 20  1  0  0  0  0
 19 24  1  0  0  0  0
 25 26  1  0  0  0  0
  2 27  1  0  0  0  0
  5 28  1  0  0  0  0
  5 29  1  0  0  0  0
 10 30  1  0  0  0  0
 10 31  1  0  0  0  0
 11 32  1  0  0  0  0
 12 33  1  0  0  0  0
 13 34  1  0  0  0  0
 14 35  1  0  0  0  0
 15 36  1  0  0  0  0
 16 37  1  0  0  0  0
 17 38  1  0  0  0  0
 18 39  1  0  0  0  0
 19 40  1  0  0  0  0
 19 41  1  0  0  0  0
 24 42  1  0  0  0  0
M  END
> <pdb_id>
7AV0

> <uniprot_id>
P09960

> <usmiles>
Clc1ccc(Oc2ccc(cc2)C=3N=NN(N3)C[C@H](N)CC(=O)O)cc1

$$$$
RZE_A_708
          07202400553D 1   1.00000     0.00000     0
            
 41 43  0  0  0  0            999 V2000
   23.4395    1.8900    5.5226 Cl  0  0  0  0  0  0  0  0  0  0  0  0
   24.7236   -1.5626    2.2201 F   0  0  0  0  0  0  0  0  0  0  0  0
   36.5832    3.7185    3.1450 O   0  0  0  0  0  0  0  0  0  0  0  0
   34.5605    4.2279    3.4581 O   0  0  0  0  0  0  0  0  0  0  0  0
   25.7330    0.1463    0.4443 O   0  0  0  0  0  0  0  0  0  0  0  0
   34.3180    1.7785    1.6489 N   0  0  0  0  0  0  0  0  0  0  0  0
   32.7047    1.7252   -2.0074 N   0  0  0  0  0  0  0  0  0  0  0  0
   31.5330    1.2280   -2.0923 N   0  0  0  0  0  0  0  0  0  0  0  0
   31.7772    2.2481   -0.1884 N   0  0  0  0  0  0  0  0  0  0  0  0
   25.1562    1.8909    1.9123 N   0  0  0  0  0  0  0  0  0  0  0  0
   32.8448    2.3131   -0.8870 N   0  0  0  0  0  0  0  0  0  0  0  0
   24.6284    2.3024    3.0578 C   0  0  0  0  0  0  0  0  0  0  0  0
   34.0499    2.9274   -0.5297 C   0  0  0  0  0  0  0  0  0  0  0  0
   27.3178    0.7432   -1.2035 C   0  0  0  0  0  0  0  0  0  0  0  0
   27.9402    0.6256    1.0945 C   0  0  0  0  0  0  0  0  0  0  0  0
   28.6011    1.1189   -1.5137 C   0  0  0  0  0  0  0  0  0  0  0  0
   29.2388    0.9895    0.7971 C   0  0  0  0  0  0  0  0  0  0  0  0
   24.1647    0.0753    3.7034 C   0  0  0  0  0  0  0  0  0  0  0  0
   35.2558    4.0673    1.2511 C   0  0  0  0  0  0  0  0  0  0  0  0
   35.4435    4.0418    2.7030 C   0  0  0  0  0  0  0  0  0  0  0  0
   24.1022    1.4093    4.0021 C   0  0  0  0  0  0  0  0  0  0  0  0
   24.6941   -0.3256    2.5017 C   0  0  0  0  0  0  0  0  0  0  0  0
   25.1994    0.6008    1.6077 C   0  0  0  0  0  0  0  0  0  0  0  0
   26.9876    0.5167    0.1089 C   0  0  0  0  0  0  0  0  0  0  0  0
   30.9639    1.6268   -0.8786 C   0  0  0  0  0  0  0  0  0  0  0  0
   34.1340    3.0668    0.9676 C   0  0  2  0  0  0  0  0  0  0  0  0
   29.5698    1.2490   -0.5236 C   0  0  0  0  0  0  0  0  0  0  0  0
   37.3388    3.5585    2.5098 H   0  0  0  0  0  0  0  0  0  0  0  0
   34.3673    1.9278    2.6365 H   0  0  0  0  0  0  0  0  0  0  0  0
   33.5459    1.1781    1.4407 H   0  0  0  0  0  0  0  0  0  0  0  0
   24.6049    3.2826    3.2545 H   0  0  0  0  0  0  0  0  0  0  0  0
   34.0966    3.8338   -0.9497 H   0  0  0  0  0  0  0  0  0  0  0  0
   34.8143    2.3701   -0.8538 H   0  0  0  0  0  0  0  0  0  0  0  0
   26.6329    0.6361   -1.9242 H   0  0  0  0  0  0  0  0  0  0  0  0
   27.6882    0.4380    2.0439 H   0  0  0  0  0  0  0  0  0  0  0  0
   28.8435    1.3021   -2.4664 H   0  0  0  0  0  0  0  0  0  0  0  0
   29.9262    1.0642    1.5196 H   0  0  0  0  0  0  0  0  0  0  0  0
   23.8270   -0.6030    4.3560 H   0  0  0  0  0  0  0  0  0  0  0  0
   36.0964    3.7915    0.7849 H   0  0  0  0  0  0  0  0  0  0  0  0
   34.9921    4.9833    0.9486 H   0  0  0  0  0  0  0  0  0  0  0  0
   33.2756    3.4663    1.2892 H   0  0  0  0  0  0  0  0  0  0  0  0
  1 21  1  0  0  0  0
  2 22  1  0  0  0  0
  3 20  1  0  0  0  0
  4 20  2  0  0  0  0
  5 23  1  0  0  0  0
  5 24  1  0  0  0  0
  6 26  1  0  0  0  0
  7  8  2  0  0  0  0
  7 11  1  0  0  0  0
  8 25  1  0  0  0  0
  9 11  1  0  0  0  0
  9 25  2  0  0  0  0
 10 12  2  0  0  0  0
 10 23  1  0  0  0  0
 11 13  1  0  0  0  0
 12 21  1  0  0  0  0
 13 26  1  0  0  0  0
 14 16  1  0  0  0  0
 14 24  2  0  0  0  0
 15 17  2  0  0  0  0
 15 24  1  0  0  0  0
 16 27  2  0  0  0  0
 17 27  1  0  0  0  0
 18 21  2  0  0  0  0
 18 22  1  0  0  0  0
 19 20  1  0  0  0  0
 19 26  1  0  0  0  0
 22 23  2  0  0  0  0
 25 27  1  0  0  0  0
  3 28  1  0  0  0  0
  6 29  1  0  0  0  0
  6 30  1  0  0  0  0
 12 31  1  0  0  0  0
 13 32  1  0  0  0  0
 13 33  1  0  0  0  0
 14 34  1  0  0  0  0
 15 35  1  0  0  0  0
 16 36  1  0  0  0  0
 17 37  1  0  0  0  0
 18 38  1  0  0  0  0
 19 39  1  0  0  0  0
 19 40  1  0  0  0  0
 26 41  1  0  0  0  0
M  END
> <pdb_id>
7AUZ

> <uniprot_id>
P09960

> <usmiles>
Clc1cnc(Oc2ccc(cc2)C=3N=NN(N3)C[C@@H](N)CC(=O)O)c(F)c1

$$$$
RZW_B_233
          07202402453D 1   1.00000     0.00000     0
            
 36 37  0  0  0  0            999 V2000
   -5.9368   10.5305   14.0960 O   0  0  0  0  0  0  0  0  0  0  0  0
   -2.1921    4.4453   16.7238 O   0  0  0  0  0  0  0  0  0  0  0  0
   -2.1398    9.2931   16.9019 O   0  0  0  0  0  0  0  0  0  0  0  0
   -4.3918    4.4603   15.0877 O   0  0  0  0  0  0  0  0  0  0  0  0
   -4.4337    9.4393   15.3080 N   0  0  0  0  0  0  0  0  0  0  0  0
   -1.1779    4.4602   17.7648 C   0  0  0  0  0  0  0  0  0  0  0  0
   -0.9325    9.4027   17.6558 C   0  0  0  0  0  0  0  0  0  0  0  0
   -5.1208    3.7058   16.0357 C   0  0  0  0  0  0  0  0  0  0  0  0
   -3.9391   10.7111   15.7844 C   0  0  0  0  0  0  0  0  0  0  0  0
   -6.2038    5.7954   13.6637 C   0  0  0  0  0  0  0  0  0  0  0  0
   -2.1418    6.8720   16.8835 C   0  0  0  0  0  0  0  0  0  0  0  0
   -6.0876    8.2785   13.8728 C   0  0  0  0  0  0  0  0  0  0  0  0
   -5.5074    9.4299   14.4079 C   0  0  0  0  0  0  0  0  0  0  0  0
   -2.7033    5.6799   16.3962 C   0  0  0  0  0  0  0  0  0  0  0  0
   -2.6756    8.1150   16.5098 C   0  0  0  0  0  0  0  0  0  0  0  0
   -3.8634    5.6715   15.4929 C   0  0  0  0  0  0  0  0  0  0  0  0
   -3.8346    8.1957   15.6308 C   0  0  0  0  0  0  0  0  0  0  0  0
   -5.5737    7.0237   14.2073 C   0  0  0  0  0  0  0  0  0  0  0  0
   -4.4629    6.9635   15.1332 C   0  0  0  0  0  0  0  0  0  0  0  0
   -0.8642    3.5266   17.9379 H   0  0  0  0  0  0  0  0  0  0  0  0
   -0.4053    5.0221   17.4694 H   0  0  0  0  0  0  0  0  0  0  0  0
   -1.5665    4.8422   18.6033 H   0  0  0  0  0  0  0  0  0  0  0  0
   -0.7336   10.3675   17.8282 H   0  0  0  0  0  0  0  0  0  0  0  0
   -1.0388    8.9234   18.5270 H   0  0  0  0  0  0  0  0  0  0  0  0
   -0.1794    8.9941   17.1402 H   0  0  0  0  0  0  0  0  0  0  0  0
   -5.4430    2.8595   15.6115 H   0  0  0  0  0  0  0  0  0  0  0  0
   -4.5301    3.4857   16.8119 H   0  0  0  0  0  0  0  0  0  0  0  0
   -5.9049    4.2386   16.3540 H   0  0  0  0  0  0  0  0  0  0  0  0
   -3.1780   10.5578   16.4146 H   0  0  0  0  0  0  0  0  0  0  0  0
   -3.6245   11.2581   15.0086 H   0  0  0  0  0  0  0  0  0  0  0  0
   -4.6726   11.1972   16.2594 H   0  0  0  0  0  0  0  0  0  0  0  0
   -5.7138    4.9918   14.0017 H   0  0  0  0  0  0  0  0  0  0  0  0
   -7.1584    5.7520   13.9584 H   0  0  0  0  0  0  0  0  0  0  0  0
   -6.1639    5.8144   12.6647 H   0  0  0  0  0  0  0  0  0  0  0  0
   -1.3561    6.8346   17.5010 H   0  0  0  0  0  0  0  0  0  0  0  0
   -6.8682    8.3518   13.2522 H   0  0  0  0  0  0  0  0  0  0  0  0
  1 13  2  0  0  0  0
  2  6  1  0  0  0  0
  2 14  1  0  0  0  0
  3  7  1  0  0  0  0
  3 15  1  0  0  0  0
  4  8  1  0  0  0  0
  4 16  1  0  0  0  0
  5  9  1  0  0  0  0
  5 13  1  0  0  0  0
  5 17  1  0  0  0  0
 10 18  1  0  0  0  0
 11 14  2  0  0  0  0
 11 15  1  0  0  0  0
 12 13  1  0  0  0  0
 12 18  2  0  0  0  0
 14 16  1  0  0  0  0
 15 17  2  0  0  0  0
 16 19  2  0  0  0  0
 17 19  1  0  0  0  0
 18 19  1  0  0  0  0
  6 20  1  0  0  0  0
  6 21  1  0  0  0  0
  6 22  1  0  0  0  0
  7 23  1  0  0  0  0
  7 24  1  0  0  0  0
  7 25  1  0  0  0  0
  8 26  1  0  0  0  0
  8 27  1  0  0  0  0
  8 28  1  0  0  0  0
  9 29  1  0  0  0  0
  9 30  1  0  0  0  0
  9 31  1  0  0  0  0
 10 32  1  0  0  0  0
 10 33  1  0  0  0  0
 10 34  1  0  0  0  0
 11 35  1  0  0  0  0
 12 36  1  0  0  0  0
M  END
> <pdb_id>
3NHR

> <uniprot_id>
P16083

> <usmiles>
O=C1N(c2c(OC)cc(OC)c(OC)c2C(=C1)C)C

$$$$
S0A_A_603
          07202405383D 1   1.00000     0.00000     0
            
 31 32  0  0  0  0            999 V2000
   -4.4576    4.7085   31.3140 O   0  0  0  0  0  0  0  0  0  0  0  0
   -2.5415    5.6084   30.5050 N   0  0  0  0  0  0  0  0  0  0  0  0
   -2.3669    3.8916   31.9306 N   0  0  0  0  0  0  0  0  0  0  0  0
   -3.2810    3.2124   34.1237 C   0  0  0  0  0  0  0  0  0  0  0  0
   -4.5907    8.1596   27.9048 C   0  0  0  0  0  0  0  0  0  0  0  0
   -3.4324    7.5465   27.5025 C   0  0  0  0  0  0  0  0  0  0  0  0
   -5.0721    7.9322   29.1793 C   0  0  0  0  0  0  0  0  0  0  0  0
   -2.7802    6.7141   28.3778 C   0  0  0  0  0  0  0  0  0  0  0  0
   -4.4215    7.0932   30.0639 C   0  0  0  0  0  0  0  0  0  0  0  0
   -1.9154    0.7529   33.8771 C   0  0  0  0  0  0  0  0  0  0  0  0
   -0.7332    1.5841   33.3951 C   0  0  0  0  0  0  0  0  0  0  0  0
   -3.2265    4.7265   31.2721 C   0  0  0  0  0  0  0  0  0  0  0  0
   -3.2580    6.4764   29.6511 C   0  0  0  0  0  0  0  0  0  0  0  0
   -2.9336    2.7794   32.6718 C   0  0  2  0  0  0  0  0  0  0  0  0
   -2.0210    1.6119   32.6275 C   0  0  0  0  0  0  0  0  0  0  0  0
   -1.5428    5.6445   30.5426 H   0  0  0  0  0  0  0  0  0  0  0  0
   -1.3788    4.0425   31.9026 H   0  0  0  0  0  0  0  0  0  0  0  0
   -3.6696    2.4356   34.6193 H   0  0  0  0  0  0  0  0  0  0  0  0
   -2.4506    3.5217   34.5871 H   0  0  0  0  0  0  0  0  0  0  0  0
   -3.9464    3.9585   34.0989 H   0  0  0  0  0  0  0  0  0  0  0  0
   -5.0830    8.7664   27.2808 H   0  0  0  0  0  0  0  0  0  0  0  0
   -3.0679    7.7033   26.5846 H   0  0  0  0  0  0  0  0  0  0  0  0
   -5.9141    8.3869   29.4698 H   0  0  0  0  0  0  0  0  0  0  0  0
   -1.9350    6.2673   28.0849 H   0  0  0  0  0  0  0  0  0  0  0  0
   -4.7855    6.9365   30.9820 H   0  0  0  0  0  0  0  0  0  0  0  0
   -2.4066    1.0129   34.7084 H   0  0  0  0  0  0  0  0  0  0  0  0
   -1.8929   -0.2439   33.8011 H   0  0  0  0  0  0  0  0  0  0  0  0
    0.0696    1.1317   33.0067 H   0  0  0  0  0  0  0  0  0  0  0  0
   -0.4441    2.3885   33.9140 H   0  0  0  0  0  0  0  0  0  0  0  0
   -3.7863    2.5162   32.2206 H   0  0  0  0  0  0  0  0  0  0  0  0
   -2.0129    1.1095   31.7629 H   0  0  0  0  0  0  0  0  0  0  0  0
  1 12  2  0  0  0  0
  2 12  1  0  0  0  0
  2 13  1  0  0  0  0
  3 12  1  0  0  0  0
  3 14  1  0  0  0  0
  4 14  1  0  0  0  0
  5  6  2  0  0  0  0
  5  7  1  0  0  0  0
  6  8  1  0  0  0  0
  7  9  2  0  0  0  0
  8 13  2  0  0  0  0
  9 13  1  0  0  0  0
 10 11  1  0  0  0  0
 10 15  1  0  0  0  0
 11 15  1  0  0  0  0
 14 15  1  0  0  0  0
  2 16  1  0  0  0  0
  3 17  1  0  0  0  0
  4 18  1  0  0  0  0
  4 19  1  0  0  0  0
  4 20  1  0  0  0  0
  5 21  1  0  0  0  0
  6 22  1  0  0  0  0
  7 23  1  0  0  0  0
  8 24  1  0  0  0  0
  9 25  1  0  0  0  0
 10 26  1  0  0  0  0
 10 27  1  0  0  0  0
 11 28  1  0  0  0  0
 11 29  1  0  0  0  0
 14 30  1  0  0  0  0
 15 31  1  0  0  0  0
M  END
> <pdb_id>
3WK4

> <uniprot_id>
P34913

> <usmiles>
O=C(Nc1ccccc1)N[C@@H](C2CC2)C

$$$$
S0D_A_603
          07202405383D 1   1.00000     0.00000     0
            
 25 27  0  0  0  0            999 V2000
   -3.1029    2.9398   33.8981 N   0  0  0  0  0  0  0  0  0  0  0  0
   -2.5230    5.5020   29.9745 N   0  0  0  0  0  0  0  0  0  0  0  0
   -4.4716    5.9420   30.9624 N   0  0  0  0  0  0  0  0  0  0  0  0
   -2.2758    2.3463   32.9959 N   0  0  0  0  0  0  0  0  0  0  0  0
   -1.6250    1.1034   33.3554 C   0  0  0  0  0  0  0  0  0  0  0  0
   -3.5437    4.0468   33.2858 C   0  0  0  0  0  0  0  0  0  0  0  0
   -2.2000    3.0418   31.8114 C   0  0  0  0  0  0  0  0  0  0  0  0
   -3.6129    8.1455   27.6147 C   0  0  0  0  0  0  0  0  0  0  0  0
   -4.8079    8.4315   28.2318 C   0  0  0  0  0  0  0  0  0  0  0  0
   -2.7607    7.1889   28.1207 C   0  0  0  0  0  0  0  0  0  0  0  0
   -5.2256    7.7730   29.3788 C   0  0  0  0  0  0  0  0  0  0  0  0
   -3.3221    5.1811   30.9824 C   0  0  0  0  0  0  0  0  0  0  0  0
   -3.1689    6.5117   29.2631 C   0  0  0  0  0  0  0  0  0  0  0  0
   -4.3840    6.7986   29.8718 C   0  0  0  0  0  0  0  0  0  0  0  0
   -3.0114    4.1496   31.9718 C   0  0  0  0  0  0  0  0  0  0  0  0
   -1.6320    5.0990   29.7657 H   0  0  0  0  0  0  0  0  0  0  0  0
   -1.0542    0.7938   32.5949 H   0  0  0  0  0  0  0  0  0  0  0  0
   -1.0540    1.2477   34.1635 H   0  0  0  0  0  0  0  0  0  0  0  0
   -2.3175    0.4104   33.5560 H   0  0  0  0  0  0  0  0  0  0  0  0
   -4.1649    4.7129   33.6986 H   0  0  0  0  0  0  0  0  0  0  0  0
   -1.6676    2.7965   31.0012 H   0  0  0  0  0  0  0  0  0  0  0  0
   -3.3581    8.6406   26.7840 H   0  0  0  0  0  0  0  0  0  0  0  0
   -5.3964    9.1388   27.8400 H   0  0  0  0  0  0  0  0  0  0  0  0
   -1.8836    6.9899   27.6835 H   0  0  0  0  0  0  0  0  0  0  0  0
   -6.0927    7.9937   29.8254 H   0  0  0  0  0  0  0  0  0  0  0  0
  1  4  1  0  0  0  0
  1  6  2  0  0  0  0
  2 12  1  0  0  0  0
  2 13  1  0  0  0  0
  3 12  2  0  0  0  0
  3 14  1  0  0  0  0
  4  5  1  0  0  0  0
  4  7  1  0  0  0  0
  6 15  1  0  0  0  0
  7 15  2  0  0  0  0
  8  9  2  0  0  0  0
  8 10  1  0  0  0  0
  9 11  1  0  0  0  0
 10 13  2  0  0  0  0
 11 14  2  0  0  0  0
 12 15  1  0  0  0  0
 13 14  1  0  0  0  0
  2 16  1  0  0  0  0
  5 17  1  0  0  0  0
  5 18  1  0  0  0  0
  5 19  1  0  0  0  0
  6 20  1  0  0  0  0
  7 21  1  0  0  0  0
  8 22  1  0  0  0  0
  9 23  1  0  0  0  0
 10 24  1  0  0  0  0
 11 25  1  0  0  0  0
M  END
> <pdb_id>
3WK7

> <uniprot_id>
P34913

> <usmiles>
N=1N(C=C(C2=Nc3c(N2)cccc3)C1)C

$$$$
S0E_A_603
          07202405383D 1   1.00000     0.00000     0
            
 19 20  0  0  0  0            999 V2000
   -2.0908    9.2511   31.3017 S   0  0  0  0  0  0  0  0  0  0  0  0
   -6.4802    8.3446   26.9517 F   0  0  0  0  0  0  0  0  0  0  0  0
   -4.6350    7.6403   26.0977 F   0  0  0  0  0  0  0  0  0  0  0  0
   -5.3632    6.6962   27.8786 F   0  0  0  0  0  0  0  0  0  0  0  0
   -0.9023   11.4643   32.1851 N   0  0  0  0  0  0  0  0  0  0  0  0
   -2.2649   11.5345   30.2236 N   0  0  0  0  0  0  0  0  0  0  0  0
   -3.7175   11.1383   28.3035 C   0  0  0  0  0  0  0  0  0  0  0  0
   -4.4470   10.1807   27.6475 C   0  0  0  0  0  0  0  0  0  0  0  0
   -3.7859    8.4310   29.1983 C   0  0  0  0  0  0  0  0  0  0  0  0
   -1.6980   10.9197   31.2493 C   0  0  0  0  0  0  0  0  0  0  0  0
   -3.0613    9.3959   29.8698 C   0  0  0  0  0  0  0  0  0  0  0  0
   -3.0251   10.7176   29.4334 C   0  0  0  0  0  0  0  0  0  0  0  0
   -4.4674    8.8777   28.0760 C   0  0  0  0  0  0  0  0  0  0  0  0
   -5.2566    7.9103   27.2762 C   0  0  0  0  0  0  0  0  0  0  0  0
   -0.6787   12.4382   32.1462 H   0  0  0  0  0  0  0  0  0  0  0  0
   -0.5336   10.8956   32.9204 H   0  0  0  0  0  0  0  0  0  0  0  0
   -3.6852   12.0864   27.9871 H   0  0  0  0  0  0  0  0  0  0  0  0
   -4.9759   10.4378   26.8387 H   0  0  0  0  0  0  0  0  0  0  0  0
   -3.8170    7.4781   29.4998 H   0  0  0  0  0  0  0  0  0  0  0  0
  1 10  1  0  0  0  0
  1 11  1  0  0  0  0
  2 14  1  0  0  0  0
  3 14  1  0  0  0  0
  4 14  1  0  0  0  0
  5 10  1  0  0  0  0
  6 10  2  0  0  0  0
  6 12  1  0  0  0  0
  7  8  1  0  0  0  0
  7 12  2  0  0  0  0
  8 13  2  0  0  0  0
  9 11  2  0  0  0  0
  9 13  1  0  0  0  0
 11 12  1  0  0  0  0
 13 14  1  0  0  0  0
  5 15  1  0  0  0  0
  5 16  1  0  0  0  0
  7 17  1  0  0  0  0
  8 18  1  0  0  0  0
  9 19  1  0  0  0  0
M  END
> <pdb_id>
3WK8

> <uniprot_id>
P34913

> <usmiles>
S1c2c(N=C1N)ccc(c2)C(F)(F)F

$$$$
S0G_A_603
          07202405383D 1   1.00000     0.00000     0
            
 32 33  0  0  0  0            999 V2000
   -0.4287   13.1149   32.1195 O   0  0  0  0  0  0  0  0  0  0  0  0
   -1.6402    8.8317   31.7218 O   0  0  0  0  0  0  0  0  0  0  0  0
   -3.2303   11.8966   28.5136 N   0  0  0  0  0  0  0  0  0  0  0  0
   -1.0423   10.9891   31.8751 N   0  0  0  0  0  0  0  0  0  0  0  0
   -3.2221    9.3258   29.3807 N   0  0  0  0  0  0  0  0  0  0  0  0
   -1.8102   12.5954   30.3164 N   0  0  0  0  0  0  0  0  0  0  0  0
   -1.8591   13.9781   29.8217 C   0  0  0  0  0  0  0  0  0  0  0  0
   -4.5735    9.0205   29.9030 C   0  0  0  0  0  0  0  0  0  0  0  0
   -2.5358    8.1948   28.7406 C   0  0  0  0  0  0  0  0  0  0  0  0
   -5.4564    8.3288   28.8568 C   0  0  0  0  0  0  0  0  0  0  0  0
   -3.3872    7.5363   27.6606 C   0  0  0  0  0  0  0  0  0  0  0  0
   -4.7738    7.1721   28.1378 C   0  0  0  0  0  0  0  0  0  0  0  0
   -1.0592   12.2995   31.4674 C   0  0  0  0  0  0  0  0  0  0  0  0
   -1.7204    9.9647   31.2661 C   0  0  0  0  0  0  0  0  0  0  0  0
   -2.5066   11.5982   29.6354 C   0  0  0  0  0  0  0  0  0  0  0  0
   -2.5090   10.3213   30.0450 C   0  0  0  0  0  0  0  0  0  0  0  0
   -3.7266   11.1743   28.0319 H   0  0  0  0  0  0  0  0  0  0  0  0
   -3.2631   12.8370   28.1751 H   0  0  0  0  0  0  0  0  0  0  0  0
   -0.4923   10.7638   32.6793 H   0  0  0  0  0  0  0  0  0  0  0  0
   -2.4308   14.0189   29.0022 H   0  0  0  0  0  0  0  0  0  0  0  0
   -2.2458   14.5713   30.5278 H   0  0  0  0  0  0  0  0  0  0  0  0
   -0.9340   14.2852   29.5983 H   0  0  0  0  0  0  0  0  0  0  0  0
   -5.0122    9.8753   30.1803 H   0  0  0  0  0  0  0  0  0  0  0  0
   -4.4836    8.4191   30.6969 H   0  0  0  0  0  0  0  0  0  0  0  0
   -2.3193    7.5130   29.4394 H   0  0  0  0  0  0  0  0  0  0  0  0
   -1.6889    8.5264   28.3248 H   0  0  0  0  0  0  0  0  0  0  0  0
   -5.7262    9.0081   28.1743 H   0  0  0  0  0  0  0  0  0  0  0  0
   -6.2715    7.9763   29.3166 H   0  0  0  0  0  0  0  0  0  0  0  0
   -2.9262    6.7026   27.3564 H   0  0  0  0  0  0  0  0  0  0  0  0
   -3.4716    8.1700   26.8917 H   0  0  0  0  0  0  0  0  0  0  0  0
   -5.3284    6.9117   27.3476 H   0  0  0  0  0  0  0  0  0  0  0  0
   -4.7050    6.3976   28.7666 H   0  0  0  0  0  0  0  0  0  0  0  0
  1 13  2  0  0  0  0
  2 14  2  0  0  0  0
  3 15  1  0  0  0  0
  4 13  1  0  0  0  0
  4 14  1  0  0  0  0
  5  8  1  0  0  0  0
  5  9  1  0  0  0  0
  5 16  1  0  0  0  0
  6  7  1  0  0  0  0
  6 13  1  0  0  0  0
  6 15  1  0  0  0  0
  8 10  1  0  0  0  0
  9 11  1  0  0  0  0
 10 12  1  0  0  0  0
 11 12  1  0  0  0  0
 14 16  1  0  0  0  0
 15 16  2  0  0  0  0
  3 17  1  0  0  0  0
  3 18  1  0  0  0  0
  4 19  1  0  0  0  0
  7 20  1  0  0  0  0
  7 21  1  0  0  0  0
  7 22  1  0  0  0  0
  8 23  1  0  0  0  0
  8 24  1  0  0  0  0
  9 25  1  0  0  0  0
  9 26  1  0  0  0  0
 10 27  1  0  0  0  0
 10 28  1  0  0  0  0
 11 29  1  0  0  0  0
 11 30  1  0  0  0  0
 12 31  1  0  0  0  0
 12 32  1  0  0  0  0
M  END
> <pdb_id>
3WKA

> <uniprot_id>
P34913

> <usmiles>
O=C1N(C(N)=C(N2CCCCC2)C(=O)N1)C

$$$$
S0L_B_1001
          07212402493D 1   1.00000     0.00000     0
            
 52 57  0  0  0  0            999 V2000
   18.8450  -21.3160  -46.9240 O   0  0  0  0  0  0  0  0  0  0  0  0
   18.7440  -20.0530  -55.7850 N   0  0  0  0  0  0  0  0  0  0  0  0
   18.5970  -19.5610  -54.5110 N   0  0  0  0  0  0  0  0  0  0  0  0
   20.6350  -24.2990  -41.5720 N   0  0  0  0  0  0  0  0  0  0  0  0
   20.5390  -24.2320  -47.8850 N   0  0  0  0  0  0  0  0  0  0  0  0
   19.4960  -22.0840  -49.0610 N   0  0  0  0  0  0  0  0  0  0  0  0
   20.4340  -24.8070  -43.7320 N   0  0  0  0  0  0  0  0  0  0  0  0
   18.9980  -21.6960  -54.3960 N   0  0  0  0  0  0  0  0  0  0  0  0
   18.9860  -21.3280  -55.6940 C   0  0  0  0  0  0  0  0  0  0  0  0
   20.7090  -23.8370  -42.7860 C   0  0  0  0  0  0  0  0  0  0  0  0
   21.0600  -25.3240  -47.3160 C   0  0  0  0  0  0  0  0  0  0  0  0
   17.7600  -19.0280  -50.3800 C   0  0  0  0  0  0  0  0  0  0  0  0
   20.1740  -25.9660  -43.0360 C   0  0  0  0  0  0  0  0  0  0  0  0
   18.2820  -19.9380  -49.4580 C   0  0  0  0  0  0  0  0  0  0  0  0
   21.0490  -25.5670  -45.9570 C   0  0  0  0  0  0  0  0  0  0  0  0
   17.9330  -19.2480  -51.7480 C   0  0  0  0  0  0  0  0  0  0  0  0
   18.1790  -23.8120  -53.1750 C   0  0  0  0  0  0  0  0  0  0  0  0
   18.3470  -24.1500  -54.6180 C   0  0  0  0  0  0  0  0  0  0  0  0
   20.8300  -26.2820  -39.2880 C   0  0  0  0  0  0  0  0  0  0  0  0
   19.3510  -26.0540  -39.3370 C   0  0  0  0  0  0  0  0  0  0  0  0
   19.1320  -21.2760  -51.2750 C   0  0  0  0  0  0  0  0  0  0  0  0
   19.8990  -23.4760  -45.6850 C   0  0  0  0  0  0  0  0  0  0  0  0
   19.3840  -22.1300  -47.6750 C   0  0  0  0  0  0  0  0  0  0  0  0
   18.9730  -21.0760  -49.8990 C   0  0  0  0  0  0  0  0  0  0  0  0
   18.7500  -20.5540  -53.6570 C   0  0  0  0  0  0  0  0  0  0  0  0
   19.9830  -23.3300  -47.0520 C   0  0  0  0  0  0  0  0  0  0  0  0
   20.2950  -25.6140  -41.7170 C   0  0  0  0  0  0  0  0  0  0  0  0
   20.4530  -24.6190  -45.1310 C   0  0  0  0  0  0  0  0  0  0  0  0
   19.2000  -23.0550  -54.0050 C   0  0  0  0  0  0  0  0  0  0  0  0
   18.6240  -20.3780  -52.2170 C   0  0  0  0  0  0  0  0  0  0  0  0
   20.0800  -26.5530  -40.5600 C   0  0  0  0  0  0  0  0  0  0  0  0
   19.9913  -22.8319  -49.5029 H   0  0  0  0  0  0  0  0  0  0  0  0
   19.1397  -21.9419  -56.4683 H   0  0  0  0  0  0  0  0  0  0  0  0
   20.9383  -22.8896  -43.0091 H   0  0  0  0  0  0  0  0  0  0  0  0
   21.4837  -26.0067  -47.9114 H   0  0  0  0  0  0  0  0  0  0  0  0
   17.2635  -18.2207  -50.0611 H   0  0  0  0  0  0  0  0  0  0  0  0
   19.9472  -26.8653  -43.4099 H   0  0  0  0  0  0  0  0  0  0  0  0
   18.1624  -19.7773  -48.4783 H   0  0  0  0  0  0  0  0  0  0  0  0
   21.4565  -26.3980  -45.5783 H   0  0  0  0  0  0  0  0  0  0  0  0
   17.5596  -18.5917  -52.4036 H   0  0  0  0  0  0  0  0  0  0  0  0
   18.4851  -24.4553  -52.4733 H   0  0  0  0  0  0  0  0  0  0  0  0
   17.3480  -23.3505  -52.8644 H   0  0  0  0  0  0  0  0  0  0  0  0
   17.6281  -23.9146  -55.2721 H   0  0  0  0  0  0  0  0  0  0  0  0
   18.7653  -25.0194  -54.8809 H   0  0  0  0  0  0  0  0  0  0  0  0
   21.2001  -27.0430  -38.7552 H   0  0  0  0  0  0  0  0  0  0  0  0
   21.4535  -25.5021  -39.2329 H   0  0  0  0  0  0  0  0  0  0  0  0
   18.9875  -25.1226  -39.3166 H   0  0  0  0  0  0  0  0  0  0  0  0
   18.7342  -26.6635  -38.8390 H   0  0  0  0  0  0  0  0  0  0  0  0
   19.6241  -22.0862  -51.5936 H   0  0  0  0  0  0  0  0  0  0  0  0
   19.4557  -22.7844  -45.1148 H   0  0  0  0  0  0  0  0  0  0  0  0
   20.1525  -23.3078  -53.8351 H   0  0  0  0  0  0  0  0  0  0  0  0
   19.9416  -27.5155  -40.7934 H   0  0  0  0  0  0  0  0  0  0  0  0
  1 23  2  0  0  0  0
  2  3  1  0  0  0  0
  2  9  2  0  0  0  0
  3 25  2  0  0  0  0
  4 10  2  0  0  0  0
  4 27  1  0  0  0  0
  5 11  1  0  0  0  0
  5 26  2  0  0  0  0
  6 23  1  0  0  0  0
  6 24  1  0  0  0  0
  7 10  1  0  0  0  0
  7 13  1  0  0  0  0
  7 28  1  0  0  0  0
  8  9  1  0  0  0  0
  8 25  1  0  0  0  0
  8 29  1  0  0  0  0
 11 15  2  0  0  0  0
 12 14  1  0  0  0  0
 12 16  2  0  0  0  0
 13 27  2  0  0  0  0
 14 24  2  0  0  0  0
 15 28  1  0  0  0  0
 16 30  1  0  0  0  0
 17 18  1  0  0  0  0
 17 29  1  0  0  0  0
 18 29  1  0  0  0  0
 19 20  1  0  0  0  0
 19 31  1  0  0  0  0
 20 31  1  0  0  0  0
 21 24  1  0  0  0  0
 21 30  2  0  0  0  0
 22 26  1  0  0  0  0
 22 28  2  0  0  0  0
 23 26  1  0  0  0  0
 25 30  1  0  0  0  0
 27 31  1  0  0  0  0
  6 32  1  0  0  0  0
  9 33  1  0  0  0  0
 10 34  1  0  0  0  0
 11 35  1  0  0  0  0
 12 36  1  0  0  0  0
 13 37  1  0  0  0  0
 14 38  1  0  0  0  0
 15 39  1  0  0  0  0
 16 40  1  0  0  0  0
 17 41  1  0  0  0  0
 17 42  1  0  0  0  0
 18 43  1  0  0  0  0
 18 44  1  0  0  0  0
 19 45  1  0  0  0  0
 19 46  1  0  0  0  0
 20 47  1  0  0  0  0
 20 48  1  0  0  0  0
 21 49  1  0  0  0  0
 22 50  1  0  0  0  0
 29 51  1  0  0  0  0
 31 52  1  0  0  0  0
M  END
> <pdb_id>
6E2O

> <uniprot_id>
Q99683

> <usmiles>
O=C(Nc1cc(ccc1)C2=NN=CN2C3CC3)c4nccc(N5C=NC(=C5)C6CC6)c4

$$$$
S23_A_901
          07202400433D 1   1.00000     0.00000     0
            
 56 57  0  0  0  0            999 V2000
   72.1010   46.1770    7.3850 P   0  0  0  0  0  0  0  0  0  0  0  0
   71.8700   45.1120    6.4610 O   0  0  0  0  0  0  0  0  0  0  0  0
   73.4930   46.0300    7.7980 O   0  0  0  0  0  0  0  0  0  0  0  0
   76.0940   52.6740    4.3060 O   0  0  0  0  0  0  0  0  0  0  0  0
   76.7570   50.7600    5.1650 O   0  0  0  0  0  0  0  0  0  0  0  0
   72.0740   50.4400    5.5170 O   0  0  0  0  0  0  0  0  0  0  0  0
   71.4820   44.7800    9.4690 N   0  0  0  0  0  0  0  0  0  0  0  0
   74.2500   50.1710    5.9820 N   0  0  0  0  0  0  0  0  0  0  0  0
   71.1840   47.1000    9.7020 C   0  0  0  0  0  0  0  0  0  0  0  0
   71.8480   47.6150    6.7410 C   0  0  0  0  0  0  0  0  0  0  0  0
   71.1520   52.3490    9.4760 C   0  0  0  0  0  0  0  0  0  0  0  0
   75.7010   49.1300    1.6350 C   0  0  0  0  0  0  0  0  0  0  0  0
   71.4000   53.3550    8.5390 C   0  0  0  0  0  0  0  0  0  0  0  0
   72.0710   51.3010    9.6360 C   0  0  0  0  0  0  0  0  0  0  0  0
   75.8130   47.8810    2.2430 C   0  0  0  0  0  0  0  0  0  0  0  0
   74.5930   49.9470    1.8610 C   0  0  0  0  0  0  0  0  0  0  0  0
   72.5770   53.3280    7.7840 C   0  0  0  0  0  0  0  0  0  0  0  0
   73.2580   51.2820    8.8930 C   0  0  0  0  0  0  0  0  0  0  0  0
   74.7960   47.4400    3.0910 C   0  0  0  0  0  0  0  0  0  0  0  0
   73.5650   49.4970    2.7000 C   0  0  0  0  0  0  0  0  0  0  0  0
   74.7830   52.2830    7.1470 C   0  0  0  0  0  0  0  0  0  0  0  0
   72.5780   47.7440    4.2590 C   0  0  0  0  0  0  0  0  0  0  0  0
   71.1580   45.9650    8.6670 C   0  0  1  0  0  0  0  0  0  0  0  0
   75.9130   51.6740    5.0440 C   0  0  0  0  0  0  0  0  0  0  0  0
   73.0180   49.6960    5.7370 C   0  0  0  0  0  0  0  0  0  0  0  0
   74.6180   51.5710    5.8030 C   0  0  1  0  0  0  0  0  0  0  0  0
   73.5060   52.2970    7.9640 C   0  0  0  0  0  0  0  0  0  0  0  0
   73.6690   48.2390    3.3160 C   0  0  0  0  0  0  0  0  0  0  0  0
   72.8780   48.1790    5.7160 C   0  0  1  0  0  0  0  0  0  0  0  0
   70.9257   45.1528    6.1346 H   0  0  0  0  0  0  0  0  0  0  0  0
   75.3899   53.3811    4.2405 H   0  0  0  0  0  0  0  0  0  0  0  0
   70.8529   44.7198   10.2440 H   0  0  0  0  0  0  0  0  0  0  0  0
   71.3934   43.9602    8.9033 H   0  0  0  0  0  0  0  0  0  0  0  0
   74.9500   49.5331    6.3032 H   0  0  0  0  0  0  0  0  0  0  0  0
   70.5685   46.8762   10.4577 H   0  0  0  0  0  0  0  0  0  0  0  0
   72.1143   47.2111   10.0515 H   0  0  0  0  0  0  0  0  0  0  0  0
   70.8861   47.9515    9.2705 H   0  0  0  0  0  0  0  0  0  0  0  0
   71.7985   48.2690    7.4959 H   0  0  0  0  0  0  0  0  0  0  0  0
   70.9638   47.5756    6.2756 H   0  0  0  0  0  0  0  0  0  0  0  0
   70.3210   52.3758   10.0317 H   0  0  0  0  0  0  0  0  0  0  0  0
   76.4281   49.4463    1.0257 H   0  0  0  0  0  0  0  0  0  0  0  0
   70.7376   54.0927    8.4084 H   0  0  0  0  0  0  0  0  0  0  0  0
   71.8775   50.5641   10.2837 H   0  0  0  0  0  0  0  0  0  0  0  0
   76.6138   47.3066    2.0734 H   0  0  0  0  0  0  0  0  0  0  0  0
   74.5330   50.8463    1.4278 H   0  0  0  0  0  0  0  0  0  0  0  0
   72.7553   54.0479    7.1132 H   0  0  0  0  0  0  0  0  0  0  0  0
   73.9235   50.5476    9.0260 H   0  0  0  0  0  0  0  0  0  0  0  0
   74.8728   46.5496    3.5397 H   0  0  0  0  0  0  0  0  0  0  0  0
   72.7605   50.0692    2.8596 H   0  0  0  0  0  0  0  0  0  0  0  0
   75.0635   53.2275    6.9761 H   0  0  0  0  0  0  0  0  0  0  0  0
   75.4933   51.8142    7.6721 H   0  0  0  0  0  0  0  0  0  0  0  0
   72.5346   46.7459    4.2163 H   0  0  0  0  0  0  0  0  0  0  0  0
   71.6994   48.1282    3.9756 H   0  0  0  0  0  0  0  0  0  0  0  0
   70.2171   45.8676    8.3426 H   0  0  0  0  0  0  0  0  0  0  0  0
   73.8995   52.0298    5.2802 H   0  0  0  0  0  0  0  0  0  0  0  0
   73.7707   47.7987    5.9577 H   0  0  0  0  0  0  0  0  0  0  0  0
  1  2  1  0  0  0  0
  1  3  2  0  0  0  0
  1 10  1  0  0  0  0
  1 23  1  0  0  0  0
  4 24  1  0  0  0  0
  5 24  2  0  0  0  0
  6 25  2  0  0  0  0
  7 23  1  0  0  0  0
  8 25  1  0  0  0  0
  8 26  1  0  0  0  0
  9 23  1  0  0  0  0
 10 29  1  0  0  0  0
 11 13  2  0  0  0  0
 11 14  1  0  0  0  0
 12 15  2  0  0  0  0
 12 16  1  0  0  0  0
 13 17  1  0  0  0  0
 14 18  2  0  0  0  0
 15 19  1  0  0  0  0
 16 20  2  0  0  0  0
 17 27  2  0  0  0  0
 18 27  1  0  0  0  0
 19 28  2  0  0  0  0
 20 28  1  0  0  0  0
 21 26  1  0  0  0  0
 21 27  1  0  0  0  0
 22 28  1  0  0  0  0
 22 29  1  0  0  0  0
 24 26  1  0  0  0  0
 25 29  1  0  0  0  0
  2 30  1  0  0  0  0
  4 31  1  0  0  0  0
  7 32  1  0  0  0  0
  7 33  1  0  0  0  0
  8 34  1  0  0  0  0
  9 35  1  0  0  0  0
  9 36  1  0  0  0  0
  9 37  1  0  0  0  0
 10 38  1  0  0  0  0
 10 39  1  0  0  0  0
 11 40  1  0  0  0  0
 12 41  1  0  0  0  0
 13 42  1  0  0  0  0
 14 43  1  0  0  0  0
 15 44  1  0  0  0  0
 16 45  1  0  0  0  0
 17 46  1  0  0  0  0
 18 47  1  0  0  0  0
 19 48  1  0  0  0  0
 20 49  1  0  0  0  0
 21 50  1  0  0  0  0
 21 51  1  0  0  0  0
 22 52  1  0  0  0  0
 22 53  1  0  0  0  0
 23 54  1  0  0  0  0
 26 55  1  0  0  0  0
 29 56  1  0  0  0  0
M  END
> <pdb_id>
2ZXG

> <uniprot_id>
P04825

> <usmiles>
P(=O)(O)([C@@H](N)C)C[C@H](C(=O)N[C@H](C(=O)O)Cc1ccccc1)Cc2ccccc2

$$$$
S28_H_1
          07202416143D 1   1.00000     0.00000     0
            
 59 61  0  0  0  0            999 V2000
   10.7311  -16.8583   10.1477 S   0  0  0  0  0  0  0  0  0  0  0  0
   10.0237  -17.8205   10.9520 O   0  0  0  0  0  0  0  0  0  0  0  0
   11.9308  -17.4540    9.6290 O   0  0  0  0  0  0  0  0  0  0  0  0
   11.9694  -13.4494   15.6989 O   0  0  0  0  0  0  0  0  0  0  0  0
   11.8622  -13.5565   12.5809 O   0  0  0  0  0  0  0  0  0  0  0  0
   17.9112  -10.0913   10.7761 N   0  0  0  0  0  0  0  0  0  0  0  0
   18.2658  -12.2317   11.0121 N   0  0  0  0  0  0  0  0  0  0  0  0
   11.1450  -15.6171   11.0675 N   0  0  0  0  0  0  0  0  0  0  0  0
   12.4012  -11.3377   15.0578 N   0  0  0  0  0  0  0  0  0  0  0  0
    9.9595  -13.5739   13.8026 N   0  0  0  0  0  0  0  0  0  0  0  0
    9.7998  -16.2926    8.8790 C   0  0  0  0  0  0  0  0  0  0  0  0
   10.3901  -15.3852   12.2767 C   0  0  0  0  0  0  0  0  0  0  0  0
   13.7390  -11.2511   15.6350 C   0  0  0  0  0  0  0  0  0  0  0  0
    8.6855  -14.1596   14.2150 C   0  0  0  0  0  0  0  0  0  0  0  0
    6.5413  -13.9055   10.3821 C   0  0  0  0  0  0  0  0  0  0  0  0
    8.0967  -13.1544   15.1948 C   0  0  0  0  0  0  0  0  0  0  0  0
    7.6368  -13.2963    9.7746 C   0  0  0  0  0  0  0  0  0  0  0  0
    6.5012  -15.2874   10.4915 C   0  0  0  0  0  0  0  0  0  0  0  0
    8.6812  -14.0712    9.2866 C   0  0  0  0  0  0  0  0  0  0  0  0
    7.5496  -16.0624   10.0095 C   0  0  0  0  0  0  0  0  0  0  0  0
    9.1945  -12.1726   15.5584 C   0  0  0  0  0  0  0  0  0  0  0  0
   15.2400  -12.4433   13.9988 C   0  0  0  0  0  0  0  0  0  0  0  0
   15.2274  -10.0433   14.0254 C   0  0  0  0  0  0  0  0  0  0  0  0
   16.1814  -12.4296   12.9725 C   0  0  0  0  0  0  0  0  0  0  0  0
   16.1698  -10.0287   13.0061 C   0  0  0  0  0  0  0  0  0  0  0  0
   11.6162  -12.4156   15.1351 C   0  0  0  0  0  0  0  0  0  0  0  0
   17.6621  -11.1798   11.3655 C   0  0  0  0  0  0  0  0  0  0  0  0
   10.8004  -14.0799   12.9082 C   0  0  0  0  0  0  0  0  0  0  0  0
    8.6440  -15.4583    9.4010 C   0  0  0  0  0  0  0  0  0  0  0  0
   14.7600  -11.2511   14.5242 C   0  0  0  0  0  0  0  0  0  0  0  0
   10.2645  -12.3234   14.4859 C   0  0  1  0  0  0  0  0  0  0  0  0
   16.6528  -11.2158   12.4767 C   0  0  0  0  0  0  0  0  0  0  0  0
   17.4374   -9.2545   11.0502 H   0  0  0  0  0  0  0  0  0  0  0  0
   18.5824  -10.0661   10.0352 H   0  0  0  0  0  0  0  0  0  0  0  0
   18.0738  -13.0976   11.4741 H   0  0  0  0  0  0  0  0  0  0  0  0
   11.0676  -14.7929   10.5064 H   0  0  0  0  0  0  0  0  0  0  0  0
   12.0491  -10.5374   14.5725 H   0  0  0  0  0  0  0  0  0  0  0  0
    9.4386  -17.0697    8.3634 H   0  0  0  0  0  0  0  0  0  0  0  0
   10.3679  -15.7295    8.2788 H   0  0  0  0  0  0  0  0  0  0  0  0
   10.5613  -16.1310   12.9204 H   0  0  0  0  0  0  0  0  0  0  0  0
    9.4154  -15.3526   12.0558 H   0  0  0  0  0  0  0  0  0  0  0  0
   13.8963  -12.0364   16.2338 H   0  0  0  0  0  0  0  0  0  0  0  0
   13.8207  -10.4066   16.1643 H   0  0  0  0  0  0  0  0  0  0  0  0
    8.8313  -15.0427   14.6608 H   0  0  0  0  0  0  0  0  0  0  0  0
    8.0812  -14.2796   13.4273 H   0  0  0  0  0  0  0  0  0  0  0  0
    5.7891  -13.3502   10.7368 H   0  0  0  0  0  0  0  0  0  0  0  0
    7.7754  -13.6263   16.0159 H   0  0  0  0  0  0  0  0  0  0  0  0
    7.3329  -12.6696   14.7686 H   0  0  0  0  0  0  0  0  0  0  0  0
    7.6714  -12.3006    9.6898 H   0  0  0  0  0  0  0  0  0  0  0  0
    5.7130  -15.7292   10.9200 H   0  0  0  0  0  0  0  0  0  0  0  0
    9.4651  -13.6298    8.8501 H   0  0  0  0  0  0  0  0  0  0  0  0
    7.5166  -17.0577   10.1007 H   0  0  0  0  0  0  0  0  0  0  0  0
    9.5716  -12.3907   16.4585 H   0  0  0  0  0  0  0  0  0  0  0  0
    8.8374  -11.2385   15.5640 H   0  0  0  0  0  0  0  0  0  0  0  0
   14.9084  -13.3154   14.3588 H   0  0  0  0  0  0  0  0  0  0  0  0
   14.8847   -9.1821   14.4008 H   0  0  0  0  0  0  0  0  0  0  0  0
   16.5188  -13.2905   12.5917 H   0  0  0  0  0  0  0  0  0  0  0  0
   16.5029   -9.1552   12.6509 H   0  0  0  0  0  0  0  0  0  0  0  0
   10.2327  -11.5555   13.8461 H   0  0  0  0  0  0  0  0  0  0  0  0
  1  2  2  0  0  0  0
  1  3  2  0  0  0  0
  1  8  1  0  0  0  0
  1 11  1  0  0  0  0
  4 26  2  0  0  0  0
  5 28  2  0  0  0  0
  6 27  1  0  0  0  0
  7 27  2  0  0  0  0
  8 12  1  0  0  0  0
  9 13  1  0  0  0  0
  9 26  1  0  0  0  0
 10 14  1  0  0  0  0
 10 28  1  0  0  0  0
 10 31  1  0  0  0  0
 11 29  1  0  0  0  0
 12 28  1  0  0  0  0
 13 30  1  0  0  0  0
 14 16  1  0  0  0  0
 15 17  2  0  0  0  0
 15 18  1  0  0  0  0
 16 21  1  0  0  0  0
 17 19  1  0  0  0  0
 18 20  2  0  0  0  0
 19 29  2  0  0  0  0
 20 29  1  0  0  0  0
 21 31  1  0  0  0  0
 22 24  1  0  0  0  0
 22 30  2  0  0  0  0
 23 25  2  0  0  0  0
 23 30  1  0  0  0  0
 24 32  2  0  0  0  0
 25 32  1  0  0  0  0
 26 31  1  0  0  0  0
 27 32  1  0  0  0  0
  6 33  1  0  0  0  0
  6 34  1  0  0  0  0
  7 35  1  0  0  0  0
  8 36  1  0  0  0  0
  9 37  1  0  0  0  0
 11 38  1  0  0  0  0
 11 39  1  0  0  0  0
 12 40  1  0  0  0  0
 12 41  1  0  0  0  0
 13 42  1  0  0  0  0
 13 43  1  0  0  0  0
 14 44  1  0  0  0  0
 14 45  1  0  0  0  0
 15 46  1  0  0  0  0
 16 47  1  0  0  0  0
 16 48  1  0  0  0  0
 17 49  1  0  0  0  0
 18 50  1  0  0  0  0
 19 51  1  0  0  0  0
 20 52  1  0  0  0  0
 21 53  1  0  0  0  0
 21 54  1  0  0  0  0
 22 55  1  0  0  0  0
 23 56  1  0  0  0  0
 24 57  1  0  0  0  0
 25 58  1  0  0  0  0
 31 59  1  0  0  0  0
M  END
> <pdb_id>
3RLW

> <uniprot_id>
P00734

> <usmiles>
S(=O)(=O)(NCC(=O)N1[C@H](C(=O)NCc2ccc(cc2)C(=N)N)CCC1)Cc3ccccc3

$$$$
S29_H_1
          07202416143D 1   1.00000     0.00000     0
            
 62 64  0  0  0  0            999 V2000
   13.1365  -16.8684   13.0976 S   0  0  0  0  0  0  0  0  0  0  0  0
   12.3080  -17.6497   13.9826 O   0  0  0  0  0  0  0  0  0  0  0  0
   14.1744  -17.6350   12.4712 O   0  0  0  0  0  0  0  0  0  0  0  0
   11.9510  -13.4760   15.6384 O   0  0  0  0  0  0  0  0  0  0  0  0
   12.0112  -13.5523   12.4385 O   0  0  0  0  0  0  0  0  0  0  0  0
   18.2530  -12.2245   11.1843 N   0  0  0  0  0  0  0  0  0  0  0  0
   17.8863  -10.0323   10.8802 N   0  0  0  0  0  0  0  0  0  0  0  0
   12.2270  -16.2952   11.8951 N   0  0  0  0  0  0  0  0  0  0  0  0
   12.1648  -11.3808   14.9134 N   0  0  0  0  0  0  0  0  0  0  0  0
   10.1238  -13.9301   13.5743 N   0  0  0  0  0  0  0  0  0  0  0  0
   10.2629  -15.4563   10.7029 C   0  0  0  0  0  0  0  0  0  0  0  0
   13.8105  -15.5856   13.9507 C   0  0  0  0  0  0  0  0  0  0  0  0
   13.4432  -11.1095   15.5705 C   0  0  0  0  0  0  0  0  0  0  0  0
    8.9533  -14.7177   13.9801 C   0  0  0  0  0  0  0  0  0  0  0  0
    8.0797  -13.7202   14.7239 C   0  0  0  0  0  0  0  0  0  0  0  0
   16.6296  -16.9152   16.9173 C   0  0  0  0  0  0  0  0  0  0  0  0
   15.2800  -16.8267   17.2278 C   0  0  0  0  0  0  0  0  0  0  0  0
   17.0738  -16.5659   15.6458 C   0  0  0  0  0  0  0  0  0  0  0  0
    9.0148  -12.6242   15.2061 C   0  0  0  0  0  0  0  0  0  0  0  0
   14.3736  -16.3960   16.2608 C   0  0  0  0  0  0  0  0  0  0  0  0
   16.1694  -16.1342   14.6808 C   0  0  0  0  0  0  0  0  0  0  0  0
   15.2419  -12.2875   14.2571 C   0  0  0  0  0  0  0  0  0  0  0  0
   14.8510   -9.9757   13.8161 C   0  0  0  0  0  0  0  0  0  0  0  0
   16.2379  -12.3273   13.2869 C   0  0  0  0  0  0  0  0  0  0  0  0
   15.8489  -10.0176   12.8459 C   0  0  0  0  0  0  0  0  0  0  0  0
   11.5014  -12.5320   14.9987 C   0  0  0  0  0  0  0  0  0  0  0  0
   17.6218  -11.1712   11.5127 C   0  0  0  0  0  0  0  0  0  0  0  0
   11.0640  -14.2838   12.7099 C   0  0  0  0  0  0  0  0  0  0  0  0
   10.9416  -15.6317   12.0644 C   0  0  2  0  0  0  0  0  0  0  0  0
   10.1999  -12.6382   14.2453 C   0  0  1  0  0  0  0  0  0  0  0  0
   14.8158  -16.0506   14.9863 C   0  0  0  0  0  0  0  0  0  0  0  0
   14.5384  -11.1242   14.5286 C   0  0  0  0  0  0  0  0  0  0  0  0
   16.5545  -11.1778   12.5674 C   0  0  0  0  0  0  0  0  0  0  0  0
   18.0633  -13.0876   11.6525 H   0  0  0  0  0  0  0  0  0  0  0  0
   18.9393  -12.1902   10.4578 H   0  0  0  0  0  0  0  0  0  0  0  0
   17.3966   -9.1967   11.1291 H   0  0  0  0  0  0  0  0  0  0  0  0
   12.0465  -17.0786   11.3003 H   0  0  0  0  0  0  0  0  0  0  0  0
   11.7611  -10.6509   14.3618 H   0  0  0  0  0  0  0  0  0  0  0  0
    9.3814  -15.0004   10.8261 H   0  0  0  0  0  0  0  0  0  0  0  0
   10.8452  -14.9010   10.1092 H   0  0  0  0  0  0  0  0  0  0  0  0
   10.1187  -16.3529   10.2843 H   0  0  0  0  0  0  0  0  0  0  0  0
   13.0781  -15.0870   14.4142 H   0  0  0  0  0  0  0  0  0  0  0  0
   14.2717  -14.9767   13.3052 H   0  0  0  0  0  0  0  0  0  0  0  0
   13.6238  -11.8128   16.2580 H   0  0  0  0  0  0  0  0  0  0  0  0
   13.4109  -10.2126   16.0116 H   0  0  0  0  0  0  0  0  0  0  0  0
    9.2224  -15.4713   14.5799 H   0  0  0  0  0  0  0  0  0  0  0  0
    8.4755  -15.0822   13.1808 H   0  0  0  0  0  0  0  0  0  0  0  0
    7.6320  -14.1621   15.5012 H   0  0  0  0  0  0  0  0  0  0  0  0
    7.3863  -13.3409   14.1113 H   0  0  0  0  0  0  0  0  0  0  0  0
   17.2822  -17.2296   17.6066 H   0  0  0  0  0  0  0  0  0  0  0  0
   14.9588  -17.0714   18.1427 H   0  0  0  0  0  0  0  0  0  0  0  0
   18.0472  -16.6255   15.4247 H   0  0  0  0  0  0  0  0  0  0  0  0
    9.3206  -12.8127   16.1394 H   0  0  0  0  0  0  0  0  0  0  0  0
    8.5547  -11.7367   15.1790 H   0  0  0  0  0  0  0  0  0  0  0  0
   13.4006  -16.3345   16.4834 H   0  0  0  0  0  0  0  0  0  0  0  0
   16.4927  -15.8841   13.7682 H   0  0  0  0  0  0  0  0  0  0  0  0
   15.0282  -13.1181   14.7712 H   0  0  0  0  0  0  0  0  0  0  0  0
   14.3623   -9.1225   13.9982 H   0  0  0  0  0  0  0  0  0  0  0  0
   16.7264  -13.1810   13.1061 H   0  0  0  0  0  0  0  0  0  0  0  0
   16.0631   -9.1854   12.3345 H   0  0  0  0  0  0  0  0  0  0  0  0
   10.3594  -16.2076   12.6383 H   0  0  0  0  0  0  0  0  0  0  0  0
   10.1195  -11.8949   13.5812 H   0  0  0  0  0  0  0  0  0  0  0  0
  1  2  2  0  0  0  0
  1  3  2  0  0  0  0
  1  8  1  0  0  0  0
  1 12  1  0  0  0  0
  4 26  2  0  0  0  0
  5 28  2  0  0  0  0
  6 27  1  0  0  0  0
  7 27  2  0  0  0  0
  8 29  1  0  0  0  0
  9 13  1  0  0  0  0
  9 26  1  0  0  0  0
 10 14  1  0  0  0  0
 10 28  1  0  0  0  0
 10 30  1  0  0  0  0
 11 29  1  0  0  0  0
 12 31  1  0  0  0  0
 13 32  1  0  0  0  0
 14 15  1  0  0  0  0
 15 19  1  0  0  0  0
 16 17  2  0  0  0  0
 16 18  1  0  0  0  0
 17 20  1  0  0  0  0
 18 21  2  0  0  0  0
 19 30  1  0  0  0  0
 20 31  2  0  0  0  0
 21 31  1  0  0  0  0
 22 24  1  0  0  0  0
 22 32  2  0  0  0  0
 23 25  2  0  0  0  0
 23 32  1  0  0  0  0
 24 33  2  0  0  0  0
 25 33  1  0  0  0  0
 26 30  1  0  0  0  0
 27 33  1  0  0  0  0
 28 29  1  0  0  0  0
  6 34  1  0  0  0  0
  6 35  1  0  0  0  0
  7 36  1  0  0  0  0
  8 37  1  0  0  0  0
  9 38  1  0  0  0  0
 11 39  1  0  0  0  0
 11 40  1  0  0  0  0
 11 41  1  0  0  0  0
 12 42  1  0  0  0  0
 12 43  1  0  0  0  0
 13 44  1  0  0  0  0
 13 45  1  0  0  0  0
 14 46  1  0  0  0  0
 14 47  1  0  0  0  0
 15 48  1  0  0  0  0
 15 49  1  0  0  0  0
 16 50  1  0  0  0  0
 17 51  1  0  0  0  0
 18 52  1  0  0  0  0
 19 53  1  0  0  0  0
 19 54  1  0  0  0  0
 20 55  1  0  0  0  0
 21 56  1  0  0  0  0
 22 57  1  0  0  0  0
 23 58  1  0  0  0  0
 24 59  1  0  0  0  0
 25 60  1  0  0  0  0
 29 61  1  0  0  0  0
 30 62  1  0  0  0  0
M  END
> <pdb_id>
3RLY

> <uniprot_id>
P00734

> <usmiles>
S(=O)(=O)(N[C@@H](C(=O)N1[C@H](C(=O)NCc2ccc(cc2)C(=N)N)CCC1)C)Cc3ccccc3

$$$$
S2Q_A_1101
          07192420503D 1   1.00000     0.00000     0
            
 47 49  0  0  0  0            999 V2000
    2.3833  -37.8690   43.3651 S   0  0  0  0  0  0  0  0  0  0  0  0
    2.4520  -38.7024   42.1976 O   0  0  0  0  0  0  0  0  0  0  0  0
    1.9740  -38.4640   44.6004 O   0  0  0  0  0  0  0  0  0  0  0  0
    3.3640  -32.5828   43.4477 O   0  0  0  0  0  0  0  0  0  0  0  0
    1.1318  -28.5197   47.7843 O   0  0  0  0  0  0  0  0  0  0  0  0
    3.8413  -37.2600   43.6035 N   0  0  0  0  0  0  0  0  0  0  0  0
   -0.2562  -28.2729   47.5124 N   0  0  0  0  0  0  0  0  0  0  0  0
    2.8429  -29.8908   46.6521 N   0  0  0  0  0  0  0  0  0  0  0  0
    1.3562  -32.0291   42.5969 N   0  0  0  0  0  0  0  0  0  0  0  0
    0.4636  -32.5955   40.3921 C   0  0  0  0  0  0  0  0  0  0  0  0
   -3.0194  -29.0290   46.9879 C   0  0  0  0  0  0  0  0  0  0  0  0
   -2.1728  -27.7337   45.0047 C   0  0  0  0  0  0  0  0  0  0  0  0
    3.0389  -30.7134   45.6111 C   0  0  0  0  0  0  0  0  0  0  0  0
   -1.0003  -35.7478   42.9370 C   0  0  0  0  0  0  0  0  0  0  0  0
   -0.1082  -36.7577   43.2594 C   0  0  0  0  0  0  0  0  0  0  0  0
   -0.5445  -34.5581   42.4025 C   0  0  0  0  0  0  0  0  0  0  0  0
    1.6984  -35.3816   42.4677 C   0  0  0  0  0  0  0  0  0  0  0  0
    0.7749  -30.5449   44.9102 C   0  0  0  0  0  0  0  0  0  0  0  0
    1.2408  -36.5703   43.0082 C   0  0  0  0  0  0  0  0  0  0  0  0
    2.3020  -31.9789   43.5490 C   0  0  0  0  0  0  0  0  0  0  0  0
    1.6293  -29.3937   46.8133 C   0  0  0  0  0  0  0  0  0  0  0  0
   -0.5706  -28.9640   46.4785 C   0  0  0  0  0  0  0  0  0  0  0  0
    2.0401  -31.0811   44.7164 C   0  0  0  0  0  0  0  0  0  0  0  0
    0.8055  -34.3667   42.1503 C   0  0  0  0  0  0  0  0  0  0  0  0
    0.5552  -29.6851   45.9702 C   0  0  0  0  0  0  0  0  0  0  0  0
    1.3169  -33.0673   41.5656 C   0  0  2  0  0  0  0  0  0  0  0  0
   -1.9666  -28.9364   45.9040 C   0  0  0  0  0  0  0  0  0  0  0  0
    4.2000  -36.3868   43.2323 H   0  0  0  0  0  0  0  0  0  0  0  0
    4.5680  -37.7018   44.1578 H   0  0  0  0  0  0  0  0  0  0  0  0
    0.6689  -31.2983   42.4848 H   0  0  0  0  0  0  0  0  0  0  0  0
   -0.4017  -32.0059   40.6889 H   0  0  0  0  0  0  0  0  0  0  0  0
    0.0787  -33.4192   39.7940 H   0  0  0  0  0  0  0  0  0  0  0  0
    1.0269  -31.9863   39.6919 H   0  0  0  0  0  0  0  0  0  0  0  0
   -3.0517  -28.1216   47.5908 H   0  0  0  0  0  0  0  0  0  0  0  0
   -2.8403  -29.8602   47.6677 H   0  0  0  0  0  0  0  0  0  0  0  0
   -4.0178  -29.1675   46.5738 H   0  0  0  0  0  0  0  0  0  0  0  0
   -1.9838  -26.7945   45.5231 H   0  0  0  0  0  0  0  0  0  0  0  0
   -3.1855  -27.6790   44.6088 H   0  0  0  0  0  0  0  0  0  0  0  0
   -1.5036  -27.7649   44.1463 H   0  0  0  0  0  0  0  0  0  0  0  0
    4.0661  -31.0689   45.5588 H   0  0  0  0  0  0  0  0  0  0  0  0
   -2.0624  -35.8820   43.1342 H   0  0  0  0  0  0  0  0  0  0  0  0
   -0.4719  -37.6974   43.6734 H   0  0  0  0  0  0  0  0  0  0  0  0
   -1.2680  -33.7756   42.1825 H   0  0  0  0  0  0  0  0  0  0  0  0
    2.7584  -35.2506   42.2616 H   0  0  0  0  0  0  0  0  0  0  0  0
   -0.0675  -30.7853   44.2683 H   0  0  0  0  0  0  0  0  0  0  0  0
    2.3265  -33.2163   41.1894 H   0  0  0  0  0  0  0  0  0  0  0  0
   -2.0556  -29.8274   45.2852 H   0  0  0  0  0  0  0  0  0  0  0  0
  1  2  2  0  0  0  0
  1  3  2  0  0  0  0
  1  6  1  0  0  0  0
  1 19  1  0  0  0  0
  4 20  2  0  0  0  0
  5  7  1  0  0  0  0
  5 21  1  0  0  0  0
  6 28  1  0  0  0  0
  6 29  1  0  0  0  0
  7 22  2  0  0  0  0
  8 13  1  0  0  0  0
  8 21  2  0  0  0  0
  9 20  1  0  0  0  0
  9 26  1  0  0  0  0
  9 30  1  0  0  0  0
 10 26  1  0  0  0  0
 10 31  1  0  0  0  0
 10 32  1  0  0  0  0
 10 33  1  0  0  0  0
 11 27  1  0  0  0  0
 11 34  1  0  0  0  0
 11 35  1  0  0  0  0
 11 36  1  0  0  0  0
 12 27  1  0  0  0  0
 12 37  1  0  0  0  0
 12 38  1  0  0  0  0
 12 39  1  0  0  0  0
 13 23  2  0  0  0  0
 13 40  1  0  0  0  0
 14 15  2  0  0  0  0
 14 16  1  0  0  0  0
 14 41  1  0  0  0  0
 15 19  1  0  0  0  0
 15 42  1  0  0  0  0
 16 24  2  0  0  0  0
 16 43  1  0  0  0  0
 17 19  2  0  0  0  0
 17 24  1  0  0  0  0
 17 44  1  0  0  0  0
 18 23  1  0  0  0  0
 18 25  2  0  0  0  0
 18 45  1  0  0  0  0
 20 23  1  0  0  0  0
 21 25  1  0  0  0  0
 22 25  1  0  0  0  0
 22 27  1  0  0  0  0
 24 26  1  0  0  0  0
 26 46  1  0  0  0  0
 27 47  1  0  0  0  0
M  END
> <pdb_id>
7AVI

> <uniprot_id>
Q07889

> <usmiles>
S(=O)(=O)(N)c1cc(ccc1)[C@H](NC(=O)c2cnc3ON=C(c3c2)C(C)C)C

$$$$
S2W_A_1102
          07192420503D 1   1.00000     0.00000     0
            
 42 44  0  0  0  0            999 V2000
    3.6537  -37.1642   43.6982 F   0  0  0  0  0  0  0  0  0  0  0  0
    2.6166  -38.3999   42.3363 F   0  0  0  0  0  0  0  0  0  0  0  0
    2.1474  -38.4492   44.3987 F   0  0  0  0  0  0  0  0  0  0  0  0
   -2.1859  -36.0248   43.4478 N   0  0  0  0  0  0  0  0  0  0  0  0
    3.2954  -31.6566   43.6791 N   0  0  0  0  0  0  0  0  0  0  0  0
    4.0002  -30.1226   45.3768 N   0  0  0  0  0  0  0  0  0  0  0  0
    1.0780  -31.9416   43.0753 N   0  0  0  0  0  0  0  0  0  0  0  0
    5.6480  -31.4426   44.1926 C   0  0  0  0  0  0  0  0  0  0  0  0
    0.6375  -32.4783   40.7512 C   0  0  0  0  0  0  0  0  0  0  0  0
    1.0917  -28.4185   46.7855 C   0  0  0  0  0  0  0  0  0  0  0  0
    0.0552  -28.9753   46.0593 C   0  0  0  0  0  0  0  0  0  0  0  0
    2.3885  -28.7995   46.5602 C   0  0  0  0  0  0  0  0  0  0  0  0
    0.3062  -29.9210   45.1088 C   0  0  0  0  0  0  0  0  0  0  0  0
   -0.4218  -34.5349   42.7709 C   0  0  0  0  0  0  0  0  0  0  0  0
    0.0961  -36.7847   43.4219 C   0  0  0  0  0  0  0  0  0  0  0  0
    1.8492  -35.2925   42.7444 C   0  0  0  0  0  0  0  0  0  0  0  0
    4.2238  -31.0538   44.4353 C   0  0  0  0  0  0  0  0  0  0  0  0
    2.0231  -31.3236   43.8455 C   0  0  0  0  0  0  0  0  0  0  0  0
   -0.8552  -35.7868   43.2071 C   0  0  0  0  0  0  0  0  0  0  0  0
    2.6900  -29.7684   45.5717 C   0  0  0  0  0  0  0  0  0  0  0  0
    0.9204  -34.2863   42.4992 C   0  0  0  0  0  0  0  0  0  0  0  0
    1.6316  -30.3505   44.8363 C   0  0  0  0  0  0  0  0  0  0  0  0
    1.4473  -36.5427   43.1979 C   0  0  0  0  0  0  0  0  0  0  0  0
    1.3598  -32.9153   42.0241 C   0  0  2  0  0  0  0  0  0  0  0  0
    2.4572  -37.6290   43.4058 C   0  0  0  0  0  0  0  0  0  0  0  0
   -2.4928  -36.8773   43.9044 H   0  0  0  0  0  0  0  0  0  0  0  0
   -2.8965  -35.3536   43.1739 H   0  0  0  0  0  0  0  0  0  0  0  0
    0.1029  -31.7192   43.2374 H   0  0  0  0  0  0  0  0  0  0  0  0
    6.3153  -30.6482   44.5222 H   0  0  0  0  0  0  0  0  0  0  0  0
    5.8535  -31.6147   43.1370 H   0  0  0  0  0  0  0  0  0  0  0  0
    5.9362  -32.3455   44.7284 H   0  0  0  0  0  0  0  0  0  0  0  0
   -0.2065  -33.1097   40.4775 H   0  0  0  0  0  0  0  0  0  0  0  0
    1.3078  -32.4676   39.8936 H   0  0  0  0  0  0  0  0  0  0  0  0
    0.2477  -31.4674   40.8493 H   0  0  0  0  0  0  0  0  0  0  0  0
    0.8710  -27.6704   47.5446 H   0  0  0  0  0  0  0  0  0  0  0  0
   -0.9698  -28.6646   46.2591 H   0  0  0  0  0  0  0  0  0  0  0  0
    3.2050  -28.3577   47.1273 H   0  0  0  0  0  0  0  0  0  0  0  0
   -0.5210  -30.3496   44.5452 H   0  0  0  0  0  0  0  0  0  0  0  0
   -1.1613  -33.7546   42.5958 H   0  0  0  0  0  0  0  0  0  0  0  0
   -0.2346  -37.7607   43.7735 H   0  0  0  0  0  0  0  0  0  0  0  0
    2.8997  -35.0944   42.5404 H   0  0  0  0  0  0  0  0  0  0  0  0
    2.4239  -32.9491   41.7953 H   0  0  0  0  0  0  0  0  0  0  0  0
  1 25  1  0  0  0  0
  2 25  1  0  0  0  0
  3 25  1  0  0  0  0
  4 19  1  0  0  0  0
  4 26  1  0  0  0  0
  4 27  1  0  0  0  0
  5 17  2  0  0  0  0
  5 18  1  0  0  0  0
  6 17  1  0  0  0  0
  6 20  2  0  0  0  0
  7 18  1  0  0  0  0
  7 24  1  0  0  0  0
  7 28  1  0  0  0  0
  8 17  1  0  0  0  0
  8 29  1  0  0  0  0
  8 30  1  0  0  0  0
  8 31  1  0  0  0  0
  9 24  1  0  0  0  0
  9 32  1  0  0  0  0
  9 33  1  0  0  0  0
  9 34  1  0  0  0  0
 10 11  1  0  0  0  0
 10 12  2  0  0  0  0
 10 35  1  0  0  0  0
 11 13  2  0  0  0  0
 11 36  1  0  0  0  0
 12 20  1  0  0  0  0
 12 37  1  0  0  0  0
 13 22  1  0  0  0  0
 13 38  1  0  0  0  0
 14 19  2  0  0  0  0
 14 21  1  0  0  0  0
 14 39  1  0  0  0  0
 15 19  1  0  0  0  0
 15 23  2  0  0  0  0
 15 40  1  0  0  0  0
 16 21  2  0  0  0  0
 16 23  1  0  0  0  0
 16 41  1  0  0  0  0
 18 22  2  0  0  0  0
 20 22  1  0  0  0  0
 21 24  1  0  0  0  0
 23 25  1  0  0  0  0
 24 42  1  0  0  0  0
M  END
> <pdb_id>
7AVV

> <uniprot_id>
Q07889

> <usmiles>
FC(F)(F)c1cc(N)cc(c1)[C@H](Nc2nc(nc3c2cccc3)C)C

$$$$
S2Z_A_1105
          07192420503D 1   1.00000     0.00000     0
            
 45 47  0  0  0  0            999 V2000
    0.2393  -28.0734   47.8801 O   0  0  0  0  0  0  0  0  0  0  0  0
   -1.5357  -29.1510   46.4044 O   0  0  0  0  0  0  0  0  0  0  0  0
    3.2728  -31.6881   43.6288 N   0  0  0  0  0  0  0  0  0  0  0  0
    3.8020  -30.2360   45.4572 N   0  0  0  0  0  0  0  0  0  0  0  0
    1.0935  -32.1037   42.9055 N   0  0  0  0  0  0  0  0  0  0  0  0
    1.1594  -27.4929   48.8033 C   0  0  0  0  0  0  0  0  0  0  0  0
   -2.5878  -29.6967   45.6103 C   0  0  0  0  0  0  0  0  0  0  0  0
    5.5843  -31.3084   44.2240 C   0  0  0  0  0  0  0  0  0  0  0  0
    0.6742  -32.7515   40.5998 C   0  0  0  0  0  0  0  0  0  0  0  0
    1.3022  -37.0392   43.3070 C   0  0  0  0  0  0  0  0  0  0  0  0
    2.5032  -36.5294   42.8639 C   0  0  0  0  0  0  0  0  0  0  0  0
    0.1694  -36.2540   43.2625 C   0  0  0  0  0  0  0  0  0  0  0  0
    2.5772  -35.2296   42.3934 C   0  0  0  0  0  0  0  0  0  0  0  0
    0.2357  -34.9678   42.7587 C   0  0  0  0  0  0  0  0  0  0  0  0
    2.0606  -29.1580   46.6917 C   0  0  0  0  0  0  0  0  0  0  0  0
    0.1163  -30.3113   45.0620 C   0  0  0  0  0  0  0  0  0  0  0  0
    4.1277  -31.0576   44.4476 C   0  0  0  0  0  0  0  0  0  0  0  0
    1.9680  -31.4668   43.7715 C   0  0  0  0  0  0  0  0  0  0  0  0
    0.7360  -28.9024   46.9120 C   0  0  0  0  0  0  0  0  0  0  0  0
   -0.2485  -29.4915   46.0874 C   0  0  0  0  0  0  0  0  0  0  0  0
    2.4619  -30.0078   45.6370 C   0  0  0  0  0  0  0  0  0  0  0  0
    1.4423  -34.4351   42.3260 C   0  0  0  0  0  0  0  0  0  0  0  0
    1.4746  -30.6112   44.8241 C   0  0  0  0  0  0  0  0  0  0  0  0
    1.5265  -33.0038   41.8369 C   0  0  2  0  0  0  0  0  0  0  0  0
    0.0971  -31.9682   42.9969 H   0  0  0  0  0  0  0  0  0  0  0  0
    0.6637  -26.8831   49.5564 H   0  0  0  0  0  0  0  0  0  0  0  0
    1.7731  -26.8420   48.1803 H   0  0  0  0  0  0  0  0  0  0  0  0
    1.7906  -28.2311   49.2987 H   0  0  0  0  0  0  0  0  0  0  0  0
   -3.5720  -29.3529   45.9245 H   0  0  0  0  0  0  0  0  0  0  0  0
   -2.5816  -30.7851   45.5678 H   0  0  0  0  0  0  0  0  0  0  0  0
   -2.3842  -29.2930   44.6192 H   0  0  0  0  0  0  0  0  0  0  0  0
    6.1772  -30.4839   44.6172 H   0  0  0  0  0  0  0  0  0  0  0  0
    5.8362  -31.4071   43.1700 H   0  0  0  0  0  0  0  0  0  0  0  0
    5.9178  -32.2149   44.7261 H   0  0  0  0  0  0  0  0  0  0  0  0
   -0.1100  -33.4899   40.4434 H   0  0  0  0  0  0  0  0  0  0  0  0
    1.2740  -32.7379   39.6913 H   0  0  0  0  0  0  0  0  0  0  0  0
    0.1825  -31.7832   40.6582 H   0  0  0  0  0  0  0  0  0  0  0  0
    1.2448  -38.0599   43.6805 H   0  0  0  0  0  0  0  0  0  0  0  0
    3.4065  -37.1358   42.9106 H   0  0  0  0  0  0  0  0  0  0  0  0
   -0.7885  -36.6582   43.5845 H   0  0  0  0  0  0  0  0  0  0  0  0
    3.5413  -34.8423   42.0671 H   0  0  0  0  0  0  0  0  0  0  0  0
   -0.6697  -34.3609   42.7400 H   0  0  0  0  0  0  0  0  0  0  0  0
    2.8701  -28.7231   47.2769 H   0  0  0  0  0  0  0  0  0  0  0  0
   -0.6224  -30.7925   44.4303 H   0  0  0  0  0  0  0  0  0  0  0  0
    2.5548  -32.7863   41.5539 H   0  0  0  0  0  0  0  0  0  0  0  0
  1  6  1  0  0  0  0
  1 19  1  0  0  0  0
  2  7  1  0  0  0  0
  2 20  1  0  0  0  0
  3 17  2  0  0  0  0
  3 18  1  0  0  0  0
  4 17  1  0  0  0  0
  4 21  2  0  0  0  0
  5 18  1  0  0  0  0
  5 24  1  0  0  0  0
  5 25  1  0  0  0  0
  6 26  1  0  0  0  0
  6 27  1  0  0  0  0
  6 28  1  0  0  0  0
  7 29  1  0  0  0  0
  7 30  1  0  0  0  0
  7 31  1  0  0  0  0
  8 17  1  0  0  0  0
  8 32  1  0  0  0  0
  8 33  1  0  0  0  0
  8 34  1  0  0  0  0
  9 24  1  0  0  0  0
  9 35  1  0  0  0  0
  9 36  1  0  0  0  0
  9 37  1  0  0  0  0
 10 11  2  0  0  0  0
 10 12  1  0  0  0  0
 10 38  1  0  0  0  0
 11 13  1  0  0  0  0
 11 39  1  0  0  0  0
 12 14  2  0  0  0  0
 12 40  1  0  0  0  0
 13 22  2  0  0  0  0
 13 41  1  0  0  0  0
 14 22  1  0  0  0  0
 14 42  1  0  0  0  0
 15 19  2  0  0  0  0
 15 21  1  0  0  0  0
 15 43  1  0  0  0  0
 16 20  2  0  0  0  0
 16 23  1  0  0  0  0
 16 44  1  0  0  0  0
 18 23  2  0  0  0  0
 19 20  1  0  0  0  0
 21 23  1  0  0  0  0
 22 24  1  0  0  0  0
 24 45  1  0  0  0  0
M  END
> <pdb_id>
7AVL

> <uniprot_id>
Q07889

> <usmiles>
O(c1c(OC)cc2c(nc(nc2c1)C)N[C@@H](c3ccccc3)C)C

$$$$
S3C_A_303
          07202406303D 1   1.00000     0.00000     0
            
 20 20  0  0  0  0            999 V2000
   57.5708    6.7546   28.9129 Cl  0  0  0  0  0  0  0  0  0  0  0  0
   61.6708    7.3150   24.2236 Cl  0  0  0  0  0  0  0  0  0  0  0  0
   60.3862    5.4521   29.1359 Cl  0  0  0  0  0  0  0  0  0  0  0  0
   61.4863    4.1022   24.8364 S   0  0  0  0  0  0  0  0  0  0  0  0
   64.5409    4.3007   27.2824 O   0  0  0  0  0  0  0  0  0  0  0  0
   64.1809    3.0006   25.5738 O   0  0  0  0  0  0  0  0  0  0  0  0
   58.3532    7.6207   26.4599 C   0  0  0  0  0  0  0  0  0  0  0  0
   59.2673    7.7415   25.4247 C   0  0  0  0  0  0  0  0  0  0  0  0
   62.2551    5.8335   26.7430 C   0  0  0  0  0  0  0  0  0  0  0  0
   58.7077    6.9135   27.5994 C   0  0  0  0  0  0  0  0  0  0  0  0
   60.5229    7.1611   25.5281 C   0  0  0  0  0  0  0  0  0  0  0  0
   62.4608    4.6121   26.1077 C   0  0  0  0  0  0  0  0  0  0  0  0
   59.9673    6.3360   27.6937 C   0  0  0  0  0  0  0  0  0  0  0  0
   63.8006    3.9343   26.3284 C   0  0  0  0  0  0  0  0  0  0  0  0
   60.8744    6.4538   26.6516 C   0  0  0  0  0  0  0  0  0  0  0  0
   64.2475    5.0412   27.8870 H   0  0  0  0  0  0  0  0  0  0  0  0
   57.4479    8.0389   26.3859 H   0  0  0  0  0  0  0  0  0  0  0  0
   59.0203    8.2495   24.5995 H   0  0  0  0  0  0  0  0  0  0  0  0
   62.9023    6.4868   26.3503 H   0  0  0  0  0  0  0  0  0  0  0  0
   62.4600    5.7033   27.7131 H   0  0  0  0  0  0  0  0  0  0  0  0
  1 10  1  0  0  0  0
  2 11  1  0  0  0  0
  3 13  1  0  0  0  0
  4 12  2  0  0  0  0
  5 14  1  0  0  0  0
  6 14  2  0  0  0  0
  7  8  2  0  0  0  0
  7 10  1  0  0  0  0
  8 11  1  0  0  0  0
  9 12  1  0  0  0  0
  9 15  1  0  0  0  0
 10 13  2  0  0  0  0
 11 15  2  0  0  0  0
 12 14  1  0  0  0  0
 13 15  1  0  0  0  0
  5 16  1  0  0  0  0
  7 17  1  0  0  0  0
  8 18  1  0  0  0  0
  9 19  1  0  0  0  0
  9 20  1  0  0  0  0
M  END
> <pdb_id>
4TYT

> <uniprot_id>
P04190

> <usmiles>
Clc1c(Cl)ccc(Cl)c1CC(=S)C(=O)O

$$$$
S3C_A_403
          07202410153D 1   1.00000     0.00000     0
            
 20 20  0  0  0  0            999 V2000
  -31.2880  -13.2542   65.4288 Cl  0  0  0  0  0  0  0  0  0  0  0  0
  -36.5888  -10.5769   63.5997 Cl  0  0  0  0  0  0  0  0  0  0  0  0
  -32.2031  -10.6112   66.7622 Cl  0  0  0  0  0  0  0  0  0  0  0  0
  -35.2720  -11.0594   68.1266 S   0  0  0  0  0  0  0  0  0  0  0  0
  -36.2823   -8.3810   69.0232 O   0  0  0  0  0  0  0  0  0  0  0  0
  -36.1095   -7.2968   67.1229 O   0  0  0  0  0  0  0  0  0  0  0  0
  -33.5225  -13.0716   63.9055 C   0  0  0  0  0  0  0  0  0  0  0  0
  -34.6950  -12.5069   63.5013 C   0  0  0  0  0  0  0  0  0  0  0  0
  -34.8661   -9.5127   65.8289 C   0  0  0  0  0  0  0  0  0  0  0  0
  -32.7773  -12.5048   64.9167 C   0  0  0  0  0  0  0  0  0  0  0  0
  -35.1242  -11.3444   64.1126 C   0  0  0  0  0  0  0  0  0  0  0  0
  -35.4004   -9.6357   67.2427 C   0  0  0  0  0  0  0  0  0  0  0  0
  -33.1905  -11.3410   65.5273 C   0  0  0  0  0  0  0  0  0  0  0  0
  -35.9579   -8.3561   67.8265 C   0  0  0  0  0  0  0  0  0  0  0  0
  -34.3988  -10.7724   65.1404 C   0  0  0  0  0  0  0  0  0  0  0  0
  -36.1570   -9.2166   69.5580 H   0  0  0  0  0  0  0  0  0  0  0  0
  -33.1988  -13.9078   63.4628 H   0  0  0  0  0  0  0  0  0  0  0  0
  -35.2366  -12.9274   62.7733 H   0  0  0  0  0  0  0  0  0  0  0  0
  -34.0899   -8.8829   65.8572 H   0  0  0  0  0  0  0  0  0  0  0  0
  -35.5945   -9.1190   65.2681 H   0  0  0  0  0  0  0  0  0  0  0  0
  1 10  1  0  0  0  0
  2 11  1  0  0  0  0
  3 13  1  0  0  0  0
  4 12  2  0  0  0  0
  5 14  1  0  0  0  0
  6 14  2  0  0  0  0
  7  8  2  0  0  0  0
  7 10  1  0  0  0  0
  8 11  1  0  0  0  0
  9 12  1  0  0  0  0
  9 15  1  0  0  0  0
 10 13  2  0  0  0  0
 11 15  2  0  0  0  0
 12 14  1  0  0  0  0
 13 15  1  0  0  0  0
  5 16  1  0  0  0  0
  7 17  1  0  0  0  0
  8 18  1  0  0  0  0
  9 19  1  0  0  0  0
  9 20  1  0  0  0  0
M  END
> <pdb_id>
4PVO

> <uniprot_id>
Q9K2N0

> <usmiles>
Clc1c(Cl)ccc(Cl)c1CC(=S)C(=O)O

$$$$
S3C_A_506
          07202410153D 1   1.00000     0.00000     0
            
 20 20  0  0  0  0            999 V2000
  -31.0579  -13.0926   65.5806 Cl  0  0  0  0  0  0  0  0  0  0  0  0
  -36.3946  -10.7538   63.6343 Cl  0  0  0  0  0  0  0  0  0  0  0  0
  -32.2148  -10.5180   66.9156 Cl  0  0  0  0  0  0  0  0  0  0  0  0
  -35.1916  -11.0972   68.1826 S   0  0  0  0  0  0  0  0  0  0  0  0
  -35.9923   -7.3359   67.0522 O   0  0  0  0  0  0  0  0  0  0  0  0
  -36.2773   -8.3808   68.9509 O   0  0  0  0  0  0  0  0  0  0  0  0
  -33.1810  -13.0401   63.9960 C   0  0  0  0  0  0  0  0  0  0  0  0
  -34.3845  -12.5211   63.5548 C   0  0  0  0  0  0  0  0  0  0  0  0
  -34.8501   -9.6119   65.9179 C   0  0  0  0  0  0  0  0  0  0  0  0
  -32.5192  -12.4230   65.0454 C   0  0  0  0  0  0  0  0  0  0  0  0
  -34.9030  -11.3976   64.1836 C   0  0  0  0  0  0  0  0  0  0  0  0
  -35.2785   -9.6635   67.1848 C   0  0  0  0  0  0  0  0  0  0  0  0
  -33.0418  -11.2917   65.6634 C   0  0  0  0  0  0  0  0  0  0  0  0
  -35.8729   -8.4566   67.8077 C   0  0  0  0  0  0  0  0  0  0  0  0
  -34.2553  -10.7684   65.2430 C   0  0  0  0  0  0  0  0  0  0  0  0
  -35.5289  -11.0726   69.1237 H   0  0  0  0  0  0  0  0  0  0  0  0
  -35.6771   -7.3367   66.1032 H   0  0  0  0  0  0  0  0  0  0  0  0
  -32.7922  -13.8527   63.5619 H   0  0  0  0  0  0  0  0  0  0  0  0
  -34.8737  -12.9486   62.7946 H   0  0  0  0  0  0  0  0  0  0  0  0
  -34.9392   -8.7529   65.4137 H   0  0  0  0  0  0  0  0  0  0  0  0
  1 10  1  0  0  0  0
  2 11  1  0  0  0  0
  3 13  1  0  0  0  0
  4 12  1  0  0  0  0
  5 14  1  0  0  0  0
  6 14  2  0  0  0  0
  7  8  2  0  0  0  0
  7 10  1  0  0  0  0
  8 11  1  0  0  0  0
  9 12  2  0  0  0  0
  9 15  1  0  0  0  0
 10 13  2  0  0  0  0
 11 15  2  0  0  0  0
 12 14  1  0  0  0  0
 13 15  1  0  0  0  0
  4 16  1  0  0  0  0
  5 17  1  0  0  0  0
  7 18  1  0  0  0  0
  8 19  1  0  0  0  0
  9 20  1  0  0  0  0
M  END
> <pdb_id>
6EW3

> <uniprot_id>
D1MEN9

> <usmiles>
Clc1c(Cl)ccc(Cl)c1/C=C(\S)/C(=O)O

$$$$
S3N_A_1351
          07192421293D 1   1.00000     0.00000     0
            
 44 47  0  0  0  0            999 V2000
   15.7795   12.8589   -1.4070 F   0  0  0  0  0  0  0  0  0  0  0  0
   14.1381   13.1643   -2.5649 F   0  0  0  0  0  0  0  0  0  0  0  0
   14.5738   14.6501   -1.2258 F   0  0  0  0  0  0  0  0  0  0  0  0
    3.5325   10.4943    4.6217 O   0  0  0  0  0  0  0  0  0  0  0  0
   10.9544   11.5061    3.7303 O   0  0  0  0  0  0  0  0  0  0  0  0
    5.6494    9.8261    1.1371 N   0  0  0  0  0  0  0  0  0  0  0  0
   11.1305    7.2648    3.0700 N   0  0  0  0  0  0  0  0  0  0  0  0
    3.5062   10.2991    2.3286 N   0  0  0  0  0  0  0  0  0  0  0  0
    4.2268   10.0591    1.1166 C   0  0  0  0  0  0  0  0  0  0  0  0
   12.6701   12.8654    1.8556 C   0  0  0  0  0  0  0  0  0  0  0  0
   12.4486   10.8475    0.5253 C   0  0  0  0  0  0  0  0  0  0  0  0
    7.7315    9.8224    4.8904 C   0  0  0  0  0  0  0  0  0  0  0  0
   13.4623   13.4472    0.8573 C   0  0  0  0  0  0  0  0  0  0  0  0
   13.2601   11.4376   -0.4720 C   0  0  0  0  0  0  0  0  0  0  0  0
    6.3492   10.0652    4.8540 C   0  0  0  0  0  0  0  0  0  0  0  0
    7.7027    9.5610    2.4819 C   0  0  0  0  0  0  0  0  0  0  0  0
   11.8473    8.4624    2.6442 C   0  0  0  0  0  0  0  0  0  0  0  0
    9.8608    7.7268    3.6997 C   0  0  0  0  0  0  0  0  0  0  0  0
    4.1443   10.3122    3.5872 C   0  0  0  0  0  0  0  0  0  0  0  0
   11.2759   10.8981    2.7006 C   0  0  0  0  0  0  0  0  0  0  0  0
    6.3015    9.8084    2.4385 C   0  0  0  0  0  0  0  0  0  0  0  0
   12.1585   11.5739    1.6647 C   0  0  0  0  0  0  0  0  0  0  0  0
    8.4171    9.5527    3.6833 C   0  0  0  0  0  0  0  0  0  0  0  0
   13.7554   12.7218   -0.2991 C   0  0  0  0  0  0  0  0  0  0  0  0
    5.6253   10.0591    3.6055 C   0  0  0  0  0  0  0  0  0  0  0  0
   10.7627    9.5076    2.5081 C   0  0  2  0  0  0  0  0  0  0  0  0
    9.8733    9.2546    3.6704 C   0  0  2  0  0  0  0  0  0  0  0  0
   14.5826   13.3577   -1.3562 C   0  0  0  0  0  0  0  0  0  0  0  0
   11.6967    6.7392    3.6095 H   0  0  0  0  0  0  0  0  0  0  0  0
    2.6154   10.4633    2.2853 H   0  0  0  0  0  0  0  0  0  0  0  0
    3.7527   10.0619    0.2670 H   0  0  0  0  0  0  0  0  0  0  0  0
   12.4636   13.3636    2.6367 H   0  0  0  0  0  0  0  0  0  0  0  0
   12.0965    9.9592    0.4055 H   0  0  0  0  0  0  0  0  0  0  0  0
    8.2117    9.7933    5.7669 H   0  0  0  0  0  0  0  0  0  0  0  0
   13.8044   14.3358    0.9761 H   0  0  0  0  0  0  0  0  0  0  0  0
   13.4580   10.9508   -1.2790 H   0  0  0  0  0  0  0  0  0  0  0  0
    5.8590   10.2109    5.6992 H   0  0  0  0  0  0  0  0  0  0  0  0
    8.1704    9.4009    1.6556 H   0  0  0  0  0  0  0  0  0  0  0  0
   12.4969    8.7306    3.3052 H   0  0  0  0  0  0  0  0  0  0  0  0
   12.2927    8.3222    1.8090 H   0  0  0  0  0  0  0  0  0  0  0  0
    9.8656    7.4423    4.6191 H   0  0  0  0  0  0  0  0  0  0  0  0
    9.0843    7.3479    3.2461 H   0  0  0  0  0  0  0  0  0  0  0  0
   10.2251    9.7463    1.7399 H   0  0  0  0  0  0  0  0  0  0  0  0
   10.0626    9.5991    4.5362 H   0  0  0  0  0  0  0  0  0  0  0  0
  1 28  1  0  0  0  0
  2 28  1  0  0  0  0
  3 28  1  0  0  0  0
  4 19  2  0  0  0  0
  5 20  2  0  0  0  0
  6  9  2  0  0  0  0
  6 21  1  0  0  0  0
  7 17  1  0  0  0  0
  7 18  1  0  0  0  0
  7 29  1  0  0  0  0
  8  9  1  0  0  0  0
  8 19  1  0  0  0  0
  8 30  1  0  0  0  0
  9 31  1  0  0  0  0
 10 13  1  0  0  0  0
 10 22  2  0  0  0  0
 10 32  1  0  0  0  0
 11 14  2  0  0  0  0
 11 22  1  0  0  0  0
 11 33  1  0  0  0  0
 12 15  1  0  0  0  0
 12 23  2  0  0  0  0
 12 34  1  0  0  0  0
 13 24  2  0  0  0  0
 13 35  1  0  0  0  0
 14 24  1  0  0  0  0
 14 36  1  0  0  0  0
 15 25  2  0  0  0  0
 15 37  1  0  0  0  0
 16 21  2  0  0  0  0
 16 23  1  0  0  0  0
 16 38  1  0  0  0  0
 17 26  1  0  0  0  0
 17 39  1  0  0  0  0
 17 40  1  0  0  0  0
 18 27  1  0  0  0  0
 18 41  1  0  0  0  0
 18 42  1  0  0  0  0
 19 25  1  0  0  0  0
 20 22  1  0  0  0  0
 20 26  1  0  0  0  0
 21 25  1  0  0  0  0
 23 27  1  0  0  0  0
 24 28  1  0  0  0  0
 26 27  1  0  0  0  0
 26 43  1  0  0  0  0
 27 44  1  0  0  0  0
M  END
> <pdb_id>
4UJ9

> <uniprot_id>
P17612

> <usmiles>
FC(F)(F)c1ccc(cc1)C(=O)[C@@H]2[C@@H](c3cc4N=CNC(=O)c4cc3)CNC2

$$$$
S3O_A_201
          07192416543D 1   1.00000     0.00000     0
            
 43 45  0  0  0  0            999 V2000
   15.1329   17.7214    6.7850 O   0  0  0  0  0  0  0  0  0  0  0  0
   18.4671   21.9869    3.2037 N   0  0  0  0  0  0  0  0  0  0  0  0
   17.2650   18.6303    6.4269 N   0  0  0  0  0  0  0  0  0  0  0  0
   15.5906   19.7580    5.1618 N   0  0  0  0  0  0  0  0  0  0  0  0
   16.9788   16.8664    8.0236 C   0  0  0  0  0  0  0  0  0  0  0  0
   10.4998   22.7486    4.7585 C   0  0  0  0  0  0  0  0  0  0  0  0
   13.5055   22.9184    5.2894 C   0  0  0  0  0  0  0  0  0  0  0  0
   18.1702   22.9365    2.1516 C   0  0  0  0  0  0  0  0  0  0  0  0
   16.7300   23.0749    1.6876 C   0  0  0  0  0  0  0  0  0  0  0  0
   11.7695   19.5666    3.1449 C   0  0  0  0  0  0  0  0  0  0  0  0
   10.9530   20.5925    3.6061 C   0  0  0  0  0  0  0  0  0  0  0  0
   15.6467   22.4254    2.5372 C   0  0  0  0  0  0  0  0  0  0  0  0
   13.1414   19.6246    3.3693 C   0  0  0  0  0  0  0  0  0  0  0  0
   17.8831   20.3156    4.8178 C   0  0  0  0  0  0  0  0  0  0  0  0
   16.3397   17.7848    7.0172 C   0  0  0  0  0  0  0  0  0  0  0  0
   16.8969   19.5783    5.4478 C   0  0  0  0  0  0  0  0  0  0  0  0
   17.4910   21.2536    3.8477 C   0  0  0  0  0  0  0  0  0  0  0  0
   15.1934   20.6571    4.2487 C   0  0  0  0  0  0  0  0  0  0  0  0
   11.4793   21.6914    4.3016 C   0  0  0  0  0  0  0  0  0  0  0  0
   12.8831   21.7534    4.5440 C   0  0  0  0  0  0  0  0  0  0  0  0
   16.1197   21.4344    3.5586 C   0  0  0  0  0  0  0  0  0  0  0  0
   13.7217   20.7034    4.0579 C   0  0  0  0  0  0  0  0  0  0  0  0
   19.4207   21.8567    3.4754 H   0  0  0  0  0  0  0  0  0  0  0  0
   18.2240   18.5671    6.7032 H   0  0  0  0  0  0  0  0  0  0  0  0
   17.9580   17.0617    8.0784 H   0  0  0  0  0  0  0  0  0  0  0  0
   16.5594   17.0106    8.9199 H   0  0  0  0  0  0  0  0  0  0  0  0
   16.8436   15.9167    7.7412 H   0  0  0  0  0  0  0  0  0  0  0  0
   10.9926   23.4744    5.2385 H   0  0  0  0  0  0  0  0  0  0  0  0
   10.0302   23.1336    3.9639 H   0  0  0  0  0  0  0  0  0  0  0  0
    9.8287   22.3371    5.3751 H   0  0  0  0  0  0  0  0  0  0  0  0
   14.4936   22.7804    5.3582 H   0  0  0  0  0  0  0  0  0  0  0  0
   13.3212   23.7675    4.7945 H   0  0  0  0  0  0  0  0  0  0  0  0
   13.1122   22.9753    6.2070 H   0  0  0  0  0  0  0  0  0  0  0  0
   18.7136   22.6737    1.3543 H   0  0  0  0  0  0  0  0  0  0  0  0
   18.4646   23.8362    2.4739 H   0  0  0  0  0  0  0  0  0  0  0  0
   16.6714   22.6755    0.7727 H   0  0  0  0  0  0  0  0  0  0  0  0
   16.5248   24.0524    1.6384 H   0  0  0  0  0  0  0  0  0  0  0  0
   11.3730   18.7907    2.6543 H   0  0  0  0  0  0  0  0  0  0  0  0
    9.9682   20.5462    3.4384 H   0  0  0  0  0  0  0  0  0  0  0  0
   15.0166   21.9529    1.9211 H   0  0  0  0  0  0  0  0  0  0  0  0
   15.1587   23.1528    3.0195 H   0  0  0  0  0  0  0  0  0  0  0  0
   13.7252   18.8850    3.0345 H   0  0  0  0  0  0  0  0  0  0  0  0
   18.8478   20.1849    5.0462 H   0  0  0  0  0  0  0  0  0  0  0  0
  1 15  2  0  0  0  0
  2  8  1  0  0  0  0
  2 17  1  0  0  0  0
  3 15  1  0  0  0  0
  3 16  1  0  0  0  0
  4 16  2  0  0  0  0
  4 18  1  0  0  0  0
  5 15  1  0  0  0  0
  6 19  1  0  0  0  0
  7 20  1  0  0  0  0
  8  9  1  0  0  0  0
  9 12  1  0  0  0  0
 10 11  1  0  0  0  0
 10 13  2  0  0  0  0
 11 19  2  0  0  0  0
 12 21  1  0  0  0  0
 13 22  1  0  0  0  0
 14 16  1  0  0  0  0
 14 17  2  0  0  0  0
 17 21  1  0  0  0  0
 18 21  2  0  0  0  0
 18 22  1  0  0  0  0
 19 20  1  0  0  0  0
 20 22  2  0  0  0  0
  2 23  1  0  0  0  0
  3 24  1  0  0  0  0
  5 25  1  0  0  0  0
  5 26  1  0  0  0  0
  5 27  1  0  0  0  0
  6 28  1  0  0  0  0
  6 29  1  0  0  0  0
  6 30  1  0  0  0  0
  7 31  1  0  0  0  0
  7 32  1  0  0  0  0
  7 33  1  0  0  0  0
  8 34  1  0  0  0  0
  8 35  1  0  0  0  0
  9 36  1  0  0  0  0
  9 37  1  0  0  0  0
 10 38  1  0  0  0  0
 11 39  1  0  0  0  0
 12 40  1  0  0  0  0
 12 41  1  0  0  0  0
 13 42  1  0  0  0  0
 14 43  1  0  0  0  0
M  END
> <pdb_id>
6US2

> <uniprot_id>
P36639

> <usmiles>
O=C(Nc1nc(c2c(c(ccc2)C)C)c3c(NCCC3)c1)C

$$$$
S3P_A_601
          07192419173D 1   1.00000     0.00000     0
            
 27 27  0  0  0  0            999 V2000
   53.5653    7.9356   27.7488 P   0  0  0  0  0  0  0  0  0  0  0  0
   52.5521    8.7881   27.1343 O   0  0  0  0  0  0  0  0  0  0  0  0
   53.1952    7.4730   29.1161 O   0  0  0  0  0  0  0  0  0  0  0  0
   54.0809    6.9220   26.7909 O   0  0  0  0  0  0  0  0  0  0  0  0
   55.0326   13.4759   26.3468 O   0  0  0  0  0  0  0  0  0  0  0  0
   56.7083   14.4256   27.4112 O   0  0  0  0  0  0  0  0  0  0  0  0
   58.6193   10.3537   30.0206 O   0  0  0  0  0  0  0  0  0  0  0  0
   56.2862    8.8045   30.5026 O   0  0  0  0  0  0  0  0  0  0  0  0
   54.9402    8.9563   28.0502 O   0  0  0  0  0  0  0  0  0  0  0  0
   57.3349   11.9291   28.6807 C   0  0  0  0  0  0  0  0  0  0  0  0
   54.9609   11.3918   28.1929 C   0  0  0  0  0  0  0  0  0  0  0  0
   55.9358   13.4755   27.2066 C   0  0  0  0  0  0  0  0  0  0  0  0
   57.5003   10.4647   29.1662 C   0  0  2  0  0  0  0  0  0  0  0  0
   56.2211   10.0911   29.9292 C   0  0  1  0  0  0  0  0  0  0  0  0
   55.0096   10.1279   28.9924 C   0  0  2  0  0  0  0  0  0  0  0  0
   56.0794   12.2381   28.0433 C   0  0  0  0  0  0  0  0  0  0  0  0
   52.8571    9.0645   26.2230 H   0  0  0  0  0  0  0  0  0  0  0  0
   53.9255    6.8961   29.4818 H   0  0  0  0  0  0  0  0  0  0  0  0
   54.4463   12.6733   26.2371 H   0  0  0  0  0  0  0  0  0  0  0  0
   58.7134    9.4059   30.3253 H   0  0  0  0  0  0  0  0  0  0  0  0
   55.4322    8.6113   30.9857 H   0  0  0  0  0  0  0  0  0  0  0  0
   58.0668   12.1206   28.0268 H   0  0  0  0  0  0  0  0  0  0  0  0
   57.4321   12.5290   29.4749 H   0  0  0  0  0  0  0  0  0  0  0  0
   54.1024   11.6462   27.7476 H   0  0  0  0  0  0  0  0  0  0  0  0
   57.6140    9.8582   28.3793 H   0  0  0  0  0  0  0  0  0  0  0  0
   56.0793   10.7589   30.6600 H   0  0  0  0  0  0  0  0  0  0  0  0
   54.1888   10.1025   29.5630 H   0  0  0  0  0  0  0  0  0  0  0  0
  1  2  1  0  0  0  0
  1  3  1  0  0  0  0
  1  4  2  0  0  0  0
  1  9  1  0  0  0  0
  5 12  1  0  0  0  0
  6 12  2  0  0  0  0
  7 13  1  0  0  0  0
  8 14  1  0  0  0  0
  9 15  1  0  0  0  0
 10 13  1  0  0  0  0
 10 16  1  0  0  0  0
 11 15  1  0  0  0  0
 11 16  2  0  0  0  0
 12 16  1  0  0  0  0
 13 14  1  0  0  0  0
 14 15  1  0  0  0  0
  2 17  1  0  0  0  0
  3 18  1  0  0  0  0
  5 19  1  0  0  0  0
  7 20  1  0  0  0  0
  8 21  1  0  0  0  0
 10 22  1  0  0  0  0
 10 23  1  0  0  0  0
 11 24  1  0  0  0  0
 13 25  1  0  0  0  0
 14 26  1  0  0  0  0
 15 27  1  0  0  0  0
M  END
> <pdb_id>
1G6T

> <uniprot_id>
P0A6D3

> <usmiles>
P(=O)(O[C@@H]1C=C(C(=O)O)C[C@@H](O)[C@@H]1O)(O)O

$$$$
S3P_A_601
          07202408483D 1   1.00000     0.00000     0
            
 27 27  0  0  0  0            999 V2000
 -127.3639   31.0090  123.1594 P   0  0  0  0  0  0  0  0  0  0  0  0
 -125.8994   31.0550  123.5047 O   0  0  0  0  0  0  0  0  0  0  0  0
 -127.7291   32.1699  122.3015 O   0  0  0  0  0  0  0  0  0  0  0  0
 -127.6568   29.7104  122.4606 O   0  0  0  0  0  0  0  0  0  0  0  0
 -125.3261   31.9888  128.3943 O   0  0  0  0  0  0  0  0  0  0  0  0
 -126.7654   32.2875  130.0491 O   0  0  0  0  0  0  0  0  0  0  0  0
 -131.3310   31.4452  127.7079 O   0  0  0  0  0  0  0  0  0  0  0  0
 -130.8395   32.1896  124.9734 O   0  0  0  0  0  0  0  0  0  0  0  0
 -128.2562   31.1130  124.5417 O   0  0  0  0  0  0  0  0  0  0  0  0
 -128.9445   31.6934  128.2243 C   0  0  0  0  0  0  0  0  0  0  0  0
 -127.3599   32.4907  126.4705 C   0  0  0  0  0  0  0  0  0  0  0  0
 -126.4900   32.1479  128.8385 C   0  0  0  0  0  0  0  0  0  0  0  0
 -129.9957   31.3948  127.1399 C   0  0  2  0  0  0  0  0  0  0  0  0
 -129.8706   32.4263  126.0132 C   0  0  1  0  0  0  0  0  0  0  0  0
 -128.4613   32.3864  125.3941 C   0  0  2  0  0  0  0  0  0  0  0  0
 -127.6351   32.1190  127.8218 C   0  0  0  0  0  0  0  0  0  0  0  0
 -125.6679   30.2707  124.0804 H   0  0  0  0  0  0  0  0  0  0  0  0
 -128.7032   32.1271  122.0798 H   0  0  0  0  0  0  0  0  0  0  0  0
 -125.1762   31.8830  127.4112 H   0  0  0  0  0  0  0  0  0  0  0  0
 -132.0042   31.2499  126.9947 H   0  0  0  0  0  0  0  0  0  0  0  0
 -130.7324   32.8772  124.2552 H   0  0  0  0  0  0  0  0  0  0  0  0
 -128.8294   30.8568  128.7598 H   0  0  0  0  0  0  0  0  0  0  0  0
 -129.3207   32.4134  128.8075 H   0  0  0  0  0  0  0  0  0  0  0  0
 -126.4494   32.8201  126.2205 H   0  0  0  0  0  0  0  0  0  0  0  0
 -129.8321   30.4813  126.7675 H   0  0  0  0  0  0  0  0  0  0  0  0
 -130.0267   33.3374  126.3947 H   0  0  0  0  0  0  0  0  0  0  0  0
 -128.3717   33.1768  124.7882 H   0  0  0  0  0  0  0  0  0  0  0  0
  1  2  1  0  0  0  0
  1  3  1  0  0  0  0
  1  4  2  0  0  0  0
  1  9  1  0  0  0  0
  5 12  1  0  0  0  0
  6 12  2  0  0  0  0
  7 13  1  0  0  0  0
  8 14  1  0  0  0  0
  9 15  1  0  0  0  0
 10 13  1  0  0  0  0
 10 16  1  0  0  0  0
 11 15  1  0  0  0  0
 11 16  2  0  0  0  0
 12 16  1  0  0  0  0
 13 14  1  0  0  0  0
 14 15  1  0  0  0  0
  2 17  1  0  0  0  0
  3 18  1  0  0  0  0
  5 19  1  0  0  0  0
  7 20  1  0  0  0  0
  8 21  1  0  0  0  0
 10 22  1  0  0  0  0
 10 23  1  0  0  0  0
 11 24  1  0  0  0  0
 13 25  1  0  0  0  0
 14 26  1  0  0  0  0
 15 27  1  0  0  0  0
M  END
> <pdb_id>
2GG6

> <uniprot_id>
Q9R4E4

> <usmiles>
P(=O)(O[C@@H]1C=C(C(=O)O)C[C@@H](O)[C@@H]1O)(O)O

$$$$
S3P_A_902
          07202416373D 1   1.00000     0.00000     0
            
 27 27  0  0  0  0            999 V2000
   22.3522  111.8805   19.9855 P   0  0  0  0  0  0  0  0  0  0  0  0
   22.3668  112.3942   21.4057 O   0  0  0  0  0  0  0  0  0  0  0  0
   22.0152  113.0173   19.0470 O   0  0  0  0  0  0  0  0  0  0  0  0
   23.6626  111.2378   19.6392 O   0  0  0  0  0  0  0  0  0  0  0  0
   17.2883  106.9176   21.5269 O   0  0  0  0  0  0  0  0  0  0  0  0
   18.8871  107.7534   22.7584 O   0  0  0  0  0  0  0  0  0  0  0  0
   18.0675  109.5919   16.9953 O   0  0  0  0  0  0  0  0  0  0  0  0
   19.7113  111.6683   17.6736 O   0  0  0  0  0  0  0  0  0  0  0  0
   21.1910  110.7130   19.7929 O   0  0  0  0  0  0  0  0  0  0  0  0
   18.1281  108.5989   19.2816 C   0  0  0  0  0  0  0  0  0  0  0  0
   19.3719  110.1039   21.0760 C   0  0  0  0  0  0  0  0  0  0  0  0
   18.1862  107.7803   21.7134 C   0  0  0  0  0  0  0  0  0  0  0  0
   18.8620  109.6071   18.1949 C   0  0  2  0  0  0  0  0  0  0  0  0
   18.9892  110.9032   18.6492 C   0  0  1  0  0  0  0  0  0  0  0  0
   19.8460  111.0098   20.0541 C   0  0  2  0  0  0  0  0  0  0  0  0
   18.4317  108.8707   20.6709 C   0  0  0  0  0  0  0  0  0  0  0  0
   22.5894  111.6446   22.0290 H   0  0  0  0  0  0  0  0  0  0  0  0
   22.0047  112.6805   18.1055 H   0  0  0  0  0  0  0  0  0  0  0  0
   16.7346  106.9441   20.6947 H   0  0  0  0  0  0  0  0  0  0  0  0
   18.4828  110.1931   16.3127 H   0  0  0  0  0  0  0  0  0  0  0  0
   19.8088  112.6104   17.9944 H   0  0  0  0  0  0  0  0  0  0  0  0
   18.4152  107.6627   19.0789 H   0  0  0  0  0  0  0  0  0  0  0  0
   17.1388  108.6781   19.1592 H   0  0  0  0  0  0  0  0  0  0  0  0
   19.6294  110.2462   22.0317 H   0  0  0  0  0  0  0  0  0  0  0  0
   19.7713  109.2481   17.9844 H   0  0  0  0  0  0  0  0  0  0  0  0
   18.0814  111.3016   18.7807 H   0  0  0  0  0  0  0  0  0  0  0  0
   19.7838  111.9462   20.3993 H   0  0  0  0  0  0  0  0  0  0  0  0
  1  2  1  0  0  0  0
  1  3  1  0  0  0  0
  1  4  2  0  0  0  0
  1  9  1  0  0  0  0
  5 12  1  0  0  0  0
  6 12  2  0  0  0  0
  7 13  1  0  0  0  0
  8 14  1  0  0  0  0
  9 15  1  0  0  0  0
 10 13  1  0  0  0  0
 10 16  1  0  0  0  0
 11 15  1  0  0  0  0
 11 16  2  0  0  0  0
 12 16  1  0  0  0  0
 13 14  1  0  0  0  0
 14 15  1  0  0  0  0
  2 17  1  0  0  0  0
  3 18  1  0  0  0  0
  5 19  1  0  0  0  0
  7 20  1  0  0  0  0
  8 21  1  0  0  0  0
 10 22  1  0  0  0  0
 10 23  1  0  0  0  0
 11 24  1  0  0  0  0
 13 25  1  0  0  0  0
 14 26  1  0  0  0  0
 15 27  1  0  0  0  0
M  END
> <pdb_id>
7TBU

> <uniprot_id>
nan

> <usmiles>
P(=O)(O[C@@H]1C=C(C(=O)O)C[C@@H](O)[C@@H]1O)(O)O

$$$$
S3P_B_902
          07202416373D 1   1.00000     0.00000     0
            
 29 29  0  0  0  0            999 V2000
   22.4260  111.7780   19.9370 P   0  0  0  0  0  0  0  0  0  0  0  0
   22.1320  112.8280   18.8940 O   0  0  0  0  0  0  0  0  0  0  0  0
   23.7520  111.1090   19.7100 O   0  0  0  0  0  0  0  0  0  0  0  0
   22.4270  112.4000   21.3160 O   0  0  0  0  0  0  0  0  0  0  0  0
   18.7530  107.6710   22.8080 O   0  0  0  0  0  0  0  0  0  0  0  0
   17.3190  106.8670   21.3410 O   0  0  0  0  0  0  0  0  0  0  0  0
   18.3160  109.2860   16.9490 O   0  0  0  0  0  0  0  0  0  0  0  0
   19.7180  111.5780   17.6320 O   0  0  0  0  0  0  0  0  0  0  0  0
   21.2450  110.6150   19.8470 O   0  0  0  0  0  0  0  0  0  0  0  0
   18.4460  108.3540   19.2200 C   0  0  0  0  0  0  0  0  0  0  0  0
   19.3710  110.0020   21.0330 C   0  0  0  0  0  0  0  0  0  0  0  0
   18.2770  107.6380   21.6440 C   0  0  0  0  0  0  0  0  0  0  0  0
   19.0990  109.4140   18.1470 C   0  0  2  0  0  0  0  0  0  0  0  0
   19.0860  110.7220   18.5990 C   0  0  1  0  0  0  0  0  0  0  0  0
   19.8900  110.9060   20.0320 C   0  0  2  0  0  0  0  0  0  0  0  0
   18.8660  108.5550   20.5810 C   0  0  1  0  0  0  0  0  0  0  0  0
   21.2434  113.2459   19.0830 H   0  0  0  0  0  0  0  0  0  0  0  0
   23.9055  110.4232   20.4214 H   0  0  0  0  0  0  0  0  0  0  0  0
   19.5097  108.2889   23.0214 H   0  0  0  0  0  0  0  0  0  0  0  0
   18.6677  109.9115   16.2525 H   0  0  0  0  0  0  0  0  0  0  0  0
   19.7058  112.5214   17.9635 H   0  0  0  0  0  0  0  0  0  0  0  0
   18.7076  107.4288   18.9449 H   0  0  0  0  0  0  0  0  0  0  0  0
   17.4507  108.4439   19.1829 H   0  0  0  0  0  0  0  0  0  0  0  0
   18.5961  110.4602   21.4684 H   0  0  0  0  0  0  0  0  0  0  0  0
   20.0969  109.8621   21.7064 H   0  0  0  0  0  0  0  0  0  0  0  0
   20.0420  109.1440   17.9524 H   0  0  0  0  0  0  0  0  0  0  0  0
   18.1372  111.0140   18.7196 H   0  0  0  0  0  0  0  0  0  0  0  0
   19.7918  111.8487   20.3509 H   0  0  0  0  0  0  0  0  0  0  0  0
   19.7624  108.1175   20.5097 H   0  0  0  0  0  0  0  0  0  0  0  0
  1  2  1  0  0  0  0
  1  3  1  0  0  0  0
  1  4  2  0  0  0  0
  1  9  1  0  0  0  0
  5 12  1  0  0  0  0
  6 12  2  0  0  0  0
  7 13  1  0  0  0  0
  8 14  1  0  0  0  0
  9 15  1  0  0  0  0
 10 13  1  0  0  0  0
 10 16  1  0  0  0  0
 11 15  1  0  0  0  0
 11 16  1  0  0  0  0
 12 16  1  0  0  0  0
 13 14  1  0  0  0  0
 14 15  1  0  0  0  0
  2 17  1  0  0  0  0
  3 18  1  0  0  0  0
  5 19  1  0  0  0  0
  7 20  1  0  0  0  0
  8 21  1  0  0  0  0
 10 22  1  0  0  0  0
 10 23  1  0  0  0  0
 11 24  1  0  0  0  0
 11 25  1  0  0  0  0
 13 26  1  0  0  0  0
 14 27  1  0  0  0  0
 15 28  1  0  0  0  0
 16 29  1  0  0  0  0
M  END
> <pdb_id>
7TBU

> <uniprot_id>
nan

> <usmiles>
P(=O)(O[C@H]1[C@@H](O)[C@H](O)C[C@H](C(=O)O)C1)(O)O

$$$$
S3Q_B_1103
          07192420503D 1   1.00000     0.00000     0
            
 48 50  0  0  0  0            999 V2000
    3.6083  -37.1201   43.8601 F   0  0  0  0  0  0  0  0  0  0  0  0
    2.0699  -38.4885   44.2487 F   0  0  0  0  0  0  0  0  0  0  0  0
    2.8049  -38.2691   42.2497 F   0  0  0  0  0  0  0  0  0  0  0  0
    0.5372  -27.9880   47.8525 O   0  0  0  0  0  0  0  0  0  0  0  0
   -1.3037  -28.9293   46.3061 O   0  0  0  0  0  0  0  0  0  0  0  0
    3.3769  -31.7848   43.6480 N   0  0  0  0  0  0  0  0  0  0  0  0
    3.9619  -30.4058   45.5137 N   0  0  0  0  0  0  0  0  0  0  0  0
    1.1756  -32.0110   42.8941 N   0  0  0  0  0  0  0  0  0  0  0  0
    1.5193  -27.3637   48.6765 C   0  0  0  0  0  0  0  0  0  0  0  0
   -2.3695  -29.3929   45.4757 C   0  0  0  0  0  0  0  0  0  0  0  0
    5.6919  -31.5741   44.3143 C   0  0  0  0  0  0  0  0  0  0  0  0
    0.7424  -32.4951   40.5421 C   0  0  0  0  0  0  0  0  0  0  0  0
   -0.8229  -35.7771   42.9917 C   0  0  0  0  0  0  0  0  0  0  0  0
   -0.3944  -34.5440   42.5281 C   0  0  0  0  0  0  0  0  0  0  0  0
    0.1036  -36.7666   43.2728 C   0  0  0  0  0  0  0  0  0  0  0  0
    2.2853  -29.1593   46.6669 C   0  0  0  0  0  0  0  0  0  0  0  0
    0.2973  -30.2160   45.0233 C   0  0  0  0  0  0  0  0  0  0  0  0
    1.8782  -35.2881   42.6329 C   0  0  0  0  0  0  0  0  0  0  0  0
    4.2506  -31.2439   44.5095 C   0  0  0  0  0  0  0  0  0  0  0  0
    2.0846  -31.5050   43.7934 C   0  0  0  0  0  0  0  0  0  0  0  0
    0.9782  -28.8366   46.8774 C   0  0  0  0  0  0  0  0  0  0  0  0
   -0.0325  -29.3590   46.0287 C   0  0  0  0  0  0  0  0  0  0  0  0
    2.6442  -30.0631   45.6433 C   0  0  0  0  0  0  0  0  0  0  0  0
    0.9533  -34.3165   42.2757 C   0  0  0  0  0  0  0  0  0  0  0  0
    1.6337  -30.6066   44.8185 C   0  0  0  0  0  0  0  0  0  0  0  0
    1.4637  -36.5291   43.0994 C   0  0  0  0  0  0  0  0  0  0  0  0
    1.4484  -32.9612   41.8129 C   0  0  2  0  0  0  0  0  0  0  0  0
    2.4754  -37.5982   43.3580 C   0  0  0  0  0  0  0  0  0  0  0  0
    0.2055  -31.7660   43.0617 H   0  0  0  0  0  0  0  0  0  0  0  0
    0.9085  -26.7416   49.3283 H   0  0  0  0  0  0  0  0  0  0  0  0
    2.2037  -26.7266   48.1181 H   0  0  0  0  0  0  0  0  0  0  0  0
    2.0805  -28.0759   49.2809 H   0  0  0  0  0  0  0  0  0  0  0  0
   -3.2361  -28.8926   45.9059 H   0  0  0  0  0  0  0  0  0  0  0  0
   -2.5210  -30.4695   45.5248 H   0  0  0  0  0  0  0  0  0  0  0  0
   -2.2635  -29.0837   44.4373 H   0  0  0  0  0  0  0  0  0  0  0  0
    6.3202  -30.8800   44.8712 H   0  0  0  0  0  0  0  0  0  0  0  0
    5.9888  -31.5042   43.2696 H   0  0  0  0  0  0  0  0  0  0  0  0
    5.9388  -32.5734   44.6702 H   0  0  0  0  0  0  0  0  0  0  0  0
    0.2595  -31.5331   40.7065 H   0  0  0  0  0  0  0  0  0  0  0  0
   -0.0369  -33.1709   40.1930 H   0  0  0  0  0  0  0  0  0  0  0  0
    1.4323  -32.3678   39.7084 H   0  0  0  0  0  0  0  0  0  0  0  0
   -1.8854  -35.9614   43.1465 H   0  0  0  0  0  0  0  0  0  0  0  0
   -1.1367  -33.7788   42.3058 H   0  0  0  0  0  0  0  0  0  0  0  0
   -0.2766  -37.7174   43.6423 H   0  0  0  0  0  0  0  0  0  0  0  0
    3.1045  -28.8205   47.2986 H   0  0  0  0  0  0  0  0  0  0  0  0
   -0.4348  -30.6444   44.3400 H   0  0  0  0  0  0  0  0  0  0  0  0
    2.9385  -35.1197   42.4501 H   0  0  0  0  0  0  0  0  0  0  0  0
    2.5164  -33.0128   41.6089 H   0  0  0  0  0  0  0  0  0  0  0  0
  1 28  1  0  0  0  0
  2 28  1  0  0  0  0
  3 28  1  0  0  0  0
  4  9  1  0  0  0  0
  4 21  1  0  0  0  0
  5 10  1  0  0  0  0
  5 22  1  0  0  0  0
  6 19  2  0  0  0  0
  6 20  1  0  0  0  0
  7 19  1  0  0  0  0
  7 23  2  0  0  0  0
  8 20  1  0  0  0  0
  8 27  1  0  0  0  0
  8 29  1  0  0  0  0
  9 30  1  0  0  0  0
  9 31  1  0  0  0  0
  9 32  1  0  0  0  0
 10 33  1  0  0  0  0
 10 34  1  0  0  0  0
 10 35  1  0  0  0  0
 11 19  1  0  0  0  0
 11 36  1  0  0  0  0
 11 37  1  0  0  0  0
 11 38  1  0  0  0  0
 12 27  1  0  0  0  0
 12 39  1  0  0  0  0
 12 40  1  0  0  0  0
 12 41  1  0  0  0  0
 13 14  2  0  0  0  0
 13 15  1  0  0  0  0
 13 42  1  0  0  0  0
 14 24  1  0  0  0  0
 14 43  1  0  0  0  0
 15 26  2  0  0  0  0
 15 44  1  0  0  0  0
 16 21  2  0  0  0  0
 16 23  1  0  0  0  0
 16 45  1  0  0  0  0
 17 22  2  0  0  0  0
 17 25  1  0  0  0  0
 17 46  1  0  0  0  0
 18 24  2  0  0  0  0
 18 26  1  0  0  0  0
 18 47  1  0  0  0  0
 20 25  2  0  0  0  0
 21 22  1  0  0  0  0
 23 25  1  0  0  0  0
 24 27  1  0  0  0  0
 26 28  1  0  0  0  0
 27 48  1  0  0  0  0
M  END
> <pdb_id>
7AVS

> <uniprot_id>
Q07889

> <usmiles>
FC(F)(F)c1cc(ccc1)[C@H](Nc2nc(nc3c2cc(OC)c(OC)c3)C)C

$$$$
S3T_B_1103
          07192420503D 1   1.00000     0.00000     0
            
 47 49  0  0  0  0            999 V2000
    0.3127  -27.8997   47.8297 O   0  0  0  0  0  0  0  0  0  0  0  0
   -1.4473  -29.0146   46.3403 O   0  0  0  0  0  0  0  0  0  0  0  0
   -1.7449  -36.2349   43.2418 N   0  0  0  0  0  0  0  0  0  0  0  0
    3.3998  -31.5804   43.6946 N   0  0  0  0  0  0  0  0  0  0  0  0
    3.9058  -30.1141   45.5081 N   0  0  0  0  0  0  0  0  0  0  0  0
    1.2380  -31.9960   42.9642 N   0  0  0  0  0  0  0  0  0  0  0  0
    1.2294  -27.1879   48.6518 C   0  0  0  0  0  0  0  0  0  0  0  0
   -2.4904  -29.5988   45.5599 C   0  0  0  0  0  0  0  0  0  0  0  0
    5.6993  -31.1951   44.2994 C   0  0  0  0  0  0  0  0  0  0  0  0
    0.9584  -32.5349   40.6079 C   0  0  0  0  0  0  0  0  0  0  0  0
    1.8910  -36.5907   42.9406 C   0  0  0  0  0  0  0  0  0  0  0  0
    0.5627  -36.9041   43.1746 C   0  0  0  0  0  0  0  0  0  0  0  0
    2.2421  -35.3155   42.5328 C   0  0  0  0  0  0  0  0  0  0  0  0
    2.1456  -29.0039   46.6872 C   0  0  0  0  0  0  0  0  0  0  0  0
    0.2312  -30.2027   45.0583 C   0  0  0  0  0  0  0  0  0  0  0  0
   -0.0563  -34.6562   42.6079 C   0  0  0  0  0  0  0  0  0  0  0  0
    4.2427  -30.9578   44.5237 C   0  0  0  0  0  0  0  0  0  0  0  0
    0.8193  -28.7422   46.8783 C   0  0  0  0  0  0  0  0  0  0  0  0
   -0.1526  -29.3531   46.0515 C   0  0  0  0  0  0  0  0  0  0  0  0
    2.0937  -31.3875   43.8350 C   0  0  0  0  0  0  0  0  0  0  0  0
   -0.4283  -35.9345   43.0160 C   0  0  0  0  0  0  0  0  0  0  0  0
    2.5638  -29.8763   45.6573 C   0  0  0  0  0  0  0  0  0  0  0  0
    1.2717  -34.3407   42.3519 C   0  0  0  0  0  0  0  0  0  0  0  0
    1.5882  -30.5042   44.8496 C   0  0  0  0  0  0  0  0  0  0  0  0
    1.6390  -32.9363   41.9143 C   0  0  2  0  0  0  0  0  0  0  0  0
   -2.4685  -35.5329   43.1235 H   0  0  0  0  0  0  0  0  0  0  0  0
   -2.0317  -37.1625   43.5357 H   0  0  0  0  0  0  0  0  0  0  0  0
    0.2451  -31.8344   43.1038 H   0  0  0  0  0  0  0  0  0  0  0  0
    0.7294  -26.5114   49.3434 H   0  0  0  0  0  0  0  0  0  0  0  0
    1.7993  -26.5951   47.9375 H   0  0  0  0  0  0  0  0  0  0  0  0
    1.8988  -27.8456   49.2054 H   0  0  0  0  0  0  0  0  0  0  0  0
   -3.4777  -29.2589   45.8661 H   0  0  0  0  0  0  0  0  0  0  0  0
   -2.4705  -30.6877   45.5426 H   0  0  0  0  0  0  0  0  0  0  0  0
   -2.2893  -29.2158   44.5605 H   0  0  0  0  0  0  0  0  0  0  0  0
    5.9035  -31.3579   43.2419 H   0  0  0  0  0  0  0  0  0  0  0  0
    6.0609  -32.0704   44.8378 H   0  0  0  0  0  0  0  0  0  0  0  0
    6.3064  -30.3481   44.6125 H   0  0  0  0  0  0  0  0  0  0  0  0
    0.1963  -33.2533   40.3100 H   0  0  0  0  0  0  0  0  0  0  0  0
    1.6501  -32.4614   39.7704 H   0  0  0  0  0  0  0  0  0  0  0  0
    0.4568  -31.5731   40.6905 H   0  0  0  0  0  0  0  0  0  0  0  0
    2.6570  -37.3546   43.0659 H   0  0  0  0  0  0  0  0  0  0  0  0
    0.3045  -37.9128   43.4946 H   0  0  0  0  0  0  0  0  0  0  0  0
    3.2883  -35.0897   42.3406 H   0  0  0  0  0  0  0  0  0  0  0  0
    2.9425  -28.5585   47.2795 H   0  0  0  0  0  0  0  0  0  0  0  0
   -0.4777  -30.7137   44.4082 H   0  0  0  0  0  0  0  0  0  0  0  0
   -0.8185  -33.8912   42.4644 H   0  0  0  0  0  0  0  0  0  0  0  0
    2.7129  -32.8916   41.7429 H   0  0  0  0  0  0  0  0  0  0  0  0
  1  7  1  0  0  0  0
  1 18  1  0  0  0  0
  2  8  1  0  0  0  0
  2 19  1  0  0  0  0
  3 21  1  0  0  0  0
  3 26  1  0  0  0  0
  3 27  1  0  0  0  0
  4 17  2  0  0  0  0
  4 20  1  0  0  0  0
  5 17  1  0  0  0  0
  5 22  2  0  0  0  0
  6 20  1  0  0  0  0
  6 25  1  0  0  0  0
  6 28  1  0  0  0  0
  7 29  1  0  0  0  0
  7 30  1  0  0  0  0
  7 31  1  0  0  0  0
  8 32  1  0  0  0  0
  8 33  1  0  0  0  0
  8 34  1  0  0  0  0
  9 17  1  0  0  0  0
  9 35  1  0  0  0  0
  9 36  1  0  0  0  0
  9 37  1  0  0  0  0
 10 25  1  0  0  0  0
 10 38  1  0  0  0  0
 10 39  1  0  0  0  0
 10 40  1  0  0  0  0
 11 12  1  0  0  0  0
 11 13  2  0  0  0  0
 11 41  1  0  0  0  0
 12 21  2  0  0  0  0
 12 42  1  0  0  0  0
 13 23  1  0  0  0  0
 13 43  1  0  0  0  0
 14 18  2  0  0  0  0
 14 22  1  0  0  0  0
 14 44  1  0  0  0  0
 15 19  2  0  0  0  0
 15 24  1  0  0  0  0
 15 45  1  0  0  0  0
 16 21  1  0  0  0  0
 16 23  2  0  0  0  0
 16 46  1  0  0  0  0
 18 19  1  0  0  0  0
 20 24  2  0  0  0  0
 22 24  1  0  0  0  0
 23 25  1  0  0  0  0
 25 47  1  0  0  0  0
M  END
> <pdb_id>
7AVT

> <uniprot_id>
Q07889

> <usmiles>
O(c1c(OC)cc2c(nc(nc2c1)C)N[C@@H](c3cc(N)ccc3)C)C

$$$$
S3Z_B_1101
          07192420503D 1   1.00000     0.00000     0
            
 50 52  0  0  0  0            999 V2000
    3.4971  -37.2826   44.0865 F   0  0  0  0  0  0  0  0  0  0  0  0
    1.9414  -38.7053   43.9393 F   0  0  0  0  0  0  0  0  0  0  0  0
    3.0262  -38.1606   42.2063 F   0  0  0  0  0  0  0  0  0  0  0  0
    0.3849  -27.8508   47.8059 O   0  0  0  0  0  0  0  0  0  0  0  0
   -1.3965  -28.8066   46.2401 O   0  0  0  0  0  0  0  0  0  0  0  0
   -2.1134  -35.9467   43.2418 N   0  0  0  0  0  0  0  0  0  0  0  0
    3.3358  -31.7384   43.7698 N   0  0  0  0  0  0  0  0  0  0  0  0
    3.8722  -30.3320   45.6234 N   0  0  0  0  0  0  0  0  0  0  0  0
    1.1725  -31.9879   42.9291 N   0  0  0  0  0  0  0  0  0  0  0  0
    1.3277  -27.2670   48.6981 C   0  0  0  0  0  0  0  0  0  0  0  0
   -2.4487  -29.2731   45.4013 C   0  0  0  0  0  0  0  0  0  0  0  0
    5.6263  -31.5530   44.5092 C   0  0  0  0  0  0  0  0  0  0  0  0
    0.8889  -32.5357   40.5718 C   0  0  0  0  0  0  0  0  0  0  0  0
    2.1621  -29.0888   46.7277 C   0  0  0  0  0  0  0  0  0  0  0  0
    0.2250  -30.1279   45.0147 C   0  0  0  0  0  0  0  0  0  0  0  0
   -0.2932  -34.5166   42.5859 C   0  0  0  0  0  0  0  0  0  0  0  0
    0.1513  -36.7655   43.2775 C   0  0  0  0  0  0  0  0  0  0  0  0
    1.9565  -35.3345   42.6136 C   0  0  0  0  0  0  0  0  0  0  0  0
    4.1847  -31.1999   44.6529 C   0  0  0  0  0  0  0  0  0  0  0  0
    0.8575  -28.7231   46.8663 C   0  0  0  0  0  0  0  0  0  0  0  0
   -0.1265  -29.2522   45.9993 C   0  0  0  0  0  0  0  0  0  0  0  0
    2.0435  -31.4465   43.8532 C   0  0  0  0  0  0  0  0  0  0  0  0
   -0.7684  -35.7470   43.0337 C   0  0  0  0  0  0  0  0  0  0  0  0
    2.5498  -29.9983   45.7200 C   0  0  0  0  0  0  0  0  0  0  0  0
    1.0597  -34.3068   42.3498 C   0  0  0  0  0  0  0  0  0  0  0  0
    1.5093  -36.5698   43.0584 C   0  0  0  0  0  0  0  0  0  0  0  0
    1.5658  -30.5334   44.8570 C   0  0  0  0  0  0  0  0  0  0  0  0
    1.5404  -32.9494   41.8873 C   0  0  2  0  0  0  0  0  0  0  0  0
    2.4855  -37.6721   43.3229 C   0  0  0  0  0  0  0  0  0  0  0  0
   -2.7909  -35.2103   43.0672 H   0  0  0  0  0  0  0  0  0  0  0  0
   -2.4682  -36.8402   43.5665 H   0  0  0  0  0  0  0  0  0  0  0  0
    0.1954  -31.7416   43.0363 H   0  0  0  0  0  0  0  0  0  0  0  0
    0.7040  -26.6175   49.3101 H   0  0  0  0  0  0  0  0  0  0  0  0
    2.0727  -26.6612   48.1834 H   0  0  0  0  0  0  0  0  0  0  0  0
    1.8203  -27.9955   49.3398 H   0  0  0  0  0  0  0  0  0  0  0  0
   -3.4166  -28.8311   45.6340 H   0  0  0  0  0  0  0  0  0  0  0  0
   -2.4908  -30.3389   45.6244 H   0  0  0  0  0  0  0  0  0  0  0  0
   -2.2349  -29.1302   44.3426 H   0  0  0  0  0  0  0  0  0  0  0  0
    5.8751  -31.6250   43.4489 H   0  0  0  0  0  0  0  0  0  0  0  0
    5.8798  -32.5022   44.9765 H   0  0  0  0  0  0  0  0  0  0  0  0
    6.2851  -30.7972   44.9330 H   0  0  0  0  0  0  0  0  0  0  0  0
    0.1500  -33.2551   40.2241 H   0  0  0  0  0  0  0  0  0  0  0  0
    1.6271  -32.4512   39.7786 H   0  0  0  0  0  0  0  0  0  0  0  0
    0.3886  -31.5732   40.6506 H   0  0  0  0  0  0  0  0  0  0  0  0
    2.9667  -28.7219   47.3633 H   0  0  0  0  0  0  0  0  0  0  0  0
   -0.4893  -30.5662   44.3198 H   0  0  0  0  0  0  0  0  0  0  0  0
   -1.0010  -33.7143   42.3854 H   0  0  0  0  0  0  0  0  0  0  0  0
   -0.2222  -37.7312   43.6200 H   0  0  0  0  0  0  0  0  0  0  0  0
    3.0207  -35.1732   42.4475 H   0  0  0  0  0  0  0  0  0  0  0  0
    2.6195  -32.9831   41.7357 H   0  0  0  0  0  0  0  0  0  0  0  0
  1 29  1  0  0  0  0
  2 29  1  0  0  0  0
  3 29  1  0  0  0  0
  4 10  1  0  0  0  0
  4 20  1  0  0  0  0
  5 11  1  0  0  0  0
  5 21  1  0  0  0  0
  6 23  1  0  0  0  0
  6 30  1  0  0  0  0
  6 31  1  0  0  0  0
  7 19  2  0  0  0  0
  7 22  1  0  0  0  0
  8 19  1  0  0  0  0
  8 24  2  0  0  0  0
  9 22  1  0  0  0  0
  9 28  1  0  0  0  0
  9 32  1  0  0  0  0
 10 33  1  0  0  0  0
 10 34  1  0  0  0  0
 10 35  1  0  0  0  0
 11 36  1  0  0  0  0
 11 37  1  0  0  0  0
 11 38  1  0  0  0  0
 12 19  1  0  0  0  0
 12 39  1  0  0  0  0
 12 40  1  0  0  0  0
 12 41  1  0  0  0  0
 13 28  1  0  0  0  0
 13 42  1  0  0  0  0
 13 43  1  0  0  0  0
 13 44  1  0  0  0  0
 14 20  2  0  0  0  0
 14 24  1  0  0  0  0
 14 45  1  0  0  0  0
 15 21  2  0  0  0  0
 15 27  1  0  0  0  0
 15 46  1  0  0  0  0
 16 23  2  0  0  0  0
 16 25  1  0  0  0  0
 16 47  1  0  0  0  0
 17 23  1  0  0  0  0
 17 26  2  0  0  0  0
 17 48  1  0  0  0  0
 18 25  2  0  0  0  0
 18 26  1  0  0  0  0
 18 49  1  0  0  0  0
 20 21  1  0  0  0  0
 22 27  2  0  0  0  0
 24 27  1  0  0  0  0
 25 28  1  0  0  0  0
 26 29  1  0  0  0  0
 28 50  1  0  0  0  0
M  END
> <pdb_id>
7AVU

> <uniprot_id>
Q07889

> <usmiles>
FC(F)(F)c1cc(N)cc(c1)[C@H](Nc2nc(nc3c2cc(OC)c(OC)c3)C)C

$$$$
S43_A_103
          07212403313D 1   1.00000     0.00000     0
            
 81 82  0  0  0  0            999 V2000
    9.9872   14.5976    5.7191 O   0  0  0  0  0  0  0  0  0  0  0  0
    8.2258   16.6844    7.5109 O   0  0  0  0  0  0  0  0  0  0  0  0
    5.8083   19.2302    8.0844 O   0  0  0  0  0  0  0  0  0  0  0  0
   12.1654   18.8130    6.6767 O   0  0  0  0  0  0  0  0  0  0  0  0
   11.3166   15.1270    3.9055 O   0  0  0  0  0  0  0  0  0  0  0  0
    4.9196   17.3676    8.9971 N   0  0  0  0  0  0  0  0  0  0  0  0
   11.7965   16.1864    5.8703 N   0  0  0  0  0  0  0  0  0  0  0  0
    8.3782   18.5179    8.8091 N   0  0  0  0  0  0  0  0  0  0  0  0
    6.1704   18.0403   11.9786 C   0  0  0  0  0  0  0  0  0  0  0  0
    6.8776   20.2334   10.9270 C   0  0  0  0  0  0  0  0  0  0  0  0
   10.4748   14.4211    2.9536 C   0  0  0  0  0  0  0  0  0  0  0  0
    3.6071   17.4687    8.3734 C   0  0  0  0  0  0  0  0  0  0  0  0
    9.8188   15.3420    1.9237 C   0  0  0  0  0  0  0  0  0  0  0  0
    3.4347   16.2649    7.4499 C   0  0  0  0  0  0  0  0  0  0  0  0
    9.4363   16.7522    2.4257 C   0  0  0  0  0  0  0  0  0  0  0  0
    4.4892   16.2566    6.3233 C   0  0  0  0  0  0  0  0  0  0  0  0
    7.9552   16.9505    2.7858 C   0  0  0  0  0  0  0  0  0  0  0  0
    4.2639   17.4173    5.3393 C   0  0  0  0  0  0  0  0  0  0  0  0
    7.7111   17.6198    4.1262 C   0  0  0  0  0  0  0  0  0  0  0  0
    5.1744   17.3841    4.1045 C   0  0  0  0  0  0  0  0  0  0  0  0
    6.3668   18.3163    4.3311 C   0  0  0  0  0  0  0  0  0  0  0  0
   14.2934   12.1588    8.1484 C   0  0  0  0  0  0  0  0  0  0  0  0
   13.0643   12.4993    8.5281 C   0  0  0  0  0  0  0  0  0  0  0  0
   15.1181   13.1374    7.7216 C   0  0  0  0  0  0  0  0  0  0  0  0
   12.6556   13.7813    8.4789 C   0  0  0  0  0  0  0  0  0  0  0  0
   14.6915   14.4236    7.6564 C   0  0  0  0  0  0  0  0  0  0  0  0
    9.8217   18.3377    6.8279 C   0  0  0  0  0  0  0  0  0  0  0  0
   12.9918   16.2145    8.0010 C   0  0  0  0  0  0  0  0  0  0  0  0
   10.9143   15.1905    5.1800 C   0  0  0  0  0  0  0  0  0  0  0  0
    8.7392   17.7674    7.7638 C   0  0  0  0  0  0  0  0  0  0  0  0
    5.9043   18.2627    8.8265 C   0  0  0  0  0  0  0  0  0  0  0  0
   11.2117   18.0250    7.3935 C   0  0  1  0  0  0  0  0  0  0  0  0
    7.1886   18.7250   11.0187 C   0  0  0  0  0  0  0  0  0  0  0  0
   11.6662   16.5498    7.2635 C   0  0  1  0  0  0  0  0  0  0  0  0
    7.1965   18.0305    9.6370 C   0  0  2  0  0  0  0  0  0  0  0  0
   13.4314   14.7603    8.0080 C   0  0  0  0  0  0  0  0  0  0  0  0
   13.0830   18.6267    7.0279 H   0  0  0  0  0  0  0  0  0  0  0  0
    5.0978   16.5819    9.5895 H   0  0  0  0  0  0  0  0  0  0  0  0
   12.5182   16.6256    5.3353 H   0  0  0  0  0  0  0  0  0  0  0  0
    8.8627   19.3623    9.0376 H   0  0  0  0  0  0  0  0  0  0  0  0
    6.3730   17.0628   12.0372 H   0  0  0  0  0  0  0  0  0  0  0  0
    6.2415   18.4506   12.8878 H   0  0  0  0  0  0  0  0  0  0  0  0
    5.2430   18.1680   11.6269 H   0  0  0  0  0  0  0  0  0  0  0  0
    7.5318   20.6718   10.3106 H   0  0  0  0  0  0  0  0  0  0  0  0
    5.9505   20.3618   10.5749 H   0  0  0  0  0  0  0  0  0  0  0  0
    6.9490   20.6444   11.8358 H   0  0  0  0  0  0  0  0  0  0  0  0
    9.7541   13.9463    3.4588 H   0  0  0  0  0  0  0  0  0  0  0  0
   11.0375   13.7522    2.4679 H   0  0  0  0  0  0  0  0  0  0  0  0
    3.5464   18.3150    7.8441 H   0  0  0  0  0  0  0  0  0  0  0  0
    2.8954   17.4632    9.0759 H   0  0  0  0  0  0  0  0  0  0  0  0
    8.9846   14.8951    1.6005 H   0  0  0  0  0  0  0  0  0  0  0  0
   10.4557   15.4508    1.1604 H   0  0  0  0  0  0  0  0  0  0  0  0
    2.5229   16.2981    7.0405 H   0  0  0  0  0  0  0  0  0  0  0  0
    3.5282   15.4273    7.9879 H   0  0  0  0  0  0  0  0  0  0  0  0
    9.6685   17.4079    1.7073 H   0  0  0  0  0  0  0  0  0  0  0  0
    9.9800   16.9460    3.2423 H   0  0  0  0  0  0  0  0  0  0  0  0
    4.4279   15.3912    5.8260 H   0  0  0  0  0  0  0  0  0  0  0  0
    5.3993   16.3446    6.7282 H   0  0  0  0  0  0  0  0  0  0  0  0
    7.5158   16.0524    2.8018 H   0  0  0  0  0  0  0  0  0  0  0  0
    7.5348   17.5146    2.0752 H   0  0  0  0  0  0  0  0  0  0  0  0
    4.4266   18.2760    5.8253 H   0  0  0  0  0  0  0  0  0  0  0  0
    3.3139   17.3848    5.0288 H   0  0  0  0  0  0  0  0  0  0  0  0
    8.4269   18.3065    4.2531 H   0  0  0  0  0  0  0  0  0  0  0  0
    7.7950   16.9165    4.8322 H   0  0  0  0  0  0  0  0  0  0  0  0
    4.6606   17.6878    3.3021 H   0  0  0  0  0  0  0  0  0  0  0  0
    5.5029   16.4513    3.9565 H   0  0  0  0  0  0  0  0  0  0  0  0
    6.3017   19.0801    3.6890 H   0  0  0  0  0  0  0  0  0  0  0  0
    6.3268   18.6641    5.2679 H   0  0  0  0  0  0  0  0  0  0  0  0
   14.5966   11.2064    8.1785 H   0  0  0  0  0  0  0  0  0  0  0  0
   12.4357   11.7934    8.8543 H   0  0  0  0  0  0  0  0  0  0  0  0
   16.0539   12.9123    7.4504 H   0  0  0  0  0  0  0  0  0  0  0  0
   11.7385   14.0081    8.8067 H   0  0  0  0  0  0  0  0  0  0  0  0
   15.3207   15.1347    7.3426 H   0  0  0  0  0  0  0  0  0  0  0  0
    9.7083   19.3284    6.7536 H   0  0  0  0  0  0  0  0  0  0  0  0
    9.7303   17.9229    5.9226 H   0  0  0  0  0  0  0  0  0  0  0  0
   12.8880   16.5023    8.9530 H   0  0  0  0  0  0  0  0  0  0  0  0
   13.7198   16.7471    7.5692 H   0  0  0  0  0  0  0  0  0  0  0  0
   11.2350   18.2871    8.3583 H   0  0  0  0  0  0  0  0  0  0  0  0
    8.1003   18.6242   11.4172 H   0  0  0  0  0  0  0  0  0  0  0  0
   10.9481   15.9771    7.6587 H   0  0  0  0  0  0  0  0  0  0  0  0
    7.3016   17.0467    9.7824 H   0  0  0  0  0  0  0  0  0  0  0  0
  1 29  2  0  0  0  0
  2 30  2  0  0  0  0
  3 31  2  0  0  0  0
  4 32  1  0  0  0  0
  5 11  1  0  0  0  0
  5 29  1  0  0  0  0
  6 12  1  0  0  0  0
  6 31  1  0  0  0  0
  7 29  1  0  0  0  0
  7 34  1  0  0  0  0
  8 30  1  0  0  0  0
  8 35  1  0  0  0  0
  9 33  1  0  0  0  0
 10 33  1  0  0  0  0
 11 13  1  0  0  0  0
 12 14  1  0  0  0  0
 13 15  1  0  0  0  0
 14 16  1  0  0  0  0
 15 17  1  0  0  0  0
 16 18  1  0  0  0  0
 17 19  1  0  0  0  0
 18 20  1  0  0  0  0
 19 21  1  0  0  0  0
 20 21  1  0  0  0  0
 22 23  2  0  0  0  0
 22 24  1  0  0  0  0
 23 25  1  0  0  0  0
 24 26  2  0  0  0  0
 25 36  2  0  0  0  0
 26 36  1  0  0  0  0
 27 30  1  0  0  0  0
 27 32  1  0  0  0  0
 28 34  1  0  0  0  0
 28 36  1  0  0  0  0
 31 35  1  0  0  0  0
 32 34  1  0  0  0  0
 33 35  1  0  0  0  0
  4 37  1  0  0  0  0
  6 38  1  0  0  0  0
  7 39  1  0  0  0  0
  8 40  1  0  0  0  0
  9 41  1  0  0  0  0
  9 42  1  0  0  0  0
  9 43  1  0  0  0  0
 10 44  1  0  0  0  0
 10 45  1  0  0  0  0
 10 46  1  0  0  0  0
 11 47  1  0  0  0  0
 11 48  1  0  0  0  0
 12 49  1  0  0  0  0
 12 50  1  0  0  0  0
 13 51  1  0  0  0  0
 13 52  1  0  0  0  0
 14 53  1  0  0  0  0
 14 54  1  0  0  0  0
 15 55  1  0  0  0  0
 15 56  1  0  0  0  0
 16 57  1  0  0  0  0
 16 58  1  0  0  0  0
 17 59  1  0  0  0  0
 17 60  1  0  0  0  0
 18 61  1  0  0  0  0
 18 62  1  0  0  0  0
 19 63  1  0  0  0  0
 19 64  1  0  0  0  0
 20 65  1  0  0  0  0
 20 66  1  0  0  0  0
 21 67  1  0  0  0  0
 21 68  1  0  0  0  0
 22 69  1  0  0  0  0
 23 70  1  0  0  0  0
 24 71  1  0  0  0  0
 25 72  1  0  0  0  0
 26 73  1  0  0  0  0
 27 74  1  0  0  0  0
 27 75  1  0  0  0  0
 28 76  1  0  0  0  0
 28 77  1  0  0  0  0
 32 78  1  0  0  0  0
 33 79  1  0  0  0  0
 34 80  1  0  0  0  0
 35 81  1  0  0  0  0
M  END
> <pdb_id>
6QBH

> <uniprot_id>
P07339

> <usmiles>
O=C1OCCCCCCCCCCCNC(=O)[C@@H](NC(=O)C[C@H](O)[C@@H](N1)Cc2ccccc2)C(C)C

$$$$
S54_H_2
          07202416143D 1   1.00000     0.00000     0
            
 68 70  0  0  0  0            999 V2000
   13.2681  -16.8911   13.2699 S   0  0  0  0  0  0  0  0  0  0  0  0
   14.2986  -17.6618   12.6390 O   0  0  0  0  0  0  0  0  0  0  0  0
   12.4621  -17.6739   14.1716 O   0  0  0  0  0  0  0  0  0  0  0  0
   11.9817  -13.4058   15.7093 O   0  0  0  0  0  0  0  0  0  0  0  0
   11.9829  -13.5819   12.5314 O   0  0  0  0  0  0  0  0  0  0  0  0
   18.1944  -12.1949   11.1940 N   0  0  0  0  0  0  0  0  0  0  0  0
   17.8889   -9.9917   10.8860 N   0  0  0  0  0  0  0  0  0  0  0  0
   12.3199  -16.2946   12.1099 N   0  0  0  0  0  0  0  0  0  0  0  0
   12.2074  -11.3092   14.9658 N   0  0  0  0  0  0  0  0  0  0  0  0
   10.1628  -13.9187   13.7712 N   0  0  0  0  0  0  0  0  0  0  0  0
    9.8854  -17.3962   10.8375 C   0  0  0  0  0  0  0  0  0  0  0  0
   10.5972  -15.1514   10.0244 C   0  0  0  0  0  0  0  0  0  0  0  0
   13.9842  -15.6019   14.0831 C   0  0  0  0  0  0  0  0  0  0  0  0
   13.4892  -11.0748   15.6126 C   0  0  0  0  0  0  0  0  0  0  0  0
    9.0724  -14.7098   14.3137 C   0  0  0  0  0  0  0  0  0  0  0  0
    8.2168  -13.7083   15.0744 C   0  0  0  0  0  0  0  0  0  0  0  0
   16.8238  -16.9018   17.0454 C   0  0  0  0  0  0  0  0  0  0  0  0
   17.2609  -16.4973   15.7896 C   0  0  0  0  0  0  0  0  0  0  0  0
   15.4669  -16.8858   17.3456 C   0  0  0  0  0  0  0  0  0  0  0  0
    9.0908  -12.5027   15.3537 C   0  0  0  0  0  0  0  0  0  0  0  0
   16.3421  -16.0699   14.8360 C   0  0  0  0  0  0  0  0  0  0  0  0
   14.5501  -16.4664   16.3888 C   0  0  0  0  0  0  0  0  0  0  0  0
   14.8195   -9.9337   13.8062 C   0  0  0  0  0  0  0  0  0  0  0  0
   15.2845  -12.2319   14.2943 C   0  0  0  0  0  0  0  0  0  0  0  0
   15.8009   -9.9622   12.8261 C   0  0  0  0  0  0  0  0  0  0  0  0
   16.2669  -12.2563   13.3093 C   0  0  0  0  0  0  0  0  0  0  0  0
   11.5429  -12.4537   15.0646 C   0  0  0  0  0  0  0  0  0  0  0  0
   17.5893  -11.1224   11.5118 C   0  0  0  0  0  0  0  0  0  0  0  0
   11.0860  -14.3348   12.9058 C   0  0  0  0  0  0  0  0  0  0  0  0
   10.9949  -15.7647   12.4163 C   0  0  1  0  0  0  0  0  0  0  0  0
   10.0682  -15.9238   11.2172 C   0  0  0  0  0  0  0  0  0  0  0  0
   10.2281  -12.5720   14.3415 C   0  0  1  0  0  0  0  0  0  0  0  0
   14.9832  -16.0578   15.1301 C   0  0  0  0  0  0  0  0  0  0  0  0
   14.5593  -11.0751   14.5437 C   0  0  0  0  0  0  0  0  0  0  0  0
   16.5341  -11.1120   12.5758 C   0  0  0  0  0  0  0  0  0  0  0  0
   17.9736  -13.0509   11.6616 H   0  0  0  0  0  0  0  0  0  0  0  0
   18.8909  -12.1823   10.4766 H   0  0  0  0  0  0  0  0  0  0  0  0
   17.4171   -9.1446   11.1307 H   0  0  0  0  0  0  0  0  0  0  0  0
   12.1846  -17.0313   11.4473 H   0  0  0  0  0  0  0  0  0  0  0  0
   11.8078  -10.5725   14.4203 H   0  0  0  0  0  0  0  0  0  0  0  0
    9.5366  -17.9029   11.6259 H   0  0  0  0  0  0  0  0  0  0  0  0
    9.2350  -17.4671   10.0813 H   0  0  0  0  0  0  0  0  0  0  0  0
   10.7654  -17.7799   10.5574 H   0  0  0  0  0  0  0  0  0  0  0  0
   10.7155  -14.1906   10.2753 H   0  0  0  0  0  0  0  0  0  0  0  0
   11.4777  -15.5335    9.7437 H   0  0  0  0  0  0  0  0  0  0  0  0
    9.9473  -15.2207    9.2676 H   0  0  0  0  0  0  0  0  0  0  0  0
   13.2677  -15.0695   14.5340 H   0  0  0  0  0  0  0  0  0  0  0  0
   14.4581  -15.0261   13.4169 H   0  0  0  0  0  0  0  0  0  0  0  0
   13.6721  -11.8002   16.2762 H   0  0  0  0  0  0  0  0  0  0  0  0
   13.4767  -10.1908   16.0801 H   0  0  0  0  0  0  0  0  0  0  0  0
    9.4208  -15.4166   14.9294 H   0  0  0  0  0  0  0  0  0  0  0  0
    8.5464  -15.1378   13.5787 H   0  0  0  0  0  0  0  0  0  0  0  0
    7.9002  -14.1097   15.9338 H   0  0  0  0  0  0  0  0  0  0  0  0
    7.4281  -13.4401   14.5212 H   0  0  0  0  0  0  0  0  0  0  0  0
   17.4849  -17.2039   17.7322 H   0  0  0  0  0  0  0  0  0  0  0  0
   18.2366  -16.5135   15.5711 H   0  0  0  0  0  0  0  0  0  0  0  0
   15.1505  -17.1758   18.2488 H   0  0  0  0  0  0  0  0  0  0  0  0
    9.4511  -12.5420   16.2858 H   0  0  0  0  0  0  0  0  0  0  0  0
    8.5685  -11.6584   15.2337 H   0  0  0  0  0  0  0  0  0  0  0  0
   16.6602  -15.7705   13.9364 H   0  0  0  0  0  0  0  0  0  0  0  0
   13.5739  -16.4579   16.6057 H   0  0  0  0  0  0  0  0  0  0  0  0
   14.3039   -9.0944   13.9784 H   0  0  0  0  0  0  0  0  0  0  0  0
   15.0990  -13.0567   14.8283 H   0  0  0  0  0  0  0  0  0  0  0  0
   15.9830   -9.1379   12.2901 H   0  0  0  0  0  0  0  0  0  0  0  0
   16.7783  -13.0970   13.1315 H   0  0  0  0  0  0  0  0  0  0  0  0
   10.6173  -16.3136   13.1621 H   0  0  0  0  0  0  0  0  0  0  0  0
    9.1735  -15.5497   11.4609 H   0  0  0  0  0  0  0  0  0  0  0  0
   10.1336  -11.8701   13.6356 H   0  0  0  0  0  0  0  0  0  0  0  0
  1  2  2  0  0  0  0
  1  3  2  0  0  0  0
  1  8  1  0  0  0  0
  1 13  1  0  0  0  0
  4 27  2  0  0  0  0
  5 29  2  0  0  0  0
  6 28  1  0  0  0  0
  7 28  2  0  0  0  0
  8 30  1  0  0  0  0
  9 14  1  0  0  0  0
  9 27  1  0  0  0  0
 10 15  1  0  0  0  0
 10 29  1  0  0  0  0
 10 32  1  0  0  0  0
 11 31  1  0  0  0  0
 12 31  1  0  0  0  0
 13 33  1  0  0  0  0
 14 34  1  0  0  0  0
 15 16  1  0  0  0  0
 16 20  1  0  0  0  0
 17 18  2  0  0  0  0
 17 19  1  0  0  0  0
 18 21  1  0  0  0  0
 19 22  2  0  0  0  0
 20 32  1  0  0  0  0
 21 33  2  0  0  0  0
 22 33  1  0  0  0  0
 23 25  1  0  0  0  0
 23 34  2  0  0  0  0
 24 26  2  0  0  0  0
 24 34  1  0  0  0  0
 25 35  2  0  0  0  0
 26 35  1  0  0  0  0
 27 32  1  0  0  0  0
 28 35  1  0  0  0  0
 29 30  1  0  0  0  0
 30 31  1  0  0  0  0
  6 36  1  0  0  0  0
  6 37  1  0  0  0  0
  7 38  1  0  0  0  0
  8 39  1  0  0  0  0
  9 40  1  0  0  0  0
 11 41  1  0  0  0  0
 11 42  1  0  0  0  0
 11 43  1  0  0  0  0
 12 44  1  0  0  0  0
 12 45  1  0  0  0  0
 12 46  1  0  0  0  0
 13 47  1  0  0  0  0
 13 48  1  0  0  0  0
 14 49  1  0  0  0  0
 14 50  1  0  0  0  0
 15 51  1  0  0  0  0
 15 52  1  0  0  0  0
 16 53  1  0  0  0  0
 16 54  1  0  0  0  0
 17 55  1  0  0  0  0
 18 56  1  0  0  0  0
 19 57  1  0  0  0  0
 20 58  1  0  0  0  0
 20 59  1  0  0  0  0
 21 60  1  0  0  0  0
 22 61  1  0  0  0  0
 23 62  1  0  0  0  0
 24 63  1  0  0  0  0
 25 64  1  0  0  0  0
 26 65  1  0  0  0  0
 30 66  1  0  0  0  0
 31 67  1  0  0  0  0
 32 68  1  0  0  0  0
M  END
> <pdb_id>
3RM0

> <uniprot_id>
P00734

> <usmiles>
S(=O)(=O)(N[C@@H](C(=O)N1[C@H](C(=O)NCc2ccc(cc2)C(=N)N)CCC1)C(C)C)Cc3ccccc3

$$$$
S5M_A_1103
          07202413473D 1   1.00000     0.00000     0
            
 53 56  0  0  0  0            999 V2000
   99.9688  114.5458   -7.8970 O   0  0  0  0  0  0  0  0  0  0  0  0
   95.8006  108.1026  -13.4303 N   0  0  0  0  0  0  0  0  0  0  0  0
   96.8313  109.4563  -11.7252 N   0  0  0  0  0  0  0  0  0  0  0  0
   98.1747  115.6564   -8.6678 N   0  0  0  0  0  0  0  0  0  0  0  0
   95.0741  109.3512  -15.3720 N   0  0  0  0  0  0  0  0  0  0  0  0
   96.0936  116.4078   -1.8873 C   0  0  0  0  0  0  0  0  0  0  0  0
   97.6689  118.3115   -2.1130 C   0  0  0  0  0  0  0  0  0  0  0  0
   98.4752  116.1460   -1.2196 C   0  0  0  0  0  0  0  0  0  0  0  0
   96.3854  108.3032  -12.2500 C   0  0  0  0  0  0  0  0  0  0  0  0
   95.1026  110.6804  -15.7330 C   0  0  0  0  0  0  0  0  0  0  0  0
   98.5562  115.5142  -10.0703 C   0  0  0  0  0  0  0  0  0  0  0  0
   95.6785  111.4247  -14.7463 C   0  0  0  0  0  0  0  0  0  0  0  0
   97.5324  113.2183   -9.8993 C   0  0  0  0  0  0  0  0  0  0  0  0
   98.1262  114.0330  -12.0547 C   0  0  0  0  0  0  0  0  0  0  0  0
   97.0871  112.0365  -10.4596 C   0  0  0  0  0  0  0  0  0  0  0  0
   97.6902  112.8501  -12.6237 C   0  0  0  0  0  0  0  0  0  0  0  0
   99.4952  115.5050   -5.2627 C   0  0  0  0  0  0  0  0  0  0  0  0
   97.2987  116.0761   -5.9980 C   0  0  0  0  0  0  0  0  0  0  0  0
   99.1602  115.8830   -3.9737 C   0  0  0  0  0  0  0  0  0  0  0  0
   96.9743  116.4493   -4.7060 C   0  0  0  0  0  0  0  0  0  0  0  0
   98.9562  115.2100   -7.6841 C   0  0  0  0  0  0  0  0  0  0  0  0
   95.6412  109.2310  -14.1377 C   0  0  0  0  0  0  0  0  0  0  0  0
   98.0556  114.2316  -10.6849 C   0  0  0  0  0  0  0  0  0  0  0  0
   96.6557  110.5855  -12.4423 C   0  0  0  0  0  0  0  0  0  0  0  0
   98.5680  115.6021   -6.2883 C   0  0  0  0  0  0  0  0  0  0  0  0
   97.1441  111.8427  -11.8353 C   0  0  0  0  0  0  0  0  0  0  0  0
   97.8893  116.3537   -3.6610 C   0  0  0  0  0  0  0  0  0  0  0  0
   96.0393  110.5145  -13.7031 C   0  0  0  0  0  0  0  0  0  0  0  0
   97.5326  116.7913   -2.2382 C   0  0  0  0  0  0  0  0  0  0  0  0
   97.3074  116.0988   -8.4400 H   0  0  0  0  0  0  0  0  0  0  0  0
   94.7014  108.6030  -15.9209 H   0  0  0  0  0  0  0  0  0  0  0  0
   95.9847  115.4167   -1.9634 H   0  0  0  0  0  0  0  0  0  0  0  0
   95.8912  116.6944   -0.9508 H   0  0  0  0  0  0  0  0  0  0  0  0
   95.4643  116.8617   -2.5181 H   0  0  0  0  0  0  0  0  0  0  0  0
   98.6047  118.5820   -2.3390 H   0  0  0  0  0  0  0  0  0  0  0  0
   97.0320  118.7563   -2.7428 H   0  0  0  0  0  0  0  0  0  0  0  0
   97.4589  118.5890   -1.1755 H   0  0  0  0  0  0  0  0  0  0  0  0
   99.4200  116.3897   -1.4387 H   0  0  0  0  0  0  0  0  0  0  0  0
   98.2504  116.4747   -0.3024 H   0  0  0  0  0  0  0  0  0  0  0  0
   98.3712  115.1519   -1.2523 H   0  0  0  0  0  0  0  0  0  0  0  0
   96.5082  107.4899  -11.6812 H   0  0  0  0  0  0  0  0  0  0  0  0
   94.7515  111.0466  -16.5947 H   0  0  0  0  0  0  0  0  0  0  0  0
   99.5541  115.5304  -10.1331 H   0  0  0  0  0  0  0  0  0  0  0  0
   98.1773  116.2839  -10.5840 H   0  0  0  0  0  0  0  0  0  0  0  0
   95.8209  112.4145  -14.7509 H   0  0  0  0  0  0  0  0  0  0  0  0
   97.4759  113.3442   -8.9088 H   0  0  0  0  0  0  0  0  0  0  0  0
   98.4973  114.7544  -12.6394 H   0  0  0  0  0  0  0  0  0  0  0  0
   96.7212  111.3152   -9.8715 H   0  0  0  0  0  0  0  0  0  0  0  0
   97.7683  112.7178  -13.6118 H   0  0  0  0  0  0  0  0  0  0  0  0
  100.4135  115.1592   -5.4553 H   0  0  0  0  0  0  0  0  0  0  0  0
   96.6153  116.1486   -6.7244 H   0  0  0  0  0  0  0  0  0  0  0  0
   99.8478  115.8161   -3.2507 H   0  0  0  0  0  0  0  0  0  0  0  0
   96.0562  116.7979   -4.5172 H   0  0  0  0  0  0  0  0  0  0  0  0
  1 21  2  0  0  0  0
  2  9  2  0  0  0  0
  2 22  1  0  0  0  0
  3  9  1  0  0  0  0
  3 24  2  0  0  0  0
  4 11  1  0  0  0  0
  4 21  1  0  0  0  0
  5 10  1  0  0  0  0
  5 22  1  0  0  0  0
  6 29  1  0  0  0  0
  7 29  1  0  0  0  0
  8 29  1  0  0  0  0
 10 12  2  0  0  0  0
 11 23  1  0  0  0  0
 12 28  1  0  0  0  0
 13 15  1  0  0  0  0
 13 23  2  0  0  0  0
 14 16  2  0  0  0  0
 14 23  1  0  0  0  0
 15 26  2  0  0  0  0
 16 26  1  0  0  0  0
 17 19  1  0  0  0  0
 17 25  2  0  0  0  0
 18 20  2  0  0  0  0
 18 25  1  0  0  0  0
 19 27  2  0  0  0  0
 20 27  1  0  0  0  0
 21 25  1  0  0  0  0
 22 28  2  0  0  0  0
 24 26  1  0  0  0  0
 24 28  1  0  0  0  0
 27 29  1  0  0  0  0
  4 30  1  0  0  0  0
  5 31  1  0  0  0  0
  6 32  1  0  0  0  0
  6 33  1  0  0  0  0
  6 34  1  0  0  0  0
  7 35  1  0  0  0  0
  7 36  1  0  0  0  0
  7 37  1  0  0  0  0
  8 38  1  0  0  0  0
  8 39  1  0  0  0  0
  8 40  1  0  0  0  0
  9 41  1  0  0  0  0
 10 42  1  0  0  0  0
 11 43  1  0  0  0  0
 11 44  1  0  0  0  0
 12 45  1  0  0  0  0
 13 46  1  0  0  0  0
 14 47  1  0  0  0  0
 15 48  1  0  0  0  0
 16 49  1  0  0  0  0
 17 50  1  0  0  0  0
 18 51  1  0  0  0  0
 19 52  1  0  0  0  0
 20 53  1  0  0  0  0
M  END
> <pdb_id>
6W06

> <uniprot_id>
Q06187

> <usmiles>
O=C(NCc1ccc(c2ncnc3NC=Cc32)cc1)c4ccc(cc4)C(C)(C)C

$$$$
S60_A_400
          07202407253D 1   1.00000     0.00000     0
            
 25 27  0  0  0  0            999 V2000
  103.4606   16.8626   24.1165 O   0  0  0  0  0  0  0  0  0  0  0  0
   99.2194   15.3808   24.7901 N   0  0  0  0  0  0  0  0  0  0  0  0
  101.3753   16.0967   24.4653 N   0  0  0  0  0  0  0  0  0  0  0  0
  100.0128   15.6559   22.6980 N   0  0  0  0  0  0  0  0  0  0  0  0
  101.8199   16.2803   18.1912 N   0  0  0  0  0  0  0  0  0  0  0  0
  103.7376   16.9120   18.8688 N   0  0  0  0  0  0  0  0  0  0  0  0
  103.4109   16.8163   16.3914 C   0  0  0  0  0  0  0  0  0  0  0  0
  100.7015   15.8969   20.4026 C   0  0  0  0  0  0  0  0  0  0  0  0
  103.2567   16.7384   21.3327 C   0  0  0  0  0  0  0  0  0  0  0  0
  100.2055   15.7123   23.9635 C   0  0  0  0  0  0  0  0  0  0  0  0
  102.3874   16.4371   23.7120 C   0  0  0  0  0  0  0  0  0  0  0  0
  102.9781   16.6665   17.8357 C   0  0  0  0  0  0  0  0  0  0  0  0
  101.7349   16.2443   19.5315 C   0  0  0  0  0  0  0  0  0  0  0  0
  102.9820   16.6559   19.9732 C   0  0  0  0  0  0  0  0  0  0  0  0
  100.9601   15.9742   21.7729 C   0  0  0  0  0  0  0  0  0  0  0  0
  102.2243   16.3909   22.2067 C   0  0  0  0  0  0  0  0  0  0  0  0
   98.3357   15.0903   24.4231 H   0  0  0  0  0  0  0  0  0  0  0  0
   99.3609   15.4218   25.7792 H   0  0  0  0  0  0  0  0  0  0  0  0
  101.4850   16.1264   25.4588 H   0  0  0  0  0  0  0  0  0  0  0  0
  101.0795   16.0385   17.5640 H   0  0  0  0  0  0  0  0  0  0  0  0
  104.3594   17.1314   16.3587 H   0  0  0  0  0  0  0  0  0  0  0  0
  103.3369   15.9333   15.9279 H   0  0  0  0  0  0  0  0  0  0  0  0
  102.8222   17.4831   15.9345 H   0  0  0  0  0  0  0  0  0  0  0  0
   99.8095   15.6036   20.0586 H   0  0  0  0  0  0  0  0  0  0  0  0
  104.1512   17.0327   21.6693 H   0  0  0  0  0  0  0  0  0  0  0  0
  1 11  2  0  0  0  0
  2 10  1  0  0  0  0
  3 10  1  0  0  0  0
  3 11  1  0  0  0  0
  4 10  2  0  0  0  0
  4 15  1  0  0  0  0
  5 12  1  0  0  0  0
  5 13  1  0  0  0  0
  6 12  2  0  0  0  0
  6 14  1  0  0  0  0
  7 12  1  0  0  0  0
  8 13  1  0  0  0  0
  8 15  2  0  0  0  0
  9 14  1  0  0  0  0
  9 16  2  0  0  0  0
 11 16  1  0  0  0  0
 13 14  2  0  0  0  0
 15 16  1  0  0  0  0
  2 17  1  0  0  0  0
  2 18  1  0  0  0  0
  3 19  1  0  0  0  0
  5 20  1  0  0  0  0
  7 21  1  0  0  0  0
  7 22  1  0  0  0  0
  7 23  1  0  0  0  0
  8 24  1  0  0  0  0
  9 25  1  0  0  0  0
M  END
> <pdb_id>
3C2Y

> <uniprot_id>
P28720

> <usmiles>
O=C1NC(=Nc2c1cc3N=C(Nc3c2)C)N

$$$$
S6I_A_263
          07192416293D 1   1.00000     0.00000     0
            
 36 37  0  0  0  0            999 V2000
   -5.8981    0.9666   16.8379 S   0  0  0  0  0  0  0  0  0  0  0  0
   -7.3463    1.1473   16.7182 O   0  0  0  0  0  0  0  0  0  0  0  0
   -5.3922    1.1099   18.2047 O   0  0  0  0  0  0  0  0  0  0  0  0
   -4.3468    6.8978   13.6620 O   0  0  0  0  0  0  0  0  0  0  0  0
   -5.4167   -0.5042   16.2300 N   0  0  0  0  0  0  0  0  0  0  0  0
   -2.9649    5.0902   13.7112 N   0  0  0  0  0  0  0  0  0  0  0  0
   -2.1380    7.1691   12.9769 N   0  0  0  0  0  0  0  0  0  0  0  0
   -5.8033    3.2849   15.3778 C   0  0  0  0  0  0  0  0  0  0  0  0
   -3.7381    2.1283   15.5701 C   0  0  0  0  0  0  0  0  0  0  0  0
   -5.1660    4.2694   14.6496 C   0  0  0  0  0  0  0  0  0  0  0  0
   -3.1268    3.0808   14.8612 C   0  0  0  0  0  0  0  0  0  0  0  0
   -0.7679    9.0944   14.7703 C   0  0  0  0  0  0  0  0  0  0  0  0
    0.1027    9.0295   13.5416 C   0  0  0  0  0  0  0  0  0  0  0  0
   -2.1718    9.0615   14.2677 C   0  0  0  0  0  0  0  0  0  0  0  0
   -0.8417    8.9629   12.3403 C   0  0  0  0  0  0  0  0  0  0  0  0
   -3.2862    6.4185   13.3898 C   0  0  0  0  0  0  0  0  0  0  0  0
   -5.1059    2.2110   15.8546 C   0  0  0  0  0  0  0  0  0  0  0  0
   -3.8132    4.1409   14.3906 C   0  0  0  0  0  0  0  0  0  0  0  0
   -2.1509    8.5194   12.8979 C   0  0  0  0  0  0  0  0  0  0  0  0
   -4.4624   -0.4858   16.0548 H   0  0  0  0  0  0  0  0  0  0  0  0
   -2.0809    4.8042   13.5117 H   0  0  0  0  0  0  0  0  0  0  0  0
   -1.4035    6.7302   12.7156 H   0  0  0  0  0  0  0  0  0  0  0  0
   -6.7269    3.3617   15.5612 H   0  0  0  0  0  0  0  0  0  0  0  0
   -3.2061    1.3427   15.9128 H   0  0  0  0  0  0  0  0  0  0  0  0
   -5.6400    5.0013   14.3276 H   0  0  0  0  0  0  0  0  0  0  0  0
   -2.2083    3.0092   14.6858 H   0  0  0  0  0  0  0  0  0  0  0  0
   -0.5999    9.9647   15.2803 H   0  0  0  0  0  0  0  0  0  0  0  0
   -0.5934    8.3164   15.3551 H   0  0  0  0  0  0  0  0  0  0  0  0
    0.6602    9.7783   13.4956 H   0  0  0  0  0  0  0  0  0  0  0  0
    0.6283    8.2749   13.5720 H   0  0  0  0  0  0  0  0  0  0  0  0
   -2.5388    9.9328   14.2716 H   0  0  0  0  0  0  0  0  0  0  0  0
   -2.7038    8.5495   14.8106 H   0  0  0  0  0  0  0  0  0  0  0  0
   -0.5098    8.2947   11.6243 H   0  0  0  0  0  0  0  0  0  0  0  0
   -0.9348    9.8398   11.9277 H   0  0  0  0  0  0  0  0  0  0  0  0
   -2.8417    8.8288   12.4705 H   0  0  0  0  0  0  0  0  0  0  0  0
   -5.9081   -0.6901   15.3792 H   0  0  0  0  0  0  0  0  0  0  0  0
  1  2  2  0  0  0  0
  1  3  2  0  0  0  0
  1  5  1  0  0  0  0
  1 17  1  0  0  0  0
  4 16  2  0  0  0  0
  5 20  1  0  0  0  0
  6 16  1  0  0  0  0
  6 18  1  0  0  0  0
  6 21  1  0  0  0  0
  7 16  1  0  0  0  0
  7 19  1  0  0  0  0
  7 22  1  0  0  0  0
  8 10  1  0  0  0  0
  8 17  2  0  0  0  0
  8 23  1  0  0  0  0
  9 11  2  0  0  0  0
  9 17  1  0  0  0  0
  9 24  1  0  0  0  0
 10 18  2  0  0  0  0
 10 25  1  0  0  0  0
 11 18  1  0  0  0  0
 11 26  1  0  0  0  0
 12 13  1  0  0  0  0
 12 14  1  0  0  0  0
 12 27  1  0  0  0  0
 12 28  1  0  0  0  0
 13 15  1  0  0  0  0
 13 29  1  0  0  0  0
 13 30  1  0  0  0  0
 14 19  1  0  0  0  0
 14 31  1  0  0  0  0
 14 32  1  0  0  0  0
 15 19  1  0  0  0  0
 15 33  1  0  0  0  0
 15 34  1  0  0  0  0
 19 35  1  0  0  0  0
  5 36  1  0  0  0  0
M  END
> <pdb_id>
3MZC

> <uniprot_id>
P00918

> <usmiles>
S(=O)(=O)(N)c1ccc(NC(=O)NC2CCCC2)cc1

$$$$
S74_A_601
          07202405383D 1   1.00000     0.00000     0
            
 68 72  0  0  0  0            999 V2000
   -2.7360   -1.1100   43.0450 O   0  0  0  0  0  0  0  0  0  0  0  0
   -3.6660    0.9460   43.3750 O   0  0  0  0  0  0  0  0  0  0  0  0
   -4.8040    4.4440   31.8380 O   0  0  0  0  0  0  0  0  0  0  0  0
   -1.5110    1.8680   35.3410 O   0  0  0  0  0  0  0  0  0  0  0  0
   -2.7340    4.9910   31.0900 N   0  0  0  0  0  0  0  0  0  0  0  0
   -3.0720    3.1520   32.5510 N   0  0  0  0  0  0  0  0  0  0  0  0
   -3.7680    2.7700   33.7520 C   0  0  0  0  0  0  0  0  0  0  0  0
   -1.6800    2.7730   32.4670 C   0  0  0  0  0  0  0  0  0  0  0  0
   -6.4970    8.4760   27.1060 C   0  0  0  0  0  0  0  0  0  0  0  0
   -1.8310   11.1250   30.1020 C   0  0  0  0  0  0  0  0  0  0  0  0
   -6.5890    8.1580   28.4390 C   0  0  0  0  0  0  0  0  0  0  0  0
   -5.4010    8.0580   26.3910 C   0  0  0  0  0  0  0  0  0  0  0  0
   -2.0410   10.6030   28.8480 C   0  0  0  0  0  0  0  0  0  0  0  0
   -1.7470   10.2720   31.1780 C   0  0  0  0  0  0  0  0  0  0  0  0
   -3.5260    1.3290   34.0890 C   0  0  0  0  0  0  0  0  0  0  0  0
   -1.3180    1.4130   33.0250 C   0  0  0  0  0  0  0  0  0  0  0  0
   -3.3650    0.2000   41.1790 C   0  0  0  0  0  0  0  0  0  0  0  0
   -2.4970    0.2870   36.9790 C   0  0  0  0  0  0  0  0  0  0  0  0
   -0.9690    1.9920   37.6130 C   0  0  0  0  0  0  0  0  0  0  0  0
   -5.5950    7.4270   29.0520 C   0  0  0  0  0  0  0  0  0  0  0  0
   -4.4140    7.3290   27.0150 C   0  0  0  0  0  0  0  0  0  0  0  0
   -2.1690    9.2430   28.6830 C   0  0  0  0  0  0  0  0  0  0  0  0
   -1.8840    8.9120   31.0030 C   0  0  0  0  0  0  0  0  0  0  0  0
   -1.9350    0.0940   40.6980 C   0  0  0  0  0  0  0  0  0  0  0  0
   -2.5760   -0.1180   38.2940 C   0  0  0  0  0  0  0  0  0  0  0  0
   -1.0520    1.5870   38.9260 C   0  0  0  0  0  0  0  0  0  0  0  0
   -3.2360   -0.0100   42.6770 C   0  0  0  0  0  0  0  0  0  0  0  0
   -3.6040    4.2090   31.8230 C   0  0  0  0  0  0  0  0  0  0  0  0
   -2.0530    1.0610   34.2990 C   0  0  0  0  0  0  0  0  0  0  0  0
   -1.6840    1.3500   36.6300 C   0  0  0  0  0  0  0  0  0  0  0  0
   -3.1850    6.1750   30.4410 C   0  0  2  0  0  0  0  0  0  0  0  0
   -1.8550    0.5300   39.2730 C   0  0  0  0  0  0  0  0  0  0  0  0
   -4.4890    7.0020   28.3520 C   0  0  0  0  0  0  0  0  0  0  0  0
   -2.1000    8.3750   29.7520 C   0  0  0  0  0  0  0  0  0  0  0  0
   -3.3990    6.2210   28.9550 C   0  0  1  0  0  0  0  0  0  0  0  0
   -2.2240    6.9170   29.5740 C   0  0  2  0  0  0  0  0  0  0  0  0
   -2.4370   -1.7767   42.3622 H   0  0  0  0  0  0  0  0  0  0  0  0
   -1.7739    4.7221   31.0139 H   0  0  0  0  0  0  0  0  0  0  0  0
   -4.7488    2.9129   33.6192 H   0  0  0  0  0  0  0  0  0  0  0  0
   -3.4476    3.3395   34.5090 H   0  0  0  0  0  0  0  0  0  0  0  0
   -1.1477    3.4577   32.9648 H   0  0  0  0  0  0  0  0  0  0  0  0
   -1.4191    2.7851   31.5017 H   0  0  0  0  0  0  0  0  0  0  0  0
   -7.2193    9.0056   26.6612 H   0  0  0  0  0  0  0  0  0  0  0  0
   -1.7404   12.1126   30.2306 H   0  0  0  0  0  0  0  0  0  0  0  0
   -7.3825    8.4590   28.9679 H   0  0  0  0  0  0  0  0  0  0  0  0
   -5.3204    8.2827   25.4199 H   0  0  0  0  0  0  0  0  0  0  0  0
   -2.1007   11.2110   28.0563 H   0  0  0  0  0  0  0  0  0  0  0  0
   -1.5855   10.6413   32.0932 H   0  0  0  0  0  0  0  0  0  0  0  0
   -3.8585    0.7575   33.3388 H   0  0  0  0  0  0  0  0  0  0  0  0
   -4.0224    1.1014   34.9267 H   0  0  0  0  0  0  0  0  0  0  0  0
   -0.3361    1.4008   33.2138 H   0  0  0  0  0  0  0  0  0  0  0  0
   -1.5335    0.7217   32.3353 H   0  0  0  0  0  0  0  0  0  0  0  0
   -3.9373   -0.5076   40.7646 H   0  0  0  0  0  0  0  0  0  0  0  0
   -3.7477    1.1008   40.9737 H   0  0  0  0  0  0  0  0  0  0  0  0
   -3.0277   -0.1879   36.2770 H   0  0  0  0  0  0  0  0  0  0  0  0
   -0.3807    2.7636   37.3710 H   0  0  0  0  0  0  0  0  0  0  0  0
   -5.6787    7.2013   30.0226 H   0  0  0  0  0  0  0  0  0  0  0  0
   -3.6215    7.0287   26.4842 H   0  0  0  0  0  0  0  0  0  0  0  0
   -2.3157    8.8750   27.7648 H   0  0  0  0  0  0  0  0  0  0  0  0
   -1.8258    8.3053   31.7958 H   0  0  0  0  0  0  0  0  0  0  0  0
   -1.6273   -0.8544   40.7740 H   0  0  0  0  0  0  0  0  0  0  0  0
   -1.3504    0.6801   41.2591 H   0  0  0  0  0  0  0  0  0  0  0  0
   -3.1624   -0.8898   38.5400 H   0  0  0  0  0  0  0  0  0  0  0  0
   -0.5254    2.0647   39.6292 H   0  0  0  0  0  0  0  0  0  0  0  0
   -1.9130    0.0943   34.5133 H   0  0  0  0  0  0  0  0  0  0  0  0
   -3.8038    6.7473   30.9791 H   0  0  0  0  0  0  0  0  0  0  0  0
   -3.1768    5.3728   28.4741 H   0  0  0  0  0  0  0  0  0  0  0  0
   -1.3521    6.4471   29.4360 H   0  0  0  0  0  0  0  0  0  0  0  0
  1 27  1  0  0  0  0
  2 27  2  0  0  0  0
  3 28  2  0  0  0  0
  4 29  1  0  0  0  0
  4 30  1  0  0  0  0
  5 28  1  0  0  0  0
  5 31  1  0  0  0  0
  6  7  1  0  0  0  0
  6  8  1  0  0  0  0
  6 28  1  0  0  0  0
  7 15  1  0  0  0  0
  8 16  1  0  0  0  0
  9 11  2  0  0  0  0
  9 12  1  0  0  0  0
 10 13  2  0  0  0  0
 10 14  1  0  0  0  0
 11 20  1  0  0  0  0
 12 21  2  0  0  0  0
 13 22  1  0  0  0  0
 14 23  2  0  0  0  0
 15 29  1  0  0  0  0
 16 29  1  0  0  0  0
 17 24  1  0  0  0  0
 17 27  1  0  0  0  0
 18 25  2  0  0  0  0
 18 30  1  0  0  0  0
 19 26  1  0  0  0  0
 19 30  2  0  0  0  0
 20 33  2  0  0  0  0
 21 33  1  0  0  0  0
 22 34  2  0  0  0  0
 23 34  1  0  0  0  0
 24 32  1  0  0  0  0
 25 32  1  0  0  0  0
 26 32  2  0  0  0  0
 31 35  1  0  0  0  0
 31 36  1  0  0  0  0
 33 35  1  0  0  0  0
 34 36  1  0  0  0  0
 35 36  1  0  0  0  0
  1 37  1  0  0  0  0
  5 38  1  0  0  0  0
  7 39  1  0  0  0  0
  7 40  1  0  0  0  0
  8 41  1  0  0  0  0
  8 42  1  0  0  0  0
  9 43  1  0  0  0  0
 10 44  1  0  0  0  0
 11 45  1  0  0  0  0
 12 46  1  0  0  0  0
 13 47  1  0  0  0  0
 14 48  1  0  0  0  0
 15 49  1  0  0  0  0
 15 50  1  0  0  0  0
 16 51  1  0  0  0  0
 16 52  1  0  0  0  0
 17 53  1  0  0  0  0
 17 54  1  0  0  0  0
 18 55  1  0  0  0  0
 19 56  1  0  0  0  0
 20 57  1  0  0  0  0
 21 58  1  0  0  0  0
 22 59  1  0  0  0  0
 23 60  1  0  0  0  0
 24 61  1  0  0  0  0
 24 62  1  0  0  0  0
 25 63  1  0  0  0  0
 26 64  1  0  0  0  0
 29 65  1  0  0  0  0
 31 66  1  0  0  0  0
 35 67  1  0  0  0  0
 36 68  1  0  0  0  0
M  END
> <pdb_id>
4X6X

> <uniprot_id>
P34913

> <usmiles>
O=C(N1CCC(Oc2ccc(cc2)CCC(=O)O)CC1)N[C@@H]3[C@@H](c4ccccc4)[C@H]3c5ccccc5

$$$$
S76_A_1158
          07192416543D 1   1.00000     0.00000     0
            
 17 17  0  0  0  0            999 V2000
   17.5479   19.3821    6.3997 O   0  0  0  0  0  0  0  0  0  0  0  0
   13.9364   20.5423    3.9056 O   0  0  0  0  0  0  0  0  0  0  0  0
   18.2345   22.3892    2.9549 N   0  0  0  0  0  0  0  0  0  0  0  0
   15.7599   20.0075    5.1415 N   0  0  0  0  0  0  0  0  0  0  0  0
   17.8764   20.9025    4.7442 N   0  0  0  0  0  0  0  0  0  0  0  0
   17.8705   23.2505    1.8432 C   0  0  0  0  0  0  0  0  0  0  0  0
   16.0087   21.5861    3.3699 C   0  0  0  0  0  0  0  0  0  0  0  0
   17.0976   20.0246    5.4580 C   0  0  0  0  0  0  0  0  0  0  0  0
   15.1432   20.7419    4.1387 C   0  0  0  0  0  0  0  0  0  0  0  0
   17.3419   21.6781    3.6802 C   0  0  0  0  0  0  0  0  0  0  0  0
   19.2019   22.3180    3.1980 H   0  0  0  0  0  0  0  0  0  0  0  0
   15.1745   19.4076    5.6868 H   0  0  0  0  0  0  0  0  0  0  0  0
   18.8437   20.9983    4.9792 H   0  0  0  0  0  0  0  0  0  0  0  0
   18.6946   23.6702    1.4630 H   0  0  0  0  0  0  0  0  0  0  0  0
   17.4161   22.7083    1.1364 H   0  0  0  0  0  0  0  0  0  0  0  0
   17.2501   23.9657    2.1649 H   0  0  0  0  0  0  0  0  0  0  0  0
   15.6390   22.1109    2.6032 H   0  0  0  0  0  0  0  0  0  0  0  0
  1  8  2  0  0  0  0
  2  9  2  0  0  0  0
  3  6  1  0  0  0  0
  3 10  1  0  0  0  0
  4  8  1  0  0  0  0
  4  9  1  0  0  0  0
  5  8  1  0  0  0  0
  5 10  1  0  0  0  0
  7  9  1  0  0  0  0
  7 10  2  0  0  0  0
  3 11  1  0  0  0  0
  4 12  1  0  0  0  0
  5 13  1  0  0  0  0
  6 14  1  0  0  0  0
  6 15  1  0  0  0  0
  6 16  1  0  0  0  0
  7 17  1  0  0  0  0
M  END
> <pdb_id>
5FSO

> <uniprot_id>
P36639

> <usmiles>
O=C1NC(=O)C=C(N1)NC

$$$$
S77_B_403
          07202410253D 1   1.00000     0.00000     0
            
 44 47  0  0  0  0            999 V2000
   11.8590   14.4010   55.9150 F   0  0  0  0  0  0  0  0  0  0  0  0
   12.8030   18.5030   60.9060 N   0  0  0  0  0  0  0  0  0  0  0  0
   13.6770   17.8190   60.0870 N   0  0  0  0  0  0  0  0  0  0  0  0
   18.6320   17.7220   55.0250 N   0  0  0  0  0  0  0  0  0  0  0  0
   13.3840   16.0330   55.7230 N   0  0  0  0  0  0  0  0  0  0  0  0
   14.6090   19.6570   60.7530 N   0  0  0  0  0  0  0  0  0  0  0  0
   17.1810   17.4240   56.7570 N   0  0  0  0  0  0  0  0  0  0  0  0
   15.6050   20.7150   60.9290 C   0  0  0  0  0  0  0  0  0  0  0  0
   13.3920   19.6420   61.3210 C   0  0  0  0  0  0  0  0  0  0  0  0
   19.2260   17.4250   53.7560 C   0  0  0  0  0  0  0  0  0  0  0  0
   14.6900   16.4290   55.3980 C   0  0  0  0  0  0  0  0  0  0  0  0
   17.1230   16.4390   57.8200 C   0  0  0  0  0  0  0  0  0  0  0  0
   17.1920   18.7800   57.1240 C   0  0  0  0  0  0  0  0  0  0  0  0
   18.6070   16.4660   52.9350 C   0  0  0  0  0  0  0  0  0  0  0  0
   15.9700   16.7810   58.8010 C   0  0  0  0  0  0  0  0  0  0  0  0
   16.1630   19.1260   58.1430 C   0  0  0  0  0  0  0  0  0  0  0  0
   14.0330   13.7440   55.3200 C   0  0  0  0  0  0  0  0  0  0  0  0
   15.3860   14.1250   55.0150 C   0  0  0  0  0  0  0  0  0  0  0  0
   17.4690   15.8110   53.4410 C   0  0  0  0  0  0  0  0  0  0  0  0
   13.0860   14.7310   55.6420 C   0  0  0  0  0  0  0  0  0  0  0  0
   14.7840   18.5440   60.0340 C   0  0  0  0  0  0  0  0  0  0  0  0
   17.5730   17.0830   55.5090 C   0  0  0  0  0  0  0  0  0  0  0  0
   15.7380   15.4730   55.1020 C   0  0  0  0  0  0  0  0  0  0  0  0
   15.8800   18.1880   59.1460 C   0  0  0  0  0  0  0  0  0  0  0  0
   16.9560   16.0800   54.7500 C   0  0  0  0  0  0  0  0  0  0  0  0
   16.4254   20.4913   60.4028 H   0  0  0  0  0  0  0  0  0  0  0  0
   15.2289   21.5838   60.6068 H   0  0  0  0  0  0  0  0  0  0  0  0
   15.8411   20.7927   61.8976 H   0  0  0  0  0  0  0  0  0  0  0  0
   13.0024   20.3346   61.9280 H   0  0  0  0  0  0  0  0  0  0  0  0
   20.0613   17.8888   53.4609 H   0  0  0  0  0  0  0  0  0  0  0  0
   14.9053   17.4051   55.3696 H   0  0  0  0  0  0  0  0  0  0  0  0
   17.9907   16.4372   58.3171 H   0  0  0  0  0  0  0  0  0  0  0  0
   16.9635   15.5345   57.4245 H   0  0  0  0  0  0  0  0  0  0  0  0
   17.0258   19.3309   56.3062 H   0  0  0  0  0  0  0  0  0  0  0  0
   18.0935   19.0001   57.4967 H   0  0  0  0  0  0  0  0  0  0  0  0
   18.9627   16.2569   52.0241 H   0  0  0  0  0  0  0  0  0  0  0  0
   16.1097   16.2600   59.6430 H   0  0  0  0  0  0  0  0  0  0  0  0
   15.1065   16.5059   58.3782 H   0  0  0  0  0  0  0  0  0  0  0  0
   15.3091   19.3029   57.6535 H   0  0  0  0  0  0  0  0  0  0  0  0
   16.4663   19.9634   58.5977 H   0  0  0  0  0  0  0  0  0  0  0  0
   13.7672   12.7801   55.3030 H   0  0  0  0  0  0  0  0  0  0  0  0
   16.0610   13.4380   54.7460 H   0  0  0  0  0  0  0  0  0  0  0  0
   17.0039   15.1362   52.8680 H   0  0  0  0  0  0  0  0  0  0  0  0
   16.6697   18.2966   59.7498 H   0  0  0  0  0  0  0  0  0  0  0  0
  1 20  1  0  0  0  0
  2  3  1  0  0  0  0
  2  9  2  0  0  0  0
  3 21  2  0  0  0  0
  4 10  2  0  0  0  0
  4 22  1  0  0  0  0
  5 11  2  0  0  0  0
  5 20  1  0  0  0  0
  6  8  1  0  0  0  0
  6  9  1  0  0  0  0
  6 21  1  0  0  0  0
  7 12  1  0  0  0  0
  7 13  1  0  0  0  0
  7 22  1  0  0  0  0
 10 14  1  0  0  0  0
 11 23  1  0  0  0  0
 12 15  1  0  0  0  0
 13 16  1  0  0  0  0
 14 19  2  0  0  0  0
 15 24  1  0  0  0  0
 16 24  1  0  0  0  0
 17 18  1  0  0  0  0
 17 20  2  0  0  0  0
 18 23  2  0  0  0  0
 19 25  1  0  0  0  0
 21 24  1  0  0  0  0
 22 25  2  0  0  0  0
 23 25  1  0  0  0  0
  8 26  1  0  0  0  0
  8 27  1  0  0  0  0
  8 28  1  0  0  0  0
  9 29  1  0  0  0  0
 10 30  1  0  0  0  0
 11 31  1  0  0  0  0
 12 32  1  0  0  0  0
 12 33  1  0  0  0  0
 13 34  1  0  0  0  0
 13 35  1  0  0  0  0
 14 36  1  0  0  0  0
 15 37  1  0  0  0  0
 15 38  1  0  0  0  0
 16 39  1  0  0  0  0
 16 40  1  0  0  0  0
 17 41  1  0  0  0  0
 18 42  1  0  0  0  0
 19 43  1  0  0  0  0
 24 44  1  0  0  0  0
M  END
> <pdb_id>
6GBX

> <uniprot_id>
Q16769

> <usmiles>
Fc1ncc(c2c(nccc2)N3CCC(C4=NN=CN4C)CC3)cc1

$$$$
S7P_A_401
          07202404473D 1   1.00000     0.00000     0
            
 33 33  0  0  0  0            999 V2000
  -10.7990   -9.0100    7.9280 P   0  0  0  0  0  0  0  0  0  0  0  0
  -10.0070   -8.0560    7.0810 O   0  0  0  0  0  0  0  0  0  0  0  0
  -11.8550   -9.7580    7.1510 O   0  0  0  0  0  0  0  0  0  0  0  0
   -9.8820   -9.9800    8.6600 O   0  0  0  0  0  0  0  0  0  0  0  0
  -16.1190  -10.5370   14.9510 O   0  0  0  0  0  0  0  0  0  0  0  0
  -11.1690   -7.0980   11.3740 O   0  0  0  0  0  0  0  0  0  0  0  0
  -12.1890   -6.8250   14.3210 O   0  0  0  0  0  0  0  0  0  0  0  0
  -13.6330   -9.0070   15.8940 O   0  0  0  0  0  0  0  0  0  0  0  0
  -13.3870  -10.9700   14.0280 O   0  0  0  0  0  0  0  0  0  0  0  0
  -11.5230   -8.0720    8.9940 O   0  0  0  0  0  0  0  0  0  0  0  0
  -13.7540   -9.4260   12.3340 O   0  0  0  0  0  0  0  0  0  0  0  0
  -15.6440  -10.2030   13.6300 C   0  0  0  0  0  0  0  0  0  0  0  0
  -12.4260   -8.6080    9.9170 C   0  0  0  0  0  0  0  0  0  0  0  0
  -11.8900   -8.3010   11.4150 C   0  0  2  0  0  0  0  0  0  0  0  0
  -12.5390   -8.1990   13.8690 C   0  0  1  0  0  0  0  0  0  0  0  0
  -13.7700   -8.6890   14.5200 C   0  0  1  0  0  0  0  0  0  0  0  0
  -12.9710   -8.2110   12.4230 C   0  0  2  0  0  0  0  0  0  0  0  0
  -14.1260   -9.8820   13.6630 C   0  0  1  0  0  0  0  0  0  0  0  0
   -9.3266   -7.5924    7.6485 H   0  0  0  0  0  0  0  0  0  0  0  0
  -12.3468  -10.3748    7.7656 H   0  0  0  0  0  0  0  0  0  0  0  0
  -17.0972  -10.7407   14.9119 H   0  0  0  0  0  0  0  0  0  0  0  0
  -10.8256   -6.8839   12.2884 H   0  0  0  0  0  0  0  0  0  0  0  0
  -11.3528   -6.5258   13.8614 H   0  0  0  0  0  0  0  0  0  0  0  0
  -14.5101   -9.3286   16.2508 H   0  0  0  0  0  0  0  0  0  0  0  0
  -13.6592  -11.2659   14.9436 H   0  0  0  0  0  0  0  0  0  0  0  0
  -16.1421   -9.4038   13.2935 H   0  0  0  0  0  0  0  0  0  0  0  0
  -15.8034  -10.9773   13.0175 H   0  0  0  0  0  0  0  0  0  0  0  0
  -12.4971   -9.5963    9.7819 H   0  0  0  0  0  0  0  0  0  0  0  0
  -13.3248   -8.1886    9.7896 H   0  0  0  0  0  0  0  0  0  0  0  0
  -11.2663   -9.0347   11.6845 H   0  0  0  0  0  0  0  0  0  0  0  0
  -11.7784   -8.8303   14.0205 H   0  0  0  0  0  0  0  0  0  0  0  0
  -14.4843   -7.9964   14.4198 H   0  0  0  0  0  0  0  0  0  0  0  0
  -13.5494   -7.4177   12.2331 H   0  0  0  0  0  0  0  0  0  0  0  0
  1  2  1  0  0  0  0
  1  3  1  0  0  0  0
  1  4  2  0  0  0  0
  1 10  1  0  0  0  0
  5 12  1  0  0  0  0
  6 14  1  0  0  0  0
  7 15  1  0  0  0  0
  8 16  1  0  0  0  0
  9 18  1  0  0  0  0
 10 13  1  0  0  0  0
 11 17  1  0  0  0  0
 11 18  1  0  0  0  0
 12 18  1  0  0  0  0
 13 14  1  0  0  0  0
 14 17  1  0  0  0  0
 15 16  1  0  0  0  0
 15 17  1  0  0  0  0
 16 18  1  0  0  0  0
  2 19  1  0  0  0  0
  3 20  1  0  0  0  0
  5 21  1  0  0  0  0
  6 22  1  0  0  0  0
  7 23  1  0  0  0  0
  8 24  1  0  0  0  0
  9 25  1  0  0  0  0
 12 26  1  0  0  0  0
 12 27  1  0  0  0  0
 13 28  1  0  0  0  0
 13 29  1  0  0  0  0
 14 30  1  0  0  0  0
 15 31  1  0  0  0  0
 16 32  1  0  0  0  0
 17 33  1  0  0  0  0
M  END
> <pdb_id>
4R75

> <uniprot_id>
A3N294

> <usmiles>
P(=O)(OC[C@@H](O)[C@H]1O[C@@](O)([C@@H](O)[C@@H]1O)CO)(O)O

$$$$
S8A_A_302
          07192416293D 1   1.00000     0.00000     0
            
 23 24  0  0  0  0            999 V2000
   -5.7131    3.9735   14.8794 S   0  0  0  0  0  0  0  0  0  0  0  0
   -6.4215    5.0299   15.5082 O   0  0  0  0  0  0  0  0  0  0  0  0
   -6.4096    3.2716   13.8745 O   0  0  0  0  0  0  0  0  0  0  0  0
   -5.8568    0.1370   15.9136 O   0  0  0  0  0  0  0  0  0  0  0  0
   -7.8041    0.7427   16.8073 O   0  0  0  0  0  0  0  0  0  0  0  0
   -3.2353    2.0189   16.8603 O   0  0  0  0  0  0  0  0  0  0  0  0
   -5.1591    2.9077   16.0313 N   0  0  0  0  0  0  0  0  0  0  0  0
   -2.3809    5.5514   13.2931 C   0  0  0  0  0  0  0  0  0  0  0  0
   -1.4377    4.7918   13.9570 C   0  0  0  0  0  0  0  0  0  0  0  0
   -6.1661    2.3183   16.8889 C   0  0  0  0  0  0  0  0  0  0  0  0
   -3.7284    5.3892   13.4900 C   0  0  0  0  0  0  0  0  0  0  0  0
   -1.8172    3.8437   14.8851 C   0  0  0  0  0  0  0  0  0  0  0  0
   -6.5753    0.9468   16.4788 C   0  0  0  0  0  0  0  0  0  0  0  0
   -4.1008    4.4251   14.4203 C   0  0  0  0  0  0  0  0  0  0  0  0
   -3.7783    2.7704   16.1143 C   0  0  0  0  0  0  0  0  0  0  0  0
   -3.1767    3.6778   15.1230 C   0  0  0  0  0  0  0  0  0  0  0  0
   -4.9110    0.3757   15.6936 H   0  0  0  0  0  0  0  0  0  0  0  0
   -2.0695    6.2458   12.6444 H   0  0  0  0  0  0  0  0  0  0  0  0
   -0.4667    4.9308   13.7626 H   0  0  0  0  0  0  0  0  0  0  0  0
   -6.9751    2.9061   16.8755 H   0  0  0  0  0  0  0  0  0  0  0  0
   -5.8017    2.2739   17.8191 H   0  0  0  0  0  0  0  0  0  0  0  0
   -4.4044    5.9332   12.9930 H   0  0  0  0  0  0  0  0  0  0  0  0
   -1.1369    3.2942   15.3702 H   0  0  0  0  0  0  0  0  0  0  0  0
  1  2  2  0  0  0  0
  1  3  2  0  0  0  0
  1  7  1  0  0  0  0
  1 14  1  0  0  0  0
  4 13  1  0  0  0  0
  5 13  2  0  0  0  0
  6 15  2  0  0  0  0
  7 10  1  0  0  0  0
  7 15  1  0  0  0  0
  8  9  2  0  0  0  0
  8 11  1  0  0  0  0
  9 12  1  0  0  0  0
 10 13  1  0  0  0  0
 11 14  2  0  0  0  0
 12 16  2  0  0  0  0
 14 16  1  0  0  0  0
 15 16  1  0  0  0  0
  4 17  1  0  0  0  0
  8 18  1  0  0  0  0
  9 19  1  0  0  0  0
 10 20  1  0  0  0  0
 10 21  1  0  0  0  0
 11 22  1  0  0  0  0
 12 23  1  0  0  0  0
M  END
> <pdb_id>
5CLU

> <uniprot_id>
P00918

> <usmiles>
S1(=O)(=O)N(C(=O)c2c1cccc2)CC(=O)O

$$$$
S94_A_601
          07202405383D 1   1.00000     0.00000     0
            
 49 52  0  0  0  0            999 V2000
   -4.6938    4.8742   31.4953 O   0  0  0  0  0  0  0  0  0  0  0  0
   -1.9745    2.0185   35.4040 O   0  0  0  0  0  0  0  0  0  0  0  0
   -2.6063    5.3297   30.9069 N   0  0  0  0  0  0  0  0  0  0  0  0
   -3.0229    3.8831   32.7369 N   0  0  0  0  0  0  0  0  0  0  0  0
   -3.8576    3.5558   33.8619 C   0  0  0  0  0  0  0  0  0  0  0  0
   -1.7172    3.2575   32.7433 C   0  0  0  0  0  0  0  0  0  0  0  0
   -2.2809    0.2102   39.1290 C   0  0  0  0  0  0  0  0  0  0  0  0
   -6.4865    8.8717   27.1923 C   0  0  0  0  0  0  0  0  0  0  0  0
   -3.1664   -0.1666   38.1412 C   0  0  0  0  0  0  0  0  0  0  0  0
   -1.3290    1.1674   38.8645 C   0  0  0  0  0  0  0  0  0  0  0  0
   -6.4043    8.7385   28.5605 C   0  0  0  0  0  0  0  0  0  0  0  0
   -5.5150    8.3067   26.3999 C   0  0  0  0  0  0  0  0  0  0  0  0
   -3.9567    2.0573   34.0411 C   0  0  0  0  0  0  0  0  0  0  0  0
   -1.7461    1.7781   33.0674 C   0  0  0  0  0  0  0  0  0  0  0  0
   -3.1070    0.4038   36.8877 C   0  0  0  0  0  0  0  0  0  0  0  0
   -1.2666    1.7416   37.6150 C   0  0  0  0  0  0  0  0  0  0  0  0
   -5.3576    8.0454   29.1295 C   0  0  0  0  0  0  0  0  0  0  0  0
   -4.4722    7.6212   26.9832 C   0  0  0  0  0  0  0  0  0  0  0  0
   -2.1600    7.4740   29.5767 C   0  0  0  0  0  0  0  0  0  0  0  0
   -3.5077    4.6930   31.7119 C   0  0  0  0  0  0  0  0  0  0  0  0
   -2.5982    1.4399   34.2653 C   0  0  0  0  0  0  0  0  0  0  0  0
   -2.1471    1.3609   36.6231 C   0  0  0  0  0  0  0  0  0  0  0  0
   -3.0503    6.5697   30.3623 C   0  0  1  0  0  0  0  0  0  0  0  0
   -4.3740    7.4770   28.3500 C   0  0  0  0  0  0  0  0  0  0  0  0
   -3.2346    6.7180   28.8804 C   0  0  1  0  0  0  0  0  0  0  0  0
   -1.7004    4.9530   30.7135 H   0  0  0  0  0  0  0  0  0  0  0  0
   -4.7729    3.9289   33.7102 H   0  0  0  0  0  0  0  0  0  0  0  0
   -3.4660    3.9595   34.6888 H   0  0  0  0  0  0  0  0  0  0  0  0
   -1.1508    3.7184   33.4265 H   0  0  0  0  0  0  0  0  0  0  0  0
   -1.3083    3.3734   31.8381 H   0  0  0  0  0  0  0  0  0  0  0  0
   -2.3306   -0.2110   40.0346 H   0  0  0  0  0  0  0  0  0  0  0  0
   -7.2456    9.3746   26.7789 H   0  0  0  0  0  0  0  0  0  0  0  0
   -3.8590   -0.8610   38.3364 H   0  0  0  0  0  0  0  0  0  0  0  0
   -0.6848    1.4449   39.5772 H   0  0  0  0  0  0  0  0  0  0  0  0
   -7.1069    9.1463   29.1436 H   0  0  0  0  0  0  0  0  0  0  0  0
   -5.5653    8.3930   25.4049 H   0  0  0  0  0  0  0  0  0  0  0  0
   -4.3646    1.6576   33.2202 H   0  0  0  0  0  0  0  0  0  0  0  0
   -4.5377    1.8616   34.8312 H   0  0  0  0  0  0  0  0  0  0  0  0
   -0.8104    1.4759   33.2494 H   0  0  0  0  0  0  0  0  0  0  0  0
   -2.1065    1.2875   32.2741 H   0  0  0  0  0  0  0  0  0  0  0  0
   -3.7531    0.1270   36.1764 H   0  0  0  0  0  0  0  0  0  0  0  0
   -0.5773    2.4406   37.4246 H   0  0  0  0  0  0  0  0  0  0  0  0
   -5.3113    7.9536   30.1242 H   0  0  0  0  0  0  0  0  0  0  0  0
   -3.7679    7.2176   26.3993 H   0  0  0  0  0  0  0  0  0  0  0  0
   -1.2019    7.2274   29.4310 H   0  0  0  0  0  0  0  0  0  0  0  0
   -2.2365    8.4653   29.6835 H   0  0  0  0  0  0  0  0  0  0  0  0
   -2.6759    0.4487   34.3728 H   0  0  0  0  0  0  0  0  0  0  0  0
   -3.7372    7.0422   30.9144 H   0  0  0  0  0  0  0  0  0  0  0  0
   -2.9315    5.9436   28.3249 H   0  0  0  0  0  0  0  0  0  0  0  0
  1 20  2  0  0  0  0
  2 21  1  0  0  0  0
  2 22  1  0  0  0  0
  3 20  1  0  0  0  0
  3 23  1  0  0  0  0
  4  5  1  0  0  0  0
  4  6  1  0  0  0  0
  4 20  1  0  0  0  0
  5 13  1  0  0  0  0
  6 14  1  0  0  0  0
  7  9  2  0  0  0  0
  7 10  1  0  0  0  0
  8 11  2  0  0  0  0
  8 12  1  0  0  0  0
  9 15  1  0  0  0  0
 10 16  2  0  0  0  0
 11 17  1  0  0  0  0
 12 18  2  0  0  0  0
 13 21  1  0  0  0  0
 14 21  1  0  0  0  0
 15 22  2  0  0  0  0
 16 22  1  0  0  0  0
 17 24  2  0  0  0  0
 18 24  1  0  0  0  0
 19 23  1  0  0  0  0
 19 25  1  0  0  0  0
 23 25  1  0  0  0  0
 24 25  1  0  0  0  0
  3 26  1  0  0  0  0
  5 27  1  0  0  0  0
  5 28  1  0  0  0  0
  6 29  1  0  0  0  0
  6 30  1  0  0  0  0
  7 31  1  0  0  0  0
  8 32  1  0  0  0  0
  9 33  1  0  0  0  0
 10 34  1  0  0  0  0
 11 35  1  0  0  0  0
 12 36  1  0  0  0  0
 13 37  1  0  0  0  0
 13 38  1  0  0  0  0
 14 39  1  0  0  0  0
 14 40  1  0  0  0  0
 15 41  1  0  0  0  0
 16 42  1  0  0  0  0
 17 43  1  0  0  0  0
 18 44  1  0  0  0  0
 19 45  1  0  0  0  0
 19 46  1  0  0  0  0
 21 47  1  0  0  0  0
 23 48  1  0  0  0  0
 25 49  1  0  0  0  0
M  END
> <pdb_id>
4X6Y

> <uniprot_id>
P34913

> <usmiles>
O=C(N1CCC(Oc2ccccc2)CC1)N[C@@H]3[C@@H](c4ccccc4)C3

$$$$
SAH_A_1701
          07202408203D 1   1.00000     0.00000     0
            
 46 48  0  0  0  0            999 V2000
    0.7605   -2.1385   33.8334 S   0  0  0  0  0  0  0  0  0  0  0  0
   -1.8197    3.4463   34.6616 O   0  0  0  0  0  0  0  0  0  0  0  0
   -0.1505    2.8804   35.8773 O   0  0  0  0  0  0  0  0  0  0  0  0
    3.5324   -5.3889   37.7135 O   0  0  0  0  0  0  0  0  0  0  0  0
    2.6469   -2.9678   37.1410 O   0  0  0  0  0  0  0  0  0  0  0  0
    0.3412   -5.2734   36.3319 O   0  0  0  0  0  0  0  0  0  0  0  0
   -0.8210  -11.2131   38.8894 N   0  0  0  0  0  0  0  0  0  0  0  0
   -2.8205    1.0254   34.4122 N   0  0  0  0  0  0  0  0  0  0  0  0
   -1.3458   -9.2791   40.0716 N   0  0  0  0  0  0  0  0  0  0  0  0
   -0.4671   -7.1393   39.4480 N   0  0  0  0  0  0  0  0  0  0  0  0
    0.8210   -9.3493   37.0467 N   0  0  0  0  0  0  0  0  0  0  0  0
    0.9566   -7.1876   37.4254 N   0  0  0  0  0  0  0  0  0  0  0  0
   -0.6352   -1.2210   34.5654 C   0  0  0  0  0  0  0  0  0  0  0  0
    0.3477   -3.7704   34.5037 C   0  0  0  0  0  0  0  0  0  0  0  0
   -1.2388   -7.9155   40.2917 C   0  0  0  0  0  0  0  0  0  0  0  0
    1.3448   -8.1922   36.5721 C   0  0  0  0  0  0  0  0  0  0  0  0
   -0.3964    0.2935   34.5607 C   0  0  0  0  0  0  0  0  0  0  0  0
   -1.1482    2.5660   35.2404 C   0  0  0  0  0  0  0  0  0  0  0  0
    2.5676   -5.3804   36.6940 C   0  0  2  0  0  0  0  0  0  0  0  0
    2.2623   -3.9762   36.1890 C   0  0  1  0  0  0  0  0  0  0  0  0
    1.2344   -5.7525   37.3064 C   0  0  1  0  0  0  0  0  0  0  0  0
   -0.6837   -9.8890   39.0329 C   0  0  0  0  0  0  0  0  0  0  0  0
    0.7621   -3.9784   35.9677 C   0  0  2  0  0  0  0  0  0  0  0  0
   -1.5535    1.1155   35.1598 C   0  0  1  0  0  0  0  0  0  0  0  0
    0.1604   -7.7274   38.3993 C   0  0  0  0  0  0  0  0  0  0  0  0
    0.0895   -9.0980   38.1727 C   0  0  0  0  0  0  0  0  0  0  0  0
   -2.6348    3.1919   34.1410 H   0  0  0  0  0  0  0  0  0  0  0  0
    3.6965   -6.3300   38.0093 H   0  0  0  0  0  0  0  0  0  0  0  0
    2.4310   -2.0630   36.7738 H   0  0  0  0  0  0  0  0  0  0  0  0
   -0.3522  -11.6865   38.1437 H   0  0  0  0  0  0  0  0  0  0  0  0
   -1.3924  -11.7287   39.5280 H   0  0  0  0  0  0  0  0  0  0  0  0
   -3.5151    1.5845   34.8649 H   0  0  0  0  0  0  0  0  0  0  0  0
   -2.6815    1.3574   33.4793 H   0  0  0  0  0  0  0  0  0  0  0  0
   -0.7606   -1.5247   35.5099 H   0  0  0  0  0  0  0  0  0  0  0  0
   -1.4623   -1.4186   34.0392 H   0  0  0  0  0  0  0  0  0  0  0  0
    0.8075   -4.4625   33.9472 H   0  0  0  0  0  0  0  0  0  0  0  0
   -0.6425   -3.8940   34.4384 H   0  0  0  0  0  0  0  0  0  0  0  0
   -1.7195   -7.4933   41.0603 H   0  0  0  0  0  0  0  0  0  0  0  0
    1.9091   -8.0891   35.7529 H   0  0  0  0  0  0  0  0  0  0  0  0
   -0.2600    0.5869   33.6145 H   0  0  0  0  0  0  0  0  0  0  0  0
    0.4302    0.4826   35.0908 H   0  0  0  0  0  0  0  0  0  0  0  0
    2.8152   -5.9962   35.9460 H   0  0  0  0  0  0  0  0  0  0  0  0
    2.7325   -3.8190   35.3205 H   0  0  0  0  0  0  0  0  0  0  0  0
    1.0973   -5.2860   38.1802 H   0  0  0  0  0  0  0  0  0  0  0  0
    0.3248   -3.2948   36.5521 H   0  0  0  0  0  0  0  0  0  0  0  0
   -1.7181    0.7873   36.0899 H   0  0  0  0  0  0  0  0  0  0  0  0
  1 13  1  0  0  0  0
  1 14  1  0  0  0  0
  2 18  1  0  0  0  0
  3 18  2  0  0  0  0
  4 19  1  0  0  0  0
  5 20  1  0  0  0  0
  6 21  1  0  0  0  0
  6 23  1  0  0  0  0
  7 22  1  0  0  0  0
  8 24  1  0  0  0  0
  9 15  1  0  0  0  0
  9 22  2  0  0  0  0
 10 15  2  0  0  0  0
 10 25  1  0  0  0  0
 11 16  2  0  0  0  0
 11 26  1  0  0  0  0
 12 16  1  0  0  0  0
 12 21  1  0  0  0  0
 12 25  1  0  0  0  0
 13 17  1  0  0  0  0
 14 23  1  0  0  0  0
 17 24  1  0  0  0  0
 18 24  1  0  0  0  0
 19 20  1  0  0  0  0
 19 21  1  0  0  0  0
 20 23  1  0  0  0  0
 22 26  1  0  0  0  0
 25 26  2  0  0  0  0
  2 27  1  0  0  0  0
  4 28  1  0  0  0  0
  5 29  1  0  0  0  0
  7 30  1  0  0  0  0
  7 31  1  0  0  0  0
  8 32  1  0  0  0  0
  8 33  1  0  0  0  0
 13 34  1  0  0  0  0
 13 35  1  0  0  0  0
 14 36  1  0  0  0  0
 14 37  1  0  0  0  0
 15 38  1  0  0  0  0
 16 39  1  0  0  0  0
 17 40  1  0  0  0  0
 17 41  1  0  0  0  0
 19 42  1  0  0  0  0
 20 43  1  0  0  0  0
 21 44  1  0  0  0  0
 23 45  1  0  0  0  0
 24 46  1  0  0  0  0
M  END
> <pdb_id>
5GUT

> <uniprot_id>
P13864

> <usmiles>
S(C[C@H]1O[C@@H](N2c3ncnc(N)c3N=C2)[C@H](O)[C@@H]1O)CC[C@H](N)C(=O)O

$$$$
SAH_A_6732
          07202403573D 1   1.00000     0.00000     0
            
 46 48  0  0  0  0            999 V2000
   65.5555    0.4347   16.2264 S   0  0  0  0  0  0  0  0  0  0  0  0
   62.8334    2.9835   19.4528 O   0  0  0  0  0  0  0  0  0  0  0  0
   61.8268    4.3205   18.2223 O   0  0  0  0  0  0  0  0  0  0  0  0
   64.6727   -5.3158   15.8607 O   0  0  0  0  0  0  0  0  0  0  0  0
   64.3029   -3.0085   17.5300 O   0  0  0  0  0  0  0  0  0  0  0  0
   63.4453   -2.2939   14.2829 O   0  0  0  0  0  0  0  0  0  0  0  0
   62.1368   -6.8781    9.3889 N   0  0  0  0  0  0  0  0  0  0  0  0
   60.7360    2.0361   17.0670 N   0  0  0  0  0  0  0  0  0  0  0  0
   60.5676   -6.7161   11.2148 N   0  0  0  0  0  0  0  0  0  0  0  0
   61.0519   -5.4367   13.2412 N   0  0  0  0  0  0  0  0  0  0  0  0
   63.9530   -5.1330   11.0435 N   0  0  0  0  0  0  0  0  0  0  0  0
   63.3073   -4.4077   13.0927 N   0  0  0  0  0  0  0  0  0  0  0  0
   64.2895    0.9174   17.3535 C   0  0  0  0  0  0  0  0  0  0  0  0
   64.8958   -0.5267   14.8583 C   0  0  0  0  0  0  0  0  0  0  0  0
   60.2075   -6.2421   12.4824 C   0  0  0  0  0  0  0  0  0  0  0  0
   64.2989   -4.4221   12.1017 C   0  0  0  0  0  0  0  0  0  0  0  0
   63.0364    1.5067   16.7774 C   0  0  0  0  0  0  0  0  0  0  0  0
   62.1933    3.2782   18.5340 C   0  0  0  0  0  0  0  0  0  0  0  0
   64.6891   -4.0554   15.2272 C   0  0  2  0  0  0  0  0  0  0  0  0
   64.8091   -2.8046   16.1730 C   0  0  1  0  0  0  0  0  0  0  0  0
   63.3894   -3.7449   14.4544 C   0  0  1  0  0  0  0  0  0  0  0  0
   61.7804   -6.4253   10.6141 C   0  0  0  0  0  0  0  0  0  0  0  0
   64.0225   -1.7214   15.4638 C   0  0  2  0  0  0  0  0  0  0  0  0
   61.9217    1.9279   17.7388 C   0  0  1  0  0  0  0  0  0  0  0  0
   62.2468   -5.1675   12.6206 C   0  0  0  0  0  0  0  0  0  0  0  0
   62.6433   -5.5931   11.4073 C   0  0  0  0  0  0  0  0  0  0  0  0
   63.0819    2.0266   19.6028 H   0  0  0  0  0  0  0  0  0  0  0  0
   64.5941   -6.0349   15.1703 H   0  0  0  0  0  0  0  0  0  0  0  0
   64.4182   -2.1675   18.0586 H   0  0  0  0  0  0  0  0  0  0  0  0
   63.0278   -6.6347    9.0056 H   0  0  0  0  0  0  0  0  0  0  0  0
   61.5091   -7.4560    8.8673 H   0  0  0  0  0  0  0  0  0  0  0  0
   60.0159    2.3114   17.7039 H   0  0  0  0  0  0  0  0  0  0  0  0
   60.8232    2.7228   16.3454 H   0  0  0  0  0  0  0  0  0  0  0  0
   64.6830    1.5972   17.9724 H   0  0  0  0  0  0  0  0  0  0  0  0
   64.0266    0.1052   17.8741 H   0  0  0  0  0  0  0  0  0  0  0  0
   65.6467   -0.8989   14.3128 H   0  0  0  0  0  0  0  0  0  0  0  0
   64.3212    0.0545   14.2820 H   0  0  0  0  0  0  0  0  0  0  0  0
   59.3134   -6.4906   12.8551 H   0  0  0  0  0  0  0  0  0  0  0  0
   65.1739   -3.9454   12.1869 H   0  0  0  0  0  0  0  0  0  0  0  0
   62.6488    0.8267   16.1550 H   0  0  0  0  0  0  0  0  0  0  0  0
   63.3028    2.3194   16.2592 H   0  0  0  0  0  0  0  0  0  0  0  0
   65.4523   -4.0369   14.5813 H   0  0  0  0  0  0  0  0  0  0  0  0
   65.7687   -2.5276   16.2235 H   0  0  0  0  0  0  0  0  0  0  0  0
   62.5939   -3.9949   15.0063 H   0  0  0  0  0  0  0  0  0  0  0  0
   63.3068   -1.3615   16.0624 H   0  0  0  0  0  0  0  0  0  0  0  0
   61.8175    1.1982   18.4146 H   0  0  0  0  0  0  0  0  0  0  0  0
  1 13  1  0  0  0  0
  1 14  1  0  0  0  0
  2 18  1  0  0  0  0
  3 18  2  0  0  0  0
  4 19  1  0  0  0  0
  5 20  1  0  0  0  0
  6 21  1  0  0  0  0
  6 23  1  0  0  0  0
  7 22  1  0  0  0  0
  8 24  1  0  0  0  0
  9 15  1  0  0  0  0
  9 22  2  0  0  0  0
 10 15  2  0  0  0  0
 10 25  1  0  0  0  0
 11 16  2  0  0  0  0
 11 26  1  0  0  0  0
 12 16  1  0  0  0  0
 12 21  1  0  0  0  0
 12 25  1  0  0  0  0
 13 17  1  0  0  0  0
 14 23  1  0  0  0  0
 17 24  1  0  0  0  0
 18 24  1  0  0  0  0
 19 20  1  0  0  0  0
 19 21  1  0  0  0  0
 20 23  1  0  0  0  0
 22 26  1  0  0  0  0
 25 26  2  0  0  0  0
  2 27  1  0  0  0  0
  4 28  1  0  0  0  0
  5 29  1  0  0  0  0
  7 30  1  0  0  0  0
  7 31  1  0  0  0  0
  8 32  1  0  0  0  0
  8 33  1  0  0  0  0
 13 34  1  0  0  0  0
 13 35  1  0  0  0  0
 14 36  1  0  0  0  0
 14 37  1  0  0  0  0
 15 38  1  0  0  0  0
 16 39  1  0  0  0  0
 17 40  1  0  0  0  0
 17 41  1  0  0  0  0
 19 42  1  0  0  0  0
 20 43  1  0  0  0  0
 21 44  1  0  0  0  0
 23 45  1  0  0  0  0
 24 46  1  0  0  0  0
M  END
> <pdb_id>
3P2E

> <uniprot_id>
A8C927

> <usmiles>
S(C[C@H]1O[C@@H](N2c3ncnc(N)c3N=C2)[C@H](O)[C@@H]1O)CC[C@H](N)C(=O)O

$$$$
SAM_A_1703
          07202408203D 1   1.00000     0.00000     0
            
 50 52  0  0  0  0            999 V2000
    0.8620   -2.2600   34.3590 S   0  3  0  0  0  0  0  0  0  0  0  0
   -1.7030    3.3620   34.6040 O   0  0  0  0  0  0  0  0  0  0  0  0
    0.0270    2.9550   35.8000 O   0  0  0  0  0  0  0  0  0  0  0  0
    3.6780   -5.6100   37.9240 O   0  0  0  0  0  0  0  0  0  0  0  0
    2.8470   -3.2610   37.0790 O   0  0  0  0  0  0  0  0  0  0  0  0
    0.3650   -5.4380   36.8000 O   0  0  0  0  0  0  0  0  0  0  0  0
   -0.7350  -11.5330   38.8880 N   0  0  0  0  0  0  0  0  0  0  0  0
   -2.6050    0.7720   34.5470 N   0  0  0  0  0  0  0  0  0  0  0  0
   -1.3400   -9.6710   40.1720 N   0  0  0  0  0  0  0  0  0  0  0  0
   -0.4820   -7.5160   39.6360 N   0  0  0  0  0  0  0  0  0  0  0  0
    0.9300   -9.6400   37.2340 N   0  0  0  0  0  0  0  0  0  0  0  0
    1.0380   -7.4780   37.6630 N   0  0  0  0  0  0  0  0  0  0  0  0
    0.8020   -2.6060   32.5990 C   0  0  0  0  0  0  0  0  0  0  0  0
   -0.6070   -1.1940   34.4980 C   0  0  0  0  0  0  0  0  0  0  0  0
    0.3050   -3.9020   34.9180 C   0  0  0  0  0  0  0  0  0  0  0  0
   -1.2020   -8.3620   40.3480 C   0  0  0  0  0  0  0  0  0  0  0  0
    1.4780   -8.4680   36.8200 C   0  0  0  0  0  0  0  0  0  0  0  0
   -0.2970    0.1460   35.1660 C   0  0  0  0  0  0  0  0  0  0  0  0
   -1.0210    2.5540   35.2580 C   0  0  0  0  0  0  0  0  0  0  0  0
    1.3420   -6.0430   37.6160 C   0  0  1  0  0  0  0  0  0  0  0  0
    2.6590   -5.6900   36.9540 C   0  0  1  0  0  0  0  0  0  0  0  0
    2.3690   -4.3400   36.3040 C   0  0  1  0  0  0  0  0  0  0  0  0
   -0.6420  -10.2220   39.1150 C   0  0  0  0  0  0  0  0  0  0  0  0
    0.8590   -4.2160   36.3030 C   0  0  2  0  0  0  0  0  0  0  0  0
   -1.4740    1.0970   35.4180 C   0  0  1  0  0  0  0  0  0  0  0  0
    0.2090   -8.0380   38.5980 C   0  0  0  0  0  0  0  0  0  0  0  0
    0.1520   -9.3900   38.3110 C   0  0  0  0  0  0  0  0  0  0  0  0
   -2.5474    3.0603   34.1613 H   0  0  0  0  0  0  0  0  0  0  0  0
    4.5432   -5.3769   37.4801 H   0  0  0  0  0  0  0  0  0  0  0  0
    2.6361   -2.3996   36.6170 H   0  0  0  0  0  0  0  0  0  0  0  0
   -0.2351  -11.9453   38.1263 H   0  0  0  0  0  0  0  0  0  0  0  0
   -1.3046  -12.1037   39.4795 H   0  0  0  0  0  0  0  0  0  0  0  0
   -3.3583    1.4039   34.7291 H   0  0  0  0  0  0  0  0  0  0  0  0
   -2.3240    0.8551   33.5909 H   0  0  0  0  0  0  0  0  0  0  0  0
    1.5669   -3.2000   32.3498 H   0  0  0  0  0  0  0  0  0  0  0  0
   -0.0601   -3.0622   32.3782 H   0  0  0  0  0  0  0  0  0  0  0  0
    0.8658   -1.7486   32.0884 H   0  0  0  0  0  0  0  0  0  0  0  0
   -1.2988   -1.6704   35.0407 H   0  0  0  0  0  0  0  0  0  0  0  0
   -0.9648   -1.0198   33.5806 H   0  0  0  0  0  0  0  0  0  0  0  0
    0.6248   -4.5948   34.2717 H   0  0  0  0  0  0  0  0  0  0  0  0
   -0.6943   -3.9152   34.9534 H   0  0  0  0  0  0  0  0  0  0  0  0
   -1.7069   -7.9682   41.1162 H   0  0  0  0  0  0  0  0  0  0  0  0
    2.0924   -8.3479   36.0402 H   0  0  0  0  0  0  0  0  0  0  0  0
    0.3583    0.6272   34.5837 H   0  0  0  0  0  0  0  0  0  0  0  0
    0.1250   -0.0504   36.0511 H   0  0  0  0  0  0  0  0  0  0  0  0
    1.3069   -5.6552   38.5371 H   0  0  0  0  0  0  0  0  0  0  0  0
    2.8925   -6.3691   36.2581 H   0  0  0  0  0  0  0  0  0  0  0  0
    2.7333   -4.3034   35.3734 H   0  0  0  0  0  0  0  0  0  0  0  0
    0.5952   -3.4827   36.9297 H   0  0  0  0  0  0  0  0  0  0  0  0
   -1.7712    0.9715   36.3645 H   0  0  0  0  0  0  0  0  0  0  0  0
  1 13  1  0  0  0  0
  1 14  1  0  0  0  0
  1 15  1  0  0  0  0
  2 19  1  0  0  0  0
  3 19  2  0  0  0  0
  4 21  1  0  0  0  0
  5 22  1  0  0  0  0
  6 20  1  0  0  0  0
  6 24  1  0  0  0  0
  7 23  1  0  0  0  0
  8 25  1  0  0  0  0
  9 16  1  0  0  0  0
  9 23  2  0  0  0  0
 10 16  2  0  0  0  0
 10 26  1  0  0  0  0
 11 17  2  0  0  0  0
 11 27  1  0  0  0  0
 12 17  1  0  0  0  0
 12 20  1  0  0  0  0
 12 26  1  0  0  0  0
 14 18  1  0  0  0  0
 15 24  1  0  0  0  0
 18 25  1  0  0  0  0
 19 25  1  0  0  0  0
 20 21  1  0  0  0  0
 21 22  1  0  0  0  0
 22 24  1  0  0  0  0
 23 27  1  0  0  0  0
 26 27  2  0  0  0  0
  2 28  1  0  0  0  0
  4 29  1  0  0  0  0
  5 30  1  0  0  0  0
  7 31  1  0  0  0  0
  7 32  1  0  0  0  0
  8 33  1  0  0  0  0
  8 34  1  0  0  0  0
 13 35  1  0  0  0  0
 13 36  1  0  0  0  0
 13 37  1  0  0  0  0
 14 38  1  0  0  0  0
 14 39  1  0  0  0  0
 15 40  1  0  0  0  0
 15 41  1  0  0  0  0
 16 42  1  0  0  0  0
 17 43  1  0  0  0  0
 18 44  1  0  0  0  0
 18 45  1  0  0  0  0
 20 46  1  0  0  0  0
 21 47  1  0  0  0  0
 22 48  1  0  0  0  0
 24 49  1  0  0  0  0
 25 50  1  0  0  0  0
M  CHG  1   1   1
M  END
> <pdb_id>
7SFG

> <uniprot_id>
P26358

> <usmiles>
[S+](C[C@H]1O[C@@H](N2c3ncnc(N)c3N=C2)[C@H](O)[C@@H]1O)(CC[C@H](N)C(=O)O)C

$$$$
SAM_A_228
          07202404193D 1   1.00000     0.00000     0
            
 51 53  0  0  0  0            999 V2000
   -0.1009   19.0068   14.9568 S   0  3  0  0  0  0  0  0  0  0  0  0
    5.3856   20.1093   13.5870 O   0  0  0  0  0  0  0  0  0  0  0  0
    5.1996   21.3705   15.3017 O   0  0  0  0  0  0  0  0  0  0  0  0
   -5.2803   21.6170   16.1203 O   0  0  0  0  0  0  0  0  0  0  0  0
   -2.5371   21.7792   16.3352 O   0  0  0  0  0  0  0  0  0  0  0  0
   -3.3025   20.5548   13.3198 O   0  0  0  0  0  0  0  0  0  0  0  0
   -8.5444   21.7392    9.3766 N   0  0  0  0  0  0  0  0  0  0  0  0
    3.1474   21.3080   12.3362 N   0  3  0  0  0  0  0  0  0  0  0  0
   -7.2120   23.5271   10.0779 N   0  0  0  0  0  0  0  0  0  0  0  0
   -5.6733   23.4267   11.8432 N   0  0  0  0  0  0  0  0  0  0  0  0
   -7.0611   20.1794   11.6404 N   0  0  0  0  0  0  0  0  0  0  0  0
   -5.4882   21.1870   12.9387 N   0  0  0  0  0  0  0  0  0  0  0  0
    0.5647   17.4967   14.2491 C   0  0  0  0  0  0  0  0  0  0  0  0
   -6.2900   24.0936   10.8982 C   0  0  0  0  0  0  0  0  0  0  0  0
   -6.2157   20.0033   12.6497 C   0  0  0  0  0  0  0  0  0  0  0  0
    0.8700   20.2724   14.0209 C   0  0  0  0  0  0  0  0  0  0  0  0
   -1.6705   19.1474   14.1138 C   0  0  0  0  0  0  0  0  0  0  0  0
    2.3576   20.1343   14.4543 C   0  0  0  0  0  0  0  0  0  0  0  0
    4.6967   20.8980   14.2601 C   0  0  0  0  0  0  0  0  0  0  0  0
   -7.5640   22.2527   10.2343 C   0  0  0  0  0  0  0  0  0  0  0  0
   -6.0179   22.1513   12.0232 C   0  0  0  0  0  0  0  0  0  0  0  0
   -6.9293   21.4838   11.2338 C   0  0  0  0  0  0  0  0  0  0  0  0
   -4.3728   21.3281   13.8902 C   0  0  1  0  0  0  0  0  0  0  0  0
   -4.5201   20.7128   15.2944 C   0  0  1  0  0  0  0  0  0  0  0  0
   -3.0445   20.5634   15.7233 C   0  0  1  0  0  0  0  0  0  0  0  0
   -2.3327   20.4503   14.3504 C   0  0  2  0  0  0  0  0  0  0  0  0
    3.2786   21.2119   13.8205 C   0  0  1  0  0  0  0  0  0  0  0  0
   -4.9926   22.4485   15.9920 H   0  0  0  0  0  0  0  0  0  0  0  0
   -2.4377   22.4069   15.7105 H   0  0  0  0  0  0  0  0  0  0  0  0
   -8.9170   22.2645    8.7609 H   0  0  0  0  0  0  0  0  0  0  0  0
   -8.7961   20.8873    9.4479 H   0  0  0  0  0  0  0  0  0  0  0  0
    3.6325   21.9213   11.6736 H   0  0  0  0  0  0  0  0  0  0  0  0
    2.1821   21.5525   12.0930 H   0  0  0  0  0  0  0  0  0  0  0  0
    3.3882   20.4050   11.9137 H   0  0  0  0  0  0  0  0  0  0  0  0
   -0.0838   16.7753   14.3522 H   0  0  0  0  0  0  0  0  0  0  0  0
    0.7488   17.6354   13.3015 H   0  0  0  0  0  0  0  0  0  0  0  0
    1.3919   17.2584   14.7093 H   0  0  0  0  0  0  0  0  0  0  0  0
   -6.0074   25.1299   10.7759 H   0  0  0  0  0  0  0  0  0  0  0  0
   -6.1279   19.0419   13.1348 H   0  0  0  0  0  0  0  0  0  0  0  0
    0.5428   21.1665   14.2290 H   0  0  0  0  0  0  0  0  0  0  0  0
    0.7898   20.1065   13.0623 H   0  0  0  0  0  0  0  0  0  0  0  0
   -1.5183   19.0457   13.1540 H   0  0  0  0  0  0  0  0  0  0  0  0
   -2.2603   18.4321   14.4187 H   0  0  0  0  0  0  0  0  0  0  0  0
    2.4108   20.2068   15.4265 H   0  0  0  0  0  0  0  0  0  0  0  0
    2.6796   19.2522   14.1870 H   0  0  0  0  0  0  0  0  0  0  0  0
   -4.2309   22.3957   13.9824 H   0  0  0  0  0  0  0  0  0  0  0  0
   -4.9575   19.8417   15.2439 H   0  0  0  0  0  0  0  0  0  0  0  0
   -2.8995   19.7759   16.2830 H   0  0  0  0  0  0  0  0  0  0  0  0
   -1.6833   21.1721   14.2573 H   0  0  0  0  0  0  0  0  0  0  0  0
    3.0335   22.0783   14.1986 H   0  0  0  0  0  0  0  0  0  0  0  0
    5.0144   19.7122   12.7476 H   0  0  0  0  0  0  0  0  0  0  0  0
  1 13  1  0  0  0  0
  1 16  1  0  0  0  0
  1 17  1  0  0  0  0
  2 19  1  0  0  0  0
  3 19  2  0  0  0  0
  4 24  1  0  0  0  0
  4 28  1  0  0  0  0
  5 25  1  0  0  0  0
  5 29  1  0  0  0  0
  6 23  1  0  0  0  0
  6 26  1  0  0  0  0
  7 20  1  0  0  0  0
  7 30  1  0  0  0  0
  7 31  1  0  0  0  0
  8 27  1  0  0  0  0
  8 32  1  0  0  0  0
  8 33  1  0  0  0  0
  8 34  1  0  0  0  0
  9 14  1  0  0  0  0
  9 20  2  0  0  0  0
 10 14  2  0  0  0  0
 10 21  1  0  0  0  0
 11 15  2  0  0  0  0
 11 22  1  0  0  0  0
 12 15  1  0  0  0  0
 12 21  1  0  0  0  0
 12 23  1  0  0  0  0
 13 35  1  0  0  0  0
 13 36  1  0  0  0  0
 13 37  1  0  0  0  0
 14 38  1  0  0  0  0
 15 39  1  0  0  0  0
 16 18  1  0  0  0  0
 16 40  1  0  0  0  0
 16 41  1  0  0  0  0
 17 26  1  0  0  0  0
 17 42  1  0  0  0  0
 17 43  1  0  0  0  0
 18 27  1  0  0  0  0
 18 44  1  0  0  0  0
 18 45  1  0  0  0  0
 19 27  1  0  0  0  0
 20 22  1  0  0  0  0
 21 22  2  0  0  0  0
 23 24  1  0  0  0  0
 23 46  1  0  0  0  0
 24 25  1  0  0  0  0
 24 47  1  0  0  0  0
 25 26  1  0  0  0  0
 25 48  1  0  0  0  0
 26 49  1  0  0  0  0
 27 50  1  0  0  0  0
  2 51  1  0  0  0  0
M  CHG  2   1   1   8   1
M  END
> <pdb_id>
3S68

> <uniprot_id>
P22734

> <usmiles>
[S+](C[C@H]1O[C@@H](N2c3ncnc(N)c3N=C2)[C@H](O)[C@@H]1O)(CC[C@H]([NH3+])C(=O)O)C

$$$$
SAM_A_300
          07192423443D 1   1.00000     0.00000     0
            
 50 52  0  0  0  0            999 V2000
   20.9100   17.0370   16.8880 S   0  3  0  0  0  0  0  0  0  0  0  0
   18.3700   21.7100   15.6750 O   0  0  0  0  0  0  0  0  0  0  0  0
   18.8640   20.6880   13.8810 O   0  0  0  0  0  0  0  0  0  0  0  0
   26.4170   15.6620   16.2880 O   0  0  0  0  0  0  0  0  0  0  0  0
   24.3350   16.8000   15.3370 O   0  0  0  0  0  0  0  0  0  0  0  0
   24.5850   17.7490   18.4990 O   0  0  0  0  0  0  0  0  0  0  0  0
   30.4350   17.2820   21.9640 N   0  0  0  0  0  0  0  0  0  0  0  0
   20.9150   21.9650   16.4610 N   0  0  0  0  0  0  0  0  0  0  0  0
   30.3210   18.7780   20.1640 N   0  0  0  0  0  0  0  0  0  0  0  0
   28.4790   18.7260   18.6550 N   0  0  0  0  0  0  0  0  0  0  0  0
   27.8100   16.1760   20.9600 N   0  0  0  0  0  0  0  0  0  0  0  0
   26.7900   16.9820   19.1690 N   0  0  0  0  0  0  0  0  0  0  0  0
   19.4620   17.6310   17.7980 C   0  0  0  0  0  0  0  0  0  0  0  0
   21.3070   18.4620   15.8560 C   0  0  0  0  0  0  0  0  0  0  0  0
   22.2290   17.1610   18.1360 C   0  0  0  0  0  0  0  0  0  0  0  0
   29.6730   19.2750   19.0530 C   0  0  0  0  0  0  0  0  0  0  0  0
   26.7190   16.0440   20.1670 C   0  0  0  0  0  0  0  0  0  0  0  0
   20.5070   19.6330   16.3680 C   0  0  0  0  0  0  0  0  0  0  0  0
   19.1990   21.1160   14.9880 C   0  0  0  0  0  0  0  0  0  0  0  0
   25.8290   17.2260   18.0600 C   0  0  1  0  0  0  0  0  0  0  0  0
   25.4660   15.9670   17.2830 C   0  0  1  0  0  0  0  0  0  0  0  0
   24.1290   16.3380   16.6570 C   0  0  1  0  0  0  0  0  0  0  0  0
   29.7860   17.7380   20.8870 C   0  0  0  0  0  0  0  0  0  0  0  0
   23.5920   17.4780   17.5120 C   0  0  2  0  0  0  0  0  0  0  0  0
   20.5880   20.8960   15.5420 C   0  0  1  0  0  0  0  0  0  0  0  0
   27.9450   17.6980   19.3560 C   0  0  0  0  0  0  0  0  0  0  0  0
   28.5810   17.1870   20.4770 C   0  0  0  0  0  0  0  0  0  0  0  0
   18.6268   22.0628   16.5748 H   0  0  0  0  0  0  0  0  0  0  0  0
   26.1395   14.8315   15.8050 H   0  0  0  0  0  0  0  0  0  0  0  0
   23.4555   17.0431   14.9279 H   0  0  0  0  0  0  0  0  0  0  0  0
   30.0527   16.5260   22.4953 H   0  0  0  0  0  0  0  0  0  0  0  0
   31.3025   17.6971   22.2379 H   0  0  0  0  0  0  0  0  0  0  0  0
   20.9803   22.8276   15.9593 H   0  0  0  0  0  0  0  0  0  0  0  0
   20.2000   22.0371   17.1564 H   0  0  0  0  0  0  0  0  0  0  0  0
   19.1409   16.9148   18.4177 H   0  0  0  0  0  0  0  0  0  0  0  0
   19.7105   18.4426   18.3268 H   0  0  0  0  0  0  0  0  0  0  0  0
   18.7348   17.8637   17.1522 H   0  0  0  0  0  0  0  0  0  0  0  0
   21.0635   18.2725   14.9048 H   0  0  0  0  0  0  0  0  0  0  0  0
   22.2844   18.6646   15.9158 H   0  0  0  0  0  0  0  0  0  0  0  0
   22.2932   16.2903   18.6236 H   0  0  0  0  0  0  0  0  0  0  0  0
   21.9939   17.8879   18.7813 H   0  0  0  0  0  0  0  0  0  0  0  0
   30.0718   20.0338   18.5381 H   0  0  0  0  0  0  0  0  0  0  0  0
   25.9856   15.3752   20.2890 H   0  0  0  0  0  0  0  0  0  0  0  0
   20.8320   19.8474   17.2891 H   0  0  0  0  0  0  0  0  0  0  0  0
   19.5475   19.3545   16.4095 H   0  0  0  0  0  0  0  0  0  0  0  0
   26.2397   17.8806   17.4253 H   0  0  0  0  0  0  0  0  0  0  0  0
   25.3551   15.1933   17.9068 H   0  0  0  0  0  0  0  0  0  0  0  0
   23.5022   15.5589   16.6679 H   0  0  0  0  0  0  0  0  0  0  0  0
   23.4934   18.2873   16.9330 H   0  0  0  0  0  0  0  0  0  0  0  0
   21.2674   20.8164   14.8125 H   0  0  0  0  0  0  0  0  0  0  0  0
  1 13  1  0  0  0  0
  1 14  1  0  0  0  0
  1 15  1  0  0  0  0
  2 19  1  0  0  0  0
  3 19  2  0  0  0  0
  4 21  1  0  0  0  0
  5 22  1  0  0  0  0
  6 20  1  0  0  0  0
  6 24  1  0  0  0  0
  7 23  1  0  0  0  0
  8 25  1  0  0  0  0
  9 16  1  0  0  0  0
  9 23  2  0  0  0  0
 10 16  2  0  0  0  0
 10 26  1  0  0  0  0
 11 17  2  0  0  0  0
 11 27  1  0  0  0  0
 12 17  1  0  0  0  0
 12 20  1  0  0  0  0
 12 26  1  0  0  0  0
 14 18  1  0  0  0  0
 15 24  1  0  0  0  0
 18 25  1  0  0  0  0
 19 25  1  0  0  0  0
 20 21  1  0  0  0  0
 21 22  1  0  0  0  0
 22 24  1  0  0  0  0
 23 27  1  0  0  0  0
 26 27  2  0  0  0  0
  2 28  1  0  0  0  0
  4 29  1  0  0  0  0
  5 30  1  0  0  0  0
  7 31  1  0  0  0  0
  7 32  1  0  0  0  0
  8 33  1  0  0  0  0
  8 34  1  0  0  0  0
 13 35  1  0  0  0  0
 13 36  1  0  0  0  0
 13 37  1  0  0  0  0
 14 38  1  0  0  0  0
 14 39  1  0  0  0  0
 15 40  1  0  0  0  0
 15 41  1  0  0  0  0
 16 42  1  0  0  0  0
 17 43  1  0  0  0  0
 18 44  1  0  0  0  0
 18 45  1  0  0  0  0
 20 46  1  0  0  0  0
 21 47  1  0  0  0  0
 22 48  1  0  0  0  0
 24 49  1  0  0  0  0
 25 50  1  0  0  0  0
M  CHG  1   1   1
M  END
> <pdb_id>
3UJ6

> <uniprot_id>
Q6T755

> <usmiles>
[S+](C[C@H]1O[C@@H](N2c3ncnc(N)c3N=C2)[C@H](O)[C@@H]1O)(CC[C@H](N)C(=O)O)C

$$$$
SAM_A_301
          07192415533D 1   1.00000     0.00000     0
            
 50 52  0  0  0  0            999 V2000
   43.0037    8.3154   10.4351 S   0  3  0  0  0  0  0  0  0  0  0  0
   47.6788    8.1827   14.3836 O   0  0  0  0  0  0  0  0  0  0  0  0
   46.1818    6.9052   13.3223 O   0  0  0  0  0  0  0  0  0  0  0  0
   44.3644    3.8646   11.6956 O   0  0  0  0  0  0  0  0  0  0  0  0
   41.8160    4.5440   12.8635 O   0  0  0  0  0  0  0  0  0  0  0  0
   41.6909    5.4501    9.7437 O   0  0  0  0  0  0  0  0  0  0  0  0
   46.8501    3.5193    5.5545 N   0  0  0  0  0  0  0  0  0  0  0  0
   47.1088   10.3486   12.7183 N   0  0  0  0  0  0  0  0  0  0  0  0
   45.8559    1.7495    6.7335 N   0  0  0  0  0  0  0  0  0  0  0  0
   44.2023    2.1330    8.4688 N   0  0  0  0  0  0  0  0  0  0  0  0
   44.9503    5.3948    7.0928 N   0  0  0  0  0  0  0  0  0  0  0  0
   43.5971    4.5401    8.6801 N   0  0  0  0  0  0  0  0  0  0  0  0
   42.4125    9.9325    9.9211 C   0  0  0  0  0  0  0  0  0  0  0  0
   43.9120    8.7223   11.9343 C   0  0  0  0  0  0  0  0  0  0  0  0
   41.4604    7.5900   10.9266 C   0  0  0  0  0  0  0  0  0  0  0  0
   45.0106    1.3441    7.7167 C   0  0  0  0  0  0  0  0  0  0  0  0
   44.0089    5.6366    7.9627 C   0  0  0  0  0  0  0  0  0  0  0  0
   45.3535    9.0546   11.6628 C   0  0  0  0  0  0  0  0  0  0  0  0
   46.8056    8.0138   13.5124 C   0  0  0  0  0  0  0  0  0  0  0  0
   42.7211    4.4913    9.8496 C   0  0  1  0  0  0  0  0  0  0  0  0
   43.4800    4.8316   11.1525 C   0  0  1  0  0  0  0  0  0  0  0  0
   42.4604    5.5316   12.0398 C   0  0  1  0  0  0  0  0  0  0  0  0
   45.9551    3.0997    6.4747 C   0  0  0  0  0  0  0  0  0  0  0  0
   41.4137    6.0780   11.0452 C   0  0  2  0  0  0  0  0  0  0  0  0
   46.1269    9.2715   12.9568 C   0  0  1  0  0  0  0  0  0  0  0  0
   44.2582    3.4603    8.1148 C   0  0  0  0  0  0  0  0  0  0  0  0
   45.0893    4.0133    7.1458 C   0  0  0  0  0  0  0  0  0  0  0  0
   48.1255    9.0724   14.4778 H   0  0  0  0  0  0  0  0  0  0  0  0
   44.7789    4.2243   12.5315 H   0  0  0  0  0  0  0  0  0  0  0  0
   41.1422    4.9896   13.4529 H   0  0  0  0  0  0  0  0  0  0  0  0
   46.9386    4.4944    5.3513 H   0  0  0  0  0  0  0  0  0  0  0  0
   47.4245    2.8548    5.0764 H   0  0  0  0  0  0  0  0  0  0  0  0
   47.6328   10.5130   13.5540 H   0  0  0  0  0  0  0  0  0  0  0  0
   47.7300   10.0765   11.9834 H   0  0  0  0  0  0  0  0  0  0  0  0
   41.8806    9.8408    9.0792 H   0  0  0  0  0  0  0  0  0  0  0  0
   41.8350   10.3202   10.6396 H   0  0  0  0  0  0  0  0  0  0  0  0
   43.1927   10.5364    9.7583 H   0  0  0  0  0  0  0  0  0  0  0  0
   43.8749    7.9386   12.5543 H   0  0  0  0  0  0  0  0  0  0  0  0
   43.4774    9.5115   12.3683 H   0  0  0  0  0  0  0  0  0  0  0  0
   40.7723    7.8607   10.2533 H   0  0  0  0  0  0  0  0  0  0  0  0
   41.2200    7.9697   11.8199 H   0  0  0  0  0  0  0  0  0  0  0  0
   44.9809    0.3626    7.9057 H   0  0  0  0  0  0  0  0  0  0  0  0
   43.6182    6.5474    8.0966 H   0  0  0  0  0  0  0  0  0  0  0  0
   45.3972    9.8893   11.1138 H   0  0  0  0  0  0  0  0  0  0  0  0
   45.7714    8.3003   11.1564 H   0  0  0  0  0  0  0  0  0  0  0  0
   42.3196    3.5787    9.9269 H   0  0  0  0  0  0  0  0  0  0  0  0
   44.0915    5.5729   10.8757 H   0  0  0  0  0  0  0  0  0  0  0  0
   42.8756    6.2603   12.5845 H   0  0  0  0  0  0  0  0  0  0  0  0
   40.5016    5.8041   11.3503 H   0  0  0  0  0  0  0  0  0  0  0  0
   45.4801    9.5973   13.6463 H   0  0  0  0  0  0  0  0  0  0  0  0
  1 13  1  0  0  0  0
  1 14  1  0  0  0  0
  1 15  1  0  0  0  0
  2 19  1  0  0  0  0
  3 19  2  0  0  0  0
  4 21  1  0  0  0  0
  5 22  1  0  0  0  0
  6 20  1  0  0  0  0
  6 24  1  0  0  0  0
  7 23  1  0  0  0  0
  8 25  1  0  0  0  0
  9 16  1  0  0  0  0
  9 23  2  0  0  0  0
 10 16  2  0  0  0  0
 10 26  1  0  0  0  0
 11 17  2  0  0  0  0
 11 27  1  0  0  0  0
 12 17  1  0  0  0  0
 12 20  1  0  0  0  0
 12 26  1  0  0  0  0
 14 18  1  0  0  0  0
 15 24  1  0  0  0  0
 18 25  1  0  0  0  0
 19 25  1  0  0  0  0
 20 21  1  0  0  0  0
 21 22  1  0  0  0  0
 22 24  1  0  0  0  0
 23 27  1  0  0  0  0
 26 27  2  0  0  0  0
  2 28  1  0  0  0  0
  4 29  1  0  0  0  0
  5 30  1  0  0  0  0
  7 31  1  0  0  0  0
  7 32  1  0  0  0  0
  8 33  1  0  0  0  0
  8 34  1  0  0  0  0
 13 35  1  0  0  0  0
 13 36  1  0  0  0  0
 13 37  1  0  0  0  0
 14 38  1  0  0  0  0
 14 39  1  0  0  0  0
 15 40  1  0  0  0  0
 15 41  1  0  0  0  0
 16 42  1  0  0  0  0
 17 43  1  0  0  0  0
 18 44  1  0  0  0  0
 18 45  1  0  0  0  0
 20 46  1  0  0  0  0
 21 47  1  0  0  0  0
 22 48  1  0  0  0  0
 24 49  1  0  0  0  0
 25 50  1  0  0  0  0
M  CHG  1   1   1
M  END
> <pdb_id>
1UAK

> <uniprot_id>
P43912

> <usmiles>
[S+](C[C@H]1O[C@@H](N2c3ncnc(N)c3N=C2)[C@H](O)[C@@H]1O)(CC[C@H](N)C(=O)O)C

$$$$
SAM_A_301
          07202404193D 1   1.00000     0.00000     0
            
 50 52  0  0  0  0            999 V2000
   -0.0927   19.0148   15.0243 S   0  3  0  0  0  0  0  0  0  0  0  0
    5.2064   21.5056   15.2312 O   0  0  0  0  0  0  0  0  0  0  0  0
    5.3656   20.0203   13.6965 O   0  0  0  0  0  0  0  0  0  0  0  0
   -5.3749   21.5701   16.0698 O   0  0  0  0  0  0  0  0  0  0  0  0
   -2.6282   21.6097   16.3149 O   0  0  0  0  0  0  0  0  0  0  0  0
   -3.4145   20.6024   13.2600 O   0  0  0  0  0  0  0  0  0  0  0  0
   -8.5997   21.6452    9.4889 N   0  0  0  0  0  0  0  0  0  0  0  0
    3.2098   21.2043   12.4122 N   0  0  0  0  0  0  0  0  0  0  0  0
   -7.2748   23.5136   10.1257 N   0  0  0  0  0  0  0  0  0  0  0  0
   -5.7142   23.3553   11.8945 N   0  0  0  0  0  0  0  0  0  0  0  0
   -7.1286   20.1634   11.6358 N   0  0  0  0  0  0  0  0  0  0  0  0
   -5.6259   21.0995   12.9152 N   0  0  0  0  0  0  0  0  0  0  0  0
    0.5832   17.5553   14.2967 C   0  0  0  0  0  0  0  0  0  0  0  0
    0.9210   20.1742   14.0631 C   0  0  0  0  0  0  0  0  0  0  0  0
   -1.6591   19.0843   14.0783 C   0  0  0  0  0  0  0  0  0  0  0  0
   -6.3205   24.1073   10.9234 C   0  0  0  0  0  0  0  0  0  0  0  0
   -6.2629   19.9241   12.6467 C   0  0  0  0  0  0  0  0  0  0  0  0
    2.3824   20.0794   14.4972 C   0  0  0  0  0  0  0  0  0  0  0  0
    4.7187   20.8710   14.2987 C   0  0  0  0  0  0  0  0  0  0  0  0
   -4.5172   21.3182   13.8367 C   0  0  1  0  0  0  0  0  0  0  0  0
   -4.6334   20.7206   15.2215 C   0  0  1  0  0  0  0  0  0  0  0  0
   -3.1727   20.5139   15.5894 C   0  0  1  0  0  0  0  0  0  0  0  0
   -7.6507   22.1940   10.2684 C   0  0  0  0  0  0  0  0  0  0  0  0
   -2.4206   20.3984   14.2657 C   0  0  2  0  0  0  0  0  0  0  0  0
    3.2872   21.1436   13.8799 C   0  0  1  0  0  0  0  0  0  0  0  0
   -6.0471   22.0425   12.0251 C   0  0  0  0  0  0  0  0  0  0  0  0
   -7.0093   21.4538   11.2405 C   0  0  0  0  0  0  0  0  0  0  0  0
    4.6597   22.1943   15.7074 H   0  0  0  0  0  0  0  0  0  0  0  0
   -5.4406   21.1587   16.9789 H   0  0  0  0  0  0  0  0  0  0  0  0
   -1.6697   21.4233   16.5307 H   0  0  0  0  0  0  0  0  0  0  0  0
   -8.8548   20.6861    9.6118 H   0  0  0  0  0  0  0  0  0  0  0  0
   -9.0502   22.1963    8.7865 H   0  0  0  0  0  0  0  0  0  0  0  0
    3.8237   21.9182   12.0753 H   0  0  0  0  0  0  0  0  0  0  0  0
    3.4813   20.3222   12.0273 H   0  0  0  0  0  0  0  0  0  0  0  0
    0.1471   16.7499   14.6983 H   0  0  0  0  0  0  0  0  0  0  0  0
    0.4176   17.5670   13.3105 H   0  0  0  0  0  0  0  0  0  0  0  0
    1.5677   17.5220   14.4690 H   0  0  0  0  0  0  0  0  0  0  0  0
    0.5909   21.1060   14.2144 H   0  0  0  0  0  0  0  0  0  0  0  0
    0.8494   19.9490   13.0914 H   0  0  0  0  0  0  0  0  0  0  0  0
   -2.2453   18.3319   14.3789 H   0  0  0  0  0  0  0  0  0  0  0  0
   -1.4485   18.9750   13.1068 H   0  0  0  0  0  0  0  0  0  0  0  0
   -6.0755   25.0684   10.7956 H   0  0  0  0  0  0  0  0  0  0  0  0
   -6.1173   19.0499   13.1099 H   0  0  0  0  0  0  0  0  0  0  0  0
    2.7305   19.1799   14.2332 H   0  0  0  0  0  0  0  0  0  0  0  0
    2.4210   20.1731   15.4920 H   0  0  0  0  0  0  0  0  0  0  0  0
   -4.3038   22.2933   13.8968 H   0  0  0  0  0  0  0  0  0  0  0  0
   -5.0889   19.8323   15.1618 H   0  0  0  0  0  0  0  0  0  0  0  0
   -3.0690   19.6701   16.1160 H   0  0  0  0  0  0  0  0  0  0  0  0
   -1.7637   21.1505   14.2129 H   0  0  0  0  0  0  0  0  0  0  0  0
    3.0178   22.0346   14.2453 H   0  0  0  0  0  0  0  0  0  0  0  0
  1 13  1  0  0  0  0
  1 14  1  0  0  0  0
  1 15  1  0  0  0  0
  2 19  1  0  0  0  0
  3 19  2  0  0  0  0
  4 21  1  0  0  0  0
  5 22  1  0  0  0  0
  6 20  1  0  0  0  0
  6 24  1  0  0  0  0
  7 23  1  0  0  0  0
  8 25  1  0  0  0  0
  9 16  1  0  0  0  0
  9 23  2  0  0  0  0
 10 16  2  0  0  0  0
 10 26  1  0  0  0  0
 11 17  2  0  0  0  0
 11 27  1  0  0  0  0
 12 17  1  0  0  0  0
 12 20  1  0  0  0  0
 12 26  1  0  0  0  0
 14 18  1  0  0  0  0
 15 24  1  0  0  0  0
 18 25  1  0  0  0  0
 19 25  1  0  0  0  0
 20 21  1  0  0  0  0
 21 22  1  0  0  0  0
 22 24  1  0  0  0  0
 23 27  1  0  0  0  0
 26 27  2  0  0  0  0
  2 28  1  0  0  0  0
  4 29  1  0  0  0  0
  5 30  1  0  0  0  0
  7 31  1  0  0  0  0
  7 32  1  0  0  0  0
  8 33  1  0  0  0  0
  8 34  1  0  0  0  0
 13 35  1  0  0  0  0
 13 36  1  0  0  0  0
 13 37  1  0  0  0  0
 14 38  1  0  0  0  0
 14 39  1  0  0  0  0
 15 40  1  0  0  0  0
 15 41  1  0  0  0  0
 16 42  1  0  0  0  0
 17 43  1  0  0  0  0
 18 44  1  0  0  0  0
 18 45  1  0  0  0  0
 20 46  1  0  0  0  0
 21 47  1  0  0  0  0
 22 48  1  0  0  0  0
 24 49  1  0  0  0  0
 25 50  1  0  0  0  0
M  CHG  1   1   1
M  END
> <pdb_id>
6LFE

> <uniprot_id>
P22734

> <usmiles>
[S+](C[C@H]1O[C@@H](N2c3ncnc(N)c3N=C2)[C@H](O)[C@@H]1O)(CC[C@H](N)C(=O)O)C

$$$$
SAM_A_376
          07202412293D 1   1.00000     0.00000     0
            
 48 50  0  0  0  0            999 V2000
   27.3735   55.5011   20.4340 S   0  3  0  0  0  0  0  0  0  0  0  0
   22.7840   55.3664   22.2409 O   0  0  0  0  0  0  0  0  0  0  0  0
   23.6935   56.6722   23.7975 O   0  0  0  0  0  0  0  0  0  0  0  0
   28.0281   57.1645   15.1778 O   0  0  0  0  0  0  0  0  0  0  0  0
   26.2416   57.2890   17.0553 O   0  0  0  0  0  0  0  0  0  0  0  0
   28.9761   58.5802   18.2970 O   0  0  0  0  0  0  0  0  0  0  0  0
   33.1321   62.0526   14.4815 N   0  0  0  0  0  0  0  0  0  0  0  0
   24.2564   58.6357   22.1648 N   0  0  0  0  0  0  0  0  0  0  0  0
   31.1698   62.9773   15.3047 N   0  0  0  0  0  0  0  0  0  0  0  0
   29.5072   61.6594   16.2154 N   0  0  0  0  0  0  0  0  0  0  0  0
   31.9810   59.4211   15.3301 N   0  0  0  0  0  0  0  0  0  0  0  0
   30.0144   59.2606   16.2484 N   0  0  0  0  0  0  0  0  0  0  0  0
   28.4329   54.5807   21.5287 C   0  0  0  0  0  0  0  0  0  0  0  0
   26.0530   56.1919   21.3550 C   0  0  0  0  0  0  0  0  0  0  0  0
   28.5306   56.7836   19.8307 C   0  0  0  0  0  0  0  0  0  0  0  0
   29.9807   62.8424   15.8655 C   0  0  0  0  0  0  0  0  0  0  0  0
   31.0827   58.5795   15.8355 C   0  0  0  0  0  0  0  0  0  0  0  0
   24.9743   56.7879   20.7137 C   0  0  0  0  0  0  0  0  0  0  0  0
   23.3967   56.3883   22.6165 C   0  0  0  0  0  0  0  0  0  0  0  0
   28.8015   58.6892   16.8776 C   0  0  1  0  0  0  0  0  0  0  0  0
   28.5959   57.2267   16.4891 C   0  0  1  0  0  0  0  0  0  0  0  0
   27.5262   56.8605   17.5173 C   0  0  1  0  0  0  0  0  0  0  0  0
   31.9470   61.9106   15.0665 C   0  0  0  0  0  0  0  0  0  0  0  0
   27.9416   57.6837   18.7407 C   0  0  2  0  0  0  0  0  0  0  0  0
   23.8238   57.3811   21.5336 C   0  0  1  0  0  0  0  0  0  0  0  0
   30.2304   60.5492   16.0094 C   0  0  0  0  0  0  0  0  0  0  0  0
   31.4841   60.6501   15.4234 C   0  0  0  0  0  0  0  0  0  0  0  0
   22.5923   55.2271   21.2694 H   0  0  0  0  0  0  0  0  0  0  0  0
   27.8914   56.2083   14.9188 H   0  0  0  0  0  0  0  0  0  0  0  0
   25.5462   57.0467   17.7319 H   0  0  0  0  0  0  0  0  0  0  0  0
   33.7037   61.2505   14.3086 H   0  0  0  0  0  0  0  0  0  0  0  0
   33.4521   62.9616   14.2143 H   0  0  0  0  0  0  0  0  0  0  0  0
   23.5018   59.0179   22.6983 H   0  0  0  0  0  0  0  0  0  0  0  0
   25.0330   58.4548   22.7682 H   0  0  0  0  0  0  0  0  0  0  0  0
   29.1883   54.1846   21.0066 H   0  0  0  0  0  0  0  0  0  0  0  0
   28.7976   55.1916   22.2313 H   0  0  0  0  0  0  0  0  0  0  0  0
   27.9081   53.8487   21.9632 H   0  0  0  0  0  0  0  0  0  0  0  0
   26.0759   56.1567   22.3541 H   0  0  0  0  0  0  0  0  0  0  0  0
   29.3404   56.3286   19.4603 H   0  0  0  0  0  0  0  0  0  0  0  0
   28.7959   57.3583   20.6049 H   0  0  0  0  0  0  0  0  0  0  0  0
   29.4246   63.6571   16.0295 H   0  0  0  0  0  0  0  0  0  0  0  0
   31.1926   57.5874   15.8962 H   0  0  0  0  0  0  0  0  0  0  0  0
   24.9487   56.8299   19.7149 H   0  0  0  0  0  0  0  0  0  0  0  0
   27.9931   59.2350   16.6573 H   0  0  0  0  0  0  0  0  0  0  0  0
   29.4275   56.6788   16.5801 H   0  0  0  0  0  0  0  0  0  0  0  0
   27.5333   55.8808   17.7176 H   0  0  0  0  0  0  0  0  0  0  0  0
   27.1618   58.1988   19.0965 H   0  0  0  0  0  0  0  0  0  0  0  0
   23.0483   57.5653   20.9297 H   0  0  0  0  0  0  0  0  0  0  0  0
  1 13  1  0  0  0  0
  1 14  1  0  0  0  0
  1 15  1  0  0  0  0
  2 19  1  0  0  0  0
  3 19  2  0  0  0  0
  4 21  1  0  0  0  0
  5 22  1  0  0  0  0
  6 20  1  0  0  0  0
  6 24  1  0  0  0  0
  7 23  1  0  0  0  0
  8 25  1  0  0  0  0
  9 16  1  0  0  0  0
  9 23  2  0  0  0  0
 10 16  2  0  0  0  0
 10 26  1  0  0  0  0
 11 17  2  0  0  0  0
 11 27  1  0  0  0  0
 12 17  1  0  0  0  0
 12 20  1  0  0  0  0
 12 26  1  0  0  0  0
 14 18  2  0  0  0  0
 15 24  1  0  0  0  0
 18 25  1  0  0  0  0
 19 25  1  0  0  0  0
 20 21  1  0  0  0  0
 21 22  1  0  0  0  0
 22 24  1  0  0  0  0
 23 27  1  0  0  0  0
 26 27  2  0  0  0  0
  2 28  1  0  0  0  0
  4 29  1  0  0  0  0
  5 30  1  0  0  0  0
  7 31  1  0  0  0  0
  7 32  1  0  0  0  0
  8 33  1  0  0  0  0
  8 34  1  0  0  0  0
 13 35  1  0  0  0  0
 13 36  1  0  0  0  0
 13 37  1  0  0  0  0
 14 38  1  0  0  0  0
 15 39  1  0  0  0  0
 15 40  1  0  0  0  0
 16 41  1  0  0  0  0
 17 42  1  0  0  0  0
 18 43  1  0  0  0  0
 20 44  1  0  0  0  0
 21 45  1  0  0  0  0
 22 46  1  0  0  0  0
 24 47  1  0  0  0  0
 25 48  1  0  0  0  0
M  CHG  1   1   1
M  END
> <pdb_id>
2ZUL

> <uniprot_id>
Q5SKW0

> <usmiles>
[S+](/C=C/[C@H](N)C(=O)O)(C[C@H]1O[C@@H](N2c3ncnc(N)c3N=C2)[C@H](O)[C@@H]1O)C

$$$$
SAM_A_388
          07202412293D 1   1.00000     0.00000     0
            
 50 52  0  0  0  0            999 V2000
   27.2940   55.5660   20.3460 S   0  3  0  0  0  0  0  0  0  0  0  0
   23.7130   56.7000   23.7680 O   0  0  0  0  0  0  0  0  0  0  0  0
   22.7060   55.4530   22.3410 O   0  0  0  0  0  0  0  0  0  0  0  0
   27.9580   57.2510   14.9830 O   0  0  0  0  0  0  0  0  0  0  0  0
   26.1010   57.2400   17.1050 O   0  0  0  0  0  0  0  0  0  0  0  0
   28.9760   58.5450   18.2270 O   0  0  0  0  0  0  0  0  0  0  0  0
   33.0800   62.2250   14.4500 N   0  0  0  0  0  0  0  0  0  0  0  0
   24.1720   58.7360   22.1480 N   0  0  0  0  0  0  0  0  0  0  0  0
   31.0920   63.0390   15.3630 N   0  0  0  0  0  0  0  0  0  0  0  0
   29.3790   61.6260   16.2640 N   0  0  0  0  0  0  0  0  0  0  0  0
   32.0270   59.4690   15.2990 N   0  0  0  0  0  0  0  0  0  0  0  0
   30.0200   59.2420   16.2290 N   0  0  0  0  0  0  0  0  0  0  0  0
   28.3210   54.7750   21.6150 C   0  0  0  0  0  0  0  0  0  0  0  0
   26.0990   56.4750   21.3730 C   0  0  0  0  0  0  0  0  0  0  0  0
   28.4460   56.8540   19.7960 C   0  0  0  0  0  0  0  0  0  0  0  0
   29.8580   62.8880   15.9370 C   0  0  0  0  0  0  0  0  0  0  0  0
   31.1310   58.5600   15.7840 C   0  0  0  0  0  0  0  0  0  0  0  0
   24.7840   56.8000   20.6480 C   0  0  0  0  0  0  0  0  0  0  0  0
   23.3390   56.4590   22.6250 C   0  0  0  0  0  0  0  0  0  0  0  0
   28.7870   58.7170   16.8360 C   0  0  1  0  0  0  0  0  0  0  0  0
   28.4190   57.3310   16.3350 C   0  0  1  0  0  0  0  0  0  0  0  0
   27.4210   56.8890   17.4100 C   0  0  1  0  0  0  0  0  0  0  0  0
   31.9210   61.9810   15.0700 C   0  0  0  0  0  0  0  0  0  0  0  0
   27.9020   57.6920   18.6340 C   0  0  2  0  0  0  0  0  0  0  0  0
   23.7150   57.4510   21.5290 C   0  0  1  0  0  0  0  0  0  0  0  0
   30.2220   60.5710   16.0080 C   0  0  0  0  0  0  0  0  0  0  0  0
   31.4810   60.7060   15.4210 C   0  0  0  0  0  0  0  0  0  0  0  0
   24.2292   57.5348   23.9596 H   0  0  0  0  0  0  0  0  0  0  0  0
   27.7453   56.2999   14.7591 H   0  0  0  0  0  0  0  0  0  0  0  0
   25.4955   56.9284   17.8373 H   0  0  0  0  0  0  0  0  0  0  0  0
   33.6969   61.4699   14.2280 H   0  0  0  0  0  0  0  0  0  0  0  0
   33.3300   63.1626   14.2082 H   0  0  0  0  0  0  0  0  0  0  0  0
   23.4370   59.1151   22.7101 H   0  0  0  0  0  0  0  0  0  0  0  0
   24.9741   58.5638   22.7199 H   0  0  0  0  0  0  0  0  0  0  0  0
   29.0351   54.2310   21.1745 H   0  0  0  0  0  0  0  0  0  0  0  0
   28.7429   55.4776   22.1880 H   0  0  0  0  0  0  0  0  0  0  0  0
   27.7511   54.1804   22.1821 H   0  0  0  0  0  0  0  0  0  0  0  0
   26.5207   57.3343   21.6626 H   0  0  0  0  0  0  0  0  0  0  0  0
   25.8873   55.9199   22.1774 H   0  0  0  0  0  0  0  0  0  0  0  0
   29.2957   56.4163   19.5021 H   0  0  0  0  0  0  0  0  0  0  0  0
   28.6339   57.4629   20.5667 H   0  0  0  0  0  0  0  0  0  0  0  0
   29.2962   63.6942   16.1226 H   0  0  0  0  0  0  0  0  0  0  0  0
   31.2594   57.5687   15.8115 H   0  0  0  0  0  0  0  0  0  0  0  0
   24.4103   55.9475   20.2826 H   0  0  0  0  0  0  0  0  0  0  0  0
   24.9894   57.4241   19.8941 H   0  0  0  0  0  0  0  0  0  0  0  0
   28.0306   59.3501   16.6713 H   0  0  0  0  0  0  0  0  0  0  0  0
   29.2304   56.7521   16.4154 H   0  0  0  0  0  0  0  0  0  0  0  0
   27.4957   55.9063   17.5797 H   0  0  0  0  0  0  0  0  0  0  0  0
   27.1476   58.2574   18.9675 H   0  0  0  0  0  0  0  0  0  0  0  0
   22.9061   57.6337   20.9702 H   0  0  0  0  0  0  0  0  0  0  0  0
  1 13  1  0  0  0  0
  1 14  1  0  0  0  0
  1 15  1  0  0  0  0
  2 19  1  0  0  0  0
  3 19  2  0  0  0  0
  4 21  1  0  0  0  0
  5 22  1  0  0  0  0
  6 20  1  0  0  0  0
  6 24  1  0  0  0  0
  7 23  1  0  0  0  0
  8 25  1  0  0  0  0
  9 16  1  0  0  0  0
  9 23  2  0  0  0  0
 10 16  2  0  0  0  0
 10 26  1  0  0  0  0
 11 17  2  0  0  0  0
 11 27  1  0  0  0  0
 12 17  1  0  0  0  0
 12 20  1  0  0  0  0
 12 26  1  0  0  0  0
 14 18  1  0  0  0  0
 15 24  1  0  0  0  0
 18 25  1  0  0  0  0
 19 25  1  0  0  0  0
 20 21  1  0  0  0  0
 21 22  1  0  0  0  0
 22 24  1  0  0  0  0
 23 27  1  0  0  0  0
 26 27  2  0  0  0  0
  2 28  1  0  0  0  0
  4 29  1  0  0  0  0
  5 30  1  0  0  0  0
  7 31  1  0  0  0  0
  7 32  1  0  0  0  0
  8 33  1  0  0  0  0
  8 34  1  0  0  0  0
 13 35  1  0  0  0  0
 13 36  1  0  0  0  0
 13 37  1  0  0  0  0
 14 38  1  0  0  0  0
 14 39  1  0  0  0  0
 15 40  1  0  0  0  0
 15 41  1  0  0  0  0
 16 42  1  0  0  0  0
 17 43  1  0  0  0  0
 18 44  1  0  0  0  0
 18 45  1  0  0  0  0
 20 46  1  0  0  0  0
 21 47  1  0  0  0  0
 22 48  1  0  0  0  0
 24 49  1  0  0  0  0
 25 50  1  0  0  0  0
M  CHG  1   1   1
M  END
> <pdb_id>
3DMF

> <uniprot_id>
Q5SKW0

> <usmiles>
[S+](C[C@H]1O[C@@H](N2c3ncnc(N)c3N=C2)[C@H](O)[C@@H]1O)(CC[C@H](N)C(=O)O)C

$$$$
SAM_A_401
          07202408203D 1   1.00000     0.00000     0
            
 50 52  0  0  0  0            999 V2000
   19.4455   28.0737   10.8576 S   0  3  0  0  0  0  0  0  0  0  0  0
   20.8492   23.1754    7.2547 O   0  0  0  0  0  0  0  0  0  0  0  0
   18.6621   23.5503    7.0885 O   0  0  0  0  0  0  0  0  0  0  0  0
   23.8707   31.7703   12.0888 O   0  0  0  0  0  0  0  0  0  0  0  0
   23.2634   29.3381   11.1808 O   0  0  0  0  0  0  0  0  0  0  0  0
   21.2319   31.5075    9.6897 O   0  0  0  0  0  0  0  0  0  0  0  0
   22.7041   37.9725    8.7417 N   0  0  0  0  0  0  0  0  0  0  0  0
   19.4596   26.2257    6.6258 N   0  0  0  0  0  0  0  0  0  0  0  0
   24.0141   36.3609    7.7230 N   0  0  0  0  0  0  0  0  0  0  0  0
   23.9374   34.0313    8.3328 N   0  0  0  0  0  0  0  0  0  0  0  0
   21.4533   35.6563   10.3311 N   0  0  0  0  0  0  0  0  0  0  0  0
   22.2623   33.5787   10.0501 N   0  0  0  0  0  0  0  0  0  0  0  0
   17.6632   27.9331   10.8924 C   0  0  0  0  0  0  0  0  0  0  0  0
   24.4030   35.0805    7.6472 C   0  0  0  0  0  0  0  0  0  0  0  0
   21.3827   34.3936   10.6977 C   0  0  0  0  0  0  0  0  0  0  0  0
   19.7954   27.4183    9.2062 C   0  0  0  0  0  0  0  0  0  0  0  0
   19.6996   29.8832   10.6324 C   0  0  0  0  0  0  0  0  0  0  0  0
   19.5970   25.9147    9.0523 C   0  0  0  0  0  0  0  0  0  0  0  0
   19.8432   23.9166    7.2993 C   0  0  0  0  0  0  0  0  0  0  0  0
   23.0338   36.6909    8.6071 C   0  0  0  0  0  0  0  0  0  0  0  0
   22.9621   34.3814    9.1780 C   0  0  0  0  0  0  0  0  0  0  0  0
   22.4605   35.6574    9.3691 C   0  0  0  0  0  0  0  0  0  0  0  0
   22.4002   32.1278   10.1905 C   0  0  1  0  0  0  0  0  0  0  0  0
   22.5259   31.6255   11.6193 C   0  0  1  0  0  0  0  0  0  0  0  0
   22.1226   30.1468   11.4441 C   0  0  1  0  0  0  0  0  0  0  0  0
   21.1364   30.1862   10.2642 C   0  0  2  0  0  0  0  0  0  0  0  0
   20.1105   25.4650    7.6132 C   0  0  1  0  0  0  0  0  0  0  0  0
   24.3232   30.8986   11.9433 H   0  0  0  0  0  0  0  0  0  0  0  0
   23.0646   28.4089   11.4690 H   0  0  0  0  0  0  0  0  0  0  0  0
   22.0058   38.2586    9.4198 H   0  0  0  0  0  0  0  0  0  0  0  0
   23.1401   38.6925    8.1740 H   0  0  0  0  0  0  0  0  0  0  0  0
   20.0765   26.9651    6.3057 H   0  0  0  0  0  0  0  0  0  0  0  0
   19.2827   25.6372    5.8182 H   0  0  0  0  0  0  0  0  0  0  0  0
   17.3404   26.8932   10.8576 H   0  0  0  0  0  0  0  0  0  0  0  0
   17.1730   28.3936   11.7486 H   0  0  0  0  0  0  0  0  0  0  0  0
   17.2259   28.4054   10.0134 H   0  0  0  0  0  0  0  0  0  0  0  0
   25.2001   34.8827    6.9331 H   0  0  0  0  0  0  0  0  0  0  0  0
   20.6846   34.0323   11.4505 H   0  0  0  0  0  0  0  0  0  0  0  0
   19.2110   27.9425    8.4518 H   0  0  0  0  0  0  0  0  0  0  0  0
   20.8270   27.6597    8.9580 H   0  0  0  0  0  0  0  0  0  0  0  0
   19.0033   30.2075    9.8627 H   0  0  0  0  0  0  0  0  0  0  0  0
   19.4005   30.4439   11.5173 H   0  0  0  0  0  0  0  0  0  0  0  0
   20.1433   25.3698    9.8207 H   0  0  0  0  0  0  0  0  0  0  0  0
   18.5556   25.6199    9.1734 H   0  0  0  0  0  0  0  0  0  0  0  0
   23.2335   31.8153    9.5639 H   0  0  0  0  0  0  0  0  0  0  0  0
   21.8455   32.1204   12.3101 H   0  0  0  0  0  0  0  0  0  0  0  0
   21.6547   29.7569   12.3471 H   0  0  0  0  0  0  0  0  0  0  0  0
   21.4800   29.5479    9.4529 H   0  0  0  0  0  0  0  0  0  0  0  0
   21.1849   25.6313    7.5436 H   0  0  0  0  0  0  0  0  0  0  0  0
   21.7570   23.5530    7.4371 H   0  0  0  0  0  0  0  0  0  0  0  0
  1 13  1  0  0  0  0
  1 16  1  0  0  0  0
  1 17  1  0  0  0  0
  2 19  1  0  0  0  0
  3 19  2  0  0  0  0
  4 24  1  0  0  0  0
  4 28  1  0  0  0  0
  5 25  1  0  0  0  0
  5 29  1  0  0  0  0
  6 23  1  0  0  0  0
  6 26  1  0  0  0  0
  7 20  1  0  0  0  0
  7 30  1  0  0  0  0
  7 31  1  0  0  0  0
  8 27  1  0  0  0  0
  8 32  1  0  0  0  0
  8 33  1  0  0  0  0
  9 14  1  0  0  0  0
  9 20  2  0  0  0  0
 10 14  2  0  0  0  0
 10 21  1  0  0  0  0
 11 15  2  0  0  0  0
 11 22  1  0  0  0  0
 12 15  1  0  0  0  0
 12 21  1  0  0  0  0
 12 23  1  0  0  0  0
 13 34  1  0  0  0  0
 13 35  1  0  0  0  0
 13 36  1  0  0  0  0
 14 37  1  0  0  0  0
 15 38  1  0  0  0  0
 16 18  1  0  0  0  0
 16 39  1  0  0  0  0
 16 40  1  0  0  0  0
 17 26  1  0  0  0  0
 17 41  1  0  0  0  0
 17 42  1  0  0  0  0
 18 27  1  0  0  0  0
 18 43  1  0  0  0  0
 18 44  1  0  0  0  0
 19 27  1  0  0  0  0
 20 22  1  0  0  0  0
 21 22  2  0  0  0  0
 23 24  1  0  0  0  0
 23 45  1  0  0  0  0
 24 25  1  0  0  0  0
 24 46  1  0  0  0  0
 25 26  1  0  0  0  0
 25 47  1  0  0  0  0
 26 48  1  0  0  0  0
 27 49  1  0  0  0  0
  2 50  1  0  0  0  0
M  CHG  1   1   1
M  END
> <pdb_id>
7SE7

> <uniprot_id>
P22087

> <usmiles>
[S+](C[C@H]1O[C@@H](N2c3ncnc(N)c3N=C2)[C@H](O)[C@@H]1O)(CC[C@H](N)C(=O)O)C

$$$$
SAM_A_409
          07202414123D 1   1.00000     0.00000     0
            
 50 52  0  0  0  0            999 V2000
   10.7769   55.2683   -8.9612 S   0  3  0  0  0  0  0  0  0  0  0  0
   11.0170   59.6526  -12.1908 O   0  0  0  0  0  0  0  0  0  0  0  0
   10.0050   59.9315  -10.2585 O   0  0  0  0  0  0  0  0  0  0  0  0
   10.9624   49.8923   -8.2549 O   0  0  0  0  0  0  0  0  0  0  0  0
   12.6776   51.4756   -9.6384 O   0  0  0  0  0  0  0  0  0  0  0  0
    9.9757   52.6573   -7.5371 O   0  0  0  0  0  0  0  0  0  0  0  0
    4.0483   53.5045  -10.4587 N   0  0  0  0  0  0  0  0  0  0  0  0
   12.9387   58.0655  -11.0697 N   0  0  0  0  0  0  0  0  0  0  0  0
    4.3980   52.9260   -8.2440 N   0  0  0  0  0  0  0  0  0  0  0  0
    6.5262   52.2571   -7.3387 N   0  0  0  0  0  0  0  0  0  0  0  0
    7.0668   52.8835  -10.8299 N   0  0  0  0  0  0  0  0  0  0  0  0
    8.2388   52.1973   -9.0637 N   0  0  0  0  0  0  0  0  0  0  0  0
    9.3911   55.6096   -7.8452 C   0  0  0  0  0  0  0  0  0  0  0  0
   11.9435   56.6591   -8.4797 C   0  0  0  0  0  0  0  0  0  0  0  0
   11.7861   54.1617   -7.9788 C   0  0  0  0  0  0  0  0  0  0  0  0
    5.2281   52.5227   -7.2647 C   0  0  0  0  0  0  0  0  0  0  0  0
    8.2254   52.4696  -10.4084 C   0  0  0  0  0  0  0  0  0  0  0  0
   11.6459   58.0839   -8.9778 C   0  0  0  0  0  0  0  0  0  0  0  0
   10.8207   59.3637  -11.0083 C   0  0  0  0  0  0  0  0  0  0  0  0
    9.3193   51.6319   -8.2506 C   0  0  1  0  0  0  0  0  0  0  0  0
   10.3850   50.8898   -9.0823 C   0  0  1  0  0  0  0  0  0  0  0  0
   11.3899   52.0031   -9.3394 C   0  0  1  0  0  0  0  0  0  0  0  0
    4.8922   53.1549   -9.4885 C   0  0  0  0  0  0  0  0  0  0  0  0
   11.3416   52.7252   -7.9959 C   0  0  2  0  0  0  0  0  0  0  0  0
   11.5631   58.1209  -10.5013 C   0  0  1  0  0  0  0  0  0  0  0  0
    6.9674   52.4310   -8.6049 C   0  0  0  0  0  0  0  0  0  0  0  0
    6.2498   52.8678   -9.6983 C   0  0  0  0  0  0  0  0  0  0  0  0
   11.6933   59.1444  -12.7241 H   0  0  0  0  0  0  0  0  0  0  0  0
   11.6593   49.3938   -8.7706 H   0  0  0  0  0  0  0  0  0  0  0  0
   13.3160   52.2276   -9.8025 H   0  0  0  0  0  0  0  0  0  0  0  0
    4.3918   53.6775  -11.3818 H   0  0  0  0  0  0  0  0  0  0  0  0
    3.0716   53.5939  -10.2637 H   0  0  0  0  0  0  0  0  0  0  0  0
   12.8881   58.0896  -12.0681 H   0  0  0  0  0  0  0  0  0  0  0  0
   13.4660   58.8502  -10.7437 H   0  0  0  0  0  0  0  0  0  0  0  0
    8.6713   54.9309   -7.9904 H   0  0  0  0  0  0  0  0  0  0  0  0
    9.7070   55.5630   -6.8976 H   0  0  0  0  0  0  0  0  0  0  0  0
    9.0302   56.5234   -8.0317 H   0  0  0  0  0  0  0  0  0  0  0  0
   12.8508   56.4125   -8.8203 H   0  0  0  0  0  0  0  0  0  0  0  0
   11.9610   56.6950   -7.4805 H   0  0  0  0  0  0  0  0  0  0  0  0
   11.7686   54.4821   -7.0317 H   0  0  0  0  0  0  0  0  0  0  0  0
   12.7226   54.2022   -8.3271 H   0  0  0  0  0  0  0  0  0  0  0  0
    4.8121   52.4080   -6.3626 H   0  0  0  0  0  0  0  0  0  0  0  0
    9.0228   52.3612  -11.0021 H   0  0  0  0  0  0  0  0  0  0  0  0
   12.3760   58.6962   -8.6744 H   0  0  0  0  0  0  0  0  0  0  0  0
   10.7740   58.3893   -8.5949 H   0  0  0  0  0  0  0  0  0  0  0  0
    8.9226   50.9900   -7.5944 H   0  0  0  0  0  0  0  0  0  0  0  0
   10.0111   50.5118   -9.9292 H   0  0  0  0  0  0  0  0  0  0  0  0
   11.0736   52.6024  -10.0748 H   0  0  0  0  0  0  0  0  0  0  0  0
   11.9111   52.2168   -7.3501 H   0  0  0  0  0  0  0  0  0  0  0  0
   11.0640   57.3105  -10.8082 H   0  0  0  0  0  0  0  0  0  0  0  0
  1 13  1  0  0  0  0
  1 14  1  0  0  0  0
  1 15  1  0  0  0  0
  2 19  1  0  0  0  0
  3 19  2  0  0  0  0
  4 21  1  0  0  0  0
  5 22  1  0  0  0  0
  6 20  1  0  0  0  0
  6 24  1  0  0  0  0
  7 23  1  0  0  0  0
  8 25  1  0  0  0  0
  9 16  1  0  0  0  0
  9 23  2  0  0  0  0
 10 16  2  0  0  0  0
 10 26  1  0  0  0  0
 11 17  2  0  0  0  0
 11 27  1  0  0  0  0
 12 17  1  0  0  0  0
 12 20  1  0  0  0  0
 12 26  1  0  0  0  0
 14 18  1  0  0  0  0
 15 24  1  0  0  0  0
 18 25  1  0  0  0  0
 19 25  1  0  0  0  0
 20 21  1  0  0  0  0
 21 22  1  0  0  0  0
 22 24  1  0  0  0  0
 23 27  1  0  0  0  0
 26 27  2  0  0  0  0
  2 28  1  0  0  0  0
  4 29  1  0  0  0  0
  5 30  1  0  0  0  0
  7 31  1  0  0  0  0
  7 32  1  0  0  0  0
  8 33  1  0  0  0  0
  8 34  1  0  0  0  0
 13 35  1  0  0  0  0
 13 36  1  0  0  0  0
 13 37  1  0  0  0  0
 14 38  1  0  0  0  0
 14 39  1  0  0  0  0
 15 40  1  0  0  0  0
 15 41  1  0  0  0  0
 16 42  1  0  0  0  0
 17 43  1  0  0  0  0
 18 44  1  0  0  0  0
 18 45  1  0  0  0  0
 20 46  1  0  0  0  0
 21 47  1  0  0  0  0
 22 48  1  0  0  0  0
 24 49  1  0  0  0  0
 25 50  1  0  0  0  0
M  CHG  1   1   1
M  END
> <pdb_id>
6VD1

> <uniprot_id>
P17562

> <usmiles>
[S+](C[C@H]1O[C@@H](N2c3ncnc(N)c3N=C2)[C@H](O)[C@@H]1O)(CC[C@H](N)C(=O)O)C

$$$$
SAM_A_601
          07192419313D 1   1.00000     0.00000     0
            
 50 52  0  0  0  0            999 V2000
   14.8080  -22.1190  -12.8720 S   0  3  0  0  0  0  0  0  0  0  0  0
   18.8100  -24.6450   -8.9080 O   0  0  0  0  0  0  0  0  0  0  0  0
   16.7210  -25.1760   -9.0840 O   0  0  0  0  0  0  0  0  0  0  0  0
    9.5190  -20.7080  -11.2720 O   0  0  0  0  0  0  0  0  0  0  0  0
   11.6800  -21.6930  -10.6580 O   0  0  0  0  0  0  0  0  0  0  0  0
   12.4160  -18.8990  -12.0950 O   0  0  0  0  0  0  0  0  0  0  0  0
   18.4740  -22.1080   -9.7920 N   0  0  0  0  0  0  0  0  0  0  0  0
    8.4860  -13.6470  -12.9040 N   0  0  0  0  0  0  0  0  0  0  0  0
    9.4010  -14.0850  -10.8380 N   0  0  0  0  0  0  0  0  0  0  0  0
   10.4000  -16.1760  -10.3760 N   0  0  0  0  0  0  0  0  0  0  0  0
    9.3100  -16.4220  -13.6750 N   0  0  0  0  0  0  0  0  0  0  0  0
   10.3420  -17.7590  -12.2570 N   0  0  0  0  0  0  0  0  0  0  0  0
   15.9810  -21.9160  -14.2400 C   0  0  0  0  0  0  0  0  0  0  0  0
   10.0550  -14.9230   -9.9730 C   0  0  0  0  0  0  0  0  0  0  0  0
    9.8420  -17.6420  -13.5270 C   0  0  0  0  0  0  0  0  0  0  0  0
   15.8440  -21.7820  -11.4390 C   0  0  0  0  0  0  0  0  0  0  0  0
   13.9880  -20.4960  -13.0340 C   0  0  0  0  0  0  0  0  0  0  0  0
   16.5220  -23.0770  -10.9930 C   0  0  0  0  0  0  0  0  0  0  0  0
   17.6280  -24.3460   -9.2030 C   0  0  0  0  0  0  0  0  0  0  0  0
    9.1000  -14.4940  -12.1010 C   0  0  0  0  0  0  0  0  0  0  0  0
   10.1210  -16.5820  -11.6240 C   0  0  0  0  0  0  0  0  0  0  0  0
    9.4720  -15.7540  -12.5170 C   0  0  0  0  0  0  0  0  0  0  0  0
   11.0590  -18.9030  -11.6730 C   0  0  1  0  0  0  0  0  0  0  0  0
   10.5520  -20.2650  -12.1150 C   0  0  1  0  0  0  0  0  0  0  0  0
   11.7800  -21.1440  -11.9360 C   0  0  1  0  0  0  0  0  0  0  0  0
   12.9650  -20.2020  -11.9330 C   0  0  2  0  0  0  0  0  0  0  0  0
   17.2740  -22.9380   -9.6750 C   0  0  1  0  0  0  0  0  0  0  0  0
    9.3530  -20.0350  -10.5790 H   0  0  0  0  0  0  0  0  0  0  0  0
   10.8610  -21.3700  -10.2270 H   0  0  0  0  0  0  0  0  0  0  0  0
    8.2730  -13.9170  -13.8590 H   0  0  0  0  0  0  0  0  0  0  0  0
    8.2210  -12.7280  -12.5650 H   0  0  0  0  0  0  0  0  0  0  0  0
   15.6350  -21.1220  -14.9010 H   0  0  0  0  0  0  0  0  0  0  0  0
   16.0530  -22.8490  -14.7980 H   0  0  0  0  0  0  0  0  0  0  0  0
   16.9620  -21.6550  -13.8410 H   0  0  0  0  0  0  0  0  0  0  0  0
   10.3680  -14.5590   -8.9940 H   0  0  0  0  0  0  0  0  0  0  0  0
    9.8720  -18.4170  -14.2930 H   0  0  0  0  0  0  0  0  0  0  0  0
   15.2350  -21.3850  -10.6270 H   0  0  0  0  0  0  0  0  0  0  0  0
   16.5990  -21.0390  -11.6950 H   0  0  0  0  0  0  0  0  0  0  0  0
   14.7480  -19.7160  -13.0250 H   0  0  0  0  0  0  0  0  0  0  0  0
   13.4860  -20.4500  -14.0000 H   0  0  0  0  0  0  0  0  0  0  0  0
   15.7680  -23.8570  -10.8850 H   0  0  0  0  0  0  0  0  0  0  0  0
   17.2230  -23.3990  -11.7630 H   0  0  0  0  0  0  0  0  0  0  0  0
   11.0130  -18.8510  -10.5850 H   0  0  0  0  0  0  0  0  0  0  0  0
   10.2450  -20.2410  -13.1610 H   0  0  0  0  0  0  0  0  0  0  0  0
   11.8600  -21.8970  -12.7210 H   0  0  0  0  0  0  0  0  0  0  0  0
   13.4640  -20.2730  -10.9660 H   0  0  0  0  0  0  0  0  0  0  0  0
   16.6680  -22.5390   -9.0160 H   0  0  0  0  0  0  0  0  0  0  0  0
   19.5373  -23.9660   -9.0078 H   0  0  0  0  0  0  0  0  0  0  0  0
   18.9273  -22.0502   -8.9025 H   0  0  0  0  0  0  0  0  0  0  0  0
   19.0980  -22.5163  -10.4583 H   0  0  0  0  0  0  0  0  0  0  0  0
  1 13  1  0  0  0  0
  1 16  1  0  0  0  0
  1 17  1  0  0  0  0
  2 19  1  0  0  0  0
  3 19  2  0  0  0  0
  4 24  1  0  0  0  0
  4 28  1  0  0  0  0
  5 25  1  0  0  0  0
  5 29  1  0  0  0  0
  6 23  1  0  0  0  0
  6 26  1  0  0  0  0
  7 27  1  0  0  0  0
  8 20  1  0  0  0  0
  8 30  1  0  0  0  0
  8 31  1  0  0  0  0
  9 14  1  0  0  0  0
  9 20  2  0  0  0  0
 10 14  2  0  0  0  0
 10 21  1  0  0  0  0
 11 15  2  0  0  0  0
 11 22  1  0  0  0  0
 12 15  1  0  0  0  0
 12 21  1  0  0  0  0
 12 23  1  0  0  0  0
 13 32  1  0  0  0  0
 13 33  1  0  0  0  0
 13 34  1  0  0  0  0
 14 35  1  0  0  0  0
 15 36  1  0  0  0  0
 16 18  1  0  0  0  0
 16 37  1  0  0  0  0
 16 38  1  0  0  0  0
 17 26  1  0  0  0  0
 17 39  1  0  0  0  0
 17 40  1  0  0  0  0
 18 27  1  0  0  0  0
 18 41  1  0  0  0  0
 18 42  1  0  0  0  0
 19 27  1  0  0  0  0
 20 22  1  0  0  0  0
 21 22  2  0  0  0  0
 23 24  1  0  0  0  0
 23 43  1  0  0  0  0
 24 25  1  0  0  0  0
 24 44  1  0  0  0  0
 25 26  1  0  0  0  0
 25 45  1  0  0  0  0
 26 46  1  0  0  0  0
 27 47  1  0  0  0  0
  2 48  1  0  0  0  0
  7 49  1  0  0  0  0
  7 50  1  0  0  0  0
M  CHG  1   1   1
M  END
> <pdb_id>
5L6E

> <uniprot_id>
Q86U44

> <usmiles>
[S+](C[C@H]1O[C@@H](N2c3ncnc(N)c3N=C2)[C@H](O)[C@@H]1O)(CC[C@H](N)C(=O)O)C

$$$$
SAM_A_701
          07212404143D 1   1.00000     0.00000     0
            
 50 52  0  0  0  0            999 V2000
   20.4567  -40.4342   -6.4533 S   0  3  0  0  0  0  0  0  0  0  0  0
   25.5685  -39.3166   -6.4746 O   0  0  0  0  0  0  0  0  0  0  0  0
   24.7195  -38.5758   -8.4277 O   0  0  0  0  0  0  0  0  0  0  0  0
   17.4550  -39.5510   -1.7670 O   0  0  0  0  0  0  0  0  0  0  0  0
   20.0287  -39.4229   -2.7161 O   0  0  0  0  0  0  0  0  0  0  0  0
   17.9987  -37.8747   -4.8197 O   0  0  0  0  0  0  0  0  0  0  0  0
   11.7447  -35.4713   -3.9320 N   0  0  0  0  0  0  0  0  0  0  0  0
   23.2179  -36.7945   -7.1553 N   0  0  0  0  0  0  0  0  0  0  0  0
   13.4818  -34.4278   -2.6990 N   0  0  0  0  0  0  0  0  0  0  0  0
   15.6824  -35.3596   -2.5311 N   0  0  0  0  0  0  0  0  0  0  0  0
   13.8587  -37.6251   -4.4950 N   0  0  0  0  0  0  0  0  0  0  0  0
   15.9472  -37.5383   -3.7247 N   0  0  0  0  0  0  0  0  0  0  0  0
   20.0202  -41.5975   -7.5618 C   0  0  0  0  0  0  0  0  0  0  0  0
   21.7561  -39.5459   -7.0376 C   0  0  0  0  0  0  0  0  0  0  0  0
   19.1159  -39.4728   -6.2179 C   0  0  0  0  0  0  0  0  0  0  0  0
   14.7735  -34.4008   -2.2665 C   0  0  0  0  0  0  0  0  0  0  0  0
   15.0662  -38.2422   -4.4503 C   0  0  0  0  0  0  0  0  0  0  0  0
   22.5687  -38.8879   -5.9085 C   0  0  0  0  0  0  0  0  0  0  0  0
   24.7452  -38.6557   -7.1575 C   0  0  0  0  0  0  0  0  0  0  0  0
   17.3669  -37.9357   -3.5303 C   0  0  1  0  0  0  0  0  0  0  0  0
   17.5882  -39.3801   -3.1650 C   0  0  1  0  0  0  0  0  0  0  0  0
   18.9949  -39.6856   -3.6828 C   0  0  1  0  0  0  0  0  0  0  0  0
   13.0209  -35.4315   -3.4696 C   0  0  0  0  0  0  0  0  0  0  0  0
   19.1399  -38.7426   -4.8695 C   0  0  2  0  0  0  0  0  0  0  0  0
   23.6912  -37.9258   -6.3650 C   0  0  1  0  0  0  0  0  0  0  0  0
   15.3372  -36.4268   -3.2929 C   0  0  0  0  0  0  0  0  0  0  0  0
   13.9547  -36.5039   -3.7900 C   0  0  0  0  0  0  0  0  0  0  0  0
   25.5051  -39.3156   -5.4766 H   0  0  0  0  0  0  0  0  0  0  0  0
   17.6033  -40.5118   -1.5330 H   0  0  0  0  0  0  0  0  0  0  0  0
   20.9199  -39.6415   -3.1134 H   0  0  0  0  0  0  0  0  0  0  0  0
   11.4429  -36.2356   -4.5019 H   0  0  0  0  0  0  0  0  0  0  0  0
   11.1066  -34.7363   -3.7026 H   0  0  0  0  0  0  0  0  0  0  0  0
   23.9946  -36.2198   -7.4130 H   0  0  0  0  0  0  0  0  0  0  0  0
   22.7639  -37.1309   -7.9803 H   0  0  0  0  0  0  0  0  0  0  0  0
   19.2463  -42.1222   -7.2071 H   0  0  0  0  0  0  0  0  0  0  0  0
   19.7590  -41.1578   -8.4211 H   0  0  0  0  0  0  0  0  0  0  0  0
   20.7932  -42.2112   -7.7228 H   0  0  0  0  0  0  0  0  0  0  0  0
   21.4096  -38.8299   -7.6437 H   0  0  0  0  0  0  0  0  0  0  0  0
   22.3574  -40.1566   -7.5528 H   0  0  0  0  0  0  0  0  0  0  0  0
   18.2990  -40.0484   -6.2554 H   0  0  0  0  0  0  0  0  0  0  0  0
   19.0779  -38.7921   -6.9496 H   0  0  0  0  0  0  0  0  0  0  0  0
   15.0660  -33.6183   -1.7168 H   0  0  0  0  0  0  0  0  0  0  0  0
   15.2727  -39.1107   -4.9008 H   0  0  0  0  0  0  0  0  0  0  0  0
   22.9891  -39.6162   -5.3674 H   0  0  0  0  0  0  0  0  0  0  0  0
   21.9343  -38.3700   -5.3345 H   0  0  0  0  0  0  0  0  0  0  0  0
   17.8225  -37.3283   -2.8796 H   0  0  0  0  0  0  0  0  0  0  0  0
   16.9215  -39.9544   -3.6402 H   0  0  0  0  0  0  0  0  0  0  0  0
   19.0477  -40.6353   -3.9914 H   0  0  0  0  0  0  0  0  0  0  0  0
   19.9811  -38.2088   -4.7831 H   0  0  0  0  0  0  0  0  0  0  0  0
   24.1290  -37.5597   -5.5439 H   0  0  0  0  0  0  0  0  0  0  0  0
  1 13  1  0  0  0  0
  1 14  1  0  0  0  0
  1 15  1  0  0  0  0
  2 19  1  0  0  0  0
  3 19  2  0  0  0  0
  4 21  1  0  0  0  0
  5 22  1  0  0  0  0
  6 20  1  0  0  0  0
  6 24  1  0  0  0  0
  7 23  1  0  0  0  0
  8 25  1  0  0  0  0
  9 16  1  0  0  0  0
  9 23  2  0  0  0  0
 10 16  2  0  0  0  0
 10 26  1  0  0  0  0
 11 17  2  0  0  0  0
 11 27  1  0  0  0  0
 12 17  1  0  0  0  0
 12 20  1  0  0  0  0
 12 26  1  0  0  0  0
 14 18  1  0  0  0  0
 15 24  1  0  0  0  0
 18 25  1  0  0  0  0
 19 25  1  0  0  0  0
 20 21  1  0  0  0  0
 21 22  1  0  0  0  0
 22 24  1  0  0  0  0
 23 27  1  0  0  0  0
 26 27  2  0  0  0  0
  2 28  1  0  0  0  0
  4 29  1  0  0  0  0
  5 30  1  0  0  0  0
  7 31  1  0  0  0  0
  7 32  1  0  0  0  0
  8 33  1  0  0  0  0
  8 34  1  0  0  0  0
 13 35  1  0  0  0  0
 13 36  1  0  0  0  0
 13 37  1  0  0  0  0
 14 38  1  0  0  0  0
 14 39  1  0  0  0  0
 15 40  1  0  0  0  0
 15 41  1  0  0  0  0
 16 42  1  0  0  0  0
 17 43  1  0  0  0  0
 18 44  1  0  0  0  0
 18 45  1  0  0  0  0
 20 46  1  0  0  0  0
 21 47  1  0  0  0  0
 22 48  1  0  0  0  0
 24 49  1  0  0  0  0
 25 50  1  0  0  0  0
M  CHG  1   1   1
M  END
> <pdb_id>
5EML

> <uniprot_id>
O14744

> <usmiles>
[S+](C[C@H]1O[C@@H](N2c3ncnc(N)c3N=C2)[C@H](O)[C@@H]1O)(CC[C@H](N)C(=O)O)C

$$$$
SAM_B_220
          07202403573D 1   1.00000     0.00000     0
            
 50 52  0  0  0  0            999 V2000
   65.1350    0.5970   16.4330 S   0  3  0  0  0  0  0  0  0  0  0  0
   61.8090    4.3660   18.0900 O   0  0  0  0  0  0  0  0  0  0  0  0
   63.1150    3.2940   19.3770 O   0  0  0  0  0  0  0  0  0  0  0  0
   64.5850   -5.2570   16.0570 O   0  0  0  0  0  0  0  0  0  0  0  0
   64.2170   -3.0960   17.5780 O   0  0  0  0  0  0  0  0  0  0  0  0
   63.2570   -2.3500   14.5070 O   0  0  0  0  0  0  0  0  0  0  0  0
   62.1560   -6.7530    9.5820 N   0  0  0  0  0  0  0  0  0  0  0  0
   60.5640    2.1710   17.0670 N   0  0  0  0  0  0  0  0  0  0  0  0
   60.5850   -6.6080   11.3320 N   0  0  0  0  0  0  0  0  0  0  0  0
   61.1090   -5.3900   13.3120 N   0  0  0  0  0  0  0  0  0  0  0  0
   63.9600   -5.0880   11.2950 N   0  0  0  0  0  0  0  0  0  0  0  0
   63.3650   -4.3780   13.3050 N   0  0  0  0  0  0  0  0  0  0  0  0
   66.1840    1.6850   15.4560 C   0  0  0  0  0  0  0  0  0  0  0  0
   63.6480    1.6330   16.5640 C   0  0  0  0  0  0  0  0  0  0  0  0
   64.6570   -0.5300   15.1060 C   0  0  0  0  0  0  0  0  0  0  0  0
   60.2280   -6.1540   12.5870 C   0  0  0  0  0  0  0  0  0  0  0  0
   64.3760   -4.3780   12.3740 C   0  0  0  0  0  0  0  0  0  0  0  0
   62.6910    1.0350   17.5710 C   0  0  0  0  0  0  0  0  0  0  0  0
   62.2160    3.2920   18.5300 C   0  0  0  0  0  0  0  0  0  0  0  0
   63.3520   -3.7450   14.6300 C   0  0  1  0  0  0  0  0  0  0  0  0
   64.6390   -4.0140   15.3870 C   0  0  1  0  0  0  0  0  0  0  0  0
   64.7440   -2.8040   16.2970 C   0  0  1  0  0  0  0  0  0  0  0  0
   61.8220   -6.3090   10.7990 C   0  0  0  0  0  0  0  0  0  0  0  0
   63.8820   -1.7420   15.6170 C   0  0  2  0  0  0  0  0  0  0  0  0
   61.6070    1.9770   18.0620 C   0  0  1  0  0  0  0  0  0  0  0  0
   62.3240   -5.0920   12.7960 C   0  0  0  0  0  0  0  0  0  0  0  0
   62.7070   -5.5430   11.5400 C   0  0  0  0  0  0  0  0  0  0  0  0
   61.0817    4.3819   17.4039 H   0  0  0  0  0  0  0  0  0  0  0  0
   65.4435   -5.4093   16.5467 H   0  0  0  0  0  0  0  0  0  0  0  0
   64.2948   -2.2883   18.1625 H   0  0  0  0  0  0  0  0  0  0  0  0
   63.0534   -6.5343    9.1989 H   0  0  0  0  0  0  0  0  0  0  0  0
   61.5082   -7.3036    9.0554 H   0  0  0  0  0  0  0  0  0  0  0  0
   59.8713    2.7957   17.4276 H   0  0  0  0  0  0  0  0  0  0  0  0
   60.9635    2.5597   16.2367 H   0  0  0  0  0  0  0  0  0  0  0  0
   67.0658    1.2417   15.2951 H   0  0  0  0  0  0  0  0  0  0  0  0
   65.7419    1.8756   14.5795 H   0  0  0  0  0  0  0  0  0  0  0  0
   66.3272    2.5423   15.9505 H   0  0  0  0  0  0  0  0  0  0  0  0
   63.2003    1.6848   15.6713 H   0  0  0  0  0  0  0  0  0  0  0  0
   63.9091    2.5519   16.8598 H   0  0  0  0  0  0  0  0  0  0  0  0
   65.4841   -0.8501   14.6439 H   0  0  0  0  0  0  0  0  0  0  0  0
   64.0826   -0.0334   14.4552 H   0  0  0  0  0  0  0  0  0  0  0  0
   59.3310   -6.3810   12.9662 H   0  0  0  0  0  0  0  0  0  0  0  0
   65.2652   -3.9316   12.4745 H   0  0  0  0  0  0  0  0  0  0  0  0
   63.2221    0.7333   18.3628 H   0  0  0  0  0  0  0  0  0  0  0  0
   62.2474    0.2455   17.1468 H   0  0  0  0  0  0  0  0  0  0  0  0
   62.5750   -4.0884   15.1576 H   0  0  0  0  0  0  0  0  0  0  0  0
   65.4069   -4.0152   14.7464 H   0  0  0  0  0  0  0  0  0  0  0  0
   65.6929   -2.4965   16.3674 H   0  0  0  0  0  0  0  0  0  0  0  0
   63.1793   -1.4331   16.2580 H   0  0  0  0  0  0  0  0  0  0  0  0
   61.1805    1.5482   18.8584 H   0  0  0  0  0  0  0  0  0  0  0  0
  1 13  1  0  0  0  0
  1 14  1  0  0  0  0
  1 15  1  0  0  0  0
  2 19  1  0  0  0  0
  3 19  2  0  0  0  0
  4 21  1  0  0  0  0
  5 22  1  0  0  0  0
  6 20  1  0  0  0  0
  6 24  1  0  0  0  0
  7 23  1  0  0  0  0
  8 25  1  0  0  0  0
  9 16  1  0  0  0  0
  9 23  2  0  0  0  0
 10 16  2  0  0  0  0
 10 26  1  0  0  0  0
 11 17  2  0  0  0  0
 11 27  1  0  0  0  0
 12 17  1  0  0  0  0
 12 20  1  0  0  0  0
 12 26  1  0  0  0  0
 14 18  1  0  0  0  0
 15 24  1  0  0  0  0
 18 25  1  0  0  0  0
 19 25  1  0  0  0  0
 20 21  1  0  0  0  0
 21 22  1  0  0  0  0
 22 24  1  0  0  0  0
 23 27  1  0  0  0  0
 26 27  2  0  0  0  0
  2 28  1  0  0  0  0
  4 29  1  0  0  0  0
  5 30  1  0  0  0  0
  7 31  1  0  0  0  0
  7 32  1  0  0  0  0
  8 33  1  0  0  0  0
  8 34  1  0  0  0  0
 13 35  1  0  0  0  0
 13 36  1  0  0  0  0
 13 37  1  0  0  0  0
 14 38  1  0  0  0  0
 14 39  1  0  0  0  0
 15 40  1  0  0  0  0
 15 41  1  0  0  0  0
 16 42  1  0  0  0  0
 17 43  1  0  0  0  0
 18 44  1  0  0  0  0
 18 45  1  0  0  0  0
 20 46  1  0  0  0  0
 21 47  1  0  0  0  0
 22 48  1  0  0  0  0
 24 49  1  0  0  0  0
 25 50  1  0  0  0  0
M  CHG  1   1   1
M  END
> <pdb_id>
3MTE

> <uniprot_id>
A8C927

> <usmiles>
[S+](C[C@H]1O[C@@H](N2c3ncnc(N)c3N=C2)[C@H](O)[C@@H]1O)(CC[C@H](N)C(=O)O)C

$$$$
SAM_B_301
          07202402503D 1   1.00000     0.00000     0
            
 48 50  0  0  0  0            999 V2000
   -4.0250   16.7610  -38.0020 S   0  3  0  0  0  0  0  0  0  0  0  0
   -6.4240   12.7230  -40.2990 O   0  0  0  0  0  0  0  0  0  0  0  0
   -7.4850   13.0460  -38.5220 O   0  0  0  0  0  0  0  0  0  0  0  0
   -3.9090   22.1840  -39.8640 O   0  0  0  0  0  0  0  0  0  0  0  0
   -4.9380   19.8320  -40.5330 O   0  0  0  0  0  0  0  0  0  0  0  0
   -5.6710   20.4470  -37.3950 O   0  0  0  0  0  0  0  0  0  0  0  0
   -7.2250   25.4120  -34.0070 N   0  0  0  0  0  0  0  0  0  0  0  0
   -8.5870   15.0580  -39.0880 N   0  0  0  0  0  0  0  0  0  0  0  0
   -8.5120   24.8820  -35.8960 N   0  0  0  0  0  0  0  0  0  0  0  0
   -7.6540   23.4180  -37.4870 N   0  0  0  0  0  0  0  0  0  0  0  0
   -5.1180   23.6040  -35.0700 N   0  0  0  0  0  0  0  0  0  0  0  0
   -5.4700   22.5560  -36.9930 N   0  0  0  0  0  0  0  0  0  0  0  0
   -3.5160   15.8480  -36.5700 C   0  0  0  0  0  0  0  0  0  0  0  0
   -5.3370   16.2650  -39.1530 C   0  0  0  0  0  0  0  0  0  0  0  0
   -4.7290   18.2570  -37.2450 C   0  0  0  0  0  0  0  0  0  0  0  0
   -8.6830   24.2340  -37.1010 C   0  0  0  0  0  0  0  0  0  0  0  0
   -4.5900   22.7280  -35.9220 C   0  0  0  0  0  0  0  0  0  0  0  0
   -6.2460   15.3090  -38.6690 C   0  0  0  0  0  0  0  0  0  0  0  0
   -7.0920   13.4280  -39.5830 C   0  0  0  0  0  0  0  0  0  0  0  0
   -5.3660   21.6230  -38.1270 C   0  0  1  0  0  0  0  0  0  0  0  0
   -4.0250   21.2470  -38.8280 C   0  0  1  0  0  0  0  0  0  0  0  0
   -4.2970   19.7950  -39.2590 C   0  0  1  0  0  0  0  0  0  0  0  0
   -7.3700   24.7620  -35.1440 C   0  0  0  0  0  0  0  0  0  0  0  0
   -5.2660   19.2780  -38.2190 C   0  0  2  0  0  0  0  0  0  0  0  0
   -7.2730   14.8750  -39.7090 C   0  0  1  0  0  0  0  0  0  0  0  0
   -6.5320   23.3350  -36.7940 C   0  0  0  0  0  0  0  0  0  0  0  0
   -6.3450   23.9570  -35.6010 C   0  0  0  0  0  0  0  0  0  0  0  0
   -6.1067   13.0658  -41.1832 H   0  0  0  0  0  0  0  0  0  0  0  0
   -3.0651   22.0151  -40.3733 H   0  0  0  0  0  0  0  0  0  0  0  0
   -5.1271   18.8987  -40.8383 H   0  0  0  0  0  0  0  0  0  0  0  0
   -6.3839   25.3091  -33.4760 H   0  0  0  0  0  0  0  0  0  0  0  0
   -7.9560   26.0082  -33.6752 H   0  0  0  0  0  0  0  0  0  0  0  0
   -9.3012   14.7859  -39.7328 H   0  0  0  0  0  0  0  0  0  0  0  0
   -8.6482   14.4934  -38.2649 H   0  0  0  0  0  0  0  0  0  0  0  0
   -2.7763   16.3375  -36.1082 H   0  0  0  0  0  0  0  0  0  0  0  0
   -4.2906   15.7484  -35.9455 H   0  0  0  0  0  0  0  0  0  0  0  0
   -3.1939   14.9432  -36.8486 H   0  0  0  0  0  0  0  0  0  0  0  0
   -5.4087   16.6479  -40.0740 H   0  0  0  0  0  0  0  0  0  0  0  0
   -4.0131   18.6948  -36.7011 H   0  0  0  0  0  0  0  0  0  0  0  0
   -5.4788   17.9769  -36.6455 H   0  0  0  0  0  0  0  0  0  0  0  0
   -9.5057   24.3525  -37.6570 H   0  0  0  0  0  0  0  0  0  0  0  0
   -3.7084   22.2687  -35.8132 H   0  0  0  0  0  0  0  0  0  0  0  0
   -6.2218   14.9494  -37.7362 H   0  0  0  0  0  0  0  0  0  0  0  0
   -6.0772   21.8109  -38.8044 H   0  0  0  0  0  0  0  0  0  0  0  0
   -3.2526   21.3028  -38.1953 H   0  0  0  0  0  0  0  0  0  0  0  0
   -3.4569   19.2531  -39.2834 H   0  0  0  0  0  0  0  0  0  0  0  0
   -6.0719   18.9034  -38.6775 H   0  0  0  0  0  0  0  0  0  0  0  0
   -7.1609   15.2562  -40.6267 H   0  0  0  0  0  0  0  0  0  0  0  0
  1 13  1  0  0  0  0
  1 14  1  0  0  0  0
  1 15  1  0  0  0  0
  2 19  1  0  0  0  0
  3 19  2  0  0  0  0
  4 21  1  0  0  0  0
  5 22  1  0  0  0  0
  6 20  1  0  0  0  0
  6 24  1  0  0  0  0
  7 23  1  0  0  0  0
  8 25  1  0  0  0  0
  9 16  1  0  0  0  0
  9 23  2  0  0  0  0
 10 16  2  0  0  0  0
 10 26  1  0  0  0  0
 11 17  2  0  0  0  0
 11 27  1  0  0  0  0
 12 17  1  0  0  0  0
 12 20  1  0  0  0  0
 12 26  1  0  0  0  0
 14 18  2  0  0  0  0
 15 24  1  0  0  0  0
 18 25  1  0  0  0  0
 19 25  1  0  0  0  0
 20 21  1  0  0  0  0
 21 22  1  0  0  0  0
 22 24  1  0  0  0  0
 23 27  1  0  0  0  0
 26 27  2  0  0  0  0
  2 28  1  0  0  0  0
  4 29  1  0  0  0  0
  5 30  1  0  0  0  0
  7 31  1  0  0  0  0
  7 32  1  0  0  0  0
  8 33  1  0  0  0  0
  8 34  1  0  0  0  0
 13 35  1  0  0  0  0
 13 36  1  0  0  0  0
 13 37  1  0  0  0  0
 14 38  1  0  0  0  0
 15 39  1  0  0  0  0
 15 40  1  0  0  0  0
 16 41  1  0  0  0  0
 17 42  1  0  0  0  0
 18 43  1  0  0  0  0
 20 44  1  0  0  0  0
 21 45  1  0  0  0  0
 22 46  1  0  0  0  0
 24 47  1  0  0  0  0
 25 48  1  0  0  0  0
M  CHG  1   1   1
M  END
> <pdb_id>
1NV8

> <uniprot_id>
Q9WYV8

> <usmiles>
[S+](/C=C/[C@H](N)C(=O)O)(C[C@H]1O[C@@H](N2c3ncnc(N)c3N=C2)[C@H](O)[C@@H]1O)C

$$$$
SAM_B_302
          07202402503D 1   1.00000     0.00000     0
            
 50 52  0  0  0  0            999 V2000
   -4.2061   16.8565  -38.1444 S   0  3  0  0  0  0  0  0  0  0  0  0
   -8.0224   12.8397  -38.6920 O   0  0  0  0  0  0  0  0  0  0  0  0
   -6.3315   12.3893  -40.1058 O   0  0  0  0  0  0  0  0  0  0  0  0
   -4.0775   22.3762  -39.9146 O   0  0  0  0  0  0  0  0  0  0  0  0
   -4.5768   19.6639  -40.3619 O   0  0  0  0  0  0  0  0  0  0  0  0
   -5.6792   20.4210  -37.3440 O   0  0  0  0  0  0  0  0  0  0  0  0
   -6.9818   25.7530  -33.8650 N   0  0  0  0  0  0  0  0  0  0  0  0
   -8.1503   15.3761  -39.2759 N   0  0  0  0  0  0  0  0  0  0  0  0
   -8.3991   25.0685  -35.6089 N   0  0  0  0  0  0  0  0  0  0  0  0
   -7.7353   23.4242  -37.2668 N   0  0  0  0  0  0  0  0  0  0  0  0
   -4.8892   23.7755  -35.0778 N   0  0  0  0  0  0  0  0  0  0  0  0
   -5.4676   22.5864  -36.8814 N   0  0  0  0  0  0  0  0  0  0  0  0
   -3.6519   15.6980  -36.8765 C   0  0  0  0  0  0  0  0  0  0  0  0
   -5.7709   16.2175  -38.7385 C   0  0  0  0  0  0  0  0  0  0  0  0
   -4.7318   18.2637  -37.2702 C   0  0  0  0  0  0  0  0  0  0  0  0
   -8.5983   24.2997  -36.7045 C   0  0  0  0  0  0  0  0  0  0  0  0
   -4.5093   22.8740  -35.9466 C   0  0  0  0  0  0  0  0  0  0  0  0
   -5.7254   15.0393  -39.5899 C   0  0  0  0  0  0  0  0  0  0  0  0
   -7.1835   13.1560  -39.5408 C   0  0  0  0  0  0  0  0  0  0  0  0
   -5.4743   21.6460  -37.9649 C   0  0  1  0  0  0  0  0  0  0  0  0
   -4.1997   21.4960  -38.8150 C   0  0  1  0  0  0  0  0  0  0  0  0
   -4.1296   19.9823  -39.0080 C   0  0  1  0  0  0  0  0  0  0  0  0
   -7.1839   24.9868  -34.9650 C   0  0  0  0  0  0  0  0  0  0  0  0
   -5.2390   19.3685  -38.1785 C   0  0  2  0  0  0  0  0  0  0  0  0
   -7.1079   14.5787  -39.9745 C   0  0  1  0  0  0  0  0  0  0  0  0
   -6.5430   23.3723  -36.5964 C   0  0  0  0  0  0  0  0  0  0  0  0
   -6.1892   24.0934  -35.4784 C   0  0  0  0  0  0  0  0  0  0  0  0
   -8.6410   13.5310  -38.3186 H   0  0  0  0  0  0  0  0  0  0  0  0
   -3.2191   22.1935  -40.3941 H   0  0  0  0  0  0  0  0  0  0  0  0
   -4.5361   18.6747  -40.5025 H   0  0  0  0  0  0  0  0  0  0  0  0
   -6.1081   25.7114  -33.3802 H   0  0  0  0  0  0  0  0  0  0  0  0
   -7.7064   26.3598  -33.5383 H   0  0  0  0  0  0  0  0  0  0  0  0
   -9.0562   15.0514  -39.5477 H   0  0  0  0  0  0  0  0  0  0  0  0
   -8.0420   15.2729  -38.2872 H   0  0  0  0  0  0  0  0  0  0  0  0
   -2.7756   16.0048  -36.5049 H   0  0  0  0  0  0  0  0  0  0  0  0
   -4.3297   15.6580  -36.1424 H   0  0  0  0  0  0  0  0  0  0  0  0
   -3.5432   14.7894  -37.2798 H   0  0  0  0  0  0  0  0  0  0  0  0
   -6.2165   16.9470  -39.2574 H   0  0  0  0  0  0  0  0  0  0  0  0
   -6.3264   15.9900  -37.9388 H   0  0  0  0  0  0  0  0  0  0  0  0
   -3.9610   18.6158  -36.7393 H   0  0  0  0  0  0  0  0  0  0  0  0
   -5.4695   17.9968  -36.6500 H   0  0  0  0  0  0  0  0  0  0  0  0
   -9.4886   24.3898  -37.1507 H   0  0  0  0  0  0  0  0  0  0  0  0
   -3.6092   22.4386  -35.9296 H   0  0  0  0  0  0  0  0  0  0  0  0
   -5.2626   14.3015  -39.0984 H   0  0  0  0  0  0  0  0  0  0  0  0
   -5.2137   15.2587  -40.4205 H   0  0  0  0  0  0  0  0  0  0  0  0
   -6.2488   21.8431  -38.5661 H   0  0  0  0  0  0  0  0  0  0  0  0
   -3.4416   21.7236  -38.2039 H   0  0  0  0  0  0  0  0  0  0  0  0
   -3.2288   19.6034  -38.7957 H   0  0  0  0  0  0  0  0  0  0  0  0
   -5.9817   19.0396  -38.7617 H   0  0  0  0  0  0  0  0  0  0  0  0
   -7.2300   14.6442  -40.9649 H   0  0  0  0  0  0  0  0  0  0  0  0
  1 13  1  0  0  0  0
  1 14  1  0  0  0  0
  1 15  1  0  0  0  0
  2 19  1  0  0  0  0
  3 19  2  0  0  0  0
  4 21  1  0  0  0  0
  5 22  1  0  0  0  0
  6 20  1  0  0  0  0
  6 24  1  0  0  0  0
  7 23  1  0  0  0  0
  8 25  1  0  0  0  0
  9 16  1  0  0  0  0
  9 23  2  0  0  0  0
 10 16  2  0  0  0  0
 10 26  1  0  0  0  0
 11 17  2  0  0  0  0
 11 27  1  0  0  0  0
 12 17  1  0  0  0  0
 12 20  1  0  0  0  0
 12 26  1  0  0  0  0
 14 18  1  0  0  0  0
 15 24  1  0  0  0  0
 18 25  1  0  0  0  0
 19 25  1  0  0  0  0
 20 21  1  0  0  0  0
 21 22  1  0  0  0  0
 22 24  1  0  0  0  0
 23 27  1  0  0  0  0
 26 27  2  0  0  0  0
  2 28  1  0  0  0  0
  4 29  1  0  0  0  0
  5 30  1  0  0  0  0
  7 31  1  0  0  0  0
  7 32  1  0  0  0  0
  8 33  1  0  0  0  0
  8 34  1  0  0  0  0
 13 35  1  0  0  0  0
 13 36  1  0  0  0  0
 13 37  1  0  0  0  0
 14 38  1  0  0  0  0
 14 39  1  0  0  0  0
 15 40  1  0  0  0  0
 15 41  1  0  0  0  0
 16 42  1  0  0  0  0
 17 43  1  0  0  0  0
 18 44  1  0  0  0  0
 18 45  1  0  0  0  0
 20 46  1  0  0  0  0
 21 47  1  0  0  0  0
 22 48  1  0  0  0  0
 24 49  1  0  0  0  0
 25 50  1  0  0  0  0
M  CHG  1   1   1
M  END
> <pdb_id>
1SG9

> <uniprot_id>
Q9WYV8

> <usmiles>
[S+](C[C@H]1O[C@@H](N2c3ncnc(N)c3N=C2)[C@H](O)[C@@H]1O)(CC[C@H](N)C(=O)O)C

$$$$
SAM_C_7105
          07202414183D 1   1.00000     0.00000     0
            
 50 52  0  0  0  0            999 V2000
   79.4640  -17.7940  -20.2580 S   0  3  0  0  0  0  0  0  0  0  0  0
   77.1870  -20.0880  -14.6740 O   0  0  0  0  0  0  0  0  0  0  0  0
   76.0450  -19.7570  -16.5500 O   0  0  0  0  0  0  0  0  0  0  0  0
   80.7830  -12.1150  -20.5310 O   0  0  0  0  0  0  0  0  0  0  0  0
   79.3480  -14.0930  -19.4690 O   0  0  0  0  0  0  0  0  0  0  0  0
   82.5580  -15.1290  -19.9430 O   0  0  0  0  0  0  0  0  0  0  0  0
   87.6420  -10.6580  -20.7840 N   0  0  0  0  0  0  0  0  0  0  0  0
   79.4980  -19.3680  -15.8370 N   0  0  0  0  0  0  0  0  0  0  0  0
   86.4770  -10.6290  -18.7950 N   0  0  0  0  0  0  0  0  0  0  0  0
   84.4280  -11.8480  -18.4240 N   0  0  0  0  0  0  0  0  0  0  0  0
   85.4280  -12.5850  -21.7720 N   0  0  0  0  0  0  0  0  0  0  0  0
   83.7490  -13.1360  -20.3860 N   0  0  0  0  0  0  0  0  0  0  0  0
   79.7730  -19.4370  -20.8840 C   0  0  0  0  0  0  0  0  0  0  0  0
   79.4870  -18.0570  -18.4660 C   0  0  0  0  0  0  0  0  0  0  0  0
   81.0870  -16.9950  -20.4500 C   0  0  0  0  0  0  0  0  0  0  0  0
   85.4270  -11.0430  -18.0740 C   0  0  0  0  0  0  0  0  0  0  0  0
   84.3130  -13.2620  -21.6310 C   0  0  0  0  0  0  0  0  0  0  0  0
   78.2720  -18.8190  -17.9210 C   0  0  0  0  0  0  0  0  0  0  0  0
   77.0570  -19.6350  -15.8360 C   0  0  0  0  0  0  0  0  0  0  0  0
   82.4920  -13.7230  -19.9200 C   0  0  1  0  0  0  0  0  0  0  0  0
   81.2900  -13.4040  -20.8010 C   0  0  1  0  0  0  0  0  0  0  0  0
   80.3120  -14.5280  -20.4200 C   0  0  1  0  0  0  0  0  0  0  0  0
   86.6050  -11.0800  -20.0660 C   0  0  0  0  0  0  0  0  0  0  0  0
   81.2020  -15.6190  -19.8090 C   0  0  2  0  0  0  0  0  0  0  0  0
   78.2330  -18.8140  -16.3860 C   0  0  1  0  0  0  0  0  0  0  0  0
   84.5760  -12.2840  -19.6870 C   0  0  0  0  0  0  0  0  0  0  0  0
   85.6070  -11.9530  -20.5500 C   0  0  0  0  0  0  0  0  0  0  0  0
   78.0397  -19.9413  -14.1726 H   0  0  0  0  0  0  0  0  0  0  0  0
   79.9973  -11.9351  -21.1228 H   0  0  0  0  0  0  0  0  0  0  0  0
   78.7328  -14.8498  -19.2479 H   0  0  0  0  0  0  0  0  0  0  0  0
   87.7608  -10.9750  -21.7249 H   0  0  0  0  0  0  0  0  0  0  0  0
   88.3029  -10.0237  -20.3829 H   0  0  0  0  0  0  0  0  0  0  0  0
   79.4598  -19.3592  -14.8378 H   0  0  0  0  0  0  0  0  0  0  0  0
   79.6173  -20.3076  -16.1577 H   0  0  0  0  0  0  0  0  0  0  0  0
   79.7832  -19.4163  -21.8837 H   0  0  0  0  0  0  0  0  0  0  0  0
   80.6576  -19.7607  -20.5482 H   0  0  0  0  0  0  0  0  0  0  0  0
   79.0513  -20.0543  -20.5707 H   0  0  0  0  0  0  0  0  0  0  0  0
   79.5215  -17.1630  -18.0192 H   0  0  0  0  0  0  0  0  0  0  0  0
   80.3103  -18.5763  -18.2367 H   0  0  0  0  0  0  0  0  0  0  0  0
   81.2725  -16.8989  -21.4279 H   0  0  0  0  0  0  0  0  0  0  0  0
   81.7769  -17.5892  -20.0366 H   0  0  0  0  0  0  0  0  0  0  0  0
   85.3887  -10.6966  -17.1367 H   0  0  0  0  0  0  0  0  0  0  0  0
   83.9126  -13.8165  -22.3605 H   0  0  0  0  0  0  0  0  0  0  0  0
   78.3147  -19.7658  -18.2400 H   0  0  0  0  0  0  0  0  0  0  0  0
   77.4386  -18.3880  -18.2668 H   0  0  0  0  0  0  0  0  0  0  0  0
   82.3090  -13.4154  -18.9862 H   0  0  0  0  0  0  0  0  0  0  0  0
   81.5413  -13.4794  -21.7660 H   0  0  0  0  0  0  0  0  0  0  0  0
   79.8543  -14.8766  -21.2379 H   0  0  0  0  0  0  0  0  0  0  0  0
   80.9860  -15.7003  -18.8360 H   0  0  0  0  0  0  0  0  0  0  0  0
   78.1363  -17.8693  -16.0727 H   0  0  0  0  0  0  0  0  0  0  0  0
  1 13  1  0  0  0  0
  1 14  1  0  0  0  0
  1 15  1  0  0  0  0
  2 19  1  0  0  0  0
  3 19  2  0  0  0  0
  4 21  1  0  0  0  0
  5 22  1  0  0  0  0
  6 20  1  0  0  0  0
  6 24  1  0  0  0  0
  7 23  1  0  0  0  0
  8 25  1  0  0  0  0
  9 16  1  0  0  0  0
  9 23  2  0  0  0  0
 10 16  2  0  0  0  0
 10 26  1  0  0  0  0
 11 17  2  0  0  0  0
 11 27  1  0  0  0  0
 12 17  1  0  0  0  0
 12 20  1  0  0  0  0
 12 26  1  0  0  0  0
 14 18  1  0  0  0  0
 15 24  1  0  0  0  0
 18 25  1  0  0  0  0
 19 25  1  0  0  0  0
 20 21  1  0  0  0  0
 21 22  1  0  0  0  0
 22 24  1  0  0  0  0
 23 27  1  0  0  0  0
 26 27  2  0  0  0  0
  2 28  1  0  0  0  0
  4 29  1  0  0  0  0
  5 30  1  0  0  0  0
  7 31  1  0  0  0  0
  7 32  1  0  0  0  0
  8 33  1  0  0  0  0
  8 34  1  0  0  0  0
 13 35  1  0  0  0  0
 13 36  1  0  0  0  0
 13 37  1  0  0  0  0
 14 38  1  0  0  0  0
 14 39  1  0  0  0  0
 15 40  1  0  0  0  0
 15 41  1  0  0  0  0
 16 42  1  0  0  0  0
 17 43  1  0  0  0  0
 18 44  1  0  0  0  0
 18 45  1  0  0  0  0
 20 46  1  0  0  0  0
 21 47  1  0  0  0  0
 22 48  1  0  0  0  0
 24 49  1  0  0  0  0
 25 50  1  0  0  0  0
M  CHG  1   1   1
M  END
> <pdb_id>
6W75

> <uniprot_id>
P0DTD1

> <usmiles>
[S+](C[C@H]1O[C@@H](N2c3ncnc(N)c3N=C2)[C@H](O)[C@@H]1O)(CC[C@H](N)C(=O)O)C

$$$$
SAN_A_304
          07192416293D 1   1.00000     0.00000     0
            
 19 19  0  0  0  0            999 V2000
   -5.9368    0.9402   16.8592 S   0  0  0  0  0  0  0  0  0  0  0  0
   -5.4101    1.0360   18.1948 O   0  0  0  0  0  0  0  0  0  0  0  0
   -7.3630    0.9929   16.7206 O   0  0  0  0  0  0  0  0  0  0  0  0
   -5.3868   -0.3789   16.1481 N   0  0  0  0  0  0  0  0  0  0  0  0
   -3.9460    5.7186   13.9322 N   0  0  0  0  0  0  0  0  0  0  0  0
   -6.2273    3.3760   15.6260 C   0  0  0  0  0  0  0  0  0  0  0  0
   -3.9893    2.4649   15.6784 C   0  0  0  0  0  0  0  0  0  0  0  0
   -5.7600    4.4935   14.9546 C   0  0  0  0  0  0  0  0  0  0  0  0
   -3.5319    3.5904   15.0091 C   0  0  0  0  0  0  0  0  0  0  0  0
   -5.3399    2.3548   15.9773 C   0  0  0  0  0  0  0  0  0  0  0  0
   -4.4093    4.6169   14.6298 C   0  0  0  0  0  0  0  0  0  0  0  0
   -5.7577   -0.4372   15.2212 H   0  0  0  0  0  0  0  0  0  0  0  0
   -4.3884   -0.3433   16.1060 H   0  0  0  0  0  0  0  0  0  0  0  0
   -2.9750    5.7948   13.7056 H   0  0  0  0  0  0  0  0  0  0  0  0
   -4.5822    6.4386   13.6548 H   0  0  0  0  0  0  0  0  0  0  0  0
   -7.1968    3.2999   15.8588 H   0  0  0  0  0  0  0  0  0  0  0  0
   -3.3525    1.7406   15.9427 H   0  0  0  0  0  0  0  0  0  0  0  0
   -6.3981    5.2201   14.6999 H   0  0  0  0  0  0  0  0  0  0  0  0
   -2.5589    3.6715   14.7930 H   0  0  0  0  0  0  0  0  0  0  0  0
  1  2  2  0  0  0  0
  1  3  2  0  0  0  0
  1  4  1  0  0  0  0
  1 10  1  0  0  0  0
  5 11  1  0  0  0  0
  6  8  1  0  0  0  0
  6 10  2  0  0  0  0
  7  9  2  0  0  0  0
  7 10  1  0  0  0  0
  8 11  2  0  0  0  0
  9 11  1  0  0  0  0
  4 12  1  0  0  0  0
  4 13  1  0  0  0  0
  5 14  1  0  0  0  0
  5 15  1  0  0  0  0
  6 16  1  0  0  0  0
  7 17  1  0  0  0  0
  8 18  1  0  0  0  0
  9 19  1  0  0  0  0
M  END
> <pdb_id>
6RL9

> <uniprot_id>
P00918

> <usmiles>
S(=O)(=O)(N)c1ccc(N)cc1

$$$$
SC1_A_601
          07192419173D 1   1.00000     0.00000     0
            
 41 41  0  0  0  0            999 V2000
   53.7310    7.9660   27.8310 P   0  0  0  0  0  0  0  0  0  0  0  0
   60.5300    9.3660   27.2920 P   0  0  0  0  0  0  0  0  0  0  0  0
   52.7100    8.9450   27.2190 O   0  0  0  0  0  0  0  0  0  0  0  0
   53.3550    7.4670   29.2770 O   0  0  0  0  0  0  0  0  0  0  0  0
   54.2470    6.9310   26.8210 O   0  0  0  0  0  0  0  0  0  0  0  0
   61.8580    8.6100   27.0230 O   0  0  0  0  0  0  0  0  0  0  0  0
   60.7630   10.8400   27.0870 O   0  0  0  0  0  0  0  0  0  0  0  0
   59.4030    8.7680   26.3880 O   0  0  0  0  0  0  0  0  0  0  0  0
   55.2130   13.4830   26.3050 O   0  0  0  0  0  0  0  0  0  0  0  0
   56.8630   14.3300   27.3980 O   0  0  0  0  0  0  0  0  0  0  0  0
   61.7740   10.3270   30.3930 O   0  0  0  0  0  0  0  0  0  0  0  0
   61.7160    8.0690   30.4590 O   0  0  0  0  0  0  0  0  0  0  0  0
   56.7200    8.7810   30.5050 O   0  0  0  0  0  0  0  0  0  0  0  0
   55.1400    8.8710   28.0560 O   0  0  0  0  0  0  0  0  0  0  0  0
   59.1440   10.1660   29.4990 O   0  0  0  0  0  0  0  0  0  0  0  0
   59.5270    7.5800   29.0190 C   0  0  0  0  0  0  0  0  0  0  0  0
   55.1440   11.3880   28.2520 C   0  0  0  0  0  0  0  0  0  0  0  0
   57.6980   11.7780   28.3270 C   0  0  0  0  0  0  0  0  0  0  0  0
   56.1070   13.4350   27.1360 C   0  0  0  0  0  0  0  0  0  0  0  0
   61.3260    9.1880   30.0280 C   0  0  0  0  0  0  0  0  0  0  0  0
   56.7150   10.0620   29.8670 C   0  0  2  0  0  0  0  0  0  0  0  0
   55.3160   10.1140   29.0520 C   0  0  2  0  0  0  0  0  0  0  0  0
   57.8740   10.2840   28.8460 C   0  0  2  0  0  0  0  0  0  0  0  0
   56.2860   12.1770   27.9070 C   0  0  0  0  0  0  0  0  0  0  0  0
   60.0980    9.0840   29.1230 C   0  0  1  0  0  0  0  0  0  0  0  0
   53.0144    9.2165   26.3060 H   0  0  0  0  0  0  0  0  0  0  0  0
   54.0599    6.8389   29.6066 H   0  0  0  0  0  0  0  0  0  0  0  0
   61.7160    7.6291   27.1560 H   0  0  0  0  0  0  0  0  0  0  0  0
   59.9132   11.3387   27.2577 H   0  0  0  0  0  0  0  0  0  0  0  0
   54.6289   12.6858   26.1524 H   0  0  0  0  0  0  0  0  0  0  0  0
   61.3998   11.1633   29.9922 H   0  0  0  0  0  0  0  0  0  0  0  0
   57.5626    8.6749   31.0330 H   0  0  0  0  0  0  0  0  0  0  0  0
   59.2451    7.2670   29.9260 H   0  0  0  0  0  0  0  0  0  0  0  0
   58.7406    7.5640   28.4015 H   0  0  0  0  0  0  0  0  0  0  0  0
   60.2411    6.9761   28.6650 H   0  0  0  0  0  0  0  0  0  0  0  0
   54.2311   11.6780   27.9646 H   0  0  0  0  0  0  0  0  0  0  0  0
   58.2986   11.9004   27.5368 H   0  0  0  0  0  0  0  0  0  0  0  0
   57.9842   12.3931   29.0617 H   0  0  0  0  0  0  0  0  0  0  0  0
   56.7306   10.7842   30.5585 H   0  0  0  0  0  0  0  0  0  0  0  0
   54.5738   10.0737   29.7210 H   0  0  0  0  0  0  0  0  0  0  0  0
   57.8053    9.6361   28.0874 H   0  0  0  0  0  0  0  0  0  0  0  0
  1  3  1  0  0  0  0
  1  4  1  0  0  0  0
  1  5  2  0  0  0  0
  1 14  1  0  0  0  0
  2  6  1  0  0  0  0
  2  7  1  0  0  0  0
  2  8  2  0  0  0  0
  2 25  1  0  0  0  0
  9 19  1  0  0  0  0
 10 19  2  0  0  0  0
 11 20  1  0  0  0  0
 12 20  2  0  0  0  0
 13 21  1  0  0  0  0
 14 22  1  0  0  0  0
 15 23  1  0  0  0  0
 15 25  1  0  0  0  0
 16 25  1  0  0  0  0
 17 22  1  0  0  0  0
 17 24  2  0  0  0  0
 18 23  1  0  0  0  0
 18 24  1  0  0  0  0
 19 24  1  0  0  0  0
 20 25  1  0  0  0  0
 21 22  1  0  0  0  0
 21 23  1  0  0  0  0
  3 26  1  0  0  0  0
  4 27  1  0  0  0  0
  6 28  1  0  0  0  0
  7 29  1  0  0  0  0
  9 30  1  0  0  0  0
 11 31  1  0  0  0  0
 13 32  1  0  0  0  0
 16 33  1  0  0  0  0
 16 34  1  0  0  0  0
 16 35  1  0  0  0  0
 17 36  1  0  0  0  0
 18 37  1  0  0  0  0
 18 38  1  0  0  0  0
 21 39  1  0  0  0  0
 22 40  1  0  0  0  0
 23 41  1  0  0  0  0
M  END
> <pdb_id>
1X8R

> <uniprot_id>
P0A6D3

> <usmiles>
P(=O)(O[C@@H]1C=C(C(=O)O)C[C@@H](O[C@@](P(=O)(O)O)(C(=O)O)C)[C@@H]1O)(O)O

$$$$
SCF_A_501
          07192421083D 1   1.00000     0.00000     0
            
 38 41  0  0  0  0            999 V2000
   -0.4659   27.6086   11.7626 F   0  0  0  0  0  0  0  0  0  0  0  0
    1.4521   30.4182    6.7843 N   0  0  0  0  0  0  0  0  0  0  0  0
    4.9698   24.1484    4.6587 N   0  0  0  0  0  0  0  0  0  0  0  0
    3.1454   28.2457    6.8512 N   0  0  0  0  0  0  0  0  0  0  0  0
   -0.4544   28.3477    8.9481 N   0  0  0  0  0  0  0  0  0  0  0  0
    1.1730   29.2709    7.4350 N   0  0  0  0  0  0  0  0  0  0  0  0
    0.4507   31.2625    7.1103 C   0  0  0  0  0  0  0  0  0  0  0  0
    4.6462   23.9505    5.9572 C   0  0  0  0  0  0  0  0  0  0  0  0
    5.0797   25.4274    4.2325 C   0  0  0  0  0  0  0  0  0  0  0  0
    4.2688   27.4536    7.3048 C   0  0  0  0  0  0  0  0  0  0  0  0
   -1.0046   23.9673   11.3744 C   0  0  0  0  0  0  0  0  0  0  0  0
   -0.6279   23.7483   10.0522 C   0  0  0  0  0  0  0  0  0  0  0  0
   -0.4980   30.6486    7.9712 C   0  0  0  0  0  0  0  0  0  0  0  0
    4.3939   25.0091    6.8605 C   0  0  0  0  0  0  0  0  0  0  0  0
    4.8301   26.5363    5.0598 C   0  0  0  0  0  0  0  0  0  0  0  0
   -0.9283   25.2405   11.9400 C   0  0  0  0  0  0  0  0  0  0  0  0
   -0.1908   24.8315    9.2802 C   0  0  0  0  0  0  0  0  0  0  0  0
    1.5389   27.1352    8.2801 C   0  0  0  0  0  0  0  0  0  0  0  0
    1.9691   28.1826    7.5118 C   0  0  0  0  0  0  0  0  0  0  0  0
    0.0082   29.3671    8.2075 C   0  0  0  0  0  0  0  0  0  0  0  0
   -0.5154   26.3510   11.1576 C   0  0  0  0  0  0  0  0  0  0  0  0
    0.3007   27.2601    8.9644 C   0  0  0  0  0  0  0  0  0  0  0  0
    4.5187   26.3149    6.3952 C   0  0  0  0  0  0  0  0  0  0  0  0
   -0.1325   26.1403    9.8063 C   0  0  0  0  0  0  0  0  0  0  0  0
    3.2399   28.8378    6.0509 H   0  0  0  0  0  0  0  0  0  0  0  0
    0.3846   32.2059    6.7852 H   0  0  0  0  0  0  0  0  0  0  0  0
    4.5824   23.0112    6.2943 H   0  0  0  0  0  0  0  0  0  0  0  0
    5.3513   25.5919    3.2842 H   0  0  0  0  0  0  0  0  0  0  0  0
    4.0728   27.1032    8.2207 H   0  0  0  0  0  0  0  0  0  0  0  0
    5.0843   28.0315    7.3365 H   0  0  0  0  0  0  0  0  0  0  0  0
   -1.3343   23.2014   11.9265 H   0  0  0  0  0  0  0  0  0  0  0  0
   -0.6689   22.8297    9.6590 H   0  0  0  0  0  0  0  0  0  0  0  0
   -1.3427   31.0460    8.3297 H   0  0  0  0  0  0  0  0  0  0  0  0
    4.1329   24.8244    7.8080 H   0  0  0  0  0  0  0  0  0  0  0  0
    4.8758   27.4659    4.6941 H   0  0  0  0  0  0  0  0  0  0  0  0
   -1.1661   25.3716   12.9024 H   0  0  0  0  0  0  0  0  0  0  0  0
    0.0869   24.6742    8.3325 H   0  0  0  0  0  0  0  0  0  0  0  0
    2.0842   26.3005    8.3580 H   0  0  0  0  0  0  0  0  0  0  0  0
  1 21  1  0  0  0  0
  2  6  1  0  0  0  0
  2  7  2  0  0  0  0
  3  8  2  0  0  0  0
  3  9  1  0  0  0  0
  4 10  1  0  0  0  0
  4 19  1  0  0  0  0
  5 20  1  0  0  0  0
  5 22  2  0  0  0  0
  6 19  1  0  0  0  0
  6 20  1  0  0  0  0
  7 13  1  0  0  0  0
  8 14  1  0  0  0  0
  9 15  2  0  0  0  0
 10 23  1  0  0  0  0
 11 12  2  0  0  0  0
 11 16  1  0  0  0  0
 12 17  1  0  0  0  0
 13 20  2  0  0  0  0
 14 23  2  0  0  0  0
 15 23  1  0  0  0  0
 16 21  2  0  0  0  0
 17 24  2  0  0  0  0
 18 19  2  0  0  0  0
 18 22  1  0  0  0  0
 21 24  1  0  0  0  0
 22 24  1  0  0  0  0
  4 25  1  0  0  0  0
  7 26  1  0  0  0  0
  8 27  1  0  0  0  0
  9 28  1  0  0  0  0
 10 29  1  0  0  0  0
 10 30  1  0  0  0  0
 11 31  1  0  0  0  0
 12 32  1  0  0  0  0
 13 33  1  0  0  0  0
 14 34  1  0  0  0  0
 15 35  1  0  0  0  0
 16 36  1  0  0  0  0
 17 37  1  0  0  0  0
 18 38  1  0  0  0  0
M  END
> <pdb_id>
2R3I

> <uniprot_id>
P24941

> <usmiles>
Fc1c(cccc1)C2=NC=3N(N=CC3)C(NCc4ccncc4)=C2

$$$$
SCJ_A_501
          07192421083D 1   1.00000     0.00000     0
            
 38 41  0  0  0  0            999 V2000
   -1.9164   31.2447    8.4156 Br  0  0  0  0  0  0  0  0  0  0  0  0
    1.6558   30.3600    6.7604 N   0  0  0  0  0  0  0  0  0  0  0  0
    4.7343   23.7897    5.5418 N   0  0  0  0  0  0  0  0  0  0  0  0
    3.3890   28.0698    6.9850 N   0  0  0  0  0  0  0  0  0  0  0  0
   -0.3121   28.3536    9.0003 N   0  0  0  0  0  0  0  0  0  0  0  0
    1.4086   29.2244    7.5167 N   0  0  0  0  0  0  0  0  0  0  0  0
    4.9569   24.2308    4.2995 C   0  0  0  0  0  0  0  0  0  0  0  0
    0.6125   31.1526    6.9752 C   0  0  0  0  0  0  0  0  0  0  0  0
    4.5739   24.7156    6.4954 C   0  0  0  0  0  0  0  0  0  0  0  0
    4.4287   27.1019    7.3865 C   0  0  0  0  0  0  0  0  0  0  0  0
    5.0401   25.5803    3.9680 C   0  0  0  0  0  0  0  0  0  0  0  0
   -1.1311   24.2259   11.7732 C   0  0  0  0  0  0  0  0  0  0  0  0
   -1.2336   25.5697   12.1138 C   0  0  0  0  0  0  0  0  0  0  0  0
   -0.5119   23.8632   10.5723 C   0  0  0  0  0  0  0  0  0  0  0  0
    4.8555   26.5278    4.9703 C   0  0  0  0  0  0  0  0  0  0  0  0
   -0.7248   26.5559   11.2510 C   0  0  0  0  0  0  0  0  0  0  0  0
   -0.0182   24.8475    9.7109 C   0  0  0  0  0  0  0  0  0  0  0  0
    1.6621   27.1091    8.4862 C   0  0  0  0  0  0  0  0  0  0  0  0
    2.1898   28.1066    7.6693 C   0  0  0  0  0  0  0  0  0  0  0  0
   -0.3152   30.5346    7.8217 C   0  0  0  0  0  0  0  0  0  0  0  0
    0.2170   29.3170    8.1718 C   0  0  0  0  0  0  0  0  0  0  0  0
    0.4054   27.2591    9.1497 C   0  0  0  0  0  0  0  0  0  0  0  0
    4.6191   26.1014    6.2738 C   0  0  0  0  0  0  0  0  0  0  0  0
   -0.1267   26.2122   10.0330 C   0  0  0  0  0  0  0  0  0  0  0  0
    3.5520   28.6952    6.2219 H   0  0  0  0  0  0  0  0  0  0  0  0
    5.0695   23.5559    3.5702 H   0  0  0  0  0  0  0  0  0  0  0  0
    0.5042   32.0670    6.5851 H   0  0  0  0  0  0  0  0  0  0  0  0
    4.4108   24.3985    7.4297 H   0  0  0  0  0  0  0  0  0  0  0  0
    4.1426   26.6279    8.2192 H   0  0  0  0  0  0  0  0  0  0  0  0
    5.2885   27.5836    7.5558 H   0  0  0  0  0  0  0  0  0  0  0  0
    5.2288   25.8633    3.0276 H   0  0  0  0  0  0  0  0  0  0  0  0
   -1.4976   23.5229   12.3827 H   0  0  0  0  0  0  0  0  0  0  0  0
   -1.6698   25.8352   12.9736 H   0  0  0  0  0  0  0  0  0  0  0  0
   -0.4222   22.8973   10.3294 H   0  0  0  0  0  0  0  0  0  0  0  0
    4.8924   27.5040    4.7564 H   0  0  0  0  0  0  0  0  0  0  0  0
   -0.7911   27.5191   11.5117 H   0  0  0  0  0  0  0  0  0  0  0  0
    0.4187   24.5771    8.8529 H   0  0  0  0  0  0  0  0  0  0  0  0
    2.1786   26.2621    8.6122 H   0  0  0  0  0  0  0  0  0  0  0  0
  1 20  1  0  0  0  0
  2  6  1  0  0  0  0
  2  8  2  0  0  0  0
  3  7  2  0  0  0  0
  3  9  1  0  0  0  0
  4 10  1  0  0  0  0
  4 19  1  0  0  0  0
  5 21  1  0  0  0  0
  5 22  2  0  0  0  0
  6 19  1  0  0  0  0
  6 21  1  0  0  0  0
  7 11  1  0  0  0  0
  8 20  1  0  0  0  0
  9 23  2  0  0  0  0
 10 23  1  0  0  0  0
 11 15  2  0  0  0  0
 12 13  2  0  0  0  0
 12 14  1  0  0  0  0
 13 16  1  0  0  0  0
 14 17  2  0  0  0  0
 15 23  1  0  0  0  0
 16 24  2  0  0  0  0
 17 24  1  0  0  0  0
 18 19  2  0  0  0  0
 18 22  1  0  0  0  0
 20 21  2  0  0  0  0
 22 24  1  0  0  0  0
  4 25  1  0  0  0  0
  7 26  1  0  0  0  0
  8 27  1  0  0  0  0
  9 28  1  0  0  0  0
 10 29  1  0  0  0  0
 10 30  1  0  0  0  0
 11 31  1  0  0  0  0
 12 32  1  0  0  0  0
 13 33  1  0  0  0  0
 14 34  1  0  0  0  0
 15 35  1  0  0  0  0
 16 36  1  0  0  0  0
 17 37  1  0  0  0  0
 18 38  1  0  0  0  0
M  END
> <pdb_id>
2R3J

> <uniprot_id>
P24941

> <usmiles>
BrC1=C2N=C(c3ccccc3)C=C(N2N=C1)NCc4cnccc4

$$$$
SCX_A_501
          07192421083D 1   1.00000     0.00000     0
            
 45 48  0  0  0  0            999 V2000
   -0.1648   27.7372   12.0332 F   0  0  0  0  0  0  0  0  0  0  0  0
   -0.3887   24.6491    8.4388 F   0  0  0  0  0  0  0  0  0  0  0  0
    4.8176   23.0238    4.4162 N   0  0  0  0  0  0  0  0  0  0  0  0
    1.4411   30.4111    6.9188 N   0  0  0  0  0  0  0  0  0  0  0  0
    4.6422   23.9233    6.5340 N   0  0  0  0  0  0  0  0  0  0  0  0
    4.8120   25.3206    4.6087 N   0  0  0  0  0  0  0  0  0  0  0  0
    3.2948   28.2499    7.3516 N   0  0  0  0  0  0  0  0  0  0  0  0
   -0.5634   28.3714    9.1042 N   0  0  0  0  0  0  0  0  0  0  0  0
    1.1696   29.2946    7.6845 N   0  0  0  0  0  0  0  0  0  0  0  0
   -3.1019   30.1589    7.9001 C   0  0  0  0  0  0  0  0  0  0  0  0
    0.3524   31.1716    7.0626 C   0  0  0  0  0  0  0  0  0  0  0  0
    4.5640   25.0280    7.2986 C   0  0  0  0  0  0  0  0  0  0  0  0
    4.7216   26.3880    5.4126 C   0  0  0  0  0  0  0  0  0  0  0  0
    4.4876   27.4935    7.6752 C   0  0  0  0  0  0  0  0  0  0  0  0
   -1.1180   24.2582   11.9731 C   0  0  0  0  0  0  0  0  0  0  0  0
   -1.9723   31.1061    8.2613 C   0  0  0  0  0  0  0  0  0  0  0  0
   -0.8513   25.5485   12.4360 C   0  0  0  0  0  0  0  0  0  0  0  0
   -0.9522   23.9685   10.6194 C   0  0  0  0  0  0  0  0  0  0  0  0
    1.5672   27.1863    8.6985 C   0  0  0  0  0  0  0  0  0  0  0  0
    4.7566   24.1204    5.2082 C   0  0  0  0  0  0  0  0  0  0  0  0
   -0.4058   26.5301   11.5455 C   0  0  0  0  0  0  0  0  0  0  0  0
   -0.5249   24.9731    9.7356 C   0  0  0  0  0  0  0  0  0  0  0  0
    2.0331   28.1962    7.9269 C   0  0  0  0  0  0  0  0  0  0  0  0
   -0.0848   29.3657    8.2798 C   0  0  0  0  0  0  0  0  0  0  0  0
    0.2076   27.3512    9.2934 C   0  0  0  0  0  0  0  0  0  0  0  0
    4.6144   26.3055    6.7965 C   0  0  0  0  0  0  0  0  0  0  0  0
   -0.6409   30.5676    7.8862 C   0  0  0  0  0  0  0  0  0  0  0  0
   -0.2469   26.2625   10.1888 C   0  0  0  0  0  0  0  0  0  0  0  0
    4.9028   23.1269    3.4252 H   0  0  0  0  0  0  0  0  0  0  0  0
    4.7775   22.1109    4.8223 H   0  0  0  0  0  0  0  0  0  0  0  0
    3.3955   28.9068    6.6044 H   0  0  0  0  0  0  0  0  0  0  0  0
   -3.9755   30.5632    8.1709 H   0  0  0  0  0  0  0  0  0  0  0  0
   -3.1002   29.9993    6.9129 H   0  0  0  0  0  0  0  0  0  0  0  0
   -2.9741   29.2900    8.3784 H   0  0  0  0  0  0  0  0  0  0  0  0
    0.2457   32.0702    6.6369 H   0  0  0  0  0  0  0  0  0  0  0  0
    4.4636   24.9125    8.2868 H   0  0  0  0  0  0  0  0  0  0  0  0
    4.7318   27.2960    4.9937 H   0  0  0  0  0  0  0  0  0  0  0  0
    4.4364   27.1925    8.6275 H   0  0  0  0  0  0  0  0  0  0  0  0
    5.2895   28.0783    7.5531 H   0  0  0  0  0  0  0  0  0  0  0  0
   -1.4252   23.5483   12.6069 H   0  0  0  0  0  0  0  0  0  0  0  0
   -1.9886   31.2635    9.2487 H   0  0  0  0  0  0  0  0  0  0  0  0
   -2.1146   31.9728    7.7832 H   0  0  0  0  0  0  0  0  0  0  0  0
   -0.9788   25.7700   13.4028 H   0  0  0  0  0  0  0  0  0  0  0  0
   -1.1372   23.0469   10.2782 H   0  0  0  0  0  0  0  0  0  0  0  0
    2.1111   26.3635    8.8633 H   0  0  0  0  0  0  0  0  0  0  0  0
  1 21  1  0  0  0  0
  2 22  1  0  0  0  0
  3 20  1  0  0  0  0
  4  9  1  0  0  0  0
  4 11  2  0  0  0  0
  5 12  1  0  0  0  0
  5 20  2  0  0  0  0
  6 13  2  0  0  0  0
  6 20  1  0  0  0  0
  7 14  1  0  0  0  0
  7 23  1  0  0  0  0
  8 24  1  0  0  0  0
  8 25  2  0  0  0  0
  9 23  1  0  0  0  0
  9 24  1  0  0  0  0
 10 16  1  0  0  0  0
 11 27  1  0  0  0  0
 12 26  2  0  0  0  0
 13 26  1  0  0  0  0
 14 26  1  0  0  0  0
 15 17  2  0  0  0  0
 15 18  1  0  0  0  0
 16 27  1  0  0  0  0
 17 21  1  0  0  0  0
 18 22  2  0  0  0  0
 19 23  2  0  0  0  0
 19 25  1  0  0  0  0
 21 28  2  0  0  0  0
 22 28  1  0  0  0  0
 24 27  2  0  0  0  0
 25 28  1  0  0  0  0
  3 29  1  0  0  0  0
  3 30  1  0  0  0  0
  7 31  1  0  0  0  0
 10 32  1  0  0  0  0
 10 33  1  0  0  0  0
 10 34  1  0  0  0  0
 11 35  1  0  0  0  0
 12 36  1  0  0  0  0
 13 37  1  0  0  0  0
 14 38  1  0  0  0  0
 14 39  1  0  0  0  0
 15 40  1  0  0  0  0
 16 41  1  0  0  0  0
 16 42  1  0  0  0  0
 17 43  1  0  0  0  0
 18 44  1  0  0  0  0
 19 45  1  0  0  0  0
M  END
> <pdb_id>
2R3M

> <uniprot_id>
P24941

> <usmiles>
Fc1c(c(F)ccc1)C2=NC=3N(N=CC3CC)C(NCc4cnc(nc4)N)=C2

$$$$
SCZ_A_501
          07192421083D 1   1.00000     0.00000     0
            
 45 49  0  0  0  0            999 V2000
    1.8569   30.0465    6.6422 N   0  0  0  0  0  0  0  0  0  0  0  0
    5.2087   25.3453    3.4537 N   0  0  0  0  0  0  0  0  0  0  0  0
    3.8295   28.0040    6.6688 N   0  0  0  0  0  0  0  0  0  0  0  0
    0.1916   27.6381    8.7186 N   0  0  0  0  0  0  0  0  0  0  0  0
    1.7359   28.8515    7.3306 N   0  0  0  0  0  0  0  0  0  0  0  0
    5.2251   24.0773    3.9125 C   0  0  0  0  0  0  0  0  0  0  0  0
    0.7354   30.7046    6.9356 C   0  0  0  0  0  0  0  0  0  0  0  0
    5.1400   26.3339    4.3903 C   0  0  0  0  0  0  0  0  0  0  0  0
    5.0736   27.2594    6.7167 C   0  0  0  0  0  0  0  0  0  0  0  0
    5.1626   23.7424    5.2553 C   0  0  0  0  0  0  0  0  0  0  0  0
    0.1396   23.0952   10.9271 C   0  0  0  0  0  0  0  0  0  0  0  0
   -0.8547   23.9955   10.5580 C   0  0  0  0  0  0  0  0  0  0  0  0
    1.4713   23.3397   10.5571 C   0  0  0  0  0  0  0  0  0  0  0  0
    5.0964   24.7740    6.1891 C   0  0  0  0  0  0  0  0  0  0  0  0
   -0.5191   25.1561    9.8549 C   0  0  0  0  0  0  0  0  0  0  0  0
    1.8006   24.4956    9.8297 C   0  0  0  0  0  0  0  0  0  0  0  0
   -2.5364   29.4768    8.6466 C   0  0  0  0  0  0  0  0  0  0  0  0
   -1.9010   30.4218    9.6452 C   0  0  0  0  0  0  0  0  0  0  0  0
    2.3819   26.6683    8.0338 C   0  0  0  0  0  0  0  0  0  0  0  0
    2.6796   27.7981    7.3564 C   0  0  0  0  0  0  0  0  0  0  0  0
    0.5171   28.7641    8.0141 C   0  0  0  0  0  0  0  0  0  0  0  0
    1.0961   26.6532    8.7312 C   0  0  0  0  0  0  0  0  0  0  0  0
    5.1015   26.1052    5.7522 C   0  0  0  0  0  0  0  0  0  0  0  0
    0.7949   25.4052    9.4793 C   0  0  0  0  0  0  0  0  0  0  0  0
   -1.4931   30.4519    8.1974 C   0  0  0  0  0  0  0  0  0  0  0  0
   -0.1324   29.9652    7.7586 C   0  0  0  0  0  0  0  0  0  0  0  0
    3.8188   28.7802    6.0385 H   0  0  0  0  0  0  0  0  0  0  0  0
    5.2860   23.3356    3.2445 H   0  0  0  0  0  0  0  0  0  0  0  0
    0.5327   31.6265    6.6054 H   0  0  0  0  0  0  0  0  0  0  0  0
    5.1159   27.2816    4.0722 H   0  0  0  0  0  0  0  0  0  0  0  0
    5.1976   26.9042    7.6432 H   0  0  0  0  0  0  0  0  0  0  0  0
    5.8257   27.8797    6.4940 H   0  0  0  0  0  0  0  0  0  0  0  0
    5.1650   22.7858    5.5465 H   0  0  0  0  0  0  0  0  0  0  0  0
   -0.0933   22.2776   11.4537 H   0  0  0  0  0  0  0  0  0  0  0  0
   -1.8087   23.8124   10.7955 H   0  0  0  0  0  0  0  0  0  0  0  0
    2.1873   22.6896   10.8117 H   0  0  0  0  0  0  0  0  0  0  0  0
    5.0456   24.5655    7.1658 H   0  0  0  0  0  0  0  0  0  0  0  0
   -1.2335   25.8150    9.6195 H   0  0  0  0  0  0  0  0  0  0  0  0
    2.7489   24.6682    9.5634 H   0  0  0  0  0  0  0  0  0  0  0  0
   -3.4902   29.6041    8.3745 H   0  0  0  0  0  0  0  0  0  0  0  0
   -2.3267   28.4996    8.6793 H   0  0  0  0  0  0  0  0  0  0  0  0
   -1.2699   30.0703   10.3367 H   0  0  0  0  0  0  0  0  0  0  0  0
   -2.4335   31.1748   10.0319 H   0  0  0  0  0  0  0  0  0  0  0  0
    3.0051   25.8866    8.0574 H   0  0  0  0  0  0  0  0  0  0  0  0
   -1.8449   31.2320    7.6801 H   0  0  0  0  0  0  0  0  0  0  0  0
  1  5  1  0  0  0  0
  1  7  2  0  0  0  0
  2  6  2  0  0  0  0
  2  8  1  0  0  0  0
  3  9  1  0  0  0  0
  3 20  1  0  0  0  0
  4 21  1  0  0  0  0
  4 22  2  0  0  0  0
  5 20  1  0  0  0  0
  5 21  1  0  0  0  0
  6 10  1  0  0  0  0
  7 26  1  0  0  0  0
  8 23  2  0  0  0  0
  9 23  1  0  0  0  0
 10 14  2  0  0  0  0
 11 12  2  0  0  0  0
 11 13  1  0  0  0  0
 12 15  1  0  0  0  0
 13 16  2  0  0  0  0
 14 23  1  0  0  0  0
 15 24  2  0  0  0  0
 16 24  1  0  0  0  0
 17 18  1  0  0  0  0
 17 25  1  0  0  0  0
 18 25  1  0  0  0  0
 19 20  2  0  0  0  0
 19 22  1  0  0  0  0
 21 26  2  0  0  0  0
 22 24  1  0  0  0  0
 25 26  1  0  0  0  0
  3 27  1  0  0  0  0
  6 28  1  0  0  0  0
  7 29  1  0  0  0  0
  8 30  1  0  0  0  0
  9 31  1  0  0  0  0
  9 32  1  0  0  0  0
 10 33  1  0  0  0  0
 11 34  1  0  0  0  0
 12 35  1  0  0  0  0
 13 36  1  0  0  0  0
 14 37  1  0  0  0  0
 15 38  1  0  0  0  0
 16 39  1  0  0  0  0
 17 40  1  0  0  0  0
 17 41  1  0  0  0  0
 18 42  1  0  0  0  0
 18 43  1  0  0  0  0
 19 44  1  0  0  0  0
 25 45  1  0  0  0  0
M  END
> <pdb_id>
2R3N

> <uniprot_id>
P24941

> <usmiles>
n1cc(ccc1)CNC=2N3N=CC(=C3N=C(c4ccccc4)C2)C5CC5

$$$$
SDA_A_300
          07192416293D 1   1.00000     0.00000     0
            
 19 19  0  0  0  0            999 V2000
   -1.5606    3.8716   14.3955 Cl  0  0  0  0  0  0  0  0  0  0  0  0
   -6.5121    5.6976   13.9103 Cl  0  0  0  0  0  0  0  0  0  0  0  0
   -5.8277    1.0289   16.6346 S   0  0  0  0  0  0  0  0  0  0  0  0
   -5.2282    1.1501   17.9631 O   0  0  0  0  0  0  0  0  0  0  0  0
   -7.2804    1.1372   16.5679 O   0  0  0  0  0  0  0  0  0  0  0  0
   -5.3474   -0.2037   15.9581 N   0  0  0  0  0  0  0  0  0  0  0  0
   -3.6118    5.6815   13.5556 N   0  0  0  0  0  0  0  0  0  0  0  0
   -3.7616    2.5242   15.4737 C   0  0  0  0  0  0  0  0  0  0  0  0
   -6.0010    3.3851   15.2387 C   0  0  0  0  0  0  0  0  0  0  0  0
   -3.2531    3.6033   14.7621 C   0  0  0  0  0  0  0  0  0  0  0  0
   -5.4776    4.4643   14.5262 C   0  0  0  0  0  0  0  0  0  0  0  0
   -5.1269    2.3880   15.7287 C   0  0  0  0  0  0  0  0  0  0  0  0
   -4.1252    4.5873   14.2840 C   0  0  0  0  0  0  0  0  0  0  0  0
   -5.7660   -0.2716   15.0525 H   0  0  0  0  0  0  0  0  0  0  0  0
   -4.3526   -0.1660   15.8635 H   0  0  0  0  0  0  0  0  0  0  0  0
   -4.2306    6.3877   13.2115 H   0  0  0  0  0  0  0  0  0  0  0  0
   -2.6291    5.7508   13.3835 H   0  0  0  0  0  0  0  0  0  0  0  0
   -3.1318    1.8254   15.8127 H   0  0  0  0  0  0  0  0  0  0  0  0
   -6.9854    3.3175   15.4013 H   0  0  0  0  0  0  0  0  0  0  0  0
  1 10  1  0  0  0  0
  2 11  1  0  0  0  0
  3  4  2  0  0  0  0
  3  5  2  0  0  0  0
  3  6  1  0  0  0  0
  3 12  1  0  0  0  0
  7 13  1  0  0  0  0
  8 10  1  0  0  0  0
  8 12  2  0  0  0  0
  9 11  2  0  0  0  0
  9 12  1  0  0  0  0
 10 13  2  0  0  0  0
 11 13  1  0  0  0  0
  6 14  1  0  0  0  0
  6 15  1  0  0  0  0
  7 16  1  0  0  0  0
  7 17  1  0  0  0  0
  8 18  1  0  0  0  0
  9 19  1  0  0  0  0
M  END
> <pdb_id>
1ZGE

> <uniprot_id>
P00918

> <usmiles>
Clc1c(N)c(Cl)cc(S(=O)(=O)N)c1

$$$$
SEP_B_252
          07202412473D 1   1.00000     0.00000     0
            
 19 18  0  0  0  0            999 V2000
   25.6556  -35.3875   65.5448 P   0  0  0  0  0  0  0  0  0  0  0  0
   27.0811  -35.3749   64.8610 O   0  0  0  0  0  0  0  0  0  0  0  0
   25.5126  -34.0748   66.4118 O   0  0  0  0  0  0  0  0  0  0  0  0
   25.2328  -36.6746   66.4301 O   0  0  0  0  0  0  0  0  0  0  0  0
   22.8580  -37.5405   61.9340 O   0  0  0  0  0  0  0  0  0  0  0  0
   24.5742  -37.0511   60.7739 O   0  0  0  0  0  0  0  0  0  0  0  0
   24.3657  -35.1894   64.5448 O   0  0  0  0  0  0  0  0  0  0  0  0
   22.4952  -34.8941   62.7458 N   0  0  0  0  0  0  0  0  0  0  0  0
   24.7882  -35.5987   63.2949 C   0  0  0  0  0  0  0  0  0  0  0  0
   23.7045  -36.7497   61.5440 C   0  0  0  0  0  0  0  0  0  0  0  0
   23.7992  -35.3798   62.1808 C   0  0  1  0  0  0  0  0  0  0  0  0
   27.1920  -36.1995   64.3062 H   0  0  0  0  0  0  0  0  0  0  0  0
   24.6157  -34.0633   66.8538 H   0  0  0  0  0  0  0  0  0  0  0  0
   22.1527  -37.2414   62.5767 H   0  0  0  0  0  0  0  0  0  0  0  0
   21.8426  -34.7505   62.0019 H   0  0  0  0  0  0  0  0  0  0  0  0
   22.1323  -35.5763   63.3806 H   0  0  0  0  0  0  0  0  0  0  0  0
   24.9903  -36.5770   63.3416 H   0  0  0  0  0  0  0  0  0  0  0  0
   25.6233  -35.0963   63.0706 H   0  0  0  0  0  0  0  0  0  0  0  0
   24.1595  -34.7174   61.5240 H   0  0  0  0  0  0  0  0  0  0  0  0
  1  2  1  0  0  0  0
  1  3  1  0  0  0  0
  1  4  2  0  0  0  0
  1  7  1  0  0  0  0
  5 10  1  0  0  0  0
  6 10  2  0  0  0  0
  7  9  1  0  0  0  0
  8 11  1  0  0  0  0
  9 11  1  0  0  0  0
 10 11  1  0  0  0  0
  2 12  1  0  0  0  0
  3 13  1  0  0  0  0
  5 14  1  0  0  0  0
  8 15  1  0  0  0  0
  8 16  1  0  0  0  0
  9 17  1  0  0  0  0
  9 18  1  0  0  0  0
 11 19  1  0  0  0  0
M  END
> <pdb_id>
3GP3

> <uniprot_id>
Q63XU7

> <usmiles>
P(=O)(OC[C@H](N)C(=O)O)(O)O

$$$$
SFY_B_806
          07202411093D 1   1.00000     0.00000     0
            
 28 29  0  0  0  0            999 V2000
  -23.6821  -10.8814   12.8263 S   0  0  0  0  0  0  0  0  0  0  0  0
  -24.1577   -9.8656   13.7937 O   0  0  0  0  0  0  0  0  0  0  0  0
  -22.3112  -11.3012   13.1924 O   0  0  0  0  0  0  0  0  0  0  0  0
  -27.1423  -15.6440   12.9481 N   0  0  0  0  0  0  0  0  0  0  0  0
  -23.6491  -10.2548   11.3462 N   0  0  0  0  0  0  0  0  0  0  0  0
  -24.4348   -8.8317    9.6716 N   0  0  0  0  0  0  0  0  0  0  0  0
  -25.4116   -8.1528    9.0456 C   0  0  0  0  0  0  0  0  0  0  0  0
  -26.7241   -8.2085    9.5138 C   0  0  0  0  0  0  0  0  0  0  0  0
  -27.0155   -8.9819   10.6334 C   0  0  0  0  0  0  0  0  0  0  0  0
  -24.7637  -12.9804   11.7211 C   0  0  0  0  0  0  0  0  0  0  0  0
  -25.3158  -12.5133   14.0257 C   0  0  0  0  0  0  0  0  0  0  0  0
  -25.9878   -9.6762   11.2675 C   0  0  0  0  0  0  0  0  0  0  0  0
  -25.5804  -14.1100   11.7438 C   0  0  0  0  0  0  0  0  0  0  0  0
  -26.1347  -13.6424   14.0559 C   0  0  0  0  0  0  0  0  0  0  0  0
  -24.6300  -12.1758   12.8600 C   0  0  0  0  0  0  0  0  0  0  0  0
  -24.6855   -9.5940   10.7696 C   0  0  0  0  0  0  0  0  0  0  0  0
  -26.2678  -14.4394   12.9152 C   0  0  0  0  0  0  0  0  0  0  0  0
  -27.6349  -15.8815   13.7852 H   0  0  0  0  0  0  0  0  0  0  0  0
  -27.2369  -16.2156   12.1330 H   0  0  0  0  0  0  0  0  0  0  0  0
  -22.8086  -10.3588   10.8145 H   0  0  0  0  0  0  0  0  0  0  0  0
  -25.1956   -7.6037    8.2382 H   0  0  0  0  0  0  0  0  0  0  0  0
  -27.4481   -7.6981    9.0498 H   0  0  0  0  0  0  0  0  0  0  0  0
  -27.9522   -9.0385   10.9789 H   0  0  0  0  0  0  0  0  0  0  0  0
  -24.2694  -12.7425   10.8850 H   0  0  0  0  0  0  0  0  0  0  0  0
  -25.2205  -11.9446   14.8427 H   0  0  0  0  0  0  0  0  0  0  0  0
  -26.1817  -10.2315   12.0762 H   0  0  0  0  0  0  0  0  0  0  0  0
  -25.6737  -14.6804   10.9277 H   0  0  0  0  0  0  0  0  0  0  0  0
  -26.6263  -13.8814   14.8933 H   0  0  0  0  0  0  0  0  0  0  0  0
  1  2  2  0  0  0  0
  1  3  2  0  0  0  0
  1  5  1  0  0  0  0
  1 15  1  0  0  0  0
  4 17  1  0  0  0  0
  5 16  1  0  0  0  0
  6  7  1  0  0  0  0
  6 16  2  0  0  0  0
  7  8  2  0  0  0  0
  8  9  1  0  0  0  0
  9 12  2  0  0  0  0
 10 13  1  0  0  0  0
 10 15  2  0  0  0  0
 11 14  2  0  0  0  0
 11 15  1  0  0  0  0
 12 16  1  0  0  0  0
 13 17  2  0  0  0  0
 14 17  1  0  0  0  0
  4 18  1  0  0  0  0
  4 19  1  0  0  0  0
  5 20  1  0  0  0  0
  7 21  1  0  0  0  0
  8 22  1  0  0  0  0
  9 23  1  0  0  0  0
 10 24  1  0  0  0  0
 11 25  1  0  0  0  0
 12 26  1  0  0  0  0
 13 27  1  0  0  0  0
 14 28  1  0  0  0  0
M  END
> <pdb_id>
4HWK

> <uniprot_id>
P35270

> <usmiles>
S(=O)(=O)(Nc1ncccc1)c2ccc(N)cc2

$$$$
SG4_A_300
          07192416293D 1   1.00000     0.00000     0
            
 39 39  0  0  0  0            999 V2000
   -5.8857    0.9621   16.8436 S   0  0  0  0  0  0  0  0  0  0  0  0
   -5.1942    1.4034   18.0488 O   0  0  0  0  0  0  0  0  0  0  0  0
   -7.3197    1.2844   16.9210 O   0  0  0  0  0  0  0  0  0  0  0  0
   -3.3697    4.4407    9.9617 O   0  0  0  0  0  0  0  0  0  0  0  0
   -5.7382    4.8136   13.8595 O   0  0  0  0  0  0  0  0  0  0  0  0
   -2.8976   -0.3615   11.4742 O   0  0  0  0  0  0  0  0  0  0  0  0
   -4.8943    1.0204    9.6100 O   0  0  0  0  0  0  0  0  0  0  0  0
   -5.3319    1.7334   15.6951 O   0  0  0  0  0  0  0  0  0  0  0  0
   -5.1736    3.6071   10.9125 O   0  0  0  0  0  0  0  0  0  0  0  0
   -3.7911    3.8207   13.5831 O   0  0  0  0  0  0  0  0  0  0  0  0
   -4.5332    0.1619   13.2073 O   0  0  0  0  0  0  0  0  0  0  0  0
   -5.5798   -0.5530   16.6277 N   0  0  0  0  0  0  0  0  0  0  0  0
   -5.4360    5.6485    9.6669 C   0  0  0  0  0  0  0  0  0  0  0  0
   -3.7598    6.0544   14.4000 C   0  0  0  0  0  0  0  0  0  0  0  0
   -4.0208    1.4817   15.2689 C   0  0  0  0  0  0  0  0  0  0  0  0
   -4.6047    4.5079   10.2018 C   0  0  0  0  0  0  0  0  0  0  0  0
   -4.4755    4.8364   13.9112 C   0  0  0  0  0  0  0  0  0  0  0  0
   -4.1815    0.0060   11.7921 C   0  0  1  0  0  0  0  0  0  0  0  0
   -4.7958    1.1680   10.9730 C   0  0  1  0  0  0  0  0  0  0  0  0
   -3.9258    1.3570   13.7707 C   0  0  2  0  0  0  0  0  0  0  0  0
   -4.4727    2.5565   11.5247 C   0  0  2  0  0  0  0  0  0  0  0  0
   -4.3277    2.6488   13.0429 C   0  0  2  0  0  0  0  0  0  0  0  0
   -2.8062   -0.4280   10.4806 H   0  0  0  0  0  0  0  0  0  0  0  0
   -5.3062    1.8414    9.2147 H   0  0  0  0  0  0  0  0  0  0  0  0
   -6.0471   -0.8733   15.8036 H   0  0  0  0  0  0  0  0  0  0  0  0
   -4.5937   -0.6824   16.5233 H   0  0  0  0  0  0  0  0  0  0  0  0
   -6.3859    5.5336    9.9575 H   0  0  0  0  0  0  0  0  0  0  0  0
   -5.0815    6.5140   10.0208 H   0  0  0  0  0  0  0  0  0  0  0  0
   -5.3914    5.6536    8.6679 H   0  0  0  0  0  0  0  0  0  0  0  0
   -2.7730    5.8947   14.3727 H   0  0  0  0  0  0  0  0  0  0  0  0
   -3.9878    6.8324   13.8145 H   0  0  0  0  0  0  0  0  0  0  0  0
   -4.0398    6.2510   15.3396 H   0  0  0  0  0  0  0  0  0  0  0  0
   -3.7050    0.6285   15.6841 H   0  0  0  0  0  0  0  0  0  0  0  0
   -3.4345    2.2347   15.5676 H   0  0  0  0  0  0  0  0  0  0  0  0
   -4.7229   -0.7853   11.5078 H   0  0  0  0  0  0  0  0  0  0  0  0
   -5.7575    1.0872   11.2349 H   0  0  0  0  0  0  0  0  0  0  0  0
   -2.9482    1.2556   13.5861 H   0  0  0  0  0  0  0  0  0  0  0  0
   -3.5363    2.7049   11.2068 H   0  0  0  0  0  0  0  0  0  0  0  0
   -5.2848    2.7329   13.3202 H   0  0  0  0  0  0  0  0  0  0  0  0
  1  2  2  0  0  0  0
  1  3  2  0  0  0  0
  1  8  1  0  0  0  0
  1 12  1  0  0  0  0
  4 16  2  0  0  0  0
  5 17  2  0  0  0  0
  6 18  1  0  0  0  0
  7 19  1  0  0  0  0
  8 15  1  0  0  0  0
  9 16  1  0  0  0  0
  9 21  1  0  0  0  0
 10 17  1  0  0  0  0
 10 22  1  0  0  0  0
 11 18  1  0  0  0  0
 11 20  1  0  0  0  0
 13 16  1  0  0  0  0
 14 17  1  0  0  0  0
 15 20  1  0  0  0  0
 18 19  1  0  0  0  0
 19 21  1  0  0  0  0
 20 22  1  0  0  0  0
 21 22  1  0  0  0  0
  6 23  1  0  0  0  0
  7 24  1  0  0  0  0
 12 25  1  0  0  0  0
 12 26  1  0  0  0  0
 13 27  1  0  0  0  0
 13 28  1  0  0  0  0
 13 29  1  0  0  0  0
 14 30  1  0  0  0  0
 14 31  1  0  0  0  0
 14 32  1  0  0  0  0
 15 33  1  0  0  0  0
 15 34  1  0  0  0  0
 18 35  1  0  0  0  0
 19 36  1  0  0  0  0
 20 37  1  0  0  0  0
 21 38  1  0  0  0  0
 22 39  1  0  0  0  0
M  END
> <pdb_id>
3T82

> <uniprot_id>
P00918

> <usmiles>
S(=O)(=O)(OC[C@H]1O[C@H](O)[C@H](O)[C@@H](OC(=O)C)[C@@H]1OC(=O)C)N

$$$$
SG6_A_300
          07192416293D 1   1.00000     0.00000     0
            
 34 34  0  0  0  0            999 V2000
   -5.8132    0.8907   16.6023 S   0  0  0  0  0  0  0  0  0  0  0  0
   -7.1793    1.2122   17.0328 O   0  0  0  0  0  0  0  0  0  0  0  0
   -5.2000    1.4725   17.7949 O   0  0  0  0  0  0  0  0  0  0  0  0
   -4.0439    4.6066   14.4599 O   0  0  0  0  0  0  0  0  0  0  0  0
   -3.1241   -0.4814   11.3643 O   0  0  0  0  0  0  0  0  0  0  0  0
   -5.0101    0.7431    9.7390 O   0  0  0  0  0  0  0  0  0  0  0  0
   -4.7062    3.3336   10.5623 O   0  0  0  0  0  0  0  0  0  0  0  0
   -5.0245    1.7717   15.7155 O   0  0  0  0  0  0  0  0  0  0  0  0
   -5.3389    3.2285   13.3134 O   0  0  0  0  0  0  0  0  0  0  0  0
   -4.4571    0.0578   13.2319 O   0  0  0  0  0  0  0  0  0  0  0  0
   -5.4362   -0.6342   16.5407 N   0  0  0  0  0  0  0  0  0  0  0  0
   -6.3941    4.8706   14.6868 C   0  0  0  0  0  0  0  0  0  0  0  0
   -3.8127    1.4070   15.1683 C   0  0  0  0  0  0  0  0  0  0  0  0
   -5.1899    4.2419   14.0657 C   0  0  0  0  0  0  0  0  0  0  0  0
   -4.4005   -0.1227   11.8332 C   0  0  1  0  0  0  0  0  0  0  0  0
   -4.9196    1.0277   11.1023 C   0  0  1  0  0  0  0  0  0  0  0  0
   -4.2555    2.2831   11.3749 C   0  0  2  0  0  0  0  0  0  0  0  0
   -3.8486    1.2973   13.6462 C   0  0  2  0  0  0  0  0  0  0  0  0
   -4.2054    2.5408   12.8300 C   0  0  2  0  0  0  0  0  0  0  0  0
   -3.1532   -0.5932   10.3710 H   0  0  0  0  0  0  0  0  0  0  0  0
   -5.3673    1.5418    9.2547 H   0  0  0  0  0  0  0  0  0  0  0  0
   -4.2127    4.1713   10.7962 H   0  0  0  0  0  0  0  0  0  0  0  0
   -4.4884   -0.7312   16.2370 H   0  0  0  0  0  0  0  0  0  0  0  0
   -5.5383   -1.0397   17.4490 H   0  0  0  0  0  0  0  0  0  0  0  0
   -7.2205    4.4847   14.2768 H   0  0  0  0  0  0  0  0  0  0  0  0
   -6.3945    4.6901   15.6704 H   0  0  0  0  0  0  0  0  0  0  0  0
   -6.3735    5.8578   14.5291 H   0  0  0  0  0  0  0  0  0  0  0  0
   -3.5484    0.5190   15.5448 H   0  0  0  0  0  0  0  0  0  0  0  0
   -3.1304    2.0928   15.4215 H   0  0  0  0  0  0  0  0  0  0  0  0
   -5.0061   -0.8899   11.6217 H   0  0  0  0  0  0  0  0  0  0  0  0
   -5.8614    1.1458   11.4172 H   0  0  0  0  0  0  0  0  0  0  0  0
   -3.3038    2.1367   11.1048 H   0  0  0  0  0  0  0  0  0  0  0  0
   -2.8860    1.1547   13.4157 H   0  0  0  0  0  0  0  0  0  0  0  0
   -3.4395    3.1705   12.9602 H   0  0  0  0  0  0  0  0  0  0  0  0
  1  2  2  0  0  0  0
  1  3  2  0  0  0  0
  1  8  1  0  0  0  0
  1 11  1  0  0  0  0
  4 14  2  0  0  0  0
  5 15  1  0  0  0  0
  6 16  1  0  0  0  0
  7 17  1  0  0  0  0
  8 13  1  0  0  0  0
  9 14  1  0  0  0  0
  9 19  1  0  0  0  0
 10 15  1  0  0  0  0
 10 18  1  0  0  0  0
 12 14  1  0  0  0  0
 13 18  1  0  0  0  0
 15 16  1  0  0  0  0
 16 17  1  0  0  0  0
 17 19  1  0  0  0  0
 18 19  1  0  0  0  0
  5 20  1  0  0  0  0
  6 21  1  0  0  0  0
  7 22  1  0  0  0  0
 11 23  1  0  0  0  0
 11 24  1  0  0  0  0
 12 25  1  0  0  0  0
 12 26  1  0  0  0  0
 12 27  1  0  0  0  0
 13 28  1  0  0  0  0
 13 29  1  0  0  0  0
 15 30  1  0  0  0  0
 16 31  1  0  0  0  0
 17 32  1  0  0  0  0
 18 33  1  0  0  0  0
 19 34  1  0  0  0  0
M  END
> <pdb_id>
3T84

> <uniprot_id>
P00918

> <usmiles>
S(=O)(=O)(OC[C@H]1O[C@H](O)[C@H](O)[C@@H](O)[C@H]1OC(=O)C)N

$$$$
SHX_A_401
          07202406453D 1   1.00000     0.00000     0
            
 44 46  0  0  0  0            999 V2000
   19.7080   -3.0930   16.8680 Cl  0  0  0  0  0  0  0  0  0  0  0  0
   22.7070   -7.9830   19.3270 O   0  0  0  0  0  0  0  0  0  0  0  0
   22.0780   -5.8660   19.6730 N   0  0  0  0  0  0  0  0  0  0  0  0
   22.4310   -6.0960   11.6640 N   0  0  0  0  0  0  0  0  0  0  0  0
   21.4180   -6.2440   15.1320 N   0  0  0  0  0  0  0  0  0  0  0  0
   20.9280   -4.6610   13.4430 N   0  0  0  0  0  0  0  0  0  0  0  0
   20.8490   -5.7630   17.3540 N   0  0  0  0  0  0  0  0  0  0  0  0
   19.8370   -2.4930   13.8860 C   0  0  0  0  0  0  0  0  0  0  0  0
   23.1000   -6.7610   10.7100 C   0  0  0  0  0  0  0  0  0  0  0  0
   23.4660   -8.0920   10.8900 C   0  0  0  0  0  0  0  0  0  0  0  0
   17.4760   -8.3240   14.5740 C   0  0  0  0  0  0  0  0  0  0  0  0
   23.1440   -8.7190   12.0940 C   0  0  0  0  0  0  0  0  0  0  0  0
   17.2220   -7.2630   15.4460 C   0  0  0  0  0  0  0  0  0  0  0  0
   18.4950   -9.2300   14.8530 C   0  0  0  0  0  0  0  0  0  0  0  0
   22.4580   -8.0180   13.0820 C   0  0  0  0  0  0  0  0  0  0  0  0
   17.9870   -7.1120   16.6020 C   0  0  0  0  0  0  0  0  0  0  0  0
   19.2660   -9.0780   16.0040 C   0  0  0  0  0  0  0  0  0  0  0  0
   19.8580   -7.8590   18.1320 C   0  0  0  0  0  0  0  0  0  0  0  0
   22.0380   -7.0150   19.0020 C   0  0  0  0  0  0  0  0  0  0  0  0
   20.3740   -4.2020   15.6480 C   0  0  0  0  0  0  0  0  0  0  0  0
   20.8940   -5.4140   16.0470 C   0  0  0  0  0  0  0  0  0  0  0  0
   21.4140   -5.8580   13.8310 C   0  0  0  0  0  0  0  0  0  0  0  0
   20.3920   -3.8150   14.3330 C   0  0  0  0  0  0  0  0  0  0  0  0
   22.0770   -6.7050   12.8270 C   0  0  0  0  0  0  0  0  0  0  0  0
   21.1480   -7.1040   17.7980 C   0  0  2  0  0  0  0  0  0  0  0  0
   19.0130   -8.0220   16.8840 C   0  0  0  0  0  0  0  0  0  0  0  0
   21.5154   -5.0942   19.3768 H   0  0  0  0  0  0  0  0  0  0  0  0
   22.6707   -5.7747   20.4732 H   0  0  0  0  0  0  0  0  0  0  0  0
   20.6013   -5.0714   18.0324 H   0  0  0  0  0  0  0  0  0  0  0  0
   19.4809   -1.9962   14.6775 H   0  0  0  0  0  0  0  0  0  0  0  0
   20.5617   -1.9562   13.4539 H   0  0  0  0  0  0  0  0  0  0  0  0
   19.0989   -2.6463   13.2290 H   0  0  0  0  0  0  0  0  0  0  0  0
   23.3389   -6.2944    9.8584 H   0  0  0  0  0  0  0  0  0  0  0  0
   23.9504   -8.5891   10.1701 H   0  0  0  0  0  0  0  0  0  0  0  0
   16.9243   -8.4330   13.7471 H   0  0  0  0  0  0  0  0  0  0  0  0
   23.4059   -9.6718   12.2473 H   0  0  0  0  0  0  0  0  0  0  0  0
   16.4914   -6.6116   15.2413 H   0  0  0  0  0  0  0  0  0  0  0  0
   18.6739   -9.9897   14.2278 H   0  0  0  0  0  0  0  0  0  0  0  0
   22.2434   -8.4501   13.9579 H   0  0  0  0  0  0  0  0  0  0  0  0
   17.8031   -6.3548   17.2288 H   0  0  0  0  0  0  0  0  0  0  0  0
   20.0019   -9.7259   16.2007 H   0  0  0  0  0  0  0  0  0  0  0  0
   19.3414   -7.3447   18.8166 H   0  0  0  0  0  0  0  0  0  0  0  0
   20.0877   -8.7615   18.4963 H   0  0  0  0  0  0  0  0  0  0  0  0
   21.6314   -7.5893   17.0694 H   0  0  0  0  0  0  0  0  0  0  0  0
  1 20  1  0  0  0  0
  2 19  2  0  0  0  0
  3 19  1  0  0  0  0
  4  9  2  0  0  0  0
  4 24  1  0  0  0  0
  5 21  1  0  0  0  0
  5 22  2  0  0  0  0
  6 22  1  0  0  0  0
  6 23  2  0  0  0  0
  7 21  1  0  0  0  0
  7 25  1  0  0  0  0
  8 23  1  0  0  0  0
  9 10  1  0  0  0  0
 10 12  2  0  0  0  0
 11 13  2  0  0  0  0
 11 14  1  0  0  0  0
 12 15  1  0  0  0  0
 13 16  1  0  0  0  0
 14 17  2  0  0  0  0
 15 24  2  0  0  0  0
 16 26  2  0  0  0  0
 17 26  1  0  0  0  0
 18 25  1  0  0  0  0
 18 26  1  0  0  0  0
 19 25  1  0  0  0  0
 20 21  2  0  0  0  0
 20 23  1  0  0  0  0
 22 24  1  0  0  0  0
  3 27  1  0  0  0  0
  3 28  1  0  0  0  0
  7 29  1  0  0  0  0
  8 30  1  0  0  0  0
  8 31  1  0  0  0  0
  8 32  1  0  0  0  0
  9 33  1  0  0  0  0
 10 34  1  0  0  0  0
 11 35  1  0  0  0  0
 12 36  1  0  0  0  0
 13 37  1  0  0  0  0
 14 38  1  0  0  0  0
 15 39  1  0  0  0  0
 16 40  1  0  0  0  0
 17 41  1  0  0  0  0
 18 42  1  0  0  0  0
 18 43  1  0  0  0  0
 25 44  1  0  0  0  0
M  END
> <pdb_id>
4IKU

> <uniprot_id>
P53582

> <usmiles>
Clc1c(nc(nc1C)c2ncccc2)N[C@@H](C(=O)N)Cc3ccccc3

$$$$
SHY_H_1256
          07202416143D 1   1.00000     0.00000     0
            
 57 62  0  0  0  0            999 V2000
    8.8324  -13.6612   15.7527 O   0  0  0  0  0  0  0  0  0  0  0  0
   12.2063  -13.0300   12.7997 O   0  0  0  0  0  0  0  0  0  0  0  0
   12.8702  -13.2866   19.4734 O   0  0  0  0  0  0  0  0  0  0  0  0
    5.9523  -13.4927    9.6777 O   0  0  0  0  0  0  0  0  0  0  0  0
    5.2620  -14.0634   11.8687 O   0  0  0  0  0  0  0  0  0  0  0  0
   17.6459  -10.1474   10.9627 N   0  0  0  0  0  0  0  0  0  0  0  0
   18.1979  -12.3440   11.4837 N   0  0  0  0  0  0  0  0  0  0  0  0
   10.3844  -13.5917   14.1161 N   0  0  0  0  0  0  0  0  0  0  0  0
   13.0056  -12.5568   16.3583 N   0  0  0  0  0  0  0  0  0  0  0  0
    4.7994  -13.6112   10.5526 C   0  0  0  0  0  0  0  0  0  0  0  0
   13.8932  -12.1887   17.5091 C   0  0  0  0  0  0  0  0  0  0  0  0
    9.9744  -14.7426   13.3002 C   0  0  0  0  0  0  0  0  0  0  0  0
    8.3491  -13.8129   10.0446 C   0  0  0  0  0  0  0  0  0  0  0  0
    9.2586  -14.1526   11.0256 C   0  0  0  0  0  0  0  0  0  0  0  0
   15.5713  -10.1766   12.9333 C   0  0  0  0  0  0  0  0  0  0  0  0
   16.0048  -12.5181   13.3387 C   0  0  0  0  0  0  0  0  0  0  0  0
   14.4982  -10.2358   13.8257 C   0  0  0  0  0  0  0  0  0  0  0  0
   14.9455  -12.5702   14.2180 C   0  0  0  0  0  0  0  0  0  0  0  0
   11.6576  -11.7022   18.1566 C   0  0  0  0  0  0  0  0  0  0  0  0
    7.5422  -14.4202   12.7127 C   0  0  0  0  0  0  0  0  0  0  0  0
    9.8267  -13.1152   15.2963 C   0  0  0  0  0  0  0  0  0  0  0  0
   11.4955  -12.7848   13.7641 C   0  0  0  0  0  0  0  0  0  0  0  0
   13.0222  -12.0443   18.7736 C   0  0  1  0  0  0  0  0  0  0  0  0
   17.4018  -11.2535   11.7204 C   0  0  0  0  0  0  0  0  0  0  0  0
    7.0102  -13.7763   10.4494 C   0  0  0  0  0  0  0  0  0  0  0  0
    6.6197  -14.0666   11.7409 C   0  0  0  0  0  0  0  0  0  0  0  0
   11.6258  -12.5825   16.9323 C   0  0  1  0  0  0  0  0  0  0  0  0
   12.9402  -11.4348   15.3821 C   0  0  1  0  0  0  0  0  0  0  0  0
    8.8863  -14.4589   12.3268 C   0  0  0  0  0  0  0  0  0  0  0  0
   16.3153  -11.3161   12.6649 C   0  0  0  0  0  0  0  0  0  0  0  0
   14.1554  -11.4488   14.4687 C   0  0  0  0  0  0  0  0  0  0  0  0
   10.6246  -12.0219   15.8967 C   0  0  1  0  0  0  0  0  0  0  0  0
   11.5676  -11.5985   14.7070 C   0  0  2  0  0  0  0  0  0  0  0  0
   12.3004  -13.1456   20.2830 H   0  0  0  0  0  0  0  0  0  0  0  0
   17.0963   -9.3219   11.0915 H   0  0  0  0  0  0  0  0  0  0  0  0
   18.3745  -10.1611   10.2780 H   0  0  0  0  0  0  0  0  0  0  0  0
   18.0646  -13.1840   12.0097 H   0  0  0  0  0  0  0  0  0  0  0  0
    4.1552  -14.2760   10.1743 H   0  0  0  0  0  0  0  0  0  0  0  0
    4.3488  -12.7228   10.6398 H   0  0  0  0  0  0  0  0  0  0  0  0
   14.3536  -11.3222   17.3161 H   0  0  0  0  0  0  0  0  0  0  0  0
   14.5766  -12.9050   17.6504 H   0  0  0  0  0  0  0  0  0  0  0  0
    9.6605  -15.4651   13.9162 H   0  0  0  0  0  0  0  0  0  0  0  0
   10.7727  -15.0629   12.7902 H   0  0  0  0  0  0  0  0  0  0  0  0
    8.6285  -13.6066    9.1068 H   0  0  0  0  0  0  0  0  0  0  0  0
   10.2296  -14.1792   10.7879 H   0  0  0  0  0  0  0  0  0  0  0  0
   15.8033   -9.3120   12.4876 H   0  0  0  0  0  0  0  0  0  0  0  0
   16.5570  -13.3359   13.1765 H   0  0  0  0  0  0  0  0  0  0  0  0
   13.9654   -9.4104   14.0125 H   0  0  0  0  0  0  0  0  0  0  0  0
   14.7390  -13.4295   14.6858 H   0  0  0  0  0  0  0  0  0  0  0  0
   11.6051  -10.7350   17.9082 H   0  0  0  0  0  0  0  0  0  0  0  0
   10.9110  -11.9265   18.7829 H   0  0  0  0  0  0  0  0  0  0  0  0
    7.2600  -14.6378   13.6470 H   0  0  0  0  0  0  0  0  0  0  0  0
   13.3534  -11.3161   19.3737 H   0  0  0  0  0  0  0  0  0  0  0  0
   11.3744  -13.5168   17.1851 H   0  0  0  0  0  0  0  0  0  0  0  0
   12.9395  -10.5743   15.8916 H   0  0  0  0  0  0  0  0  0  0  0  0
   10.0672  -11.2702   16.2491 H   0  0  0  0  0  0  0  0  0  0  0  0
   11.2620  -10.7528   14.2694 H   0  0  0  0  0  0  0  0  0  0  0  0
  1 21  2  0  0  0  0
  2 22  2  0  0  0  0
  3 23  1  0  0  0  0
  4 10  1  0  0  0  0
  4 25  1  0  0  0  0
  5 10  1  0  0  0  0
  5 26  1  0  0  0  0
  6 24  1  0  0  0  0
  7 24  2  0  0  0  0
  8 12  1  0  0  0  0
  8 21  1  0  0  0  0
  8 22  1  0  0  0  0
  9 11  1  0  0  0  0
  9 27  1  0  0  0  0
  9 28  1  0  0  0  0
 11 23  1  0  0  0  0
 12 29  1  0  0  0  0
 13 14  2  0  0  0  0
 13 25  1  0  0  0  0
 14 29  1  0  0  0  0
 15 17  1  0  0  0  0
 15 30  2  0  0  0  0
 16 18  2  0  0  0  0
 16 30  1  0  0  0  0
 17 31  2  0  0  0  0
 18 31  1  0  0  0  0
 19 23  1  0  0  0  0
 19 27  1  0  0  0  0
 20 26  1  0  0  0  0
 20 29  2  0  0  0  0
 21 32  1  0  0  0  0
 22 33  1  0  0  0  0
 24 30  1  0  0  0  0
 25 26  2  0  0  0  0
 27 32  1  0  0  0  0
 28 31  1  0  0  0  0
 28 33  1  0  0  0  0
 32 33  1  0  0  0  0
  3 34  1  0  0  0  0
  6 35  1  0  0  0  0
  6 36  1  0  0  0  0
  7 37  1  0  0  0  0
 10 38  1  0  0  0  0
 10 39  1  0  0  0  0
 11 40  1  0  0  0  0
 11 41  1  0  0  0  0
 12 42  1  0  0  0  0
 12 43  1  0  0  0  0
 13 44  1  0  0  0  0
 14 45  1  0  0  0  0
 15 46  1  0  0  0  0
 16 47  1  0  0  0  0
 17 48  1  0  0  0  0
 18 49  1  0  0  0  0
 19 50  1  0  0  0  0
 19 51  1  0  0  0  0
 20 52  1  0  0  0  0
 23 53  1  0  0  0  0
 27 54  1  0  0  0  0
 28 55  1  0  0  0  0
 32 56  1  0  0  0  0
 33 57  1  0  0  0  0
M  END
> <pdb_id>
1VZQ

> <uniprot_id>
P00734

> <usmiles>
O=C1N(C(=O)[C@@H]2[C@@H](N3[C@H]([C@H]12)C[C@@H](O)C3)c4ccc(cc4)C(=N)N)Cc5cc6OCOc6cc5

$$$$
SIJ_A_1351
          07192421293D 1   1.00000     0.00000     0
            
 40 43  0  0  0  0            999 V2000
    3.1594   10.2088    4.4724 N   0  0  0  0  0  0  0  0  0  0  0  0
    3.2019   10.2834    2.0427 N   0  0  0  0  0  0  0  0  0  0  0  0
    5.3147   10.2994    5.5427 N   0  0  0  0  0  0  0  0  0  0  0  0
    5.4067   10.4902    1.7015 N   0  0  0  0  0  0  0  0  0  0  0  0
   10.4628    7.6324    4.2931 N   0  0  0  0  0  0  0  0  0  0  0  0
    7.2753   10.5389    4.3518 N   0  0  0  0  0  0  0  0  0  0  0  0
    3.9806   10.2235    5.5251 C   0  0  0  0  0  0  0  0  0  0  0  0
    4.2130   10.4057    1.1479 C   0  0  0  0  0  0  0  0  0  0  0  0
   11.5603    7.4000    3.3402 C   0  0  0  0  0  0  0  0  0  0  0  0
    8.1403   10.5057    3.1635 C   0  0  0  0  0  0  0  0  0  0  0  0
    8.0438   10.3332    5.5887 C   0  0  0  0  0  0  0  0  0  0  0  0
   12.6787    8.3990    3.5311 C   0  0  0  0  0  0  0  0  0  0  0  0
   12.1725    9.8333    3.4567 C   0  0  0  0  0  0  0  0  0  0  0  0
    8.9825    9.2432    3.0587 C   0  0  0  0  0  0  0  0  0  0  0  0
    8.9309    9.0948    5.5102 C   0  0  0  0  0  0  0  0  0  0  0  0
   11.0134   10.0718    4.4305 C   0  0  0  0  0  0  0  0  0  0  0  0
    3.7775   10.2904    3.2799 C   0  0  0  0  0  0  0  0  0  0  0  0
    5.8656   10.4024    4.3091 C   0  0  0  0  0  0  0  0  0  0  0  0
    5.1451   10.4102    3.0621 C   0  0  0  0  0  0  0  0  0  0  0  0
    9.8741    9.0381    4.2948 C   0  0  0  0  0  0  0  0  0  0  0  0
    6.2924   10.5887    1.2476 H   0  0  0  0  0  0  0  0  0  0  0  0
   10.8090    7.4433    5.2121 H   0  0  0  0  0  0  0  0  0  0  0  0
    3.5381   10.1705    6.4203 H   0  0  0  0  0  0  0  0  0  0  0  0
    4.0669   10.4296    0.1589 H   0  0  0  0  0  0  0  0  0  0  0  0
   11.2054    7.4832    2.4089 H   0  0  0  0  0  0  0  0  0  0  0  0
   11.9211    6.4777    3.4782 H   0  0  0  0  0  0  0  0  0  0  0  0
    8.7548   11.2938    3.1977 H   0  0  0  0  0  0  0  0  0  0  0  0
    7.5623   10.5687    2.3499 H   0  0  0  0  0  0  0  0  0  0  0  0
    7.4058   10.2256    6.3512 H   0  0  0  0  0  0  0  0  0  0  0  0
    8.6209   11.1343    5.7474 H   0  0  0  0  0  0  0  0  0  0  0  0
   13.3633    8.2596    2.8156 H   0  0  0  0  0  0  0  0  0  0  0  0
   13.0975    8.2493    4.4267 H   0  0  0  0  0  0  0  0  0  0  0  0
   11.8579   10.0189    2.5257 H   0  0  0  0  0  0  0  0  0  0  0  0
   12.9219   10.4546    3.6854 H   0  0  0  0  0  0  0  0  0  0  0  0
    9.5650    9.3106    2.2486 H   0  0  0  0  0  0  0  0  0  0  0  0
    8.3730    8.4558    2.9664 H   0  0  0  0  0  0  0  0  0  0  0  0
    8.3371    8.2908    5.4785 H   0  0  0  0  0  0  0  0  0  0  0  0
    9.4911    9.0630    6.3380 H   0  0  0  0  0  0  0  0  0  0  0  0
   10.6372   10.9822    4.2584 H   0  0  0  0  0  0  0  0  0  0  0  0
   11.3700   10.0295    5.3638 H   0  0  0  0  0  0  0  0  0  0  0  0
  1  7  2  0  0  0  0
  1 17  1  0  0  0  0
  2  8  2  0  0  0  0
  2 17  1  0  0  0  0
  3  7  1  0  0  0  0
  3 18  2  0  0  0  0
  4  8  1  0  0  0  0
  4 19  1  0  0  0  0
  5  9  1  0  0  0  0
  5 20  1  0  0  0  0
  6 10  1  0  0  0  0
  6 11  1  0  0  0  0
  6 18  1  0  0  0  0
  9 12  1  0  0  0  0
 10 14  1  0  0  0  0
 11 15  1  0  0  0  0
 12 13  1  0  0  0  0
 13 16  1  0  0  0  0
 14 20  1  0  0  0  0
 15 20  1  0  0  0  0
 16 20  1  0  0  0  0
 17 19  2  0  0  0  0
 18 19  1  0  0  0  0
  4 21  1  0  0  0  0
  5 22  1  0  0  0  0
  7 23  1  0  0  0  0
  8 24  1  0  0  0  0
  9 25  1  0  0  0  0
  9 26  1  0  0  0  0
 10 27  1  0  0  0  0
 10 28  1  0  0  0  0
 11 29  1  0  0  0  0
 11 30  1  0  0  0  0
 12 31  1  0  0  0  0
 12 32  1  0  0  0  0
 13 33  1  0  0  0  0
 13 34  1  0  0  0  0
 14 35  1  0  0  0  0
 14 36  1  0  0  0  0
 15 37  1  0  0  0  0
 15 38  1  0  0  0  0
 16 39  1  0  0  0  0
 16 40  1  0  0  0  0
M  END
> <pdb_id>
3ZO1

> <uniprot_id>
P00517

> <usmiles>
n1c2N=CNc2c(nc1)N3CCC4(NCCCC4)CC3

$$$$
SJ5_B_701
          07202411143D 1   1.00000     0.00000     0
            
 22 22  0  0  0  0            999 V2000
  127.6290 -878.9511  302.5723 O   0  0  0  0  0  0  0  0  0  0  0  0
  128.8711 -879.5598  300.8275 O   0  0  0  0  0  0  0  0  0  0  0  0
  123.9717 -879.1791  298.3763 O   0  0  0  0  0  0  0  0  0  0  0  0
  126.6976 -878.7080  298.8927 O   0  0  0  0  0  0  0  0  0  0  0  0
  124.5325 -881.3999  301.2576 N   0  0  0  0  0  0  0  0  0  0  0  0
  123.7861 -880.6017  300.2992 C   0  0  0  0  0  0  0  0  0  0  0  0
  125.7014 -880.7790  301.8773 C   0  0  0  0  0  0  0  0  0  0  0  0
  127.7924 -879.5513  301.4116 C   0  0  0  0  0  0  0  0  0  0  0  0
  124.7238 -880.0327  299.2379 C   0  0  2  0  0  0  0  0  0  0  0  0
  125.8508 -879.2621  299.8960 C   0  0  1  0  0  0  0  0  0  0  0  0
  126.6133 -880.2294  300.7921 C   0  0  2  0  0  0  0  0  0  0  0  0
  126.7352 -878.9641  303.0205 H   0  0  0  0  0  0  0  0  0  0  0  0
  124.5745 -878.7987  297.6749 H   0  0  0  0  0  0  0  0  0  0  0  0
  127.4410 -878.1997  299.3274 H   0  0  0  0  0  0  0  0  0  0  0  0
  124.8448 -882.2238  300.7846 H   0  0  0  0  0  0  0  0  0  0  0  0
  123.3345 -879.8488  300.7779 H   0  0  0  0  0  0  0  0  0  0  0  0
  123.0975 -881.1763  299.8569 H   0  0  0  0  0  0  0  0  0  0  0  0
  126.1961 -881.4613  302.4155 H   0  0  0  0  0  0  0  0  0  0  0  0
  125.4061 -880.0334  302.4748 H   0  0  0  0  0  0  0  0  0  0  0  0
  125.1086 -880.7842  298.7021 H   0  0  0  0  0  0  0  0  0  0  0  0
  125.4684 -878.5246  300.4526 H   0  0  0  0  0  0  0  0  0  0  0  0
  126.9404 -880.9917  300.2336 H   0  0  0  0  0  0  0  0  0  0  0  0
  1  8  1  0  0  0  0
  2  8  2  0  0  0  0
  3  9  1  0  0  0  0
  4 10  1  0  0  0  0
  5  6  1  0  0  0  0
  5  7  1  0  0  0  0
  6  9  1  0  0  0  0
  7 11  1  0  0  0  0
  8 11  1  0  0  0  0
  9 10  1  0  0  0  0
 10 11  1  0  0  0  0
  1 12  1  0  0  0  0
  3 13  1  0  0  0  0
  4 14  1  0  0  0  0
  5 15  1  0  0  0  0
  6 16  1  0  0  0  0
  6 17  1  0  0  0  0
  7 18  1  0  0  0  0
  7 19  1  0  0  0  0
  9 20  1  0  0  0  0
 10 21  1  0  0  0  0
 11 22  1  0  0  0  0
M  END
> <pdb_id>
6JZ2

> <uniprot_id>
Q6W7J7

> <usmiles>
O=C(O)[C@@H]1[C@@H](O)[C@H](O)CNC1

$$$$
SJ5_B_701
          07202403153D 1   1.00000     0.00000     0
            
 22 22  0  0  0  0            999 V2000
   -2.6834    9.0133  -50.0024 O   0  0  0  0  0  0  0  0  0  0  0  0
   -3.9531   10.7953  -50.1822 O   0  0  0  0  0  0  0  0  0  0  0  0
   -2.9562    9.6481  -55.5201 O   0  0  0  0  0  0  0  0  0  0  0  0
   -4.4406   10.1249  -53.1874 O   0  0  0  0  0  0  0  0  0  0  0  0
   -0.2272   10.1442  -53.0664 N   0  0  0  0  0  0  0  0  0  0  0  0
   -0.8797    9.6752  -54.3130 C   0  0  0  0  0  0  0  0  0  0  0  0
   -0.9377    9.7641  -51.8367 C   0  0  0  0  0  0  0  0  0  0  0  0
   -3.0492    9.9908  -50.6165 C   0  0  0  0  0  0  0  0  0  0  0  0
   -2.3128   10.1981  -54.3394 C   0  0  2  0  0  0  0  0  0  0  0  0
   -3.0643    9.7150  -53.1047 C   0  0  1  0  0  0  0  0  0  0  0  0
   -2.3679   10.3550  -51.9021 C   0  0  2  0  0  0  0  0  0  0  0  0
   -1.9761    8.4185  -50.3845 H   0  0  0  0  0  0  0  0  0  0  0  0
   -3.9007    9.9730  -55.5669 H   0  0  0  0  0  0  0  0  0  0  0  0
   -4.9323    9.8073  -52.3767 H   0  0  0  0  0  0  0  0  0  0  0  0
   -0.1681   11.1419  -53.0992 H   0  0  0  0  0  0  0  0  0  0  0  0
   -0.8855    8.6755  -54.3345 H   0  0  0  0  0  0  0  0  0  0  0  0
   -0.3797   10.0228  -55.1062 H   0  0  0  0  0  0  0  0  0  0  0  0
   -0.4561   10.1303  -51.0405 H   0  0  0  0  0  0  0  0  0  0  0  0
   -0.9859    8.7676  -51.7679 H   0  0  0  0  0  0  0  0  0  0  0  0
   -2.3160   11.1974  -54.3775 H   0  0  0  0  0  0  0  0  0  0  0  0
   -3.0088    8.7186  -53.0402 H   0  0  0  0  0  0  0  0  0  0  0  0
   -2.3307   11.3486  -52.0083 H   0  0  0  0  0  0  0  0  0  0  0  0
  1  8  1  0  0  0  0
  2  8  2  0  0  0  0
  3  9  1  0  0  0  0
  4 10  1  0  0  0  0
  5  6  1  0  0  0  0
  5  7  1  0  0  0  0
  6  9  1  0  0  0  0
  7 11  1  0  0  0  0
  8 11  1  0  0  0  0
  9 10  1  0  0  0  0
 10 11  1  0  0  0  0
  1 12  1  0  0  0  0
  3 13  1  0  0  0  0
  4 14  1  0  0  0  0
  5 15  1  0  0  0  0
  6 16  1  0  0  0  0
  6 17  1  0  0  0  0
  7 18  1  0  0  0  0
  7 19  1  0  0  0  0
  9 20  1  0  0  0  0
 10 21  1  0  0  0  0
 11 22  1  0  0  0  0
M  END
> <pdb_id>
6LDB

> <uniprot_id>
D2Q7B1

> <usmiles>
O=C(O)[C@@H]1[C@@H](O)[C@H](O)CNC1

$$$$
SJJ_B_1392
          07202403123D 1   1.00000     0.00000     0
            
 38 40  0  0  0  0            999 V2000
   40.0904    6.7587   33.8342 O   0  0  0  0  0  0  0  0  0  0  0  0
   36.5984   11.2495   30.8202 O   0  0  0  0  0  0  0  0  0  0  0  0
   39.7085   10.3164   36.2115 O   0  0  0  0  0  0  0  0  0  0  0  0
   44.2904    3.1814   33.2155 N   0  0  0  0  0  0  0  0  0  0  0  0
   40.9158    5.8937   35.7639 N   0  0  0  0  0  0  0  0  0  0  0  0
   40.8628    8.4929   36.8370 N   0  0  0  0  0  0  0  0  0  0  0  0
   36.7184   10.4245   29.6582 C   0  0  0  0  0  0  0  0  0  0  0  0
   40.4860    9.7088   37.1460 C   0  0  0  0  0  0  0  0  0  0  0  0
   43.0548    2.9724   32.7413 C   0  0  0  0  0  0  0  0  0  0  0  0
   44.3560    3.8344   34.3836 C   0  0  0  0  0  0  0  0  0  0  0  0
   40.7805    4.4982   35.2922 C   0  0  0  0  0  0  0  0  0  0  0  0
   41.8960    3.3850   33.3743 C   0  0  0  0  0  0  0  0  0  0  0  0
   43.2630    4.2908   35.0961 C   0  0  0  0  0  0  0  0  0  0  0  0
   37.2116   11.3482   33.0881 C   0  0  0  0  0  0  0  0  0  0  0  0
   38.2510    9.6848   31.7181 C   0  0  0  0  0  0  0  0  0  0  0  0
   37.9650   10.9073   34.1618 C   0  0  0  0  0  0  0  0  0  0  0  0
   38.9835    9.2494   32.8070 C   0  0  0  0  0  0  0  0  0  0  0  0
   40.4472    6.9315   34.9929 C   0  0  0  0  0  0  0  0  0  0  0  0
   37.3635   10.7376   31.8637 C   0  0  0  0  0  0  0  0  0  0  0  0
   39.5940    9.4006   35.2120 C   0  0  0  0  0  0  0  0  0  0  0  0
   40.3012    8.2794   35.6040 C   0  0  0  0  0  0  0  0  0  0  0  0
   42.0085    4.0569   34.5744 C   0  0  0  0  0  0  0  0  0  0  0  0
   38.8524    9.8588   34.0434 C   0  0  0  0  0  0  0  0  0  0  0  0
   41.3489    6.0828   36.6452 H   0  0  0  0  0  0  0  0  0  0  0  0
   36.1632   10.8064   28.9194 H   0  0  0  0  0  0  0  0  0  0  0  0
   37.6759   10.3895   29.3717 H   0  0  0  0  0  0  0  0  0  0  0  0
   36.4002    9.5007   29.8710 H   0  0  0  0  0  0  0  0  0  0  0  0
   40.7495   10.1545   38.0015 H   0  0  0  0  0  0  0  0  0  0  0  0
   42.9643    2.4860   31.8723 H   0  0  0  0  0  0  0  0  0  0  0  0
   45.2631    4.0042   34.7685 H   0  0  0  0  0  0  0  0  0  0  0  0
   39.9989    4.4369   34.6715 H   0  0  0  0  0  0  0  0  0  0  0  0
   40.6288    3.9001   36.0792 H   0  0  0  0  0  0  0  0  0  0  0  0
   40.9991    3.2010   32.9721 H   0  0  0  0  0  0  0  0  0  0  0  0
   43.3787    4.7756   35.9631 H   0  0  0  0  0  0  0  0  0  0  0  0
   36.5641   12.1019   33.2004 H   0  0  0  0  0  0  0  0  0  0  0  0
   38.3618    9.2411   30.8288 H   0  0  0  0  0  0  0  0  0  0  0  0
   37.8632   11.3613   35.0469 H   0  0  0  0  0  0  0  0  0  0  0  0
   39.6171    8.4832   32.7000 H   0  0  0  0  0  0  0  0  0  0  0  0
  1 18  2  0  0  0  0
  2  7  1  0  0  0  0
  2 19  1  0  0  0  0
  3  8  1  0  0  0  0
  3 20  1  0  0  0  0
  4  9  2  0  0  0  0
  4 10  1  0  0  0  0
  5 11  1  0  0  0  0
  5 18  1  0  0  0  0
  6  8  2  0  0  0  0
  6 21  1  0  0  0  0
  9 12  1  0  0  0  0
 10 13  2  0  0  0  0
 11 22  1  0  0  0  0
 12 22  2  0  0  0  0
 13 22  1  0  0  0  0
 14 16  1  0  0  0  0
 14 19  2  0  0  0  0
 15 17  2  0  0  0  0
 15 19  1  0  0  0  0
 16 23  2  0  0  0  0
 17 23  1  0  0  0  0
 18 21  1  0  0  0  0
 20 21  2  0  0  0  0
 20 23  1  0  0  0  0
  5 24  1  0  0  0  0
  7 25  1  0  0  0  0
  7 26  1  0  0  0  0
  7 27  1  0  0  0  0
  8 28  1  0  0  0  0
  9 29  1  0  0  0  0
 10 30  1  0  0  0  0
 11 31  1  0  0  0  0
 11 32  1  0  0  0  0
 12 33  1  0  0  0  0
 13 34  1  0  0  0  0
 14 35  1  0  0  0  0
 15 36  1  0  0  0  0
 16 37  1  0  0  0  0
 17 38  1  0  0  0  0
M  END
> <pdb_id>
4AFJ

> <uniprot_id>
P49841

> <usmiles>
O=C(NCc1ccncc1)C=2N=COC2c3ccc(OC)cc3

$$$$
SK4_A_1
          07202412153D 1   1.00000     0.00000     0
            
 43 45  0  0  0  0            999 V2000
   50.0722   48.1364   65.8543 S   0  0  0  0  0  0  0  0  0  0  0  0
   50.5006   48.4821   64.5335 O   0  0  0  0  0  0  0  0  0  0  0  0
   50.3152   49.1411   66.8570 O   0  0  0  0  0  0  0  0  0  0  0  0
   43.9635   46.0730   61.4027 O   0  0  0  0  0  0  0  0  0  0  0  0
   50.4972   45.4615   59.9567 O   0  0  0  0  0  0  0  0  0  0  0  0
   42.1869   45.5129   62.7211 N   0  0  0  0  0  0  0  0  0  0  0  0
   44.3000   46.9443   66.0003 N   0  0  0  0  0  0  0  0  0  0  0  0
   46.4374   46.3207   62.3823 N   0  0  0  0  0  0  0  0  0  0  0  0
   50.8283   46.6302   66.3442 C   0  0  0  0  0  0  0  0  0  0  0  0
   50.0732   46.3696   58.9591 C   0  0  0  0  0  0  0  0  0  0  0  0
   43.6605   46.5306   64.9030 C   0  0  0  0  0  0  0  0  0  0  0  0
   49.3436   44.0957   63.1250 C   0  0  0  0  0  0  0  0  0  0  0  0
   50.1694   44.3332   62.0358 C   0  0  0  0  0  0  0  0  0  0  0  0
   47.6374   47.9238   67.0355 C   0  0  0  0  0  0  0  0  0  0  0  0
   48.1165   44.7701   63.1914 C   0  0  0  0  0  0  0  0  0  0  0  0
   46.2902   47.6534   67.0760 C   0  0  0  0  0  0  0  0  0  0  0  0
   48.5355   45.8835   61.1453 C   0  0  0  0  0  0  0  0  0  0  0  0
   47.7502   47.2925   64.7208 C   0  0  0  0  0  0  0  0  0  0  0  0
   43.4953   45.8761   62.5142 C   0  0  0  0  0  0  0  0  0  0  0  0
   48.3587   47.7614   65.8705 C   0  0  0  0  0  0  0  0  0  0  0  0
   49.7393   45.2254   61.0442 C   0  0  0  0  0  0  0  0  0  0  0  0
   47.7125   45.6720   62.2055 C   0  0  0  0  0  0  0  0  0  0  0  0
   45.6558   47.1977   65.9276 C   0  0  0  0  0  0  0  0  0  0  0  0
   45.6842   46.5623   63.5858 C   0  0  0  0  0  0  0  0  0  0  0  0
   44.3178   46.2869   63.7085 C   0  0  0  0  0  0  0  0  0  0  0  0
   46.3717   47.0305   64.7347 C   0  0  0  0  0  0  0  0  0  0  0  0
   41.8507   45.3630   63.6509 H   0  0  0  0  0  0  0  0  0  0  0  0
   41.5706   45.3984   61.9420 H   0  0  0  0  0  0  0  0  0  0  0  0
   46.0108   46.6535   61.5413 H   0  0  0  0  0  0  0  0  0  0  0  0
   50.5273   46.3909   67.2673 H   0  0  0  0  0  0  0  0  0  0  0  0
   50.5660   45.9036   65.7092 H   0  0  0  0  0  0  0  0  0  0  0  0
   51.8225   46.7379   66.3351 H   0  0  0  0  0  0  0  0  0  0  0  0
   50.7610   46.4139   58.2346 H   0  0  0  0  0  0  0  0  0  0  0  0
   49.2035   46.0602   58.5746 H   0  0  0  0  0  0  0  0  0  0  0  0
   49.9552   47.2769   59.3626 H   0  0  0  0  0  0  0  0  0  0  0  0
   42.6711   46.3917   64.9456 H   0  0  0  0  0  0  0  0  0  0  0  0
   49.6172   43.4586   63.8456 H   0  0  0  0  0  0  0  0  0  0  0  0
   51.0556   43.8761   61.9596 H   0  0  0  0  0  0  0  0  0  0  0  0
   48.1012   48.2427   67.8620 H   0  0  0  0  0  0  0  0  0  0  0  0
   47.5116   44.5998   63.9692 H   0  0  0  0  0  0  0  0  0  0  0  0
   45.7732   47.7832   67.9221 H   0  0  0  0  0  0  0  0  0  0  0  0
   48.2625   46.5259   60.4291 H   0  0  0  0  0  0  0  0  0  0  0  0
   48.2857   47.1421   63.8898 H   0  0  0  0  0  0  0  0  0  0  0  0
  1  2  2  0  0  0  0
  1  3  2  0  0  0  0
  1  9  1  0  0  0  0
  1 20  1  0  0  0  0
  4 19  2  0  0  0  0
  5 10  1  0  0  0  0
  5 21  1  0  0  0  0
  6 19  1  0  0  0  0
  7 11  1  0  0  0  0
  7 23  2  0  0  0  0
  8 22  1  0  0  0  0
  8 24  1  0  0  0  0
 11 25  2  0  0  0  0
 12 13  2  0  0  0  0
 12 15  1  0  0  0  0
 13 21  1  0  0  0  0
 14 16  2  0  0  0  0
 14 20  1  0  0  0  0
 15 22  2  0  0  0  0
 16 23  1  0  0  0  0
 17 21  2  0  0  0  0
 17 22  1  0  0  0  0
 18 20  2  0  0  0  0
 18 26  1  0  0  0  0
 19 25  1  0  0  0  0
 23 26  1  0  0  0  0
 24 25  1  0  0  0  0
 24 26  2  0  0  0  0
  6 27  1  0  0  0  0
  6 28  1  0  0  0  0
  8 29  1  0  0  0  0
  9 30  1  0  0  0  0
  9 31  1  0  0  0  0
  9 32  1  0  0  0  0
 10 33  1  0  0  0  0
 10 34  1  0  0  0  0
 10 35  1  0  0  0  0
 11 36  1  0  0  0  0
 12 37  1  0  0  0  0
 13 38  1  0  0  0  0
 14 39  1  0  0  0  0
 15 40  1  0  0  0  0
 16 41  1  0  0  0  0
 17 42  1  0  0  0  0
 18 43  1  0  0  0  0
M  END
> <pdb_id>
3FRG

> <uniprot_id>
Q07343

> <usmiles>
S(=O)(=O)(c1cc2c(ncc(c2Nc3cc(OC)ccc3)C(=O)N)cc1)C

$$$$
SKA_A_3001
          07192418533D 1   1.00000     0.00000     0
            
 21 22  0  0  0  0            999 V2000
   26.7361   43.0630   14.3173 Cl  0  0  0  0  0  0  0  0  0  0  0  0
   27.1555   41.3351   16.9335 Cl  0  0  0  0  0  0  0  0  0  0  0  0
   29.6396   43.3181   20.1018 N   0  0  0  0  0  0  0  0  0  0  0  0
   29.3609   44.7383   20.3585 C   0  0  0  0  0  0  0  0  0  0  0  0
   28.5910   42.7144   19.2597 C   0  0  0  0  0  0  0  0  0  0  0  0
   29.5655   45.5175   19.0571 C   0  0  0  0  0  0  0  0  0  0  0  0
   27.9877   45.0294   15.6465 C   0  0  0  0  0  0  0  0  0  0  0  0
   28.6364   45.5827   16.7479 C   0  0  0  0  0  0  0  0  0  0  0  0
   27.5360   43.7173   15.7044 C   0  0  0  0  0  0  0  0  0  0  0  0
   27.7351   42.9656   16.8626 C   0  0  0  0  0  0  0  0  0  0  0  0
   28.8334   44.8309   17.8992 C   0  0  0  0  0  0  0  0  0  0  0  0
   28.3839   43.5120   17.9691 C   0  0  0  0  0  0  0  0  0  0  0  0
   29.6790   42.8304   20.9739 H   0  0  0  0  0  0  0  0  0  0  0  0
   29.9851   45.0831   21.0595 H   0  0  0  0  0  0  0  0  0  0  0  0
   28.4170   44.8456   20.6707 H   0  0  0  0  0  0  0  0  0  0  0  0
   27.7326   42.6958   19.7722 H   0  0  0  0  0  0  0  0  0  0  0  0
   28.8597   41.7801   19.0253 H   0  0  0  0  0  0  0  0  0  0  0  0
   30.5428   45.5601   18.8493 H   0  0  0  0  0  0  0  0  0  0  0  0
   29.2078   46.4446   19.1690 H   0  0  0  0  0  0  0  0  0  0  0  0
   27.8480   45.5735   14.8192 H   0  0  0  0  0  0  0  0  0  0  0  0
   28.9625   46.5273   16.7096 H   0  0  0  0  0  0  0  0  0  0  0  0
  1  9  1  0  0  0  0
  2 10  1  0  0  0  0
  3  4  1  0  0  0  0
  3  5  1  0  0  0  0
  4  6  1  0  0  0  0
  5 12  1  0  0  0  0
  6 11  1  0  0  0  0
  7  8  2  0  0  0  0
  7  9  1  0  0  0  0
  8 11  1  0  0  0  0
  9 10  2  0  0  0  0
 10 12  1  0  0  0  0
 11 12  2  0  0  0  0
  3 13  1  0  0  0  0
  4 14  1  0  0  0  0
  4 15  1  0  0  0  0
  5 16  1  0  0  0  0
  5 17  1  0  0  0  0
  6 18  1  0  0  0  0
  6 19  1  0  0  0  0
  7 20  1  0  0  0  0
  8 21  1  0  0  0  0
M  END
> <pdb_id>
1YZ3

> <uniprot_id>
P11086

> <usmiles>
Clc1c(Cl)ccc2c1CNCC2

$$$$
SKB_A_602
          07212403183D 1   1.00000     0.00000     0
            
 33 34  0  0  0  0            999 V2000
   13.3368  130.0904   30.0262 F   0  0  0  0  0  0  0  0  0  0  0  0
   12.0910  131.4805   29.0099 F   0  0  0  0  0  0  0  0  0  0  0  0
   14.2087  131.6641   28.9257 F   0  0  0  0  0  0  0  0  0  0  0  0
   15.6810  130.8400   24.4701 O   0  0  0  0  0  0  0  0  0  0  0  0
   18.0341  125.7572   20.1005 C   0  0  0  0  0  0  0  0  0  0  0  0
   17.2809  125.4599   21.2207 C   0  0  0  0  0  0  0  0  0  0  0  0
   18.3132  127.0815   19.8284 C   0  0  0  0  0  0  0  0  0  0  0  0
   12.5308  128.0340   26.5895 C   0  0  0  0  0  0  0  0  0  0  0  0
   16.8369  126.4853   22.0552 C   0  0  0  0  0  0  0  0  0  0  0  0
   17.8358  128.1337   20.6246 C   0  0  0  0  0  0  0  0  0  0  0  0
   15.6456  128.6483   23.6608 C   0  0  0  0  0  0  0  0  0  0  0  0
   13.4455  128.3118   25.5574 C   0  0  0  0  0  0  0  0  0  0  0  0
   12.4421  128.8531   27.7135 C   0  0  0  0  0  0  0  0  0  0  0  0
   16.6256  128.9082   22.5154 C   0  0  0  0  0  0  0  0  0  0  0  0
   14.1846  130.2269   26.7493 C   0  0  0  0  0  0  0  0  0  0  0  0
   15.2142  129.7267   24.6133 C   0  0  0  0  0  0  0  0  0  0  0  0
   17.0695  127.8340   21.7232 C   0  0  0  0  0  0  0  0  0  0  0  0
   14.2916  129.4113   25.6290 C   0  0  0  0  0  0  0  0  0  0  0  0
   13.2772  129.9562   27.7634 C   0  0  0  0  0  0  0  0  0  0  0  0
   13.2139  130.8367   28.9576 C   0  0  0  0  0  0  0  0  0  0  0  0
   18.3690  125.0301   19.5013 H   0  0  0  0  0  0  0  0  0  0  0  0
   17.0542  124.5093   21.4328 H   0  0  0  0  0  0  0  0  0  0  0  0
   18.8778  127.2996   19.0324 H   0  0  0  0  0  0  0  0  0  0  0  0
   11.9339  127.2351   26.5153 H   0  0  0  0  0  0  0  0  0  0  0  0
   16.3482  126.2606   22.8982 H   0  0  0  0  0  0  0  0  0  0  0  0
   18.0497  129.0834   20.3961 H   0  0  0  0  0  0  0  0  0  0  0  0
   16.0580  127.9307   24.2219 H   0  0  0  0  0  0  0  0  0  0  0  0
   14.8090  128.3009   23.2372 H   0  0  0  0  0  0  0  0  0  0  0  0
   13.4872  127.7090   24.7606 H   0  0  0  0  0  0  0  0  0  0  0  0
   11.8011  128.6520   28.4543 H   0  0  0  0  0  0  0  0  0  0  0  0
   17.4392  129.3270   22.9188 H   0  0  0  0  0  0  0  0  0  0  0  0
   16.1854  129.5611   21.8991 H   0  0  0  0  0  0  0  0  0  0  0  0
   14.7767  131.0292   26.8264 H   0  0  0  0  0  0  0  0  0  0  0  0
  1 20  1  0  0  0  0
  2 20  1  0  0  0  0
  3 20  1  0  0  0  0
  4 16  2  0  0  0  0
  5  6  2  0  0  0  0
  5  7  1  0  0  0  0
  6  9  1  0  0  0  0
  7 10  2  0  0  0  0
  8 12  1  0  0  0  0
  8 13  2  0  0  0  0
  9 17  2  0  0  0  0
 10 17  1  0  0  0  0
 11 14  1  0  0  0  0
 11 16  1  0  0  0  0
 12 18  2  0  0  0  0
 13 19  1  0  0  0  0
 14 17  1  0  0  0  0
 15 18  1  0  0  0  0
 15 19  2  0  0  0  0
 16 18  1  0  0  0  0
 19 20  1  0  0  0  0
  5 21  1  0  0  0  0
  6 22  1  0  0  0  0
  7 23  1  0  0  0  0
  8 24  1  0  0  0  0
  9 25  1  0  0  0  0
 10 26  1  0  0  0  0
 11 27  1  0  0  0  0
 11 28  1  0  0  0  0
 12 29  1  0  0  0  0
 13 30  1  0  0  0  0
 14 31  1  0  0  0  0
 14 32  1  0  0  0  0
 15 33  1  0  0  0  0
M  END
> <pdb_id>
7B0V

> <uniprot_id>
P27338

> <usmiles>
FC(F)(F)c1cc(ccc1)C(=O)CCc2ccccc2

$$$$
SKF_A_3001
          07192418533D 1   1.00000     0.00000     0
            
 26 27  0  0  0  0            999 V2000
   27.2910   43.1596   13.9768 S   0  0  0  0  0  0  0  0  0  0  0  0
   27.5084   44.0786   12.8805 O   0  0  0  0  0  0  0  0  0  0  0  0
   25.8999   42.7881   14.0062 O   0  0  0  0  0  0  0  0  0  0  0  0
   28.1500   41.8603   13.7335 N   0  0  0  0  0  0  0  0  0  0  0  0
   29.7103   43.3083   19.9959 N   0  0  0  0  0  0  0  0  0  0  0  0
   29.2055   44.6748   20.2990 C   0  0  0  0  0  0  0  0  0  0  0  0
   28.9859   42.6365   18.8917 C   0  0  0  0  0  0  0  0  0  0  0  0
   29.4772   45.5084   19.0657 C   0  0  0  0  0  0  0  0  0  0  0  0
   27.9013   45.2450   15.6574 C   0  0  0  0  0  0  0  0  0  0  0  0
   28.3408   45.7808   16.8606 C   0  0  0  0  0  0  0  0  0  0  0  0
   28.2168   43.0209   16.5464 C   0  0  0  0  0  0  0  0  0  0  0  0
   27.8399   43.8555   15.5020 C   0  0  0  0  0  0  0  0  0  0  0  0
   28.6564   43.5555   17.7426 C   0  0  0  0  0  0  0  0  0  0  0  0
   28.7188   44.9441   17.9040 C   0  0  0  0  0  0  0  0  0  0  0  0
   28.0055   41.2192   14.4872 H   0  0  0  0  0  0  0  0  0  0  0  0
   27.8709   41.4324   12.8738 H   0  0  0  0  0  0  0  0  0  0  0  0
   29.6196   42.7485   20.8195 H   0  0  0  0  0  0  0  0  0  0  0  0
   29.6879   45.0555   21.0879 H   0  0  0  0  0  0  0  0  0  0  0  0
   28.2242   44.6475   20.4896 H   0  0  0  0  0  0  0  0  0  0  0  0
   28.1317   42.2638   19.2541 H   0  0  0  0  0  0  0  0  0  0  0  0
   29.5556   41.8904   18.5471 H   0  0  0  0  0  0  0  0  0  0  0  0
   30.4563   45.4943   18.8629 H   0  0  0  0  0  0  0  0  0  0  0  0
   29.1841   46.4505   19.2290 H   0  0  0  0  0  0  0  0  0  0  0  0
   27.6304   45.8479   14.9069 H   0  0  0  0  0  0  0  0  0  0  0  0
   28.3856   46.7730   16.9769 H   0  0  0  0  0  0  0  0  0  0  0  0
   28.1699   42.0285   16.4322 H   0  0  0  0  0  0  0  0  0  0  0  0
  1  2  2  0  0  0  0
  1  3  2  0  0  0  0
  1  4  1  0  0  0  0
  1 12  1  0  0  0  0
  5  6  1  0  0  0  0
  5  7  1  0  0  0  0
  6  8  1  0  0  0  0
  7 13  1  0  0  0  0
  8 14  1  0  0  0  0
  9 10  2  0  0  0  0
  9 12  1  0  0  0  0
 10 14  1  0  0  0  0
 11 12  2  0  0  0  0
 11 13  1  0  0  0  0
 13 14  2  0  0  0  0
  4 15  1  0  0  0  0
  4 16  1  0  0  0  0
  5 17  1  0  0  0  0
  6 18  1  0  0  0  0
  6 19  1  0  0  0  0
  7 20  1  0  0  0  0
  7 21  1  0  0  0  0
  8 22  1  0  0  0  0
  8 23  1  0  0  0  0
  9 24  1  0  0  0  0
 10 25  1  0  0  0  0
 11 26  1  0  0  0  0
M  END
> <pdb_id>
1HNN

> <uniprot_id>
P11086

> <usmiles>
S(=O)(=O)(N)c1cc2c(cc1)CCNC2

$$$$
SKM_A_301
          07202415343D 1   1.00000     0.00000     0
            
 22 22  0  0  0  0            999 V2000
  -15.4088   -0.1921   16.7526 O   0  0  0  0  0  0  0  0  0  0  0  0
  -15.7041    1.9755   16.7246 O   0  0  0  0  0  0  0  0  0  0  0  0
  -19.8169   -1.7571   19.0712 O   0  0  0  0  0  0  0  0  0  0  0  0
  -19.3562    2.2642   20.0155 O   0  0  0  0  0  0  0  0  0  0  0  0
  -19.8622   -0.0857   21.2701 O   0  0  0  0  0  0  0  0  0  0  0  0
  -17.8815   -0.6049   18.1306 C   0  0  0  0  0  0  0  0  0  0  0  0
  -17.2208    1.5599   19.1538 C   0  0  0  0  0  0  0  0  0  0  0  0
  -15.9915    0.8363   17.1660 C   0  0  0  0  0  0  0  0  0  0  0  0
  -19.1420   -0.4922   18.9790 C   0  0  2  0  0  0  0  0  0  0  0  0
  -18.2464    1.3941   20.2609 C   0  0  2  0  0  0  0  0  0  0  0  0
  -17.0283    0.6605   18.1861 C   0  0  0  0  0  0  0  0  0  0  0  0
  -18.7551   -0.0226   20.3669 C   0  0  1  0  0  0  0  0  0  0  0  0
  -15.6559   -1.0887   17.1201 H   0  0  0  0  0  0  0  0  0  0  0  0
  -20.6388   -1.6564   19.6318 H   0  0  0  0  0  0  0  0  0  0  0  0
  -20.0324    2.1558   20.7442 H   0  0  0  0  0  0  0  0  0  0  0  0
  -19.5735    0.2301   22.1740 H   0  0  0  0  0  0  0  0  0  0  0  0
  -18.1471   -0.7719   17.1811 H   0  0  0  0  0  0  0  0  0  0  0  0
  -17.3371   -1.3743   18.4647 H   0  0  0  0  0  0  0  0  0  0  0  0
  -16.6592    2.3873   19.1492 H   0  0  0  0  0  0  0  0  0  0  0  0
  -19.7573    0.1787   18.5652 H   0  0  0  0  0  0  0  0  0  0  0  0
  -17.8242    1.6496   21.1307 H   0  0  0  0  0  0  0  0  0  0  0  0
  -18.0203   -0.6058   20.7134 H   0  0  0  0  0  0  0  0  0  0  0  0
  1  8  1  0  0  0  0
  2  8  2  0  0  0  0
  3  9  1  0  0  0  0
  4 10  1  0  0  0  0
  5 12  1  0  0  0  0
  6  9  1  0  0  0  0
  6 11  1  0  0  0  0
  7 10  1  0  0  0  0
  7 11  2  0  0  0  0
  8 11  1  0  0  0  0
  9 12  1  0  0  0  0
 10 12  1  0  0  0  0
  1 13  1  0  0  0  0
  3 14  1  0  0  0  0
  4 15  1  0  0  0  0
  5 16  1  0  0  0  0
  6 17  1  0  0  0  0
  6 18  1  0  0  0  0
  7 19  1  0  0  0  0
  9 20  1  0  0  0  0
 10 21  1  0  0  0  0
 12 22  1  0  0  0  0
M  END
> <pdb_id>
4GUJ

> <uniprot_id>
P58687

> <usmiles>
O=C(O)C1=C[C@@H](O)[C@@H](O)[C@H](O)C1

$$$$
SKM_A_501
          07192419173D 1   1.00000     0.00000     0
            
 22 22  0  0  0  0            999 V2000
   55.1819   13.3805   26.2022 O   0  0  0  0  0  0  0  0  0  0  0  0
   56.7956   14.2840   27.3666 O   0  0  0  0  0  0  0  0  0  0  0  0
   58.7233   10.1172   29.8668 O   0  0  0  0  0  0  0  0  0  0  0  0
   55.1032    8.8454   27.8934 O   0  0  0  0  0  0  0  0  0  0  0  0
   56.3631    8.5802   30.3351 O   0  0  0  0  0  0  0  0  0  0  0  0
   57.4480   11.6571   28.4689 C   0  0  0  0  0  0  0  0  0  0  0  0
   55.0426   11.2318   28.0311 C   0  0  0  0  0  0  0  0  0  0  0  0
   56.0750   13.3264   27.0819 C   0  0  0  0  0  0  0  0  0  0  0  0
   57.5860   10.2189   28.9961 C   0  0  2  0  0  0  0  0  0  0  0  0
   55.0895    9.9326   28.8022 C   0  0  2  0  0  0  0  0  0  0  0  0
   56.1987   12.0304   27.8706 C   0  0  0  0  0  0  0  0  0  0  0  0
   56.3071    9.8743   29.7539 C   0  0  1  0  0  0  0  0  0  0  0  0
   54.6224   12.5749   26.0075 H   0  0  0  0  0  0  0  0  0  0  0  0
   58.8028    9.1787   30.2030 H   0  0  0  0  0  0  0  0  0  0  0  0
   55.1342    7.9855   28.4028 H   0  0  0  0  0  0  0  0  0  0  0  0
   55.5083    8.3954   30.8202 H   0  0  0  0  0  0  0  0  0  0  0  0
   58.1611   11.7929   27.7811 H   0  0  0  0  0  0  0  0  0  0  0  0
   57.6064   12.2743   29.2396 H   0  0  0  0  0  0  0  0  0  0  0  0
   54.1786   11.5320   27.6271 H   0  0  0  0  0  0  0  0  0  0  0  0
   57.6975    9.5905   28.2263 H   0  0  0  0  0  0  0  0  0  0  0  0
   54.2583    9.8672   29.3545 H   0  0  0  0  0  0  0  0  0  0  0  0
   56.1761   10.5467   30.4824 H   0  0  0  0  0  0  0  0  0  0  0  0
  1  8  1  0  0  0  0
  2  8  2  0  0  0  0
  3  9  1  0  0  0  0
  4 10  1  0  0  0  0
  5 12  1  0  0  0  0
  6  9  1  0  0  0  0
  6 11  1  0  0  0  0
  7 10  1  0  0  0  0
  7 11  2  0  0  0  0
  8 11  1  0  0  0  0
  9 12  1  0  0  0  0
 10 12  1  0  0  0  0
  1 13  1  0  0  0  0
  3 14  1  0  0  0  0
  4 15  1  0  0  0  0
  5 16  1  0  0  0  0
  6 17  1  0  0  0  0
  6 18  1  0  0  0  0
  7 19  1  0  0  0  0
  9 20  1  0  0  0  0
 10 21  1  0  0  0  0
 12 22  1  0  0  0  0
M  END
> <pdb_id>
2AA9

> <uniprot_id>
P0A6D3

> <usmiles>
O=C(O)C1=C[C@@H](O)[C@@H](O)[C@H](O)C1

$$$$
SKW_A_501
          07202405583D 1   1.00000     0.00000     0
            
 41 43  0  0  0  0            999 V2000
   71.7158   44.6385   -0.0494 Br  0  0  0  0  0  0  0  0  0  0  0  0
   66.0950   47.0587    8.4048 S   0  0  0  0  0  0  0  0  0  0  0  0
   73.3697   47.2468    6.0379 O   0  0  0  0  0  0  0  0  0  0  0  0
   65.4922   48.4347    6.3289 N   0  0  0  0  0  0  0  0  0  0  0  0
   71.1197   46.8720    3.3286 N   0  0  0  0  0  0  0  0  0  0  0  0
   71.1418   47.8112    5.9325 N   0  0  0  0  0  0  0  0  0  0  0  0
   66.8371   49.6160    7.6913 N   0  0  0  0  0  0  0  0  0  0  0  0
   67.3987   51.2751    9.2829 C   0  0  0  0  0  0  0  0  0  0  0  0
   67.0393   47.4537    9.9068 C   0  0  0  0  0  0  0  0  0  0  0  0
   70.9359   46.3269    2.0947 C   0  0  0  0  0  0  0  0  0  0  0  0
   71.5584   49.6041    9.2439 C   0  0  0  0  0  0  0  0  0  0  0  0
   71.9046   48.9183    8.0588 C   0  0  0  0  0  0  0  0  0  0  0  0
   72.9803   45.0479    2.4292 C   0  0  0  0  0  0  0  0  0  0  0  0
   70.2018   49.8847    9.5273 C   0  0  0  0  0  0  0  0  0  0  0  0
   73.1463   45.6232    3.6995 C   0  0  0  0  0  0  0  0  0  0  0  0
   69.5492   48.8079    7.4543 C   0  0  0  0  0  0  0  0  0  0  0  0
   67.1004   48.9812   10.1543 C   0  0  0  0  0  0  0  0  0  0  0  0
   66.1868   48.5265    7.4323 C   0  0  0  0  0  0  0  0  0  0  0  0
   71.8808   45.3973    1.6183 C   0  0  0  0  0  0  0  0  0  0  0  0
   72.2830   47.2438    5.4696 C   0  0  0  0  0  0  0  0  0  0  0  0
   70.8937   48.5114    7.1478 C   0  0  0  0  0  0  0  0  0  0  0  0
   72.1814   46.5598    4.1333 C   0  0  0  0  0  0  0  0  0  0  0  0
   69.1545   49.4925    8.6357 C   0  0  0  0  0  0  0  0  0  0  0  0
   67.6394   49.7756    8.9189 C   0  0  1  0  0  0  0  0  0  0  0  0
   65.4641   49.2038    5.6904 H   0  0  0  0  0  0  0  0  0  0  0  0
   64.9889   47.5954    6.1233 H   0  0  0  0  0  0  0  0  0  0  0  0
   70.3512   47.7245    5.3264 H   0  0  0  0  0  0  0  0  0  0  0  0
   67.9040   51.5013   10.1157 H   0  0  0  0  0  0  0  0  0  0  0  0
   67.7157   51.8553    8.5327 H   0  0  0  0  0  0  0  0  0  0  0  0
   66.4221   51.4290    9.4335 H   0  0  0  0  0  0  0  0  0  0  0  0
   67.9705   47.1034    9.8065 H   0  0  0  0  0  0  0  0  0  0  0  0
   66.6007   47.0148   10.6910 H   0  0  0  0  0  0  0  0  0  0  0  0
   70.1456   46.5815    1.5374 H   0  0  0  0  0  0  0  0  0  0  0  0
   72.2725   49.8911    9.8824 H   0  0  0  0  0  0  0  0  0  0  0  0
   72.8642   48.7186    7.8605 H   0  0  0  0  0  0  0  0  0  0  0  0
   73.6491   44.3833    2.0960 H   0  0  0  0  0  0  0  0  0  0  0  0
   69.9691   50.3687   10.3708 H   0  0  0  0  0  0  0  0  0  0  0  0
   73.9233   45.3775    4.2791 H   0  0  0  0  0  0  0  0  0  0  0  0
   68.8398   48.5228    6.8097 H   0  0  0  0  0  0  0  0  0  0  0  0
   67.7031   49.1546   10.9332 H   0  0  0  0  0  0  0  0  0  0  0  0
   66.1792   49.3074   10.3665 H   0  0  0  0  0  0  0  0  0  0  0  0
  1 19  1  0  0  0  0
  2  9  1  0  0  0  0
  2 18  1  0  0  0  0
  3 20  2  0  0  0  0
  4 18  1  0  0  0  0
  5 10  1  0  0  0  0
  5 22  2  0  0  0  0
  6 20  1  0  0  0  0
  6 21  1  0  0  0  0
  7 18  2  0  0  0  0
  7 24  1  0  0  0  0
  8 24  1  0  0  0  0
  9 17  1  0  0  0  0
 10 19  2  0  0  0  0
 11 12  1  0  0  0  0
 11 14  2  0  0  0  0
 12 21  2  0  0  0  0
 13 15  2  0  0  0  0
 13 19  1  0  0  0  0
 14 23  1  0  0  0  0
 15 22  1  0  0  0  0
 16 21  1  0  0  0  0
 16 23  2  0  0  0  0
 17 24  1  0  0  0  0
 20 22  1  0  0  0  0
 23 24  1  0  0  0  0
  4 25  1  0  0  0  0
  4 26  1  0  0  0  0
  6 27  1  0  0  0  0
  8 28  1  0  0  0  0
  8 29  1  0  0  0  0
  8 30  1  0  0  0  0
  9 31  1  0  0  0  0
  9 32  1  0  0  0  0
 10 33  1  0  0  0  0
 11 34  1  0  0  0  0
 12 35  1  0  0  0  0
 13 36  1  0  0  0  0
 14 37  1  0  0  0  0
 15 38  1  0  0  0  0
 16 39  1  0  0  0  0
 17 40  1  0  0  0  0
 17 41  1  0  0  0  0
M  END
> <pdb_id>
7B1E

> <uniprot_id>
P56817

> <usmiles>
Brc1cnc(cc1)C(=O)Nc2cc(ccc2)[C@]3(N=C(SCC3)N)C

$$$$
SLK_A_501
          07202405583D 1   1.00000     0.00000     0
            
 51 53  0  0  0  0            999 V2000
   69.9142   50.5688   10.8735 F   0  0  0  0  0  0  0  0  0  0  0  0
   64.7571   46.4733   10.3102 F   0  0  0  0  0  0  0  0  0  0  0  0
   64.1206   48.4724    9.6100 F   0  0  0  0  0  0  0  0  0  0  0  0
   63.8918   46.7346    8.2844 F   0  0  0  0  0  0  0  0  0  0  0  0
   73.4027   47.7253    6.1092 O   0  0  0  0  0  0  0  0  0  0  0  0
   67.0182   47.7684    9.7520 O   0  0  0  0  0  0  0  0  0  0  0  0
   71.5246   44.1135   -0.3668 N   0  0  0  0  0  0  0  0  0  0  0  0
   65.4607   48.4712    6.4990 N   0  0  0  0  0  0  0  0  0  0  0  0
   71.1898   47.0162    3.4860 N   0  0  0  0  0  0  0  0  0  0  0  0
   71.1291   47.9189    6.1262 N   0  0  0  0  0  0  0  0  0  0  0  0
   66.8236   49.7384    7.7758 N   0  0  0  0  0  0  0  0  0  0  0  0
   74.2578   45.1003    4.8425 C   0  0  0  0  0  0  0  0  0  0  0  0
   66.6417   46.1711    7.9934 C   0  0  0  0  0  0  0  0  0  0  0  0
   67.3818   51.4890    9.2604 C   0  0  0  0  0  0  0  0  0  0  0  0
   67.1042   49.1252   10.2231 C   0  0  0  0  0  0  0  0  0  0  0  0
   71.6190   44.6602    0.6431 C   0  0  0  0  0  0  0  0  0  0  0  0
   70.9509   46.3999    2.2905 C   0  0  0  0  0  0  0  0  0  0  0  0
   71.5106   49.6277    9.4864 C   0  0  0  0  0  0  0  0  0  0  0  0
   71.8783   48.9601    8.3031 C   0  0  0  0  0  0  0  0  0  0  0  0
   69.5453   48.9602    7.6068 C   0  0  0  0  0  0  0  0  0  0  0  0
   72.8478   44.9601    2.7455 C   0  0  0  0  0  0  0  0  0  0  0  0
   72.3045   47.4912    5.6093 C   0  0  0  0  0  0  0  0  0  0  0  0
   70.1599   49.9539    9.7280 C   0  0  0  0  0  0  0  0  0  0  0  0
   66.1540   48.6423    7.6009 C   0  0  0  0  0  0  0  0  0  0  0  0
   70.8832   48.6141    7.3475 C   0  0  0  0  0  0  0  0  0  0  0  0
   72.2094   46.6715    4.3371 C   0  0  0  0  0  0  0  0  0  0  0  0
   73.0822   45.6026    3.9807 C   0  0  0  0  0  0  0  0  0  0  0  0
   71.7951   45.3453    1.8912 C   0  0  0  0  0  0  0  0  0  0  0  0
   69.1265   49.6318    8.7865 C   0  0  0  0  0  0  0  0  0  0  0  0
   64.6976   47.2996    9.2268 C   0  0  0  0  0  0  0  0  0  0  0  0
   66.1282   47.4989    8.6368 C   0  0  2  0  0  0  0  0  0  0  0  0
   67.6093   49.9697    9.0089 C   0  0  1  0  0  0  0  0  0  0  0  0
   64.9428   47.6272    6.3601 H   0  0  0  0  0  0  0  0  0  0  0  0
   65.4506   49.1850    5.7987 H   0  0  0  0  0  0  0  0  0  0  0  0
   70.3191   47.7196    5.5746 H   0  0  0  0  0  0  0  0  0  0  0  0
   74.3089   45.6394    5.6832 H   0  0  0  0  0  0  0  0  0  0  0  0
   74.1153   44.1375    5.0721 H   0  0  0  0  0  0  0  0  0  0  0  0
   75.1116   45.1983    4.3313 H   0  0  0  0  0  0  0  0  0  0  0  0
   66.0629   45.9330    7.2136 H   0  0  0  0  0  0  0  0  0  0  0  0
   67.5846   46.2937    7.6836 H   0  0  0  0  0  0  0  0  0  0  0  0
   66.6064   45.4368    8.6713 H   0  0  0  0  0  0  0  0  0  0  0  0
   67.8745   51.7678   10.0848 H   0  0  0  0  0  0  0  0  0  0  0  0
   67.7203   52.0109    8.4774 H   0  0  0  0  0  0  0  0  0  0  0  0
   66.4047   51.6644    9.3807 H   0  0  0  0  0  0  0  0  0  0  0  0
   67.7502   49.1889   10.9837 H   0  0  0  0  0  0  0  0  0  0  0  0
   66.2057   49.4474   10.5210 H   0  0  0  0  0  0  0  0  0  0  0  0
   70.1911   46.6920    1.7097 H   0  0  0  0  0  0  0  0  0  0  0  0
   72.2098   49.8716   10.1584 H   0  0  0  0  0  0  0  0  0  0  0  0
   72.8367   48.7297    8.1347 H   0  0  0  0  0  0  0  0  0  0  0  0
   68.8530   48.7214    6.9258 H   0  0  0  0  0  0  0  0  0  0  0  0
   73.4469   44.2090    2.4684 H   0  0  0  0  0  0  0  0  0  0  0  0
  1 23  1  0  0  0  0
  2 30  1  0  0  0  0
  3 30  1  0  0  0  0
  4 30  1  0  0  0  0
  5 22  2  0  0  0  0
  6 15  1  0  0  0  0
  6 31  1  0  0  0  0
  7 16  3  0  0  0  0
  8 24  1  0  0  0  0
  9 17  1  0  0  0  0
  9 26  2  0  0  0  0
 10 22  1  0  0  0  0
 10 25  1  0  0  0  0
 11 24  2  0  0  0  0
 11 32  1  0  0  0  0
 12 27  1  0  0  0  0
 13 31  1  0  0  0  0
 14 32  1  0  0  0  0
 15 32  1  0  0  0  0
 16 28  1  0  0  0  0
 17 28  2  0  0  0  0
 18 19  1  0  0  0  0
 18 23  2  0  0  0  0
 19 25  2  0  0  0  0
 20 25  1  0  0  0  0
 20 29  2  0  0  0  0
 21 27  2  0  0  0  0
 21 28  1  0  0  0  0
 22 26  1  0  0  0  0
 23 29  1  0  0  0  0
 24 31  1  0  0  0  0
 26 27  1  0  0  0  0
 29 32  1  0  0  0  0
 30 31  1  0  0  0  0
  8 33  1  0  0  0  0
  8 34  1  0  0  0  0
 10 35  1  0  0  0  0
 12 36  1  0  0  0  0
 12 37  1  0  0  0  0
 12 38  1  0  0  0  0
 13 39  1  0  0  0  0
 13 40  1  0  0  0  0
 13 41  1  0  0  0  0
 14 42  1  0  0  0  0
 14 43  1  0  0  0  0
 14 44  1  0  0  0  0
 15 45  1  0  0  0  0
 15 46  1  0  0  0  0
 17 47  1  0  0  0  0
 18 48  1  0  0  0  0
 19 49  1  0  0  0  0
 20 50  1  0  0  0  0
 21 51  1  0  0  0  0
M  END
> <pdb_id>
7B1Q

> <uniprot_id>
P56817

> <usmiles>
Fc1c(cc(NC(=O)c2ncc(C#N)cc2C)cc1)[C@]3(N=C(N)[C@@](OC3)(C(F)(F)F)C)C

$$$$
SMS_A_301
          07192416293D 1   1.00000     0.00000     0
            
 37 39  0  0  0  0            999 V2000
   -2.4554    6.5399   14.5337 S   0  0  0  0  0  0  0  0  0  0  0  0
   -5.8189    1.0406   16.7423 S   0  0  0  0  0  0  0  0  0  0  0  0
   -1.1508    6.9928   14.4684 O   0  0  0  0  0  0  0  0  0  0  0  0
   -3.2674    7.1393   15.5261 O   0  0  0  0  0  0  0  0  0  0  0  0
   -7.2103    1.1665   16.8170 O   0  0  0  0  0  0  0  0  0  0  0  0
   -5.0804    1.4798   17.8400 O   0  0  0  0  0  0  0  0  0  0  0  0
   -5.3288    1.6969   15.4007 O   0  0  0  0  0  0  0  0  0  0  0  0
   -3.0929    6.7318   13.1665 O   0  0  0  0  0  0  0  0  0  0  0  0
   -2.5337    4.9738   14.6261 O   0  0  0  0  0  0  0  0  0  0  0  0
   -5.3750    4.7632   13.5650 O   0  0  0  0  0  0  0  0  0  0  0  0
   -3.5340    2.5115   12.1602 O   0  0  0  0  0  0  0  0  0  0  0  0
   -5.6932    2.5595   12.8299 O   0  0  0  0  0  0  0  0  0  0  0  0
   -5.3914   -0.4553   16.5256 N   0  0  0  0  0  0  0  0  0  0  0  0
   -4.6284    0.3445   12.5110 C   0  0  0  0  0  0  0  0  0  0  0  0
   -5.1568    1.8382   10.5696 C   0  0  0  0  0  0  0  0  0  0  0  0
   -4.8387    5.3607   12.3445 C   0  0  0  0  0  0  0  0  0  0  0  0
   -5.5761    3.1070   15.1615 C   0  0  0  0  0  0  0  0  0  0  0  0
   -3.3421    5.5124   12.4605 C   0  0  2  0  0  0  0  0  0  0  0  0
   -2.6848    4.3782   13.3426 C   0  0  2  0  0  0  0  0  0  0  0  0
   -3.5219    3.0917   13.4517 C   0  0  1  0  0  0  0  0  0  0  0  0
   -4.7498    1.7837   12.0207 C   0  0  0  0  0  0  0  0  0  0  0  0
   -5.0288    3.3894   13.7523 C   0  0  2  0  0  0  0  0  0  0  0  0
   -4.3943   -0.5132   16.4764 H   0  0  0  0  0  0  0  0  0  0  0  0
   -5.7201   -1.0100   17.2900 H   0  0  0  0  0  0  0  0  0  0  0  0
   -5.5045   -0.1230   12.3926 H   0  0  0  0  0  0  0  0  0  0  0  0
   -3.9237   -0.1293   11.9829 H   0  0  0  0  0  0  0  0  0  0  0  0
   -4.3776    0.3421   13.4790 H   0  0  0  0  0  0  0  0  0  0  0  0
   -6.0106    1.3330   10.4437 H   0  0  0  0  0  0  0  0  0  0  0  0
   -5.2898    2.7908   10.2963 H   0  0  0  0  0  0  0  0  0  0  0  0
   -4.4400    1.4268   10.0067 H   0  0  0  0  0  0  0  0  0  0  0  0
   -5.2532    6.2602   12.2061 H   0  0  0  0  0  0  0  0  0  0  0  0
   -5.0527    4.7716   11.5654 H   0  0  0  0  0  0  0  0  0  0  0  0
   -5.0983    3.6652   15.8398 H   0  0  0  0  0  0  0  0  0  0  0  0
   -6.5563    3.3011   15.2007 H   0  0  0  0  0  0  0  0  0  0  0  0
   -2.9211    5.5398   11.5539 H   0  0  0  0  0  0  0  0  0  0  0  0
   -1.7824    4.1546   12.9741 H   0  0  0  0  0  0  0  0  0  0  0  0
   -3.1349    2.4640   14.1271 H   0  0  0  0  0  0  0  0  0  0  0  0
  1  3  2  0  0  0  0
  1  4  2  0  0  0  0
  1  8  1  0  0  0  0
  1  9  1  0  0  0  0
  2  5  2  0  0  0  0
  2  6  2  0  0  0  0
  2  7  1  0  0  0  0
  2 13  1  0  0  0  0
  7 17  1  0  0  0  0
  8 18  1  0  0  0  0
  9 19  1  0  0  0  0
 10 16  1  0  0  0  0
 10 22  1  0  0  0  0
 11 20  1  0  0  0  0
 11 21  1  0  0  0  0
 12 21  1  0  0  0  0
 12 22  1  0  0  0  0
 14 21  1  0  0  0  0
 15 21  1  0  0  0  0
 16 18  1  0  0  0  0
 17 22  1  0  0  0  0
 18 19  1  0  0  0  0
 19 20  1  0  0  0  0
 20 22  1  0  0  0  0
 13 23  1  0  0  0  0
 13 24  1  0  0  0  0
 14 25  1  0  0  0  0
 14 26  1  0  0  0  0
 14 27  1  0  0  0  0
 15 28  1  0  0  0  0
 15 29  1  0  0  0  0
 15 30  1  0  0  0  0
 16 31  1  0  0  0  0
 16 32  1  0  0  0  0
 17 33  1  0  0  0  0
 17 34  1  0  0  0  0
 18 35  1  0  0  0  0
 19 36  1  0  0  0  0
 20 37  1  0  0  0  0
M  END
> <pdb_id>
1EOU

> <uniprot_id>
P00918

> <usmiles>
S1(=O)(=O)O[C@H]2[C@@H](O1)[C@@H]3OC(O[C@@]3(OC2)COS(=O)(=O)N)(C)C

$$$$
SNH_B_3001
          07202412553D 1   1.00000     0.00000     0
            
 45 47  0  0  0  0            999 V2000
   40.4333   11.8447   59.1114 S   0  0  0  0  0  0  0  0  0  0  0  0
   43.7211   14.3552   57.8189 S   0  0  0  0  0  0  0  0  0  0  0  0
   41.8476   12.4898   53.2751 S   0  0  0  0  0  0  0  0  0  0  0  0
   42.1903   12.5245   51.8678 O   0  0  0  0  0  0  0  0  0  0  0  0
   41.4262   11.1793   53.7364 O   0  0  0  0  0  0  0  0  0  0  0  0
   45.5196   16.0047   56.0117 O   0  0  0  0  0  0  0  0  0  0  0  0
   45.0079   15.0185   54.1250 O   0  0  0  0  0  0  0  0  0  0  0  0
   38.3996   10.5511   61.0775 O   0  0  0  0  0  0  0  0  0  0  0  0
   43.1854   12.9156   54.1918 N   0  0  0  0  0  0  0  0  0  0  0  0
   39.5895   10.8255   63.1200 C   0  0  0  0  0  0  0  0  0  0  0  0
   37.1960   16.4028   54.3650 C   0  0  0  0  0  0  0  0  0  0  0  0
   41.7554   15.6389   52.3273 C   0  0  0  0  0  0  0  0  0  0  0  0
   42.5058   12.6775   60.3166 C   0  0  0  0  0  0  0  0  0  0  0  0
   41.6796   12.1255   61.3193 C   0  0  0  0  0  0  0  0  0  0  0  0
   39.3783   13.2491   54.2637 C   0  0  0  0  0  0  0  0  0  0  0  0
   38.2998   14.1207   54.5317 C   0  0  0  0  0  0  0  0  0  0  0  0
   42.4188   12.5864   56.5599 C   0  0  0  0  0  0  0  0  0  0  0  0
   39.4787   15.9137   53.3773 C   0  0  0  0  0  0  0  0  0  0  0  0
   44.8874   15.1456   55.3620 C   0  0  0  0  0  0  0  0  0  0  0  0
   41.9586   12.5963   59.0565 C   0  0  0  0  0  0  0  0  0  0  0  0
   42.6041   13.0821   57.8272 C   0  0  0  0  0  0  0  0  0  0  0  0
   40.4976   11.6224   60.8092 C   0  0  0  0  0  0  0  0  0  0  0  0
   43.9653   14.2592   56.1019 C   0  0  0  0  0  0  0  0  0  0  0  0
   40.5276   13.6933   53.5477 C   0  0  0  0  0  0  0  0  0  0  0  0
   39.4194   10.9716   61.6127 C   0  0  0  0  0  0  0  0  0  0  0  0
   43.1929   13.2455   55.5515 C   0  0  0  0  0  0  0  0  0  0  0  0
   38.3356   15.4662   54.0907 C   0  0  0  0  0  0  0  0  0  0  0  0
   40.5867   15.0548   53.0917 C   0  0  0  0  0  0  0  0  0  0  0  0
   45.3954   16.0745   57.0015 H   0  0  0  0  0  0  0  0  0  0  0  0
   44.0665   12.9358   53.7192 H   0  0  0  0  0  0  0  0  0  0  0  0
   40.4678   11.2159   63.3957 H   0  0  0  0  0  0  0  0  0  0  0  0
   38.8488   11.3081   63.5874 H   0  0  0  0  0  0  0  0  0  0  0  0
   39.5635    9.8565   63.3660 H   0  0  0  0  0  0  0  0  0  0  0  0
   37.4030   17.3018   53.9790 H   0  0  0  0  0  0  0  0  0  0  0  0
   36.3617   16.0443   53.9463 H   0  0  0  0  0  0  0  0  0  0  0  0
   37.0638   16.4866   55.3527 H   0  0  0  0  0  0  0  0  0  0  0  0
   42.4540   14.9352   52.1976 H   0  0  0  0  0  0  0  0  0  0  0  0
   41.4411   15.9648   51.4357 H   0  0  0  0  0  0  0  0  0  0  0  0
   42.1432   16.4024   52.8436 H   0  0  0  0  0  0  0  0  0  0  0  0
   43.3991   13.0864   60.5032 H   0  0  0  0  0  0  0  0  0  0  0  0
   41.9220   12.1012   62.2891 H   0  0  0  0  0  0  0  0  0  0  0  0
   39.3346   12.3022   54.5825 H   0  0  0  0  0  0  0  0  0  0  0  0
   37.5046   13.7852   55.0368 H   0  0  0  0  0  0  0  0  0  0  0  0
   41.7965   11.8300   56.3585 H   0  0  0  0  0  0  0  0  0  0  0  0
   39.5104   16.8627   53.0635 H   0  0  0  0  0  0  0  0  0  0  0  0
  1 20  1  0  0  0  0
  1 22  1  0  0  0  0
  2 21  1  0  0  0  0
  2 23  1  0  0  0  0
  3  4  2  0  0  0  0
  3  5  2  0  0  0  0
  3  9  1  0  0  0  0
  3 24  1  0  0  0  0
  6 19  1  0  0  0  0
  7 19  2  0  0  0  0
  8 25  2  0  0  0  0
  9 26  1  0  0  0  0
 10 25  1  0  0  0  0
 11 27  1  0  0  0  0
 12 28  1  0  0  0  0
 13 14  1  0  0  0  0
 13 20  2  0  0  0  0
 14 22  2  0  0  0  0
 15 16  1  0  0  0  0
 15 24  2  0  0  0  0
 16 27  2  0  0  0  0
 17 21  2  0  0  0  0
 17 26  1  0  0  0  0
 18 27  1  0  0  0  0
 18 28  2  0  0  0  0
 19 23  1  0  0  0  0
 20 21  1  0  0  0  0
 22 25  1  0  0  0  0
 23 26  2  0  0  0  0
 24 28  1  0  0  0  0
  6 29  1  0  0  0  0
  9 30  1  0  0  0  0
 10 31  1  0  0  0  0
 10 32  1  0  0  0  0
 10 33  1  0  0  0  0
 11 34  1  0  0  0  0
 11 35  1  0  0  0  0
 11 36  1  0  0  0  0
 12 37  1  0  0  0  0
 12 38  1  0  0  0  0
 12 39  1  0  0  0  0
 13 40  1  0  0  0  0
 14 41  1  0  0  0  0
 15 42  1  0  0  0  0
 16 43  1  0  0  0  0
 17 44  1  0  0  0  0
 18 45  1  0  0  0  0
M  END
> <pdb_id>
2D41

> <uniprot_id>
Q99AU2

> <usmiles>
S(=O)(=O)(NC1=C(SC(C=2SC(C(=O)C)=CC2)=C1)C(=O)O)c3c(cc(cc3)C)C

$$$$
SPV_A_705
          07212403223D 1   1.00000     0.00000     0
            
 14 13  0  0  0  0            999 V2000
    1.6456   -5.0704    7.8800 S   0  0  0  0  0  0  0  0  0  0  0  0
    2.3277   -6.3162    7.8687 O   0  0  0  0  0  0  0  0  0  0  0  0
    0.4849   -5.1054    6.9974 O   0  0  0  0  0  0  0  0  0  0  0  0
    2.6462   -3.8867    7.4739 O   0  0  0  0  0  0  0  0  0  0  0  0
    0.9598   -1.0420   10.5603 O   0  0  0  0  0  0  0  0  0  0  0  0
    2.5988   -2.5457   10.3696 O   0  0  0  0  0  0  0  0  0  0  0  0
   -0.7177   -3.0854    9.7353 O   0  0  0  0  0  0  0  0  0  0  0  0
    1.0386   -4.7455    9.4295 C   0  0  0  0  0  0  0  0  0  0  0  0
    1.3863   -2.2392   10.2474 C   0  0  0  0  0  0  0  0  0  0  0  0
    0.5038   -3.3290    9.7831 C   0  0  0  0  0  0  0  0  0  0  0  0
    3.1181   -6.2690    8.4795 H   0  0  0  0  0  0  0  0  0  0  0  0
   -0.0083   -0.8134   10.4575 H   0  0  0  0  0  0  0  0  0  0  0  0
    1.7771   -4.9427   10.0743 H   0  0  0  0  0  0  0  0  0  0  0  0
    0.2839   -5.3836    9.5818 H   0  0  0  0  0  0  0  0  0  0  0  0
  1  2  1  0  0  0  0
  1  3  2  0  0  0  0
  1  4  2  0  0  0  0
  1  8  1  0  0  0  0
  5  9  1  0  0  0  0
  6  9  2  0  0  0  0
  7 10  2  0  0  0  0
  8 10  1  0  0  0  0
  9 10  1  0  0  0  0
  2 11  1  0  0  0  0
  5 12  1  0  0  0  0
  8 13  1  0  0  0  0
  8 14  1  0  0  0  0
M  END
> <pdb_id>
5FH4

> <uniprot_id>
P07379

> <usmiles>
S(=O)(=O)(O)CC(=O)C(=O)O

$$$$
SQH_A_501
          07202411433D 1   1.00000     0.00000     0
            
 31 33  0  0  0  0            999 V2000
   13.9979   19.3609   21.7128 O   0  0  0  0  0  0  0  0  0  0  0  0
   10.8068   10.3115   16.9884 O   0  0  0  0  0  0  0  0  0  0  0  0
   16.5861   18.6638   20.7503 O   0  0  0  0  0  0  0  0  0  0  0  0
   16.8734   12.6748   16.7895 O   0  0  0  0  0  0  0  0  0  0  0  0
   10.9869   12.7389   18.4389 O   0  0  0  0  0  0  0  0  0  0  0  0
   13.4647   14.0340   18.5658 O   0  0  0  0  0  0  0  0  0  0  0  0
   13.0817   17.4270   20.6934 C   0  0  0  0  0  0  0  0  0  0  0  0
   13.1574   10.4392   16.4345 C   0  0  0  0  0  0  0  0  0  0  0  0
   13.2906   16.2785   19.9393 C   0  0  0  0  0  0  0  0  0  0  0  0
   14.4028   11.0968   16.4953 C   0  0  0  0  0  0  0  0  0  0  0  0
   15.8210   14.2577   18.0613 C   0  0  0  0  0  0  0  0  0  0  0  0
   15.6774   16.7235   19.7210 C   0  0  0  0  0  0  0  0  0  0  0  0
   14.1691   18.2329   20.9806 C   0  0  0  0  0  0  0  0  0  0  0  0
   12.0044   10.9402   17.0529 C   0  0  0  0  0  0  0  0  0  0  0  0
   15.5162   17.8719   20.4758 C   0  0  0  0  0  0  0  0  0  0  0  0
   15.8174   13.0716   17.3251 C   0  0  0  0  0  0  0  0  0  0  0  0
   12.0695   12.2028   17.8115 C   0  0  0  0  0  0  0  0  0  0  0  0
   14.6450   14.7037   18.6667 C   0  0  0  0  0  0  0  0  0  0  0  0
   13.3678   12.8817   17.8746 C   0  0  0  0  0  0  0  0  0  0  0  0
   14.5558   15.9435   19.4605 C   0  0  0  0  0  0  0  0  0  0  0  0
   14.5428   12.3016   17.2014 C   0  0  0  0  0  0  0  0  0  0  0  0
   14.7821   19.9451   21.9218 H   0  0  0  0  0  0  0  0  0  0  0  0
   10.0097   10.7061   17.4455 H   0  0  0  0  0  0  0  0  0  0  0  0
   16.4672   19.4933   21.2960 H   0  0  0  0  0  0  0  0  0  0  0  0
   11.0757   13.5981   18.9428 H   0  0  0  0  0  0  0  0  0  0  0  0
   12.1673   17.6653   21.0206 H   0  0  0  0  0  0  0  0  0  0  0  0
   13.0942    9.5789   15.9287 H   0  0  0  0  0  0  0  0  0  0  0  0
   12.5162   15.6794   19.7359 H   0  0  0  0  0  0  0  0  0  0  0  0
   15.1947   10.7007   16.0305 H   0  0  0  0  0  0  0  0  0  0  0  0
   16.6644   14.7868   18.1547 H   0  0  0  0  0  0  0  0  0  0  0  0
   16.5770   16.4612   19.3718 H   0  0  0  0  0  0  0  0  0  0  0  0
  1 13  1  0  0  0  0
  2 14  1  0  0  0  0
  3 15  1  0  0  0  0
  4 16  2  0  0  0  0
  5 17  1  0  0  0  0
  6 18  1  0  0  0  0
  6 19  1  0  0  0  0
  7  9  1  0  0  0  0
  7 13  2  0  0  0  0
  8 10  1  0  0  0  0
  8 14  2  0  0  0  0
  9 20  2  0  0  0  0
 10 21  2  0  0  0  0
 11 16  1  0  0  0  0
 11 18  2  0  0  0  0
 12 15  2  0  0  0  0
 12 20  1  0  0  0  0
 13 15  1  0  0  0  0
 14 17  1  0  0  0  0
 16 21  1  0  0  0  0
 17 19  2  0  0  0  0
 18 20  1  0  0  0  0
 19 21  1  0  0  0  0
  1 22  1  0  0  0  0
  2 23  1  0  0  0  0
  3 24  1  0  0  0  0
  5 25  1  0  0  0  0
  7 26  1  0  0  0  0
  8 27  1  0  0  0  0
  9 28  1  0  0  0  0
 10 29  1  0  0  0  0
 11 30  1  0  0  0  0
 12 31  1  0  0  0  0
M  END
> <pdb_id>
7C6P

> <uniprot_id>
O60885

> <usmiles>
O=C1c2c(OC(c3cc(O)c(O)cc3)=C1)c(O)c(O)cc2

$$$$
SQO_A_405
          07202407253D 1   1.00000     0.00000     0
            
 41 44  0  0  0  0            999 V2000
  103.8576   16.9854   24.1342 O   0  0  0  0  0  0  0  0  0  0  0  0
  100.9770   18.5556   10.5001 O   0  0  0  0  0  0  0  0  0  0  0  0
  101.7432   16.2693   24.5242 N   0  0  0  0  0  0  0  0  0  0  0  0
  100.1836   15.8277   22.7997 N   0  0  0  0  0  0  0  0  0  0  0  0
  103.1887   17.4736   16.5493 N   0  0  0  0  0  0  0  0  0  0  0  0
  101.6390   16.7433   18.1821 N   0  0  0  0  0  0  0  0  0  0  0  0
  103.7235   17.2636   18.8124 N   0  0  0  0  0  0  0  0  0  0  0  0
  101.9737   17.6418   13.0119 N   0  0  0  0  0  0  0  0  0  0  0  0
  100.5031   15.8898   24.0906 C   0  0  0  0  0  0  0  0  0  0  0  0
  101.5673   17.2683   10.6432 C   0  0  0  0  0  0  0  0  0  0  0  0
  100.3699   18.9510   11.7280 C   0  0  0  0  0  0  0  0  0  0  0  0
  102.2535   17.4102   15.4376 C   0  0  0  0  0  0  0  0  0  0  0  0
  102.5928   17.2501   11.7457 C   0  0  0  0  0  0  0  0  0  0  0  0
  101.3669   18.9669   12.8588 C   0  0  0  0  0  0  0  0  0  0  0  0
  102.9392   17.6193   14.1149 C   0  0  0  0  0  0  0  0  0  0  0  0
  100.8169   16.1757   20.5124 C   0  0  0  0  0  0  0  0  0  0  0  0
  103.4053   16.8835   21.2974 C   0  0  0  0  0  0  0  0  0  0  0  0
  102.8339   17.1616   17.8010 C   0  0  0  0  0  0  0  0  0  0  0  0
  102.7773   16.6106   23.6897 C   0  0  0  0  0  0  0  0  0  0  0  0
  101.1654   16.1657   21.8705 C   0  0  0  0  0  0  0  0  0  0  0  0
  101.7628   16.5643   19.5596 C   0  0  0  0  0  0  0  0  0  0  0  0
  103.0544   16.8998   19.9643 C   0  0  0  0  0  0  0  0  0  0  0  0
  102.4624   16.5400   22.2607 C   0  0  0  0  0  0  0  0  0  0  0  0
  101.9064   16.2999   25.5103 H   0  0  0  0  0  0  0  0  0  0  0  0
  104.1301   17.7605   16.3721 H   0  0  0  0  0  0  0  0  0  0  0  0
  100.8313   16.5904   17.6128 H   0  0  0  0  0  0  0  0  0  0  0  0
   99.8093   15.6495   24.7695 H   0  0  0  0  0  0  0  0  0  0  0  0
  102.0108   17.0169    9.7829 H   0  0  0  0  0  0  0  0  0  0  0  0
  100.8505   16.6040   10.8553 H   0  0  0  0  0  0  0  0  0  0  0  0
   99.6374   18.3076   11.9500 H   0  0  0  0  0  0  0  0  0  0  0  0
   99.9866   19.8683   11.6201 H   0  0  0  0  0  0  0  0  0  0  0  0
  101.5597   18.1203   15.5578 H   0  0  0  0  0  0  0  0  0  0  0  0
  101.8141   16.5119   15.4355 H   0  0  0  0  0  0  0  0  0  0  0  0
  102.9692   16.3277   11.8326 H   0  0  0  0  0  0  0  0  0  0  0  0
  103.3281   17.8907   11.5245 H   0  0  0  0  0  0  0  0  0  0  0  0
  102.0818   19.6374   12.6604 H   0  0  0  0  0  0  0  0  0  0  0  0
  100.9010   19.2177   13.7074 H   0  0  0  0  0  0  0  0  0  0  0  0
  103.4296   18.4905   14.1364 H   0  0  0  0  0  0  0  0  0  0  0  0
  103.5891   16.8745   13.9637 H   0  0  0  0  0  0  0  0  0  0  0  0
   99.8970   15.9065   20.2272 H   0  0  0  0  0  0  0  0  0  0  0  0
  104.3378   17.1185   21.5719 H   0  0  0  0  0  0  0  0  0  0  0  0
  1 19  2  0  0  0  0
  2 10  1  0  0  0  0
  2 11  1  0  0  0  0
  3  9  1  0  0  0  0
  3 19  1  0  0  0  0
  4  9  2  0  0  0  0
  4 20  1  0  0  0  0
  5 12  1  0  0  0  0
  5 18  1  0  0  0  0
  6 18  1  0  0  0  0
  6 21  1  0  0  0  0
  7 18  2  0  0  0  0
  7 22  1  0  0  0  0
  8 13  1  0  0  0  0
  8 14  1  0  0  0  0
  8 15  1  0  0  0  0
 10 13  1  0  0  0  0
 11 14  1  0  0  0  0
 12 15  1  0  0  0  0
 16 20  2  0  0  0  0
 16 21  1  0  0  0  0
 17 22  1  0  0  0  0
 17 23  2  0  0  0  0
 19 23  1  0  0  0  0
 20 23  1  0  0  0  0
 21 22  2  0  0  0  0
  3 24  1  0  0  0  0
  5 25  1  0  0  0  0
  6 26  1  0  0  0  0
  9 27  1  0  0  0  0
 10 28  1  0  0  0  0
 10 29  1  0  0  0  0
 11 30  1  0  0  0  0
 11 31  1  0  0  0  0
 12 32  1  0  0  0  0
 12 33  1  0  0  0  0
 13 34  1  0  0  0  0
 13 35  1  0  0  0  0
 14 36  1  0  0  0  0
 14 37  1  0  0  0  0
 15 38  1  0  0  0  0
 15 39  1  0  0  0  0
 16 40  1  0  0  0  0
 17 41  1  0  0  0  0
M  END
> <pdb_id>
4Q4R

> <uniprot_id>
P28720

> <usmiles>
O=C1NC=Nc2c1cc3N=C(Nc3c2)NCCN4CCOCC4

$$$$
SRK_A_508
          07202416263D 1   1.00000     0.00000     0
            
 29 30  0  0  0  0            999 V2000
   22.6999   68.5751   73.9323 O   0  0  0  0  0  0  0  0  0  0  0  0
   22.6024   70.5495   72.9373 O   0  0  0  0  0  0  0  0  0  0  0  0
   25.4732   69.2310   72.3806 O   0  0  0  0  0  0  0  0  0  0  0  0
   26.4819   67.2379   71.8501 N   0  0  0  0  0  0  0  0  0  0  0  0
   26.3397   65.8891   71.3332 C   0  0  0  0  0  0  0  0  0  0  0  0
   29.8368   68.2246   73.4640 C   0  0  0  0  0  0  0  0  0  0  0  0
   30.5625   67.1003   73.0826 C   0  0  0  0  0  0  0  0  0  0  0  0
   27.7232   65.3435   71.1494 C   0  0  0  0  0  0  0  0  0  0  0  0
   28.5065   68.3717   73.1141 C   0  0  0  0  0  0  0  0  0  0  0  0
   22.8103   68.5865   71.5416 C   0  0  0  0  0  0  0  0  0  0  0  0
   29.9664   66.1155   72.3052 C   0  0  0  0  0  0  0  0  0  0  0  0
   24.0032   67.6332   71.4194 C   0  0  0  0  0  0  0  0  0  0  0  0
   22.6982   69.2856   72.8779 C   0  0  0  0  0  0  0  0  0  0  0  0
   25.3476   68.1393   71.9414 C   0  0  0  0  0  0  0  0  0  0  0  0
   27.8914   67.3931   72.3239 C   0  0  0  0  0  0  0  0  0  0  0  0
   28.6281   66.2626   71.9583 C   0  0  0  0  0  0  0  0  0  0  0  0
   22.7763   67.5803   73.8647 H   0  0  0  0  0  0  0  0  0  0  0  0
   25.8578   65.9059   70.4571 H   0  0  0  0  0  0  0  0  0  0  0  0
   25.8310   65.3240   71.9827 H   0  0  0  0  0  0  0  0  0  0  0  0
   30.2851   68.9394   74.0008 H   0  0  0  0  0  0  0  0  0  0  0  0
   31.5154   67.0010   73.3689 H   0  0  0  0  0  0  0  0  0  0  0  0
   27.9808   65.3601   70.1832 H   0  0  0  0  0  0  0  0  0  0  0  0
   27.7786   64.4061   71.4931 H   0  0  0  0  0  0  0  0  0  0  0  0
   27.9888   69.1697   73.4228 H   0  0  0  0  0  0  0  0  0  0  0  0
   21.9734   68.0596   71.3939 H   0  0  0  0  0  0  0  0  0  0  0  0
   22.8946   69.2845   70.8304 H   0  0  0  0  0  0  0  0  0  0  0  0
   30.4884   65.3184   72.0017 H   0  0  0  0  0  0  0  0  0  0  0  0
   24.1179   67.4151   70.4503 H   0  0  0  0  0  0  0  0  0  0  0  0
   23.7773   66.8000   71.9241 H   0  0  0  0  0  0  0  0  0  0  0  0
  1 13  1  0  0  0  0
  2 13  2  0  0  0  0
  3 14  2  0  0  0  0
  4  5  1  0  0  0  0
  4 14  1  0  0  0  0
  4 15  1  0  0  0  0
  5  8  1  0  0  0  0
  6  7  2  0  0  0  0
  6  9  1  0  0  0  0
  7 11  1  0  0  0  0
  8 16  1  0  0  0  0
  9 15  2  0  0  0  0
 10 12  1  0  0  0  0
 10 13  1  0  0  0  0
 11 16  2  0  0  0  0
 12 14  1  0  0  0  0
 15 16  1  0  0  0  0
  1 17  1  0  0  0  0
  5 18  1  0  0  0  0
  5 19  1  0  0  0  0
  6 20  1  0  0  0  0
  7 21  1  0  0  0  0
  8 22  1  0  0  0  0
  8 23  1  0  0  0  0
  9 24  1  0  0  0  0
 10 25  1  0  0  0  0
 10 26  1  0  0  0  0
 11 27  1  0  0  0  0
 12 28  1  0  0  0  0
 12 29  1  0  0  0  0
M  END
> <pdb_id>
7B37

> <uniprot_id>
Q6P988

> <usmiles>
O=C(O)CCC(=O)N1c2c(cccc2)CC1

$$$$
SS9_B_502
          07212403273D 1   1.00000     0.00000     0
            
 31 30  0  0  0  0            999 V2000
   25.7361   35.7923   74.1134 S   0  0  0  0  0  0  0  0  0  0  0  0
   34.8714   31.8238   69.1098 N   0  0  0  0  0  0  0  0  0  0  0  0
   32.0532   34.4549   70.8283 N   0  0  0  0  0  0  0  0  0  0  0  0
   27.1734   36.1337   73.0764 C   0  0  0  0  0  0  0  0  0  0  0  0
   34.6773   33.1378   69.7236 C   0  0  0  0  0  0  0  0  0  0  0  0
   33.3526   34.3219   71.4766 C   0  0  0  0  0  0  0  0  0  0  0  0
   31.4718   35.7523   71.1731 C   0  0  0  0  0  0  0  0  0  0  0  0
   28.4097   35.3410   73.4728 C   0  0  0  0  0  0  0  0  0  0  0  0
   33.9816   32.9822   71.0823 C   0  0  0  0  0  0  0  0  0  0  0  0
   30.6992   35.6158   72.4896 C   0  0  0  0  0  0  0  0  0  0  0  0
   29.2450   35.3030   72.1818 C   0  0  0  0  0  0  0  0  0  0  0  0
   24.9616   36.3426   73.8013 H   0  0  0  0  0  0  0  0  0  0  0  0
   35.3249   31.9328   68.2252 H   0  0  0  0  0  0  0  0  0  0  0  0
   35.4385   31.2571   69.7076 H   0  0  0  0  0  0  0  0  0  0  0  0
   31.4473   33.7235   71.1412 H   0  0  0  0  0  0  0  0  0  0  0  0
   27.3874   37.1083   73.1430 H   0  0  0  0  0  0  0  0  0  0  0  0
   26.9420   35.9072   72.1303 H   0  0  0  0  0  0  0  0  0  0  0  0
   34.1109   33.7033   69.1240 H   0  0  0  0  0  0  0  0  0  0  0  0
   35.5660   33.5771   69.8545 H   0  0  0  0  0  0  0  0  0  0  0  0
   33.2356   34.3566   72.4691 H   0  0  0  0  0  0  0  0  0  0  0  0
   33.9493   35.0696   71.1850 H   0  0  0  0  0  0  0  0  0  0  0  0
   30.8492   36.0447   70.4473 H   0  0  0  0  0  0  0  0  0  0  0  0
   32.2003   36.4289   71.2801 H   0  0  0  0  0  0  0  0  0  0  0  0
   28.1628   34.4172   73.7655 H   0  0  0  0  0  0  0  0  0  0  0  0
   28.9085   35.8012   74.2072 H   0  0  0  0  0  0  0  0  0  0  0  0
   34.6518   32.7103   71.7729 H   0  0  0  0  0  0  0  0  0  0  0  0
   33.2690   32.2838   71.0161 H   0  0  0  0  0  0  0  0  0  0  0  0
   30.7562   36.4728   73.0018 H   0  0  0  0  0  0  0  0  0  0  0  0
   31.0931   34.8752   73.0339 H   0  0  0  0  0  0  0  0  0  0  0  0
   28.8900   35.9813   71.5384 H   0  0  0  0  0  0  0  0  0  0  0  0
   29.1820   34.3920   71.7742 H   0  0  0  0  0  0  0  0  0  0  0  0
  1  4  1  0  0  0  0
  2  5  1  0  0  0  0
  3  6  1  0  0  0  0
  3  7  1  0  0  0  0
  4  8  1  0  0  0  0
  5  9  1  0  0  0  0
  6  9  1  0  0  0  0
  7 10  1  0  0  0  0
  8 11  1  0  0  0  0
 10 11  1  0  0  0  0
  1 12  1  0  0  0  0
  2 13  1  0  0  0  0
  2 14  1  0  0  0  0
  3 15  1  0  0  0  0
  4 16  1  0  0  0  0
  4 17  1  0  0  0  0
  5 18  1  0  0  0  0
  5 19  1  0  0  0  0
  6 20  1  0  0  0  0
  6 21  1  0  0  0  0
  7 22  1  0  0  0  0
  7 23  1  0  0  0  0
  8 24  1  0  0  0  0
  8 25  1  0  0  0  0
  9 26  1  0  0  0  0
  9 27  1  0  0  0  0
 10 28  1  0  0  0  0
 10 29  1  0  0  0  0
 11 30  1  0  0  0  0
 11 31  1  0  0  0  0
M  END
> <pdb_id>
6PHR

> <uniprot_id>
nan

> <usmiles>
SCCCCCNCCCN

$$$$
SSI_B_233
          07202404333D 1   1.00000     0.00000     0
            
 38 39  0  0  0  0            999 V2000
   28.4580   35.0420   72.7820 P   0  0  0  0  0  0  0  0  0  0  0  0
   27.4660   35.8800   72.0580 O   0  0  0  0  0  0  0  0  0  0  0  0
   28.0350   34.6530   74.1750 O   0  0  0  0  0  0  0  0  0  0  0  0
   29.0010   33.8720   71.9750 O   0  0  0  0  0  0  0  0  0  0  0  0
   33.9110   37.5010   73.4360 O   0  0  0  0  0  0  0  0  0  0  0  0
   27.5640   43.5630   72.3630 O   0  0  0  0  0  0  0  0  0  0  0  0
   29.6290   44.0300   71.5030 N   0  0  0  0  0  0  0  0  0  0  0  0
   31.2180   42.3750   70.8240 N   0  0  0  0  0  0  0  0  0  0  0  0
   32.3540   38.3450   71.4710 N   0  0  0  0  0  0  0  0  0  0  0  0
   28.3800   40.5560   71.9810 N   0  0  0  0  0  0  0  0  0  0  0  0
   29.9110   36.0490   73.1490 C   0  0  0  0  0  0  0  0  0  0  0  0
   30.8510   43.6630   70.9950 C   0  0  0  0  0  0  0  0  0  0  0  0
   32.8180   36.6340   73.1000 C   0  0  0  0  0  0  0  0  0  0  0  0
   31.6120   39.1870   70.5680 C   0  0  0  0  0  0  0  0  0  0  0  0
   29.2100   39.5230   71.6270 C   0  0  0  0  0  0  0  0  0  0  0  0
   30.6110   36.6220   71.9340 C   0  0  0  0  0  0  0  0  0  0  0  0
   28.6780   43.1700   71.8960 C   0  0  0  0  0  0  0  0  0  0  0  0
   31.7330   37.5090   72.4830 C   0  0  2  0  0  0  0  0  0  0  0  0
   30.4330   39.9670   71.1250 C   0  0  0  0  0  0  0  0  0  0  0  0
   28.9980   41.7320   71.7510 C   0  0  0  0  0  0  0  0  0  0  0  0
   30.3280   41.4280   71.1940 C   0  0  0  0  0  0  0  0  0  0  0  0
   27.8149   36.0968   71.1463 H   0  0  0  0  0  0  0  0  0  0  0  0
   28.7490   34.0937   74.5962 H   0  0  0  0  0  0  0  0  0  0  0  0
   34.6484   36.9642   73.8459 H   0  0  0  0  0  0  0  0  0  0  0  0
   29.4346   45.0074   71.5857 H   0  0  0  0  0  0  0  0  0  0  0  0
   32.9753   38.9542   71.9639 H   0  0  0  0  0  0  0  0  0  0  0  0
   27.4575   40.4527   72.3529 H   0  0  0  0  0  0  0  0  0  0  0  0
   30.5663   35.4800   73.6459 H   0  0  0  0  0  0  0  0  0  0  0  0
   29.6230   36.8104   73.7298 H   0  0  0  0  0  0  0  0  0  0  0  0
   31.4979   44.3818   70.7404 H   0  0  0  0  0  0  0  0  0  0  0  0
   32.4705   36.1840   73.9226 H   0  0  0  0  0  0  0  0  0  0  0  0
   33.1172   35.9423   72.4427 H   0  0  0  0  0  0  0  0  0  0  0  0
   31.2624   38.6023   69.8360 H   0  0  0  0  0  0  0  0  0  0  0  0
   32.2542   39.8515   70.1859 H   0  0  0  0  0  0  0  0  0  0  0  0
   28.9651   38.5578   71.7188 H   0  0  0  0  0  0  0  0  0  0  0  0
   29.9731   37.1647   71.3876 H   0  0  0  0  0  0  0  0  0  0  0  0
   30.9906   35.8875   71.3715 H   0  0  0  0  0  0  0  0  0  0  0  0
   31.3541   38.0987   73.1962 H   0  0  0  0  0  0  0  0  0  0  0  0
  1  2  1  0  0  0  0
  1  3  1  0  0  0  0
  1  4  2  0  0  0  0
  1 11  1  0  0  0  0
  5 13  1  0  0  0  0
  6 17  2  0  0  0  0
  7 12  1  0  0  0  0
  7 17  1  0  0  0  0
  8 12  2  0  0  0  0
  8 21  1  0  0  0  0
  9 14  1  0  0  0  0
  9 18  1  0  0  0  0
 10 15  1  0  0  0  0
 10 20  1  0  0  0  0
 11 16  1  0  0  0  0
 13 18  1  0  0  0  0
 14 19  1  0  0  0  0
 15 19  2  0  0  0  0
 16 18  1  0  0  0  0
 17 20  1  0  0  0  0
 19 21  1  0  0  0  0
 20 21  2  0  0  0  0
  2 22  1  0  0  0  0
  3 23  1  0  0  0  0
  5 24  1  0  0  0  0
  7 25  1  0  0  0  0
  9 26  1  0  0  0  0
 10 27  1  0  0  0  0
 11 28  1  0  0  0  0
 11 29  1  0  0  0  0
 12 30  1  0  0  0  0
 13 31  1  0  0  0  0
 13 32  1  0  0  0  0
 14 33  1  0  0  0  0
 14 34  1  0  0  0  0
 15 35  1  0  0  0  0
 16 36  1  0  0  0  0
 16 37  1  0  0  0  0
 18 38  1  0  0  0  0
M  END
> <pdb_id>
3OZG

> <uniprot_id>
P20035

> <usmiles>
P(=O)(O)(O)CC[C@H](NCC=1C=2N=CNC(=O)C2NC1)CO

$$$$
SSQ_A_508
          07202416263D 1   1.00000     0.00000     0
            
 25 27  0  0  0  0            999 V2000
   29.2826   67.2240   69.9205 Cl  0  0  0  0  0  0  0  0  0  0  0  0
   27.9925   69.4348   71.8115 S   0  0  0  0  0  0  0  0  0  0  0  0
   22.5959   70.7738   72.7195 O   0  0  0  0  0  0  0  0  0  0  0  0
   21.7272   68.6329   72.4363 N   0  0  0  0  0  0  0  0  0  0  0  0
   22.3332   67.4167   72.1411 N   0  0  0  0  0  0  0  0  0  0  0  0
   25.2965   69.5101   72.1579 N   0  0  0  0  0  0  0  0  0  0  0  0
   24.0221   68.9629   72.2142 N   0  0  0  0  0  0  0  0  0  0  0  0
   30.9152   66.3610   73.5177 C   0  0  0  0  0  0  0  0  0  0  0  0
   30.3562   67.3190   74.3470 C   0  0  0  0  0  0  0  0  0  0  0  0
   26.1426   67.3209   71.6551 C   0  0  0  0  0  0  0  0  0  0  0  0
   30.5914   66.3278   72.1713 C   0  0  0  0  0  0  0  0  0  0  0  0
   29.4713   68.2507   73.8329 C   0  0  0  0  0  0  0  0  0  0  0  0
   24.8584   66.7997   71.7184 C   0  0  0  0  0  0  0  0  0  0  0  0
   26.3387   68.7087   71.8799 C   0  0  0  0  0  0  0  0  0  0  0  0
   22.7434   69.6210   72.4886 C   0  0  0  0  0  0  0  0  0  0  0  0
   29.7065   67.2595   71.6543 C   0  0  0  0  0  0  0  0  0  0  0  0
   29.1524   68.2185   72.4876 C   0  0  0  0  0  0  0  0  0  0  0  0
   23.7942   67.6462   72.0034 C   0  0  0  0  0  0  0  0  0  0  0  0
   20.7500   68.7838   72.5850 H   0  0  0  0  0  0  0  0  0  0  0  0
   31.5555   65.6905   73.8924 H   0  0  0  0  0  0  0  0  0  0  0  0
   30.5922   67.3375   75.3185 H   0  0  0  0  0  0  0  0  0  0  0  0
   26.9207   66.7260   71.4535 H   0  0  0  0  0  0  0  0  0  0  0  0
   30.9949   65.6339   71.5750 H   0  0  0  0  0  0  0  0  0  0  0  0
   29.0653   68.9425   74.4301 H   0  0  0  0  0  0  0  0  0  0  0  0
   24.7003   65.8249   71.5605 H   0  0  0  0  0  0  0  0  0  0  0  0
  1 16  1  0  0  0  0
  2 14  1  0  0  0  0
  2 17  1  0  0  0  0
  3 15  2  0  0  0  0
  4  5  1  0  0  0  0
  4 15  1  0  0  0  0
  5 18  2  0  0  0  0
  6  7  1  0  0  0  0
  6 14  2  0  0  0  0
  7 15  1  0  0  0  0
  7 18  1  0  0  0  0
  8  9  2  0  0  0  0
  8 11  1  0  0  0  0
  9 12  1  0  0  0  0
 10 13  2  0  0  0  0
 10 14  1  0  0  0  0
 11 16  2  0  0  0  0
 12 17  2  0  0  0  0
 13 18  1  0  0  0  0
 16 17  1  0  0  0  0
  4 19  1  0  0  0  0
  8 20  1  0  0  0  0
  9 21  1  0  0  0  0
 10 22  1  0  0  0  0
 11 23  1  0  0  0  0
 12 24  1  0  0  0  0
 13 25  1  0  0  0  0
M  END
> <pdb_id>
7B3G

> <uniprot_id>
Q6P988

> <usmiles>
Clc1c(SC2=NN3C(=O)NN=C3C=C2)cccc1

$$$$
SSW_A_507
          07202416263D 1   1.00000     0.00000     0
            
 29 31  0  0  0  0            999 V2000
   27.5760   69.6370   72.0430 S   0  0  0  0  0  0  0  0  0  0  0  0
   29.7110   63.9350   71.8200 F   0  0  0  0  0  0  0  0  0  0  0  0
   30.7070   63.6160   69.8180 F   0  0  0  0  0  0  0  0  0  0  0  0
   28.7660   64.7000   70.0030 F   0  0  0  0  0  0  0  0  0  0  0  0
   22.4020   70.8580   72.7100 O   0  0  0  0  0  0  0  0  0  0  0  0
   30.6820   65.6620   70.7250 O   0  0  0  0  0  0  0  0  0  0  0  0
   21.4330   68.7340   72.4480 N   0  0  0  0  0  0  0  0  0  0  0  0
   22.0210   67.4860   72.2360 N   0  0  0  0  0  0  0  0  0  0  0  0
   24.9560   69.5550   72.2720 N   0  0  0  0  0  0  0  0  0  0  0  0
   23.7120   69.0080   72.2950 N   0  0  0  0  0  0  0  0  0  0  0  0
   30.2630   67.3160   74.0080 C   0  0  0  0  0  0  0  0  0  0  0  0
   29.3110   68.2750   73.7270 C   0  0  0  0  0  0  0  0  0  0  0  0
   25.8600   67.3770   71.8900 C   0  0  0  0  0  0  0  0  0  0  0  0
   30.7150   66.4570   73.0180 C   0  0  0  0  0  0  0  0  0  0  0  0
   24.5760   66.8410   71.9290 C   0  0  0  0  0  0  0  0  0  0  0  0
   29.2640   67.5080   71.4450 C   0  0  0  0  0  0  0  0  0  0  0  0
   26.0020   68.7820   72.0710 C   0  0  0  0  0  0  0  0  0  0  0  0
   28.8170   68.3730   72.4310 C   0  0  0  0  0  0  0  0  0  0  0  0
   22.4710   69.6920   72.4960 C   0  0  0  0  0  0  0  0  0  0  0  0
   30.2150   66.5370   71.7270 C   0  0  0  0  0  0  0  0  0  0  0  0
   23.4870   67.6800   72.1350 C   0  0  0  0  0  0  0  0  0  0  0  0
   29.9680   64.4640   70.5920 C   0  0  0  0  0  0  0  0  0  0  0  0
   20.4550   68.9170   72.5478 H   0  0  0  0  0  0  0  0  0  0  0  0
   30.6304   67.2400   74.9349 H   0  0  0  0  0  0  0  0  0  0  0  0
   28.9818   68.8895   74.4440 H   0  0  0  0  0  0  0  0  0  0  0  0
   26.6579   66.7933   71.7395 H   0  0  0  0  0  0  0  0  0  0  0  0
   31.4096   65.7719   73.2374 H   0  0  0  0  0  0  0  0  0  0  0  0
   24.4377   65.8578   71.8095 H   0  0  0  0  0  0  0  0  0  0  0  0
   28.8966   67.5843   70.5181 H   0  0  0  0  0  0  0  0  0  0  0  0
  1 17  1  0  0  0  0
  1 18  1  0  0  0  0
  2 22  1  0  0  0  0
  3 22  1  0  0  0  0
  4 22  1  0  0  0  0
  5 19  2  0  0  0  0
  6 20  1  0  0  0  0
  6 22  1  0  0  0  0
  7  8  1  0  0  0  0
  7 19  1  0  0  0  0
  8 21  2  0  0  0  0
  9 10  1  0  0  0  0
  9 17  2  0  0  0  0
 10 19  1  0  0  0  0
 10 21  1  0  0  0  0
 11 12  2  0  0  0  0
 11 14  1  0  0  0  0
 12 18  1  0  0  0  0
 13 15  2  0  0  0  0
 13 17  1  0  0  0  0
 14 20  2  0  0  0  0
 15 21  1  0  0  0  0
 16 18  2  0  0  0  0
 16 20  1  0  0  0  0
  7 23  1  0  0  0  0
 11 24  1  0  0  0  0
 12 25  1  0  0  0  0
 13 26  1  0  0  0  0
 14 27  1  0  0  0  0
 15 28  1  0  0  0  0
 16 29  1  0  0  0  0
M  END
> <pdb_id>
7B3H

> <uniprot_id>
Q6P988

> <usmiles>
S(c1cc(OC(F)(F)F)ccc1)C2=NN3C(=O)NN=C3C=C2

$$$$
STK_A_508
          07202416263D 1   1.00000     0.00000     0
            
 25 27  0  0  0  0            999 V2000
   31.7171   66.4158   70.4760 Cl  0  0  0  0  0  0  0  0  0  0  0  0
   27.7666   69.7866   72.2245 S   0  0  0  0  0  0  0  0  0  0  0  0
   22.5556   70.7977   72.7806 O   0  0  0  0  0  0  0  0  0  0  0  0
   21.6591   68.6704   72.4015 N   0  0  0  0  0  0  0  0  0  0  0  0
   22.2972   67.4614   72.1218 N   0  0  0  0  0  0  0  0  0  0  0  0
   25.1637   69.6267   72.3675 N   0  0  0  0  0  0  0  0  0  0  0  0
   23.9387   69.0158   72.3284 N   0  0  0  0  0  0  0  0  0  0  0  0
   30.2699   67.2400   74.1320 C   0  0  0  0  0  0  0  0  0  0  0  0
   31.0066   66.7033   73.1015 C   0  0  0  0  0  0  0  0  0  0  0  0
   26.1333   67.4912   71.8758 C   0  0  0  0  0  0  0  0  0  0  0  0
   29.2847   68.1726   73.8714 C   0  0  0  0  0  0  0  0  0  0  0  0
   24.8732   66.9043   71.8448 C   0  0  0  0  0  0  0  0  0  0  0  0
   29.7828   68.0407   71.5148 C   0  0  0  0  0  0  0  0  0  0  0  0
   26.2310   68.8853   72.1542 C   0  0  0  0  0  0  0  0  0  0  0  0
   30.7580   67.1072   71.8024 C   0  0  0  0  0  0  0  0  0  0  0  0
   22.6646   69.6529   72.5315 C   0  0  0  0  0  0  0  0  0  0  0  0
   29.0542   68.5685   72.5613 C   0  0  0  0  0  0  0  0  0  0  0  0
   23.7599   67.7006   72.0740 C   0  0  0  0  0  0  0  0  0  0  0  0
   20.6737   68.8141   72.4929 H   0  0  0  0  0  0  0  0  0  0  0  0
   30.4484   66.9539   75.0735 H   0  0  0  0  0  0  0  0  0  0  0  0
   31.7171   66.0256   73.2906 H   0  0  0  0  0  0  0  0  0  0  0  0
   26.9544   66.9460   71.7063 H   0  0  0  0  0  0  0  0  0  0  0  0
   28.7435   68.5583   74.6186 H   0  0  0  0  0  0  0  0  0  0  0  0
   24.7711   65.9267   71.6606 H   0  0  0  0  0  0  0  0  0  0  0  0
   29.6088   68.3272   70.5727 H   0  0  0  0  0  0  0  0  0  0  0  0
  1 15  1  0  0  0  0
  2 14  1  0  0  0  0
  2 17  1  0  0  0  0
  3 16  2  0  0  0  0
  4  5  1  0  0  0  0
  4 16  1  0  0  0  0
  5 18  2  0  0  0  0
  6  7  1  0  0  0  0
  6 14  2  0  0  0  0
  7 16  1  0  0  0  0
  7 18  1  0  0  0  0
  8  9  2  0  0  0  0
  8 11  1  0  0  0  0
  9 15  1  0  0  0  0
 10 12  2  0  0  0  0
 10 14  1  0  0  0  0
 11 17  2  0  0  0  0
 12 18  1  0  0  0  0
 13 15  2  0  0  0  0
 13 17  1  0  0  0  0
  4 19  1  0  0  0  0
  8 20  1  0  0  0  0
  9 21  1  0  0  0  0
 10 22  1  0  0  0  0
 11 23  1  0  0  0  0
 12 24  1  0  0  0  0
 13 25  1  0  0  0  0
M  END
> <pdb_id>
7B3I

> <uniprot_id>
Q6P988

> <usmiles>
Clc1cc(SC2=NN3C(=O)NN=C3C=C2)ccc1

$$$$
STU_A_1
          07192419173D 1   1.00000     0.00000     0
            
 61 68  0  0  0  0            999 V2000
    3.7620   -1.5520   16.1890 O   0  0  0  0  0  0  0  0  0  0  0  0
    0.9760    4.5220   13.7920 O   0  0  0  0  0  0  0  0  0  0  0  0
    0.2880    2.6620   11.1590 O   0  0  0  0  0  0  0  0  0  0  0  0
   -1.5810    5.6430   13.3080 N   0  0  0  0  0  0  0  0  0  0  0  0
    5.5020   -0.1520   15.6180 N   0  0  0  0  0  0  0  0  0  0  0  0
    0.2450    1.2880   13.0930 N   0  0  0  0  0  0  0  0  0  0  0  0
    2.4570    3.3470   11.9160 N   0  0  0  0  0  0  0  0  0  0  0  0
    1.8980    5.4880   14.2970 C   0  0  0  0  0  0  0  0  0  0  0  0
   -1.4970    7.0250   12.8450 C   0  0  0  0  0  0  0  0  0  0  0  0
    1.2270    4.4960   10.0540 C   0  0  0  0  0  0  0  0  0  0  0  0
    5.8020    0.9420   14.6740 C   0  0  0  0  0  0  0  0  0  0  0  0
   -1.7380   -1.3670   14.8540 C   0  0  0  0  0  0  0  0  0  0  0  0
    5.4350    5.4420   11.0070 C   0  0  0  0  0  0  0  0  0  0  0  0
   -0.6820   -1.9480   15.5800 C   0  0  0  0  0  0  0  0  0  0  0  0
    6.3950    4.7720   11.7760 C   0  0  0  0  0  0  0  0  0  0  0  0
   -1.5470   -0.2800   13.9900 C   0  0  0  0  0  0  0  0  0  0  0  0
    4.0950    5.0400   10.9830 C   0  0  0  0  0  0  0  0  0  0  0  0
    6.0430    3.6690   12.5560 C   0  0  0  0  0  0  0  0  0  0  0  0
    0.6320   -1.4730   15.4890 C   0  0  0  0  0  0  0  0  0  0  0  0
   -1.3200    3.1870   12.9850 C   0  0  0  0  0  0  0  0  0  0  0  0
    4.2400   -0.6050   15.5820 C   0  0  0  0  0  0  0  0  0  0  0  0
   -0.5530    2.1140   12.1830 C   0  0  1  0  0  0  0  0  0  0  0  0
    0.5130    4.7680   12.4570 C   0  0  2  0  0  0  0  0  0  0  0  0
   -0.9940    4.5980   12.4890 C   0  0  2  0  0  0  0  0  0  0  0  0
   -0.2510    0.2190   13.8730 C   0  0  0  0  0  0  0  0  0  0  0  0
    3.6630    3.9390   11.7300 C   0  0  0  0  0  0  0  0  0  0  0  0
    1.6340    1.4040   13.3240 C   0  0  0  0  0  0  0  0  0  0  0  0
    2.5470    2.3070   12.7690 C   0  0  0  0  0  0  0  0  0  0  0  0
    4.4300    1.2250   14.1040 C   0  0  0  0  0  0  0  0  0  0  0  0
    4.7130    3.2710   12.5110 C   0  0  0  0  0  0  0  0  0  0  0  0
    0.8460   -0.4050   14.6310 C   0  0  0  0  0  0  0  0  0  0  0  0
    3.4820    0.2660   14.6600 C   0  0  0  0  0  0  0  0  0  0  0  0
    3.9800    2.1920   13.2040 C   0  0  0  0  0  0  0  0  0  0  0  0
    2.0590    0.3580   14.2780 C   0  0  0  0  0  0  0  0  0  0  0  0
    1.1240    3.8070   11.4150 C   0  0  1  0  0  0  0  0  0  0  0  0
   -2.5515    5.4256   13.4120 H   0  0  0  0  0  0  0  0  0  0  0  0
    6.1895   -0.5281   16.2392 H   0  0  0  0  0  0  0  0  0  0  0  0
    2.1658    5.2386   15.2276 H   0  0  0  0  0  0  0  0  0  0  0  0
    2.7087    5.5126   13.7121 H   0  0  0  0  0  0  0  0  0  0  0  0
    1.4653    6.3895   14.3050 H   0  0  0  0  0  0  0  0  0  0  0  0
   -1.9418    7.6265   13.5086 H   0  0  0  0  0  0  0  0  0  0  0  0
   -0.5366    7.2867   12.7493 H   0  0  0  0  0  0  0  0  0  0  0  0
   -1.9550    7.1085   11.9600 H   0  0  0  0  0  0  0  0  0  0  0  0
    1.7973    5.3133   10.1365 H   0  0  0  0  0  0  0  0  0  0  0  0
    1.6378    3.8682    9.3928 H   0  0  0  0  0  0  0  0  0  0  0  0
    0.3133    4.7571    9.7426 H   0  0  0  0  0  0  0  0  0  0  0  0
    6.4403    0.6473   13.9629 H   0  0  0  0  0  0  0  0  0  0  0  0
    6.1744    1.7411   15.1459 H   0  0  0  0  0  0  0  0  0  0  0  0
   -2.6586   -1.7434   14.9583 H   0  0  0  0  0  0  0  0  0  0  0  0
    5.7154    6.2303   10.4594 H   0  0  0  0  0  0  0  0  0  0  0  0
   -0.8760   -2.7244   16.1797 H   0  0  0  0  0  0  0  0  0  0  0  0
    7.3439    5.0875   11.7662 H   0  0  0  0  0  0  0  0  0  0  0  0
   -2.3080    0.1203   13.4794 H   0  0  0  0  0  0  0  0  0  0  0  0
    3.4377    5.5462   10.4247 H   0  0  0  0  0  0  0  0  0  0  0  0
    6.7154    3.1890   13.1195 H   0  0  0  0  0  0  0  0  0  0  0  0
    1.3772   -1.8826   16.0153 H   0  0  0  0  0  0  0  0  0  0  0  0
   -1.0662    3.1149   13.9496 H   0  0  0  0  0  0  0  0  0  0  0  0
   -2.3021    3.0265   12.8859 H   0  0  0  0  0  0  0  0  0  0  0  0
   -1.2267    1.5211   11.7418 H   0  0  0  0  0  0  0  0  0  0  0  0
    0.7315    5.7100   12.2023 H   0  0  0  0  0  0  0  0  0  0  0  0
   -1.3427    4.6937   11.5567 H   0  0  0  0  0  0  0  0  0  0  0  0
  1 21  2  0  0  0  0
  2  8  1  0  0  0  0
  2 23  1  0  0  0  0
  3 22  1  0  0  0  0
  3 35  1  0  0  0  0
  4  9  1  0  0  0  0
  4 24  1  0  0  0  0
  5 11  1  0  0  0  0
  5 21  1  0  0  0  0
  6 22  1  0  0  0  0
  6 25  1  0  0  0  0
  6 27  1  0  0  0  0
  7 26  1  0  0  0  0
  7 28  1  0  0  0  0
  7 35  1  0  0  0  0
 10 35  1  0  0  0  0
 11 29  1  0  0  0  0
 12 14  2  0  0  0  0
 12 16  1  0  0  0  0
 13 15  2  0  0  0  0
 13 17  1  0  0  0  0
 14 19  1  0  0  0  0
 15 18  1  0  0  0  0
 16 25  2  0  0  0  0
 17 26  2  0  0  0  0
 18 30  2  0  0  0  0
 19 31  2  0  0  0  0
 20 22  1  0  0  0  0
 20 24  1  0  0  0  0
 21 32  1  0  0  0  0
 23 24  1  0  0  0  0
 23 35  1  0  0  0  0
 25 31  1  0  0  0  0
 26 30  1  0  0  0  0
 27 28  1  0  0  0  0
 27 34  2  0  0  0  0
 28 33  2  0  0  0  0
 29 32  2  0  0  0  0
 29 33  1  0  0  0  0
 30 33  1  0  0  0  0
 31 34  1  0  0  0  0
 32 34  1  0  0  0  0
  4 36  1  0  0  0  0
  5 37  1  0  0  0  0
  8 38  1  0  0  0  0
  8 39  1  0  0  0  0
  8 40  1  0  0  0  0
  9 41  1  0  0  0  0
  9 42  1  0  0  0  0
  9 43  1  0  0  0  0
 10 44  1  0  0  0  0
 10 45  1  0  0  0  0
 10 46  1  0  0  0  0
 11 47  1  0  0  0  0
 11 48  1  0  0  0  0
 12 49  1  0  0  0  0
 13 50  1  0  0  0  0
 14 51  1  0  0  0  0
 15 52  1  0  0  0  0
 16 53  1  0  0  0  0
 17 54  1  0  0  0  0
 18 55  1  0  0  0  0
 19 56  1  0  0  0  0
 20 57  1  0  0  0  0
 20 58  1  0  0  0  0
 22 59  1  0  0  0  0
 23 60  1  0  0  0  0
 24 61  1  0  0  0  0
M  END
> <pdb_id>
1XBC

> <uniprot_id>
P43405

> <usmiles>
O=C1NCc2c3c4N(c5c3cccc5)[C@]6(O[C@@H](N7c4c(c8c7cccc8)c21)C[C@@H](NC)[C@H]6OC)C

$$$$
STU_A_1368
          07202403043D 1   1.00000     0.00000     0
            
 59 66  0  0  0  0            999 V2000
   84.4930   12.9810   12.5040 O   0  0  0  0  0  0  0  0  0  0  0  0
   83.0910   19.6450   10.6910 O   0  0  0  0  0  0  0  0  0  0  0  0
   82.8890   19.8450   13.9800 O   0  0  0  0  0  0  0  0  0  0  0  0
   84.2510   22.2420   10.9160 N   0  0  0  0  0  0  0  0  0  0  0  0
   82.2810   13.0800   11.7860 N   0  0  0  0  0  0  0  0  0  0  0  0
   84.4620   18.1500   13.3760 N   0  0  0  0  0  0  0  0  0  0  0  0
   81.4560   18.6890   12.5280 N   0  0  0  0  0  0  0  0  0  0  0  0
   82.1780   19.4040    9.6140 C   0  0  0  0  0  0  0  0  0  0  0  0
   83.7160   23.5440   10.4810 C   0  0  0  0  0  0  0  0  0  0  0  0
   80.7910   20.8240   13.4030 C   0  0  0  0  0  0  0  0  0  0  0  0
   81.3250   14.0980   11.6890 C   0  0  0  0  0  0  0  0  0  0  0  0
   87.9610   16.8310   14.0070 C   0  0  0  0  0  0  0  0  0  0  0  0
   77.9010   18.5690   11.1480 C   0  0  0  0  0  0  0  0  0  0  0  0
   87.6450   15.4760   13.6890 C   0  0  0  0  0  0  0  0  0  0  0  0
   77.8990   17.1580   10.9460 C   0  0  0  0  0  0  0  0  0  0  0  0
   86.9680   17.8380   13.9420 C   0  0  0  0  0  0  0  0  0  0  0  0
   79.0390   19.2190   11.6900 C   0  0  0  0  0  0  0  0  0  0  0  0
   79.0350   16.3860   11.2820 C   0  0  0  0  0  0  0  0  0  0  0  0
   86.3290   15.1170   13.3060 C   0  0  0  0  0  0  0  0  0  0  0  0
   84.8470   20.5230   12.5590 C   0  0  0  0  0  0  0  0  0  0  0  0
   83.4570   13.6030   12.2610 C   0  0  0  0  0  0  0  0  0  0  0  0
   84.2780   19.5950   13.6580 C   0  0  1  0  0  0  0  0  0  0  0  0
   82.5570   20.6210   11.6100 C   0  0  2  0  0  0  0  0  0  0  0  0
   83.7480   21.4550   12.0550 C   0  0  2  0  0  0  0  0  0  0  0  0
   85.6630   17.4770   13.5610 C   0  0  0  0  0  0  0  0  0  0  0  0
   80.1720   18.4500   12.0230 C   0  0  0  0  0  0  0  0  0  0  0  0
   83.5010   17.2790   12.9720 C   0  0  0  0  0  0  0  0  0  0  0  0
   82.1620   17.5250   12.6060 C   0  0  0  0  0  0  0  0  0  0  0  0
   81.9340   15.2170   12.0980 C   0  0  0  0  0  0  0  0  0  0  0  0
   80.1540   17.0530   11.8120 C   0  0  0  0  0  0  0  0  0  0  0  0
   85.3640   16.1270   13.2480 C   0  0  0  0  0  0  0  0  0  0  0  0
   83.2170   14.9360   12.4400 C   0  0  0  0  0  0  0  0  0  0  0  0
   81.3610   16.5220   12.1640 C   0  0  0  0  0  0  0  0  0  0  0  0
   84.0490   16.0220   12.8990 C   0  0  0  0  0  0  0  0  0  0  0  0
   81.9390   19.9300   12.8720 C   0  0  1  0  0  0  0  0  0  0  0  0
   85.2182   22.4041   11.1116 H   0  0  0  0  0  0  0  0  0  0  0  0
   82.5685   18.7259    8.9914 H   0  0  0  0  0  0  0  0  0  0  0  0
   81.3132   19.0609    9.9806 H   0  0  0  0  0  0  0  0  0  0  0  0
   82.0149   20.2569    9.1181 H   0  0  0  0  0  0  0  0  0  0  0  0
   84.2305   23.8672    9.6868 H   0  0  0  0  0  0  0  0  0  0  0  0
   82.7520   23.4429   10.2351 H   0  0  0  0  0  0  0  0  0  0  0  0
   83.8024   24.2056   11.2259 H   0  0  0  0  0  0  0  0  0  0  0  0
   80.0949   20.9294   12.6929 H   0  0  0  0  0  0  0  0  0  0  0  0
   80.3822   20.3974   14.2098 H   0  0  0  0  0  0  0  0  0  0  0  0
   81.1547   21.7224   13.6491 H   0  0  0  0  0  0  0  0  0  0  0  0
   80.3791   14.0073   11.3774 H   0  0  0  0  0  0  0  0  0  0  0  0
   88.8930   17.0715   14.2784 H   0  0  0  0  0  0  0  0  0  0  0  0
   77.0927   19.1054   10.9054 H   0  0  0  0  0  0  0  0  0  0  0  0
   88.3570   14.7755   13.7368 H   0  0  0  0  0  0  0  0  0  0  0  0
   77.0896   16.7115   10.5645 H   0  0  0  0  0  0  0  0  0  0  0  0
   87.1901   18.7877   14.1627 H   0  0  0  0  0  0  0  0  0  0  0  0
   79.0375   20.2086   11.8338 H   0  0  0  0  0  0  0  0  0  0  0  0
   79.0425   15.3952   11.1468 H   0  0  0  0  0  0  0  0  0  0  0  0
   86.0974   14.1699   13.0839 H   0  0  0  0  0  0  0  0  0  0  0  0
   85.1877   19.9690   11.7994 H   0  0  0  0  0  0  0  0  0  0  0  0
   85.5963   21.0664   12.9375 H   0  0  0  0  0  0  0  0  0  0  0  0
   84.7995   19.7889   14.4889 H   0  0  0  0  0  0  0  0  0  0  0  0
   81.8762   21.1955   11.1556 H   0  0  0  0  0  0  0  0  0  0  0  0
   83.4686   22.0718   12.7908 H   0  0  0  0  0  0  0  0  0  0  0  0
  1 21  2  0  0  0  0
  2  8  1  0  0  0  0
  2 23  1  0  0  0  0
  3 22  1  0  0  0  0
  3 35  1  0  0  0  0
  4  9  1  0  0  0  0
  4 24  1  0  0  0  0
  5 11  2  0  0  0  0
  5 21  1  0  0  0  0
  6 22  1  0  0  0  0
  6 25  1  0  0  0  0
  6 27  1  0  0  0  0
  7 26  1  0  0  0  0
  7 28  1  0  0  0  0
  7 35  1  0  0  0  0
 10 35  1  0  0  0  0
 11 29  1  0  0  0  0
 12 14  2  0  0  0  0
 12 16  1  0  0  0  0
 13 15  2  0  0  0  0
 13 17  1  0  0  0  0
 14 19  1  0  0  0  0
 15 18  1  0  0  0  0
 16 25  2  0  0  0  0
 17 26  2  0  0  0  0
 18 30  2  0  0  0  0
 19 31  2  0  0  0  0
 20 22  1  0  0  0  0
 20 24  1  0  0  0  0
 21 32  1  0  0  0  0
 23 24  1  0  0  0  0
 23 35  1  0  0  0  0
 25 31  1  0  0  0  0
 26 30  1  0  0  0  0
 27 28  1  0  0  0  0
 27 34  2  0  0  0  0
 28 33  2  0  0  0  0
 29 32  2  0  0  0  0
 29 33  1  0  0  0  0
 30 33  1  0  0  0  0
 31 34  1  0  0  0  0
 32 34  1  0  0  0  0
  4 36  1  0  0  0  0
  8 37  1  0  0  0  0
  8 38  1  0  0  0  0
  8 39  1  0  0  0  0
  9 40  1  0  0  0  0
  9 41  1  0  0  0  0
  9 42  1  0  0  0  0
 10 43  1  0  0  0  0
 10 44  1  0  0  0  0
 10 45  1  0  0  0  0
 11 46  1  0  0  0  0
 12 47  1  0  0  0  0
 13 48  1  0  0  0  0
 14 49  1  0  0  0  0
 15 50  1  0  0  0  0
 16 51  1  0  0  0  0
 17 52  1  0  0  0  0
 18 53  1  0  0  0  0
 19 54  1  0  0  0  0
 20 55  1  0  0  0  0
 20 56  1  0  0  0  0
 22 57  1  0  0  0  0
 23 58  1  0  0  0  0
 24 59  1  0  0  0  0
M  END
> <pdb_id>
1OKY

> <uniprot_id>
O15530

> <usmiles>
O=C1N=Cc2c3c4N(c5c3cccc5)[C@]6(O[C@@H](N7c4c(c8c7cccc8)c21)C[C@@H](NC)[C@H]6OC)C

$$$$
STU_A_299
          07192421083D 1   1.00000     0.00000     0
            
 61 68  0  0  0  0            999 V2000
    2.1450   30.7330    5.8200 O   0  0  0  0  0  0  0  0  0  0  0  0
    1.2830   26.2450   11.2960 O   0  0  0  0  0  0  0  0  0  0  0  0
   -0.0580   24.6050    8.9150 O   0  0  0  0  0  0  0  0  0  0  0  0
    2.1900   23.5100   12.2490 N   0  0  0  0  0  0  0  0  0  0  0  0
    0.2460   31.4880    6.8730 N   0  0  0  0  0  0  0  0  0  0  0  0
    1.7090   25.9710    8.1520 N   0  0  0  0  0  0  0  0  0  0  0  0
   -1.0180   26.5730    9.8090 N   0  0  0  0  0  0  0  0  0  0  0  0
    0.7080   27.3650   11.9400 C   0  0  0  0  0  0  0  0  0  0  0  0
    2.2190   22.0360   12.4640 C   0  0  0  0  0  0  0  0  0  0  0  0
   -1.7820   24.3150   10.4450 C   0  0  0  0  0  0  0  0  0  0  0  0
   -0.7870   31.0610    7.7940 C   0  0  0  0  0  0  0  0  0  0  0  0
    4.7040   25.7920    6.0470 C   0  0  0  0  0  0  0  0  0  0  0  0
   -4.0610   27.9440   11.4680 C   0  0  0  0  0  0  0  0  0  0  0  0
    4.6280   27.1160    5.5550 C   0  0  0  0  0  0  0  0  0  0  0  0
   -4.0150   29.2500   10.8950 C   0  0  0  0  0  0  0  0  0  0  0  0
    3.7550   25.3170    6.9230 C   0  0  0  0  0  0  0  0  0  0  0  0
   -3.1120   27.0110   11.1730 C   0  0  0  0  0  0  0  0  0  0  0  0
   -2.9870   29.5370   10.0290 C   0  0  0  0  0  0  0  0  0  0  0  0
    3.6100   27.9460    5.9210 C   0  0  0  0  0  0  0  0  0  0  0  0
    2.1900   24.1630    9.8170 C   0  0  0  0  0  0  0  0  0  0  0  0
    1.1910   30.5900    6.5600 C   0  0  0  0  0  0  0  0  0  0  0  0
    1.3300   24.6420    8.6200 C   0  0  1  0  0  0  0  0  0  0  0  0
    0.3990   25.1070   11.3170 C   0  0  2  0  0  0  0  0  0  0  0  0
    1.2850   23.8640   11.0150 C   0  0  2  0  0  0  0  0  0  0  0  0
    2.7410   26.1970    7.3090 C   0  0  0  0  0  0  0  0  0  0  0  0
   -2.1080   27.3050   10.3030 C   0  0  0  0  0  0  0  0  0  0  0  0
    0.8600   27.1010    8.2060 C   0  0  0  0  0  0  0  0  0  0  0  0
   -0.2490   27.3530    8.9070 C   0  0  0  0  0  0  0  0  0  0  0  0
   -0.3120   29.6130    8.0170 C   0  0  0  0  0  0  0  0  0  0  0  0
   -2.0370   28.5990    9.7020 C   0  0  0  0  0  0  0  0  0  0  0  0
    2.6460   27.5280    6.8110 C   0  0  0  0  0  0  0  0  0  0  0  0
    0.7740   29.3740    7.3290 C   0  0  0  0  0  0  0  0  0  0  0  0
   -0.9010   28.6450    8.8630 C   0  0  0  0  0  0  0  0  0  0  0  0
    1.4780   28.0810    7.3700 C   0  0  0  0  0  0  0  0  0  0  0  0
   -0.5830   25.1790   10.1000 C   0  0  1  0  0  0  0  0  0  0  0  0
    3.1199   23.8370   12.0806 H   0  0  0  0  0  0  0  0  0  0  0  0
    0.2540   32.4109    6.4880 H   0  0  0  0  0  0  0  0  0  0  0  0
    1.3471   28.1333   11.9064 H   0  0  0  0  0  0  0  0  0  0  0  0
   -0.1410   27.6171   11.4756 H   0  0  0  0  0  0  0  0  0  0  0  0
    0.5112   27.1366   12.8935 H   0  0  0  0  0  0  0  0  0  0  0  0
    2.7980   21.8254   13.2516 H   0  0  0  0  0  0  0  0  0  0  0  0
    1.2907   21.7057   12.6349 H   0  0  0  0  0  0  0  0  0  0  0  0
    2.5877   21.5876   11.6498 H   0  0  0  0  0  0  0  0  0  0  0  0
   -2.2121   24.6596   11.2794 H   0  0  0  0  0  0  0  0  0  0  0  0
   -2.4412   24.3443    9.6936 H   0  0  0  0  0  0  0  0  0  0  0  0
   -1.4827   23.3718   10.5893 H   0  0  0  0  0  0  0  0  0  0  0  0
   -1.6976   31.0994    7.3826 H   0  0  0  0  0  0  0  0  0  0  0  0
   -0.7808   31.5939    8.6402 H   0  0  0  0  0  0  0  0  0  0  0  0
    5.4530   25.1967    5.7561 H   0  0  0  0  0  0  0  0  0  0  0  0
   -4.8022   27.7091   12.0968 H   0  0  0  0  0  0  0  0  0  0  0  0
    5.3326   27.4488    4.9283 H   0  0  0  0  0  0  0  0  0  0  0  0
   -4.7090   29.9350   11.1166 H   0  0  0  0  0  0  0  0  0  0  0  0
    3.7898   24.3795    7.2694 H   0  0  0  0  0  0  0  0  0  0  0  0
   -3.1539   26.1067   11.5978 H   0  0  0  0  0  0  0  0  0  0  0  0
   -2.9288   30.4508    9.6269 H   0  0  0  0  0  0  0  0  0  0  0  0
    3.5629   28.8688    5.5387 H   0  0  0  0  0  0  0  0  0  0  0  0
    2.8434   24.8785   10.0643 H   0  0  0  0  0  0  0  0  0  0  0  0
    2.6856   23.3335    9.5595 H   0  0  0  0  0  0  0  0  0  0  0  0
    1.4901   24.0050    7.8659 H   0  0  0  0  0  0  0  0  0  0  0  0
   -0.0854   25.0220   12.1877 H   0  0  0  0  0  0  0  0  0  0  0  0
    0.6981   23.0834   10.8000 H   0  0  0  0  0  0  0  0  0  0  0  0
  1 21  2  0  0  0  0
  2  8  1  0  0  0  0
  2 23  1  0  0  0  0
  3 22  1  0  0  0  0
  3 35  1  0  0  0  0
  4  9  1  0  0  0  0
  4 24  1  0  0  0  0
  5 11  1  0  0  0  0
  5 21  1  0  0  0  0
  6 22  1  0  0  0  0
  6 25  1  0  0  0  0
  6 27  1  0  0  0  0
  7 26  1  0  0  0  0
  7 28  1  0  0  0  0
  7 35  1  0  0  0  0
 10 35  1  0  0  0  0
 11 29  1  0  0  0  0
 12 14  2  0  0  0  0
 12 16  1  0  0  0  0
 13 15  2  0  0  0  0
 13 17  1  0  0  0  0
 14 19  1  0  0  0  0
 15 18  1  0  0  0  0
 16 25  2  0  0  0  0
 17 26  2  0  0  0  0
 18 30  2  0  0  0  0
 19 31  2  0  0  0  0
 20 22  1  0  0  0  0
 20 24  1  0  0  0  0
 21 32  1  0  0  0  0
 23 24  1  0  0  0  0
 23 35  1  0  0  0  0
 25 31  1  0  0  0  0
 26 30  1  0  0  0  0
 27 28  1  0  0  0  0
 27 34  2  0  0  0  0
 28 33  2  0  0  0  0
 29 32  2  0  0  0  0
 29 33  1  0  0  0  0
 30 33  1  0  0  0  0
 31 34  1  0  0  0  0
 32 34  1  0  0  0  0
  4 36  1  0  0  0  0
  5 37  1  0  0  0  0
  8 38  1  0  0  0  0
  8 39  1  0  0  0  0
  8 40  1  0  0  0  0
  9 41  1  0  0  0  0
  9 42  1  0  0  0  0
  9 43  1  0  0  0  0
 10 44  1  0  0  0  0
 10 45  1  0  0  0  0
 10 46  1  0  0  0  0
 11 47  1  0  0  0  0
 11 48  1  0  0  0  0
 12 49  1  0  0  0  0
 13 50  1  0  0  0  0
 14 51  1  0  0  0  0
 15 52  1  0  0  0  0
 16 53  1  0  0  0  0
 17 54  1  0  0  0  0
 18 55  1  0  0  0  0
 19 56  1  0  0  0  0
 20 57  1  0  0  0  0
 20 58  1  0  0  0  0
 22 59  1  0  0  0  0
 23 60  1  0  0  0  0
 24 61  1  0  0  0  0
M  END
> <pdb_id>
1AQ1

> <uniprot_id>
P24941

> <usmiles>
O=C1NCc2c3c4N(c5c3cccc5)[C@]6(O[C@@H](N7c4c(c8c7cccc8)c21)C[C@@H](NC)[C@H]6OC)C

$$$$
STU_A_301
          07192421083D 1   1.00000     0.00000     0
            
 59 66  0  0  0  0            999 V2000
    2.3434   30.8484    5.9630 O   0  0  0  0  0  0  0  0  0  0  0  0
    0.7593   26.2391   11.1711 O   0  0  0  0  0  0  0  0  0  0  0  0
   -0.2875   24.3596    8.6874 O   0  0  0  0  0  0  0  0  0  0  0  0
    1.7508   23.7466   12.2115 N   0  0  0  0  0  0  0  0  0  0  0  0
    0.2960   31.5956    6.9677 N   0  0  0  0  0  0  0  0  0  0  0  0
    1.4502   25.8420    8.0597 N   0  0  0  0  0  0  0  0  0  0  0  0
   -1.3079   26.4672    9.5041 N   0  0  0  0  0  0  0  0  0  0  0  0
    0.3670   27.2455   12.0664 C   0  0  0  0  0  0  0  0  0  0  0  0
    2.3419   22.4205   12.2996 C   0  0  0  0  0  0  0  0  0  0  0  0
   -2.0671   24.0957   10.0512 C   0  0  0  0  0  0  0  0  0  0  0  0
   -0.6983   31.0753    7.7193 C   0  0  0  0  0  0  0  0  0  0  0  0
    4.7978   25.6064    6.1045 C   0  0  0  0  0  0  0  0  0  0  0  0
   -4.5914   27.9089   11.0400 C   0  0  0  0  0  0  0  0  0  0  0  0
    4.8103   26.9726    5.6766 C   0  0  0  0  0  0  0  0  0  0  0  0
   -4.4346   29.2139   10.5509 C   0  0  0  0  0  0  0  0  0  0  0  0
    3.7279   25.1192    6.9040 C   0  0  0  0  0  0  0  0  0  0  0  0
   -3.6356   26.9360   10.7768 C   0  0  0  0  0  0  0  0  0  0  0  0
   -3.2974   29.5356    9.7704 C   0  0  0  0  0  0  0  0  0  0  0  0
    3.7420   27.8549    6.0420 C   0  0  0  0  0  0  0  0  0  0  0  0
    1.9588   24.2015    9.8805 C   0  0  0  0  0  0  0  0  0  0  0  0
    1.2131   30.6563    6.6875 C   0  0  0  0  0  0  0  0  0  0  0  0
    1.1675   24.5275    8.5985 C   0  0  1  0  0  0  0  0  0  0  0  0
    0.0325   25.0346   11.0567 C   0  0  2  0  0  0  0  0  0  0  0  0
    1.0002   23.9004   10.9639 C   0  0  2  0  0  0  0  0  0  0  0  0
    2.6676   26.0014    7.2716 C   0  0  0  0  0  0  0  0  0  0  0  0
   -2.4804   27.2388    9.9813 C   0  0  0  0  0  0  0  0  0  0  0  0
    0.6932   27.0185    8.1386 C   0  0  0  0  0  0  0  0  0  0  0  0
   -0.5090   27.2773    8.7737 C   0  0  0  0  0  0  0  0  0  0  0  0
   -0.3898   29.6833    7.9649 C   0  0  0  0  0  0  0  0  0  0  0  0
   -2.3486   28.5526    9.4992 C   0  0  0  0  0  0  0  0  0  0  0  0
    2.6765   27.3775    6.8344 C   0  0  0  0  0  0  0  0  0  0  0  0
    0.8064   29.4134    7.3209 C   0  0  0  0  0  0  0  0  0  0  0  0
   -1.0768   28.6116    8.7161 C   0  0  0  0  0  0  0  0  0  0  0  0
    1.3999   28.0457    7.3942 C   0  0  0  0  0  0  0  0  0  0  0  0
   -0.8891   25.0145    9.7585 C   0  0  1  0  0  0  0  0  0  0  0  0
    2.4780   24.4323   12.2430 H   0  0  0  0  0  0  0  0  0  0  0  0
    1.0026   28.0149   12.0023 H   0  0  0  0  0  0  0  0  0  0  0  0
   -0.5555   27.5552   11.8363 H   0  0  0  0  0  0  0  0  0  0  0  0
    0.3744   26.8838   12.9986 H   0  0  0  0  0  0  0  0  0  0  0  0
    2.8488   22.3378   13.1577 H   0  0  0  0  0  0  0  0  0  0  0  0
    1.6186   21.7306   12.2719 H   0  0  0  0  0  0  0  0  0  0  0  0
    2.9649   22.2813   11.5298 H   0  0  0  0  0  0  0  0  0  0  0  0
   -2.5930   24.4623   10.8187 H   0  0  0  0  0  0  0  0  0  0  0  0
   -2.6532   24.0374    9.2431 H   0  0  0  0  0  0  0  0  0  0  0  0
   -1.7288   23.1840   10.2842 H   0  0  0  0  0  0  0  0  0  0  0  0
   -1.5054   31.5657    8.0480 H   0  0  0  0  0  0  0  0  0  0  0  0
    5.5428   24.9938    5.8405 H   0  0  0  0  0  0  0  0  0  0  0  0
   -5.3984   27.6768   11.5831 H   0  0  0  0  0  0  0  0  0  0  0  0
    5.5682   27.3128    5.1201 H   0  0  0  0  0  0  0  0  0  0  0  0
   -5.1212   29.9126   10.7518 H   0  0  0  0  0  0  0  0  0  0  0  0
    3.7182   24.1661    7.2065 H   0  0  0  0  0  0  0  0  0  0  0  0
   -3.7539   26.0141   11.1458 H   0  0  0  0  0  0  0  0  0  0  0  0
   -3.1763   30.4629    9.4162 H   0  0  0  0  0  0  0  0  0  0  0  0
    3.7515   28.8069    5.7360 H   0  0  0  0  0  0  0  0  0  0  0  0
    2.5217   24.9870   10.1377 H   0  0  0  0  0  0  0  0  0  0  0  0
    2.5464   23.4083    9.7209 H   0  0  0  0  0  0  0  0  0  0  0  0
    1.4789   23.8740    7.9086 H   0  0  0  0  0  0  0  0  0  0  0  0
   -0.5387   24.9155   11.8688 H   0  0  0  0  0  0  0  0  0  0  0  0
    0.5104   23.0535   10.7569 H   0  0  0  0  0  0  0  0  0  0  0  0
  1 21  2  0  0  0  0
  2  8  1  0  0  0  0
  2 23  1  0  0  0  0
  3 22  1  0  0  0  0
  3 35  1  0  0  0  0
  4  9  1  0  0  0  0
  4 24  1  0  0  0  0
  5 11  2  0  0  0  0
  5 21  1  0  0  0  0
  6 22  1  0  0  0  0
  6 25  1  0  0  0  0
  6 27  1  0  0  0  0
  7 26  1  0  0  0  0
  7 28  1  0  0  0  0
  7 35  1  0  0  0  0
 10 35  1  0  0  0  0
 11 29  1  0  0  0  0
 12 14  2  0  0  0  0
 12 16  1  0  0  0  0
 13 15  2  0  0  0  0
 13 17  1  0  0  0  0
 14 19  1  0  0  0  0
 15 18  1  0  0  0  0
 16 25  2  0  0  0  0
 17 26  2  0  0  0  0
 18 30  2  0  0  0  0
 19 31  2  0  0  0  0
 20 22  1  0  0  0  0
 20 24  1  0  0  0  0
 21 32  1  0  0  0  0
 23 24  1  0  0  0  0
 23 35  1  0  0  0  0
 25 31  1  0  0  0  0
 26 30  1  0  0  0  0
 27 28  1  0  0  0  0
 27 34  2  0  0  0  0
 28 33  2  0  0  0  0
 29 32  2  0  0  0  0
 29 33  1  0  0  0  0
 30 33  1  0  0  0  0
 31 34  1  0  0  0  0
 32 34  1  0  0  0  0
  4 36  1  0  0  0  0
  8 37  1  0  0  0  0
  8 38  1  0  0  0  0
  8 39  1  0  0  0  0
  9 40  1  0  0  0  0
  9 41  1  0  0  0  0
  9 42  1  0  0  0  0
 10 43  1  0  0  0  0
 10 44  1  0  0  0  0
 10 45  1  0  0  0  0
 11 46  1  0  0  0  0
 12 47  1  0  0  0  0
 13 48  1  0  0  0  0
 14 49  1  0  0  0  0
 15 50  1  0  0  0  0
 16 51  1  0  0  0  0
 17 52  1  0  0  0  0
 18 53  1  0  0  0  0
 19 54  1  0  0  0  0
 20 55  1  0  0  0  0
 20 56  1  0  0  0  0
 22 57  1  0  0  0  0
 23 58  1  0  0  0  0
 24 59  1  0  0  0  0
M  END
> <pdb_id>
4ERW

> <uniprot_id>
P24941

> <usmiles>
O=C1N=Cc2c3c4N(c5c3cccc5)[C@]6(O[C@@H](N7c4c(c8c7cccc8)c21)C[C@@H](NC)[C@H]6OC)C

$$$$
STU_A_306
          07192419233D 1   1.00000     0.00000     0
            
 61 68  0  0  0  0            999 V2000
  -21.6510   40.3890    1.4550 O   0  0  0  0  0  0  0  0  0  0  0  0
  -15.9350   36.1960   -3.2830 O   0  0  0  0  0  0  0  0  0  0  0  0
  -19.4280   36.1510   -4.0800 O   0  0  0  0  0  0  0  0  0  0  0  0
  -15.8810   37.6390   -5.7070 N   0  0  0  0  0  0  0  0  0  0  0  0
  -20.2620   39.0860    2.7680 N   0  0  0  0  0  0  0  0  0  0  0  0
  -20.0550   38.1300   -3.1300 N   0  0  0  0  0  0  0  0  0  0  0  0
  -18.2290   35.7970   -1.9440 N   0  0  0  0  0  0  0  0  0  0  0  0
  -14.6700   35.5240   -3.4470 C   0  0  0  0  0  0  0  0  0  0  0  0
  -15.3380   36.6840   -6.6890 C   0  0  0  0  0  0  0  0  0  0  0  0
  -18.6330   33.9860   -3.7300 C   0  0  0  0  0  0  0  0  0  0  0  0
  -19.4500   37.8590    2.6070 C   0  0  0  0  0  0  0  0  0  0  0  0
  -22.4160   41.1410   -4.1280 C   0  0  0  0  0  0  0  0  0  0  0  0
  -15.8490   33.4570    0.0910 C   0  0  0  0  0  0  0  0  0  0  0  0
  -22.7190   41.5830   -2.7470 C   0  0  0  0  0  0  0  0  0  0  0  0
  -16.2100   33.9720    1.4150 C   0  0  0  0  0  0  0  0  0  0  0  0
  -21.5190   39.9870   -4.3630 C   0  0  0  0  0  0  0  0  0  0  0  0
  -16.4820   34.0080   -1.1110 C   0  0  0  0  0  0  0  0  0  0  0  0
  -17.1900   35.0480    1.5810 C   0  0  0  0  0  0  0  0  0  0  0  0
  -22.1230   40.8720   -1.5800 C   0  0  0  0  0  0  0  0  0  0  0  0
  -17.9710   38.0830   -4.5450 C   0  0  0  0  0  0  0  0  0  0  0  0
  -20.8350   39.4820    1.6050 C   0  0  0  0  0  0  0  0  0  0  0  0
  -19.3950   37.5300   -4.2450 C   0  0  1  0  0  0  0  0  0  0  0  0
  -16.9360   35.8110   -4.2280 C   0  0  2  0  0  0  0  0  0  0  0  0
  -17.1120   37.0040   -5.2070 C   0  0  2  0  0  0  0  0  0  0  0  0
  -20.9280   39.2780   -3.1940 C   0  0  0  0  0  0  0  0  0  0  0  0
  -17.4740   35.0930   -0.9550 C   0  0  0  0  0  0  0  0  0  0  0  0
  -19.8090   37.8480   -1.7900 C   0  0  0  0  0  0  0  0  0  0  0  0
  -18.9440   36.7940   -1.2360 C   0  0  0  0  0  0  0  0  0  0  0  0
  -19.4710   37.6630    1.1090 C   0  0  0  0  0  0  0  0  0  0  0  0
  -17.8100   35.6060    0.3860 C   0  0  0  0  0  0  0  0  0  0  0  0
  -21.2300   39.7230   -1.8260 C   0  0  0  0  0  0  0  0  0  0  0  0
  -20.3280   38.6580    0.5320 C   0  0  0  0  0  0  0  0  0  0  0  0
  -18.7700   36.7070    0.2050 C   0  0  0  0  0  0  0  0  0  0  0  0
  -20.5160   38.7810   -0.9270 C   0  0  0  0  0  0  0  0  0  0  0  0
  -18.3010   35.4770   -3.4590 C   0  0  1  0  0  0  0  0  0  0  0  0
  -16.0884   38.5142   -6.1440 H   0  0  0  0  0  0  0  0  0  0  0  0
  -20.3751   39.5684    3.6366 H   0  0  0  0  0  0  0  0  0  0  0  0
  -14.0282   35.8472   -2.7516 H   0  0  0  0  0  0  0  0  0  0  0  0
  -14.8011   34.5377   -3.3469 H   0  0  0  0  0  0  0  0  0  0  0  0
  -14.3033   35.7210   -4.3563 H   0  0  0  0  0  0  0  0  0  0  0  0
  -14.4917   37.0494   -7.0766 H   0  0  0  0  0  0  0  0  0  0  0  0
  -15.1484   35.8125   -6.2368 H   0  0  0  0  0  0  0  0  0  0  0  0
  -16.0054   36.5420   -7.4201 H   0  0  0  0  0  0  0  0  0  0  0  0
  -17.9146   33.4087   -3.3419 H   0  0  0  0  0  0  0  0  0  0  0  0
  -19.5096   33.7574   -3.3065 H   0  0  0  0  0  0  0  0  0  0  0  0
  -18.6888   33.8309   -4.7163 H   0  0  0  0  0  0  0  0  0  0  0  0
  -19.8663   37.0830    3.0809 H   0  0  0  0  0  0  0  0  0  0  0  0
  -18.5177   37.9935    2.9428 H   0  0  0  0  0  0  0  0  0  0  0  0
  -22.8192   41.6243   -4.9051 H   0  0  0  0  0  0  0  0  0  0  0  0
  -15.1694   32.7282    0.0075 H   0  0  0  0  0  0  0  0  0  0  0  0
  -23.3268   42.3627   -2.5966 H   0  0  0  0  0  0  0  0  0  0  0  0
  -15.7762   33.5787    2.2257 H   0  0  0  0  0  0  0  0  0  0  0  0
  -21.3126   39.6874   -5.2945 H   0  0  0  0  0  0  0  0  0  0  0  0
  -16.2476   33.6572   -2.0177 H   0  0  0  0  0  0  0  0  0  0  0  0
  -17.4272   35.3905    2.4901 H   0  0  0  0  0  0  0  0  0  0  0  0
  -22.3248   41.1685   -0.6465 H   0  0  0  0  0  0  0  0  0  0  0  0
  -17.5405   38.3682   -3.6886 H   0  0  0  0  0  0  0  0  0  0  0  0
  -18.0447   38.8689   -5.1589 H   0  0  0  0  0  0  0  0  0  0  0  0
  -19.9539   37.7333   -5.0490 H   0  0  0  0  0  0  0  0  0  0  0  0
  -16.6288   35.0044   -4.7330 H   0  0  0  0  0  0  0  0  0  0  0  0
  -17.6171   36.6662   -6.0012 H   0  0  0  0  0  0  0  0  0  0  0  0
  1 21  2  0  0  0  0
  2  8  1  0  0  0  0
  2 23  1  0  0  0  0
  3 22  1  0  0  0  0
  3 35  1  0  0  0  0
  4  9  1  0  0  0  0
  4 24  1  0  0  0  0
  5 11  1  0  0  0  0
  5 21  1  0  0  0  0
  6 22  1  0  0  0  0
  6 25  1  0  0  0  0
  6 27  1  0  0  0  0
  7 26  1  0  0  0  0
  7 28  1  0  0  0  0
  7 35  1  0  0  0  0
 10 35  1  0  0  0  0
 11 29  1  0  0  0  0
 12 14  2  0  0  0  0
 12 16  1  0  0  0  0
 13 15  2  0  0  0  0
 13 17  1  0  0  0  0
 14 19  1  0  0  0  0
 15 18  1  0  0  0  0
 16 25  2  0  0  0  0
 17 26  2  0  0  0  0
 18 30  2  0  0  0  0
 19 31  2  0  0  0  0
 20 22  1  0  0  0  0
 20 24  1  0  0  0  0
 21 32  1  0  0  0  0
 23 24  1  0  0  0  0
 23 35  1  0  0  0  0
 25 31  1  0  0  0  0
 26 30  1  0  0  0  0
 27 28  1  0  0  0  0
 27 34  2  0  0  0  0
 28 33  2  0  0  0  0
 29 32  2  0  0  0  0
 29 33  1  0  0  0  0
 30 33  1  0  0  0  0
 31 34  1  0  0  0  0
 32 34  1  0  0  0  0
  4 36  1  0  0  0  0
  5 37  1  0  0  0  0
  8 38  1  0  0  0  0
  8 39  1  0  0  0  0
  8 40  1  0  0  0  0
  9 41  1  0  0  0  0
  9 42  1  0  0  0  0
  9 43  1  0  0  0  0
 10 44  1  0  0  0  0
 10 45  1  0  0  0  0
 10 46  1  0  0  0  0
 11 47  1  0  0  0  0
 11 48  1  0  0  0  0
 12 49  1  0  0  0  0
 13 50  1  0  0  0  0
 14 51  1  0  0  0  0
 15 52  1  0  0  0  0
 16 53  1  0  0  0  0
 17 54  1  0  0  0  0
 18 55  1  0  0  0  0
 19 56  1  0  0  0  0
 20 57  1  0  0  0  0
 20 58  1  0  0  0  0
 22 59  1  0  0  0  0
 23 60  1  0  0  0  0
 24 61  1  0  0  0  0
M  END
> <pdb_id>
1YHS

> <uniprot_id>
P11309

> <usmiles>
O=C1NCc2c3c4N(c5c3cccc5)[C@]6(O[C@@H](N7c4c(c8c7cccc8)c21)C[C@@H](NC)[C@H]6OC)C

$$$$
STU_A_400
          07202402503D 1   1.00000     0.00000     0
            
 61 68  0  0  0  0            999 V2000
    4.4950   10.3560   20.1050 O   0  0  0  0  0  0  0  0  0  0  0  0
    4.2020    5.9960   14.5360 O   0  0  0  0  0  0  0  0  0  0  0  0
    4.1090    3.8420   16.8980 O   0  0  0  0  0  0  0  0  0  0  0  0
    2.1760    4.1590   13.2070 N   0  0  0  0  0  0  0  0  0  0  0  0
    6.6460   10.1510   19.3150 N   0  0  0  0  0  0  0  0  0  0  0  0
    3.1040    5.8480   17.6020 N   0  0  0  0  0  0  0  0  0  0  0  0
    6.0370    5.1320   16.2960 N   0  0  0  0  0  0  0  0  0  0  0  0
    5.1750    6.6630   13.7510 C   0  0  0  0  0  0  0  0  0  0  0  0
    2.9260    3.5080   12.0710 C   0  0  0  0  0  0  0  0  0  0  0  0
    5.6760    2.6840   15.6240 C   0  0  0  0  0  0  0  0  0  0  0  0
    7.5090    9.2890   18.5160 C   0  0  0  0  0  0  0  0  0  0  0  0
    0.0180    7.1080   19.2520 C   0  0  0  0  0  0  0  0  0  0  0  0
    9.6440    5.0670   15.0540 C   0  0  0  0  0  0  0  0  0  0  0  0
    0.6160    8.2760   19.8560 C   0  0  0  0  0  0  0  0  0  0  0  0
   10.0920    6.2950   15.6990 C   0  0  0  0  0  0  0  0  0  0  0  0
    0.7880    6.2280   18.4640 C   0  0  0  0  0  0  0  0  0  0  0  0
    8.3350    4.6050   15.2010 C   0  0  0  0  0  0  0  0  0  0  0  0
    9.1290    6.9900   16.4930 C   0  0  0  0  0  0  0  0  0  0  0  0
    1.9710    8.5510   19.6730 C   0  0  0  0  0  0  0  0  0  0  0  0
    2.1340    4.5600   15.7110 C   0  0  0  0  0  0  0  0  0  0  0  0
    5.3800    9.7830   19.4780 C   0  0  0  0  0  0  0  0  0  0  0  0
    2.8780    4.4680   17.0890 C   0  0  1  0  0  0  0  0  0  0  0  0
    4.3910    4.5500   14.5100 C   0  0  2  0  0  0  0  0  0  0  0  0
    2.9710    3.9240   14.5620 C   0  0  2  0  0  0  0  0  0  0  0  0
    2.1730    6.5290   18.2940 C   0  0  0  0  0  0  0  0  0  0  0  0
    7.4000    5.3150   15.9840 C   0  0  0  0  0  0  0  0  0  0  0  0
    4.3440    6.4920   17.6880 C   0  0  0  0  0  0  0  0  0  0  0  0
    5.5620    6.2030   17.1420 C   0  0  0  0  0  0  0  0  0  0  0  0
    6.4950    8.2250   18.1650 C   0  0  0  0  0  0  0  0  0  0  0  0
    7.8090    6.5300   16.6450 C   0  0  0  0  0  0  0  0  0  0  0  0
    2.7840    7.6920   18.8930 C   0  0  0  0  0  0  0  0  0  0  0  0
    5.3020    8.5120   18.7060 C   0  0  0  0  0  0  0  0  0  0  0  0
    6.7090    7.0610   17.3510 C   0  0  0  0  0  0  0  0  0  0  0  0
    4.1150    7.6680   18.5110 C   0  0  0  0  0  0  0  0  0  0  0  0
    5.0460    4.0680   15.8630 C   0  0  1  0  0  0  0  0  0  0  0  0
    1.2640    3.7553   13.2802 H   0  0  0  0  0  0  0  0  0  0  0  0
    6.9960   10.9923   19.7271 H   0  0  0  0  0  0  0  0  0  0  0  0
    5.0164    7.6495   13.7910 H   0  0  0  0  0  0  0  0  0  0  0  0
    6.0872    6.4574   14.1053 H   0  0  0  0  0  0  0  0  0  0  0  0
    5.1080    6.3528   12.8027 H   0  0  0  0  0  0  0  0  0  0  0  0
    2.4283    3.6539   11.2160 H   0  0  0  0  0  0  0  0  0  0  0  0
    3.8380    3.9119   11.9989 H   0  0  0  0  0  0  0  0  0  0  0  0
    3.0088    2.5268   12.2452 H   0  0  0  0  0  0  0  0  0  0  0  0
    6.3602    2.7501   14.8977 H   0  0  0  0  0  0  0  0  0  0  0  0
    6.1130    2.3668   16.4657 H   0  0  0  0  0  0  0  0  0  0  0  0
    4.9641    2.0359   15.3534 H   0  0  0  0  0  0  0  0  0  0  0  0
    8.2721    8.9220   19.0479 H   0  0  0  0  0  0  0  0  0  0  0  0
    7.8619    9.7559   17.7051 H   0  0  0  0  0  0  0  0  0  0  0  0
   -0.9540    6.9212   19.3945 H   0  0  0  0  0  0  0  0  0  0  0  0
   10.2877    4.5447   14.4946 H   0  0  0  0  0  0  0  0  0  0  0  0
    0.0546    8.8916   20.4091 H   0  0  0  0  0  0  0  0  0  0  0  0
   11.0266    6.6340   15.5911 H   0  0  0  0  0  0  0  0  0  0  0  0
    0.3780    5.4210   18.0390 H   0  0  0  0  0  0  0  0  0  0  0  0
    8.0561    3.7596   14.7454 H   0  0  0  0  0  0  0  0  0  0  0  0
    9.4031    7.8326   16.9566 H   0  0  0  0  0  0  0  0  0  0  0  0
    2.3728    9.3628   20.0967 H   0  0  0  0  0  0  0  0  0  0  0  0
    1.9671    5.5223   15.4962 H   0  0  0  0  0  0  0  0  0  0  0  0
    1.2607    4.0778   15.7812 H   0  0  0  0  0  0  0  0  0  0  0  0
    2.3270    3.9469   17.7409 H   0  0  0  0  0  0  0  0  0  0  0  0
    4.9092    4.2494   13.7093 H   0  0  0  0  0  0  0  0  0  0  0  0
    3.0540    2.9409   14.7249 H   0  0  0  0  0  0  0  0  0  0  0  0
  1 21  2  0  0  0  0
  2  8  1  0  0  0  0
  2 23  1  0  0  0  0
  3 22  1  0  0  0  0
  3 35  1  0  0  0  0
  4  9  1  0  0  0  0
  4 24  1  0  0  0  0
  5 11  1  0  0  0  0
  5 21  1  0  0  0  0
  6 22  1  0  0  0  0
  6 25  1  0  0  0  0
  6 27  1  0  0  0  0
  7 26  1  0  0  0  0
  7 28  1  0  0  0  0
  7 35  1  0  0  0  0
 10 35  1  0  0  0  0
 11 29  1  0  0  0  0
 12 14  2  0  0  0  0
 12 16  1  0  0  0  0
 13 15  2  0  0  0  0
 13 17  1  0  0  0  0
 14 19  1  0  0  0  0
 15 18  1  0  0  0  0
 16 25  2  0  0  0  0
 17 26  2  0  0  0  0
 18 30  2  0  0  0  0
 19 31  2  0  0  0  0
 20 22  1  0  0  0  0
 20 24  1  0  0  0  0
 21 32  1  0  0  0  0
 23 24  1  0  0  0  0
 23 35  1  0  0  0  0
 25 31  1  0  0  0  0
 26 30  1  0  0  0  0
 27 28  1  0  0  0  0
 27 34  2  0  0  0  0
 28 33  2  0  0  0  0
 29 32  2  0  0  0  0
 29 33  1  0  0  0  0
 30 33  1  0  0  0  0
 31 34  1  0  0  0  0
 32 34  1  0  0  0  0
  4 36  1  0  0  0  0
  5 37  1  0  0  0  0
  8 38  1  0  0  0  0
  8 39  1  0  0  0  0
  8 40  1  0  0  0  0
  9 41  1  0  0  0  0
  9 42  1  0  0  0  0
  9 43  1  0  0  0  0
 10 44  1  0  0  0  0
 10 45  1  0  0  0  0
 10 46  1  0  0  0  0
 11 47  1  0  0  0  0
 11 48  1  0  0  0  0
 12 49  1  0  0  0  0
 13 50  1  0  0  0  0
 14 51  1  0  0  0  0
 15 52  1  0  0  0  0
 16 53  1  0  0  0  0
 17 54  1  0  0  0  0
 18 55  1  0  0  0  0
 19 56  1  0  0  0  0
 20 57  1  0  0  0  0
 20 58  1  0  0  0  0
 22 59  1  0  0  0  0
 23 60  1  0  0  0  0
 24 61  1  0  0  0  0
M  END
> <pdb_id>
1NVR

> <uniprot_id>
O14757

> <usmiles>
O=C1NCc2c3c4N(c5c3cccc5)[C@]6(O[C@@H](N7c4c(c8c7cccc8)c21)C[C@@H](NC)[C@H]6OC)C

$$$$
STU_A_451
          07202403123D 1   1.00000     0.00000     0
            
 61 68  0  0  0  0            999 V2000
   41.8680    8.0920   37.2510 O   0  0  0  0  0  0  0  0  0  0  0  0
   37.9400    6.1060   31.8040 O   0  0  0  0  0  0  0  0  0  0  0  0
   40.4260    7.2110   30.1210 O   0  0  0  0  0  0  0  0  0  0  0  0
   37.5720    3.9090   29.9630 N   0  0  0  0  0  0  0  0  0  0  0  0
   40.1490    9.6710   37.0110 N   0  0  0  0  0  0  0  0  0  0  0  0
   41.0170    6.3890   32.2050 N   0  0  0  0  0  0  0  0  0  0  0  0
   38.8810    8.5890   31.3470 N   0  0  0  0  0  0  0  0  0  0  0  0
   36.6650    6.3720   32.4410 C   0  0  0  0  0  0  0  0  0  0  0  0
   36.4640    3.8880   28.9580 C   0  0  0  0  0  0  0  0  0  0  0  0
   38.8300    8.2060   28.7750 C   0  0  0  0  0  0  0  0  0  0  0  0
   39.3860   10.2770   35.9720 C   0  0  0  0  0  0  0  0  0  0  0  0
   43.4490    3.9950   33.7140 C   0  0  0  0  0  0  0  0  0  0  0  0
   36.2810   11.4040   31.0730 C   0  0  0  0  0  0  0  0  0  0  0  0
   43.4700    4.5600   35.0160 C   0  0  0  0  0  0  0  0  0  0  0  0
   36.4690   11.9420   32.4000 C   0  0  0  0  0  0  0  0  0  0  0  0
   42.6520    4.4930   32.6490 C   0  0  0  0  0  0  0  0  0  0  0  0
   37.0320   10.3000   30.6100 C   0  0  0  0  0  0  0  0  0  0  0  0
   37.4110   11.3740   33.2760 C   0  0  0  0  0  0  0  0  0  0  0  0
   42.6940    5.6880   35.3840 C   0  0  0  0  0  0  0  0  0  0  0  0
   39.9570    4.7650   30.4360 C   0  0  0  0  0  0  0  0  0  0  0  0
   40.9550    8.6580   36.5920 C   0  0  0  0  0  0  0  0  0  0  0  0
   40.7830    6.0300   30.8000 C   0  0  1  0  0  0  0  0  0  0  0  0
   38.0210    6.3510   30.3680 C   0  0  2  0  0  0  0  0  0  0  0  0
   38.5770    4.9940   29.7840 C   0  0  2  0  0  0  0  0  0  0  0  0
   41.8630    5.6530   33.0380 C   0  0  0  0  0  0  0  0  0  0  0  0
   38.0110    9.6980   31.4950 C   0  0  0  0  0  0  0  0  0  0  0  0
   40.5000    7.4290   32.9490 C   0  0  0  0  0  0  0  0  0  0  0  0
   39.5630    8.4540   32.5410 C   0  0  0  0  0  0  0  0  0  0  0  0
   39.6690    9.3810   34.7880 C   0  0  0  0  0  0  0  0  0  0  0  0
   38.1890   10.2330   32.8200 C   0  0  0  0  0  0  0  0  0  0  0  0
   41.8700    6.2410   34.3300 C   0  0  0  0  0  0  0  0  0  0  0  0
   40.5750    8.3860   35.1900 C   0  0  0  0  0  0  0  0  0  0  0  0
   39.1580    9.4250   33.4730 C   0  0  0  0  0  0  0  0  0  0  0  0
   41.0080    7.3750   34.2620 C   0  0  0  0  0  0  0  0  0  0  0  0
   39.0100    7.6130   30.1950 C   0  0  1  0  0  0  0  0  0  0  0  0
   38.0515    3.0329   29.9119 H   0  0  0  0  0  0  0  0  0  0  0  0
   40.0968    9.9646   37.9655 H   0  0  0  0  0  0  0  0  0  0  0  0
   36.7315    6.1686   33.4178 H   0  0  0  0  0  0  0  0  0  0  0  0
   36.4246    7.3347   32.3166 H   0  0  0  0  0  0  0  0  0  0  0  0
   35.9594    5.7962   32.0279 H   0  0  0  0  0  0  0  0  0  0  0  0
   35.8447    3.1294   29.1604 H   0  0  0  0  0  0  0  0  0  0  0  0
   35.9595    4.7504   29.0000 H   0  0  0  0  0  0  0  0  0  0  0  0
   36.8471    3.7702   28.0419 H   0  0  0  0  0  0  0  0  0  0  0  0
   37.8910    8.5323   28.6666 H   0  0  0  0  0  0  0  0  0  0  0  0
   39.4645    8.9687   28.6494 H   0  0  0  0  0  0  0  0  0  0  0  0
   39.0184    7.4998   28.0925 H   0  0  0  0  0  0  0  0  0  0  0  0
   39.6928   11.2127   35.7978 H   0  0  0  0  0  0  0  0  0  0  0  0
   38.4114   10.2819   36.1959 H   0  0  0  0  0  0  0  0  0  0  0  0
   44.0291    3.2001   33.5362 H   0  0  0  0  0  0  0  0  0  0  0  0
   35.6037   11.8224   30.4678 H   0  0  0  0  0  0  0  0  0  0  0  0
   44.0604    4.1424   35.7067 H   0  0  0  0  0  0  0  0  0  0  0  0
   35.9243   12.7256   32.6986 H   0  0  0  0  0  0  0  0  0  0  0  0
   42.6347    4.0913   31.7334 H   0  0  0  0  0  0  0  0  0  0  0  0
   36.8909    9.9399   29.6878 H   0  0  0  0  0  0  0  0  0  0  0  0
   37.5433   11.7472   34.1943 H   0  0  0  0  0  0  0  0  0  0  0  0
   42.7144    6.0742   36.3062 H   0  0  0  0  0  0  0  0  0  0  0  0
   39.8104    4.2474   31.2790 H   0  0  0  0  0  0  0  0  0  0  0  0
   40.5041    4.2197   29.8009 H   0  0  0  0  0  0  0  0  0  0  0  0
   41.6977    5.8240   30.4524 H   0  0  0  0  0  0  0  0  0  0  0  0
   37.1172    6.5549   29.9917 H   0  0  0  0  0  0  0  0  0  0  0  0
   38.7198    5.1195   28.8022 H   0  0  0  0  0  0  0  0  0  0  0  0
  1 21  2  0  0  0  0
  2  8  1  0  0  0  0
  2 23  1  0  0  0  0
  3 22  1  0  0  0  0
  3 35  1  0  0  0  0
  4  9  1  0  0  0  0
  4 24  1  0  0  0  0
  5 11  1  0  0  0  0
  5 21  1  0  0  0  0
  6 22  1  0  0  0  0
  6 25  1  0  0  0  0
  6 27  1  0  0  0  0
  7 26  1  0  0  0  0
  7 28  1  0  0  0  0
  7 35  1  0  0  0  0
 10 35  1  0  0  0  0
 11 29  1  0  0  0  0
 12 14  2  0  0  0  0
 12 16  1  0  0  0  0
 13 15  2  0  0  0  0
 13 17  1  0  0  0  0
 14 19  1  0  0  0  0
 15 18  1  0  0  0  0
 16 25  2  0  0  0  0
 17 26  2  0  0  0  0
 18 30  2  0  0  0  0
 19 31  2  0  0  0  0
 20 22  1  0  0  0  0
 20 24  1  0  0  0  0
 21 32  1  0  0  0  0
 23 24  1  0  0  0  0
 23 35  1  0  0  0  0
 25 31  1  0  0  0  0
 26 30  1  0  0  0  0
 27 28  1  0  0  0  0
 27 34  2  0  0  0  0
 28 33  2  0  0  0  0
 29 32  2  0  0  0  0
 29 33  1  0  0  0  0
 30 33  1  0  0  0  0
 31 34  1  0  0  0  0
 32 34  1  0  0  0  0
  4 36  1  0  0  0  0
  5 37  1  0  0  0  0
  8 38  1  0  0  0  0
  8 39  1  0  0  0  0
  8 40  1  0  0  0  0
  9 41  1  0  0  0  0
  9 42  1  0  0  0  0
  9 43  1  0  0  0  0
 10 44  1  0  0  0  0
 10 45  1  0  0  0  0
 10 46  1  0  0  0  0
 11 47  1  0  0  0  0
 11 48  1  0  0  0  0
 12 49  1  0  0  0  0
 13 50  1  0  0  0  0
 14 51  1  0  0  0  0
 15 52  1  0  0  0  0
 16 53  1  0  0  0  0
 17 54  1  0  0  0  0
 18 55  1  0  0  0  0
 19 56  1  0  0  0  0
 20 57  1  0  0  0  0
 20 58  1  0  0  0  0
 22 59  1  0  0  0  0
 23 60  1  0  0  0  0
 24 61  1  0  0  0  0
M  END
> <pdb_id>
1Q3D

> <uniprot_id>
P49841

> <usmiles>
O=C1NCc2c3c4N(c5c3cccc5)[C@]6(O[C@@H](N7c4c(c8c7cccc8)c21)C[C@@H](NC)[C@H]6OC)C

$$$$
SU0_A_263
          07192416293D 1   1.00000     0.00000     0
            
 43 45  0  0  0  0            999 V2000
   -5.8526    1.0165   16.8148 S   0  0  0  0  0  0  0  0  0  0  0  0
   -7.2644    1.0484   16.6895 O   0  0  0  0  0  0  0  0  0  0  0  0
   -5.3596    1.2234   18.1529 O   0  0  0  0  0  0  0  0  0  0  0  0
   -0.1397    9.3025   15.6623 O   0  0  0  0  0  0  0  0  0  0  0  0
   -4.6459    6.5341   12.9744 O   0  0  0  0  0  0  0  0  0  0  0  0
   -3.6624   13.5370   11.2643 O   0  0  0  0  0  0  0  0  0  0  0  0
   -1.0563   10.6342   14.1829 O   0  0  0  0  0  0  0  0  0  0  0  0
   -5.1597   -0.2684   16.1766 N   0  0  0  0  0  0  0  0  0  0  0  0
   -2.9341    5.1799   13.6520 N   0  0  0  0  0  0  0  0  0  0  0  0
   -2.8164   14.7062   11.3592 C   0  0  0  0  0  0  0  0  0  0  0  0
   -3.6696    2.1888   15.6247 C   0  0  0  0  0  0  0  0  0  0  0  0
   -5.8630    3.3573   15.3579 C   0  0  0  0  0  0  0  0  0  0  0  0
   -3.8543   11.0312   10.9854 C   0  0  0  0  0  0  0  0  0  0  0  0
   -3.0353    3.1465   14.8909 C   0  0  0  0  0  0  0  0  0  0  0  0
   -5.1676    4.4008   14.5479 C   0  0  0  0  0  0  0  0  0  0  0  0
   -3.4540    9.7632   11.3397 C   0  0  0  0  0  0  0  0  0  0  0  0
   -1.2733    8.1678   14.0258 C   0  0  0  0  0  0  0  0  0  0  0  0
   -2.3948   12.0761   12.7036 C   0  0  0  0  0  0  0  0  0  0  0  0
   -2.4284    7.0271   12.0534 C   0  0  0  0  0  0  0  0  0  0  0  0
   -0.8262    9.3446   14.6451 C   0  0  0  0  0  0  0  0  0  0  0  0
   -3.4577    6.2276   12.8381 C   0  0  0  0  0  0  0  0  0  0  0  0
   -5.1279    2.3197   15.8670 C   0  0  0  0  0  0  0  0  0  0  0  0
   -3.2822   12.2442   11.6717 C   0  0  0  0  0  0  0  0  0  0  0  0
   -1.9446   10.7231   13.0793 C   0  0  0  0  0  0  0  0  0  0  0  0
   -3.8043    4.2751   14.3593 C   0  0  0  0  0  0  0  0  0  0  0  0
   -2.0245    8.2354   12.8485 C   0  0  0  0  0  0  0  0  0  0  0  0
   -2.4737    9.5893   12.4478 C   0  0  0  0  0  0  0  0  0  0  0  0
   -5.2214   -0.4200   15.2850 H   0  0  0  0  0  0  0  0  0  0  0  0
   -2.0521    4.9796   13.5930 H   0  0  0  0  0  0  0  0  0  0  0  0
   -2.0076   14.5655   10.8339 H   0  0  0  0  0  0  0  0  0  0  0  0
   -3.2958   15.4832   11.0162 H   0  0  0  0  0  0  0  0  0  0  0  0
   -2.5758   14.8579   12.2921 H   0  0  0  0  0  0  0  0  0  0  0  0
   -3.1722    1.4408   15.9937 H   0  0  0  0  0  0  0  0  0  0  0  0
   -6.8183    3.4139   15.5222 H   0  0  0  0  0  0  0  0  0  0  0  0
   -4.4841   11.1471   10.2581 H   0  0  0  0  0  0  0  0  0  0  0  0
   -2.0821    3.0900   14.7345 H   0  0  0  0  0  0  0  0  0  0  0  0
   -5.6530    5.1598   14.1879 H   0  0  0  0  0  0  0  0  0  0  0  0
   -3.8204    8.9909   10.8844 H   0  0  0  0  0  0  0  0  0  0  0  0
   -0.9331    7.3559   14.4317 H   0  0  0  0  0  0  0  0  0  0  0  0
   -2.0194   12.8493   13.1499 H   0  0  0  0  0  0  0  0  0  0  0  0
   -2.8201    7.3067   11.2059 H   0  0  0  0  0  0  0  0  0  0  0  0
   -1.6432    6.4795   11.8832 H   0  0  0  0  0  0  0  0  0  0  0  0
   -5.5540   -1.0660   16.6332 H   0  0  0  0  0  0  0  0  0  0  0  0
  1  2  2  0  0  0  0
  1  3  2  0  0  0  0
  1  8  1  0  0  0  0
  1 22  1  0  0  0  0
  4 20  2  0  0  0  0
  5 21  2  0  0  0  0
  6 10  1  0  0  0  0
  6 23  1  0  0  0  0
  7 20  1  0  0  0  0
  7 24  1  0  0  0  0
  8 28  1  0  0  0  0
  9 21  1  0  0  0  0
  9 25  1  0  0  0  0
  9 29  1  0  0  0  0
 10 30  1  0  0  0  0
 10 31  1  0  0  0  0
 10 32  1  0  0  0  0
 11 14  1  0  0  0  0
 11 22  2  0  0  0  0
 11 33  1  0  0  0  0
 12 15  2  0  0  0  0
 12 22  1  0  0  0  0
 12 34  1  0  0  0  0
 13 16  1  0  0  0  0
 13 23  2  0  0  0  0
 13 35  1  0  0  0  0
 14 25  2  0  0  0  0
 14 36  1  0  0  0  0
 15 25  1  0  0  0  0
 15 37  1  0  0  0  0
 16 27  2  0  0  0  0
 16 38  1  0  0  0  0
 17 20  1  0  0  0  0
 17 26  2  0  0  0  0
 17 39  1  0  0  0  0
 18 23  1  0  0  0  0
 18 24  2  0  0  0  0
 18 40  1  0  0  0  0
 19 21  1  0  0  0  0
 19 26  1  0  0  0  0
 19 41  1  0  0  0  0
 19 42  1  0  0  0  0
 24 27  1  0  0  0  0
 26 27  1  0  0  0  0
  8 43  1  0  0  0  0
M  END
> <pdb_id>
3ML2

> <uniprot_id>
P00918

> <usmiles>
S(=O)(=O)(N)c1ccc(NC(=O)CC=2c3c(OC(=O)C2)cc(OC)cc3)cc1

$$$$
SU9_A_301
          07192421083D 1   1.00000     0.00000     0
            
 29 31  0  0  0  0            999 V2000
    2.4743   30.3843    5.9482 O   0  0  0  0  0  0  0  0  0  0  0  0
   -2.6613   28.5293   10.8003 O   0  0  0  0  0  0  0  0  0  0  0  0
    5.0986   26.2338    6.6313 N   0  0  0  0  0  0  0  0  0  0  0  0
    4.0575   28.1411    6.2374 N   0  0  0  0  0  0  0  0  0  0  0  0
    0.5564   31.0927    6.9611 N   0  0  0  0  0  0  0  0  0  0  0  0
   -2.1117   27.5386   11.6667 C   0  0  0  0  0  0  0  0  0  0  0  0
    5.1171   27.4057    5.9551 C   0  0  0  0  0  0  0  0  0  0  0  0
    3.9459   26.2368    7.3881 C   0  0  0  0  0  0  0  0  0  0  0  0
   -2.2447   30.4523    9.4051 C   0  0  0  0  0  0  0  0  0  0  0  0
   -1.5089   31.1916    8.4394 C   0  0  0  0  0  0  0  0  0  0  0  0
   -0.6629   28.5725    9.2969 C   0  0  0  0  0  0  0  0  0  0  0  0
    2.0592   27.8230    7.7584 C   0  0  0  0  0  0  0  0  0  0  0  0
    1.5583   30.1675    6.7496 C   0  0  0  0  0  0  0  0  0  0  0  0
   -1.8562   29.1405    9.8587 C   0  0  0  0  0  0  0  0  0  0  0  0
    3.3111   27.4397    7.1278 C   0  0  0  0  0  0  0  0  0  0  0  0
   -0.3386   30.5891    7.9091 C   0  0  0  0  0  0  0  0  0  0  0  0
    1.3128   28.9753    7.6192 C   0  0  0  0  0  0  0  0  0  0  0  0
    0.0855   29.2915    8.3323 C   0  0  0  0  0  0  0  0  0  0  0  0
    3.8450   29.0447    5.8653 H   0  0  0  0  0  0  0  0  0  0  0  0
    0.4826   31.9813    6.5084 H   0  0  0  0  0  0  0  0  0  0  0  0
   -2.8243   27.2013   12.2818 H   0  0  0  0  0  0  0  0  0  0  0  0
   -1.7553   26.7797   11.1216 H   0  0  0  0  0  0  0  0  0  0  0  0
   -1.3701   27.9401   12.2041 H   0  0  0  0  0  0  0  0  0  0  0  0
    5.8412   27.6798    5.3221 H   0  0  0  0  0  0  0  0  0  0  0  0
    3.6309   25.5139    8.0030 H   0  0  0  0  0  0  0  0  0  0  0  0
   -3.0723   30.8624    9.7885 H   0  0  0  0  0  0  0  0  0  0  0  0
   -1.8043   32.1005    8.1453 H   0  0  0  0  0  0  0  0  0  0  0  0
   -0.3588   27.6653    9.5877 H   0  0  0  0  0  0  0  0  0  0  0  0
    1.6801   27.1475    8.3908 H   0  0  0  0  0  0  0  0  0  0  0  0
  1 13  2  0  0  0  0
  2  6  1  0  0  0  0
  2 14  1  0  0  0  0
  3  7  2  0  0  0  0
  3  8  1  0  0  0  0
  4  7  1  0  0  0  0
  4 15  1  0  0  0  0
  5 13  1  0  0  0  0
  5 16  1  0  0  0  0
  8 15  2  0  0  0  0
  9 10  1  0  0  0  0
  9 14  2  0  0  0  0
 10 16  2  0  0  0  0
 11 14  1  0  0  0  0
 11 18  2  0  0  0  0
 12 15  1  0  0  0  0
 12 17  2  0  0  0  0
 13 17  1  0  0  0  0
 16 18  1  0  0  0  0
 17 18  1  0  0  0  0
  4 19  1  0  0  0  0
  5 20  1  0  0  0  0
  6 21  1  0  0  0  0
  6 22  1  0  0  0  0
  6 23  1  0  0  0  0
  7 24  1  0  0  0  0
  8 25  1  0  0  0  0
  9 26  1  0  0  0  0
 10 27  1  0  0  0  0
 11 28  1  0  0  0  0
 12 29  1  0  0  0  0
M  END
> <pdb_id>
3PY0

> <uniprot_id>
P24941

> <usmiles>
O=C/1Nc2c(cc(OC)cc2)\C1=C\C=3NC=NC3

$$$$
SUF_A_3001
          07192421513D 1   1.00000     0.00000     0
            
 27 26  0  0  0  0            999 V2000
   10.4466   18.9115  174.4345 S   0  3  0  0  0  0  0  0  0  0  0  0
   11.6344   14.6271  174.8445 P   0  0  0  0  0  0  0  0  0  0  0  0
   12.6621   17.2004  176.1742 P   0  0  0  0  0  0  0  0  0  0  0  0
   11.9925   13.7371  176.0098 O   0  0  0  0  0  0  0  0  0  0  0  0
   12.8441   14.8193  173.8909 O   0  0  0  0  0  0  0  0  0  0  0  0
   10.4191   14.1103  174.1090 O   0  0  0  0  0  0  0  0  0  0  0  0
   13.7792   17.3272  175.1826 O   0  0  0  0  0  0  0  0  0  0  0  0
   12.1944   18.5978  176.6934 O   0  0  0  0  0  0  0  0  0  0  0  0
   12.9622   16.3710  177.4238 O   0  0  0  0  0  0  0  0  0  0  0  0
   10.1532   16.2220  176.4141 O   0  0  0  0  0  0  0  0  0  0  0  0
    9.1769   19.0440  175.7061 C   0  0  0  0  0  0  0  0  0  0  0  0
    9.6663   19.4292  172.9193 C   0  0  0  0  0  0  0  0  0  0  0  0
   10.6341   17.0968  174.1973 C   0  0  0  0  0  0  0  0  0  0  0  0
   11.2010   16.3248  175.4323 C   0  0  0  0  0  0  0  0  0  0  0  0
   11.1963   13.6315  176.6055 H   0  0  0  0  0  0  0  0  0  0  0  0
   12.5782   15.4116  173.1303 H   0  0  0  0  0  0  0  0  0  0  0  0
   14.0536   16.4173  174.8715 H   0  0  0  0  0  0  0  0  0  0  0  0
   11.4507   18.4773  177.3509 H   0  0  0  0  0  0  0  0  0  0  0  0
    9.9105   17.1359  176.7395 H   0  0  0  0  0  0  0  0  0  0  0  0
    9.5575   18.7644  176.5876 H   0  0  0  0  0  0  0  0  0  0  0  0
    8.8613   19.9910  175.7646 H   0  0  0  0  0  0  0  0  0  0  0  0
    8.4073   18.4500  175.4719 H   0  0  0  0  0  0  0  0  0  0  0  0
   10.3262   19.3772  172.1698 H   0  0  0  0  0  0  0  0  0  0  0  0
    8.8903   18.8300  172.7224 H   0  0  0  0  0  0  0  0  0  0  0  0
    9.3442   20.3711  173.0151 H   0  0  0  0  0  0  0  0  0  0  0  0
   11.2535   16.9469  173.4267 H   0  0  0  0  0  0  0  0  0  0  0  0
    9.7345   16.7176  173.9806 H   0  0  0  0  0  0  0  0  0  0  0  0
  1 11  1  0  0  0  0
  1 12  1  0  0  0  0
  1 13  1  0  0  0  0
  2  4  1  0  0  0  0
  2  5  1  0  0  0  0
  2  6  2  0  0  0  0
  2 14  1  0  0  0  0
  3  7  1  0  0  0  0
  3  8  1  0  0  0  0
  3  9  2  0  0  0  0
  3 14  1  0  0  0  0
 10 14  1  0  0  0  0
 13 14  1  0  0  0  0
  4 15  1  0  0  0  0
  5 16  1  0  0  0  0
  7 17  1  0  0  0  0
  8 18  1  0  0  0  0
 10 19  1  0  0  0  0
 11 20  1  0  0  0  0
 11 21  1  0  0  0  0
 11 22  1  0  0  0  0
 12 23  1  0  0  0  0
 12 24  1  0  0  0  0
 12 25  1  0  0  0  0
 13 26  1  0  0  0  0
 13 27  1  0  0  0  0
M  CHG  1   1   1
M  END
> <pdb_id>
2OGD

> <uniprot_id>
Q86C09

> <usmiles>
[S+](CC(P(=O)(O)O)(P(=O)(O)O)O)(C)C

$$$$
SUQ_A_506
          07202416263D 1   1.00000     0.00000     0
            
 25 27  0  0  0  0            999 V2000
   31.1969   66.1344   73.0815 Cl  0  0  0  0  0  0  0  0  0  0  0  0
   26.4488   70.1325   72.3129 S   0  0  0  0  0  0  0  0  0  0  0  0
   21.0494   70.8387   71.9896 O   0  0  0  0  0  0  0  0  0  0  0  0
   20.4053   68.5913   72.2257 N   0  0  0  0  0  0  0  0  0  0  0  0
   21.1631   67.4231   72.3974 N   0  0  0  0  0  0  0  0  0  0  0  0
   23.8101   69.8018   72.2305 N   0  0  0  0  0  0  0  0  0  0  0  0
   22.6275   69.1418   72.2637 N   0  0  0  0  0  0  0  0  0  0  0  0
   24.9869   67.7512   72.5148 C   0  0  0  0  0  0  0  0  0  0  0  0
   29.2806   67.3612   71.6193 C   0  0  0  0  0  0  0  0  0  0  0  0
   29.4414   68.0101   73.9496 C   0  0  0  0  0  0  0  0  0  0  0  0
   28.2274   68.2329   71.4509 C   0  0  0  0  0  0  0  0  0  0  0  0
   28.3932   68.8789   73.7943 C   0  0  0  0  0  0  0  0  0  0  0  0
   23.7702   67.0921   72.5361 C   0  0  0  0  0  0  0  0  0  0  0  0
   24.9527   69.1629   72.3517 C   0  0  0  0  0  0  0  0  0  0  0  0
   29.8591   67.2672   72.8691 C   0  0  0  0  0  0  0  0  0  0  0  0
   21.2950   69.6773   72.1370 C   0  0  0  0  0  0  0  0  0  0  0  0
   27.8127   68.9908   72.5403 C   0  0  0  0  0  0  0  0  0  0  0  0
   22.5844   67.7927   72.3836 C   0  0  0  0  0  0  0  0  0  0  0  0
   19.4080   68.6429   72.1752 H   0  0  0  0  0  0  0  0  0  0  0  0
   25.8510   67.2568   72.6098 H   0  0  0  0  0  0  0  0  0  0  0  0
   29.6176   66.8105   70.8556 H   0  0  0  0  0  0  0  0  0  0  0  0
   29.8962   67.9171   74.8354 H   0  0  0  0  0  0  0  0  0  0  0  0
   27.7714   68.3187   70.5651 H   0  0  0  0  0  0  0  0  0  0  0  0
   28.0557   69.4183   74.5657 H   0  0  0  0  0  0  0  0  0  0  0  0
   23.7466   66.1004   72.6629 H   0  0  0  0  0  0  0  0  0  0  0  0
  1 15  1  0  0  0  0
  2 14  1  0  0  0  0
  2 17  1  0  0  0  0
  3 16  2  0  0  0  0
  4  5  1  0  0  0  0
  4 16  1  0  0  0  0
  5 18  2  0  0  0  0
  6  7  1  0  0  0  0
  6 14  2  0  0  0  0
  7 16  1  0  0  0  0
  7 18  1  0  0  0  0
  8 13  2  0  0  0  0
  8 14  1  0  0  0  0
  9 11  2  0  0  0  0
  9 15  1  0  0  0  0
 10 12  1  0  0  0  0
 10 15  2  0  0  0  0
 11 17  1  0  0  0  0
 12 17  2  0  0  0  0
 13 18  1  0  0  0  0
  4 19  1  0  0  0  0
  8 20  1  0  0  0  0
  9 21  1  0  0  0  0
 10 22  1  0  0  0  0
 11 23  1  0  0  0  0
 12 24  1  0  0  0  0
 13 25  1  0  0  0  0
M  END
> <pdb_id>
7B3P

> <uniprot_id>
Q6P988

> <usmiles>
Clc1ccc(SC2=NN3C(=O)NN=C3C=C2)cc1

$$$$
SUY_A_301
          07202407153D 1   1.00000     0.00000     0
            
 44 48  0  0  0  0            999 V2000
   10.3562   -2.0555   11.5307 Cl  0  0  0  0  0  0  0  0  0  0  0  0
   11.6629   -7.7052   16.0648 S   0  0  0  0  0  0  0  0  0  0  0  0
    6.5127   -1.6980   16.7736 N   0  0  0  0  0  0  0  0  0  0  0  0
    8.8544   -9.5489   18.0926 N   0  0  0  0  0  0  0  0  0  0  0  0
    8.6475   -7.2628   18.5734 N   0  0  0  0  0  0  0  0  0  0  0  0
   12.5035   -5.9514   14.3898 N   0  0  0  0  0  0  0  0  0  0  0  0
   10.2112   -5.7865   14.9704 N   0  0  0  0  0  0  0  0  0  0  0  0
   13.3921   -4.3860   12.7249 N   0  0  0  0  0  0  0  0  0  0  0  0
    8.6501   -4.2191   14.2064 N   0  0  0  0  0  0  0  0  0  0  0  0
   14.5135   -3.4366   10.0875 C   0  0  0  0  0  0  0  0  0  0  0  0
    8.2382   -8.5329   18.7324 C   0  0  0  0  0  0  0  0  0  0  0  0
    9.9028   -9.3158   17.2785 C   0  0  0  0  0  0  0  0  0  0  0  0
    9.6852   -6.9757   17.7678 C   0  0  0  0  0  0  0  0  0  0  0  0
    7.5951   -4.8838   14.9718 C   0  0  0  0  0  0  0  0  0  0  0  0
    8.3272   -2.8830   13.7235 C   0  0  0  0  0  0  0  0  0  0  0  0
   13.6739   -2.5224   10.9725 C   0  0  0  0  0  0  0  0  0  0  0  0
   11.4304   -6.3703   15.0704 C   0  0  0  0  0  0  0  0  0  0  0  0
   11.4965   -3.2430   12.3409 C   0  0  0  0  0  0  0  0  0  0  0  0
   10.3401   -8.0096   17.0897 C   0  0  0  0  0  0  0  0  0  0  0  0
   12.4339   -4.9305   13.5159 C   0  0  0  0  0  0  0  0  0  0  0  0
    9.9539   -4.7489   14.1475 C   0  0  0  0  0  0  0  0  0  0  0  0
    7.4525   -2.5855   16.1004 C   0  0  1  0  0  0  0  0  0  0  0  0
   12.9091   -3.3618   11.9720 C   0  0  0  0  0  0  0  0  0  0  0  0
    6.6958   -3.7144   15.4053 C   0  0  1  0  0  0  0  0  0  0  0  0
    7.1457   -2.4890   14.6106 C   0  0  2  0  0  0  0  0  0  0  0  0
   11.1249   -4.2467   13.3531 C   0  0  0  0  0  0  0  0  0  0  0  0
    7.0155   -0.9616   17.2263 H   0  0  0  0  0  0  0  0  0  0  0  0
    5.8831   -1.3078   16.1019 H   0  0  0  0  0  0  0  0  0  0  0  0
   14.3410   -4.7005   12.6986 H   0  0  0  0  0  0  0  0  0  0  0  0
   15.0208   -2.8853    9.4252 H   0  0  0  0  0  0  0  0  0  0  0  0
   15.1564   -3.9512   10.6549 H   0  0  0  0  0  0  0  0  0  0  0  0
   13.9141   -4.0729    9.6020 H   0  0  0  0  0  0  0  0  0  0  0  0
    7.4643   -8.7284   19.3347 H   0  0  0  0  0  0  0  0  0  0  0  0
   10.3612  -10.0742   16.8152 H   0  0  0  0  0  0  0  0  0  0  0  0
    9.9870   -6.0291   17.6541 H   0  0  0  0  0  0  0  0  0  0  0  0
    7.9727   -5.3606   15.7656 H   0  0  0  0  0  0  0  0  0  0  0  0
    7.0915   -5.5327   14.4016 H   0  0  0  0  0  0  0  0  0  0  0  0
    8.0649   -2.9008   12.7587 H   0  0  0  0  0  0  0  0  0  0  0  0
    9.0974   -2.2575   13.8480 H   0  0  0  0  0  0  0  0  0  0  0  0
   13.0302   -2.0078   10.4062 H   0  0  0  0  0  0  0  0  0  0  0  0
   14.2726   -1.8860   11.4590 H   0  0  0  0  0  0  0  0  0  0  0  0
    8.3864   -2.7102   16.4354 H   0  0  0  0  0  0  0  0  0  0  0  0
    5.7258   -3.8657   15.5958 H   0  0  0  0  0  0  0  0  0  0  0  0
    6.4695   -1.8305   14.2804 H   0  0  0  0  0  0  0  0  0  0  0  0
  1 18  1  0  0  0  0
  2 17  1  0  0  0  0
  2 19  1  0  0  0  0
  3 22  1  0  0  0  0
  4 11  2  0  0  0  0
  4 12  1  0  0  0  0
  5 11  1  0  0  0  0
  5 13  2  0  0  0  0
  6 17  2  0  0  0  0
  6 20  1  0  0  0  0
  7 17  1  0  0  0  0
  7 21  2  0  0  0  0
  8 20  1  0  0  0  0
  8 23  1  0  0  0  0
  9 14  1  0  0  0  0
  9 15  1  0  0  0  0
  9 21  1  0  0  0  0
 10 16  1  0  0  0  0
 12 19  2  0  0  0  0
 13 19  1  0  0  0  0
 14 24  1  0  0  0  0
 15 25  1  0  0  0  0
 16 23  1  0  0  0  0
 18 23  2  0  0  0  0
 18 26  1  0  0  0  0
 20 26  2  0  0  0  0
 21 26  1  0  0  0  0
 22 24  1  0  0  0  0
 22 25  1  0  0  0  0
 24 25  1  0  0  0  0
  3 27  1  0  0  0  0
  3 28  1  0  0  0  0
  8 29  1  0  0  0  0
 10 30  1  0  0  0  0
 10 31  1  0  0  0  0
 10 32  1  0  0  0  0
 11 33  1  0  0  0  0
 12 34  1  0  0  0  0
 13 35  1  0  0  0  0
 14 36  1  0  0  0  0
 14 37  1  0  0  0  0
 15 38  1  0  0  0  0
 15 39  1  0  0  0  0
 16 40  1  0  0  0  0
 16 41  1  0  0  0  0
 22 42  1  0  0  0  0
 24 43  1  0  0  0  0
 25 44  1  0  0  0  0
M  END
> <pdb_id>
4GFN

> <uniprot_id>
Q839Z1

> <usmiles>
ClC=1c2c(nc(Sc3cncnc3)nc2NC1CC)N4C[C@H]5[C@H]([C@@H]5N)C4

$$$$
SV2_A_301
          07202405513D 1   1.00000     0.00000     0
            
 46 47  0  0  0  0            999 V2000
   15.7391  -23.0238  -62.8848 P   0  0  0  0  0  0  0  0  0  0  0  0
   18.1625  -15.2096  -65.0328 P   0  0  0  0  0  0  0  0  0  0  0  0
   15.5243  -24.1205  -61.7845 O   0  0  0  0  0  0  0  0  0  0  0  0
   14.4735  -22.9403  -63.8029 O   0  0  0  0  0  0  0  0  0  0  0  0
   16.9833  -23.2994  -63.7020 O   0  0  0  0  0  0  0  0  0  0  0  0
   19.3842  -15.5600  -65.9543 O   0  0  0  0  0  0  0  0  0  0  0  0
   16.8517  -15.0073  -65.8645 O   0  0  0  0  0  0  0  0  0  0  0  0
   18.4500  -13.9706  -64.2236 O   0  0  0  0  0  0  0  0  0  0  0  0
   24.1652  -20.3959  -59.2357 O   0  0  0  0  0  0  0  0  0  0  0  0
   17.1658  -21.1548  -61.4726 O   0  0  0  0  0  0  0  0  0  0  0  0
   18.8044  -17.0462  -63.0795 O   0  0  0  0  0  0  0  0  0  0  0  0
   20.3380  -23.1209  -58.5845 N   0  0  0  0  0  0  0  0  0  0  0  0
   22.7286  -19.1660  -61.6071 N   0  0  0  0  0  0  0  0  0  0  0  0
   22.2122  -21.7191  -58.9563 N   0  0  0  0  0  0  0  0  0  0  0  0
   20.3739  -21.5273  -60.3948 N   0  0  0  0  0  0  0  0  0  0  0  0
   20.7306  -19.7885  -62.2231 N   0  0  0  0  0  0  0  0  0  0  0  0
   15.9199  -21.4200  -62.0159 C   0  0  0  0  0  0  0  0  0  0  0  0
   17.8360  -16.6977  -64.0251 C   0  0  0  0  0  0  0  0  0  0  0  0
   17.3534  -19.8302  -61.1818 C   0  0  0  0  0  0  0  0  0  0  0  0
   18.2584  -17.6826  -61.9777 C   0  0  0  0  0  0  0  0  0  0  0  0
   21.7408  -18.9393  -62.5048 C   0  0  0  0  0  0  0  0  0  0  0  0
   19.4228  -19.8664  -62.8637 C   0  0  0  0  0  0  0  0  0  0  0  0
   22.8898  -20.7774  -59.6155 C   0  0  0  0  0  0  0  0  0  0  0  0
   20.9789  -22.0976  -59.3354 C   0  0  0  0  0  0  0  0  0  0  0  0
   21.0219  -20.5379  -61.0975 C   0  0  0  0  0  0  0  0  0  0  0  0
   22.2862  -20.1574  -60.7345 C   0  0  0  0  0  0  0  0  0  0  0  0
   18.5381  -19.1495  -61.8000 C   0  0  0  0  0  0  0  0  0  0  0  0
   16.3347  -24.1703  -61.2008 H   0  0  0  0  0  0  0  0  0  0  0  0
   14.6150  -22.2400  -64.5026 H   0  0  0  0  0  0  0  0  0  0  0  0
   20.2019  -15.6821  -65.3917 H   0  0  0  0  0  0  0  0  0  0  0  0
   16.0963  -14.7862  -65.2477 H   0  0  0  0  0  0  0  0  0  0  0  0
   19.4205  -23.4273  -58.8382 H   0  0  0  0  0  0  0  0  0  0  0  0
   20.8048  -23.5343  -57.8027 H   0  0  0  0  0  0  0  0  0  0  0  0
   22.6322  -22.1544  -58.1600 H   0  0  0  0  0  0  0  0  0  0  0  0
   15.2522  -21.3995  -61.2717 H   0  0  0  0  0  0  0  0  0  0  0  0
   15.7118  -20.6934  -62.6706 H   0  0  0  0  0  0  0  0  0  0  0  0
   17.7337  -17.4703  -64.6516 H   0  0  0  0  0  0  0  0  0  0  0  0
   16.9764  -16.5488  -63.5363 H   0  0  0  0  0  0  0  0  0  0  0  0
   17.4460  -19.7511  -60.1893 H   0  0  0  0  0  0  0  0  0  0  0  0
   16.5353  -19.3387  -61.4805 H   0  0  0  0  0  0  0  0  0  0  0  0
   17.2659  -17.5735  -62.0327 H   0  0  0  0  0  0  0  0  0  0  0  0
   18.6007  -17.2137  -61.1634 H   0  0  0  0  0  0  0  0  0  0  0  0
   21.7569  -18.2648  -63.2430 H   0  0  0  0  0  0  0  0  0  0  0  0
   19.1365  -20.8144  -63.0030 H   0  0  0  0  0  0  0  0  0  0  0  0
   19.4116  -19.3828  -63.7389 H   0  0  0  0  0  0  0  0  0  0  0  0
   19.1657  -19.1259  -61.0218 H   0  0  0  0  0  0  0  0  0  0  0  0
  1  3  1  0  0  0  0
  1  4  1  0  0  0  0
  1  5  2  0  0  0  0
  1 17  1  0  0  0  0
  2  6  1  0  0  0  0
  2  7  1  0  0  0  0
  2  8  2  0  0  0  0
  2 18  1  0  0  0  0
  9 23  2  0  0  0  0
 10 17  1  0  0  0  0
 10 19  1  0  0  0  0
 11 18  1  0  0  0  0
 11 20  1  0  0  0  0
 12 24  1  0  0  0  0
 13 21  2  0  0  0  0
 13 26  1  0  0  0  0
 14 23  1  0  0  0  0
 14 24  1  0  0  0  0
 15 24  2  0  0  0  0
 15 25  1  0  0  0  0
 16 21  1  0  0  0  0
 16 22  1  0  0  0  0
 16 25  1  0  0  0  0
 19 27  1  0  0  0  0
 20 27  1  0  0  0  0
 22 27  1  0  0  0  0
 23 26  1  0  0  0  0
 25 26  2  0  0  0  0
  3 28  1  0  0  0  0
  4 29  1  0  0  0  0
  6 30  1  0  0  0  0
  7 31  1  0  0  0  0
 12 32  1  0  0  0  0
 12 33  1  0  0  0  0
 14 34  1  0  0  0  0
 17 35  1  0  0  0  0
 17 36  1  0  0  0  0
 18 37  1  0  0  0  0
 18 38  1  0  0  0  0
 19 39  1  0  0  0  0
 19 40  1  0  0  0  0
 20 41  1  0  0  0  0
 20 42  1  0  0  0  0
 21 43  1  0  0  0  0
 22 44  1  0  0  0  0
 22 45  1  0  0  0  0
 27 46  1  0  0  0  0
M  END
> <pdb_id>
4IJQ

> <uniprot_id>
P00492

> <usmiles>
P(=O)(O)(O)COCC(COCP(=O)(O)O)CN1C=2N=C(NC(=O)C2N=C1)N

$$$$
SV2_B_301
          07202413403D 1   1.00000     0.00000     0
            
 46 47  0  0  0  0            999 V2000
  127.6660   -5.0070   48.1930 P   0  0  0  0  0  0  0  0  0  0  0  0
  132.0320  -12.0380   51.7070 P   0  0  0  0  0  0  0  0  0  0  0  0
  126.2540   -4.7300   48.5390 O   0  0  0  0  0  0  0  0  0  0  0  0
  128.6580   -3.8780   48.4300 O   0  0  0  0  0  0  0  0  0  0  0  0
  127.7220   -5.5110   46.7670 O   0  0  0  0  0  0  0  0  0  0  0  0
  133.4540  -12.0990   52.2120 O   0  0  0  0  0  0  0  0  0  0  0  0
  131.0580  -12.8340   52.5220 O   0  0  0  0  0  0  0  0  0  0  0  0
  132.2260  -12.4220   50.2320 O   0  0  0  0  0  0  0  0  0  0  0  0
  131.8010   -4.4300   56.7320 O   0  0  0  0  0  0  0  0  0  0  0  0
  129.4300   -6.8210   49.1530 O   0  0  0  0  0  0  0  0  0  0  0  0
  131.8290   -9.3400   51.2090 O   0  0  0  0  0  0  0  0  0  0  0  0
  134.0390   -8.4670   55.8490 N   0  0  0  0  0  0  0  0  0  0  0  0
  131.2690   -4.1120   53.6800 N   0  0  0  0  0  0  0  0  0  0  0  0
  132.8160   -6.3900   56.2750 N   0  0  0  0  0  0  0  0  0  0  0  0
  133.0860   -7.1910   53.9660 N   0  0  0  0  0  0  0  0  0  0  0  0
  132.0340   -5.6600   52.2890 N   0  0  0  0  0  0  0  0  0  0  0  0
  128.0570   -6.4760   49.2880 C   0  0  0  0  0  0  0  0  0  0  0  0
  131.1760  -10.3830   51.8530 C   0  0  0  0  0  0  0  0  0  0  0  0
  130.1890   -6.1960   50.1030 C   0  0  0  0  0  0  0  0  0  0  0  0
  130.9100   -8.2480   51.2840 C   0  0  0  0  0  0  0  0  0  0  0  0
  131.4030   -4.4660   52.3770 C   0  0  0  0  0  0  0  0  0  0  0  0
  132.4360   -6.4050   51.1210 C   0  0  0  0  0  0  0  0  0  0  0  0
  132.1290   -5.2270   55.8870 C   0  0  0  0  0  0  0  0  0  0  0  0
  133.3000   -7.3640   55.3480 C   0  0  0  0  0  0  0  0  0  0  0  0
  132.3490   -6.0340   53.5220 C   0  0  0  0  0  0  0  0  0  0  0  0
  131.8590   -5.0630   54.4180 C   0  0  0  0  0  0  0  0  0  0  0  0
  131.3530   -7.1490   50.4000 C   0  0  0  0  0  0  0  0  0  0  0  0
  125.6981   -5.5377   48.3427 H   0  0  0  0  0  0  0  0  0  0  0  0
  129.5738   -4.1773   48.1622 H   0  0  0  0  0  0  0  0  0  0  0  0
  134.0417  -11.5468   51.6206 H   0  0  0  0  0  0  0  0  0  0  0  0
  130.1430  -12.7452   52.1283 H   0  0  0  0  0  0  0  0  0  0  0  0
  134.3883   -9.1618   55.2203 H   0  0  0  0  0  0  0  0  0  0  0  0
  134.2105   -8.5495   56.8307 H   0  0  0  0  0  0  0  0  0  0  0  0
  132.9744   -6.5440   57.2503 H   0  0  0  0  0  0  0  0  0  0  0  0
  127.4903   -7.2538   49.0160 H   0  0  0  0  0  0  0  0  0  0  0  0
  127.8653   -6.2409   50.2409 H   0  0  0  0  0  0  0  0  0  0  0  0
  131.1020  -10.1538   52.8236 H   0  0  0  0  0  0  0  0  0  0  0  0
  130.2605  -10.4688   51.4600 H   0  0  0  0  0  0  0  0  0  0  0  0
  129.6499   -6.0362   50.9299 H   0  0  0  0  0  0  0  0  0  0  0  0
  130.5330   -5.3236   49.7556 H   0  0  0  0  0  0  0  0  0  0  0  0
  130.8661   -7.9169   52.2266 H   0  0  0  0  0  0  0  0  0  0  0  0
  130.0037   -8.5583   50.9971 H   0  0  0  0  0  0  0  0  0  0  0  0
  131.0835   -3.9257   51.5985 H   0  0  0  0  0  0  0  0  0  0  0  0
  133.1244   -7.0715   51.4073 H   0  0  0  0  0  0  0  0  0  0  0  0
  132.8446   -5.7605   50.4747 H   0  0  0  0  0  0  0  0  0  0  0  0
  131.7107   -7.5245   49.5450 H   0  0  0  0  0  0  0  0  0  0  0  0
  1  3  1  0  0  0  0
  1  4  1  0  0  0  0
  1  5  2  0  0  0  0
  1 17  1  0  0  0  0
  2  6  1  0  0  0  0
  2  7  1  0  0  0  0
  2  8  2  0  0  0  0
  2 18  1  0  0  0  0
  9 23  2  0  0  0  0
 10 17  1  0  0  0  0
 10 19  1  0  0  0  0
 11 18  1  0  0  0  0
 11 20  1  0  0  0  0
 12 24  1  0  0  0  0
 13 21  2  0  0  0  0
 13 26  1  0  0  0  0
 14 23  1  0  0  0  0
 14 24  1  0  0  0  0
 15 24  2  0  0  0  0
 15 25  1  0  0  0  0
 16 21  1  0  0  0  0
 16 22  1  0  0  0  0
 16 25  1  0  0  0  0
 19 27  1  0  0  0  0
 20 27  1  0  0  0  0
 22 27  1  0  0  0  0
 23 26  1  0  0  0  0
 25 26  2  0  0  0  0
  3 28  1  0  0  0  0
  4 29  1  0  0  0  0
  6 30  1  0  0  0  0
  7 31  1  0  0  0  0
 12 32  1  0  0  0  0
 12 33  1  0  0  0  0
 14 34  1  0  0  0  0
 17 35  1  0  0  0  0
 17 36  1  0  0  0  0
 18 37  1  0  0  0  0
 18 38  1  0  0  0  0
 19 39  1  0  0  0  0
 19 40  1  0  0  0  0
 20 41  1  0  0  0  0
 20 42  1  0  0  0  0
 21 43  1  0  0  0  0
 22 44  1  0  0  0  0
 22 45  1  0  0  0  0
 27 46  1  0  0  0  0
M  END
> <pdb_id>
6APS

> <uniprot_id>
Q07010

> <usmiles>
P(=O)(O)(O)COCC(COCP(=O)(O)O)CN1C=2N=C(NC(=O)C2N=C1)N

$$$$
SVH_A_1402
          07202415303D 1   1.00000     0.00000     0
            
 28 31  0  0  0  0            999 V2000
    0.6995  -14.5642   18.5643 F   0  0  0  0  0  0  0  0  0  0  0  0
   -6.7534  -13.0424   14.2861 O   0  0  0  0  0  0  0  0  0  0  0  0
    0.0002  -18.7539   14.5514 N   0  0  0  0  0  0  0  0  0  0  0  0
    0.8766  -18.2932   15.4903 N   0  0  0  0  0  0  0  0  0  0  0  0
   -4.7798  -12.2396   15.2632 N   0  0  0  0  0  0  0  0  0  0  0  0
   -4.9610  -15.8249   14.6169 N   0  0  0  0  0  0  0  0  0  0  0  0
   -1.0430  -17.9469   14.5972 C   0  0  0  0  0  0  0  0  0  0  0  0
   -3.5110  -12.7611   15.7281 C   0  0  0  0  0  0  0  0  0  0  0  0
   -3.8139  -16.4364   15.0128 C   0  0  0  0  0  0  0  0  0  0  0  0
    0.9364  -16.4061   17.1345 C   0  0  0  0  0  0  0  0  0  0  0  0
   -1.0633  -15.0313   17.0780 C   0  0  0  0  0  0  0  0  0  0  0  0
    0.1829  -15.3461   17.5774 C   0  0  0  0  0  0  0  0  0  0  0  0
   -5.6241  -13.2015   14.7475 C   0  0  0  0  0  0  0  0  0  0  0  0
    0.3938  -17.1939   16.1254 C   0  0  0  0  0  0  0  0  0  0  0  0
   -4.8792  -14.4771   14.8638 C   0  0  0  0  0  0  0  0  0  0  0  0
   -0.8718  -16.9328   15.5673 C   0  0  0  0  0  0  0  0  0  0  0  0
   -3.6221  -14.2336   15.4459 C   0  0  0  0  0  0  0  0  0  0  0  0
   -2.9494  -15.4933   15.5306 C   0  0  0  0  0  0  0  0  0  0  0  0
   -1.6012  -15.8282   16.0619 C   0  0  0  0  0  0  0  0  0  0  0  0
    1.7631  -18.7123   15.6863 H   0  0  0  0  0  0  0  0  0  0  0  0
   -5.0219  -11.2705   15.3115 H   0  0  0  0  0  0  0  0  0  0  0  0
   -5.7471  -16.2876   14.2070 H   0  0  0  0  0  0  0  0  0  0  0  0
   -1.8529  -18.0409   14.0183 H   0  0  0  0  0  0  0  0  0  0  0  0
   -3.3900  -12.5913   16.7061 H   0  0  0  0  0  0  0  0  0  0  0  0
   -2.7494  -12.3554   15.2227 H   0  0  0  0  0  0  0  0  0  0  0  0
   -3.6257  -17.4158   14.9405 H   0  0  0  0  0  0  0  0  0  0  0  0
    1.8372  -16.6028   17.5217 H   0  0  0  0  0  0  0  0  0  0  0  0
   -1.5727  -14.2484   17.4354 H   0  0  0  0  0  0  0  0  0  0  0  0
  1 12  1  0  0  0  0
  2 13  2  0  0  0  0
  3  4  1  0  0  0  0
  3  7  2  0  0  0  0
  4 14  1  0  0  0  0
  5  8  1  0  0  0  0
  5 13  1  0  0  0  0
  6  9  1  0  0  0  0
  6 15  1  0  0  0  0
  7 16  1  0  0  0  0
  8 17  1  0  0  0  0
  9 18  2  0  0  0  0
 10 12  2  0  0  0  0
 10 14  1  0  0  0  0
 11 12  1  0  0  0  0
 11 19  2  0  0  0  0
 13 15  1  0  0  0  0
 14 16  2  0  0  0  0
 15 17  2  0  0  0  0
 16 19  1  0  0  0  0
 17 18  1  0  0  0  0
 18 19  1  0  0  0  0
  4 20  1  0  0  0  0
  5 21  1  0  0  0  0
  6 22  1  0  0  0  0
  7 23  1  0  0  0  0
  8 24  1  0  0  0  0
  8 25  1  0  0  0  0
  9 26  1  0  0  0  0
 10 27  1  0  0  0  0
 11 28  1  0  0  0  0
M  END
> <pdb_id>
7B3W

> <uniprot_id>
P08581

> <usmiles>
Fc1cc2NN=Cc2c(c1)C=3C4=C(NC3)C(=O)NC4

$$$$
SW1_A_8
          07192419343D 1   1.00000     0.00000     0
            
 20 21  0  0  0  0            999 V2000
   48.4195   22.9828   51.6712 S   0  0  0  0  0  0  0  0  0  0  0  0
   45.6970   20.2379   49.5514 S   0  0  0  0  0  0  0  0  0  0  0  0
   47.5720   18.0456   53.5403 N   0  0  0  0  0  0  0  0  0  0  0  0
   46.7786   20.2896   51.8968 N   0  0  0  0  0  0  0  0  0  0  0  0
   48.3521   24.5359   50.9140 C   0  0  0  0  0  0  0  0  0  0  0  0
   45.5723   18.8428   50.5667 C   0  0  0  0  0  0  0  0  0  0  0  0
   46.2740   18.0124   52.9001 C   0  0  0  0  0  0  0  0  0  0  0  0
   47.3566   24.5955   49.9438 C   0  0  0  0  0  0  0  0  0  0  0  0
   46.6520   23.3882   49.8032 C   0  0  0  0  0  0  0  0  0  0  0  0
   46.5917   21.0420   50.7913 C   0  0  0  0  0  0  0  0  0  0  0  0
   47.1275   22.4248   50.6837 C   0  0  0  0  0  0  0  0  0  0  0  0
   46.2126   19.0429   51.7951 C   0  0  0  0  0  0  0  0  0  0  0  0
   47.6020   17.3611   54.2687 H   0  0  0  0  0  0  0  0  0  0  0  0
   48.2819   17.8452   52.8651 H   0  0  0  0  0  0  0  0  0  0  0  0
   48.9556   25.2989   51.1453 H   0  0  0  0  0  0  0  0  0  0  0  0
   45.1017   17.9992   50.3083 H   0  0  0  0  0  0  0  0  0  0  0  0
   45.5659   18.2115   53.5776 H   0  0  0  0  0  0  0  0  0  0  0  0
   46.1191   17.1033   52.5134 H   0  0  0  0  0  0  0  0  0  0  0  0
   47.1626   25.4135   49.4022 H   0  0  0  0  0  0  0  0  0  0  0  0
   45.9056   23.2415   49.1540 H   0  0  0  0  0  0  0  0  0  0  0  0
  1  5  1  0  0  0  0
  1 11  1  0  0  0  0
  2  6  1  0  0  0  0
  2 10  1  0  0  0  0
  3  7  1  0  0  0  0
  4 10  2  0  0  0  0
  4 12  1  0  0  0  0
  5  8  2  0  0  0  0
  6 12  2  0  0  0  0
  7 12  1  0  0  0  0
  8  9  1  0  0  0  0
  9 11  2  0  0  0  0
 10 11  1  0  0  0  0
  3 13  1  0  0  0  0
  3 14  1  0  0  0  0
  5 15  1  0  0  0  0
  6 16  1  0  0  0  0
  7 17  1  0  0  0  0
  7 18  1  0  0  0  0
  8 19  1  0  0  0  0
  9 20  1  0  0  0  0
M  END
> <pdb_id>
3RXM

> <uniprot_id>
P00760

> <usmiles>
S1C(=NC(=C1)CN)C=2SC=CC2

$$$$
SW2_A_7
          07192419343D 1   1.00000     0.00000     0
            
 25 26  0  0  0  0            999 V2000
   47.4903   17.9815   53.4766 N   0  0  0  0  0  0  0  0  0  0  0  0
   47.4559   22.5763   51.0671 N   0  0  0  0  0  0  0  0  0  0  0  0
   46.1661   18.1338   52.9031 C   0  0  0  0  0  0  0  0  0  0  0  0
   47.1015   23.6917   50.4218 C   0  0  0  0  0  0  0  0  0  0  0  0
   48.5442   22.7280   51.8245 C   0  0  0  0  0  0  0  0  0  0  0  0
   48.0237   24.6487   50.8106 C   0  0  0  0  0  0  0  0  0  0  0  0
   48.9173   24.0454   51.6803 C   0  0  0  0  0  0  0  0  0  0  0  0
   45.4792   19.8303   49.5983 C   0  0  0  0  0  0  0  0  0  0  0  0
   46.1326   21.0477   49.7631 C   0  0  0  0  0  0  0  0  0  0  0  0
   45.4913   18.8898   50.6121 C   0  0  0  0  0  0  0  0  0  0  0  0
   46.8024   20.4004   51.9412 C   0  0  0  0  0  0  0  0  0  0  0  0
   46.8145   21.3896   50.9384 C   0  0  0  0  0  0  0  0  0  0  0  0
   46.1569   19.1688   51.7944 C   0  0  0  0  0  0  0  0  0  0  0  0
   47.4622   17.2941   54.2024 H   0  0  0  0  0  0  0  0  0  0  0  0
   48.1299   17.6895   52.7656 H   0  0  0  0  0  0  0  0  0  0  0  0
   45.5320   18.4209   53.6211 H   0  0  0  0  0  0  0  0  0  0  0  0
   45.8706   17.2546   52.5295 H   0  0  0  0  0  0  0  0  0  0  0  0
   46.3337   23.8100   49.7921 H   0  0  0  0  0  0  0  0  0  0  0  0
   48.9949   22.0301   52.3811 H   0  0  0  0  0  0  0  0  0  0  0  0
   48.0414   25.6043   50.5163 H   0  0  0  0  0  0  0  0  0  0  0  0
   49.6958   24.4884   52.1248 H   0  0  0  0  0  0  0  0  0  0  0  0
   44.9989   19.6346   48.7433 H   0  0  0  0  0  0  0  0  0  0  0  0
   46.1148   21.7064   49.0110 H   0  0  0  0  0  0  0  0  0  0  0  0
   45.0229   18.0144   50.4925 H   0  0  0  0  0  0  0  0  0  0  0  0
   47.2788   20.5881   52.8001 H   0  0  0  0  0  0  0  0  0  0  0  0
  1  3  1  0  0  0  0
  2  4  1  0  0  0  0
  2  5  1  0  0  0  0
  2 12  1  0  0  0  0
  3 13  1  0  0  0  0
  4  6  2  0  0  0  0
  5  7  2  0  0  0  0
  6  7  1  0  0  0  0
  8  9  1  0  0  0  0
  8 10  2  0  0  0  0
  9 12  2  0  0  0  0
 10 13  1  0  0  0  0
 11 12  1  0  0  0  0
 11 13  2  0  0  0  0
  1 14  1  0  0  0  0
  1 15  1  0  0  0  0
  3 16  1  0  0  0  0
  3 17  1  0  0  0  0
  4 18  1  0  0  0  0
  5 19  1  0  0  0  0
  6 20  1  0  0  0  0
  7 21  1  0  0  0  0
  8 22  1  0  0  0  0
  9 23  1  0  0  0  0
 10 24  1  0  0  0  0
 11 25  1  0  0  0  0
M  END
> <pdb_id>
3RXO

> <uniprot_id>
P00760

> <usmiles>
N1(c2cc(ccc2)CN)C=CC=C1

$$$$
SW4_A_1213
          07192422283D 1   1.00000     0.00000     0
            
 38 40  0  0  0  0            999 V2000
   48.4348   16.5327   21.1547 O   0  0  0  0  0  0  0  0  0  0  0  0
   44.4844   12.0974   15.9965 O   0  0  0  0  0  0  0  0  0  0  0  0
   41.9398   12.7279   18.6769 N   0  0  0  0  0  0  0  0  0  0  0  0
   45.5571    9.6901   14.4816 N   0  0  0  0  0  0  0  0  0  0  0  0
   47.9430   15.7114   22.1436 C   0  0  0  0  0  0  0  0  0  0  0  0
   45.7665   11.5710   15.9867 C   0  0  0  0  0  0  0  0  0  0  0  0
   44.5066   10.3068   13.6807 C   0  0  0  0  0  0  0  0  0  0  0  0
   42.4523   12.3551   17.4753 C   0  0  0  0  0  0  0  0  0  0  0  0
   42.7413   13.1685   19.6950 C   0  0  0  0  0  0  0  0  0  0  0  0
   46.5558   15.1315   21.9073 C   0  0  0  0  0  0  0  0  0  0  0  0
   45.3173   11.5355   13.6045 C   0  0  0  0  0  0  0  0  0  0  0  0
   44.6722   12.8841   18.2525 C   0  0  0  0  0  0  0  0  0  0  0  0
   45.7995   12.7783   21.4396 C   0  0  0  0  0  0  0  0  0  0  0  0
   43.8526   12.4406   17.2343 C   0  0  0  0  0  0  0  0  0  0  0  0
   46.1896   11.0003   14.6530 C   0  0  2  0  0  0  0  0  0  0  0  0
   44.1165   13.2440   19.4753 C   0  0  0  0  0  0  0  0  0  0  0  0
   46.5517   13.9823   20.9639 C   0  0  1  0  0  0  0  0  0  0  0  0
   45.1703   13.7326   20.4736 C   0  0  2  0  0  0  0  0  0  0  0  0
   49.3458   16.8551   21.4117 H   0  0  0  0  0  0  0  0  0  0  0  0
   46.1164    9.0282   13.9825 H   0  0  0  0  0  0  0  0  0  0  0  0
   47.9123   16.2399   22.9919 H   0  0  0  0  0  0  0  0  0  0  0  0
   48.5791   14.9471   22.2499 H   0  0  0  0  0  0  0  0  0  0  0  0
   45.8115   10.8412   16.6689 H   0  0  0  0  0  0  0  0  0  0  0  0
   46.4064   12.2985   16.2341 H   0  0  0  0  0  0  0  0  0  0  0  0
   43.6357   10.4176   14.1595 H   0  0  0  0  0  0  0  0  0  0  0  0
   44.3480    9.8633   12.7985 H   0  0  0  0  0  0  0  0  0  0  0  0
   41.8432   12.0191   16.7569 H   0  0  0  0  0  0  0  0  0  0  0  0
   42.3496   13.4305   20.5770 H   0  0  0  0  0  0  0  0  0  0  0  0
   45.9705   15.8511   21.5336 H   0  0  0  0  0  0  0  0  0  0  0  0
   46.1869   14.8236   22.7842 H   0  0  0  0  0  0  0  0  0  0  0  0
   44.8272   12.3681   13.8627 H   0  0  0  0  0  0  0  0  0  0  0  0
   45.7706   11.6751   12.7241 H   0  0  0  0  0  0  0  0  0  0  0  0
   45.6602   12.9463   18.1115 H   0  0  0  0  0  0  0  0  0  0  0  0
   45.4725   12.7324   22.3836 H   0  0  0  0  0  0  0  0  0  0  0  0
   46.0719   11.8651   21.1365 H   0  0  0  0  0  0  0  0  0  0  0  0
   47.1700   11.0355   14.4593 H   0  0  0  0  0  0  0  0  0  0  0  0
   47.3219   13.8614   20.3376 H   0  0  0  0  0  0  0  0  0  0  0  0
   44.6273   14.3133   21.0802 H   0  0  0  0  0  0  0  0  0  0  0  0
  1  5  1  0  0  0  0
  2  6  1  0  0  0  0
  2 14  1  0  0  0  0
  3  8  2  0  0  0  0
  3  9  1  0  0  0  0
  4  7  1  0  0  0  0
  4 15  1  0  0  0  0
  5 10  1  0  0  0  0
  6 15  1  0  0  0  0
  7 11  1  0  0  0  0
  8 14  1  0  0  0  0
  9 16  2  0  0  0  0
 10 17  1  0  0  0  0
 11 15  1  0  0  0  0
 12 14  2  0  0  0  0
 12 16  1  0  0  0  0
 13 17  1  0  0  0  0
 13 18  1  0  0  0  0
 16 18  1  0  0  0  0
 17 18  1  0  0  0  0
  1 19  1  0  0  0  0
  4 20  1  0  0  0  0
  5 21  1  0  0  0  0
  5 22  1  0  0  0  0
  6 23  1  0  0  0  0
  6 24  1  0  0  0  0
  7 25  1  0  0  0  0
  7 26  1  0  0  0  0
  8 27  1  0  0  0  0
  9 28  1  0  0  0  0
 10 29  1  0  0  0  0
 10 30  1  0  0  0  0
 11 31  1  0  0  0  0
 11 32  1  0  0  0  0
 12 33  1  0  0  0  0
 13 34  1  0  0  0  0
 13 35  1  0  0  0  0
 15 36  1  0  0  0  0
 17 37  1  0  0  0  0
 18 38  1  0  0  0  0
M  END
> <pdb_id>
4B5D

> <uniprot_id>
nan

> <usmiles>
O(c1cncc(c1)[C@@H]2[C@H](C2)CCO)C[C@H]3NCC3

$$$$
SW4_E_1213
          07192422283D 1   1.00000     0.00000     0
            
 36 38  0  0  0  0            999 V2000
   48.6430   16.0030   21.1980 O   0  0  0  0  0  0  0  0  0  0  0  0
   44.5450   12.0440   16.1240 O   0  0  0  0  0  0  0  0  0  0  0  0
   42.0770   12.6700   18.8450 N   0  0  0  0  0  0  0  0  0  0  0  0
   45.6990    9.8070   14.6080 N   0  0  0  0  0  0  0  0  0  0  0  0
   47.8250   15.9860   22.3080 C   0  0  0  0  0  0  0  0  0  0  0  0
   45.8880   11.7090   16.0530 C   0  0  0  0  0  0  0  0  0  0  0  0
   44.7830   10.2750   13.5710 C   0  0  0  0  0  0  0  0  0  0  0  0
   42.5730   12.2860   17.6480 C   0  0  0  0  0  0  0  0  0  0  0  0
   42.8600   13.1720   19.8380 C   0  0  0  0  0  0  0  0  0  0  0  0
   46.5150   15.2220   22.1680 C   0  0  0  0  0  0  0  0  0  0  0  0
   45.3000   11.6300   13.7280 C   0  0  0  0  0  0  0  0  0  0  0  0
   44.7580   12.9100   18.3700 C   0  0  0  0  0  0  0  0  0  0  0  0
   45.8050   12.9040   21.6430 C   0  0  0  0  0  0  0  0  0  0  0  0
   43.9520   12.4050   17.3770 C   0  0  0  0  0  0  0  0  0  0  0  0
   46.2720   11.1470   14.7150 C   0  0  2  0  0  0  0  0  0  0  0  0
   44.2200   13.2850   19.6000 C   0  0  0  0  0  0  0  0  0  0  0  0
   46.5840   14.0980   21.1920 C   0  0  1  0  0  0  0  0  0  0  0  0
   45.2380   13.8350   20.6120 C   0  0  2  0  0  0  0  0  0  0  0  0
   49.4691   16.5288   21.4007 H   0  0  0  0  0  0  0  0  0  0  0  0
   45.8655    8.9302   15.0592 H   0  0  0  0  0  0  0  0  0  0  0  0
   47.6023   16.9336   22.5371 H   0  0  0  0  0  0  0  0  0  0  0  0
   48.3396   15.5735   23.0596 H   0  0  0  0  0  0  0  0  0  0  0  0
   46.0854   11.0259   16.7561 H   0  0  0  0  0  0  0  0  0  0  0  0
   46.4325   12.5302   16.2239 H   0  0  0  0  0  0  0  0  0  0  0  0
   44.0893    9.8450   12.9932 H   0  0  0  0  0  0  0  0  0  0  0  0
   41.9592   11.9156   16.9509 H   0  0  0  0  0  0  0  0  0  0  0  0
   42.4655   13.4511   20.7135 H   0  0  0  0  0  0  0  0  0  0  0  0
   45.8069   15.8604   21.8661 H   0  0  0  0  0  0  0  0  0  0  0  0
   46.2685   14.8496   23.0628 H   0  0  0  0  0  0  0  0  0  0  0  0
   45.0820   12.5202   13.3281 H   0  0  0  0  0  0  0  0  0  0  0  0
   45.7398   13.0092   18.2082 H   0  0  0  0  0  0  0  0  0  0  0  0
   45.4152   12.8786   22.5635 H   0  0  0  0  0  0  0  0  0  0  0  0
   46.0996   11.9852   21.3803 H   0  0  0  0  0  0  0  0  0  0  0  0
   47.2355   11.2343   14.4619 H   0  0  0  0  0  0  0  0  0  0  0  0
   47.4016   13.9761   20.6293 H   0  0  0  0  0  0  0  0  0  0  0  0
   44.6600   14.4264   21.1743 H   0  0  0  0  0  0  0  0  0  0  0  0
  1  5  1  0  0  0  0
  2  6  1  0  0  0  0
  2 14  1  0  0  0  0
  3  8  2  0  0  0  0
  3  9  1  0  0  0  0
  4  7  1  0  0  0  0
  4 15  1  0  0  0  0
  5 10  1  0  0  0  0
  6 15  1  0  0  0  0
  7 11  2  0  0  0  0
  8 14  1  0  0  0  0
  9 16  2  0  0  0  0
 10 17  1  0  0  0  0
 11 15  1  0  0  0  0
 12 14  2  0  0  0  0
 12 16  1  0  0  0  0
 13 17  1  0  0  0  0
 13 18  1  0  0  0  0
 16 18  1  0  0  0  0
 17 18  1  0  0  0  0
  1 19  1  0  0  0  0
  4 20  1  0  0  0  0
  5 21  1  0  0  0  0
  5 22  1  0  0  0  0
  6 23  1  0  0  0  0
  6 24  1  0  0  0  0
  7 25  1  0  0  0  0
  8 26  1  0  0  0  0
  9 27  1  0  0  0  0
 10 28  1  0  0  0  0
 10 29  1  0  0  0  0
 11 30  1  0  0  0  0
 12 31  1  0  0  0  0
 13 32  1  0  0  0  0
 13 33  1  0  0  0  0
 15 34  1  0  0  0  0
 17 35  1  0  0  0  0
 18 36  1  0  0  0  0
M  END
> <pdb_id>
4B5D

> <uniprot_id>
nan

> <usmiles>
O(c1cncc(c1)[C@@H]2[C@H](C2)CCO)C[C@H]3NC=C3

$$$$
SWA_A_1048
          07202412393D 1   1.00000     0.00000     0
            
 27 28  0  0  0  0            999 V2000
   33.8862   65.7761    9.7394 O   0  0  0  0  0  0  0  0  0  0  0  0
   31.7358   68.3315    5.5168 O   0  0  0  0  0  0  0  0  0  0  0  0
   33.9354   66.5622    7.2830 O   0  0  0  0  0  0  0  0  0  0  0  0
   31.1000   66.0767    8.3195 N   0  0  0  0  0  0  0  0  0  0  0  0
   29.6374   65.9557    8.1954 C   0  0  0  0  0  0  0  0  0  0  0  0
   31.5659   66.3265    9.6954 C   0  0  0  0  0  0  0  0  0  0  0  0
   29.3621   65.8017    6.7154 C   0  0  0  0  0  0  0  0  0  0  0  0
   29.8136   67.0013    5.9061 C   0  0  0  0  0  0  0  0  0  0  0  0
   32.9726   66.8605    9.4799 C   0  0  2  0  0  0  0  0  0  0  0  0
   31.3052   67.1462    6.1782 C   0  0  2  0  0  0  0  0  0  0  0  0
   33.0664   67.4010    8.0572 C   0  0  2  0  0  0  0  0  0  0  0  0
   31.6026   67.2933    7.6491 C   0  0  2  0  0  0  0  0  0  0  0  0
   34.8255   66.0926    9.6067 H   0  0  0  0  0  0  0  0  0  0  0  0
   32.7150   68.4628    5.6720 H   0  0  0  0  0  0  0  0  0  0  0  0
   33.9967   66.9169    6.3500 H   0  0  0  0  0  0  0  0  0  0  0  0
   29.1886   66.7761    8.5498 H   0  0  0  0  0  0  0  0  0  0  0  0
   29.3103   65.1542    8.6959 H   0  0  0  0  0  0  0  0  0  0  0  0
   31.5789   65.4820   10.2307 H   0  0  0  0  0  0  0  0  0  0  0  0
   30.9897   67.0031   10.1540 H   0  0  0  0  0  0  0  0  0  0  0  0
   28.3782   65.6799    6.5845 H   0  0  0  0  0  0  0  0  0  0  0  0
   29.8454   64.9918    6.3831 H   0  0  0  0  0  0  0  0  0  0  0  0
   29.3246   67.8230    6.1986 H   0  0  0  0  0  0  0  0  0  0  0  0
   29.6507   66.8455    4.9318 H   0  0  0  0  0  0  0  0  0  0  0  0
   33.1474   67.6022   10.1274 H   0  0  0  0  0  0  0  0  0  0  0  0
   31.7952   66.3558    5.8106 H   0  0  0  0  0  0  0  0  0  0  0  0
   33.3769   68.3516    8.0493 H   0  0  0  0  0  0  0  0  0  0  0  0
   31.1075   68.0870    8.0027 H   0  0  0  0  0  0  0  0  0  0  0  0
  1  9  1  0  0  0  0
  2 10  1  0  0  0  0
  3 11  1  0  0  0  0
  4  5  1  0  0  0  0
  4  6  1  0  0  0  0
  4 12  1  0  0  0  0
  5  7  1  0  0  0  0
  6  9  1  0  0  0  0
  7  8  1  0  0  0  0
  8 10  1  0  0  0  0
  9 11  1  0  0  0  0
 10 12  1  0  0  0  0
 11 12  1  0  0  0  0
  1 13  1  0  0  0  0
  2 14  1  0  0  0  0
  3 15  1  0  0  0  0
  5 16  1  0  0  0  0
  5 17  1  0  0  0  0
  6 18  1  0  0  0  0
  6 19  1  0  0  0  0
  7 20  1  0  0  0  0
  7 21  1  0  0  0  0
  8 22  1  0  0  0  0
  8 23  1  0  0  0  0
  9 24  1  0  0  0  0
 10 25  1  0  0  0  0
 11 26  1  0  0  0  0
 12 27  1  0  0  0  0
M  END
> <pdb_id>
3BLB

> <uniprot_id>
Q24451

> <usmiles>
O[C@H]1[C@H]2N(C[C@@H](O)[C@H]2O)CCC1

$$$$
SWU_A_302
          07192416293D 1   1.00000     0.00000     0
            
 28 29  0  0  0  0            999 V2000
   -5.3657    1.1103   16.2483 S   0  0  0  0  0  0  0  0  0  0  0  0
   -6.7269    1.5513   16.1567 O   0  0  0  0  0  0  0  0  0  0  0  0
   -4.5515    1.5691   17.3381 O   0  0  0  0  0  0  0  0  0  0  0  0
   -1.2473    7.7242   14.5399 O   0  0  0  0  0  0  0  0  0  0  0  0
   -2.3599    5.8188   14.5706 O   0  0  0  0  0  0  0  0  0  0  0  0
   -5.3532   -0.4881   16.3418 N   0  0  0  0  0  0  0  0  0  0  0  0
   -5.6409    7.6396   12.4480 C   0  0  0  0  0  0  0  0  0  0  0  0
   -4.5226    1.4946   14.7268 C   0  0  0  0  0  0  0  0  0  0  0  0
   -5.6274    3.4956   13.6902 C   0  0  0  0  0  0  0  0  0  0  0  0
   -5.6362    4.8081   13.3115 C   0  0  0  0  0  0  0  0  0  0  0  0
   -3.4443    3.7492   14.6466 C   0  0  0  0  0  0  0  0  0  0  0  0
   -3.3826    7.7309   13.5076 C   0  0  0  0  0  0  0  0  0  0  0  0
   -2.2646    7.1563   14.2189 C   0  0  0  0  0  0  0  0  0  0  0  0
   -3.4691    5.0778   14.2590 C   0  0  0  0  0  0  0  0  0  0  0  0
   -4.5374    2.9461   14.3547 C   0  0  0  0  0  0  0  0  0  0  0  0
   -4.4868    7.0269   13.1911 C   0  0  0  0  0  0  0  0  0  0  0  0
   -4.5460    5.6363   13.5815 C   0  0  0  0  0  0  0  0  0  0  0  0
   -4.4089   -0.8109   16.4063 H   0  0  0  0  0  0  0  0  0  0  0  0
   -5.8608   -0.7785   17.1529 H   0  0  0  0  0  0  0  0  0  0  0  0
   -6.3544    6.9518   12.3147 H   0  0  0  0  0  0  0  0  0  0  0  0
   -6.0095    8.4042   12.9766 H   0  0  0  0  0  0  0  0  0  0  0  0
   -5.3265    7.9705   11.5582 H   0  0  0  0  0  0  0  0  0  0  0  0
   -4.9593    0.9792   13.9895 H   0  0  0  0  0  0  0  0  0  0  0  0
   -3.5696    1.2054   14.8166 H   0  0  0  0  0  0  0  0  0  0  0  0
   -6.4192    2.9200   13.4857 H   0  0  0  0  0  0  0  0  0  0  0  0
   -6.4331    5.1797   12.8353 H   0  0  0  0  0  0  0  0  0  0  0  0
   -2.6522    3.3747   15.1286 H   0  0  0  0  0  0  0  0  0  0  0  0
   -3.3350    8.6928   13.2384 H   0  0  0  0  0  0  0  0  0  0  0  0
  1  2  2  0  0  0  0
  1  3  2  0  0  0  0
  1  6  1  0  0  0  0
  1  8  1  0  0  0  0
  4 13  2  0  0  0  0
  5 13  1  0  0  0  0
  5 14  1  0  0  0  0
  7 16  1  0  0  0  0
  8 15  1  0  0  0  0
  9 10  1  0  0  0  0
  9 15  2  0  0  0  0
 10 17  2  0  0  0  0
 11 14  2  0  0  0  0
 11 15  1  0  0  0  0
 12 13  1  0  0  0  0
 12 16  2  0  0  0  0
 14 17  1  0  0  0  0
 16 17  1  0  0  0  0
  6 18  1  0  0  0  0
  6 19  1  0  0  0  0
  7 20  1  0  0  0  0
  7 21  1  0  0  0  0
  7 22  1  0  0  0  0
  8 23  1  0  0  0  0
  8 24  1  0  0  0  0
  9 25  1  0  0  0  0
 10 26  1  0  0  0  0
 11 27  1  0  0  0  0
 12 28  1  0  0  0  0
M  END
> <pdb_id>
8C0Q

> <uniprot_id>
P00918

> <usmiles>
S(=O)(=O)(N)Cc1cc2OC(=O)C=C(c2cc1)C

$$$$
SX3_A_571
          07202412553D 1   1.00000     0.00000     0
            
 37 38  0  0  0  0            999 V2000
   38.1803   16.8537   54.0334 Br  0  0  0  0  0  0  0  0  0  0  0  0
   39.6864   11.5117   53.8433 O   0  0  0  0  0  0  0  0  0  0  0  0
   42.8545   13.1844   52.6102 N   0  0  0  0  0  0  0  0  0  0  0  0
   41.4533   11.6167   55.2775 N   0  0  0  0  0  0  0  0  0  0  0  0
   43.3276   13.2646   58.1458 C   0  0  0  0  0  0  0  0  0  0  0  0
   41.3569    8.6904   57.7635 C   0  0  0  0  0  0  0  0  0  0  0  0
   42.4044   12.4735   55.9958 C   0  0  0  0  0  0  0  0  0  0  0  0
   41.2699   10.2564   55.8231 C   0  0  0  0  0  0  0  0  0  0  0  0
   40.6750   16.2038   52.7668 C   0  0  0  0  0  0  0  0  0  0  0  0
   41.7427   15.3333   52.4739 C   0  0  0  0  0  0  0  0  0  0  0  0
   39.6357   14.4280   54.0814 C   0  0  0  0  0  0  0  0  0  0  0  0
   42.2884   10.9850   58.0014 C   0  0  0  0  0  0  0  0  0  0  0  0
   39.6344   15.7321   53.5752 C   0  0  0  0  0  0  0  0  0  0  0  0
   40.5962   12.1880   54.3230 C   0  0  0  0  0  0  0  0  0  0  0  0
   41.7707   14.0071   52.9577 C   0  0  0  0  0  0  0  0  0  0  0  0
   42.2414   12.4242   57.5090 C   0  0  1  0  0  0  0  0  0  0  0  0
   41.2060   10.1478   57.3331 C   0  0  2  0  0  0  0  0  0  0  0  0
   40.6977   13.5649   53.7791 C   0  0  0  0  0  0  0  0  0  0  0  0
   42.8935   12.2420   52.9424 H   0  0  0  0  0  0  0  0  0  0  0  0
   43.5872   13.5410   52.0306 H   0  0  0  0  0  0  0  0  0  0  0  0
   43.2291   13.2387   59.1405 H   0  0  0  0  0  0  0  0  0  0  0  0
   44.2234   12.9011   57.8899 H   0  0  0  0  0  0  0  0  0  0  0  0
   43.2479   14.2093   57.8274 H   0  0  0  0  0  0  0  0  0  0  0  0
   41.3132    8.6311   58.7608 H   0  0  0  0  0  0  0  0  0  0  0  0
   40.6184    8.1468   57.3646 H   0  0  0  0  0  0  0  0  0  0  0  0
   42.2380    8.3389   57.4470 H   0  0  0  0  0  0  0  0  0  0  0  0
   42.2713   13.4173   55.6935 H   0  0  0  0  0  0  0  0  0  0  0  0
   43.3320   12.1780   55.7674 H   0  0  0  0  0  0  0  0  0  0  0  0
   42.0353    9.6950   55.5084 H   0  0  0  0  0  0  0  0  0  0  0  0
   40.4151    9.8916   55.4540 H   0  0  0  0  0  0  0  0  0  0  0  0
   40.6608   17.1364   52.4060 H   0  0  0  0  0  0  0  0  0  0  0  0
   42.4995   15.6625   51.9093 H   0  0  0  0  0  0  0  0  0  0  0  0
   38.8813   14.1127   54.6571 H   0  0  0  0  0  0  0  0  0  0  0  0
   42.1477   10.9727   58.9914 H   0  0  0  0  0  0  0  0  0  0  0  0
   43.1837   10.5945   57.7871 H   0  0  0  0  0  0  0  0  0  0  0  0
   41.3527   12.8154   57.7481 H   0  0  0  0  0  0  0  0  0  0  0  0
   40.3133   10.4790   57.6385 H   0  0  0  0  0  0  0  0  0  0  0  0
  1 13  1  0  0  0  0
  2 14  2  0  0  0  0
  3 15  1  0  0  0  0
  4  7  1  0  0  0  0
  4  8  1  0  0  0  0
  4 14  1  0  0  0  0
  5 16  1  0  0  0  0
  6 17  1  0  0  0  0
  7 16  1  0  0  0  0
  8 17  1  0  0  0  0
  9 10  1  0  0  0  0
  9 13  2  0  0  0  0
 10 15  2  0  0  0  0
 11 13  1  0  0  0  0
 11 18  2  0  0  0  0
 12 16  1  0  0  0  0
 12 17  1  0  0  0  0
 14 18  1  0  0  0  0
 15 18  1  0  0  0  0
  3 19  1  0  0  0  0
  3 20  1  0  0  0  0
  5 21  1  0  0  0  0
  5 22  1  0  0  0  0
  5 23  1  0  0  0  0
  6 24  1  0  0  0  0
  6 25  1  0  0  0  0
  6 26  1  0  0  0  0
  7 27  1  0  0  0  0
  7 28  1  0  0  0  0
  8 29  1  0  0  0  0
  8 30  1  0  0  0  0
  9 31  1  0  0  0  0
 10 32  1  0  0  0  0
 11 33  1  0  0  0  0
 12 34  1  0  0  0  0
 12 35  1  0  0  0  0
 16 36  1  0  0  0  0
 17 37  1  0  0  0  0
M  END
> <pdb_id>
3CJ2

> <uniprot_id>
P26663

> <usmiles>
Brc1cc(c(N)cc1)C(=O)N2C[C@@H](C[C@@H](C2)C)C

$$$$
SXL_A_302
          07192416293D 1   1.00000     0.00000     0
            
 28 29  0  0  0  0            999 V2000
   -5.6598    1.1205   16.6046 S   0  0  0  0  0  0  0  0  0  0  0  0
   -5.0138    0.6341   14.1187 F   0  0  0  0  0  0  0  0  0  0  0  0
   -3.3188    0.8317   15.4777 F   0  0  0  0  0  0  0  0  0  0  0  0
   -6.9235    1.6917   16.2168 O   0  0  0  0  0  0  0  0  0  0  0  0
   -4.9347    1.5524   17.7674 O   0  0  0  0  0  0  0  0  0  0  0  0
   -7.3921    7.1377   12.3026 O   0  0  0  0  0  0  0  0  0  0  0  0
   -6.4241    5.4074   13.2547 O   0  0  0  0  0  0  0  0  0  0  0  0
   -5.8127   -0.4739   16.7152 N   0  0  0  0  0  0  0  0  0  0  0  0
   -2.7350    7.5979   13.6309 C   0  0  0  0  0  0  0  0  0  0  0  0
   -3.0636    4.7823   14.5556 C   0  0  0  0  0  0  0  0  0  0  0  0
   -3.2084    3.4719   14.9323 C   0  0  0  0  0  0  0  0  0  0  0  0
   -5.1210    7.4020   12.9359 C   0  0  0  0  0  0  0  0  0  0  0  0
   -5.5053    3.4550   14.2160 C   0  0  0  0  0  0  0  0  0  0  0  0
   -6.3724    6.7072   12.7920 C   0  0  0  0  0  0  0  0  0  0  0  0
   -5.3305    4.7925   13.8284 C   0  0  0  0  0  0  0  0  0  0  0  0
   -4.0344    6.8451   13.4968 C   0  0  0  0  0  0  0  0  0  0  0  0
   -4.1232    5.4733   13.9703 C   0  0  0  0  0  0  0  0  0  0  0  0
   -4.4177    2.7852   14.7714 C   0  0  0  0  0  0  0  0  0  0  0  0
   -4.5235    1.3277   15.1536 C   0  0  0  0  0  0  0  0  0  0  0  0
   -4.9370   -0.8749   16.9844 H   0  0  0  0  0  0  0  0  0  0  0  0
   -6.5057   -0.6955   17.4012 H   0  0  0  0  0  0  0  0  0  0  0  0
   -2.0546    7.0124   14.0717 H   0  0  0  0  0  0  0  0  0  0  0  0
   -2.4086    7.8637   12.7239 H   0  0  0  0  0  0  0  0  0  0  0  0
   -2.8800    8.4168   14.1862 H   0  0  0  0  0  0  0  0  0  0  0  0
   -2.1901    5.2465   14.7021 H   0  0  0  0  0  0  0  0  0  0  0  0
   -2.4276    2.9929   15.3335 H   0  0  0  0  0  0  0  0  0  0  0  0
   -5.0569    8.3428   12.6032 H   0  0  0  0  0  0  0  0  0  0  0  0
   -6.3857    2.9959   14.0968 H   0  0  0  0  0  0  0  0  0  0  0  0
  1  4  2  0  0  0  0
  1  5  2  0  0  0  0
  1  8  1  0  0  0  0
  1 19  1  0  0  0  0
  2 19  1  0  0  0  0
  3 19  1  0  0  0  0
  6 14  2  0  0  0  0
  7 14  1  0  0  0  0
  7 15  1  0  0  0  0
  9 16  1  0  0  0  0
 10 11  1  0  0  0  0
 10 17  2  0  0  0  0
 11 18  2  0  0  0  0
 12 14  1  0  0  0  0
 12 16  2  0  0  0  0
 13 15  2  0  0  0  0
 13 18  1  0  0  0  0
 15 17  1  0  0  0  0
 16 17  1  0  0  0  0
 18 19  1  0  0  0  0
  8 20  1  0  0  0  0
  8 21  1  0  0  0  0
  9 22  1  0  0  0  0
  9 23  1  0  0  0  0
  9 24  1  0  0  0  0
 10 25  1  0  0  0  0
 11 26  1  0  0  0  0
 12 27  1  0  0  0  0
 13 28  1  0  0  0  0
M  END
> <pdb_id>
8C0R

> <uniprot_id>
P00918

> <usmiles>
S(=O)(=O)(N)C(F)(F)c1cc2OC(=O)C=C(c2cc1)C

$$$$
SXS_A_1264
          07192416293D 1   1.00000     0.00000     0
            
 19 20  0  0  0  0            999 V2000
   -6.1619    1.0620   16.8956 S   0  0  0  0  0  0  0  0  0  0  0  0
   -7.6358    1.0710   16.8822 O   0  0  0  0  0  0  0  0  0  0  0  0
   -5.5375    1.1473   18.2031 O   0  0  0  0  0  0  0  0  0  0  0  0
   -4.1006   -0.0798   14.2166 O   0  0  0  0  0  0  0  0  0  0  0  0
   -5.9097    5.7893   15.2829 N   0  0  0  0  0  0  0  0  0  0  0  0
   -5.5094   -0.1420   16.0433 N   0  0  0  0  0  0  0  0  0  0  0  0
   -4.6301    4.1528   14.2600 C   0  0  0  0  0  0  0  0  0  0  0  0
   -4.2563    2.8377   14.0964 C   0  0  0  0  0  0  0  0  0  0  0  0
   -6.1206    3.6037   16.1133 C   0  0  0  0  0  0  0  0  0  0  0  0
   -4.7121    0.4701   15.0915 C   0  0  0  0  0  0  0  0  0  0  0  0
   -5.6536    2.3755   15.9203 C   0  0  0  0  0  0  0  0  0  0  0  0
   -5.5942    4.4670   15.2101 C   0  0  0  0  0  0  0  0  0  0  0  0
   -4.8127    1.9625   14.9855 C   0  0  0  0  0  0  0  0  0  0  0  0
   -3.5510    0.4575   13.5768 H   0  0  0  0  0  0  0  0  0  0  0  0
   -6.5945    6.1045   15.9399 H   0  0  0  0  0  0  0  0  0  0  0  0
   -5.4566    6.4454   14.6794 H   0  0  0  0  0  0  0  0  0  0  0  0
   -4.2139    4.8715   13.7030 H   0  0  0  0  0  0  0  0  0  0  0  0
   -3.6238    2.5448   13.3794 H   0  0  0  0  0  0  0  0  0  0  0  0
   -6.7724    3.8574   16.8281 H   0  0  0  0  0  0  0  0  0  0  0  0
  1  2  2  0  0  0  0
  1  3  2  0  0  0  0
  1  6  1  0  0  0  0
  1 11  1  0  0  0  0
  4 10  1  0  0  0  0
  5 12  1  0  0  0  0
  6 10  2  0  0  0  0
  7  8  1  0  0  0  0
  7 12  2  0  0  0  0
  8 13  2  0  0  0  0
  9 11  2  0  0  0  0
  9 12  1  0  0  0  0
 10 13  1  0  0  0  0
 11 13  1  0  0  0  0
  4 14  1  0  0  0  0
  5 15  1  0  0  0  0
  5 16  1  0  0  0  0
  7 17  1  0  0  0  0
  8 18  1  0  0  0  0
  9 19  1  0  0  0  0
M  END
> <pdb_id>
4CQ0

> <uniprot_id>
P00918

> <usmiles>
S1(=O)(=O)N=C(O)c2c1cc(N)cc2

$$$$
SYC_A_800
          07202400463D 1   1.00000     0.00000     0
            
 19 19  0  0  0  0            999 V2000
   14.3417   13.1523  -16.1972 P   0  0  0  0  0  0  0  0  0  0  0  0
   15.4185   12.9435  -17.2742 O   0  0  0  0  0  0  0  0  0  0  0  0
   13.3106   11.9099  -16.2065 O   0  0  0  0  0  0  0  0  0  0  0  0
   14.8563   13.0032  -14.7223 O   0  0  0  0  0  0  0  0  0  0  0  0
   12.4118   15.7998  -14.6153 N   0  0  0  0  0  0  0  0  0  0  0  0
   13.3858   14.6796  -16.5565 C   0  0  0  0  0  0  0  0  0  0  0  0
   11.4541   16.0141  -13.7102 C   0  0  0  0  0  0  0  0  0  0  0  0
   10.2688   15.3119  -13.7924 C   0  0  0  0  0  0  0  0  0  0  0  0
   10.0582   14.3862  -14.8156 C   0  0  0  0  0  0  0  0  0  0  0  0
   11.0651   14.1571  -15.7516 C   0  0  0  0  0  0  0  0  0  0  0  0
   12.2571   14.8870  -15.5996 C   0  0  0  0  0  0  0  0  0  0  0  0
   16.0541   13.7154  -17.2641 H   0  0  0  0  0  0  0  0  0  0  0  0
   12.6125   12.0507  -15.5044 H   0  0  0  0  0  0  0  0  0  0  0  0
   13.0134   14.6145  -17.4823 H   0  0  0  0  0  0  0  0  0  0  0  0
   14.0026   15.4647  -16.4998 H   0  0  0  0  0  0  0  0  0  0  0  0
   11.5947   16.6794  -12.9770 H   0  0  0  0  0  0  0  0  0  0  0  0
    9.5531   15.4679  -13.1116 H   0  0  0  0  0  0  0  0  0  0  0  0
    9.1915   13.8912  -14.8767 H   0  0  0  0  0  0  0  0  0  0  0  0
   10.9450   13.5026  -16.4981 H   0  0  0  0  0  0  0  0  0  0  0  0
  1  2  1  0  0  0  0
  1  3  1  0  0  0  0
  1  4  2  0  0  0  0
  1  6  1  0  0  0  0
  5  7  2  0  0  0  0
  5 11  1  0  0  0  0
  6 11  1  0  0  0  0
  7  8  1  0  0  0  0
  8  9  2  0  0  0  0
  9 10  1  0  0  0  0
 10 11  2  0  0  0  0
  2 12  1  0  0  0  0
  3 13  1  0  0  0  0
  6 14  1  0  0  0  0
  6 15  1  0  0  0  0
  7 16  1  0  0  0  0
  8 17  1  0  0  0  0
  9 18  1  0  0  0  0
 10 19  1  0  0  0  0
M  END
> <pdb_id>
3ANL

> <uniprot_id>
P45568

> <usmiles>
P(=O)(O)(O)Cc1ncccc1

$$$$
SYD_A_800
          07202400463D 1   1.00000     0.00000     0
            
 29 30  0  0  0  0            999 V2000
   14.2450   13.2970  -16.1440 P   0  0  0  0  0  0  0  0  0  0  0  0
   15.2540   13.1380  -17.2860 O   0  0  0  0  0  0  0  0  0  0  0  0
   13.3820   11.9220  -16.0830 O   0  0  0  0  0  0  0  0  0  0  0  0
   14.8780   13.3420  -14.7130 O   0  0  0  0  0  0  0  0  0  0  0  0
   12.3730   15.7010  -14.3800 N   0  0  0  0  0  0  0  0  0  0  0  0
   13.0980   14.6600  -16.4580 C   0  0  0  0  0  0  0  0  0  0  0  0
    7.4730   15.8420  -10.3680 C   0  0  0  0  0  0  0  0  0  0  0  0
    8.2790   16.9300  -10.8200 C   0  0  0  0  0  0  0  0  0  0  0  0
    7.6100   14.5270  -10.8930 C   0  0  0  0  0  0  0  0  0  0  0  0
   11.5260   15.8400  -13.3580 C   0  0  0  0  0  0  0  0  0  0  0  0
    9.2550   16.6750  -11.8020 C   0  0  0  0  0  0  0  0  0  0  0  0
    8.5720   14.2880  -11.9000 C   0  0  0  0  0  0  0  0  0  0  0  0
   10.8950   14.1300  -15.4490 C   0  0  0  0  0  0  0  0  0  0  0  0
    9.9870   14.2950  -14.4070 C   0  0  0  0  0  0  0  0  0  0  0  0
   12.0810   14.8480  -15.3800 C   0  0  0  0  0  0  0  0  0  0  0  0
   10.3190   15.1640  -13.3610 C   0  0  0  0  0  0  0  0  0  0  0  0
    9.3740   15.3670  -12.3210 C   0  0  0  0  0  0  0  0  0  0  0  0
   15.8087   13.9669  -17.3585 H   0  0  0  0  0  0  0  0  0  0  0  0
   12.7079   11.9839  -15.3469 H   0  0  0  0  0  0  0  0  0  0  0  0
   12.6185   14.4779  -17.3164 H   0  0  0  0  0  0  0  0  0  0  0  0
   13.6268   15.5044  -16.5442 H   0  0  0  0  0  0  0  0  0  0  0  0
    6.7889   16.0099   -9.6582 H   0  0  0  0  0  0  0  0  0  0  0  0
    8.1535   17.8499  -10.4485 H   0  0  0  0  0  0  0  0  0  0  0  0
    7.0341   13.7829  -10.5545 H   0  0  0  0  0  0  0  0  0  0  0  0
   11.7641   16.4335  -12.5892 H   0  0  0  0  0  0  0  0  0  0  0  0
    9.8536   17.4074  -12.1264 H   0  0  0  0  0  0  0  0  0  0  0  0
    8.6804   13.3789  -12.3023 H   0  0  0  0  0  0  0  0  0  0  0  0
   10.7008   13.5189  -16.2163 H   0  0  0  0  0  0  0  0  0  0  0  0
    9.1162   13.8033  -14.4057 H   0  0  0  0  0  0  0  0  0  0  0  0
  1  2  1  0  0  0  0
  1  3  1  0  0  0  0
  1  4  2  0  0  0  0
  1  6  1  0  0  0  0
  5 10  2  0  0  0  0
  5 15  1  0  0  0  0
  6 15  1  0  0  0  0
  7  8  2  0  0  0  0
  7  9  1  0  0  0  0
  8 11  1  0  0  0  0
  9 12  2  0  0  0  0
 10 16  1  0  0  0  0
 11 17  2  0  0  0  0
 12 17  1  0  0  0  0
 13 14  1  0  0  0  0
 13 15  2  0  0  0  0
 14 16  2  0  0  0  0
 16 17  1  0  0  0  0
  2 18  1  0  0  0  0
  3 19  1  0  0  0  0
  6 20  1  0  0  0  0
  6 21  1  0  0  0  0
  7 22  1  0  0  0  0
  8 23  1  0  0  0  0
  9 24  1  0  0  0  0
 10 25  1  0  0  0  0
 11 26  1  0  0  0  0
 12 27  1  0  0  0  0
 13 28  1  0  0  0  0
 14 29  1  0  0  0  0
M  END
> <pdb_id>
3ANM

> <uniprot_id>
P45568

> <usmiles>
P(=O)(O)(O)Cc1ncc(c2ccccc2)cc1

$$$$
SYE_A_800
          07202400463D 1   1.00000     0.00000     0
            
 25 26  0  0  0  0            999 V2000
   14.3604   12.9838  -16.0088 P   0  0  0  0  0  0  0  0  0  0  0  0
   14.7763   13.0548  -14.5840 O   0  0  0  0  0  0  0  0  0  0  0  0
   15.5450   12.8162  -17.1135 O   0  0  0  0  0  0  0  0  0  0  0  0
   13.2898   11.8082  -16.2808 O   0  0  0  0  0  0  0  0  0  0  0  0
   12.7720   15.9721  -14.6662 N   0  0  0  0  0  0  0  0  0  0  0  0
   13.5201   14.4948  -16.4945 C   0  0  0  0  0  0  0  0  0  0  0  0
   11.2573   17.9151  -11.9312 C   0  0  0  0  0  0  0  0  0  0  0  0
   10.0023   17.2774  -11.8161 C   0  0  0  0  0  0  0  0  0  0  0  0
   12.1646   17.4775  -12.9007 C   0  0  0  0  0  0  0  0  0  0  0  0
   11.2691   14.2334  -15.3918 C   0  0  0  0  0  0  0  0  0  0  0  0
    9.6995   16.1858  -12.6582 C   0  0  0  0  0  0  0  0  0  0  0  0
   10.3167   14.6424  -14.4357 C   0  0  0  0  0  0  0  0  0  0  0  0
   12.4961   14.9152  -15.4700 C   0  0  0  0  0  0  0  0  0  0  0  0
   11.8629   16.3928  -13.7398 C   0  0  0  0  0  0  0  0  0  0  0  0
   10.6186   15.7330  -13.6046 C   0  0  0  0  0  0  0  0  0  0  0  0
   13.9671   13.1566  -14.0052 H   0  0  0  0  0  0  0  0  0  0  0  0
   15.1444   12.7806  -18.0291 H   0  0  0  0  0  0  0  0  0  0  0  0
   13.0603   14.3435  -17.3695 H   0  0  0  0  0  0  0  0  0  0  0  0
   14.1967   15.2243  -16.5952 H   0  0  0  0  0  0  0  0  0  0  0  0
   11.4949   18.6734  -11.3242 H   0  0  0  0  0  0  0  0  0  0  0  0
    9.3342   17.5965  -11.1440 H   0  0  0  0  0  0  0  0  0  0  0  0
   13.0433   17.9448  -12.9982 H   0  0  0  0  0  0  0  0  0  0  0  0
   11.0744   13.4686  -16.0059 H   0  0  0  0  0  0  0  0  0  0  0  0
    8.8132   15.7304  -12.5750 H   0  0  0  0  0  0  0  0  0  0  0  0
    9.4424   14.1644  -14.3512 H   0  0  0  0  0  0  0  0  0  0  0  0
  1  2  1  0  0  0  0
  1  3  1  0  0  0  0
  1  4  2  0  0  0  0
  1  6  1  0  0  0  0
  5 13  2  0  0  0  0
  5 14  1  0  0  0  0
  6 13  1  0  0  0  0
  7  8  2  0  0  0  0
  7  9  1  0  0  0  0
  8 11  1  0  0  0  0
  9 14  2  0  0  0  0
 10 12  2  0  0  0  0
 10 13  1  0  0  0  0
 11 15  2  0  0  0  0
 12 15  1  0  0  0  0
 14 15  1  0  0  0  0
  2 16  1  0  0  0  0
  3 17  1  0  0  0  0
  6 18  1  0  0  0  0
  6 19  1  0  0  0  0
  7 20  1  0  0  0  0
  8 21  1  0  0  0  0
  9 22  1  0  0  0  0
 10 23  1  0  0  0  0
 11 24  1  0  0  0  0
 12 25  1  0  0  0  0
M  END
> <pdb_id>
3ANN

> <uniprot_id>
P45568

> <usmiles>
P(=O)(O)(O)Cc1nc2c(cc1)cccc2

$$$$
SZ4_A_6
          07192419343D 1   1.00000     0.00000     0
            
 21 21  0  0  0  0            999 V2000
   47.0717   22.7250   51.3817 O   0  0  0  0  0  0  0  0  0  0  0  0
   47.5636   18.0235   53.5211 N   0  0  0  0  0  0  0  0  0  0  0  0
   47.5785   23.0760   52.6721 C   0  0  0  0  0  0  0  0  0  0  0  0
   46.2757   18.0842   52.8544 C   0  0  0  0  0  0  0  0  0  0  0  0
   45.7410   19.8718   49.5339 C   0  0  0  0  0  0  0  0  0  0  0  0
   46.1793   21.1578   49.8344 C   0  0  0  0  0  0  0  0  0  0  0  0
   45.7719   18.8773   50.5078 C   0  0  0  0  0  0  0  0  0  0  0  0
   46.6773   20.4496   52.0865 C   0  0  0  0  0  0  0  0  0  0  0  0
   46.6474   21.4478   51.1105 C   0  0  0  0  0  0  0  0  0  0  0  0
   46.2440   19.1612   51.7874 C   0  0  0  0  0  0  0  0  0  0  0  0
   47.5459   17.3041   54.2155 H   0  0  0  0  0  0  0  0  0  0  0  0
   48.2771   17.8217   52.8502 H   0  0  0  0  0  0  0  0  0  0  0  0
   47.8354   24.0424   52.6777 H   0  0  0  0  0  0  0  0  0  0  0  0
   46.8732   22.9146   53.3624 H   0  0  0  0  0  0  0  0  0  0  0  0
   48.3811   22.5165   52.8785 H   0  0  0  0  0  0  0  0  0  0  0  0
   45.5686   18.2806   53.5336 H   0  0  0  0  0  0  0  0  0  0  0  0
   46.0906   17.1994   52.4267 H   0  0  0  0  0  0  0  0  0  0  0  0
   45.4032   19.6615   48.6165 H   0  0  0  0  0  0  0  0  0  0  0  0
   46.1575   21.8713   49.1342 H   0  0  0  0  0  0  0  0  0  0  0  0
   45.4539   17.9551   50.2877 H   0  0  0  0  0  0  0  0  0  0  0  0
   47.0116   20.6615   53.0048 H   0  0  0  0  0  0  0  0  0  0  0  0
  1  3  1  0  0  0  0
  1  9  1  0  0  0  0
  2  4  1  0  0  0  0
  4 10  1  0  0  0  0
  5  6  2  0  0  0  0
  5  7  1  0  0  0  0
  6  9  1  0  0  0  0
  7 10  2  0  0  0  0
  8  9  2  0  0  0  0
  8 10  1  0  0  0  0
  2 11  1  0  0  0  0
  2 12  1  0  0  0  0
  3 13  1  0  0  0  0
  3 14  1  0  0  0  0
  3 15  1  0  0  0  0
  4 16  1  0  0  0  0
  4 17  1  0  0  0  0
  5 18  1  0  0  0  0
  6 19  1  0  0  0  0
  7 20  1  0  0  0  0
  8 21  1  0  0  0  0
M  END
> <pdb_id>
3RXD

> <uniprot_id>
P00760

> <usmiles>
O(c1cc(ccc1)CN)C

$$$$
SZ8_A_8
          07192419343D 1   1.00000     0.00000     0
            
 25 25  0  0  0  0            999 V2000
   47.1152   22.7799   50.1921 O   0  0  0  0  0  0  0  0  0  0  0  0
   48.1254   22.4265   52.1552 O   0  0  0  0  0  0  0  0  0  0  0  0
   46.1464   17.5798   52.7394 N   0  0  0  0  0  0  0  0  0  0  0  0
   45.7198   20.1677   50.2398 N   0  0  0  0  0  0  0  0  0  0  0  0
   49.0198   23.4878   51.8768 C   0  0  0  0  0  0  0  0  0  0  0  0
   45.2962   20.7659   48.9781 C   0  0  0  0  0  0  0  0  0  0  0  0
   45.4621   18.8211   50.6763 C   0  0  0  0  0  0  0  0  0  0  0  0
   46.9641   19.8945   52.3044 C   0  0  0  0  0  0  0  0  0  0  0  0
   47.2512   22.0726   51.1072 C   0  0  0  0  0  0  0  0  0  0  0  0
   46.4274   18.5906   51.7962 C   0  0  1  0  0  0  0  0  0  0  0  0
   46.4790   20.8371   51.2533 C   0  0  1  0  0  0  0  0  0  0  0  0
   46.8776   17.5470   53.4207 H   0  0  0  0  0  0  0  0  0  0  0  0
   45.2774   17.7788   53.1924 H   0  0  0  0  0  0  0  0  0  0  0  0
   49.5924   23.6601   52.6783 H   0  0  0  0  0  0  0  0  0  0  0  0
   49.5991   23.2404   51.1002 H   0  0  0  0  0  0  0  0  0  0  0  0
   48.4996   24.3126   51.6552 H   0  0  0  0  0  0  0  0  0  0  0  0
   45.6114   21.7141   48.9363 H   0  0  0  0  0  0  0  0  0  0  0  0
   45.6885   20.2503   48.2164 H   0  0  0  0  0  0  0  0  0  0  0  0
   44.2983   20.7434   48.9170 H   0  0  0  0  0  0  0  0  0  0  0  0
   45.6242   18.1727   49.9325 H   0  0  0  0  0  0  0  0  0  0  0  0
   44.5200   18.7296   50.9989 H   0  0  0  0  0  0  0  0  0  0  0  0
   47.9628   19.8848   52.3553 H   0  0  0  0  0  0  0  0  0  0  0  0
   46.5867   20.1211   53.2022 H   0  0  0  0  0  0  0  0  0  0  0  0
   47.2186   18.2128   51.3151 H   0  0  0  0  0  0  0  0  0  0  0  0
   45.7096   21.2209   51.7639 H   0  0  0  0  0  0  0  0  0  0  0  0
  1  9  2  0  0  0  0
  2  5  1  0  0  0  0
  2  9  1  0  0  0  0
  3 10  1  0  0  0  0
  4  6  1  0  0  0  0
  4  7  1  0  0  0  0
  4 11  1  0  0  0  0
  7 10  1  0  0  0  0
  8 10  1  0  0  0  0
  8 11  1  0  0  0  0
  9 11  1  0  0  0  0
  3 12  1  0  0  0  0
  3 13  1  0  0  0  0
  5 14  1  0  0  0  0
  5 15  1  0  0  0  0
  5 16  1  0  0  0  0
  6 17  1  0  0  0  0
  6 18  1  0  0  0  0
  6 19  1  0  0  0  0
  7 20  1  0  0  0  0
  7 21  1  0  0  0  0
  8 22  1  0  0  0  0
  8 23  1  0  0  0  0
 10 24  1  0  0  0  0
 11 25  1  0  0  0  0
M  END
> <pdb_id>
3RXK

> <uniprot_id>
P00760

> <usmiles>
O=C(OC)[C@H]1N(C[C@H](N)C1)C

$$$$
SZW_A_401
          07202403123D 1   1.00000     0.00000     0
            
 47 50  0  0  0  0            999 V2000
   36.7014   13.0667   34.6465 Cl  0  0  0  0  0  0  0  0  0  0  0  0
   36.3473   11.1156   30.2765 N   0  0  0  0  0  0  0  0  0  0  0  0
   41.8795    8.1357   36.8707 N   0  0  0  0  0  0  0  0  0  0  0  0
   41.7880    6.4464   35.1504 N   0  0  0  0  0  0  0  0  0  0  0  0
   40.4291   10.0030   36.5781 N   0  0  0  0  0  0  0  0  0  0  0  0
   37.7733    7.7140   30.9012 N   0  0  0  0  0  0  0  0  0  0  0  0
   40.2653    6.4512   33.3954 N   0  0  0  0  0  0  0  0  0  0  0  0
   40.4536    5.0116   33.2959 C   0  0  0  0  0  0  0  0  0  0  0  0
   42.2432    6.9940   36.2827 C   0  0  0  0  0  0  0  0  0  0  0  0
   36.0921   10.0366   30.0007 C   0  0  0  0  0  0  0  0  0  0  0  0
   36.3123    7.6783   30.7522 C   0  0  0  0  0  0  0  0  0  0  0  0
   38.4539    7.3743   29.6454 C   0  0  0  0  0  0  0  0  0  0  0  0
   38.2765    6.8519   31.9679 C   0  0  0  0  0  0  0  0  0  0  0  0
   35.8114    8.6367   29.6683 C   0  0  0  0  0  0  0  0  0  0  0  0
   39.9475    7.6384   29.7433 C   0  0  0  0  0  0  0  0  0  0  0  0
   37.7802   10.8542   33.5388 C   0  0  0  0  0  0  0  0  0  0  0  0
   40.5594    6.8796   30.9222 C   0  0  0  0  0  0  0  0  0  0  0  0
   38.5890    9.7366   33.5321 C   0  0  0  0  0  0  0  0  0  0  0  0
   38.7000   11.5569   35.6632 C   0  0  0  0  0  0  0  0  0  0  0  0
   37.8229   11.7363   34.6029 C   0  0  0  0  0  0  0  0  0  0  0  0
   40.9621    8.8135   36.1684 C   0  0  0  0  0  0  0  0  0  0  0  0
   40.8491    7.1266   34.4722 C   0  0  0  0  0  0  0  0  0  0  0  0
   39.5204   10.4268   35.6420 C   0  0  0  0  0  0  0  0  0  0  0  0
   39.7528    7.1336   32.1944 C   0  0  2  0  0  0  0  0  0  0  0  0
   39.4628    9.4961   34.5919 C   0  0  0  0  0  0  0  0  0  0  0  0
   40.4026    8.4100   34.9451 C   0  0  0  0  0  0  0  0  0  0  0  0
   40.6631   10.4856   37.4222 H   0  0  0  0  0  0  0  0  0  0  0  0
   39.9832    4.6692   32.4826 H   0  0  0  0  0  0  0  0  0  0  0  0
   41.4301    4.8071   33.2270 H   0  0  0  0  0  0  0  0  0  0  0  0
   40.0770    4.5691   34.1098 H   0  0  0  0  0  0  0  0  0  0  0  0
   42.9559    6.4753   36.7549 H   0  0  0  0  0  0  0  0  0  0  0  0
   35.8945    7.9334   31.6242 H   0  0  0  0  0  0  0  0  0  0  0  0
   36.0370    6.7479   30.5102 H   0  0  0  0  0  0  0  0  0  0  0  0
   38.0719    7.9293   28.9065 H   0  0  0  0  0  0  0  0  0  0  0  0
   38.3060    6.4057   29.4455 H   0  0  0  0  0  0  0  0  0  0  0  0
   38.1562    5.8941   31.7068 H   0  0  0  0  0  0  0  0  0  0  0  0
   37.7695    7.0340   32.8104 H   0  0  0  0  0  0  0  0  0  0  0  0
   36.2640    8.4128   28.8051 H   0  0  0  0  0  0  0  0  0  0  0  0
   34.8234    8.5209   29.5665 H   0  0  0  0  0  0  0  0  0  0  0  0
   40.0991    8.6186   29.8706 H   0  0  0  0  0  0  0  0  0  0  0  0
   40.3890    7.3399   28.8971 H   0  0  0  0  0  0  0  0  0  0  0  0
   37.1616   11.0268   32.7723 H   0  0  0  0  0  0  0  0  0  0  0  0
   41.5000    7.1893   31.0610 H   0  0  0  0  0  0  0  0  0  0  0  0
   40.5572    5.9002   30.7206 H   0  0  0  0  0  0  0  0  0  0  0  0
   38.5486    9.0968   32.7646 H   0  0  0  0  0  0  0  0  0  0  0  0
   38.7430   12.2137   36.4160 H   0  0  0  0  0  0  0  0  0  0  0  0
   39.8245    8.1138   32.3789 H   0  0  0  0  0  0  0  0  0  0  0  0
  1 20  1  0  0  0  0
  2 10  3  0  0  0  0
  3  9  2  0  0  0  0
  3 21  1  0  0  0  0
  4  9  1  0  0  0  0
  4 22  2  0  0  0  0
  5 21  1  0  0  0  0
  5 23  1  0  0  0  0
  6 11  1  0  0  0  0
  6 12  1  0  0  0  0
  6 13  1  0  0  0  0
  7  8  1  0  0  0  0
  7 22  1  0  0  0  0
  7 24  1  0  0  0  0
 10 14  1  0  0  0  0
 11 14  1  0  0  0  0
 12 15  1  0  0  0  0
 13 24  1  0  0  0  0
 15 17  1  0  0  0  0
 16 18  1  0  0  0  0
 16 20  2  0  0  0  0
 17 24  1  0  0  0  0
 18 25  2  0  0  0  0
 19 20  1  0  0  0  0
 19 23  2  0  0  0  0
 21 26  2  0  0  0  0
 22 26  1  0  0  0  0
 23 25  1  0  0  0  0
 25 26  1  0  0  0  0
  5 27  1  0  0  0  0
  8 28  1  0  0  0  0
  8 29  1  0  0  0  0
  8 30  1  0  0  0  0
  9 31  1  0  0  0  0
 11 32  1  0  0  0  0
 11 33  1  0  0  0  0
 12 34  1  0  0  0  0
 12 35  1  0  0  0  0
 13 36  1  0  0  0  0
 13 37  1  0  0  0  0
 14 38  1  0  0  0  0
 14 39  1  0  0  0  0
 15 40  1  0  0  0  0
 15 41  1  0  0  0  0
 16 42  1  0  0  0  0
 17 43  1  0  0  0  0
 17 44  1  0  0  0  0
 18 45  1  0  0  0  0
 19 46  1  0  0  0  0
 24 47  1  0  0  0  0
M  END
> <pdb_id>
7B6F

> <uniprot_id>
P49841

> <usmiles>
Clc1cc2Nc3ncnc(N([C@@H]4CN(CCC#N)CCC4)C)c3c2cc1

$$$$
T03_A_289
          07202401203D 1   1.00000     0.00000     0
            
 22 23  0  0  0  0            999 V2000
  -10.5867  -43.2276    4.4332 S   0  0  0  0  0  0  0  0  0  0  0  0
   -6.9414  -46.5940    8.5276 F   0  0  0  0  0  0  0  0  0  0  0  0
   -8.1604  -43.4314    1.4334 N   0  0  0  0  0  0  0  0  0  0  0  0
   -9.4980  -43.4077    1.9108 N   0  0  0  0  0  0  0  0  0  0  0  0
   -8.0075  -43.2195    3.5948 N   0  0  0  0  0  0  0  0  0  0  0  0
  -10.8641  -44.9561    4.7315 C   0  0  0  0  0  0  0  0  0  0  0  0
   -7.2640  -43.2878    2.4587 C   0  0  0  0  0  0  0  0  0  0  0  0
   -9.2350  -45.9399    8.1054 C   0  0  0  0  0  0  0  0  0  0  0  0
   -7.5352  -46.0790    6.3099 C   0  0  0  0  0  0  0  0  0  0  0  0
  -10.2363  -45.5671    7.1689 C   0  0  0  0  0  0  0  0  0  0  0  0
   -8.5270  -45.6890    5.4025 C   0  0  0  0  0  0  0  0  0  0  0  0
   -9.2916  -43.2722    3.2452 C   0  0  0  0  0  0  0  0  0  0  0  0
   -7.9116  -46.2126    7.6565 C   0  0  0  0  0  0  0  0  0  0  0  0
   -9.8608  -45.4155    5.8042 C   0  0  0  0  0  0  0  0  0  0  0  0
   -7.9061  -43.5391    0.4723 H   0  0  0  0  0  0  0  0  0  0  0  0
  -10.7212  -45.4741    3.8881 H   0  0  0  0  0  0  0  0  0  0  0  0
  -11.7989  -45.0996    5.0563 H   0  0  0  0  0  0  0  0  0  0  0  0
   -6.2676  -43.2426    2.3865 H   0  0  0  0  0  0  0  0  0  0  0  0
   -9.4592  -46.0106    9.0774 H   0  0  0  0  0  0  0  0  0  0  0  0
   -6.5971  -46.2552    6.0117 H   0  0  0  0  0  0  0  0  0  0  0  0
  -11.1805  -45.4151    7.4610 H   0  0  0  0  0  0  0  0  0  0  0  0
   -8.2872  -45.5997    4.4358 H   0  0  0  0  0  0  0  0  0  0  0  0
  1  6  1  0  0  0  0
  1 12  1  0  0  0  0
  2 13  1  0  0  0  0
  3  4  1  0  0  0  0
  3  7  1  0  0  0  0
  4 12  2  0  0  0  0
  5  7  2  0  0  0  0
  5 12  1  0  0  0  0
  6 14  1  0  0  0  0
  8 10  2  0  0  0  0
  8 13  1  0  0  0  0
  9 11  1  0  0  0  0
  9 13  2  0  0  0  0
 10 14  1  0  0  0  0
 11 14  2  0  0  0  0
  3 15  1  0  0  0  0
  6 16  1  0  0  0  0
  6 17  1  0  0  0  0
  7 18  1  0  0  0  0
  8 19  1  0  0  0  0
  9 20  1  0  0  0  0
 10 21  1  0  0  0  0
 11 22  1  0  0  0  0
M  END
> <pdb_id>
3IU8

> <uniprot_id>
P0A5J2

> <usmiles>
S(C1=NNC=N1)Cc2ccc(F)cc2

$$$$
T07_A_288
          07202401203D 1   1.00000     0.00000     0
            
 24 25  0  0  0  0            999 V2000
   -9.7395  -50.6687    3.5754 Cl  0  0  0  0  0  0  0  0  0  0  0  0
   -7.7385  -46.5668    6.3545 Cl  0  0  0  0  0  0  0  0  0  0  0  0
  -10.8330  -43.7085    4.3997 S   0  0  0  0  0  0  0  0  0  0  0  0
   -6.0280  -43.7374    2.6274 N   0  0  0  0  0  0  0  0  0  0  0  0
   -9.5328  -43.5618    2.0164 N   0  0  0  0  0  0  0  0  0  0  0  0
   -8.1847  -43.6112    1.6177 N   0  0  0  0  0  0  0  0  0  0  0  0
   -8.1570  -43.7022    3.8021 N   0  0  0  0  0  0  0  0  0  0  0  0
  -10.1952  -45.0065    5.4887 C   0  0  0  0  0  0  0  0  0  0  0  0
  -10.8440  -48.1846    3.5591 C   0  0  0  0  0  0  0  0  0  0  0  0
  -10.9622  -46.8931    3.9478 C   0  0  0  0  0  0  0  0  0  0  0  0
   -8.8924  -48.5299    4.8949 C   0  0  0  0  0  0  0  0  0  0  0  0
   -9.4266  -43.6568    3.3443 C   0  0  0  0  0  0  0  0  0  0  0  0
   -9.9068  -49.0035    4.0676 C   0  0  0  0  0  0  0  0  0  0  0  0
   -7.3998  -43.6931    2.6819 C   0  0  0  0  0  0  0  0  0  0  0  0
   -9.0601  -47.2076    5.3119 C   0  0  0  0  0  0  0  0  0  0  0  0
  -10.0698  -46.4101    4.9143 C   0  0  0  0  0  0  0  0  0  0  0  0
   -5.4958  -43.7993    3.4718 H   0  0  0  0  0  0  0  0  0  0  0  0
   -5.5615  -43.7078    1.7434 H   0  0  0  0  0  0  0  0  0  0  0  0
   -7.8657  -43.5880    0.6703 H   0  0  0  0  0  0  0  0  0  0  0  0
  -10.8053  -45.0603    6.2791 H   0  0  0  0  0  0  0  0  0  0  0  0
   -9.2843  -44.7239    5.7893 H   0  0  0  0  0  0  0  0  0  0  0  0
  -11.4752  -48.5415    2.8705 H   0  0  0  0  0  0  0  0  0  0  0  0
  -11.6664  -46.3007    3.5563 H   0  0  0  0  0  0  0  0  0  0  0  0
   -8.1096  -49.0893    5.1677 H   0  0  0  0  0  0  0  0  0  0  0  0
  1 13  1  0  0  0  0
  2 15  1  0  0  0  0
  3  8  1  0  0  0  0
  3 12  1  0  0  0  0
  4 14  1  0  0  0  0
  5  6  1  0  0  0  0
  5 12  2  0  0  0  0
  6 14  1  0  0  0  0
  7 12  1  0  0  0  0
  7 14  2  0  0  0  0
  8 16  1  0  0  0  0
  9 10  1  0  0  0  0
  9 13  2  0  0  0  0
 10 16  2  0  0  0  0
 11 13  1  0  0  0  0
 11 15  2  0  0  0  0
 15 16  1  0  0  0  0
  4 17  1  0  0  0  0
  4 18  1  0  0  0  0
  6 19  1  0  0  0  0
  8 20  1  0  0  0  0
  8 21  1  0  0  0  0
  9 22  1  0  0  0  0
 10 23  1  0  0  0  0
 11 24  1  0  0  0  0
M  END
> <pdb_id>
3IU9

> <uniprot_id>
P0A5J2

> <usmiles>
Clc1c(ccc(Cl)c1)CSC2=NNC(=N2)N

$$$$
T1D_A_1298
          07202400393D 1   1.00000     0.00000     0
            
 36 38  0  0  0  0            999 V2000
   45.9634   15.9362    5.4670 S   0  0  0  0  0  0  0  0  0  0  0  0
   44.5468   16.5881    5.3708 O   0  0  0  0  0  0  0  0  0  0  0  0
   45.9337   14.5878    6.2237 O   0  0  0  0  0  0  0  0  0  0  0  0
   48.8841   18.0470    5.2644 O   0  0  0  0  0  0  0  0  0  0  0  0
   44.8560   16.9284    2.2920 O   0  0  0  0  0  0  0  0  0  0  0  0
   47.0502   16.9620    6.0391 N   0  0  0  0  0  0  0  0  0  0  0  0
   46.5392   15.7587    4.0320 N   0  0  0  0  0  0  0  0  0  0  0  0
   44.1348   17.7311    1.3433 C   0  0  0  0  0  0  0  0  0  0  0  0
   47.7200   16.5813    3.7854 C   0  0  0  0  0  0  0  0  0  0  0  0
   46.6735    8.8549    0.8713 C   0  0  0  0  0  0  0  0  0  0  0  0
   47.5742    9.6450    1.5860 C   0  0  0  0  0  0  0  0  0  0  0  0
   45.4479    9.4166    0.4467 C   0  0  0  0  0  0  0  0  0  0  0  0
   47.2623   10.9882    1.8589 C   0  0  0  0  0  0  0  0  0  0  0  0
   45.1292   10.7495    0.7296 C   0  0  0  0  0  0  0  0  0  0  0  0
   44.5829   14.9086    1.0042 C   0  0  0  0  0  0  0  0  0  0  0  0
   44.8979   13.5614    0.8152 C   0  0  0  0  0  0  0  0  0  0  0  0
   46.3251   13.6173    2.7817 C   0  0  0  0  0  0  0  0  0  0  0  0
   47.9558   17.2850    5.1102 C   0  0  0  0  0  0  0  0  0  0  0  0
   45.1375   15.6080    2.0864 C   0  0  0  0  0  0  0  0  0  0  0  0
   46.0050   14.9713    2.9757 C   0  0  0  0  0  0  0  0  0  0  0  0
   46.0388   11.5438    1.4492 C   0  0  0  0  0  0  0  0  0  0  0  0
   45.7569   12.8946    1.7042 C   0  0  0  0  0  0  0  0  0  0  0  0
   47.0517   17.3168    6.9740 H   0  0  0  0  0  0  0  0  0  0  0  0
   44.0428   18.6622    1.6963 H   0  0  0  0  0  0  0  0  0  0  0  0
   44.6331   17.7510    0.4765 H   0  0  0  0  0  0  0  0  0  0  0  0
   43.2267   17.3389    1.1969 H   0  0  0  0  0  0  0  0  0  0  0  0
   47.5467   17.2436    3.0565 H   0  0  0  0  0  0  0  0  0  0  0  0
   48.5050   16.0128    3.5396 H   0  0  0  0  0  0  0  0  0  0  0  0
   46.8925    7.9019    0.6618 H   0  0  0  0  0  0  0  0  0  0  0  0
   48.4394    9.2568    1.9032 H   0  0  0  0  0  0  0  0  0  0  0  0
   44.7985    8.8527   -0.0636 H   0  0  0  0  0  0  0  0  0  0  0  0
   47.9211   11.5566    2.3519 H   0  0  0  0  0  0  0  0  0  0  0  0
   44.2594   11.1349    0.4215 H   0  0  0  0  0  0  0  0  0  0  0  0
   43.9643   15.3730    0.3705 H   0  0  0  0  0  0  0  0  0  0  0  0
   44.5080   13.0663    0.0389 H   0  0  0  0  0  0  0  0  0  0  0  0
   46.9576   13.1613    3.4076 H   0  0  0  0  0  0  0  0  0  0  0  0
  1  2  2  0  0  0  0
  1  3  2  0  0  0  0
  1  6  1  0  0  0  0
  1  7  1  0  0  0  0
  4 18  2  0  0  0  0
  5  8  1  0  0  0  0
  5 19  1  0  0  0  0
  6 18  1  0  0  0  0
  7  9  1  0  0  0  0
  7 20  1  0  0  0  0
  9 18  1  0  0  0  0
 10 11  2  0  0  0  0
 10 12  1  0  0  0  0
 11 13  1  0  0  0  0
 12 14  2  0  0  0  0
 13 21  2  0  0  0  0
 14 21  1  0  0  0  0
 15 16  1  0  0  0  0
 15 19  2  0  0  0  0
 16 22  2  0  0  0  0
 17 20  2  0  0  0  0
 17 22  1  0  0  0  0
 19 20  1  0  0  0  0
 21 22  1  0  0  0  0
  6 23  1  0  0  0  0
  8 24  1  0  0  0  0
  8 25  1  0  0  0  0
  8 26  1  0  0  0  0
  9 27  1  0  0  0  0
  9 28  1  0  0  0  0
 10 29  1  0  0  0  0
 11 30  1  0  0  0  0
 12 31  1  0  0  0  0
 13 32  1  0  0  0  0
 14 33  1  0  0  0  0
 15 34  1  0  0  0  0
 16 35  1  0  0  0  0
 17 36  1  0  0  0  0
M  END
> <pdb_id>
2BGD

> <uniprot_id>
P18031

> <usmiles>
S1(=O)(=O)N(c2c(OC)ccc(c3ccccc3)c2)CC(=O)N1

$$$$
T1N_C_2
          07202404183D 1   1.00000     0.00000     0
            
 31 32  0  0  0  0            999 V2000
   24.9790   24.4230   12.0958 S   0  0  0  0  0  0  0  0  0  0  0  0
   28.5928   18.8640   18.1792 O   0  0  0  0  0  0  0  0  0  0  0  0
   26.5449   18.2371   18.7738 O   0  0  0  0  0  0  0  0  0  0  0  0
   26.5366   25.1205   11.5934 C   0  0  0  0  0  0  0  0  0  0  0  0
   28.2139   21.0998   19.9768 C   0  0  0  0  0  0  0  0  0  0  0  0
   24.1619   22.8099   14.1266 C   0  0  0  0  0  0  0  0  0  0  0  0
   24.3326   22.0873   15.3058 C   0  0  0  0  0  0  0  0  0  0  0  0
   27.8815   22.7995   16.0429 C   0  0  0  0  0  0  0  0  0  0  0  0
   28.0512   22.0710   17.2190 C   0  0  0  0  0  0  0  0  0  0  0  0
   26.4689   23.5246   14.2229 C   0  0  0  0  0  0  0  0  0  0  0  0
   25.7431   21.3614   17.1188 C   0  0  0  0  0  0  0  0  0  0  0  0
   25.2270   23.5270   13.5841 C   0  0  0  0  0  0  0  0  0  0  0  0
   27.4554   19.0867   18.6482 C   0  0  0  0  0  0  0  0  0  0  0  0
   26.6426   22.8030   15.4011 C   0  0  0  0  0  0  0  0  0  0  0  0
   25.5724   22.0839   15.9406 C   0  0  0  0  0  0  0  0  0  0  0  0
   26.9791   21.3588   17.7636 C   0  0  0  0  0  0  0  0  0  0  0  0
   27.1261   20.5365   19.0517 C   0  0  2  0  0  0  0  0  0  0  0  0
   29.2613   19.6050   18.1154 H   0  0  0  0  0  0  0  0  0  0  0  0
   26.4131   25.6354   10.7451 H   0  0  0  0  0  0  0  0  0  0  0  0
   26.8740   25.7324   12.3087 H   0  0  0  0  0  0  0  0  0  0  0  0
   27.1981   24.3856   11.4439 H   0  0  0  0  0  0  0  0  0  0  0  0
   27.9838   22.0400   20.2280 H   0  0  0  0  0  0  0  0  0  0  0  0
   28.2725   20.5389   20.8026 H   0  0  0  0  0  0  0  0  0  0  0  0
   29.0941   21.0875   19.5023 H   0  0  0  0  0  0  0  0  0  0  0  0
   23.2730   22.8139   13.6684 H   0  0  0  0  0  0  0  0  0  0  0  0
   23.5681   21.5732   15.6947 H   0  0  0  0  0  0  0  0  0  0  0  0
   28.6458   23.3184   15.6601 H   0  0  0  0  0  0  0  0  0  0  0  0
   28.9416   22.0579   17.6739 H   0  0  0  0  0  0  0  0  0  0  0  0
   27.2325   24.0404   13.8347 H   0  0  0  0  0  0  0  0  0  0  0  0
   24.9784   20.8439   17.5026 H   0  0  0  0  0  0  0  0  0  0  0  0
   26.2532   20.5442   19.5396 H   0  0  0  0  0  0  0  0  0  0  0  0
  1  4  1  0  0  0  0
  1 12  1  0  0  0  0
  2 13  1  0  0  0  0
  3 13  2  0  0  0  0
  5 17  1  0  0  0  0
  6  7  2  0  0  0  0
  6 12  1  0  0  0  0
  7 15  1  0  0  0  0
  8  9  1  0  0  0  0
  8 14  2  0  0  0  0
  9 16  2  0  0  0  0
 10 12  2  0  0  0  0
 10 14  1  0  0  0  0
 11 15  2  0  0  0  0
 11 16  1  0  0  0  0
 13 17  1  0  0  0  0
 14 15  1  0  0  0  0
 16 17  1  0  0  0  0
  2 18  1  0  0  0  0
  4 19  1  0  0  0  0
  4 20  1  0  0  0  0
  4 21  1  0  0  0  0
  5 22  1  0  0  0  0
  5 23  1  0  0  0  0
  5 24  1  0  0  0  0
  6 25  1  0  0  0  0
  7 26  1  0  0  0  0
  8 27  1  0  0  0  0
  9 28  1  0  0  0  0
 10 29  1  0  0  0  0
 11 30  1  0  0  0  0
 17 31  1  0  0  0  0
M  END
> <pdb_id>
3NTB

> <uniprot_id>
Q543K3

> <usmiles>
S(c1cc2c(cc(cc2)[C@@H](C(=O)O)C)cc1)C

$$$$
T21_D_200
          07192415303D 1   1.00000     0.00000     0
            
 28 30  0  0  0  0            999 V2000
   18.2650  -27.8760   -1.6810 F   0  0  0  0  0  0  0  0  0  0  0  0
   19.0500  -26.7670   -0.0350 F   0  0  0  0  0  0  0  0  0  0  0  0
   17.1310  -26.5570   -0.5070 F   0  0  0  0  0  0  0  0  0  0  0  0
   13.3710  -30.2350    7.1490 O   0  0  0  0  0  0  0  0  0  0  0  0
   15.5750  -27.6530    4.0040 O   0  0  0  0  0  0  0  0  0  0  0  0
   13.4270  -27.9220    7.3900 N   0  0  0  0  0  0  0  0  0  0  0  0
   13.8460  -26.6510    7.0130 C   0  0  0  0  0  0  0  0  0  0  0  0
   17.6290  -30.8930    1.0270 C   0  0  0  0  0  0  0  0  0  0  0  0
   14.5750  -26.4060    5.8440 C   0  0  0  0  0  0  0  0  0  0  0  0
   16.8760  -30.5960    2.1570 C   0  0  0  0  0  0  0  0  0  0  0  0
   18.0200  -29.8670    0.1880 C   0  0  0  0  0  0  0  0  0  0  0  0
   15.0670  -29.7330    4.5480 C   0  0  0  0  0  0  0  0  0  0  0  0
   16.8610  -28.2420    1.5960 C   0  0  0  0  0  0  0  0  0  0  0  0
   13.7290  -29.0240    6.6910 C   0  0  0  0  0  0  0  0  0  0  0  0
   15.6690  -28.9210    3.6370 C   0  0  0  0  0  0  0  0  0  0  0  0
   14.8560  -27.5510    5.1420 C   0  0  0  0  0  0  0  0  0  0  0  0
   16.4490  -29.2780    2.4260 C   0  0  0  0  0  0  0  0  0  0  0  0
   14.5120  -28.8910    5.5280 C   0  0  0  0  0  0  0  0  0  0  0  0
   17.6470  -28.5800    0.4950 C   0  0  0  0  0  0  0  0  0  0  0  0
   18.0330  -27.4930   -0.4220 C   0  0  0  0  0  0  0  0  0  0  0  0
   12.8762  -28.0176    8.2191 H   0  0  0  0  0  0  0  0  0  0  0  0
   13.6161  -25.8775    7.6036 H   0  0  0  0  0  0  0  0  0  0  0  0
   17.8848  -31.8381    0.8236 H   0  0  0  0  0  0  0  0  0  0  0  0
   14.8608  -25.4935    5.5513 H   0  0  0  0  0  0  0  0  0  0  0  0
   16.6323  -31.3298    2.7911 H   0  0  0  0  0  0  0  0  0  0  0  0
   18.5650  -30.0575   -0.6285 H   0  0  0  0  0  0  0  0  0  0  0  0
   15.0271  -30.7319    4.5251 H   0  0  0  0  0  0  0  0  0  0  0  0
   16.6043  -27.2933    1.7808 H   0  0  0  0  0  0  0  0  0  0  0  0
  1 20  1  0  0  0  0
  2 20  1  0  0  0  0
  3 20  1  0  0  0  0
  4 14  2  0  0  0  0
  5 15  1  0  0  0  0
  5 16  1  0  0  0  0
  6  7  1  0  0  0  0
  6 14  1  0  0  0  0
  7  9  2  0  0  0  0
  8 10  1  0  0  0  0
  8 11  2  0  0  0  0
  9 16  1  0  0  0  0
 10 17  2  0  0  0  0
 11 19  1  0  0  0  0
 12 15  2  0  0  0  0
 12 18  1  0  0  0  0
 13 17  1  0  0  0  0
 13 19  2  0  0  0  0
 14 18  1  0  0  0  0
 15 17  1  0  0  0  0
 16 18  2  0  0  0  0
 19 20  1  0  0  0  0
  6 21  1  0  0  0  0
  7 22  1  0  0  0  0
  8 23  1  0  0  0  0
  9 24  1  0  0  0  0
 10 25  1  0  0  0  0
 11 26  1  0  0  0  0
 12 27  1  0  0  0  0
 13 28  1  0  0  0  0
M  END
> <pdb_id>
4Y59

> <uniprot_id>
P22629

> <usmiles>
FC(F)(F)c1cc(ccc1)C=2OC3=C(C(=O)NC=C3)C2

$$$$
T27_A_601
          07202417453D 1   1.00000     0.00000     0
            
 48 50  0  0  0  0            999 V2000
   45.9355  -29.0868   42.3685 N   0  0  0  0  0  0  0  0  0  0  0  0
   48.6229  -33.2671   36.0430 N   0  0  0  0  0  0  0  0  0  0  0  0
   52.9559  -25.6399   33.3302 N   0  0  0  0  0  0  0  0  0  0  0  0
   51.9927  -26.1633   35.3931 N   0  0  0  0  0  0  0  0  0  0  0  0
   51.7351  -27.6471   33.5018 N   0  0  0  0  0  0  0  0  0  0  0  0
   52.2214  -24.7523   37.3022 N   0  0  0  0  0  0  0  0  0  0  0  0
   49.5657  -23.6258   37.7759 C   0  0  0  0  0  0  0  0  0  0  0  0
   53.0042  -27.3835   38.2055 C   0  0  0  0  0  0  0  0  0  0  0  0
   46.5291  -28.4003   41.6888 C   0  0  0  0  0  0  0  0  0  0  0  0
   53.4652  -24.5269   33.8362 C   0  0  0  0  0  0  0  0  0  0  0  0
   49.1228  -32.3268   35.6636 C   0  0  0  0  0  0  0  0  0  0  0  0
   47.2833  -27.4736   40.7342 C   0  0  0  0  0  0  0  0  0  0  0  0
   53.2369  -24.2263   35.1450 C   0  0  0  0  0  0  0  0  0  0  0  0
   48.5134  -28.1129   40.1527 C   0  0  0  0  0  0  0  0  0  0  0  0
   51.0219  -30.0231   33.2990 C   0  0  0  0  0  0  0  0  0  0  0  0
   50.5153  -28.7250   35.3407 C   0  0  0  0  0  0  0  0  0  0  0  0
   50.4274  -31.0863   33.7711 C   0  0  0  0  0  0  0  0  0  0  0  0
   49.8229  -29.9686   35.8816 C   0  0  0  0  0  0  0  0  0  0  0  0
   49.0140  -25.7701   38.9297 C   0  0  0  0  0  0  0  0  0  0  0  0
   50.6216  -27.6171   39.1728 C   0  0  0  0  0  0  0  0  0  0  0  0
   52.2474  -26.4512   34.1164 C   0  0  0  0  0  0  0  0  0  0  0  0
   52.4969  -25.0621   35.9132 C   0  0  0  0  0  0  0  0  0  0  0  0
   51.0725  -28.7578   34.1429 C   0  0  0  0  0  0  0  0  0  0  0  0
   49.7948  -31.0609   35.1420 C   0  0  0  0  0  0  0  0  0  0  0  0
   49.4275  -27.1607   39.4019 C   0  0  0  0  0  0  0  0  0  0  0  0
   51.2790  -25.5713   38.0163 C   0  0  0  0  0  0  0  0  0  0  0  0
   49.8969  -25.0303   38.2822 C   0  0  0  0  0  0  0  0  0  0  0  0
   51.6261  -26.7781   38.4413 C   0  0  0  0  0  0  0  0  0  0  0  0
   51.8522  -27.7172   32.5111 H   0  0  0  0  0  0  0  0  0  0  0  0
   52.6769  -23.9855   37.7544 H   0  0  0  0  0  0  0  0  0  0  0  0
   50.3655  -23.2401   37.3160 H   0  0  0  0  0  0  0  0  0  0  0  0
   48.8024  -23.6751   37.1318 H   0  0  0  0  0  0  0  0  0  0  0  0
   49.3127  -23.0439   38.5488 H   0  0  0  0  0  0  0  0  0  0  0  0
   53.5760  -26.7285   37.7115 H   0  0  0  0  0  0  0  0  0  0  0  0
   53.4283  -27.5995   39.0849 H   0  0  0  0  0  0  0  0  0  0  0  0
   52.9127  -28.2200   37.6651 H   0  0  0  0  0  0  0  0  0  0  0  0
   54.0110  -23.9146   33.2642 H   0  0  0  0  0  0  0  0  0  0  0  0
   47.5563  -26.6523   41.2352 H   0  0  0  0  0  0  0  0  0  0  0  0
   46.6710  -27.2192   39.9855 H   0  0  0  0  0  0  0  0  0  0  0  0
   53.6154  -23.3887   35.5390 H   0  0  0  0  0  0  0  0  0  0  0  0
   48.2223  -28.8299   39.5193 H   0  0  0  0  0  0  0  0  0  0  0  0
   49.0358  -28.5214   40.9012 H   0  0  0  0  0  0  0  0  0  0  0  0
   51.4401  -30.0405   32.3908 H   0  0  0  0  0  0  0  0  0  0  0  0
   50.5481  -27.8889   35.8882 H   0  0  0  0  0  0  0  0  0  0  0  0
   50.3911  -31.9212   33.2219 H   0  0  0  0  0  0  0  0  0  0  0  0
   49.3951  -29.9576   36.7854 H   0  0  0  0  0  0  0  0  0  0  0  0
   48.0922  -25.4251   39.1068 H   0  0  0  0  0  0  0  0  0  0  0  0
   50.8724  -28.5331   39.4860 H   0  0  0  0  0  0  0  0  0  0  0  0
  1  9  3  0  0  0  0
  2 11  3  0  0  0  0
  3 10  1  0  0  0  0
  3 21  2  0  0  0  0
  4 21  1  0  0  0  0
  4 22  2  0  0  0  0
  5 21  1  0  0  0  0
  5 23  1  0  0  0  0
  6 22  1  0  0  0  0
  6 26  1  0  0  0  0
  7 27  1  0  0  0  0
  8 28  1  0  0  0  0
  9 12  1  0  0  0  0
 10 13  2  0  0  0  0
 11 24  1  0  0  0  0
 12 14  1  0  0  0  0
 13 22  1  0  0  0  0
 14 25  1  0  0  0  0
 15 17  1  0  0  0  0
 15 23  2  0  0  0  0
 16 18  2  0  0  0  0
 16 23  1  0  0  0  0
 17 24  2  0  0  0  0
 18 24  1  0  0  0  0
 19 25  2  0  0  0  0
 19 27  1  0  0  0  0
 20 25  1  0  0  0  0
 20 28  2  0  0  0  0
 26 27  2  0  0  0  0
 26 28  1  0  0  0  0
  5 29  1  0  0  0  0
  6 30  1  0  0  0  0
  7 31  1  0  0  0  0
  7 32  1  0  0  0  0
  7 33  1  0  0  0  0
  8 34  1  0  0  0  0
  8 35  1  0  0  0  0
  8 36  1  0  0  0  0
 10 37  1  0  0  0  0
 12 38  1  0  0  0  0
 12 39  1  0  0  0  0
 13 40  1  0  0  0  0
 14 41  1  0  0  0  0
 14 42  1  0  0  0  0
 15 43  1  0  0  0  0
 16 44  1  0  0  0  0
 17 45  1  0  0  0  0
 18 46  1  0  0  0  0
 19 47  1  0  0  0  0
 20 48  1  0  0  0  0
M  END
> <pdb_id>
8DX2

> <uniprot_id>
P03366

> <usmiles>
N#Cc1ccc(Nc2nc(Nc3c(cc(cc3C)CCC#N)C)ccn2)cc1

$$$$
T27_A_601
          07202417453D 1   1.00000     0.00000     0
            
 54 56  0  0  0  0            999 V2000
   45.9844  -28.9847   42.4629 N   0  0  0  0  0  0  0  0  0  0  0  0
   49.2568  -33.3469   35.4586 N   0  0  0  0  0  0  0  0  0  0  0  0
   52.9211  -25.6091   33.3079 N   0  0  0  0  0  0  0  0  0  0  0  0
   51.9986  -26.1821   35.3517 N   0  0  0  0  0  0  0  0  0  0  0  0
   51.8194  -27.6807   33.4102 N   0  0  0  0  0  0  0  0  0  0  0  0
   52.1662  -24.7627   37.2863 N   0  0  0  0  0  0  0  0  0  0  0  0
   49.5689  -23.6649   37.7050 C   0  0  0  0  0  0  0  0  0  0  0  0
   52.9498  -27.3851   38.2317 C   0  0  0  0  0  0  0  0  0  0  0  0
   46.7542  -29.0220   41.4752 C   0  0  0  0  0  0  0  0  0  0  0  0
   53.3875  -24.4665   33.7856 C   0  0  0  0  0  0  0  0  0  0  0  0
   49.0448  -32.0268   35.9277 C   0  0  0  0  0  0  0  0  0  0  0  0
   47.4177  -27.7765   40.8846 C   0  0  0  0  0  0  0  0  0  0  0  0
   53.1430  -24.1559   35.1204 C   0  0  0  0  0  0  0  0  0  0  0  0
   48.4562  -28.0505   40.1330 C   0  0  0  0  0  0  0  0  0  0  0  0
   50.9394  -29.9685   33.2867 C   0  0  0  0  0  0  0  0  0  0  0  0
   50.6540  -28.7055   35.3030 C   0  0  0  0  0  0  0  0  0  0  0  0
   50.2696  -31.0342   33.8810 C   0  0  0  0  0  0  0  0  0  0  0  0
   49.9929  -29.7590   35.8803 C   0  0  0  0  0  0  0  0  0  0  0  0
   48.9840  -25.8302   38.9330 C   0  0  0  0  0  0  0  0  0  0  0  0
   50.6304  -27.5527   39.1382 C   0  0  0  0  0  0  0  0  0  0  0  0
   52.2524  -26.4564   34.0759 C   0  0  0  0  0  0  0  0  0  0  0  0
   52.4273  -25.0561   35.8965 C   0  0  0  0  0  0  0  0  0  0  0  0
   51.1285  -28.7967   34.0156 C   0  0  0  0  0  0  0  0  0  0  0  0
   49.8018  -30.9268   35.1813 C   0  0  0  0  0  0  0  0  0  0  0  0
   49.3607  -27.0807   39.3796 C   0  0  0  0  0  0  0  0  0  0  0  0
   51.1903  -25.5488   37.9985 C   0  0  0  0  0  0  0  0  0  0  0  0
   49.9202  -25.0558   38.2409 C   0  0  0  0  0  0  0  0  0  0  0  0
   51.5591  -26.8084   38.4641 C   0  0  0  0  0  0  0  0  0  0  0  0
   45.6694  -29.9098   42.6751 H   0  0  0  0  0  0  0  0  0  0  0  0
   46.4717  -28.6094   43.2513 H   0  0  0  0  0  0  0  0  0  0  0  0
   48.7207  -33.9865   36.0095 H   0  0  0  0  0  0  0  0  0  0  0  0
   48.9718  -33.4106   34.5022 H   0  0  0  0  0  0  0  0  0  0  0  0
   52.0216  -27.7553   32.4337 H   0  0  0  0  0  0  0  0  0  0  0  0
   52.6562  -24.0236   37.7486 H   0  0  0  0  0  0  0  0  0  0  0  0
   50.3654  -23.2746   37.2432 H   0  0  0  0  0  0  0  0  0  0  0  0
   48.8109  -23.7391   37.0569 H   0  0  0  0  0  0  0  0  0  0  0  0
   49.3009  -23.0728   38.4650 H   0  0  0  0  0  0  0  0  0  0  0  0
   53.5055  -26.7231   37.7288 H   0  0  0  0  0  0  0  0  0  0  0  0
   53.3808  -27.5813   39.1125 H   0  0  0  0  0  0  0  0  0  0  0  0
   52.8761  -28.2296   37.7012 H   0  0  0  0  0  0  0  0  0  0  0  0
   46.2268  -29.4317   40.7309 H   0  0  0  0  0  0  0  0  0  0  0  0
   47.5009  -29.6358   41.7317 H   0  0  0  0  0  0  0  0  0  0  0  0
   53.9038  -23.8405   33.2012 H   0  0  0  0  0  0  0  0  0  0  0  0
   49.3229  -31.9938   36.8877 H   0  0  0  0  0  0  0  0  0  0  0  0
   48.0671  -31.8291   35.8569 H   0  0  0  0  0  0  0  0  0  0  0  0
   47.0919  -26.8465   41.0548 H   0  0  0  0  0  0  0  0  0  0  0  0
   53.4773  -23.2990   35.5129 H   0  0  0  0  0  0  0  0  0  0  0  0
   48.6848  -29.0197   40.0420 H   0  0  0  0  0  0  0  0  0  0  0  0
   51.2802  -30.0432   32.3495 H   0  0  0  0  0  0  0  0  0  0  0  0
   50.7923  -27.8627   35.8231 H   0  0  0  0  0  0  0  0  0  0  0  0
   50.1254  -31.8804   33.3680 H   0  0  0  0  0  0  0  0  0  0  0  0
   49.6479  -29.6771   36.8153 H   0  0  0  0  0  0  0  0  0  0  0  0
   48.0606  -25.4851   39.1010 H   0  0  0  0  0  0  0  0  0  0  0  0
   50.8809  -28.4642   39.4642 H   0  0  0  0  0  0  0  0  0  0  0  0
  1  9  1  0  0  0  0
  2 11  1  0  0  0  0
  3 10  1  0  0  0  0
  3 21  2  0  0  0  0
  4 21  1  0  0  0  0
  4 22  2  0  0  0  0
  5 21  1  0  0  0  0
  5 23  1  0  0  0  0
  6 22  1  0  0  0  0
  6 26  1  0  0  0  0
  7 27  1  0  0  0  0
  8 28  1  0  0  0  0
  9 12  1  0  0  0  0
 10 13  2  0  0  0  0
 11 24  1  0  0  0  0
 12 14  2  0  0  0  0
 13 22  1  0  0  0  0
 14 25  1  0  0  0  0
 15 17  1  0  0  0  0
 15 23  2  0  0  0  0
 16 18  2  0  0  0  0
 16 23  1  0  0  0  0
 17 24  2  0  0  0  0
 18 24  1  0  0  0  0
 19 25  2  0  0  0  0
 19 27  1  0  0  0  0
 20 25  1  0  0  0  0
 20 28  2  0  0  0  0
 26 27  2  0  0  0  0
 26 28  1  0  0  0  0
  1 29  1  0  0  0  0
  1 30  1  0  0  0  0
  2 31  1  0  0  0  0
  2 32  1  0  0  0  0
  5 33  1  0  0  0  0
  6 34  1  0  0  0  0
  7 35  1  0  0  0  0
  7 36  1  0  0  0  0
  7 37  1  0  0  0  0
  8 38  1  0  0  0  0
  8 39  1  0  0  0  0
  8 40  1  0  0  0  0
  9 41  1  0  0  0  0
  9 42  1  0  0  0  0
 10 43  1  0  0  0  0
 11 44  1  0  0  0  0
 11 45  1  0  0  0  0
 12 46  1  0  0  0  0
 13 47  1  0  0  0  0
 14 48  1  0  0  0  0
 15 49  1  0  0  0  0
 16 50  1  0  0  0  0
 17 51  1  0  0  0  0
 18 52  1  0  0  0  0
 19 53  1  0  0  0  0
 20 54  1  0  0  0  0
M  END
> <pdb_id>
8DXK

> <uniprot_id>
P03366

> <usmiles>
n1c(nccc1Nc2c(cc(cc2C)/C=C/CN)C)Nc3ccc(cc3)CN

$$$$
T27_A_702
          07202417453D 1   1.00000     0.00000     0
            
 46 48  0  0  0  0            999 V2000
   46.0430  -29.1510   42.2560 N   0  0  0  0  0  0  0  0  0  0  0  0
   48.6210  -33.2050   35.9040 N   0  0  0  0  0  0  0  0  0  0  0  0
   52.9580  -25.6900   33.2370 N   0  0  0  0  0  0  0  0  0  0  0  0
   51.9600  -26.1960   35.3070 N   0  0  0  0  0  0  0  0  0  0  0  0
   51.7500  -27.6810   33.4180 N   0  0  0  0  0  0  0  0  0  0  0  0
   52.1610  -24.7730   37.2070 N   0  0  0  0  0  0  0  0  0  0  0  0
   49.5890  -23.7390   37.6360 C   0  0  0  0  0  0  0  0  0  0  0  0
   52.9730  -27.4020   38.1910 C   0  0  0  0  0  0  0  0  0  0  0  0
   46.6340  -28.4490   41.5880 C   0  0  0  0  0  0  0  0  0  0  0  0
   53.4790  -24.5370   33.7260 C   0  0  0  0  0  0  0  0  0  0  0  0
   49.1320  -32.2500   35.5510 C   0  0  0  0  0  0  0  0  0  0  0  0
   47.3750  -27.5540   40.6540 C   0  0  0  0  0  0  0  0  0  0  0  0
   53.2290  -24.2140   35.0630 C   0  0  0  0  0  0  0  0  0  0  0  0
   48.5470  -28.0080   40.1260 C   0  0  0  0  0  0  0  0  0  0  0  0
   50.9540  -29.9040   33.2690 C   0  0  0  0  0  0  0  0  0  0  0  0
   50.5570  -28.7450   35.3470 C   0  0  0  0  0  0  0  0  0  0  0  0
   50.3160  -31.0100   33.7920 C   0  0  0  0  0  0  0  0  0  0  0  0
   49.9170  -29.8710   35.8660 C   0  0  0  0  0  0  0  0  0  0  0  0
   49.0390  -25.8580   38.8880 C   0  0  0  0  0  0  0  0  0  0  0  0
   50.7160  -27.5800   39.1280 C   0  0  0  0  0  0  0  0  0  0  0  0
   52.2450  -26.4900   34.0310 C   0  0  0  0  0  0  0  0  0  0  0  0
   52.4430  -25.0590   35.8470 C   0  0  0  0  0  0  0  0  0  0  0  0
   51.0870  -28.7710   34.0590 C   0  0  0  0  0  0  0  0  0  0  0  0
   49.7960  -31.0050   35.0670 C   0  0  0  0  0  0  0  0  0  0  0  0
   49.4410  -27.1080   39.3490 C   0  0  0  0  0  0  0  0  0  0  0  0
   51.2310  -25.5770   37.9300 C   0  0  0  0  0  0  0  0  0  0  0  0
   49.9580  -25.0880   38.1670 C   0  0  0  0  0  0  0  0  0  0  0  0
   51.6180  -26.8300   38.4160 C   0  0  0  0  0  0  0  0  0  0  0  0
   51.8824  -27.7604   32.4300 H   0  0  0  0  0  0  0  0  0  0  0  0
   52.6152  -24.0059   37.6601 H   0  0  0  0  0  0  0  0  0  0  0  0
   50.3709  -23.3459   37.1522 H   0  0  0  0  0  0  0  0  0  0  0  0
   48.8177  -23.8284   37.0058 H   0  0  0  0  0  0  0  0  0  0  0  0
   49.3317  -23.1410   38.3950 H   0  0  0  0  0  0  0  0  0  0  0  0
   53.5240  -26.7560   37.6627 H   0  0  0  0  0  0  0  0  0  0  0  0
   53.4133  -27.5727   39.0725 H   0  0  0  0  0  0  0  0  0  0  0  0
   52.8924  -28.2617   37.6866 H   0  0  0  0  0  0  0  0  0  0  0  0
   54.0270  -23.9344   33.1459 H   0  0  0  0  0  0  0  0  0  0  0  0
   47.0227  -26.6474   40.4217 H   0  0  0  0  0  0  0  0  0  0  0  0
   53.6129  -23.3788   35.4567 H   0  0  0  0  0  0  0  0  0  0  0  0
   48.8104  -28.9629   40.2634 H   0  0  0  0  0  0  0  0  0  0  0  0
   51.3145  -29.9187   32.3363 H   0  0  0  0  0  0  0  0  0  0  0  0
   50.6355  -27.9165   35.9015 H   0  0  0  0  0  0  0  0  0  0  0  0
   50.2293  -31.8341   33.2323 H   0  0  0  0  0  0  0  0  0  0  0  0
   49.5512  -29.8637   36.7966 H   0  0  0  0  0  0  0  0  0  0  0  0
   48.1157  -25.5184   39.0677 H   0  0  0  0  0  0  0  0  0  0  0  0
   50.9855  -28.4732   39.4880 H   0  0  0  0  0  0  0  0  0  0  0  0
  1  9  3  0  0  0  0
  2 11  3  0  0  0  0
  3 10  1  0  0  0  0
  3 21  2  0  0  0  0
  4 21  1  0  0  0  0
  4 22  2  0  0  0  0
  5 21  1  0  0  0  0
  5 23  1  0  0  0  0
  6 22  1  0  0  0  0
  6 26  1  0  0  0  0
  7 27  1  0  0  0  0
  8 28  1  0  0  0  0
  9 12  1  0  0  0  0
 10 13  2  0  0  0  0
 11 24  1  0  0  0  0
 12 14  2  0  0  0  0
 13 22  1  0  0  0  0
 14 25  1  0  0  0  0
 15 17  1  0  0  0  0
 15 23  2  0  0  0  0
 16 18  2  0  0  0  0
 16 23  1  0  0  0  0
 17 24  2  0  0  0  0
 18 24  1  0  0  0  0
 19 25  2  0  0  0  0
 19 27  1  0  0  0  0
 20 25  1  0  0  0  0
 20 28  2  0  0  0  0
 26 27  2  0  0  0  0
 26 28  1  0  0  0  0
  5 29  1  0  0  0  0
  6 30  1  0  0  0  0
  7 31  1  0  0  0  0
  7 32  1  0  0  0  0
  7 33  1  0  0  0  0
  8 34  1  0  0  0  0
  8 35  1  0  0  0  0
  8 36  1  0  0  0  0
 10 37  1  0  0  0  0
 12 38  1  0  0  0  0
 13 39  1  0  0  0  0
 14 40  1  0  0  0  0
 15 41  1  0  0  0  0
 16 42  1  0  0  0  0
 17 43  1  0  0  0  0
 18 44  1  0  0  0  0
 19 45  1  0  0  0  0
 20 46  1  0  0  0  0
M  END
> <pdb_id>
8DX3

> <uniprot_id>
P03366

> <usmiles>
N#Cc1ccc(Nc2nc(Nc3c(cc(cc3C)/C=C/C#N)C)ccn2)cc1

$$$$
T28_A_701
          07192423243D 1   1.00000     0.00000     0
            
 33 36  0  0  0  0            999 V2000
   -9.0761   31.9462   -1.9729 Br  0  0  0  0  0  0  0  0  0  0  0  0
   -3.6792   32.0009   -0.1207 N   0  0  0  0  0  0  0  0  0  0  0  0
   -2.0133   30.5388   -0.8667 N   0  0  0  0  0  0  0  0  0  0  0  0
   -4.0287   30.7009   -2.0197 N   0  0  0  0  0  0  0  0  0  0  0  0
   -5.7468   28.6624   -5.7644 N   0  0  0  0  0  0  0  0  0  0  0  0
   -1.5846   29.6297   -1.7455 C   0  0  0  0  0  0  0  0  0  0  0  0
   -8.6995   30.3873   -4.3215 C   0  0  0  0  0  0  0  0  0  0  0  0
   -8.0013   29.6197   -5.2460 C   0  0  0  0  0  0  0  0  0  0  0  0
   -6.7058   30.6453   -2.9952 C   0  0  0  0  0  0  0  0  0  0  0  0
   -2.7331   27.3023   -4.4562 C   0  0  0  0  0  0  0  0  0  0  0  0
   -3.2964   28.0467   -5.6415 C   0  0  0  0  0  0  0  0  0  0  0  0
   -1.7476   28.1779   -3.7192 C   0  0  0  0  0  0  0  0  0  0  0  0
   -3.2378   31.0775   -1.0024 C   0  0  0  0  0  0  0  0  0  0  0  0
   -8.0596   30.9058   -3.1971 C   0  0  0  0  0  0  0  0  0  0  0  0
   -6.6514   29.3612   -5.0481 C   0  0  0  0  0  0  0  0  0  0  0  0
   -4.5465   28.7177   -5.1429 C   0  0  0  0  0  0  0  0  0  0  0  0
   -2.3830   29.2124   -2.8061 C   0  0  0  0  0  0  0  0  0  0  0  0
   -3.6446   29.7928   -2.9420 C   0  0  0  0  0  0  0  0  0  0  0  0
   -6.0097   29.8696   -3.9298 C   0  0  0  0  0  0  0  0  0  0  0  0
   -4.6722   29.4723   -3.9826 C   0  0  0  0  0  0  0  0  0  0  0  0
   -3.0875   32.2916    0.6444 H   0  0  0  0  0  0  0  0  0  0  0  0
   -4.6019   32.3990   -0.2257 H   0  0  0  0  0  0  0  0  0  0  0  0
   -0.5945   29.2071   -1.6298 H   0  0  0  0  0  0  0  0  0  0  0  0
   -9.7518   30.5913   -4.4815 H   0  0  0  0  0  0  0  0  0  0  0  0
   -8.5069   29.2295   -6.1205 H   0  0  0  0  0  0  0  0  0  0  0  0
   -6.1972   31.0364   -2.1227 H   0  0  0  0  0  0  0  0  0  0  0  0
   -3.5443   27.0141   -3.7844 H   0  0  0  0  0  0  0  0  0  0  0  0
   -2.2349   26.3927   -4.7962 H   0  0  0  0  0  0  0  0  0  0  0  0
   -2.5818   28.7890   -6.0027 H   0  0  0  0  0  0  0  0  0  0  0  0
   -3.5310   27.3545   -6.4533 H   0  0  0  0  0  0  0  0  0  0  0  0
   -1.0901   27.5406   -3.1226 H   0  0  0  0  0  0  0  0  0  0  0  0
   -1.1211   28.6933   -4.4501 H   0  0  0  0  0  0  0  0  0  0  0  0
   -5.9339   28.1796   -6.6198 H   0  0  0  0  0  0  0  0  0  0  0  0
  1 14  1  0  0  0  0
  2 13  1  0  0  0  0
  2 21  1  0  0  0  0
  2 22  1  0  0  0  0
  3  6  1  0  0  0  0
  3 13  2  0  0  0  0
  4 13  1  0  0  0  0
  4 18  2  0  0  0  0
  5 15  1  0  0  0  0
  5 16  1  0  0  0  0
  6 17  2  0  0  0  0
  6 23  1  0  0  0  0
  7  8  1  0  0  0  0
  7 14  2  0  0  0  0
  7 24  1  0  0  0  0
  8 15  2  0  0  0  0
  8 25  1  0  0  0  0
  9 14  1  0  0  0  0
  9 19  2  0  0  0  0
  9 26  1  0  0  0  0
 10 11  1  0  0  0  0
 10 12  1  0  0  0  0
 10 27  1  0  0  0  0
 10 28  1  0  0  0  0
 11 16  1  0  0  0  0
 11 29  1  0  0  0  0
 11 30  1  0  0  0  0
 12 17  1  0  0  0  0
 12 31  1  0  0  0  0
 12 32  1  0  0  0  0
 15 19  1  0  0  0  0
 16 20  2  0  0  0  0
 17 18  1  0  0  0  0
 18 20  1  0  0  0  0
 19 20  1  0  0  0  0
  5 33  1  0  0  0  0
M  END
> <pdb_id>
4IDT

> <uniprot_id>
Q99558

> <usmiles>
Brc1cc2c(NC3=C2c4nc(ncc4CCC3)N)cc1

$$$$
T3_A_501
          07192421523D 1   1.00000     0.00000     0
            
 35 36  0  0  0  0            999 V2000
   30.3394   41.2763   27.2631 I   0  0  0  0  0  0  0  0  0  0  0  0
   27.1952   41.2621   32.5420 I   0  0  0  0  0  0  0  0  0  0  0  0
   26.2077   35.5078   30.5445 I   0  0  0  0  0  0  0  0  0  0  0  0
   23.0373   36.0631   37.8323 O   0  0  0  0  0  0  0  0  0  0  0  0
   25.1446   35.8599   38.3258 O   0  0  0  0  0  0  0  0  0  0  0  0
   32.1108   39.0106   28.4784 O   0  0  0  0  0  0  0  0  0  0  0  0
   26.9524   38.6934   30.5953 O   0  0  0  0  0  0  0  0  0  0  0  0
   23.4123   36.5602   35.3229 N   0  0  0  0  0  0  0  0  0  0  0  0
   30.5570   37.8851   30.0019 C   0  0  0  0  0  0  0  0  0  0  0  0
   29.2561   37.8159   30.5360 C   0  0  0  0  0  0  0  0  0  0  0  0
   28.5899   39.7055   29.2072 C   0  0  0  0  0  0  0  0  0  0  0  0
   26.4024   38.8745   34.1987 C   0  0  0  0  0  0  0  0  0  0  0  0
   26.0200   36.6114   33.4362 C   0  0  0  0  0  0  0  0  0  0  0  0
   25.7268   37.1729   35.8939 C   0  0  0  0  0  0  0  0  0  0  0  0
   24.2434   36.0245   37.4670 C   0  0  0  0  0  0  0  0  0  0  0  0
   29.8715   39.7569   28.6920 C   0  0  0  0  0  0  0  0  0  0  0  0
   26.7045   39.2211   32.9005 C   0  0  0  0  0  0  0  0  0  0  0  0
   26.3163   36.9528   32.1139 C   0  0  0  0  0  0  0  0  0  0  0  0
   30.8594   38.8865   29.0582 C   0  0  0  0  0  0  0  0  0  0  0  0
   28.2674   38.7231   30.1516 C   0  0  0  0  0  0  0  0  0  0  0  0
   26.6793   38.2878   31.8791 C   0  0  0  0  0  0  0  0  0  0  0  0
   24.6104   36.1531   36.0175 C   0  0  1  0  0  0  0  0  0  0  0  0
   26.0470   37.5427   34.4696 C   0  0  0  0  0  0  0  0  0  0  0  0
   22.3136   36.1939   37.1547 H   0  0  0  0  0  0  0  0  0  0  0  0
   32.2835   39.7362   27.8124 H   0  0  0  0  0  0  0  0  0  0  0  0
   22.7083   35.8585   35.4331 H   0  0  0  0  0  0  0  0  0  0  0  0
   23.0838   37.4246   35.7034 H   0  0  0  0  0  0  0  0  0  0  0  0
   31.2575   37.2317   30.2888 H   0  0  0  0  0  0  0  0  0  0  0  0
   29.0364   37.1038   31.2028 H   0  0  0  0  0  0  0  0  0  0  0  0
   27.8992   40.3639   28.9081 H   0  0  0  0  0  0  0  0  0  0  0  0
   26.4352   39.5547   34.9310 H   0  0  0  0  0  0  0  0  0  0  0  0
   25.7799   35.6638   33.6473 H   0  0  0  0  0  0  0  0  0  0  0  0
   26.5504   36.7933   36.3152 H   0  0  0  0  0  0  0  0  0  0  0  0
   25.4540   38.0017   36.3825 H   0  0  0  0  0  0  0  0  0  0  0  0
   24.9200   35.2690   35.6675 H   0  0  0  0  0  0  0  0  0  0  0  0
  1 16  1  0  0  0  0
  2 17  1  0  0  0  0
  3 18  1  0  0  0  0
  4 15  1  0  0  0  0
  5 15  2  0  0  0  0
  6 19  1  0  0  0  0
  7 20  1  0  0  0  0
  7 21  1  0  0  0  0
  8 22  1  0  0  0  0
  9 10  1  0  0  0  0
  9 19  2  0  0  0  0
 10 20  2  0  0  0  0
 11 16  2  0  0  0  0
 11 20  1  0  0  0  0
 12 17  2  0  0  0  0
 12 23  1  0  0  0  0
 13 18  1  0  0  0  0
 13 23  2  0  0  0  0
 14 22  1  0  0  0  0
 14 23  1  0  0  0  0
 15 22  1  0  0  0  0
 16 19  1  0  0  0  0
 17 21  1  0  0  0  0
 18 21  2  0  0  0  0
  4 24  1  0  0  0  0
  6 25  1  0  0  0  0
  8 26  1  0  0  0  0
  8 27  1  0  0  0  0
  9 28  1  0  0  0  0
 10 29  1  0  0  0  0
 11 30  1  0  0  0  0
 12 31  1  0  0  0  0
 13 32  1  0  0  0  0
 14 33  1  0  0  0  0
 14 34  1  0  0  0  0
 22 35  1  0  0  0  0
M  END
> <pdb_id>
4LNW

> <uniprot_id>
P10827

> <usmiles>
Ic1c(Oc2cc(I)c(O)cc2)c(I)cc(c1)C[C@H](N)C(=O)O

$$$$
T4E_A_1201
          07202406043D 1   1.00000     0.00000     0
            
 32 34  0  0  0  0            999 V2000
   -2.8869    1.5358   15.2428 Cl  0  0  0  0  0  0  0  0  0  0  0  0
   -5.6848    2.5745   15.6690 O   0  0  0  0  0  0  0  0  0  0  0  0
    1.5950    8.7491   18.5001 N   0  0  0  0  0  0  0  0  0  0  0  0
   -0.5073    8.2161   17.3977 N   0  0  0  0  0  0  0  0  0  0  0  0
   -1.4075    7.3768   17.0882 N   0  0  0  0  0  0  0  0  0  0  0  0
    0.7240    6.5061   18.5899 N   0  0  0  0  0  0  0  0  0  0  0  0
    0.3964    1.5272   19.7009 C   0  0  0  0  0  0  0  0  0  0  0  0
   -0.8983    2.1006   19.7521 C   0  0  0  0  0  0  0  0  0  0  0  0
    1.4530    2.2804   19.1754 C   0  0  0  0  0  0  0  0  0  0  0  0
   -4.9577    4.6426   16.6857 C   0  0  0  0  0  0  0  0  0  0  0  0
   -1.0973    3.4295   19.2871 C   0  0  0  0  0  0  0  0  0  0  0  0
    1.2258    3.6007   18.7101 C   0  0  0  0  0  0  0  0  0  0  0  0
   -3.8939    5.4980   17.1323 C   0  0  0  0  0  0  0  0  0  0  0  0
   -2.3003    3.8818   16.3864 C   0  0  0  0  0  0  0  0  0  0  0  0
    0.6106    7.8263   18.1633 C   0  0  0  0  0  0  0  0  0  0  0  0
   -3.3506    3.0649   15.9703 C   0  0  0  0  0  0  0  0  0  0  0  0
   -4.6824    3.3961   16.0919 C   0  0  0  0  0  0  0  0  0  0  0  0
   -1.4052    6.0338   17.4559 C   0  0  0  0  0  0  0  0  0  0  0  0
   -0.2610    5.6084   18.2444 C   0  0  0  0  0  0  0  0  0  0  0  0
   -0.0445    4.1889   18.7466 C   0  0  0  0  0  0  0  0  0  0  0  0
   -2.5286    5.1334   17.0005 C   0  0  0  0  0  0  0  0  0  0  0  0
   -5.4658    1.6933   15.2499 H   0  0  0  0  0  0  0  0  0  0  0  0
    2.3840    8.4625   19.0436 H   0  0  0  0  0  0  0  0  0  0  0  0
    1.5138    9.6991   18.1988 H   0  0  0  0  0  0  0  0  0  0  0  0
    0.5531    0.5979   20.0353 H   0  0  0  0  0  0  0  0  0  0  0  0
   -1.6677    1.5737   20.1133 H   0  0  0  0  0  0  0  0  0  0  0  0
    2.3708    1.8862   19.1280 H   0  0  0  0  0  0  0  0  0  0  0  0
   -5.9069    4.9364   16.7980 H   0  0  0  0  0  0  0  0  0  0  0  0
   -2.0098    3.8345   19.3459 H   0  0  0  0  0  0  0  0  0  0  0  0
    1.9944    4.1265   18.3457 H   0  0  0  0  0  0  0  0  0  0  0  0
   -4.1223    6.3779   17.5490 H   0  0  0  0  0  0  0  0  0  0  0  0
   -1.3594    3.5733   16.2464 H   0  0  0  0  0  0  0  0  0  0  0  0
  1 16  1  0  0  0  0
  2 17  1  0  0  0  0
  3 15  1  0  0  0  0
  4  5  1  0  0  0  0
  4 15  2  0  0  0  0
  5 18  2  0  0  0  0
  6 15  1  0  0  0  0
  6 19  2  0  0  0  0
  7  8  2  0  0  0  0
  7  9  1  0  0  0  0
  8 11  1  0  0  0  0
  9 12  2  0  0  0  0
 10 13  1  0  0  0  0
 10 17  2  0  0  0  0
 11 20  2  0  0  0  0
 12 20  1  0  0  0  0
 13 21  2  0  0  0  0
 14 16  2  0  0  0  0
 14 21  1  0  0  0  0
 16 17  1  0  0  0  0
 18 19  1  0  0  0  0
 18 21  1  0  0  0  0
 19 20  1  0  0  0  0
  2 22  1  0  0  0  0
  3 23  1  0  0  0  0
  3 24  1  0  0  0  0
  7 25  1  0  0  0  0
  8 26  1  0  0  0  0
  9 27  1  0  0  0  0
 10 28  1  0  0  0  0
 11 29  1  0  0  0  0
 12 30  1  0  0  0  0
 13 31  1  0  0  0  0
 14 32  1  0  0  0  0
M  END
> <pdb_id>
5OM1

> <uniprot_id>
P29274

> <usmiles>
Clc1c(O)ccc(c2nnc(nc2c3ccccc3)N)c1

$$$$
T62_A_1226
          07192420423D 1   1.00000     0.00000     0
            
 36 39  0  0  0  0            999 V2000
   64.5430   33.9944   24.3667 O   0  0  0  0  0  0  0  0  0  0  0  0
   66.7936   32.0865   28.1167 O   0  0  0  0  0  0  0  0  0  0  0  0
   73.7553   36.5148   26.7105 N   0  0  0  0  0  0  0  0  0  0  0  0
   71.8657   35.4641   25.7908 N   0  0  0  0  0  0  0  0  0  0  0  0
   73.9056   34.3525   25.7069 N   0  0  0  0  0  0  0  0  0  0  0  0
   70.7367   32.4375   24.1134 N   0  0  0  0  0  0  0  0  0  0  0  0
   71.7997   34.2072   25.1915 N   0  0  0  0  0  0  0  0  0  0  0  0
   73.1401   29.7747   23.3560 C   0  0  0  0  0  0  0  0  0  0  0  0
   74.3103   30.3370   23.8814 C   0  0  0  0  0  0  0  0  0  0  0  0
   71.9402   30.4794   23.4430 C   0  0  0  0  0  0  0  0  0  0  0  0
   74.2911   31.6051   24.4793 C   0  0  0  0  0  0  0  0  0  0  0  0
   65.6471   33.0407   26.2369 C   0  0  0  0  0  0  0  0  0  0  0  0
   66.9232   34.2110   24.5543 C   0  0  0  0  0  0  0  0  0  0  0  0
   68.0709   33.2157   26.4632 C   0  0  0  0  0  0  0  0  0  0  0  0
   69.4049   34.4784   24.7358 C   0  0  0  0  0  0  0  0  0  0  0  0
   73.1884   35.4516   26.0767 C   0  0  0  0  0  0  0  0  0  0  0  0
   65.6948   33.7576   25.0463 C   0  0  0  0  0  0  0  0  0  0  0  0
   66.8370   32.7683   26.9393 C   0  0  0  0  0  0  0  0  0  0  0  0
   70.6794   33.6613   24.6986 C   0  0  0  0  0  0  0  0  0  0  0  0
   72.9689   33.5692   25.1314 C   0  0  0  0  0  0  0  0  0  0  0  0
   71.9089   31.7435   24.0393 C   0  0  0  0  0  0  0  0  0  0  0  0
   68.1014   33.9234   25.2621 C   0  0  0  0  0  0  0  0  0  0  0  0
   73.0847   32.3068   24.5525 C   0  0  0  0  0  0  0  0  0  0  0  0
   64.5649   34.5088   23.5094 H   0  0  0  0  0  0  0  0  0  0  0  0
   67.6392   31.8937   28.6144 H   0  0  0  0  0  0  0  0  0  0  0  0
   74.7326   36.5075   26.9226 H   0  0  0  0  0  0  0  0  0  0  0  0
   73.1946   37.3030   26.9639 H   0  0  0  0  0  0  0  0  0  0  0  0
   73.1650   28.8742   22.9217 H   0  0  0  0  0  0  0  0  0  0  0  0
   75.1696   29.8281   23.8294 H   0  0  0  0  0  0  0  0  0  0  0  0
   71.0995   30.0795   23.0778 H   0  0  0  0  0  0  0  0  0  0  0  0
   75.1308   32.0028   24.8491 H   0  0  0  0  0  0  0  0  0  0  0  0
   64.7699   32.7194   26.5935 H   0  0  0  0  0  0  0  0  0  0  0  0
   66.9621   34.7363   23.7043 H   0  0  0  0  0  0  0  0  0  0  0  0
   68.9126   33.0330   26.9713 H   0  0  0  0  0  0  0  0  0  0  0  0
   69.2269   34.7590   23.7926 H   0  0  0  0  0  0  0  0  0  0  0  0
   69.6079   35.2850   25.2909 H   0  0  0  0  0  0  0  0  0  0  0  0
  1 17  1  0  0  0  0
  2 18  1  0  0  0  0
  3 16  1  0  0  0  0
  4  7  1  0  0  0  0
  4 16  2  0  0  0  0
  5 16  1  0  0  0  0
  5 20  2  0  0  0  0
  6 19  2  0  0  0  0
  6 21  1  0  0  0  0
  7 19  1  0  0  0  0
  7 20  1  0  0  0  0
  8  9  2  0  0  0  0
  8 10  1  0  0  0  0
  9 11  1  0  0  0  0
 10 21  2  0  0  0  0
 11 23  2  0  0  0  0
 12 17  2  0  0  0  0
 12 18  1  0  0  0  0
 13 17  1  0  0  0  0
 13 22  2  0  0  0  0
 14 18  2  0  0  0  0
 14 22  1  0  0  0  0
 15 19  1  0  0  0  0
 15 22  1  0  0  0  0
 20 23  1  0  0  0  0
 21 23  1  0  0  0  0
  1 24  1  0  0  0  0
  2 25  1  0  0  0  0
  3 26  1  0  0  0  0
  3 27  1  0  0  0  0
  8 28  1  0  0  0  0
  9 29  1  0  0  0  0
 10 30  1  0  0  0  0
 11 31  1  0  0  0  0
 12 32  1  0  0  0  0
 13 33  1  0  0  0  0
 14 34  1  0  0  0  0
 15 35  1  0  0  0  0
 15 36  1  0  0  0  0
M  END
> <pdb_id>
4CWO

> <uniprot_id>
P07900

> <usmiles>
Oc1cc(O)cc(c1)CC2=Nc3c(cccc3)C4=NC(=NN42)N

$$$$
T6E_A_1839
          07192422223D 1   1.00000     0.00000     0
            
 44 47  0  0  0  0            999 V2000
   49.9080   27.4120   17.6000 S   0  0  0  0  0  0  0  0  0  0  0  0
   59.5760   31.3910   24.0080 F   0  0  0  0  0  0  0  0  0  0  0  0
   64.3100   29.8940   20.0380 F   0  0  0  0  0  0  0  0  0  0  0  0
   62.9270   28.3790   19.5790 F   0  0  0  0  0  0  0  0  0  0  0  0
   64.2400   28.1640   21.2110 F   0  0  0  0  0  0  0  0  0  0  0  0
   58.4690   29.3570   19.9430 O   0  0  0  0  0  0  0  0  0  0  0  0
   54.0990   29.3550   15.4090 N   0  0  0  0  0  0  0  0  0  0  0  0
   50.4080   27.3150   14.9240 N   0  0  0  0  0  0  0  0  0  0  0  0
   52.5210   28.3140   14.0220 N   0  0  0  0  0  0  0  0  0  0  0  0
   56.7420   30.8180   20.5000 N   0  0  0  0  0  0  0  0  0  0  0  0
   58.9450   31.1410   21.3110 N   0  0  0  0  0  0  0  0  0  0  0  0
   51.0980   28.1730   18.5590 C   0  0  0  0  0  0  0  0  0  0  0  0
   51.3100   27.6400   13.9130 C   0  0  0  0  0  0  0  0  0  0  0  0
   61.7320   30.4230   23.7630 C   0  0  0  0  0  0  0  0  0  0  0  0
   54.3920   31.0800   19.7780 C   0  0  0  0  0  0  0  0  0  0  0  0
   55.5880   28.9590   19.2270 C   0  0  0  0  0  0  0  0  0  0  0  0
   53.2260   30.5790   19.1240 C   0  0  0  0  0  0  0  0  0  0  0  0
   54.4370   28.4740   18.5830 C   0  0  0  0  0  0  0  0  0  0  0  0
   62.6990   29.8350   22.8990 C   0  0  0  0  0  0  0  0  0  0  0  0
   61.1920   30.1110   20.9630 C   0  0  0  0  0  0  0  0  0  0  0  0
   50.8210   27.7030   16.1800 C   0  0  0  0  0  0  0  0  0  0  0  0
   58.0810   30.3500   20.5270 C   0  0  0  0  0  0  0  0  0  0  0  0
   60.4830   30.8460   23.2130 C   0  0  0  0  0  0  0  0  0  0  0  0
   52.9060   28.6960   15.3230 C   0  0  0  0  0  0  0  0  0  0  0  0
   55.5870   30.2810   19.8280 C   0  0  0  0  0  0  0  0  0  0  0  0
   60.1970   30.6950   21.8080 C   0  0  0  0  0  0  0  0  0  0  0  0
   53.2580   29.2750   18.5370 C   0  0  0  0  0  0  0  0  0  0  0  0
   62.4180   29.6820   21.5110 C   0  0  0  0  0  0  0  0  0  0  0  0
   52.1560   28.6440   17.8690 C   0  0  0  0  0  0  0  0  0  0  0  0
   52.0530   28.3980   16.4690 C   0  0  0  0  0  0  0  0  0  0  0  0
   63.4610   29.0530   20.6080 C   0  0  0  0  0  0  0  0  0  0  0  0
   54.4397   29.6583   16.2989 H   0  0  0  0  0  0  0  0  0  0  0  0
   54.6319   29.5343   14.5820 H   0  0  0  0  0  0  0  0  0  0  0  0
   56.5742   31.6495   21.0296 H   0  0  0  0  0  0  0  0  0  0  0  0
   58.6581   32.0735   21.5304 H   0  0  0  0  0  0  0  0  0  0  0  0
   51.0168   28.2621   19.5517 H   0  0  0  0  0  0  0  0  0  0  0  0
   51.0533   27.3514   12.9906 H   0  0  0  0  0  0  0  0  0  0  0  0
   61.9237   30.5379   24.7377 H   0  0  0  0  0  0  0  0  0  0  0  0
   54.3779   31.9860   20.2011 H   0  0  0  0  0  0  0  0  0  0  0  0
   56.4105   28.3919   19.2716 H   0  0  0  0  0  0  0  0  0  0  0  0
   52.3955   31.1340   19.0768 H   0  0  0  0  0  0  0  0  0  0  0  0
   54.4447   27.5689   18.1578 H   0  0  0  0  0  0  0  0  0  0  0  0
   63.5769   29.5289   23.2673 H   0  0  0  0  0  0  0  0  0  0  0  0
   61.0182   30.0070   19.9837 H   0  0  0  0  0  0  0  0  0  0  0  0
  1 12  1  0  0  0  0
  1 21  1  0  0  0  0
  2 23  1  0  0  0  0
  3 31  1  0  0  0  0
  4 31  1  0  0  0  0
  5 31  1  0  0  0  0
  6 22  2  0  0  0  0
  7 24  1  0  0  0  0
  8 13  2  0  0  0  0
  8 21  1  0  0  0  0
  9 13  1  0  0  0  0
  9 24  2  0  0  0  0
 10 22  1  0  0  0  0
 10 25  1  0  0  0  0
 11 22  1  0  0  0  0
 11 26  1  0  0  0  0
 12 29  2  0  0  0  0
 14 19  2  0  0  0  0
 14 23  1  0  0  0  0
 15 17  1  0  0  0  0
 15 25  2  0  0  0  0
 16 18  2  0  0  0  0
 16 25  1  0  0  0  0
 17 27  2  0  0  0  0
 18 27  1  0  0  0  0
 19 28  1  0  0  0  0
 20 26  1  0  0  0  0
 20 28  2  0  0  0  0
 21 30  2  0  0  0  0
 23 26  2  0  0  0  0
 24 30  1  0  0  0  0
 27 29  1  0  0  0  0
 28 31  1  0  0  0  0
 29 30  1  0  0  0  0
  7 32  1  0  0  0  0
  7 33  1  0  0  0  0
 10 34  1  0  0  0  0
 11 35  1  0  0  0  0
 12 36  1  0  0  0  0
 13 37  1  0  0  0  0
 14 38  1  0  0  0  0
 15 39  1  0  0  0  0
 16 40  1  0  0  0  0
 17 41  1  0  0  0  0
 18 42  1  0  0  0  0
 19 43  1  0  0  0  0
 20 44  1  0  0  0  0
M  END
> <pdb_id>
4AT4

> <uniprot_id>
Q16620

> <usmiles>
S1c2ncnc(N)c2C(c3ccc(NC(=O)Nc4c(F)ccc(c4)C(F)(F)F)cc3)=C1

$$$$
TA9_A_1002
          07192418093D 1   1.00000     0.00000     0
            
 50 53  0  0  0  0            999 V2000
  -28.7230    0.7710   25.5740 O   0  0  0  0  0  0  0  0  0  0  0  0
  -24.2530    3.8370   29.2490 O   0  0  0  0  0  0  0  0  0  0  0  0
  -26.9970    0.6840   29.3880 O   0  0  0  0  0  0  0  0  0  0  0  0
  -24.1560    1.0900   29.7290 O   0  0  0  0  0  0  0  0  0  0  0  0
  -31.6940    3.6410   26.4590 O   0  0  0  0  0  0  0  0  0  0  0  0
  -29.1040    2.7710   26.5420 N   0  0  0  0  0  0  0  0  0  0  0  0
  -26.4510    3.7110   27.2650 N   0  0  0  0  0  0  0  0  0  0  0  0
  -24.4140    4.9650   26.6290 C   0  0  0  0  0  0  0  0  0  0  0  0
  -28.4690    2.4570   27.8070 C   0  0  0  0  0  0  0  0  0  0  0  0
  -34.5360    6.2400   24.3430 C   0  0  0  0  0  0  0  0  0  0  0  0
  -34.3470    6.1870   22.9550 C   0  0  0  0  0  0  0  0  0  0  0  0
  -29.8160    2.4640   21.8430 C   0  0  0  0  0  0  0  0  0  0  0  0
  -33.7340    5.4850   25.2140 C   0  0  0  0  0  0  0  0  0  0  0  0
  -29.3080    1.9980   23.0570 C   0  0  0  0  0  0  0  0  0  0  0  0
  -33.3450    5.3830   22.4260 C   0  0  0  0  0  0  0  0  0  0  0  0
  -30.9050    3.3320   21.8290 C   0  0  0  0  0  0  0  0  0  0  0  0
  -29.2490    1.8770   25.5580 C   0  0  0  0  0  0  0  0  0  0  0  0
  -24.9780    3.5580   26.9930 C   0  0  1  0  0  0  0  0  0  0  0  0
  -26.9690    2.3750   27.6440 C   0  0  2  0  0  0  0  0  0  0  0  0
  -24.2420    2.9390   28.1480 C   0  0  2  0  0  0  0  0  0  0  0  0
  -26.3310    1.8900   28.9400 C   0  0  2  0  0  0  0  0  0  0  0  0
  -24.8840    1.6100   28.5990 C   0  0  2  0  0  0  0  0  0  0  0  0
  -31.7760    3.8580   25.2470 C   0  0  0  0  0  0  0  0  0  0  0  0
  -29.8880    2.4070   24.2600 C   0  0  0  0  0  0  0  0  0  0  0  0
  -32.7310    4.6830   24.6720 C   0  0  0  0  0  0  0  0  0  0  0  0
  -32.5470    4.6160   23.2820 C   0  0  0  0  0  0  0  0  0  0  0  0
  -31.4820    3.7500   23.0260 C   0  0  0  0  0  0  0  0  0  0  0  0
  -30.9770    3.2880   24.2500 C   0  0  0  0  0  0  0  0  0  0  0  0
  -23.7637    3.4268   30.0186 H   0  0  0  0  0  0  0  0  0  0  0  0
  -26.5768    0.3675   30.2385 H   0  0  0  0  0  0  0  0  0  0  0  0
  -24.5694    0.2286   30.0240 H   0  0  0  0  0  0  0  0  0  0  0  0
  -29.4493    3.6985   26.3987 H   0  0  0  0  0  0  0  0  0  0  0  0
  -26.9185    4.0393   26.4442 H   0  0  0  0  0  0  0  0  0  0  0  0
  -23.4341    4.8933   26.4427 H   0  0  0  0  0  0  0  0  0  0  0  0
  -24.8831    5.3123   25.8170 H   0  0  0  0  0  0  0  0  0  0  0  0
  -24.5630    5.5919   27.3937 H   0  0  0  0  0  0  0  0  0  0  0  0
  -28.8121    1.5778   28.1375 H   0  0  0  0  0  0  0  0  0  0  0  0
  -28.6887    3.1715   28.4712 H   0  0  0  0  0  0  0  0  0  0  0  0
  -35.2541    6.8254   24.7193 H   0  0  0  0  0  0  0  0  0  0  0  0
  -34.9311    6.7258   22.3480 H   0  0  0  0  0  0  0  0  0  0  0  0
  -29.3974    2.1742   20.9823 H   0  0  0  0  0  0  0  0  0  0  0  0
  -33.8794    5.5219   26.2027 H   0  0  0  0  0  0  0  0  0  0  0  0
  -28.5288    1.3713   23.0653 H   0  0  0  0  0  0  0  0  0  0  0  0
  -33.1948    5.3526   21.4378 H   0  0  0  0  0  0  0  0  0  0  0  0
  -31.2736    3.6559   20.9577 H   0  0  0  0  0  0  0  0  0  0  0  0
  -24.8678    2.9623   26.1974 H   0  0  0  0  0  0  0  0  0  0  0  0
  -26.7565    1.7252   26.9142 H   0  0  0  0  0  0  0  0  0  0  0  0
  -23.2949    2.7678   27.8767 H   0  0  0  0  0  0  0  0  0  0  0  0
  -26.3904    2.5997   29.6420 H   0  0  0  0  0  0  0  0  0  0  0  0
  -24.8429    0.9513   27.8477 H   0  0  0  0  0  0  0  0  0  0  0  0
  1 17  2  0  0  0  0
  2 20  1  0  0  0  0
  3 21  1  0  0  0  0
  4 22  1  0  0  0  0
  5 23  2  0  0  0  0
  6  9  1  0  0  0  0
  6 17  1  0  0  0  0
  7 18  1  0  0  0  0
  7 19  1  0  0  0  0
  8 18  1  0  0  0  0
  9 19  1  0  0  0  0
 10 11  2  0  0  0  0
 10 13  1  0  0  0  0
 11 15  1  0  0  0  0
 12 14  2  0  0  0  0
 12 16  1  0  0  0  0
 13 25  2  0  0  0  0
 14 24  1  0  0  0  0
 15 26  2  0  0  0  0
 16 27  2  0  0  0  0
 17 24  1  0  0  0  0
 18 20  1  0  0  0  0
 19 21  1  0  0  0  0
 20 22  1  0  0  0  0
 21 22  1  0  0  0  0
 23 25  1  0  0  0  0
 23 28  1  0  0  0  0
 24 28  2  0  0  0  0
 25 26  1  0  0  0  0
 26 27  1  0  0  0  0
 27 28  1  0  0  0  0
  2 29  1  0  0  0  0
  3 30  1  0  0  0  0
  4 31  1  0  0  0  0
  6 32  1  0  0  0  0
  7 33  1  0  0  0  0
  8 34  1  0  0  0  0
  8 35  1  0  0  0  0
  8 36  1  0  0  0  0
  9 37  1  0  0  0  0
  9 38  1  0  0  0  0
 10 39  1  0  0  0  0
 11 40  1  0  0  0  0
 12 41  1  0  0  0  0
 13 42  1  0  0  0  0
 14 43  1  0  0  0  0
 15 44  1  0  0  0  0
 16 45  1  0  0  0  0
 18 46  1  0  0  0  0
 19 47  1  0  0  0  0
 20 48  1  0  0  0  0
 21 49  1  0  0  0  0
 22 50  1  0  0  0  0
M  END
> <pdb_id>
2XII

> <uniprot_id>
Q8A3I4

> <usmiles>
O=C(NC[C@H]1N[C@H]([C@@H](O)[C@@H](O)[C@@H]1O)C)c2c3c(c4c(cccc4)C3=O)ccc2

$$$$
TBL_A_1
          07192418003D 1   1.00000     0.00000     0
            
 30 30  0  0  0  0            999 V2000
   15.8544   26.4650    1.1029 S   0  0  0  0  0  0  0  0  0  0  0  0
   14.7717   26.1259    0.2341 O   0  0  0  0  0  0  0  0  0  0  0  0
   16.3490   25.3723    1.8995 O   0  0  0  0  0  0  0  0  0  0  0  0
   18.0822   29.5859    3.0572 O   0  0  0  0  0  0  0  0  0  0  0  0
   16.3754   30.2537    1.8570 O   0  0  0  0  0  0  0  0  0  0  0  0
   20.1710   27.8643   -2.5842 O   0  0  0  0  0  0  0  0  0  0  0  0
   15.3135   27.6680    2.0289 N   0  0  0  0  0  0  0  0  0  0  0  0
   21.0937   26.9760   -3.1969 C   0  0  0  0  0  0  0  0  0  0  0  0
   15.2830   28.5376    4.3270 C   0  0  0  0  0  0  0  0  0  0  0  0
   16.8451   27.6326   -1.0064 C   0  0  0  0  0  0  0  0  0  0  0  0
   18.4272   26.4291    0.3472 C   0  0  0  0  0  0  0  0  0  0  0  0
   17.8891   27.9753   -1.8844 C   0  0  0  0  0  0  0  0  0  0  0  0
   19.4765   26.7333   -0.5619 C   0  0  0  0  0  0  0  0  0  0  0  0
   16.9436   29.3791    2.6863 C   0  0  0  0  0  0  0  0  0  0  0  0
   17.0971   26.8698    0.1318 C   0  0  0  0  0  0  0  0  0  0  0  0
   19.1878   27.4915   -1.6821 C   0  0  0  0  0  0  0  0  0  0  0  0
   16.1564   28.1718    3.1246 C   0  0  2  0  0  0  0  0  0  0  0  0
   18.5298   28.9438    3.6795 H   0  0  0  0  0  0  0  0  0  0  0  0
   14.4569   27.3564    2.4401 H   0  0  0  0  0  0  0  0  0  0  0  0
   21.6980   27.4906   -3.8052 H   0  0  0  0  0  0  0  0  0  0  0  0
   21.6384   26.5224   -2.4915 H   0  0  0  0  0  0  0  0  0  0  0  0
   20.5946   26.2894   -3.7256 H   0  0  0  0  0  0  0  0  0  0  0  0
   15.8617   28.8791    5.0677 H   0  0  0  0  0  0  0  0  0  0  0  0
   14.6293   29.2460    4.0610 H   0  0  0  0  0  0  0  0  0  0  0  0
   14.7875   27.7266    4.6381 H   0  0  0  0  0  0  0  0  0  0  0  0
   15.9134   27.9394   -1.2009 H   0  0  0  0  0  0  0  0  0  0  0  0
   18.6332   25.8883    1.1628 H   0  0  0  0  0  0  0  0  0  0  0  0
   17.7014   28.5727   -2.6640 H   0  0  0  0  0  0  0  0  0  0  0  0
   20.4062   26.4052   -0.3948 H   0  0  0  0  0  0  0  0  0  0  0  0
   16.7949   27.4521    3.3971 H   0  0  0  0  0  0  0  0  0  0  0  0
  1  2  2  0  0  0  0
  1  3  2  0  0  0  0
  1  7  1  0  0  0  0
  1 15  1  0  0  0  0
  4 14  1  0  0  0  0
  5 14  2  0  0  0  0
  6  8  1  0  0  0  0
  6 16  1  0  0  0  0
  7 17  1  0  0  0  0
  9 17  1  0  0  0  0
 10 12  2  0  0  0  0
 10 15  1  0  0  0  0
 11 13  1  0  0  0  0
 11 15  2  0  0  0  0
 12 16  1  0  0  0  0
 13 16  2  0  0  0  0
 14 17  1  0  0  0  0
  4 18  1  0  0  0  0
  7 19  1  0  0  0  0
  8 20  1  0  0  0  0
  8 21  1  0  0  0  0
  8 22  1  0  0  0  0
  9 23  1  0  0  0  0
  9 24  1  0  0  0  0
  9 25  1  0  0  0  0
 10 26  1  0  0  0  0
 11 27  1  0  0  0  0
 12 28  1  0  0  0  0
 13 29  1  0  0  0  0
 17 30  1  0  0  0  0
M  END
> <pdb_id>
3EHY

> <uniprot_id>
P39900

> <usmiles>
S(=O)(=O)(N[C@@H](C(=O)O)C)c1ccc(OC)cc1

$$$$
TBN_A_400
          07192423183D 1   1.00000     0.00000     0
            
 33 35  0  0  0  0            999 V2000
   13.6494  -18.4213   10.9922 O   0  0  0  0  0  0  0  0  0  0  0  0
   14.8406  -15.4770    5.9871 O   0  0  0  0  0  0  0  0  0  0  0  0
   15.3221  -17.9058    6.8443 O   0  0  0  0  0  0  0  0  0  0  0  0
   13.6305  -16.0626    9.2513 O   0  0  0  0  0  0  0  0  0  0  0  0
   11.3769   -9.5917    8.8082 N   0  0  0  0  0  0  0  0  0  0  0  0
   10.2133  -11.4325    7.6824 N   0  0  0  0  0  0  0  0  0  0  0  0
   11.1900  -13.6067    7.4776 N   0  0  0  0  0  0  0  0  0  0  0  0
   13.4045  -13.8908    8.4462 N   0  0  0  0  0  0  0  0  0  0  0  0
   14.7492  -17.9577   10.2113 C   0  0  0  0  0  0  0  0  0  0  0  0
   10.1216  -12.6740    7.2562 C   0  0  0  0  0  0  0  0  0  0  0  0
   14.2422  -13.0734    9.0875 C   0  0  0  0  0  0  0  0  0  0  0  0
   13.6361  -11.8194    9.1895 C   0  0  0  0  0  0  0  0  0  0  0  0
   13.6139  -15.2921    8.0871 C   0  0  1  0  0  0  0  0  0  0  0  0
   14.9545  -15.5656    7.3924 C   0  0  1  0  0  0  0  0  0  0  0  0
   15.3566  -16.9629    7.9172 C   0  0  1  0  0  0  0  0  0  0  0  0
   11.2898  -10.9991    8.3307 C   0  0  0  0  0  0  0  0  0  0  0  0
   14.2735  -17.3080    8.9392 C   0  0  2  0  0  0  0  0  0  0  0  0
   12.2807  -13.2212    8.1136 C   0  0  0  0  0  0  0  0  0  0  0  0
   12.3952  -11.9226    8.5698 C   0  0  0  0  0  0  0  0  0  0  0  0
   13.9914  -18.8476   11.8296 H   0  0  0  0  0  0  0  0  0  0  0  0
   15.7301  -15.6603    5.5684 H   0  0  0  0  0  0  0  0  0  0  0  0
   15.5825  -18.8089    7.1858 H   0  0  0  0  0  0  0  0  0  0  0  0
   12.1925   -9.2784    9.2947 H   0  0  0  0  0  0  0  0  0  0  0  0
   10.6199   -8.9597    8.6426 H   0  0  0  0  0  0  0  0  0  0  0  0
   15.3372  -18.7333    9.9821 H   0  0  0  0  0  0  0  0  0  0  0  0
   15.2700  -17.2906   10.7440 H   0  0  0  0  0  0  0  0  0  0  0  0
    9.2983  -12.9711    6.7727 H   0  0  0  0  0  0  0  0  0  0  0  0
   15.1477  -13.3169    9.4351 H   0  0  0  0  0  0  0  0  0  0  0  0
   14.0200  -11.0047    9.6240 H   0  0  0  0  0  0  0  0  0  0  0  0
   12.8665  -15.5985    7.4975 H   0  0  0  0  0  0  0  0  0  0  0  0
   15.6261  -14.8948    7.7068 H   0  0  0  0  0  0  0  0  0  0  0  0
   16.2599  -16.9393    8.3455 H   0  0  0  0  0  0  0  0  0  0  0  0
   13.6053  -17.9113    8.5039 H   0  0  0  0  0  0  0  0  0  0  0  0
  1  9  1  0  0  0  0
  2 14  1  0  0  0  0
  3 15  1  0  0  0  0
  4 13  1  0  0  0  0
  4 17  1  0  0  0  0
  5 16  1  0  0  0  0
  6 10  1  0  0  0  0
  6 16  2  0  0  0  0
  7 10  2  0  0  0  0
  7 18  1  0  0  0  0
  8 11  1  0  0  0  0
  8 13  1  0  0  0  0
  8 18  1  0  0  0  0
  9 17  1  0  0  0  0
 11 12  2  0  0  0  0
 12 19  1  0  0  0  0
 13 14  1  0  0  0  0
 14 15  1  0  0  0  0
 15 17  1  0  0  0  0
 16 19  1  0  0  0  0
 18 19  2  0  0  0  0
  1 20  1  0  0  0  0
  2 21  1  0  0  0  0
  3 22  1  0  0  0  0
  5 23  1  0  0  0  0
  5 24  1  0  0  0  0
  9 25  1  0  0  0  0
  9 26  1  0  0  0  0
 10 27  1  0  0  0  0
 11 28  1  0  0  0  0
 12 29  1  0  0  0  0
 13 30  1  0  0  0  0
 14 31  1  0  0  0  0
 15 32  1  0  0  0  0
 17 33  1  0  0  0  0
M  END
> <pdb_id>
3UQ9

> <uniprot_id>
C4PZB4

> <usmiles>
O1[C@@H](N2c3ncnc(N)c3C=C2)[C@H](O)[C@H](O)[C@H]1CO

$$$$
TBN_A_7220
          07202414183D 1   1.00000     0.00000     0
            
 33 35  0  0  0  0            999 V2000
   80.0428  -17.8482  -20.3279 O   0  0  0  0  0  0  0  0  0  0  0  0
   80.7818  -12.2386  -20.5966 O   0  0  0  0  0  0  0  0  0  0  0  0
   79.4088  -14.2542  -19.5274 O   0  0  0  0  0  0  0  0  0  0  0  0
   82.5919  -15.2429  -19.9809 O   0  0  0  0  0  0  0  0  0  0  0  0
   87.6900  -10.8312  -20.7537 N   0  0  0  0  0  0  0  0  0  0  0  0
   86.3518  -10.6953  -18.8803 N   0  0  0  0  0  0  0  0  0  0  0  0
   84.3060  -11.9059  -18.6246 N   0  0  0  0  0  0  0  0  0  0  0  0
   83.7584  -13.2993  -20.4945 N   0  0  0  0  0  0  0  0  0  0  0  0
   85.2438  -11.0706  -18.2280 C   0  0  0  0  0  0  0  0  0  0  0  0
   84.3462  -13.5846  -21.7023 C   0  0  0  0  0  0  0  0  0  0  0  0
   85.5098  -12.8820  -21.8339 C   0  0  0  0  0  0  0  0  0  0  0  0
   81.2120  -17.0982  -20.6635 C   0  0  0  0  0  0  0  0  0  0  0  0
   86.5847  -11.2076  -20.0990 C   0  0  0  0  0  0  0  0  0  0  0  0
   84.5461  -12.4135  -19.8344 C   0  0  0  0  0  0  0  0  0  0  0  0
   85.6571  -12.1195  -20.6440 C   0  0  0  0  0  0  0  0  0  0  0  0
   82.5055  -13.8431  -19.9814 C   0  0  1  0  0  0  0  0  0  0  0  0
   81.3020  -13.5275  -20.8615 C   0  0  1  0  0  0  0  0  0  0  0  0
   80.3404  -14.6768  -20.5223 C   0  0  1  0  0  0  0  0  0  0  0  0
   81.2496  -15.7744  -19.9440 C   0  0  2  0  0  0  0  0  0  0  0  0
   79.4968  -17.3276  -19.9319 H   0  0  0  0  0  0  0  0  0  0  0  0
   81.3974  -11.7846  -20.2244 H   0  0  0  0  0  0  0  0  0  0  0  0
   79.2556  -13.4266  -19.6339 H   0  0  0  0  0  0  0  0  0  0  0  0
   88.1981  -10.2185  -20.4257 H   0  0  0  0  0  0  0  0  0  0  0  0
   87.9162  -11.1854  -21.5030 H   0  0  0  0  0  0  0  0  0  0  0  0
   85.1279  -10.6910  -17.3878 H   0  0  0  0  0  0  0  0  0  0  0  0
   83.9560  -14.1807  -22.3008 H   0  0  0  0  0  0  0  0  0  0  0  0
   86.0787  -12.9137  -22.5693 H   0  0  0  0  0  0  0  0  0  0  0  0
   81.2590  -16.9093  -21.6143 H   0  0  0  0  0  0  0  0  0  0  0  0
   82.0247  -17.5737  -20.4337 H   0  0  0  0  0  0  0  0  0  0  0  0
   82.4016  -13.4998  -19.0803 H   0  0  0  0  0  0  0  0  0  0  0  0
   81.5747  -13.5894  -21.7903 H   0  0  0  0  0  0  0  0  0  0  0  0
   79.9149  -14.9880  -21.3368 H   0  0  0  0  0  0  0  0  0  0  0  0
   81.0032  -15.9305  -19.0190 H   0  0  0  0  0  0  0  0  0  0  0  0
  1 12  1  0  0  0  0
  1 20  1  0  0  0  0
  2 17  1  0  0  0  0
  2 21  1  0  0  0  0
  3 18  1  0  0  0  0
  3 22  1  0  0  0  0
  4 16  1  0  0  0  0
  4 19  1  0  0  0  0
  5 13  1  0  0  0  0
  5 23  1  0  0  0  0
  5 24  1  0  0  0  0
  6  9  1  0  0  0  0
  6 13  2  0  0  0  0
  7  9  2  0  0  0  0
  7 14  1  0  0  0  0
  8 10  1  0  0  0  0
  8 14  1  0  0  0  0
  8 16  1  0  0  0  0
  9 25  1  0  0  0  0
 10 11  2  0  0  0  0
 10 26  1  0  0  0  0
 11 15  1  0  0  0  0
 11 27  1  0  0  0  0
 12 19  1  0  0  0  0
 12 28  1  0  0  0  0
 12 29  1  0  0  0  0
 13 15  1  0  0  0  0
 14 15  2  0  0  0  0
 16 17  1  0  0  0  0
 16 30  1  0  0  0  0
 17 18  1  0  0  0  0
 17 31  1  0  0  0  0
 18 19  1  0  0  0  0
 18 32  1  0  0  0  0
 19 33  1  0  0  0  0
M  END
> <pdb_id>
8BSD

> <uniprot_id>
P0DTD1

> <usmiles>
O1[C@@H](N2c3ncnc(N)c3C=C2)[C@H](O)[C@H](O)[C@H]1CO

$$$$
TBN_A_800
          07202416103D 1   1.00000     0.00000     0
            
 33 35  0  0  0  0            999 V2000
   26.7425   32.9719   11.2676 O   0  0  0  0  0  0  0  0  0  0  0  0
   26.9673   34.5897    6.3459 O   0  0  0  0  0  0  0  0  0  0  0  0
   24.9627   33.3548    8.0003 O   0  0  0  0  0  0  0  0  0  0  0  0
   28.1567   34.5575    9.1740 O   0  0  0  0  0  0  0  0  0  0  0  0
   32.6829   29.4531    7.9248 N   0  0  0  0  0  0  0  0  0  0  0  0
   32.3538   30.9068    6.1655 N   0  0  0  0  0  0  0  0  0  0  0  0
   30.7149   32.6829    6.2170 N   0  0  0  0  0  0  0  0  0  0  0  0
   29.4914   32.8368    8.3030 N   0  0  0  0  0  0  0  0  0  0  0  0
   26.3384   34.2271   10.7387 C   0  0  0  0  0  0  0  0  0  0  0  0
   31.6884   31.9490    5.6512 C   0  0  0  0  0  0  0  0  0  0  0  0
   29.5163   32.1410    9.5045 C   0  0  0  0  0  0  0  0  0  0  0  0
   30.4458   31.1575    9.4548 C   0  0  0  0  0  0  0  0  0  0  0  0
   28.5964   33.9461    7.9717 C   0  0  1  0  0  0  0  0  0  0  0  0
   27.3353   33.5156    7.2136 C   0  0  1  0  0  0  0  0  0  0  0  0
   26.3565   33.2933    8.3580 C   0  0  1  0  0  0  0  0  0  0  0  0
   32.0478   30.5159    7.4176 C   0  0  0  0  0  0  0  0  0  0  0  0
   26.7189   34.4299    9.2967 C   0  0  2  0  0  0  0  0  0  0  0  0
   30.4273   32.2785    7.4665 C   0  0  0  0  0  0  0  0  0  0  0  0
   31.0407   31.2159    8.1503 C   0  0  0  0  0  0  0  0  0  0  0  0
   26.4584   32.9061   12.2241 H   0  0  0  0  0  0  0  0  0  0  0  0
   26.1448   34.3389    5.8353 H   0  0  0  0  0  0  0  0  0  0  0  0
   24.4026   33.1974    8.8136 H   0  0  0  0  0  0  0  0  0  0  0  0
   32.4748   29.1416    8.8520 H   0  0  0  0  0  0  0  0  0  0  0  0
   33.3658   28.9701    7.3766 H   0  0  0  0  0  0  0  0  0  0  0  0
   26.7650   34.9502   11.2820 H   0  0  0  0  0  0  0  0  0  0  0  0
   25.3437   34.2958   10.8149 H   0  0  0  0  0  0  0  0  0  0  0  0
   31.9504   32.2165    4.7239 H   0  0  0  0  0  0  0  0  0  0  0  0
   28.9326   32.3377   10.2922 H   0  0  0  0  0  0  0  0  0  0  0  0
   30.6736   30.5146   10.1860 H   0  0  0  0  0  0  0  0  0  0  0  0
   29.0951   34.6184    7.4246 H   0  0  0  0  0  0  0  0  0  0  0  0
   27.4910   32.6717    6.7002 H   0  0  0  0  0  0  0  0  0  0  0  0
   26.5509   32.4178    8.8004 H   0  0  0  0  0  0  0  0  0  0  0  0
   26.2910   35.2707    8.9653 H   0  0  0  0  0  0  0  0  0  0  0  0
  1  9  1  0  0  0  0
  2 14  1  0  0  0  0
  3 15  1  0  0  0  0
  4 13  1  0  0  0  0
  4 17  1  0  0  0  0
  5 16  1  0  0  0  0
  6 10  1  0  0  0  0
  6 16  2  0  0  0  0
  7 10  2  0  0  0  0
  7 18  1  0  0  0  0
  8 11  1  0  0  0  0
  8 13  1  0  0  0  0
  8 18  1  0  0  0  0
  9 17  1  0  0  0  0
 11 12  2  0  0  0  0
 12 19  1  0  0  0  0
 13 14  1  0  0  0  0
 14 15  1  0  0  0  0
 15 17  1  0  0  0  0
 16 19  1  0  0  0  0
 18 19  2  0  0  0  0
  1 20  1  0  0  0  0
  2 21  1  0  0  0  0
  3 22  1  0  0  0  0
  5 23  1  0  0  0  0
  5 24  1  0  0  0  0
  9 25  1  0  0  0  0
  9 26  1  0  0  0  0
 10 27  1  0  0  0  0
 11 28  1  0  0  0  0
 12 29  1  0  0  0  0
 13 30  1  0  0  0  0
 14 31  1  0  0  0  0
 15 32  1  0  0  0  0
 17 33  1  0  0  0  0
M  END
> <pdb_id>
6G38

> <uniprot_id>
Q8TF76

> <usmiles>
O1[C@@H](N2c3ncnc(N)c3C=C2)[C@H](O)[C@H](O)[C@H]1CO

$$$$
TCU_A_1271
          07192418023D 1   1.00000     0.00000     0
            
 45 46  0  0  0  0            999 V2000
  -16.3640  -33.1310   16.5740 O   0  0  0  0  0  0  0  0  0  0  0  0
  -18.6350  -34.5590   15.8570 O   0  0  0  0  0  0  0  0  0  0  0  0
  -11.4570  -40.7170   15.5650 C   0  0  0  0  0  0  0  0  0  0  0  0
  -20.7230  -33.2820   14.4340 C   0  0  0  0  0  0  0  0  0  0  0  0
  -11.6780  -39.2280   15.3910 C   0  0  0  0  0  0  0  0  0  0  0  0
  -11.2390  -38.4450   16.6190 C   0  0  0  0  0  0  0  0  0  0  0  0
  -12.2750  -38.4580   17.7440 C   0  0  0  0  0  0  0  0  0  0  0  0
  -17.2510  -34.8340   12.4420 C   0  0  0  0  0  0  0  0  0  0  0  0
  -13.5770  -37.7830   17.3480 C   0  0  0  0  0  0  0  0  0  0  0  0
  -18.2520  -34.2060   11.6980 C   0  0  0  0  0  0  0  0  0  0  0  0
  -17.3620  -34.9760   13.8270 C   0  0  0  0  0  0  0  0  0  0  0  0
  -14.3680  -37.1940   18.5250 C   0  0  0  0  0  0  0  0  0  0  0  0
  -19.3930  -33.7060   12.3230 C   0  0  0  0  0  0  0  0  0  0  0  0
  -17.7590  -36.5890   16.8150 C   0  0  0  0  0  0  0  0  0  0  0  0
  -16.6730  -37.2000   17.4710 C   0  0  0  0  0  0  0  0  0  0  0  0
  -15.3910  -35.1190   17.5510 C   0  0  0  0  0  0  0  0  0  0  0  0
  -16.4270  -34.4610   16.8810 C   0  0  0  0  0  0  0  0  0  0  0  0
  -17.6460  -35.2260   16.5070 C   0  0  0  0  0  0  0  0  0  0  0  0
  -18.4750  -34.4700   14.4920 C   0  0  0  0  0  0  0  0  0  0  0  0
  -15.5180  -36.4760   17.8320 C   0  0  0  0  0  0  0  0  0  0  0  0
  -19.5230  -33.8060   13.7040 C   0  0  0  0  0  0  0  0  0  0  0  0
  -17.1235  -32.6922   16.0939 H   0  0  0  0  0  0  0  0  0  0  0  0
  -11.7563  -41.1970   14.7404 H   0  0  0  0  0  0  0  0  0  0  0  0
  -10.4850  -40.8939   15.7194 H   0  0  0  0  0  0  0  0  0  0  0  0
  -11.9839  -41.0427   16.3501 H   0  0  0  0  0  0  0  0  0  0  0  0
  -20.6183  -33.4533   15.4136 H   0  0  0  0  0  0  0  0  0  0  0  0
  -20.8068  -32.2983   14.2747 H   0  0  0  0  0  0  0  0  0  0  0  0
  -21.5444  -33.7448   14.1006 H   0  0  0  0  0  0  0  0  0  0  0  0
  -12.6511  -39.0615   15.2317 H   0  0  0  0  0  0  0  0  0  0  0  0
  -11.1522  -38.9128   14.6010 H   0  0  0  0  0  0  0  0  0  0  0  0
  -11.0749  -37.4962   16.3490 H   0  0  0  0  0  0  0  0  0  0  0  0
  -10.3900  -38.8450   16.9642 H   0  0  0  0  0  0  0  0  0  0  0  0
  -11.8942  -37.9798   18.5354 H   0  0  0  0  0  0  0  0  0  0  0  0
  -12.4687  -39.4077   17.9899 H   0  0  0  0  0  0  0  0  0  0  0  0
  -16.4407  -35.1882   11.9751 H   0  0  0  0  0  0  0  0  0  0  0  0
  -14.1539  -38.4597   16.8906 H   0  0  0  0  0  0  0  0  0  0  0  0
  -13.3643  -37.0416   16.7116 H   0  0  0  0  0  0  0  0  0  0  0  0
  -18.1492  -34.1142   10.7075 H   0  0  0  0  0  0  0  0  0  0  0  0
  -16.6415  -35.4414   14.3410 H   0  0  0  0  0  0  0  0  0  0  0  0
  -13.8081  -36.5537   19.0509 H   0  0  0  0  0  0  0  0  0  0  0  0
  -14.7057  -37.9157   19.1293 H   0  0  0  0  0  0  0  0  0  0  0  0
  -20.1153  -33.2770   11.7806 H   0  0  0  0  0  0  0  0  0  0  0  0
  -18.5802  -37.1080   16.5777 H   0  0  0  0  0  0  0  0  0  0  0  0
  -16.7223  -38.1751   17.6870 H   0  0  0  0  0  0  0  0  0  0  0  0
  -14.5686  -34.6204   17.8250 H   0  0  0  0  0  0  0  0  0  0  0  0
  1 17  1  0  0  0  0
  2 18  1  0  0  0  0
  2 19  1  0  0  0  0
  3  5  1  0  0  0  0
  4 21  1  0  0  0  0
  5  6  1  0  0  0  0
  6  7  1  0  0  0  0
  7  9  1  0  0  0  0
  8 10  2  0  0  0  0
  8 11  1  0  0  0  0
  9 12  1  0  0  0  0
 10 13  1  0  0  0  0
 11 19  2  0  0  0  0
 12 20  1  0  0  0  0
 13 21  2  0  0  0  0
 14 15  1  0  0  0  0
 14 18  2  0  0  0  0
 15 20  2  0  0  0  0
 16 17  2  0  0  0  0
 16 20  1  0  0  0  0
 17 18  1  0  0  0  0
 19 21  1  0  0  0  0
  1 22  1  0  0  0  0
  3 23  1  0  0  0  0
  3 24  1  0  0  0  0
  3 25  1  0  0  0  0
  4 26  1  0  0  0  0
  4 27  1  0  0  0  0
  4 28  1  0  0  0  0
  5 29  1  0  0  0  0
  5 30  1  0  0  0  0
  6 31  1  0  0  0  0
  6 32  1  0  0  0  0
  7 33  1  0  0  0  0
  7 34  1  0  0  0  0
  8 35  1  0  0  0  0
  9 36  1  0  0  0  0
  9 37  1  0  0  0  0
 10 38  1  0  0  0  0
 11 39  1  0  0  0  0
 12 40  1  0  0  0  0
 12 41  1  0  0  0  0
 13 42  1  0  0  0  0
 14 43  1  0  0  0  0
 15 44  1  0  0  0  0
 16 45  1  0  0  0  0
M  END
> <pdb_id>
2X22

> <uniprot_id>
P0A5Y6

> <usmiles>
O(c1c(O)cc(cc1)CCCCCC)c2c(cccc2)C

$$$$
TDI_A_301
          07202415043D 1   1.00000     0.00000     0
            
 39 41  0  0  0  0            999 V2000
  -24.2822   12.3853    4.5037 S   0  0  0  0  0  0  0  0  0  0  0  0
  -25.6921    8.1740    4.5115 O   0  0  0  0  0  0  0  0  0  0  0  0
  -19.8913   11.8856   -1.7540 N   0  0  0  0  0  0  0  0  0  0  0  0
  -19.4040   10.7183    0.1802 N   0  0  0  0  0  0  0  0  0  0  0  0
  -21.0106    9.1486    1.0300 N   0  0  0  0  0  0  0  0  0  0  0  0
  -22.4764   10.4640   -1.7282 N   0  0  0  0  0  0  0  0  0  0  0  0
  -24.6512    8.3659    1.7592 N   0  0  0  0  0  0  0  0  0  0  0  0
  -25.7175   13.4127    4.4167 C   0  0  0  0  0  0  0  0  0  0  0  0
  -24.4514   11.4485    2.9527 C   0  0  0  0  0  0  0  0  0  0  0  0
  -19.7822    9.7656    1.1232 C   0  0  0  0  0  0  0  0  0  0  0  0
  -23.4789    9.6690   -1.3489 C   0  0  0  0  0  0  0  0  0  0  0  0
  -23.7604    8.3973    2.9282 C   0  0  0  0  0  0  0  0  0  0  0  0
  -25.5945    9.5149    1.8182 C   0  0  0  0  0  0  0  0  0  0  0  0
  -23.9735    8.0143    0.4793 C   0  0  0  0  0  0  0  0  0  0  0  0
  -20.2608   10.9853   -0.8118 C   0  0  0  0  0  0  0  0  0  0  0  0
  -24.7005    9.0691    3.9483 C   0  0  1  0  0  0  0  0  0  0  0  0
  -21.4687   10.3618   -0.8878 C   0  0  0  0  0  0  0  0  0  0  0  0
  -21.8644    9.4702    0.0476 C   0  0  0  0  0  0  0  0  0  0  0  0
  -25.3410   10.1832    3.1373 C   0  0  1  0  0  0  0  0  0  0  0  0
  -23.1097    9.0687   -0.2380 C   0  0  0  0  0  0  0  0  0  0  0  0
  -26.2633    8.6757    5.1612 H   0  0  0  0  0  0  0  0  0  0  0  0
  -20.5119   12.1045   -2.5069 H   0  0  0  0  0  0  0  0  0  0  0  0
  -18.9980   12.3313   -1.6966 H   0  0  0  0  0  0  0  0  0  0  0  0
  -22.4890   11.0534   -2.5359 H   0  0  0  0  0  0  0  0  0  0  0  0
  -25.7575   13.9987    5.2260 H   0  0  0  0  0  0  0  0  0  0  0  0
  -25.6710   13.9813    3.5954 H   0  0  0  0  0  0  0  0  0  0  0  0
  -26.5360   12.8395    4.3794 H   0  0  0  0  0  0  0  0  0  0  0  0
  -23.5434   11.1641    2.6452 H   0  0  0  0  0  0  0  0  0  0  0  0
  -24.8676   12.0391    2.2613 H   0  0  0  0  0  0  0  0  0  0  0  0
  -19.1606    9.5288    1.8699 H   0  0  0  0  0  0  0  0  0  0  0  0
  -24.3516    9.5510   -1.8228 H   0  0  0  0  0  0  0  0  0  0  0  0
  -22.9416    8.9455    2.7584 H   0  0  0  0  0  0  0  0  0  0  0  0
  -23.4922    7.4783    3.2173 H   0  0  0  0  0  0  0  0  0  0  0  0
  -26.5397    9.1925    1.7668 H   0  0  0  0  0  0  0  0  0  0  0  0
  -25.4175   10.1499    1.0662 H   0  0  0  0  0  0  0  0  0  0  0  0
  -24.6894    7.7396   -0.1627 H   0  0  0  0  0  0  0  0  0  0  0  0
  -23.3794    7.2329    0.6702 H   0  0  0  0  0  0  0  0  0  0  0  0
  -24.1568    9.4678    4.6869 H   0  0  0  0  0  0  0  0  0  0  0  0
  -26.2119   10.4434    3.5542 H   0  0  0  0  0  0  0  0  0  0  0  0
  1  8  1  0  0  0  0
  1  9  1  0  0  0  0
  2 16  1  0  0  0  0
  3 15  1  0  0  0  0
  4 10  1  0  0  0  0
  4 15  2  0  0  0  0
  5 10  2  0  0  0  0
  5 18  1  0  0  0  0
  6 11  1  0  0  0  0
  6 17  1  0  0  0  0
  7 12  1  0  0  0  0
  7 13  1  0  0  0  0
  7 14  1  0  0  0  0
  9 19  1  0  0  0  0
 11 20  2  0  0  0  0
 12 16  1  0  0  0  0
 13 19  1  0  0  0  0
 14 20  1  0  0  0  0
 15 17  1  0  0  0  0
 16 19  1  0  0  0  0
 17 18  2  0  0  0  0
 18 20  1  0  0  0  0
  2 21  1  0  0  0  0
  3 22  1  0  0  0  0
  3 23  1  0  0  0  0
  6 24  1  0  0  0  0
  8 25  1  0  0  0  0
  8 26  1  0  0  0  0
  8 27  1  0  0  0  0
  9 28  1  0  0  0  0
  9 29  1  0  0  0  0
 10 30  1  0  0  0  0
 11 31  1  0  0  0  0
 12 32  1  0  0  0  0
 12 33  1  0  0  0  0
 13 34  1  0  0  0  0
 13 35  1  0  0  0  0
 14 36  1  0  0  0  0
 14 37  1  0  0  0  0
 16 38  1  0  0  0  0
 19 39  1  0  0  0  0
M  END
> <pdb_id>
4F2W

> <uniprot_id>
E8NLP5

> <usmiles>
S(C[C@@H]1[C@@H](O)CN(CC=2c3ncnc(N)c3NC2)C1)C

$$$$
TDI_A_301
          07212402473D 1   1.00000     0.00000     0
            
 39 41  0  0  0  0            999 V2000
  -33.6857  -35.7631  -57.1750 S   0  0  0  0  0  0  0  0  0  0  0  0
  -29.6775  -36.9223  -55.9785 O   0  0  0  0  0  0  0  0  0  0  0  0
  -33.0698  -28.3281  -55.4333 N   0  0  0  0  0  0  0  0  0  0  0  0
  -32.9382  -30.0405  -53.8214 N   0  0  0  0  0  0  0  0  0  0  0  0
  -31.2957  -31.7285  -53.9427 N   0  0  0  0  0  0  0  0  0  0  0  0
  -30.6754  -29.7109  -56.7181 N   0  0  0  0  0  0  0  0  0  0  0  0
  -29.1734  -34.1007  -56.0743 N   0  0  0  0  0  0  0  0  0  0  0  0
  -33.7929  -36.3485  -58.8386 C   0  0  0  0  0  0  0  0  0  0  0  0
  -32.3712  -34.5984  -57.1473 C   0  0  0  0  0  0  0  0  0  0  0  0
  -32.3544  -31.1569  -53.3341 C   0  0  0  0  0  0  0  0  0  0  0  0
  -29.6930  -30.6347  -56.9123 C   0  0  0  0  0  0  0  0  0  0  0  0
  -30.0530  -34.7159  -55.0393 C   0  0  0  0  0  0  0  0  0  0  0  0
  -29.8998  -34.2206  -57.3608 C   0  0  0  0  0  0  0  0  0  0  0  0
  -28.7746  -32.7353  -55.7261 C   0  0  0  0  0  0  0  0  0  0  0  0
  -32.4711  -29.4557  -54.9555 C   0  0  0  0  0  0  0  0  0  0  0  0
  -30.6560  -35.8889  -55.7952 C   0  0  1  0  0  0  0  0  0  0  0  0
  -31.3744  -30.0188  -55.6137 C   0  0  0  0  0  0  0  0  0  0  0  0
  -30.8044  -31.1606  -55.0754 C   0  0  0  0  0  0  0  0  0  0  0  0
  -30.9951  -35.2728  -57.1400 C   0  0  1  0  0  0  0  0  0  0  0  0
  -29.7474  -31.5827  -55.8903 C   0  0  0  0  0  0  0  0  0  0  0  0
  -30.0884  -37.6860  -56.4764 H   0  0  0  0  0  0  0  0  0  0  0  0
  -32.7280  -27.8957  -56.2677 H   0  0  0  0  0  0  0  0  0  0  0  0
  -33.8509  -27.9333  -54.9495 H   0  0  0  0  0  0  0  0  0  0  0  0
  -30.8496  -28.9229  -57.3087 H   0  0  0  0  0  0  0  0  0  0  0  0
  -34.5314  -37.0190  -58.9090 H   0  0  0  0  0  0  0  0  0  0  0  0
  -33.9806  -35.5804  -59.4508 H   0  0  0  0  0  0  0  0  0  0  0  0
  -32.9275  -36.7774  -59.0975 H   0  0  0  0  0  0  0  0  0  0  0  0
  -32.4576  -34.0356  -56.3252 H   0  0  0  0  0  0  0  0  0  0  0  0
  -32.4398  -34.0169  -57.9580 H   0  0  0  0  0  0  0  0  0  0  0  0
  -32.7174  -31.5708  -52.4993 H   0  0  0  0  0  0  0  0  0  0  0  0
  -29.0372  -30.6335  -57.6673 H   0  0  0  0  0  0  0  0  0  0  0  0
  -30.7598  -34.0767  -54.7364 H   0  0  0  0  0  0  0  0  0  0  0  0
  -29.5233  -35.0259  -54.2498 H   0  0  0  0  0  0  0  0  0  0  0  0
  -29.2762  -34.5164  -58.0845 H   0  0  0  0  0  0  0  0  0  0  0  0
  -30.3083  -33.3428  -57.6110 H   0  0  0  0  0  0  0  0  0  0  0  0
  -27.9760  -32.5182  -56.2875 H   0  0  0  0  0  0  0  0  0  0  0  0
  -28.5098  -32.7514  -54.7619 H   0  0  0  0  0  0  0  0  0  0  0  0
  -31.4735  -36.2374  -55.3367 H   0  0  0  0  0  0  0  0  0  0  0  0
  -30.9509  -35.9688  -57.8566 H   0  0  0  0  0  0  0  0  0  0  0  0
  1  8  1  0  0  0  0
  1  9  1  0  0  0  0
  2 16  1  0  0  0  0
  3 15  1  0  0  0  0
  4 10  1  0  0  0  0
  4 15  2  0  0  0  0
  5 10  2  0  0  0  0
  5 18  1  0  0  0  0
  6 11  1  0  0  0  0
  6 17  1  0  0  0  0
  7 12  1  0  0  0  0
  7 13  1  0  0  0  0
  7 14  1  0  0  0  0
  9 19  1  0  0  0  0
 11 20  2  0  0  0  0
 12 16  1  0  0  0  0
 13 19  1  0  0  0  0
 14 20  1  0  0  0  0
 15 17  1  0  0  0  0
 16 19  1  0  0  0  0
 17 18  2  0  0  0  0
 18 20  1  0  0  0  0
  2 21  1  0  0  0  0
  3 22  1  0  0  0  0
  3 23  1  0  0  0  0
  6 24  1  0  0  0  0
  8 25  1  0  0  0  0
  8 26  1  0  0  0  0
  8 27  1  0  0  0  0
  9 28  1  0  0  0  0
  9 29  1  0  0  0  0
 10 30  1  0  0  0  0
 11 31  1  0  0  0  0
 12 32  1  0  0  0  0
 12 33  1  0  0  0  0
 13 34  1  0  0  0  0
 13 35  1  0  0  0  0
 14 36  1  0  0  0  0
 14 37  1  0  0  0  0
 16 38  1  0  0  0  0
 19 39  1  0  0  0  0
M  END
> <pdb_id>
4WKN

> <uniprot_id>
Q9ZMY2

> <usmiles>
S(C[C@@H]1[C@@H](O)CN(CC=2c3ncnc(N)c3NC2)C1)C

$$$$
TDI_A_301
          07202404323D 1   1.00000     0.00000     0
            
 39 41  0  0  0  0            999 V2000
   64.7843  -13.8130    8.7512 S   0  0  0  0  0  0  0  0  0  0  0  0
   61.3627  -17.2366   10.4461 O   0  0  0  0  0  0  0  0  0  0  0  0
   64.8007  -18.2869    1.8828 N   0  0  0  0  0  0  0  0  0  0  0  0
   63.9089  -19.8270    3.4259 N   0  0  0  0  0  0  0  0  0  0  0  0
   62.3914  -19.2092    5.1411 N   0  0  0  0  0  0  0  0  0  0  0  0
   63.0937  -16.1761    3.4357 N   0  0  0  0  0  0  0  0  0  0  0  0
   61.2372  -16.5583    7.6875 N   0  0  0  0  0  0  0  0  0  0  0  0
   64.5800  -12.9954   10.2737 C   0  0  0  0  0  0  0  0  0  0  0  0
   64.2954  -15.4928    9.0278 C   0  0  0  0  0  0  0  0  0  0  0  0
   63.1190  -20.1440    4.4867 C   0  0  0  0  0  0  0  0  0  0  0  0
   62.2080  -15.7192    4.3501 C   0  0  0  0  0  0  0  0  0  0  0  0
   62.0405  -17.6942    8.1691 C   0  0  0  0  0  0  0  0  0  0  0  0
   62.0137  -15.3310    7.9649 C   0  0  0  0  0  0  0  0  0  0  0  0
   60.7971  -16.6366    6.2932 C   0  0  0  0  0  0  0  0  0  0  0  0
   64.0239  -18.5782    2.9284 C   0  0  0  0  0  0  0  0  0  0  0  0
   62.4570  -17.1583    9.5120 C   0  0  1  0  0  0  0  0  0  0  0  0
   63.2647  -17.5093    3.5785 C   0  0  0  0  0  0  0  0  0  0  0  0
   62.4576  -17.9367    4.6964 C   0  0  0  0  0  0  0  0  0  0  0  0
   62.8071  -15.7001    9.2299 C   0  0  1  0  0  0  0  0  0  0  0  0
   61.7915  -16.7347    5.1830 C   0  0  0  0  0  0  0  0  0  0  0  0
   61.6546  -16.8773   11.3325 H   0  0  0  0  0  0  0  0  0  0  0  0
   64.8557  -17.3465    1.5473 H   0  0  0  0  0  0  0  0  0  0  0  0
   65.3277  -19.0092    1.4349 H   0  0  0  0  0  0  0  0  0  0  0  0
   63.5552  -15.6096    2.7529 H   0  0  0  0  0  0  0  0  0  0  0  0
   64.8436  -12.0358   10.1746 H   0  0  0  0  0  0  0  0  0  0  0  0
   63.6223  -13.0506   10.5558 H   0  0  0  0  0  0  0  0  0  0  0  0
   65.1569  -13.4298   10.9654 H   0  0  0  0  0  0  0  0  0  0  0  0
   64.7687  -15.8236    9.8442 H   0  0  0  0  0  0  0  0  0  0  0  0
   64.5795  -16.0333    8.2358 H   0  0  0  0  0  0  0  0  0  0  0  0
   63.0746  -21.0952    4.7920 H   0  0  0  0  0  0  0  0  0  0  0  0
   61.8970  -14.7709    4.4133 H   0  0  0  0  0  0  0  0  0  0  0  0
   62.8277  -17.8706    7.5781 H   0  0  0  0  0  0  0  0  0  0  0  0
   61.4940  -18.5273    8.2538 H   0  0  0  0  0  0  0  0  0  0  0  0
   61.4082  -14.5535    8.1348 H   0  0  0  0  0  0  0  0  0  0  0  0
   62.6280  -15.1154    7.2058 H   0  0  0  0  0  0  0  0  0  0  0  0
   60.2545  -15.8149    6.1185 H   0  0  0  0  0  0  0  0  0  0  0  0
   60.2111  -17.4440    6.2237 H   0  0  0  0  0  0  0  0  0  0  0  0
   63.2540  -17.6528    9.8586 H   0  0  0  0  0  0  0  0  0  0  0  0
   62.4956  -15.1326    9.9921 H   0  0  0  0  0  0  0  0  0  0  0  0
  1  8  1  0  0  0  0
  1  9  1  0  0  0  0
  2 16  1  0  0  0  0
  3 15  1  0  0  0  0
  4 10  1  0  0  0  0
  4 15  2  0  0  0  0
  5 10  2  0  0  0  0
  5 18  1  0  0  0  0
  6 11  1  0  0  0  0
  6 17  1  0  0  0  0
  7 12  1  0  0  0  0
  7 13  1  0  0  0  0
  7 14  1  0  0  0  0
  9 19  1  0  0  0  0
 11 20  2  0  0  0  0
 12 16  1  0  0  0  0
 13 19  1  0  0  0  0
 14 20  1  0  0  0  0
 15 17  1  0  0  0  0
 16 19  1  0  0  0  0
 17 18  2  0  0  0  0
 18 20  1  0  0  0  0
  2 21  1  0  0  0  0
  3 22  1  0  0  0  0
  3 23  1  0  0  0  0
  6 24  1  0  0  0  0
  8 25  1  0  0  0  0
  8 26  1  0  0  0  0
  8 27  1  0  0  0  0
  9 28  1  0  0  0  0
  9 29  1  0  0  0  0
 10 30  1  0  0  0  0
 11 31  1  0  0  0  0
 12 32  1  0  0  0  0
 12 33  1  0  0  0  0
 13 34  1  0  0  0  0
 13 35  1  0  0  0  0
 14 36  1  0  0  0  0
 14 37  1  0  0  0  0
 16 38  1  0  0  0  0
 19 39  1  0  0  0  0
M  END
> <pdb_id>
5TC8

> <uniprot_id>
Q13126

> <usmiles>
S(C[C@@H]1[C@@H](O)CN(CC=2c3ncnc(N)c3NC2)C1)C

$$$$
TDI_A_301
          07202413423D 1   1.00000     0.00000     0
            
 39 41  0  0  0  0            999 V2000
  -27.4230   27.2920    6.8684 S   0  0  0  0  0  0  0  0  0  0  0  0
  -27.0345   24.3537    3.5071 O   0  0  0  0  0  0  0  0  0  0  0  0
  -24.4625   23.1961   12.3588 N   0  0  0  0  0  0  0  0  0  0  0  0
  -26.3961   22.6160   11.1766 N   0  0  0  0  0  0  0  0  0  0  0  0
  -26.4416   22.2437    8.8088 N   0  0  0  0  0  0  0  0  0  0  0  0
  -23.0974   23.1096    9.5266 N   0  0  0  0  0  0  0  0  0  0  0  0
  -25.2528   23.2953    5.6394 N   0  0  0  0  0  0  0  0  0  0  0  0
  -26.5298   28.6885    6.2494 C   0  0  0  0  0  0  0  0  0  0  0  0
  -26.1578   26.0558    6.7641 C   0  0  0  0  0  0  0  0  0  0  0  0
  -27.0210   22.2992   10.0156 C   0  0  0  0  0  0  0  0  0  0  0  0
  -22.9880   22.9114    8.1819 C   0  0  0  0  0  0  0  0  0  0  0  0
  -26.7063   23.2085    5.5481 C   0  0  0  0  0  0  0  0  0  0  0  0
  -24.7152   24.5939    5.2784 C   0  0  0  0  0  0  0  0  0  0  0  0
  -24.4218   22.2441    6.1506 C   0  0  0  0  0  0  0  0  0  0  0  0
  -25.0792   22.8938   11.2024 C   0  0  0  0  0  0  0  0  0  0  0  0
  -27.0750   24.5305    4.9189 C   0  0  1  0  0  0  0  0  0  0  0  0
  -24.3573   22.8796    9.9351 C   0  0  0  0  0  0  0  0  0  0  0  0
  -25.1222   22.5193    8.7536 C   0  0  0  0  0  0  0  0  0  0  0  0
  -25.9594   25.4680    5.3561 C   0  0  1  0  0  0  0  0  0  0  0  0
  -24.2009   22.5570    7.6122 C   0  0  0  0  0  0  0  0  0  0  0  0
  -27.2745   25.2135    3.0564 H   0  0  0  0  0  0  0  0  0  0  0  0
  -23.4836   23.4006   12.3649 H   0  0  0  0  0  0  0  0  0  0  0  0
  -24.9828   23.2164   13.2125 H   0  0  0  0  0  0  0  0  0  0  0  0
  -22.3458   23.3872   10.1249 H   0  0  0  0  0  0  0  0  0  0  0  0
  -27.1265   29.4909    6.2459 H   0  0  0  0  0  0  0  0  0  0  0  0
  -25.7384   28.8641    6.8350 H   0  0  0  0  0  0  0  0  0  0  0  0
  -26.2197   28.4995    5.3177 H   0  0  0  0  0  0  0  0  0  0  0  0
  -26.3983   25.3089    7.3840 H   0  0  0  0  0  0  0  0  0  0  0  0
  -25.2942   26.4666    7.0564 H   0  0  0  0  0  0  0  0  0  0  0  0
  -27.9975   22.0890   10.0643 H   0  0  0  0  0  0  0  0  0  0  0  0
  -22.1355   23.0099    7.6686 H   0  0  0  0  0  0  0  0  0  0  0  0
  -27.1199   23.1115    6.4533 H   0  0  0  0  0  0  0  0  0  0  0  0
  -26.9867   22.4425    4.9696 H   0  0  0  0  0  0  0  0  0  0  0  0
  -24.3307   24.5866    4.3553 H   0  0  0  0  0  0  0  0  0  0  0  0
  -24.0166   24.8938    5.9281 H   0  0  0  0  0  0  0  0  0  0  0  0
  -23.5483   22.2247    5.6641 H   0  0  0  0  0  0  0  0  0  0  0  0
  -24.8790   21.3604    6.0502 H   0  0  0  0  0  0  0  0  0  0  0  0
  -27.9708   24.8509    5.2270 H   0  0  0  0  0  0  0  0  0  0  0  0
  -25.8790   26.2147    4.6959 H   0  0  0  0  0  0  0  0  0  0  0  0
  1  8  1  0  0  0  0
  1  9  1  0  0  0  0
  2 16  1  0  0  0  0
  3 15  1  0  0  0  0
  4 10  1  0  0  0  0
  4 15  2  0  0  0  0
  5 10  2  0  0  0  0
  5 18  1  0  0  0  0
  6 11  1  0  0  0  0
  6 17  1  0  0  0  0
  7 12  1  0  0  0  0
  7 13  1  0  0  0  0
  7 14  1  0  0  0  0
  9 19  1  0  0  0  0
 11 20  2  0  0  0  0
 12 16  1  0  0  0  0
 13 19  1  0  0  0  0
 14 20  1  0  0  0  0
 15 17  1  0  0  0  0
 16 19  1  0  0  0  0
 17 18  2  0  0  0  0
 18 20  1  0  0  0  0
  2 21  1  0  0  0  0
  3 22  1  0  0  0  0
  3 23  1  0  0  0  0
  6 24  1  0  0  0  0
  8 25  1  0  0  0  0
  8 26  1  0  0  0  0
  8 27  1  0  0  0  0
  9 28  1  0  0  0  0
  9 29  1  0  0  0  0
 10 30  1  0  0  0  0
 11 31  1  0  0  0  0
 12 32  1  0  0  0  0
 12 33  1  0  0  0  0
 13 34  1  0  0  0  0
 13 35  1  0  0  0  0
 14 36  1  0  0  0  0
 14 37  1  0  0  0  0
 16 38  1  0  0  0  0
 19 39  1  0  0  0  0
M  END
> <pdb_id>
6AYQ

> <uniprot_id>
nan

> <usmiles>
S(C[C@@H]1[C@@H](O)CN(CC=2c3ncnc(N)c3NC2)C1)C

$$$$
TDU_A_1
          07202417413D 1   1.00000     0.00000     0
            
 39 41  0  0  0  0            999 V2000
   -1.4744   -6.5925   26.6706 S   0  0  0  0  0  0  0  0  0  0  0  0
   -2.9374   -4.4314   31.2990 O   0  0  0  0  0  0  0  0  0  0  0  0
   -0.1242   -6.6695   25.7496 N   0  0  0  0  0  0  0  0  0  0  0  0
    0.8263   -6.1920   26.3954 N   0  0  0  0  0  0  0  0  0  0  0  0
   -1.8880   -4.0059   33.2185 N   0  0  0  0  0  0  0  0  0  0  0  0
   -0.6692   -4.5376   31.4057 N   0  0  0  0  0  0  0  0  0  0  0  0
   -3.1425   -3.7243   33.9320 C   0  0  0  0  0  0  0  0  0  0  0  0
   -7.2932   -5.1199   36.7081 C   0  0  0  0  0  0  0  0  0  0  0  0
   -6.2177   -6.1786   37.0495 C   0  0  0  0  0  0  0  0  0  0  0  0
   -6.7722   -3.6816   36.5532 C   0  0  0  0  0  0  0  0  0  0  0  0
   -3.2449   -4.7261   35.0841 C   0  0  0  0  0  0  0  0  0  0  0  0
   -5.0028   -5.9309   36.4108 C   0  0  0  0  0  0  0  0  0  0  0  0
   -5.6319   -3.6097   35.5236 C   0  0  0  0  0  0  0  0  0  0  0  0
    1.0116   -4.7785   29.8172 C   0  0  0  0  0  0  0  0  0  0  0  0
    1.4595   -5.1813   28.5614 C   0  0  0  0  0  0  0  0  0  0  0  0
   -1.2140   -5.5013   29.2690 C   0  0  0  0  0  0  0  0  0  0  0  0
   -1.8857   -4.3480   31.9364 C   0  0  0  0  0  0  0  0  0  0  0  0
   -0.7529   -5.8922   28.0173 C   0  0  0  0  0  0  0  0  0  0  0  0
   -0.3275   -4.9269   30.1752 C   0  0  0  0  0  0  0  0  0  0  0  0
   -4.6469   -4.7798   35.6946 C   0  0  0  0  0  0  0  0  0  0  0  0
    0.5802   -5.7489   27.6502 C   0  0  0  0  0  0  0  0  0  0  0  0
   -1.0193   -3.9382   33.7092 H   0  0  0  0  0  0  0  0  0  0  0  0
    0.0967   -4.3609   32.0239 H   0  0  0  0  0  0  0  0  0  0  0  0
   -3.9203   -3.8338   33.3131 H   0  0  0  0  0  0  0  0  0  0  0  0
   -3.1304   -2.7908   34.2903 H   0  0  0  0  0  0  0  0  0  0  0  0
   -7.9748   -5.1246   37.4398 H   0  0  0  0  0  0  0  0  0  0  0  0
   -7.7266   -5.3861   35.8471 H   0  0  0  0  0  0  0  0  0  0  0  0
   -6.5514   -7.0777   36.7662 H   0  0  0  0  0  0  0  0  0  0  0  0
   -6.0668   -6.1753   38.0380 H   0  0  0  0  0  0  0  0  0  0  0  0
   -6.4335   -3.3606   37.4376 H   0  0  0  0  0  0  0  0  0  0  0  0
   -7.5224   -3.0940   36.2503 H   0  0  0  0  0  0  0  0  0  0  0  0
   -2.5951   -4.4620   35.7969 H   0  0  0  0  0  0  0  0  0  0  0  0
   -3.0105   -5.6352   34.7397 H   0  0  0  0  0  0  0  0  0  0  0  0
   -4.3119   -6.6515   36.4701 H   0  0  0  0  0  0  0  0  0  0  0  0
   -5.1382   -2.7485   35.6443 H   0  0  0  0  0  0  0  0  0  0  0  0
   -6.0217   -3.6443   34.6033 H   0  0  0  0  0  0  0  0  0  0  0  0
    1.6569   -4.3790   30.4683 H   0  0  0  0  0  0  0  0  0  0  0  0
    2.4211   -5.0606   28.3148 H   0  0  0  0  0  0  0  0  0  0  0  0
   -2.1741   -5.6317   29.5163 H   0  0  0  0  0  0  0  0  0  0  0  0
  1  3  1  0  0  0  0
  1 18  1  0  0  0  0
  2 17  2  0  0  0  0
  3  4  2  0  0  0  0
  4 21  1  0  0  0  0
  5  7  1  0  0  0  0
  5 17  1  0  0  0  0
  6 17  1  0  0  0  0
  6 19  1  0  0  0  0
  7 11  1  0  0  0  0
  8  9  1  0  0  0  0
  8 10  1  0  0  0  0
  9 12  1  0  0  0  0
 10 13  1  0  0  0  0
 11 20  1  0  0  0  0
 12 20  2  0  0  0  0
 13 20  1  0  0  0  0
 14 15  1  0  0  0  0
 14 19  2  0  0  0  0
 15 21  2  0  0  0  0
 16 18  2  0  0  0  0
 16 19  1  0  0  0  0
 18 21  1  0  0  0  0
  5 22  1  0  0  0  0
  6 23  1  0  0  0  0
  7 24  1  0  0  0  0
  7 25  1  0  0  0  0
  8 26  1  0  0  0  0
  8 27  1  0  0  0  0
  9 28  1  0  0  0  0
  9 29  1  0  0  0  0
 10 30  1  0  0  0  0
 10 31  1  0  0  0  0
 11 32  1  0  0  0  0
 11 33  1  0  0  0  0
 12 34  1  0  0  0  0
 13 35  1  0  0  0  0
 13 36  1  0  0  0  0
 14 37  1  0  0  0  0
 15 38  1  0  0  0  0
 16 39  1  0  0  0  0
M  END
> <pdb_id>
3SMQ

> <uniprot_id>
O60678

> <usmiles>
S1N=Nc2c1cc(NC(=O)NCCC3=CCCCC3)cc2

$$$$
TE7_A_1
          07202402453D 1   1.00000     0.00000     0
            
 45 48  0  0  0  0            999 V2000
   -5.1190    6.0020   14.3270 O   0  0  0  0  0  0  0  0  0  0  0  0
   -2.8930    9.7380   16.4430 O   0  0  0  0  0  0  0  0  0  0  0  0
   -1.6390    2.4660   17.0710 N   0  0  0  0  0  0  0  0  0  0  0  0
   -5.6650    3.4640   13.6520 N   0  0  0  0  0  0  0  0  0  0  0  0
   -8.6080    1.7020   13.5550 N   0  0  0  0  0  0  0  0  0  0  0  0
   -2.2560    4.4530   16.6490 N   0  0  0  0  0  0  0  0  0  0  0  0
   -1.7370   10.3780   16.9290 C   0  0  0  0  0  0  0  0  0  0  0  0
   -8.8610    0.4860   12.8120 C   0  0  0  0  0  0  0  0  0  0  0  0
   -8.6790    2.8000   12.5940 C   0  0  0  0  0  0  0  0  0  0  0  0
   -1.4270    3.7160   17.3060 C   0  0  0  0  0  0  0  0  0  0  0  0
   -6.4570    2.4490   13.0700 C   0  0  0  0  0  0  0  0  0  0  0  0
   -7.2970    1.7610   14.1290 C   0  0  0  0  0  0  0  0  0  0  0  0
   -1.7370    7.8710   17.2790 C   0  0  0  0  0  0  0  0  0  0  0  0
   -3.3370    1.4270   15.5160 C   0  0  0  0  0  0  0  0  0  0  0  0
   -4.3560    1.8160   14.6480 C   0  0  0  0  0  0  0  0  0  0  0  0
   -1.6100    6.5060   17.3230 C   0  0  0  0  0  0  0  0  0  0  0  0
   -3.5450    7.6300   15.7560 C   0  0  0  0  0  0  0  0  0  0  0  0
   -2.7320    8.4280   16.4960 C   0  0  0  0  0  0  0  0  0  0  0  0
   -4.2480    5.4960   15.0140 C   0  0  0  0  0  0  0  0  0  0  0  0
   -2.6360    2.4070   16.1730 C   0  0  0  0  0  0  0  0  0  0  0  0
   -4.7230    3.1380   14.4620 C   0  0  0  0  0  0  0  0  0  0  0  0
   -2.4470    5.7440   16.5880 C   0  0  0  0  0  0  0  0  0  0  0  0
   -3.0190    3.6960   15.9460 C   0  0  0  0  0  0  0  0  0  0  0  0
   -3.4120    6.2930   15.7910 C   0  0  0  0  0  0  0  0  0  0  0  0
   -4.0320    4.1380   15.1070 C   0  0  0  0  0  0  0  0  0  0  0  0
   -5.8359    4.4253   13.4358 H   0  0  0  0  0  0  0  0  0  0  0  0
   -1.8623   11.3692   16.8874 H   0  0  0  0  0  0  0  0  0  0  0  0
   -1.5765   10.1018   17.8766 H   0  0  0  0  0  0  0  0  0  0  0  0
   -0.9511   10.1176   16.3682 H   0  0  0  0  0  0  0  0  0  0  0  0
   -8.8224   -0.2976   13.4320 H   0  0  0  0  0  0  0  0  0  0  0  0
   -9.7672    0.5344   12.3920 H   0  0  0  0  0  0  0  0  0  0  0  0
   -8.1682    0.3810   12.0986 H   0  0  0  0  0  0  0  0  0  0  0  0
   -8.5096    3.6661   13.0643 H   0  0  0  0  0  0  0  0  0  0  0  0
   -7.9885    2.6661   11.8832 H   0  0  0  0  0  0  0  0  0  0  0  0
   -9.5875    2.8195   12.1766 H   0  0  0  0  0  0  0  0  0  0  0  0
   -0.7158    4.0663   17.9154 H   0  0  0  0  0  0  0  0  0  0  0  0
   -5.8606    1.7753   12.6335 H   0  0  0  0  0  0  0  0  0  0  0  0
   -7.0602    2.8548   12.3833 H   0  0  0  0  0  0  0  0  0  0  0  0
   -6.9497    0.8419   14.3151 H   0  0  0  0  0  0  0  0  0  0  0  0
   -7.3044    2.2924   14.9761 H   0  0  0  0  0  0  0  0  0  0  0  0
   -1.1192    8.4551   17.8054 H   0  0  0  0  0  0  0  0  0  0  0  0
   -3.1226    0.4603   15.6561 H   0  0  0  0  0  0  0  0  0  0  0  0
   -4.8438    1.1085   14.1367 H   0  0  0  0  0  0  0  0  0  0  0  0
   -0.9063    6.0809   17.8923 H   0  0  0  0  0  0  0  0  0  0  0  0
   -4.2502    8.0418   15.1789 H   0  0  0  0  0  0  0  0  0  0  0  0
  1 19  2  0  0  0  0
  2  7  1  0  0  0  0
  2 18  1  0  0  0  0
  3 10  2  0  0  0  0
  3 20  1  0  0  0  0
  4 11  1  0  0  0  0
  4 21  1  0  0  0  0
  5  8  1  0  0  0  0
  5  9  1  0  0  0  0
  5 12  1  0  0  0  0
  6 10  1  0  0  0  0
  6 22  1  0  0  0  0
  6 23  1  0  0  0  0
 11 12  1  0  0  0  0
 13 16  1  0  0  0  0
 13 18  2  0  0  0  0
 14 15  1  0  0  0  0
 14 20  2  0  0  0  0
 15 21  2  0  0  0  0
 16 22  2  0  0  0  0
 17 18  1  0  0  0  0
 17 24  2  0  0  0  0
 19 24  1  0  0  0  0
 19 25  1  0  0  0  0
 20 23  1  0  0  0  0
 21 25  1  0  0  0  0
 22 24  1  0  0  0  0
 23 25  2  0  0  0  0
  4 26  1  0  0  0  0
  7 27  1  0  0  0  0
  7 28  1  0  0  0  0
  7 29  1  0  0  0  0
  8 30  1  0  0  0  0
  8 31  1  0  0  0  0
  8 32  1  0  0  0  0
  9 33  1  0  0  0  0
  9 34  1  0  0  0  0
  9 35  1  0  0  0  0
 10 36  1  0  0  0  0
 11 37  1  0  0  0  0
 11 38  1  0  0  0  0
 12 39  1  0  0  0  0
 12 40  1  0  0  0  0
 13 41  1  0  0  0  0
 14 42  1  0  0  0  0
 15 43  1  0  0  0  0
 16 44  1  0  0  0  0
 17 45  1  0  0  0  0
M  END
> <pdb_id>
3TE7

> <uniprot_id>
P16083

> <usmiles>
O=C1c2c3N(c4c1cc(OC)cc4)C=Nc3ccc2NCCN(C)C

$$$$
TH4_E_301
          07202406093D 1   1.00000     0.00000     0
            
 25 26  0  0  0  0            999 V2000
   59.4870    0.0241  126.0234 Cl  0  0  0  0  0  0  0  0  0  0  0  0
   58.7637    4.3722  118.3154 S   0  0  0  0  0  0  0  0  0  0  0  0
   56.5229    7.0305  119.5228 N   0  0  0  0  0  0  0  0  0  0  0  0
   56.8111    4.7135  120.0397 N   0  0  0  0  0  0  0  0  0  0  0  0
   58.3934   -0.2484  123.5266 N   0  0  0  0  0  0  0  0  0  0  0  0
   57.8023    2.6428  119.8055 N   0  0  0  0  0  0  0  0  0  0  0  0
   56.6749    5.9021  119.7654 C   0  0  0  0  0  0  0  0  0  0  0  0
   59.5352    2.8100  118.1153 C   0  0  0  0  0  0  0  0  0  0  0  0
   57.8296    0.1577  122.3545 C   0  0  0  0  0  0  0  0  0  0  0  0
   58.8320    1.8638  119.0938 C   0  0  0  0  0  0  0  0  0  0  0  0
   56.9731    1.9652  120.7997 C   0  0  0  0  0  0  0  0  0  0  0  0
   58.6139    2.0289  124.2986 C   0  0  0  0  0  0  0  0  0  0  0  0
   58.0277    2.4782  123.0821 C   0  0  0  0  0  0  0  0  0  0  0  0
   58.7845    0.6380  124.5015 C   0  0  0  0  0  0  0  0  0  0  0  0
   57.6723    3.9349  119.4935 C   0  0  0  0  0  0  0  0  0  0  0  0
   57.6285    1.5304  122.1006 C   0  0  0  0  0  0  0  0  0  0  0  0
   60.5093    2.8731  118.3322 H   0  0  0  0  0  0  0  0  0  0  0  0
   59.4232    2.4848  117.1763 H   0  0  0  0  0  0  0  0  0  0  0  0
   57.5573   -0.5202  121.6716 H   0  0  0  0  0  0  0  0  0  0  0  0
   58.4046    1.1113  118.5928 H   0  0  0  0  0  0  0  0  0  0  0  0
   59.4935    1.4960  119.7473 H   0  0  0  0  0  0  0  0  0  0  0  0
   56.6000    1.1449  120.3663 H   0  0  0  0  0  0  0  0  0  0  0  0
   56.2259    2.5862  121.0365 H   0  0  0  0  0  0  0  0  0  0  0  0
   58.9002    2.6840  124.9978 H   0  0  0  0  0  0  0  0  0  0  0  0
   57.8972    3.4561  122.9185 H   0  0  0  0  0  0  0  0  0  0  0  0
  1 14  1  0  0  0  0
  2  8  1  0  0  0  0
  2 15  1  0  0  0  0
  3  7  3  0  0  0  0
  4  7  1  0  0  0  0
  4 15  2  0  0  0  0
  5  9  2  0  0  0  0
  5 14  1  0  0  0  0
  6 10  1  0  0  0  0
  6 11  1  0  0  0  0
  6 15  1  0  0  0  0
  8 10  1  0  0  0  0
  9 16  1  0  0  0  0
 11 16  1  0  0  0  0
 12 13  1  0  0  0  0
 12 14  2  0  0  0  0
 13 16  2  0  0  0  0
  8 17  1  0  0  0  0
  8 18  1  0  0  0  0
  9 19  1  0  0  0  0
 10 20  1  0  0  0  0
 10 21  1  0  0  0  0
 11 22  1  0  0  0  0
 11 23  1  0  0  0  0
 12 24  1  0  0  0  0
 13 25  1  0  0  0  0
M  END
> <pdb_id>
3WTJ

> <uniprot_id>
P58154

> <usmiles>
Clc1ncc(cc1)CN2C(SCC2)=NC#N

$$$$
TIV_B_504
          07202409083D 1   1.00000     0.00000     0
            
 47 52  0  0  0  0            999 V2000
   15.9920  -69.7460  -42.0920 O   0  0  0  0  0  0  0  0  0  0  0  0
   19.3640  -66.8520  -43.2490 O   0  0  0  0  0  0  0  0  0  0  0  0
   12.5560  -66.4680  -41.8800 N   0  0  0  0  0  0  0  0  0  0  0  0
   17.9150  -68.4820  -42.4470 N   0  0  0  0  0  0  0  0  0  0  0  0
   16.8440  -63.7640  -45.6450 N   0  0  0  0  0  0  0  0  0  0  0  0
   13.4460  -66.9000  -42.8750 C   0  0  0  0  0  0  0  0  0  0  0  0
   13.7740  -65.9160  -38.2840 C   0  0  0  0  0  0  0  0  0  0  0  0
   15.1170  -66.2750  -38.5130 C   0  0  0  0  0  0  0  0  0  0  0  0
   17.6000  -67.0880  -47.9540 C   0  0  0  0  0  0  0  0  0  0  0  0
   16.7720  -64.2550  -44.3530 C   0  0  0  0  0  0  0  0  0  0  0  0
   12.8320  -65.9390  -39.3140 C   0  0  0  0  0  0  0  0  0  0  0  0
   17.5790  -65.8400  -48.6450 C   0  0  0  0  0  0  0  0  0  0  0  0
   15.5390  -66.6640  -39.7810 C   0  0  0  0  0  0  0  0  0  0  0  0
   17.4490  -67.1930  -46.5760 C   0  0  0  0  0  0  0  0  0  0  0  0
   16.6770  -62.3430  -45.9890 C   0  0  0  0  0  0  0  0  0  0  0  0
   16.7590  -62.1120  -47.5060 C   0  0  0  0  0  0  0  0  0  0  0  0
   16.6460  -63.3450  -48.4480 C   0  0  0  0  0  0  0  0  0  0  0  0
   16.5240  -68.7020  -42.4930 C   0  0  0  0  0  0  0  0  0  0  0  0
   18.2120  -67.2080  -42.9770 C   0  0  0  0  0  0  0  0  0  0  0  0
   13.2600  -66.3390  -40.6260 C   0  0  0  0  0  0  0  0  0  0  0  0
   17.2270  -64.6600  -47.9660 C   0  0  0  0  0  0  0  0  0  0  0  0
   17.0990  -64.8150  -46.5560 C   0  0  0  0  0  0  0  0  0  0  0  0
   14.6940  -67.0550  -42.2970 C   0  0  0  0  0  0  0  0  0  0  0  0
   14.6150  -66.7040  -40.8700 C   0  0  0  0  0  0  0  0  0  0  0  0
   17.1920  -66.0340  -45.7960 C   0  0  0  0  0  0  0  0  0  0  0  0
   16.9840  -65.6310  -44.3960 C   0  0  0  0  0  0  0  0  0  0  0  0
   15.8490  -67.4940  -43.0900 C   0  0  1  0  0  0  0  0  0  0  0  0
   16.9480  -66.4050  -43.1470 C   0  0  1  0  0  0  0  0  0  0  0  0
   11.5950  -66.2970  -42.0850 H   0  0  0  0  0  0  0  0  0  0  0  0
   18.5860  -69.1320  -42.0960 H   0  0  0  0  0  0  0  0  0  0  0  0
   13.1390  -67.0680  -43.9080 H   0  0  0  0  0  0  0  0  0  0  0  0
   13.4860  -65.6170  -37.2670 H   0  0  0  0  0  0  0  0  0  0  0  0
   15.8170  -66.2400  -37.6670 H   0  0  0  0  0  0  0  0  0  0  0  0
   17.6460  -68.0200  -48.5410 H   0  0  0  0  0  0  0  0  0  0  0  0
   16.5830  -63.5490  -43.5640 H   0  0  0  0  0  0  0  0  0  0  0  0
   11.7970  -65.6600  -39.1220 H   0  0  0  0  0  0  0  0  0  0  0  0
   17.8450  -65.8500  -49.7100 H   0  0  0  0  0  0  0  0  0  0  0  0
   16.5880  -66.9350  -39.9240 H   0  0  0  0  0  0  0  0  0  0  0  0
   17.5280  -68.1630  -46.0900 H   0  0  0  0  0  0  0  0  0  0  0  0
   17.4600  -61.7760  -45.4510 H   0  0  0  0  0  0  0  0  0  0  0  0
   15.7320  -61.9790  -45.5450 H   0  0  0  0  0  0  0  0  0  0  0  0
   17.7090  -61.5670  -47.6910 H   0  0  0  0  0  0  0  0  0  0  0  0
   16.0240  -61.3220  -47.7600 H   0  0  0  0  0  0  0  0  0  0  0  0
   17.0070  -62.9880  -49.4240 H   0  0  0  0  0  0  0  0  0  0  0  0
   15.5660  -63.5180  -48.6660 H   0  0  0  0  0  0  0  0  0  0  0  0
   15.4910  -67.7050  -44.1140 H   0  0  0  0  0  0  0  0  0  0  0  0
   16.8230  -65.7250  -42.2770 H   0  0  0  0  0  0  0  0  0  0  0  0
  1 18  2  0  0  0  0
  2 19  2  0  0  0  0
  3  6  1  0  0  0  0
  3 20  1  0  0  0  0
  3 29  1  0  0  0  0
  4 18  1  0  0  0  0
  4 19  1  0  0  0  0
  4 30  1  0  0  0  0
  5 10  1  0  0  0  0
  5 15  1  0  0  0  0
  5 22  1  0  0  0  0
  6 23  2  0  0  0  0
  6 31  1  0  0  0  0
  7  8  2  0  0  0  0
  7 11  1  0  0  0  0
  7 32  1  0  0  0  0
  8 13  1  0  0  0  0
  8 33  1  0  0  0  0
  9 12  2  0  0  0  0
  9 14  1  0  0  0  0
  9 34  1  0  0  0  0
 10 26  2  0  0  0  0
 10 35  1  0  0  0  0
 11 20  2  0  0  0  0
 11 36  1  0  0  0  0
 12 21  1  0  0  0  0
 12 37  1  0  0  0  0
 13 24  2  0  0  0  0
 13 38  1  0  0  0  0
 14 25  2  0  0  0  0
 14 39  1  0  0  0  0
 15 16  1  0  0  0  0
 15 40  1  0  0  0  0
 15 41  1  0  0  0  0
 16 17  1  0  0  0  0
 16 42  1  0  0  0  0
 16 43  1  0  0  0  0
 17 21  1  0  0  0  0
 17 44  1  0  0  0  0
 17 45  1  0  0  0  0
 18 27  1  0  0  0  0
 19 28  1  0  0  0  0
 20 24  1  0  0  0  0
 21 22  2  0  0  0  0
 22 25  1  0  0  0  0
 23 24  1  0  0  0  0
 23 27  1  0  0  0  0
 25 26  1  0  0  0  0
 26 28  1  0  0  0  0
 27 28  1  0  0  0  0
 27 46  1  0  0  0  0
 28 47  1  0  0  0  0
M  END
> <pdb_id>
5CB4

> <uniprot_id>
P63043

> <usmiles>
O=C1NC(=O)[C@@H](C=2c3c(NC2)cccc3)[C@@H]1C=4c5c6N(C4)CCCc6ccc5

$$$$
TJM_A_1130
          07192420503D 1   1.00000     0.00000     0
            
 26 27  0  0  0  0            999 V2000
    2.3754   -4.0749   -2.1700 S   0  0  0  0  0  0  0  0  0  0  0  0
   -1.8827   -0.5774    4.0910 O   0  0  0  0  0  0  0  0  0  0  0  0
   -0.2184    0.7699    3.3060 N   0  0  0  0  0  0  0  0  0  0  0  0
   -1.6094   -2.3232    1.9835 N   0  0  0  0  0  0  0  0  0  0  0  0
   -1.2470   -3.1346    0.9821 N   0  0  0  0  0  0  0  0  0  0  0  0
    0.2751   -4.8247   -3.8724 C   0  0  0  0  0  0  0  0  0  0  0  0
    3.0596   -2.9270    0.2911 C   0  0  0  0  0  0  0  0  0  0  0  0
   -0.0903   -3.7085   -1.6080 C   0  0  0  0  0  0  0  0  0  0  0  0
    0.3045   -1.4687    1.3516 C   0  0  0  0  0  0  0  0  0  0  0  0
   -0.9996   -0.3670    3.2855 C   0  0  0  0  0  0  0  0  0  0  0  0
    0.7104   -4.2261   -2.5985 C   0  0  0  0  0  0  0  0  0  0  0  0
    2.0108   -3.3366   -0.6456 C   0  0  0  0  0  0  0  0  0  0  0  0
   -0.7315   -1.3104    2.2513 C   0  0  0  0  0  0  0  0  0  0  0  0
   -0.0779   -2.6155    0.6034 C   0  0  0  0  0  0  0  0  0  0  0  0
    0.6442   -3.2000   -0.5011 C   0  0  0  0  0  0  0  0  0  0  0  0
    0.4975    0.8971    2.6194 H   0  0  0  0  0  0  0  0  0  0  0  0
   -0.3680    1.4669    4.0073 H   0  0  0  0  0  0  0  0  0  0  0  0
   -2.4584   -2.4487    2.4968 H   0  0  0  0  0  0  0  0  0  0  0  0
   -0.7237   -4.8152   -3.9211 H   0  0  0  0  0  0  0  0  0  0  0  0
    0.6510   -4.2972   -4.6342 H   0  0  0  0  0  0  0  0  0  0  0  0
    0.6025   -5.7680   -3.9265 H   0  0  0  0  0  0  0  0  0  0  0  0
    2.6409   -2.5249    1.1054 H   0  0  0  0  0  0  0  0  0  0  0  0
    3.6015   -3.7251    0.5546 H   0  0  0  0  0  0  0  0  0  0  0  0
    3.6526   -2.2514   -0.1470 H   0  0  0  0  0  0  0  0  0  0  0  0
   -1.0888   -3.6912   -1.6604 H   0  0  0  0  0  0  0  0  0  0  0  0
    1.1276   -0.9098    1.2505 H   0  0  0  0  0  0  0  0  0  0  0  0
  1 11  1  0  0  0  0
  1 12  1  0  0  0  0
  2 10  2  0  0  0  0
  3 10  1  0  0  0  0
  4  5  1  0  0  0  0
  4 13  1  0  0  0  0
  5 14  2  0  0  0  0
  6 11  1  0  0  0  0
  7 12  1  0  0  0  0
  8 11  2  0  0  0  0
  8 15  1  0  0  0  0
  9 13  2  0  0  0  0
  9 14  1  0  0  0  0
 10 13  1  0  0  0  0
 12 15  2  0  0  0  0
 14 15  1  0  0  0  0
  3 16  1  0  0  0  0
  3 17  1  0  0  0  0
  4 18  1  0  0  0  0
  6 19  1  0  0  0  0
  6 20  1  0  0  0  0
  6 21  1  0  0  0  0
  7 22  1  0  0  0  0
  7 23  1  0  0  0  0
  7 24  1  0  0  0  0
  8 25  1  0  0  0  0
  9 26  1  0  0  0  0
M  END
> <pdb_id>
4UY1

> <uniprot_id>
O15496

> <usmiles>
S1C(=C(C2=NNC(C(=O)N)=C2)C=C1C)C

$$$$
TKA_A_500
          07202400393D 1   1.00000     0.00000     0
            
 88 93  0  0  0  0            999 V2000
   15.4881    4.9545   18.0216 O   0  0  0  0  0  0  0  0  0  0  0  0
   17.8392    8.4046   19.0183 O   0  0  0  0  0  0  0  0  0  0  0  0
   11.6840   -2.5844   28.7023 O   0  0  0  0  0  0  0  0  0  0  0  0
   12.7142    3.0341   28.1893 C   0  0  0  0  0  0  0  0  0  0  0  0
   15.1303    7.4599   16.9389 C   0  0  0  0  0  0  0  0  0  0  0  0
   13.6536    4.1990   24.7020 C   0  0  0  0  0  0  0  0  0  0  0  0
   13.5514    0.1120   27.8948 C   0  0  0  0  0  0  0  0  0  0  0  0
   13.8763    7.1302   25.8689 C   0  0  0  0  0  0  0  0  0  0  0  0
   14.4541    1.2174   28.0403 C   0  0  0  0  0  0  0  0  0  0  0  0
   12.7473   -0.7412   27.7570 C   0  0  0  0  0  0  0  0  0  0  0  0
   15.3206    7.5042   25.4322 C   0  0  0  0  0  0  0  0  0  0  0  0
   16.1308    7.3767   22.3934 C   0  0  0  0  0  0  0  0  0  0  0  0
   16.2576    6.2829   23.3411 C   0  0  0  0  0  0  0  0  0  0  0  0
   16.1159    2.6970   25.9507 C   0  0  0  0  0  0  0  0  0  0  0  0
   16.7261    3.7736   25.0627 C   0  0  0  0  0  0  0  0  0  0  0  0
   15.5007    6.0604   20.2489 C   0  0  0  0  0  0  0  0  0  0  0  0
   15.7730    8.6544   20.3340 C   0  0  0  0  0  0  0  0  0  0  0  0
    7.3903   -0.7286   28.2474 C   0  0  0  0  0  0  0  0  0  0  0  0
    7.8031   -0.6143   25.6813 C   0  0  0  0  0  0  0  0  0  0  0  0
    8.4285    1.4257   27.1962 C   0  0  0  0  0  0  0  0  0  0  0  0
   13.9034    5.8206   26.7516 C   0  0  0  0  0  0  0  0  0  0  0  0
    9.2606   -2.1590   27.2045 C   0  0  0  0  0  0  0  0  0  0  0  0
    9.8682   -0.1148   28.7222 C   0  0  0  0  0  0  0  0  0  0  0  0
   10.2856   -0.0414   26.1147 C   0  0  0  0  0  0  0  0  0  0  0  0
   16.1149    6.0150   18.8020 C   0  0  2  0  0  0  0  0  0  0  0  0
   16.4042    8.5640   18.9077 C   0  0  2  0  0  0  0  0  0  0  0  0
   13.8144    2.3937   27.2595 C   0  0  2  0  0  0  0  0  0  0  0  0
   11.6895   -1.7098   27.5630 C   0  0  2  0  0  0  0  0  0  0  0  0
   15.8192    7.3203   21.1100 C   0  0  0  0  0  0  0  0  0  0  0  0
    7.8072   -1.5570   26.9686 C   0  0  3  0  0  0  0  0  0  0  0  0
    8.4173    0.4790   28.4824 C   0  0  3  0  0  0  0  0  0  0  0  0
    8.8441    0.5762   25.9006 C   0  0  3  0  0  0  0  0  0  0  0  0
   15.8392    7.3569   18.1025 C   0  0  0  0  0  0  0  0  0  0  0  0
   15.9285    6.3041   24.6410 C   0  0  0  0  0  0  0  0  0  0  0  0
   14.9739    3.3805   26.8168 C   0  0  2  0  0  0  0  0  0  0  0  0
   16.0724    5.0751   25.6094 C   0  0  1  0  0  0  0  0  0  0  0  0
   14.5937    4.6251   25.9558 C   0  0  1  0  0  0  0  0  0  0  0  0
   10.3175   -0.9878   27.4071 C   0  0  3  0  0  0  0  0  0  0  0  0
   15.8864    4.9355   17.1046 H   0  0  0  0  0  0  0  0  0  0  0  0
   18.2396    8.3472   18.1038 H   0  0  0  0  0  0  0  0  0  0  0  0
   10.9605   -3.2664   28.5955 H   0  0  0  0  0  0  0  0  0  0  0  0
   12.2801    3.7993   27.7138 H   0  0  0  0  0  0  0  0  0  0  0  0
   12.0242    2.3455   28.4123 H   0  0  0  0  0  0  0  0  0  0  0  0
   13.1405    3.3638   29.0317 H   0  0  0  0  0  0  0  0  0  0  0  0
   14.9784    8.3569   16.5236 H   0  0  0  0  0  0  0  0  0  0  0  0
   14.7633    6.6384   16.5025 H   0  0  0  0  0  0  0  0  0  0  0  0
   14.0854    3.4487   24.2014 H   0  0  0  0  0  0  0  0  0  0  0  0
   12.7603    3.9033   25.0405 H   0  0  0  0  0  0  0  0  0  0  0  0
   13.5361    4.9826   24.0920 H   0  0  0  0  0  0  0  0  0  0  0  0
   13.3151    6.9710   25.0567 H   0  0  0  0  0  0  0  0  0  0  0  0
   13.4861    7.8811   26.4017 H   0  0  0  0  0  0  0  0  0  0  0  0
   15.3482    0.9895   27.6548 H   0  0  0  0  0  0  0  0  0  0  0  0
   14.5584    1.4566   29.0056 H   0  0  0  0  0  0  0  0  0  0  0  0
   15.8788    7.6921   26.2404 H   0  0  0  0  0  0  0  0  0  0  0  0
   15.2964    8.3153   24.8478 H   0  0  0  0  0  0  0  0  0  0  0  0
   16.3015    8.2915   22.7596 H   0  0  0  0  0  0  0  0  0  0  0  0
   16.6292    5.4246   22.9872 H   0  0  0  0  0  0  0  0  0  0  0  0
   16.8166    2.3133   26.5522 H   0  0  0  0  0  0  0  0  0  0  0  0
   15.7264    1.9693   25.3861 H   0  0  0  0  0  0  0  0  0  0  0  0
   16.4891    3.6265   24.1024 H   0  0  0  0  0  0  0  0  0  0  0  0
   17.7209    3.8008   25.1601 H   0  0  0  0  0  0  0  0  0  0  0  0
   15.8386    5.2612   20.7459 H   0  0  0  0  0  0  0  0  0  0  0  0
   14.5067    6.0003   20.1573 H   0  0  0  0  0  0  0  0  0  0  0  0
   14.8174    8.9340   20.2407 H   0  0  0  0  0  0  0  0  0  0  0  0
   16.2724    9.3439   20.8586 H   0  0  0  0  0  0  0  0  0  0  0  0
    7.3978   -1.3290   29.0470 H   0  0  0  0  0  0  0  0  0  0  0  0
    6.4703   -0.3592   28.1164 H   0  0  0  0  0  0  0  0  0  0  0  0
    6.8870   -0.2370   25.5457 H   0  0  0  0  0  0  0  0  0  0  0  0
    8.0672   -1.1458   24.8765 H   0  0  0  0  0  0  0  0  0  0  0  0
    9.0875    2.1652   27.3339 H   0  0  0  0  0  0  0  0  0  0  0  0
    7.5165    1.8130   27.0609 H   0  0  0  0  0  0  0  0  0  0  0  0
   12.9661    5.5621   26.9857 H   0  0  0  0  0  0  0  0  0  0  0  0
   14.4191    5.9992   27.5895 H   0  0  0  0  0  0  0  0  0  0  0  0
    9.5236   -2.7068   26.4103 H   0  0  0  0  0  0  0  0  0  0  0  0
    9.2494   -2.7379   28.0198 H   0  0  0  0  0  0  0  0  0  0  0  0
    9.8587   -0.7058   29.5288 H   0  0  0  0  0  0  0  0  0  0  0  0
   10.5165    0.6332   28.8647 H   0  0  0  0  0  0  0  0  0  0  0  0
   10.9448    0.7007   26.2362 H   0  0  0  0  0  0  0  0  0  0  0  0
   10.5341   -0.5792   25.3091 H   0  0  0  0  0  0  0  0  0  0  0  0
   17.1009    5.8578   18.8571 H   0  0  0  0  0  0  0  0  0  0  0  0
   16.2074    9.4087   18.4100 H   0  0  0  0  0  0  0  0  0  0  0  0
   13.3707    2.0314   26.4398 H   0  0  0  0  0  0  0  0  0  0  0  0
   11.8774   -2.2431   26.7382 H   0  0  0  0  0  0  0  0  0  0  0  0
    7.1574   -2.3049   26.8328 H   0  0  0  0  0  0  0  0  0  0  0  0
    8.1353    1.0067   29.2836 H   0  0  0  0  0  0  0  0  0  0  0  0
    8.8492    1.1705   25.0964 H   0  0  0  0  0  0  0  0  0  0  0  0
   15.4038    3.7219   27.6526 H   0  0  0  0  0  0  0  0  0  0  0  0
   16.5409    5.3600   26.4457 H   0  0  0  0  0  0  0  0  0  0  0  0
  1 25  1  0  0  0  0
  2 26  1  0  0  0  0
  3 28  1  0  0  0  0
  4 27  1  0  0  0  0
  5 33  2  0  0  0  0
  6 37  1  0  0  0  0
  7  9  1  0  0  0  0
  7 10  3  0  0  0  0
  8 11  1  0  0  0  0
  8 21  1  0  0  0  0
  9 27  1  0  0  0  0
 10 28  1  0  0  0  0
 11 34  1  0  0  0  0
 12 13  1  0  0  0  0
 12 29  2  0  0  0  0
 13 34  2  0  0  0  0
 14 15  1  0  0  0  0
 14 35  1  0  0  0  0
 15 36  1  0  0  0  0
 16 25  1  0  0  0  0
 16 29  1  0  0  0  0
 17 26  1  0  0  0  0
 17 29  1  0  0  0  0
 18 30  1  0  0  0  0
 18 31  1  0  0  0  0
 19 30  1  0  0  0  0
 19 32  1  0  0  0  0
 20 31  1  0  0  0  0
 20 32  1  0  0  0  0
 21 37  1  0  0  0  0
 22 30  1  0  0  0  0
 22 38  1  0  0  0  0
 23 31  1  0  0  0  0
 23 38  1  0  0  0  0
 24 32  1  0  0  0  0
 24 38  1  0  0  0  0
 25 33  1  0  0  0  0
 26 33  1  0  0  0  0
 27 35  1  0  0  0  0
 28 38  1  0  0  0  0
 34 36  1  0  0  0  0
 35 37  1  0  0  0  0
 36 37  1  0  0  0  0
  1 39  1  0  0  0  0
  2 40  1  0  0  0  0
  3 41  1  0  0  0  0
  4 42  1  0  0  0  0
  4 43  1  0  0  0  0
  4 44  1  0  0  0  0
  5 45  1  0  0  0  0
  5 46  1  0  0  0  0
  6 47  1  0  0  0  0
  6 48  1  0  0  0  0
  6 49  1  0  0  0  0
  8 50  1  0  0  0  0
  8 51  1  0  0  0  0
  9 52  1  0  0  0  0
  9 53  1  0  0  0  0
 11 54  1  0  0  0  0
 11 55  1  0  0  0  0
 12 56  1  0  0  0  0
 13 57  1  0  0  0  0
 14 58  1  0  0  0  0
 14 59  1  0  0  0  0
 15 60  1  0  0  0  0
 15 61  1  0  0  0  0
 16 62  1  0  0  0  0
 16 63  1  0  0  0  0
 17 64  1  0  0  0  0
 17 65  1  0  0  0  0
 18 66  1  0  0  0  0
 18 67  1  0  0  0  0
 19 68  1  0  0  0  0
 19 69  1  0  0  0  0
 20 70  1  0  0  0  0
 20 71  1  0  0  0  0
 21 72  1  0  0  0  0
 21 73  1  0  0  0  0
 22 74  1  0  0  0  0
 22 75  1  0  0  0  0
 23 76  1  0  0  0  0
 23 77  1  0  0  0  0
 24 78  1  0  0  0  0
 24 79  1  0  0  0  0
 25 80  1  0  0  0  0
 26 81  1  0  0  0  0
 27 82  1  0  0  0  0
 28 83  1  0  0  0  0
 30 84  1  0  0  0  0
 31 85  1  0  0  0  0
 32 86  1  0  0  0  0
 35 87  1  0  0  0  0
 36 88  1  0  0  0  0
M  END
> <pdb_id>
3VTB

> <uniprot_id>
P13053

> <usmiles>
O[C@H]1C(=C)[C@H](O)CC(=C/C=C\2/[C@H]3[C@@]([C@@H]([C@@H](CC#C[C@@H](O)C45CC6CC(C4)CC(C5)C6)C)CC3)(CCC2)C)C1

$$$$
TLE_B_1421
          07192422543D 1   1.00000     0.00000     0
            
 31 31  0  0  0  0            999 V2000
   -4.8738  -21.4443    8.1745 S   0  0  0  0  0  0  0  0  0  0  0  0
   -3.9433  -23.7902    8.6696 O   0  0  0  0  0  0  0  0  0  0  0  0
   -7.6314  -22.8838    5.7407 O   0  0  0  0  0  0  0  0  0  0  0  0
   -8.8437  -17.5750    9.1908 C   0  0  0  0  0  0  0  0  0  0  0  0
   -6.3704  -26.0472    7.8645 C   0  0  0  0  0  0  0  0  0  0  0  0
   -6.1274  -18.4062    8.2512 C   0  0  0  0  0  0  0  0  0  0  0  0
   -5.5912  -20.6145    5.6185 C   0  0  0  0  0  0  0  0  0  0  0  0
   -8.6580  -18.7062    8.5235 C   0  0  0  0  0  0  0  0  0  0  0  0
   -5.9291  -25.1531    6.6829 C   0  0  0  0  0  0  0  0  0  0  0  0
   -7.3109  -20.4761    7.4329 C   0  0  0  0  0  0  0  0  0  0  0  0
   -4.7904  -23.2100    8.0519 C   0  0  0  0  0  0  0  0  0  0  0  0
   -7.3662  -19.2374    8.0324 C   0  0  0  0  0  0  0  0  0  0  0  0
   -6.5500  -22.7080    6.5387 C   0  0  0  0  0  0  0  0  0  0  0  0
   -5.7767  -23.6997    7.0407 C   0  0  0  0  0  0  0  0  0  0  0  0
   -6.2082  -21.2722    6.8728 C   0  0  2  0  0  0  0  0  0  0  0  0
   -8.1463  -22.0911    5.4146 H   0  0  0  0  0  0  0  0  0  0  0  0
   -9.7640  -17.3088    9.4773 H   0  0  0  0  0  0  0  0  0  0  0  0
   -8.0633  -16.9885    9.4075 H   0  0  0  0  0  0  0  0  0  0  0  0
   -6.4506  -26.9944    7.5540 H   0  0  0  0  0  0  0  0  0  0  0  0
   -5.6907  -25.9926    8.5959 H   0  0  0  0  0  0  0  0  0  0  0  0
   -7.2555  -25.7330    8.2079 H   0  0  0  0  0  0  0  0  0  0  0  0
   -5.3346  -18.8833    7.8720 H   0  0  0  0  0  0  0  0  0  0  0  0
   -6.2340  -17.5225    7.7954 H   0  0  0  0  0  0  0  0  0  0  0  0
   -5.9919  -18.2615    9.2313 H   0  0  0  0  0  0  0  0  0  0  0  0
   -6.2938  -20.5162    4.9138 H   0  0  0  0  0  0  0  0  0  0  0  0
   -5.2308  -19.7130    5.8579 H   0  0  0  0  0  0  0  0  0  0  0  0
   -4.8494  -21.1887    5.2718 H   0  0  0  0  0  0  0  0  0  0  0  0
   -9.4719  -19.2552    8.3331 H   0  0  0  0  0  0  0  0  0  0  0  0
   -6.6140  -25.2286    5.9581 H   0  0  0  0  0  0  0  0  0  0  0  0
   -5.0492  -25.4882    6.3461 H   0  0  0  0  0  0  0  0  0  0  0  0
   -8.2015  -20.9258    7.3647 H   0  0  0  0  0  0  0  0  0  0  0  0
  1 11  1  0  0  0  0
  1 15  1  0  0  0  0
  2 11  2  0  0  0  0
  3 13  1  0  0  0  0
  4  8  2  0  0  0  0
  5  9  1  0  0  0  0
  6 12  1  0  0  0  0
  7 15  1  0  0  0  0
  8 12  1  0  0  0  0
  9 14  1  0  0  0  0
 10 12  2  0  0  0  0
 10 15  1  0  0  0  0
 11 14  1  0  0  0  0
 13 14  2  0  0  0  0
 13 15  1  0  0  0  0
  3 16  1  0  0  0  0
  4 17  1  0  0  0  0
  4 18  1  0  0  0  0
  5 19  1  0  0  0  0
  5 20  1  0  0  0  0
  5 21  1  0  0  0  0
  6 22  1  0  0  0  0
  6 23  1  0  0  0  0
  6 24  1  0  0  0  0
  7 25  1  0  0  0  0
  7 26  1  0  0  0  0
  7 27  1  0  0  0  0
  8 28  1  0  0  0  0
  9 29  1  0  0  0  0
  9 30  1  0  0  0  0
 10 31  1  0  0  0  0
M  END
> <pdb_id>
4C6Z

> <uniprot_id>
I6Y8T4

> <usmiles>
S1C(=O)C(=C(O)[C@]1(/C=C(/C=C)\C)C)CC

$$$$
TLF_A_300
          07202413403D 1   1.00000     0.00000     0
            
 30 31  0  0  0  0            999 V2000
  -13.3182  -36.7081  -29.6875 Cl  0  0  0  0  0  0  0  0  0  0  0  0
  -12.1543  -43.0892  -31.0297 O   0  0  0  0  0  0  0  0  0  0  0  0
  -12.3741  -45.2420  -31.5993 O   0  0  0  0  0  0  0  0  0  0  0  0
  -13.6451  -41.2797  -32.1478 N   0  0  0  0  0  0  0  0  0  0  0  0
  -12.9474  -39.7029  -29.7264 C   0  0  0  0  0  0  0  0  0  0  0  0
  -16.1634  -43.0876  -34.1767 C   0  0  0  0  0  0  0  0  0  0  0  0
  -15.7507  -44.3902  -33.9703 C   0  0  0  0  0  0  0  0  0  0  0  0
  -14.3535  -37.8645  -33.4087 C   0  0  0  0  0  0  0  0  0  0  0  0
  -14.1089  -37.0926  -32.2993 C   0  0  0  0  0  0  0  0  0  0  0  0
  -15.5254  -42.0396  -33.5591 C   0  0  0  0  0  0  0  0  0  0  0  0
  -14.1671  -39.2530  -33.4058 C   0  0  0  0  0  0  0  0  0  0  0  0
  -14.6658  -44.6574  -33.1338 C   0  0  0  0  0  0  0  0  0  0  0  0
  -12.7577  -43.9698  -31.6371 C   0  0  0  0  0  0  0  0  0  0  0  0
  -13.6599  -37.6737  -31.1231 C   0  0  0  0  0  0  0  0  0  0  0  0
  -13.7221  -39.9231  -32.2465 C   0  0  0  0  0  0  0  0  0  0  0  0
  -14.3940  -42.2336  -32.7369 C   0  0  0  0  0  0  0  0  0  0  0  0
  -13.4520  -39.1323  -31.0487 C   0  0  0  0  0  0  0  0  0  0  0  0
  -13.9625  -43.6395  -32.5064 C   0  0  0  0  0  0  0  0  0  0  0  0
  -12.4696  -42.1415  -31.0794 H   0  0  0  0  0  0  0  0  0  0  0  0
  -12.9225  -41.6202  -31.5462 H   0  0  0  0  0  0  0  0  0  0  0  0
  -12.8490  -40.6948  -29.8073 H   0  0  0  0  0  0  0  0  0  0  0  0
  -12.0608  -39.2970  -29.5049 H   0  0  0  0  0  0  0  0  0  0  0  0
  -13.6018  -39.4909  -29.0006 H   0  0  0  0  0  0  0  0  0  0  0  0
  -16.9368  -42.9056  -34.7839 H   0  0  0  0  0  0  0  0  0  0  0  0
  -16.2304  -45.1429  -34.4211 H   0  0  0  0  0  0  0  0  0  0  0  0
  -14.6750  -37.4211  -34.2454 H   0  0  0  0  0  0  0  0  0  0  0  0
  -14.2557  -36.1043  -32.3402 H   0  0  0  0  0  0  0  0  0  0  0  0
  -15.8725  -41.1118  -33.6958 H   0  0  0  0  0  0  0  0  0  0  0  0
  -14.3522  -39.7768  -34.2373 H   0  0  0  0  0  0  0  0  0  0  0  0
  -14.3885  -45.6063  -32.9830 H   0  0  0  0  0  0  0  0  0  0  0  0
  1 14  1  0  0  0  0
  2 13  1  0  0  0  0
  3 13  2  0  0  0  0
  4 15  1  0  0  0  0
  4 16  1  0  0  0  0
  5 17  1  0  0  0  0
  6  7  2  0  0  0  0
  6 10  1  0  0  0  0
  7 12  1  0  0  0  0
  8  9  2  0  0  0  0
  8 11  1  0  0  0  0
  9 14  1  0  0  0  0
 10 16  2  0  0  0  0
 11 15  2  0  0  0  0
 12 18  2  0  0  0  0
 13 18  1  0  0  0  0
 14 17  2  0  0  0  0
 15 17  1  0  0  0  0
 16 18  1  0  0  0  0
  2 19  1  0  0  0  0
  4 20  1  0  0  0  0
  5 21  1  0  0  0  0
  5 22  1  0  0  0  0
  5 23  1  0  0  0  0
  6 24  1  0  0  0  0
  7 25  1  0  0  0  0
  8 26  1  0  0  0  0
  9 27  1  0  0  0  0
 10 28  1  0  0  0  0
 11 29  1  0  0  0  0
 12 30  1  0  0  0  0
M  END
> <pdb_id>
6AP6

> <uniprot_id>
J9U5U9

> <usmiles>
Clc1c(c(Nc2c(cccc2)C(=O)O)ccc1)C

$$$$
TLG_A_1429
          07192422543D 1   1.00000     0.00000     0
            
 30 30  0  0  0  0            999 V2000
   -4.8463  -21.2226    8.2451 S   0  0  0  0  0  0  0  0  0  0  0  0
   -4.1042  -23.6286    8.6551 O   0  0  0  0  0  0  0  0  0  0  0  0
   -5.3754  -25.6240    7.1061 O   0  0  0  0  0  0  0  0  0  0  0  0
   -7.5922  -22.3699    5.7471 O   0  0  0  0  0  0  0  0  0  0  0  0
   -8.6583  -17.2280    9.1368 C   0  0  0  0  0  0  0  0  0  0  0  0
   -7.4464  -25.2051    6.1187 C   0  0  0  0  0  0  0  0  0  0  0  0
   -5.9691  -18.1926    8.4236 C   0  0  0  0  0  0  0  0  0  0  0  0
   -5.3301  -20.3035    5.7188 C   0  0  0  0  0  0  0  0  0  0  0  0
   -8.5004  -18.4201    8.5318 C   0  0  0  0  0  0  0  0  0  0  0  0
   -7.2107  -20.1185    7.4237 C   0  0  0  0  0  0  0  0  0  0  0  0
   -4.8872  -23.0116    8.0317 C   0  0  0  0  0  0  0  0  0  0  0  0
   -6.1791  -24.7646    6.7933 C   0  0  0  0  0  0  0  0  0  0  0  0
   -7.2170  -18.9688    8.0685 C   0  0  0  0  0  0  0  0  0  0  0  0
   -6.5168  -22.3447    6.5222 C   0  0  0  0  0  0  0  0  0  0  0  0
   -5.8890  -23.4063    7.0823 C   0  0  0  0  0  0  0  0  0  0  0  0
   -6.0948  -20.9288    6.8948 C   0  0  2  0  0  0  0  0  0  0  0  0
   -7.9701  -21.5164    5.3885 H   0  0  0  0  0  0  0  0  0  0  0  0
   -9.5689  -16.9286    9.4217 H   0  0  0  0  0  0  0  0  0  0  0  0
   -7.8650  -16.6418    9.3014 H   0  0  0  0  0  0  0  0  0  0  0  0
   -8.0125  -24.4055    5.9181 H   0  0  0  0  0  0  0  0  0  0  0  0
   -7.2232  -25.6779    5.2663 H   0  0  0  0  0  0  0  0  0  0  0  0
   -7.9473  -25.8251    6.7226 H   0  0  0  0  0  0  0  0  0  0  0  0
   -5.1675  -18.6636    8.0554 H   0  0  0  0  0  0  0  0  0  0  0  0
   -6.0251  -17.2741    8.0322 H   0  0  0  0  0  0  0  0  0  0  0  0
   -5.8893  -18.1268    9.4183 H   0  0  0  0  0  0  0  0  0  0  0  0
   -5.9636  -20.1270    4.9654 H   0  0  0  0  0  0  0  0  0  0  0  0
   -4.9130  -19.4433    6.0121 H   0  0  0  0  0  0  0  0  0  0  0  0
   -4.6159  -20.9331    5.4132 H   0  0  0  0  0  0  0  0  0  0  0  0
   -9.3191  -18.9755    8.3861 H   0  0  0  0  0  0  0  0  0  0  0  0
   -8.1175  -20.5093    7.2653 H   0  0  0  0  0  0  0  0  0  0  0  0
  1 11  1  0  0  0  0
  1 16  1  0  0  0  0
  2 11  2  0  0  0  0
  3 12  2  0  0  0  0
  4 14  1  0  0  0  0
  5  9  2  0  0  0  0
  6 12  1  0  0  0  0
  7 13  1  0  0  0  0
  8 16  1  0  0  0  0
  9 13  1  0  0  0  0
 10 13  2  0  0  0  0
 10 16  1  0  0  0  0
 11 15  1  0  0  0  0
 12 15  1  0  0  0  0
 14 15  2  0  0  0  0
 14 16  1  0  0  0  0
  4 17  1  0  0  0  0
  5 18  1  0  0  0  0
  5 19  1  0  0  0  0
  6 20  1  0  0  0  0
  6 21  1  0  0  0  0
  6 22  1  0  0  0  0
  7 23  1  0  0  0  0
  7 24  1  0  0  0  0
  7 25  1  0  0  0  0
  8 26  1  0  0  0  0
  8 27  1  0  0  0  0
  8 28  1  0  0  0  0
  9 29  1  0  0  0  0
 10 30  1  0  0  0  0
M  END
> <pdb_id>
4C72

> <uniprot_id>
I6Y8T4

> <usmiles>
S1C(=O)C(C(=O)C)=C(O)[C@]1(/C=C(/C=C)\C)C

$$$$
TLH_A_1427
          07192422543D 1   1.00000     0.00000     0
            
 30 30  0  0  0  0            999 V2000
   -4.8250  -21.1130    8.3560 S   0  0  0  0  0  0  0  0  0  0  0  0
   -6.5690  -26.2630    5.3210 F   0  0  0  0  0  0  0  0  0  0  0  0
   -8.1810  -25.0220    5.9280 F   0  0  0  0  0  0  0  0  0  0  0  0
   -6.5270  -24.2860    4.6670 F   0  0  0  0  0  0  0  0  0  0  0  0
   -4.0780  -23.6410    8.6840 O   0  0  0  0  0  0  0  0  0  0  0  0
   -5.7760  -25.5120    7.7210 O   0  0  0  0  0  0  0  0  0  0  0  0
   -7.5720  -22.1940    5.8700 O   0  0  0  0  0  0  0  0  0  0  0  0
   -8.6840  -17.0880    9.1410 C   0  0  0  0  0  0  0  0  0  0  0  0
   -6.0160  -18.1350    8.5980 C   0  0  0  0  0  0  0  0  0  0  0  0
   -5.3580  -20.1950    5.8200 C   0  0  0  0  0  0  0  0  0  0  0  0
   -8.5610  -18.2730    8.5540 C   0  0  0  0  0  0  0  0  0  0  0  0
   -7.2480  -19.9990    7.5130 C   0  0  0  0  0  0  0  0  0  0  0  0
   -4.8560  -22.9030    8.1420 C   0  0  0  0  0  0  0  0  0  0  0  0
   -7.2810  -18.8590    8.1860 C   0  0  0  0  0  0  0  0  0  0  0  0
   -6.0570  -24.6260    6.9440 C   0  0  0  0  0  0  0  0  0  0  0  0
   -6.5010  -22.1780    6.6430 C   0  0  0  0  0  0  0  0  0  0  0  0
   -5.8490  -23.2330    7.1790 C   0  0  0  0  0  0  0  0  0  0  0  0
   -6.8570  -25.0490    5.6950 C   0  0  0  0  0  0  0  0  0  0  0  0
   -6.0710  -20.7710    7.0160 C   0  0  2  0  0  0  0  0  0  0  0  0
   -7.9607  -21.3352    5.5363 H   0  0  0  0  0  0  0  0  0  0  0  0
   -9.5912  -16.7357    9.3710 H   0  0  0  0  0  0  0  0  0  0  0  0
   -7.8694  -16.5481    9.3530 H   0  0  0  0  0  0  0  0  0  0  0  0
   -5.2192  -18.6489    8.2801 H   0  0  0  0  0  0  0  0  0  0  0  0
   -6.0073  -17.2214    8.1914 H   0  0  0  0  0  0  0  0  0  0  0  0
   -5.9863  -18.0566    9.5945 H   0  0  0  0  0  0  0  0  0  0  0  0
   -6.0208  -20.0082    5.0949 H   0  0  0  0  0  0  0  0  0  0  0  0
   -4.9017  -19.3445    6.0817 H   0  0  0  0  0  0  0  0  0  0  0  0
   -4.6783  -20.8500    5.4898 H   0  0  0  0  0  0  0  0  0  0  0  0
   -9.3930  -18.7905    8.3541 H   0  0  0  0  0  0  0  0  0  0  0  0
   -8.1405  -20.4008    7.3081 H   0  0  0  0  0  0  0  0  0  0  0  0
  1 13  1  0  0  0  0
  1 19  1  0  0  0  0
  2 18  1  0  0  0  0
  3 18  1  0  0  0  0
  4 18  1  0  0  0  0
  5 13  2  0  0  0  0
  6 15  2  0  0  0  0
  7 16  1  0  0  0  0
  8 11  2  0  0  0  0
  9 14  1  0  0  0  0
 10 19  1  0  0  0  0
 11 14  1  0  0  0  0
 12 14  2  0  0  0  0
 12 19  1  0  0  0  0
 13 17  1  0  0  0  0
 15 17  1  0  0  0  0
 15 18  1  0  0  0  0
 16 17  2  0  0  0  0
 16 19  1  0  0  0  0
  7 20  1  0  0  0  0
  8 21  1  0  0  0  0
  8 22  1  0  0  0  0
  9 23  1  0  0  0  0
  9 24  1  0  0  0  0
  9 25  1  0  0  0  0
 10 26  1  0  0  0  0
 10 27  1  0  0  0  0
 10 28  1  0  0  0  0
 11 29  1  0  0  0  0
 12 30  1  0  0  0  0
M  END
> <pdb_id>
4C73

> <uniprot_id>
I6Y8T4

> <usmiles>
S1C(=O)C(C(=O)C(F)(F)F)=C(O)[C@]1(/C=C(/C=C)\C)C

$$$$
TLJ_A_1423
          07192422543D 1   1.00000     0.00000     0
            
 34 34  0  0  0  0            999 V2000
   -5.0639  -21.5418    8.4287 S   0  0  0  0  0  0  0  0  0  0  0  0
   -3.9730  -23.9002    8.3954 O   0  0  0  0  0  0  0  0  0  0  0  0
   -7.6081  -22.6538    5.5518 O   0  0  0  0  0  0  0  0  0  0  0  0
   -6.2554  -26.6707    8.2934 C   0  0  0  0  0  0  0  0  0  0  0  0
   -8.9014  -17.4845    9.3177 C   0  0  0  0  0  0  0  0  0  0  0  0
   -6.0240  -18.5852    8.3241 C   0  0  0  0  0  0  0  0  0  0  0  0
   -5.3454  -20.4657    5.8325 C   0  0  0  0  0  0  0  0  0  0  0  0
   -6.8547  -25.9686    7.0505 C   0  0  0  0  0  0  0  0  0  0  0  0
   -8.6228  -18.5526    8.5668 C   0  0  0  0  0  0  0  0  0  0  0  0
   -5.8740  -25.0201    6.1853 C   0  0  0  0  0  0  0  0  0  0  0  0
   -7.3726  -20.3600    7.3668 C   0  0  0  0  0  0  0  0  0  0  0  0
   -4.8843  -23.2919    7.9249 C   0  0  0  0  0  0  0  0  0  0  0  0
   -7.3689  -19.2000    8.0454 C   0  0  0  0  0  0  0  0  0  0  0  0
   -6.5406  -22.5795    6.3932 C   0  0  0  0  0  0  0  0  0  0  0  0
   -5.7647  -23.6347    6.7671 C   0  0  0  0  0  0  0  0  0  0  0  0
   -6.1852  -21.1709    6.9349 C   0  0  2  0  0  0  0  0  0  0  0  0
   -8.1265  -21.8285    5.3277 H   0  0  0  0  0  0  0  0  0  0  0  0
   -6.9611  -27.2234    8.7366 H   0  0  0  0  0  0  0  0  0  0  0  0
   -5.4988  -27.2602    8.0108 H   0  0  0  0  0  0  0  0  0  0  0  0
   -5.9193  -25.9818    8.9357 H   0  0  0  0  0  0  0  0  0  0  0  0
   -9.8516  -17.2578    9.5316 H   0  0  0  0  0  0  0  0  0  0  0  0
   -8.1599  -16.9112    9.6663 H   0  0  0  0  0  0  0  0  0  0  0  0
   -5.3086  -19.1443    7.9051 H   0  0  0  0  0  0  0  0  0  0  0  0
   -5.9934  -17.6623    7.9404 H   0  0  0  0  0  0  0  0  0  0  0  0
   -5.8763  -18.5404    9.3121 H   0  0  0  0  0  0  0  0  0  0  0  0
   -5.9286  -20.2679    5.0446 H   0  0  0  0  0  0  0  0  0  0  0  0
   -4.9718  -19.6113    6.1936 H   0  0  0  0  0  0  0  0  0  0  0  0
   -4.5958  -21.0644    5.5505 H   0  0  0  0  0  0  0  0  0  0  0  0
   -7.6178  -25.4037    7.3643 H   0  0  0  0  0  0  0  0  0  0  0  0
   -7.1973  -26.6821    6.4394 H   0  0  0  0  0  0  0  0  0  0  0  0
   -9.4478  -19.0408    8.2818 H   0  0  0  0  0  0  0  0  0  0  0  0
   -6.2316  -24.9511    5.2540 H   0  0  0  0  0  0  0  0  0  0  0  0
   -4.9635  -25.4330    6.1631 H   0  0  0  0  0  0  0  0  0  0  0  0
   -8.2704  -20.7255    7.1211 H   0  0  0  0  0  0  0  0  0  0  0  0
  1 12  1  0  0  0  0
  1 16  1  0  0  0  0
  2 12  2  0  0  0  0
  3 14  1  0  0  0  0
  4  8  1  0  0  0  0
  5  9  2  0  0  0  0
  6 13  1  0  0  0  0
  7 16  1  0  0  0  0
  8 10  1  0  0  0  0
  9 13  1  0  0  0  0
 10 15  1  0  0  0  0
 11 13  2  0  0  0  0
 11 16  1  0  0  0  0
 12 15  1  0  0  0  0
 14 15  2  0  0  0  0
 14 16  1  0  0  0  0
  3 17  1  0  0  0  0
  4 18  1  0  0  0  0
  4 19  1  0  0  0  0
  4 20  1  0  0  0  0
  5 21  1  0  0  0  0
  5 22  1  0  0  0  0
  6 23  1  0  0  0  0
  6 24  1  0  0  0  0
  6 25  1  0  0  0  0
  7 26  1  0  0  0  0
  7 27  1  0  0  0  0
  7 28  1  0  0  0  0
  8 29  1  0  0  0  0
  8 30  1  0  0  0  0
  9 31  1  0  0  0  0
 10 32  1  0  0  0  0
 10 33  1  0  0  0  0
 11 34  1  0  0  0  0
M  END
> <pdb_id>
4C70

> <uniprot_id>
I6Y8T4

> <usmiles>
S1C(=O)C(=C(O)[C@]1(/C=C(/C=C)\C)C)CCC

$$$$
TLM_A_1419
          07192422543D 1   1.00000     0.00000     0
            
 28 28  0  0  0  0            999 V2000
   -4.8597  -21.3951    8.1384 S   0  0  0  0  0  0  0  0  0  0  0  0
   -4.0963  -23.9615    8.5216 O   0  0  0  0  0  0  0  0  0  0  0  0
   -7.6015  -22.7197    5.6723 O   0  0  0  0  0  0  0  0  0  0  0  0
   -8.6677  -17.4221    9.0604 C   0  0  0  0  0  0  0  0  0  0  0  0
   -6.0540  -18.4421    8.3012 C   0  0  0  0  0  0  0  0  0  0  0  0
   -6.1183  -25.0400    6.6802 C   0  0  0  0  0  0  0  0  0  0  0  0
   -5.4404  -20.5518    5.6266 C   0  0  0  0  0  0  0  0  0  0  0  0
   -8.5858  -18.6429    8.5510 C   0  0  0  0  0  0  0  0  0  0  0  0
   -7.3112  -20.3574    7.3259 C   0  0  0  0  0  0  0  0  0  0  0  0
   -4.8617  -23.2074    7.9646 C   0  0  0  0  0  0  0  0  0  0  0  0
   -7.3283  -19.1815    7.9944 C   0  0  0  0  0  0  0  0  0  0  0  0
   -6.5553  -22.5752    6.4746 C   0  0  0  0  0  0  0  0  0  0  0  0
   -5.8664  -23.5952    6.9978 C   0  0  0  0  0  0  0  0  0  0  0  0
   -6.1653  -21.1317    6.8263 C   0  0  2  0  0  0  0  0  0  0  0  0
   -8.0727  -21.9133    5.3150 H   0  0  0  0  0  0  0  0  0  0  0  0
   -9.5365  -17.0911    9.4286 H   0  0  0  0  0  0  0  0  0  0  0  0
   -7.8605  -16.8319    9.0766 H   0  0  0  0  0  0  0  0  0  0  0  0
   -5.2843  -18.9100    7.8669 H   0  0  0  0  0  0  0  0  0  0  0  0
   -6.1177  -17.5081    7.9497 H   0  0  0  0  0  0  0  0  0  0  0  0
   -5.9133  -18.4170    9.2909 H   0  0  0  0  0  0  0  0  0  0  0  0
   -6.8429  -25.1091    5.9945 H   0  0  0  0  0  0  0  0  0  0  0  0
   -5.2809  -25.4537    6.3231 H   0  0  0  0  0  0  0  0  0  0  0  0
   -6.3990  -25.5199    7.5114 H   0  0  0  0  0  0  0  0  0  0  0  0
   -6.0948  -20.3894    4.8882 H   0  0  0  0  0  0  0  0  0  0  0  0
   -5.0073  -19.6881    5.8843 H   0  0  0  0  0  0  0  0  0  0  0  0
   -4.7410  -21.1958    5.3165 H   0  0  0  0  0  0  0  0  0  0  0  0
   -9.4033  -19.2188    8.5433 H   0  0  0  0  0  0  0  0  0  0  0  0
   -8.2091  -20.7587    7.1449 H   0  0  0  0  0  0  0  0  0  0  0  0
  1 10  1  0  0  0  0
  1 14  1  0  0  0  0
  2 10  2  0  0  0  0
  3 12  1  0  0  0  0
  4  8  2  0  0  0  0
  5 11  1  0  0  0  0
  6 13  1  0  0  0  0
  7 14  1  0  0  0  0
  8 11  1  0  0  0  0
  9 11  2  0  0  0  0
  9 14  1  0  0  0  0
 10 13  1  0  0  0  0
 12 13  2  0  0  0  0
 12 14  1  0  0  0  0
  3 15  1  0  0  0  0
  4 16  1  0  0  0  0
  4 17  1  0  0  0  0
  5 18  1  0  0  0  0
  5 19  1  0  0  0  0
  5 20  1  0  0  0  0
  6 21  1  0  0  0  0
  6 22  1  0  0  0  0
  6 23  1  0  0  0  0
  7 24  1  0  0  0  0
  7 25  1  0  0  0  0
  7 26  1  0  0  0  0
  8 27  1  0  0  0  0
  9 28  1  0  0  0  0
M  END
> <pdb_id>
4C6X

> <uniprot_id>
I6Y8T4

> <usmiles>
S1C(=O)C(=C(O)[C@]1(/C=C(/C=C)\C)C)C

$$$$
TMG_A_501
          07192422123D 1   1.00000     0.00000     0
            
 21 23  0  0  0  0            999 V2000
    5.7387    3.5689   -0.7666 S   0  0  0  0  0  0  0  0  0  0  0  0
    7.7882    2.3837    0.1297 N   0  0  0  0  0  0  0  0  0  0  0  0
    9.6936    0.6702   -0.9890 N   0  0  0  0  0  0  0  0  0  0  0  0
    8.8290    0.5787   -3.0143 N   0  0  0  0  0  0  0  0  0  0  0  0
    6.9259    3.2179    0.5135 C   0  0  0  0  0  0  0  0  0  0  0  0
    6.6907    2.5150   -1.8705 C   0  0  0  0  0  0  0  0  0  0  0  0
   12.2542   -1.6361   -2.2170 C   0  0  0  0  0  0  0  0  0  0  0  0
   11.7227   -1.6971   -3.5163 C   0  0  0  0  0  0  0  0  0  0  0  0
   11.6448   -0.8567   -1.2298 C   0  0  0  0  0  0  0  0  0  0  0  0
   10.6054   -0.9599   -3.9268 C   0  0  0  0  0  0  0  0  0  0  0  0
    8.6891    0.9796   -1.7338 C   0  0  0  0  0  0  0  0  0  0  0  0
    7.7629    2.0088   -1.2616 C   0  0  0  0  0  0  0  0  0  0  0  0
   10.5076   -0.1753   -1.6432 C   0  0  0  0  0  0  0  0  0  0  0  0
    9.9455   -0.2857   -2.9061 C   0  0  0  0  0  0  0  0  0  0  0  0
    9.8453    1.0093   -0.0606 H   0  0  0  0  0  0  0  0  0  0  0  0
    6.9100    3.6317    1.4238 H   0  0  0  0  0  0  0  0  0  0  0  0
    6.4460    2.3318   -2.8227 H   0  0  0  0  0  0  0  0  0  0  0  0
   13.0787   -2.1569   -1.9959 H   0  0  0  0  0  0  0  0  0  0  0  0
   12.1652   -2.2979   -4.1821 H   0  0  0  0  0  0  0  0  0  0  0  0
   12.0005   -0.7945   -0.2972 H   0  0  0  0  0  0  0  0  0  0  0  0
   10.3055   -0.9215   -4.8799 H   0  0  0  0  0  0  0  0  0  0  0  0
  1  5  1  0  0  0  0
  1  6  1  0  0  0  0
  2  5  2  0  0  0  0
  2 12  1  0  0  0  0
  3 11  1  0  0  0  0
  3 13  1  0  0  0  0
  4 11  2  0  0  0  0
  4 14  1  0  0  0  0
  6 12  2  0  0  0  0
  7  8  2  0  0  0  0
  7  9  1  0  0  0  0
  8 10  1  0  0  0  0
  9 13  2  0  0  0  0
 10 14  2  0  0  0  0
 11 12  1  0  0  0  0
 13 14  1  0  0  0  0
  3 15  1  0  0  0  0
  5 16  1  0  0  0  0
  6 17  1  0  0  0  0
  7 18  1  0  0  0  0
  8 19  1  0  0  0  0
  9 20  1  0  0  0  0
 10 21  1  0  0  0  0
M  END
> <pdb_id>
1YVM

> <uniprot_id>
P07906

> <usmiles>
S1C=NC(C2=Nc3c(N2)cccc3)=C1

$$$$
TNW_A_401
          07212404143D 1   1.00000     0.00000     0
            
 38 40  0  0  0  0            999 V2000
   -6.5461    4.3177  -41.0738 Cl  0  0  0  0  0  0  0  0  0  0  0  0
    0.5654    4.5458  -42.9539 O   0  0  0  0  0  0  0  0  0  0  0  0
   -0.8365    5.5873  -44.4025 N   0  0  0  0  0  0  0  0  0  0  0  0
   -2.2478    6.4002  -45.9868 N   0  0  0  0  0  0  0  0  0  0  0  0
   -1.6548    4.2796  -42.5951 N   0  0  0  0  0  0  0  0  0  0  0  0
   -3.5139    6.4533  -46.7251 C   0  0  0  0  0  0  0  0  0  0  0  0
   -1.0761    6.7169  -46.7883 C   0  0  0  0  0  0  0  0  0  0  0  0
   -1.3415   -0.5000  -41.6228 C   0  0  0  0  0  0  0  0  0  0  0  0
   -0.8482    2.5594  -39.3855 C   0  0  0  0  0  0  0  0  0  0  0  0
   -1.0834    3.6048  -40.2770 C   0  0  0  0  0  0  0  0  0  0  0  0
   -5.5313    5.7553  -43.1180 C   0  0  0  0  0  0  0  0  0  0  0  0
   -0.9339    1.2398  -39.8245 C   0  0  0  0  0  0  0  0  0  0  0  0
   -4.5118    6.1649  -43.9554 C   0  0  0  0  0  0  0  0  0  0  0  0
   -3.9912    4.3329  -41.9272 C   0  0  0  0  0  0  0  0  0  0  0  0
   -1.4712    1.9697  -42.0243 C   0  0  0  0  0  0  0  0  0  0  0  0
   -0.5769    4.8410  -43.2941 C   0  0  0  0  0  0  0  0  0  0  0  0
   -5.2562    4.8492  -42.1142 C   0  0  0  0  0  0  0  0  0  0  0  0
   -2.0865    5.9749  -44.6441 C   0  0  0  0  0  0  0  0  0  0  0  0
   -1.3873    3.2882  -41.5983 C   0  0  0  0  0  0  0  0  0  0  0  0
   -2.9607    4.7458  -42.7665 C   0  0  0  0  0  0  0  0  0  0  0  0
   -1.2400    0.9281  -41.1478 C   0  0  0  0  0  0  0  0  0  0  0  0
   -3.2244    5.6522  -43.8042 C   0  0  0  0  0  0  0  0  0  0  0  0
   -4.2684    6.2249  -46.1098 H   0  0  0  0  0  0  0  0  0  0  0  0
   -3.6485    7.3745  -47.0901 H   0  0  0  0  0  0  0  0  0  0  0  0
   -3.4880    5.7966  -47.4788 H   0  0  0  0  0  0  0  0  0  0  0  0
   -0.2567    6.6598  -46.2179 H   0  0  0  0  0  0  0  0  0  0  0  0
   -1.0027    6.0654  -47.5434 H   0  0  0  0  0  0  0  0  0  0  0  0
   -1.1633    7.6433  -47.1546 H   0  0  0  0  0  0  0  0  0  0  0  0
   -1.5681   -0.5120  -42.5967 H   0  0  0  0  0  0  0  0  0  0  0  0
   -0.4666   -0.9623  -41.4784 H   0  0  0  0  0  0  0  0  0  0  0  0
   -2.0570   -0.9724  -41.1082 H   0  0  0  0  0  0  0  0  0  0  0  0
   -0.6183    2.7561  -38.4324 H   0  0  0  0  0  0  0  0  0  0  0  0
   -1.0350    4.5571  -39.9756 H   0  0  0  0  0  0  0  0  0  0  0  0
   -6.4581    6.1114  -43.2378 H   0  0  0  0  0  0  0  0  0  0  0  0
   -0.7719    0.4980  -39.1738 H   0  0  0  0  0  0  0  0  0  0  0  0
   -4.6986    6.8338  -44.6750 H   0  0  0  0  0  0  0  0  0  0  0  0
   -3.8167    3.6708  -41.1984 H   0  0  0  0  0  0  0  0  0  0  0  0
   -1.7019    1.7719  -42.9770 H   0  0  0  0  0  0  0  0  0  0  0  0
  1 17  1  0  0  0  0
  2 16  2  0  0  0  0
  3 16  1  0  0  0  0
  3 18  2  0  0  0  0
  4  6  1  0  0  0  0
  4  7  1  0  0  0  0
  4 18  1  0  0  0  0
  5 16  1  0  0  0  0
  5 19  1  0  0  0  0
  5 20  1  0  0  0  0
  8 21  1  0  0  0  0
  9 10  2  0  0  0  0
  9 12  1  0  0  0  0
 10 19  1  0  0  0  0
 11 13  1  0  0  0  0
 11 17  2  0  0  0  0
 12 21  2  0  0  0  0
 13 22  2  0  0  0  0
 14 17  1  0  0  0  0
 14 20  2  0  0  0  0
 15 19  2  0  0  0  0
 15 21  1  0  0  0  0
 18 22  1  0  0  0  0
 20 22  1  0  0  0  0
  6 23  1  0  0  0  0
  6 24  1  0  0  0  0
  6 25  1  0  0  0  0
  7 26  1  0  0  0  0
  7 27  1  0  0  0  0
  7 28  1  0  0  0  0
  8 29  1  0  0  0  0
  8 30  1  0  0  0  0
  8 31  1  0  0  0  0
  9 32  1  0  0  0  0
 10 33  1  0  0  0  0
 11 34  1  0  0  0  0
 12 35  1  0  0  0  0
 13 36  1  0  0  0  0
 14 37  1  0  0  0  0
 15 38  1  0  0  0  0
M  END
> <pdb_id>
7BHW

> <uniprot_id>
P31153

> <usmiles>
Clc1cc2N(c3cc(ccc3)C)C(=O)N=C(N(C)C)c2cc1

$$$$
TNX_A_601
          07202409593D 1   1.00000     0.00000     0
            
 27 27  0  0  0  0            999 V2000
   -5.3840   64.1840    9.0010 S   0  0  0  0  0  0  0  0  0  0  0  0
   -1.5660   66.2670   10.9470 O   0  0  0  0  0  0  0  0  0  0  0  0
   -6.0540   68.6280    7.5370 O   0  0  0  0  0  0  0  0  0  0  0  0
   -3.0930   68.4710    7.9570 O   0  0  0  0  0  0  0  0  0  0  0  0
   -4.5070   66.2840   10.5760 O   0  0  0  0  0  0  0  0  0  0  0  0
   -7.1910   65.9040    8.4900 N   0  0  0  0  0  0  0  0  0  0  0  0
   -7.5580   63.7200    7.3410 C   0  0  0  0  0  0  0  0  0  0  0  0
   -5.7930   66.6320   10.2830 C   0  0  0  0  0  0  0  0  0  0  0  0
   -2.3790   67.3510   10.5870 C   0  0  0  0  0  0  0  0  0  0  0  0
   -6.8040   64.6540    8.2640 C   0  0  0  0  0  0  0  0  0  0  0  0
   -6.1470   66.7350    9.0200 C   0  0  0  0  0  0  0  0  0  0  0  0
   -5.2980   67.5750    8.0570 C   0  0  2  0  0  0  0  0  0  0  0  0
   -4.0550   68.0300    8.8600 C   0  0  1  0  0  0  0  0  0  0  0  0
   -3.5130   66.8540    9.7030 C   0  0  2  0  0  0  0  0  0  0  0  0
   -0.8010   66.3550   10.5870 H   0  0  0  0  0  0  0  0  0  0  0  0
   -6.6710   68.3160    7.0430 H   0  0  0  0  0  0  0  0  0  0  0  0
   -3.0660   69.3210    7.9640 H   0  0  0  0  0  0  0  0  0  0  0  0
   -7.9910   66.1780    8.3300 H   0  0  0  0  0  0  0  0  0  0  0  0
   -8.0220   64.2390    6.6650 H   0  0  0  0  0  0  0  0  0  0  0  0
   -8.2020   63.2090    7.8540 H   0  0  0  0  0  0  0  0  0  0  0  0
   -6.9330   63.1150    6.9120 H   0  0  0  0  0  0  0  0  0  0  0  0
   -6.4100   66.7930   10.9600 H   0  0  0  0  0  0  0  0  0  0  0  0
   -2.7460   67.7600   11.3860 H   0  0  0  0  0  0  0  0  0  0  0  0
   -1.8510   68.0040   10.1000 H   0  0  0  0  0  0  0  0  0  0  0  0
   -5.1150   67.0870    7.2390 H   0  0  0  0  0  0  0  0  0  0  0  0
   -4.3020   68.7600    9.4490 H   0  0  0  0  0  0  0  0  0  0  0  0
   -3.1770   66.1650    9.1090 H   0  0  0  0  0  0  0  0  0  0  0  0
  1 10  2  0  0  0  0
  2  9  1  0  0  0  0
  2 15  1  0  0  0  0
  3 12  1  0  0  0  0
  3 16  1  0  0  0  0
  4 13  1  0  0  0  0
  4 17  1  0  0  0  0
  5  8  1  0  0  0  0
  5 14  1  0  0  0  0
  6 10  1  0  0  0  0
  6 11  1  0  0  0  0
  6 18  1  0  0  0  0
  7 10  1  0  0  0  0
  7 19  1  0  0  0  0
  7 20  1  0  0  0  0
  7 21  1  0  0  0  0
  8 11  2  0  0  0  0
  8 22  1  0  0  0  0
  9 14  1  0  0  0  0
  9 23  1  0  0  0  0
  9 24  1  0  0  0  0
 11 12  1  0  0  0  0
 12 13  1  0  0  0  0
 12 25  1  0  0  0  0
 13 14  1  0  0  0  0
 13 26  1  0  0  0  0
 14 27  1  0  0  0  0
M  END
> <pdb_id>
5FCZ

> <uniprot_id>
O85361

> <usmiles>
S=C(NC1=CO[C@@H]([C@@H](O)[C@@H]1O)CO)C

$$$$
TO8_A_402
          07212404143D 1   1.00000     0.00000     0
            
 25 26  0  0  0  0            999 V2000
   -6.3366    4.1935  -40.7619 Cl  0  0  0  0  0  0  0  0  0  0  0  0
    0.6767    4.4081  -42.8207 O   0  0  0  0  0  0  0  0  0  0  0  0
   -0.7500    5.4028  -44.2953 N   0  0  0  0  0  0  0  0  0  0  0  0
   -1.5266    4.1738  -42.4067 N   0  0  0  0  0  0  0  0  0  0  0  0
   -2.1751    6.2251  -45.8191 N   0  0  0  0  0  0  0  0  0  0  0  0
   -1.0193    6.5696  -46.6499 C   0  0  0  0  0  0  0  0  0  0  0  0
   -3.4438    6.2947  -46.5740 C   0  0  0  0  0  0  0  0  0  0  0  0
   -5.4366    5.5040  -42.9366 C   0  0  0  0  0  0  0  0  0  0  0  0
   -4.4469    5.8771  -43.8337 C   0  0  0  0  0  0  0  0  0  0  0  0
   -3.8203    4.2335  -41.6748 C   0  0  0  0  0  0  0  0  0  0  0  0
   -0.4801    4.6576  -43.1681 C   0  0  0  0  0  0  0  0  0  0  0  0
   -5.1041    4.6900  -41.8681 C   0  0  0  0  0  0  0  0  0  0  0  0
   -2.0299    5.7039  -44.5730 C   0  0  0  0  0  0  0  0  0  0  0  0
   -2.8294    4.6026  -42.5749 C   0  0  0  0  0  0  0  0  0  0  0  0
   -3.1275    5.4329  -43.6704 C   0  0  0  0  0  0  0  0  0  0  0  0
   -1.3336    3.4865  -41.7064 H   0  0  0  0  0  0  0  0  0  0  0  0
   -0.1851    6.5100  -46.1017 H   0  0  0  0  0  0  0  0  0  0  0  0
   -0.9595    5.9326  -47.4184 H   0  0  0  0  0  0  0  0  0  0  0  0
   -1.1242    7.5016  -46.9969 H   0  0  0  0  0  0  0  0  0  0  0  0
   -4.2041    6.0530  -45.9711 H   0  0  0  0  0  0  0  0  0  0  0  0
   -3.5752    7.2237  -46.9201 H   0  0  0  0  0  0  0  0  0  0  0  0
   -3.4105    5.6547  -47.3416 H   0  0  0  0  0  0  0  0  0  0  0  0
   -6.3777    5.8190  -43.0601 H   0  0  0  0  0  0  0  0  0  0  0  0
   -4.6772    6.4696  -44.6057 H   0  0  0  0  0  0  0  0  0  0  0  0
   -3.6038    3.6440  -40.8966 H   0  0  0  0  0  0  0  0  0  0  0  0
  1 12  1  0  0  0  0
  2 11  2  0  0  0  0
  3 11  1  0  0  0  0
  3 13  2  0  0  0  0
  4 11  1  0  0  0  0
  4 14  1  0  0  0  0
  5  6  1  0  0  0  0
  5  7  1  0  0  0  0
  5 13  1  0  0  0  0
  8  9  1  0  0  0  0
  8 12  2  0  0  0  0
  9 15  2  0  0  0  0
 10 12  1  0  0  0  0
 10 14  2  0  0  0  0
 13 15  1  0  0  0  0
 14 15  1  0  0  0  0
  4 16  1  0  0  0  0
  6 17  1  0  0  0  0
  6 18  1  0  0  0  0
  6 19  1  0  0  0  0
  7 20  1  0  0  0  0
  7 21  1  0  0  0  0
  7 22  1  0  0  0  0
  8 23  1  0  0  0  0
  9 24  1  0  0  0  0
 10 25  1  0  0  0  0
M  END
> <pdb_id>
7BHT

> <uniprot_id>
P31153

> <usmiles>
Clc1cc2NC(=O)N=C(N(C)C)c2cc1

$$$$
TOF_B_302
          07202406193D 1   1.00000     0.00000     0
            
 21 22  0  0  0  0            999 V2000
   79.9560    9.5040   61.2320 O   0  0  0  0  0  0  0  0  0  0  0  0
   75.9050    8.8040   59.4070 O   0  0  0  0  0  0  0  0  0  0  0  0
   76.3170   13.6680   60.3170 N   0  0  0  0  0  0  0  0  0  0  0  0
   75.4410   11.6320   59.6400 N   0  0  0  0  0  0  0  0  0  0  0  0
   78.6970   11.2250   60.9680 N   0  0  0  0  0  0  0  0  0  0  0  0
   77.4110   13.1130   60.6960 N   0  0  0  0  0  0  0  0  0  0  0  0
   77.9500    9.0870   60.3180 N   0  0  0  0  0  0  0  0  0  0  0  0
   78.5140   13.8670   61.2760 C   0  0  0  0  0  0  0  0  0  0  0  0
   78.2080    7.6540   60.2160 C   0  0  0  0  0  0  0  0  0  0  0  0
   75.3470   12.9530   59.7980 C   0  0  0  0  0  0  0  0  0  0  0  0
   78.8790    9.9240   60.8430 C   0  0  0  0  0  0  0  0  0  0  0  0
   76.7540    9.5550   59.8730 C   0  0  0  0  0  0  0  0  0  0  0  0
   77.5770   11.7890   60.5670 C   0  0  0  0  0  0  0  0  0  0  0  0
   76.5360   11.0080   60.0020 C   0  0  0  0  0  0  0  0  0  0  0  0
   79.2633   13.2434   61.4989 H   0  0  0  0  0  0  0  0  0  0  0  0
   78.8330   14.5499   60.6188 H   0  0  0  0  0  0  0  0  0  0  0  0
   78.2030   14.3254   62.1085 H   0  0  0  0  0  0  0  0  0  0  0  0
   77.4158    7.2010   59.8071 H   0  0  0  0  0  0  0  0  0  0  0  0
   79.0127    7.5002   59.6426 H   0  0  0  0  0  0  0  0  0  0  0  0
   78.3722    7.2791   61.1284 H   0  0  0  0  0  0  0  0  0  0  0  0
   74.5078   13.4147   59.5108 H   0  0  0  0  0  0  0  0  0  0  0  0
  1 11  2  0  0  0  0
  2 12  2  0  0  0  0
  3  6  1  0  0  0  0
  3 10  2  0  0  0  0
  4 10  1  0  0  0  0
  4 14  2  0  0  0  0
  5 11  1  0  0  0  0
  5 13  2  0  0  0  0
  6  8  1  0  0  0  0
  6 13  1  0  0  0  0
  7  9  1  0  0  0  0
  7 11  1  0  0  0  0
  7 12  1  0  0  0  0
 12 14  1  0  0  0  0
 13 14  1  0  0  0  0
  8 15  1  0  0  0  0
  8 16  1  0  0  0  0
  8 17  1  0  0  0  0
  9 18  1  0  0  0  0
  9 19  1  0  0  0  0
  9 20  1  0  0  0  0
 10 21  1  0  0  0  0
M  END
> <pdb_id>
5JE1

> <uniprot_id>
Q9LBJ0

> <usmiles>
O=C1N=C2N(N=CN=C2C(=O)N1C)C

$$$$
TOW_A_401
          07212404143D 1   1.00000     0.00000     0
            
 32 33  0  0  0  0            999 V2000
   -6.2083    4.2116  -40.7032 Cl  0  0  0  0  0  0  0  0  0  0  0  0
   -0.1829    2.8636  -39.1869 O   0  0  0  0  0  0  0  0  0  0  0  0
    0.8133    4.2744  -42.9588 O   0  0  0  0  0  0  0  0  0  0  0  0
   -0.6563    5.3026  -44.3306 N   0  0  0  0  0  0  0  0  0  0  0  0
   -2.1426    6.1227  -45.8531 N   0  0  0  0  0  0  0  0  0  0  0  0
   -1.3879    4.0259  -42.4565 N   0  0  0  0  0  0  0  0  0  0  0  0
   -3.4424    6.1957  -46.5374 C   0  0  0  0  0  0  0  0  0  0  0  0
   -1.0010    6.4765  -46.6975 C   0  0  0  0  0  0  0  0  0  0  0  0
   -0.7658    3.7866  -40.0676 C   0  0  0  0  0  0  0  0  0  0  0  0
   -1.0157    3.0877  -41.3848 C   0  0  0  0  0  0  0  0  0  0  0  0
   -5.2763    5.5501  -42.8393 C   0  0  0  0  0  0  0  0  0  0  0  0
   -4.2931    5.9171  -43.7385 C   0  0  0  0  0  0  0  0  0  0  0  0
   -3.6965    4.1583  -41.6643 C   0  0  0  0  0  0  0  0  0  0  0  0
   -0.3519    4.5501  -43.2407 C   0  0  0  0  0  0  0  0  0  0  0  0
   -4.9653    4.6786  -41.8181 C   0  0  0  0  0  0  0  0  0  0  0  0
   -1.9109    5.6883  -44.5281 C   0  0  0  0  0  0  0  0  0  0  0  0
   -2.7017    4.5127  -42.5735 C   0  0  0  0  0  0  0  0  0  0  0  0
   -3.0030    5.3964  -43.6266 C   0  0  0  0  0  0  0  0  0  0  0  0
   -0.0089    3.3063  -38.3073 H   0  0  0  0  0  0  0  0  0  0  0  0
   -4.1695    5.9415  -45.8997 H   0  0  0  0  0  0  0  0  0  0  0  0
   -3.5957    7.1287  -46.8631 H   0  0  0  0  0  0  0  0  0  0  0  0
   -3.4457    5.5666  -47.3147 H   0  0  0  0  0  0  0  0  0  0  0  0
   -0.1575    6.4037  -46.1653 H   0  0  0  0  0  0  0  0  0  0  0  0
   -0.9576    5.8528  -47.4779 H   0  0  0  0  0  0  0  0  0  0  0  0
   -1.1077    7.4149  -47.0263 H   0  0  0  0  0  0  0  0  0  0  0  0
   -0.1470    4.5597  -40.2064 H   0  0  0  0  0  0  0  0  0  0  0  0
   -1.6310    4.1159  -39.6894 H   0  0  0  0  0  0  0  0  0  0  0  0
   -0.1826    2.6053  -41.6555 H   0  0  0  0  0  0  0  0  0  0  0  0
   -1.7578    2.4286  -41.2630 H   0  0  0  0  0  0  0  0  0  0  0  0
   -6.2038    5.9131  -42.9288 H   0  0  0  0  0  0  0  0  0  0  0  0
   -4.5073    6.5598  -44.4741 H   0  0  0  0  0  0  0  0  0  0  0  0
   -3.4934    3.5345  -40.9096 H   0  0  0  0  0  0  0  0  0  0  0  0
  1 15  1  0  0  0  0
  2  9  1  0  0  0  0
  3 14  2  0  0  0  0
  4 14  1  0  0  0  0
  4 16  2  0  0  0  0
  5  7  1  0  0  0  0
  5  8  1  0  0  0  0
  5 16  1  0  0  0  0
  6 10  1  0  0  0  0
  6 14  1  0  0  0  0
  6 17  1  0  0  0  0
  9 10  1  0  0  0  0
 11 12  1  0  0  0  0
 11 15  2  0  0  0  0
 12 18  2  0  0  0  0
 13 15  1  0  0  0  0
 13 17  2  0  0  0  0
 16 18  1  0  0  0  0
 17 18  1  0  0  0  0
  2 19  1  0  0  0  0
  7 20  1  0  0  0  0
  7 21  1  0  0  0  0
  7 22  1  0  0  0  0
  8 23  1  0  0  0  0
  8 24  1  0  0  0  0
  8 25  1  0  0  0  0
  9 26  1  0  0  0  0
  9 27  1  0  0  0  0
 10 28  1  0  0  0  0
 10 29  1  0  0  0  0
 11 30  1  0  0  0  0
 12 31  1  0  0  0  0
 13 32  1  0  0  0  0
M  END
> <pdb_id>
7BHU

> <uniprot_id>
P31153

> <usmiles>
Clc1cc2N(C(=O)N=C(N(C)C)c2cc1)CCO

$$$$
TPO_B_500
          07192417443D 1   1.00000     0.00000     0
            
 22 21  0  0  0  0            999 V2000
   -8.6640   19.3220   30.0090 P   0  0  0  0  0  0  0  0  0  0  0  0
   -9.8670   18.3170   30.4130 O   0  0  0  0  0  0  0  0  0  0  0  0
   -8.4370   19.3540   28.5430 O   0  0  0  0  0  0  0  0  0  0  0  0
   -9.1130   20.7680   30.5830 O   0  0  0  0  0  0  0  0  0  0  0  0
   -4.4650   20.2870   31.1760 O   0  0  0  0  0  0  0  0  0  0  0  0
   -4.1420   19.3460   29.2330 O   0  0  0  0  0  0  0  0  0  0  0  0
   -7.3730   18.8660   30.8570 O   0  0  0  0  0  0  0  0  0  0  0  0
   -5.1590   18.0650   32.3840 N   0  0  0  0  0  0  0  0  0  0  0  0
   -7.0760   16.4480   30.7290 C   0  0  0  0  0  0  0  0  0  0  0  0
   -4.5240   19.3240   30.3800 C   0  0  0  0  0  0  0  0  0  0  0  0
   -6.5240   17.8270   30.3630 C   0  0  2  0  0  0  0  0  0  0  0  0
   -5.1100   18.0160   30.9150 C   0  0  2  0  0  0  0  0  0  0  0  0
   -9.9880   18.3239   31.4056 H   0  0  0  0  0  0  0  0  0  0  0  0
   -7.6887   19.9840   28.3352 H   0  0  0  0  0  0  0  0  0  0  0  0
   -4.8045   20.1844   32.1110 H   0  0  0  0  0  0  0  0  0  0  0  0
   -5.5421   17.2099   32.7334 H   0  0  0  0  0  0  0  0  0  0  0  0
   -4.2344   18.1879   32.7444 H   0  0  0  0  0  0  0  0  0  0  0  0
   -6.4662   15.7397   30.3734 H   0  0  0  0  0  0  0  0  0  0  0  0
   -7.1369   16.3666   31.7238 H   0  0  0  0  0  0  0  0  0  0  0  0
   -7.9857   16.3362   30.3291 H   0  0  0  0  0  0  0  0  0  0  0  0
   -6.4859   17.8975   29.3662 H   0  0  0  0  0  0  0  0  0  0  0  0
   -4.5347   17.2507   30.6263 H   0  0  0  0  0  0  0  0  0  0  0  0
  1  2  1  0  0  0  0
  1  3  1  0  0  0  0
  1  4  2  0  0  0  0
  1  7  1  0  0  0  0
  5 10  1  0  0  0  0
  6 10  2  0  0  0  0
  7 11  1  0  0  0  0
  8 12  1  0  0  0  0
  9 11  1  0  0  0  0
 10 12  1  0  0  0  0
 11 12  1  0  0  0  0
  2 13  1  0  0  0  0
  3 14  1  0  0  0  0
  5 15  1  0  0  0  0
  8 16  1  0  0  0  0
  8 17  1  0  0  0  0
  9 18  1  0  0  0  0
  9 19  1  0  0  0  0
  9 20  1  0  0  0  0
 11 21  1  0  0  0  0
 12 22  1  0  0  0  0
M  END
> <pdb_id>
2W08

> <uniprot_id>
P02743

> <usmiles>
P(=O)(O[C@@H]([C@H](N)C(=O)O)C)(O)O

$$$$
TQ3_B_196
          07192417253D 1   1.00000     0.00000     0
            
 31 33  0  0  0  0            999 V2000
   11.6410   35.3450   18.2390 S   0  0  0  0  0  0  0  0  0  0  0  0
    5.0510   34.5900   18.9540 N   0  0  0  0  0  0  0  0  0  0  0  0
    9.2860   33.6710   17.6330 N   0  0  0  0  0  0  0  0  0  0  0  0
    7.2920   34.2150   18.2740 N   0  0  0  0  0  0  0  0  0  0  0  0
    6.5800   36.2200   19.3310 N   0  0  0  0  0  0  0  0  0  0  0  0
   15.1960   38.1200   17.6620 C   0  0  0  0  0  0  0  0  0  0  0  0
   14.0670   38.2710   16.8100 C   0  0  0  0  0  0  0  0  0  0  0  0
   15.2230   37.2210   18.7080 C   0  0  0  0  0  0  0  0  0  0  0  0
    9.5660   38.3970   19.9030 C   0  0  0  0  0  0  0  0  0  0  0  0
   12.9820   37.3800   17.0130 C   0  0  0  0  0  0  0  0  0  0  0  0
   14.1200   36.3210   18.9160 C   0  0  0  0  0  0  0  0  0  0  0  0
   10.5870   37.6080   19.3270 C   0  0  0  0  0  0  0  0  0  0  0  0
    8.2440   37.9530   19.9000 C   0  0  0  0  0  0  0  0  0  0  0  0
    6.3290   34.9700   18.8520 C   0  0  0  0  0  0  0  0  0  0  0  0
   13.0000   36.4830   18.0480 C   0  0  0  0  0  0  0  0  0  0  0  0
   10.3120   36.4060   18.8230 C   0  0  0  0  0  0  0  0  0  0  0  0
    8.5400   34.6280   18.2160 C   0  0  0  0  0  0  0  0  0  0  0  0
    7.9580   36.7200   19.3390 C   0  0  0  0  0  0  0  0  0  0  0  0
    8.9510   35.8750   18.7740 C   0  0  0  0  0  0  0  0  0  0  0  0
    4.3838   35.1921   19.3925 H   0  0  0  0  0  0  0  0  0  0  0  0
    4.7625   33.7037   18.5918 H   0  0  0  0  0  0  0  0  0  0  0  0
   10.2676   33.8117   17.5035 H   0  0  0  0  0  0  0  0  0  0  0  0
    8.8586   32.8194   17.3294 H   0  0  0  0  0  0  0  0  0  0  0  0
   16.0021   38.6881   17.4962 H   0  0  0  0  0  0  0  0  0  0  0  0
   14.0394   38.9741   16.0994 H   0  0  0  0  0  0  0  0  0  0  0  0
   16.0110   37.1948   19.3231 H   0  0  0  0  0  0  0  0  0  0  0  0
    9.7928   39.2793   20.3154 H   0  0  0  0  0  0  0  0  0  0  0  0
   12.1966   37.4070   16.3946 H   0  0  0  0  0  0  0  0  0  0  0  0
   14.1377   35.6207   19.6296 H   0  0  0  0  0  0  0  0  0  0  0  0
   11.5244   37.9551   19.2975 H   0  0  0  0  0  0  0  0  0  0  0  0
    7.5168   38.5142   20.2953 H   0  0  0  0  0  0  0  0  0  0  0  0
  1 15  1  0  0  0  0
  1 16  1  0  0  0  0
  2 14  1  0  0  0  0
  3 17  1  0  0  0  0
  4 14  2  0  0  0  0
  4 17  1  0  0  0  0
  5 14  1  0  0  0  0
  5 18  2  0  0  0  0
  6  7  2  0  0  0  0
  6  8  1  0  0  0  0
  7 10  1  0  0  0  0
  8 11  2  0  0  0  0
  9 12  1  0  0  0  0
  9 13  2  0  0  0  0
 10 15  2  0  0  0  0
 11 15  1  0  0  0  0
 12 16  2  0  0  0  0
 13 18  1  0  0  0  0
 16 19  1  0  0  0  0
 17 19  2  0  0  0  0
 18 19  1  0  0  0  0
  2 20  1  0  0  0  0
  2 21  1  0  0  0  0
  3 22  1  0  0  0  0
  3 23  1  0  0  0  0
  6 24  1  0  0  0  0
  7 25  1  0  0  0  0
  8 26  1  0  0  0  0
  9 27  1  0  0  0  0
 10 28  1  0  0  0  0
 11 29  1  0  0  0  0
 12 30  1  0  0  0  0
 13 31  1  0  0  0  0
M  END
> <pdb_id>
1IA1

> <uniprot_id>
P22906

> <usmiles>
S(c1c2c(nc(nc2ccc1)N)N)c3ccccc3

$$$$
TQB_A_401
          07212404143D 1   1.00000     0.00000     0
            
 35 37  0  0  0  0            999 V2000
   -6.3877    4.1594  -41.0010 Cl  0  0  0  0  0  0  0  0  0  0  0  0
    0.6890    4.2783  -42.9774 O   0  0  0  0  0  0  0  0  0  0  0  0
   -0.7031    5.3939  -44.3662 N   0  0  0  0  0  0  0  0  0  0  0  0
   -2.1292    6.3374  -45.8989 N   0  0  0  0  0  0  0  0  0  0  0  0
   -1.5395    4.0260  -42.6130 N   0  0  0  0  0  0  0  0  0  0  0  0
   -3.4017    6.4772  -46.6244 C   0  0  0  0  0  0  0  0  0  0  0  0
   -0.9511    6.6813  -46.6869 C   0  0  0  0  0  0  0  0  0  0  0  0
   -0.6561    1.0846  -39.7633 C   0  0  0  0  0  0  0  0  0  0  0  0
   -0.8572    0.7370  -41.0913 C   0  0  0  0  0  0  0  0  0  0  0  0
   -0.7491    2.4090  -39.3642 C   0  0  0  0  0  0  0  0  0  0  0  0
   -5.3813    5.6207  -43.0213 C   0  0  0  0  0  0  0  0  0  0  0  0
   -1.1482    1.7089  -42.0252 C   0  0  0  0  0  0  0  0  0  0  0  0
   -1.0446    3.3947  -40.2962 C   0  0  0  0  0  0  0  0  0  0  0  0
   -4.3625    6.0346  -43.8646 C   0  0  0  0  0  0  0  0  0  0  0  0
   -3.8513    4.1348  -41.8923 C   0  0  0  0  0  0  0  0  0  0  0  0
   -0.4531    4.5723  -43.3173 C   0  0  0  0  0  0  0  0  0  0  0  0
   -5.1101    4.6829  -42.0475 C   0  0  0  0  0  0  0  0  0  0  0  0
   -1.9467    5.8017  -44.5947 C   0  0  0  0  0  0  0  0  0  0  0  0
   -1.2461    3.0301  -41.6302 C   0  0  0  0  0  0  0  0  0  0  0  0
   -2.8300    4.5358  -42.7416 C   0  0  0  0  0  0  0  0  0  0  0  0
   -3.0842    5.4813  -43.7513 C   0  0  0  0  0  0  0  0  0  0  0  0
   -4.1586    6.2249  -46.0215 H   0  0  0  0  0  0  0  0  0  0  0  0
   -3.5138    7.4255  -46.9212 H   0  0  0  0  0  0  0  0  0  0  0  0
   -3.3975    5.8761  -47.4236 H   0  0  0  0  0  0  0  0  0  0  0  0
   -0.1301    6.5619  -46.1285 H   0  0  0  0  0  0  0  0  0  0  0  0
   -0.8995    6.0842  -47.4874 H   0  0  0  0  0  0  0  0  0  0  0  0
   -1.0158    7.6336  -46.9850 H   0  0  0  0  0  0  0  0  0  0  0  0
   -0.4429    0.3762  -39.0905 H   0  0  0  0  0  0  0  0  0  0  0  0
   -0.7911   -0.2206  -41.3718 H   0  0  0  0  0  0  0  0  0  0  0  0
   -0.6035    2.6541  -38.4058 H   0  0  0  0  0  0  0  0  0  0  0  0
   -6.3024    5.9977  -43.1179 H   0  0  0  0  0  0  0  0  0  0  0  0
   -1.2877    1.4592  -42.9834 H   0  0  0  0  0  0  0  0  0  0  0  0
   -1.1124    4.3524  -40.0167 H   0  0  0  0  0  0  0  0  0  0  0  0
   -4.5429    6.7325  -44.5576 H   0  0  0  0  0  0  0  0  0  0  0  0
   -3.6786    3.4577  -41.1770 H   0  0  0  0  0  0  0  0  0  0  0  0
  1 17  1  0  0  0  0
  2 16  2  0  0  0  0
  3 16  1  0  0  0  0
  3 18  2  0  0  0  0
  4  6  1  0  0  0  0
  4  7  1  0  0  0  0
  4 18  1  0  0  0  0
  5 16  1  0  0  0  0
  5 19  1  0  0  0  0
  5 20  1  0  0  0  0
  8  9  2  0  0  0  0
  8 10  1  0  0  0  0
  9 12  1  0  0  0  0
 10 13  2  0  0  0  0
 11 14  1  0  0  0  0
 11 17  2  0  0  0  0
 12 19  2  0  0  0  0
 13 19  1  0  0  0  0
 14 21  2  0  0  0  0
 15 17  1  0  0  0  0
 15 20  2  0  0  0  0
 18 21  1  0  0  0  0
 20 21  1  0  0  0  0
  6 22  1  0  0  0  0
  6 23  1  0  0  0  0
  6 24  1  0  0  0  0
  7 25  1  0  0  0  0
  7 26  1  0  0  0  0
  7 27  1  0  0  0  0
  8 28  1  0  0  0  0
  9 29  1  0  0  0  0
 10 30  1  0  0  0  0
 11 31  1  0  0  0  0
 12 32  1  0  0  0  0
 13 33  1  0  0  0  0
 14 34  1  0  0  0  0
 15 35  1  0  0  0  0
M  END
> <pdb_id>
7BHV

> <uniprot_id>
P31153

> <usmiles>
Clc1cc2N(c3ccccc3)C(=O)N=C(N(C)C)c2cc1

$$$$
TQE_A_401
          07212404143D 1   1.00000     0.00000     0
            
 25 25  0  0  0  0            999 V2000
    0.5382    4.4683  -42.6057 O   0  0  0  0  0  0  0  0  0  0  0  0
   -3.7727    4.8014  -41.3684 O   0  0  0  0  0  0  0  0  0  0  0  0
   -1.6407    4.6336  -42.0095 N   0  0  0  0  0  0  0  0  0  0  0  0
   -0.9417    5.2512  -44.1513 N   0  0  0  0  0  0  0  0  0  0  0  0
   -3.2644    5.4542  -43.5389 N   0  0  0  0  0  0  0  0  0  0  0  0
   -2.5223    5.9640  -45.6397 N   0  0  0  0  0  0  0  0  0  0  0  0
   -3.8959    6.3092  -46.0262 C   0  0  0  0  0  0  0  0  0  0  0  0
   -1.5014    6.1062  -46.6691 C   0  0  0  0  0  0  0  0  0  0  0  0
   -6.1100    4.3109  -41.2650 C   0  0  0  0  0  0  0  0  0  0  0  0
   -5.1155    5.3595  -41.5516 C   0  0  0  0  0  0  0  0  0  0  0  0
   -0.6243    4.7748  -42.9240 C   0  0  0  0  0  0  0  0  0  0  0  0
   -2.9071    4.9796  -42.3578 C   0  0  0  0  0  0  0  0  0  0  0  0
   -2.2231    5.5378  -44.3954 C   0  0  0  0  0  0  0  0  0  0  0  0
   -1.4492    4.2788  -41.0945 H   0  0  0  0  0  0  0  0  0  0  0  0
   -4.5059    6.1741  -45.2454 H   0  0  0  0  0  0  0  0  0  0  0  0
   -3.9305    7.2661  -46.3146 H   0  0  0  0  0  0  0  0  0  0  0  0
   -4.1869    5.7226  -46.7820 H   0  0  0  0  0  0  0  0  0  0  0  0
   -0.6117    5.8450  -46.2946 H   0  0  0  0  0  0  0  0  0  0  0  0
   -1.7240    5.5138  -47.4434 H   0  0  0  0  0  0  0  0  0  0  0  0
   -1.4676    7.0573  -46.9759 H   0  0  0  0  0  0  0  0  0  0  0  0
   -7.0304    4.6821  -41.3872 H   0  0  0  0  0  0  0  0  0  0  0  0
   -5.9744    3.5429  -41.8909 H   0  0  0  0  0  0  0  0  0  0  0  0
   -6.0001    3.9960  -40.3222 H   0  0  0  0  0  0  0  0  0  0  0  0
   -5.2223    5.6750  -42.4944 H   0  0  0  0  0  0  0  0  0  0  0  0
   -5.2480    6.1281  -40.9258 H   0  0  0  0  0  0  0  0  0  0  0  0
  1 11  2  0  0  0  0
  2 10  1  0  0  0  0
  2 12  1  0  0  0  0
  3 11  1  0  0  0  0
  3 12  1  0  0  0  0
  4 11  1  0  0  0  0
  4 13  2  0  0  0  0
  5 12  2  0  0  0  0
  5 13  1  0  0  0  0
  6  7  1  0  0  0  0
  6  8  1  0  0  0  0
  6 13  1  0  0  0  0
  9 10  1  0  0  0  0
  3 14  1  0  0  0  0
  7 15  1  0  0  0  0
  7 16  1  0  0  0  0
  7 17  1  0  0  0  0
  8 18  1  0  0  0  0
  8 19  1  0  0  0  0
  8 20  1  0  0  0  0
  9 21  1  0  0  0  0
  9 22  1  0  0  0  0
  9 23  1  0  0  0  0
 10 24  1  0  0  0  0
 10 25  1  0  0  0  0
M  END
> <pdb_id>
7BHR

> <uniprot_id>
P31153

> <usmiles>
O=C1N=C(N=C(OCC)N1)N(C)C

$$$$
TR5_B_201
          07202415243D 1   1.00000     0.00000     0
            
 44 47  0  0  0  0            999 V2000
    5.9560   43.5600   13.8910 P   0  0  0  0  0  0  0  0  0  0  0  0
    6.1940   43.7210   12.4450 O   0  0  0  0  0  0  0  0  0  0  0  0
    6.6660   42.2220   14.4350 O   0  0  0  0  0  0  0  0  0  0  0  0
    4.5570   43.5900   14.3970 O   0  0  0  0  0  0  0  0  0  0  0  0
    7.3260   48.2210   19.1450 O   0  0  0  0  0  0  0  0  0  0  0  0
    8.8900   46.1990   18.5610 O   0  0  0  0  0  0  0  0  0  0  0  0
    6.8190   44.6950   14.6400 O   0  0  0  0  0  0  0  0  0  0  0  0
    6.9620   47.1270   16.0000 O   0  0  0  0  0  0  0  0  0  0  0  0
    2.2940   45.0110   14.2710 N   0  0  0  0  0  0  0  0  0  0  0  0
    0.7020   45.8660   15.7440 N   0  0  0  0  0  0  0  0  0  0  0  0
    1.1010   48.0430   18.4750 N   0  0  0  0  0  0  0  0  0  0  0  0
    3.5200   48.5520   18.5800 N   0  0  0  0  0  0  0  0  0  0  0  0
    0.4000   46.5870   16.7480 N   0  0  0  0  0  0  0  0  0  0  0  0
    4.7180   47.3690   16.7790 N   0  0  0  0  0  0  0  0  0  0  0  0
   -1.0230   46.6510   17.1600 C   0  0  0  0  0  0  0  0  0  0  0  0
    6.9100   44.6660   16.0690 C   0  0  0  0  0  0  0  0  0  0  0  0
    2.1800   48.7840   19.1840 C   0  0  0  0  0  0  0  0  0  0  0  0
    4.2770   46.5430   15.8060 C   0  0  0  0  0  0  0  0  0  0  0  0
    6.1350   47.7690   17.0230 C   0  0  1  0  0  0  0  0  0  0  0  0
    6.6190   47.2190   18.3850 C   0  0  1  0  0  0  0  0  0  0  0  0
    7.5410   46.0220   18.0580 C   0  0  1  0  0  0  0  0  0  0  0  0
    1.9740   45.7540   15.3200 C   0  0  0  0  0  0  0  0  0  0  0  0
    7.6050   45.9430   16.5390 C   0  0  2  0  0  0  0  0  0  0  0  0
    1.3590   47.2710   17.4090 C   0  0  0  0  0  0  0  0  0  0  0  0
    3.6710   47.7500   17.5130 C   0  0  0  0  0  0  0  0  0  0  0  0
    2.9550   46.4130   15.9400 C   0  0  0  0  0  0  0  0  0  0  0  0
    2.6120   47.1580   16.9800 C   0  0  0  0  0  0  0  0  0  0  0  0
    5.7465   44.5559   12.1245 H   0  0  0  0  0  0  0  0  0  0  0  0
    6.4945   42.1288   15.4158 H   0  0  0  0  0  0  0  0  0  0  0  0
    7.6228   47.8305   20.0165 H   0  0  0  0  0  0  0  0  0  0  0  0
    9.4420   45.3998   18.3232 H   0  0  0  0  0  0  0  0  0  0  0  0
    3.2476   44.9452   13.9771 H   0  0  0  0  0  0  0  0  0  0  0  0
    1.5820   44.5159   13.7730 H   0  0  0  0  0  0  0  0  0  0  0  0
   -1.1129   47.2494   17.9561 H   0  0  0  0  0  0  0  0  0  0  0  0
   -1.5721   47.0134   16.4069 H   0  0  0  0  0  0  0  0  0  0  0  0
   -1.3436   45.7334   17.3948 H   0  0  0  0  0  0  0  0  0  0  0  0
    7.4402   43.8684   16.3567 H   0  0  0  0  0  0  0  0  0  0  0  0
    5.9927   44.6167   16.4641 H   0  0  0  0  0  0  0  0  0  0  0  0
    2.0220   49.3719   19.9774 H   0  0  0  0  0  0  0  0  0  0  0  0
    4.8421   46.1050   15.1069 H   0  0  0  0  0  0  0  0  0  0  0  0
    6.2341   48.7634   16.9866 H   0  0  0  0  0  0  0  0  0  0  0  0
    5.8320   46.8974   18.9115 H   0  0  0  0  0  0  0  0  0  0  0  0
    7.1483   45.1793   18.4264 H   0  0  0  0  0  0  0  0  0  0  0  0
    8.5618   45.9250   16.2487 H   0  0  0  0  0  0  0  0  0  0  0  0
  1  2  1  0  0  0  0
  1  3  1  0  0  0  0
  1  4  2  0  0  0  0
  1  7  1  0  0  0  0
  5 20  1  0  0  0  0
  6 21  1  0  0  0  0
  7 16  1  0  0  0  0
  8 19  1  0  0  0  0
  8 23  1  0  0  0  0
  9 22  1  0  0  0  0
 10 13  1  0  0  0  0
 10 22  2  0  0  0  0
 11 17  1  0  0  0  0
 11 24  2  0  0  0  0
 12 17  2  0  0  0  0
 12 25  1  0  0  0  0
 13 15  1  0  0  0  0
 13 24  1  0  0  0  0
 14 18  1  0  0  0  0
 14 19  1  0  0  0  0
 14 25  1  0  0  0  0
 16 23  1  0  0  0  0
 18 26  2  0  0  0  0
 19 20  1  0  0  0  0
 20 21  1  0  0  0  0
 21 23  1  0  0  0  0
 22 26  1  0  0  0  0
 24 27  1  0  0  0  0
 25 27  2  0  0  0  0
 26 27  1  0  0  0  0
  2 28  1  0  0  0  0
  3 29  1  0  0  0  0
  5 30  1  0  0  0  0
  6 31  1  0  0  0  0
  9 32  1  0  0  0  0
  9 33  1  0  0  0  0
 15 34  1  0  0  0  0
 15 35  1  0  0  0  0
 15 36  1  0  0  0  0
 16 37  1  0  0  0  0
 16 38  1  0  0  0  0
 17 39  1  0  0  0  0
 18 40  1  0  0  0  0
 19 41  1  0  0  0  0
 20 42  1  0  0  0  0
 21 43  1  0  0  0  0
 23 44  1  0  0  0  0
M  END
> <pdb_id>
4FYH

> <uniprot_id>
O35820

> <usmiles>
P(=O)(OC[C@H]1O[C@@H](N2c3ncnc4N(N=C(N)C(c43)=C2)C)[C@H](O)[C@@H]1O)(O)O

$$$$
TRP_A_502
          07202411493D 1   1.00000     0.00000     0
            
 26 27  0  0  0  0            999 V2000
   -2.9880   -7.6190  -47.3250 N   0  0  0  0  0  0  0  0  0  0  0  0
   -3.6540   -8.7600  -48.0200 C   0  0  2  0  0  0  0  0  0  0  0  0
   -4.8600   -9.2650  -47.2600 C   0  0  0  0  0  0  0  0  0  0  0  0
   -5.6040  -10.0820  -47.7930 O   0  0  0  0  0  0  0  0  0  0  0  0
   -2.6700   -9.8960  -48.2300 C   0  0  0  0  0  0  0  0  0  0  0  0
   -2.0400  -10.4300  -46.9810 C   0  0  0  0  0  0  0  0  0  0  0  0
   -0.9140   -9.9800  -46.3890 C   0  0  0  0  0  0  0  0  0  0  0  0
   -2.4910  -11.5490  -46.2160 C   0  0  0  0  0  0  0  0  0  0  0  0
   -0.6220  -10.7560  -45.2910 N   0  0  0  0  0  0  0  0  0  0  0  0
   -1.5850  -11.7120  -45.1400 C   0  0  0  0  0  0  0  0  0  0  0  0
   -3.5650  -12.4330  -46.3360 C   0  0  0  0  0  0  0  0  0  0  0  0
   -1.7180  -12.7270  -44.2020 C   0  0  0  0  0  0  0  0  0  0  0  0
   -3.7100  -13.4470  -45.3820 C   0  0  0  0  0  0  0  0  0  0  0  0
   -2.7790  -13.5910  -44.3370 C   0  0  0  0  0  0  0  0  0  0  0  0
   -5.0760   -8.9050  -46.0940 O   0  5  0  0  0  0  0  0  0  0  0  0
   -3.6470   -6.8785  -47.1932 H   0  0  0  0  0  0  0  0  0  0  0  0
   -2.6468   -7.9237  -46.4358 H   0  0  0  0  0  0  0  0  0  0  0  0
   -3.9608   -8.4428  -48.9174 H   0  0  0  0  0  0  0  0  0  0  0  0
   -1.9399   -9.5667  -48.8288 H   0  0  0  0  0  0  0  0  0  0  0  0
   -3.1550  -10.6471  -48.6778 H   0  0  0  0  0  0  0  0  0  0  0  0
   -0.3728   -9.1994  -46.7015 H   0  0  0  0  0  0  0  0  0  0  0  0
    0.1727  -10.6380  -44.6956 H   0  0  0  0  0  0  0  0  0  0  0  0
   -4.2176  -12.3435  -47.0884 H   0  0  0  0  0  0  0  0  0  0  0  0
   -1.0634  -12.8264  -43.4526 H   0  0  0  0  0  0  0  0  0  0  0  0
   -4.4845  -14.0765  -45.4439 H   0  0  0  0  0  0  0  0  0  0  0  0
   -2.8911  -14.3362  -43.6797 H   0  0  0  0  0  0  0  0  0  0  0  0
  1  2  1  0  0  0  0
  2  5  1  0  0  0  0
  2  3  1  0  0  0  0
  5  6  1  0  0  0  0
  6  8  1  0  0  0  0
  6  7  2  0  0  0  0
  8 11  2  0  0  0  0
  8 10  1  0  0  0  0
 11 13  1  0  0  0  0
 13 14  2  0  0  0  0
 10 12  2  0  0  0  0
 10  9  1  0  0  0  0
 12 14  1  0  0  0  0
  9  7  1  0  0  0  0
  3  4  2  0  0  0  0
  3 15  1  0  0  0  0
  1 16  1  0  0  0  0
  1 17  1  0  0  0  0
  2 18  1  0  0  0  0
  5 19  1  0  0  0  0
  5 20  1  0  0  0  0
  7 21  1  0  0  0  0
  9 22  1  0  0  0  0
 11 23  1  0  0  0  0
 12 24  1  0  0  0  0
 13 25  1  0  0  0  0
 14 26  1  0  0  0  0
M  CHG  1  15  -1
M  END
> <pdb_id>
5UXM

> <uniprot_id>
Q9I000

> <usmiles>
[O-]C(=O)[C@@H](N)CC=1c2c(NC1)cccc2

$$$$
TRP_A_601
          07202412453D 1   1.00000     0.00000     0
            
 26 27  0  0  0  0            999 V2000
  -25.1770   -3.4330  -19.1820 N   0  0  0  0  0  0  0  0  0  0  0  0
  -26.1580   -4.5040  -19.1190 C   0  0  2  0  0  0  0  0  0  0  0  0
  -25.7910   -5.5780  -18.0880 C   0  0  0  0  0  0  0  0  0  0  0  0
  -26.6200   -6.3700  -17.6510 O   0  0  0  0  0  0  0  0  0  0  0  0
  -26.2890   -5.1750  -20.4970 C   0  0  0  0  0  0  0  0  0  0  0  0
  -26.6810   -4.2690  -21.6110 C   0  0  0  0  0  0  0  0  0  0  0  0
  -25.8810   -3.8350  -22.6350 C   0  0  0  0  0  0  0  0  0  0  0  0
  -27.9760   -3.6980  -21.8440 C   0  0  0  0  0  0  0  0  0  0  0  0
  -26.5990   -3.0380  -23.4920 N   0  0  0  0  0  0  0  0  0  0  0  0
  -27.8880   -2.9390  -23.0400 C   0  0  0  0  0  0  0  0  0  0  0  0
  -29.2030   -3.7690  -21.1710 C   0  0  0  0  0  0  0  0  0  0  0  0
  -28.9740   -2.2400  -23.5720 C   0  0  0  0  0  0  0  0  0  0  0  0
  -30.2910   -3.0720  -21.6990 C   0  0  0  0  0  0  0  0  0  0  0  0
  -30.1660   -2.3180  -22.9010 C   0  0  0  0  0  0  0  0  0  0  0  0
  -24.6380   -5.7000  -17.6730 O   0  5  0  0  0  0  0  0  0  0  0  0
  -25.0967   -3.0012  -18.2836 H   0  0  0  0  0  0  0  0  0  0  0  0
  -24.2903   -3.8086  -19.4518 H   0  0  0  0  0  0  0  0  0  0  0  0
  -27.0433   -4.1116  -18.8697 H   0  0  0  0  0  0  0  0  0  0  0  0
  -26.9801   -5.8942  -20.4259 H   0  0  0  0  0  0  0  0  0  0  0  0
  -25.4056   -5.5832  -20.7271 H   0  0  0  0  0  0  0  0  0  0  0  0
  -24.9139   -4.0654  -22.7427 H   0  0  0  0  0  0  0  0  0  0  0  0
  -26.2382   -2.5996  -24.3152 H   0  0  0  0  0  0  0  0  0  0  0  0
  -29.2969   -4.3060  -20.3327 H   0  0  0  0  0  0  0  0  0  0  0  0
  -28.8849   -1.7030  -24.4108 H   0  0  0  0  0  0  0  0  0  0  0  0
  -31.1716   -3.1025  -21.2262 H   0  0  0  0  0  0  0  0  0  0  0  0
  -30.9642   -1.8360  -23.2623 H   0  0  0  0  0  0  0  0  0  0  0  0
  1  2  1  0  0  0  0
  2  5  1  0  0  0  0
  2  3  1  0  0  0  0
  5  6  1  0  0  0  0
  6  8  1  0  0  0  0
  6  7  2  0  0  0  0
  8 11  2  0  0  0  0
  8 10  1  0  0  0  0
 11 13  1  0  0  0  0
 13 14  2  0  0  0  0
 10 12  2  0  0  0  0
 10  9  1  0  0  0  0
 12 14  1  0  0  0  0
  9  7  1  0  0  0  0
  3  4  2  0  0  0  0
  3 15  1  0  0  0  0
  1 16  1  0  0  0  0
  1 17  1  0  0  0  0
  2 18  1  0  0  0  0
  5 19  1  0  0  0  0
  5 20  1  0  0  0  0
  7 21  1  0  0  0  0
  9 22  1  0  0  0  0
 11 23  1  0  0  0  0
 12 24  1  0  0  0  0
 13 25  1  0  0  0  0
 14 26  1  0  0  0  0
M  CHG  1  15  -1
M  END
> <pdb_id>
3F3A

> <uniprot_id>
O67854

> <usmiles>
[O-]C(=O)[C@@H](N)CC=1c2c(NC1)cccc2

$$$$
TSB_B_3002
          07192417133D 1   1.00000     0.00000     0
            
 51 53  0  0  0  0            999 V2000
   43.8780   67.5610  119.1590 S   0  0  0  0  0  0  0  0  0  0  0  0
   44.2440   67.1010  117.8010 O   0  0  0  0  0  0  0  0  0  0  0  0
   43.4010   68.9590  119.3380 O   0  0  0  0  0  0  0  0  0  0  0  0
   43.9100   64.7490  119.2430 O   0  0  0  0  0  0  0  0  0  0  0  0
   41.1520   63.1860  122.1940 O   0  0  0  0  0  0  0  0  0  0  0  0
   47.8210   70.8190  122.9490 O   0  0  0  0  0  0  0  0  0  0  0  0
   45.2110   70.6110  122.1810 O   0  0  0  0  0  0  0  0  0  0  0  0
   45.1550   67.3060  120.0920 O   0  0  0  0  0  0  0  0  0  0  0  0
   47.4300   67.8420  121.6400 O   0  0  0  0  0  0  0  0  0  0  0  0
   52.1160   68.9270  116.7890 N   0  0  0  0  0  0  0  0  0  0  0  0
   41.7270   63.2820  119.4350 N   0  0  0  0  0  0  0  0  0  0  0  0
   42.7510   66.5960  119.7320 N   0  0  0  0  0  0  0  0  0  0  0  0
   52.8220   69.2000  118.9710 N   0  0  0  0  0  0  0  0  0  0  0  0
   51.3400   69.1950  120.8700 N   0  0  0  0  0  0  0  0  0  0  0  0
   49.2920   68.6280  117.9800 N   0  0  0  0  0  0  0  0  0  0  0  0
   49.0170   68.8260  120.2060 N   0  0  0  0  0  0  0  0  0  0  0  0
   41.8640   65.4470  122.5770 C   0  0  0  0  0  0  0  0  0  0  0  0
   45.0540   67.4420  121.5140 C   0  0  0  0  0  0  0  0  0  0  0  0
   52.5250   69.2920  120.2670 C   0  0  0  0  0  0  0  0  0  0  0  0
   48.4400   68.6130  118.9770 C   0  0  0  0  0  0  0  0  0  0  0  0
   42.9080   65.3000  119.6940 C   0  0  0  0  0  0  0  0  0  0  0  0
   42.0570   64.1880  121.7220 C   0  0  2  0  0  0  0  0  0  0  0  0
   48.3560   68.9130  121.5110 C   0  0  1  0  0  0  0  0  0  0  0  0
   47.5820   70.2250  121.6850 C   0  0  1  0  0  0  0  0  0  0  0  0
   46.1380   69.7710  121.4810 C   0  0  1  0  0  0  0  0  0  0  0  0
   51.8200   68.9900  118.0890 C   0  0  0  0  0  0  0  0  0  0  0  0
   46.1370   68.3630  122.0440 C   0  0  2  0  0  0  0  0  0  0  0  0
   50.3680   68.9700  119.9680 C   0  0  0  0  0  0  0  0  0  0  0  0
   41.7750   64.4900  120.2340 C   0  0  2  0  0  0  0  0  0  0  0  0
   50.5170   68.8530  118.5970 C   0  0  0  0  0  0  0  0  0  0  0  0
   41.2614   62.3547  121.6491 H   0  0  0  0  0  0  0  0  0  0  0  0
   47.2995   71.6692  123.0217 H   0  0  0  0  0  0  0  0  0  0  0  0
   44.2795   70.2830  122.0236 H   0  0  0  0  0  0  0  0  0  0  0  0
   51.3908   68.7724  116.1180 H   0  0  0  0  0  0  0  0  0  0  0  0
   53.0629   69.0344  116.4860 H   0  0  0  0  0  0  0  0  0  0  0  0
   40.9806   62.6992  119.7563 H   0  0  0  0  0  0  0  0  0  0  0  0
   41.5734   63.5222  118.4765 H   0  0  0  0  0  0  0  0  0  0  0  0
   41.9168   66.9841  120.1239 H   0  0  0  0  0  0  0  0  0  0  0  0
   42.4887   66.1620  122.2632 H   0  0  0  0  0  0  0  0  0  0  0  0
   40.9206   65.7672  122.4907 H   0  0  0  0  0  0  0  0  0  0  0  0
   42.0569   65.2325  123.5345 H   0  0  0  0  0  0  0  0  0  0  0  0
   45.1529   66.5415  121.9375 H   0  0  0  0  0  0  0  0  0  0  0  0
   44.1583   67.8222  121.7444 H   0  0  0  0  0  0  0  0  0  0  0  0
   53.3023   69.4575  120.8740 H   0  0  0  0  0  0  0  0  0  0  0  0
   47.4594   68.4604  118.8541 H   0  0  0  0  0  0  0  0  0  0  0  0
   42.9964   63.8601  121.8217 H   0  0  0  0  0  0  0  0  0  0  0  0
   49.0443   68.8401  122.2327 H   0  0  0  0  0  0  0  0  0  0  0  0
   47.8382   70.8643  120.9600 H   0  0  0  0  0  0  0  0  0  0  0  0
   45.9173   69.7522  120.5058 H   0  0  0  0  0  0  0  0  0  0  0  0
   46.0871   68.4005  123.0420 H   0  0  0  0  0  0  0  0  0  0  0  0
   40.9173   64.9960  120.1430 H   0  0  0  0  0  0  0  0  0  0  0  0
  1  2  2  0  0  0  0
  1  3  2  0  0  0  0
  1  8  1  0  0  0  0
  1 12  1  0  0  0  0
  4 21  2  0  0  0  0
  5 22  1  0  0  0  0
  6 24  1  0  0  0  0
  7 25  1  0  0  0  0
  8 18  1  0  0  0  0
  9 23  1  0  0  0  0
  9 27  1  0  0  0  0
 10 26  1  0  0  0  0
 11 29  1  0  0  0  0
 12 21  1  0  0  0  0
 13 19  1  0  0  0  0
 13 26  2  0  0  0  0
 14 19  2  0  0  0  0
 14 28  1  0  0  0  0
 15 20  2  0  0  0  0
 15 30  1  0  0  0  0
 16 20  1  0  0  0  0
 16 23  1  0  0  0  0
 16 28  1  0  0  0  0
 17 22  1  0  0  0  0
 18 27  1  0  0  0  0
 21 29  1  0  0  0  0
 22 29  1  0  0  0  0
 23 24  1  0  0  0  0
 24 25  1  0  0  0  0
 25 27  1  0  0  0  0
 26 30  1  0  0  0  0
 28 30  2  0  0  0  0
  5 31  1  0  0  0  0
  6 32  1  0  0  0  0
  7 33  1  0  0  0  0
 10 34  1  0  0  0  0
 10 35  1  0  0  0  0
 11 36  1  0  0  0  0
 11 37  1  0  0  0  0
 12 38  1  0  0  0  0
 17 39  1  0  0  0  0
 17 40  1  0  0  0  0
 17 41  1  0  0  0  0
 18 42  1  0  0  0  0
 18 43  1  0  0  0  0
 19 44  1  0  0  0  0
 20 45  1  0  0  0  0
 22 46  1  0  0  0  0
 23 47  1  0  0  0  0
 24 48  1  0  0  0  0
 25 49  1  0  0  0  0
 27 50  1  0  0  0  0
 29 51  1  0  0  0  0
M  END
> <pdb_id>
1EVL

> <uniprot_id>
P0A8M3

> <usmiles>
S(=O)(=O)(OC[C@H]1O[C@@H](N2c3ncnc(N)c3N=C2)[C@H](O)[C@@H]1O)NC(=O)[C@@H](N)[C@H](O)C

$$$$
TSS_A_1433
          07192421223D 1   1.00000     0.00000     0
            
 24 25  0  0  0  0            999 V2000
    5.0810   -1.8750   40.4150 N   0  0  0  0  0  0  0  0  0  0  0  0
    8.6750    0.3120   36.3900 N   0  0  0  0  0  0  0  0  0  0  0  0
    5.6980   -1.1660   39.2730 C   0  0  0  0  0  0  0  0  0  0  0  0
    8.1340    0.1350   37.6260 C   0  0  0  0  0  0  0  0  0  0  0  0
    8.7790   -2.5220   34.0390 C   0  0  0  0  0  0  0  0  0  0  0  0
    8.1620   -3.4610   34.8680 C   0  0  0  0  0  0  0  0  0  0  0  0
    7.0070   -1.8360   38.9210 C   0  0  0  0  0  0  0  0  0  0  0  0
    9.0000   -1.2270   34.4560 C   0  0  0  0  0  0  0  0  0  0  0  0
    7.7460   -3.0980   36.1500 C   0  0  0  0  0  0  0  0  0  0  0  0
    8.6060   -0.8520   35.7250 C   0  0  0  0  0  0  0  0  0  0  0  0
    7.6820   -1.1770   37.7340 C   0  0  0  0  0  0  0  0  0  0  0  0
    7.9770   -1.7840   36.5490 C   0  0  0  0  0  0  0  0  0  0  0  0
    4.2146   -1.4353   40.6516 H   0  0  0  0  0  0  0  0  0  0  0  0
    4.9134   -2.8284   40.1642 H   0  0  0  0  0  0  0  0  0  0  0  0
    9.0591    1.1651   36.0368 H   0  0  0  0  0  0  0  0  0  0  0  0
    5.8668   -0.2125   39.5229 H   0  0  0  0  0  0  0  0  0  0  0  0
    5.0823   -1.2003   38.4858 H   0  0  0  0  0  0  0  0  0  0  0  0
    8.0715    0.8329   38.3395 H   0  0  0  0  0  0  0  0  0  0  0  0
    9.0673   -2.7954   33.1213 H   0  0  0  0  0  0  0  0  0  0  0  0
    8.0178   -4.3955   34.5426 H   0  0  0  0  0  0  0  0  0  0  0  0
    6.8295   -2.7950   38.6999 H   0  0  0  0  0  0  0  0  0  0  0  0
    7.6188   -1.7836   39.7102 H   0  0  0  0  0  0  0  0  0  0  0  0
    9.4402   -0.5672   33.8470 H   0  0  0  0  0  0  0  0  0  0  0  0
    7.3000   -3.7552   36.7576 H   0  0  0  0  0  0  0  0  0  0  0  0
  1  3  1  0  0  0  0
  2  4  1  0  0  0  0
  2 10  1  0  0  0  0
  3  7  1  0  0  0  0
  4 11  2  0  0  0  0
  5  6  2  0  0  0  0
  5  8  1  0  0  0  0
  6  9  1  0  0  0  0
  7 11  1  0  0  0  0
  8 10  2  0  0  0  0
  9 12  2  0  0  0  0
 10 12  1  0  0  0  0
 11 12  1  0  0  0  0
  1 13  1  0  0  0  0
  1 14  1  0  0  0  0
  2 15  1  0  0  0  0
  3 16  1  0  0  0  0
  3 17  1  0  0  0  0
  4 18  1  0  0  0  0
  5 19  1  0  0  0  0
  6 20  1  0  0  0  0
  7 21  1  0  0  0  0
  7 22  1  0  0  0  0
  8 23  1  0  0  0  0
  9 24  1  0  0  0  0
M  END
> <pdb_id>
2IUQ

> <uniprot_id>
nan

> <usmiles>
N1c2c(cccc2)C(=C1)CCN

$$$$
TSS_A_6
          07192419343D 1   1.00000     0.00000     0
            
 24 25  0  0  0  0            999 V2000
   46.3367   17.3509   52.4627 N   0  0  0  0  0  0  0  0  0  0  0  0
   45.6172   22.1447   49.0241 N   0  0  0  0  0  0  0  0  0  0  0  0
   46.5572   18.3804   51.4607 C   0  0  0  0  0  0  0  0  0  0  0  0
   45.1299   20.9504   49.4717 C   0  0  0  0  0  0  0  0  0  0  0  0
   48.1318   24.0450   51.0060 C   0  0  0  0  0  0  0  0  0  0  0  0
   48.2256   23.1391   52.0724 C   0  0  0  0  0  0  0  0  0  0  0  0
   45.4148   19.3803   51.5210 C   0  0  0  0  0  0  0  0  0  0  0  0
   47.2829   23.8136   49.9216 C   0  0  0  0  0  0  0  0  0  0  0  0
   47.4662   21.9676   52.0858 C   0  0  0  0  0  0  0  0  0  0  0  0
   46.5097   22.6579   49.8916 C   0  0  0  0  0  0  0  0  0  0  0  0
   45.7013   20.6096   50.6953 C   0  0  0  0  0  0  0  0  0  0  0  0
   46.6222   21.7167   51.0160 C   0  0  0  0  0  0  0  0  0  0  0  0
   47.0848   16.6881   52.4297 H   0  0  0  0  0  0  0  0  0  0  0  0
   46.3028   17.7704   53.3698 H   0  0  0  0  0  0  0  0  0  0  0  0
   45.3470   22.5805   48.1656 H   0  0  0  0  0  0  0  0  0  0  0  0
   46.5901   17.9631   50.5525 H   0  0  0  0  0  0  0  0  0  0  0  0
   47.4220   18.8476   51.6444 H   0  0  0  0  0  0  0  0  0  0  0  0
   44.4541   20.3955   48.9866 H   0  0  0  0  0  0  0  0  0  0  0  0
   48.6863   24.8771   51.0225 H   0  0  0  0  0  0  0  0  0  0  0  0
   48.8444   23.3348   52.8332 H   0  0  0  0  0  0  0  0  0  0  0  0
   45.2750   19.6548   52.4724 H   0  0  0  0  0  0  0  0  0  0  0  0
   44.5844   18.9441   51.1745 H   0  0  0  0  0  0  0  0  0  0  0  0
   47.2314   24.4738   49.1723 H   0  0  0  0  0  0  0  0  0  0  0  0
   47.5300   21.3250   52.8493 H   0  0  0  0  0  0  0  0  0  0  0  0
  1  3  1  0  0  0  0
  2  4  1  0  0  0  0
  2 10  1  0  0  0  0
  3  7  1  0  0  0  0
  4 11  2  0  0  0  0
  5  6  2  0  0  0  0
  5  8  1  0  0  0  0
  6  9  1  0  0  0  0
  7 11  1  0  0  0  0
  8 10  2  0  0  0  0
  9 12  2  0  0  0  0
 10 12  1  0  0  0  0
 11 12  1  0  0  0  0
  1 13  1  0  0  0  0
  1 14  1  0  0  0  0
  2 15  1  0  0  0  0
  3 16  1  0  0  0  0
  3 17  1  0  0  0  0
  4 18  1  0  0  0  0
  5 19  1  0  0  0  0
  6 20  1  0  0  0  0
  7 21  1  0  0  0  0
  7 22  1  0  0  0  0
  8 23  1  0  0  0  0
  9 24  1  0  0  0  0
M  END
> <pdb_id>
3RXI

> <uniprot_id>
P00760

> <usmiles>
N1c2c(cccc2)C(=C1)CCN

$$$$
TT2_A_1
          07202400393D 1   1.00000     0.00000     0
            
 90 95  0  0  0  0            999 V2000
   17.5860    8.5260   19.1860 O   0  0  0  0  0  0  0  0  0  0  0  0
   15.6120    4.8380   18.2500 O   0  0  0  0  0  0  0  0  0  0  0  0
   11.1670   -1.0880   27.6880 O   0  0  0  0  0  0  0  0  0  0  0  0
   15.9260    0.4340   27.6630 C   0  0  0  0  0  0  0  0  0  0  0  0
   14.9750    7.3380   17.1730 C   0  0  0  0  0  0  0  0  0  0  0  0
   14.2950    3.4810   24.6210 C   0  0  0  0  0  0  0  0  0  0  0  0
   12.6330    1.1970   26.8700 C   0  0  0  0  0  0  0  0  0  0  0  0
   14.2070    6.3840   26.1540 C   0  0  0  0  0  0  0  0  0  0  0  0
   13.7610    1.5620   27.4890 C   0  0  0  0  0  0  0  0  0  0  0  0
   11.2630    1.2800   27.4660 C   0  0  0  0  0  0  0  0  0  0  0  0
   15.5020    6.9760   25.5310 C   0  0  0  0  0  0  0  0  0  0  0  0
   15.8380    7.2460   22.4820 C   0  0  0  0  0  0  0  0  0  0  0  0
   16.1850    6.0550   23.2760 C   0  0  0  0  0  0  0  0  0  0  0  0
   17.1930    2.5070   25.7780 C   0  0  0  0  0  0  0  0  0  0  0  0
   17.3940    3.6640   24.8130 C   0  0  0  0  0  0  0  0  0  0  0  0
   15.4810    8.4780   20.3600 C   0  0  0  0  0  0  0  0  0  0  0  0
   16.0440    5.8570   20.3630 C   0  0  0  0  0  0  0  0  0  0  0  0
    6.6000    1.0110   29.0510 C   0  0  0  0  0  0  0  0  0  0  0  0
    6.6750   -1.5240   28.7690 C   0  0  0  0  0  0  0  0  0  0  0  0
    6.0800   -0.0380   26.7870 C   0  0  0  0  0  0  0  0  0  0  0  0
   14.3500    4.9310   26.7470 C   0  0  0  0  0  0  0  0  0  0  0  0
    8.8250   -0.1980   29.1280 C   0  0  0  0  0  0  0  0  0  0  0  0
    8.2340    1.2820   27.1200 C   0  0  0  0  0  0  0  0  0  0  0  0
    8.3280   -1.2460   26.8610 C   0  0  0  0  0  0  0  0  0  0  0  0
   16.1690    8.4970   18.9880 C   0  0  2  0  0  0  0  0  0  0  0  0
   16.2610    5.9630   18.8380 C   0  0  2  0  0  0  0  0  0  0  0  0
   15.1010    1.4200   26.8160 C   0  0  1  0  0  0  0  0  0  0  0  0
   10.4660    0.0230   27.1370 C   0  0  2  0  0  0  0  0  0  0  0  0
   15.8130    7.2000   21.1350 C   0  0  0  0  0  0  0  0  0  0  0  0
    7.3130   -0.3010   29.5040 C   0  0  3  0  0  0  0  0  0  0  0  0
    6.7200    1.1920   27.5040 C   0  0  3  0  0  0  0  0  0  0  0  0
    6.8080   -1.3500   27.2230 C   0  0  3  0  0  0  0  0  0  0  0  0
   15.7640    7.2570   18.2570 C   0  0  0  0  0  0  0  0  0  0  0  0
   16.0810    5.9460   24.6180 C   0  0  0  0  0  0  0  0  0  0  0  0
   15.8680    2.7500   26.5630 C   0  0  2  0  0  0  0  0  0  0  0  0
   16.4500    4.7070   25.3790 C   0  0  1  0  0  0  0  0  0  0  0  0
   15.1690    3.9440   25.8290 C   0  0  1  0  0  0  0  0  0  0  0  0
    8.9910   -0.0140   27.5720 C   0  0  3  0  0  0  0  0  0  0  0  0
   18.0464    8.5386   18.2984 H   0  0  0  0  0  0  0  0  0  0  0  0
   15.7283    4.8673   17.2572 H   0  0  0  0  0  0  0  0  0  0  0  0
   10.6667   -1.9304   27.4878 H   0  0  0  0  0  0  0  0  0  0  0  0
   16.8276    0.3115   27.2481 H   0  0  0  0  0  0  0  0  0  0  0  0
   16.0317    0.7972   28.5887 H   0  0  0  0  0  0  0  0  0  0  0  0
   15.4546   -0.4471   27.7024 H   0  0  0  0  0  0  0  0  0  0  0  0
   14.7063    6.5064   16.6869 H   0  0  0  0  0  0  0  0  0  0  0  0
   14.6562    8.2299   16.8521 H   0  0  0  0  0  0  0  0  0  0  0  0
   14.8242    2.8564   24.0467 H   0  0  0  0  0  0  0  0  0  0  0  0
   13.4794    3.0120   24.9600 H   0  0  0  0  0  0  0  0  0  0  0  0
   14.0216    4.2780   24.0825 H   0  0  0  0  0  0  0  0  0  0  0  0
   12.7111    0.8418   25.9385 H   0  0  0  0  0  0  0  0  0  0  0  0
   13.5047    6.3598   25.4425 H   0  0  0  0  0  0  0  0  0  0  0  0
   13.9132    6.9916   26.8919 H   0  0  0  0  0  0  0  0  0  0  0  0
   13.7139    1.9359   28.4153 H   0  0  0  0  0  0  0  0  0  0  0  0
   10.7891    2.0780   27.0937 H   0  0  0  0  0  0  0  0  0  0  0  0
   11.3401    1.3713   28.4588 H   0  0  0  0  0  0  0  0  0  0  0  0
   16.1570    7.1969   26.2536 H   0  0  0  0  0  0  0  0  0  0  0  0
   15.2834    7.8040   25.0147 H   0  0  0  0  0  0  0  0  0  0  0  0
   15.6175    8.1021   22.9494 H   0  0  0  0  0  0  0  0  0  0  0  0
   16.5272    5.2581   22.7782 H   0  0  0  0  0  0  0  0  0  0  0  0
   17.9612    2.4618   26.4167 H   0  0  0  0  0  0  0  0  0  0  0  0
   17.1319    1.6485   25.2688 H   0  0  0  0  0  0  0  0  0  0  0  0
   17.1382    3.4091   23.8805 H   0  0  0  0  0  0  0  0  0  0  0  0
   18.3407    3.9861   24.8227 H   0  0  0  0  0  0  0  0  0  0  0  0
   14.4911    8.5304   20.2281 H   0  0  0  0  0  0  0  0  0  0  0  0
   15.7891    9.2685   20.8892 H   0  0  0  0  0  0  0  0  0  0  0  0
   16.8525    5.4176   20.7544 H   0  0  0  0  0  0  0  0  0  0  0  0
   15.2431    5.2780   20.5157 H   0  0  0  0  0  0  0  0  0  0  0  0
    7.0261    1.7918   29.5078 H   0  0  0  0  0  0  0  0  0  0  0  0
    5.6334    0.9642   29.3030 H   0  0  0  0  0  0  0  0  0  0  0  0
    5.7072   -1.5882   29.0126 H   0  0  0  0  0  0  0  0  0  0  0  0
    7.1455   -2.3607   29.0494 H   0  0  0  0  0  0  0  0  0  0  0  0
    6.1653    0.0746   25.7970 H   0  0  0  0  0  0  0  0  0  0  0  0
    5.1128   -0.0985   27.0335 H   0  0  0  0  0  0  0  0  0  0  0  0
   13.4336    4.5525   26.8774 H   0  0  0  0  0  0  0  0  0  0  0  0
   14.8128    4.9959   27.6311 H   0  0  0  0  0  0  0  0  0  0  0  0
    9.2934   -1.0343   29.4130 H   0  0  0  0  0  0  0  0  0  0  0  0
    9.2289    0.5869   29.5978 H   0  0  0  0  0  0  0  0  0  0  0  0
    8.6416    2.0759   27.5712 H   0  0  0  0  0  0  0  0  0  0  0  0
    8.3169    1.3831   26.1286 H   0  0  0  0  0  0  0  0  0  0  0  0
    8.4222   -1.1422   25.8709 H   0  0  0  0  0  0  0  0  0  0  0  0
    8.7922   -2.0818   27.1542 H   0  0  0  0  0  0  0  0  0  0  0  0
   15.8806    9.3047   18.4738 H   0  0  0  0  0  0  0  0  0  0  0  0
   17.2414    5.8919   18.6543 H   0  0  0  0  0  0  0  0  0  0  0  0
   14.9446    0.9913   25.9262 H   0  0  0  0  0  0  0  0  0  0  0  0
   10.4819   -0.0832   26.1428 H   0  0  0  0  0  0  0  0  0  0  0  0
    7.2175   -0.4135   30.4930 H   0  0  0  0  0  0  0  0  0  0  0  0
    6.2498    2.0290   27.2240 H   0  0  0  0  0  0  0  0  0  0  0  0
    6.4008   -2.1353   26.7566 H   0  0  0  0  0  0  0  0  0  0  0  0
   16.1356    3.0937   27.4631 H   0  0  0  0  0  0  0  0  0  0  0  0
   16.8805    5.0287   26.2223 H   0  0  0  0  0  0  0  0  0  0  0  0
  1 25  1  0  0  0  0
  2 26  1  0  0  0  0
  3 28  1  0  0  0  0
  4 27  1  0  0  0  0
  5 33  2  0  0  0  0
  6 37  1  0  0  0  0
  7  9  2  0  0  0  0
  7 10  1  0  0  0  0
  8 11  1  0  0  0  0
  8 21  1  0  0  0  0
  9 27  1  0  0  0  0
 10 28  1  0  0  0  0
 11 34  1  0  0  0  0
 12 13  1  0  0  0  0
 12 29  2  0  0  0  0
 13 34  2  0  0  0  0
 14 15  1  0  0  0  0
 14 35  1  0  0  0  0
 15 36  1  0  0  0  0
 16 25  1  0  0  0  0
 16 29  1  0  0  0  0
 17 26  1  0  0  0  0
 17 29  1  0  0  0  0
 18 30  1  0  0  0  0
 18 31  1  0  0  0  0
 19 30  1  0  0  0  0
 19 32  1  0  0  0  0
 20 31  1  0  0  0  0
 20 32  1  0  0  0  0
 21 37  1  0  0  0  0
 22 30  1  0  0  0  0
 22 38  1  0  0  0  0
 23 31  1  0  0  0  0
 23 38  1  0  0  0  0
 24 32  1  0  0  0  0
 24 38  1  0  0  0  0
 25 33  1  0  0  0  0
 26 33  1  0  0  0  0
 27 35  1  0  0  0  0
 28 38  1  0  0  0  0
 34 36  1  0  0  0  0
 35 37  1  0  0  0  0
 36 37  1  0  0  0  0
  1 39  1  0  0  0  0
  2 40  1  0  0  0  0
  3 41  1  0  0  0  0
  4 42  1  0  0  0  0
  4 43  1  0  0  0  0
  4 44  1  0  0  0  0
  5 45  1  0  0  0  0
  5 46  1  0  0  0  0
  6 47  1  0  0  0  0
  6 48  1  0  0  0  0
  6 49  1  0  0  0  0
  7 50  1  0  0  0  0
  8 51  1  0  0  0  0
  8 52  1  0  0  0  0
  9 53  1  0  0  0  0
 10 54  1  0  0  0  0
 10 55  1  0  0  0  0
 11 56  1  0  0  0  0
 11 57  1  0  0  0  0
 12 58  1  0  0  0  0
 13 59  1  0  0  0  0
 14 60  1  0  0  0  0
 14 61  1  0  0  0  0
 15 62  1  0  0  0  0
 15 63  1  0  0  0  0
 16 64  1  0  0  0  0
 16 65  1  0  0  0  0
 17 66  1  0  0  0  0
 17 67  1  0  0  0  0
 18 68  1  0  0  0  0
 18 69  1  0  0  0  0
 19 70  1  0  0  0  0
 19 71  1  0  0  0  0
 20 72  1  0  0  0  0
 20 73  1  0  0  0  0
 21 74  1  0  0  0  0
 21 75  1  0  0  0  0
 22 76  1  0  0  0  0
 22 77  1  0  0  0  0
 23 78  1  0  0  0  0
 23 79  1  0  0  0  0
 24 80  1  0  0  0  0
 24 81  1  0  0  0  0
 25 82  1  0  0  0  0
 26 83  1  0  0  0  0
 27 84  1  0  0  0  0
 28 85  1  0  0  0  0
 30 86  1  0  0  0  0
 31 87  1  0  0  0  0
 32 88  1  0  0  0  0
 35 89  1  0  0  0  0
 36 90  1  0  0  0  0
M  END
> <pdb_id>
2ZMI

> <uniprot_id>
P13053

> <usmiles>
O[C@H]1C(=C)[C@H](O)CC(=C/C=C\2/[C@H]3[C@@]([C@@H]([C@H](/C=C/C[C@@H](O)C45CC6CC(C4)CC(C5)C6)C)CC3)(CCC2)C)C1

$$$$
TTZ_A_1548
          07192421313D 1   1.00000     0.00000     0
            
 47 49  0  0  0  0            999 V2000
   20.6080   47.6470   10.9290 S   0  0  0  0  0  0  0  0  0  0  0  0
   20.0460   52.1800    6.0660 O   0  0  0  0  0  0  0  0  0  0  0  0
   18.2810   51.2980   13.3990 O   0  0  0  0  0  0  0  0  0  0  0  0
   16.3560   49.4790   10.6000 O   0  0  0  0  0  0  0  0  0  0  0  0
   18.9300   46.0980   13.5740 O   0  0  0  0  0  0  0  0  0  0  0  0
   14.9610   49.5050    8.1330 O   0  0  0  0  0  0  0  0  0  0  0  0
   16.3740   50.2980    5.8060 O   0  0  0  0  0  0  0  0  0  0  0  0
   17.4540   48.8410   14.3800 O   0  0  0  0  0  0  0  0  0  0  0  0
   20.7330   49.5590   15.2990 O   0  0  0  0  0  0  0  0  0  0  0  0
   18.5970   51.5120    8.4720 O   0  0  0  0  0  0  0  0  0  0  0  0
   19.0360   49.5190    9.6890 N   0  0  0  0  0  0  0  0  0  0  0  0
   19.9540   49.9060   11.7260 N   0  0  0  0  0  0  0  0  0  0  0  0
   18.6170   52.0520    6.1390 C   0  0  0  0  0  0  0  0  0  0  0  0
   19.2280   51.0070   14.3830 C   0  0  0  0  0  0  0  0  0  0  0  0
   19.8170   49.1480   10.7310 C   0  0  0  0  0  0  0  0  0  0  0  0
   20.4990   47.8260   12.7000 C   0  0  2  0  0  0  0  0  0  0  0  0
   18.2200   50.7120    9.6220 C   0  0  2  0  0  0  0  0  0  0  0  0
   16.7190   50.3610    9.5390 C   0  0  1  0  0  0  0  0  0  0  0  0
   19.1000   47.4780   13.2400 C   0  0  2  0  0  0  0  0  0  0  0  0
   16.3440   49.7330    8.2020 C   0  0  2  0  0  0  0  0  0  0  0  0
   16.7520   50.7220    7.1120 C   0  0  1  0  0  0  0  0  0  0  0  0
   18.8280   48.4500   14.4000 C   0  0  1  0  0  0  0  0  0  0  0  0
   18.2480   51.0000    7.1790 C   0  0  2  0  0  0  0  0  0  0  0  0
   20.5830   49.3300   12.9420 C   0  0  2  0  0  0  0  0  0  0  0  0
   19.8100   49.6160   14.2360 C   0  0  2  0  0  0  0  0  0  0  0  0
   20.2844   52.8706    5.3831 H   0  0  0  0  0  0  0  0  0  0  0  0
   17.9283   52.2232   13.5391 H   0  0  0  0  0  0  0  0  0  0  0  0
   15.3824   49.2606   10.5336 H   0  0  0  0  0  0  0  0  0  0  0  0
   18.0020   45.9496   13.9157 H   0  0  0  0  0  0  0  0  0  0  0  0
   14.7347   49.0934    7.2502 H   0  0  0  0  0  0  0  0  0  0  0  0
   16.6654   50.9812    5.1364 H   0  0  0  0  0  0  0  0  0  0  0  0
   17.2763   49.4732   15.1342 H   0  0  0  0  0  0  0  0  0  0  0  0
   21.1859   48.6674   15.2997 H   0  0  0  0  0  0  0  0  0  0  0  0
   19.0219   48.9134    8.8934 H   0  0  0  0  0  0  0  0  0  0  0  0
   18.2619   51.7755    5.2460 H   0  0  0  0  0  0  0  0  0  0  0  0
   18.2173   52.9310    6.3990 H   0  0  0  0  0  0  0  0  0  0  0  0
   18.7910   51.0785   15.2796 H   0  0  0  0  0  0  0  0  0  0  0  0
   19.9708   51.6736   14.3201 H   0  0  0  0  0  0  0  0  0  0  0  0
   21.2227   47.3258   13.1755 H   0  0  0  0  0  0  0  0  0  0  0  0
   18.3756   51.2511   10.4497 H   0  0  0  0  0  0  0  0  0  0  0  0
   16.1952   51.2064    9.6438 H   0  0  0  0  0  0  0  0  0  0  0  0
   18.4429   47.6900   12.5166 H   0  0  0  0  0  0  0  0  0  0  0  0
   16.8370   48.8714    8.0810 H   0  0  0  0  0  0  0  0  0  0  0  0
   16.2785   51.5833    7.2963 H   0  0  0  0  0  0  0  0  0  0  0  0
   19.0196   47.9845   15.2641 H   0  0  0  0  0  0  0  0  0  0  0  0
   18.7561   50.1572    7.0014 H   0  0  0  0  0  0  0  0  0  0  0  0
   21.5351   49.6246   13.0237 H   0  0  0  0  0  0  0  0  0  0  0  0
  1 15  1  0  0  0  0
  1 16  1  0  0  0  0
  2 13  1  0  0  0  0
  3 14  1  0  0  0  0
  4 18  1  0  0  0  0
  5 19  1  0  0  0  0
  6 20  1  0  0  0  0
  7 21  1  0  0  0  0
  8 22  1  0  0  0  0
  9 25  1  0  0  0  0
 10 17  1  0  0  0  0
 10 23  1  0  0  0  0
 11 15  1  0  0  0  0
 11 17  1  0  0  0  0
 12 15  2  0  0  0  0
 12 24  1  0  0  0  0
 13 23  1  0  0  0  0
 14 25  1  0  0  0  0
 16 19  1  0  0  0  0
 16 24  1  0  0  0  0
 17 18  1  0  0  0  0
 18 20  1  0  0  0  0
 19 22  1  0  0  0  0
 20 21  1  0  0  0  0
 21 23  1  0  0  0  0
 22 25  1  0  0  0  0
 24 25  1  0  0  0  0
  2 26  1  0  0  0  0
  3 27  1  0  0  0  0
  4 28  1  0  0  0  0
  5 29  1  0  0  0  0
  6 30  1  0  0  0  0
  7 31  1  0  0  0  0
  8 32  1  0  0  0  0
  9 33  1  0  0  0  0
 11 34  1  0  0  0  0
 13 35  1  0  0  0  0
 13 36  1  0  0  0  0
 14 37  1  0  0  0  0
 14 38  1  0  0  0  0
 16 39  1  0  0  0  0
 17 40  1  0  0  0  0
 18 41  1  0  0  0  0
 19 42  1  0  0  0  0
 20 43  1  0  0  0  0
 21 44  1  0  0  0  0
 22 45  1  0  0  0  0
 23 46  1  0  0  0  0
 24 47  1  0  0  0  0
M  END
> <pdb_id>
2JG0

> <uniprot_id>
P13482

> <usmiles>
S1C(=N[C@H]2[C@](O)([C@@H](O)[C@H](O)[C@@H]12)CO)N[C@H]3O[C@@H]([C@@H](O)[C@H](O)[C@H]3O)CO

$$$$
TV2_A_1224
          07192420423D 1   1.00000     0.00000     0
            
 37 41  0  0  0  0            999 V2000
   73.4107   30.3964   24.1756 O   0  0  0  0  0  0  0  0  0  0  0  0
   71.1521   30.2045   24.0785 O   0  0  0  0  0  0  0  0  0  0  0  0
   65.1110   33.2602   25.3809 N   0  0  0  0  0  0  0  0  0  0  0  0
   67.3917   33.9248   25.5163 N   0  0  0  0  0  0  0  0  0  0  0  0
   66.0950   34.6270   23.7274 N   0  0  0  0  0  0  0  0  0  0  0  0
   69.9230   35.9450   23.8135 N   0  0  0  0  0  0  0  0  0  0  0  0
   68.0848   34.7514   24.6330 N   0  0  0  0  0  0  0  0  0  0  0  0
   72.3662   29.4809   23.7907 C   0  0  0  0  0  0  0  0  0  0  0  0
   68.9780   37.6264   20.6663 C   0  0  0  0  0  0  0  0  0  0  0  0
   67.6438   37.2368   20.5437 C   0  0  0  0  0  0  0  0  0  0  0  0
   73.4118   32.7280   25.1143 C   0  0  0  0  0  0  0  0  0  0  0  0
   69.7395   37.1919   21.7528 C   0  0  0  0  0  0  0  0  0  0  0  0
   72.5433   33.7662   25.5167 C   0  0  0  0  0  0  0  0  0  0  0  0
   67.0715   36.3956   21.5065 C   0  0  0  0  0  0  0  0  0  0  0  0
   70.5716   32.4119   24.9798 C   0  0  0  0  0  0  0  0  0  0  0  0
   70.2180   34.6953   25.9201 C   0  0  0  0  0  0  0  0  0  0  0  0
   66.1883   33.9200   24.8814 C   0  0  0  0  0  0  0  0  0  0  0  0
   72.8174   31.5580   24.6449 C   0  0  0  0  0  0  0  0  0  0  0  0
   71.4594   31.4254   24.5730 C   0  0  0  0  0  0  0  0  0  0  0  0
   69.3690   35.1445   24.7610 C   0  0  0  0  0  0  0  0  0  0  0  0
   67.3358   35.1531   23.5970 C   0  0  0  0  0  0  0  0  0  0  0  0
   69.1720   36.3728   22.7347 C   0  0  0  0  0  0  0  0  0  0  0  0
   71.1432   33.5902   25.4639 C   0  0  0  0  0  0  0  0  0  0  0  0
   67.8377   35.9692   22.5920 C   0  0  0  0  0  0  0  0  0  0  0  0
   64.2412   33.2777   24.8878 H   0  0  0  0  0  0  0  0  0  0  0  0
   65.1878   32.7570   26.2416 H   0  0  0  0  0  0  0  0  0  0  0  0
   72.4148   28.6387   24.3277 H   0  0  0  0  0  0  0  0  0  0  0  0
   72.4270   29.2596   22.8174 H   0  0  0  0  0  0  0  0  0  0  0  0
   69.3901   38.2187   19.9738 H   0  0  0  0  0  0  0  0  0  0  0  0
   67.0973   37.5574   19.7700 H   0  0  0  0  0  0  0  0  0  0  0  0
   74.4056   32.8275   25.1637 H   0  0  0  0  0  0  0  0  0  0  0  0
   70.6974   37.4682   21.8298 H   0  0  0  0  0  0  0  0  0  0  0  0
   72.9226   34.6325   25.8416 H   0  0  0  0  0  0  0  0  0  0  0  0
   66.1197   36.1024   21.4165 H   0  0  0  0  0  0  0  0  0  0  0  0
   69.5809   32.2861   24.9291 H   0  0  0  0  0  0  0  0  0  0  0  0
   69.6291   34.3563   26.6538 H   0  0  0  0  0  0  0  0  0  0  0  0
   70.7589   35.4663   26.2563 H   0  0  0  0  0  0  0  0  0  0  0  0
  1  8  1  0  0  0  0
  1 18  1  0  0  0  0
  2  8  1  0  0  0  0
  2 19  1  0  0  0  0
  3 17  1  0  0  0  0
  4  7  1  0  0  0  0
  4 17  2  0  0  0  0
  5 17  1  0  0  0  0
  5 21  2  0  0  0  0
  6 20  2  0  0  0  0
  6 22  1  0  0  0  0
  7 20  1  0  0  0  0
  7 21  1  0  0  0  0
  9 10  2  0  0  0  0
  9 12  1  0  0  0  0
 10 14  1  0  0  0  0
 11 13  2  0  0  0  0
 11 18  1  0  0  0  0
 12 22  2  0  0  0  0
 13 23  1  0  0  0  0
 14 24  2  0  0  0  0
 15 19  1  0  0  0  0
 15 23  2  0  0  0  0
 16 20  1  0  0  0  0
 16 23  1  0  0  0  0
 18 19  2  0  0  0  0
 21 24  1  0  0  0  0
 22 24  1  0  0  0  0
  3 25  1  0  0  0  0
  3 26  1  0  0  0  0
  8 27  1  0  0  0  0
  8 28  1  0  0  0  0
  9 29  1  0  0  0  0
 10 30  1  0  0  0  0
 11 31  1  0  0  0  0
 12 32  1  0  0  0  0
 13 33  1  0  0  0  0
 14 34  1  0  0  0  0
 15 35  1  0  0  0  0
 16 36  1  0  0  0  0
 16 37  1  0  0  0  0
M  END
> <pdb_id>
4CWP

> <uniprot_id>
P07900

> <usmiles>
O1c2c(OC1)ccc(c2)CC3=Nc4c(cccc4)C5=NC(=NN53)N

$$$$
TWB_A_301
          07212402403D 1   1.00000     0.00000     0
            
 31 32  0  0  0  0            999 V2000
   18.9508   16.9195   10.7484 P   0  0  0  0  0  0  0  0  0  0  0  0
   19.1273   17.2427   12.0575 O   0  0  0  0  0  0  0  0  0  0  0  0
   19.2908   15.4230   10.5017 O   0  0  0  0  0  0  0  0  0  0  0  0
   17.5402   17.2444   10.2279 O   0  0  0  0  0  0  0  0  0  0  0  0
   18.0629   18.5556    5.5512 O   0  0  0  0  0  0  0  0  0  0  0  0
   19.4159   16.9295    5.5979 O   0  0  0  0  0  0  0  0  0  0  0  0
   22.1763   12.9317    5.6463 C   0  0  0  0  0  0  0  0  0  0  0  0
   22.9388   13.5069    8.4047 C   0  0  0  0  0  0  0  0  0  0  0  0
   20.1892   17.8933    9.7176 C   0  0  0  0  0  0  0  0  0  0  0  0
   19.0738   18.2453    7.4856 C   0  0  0  0  0  0  0  0  0  0  0  0
   20.7909   15.0125    5.6896 C   0  0  0  0  0  0  0  0  0  0  0  0
   21.4514   15.5314    8.2984 C   0  0  0  0  0  0  0  0  0  0  0  0
   18.8082   17.9506    6.1770 C   0  0  0  0  0  0  0  0  0  0  0  0
   20.2833   16.1591    6.3313 C   0  0  0  0  0  0  0  0  0  0  0  0
   21.6509   14.1731    6.3639 C   0  0  0  0  0  0  0  0  0  0  0  0
   21.9817   14.4330    7.6579 C   0  0  0  0  0  0  0  0  0  0  0  0
   20.0208   17.5732    8.2195 C   0  0  0  0  0  0  0  0  0  0  0  0
   20.5853   16.4059    7.6031 C   0  0  0  0  0  0  0  0  0  0  0  0
   18.9039   18.2076   12.1957 H   0  0  0  0  0  0  0  0  0  0  0  0
   19.1551   15.2054    9.5351 H   0  0  0  0  0  0  0  0  0  0  0  0
   22.7842   12.4253    6.2579 H   0  0  0  0  0  0  0  0  0  0  0  0
   21.4077   12.3487    5.3826 H   0  0  0  0  0  0  0  0  0  0  0  0
   22.6810   13.2080    4.8284 H   0  0  0  0  0  0  0  0  0  0  0  0
   23.2272   12.7662    7.7980 H   0  0  0  0  0  0  0  0  0  0  0  0
   23.7404   14.0256    8.7020 H   0  0  0  0  0  0  0  0  0  0  0  0
   22.4755   13.1225    9.2032 H   0  0  0  0  0  0  0  0  0  0  0  0
   21.1165   17.6511   10.0029 H   0  0  0  0  0  0  0  0  0  0  0  0
   20.0404   18.8714    9.8631 H   0  0  0  0  0  0  0  0  0  0  0  0
   18.5577   18.9798    7.9262 H   0  0  0  0  0  0  0  0  0  0  0  0
   20.5277   14.8082    4.7467 H   0  0  0  0  0  0  0  0  0  0  0  0
   21.6792   15.7102    9.2556 H   0  0  0  0  0  0  0  0  0  0  0  0
  1  2  1  0  0  0  0
  1  3  1  0  0  0  0
  1  4  2  0  0  0  0
  1  9  1  0  0  0  0
  5 13  2  0  0  0  0
  6 13  1  0  0  0  0
  6 14  1  0  0  0  0
  7 15  1  0  0  0  0
  8 16  1  0  0  0  0
  9 17  1  0  0  0  0
 10 13  1  0  0  0  0
 10 17  2  0  0  0  0
 11 14  2  0  0  0  0
 11 15  1  0  0  0  0
 12 16  1  0  0  0  0
 12 18  2  0  0  0  0
 14 18  1  0  0  0  0
 15 16  2  0  0  0  0
 17 18  1  0  0  0  0
  2 19  1  0  0  0  0
  3 20  1  0  0  0  0
  7 21  1  0  0  0  0
  7 22  1  0  0  0  0
  7 23  1  0  0  0  0
  8 24  1  0  0  0  0
  8 25  1  0  0  0  0
  8 26  1  0  0  0  0
  9 27  1  0  0  0  0
  9 28  1  0  0  0  0
 10 29  1  0  0  0  0
 11 30  1  0  0  0  0
 12 31  1  0  0  0  0
M  END
> <pdb_id>
6D15

> <uniprot_id>
Q9F663

> <usmiles>
P(=O)(O)(O)CC=1c2c(OC(=O)C1)cc(c(c2)C)C

$$$$
TWH_A_301
          07192420463D 1   1.00000     0.00000     0
            
 35 37  0  0  0  0            999 V2000
    7.8674   -5.1630   16.0729 N   0  0  0  0  0  0  0  0  0  0  0  0
    6.4488   -2.9167   18.8408 N   0  0  0  0  0  0  0  0  0  0  0  0
    4.3079   -2.9522   19.7105 N   0  0  0  0  0  0  0  0  0  0  0  0
    2.6157   -4.5231   18.9979 N   0  0  0  0  0  0  0  0  0  0  0  0
    3.3563   -5.9963   17.2429 N   0  0  0  0  0  0  0  0  0  0  0  0
    4.6340   -7.1398   15.4847 N   0  0  0  0  0  0  0  0  0  0  0  0
    2.0956   -6.6984   17.0193 C   0  0  0  0  0  0  0  0  0  0  0  0
    5.3061   -5.6451   13.5823 C   0  0  0  0  0  0  0  0  0  0  0  0
    3.0851   -3.5126   19.7268 C   0  0  0  0  0  0  0  0  0  0  0  0
    6.7908   -5.2060   16.5091 C   0  0  0  0  0  0  0  0  0  0  0  0
    3.8578   -8.3624   15.3882 C   0  0  0  0  0  0  0  0  0  0  0  0
    4.6797   -9.1804   14.4364 C   0  0  0  0  0  0  0  0  0  0  0  0
    5.1826   -8.1613   13.4346 C   0  0  0  0  0  0  0  0  0  0  0  0
    5.2370   -3.4888   18.8892 C   0  0  0  0  0  0  0  0  0  0  0  0
    3.5379   -5.0140   18.1595 C   0  0  0  0  0  0  0  0  0  0  0  0
    4.5246   -6.2080   16.5438 C   0  0  0  0  0  0  0  0  0  0  0  0
    5.5228   -6.9585   14.3018 C   0  0  2  0  0  0  0  0  0  0  0  0
    5.4651   -5.3309   16.9977 C   0  0  0  0  0  0  0  0  0  0  0  0
    4.8572   -4.5504   18.0383 C   0  0  0  0  0  0  0  0  0  0  0  0
    7.1557   -3.2928   18.2418 H   0  0  0  0  0  0  0  0  0  0  0  0
    6.6456   -2.1139   19.4037 H   0  0  0  0  0  0  0  0  0  0  0  0
    2.2156   -7.3758   16.2935 H   0  0  0  0  0  0  0  0  0  0  0  0
    1.8163   -7.1585   17.8620 H   0  0  0  0  0  0  0  0  0  0  0  0
    1.3917   -6.0415   16.7491 H   0  0  0  0  0  0  0  0  0  0  0  0
    5.9295   -5.5853   12.8027 H   0  0  0  0  0  0  0  0  0  0  0  0
    4.3614   -5.5944   13.2583 H   0  0  0  0  0  0  0  0  0  0  0  0
    5.4842   -4.8876   14.2103 H   0  0  0  0  0  0  0  0  0  0  0  0
    2.4383   -3.1146   20.3774 H   0  0  0  0  0  0  0  0  0  0  0  0
    2.9451   -8.1850   15.0200 H   0  0  0  0  0  0  0  0  0  0  0  0
    3.7769   -8.8124   16.2775 H   0  0  0  0  0  0  0  0  0  0  0  0
    4.1191   -9.8762   13.9873 H   0  0  0  0  0  0  0  0  0  0  0  0
    5.4418   -9.6214   14.9105 H   0  0  0  0  0  0  0  0  0  0  0  0
    4.4728   -7.9333   12.7682 H   0  0  0  0  0  0  0  0  0  0  0  0
    5.9931   -8.4989   12.9561 H   0  0  0  0  0  0  0  0  0  0  0  0
    6.4773   -7.0214   14.5935 H   0  0  0  0  0  0  0  0  0  0  0  0
  1 10  3  0  0  0  0
  2 14  1  0  0  0  0
  3  9  2  0  0  0  0
  3 14  1  0  0  0  0
  4  9  1  0  0  0  0
  4 15  2  0  0  0  0
  5  7  1  0  0  0  0
  5 15  1  0  0  0  0
  5 16  1  0  0  0  0
  6 11  1  0  0  0  0
  6 16  1  0  0  0  0
  6 17  1  0  0  0  0
  8 17  1  0  0  0  0
 10 18  1  0  0  0  0
 11 12  1  0  0  0  0
 12 13  1  0  0  0  0
 13 17  1  0  0  0  0
 14 19  2  0  0  0  0
 15 19  1  0  0  0  0
 16 18  2  0  0  0  0
 18 19  1  0  0  0  0
  2 20  1  0  0  0  0
  2 21  1  0  0  0  0
  7 22  1  0  0  0  0
  7 23  1  0  0  0  0
  7 24  1  0  0  0  0
  8 25  1  0  0  0  0
  8 26  1  0  0  0  0
  8 27  1  0  0  0  0
  9 28  1  0  0  0  0
 11 29  1  0  0  0  0
 11 30  1  0  0  0  0
 12 31  1  0  0  0  0
 12 32  1  0  0  0  0
 13 33  1  0  0  0  0
 13 34  1  0  0  0  0
 17 35  1  0  0  0  0
M  END
> <pdb_id>
7BJR

> <uniprot_id>
O14757

> <usmiles>
N#CC=1c2c(ncnc2N)N(C1N3[C@@H](CCC3)C)C

$$$$
TWO_A_504
          07202414513D 1   1.00000     0.00000     0
            
 23 23  0  0  0  0            999 V2000
   -1.0380   13.2610  -24.2230 O   0  0  0  0  0  0  0  0  0  0  0  0
    0.0670   14.0290  -22.4580 O   0  0  0  0  0  0  0  0  0  0  0  0
   -5.6150   16.0890  -20.7400 O   0  0  0  0  0  0  0  0  0  0  0  0
   -3.1910   16.8140  -19.7970 O   0  0  0  0  0  0  0  0  0  0  0  0
   -6.9040   15.6540  -21.1320 C   0  0  0  0  0  0  0  0  0  0  0  0
   -2.5910   16.5240  -18.5600 C   0  0  0  0  0  0  0  0  0  0  0  0
   -4.6370   14.6300  -22.3880 C   0  0  0  0  0  0  0  0  0  0  0  0
   -3.5010   14.0920  -22.9860 C   0  0  0  0  0  0  0  0  0  0  0  0
   -2.1550   15.3570  -21.4140 C   0  0  0  0  0  0  0  0  0  0  0  0
   -1.0080   13.8670  -23.1020 C   0  0  0  0  0  0  0  0  0  0  0  0
   -4.5370   15.5670  -21.3340 C   0  0  0  0  0  0  0  0  0  0  0  0
   -3.2950   15.9040  -20.8210 C   0  0  0  0  0  0  0  0  0  0  0  0
   -2.2500   14.4210  -22.4830 C   0  0  0  0  0  0  0  0  0  0  0  0
   -1.9054   13.1492  -24.7079 H   0  0  0  0  0  0  0  0  0  0  0  0
   -7.5962   16.1375  -20.5962 H   0  0  0  0  0  0  0  0  0  0  0  0
   -7.0397   15.8471  -22.1038 H   0  0  0  0  0  0  0  0  0  0  0  0
   -6.9865   14.6702  -20.9729 H   0  0  0  0  0  0  0  0  0  0  0  0
   -2.6295   17.3328  -17.9731 H   0  0  0  0  0  0  0  0  0  0  0  0
   -3.0798   15.7701  -18.1210 H   0  0  0  0  0  0  0  0  0  0  0  0
   -1.6367   16.2628  -18.7055 H   0  0  0  0  0  0  0  0  0  0  0  0
   -5.5409   14.3484  -22.7100 H   0  0  0  0  0  0  0  0  0  0  0  0
   -3.5853   13.4756  -23.7689 H   0  0  0  0  0  0  0  0  0  0  0  0
   -1.2522   15.6286  -21.0806 H   0  0  0  0  0  0  0  0  0  0  0  0
  1 10  1  0  0  0  0
  2 10  2  0  0  0  0
  3  5  1  0  0  0  0
  3 11  1  0  0  0  0
  4  6  1  0  0  0  0
  4 12  1  0  0  0  0
  7  8  1  0  0  0  0
  7 11  2  0  0  0  0
  8 13  2  0  0  0  0
  9 12  2  0  0  0  0
  9 13  1  0  0  0  0
 10 13  1  0  0  0  0
 11 12  1  0  0  0  0
  1 14  1  0  0  0  0
  5 15  1  0  0  0  0
  5 16  1  0  0  0  0
  5 17  1  0  0  0  0
  6 18  1  0  0  0  0
  6 19  1  0  0  0  0
  6 20  1  0  0  0  0
  7 21  1  0  0  0  0
  8 22  1  0  0  0  0
  9 23  1  0  0  0  0
M  END
> <pdb_id>
4EGN

> <uniprot_id>
Q2IU02

> <usmiles>
O=C(O)c1cc(OC)c(OC)cc1

$$$$
TYR_A_505
          07202411493D 1   1.00000     0.00000     0
            
 23 23  0  0  0  0            999 V2000
   -2.9240   -6.8075  -47.6491 N   0  0  0  0  0  0  0  0  0  0  0  0
   -3.9591   -7.7905  -48.0063 C   0  0  2  0  0  0  0  0  0  0  0  0
   -5.0383   -7.9174  -46.9799 C   0  0  0  0  0  0  0  0  0  0  0  0
   -4.8996   -7.4387  -45.8481 O   0  0  0  0  0  0  0  0  0  0  0  0
   -3.3377   -9.1739  -48.2697 C   0  0  0  0  0  0  0  0  0  0  0  0
   -2.6729   -9.8075  -47.1188 C   0  0  0  0  0  0  0  0  0  0  0  0
   -1.3316   -9.5840  -46.8572 C   0  0  0  0  0  0  0  0  0  0  0  0
   -3.3531  -10.7021  -46.3067 C   0  0  0  0  0  0  0  0  0  0  0  0
   -0.7144  -10.1889  -45.7979 C   0  0  0  0  0  0  0  0  0  0  0  0
   -2.7239  -11.3201  -45.2442 C   0  0  0  0  0  0  0  0  0  0  0  0
   -1.4006  -11.0516  -44.9827 C   0  0  0  0  0  0  0  0  0  0  0  0
   -0.7553  -11.6805  -43.9310 O   0  0  0  0  0  0  0  0  0  0  0  0
   -6.0434   -8.5660  -47.2583 O   0  5  0  0  0  0  0  0  0  0  0  0
   -3.3514   -5.9188  -47.4831 H   0  0  0  0  0  0  0  0  0  0  0  0
   -2.4495   -7.1088  -46.8220 H   0  0  0  0  0  0  0  0  0  0  0  0
   -4.3859   -7.4841  -48.8572 H   0  0  0  0  0  0  0  0  0  0  0  0
   -2.6598   -9.0721  -48.9978 H   0  0  0  0  0  0  0  0  0  0  0  0
   -4.0675   -9.7846  -48.5768 H   0  0  0  0  0  0  0  0  0  0  0  0
   -0.8080   -8.9726  -47.4505 H   0  0  0  0  0  0  0  0  0  0  0  0
   -4.3147  -10.9030  -46.4935 H   0  0  0  0  0  0  0  0  0  0  0  0
    0.2504   -9.9997  -45.6152 H   0  0  0  0  0  0  0  0  0  0  0  0
   -3.2290  -11.9612  -44.6665 H   0  0  0  0  0  0  0  0  0  0  0  0
   -1.2596  -12.3089  -43.3389 H   0  0  0  0  0  0  0  0  0  0  0  0
  1  2  1  0  0  0  0
  2  5  1  0  0  0  0
  2  3  1  0  0  0  0
  5  6  1  0  0  0  0
  6  7  2  0  0  0  0
  6  8  1  0  0  0  0
  7  9  1  0  0  0  0
  9 11  2  0  0  0  0
 11 12  1  0  0  0  0
 11 10  1  0  0  0  0
 10  8  2  0  0  0  0
  3  4  2  0  0  0  0
  3 13  1  0  0  0  0
  1 14  1  0  0  0  0
  1 15  1  0  0  0  0
  2 16  1  0  0  0  0
  5 17  1  0  0  0  0
  5 18  1  0  0  0  0
  7 19  1  0  0  0  0
  8 20  1  0  0  0  0
  9 21  1  0  0  0  0
 10 22  1  0  0  0  0
 12 23  1  0  0  0  0
M  CHG  1  13  -1
M  END
> <pdb_id>
5UXN

> <uniprot_id>
Q9I000

> <usmiles>
[O-]C(=O)[C@@H](N)Cc1ccc(O)cc1

$$$$
TYR_A_952
          07202411083D 1   1.00000     0.00000     0
            
 23 23  0  0  0  0            999 V2000
  -35.4250    3.3566  -12.8100 N   0  0  0  0  0  0  0  0  0  0  0  0
  -34.6849    3.0505  -11.5498 C   0  0  2  0  0  0  0  0  0  0  0  0
  -33.2840    3.6459  -11.6222 C   0  0  0  0  0  0  0  0  0  0  0  0
  -32.5766    3.6078  -10.5948 O   0  0  0  0  0  0  0  0  0  0  0  0
  -34.5784    1.5346  -11.3470 C   0  0  0  0  0  0  0  0  0  0  0  0
  -35.9084    0.8194  -11.3432 C   0  0  0  0  0  0  0  0  0  0  0  0
  -36.9094    1.1756  -10.4415 C   0  0  0  0  0  0  0  0  0  0  0  0
  -36.1690   -0.2124  -12.2441 C   0  0  0  0  0  0  0  0  0  0  0  0
  -38.1374    0.5218  -10.4361 C   0  0  0  0  0  0  0  0  0  0  0  0
  -37.3929   -0.8707  -12.2457 C   0  0  0  0  0  0  0  0  0  0  0  0
  -38.3713   -0.4998  -11.3403 C   0  0  0  0  0  0  0  0  0  0  0  0
  -39.5844   -1.1582  -11.3350 O   0  0  0  0  0  0  0  0  0  0  0  0
  -32.9091    4.1204  -12.7151 O   0  5  0  0  0  0  0  0  0  0  0  0
  -35.4862    4.3477  -12.9283 H   0  0  0  0  0  0  0  0  0  0  0  0
  -34.9388    2.9576  -13.5874 H   0  0  0  0  0  0  0  0  0  0  0  0
  -35.1735    3.4525  -10.7754 H   0  0  0  0  0  0  0  0  0  0  0  0
  -34.1282    1.3658  -10.4701 H   0  0  0  0  0  0  0  0  0  0  0  0
  -34.0206    1.1571  -12.0861 H   0  0  0  0  0  0  0  0  0  0  0  0
  -36.7423    1.9134   -9.7874 H   0  0  0  0  0  0  0  0  0  0  0  0
  -35.4639   -0.4830  -12.8996 H   0  0  0  0  0  0  0  0  0  0  0  0
  -38.8466    0.7882   -9.7832 H   0  0  0  0  0  0  0  0  0  0  0  0
  -37.5657   -1.6088  -12.8980 H   0  0  0  0  0  0  0  0  0  0  0  0
  -39.7554   -1.8966  -11.9874 H   0  0  0  0  0  0  0  0  0  0  0  0
  1  2  1  0  0  0  0
  2  5  1  0  0  0  0
  2  3  1  0  0  0  0
  5  6  1  0  0  0  0
  6  7  2  0  0  0  0
  6  8  1  0  0  0  0
  7  9  1  0  0  0  0
  9 11  2  0  0  0  0
 11 12  1  0  0  0  0
 11 10  1  0  0  0  0
 10  8  2  0  0  0  0
  3  4  2  0  0  0  0
  3 13  1  0  0  0  0
  1 14  1  0  0  0  0
  1 15  1  0  0  0  0
  2 16  1  0  0  0  0
  5 17  1  0  0  0  0
  5 18  1  0  0  0  0
  7 19  1  0  0  0  0
  8 20  1  0  0  0  0
  9 21  1  0  0  0  0
 10 22  1  0  0  0  0
 12 23  1  0  0  0  0
M  CHG  1  13  -1
M  END
> <pdb_id>
1X8X

> <uniprot_id>
P00951

> <usmiles>
[O-]C(=O)[C@@H](N)Cc1ccc(O)cc1

$$$$
TZ7_A_1901
          07202414183D 1   1.00000     0.00000     0
            
 41 43  0  0  0  0            999 V2000
    4.7060   46.9190   20.1090 S   0  0  0  0  0  0  0  0  0  0  0  0
    7.4200   49.8890   23.8650 O   0  0  0  0  0  0  0  0  0  0  0  0
    4.5370   41.9370   17.0250 O   0  0  0  0  0  0  0  0  0  0  0  0
    6.8120   48.9290   21.9670 N   0  0  0  0  0  0  0  0  0  0  0  0
    5.4850   50.1170   20.3850 N   0  0  0  0  0  0  0  0  0  0  0  0
    3.8080   52.2540   19.5390 C   0  0  0  0  0  0  0  0  0  0  0  0
    6.2270   47.8340   19.7890 C   0  0  0  0  0  0  0  0  0  0  0  0
    5.0940   53.3710   22.9740 C   0  0  0  0  0  0  0  0  0  0  0  0
    5.2740   45.4640   17.8570 C   0  0  0  0  0  0  0  0  0  0  0  0
    3.8390   44.4180   19.7070 C   0  0  0  0  0  0  0  0  0  0  0  0
    5.6160   44.0680   17.3460 C   0  0  0  0  0  0  0  0  0  0  0  0
    4.1900   43.0330   19.1630 C   0  0  0  0  0  0  0  0  0  0  0  0
    4.4270   53.3670   21.7310 C   0  0  0  0  0  0  0  0  0  0  0  0
    5.9160   52.3000   23.3200 C   0  0  0  0  0  0  0  0  0  0  0  0
    6.8560   49.9860   22.8120 C   0  0  0  0  0  0  0  0  0  0  0  0
    5.0350   45.3290   19.3790 C   0  0  0  0  0  0  0  0  0  0  0  0
    6.1730   49.0190   20.7520 C   0  0  0  0  0  0  0  0  0  0  0  0
    4.3940   43.1920   17.6490 C   0  0  0  0  0  0  0  0  0  0  0  0
    5.3610   51.1960   21.2080 C   0  0  0  0  0  0  0  0  0  0  0  0
    4.5390   52.2890   20.8500 C   0  0  0  0  0  0  0  0  0  0  0  0
    6.0390   51.2000   22.4680 C   0  0  0  0  0  0  0  0  0  0  0  0
    3.7373   41.3714   17.2266 H   0  0  0  0  0  0  0  0  0  0  0  0
    7.2507   48.0697   22.2301 H   0  0  0  0  0  0  0  0  0  0  0  0
    4.0215   51.4020   19.0609 H   0  0  0  0  0  0  0  0  0  0  0  0
    2.8232   52.3053   19.7050 H   0  0  0  0  0  0  0  0  0  0  0  0
    4.0924   53.0314   18.9779 H   0  0  0  0  0  0  0  0  0  0  0  0
    6.2558   48.1505   18.8409 H   0  0  0  0  0  0  0  0  0  0  0  0
    7.0276   47.2643   19.9747 H   0  0  0  0  0  0  0  0  0  0  0  0
    4.9776   54.1388   23.6040 H   0  0  0  0  0  0  0  0  0  0  0  0
    4.4484   45.8040   17.4066 H   0  0  0  0  0  0  0  0  0  0  0  0
    6.0323   46.0916   17.6808 H   0  0  0  0  0  0  0  0  0  0  0  0
    3.6975   44.3755   20.6960 H   0  0  0  0  0  0  0  0  0  0  0  0
    3.0103   44.7630   19.2662 H   0  0  0  0  0  0  0  0  0  0  0  0
    6.4228   43.7135   17.8187 H   0  0  0  0  0  0  0  0  0  0  0  0
    5.7902   44.0919   16.3616 H   0  0  0  0  0  0  0  0  0  0  0  0
    3.4442   42.3922   19.3448 H   0  0  0  0  0  0  0  0  0  0  0  0
    5.0294   42.6974   19.5905 H   0  0  0  0  0  0  0  0  0  0  0  0
    3.8625   54.1519   21.4754 H   0  0  0  0  0  0  0  0  0  0  0  0
    6.4206   52.3192   24.1831 H   0  0  0  0  0  0  0  0  0  0  0  0
    5.8566   44.9454   19.8007 H   0  0  0  0  0  0  0  0  0  0  0  0
    3.5849   43.6405   17.2691 H   0  0  0  0  0  0  0  0  0  0  0  0
  1  7  1  0  0  0  0
  1 16  1  0  0  0  0
  2 15  2  0  0  0  0
  3 18  1  0  0  0  0
  4 15  1  0  0  0  0
  4 17  1  0  0  0  0
  5 17  2  0  0  0  0
  5 19  1  0  0  0  0
  6 20  1  0  0  0  0
  7 17  1  0  0  0  0
  8 13  2  0  0  0  0
  8 14  1  0  0  0  0
  9 11  1  0  0  0  0
  9 16  1  0  0  0  0
 10 12  1  0  0  0  0
 10 16  1  0  0  0  0
 11 18  1  0  0  0  0
 12 18  1  0  0  0  0
 13 20  1  0  0  0  0
 14 21  2  0  0  0  0
 15 21  1  0  0  0  0
 19 20  2  0  0  0  0
 19 21  1  0  0  0  0
  3 22  1  0  0  0  0
  4 23  1  0  0  0  0
  6 24  1  0  0  0  0
  6 25  1  0  0  0  0
  6 26  1  0  0  0  0
  7 27  1  0  0  0  0
  7 28  1  0  0  0  0
  8 29  1  0  0  0  0
  9 30  1  0  0  0  0
  9 31  1  0  0  0  0
 10 32  1  0  0  0  0
 10 33  1  0  0  0  0
 11 34  1  0  0  0  0
 11 35  1  0  0  0  0
 12 36  1  0  0  0  0
 12 37  1  0  0  0  0
 13 38  1  0  0  0  0
 14 39  1  0  0  0  0
 16 40  1  0  0  0  0
 18 41  1  0  0  0  0
M  END
> <pdb_id>
6WE3

> <uniprot_id>
Q460N5

> <usmiles>
S(C1CCC(O)CC1)CC2=Nc3c(cccc3C)C(=O)N2

$$$$
TZD_A_605
          07202407113D 1   1.00000     0.00000     0
            
 49 50  0  0  0  0            999 V2000
   25.4652    6.3959   24.7960 S   0  0  0  0  0  0  0  0  0  0  0  0
   24.3644    8.0985   30.5155 P   0  0  0  0  0  0  0  0  0  0  0  0
   26.8567    6.7389   30.4485 P   0  0  0  0  0  0  0  0  0  0  0  0
   23.9189    7.1737   31.6310 O   0  0  0  0  0  0  0  0  0  0  0  0
   23.7421    7.7127   29.2068 O   0  0  0  0  0  0  0  0  0  0  0  0
   24.0901    9.5461   30.8612 O   0  0  0  0  0  0  0  0  0  0  0  0
   28.2102    7.1476   30.1608 O   0  0  0  0  0  0  0  0  0  0  0  0
   26.8051    6.0660   31.7742 O   0  0  0  0  0  0  0  0  0  0  0  0
   26.1749    6.4199   22.4196 O   0  0  0  0  0  0  0  0  0  0  0  0
   25.8994    7.9947   30.3740 O   0  0  0  0  0  0  0  0  0  0  0  0
   26.3773    5.6669   29.4273 O   0  0  0  0  0  0  0  0  0  0  0  0
   28.5102    5.8397   21.7888 N   0  0  0  0  0  0  0  0  0  0  0  0
   30.4121    2.2028   22.2806 N   0  0  0  0  0  0  0  0  0  0  0  0
   30.4845    4.4828   21.8040 N   0  0  0  0  0  0  0  0  0  0  0  0
   26.4857    4.3443   23.7194 N   0  0  0  0  0  0  0  0  0  0  0  0
   32.5838    3.2578   21.7519 C   0  0  0  0  0  0  0  0  0  0  0  0
   27.0111    2.9263   25.5846 C   0  0  0  0  0  0  0  0  0  0  0  0
   26.6484    5.8620   28.0947 C   0  0  0  0  0  0  0  0  0  0  0  0
   29.0692    2.2449   22.4742 C   0  0  0  0  0  0  0  0  0  0  0  0
   26.8697    3.6387   22.4749 C   0  0  0  0  0  0  0  0  0  0  0  0
   25.6766    5.1839   27.2079 C   0  0  0  0  0  0  0  0  0  0  0  0
   25.6273    5.6270   23.5138 C   0  0  1  0  0  0  0  0  0  0  0  0
   26.2388    5.2550   25.7564 C   0  0  1  0  0  0  0  0  0  0  0  0
   31.0998    3.3108   21.9555 C   0  0  0  0  0  0  0  0  0  0  0  0
   29.1595    4.5798   21.9725 C   0  0  0  0  0  0  0  0  0  0  0  0
   26.1227    4.0103   25.1254 C   0  0  1  0  0  0  0  0  0  0  0  0
   28.4008    3.4629   22.3296 C   0  0  0  0  0  0  0  0  0  0  0  0
   24.3489    7.4550   32.4889 H   0  0  0  0  0  0  0  0  0  0  0  0
   24.0537    8.3389   28.4921 H   0  0  0  0  0  0  0  0  0  0  0  0
   28.2396    7.5991   29.2691 H   0  0  0  0  0  0  0  0  0  0  0  0
   26.2555    5.8493   21.6023 H   0  0  0  0  0  0  0  0  0  0  0  0
   27.5209    5.9153   21.9139 H   0  0  0  0  0  0  0  0  0  0  0  0
   29.0451    6.6457   21.5352 H   0  0  0  0  0  0  0  0  0  0  0  0
   32.9208    4.1696   21.5175 H   0  0  0  0  0  0  0  0  0  0  0  0
   33.0247    2.9455   22.5933 H   0  0  0  0  0  0  0  0  0  0  0  0
   32.7958    2.6228   21.0090 H   0  0  0  0  0  0  0  0  0  0  0  0
   26.7838    2.6863   26.5284 H   0  0  0  0  0  0  0  0  0  0  0  0
   26.8898    2.1252   24.9985 H   0  0  0  0  0  0  0  0  0  0  0  0
   27.9619    3.2324   25.5382 H   0  0  0  0  0  0  0  0  0  0  0  0
   27.5623    5.5063   27.8989 H   0  0  0  0  0  0  0  0  0  0  0  0
   26.6247    6.8434   27.9039 H   0  0  0  0  0  0  0  0  0  0  0  0
   28.5655    1.4158   22.7168 H   0  0  0  0  0  0  0  0  0  0  0  0
   26.5334    4.1642   21.6935 H   0  0  0  0  0  0  0  0  0  0  0  0
   26.4435    2.7341   22.4766 H   0  0  0  0  0  0  0  0  0  0  0  0
   24.7913    5.6466   27.2542 H   0  0  0  0  0  0  0  0  0  0  0  0
   25.5688    4.2294   27.4859 H   0  0  0  0  0  0  0  0  0  0  0  0
   24.7152    5.3284   23.2327 H   0  0  0  0  0  0  0  0  0  0  0  0
   27.2089    5.4925   25.8065 H   0  0  0  0  0  0  0  0  0  0  0  0
   25.1719    3.7030   25.1624 H   0  0  0  0  0  0  0  0  0  0  0  0
  1 22  1  0  0  0  0
  1 23  1  0  0  0  0
  2  4  1  0  0  0  0
  2  5  1  0  0  0  0
  2  6  2  0  0  0  0
  2 10  1  0  0  0  0
  3  7  1  0  0  0  0
  3  8  2  0  0  0  0
  3 10  1  0  0  0  0
  3 11  1  0  0  0  0
  9 22  1  0  0  0  0
 11 18  1  0  0  0  0
 12 25  1  0  0  0  0
 13 19  1  0  0  0  0
 13 24  2  0  0  0  0
 14 24  1  0  0  0  0
 14 25  2  0  0  0  0
 15 20  1  0  0  0  0
 15 22  1  0  0  0  0
 15 26  1  0  0  0  0
 16 24  1  0  0  0  0
 17 26  1  0  0  0  0
 18 21  1  0  0  0  0
 19 27  2  0  0  0  0
 20 27  1  0  0  0  0
 21 23  1  0  0  0  0
 23 26  1  0  0  0  0
 25 27  1  0  0  0  0
  4 28  1  0  0  0  0
  5 29  1  0  0  0  0
  7 30  1  0  0  0  0
  9 31  1  0  0  0  0
 12 32  1  0  0  0  0
 12 33  1  0  0  0  0
 16 34  1  0  0  0  0
 16 35  1  0  0  0  0
 16 36  1  0  0  0  0
 17 37  1  0  0  0  0
 17 38  1  0  0  0  0
 17 39  1  0  0  0  0
 18 40  1  0  0  0  0
 18 41  1  0  0  0  0
 19 42  1  0  0  0  0
 20 43  1  0  0  0  0
 20 44  1  0  0  0  0
 21 45  1  0  0  0  0
 21 46  1  0  0  0  0
 22 47  1  0  0  0  0
 23 48  1  0  0  0  0
 26 49  1  0  0  0  0
M  END
> <pdb_id>
4JU8

> <uniprot_id>
P20906

> <usmiles>
S1[C@@H](O)N([C@H]([C@@H]1CCOP(=O)(OP(=O)(O)O)O)C)Cc2c(nc(nc2)C)N

$$$$
TZD_X_601
          07202407113D 1   1.00000     0.00000     0
            
 45 46  0  0  0  0            999 V2000
   25.6000    6.5020   24.7210 S   0  0  0  0  0  0  0  0  0  0  0  0
   24.3360    8.1100   30.4200 P   0  0  0  0  0  0  0  0  0  0  0  0
   26.9030    6.7090   30.3230 P   0  0  0  0  0  0  0  0  0  0  0  0
   23.9250    7.1680   31.5540 O   0  0  0  0  0  0  0  0  0  0  0  0
   23.7430    7.7920   29.0890 O   0  0  0  0  0  0  0  0  0  0  0  0
   24.1440    9.5690   30.7370 O   0  0  0  0  0  0  0  0  0  0  0  0
   28.2330    7.1950   29.9930 O   0  0  0  0  0  0  0  0  0  0  0  0
   26.7040    6.0240   31.6400 O   0  0  0  0  0  0  0  0  0  0  0  0
   25.9480    6.1680   22.1360 O   0  0  0  0  0  0  0  0  0  0  0  0
   25.9560    7.9810   30.2500 O   0  0  0  0  0  0  0  0  0  0  0  0
   26.3240    5.7370   29.2210 O   0  0  0  0  0  0  0  0  0  0  0  0
   28.5720    5.7020   21.4790 N   0  0  0  0  0  0  0  0  0  0  0  0
   30.5040    2.2450   22.2050 N   0  0  0  0  0  0  0  0  0  0  0  0
   30.5310    4.5290   21.6300 N   0  0  0  0  0  0  0  0  0  0  0  0
   26.4730    4.2940   23.5030 N   0  0  0  0  0  0  0  0  0  0  0  0
   32.6260    3.3390   21.6490 C   0  0  0  0  0  0  0  0  0  0  0  0
   26.9240    2.7100   25.3730 C   0  0  0  0  0  0  0  0  0  0  0  0
   26.7050    5.9110   27.8390 C   0  0  0  0  0  0  0  0  0  0  0  0
   29.1790    2.2280   22.3960 C   0  0  0  0  0  0  0  0  0  0  0  0
   26.9340    3.4470   22.3980 C   0  0  0  0  0  0  0  0  0  0  0  0
   25.6630    5.0460   27.1280 C   0  0  0  0  0  0  0  0  0  0  0  0
   25.9610    5.6570   23.2820 C   0  0  0  0  0  0  0  0  0  0  0  0
   25.9050    5.0280   25.5940 C   0  0  0  0  0  0  0  0  0  0  0  0
   31.1530    3.3920   21.8190 C   0  0  0  0  0  0  0  0  0  0  0  0
   29.2020    4.5690   21.7940 C   0  0  0  0  0  0  0  0  0  0  0  0
   26.3930    4.0040   24.8500 C   0  0  0  0  0  0  0  0  0  0  0  0
   28.4160    3.4390   22.2610 C   0  0  0  0  0  0  0  0  0  0  0  0
   24.3675    7.4558   32.4033 H   0  0  0  0  0  0  0  0  0  0  0  0
   24.0650    8.4553   28.4135 H   0  0  0  0  0  0  0  0  0  0  0  0
   28.2159    7.6265   29.0910 H   0  0  0  0  0  0  0  0  0  0  0  0
   27.5803    5.7696   21.5881 H   0  0  0  0  0  0  0  0  0  0  0  0
   29.0915    6.4836   21.1338 H   0  0  0  0  0  0  0  0  0  0  0  0
   32.9617    4.2381   21.3681 H   0  0  0  0  0  0  0  0  0  0  0  0
   33.0524    3.0798   22.5156 H   0  0  0  0  0  0  0  0  0  0  0  0
   32.8566    2.6633   20.9488 H   0  0  0  0  0  0  0  0  0  0  0  0
   26.7840    2.6677   26.3623 H   0  0  0  0  0  0  0  0  0  0  0  0
   26.4422    1.9508   24.9354 H   0  0  0  0  0  0  0  0  0  0  0  0
   27.9013    2.6450   25.1715 H   0  0  0  0  0  0  0  0  0  0  0  0
   27.6329    5.5784   27.6707 H   0  0  0  0  0  0  0  0  0  0  0  0
   26.6382    6.8686   27.5589 H   0  0  0  0  0  0  0  0  0  0  0  0
   28.7195    1.3720   22.6328 H   0  0  0  0  0  0  0  0  0  0  0  0
   26.5357    3.7873   21.5462 H   0  0  0  0  0  0  0  0  0  0  0  0
   26.6226    2.5108   22.5609 H   0  0  0  0  0  0  0  0  0  0  0  0
   24.7519    5.4156   27.3107 H   0  0  0  0  0  0  0  0  0  0  0  0
   25.7200    4.1113   27.4787 H   0  0  0  0  0  0  0  0  0  0  0  0
  1 22  1  0  0  0  0
  1 23  1  0  0  0  0
  2  4  1  0  0  0  0
  2  5  1  0  0  0  0
  2  6  2  0  0  0  0
  2 10  1  0  0  0  0
  3  7  1  0  0  0  0
  3  8  2  0  0  0  0
  3 10  1  0  0  0  0
  3 11  1  0  0  0  0
  9 22  2  0  0  0  0
 11 18  1  0  0  0  0
 12 25  1  0  0  0  0
 13 19  1  0  0  0  0
 13 24  2  0  0  0  0
 14 24  1  0  0  0  0
 14 25  2  0  0  0  0
 15 20  1  0  0  0  0
 15 22  1  0  0  0  0
 15 26  1  0  0  0  0
 16 24  1  0  0  0  0
 17 26  1  0  0  0  0
 18 21  1  0  0  0  0
 19 27  2  0  0  0  0
 20 27  1  0  0  0  0
 21 23  1  0  0  0  0
 23 26  2  0  0  0  0
 25 27  1  0  0  0  0
  4 28  1  0  0  0  0
  5 29  1  0  0  0  0
  7 30  1  0  0  0  0
 12 31  1  0  0  0  0
 12 32  1  0  0  0  0
 16 33  1  0  0  0  0
 16 34  1  0  0  0  0
 16 35  1  0  0  0  0
 17 36  1  0  0  0  0
 17 37  1  0  0  0  0
 17 38  1  0  0  0  0
 18 39  1  0  0  0  0
 18 40  1  0  0  0  0
 19 41  1  0  0  0  0
 20 42  1  0  0  0  0
 20 43  1  0  0  0  0
 21 44  1  0  0  0  0
 21 45  1  0  0  0  0
M  END
> <pdb_id>
4JUD

> <uniprot_id>
P20906

> <usmiles>
S1C(=O)N(C(=C1CCOP(=O)(OP(=O)(O)O)O)C)Cc2c(nc(nc2)C)N

$$$$
U08_B_201
          07202408113D 1   1.00000     0.00000     0
            
 34 36  0  0  0  0            999 V2000
    5.4130  -22.0170  -22.2570 O   0  0  0  0  0  0  0  0  0  0  0  0
    7.4750  -23.3590  -25.4800 O   0  0  0  0  0  0  0  0  0  0  0  0
    9.3930  -21.4100  -25.6610 O   0  0  0  0  0  0  0  0  0  0  0  0
    5.8860  -20.7050  -25.6380 O   0  0  0  0  0  0  0  0  0  0  0  0
    7.3920  -21.6770  -28.4520 N   0  0  0  0  0  0  0  0  0  0  0  0
    6.3170  -14.7200  -28.1730 N   0  0  0  0  0  0  0  0  0  0  0  0
    5.3550  -18.7280  -27.8260 N   0  0  0  0  0  0  0  0  0  0  0  0
    4.9160  -16.5050  -28.6010 N   0  0  0  0  0  0  0  0  0  0  0  0
    6.4900  -18.2300  -27.2340 N   0  0  0  0  0  0  0  0  0  0  0  0
    5.5500  -21.0340  -23.2760 C   0  0  0  0  0  0  0  0  0  0  0  0
    4.6450  -17.8120  -28.4700 C   0  0  0  0  0  0  0  0  0  0  0  0
    7.2890  -21.1580  -27.4420 C   0  0  0  0  0  0  0  0  0  0  0  0
    8.0850  -16.8240  -26.5670 C   0  0  0  0  0  0  0  0  0  0  0  0
    8.3740  -18.1010  -26.0600 C   0  0  0  0  0  0  0  0  0  0  0  0
    7.3470  -22.2360  -24.6140 C   0  0  1  0  0  0  0  0  0  0  0  0
    6.0400  -16.0210  -28.0320 C   0  0  0  0  0  0  0  0  0  0  0  0
    8.1390  -21.0440  -25.1030 C   0  0  2  0  0  0  0  0  0  0  0  0
    5.9210  -21.6880  -24.5890 C   0  0  2  0  0  0  0  0  0  0  0  0
    6.8890  -16.9150  -27.3020 C   0  0  0  0  0  0  0  0  0  0  0  0
    7.3740  -18.9740  -26.4730 C   0  0  0  0  0  0  0  0  0  0  0  0
    7.1890  -20.4420  -26.1570 C   0  0  2  0  0  0  0  0  0  0  0  0
    5.1680  -21.5722  -21.3955 H   0  0  0  0  0  0  0  0  0  0  0  0
    6.9371  -24.1210  -25.1194 H   0  0  0  0  0  0  0  0  0  0  0  0
    9.8740  -20.5886  -25.9674 H   0  0  0  0  0  0  0  0  0  0  0  0
    7.1438  -14.3373  -27.7608 H   0  0  0  0  0  0  0  0  0  0  0  0
    5.6973  -14.1301  -28.6906 H   0  0  0  0  0  0  0  0  0  0  0  0
    6.2663  -20.3866  -23.0158 H   0  0  0  0  0  0  0  0  0  0  0  0
    4.6833  -20.5468  -23.3833 H   0  0  0  0  0  0  0  0  0  0  0  0
    3.8072  -18.1342  -28.9108 H   0  0  0  0  0  0  0  0  0  0  0  0
    8.6315  -15.9978  -26.4301 H   0  0  0  0  0  0  0  0  0  0  0  0
    9.1649  -18.3417  -25.4973 H   0  0  0  0  0  0  0  0  0  0  0  0
    7.6354  -22.4825  -23.6888 H   0  0  0  0  0  0  0  0  0  0  0  0
    8.2748  -20.3943  -24.3551 H   0  0  0  0  0  0  0  0  0  0  0  0
    5.2742  -22.4226  -24.7940 H   0  0  0  0  0  0  0  0  0  0  0  0
  1 10  1  0  0  0  0
  2 15  1  0  0  0  0
  3 17  1  0  0  0  0
  4 18  1  0  0  0  0
  4 21  1  0  0  0  0
  5 12  3  0  0  0  0
  6 16  1  0  0  0  0
  7  9  1  0  0  0  0
  7 11  2  0  0  0  0
  8 11  1  0  0  0  0
  8 16  2  0  0  0  0
  9 19  1  0  0  0  0
  9 20  1  0  0  0  0
 10 18  1  0  0  0  0
 12 21  1  0  0  0  0
 13 14  1  0  0  0  0
 13 19  2  0  0  0  0
 14 20  2  0  0  0  0
 15 17  1  0  0  0  0
 15 18  1  0  0  0  0
 16 19  1  0  0  0  0
 17 21  1  0  0  0  0
 20 21  1  0  0  0  0
  1 22  1  0  0  0  0
  2 23  1  0  0  0  0
  3 24  1  0  0  0  0
  6 25  1  0  0  0  0
  6 26  1  0  0  0  0
 10 27  1  0  0  0  0
 10 28  1  0  0  0  0
 11 29  1  0  0  0  0
 13 30  1  0  0  0  0
 14 31  1  0  0  0  0
 15 32  1  0  0  0  0
 17 33  1  0  0  0  0
 18 34  1  0  0  0  0
M  END
> <pdb_id>
7QG7

> <uniprot_id>
P0DTD1

> <usmiles>
O1[C@@](C#N)(C=2N3N=CN=C(N)C3=CC2)[C@H](O)[C@H](O)[C@H]1CO

$$$$
U0N_A_301
          07192420463D 1   1.00000     0.00000     0
            
 50 53  0  0  0  0            999 V2000
    7.5899   -4.7882   16.5239 N   0  0  0  0  0  0  0  0  0  0  0  0
    5.4534   -3.1957   19.1370 N   0  0  0  0  0  0  0  0  0  0  0  0
   -2.2003   -5.2063   21.1113 N   0  0  0  0  0  0  0  0  0  0  0  0
    3.2076   -3.5571   19.5093 N   0  0  0  0  0  0  0  0  0  0  0  0
    1.8501   -5.1206   18.2995 N   0  0  0  0  0  0  0  0  0  0  0  0
    0.9499   -3.8722   20.0000 N   0  0  0  0  0  0  0  0  0  0  0  0
   -2.0147   -5.8645   19.9312 N   0  0  0  0  0  0  0  0  0  0  0  0
    3.0318   -6.3299   16.5692 N   0  0  0  0  0  0  0  0  0  0  0  0
    4.6374   -7.2297   15.0202 N   0  0  0  0  0  0  0  0  0  0  0  0
   -3.0274   -6.8114   19.4665 C   0  0  0  0  0  0  0  0  0  0  0  0
    1.8571   -7.0572   16.0826 C   0  0  0  0  0  0  0  0  0  0  0  0
   -0.9882   -3.5983   22.4879 C   0  0  0  0  0  0  0  0  0  0  0  0
    5.3763   -5.5290   13.3723 C   0  0  0  0  0  0  0  0  0  0  0  0
    6.4884   -5.1279   16.6458 C   0  0  0  0  0  0  0  0  0  0  0  0
    4.0414   -8.5599   14.8526 C   0  0  0  0  0  0  0  0  0  0  0  0
   -0.8514   -5.4947   19.3428 C   0  0  0  0  0  0  0  0  0  0  0  0
    4.9825   -9.2267   13.8943 C   0  0  0  0  0  0  0  0  0  0  0  0
    5.4116   -8.0687   13.0075 C   0  0  0  0  0  0  0  0  0  0  0  0
    2.0459   -4.1916   19.2361 C   0  0  0  0  0  0  0  0  0  0  0  0
    4.3284   -3.8669   18.8301 C   0  0  0  0  0  0  0  0  0  0  0  0
    2.9577   -5.4194   17.6016 C   0  0  0  0  0  0  0  0  0  0  0  0
   -1.1234   -4.4393   21.2602 C   0  0  0  0  0  0  0  0  0  0  0  0
    4.3258   -6.3613   16.0909 C   0  0  0  0  0  0  0  0  0  0  0  0
    5.6209   -6.9008   13.9804 C   0  0  2  0  0  0  0  0  0  0  0  0
   -0.2477   -4.5836   20.1717 C   0  0  0  0  0  0  0  0  0  0  0  0
    5.1094   -5.4439   16.8240 C   0  0  0  0  0  0  0  0  0  0  0  0
    4.2388   -4.8450   17.8041 C   0  0  0  0  0  0  0  0  0  0  0  0
    6.3046   -3.3991   18.6533 H   0  0  0  0  0  0  0  0  0  0  0  0
    5.4382   -2.4934   19.8487 H   0  0  0  0  0  0  0  0  0  0  0  0
    1.0144   -3.0115   20.5049 H   0  0  0  0  0  0  0  0  0  0  0  0
   -2.7405   -7.2041   18.5927 H   0  0  0  0  0  0  0  0  0  0  0  0
   -3.1351   -7.5418   20.1409 H   0  0  0  0  0  0  0  0  0  0  0  0
   -3.8990   -6.3358   19.3481 H   0  0  0  0  0  0  0  0  0  0  0  0
    2.1268   -7.6636   15.3346 H   0  0  0  0  0  0  0  0  0  0  0  0
    1.4684   -7.5993   16.8276 H   0  0  0  0  0  0  0  0  0  0  0  0
    1.1741   -6.4052   15.7533 H   0  0  0  0  0  0  0  0  0  0  0  0
   -0.1307   -3.0853   22.4478 H   0  0  0  0  0  0  0  0  0  0  0  0
   -1.7562   -2.9601   22.5411 H   0  0  0  0  0  0  0  0  0  0  0  0
   -0.9871   -4.1866   23.2966 H   0  0  0  0  0  0  0  0  0  0  0  0
    6.0663   -5.3470   12.6718 H   0  0  0  0  0  0  0  0  0  0  0  0
    4.4664   -5.5055   12.9579 H   0  0  0  0  0  0  0  0  0  0  0  0
    5.4351   -4.8322   14.0871 H   0  0  0  0  0  0  0  0  0  0  0  0
    3.1206   -8.4962   14.4678 H   0  0  0  0  0  0  0  0  0  0  0  0
    4.0057   -9.0509   15.7230 H   0  0  0  0  0  0  0  0  0  0  0  0
   -0.4986   -5.8247   18.4671 H   0  0  0  0  0  0  0  0  0  0  0  0
    4.5179   -9.9363   13.3645 H   0  0  0  0  0  0  0  0  0  0  0  0
    5.7645   -9.6261   14.3727 H   0  0  0  0  0  0  0  0  0  0  0  0
    4.6990   -7.8506   12.3407 H   0  0  0  0  0  0  0  0  0  0  0  0
    6.2616   -8.2864   12.5278 H   0  0  0  0  0  0  0  0  0  0  0  0
    6.5438   -6.9411   14.3632 H   0  0  0  0  0  0  0  0  0  0  0  0
  1 14  3  0  0  0  0
  2 20  1  0  0  0  0
  3  7  1  0  0  0  0
  3 22  2  0  0  0  0
  4 19  2  0  0  0  0
  4 20  1  0  0  0  0
  5 19  1  0  0  0  0
  5 21  2  0  0  0  0
  6 19  1  0  0  0  0
  6 25  1  0  0  0  0
  7 10  1  0  0  0  0
  7 16  1  0  0  0  0
  8 11  1  0  0  0  0
  8 21  1  0  0  0  0
  8 23  1  0  0  0  0
  9 15  1  0  0  0  0
  9 23  1  0  0  0  0
  9 24  1  0  0  0  0
 12 22  1  0  0  0  0
 13 24  1  0  0  0  0
 14 26  1  0  0  0  0
 15 17  1  0  0  0  0
 16 25  2  0  0  0  0
 17 18  1  0  0  0  0
 18 24  1  0  0  0  0
 20 27  2  0  0  0  0
 21 27  1  0  0  0  0
 22 25  1  0  0  0  0
 23 26  2  0  0  0  0
 26 27  1  0  0  0  0
  2 28  1  0  0  0  0
  2 29  1  0  0  0  0
  6 30  1  0  0  0  0
 10 31  1  0  0  0  0
 10 32  1  0  0  0  0
 10 33  1  0  0  0  0
 11 34  1  0  0  0  0
 11 35  1  0  0  0  0
 11 36  1  0  0  0  0
 12 37  1  0  0  0  0
 12 38  1  0  0  0  0
 12 39  1  0  0  0  0
 13 40  1  0  0  0  0
 13 41  1  0  0  0  0
 13 42  1  0  0  0  0
 15 43  1  0  0  0  0
 15 44  1  0  0  0  0
 16 45  1  0  0  0  0
 17 46  1  0  0  0  0
 17 47  1  0  0  0  0
 18 48  1  0  0  0  0
 18 49  1  0  0  0  0
 24 50  1  0  0  0  0
M  END
> <pdb_id>
7BK1

> <uniprot_id>
O14757

> <usmiles>
N#CC=1c2c(nc(nc2N)NC=3C(=NN(C3)C)C)N(C1N4[C@@H](CCC4)C)C

$$$$
U1Z_A_1901
          07202416333D 1   1.00000     0.00000     0
            
 46 49  0  0  0  0            999 V2000
  -40.8150   34.8740  -18.5850 N   0  0  0  0  0  0  0  0  0  0  0  0
  -40.1270   38.6280  -24.2660 N   0  0  0  0  0  0  0  0  0  0  0  0
  -33.8200   39.6760  -21.0360 N   0  0  0  0  0  0  0  0  0  0  0  0
  -37.0480   42.4100  -21.7410 N   0  0  0  0  0  0  0  0  0  0  0  0
  -41.1140   38.2370  -23.3870 N   0  0  0  0  0  0  0  0  0  0  0  0
  -34.5280   38.8580  -20.1850 N   0  0  0  0  0  0  0  0  0  0  0  0
  -39.1760   42.0210  -21.5090 N   0  0  0  0  0  0  0  0  0  0  0  0
  -41.5120   36.8640  -23.1630 C   0  0  0  0  0  0  0  0  0  0  0  0
  -33.9320   37.7250  -19.4910 C   0  0  0  0  0  0  0  0  0  0  0  0
  -38.2760   42.9300  -21.9090 C   0  0  0  0  0  0  0  0  0  0  0  0
  -40.4610   35.8730  -18.9720 C   0  0  0  0  0  0  0  0  0  0  0  0
  -40.0330   39.9540  -24.2100 C   0  0  0  0  0  0  0  0  0  0  0  0
  -34.6790   40.5990  -21.4730 C   0  0  0  0  0  0  0  0  0  0  0  0
  -40.6160   42.2330  -21.5570 C   0  0  0  0  0  0  0  0  0  0  0  0
  -41.6160   39.3020  -22.7860 C   0  0  0  0  0  0  0  0  0  0  0  0
  -35.7990   39.2450  -20.1050 C   0  0  0  0  0  0  0  0  0  0  0  0
  -41.1910   41.8720  -22.9210 C   0  0  0  0  0  0  0  0  0  0  0  0
  -39.1740   37.2160  -20.6520 C   0  0  0  0  0  0  0  0  0  0  0  0
  -40.3160   38.3830  -18.8770 C   0  0  0  0  0  0  0  0  0  0  0  0
  -38.7210   38.4300  -21.1630 C   0  0  0  0  0  0  0  0  0  0  0  0
  -39.8540   39.5950  -19.3860 C   0  0  0  0  0  0  0  0  0  0  0  0
  -37.1650   41.2120  -21.2260 C   0  0  0  0  0  0  0  0  0  0  0  0
  -38.5090   40.9470  -21.0900 C   0  0  0  0  0  0  0  0  0  0  0  0
  -39.9710   37.2010  -19.5110 C   0  0  0  0  0  0  0  0  0  0  0  0
  -40.9640   40.4070  -23.2910 C   0  0  0  0  0  0  0  0  0  0  0  0
  -35.9340   40.3500  -20.9170 C   0  0  0  0  0  0  0  0  0  0  0  0
  -39.0600   39.6310  -20.5330 C   0  0  0  0  0  0  0  0  0  0  0  0
  -42.2444   36.8360  -22.4826 H   0  0  0  0  0  0  0  0  0  0  0  0
  -41.8387   36.4674  -24.0209 H   0  0  0  0  0  0  0  0  0  0  0  0
  -40.7280   36.3397  -22.8306 H   0  0  0  0  0  0  0  0  0  0  0  0
  -34.6265   37.2753  -18.9293 H   0  0  0  0  0  0  0  0  0  0  0  0
  -33.5730   37.0751  -20.1609 H   0  0  0  0  0  0  0  0  0  0  0  0
  -33.1873   38.0465  -18.9062 H   0  0  0  0  0  0  0  0  0  0  0  0
  -38.4827   43.8392  -22.2705 H   0  0  0  0  0  0  0  0  0  0  0  0
  -39.4020   40.5224  -24.7379 H   0  0  0  0  0  0  0  0  0  0  0  0
  -34.4587   41.3480  -22.0979 H   0  0  0  0  0  0  0  0  0  0  0  0
  -40.8087   43.1959  -21.3681 H   0  0  0  0  0  0  0  0  0  0  0  0
  -41.0513   41.6630  -20.8601 H   0  0  0  0  0  0  0  0  0  0  0  0
  -42.3364   39.3056  -22.0924 H   0  0  0  0  0  0  0  0  0  0  0  0
  -36.5188   38.8156  -19.5595 H   0  0  0  0  0  0  0  0  0  0  0  0
  -40.7559   42.4474  -23.6135 H   0  0  0  0  0  0  0  0  0  0  0  0
  -42.1750   42.0499  -22.9101 H   0  0  0  0  0  0  0  0  0  0  0  0
  -38.9275   36.3583  -21.1033 H   0  0  0  0  0  0  0  0  0  0  0  0
  -40.8924   38.3667  -18.0600 H   0  0  0  0  0  0  0  0  0  0  0  0
  -38.1507   38.4425  -21.9843 H   0  0  0  0  0  0  0  0  0  0  0  0
  -40.0942   40.4488  -18.9241 H   0  0  0  0  0  0  0  0  0  0  0  0
  1 11  3  0  0  0  0
  2  5  1  0  0  0  0
  2 12  2  0  0  0  0
  3  6  1  0  0  0  0
  3 13  2  0  0  0  0
  4 10  2  0  0  0  0
  4 22  1  0  0  0  0
  5  8  1  0  0  0  0
  5 15  1  0  0  0  0
  6  9  1  0  0  0  0
  6 16  1  0  0  0  0
  7 10  1  0  0  0  0
  7 14  1  0  0  0  0
  7 23  1  0  0  0  0
 11 24  1  0  0  0  0
 12 25  1  0  0  0  0
 13 26  1  0  0  0  0
 14 17  1  0  0  0  0
 15 25  2  0  0  0  0
 16 26  2  0  0  0  0
 17 25  1  0  0  0  0
 18 20  1  0  0  0  0
 18 24  2  0  0  0  0
 19 21  2  0  0  0  0
 19 24  1  0  0  0  0
 20 27  2  0  0  0  0
 21 27  1  0  0  0  0
 22 23  2  0  0  0  0
 22 26  1  0  0  0  0
 23 27  1  0  0  0  0
  8 28  1  0  0  0  0
  8 29  1  0  0  0  0
  8 30  1  0  0  0  0
  9 31  1  0  0  0  0
  9 32  1  0  0  0  0
  9 33  1  0  0  0  0
 10 34  1  0  0  0  0
 12 35  1  0  0  0  0
 13 36  1  0  0  0  0
 14 37  1  0  0  0  0
 14 38  1  0  0  0  0
 15 39  1  0  0  0  0
 16 40  1  0  0  0  0
 17 41  1  0  0  0  0
 17 42  1  0  0  0  0
 18 43  1  0  0  0  0
 19 44  1  0  0  0  0
 20 45  1  0  0  0  0
 21 46  1  0  0  0  0
M  END
> <pdb_id>
7BL8

> <uniprot_id>
Q9UIF9

> <usmiles>
N#Cc1ccc(cc1)C=2N(C=NC2C=3C=NN(C3)C)CCC=4C=NN(C4)C

$$$$
U2K_A_1901
          07202416333D 1   1.00000     0.00000     0
            
 36 39  0  0  0  0            999 V2000
  -33.1695   39.7113  -20.8344 O   0  0  0  0  0  0  0  0  0  0  0  0
  -40.2268   41.9360  -19.5541 O   0  0  0  0  0  0  0  0  0  0  0  0
  -41.1106   38.5382  -20.0786 N   0  0  0  0  0  0  0  0  0  0  0  0
  -41.2620   39.8831  -19.7601 N   0  0  0  0  0  0  0  0  0  0  0  0
  -35.4606   39.6674  -20.6188 N   0  0  0  0  0  0  0  0  0  0  0  0
  -33.9942   37.6901  -19.9431 C   0  0  0  0  0  0  0  0  0  0  0  0
  -39.2137   36.9933  -20.8083 C   0  0  0  0  0  0  0  0  0  0  0  0
  -41.5816   42.1378  -19.2549 C   0  0  0  0  0  0  0  0  0  0  0  0
  -42.2752   40.8280  -19.3521 C   0  0  0  0  0  0  0  0  0  0  0  0
  -36.5826   39.0344  -20.2628 C   0  0  0  0  0  0  0  0  0  0  0  0
  -35.5286   43.1963  -22.0241 C   0  0  0  0  0  0  0  0  0  0  0  0
  -36.9166   43.3548  -21.9616 C   0  0  0  0  0  0  0  0  0  0  0  0
  -34.9382   42.0032  -21.5952 C   0  0  0  0  0  0  0  0  0  0  0  0
  -37.7252   42.3152  -21.4783 C   0  0  0  0  0  0  0  0  0  0  0  0
  -34.1353   39.0963  -20.5008 C   0  0  0  0  0  0  0  0  0  0  0  0
  -40.0803   40.5191  -19.8773 C   0  0  0  0  0  0  0  0  0  0  0  0
  -39.8090   38.3340  -20.4046 C   0  0  0  0  0  0  0  0  0  0  0  0
  -35.7631   40.9379  -21.0947 C   0  0  0  0  0  0  0  0  0  0  0  0
  -37.6498   39.8820  -20.5143 C   0  0  0  0  0  0  0  0  0  0  0  0
  -37.1241   41.0960  -21.0354 C   0  0  0  0  0  0  0  0  0  0  0  0
  -39.1390   39.5812  -20.2712 C   0  0  0  0  0  0  0  0  0  0  0  0
  -34.8989   37.3286  -19.7176 H   0  0  0  0  0  0  0  0  0  0  0  0
  -33.5612   37.1023  -20.6265 H   0  0  0  0  0  0  0  0  0  0  0  0
  -33.4297   37.7138  -19.1180 H   0  0  0  0  0  0  0  0  0  0  0  0
  -38.2384   37.1053  -20.9986 H   0  0  0  0  0  0  0  0  0  0  0  0
  -39.3348   36.3370  -20.0636 H   0  0  0  0  0  0  0  0  0  0  0  0
  -39.6767   36.6563  -21.6282 H   0  0  0  0  0  0  0  0  0  0  0  0
  -41.9806   42.7820  -19.9074 H   0  0  0  0  0  0  0  0  0  0  0  0
  -41.6735   42.5022  -18.3282 H   0  0  0  0  0  0  0  0  0  0  0  0
  -42.6578   40.5687  -18.4653 H   0  0  0  0  0  0  0  0  0  0  0  0
  -43.0076   40.8701  -20.0317 H   0  0  0  0  0  0  0  0  0  0  0  0
  -36.6416   38.1116  -19.8820 H   0  0  0  0  0  0  0  0  0  0  0  0
  -34.9571   43.9376  -22.3761 H   0  0  0  0  0  0  0  0  0  0  0  0
  -37.3342   44.2121  -22.2626 H   0  0  0  0  0  0  0  0  0  0  0  0
  -33.9453   41.8916  -21.6366 H   0  0  0  0  0  0  0  0  0  0  0  0
  -38.7184   42.4266  -21.4437 H   0  0  0  0  0  0  0  0  0  0  0  0
  1 15  2  0  0  0  0
  2  8  1  0  0  0  0
  2 16  1  0  0  0  0
  3  4  1  0  0  0  0
  3 17  2  0  0  0  0
  4  9  1  0  0  0  0
  4 16  1  0  0  0  0
  5 10  1  0  0  0  0
  5 15  1  0  0  0  0
  5 18  1  0  0  0  0
  6 15  1  0  0  0  0
  7 17  1  0  0  0  0
  8  9  1  0  0  0  0
 10 19  2  0  0  0  0
 11 12  2  0  0  0  0
 11 13  1  0  0  0  0
 12 14  1  0  0  0  0
 13 18  2  0  0  0  0
 14 20  2  0  0  0  0
 16 21  2  0  0  0  0
 17 21  1  0  0  0  0
 18 20  1  0  0  0  0
 19 20  1  0  0  0  0
 19 21  1  0  0  0  0
  6 22  1  0  0  0  0
  6 23  1  0  0  0  0
  6 24  1  0  0  0  0
  7 25  1  0  0  0  0
  7 26  1  0  0  0  0
  7 27  1  0  0  0  0
  8 28  1  0  0  0  0
  8 29  1  0  0  0  0
  9 30  1  0  0  0  0
  9 31  1  0  0  0  0
 10 32  1  0  0  0  0
 11 33  1  0  0  0  0
 12 34  1  0  0  0  0
 13 35  1  0  0  0  0
 14 36  1  0  0  0  0
M  END
> <pdb_id>
7BLD

> <uniprot_id>
Q9UIF9

> <usmiles>
O=C(N1c2c(cccc2)C(C3=C4OCCN4N=C3C)=C1)C

$$$$
U57_A_1017
          07192416553D 1   1.00000     0.00000     0
            
 41 42  0  0  0  0            999 V2000
   -5.0008   24.8236  -34.5887 F   0  0  0  0  0  0  0  0  0  0  0  0
  -12.3462   21.9508  -36.9514 O   0  0  0  0  0  0  0  0  0  0  0  0
   -7.8890   18.6818  -36.4498 N   0  0  0  0  0  0  0  0  0  0  0  0
   -8.4104   23.6984  -34.3117 N   0  0  0  0  0  0  0  0  0  0  0  0
   -9.2439   20.3317  -35.4934 N   0  0  0  0  0  0  0  0  0  0  0  0
   -6.9556   20.7303  -35.8227 N   0  0  0  0  0  0  0  0  0  0  0  0
  -10.7059   21.8242  -34.5740 N   0  0  0  0  0  0  0  0  0  0  0  0
  -10.0433   18.3868  -30.7294 C   0  0  0  0  0  0  0  0  0  0  0  0
  -13.0641   22.0594  -33.9597 C   0  0  0  0  0  0  0  0  0  0  0  0
  -12.3732   20.8040  -36.1111 C   0  0  0  0  0  0  0  0  0  0  0  0
   -7.3025   24.4654  -34.2399 C   0  0  0  0  0  0  0  0  0  0  0  0
  -10.7558   18.4004  -32.0739 C   0  0  0  0  0  0  0  0  0  0  0  0
  -11.0086   19.8293  -32.5650 C   0  0  0  0  0  0  0  0  0  0  0  0
  -11.9011   19.8289  -33.8136 C   0  0  0  0  0  0  0  0  0  0  0  0
   -5.9832   22.7634  -35.2118 C   0  0  0  0  0  0  0  0  0  0  0  0
   -8.0323   19.9438  -35.9091 C   0  0  0  0  0  0  0  0  0  0  0  0
   -6.0781   24.0347  -34.6767 C   0  0  0  0  0  0  0  0  0  0  0  0
   -9.4107   21.5716  -34.9587 C   0  0  0  0  0  0  0  0  0  0  0  0
   -7.1034   21.9491  -35.2987 C   0  0  0  0  0  0  0  0  0  0  0  0
   -8.3305   22.4486  -34.8336 C   0  0  0  0  0  0  0  0  0  0  0  0
  -12.0222   21.1616  -34.6485 C   0  0  1  0  0  0  0  0  0  0  0  0
  -12.5772   21.6840  -37.8870 H   0  0  0  0  0  0  0  0  0  0  0  0
   -6.9924   18.3723  -36.7665 H   0  0  0  0  0  0  0  0  0  0  0  0
   -8.6818   18.0770  -36.5248 H   0  0  0  0  0  0  0  0  0  0  0  0
  -10.7761   22.7085  -34.1123 H   0  0  0  0  0  0  0  0  0  0  0  0
   -9.8951   17.4411  -30.4403 H   0  0  0  0  0  0  0  0  0  0  0  0
   -9.1619   18.8514  -30.8146 H   0  0  0  0  0  0  0  0  0  0  0  0
  -10.6047   18.8591  -30.0499 H   0  0  0  0  0  0  0  0  0  0  0  0
  -13.9621   21.6216  -34.0030 H   0  0  0  0  0  0  0  0  0  0  0  0
  -12.8058   22.1964  -33.0034 H   0  0  0  0  0  0  0  0  0  0  0  0
  -13.1016   22.9439  -34.4248 H   0  0  0  0  0  0  0  0  0  0  0  0
  -11.7095   20.1374  -36.4504 H   0  0  0  0  0  0  0  0  0  0  0  0
  -13.2896   20.4046  -36.1365 H   0  0  0  0  0  0  0  0  0  0  0  0
   -7.3785   25.3843  -33.8526 H   0  0  0  0  0  0  0  0  0  0  0  0
  -11.6331   17.9295  -31.9808 H   0  0  0  0  0  0  0  0  0  0  0  0
  -10.1903   17.9219  -32.7455 H   0  0  0  0  0  0  0  0  0  0  0  0
  -10.1334   20.2585  -32.7882 H   0  0  0  0  0  0  0  0  0  0  0  0
  -11.4598   20.3498  -31.8401 H   0  0  0  0  0  0  0  0  0  0  0  0
  -12.8234   19.5803  -33.5178 H   0  0  0  0  0  0  0  0  0  0  0  0
  -11.5475   19.1250  -34.4297 H   0  0  0  0  0  0  0  0  0  0  0  0
   -5.0998   22.4280  -35.5389 H   0  0  0  0  0  0  0  0  0  0  0  0
  1 17  1  0  0  0  0
  2 10  1  0  0  0  0
  3 16  1  0  0  0  0
  4 11  2  0  0  0  0
  4 20  1  0  0  0  0
  5 16  2  0  0  0  0
  5 18  1  0  0  0  0
  6 16  1  0  0  0  0
  6 19  2  0  0  0  0
  7 18  1  0  0  0  0
  7 21  1  0  0  0  0
  8 12  1  0  0  0  0
  9 21  1  0  0  0  0
 10 21  1  0  0  0  0
 11 17  1  0  0  0  0
 12 13  1  0  0  0  0
 13 14  1  0  0  0  0
 14 21  1  0  0  0  0
 15 17  2  0  0  0  0
 15 19  1  0  0  0  0
 18 20  2  0  0  0  0
 19 20  1  0  0  0  0
  2 22  1  0  0  0  0
  3 23  1  0  0  0  0
  3 24  1  0  0  0  0
  7 25  1  0  0  0  0
  8 26  1  0  0  0  0
  8 27  1  0  0  0  0
  8 28  1  0  0  0  0
  9 29  1  0  0  0  0
  9 30  1  0  0  0  0
  9 31  1  0  0  0  0
 10 32  1  0  0  0  0
 10 33  1  0  0  0  0
 11 34  1  0  0  0  0
 12 35  1  0  0  0  0
 12 36  1  0  0  0  0
 13 37  1  0  0  0  0
 13 38  1  0  0  0  0
 14 39  1  0  0  0  0
 14 40  1  0  0  0  0
 15 41  1  0  0  0  0
M  END
> <pdb_id>
6WML

> <uniprot_id>
Q9NR97

> <usmiles>
Fc1cnc2c(nc(nc2c1)N)N[C@@](CO)(CCCC)C

$$$$
U5P_A_201
          07202403243D 1   1.00000     0.00000     0
            
 34 35  0  0  0  0            999 V2000
  -31.5080    4.2845  -23.9624 P   0  0  0  0  0  0  0  0  0  0  0  0
  -32.3708    5.4423  -24.4028 O   0  0  0  0  0  0  0  0  0  0  0  0
  -32.0969    2.9222  -24.2407 O   0  0  0  0  0  0  0  0  0  0  0  0
  -30.9198    4.3904  -22.5763 O   0  0  0  0  0  0  0  0  0  0  0  0
  -26.9848    5.5787  -31.0893 O   0  0  0  0  0  0  0  0  0  0  0  0
  -29.9735    4.5597  -34.2686 O   0  0  0  0  0  0  0  0  0  0  0  0
  -29.4385    8.1993  -28.8973 O   0  0  0  0  0  0  0  0  0  0  0  0
  -28.5039    7.4011  -26.4701 O   0  0  0  0  0  0  0  0  0  0  0  0
  -30.2162    4.3696  -24.8896 O   0  0  0  0  0  0  0  0  0  0  0  0
  -29.0014    4.7125  -28.3037 O   0  0  0  0  0  0  0  0  0  0  0  0
  -28.4556    5.0644  -32.7035 N   0  0  0  0  0  0  0  0  0  0  0  0
  -29.2032    5.4986  -30.4931 N   0  0  0  0  0  0  0  0  0  0  0  0
  -30.3024    4.2732  -26.3052 C   0  0  0  0  0  0  0  0  0  0  0  0
  -30.4733    5.2908  -30.8495 C   0  0  0  0  0  0  0  0  0  0  0  0
  -30.7609    4.9624  -32.1664 C   0  0  0  0  0  0  0  0  0  0  0  0
  -28.1689    5.3800  -31.4376 C   0  0  0  0  0  0  0  0  0  0  0  0
  -29.7226    4.8537  -33.0808 C   0  0  0  0  0  0  0  0  0  0  0  0
  -29.7823    6.8953  -28.4860 C   0  0  2  0  0  0  0  0  0  0  0  0
  -29.5882    6.6266  -26.9890 C   0  0  1  0  0  0  0  0  0  0  0  0
  -28.8657    5.8538  -29.1090 C   0  0  1  0  0  0  0  0  0  0  0  0
  -29.2421    5.1322  -26.9349 C   0  0  2  0  0  0  0  0  0  0  0  0
  -31.9111    6.3029  -24.1835 H   0  0  0  0  0  0  0  0  0  0  0  0
  -31.4667    2.2149  -23.9205 H   0  0  0  0  0  0  0  0  0  0  0  0
  -29.5936    8.2903  -29.8810 H   0  0  0  0  0  0  0  0  0  0  0  0
  -28.3953    7.2107  -25.4944 H   0  0  0  0  0  0  0  0  0  0  0  0
  -27.7183    4.9848  -33.3743 H   0  0  0  0  0  0  0  0  0  0  0  0
  -31.2042    4.5840  -26.6056 H   0  0  0  0  0  0  0  0  0  0  0  0
  -30.1682    3.3219  -26.5827 H   0  0  0  0  0  0  0  0  0  0  0  0
  -31.2078    5.3709  -30.1757 H   0  0  0  0  0  0  0  0  0  0  0  0
  -31.7059    4.8057  -32.4536 H   0  0  0  0  0  0  0  0  0  0  0  0
  -30.7300    6.7027  -28.7407 H   0  0  0  0  0  0  0  0  0  0  0  0
  -30.4306    6.8135  -26.4836 H   0  0  0  0  0  0  0  0  0  0  0  0
  -27.9203    6.1774  -29.0701 H   0  0  0  0  0  0  0  0  0  0  0  0
  -28.3947    5.0216  -26.4157 H   0  0  0  0  0  0  0  0  0  0  0  0
  1  2  1  0  0  0  0
  1  3  1  0  0  0  0
  1  4  2  0  0  0  0
  1  9  1  0  0  0  0
  5 16  2  0  0  0  0
  6 17  2  0  0  0  0
  7 18  1  0  0  0  0
  8 19  1  0  0  0  0
  9 13  1  0  0  0  0
 10 20  1  0  0  0  0
 10 21  1  0  0  0  0
 11 16  1  0  0  0  0
 11 17  1  0  0  0  0
 12 14  1  0  0  0  0
 12 16  1  0  0  0  0
 12 20  1  0  0  0  0
 13 21  1  0  0  0  0
 14 15  2  0  0  0  0
 15 17  1  0  0  0  0
 18 19  1  0  0  0  0
 18 20  1  0  0  0  0
 19 21  1  0  0  0  0
  2 22  1  0  0  0  0
  3 23  1  0  0  0  0
  7 24  1  0  0  0  0
  8 25  1  0  0  0  0
 11 26  1  0  0  0  0
 13 27  1  0  0  0  0
 13 28  1  0  0  0  0
 14 29  1  0  0  0  0
 15 30  1  0  0  0  0
 18 31  1  0  0  0  0
 19 32  1  0  0  0  0
 20 33  1  0  0  0  0
 21 34  1  0  0  0  0
M  END
> <pdb_id>
5KM3

> <uniprot_id>
P49773

> <usmiles>
P(=O)(OC[C@H]1O[C@@H](N2C(=O)NC(=O)C=C2)[C@H](O)[C@@H]1O)(O)O

$$$$
U62_A_515
          07202416263D 1   1.00000     0.00000     0
            
 24 26  0  0  0  0            999 V2000
   25.7244   69.2847   72.8768 S   0  0  0  0  0  0  0  0  0  0  0  0
   22.9770   70.6779   72.8826 O   0  0  0  0  0  0  0  0  0  0  0  0
   21.8222   68.9302   72.1923 O   0  0  0  0  0  0  0  0  0  0  0  0
   27.5772   65.6203   70.9685 O   0  0  0  0  0  0  0  0  0  0  0  0
   30.5572   66.5446   73.0150 C   0  0  0  0  0  0  0  0  0  0  0  0
   30.0894   67.6738   73.6843 C   0  0  0  0  0  0  0  0  0  0  0  0
   26.1764   65.6485   71.2663 C   0  0  0  0  0  0  0  0  0  0  0  0
   29.7243   65.8872   72.1251 C   0  0  0  0  0  0  0  0  0  0  0  0
   28.7955   68.1355   73.4676 C   0  0  0  0  0  0  0  0  0  0  0  0
   24.3973   67.4761   71.7416 C   0  0  0  0  0  0  0  0  0  0  0  0
   22.9228   69.4977   72.4357 C   0  0  0  0  0  0  0  0  0  0  0  0
   24.2107   68.7243   72.3016 C   0  0  0  0  0  0  0  0  0  0  0  0
   26.6345   67.8779   72.3661 C   0  0  0  0  0  0  0  0  0  0  0  0
   28.4184   66.3469   71.9084 C   0  0  0  0  0  0  0  0  0  0  0  0
   25.7241   67.0207   71.8023 C   0  0  0  0  0  0  0  0  0  0  0  0
   27.9485   67.4808   72.5348 C   0  0  0  0  0  0  0  0  0  0  0  0
   23.8634   71.1027   73.0664 H   0  0  0  0  0  0  0  0  0  0  0  0
   31.4864   66.2118   73.1758 H   0  0  0  0  0  0  0  0  0  0  0  0
   30.6879   68.1553   74.3246 H   0  0  0  0  0  0  0  0  0  0  0  0
   25.9796   64.9521   71.9565 H   0  0  0  0  0  0  0  0  0  0  0  0
   25.6652   65.4442   70.4315 H   0  0  0  0  0  0  0  0  0  0  0  0
   30.0560   65.0810   71.6352 H   0  0  0  0  0  0  0  0  0  0  0  0
   28.4603   68.9320   73.9709 H   0  0  0  0  0  0  0  0  0  0  0  0
   23.6559   66.9455   71.3306 H   0  0  0  0  0  0  0  0  0  0  0  0
  1 12  1  0  0  0  0
  1 13  1  0  0  0  0
  2 11  1  0  0  0  0
  3 11  2  0  0  0  0
  4  7  1  0  0  0  0
  4 14  1  0  0  0  0
  5  6  2  0  0  0  0
  5  8  1  0  0  0  0
  6  9  1  0  0  0  0
  7 15  1  0  0  0  0
  8 14  2  0  0  0  0
  9 16  2  0  0  0  0
 10 12  2  0  0  0  0
 10 15  1  0  0  0  0
 11 12  1  0  0  0  0
 13 15  2  0  0  0  0
 13 16  1  0  0  0  0
 14 16  1  0  0  0  0
  2 17  1  0  0  0  0
  5 18  1  0  0  0  0
  6 19  1  0  0  0  0
  7 20  1  0  0  0  0
  7 21  1  0  0  0  0
  8 22  1  0  0  0  0
  9 23  1  0  0  0  0
 10 24  1  0  0  0  0
M  END
> <pdb_id>
7BO2

> <uniprot_id>
Q6P988

> <usmiles>
S1C=2c3c(OCC2C=C1C(=O)O)cccc3

$$$$
U6S_A_501
          07202403123D 1   1.00000     0.00000     0
            
 49 53  0  0  0  0            999 V2000
   38.0412   11.4550   34.0037 O   0  0  0  0  0  0  0  0  0  0  0  0
   41.2318    8.4093   36.5490 N   0  0  0  0  0  0  0  0  0  0  0  0
   36.1435   11.6716   30.1334 N   0  0  0  0  0  0  0  0  0  0  0  0
   40.3070    7.7508   33.1649 N   0  0  0  0  0  0  0  0  0  0  0  0
   42.4591    6.0057   35.4160 N   0  0  0  0  0  0  0  0  0  0  0  0
   38.4511    9.8462   32.3958 N   0  0  0  0  0  0  0  0  0  0  0  0
   41.0701    7.9478   35.2651 N   0  0  0  0  0  0  0  0  0  0  0  0
   40.4803    9.4905   36.8246 C   0  0  0  0  0  0  0  0  0  0  0  0
   36.0283   10.7657   29.1601 C   0  0  0  0  0  0  0  0  0  0  0  0
   36.8763   11.3319   31.2003 C   0  0  0  0  0  0  0  0  0  0  0  0
   41.1354    6.7074   33.4593 C   0  0  0  0  0  0  0  0  0  0  0  0
   39.0803    5.2448   30.6203 C   0  0  0  0  0  0  0  0  0  0  0  0
   38.0639    5.6113   31.4701 C   0  0  0  0  0  0  0  0  0  0  0  0
   39.4978    6.1196   29.6369 C   0  0  0  0  0  0  0  0  0  0  0  0
   39.6345   10.1376   35.9090 C   0  0  0  0  0  0  0  0  0  0  0  0
   36.5896    9.5051   29.2121 C   0  0  0  0  0  0  0  0  0  0  0  0
   37.4775    6.8624   31.3634 C   0  0  0  0  0  0  0  0  0  0  0  0
   38.9171    7.3718   29.5250 C   0  0  0  0  0  0  0  0  0  0  0  0
   43.0878    4.8383   34.8093 C   0  0  0  0  0  0  0  0  0  0  0  0
   42.6736    2.3865   34.1012 C   0  0  0  0  0  0  0  0  0  0  0  0
   41.6884    3.2221   33.3479 C   0  0  0  0  0  0  0  0  0  0  0  0
   38.6072   10.4232   33.6487 C   0  0  0  0  0  0  0  0  0  0  0  0
   41.6076    6.8041   34.7283 C   0  0  0  0  0  0  0  0  0  0  0  0
   40.2735    8.4943   34.2677 C   0  0  0  0  0  0  0  0  0  0  0  0
   37.5136   10.1016   31.3522 C   0  0  0  0  0  0  0  0  0  0  0  0
   37.9088    7.7710   30.4018 C   0  0  0  0  0  0  0  0  0  0  0  0
   39.5205    9.6729   34.6066 C   0  0  0  0  0  0  0  0  0  0  0  0
   37.3372    9.1463   30.3354 C   0  0  0  0  0  0  0  0  0  0  0  0
   42.1431    3.6536   34.7066 C   0  0  0  0  0  0  0  0  0  0  0  0
   42.6820    6.2056   36.3858 H   0  0  0  0  0  0  0  0  0  0  0  0
   39.1451    9.1719   32.1051 H   0  0  0  0  0  0  0  0  0  0  0  0
   40.5836    9.8379   37.8519 H   0  0  0  0  0  0  0  0  0  0  0  0
   35.4492   11.0918   28.2983 H   0  0  0  0  0  0  0  0  0  0  0  0
   36.9310   12.1155   31.9542 H   0  0  0  0  0  0  0  0  0  0  0  0
   41.3428    5.9450   32.7127 H   0  0  0  0  0  0  0  0  0  0  0  0
   39.5551    4.2700   30.7221 H   0  0  0  0  0  0  0  0  0  0  0  0
   37.7125    4.9184   32.2326 H   0  0  0  0  0  0  0  0  0  0  0  0
   40.2855    5.8291   28.9444 H   0  0  0  0  0  0  0  0  0  0  0  0
   39.0783   11.0056   36.2583 H   0  0  0  0  0  0  0  0  0  0  0  0
   36.4574    8.7986   28.3950 H   0  0  0  0  0  0  0  0  0  0  0  0
   36.6698    7.1403   32.0391 H   0  0  0  0  0  0  0  0  0  0  0  0
   39.2494    8.0551   28.7445 H   0  0  0  0  0  0  0  0  0  0  0  0
   43.9576    4.5428   35.3939 H   0  0  0  0  0  0  0  0  0  0  0  0
   43.4881    5.1007   33.8307 H   0  0  0  0  0  0  0  0  0  0  0  0
   42.3817    1.4200   34.5098 H   0  0  0  0  0  0  0  0  0  0  0  0
   43.7092    2.3205   33.7705 H   0  0  0  0  0  0  0  0  0  0  0  0
   42.0010    3.7469   32.4467 H   0  0  0  0  0  0  0  0  0  0  0  0
   40.6672    2.8736   33.1996 H   0  0  0  0  0  0  0  0  0  0  0  0
   41.4464    3.5945   35.5407 H   0  0  0  0  0  0  0  0  0  0  0  0
  1 22  2  0  0  0  0
  2  7  1  0  0  0  0
  2  8  2  0  0  0  0
  3  9  2  0  0  0  0
  3 10  1  0  0  0  0
  4 11  1  0  0  0  0
  4 24  2  0  0  0  0
  5 19  1  0  0  0  0
  5 23  1  0  0  0  0
  5 30  1  0  0  0  0
  6 22  1  0  0  0  0
  6 25  1  0  0  0  0
  6 31  1  0  0  0  0
  7 23  1  0  0  0  0
  7 24  1  0  0  0  0
  8 15  1  0  0  0  0
  8 32  1  0  0  0  0
  9 16  1  0  0  0  0
  9 33  1  0  0  0  0
 10 25  2  0  0  0  0
 10 34  1  0  0  0  0
 11 23  2  0  0  0  0
 11 35  1  0  0  0  0
 12 13  2  0  0  0  0
 12 14  1  0  0  0  0
 12 36  1  0  0  0  0
 13 17  1  0  0  0  0
 13 37  1  0  0  0  0
 14 18  2  0  0  0  0
 14 38  1  0  0  0  0
 15 27  2  0  0  0  0
 15 39  1  0  0  0  0
 16 28  2  0  0  0  0
 16 40  1  0  0  0  0
 17 26  2  0  0  0  0
 17 41  1  0  0  0  0
 18 26  1  0  0  0  0
 18 42  1  0  0  0  0
 19 29  1  0  0  0  0
 19 43  1  0  0  0  0
 19 44  1  0  0  0  0
 20 21  1  0  0  0  0
 20 29  1  0  0  0  0
 20 45  1  0  0  0  0
 20 46  1  0  0  0  0
 21 29  1  0  0  0  0
 21 47  1  0  0  0  0
 21 48  1  0  0  0  0
 22 27  1  0  0  0  0
 24 27  1  0  0  0  0
 25 28  1  0  0  0  0
 26 28  1  0  0  0  0
 29 49  1  0  0  0  0
M  END
> <pdb_id>
8DJE

> <uniprot_id>
P49841

> <usmiles>
O=C(Nc1c(c2ccccc2)ccnc1)C=3C4=NC=C(N4N=CC3)NCC5CC5

$$$$
U73_A_300
          07192421083D 1   1.00000     0.00000     0
            
 33 34  0  0  0  0            999 V2000
    0.5385   28.5413    7.8424 S   0  0  0  0  0  0  0  0  0  0  0  0
    2.5377   26.6499    7.7077 O   0  0  0  0  0  0  0  0  0  0  0  0
    5.0938   25.4716    3.3428 N   0  0  0  0  0  0  0  0  0  0  0  0
    1.6411   30.6462    6.6387 N   0  0  0  0  0  0  0  0  0  0  0  0
    3.1328   28.5881    6.7582 N   0  0  0  0  0  0  0  0  0  0  0  0
   -1.5980   30.7216    9.6103 C   0  0  0  0  0  0  0  0  0  0  0  0
   -2.6344   29.0773    7.9696 C   0  0  0  0  0  0  0  0  0  0  0  0
    4.8620   24.1616    3.4849 C   0  0  0  0  0  0  0  0  0  0  0  0
    5.0659   26.3059    4.3824 C   0  0  0  0  0  0  0  0  0  0  0  0
    0.4388   30.9344    6.9852 C   0  0  0  0  0  0  0  0  0  0  0  0
    4.6047   23.6259    4.7190 C   0  0  0  0  0  0  0  0  0  0  0  0
    4.5659   24.4704    5.8282 C   0  0  0  0  0  0  0  0  0  0  0  0
    4.7353   26.7711    6.7900 C   0  0  0  0  0  0  0  0  0  0  0  0
    1.8341   29.3189    6.9599 C   0  0  0  0  0  0  0  0  0  0  0  0
    3.3608   27.3246    7.0928 C   0  0  0  0  0  0  0  0  0  0  0  0
   -0.2773   29.9958    7.6250 C   0  0  0  0  0  0  0  0  0  0  0  0
   -1.6792   30.2527    8.1423 C   0  0  0  0  0  0  0  0  0  0  0  0
    4.7900   25.8224    5.6386 C   0  0  0  0  0  0  0  0  0  0  0  0
    3.8853   29.0954    6.3381 H   0  0  0  0  0  0  0  0  0  0  0  0
   -0.9633   31.4912    9.6798 H   0  0  0  0  0  0  0  0  0  0  0  0
   -2.5048   31.0084    9.9193 H   0  0  0  0  0  0  0  0  0  0  0  0
   -1.2733   29.9689   10.1831 H   0  0  0  0  0  0  0  0  0  0  0  0
   -2.6578   28.8053    7.0076 H   0  0  0  0  0  0  0  0  0  0  0  0
   -2.3202   28.3080    8.5259 H   0  0  0  0  0  0  0  0  0  0  0  0
   -3.5517   29.3474    8.2621 H   0  0  0  0  0  0  0  0  0  0  0  0
    4.8769   23.5669    2.6812 H   0  0  0  0  0  0  0  0  0  0  0  0
    5.2452   27.2806    4.2483 H   0  0  0  0  0  0  0  0  0  0  0  0
    0.0468   31.8321    6.7843 H   0  0  0  0  0  0  0  0  0  0  0  0
    4.4469   22.6440    4.8230 H   0  0  0  0  0  0  0  0  0  0  0  0
    4.3801   24.1065    6.7409 H   0  0  0  0  0  0  0  0  0  0  0  0
    5.0634   26.2914    7.6038 H   0  0  0  0  0  0  0  0  0  0  0  0
    5.3424   27.5397    6.5886 H   0  0  0  0  0  0  0  0  0  0  0  0
   -2.0524   31.0139    7.6118 H   0  0  0  0  0  0  0  0  0  0  0  0
  1 14  1  0  0  0  0
  1 16  1  0  0  0  0
  2 15  2  0  0  0  0
  3  8  2  0  0  0  0
  3  9  1  0  0  0  0
  4 10  1  0  0  0  0
  4 14  2  0  0  0  0
  5 14  1  0  0  0  0
  5 15  1  0  0  0  0
  6 17  1  0  0  0  0
  7 17  1  0  0  0  0
  8 11  1  0  0  0  0
  9 18  2  0  0  0  0
 10 16  2  0  0  0  0
 11 12  2  0  0  0  0
 12 18  1  0  0  0  0
 13 15  1  0  0  0  0
 13 18  1  0  0  0  0
 16 17  1  0  0  0  0
  5 19  1  0  0  0  0
  6 20  1  0  0  0  0
  6 21  1  0  0  0  0
  6 22  1  0  0  0  0
  7 23  1  0  0  0  0
  7 24  1  0  0  0  0
  7 25  1  0  0  0  0
  8 26  1  0  0  0  0
  9 27  1  0  0  0  0
 10 28  1  0  0  0  0
 11 29  1  0  0  0  0
 12 30  1  0  0  0  0
 13 31  1  0  0  0  0
 13 32  1  0  0  0  0
 17 33  1  0  0  0  0
M  END
> <pdb_id>
2BTR

> <uniprot_id>
P24941

> <usmiles>
S1C(=NC=C1C(C)C)NC(=O)Cc2cnccc2

$$$$
U98_A_1248
          07192422433D 1   1.00000     0.00000     0
            
 31 32  0  0  0  0            999 V2000
    3.8239  179.1309   32.6212 S   0  0  0  0  0  0  0  0  0  0  0  0
    0.2331  172.7250   36.2815 F   0  0  0  0  0  0  0  0  0  0  0  0
    2.2210  171.9751   35.3276 F   0  0  0  0  0  0  0  0  0  0  0  0
   -0.0067  171.4656   34.6843 F   0  0  0  0  0  0  0  0  0  0  0  0
    4.6636  180.2722   33.1462 O   0  0  0  0  0  0  0  0  0  0  0  0
    2.3627  179.3671   32.9860 O   0  0  0  0  0  0  0  0  0  0  0  0
    3.9296  178.9260   30.9257 N   0  0  0  0  0  0  0  0  0  0  0  0
    4.1507  175.6254   34.2731 N   0  0  0  0  0  0  0  0  0  0  0  0
    2.3181  176.6959   33.2465 N   0  0  0  0  0  0  0  0  0  0  0  0
    5.5000  175.6407   34.6533 C   0  0  0  0  0  0  0  0  0  0  0  0
    6.3155  176.7320   34.4102 C   0  0  0  0  0  0  0  0  0  0  0  0
   -0.7703  174.8635   32.7712 C   0  0  0  0  0  0  0  0  0  0  0  0
    5.7612  177.8137   33.7605 C   0  0  0  0  0  0  0  0  0  0  0  0
    0.2339  175.8126   32.6901 C   0  0  0  0  0  0  0  0  0  0  0  0
   -0.6323  173.7549   33.5968 C   0  0  0  0  0  0  0  0  0  0  0  0
    1.5386  174.5706   34.2436 C   0  0  0  0  0  0  0  0  0  0  0  0
    4.4139  177.7629   33.3830 C   0  0  0  0  0  0  0  0  0  0  0  0
    1.4071  175.6850   33.4107 C   0  0  0  0  0  0  0  0  0  0  0  0
    3.6136  176.6500   33.6481 C   0  0  0  0  0  0  0  0  0  0  0  0
    0.5462  173.5955   34.3367 C   0  0  0  0  0  0  0  0  0  0  0  0
    0.6948  172.4531   35.1763 C   0  0  0  0  0  0  0  0  0  0  0  0
    3.3530  178.1583   30.6461 H   0  0  0  0  0  0  0  0  0  0  0  0
    3.6190  179.7598   30.4692 H   0  0  0  0  0  0  0  0  0  0  0  0
    2.0038  177.5316   32.7961 H   0  0  0  0  0  0  0  0  0  0  0  0
    5.8842  174.8402   35.1133 H   0  0  0  0  0  0  0  0  0  0  0  0
    7.2737  176.7357   34.6960 H   0  0  0  0  0  0  0  0  0  0  0  0
   -1.6036  174.9771   32.2301 H   0  0  0  0  0  0  0  0  0  0  0  0
    6.3135  178.6233   33.5616 H   0  0  0  0  0  0  0  0  0  0  0  0
    0.1082  176.6080   32.0973 H   0  0  0  0  0  0  0  0  0  0  0  0
   -1.3659  173.0784   33.6620 H   0  0  0  0  0  0  0  0  0  0  0  0
    2.3701  174.4693   34.7898 H   0  0  0  0  0  0  0  0  0  0  0  0
  1  5  2  0  0  0  0
  1  6  2  0  0  0  0
  1  7  1  0  0  0  0
  1 17  1  0  0  0  0
  2 21  1  0  0  0  0
  3 21  1  0  0  0  0
  4 21  1  0  0  0  0
  8 10  2  0  0  0  0
  8 19  1  0  0  0  0
  9 18  1  0  0  0  0
  9 19  1  0  0  0  0
 10 11  1  0  0  0  0
 11 13  2  0  0  0  0
 12 14  1  0  0  0  0
 12 15  2  0  0  0  0
 13 17  1  0  0  0  0
 14 18  2  0  0  0  0
 15 20  1  0  0  0  0
 16 18  1  0  0  0  0
 16 20  2  0  0  0  0
 17 19  2  0  0  0  0
 20 21  1  0  0  0  0
  7 22  1  0  0  0  0
  7 23  1  0  0  0  0
  9 24  1  0  0  0  0
 10 25  1  0  0  0  0
 11 26  1  0  0  0  0
 12 27  1  0  0  0  0
 13 28  1  0  0  0  0
 14 29  1  0  0  0  0
 15 30  1  0  0  0  0
 16 31  1  0  0  0  0
M  END
> <pdb_id>
4BO3

> <uniprot_id>
O54438

> <usmiles>
S(=O)(=O)(N)c1c(nccc1)Nc2cc(ccc2)C(F)(F)F

$$$$
UA2_A_402
          07202415543D 1   1.00000     0.00000     0
            
 34 36  0  0  0  0            999 V2000
    4.7300    0.2418   21.3836 O   0  0  0  0  0  0  0  0  0  0  0  0
    7.6620   -0.8250   17.7414 O   0  0  0  0  0  0  0  0  0  0  0  0
    6.7747   -3.3990   17.4243 O   0  0  0  0  0  0  0  0  0  0  0  0
    0.9950   -5.9748   21.1752 N   0  0  0  0  0  0  0  0  0  0  0  0
    2.6535   -6.9920   19.8079 N   0  0  0  0  0  0  0  0  0  0  0  0
    4.6949   -5.9139   19.2562 N   0  0  0  0  0  0  0  0  0  0  0  0
    2.9038   -3.5904   21.2743 N   0  0  0  0  0  0  0  0  0  0  0  0
    6.4556   -1.7875   20.4472 N   0  0  0  0  0  0  0  0  0  0  0  0
    4.8791    0.0142   19.9576 C   0  0  0  0  0  0  0  0  0  0  0  0
    3.8512   -6.9762   19.2063 C   0  0  0  0  0  0  0  0  0  0  0  0
    3.9994   -2.8216   21.0557 C   0  0  0  0  0  0  0  0  0  0  0  0
    2.1864   -5.9617   20.5464 C   0  0  0  0  0  0  0  0  0  0  0  0
    6.3440   -1.1352   18.2339 C   0  0  1  0  0  0  0  0  0  0  0  0
    5.9709   -2.6281   18.2917 C   0  0  2  0  0  0  0  0  0  0  0  0
    6.2400   -0.5954   19.6591 C   0  0  2  0  0  0  0  0  0  0  0  0
    3.0271   -4.7720   20.6626 C   0  0  0  0  0  0  0  0  0  0  0  0
    4.2931   -4.8368   19.9419 C   0  0  0  0  0  0  0  0  0  0  0  0
    6.1698   -3.0338   19.7624 C   0  0  2  0  0  0  0  0  0  0  0  0
    4.8901   -3.5379   20.2650 C   0  0  0  0  0  0  0  0  0  0  0  0
    3.8319    0.6423   21.5651 H   0  0  0  0  0  0  0  0  0  0  0  0
    7.7954    0.1660   17.7472 H   0  0  0  0  0  0  0  0  0  0  0  0
    6.5060   -4.3602   17.4871 H   0  0  0  0  0  0  0  0  0  0  0  0
    0.7023   -5.1810   21.7083 H   0  0  0  0  0  0  0  0  0  0  0  0
    0.4034   -6.7783   21.1087 H   0  0  0  0  0  0  0  0  0  0  0  0
    2.1126   -3.3113   21.8184 H   0  0  0  0  0  0  0  0  0  0  0  0
    5.8689   -1.7357   21.2553 H   0  0  0  0  0  0  0  0  0  0  0  0
    4.7948    0.8854   19.4740 H   0  0  0  0  0  0  0  0  0  0  0  0
    4.1626   -0.6103   19.6467 H   0  0  0  0  0  0  0  0  0  0  0  0
    4.1373   -7.7869   18.6955 H   0  0  0  0  0  0  0  0  0  0  0  0
    4.1424   -1.8954   21.4046 H   0  0  0  0  0  0  0  0  0  0  0  0
    5.6721   -0.6614   17.6646 H   0  0  0  0  0  0  0  0  0  0  0  0
    5.0091   -2.7407   18.0424 H   0  0  0  0  0  0  0  0  0  0  0  0
    6.9650    0.0713   19.8320 H   0  0  0  0  0  0  0  0  0  0  0  0
    6.9064   -3.7011   19.8723 H   0  0  0  0  0  0  0  0  0  0  0  0
  1  9  1  0  0  0  0
  2 13  1  0  0  0  0
  3 14  1  0  0  0  0
  4 12  1  0  0  0  0
  5 10  1  0  0  0  0
  5 12  2  0  0  0  0
  6 10  2  0  0  0  0
  6 17  1  0  0  0  0
  7 11  1  0  0  0  0
  7 16  1  0  0  0  0
  8 15  1  0  0  0  0
  8 18  1  0  0  0  0
  9 15  1  0  0  0  0
 11 19  2  0  0  0  0
 12 16  1  0  0  0  0
 13 14  1  0  0  0  0
 13 15  1  0  0  0  0
 14 18  1  0  0  0  0
 16 17  2  0  0  0  0
 17 19  1  0  0  0  0
 18 19  1  0  0  0  0
  1 20  1  0  0  0  0
  2 21  1  0  0  0  0
  3 22  1  0  0  0  0
  4 23  1  0  0  0  0
  4 24  1  0  0  0  0
  7 25  1  0  0  0  0
  8 26  1  0  0  0  0
  9 27  1  0  0  0  0
  9 28  1  0  0  0  0
 10 29  1  0  0  0  0
 11 30  1  0  0  0  0
 13 31  1  0  0  0  0
 14 32  1  0  0  0  0
 15 33  1  0  0  0  0
 18 34  1  0  0  0  0
M  END
> <pdb_id>
4I72

> <uniprot_id>
Q57ZL6

> <usmiles>
O[C@@H]1[C@H](N[C@@H](C=2c3ncnc(N)c3NC2)[C@@H]1O)CO

$$$$
UA3_A_1125
          07202402503D 1   1.00000     0.00000     0
            
 32 33  0  0  0  0            999 V2000
   36.6306    3.7070   13.1416 P   0  0  0  0  0  0  0  0  0  0  0  0
   35.0823    3.3085   13.2592 O   0  0  0  0  0  0  0  0  0  0  0  0
   36.8588    4.9904   12.3987 O   0  0  0  0  0  0  0  0  0  0  0  0
   37.2178    3.7740   14.5260 O   0  0  0  0  0  0  0  0  0  0  0  0
   40.7485    0.5085   13.9825 O   0  0  0  0  0  0  0  0  0  0  0  0
   34.7378   -1.1677   10.5344 O   0  0  0  0  0  0  0  0  0  0  0  0
   34.3978   -5.4056   12.1256 O   0  0  0  0  0  0  0  0  0  0  0  0
   37.0383   -0.6561   14.5618 O   0  0  0  0  0  0  0  0  0  0  0  0
   37.2805    2.5784   12.3828 O   0  0  0  0  0  0  0  0  0  0  0  0
   38.7256   -0.8323   11.7202 O   0  0  0  0  0  0  0  0  0  0  0  0
   34.5923   -3.3007   11.3464 N   0  0  0  0  0  0  0  0  0  0  0  0
   36.5012   -1.9703   11.7430 N   0  0  0  0  0  0  0  0  0  0  0  0
   40.2008    0.7437   12.5289 C   0  0  0  0  0  0  0  0  0  0  0  0
   37.0569   -3.0602   12.4803 C   0  0  0  0  0  0  0  0  0  0  0  0
   36.4080   -4.2268   12.6441 C   0  0  0  0  0  0  0  0  0  0  0  0
   35.2119   -2.0600   11.1413 C   0  0  0  0  0  0  0  0  0  0  0  0
   35.0902   -4.4143   12.0597 C   0  0  0  0  0  0  0  0  0  0  0  0
   36.8613    0.0088   13.0698 C   0  0  2  0  0  0  0  0  0  0  0  0
   37.1727   -0.7464   11.5945 C   0  0  1  0  0  0  0  0  0  0  0  0
   38.9178    0.4565   12.2942 C   0  0  0  0  0  0  0  0  0  0  0  0
   38.0055    1.3108   12.8706 C   0  0  1  0  0  0  0  0  0  0  0  0
   34.9967    2.4484   13.7622 H   0  0  0  0  0  0  0  0  0  0  0  0
   37.8393    5.1831   12.3597 H   0  0  0  0  0  0  0  0  0  0  0  0
   41.7040    0.7122   14.1958 H   0  0  0  0  0  0  0  0  0  0  0  0
   36.7831    0.0148   15.2581 H   0  0  0  0  0  0  0  0  0  0  0  0
   33.6864   -3.4113   10.9375 H   0  0  0  0  0  0  0  0  0  0  0  0
   40.7927    1.0963   11.8041 H   0  0  0  0  0  0  0  0  0  0  0  0
   37.9626   -2.9517   12.8901 H   0  0  0  0  0  0  0  0  0  0  0  0
   36.8322   -4.9654   13.1681 H   0  0  0  0  0  0  0  0  0  0  0  0
   35.9433    0.4023   13.0206 H   0  0  0  0  0  0  0  0  0  0  0  0
   36.8658   -0.2171   10.8035 H   0  0  0  0  0  0  0  0  0  0  0  0
   38.3547    1.5204   13.7839 H   0  0  0  0  0  0  0  0  0  0  0  0
  1  2  1  0  0  0  0
  1  3  1  0  0  0  0
  1  4  2  0  0  0  0
  1  9  1  0  0  0  0
  5 13  1  0  0  0  0
  6 16  2  0  0  0  0
  7 17  2  0  0  0  0
  8 18  1  0  0  0  0
  9 21  1  0  0  0  0
 10 19  1  0  0  0  0
 10 20  1  0  0  0  0
 11 16  1  0  0  0  0
 11 17  1  0  0  0  0
 12 14  1  0  0  0  0
 12 16  1  0  0  0  0
 12 19  1  0  0  0  0
 13 20  2  0  0  0  0
 14 15  2  0  0  0  0
 15 17  1  0  0  0  0
 18 19  1  0  0  0  0
 18 21  1  0  0  0  0
 20 21  1  0  0  0  0
  2 22  1  0  0  0  0
  3 23  1  0  0  0  0
  5 24  1  0  0  0  0
  8 25  1  0  0  0  0
 11 26  1  0  0  0  0
 13 27  1  0  0  0  0
 14 28  1  0  0  0  0
 15 29  1  0  0  0  0
 18 30  1  0  0  0  0
 19 31  1  0  0  0  0
 21 32  1  0  0  0  0
M  END
> <pdb_id>
1W4O

> <uniprot_id>
P61823

> <usmiles>
P(=O)(O[C@@H]1\C(\O[C@@H](N2C(=O)NC(=O)C=C2)[C@H]1O)=C/O)(O)O

$$$$
UA4_B_336
          07192419013D 1   1.00000     0.00000     0
            
 62 65  0  0  0  0            999 V2000
    5.2390   80.5210  155.4230 F   0  0  0  0  0  0  0  0  0  0  0  0
    3.1600   80.9840  159.6140 F   0  0  0  0  0  0  0  0  0  0  0  0
    5.6260   85.4230  156.5400 O   0  0  0  0  0  0  0  0  0  0  0  0
    4.0340   90.6880  156.7210 O   0  0  0  0  0  0  0  0  0  0  0  0
    6.3230   84.4230  159.8780 O   0  0  0  0  0  0  0  0  0  0  0  0
   -0.1230   90.1770  164.0870 N   0  0  0  0  0  0  0  0  0  0  0  0
    0.9130   86.0670  162.1450 N   0  0  0  0  0  0  0  0  0  0  0  0
    0.4290   88.1370  163.1170 N   0  0  0  0  0  0  0  0  0  0  0  0
    2.1070   89.7490  163.5010 N   0  0  0  0  0  0  0  0  0  0  0  0
    4.7530   86.2140  158.4310 N   0  0  0  0  0  0  0  0  0  0  0  0
    3.0660   91.6740  156.3660 C   0  0  0  0  0  0  0  0  0  0  0  0
    4.7160   90.3980  161.7500 C   0  0  0  0  0  0  0  0  0  0  0  0
    7.7280   84.1890  157.9580 C   0  0  0  0  0  0  0  0  0  0  0  0
    3.4430   89.5300  157.3020 C   0  0  0  0  0  0  0  0  0  0  0  0
    3.8790   87.0930  157.6390 C   0  0  0  0  0  0  0  0  0  0  0  0
    4.5040   88.4870  157.6330 C   0  0  0  0  0  0  0  0  0  0  0  0
    4.5000   89.5080  162.9550 C   0  0  0  0  0  0  0  0  0  0  0  0
    5.2670   85.2510  161.8120 C   0  0  0  0  0  0  0  0  0  0  0  0
    4.5130   85.9370  162.4610 C   0  0  0  0  0  0  0  0  0  0  0  0
    4.1310   80.7110  157.5760 C   0  0  0  0  0  0  0  0  0  0  0  0
    5.7700   82.2950  156.8230 C   0  0  0  0  0  0  0  0  0  0  0  0
    4.6830   82.4760  158.9320 C   0  0  0  0  0  0  0  0  0  0  0  0
    3.8070   86.9130  160.4400 C   0  0  0  0  0  0  0  0  0  0  0  0
    5.0800   81.1760  156.5550 C   0  0  0  0  0  0  0  0  0  0  0  0
    4.0110   81.4170  158.7120 C   0  0  0  0  0  0  0  0  0  0  0  0
    0.8120   89.3520  163.5590 C   0  0  0  0  0  0  0  0  0  0  0  0
    5.5360   85.3540  157.7580 C   0  0  0  0  0  0  0  0  0  0  0  0
    1.3310   87.2820  162.5880 C   0  0  0  0  0  0  0  0  0  0  0  0
    5.3830   85.2920  160.5360 C   0  0  0  0  0  0  0  0  0  0  0  0
    3.0850   88.9700  162.9830 C   0  0  0  0  0  0  0  0  0  0  0  0
    4.6530   86.1260  159.7810 C   0  0  0  0  0  0  0  0  0  0  0  0
    3.7630   86.7860  161.8950 C   0  0  0  0  0  0  0  0  0  0  0  0
    5.5330   82.9630  158.1210 C   0  0  0  0  0  0  0  0  0  0  0  0
    2.7590   87.7030  162.5250 C   0  0  0  0  0  0  0  0  0  0  0  0
    6.2800   84.2390  158.4600 C   0  0  2  0  0  0  0  0  0  0  0  0
    0.1400   91.0823  164.4206 H   0  0  0  0  0  0  0  0  0  0  0  0
   -1.0765   89.8810  164.1433 H   0  0  0  0  0  0  0  0  0  0  0  0
    1.5708   85.4249  161.7513 H   0  0  0  0  0  0  0  0  0  0  0  0
   -0.0524   85.8151  162.2128 H   0  0  0  0  0  0  0  0  0  0  0  0
    3.5276   92.4647  155.9638 H   0  0  0  0  0  0  0  0  0  0  0  0
    2.4256   91.2884  155.7018 H   0  0  0  0  0  0  0  0  0  0  0  0
    2.5663   91.9601  157.1836 H   0  0  0  0  0  0  0  0  0  0  0  0
    5.6554   90.7407  161.7529 H   0  0  0  0  0  0  0  0  0  0  0  0
    4.5554   89.8726  160.9145 H   0  0  0  0  0  0  0  0  0  0  0  0
    4.0799   91.1687  161.7865 H   0  0  0  0  0  0  0  0  0  0  0  0
    7.7327   84.0607  156.9663 H   0  0  0  0  0  0  0  0  0  0  0  0
    8.1894   85.0466  158.1854 H   0  0  0  0  0  0  0  0  0  0  0  0
    8.2062   83.4272  158.3950 H   0  0  0  0  0  0  0  0  0  0  0  0
    2.7880   89.1375  156.6563 H   0  0  0  0  0  0  0  0  0  0  0  0
    2.9673   89.7913  158.1419 H   0  0  0  0  0  0  0  0  0  0  0  0
    2.9688   87.1297  158.0516 H   0  0  0  0  0  0  0  0  0  0  0  0
    3.8070   86.7481  156.7031 H   0  0  0  0  0  0  0  0  0  0  0  0
    4.8899   88.6812  158.5349 H   0  0  0  0  0  0  0  0  0  0  0  0
    5.2293   88.5222  156.9455 H   0  0  0  0  0  0  0  0  0  0  0  0
    4.6654   90.0376  163.7870 H   0  0  0  0  0  0  0  0  0  0  0  0
    5.1409   88.7415  162.9149 H   0  0  0  0  0  0  0  0  0  0  0  0
    5.8442   84.6022  162.3079 H   0  0  0  0  0  0  0  0  0  0  0  0
    4.4810   85.8332  163.4551 H   0  0  0  0  0  0  0  0  0  0  0  0
    3.5858   79.8859  157.4279 H   0  0  0  0  0  0  0  0  0  0  0  0
    6.4249   82.6662  156.1648 H   0  0  0  0  0  0  0  0  0  0  0  0
    4.5329   82.9549  159.7970 H   0  0  0  0  0  0  0  0  0  0  0  0
    3.2234   87.5666  159.9581 H   0  0  0  0  0  0  0  0  0  0  0  0
  1 24  1  0  0  0  0
  2 25  1  0  0  0  0
  3 27  2  0  0  0  0
  4 11  1  0  0  0  0
  4 14  1  0  0  0  0
  5 29  1  0  0  0  0
  5 35  1  0  0  0  0
  6 26  1  0  0  0  0
  7 28  1  0  0  0  0
  8 26  2  0  0  0  0
  8 28  1  0  0  0  0
  9 26  1  0  0  0  0
  9 30  2  0  0  0  0
 10 15  1  0  0  0  0
 10 27  1  0  0  0  0
 10 31  1  0  0  0  0
 12 17  1  0  0  0  0
 13 35  1  0  0  0  0
 14 16  1  0  0  0  0
 15 16  1  0  0  0  0
 17 30  1  0  0  0  0
 18 19  1  0  0  0  0
 18 29  2  0  0  0  0
 19 32  2  0  0  0  0
 20 24  2  0  0  0  0
 20 25  1  0  0  0  0
 21 24  1  0  0  0  0
 21 33  2  0  0  0  0
 22 25  2  0  0  0  0
 22 33  1  0  0  0  0
 23 31  2  0  0  0  0
 23 32  1  0  0  0  0
 27 35  1  0  0  0  0
 28 34  2  0  0  0  0
 29 31  1  0  0  0  0
 30 34  1  0  0  0  0
 32 34  1  0  0  0  0
 33 35  1  0  0  0  0
  6 36  1  0  0  0  0
  6 37  1  0  0  0  0
  7 38  1  0  0  0  0
  7 39  1  0  0  0  0
 11 40  1  0  0  0  0
 11 41  1  0  0  0  0
 11 42  1  0  0  0  0
 12 43  1  0  0  0  0
 12 44  1  0  0  0  0
 12 45  1  0  0  0  0
 13 46  1  0  0  0  0
 13 47  1  0  0  0  0
 13 48  1  0  0  0  0
 14 49  1  0  0  0  0
 14 50  1  0  0  0  0
 15 51  1  0  0  0  0
 15 52  1  0  0  0  0
 16 53  1  0  0  0  0
 16 54  1  0  0  0  0
 17 55  1  0  0  0  0
 17 56  1  0  0  0  0
 18 57  1  0  0  0  0
 19 58  1  0  0  0  0
 20 59  1  0  0  0  0
 21 60  1  0  0  0  0
 22 61  1  0  0  0  0
 23 62  1  0  0  0  0
M  END
> <pdb_id>
2I4Q

> <uniprot_id>
P00797

> <usmiles>
Fc1cc(F)cc(c1)[C@@]2(Oc3c(N(C2=O)CCCOC)cc(c4c(nc(nc4CC)N)N)cc3)C

$$$$
UAN_A_1157
          07192416543D 1   1.00000     0.00000     0
            
 22 23  0  0  0  0            999 V2000
   17.4749   19.5319    6.1596 O   0  0  0  0  0  0  0  0  0  0  0  0
   18.3018   22.4595    2.7007 N   0  0  0  0  0  0  0  0  0  0  0  0
   14.6890   19.0949    4.8694 N   0  0  0  0  0  0  0  0  0  0  0  0
   17.8374   21.0119    4.4266 N   0  0  0  0  0  0  0  0  0  0  0  0
   16.2164   21.5445    2.7598 N   0  0  0  0  0  0  0  0  0  0  0  0
   14.1678   20.2921    3.0535 N   0  0  0  0  0  0  0  0  0  0  0  0
   18.0057   23.2931    1.5475 C   0  0  0  0  0  0  0  0  0  0  0  0
   13.3988   20.7169    1.8829 C   0  0  0  0  0  0  0  0  0  0  0  0
   13.7581   19.4006    3.9904 C   0  0  0  0  0  0  0  0  0  0  0  0
   17.4029   21.6967    3.3200 C   0  0  0  0  0  0  0  0  0  0  0  0
   17.0540   20.1136    5.1439 C   0  0  0  0  0  0  0  0  0  0  0  0
   15.4162   20.6994    3.4321 C   0  0  0  0  0  0  0  0  0  0  0  0
   15.7176   19.9728    4.5705 C   0  0  0  0  0  0  0  0  0  0  0  0
   19.2385   22.4587    3.0507 H   0  0  0  0  0  0  0  0  0  0  0  0
   18.7752   21.1681    4.7367 H   0  0  0  0  0  0  0  0  0  0  0  0
   18.8358   23.7706    1.2595 H   0  0  0  0  0  0  0  0  0  0  0  0
   17.6738   22.7200    0.7983 H   0  0  0  0  0  0  0  0  0  0  0  0
   17.3038   23.9623    1.7914 H   0  0  0  0  0  0  0  0  0  0  0  0
   13.9313   21.3801    1.3569 H   0  0  0  0  0  0  0  0  0  0  0  0
   13.1970   19.9223    1.3103 H   0  0  0  0  0  0  0  0  0  0  0  0
   12.5427   21.1386    2.1816 H   0  0  0  0  0  0  0  0  0  0  0  0
   12.8367   19.0126    4.0112 H   0  0  0  0  0  0  0  0  0  0  0  0
  1 11  2  0  0  0  0
  2  7  1  0  0  0  0
  2 10  1  0  0  0  0
  3  9  2  0  0  0  0
  3 13  1  0  0  0  0
  4 10  1  0  0  0  0
  4 11  1  0  0  0  0
  5 10  2  0  0  0  0
  5 12  1  0  0  0  0
  6  8  1  0  0  0  0
  6  9  1  0  0  0  0
  6 12  1  0  0  0  0
 11 13  1  0  0  0  0
 12 13  2  0  0  0  0
  2 14  1  0  0  0  0
  4 15  1  0  0  0  0
  7 16  1  0  0  0  0
  7 17  1  0  0  0  0
  7 18  1  0  0  0  0
  8 19  1  0  0  0  0
  8 20  1  0  0  0  0
  8 21  1  0  0  0  0
  9 22  1  0  0  0  0
M  END
> <pdb_id>
5FSL

> <uniprot_id>
P36639

> <usmiles>
O=C1NC(=NC=2N(C=NC12)C)NC

$$$$
UB1_A_603
          07202409023D 1   1.00000     0.00000     0
            
 39 40  0  0  0  0            999 V2000
   -3.4971   -5.4901   20.9995 Br  0  0  0  0  0  0  0  0  0  0  0  0
   -3.8507   -2.8320   18.5716 Br  0  0  0  0  0  0  0  0  0  0  0  0
   -2.3811   -7.0810   18.3216 S   0  0  0  0  0  0  0  0  0  0  0  0
   -1.4280   -6.6043   14.5325 O   0  0  0  0  0  0  0  0  0  0  0  0
   -1.6874   -8.4165   15.7430 O   0  0  0  0  0  0  0  0  0  0  0  0
  -10.4750   -4.1369   13.6113 O   0  0  0  0  0  0  0  0  0  0  0  0
   -9.9454   -5.6595   15.0935 O   0  0  0  0  0  0  0  0  0  0  0  0
   -5.4441   -5.1236   15.7000 O   0  0  0  0  0  0  0  0  0  0  0  0
   -2.7333   -1.3985   15.2002 O   0  0  0  0  0  0  0  0  0  0  0  0
   -7.9151   -3.3374   13.2269 N   0  0  0  0  0  0  0  0  0  0  0  0
   -6.4314   -3.0534   15.5361 N   0  0  0  0  0  0  0  0  0  0  0  0
   -3.9862   -3.3083   15.4609 N   0  0  0  0  0  0  0  0  0  0  0  0
   -4.9531    0.3894   15.1363 C   0  0  0  0  0  0  0  0  0  0  0  0
   -7.7527   -3.6830   15.6489 C   0  0  0  0  0  0  0  0  0  0  0  0
   -6.3236   -1.7185   15.4041 C   0  0  0  0  0  0  0  0  0  0  0  0
   -2.7523   -4.0948   15.4776 C   0  0  0  0  0  0  0  0  0  0  0  0
   -3.0165   -5.6783   19.0826 C   0  0  0  0  0  0  0  0  0  0  0  0
   -1.7562   -7.1833   15.5951 C   0  0  0  0  0  0  0  0  0  0  0  0
   -9.6230   -4.7188   14.3330 C   0  0  0  0  0  0  0  0  0  0  0  0
   -5.2790   -3.8872   15.5679 C   0  0  0  0  0  0  0  0  0  0  0  0
   -3.1474   -4.6106   18.0813 C   0  0  0  0  0  0  0  0  0  0  0  0
   -3.8578   -1.9256   15.3101 C   0  0  0  0  0  0  0  0  0  0  0  0
   -2.2647   -6.3787   16.7341 C   0  0  0  0  0  0  0  0  0  0  0  0
   -8.1751   -4.2880   14.2942 C   0  0  1  0  0  0  0  0  0  0  0  0
   -5.0843   -1.0982   15.2884 C   0  0  0  0  0  0  0  0  0  0  0  0
   -2.7275   -4.9672   16.6931 C   0  0  0  0  0  0  0  0  0  0  0  0
   -1.5012   -5.6095   14.4620 H   0  0  0  0  0  0  0  0  0  0  0  0
  -10.1942   -3.3877   13.0115 H   0  0  0  0  0  0  0  0  0  0  0  0
   -8.1908   -3.7352   12.3518 H   0  0  0  0  0  0  0  0  0  0  0  0
   -8.4366   -2.5003   13.3917 H   0  0  0  0  0  0  0  0  0  0  0  0
   -3.9857    0.6336   15.0695 H   0  0  0  0  0  0  0  0  0  0  0  0
   -5.4289    0.6830   14.3072 H   0  0  0  0  0  0  0  0  0  0  0  0
   -5.3572    0.8427   15.9308 H   0  0  0  0  0  0  0  0  0  0  0  0
   -8.4233   -2.9950   15.9264 H   0  0  0  0  0  0  0  0  0  0  0  0
   -7.7149   -4.4081   16.3365 H   0  0  0  0  0  0  0  0  0  0  0  0
   -7.1530   -1.1601   15.3889 H   0  0  0  0  0  0  0  0  0  0  0  0
   -1.9651   -3.4782   15.4947 H   0  0  0  0  0  0  0  0  0  0  0  0
   -2.7107   -4.6658   14.6577 H   0  0  0  0  0  0  0  0  0  0  0  0
   -7.6148   -5.0997   14.1294 H   0  0  0  0  0  0  0  0  0  0  0  0
  1 17  1  0  0  0  0
  2 21  1  0  0  0  0
  3 17  1  0  0  0  0
  3 23  1  0  0  0  0
  4 18  1  0  0  0  0
  5 18  2  0  0  0  0
  6 19  1  0  0  0  0
  7 19  2  0  0  0  0
  8 20  2  0  0  0  0
  9 22  2  0  0  0  0
 10 24  1  0  0  0  0
 11 14  1  0  0  0  0
 11 15  1  0  0  0  0
 11 20  1  0  0  0  0
 12 16  1  0  0  0  0
 12 20  1  0  0  0  0
 12 22  1  0  0  0  0
 13 25  1  0  0  0  0
 14 24  1  0  0  0  0
 15 25  2  0  0  0  0
 16 26  1  0  0  0  0
 17 21  2  0  0  0  0
 18 23  1  0  0  0  0
 19 24  1  0  0  0  0
 21 26  1  0  0  0  0
 22 25  1  0  0  0  0
 23 26  2  0  0  0  0
  4 27  1  0  0  0  0
  6 28  1  0  0  0  0
 10 29  1  0  0  0  0
 10 30  1  0  0  0  0
 13 31  1  0  0  0  0
 13 32  1  0  0  0  0
 13 33  1  0  0  0  0
 14 34  1  0  0  0  0
 14 35  1  0  0  0  0
 15 36  1  0  0  0  0
 16 37  1  0  0  0  0
 16 38  1  0  0  0  0
 24 39  1  0  0  0  0
M  END
> <pdb_id>
2QS1

> <uniprot_id>
P22756

> <usmiles>
BrC=1SC(C(=O)O)=C(C1Br)CN2C(=O)N(C=C(C2=O)C)C[C@H](N)C(=O)O

$$$$
UBA_B_802
          07202409023D 1   1.00000     0.00000     0
            
 39 40  0  0  0  0            999 V2000
   -1.5651   -7.4300   17.9362 S   0  0  0  0  0  0  0  0  0  0  0  0
   -5.6796   -5.6468   15.6331 O   0  0  0  0  0  0  0  0  0  0  0  0
   -1.1444   -6.7966   14.0721 O   0  0  0  0  0  0  0  0  0  0  0  0
   -1.0646   -8.6645   15.2576 O   0  0  0  0  0  0  0  0  0  0  0  0
  -10.4557   -4.2144   13.7248 O   0  0  0  0  0  0  0  0  0  0  0  0
  -10.0753   -5.7687   15.2242 O   0  0  0  0  0  0  0  0  0  0  0  0
   -2.6747   -2.2548   15.3415 O   0  0  0  0  0  0  0  0  0  0  0  0
   -8.0363   -3.3966   13.4808 N   0  0  0  0  0  0  0  0  0  0  0  0
   -6.4561   -3.5125   15.7705 N   0  0  0  0  0  0  0  0  0  0  0  0
   -4.1112   -3.9805   15.4726 N   0  0  0  0  0  0  0  0  0  0  0  0
   -4.6191   -0.1688   15.6681 C   0  0  0  0  0  0  0  0  0  0  0  0
   -2.4430   -6.1745   18.7761 C   0  0  0  0  0  0  0  0  0  0  0  0
   -7.7882   -4.0795   15.8857 C   0  0  0  0  0  0  0  0  0  0  0  0
   -6.2134   -2.1881   15.7959 C   0  0  0  0  0  0  0  0  0  0  0  0
   -2.9908   -4.8670   15.2493 C   0  0  0  0  0  0  0  0  0  0  0  0
   -2.9445   -5.2821   17.8200 C   0  0  0  0  0  0  0  0  0  0  0  0
   -5.4071   -4.4436   15.6259 C   0  0  0  0  0  0  0  0  0  0  0  0
   -1.3306   -7.4549   15.1291 C   0  0  0  0  0  0  0  0  0  0  0  0
   -9.6546   -4.8458   14.4809 C   0  0  0  0  0  0  0  0  0  0  0  0
   -3.8324   -2.6253   15.4912 C   0  0  0  0  0  0  0  0  0  0  0  0
   -1.8409   -6.8090   16.3583 C   0  0  0  0  0  0  0  0  0  0  0  0
   -8.2124   -4.4720   14.4464 C   0  0  1  0  0  0  0  0  0  0  0  0
   -4.9342   -1.6569   15.6465 C   0  0  0  0  0  0  0  0  0  0  0  0
   -2.6439   -5.5916   16.4856 C   0  0  0  0  0  0  0  0  0  0  0  0
   -1.3816   -5.8257   14.0394 H   0  0  0  0  0  0  0  0  0  0  0  0
  -10.1148   -3.4815   13.1361 H   0  0  0  0  0  0  0  0  0  0  0  0
   -8.3259   -3.7099   12.5764 H   0  0  0  0  0  0  0  0  0  0  0  0
   -8.5896   -2.6096   13.7538 H   0  0  0  0  0  0  0  0  0  0  0  0
   -3.6363   -0.0344   15.5416 H   0  0  0  0  0  0  0  0  0  0  0  0
   -5.1157    0.2878   14.9300 H   0  0  0  0  0  0  0  0  0  0  0  0
   -4.8980    0.2183   16.5469 H   0  0  0  0  0  0  0  0  0  0  0  0
   -2.5659   -6.1051   19.7661 H   0  0  0  0  0  0  0  0  0  0  0  0
   -8.4219   -3.4039   16.2625 H   0  0  0  0  0  0  0  0  0  0  0  0
   -7.7722   -4.8869   16.4754 H   0  0  0  0  0  0  0  0  0  0  0  0
   -6.9815   -1.5614   15.9272 H   0  0  0  0  0  0  0  0  0  0  0  0
   -2.2016   -4.3298   14.9514 H   0  0  0  0  0  0  0  0  0  0  0  0
   -3.2318   -5.5277   14.5384 H   0  0  0  0  0  0  0  0  0  0  0  0
   -3.4817   -4.4773   18.0723 H   0  0  0  0  0  0  0  0  0  0  0  0
   -7.6771   -5.2642   14.1533 H   0  0  0  0  0  0  0  0  0  0  0  0
  1 12  1  0  0  0  0
  1 21  1  0  0  0  0
  2 17  2  0  0  0  0
  3 18  1  0  0  0  0
  4 18  2  0  0  0  0
  5 19  1  0  0  0  0
  6 19  2  0  0  0  0
  7 20  2  0  0  0  0
  8 22  1  0  0  0  0
  9 13  1  0  0  0  0
  9 14  1  0  0  0  0
  9 17  1  0  0  0  0
 10 15  1  0  0  0  0
 10 17  1  0  0  0  0
 10 20  1  0  0  0  0
 11 23  1  0  0  0  0
 12 16  2  0  0  0  0
 13 22  1  0  0  0  0
 14 23  2  0  0  0  0
 15 24  1  0  0  0  0
 16 24  1  0  0  0  0
 18 21  1  0  0  0  0
 19 22  1  0  0  0  0
 20 23  1  0  0  0  0
 21 24  2  0  0  0  0
  3 25  1  0  0  0  0
  5 26  1  0  0  0  0
  8 27  1  0  0  0  0
  8 28  1  0  0  0  0
 11 29  1  0  0  0  0
 11 30  1  0  0  0  0
 11 31  1  0  0  0  0
 12 32  1  0  0  0  0
 13 33  1  0  0  0  0
 13 34  1  0  0  0  0
 14 35  1  0  0  0  0
 15 36  1  0  0  0  0
 15 37  1  0  0  0  0
 16 38  1  0  0  0  0
 22 39  1  0  0  0  0
M  END
> <pdb_id>
2F34

> <uniprot_id>
P22756

> <usmiles>
S1C(C(=O)O)=C(C=C1)CN2C(=O)N(C=C(C2=O)C)C[C@H](N)C(=O)O

$$$$
UBE_A_603
          07202409023D 1   1.00000     0.00000     0
            
 49 51  0  0  0  0            999 V2000
   -1.5840   -7.5790   17.8130 S   0  0  0  0  0  0  0  0  0  0  0  0
   -5.6450   -5.7310   15.5420 O   0  0  0  0  0  0  0  0  0  0  0  0
   -1.2010   -7.0020   14.0160 O   0  0  0  0  0  0  0  0  0  0  0  0
   -1.4920   -8.9140   15.0810 O   0  0  0  0  0  0  0  0  0  0  0  0
  -10.5550   -4.2790   13.7580 O   0  0  0  0  0  0  0  0  0  0  0  0
  -10.1810   -5.8380   15.2680 O   0  0  0  0  0  0  0  0  0  0  0  0
   -2.7370   -2.1550   15.3770 O   0  0  0  0  0  0  0  0  0  0  0  0
   -8.0950   -3.4720   13.5630 N   0  0  0  0  0  0  0  0  0  0  0  0
   -6.5000   -3.6080   15.8120 N   0  0  0  0  0  0  0  0  0  0  0  0
   -4.1150   -3.9910   15.4490 N   0  0  0  0  0  0  0  0  0  0  0  0
   -4.8380   -0.2220   15.8270 C   0  0  0  0  0  0  0  0  0  0  0  0
   -7.8610   -4.1440   15.9450 C   0  0  0  0  0  0  0  0  0  0  0  0
   -6.3040   -2.2800   15.8840 C   0  0  0  0  0  0  0  0  0  0  0  0
   -2.9630   -4.8380   15.1860 C   0  0  0  0  0  0  0  0  0  0  0  0
   -2.2460   -6.0780   22.8690 C   0  0  0  0  0  0  0  0  0  0  0  0
   -1.7090   -5.0220   22.1310 C   0  0  0  0  0  0  0  0  0  0  0  0
   -2.8030   -7.1880   22.2300 C   0  0  0  0  0  0  0  0  0  0  0  0
   -1.7380   -5.0840   20.7360 C   0  0  0  0  0  0  0  0  0  0  0  0
   -2.8310   -7.2480   20.8350 C   0  0  0  0  0  0  0  0  0  0  0  0
   -2.7680   -5.2560   17.7100 C   0  0  0  0  0  0  0  0  0  0  0  0
   -5.4210   -4.5030   15.5970 C   0  0  0  0  0  0  0  0  0  0  0  0
   -1.5080   -7.6680   15.0320 C   0  0  0  0  0  0  0  0  0  0  0  0
   -9.7850   -4.9080   14.5260 C   0  0  0  0  0  0  0  0  0  0  0  0
   -3.8870   -2.6120   15.5170 C   0  0  0  0  0  0  0  0  0  0  0  0
   -2.2970   -6.2050   18.6140 C   0  0  0  0  0  0  0  0  0  0  0  0
   -1.8970   -6.9360   16.2590 C   0  0  0  0  0  0  0  0  0  0  0  0
   -8.3330   -4.5400   14.5290 C   0  0  1  0  0  0  0  0  0  0  0  0
   -5.0440   -1.7130   15.7430 C   0  0  0  0  0  0  0  0  0  0  0  0
   -2.2940   -6.1970   20.0990 C   0  0  0  0  0  0  0  0  0  0  0  0
   -2.5710   -5.6260   16.3780 C   0  0  0  0  0  0  0  0  0  0  0  0
   -1.2352   -6.0030   14.0439 H   0  0  0  0  0  0  0  0  0  0  0  0
  -10.1965   -3.5436   13.1829 H   0  0  0  0  0  0  0  0  0  0  0  0
   -8.4119   -3.7625   12.6601 H   0  0  0  0  0  0  0  0  0  0  0  0
   -8.5937   -2.6518   13.8433 H   0  0  0  0  0  0  0  0  0  0  0  0
   -3.8685   -0.0118   15.7012 H   0  0  0  0  0  0  0  0  0  0  0  0
   -5.3723    0.2291   15.1122 H   0  0  0  0  0  0  0  0  0  0  0  0
   -5.1365    0.1058   16.7233 H   0  0  0  0  0  0  0  0  0  0  0  0
   -8.4683   -3.4473   16.3267 H   0  0  0  0  0  0  0  0  0  0  0  0
   -7.8570   -4.9461   16.5421 H   0  0  0  0  0  0  0  0  0  0  0  0
   -7.0894   -1.6821   16.0440 H   0  0  0  0  0  0  0  0  0  0  0  0
   -2.1934   -4.2609   14.9129 H   0  0  0  0  0  0  0  0  0  0  0  0
   -3.1880   -5.4675   14.4423 H   0  0  0  0  0  0  0  0  0  0  0  0
   -2.2317   -6.0393   23.8682 H   0  0  0  0  0  0  0  0  0  0  0  0
   -1.3089   -4.2316   22.5949 H   0  0  0  0  0  0  0  0  0  0  0  0
   -3.1814   -7.9391   22.7709 H   0  0  0  0  0  0  0  0  0  0  0  0
   -1.3614   -4.3330   20.1936 H   0  0  0  0  0  0  0  0  0  0  0  0
   -3.2325   -8.0374   20.3706 H   0  0  0  0  0  0  0  0  0  0  0  0
   -3.2022   -4.3986   17.9861 H   0  0  0  0  0  0  0  0  0  0  0  0
   -7.8093   -5.3416   14.2404 H   0  0  0  0  0  0  0  0  0  0  0  0
  1 25  1  0  0  0  0
  1 26  1  0  0  0  0
  2 21  2  0  0  0  0
  3 22  1  0  0  0  0
  4 22  2  0  0  0  0
  5 23  1  0  0  0  0
  6 23  2  0  0  0  0
  7 24  2  0  0  0  0
  8 27  1  0  0  0  0
  9 12  1  0  0  0  0
  9 13  1  0  0  0  0
  9 21  1  0  0  0  0
 10 14  1  0  0  0  0
 10 21  1  0  0  0  0
 10 24  1  0  0  0  0
 11 28  1  0  0  0  0
 12 27  1  0  0  0  0
 13 28  2  0  0  0  0
 14 30  1  0  0  0  0
 15 16  2  0  0  0  0
 15 17  1  0  0  0  0
 16 18  1  0  0  0  0
 17 19  2  0  0  0  0
 18 29  2  0  0  0  0
 19 29  1  0  0  0  0
 20 25  2  0  0  0  0
 20 30  1  0  0  0  0
 22 26  1  0  0  0  0
 23 27  1  0  0  0  0
 24 28  1  0  0  0  0
 25 29  1  0  0  0  0
 26 30  2  0  0  0  0
  3 31  1  0  0  0  0
  5 32  1  0  0  0  0
  8 33  1  0  0  0  0
  8 34  1  0  0  0  0
 11 35  1  0  0  0  0
 11 36  1  0  0  0  0
 11 37  1  0  0  0  0
 12 38  1  0  0  0  0
 12 39  1  0  0  0  0
 13 40  1  0  0  0  0
 14 41  1  0  0  0  0
 14 42  1  0  0  0  0
 15 43  1  0  0  0  0
 16 44  1  0  0  0  0
 17 45  1  0  0  0  0
 18 46  1  0  0  0  0
 19 47  1  0  0  0  0
 20 48  1  0  0  0  0
 27 49  1  0  0  0  0
M  END
> <pdb_id>
2QS3

> <uniprot_id>
P22756

> <usmiles>
S1C(c2ccccc2)=CC(=C1C(=O)O)CN3C(=O)N(C=C(C3=O)C)C[C@H](N)C(=O)O

$$$$
UBF_B_602
          07202409023D 1   1.00000     0.00000     0
            
 36 37  0  0  0  0            999 V2000
   -4.5642    0.1449   15.7078 Br  0  0  0  0  0  0  0  0  0  0  0  0
   -1.4616   -7.4662   17.8298 S   0  0  0  0  0  0  0  0  0  0  0  0
   -0.9405   -6.8146   13.9961 O   0  0  0  0  0  0  0  0  0  0  0  0
   -0.7066   -8.6517   15.1579 O   0  0  0  0  0  0  0  0  0  0  0  0
  -10.5567   -4.1915   13.7854 O   0  0  0  0  0  0  0  0  0  0  0  0
  -10.1461   -5.7555   15.2685 O   0  0  0  0  0  0  0  0  0  0  0  0
   -5.5861   -5.7076   15.4671 O   0  0  0  0  0  0  0  0  0  0  0  0
   -2.6456   -2.1542   15.2740 O   0  0  0  0  0  0  0  0  0  0  0  0
   -8.0433   -3.4195   13.5056 N   0  0  0  0  0  0  0  0  0  0  0  0
   -6.4313   -3.5623   15.7273 N   0  0  0  0  0  0  0  0  0  0  0  0
   -4.0471   -3.9876   15.3587 N   0  0  0  0  0  0  0  0  0  0  0  0
   -2.4226   -6.2582   18.6328 C   0  0  0  0  0  0  0  0  0  0  0  0
   -6.2156   -2.2325   15.7885 C   0  0  0  0  0  0  0  0  0  0  0  0
   -7.7990   -4.0807   15.8675 C   0  0  0  0  0  0  0  0  0  0  0  0
   -2.9157   -4.8679   15.1141 C   0  0  0  0  0  0  0  0  0  0  0  0
   -2.9148   -5.3714   17.6692 C   0  0  0  0  0  0  0  0  0  0  0  0
   -1.0746   -7.4679   15.0554 C   0  0  0  0  0  0  0  0  0  0  0  0
   -9.7593   -4.8377   14.5057 C   0  0  0  0  0  0  0  0  0  0  0  0
   -4.9369   -1.7034   15.6379 C   0  0  0  0  0  0  0  0  0  0  0  0
   -5.3619   -4.4769   15.5162 C   0  0  0  0  0  0  0  0  0  0  0  0
   -1.6832   -6.8333   16.2519 C   0  0  0  0  0  0  0  0  0  0  0  0
   -3.7975   -2.6138   15.4142 C   0  0  0  0  0  0  0  0  0  0  0  0
   -8.2974   -4.4891   14.4646 C   0  0  1  0  0  0  0  0  0  0  0  0
   -2.5460   -5.6397   16.3373 C   0  0  0  0  0  0  0  0  0  0  0  0
   -1.2489   -5.8643   13.9523 H   0  0  0  0  0  0  0  0  0  0  0  0
  -10.2152   -3.4656   13.1883 H   0  0  0  0  0  0  0  0  0  0  0  0
   -8.3706   -3.6970   12.6023 H   0  0  0  0  0  0  0  0  0  0  0  0
   -8.5241   -2.5916   13.7945 H   0  0  0  0  0  0  0  0  0  0  0  0
   -2.5941   -6.2066   19.6166 H   0  0  0  0  0  0  0  0  0  0  0  0
   -6.9873   -1.6161   15.9448 H   0  0  0  0  0  0  0  0  0  0  0  0
   -8.3939   -3.3718   16.2464 H   0  0  0  0  0  0  0  0  0  0  0  0
   -7.8004   -4.8761   16.4735 H   0  0  0  0  0  0  0  0  0  0  0  0
   -2.1315   -4.3170   14.8285 H   0  0  0  0  0  0  0  0  0  0  0  0
   -3.1553   -5.5096   14.3855 H   0  0  0  0  0  0  0  0  0  0  0  0
   -3.4940   -4.5932   17.9121 H   0  0  0  0  0  0  0  0  0  0  0  0
   -7.7889   -5.2996   14.1738 H   0  0  0  0  0  0  0  0  0  0  0  0
  1 19  1  0  0  0  0
  2 12  1  0  0  0  0
  2 21  1  0  0  0  0
  3 17  1  0  0  0  0
  4 17  2  0  0  0  0
  5 18  1  0  0  0  0
  6 18  2  0  0  0  0
  7 20  2  0  0  0  0
  8 22  2  0  0  0  0
  9 23  1  0  0  0  0
 10 13  1  0  0  0  0
 10 14  1  0  0  0  0
 10 20  1  0  0  0  0
 11 15  1  0  0  0  0
 11 20  1  0  0  0  0
 11 22  1  0  0  0  0
 12 16  2  0  0  0  0
 13 19  2  0  0  0  0
 14 23  1  0  0  0  0
 15 24  1  0  0  0  0
 16 24  1  0  0  0  0
 17 21  1  0  0  0  0
 18 23  1  0  0  0  0
 19 22  1  0  0  0  0
 21 24  2  0  0  0  0
  3 25  1  0  0  0  0
  5 26  1  0  0  0  0
  9 27  1  0  0  0  0
  9 28  1  0  0  0  0
 12 29  1  0  0  0  0
 13 30  1  0  0  0  0
 14 31  1  0  0  0  0
 14 32  1  0  0  0  0
 15 33  1  0  0  0  0
 15 34  1  0  0  0  0
 16 35  1  0  0  0  0
 23 36  1  0  0  0  0
M  END
> <pdb_id>
2QS2

> <uniprot_id>
P22756

> <usmiles>
BrC=1C(=O)N(C(=O)N(C1)C[C@H](N)C(=O)O)CC2=C(SC=C2)C(=O)O

$$$$
UFP_B_260
          07192421333D 1   1.00000     0.00000     0
            
 33 34  0  0  0  0            999 V2000
   -6.1977   37.9666  -63.5486 P   0  0  0  0  0  0  0  0  0  0  0  0
  -10.3044   39.0138  -63.9668 F   0  0  0  0  0  0  0  0  0  0  0  0
   -7.2069   39.0138  -63.1743 O   0  0  0  0  0  0  0  0  0  0  0  0
   -6.1133   37.8060  -65.0271 O   0  0  0  0  0  0  0  0  0  0  0  0
   -4.8963   38.2726  -62.9296 O   0  0  0  0  0  0  0  0  0  0  0  0
   -9.9421   33.8063  -65.3991 O   0  0  0  0  0  0  0  0  0  0  0  0
  -11.1889   38.0177  -66.4882 O   0  0  0  0  0  0  0  0  0  0  0  0
   -6.8925   32.5716  -61.4933 O   0  0  0  0  0  0  0  0  0  0  0  0
   -6.7152   36.5327  -63.0232 O   0  0  0  0  0  0  0  0  0  0  0  0
   -8.8829   34.8929  -61.5508 O   0  0  0  0  0  0  0  0  0  0  0  0
  -10.5755   35.9246  -65.9478 N   0  0  0  0  0  0  0  0  0  0  0  0
   -9.5752   35.4745  -63.8642 N   0  0  0  0  0  0  0  0  0  0  0  0
   -6.8720   36.2651  -61.6323 C   0  0  0  0  0  0  0  0  0  0  0  0
   -9.6683   36.7954  -63.5197 C   0  0  0  0  0  0  0  0  0  0  0  0
   -7.8166   33.7037  -63.3515 C   0  0  0  0  0  0  0  0  0  0  0  0
   -9.9982   35.0107  -65.0893 C   0  0  0  0  0  0  0  0  0  0  0  0
  -10.2306   37.7135  -64.3883 C   0  0  0  0  0  0  0  0  0  0  0  0
  -10.6573   37.2690  -65.6386 C   0  0  0  0  0  0  0  0  0  0  0  0
   -8.9175   34.6185  -62.8996 C   0  0  1  0  0  0  0  0  0  0  0  0
   -6.8726   33.8005  -62.1830 C   0  0  1  0  0  0  0  0  0  0  0  0
   -7.4771   34.9012  -61.3116 C   0  0  2  0  0  0  0  0  0  0  0  0
   -7.2431   39.1010  -62.1788 H   0  0  0  0  0  0  0  0  0  0  0  0
   -5.4358   37.1045  -65.2481 H   0  0  0  0  0  0  0  0  0  0  0  0
   -6.2699   32.6176  -60.7121 H   0  0  0  0  0  0  0  0  0  0  0  0
  -10.9456   35.6041  -66.8197 H   0  0  0  0  0  0  0  0  0  0  0  0
   -7.4667   36.9692  -61.2444 H   0  0  0  0  0  0  0  0  0  0  0  0
   -5.9709   36.3156  -61.2016 H   0  0  0  0  0  0  0  0  0  0  0  0
   -9.3263   37.1003  -62.6309 H   0  0  0  0  0  0  0  0  0  0  0  0
   -7.3914   34.0286  -64.1962 H   0  0  0  0  0  0  0  0  0  0  0  0
   -8.1457   32.7684  -63.4823 H   0  0  0  0  0  0  0  0  0  0  0  0
   -9.6343   33.9226  -62.8565 H   0  0  0  0  0  0  0  0  0  0  0  0
   -5.9475   34.0372  -62.4800 H   0  0  0  0  0  0  0  0  0  0  0  0
   -7.3079   34.6865  -60.3497 H   0  0  0  0  0  0  0  0  0  0  0  0
  1  3  1  0  0  0  0
  1  4  1  0  0  0  0
  1  5  2  0  0  0  0
  1  9  1  0  0  0  0
  2 17  1  0  0  0  0
  6 16  2  0  0  0  0
  7 18  2  0  0  0  0
  8 20  1  0  0  0  0
  9 13  1  0  0  0  0
 10 19  1  0  0  0  0
 10 21  1  0  0  0  0
 11 16  1  0  0  0  0
 11 18  1  0  0  0  0
 12 14  1  0  0  0  0
 12 16  1  0  0  0  0
 12 19  1  0  0  0  0
 13 21  1  0  0  0  0
 14 17  2  0  0  0  0
 15 19  1  0  0  0  0
 15 20  1  0  0  0  0
 17 18  1  0  0  0  0
 20 21  1  0  0  0  0
  3 22  1  0  0  0  0
  4 23  1  0  0  0  0
  8 24  1  0  0  0  0
 11 25  1  0  0  0  0
 13 26  1  0  0  0  0
 13 27  1  0  0  0  0
 14 28  1  0  0  0  0
 15 29  1  0  0  0  0
 15 30  1  0  0  0  0
 19 31  1  0  0  0  0
 20 32  1  0  0  0  0
 21 33  1  0  0  0  0
M  END
> <pdb_id>
3GWC

> <uniprot_id>
P66930

> <usmiles>
P(=O)(OC[C@H]1O[C@@H](N2C(=O)NC(=O)C(F)=C2)C[C@@H]1O)(O)O

$$$$
UFP_B_401
          07212403373D 1   1.00000     0.00000     0
            
 33 34  0  0  0  0            999 V2000
   49.2100  -17.1810   44.1350 P   0  0  0  0  0  0  0  0  0  0  0  0
   55.4470  -17.0120   39.8400 F   0  0  0  0  0  0  0  0  0  0  0  0
   48.4060  -16.9450   42.8270 O   0  0  0  0  0  0  0  0  0  0  0  0
   49.8570  -18.5340   44.3060 O   0  0  0  0  0  0  0  0  0  0  0  0
   48.1790  -16.9900   45.2660 O   0  0  0  0  0  0  0  0  0  0  0  0
   52.5990  -12.8060   38.1870 O   0  0  0  0  0  0  0  0  0  0  0  0
   55.7530  -15.9840   37.3660 O   0  0  0  0  0  0  0  0  0  0  0  0
   50.0330  -12.3820   42.3070 O   0  0  0  0  0  0  0  0  0  0  0  0
   50.3630  -16.0940   44.2000 O   0  0  0  0  0  0  0  0  0  0  0  0
   52.4960  -14.0570   42.0910 O   0  0  0  0  0  0  0  0  0  0  0  0
   54.1840  -14.3390   37.7740 N   0  0  0  0  0  0  0  0  0  0  0  0
   53.0480  -14.3130   39.8880 N   0  0  0  0  0  0  0  0  0  0  0  0
   51.4680  -15.8310   43.3110 C   0  0  0  0  0  0  0  0  0  0  0  0
   53.7710  -15.3610   40.3450 C   0  0  0  0  0  0  0  0  0  0  0  0
   50.6660  -14.0000   40.7030 C   0  0  0  0  0  0  0  0  0  0  0  0
   53.2580  -13.8070   38.5880 C   0  0  0  0  0  0  0  0  0  0  0  0
   54.6980  -15.9570   39.4880 C   0  0  0  0  0  0  0  0  0  0  0  0
   54.9010  -15.4200   38.1290 C   0  0  0  0  0  0  0  0  0  0  0  0
   52.1110  -13.6290   40.7910 C   0  0  1  0  0  0  0  0  0  0  0  0
   50.2060  -13.8430   42.1610 C   0  0  1  0  0  0  0  0  0  0  0  0
   51.3900  -14.3410   42.9600 C   0  0  2  0  0  0  0  0  0  0  0  0
   48.0283  -16.0191   42.8304 H   0  0  0  0  0  0  0  0  0  0  0  0
   50.3418  -18.5636   45.1801 H   0  0  0  0  0  0  0  0  0  0  0  0
   49.7301  -12.1735   43.2369 H   0  0  0  0  0  0  0  0  0  0  0  0
   54.3447  -13.9203   36.8802 H   0  0  0  0  0  0  0  0  0  0  0  0
   51.3869  -16.3867   42.4836 H   0  0  0  0  0  0  0  0  0  0  0  0
   52.3349  -16.0350   43.7659 H   0  0  0  0  0  0  0  0  0  0  0  0
   53.6442  -15.7015   41.2767 H   0  0  0  0  0  0  0  0  0  0  0  0
   50.5513  -14.9412   40.3852 H   0  0  0  0  0  0  0  0  0  0  0  0
   50.1681  -13.3803   40.0963 H   0  0  0  0  0  0  0  0  0  0  0  0
   52.2170  -12.6379   40.7099 H   0  0  0  0  0  0  0  0  0  0  0  0
   49.3676  -14.3516   42.3572 H   0  0  0  0  0  0  0  0  0  0  0  0
   51.4775  -13.7987   43.7956 H   0  0  0  0  0  0  0  0  0  0  0  0
  1  3  1  0  0  0  0
  1  4  1  0  0  0  0
  1  5  2  0  0  0  0
  1  9  1  0  0  0  0
  2 17  1  0  0  0  0
  6 16  2  0  0  0  0
  7 18  2  0  0  0  0
  8 20  1  0  0  0  0
  9 13  1  0  0  0  0
 10 19  1  0  0  0  0
 10 21  1  0  0  0  0
 11 16  1  0  0  0  0
 11 18  1  0  0  0  0
 12 14  1  0  0  0  0
 12 16  1  0  0  0  0
 12 19  1  0  0  0  0
 13 21  1  0  0  0  0
 14 17  2  0  0  0  0
 15 19  1  0  0  0  0
 15 20  1  0  0  0  0
 17 18  1  0  0  0  0
 20 21  1  0  0  0  0
  3 22  1  0  0  0  0
  4 23  1  0  0  0  0
  8 24  1  0  0  0  0
 11 25  1  0  0  0  0
 13 26  1  0  0  0  0
 13 27  1  0  0  0  0
 14 28  1  0  0  0  0
 15 29  1  0  0  0  0
 15 30  1  0  0  0  0
 19 31  1  0  0  0  0
 20 32  1  0  0  0  0
 21 33  1  0  0  0  0
M  END
> <pdb_id>
6QXG

> <uniprot_id>
P04818

> <usmiles>
P(=O)(OC[C@H]1O[C@@H](N2C(=O)NC(=O)C(F)=C2)C[C@@H]1O)(O)O

$$$$
UFP_B_808
          07202402513D 1   1.00000     0.00000     0
            
 33 34  0  0  0  0            999 V2000
   27.4040   38.0210   94.2790 P   0  0  0  0  0  0  0  0  0  0  0  0
   23.9970   39.6650   96.0410 F   0  0  0  0  0  0  0  0  0  0  0  0
   27.0680   36.6500   94.7400 O   0  0  0  0  0  0  0  0  0  0  0  0
   26.1880   38.7620   94.0520 O   0  0  0  0  0  0  0  0  0  0  0  0
   28.1720   37.9680   93.0250 O   0  0  0  0  0  0  0  0  0  0  0  0
   26.9440   38.2870  100.5230 O   0  0  0  0  0  0  0  0  0  0  0  0
   23.0410   37.9790   98.0970 O   0  0  0  0  0  0  0  0  0  0  0  0
   31.3490   39.8630   98.2340 O   0  0  0  0  0  0  0  0  0  0  0  0
   28.2210   38.7230   95.4000 O   0  0  0  0  0  0  0  0  0  0  0  0
   28.7170   40.9510   97.4070 O   0  0  0  0  0  0  0  0  0  0  0  0
   25.0080   38.1480   99.2820 N   0  0  0  0  0  0  0  0  0  0  0  0
   26.8750   39.4810   98.4440 N   0  0  0  0  0  0  0  0  0  0  0  0
   29.1160   39.8620   95.1770 C   0  0  0  0  0  0  0  0  0  0  0  0
   25.9970   39.7730   97.3040 C   0  0  0  0  0  0  0  0  0  0  0  0
   29.1430   38.7490   98.3190 C   0  0  0  0  0  0  0  0  0  0  0  0
   26.3400   38.6040   99.5220 C   0  0  0  0  0  0  0  0  0  0  0  0
   24.7340   39.3160   97.1320 C   0  0  0  0  0  0  0  0  0  0  0  0
   24.1620   38.4430   98.1510 C   0  0  0  0  0  0  0  0  0  0  0  0
   28.2710   40.0680   98.5220 C   0  0  1  0  0  0  0  0  0  0  0  0
   30.3390   39.2670   97.4160 C   0  0  1  0  0  0  0  0  0  0  0  0
   29.7730   40.3730   96.5130 C   0  0  2  0  0  0  0  0  0  0  0  0
   27.9108   36.1354   94.8977 H   0  0  0  0  0  0  0  0  0  0  0  0
   26.4134   39.6855   93.7415 H   0  0  0  0  0  0  0  0  0  0  0  0
   32.0983   40.1863   97.6560 H   0  0  0  0  0  0  0  0  0  0  0  0
   24.6142   37.5525   99.9822 H   0  0  0  0  0  0  0  0  0  0  0  0
   28.5907   40.6094   94.7701 H   0  0  0  0  0  0  0  0  0  0  0  0
   29.8413   39.5831   94.5476 H   0  0  0  0  0  0  0  0  0  0  0  0
   26.3663   40.3648   96.5875 H   0  0  0  0  0  0  0  0  0  0  0  0
   28.6188   38.0372   97.8516 H   0  0  0  0  0  0  0  0  0  0  0  0
   29.4762   38.3974   99.1939 H   0  0  0  0  0  0  0  0  0  0  0  0
   28.4430   40.4876   99.4132 H   0  0  0  0  0  0  0  0  0  0  0  0
   30.7194   38.5216   96.8686 H   0  0  0  0  0  0  0  0  0  0  0  0
   30.4760   41.0566   96.3166 H   0  0  0  0  0  0  0  0  0  0  0  0
  1  3  1  0  0  0  0
  1  4  1  0  0  0  0
  1  5  2  0  0  0  0
  1  9  1  0  0  0  0
  2 17  1  0  0  0  0
  6 16  2  0  0  0  0
  7 18  2  0  0  0  0
  8 20  1  0  0  0  0
  9 13  1  0  0  0  0
 10 19  1  0  0  0  0
 10 21  1  0  0  0  0
 11 16  1  0  0  0  0
 11 18  1  0  0  0  0
 12 14  1  0  0  0  0
 12 16  1  0  0  0  0
 12 19  1  0  0  0  0
 13 21  1  0  0  0  0
 14 17  2  0  0  0  0
 15 19  1  0  0  0  0
 15 20  1  0  0  0  0
 17 18  1  0  0  0  0
 20 21  1  0  0  0  0
  3 22  1  0  0  0  0
  4 23  1  0  0  0  0
  8 24  1  0  0  0  0
 11 25  1  0  0  0  0
 13 26  1  0  0  0  0
 13 27  1  0  0  0  0
 14 28  1  0  0  0  0
 15 29  1  0  0  0  0
 15 30  1  0  0  0  0
 19 31  1  0  0  0  0
 20 32  1  0  0  0  0
 21 33  1  0  0  0  0
M  END
> <pdb_id>
1O29

> <uniprot_id>
Q9WYT0

> <usmiles>
P(=O)(OC[C@H]1O[C@@H](N2C(=O)NC(=O)C(F)=C2)C[C@@H]1O)(O)O

$$$$
UFP_D_260
          07192421333D 1   1.00000     0.00000     0
            
 33 34  0  0  0  0            999 V2000
   -6.1780   37.9730  -63.5290 P   0  0  0  0  0  0  0  0  0  0  0  0
  -10.2180   39.0740  -64.0630 F   0  0  0  0  0  0  0  0  0  0  0  0
   -7.1790   39.0200  -63.1850 O   0  0  0  0  0  0  0  0  0  0  0  0
   -6.0920   37.7580  -65.0100 O   0  0  0  0  0  0  0  0  0  0  0  0
   -4.8160   38.3160  -63.0270 O   0  0  0  0  0  0  0  0  0  0  0  0
   -9.9630   33.8730  -65.4230 O   0  0  0  0  0  0  0  0  0  0  0  0
  -11.1670   38.0790  -66.5390 O   0  0  0  0  0  0  0  0  0  0  0  0
   -7.0920   32.4890  -61.4980 O   0  0  0  0  0  0  0  0  0  0  0  0
   -6.6970   36.5850  -62.8640 O   0  0  0  0  0  0  0  0  0  0  0  0
   -8.9440   35.0080  -61.6020 O   0  0  0  0  0  0  0  0  0  0  0  0
  -10.6000   35.9730  -66.0110 N   0  0  0  0  0  0  0  0  0  0  0  0
   -9.6060   35.5300  -63.9230 N   0  0  0  0  0  0  0  0  0  0  0  0
   -6.8410   36.2360  -61.4890 C   0  0  0  0  0  0  0  0  0  0  0  0
   -9.6070   36.8660  -63.6230 C   0  0  0  0  0  0  0  0  0  0  0  0
   -8.0190   33.5600  -63.3400 C   0  0  0  0  0  0  0  0  0  0  0  0
  -10.0070   35.0750  -65.1590 C   0  0  0  0  0  0  0  0  0  0  0  0
  -10.1900   37.7760  -64.4730 C   0  0  0  0  0  0  0  0  0  0  0  0
  -10.6430   37.3210  -65.7130 C   0  0  0  0  0  0  0  0  0  0  0  0
   -8.8230   34.7690  -62.9780 C   0  0  2  0  0  0  0  0  0  0  0  0
   -7.0510   33.7170  -62.1800 C   0  0  1  0  0  0  0  0  0  0  0  0
   -7.5600   34.8820  -61.3000 C   0  0  2  0  0  0  0  0  0  0  0  0
   -7.2106   39.1376  -62.1924 H   0  0  0  0  0  0  0  0  0  0  0  0
   -5.4126   37.0507  -65.2052 H   0  0  0  0  0  0  0  0  0  0  0  0
   -6.4717   32.5221  -60.7143 H   0  0  0  0  0  0  0  0  0  0  0  0
  -11.0083   35.6453  -66.8630 H   0  0  0  0  0  0  0  0  0  0  0  0
   -7.3717   36.9487  -61.0302 H   0  0  0  0  0  0  0  0  0  0  0  0
   -5.9325   36.1782  -61.0750 H   0  0  0  0  0  0  0  0  0  0  0  0
   -9.1791   37.1833  -62.7767 H   0  0  0  0  0  0  0  0  0  0  0  0
   -7.5767   33.6355  -64.2337 H   0  0  0  0  0  0  0  0  0  0  0  0
   -8.5461   32.7112  -63.2996 H   0  0  0  0  0  0  0  0  0  0  0  0
   -8.0354   35.3791  -63.0645 H   0  0  0  0  0  0  0  0  0  0  0  0
   -6.1273   33.9045  -62.5141 H   0  0  0  0  0  0  0  0  0  0  0  0
   -7.4720   34.6118  -60.3412 H   0  0  0  0  0  0  0  0  0  0  0  0
  1  3  1  0  0  0  0
  1  4  1  0  0  0  0
  1  5  2  0  0  0  0
  1  9  1  0  0  0  0
  2 17  1  0  0  0  0
  6 16  2  0  0  0  0
  7 18  2  0  0  0  0
  8 20  1  0  0  0  0
  9 13  1  0  0  0  0
 10 19  1  0  0  0  0
 10 21  1  0  0  0  0
 11 16  1  0  0  0  0
 11 18  1  0  0  0  0
 12 14  1  0  0  0  0
 12 16  1  0  0  0  0
 12 19  1  0  0  0  0
 13 21  1  0  0  0  0
 14 17  2  0  0  0  0
 15 19  1  0  0  0  0
 15 20  1  0  0  0  0
 17 18  1  0  0  0  0
 20 21  1  0  0  0  0
  3 22  1  0  0  0  0
  4 23  1  0  0  0  0
  8 24  1  0  0  0  0
 11 25  1  0  0  0  0
 13 26  1  0  0  0  0
 13 27  1  0  0  0  0
 14 28  1  0  0  0  0
 15 29  1  0  0  0  0
 15 30  1  0  0  0  0
 19 31  1  0  0  0  0
 20 32  1  0  0  0  0
 21 33  1  0  0  0  0
M  END
> <pdb_id>
3GWC

> <uniprot_id>
P66930

> <usmiles>
P(=O)(OC[C@H]1O[C@H](N2C(=O)NC(=O)C(F)=C2)C[C@@H]1O)(O)O

$$$$
UGX_A_1306
          07192419233D 1   1.00000     0.00000     0
            
 47 49  0  0  0  0            999 V2000
  -21.3084   39.4139    1.0033 S   0  0  0  0  0  0  0  0  0  0  0  0
  -19.2798   34.9296   -3.7912 O   0  0  0  0  0  0  0  0  0  0  0  0
  -15.7312   33.7028    1.6717 O   0  0  0  0  0  0  0  0  0  0  0  0
  -15.4164   33.5540   -0.5536 N   0  0  0  0  0  0  0  0  0  0  0  0
  -18.4776   36.7924   -4.7403 N   0  0  0  0  0  0  0  0  0  0  0  0
  -17.5138   35.3050   -0.9839 N   0  0  0  0  0  0  0  0  0  0  0  0
  -19.0914   39.6429   -5.2232 C   0  0  0  0  0  0  0  0  0  0  0  0
  -20.5185   38.6608   -3.4686 C   0  0  0  0  0  0  0  0  0  0  0  0
  -21.4429   38.9906   -5.7731 C   0  0  0  0  0  0  0  0  0  0  0  0
  -20.3529   39.1240    2.4268 C   0  0  0  0  0  0  0  0  0  0  0  0
  -20.4952   38.1907    0.0705 C   0  0  0  0  0  0  0  0  0  0  0  0
  -15.5223   34.0950   -1.9113 C   0  0  0  0  0  0  0  0  0  0  0  0
  -19.7079   37.2507   -5.3916 C   0  0  0  0  0  0  0  0  0  0  0  0
  -18.4606   36.2439   -0.9473 C   0  0  0  0  0  0  0  0  0  0  0  0
  -19.4249   38.1220    2.1981 C   0  0  0  0  0  0  0  0  0  0  0  0
  -16.9565   35.4110   -3.4625 C   0  0  0  0  0  0  0  0  0  0  0  0
  -17.7455   35.8551    1.1978 C   0  0  0  0  0  0  0  0  0  0  0  0
  -18.3369   35.6813   -4.0227 C   0  0  0  0  0  0  0  0  0  0  0  0
  -16.0170   34.0475    0.5312 C   0  0  0  0  0  0  0  0  0  0  0  0
  -16.9711   34.5666   -2.1790 C   0  0  2  0  0  0  0  0  0  0  0  0
  -17.0816   35.0546    0.2713 C   0  0  0  0  0  0  0  0  0  0  0  0
  -19.5364   37.6296    0.8986 C   0  0  0  0  0  0  0  0  0  0  0  0
  -18.6008   36.5689    0.3897 C   0  0  0  0  0  0  0  0  0  0  0  0
  -20.1941   38.6209   -4.9536 C   0  0  0  0  0  0  0  0  0  0  0  0
  -14.8436   32.7439   -0.4289 H   0  0  0  0  0  0  0  0  0  0  0  0
  -17.6676   37.3694   -4.8452 H   0  0  0  0  0  0  0  0  0  0  0  0
  -18.8603   39.6351   -6.1961 H   0  0  0  0  0  0  0  0  0  0  0  0
  -19.4109   40.5542   -4.9638 H   0  0  0  0  0  0  0  0  0  0  0  0
  -18.2811   39.4084   -4.6862 H   0  0  0  0  0  0  0  0  0  0  0  0
  -21.2399   37.9983   -3.2670 H   0  0  0  0  0  0  0  0  0  0  0  0
  -19.6995   38.4322   -2.9422 H   0  0  0  0  0  0  0  0  0  0  0  0
  -20.8293   39.5781   -3.2198 H   0  0  0  0  0  0  0  0  0  0  0  0
  -22.1663   38.3226   -5.5981 H   0  0  0  0  0  0  0  0  0  0  0  0
  -21.7587   39.9013   -5.5070 H   0  0  0  0  0  0  0  0  0  0  0  0
  -21.2154   38.9881   -6.7469 H   0  0  0  0  0  0  0  0  0  0  0  0
  -20.4591   39.6138    3.2922 H   0  0  0  0  0  0  0  0  0  0  0  0
  -20.6835   37.9410   -0.8793 H   0  0  0  0  0  0  0  0  0  0  0  0
  -15.2777   33.3847   -2.5712 H   0  0  0  0  0  0  0  0  0  0  0  0
  -14.8981   34.8701   -2.0090 H   0  0  0  0  0  0  0  0  0  0  0  0
  -20.4295   36.5875   -5.1932 H   0  0  0  0  0  0  0  0  0  0  0  0
  -19.5443   37.2803   -6.3777 H   0  0  0  0  0  0  0  0  0  0  0  0
  -18.9620   36.6304   -1.7214 H   0  0  0  0  0  0  0  0  0  0  0  0
  -18.7640   37.7957    2.8739 H   0  0  0  0  0  0  0  0  0  0  0  0
  -16.5199   36.2876   -3.2598 H   0  0  0  0  0  0  0  0  0  0  0  0
  -16.4233   34.9252   -4.1550 H   0  0  0  0  0  0  0  0  0  0  0  0
  -17.6307   35.8995    2.1902 H   0  0  0  0  0  0  0  0  0  0  0  0
  -17.5412   33.7606   -2.3378 H   0  0  0  0  0  0  0  0  0  0  0  0
  1 10  1  0  0  0  0
  1 11  1  0  0  0  0
  2 18  2  0  0  0  0
  3 19  2  0  0  0  0
  4 12  1  0  0  0  0
  4 19  1  0  0  0  0
  5 13  1  0  0  0  0
  5 18  1  0  0  0  0
  6 14  1  0  0  0  0
  6 20  1  0  0  0  0
  6 21  1  0  0  0  0
  7 24  1  0  0  0  0
  8 24  1  0  0  0  0
  9 24  1  0  0  0  0
 10 15  2  0  0  0  0
 11 22  2  0  0  0  0
 12 20  1  0  0  0  0
 13 24  1  0  0  0  0
 14 23  2  0  0  0  0
 15 22  1  0  0  0  0
 16 18  1  0  0  0  0
 16 20  1  0  0  0  0
 17 21  2  0  0  0  0
 17 23  1  0  0  0  0
 19 21  1  0  0  0  0
 22 23  1  0  0  0  0
  4 25  1  0  0  0  0
  5 26  1  0  0  0  0
  7 27  1  0  0  0  0
  7 28  1  0  0  0  0
  7 29  1  0  0  0  0
  8 30  1  0  0  0  0
  8 31  1  0  0  0  0
  8 32  1  0  0  0  0
  9 33  1  0  0  0  0
  9 34  1  0  0  0  0
  9 35  1  0  0  0  0
 10 36  1  0  0  0  0
 11 37  1  0  0  0  0
 12 38  1  0  0  0  0
 12 39  1  0  0  0  0
 13 40  1  0  0  0  0
 13 41  1  0  0  0  0
 14 42  1  0  0  0  0
 15 43  1  0  0  0  0
 16 44  1  0  0  0  0
 16 45  1  0  0  0  0
 17 46  1  0  0  0  0
 20 47  1  0  0  0  0
M  END
> <pdb_id>
4BZN

> <uniprot_id>
P11309

> <usmiles>
S1C=C(C2=CN3C(C(=O)NC[C@@H]3CC(=O)NCC(C)(C)C)=C2)C=C1

$$$$
UH7_A_1001
          07202408173D 1   1.00000     0.00000     0
            
 31 32  0  0  0  0            999 V2000
  -17.7106   -1.8457   18.4385 Cl  0  0  0  0  0  0  0  0  0  0  0  0
  -18.6137    0.7981   13.7954 O   0  0  0  0  0  0  0  0  0  0  0  0
  -15.7475    0.6579   10.5987 N   0  0  0  0  0  0  0  0  0  0  0  0
  -18.9124   -0.5680   12.0110 N   0  0  0  0  0  0  0  0  0  0  0  0
  -19.9716    0.9778    9.7724 C   0  0  0  0  0  0  0  0  0  0  0  0
  -16.2206    1.4233    9.6075 C   0  0  0  0  0  0  0  0  0  0  0  0
  -16.6378   -0.0140   11.3364 C   0  0  0  0  0  0  0  0  0  0  0  0
  -20.8646    0.3968   17.4703 C   0  0  0  0  0  0  0  0  0  0  0  0
  -17.5635    1.5547    9.3174 C   0  0  0  0  0  0  0  0  0  0  0  0
  -19.8096   -0.1598   18.1818 C   0  0  0  0  0  0  0  0  0  0  0  0
  -21.0448    0.0871   16.1320 C   0  0  0  0  0  0  0  0  0  0  0  0
  -20.2487   -0.9558   13.9796 C   0  0  0  0  0  0  0  0  0  0  0  0
  -19.1236   -1.3457   16.1940 C   0  0  0  0  0  0  0  0  0  0  0  0
  -19.1728   -0.1585   13.2673 C   0  0  0  0  0  0  0  0  0  0  0  0
  -18.9701   -1.0469   17.5364 C   0  0  0  0  0  0  0  0  0  0  0  0
  -18.0139    0.0633   11.1279 C   0  0  0  0  0  0  0  0  0  0  0  0
  -18.5013    0.8639   10.0785 C   0  0  0  0  0  0  0  0  0  0  0  0
  -20.1639   -0.7611   15.4736 C   0  0  0  0  0  0  0  0  0  0  0  0
  -19.3925   -1.3805   11.6802 H   0  0  0  0  0  0  0  0  0  0  0  0
  -20.4908    0.4169   10.4172 H   0  0  0  0  0  0  0  0  0  0  0  0
  -20.2566    1.9326    9.8566 H   0  0  0  0  0  0  0  0  0  0  0  0
  -20.1437    0.6595    8.8401 H   0  0  0  0  0  0  0  0  0  0  0  0
  -15.5646    1.9277    9.0461 H   0  0  0  0  0  0  0  0  0  0  0  0
  -16.3002   -0.6002   12.0729 H   0  0  0  0  0  0  0  0  0  0  0  0
  -21.4967    1.0237   17.9258 H   0  0  0  0  0  0  0  0  0  0  0  0
  -17.8606    2.1427    8.5650 H   0  0  0  0  0  0  0  0  0  0  0  0
  -19.6608    0.0769   19.1420 H   0  0  0  0  0  0  0  0  0  0  0  0
  -21.8184    0.4790   15.6341 H   0  0  0  0  0  0  0  0  0  0  0  0
  -20.1307   -1.9261   13.7687 H   0  0  0  0  0  0  0  0  0  0  0  0
  -21.1464   -0.6521   13.6604 H   0  0  0  0  0  0  0  0  0  0  0  0
  -18.4922   -1.9770   15.7436 H   0  0  0  0  0  0  0  0  0  0  0  0
  1 15  1  0  0  0  0
  2 14  2  0  0  0  0
  3  6  2  0  0  0  0
  3  7  1  0  0  0  0
  4 14  1  0  0  0  0
  4 16  1  0  0  0  0
  5 17  1  0  0  0  0
  6  9  1  0  0  0  0
  7 16  2  0  0  0  0
  8 10  2  0  0  0  0
  8 11  1  0  0  0  0
  9 17  2  0  0  0  0
 10 15  1  0  0  0  0
 11 18  2  0  0  0  0
 12 14  1  0  0  0  0
 12 18  1  0  0  0  0
 13 15  2  0  0  0  0
 13 18  1  0  0  0  0
 16 17  1  0  0  0  0
  4 19  1  0  0  0  0
  5 20  1  0  0  0  0
  5 21  1  0  0  0  0
  5 22  1  0  0  0  0
  6 23  1  0  0  0  0
  7 24  1  0  0  0  0
  8 25  1  0  0  0  0
  9 26  1  0  0  0  0
 10 27  1  0  0  0  0
 11 28  1  0  0  0  0
 12 29  1  0  0  0  0
 12 30  1  0  0  0  0
 13 31  1  0  0  0  0
M  END
> <pdb_id>
5RH2

> <uniprot_id>
P0DTD1

> <usmiles>
Clc1cc(ccc1)CC(=O)Nc2c(ccnc2)C

$$$$
UI2_A_1001
          07202413303D 1   1.00000     0.00000     0
            
 33 35  0  0  0  0            999 V2000
  -32.0677  -21.0113   -4.2231 N   0  0  0  0  0  0  0  0  0  0  0  0
  -32.1090  -20.5810   -2.0321 N   0  0  0  0  0  0  0  0  0  0  0  0
  -26.3267  -18.6692    0.3088 N   0  0  0  0  0  0  0  0  0  0  0  0
  -27.9199  -18.6327    2.0307 N   0  0  0  0  0  0  0  0  0  0  0  0
  -28.5242  -17.7013   -0.1127 N   0  0  0  0  0  0  0  0  0  0  0  0
  -25.4002  -19.3028    1.0746 C   0  0  0  0  0  0  0  0  0  0  0  0
  -27.0573  -19.2657    2.7817 C   0  0  0  0  0  0  0  0  0  0  0  0
  -25.6934  -19.6507    2.4542 C   0  0  0  0  0  0  0  0  0  0  0  0
  -27.0175  -15.7731   -3.0054 C   0  0  0  0  0  0  0  0  0  0  0  0
  -27.2470  -16.3077   -1.6939 C   0  0  0  0  0  0  0  0  0  0  0  0
  -27.8244  -16.1641   -4.0834 C   0  0  0  0  0  0  0  0  0  0  0  0
  -30.5791  -18.5740   -4.7880 C   0  0  0  0  0  0  0  0  0  0  0  0
  -29.6450  -17.5219   -4.9969 C   0  0  0  0  0  0  0  0  0  0  0  0
  -30.0746  -18.7085   -2.3939 C   0  0  0  0  0  0  0  0  0  0  0  0
  -27.5813  -18.2984    0.7191 C   0  0  0  0  0  0  0  0  0  0  0  0
  -31.6351  -20.2393   -3.2557 C   0  0  0  0  0  0  0  0  0  0  0  0
  -28.2957  -17.2454   -1.4585 C   0  0  0  0  0  0  0  0  0  0  0  0
  -30.7678  -19.1763   -3.5048 C   0  0  0  0  0  0  0  0  0  0  0  0
  -28.8876  -17.1244   -3.8926 C   0  0  0  0  0  0  0  0  0  0  0  0
  -29.0740  -17.6440   -2.5691 C   0  0  0  0  0  0  0  0  0  0  0  0
  -31.7766  -20.8434   -5.1649 H   0  0  0  0  0  0  0  0  0  0  0  0
  -32.6888  -21.7681   -4.0191 H   0  0  0  0  0  0  0  0  0  0  0  0
  -31.8387  -20.0542   -1.2262 H   0  0  0  0  0  0  0  0  0  0  0  0
  -29.4444  -17.5779    0.2587 H   0  0  0  0  0  0  0  0  0  0  0  0
  -24.5082  -19.5318    0.6849 H   0  0  0  0  0  0  0  0  0  0  0  0
  -27.3749  -19.5167    3.6961 H   0  0  0  0  0  0  0  0  0  0  0  0
  -25.0531  -20.0895    3.0847 H   0  0  0  0  0  0  0  0  0  0  0  0
  -26.2769  -15.1172   -3.1517 H   0  0  0  0  0  0  0  0  0  0  0  0
  -26.6639  -16.0191   -0.9345 H   0  0  0  0  0  0  0  0  0  0  0  0
  -27.6631  -15.7757   -4.9907 H   0  0  0  0  0  0  0  0  0  0  0  0
  -31.1204  -18.9026   -5.5620 H   0  0  0  0  0  0  0  0  0  0  0  0
  -29.5357  -17.0878   -5.8911 H   0  0  0  0  0  0  0  0  0  0  0  0
  -30.2538  -19.0907   -1.4874 H   0  0  0  0  0  0  0  0  0  0  0  0
  1 16  1  0  0  0  0
  2 16  2  0  0  0  0
  3  6  2  0  0  0  0
  3 15  1  0  0  0  0
  4  7  1  0  0  0  0
  4 15  2  0  0  0  0
  5 15  1  0  0  0  0
  5 17  1  0  0  0  0
  6  8  1  0  0  0  0
  7  8  2  0  0  0  0
  9 10  1  0  0  0  0
  9 11  2  0  0  0  0
 10 17  2  0  0  0  0
 11 19  1  0  0  0  0
 12 13  1  0  0  0  0
 12 18  2  0  0  0  0
 13 19  2  0  0  0  0
 14 18  1  0  0  0  0
 14 20  2  0  0  0  0
 16 18  1  0  0  0  0
 17 20  1  0  0  0  0
 19 20  1  0  0  0  0
  1 21  1  0  0  0  0
  1 22  1  0  0  0  0
  2 23  1  0  0  0  0
  5 24  1  0  0  0  0
  6 25  1  0  0  0  0
  7 26  1  0  0  0  0
  8 27  1  0  0  0  0
  9 28  1  0  0  0  0
 10 29  1  0  0  0  0
 11 30  1  0  0  0  0
 12 31  1  0  0  0  0
 13 32  1  0  0  0  0
 14 33  1  0  0  0  0
M  END
> <pdb_id>
1SQO

> <uniprot_id>
P00749

> <usmiles>
n1c(nccc1)Nc2c3c(ccc(c3)C(=N)N)ccc2

$$$$
UIP_H_5555
          07202416143D 1   1.00000     0.00000     0
            
 63 68  0  0  0  0            999 V2000
   12.1708  -13.2066   12.7527 O   0  0  0  0  0  0  0  0  0  0  0  0
    5.9118  -13.4730    9.6600 O   0  0  0  0  0  0  0  0  0  0  0  0
    5.2095  -14.5331   11.6816 O   0  0  0  0  0  0  0  0  0  0  0  0
   18.2755  -12.2857   11.1987 N   0  0  0  0  0  0  0  0  0  0  0  0
   17.9319  -10.0453   11.0063 N   0  0  0  0  0  0  0  0  0  0  0  0
   10.4278  -13.6881   14.2275 N   0  0  0  0  0  0  0  0  0  0  0  0
   13.4225  -13.0002   16.2140 N   0  0  0  0  0  0  0  0  0  0  0  0
    7.9098  -12.5053   16.8300 C   0  0  0  0  0  0  0  0  0  0  0  0
    4.7930  -14.1302   10.3506 C   0  0  0  0  0  0  0  0  0  0  0  0
   14.4396  -12.8748   17.2957 C   0  0  0  0  0  0  0  0  0  0  0  0
    9.9215  -14.8655   13.4356 C   0  0  0  0  0  0  0  0  0  0  0  0
   13.6505  -12.9665   18.6262 C   0  0  0  0  0  0  0  0  0  0  0  0
    8.5214  -12.6082   15.4266 C   0  0  0  0  0  0  0  0  0  0  0  0
   12.2421  -12.5263   18.2719 C   0  0  0  0  0  0  0  0  0  0  0  0
    8.3614  -13.7809   10.0397 C   0  0  0  0  0  0  0  0  0  0  0  0
    9.2627  -14.1133   11.0733 C   0  0  0  0  0  0  0  0  0  0  0  0
   16.1780  -12.5932   13.0358 C   0  0  0  0  0  0  0  0  0  0  0  0
   15.7340  -10.2167   12.9247 C   0  0  0  0  0  0  0  0  0  0  0  0
   15.1247  -12.7424   13.9545 C   0  0  0  0  0  0  0  0  0  0  0  0
   14.7137  -10.3759   13.8439 C   0  0  0  0  0  0  0  0  0  0  0  0
    7.5102  -14.6621   12.6856 C   0  0  0  0  0  0  0  0  0  0  0  0
   11.6122  -13.0840   13.8738 C   0  0  0  0  0  0  0  0  0  0  0  0
   17.5547  -11.2183   11.5802 C   0  0  0  0  0  0  0  0  0  0  0  0
    7.0131  -13.8743   10.3919 C   0  0  0  0  0  0  0  0  0  0  0  0
    6.5950  -14.3179   11.6632 C   0  0  0  0  0  0  0  0  0  0  0  0
    9.9244  -13.2648   15.5038 C   0  0  2  0  0  0  0  0  0  0  0  0
   12.0727  -13.1745   16.8805 C   0  0  1  0  0  0  0  0  0  0  0  0
   13.2557  -11.7774   15.3591 C   0  0  1  0  0  0  0  0  0  0  0  0
    8.8790  -14.5581   12.3803 C   0  0  0  0  0  0  0  0  0  0  0  0
   16.4896  -11.3287   12.5134 C   0  0  0  0  0  0  0  0  0  0  0  0
   14.3772  -11.6363   14.3677 C   0  0  0  0  0  0  0  0  0  0  0  0
   11.8241  -11.8694   14.8121 C   0  0  2  0  0  0  0  0  0  0  0  0
   11.0319  -12.3235   16.0782 C   0  0  1  0  0  0  0  0  0  0  0  0
   18.0663  -13.1896   11.5718 H   0  0  0  0  0  0  0  0  0  0  0  0
   19.0213  -12.1764   10.5416 H   0  0  0  0  0  0  0  0  0  0  0  0
   17.4492   -9.1995   11.2335 H   0  0  0  0  0  0  0  0  0  0  0  0
    7.0063  -12.0810   16.7696 H   0  0  0  0  0  0  0  0  0  0  0  0
    7.8227  -13.4205   17.2236 H   0  0  0  0  0  0  0  0  0  0  0  0
    8.5018  -11.9473   17.4116 H   0  0  0  0  0  0  0  0  0  0  0  0
    4.5101  -14.9372    9.8321 H   0  0  0  0  0  0  0  0  0  0  0  0
    4.0253  -13.4933   10.4209 H   0  0  0  0  0  0  0  0  0  0  0  0
   14.9117  -11.9957   17.2302 H   0  0  0  0  0  0  0  0  0  0  0  0
   15.1071  -13.6169   17.2344 H   0  0  0  0  0  0  0  0  0  0  0  0
    9.5217  -15.5179   14.0795 H   0  0  0  0  0  0  0  0  0  0  0  0
   10.7050  -15.2861   12.9782 H   0  0  0  0  0  0  0  0  0  0  0  0
   14.0473  -12.3584   19.3138 H   0  0  0  0  0  0  0  0  0  0  0  0
   13.6500  -13.9049   18.9716 H   0  0  0  0  0  0  0  0  0  0  0  0
    8.6061  -11.6921   15.0346 H   0  0  0  0  0  0  0  0  0  0  0  0
    7.9270  -13.1652   14.8467 H   0  0  0  0  0  0  0  0  0  0  0  0
   12.1696  -11.5300   18.2243 H   0  0  0  0  0  0  0  0  0  0  0  0
   11.5719  -12.8784   18.9253 H   0  0  0  0  0  0  0  0  0  0  0  0
    8.6636  -13.5011    9.1285 H   0  0  0  0  0  0  0  0  0  0  0  0
   10.2404  -14.0324   10.8796 H   0  0  0  0  0  0  0  0  0  0  0  0
   16.7082  -13.3925   12.7530 H   0  0  0  0  0  0  0  0  0  0  0  0
   15.9346   -9.3105   12.5523 H   0  0  0  0  0  0  0  0  0  0  0  0
   14.9081  -13.6492   14.3160 H   0  0  0  0  0  0  0  0  0  0  0  0
   14.2008   -9.5719   14.1447 H   0  0  0  0  0  0  0  0  0  0  0  0
    7.1976  -14.9659   13.5856 H   0  0  0  0  0  0  0  0  0  0  0  0
    9.8604  -14.0683   16.0957 H   0  0  0  0  0  0  0  0  0  0  0  0
   11.8048  -14.1359   16.9430 H   0  0  0  0  0  0  0  0  0  0  0  0
   13.2924  -10.9829   15.9653 H   0  0  0  0  0  0  0  0  0  0  0  0
   11.4923  -11.0088   14.4257 H   0  0  0  0  0  0  0  0  0  0  0  0
   10.6618  -11.5581   16.6047 H   0  0  0  0  0  0  0  0  0  0  0  0
  1 22  2  0  0  0  0
  2  9  1  0  0  0  0
  2 24  1  0  0  0  0
  3  9  1  0  0  0  0
  3 25  1  0  0  0  0
  4 23  1  0  0  0  0
  5 23  2  0  0  0  0
  6 11  1  0  0  0  0
  6 22  1  0  0  0  0
  6 26  1  0  0  0  0
  7 10  1  0  0  0  0
  7 27  1  0  0  0  0
  7 28  1  0  0  0  0
  8 13  1  0  0  0  0
 10 12  1  0  0  0  0
 11 29  1  0  0  0  0
 12 14  1  0  0  0  0
 13 26  1  0  0  0  0
 14 27  1  0  0  0  0
 15 16  2  0  0  0  0
 15 24  1  0  0  0  0
 16 29  1  0  0  0  0
 17 19  1  0  0  0  0
 17 30  2  0  0  0  0
 18 20  2  0  0  0  0
 18 30  1  0  0  0  0
 19 31  2  0  0  0  0
 20 31  1  0  0  0  0
 21 25  1  0  0  0  0
 21 29  2  0  0  0  0
 22 32  1  0  0  0  0
 23 30  1  0  0  0  0
 24 25  2  0  0  0  0
 26 33  1  0  0  0  0
 27 33  1  0  0  0  0
 28 31  1  0  0  0  0
 28 32  1  0  0  0  0
 32 33  1  0  0  0  0
  4 34  1  0  0  0  0
  4 35  1  0  0  0  0
  5 36  1  0  0  0  0
  8 37  1  0  0  0  0
  8 38  1  0  0  0  0
  8 39  1  0  0  0  0
  9 40  1  0  0  0  0
  9 41  1  0  0  0  0
 10 42  1  0  0  0  0
 10 43  1  0  0  0  0
 11 44  1  0  0  0  0
 11 45  1  0  0  0  0
 12 46  1  0  0  0  0
 12 47  1  0  0  0  0
 13 48  1  0  0  0  0
 13 49  1  0  0  0  0
 14 50  1  0  0  0  0
 14 51  1  0  0  0  0
 15 52  1  0  0  0  0
 16 53  1  0  0  0  0
 17 54  1  0  0  0  0
 18 55  1  0  0  0  0
 19 56  1  0  0  0  0
 20 57  1  0  0  0  0
 21 58  1  0  0  0  0
 26 59  1  0  0  0  0
 27 60  1  0  0  0  0
 28 61  1  0  0  0  0
 32 62  1  0  0  0  0
 33 63  1  0  0  0  0
M  END
> <pdb_id>
1YPE

> <uniprot_id>
P00734

> <usmiles>
O=C1N([C@@H]([C@H]2[C@H]3N([C@@H](c4ccc(cc4)C(=N)N)[C@@H]12)CCC3)CC)Cc5cc6OCOc6cc5

$$$$
UKH_C_401
          07212404193D 1   1.00000     0.00000     0
            
 18 18  0  0  0  0            999 V2000
  -12.7800   11.2330  -54.1990 O   0  5  0  0  0  0  0  0  0  0  0  0
  -11.9930    9.4600  -53.0700 O   0  0  0  0  0  0  0  0  0  0  0  0
   -6.3340    8.9910  -57.4200 O   0  0  0  0  0  0  0  0  0  0  0  0
   -7.4220   10.5690  -58.7280 O   0  0  0  0  0  0  0  0  0  0  0  0
  -11.8290   10.2300  -53.9520 N   0  3  0  0  0  0  0  0  0  0  0  0
  -10.4800   11.1240  -55.7740 C   0  0  0  0  0  0  0  0  0  0  0  0
   -9.7710    9.0800  -54.7120 C   0  0  0  0  0  0  0  0  0  0  0  0
   -9.3820   11.0500  -56.6260 C   0  0  0  0  0  0  0  0  0  0  0  0
   -8.6780    9.0050  -55.5720 C   0  0  0  0  0  0  0  0  0  0  0  0
  -10.6680   10.1380  -54.8160 C   0  0  0  0  0  0  0  0  0  0  0  0
   -8.4900    9.9930  -56.5330 C   0  0  0  0  0  0  0  0  0  0  0  0
   -7.2710    9.9540  -57.5370 B   0  0  0  0  0  0  0  0  0  0  0  0
   -6.3404    8.6313  -56.4870 H   0  0  0  0  0  0  0  0  0  0  0  0
   -8.1482   11.2532  -58.6602 H   0  0  0  0  0  0  0  0  0  0  0  0
  -11.1281   11.8816  -55.8516 H   0  0  0  0  0  0  0  0  0  0  0  0
   -9.9110    8.3726  -54.0192 H   0  0  0  0  0  0  0  0  0  0  0  0
   -9.2355   11.7645  -57.3102 H   0  0  0  0  0  0  0  0  0  0  0  0
   -8.0320    8.2451  -55.4990 H   0  0  0  0  0  0  0  0  0  0  0  0
  1  5  1  0  0  0  0
  2  5  2  0  0  0  0
  3 12  1  0  0  0  0
  4 12  1  0  0  0  0
  5 10  1  0  0  0  0
  6  8  1  0  0  0  0
  6 10  2  0  0  0  0
  7  9  2  0  0  0  0
  7 10  1  0  0  0  0
  8 11  2  0  0  0  0
  9 11  1  0  0  0  0
 11 12  1  0  0  0  0
  3 13  1  0  0  0  0
  4 14  1  0  0  0  0
  6 15  1  0  0  0  0
  7 16  1  0  0  0  0
  8 17  1  0  0  0  0
  9 18  1  0  0  0  0
M  CHG  2   1  -1   5   1
M  END
> <pdb_id>
7NP0

> <uniprot_id>
P9WIT9

> <usmiles>
[O-][N+](=O)c1ccc(cc1)B(O)O

$$$$
ULG_A_401
          07202411443D 1   1.00000     0.00000     0
            
 34 36  0  0  0  0            999 V2000
   18.8187    1.1316   -9.3247 F   0  0  0  0  0  0  0  0  0  0  0  0
   19.2682   -3.2718  -10.9667 F   0  0  0  0  0  0  0  0  0  0  0  0
   28.1275    0.5795   -8.6963 F   0  0  0  0  0  0  0  0  0  0  0  0
   28.3384   -1.3599   -9.1032 F   0  0  0  0  0  0  0  0  0  0  0  0
   27.2981   -0.5157   -7.3411 F   0  0  0  0  0  0  0  0  0  0  0  0
   27.6798    1.7620  -11.4430 O   0  0  0  0  0  0  0  0  0  0  0  0
   22.7618   -0.1563  -11.5540 O   0  0  0  0  0  0  0  0  0  0  0  0
   26.6922    0.5339  -13.1525 C   0  0  0  0  0  0  0  0  0  0  0  0
   23.8729   -0.6246   -9.4667 C   0  0  0  0  0  0  0  0  0  0  0  0
   25.1555    0.5284  -12.9741 C   0  0  0  0  0  0  0  0  0  0  0  0
   25.0511   -0.7192   -8.7514 C   0  0  0  0  0  0  0  0  0  0  0  0
   19.0152   -1.1107  -10.1137 C   0  0  0  0  0  0  0  0  0  0  0  0
   20.7898    0.4652  -10.4326 C   0  0  0  0  0  0  0  0  0  0  0  0
   21.0593   -1.7860  -11.2773 C   0  0  0  0  0  0  0  0  0  0  0  0
   19.5367    0.1718   -9.9528 C   0  0  0  0  0  0  0  0  0  0  0  0
   19.7854   -2.0669  -10.7837 C   0  0  0  0  0  0  0  0  0  0  0  0
   27.3656    0.4167  -11.7717 C   0  0  2  0  0  0  0  0  0  0  0  0
   21.5584   -0.5244  -11.0602 C   0  0  0  0  0  0  0  0  0  0  0  0
   23.8671   -0.2330  -10.7950 C   0  0  0  0  0  0  0  0  0  0  0  0
   25.0466    0.1134  -11.5227 C   0  0  0  0  0  0  0  0  0  0  0  0
   26.2583   -0.3793   -9.4008 C   0  0  0  0  0  0  0  0  0  0  0  0
   26.3038    0.0153  -10.8211 C   0  0  0  0  0  0  0  0  0  0  0  0
   27.4637   -0.5630   -8.5852 C   0  0  0  0  0  0  0  0  0  0  0  0
   28.1274    1.7910  -10.5492 H   0  0  0  0  0  0  0  0  0  0  0  0
   26.9745    1.3874  -13.5905 H   0  0  0  0  0  0  0  0  0  0  0  0
   26.9649   -0.2401  -13.7240 H   0  0  0  0  0  0  0  0  0  0  0  0
   23.0072   -0.8433   -9.0164 H   0  0  0  0  0  0  0  0  0  0  0  0
   24.7159   -0.1336  -13.5812 H   0  0  0  0  0  0  0  0  0  0  0  0
   24.7628    1.4349  -13.1291 H   0  0  0  0  0  0  0  0  0  0  0  0
   25.0491   -1.0208   -7.7979 H   0  0  0  0  0  0  0  0  0  0  0  0
   18.1098   -1.3423   -9.7577 H   0  0  0  0  0  0  0  0  0  0  0  0
   21.1559    1.3905  -10.3334 H   0  0  0  0  0  0  0  0  0  0  0  0
   21.5890   -2.4763  -11.7702 H   0  0  0  0  0  0  0  0  0  0  0  0
   28.1590   -0.1919  -11.7646 H   0  0  0  0  0  0  0  0  0  0  0  0
  1 15  1  0  0  0  0
  2 16  1  0  0  0  0
  3 23  1  0  0  0  0
  4 23  1  0  0  0  0
  5 23  1  0  0  0  0
  6 17  1  0  0  0  0
  7 18  1  0  0  0  0
  7 19  1  0  0  0  0
  8 10  1  0  0  0  0
  8 17  1  0  0  0  0
  9 11  2  0  0  0  0
  9 19  1  0  0  0  0
 10 20  1  0  0  0  0
 11 21  1  0  0  0  0
 12 15  2  0  0  0  0
 12 16  1  0  0  0  0
 13 15  1  0  0  0  0
 13 18  2  0  0  0  0
 14 16  2  0  0  0  0
 14 18  1  0  0  0  0
 17 22  1  0  0  0  0
 19 20  2  0  0  0  0
 20 22  1  0  0  0  0
 21 22  2  0  0  0  0
 21 23  1  0  0  0  0
  6 24  1  0  0  0  0
  8 25  1  0  0  0  0
  8 26  1  0  0  0  0
  9 27  1  0  0  0  0
 10 28  1  0  0  0  0
 10 29  1  0  0  0  0
 11 30  1  0  0  0  0
 12 31  1  0  0  0  0
 13 32  1  0  0  0  0
 14 33  1  0  0  0  0
 17 34  1  0  0  0  0
M  END
> <pdb_id>
6X28

> <uniprot_id>
Q99814

> <usmiles>
Fc1cc(F)cc(Oc2c3c(c(cc2)C(F)(F)F)[C@H](O)CC3)c1

$$$$
UM3_A_1125
          07202402503D 1   1.00000     0.00000     0
            
 33 34  0  0  0  0            999 V2000
   36.9478    3.5215   12.9850 P   0  0  0  0  0  0  0  0  0  0  0  0
   36.8445    4.9869   12.4995 O   0  0  0  0  0  0  0  0  0  0  0  0
   35.3854    3.4551   13.1326 O   0  0  0  0  0  0  0  0  0  0  0  0
   37.1571    4.1929   14.6769 O   0  0  0  0  0  0  0  0  0  0  0  0
   39.8015   -0.6445   13.8348 O   0  0  0  0  0  0  0  0  0  0  0  0
   34.6157   -1.1424   10.2796 O   0  0  0  0  0  0  0  0  0  0  0  0
   34.3477   -5.3870   11.9643 O   0  0  0  0  0  0  0  0  0  0  0  0
   37.5800    2.4020   12.1398 O   0  0  0  0  0  0  0  0  0  0  0  0
   38.4978   -0.2393   11.3973 O   0  0  0  0  0  0  0  0  0  0  0  0
   34.5172   -3.2639   11.1484 N   0  0  0  0  0  0  0  0  0  0  0  0
   36.2859   -1.8441   11.7728 N   0  0  0  0  0  0  0  0  0  0  0  0
   40.2808    0.6346   13.2158 C   0  0  0  0  0  0  0  0  0  0  0  0
   36.7806   -2.8707   12.5808 C   0  0  0  0  0  0  0  0  0  0  0  0
   36.1785   -4.0795   12.6896 C   0  0  0  0  0  0  0  0  0  0  0  0
   36.9224    0.2275   13.1449 C   0  0  0  0  0  0  0  0  0  0  0  0
   35.1022   -2.0095   11.0090 C   0  0  0  0  0  0  0  0  0  0  0  0
   34.9739   -4.3371   11.9480 C   0  0  0  0  0  0  0  0  0  0  0  0
   37.1604   -0.7018   11.8340 C   0  0  1  0  0  0  0  0  0  0  0  0
   39.1619    0.7417   12.1943 C   0  0  2  0  0  0  0  0  0  0  0  0
   37.9212    1.4454   12.7626 C   0  0  1  0  0  0  0  0  0  0  0  0
   37.7602    5.3397   12.3072 H   0  0  0  0  0  0  0  0  0  0  0  0
   37.2636    3.4381   15.3242 H   0  0  0  0  0  0  0  0  0  0  0  0
   40.4242   -0.9130   14.5698 H   0  0  0  0  0  0  0  0  0  0  0  0
   33.6805   -3.4245   10.6249 H   0  0  0  0  0  0  0  0  0  0  0  0
   41.1829    0.5457   12.7934 H   0  0  0  0  0  0  0  0  0  0  0  0
   40.2890    1.3978   13.8619 H   0  0  0  0  0  0  0  0  0  0  0  0
   37.6175   -2.7058   13.1027 H   0  0  0  0  0  0  0  0  0  0  0  0
   36.5683   -4.7860   13.2803 H   0  0  0  0  0  0  0  0  0  0  0  0
   37.1970   -0.2339   13.9885 H   0  0  0  0  0  0  0  0  0  0  0  0
   35.9727    0.5303   13.2245 H   0  0  0  0  0  0  0  0  0  0  0  0
   36.6370   -0.1314   11.2010 H   0  0  0  0  0  0  0  0  0  0  0  0
   39.5162    1.3922   11.5225 H   0  0  0  0  0  0  0  0  0  0  0  0
   38.2206    1.8118   13.6435 H   0  0  0  0  0  0  0  0  0  0  0  0
  1  2  1  0  0  0  0
  1  3  2  0  0  0  0
  1  4  1  0  0  0  0
  1  8  1  0  0  0  0
  5 12  1  0  0  0  0
  6 16  2  0  0  0  0
  7 17  2  0  0  0  0
  8 20  1  0  0  0  0
  9 18  1  0  0  0  0
  9 19  1  0  0  0  0
 10 16  1  0  0  0  0
 10 17  1  0  0  0  0
 11 13  1  0  0  0  0
 11 16  1  0  0  0  0
 11 18  1  0  0  0  0
 12 19  1  0  0  0  0
 13 14  2  0  0  0  0
 14 17  1  0  0  0  0
 15 18  1  0  0  0  0
 15 20  1  0  0  0  0
 19 20  1  0  0  0  0
  2 21  1  0  0  0  0
  4 22  1  0  0  0  0
  5 23  1  0  0  0  0
 10 24  1  0  0  0  0
 12 25  1  0  0  0  0
 12 26  1  0  0  0  0
 13 27  1  0  0  0  0
 14 28  1  0  0  0  0
 15 29  1  0  0  0  0
 15 30  1  0  0  0  0
 18 31  1  0  0  0  0
 19 32  1  0  0  0  0
 20 33  1  0  0  0  0
M  END
> <pdb_id>
1W4P

> <uniprot_id>
P61823

> <usmiles>
P(=O)(O[C@@H]1[C@H](O[C@@H](N2C(=O)NC(=O)C=C2)C1)CO)(O)O

$$$$
UMF_A_1125
          07202402503D 1   1.00000     0.00000     0
            
 33 34  0  0  0  0            999 V2000
   36.6566    3.8956   13.2622 P   0  0  0  0  0  0  0  0  0  0  0  0
   35.9724    1.6677   11.1855 F   0  0  0  0  0  0  0  0  0  0  0  0
   35.1256    3.4522   13.1592 O   0  0  0  0  0  0  0  0  0  0  0  0
   36.9790    4.0923   14.7214 O   0  0  0  0  0  0  0  0  0  0  0  0
   37.0593    5.0739   12.4606 O   0  0  0  0  0  0  0  0  0  0  0  0
   39.0675   -0.0016   15.1834 O   0  0  0  0  0  0  0  0  0  0  0  0
   34.5558   -1.5092   10.2457 O   0  0  0  0  0  0  0  0  0  0  0  0
   33.9508   -5.3371   12.6324 O   0  0  0  0  0  0  0  0  0  0  0  0
   37.2206    2.9451   12.5445 O   0  0  0  0  0  0  0  0  0  0  0  0
   38.2352   -0.6891   12.6028 O   0  0  0  0  0  0  0  0  0  0  0  0
   34.2683   -3.4330   11.4605 N   0  0  0  0  0  0  0  0  0  0  0  0
   36.1090   -2.0067   11.8130 N   0  0  0  0  0  0  0  0  0  0  0  0
   39.7970    0.3590   13.8435 C   0  0  0  0  0  0  0  0  0  0  0  0
   36.5711   -2.9015   12.8505 C   0  0  0  0  0  0  0  0  0  0  0  0
   35.8986   -4.0368   13.1809 C   0  0  0  0  0  0  0  0  0  0  0  0
   34.9195   -2.2487   11.0810 C   0  0  0  0  0  0  0  0  0  0  0  0
   34.6599   -4.3689   12.4644 C   0  0  0  0  0  0  0  0  0  0  0  0
   36.2742    0.6811   11.9459 C   0  0  1  0  0  0  0  0  0  0  0  0
   37.0033   -0.7178   11.5172 C   0  0  1  0  0  0  0  0  0  0  0  0
   38.5558    0.5888   12.9451 C   0  0  2  0  0  0  0  0  0  0  0  0
   37.3827    1.4807   12.8391 C   0  0  1  0  0  0  0  0  0  0  0  0
   34.8825    3.3139   12.1991 H   0  0  0  0  0  0  0  0  0  0  0  0
   37.9346    4.3713   14.8170 H   0  0  0  0  0  0  0  0  0  0  0  0
   39.7469   -0.1854   15.8938 H   0  0  0  0  0  0  0  0  0  0  0  0
   33.4258   -3.6474   10.9663 H   0  0  0  0  0  0  0  0  0  0  0  0
   40.3656   -0.3938   13.5119 H   0  0  0  0  0  0  0  0  0  0  0  0
   40.3546    1.1845   13.9307 H   0  0  0  0  0  0  0  0  0  0  0  0
   37.4131   -2.6783   13.3416 H   0  0  0  0  0  0  0  0  0  0  0  0
   36.2431   -4.6377   13.9022 H   0  0  0  0  0  0  0  0  0  0  0  0
   35.4870    0.4690   12.5250 H   0  0  0  0  0  0  0  0  0  0  0  0
   37.3328   -0.6967   10.5733 H   0  0  0  0  0  0  0  0  0  0  0  0
   39.0258    0.8570   12.1042 H   0  0  0  0  0  0  0  0  0  0  0  0
   36.9918    1.4130   13.7571 H   0  0  0  0  0  0  0  0  0  0  0  0
  1  3  1  0  0  0  0
  1  4  1  0  0  0  0
  1  5  2  0  0  0  0
  1  9  1  0  0  0  0
  2 18  1  0  0  0  0
  6 13  1  0  0  0  0
  7 16  2  0  0  0  0
  8 17  2  0  0  0  0
  9 21  1  0  0  0  0
 10 19  1  0  0  0  0
 10 20  1  0  0  0  0
 11 16  1  0  0  0  0
 11 17  1  0  0  0  0
 12 14  1  0  0  0  0
 12 16  1  0  0  0  0
 12 19  1  0  0  0  0
 13 20  1  0  0  0  0
 14 15  2  0  0  0  0
 15 17  1  0  0  0  0
 18 19  1  0  0  0  0
 18 21  1  0  0  0  0
 20 21  1  0  0  0  0
  3 22  1  0  0  0  0
  4 23  1  0  0  0  0
  6 24  1  0  0  0  0
 11 25  1  0  0  0  0
 13 26  1  0  0  0  0
 13 27  1  0  0  0  0
 14 28  1  0  0  0  0
 15 29  1  0  0  0  0
 18 30  1  0  0  0  0
 19 31  1  0  0  0  0
 20 32  1  0  0  0  0
 21 33  1  0  0  0  0
M  END
> <pdb_id>
1W4Q

> <uniprot_id>
P61823

> <usmiles>
P(=O)(O[C@H]1[C@@H](F)[C@@H](O[C@@H]1CO)N2C(=O)NC(=O)C=C2)(O)O

$$$$
UMN_A_406
          07212404193D 1   1.00000     0.00000     0
            
 69 74  0  0  0  0            999 V2000
    8.9480    5.3450   46.1960 Cl  0  0  0  0  0  0  0  0  0  0  0  0
    2.5340    7.6330   48.1340 O   0  0  0  0  0  0  0  0  0  0  0  0
    4.1010    6.5840   45.2200 O   0  0  0  0  0  0  0  0  0  0  0  0
   -1.8290    7.5570   47.3400 O   0  0  0  0  0  0  0  0  0  0  0  0
   12.6040   11.5030   39.9940 O   0  0  0  0  0  0  0  0  0  0  0  0
   12.0480    6.4560   44.0120 N   0  0  0  0  0  0  0  0  0  0  0  0
   10.4390    8.2270   43.9010 N   0  0  0  0  0  0  0  0  0  0  0  0
   12.4500    8.3670   42.7850 N   0  0  0  0  0  0  0  0  0  0  0  0
    0.6680    8.7830   47.7150 N   0  0  0  0  0  0  0  0  0  0  0  0
    3.8110    8.7590   45.9230 N   0  0  0  0  0  0  0  0  0  0  0  0
   11.2200    5.7730   44.8030 C   0  0  0  0  0  0  0  0  0  0  0  0
   -2.6330   11.2460   50.7430 C   0  0  0  0  0  0  0  0  0  0  0  0
   -2.4940   11.3410   49.3710 C   0  0  0  0  0  0  0  0  0  0  0  0
   -1.9600   10.2540   51.4370 C   0  0  0  0  0  0  0  0  0  0  0  0
   -1.6850   10.4380   48.6940 C   0  0  0  0  0  0  0  0  0  0  0  0
    8.3490    9.5270   45.4550 C   0  0  0  0  0  0  0  0  0  0  0  0
    7.1880   10.1720   45.8200 C   0  0  0  0  0  0  0  0  0  0  0  0
    7.1090    7.5070   45.0550 C   0  0  0  0  0  0  0  0  0  0  0  0
   -1.0210    7.1930   48.4500 C   0  0  0  0  0  0  0  0  0  0  0  0
   13.2150   11.7590   41.2780 C   0  0  0  0  0  0  0  0  0  0  0  0
   11.3250   10.8780   40.1720 C   0  0  0  0  0  0  0  0  0  0  0  0
    2.3610    8.7430   46.0180 C   0  0  0  0  0  0  0  0  0  0  0  0
    4.5970    9.9710   46.1410 C   0  0  0  0  0  0  0  0  0  0  0  0
   13.4700   10.4660   42.0420 C   0  0  0  0  0  0  0  0  0  0  0  0
   11.4640    9.5350   40.8680 C   0  0  0  0  0  0  0  0  0  0  0  0
   -0.3540    8.1800   51.2570 C   0  0  0  0  0  0  0  0  0  0  0  0
    0.6720    8.0100   50.1880 C   0  0  0  0  0  0  0  0  0  0  0  0
    1.8640    8.3340   47.3870 C   0  0  0  0  0  0  0  0  0  0  0  0
   11.6220    7.6650   43.5850 C   0  0  0  0  0  0  0  0  0  0  0  0
    9.9890    6.2740   45.1610 C   0  0  0  0  0  0  0  0  0  0  0  0
    4.5510    7.6970   45.4900 C   0  0  0  0  0  0  0  0  0  0  0  0
    9.6070    7.5200   44.6910 C   0  0  0  0  0  0  0  0  0  0  0  0
    8.3320    8.1920   45.0500 C   0  0  0  0  0  0  0  0  0  0  0  0
    5.9860    9.4990   45.8070 C   0  0  0  0  0  0  0  0  0  0  0  0
   -1.1700    9.3410   50.7610 C   0  0  0  0  0  0  0  0  0  0  0  0
    5.9510    8.1700   45.4170 C   0  0  0  0  0  0  0  0  0  0  0  0
   -1.0300    9.4360   49.3840 C   0  0  0  0  0  0  0  0  0  0  0  0
   12.1810    9.6720   42.2130 C   0  0  0  0  0  0  0  0  0  0  0  0
   -0.0900    8.3410   48.8840 C   0  0  1  0  0  0  0  0  0  0  0  0
   -1.6460    7.0490   46.6810 H   0  0  0  0  0  0  0  0  0  0  0  0
   13.1690    7.9530   42.5010 H   0  0  0  0  0  0  0  0  0  0  0  0
    0.2520    9.2730   47.1300 H   0  0  0  0  0  0  0  0  0  0  0  0
   11.4840    4.9090   45.1140 H   0  0  0  0  0  0  0  0  0  0  0  0
   -3.1850   11.8670   51.2110 H   0  0  0  0  0  0  0  0  0  0  0  0
   -2.9470   12.0310   48.8910 H   0  0  0  0  0  0  0  0  0  0  0  0
   -2.0660   10.1810   52.3840 H   0  0  0  0  0  0  0  0  0  0  0  0
   -1.5880   10.5030   47.7460 H   0  0  0  0  0  0  0  0  0  0  0  0
    9.1760   10.0050   45.4680 H   0  0  0  0  0  0  0  0  0  0  0  0
    7.2150   11.0910   46.0770 H   0  0  0  0  0  0  0  0  0  0  0  0
    7.0740    6.5890   44.7930 H   0  0  0  0  0  0  0  0  0  0  0  0
   -0.4760    6.4080   48.2110 H   0  0  0  0  0  0  0  0  0  0  0  0
   -1.6020    6.9430   49.2020 H   0  0  0  0  0  0  0  0  0  0  0  0
   12.6240   12.3400   41.8080 H   0  0  0  0  0  0  0  0  0  0  0  0
   14.0650   12.2300   41.1440 H   0  0  0  0  0  0  0  0  0  0  0  0
   10.9040   10.7480   39.2970 H   0  0  0  0  0  0  0  0  0  0  0  0
   10.7480   11.4640   40.7060 H   0  0  0  0  0  0  0  0  0  0  0  0
    2.0040    8.1190   45.3500 H   0  0  0  0  0  0  0  0  0  0  0  0
    2.0180    9.6390   45.8090 H   0  0  0  0  0  0  0  0  0  0  0  0
    4.3120   10.6930   45.5440 H   0  0  0  0  0  0  0  0  0  0  0  0
    4.5360   10.2740   47.0700 H   0  0  0  0  0  0  0  0  0  0  0  0
   13.8410   10.6750   42.9240 H   0  0  0  0  0  0  0  0  0  0  0  0
   14.1250    9.9230   41.5550 H   0  0  0  0  0  0  0  0  0  0  0  0
   11.9690    8.9220   40.2930 H   0  0  0  0  0  0  0  0  0  0  0  0
   10.5720    9.1510   41.0150 H   0  0  0  0  0  0  0  0  0  0  0  0
    0.0630    8.3850   52.1180 H   0  0  0  0  0  0  0  0  0  0  0  0
   -0.9050    7.3760   51.3500 H   0  0  0  0  0  0  0  0  0  0  0  0
    1.4220    8.6260   50.3200 H   0  0  0  0  0  0  0  0  0  0  0  0
    1.0130    7.0930   50.1700 H   0  0  0  0  0  0  0  0  0  0  0  0
   11.5930   10.1660   42.8290 H   0  0  0  0  0  0  0  0  0  0  0  0
  1 30  1  0  0  0  0
  2 28  2  0  0  0  0
  3 31  2  0  0  0  0
  4 19  1  0  0  0  0
  4 40  1  0  0  0  0
  5 20  1  0  0  0  0
  5 21  1  0  0  0  0
  6 11  2  0  0  0  0
  6 29  1  0  0  0  0
  7 29  2  0  0  0  0
  7 32  1  0  0  0  0
  8 29  1  0  0  0  0
  8 38  1  0  0  0  0
  8 41  1  0  0  0  0
  9 28  1  0  0  0  0
  9 39  1  0  0  0  0
  9 42  1  0  0  0  0
 10 22  1  0  0  0  0
 10 23  1  0  0  0  0
 10 31  1  0  0  0  0
 11 30  1  0  0  0  0
 11 43  1  0  0  0  0
 12 13  2  0  0  0  0
 12 14  1  0  0  0  0
 12 44  1  0  0  0  0
 13 15  1  0  0  0  0
 13 45  1  0  0  0  0
 14 35  2  0  0  0  0
 14 46  1  0  0  0  0
 15 37  2  0  0  0  0
 15 47  1  0  0  0  0
 16 17  1  0  0  0  0
 16 33  2  0  0  0  0
 16 48  1  0  0  0  0
 17 34  2  0  0  0  0
 17 49  1  0  0  0  0
 18 33  1  0  0  0  0
 18 36  2  0  0  0  0
 18 50  1  0  0  0  0
 19 39  1  0  0  0  0
 19 51  1  0  0  0  0
 19 52  1  0  0  0  0
 20 24  1  0  0  0  0
 20 53  1  0  0  0  0
 20 54  1  0  0  0  0
 21 25  1  0  0  0  0
 21 55  1  0  0  0  0
 21 56  1  0  0  0  0
 22 28  1  0  0  0  0
 22 57  1  0  0  0  0
 22 58  1  0  0  0  0
 23 34  1  0  0  0  0
 23 59  1  0  0  0  0
 23 60  1  0  0  0  0
 24 38  1  0  0  0  0
 24 61  1  0  0  0  0
 24 62  1  0  0  0  0
 25 38  1  0  0  0  0
 25 63  1  0  0  0  0
 25 64  1  0  0  0  0
 26 27  1  0  0  0  0
 26 35  1  0  0  0  0
 26 65  1  0  0  0  0
 26 66  1  0  0  0  0
 27 39  1  0  0  0  0
 27 67  1  0  0  0  0
 27 68  1  0  0  0  0
 30 32  2  0  0  0  0
 31 36  1  0  0  0  0
 32 33  1  0  0  0  0
 34 36  1  0  0  0  0
 35 37  1  0  0  0  0
 37 39  1  0  0  0  0
 38 69  1  0  0  0  0
M  END
> <pdb_id>
7NQQ

> <uniprot_id>
P28482

> <usmiles>
Clc1c(nc(nc1)NC2CCOCC2)c3cc4c(cc3)CN(C4=O)CC(=O)N[C@@]5(c6c(cccc6)CC5)CO

$$$$
UMP_E_1266
          07202400203D 1   1.00000     0.00000     0
            
 33 34  0  0  0  0            999 V2000
  -46.3870   35.8830  -35.4840 P   0  0  0  0  0  0  0  0  0  0  0  0
  -47.0500   34.5230  -35.4250 O   0  0  0  0  0  0  0  0  0  0  0  0
  -45.7420   36.2110  -34.1650 O   0  0  0  0  0  0  0  0  0  0  0  0
  -45.4810   35.9270  -36.6590 O   0  0  0  0  0  0  0  0  0  0  0  0
  -52.2410   41.6600  -36.6630 O   0  0  0  0  0  0  0  0  0  0  0  0
  -50.1280   45.0240  -34.4650 O   0  0  0  0  0  0  0  0  0  0  0  0
  -50.8390   37.4520  -38.2500 O   0  0  0  0  0  0  0  0  0  0  0  0
  -47.4540   37.0570  -35.6230 O   0  0  0  0  0  0  0  0  0  0  0  0
  -49.3850   38.9300  -35.7450 O   0  0  0  0  0  0  0  0  0  0  0  0
  -51.2520   43.3890  -35.5960 N   0  0  0  0  0  0  0  0  0  0  0  0
  -50.2440   41.2150  -35.7260 N   0  0  0  0  0  0  0  0  0  0  0  0
  -47.7770   37.5460  -36.8880 C   0  0  0  0  0  0  0  0  0  0  0  0
  -49.1850   41.6560  -34.9940 C   0  0  0  0  0  0  0  0  0  0  0  0
  -49.1480   42.9800  -34.5690 C   0  0  0  0  0  0  0  0  0  0  0  0
  -50.2160   39.7900  -37.7240 C   0  0  0  0  0  0  0  0  0  0  0  0
  -51.2840   42.0780  -36.0170 C   0  0  0  0  0  0  0  0  0  0  0  0
  -50.1830   43.8530  -34.8600 C   0  0  0  0  0  0  0  0  0  0  0  0
  -49.7850   38.3620  -38.0090 C   0  0  1  0  0  0  0  0  0  0  0  0
  -50.3520   39.8310  -36.2110 C   0  0  1  0  0  0  0  0  0  0  0  0
  -49.2300   37.9010  -36.6960 C   0  0  2  0  0  0  0  0  0  0  0  0
  -47.4734   34.3200  -36.3079 H   0  0  0  0  0  0  0  0  0  0  0  0
  -45.3092   37.1108  -34.2202 H   0  0  0  0  0  0  0  0  0  0  0  0
  -50.4609   36.5433  -38.4267 H   0  0  0  0  0  0  0  0  0  0  0  0
  -52.0056   44.0052  -35.8247 H   0  0  0  0  0  0  0  0  0  0  0  0
  -47.6598   36.8467  -37.5931 H   0  0  0  0  0  0  0  0  0  0  0  0
  -47.2302   38.3500  -37.1217 H   0  0  0  0  0  0  0  0  0  0  0  0
  -48.4382   41.0323  -34.7631 H   0  0  0  0  0  0  0  0  0  0  0  0
  -48.3615   43.3067  -34.0450 H   0  0  0  0  0  0  0  0  0  0  0  0
  -51.0896   39.9936  -38.1661 H   0  0  0  0  0  0  0  0  0  0  0  0
  -49.5242   40.4405  -38.0375 H   0  0  0  0  0  0  0  0  0  0  0  0
  -49.0954   38.3244  -38.7322 H   0  0  0  0  0  0  0  0  0  0  0  0
  -51.2555   39.4798  -35.9654 H   0  0  0  0  0  0  0  0  0  0  0  0
  -49.7309   37.0909  -36.3913 H   0  0  0  0  0  0  0  0  0  0  0  0
  1  2  1  0  0  0  0
  1  3  1  0  0  0  0
  1  4  2  0  0  0  0
  1  8  1  0  0  0  0
  5 16  2  0  0  0  0
  6 17  2  0  0  0  0
  7 18  1  0  0  0  0
  8 12  1  0  0  0  0
  9 19  1  0  0  0  0
  9 20  1  0  0  0  0
 10 16  1  0  0  0  0
 10 17  1  0  0  0  0
 11 13  1  0  0  0  0
 11 16  1  0  0  0  0
 11 19  1  0  0  0  0
 12 20  1  0  0  0  0
 13 14  2  0  0  0  0
 14 17  1  0  0  0  0
 15 18  1  0  0  0  0
 15 19  1  0  0  0  0
 18 20  1  0  0  0  0
  2 21  1  0  0  0  0
  3 22  1  0  0  0  0
  7 23  1  0  0  0  0
 10 24  1  0  0  0  0
 12 25  1  0  0  0  0
 12 26  1  0  0  0  0
 13 27  1  0  0  0  0
 14 28  1  0  0  0  0
 15 29  1  0  0  0  0
 15 30  1  0  0  0  0
 18 31  1  0  0  0  0
 19 32  1  0  0  0  0
 20 33  1  0  0  0  0
M  END
> <pdb_id>
2YAZ

> <uniprot_id>
O15826

> <usmiles>
P(=O)(OC[C@H]1O[C@@H](N2C(=O)NC(=O)C=C2)C[C@@H]1O)(O)O

$$$$
UNJ_A_1
          07192419233D 1   1.00000     0.00000     0
            
 18 19  0  0  0  0            999 V2000
  -21.8883   39.7099   -0.4249 Br  0  0  0  0  0  0  0  0  0  0  0  0
  -15.8309   34.1536    1.7829 O   0  0  0  0  0  0  0  0  0  0  0  0
  -15.7820   35.4888    3.6189 O   0  0  0  0  0  0  0  0  0  0  0  0
  -17.8652   36.8637    2.8090 O   0  0  0  0  0  0  0  0  0  0  0  0
  -20.4573   39.1404    1.8295 C   0  0  0  0  0  0  0  0  0  0  0  0
  -19.5909   38.5369    2.6940 C   0  0  0  0  0  0  0  0  0  0  0  0
  -19.8226   37.6694   -0.0229 C   0  0  0  0  0  0  0  0  0  0  0  0
  -17.9996   36.0453    0.7000 C   0  0  0  0  0  0  0  0  0  0  0  0
  -20.5712   38.6933    0.5432 C   0  0  0  0  0  0  0  0  0  0  0  0
  -16.2718   35.0988    2.4756 C   0  0  0  0  0  0  0  0  0  0  0  0
  -18.8040   37.5362    2.1534 C   0  0  0  0  0  0  0  0  0  0  0  0
  -17.3965   35.9288    1.9300 C   0  0  0  0  0  0  0  0  0  0  0  0
  -18.8771   37.0628    0.8440 C   0  0  0  0  0  0  0  0  0  0  0  0
  -16.2703   33.9224    0.9149 H   0  0  0  0  0  0  0  0  0  0  0  0
  -21.0114   39.9133    2.1387 H   0  0  0  0  0  0  0  0  0  0  0  0
  -19.5288   38.8013    3.6564 H   0  0  0  0  0  0  0  0  0  0  0  0
  -19.9413   37.3806   -0.9729 H   0  0  0  0  0  0  0  0  0  0  0  0
  -17.8272   35.4985   -0.1193 H   0  0  0  0  0  0  0  0  0  0  0  0
  1  9  1  0  0  0  0
  2 10  1  0  0  0  0
  3 10  2  0  0  0  0
  4 11  1  0  0  0  0
  4 12  1  0  0  0  0
  5  6  1  0  0  0  0
  5  9  2  0  0  0  0
  6 11  2  0  0  0  0
  7  9  1  0  0  0  0
  7 13  2  0  0  0  0
  8 12  2  0  0  0  0
  8 13  1  0  0  0  0
 10 12  1  0  0  0  0
 11 13  1  0  0  0  0
  2 14  1  0  0  0  0
  5 15  1  0  0  0  0
  6 16  1  0  0  0  0
  7 17  1  0  0  0  0
  8 18  1  0  0  0  0
M  END
> <pdb_id>
3R00

> <uniprot_id>
P11309

> <usmiles>
Brc1cc2c(OC(C(=O)O)=C2)cc1

$$$$
UNM_A_555
          07192419233D 1   1.00000     0.00000     0
            
 38 40  0  0  0  0            999 V2000
  -21.9930   40.0043    0.3990 Br  0  0  0  0  0  0  0  0  0  0  0  0
  -15.7564   34.3667    1.7555 O   0  0  0  0  0  0  0  0  0  0  0  0
  -15.7485   35.4491    3.7751 O   0  0  0  0  0  0  0  0  0  0  0  0
  -17.6660   35.8589    0.8183 O   0  0  0  0  0  0  0  0  0  0  0  0
  -15.5578   36.9127   -5.1908 N   0  0  0  0  0  0  0  0  0  0  0  0
  -19.0050   36.2333   -1.7411 N   0  0  0  0  0  0  0  0  0  0  0  0
  -17.5489   37.9329   -3.9004 C   0  0  0  0  0  0  0  0  0  0  0  0
  -17.5434   35.4402   -4.4376 C   0  0  0  0  0  0  0  0  0  0  0  0
  -19.0987   37.8982   -3.7152 C   0  0  0  0  0  0  0  0  0  0  0  0
  -19.0620   35.4409   -4.1046 C   0  0  0  0  0  0  0  0  0  0  0  0
  -20.3116   37.9523   -0.6218 C   0  0  0  0  0  0  0  0  0  0  0  0
  -19.9338   38.4854    1.7831 C   0  0  0  0  0  0  0  0  0  0  0  0
  -18.0351   37.0185    2.8012 C   0  0  0  0  0  0  0  0  0  0  0  0
  -16.2474   35.2108    2.5665 C   0  0  0  0  0  0  0  0  0  0  0  0
  -20.5853   38.6093    0.5665 C   0  0  0  0  0  0  0  0  0  0  0  0
  -17.3291   36.0336    2.1123 C   0  0  0  0  0  0  0  0  0  0  0  0
  -17.0075   36.8521   -4.9237 C   0  0  0  0  0  0  0  0  0  0  0  0
  -18.6212   36.7753    0.6337 C   0  0  0  0  0  0  0  0  0  0  0  0
  -19.5795   36.5036   -3.1222 C   0  0  0  0  0  0  0  0  0  0  0  0
  -19.2707   36.9592   -0.5970 C   0  0  0  0  0  0  0  0  0  0  0  0
  -18.8899   37.5432    1.7706 C   0  0  0  0  0  0  0  0  0  0  0  0
  -16.1773   34.2318    0.8584 H   0  0  0  0  0  0  0  0  0  0  0  0
  -15.3090   36.1975   -5.8440 H   0  0  0  0  0  0  0  0  0  0  0  0
  -15.3262   37.8076   -5.5722 H   0  0  0  0  0  0  0  0  0  0  0  0
  -18.3777   35.4595   -1.6532 H   0  0  0  0  0  0  0  0  0  0  0  0
  -17.1208   37.7691   -3.0117 H   0  0  0  0  0  0  0  0  0  0  0  0
  -17.2906   38.8400   -4.2327 H   0  0  0  0  0  0  0  0  0  0  0  0
  -17.3775   34.7711   -5.1620 H   0  0  0  0  0  0  0  0  0  0  0  0
  -17.0384   35.1745   -3.6164 H   0  0  0  0  0  0  0  0  0  0  0  0
  -19.5360   38.0427   -4.6029 H   0  0  0  0  0  0  0  0  0  0  0  0
  -19.3682   38.6290   -3.0880 H   0  0  0  0  0  0  0  0  0  0  0  0
  -19.2832   34.5452   -3.7189 H   0  0  0  0  0  0  0  0  0  0  0  0
  -19.5560   35.5645   -4.9652 H   0  0  0  0  0  0  0  0  0  0  0  0
  -20.8155   38.1591   -1.4604 H   0  0  0  0  0  0  0  0  0  0  0  0
  -20.1825   39.0159    2.5935 H   0  0  0  0  0  0  0  0  0  0  0  0
  -17.9654   37.2895    3.7612 H   0  0  0  0  0  0  0  0  0  0  0  0
  -17.4611   37.0392   -5.7951 H   0  0  0  0  0  0  0  0  0  0  0  0
  -20.5785   36.4756   -3.0863 H   0  0  0  0  0  0  0  0  0  0  0  0
  1 15  1  0  0  0  0
  2 14  1  0  0  0  0
  3 14  2  0  0  0  0
  4 16  1  0  0  0  0
  4 18  1  0  0  0  0
  5 17  1  0  0  0  0
  6 19  1  0  0  0  0
  6 20  1  0  0  0  0
  7  9  1  0  0  0  0
  7 17  1  0  0  0  0
  8 10  1  0  0  0  0
  8 17  1  0  0  0  0
  9 19  1  0  0  0  0
 10 19  1  0  0  0  0
 11 15  2  0  0  0  0
 11 20  1  0  0  0  0
 12 15  1  0  0  0  0
 12 21  2  0  0  0  0
 13 16  2  0  0  0  0
 13 21  1  0  0  0  0
 14 16  1  0  0  0  0
 18 20  2  0  0  0  0
 18 21  1  0  0  0  0
  2 22  1  0  0  0  0
  5 23  1  0  0  0  0
  5 24  1  0  0  0  0
  6 25  1  0  0  0  0
  7 26  1  0  0  0  0
  7 27  1  0  0  0  0
  8 28  1  0  0  0  0
  8 29  1  0  0  0  0
  9 30  1  0  0  0  0
  9 31  1  0  0  0  0
 10 32  1  0  0  0  0
 10 33  1  0  0  0  0
 11 34  1  0  0  0  0
 12 35  1  0  0  0  0
 13 36  1  0  0  0  0
 17 37  1  0  0  0  0
 19 38  1  0  0  0  0
M  END
> <pdb_id>
3R02

> <uniprot_id>
P11309

> <usmiles>
Brc1cc(NC2CCC(N)CC2)c3OC(C(=O)O)=Cc3c1

$$$$
UNQ_A_555
          07192419233D 1   1.00000     0.00000     0
            
 46 49  0  0  0  0            999 V2000
  -15.8148   34.1490    1.8651 O   0  0  0  0  0  0  0  0  0  0  0  0
  -15.8839   35.5446    3.6862 O   0  0  0  0  0  0  0  0  0  0  0  0
  -18.0136   36.8589    2.9217 O   0  0  0  0  0  0  0  0  0  0  0  0
  -17.3618   37.0001   -7.1472 N   0  0  0  0  0  0  0  0  0  0  0  0
  -23.3258   40.6950   -1.2695 N   0  0  0  0  0  0  0  0  0  0  0  0
  -21.7580   39.5842   -4.4148 N   0  0  0  0  0  0  0  0  0  0  0  0
  -21.1896   39.0716   -2.1492 N   0  0  0  0  0  0  0  0  0  0  0  0
  -23.0974   40.5421   -2.5868 C   0  0  0  0  0  0  0  0  0  0  0  0
  -22.4969   40.0527   -0.3891 C   0  0  0  0  0  0  0  0  0  0  0  0
  -19.8021   38.5699    2.6151 C   0  0  0  0  0  0  0  0  0  0  0  0
  -19.8493   37.1819   -6.8188 C   0  0  0  0  0  0  0  0  0  0  0  0
  -18.2471   38.1600   -5.1241 C   0  0  0  0  0  0  0  0  0  0  0  0
  -20.9838   38.1191   -6.3017 C   0  0  0  0  0  0  0  0  0  0  0  0
  -19.3112   39.1630   -4.6757 C   0  0  0  0  0  0  0  0  0  0  0  0
  -20.6065   39.0864    1.6082 C   0  0  0  0  0  0  0  0  0  0  0  0
  -17.9475   35.9492    0.7673 C   0  0  0  0  0  0  0  0  0  0  0  0
  -19.7871   37.5274   -0.1142 C   0  0  0  0  0  0  0  0  0  0  0  0
  -16.3495   35.0411    2.5498 C   0  0  0  0  0  0  0  0  0  0  0  0
  -17.4803   35.9136    2.0421 C   0  0  0  0  0  0  0  0  0  0  0  0
  -18.9230   37.5576    2.1567 C   0  0  0  0  0  0  0  0  0  0  0  0
  -22.0198   39.7458   -3.0466 C   0  0  0  0  0  0  0  0  0  0  0  0
  -18.4339   37.7829   -6.6093 C   0  0  0  0  0  0  0  0  0  0  0  0
  -20.7459   38.5372   -4.8123 C   0  0  0  0  0  0  0  0  0  0  0  0
  -21.4567   39.1936   -0.8020 C   0  0  0  0  0  0  0  0  0  0  0  0
  -18.9454   37.0390    0.8448 C   0  0  0  0  0  0  0  0  0  0  0  0
  -20.6304   38.5872    0.2723 C   0  0  0  0  0  0  0  0  0  0  0  0
  -16.2502   33.8388    1.0199 H   0  0  0  0  0  0  0  0  0  0  0  0
  -16.4915   37.4590   -6.9681 H   0  0  0  0  0  0  0  0  0  0  0  0
  -17.3582   36.0983   -6.7151 H   0  0  0  0  0  0  0  0  0  0  0  0
  -22.2244   40.1418   -5.1014 H   0  0  0  0  0  0  0  0  0  0  0  0
  -23.6948   40.9956   -3.2483 H   0  0  0  0  0  0  0  0  0  0  0  0
  -22.6349   40.1990    0.5905 H   0  0  0  0  0  0  0  0  0  0  0  0
  -19.8393   38.8800    3.5651 H   0  0  0  0  0  0  0  0  0  0  0  0
  -19.9874   37.0217   -7.7962 H   0  0  0  0  0  0  0  0  0  0  0  0
  -19.9037   36.3126   -6.3276 H   0  0  0  0  0  0  0  0  0  0  0  0
  -18.3200   37.3340   -4.5653 H   0  0  0  0  0  0  0  0  0  0  0  0
  -17.3418   38.5667   -5.0013 H   0  0  0  0  0  0  0  0  0  0  0  0
  -21.8584   37.6388   -6.3689 H   0  0  0  0  0  0  0  0  0  0  0  0
  -21.0106   38.9415   -6.8700 H   0  0  0  0  0  0  0  0  0  0  0  0
  -19.2533   39.9821   -5.2465 H   0  0  0  0  0  0  0  0  0  0  0  0
  -19.1492   39.4103   -3.7204 H   0  0  0  0  0  0  0  0  0  0  0  0
  -21.2053   39.8551    1.8332 H   0  0  0  0  0  0  0  0  0  0  0  0
  -17.6859   35.3870   -0.0172 H   0  0  0  0  0  0  0  0  0  0  0  0
  -19.8035   37.1524   -1.0411 H   0  0  0  0  0  0  0  0  0  0  0  0
  -18.4244   38.6457   -7.1148 H   0  0  0  0  0  0  0  0  0  0  0  0
  -20.8284   37.7387   -4.2161 H   0  0  0  0  0  0  0  0  0  0  0  0
  1 18  1  0  0  0  0
  2 18  2  0  0  0  0
  3 19  1  0  0  0  0
  3 20  1  0  0  0  0
  4 22  1  0  0  0  0
  5  8  1  0  0  0  0
  5  9  2  0  0  0  0
  6 21  1  0  0  0  0
  6 23  1  0  0  0  0
  7 21  1  0  0  0  0
  7 24  2  0  0  0  0
  8 21  2  0  0  0  0
  9 24  1  0  0  0  0
 10 15  1  0  0  0  0
 10 20  2  0  0  0  0
 11 13  1  0  0  0  0
 11 22  1  0  0  0  0
 12 14  1  0  0  0  0
 12 22  1  0  0  0  0
 13 23  1  0  0  0  0
 14 23  1  0  0  0  0
 15 26  2  0  0  0  0
 16 19  2  0  0  0  0
 16 25  1  0  0  0  0
 17 25  2  0  0  0  0
 17 26  1  0  0  0  0
 18 19  1  0  0  0  0
 20 25  1  0  0  0  0
 24 26  1  0  0  0  0
  1 27  1  0  0  0  0
  4 28  1  0  0  0  0
  4 29  1  0  0  0  0
  6 30  1  0  0  0  0
  8 31  1  0  0  0  0
  9 32  1  0  0  0  0
 10 33  1  0  0  0  0
 11 34  1  0  0  0  0
 11 35  1  0  0  0  0
 12 36  1  0  0  0  0
 12 37  1  0  0  0  0
 13 38  1  0  0  0  0
 13 39  1  0  0  0  0
 14 40  1  0  0  0  0
 14 41  1  0  0  0  0
 15 42  1  0  0  0  0
 16 43  1  0  0  0  0
 17 44  1  0  0  0  0
 22 45  1  0  0  0  0
 23 46  1  0  0  0  0
M  END
> <pdb_id>
3R04

> <uniprot_id>
P11309

> <usmiles>
O=C(O)C=1Oc2c(cc(c3nc(NC4CCC(N)CC4)cnc3)cc2)C1

$$$$
UP6_A_229
          07202404143D 1   1.00000     0.00000     0
            
 33 34  0  0  0  0            999 V2000
   24.9387   -2.3614    8.3876 P   0  0  0  0  0  0  0  0  0  0  0  0
   24.1433   -3.0998    7.3764 O   0  0  0  0  0  0  0  0  0  0  0  0
   25.7221   -3.2980    9.4181 O   0  0  0  0  0  0  0  0  0  0  0  0
   25.9130   -1.3092    7.6888 O   0  0  0  0  0  0  0  0  0  0  0  0
   17.8155    1.8138    9.5169 O   0  0  0  0  0  0  0  0  0  0  0  0
   16.6909    0.2287    5.5843 O   0  0  0  0  0  0  0  0  0  0  0  0
   19.2723   -1.5412   11.5365 O   0  0  0  0  0  0  0  0  0  0  0  0
   21.5184   -0.4254   12.2513 O   0  0  0  0  0  0  0  0  0  0  0  0
   23.9391   -1.5678    9.3584 O   0  0  0  0  0  0  0  0  0  0  0  0
   21.1087    0.7019    9.4583 O   0  0  0  0  0  0  0  0  0  0  0  0
   19.2893   -0.7991    7.6942 N   0  0  0  0  0  0  0  0  0  0  0  0
   17.1922    1.0593    7.5473 N   0  0  0  0  0  0  0  0  0  0  0  0
   18.9958    0.1180    8.7018 N   0  0  0  0  0  0  0  0  0  0  0  0
   22.8343   -0.8955    8.7543 C   0  0  0  0  0  0  0  0  0  0  0  0
   18.5093   -0.7805    6.6508 C   0  0  0  0  0  0  0  0  0  0  0  0
   17.9972    1.0117    8.6237 C   0  0  0  0  0  0  0  0  0  0  0  0
   17.4187    0.1912    6.5579 C   0  0  0  0  0  0  0  0  0  0  0  0
   20.1444   -1.2596   10.4471 C   0  0  2  0  0  0  0  0  0  0  0  0
   21.5745   -1.0720   10.9665 C   0  0  1  0  0  0  0  0  0  0  0  0
   19.8431    0.1382    9.8782 C   0  0  1  0  0  0  0  0  0  0  0  0
   22.2001   -0.1293    9.9243 C   0  0  2  0  0  0  0  0  0  0  0  0
   23.6853   -2.4481    6.7718 H   0  0  0  0  0  0  0  0  0  0  0  0
   26.2318   -2.7296   10.0640 H   0  0  0  0  0  0  0  0  0  0  0  0
   18.3405   -1.6630   11.1946 H   0  0  0  0  0  0  0  0  0  0  0  0
   22.4465   -0.2974   12.6009 H   0  0  0  0  0  0  0  0  0  0  0  0
   16.4473    1.7240    7.4896 H   0  0  0  0  0  0  0  0  0  0  0  0
   22.1877   -1.5502    8.3629 H   0  0  0  0  0  0  0  0  0  0  0  0
   23.1447   -0.2667    8.0413 H   0  0  0  0  0  0  0  0  0  0  0  0
   18.6567   -1.4344    5.9086 H   0  0  0  0  0  0  0  0  0  0  0  0
   20.0959   -1.9659    9.7409 H   0  0  0  0  0  0  0  0  0  0  0  0
   22.0645   -1.9425   11.0149 H   0  0  0  0  0  0  0  0  0  0  0  0
   19.4314    0.7130   10.5854 H   0  0  0  0  0  0  0  0  0  0  0  0
   22.8923    0.4430   10.3638 H   0  0  0  0  0  0  0  0  0  0  0  0
  1  2  1  0  0  0  0
  1  3  1  0  0  0  0
  1  4  2  0  0  0  0
  1  9  1  0  0  0  0
  5 16  2  0  0  0  0
  6 17  2  0  0  0  0
  7 18  1  0  0  0  0
  8 19  1  0  0  0  0
  9 14  1  0  0  0  0
 10 20  1  0  0  0  0
 10 21  1  0  0  0  0
 11 13  1  0  0  0  0
 11 15  2  0  0  0  0
 12 16  1  0  0  0  0
 12 17  1  0  0  0  0
 13 16  1  0  0  0  0
 13 20  1  0  0  0  0
 14 21  1  0  0  0  0
 15 17  1  0  0  0  0
 18 19  1  0  0  0  0
 18 20  1  0  0  0  0
 19 21  1  0  0  0  0
  2 22  1  0  0  0  0
  3 23  1  0  0  0  0
  7 24  1  0  0  0  0
  8 25  1  0  0  0  0
 12 26  1  0  0  0  0
 14 27  1  0  0  0  0
 14 28  1  0  0  0  0
 15 29  1  0  0  0  0
 18 30  1  0  0  0  0
 19 31  1  0  0  0  0
 20 32  1  0  0  0  0
 21 33  1  0  0  0  0
M  END
> <pdb_id>
3PBU

> <uniprot_id>
O26232

> <usmiles>
P(=O)(OC[C@H]1O[C@@H](N2N=CC(=O)NC2=O)[C@H](O)[C@@H]1O)(O)O

$$$$
UP6_A_229
          07202404173D 1   1.00000     0.00000     0
            
 33 34  0  0  0  0            999 V2000
   -4.7745    1.9392   25.1978 P   0  0  0  0  0  0  0  0  0  0  0  0
   -5.2849    2.6105   23.9838 O   0  0  0  0  0  0  0  0  0  0  0  0
   -4.3165    2.9848   26.3053 O   0  0  0  0  0  0  0  0  0  0  0  0
   -5.8345    0.9023   25.7541 O   0  0  0  0  0  0  0  0  0  0  0  0
   -0.0837   -2.5432   19.8420 O   0  0  0  0  0  0  0  0  0  0  0  0
   -2.8870   -1.0666   16.7628 O   0  0  0  0  0  0  0  0  0  0  0  0
    0.8396    1.1142   21.9069 O   0  0  0  0  0  0  0  0  0  0  0  0
    0.3378    0.1187   24.2868 O   0  0  0  0  0  0  0  0  0  0  0  0
   -3.4204    1.1251   24.8626 O   0  0  0  0  0  0  0  0  0  0  0  0
   -1.8162   -1.2179   22.6067 O   0  0  0  0  0  0  0  0  0  0  0  0
   -2.3655    0.1053   20.0362 N   0  0  0  0  0  0  0  0  0  0  0  0
   -1.4622   -1.8450   18.2717 N   0  0  0  0  0  0  0  0  0  0  0  0
   -1.3571   -0.7949   20.3521 N   0  0  0  0  0  0  0  0  0  0  0  0
   -3.3283    0.4604   23.6029 C   0  0  0  0  0  0  0  0  0  0  0  0
   -2.8918    0.0435   18.8296 C   0  0  0  0  0  0  0  0  0  0  0  0
   -0.9314   -1.7519   19.4962 C   0  0  0  0  0  0  0  0  0  0  0  0
   -2.4175   -0.9835   17.8958 C   0  0  0  0  0  0  0  0  0  0  0  0
   -0.5227    0.7380   22.1264 C   0  0  2  0  0  0  0  0  0  0  0  0
   -0.7943    0.6841   23.6389 C   0  0  1  0  0  0  0  0  0  0  0  0
   -0.7957   -0.7234   21.6975 C   0  0  1  0  0  0  0  0  0  0  0  0
   -1.9925   -0.2836   23.7061 C   0  0  2  0  0  0  0  0  0  0  0  0
   -5.5618    1.9220   23.3136 H   0  0  0  0  0  0  0  0  0  0  0  0
   -3.9787    2.4935   27.1081 H   0  0  0  0  0  0  0  0  0  0  0  0
    1.0211    1.1506   20.9242 H   0  0  0  0  0  0  0  0  0  0  0  0
    0.1725    0.0786   25.2723 H   0  0  0  0  0  0  0  0  0  0  0  0
   -1.1477   -2.5537   17.6402 H   0  0  0  0  0  0  0  0  0  0  0  0
   -3.3168    1.1176   22.8492 H   0  0  0  0  0  0  0  0  0  0  0  0
   -4.0872   -0.1783   23.4767 H   0  0  0  0  0  0  0  0  0  0  0  0
   -3.6049    0.6882   18.5543 H   0  0  0  0  0  0  0  0  0  0  0  0
   -1.1490    1.3702   21.6703 H   0  0  0  0  0  0  0  0  0  0  0  0
   -1.0226    1.5850   24.0081 H   0  0  0  0  0  0  0  0  0  0  0  0
    0.0363   -1.2742   21.7646 H   0  0  0  0  0  0  0  0  0  0  0  0
   -1.9618   -0.7847   24.5710 H   0  0  0  0  0  0  0  0  0  0  0  0
  1  2  1  0  0  0  0
  1  3  1  0  0  0  0
  1  4  2  0  0  0  0
  1  9  1  0  0  0  0
  5 16  2  0  0  0  0
  6 17  2  0  0  0  0
  7 18  1  0  0  0  0
  8 19  1  0  0  0  0
  9 14  1  0  0  0  0
 10 20  1  0  0  0  0
 10 21  1  0  0  0  0
 11 13  1  0  0  0  0
 11 15  2  0  0  0  0
 12 16  1  0  0  0  0
 12 17  1  0  0  0  0
 13 16  1  0  0  0  0
 13 20  1  0  0  0  0
 14 21  1  0  0  0  0
 15 17  1  0  0  0  0
 18 19  1  0  0  0  0
 18 20  1  0  0  0  0
 19 21  1  0  0  0  0
  2 22  1  0  0  0  0
  3 23  1  0  0  0  0
  7 24  1  0  0  0  0
  8 25  1  0  0  0  0
 12 26  1  0  0  0  0
 14 27  1  0  0  0  0
 14 28  1  0  0  0  0
 15 29  1  0  0  0  0
 18 30  1  0  0  0  0
 19 31  1  0  0  0  0
 20 32  1  0  0  0  0
 21 33  1  0  0  0  0
M  END
> <pdb_id>
3PC0

> <uniprot_id>
O26232

> <usmiles>
P(=O)(OC[C@H]1O[C@@H](N2N=CC(=O)NC2=O)[C@H](O)[C@@H]1O)(O)O

$$$$
UP6_A_229
          07202402273D 1   1.00000     0.00000     0
            
 33 34  0  0  0  0            999 V2000
   25.0429   -2.4242    8.4130 P   0  0  0  0  0  0  0  0  0  0  0  0
   24.3259   -3.1181    7.3237 O   0  0  0  0  0  0  0  0  0  0  0  0
   26.0495   -3.2680    9.3107 O   0  0  0  0  0  0  0  0  0  0  0  0
   25.9311   -1.2636    7.7569 O   0  0  0  0  0  0  0  0  0  0  0  0
   20.0531   -1.2555    7.4702 O   0  0  0  0  0  0  0  0  0  0  0  0
   16.3631    0.5501    5.7597 O   0  0  0  0  0  0  0  0  0  0  0  0
   19.1349   -1.6827   11.3739 O   0  0  0  0  0  0  0  0  0  0  0  0
   21.4613   -0.5811   12.2293 O   0  0  0  0  0  0  0  0  0  0  0  0
   24.0031   -1.6692    9.3626 O   0  0  0  0  0  0  0  0  0  0  0  0
   21.0954    0.5535    9.3840 O   0  0  0  0  0  0  0  0  0  0  0  0
   17.8057    1.0181    8.8666 N   0  0  0  0  0  0  0  0  0  0  0  0
   18.2335   -0.4047    6.5543 N   0  0  0  0  0  0  0  0  0  0  0  0
   18.8946    0.1521    8.7405 N   0  0  0  0  0  0  0  0  0  0  0  0
   22.9382   -0.8940    8.8382 C   0  0  0  0  0  0  0  0  0  0  0  0
   16.9541    1.1529    7.8980 C   0  0  0  0  0  0  0  0  0  0  0  0
   19.0988   -0.5089    7.5851 C   0  0  0  0  0  0  0  0  0  0  0  0
   17.1670    0.4115    6.6611 C   0  0  0  0  0  0  0  0  0  0  0  0
   20.0915   -1.3238   10.3980 C   0  0  2  0  0  0  0  0  0  0  0  0
   21.5098   -1.1938   10.9416 C   0  0  1  0  0  0  0  0  0  0  0  0
   19.8453    0.0817    9.8549 C   0  0  1  0  0  0  0  0  0  0  0  0
   22.1642   -0.2370    9.9513 C   0  0  2  0  0  0  0  0  0  0  0  0
   23.7330   -2.4683    6.8479 H   0  0  0  0  0  0  0  0  0  0  0  0
   26.4589   -2.6726   10.0020 H   0  0  0  0  0  0  0  0  0  0  0  0
   18.2327   -1.7492   10.9477 H   0  0  0  0  0  0  0  0  0  0  0  0
   22.3891   -0.4928   12.5917 H   0  0  0  0  0  0  0  0  0  0  0  0
   18.3833   -0.9300    5.7166 H   0  0  0  0  0  0  0  0  0  0  0  0
   22.3250   -1.4875    8.3169 H   0  0  0  0  0  0  0  0  0  0  0  0
   23.3109   -0.1882    8.2357 H   0  0  0  0  0  0  0  0  0  0  0  0
   16.1631    1.7565    7.9981 H   0  0  0  0  0  0  0  0  0  0  0  0
   20.0751   -1.9849    9.6479 H   0  0  0  0  0  0  0  0  0  0  0  0
   21.9786   -2.0767   10.9688 H   0  0  0  0  0  0  0  0  0  0  0  0
   19.5281    0.6717   10.5974 H   0  0  0  0  0  0  0  0  0  0  0  0
   22.7796    0.3708   10.4531 H   0  0  0  0  0  0  0  0  0  0  0  0
  1  2  1  0  0  0  0
  1  3  1  0  0  0  0
  1  4  2  0  0  0  0
  1  9  1  0  0  0  0
  5 16  2  0  0  0  0
  6 17  2  0  0  0  0
  7 18  1  0  0  0  0
  8 19  1  0  0  0  0
  9 14  1  0  0  0  0
 10 20  1  0  0  0  0
 10 21  1  0  0  0  0
 11 13  1  0  0  0  0
 11 15  2  0  0  0  0
 12 16  1  0  0  0  0
 12 17  1  0  0  0  0
 13 16  1  0  0  0  0
 13 20  1  0  0  0  0
 14 21  1  0  0  0  0
 15 17  1  0  0  0  0
 18 19  1  0  0  0  0
 18 20  1  0  0  0  0
 19 21  1  0  0  0  0
  2 22  1  0  0  0  0
  3 23  1  0  0  0  0
  7 24  1  0  0  0  0
  8 25  1  0  0  0  0
 12 26  1  0  0  0  0
 14 27  1  0  0  0  0
 14 28  1  0  0  0  0
 15 29  1  0  0  0  0
 18 30  1  0  0  0  0
 19 31  1  0  0  0  0
 20 32  1  0  0  0  0
 21 33  1  0  0  0  0
M  END
> <pdb_id>
3SY5

> <uniprot_id>
O26232

> <usmiles>
P(=O)(OC[C@H]1O[C@@H](N2N=CC(=O)NC2=O)[C@H](O)[C@@H]1O)(O)O

$$$$
UP6_A_301
          07192421183D 1   1.00000     0.00000     0
            
 33 34  0  0  0  0            999 V2000
   56.7556   90.0787   91.3621 P   0  0  0  0  0  0  0  0  0  0  0  0
   56.0916   89.2872   92.4494 O   0  0  0  0  0  0  0  0  0  0  0  0
   56.1192   89.9353   90.0081 O   0  0  0  0  0  0  0  0  0  0  0  0
   56.9207   91.6106   91.7015 O   0  0  0  0  0  0  0  0  0  0  0  0
   64.2589   87.2658   94.0068 O   0  0  0  0  0  0  0  0  0  0  0  0
   62.0922   87.2429   97.9347 O   0  0  0  0  0  0  0  0  0  0  0  0
   61.4769   85.4009   91.2134 O   0  0  0  0  0  0  0  0  0  0  0  0
   61.2398   87.4588   89.5503 O   0  0  0  0  0  0  0  0  0  0  0  0
   58.2597   89.5316   91.0714 O   0  0  0  0  0  0  0  0  0  0  0  0
   61.5630   88.7995   92.2593 O   0  0  0  0  0  0  0  0  0  0  0  0
   60.7616   87.2483   94.6731 N   0  0  0  0  0  0  0  0  0  0  0  0
   63.1527   87.1148   95.9709 N   0  0  0  0  0  0  0  0  0  0  0  0
   61.9764   87.2862   93.9616 N   0  0  0  0  0  0  0  0  0  0  0  0
   59.2393   89.3757   92.0776 C   0  0  0  0  0  0  0  0  0  0  0  0
   60.7422   87.2025   96.0027 C   0  0  0  0  0  0  0  0  0  0  0  0
   63.2244   87.2164   94.5928 C   0  0  0  0  0  0  0  0  0  0  0  0
   61.9846   87.1901   96.7329 C   0  0  0  0  0  0  0  0  0  0  0  0
   60.8580   86.5736   91.7672 C   0  0  2  0  0  0  0  0  0  0  0  0
   60.3827   87.5063   90.6821 C   0  0  1  0  0  0  0  0  0  0  0  0
   61.8692   87.4377   92.5273 C   0  0  1  0  0  0  0  0  0  0  0  0
   60.4750   88.8842   91.3349 C   0  0  2  0  0  0  0  0  0  0  0  0
   56.5735   89.4373   93.3127 H   0  0  0  0  0  0  0  0  0  0  0  0
   56.6191   90.4914   89.3442 H   0  0  0  0  0  0  0  0  0  0  0  0
   61.7811   84.8028   91.9549 H   0  0  0  0  0  0  0  0  0  0  0  0
   60.9008   88.0857   88.8489 H   0  0  0  0  0  0  0  0  0  0  0  0
   64.0115   86.9755   96.4639 H   0  0  0  0  0  0  0  0  0  0  0  0
   58.9445   88.7034   92.7567 H   0  0  0  0  0  0  0  0  0  0  0  0
   59.4229   90.2483   92.5303 H   0  0  0  0  0  0  0  0  0  0  0  0
   59.8707   87.1769   96.4924 H   0  0  0  0  0  0  0  0  0  0  0  0
   60.0983   86.3179   92.3651 H   0  0  0  0  0  0  0  0  0  0  0  0
   59.4396   87.2984   90.4227 H   0  0  0  0  0  0  0  0  0  0  0  0
   62.7720   87.2525   92.1390 H   0  0  0  0  0  0  0  0  0  0  0  0
   60.7089   89.5541   90.6302 H   0  0  0  0  0  0  0  0  0  0  0  0
  1  2  1  0  0  0  0
  1  3  1  0  0  0  0
  1  4  2  0  0  0  0
  1  9  1  0  0  0  0
  5 16  2  0  0  0  0
  6 17  2  0  0  0  0
  7 18  1  0  0  0  0
  8 19  1  0  0  0  0
  9 14  1  0  0  0  0
 10 20  1  0  0  0  0
 10 21  1  0  0  0  0
 11 13  1  0  0  0  0
 11 15  2  0  0  0  0
 12 16  1  0  0  0  0
 12 17  1  0  0  0  0
 13 16  1  0  0  0  0
 13 20  1  0  0  0  0
 14 21  1  0  0  0  0
 15 17  1  0  0  0  0
 18 19  1  0  0  0  0
 18 20  1  0  0  0  0
 19 21  1  0  0  0  0
  2 22  1  0  0  0  0
  3 23  1  0  0  0  0
  7 24  1  0  0  0  0
  8 25  1  0  0  0  0
 12 26  1  0  0  0  0
 14 27  1  0  0  0  0
 14 28  1  0  0  0  0
 15 29  1  0  0  0  0
 18 30  1  0  0  0  0
 19 31  1  0  0  0  0
 20 32  1  0  0  0  0
 21 33  1  0  0  0  0
M  END
> <pdb_id>
3GDL

> <uniprot_id>
P03962

> <usmiles>
P(=O)(OC[C@H]1O[C@@H](N2N=CC(=O)NC2=O)[C@H](O)[C@@H]1O)(O)O

$$$$
UP6_A_5001
          07192419073D 1   1.00000     0.00000     0
            
 33 34  0  0  0  0            999 V2000
   28.3670   50.9930   22.0520 P   0  0  0  0  0  0  0  0  0  0  0  0
   27.6020   50.0680   21.1340 O   0  0  0  0  0  0  0  0  0  0  0  0
   29.2160   51.8420   21.1710 O   0  0  0  0  0  0  0  0  0  0  0  0
   27.4900   52.0630   22.9590 O   0  0  0  0  0  0  0  0  0  0  0  0
   27.5470   46.4360   23.9770 O   0  0  0  0  0  0  0  0  0  0  0  0
   26.0420   42.8110   26.2990 O   0  0  0  0  0  0  0  0  0  0  0  0
   31.6320   45.6680   23.6470 O   0  0  0  0  0  0  0  0  0  0  0  0
   32.4980   48.1710   24.4760 O   0  0  0  0  0  0  0  0  0  0  0  0
   29.3230   50.3020   23.1460 O   0  0  0  0  0  0  0  0  0  0  0  0
   29.6700   47.7800   25.7900 O   0  0  0  0  0  0  0  0  0  0  0  0
   29.1210   44.5470   26.5320 N   0  0  0  0  0  0  0  0  0  0  0  0
   26.8010   44.6130   25.1510 N   0  0  0  0  0  0  0  0  0  0  0  0
   28.9370   45.5270   25.5640 N   0  0  0  0  0  0  0  0  0  0  0  0
   28.8720   49.3630   24.1540 C   0  0  0  0  0  0  0  0  0  0  0  0
   28.2100   43.6220   26.8270 C   0  0  0  0  0  0  0  0  0  0  0  0
   27.7270   45.5850   24.8240 C   0  0  0  0  0  0  0  0  0  0  0  0
   26.9500   43.5940   26.1300 C   0  0  0  0  0  0  0  0  0  0  0  0
   30.6340   46.6540   23.9600 C   0  0  2  0  0  0  0  0  0  0  0  0
   31.1530   48.0940   23.9730 C   0  0  1  0  0  0  0  0  0  0  0  0
   30.0180   46.4930   25.3460 C   0  0  1  0  0  0  0  0  0  0  0  0
   30.1100   48.7720   24.8460 C   0  0  2  0  0  0  0  0  0  0  0  0
   27.0119   49.4715   21.6781 H   0  0  0  0  0  0  0  0  0  0  0  0
   28.1104   52.6123   23.5188 H   0  0  0  0  0  0  0  0  0  0  0  0
   31.2169   44.7583   23.6584 H   0  0  0  0  0  0  0  0  0  0  0  0
   32.8022   49.1236   24.4697 H   0  0  0  0  0  0  0  0  0  0  0  0
   25.9374   44.6282   24.6470 H   0  0  0  0  0  0  0  0  0  0  0  0
   28.3433   48.6316   23.7232 H   0  0  0  0  0  0  0  0  0  0  0  0
   28.3016   49.8354   24.8259 H   0  0  0  0  0  0  0  0  0  0  0  0
   28.4016   42.9433   27.5360 H   0  0  0  0  0  0  0  0  0  0  0  0
   29.9029   46.5888   23.2809 H   0  0  0  0  0  0  0  0  0  0  0  0
   31.1168   48.4735   23.0485 H   0  0  0  0  0  0  0  0  0  0  0  0
   30.7663   46.1972   25.9398 H   0  0  0  0  0  0  0  0  0  0  0  0
   30.5608   49.5056   25.3546 H   0  0  0  0  0  0  0  0  0  0  0  0
  1  2  1  0  0  0  0
  1  3  2  0  0  0  0
  1  4  1  0  0  0  0
  1  9  1  0  0  0  0
  5 16  2  0  0  0  0
  6 17  2  0  0  0  0
  7 18  1  0  0  0  0
  8 19  1  0  0  0  0
  9 14  1  0  0  0  0
 10 20  1  0  0  0  0
 10 21  1  0  0  0  0
 11 13  1  0  0  0  0
 11 15  2  0  0  0  0
 12 16  1  0  0  0  0
 12 17  1  0  0  0  0
 13 16  1  0  0  0  0
 13 20  1  0  0  0  0
 14 21  1  0  0  0  0
 15 17  1  0  0  0  0
 18 19  1  0  0  0  0
 18 20  1  0  0  0  0
 19 21  1  0  0  0  0
  2 22  1  0  0  0  0
  4 23  1  0  0  0  0
  7 24  1  0  0  0  0
  8 25  1  0  0  0  0
 12 26  1  0  0  0  0
 14 27  1  0  0  0  0
 14 28  1  0  0  0  0
 15 29  1  0  0  0  0
 18 30  1  0  0  0  0
 19 31  1  0  0  0  0
 20 32  1  0  0  0  0
 21 33  1  0  0  0  0
M  END
> <pdb_id>
1LOS

> <uniprot_id>
O26232

> <usmiles>
P(=O)(OC[C@H]1O[C@@H](N2N=CC(=O)NC2=O)[C@H](O)[C@@H]1O)(O)O

$$$$
UP6_A_501
          07202408053D 1   1.00000     0.00000     0
            
 33 34  0  0  0  0            999 V2000
   12.2762   13.3434   42.0975 P   0  0  0  0  0  0  0  0  0  0  0  0
   12.5774   14.7725   41.6953 O   0  0  0  0  0  0  0  0  0  0  0  0
   13.4375   12.6498   42.7702 O   0  0  0  0  0  0  0  0  0  0  0  0
   11.0121   13.2350   42.9041 O   0  0  0  0  0  0  0  0  0  0  0  0
   14.4814    9.9762   34.7075 O   0  0  0  0  0  0  0  0  0  0  0  0
   18.4479    9.6030   36.7672 O   0  0  0  0  0  0  0  0  0  0  0  0
   11.7308    8.4134   37.6371 O   0  0  0  0  0  0  0  0  0  0  0  0
   10.1310   10.4662   37.9341 O   0  0  0  0  0  0  0  0  0  0  0  0
   11.8975   12.5387   40.7585 O   0  0  0  0  0  0  0  0  0  0  0  0
   12.8834   11.7551   37.3624 O   0  0  0  0  0  0  0  0  0  0  0  0
   15.2400   10.2043   38.1508 N   0  0  0  0  0  0  0  0  0  0  0  0
   16.4920    9.7252   35.6939 N   0  0  0  0  0  0  0  0  0  0  0  0
   14.5323   10.1295   36.9728 N   0  0  0  0  0  0  0  0  0  0  0  0
   12.8426   12.3091   39.7225 C   0  0  0  0  0  0  0  0  0  0  0  0
   16.5489   10.0285   38.0803 C   0  0  0  0  0  0  0  0  0  0  0  0
   15.1792    9.9461   35.7244 C   0  0  0  0  0  0  0  0  0  0  0  0
   17.1850    9.7760   36.8289 C   0  0  0  0  0  0  0  0  0  0  0  0
   12.3579    9.5902   38.1493 C   0  0  2  0  0  0  0  0  0  0  0  0
   11.3325   10.5577   38.6973 C   0  0  1  0  0  0  0  0  0  0  0  0
   13.1001   10.3829   37.0668 C   0  0  1  0  0  0  0  0  0  0  0  0
   12.0171   11.9079   38.5058 C   0  0  2  0  0  0  0  0  0  0  0  0
   11.7720   15.1725   41.2579 H   0  0  0  0  0  0  0  0  0  0  0  0
   13.1745   11.7150   43.0091 H   0  0  0  0  0  0  0  0  0  0  0  0
   12.4287    7.7915   37.2817 H   0  0  0  0  0  0  0  0  0  0  0  0
    9.4551   11.1067   38.2985 H   0  0  0  0  0  0  0  0  0  0  0  0
   16.9515    9.5238   34.8289 H   0  0  0  0  0  0  0  0  0  0  0  0
   13.4703   11.5736   39.9777 H   0  0  0  0  0  0  0  0  0  0  0  0
   13.3637   13.1413   39.5331 H   0  0  0  0  0  0  0  0  0  0  0  0
   17.0991   10.0731   38.9142 H   0  0  0  0  0  0  0  0  0  0  0  0
   12.9982    9.3374   38.8747 H   0  0  0  0  0  0  0  0  0  0  0  0
   11.1555   10.3807   39.6655 H   0  0  0  0  0  0  0  0  0  0  0  0
   12.6826   10.1790   36.1812 H   0  0  0  0  0  0  0  0  0  0  0  0
   11.3307   12.6104   38.3174 H   0  0  0  0  0  0  0  0  0  0  0  0
  1  2  1  0  0  0  0
  1  3  1  0  0  0  0
  1  4  2  0  0  0  0
  1  9  1  0  0  0  0
  5 16  2  0  0  0  0
  6 17  2  0  0  0  0
  7 18  1  0  0  0  0
  8 19  1  0  0  0  0
  9 14  1  0  0  0  0
 10 20  1  0  0  0  0
 10 21  1  0  0  0  0
 11 13  1  0  0  0  0
 11 15  2  0  0  0  0
 12 16  1  0  0  0  0
 12 17  1  0  0  0  0
 13 16  1  0  0  0  0
 13 20  1  0  0  0  0
 14 21  1  0  0  0  0
 15 17  1  0  0  0  0
 18 19  1  0  0  0  0
 18 20  1  0  0  0  0
 19 21  1  0  0  0  0
  2 22  1  0  0  0  0
  3 23  1  0  0  0  0
  7 24  1  0  0  0  0
  8 25  1  0  0  0  0
 12 26  1  0  0  0  0
 14 27  1  0  0  0  0
 14 28  1  0  0  0  0
 15 29  1  0  0  0  0
 18 30  1  0  0  0  0
 19 31  1  0  0  0  0
 20 32  1  0  0  0  0
 21 33  1  0  0  0  0
M  END
> <pdb_id>
6ZX1

> <uniprot_id>
P11172

> <usmiles>
P(=O)(OC[C@H]1O[C@@H](N2N=CC(=O)NC2=O)[C@H](O)[C@@H]1O)(O)O

$$$$
UP6_B_229
          07202402263D 1   1.00000     0.00000     0
            
 33 34  0  0  0  0            999 V2000
   39.0045   34.7040   35.3177 P   0  0  0  0  0  0  0  0  0  0  0  0
   40.2808   34.9028   34.5450 O   0  0  0  0  0  0  0  0  0  0  0  0
   37.7759   34.5739   34.4665 O   0  0  0  0  0  0  0  0  0  0  0  0
   39.0858   33.4945   36.3279 O   0  0  0  0  0  0  0  0  0  0  0  0
   42.2550   38.4725   36.2979 O   0  0  0  0  0  0  0  0  0  0  0  0
   45.5867   40.8750   38.1138 O   0  0  0  0  0  0  0  0  0  0  0  0
   39.1062   41.2980   35.8947 O   0  0  0  0  0  0  0  0  0  0  0  0
   37.3200   39.6529   36.9769 O   0  0  0  0  0  0  0  0  0  0  0  0
   38.6643   36.0196   36.1975 O   0  0  0  0  0  0  0  0  0  0  0  0
   39.9423   38.7175   38.2077 O   0  0  0  0  0  0  0  0  0  0  0  0
   42.1057   41.2460   38.5126 N   0  0  0  0  0  0  0  0  0  0  0  0
   43.9268   39.7048   37.1901 N   0  0  0  0  0  0  0  0  0  0  0  0
   41.6866   40.1916   37.6838 N   0  0  0  0  0  0  0  0  0  0  0  0
   39.6830   36.7654   36.8513 C   0  0  0  0  0  0  0  0  0  0  0  0
   43.4006   41.5110   38.6995 C   0  0  0  0  0  0  0  0  0  0  0  0
   42.5951   39.3736   36.9900 C   0  0  0  0  0  0  0  0  0  0  0  0
   44.3959   40.7245   38.0196 C   0  0  0  0  0  0  0  0  0  0  0  0
   39.5835   39.9851   36.2173 C   0  0  2  0  0  0  0  0  0  0  0  0
   38.4448   39.0095   36.4087 C   0  0  1  0  0  0  0  0  0  0  0  0
   40.2547   39.9705   37.5922 C   0  0  1  0  0  0  0  0  0  0  0  0
   38.9941   37.9979   37.4126 C   0  0  2  0  0  0  0  0  0  0  0  0
   41.0477   34.9799   35.1821 H   0  0  0  0  0  0  0  0  0  0  0  0
   36.9761   34.4455   35.0530 H   0  0  0  0  0  0  0  0  0  0  0  0
   39.8838   41.9154   35.7755 H   0  0  0  0  0  0  0  0  0  0  0  0
   36.5806   38.9899   37.0941 H   0  0  0  0  0  0  0  0  0  0  0  0
   44.6102   39.1663   36.6972 H   0  0  0  0  0  0  0  0  0  0  0  0
   40.3942   37.0297   36.1998 H   0  0  0  0  0  0  0  0  0  0  0  0
   40.0902   36.2271   37.5891 H   0  0  0  0  0  0  0  0  0  0  0  0
   43.6781   42.2533   39.3095 H   0  0  0  0  0  0  0  0  0  0  0  0
   40.2141   39.6569   35.5140 H   0  0  0  0  0  0  0  0  0  0  0  0
   38.2052   38.5643   35.5458 H   0  0  0  0  0  0  0  0  0  0  0  0
   39.8141   40.6821   38.1394 H   0  0  0  0  0  0  0  0  0  0  0  0
   38.2452   37.7003   38.0046 H   0  0  0  0  0  0  0  0  0  0  0  0
  1  2  1  0  0  0  0
  1  3  1  0  0  0  0
  1  4  2  0  0  0  0
  1  9  1  0  0  0  0
  5 16  2  0  0  0  0
  6 17  2  0  0  0  0
  7 18  1  0  0  0  0
  8 19  1  0  0  0  0
  9 14  1  0  0  0  0
 10 20  1  0  0  0  0
 10 21  1  0  0  0  0
 11 13  1  0  0  0  0
 11 15  2  0  0  0  0
 12 16  1  0  0  0  0
 12 17  1  0  0  0  0
 13 16  1  0  0  0  0
 13 20  1  0  0  0  0
 14 21  1  0  0  0  0
 15 17  1  0  0  0  0
 18 19  1  0  0  0  0
 18 20  1  0  0  0  0
 19 21  1  0  0  0  0
  2 22  1  0  0  0  0
  3 23  1  0  0  0  0
  7 24  1  0  0  0  0
  8 25  1  0  0  0  0
 12 26  1  0  0  0  0
 14 27  1  0  0  0  0
 14 28  1  0  0  0  0
 15 29  1  0  0  0  0
 18 30  1  0  0  0  0
 19 31  1  0  0  0  0
 20 32  1  0  0  0  0
 21 33  1  0  0  0  0
M  END
> <pdb_id>
3G1A

> <uniprot_id>
O26232

> <usmiles>
P(=O)(OC[C@H]1O[C@@H](N2N=CC(=O)NC2=O)[C@H](O)[C@@H]1O)(O)O

$$$$
UP6_B_229
          07202404163D 1   1.00000     0.00000     0
            
 33 34  0  0  0  0            999 V2000
   -4.8006    1.9694   25.2645 P   0  0  0  0  0  0  0  0  0  0  0  0
   -5.2936    2.6245   24.0438 O   0  0  0  0  0  0  0  0  0  0  0  0
   -4.3164    2.9878   26.3767 O   0  0  0  0  0  0  0  0  0  0  0  0
   -5.8358    0.9380   25.8546 O   0  0  0  0  0  0  0  0  0  0  0  0
   -0.1457   -2.5581   19.9643 O   0  0  0  0  0  0  0  0  0  0  0  0
   -3.0337   -1.1360   16.9412 O   0  0  0  0  0  0  0  0  0  0  0  0
    0.7920    1.1092   21.9381 O   0  0  0  0  0  0  0  0  0  0  0  0
    0.3370    0.1856   24.4135 O   0  0  0  0  0  0  0  0  0  0  0  0
   -3.4278    1.1903   24.9490 O   0  0  0  0  0  0  0  0  0  0  0  0
   -1.8073   -1.2117   22.7517 O   0  0  0  0  0  0  0  0  0  0  0  0
   -2.4433    0.0825   20.1562 N   0  0  0  0  0  0  0  0  0  0  0  0
   -1.5377   -1.8728   18.4074 N   0  0  0  0  0  0  0  0  0  0  0  0
   -1.4174   -0.8118   20.4823 N   0  0  0  0  0  0  0  0  0  0  0  0
   -3.3420    0.4194   23.7444 C   0  0  0  0  0  0  0  0  0  0  0  0
   -2.9964   -0.0053   18.9727 C   0  0  0  0  0  0  0  0  0  0  0  0
   -1.0056   -1.7668   19.6318 C   0  0  0  0  0  0  0  0  0  0  0  0
   -2.5236   -1.0347   18.0476 C   0  0  0  0  0  0  0  0  0  0  0  0
   -0.5640    0.7631   22.2222 C   0  0  2  0  0  0  0  0  0  0  0  0
   -0.8069    0.7269   23.7404 C   0  0  1  0  0  0  0  0  0  0  0  0
   -0.8263   -0.7042   21.8187 C   0  0  1  0  0  0  0  0  0  0  0  0
   -1.9751   -0.2743   23.8423 C   0  0  2  0  0  0  0  0  0  0  0  0
   -5.5822    1.9291   23.3856 H   0  0  0  0  0  0  0  0  0  0  0  0
   -3.9952    2.4803   27.1762 H   0  0  0  0  0  0  0  0  0  0  0  0
    0.9309    1.1278   20.9480 H   0  0  0  0  0  0  0  0  0  0  0  0
    0.1665    0.1675   25.3987 H   0  0  0  0  0  0  0  0  0  0  0  0
   -1.2052   -2.5671   17.7692 H   0  0  0  0  0  0  0  0  0  0  0  0
   -3.3829    1.0117   22.9398 H   0  0  0  0  0  0  0  0  0  0  0  0
   -4.0798   -0.2542   23.7003 H   0  0  0  0  0  0  0  0  0  0  0  0
   -3.7292    0.6207   18.7060 H   0  0  0  0  0  0  0  0  0  0  0  0
   -1.2011    1.3849   21.7667 H   0  0  0  0  0  0  0  0  0  0  0  0
   -1.0568    1.6267   24.0981 H   0  0  0  0  0  0  0  0  0  0  0  0
    0.0174   -1.2384   21.8725 H   0  0  0  0  0  0  0  0  0  0  0  0
   -1.9150   -0.7648   24.7117 H   0  0  0  0  0  0  0  0  0  0  0  0
  1  2  1  0  0  0  0
  1  3  1  0  0  0  0
  1  4  2  0  0  0  0
  1  9  1  0  0  0  0
  5 16  2  0  0  0  0
  6 17  2  0  0  0  0
  7 18  1  0  0  0  0
  8 19  1  0  0  0  0
  9 14  1  0  0  0  0
 10 20  1  0  0  0  0
 10 21  1  0  0  0  0
 11 13  1  0  0  0  0
 11 15  2  0  0  0  0
 12 16  1  0  0  0  0
 12 17  1  0  0  0  0
 13 16  1  0  0  0  0
 13 20  1  0  0  0  0
 14 21  1  0  0  0  0
 15 17  1  0  0  0  0
 18 19  1  0  0  0  0
 18 20  1  0  0  0  0
 19 21  1  0  0  0  0
  2 22  1  0  0  0  0
  3 23  1  0  0  0  0
  7 24  1  0  0  0  0
  8 25  1  0  0  0  0
 12 26  1  0  0  0  0
 14 27  1  0  0  0  0
 14 28  1  0  0  0  0
 15 29  1  0  0  0  0
 18 30  1  0  0  0  0
 19 31  1  0  0  0  0
 20 32  1  0  0  0  0
 21 33  1  0  0  0  0
M  END
> <pdb_id>
3PBY

> <uniprot_id>
O26232

> <usmiles>
P(=O)(OC[C@H]1O[C@@H](N2N=CC(=O)NC2=O)[C@H](O)[C@@H]1O)(O)O

$$$$
UPX_A_600
          07202400203D 1   1.00000     0.00000     0
            
 49 52  0  0  0  0            999 V2000
   49.1997   15.4684  -11.4549 O   0  5  0  0  0  0  0  0  0  0  0  0
   48.8752   17.0303  -13.2250 O   0  0  0  0  0  0  0  0  0  0  0  0
   48.2965   13.7144   -7.4610 O   0  0  0  0  0  0  0  0  0  0  0  0
   46.7199   11.0790    0.7160 N   0  0  0  0  0  0  0  0  0  0  0  0
   46.6881   11.7026   -0.3613 N   0  0  0  0  0  0  0  0  0  0  0  0
   46.2970   11.1400    3.0623 N   0  0  0  0  0  0  0  0  0  0  0  0
   45.7909   12.9102    1.8688 N   0  0  0  0  0  0  0  0  0  0  0  0
   46.6056   14.4413   -6.0741 N   0  0  0  0  0  0  0  0  0  0  0  0
   47.6828   15.6659   -9.3473 N   0  0  0  0  0  0  0  0  0  0  0  0
   48.5238   16.6030  -11.9503 N   0  3  0  0  0  0  0  0  0  0  0  0
   47.7819    9.8316   -1.5778 C   0  0  0  0  0  0  0  0  0  0  0  0
   45.7133   12.0460    4.0403 C   0  0  0  0  0  0  0  0  0  0  0  0
   45.3521   13.2618    3.2191 C   0  0  0  0  0  0  0  0  0  0  0  0
   45.8648   18.9070  -10.9987 C   0  0  0  0  0  0  0  0  0  0  0  0
   45.9234   13.8027   -3.9058 C   0  0  0  0  0  0  0  0  0  0  0  0
   47.7219   12.6302   -4.9370 C   0  0  0  0  0  0  0  0  0  0  0  0
   46.8766   18.3162  -11.7646 C   0  0  0  0  0  0  0  0  0  0  0  0
   45.5312   18.3953   -9.7471 C   0  0  0  0  0  0  0  0  0  0  0  0
   46.0300   13.0282   -2.7520 C   0  0  0  0  0  0  0  0  0  0  0  0
   47.8370   11.8410   -3.7829 C   0  0  0  0  0  0  0  0  0  0  0  0
   46.1065   16.5620   -8.1164 C   0  0  0  0  0  0  0  0  0  0  0  0
   46.2763   11.6759    1.8397 C   0  0  0  0  0  0  0  0  0  0  0  0
   47.3648   14.4790   -7.1874 C   0  0  0  0  0  0  0  0  0  0  0  0
   47.1192   11.2196   -1.5317 C   0  0  0  0  0  0  0  0  0  0  0  0
   46.7583   13.6169   -5.0121 C   0  0  0  0  0  0  0  0  0  0  0  0
   47.0223   15.5835   -8.2029 C   0  0  0  0  0  0  0  0  0  0  0  0
   47.2070   16.6956  -10.0187 C   0  0  0  0  0  0  0  0  0  0  0  0
   47.5555   17.2037  -11.2629 C   0  0  0  0  0  0  0  0  0  0  0  0
   46.9956   12.0165   -2.6809 C   0  0  0  0  0  0  0  0  0  0  0  0
   46.2025   17.2766   -9.2497 C   0  0  0  0  0  0  0  0  0  0  0  0
   46.6650   10.2355    3.2777 H   0  0  0  0  0  0  0  0  0  0  0  0
   45.7329   13.5171    1.0762 H   0  0  0  0  0  0  0  0  0  0  0  0
   45.8482   15.0926   -6.0282 H   0  0  0  0  0  0  0  0  0  0  0  0
   48.4142   15.0545   -9.6493 H   0  0  0  0  0  0  0  0  0  0  0  0
   48.0455    9.6193   -2.5188 H   0  0  0  0  0  0  0  0  0  0  0  0
   48.5949    9.8309   -0.9956 H   0  0  0  0  0  0  0  0  0  0  0  0
   47.1358    9.1427   -1.2492 H   0  0  0  0  0  0  0  0  0  0  0  0
   46.3756   12.2789    4.7524 H   0  0  0  0  0  0  0  0  0  0  0  0
   44.9000   11.6434    4.4604 H   0  0  0  0  0  0  0  0  0  0  0  0
   44.3663   13.4276    3.2419 H   0  0  0  0  0  0  0  0  0  0  0  0
   45.8343   14.0725    3.5510 H   0  0  0  0  0  0  0  0  0  0  0  0
   45.3767   19.7043  -11.3537 H   0  0  0  0  0  0  0  0  0  0  0  0
   45.2246   14.5170   -3.9439 H   0  0  0  0  0  0  0  0  0  0  0  0
   48.3398   12.4778   -5.7083 H   0  0  0  0  0  0  0  0  0  0  0  0
   47.1111   18.6875  -12.6630 H   0  0  0  0  0  0  0  0  0  0  0  0
   44.8114   18.8289   -9.2050 H   0  0  0  0  0  0  0  0  0  0  0  0
   45.4193   13.1943   -1.9778 H   0  0  0  0  0  0  0  0  0  0  0  0
   48.5416   11.1322   -3.7478 H   0  0  0  0  0  0  0  0  0  0  0  0
   45.4767   16.7263   -7.3572 H   0  0  0  0  0  0  0  0  0  0  0  0
  1 10  1  0  0  0  0
  2 10  2  0  0  0  0
  3 23  2  0  0  0  0
  4  5  1  0  0  0  0
  4 22  2  0  0  0  0
  5 24  2  0  0  0  0
  6 12  1  0  0  0  0
  6 22  1  0  0  0  0
  7 13  1  0  0  0  0
  7 22  1  0  0  0  0
  8 23  1  0  0  0  0
  8 25  1  0  0  0  0
  9 26  1  0  0  0  0
  9 27  1  0  0  0  0
 10 28  1  0  0  0  0
 11 24  1  0  0  0  0
 12 13  1  0  0  0  0
 14 17  1  0  0  0  0
 14 18  2  0  0  0  0
 15 19  1  0  0  0  0
 15 25  2  0  0  0  0
 16 20  2  0  0  0  0
 16 25  1  0  0  0  0
 17 28  2  0  0  0  0
 18 30  1  0  0  0  0
 19 29  2  0  0  0  0
 20 29  1  0  0  0  0
 21 26  2  0  0  0  0
 21 30  1  0  0  0  0
 23 26  1  0  0  0  0
 24 29  1  0  0  0  0
 27 28  1  0  0  0  0
 27 30  2  0  0  0  0
  6 31  1  0  0  0  0
  7 32  1  0  0  0  0
  8 33  1  0  0  0  0
  9 34  1  0  0  0  0
 11 35  1  0  0  0  0
 11 36  1  0  0  0  0
 11 37  1  0  0  0  0
 12 38  1  0  0  0  0
 12 39  1  0  0  0  0
 13 40  1  0  0  0  0
 13 41  1  0  0  0  0
 14 42  1  0  0  0  0
 15 43  1  0  0  0  0
 16 44  1  0  0  0  0
 17 45  1  0  0  0  0
 18 46  1  0  0  0  0
 19 47  1  0  0  0  0
 20 48  1  0  0  0  0
 21 49  1  0  0  0  0
M  CHG  2   1  -1  10   1
M  END
> <pdb_id>
2YCQ

> <uniprot_id>
O96017

> <usmiles>
[O-][N+](=O)c1c2NC(C(=O)Nc3ccc(cc3)C(=NN=C4NCCN4)C)=Cc2ccc1

$$$$
URC_A_401
          07202417253D 1   1.00000     0.00000     0
            
 16 17  0  0  0  0            999 V2000
   27.5700   27.4420   37.6050 O   0  0  0  0  0  0  0  0  0  0  0  0
   33.4530   24.5370   39.3410 O   0  0  0  0  0  0  0  0  0  0  0  0
   31.3760   27.0800   35.3250 O   0  0  0  0  0  0  0  0  0  0  0  0
   29.4820   27.2060   36.5280 N   0  0  0  0  0  0  0  0  0  0  0  0
   29.2480   26.3390   38.7170 N   0  0  0  0  0  0  0  0  0  0  0  0
   31.3000   25.2610   39.5180 N   0  0  0  0  0  0  0  0  0  0  0  0
   32.5120   25.5850   37.5920 N   0  0  0  0  0  0  0  0  0  0  0  0
   28.6980   27.0120   37.6430 C   0  0  0  0  0  0  0  0  0  0  0  0
   32.4770   25.0990   38.8330 C   0  0  0  0  0  0  0  0  0  0  0  0
   30.7700   26.8050   36.3310 C   0  0  0  0  0  0  0  0  0  0  0  0
   30.5290   25.9640   38.6180 C   0  0  0  0  0  0  0  0  0  0  0  0
   31.3220   26.1160   37.4810 C   0  0  0  0  0  0  0  0  0  0  0  0
   29.0551   27.7009   35.7711 H   0  0  0  0  0  0  0  0  0  0  0  0
   28.7101   26.1399   39.5362 H   0  0  0  0  0  0  0  0  0  0  0  0
   31.0617   24.9482   40.4375 H   0  0  0  0  0  0  0  0  0  0  0  0
   33.2536   25.5521   36.9219 H   0  0  0  0  0  0  0  0  0  0  0  0
  1  8  2  0  0  0  0
  2  9  2  0  0  0  0
  3 10  2  0  0  0  0
  4  8  1  0  0  0  0
  4 10  1  0  0  0  0
  5  8  1  0  0  0  0
  5 11  1  0  0  0  0
  6  9  1  0  0  0  0
  6 11  1  0  0  0  0
  7  9  1  0  0  0  0
  7 12  1  0  0  0  0
 10 12  1  0  0  0  0
 11 12  2  0  0  0  0
  4 13  1  0  0  0  0
  5 14  1  0  0  0  0
  6 15  1  0  0  0  0
  7 16  1  0  0  0  0
M  END
> <pdb_id>
4PR8

> <uniprot_id>
Q00511

> <usmiles>
O=C1NC(=O)C=2NC(=O)NC2N1

$$$$
UT0_A_1201
          07192420223D 1   1.00000     0.00000     0
            
 46 48  0  0  0  0            999 V2000
   15.3629    8.8736    9.2441 S   0  0  0  0  0  0  0  0  0  0  0  0
   14.1379    8.6041   10.0967 O   0  0  0  0  0  0  0  0  0  0  0  0
   16.0755    7.5888    8.8030 O   0  0  0  0  0  0  0  0  0  0  0  0
    5.7309   14.1935    8.9003 O   0  0  0  0  0  0  0  0  0  0  0  0
   11.9439   15.3731    9.0595 O   0  0  0  0  0  0  0  0  0  0  0  0
   11.5468   12.8065    9.5589 N   0  0  0  0  0  0  0  0  0  0  0  0
   14.9613    9.7908    7.9295 N   0  0  0  0  0  0  0  0  0  0  0  0
   16.4867    9.8767   10.1851 C   0  0  0  0  0  0  0  0  0  0  0  0
   12.3987   16.8411    7.2101 C   0  0  0  0  0  0  0  0  0  0  0  0
    6.4760   11.9407    9.3280 C   0  0  0  0  0  0  0  0  0  0  0  0
   12.1237   16.7392    8.7045 C   0  0  0  0  0  0  0  0  0  0  0  0
   15.5755    9.7378    6.7422 C   0  0  0  0  0  0  0  0  0  0  0  0
    9.5439   15.7857    8.8420 C   0  0  0  0  0  0  0  0  0  0  0  0
   12.4341   12.9094    7.3009 C   0  0  0  0  0  0  0  0  0  0  0  0
   15.0324   10.6748    5.9589 C   0  0  0  0  0  0  0  0  0  0  0  0
    8.2444   15.2721    8.8747 C   0  0  0  0  0  0  0  0  0  0  0  0
   13.3212   12.3839    6.3484 C   0  0  0  0  0  0  0  0  0  0  0  0
   13.2455   11.2821    8.8413 C   0  0  0  0  0  0  0  0  0  0  0  0
    9.1459   13.1042    9.3696 C   0  0  0  0  0  0  0  0  0  0  0  0
    6.6992   13.4523    9.1485 C   0  0  0  0  0  0  0  0  0  0  0  0
   10.6427   14.9523    9.0642 C   0  0  0  0  0  0  0  0  0  0  0  0
   12.3786   12.3509    8.5778 C   0  0  0  0  0  0  0  0  0  0  0  0
   10.4538   13.5962    9.3128 C   0  0  0  0  0  0  0  0  0  0  0  0
   14.0801   10.8123    7.9008 C   0  0  0  0  0  0  0  0  0  0  0  0
    8.0297   13.9236    9.1428 C   0  0  0  0  0  0  0  0  0  0  0  0
   14.1192   11.3498    6.6722 C   0  0  0  0  0  0  0  0  0  0  0  0
   11.7446   12.5513   10.5053 H   0  0  0  0  0  0  0  0  0  0  0  0
   17.3026   10.0656    9.6385 H   0  0  0  0  0  0  0  0  0  0  0  0
   16.0411   10.7385   10.4276 H   0  0  0  0  0  0  0  0  0  0  0  0
   16.7490    9.3910   11.0188 H   0  0  0  0  0  0  0  0  0  0  0  0
   12.5252   17.8007    6.9590 H   0  0  0  0  0  0  0  0  0  0  0  0
   13.2267   16.3263    6.9876 H   0  0  0  0  0  0  0  0  0  0  0  0
   11.6246   16.4630    6.7022 H   0  0  0  0  0  0  0  0  0  0  0  0
    7.3503   11.4952    9.5206 H   0  0  0  0  0  0  0  0  0  0  0  0
    5.8473   11.7847   10.0899 H   0  0  0  0  0  0  0  0  0  0  0  0
    6.0852   11.5597    8.4900 H   0  0  0  0  0  0  0  0  0  0  0  0
   12.8977   17.1170    9.2127 H   0  0  0  0  0  0  0  0  0  0  0  0
   11.2956   17.2537    8.9273 H   0  0  0  0  0  0  0  0  0  0  0  0
   16.3100    9.1093    6.4863 H   0  0  0  0  0  0  0  0  0  0  0  0
    9.6882   16.7580    8.6580 H   0  0  0  0  0  0  0  0  0  0  0  0
   11.8440   13.6815    7.0649 H   0  0  0  0  0  0  0  0  0  0  0  0
   15.2675   10.8441    5.0018 H   0  0  0  0  0  0  0  0  0  0  0  0
    7.4657   15.8761    8.7047 H   0  0  0  0  0  0  0  0  0  0  0  0
   13.3601   12.7776    5.4300 H   0  0  0  0  0  0  0  0  0  0  0  0
   13.2424   10.8608    9.7482 H   0  0  0  0  0  0  0  0  0  0  0  0
    9.0016   12.1370    9.5785 H   0  0  0  0  0  0  0  0  0  0  0  0
  1  2  2  0  0  0  0
  1  3  2  0  0  0  0
  1  7  1  0  0  0  0
  1  8  1  0  0  0  0
  4 20  2  0  0  0  0
  5 11  1  0  0  0  0
  5 21  1  0  0  0  0
  6 22  1  0  0  0  0
  6 23  1  0  0  0  0
  7 12  1  0  0  0  0
  7 24  1  0  0  0  0
  9 11  1  0  0  0  0
 10 20  1  0  0  0  0
 12 15  2  0  0  0  0
 13 16  1  0  0  0  0
 13 21  2  0  0  0  0
 14 17  1  0  0  0  0
 14 22  2  0  0  0  0
 15 26  1  0  0  0  0
 16 25  2  0  0  0  0
 17 26  2  0  0  0  0
 18 22  1  0  0  0  0
 18 24  2  0  0  0  0
 19 23  2  0  0  0  0
 19 25  1  0  0  0  0
 20 25  1  0  0  0  0
 21 23  1  0  0  0  0
 24 26  1  0  0  0  0
  6 27  1  0  0  0  0
  8 28  1  0  0  0  0
  8 29  1  0  0  0  0
  8 30  1  0  0  0  0
  9 31  1  0  0  0  0
  9 32  1  0  0  0  0
  9 33  1  0  0  0  0
 10 34  1  0  0  0  0
 10 35  1  0  0  0  0
 10 36  1  0  0  0  0
 11 37  1  0  0  0  0
 11 38  1  0  0  0  0
 12 39  1  0  0  0  0
 13 40  1  0  0  0  0
 14 41  1  0  0  0  0
 15 42  1  0  0  0  0
 16 43  1  0  0  0  0
 17 44  1  0  0  0  0
 18 45  1  0  0  0  0
 19 46  1  0  0  0  0
M  END
> <pdb_id>
5MMG

> <uniprot_id>
Q92793

> <usmiles>
S(=O)(=O)(N1c2c(ccc(Nc3c(OCC)ccc(c3)C(=O)C)c2)C=C1)C

$$$$
UTT_A_401
          07192418463D 1   1.00000     0.00000     0
            
 40 42  0  0  0  0            999 V2000
   -2.6290   11.9364  -14.9527 Cl  0  0  0  0  0  0  0  0  0  0  0  0
   -6.1100    9.1342  -12.6618 F   0  0  0  0  0  0  0  0  0  0  0  0
   -1.5615    8.1603  -11.7817 F   0  0  0  0  0  0  0  0  0  0  0  0
   -7.7250    4.4769   -8.5373 O   0  0  0  0  0  0  0  0  0  0  0  0
   -5.8801   11.1084   -7.3831 N   0  0  0  0  0  0  0  0  0  0  0  0
   -6.1645    6.7212   -9.1314 N   0  0  0  0  0  0  0  0  0  0  0  0
   -4.6382    8.3192   -9.9597 N   0  0  0  0  0  0  0  0  0  0  0  0
   -8.0838    8.0057   -6.5811 N   0  0  0  0  0  0  0  0  0  0  0  0
   -7.0621    6.6267   -8.2696 N   0  0  0  0  0  0  0  0  0  0  0  0
  -11.7279    7.5732   -6.8963 C   0  0  0  0  0  0  0  0  0  0  0  0
   -6.0168   10.0357   -7.7311 C   0  0  0  0  0  0  0  0  0  0  0  0
   -4.2658    7.5425  -11.2020 C   0  0  0  0  0  0  0  0  0  0  0  0
  -11.0110    8.0813   -5.6446 C   0  0  0  0  0  0  0  0  0  0  0  0
   -9.8992    7.1707   -5.1336 C   0  0  0  0  0  0  0  0  0  0  0  0
   -4.4535   10.3869  -13.7254 C   0  0  0  0  0  0  0  0  0  0  0  0
   -2.1185    9.8943  -13.2798 C   0  0  0  0  0  0  0  0  0  0  0  0
   -8.8050    5.7269   -6.8810 C   0  0  0  0  0  0  0  0  0  0  0  0
   -3.1044   10.6390  -13.9086 C   0  0  0  0  0  0  0  0  0  0  0  0
   -7.8821    5.5540   -7.9123 C   0  0  0  0  0  0  0  0  0  0  0  0
   -4.8169    9.3715  -12.8568 C   0  0  0  0  0  0  0  0  0  0  0  0
   -2.5115    8.8815  -12.4180 C   0  0  0  0  0  0  0  0  0  0  0  0
   -5.6115    7.9401   -9.1311 C   0  0  0  0  0  0  0  0  0  0  0  0
   -7.1847    7.8545   -7.5634 C   0  0  0  0  0  0  0  0  0  0  0  0
   -8.8836    6.9732   -6.2216 C   0  0  0  0  0  0  0  0  0  0  0  0
   -3.8471    8.6156  -12.1996 C   0  0  0  0  0  0  0  0  0  0  0  0
   -6.2497    8.6871   -8.1336 C   0  0  0  0  0  0  0  0  0  0  0  0
   -4.1316    9.1555   -9.7499 H   0  0  0  0  0  0  0  0  0  0  0  0
   -8.1646    8.8848   -6.1113 H   0  0  0  0  0  0  0  0  0  0  0  0
  -12.4374    8.2258   -7.1622 H   0  0  0  0  0  0  0  0  0  0  0  0
  -11.0684    7.4758   -7.6417 H   0  0  0  0  0  0  0  0  0  0  0  0
  -12.1466    6.6858   -6.7036 H   0  0  0  0  0  0  0  0  0  0  0  0
   -5.0495    7.0250  -11.5454 H   0  0  0  0  0  0  0  0  0  0  0  0
   -3.5087    6.9164  -11.0156 H   0  0  0  0  0  0  0  0  0  0  0  0
  -11.6893    8.1834   -4.9169 H   0  0  0  0  0  0  0  0  0  0  0  0
  -10.6111    8.9734   -5.8550 H   0  0  0  0  0  0  0  0  0  0  0  0
  -10.2852    6.2861   -4.8718 H   0  0  0  0  0  0  0  0  0  0  0  0
   -9.4609    7.5913   -4.3393 H   0  0  0  0  0  0  0  0  0  0  0  0
   -5.1464   10.9233  -14.2073 H   0  0  0  0  0  0  0  0  0  0  0  0
   -1.1501   10.0824  -13.4433 H   0  0  0  0  0  0  0  0  0  0  0  0
   -9.4059    4.9747   -6.6109 H   0  0  0  0  0  0  0  0  0  0  0  0
  1 18  1  0  0  0  0
  2 20  1  0  0  0  0
  3 21  1  0  0  0  0
  4 19  2  0  0  0  0
  5 11  3  0  0  0  0
  6  9  1  0  0  0  0
  6 22  2  0  0  0  0
  7 12  1  0  0  0  0
  7 22  1  0  0  0  0
  8 23  1  0  0  0  0
  8 24  1  0  0  0  0
  9 19  1  0  0  0  0
  9 23  1  0  0  0  0
 10 13  1  0  0  0  0
 11 26  1  0  0  0  0
 12 25  1  0  0  0  0
 13 14  1  0  0  0  0
 14 24  1  0  0  0  0
 15 18  2  0  0  0  0
 15 20  1  0  0  0  0
 16 18  1  0  0  0  0
 16 21  2  0  0  0  0
 17 19  1  0  0  0  0
 17 24  2  0  0  0  0
 20 25  2  0  0  0  0
 21 25  1  0  0  0  0
 22 26  1  0  0  0  0
 23 26  2  0  0  0  0
  7 27  1  0  0  0  0
  8 28  1  0  0  0  0
 10 29  1  0  0  0  0
 10 30  1  0  0  0  0
 10 31  1  0  0  0  0
 12 32  1  0  0  0  0
 12 33  1  0  0  0  0
 13 34  1  0  0  0  0
 13 35  1  0  0  0  0
 14 36  1  0  0  0  0
 14 37  1  0  0  0  0
 15 38  1  0  0  0  0
 16 39  1  0  0  0  0
 17 40  1  0  0  0  0
M  END
> <pdb_id>
7NWA

> <uniprot_id>
P54687

> <usmiles>
Clc1cc(F)c(c(F)c1)CNC2=NN3C(=O)C=C(NC3=C2C#N)CCC

$$$$
UW3_A_601
          07202405313D 1   1.00000     0.00000     0
            
 57 61  0  0  0  0            999 V2000
   15.8240  -24.2710    2.0020 O   0  0  0  0  0  0  0  0  0  0  0  0
   24.5050  -21.0170   -0.6900 O   0  0  0  0  0  0  0  0  0  0  0  0
   17.9760  -23.9790    1.6470 N   0  0  0  0  0  0  0  0  0  0  0  0
   14.1300  -22.2520    2.5010 N   0  0  0  0  0  0  0  0  0  0  0  0
   16.6200  -19.9210    2.1450 N   0  0  0  0  0  0  0  0  0  0  0  0
   20.7190  -19.9490    1.9200 N   0  0  0  0  0  0  0  0  0  0  0  0
   15.3520  -20.3660    2.4110 N   0  0  0  0  0  0  0  0  0  0  0  0
   19.3510  -20.1040    2.1710 C   0  0  0  0  0  0  0  0  0  0  0  0
   13.4150  -17.0300    4.1190 C   0  0  0  0  0  0  0  0  0  0  0  0
   13.2720  -17.1750    2.6050 C   0  0  0  0  0  0  0  0  0  0  0  0
   13.2210  -18.4680    4.7540 C   0  0  0  0  0  0  0  0  0  0  0  0
   27.2910  -21.6080    0.9720 C   0  0  0  0  0  0  0  0  0  0  0  0
   25.7730  -21.4410    1.3260 C   0  0  0  0  0  0  0  0  0  0  0  0
   26.9020  -20.7730   -0.3630 C   0  0  0  0  0  0  0  0  0  0  0  0
   22.4420  -21.8810   -1.1210 C   0  0  0  0  0  0  0  0  0  0  0  0
   14.3520  -18.1780    2.1380 C   0  0  0  0  0  0  0  0  0  0  0  0
   14.3650  -19.2940    4.2790 C   0  0  0  0  0  0  0  0  0  0  0  0
   21.0950  -22.0260   -0.9060 C   0  0  0  0  0  0  0  0  0  0  0  0
   22.6440  -20.3710    0.6810 C   0  0  0  0  0  0  0  0  0  0  0  0
   19.1210  -21.5530    0.3530 C   0  0  0  0  0  0  0  0  0  0  0  0
   16.7270  -23.4840    1.7000 C   0  0  0  0  0  0  0  0  0  0  0  0
   25.4720  -20.4740    0.1440 C   0  0  0  0  0  0  0  0  0  0  0  0
   23.2050  -21.0530   -0.3210 C   0  0  0  0  0  0  0  0  0  0  0  0
   15.2950  -21.6560    2.2600 C   0  0  0  0  0  0  0  0  0  0  0  0
   21.2760  -20.5570    0.9010 C   0  0  0  0  0  0  0  0  0  0  0  0
   14.2230  -19.5020    2.8330 C   0  0  0  0  0  0  0  0  0  0  0  0
   17.2830  -21.0120    1.7710 C   0  0  0  0  0  0  0  0  0  0  0  0
   18.5600  -20.9150    1.4300 C   0  0  0  0  0  0  0  0  0  0  0  0
   20.4870  -21.3630    0.1390 C   0  0  0  0  0  0  0  0  0  0  0  0
   16.4920  -22.1170    1.8420 C   0  0  0  0  0  0  0  0  0  0  0  0
   18.7410  -23.3813    1.4071 H   0  0  0  0  0  0  0  0  0  0  0  0
   18.1400  -24.9449    1.8475 H   0  0  0  0  0  0  0  0  0  0  0  0
   14.0442  -23.2428    2.3965 H   0  0  0  0  0  0  0  0  0  0  0  0
   13.3403  -21.7091    2.7866 H   0  0  0  0  0  0  0  0  0  0  0  0
   18.9413  -19.5952    2.9282 H   0  0  0  0  0  0  0  0  0  0  0  0
   12.7178  -16.4048    4.4697 H   0  0  0  0  0  0  0  0  0  0  0  0
   14.3231  -16.6768    4.3441 H   0  0  0  0  0  0  0  0  0  0  0  0
   13.4117  -16.2898    2.1613 H   0  0  0  0  0  0  0  0  0  0  0  0
   12.3617  -17.5215    2.3784 H   0  0  0  0  0  0  0  0  0  0  0  0
   12.3561  -18.8670    4.4493 H   0  0  0  0  0  0  0  0  0  0  0  0
   13.2276  -18.4092    5.7522 H   0  0  0  0  0  0  0  0  0  0  0  0
   27.5936  -22.5483    0.8162 H   0  0  0  0  0  0  0  0  0  0  0  0
   27.9284  -21.1512    1.5925 H   0  0  0  0  0  0  0  0  0  0  0  0
   25.6240  -21.0221    2.2217 H   0  0  0  0  0  0  0  0  0  0  0  0
   25.2616  -22.2985    1.2698 H   0  0  0  0  0  0  0  0  0  0  0  0
   26.9210  -21.3248   -1.1967 H   0  0  0  0  0  0  0  0  0  0  0  0
   27.4572  -19.9517   -0.4941 H   0  0  0  0  0  0  0  0  0  0  0  0
   22.8782  -22.3824   -1.8683 H   0  0  0  0  0  0  0  0  0  0  0  0
   15.2549  -17.7960    2.3349 H   0  0  0  0  0  0  0  0  0  0  0  0
   14.2576  -18.3194    1.1526 H   0  0  0  0  0  0  0  0  0  0  0  0
   14.3610  -20.1769    4.7485 H   0  0  0  0  0  0  0  0  0  0  0  0
   15.2247  -18.8197    4.4684 H   0  0  0  0  0  0  0  0  0  0  0  0
   20.5535  -22.6131   -1.5077 H   0  0  0  0  0  0  0  0  0  0  0  0
   23.1820  -19.7510    1.2521 H   0  0  0  0  0  0  0  0  0  0  0  0
   18.5741  -22.1301   -0.2535 H   0  0  0  0  0  0  0  0  0  0  0  0
   25.3112  -19.5235    0.4099 H   0  0  0  0  0  0  0  0  0  0  0  0
   13.3460  -19.9324    2.6195 H   0  0  0  0  0  0  0  0  0  0  0  0
  1 21  2  0  0  0  0
  2 22  1  0  0  0  0
  2 23  1  0  0  0  0
  3 21  1  0  0  0  0
  4 24  1  0  0  0  0
  5  7  1  0  0  0  0
  5 27  2  0  0  0  0
  6  8  2  0  0  0  0
  6 25  1  0  0  0  0
  7 24  1  0  0  0  0
  7 26  1  0  0  0  0
  8 28  1  0  0  0  0
  9 10  1  0  0  0  0
  9 11  1  0  0  0  0
 10 16  1  0  0  0  0
 11 17  1  0  0  0  0
 12 13  1  0  0  0  0
 12 14  1  0  0  0  0
 13 22  1  0  0  0  0
 14 22  1  0  0  0  0
 15 18  1  0  0  0  0
 15 23  2  0  0  0  0
 16 26  1  0  0  0  0
 17 26  1  0  0  0  0
 18 29  2  0  0  0  0
 19 23  1  0  0  0  0
 19 25  2  0  0  0  0
 20 28  2  0  0  0  0
 20 29  1  0  0  0  0
 21 30  1  0  0  0  0
 24 30  2  0  0  0  0
 25 29  1  0  0  0  0
 27 28  1  0  0  0  0
 27 30  1  0  0  0  0
  3 31  1  0  0  0  0
  3 32  1  0  0  0  0
  4 33  1  0  0  0  0
  4 34  1  0  0  0  0
  8 35  1  0  0  0  0
  9 36  1  0  0  0  0
  9 37  1  0  0  0  0
 10 38  1  0  0  0  0
 10 39  1  0  0  0  0
 11 40  1  0  0  0  0
 11 41  1  0  0  0  0
 12 42  1  0  0  0  0
 12 43  1  0  0  0  0
 13 44  1  0  0  0  0
 13 45  1  0  0  0  0
 14 46  1  0  0  0  0
 14 47  1  0  0  0  0
 15 48  1  0  0  0  0
 16 49  1  0  0  0  0
 16 50  1  0  0  0  0
 17 51  1  0  0  0  0
 17 52  1  0  0  0  0
 18 53  1  0  0  0  0
 19 54  1  0  0  0  0
 20 55  1  0  0  0  0
 22 56  1  0  0  0  0
 26 57  1  0  0  0  0
M  END
> <pdb_id>
4WG5

> <uniprot_id>
Q9BJF5

> <usmiles>
O=C(N)C=1C(=NN(C1N)C2CCCCC2)c3cnc4c(c3)ccc(OC5CCC5)c4

$$$$
UX2_A_301
          07202405003D 1   1.00000     0.00000     0
            
 28 31  0  0  0  0            999 V2000
  -21.1543    2.9455   38.9244 Cl  0  0  0  0  0  0  0  0  0  0  0  0
  -20.3571   -5.2614   38.5641 O   0  0  0  0  0  0  0  0  0  0  0  0
  -26.1754   -3.0339   40.8848 N   0  0  0  0  0  0  0  0  0  0  0  0
  -23.5762   -3.9341   39.8553 N   0  0  0  0  0  0  0  0  0  0  0  0
  -25.3247   -0.8269   40.5986 N   0  0  0  0  0  0  0  0  0  0  0  0
  -21.9613   -2.6638   39.2201 N   0  0  0  0  0  0  0  0  0  0  0  0
  -23.9431   -2.6306   40.0256 N   0  0  0  0  0  0  0  0  0  0  0  0
  -20.0173   -6.5590   38.3922 C   0  0  0  0  0  0  0  0  0  0  0  0
  -21.1041   -7.3419   38.7779 C   0  0  0  0  0  0  0  0  0  0  0  0
  -23.5605    2.2799   39.9227 C   0  0  0  0  0  0  0  0  0  0  0  0
  -22.1031   -6.4823   39.1980 C   0  0  0  0  0  0  0  0  0  0  0  0
  -24.5553    1.4202   40.3013 C   0  0  0  0  0  0  0  0  0  0  0  0
  -22.1444    0.4194   39.3377 C   0  0  0  0  0  0  0  0  0  0  0  0
  -22.3708    1.7801   39.4417 C   0  0  0  0  0  0  0  0  0  0  0  0
  -25.1229   -2.1412   40.4949 C   0  0  0  0  0  0  0  0  0  0  0  0
  -21.6039   -5.1967   39.0535 C   0  0  0  0  0  0  0  0  0  0  0  0
  -22.3685   -3.9353   39.3715 C   0  0  0  0  0  0  0  0  0  0  0  0
  -22.9987   -1.8758   39.6507 C   0  0  0  0  0  0  0  0  0  0  0  0
  -24.3354    0.0293   40.1974 C   0  0  0  0  0  0  0  0  0  0  0  0
  -23.1679   -0.4613   39.7332 C   0  0  0  0  0  0  0  0  0  0  0  0
  -26.0439   -4.0227   40.8147 H   0  0  0  0  0  0  0  0  0  0  0  0
  -27.0407   -2.6675   41.2268 H   0  0  0  0  0  0  0  0  0  0  0  0
  -19.1410   -6.8972   38.0490 H   0  0  0  0  0  0  0  0  0  0  0  0
  -21.1526   -8.3404   38.7551 H   0  0  0  0  0  0  0  0  0  0  0  0
  -23.6969    3.2679   39.9949 H   0  0  0  0  0  0  0  0  0  0  0  0
  -23.0078   -6.7379   39.5390 H   0  0  0  0  0  0  0  0  0  0  0  0
  -25.4254    1.7718   40.6467 H   0  0  0  0  0  0  0  0  0  0  0  0
  -21.2743    0.0702   38.9899 H   0  0  0  0  0  0  0  0  0  0  0  0
  1 14  1  0  0  0  0
  2  8  1  0  0  0  0
  2 16  1  0  0  0  0
  3 15  1  0  0  0  0
  4  7  1  0  0  0  0
  4 17  2  0  0  0  0
  5 15  2  0  0  0  0
  5 19  1  0  0  0  0
  6 17  1  0  0  0  0
  6 18  2  0  0  0  0
  7 15  1  0  0  0  0
  7 18  1  0  0  0  0
  8  9  2  0  0  0  0
  9 11  1  0  0  0  0
 10 12  1  0  0  0  0
 10 14  2  0  0  0  0
 11 16  2  0  0  0  0
 12 19  2  0  0  0  0
 13 14  1  0  0  0  0
 13 20  2  0  0  0  0
 16 17  1  0  0  0  0
 18 20  1  0  0  0  0
 19 20  1  0  0  0  0
  3 21  1  0  0  0  0
  3 22  1  0  0  0  0
  8 23  1  0  0  0  0
  9 24  1  0  0  0  0
 10 25  1  0  0  0  0
 11 26  1  0  0  0  0
 12 27  1  0  0  0  0
 13 28  1  0  0  0  0
M  END
> <pdb_id>
7NZY

> <uniprot_id>
P48730

> <usmiles>
Clc1cc2c(N=C(N3N=C(N=C32)C=4OC=CC4)N)cc1

$$$$
UXH_A_303
          07202402453D 1   1.00000     0.00000     0
            
 30 32  0  0  0  0            999 V2000
   -0.9358    3.4314   17.5933 Cl  0  0  0  0  0  0  0  0  0  0  0  0
   -3.4649   10.3171   16.0243 O   0  0  0  0  0  0  0  0  0  0  0  0
   -6.7913    4.9265   13.1857 O   0  0  0  0  0  0  0  0  0  0  0  0
   -5.2256   10.3269   14.6014 N   0  0  0  0  0  0  0  0  0  0  0  0
   -1.2149    6.3791   17.5736 N   0  0  0  0  0  0  0  0  0  0  0  0
   -2.9844    1.9935   15.9152 N   0  0  0  0  0  0  0  0  0  0  0  0
   -3.3468    7.7185   15.9926 N   0  0  0  0  0  0  0  0  0  0  0  0
   -5.1537    3.7939   14.4104 N   0  0  0  0  0  0  0  0  0  0  0  0
   -5.5222    2.3908   14.0861 C   0  0  0  0  0  0  0  0  0  0  0  0
   -5.3088    7.4696   14.5198 C   0  0  0  0  0  0  0  0  0  0  0  0
   -4.3235    9.6948   15.3632 C   0  0  0  0  0  0  0  0  0  0  0  0
   -5.7465    4.9334   13.9974 C   0  0  0  0  0  0  0  0  0  0  0  0
   -2.1766    4.2629   16.6965 C   0  0  0  0  0  0  0  0  0  0  0  0
   -2.1555    5.7205   16.8083 C   0  0  0  0  0  0  0  0  0  0  0  0
   -3.1164    3.3982   15.9437 C   0  0  0  0  0  0  0  0  0  0  0  0
   -4.3716    8.2493   15.2724 C   0  0  0  0  0  0  0  0  0  0  0  0
   -3.2363    6.4186   16.0774 C   0  0  0  0  0  0  0  0  0  0  0  0
   -4.1588    4.1800   15.2600 C   0  0  0  0  0  0  0  0  0  0  0  0
   -5.1247    6.1113   14.5835 C   0  0  0  0  0  0  0  0  0  0  0  0
   -4.1139    5.5776   15.3248 C   0  0  0  0  0  0  0  0  0  0  0  0
   -5.9001    9.8003   14.0840 H   0  0  0  0  0  0  0  0  0  0  0  0
   -5.2247   11.3256   14.5500 H   0  0  0  0  0  0  0  0  0  0  0  0
   -1.2265    7.3774   17.6302 H   0  0  0  0  0  0  0  0  0  0  0  0
   -0.5217    5.8581   18.0716 H   0  0  0  0  0  0  0  0  0  0  0  0
   -3.6366    1.4404   15.3969 H   0  0  0  0  0  0  0  0  0  0  0  0
   -2.2386    1.5512   16.4134 H   0  0  0  0  0  0  0  0  0  0  0  0
   -4.8907    1.7658   14.5449 H   0  0  0  0  0  0  0  0  0  0  0  0
   -6.4550    2.2106   14.3981 H   0  0  0  0  0  0  0  0  0  0  0  0
   -5.4688    2.2522   13.0972 H   0  0  0  0  0  0  0  0  0  0  0  0
   -6.0449    7.8857   13.9860 H   0  0  0  0  0  0  0  0  0  0  0  0
  1 13  1  0  0  0  0
  2 11  2  0  0  0  0
  3 12  2  0  0  0  0
  4 11  1  0  0  0  0
  5 14  1  0  0  0  0
  6 15  1  0  0  0  0
  7 16  2  0  0  0  0
  7 17  1  0  0  0  0
  8  9  1  0  0  0  0
  8 12  1  0  0  0  0
  8 18  1  0  0  0  0
 10 16  1  0  0  0  0
 10 19  2  0  0  0  0
 11 16  1  0  0  0  0
 12 19  1  0  0  0  0
 13 14  1  0  0  0  0
 13 15  2  0  0  0  0
 14 17  2  0  0  0  0
 15 18  1  0  0  0  0
 17 20  1  0  0  0  0
 18 20  2  0  0  0  0
 19 20  1  0  0  0  0
  4 21  1  0  0  0  0
  4 22  1  0  0  0  0
  5 23  1  0  0  0  0
  5 24  1  0  0  0  0
  6 25  1  0  0  0  0
  6 26  1  0  0  0  0
  9 27  1  0  0  0  0
  9 28  1  0  0  0  0
  9 29  1  0  0  0  0
 10 30  1  0  0  0  0
M  END
> <pdb_id>
3UXH

> <uniprot_id>
P16083

> <usmiles>
Clc1c(N)c2nc(cc3c2c(N(C3=O)C)c1N)C(=O)N

$$$$
V13_A_303
          07192419453D 1   1.00000     0.00000     0
            
 27 27  0  0  0  0            999 V2000
    6.6418    7.6471  -36.1720 S   0  0  0  0  0  0  0  0  0  0  0  0
    3.0652   12.8818  -37.1143 S   0  0  0  0  0  0  0  0  0  0  0  0
    6.6300    9.3678  -38.7151 F   0  0  0  0  0  0  0  0  0  0  0  0
    4.9711    9.2078  -34.2978 F   0  0  0  0  0  0  0  0  0  0  0  0
    5.2080   11.4731  -39.1695 F   0  0  0  0  0  0  0  0  0  0  0  0
    3.5326   11.3427  -34.6537 F   0  0  0  0  0  0  0  0  0  0  0  0
    5.4655    6.7879  -36.0498 O   0  0  0  0  0  0  0  0  0  0  0  0
    7.4099    7.8114  -34.9494 O   0  0  0  0  0  0  0  0  0  0  0  0
    1.6182   12.3445  -36.7291 O   0  0  0  0  0  0  0  0  0  0  0  0
    3.2671   13.2558  -38.5642 O   0  0  0  0  0  0  0  0  0  0  0  0
    1.9731   16.1013  -36.7011 O   0  0  0  0  0  0  0  0  0  0  0  0
    7.5612    7.1947  -37.3453 N   0  0  0  0  0  0  0  0  0  0  0  0
    3.3158   14.2647  -36.0702 C   0  0  0  0  0  0  0  0  0  0  0  0
    2.0633   15.0706  -35.7789 C   0  0  0  0  0  0  0  0  0  0  0  0
    5.8527    9.2442  -36.4613 C   0  0  0  0  0  0  0  0  0  0  0  0
    4.2339   11.5014  -36.9637 C   0  0  0  0  0  0  0  0  0  0  0  0
    5.8965    9.8268  -37.7021 C   0  0  0  0  0  0  0  0  0  0  0  0
    5.0056    9.7585  -35.4997 C   0  0  0  0  0  0  0  0  0  0  0  0
    5.0847   10.9406  -37.9421 C   0  0  0  0  0  0  0  0  0  0  0  0
    4.2614   10.9098  -35.7155 C   0  0  0  0  0  0  0  0  0  0  0  0
    1.1506   16.6403  -36.5193 H   0  0  0  0  0  0  0  0  0  0  0  0
    8.3540    7.8017  -37.4007 H   0  0  0  0  0  0  0  0  0  0  0  0
    7.8699    6.2572  -37.1846 H   0  0  0  0  0  0  0  0  0  0  0  0
    3.9813   14.8695  -36.5076 H   0  0  0  0  0  0  0  0  0  0  0  0
    3.6849   13.9364  -35.2007 H   0  0  0  0  0  0  0  0  0  0  0  0
    1.2590   14.4811  -35.8536 H   0  0  0  0  0  0  0  0  0  0  0  0
    2.1143   15.4495  -34.8549 H   0  0  0  0  0  0  0  0  0  0  0  0
  1  7  2  0  0  0  0
  1  8  2  0  0  0  0
  1 12  1  0  0  0  0
  1 15  1  0  0  0  0
  2  9  2  0  0  0  0
  2 10  2  0  0  0  0
  2 13  1  0  0  0  0
  2 16  1  0  0  0  0
  3 17  1  0  0  0  0
  4 18  1  0  0  0  0
  5 19  1  0  0  0  0
  6 20  1  0  0  0  0
 11 14  1  0  0  0  0
 13 14  1  0  0  0  0
 15 17  2  0  0  0  0
 15 18  1  0  0  0  0
 16 19  2  0  0  0  0
 16 20  1  0  0  0  0
 17 19  1  0  0  0  0
 18 20  2  0  0  0  0
 11 21  1  0  0  0  0
 12 22  1  0  0  0  0
 12 23  1  0  0  0  0
 13 24  1  0  0  0  0
 13 25  1  0  0  0  0
 14 26  1  0  0  0  0
 14 27  1  0  0  0  0
M  END
> <pdb_id>
5MSB

> <uniprot_id>
O43570

> <usmiles>
S(=O)(=O)(N)c1c(F)c(F)c(S(=O)(=O)CCO)c(F)c1F

$$$$
V13_B_302
          07202417403D 1   1.00000     0.00000     0
            
 27 27  0  0  0  0            999 V2000
  -22.0818  -16.1534   21.9253 S   0  0  0  0  0  0  0  0  0  0  0  0
  -27.0804  -18.8790   18.9322 S   0  0  0  0  0  0  0  0  0  0  0  0
  -22.2718  -18.9021   20.9776 F   0  0  0  0  0  0  0  0  0  0  0  0
  -24.9082  -14.9203   21.1957 F   0  0  0  0  0  0  0  0  0  0  0  0
  -24.3375  -20.0903   19.7397 F   0  0  0  0  0  0  0  0  0  0  0  0
  -26.8126  -16.0769   19.9534 F   0  0  0  0  0  0  0  0  0  0  0  0
  -21.0968  -16.2907   20.8885 O   0  0  0  0  0  0  0  0  0  0  0  0
  -21.7443  -16.8972   23.1852 O   0  0  0  0  0  0  0  0  0  0  0  0
  -26.4241  -19.7759   17.9045 O   0  0  0  0  0  0  0  0  0  0  0  0
  -27.7666  -17.9014   17.9840 O   0  0  0  0  0  0  0  0  0  0  0  0
  -27.6311  -19.2658   21.9398 O   0  0  0  0  0  0  0  0  0  0  0  0
  -22.2130  -14.4750   22.2546 N   0  0  0  0  0  0  0  0  0  0  0  0
  -28.3589  -19.7947   19.8175 C   0  0  0  0  0  0  0  0  0  0  0  0
  -27.6297  -20.3109   21.0235 C   0  0  0  0  0  0  0  0  0  0  0  0
  -23.5044  -16.8548   21.1202 C   0  0  0  0  0  0  0  0  0  0  0  0
  -25.6434  -18.0854   19.7653 C   0  0  0  0  0  0  0  0  0  0  0  0
  -23.4046  -18.2106   20.7388 C   0  0  0  0  0  0  0  0  0  0  0  0
  -24.6680  -16.1583   20.8291 C   0  0  0  0  0  0  0  0  0  0  0  0
  -24.4735  -18.8051   20.0878 C   0  0  0  0  0  0  0  0  0  0  0  0
  -25.7221  -16.7910   20.1903 C   0  0  0  0  0  0  0  0  0  0  0  0
  -27.1554  -19.5513   22.7718 H   0  0  0  0  0  0  0  0  0  0  0  0
  -22.8914  -14.3287   22.9746 H   0  0  0  0  0  0  0  0  0  0  0  0
  -21.3264  -14.1241   22.5558 H   0  0  0  0  0  0  0  0  0  0  0  0
  -28.7123  -20.5471   19.2617 H   0  0  0  0  0  0  0  0  0  0  0  0
  -29.1128  -19.1937   20.0831 H   0  0  0  0  0  0  0  0  0  0  0  0
  -28.1018  -21.1071   21.4021 H   0  0  0  0  0  0  0  0  0  0  0  0
  -26.6923  -20.5625   20.7830 H   0  0  0  0  0  0  0  0  0  0  0  0
  1  7  2  0  0  0  0
  1  8  2  0  0  0  0
  1 12  1  0  0  0  0
  1 15  1  0  0  0  0
  2  9  2  0  0  0  0
  2 10  2  0  0  0  0
  2 13  1  0  0  0  0
  2 16  1  0  0  0  0
  3 17  1  0  0  0  0
  4 18  1  0  0  0  0
  5 19  1  0  0  0  0
  6 20  1  0  0  0  0
 11 14  1  0  0  0  0
 13 14  1  0  0  0  0
 15 17  2  0  0  0  0
 15 18  1  0  0  0  0
 16 19  2  0  0  0  0
 16 20  1  0  0  0  0
 17 19  1  0  0  0  0
 18 20  2  0  0  0  0
 11 21  1  0  0  0  0
 12 22  1  0  0  0  0
 12 23  1  0  0  0  0
 13 24  1  0  0  0  0
 13 25  1  0  0  0  0
 14 26  1  0  0  0  0
 14 27  1  0  0  0  0
M  END
> <pdb_id>
4HU1

> <uniprot_id>
Q8N1Q1

> <usmiles>
S(=O)(=O)(N)c1c(F)c(F)c(S(=O)(=O)CCO)c(F)c1F

$$$$
V21_A_262
          07192416293D 1   1.00000     0.00000     0
            
 28 30  0  0  0  0            999 V2000
   -6.9655    6.9599   12.2368 S   0  0  0  0  0  0  0  0  0  0  0  0
   -4.3682    7.9491   11.0717 S   0  0  0  0  0  0  0  0  0  0  0  0
   -5.8794    1.0552   16.8008 S   0  0  0  0  0  0  0  0  0  0  0  0
   -5.3369    1.2557   18.2478 O   0  0  0  0  0  0  0  0  0  0  0  0
   -7.4366    1.1042   16.7354 O   0  0  0  0  0  0  0  0  0  0  0  0
   -5.2550   -0.4251   16.2150 N   0  0  0  0  0  0  0  0  0  0  0  0
   -7.1782    5.7729   13.2718 N   0  0  0  0  0  0  0  0  0  0  0  0
   -3.8009    5.4330   13.4110 N   0  0  0  0  0  0  0  0  0  0  0  0
   -6.0135    5.3480   13.5937 N   0  0  0  0  0  0  0  0  0  0  0  0
   -5.4094    9.3140   10.4949 C   0  0  0  0  0  0  0  0  0  0  0  0
   -3.8551    2.4714   15.6105 C   0  0  0  0  0  0  0  0  0  0  0  0
   -3.2888    3.4873   14.8232 C   0  0  0  0  0  0  0  0  0  0  0  0
   -6.1001    3.3139   15.1437 C   0  0  0  0  0  0  0  0  0  0  0  0
   -5.3498    6.9242   12.1200 C   0  0  0  0  0  0  0  0  0  0  0  0
   -5.2517    2.3772   15.7802 C   0  0  0  0  0  0  0  0  0  0  0  0
   -4.9748    5.9436   13.0199 C   0  0  0  0  0  0  0  0  0  0  0  0
   -4.1352    4.4040   14.2018 C   0  0  0  0  0  0  0  0  0  0  0  0
   -5.5198    4.3358   14.3504 C   0  0  0  0  0  0  0  0  0  0  0  0
   -5.5869   -0.5820   15.2848 H   0  0  0  0  0  0  0  0  0  0  0  0
   -4.2558   -0.3869   16.2104 H   0  0  0  0  0  0  0  0  0  0  0  0
   -7.7077    5.0379   12.8484 H   0  0  0  0  0  0  0  0  0  0  0  0
   -2.8833    5.7477   13.1683 H   0  0  0  0  0  0  0  0  0  0  0  0
   -4.8749    9.9114    9.8970 H   0  0  0  0  0  0  0  0  0  0  0  0
   -6.1896    8.9471    9.9884 H   0  0  0  0  0  0  0  0  0  0  0  0
   -5.7386    9.8373   11.2810 H   0  0  0  0  0  0  0  0  0  0  0  0
   -3.2587    1.8047   16.0575 H   0  0  0  0  0  0  0  0  0  0  0  0
   -2.2972    3.5517   14.7107 H   0  0  0  0  0  0  0  0  0  0  0  0
   -7.0925    3.2561   15.2516 H   0  0  0  0  0  0  0  0  0  0  0  0
  1  7  1  0  0  0  0
  1 14  1  0  0  0  0
  2 10  1  0  0  0  0
  2 14  1  0  0  0  0
  3  4  2  0  0  0  0
  3  5  2  0  0  0  0
  3  6  1  0  0  0  0
  3 15  1  0  0  0  0
  7  9  1  0  0  0  0
  8 16  1  0  0  0  0
  8 17  1  0  0  0  0
  9 16  1  0  0  0  0
  9 18  1  0  0  0  0
 11 12  1  0  0  0  0
 11 15  2  0  0  0  0
 12 17  2  0  0  0  0
 13 15  1  0  0  0  0
 13 18  2  0  0  0  0
 14 16  2  0  0  0  0
 17 18  1  0  0  0  0
  6 19  1  0  0  0  0
  6 20  1  0  0  0  0
  7 21  1  0  0  0  0
  8 22  1  0  0  0  0
 10 23  1  0  0  0  0
 10 24  1  0  0  0  0
 10 25  1  0  0  0  0
 11 26  1  0  0  0  0
 12 27  1  0  0  0  0
 13 28  1  0  0  0  0
M  END
> <pdb_id>
3HLJ

> <uniprot_id>
P00918

> <usmiles>
S(=O)(=O)(N)c1cc2N3NSC(SC)=C3Nc2cc1

$$$$
V26_A_308
          07192416293D 1   1.00000     0.00000     0
            
 41 42  0  0  0  0            999 V2000
   -5.8064    1.0724   16.8323 S   0  0  0  0  0  0  0  0  0  0  0  0
   -2.5684    5.7013   13.7493 S   0  0  0  0  0  0  0  0  0  0  0  0
   -2.9126    1.5928   16.6444 F   0  0  0  0  0  0  0  0  0  0  0  0
   -1.6022    3.6239   15.5284 F   0  0  0  0  0  0  0  0  0  0  0  0
   -6.9547    3.3535   15.0360 F   0  0  0  0  0  0  0  0  0  0  0  0
   -5.2708    1.3105   18.1669 O   0  0  0  0  0  0  0  0  0  0  0  0
   -7.2152    1.2369   16.6211 O   0  0  0  0  0  0  0  0  0  0  0  0
   -3.4115    6.5715   12.8963 O   0  0  0  0  0  0  0  0  0  0  0  0
   -1.8092    6.4037   14.7730 O   0  0  0  0  0  0  0  0  0  0  0  0
   -5.3498   -0.3216   16.2484 N   0  0  0  0  0  0  0  0  0  0  0  0
   -5.7048    5.2334   13.5890 N   0  0  0  0  0  0  0  0  0  0  0  0
   -6.8255    4.8003   12.7442 C   0  0  0  0  0  0  0  0  0  0  0  0
   -1.4353    4.7960   12.7265 C   0  0  0  0  0  0  0  0  0  0  0  0
   -4.7773    0.9810   11.7479 C   0  0  0  0  0  0  0  0  0  0  0  0
   -3.7015    1.0157   12.6571 C   0  0  0  0  0  0  0  0  0  0  0  0
   -4.9656    2.0698   10.8824 C   0  0  0  0  0  0  0  0  0  0  0  0
   -2.0548    4.2513   11.4432 C   0  0  0  0  0  0  0  0  0  0  0  0
   -2.8198    2.0426   12.5346 C   0  0  0  0  0  0  0  0  0  0  0  0
   -4.1045    3.1384   10.8454 C   0  0  0  0  0  0  0  0  0  0  0  0
   -5.0184    2.3776   15.8935 C   0  0  0  0  0  0  0  0  0  0  0  0
   -3.5835    4.4826   14.5457 C   0  0  0  0  0  0  0  0  0  0  0  0
   -3.6199    2.5016   15.9550 C   0  0  0  0  0  0  0  0  0  0  0  0
   -2.9130    3.5498   15.3541 C   0  0  0  0  0  0  0  0  0  0  0  0
   -5.6300    3.3295   15.0994 C   0  0  0  0  0  0  0  0  0  0  0  0
   -4.9792    4.3595   14.3702 C   0  0  0  0  0  0  0  0  0  0  0  0
   -2.9575    3.0936   11.5858 C   0  0  0  0  0  0  0  0  0  0  0  0
   -5.7381   -0.4438   15.3351 H   0  0  0  0  0  0  0  0  0  0  0  0
   -4.3517   -0.3488   16.1927 H   0  0  0  0  0  0  0  0  0  0  0  0
   -5.4579    6.2024   13.5979 H   0  0  0  0  0  0  0  0  0  0  0  0
   -7.2075    5.5911   12.2659 H   0  0  0  0  0  0  0  0  0  0  0  0
   -6.5001    4.1316   12.0757 H   0  0  0  0  0  0  0  0  0  0  0  0
   -7.5321    4.3833   13.3159 H   0  0  0  0  0  0  0  0  0  0  0  0
   -1.0809    4.0253   13.2560 H   0  0  0  0  0  0  0  0  0  0  0  0
   -0.6815    5.4042   12.4779 H   0  0  0  0  0  0  0  0  0  0  0  0
   -5.3952    0.1953   11.7198 H   0  0  0  0  0  0  0  0  0  0  0  0
   -3.5916    0.3150   13.3620 H   0  0  0  0  0  0  0  0  0  0  0  0
   -5.7561    2.0670   10.2701 H   0  0  0  0  0  0  0  0  0  0  0  0
   -1.3074    3.9804   10.8365 H   0  0  0  0  0  0  0  0  0  0  0  0
   -2.5761    4.9922   11.0196 H   0  0  0  0  0  0  0  0  0  0  0  0
   -2.0290    2.0604   13.1464 H   0  0  0  0  0  0  0  0  0  0  0  0
   -4.3142    3.9389   10.2839 H   0  0  0  0  0  0  0  0  0  0  0  0
  1  6  2  0  0  0  0
  1  7  2  0  0  0  0
  1 10  1  0  0  0  0
  1 20  1  0  0  0  0
  2  8  2  0  0  0  0
  2  9  2  0  0  0  0
  2 13  1  0  0  0  0
  2 21  1  0  0  0  0
  3 22  1  0  0  0  0
  4 23  1  0  0  0  0
  5 24  1  0  0  0  0
 11 12  1  0  0  0  0
 11 25  1  0  0  0  0
 13 17  1  0  0  0  0
 14 15  2  0  0  0  0
 14 16  1  0  0  0  0
 15 18  1  0  0  0  0
 16 19  2  0  0  0  0
 17 26  1  0  0  0  0
 18 26  2  0  0  0  0
 19 26  1  0  0  0  0
 20 22  2  0  0  0  0
 20 24  1  0  0  0  0
 21 23  2  0  0  0  0
 21 25  1  0  0  0  0
 22 23  1  0  0  0  0
 24 25  2  0  0  0  0
 10 27  1  0  0  0  0
 10 28  1  0  0  0  0
 11 29  1  0  0  0  0
 12 30  1  0  0  0  0
 12 31  1  0  0  0  0
 12 32  1  0  0  0  0
 13 33  1  0  0  0  0
 13 34  1  0  0  0  0
 14 35  1  0  0  0  0
 15 36  1  0  0  0  0
 16 37  1  0  0  0  0
 17 38  1  0  0  0  0
 17 39  1  0  0  0  0
 18 40  1  0  0  0  0
 19 41  1  0  0  0  0
M  END
> <pdb_id>
5LLC

> <uniprot_id>
P00918

> <usmiles>
S(=O)(=O)(N)c1c(F)c(F)c(S(=O)(=O)CCc2ccccc2)c(NC)c1F

$$$$
V49_A_302
          07192416293D 1   1.00000     0.00000     0
            
 30 32  0  0  0  0            999 V2000
   -2.9207    6.0455   14.5331 S   0  0  0  0  0  0  0  0  0  0  0  0
   -4.4019    4.8229   12.1334 S   0  0  0  0  0  0  0  0  0  0  0  0
   -5.9408    0.9928   17.0174 S   0  0  0  0  0  0  0  0  0  0  0  0
   -6.3207    5.4407   14.6595 F   0  0  0  0  0  0  0  0  0  0  0  0
   -3.5371    2.2471   12.6338 F   0  0  0  0  0  0  0  0  0  0  0  0
   -6.8967    3.7810   16.6167 F   0  0  0  0  0  0  0  0  0  0  0  0
   -4.0474    0.4523   14.6112 F   0  0  0  0  0  0  0  0  0  0  0  0
   -5.4102    1.3330   18.3807 O   0  0  0  0  0  0  0  0  0  0  0  0
   -7.4806    1.1243   17.0005 O   0  0  0  0  0  0  0  0  0  0  0  0
   -5.4159   -0.6514   16.6547 N   0  0  0  0  0  0  0  0  0  0  0  0
   -2.9434    7.0706   12.1936 N   0  0  0  0  0  0  0  0  0  0  0  0
   -0.7648    9.4102   14.8261 C   0  0  0  0  0  0  0  0  0  0  0  0
   -0.9015    9.8451   13.4615 C   0  0  0  0  0  0  0  0  0  0  0  0
   -1.3820    8.2288   15.2743 C   0  0  0  0  0  0  0  0  0  0  0  0
   -1.6516    9.0715   12.5271 C   0  0  0  0  0  0  0  0  0  0  0  0
   -3.4093    6.0286   12.9299 C   0  0  0  0  0  0  0  0  0  0  0  0
   -2.1039    7.4832   14.3557 C   0  0  0  0  0  0  0  0  0  0  0  0
   -4.9112    3.8317   13.5787 C   0  0  0  0  0  0  0  0  0  0  0  0
   -5.4799    2.0903   15.6871 C   0  0  0  0  0  0  0  0  0  0  0  0
   -5.7717    4.2213   14.6037 C   0  0  0  0  0  0  0  0  0  0  0  0
   -4.3329    2.5865   13.6318 C   0  0  0  0  0  0  0  0  0  0  0  0
   -6.0771    3.3536   15.6340 C   0  0  0  0  0  0  0  0  0  0  0  0
   -4.6244    1.6727   14.6561 C   0  0  0  0  0  0  0  0  0  0  0  0
   -2.2097    7.8850   13.0030 C   0  0  0  0  0  0  0  0  0  0  0  0
   -5.7509   -0.9164   15.7506 H   0  0  0  0  0  0  0  0  0  0  0  0
   -4.4168   -0.6923   16.6652 H   0  0  0  0  0  0  0  0  0  0  0  0
   -0.2229    9.9561   15.4652 H   0  0  0  0  0  0  0  0  0  0  0  0
   -0.4674   10.6961   13.1660 H   0  0  0  0  0  0  0  0  0  0  0  0
   -1.3024    7.9355   16.2270 H   0  0  0  0  0  0  0  0  0  0  0  0
   -1.7713    9.3649   11.5786 H   0  0  0  0  0  0  0  0  0  0  0  0
  1 16  1  0  0  0  0
  1 17  1  0  0  0  0
  2 16  1  0  0  0  0
  2 18  1  0  0  0  0
  3  8  2  0  0  0  0
  3  9  2  0  0  0  0
  3 10  1  0  0  0  0
  3 19  1  0  0  0  0
  4 20  1  0  0  0  0
  5 21  1  0  0  0  0
  6 22  1  0  0  0  0
  7 23  1  0  0  0  0
 11 16  2  0  0  0  0
 11 24  1  0  0  0  0
 12 13  2  0  0  0  0
 12 14  1  0  0  0  0
 13 15  1  0  0  0  0
 14 17  2  0  0  0  0
 15 24  2  0  0  0  0
 17 24  1  0  0  0  0
 18 20  2  0  0  0  0
 18 21  1  0  0  0  0
 19 22  2  0  0  0  0
 19 23  1  0  0  0  0
 20 22  1  0  0  0  0
 21 23  2  0  0  0  0
 10 25  1  0  0  0  0
 10 26  1  0  0  0  0
 12 27  1  0  0  0  0
 13 28  1  0  0  0  0
 14 29  1  0  0  0  0
 15 30  1  0  0  0  0
M  END
> <pdb_id>
5LLH

> <uniprot_id>
P00918

> <usmiles>
S(=O)(=O)(N)c1c(F)c(F)c(SC=2Sc3c(N2)cccc3)c(F)c1F

$$$$
V50_D_302
          07192419453D 1   1.00000     0.00000     0
            
 32 33  0  0  0  0            999 V2000
    5.7593   14.2906  -37.7656 S   0  0  0  0  0  0  0  0  0  0  0  0
    6.6351    8.0437  -36.4224 S   0  0  0  0  0  0  0  0  0  0  0  0
    8.1450   12.8982  -36.9037 F   0  0  0  0  0  0  0  0  0  0  0  0
    3.6672   12.0344  -37.9663 F   0  0  0  0  0  0  0  0  0  0  0  0
    8.5901   10.3001  -36.5658 F   0  0  0  0  0  0  0  0  0  0  0  0
    3.9303    9.4757  -37.4170 F   0  0  0  0  0  0  0  0  0  0  0  0
    5.3329    7.3756  -36.4156 O   0  0  0  0  0  0  0  0  0  0  0  0
    7.3498    8.1769  -35.1579 O   0  0  0  0  0  0  0  0  0  0  0  0
    7.5303    7.4525  -37.5809 N   0  0  0  0  0  0  0  0  0  0  0  0
    3.6519   13.9684  -36.0714 N   0  0  0  0  0  0  0  0  0  0  0  0
    3.9921   16.0572  -37.1399 N   0  0  0  0  0  0  0  0  0  0  0  0
    1.7995   13.5547  -34.5599 C   0  0  0  0  0  0  0  0  0  0  0  0
    2.5401   17.9585  -36.7566 C   0  0  0  0  0  0  0  0  0  0  0  0
    2.0786   15.7397  -35.6530 C   0  0  0  0  0  0  0  0  0  0  0  0
    4.3407   14.8021  -36.8527 C   0  0  0  0  0  0  0  0  0  0  0  0
    5.9376   12.5287  -37.4625 C   0  0  0  0  0  0  0  0  0  0  0  0
    6.2579    9.7341  -36.9468 C   0  0  0  0  0  0  0  0  0  0  0  0
    7.1400   12.0275  -37.0303 C   0  0  0  0  0  0  0  0  0  0  0  0
    4.8658   11.6022  -37.5471 C   0  0  0  0  0  0  0  0  0  0  0  0
    7.3351   10.6529  -36.9030 C   0  0  0  0  0  0  0  0  0  0  0  0
    5.0304   10.2753  -37.2810 C   0  0  0  0  0  0  0  0  0  0  0  0
    2.5405   14.4747  -35.4307 C   0  0  0  0  0  0  0  0  0  0  0  0
    2.8672   16.4930  -36.5048 C   0  0  0  0  0  0  0  0  0  0  0  0
    8.4189    7.9112  -37.5826 H   0  0  0  0  0  0  0  0  0  0  0  0
    7.6615    6.4722  -37.4335 H   0  0  0  0  0  0  0  0  0  0  0  0
    1.0207   14.0336  -34.1548 H   0  0  0  0  0  0  0  0  0  0  0  0
    1.4704   12.7787  -35.0981 H   0  0  0  0  0  0  0  0  0  0  0  0
    2.4025   13.2248  -33.8336 H   0  0  0  0  0  0  0  0  0  0  0  0
    1.7070   18.2040  -36.2610 H   0  0  0  0  0  0  0  0  0  0  0  0
    3.2975   18.5286  -36.4383 H   0  0  0  0  0  0  0  0  0  0  0  0
    2.4010   18.1055  -37.7359 H   0  0  0  0  0  0  0  0  0  0  0  0
    1.2410   16.0923  -35.2356 H   0  0  0  0  0  0  0  0  0  0  0  0
  1 15  1  0  0  0  0
  1 16  1  0  0  0  0
  2  7  2  0  0  0  0
  2  8  2  0  0  0  0
  2  9  1  0  0  0  0
  2 17  1  0  0  0  0
  3 18  1  0  0  0  0
  4 19  1  0  0  0  0
  5 20  1  0  0  0  0
  6 21  1  0  0  0  0
 10 15  2  0  0  0  0
 10 22  1  0  0  0  0
 11 15  1  0  0  0  0
 11 23  2  0  0  0  0
 12 22  1  0  0  0  0
 13 23  1  0  0  0  0
 14 22  2  0  0  0  0
 14 23  1  0  0  0  0
 16 18  2  0  0  0  0
 16 19  1  0  0  0  0
 17 20  2  0  0  0  0
 17 21  1  0  0  0  0
 18 20  1  0  0  0  0
 19 21  2  0  0  0  0
  9 24  1  0  0  0  0
  9 25  1  0  0  0  0
 12 26  1  0  0  0  0
 12 27  1  0  0  0  0
 12 28  1  0  0  0  0
 13 29  1  0  0  0  0
 13 30  1  0  0  0  0
 13 31  1  0  0  0  0
 14 32  1  0  0  0  0
M  END
> <pdb_id>
4HT2

> <uniprot_id>
O43570

> <usmiles>
S(=O)(=O)(N)c1c(F)c(F)c(Sc2nc(cc(n2)C)C)c(F)c1F

$$$$
V55_A_403
          07202401373D 1   1.00000     0.00000     0
            
 19 19  0  0  0  0            999 V2000
   22.8548  -31.0638   14.2391 O   0  0  0  0  0  0  0  0  0  0  0  0
   22.4124  -37.4218   14.1346 O   0  0  0  0  0  0  0  0  0  0  0  0
   22.2950  -35.7394   16.3129 O   0  0  0  0  0  0  0  0  0  0  0  0
   22.1576  -34.8260   17.3834 C   0  0  0  0  0  0  0  0  0  0  0  0
   23.1156  -31.8419   13.3407 C   0  0  0  0  0  0  0  0  0  0  0  0
   22.8124  -35.5520   12.6631 C   0  0  0  0  0  0  0  0  0  0  0  0
   22.9853  -34.1898   12.4788 C   0  0  0  0  0  0  0  0  0  0  0  0
   22.6974  -33.8187   14.8516 C   0  0  0  0  0  0  0  0  0  0  0  0
   22.5885  -36.0426   13.9413 C   0  0  0  0  0  0  0  0  0  0  0  0
   22.5275  -35.1849   15.0370 C   0  0  0  0  0  0  0  0  0  0  0  0
   22.9273  -33.3281   13.5675 C   0  0  0  0  0  0  0  0  0  0  0  0
   22.2507  -37.7813   15.0536 H   0  0  0  0  0  0  0  0  0  0  0  0
   21.9973  -35.3292   18.2325 H   0  0  0  0  0  0  0  0  0  0  0  0
   22.9942  -34.2849   17.4694 H   0  0  0  0  0  0  0  0  0  0  0  0
   21.3841  -34.2177   17.2053 H   0  0  0  0  0  0  0  0  0  0  0  0
   23.4508  -31.5038   12.4613 H   0  0  0  0  0  0  0  0  0  0  0  0
   22.8486  -36.1756   11.8823 H   0  0  0  0  0  0  0  0  0  0  0  0
   23.1519  -33.8266   11.5621 H   0  0  0  0  0  0  0  0  0  0  0  0
   22.6553  -33.1938   15.6313 H   0  0  0  0  0  0  0  0  0  0  0  0
  1  5  2  0  0  0  0
  2  9  1  0  0  0  0
  3  4  1  0  0  0  0
  3 10  1  0  0  0  0
  5 11  1  0  0  0  0
  6  7  1  0  0  0  0
  6  9  2  0  0  0  0
  7 11  2  0  0  0  0
  8 10  2  0  0  0  0
  8 11  1  0  0  0  0
  9 10  1  0  0  0  0
  2 12  1  0  0  0  0
  4 13  1  0  0  0  0
  4 14  1  0  0  0  0
  4 15  1  0  0  0  0
  5 16  1  0  0  0  0
  6 17  1  0  0  0  0
  7 18  1  0  0  0  0
  8 19  1  0  0  0  0
M  END
> <pdb_id>
6HOU

> <uniprot_id>
P68400

> <usmiles>
O=Cc1cc(OC)c(O)cc1

$$$$
V67_B_401
          07202414053D 1   1.00000     0.00000     0
            
 34 36  0  0  0  0            999 V2000
   52.1306   -0.2030  -16.6067 F   0  0  0  0  0  0  0  0  0  0  0  0
   54.5104   -0.0365  -15.2097 F   0  0  0  0  0  0  0  0  0  0  0  0
   53.8527    5.8444  -15.7204 O   0  0  0  0  0  0  0  0  0  0  0  0
   55.4648    4.7407  -14.7331 O   0  0  0  0  0  0  0  0  0  0  0  0
   49.9943    3.7915  -17.7097 O   0  0  0  0  0  0  0  0  0  0  0  0
   50.6583    8.3560  -17.1562 N   0  0  0  0  0  0  0  0  0  0  0  0
   51.0407    7.1211  -17.0500 N   0  0  0  0  0  0  0  0  0  0  0  0
   49.5841   12.2714  -17.8397 N   0  0  0  0  0  0  0  0  0  0  0  0
   51.8443    4.5679  -16.7387 N   0  0  0  0  0  0  0  0  0  0  0  0
   49.2735   10.1448  -17.6999 N   0  0  0  0  0  0  0  0  0  0  0  0
   50.2178   11.1341  -17.7708 C   0  0  0  0  0  0  0  0  0  0  0  0
   48.2454   12.0481  -17.7977 C   0  0  0  0  0  0  0  0  0  0  0  0
   48.0228   10.7572  -17.7265 C   0  0  0  0  0  0  0  0  0  0  0  0
   48.6078    7.8101  -18.0880 C   0  0  0  0  0  0  0  0  0  0  0  0
   49.0002    6.4979  -18.0600 C   0  0  0  0  0  0  0  0  0  0  0  0
   51.9826    2.1179  -16.6417 C   0  0  0  0  0  0  0  0  0  0  0  0
   54.3778    2.3306  -15.3172 C   0  0  0  0  0  0  0  0  0  0  0  0
   54.3220    4.7912  -15.3688 C   0  0  0  0  0  0  0  0  0  0  0  0
   50.6834    4.7432  -17.3616 C   0  0  0  0  0  0  0  0  0  0  0  0
   52.6651    1.0054  -16.2561 C   0  0  0  0  0  0  0  0  0  0  0  0
   53.8384    1.0711  -15.5884 C   0  0  0  0  0  0  0  0  0  0  0  0
   49.5284    8.7643  -17.6605 C   0  0  0  0  0  0  0  0  0  0  0  0
   50.2523    6.1347  -17.5175 C   0  0  0  0  0  0  0  0  0  0  0  0
   52.4960    3.3977  -16.3956 C   0  0  0  0  0  0  0  0  0  0  0  0
   53.7073    3.4900  -15.6821 C   0  0  0  0  0  0  0  0  0  0  0  0
   52.9783    5.8653  -16.2053 H   0  0  0  0  0  0  0  0  0  0  0  0
   52.3180    5.4094  -16.4790 H   0  0  0  0  0  0  0  0  0  0  0  0
   51.2098   11.0075  -17.7700 H   0  0  0  0  0  0  0  0  0  0  0  0
   47.5398   12.7565  -17.8179 H   0  0  0  0  0  0  0  0  0  0  0  0
   47.1322   10.3031  -17.6973 H   0  0  0  0  0  0  0  0  0  0  0  0
   47.6958    8.0729  -18.4030 H   0  0  0  0  0  0  0  0  0  0  0  0
   48.3949    5.7915  -18.4268 H   0  0  0  0  0  0  0  0  0  0  0  0
   51.1028    2.0204  -17.1069 H   0  0  0  0  0  0  0  0  0  0  0  0
   55.2608    2.3982  -14.8529 H   0  0  0  0  0  0  0  0  0  0  0  0
  1 20  1  0  0  0  0
  2 21  1  0  0  0  0
  3 18  1  0  0  0  0
  4 18  2  0  0  0  0
  5 19  2  0  0  0  0
  6  7  1  0  0  0  0
  6 22  2  0  0  0  0
  7 23  2  0  0  0  0
  8 11  2  0  0  0  0
  8 12  1  0  0  0  0
  9 19  1  0  0  0  0
  9 24  1  0  0  0  0
 10 11  1  0  0  0  0
 10 13  1  0  0  0  0
 10 22  1  0  0  0  0
 12 13  2  0  0  0  0
 14 15  2  0  0  0  0
 14 22  1  0  0  0  0
 15 23  1  0  0  0  0
 16 20  1  0  0  0  0
 16 24  2  0  0  0  0
 17 21  1  0  0  0  0
 17 25  2  0  0  0  0
 18 25  1  0  0  0  0
 19 23  1  0  0  0  0
 20 21  2  0  0  0  0
 24 25  1  0  0  0  0
  3 26  1  0  0  0  0
  9 27  1  0  0  0  0
 11 28  1  0  0  0  0
 12 29  1  0  0  0  0
 13 30  1  0  0  0  0
 14 31  1  0  0  0  0
 15 32  1  0  0  0  0
 16 33  1  0  0  0  0
 17 34  1  0  0  0  0
M  END
> <pdb_id>
6XNP

> <uniprot_id>
nan

> <usmiles>
Fc1c(F)cc(c(NC(=O)c2nnc(N3C=NC=C3)cc2)c1)C(=O)O

$$$$
V95_B_505
          07202409083D 1   1.00000     0.00000     0
            
 35 37  0  0  0  0            999 V2000
   17.4952  -64.7623  -33.1658 O   0  0  0  0  0  0  0  0  0  0  0  0
   13.2278  -66.6419  -38.9992 O   0  0  0  0  0  0  0  0  0  0  0  0
   19.1149  -63.5556  -32.1735 O   0  0  0  0  0  0  0  0  0  0  0  0
   18.1356  -63.3384  -36.9661 N   0  0  0  0  0  0  0  0  0  0  0  0
   18.7144  -63.4531  -34.5804 N   0  0  0  0  0  0  0  0  0  0  0  0
   16.9341  -64.6962  -35.7839 N   0  0  0  0  0  0  0  0  0  0  0  0
   19.0763  -64.4221  -31.0809 C   0  0  0  0  0  0  0  0  0  0  0  0
   13.8331  -66.8659  -43.9386 C   0  0  0  0  0  0  0  0  0  0  0  0
   15.0748  -66.7866  -43.3269 C   0  0  0  0  0  0  0  0  0  0  0  0
   12.6809  -66.7287  -43.1825 C   0  0  0  0  0  0  0  0  0  0  0  0
   15.1612  -66.5713  -41.9611 C   0  0  0  0  0  0  0  0  0  0  0  0
   12.7683  -66.5094  -41.8157 C   0  0  0  0  0  0  0  0  0  0  0  0
   16.9866  -63.7598  -39.1884 C   0  0  0  0  0  0  0  0  0  0  0  0
   15.9723  -64.4881  -39.7913 C   0  0  0  0  0  0  0  0  0  0  0  0
   15.4389  -65.5158  -37.6776 C   0  0  0  0  0  0  0  0  0  0  0  0
   18.3822  -63.9851  -33.2820 C   0  0  0  0  0  0  0  0  0  0  0  0
   17.9429  -63.8259  -35.7438 C   0  0  0  0  0  0  0  0  0  0  0  0
   14.0734  -66.1864  -39.6887 C   0  0  0  0  0  0  0  0  0  0  0  0
   17.2304  -63.9096  -37.7986 C   0  0  0  0  0  0  0  0  0  0  0  0
   16.4747  -64.7659  -37.0569 C   0  0  0  0  0  0  0  0  0  0  0  0
   14.0079  -66.4262  -41.2011 C   0  0  0  0  0  0  0  0  0  0  0  0
   15.1970  -65.3726  -39.0384 C   0  0  0  0  0  0  0  0  0  0  0  0
   19.3763  -62.9104  -34.6626 H   0  0  0  0  0  0  0  0  0  0  0  0
   16.6255  -65.1395  -35.1146 H   0  0  0  0  0  0  0  0  0  0  0  0
   18.3231  -64.1922  -30.5135 H   0  0  0  0  0  0  0  0  0  0  0  0
   18.9783  -65.3338  -31.3942 H   0  0  0  0  0  0  0  0  0  0  0  0
   19.8992  -64.3405  -30.5739 H   0  0  0  0  0  0  0  0  0  0  0  0
   13.7738  -67.0112  -44.8551 H   0  0  0  0  0  0  0  0  0  0  0  0
   15.8493  -66.8783  -43.8340 H   0  0  0  0  0  0  0  0  0  0  0  0
   11.8471  -66.7843  -43.5919 H   0  0  0  0  0  0  0  0  0  0  0  0
   15.9951  -66.5237  -41.5516 H   0  0  0  0  0  0  0  0  0  0  0  0
   11.9938  -66.4167  -41.3107 H   0  0  0  0  0  0  0  0  0  0  0  0
   17.5042  -63.1748  -39.6937 H   0  0  0  0  0  0  0  0  0  0  0  0
   15.8067  -64.3871  -40.7013 H   0  0  0  0  0  0  0  0  0  0  0  0
   14.9233  -66.1017  -37.1733 H   0  0  0  0  0  0  0  0  0  0  0  0
  1 16  2  0  0  0  0
  2 18  2  0  0  0  0
  3  7  1  0  0  0  0
  3 16  1  0  0  0  0
  4 17  2  0  0  0  0
  4 19  1  0  0  0  0
  5 16  1  0  0  0  0
  5 17  1  0  0  0  0
  5 23  1  0  0  0  0
  6 17  1  0  0  0  0
  6 20  1  0  0  0  0
  6 24  1  0  0  0  0
  7 25  1  0  0  0  0
  7 26  1  0  0  0  0
  7 27  1  0  0  0  0
  8  9  2  0  0  0  0
  8 10  1  0  0  0  0
  8 28  1  0  0  0  0
  9 11  1  0  0  0  0
  9 29  1  0  0  0  0
 10 12  2  0  0  0  0
 10 30  1  0  0  0  0
 11 21  2  0  0  0  0
 11 31  1  0  0  0  0
 12 21  1  0  0  0  0
 12 32  1  0  0  0  0
 13 14  1  0  0  0  0
 13 19  2  0  0  0  0
 13 33  1  0  0  0  0
 14 22  2  0  0  0  0
 14 34  1  0  0  0  0
 15 20  2  0  0  0  0
 15 22  1  0  0  0  0
 15 35  1  0  0  0  0
 18 21  1  0  0  0  0
 18 22  1  0  0  0  0
 19 20  1  0  0  0  0
M  END
> <pdb_id>
7OGN

> <uniprot_id>
P81947

> <usmiles>
O=C(OC)NC1=Nc2c(N1)cc(cc2)C(=O)c3ccccc3

$$$$
VAP_A_233
          07202402453D 1   1.00000     0.00000     0
            
 36 37  0  0  0  0            999 V2000
   -5.4957   10.5044   14.6638 O   0  0  0  0  0  0  0  0  0  0  0  0
   -2.1150    4.0231   16.6065 O   0  0  0  0  0  0  0  0  0  0  0  0
   -4.2342    3.5270   14.8718 O   0  0  0  0  0  0  0  0  0  0  0  0
   -5.7480    5.6432   13.8927 O   0  0  0  0  0  0  0  0  0  0  0  0
   -5.1442    8.2463   14.7952 N   0  0  0  0  0  0  0  0  0  0  0  0
   -1.1494    4.1969   17.6369 C   0  0  0  0  0  0  0  0  0  0  0  0
   -4.6799    2.4854   15.7188 C   0  0  0  0  0  0  0  0  0  0  0  0
   -6.7554    4.6262   13.8145 C   0  0  0  0  0  0  0  0  0  0  0  0
   -6.3192    8.0757   13.9113 C   0  0  0  0  0  0  0  0  0  0  0  0
   -1.7455    9.1720   17.3524 C   0  0  0  0  0  0  0  0  0  0  0  0
   -3.7075    9.8631   15.9755 C   0  0  0  0  0  0  0  0  0  0  0  0
   -2.5215    6.3333   16.5281 C   0  0  0  0  0  0  0  0  0  0  0  0
   -4.7720    9.5711   15.1106 C   0  0  0  0  0  0  0  0  0  0  0  0
   -2.8607    5.0490   16.1339 C   0  0  0  0  0  0  0  0  0  0  0  0
   -3.9204    4.7968   15.2840 C   0  0  0  0  0  0  0  0  0  0  0  0
   -4.6885    5.8432   14.7984 C   0  0  0  0  0  0  0  0  0  0  0  0
   -4.3619    7.1538   15.2127 C   0  0  0  0  0  0  0  0  0  0  0  0
   -2.9223    8.8194   16.4612 C   0  0  0  0  0  0  0  0  0  0  0  0
   -3.2741    7.4073   16.0676 C   0  0  0  0  0  0  0  0  0  0  0  0
   -0.7131    3.3194   17.8363 H   0  0  0  0  0  0  0  0  0  0  0  0
   -0.4568    4.8531   17.3375 H   0  0  0  0  0  0  0  0  0  0  0  0
   -1.5996    4.5401   18.4612 H   0  0  0  0  0  0  0  0  0  0  0  0
   -4.8402    1.6605   15.1767 H   0  0  0  0  0  0  0  0  0  0  0  0
   -3.9840    2.2986   16.4122 H   0  0  0  0  0  0  0  0  0  0  0  0
   -5.5308    2.7607   16.1663 H   0  0  0  0  0  0  0  0  0  0  0  0
   -7.3498    4.8054   13.0305 H   0  0  0  0  0  0  0  0  0  0  0  0
   -6.3195    3.7329   13.7051 H   0  0  0  0  0  0  0  0  0  0  0  0
   -7.2997    4.6310   14.6534 H   0  0  0  0  0  0  0  0  0  0  0  0
   -6.4842    7.1009   13.7606 H   0  0  0  0  0  0  0  0  0  0  0  0
   -7.1226    8.4872   14.3416 H   0  0  0  0  0  0  0  0  0  0  0  0
   -6.1445    8.5236   13.0344 H   0  0  0  0  0  0  0  0  0  0  0  0
   -1.2727    8.3348   17.6270 H   0  0  0  0  0  0  0  0  0  0  0  0
   -1.1132    9.7629   16.8514 H   0  0  0  0  0  0  0  0  0  0  0  0
   -2.0753    9.6508   18.1661 H   0  0  0  0  0  0  0  0  0  0  0  0
   -3.5145   10.8079   16.2403 H   0  0  0  0  0  0  0  0  0  0  0  0
   -1.7435    6.4860   17.1375 H   0  0  0  0  0  0  0  0  0  0  0  0
  1 13  2  0  0  0  0
  2  6  1  0  0  0  0
  2 14  1  0  0  0  0
  3  7  1  0  0  0  0
  3 15  1  0  0  0  0
  4  8  1  0  0  0  0
  4 16  1  0  0  0  0
  5  9  1  0  0  0  0
  5 13  1  0  0  0  0
  5 17  1  0  0  0  0
 10 18  1  0  0  0  0
 11 13  1  0  0  0  0
 11 18  2  0  0  0  0
 12 14  1  0  0  0  0
 12 19  2  0  0  0  0
 14 15  2  0  0  0  0
 15 16  1  0  0  0  0
 16 17  2  0  0  0  0
 17 19  1  0  0  0  0
 18 19  1  0  0  0  0
  6 20  1  0  0  0  0
  6 21  1  0  0  0  0
  6 22  1  0  0  0  0
  7 23  1  0  0  0  0
  7 24  1  0  0  0  0
  7 25  1  0  0  0  0
  8 26  1  0  0  0  0
  8 27  1  0  0  0  0
  8 28  1  0  0  0  0
  9 29  1  0  0  0  0
  9 30  1  0  0  0  0
  9 31  1  0  0  0  0
 10 32  1  0  0  0  0
 10 33  1  0  0  0  0
 10 34  1  0  0  0  0
 11 35  1  0  0  0  0
 12 36  1  0  0  0  0
M  END
> <pdb_id>
3NHK

> <uniprot_id>
P16083

> <usmiles>
O=C1N(c2c(OC)c(OC)c(OC)cc2C(=C1)C)C

$$$$
VBM_A_1001
          07192416373D 1   1.00000     0.00000     0
            
 51 54  0  0  0  0            999 V2000
  -10.7560   35.1080    0.0060 F   0  0  0  0  0  0  0  0  0  0  0  0
  -10.1150   33.4120   -1.0960 F   0  0  0  0  0  0  0  0  0  0  0  0
  -10.0790   33.4570    1.0750 F   0  0  0  0  0  0  0  0  0  0  0  0
   -5.9600   40.6620   -5.8910 O   0  0  0  0  0  0  0  0  0  0  0  0
   -6.8370   42.1570   -4.4670 O   0  0  0  0  0  0  0  0  0  0  0  0
  -10.0570   35.0600   -9.6430 N   0  0  0  0  0  0  0  0  0  0  0  0
   -3.3960   32.5590   -5.3440 N   0  0  0  0  0  0  0  0  0  0  0  0
   -5.4850   38.0940   -4.7650 N   0  0  0  0  0  0  0  0  0  0  0  0
   -6.4430   40.0510   -3.7160 N   0  0  0  0  0  0  0  0  0  0  0  0
   -6.3190   37.9380   -2.7350 N   0  0  0  0  0  0  0  0  0  0  0  0
   -5.3280   36.9100   -4.3850 N   0  0  0  0  0  0  0  0  0  0  0  0
   -5.8390   35.5750   -2.4130 N   0  0  0  0  0  0  0  0  0  0  0  0
   -7.3040   42.9500   -5.6180 C   0  0  0  0  0  0  0  0  0  0  0  0
   -4.9890   33.2090   -2.1350 C   0  0  0  0  0  0  0  0  0  0  0  0
   -9.1650   35.1530   -8.9370 C   0  0  0  0  0  0  0  0  0  0  0  0
   -3.9430   33.4530   -4.8890 C   0  0  0  0  0  0  0  0  0  0  0  0
   -6.7400   35.8880    1.2540 C   0  0  0  0  0  0  0  0  0  0  0  0
   -5.9990   36.0200    0.1000 C   0  0  0  0  0  0  0  0  0  0  0  0
   -8.3730   35.1500   -6.6390 C   0  0  0  0  0  0  0  0  0  0  0  0
   -6.7770   35.5180   -8.4290 C   0  0  0  0  0  0  0  0  0  0  0  0
   -7.2990   35.2910   -5.7260 C   0  0  0  0  0  0  0  0  0  0  0  0
   -5.7300   35.6340   -7.5100 C   0  0  0  0  0  0  0  0  0  0  0  0
   -7.9960   35.2510    1.2370 C   0  0  0  0  0  0  0  0  0  0  0  0
   -7.7290   34.9040   -1.1260 C   0  0  0  0  0  0  0  0  0  0  0  0
   -6.4030   40.9160   -4.7590 C   0  0  0  0  0  0  0  0  0  0  0  0
   -6.0780   38.7650   -3.7620 C   0  0  0  0  0  0  0  0  0  0  0  0
   -5.9220   36.7430   -3.1380 C   0  0  0  0  0  0  0  0  0  0  0  0
   -6.4670   35.5420   -1.1160 C   0  0  0  0  0  0  0  0  0  0  0  0
   -5.1500   34.4750   -2.9790 C   0  0  0  0  0  0  0  0  0  0  0  0
   -8.0990   35.2620   -7.9930 C   0  0  0  0  0  0  0  0  0  0  0  0
   -4.7980   35.7500   -5.1400 C   0  0  2  0  0  0  0  0  0  0  0  0
   -5.9720   35.5400   -6.1400 C   0  0  0  0  0  0  0  0  0  0  0  0
   -4.6410   34.5320   -4.2720 C   0  0  0  0  0  0  0  0  0  0  0  0
   -8.5060   34.7940    0.0280 C   0  0  0  0  0  0  0  0  0  0  0  0
   -9.8860   34.1480   -0.0030 C   0  0  0  0  0  0  0  0  0  0  0  0
   -6.7725   40.4034   -2.8401 H   0  0  0  0  0  0  0  0  0  0  0  0
   -7.6042   43.8503   -5.3027 H   0  0  0  0  0  0  0  0  0  0  0  0
   -6.5565   43.0585   -6.2733 H   0  0  0  0  0  0  0  0  0  0  0  0
   -8.0682   42.4794   -6.0590 H   0  0  0  0  0  0  0  0  0  0  0  0
   -4.4864   32.5210   -2.6586 H   0  0  0  0  0  0  0  0  0  0  0  0
   -4.4839   33.4271   -1.3000 H   0  0  0  0  0  0  0  0  0  0  0  0
   -5.8915   32.8515   -1.8949 H   0  0  0  0  0  0  0  0  0  0  0  0
   -6.3814   36.2492    2.1148 H   0  0  0  0  0  0  0  0  0  0  0  0
   -5.1064   36.4691    0.1394 H   0  0  0  0  0  0  0  0  0  0  0  0
   -9.3028   34.9746   -6.3156 H   0  0  0  0  0  0  0  0  0  0  0  0
   -6.5897   35.6171   -9.4063 H   0  0  0  0  0  0  0  0  0  0  0  0
   -7.4885   35.2109   -4.7474 H   0  0  0  0  0  0  0  0  0  0  0  0
   -4.7978   35.7860   -7.8385 H   0  0  0  0  0  0  0  0  0  0  0  0
   -8.5138   35.1292    2.0838 H   0  0  0  0  0  0  0  0  0  0  0  0
   -8.0739   34.5214   -1.9831 H   0  0  0  0  0  0  0  0  0  0  0  0
   -3.9470   35.9767   -5.6137 H   0  0  0  0  0  0  0  0  0  0  0  0
  1 35  1  0  0  0  0
  2 35  1  0  0  0  0
  3 35  1  0  0  0  0
  4 25  2  0  0  0  0
  5 13  1  0  0  0  0
  5 25  1  0  0  0  0
  6 15  3  0  0  0  0
  7 16  3  0  0  0  0
  8 11  1  0  0  0  0
  8 26  2  0  0  0  0
  9 25  1  0  0  0  0
  9 26  1  0  0  0  0
 10 26  1  0  0  0  0
 10 27  2  0  0  0  0
 11 27  1  0  0  0  0
 11 31  1  0  0  0  0
 12 27  1  0  0  0  0
 12 28  1  0  0  0  0
 12 29  1  0  0  0  0
 14 29  1  0  0  0  0
 15 30  1  0  0  0  0
 16 33  1  0  0  0  0
 17 18  2  0  0  0  0
 17 23  1  0  0  0  0
 18 28  1  0  0  0  0
 19 21  1  0  0  0  0
 19 30  2  0  0  0  0
 20 22  2  0  0  0  0
 20 30  1  0  0  0  0
 21 32  2  0  0  0  0
 22 32  1  0  0  0  0
 23 34  2  0  0  0  0
 24 28  2  0  0  0  0
 24 34  1  0  0  0  0
 29 33  2  0  0  0  0
 31 32  1  0  0  0  0
 31 33  1  0  0  0  0
 34 35  1  0  0  0  0
  9 36  1  0  0  0  0
 13 37  1  0  0  0  0
 13 38  1  0  0  0  0
 13 39  1  0  0  0  0
 14 40  1  0  0  0  0
 14 41  1  0  0  0  0
 14 42  1  0  0  0  0
 17 43  1  0  0  0  0
 18 44  1  0  0  0  0
 19 45  1  0  0  0  0
 20 46  1  0  0  0  0
 21 47  1  0  0  0  0
 22 48  1  0  0  0  0
 23 49  1  0  0  0  0
 24 50  1  0  0  0  0
 31 51  1  0  0  0  0
M  END
> <pdb_id>
5A8Y

> <uniprot_id>
P08246

> <usmiles>
FC(F)(F)c1cc(N2C3=NC(=NN3[C@H](c4ccc(C#N)cc4)C(C#N)=C2C)NC(=O)OC)ccc1

$$$$
VBZ_B_1868
          07192417363D 1   1.00000     0.00000     0
            
 41 43  0  0  0  0            999 V2000
  -17.4522   61.1902   48.1487 O   0  0  0  0  0  0  0  0  0  0  0  0
  -19.1243   55.2544   47.6781 O   0  0  0  0  0  0  0  0  0  0  0  0
  -20.0862   56.7812   45.9796 O   0  0  0  0  0  0  0  0  0  0  0  0
  -18.9874   59.4135   45.4886 O   0  0  0  0  0  0  0  0  0  0  0  0
  -19.5482   58.1285   48.9871 N   0  0  0  0  0  0  0  0  0  0  0  0
  -16.7500   60.3925   47.1654 C   0  0  0  0  0  0  0  0  0  0  0  0
  -19.4600   58.9701   50.2312 C   0  0  0  0  0  0  0  0  0  0  0  0
  -22.8541   61.6842   50.6738 C   0  0  0  0  0  0  0  0  0  0  0  0
  -23.0652   60.3265   50.5399 C   0  0  0  0  0  0  0  0  0  0  0  0
  -21.5376   62.1588   50.6551 C   0  0  0  0  0  0  0  0  0  0  0  0
  -19.7757   58.9640   47.7715 C   0  0  0  0  0  0  0  0  0  0  0  0
  -21.9688   59.4715   50.3984 C   0  0  0  0  0  0  0  0  0  0  0  0
  -20.4641   61.2979   50.5025 C   0  0  0  0  0  0  0  0  0  0  0  0
  -17.1751   58.4244   48.6285 C   0  0  0  0  0  0  0  0  0  0  0  0
  -18.2978   56.4317   47.5400 C   0  0  2  0  0  0  0  0  0  0  0  0
  -18.2815   57.3754   48.7980 C   0  0  2  0  0  0  0  0  0  0  0  0
  -20.6553   59.9352   50.3946 C   0  0  0  0  0  0  0  0  0  0  0  0
  -18.7504   57.2015   46.3079 C   0  0  2  0  0  0  0  0  0  0  0  0
  -17.2735   58.9700   47.2028 C   0  0  1  0  0  0  0  0  0  0  0  0
  -18.7007   58.6760   46.6875 C   0  0  1  0  0  0  0  0  0  0  0  0
  -17.1074   62.1286   48.1246 H   0  0  0  0  0  0  0  0  0  0  0  0
  -19.0774   54.7138   46.8381 H   0  0  0  0  0  0  0  0  0  0  0  0
  -20.4022   57.2768   45.1706 H   0  0  0  0  0  0  0  0  0  0  0  0
  -18.2877   59.2179   44.8015 H   0  0  0  0  0  0  0  0  0  0  0  0
  -15.7716   60.3934   47.3724 H   0  0  0  0  0  0  0  0  0  0  0  0
  -16.8984   60.7787   46.2550 H   0  0  0  0  0  0  0  0  0  0  0  0
  -18.6186   59.5091   50.1920 H   0  0  0  0  0  0  0  0  0  0  0  0
  -19.4301   58.3628   51.0251 H   0  0  0  0  0  0  0  0  0  0  0  0
  -23.6236   62.3136   50.7816 H   0  0  0  0  0  0  0  0  0  0  0  0
  -23.9948   59.9579   50.5442 H   0  0  0  0  0  0  0  0  0  0  0  0
  -21.3689   63.1395   50.7539 H   0  0  0  0  0  0  0  0  0  0  0  0
  -19.7325   59.9301   48.0261 H   0  0  0  0  0  0  0  0  0  0  0  0
  -20.6801   58.7579   47.3978 H   0  0  0  0  0  0  0  0  0  0  0  0
  -22.1333   58.4905   50.2960 H   0  0  0  0  0  0  0  0  0  0  0  0
  -19.5361   61.6690   50.4698 H   0  0  0  0  0  0  0  0  0  0  0  0
  -16.2798   58.0026   48.7716 H   0  0  0  0  0  0  0  0  0  0  0  0
  -17.3035   59.1657   49.2873 H   0  0  0  0  0  0  0  0  0  0  0  0
  -17.3595   56.1259   47.3785 H   0  0  0  0  0  0  0  0  0  0  0  0
  -18.0967   56.8308   49.6161 H   0  0  0  0  0  0  0  0  0  0  0  0
  -18.1334   57.0210   45.5419 H   0  0  0  0  0  0  0  0  0  0  0  0
  -16.6505   58.4223   46.6445 H   0  0  0  0  0  0  0  0  0  0  0  0
  1  6  1  0  0  0  0
  2 15  1  0  0  0  0
  3 18  1  0  0  0  0
  4 20  1  0  0  0  0
  5  7  1  0  0  0  0
  5 11  1  0  0  0  0
  5 16  1  0  0  0  0
  6 19  1  0  0  0  0
  7 17  1  0  0  0  0
  8  9  2  0  0  0  0
  8 10  1  0  0  0  0
  9 12  1  0  0  0  0
 10 13  2  0  0  0  0
 11 20  1  0  0  0  0
 12 17  2  0  0  0  0
 13 17  1  0  0  0  0
 14 16  1  0  0  0  0
 14 19  1  0  0  0  0
 15 16  1  0  0  0  0
 15 18  1  0  0  0  0
 18 20  1  0  0  0  0
 19 20  1  0  0  0  0
  1 21  1  0  0  0  0
  2 22  1  0  0  0  0
  3 23  1  0  0  0  0
  4 24  1  0  0  0  0
  6 25  1  0  0  0  0
  6 26  1  0  0  0  0
  7 27  1  0  0  0  0
  7 28  1  0  0  0  0
  8 29  1  0  0  0  0
  9 30  1  0  0  0  0
 10 31  1  0  0  0  0
 11 32  1  0  0  0  0
 11 33  1  0  0  0  0
 12 34  1  0  0  0  0
 13 35  1  0  0  0  0
 14 36  1  0  0  0  0
 14 37  1  0  0  0  0
 15 38  1  0  0  0  0
 16 39  1  0  0  0  0
 18 40  1  0  0  0  0
 19 41  1  0  0  0  0
M  END
> <pdb_id>
2VO5

> <uniprot_id>
Q8AAK6

> <usmiles>
O[C@@]12[C@H](O)[C@H](O)[C@H](N(Cc3ccccc3)C2)C[C@@H]1CO

$$$$
VD4_A_500
          07202400393D 1   1.00000     0.00000     0
            
 72 74  0  0  0  0            999 V2000
   15.5667    4.7839   18.1914 O   0  0  0  0  0  0  0  0  0  0  0  0
   17.6028    8.3485   19.1664 O   0  0  0  0  0  0  0  0  0  0  0  0
   10.3395   -1.2916   28.2080 O   0  0  0  0  0  0  0  0  0  0  0  0
   14.9826    0.5312   27.6937 C   0  0  0  0  0  0  0  0  0  0  0  0
   15.0314    7.3365   17.2196 C   0  0  0  0  0  0  0  0  0  0  0  0
    8.3151   -0.1567   27.9678 C   0  0  0  0  0  0  0  0  0  0  0  0
    9.6927   -0.7248   25.9512 C   0  0  0  0  0  0  0  0  0  0  0  0
   13.7210    3.7582   24.6365 C   0  0  0  0  0  0  0  0  0  0  0  0
   12.0251    0.8754   27.3177 C   0  0  0  0  0  0  0  0  0  0  0  0
   14.0137    6.4610   26.1104 C   0  0  0  0  0  0  0  0  0  0  0  0
   12.9094    2.0723   27.7376 C   0  0  0  0  0  0  0  0  0  0  0  0
   16.0318    7.0418   22.5542 C   0  0  0  0  0  0  0  0  0  0  0  0
   15.3784    6.8700   25.5215 C   0  0  0  0  0  0  0  0  0  0  0  0
   16.1858    5.7910   23.3580 C   0  0  0  0  0  0  0  0  0  0  0  0
   16.4569    2.2394   25.9803 C   0  0  0  0  0  0  0  0  0  0  0  0
   16.8485    3.2415   24.8813 C   0  0  0  0  0  0  0  0  0  0  0  0
   15.3492    5.8492   20.4194 C   0  0  0  0  0  0  0  0  0  0  0  0
   15.5817    8.4480   20.5400 C   0  0  0  0  0  0  0  0  0  0  0  0
   10.5185    1.0064   27.6340 C   0  0  0  0  0  0  0  0  0  0  0  0
   14.0805    5.0557   26.7941 C   0  0  0  0  0  0  0  0  0  0  0  0
   16.0013    5.8949   19.0234 C   0  0  2  0  0  0  0  0  0  0  0  0
   16.1618    8.4024   19.1165 C   0  0  2  0  0  0  0  0  0  0  0  0
   14.3306    1.8120   27.2512 C   0  0  0  0  0  0  0  0  0  0  0  0
   15.6810    7.1021   21.2400 C   0  0  0  0  0  0  0  0  0  0  0  0
   15.6720    7.1927   18.3680 C   0  0  0  0  0  0  0  0  0  0  0  0
   15.9340    5.7080   24.6923 C   0  0  0  0  0  0  0  0  0  0  0  0
   15.0585    2.6478   26.4443 C   0  0  0  0  0  0  0  0  0  0  0  0
   16.0887    4.4287   25.4830 C   0  0  1  0  0  0  0  0  0  0  0  0
    9.7297   -0.2912   27.4214 C   0  0  0  0  0  0  0  0  0  0  0  0
   14.6613    3.9874   25.8522 C   0  0  1  0  0  0  0  0  0  0  0  0
   16.0081    4.8453   17.2962 H   0  0  0  0  0  0  0  0  0  0  0  0
   17.9677    8.3192   18.2358 H   0  0  0  0  0  0  0  0  0  0  0  0
   11.2803   -1.4313   27.8990 H   0  0  0  0  0  0  0  0  0  0  0  0
   15.9052    0.4776   27.3118 H   0  0  0  0  0  0  0  0  0  0  0  0
   15.0334    0.5107   28.6922 H   0  0  0  0  0  0  0  0  0  0  0  0
   14.4427   -0.2464   27.3713 H   0  0  0  0  0  0  0  0  0  0  0  0
   14.8550    8.2514   16.8567 H   0  0  0  0  0  0  0  0  0  0  0  0
   14.7236    6.5302   16.7145 H   0  0  0  0  0  0  0  0  0  0  0  0
    7.8229    0.5430   27.4499 H   0  0  0  0  0  0  0  0  0  0  0  0
    7.8395   -1.0320   27.8808 H   0  0  0  0  0  0  0  0  0  0  0  0
    8.3537    0.1074   28.9315 H   0  0  0  0  0  0  0  0  0  0  0  0
    9.2591   -0.0093   25.4034 H   0  0  0  0  0  0  0  0  0  0  0  0
   10.6258   -0.8752   25.6245 H   0  0  0  0  0  0  0  0  0  0  0  0
    9.1692   -1.5726   25.8667 H   0  0  0  0  0  0  0  0  0  0  0  0
   14.1152    3.0616   24.0370 H   0  0  0  0  0  0  0  0  0  0  0  0
   12.8261    3.4515   24.9605 H   0  0  0  0  0  0  0  0  0  0  0  0
   13.6168    4.6139   24.1297 H   0  0  0  0  0  0  0  0  0  0  0  0
   12.3673    0.0618   27.7876 H   0  0  0  0  0  0  0  0  0  0  0  0
   12.1215    0.7550   26.3296 H   0  0  0  0  0  0  0  0  0  0  0  0
   13.3378    6.4321   25.3740 H   0  0  0  0  0  0  0  0  0  0  0  0
   13.7369    7.1401   26.7904 H   0  0  0  0  0  0  0  0  0  0  0  0
   12.9043    2.1634   28.7334 H   0  0  0  0  0  0  0  0  0  0  0  0
   12.5593    2.9128   27.3241 H   0  0  0  0  0  0  0  0  0  0  0  0
   16.2012    7.9092   23.0221 H   0  0  0  0  0  0  0  0  0  0  0  0
   16.0128    7.0851   26.2640 H   0  0  0  0  0  0  0  0  0  0  0  0
   15.2640    7.6737   24.9375 H   0  0  0  0  0  0  0  0  0  0  0  0
   16.4926    4.9645   22.8860 H   0  0  0  0  0  0  0  0  0  0  0  0
   17.1037    2.2882   26.7415 H   0  0  0  0  0  0  0  0  0  0  0  0
   16.4434    1.3091   25.6135 H   0  0  0  0  0  0  0  0  0  0  0  0
   16.5071    2.9800   23.9785 H   0  0  0  0  0  0  0  0  0  0  0  0
   17.8351    3.3973   24.8322 H   0  0  0  0  0  0  0  0  0  0  0  0
   15.6844    5.0434   20.9077 H   0  0  0  0  0  0  0  0  0  0  0  0
   14.3571    5.7850   20.3120 H   0  0  0  0  0  0  0  0  0  0  0  0
   14.6193    8.7143   20.4878 H   0  0  0  0  0  0  0  0  0  0  0  0
   16.0871    9.1268   21.0727 H   0  0  0  0  0  0  0  0  0  0  0  0
   10.1314    1.7121   27.0407 H   0  0  0  0  0  0  0  0  0  0  0  0
   10.4194    1.2832   28.5898 H   0  0  0  0  0  0  0  0  0  0  0  0
   13.1567    4.7824   27.0625 H   0  0  0  0  0  0  0  0  0  0  0  0
   14.6590    5.1188   27.6073 H   0  0  0  0  0  0  0  0  0  0  0  0
   16.9934    5.8386   19.1348 H   0  0  0  0  0  0  0  0  0  0  0  0
   15.8827    9.2265   18.6236 H   0  0  0  0  0  0  0  0  0  0  0  0
   16.5503    4.6677   26.3373 H   0  0  0  0  0  0  0  0  0  0  0  0
  1 21  1  0  0  0  0
  2 22  1  0  0  0  0
  3 29  1  0  0  0  0
  4 23  1  0  0  0  0
  5 25  2  0  0  0  0
  6 29  1  0  0  0  0
  7 29  1  0  0  0  0
  8 30  1  0  0  0  0
  9 11  1  0  0  0  0
  9 19  1  0  0  0  0
 10 13  1  0  0  0  0
 10 20  1  0  0  0  0
 11 23  1  0  0  0  0
 12 14  1  0  0  0  0
 12 24  2  0  0  0  0
 13 26  1  0  0  0  0
 14 26  2  0  0  0  0
 15 16  1  0  0  0  0
 15 27  1  0  0  0  0
 16 28  1  0  0  0  0
 17 21  1  0  0  0  0
 17 24  1  0  0  0  0
 18 22  1  0  0  0  0
 18 24  1  0  0  0  0
 19 29  1  0  0  0  0
 20 30  1  0  0  0  0
 21 25  1  0  0  0  0
 22 25  1  0  0  0  0
 23 27  2  0  0  0  0
 26 28  1  0  0  0  0
 27 30  1  0  0  0  0
 28 30  1  0  0  0  0
  1 31  1  0  0  0  0
  2 32  1  0  0  0  0
  3 33  1  0  0  0  0
  4 34  1  0  0  0  0
  4 35  1  0  0  0  0
  4 36  1  0  0  0  0
  5 37  1  0  0  0  0
  5 38  1  0  0  0  0
  6 39  1  0  0  0  0
  6 40  1  0  0  0  0
  6 41  1  0  0  0  0
  7 42  1  0  0  0  0
  7 43  1  0  0  0  0
  7 44  1  0  0  0  0
  8 45  1  0  0  0  0
  8 46  1  0  0  0  0
  8 47  1  0  0  0  0
  9 48  1  0  0  0  0
  9 49  1  0  0  0  0
 10 50  1  0  0  0  0
 10 51  1  0  0  0  0
 11 52  1  0  0  0  0
 11 53  1  0  0  0  0
 12 54  1  0  0  0  0
 13 55  1  0  0  0  0
 13 56  1  0  0  0  0
 14 57  1  0  0  0  0
 15 58  1  0  0  0  0
 15 59  1  0  0  0  0
 16 60  1  0  0  0  0
 16 61  1  0  0  0  0
 17 62  1  0  0  0  0
 17 63  1  0  0  0  0
 18 64  1  0  0  0  0
 18 65  1  0  0  0  0
 19 66  1  0  0  0  0
 19 67  1  0  0  0  0
 20 68  1  0  0  0  0
 20 69  1  0  0  0  0
 21 70  1  0  0  0  0
 22 71  1  0  0  0  0
 28 72  1  0  0  0  0
M  END
> <pdb_id>
2O4J

> <uniprot_id>
P13053

> <usmiles>
OC(CCC/C(=C/1\[C@@]2([C@H](/C(=C/C=C3C[C@@H](O)C(=C)[C@H](O)C3)/CCC2)CC1)C)/C)(C)C

$$$$
VD5_A_500
          07202400393D 1   1.00000     0.00000     0
            
 72 74  0  0  0  0            999 V2000
   17.6606    8.2999   19.1540 O   0  0  0  0  0  0  0  0  0  0  0  0
   15.4303    4.9237   18.0540 O   0  0  0  0  0  0  0  0  0  0  0  0
   10.2065   -1.7997   28.1557 O   0  0  0  0  0  0  0  0  0  0  0  0
   12.1046    3.3681   28.2306 C   0  0  0  0  0  0  0  0  0  0  0  0
   15.0881    7.3382   17.2078 C   0  0  0  0  0  0  0  0  0  0  0  0
    9.7238   -1.2691   25.8601 C   0  0  0  0  0  0  0  0  0  0  0  0
    8.3252   -0.3394   27.6691 C   0  0  0  0  0  0  0  0  0  0  0  0
   12.9669    4.4408   24.9496 C   0  0  0  0  0  0  0  0  0  0  0  0
   12.0790    0.2167   27.0878 C   0  0  0  0  0  0  0  0  0  0  0  0
   14.3646    6.8481   26.3972 C   0  0  0  0  0  0  0  0  0  0  0  0
   13.0246    1.0218   27.9693 C   0  0  0  0  0  0  0  0  0  0  0  0
   15.9323    6.9672   22.5559 C   0  0  0  0  0  0  0  0  0  0  0  0
   15.6131    6.8931   25.4967 C   0  0  0  0  0  0  0  0  0  0  0  0
   15.8545    5.6760   23.2815 C   0  0  0  0  0  0  0  0  0  0  0  0
   14.9252    1.9985   25.8076 C   0  0  0  0  0  0  0  0  0  0  0  0
   15.7265    2.9424   24.8609 C   0  0  0  0  0  0  0  0  0  0  0  0
   15.7472    8.4475   20.5747 C   0  0  0  0  0  0  0  0  0  0  0  0
   15.3269    5.8535   20.3561 C   0  0  0  0  0  0  0  0  0  0  0  0
   10.6272    0.4729   27.5097 C   0  0  0  0  0  0  0  0  0  0  0  0
   14.0475    5.4713   27.0479 C   0  0  0  0  0  0  0  0  0  0  0  0
   16.2350    8.4338   19.1290 C   0  0  2  0  0  0  0  0  0  0  0  0
   15.9785    5.8974   18.9532 C   0  0  2  0  0  0  0  0  0  0  0  0
   13.0785    2.4594   27.5068 C   0  0  0  0  0  0  0  0  0  0  0  0
   15.6865    7.0701   21.2126 C   0  0  0  0  0  0  0  0  0  0  0  0
   15.7163    7.2321   18.3745 C   0  0  0  0  0  0  0  0  0  0  0  0
   15.6921    5.6252   24.6443 C   0  0  0  0  0  0  0  0  0  0  0  0
   13.9434    2.8921   26.5440 C   0  0  0  0  0  0  0  0  0  0  0  0
   15.5032    4.3360   25.4525 C   0  0  1  0  0  0  0  0  0  0  0  0
    9.7417   -0.7427   27.3073 C   0  0  0  0  0  0  0  0  0  0  0  0
   14.0738    4.3158   26.0267 C   0  0  1  0  0  0  0  0  0  0  0  0
   18.0108    8.2878   18.2174 H   0  0  0  0  0  0  0  0  0  0  0  0
   15.8854    4.9960   17.1665 H   0  0  0  0  0  0  0  0  0  0  0  0
   10.2272   -1.4817   29.1035 H   0  0  0  0  0  0  0  0  0  0  0  0
   12.1924    4.2995   27.8775 H   0  0  0  0  0  0  0  0  0  0  0  0
   11.1710    3.0419   28.0819 H   0  0  0  0  0  0  0  0  0  0  0  0
   12.3078    3.3621   29.2097 H   0  0  0  0  0  0  0  0  0  0  0  0
   14.7599    6.5174   16.7402 H   0  0  0  0  0  0  0  0  0  0  0  0
   14.9437    8.2387   16.7978 H   0  0  0  0  0  0  0  0  0  0  0  0
    9.4020   -0.5477   25.2469 H   0  0  0  0  0  0  0  0  0  0  0  0
   10.6475   -1.5450   25.5942 H   0  0  0  0  0  0  0  0  0  0  0  0
    9.1103   -2.0565   25.7993 H   0  0  0  0  0  0  0  0  0  0  0  0
    8.0238    0.3980   27.0646 H   0  0  0  0  0  0  0  0  0  0  0  0
    7.7173   -1.1264   27.5636 H   0  0  0  0  0  0  0  0  0  0  0  0
    8.3004   -0.0239   28.6177 H   0  0  0  0  0  0  0  0  0  0  0  0
   13.0295    3.6694   24.3163 H   0  0  0  0  0  0  0  0  0  0  0  0
   12.0699    4.4373   25.3916 H   0  0  0  0  0  0  0  0  0  0  0  0
   13.0870    5.2963   24.4459 H   0  0  0  0  0  0  0  0  0  0  0  0
   12.2851   -0.7572   27.1832 H   0  0  0  0  0  0  0  0  0  0  0  0
   12.2004    0.4912   26.1339 H   0  0  0  0  0  0  0  0  0  0  0  0
   13.5764    7.1138   25.8421 H   0  0  0  0  0  0  0  0  0  0  0  0
   14.4932    7.5128   27.1332 H   0  0  0  0  0  0  0  0  0  0  0  0
   13.9409    0.6246   27.9187 H   0  0  0  0  0  0  0  0  0  0  0  0
   12.6999    0.9916   28.9147 H   0  0  0  0  0  0  0  0  0  0  0  0
   16.1730    7.7928   23.0663 H   0  0  0  0  0  0  0  0  0  0  0  0
   16.4310    6.9589   26.0683 H   0  0  0  0  0  0  0  0  0  0  0  0
   15.5601    7.6918   24.8974 H   0  0  0  0  0  0  0  0  0  0  0  0
   15.9220    4.8218   22.7659 H   0  0  0  0  0  0  0  0  0  0  0  0
   15.5409    1.5493   26.4549 H   0  0  0  0  0  0  0  0  0  0  0  0
   14.4362    1.3060   25.2772 H   0  0  0  0  0  0  0  0  0  0  0  0
   15.3735    2.8920   23.9267 H   0  0  0  0  0  0  0  0  0  0  0  0
   16.6983    2.7067   24.8632 H   0  0  0  0  0  0  0  0  0  0  0  0
   14.8299    8.8451   20.5945 H   0  0  0  0  0  0  0  0  0  0  0  0
   16.3690    9.0171   21.1122 H   0  0  0  0  0  0  0  0  0  0  0  0
   15.6369    5.0277   20.8272 H   0  0  0  0  0  0  0  0  0  0  0  0
   14.3335    5.8217   20.2466 H   0  0  0  0  0  0  0  0  0  0  0  0
   10.2635    1.2290   26.9656 H   0  0  0  0  0  0  0  0  0  0  0  0
   10.6136    0.7222   28.4780 H   0  0  0  0  0  0  0  0  0  0  0  0
   13.1378    5.5136   27.4610 H   0  0  0  0  0  0  0  0  0  0  0  0
   14.7277    5.2877   27.7576 H   0  0  0  0  0  0  0  0  0  0  0  0
   15.9717    9.2788   18.6636 H   0  0  0  0  0  0  0  0  0  0  0  0
   16.9650    5.7570   19.0378 H   0  0  0  0  0  0  0  0  0  0  0  0
   16.1180    4.4070   26.2379 H   0  0  0  0  0  0  0  0  0  0  0  0
  1 21  1  0  0  0  0
  2 22  1  0  0  0  0
  3 29  1  0  0  0  0
  4 23  1  0  0  0  0
  5 25  2  0  0  0  0
  6 29  1  0  0  0  0
  7 29  1  0  0  0  0
  8 30  1  0  0  0  0
  9 11  1  0  0  0  0
  9 19  1  0  0  0  0
 10 13  1  0  0  0  0
 10 20  1  0  0  0  0
 11 23  1  0  0  0  0
 12 14  1  0  0  0  0
 12 24  2  0  0  0  0
 13 26  1  0  0  0  0
 14 26  2  0  0  0  0
 15 16  1  0  0  0  0
 15 27  1  0  0  0  0
 16 28  1  0  0  0  0
 17 21  1  0  0  0  0
 17 24  1  0  0  0  0
 18 22  1  0  0  0  0
 18 24  1  0  0  0  0
 19 29  1  0  0  0  0
 20 30  1  0  0  0  0
 21 25  1  0  0  0  0
 22 25  1  0  0  0  0
 23 27  2  0  0  0  0
 26 28  1  0  0  0  0
 27 30  1  0  0  0  0
 28 30  1  0  0  0  0
  1 31  1  0  0  0  0
  2 32  1  0  0  0  0
  3 33  1  0  0  0  0
  4 34  1  0  0  0  0
  4 35  1  0  0  0  0
  4 36  1  0  0  0  0
  5 37  1  0  0  0  0
  5 38  1  0  0  0  0
  6 39  1  0  0  0  0
  6 40  1  0  0  0  0
  6 41  1  0  0  0  0
  7 42  1  0  0  0  0
  7 43  1  0  0  0  0
  7 44  1  0  0  0  0
  8 45  1  0  0  0  0
  8 46  1  0  0  0  0
  8 47  1  0  0  0  0
  9 48  1  0  0  0  0
  9 49  1  0  0  0  0
 10 50  1  0  0  0  0
 10 51  1  0  0  0  0
 11 52  1  0  0  0  0
 11 53  1  0  0  0  0
 12 54  1  0  0  0  0
 13 55  1  0  0  0  0
 13 56  1  0  0  0  0
 14 57  1  0  0  0  0
 15 58  1  0  0  0  0
 15 59  1  0  0  0  0
 16 60  1  0  0  0  0
 16 61  1  0  0  0  0
 17 62  1  0  0  0  0
 17 63  1  0  0  0  0
 18 64  1  0  0  0  0
 18 65  1  0  0  0  0
 19 66  1  0  0  0  0
 19 67  1  0  0  0  0
 20 68  1  0  0  0  0
 20 69  1  0  0  0  0
 21 70  1  0  0  0  0
 22 71  1  0  0  0  0
 28 72  1  0  0  0  0
M  END
> <pdb_id>
2O4R

> <uniprot_id>
P13053

> <usmiles>
OC(CCC/C(=C\1/[C@@]2([C@H](/C(=C/C=C3C[C@@H](O)C(=C)[C@H](O)C3)/CCC2)CC1)C)/C)(C)C

$$$$
VD9_A_302
          07192416293D 1   1.00000     0.00000     0
            
 27 27  0  0  0  0            999 V2000
   -3.9249    6.0073   13.7476 S   0  0  0  0  0  0  0  0  0  0  0  0
   -5.9179    0.9481   16.9408 S   0  0  0  0  0  0  0  0  0  0  0  0
   -5.3716    1.0677   18.2505 O   0  0  0  0  0  0  0  0  0  0  0  0
   -7.3576    1.0048   16.8215 O   0  0  0  0  0  0  0  0  0  0  0  0
   -5.3945   -0.4251   16.2282 N   0  0  0  0  0  0  0  0  0  0  0  0
   -1.6375    8.0793   14.7676 C   0  0  0  0  0  0  0  0  0  0  0  0
   -2.0470    5.9789   13.7848 C   0  0  0  0  0  0  0  0  0  0  0  0
   -1.5191    7.3611   13.4226 C   0  0  0  0  0  0  0  0  0  0  0  0
   -3.5486    3.5367   14.9839 C   0  0  0  0  0  0  0  0  0  0  0  0
   -5.7818    4.5236   14.9994 C   0  0  0  0  0  0  0  0  0  0  0  0
   -4.0110    2.3877   15.6733 C   0  0  0  0  0  0  0  0  0  0  0  0
   -6.2523    3.4057   15.7246 C   0  0  0  0  0  0  0  0  0  0  0  0
   -4.4311    4.5731   14.6511 C   0  0  0  0  0  0  0  0  0  0  0  0
   -5.3518    2.3552   16.0386 C   0  0  0  0  0  0  0  0  0  0  0  0
   -5.7861   -0.4946   15.3107 H   0  0  0  0  0  0  0  0  0  0  0  0
   -4.3967   -0.4080   16.1643 H   0  0  0  0  0  0  0  0  0  0  0  0
   -1.3163    9.0215   14.6717 H   0  0  0  0  0  0  0  0  0  0  0  0
   -2.5933    8.0813   15.0615 H   0  0  0  0  0  0  0  0  0  0  0  0
   -1.0801    7.6049   15.4490 H   0  0  0  0  0  0  0  0  0  0  0  0
   -1.7094    5.3081   13.1245 H   0  0  0  0  0  0  0  0  0  0  0  0
   -1.7342    5.7308   14.7016 H   0  0  0  0  0  0  0  0  0  0  0  0
   -0.5703    7.3215   13.1095 H   0  0  0  0  0  0  0  0  0  0  0  0
   -2.0834    7.7979   12.7220 H   0  0  0  0  0  0  0  0  0  0  0  0
   -2.5833    3.6083   14.7327 H   0  0  0  0  0  0  0  0  0  0  0  0
   -6.4033    5.2633   14.7412 H   0  0  0  0  0  0  0  0  0  0  0  0
   -3.3959    1.6292   15.8888 H   0  0  0  0  0  0  0  0  0  0  0  0
   -7.2085    3.3557   16.0132 H   0  0  0  0  0  0  0  0  0  0  0  0
  1  7  1  0  0  0  0
  1 13  1  0  0  0  0
  2  3  2  0  0  0  0
  2  4  2  0  0  0  0
  2  5  1  0  0  0  0
  2 14  1  0  0  0  0
  6  8  1  0  0  0  0
  7  8  1  0  0  0  0
  9 11  2  0  0  0  0
  9 13  1  0  0  0  0
 10 12  1  0  0  0  0
 10 13  2  0  0  0  0
 11 14  1  0  0  0  0
 12 14  2  0  0  0  0
  5 15  1  0  0  0  0
  5 16  1  0  0  0  0
  6 17  1  0  0  0  0
  6 18  1  0  0  0  0
  6 19  1  0  0  0  0
  7 20  1  0  0  0  0
  7 21  1  0  0  0  0
  8 22  1  0  0  0  0
  8 23  1  0  0  0  0
  9 24  1  0  0  0  0
 10 25  1  0  0  0  0
 11 26  1  0  0  0  0
 12 27  1  0  0  0  0
M  END
> <pdb_id>
5LLG

> <uniprot_id>
P00918

> <usmiles>
S(=O)(=O)(N)c1ccc(SCCC)cc1

$$$$
VD9_B_308
          07192419453D 1   1.00000     0.00000     0
            
 27 27  0  0  0  0            999 V2000
    4.7772   13.7017  -37.4591 S   0  0  0  0  0  0  0  0  0  0  0  0
    6.6908    7.8122  -36.2997 S   0  0  0  0  0  0  0  0  0  0  0  0
    7.4600    7.9391  -35.0841 O   0  0  0  0  0  0  0  0  0  0  0  0
    5.5079    7.0294  -36.2296 O   0  0  0  0  0  0  0  0  0  0  0  0
    7.5403    7.2613  -37.5624 N   0  0  0  0  0  0  0  0  0  0  0  0
    1.5654   13.9050  -34.9515 C   0  0  0  0  0  0  0  0  0  0  0  0
    3.0401   13.8193  -36.8766 C   0  0  0  0  0  0  0  0  0  0  0  0
    3.0452   13.8670  -35.3449 C   0  0  0  0  0  0  0  0  0  0  0  0
    6.5525   11.8105  -37.3507 C   0  0  0  0  0  0  0  0  0  0  0  0
    4.3174   11.1091  -36.7507 C   0  0  0  0  0  0  0  0  0  0  0  0
    7.0287   10.5213  -37.0816 C   0  0  0  0  0  0  0  0  0  0  0  0
    4.7769    9.7749  -36.5402 C   0  0  0  0  0  0  0  0  0  0  0  0
    5.2339   11.9770  -37.1678 C   0  0  0  0  0  0  0  0  0  0  0  0
    6.1557    9.4673  -36.6517 C   0  0  0  0  0  0  0  0  0  0  0  0
    6.9449    7.2002  -38.3635 H   0  0  0  0  0  0  0  0  0  0  0  0
    8.2953    7.8881  -37.7552 H   0  0  0  0  0  0  0  0  0  0  0  0
    1.4861   13.9375  -33.9552 H   0  0  0  0  0  0  0  0  0  0  0  0
    1.1362   14.7171  -35.3467 H   0  0  0  0  0  0  0  0  0  0  0  0
    1.1079   13.0852  -35.2958 H   0  0  0  0  0  0  0  0  0  0  0  0
    2.5249   13.0208  -37.1879 H   0  0  0  0  0  0  0  0  0  0  0  0
    2.6181   14.6503  -37.2390 H   0  0  0  0  0  0  0  0  0  0  0  0
    3.4894   13.0541  -34.9683 H   0  0  0  0  0  0  0  0  0  0  0  0
    3.5177   14.6860  -35.0193 H   0  0  0  0  0  0  0  0  0  0  0  0
    7.1505   12.5514  -37.6563 H   0  0  0  0  0  0  0  0  0  0  0  0
    3.3660   11.3746  -36.5945 H   0  0  0  0  0  0  0  0  0  0  0  0
    8.0040   10.3302  -37.1921 H   0  0  0  0  0  0  0  0  0  0  0  0
    4.1229    9.0534  -36.3128 H   0  0  0  0  0  0  0  0  0  0  0  0
  1  7  1  0  0  0  0
  1 13  1  0  0  0  0
  2  3  2  0  0  0  0
  2  4  2  0  0  0  0
  2  5  1  0  0  0  0
  2 14  1  0  0  0  0
  6  8  1  0  0  0  0
  7  8  1  0  0  0  0
  9 11  2  0  0  0  0
  9 13  1  0  0  0  0
 10 12  1  0  0  0  0
 10 13  2  0  0  0  0
 11 14  1  0  0  0  0
 12 14  2  0  0  0  0
  5 15  1  0  0  0  0
  5 16  1  0  0  0  0
  6 17  1  0  0  0  0
  6 18  1  0  0  0  0
  6 19  1  0  0  0  0
  7 20  1  0  0  0  0
  7 21  1  0  0  0  0
  8 22  1  0  0  0  0
  8 23  1  0  0  0  0
  9 24  1  0  0  0  0
 10 25  1  0  0  0  0
 11 26  1  0  0  0  0
 12 27  1  0  0  0  0
M  END
> <pdb_id>
4WW8

> <uniprot_id>
O43570

> <usmiles>
S(=O)(=O)(N)c1ccc(SCCC)cc1

$$$$
VDB_A_500
          07202400393D 1   1.00000     0.00000     0
            
 80 82  0  0  0  0            999 V2000
   12.0270    2.5493   28.2041 S   0  0  0  0  0  0  0  0  0  0  0  0
   14.9100    6.7143   13.9958 O   0  0  0  0  0  0  0  0  0  0  0  0
   15.4788    4.7339   17.9585 O   0  0  0  0  0  0  0  0  0  0  0  0
   17.4268    8.2734   19.1126 O   0  0  0  0  0  0  0  0  0  0  0  0
   11.2267   -0.4888   28.1875 O   0  0  0  0  0  0  0  0  0  0  0  0
   15.8029    7.4293   16.7889 O   0  0  0  0  0  0  0  0  0  0  0  0
    8.5212   -0.3545   29.4573 C   0  0  0  0  0  0  0  0  0  0  0  0
    8.4452    0.3152   25.6142 C   0  0  0  0  0  0  0  0  0  0  0  0
   14.6452    1.9180   29.0761 C   0  0  0  0  0  0  0  0  0  0  0  0
   12.9648    4.1406   25.3782 C   0  0  0  0  0  0  0  0  0  0  0  0
   15.2311    7.9601   14.6082 C   0  0  0  0  0  0  0  0  0  0  0  0
   10.8550    1.6662   27.1066 C   0  0  0  0  0  0  0  0  0  0  0  0
   14.7170    8.0416   16.0517 C   0  0  0  0  0  0  0  0  0  0  0  0
    9.2129    0.7659   28.6599 C   0  0  0  0  0  0  0  0  0  0  0  0
    9.5385   -0.4228   26.4120 C   0  0  0  0  0  0  0  0  0  0  0  0
   14.7244    6.4588   26.8014 C   0  0  0  0  0  0  0  0  0  0  0  0
   15.8909    6.4972   25.7778 C   0  0  0  0  0  0  0  0  0  0  0  0
   15.6537    6.6229   22.4901 C   0  0  0  0  0  0  0  0  0  0  0  0
   15.6552    5.5428   23.3723 C   0  0  0  0  0  0  0  0  0  0  0  0
   15.1031    1.7471   25.7066 C   0  0  0  0  0  0  0  0  0  0  0  0
   15.6271    2.6910   24.5997 C   0  0  0  0  0  0  0  0  0  0  0  0
   15.3251    5.5984   20.1676 C   0  0  0  0  0  0  0  0  0  0  0  0
   15.5678    8.2258   20.5740 C   0  0  0  0  0  0  0  0  0  0  0  0
   14.4120    5.0164   27.3406 C   0  0  0  0  0  0  0  0  0  0  0  0
   13.6858    1.7893   27.8785 C   0  0  2  0  0  0  0  0  0  0  0  0
   15.9118    5.8251   18.7669 C   0  0  2  0  0  0  0  0  0  0  0  0
   16.0040    8.3351   19.0860 C   0  0  2  0  0  0  0  0  0  0  0  0
   15.4186    7.1847   18.1765 C   0  0  3  0  0  0  0  0  0  0  0  0
   15.5256    6.7791   21.1260 C   0  0  0  0  0  0  0  0  0  0  0  0
   15.7544    5.3702   24.7416 C   0  0  0  0  0  0  0  0  0  0  0  0
   14.3598    2.4326   26.6064 C   0  0  0  0  0  0  0  0  0  0  0  0
   15.6702    3.9628   25.4511 C   0  0  1  0  0  0  0  0  0  0  0  0
   10.2405    0.3411   27.5745 C   0  0  0  0  0  0  0  0  0  0  0  0
   14.3000    3.9369   26.2057 C   0  0  1  0  0  0  0  0  0  0  0  0
   15.2617    6.7026   13.0597 H   0  0  0  0  0  0  0  0  0  0  0  0
   15.8400    4.8414   17.0323 H   0  0  0  0  0  0  0  0  0  0  0  0
   17.7807    8.3386   18.1796 H   0  0  0  0  0  0  0  0  0  0  0  0
   10.8041   -1.3452   28.4841 H   0  0  0  0  0  0  0  0  0  0  0  0
    7.8887    0.0488   30.1186 H   0  0  0  0  0  0  0  0  0  0  0  0
    8.0150   -0.9463   28.8300 H   0  0  0  0  0  0  0  0  0  0  0  0
    9.2105   -0.8936   29.9412 H   0  0  0  0  0  0  0  0  0  0  0  0
    8.0842   -0.2901   24.9048 H   0  0  0  0  0  0  0  0  0  0  0  0
    7.7056    0.5833   26.2317 H   0  0  0  0  0  0  0  0  0  0  0  0
    8.8365    1.1312   25.1887 H   0  0  0  0  0  0  0  0  0  0  0  0
   15.5215    1.4936   28.8482 H   0  0  0  0  0  0  0  0  0  0  0  0
   14.7879    2.8852   29.2864 H   0  0  0  0  0  0  0  0  0  0  0  0
   14.2492    1.4589   29.8713 H   0  0  0  0  0  0  0  0  0  0  0  0
   12.9083    3.4465   24.6605 H   0  0  0  0  0  0  0  0  0  0  0  0
   12.1777    4.0536   25.9887 H   0  0  0  0  0  0  0  0  0  0  0  0
   12.9656    5.0503   24.9629 H   0  0  0  0  0  0  0  0  0  0  0  0
   14.8161    8.6978   14.0758 H   0  0  0  0  0  0  0  0  0  0  0  0
   16.2249    8.0706   14.6130 H   0  0  0  0  0  0  0  0  0  0  0  0
   11.3408    1.4770   26.2532 H   0  0  0  0  0  0  0  0  0  0  0  0
   10.0961    2.2920   26.9265 H   0  0  0  0  0  0  0  0  0  0  0  0
   14.5745    8.9902   16.3344 H   0  0  0  0  0  0  0  0  0  0  0  0
   13.8659    7.5288   16.1645 H   0  0  0  0  0  0  0  0  0  0  0  0
    9.6929    1.3485   29.3158 H   0  0  0  0  0  0  0  0  0  0  0  0
    8.4974    1.2957   28.2046 H   0  0  0  0  0  0  0  0  0  0  0  0
   10.2491   -0.6928   25.7623 H   0  0  0  0  0  0  0  0  0  0  0  0
    9.1182   -1.2406   26.8052 H   0  0  0  0  0  0  0  0  0  0  0  0
   13.9023    6.8161   26.3581 H   0  0  0  0  0  0  0  0  0  0  0  0
   14.9648    7.0418   27.5775 H   0  0  0  0  0  0  0  0  0  0  0  0
   16.7572    6.3893   26.2655 H   0  0  0  0  0  0  0  0  0  0  0  0
   15.8820    7.3784   25.3051 H   0  0  0  0  0  0  0  0  0  0  0  0
   15.7750    7.4965   22.9612 H   0  0  0  0  0  0  0  0  0  0  0  0
   15.5604    4.6703   22.8929 H   0  0  0  0  0  0  0  0  0  0  0  0
   15.2880    0.7654   25.7516 H   0  0  0  0  0  0  0  0  0  0  0  0
   14.9941    2.7668   23.8293 H   0  0  0  0  0  0  0  0  0  0  0  0
   16.5303    2.4238   24.2640 H   0  0  0  0  0  0  0  0  0  0  0  0
   15.7633    4.7924   20.5654 H   0  0  0  0  0  0  0  0  0  0  0  0
   14.3434    5.4323   20.0742 H   0  0  0  0  0  0  0  0  0  0  0  0
   14.6530    8.6202   20.6611 H   0  0  0  0  0  0  0  0  0  0  0  0
   16.2122    8.7528   21.1280 H   0  0  0  0  0  0  0  0  0  0  0  0
   13.5448    5.0448   27.8377 H   0  0  0  0  0  0  0  0  0  0  0  0
   15.1452    4.7456   27.9644 H   0  0  0  0  0  0  0  0  0  0  0  0
   13.5487    0.8157   27.6961 H   0  0  0  0  0  0  0  0  0  0  0  0
   16.9104    5.8263   18.8193 H   0  0  0  0  0  0  0  0  0  0  0  0
   15.7184    9.2217   18.7222 H   0  0  0  0  0  0  0  0  0  0  0  0
   14.4208    7.2116   18.2370 H   0  0  0  0  0  0  0  0  0  0  0  0
   16.4125    3.8866   26.1168 H   0  0  0  0  0  0  0  0  0  0  0  0
  1 12  1  0  0  0  0
  1 25  1  0  0  0  0
  2 11  1  0  0  0  0
  3 26  1  0  0  0  0
  4 27  1  0  0  0  0
  5 33  1  0  0  0  0
  6 13  1  0  0  0  0
  6 28  1  0  0  0  0
  7 14  1  0  0  0  0
  8 15  1  0  0  0  0
  9 25  1  0  0  0  0
 10 34  1  0  0  0  0
 11 13  1  0  0  0  0
 12 33  1  0  0  0  0
 14 33  1  0  0  0  0
 15 33  1  0  0  0  0
 16 17  1  0  0  0  0
 16 24  1  0  0  0  0
 17 30  1  0  0  0  0
 18 19  1  0  0  0  0
 18 29  2  0  0  0  0
 19 30  2  0  0  0  0
 20 21  1  0  0  0  0
 20 31  2  0  0  0  0
 21 32  1  0  0  0  0
 22 26  1  0  0  0  0
 22 29  1  0  0  0  0
 23 27  1  0  0  0  0
 23 29  1  0  0  0  0
 24 34  1  0  0  0  0
 25 31  1  0  0  0  0
 26 28  1  0  0  0  0
 27 28  1  0  0  0  0
 30 32  1  0  0  0  0
 31 34  1  0  0  0  0
 32 34  1  0  0  0  0
  2 35  1  0  0  0  0
  3 36  1  0  0  0  0
  4 37  1  0  0  0  0
  5 38  1  0  0  0  0
  7 39  1  0  0  0  0
  7 40  1  0  0  0  0
  7 41  1  0  0  0  0
  8 42  1  0  0  0  0
  8 43  1  0  0  0  0
  8 44  1  0  0  0  0
  9 45  1  0  0  0  0
  9 46  1  0  0  0  0
  9 47  1  0  0  0  0
 10 48  1  0  0  0  0
 10 49  1  0  0  0  0
 10 50  1  0  0  0  0
 11 51  1  0  0  0  0
 11 52  1  0  0  0  0
 12 53  1  0  0  0  0
 12 54  1  0  0  0  0
 13 55  1  0  0  0  0
 13 56  1  0  0  0  0
 14 57  1  0  0  0  0
 14 58  1  0  0  0  0
 15 59  1  0  0  0  0
 15 60  1  0  0  0  0
 16 61  1  0  0  0  0
 16 62  1  0  0  0  0
 17 63  1  0  0  0  0
 17 64  1  0  0  0  0
 18 65  1  0  0  0  0
 19 66  1  0  0  0  0
 20 67  1  0  0  0  0
 21 68  1  0  0  0  0
 21 69  1  0  0  0  0
 22 70  1  0  0  0  0
 22 71  1  0  0  0  0
 23 72  1  0  0  0  0
 23 73  1  0  0  0  0
 24 74  1  0  0  0  0
 24 75  1  0  0  0  0
 25 76  1  0  0  0  0
 26 77  1  0  0  0  0
 27 78  1  0  0  0  0
 28 79  1  0  0  0  0
 32 80  1  0  0  0  0
M  END
> <pdb_id>
2ZLA

> <uniprot_id>
P13053

> <usmiles>
S([C@@H](C1=CC[C@H]2/C(=C/C=C3C[C@@H](O)C(OCCO)[C@H](O)C3)/CCC[C@]12C)C)CC(O)(CC)CC

$$$$
VDM_A_609
          07192421313D 1   1.00000     0.00000     0
            
 48 49  0  0  0  0            999 V2000
   19.8650   50.8920   15.2812 O   0  0  0  0  0  0  0  0  0  0  0  0
   20.1226   51.9584    6.1985 O   0  0  0  0  0  0  0  0  0  0  0  0
   19.2563   46.2256   13.3632 O   0  0  0  0  0  0  0  0  0  0  0  0
   15.0289   49.3976    8.1359 O   0  0  0  0  0  0  0  0  0  0  0  0
   20.5546   46.9017   10.9414 O   0  0  0  0  0  0  0  0  0  0  0  0
   16.1428   49.2907   10.6444 O   0  0  0  0  0  0  0  0  0  0  0  0
   17.5566   48.2428   14.4516 O   0  0  0  0  0  0  0  0  0  0  0  0
   16.4489   50.2970    5.9651 O   0  0  0  0  0  0  0  0  0  0  0  0
   18.8155   49.1042   10.2252 N   0  0  0  0  0  0  0  0  0  0  0  0
   18.7563   51.0161   14.4241 C   0  0  0  0  0  0  0  0  0  0  0  0
   18.7243   51.9416    6.3360 C   0  0  0  0  0  0  0  0  0  0  0  0
   19.5788   50.2542   12.2647 C   0  0  0  0  0  0  0  0  0  0  0  0
   18.8333   51.1353    8.7384 C   0  0  0  0  0  0  0  0  0  0  0  0
   19.0325   47.4645   12.7372 C   0  0  2  0  0  0  0  0  0  0  0  0
   16.3928   49.6469    8.2782 C   0  0  2  0  0  0  0  0  0  0  0  0
   20.2395   47.8929   11.8842 C   0  0  2  0  0  0  0  0  0  0  0  0
   16.6608   50.1826    9.6860 C   0  0  2  0  0  0  0  0  0  0  0  0
   18.8052   48.4909   13.8450 C   0  0  1  0  0  0  0  0  0  0  0  0
   16.8047   50.7071    7.2629 C   0  0  1  0  0  0  0  0  0  0  0  0
   19.9201   49.2240   11.1863 C   0  0  1  0  0  0  0  0  0  0  0  0
   18.1664   50.3842    9.9171 C   0  0  1  0  0  0  0  0  0  0  0  0
   18.8687   49.9369   13.3440 C   0  0  0  0  0  0  0  0  0  0  0  0
   18.3195   50.8399    7.3212 C   0  0  1  0  0  0  0  0  0  0  0  0
   19.8128   51.5887   15.9967 H   0  0  0  0  0  0  0  0  0  0  0  0
   20.3857   52.6776    5.5555 H   0  0  0  0  0  0  0  0  0  0  0  0
   18.4550   45.9777   13.9078 H   0  0  0  0  0  0  0  0  0  0  0  0
   14.8482   49.0471    7.2170 H   0  0  0  0  0  0  0  0  0  0  0  0
   21.3399   47.1969   10.3972 H   0  0  0  0  0  0  0  0  0  0  0  0
   16.3213   49.6466   11.5617 H   0  0  0  0  0  0  0  0  0  0  0  0
   17.4005   48.9115   15.1786 H   0  0  0  0  0  0  0  0  0  0  0  0
   16.7230   50.9983    5.3071 H   0  0  0  0  0  0  0  0  0  0  0  0
   18.1293   48.4851   10.6072 H   0  0  0  0  0  0  0  0  0  0  0  0
   18.7552   51.9217   13.9999 H   0  0  0  0  0  0  0  0  0  0  0  0
   17.9107   50.8900   14.9428 H   0  0  0  0  0  0  0  0  0  0  0  0
   18.3042   51.7635    5.4462 H   0  0  0  0  0  0  0  0  0  0  0  0
   18.4128   52.8272    6.6804 H   0  0  0  0  0  0  0  0  0  0  0  0
   19.8994   51.1950   12.1549 H   0  0  0  0  0  0  0  0  0  0  0  0
   19.8079   50.9122    8.7552 H   0  0  0  0  0  0  0  0  0  0  0  0
   18.7126   52.1145    8.9017 H   0  0  0  0  0  0  0  0  0  0  0  0
   18.2175   47.4068   12.1607 H   0  0  0  0  0  0  0  0  0  0  0  0
   16.9128   48.8063    8.1263 H   0  0  0  0  0  0  0  0  0  0  0  0
   21.0271   48.0263   12.4858 H   0  0  0  0  0  0  0  0  0  0  0  0
   16.2001   51.0644    9.7866 H   0  0  0  0  0  0  0  0  0  0  0  0
   19.5178   48.3680   14.5357 H   0  0  0  0  0  0  0  0  0  0  0  0
   16.3717   51.5818    7.4806 H   0  0  0  0  0  0  0  0  0  0  0  0
   20.7363   49.5321   10.6976 H   0  0  0  0  0  0  0  0  0  0  0  0
   18.2633   50.9639   10.7262 H   0  0  0  0  0  0  0  0  0  0  0  0
   18.7231   49.9784    7.0132 H   0  0  0  0  0  0  0  0  0  0  0  0
  1 10  1  0  0  0  0
  2 11  1  0  0  0  0
  3 14  1  0  0  0  0
  4 15  1  0  0  0  0
  5 16  1  0  0  0  0
  6 17  1  0  0  0  0
  7 18  1  0  0  0  0
  8 19  1  0  0  0  0
  9 20  1  0  0  0  0
  9 21  1  0  0  0  0
 10 22  1  0  0  0  0
 11 23  1  0  0  0  0
 12 20  1  0  0  0  0
 12 22  2  0  0  0  0
 13 21  1  0  0  0  0
 13 23  1  0  0  0  0
 14 16  1  0  0  0  0
 14 18  1  0  0  0  0
 15 17  1  0  0  0  0
 15 19  1  0  0  0  0
 16 20  1  0  0  0  0
 17 21  1  0  0  0  0
 18 22  1  0  0  0  0
 19 23  1  0  0  0  0
  1 24  1  0  0  0  0
  2 25  1  0  0  0  0
  3 26  1  0  0  0  0
  4 27  1  0  0  0  0
  5 28  1  0  0  0  0
  6 29  1  0  0  0  0
  7 30  1  0  0  0  0
  8 31  1  0  0  0  0
  9 32  1  0  0  0  0
 10 33  1  0  0  0  0
 10 34  1  0  0  0  0
 11 35  1  0  0  0  0
 11 36  1  0  0  0  0
 12 37  1  0  0  0  0
 13 38  1  0  0  0  0
 13 39  1  0  0  0  0
 14 40  1  0  0  0  0
 15 41  1  0  0  0  0
 16 42  1  0  0  0  0
 17 43  1  0  0  0  0
 18 44  1  0  0  0  0
 19 45  1  0  0  0  0
 20 46  1  0  0  0  0
 21 47  1  0  0  0  0
 23 48  1  0  0  0  0
M  END
> <pdb_id>
5Z66

> <uniprot_id>
nan

> <usmiles>
O[C@@H]1C(=C[C@H](N[C@@H]2[C@H](O)[C@@H](O)[C@H](O)[C@@H](CO)C2)[C@H](O)[C@H]1O)CO

$$$$
VDZ_A_500
          07202400393D 1   1.00000     0.00000     0
            
 74 76  0  0  0  0            999 V2000
   15.5255    4.7347   18.1997 O   0  0  0  0  0  0  0  0  0  0  0  0
   17.4723    8.4072   19.1221 O   0  0  0  0  0  0  0  0  0  0  0  0
   10.2365   -1.3898   28.1860 O   0  0  0  0  0  0  0  0  0  0  0  0
   15.0855    0.4703   27.4769 C   0  0  0  0  0  0  0  0  0  0  0  0
   15.0039    7.3375   17.2838 C   0  0  0  0  0  0  0  0  0  0  0  0
    8.3569    0.0029   28.1137 C   0  0  0  0  0  0  0  0  0  0  0  0
    9.4240   -0.9788   26.0152 C   0  0  0  0  0  0  0  0  0  0  0  0
   13.9844    3.6843   24.5610 C   0  0  0  0  0  0  0  0  0  0  0  0
   12.0209    0.6291   27.2900 C   0  0  0  0  0  0  0  0  0  0  0  0
   13.9495    6.4120   25.9580 C   0  0  0  0  0  0  0  0  0  0  0  0
   12.9052    1.8681   27.2053 C   0  0  0  0  0  0  0  0  0  0  0  0
   16.1212    7.1940   22.6262 C   0  0  0  0  0  0  0  0  0  0  0  0
   15.3010    6.9838   25.4632 C   0  0  0  0  0  0  0  0  0  0  0  0
   16.3341    5.9723   23.4601 C   0  0  0  0  0  0  0  0  0  0  0  0
   16.5381    2.1820   25.6942 C   0  0  0  0  0  0  0  0  0  0  0  0
   17.0657    3.3978   24.8656 C   0  0  0  0  0  0  0  0  0  0  0  0
   15.4665    5.8883   20.3826 C   0  0  0  0  0  0  0  0  0  0  0  0
   15.6226    8.4767   20.6296 C   0  0  0  0  0  0  0  0  0  0  0  0
   10.5344    0.9024   27.5137 C   0  0  0  0  0  0  0  0  0  0  0  0
   14.0035    5.0401   26.6775 C   0  0  0  0  0  0  0  0  0  0  0  0
   16.0212    5.8862   18.9294 C   0  0  2  0  0  0  0  0  0  0  0  0
   15.9747    8.4872   19.1698 C   0  0  2  0  0  0  0  0  0  0  0  0
   14.3097    1.5217   26.6477 C   0  0  1  0  0  0  0  0  0  0  0  0
   15.7357    7.1313   21.2685 C   0  0  0  0  0  0  0  0  0  0  0  0
   15.6733    7.2213   18.4120 C   0  0  0  0  0  0  0  0  0  0  0  0
   16.0112    5.8768   24.7330 C   0  0  0  0  0  0  0  0  0  0  0  0
   15.2832    2.6805   26.5003 C   0  0  2  0  0  0  0  0  0  0  0  0
   16.2676    4.5534   25.4233 C   0  0  1  0  0  0  0  0  0  0  0  0
    9.6405   -0.3753   27.4327 C   0  0  0  0  0  0  0  0  0  0  0  0
   14.8400    4.0161   25.8911 C   0  0  1  0  0  0  0  0  0  0  0  0
   15.8904    4.7475   17.2688 H   0  0  0  0  0  0  0  0  0  0  0  0
   17.7761    8.4100   18.1694 H   0  0  0  0  0  0  0  0  0  0  0  0
   11.0966   -1.6634   27.7554 H   0  0  0  0  0  0  0  0  0  0  0  0
   15.9760    0.3032   27.0539 H   0  0  0  0  0  0  0  0  0  0  0  0
   15.2173    0.8111   28.4077 H   0  0  0  0  0  0  0  0  0  0  0  0
   14.5644   -0.3827   27.5048 H   0  0  0  0  0  0  0  0  0  0  0  0
   14.7681    8.2439   16.9334 H   0  0  0  0  0  0  0  0  0  0  0  0
   14.7313    6.5193   16.7776 H   0  0  0  0  0  0  0  0  0  0  0  0
    7.9062    0.7297   27.5955 H   0  0  0  0  0  0  0  0  0  0  0  0
    7.7563   -0.7953   28.1598 H   0  0  0  0  0  0  0  0  0  0  0  0
    8.5533    0.3261   29.0394 H   0  0  0  0  0  0  0  0  0  0  0  0
    8.9966   -0.2951   25.4236 H   0  0  0  0  0  0  0  0  0  0  0  0
   10.3062   -1.2487   25.6295 H   0  0  0  0  0  0  0  0  0  0  0  0
    8.8298   -1.7804   26.0814 H   0  0  0  0  0  0  0  0  0  0  0  0
   14.4799    3.0184   24.0033 H   0  0  0  0  0  0  0  0  0  0  0  0
   13.0963    3.3057   24.8217 H   0  0  0  0  0  0  0  0  0  0  0  0
   13.8474    4.5236   24.0348 H   0  0  0  0  0  0  0  0  0  0  0  0
   12.3492    0.0664   28.0487 H   0  0  0  0  0  0  0  0  0  0  0  0
   12.1163    0.1222   26.4333 H   0  0  0  0  0  0  0  0  0  0  0  0
   13.3508    6.3152   25.1630 H   0  0  0  0  0  0  0  0  0  0  0  0
   13.5540    7.0741   26.5946 H   0  0  0  0  0  0  0  0  0  0  0  0
   13.0055    2.2597   28.1200 H   0  0  0  0  0  0  0  0  0  0  0  0
   12.4713    2.5372   26.6020 H   0  0  0  0  0  0  0  0  0  0  0  0
   16.2570    8.0914   23.0458 H   0  0  0  0  0  0  0  0  0  0  0  0
   15.8500    7.2881   26.2417 H   0  0  0  0  0  0  0  0  0  0  0  0
   15.1418    7.7543   24.8460 H   0  0  0  0  0  0  0  0  0  0  0  0
   16.7491    5.1747   23.0224 H   0  0  0  0  0  0  0  0  0  0  0  0
   17.2462    1.8635   26.3245 H   0  0  0  0  0  0  0  0  0  0  0  0
   16.2777    1.4362   25.0810 H   0  0  0  0  0  0  0  0  0  0  0  0
   16.8863    3.2737   23.8896 H   0  0  0  0  0  0  0  0  0  0  0  0
   18.0458    3.5339   25.0096 H   0  0  0  0  0  0  0  0  0  0  0  0
   15.8619    5.0987   20.8518 H   0  0  0  0  0  0  0  0  0  0  0  0
   14.4746    5.7773   20.3212 H   0  0  0  0  0  0  0  0  0  0  0  0
   14.6796    8.7943   20.7286 H   0  0  0  0  0  0  0  0  0  0  0  0
   16.2376    9.1046   21.1066 H   0  0  0  0  0  0  0  0  0  0  0  0
   10.2242    1.5491   26.8169 H   0  0  0  0  0  0  0  0  0  0  0  0
   10.4215    1.3094   28.4202 H   0  0  0  0  0  0  0  0  0  0  0  0
   13.0722    4.6897   26.7768 H   0  0  0  0  0  0  0  0  0  0  0  0
   14.4110    5.1647   27.5822 H   0  0  0  0  0  0  0  0  0  0  0  0
   17.0179    5.8201   18.9763 H   0  0  0  0  0  0  0  0  0  0  0  0
   15.6248    9.2992   18.7028 H   0  0  0  0  0  0  0  0  0  0  0  0
   14.1753    1.1343   25.7357 H   0  0  0  0  0  0  0  0  0  0  0  0
   15.6093    2.8894   27.4222 H   0  0  0  0  0  0  0  0  0  0  0  0
   16.7363    4.7978   26.2722 H   0  0  0  0  0  0  0  0  0  0  0  0
  1 21  1  0  0  0  0
  2 22  1  0  0  0  0
  3 29  1  0  0  0  0
  4 23  1  0  0  0  0
  5 25  2  0  0  0  0
  6 29  1  0  0  0  0
  7 29  1  0  0  0  0
  8 30  1  0  0  0  0
  9 11  1  0  0  0  0
  9 19  1  0  0  0  0
 10 13  1  0  0  0  0
 10 20  1  0  0  0  0
 11 23  1  0  0  0  0
 12 14  1  0  0  0  0
 12 24  2  0  0  0  0
 13 26  1  0  0  0  0
 14 26  2  0  0  0  0
 15 16  1  0  0  0  0
 15 27  1  0  0  0  0
 16 28  1  0  0  0  0
 17 21  1  0  0  0  0
 17 24  1  0  0  0  0
 18 22  1  0  0  0  0
 18 24  1  0  0  0  0
 19 29  1  0  0  0  0
 20 30  1  0  0  0  0
 21 25  1  0  0  0  0
 22 25  1  0  0  0  0
 23 27  1  0  0  0  0
 26 28  1  0  0  0  0
 27 30  1  0  0  0  0
 28 30  1  0  0  0  0
  1 31  1  0  0  0  0
  2 32  1  0  0  0  0
  3 33  1  0  0  0  0
  4 34  1  0  0  0  0
  4 35  1  0  0  0  0
  4 36  1  0  0  0  0
  5 37  1  0  0  0  0
  5 38  1  0  0  0  0
  6 39  1  0  0  0  0
  6 40  1  0  0  0  0
  6 41  1  0  0  0  0
  7 42  1  0  0  0  0
  7 43  1  0  0  0  0
  7 44  1  0  0  0  0
  8 45  1  0  0  0  0
  8 46  1  0  0  0  0
  8 47  1  0  0  0  0
  9 48  1  0  0  0  0
  9 49  1  0  0  0  0
 10 50  1  0  0  0  0
 10 51  1  0  0  0  0
 11 52  1  0  0  0  0
 11 53  1  0  0  0  0
 12 54  1  0  0  0  0
 13 55  1  0  0  0  0
 13 56  1  0  0  0  0
 14 57  1  0  0  0  0
 15 58  1  0  0  0  0
 15 59  1  0  0  0  0
 16 60  1  0  0  0  0
 16 61  1  0  0  0  0
 17 62  1  0  0  0  0
 17 63  1  0  0  0  0
 18 64  1  0  0  0  0
 18 65  1  0  0  0  0
 19 66  1  0  0  0  0
 19 67  1  0  0  0  0
 20 68  1  0  0  0  0
 20 69  1  0  0  0  0
 21 70  1  0  0  0  0
 22 71  1  0  0  0  0
 23 72  1  0  0  0  0
 27 73  1  0  0  0  0
 28 74  1  0  0  0  0
M  END
> <pdb_id>
1RJK

> <uniprot_id>
P13053

> <usmiles>
OC(CCC[C@@H]([C@@H]1[C@@]2([C@H](/C(=C/C=C3C[C@@H](O)C(=C)[C@H](O)C3)/CCC2)CC1)C)C)(C)C

$$$$
VE1_A_501
          07202417423D 1   1.00000     0.00000     0
            
 35 37  0  0  0  0            999 V2000
    6.5930   26.6830   -2.9830 Cl  0  0  0  0  0  0  0  0  0  0  0  0
   17.7610   24.6690   -3.1030 F   0  0  0  0  0  0  0  0  0  0  0  0
    9.7140   22.8720   -1.2520 N   0  0  0  0  0  0  0  0  0  0  0  0
   11.6120   28.8270   -2.1970 N   0  0  0  0  0  0  0  0  0  0  0  0
    8.2640   24.7320   -2.0650 N   0  0  0  0  0  0  0  0  0  0  0  0
   10.6770   25.2060   -1.4930 N   0  0  0  0  0  0  0  0  0  0  0  0
   12.8430   29.4200   -1.9970 N   0  0  0  0  0  0  0  0  0  0  0  0
   13.1900   30.7870   -2.3580 C   0  0  0  0  0  0  0  0  0  0  0  0
   13.6530   28.5040   -1.4400 C   0  0  0  0  0  0  0  0  0  0  0  0
   14.1010   23.6490   -3.8360 C   0  0  0  0  0  0  0  0  0  0  0  0
   15.6090   23.7350   -3.9770 C   0  0  0  0  0  0  0  0  0  0  0  0
   13.3740   24.4050   -2.7320 C   0  0  0  0  0  0  0  0  0  0  0  0
    9.2230   27.0980   -2.3260 C   0  0  0  0  0  0  0  0  0  0  0  0
   15.6820   25.3720   -1.9150 C   0  0  0  0  0  0  0  0  0  0  0  0
   13.4420   26.0380   -0.6920 C   0  0  0  0  0  0  0  0  0  0  0  0
    8.1310   26.1190   -2.4140 C   0  0  0  0  0  0  0  0  0  0  0  0
    9.5580   24.2620   -1.5960 C   0  0  0  0  0  0  0  0  0  0  0  0
   16.4020   24.5890   -3.0050 C   0  0  0  0  0  0  0  0  0  0  0  0
   10.5270   26.5990   -1.8380 C   0  0  0  0  0  0  0  0  0  0  0  0
   11.6830   27.5770   -1.7570 C   0  0  0  0  0  0  0  0  0  0  0  0
   14.1720   25.2680   -1.7760 C   0  0  0  0  0  0  0  0  0  0  0  0
   12.9460   27.3500   -1.2870 C   0  0  0  0  0  0  0  0  0  0  0  0
    9.0280   22.3500   -1.2300 H   0  0  0  0  0  0  0  0  0  0  0  0
   10.4940   22.5600   -1.0510 H   0  0  0  0  0  0  0  0  0  0  0  0
   12.6030   31.4040   -1.8920 H   0  0  0  0  0  0  0  0  0  0  0  0
   13.0890   30.9050   -3.3150 H   0  0  0  0  0  0  0  0  0  0  0  0
   14.1100   30.9640   -2.1060 H   0  0  0  0  0  0  0  0  0  0  0  0
   14.5420   28.6350   -1.2000 H   0  0  0  0  0  0  0  0  0  0  0  0
   13.6130   23.1270   -4.4330 H   0  0  0  0  0  0  0  0  0  0  0  0
   16.0440   23.2680   -4.6530 H   0  0  0  0  0  0  0  0  0  0  0  0
   12.4510   24.3380   -2.6460 H   0  0  0  0  0  0  0  0  0  0  0  0
    9.1010   27.9880   -2.5660 H   0  0  0  0  0  0  0  0  0  0  0  0
   16.1660   25.9140   -1.3340 H   0  0  0  0  0  0  0  0  0  0  0  0
   14.0470   26.2200    0.0440 H   0  0  0  0  0  0  0  0  0  0  0  0
   12.6890   25.5180   -0.3710 H   0  0  0  0  0  0  0  0  0  0  0  0
  1 16  1  0  0  0  0
  2 18  1  0  0  0  0
  3 17  1  0  0  0  0
  3 23  1  0  0  0  0
  3 24  1  0  0  0  0
  4  7  1  0  0  0  0
  4 20  2  0  0  0  0
  5 16  1  0  0  0  0
  5 17  2  0  0  0  0
  6 17  1  0  0  0  0
  6 19  2  0  0  0  0
  7  8  1  0  0  0  0
  7  9  1  0  0  0  0
  8 25  1  0  0  0  0
  8 26  1  0  0  0  0
  8 27  1  0  0  0  0
  9 22  2  0  0  0  0
  9 28  1  0  0  0  0
 10 11  2  0  0  0  0
 10 12  1  0  0  0  0
 10 29  1  0  0  0  0
 11 18  1  0  0  0  0
 11 30  1  0  0  0  0
 12 21  2  0  0  0  0
 12 31  1  0  0  0  0
 13 16  2  0  0  0  0
 13 19  1  0  0  0  0
 13 32  1  0  0  0  0
 14 18  2  0  0  0  0
 14 21  1  0  0  0  0
 14 33  1  0  0  0  0
 15 21  1  0  0  0  0
 15 22  1  0  0  0  0
 15 34  1  0  0  0  0
 15 35  1  0  0  0  0
 19 20  1  0  0  0  0
 20 22  1  0  0  0  0
M  END
> <pdb_id>
8COJ

> <uniprot_id>
Q96PN6

> <usmiles>
Clc1nc(nc(c1)C2=NN(C=C2Cc3cc(F)ccc3)C)N

$$$$
VFA_C_501
          07202412083D 1   1.00000     0.00000     0
            
 44 47  0  0  0  0            999 V2000
  -65.3543  -24.8460   84.4233 O   0  0  0  0  0  0  0  0  0  0  0  0
  -64.5942  -18.7207   82.7587 O   0  0  0  0  0  0  0  0  0  0  0  0
  -68.6377  -28.4328   83.1455 O   0  0  0  0  0  0  0  0  0  0  0  0
  -72.4285  -30.6909   85.2148 N   0  0  0  0  0  0  0  0  0  0  0  0
  -66.4719  -23.6309   85.9441 N   0  0  0  0  0  0  0  0  0  0  0  0
  -63.2082  -18.7806   83.1025 C   0  0  0  0  0  0  0  0  0  0  0  0
  -69.2130  -29.7155   83.4495 C   0  0  0  0  0  0  0  0  0  0  0  0
  -72.5221  -29.6722   86.0698 C   0  0  0  0  0  0  0  0  0  0  0  0
  -71.3828  -30.6879   84.3826 C   0  0  0  0  0  0  0  0  0  0  0  0
  -65.5831  -22.4823   85.8389 C   0  0  0  0  0  0  0  0  0  0  0  0
  -67.6869  -20.4240   83.4443 C   0  0  0  0  0  0  0  0  0  0  0  0
  -71.6147  -28.6348   86.1336 C   0  0  0  0  0  0  0  0  0  0  0  0
  -66.7618  -19.5385   82.9260 C   0  0  0  0  0  0  0  0  0  0  0  0
  -67.3030  -21.3867   84.3636 C   0  0  0  0  0  0  0  0  0  0  0  0
  -68.3690  -25.7069   86.2265 C   0  0  0  0  0  0  0  0  0  0  0  0
  -69.4102  -26.6156   86.2320 C   0  0  0  0  0  0  0  0  0  0  0  0
  -65.0550  -20.6003   84.2562 C   0  0  0  0  0  0  0  0  0  0  0  0
  -67.4701  -26.7220   84.2484 C   0  0  0  0  0  0  0  0  0  0  0  0
  -66.3087  -24.7192   85.1859 C   0  0  0  0  0  0  0  0  0  0  0  0
  -65.4436  -19.6344   83.3347 C   0  0  0  0  0  0  0  0  0  0  0  0
  -68.5319  -27.6117   84.2420 C   0  0  0  0  0  0  0  0  0  0  0  0
  -65.9892  -21.4812   84.7865 C   0  0  0  0  0  0  0  0  0  0  0  0
  -70.4157  -29.7124   84.3442 C   0  0  0  0  0  0  0  0  0  0  0  0
  -67.3901  -25.7506   85.2404 C   0  0  0  0  0  0  0  0  0  0  0  0
  -69.5031  -27.5961   85.2445 C   0  0  0  0  0  0  0  0  0  0  0  0
  -70.5351  -28.6489   85.2496 C   0  0  0  0  0  0  0  0  0  0  0  0
  -67.2249  -23.6047   86.6017 H   0  0  0  0  0  0  0  0  0  0  0  0
  -62.7122  -18.0629   82.6138 H   0  0  0  0  0  0  0  0  0  0  0  0
  -63.1031  -18.6466   84.0879 H   0  0  0  0  0  0  0  0  0  0  0  0
  -62.8396  -19.6742   82.8465 H   0  0  0  0  0  0  0  0  0  0  0  0
  -68.5067  -30.2685   83.8914 H   0  0  0  0  0  0  0  0  0  0  0  0
  -69.4782  -30.1423   82.5849 H   0  0  0  0  0  0  0  0  0  0  0  0
  -73.2963  -29.6591   86.7026 H   0  0  0  0  0  0  0  0  0  0  0  0
  -71.2979  -31.4508   83.7416 H   0  0  0  0  0  0  0  0  0  0  0  0
  -64.6660  -22.8145   85.6184 H   0  0  0  0  0  0  0  0  0  0  0  0
  -65.5653  -22.0172   86.7240 H   0  0  0  0  0  0  0  0  0  0  0  0
  -68.6421  -20.3695   83.1534 H   0  0  0  0  0  0  0  0  0  0  0  0
  -71.7275  -27.8934   86.7951 H   0  0  0  0  0  0  0  0  0  0  0  0
  -67.0403  -18.8402   82.2667 H   0  0  0  0  0  0  0  0  0  0  0  0
  -67.9848  -22.0220   84.7263 H   0  0  0  0  0  0  0  0  0  0  0  0
  -68.3191  -25.0090   86.9409 H   0  0  0  0  0  0  0  0  0  0  0  0
  -70.1037  -26.5698   86.9510 H   0  0  0  0  0  0  0  0  0  0  0  0
  -64.0977  -20.6613   84.5389 H   0  0  0  0  0  0  0  0  0  0  0  0
  -66.7640  -26.7780   83.5425 H   0  0  0  0  0  0  0  0  0  0  0  0
  1 19  2  0  0  0  0
  2  6  1  0  0  0  0
  2 20  1  0  0  0  0
  3  7  1  0  0  0  0
  3 21  1  0  0  0  0
  4  8  2  0  0  0  0
  4  9  1  0  0  0  0
  5 10  1  0  0  0  0
  5 19  1  0  0  0  0
  7 23  1  0  0  0  0
  8 12  1  0  0  0  0
  9 23  2  0  0  0  0
 10 22  1  0  0  0  0
 11 13  2  0  0  0  0
 11 14  1  0  0  0  0
 12 26  2  0  0  0  0
 13 20  1  0  0  0  0
 14 22  2  0  0  0  0
 15 16  1  0  0  0  0
 15 24  2  0  0  0  0
 16 25  2  0  0  0  0
 17 20  2  0  0  0  0
 17 22  1  0  0  0  0
 18 21  2  0  0  0  0
 18 24  1  0  0  0  0
 19 24  1  0  0  0  0
 21 25  1  0  0  0  0
 23 26  1  0  0  0  0
 25 26  1  0  0  0  0
  5 27  1  0  0  0  0
  6 28  1  0  0  0  0
  6 29  1  0  0  0  0
  6 30  1  0  0  0  0
  7 31  1  0  0  0  0
  7 32  1  0  0  0  0
  8 33  1  0  0  0  0
  9 34  1  0  0  0  0
 10 35  1  0  0  0  0
 10 36  1  0  0  0  0
 11 37  1  0  0  0  0
 12 38  1  0  0  0  0
 13 39  1  0  0  0  0
 14 40  1  0  0  0  0
 15 41  1  0  0  0  0
 16 42  1  0  0  0  0
 17 43  1  0  0  0  0
 18 44  1  0  0  0  0
M  END
> <pdb_id>
7JNT

> <uniprot_id>
O75116

> <usmiles>
O=C(NCc1cc(OC)ccc1)c2cc3OCc4c(c3cc2)ccnc4

$$$$
VFG_A_302
          07192416293D 1   1.00000     0.00000     0
            
 22 22  0  0  0  0            999 V2000
   -6.0605    3.4368   15.1352 S   0  0  0  0  0  0  0  0  0  0  0  0
   -5.8885    0.9770   16.8271 S   0  0  0  0  0  0  0  0  0  0  0  0
   -5.4048    1.1466   18.1768 O   0  0  0  0  0  0  0  0  0  0  0  0
   -7.3413    1.1315   16.7635 O   0  0  0  0  0  0  0  0  0  0  0  0
   -7.0280    5.5015   13.4319 O   0  0  0  0  0  0  0  0  0  0  0  0
   -5.3492   -0.4711   16.1761 N   0  0  0  0  0  0  0  0  0  0  0  0
   -3.8785    2.3150   15.6134 N   0  0  0  0  0  0  0  0  0  0  0  0
   -3.6156    3.5309   14.6943 N   0  0  0  0  0  0  0  0  0  0  0  0
   -4.7621    5.2952   13.6003 N   0  0  0  0  0  0  0  0  0  0  0  0
   -7.0260    7.8882   11.9449 C   0  0  0  0  0  0  0  0  0  0  0  0
   -5.7647    7.0851   12.1952 C   0  0  0  0  0  0  0  0  0  0  0  0
   -5.2465    2.2795   15.8139 C   0  0  0  0  0  0  0  0  0  0  0  0
   -4.8370    4.1490   14.4542 C   0  0  0  0  0  0  0  0  0  0  0  0
   -5.9607    5.9041   13.1222 C   0  0  0  0  0  0  0  0  0  0  0  0
   -5.6958   -0.5666   15.2430 H   0  0  0  0  0  0  0  0  0  0  0  0
   -4.3493   -0.4786   16.1627 H   0  0  0  0  0  0  0  0  0  0  0  0
   -3.8718    5.6685   13.3393 H   0  0  0  0  0  0  0  0  0  0  0  0
   -6.8207    8.6475   11.3274 H   0  0  0  0  0  0  0  0  0  0  0  0
   -7.7194    7.2992   11.5300 H   0  0  0  0  0  0  0  0  0  0  0  0
   -7.3698    8.2478   12.8124 H   0  0  0  0  0  0  0  0  0  0  0  0
   -5.0805    7.6921   12.5994 H   0  0  0  0  0  0  0  0  0  0  0  0
   -5.4301    6.7435   11.3169 H   0  0  0  0  0  0  0  0  0  0  0  0
  1 12  1  0  0  0  0
  1 13  1  0  0  0  0
  2  3  2  0  0  0  0
  2  4  2  0  0  0  0
  2  6  1  0  0  0  0
  2 12  1  0  0  0  0
  5 14  2  0  0  0  0
  7  8  1  0  0  0  0
  7 12  2  0  0  0  0
  8 13  2  0  0  0  0
  9 13  1  0  0  0  0
  9 14  1  0  0  0  0
 10 11  1  0  0  0  0
 11 14  1  0  0  0  0
  6 15  1  0  0  0  0
  6 16  1  0  0  0  0
  9 17  1  0  0  0  0
 10 18  1  0  0  0  0
 10 19  1  0  0  0  0
 10 20  1  0  0  0  0
 11 21  1  0  0  0  0
 11 22  1  0  0  0  0
M  END
> <pdb_id>
7JNR

> <uniprot_id>
P00918

> <usmiles>
S(=O)(=O)(N)C=1SC(=NN1)NC(=O)CC

$$$$
VFM_A_302
          07192416293D 1   1.00000     0.00000     0
            
 25 25  0  0  0  0            999 V2000
   -6.1246    3.4132   15.0983 S   0  0  0  0  0  0  0  0  0  0  0  0
   -5.8660    0.9742   16.8388 S   0  0  0  0  0  0  0  0  0  0  0  0
   -5.3214    1.1809   18.2225 O   0  0  0  0  0  0  0  0  0  0  0  0
   -7.3188    1.1480   16.6962 O   0  0  0  0  0  0  0  0  0  0  0  0
   -6.8711    5.4357   13.4171 O   0  0  0  0  0  0  0  0  0  0  0  0
   -5.3731   -0.4909   16.1778 N   0  0  0  0  0  0  0  0  0  0  0  0
   -3.9177    2.3604   15.6622 N   0  0  0  0  0  0  0  0  0  0  0  0
   -3.6266    3.5049   14.7799 N   0  0  0  0  0  0  0  0  0  0  0  0
   -4.6795    5.2176   13.6733 N   0  0  0  0  0  0  0  0  0  0  0  0
   -6.8488    7.7303   11.9640 C   0  0  0  0  0  0  0  0  0  0  0  0
   -5.1289    6.4112   10.8224 C   0  0  0  0  0  0  0  0  0  0  0  0
   -5.2147    2.3073   15.8435 C   0  0  0  0  0  0  0  0  0  0  0  0
   -4.7714    4.1205   14.5182 C   0  0  0  0  0  0  0  0  0  0  0  0
   -5.8395    5.7902   13.1797 C   0  0  0  0  0  0  0  0  0  0  0  0
   -5.6166    6.9123   12.1896 C   0  0  0  0  0  0  0  0  0  0  0  0
   -5.7566   -0.5881   15.2594 H   0  0  0  0  0  0  0  0  0  0  0  0
   -4.3747   -0.5142   16.1263 H   0  0  0  0  0  0  0  0  0  0  0  0
   -3.7857    5.5903   13.4238 H   0  0  0  0  0  0  0  0  0  0  0  0
   -7.1885    8.0702   12.8410 H   0  0  0  0  0  0  0  0  0  0  0  0
   -6.6312    8.5036   11.3686 H   0  0  0  0  0  0  0  0  0  0  0  0
   -7.5504    7.1638   11.5317 H   0  0  0  0  0  0  0  0  0  0  0  0
   -4.3036    5.8598   10.9445 H   0  0  0  0  0  0  0  0  0  0  0  0
   -5.8423    5.8538   10.3978 H   0  0  0  0  0  0  0  0  0  0  0  0
   -4.9231    7.1936   10.2346 H   0  0  0  0  0  0  0  0  0  0  0  0
   -4.9125    7.5158   12.5638 H   0  0  0  0  0  0  0  0  0  0  0  0
  1 12  1  0  0  0  0
  1 13  1  0  0  0  0
  2  3  2  0  0  0  0
  2  4  2  0  0  0  0
  2  6  1  0  0  0  0
  2 12  1  0  0  0  0
  5 14  2  0  0  0  0
  7  8  1  0  0  0  0
  7 12  2  0  0  0  0
  8 13  2  0  0  0  0
  9 13  1  0  0  0  0
  9 14  1  0  0  0  0
 10 15  1  0  0  0  0
 11 15  1  0  0  0  0
 14 15  1  0  0  0  0
  6 16  1  0  0  0  0
  6 17  1  0  0  0  0
  9 18  1  0  0  0  0
 10 19  1  0  0  0  0
 10 20  1  0  0  0  0
 10 21  1  0  0  0  0
 11 22  1  0  0  0  0
 11 23  1  0  0  0  0
 11 24  1  0  0  0  0
 15 25  1  0  0  0  0
M  END
> <pdb_id>
7JNW

> <uniprot_id>
P00918

> <usmiles>
S(=O)(=O)(N)C=1SC(=NN1)NC(=O)C(C)C

$$$$
VGB_A_1628
          07192421263D 1   1.00000     0.00000     0
            
 51 53  0  0  0  0            999 V2000
   28.4824   40.8772   21.8805 O   0  0  0  0  0  0  0  0  0  0  0  0
   34.2593   40.7204   22.3366 O   0  0  0  0  0  0  0  0  0  0  0  0
   32.2942   44.4184   22.8289 O   0  0  0  0  0  0  0  0  0  0  0  0
   30.2367   42.8446   23.8404 O   0  0  0  0  0  0  0  0  0  0  0  0
   34.3369   42.7392   21.3372 N   0  0  0  0  0  0  0  0  0  0  0  0
   32.3692   41.4229   19.1302 N   0  0  0  0  0  0  0  0  0  0  0  0
   31.2478   40.8866   20.9255 N   0  0  0  0  0  0  0  0  0  0  0  0
   37.1824   40.5928   22.4948 C   0  0  0  0  0  0  0  0  0  0  0  0
   29.5386   40.2275   22.5538 C   0  0  0  0  0  0  0  0  0  0  0  0
   30.8714   40.0782   19.9593 C   0  0  0  0  0  0  0  0  0  0  0  0
   36.4461   41.8025   21.9351 C   0  0  0  0  0  0  0  0  0  0  0  0
   27.3919   42.3888   15.9804 C   0  0  0  0  0  0  0  0  0  0  0  0
   27.6226   41.0643   15.6232 C   0  0  0  0  0  0  0  0  0  0  0  0
   28.4085   43.2045   16.4798 C   0  0  0  0  0  0  0  0  0  0  0  0
   31.4877   39.7253   17.4853 C   0  0  0  0  0  0  0  0  0  0  0  0
   28.9050   40.5473   15.7754 C   0  0  0  0  0  0  0  0  0  0  0  0
   29.6858   42.6835   16.6271 C   0  0  0  0  0  0  0  0  0  0  0  0
   31.3605   40.7771   16.3868 C   0  0  0  0  0  0  0  0  0  0  0  0
   34.9023   41.6847   21.8998 C   0  0  0  0  0  0  0  0  0  0  0  0
   32.2300   41.7360   20.3931 C   0  0  0  0  0  0  0  0  0  0  0  0
   32.2365   43.0345   22.5593 C   0  0  1  0  0  0  0  0  0  0  0  0
   30.7949   42.5226   22.5616 C   0  0  1  0  0  0  0  0  0  0  0  0
   31.5631   40.4132   18.8586 C   0  0  0  0  0  0  0  0  0  0  0  0
   32.8748   42.8694   21.1984 C   0  0  1  0  0  0  0  0  0  0  0  0
   30.8403   41.0197   22.3242 C   0  0  2  0  0  0  0  0  0  0  0  0
   29.9355   41.3529   16.2668 C   0  0  0  0  0  0  0  0  0  0  0  0
   27.6330   40.3693   22.0242 H   0  0  0  0  0  0  0  0  0  0  0  0
   33.2476   44.7203   22.8202 H   0  0  0  0  0  0  0  0  0  0  0  0
   29.2902   42.5245   23.8811 H   0  0  0  0  0  0  0  0  0  0  0  0
   34.9214   43.4743   20.9937 H   0  0  0  0  0  0  0  0  0  0  0  0
   38.1674   40.7640   22.4761 H   0  0  0  0  0  0  0  0  0  0  0  0
   36.8900   40.4313   23.4374 H   0  0  0  0  0  0  0  0  0  0  0  0
   36.9733   39.7885   21.9385 H   0  0  0  0  0  0  0  0  0  0  0  0
   29.6434   39.2992   22.1969 H   0  0  0  0  0  0  0  0  0  0  0  0
   29.3383   40.1876   23.5327 H   0  0  0  0  0  0  0  0  0  0  0  0
   30.1932   39.3469   20.0312 H   0  0  0  0  0  0  0  0  0  0  0  0
   36.7653   41.9518   20.9992 H   0  0  0  0  0  0  0  0  0  0  0  0
   36.6820   42.5946   22.4981 H   0  0  0  0  0  0  0  0  0  0  0  0
   26.4721   42.7671   15.8764 H   0  0  0  0  0  0  0  0  0  0  0  0
   26.8822   40.4958   15.2645 H   0  0  0  0  0  0  0  0  0  0  0  0
   28.2182   44.1541   16.7288 H   0  0  0  0  0  0  0  0  0  0  0  0
   32.3183   39.1887   17.3366 H   0  0  0  0  0  0  0  0  0  0  0  0
   30.6914   39.1208   17.4600 H   0  0  0  0  0  0  0  0  0  0  0  0
   29.0901   39.5951   15.5322 H   0  0  0  0  0  0  0  0  0  0  0  0
   30.4235   43.2541   16.9880 H   0  0  0  0  0  0  0  0  0  0  0  0
   31.6093   40.3578   15.5137 H   0  0  0  0  0  0  0  0  0  0  0  0
   31.9912   41.5265   16.5884 H   0  0  0  0  0  0  0  0  0  0  0  0
   32.7704   42.5368   23.2429 H   0  0  0  0  0  0  0  0  0  0  0  0
   30.2710   42.9690   21.8361 H   0  0  0  0  0  0  0  0  0  0  0  0
   32.7056   43.7162   20.6941 H   0  0  0  0  0  0  0  0  0  0  0  0
   31.5564   40.6284   22.9022 H   0  0  0  0  0  0  0  0  0  0  0  0
  1  9  1  0  0  0  0
  2 19  2  0  0  0  0
  3 21  1  0  0  0  0
  4 22  1  0  0  0  0
  5 19  1  0  0  0  0
  5 24  1  0  0  0  0
  6 20  2  0  0  0  0
  6 23  1  0  0  0  0
  7 10  1  0  0  0  0
  7 20  1  0  0  0  0
  7 25  1  0  0  0  0
  8 11  1  0  0  0  0
  9 25  1  0  0  0  0
 10 23  2  0  0  0  0
 11 19  1  0  0  0  0
 12 13  2  0  0  0  0
 12 14  1  0  0  0  0
 13 16  1  0  0  0  0
 14 17  2  0  0  0  0
 15 18  1  0  0  0  0
 15 23  1  0  0  0  0
 16 26  2  0  0  0  0
 17 26  1  0  0  0  0
 18 26  1  0  0  0  0
 20 24  1  0  0  0  0
 21 22  1  0  0  0  0
 21 24  1  0  0  0  0
 22 25  1  0  0  0  0
  1 27  1  0  0  0  0
  3 28  1  0  0  0  0
  4 29  1  0  0  0  0
  5 30  1  0  0  0  0
  8 31  1  0  0  0  0
  8 32  1  0  0  0  0
  8 33  1  0  0  0  0
  9 34  1  0  0  0  0
  9 35  1  0  0  0  0
 10 36  1  0  0  0  0
 11 37  1  0  0  0  0
 11 38  1  0  0  0  0
 12 39  1  0  0  0  0
 13 40  1  0  0  0  0
 14 41  1  0  0  0  0
 15 42  1  0  0  0  0
 15 43  1  0  0  0  0
 16 44  1  0  0  0  0
 17 45  1  0  0  0  0
 18 46  1  0  0  0  0
 18 47  1  0  0  0  0
 21 48  1  0  0  0  0
 22 49  1  0  0  0  0
 24 50  1  0  0  0  0
 25 51  1  0  0  0  0
M  END
> <pdb_id>
2WB5

> <uniprot_id>
Q0TR53

> <usmiles>
O=C(N[C@H]1C2=NC(=CN2[C@@H]([C@@H](O)[C@@H]1O)CO)CCc3ccccc3)CC

$$$$
VGD_B_290
          07192418533D 1   1.00000     0.00000     0
            
 17 18  0  0  0  0            999 V2000
   27.0515   41.3383   15.1318 Cl  0  0  0  0  0  0  0  0  0  0  0  0
   29.5922   45.4436   21.0471 N   0  0  0  0  0  0  0  0  0  0  0  0
   29.0229   45.7903   18.5655 N   0  0  0  0  0  0  0  0  0  0  0  0
   28.7254   43.7327   19.4684 N   0  0  0  0  0  0  0  0  0  0  0  0
   27.8156   44.0052   15.4746 C   0  0  0  0  0  0  0  0  0  0  0  0
   28.2735   45.0954   16.2237 C   0  0  0  0  0  0  0  0  0  0  0  0
   27.9176   42.5908   17.3897 C   0  0  0  0  0  0  0  0  0  0  0  0
   29.1189   45.0329   19.7391 C   0  0  0  0  0  0  0  0  0  0  0  0
   27.6323   42.7531   16.0538 C   0  0  0  0  0  0  0  0  0  0  0  0
   28.5583   44.9225   17.5747 C   0  0  0  0  0  0  0  0  0  0  0  0
   28.3782   43.6624   18.1371 C   0  0  0  0  0  0  0  0  0  0  0  0
   29.6051   44.7885   21.8025 H   0  0  0  0  0  0  0  0  0  0  0  0
   29.9057   46.3818   21.1935 H   0  0  0  0  0  0  0  0  0  0  0  0
   29.2431   46.7599   18.4580 H   0  0  0  0  0  0  0  0  0  0  0  0
   27.6159   44.1287   14.5026 H   0  0  0  0  0  0  0  0  0  0  0  0
   28.3948   45.9894   15.7923 H   0  0  0  0  0  0  0  0  0  0  0  0
   27.7924   41.6978   17.8219 H   0  0  0  0  0  0  0  0  0  0  0  0
  1  9  1  0  0  0  0
  2  8  1  0  0  0  0
  3  8  1  0  0  0  0
  3 10  1  0  0  0  0
  4  8  2  0  0  0  0
  4 11  1  0  0  0  0
  5  6  1  0  0  0  0
  5  9  2  0  0  0  0
  6 10  2  0  0  0  0
  7  9  1  0  0  0  0
  7 11  2  0  0  0  0
 10 11  1  0  0  0  0
  2 12  1  0  0  0  0
  2 13  1  0  0  0  0
  3 14  1  0  0  0  0
  5 15  1  0  0  0  0
  6 16  1  0  0  0  0
  7 17  1  0  0  0  0
M  END
> <pdb_id>
3KR1

> <uniprot_id>
P11086

> <usmiles>
Clc1cc2N=C(Nc2cc1)N

$$$$
VGF_B_1269
          07192417503D 1   1.00000     0.00000     0
            
 40 43  0  0  0  0            999 V2000
  -10.7940   20.0600   11.7600 Cl  0  0  0  0  0  0  0  0  0  0  0  0
  -10.3580   20.7240    8.6800 Cl  0  0  0  0  0  0  0  0  0  0  0  0
  -13.7260   14.3550    8.1140 N   0  0  0  0  0  0  0  0  0  0  0  0
  -15.9180   14.5550    9.0350 N   0  0  0  0  0  0  0  0  0  0  0  0
  -15.0610   16.3590    8.1830 N   0  0  0  0  0  0  0  0  0  0  0  0
  -14.1150   17.2730    7.5260 C   0  0  0  0  0  0  0  0  0  0  0  0
  -15.5240   21.5090    6.9280 C   0  0  0  0  0  0  0  0  0  0  0  0
  -15.5420   21.3640    8.3240 C   0  0  0  0  0  0  0  0  0  0  0  0
  -16.0080   20.4710    6.1100 C   0  0  0  0  0  0  0  0  0  0  0  0
  -18.8210   16.7270    9.7910 C   0  0  0  0  0  0  0  0  0  0  0  0
  -18.0870   15.5450    9.7660 C   0  0  0  0  0  0  0  0  0  0  0  0
  -12.7140   18.3490   10.9260 C   0  0  0  0  0  0  0  0  0  0  0  0
  -16.0380   20.1870    8.9050 C   0  0  0  0  0  0  0  0  0  0  0  0
  -16.4990   19.2970    6.7080 C   0  0  0  0  0  0  0  0  0  0  0  0
  -18.2960   17.9070    9.2420 C   0  0  0  0  0  0  0  0  0  0  0  0
  -13.4740   17.6950    9.9520 C   0  0  0  0  0  0  0  0  0  0  0  0
  -12.3250   18.9230    8.2170 C   0  0  0  0  0  0  0  0  0  0  0  0
  -14.8400   15.0640    8.4230 C   0  0  0  0  0  0  0  0  0  0  0  0
  -11.7500   19.2840   10.5380 C   0  0  0  0  0  0  0  0  0  0  0  0
  -11.5580   19.5740    9.1860 C   0  0  0  0  0  0  0  0  0  0  0  0
  -16.8160   15.5380    9.1900 C   0  0  0  0  0  0  0  0  0  0  0  0
  -16.2810   16.7100    8.6390 C   0  0  0  0  0  0  0  0  0  0  0  0
  -13.2810   17.9740    8.5970 C   0  0  0  0  0  0  0  0  0  0  0  0
  -16.5180   19.1330    8.1040 C   0  0  0  0  0  0  0  0  0  0  0  0
  -17.0210   17.9260    8.6630 C   0  0  0  0  0  0  0  0  0  0  0  0
  -12.9588   14.8038    7.6558 H   0  0  0  0  0  0  0  0  0  0  0  0
  -13.6718   13.3834    8.3444 H   0  0  0  0  0  0  0  0  0  0  0  0
  -14.6195   17.9534    6.9945 H   0  0  0  0  0  0  0  0  0  0  0  0
  -13.5137   16.7542    6.9183 H   0  0  0  0  0  0  0  0  0  0  0  0
  -15.1682   22.3477    6.5157 H   0  0  0  0  0  0  0  0  0  0  0  0
  -15.2003   22.1017    8.9063 H   0  0  0  0  0  0  0  0  0  0  0  0
  -16.0027   20.5674    5.1147 H   0  0  0  0  0  0  0  0  0  0  0  0
  -19.7316   16.7356   10.2043 H   0  0  0  0  0  0  0  0  0  0  0  0
  -18.4674   14.7072   10.1577 H   0  0  0  0  0  0  0  0  0  0  0  0
  -12.8591   18.1491   11.8950 H   0  0  0  0  0  0  0  0  0  0  0  0
  -16.0508   20.0955    9.9007 H   0  0  0  0  0  0  0  0  0  0  0  0
  -16.8432   18.5604    6.1258 H   0  0  0  0  0  0  0  0  0  0  0  0
  -18.8399   18.7459    9.2646 H   0  0  0  0  0  0  0  0  0  0  0  0
  -14.1609   17.0224   10.2273 H   0  0  0  0  0  0  0  0  0  0  0  0
  -12.1907   19.1356    7.2491 H   0  0  0  0  0  0  0  0  0  0  0  0
  1 19  1  0  0  0  0
  2 20  1  0  0  0  0
  3 18  1  0  0  0  0
  4 18  2  0  0  0  0
  4 21  1  0  0  0  0
  5  6  1  0  0  0  0
  5 18  1  0  0  0  0
  5 22  1  0  0  0  0
  6 23  1  0  0  0  0
  7  8  2  0  0  0  0
  7  9  1  0  0  0  0
  8 13  1  0  0  0  0
  9 14  2  0  0  0  0
 10 11  1  0  0  0  0
 10 15  2  0  0  0  0
 11 21  2  0  0  0  0
 12 16  1  0  0  0  0
 12 19  2  0  0  0  0
 13 24  2  0  0  0  0
 14 24  1  0  0  0  0
 15 25  1  0  0  0  0
 16 23  2  0  0  0  0
 17 20  2  0  0  0  0
 17 23  1  0  0  0  0
 19 20  1  0  0  0  0
 21 22  1  0  0  0  0
 22 25  2  0  0  0  0
 24 25  1  0  0  0  0
  3 26  1  0  0  0  0
  3 27  1  0  0  0  0
  6 28  1  0  0  0  0
  6 29  1  0  0  0  0
  7 30  1  0  0  0  0
  8 31  1  0  0  0  0
  9 32  1  0  0  0  0
 10 33  1  0  0  0  0
 11 34  1  0  0  0  0
 12 35  1  0  0  0  0
 13 36  1  0  0  0  0
 14 37  1  0  0  0  0
 15 38  1  0  0  0  0
 16 39  1  0  0  0  0
 17 40  1  0  0  0  0
M  END
> <pdb_id>
2WD8

> <uniprot_id>
O76290

> <usmiles>
Clc1c(Cl)ccc(c1)CN2c3c(N=C2N)cccc3c4ccccc4

$$$$
VGS_A_303
          07192416293D 1   1.00000     0.00000     0
            
 28 28  0  0  0  0            999 V2000
   -6.0533    3.4881   15.2993 S   0  0  0  0  0  0  0  0  0  0  0  0
   -5.8401    0.8914   16.8038 S   0  0  0  0  0  0  0  0  0  0  0  0
   -7.2757    1.0631   16.6457 O   0  0  0  0  0  0  0  0  0  0  0  0
   -5.3951    1.0497   18.1808 O   0  0  0  0  0  0  0  0  0  0  0  0
   -6.8123    5.7504   14.1525 O   0  0  0  0  0  0  0  0  0  0  0  0
   -5.2900   -0.5413   16.1492 N   0  0  0  0  0  0  0  0  0  0  0  0
   -3.8468    2.2977   15.6997 N   0  0  0  0  0  0  0  0  0  0  0  0
   -3.5419    3.5906   14.9431 N   0  0  0  0  0  0  0  0  0  0  0  0
   -4.5926    5.4612   14.1424 N   0  0  0  0  0  0  0  0  0  0  0  0
   -6.8829    8.2622   13.1106 C   0  0  0  0  0  0  0  0  0  0  0  0
   -4.9227    8.3849   14.6560 C   0  0  0  0  0  0  0  0  0  0  0  0
   -4.5463    7.7296   12.2958 C   0  0  0  0  0  0  0  0  0  0  0  0
   -5.2216    2.2726   15.8921 C   0  0  0  0  0  0  0  0  0  0  0  0
   -4.7567    4.1991   14.7320 C   0  0  0  0  0  0  0  0  0  0  0  0
   -5.7538    6.2337   13.9468 C   0  0  0  0  0  0  0  0  0  0  0  0
   -5.5329    7.6457   13.4585 C   0  0  0  0  0  0  0  0  0  0  0  0
   -4.3015   -0.6113   16.2833 H   0  0  0  0  0  0  0  0  0  0  0  0
   -5.7429   -1.3099   16.6011 H   0  0  0  0  0  0  0  0  0  0  0  0
   -3.6904    5.7978   13.8728 H   0  0  0  0  0  0  0  0  0  0  0  0
   -7.2788    7.7788   12.3299 H   0  0  0  0  0  0  0  0  0  0  0  0
   -7.4968    8.1855   13.8963 H   0  0  0  0  0  0  0  0  0  0  0  0
   -6.7587    9.2267   12.8775 H   0  0  0  0  0  0  0  0  0  0  0  0
   -4.0373    7.9789   14.8824 H   0  0  0  0  0  0  0  0  0  0  0  0
   -4.7974    9.3495   14.4238 H   0  0  0  0  0  0  0  0  0  0  0  0
   -5.5354    8.3083   15.4426 H   0  0  0  0  0  0  0  0  0  0  0  0
   -3.6771    7.3153   12.5657 H   0  0  0  0  0  0  0  0  0  0  0  0
   -4.9182    7.2400   11.5071 H   0  0  0  0  0  0  0  0  0  0  0  0
   -4.3976    8.6882   12.0533 H   0  0  0  0  0  0  0  0  0  0  0  0
  1 13  1  0  0  0  0
  1 14  1  0  0  0  0
  2  3  2  0  0  0  0
  2  4  2  0  0  0  0
  2  6  1  0  0  0  0
  2 13  1  0  0  0  0
  5 15  2  0  0  0  0
  7  8  1  0  0  0  0
  7 13  2  0  0  0  0
  8 14  2  0  0  0  0
  9 14  1  0  0  0  0
  9 15  1  0  0  0  0
 10 16  1  0  0  0  0
 11 16  1  0  0  0  0
 12 16  1  0  0  0  0
 15 16  1  0  0  0  0
  6 17  1  0  0  0  0
  6 18  1  0  0  0  0
  9 19  1  0  0  0  0
 10 20  1  0  0  0  0
 10 21  1  0  0  0  0
 10 22  1  0  0  0  0
 11 23  1  0  0  0  0
 11 24  1  0  0  0  0
 11 25  1  0  0  0  0
 12 26  1  0  0  0  0
 12 27  1  0  0  0  0
 12 28  1  0  0  0  0
M  END
> <pdb_id>
7JNX

> <uniprot_id>
P00918

> <usmiles>
S(=O)(=O)(N)C=1SC(=NN1)NC(=O)C(C)(C)C

$$$$
VGV_A_303
          07192416293D 1   1.00000     0.00000     0
            
 26 27  0  0  0  0            999 V2000
   -5.9127    3.4212   15.1204 S   0  0  0  0  0  0  0  0  0  0  0  0
   -5.8842    0.9465   16.8458 S   0  0  0  0  0  0  0  0  0  0  0  0
   -7.3385    1.1059   16.7382 O   0  0  0  0  0  0  0  0  0  0  0  0
   -5.4724    1.1027   18.2403 O   0  0  0  0  0  0  0  0  0  0  0  0
   -6.7558    5.5025   13.4763 O   0  0  0  0  0  0  0  0  0  0  0  0
   -5.3313   -0.5258   16.2019 N   0  0  0  0  0  0  0  0  0  0  0  0
   -3.8063    2.3450   15.8526 N   0  0  0  0  0  0  0  0  0  0  0  0
   -3.4721    3.5775   14.9736 N   0  0  0  0  0  0  0  0  0  0  0  0
   -4.5351    5.2924   13.7236 N   0  0  0  0  0  0  0  0  0  0  0  0
   -4.9795    8.6733   10.0001 C   0  0  0  0  0  0  0  0  0  0  0  0
   -4.1974    7.5415   10.1393 C   0  0  0  0  0  0  0  0  0  0  0  0
   -6.0029    8.9263   10.9042 C   0  0  0  0  0  0  0  0  0  0  0  0
   -4.4805    6.6717   11.1826 C   0  0  0  0  0  0  0  0  0  0  0  0
   -6.2850    8.0495   11.9455 C   0  0  0  0  0  0  0  0  0  0  0  0
   -5.1812    2.2861   15.9067 C   0  0  0  0  0  0  0  0  0  0  0  0
   -4.6514    4.1890   14.6085 C   0  0  0  0  0  0  0  0  0  0  0  0
   -5.6998    5.8811   13.1625 C   0  0  0  0  0  0  0  0  0  0  0  0
   -5.4878    6.9418   12.1015 C   0  0  0  0  0  0  0  0  0  0  0  0
   -4.3378   -0.5810   16.3015 H   0  0  0  0  0  0  0  0  0  0  0  0
   -5.7582   -1.2854   16.6925 H   0  0  0  0  0  0  0  0  0  0  0  0
   -3.6321    5.6559   13.4947 H   0  0  0  0  0  0  0  0  0  0  0  0
   -4.8082    9.3098    9.2481 H   0  0  0  0  0  0  0  0  0  0  0  0
   -3.4474    7.3548    9.5047 H   0  0  0  0  0  0  0  0  0  0  0  0
   -6.5491    9.7579   10.8039 H   0  0  0  0  0  0  0  0  0  0  0  0
   -3.9474    5.8308   11.2755 H   0  0  0  0  0  0  0  0  0  0  0  0
   -7.0501    8.2211   12.5661 H   0  0  0  0  0  0  0  0  0  0  0  0
  1 15  1  0  0  0  0
  1 16  1  0  0  0  0
  2  3  2  0  0  0  0
  2  4  2  0  0  0  0
  2  6  1  0  0  0  0
  2 15  1  0  0  0  0
  5 17  2  0  0  0  0
  7  8  1  0  0  0  0
  7 15  2  0  0  0  0
  8 16  2  0  0  0  0
  9 16  1  0  0  0  0
  9 17  1  0  0  0  0
 10 11  2  0  0  0  0
 10 12  1  0  0  0  0
 11 13  1  0  0  0  0
 12 14  2  0  0  0  0
 13 18  2  0  0  0  0
 14 18  1  0  0  0  0
 17 18  1  0  0  0  0
  6 19  1  0  0  0  0
  6 20  1  0  0  0  0
  9 21  1  0  0  0  0
 10 22  1  0  0  0  0
 11 23  1  0  0  0  0
 12 24  1  0  0  0  0
 13 25  1  0  0  0  0
 14 26  1  0  0  0  0
M  END
> <pdb_id>
7JNZ

> <uniprot_id>
P00918

> <usmiles>
S(=O)(=O)(N)C=1SC(=NN1)NC(=O)c2ccccc2

$$$$
VH7_A_205
          07202414463D 1   1.00000     0.00000     0
            
 55 58  0  0  0  0            999 V2000
   -4.2530   -7.2730   71.4950 O   0  0  0  0  0  0  0  0  0  0  0  0
   -6.4660  -12.2140   75.6280 O   0  0  0  0  0  0  0  0  0  0  0  0
   -3.7740   -5.7490   65.3820 N   0  0  0  0  0  0  0  0  0  0  0  0
   -5.1000   -9.1020   70.4830 N   0  0  0  0  0  0  0  0  0  0  0  0
   -3.9150   -7.4540   66.8230 N   0  0  0  0  0  0  0  0  0  0  0  0
   -8.7940  -11.7330   75.2990 C   0  0  0  0  0  0  0  0  0  0  0  0
   -7.7440  -13.8130   74.4080 C   0  0  0  0  0  0  0  0  0  0  0  0
   -3.6870   -7.9940   65.5820 C   0  0  0  0  0  0  0  0  0  0  0  0
   -4.1060   -8.0630   68.0420 C   0  0  0  0  0  0  0  0  0  0  0  0
   -3.4170   -7.0340   60.4680 C   0  0  0  0  0  0  0  0  0  0  0  0
   -3.6740   -5.8520   61.1290 C   0  0  0  0  0  0  0  0  0  0  0  0
   -3.2050   -8.1880   61.1910 C   0  0  0  0  0  0  0  0  0  0  0  0
   -3.7090   -5.8180   62.5110 C   0  0  0  0  0  0  0  0  0  0  0  0
   -3.2250   -8.1610   62.5780 C   0  0  0  0  0  0  0  0  0  0  0  0
   -4.1740   -5.2790   67.8030 C   0  0  0  0  0  0  0  0  0  0  0  0
   -4.3520   -5.8800   69.0020 C   0  0  0  0  0  0  0  0  0  0  0  0
   -5.3680  -11.2910   71.5560 C   0  0  0  0  0  0  0  0  0  0  0  0
   -6.7770   -9.3570   72.2380 C   0  0  0  0  0  0  0  0  0  0  0  0
   -5.7710  -12.0260   72.8400 C   0  0  0  0  0  0  0  0  0  0  0  0
   -7.1470  -10.0630   73.5400 C   0  0  0  0  0  0  0  0  0  0  0  0
   -4.5270   -7.8930   70.4700 C   0  0  0  0  0  0  0  0  0  0  0  0
   -3.9650   -6.0750   66.6530 C   0  0  0  0  0  0  0  0  0  0  0  0
   -3.5920   -6.9540   64.7170 C   0  0  0  0  0  0  0  0  0  0  0  0
   -4.3050   -7.3030   69.1430 C   0  0  0  0  0  0  0  0  0  0  0  0
   -3.4510   -6.9680   63.2550 C   0  0  0  0  0  0  0  0  0  0  0  0
   -5.4160   -9.7880   71.7320 C   0  0  0  0  0  0  0  0  0  0  0  0
   -7.1200  -11.5820   73.3960 C   0  0  0  0  0  0  0  0  0  0  0  0
   -7.5440  -12.3330   74.6740 C   0  0  0  0  0  0  0  0  0  0  0  0
   -6.6070  -12.8010   76.3870 H   0  0  0  0  0  0  0  0  0  0  0  0
   -5.3340   -9.5830   69.6270 H   0  0  0  0  0  0  0  0  0  0  0  0
   -9.5260  -11.5250   74.5220 H   0  0  0  0  0  0  0  0  0  0  0  0
   -8.5380  -10.8080   75.8110 H   0  0  0  0  0  0  0  0  0  0  0  0
   -9.2160  -12.4360   76.0150 H   0  0  0  0  0  0  0  0  0  0  0  0
   -8.4080  -13.9460   73.5560 H   0  0  0  0  0  0  0  0  0  0  0  0
   -8.1840  -14.2870   75.2830 H   0  0  0  0  0  0  0  0  0  0  0  0
   -6.7850  -14.2800   74.1920 H   0  0  0  0  0  0  0  0  0  0  0  0
   -3.6010   -9.0430   65.3410 H   0  0  0  0  0  0  0  0  0  0  0  0
   -4.0950   -9.1410   68.1070 H   0  0  0  0  0  0  0  0  0  0  0  0
   -3.3830   -7.0560   59.3890 H   0  0  0  0  0  0  0  0  0  0  0  0
   -3.8490   -4.9480   60.5640 H   0  0  0  0  0  0  0  0  0  0  0  0
   -3.0220   -9.1190   60.6760 H   0  0  0  0  0  0  0  0  0  0  0  0
   -3.9390   -4.8920   63.0160 H   0  0  0  0  0  0  0  0  0  0  0  0
   -3.0650   -9.0720   63.1350 H   0  0  0  0  0  0  0  0  0  0  0  0
   -4.1900   -4.2020   67.7230 H   0  0  0  0  0  0  0  0  0  0  0  0
   -4.5340   -5.2510   69.8600 H   0  0  0  0  0  0  0  0  0  0  0  0
   -4.3610  -11.5890   71.2710 H   0  0  0  0  0  0  0  0  0  0  0  0
   -6.0360  -11.5820   70.7490 H   0  0  0  0  0  0  0  0  0  0  0  0
   -7.5290   -9.5770   71.4840 H   0  0  0  0  0  0  0  0  0  0  0  0
   -6.7790   -8.2810   72.3990 H   0  0  0  0  0  0  0  0  0  0  0  0
   -5.0050  -11.8630   73.5960 H   0  0  0  0  0  0  0  0  0  0  0  0
   -5.8040  -13.0950   72.6390 H   0  0  0  0  0  0  0  0  0  0  0  0
   -8.1420   -9.7490   73.8500 H   0  0  0  0  0  0  0  0  0  0  0  0
   -6.4540   -9.7620   74.3230 H   0  0  0  0  0  0  0  0  0  0  0  0
   -4.6570   -9.4990   72.4540 H   0  0  0  0  0  0  0  0  0  0  0  0
   -7.8770  -11.8570   72.6650 H   0  0  0  0  0  0  0  0  0  0  0  0
  1 21  2  0  0  0  0
  2 28  1  0  0  0  0
  2 29  1  0  0  0  0
  3 22  2  0  0  0  0
  3 23  1  0  0  0  0
  4 21  1  0  0  0  0
  4 26  1  0  0  0  0
  4 30  1  0  0  0  0
  5  8  1  0  0  0  0
  5  9  1  0  0  0  0
  5 22  1  0  0  0  0
  6 28  1  0  0  0  0
  6 31  1  0  0  0  0
  6 32  1  0  0  0  0
  6 33  1  0  0  0  0
  7 28  1  0  0  0  0
  7 34  1  0  0  0  0
  7 35  1  0  0  0  0
  7 36  1  0  0  0  0
  8 23  2  0  0  0  0
  8 37  1  0  0  0  0
  9 24  2  0  0  0  0
  9 38  1  0  0  0  0
 10 11  2  0  0  0  0
 10 12  1  0  0  0  0
 10 39  1  0  0  0  0
 11 13  1  0  0  0  0
 11 40  1  0  0  0  0
 12 14  2  0  0  0  0
 12 41  1  0  0  0  0
 13 25  2  0  0  0  0
 13 42  1  0  0  0  0
 14 25  1  0  0  0  0
 14 43  1  0  0  0  0
 15 16  2  0  0  0  0
 15 22  1  0  0  0  0
 15 44  1  0  0  0  0
 16 24  1  0  0  0  0
 16 45  1  0  0  0  0
 17 19  1  0  0  0  0
 17 26  1  0  0  0  0
 17 46  1  0  0  0  0
 17 47  1  0  0  0  0
 18 20  1  0  0  0  0
 18 26  1  0  0  0  0
 18 48  1  0  0  0  0
 18 49  1  0  0  0  0
 19 27  1  0  0  0  0
 19 50  1  0  0  0  0
 19 51  1  0  0  0  0
 20 27  1  0  0  0  0
 20 52  1  0  0  0  0
 20 53  1  0  0  0  0
 21 24  1  0  0  0  0
 23 25  1  0  0  0  0
 26 54  1  0  0  0  0
 27 28  1  0  0  0  0
 27 55  1  0  0  0  0
M  END
> <pdb_id>
7JR8

> <uniprot_id>
O60760

> <usmiles>
O=C(NC1CCC(C(O)(C)C)CC1)C2=CN3C(=NC(c4ccccc4)=C3)C=C2

$$$$
VHA_A_237
          07192420423D 1   1.00000     0.00000     0
            
 48 51  0  0  0  0            999 V2000
   66.3322   35.9878   21.3519 S   0  0  0  0  0  0  0  0  0  0  0  0
   69.9948   39.2208   22.7462 O   0  0  0  0  0  0  0  0  0  0  0  0
   72.3243   36.6224   25.4456 O   0  0  0  0  0  0  0  0  0  0  0  0
   64.9516   33.4662   25.3425 N   0  0  0  0  0  0  0  0  0  0  0  0
   65.7172   34.5955   23.4658 N   0  0  0  0  0  0  0  0  0  0  0  0
   67.2195   33.8059   25.1312 N   0  0  0  0  0  0  0  0  0  0  0  0
   69.5048   31.6166   25.3576 C   0  0  0  0  0  0  0  0  0  0  0  0
   71.2714   39.9029   22.5258 C   0  0  0  0  0  0  0  0  0  0  0  0
   71.6633   37.7928   24.8548 C   0  0  0  0  0  0  0  0  0  0  0  0
   71.7303   40.2095   23.9581 C   0  0  0  0  0  0  0  0  0  0  0  0
   72.5338   39.0463   24.5712 C   0  0  0  0  0  0  0  0  0  0  0  0
   69.1866   37.9721   19.3587 C   0  0  0  0  0  0  0  0  0  0  0  0
   68.0818   37.1651   19.6844 C   0  0  0  0  0  0  0  0  0  0  0  0
   69.8382   38.6904   20.3604 C   0  0  0  0  0  0  0  0  0  0  0  0
   72.2035   34.2373   25.8995 C   0  0  0  0  0  0  0  0  0  0  0  0
   71.5254   33.0217   25.8544 C   0  0  0  0  0  0  0  0  0  0  0  0
   68.0576   34.9295   23.2464 C   0  0  0  0  0  0  0  0  0  0  0  0
   68.3476   37.7554   22.0168 C   0  0  0  0  0  0  0  0  0  0  0  0
   70.3009   35.3736   24.9790 C   0  0  0  0  0  0  0  0  0  0  0  0
   66.7442   35.0914   22.8063 C   0  0  0  0  0  0  0  0  0  0  0  0
   65.9725   33.9216   24.6232 C   0  0  0  0  0  0  0  0  0  0  0  0
   67.7068   37.0376   21.0080 C   0  0  0  0  0  0  0  0  0  0  0  0
   69.4385   38.5634   21.7005 C   0  0  0  0  0  0  0  0  0  0  0  0
   71.6166   35.4245   25.4422 C   0  0  0  0  0  0  0  0  0  0  0  0
   68.2882   34.2669   24.4448 C   0  0  0  0  0  0  0  0  0  0  0  0
   70.2029   32.9768   25.3672 C   0  0  0  0  0  0  0  0  0  0  0  0
   69.5947   34.1639   24.9304 C   0  0  0  0  0  0  0  0  0  0  0  0
   65.1218   32.9700   26.1939 H   0  0  0  0  0  0  0  0  0  0  0  0
   64.0134   33.6199   25.0323 H   0  0  0  0  0  0  0  0  0  0  0  0
   68.5797   31.7192   24.9919 H   0  0  0  0  0  0  0  0  0  0  0  0
   70.0214   30.9808   24.7840 H   0  0  0  0  0  0  0  0  0  0  0  0
   69.4568   31.2600   26.2906 H   0  0  0  0  0  0  0  0  0  0  0  0
   71.1466   40.7430   21.9979 H   0  0  0  0  0  0  0  0  0  0  0  0
   71.9236   39.3078   22.0562 H   0  0  0  0  0  0  0  0  0  0  0  0
   70.9337   38.0708   25.4796 H   0  0  0  0  0  0  0  0  0  0  0  0
   71.2645   37.5030   23.9847 H   0  0  0  0  0  0  0  0  0  0  0  0
   70.9245   40.3791   24.5255 H   0  0  0  0  0  0  0  0  0  0  0  0
   72.3061   41.0270   23.9441 H   0  0  0  0  0  0  0  0  0  0  0  0
   73.2620   38.7916   23.9350 H   0  0  0  0  0  0  0  0  0  0  0  0
   72.9367   39.3561   25.4324 H   0  0  0  0  0  0  0  0  0  0  0  0
   69.5036   38.0304   18.4121 H   0  0  0  0  0  0  0  0  0  0  0  0
   67.5737   36.6892   18.9665 H   0  0  0  0  0  0  0  0  0  0  0  0
   70.5948   39.2997   20.1230 H   0  0  0  0  0  0  0  0  0  0  0  0
   73.1329   34.2635   26.2677 H   0  0  0  0  0  0  0  0  0  0  0  0
   71.9744   32.1843   26.1662 H   0  0  0  0  0  0  0  0  0  0  0  0
   68.8213   35.2850   22.7074 H   0  0  0  0  0  0  0  0  0  0  0  0
   68.0266   37.6909   22.9617 H   0  0  0  0  0  0  0  0  0  0  0  0
   69.8540   36.2155   24.6763 H   0  0  0  0  0  0  0  0  0  0  0  0
  1 20  1  0  0  0  0
  1 22  1  0  0  0  0
  2  8  1  0  0  0  0
  2 23  1  0  0  0  0
  3  9  1  0  0  0  0
  3 24  1  0  0  0  0
  4 21  1  0  0  0  0
  5 20  1  0  0  0  0
  5 21  2  0  0  0  0
  6 21  1  0  0  0  0
  6 25  2  0  0  0  0
  7 26  1  0  0  0  0
  8 10  1  0  0  0  0
  9 11  1  0  0  0  0
 10 11  1  0  0  0  0
 12 13  2  0  0  0  0
 12 14  1  0  0  0  0
 13 22  1  0  0  0  0
 14 23  2  0  0  0  0
 15 16  1  0  0  0  0
 15 24  2  0  0  0  0
 16 26  2  0  0  0  0
 17 20  2  0  0  0  0
 17 25  1  0  0  0  0
 18 22  2  0  0  0  0
 18 23  1  0  0  0  0
 19 24  1  0  0  0  0
 19 27  2  0  0  0  0
 25 27  1  0  0  0  0
 26 27  1  0  0  0  0
  4 28  1  0  0  0  0
  4 29  1  0  0  0  0
  7 30  1  0  0  0  0
  7 31  1  0  0  0  0
  7 32  1  0  0  0  0
  8 33  1  0  0  0  0
  8 34  1  0  0  0  0
  9 35  1  0  0  0  0
  9 36  1  0  0  0  0
 10 37  1  0  0  0  0
 10 38  1  0  0  0  0
 11 39  1  0  0  0  0
 11 40  1  0  0  0  0
 12 41  1  0  0  0  0
 13 42  1  0  0  0  0
 14 43  1  0  0  0  0
 15 44  1  0  0  0  0
 16 45  1  0  0  0  0
 17 46  1  0  0  0  0
 18 47  1  0  0  0  0
 19 48  1  0  0  0  0
M  END
> <pdb_id>
3VHA

> <uniprot_id>
P07900

> <usmiles>
S1c2nc(nc(c3c(ccc(OCCCCOc4cc1ccc4)c3)C)c2)N

$$$$
VHC_A_1
          07192420423D 1   1.00000     0.00000     0
            
 51 54  0  0  0  0            999 V2000
   66.5592   35.8914   21.3650 S   0  0  0  0  0  0  0  0  0  0  0  0
   73.1172   37.0066   26.8611 O   0  0  0  0  0  0  0  0  0  0  0  0
   70.4153   38.7939   22.9499 O   0  0  0  0  0  0  0  0  0  0  0  0
   65.0509   33.4765   25.4280 N   0  0  0  0  0  0  0  0  0  0  0  0
   72.1633   37.6292   24.8945 N   0  0  0  0  0  0  0  0  0  0  0  0
   65.8935   34.6016   23.5436 N   0  0  0  0  0  0  0  0  0  0  0  0
   67.3421   33.8310   25.2430 N   0  0  0  0  0  0  0  0  0  0  0  0
   73.8435   34.0723   26.5156 C   0  0  0  0  0  0  0  0  0  0  0  0
   69.6347   31.5936   25.3834 C   0  0  0  0  0  0  0  0  0  0  0  0
   71.3796   39.8568   22.8758 C   0  0  0  0  0  0  0  0  0  0  0  0
   72.7135   39.0047   24.8716 C   0  0  0  0  0  0  0  0  0  0  0  0
   71.7025   40.0470   24.3677 C   0  0  0  0  0  0  0  0  0  0  0  0
   69.5441   37.8479   19.4890 C   0  0  0  0  0  0  0  0  0  0  0  0
   68.4070   37.0853   19.7393 C   0  0  0  0  0  0  0  0  0  0  0  0
   70.2406   38.4827   20.5148 C   0  0  0  0  0  0  0  0  0  0  0  0
   68.2573   34.8374   23.3077 C   0  0  0  0  0  0  0  0  0  0  0  0
   68.6923   37.5061   22.0951 C   0  0  0  0  0  0  0  0  0  0  0  0
   71.6766   32.9652   25.9327 C   0  0  0  0  0  0  0  0  0  0  0  0
   70.4497   35.3542   25.1896 C   0  0  0  0  0  0  0  0  0  0  0  0
   66.9463   35.0550   22.8617 C   0  0  0  0  0  0  0  0  0  0  0  0
   68.0155   36.8722   21.0628 C   0  0  0  0  0  0  0  0  0  0  0  0
   72.4585   36.7442   25.8391 C   0  0  0  0  0  0  0  0  0  0  0  0
   66.0874   33.9792   24.7404 C   0  0  0  0  0  0  0  0  0  0  0  0
   69.8006   38.3095   21.8404 C   0  0  0  0  0  0  0  0  0  0  0  0
   68.4281   34.2470   24.5580 C   0  0  0  0  0  0  0  0  0  0  0  0
   72.3815   34.1628   26.0388 C   0  0  0  0  0  0  0  0  0  0  0  0
   70.3451   32.9485   25.4823 C   0  0  0  0  0  0  0  0  0  0  0  0
   71.7747   35.3826   25.6823 C   0  0  0  0  0  0  0  0  0  0  0  0
   69.7284   34.1492   25.0935 C   0  0  0  0  0  0  0  0  0  0  0  0
   65.2061   33.0220   26.3052 H   0  0  0  0  0  0  0  0  0  0  0  0
   64.1232   33.5562   25.0635 H   0  0  0  0  0  0  0  0  0  0  0  0
   71.5393   37.3541   24.1630 H   0  0  0  0  0  0  0  0  0  0  0  0
   74.2399   34.9897   26.5509 H   0  0  0  0  0  0  0  0  0  0  0  0
   73.8720   33.6615   27.4269 H   0  0  0  0  0  0  0  0  0  0  0  0
   74.3675   33.5070   25.8785 H   0  0  0  0  0  0  0  0  0  0  0  0
   68.7011   31.7302   25.0521 H   0  0  0  0  0  0  0  0  0  0  0  0
   70.1310   31.0026   24.7475 H   0  0  0  0  0  0  0  0  0  0  0  0
   69.6085   31.1643   26.2862 H   0  0  0  0  0  0  0  0  0  0  0  0
   70.9868   40.6843   22.4747 H   0  0  0  0  0  0  0  0  0  0  0  0
   72.1888   39.5854   22.3547 H   0  0  0  0  0  0  0  0  0  0  0  0
   73.5122   39.0186   24.2700 H   0  0  0  0  0  0  0  0  0  0  0  0
   72.9909   39.2525   25.7998 H   0  0  0  0  0  0  0  0  0  0  0  0
   70.8575   39.9595   24.8953 H   0  0  0  0  0  0  0  0  0  0  0  0
   72.0860   40.9608   24.5017 H   0  0  0  0  0  0  0  0  0  0  0  0
   69.8696   37.9426   18.5482 H   0  0  0  0  0  0  0  0  0  0  0  0
   67.8792   36.6966   18.9841 H   0  0  0  0  0  0  0  0  0  0  0  0
   71.0383   39.0509   20.3131 H   0  0  0  0  0  0  0  0  0  0  0  0
   69.0436   35.0973   22.7472 H   0  0  0  0  0  0  0  0  0  0  0  0
   68.3792   37.3839   23.0369 H   0  0  0  0  0  0  0  0  0  0  0  0
   72.1242   32.1059   26.1803 H   0  0  0  0  0  0  0  0  0  0  0  0
   70.0157   36.2085   24.9033 H   0  0  0  0  0  0  0  0  0  0  0  0
  1 20  1  0  0  0  0
  1 21  1  0  0  0  0
  2 22  2  0  0  0  0
  3 10  1  0  0  0  0
  3 24  1  0  0  0  0
  4 23  1  0  0  0  0
  5 11  1  0  0  0  0
  5 22  1  0  0  0  0
  6 20  1  0  0  0  0
  6 23  2  0  0  0  0
  7 23  1  0  0  0  0
  7 25  2  0  0  0  0
  8 26  1  0  0  0  0
  9 27  1  0  0  0  0
 10 12  1  0  0  0  0
 11 12  1  0  0  0  0
 13 14  2  0  0  0  0
 13 15  1  0  0  0  0
 14 21  1  0  0  0  0
 15 24  2  0  0  0  0
 16 20  2  0  0  0  0
 16 25  1  0  0  0  0
 17 21  2  0  0  0  0
 17 24  1  0  0  0  0
 18 26  2  0  0  0  0
 18 27  1  0  0  0  0
 19 28  2  0  0  0  0
 19 29  1  0  0  0  0
 22 28  1  0  0  0  0
 25 29  1  0  0  0  0
 26 28  1  0  0  0  0
 27 29  2  0  0  0  0
  4 30  1  0  0  0  0
  4 31  1  0  0  0  0
  5 32  1  0  0  0  0
  8 33  1  0  0  0  0
  8 34  1  0  0  0  0
  8 35  1  0  0  0  0
  9 36  1  0  0  0  0
  9 37  1  0  0  0  0
  9 38  1  0  0  0  0
 10 39  1  0  0  0  0
 10 40  1  0  0  0  0
 11 41  1  0  0  0  0
 11 42  1  0  0  0  0
 12 43  1  0  0  0  0
 12 44  1  0  0  0  0
 13 45  1  0  0  0  0
 14 46  1  0  0  0  0
 15 47  1  0  0  0  0
 16 48  1  0  0  0  0
 17 49  1  0  0  0  0
 18 50  1  0  0  0  0
 19 51  1  0  0  0  0
M  END
> <pdb_id>
3VHC

> <uniprot_id>
P07900

> <usmiles>
S1c2nc(nc(c3c(cc(c(c3)C(=O)NCCCOc4cc1ccc4)C)C)c2)N

$$$$
VHD_B_1224
          07192420423D 1   1.00000     0.00000     0
            
 41 43  0  0  0  0            999 V2000
   66.0282   34.1749   21.6207 O   0  0  0  0  0  0  0  0  0  0  0  0
   64.3241   34.2122   24.2421 O   0  0  0  0  0  0  0  0  0  0  0  0
   67.0364   32.3568   27.6704 O   0  0  0  0  0  0  0  0  0  0  0  0
   66.9661   36.0604   22.4742 N   0  0  0  0  0  0  0  0  0  0  0  0
   69.7738   31.2687   25.5165 C   0  0  0  0  0  0  0  0  0  0  0  0
   70.6049   33.6247   25.7335 C   0  0  0  0  0  0  0  0  0  0  0  0
   66.9181   36.8632   21.2312 C   0  0  0  0  0  0  0  0  0  0  0  0
   67.4469   36.8415   23.6266 C   0  0  0  0  0  0  0  0  0  0  0  0
   67.1448   40.6794   21.7741 C   0  0  0  0  0  0  0  0  0  0  0  0
   67.4347   40.6639   23.1231 C   0  0  0  0  0  0  0  0  0  0  0  0
   66.9650   39.4914   21.0860 C   0  0  0  0  0  0  0  0  0  0  0  0
   67.5490   39.4542   23.7990 C   0  0  0  0  0  0  0  0  0  0  0  0
   65.6946   33.2606   25.9466 C   0  0  0  0  0  0  0  0  0  0  0  0
   67.9583   33.7120   24.3688 C   0  0  0  0  0  0  0  0  0  0  0  0
   66.5583   34.7497   22.5612 C   0  0  0  0  0  0  0  0  0  0  0  0
   65.5624   33.8486   24.6968 C   0  0  0  0  0  0  0  0  0  0  0  0
   66.9458   32.8961   26.4211 C   0  0  0  0  0  0  0  0  0  0  0  0
   69.4761   32.6486   26.0978 C   0  0  0  0  0  0  0  0  0  0  0  0
   67.0743   38.2708   21.7524 C   0  0  0  0  0  0  0  0  0  0  0  0
   67.3640   38.2560   23.1193 C   0  0  0  0  0  0  0  0  0  0  0  0
   66.6969   34.0643   23.8863 C   0  0  0  0  0  0  0  0  0  0  0  0
   68.1101   33.1292   25.6379 C   0  0  0  0  0  0  0  0  0  0  0  0
   64.2267   34.6361   23.3416 H   0  0  0  0  0  0  0  0  0  0  0  0
   67.9275   32.0861   28.0347 H   0  0  0  0  0  0  0  0  0  0  0  0
   69.0353   30.6390   25.7576 H   0  0  0  0  0  0  0  0  0  0  0  0
   69.8443   31.3344   24.5212 H   0  0  0  0  0  0  0  0  0  0  0  0
   70.6369   30.9288   25.8901 H   0  0  0  0  0  0  0  0  0  0  0  0
   70.4031   34.5258   26.1173 H   0  0  0  0  0  0  0  0  0  0  0  0
   71.4695   33.2891   26.1074 H   0  0  0  0  0  0  0  0  0  0  0  0
   70.6768   33.6947   24.7385 H   0  0  0  0  0  0  0  0  0  0  0  0
   66.0448   36.7468   20.7582 H   0  0  0  0  0  0  0  0  0  0  0  0
   67.6664   36.6203   20.6139 H   0  0  0  0  0  0  0  0  0  0  0  0
   68.3874   36.5966   23.8620 H   0  0  0  0  0  0  0  0  0  0  0  0
   66.8582   36.7086   24.4240 H   0  0  0  0  0  0  0  0  0  0  0  0
   67.0644   41.5517   21.2918 H   0  0  0  0  0  0  0  0  0  0  0  0
   67.5628   41.5246   23.6157 H   0  0  0  0  0  0  0  0  0  0  0  0
   66.7562   39.5085   20.1082 H   0  0  0  0  0  0  0  0  0  0  0  0
   67.7646   39.4463   24.7755 H   0  0  0  0  0  0  0  0  0  0  0  0
   64.8832   33.0987   26.5082 H   0  0  0  0  0  0  0  0  0  0  0  0
   68.7659   33.8768   23.8026 H   0  0  0  0  0  0  0  0  0  0  0  0
   69.4527   32.5639   27.0939 H   0  0  0  0  0  0  0  0  0  0  0  0
  1 15  2  0  0  0  0
  2 16  1  0  0  0  0
  3 17  1  0  0  0  0
  4  7  1  0  0  0  0
  4  8  1  0  0  0  0
  4 15  1  0  0  0  0
  5 18  1  0  0  0  0
  6 18  1  0  0  0  0
  7 19  1  0  0  0  0
  8 20  1  0  0  0  0
  9 10  2  0  0  0  0
  9 11  1  0  0  0  0
 10 12  1  0  0  0  0
 11 19  2  0  0  0  0
 12 20  2  0  0  0  0
 13 16  2  0  0  0  0
 13 17  1  0  0  0  0
 14 21  2  0  0  0  0
 14 22  1  0  0  0  0
 15 21  1  0  0  0  0
 16 21  1  0  0  0  0
 17 22  2  0  0  0  0
 18 22  1  0  0  0  0
 19 20  1  0  0  0  0
  2 23  1  0  0  0  0
  3 24  1  0  0  0  0
  5 25  1  0  0  0  0
  5 26  1  0  0  0  0
  5 27  1  0  0  0  0
  6 28  1  0  0  0  0
  6 29  1  0  0  0  0
  6 30  1  0  0  0  0
  7 31  1  0  0  0  0
  7 32  1  0  0  0  0
  8 33  1  0  0  0  0
  8 34  1  0  0  0  0
  9 35  1  0  0  0  0
 10 36  1  0  0  0  0
 11 37  1  0  0  0  0
 12 38  1  0  0  0  0
 13 39  1  0  0  0  0
 14 40  1  0  0  0  0
 18 41  1  0  0  0  0
M  END
> <pdb_id>
2XAB

> <uniprot_id>
P07900

> <usmiles>
O=C(N1Cc2c(cccc2)C1)c3c(O)cc(O)c(c3)C(C)C

$$$$
VHE_A_1
          07192420423D 1   1.00000     0.00000     0
            
 50 52  0  0  0  0            999 V2000
   66.2292   35.6462   21.3651 S   0  0  0  0  0  0  0  0  0  0  0  0
   69.0659   39.4288   21.0869 O   0  0  0  0  0  0  0  0  0  0  0  0
   72.9311   36.9685   26.5067 O   0  0  0  0  0  0  0  0  0  0  0  0
   64.8553   33.2818   25.5435 N   0  0  0  0  0  0  0  0  0  0  0  0
   69.5134   38.9489   23.3051 N   0  0  0  0  0  0  0  0  0  0  0  0
   72.1727   37.2286   24.3275 N   0  0  0  0  0  0  0  0  0  0  0  0
   65.6322   34.4203   23.5546 N   0  0  0  0  0  0  0  0  0  0  0  0
   67.1560   33.6619   25.2533 N   0  0  0  0  0  0  0  0  0  0  0  0
   73.7345   33.9330   26.3404 C   0  0  0  0  0  0  0  0  0  0  0  0
   69.3799   31.4570   25.4288 C   0  0  0  0  0  0  0  0  0  0  0  0
   67.6357   36.8085   21.0644 C   0  0  0  0  0  0  0  0  0  0  0  0
   70.6783   39.8828   23.3741 C   0  0  0  0  0  0  0  0  0  0  0  0
   72.7435   38.6125   24.2021 C   0  0  0  0  0  0  0  0  0  0  0  0
   72.0399   39.3037   23.0026 C   0  0  0  0  0  0  0  0  0  0  0  0
   67.6007   37.8782   22.1957 C   0  0  0  0  0  0  0  0  0  0  0  0
   67.9949   34.8171   23.3367 C   0  0  0  0  0  0  0  0  0  0  0  0
   71.5007   32.8347   25.8762 C   0  0  0  0  0  0  0  0  0  0  0  0
   70.3183   35.2341   25.1286 C   0  0  0  0  0  0  0  0  0  0  0  0
   66.6800   34.8902   22.8912 C   0  0  0  0  0  0  0  0  0  0  0  0
   65.9041   33.7939   24.7568 C   0  0  0  0  0  0  0  0  0  0  0  0
   68.7743   38.8048   22.1406 C   0  0  0  0  0  0  0  0  0  0  0  0
   72.3132   36.5132   25.5006 C   0  0  0  0  0  0  0  0  0  0  0  0
   68.1856   34.1682   24.5823 C   0  0  0  0  0  0  0  0  0  0  0  0
   72.2699   34.0198   25.9121 C   0  0  0  0  0  0  0  0  0  0  0  0
   70.1290   32.8078   25.4684 C   0  0  0  0  0  0  0  0  0  0  0  0
   71.6652   35.2132   25.5052 C   0  0  0  0  0  0  0  0  0  0  0  0
   69.5498   34.0304   25.0984 C   0  0  0  0  0  0  0  0  0  0  0  0
   65.0568   32.8295   26.4123 H   0  0  0  0  0  0  0  0  0  0  0  0
   63.9087   33.3703   25.2337 H   0  0  0  0  0  0  0  0  0  0  0  0
   69.2620   38.4178   24.1142 H   0  0  0  0  0  0  0  0  0  0  0  0
   71.6864   36.8214   23.5543 H   0  0  0  0  0  0  0  0  0  0  0  0
   74.1435   34.8452   26.3162 H   0  0  0  0  0  0  0  0  0  0  0  0
   73.7889   33.5678   27.2697 H   0  0  0  0  0  0  0  0  0  0  0  0
   74.2293   33.3292   25.7154 H   0  0  0  0  0  0  0  0  0  0  0  0
   68.4387   31.6066   25.1260 H   0  0  0  0  0  0  0  0  0  0  0  0
   69.8407   30.8389   24.7920 H   0  0  0  0  0  0  0  0  0  0  0  0
   69.3755   31.0514   26.3429 H   0  0  0  0  0  0  0  0  0  0  0  0
   67.5310   37.2494   20.1729 H   0  0  0  0  0  0  0  0  0  0  0  0
   68.5028   36.3109   21.0904 H   0  0  0  0  0  0  0  0  0  0  0  0
   70.7391   40.2234   24.3124 H   0  0  0  0  0  0  0  0  0  0  0  0
   70.4933   40.6453   22.7541 H   0  0  0  0  0  0  0  0  0  0  0  0
   73.7283   38.5615   24.0365 H   0  0  0  0  0  0  0  0  0  0  0  0
   72.5729   39.1290   25.0412 H   0  0  0  0  0  0  0  0  0  0  0  0
   72.6241   40.0454   22.6729 H   0  0  0  0  0  0  0  0  0  0  0  0
   71.9134   38.6302   22.2743 H   0  0  0  0  0  0  0  0  0  0  0  0
   67.6017   37.4108   23.0798 H   0  0  0  0  0  0  0  0  0  0  0  0
   66.7625   38.4157   22.1037 H   0  0  0  0  0  0  0  0  0  0  0  0
   68.7567   35.1976   22.8124 H   0  0  0  0  0  0  0  0  0  0  0  0
   71.9346   31.9757   26.1480 H   0  0  0  0  0  0  0  0  0  0  0  0
   69.8886   36.1015   24.8778 H   0  0  0  0  0  0  0  0  0  0  0  0
  1 11  1  0  0  0  0
  1 19  1  0  0  0  0
  2 21  2  0  0  0  0
  3 22  2  0  0  0  0
  4 20  1  0  0  0  0
  5 12  1  0  0  0  0
  5 21  1  0  0  0  0
  6 13  1  0  0  0  0
  6 22  1  0  0  0  0
  7 19  1  0  0  0  0
  7 20  2  0  0  0  0
  8 20  1  0  0  0  0
  8 23  2  0  0  0  0
  9 24  1  0  0  0  0
 10 25  1  0  0  0  0
 11 15  1  0  0  0  0
 12 14  1  0  0  0  0
 13 14  1  0  0  0  0
 15 21  1  0  0  0  0
 16 19  2  0  0  0  0
 16 23  1  0  0  0  0
 17 24  2  0  0  0  0
 17 25  1  0  0  0  0
 18 26  2  0  0  0  0
 18 27  1  0  0  0  0
 22 26  1  0  0  0  0
 23 27  1  0  0  0  0
 24 26  1  0  0  0  0
 25 27  2  0  0  0  0
  4 28  1  0  0  0  0
  4 29  1  0  0  0  0
  5 30  1  0  0  0  0
  6 31  1  0  0  0  0
  9 32  1  0  0  0  0
  9 33  1  0  0  0  0
  9 34  1  0  0  0  0
 10 35  1  0  0  0  0
 10 36  1  0  0  0  0
 10 37  1  0  0  0  0
 11 38  1  0  0  0  0
 11 39  1  0  0  0  0
 12 40  1  0  0  0  0
 12 41  1  0  0  0  0
 13 42  1  0  0  0  0
 13 43  1  0  0  0  0
 14 44  1  0  0  0  0
 14 45  1  0  0  0  0
 15 46  1  0  0  0  0
 15 47  1  0  0  0  0
 16 48  1  0  0  0  0
 17 49  1  0  0  0  0
 18 50  1  0  0  0  0
M  END
> <pdb_id>
3VHD

> <uniprot_id>
P07900

> <usmiles>
S1c2nc(nc(c3c(cc(c(c3)C(=O)NCCCNC(=O)CC1)C)C)c2)N

$$$$
VHK_A_201
          07202408113D 1   1.00000     0.00000     0
            
 38 40  0  0  0  0            999 V2000
  -27.7840    9.6260   10.9662 Cl  0  0  0  0  0  0  0  0  0  0  0  0
  -20.9205   10.8554   20.9882 O   0  0  0  0  0  0  0  0  0  0  0  0
  -29.1548   11.1310   13.9528 N   0  0  0  0  0  0  0  0  0  0  0  0
  -23.6247   13.5650   18.1047 N   0  0  0  0  0  0  0  0  0  0  0  0
  -25.5104    8.8436   11.8770 N   0  0  0  0  0  0  0  0  0  0  0  0
  -22.3987    9.8926   19.5942 N   0  0  0  0  0  0  0  0  0  0  0  0
  -26.2929   10.1857   15.6806 N   0  0  0  0  0  0  0  0  0  0  0  0
  -23.7313   15.9835   17.7995 C   0  0  0  0  0  0  0  0  0  0  0  0
  -23.1000   14.8599   18.5237 C   0  0  0  0  0  0  0  0  0  0  0  0
  -28.1725   10.5985   13.7630 C   0  0  0  0  0  0  0  0  0  0  0  0
  -24.6152    8.6867   12.8487 C   0  0  0  0  0  0  0  0  0  0  0  0
  -24.8183    9.1136   14.1398 C   0  0  0  0  0  0  0  0  0  0  0  0
  -24.9117    8.8024   17.1597 C   0  0  0  0  0  0  0  0  0  0  0  0
  -23.9351    8.7508   18.1325 C   0  0  0  0  0  0  0  0  0  0  0  0
  -22.2572   12.2714   19.6543 C   0  0  0  0  0  0  0  0  0  0  0  0
  -24.8044   11.1976   17.1605 C   0  0  0  0  0  0  0  0  0  0  0  0
  -26.6325    9.4438   12.2032 C   0  0  0  0  0  0  0  0  0  0  0  0
  -21.8013   10.9915   20.1378 C   0  0  0  0  0  0  0  0  0  0  0  0
  -25.3449   10.0237   16.6707 C   0  0  0  0  0  0  0  0  0  0  0  0
  -23.1946   12.3741   18.6706 C   0  0  0  0  0  0  0  0  0  0  0  0
  -23.3827    9.9254   18.6254 C   0  0  0  0  0  0  0  0  0  0  0  0
  -26.0245    9.7426   14.4331 C   0  0  0  0  0  0  0  0  0  0  0  0
  -26.9443    9.9220   13.4692 C   0  0  0  0  0  0  0  0  0  0  0  0
  -23.8215   11.1599   18.1333 C   0  0  0  0  0  0  0  0  0  0  0  0
  -24.3183   13.5350   17.3849 H   0  0  0  0  0  0  0  0  0  0  0  0
  -22.1019    8.9955   19.9216 H   0  0  0  0  0  0  0  0  0  0  0  0
  -27.1675   10.6255   15.8843 H   0  0  0  0  0  0  0  0  0  0  0  0
  -23.3414   16.8471   18.1190 H   0  0  0  0  0  0  0  0  0  0  0  0
  -23.5631   15.8844   16.8187 H   0  0  0  0  0  0  0  0  0  0  0  0
  -24.7165   15.9790   17.9708 H   0  0  0  0  0  0  0  0  0  0  0  0
  -22.1153   14.8789   18.3507 H   0  0  0  0  0  0  0  0  0  0  0  0
  -23.2687   14.9735   19.5028 H   0  0  0  0  0  0  0  0  0  0  0  0
  -23.7504    8.2353   12.6287 H   0  0  0  0  0  0  0  0  0  0  0  0
  -24.1223    8.9766   14.8447 H   0  0  0  0  0  0  0  0  0  0  0  0
  -25.3083    7.9551   16.8063 H   0  0  0  0  0  0  0  0  0  0  0  0
  -23.6249    7.8670   18.4830 H   0  0  0  0  0  0  0  0  0  0  0  0
  -21.8753   13.1059   20.0516 H   0  0  0  0  0  0  0  0  0  0  0  0
  -25.1251   12.0777   16.8103 H   0  0  0  0  0  0  0  0  0  0  0  0
  1 17  1  0  0  0  0
  2 18  2  0  0  0  0
  3 10  3  0  0  0  0
  4  9  1  0  0  0  0
  4 20  1  0  0  0  0
  5 11  2  0  0  0  0
  5 17  1  0  0  0  0
  6 18  1  0  0  0  0
  6 21  1  0  0  0  0
  7 19  1  0  0  0  0
  7 22  1  0  0  0  0
  8  9  1  0  0  0  0
 10 23  1  0  0  0  0
 11 12  1  0  0  0  0
 12 22  2  0  0  0  0
 13 14  1  0  0  0  0
 13 19  2  0  0  0  0
 14 21  2  0  0  0  0
 15 18  1  0  0  0  0
 15 20  2  0  0  0  0
 16 19  1  0  0  0  0
 16 24  2  0  0  0  0
 17 23  2  0  0  0  0
 20 24  1  0  0  0  0
 21 24  1  0  0  0  0
 22 23  1  0  0  0  0
  4 25  1  0  0  0  0
  6 26  1  0  0  0  0
  7 27  1  0  0  0  0
  8 28  1  0  0  0  0
  8 29  1  0  0  0  0
  8 30  1  0  0  0  0
  9 31  1  0  0  0  0
  9 32  1  0  0  0  0
 11 33  1  0  0  0  0
 12 34  1  0  0  0  0
 13 35  1  0  0  0  0
 14 36  1  0  0  0  0
 15 37  1  0  0  0  0
 16 38  1  0  0  0  0
M  END
> <pdb_id>
7OKH

> <uniprot_id>
P41182

> <usmiles>
Clc1nccc(Nc2cc3c(NC(=O)C=C3NCC)cc2)c1C#N

$$$$
VHQ_A_201
          07202408113D 1   1.00000     0.00000     0
            
 33 35  0  0  0  0            999 V2000
  -27.7522    9.9973   11.0966 Cl  0  0  0  0  0  0  0  0  0  0  0  0
  -20.5969    9.9506   21.2192 O   0  0  0  0  0  0  0  0  0  0  0  0
  -29.0346   11.3134   14.1820 N   0  0  0  0  0  0  0  0  0  0  0  0
  -25.4851    9.0444   11.9418 N   0  0  0  0  0  0  0  0  0  0  0  0
  -26.0732   10.2152   15.9143 N   0  0  0  0  0  0  0  0  0  0  0  0
  -22.1049    9.2401   19.6906 N   0  0  0  0  0  0  0  0  0  0  0  0
  -21.6344    7.8716   19.8714 C   0  0  0  0  0  0  0  0  0  0  0  0
  -28.0521   10.7755   13.9638 C   0  0  0  0  0  0  0  0  0  0  0  0
  -24.5709    8.7976   12.8872 C   0  0  0  0  0  0  0  0  0  0  0  0
  -24.7129    9.1576   14.2125 C   0  0  0  0  0  0  0  0  0  0  0  0
  -22.0337   11.5702   20.2862 C   0  0  0  0  0  0  0  0  0  0  0  0
  -24.6641    8.7198   17.1015 C   0  0  0  0  0  0  0  0  0  0  0  0
  -23.6635    8.4564   18.0156 C   0  0  0  0  0  0  0  0  0  0  0  0
  -23.0220   11.8414   19.4231 C   0  0  0  0  0  0  0  0  0  0  0  0
  -24.6228   11.0512   17.6946 C   0  0  0  0  0  0  0  0  0  0  0  0
  -26.5792    9.6747   12.3226 C   0  0  0  0  0  0  0  0  0  0  0  0
  -21.5137   10.2421   20.4639 C   0  0  0  0  0  0  0  0  0  0  0  0
  -25.1386   10.0125   16.9312 C   0  0  0  0  0  0  0  0  0  0  0  0
  -25.8728    9.8219   14.6066 C   0  0  0  0  0  0  0  0  0  0  0  0
  -23.1336    9.4908   18.7733 C   0  0  0  0  0  0  0  0  0  0  0  0
  -23.6093   10.8009   18.6236 C   0  0  0  0  0  0  0  0  0  0  0  0
  -26.8432   10.0916   13.6188 C   0  0  0  0  0  0  0  0  0  0  0  0
  -26.9336   10.6695   16.1455 H   0  0  0  0  0  0  0  0  0  0  0  0
  -22.1394    7.2621   19.2603 H   0  0  0  0  0  0  0  0  0  0  0  0
  -20.6586    7.8238   19.6581 H   0  0  0  0  0  0  0  0  0  0  0  0
  -21.7826    7.5907   20.8196 H   0  0  0  0  0  0  0  0  0  0  0  0
  -23.7331    8.3231   12.6171 H   0  0  0  0  0  0  0  0  0  0  0  0
  -23.9967    8.9455   14.8773 H   0  0  0  0  0  0  0  0  0  0  0  0
  -21.6446   12.3173   20.8251 H   0  0  0  0  0  0  0  0  0  0  0  0
  -25.0494    7.9738   16.5584 H   0  0  0  0  0  0  0  0  0  0  0  0
  -23.3220    7.5236   18.1311 H   0  0  0  0  0  0  0  0  0  0  0  0
  -23.3555   12.7800   19.3340 H   0  0  0  0  0  0  0  0  0  0  0  0
  -24.9768   11.9793   17.5795 H   0  0  0  0  0  0  0  0  0  0  0  0
  1 16  1  0  0  0  0
  2 17  2  0  0  0  0
  3  8  3  0  0  0  0
  4  9  2  0  0  0  0
  4 16  1  0  0  0  0
  5 18  1  0  0  0  0
  5 19  1  0  0  0  0
  6  7  1  0  0  0  0
  6 17  1  0  0  0  0
  6 20  1  0  0  0  0
  8 22  1  0  0  0  0
  9 10  1  0  0  0  0
 10 19  2  0  0  0  0
 11 14  2  0  0  0  0
 11 17  1  0  0  0  0
 12 13  1  0  0  0  0
 12 18  2  0  0  0  0
 13 20  2  0  0  0  0
 14 21  1  0  0  0  0
 15 18  1  0  0  0  0
 15 21  2  0  0  0  0
 16 22  2  0  0  0  0
 19 22  1  0  0  0  0
 20 21  1  0  0  0  0
  5 23  1  0  0  0  0
  7 24  1  0  0  0  0
  7 25  1  0  0  0  0
  7 26  1  0  0  0  0
  9 27  1  0  0  0  0
 10 28  1  0  0  0  0
 11 29  1  0  0  0  0
 12 30  1  0  0  0  0
 13 31  1  0  0  0  0
 14 32  1  0  0  0  0
 15 33  1  0  0  0  0
M  END
> <pdb_id>
7OKE

> <uniprot_id>
P41182

> <usmiles>
Clc1nccc(Nc2cc3c(N(C(=O)C=C3)C)cc2)c1C#N

$$$$
VJJ_A_701
          07202415063D 1   1.00000     0.00000     0
            
 26 27  0  0  0  0            999 V2000
   -0.1320    1.6740   11.3986 O   0  0  0  0  0  0  0  0  0  0  0  0
    0.4660    2.5373   13.3617 O   0  0  0  0  0  0  0  0  0  0  0  0
   -3.9134    4.3916   15.0178 O   0  0  0  0  0  0  0  0  0  0  0  0
   -2.2734    8.1367   15.5948 C   0  0  0  0  0  0  0  0  0  0  0  0
   -2.5585    7.7301   14.3024 C   0  0  0  0  0  0  0  0  0  0  0  0
   -2.5093    7.2620   16.6421 C   0  0  0  0  0  0  0  0  0  0  0  0
   -4.0705    1.6562   12.6008 C   0  0  0  0  0  0  0  0  0  0  0  0
   -3.1223    6.4442   14.2052 C   0  0  0  0  0  0  0  0  0  0  0  0
   -3.0632    5.9803   16.5959 C   0  0  0  0  0  0  0  0  0  0  0  0
   -4.4514    2.6504   13.5031 C   0  0  0  0  0  0  0  0  0  0  0  0
   -2.6855    1.5387   12.2391 C   0  0  0  0  0  0  0  0  0  0  0  0
   -2.1342    3.3666   13.7957 C   0  0  0  0  0  0  0  0  0  0  0  0
   -0.4455    2.2087   12.5263 C   0  0  0  0  0  0  0  0  0  0  0  0
   -3.3396    5.5580   15.3029 C   0  0  0  0  0  0  0  0  0  0  0  0
   -3.5122    3.4962   14.0864 C   0  0  0  0  0  0  0  0  0  0  0  0
   -1.7666    2.4242   12.8439 C   0  0  0  0  0  0  0  0  0  0  0  0
   -0.8488    1.4193   10.7496 H   0  0  0  0  0  0  0  0  0  0  0  0
   -1.9026    9.0488   15.7694 H   0  0  0  0  0  0  0  0  0  0  0  0
   -2.3786    8.3034   13.5031 H   0  0  0  0  0  0  0  0  0  0  0  0
   -2.2493    7.5907   17.5500 H   0  0  0  0  0  0  0  0  0  0  0  0
   -4.7512    1.0353   12.2121 H   0  0  0  0  0  0  0  0  0  0  0  0
   -3.3916    6.1266   13.2961 H   0  0  0  0  0  0  0  0  0  0  0  0
   -3.2416    5.4256   17.4085 H   0  0  0  0  0  0  0  0  0  0  0  0
   -5.4182    2.7573   13.7351 H   0  0  0  0  0  0  0  0  0  0  0  0
   -2.3813    0.8513   11.5796 H   0  0  0  0  0  0  0  0  0  0  0  0
   -1.4508    3.9318   14.2577 H   0  0  0  0  0  0  0  0  0  0  0  0
  1 13  1  0  0  0  0
  2 13  2  0  0  0  0
  3 14  1  0  0  0  0
  3 15  1  0  0  0  0
  4  5  2  0  0  0  0
  4  6  1  0  0  0  0
  5  8  1  0  0  0  0
  6  9  2  0  0  0  0
  7 10  2  0  0  0  0
  7 11  1  0  0  0  0
  8 14  2  0  0  0  0
  9 14  1  0  0  0  0
 10 15  1  0  0  0  0
 11 16  2  0  0  0  0
 12 15  2  0  0  0  0
 12 16  1  0  0  0  0
 13 16  1  0  0  0  0
  1 17  1  0  0  0  0
  4 18  1  0  0  0  0
  5 19  1  0  0  0  0
  6 20  1  0  0  0  0
  7 21  1  0  0  0  0
  8 22  1  0  0  0  0
  9 23  1  0  0  0  0
 10 24  1  0  0  0  0
 11 25  1  0  0  0  0
 12 26  1  0  0  0  0
M  END
> <pdb_id>
3UWE

> <uniprot_id>
P42330

> <usmiles>
O=C(O)c1cc(Oc2ccccc2)ccc1

$$$$
VKE_A_301
          07212402403D 1   1.00000     0.00000     0
            
 28 30  0  0  0  0            999 V2000
   18.9950   17.0180   10.7340 P   0  0  0  0  0  0  0  0  0  0  0  0
   17.6500   17.2840   10.2070 O   0  0  0  0  0  0  0  0  0  0  0  0
   19.1360   17.2270   12.0280 O   0  0  0  0  0  0  0  0  0  0  0  0
   19.4410   15.6110   10.4600 O   0  0  0  0  0  0  0  0  0  0  0  0
   18.0380   18.9180    5.6820 O   0  0  0  0  0  0  0  0  0  0  0  0
   23.8370   15.2570    5.3860 O   0  0  0  0  0  0  0  0  0  0  0  0
   24.1420   15.3780    7.6030 O   0  0  0  0  0  0  0  0  0  0  0  0
   19.6720   17.6670    5.6430 O   0  0  0  0  0  0  0  0  0  0  0  0
   20.1710   18.1210    9.8000 C   0  0  0  0  0  0  0  0  0  0  0  0
   24.7390   14.9930    6.4010 C   0  0  0  0  0  0  0  0  0  0  0  0
   19.0470   18.5980    7.6310 C   0  0  0  0  0  0  0  0  0  0  0  0
   21.6400   16.5120    5.3920 C   0  0  0  0  0  0  0  0  0  0  0  0
   22.0090   16.6680    8.1370 C   0  0  0  0  0  0  0  0  0  0  0  0
   18.8720   18.4320    6.2880 C   0  0  0  0  0  0  0  0  0  0  0  0
   22.7580   15.9540    5.9720 C   0  0  0  0  0  0  0  0  0  0  0  0
   22.9560   16.0480    7.3010 C   0  0  0  0  0  0  0  0  0  0  0  0
   20.7130   17.1390    6.2210 C   0  0  0  0  0  0  0  0  0  0  0  0
   19.9670   17.9040    8.3280 C   0  0  0  0  0  0  0  0  0  0  0  0
   20.8840   17.2250    7.5500 C   0  0  0  0  0  0  0  0  0  0  0  0
   17.6347   17.1002    9.2242 H   0  0  0  0  0  0  0  0  0  0  0  0
   20.0768   17.0221   12.2982 H   0  0  0  0  0  0  0  0  0  0  0  0
   21.1132   17.8938   10.0464 H   0  0  0  0  0  0  0  0  0  0  0  0
   19.9883   19.0774   10.0278 H   0  0  0  0  0  0  0  0  0  0  0  0
   25.5797   15.5144    6.2549 H   0  0  0  0  0  0  0  0  0  0  0  0
   24.9521   14.0162    6.4230 H   0  0  0  0  0  0  0  0  0  0  0  0
   18.4721   19.2580    8.1146 H   0  0  0  0  0  0  0  0  0  0  0  0
   21.4980   16.4681    4.4031 H   0  0  0  0  0  0  0  0  0  0  0  0
   22.1441   16.7056    9.1271 H   0  0  0  0  0  0  0  0  0  0  0  0
  1  2  1  0  0  0  0
  1  3  1  0  0  0  0
  1  4  2  0  0  0  0
  1  9  1  0  0  0  0
  5 14  2  0  0  0  0
  6 10  1  0  0  0  0
  6 15  1  0  0  0  0
  7 10  1  0  0  0  0
  7 16  1  0  0  0  0
  8 14  1  0  0  0  0
  8 17  1  0  0  0  0
  9 18  1  0  0  0  0
 11 14  1  0  0  0  0
 11 18  2  0  0  0  0
 12 15  1  0  0  0  0
 12 17  2  0  0  0  0
 13 16  1  0  0  0  0
 13 19  2  0  0  0  0
 15 16  2  0  0  0  0
 17 19  1  0  0  0  0
 18 19  1  0  0  0  0
  2 20  1  0  0  0  0
  3 21  1  0  0  0  0
  9 22  1  0  0  0  0
  9 23  1  0  0  0  0
 10 24  1  0  0  0  0
 10 25  1  0  0  0  0
 11 26  1  0  0  0  0
 12 27  1  0  0  0  0
 13 28  1  0  0  0  0
M  END
> <pdb_id>
6D17

> <uniprot_id>
Q9F663

> <usmiles>
P(=O)(O)(O)CC=1c2c(OC(=O)C1)cc3OCOc3c2

$$$$
VKE_A_303
          07212402403D 1   1.00000     0.00000     0
            
 28 30  0  0  0  0            999 V2000
   49.3190    9.2340   45.8920 P   0  0  0  0  0  0  0  0  0  0  0  0
   48.6270    9.6720   44.6570 O   0  0  0  0  0  0  0  0  0  0  0  0
   49.7580    7.7400   45.7540 O   0  0  0  0  0  0  0  0  0  0  0  0
   48.5020    9.2800   47.0090 O   0  0  0  0  0  0  0  0  0  0  0  0
   51.3680   13.7950   43.2120 O   0  0  0  0  0  0  0  0  0  0  0  0
   47.3700   15.0740   48.6190 O   0  0  0  0  0  0  0  0  0  0  0  0
   47.6230   13.0290   49.4080 O   0  0  0  0  0  0  0  0  0  0  0  0
   50.2440   14.2780   44.8990 O   0  0  0  0  0  0  0  0  0  0  0  0
   50.8420   10.2930   46.2390 C   0  0  0  0  0  0  0  0  0  0  0  0
   46.9030   14.2320   49.5950 C   0  0  0  0  0  0  0  0  0  0  0  0
   51.1980   12.1330   44.5870 C   0  0  0  0  0  0  0  0  0  0  0  0
   48.8590   14.6990   46.6710 C   0  0  0  0  0  0  0  0  0  0  0  0
   49.2340   12.2080   47.6270 C   0  0  0  0  0  0  0  0  0  0  0  0
   50.9600   13.4800   44.1900 C   0  0  0  0  0  0  0  0  0  0  0  0
   48.2270   14.3610   47.8070 C   0  0  0  0  0  0  0  0  0  0  0  0
   48.4000   13.1480   48.3010 C   0  0  0  0  0  0  0  0  0  0  0  0
   49.6790   13.8560   46.0010 C   0  0  0  0  0  0  0  0  0  0  0  0
   50.7000   11.7380   45.7780 C   0  0  0  0  0  0  0  0  0  0  0  0
   49.8530   12.5870   46.4580 C   0  0  0  0  0  0  0  0  0  0  0  0
   48.3490   10.6279   44.7518 H   0  0  0  0  0  0  0  0  0  0  0  0
   50.2240    7.4509   46.5902 H   0  0  0  0  0  0  0  0  0  0  0  0
   51.6239    9.8862   45.7667 H   0  0  0  0  0  0  0  0  0  0  0  0
   51.0102   10.2910   47.2248 H   0  0  0  0  0  0  0  0  0  0  0  0
   45.9213   14.0758   49.4856 H   0  0  0  0  0  0  0  0  0  0  0  0
   47.0810   14.6118   50.5028 H   0  0  0  0  0  0  0  0  0  0  0  0
   51.7142   11.5040   44.0058 H   0  0  0  0  0  0  0  0  0  0  0  0
   48.7168   15.6177   46.3025 H   0  0  0  0  0  0  0  0  0  0  0  0
   49.3668   11.2888   47.9977 H   0  0  0  0  0  0  0  0  0  0  0  0
  1  2  1  0  0  0  0
  1  3  1  0  0  0  0
  1  4  2  0  0  0  0
  1  9  1  0  0  0  0
  5 14  2  0  0  0  0
  6 10  1  0  0  0  0
  6 15  1  0  0  0  0
  7 10  1  0  0  0  0
  7 16  1  0  0  0  0
  8 14  1  0  0  0  0
  8 17  1  0  0  0  0
  9 18  1  0  0  0  0
 11 14  1  0  0  0  0
 11 18  2  0  0  0  0
 12 15  1  0  0  0  0
 12 17  2  0  0  0  0
 13 16  1  0  0  0  0
 13 19  2  0  0  0  0
 15 16  2  0  0  0  0
 17 19  1  0  0  0  0
 18 19  1  0  0  0  0
  2 20  1  0  0  0  0
  3 21  1  0  0  0  0
  9 22  1  0  0  0  0
  9 23  1  0  0  0  0
 10 24  1  0  0  0  0
 10 25  1  0  0  0  0
 11 26  1  0  0  0  0
 12 27  1  0  0  0  0
 13 28  1  0  0  0  0
M  END
> <pdb_id>
6D1C

> <uniprot_id>
C7C422

> <usmiles>
P(=O)(O)(O)CC=1c2c(OC(=O)C1)cc3OCOc3c2

$$$$
VKP_A_601
          07202408163D 1   1.00000     0.00000     0
            
 43 45  0  0  0  0            999 V2000
   14.7122   20.5072    7.3023 Cl  0  0  0  0  0  0  0  0  0  0  0  0
   17.4866   20.6021    8.5672 Cl  0  0  0  0  0  0  0  0  0  0  0  0
   20.0734   20.0941    6.8346 S   0  0  0  0  0  0  0  0  0  0  0  0
   22.3093   18.1032    6.0729 N   0  0  0  0  0  0  0  0  0  0  0  0
   27.9386   22.4127    3.0929 N   0  0  0  0  0  0  0  0  0  0  0  0
   21.1475   21.3625    4.7853 N   0  0  0  0  0  0  0  0  0  0  0  0
   23.1684   19.4113    4.3611 N   0  0  0  0  0  0  0  0  0  0  0  0
   24.1235   20.7148    2.5929 N   0  0  0  0  0  0  0  0  0  0  0  0
   27.2938   21.6157    0.9915 C   0  0  0  0  0  0  0  0  0  0  0  0
   22.1236   21.5173    3.8549 C   0  0  0  0  0  0  0  0  0  0  0  0
   25.2615   19.7889    2.5426 C   0  0  0  0  0  0  0  0  0  0  0  0
   24.2853   22.0389    1.9511 C   0  0  0  0  0  0  0  0  0  0  0  0
   17.0237   19.5284    4.1643 C   0  0  0  0  0  0  0  0  0  0  0  0
   15.8937   19.8425    4.9454 C   0  0  0  0  0  0  0  0  0  0  0  0
   18.3145   19.6066    4.7309 C   0  0  0  0  0  0  0  0  0  0  0  0
   26.5269   20.4427    3.1155 C   0  0  0  0  0  0  0  0  0  0  0  0
   25.5723   22.7448    2.4279 C   0  0  0  0  0  0  0  0  0  0  0  0
   21.1963   20.2119    5.4887 C   0  0  0  0  0  0  0  0  0  0  0  0
   16.0667   20.1275    6.3144 C   0  0  0  0  0  0  0  0  0  0  0  0
   22.2309   19.2666    5.3149 C   0  0  0  0  0  0  0  0  0  0  0  0
   17.3458   20.2200    6.8812 C   0  0  0  0  0  0  0  0  0  0  0  0
   18.4759   19.9749    6.0845 C   0  0  0  0  0  0  0  0  0  0  0  0
   23.1366   20.5468    3.6093 C   0  0  0  0  0  0  0  0  0  0  0  0
   26.8128   21.8055    2.4310 C   0  0  0  0  0  0  0  0  0  0  0  0
   21.6427   17.9334    6.7987 H   0  0  0  0  0  0  0  0  0  0  0  0
   23.0322   17.4363    5.8920 H   0  0  0  0  0  0  0  0  0  0  0  0
   27.7125   22.5759    4.0532 H   0  0  0  0  0  0  0  0  0  0  0  0
   28.7283   21.8018    3.0356 H   0  0  0  0  0  0  0  0  0  0  0  0
   26.5667   21.1938    0.4499 H   0  0  0  0  0  0  0  0  0  0  0  0
   27.5290   22.5047    0.5986 H   0  0  0  0  0  0  0  0  0  0  0  0
   28.1003   21.0245    0.9847 H   0  0  0  0  0  0  0  0  0  0  0  0
   22.1318   22.3577    3.3130 H   0  0  0  0  0  0  0  0  0  0  0  0
   25.4295   19.5283    1.5919 H   0  0  0  0  0  0  0  0  0  0  0  0
   25.0434   18.9731    3.0783 H   0  0  0  0  0  0  0  0  0  0  0  0
   23.4972   22.6099    2.1809 H   0  0  0  0  0  0  0  0  0  0  0  0
   24.3302   21.9162    0.9596 H   0  0  0  0  0  0  0  0  0  0  0  0
   16.9115   19.2505    3.2102 H   0  0  0  0  0  0  0  0  0  0  0  0
   14.9824   19.8629    4.5341 H   0  0  0  0  0  0  0  0  0  0  0  0
   19.1174   19.4004    4.1716 H   0  0  0  0  0  0  0  0  0  0  0  0
   27.3053   19.8330    2.9663 H   0  0  0  0  0  0  0  0  0  0  0  0
   26.4023   20.5902    4.0967 H   0  0  0  0  0  0  0  0  0  0  0  0
   25.4253   23.0822    3.3578 H   0  0  0  0  0  0  0  0  0  0  0  0
   25.7575   23.5160    1.8189 H   0  0  0  0  0  0  0  0  0  0  0  0
  1 19  1  0  0  0  0
  2 21  1  0  0  0  0
  3 18  1  0  0  0  0
  3 22  1  0  0  0  0
  4 20  1  0  0  0  0
  5 24  1  0  0  0  0
  6 10  1  0  0  0  0
  6 18  2  0  0  0  0
  7 20  2  0  0  0  0
  7 23  1  0  0  0  0
  8 11  1  0  0  0  0
  8 12  1  0  0  0  0
  8 23  1  0  0  0  0
  9 24  1  0  0  0  0
 10 23  2  0  0  0  0
 11 16  1  0  0  0  0
 12 17  1  0  0  0  0
 13 14  2  0  0  0  0
 13 15  1  0  0  0  0
 14 19  1  0  0  0  0
 15 22  2  0  0  0  0
 16 24  1  0  0  0  0
 17 24  1  0  0  0  0
 18 20  1  0  0  0  0
 19 21  2  0  0  0  0
 21 22  1  0  0  0  0
  4 25  1  0  0  0  0
  4 26  1  0  0  0  0
  5 27  1  0  0  0  0
  5 28  1  0  0  0  0
  9 29  1  0  0  0  0
  9 30  1  0  0  0  0
  9 31  1  0  0  0  0
 10 32  1  0  0  0  0
 11 33  1  0  0  0  0
 11 34  1  0  0  0  0
 12 35  1  0  0  0  0
 12 36  1  0  0  0  0
 13 37  1  0  0  0  0
 14 38  1  0  0  0  0
 15 39  1  0  0  0  0
 16 40  1  0  0  0  0
 16 41  1  0  0  0  0
 17 42  1  0  0  0  0
 17 43  1  0  0  0  0
M  END
> <pdb_id>
7JVN

> <uniprot_id>
Q06124

> <usmiles>
Clc1c(Cl)cccc1Sc2ncc(nc2N)N3CCC(N)(CC3)C

$$$$
VKS_B_601
          07202408163D 1   1.00000     0.00000     0
            
 52 55  0  0  0  0            999 V2000
   17.5271   20.7387    8.6297 Cl  0  0  0  0  0  0  0  0  0  0  0  0
   20.1118   20.0709    6.8592 S   0  0  0  0  0  0  0  0  0  0  0  0
   28.6440   22.0649    1.7912 O   0  0  0  0  0  0  0  0  0  0  0  0
   14.9438   20.5925    6.9792 N   0  0  0  0  0  0  0  0  0  0  0  0
   22.4354   18.0666    6.2619 N   0  0  0  0  0  0  0  0  0  0  0  0
   27.7359   23.1087    4.5826 N   0  0  0  0  0  0  0  0  0  0  0  0
   21.0788   21.1453    4.6718 N   0  0  0  0  0  0  0  0  0  0  0  0
   15.9242   19.8907    5.0256 N   0  0  0  0  0  0  0  0  0  0  0  0
   23.2209   19.2325    4.4621 N   0  0  0  0  0  0  0  0  0  0  0  0
   24.0753   20.4354    2.5993 N   0  0  0  0  0  0  0  0  0  0  0  0
   30.3595   22.4940    3.3953 C   0  0  0  0  0  0  0  0  0  0  0  0
   27.3653   21.5123    1.5714 C   0  0  0  0  0  0  0  0  0  0  0  0
   16.9972   19.5543    4.2924 C   0  0  0  0  0  0  0  0  0  0  0  0
   25.1176   19.4414    2.3327 C   0  0  0  0  0  0  0  0  0  0  0  0
   24.3213   21.7859    2.0788 C   0  0  0  0  0  0  0  0  0  0  0  0
   22.0411   21.2277    3.7393 C   0  0  0  0  0  0  0  0  0  0  0  0
   18.2876   19.5280    4.8398 C   0  0  0  0  0  0  0  0  0  0  0  0
   26.3393   19.8927    3.1629 C   0  0  0  0  0  0  0  0  0  0  0  0
   25.4450   22.3221    3.0009 C   0  0  0  0  0  0  0  0  0  0  0  0
   21.2166   20.0776    5.5032 C   0  0  0  0  0  0  0  0  0  0  0  0
   17.3660   20.2975    6.9487 C   0  0  0  0  0  0  0  0  0  0  0  0
   18.4874   19.9671    6.1621 C   0  0  0  0  0  0  0  0  0  0  0  0
   16.1019   20.2367    6.3173 C   0  0  0  0  0  0  0  0  0  0  0  0
   22.2701   19.1261    5.3943 C   0  0  0  0  0  0  0  0  0  0  0  0
   29.1207   21.6502    3.0559 C   0  0  1  0  0  0  0  0  0  0  0  0
   23.0810   20.2590    3.5789 C   0  0  0  0  0  0  0  0  0  0  0  0
   27.8680   21.7683    3.9478 C   0  0  2  0  0  0  0  0  0  0  0  0
   26.7123   21.3978    2.9696 C   0  0  0  0  0  0  0  0  0  0  0  0
   14.9808   20.8637    7.9410 H   0  0  0  0  0  0  0  0  0  0  0  0
   14.0680   20.5790    6.4969 H   0  0  0  0  0  0  0  0  0  0  0  0
   21.7705   17.9101    6.9923 H   0  0  0  0  0  0  0  0  0  0  0  0
   23.2201   17.4551    6.1606 H   0  0  0  0  0  0  0  0  0  0  0  0
   26.9108   23.1303    5.1472 H   0  0  0  0  0  0  0  0  0  0  0  0
   28.5363   23.2867    5.1551 H   0  0  0  0  0  0  0  0  0  0  0  0
   30.7161   22.2185    4.2880 H   0  0  0  0  0  0  0  0  0  0  0  0
   31.0614   22.3512    2.6974 H   0  0  0  0  0  0  0  0  0  0  0  0
   30.1071   23.4612    3.4212 H   0  0  0  0  0  0  0  0  0  0  0  0
   27.4437   20.6096    1.1482 H   0  0  0  0  0  0  0  0  0  0  0  0
   26.8235   22.1111    0.9815 H   0  0  0  0  0  0  0  0  0  0  0  0
   16.8726   19.3158    3.3293 H   0  0  0  0  0  0  0  0  0  0  0  0
   25.3437   19.4245    1.3588 H   0  0  0  0  0  0  0  0  0  0  0  0
   24.8158   18.5325    2.6207 H   0  0  0  0  0  0  0  0  0  0  0  0
   23.4999   22.3520    2.1483 H   0  0  0  0  0  0  0  0  0  0  0  0
   24.6241   21.7534    1.1263 H   0  0  0  0  0  0  0  0  0  0  0  0
   22.0301   22.0129    3.1201 H   0  0  0  0  0  0  0  0  0  0  0  0
   19.0596   19.2000    4.2954 H   0  0  0  0  0  0  0  0  0  0  0  0
   27.1257   19.3361    2.8947 H   0  0  0  0  0  0  0  0  0  0  0  0
   26.1370   19.7397    4.1302 H   0  0  0  0  0  0  0  0  0  0  0  0
   25.1005   22.3679    3.9385 H   0  0  0  0  0  0  0  0  0  0  0  0
   25.7047   23.2384    2.6960 H   0  0  0  0  0  0  0  0  0  0  0  0
   29.3893   20.6885    3.0010 H   0  0  0  0  0  0  0  0  0  0  0  0
   27.9171   21.0745    4.6664 H   0  0  0  0  0  0  0  0  0  0  0  0
  1 21  1  0  0  0  0
  2 20  1  0  0  0  0
  2 22  1  0  0  0  0
  3 12  1  0  0  0  0
  3 25  1  0  0  0  0
  4 23  1  0  0  0  0
  5 24  1  0  0  0  0
  6 27  1  0  0  0  0
  7 16  1  0  0  0  0
  7 20  2  0  0  0  0
  8 13  1  0  0  0  0
  8 23  2  0  0  0  0
  9 24  2  0  0  0  0
  9 26  1  0  0  0  0
 10 14  1  0  0  0  0
 10 15  1  0  0  0  0
 10 26  1  0  0  0  0
 11 25  1  0  0  0  0
 12 28  1  0  0  0  0
 13 17  2  0  0  0  0
 14 18  1  0  0  0  0
 15 19  1  0  0  0  0
 16 26  2  0  0  0  0
 17 22  1  0  0  0  0
 18 28  1  0  0  0  0
 19 28  1  0  0  0  0
 20 24  1  0  0  0  0
 21 22  2  0  0  0  0
 21 23  1  0  0  0  0
 25 27  1  0  0  0  0
 27 28  1  0  0  0  0
  4 29  1  0  0  0  0
  4 30  1  0  0  0  0
  5 31  1  0  0  0  0
  5 32  1  0  0  0  0
  6 33  1  0  0  0  0
  6 34  1  0  0  0  0
 11 35  1  0  0  0  0
 11 36  1  0  0  0  0
 11 37  1  0  0  0  0
 12 38  1  0  0  0  0
 12 39  1  0  0  0  0
 13 40  1  0  0  0  0
 14 41  1  0  0  0  0
 14 42  1  0  0  0  0
 15 43  1  0  0  0  0
 15 44  1  0  0  0  0
 16 45  1  0  0  0  0
 17 46  1  0  0  0  0
 18 47  1  0  0  0  0
 18 48  1  0  0  0  0
 19 49  1  0  0  0  0
 19 50  1  0  0  0  0
 25 51  1  0  0  0  0
 27 52  1  0  0  0  0
M  END
> <pdb_id>
7JVM

> <uniprot_id>
Q06124

> <usmiles>
Clc1c(Sc2ncc(nc2N)N3CCC4([C@H](N)[C@@H](OC4)C)CC3)ccnc1N

$$$$
VMP_A_1840
          07202400133D 1   1.00000     0.00000     0
            
 47 49  0  0  0  0            999 V2000
   33.1450   18.6750   27.3490 O   0  0  0  0  0  0  0  0  0  0  0  0
   32.4130   24.1200   30.3650 O   0  0  0  0  0  0  0  0  0  0  0  0
   33.0960   25.3810   32.5990 O   0  0  0  0  0  0  0  0  0  0  0  0
   33.8410   24.5320   26.2960 O   0  0  0  0  0  0  0  0  0  0  0  0
   31.2140   20.5550   25.2640 O   0  0  0  0  0  0  0  0  0  0  0  0
   33.1250   22.5700   24.2610 O   0  0  0  0  0  0  0  0  0  0  0  0
   33.1660   21.4910   28.2730 O   0  0  0  0  0  0  0  0  0  0  0  0
   34.5310   24.6640   30.9660 N   0  0  0  0  0  0  0  0  0  0  0  0
   34.1150   23.5630   29.0150 N   0  0  0  0  0  0  0  0  0  0  0  0
   32.0610   19.3970   27.9440 C   0  0  0  0  0  0  0  0  0  0  0  0
   39.7130   27.9200   34.4900 C   0  0  0  0  0  0  0  0  0  0  0  0
   39.6940   28.0700   33.1000 C   0  0  0  0  0  0  0  0  0  0  0  0
   38.6630   27.2800   35.1480 C   0  0  0  0  0  0  0  0  0  0  0  0
   38.6180   27.5780   32.3570 C   0  0  0  0  0  0  0  0  0  0  0  0
   35.4530   25.6630   34.3160 C   0  0  0  0  0  0  0  0  0  0  0  0
   36.5250   26.1510   35.0620 C   0  0  0  0  0  0  0  0  0  0  0  0
   36.4850   26.4440   32.2660 C   0  0  0  0  0  0  0  0  0  0  0  0
   33.6260   24.1120   30.1340 C   0  0  0  0  0  0  0  0  0  0  0  0
   34.2310   25.2530   32.1380 C   0  0  0  0  0  0  0  0  0  0  0  0
   33.2110   22.9270   28.0200 C   0  0  1  0  0  0  0  0  0  0  0  0
   32.1120   20.8690   27.5040 C   0  0  2  0  0  0  0  0  0  0  0  0
   33.6700   23.1360   26.5670 C   0  0  1  0  0  0  0  0  0  0  0  0
   32.3560   21.0340   25.9820 C   0  0  2  0  0  0  0  0  0  0  0  0
   32.6390   22.5040   25.6020 C   0  0  2  0  0  0  0  0  0  0  0  0
   35.4310   25.8010   32.9260 C   0  0  0  0  0  0  0  0  0  0  0  0
   37.5840   26.7870   34.4050 C   0  0  0  0  0  0  0  0  0  0  0  0
   37.5630   26.9340   33.0090 C   0  0  0  0  0  0  0  0  0  0  0  0
   33.1071   17.7185   27.6384 H   0  0  0  0  0  0  0  0  0  0  0  0
   34.1392   24.6537   25.3493 H   0  0  0  0  0  0  0  0  0  0  0  0
   31.3694   20.6606   24.2818 H   0  0  0  0  0  0  0  0  0  0  0  0
   32.4543   22.1601   23.6428 H   0  0  0  0  0  0  0  0  0  0  0  0
   35.4926   24.6338   30.6934 H   0  0  0  0  0  0  0  0  0  0  0  0
   35.1005   23.5808   28.8462 H   0  0  0  0  0  0  0  0  0  0  0  0
   32.1348   19.3455   28.9399 H   0  0  0  0  0  0  0  0  0  0  0  0
   31.1937   18.9933   27.6527 H   0  0  0  0  0  0  0  0  0  0  0  0
   40.4857   28.2745   35.0166 H   0  0  0  0  0  0  0  0  0  0  0  0
   40.4516   28.5301   32.6370 H   0  0  0  0  0  0  0  0  0  0  0  0
   38.6808   27.1742   36.1422 H   0  0  0  0  0  0  0  0  0  0  0  0
   38.6028   27.6862   31.3630 H   0  0  0  0  0  0  0  0  0  0  0  0
   34.6923   25.2097   34.7805 H   0  0  0  0  0  0  0  0  0  0  0  0
   36.5369   26.0475   36.0566 H   0  0  0  0  0  0  0  0  0  0  0  0
   36.4669   26.5518   31.2720 H   0  0  0  0  0  0  0  0  0  0  0  0
   32.2915   23.3050   28.1280 H   0  0  0  0  0  0  0  0  0  0  0  0
   31.2431   21.3047   27.7390 H   0  0  0  0  0  0  0  0  0  0  0  0
   34.5490   22.6763   26.4407 H   0  0  0  0  0  0  0  0  0  0  0  0
   33.1484   20.4808   25.7250 H   0  0  0  0  0  0  0  0  0  0  0  0
   31.7851   23.0212   25.6602 H   0  0  0  0  0  0  0  0  0  0  0  0
  1 10  1  0  0  0  0
  2 18  2  0  0  0  0
  3 19  2  0  0  0  0
  4 22  1  0  0  0  0
  5 23  1  0  0  0  0
  6 24  1  0  0  0  0
  7 20  1  0  0  0  0
  7 21  1  0  0  0  0
  8 18  1  0  0  0  0
  8 19  1  0  0  0  0
  9 18  1  0  0  0  0
  9 20  1  0  0  0  0
 10 21  1  0  0  0  0
 11 12  2  0  0  0  0
 11 13  1  0  0  0  0
 12 14  1  0  0  0  0
 13 26  2  0  0  0  0
 14 27  2  0  0  0  0
 15 16  2  0  0  0  0
 15 25  1  0  0  0  0
 16 26  1  0  0  0  0
 17 25  2  0  0  0  0
 17 27  1  0  0  0  0
 19 25  1  0  0  0  0
 20 22  1  0  0  0  0
 21 23  1  0  0  0  0
 22 24  1  0  0  0  0
 23 24  1  0  0  0  0
 26 27  1  0  0  0  0
  1 28  1  0  0  0  0
  4 29  1  0  0  0  0
  5 30  1  0  0  0  0
  6 31  1  0  0  0  0
  8 32  1  0  0  0  0
  9 33  1  0  0  0  0
 10 34  1  0  0  0  0
 10 35  1  0  0  0  0
 11 36  1  0  0  0  0
 12 37  1  0  0  0  0
 13 38  1  0  0  0  0
 14 39  1  0  0  0  0
 15 40  1  0  0  0  0
 16 41  1  0  0  0  0
 17 42  1  0  0  0  0
 20 43  1  0  0  0  0
 21 44  1  0  0  0  0
 22 45  1  0  0  0  0
 23 46  1  0  0  0  0
 24 47  1  0  0  0  0
M  END
> <pdb_id>
3ZCT

> <uniprot_id>
P00489

> <usmiles>
O=C(NC(=O)c1cc2c(cc1)cccc2)N[C@@H]3O[C@@H]([C@@H](O)[C@H](O)[C@H]3O)CO

$$$$
VP7_A_408
          07202401123D 1   1.00000     0.00000     0
            
 45 48  0  0  0  0            999 V2000
   64.8840   34.8070    4.2590 O   0  0  0  0  0  0  0  0  0  0  0  0
   72.6890   36.4990    1.4110 N   0  0  0  0  0  0  0  0  0  0  0  0
   73.5890   37.8610   -0.1810 N   0  0  0  0  0  0  0  0  0  0  0  0
   71.4000   38.2570    0.7110 N   0  0  0  0  0  0  0  0  0  0  0  0
   68.2930   41.6120   -0.1490 N   0  0  0  0  0  0  0  0  0  0  0  0
   66.8160   34.9930    5.6550 C   0  0  0  0  0  0  0  0  0  0  0  0
   66.8300   33.6340    3.5400 C   0  0  0  0  0  0  0  0  0  0  0  0
   73.4260   38.9440   -0.9390 C   0  0  0  0  0  0  0  0  0  0  0  0
   71.8730   42.1540   -1.4400 C   0  0  0  0  0  0  0  0  0  0  0  0
   70.3810   42.4020   -1.2590 C   0  0  0  0  0  0  0  0  0  0  0  0
   66.5240   40.3440    1.1160 C   0  0  0  0  0  0  0  0  0  0  0  0
   72.1590   40.7930   -2.0170 C   0  0  0  0  0  0  0  0  0  0  0  0
   66.2650   39.1740    1.8150 C   0  0  0  0  0  0  0  0  0  0  0  0
   67.0060   37.0490    2.7960 C   0  0  0  0  0  0  0  0  0  0  0  0
   68.5460   38.4140    1.4500 C   0  0  0  0  0  0  0  0  0  0  0  0
   66.7270   36.0890    3.4520 C   0  0  0  0  0  0  0  0  0  0  0  0
   72.5540   37.5600    0.6200 C   0  0  0  0  0  0  0  0  0  0  0  0
   67.7980   40.5400    0.5860 C   0  0  0  0  0  0  0  0  0  0  0  0
   69.6100   41.3690   -0.4910 C   0  0  0  0  0  0  0  0  0  0  0  0
   71.2680   39.3300   -0.0810 C   0  0  0  0  0  0  0  0  0  0  0  0
   67.2710   38.2190    2.0010 C   0  0  0  0  0  0  0  0  0  0  0  0
   72.2820   39.7070   -0.9760 C   0  0  0  0  0  0  0  0  0  0  0  0
   68.8190   39.5840    0.7310 C   0  0  0  0  0  0  0  0  0  0  0  0
   69.9960   40.1090    0.0240 C   0  0  0  0  0  0  0  0  0  0  0  0
   66.3180   34.8910    4.2230 C   0  0  0  0  0  0  0  0  0  0  0  0
   64.5306   34.7388    3.3260 H   0  0  0  0  0  0  0  0  0  0  0  0
   71.9452   36.2353    2.0252 H   0  0  0  0  0  0  0  0  0  0  0  0
   73.5343   35.9651    1.3914 H   0  0  0  0  0  0  0  0  0  0  0  0
   67.7757   42.4324   -0.3926 H   0  0  0  0  0  0  0  0  0  0  0  0
   67.8142   35.0529    5.6573 H   0  0  0  0  0  0  0  0  0  0  0  0
   66.4320   35.8106    6.0840 H   0  0  0  0  0  0  0  0  0  0  0  0
   66.5295   34.1826    6.1661 H   0  0  0  0  0  0  0  0  0  0  0  0
   67.8288   33.6606    3.4983 H   0  0  0  0  0  0  0  0  0  0  0  0
   66.5393   32.8304    4.0594 H   0  0  0  0  0  0  0  0  0  0  0  0
   66.4589   33.5837    2.6128 H   0  0  0  0  0  0  0  0  0  0  0  0
   74.1891   39.2221   -1.5224 H   0  0  0  0  0  0  0  0  0  0  0  0
   72.3217   42.2266   -0.5493 H   0  0  0  0  0  0  0  0  0  0  0  0
   72.2422   42.8491   -2.0569 H   0  0  0  0  0  0  0  0  0  0  0  0
   69.9730   42.4685   -2.1696 H   0  0  0  0  0  0  0  0  0  0  0  0
   70.2754   43.2745   -0.7819 H   0  0  0  0  0  0  0  0  0  0  0  0
   65.8101   41.0337    0.9947 H   0  0  0  0  0  0  0  0  0  0  0  0
   73.0179   40.8403   -2.5270 H   0  0  0  0  0  0  0  0  0  0  0  0
   71.4146   40.5510   -2.6394 H   0  0  0  0  0  0  0  0  0  0  0  0
   65.3519   39.0117    2.1891 H   0  0  0  0  0  0  0  0  0  0  0  0
   69.2566   37.7207    1.5701 H   0  0  0  0  0  0  0  0  0  0  0  0
  1 25  1  0  0  0  0
  2 17  1  0  0  0  0
  3  8  1  0  0  0  0
  3 17  2  0  0  0  0
  4 17  1  0  0  0  0
  4 20  2  0  0  0  0
  5 18  1  0  0  0  0
  5 19  1  0  0  0  0
  6 25  1  0  0  0  0
  7 25  1  0  0  0  0
  8 22  2  0  0  0  0
  9 10  1  0  0  0  0
  9 12  1  0  0  0  0
 10 19  1  0  0  0  0
 11 13  1  0  0  0  0
 11 18  2  0  0  0  0
 12 22  1  0  0  0  0
 13 21  2  0  0  0  0
 14 16  3  0  0  0  0
 14 21  1  0  0  0  0
 15 21  1  0  0  0  0
 15 23  2  0  0  0  0
 16 25  1  0  0  0  0
 18 23  1  0  0  0  0
 19 24  2  0  0  0  0
 20 22  1  0  0  0  0
 20 24  1  0  0  0  0
 23 24  1  0  0  0  0
  1 26  1  0  0  0  0
  2 27  1  0  0  0  0
  2 28  1  0  0  0  0
  5 29  1  0  0  0  0
  6 30  1  0  0  0  0
  6 31  1  0  0  0  0
  6 32  1  0  0  0  0
  7 33  1  0  0  0  0
  7 34  1  0  0  0  0
  7 35  1  0  0  0  0
  8 36  1  0  0  0  0
  9 37  1  0  0  0  0
  9 38  1  0  0  0  0
 10 39  1  0  0  0  0
 10 40  1  0  0  0  0
 11 41  1  0  0  0  0
 12 42  1  0  0  0  0
 12 43  1  0  0  0  0
 13 44  1  0  0  0  0
 15 45  1  0  0  0  0
M  END
> <pdb_id>
7ZHN

> <uniprot_id>
Q5TCY1

> <usmiles>
OC(C#Cc1cc2c(NC3=C2c4nc(ncc4CCC3)N)cc1)(C)C

$$$$
VQP_A_801
          07202403243D 1   1.00000     0.00000     0
            
 59 61  0  0  0  0            999 V2000
  -26.7792    0.7511   -6.3883 F   0  0  0  0  0  0  0  0  0  0  0  0
  -19.7271    4.2519   -8.0003 F   0  0  0  0  0  0  0  0  0  0  0  0
  -24.5599    2.7996   -3.0739 O   0  0  0  0  0  0  0  0  0  0  0  0
  -18.1368    5.9893   -8.9350 O   0  0  0  0  0  0  0  0  0  0  0  0
  -25.2864    0.9464   -2.0557 N   0  0  0  0  0  0  0  0  0  0  0  0
  -21.0858    8.6039   -9.2684 N   0  0  0  0  0  0  0  0  0  0  0  0
  -25.0358    1.0525   -4.3608 N   0  0  0  0  0  0  0  0  0  0  0  0
  -22.1624    3.5758   -7.3258 N   0  0  0  0  0  0  0  0  0  0  0  0
  -18.8216    8.0251   -9.4857 N   0  0  0  0  0  0  0  0  0  0  0  0
  -17.4721    8.4076   -9.9022 C   0  0  0  0  0  0  0  0  0  0  0  0
  -24.1590    3.2022   -9.5784 C   0  0  0  0  0  0  0  0  0  0  0  0
  -26.5667    1.2682    1.9497 C   0  0  0  0  0  0  0  0  0  0  0  0
  -25.8532    3.5873    1.3330 C   0  0  0  0  0  0  0  0  0  0  0  0
  -28.2594    2.9654    1.2912 C   0  0  0  0  0  0  0  0  0  0  0  0
  -19.8605    8.8923   -9.5896 C   0  0  0  0  0  0  0  0  0  0  0  0
  -25.2654    1.5105   -0.6976 C   0  0  0  0  0  0  0  0  0  0  0  0
  -22.7291    7.0681   -8.4225 C   0  0  0  0  0  0  0  0  0  0  0  0
  -23.0035    5.8081   -7.9310 C   0  0  0  0  0  0  0  0  0  0  0  0
  -26.6890    2.0043   -0.4088 C   0  0  0  0  0  0  0  0  0  0  0  0
  -25.4517    1.9654   -7.8921 C   0  0  0  0  0  0  0  0  0  0  0  0
  -23.5907    2.3571   -5.8871 C   0  0  0  0  0  0  0  0  0  0  0  0
  -24.9441    1.6523   -3.1582 C   0  0  0  0  0  0  0  0  0  0  0  0
  -19.0433    6.7912   -9.0227 C   0  0  0  0  0  0  0  0  0  0  0  0
  -25.6588    1.4459   -6.6350 C   0  0  0  0  0  0  0  0  0  0  0  0
  -20.6990    5.1835   -8.1398 C   0  0  0  0  0  0  0  0  0  0  0  0
  -21.4284    7.3899   -8.7780 C   0  0  0  0  0  0  0  0  0  0  0  0
  -21.9852    4.8710   -7.7966 C   0  0  0  0  0  0  0  0  0  0  0  0
  -24.7483    1.6412   -5.6128 C   0  0  0  0  0  0  0  0  0  0  0  0
  -23.3692    2.8912   -7.1515 C   0  0  0  0  0  0  0  0  0  0  0  0
  -24.3094    2.6815   -8.1677 C   0  0  0  0  0  0  0  0  0  0  0  0
  -20.4121    6.4394   -8.6346 C   0  0  0  0  0  0  0  0  0  0  0  0
  -26.8423    2.4647    1.0371 C   0  0  0  0  0  0  0  0  0  0  0  0
  -25.5677   -0.0064   -2.1701 H   0  0  0  0  0  0  0  0  0  0  0  0
  -25.3363    0.0988   -4.3682 H   0  0  0  0  0  0  0  0  0  0  0  0
  -21.3310    3.0756   -7.0837 H   0  0  0  0  0  0  0  0  0  0  0  0
  -16.8469    7.6420   -9.7507 H   0  0  0  0  0  0  0  0  0  0  0  0
  -17.4780    8.6460  -10.8733 H   0  0  0  0  0  0  0  0  0  0  0  0
  -17.1692    9.1963   -9.3672 H   0  0  0  0  0  0  0  0  0  0  0  0
  -23.2971    3.7029   -9.6587 H   0  0  0  0  0  0  0  0  0  0  0  0
  -24.1593    2.4343  -10.2189 H   0  0  0  0  0  0  0  0  0  0  0  0
  -24.9209    3.8139   -9.7909 H   0  0  0  0  0  0  0  0  0  0  0  0
  -27.2197    0.5381    1.7484 H   0  0  0  0  0  0  0  0  0  0  0  0
  -25.6366    0.9363    1.7924 H   0  0  0  0  0  0  0  0  0  0  0  0
  -26.6637    1.5481    2.9048 H   0  0  0  0  0  0  0  0  0  0  0  0
  -26.0412    4.3642    0.7321 H   0  0  0  0  0  0  0  0  0  0  0  0
  -25.9484    3.8728    2.2866 H   0  0  0  0  0  0  0  0  0  0  0  0
  -24.9213    3.2610    1.1742 H   0  0  0  0  0  0  0  0  0  0  0  0
  -28.4476    3.7482    0.6981 H   0  0  0  0  0  0  0  0  0  0  0  0
  -28.9118    2.2336    1.0944 H   0  0  0  0  0  0  0  0  0  0  0  0
  -28.3483    3.2430    2.2478 H   0  0  0  0  0  0  0  0  0  0  0  0
  -19.6708    9.8113   -9.9352 H   0  0  0  0  0  0  0  0  0  0  0  0
  -24.6192    2.2722   -0.6499 H   0  0  0  0  0  0  0  0  0  0  0  0
  -25.0024    0.8083   -0.0359 H   0  0  0  0  0  0  0  0  0  0  0  0
  -23.4611    7.7423   -8.5211 H   0  0  0  0  0  0  0  0  0  0  0  0
  -23.9387    5.5680   -7.6706 H   0  0  0  0  0  0  0  0  0  0  0  0
  -27.3323    1.2585   -0.5817 H   0  0  0  0  0  0  0  0  0  0  0  0
  -26.8960    2.7707   -1.0169 H   0  0  0  0  0  0  0  0  0  0  0  0
  -26.1343    1.8219   -8.6087 H   0  0  0  0  0  0  0  0  0  0  0  0
  -22.9091    2.4900   -5.1676 H   0  0  0  0  0  0  0  0  0  0  0  0
  1 24  1  0  0  0  0
  2 25  1  0  0  0  0
  3 22  2  0  0  0  0
  4 23  2  0  0  0  0
  5 16  1  0  0  0  0
  5 22  1  0  0  0  0
  6 15  2  0  0  0  0
  6 26  1  0  0  0  0
  7 22  1  0  0  0  0
  7 28  1  0  0  0  0
  8 27  1  0  0  0  0
  8 29  1  0  0  0  0
  9 10  1  0  0  0  0
  9 15  1  0  0  0  0
  9 23  1  0  0  0  0
 11 30  1  0  0  0  0
 12 32  1  0  0  0  0
 13 32  1  0  0  0  0
 14 32  1  0  0  0  0
 16 19  1  0  0  0  0
 17 18  1  0  0  0  0
 17 26  2  0  0  0  0
 18 27  2  0  0  0  0
 19 32  1  0  0  0  0
 20 24  1  0  0  0  0
 20 30  2  0  0  0  0
 21 28  1  0  0  0  0
 21 29  2  0  0  0  0
 23 31  1  0  0  0  0
 24 28  2  0  0  0  0
 25 27  1  0  0  0  0
 25 31  2  0  0  0  0
 26 31  1  0  0  0  0
 29 30  1  0  0  0  0
  5 33  1  0  0  0  0
  7 34  1  0  0  0  0
  8 35  1  0  0  0  0
 10 36  1  0  0  0  0
 10 37  1  0  0  0  0
 10 38  1  0  0  0  0
 11 39  1  0  0  0  0
 11 40  1  0  0  0  0
 11 41  1  0  0  0  0
 12 42  1  0  0  0  0
 12 43  1  0  0  0  0
 12 44  1  0  0  0  0
 13 45  1  0  0  0  0
 13 46  1  0  0  0  0
 13 47  1  0  0  0  0
 14 48  1  0  0  0  0
 14 49  1  0  0  0  0
 14 50  1  0  0  0  0
 15 51  1  0  0  0  0
 16 52  1  0  0  0  0
 16 53  1  0  0  0  0
 17 54  1  0  0  0  0
 18 55  1  0  0  0  0
 19 56  1  0  0  0  0
 19 57  1  0  0  0  0
 20 58  1  0  0  0  0
 21 59  1  0  0  0  0
M  END
> <pdb_id>
7K0V

> <uniprot_id>
H7C560

> <usmiles>
Fc1c(Nc2c(cc(F)c(NC(=O)NCCC(C)(C)C)c2)C)ccc3N=CN(C(=O)c13)C

$$$$
VU7_A_403
          07212403373D 1   1.00000     0.00000     0
            
 48 51  0  0  0  0            999 V2000
   35.7437  -19.2672  -22.4376 F   0  0  0  0  0  0  0  0  0  0  0  0
   30.8592   -7.6358  -24.1753 F   0  0  0  0  0  0  0  0  0  0  0  0
   34.6172  -16.5084  -26.7447 O   0  0  0  0  0  0  0  0  0  0  0  0
   32.1674  -17.4610  -27.4848 O   0  0  0  0  0  0  0  0  0  0  0  0
   32.4353  -16.6716  -26.3459 N   0  0  0  0  0  0  0  0  0  0  0  0
   34.0393  -14.1002  -22.3701 N   0  0  0  0  0  0  0  0  0  0  0  0
   31.3407  -18.5871  -27.1745 C   0  0  0  0  0  0  0  0  0  0  0  0
   32.7647  -13.4502  -25.9293 C   0  0  0  0  0  0  0  0  0  0  0  0
   31.3323   -5.5557  -21.2358 C   0  0  0  0  0  0  0  0  0  0  0  0
   31.9691   -6.4466  -20.3892 C   0  0  0  0  0  0  0  0  0  0  0  0
   35.4227  -17.2519  -21.2389 C   0  0  0  0  0  0  0  0  0  0  0  0
   30.9674   -5.9769  -22.5011 C   0  0  0  0  0  0  0  0  0  0  0  0
   35.0100  -15.9516  -21.2029 C   0  0  0  0  0  0  0  0  0  0  0  0
   32.2362   -7.7383  -20.8049 C   0  0  0  0  0  0  0  0  0  0  0  0
   32.1607  -11.9394  -22.0573 C   0  0  0  0  0  0  0  0  0  0  0  0
   33.5550  -11.0102  -23.8399 C   0  0  0  0  0  0  0  0  0  0  0  0
   31.7275  -10.6757  -21.7100 C   0  0  0  0  0  0  0  0  0  0  0  0
   33.1284   -9.7496  -23.4807 C   0  0  0  0  0  0  0  0  0  0  0  0
   34.8504  -17.4531  -23.5773 C   0  0  0  0  0  0  0  0  0  0  0  0
   35.3432  -17.9922  -22.4256 C   0  0  0  0  0  0  0  0  0  0  0  0
   33.6762  -16.2322  -26.0464 C   0  0  0  0  0  0  0  0  0  0  0  0
   31.2287   -7.2709  -22.9318 C   0  0  0  0  0  0  0  0  0  0  0  0
   34.4723  -15.3553  -22.3764 C   0  0  0  0  0  0  0  0  0  0  0  0
   33.4970  -13.4940  -23.4305 C   0  0  0  0  0  0  0  0  0  0  0  0
   33.0654  -12.1241  -23.1306 C   0  0  0  0  0  0  0  0  0  0  0  0
   32.2084   -9.5669  -22.4362 C   0  0  0  0  0  0  0  0  0  0  0  0
   33.3510  -14.1351  -24.7010 C   0  0  0  0  0  0  0  0  0  0  0  0
   31.8711   -8.1793  -22.0812 C   0  0  0  0  0  0  0  0  0  0  0  0
   34.3914  -16.1159  -23.5980 C   0  0  0  0  0  0  0  0  0  0  0  0
   33.8200  -15.4559  -24.7964 C   0  0  0  0  0  0  0  0  0  0  0  0
   31.6786  -16.4289  -25.7389 H   0  0  0  0  0  0  0  0  0  0  0  0
   31.1753  -19.1182  -28.0055 H   0  0  0  0  0  0  0  0  0  0  0  0
   31.8005  -19.1618  -26.4975 H   0  0  0  0  0  0  0  0  0  0  0  0
   30.4685  -18.2681  -26.8036 H   0  0  0  0  0  0  0  0  0  0  0  0
   32.7621  -14.0897  -26.6982 H   0  0  0  0  0  0  0  0  0  0  0  0
   31.8279  -13.1601  -25.7339 H   0  0  0  0  0  0  0  0  0  0  0  0
   33.3193  -12.6513  -26.1621 H   0  0  0  0  0  0  0  0  0  0  0  0
   31.1389   -4.6213  -20.9367 H   0  0  0  0  0  0  0  0  0  0  0  0
   32.2376   -6.1544  -19.4713 H   0  0  0  0  0  0  0  0  0  0  0  0
   35.7850  -17.6801  -20.4110 H   0  0  0  0  0  0  0  0  0  0  0  0
   30.5069   -5.3380  -23.1174 H   0  0  0  0  0  0  0  0  0  0  0  0
   35.0852  -15.4222  -20.3579 H   0  0  0  0  0  0  0  0  0  0  0  0
   32.6989   -8.3687  -20.1816 H   0  0  0  0  0  0  0  0  0  0  0  0
   31.8320  -12.7331  -21.5453 H   0  0  0  0  0  0  0  0  0  0  0  0
   34.2021  -11.1320  -24.5925 H   0  0  0  0  0  0  0  0  0  0  0  0
   31.0833  -10.5486  -20.9557 H   0  0  0  0  0  0  0  0  0  0  0  0
   33.4799   -8.9526  -23.9719 H   0  0  0  0  0  0  0  0  0  0  0  0
   34.8135  -18.0055  -24.4100 H   0  0  0  0  0  0  0  0  0  0  0  0
  1 20  1  0  0  0  0
  2 22  1  0  0  0  0
  3 21  2  0  0  0  0
  4  5  1  0  0  0  0
  4  7  1  0  0  0  0
  5 21  1  0  0  0  0
  6 23  2  0  0  0  0
  6 24  1  0  0  0  0
  8 27  1  0  0  0  0
  9 10  2  0  0  0  0
  9 12  1  0  0  0  0
 10 14  1  0  0  0  0
 11 13  2  0  0  0  0
 11 20  1  0  0  0  0
 12 22  2  0  0  0  0
 13 23  1  0  0  0  0
 14 28  2  0  0  0  0
 15 17  2  0  0  0  0
 15 25  1  0  0  0  0
 16 18  1  0  0  0  0
 16 25  2  0  0  0  0
 17 26  1  0  0  0  0
 18 26  2  0  0  0  0
 19 20  2  0  0  0  0
 19 29  1  0  0  0  0
 21 30  1  0  0  0  0
 22 28  1  0  0  0  0
 23 29  1  0  0  0  0
 24 25  1  0  0  0  0
 24 27  2  0  0  0  0
 26 28  1  0  0  0  0
 27 30  1  0  0  0  0
 29 30  2  0  0  0  0
  5 31  1  0  0  0  0
  7 32  1  0  0  0  0
  7 33  1  0  0  0  0
  7 34  1  0  0  0  0
  8 35  1  0  0  0  0
  8 36  1  0  0  0  0
  8 37  1  0  0  0  0
  9 38  1  0  0  0  0
 10 39  1  0  0  0  0
 11 40  1  0  0  0  0
 12 41  1  0  0  0  0
 13 42  1  0  0  0  0
 14 43  1  0  0  0  0
 15 44  1  0  0  0  0
 16 45  1  0  0  0  0
 17 46  1  0  0  0  0
 18 47  1  0  0  0  0
 19 48  1  0  0  0  0
M  END
> <pdb_id>
7K2U

> <uniprot_id>
Q02127

> <usmiles>
Fc1c(c2ccc(c3nc4c(c(c3C)C(=O)NOC)cc(F)cc4)cc2)cccc1

$$$$
VUP_A_1351
          07192422523D 1   1.00000     0.00000     0
            
 30 32  0  0  0  0            999 V2000
  -31.8841  -10.1929   -5.3841 O   0  0  0  0  0  0  0  0  0  0  0  0
  -32.4772   -9.6410   -2.0354 N   0  0  0  0  0  0  0  0  0  0  0  0
  -32.7672  -10.0457   -4.3195 N   0  0  0  0  0  0  0  0  0  0  0  0
  -30.5616  -10.0741   -4.9689 N   0  0  0  0  0  0  0  0  0  0  0  0
  -26.4572  -10.0421    0.5908 N   0  0  0  0  0  0  0  0  0  0  0  0
  -29.6496   -9.9138   -1.4409 N   0  0  0  0  0  0  0  0  0  0  0  0
  -28.1857   -9.6870   -3.1501 N   0  0  0  0  0  0  0  0  0  0  0  0
  -27.2698  -10.7414   -5.1878 C   0  0  0  0  0  0  0  0  0  0  0  0
  -24.1449   -9.9402   -0.1179 C   0  0  0  0  0  0  0  0  0  0  0  0
  -27.6280   -9.4606   -4.4994 C   0  0  0  0  0  0  0  0  0  0  0  0
  -27.7697  -10.0368    0.3265 C   0  0  0  0  0  0  0  0  0  0  0  0
  -26.0424   -9.7800   -1.7613 C   0  0  0  0  0  0  0  0  0  0  0  0
  -32.0109   -9.8540   -3.2692 C   0  0  0  0  0  0  0  0  0  0  0  0
  -29.4984   -9.7790   -2.7453 C   0  0  0  0  0  0  0  0  0  0  0  0
  -25.6055   -9.9211   -0.4520 C   0  0  0  0  0  0  0  0  0  0  0  0
  -28.3486   -9.9248   -0.9385 C   0  0  0  0  0  0  0  0  0  0  0  0
  -30.6318   -9.8674   -3.6759 C   0  0  0  0  0  0  0  0  0  0  0  0
  -27.4229   -9.7852   -1.9795 C   0  0  0  0  0  0  0  0  0  0  0  0
  -31.8402   -9.5018   -1.2773 H   0  0  0  0  0  0  0  0  0  0  0  0
  -33.4633   -9.6208   -1.8702 H   0  0  0  0  0  0  0  0  0  0  0  0
  -26.8980  -10.5401   -6.0940 H   0  0  0  0  0  0  0  0  0  0  0  0
  -26.5848  -11.2300   -4.6474 H   0  0  0  0  0  0  0  0  0  0  0  0
  -28.0875  -11.3094   -5.2817 H   0  0  0  0  0  0  0  0  0  0  0  0
  -23.6098   -9.8446   -0.9572 H   0  0  0  0  0  0  0  0  0  0  0  0
  -23.9344   -9.1826    0.4999 H   0  0  0  0  0  0  0  0  0  0  0  0
  -23.9160  -10.8063    0.3265 H   0  0  0  0  0  0  0  0  0  0  0  0
  -26.8051   -8.8985   -4.4173 H   0  0  0  0  0  0  0  0  0  0  0  0
  -28.3078   -8.9778   -5.0516 H   0  0  0  0  0  0  0  0  0  0  0  0
  -28.3911  -10.1207    1.1055 H   0  0  0  0  0  0  0  0  0  0  0  0
  -25.3961   -9.6786   -2.5177 H   0  0  0  0  0  0  0  0  0  0  0  0
  1  3  1  0  0  0  0
  1  4  1  0  0  0  0
  2 13  1  0  0  0  0
  3 13  2  0  0  0  0
  4 17  2  0  0  0  0
  5 11  1  0  0  0  0
  5 15  2  0  0  0  0
  6 14  2  0  0  0  0
  6 16  1  0  0  0  0
  7 10  1  0  0  0  0
  7 14  1  0  0  0  0
  7 18  1  0  0  0  0
  8 10  1  0  0  0  0
  9 15  1  0  0  0  0
 11 16  2  0  0  0  0
 12 15  1  0  0  0  0
 12 18  2  0  0  0  0
 13 17  1  0  0  0  0
 14 17  1  0  0  0  0
 16 18  1  0  0  0  0
  2 19  1  0  0  0  0
  2 20  1  0  0  0  0
  8 21  1  0  0  0  0
  8 22  1  0  0  0  0
  8 23  1  0  0  0  0
  9 24  1  0  0  0  0
  9 25  1  0  0  0  0
  9 26  1  0  0  0  0
 10 27  1  0  0  0  0
 10 28  1  0  0  0  0
 11 29  1  0  0  0  0
 12 30  1  0  0  0  0
M  END
> <pdb_id>
4C38

> <uniprot_id>
P00517

> <usmiles>
O1N=C(N)C(=N1)C2=Nc3c(N2CC)cc(nc3)C

$$$$
VVV_A_232
          07202402453D 1   1.00000     0.00000     0
            
 33 34  0  0  0  0            999 V2000
   -6.0882   10.6056   14.3403 O   0  0  0  0  0  0  0  0  0  0  0  0
   -2.1567    4.5782   16.6660 O   0  0  0  0  0  0  0  0  0  0  0  0
   -2.3359    9.4458   16.8392 O   0  0  0  0  0  0  0  0  0  0  0  0
   -4.3682    4.3993   15.1621 O   0  0  0  0  0  0  0  0  0  0  0  0
   -4.5715    9.3369   15.3069 N   0  0  0  0  0  0  0  0  0  0  0  0
   -1.1287    4.6317   17.6360 C   0  0  0  0  0  0  0  0  0  0  0  0
   -1.1307    9.6435   17.5679 C   0  0  0  0  0  0  0  0  0  0  0  0
   -5.1660    3.8677   14.0922 C   0  0  0  0  0  0  0  0  0  0  0  0
   -6.4612    5.7704   13.8000 C   0  0  0  0  0  0  0  0  0  0  0  0
   -2.2199    6.9803   16.7929 C   0  0  0  0  0  0  0  0  0  0  0  0
   -6.3658    8.2855   14.0141 C   0  0  0  0  0  0  0  0  0  0  0  0
   -5.6853    9.4163   14.5568 C   0  0  0  0  0  0  0  0  0  0  0  0
   -2.7385    5.7454   16.3361 C   0  0  0  0  0  0  0  0  0  0  0  0
   -2.8004    8.2005   16.4676 C   0  0  0  0  0  0  0  0  0  0  0  0
   -3.9271    5.6617   15.4887 C   0  0  0  0  0  0  0  0  0  0  0  0
   -4.0001    8.1842   15.6119 C   0  0  0  0  0  0  0  0  0  0  0  0
   -5.8462    7.0292   14.3166 C   0  0  0  0  0  0  0  0  0  0  0  0
   -4.5827    6.9512   15.1377 C   0  0  0  0  0  0  0  0  0  0  0  0
   -4.1597   10.1824   15.6470 H   0  0  0  0  0  0  0  0  0  0  0  0
   -0.7749    3.7105   17.7979 H   0  0  0  0  0  0  0  0  0  0  0  0
   -0.3898    5.2194   17.3066 H   0  0  0  0  0  0  0  0  0  0  0  0
   -1.4947    5.0029   18.4894 H   0  0  0  0  0  0  0  0  0  0  0  0
   -0.9929   10.6213   17.7254 H   0  0  0  0  0  0  0  0  0  0  0  0
   -1.1908    9.1696   18.4464 H   0  0  0  0  0  0  0  0  0  0  0  0
   -0.3609    9.2785   17.0443 H   0  0  0  0  0  0  0  0  0  0  0  0
   -5.2661    2.8797   14.2101 H   0  0  0  0  0  0  0  0  0  0  0  0
   -6.0687    4.2979   14.1040 H   0  0  0  0  0  0  0  0  0  0  0  0
   -4.7187    4.0554   13.2178 H   0  0  0  0  0  0  0  0  0  0  0  0
   -5.9394    4.9842   14.1311 H   0  0  0  0  0  0  0  0  0  0  0  0
   -7.4053    5.7038   14.1227 H   0  0  0  0  0  0  0  0  0  0  0  0
   -6.4506    5.7802   12.8001 H   0  0  0  0  0  0  0  0  0  0  0  0
   -1.4046    6.9748   17.3719 H   0  0  0  0  0  0  0  0  0  0  0  0
   -7.1794    8.3904   13.4422 H   0  0  0  0  0  0  0  0  0  0  0  0
  1 12  2  0  0  0  0
  2  6  1  0  0  0  0
  2 13  1  0  0  0  0
  3  7  1  0  0  0  0
  3 14  1  0  0  0  0
  4  8  1  0  0  0  0
  4 15  1  0  0  0  0
  5 12  1  0  0  0  0
  5 16  1  0  0  0  0
  9 17  1  0  0  0  0
 10 13  2  0  0  0  0
 10 14  1  0  0  0  0
 11 12  1  0  0  0  0
 11 17  2  0  0  0  0
 13 15  1  0  0  0  0
 14 16  2  0  0  0  0
 15 18  2  0  0  0  0
 16 18  1  0  0  0  0
 17 18  1  0  0  0  0
  5 19  1  0  0  0  0
  6 20  1  0  0  0  0
  6 21  1  0  0  0  0
  6 22  1  0  0  0  0
  7 23  1  0  0  0  0
  7 24  1  0  0  0  0
  7 25  1  0  0  0  0
  8 26  1  0  0  0  0
  8 27  1  0  0  0  0
  8 28  1  0  0  0  0
  9 29  1  0  0  0  0
  9 30  1  0  0  0  0
  9 31  1  0  0  0  0
 10 32  1  0  0  0  0
 11 33  1  0  0  0  0
M  END
> <pdb_id>
3NHF

> <uniprot_id>
P16083

> <usmiles>
O=C1Nc2c(OC)cc(OC)c(OC)c2C(=C1)C

$$$$
VX2_A_314
          07192419233D 1   1.00000     0.00000     0
            
 44 47  0  0  0  0            999 V2000
  -22.6347   38.7403   -0.0264 F   0  0  0  0  0  0  0  0  0  0  0  0
  -21.2666   38.1472   -1.6090 F   0  0  0  0  0  0  0  0  0  0  0  0
  -21.0084   40.1614   -0.7436 F   0  0  0  0  0  0  0  0  0  0  0  0
  -16.0484   34.1921    1.2249 N   0  0  0  0  0  0  0  0  0  0  0  0
  -16.8528   34.9709    1.9273 N   0  0  0  0  0  0  0  0  0  0  0  0
  -17.5436   35.6672   -1.5778 N   0  0  0  0  0  0  0  0  0  0  0  0
  -17.4059   35.5459   -4.0162 N   0  0  0  0  0  0  0  0  0  0  0  0
  -17.1568   35.2753   -0.2716 N   0  0  0  0  0  0  0  0  0  0  0  0
  -19.9646   38.4253   -5.7645 C   0  0  0  0  0  0  0  0  0  0  0  0
  -19.3391   38.7552   -4.4161 C   0  0  0  0  0  0  0  0  0  0  0  0
  -20.4124   36.9722   -5.8512 C   0  0  0  0  0  0  0  0  0  0  0  0
  -19.5363   38.4098    3.0550 C   0  0  0  0  0  0  0  0  0  0  0  0
  -15.9518   34.1771   -2.5576 C   0  0  0  0  0  0  0  0  0  0  0  0
  -18.1900   37.8165   -4.0779 C   0  0  0  0  0  0  0  0  0  0  0  0
  -19.2759   36.0095   -5.5378 C   0  0  0  0  0  0  0  0  0  0  0  0
  -15.5185   33.7317   -1.2487 C   0  0  0  0  0  0  0  0  0  0  0  0
  -18.6050   37.3308    2.7436 C   0  0  0  0  0  0  0  0  0  0  0  0
  -20.4314   38.9232    2.0257 C   0  0  0  0  0  0  0  0  0  0  0  0
  -19.4667   37.2759    0.3877 C   0  0  0  0  0  0  0  0  0  0  0  0
  -16.9925   35.1675   -2.7514 C   0  0  0  0  0  0  0  0  0  0  0  0
  -16.1463   34.2961   -0.1005 C   0  0  0  0  0  0  0  0  0  0  0  0
  -18.5913   36.3498   -4.1962 C   0  0  0  0  0  0  0  0  0  0  0  0
  -17.5674   35.6812    1.0147 C   0  0  0  0  0  0  0  0  0  0  0  0
  -18.5531   36.7441    1.3928 C   0  0  0  0  0  0  0  0  0  0  0  0
  -20.4186   38.3588    0.6493 C   0  0  0  0  0  0  0  0  0  0  0  0
  -21.3567   38.8762   -0.4645 C   0  0  0  0  0  0  0  0  0  0  0  0
  -16.8773   35.2592   -4.8152 H   0  0  0  0  0  0  0  0  0  0  0  0
  -19.2909   38.5981   -6.4829 H   0  0  0  0  0  0  0  0  0  0  0  0
  -20.7594   39.0160   -5.9039 H   0  0  0  0  0  0  0  0  0  0  0  0
  -20.0398   38.6769   -3.7069 H   0  0  0  0  0  0  0  0  0  0  0  0
  -18.9934   39.6933   -4.4410 H   0  0  0  0  0  0  0  0  0  0  0  0
  -20.7440   36.7906   -6.7770 H   0  0  0  0  0  0  0  0  0  0  0  0
  -21.1531   36.8223   -5.1964 H   0  0  0  0  0  0  0  0  0  0  0  0
  -19.5606   38.7977    3.9763 H   0  0  0  0  0  0  0  0  0  0  0  0
  -15.5125   33.7830   -3.3648 H   0  0  0  0  0  0  0  0  0  0  0  0
  -17.8939   37.9948   -3.1395 H   0  0  0  0  0  0  0  0  0  0  0  0
  -17.4327   37.9950   -4.7061 H   0  0  0  0  0  0  0  0  0  0  0  0
  -18.5968   36.0606   -6.2701 H   0  0  0  0  0  0  0  0  0  0  0  0
  -19.6428   35.0806   -5.4877 H   0  0  0  0  0  0  0  0  0  0  0  0
  -14.7972   33.0456   -1.1534 H   0  0  0  0  0  0  0  0  0  0  0  0
  -17.9941   36.9850    3.4558 H   0  0  0  0  0  0  0  0  0  0  0  0
  -21.0633   39.6657    2.2479 H   0  0  0  0  0  0  0  0  0  0  0  0
  -19.4420   36.8797   -0.5302 H   0  0  0  0  0  0  0  0  0  0  0  0
  -19.2293   36.1383   -3.4558 H   0  0  0  0  0  0  0  0  0  0  0  0
  1 26  1  0  0  0  0
  2 26  1  0  0  0  0
  3 26  1  0  0  0  0
  4  5  1  0  0  0  0
  4 21  2  0  0  0  0
  5 23  2  0  0  0  0
  6  8  1  0  0  0  0
  6 20  2  0  0  0  0
  7 20  1  0  0  0  0
  7 22  1  0  0  0  0
  8 21  1  0  0  0  0
  8 23  1  0  0  0  0
  9 10  1  0  0  0  0
  9 11  1  0  0  0  0
 10 14  1  0  0  0  0
 11 15  1  0  0  0  0
 12 17  1  0  0  0  0
 12 18  2  0  0  0  0
 13 16  2  0  0  0  0
 13 20  1  0  0  0  0
 14 22  1  0  0  0  0
 15 22  1  0  0  0  0
 16 21  1  0  0  0  0
 17 24  2  0  0  0  0
 18 25  1  0  0  0  0
 19 24  1  0  0  0  0
 19 25  2  0  0  0  0
 23 24  1  0  0  0  0
 25 26  1  0  0  0  0
  7 27  1  0  0  0  0
  9 28  1  0  0  0  0
  9 29  1  0  0  0  0
 10 30  1  0  0  0  0
 10 31  1  0  0  0  0
 11 32  1  0  0  0  0
 11 33  1  0  0  0  0
 12 34  1  0  0  0  0
 13 35  1  0  0  0  0
 14 36  1  0  0  0  0
 14 37  1  0  0  0  0
 15 38  1  0  0  0  0
 15 39  1  0  0  0  0
 16 40  1  0  0  0  0
 17 41  1  0  0  0  0
 18 42  1  0  0  0  0
 19 43  1  0  0  0  0
 22 44  1  0  0  0  0
M  END
> <pdb_id>
3BGQ

> <uniprot_id>
P11309

> <usmiles>
FC(F)(F)c1cc(ccc1)C2=NN=C3N2N=C(NC4CCCCC4)C=C3

$$$$
VZ5_A_263
          07192416293D 1   1.00000     0.00000     0
            
 55 58  0  0  0  0            999 V2000
   -5.4251    1.0682   16.3253 S   0  0  0  0  0  0  0  0  0  0  0  0
   -4.5591    1.5727   17.3473 O   0  0  0  0  0  0  0  0  0  0  0  0
   -6.8353    1.4719   16.4004 O   0  0  0  0  0  0  0  0  0  0  0  0
   -0.2105   11.5104   13.4267 O   0  0  0  0  0  0  0  0  0  0  0  0
   -4.7996    1.5902   15.0200 O   0  0  0  0  0  0  0  0  0  0  0  0
   -5.2644   -0.4523   16.1704 N   0  0  0  0  0  0  0  0  0  0  0  0
   -6.8275    4.4974   16.4981 C   0  0  0  0  0  0  0  0  0  0  0  0
   -0.3201    9.1718   15.0393 C   0  0  0  0  0  0  0  0  0  0  0  0
   -6.6236    4.1449   15.0427 C   0  0  0  0  0  0  0  0  0  0  0  0
    1.2025    9.7046   12.9133 C   0  0  0  0  0  0  0  0  0  0  0  0
   -0.9971    4.1673   13.7376 C   0  0  0  0  0  0  0  0  0  0  0  0
   -0.5876    5.3046   12.8033 C   0  0  0  0  0  0  0  0  0  0  0  0
    1.0590    8.1398   12.8040 C   0  0  0  0  0  0  0  0  0  0  0  0
   -2.8750    7.9443   14.4874 C   0  0  0  0  0  0  0  0  0  0  0  0
   -2.4248    9.2487   13.7464 C   0  0  0  0  0  0  0  0  0  0  0  0
   -3.2071    3.0162   14.3831 C   0  0  0  0  0  0  0  0  0  0  0  0
   -4.5244    5.3076   14.3657 C   0  0  0  0  0  0  0  0  0  0  0  0
   -0.2178   10.2152   12.7738 C   0  0  1  0  0  0  0  0  0  0  0  0
   -4.6129    2.8785   14.5868 C   0  0  0  0  0  0  0  0  0  0  0  0
   -5.1571    4.1163   14.7642 C   0  0  0  0  0  0  0  0  0  0  0  0
   -2.4927    4.1969   14.0511 C   0  0  0  0  0  0  0  0  0  0  0  0
   -2.5019    6.6475   13.7524 C   0  0  1  0  0  0  0  0  0  0  0  0
   -0.9485    6.6102   13.4923 C   0  0  2  0  0  0  0  0  0  0  0  0
   -3.1542    5.4079   14.0910 C   0  0  0  0  0  0  0  0  0  0  0  0
   -0.4637    7.9250   12.8204 C   0  0  1  0  0  0  0  0  0  0  0  0
   -0.8990    9.1489   13.6165 C   0  0  1  0  0  0  0  0  0  0  0  0
   -1.1237   11.9147   13.3752 H   0  0  0  0  0  0  0  0  0  0  0  0
   -5.8780   -0.7808   15.4524 H   0  0  0  0  0  0  0  0  0  0  0  0
   -4.3188   -0.6641   15.9234 H   0  0  0  0  0  0  0  0  0  0  0  0
   -7.8064    4.5208   16.7014 H   0  0  0  0  0  0  0  0  0  0  0  0
   -6.3840    3.8098   17.0729 H   0  0  0  0  0  0  0  0  0  0  0  0
   -6.4272    5.3949   16.6829 H   0  0  0  0  0  0  0  0  0  0  0  0
    0.6769    9.1083   14.9946 H   0  0  0  0  0  0  0  0  0  0  0  0
   -0.5798   10.0253   15.4911 H   0  0  0  0  0  0  0  0  0  0  0  0
   -0.6805    8.3968   15.5583 H   0  0  0  0  0  0  0  0  0  0  0  0
   -7.0637    4.8317   14.4643 H   0  0  0  0  0  0  0  0  0  0  0  0
   -7.0205    3.2465   14.8543 H   0  0  0  0  0  0  0  0  0  0  0  0
    1.7815   10.0603   12.1797 H   0  0  0  0  0  0  0  0  0  0  0  0
    1.5882    9.9649   13.7984 H   0  0  0  0  0  0  0  0  0  0  0  0
   -0.4859    4.2517   14.5930 H   0  0  0  0  0  0  0  0  0  0  0  0
   -0.7755    3.2951   13.3016 H   0  0  0  0  0  0  0  0  0  0  0  0
   -1.0794    5.2284   11.9359 H   0  0  0  0  0  0  0  0  0  0  0  0
    0.3971    5.2690   12.6324 H   0  0  0  0  0  0  0  0  0  0  0  0
    1.4938    7.6846   13.5810 H   0  0  0  0  0  0  0  0  0  0  0  0
    1.4598    7.8014   11.9526 H   0  0  0  0  0  0  0  0  0  0  0  0
   -3.8690    7.9705   14.5941 H   0  0  0  0  0  0  0  0  0  0  0  0
   -2.4432    7.9300   15.3892 H   0  0  0  0  0  0  0  0  0  0  0  0
   -2.6771   10.0566   14.2789 H   0  0  0  0  0  0  0  0  0  0  0  0
   -2.8489    9.2997   12.8422 H   0  0  0  0  0  0  0  0  0  0  0  0
   -2.6620    2.1841   14.4863 H   0  0  0  0  0  0  0  0  0  0  0  0
   -5.0849    6.1306   14.2730 H   0  0  0  0  0  0  0  0  0  0  0  0
   -0.5414   10.2454   11.8281 H   0  0  0  0  0  0  0  0  0  0  0  0
   -2.8588    6.8225   12.8348 H   0  0  0  0  0  0  0  0  0  0  0  0
   -0.5150    6.5802   14.3929 H   0  0  0  0  0  0  0  0  0  0  0  0
   -0.8234    7.9816   11.8891 H   0  0  0  0  0  0  0  0  0  0  0  0
  1  2  2  0  0  0  0
  1  3  2  0  0  0  0
  1  5  1  0  0  0  0
  1  6  1  0  0  0  0
  4 18  1  0  0  0  0
  5 19  1  0  0  0  0
  7  9  1  0  0  0  0
  8 26  1  0  0  0  0
  9 20  1  0  0  0  0
 10 13  1  0  0  0  0
 10 18  1  0  0  0  0
 11 12  1  0  0  0  0
 11 21  1  0  0  0  0
 12 23  1  0  0  0  0
 13 25  1  0  0  0  0
 14 15  1  0  0  0  0
 14 22  1  0  0  0  0
 15 26  1  0  0  0  0
 16 19  2  0  0  0  0
 16 21  1  0  0  0  0
 17 20  2  0  0  0  0
 17 24  1  0  0  0  0
 18 26  1  0  0  0  0
 19 20  1  0  0  0  0
 21 24  2  0  0  0  0
 22 23  1  0  0  0  0
 22 24  1  0  0  0  0
 23 25  1  0  0  0  0
 25 26  1  0  0  0  0
  4 27  1  0  0  0  0
  6 28  1  0  0  0  0
  6 29  1  0  0  0  0
  7 30  1  0  0  0  0
  7 31  1  0  0  0  0
  7 32  1  0  0  0  0
  8 33  1  0  0  0  0
  8 34  1  0  0  0  0
  8 35  1  0  0  0  0
  9 36  1  0  0  0  0
  9 37  1  0  0  0  0
 10 38  1  0  0  0  0
 10 39  1  0  0  0  0
 11 40  1  0  0  0  0
 11 41  1  0  0  0  0
 12 42  1  0  0  0  0
 12 43  1  0  0  0  0
 13 44  1  0  0  0  0
 13 45  1  0  0  0  0
 14 46  1  0  0  0  0
 14 47  1  0  0  0  0
 15 48  1  0  0  0  0
 15 49  1  0  0  0  0
 16 50  1  0  0  0  0
 17 51  1  0  0  0  0
 18 52  1  0  0  0  0
 22 53  1  0  0  0  0
 23 54  1  0  0  0  0
 25 55  1  0  0  0  0
M  END
> <pdb_id>
3OIM

> <uniprot_id>
P00918

> <usmiles>
S(=O)(=O)(Oc1c(cc2c(c1)CC[C@@H]3[C@@H]2CC[C@@]4([C@@H](O)CC[C@H]43)C)CC)N

$$$$
W0Y_A_401
          07202408113D 1   1.00000     0.00000     0
            
 24 24  0  0  0  0            999 V2000
    9.1552  -19.7083  -24.4493 S   0  0  0  0  0  0  0  0  0  0  0  0
   10.0558  -19.6037  -23.3328 O   0  0  0  0  0  0  0  0  0  0  0  0
    9.4275  -20.6889  -25.4657 O   0  0  0  0  0  0  0  0  0  0  0  0
   10.1732  -13.6067  -26.9620 O   0  0  0  0  0  0  0  0  0  0  0  0
    7.6943  -20.0281  -23.8484 N   0  0  0  0  0  0  0  0  0  0  0  0
    8.3273  -14.0633  -28.1457 N   0  0  0  0  0  0  0  0  0  0  0  0
    8.3244  -12.7936  -28.8461 C   0  0  0  0  0  0  0  0  0  0  0  0
    9.7179  -17.0434  -24.6438 C   0  0  0  0  0  0  0  0  0  0  0  0
    8.4582  -17.9884  -26.4672 C   0  0  0  0  0  0  0  0  0  0  0  0
    9.7121  -15.8188  -25.2856 C   0  0  0  0  0  0  0  0  0  0  0  0
    8.4492  -16.7527  -27.0925 C   0  0  0  0  0  0  0  0  0  0  0  0
    9.1003  -18.1293  -25.2440 C   0  0  0  0  0  0  0  0  0  0  0  0
    9.2435  -14.3607  -27.2296 C   0  0  0  0  0  0  0  0  0  0  0  0
    9.0931  -15.6651  -26.5217 C   0  0  0  0  0  0  0  0  0  0  0  0
    7.0363  -20.1087  -24.5971 H   0  0  0  0  0  0  0  0  0  0  0  0
    7.7247  -20.8871  -23.3374 H   0  0  0  0  0  0  0  0  0  0  0  0
    7.6183  -14.7357  -28.3583 H   0  0  0  0  0  0  0  0  0  0  0  0
    7.5586  -12.7691  -29.4887 H   0  0  0  0  0  0  0  0  0  0  0  0
    8.2293  -12.0487  -28.1857 H   0  0  0  0  0  0  0  0  0  0  0  0
    9.1833  -12.6872  -29.3471 H   0  0  0  0  0  0  0  0  0  0  0  0
   10.1639  -17.1447  -23.7545 H   0  0  0  0  0  0  0  0  0  0  0  0
    8.0063  -18.7723  -26.8929 H   0  0  0  0  0  0  0  0  0  0  0  0
   10.1584  -15.0339  -24.8559 H   0  0  0  0  0  0  0  0  0  0  0  0
    7.9731  -16.6435  -27.9651 H   0  0  0  0  0  0  0  0  0  0  0  0
  1  2  2  0  0  0  0
  1  3  2  0  0  0  0
  1  5  1  0  0  0  0
  1 12  1  0  0  0  0
  4 13  2  0  0  0  0
  6  7  1  0  0  0  0
  6 13  1  0  0  0  0
  8 10  1  0  0  0  0
  8 12  2  0  0  0  0
  9 11  2  0  0  0  0
  9 12  1  0  0  0  0
 10 14  2  0  0  0  0
 11 14  1  0  0  0  0
 13 14  1  0  0  0  0
  5 15  1  0  0  0  0
  5 16  1  0  0  0  0
  6 17  1  0  0  0  0
  7 18  1  0  0  0  0
  7 19  1  0  0  0  0
  7 20  1  0  0  0  0
  8 21  1  0  0  0  0
  9 22  1  0  0  0  0
 10 23  1  0  0  0  0
 11 24  1  0  0  0  0
M  END
> <pdb_id>
5S39

> <uniprot_id>
P0DTD1

> <usmiles>
S(=O)(=O)(N)c1ccc(cc1)C(=O)NC

$$$$
W14_A_1
          07202400333D 1   1.00000     0.00000     0
            
 25 26  0  0  0  0            999 V2000
   77.5731   38.9238   66.9698 F   0  0  0  0  0  0  0  0  0  0  0  0
   76.5451   40.6716   66.6701 F   0  0  0  0  0  0  0  0  0  0  0  0
   78.7325   40.9241   67.1664 F   0  0  0  0  0  0  0  0  0  0  0  0
   74.5996   37.1647   74.8224 O   0  0  0  0  0  0  0  0  0  0  0  0
   77.9124   40.8813   69.5987 O   0  0  0  0  0  0  0  0  0  0  0  0
   76.1654   39.4358   69.3947 N   0  0  0  0  0  0  0  0  0  0  0  0
   75.3290   38.5558   68.5319 C   0  0  0  0  0  0  0  0  0  0  0  0
   76.0033   39.4289   70.8736 C   0  0  0  0  0  0  0  0  0  0  0  0
   74.9823   37.2288   69.2829 C   0  0  0  0  0  0  0  0  0  0  0  0
   74.1543   36.1018   72.7187 C   0  0  0  0  0  0  0  0  0  0  0  0
   74.2832   36.1680   71.3054 C   0  0  0  0  0  0  0  0  0  0  0  0
   75.3094   38.2503   72.8493 C   0  0  0  0  0  0  0  0  0  0  0  0
   74.6981   37.1692   73.4560 C   0  0  0  0  0  0  0  0  0  0  0  0
   77.1588   40.2195   68.8836 C   0  0  0  0  0  0  0  0  0  0  0  0
   74.9031   37.2448   70.6918 C   0  0  0  0  0  0  0  0  0  0  0  0
   75.3915   38.2896   71.4593 C   0  0  0  0  0  0  0  0  0  0  0  0
   77.4521   40.1884   67.3673 C   0  0  0  0  0  0  0  0  0  0  0  0
   74.9836   37.9198   75.3538 H   0  0  0  0  0  0  0  0  0  0  0  0
   75.8324   38.3394   67.6954 H   0  0  0  0  0  0  0  0  0  0  0  0
   74.4820   39.0329   68.2972 H   0  0  0  0  0  0  0  0  0  0  0  0
   76.3135   40.1972   71.4335 H   0  0  0  0  0  0  0  0  0  0  0  0
   74.8195   36.3837   68.7738 H   0  0  0  0  0  0  0  0  0  0  0  0
   73.6987   35.3331   73.1679 H   0  0  0  0  0  0  0  0  0  0  0  0
   73.9203   35.4246   70.7436 H   0  0  0  0  0  0  0  0  0  0  0  0
   75.6876   38.9939   73.4007 H   0  0  0  0  0  0  0  0  0  0  0  0
  1 17  1  0  0  0  0
  2 17  1  0  0  0  0
  3 17  1  0  0  0  0
  4 13  1  0  0  0  0
  5 14  2  0  0  0  0
  6  7  1  0  0  0  0
  6  8  1  0  0  0  0
  6 14  1  0  0  0  0
  7  9  1  0  0  0  0
  8 16  2  0  0  0  0
  9 15  2  0  0  0  0
 10 11  2  0  0  0  0
 10 13  1  0  0  0  0
 11 15  1  0  0  0  0
 12 13  2  0  0  0  0
 12 16  1  0  0  0  0
 14 17  1  0  0  0  0
 15 16  1  0  0  0  0
  4 18  1  0  0  0  0
  7 19  1  0  0  0  0
  7 20  1  0  0  0  0
  8 21  1  0  0  0  0
  9 22  1  0  0  0  0
 10 23  1  0  0  0  0
 11 24  1  0  0  0  0
 12 25  1  0  0  0  0
M  END
> <pdb_id>
3OMP

> <uniprot_id>
Q92731

> <usmiles>
FC(F)(F)C(=O)N1C=C2C(C=CC(O)=C2)=CC1

$$$$
W14_B_1
          07202400333D 1   1.00000     0.00000     0
            
 27 28  0  0  0  0            999 V2000
   77.3940   39.0214   66.9004 F   0  0  0  0  0  0  0  0  0  0  0  0
   76.5521   40.7339   66.7703 F   0  0  0  0  0  0  0  0  0  0  0  0
   78.7756   40.8356   67.1212 F   0  0  0  0  0  0  0  0  0  0  0  0
   74.5789   37.2240   74.7913 O   0  0  0  0  0  0  0  0  0  0  0  0
   78.0042   40.8183   69.5843 O   0  0  0  0  0  0  0  0  0  0  0  0
   76.2076   39.4542   69.4115 N   0  0  0  0  0  0  0  0  0  0  0  0
   75.2246   38.6644   68.5837 C   0  0  0  0  0  0  0  0  0  0  0  0
   76.0928   39.4548   70.8934 C   0  0  0  0  0  0  0  0  0  0  0  0
   75.1270   37.2592   69.2290 C   0  0  0  0  0  0  0  0  0  0  0  0
   74.1584   36.0716   72.6916 C   0  0  0  0  0  0  0  0  0  0  0  0
   74.3393   36.1786   71.2612 C   0  0  0  0  0  0  0  0  0  0  0  0
   75.3138   38.2518   72.8312 C   0  0  0  0  0  0  0  0  0  0  0  0
   74.6826   37.1701   73.4352 C   0  0  0  0  0  0  0  0  0  0  0  0
   77.2106   40.1885   68.8806 C   0  0  0  0  0  0  0  0  0  0  0  0
   74.9853   37.2567   70.6636 C   0  0  0  0  0  0  0  0  0  0  0  0
   75.4541   38.3000   71.4400 C   0  0  0  0  0  0  0  0  0  0  0  0
   77.4152   40.1790   67.3523 C   0  0  0  0  0  0  0  0  0  0  0  0
   74.9543   38.0047   75.2908 H   0  0  0  0  0  0  0  0  0  0  0  0
   75.5501   38.5890   67.6412 H   0  0  0  0  0  0  0  0  0  0  0  0
   74.3298   39.1106   68.5927 H   0  0  0  0  0  0  0  0  0  0  0  0
   75.5666   40.2605   71.1653 H   0  0  0  0  0  0  0  0  0  0  0  0
   77.0142   39.5131   71.2777 H   0  0  0  0  0  0  0  0  0  0  0  0
   75.9583   36.7534   68.9984 H   0  0  0  0  0  0  0  0  0  0  0  0
   74.3337   36.7926   68.8379 H   0  0  0  0  0  0  0  0  0  0  0  0
   73.7037   35.2927   73.1235 H   0  0  0  0  0  0  0  0  0  0  0  0
   73.9858   35.4479   70.6772 H   0  0  0  0  0  0  0  0  0  0  0  0
   75.6691   38.9985   73.3936 H   0  0  0  0  0  0  0  0  0  0  0  0
  1 17  1  0  0  0  0
  2 17  1  0  0  0  0
  3 17  1  0  0  0  0
  4 13  1  0  0  0  0
  5 14  2  0  0  0  0
  6  7  1  0  0  0  0
  6  8  1  0  0  0  0
  6 14  1  0  0  0  0
  7  9  1  0  0  0  0
  8 16  1  0  0  0  0
  9 15  1  0  0  0  0
 10 11  1  0  0  0  0
 10 13  2  0  0  0  0
 11 15  2  0  0  0  0
 12 13  1  0  0  0  0
 12 16  2  0  0  0  0
 14 17  1  0  0  0  0
 15 16  1  0  0  0  0
  4 18  1  0  0  0  0
  7 19  1  0  0  0  0
  7 20  1  0  0  0  0
  8 21  1  0  0  0  0
  8 22  1  0  0  0  0
  9 23  1  0  0  0  0
  9 24  1  0  0  0  0
 10 25  1  0  0  0  0
 11 26  1  0  0  0  0
 12 27  1  0  0  0  0
M  END
> <pdb_id>
3OMP

> <uniprot_id>
Q92731

> <usmiles>
FC(F)(F)C(=O)N1Cc2c(ccc(O)c2)CC1

$$$$
W23_B_1
          07202400333D 1   1.00000     0.00000     0
            
 28 29  0  0  0  0            999 V2000
   77.3792   39.6469   67.9121 S   0  0  0  0  0  0  0  0  0  0  0  0
   77.8597   41.5901   66.6151 F   0  0  0  0  0  0  0  0  0  0  0  0
   76.6619   41.9723   68.5433 F   0  0  0  0  0  0  0  0  0  0  0  0
   75.7264   41.1117   66.8159 F   0  0  0  0  0  0  0  0  0  0  0  0
   78.6529   39.6473   68.6492 O   0  0  0  0  0  0  0  0  0  0  0  0
   77.4402   38.9287   66.5823 O   0  0  0  0  0  0  0  0  0  0  0  0
   73.5819   35.5946   73.5029 O   0  0  0  0  0  0  0  0  0  0  0  0
   76.2305   38.9405   68.9195 N   0  0  0  0  0  0  0  0  0  0  0  0
   74.9792   38.5104   68.2806 C   0  0  0  0  0  0  0  0  0  0  0  0
   76.0768   39.5347   70.2836 C   0  0  0  0  0  0  0  0  0  0  0  0
   74.7936   37.1265   68.9721 C   0  0  0  0  0  0  0  0  0  0  0  0
   74.7891   37.6297   73.3408 C   0  0  0  0  0  0  0  0  0  0  0  0
   75.4192   38.5849   72.5375 C   0  0  0  0  0  0  0  0  0  0  0  0
   74.1651   36.3413   71.3156 C   0  0  0  0  0  0  0  0  0  0  0  0
   74.1965   36.5047   72.7207 C   0  0  0  0  0  0  0  0  0  0  0  0
   75.4188   38.4166   71.1452 C   0  0  0  0  0  0  0  0  0  0  0  0
   74.8102   37.2924   70.5310 C   0  0  0  0  0  0  0  0  0  0  0  0
   76.8575   41.2681   67.4517 C   0  0  0  0  0  0  0  0  0  0  0  0
   73.1543   34.7895   73.0920 H   0  0  0  0  0  0  0  0  0  0  0  0
   75.0787   38.4210   67.2896 H   0  0  0  0  0  0  0  0  0  0  0  0
   74.2237   39.1330   68.4849 H   0  0  0  0  0  0  0  0  0  0  0  0
   75.4888   40.3428   70.2497 H   0  0  0  0  0  0  0  0  0  0  0  0
   76.9688   39.7870   70.6586 H   0  0  0  0  0  0  0  0  0  0  0  0
   75.5375   36.5176   68.6970 H   0  0  0  0  0  0  0  0  0  0  0  0
   73.9187   36.7319   68.6914 H   0  0  0  0  0  0  0  0  0  0  0  0
   74.7579   37.7395   74.3343 H   0  0  0  0  0  0  0  0  0  0  0  0
   75.8649   39.3788   72.9510 H   0  0  0  0  0  0  0  0  0  0  0  0
   73.6930   35.5647   70.8985 H   0  0  0  0  0  0  0  0  0  0  0  0
  1  5  2  0  0  0  0
  1  6  2  0  0  0  0
  1  8  1  0  0  0  0
  1 18  1  0  0  0  0
  2 18  1  0  0  0  0
  3 18  1  0  0  0  0
  4 18  1  0  0  0  0
  7 15  1  0  0  0  0
  8  9  1  0  0  0  0
  8 10  1  0  0  0  0
  9 11  1  0  0  0  0
 10 16  1  0  0  0  0
 11 17  1  0  0  0  0
 12 13  1  0  0  0  0
 12 15  2  0  0  0  0
 13 16  2  0  0  0  0
 14 15  1  0  0  0  0
 14 17  2  0  0  0  0
 16 17  1  0  0  0  0
  7 19  1  0  0  0  0
  9 20  1  0  0  0  0
  9 21  1  0  0  0  0
 10 22  1  0  0  0  0
 10 23  1  0  0  0  0
 11 24  1  0  0  0  0
 11 25  1  0  0  0  0
 12 26  1  0  0  0  0
 13 27  1  0  0  0  0
 14 28  1  0  0  0  0
M  END
> <pdb_id>
3OMQ

> <uniprot_id>
Q92731

> <usmiles>
S(=O)(=O)(N1Cc2c(cc(O)cc2)CC1)C(F)(F)F

$$$$
W2D_A_1224
          07192420423D 1   1.00000     0.00000     0
            
 42 46  0  0  0  0            999 V2000
   69.3047   38.6309   19.3283 S   0  0  0  0  0  0  0  0  0  0  0  0
   70.7725   38.8954   19.5324 O   0  0  0  0  0  0  0  0  0  0  0  0
   68.5531   39.9544   19.3904 O   0  0  0  0  0  0  0  0  0  0  0  0
   73.3582   30.4589   24.0425 O   0  0  0  0  0  0  0  0  0  0  0  0
   71.0675   30.1926   24.0509 O   0  0  0  0  0  0  0  0  0  0  0  0
   68.9406   37.9235   17.7707 N   0  0  0  0  0  0  0  0  0  0  0  0
   65.1310   33.1365   25.5040 N   0  0  0  0  0  0  0  0  0  0  0  0
   67.3695   33.9353   25.3551 N   0  0  0  0  0  0  0  0  0  0  0  0
   65.9782   34.5375   23.7820 N   0  0  0  0  0  0  0  0  0  0  0  0
   69.7829   35.9005   23.6723 N   0  0  0  0  0  0  0  0  0  0  0  0
   68.0138   34.7034   24.5497 N   0  0  0  0  0  0  0  0  0  0  0  0
   72.3333   29.4896   23.8271 C   0  0  0  0  0  0  0  0  0  0  0  0
   67.3637   37.1710   20.5320 C   0  0  0  0  0  0  0  0  0  0  0  0
   73.2827   32.7892   24.8662 C   0  0  0  0  0  0  0  0  0  0  0  0
   72.4734   33.8684   25.2763 C   0  0  0  0  0  0  0  0  0  0  0  0
   66.8441   36.3355   21.5228 C   0  0  0  0  0  0  0  0  0  0  0  0
   69.4930   37.1388   21.6438 C   0  0  0  0  0  0  0  0  0  0  0  0
   70.5811   32.4350   24.8757 C   0  0  0  0  0  0  0  0  0  0  0  0
   70.1723   34.6886   25.6869 C   0  0  0  0  0  0  0  0  0  0  0  0
   68.6897   37.5717   20.5929 C   0  0  0  0  0  0  0  0  0  0  0  0
   66.1065   33.8440   24.9080 C   0  0  0  0  0  0  0  0  0  0  0  0
   72.7344   31.6118   24.4750 C   0  0  0  0  0  0  0  0  0  0  0  0
   71.4095   31.4450   24.4823 C   0  0  0  0  0  0  0  0  0  0  0  0
   69.3054   35.0976   24.6393 C   0  0  0  0  0  0  0  0  0  0  0  0
   67.1813   35.0898   23.5594 C   0  0  0  0  0  0  0  0  0  0  0  0
   68.9874   36.3065   22.6403 C   0  0  0  0  0  0  0  0  0  0  0  0
   71.0798   33.6727   25.2799 C   0  0  0  0  0  0  0  0  0  0  0  0
   67.6527   35.8906   22.5835 C   0  0  0  0  0  0  0  0  0  0  0  0
   67.9550   37.7722   17.6955 H   0  0  0  0  0  0  0  0  0  0  0  0
   69.2390   38.5435   17.0450 H   0  0  0  0  0  0  0  0  0  0  0  0
   64.2130   33.1184   25.1078 H   0  0  0  0  0  0  0  0  0  0  0  0
   65.3234   32.6283   26.3435 H   0  0  0  0  0  0  0  0  0  0  0  0
   72.4296   28.7315   24.4720 H   0  0  0  0  0  0  0  0  0  0  0  0
   72.3765   29.1390   22.8916 H   0  0  0  0  0  0  0  0  0  0  0  0
   66.7809   37.4797   19.7803 H   0  0  0  0  0  0  0  0  0  0  0  0
   74.2772   32.8935   24.8637 H   0  0  0  0  0  0  0  0  0  0  0  0
   72.8749   34.7410   25.5545 H   0  0  0  0  0  0  0  0  0  0  0  0
   65.8867   36.0505   21.4775 H   0  0  0  0  0  0  0  0  0  0  0  0
   70.4488   37.4299   21.6843 H   0  0  0  0  0  0  0  0  0  0  0  0
   69.5934   32.2784   24.8774 H   0  0  0  0  0  0  0  0  0  0  0  0
   69.6186   34.3393   26.4429 H   0  0  0  0  0  0  0  0  0  0  0  0
   70.6969   35.4815   25.9966 H   0  0  0  0  0  0  0  0  0  0  0  0
  1  2  2  0  0  0  0
  1  3  2  0  0  0  0
  1  6  1  0  0  0  0
  1 20  1  0  0  0  0
  4 12  1  0  0  0  0
  4 22  1  0  0  0  0
  5 12  1  0  0  0  0
  5 23  1  0  0  0  0
  7 21  1  0  0  0  0
  8 11  1  0  0  0  0
  8 21  2  0  0  0  0
  9 21  1  0  0  0  0
  9 25  2  0  0  0  0
 10 24  2  0  0  0  0
 10 26  1  0  0  0  0
 11 24  1  0  0  0  0
 11 25  1  0  0  0  0
 13 16  1  0  0  0  0
 13 20  2  0  0  0  0
 14 15  2  0  0  0  0
 14 22  1  0  0  0  0
 15 27  1  0  0  0  0
 16 28  2  0  0  0  0
 17 20  1  0  0  0  0
 17 26  2  0  0  0  0
 18 23  1  0  0  0  0
 18 27  2  0  0  0  0
 19 24  1  0  0  0  0
 19 27  1  0  0  0  0
 22 23  2  0  0  0  0
 25 28  1  0  0  0  0
 26 28  1  0  0  0  0
  6 29  1  0  0  0  0
  6 30  1  0  0  0  0
  7 31  1  0  0  0  0
  7 32  1  0  0  0  0
 12 33  1  0  0  0  0
 12 34  1  0  0  0  0
 13 35  1  0  0  0  0
 14 36  1  0  0  0  0
 15 37  1  0  0  0  0
 16 38  1  0  0  0  0
 17 39  1  0  0  0  0
 18 40  1  0  0  0  0
 19 41  1  0  0  0  0
 19 42  1  0  0  0  0
M  END
> <pdb_id>
4CWQ

> <uniprot_id>
P07900

> <usmiles>
S(=O)(=O)(N)c1cc2N=C(N3N=C(N=C3c2cc1)N)Cc4cc5OCOc5cc4

$$$$
W6P_B_503
          07202414313D 1   1.00000     0.00000     0
            
 17 18  0  0  0  0            999 V2000
  -14.1147   10.9958   27.3207 O   0  0  0  0  0  0  0  0  0  0  0  0
  -14.3806   11.3449   25.0498 N   0  0  0  0  0  0  0  0  0  0  0  0
  -15.0846   10.0387   21.6665 C   0  0  0  0  0  0  0  0  0  0  0  0
  -15.2623    8.6906   22.0332 C   0  0  0  0  0  0  0  0  0  0  0  0
  -14.7838   11.0064   22.6284 C   0  0  0  0  0  0  0  0  0  0  0  0
  -15.1411    8.2848   23.3696 C   0  0  0  0  0  0  0  0  0  0  0  0
  -14.6519    9.1282   25.7951 C   0  0  0  0  0  0  0  0  0  0  0  0
  -14.3478   10.5748   26.1989 C   0  0  0  0  0  0  0  0  0  0  0  0
  -14.6687   10.5803   23.9338 C   0  0  0  0  0  0  0  0  0  0  0  0
  -14.8416    9.2504   24.3129 C   0  0  0  0  0  0  0  0  0  0  0  0
  -14.2165   12.3311   25.0289 H   0  0  0  0  0  0  0  0  0  0  0  0
  -15.1747   10.3063   20.7071 H   0  0  0  0  0  0  0  0  0  0  0  0
  -15.4781    8.0131   21.3301 H   0  0  0  0  0  0  0  0  0  0  0  0
  -14.6575   11.9668   22.3802 H   0  0  0  0  0  0  0  0  0  0  0  0
  -15.2671    7.3281   23.6321 H   0  0  0  0  0  0  0  0  0  0  0  0
  -15.4820    8.7936   26.2411 H   0  0  0  0  0  0  0  0  0  0  0  0
  -13.8878    8.5217   26.0147 H   0  0  0  0  0  0  0  0  0  0  0  0
  1  8  2  0  0  0  0
  2  8  1  0  0  0  0
  2  9  1  0  0  0  0
  3  4  2  0  0  0  0
  3  5  1  0  0  0  0
  4  6  1  0  0  0  0
  5  9  2  0  0  0  0
  6 10  2  0  0  0  0
  7  8  1  0  0  0  0
  7 10  1  0  0  0  0
  9 10  1  0  0  0  0
  2 11  1  0  0  0  0
  3 12  1  0  0  0  0
  4 13  1  0  0  0  0
  5 14  1  0  0  0  0
  6 15  1  0  0  0  0
  7 16  1  0  0  0  0
  7 17  1  0  0  0  0
M  END
> <pdb_id>
7EAT

> <uniprot_id>
Q16654

> <usmiles>
O=C1Nc2c(cccc2)C1

$$$$
W94_A_1000
          07212402213D 1   1.00000     0.00000     0
            
 61 65  0  0  0  0            999 V2000
   34.2347   47.9290   36.1881 S   0  0  0  0  0  0  0  0  0  0  0  0
   46.8147   50.6431   42.7451 F   0  0  0  0  0  0  0  0  0  0  0  0
   44.6359   50.9193   42.7681 F   0  0  0  0  0  0  0  0  0  0  0  0
   45.9643   52.6400   42.5012 F   0  0  0  0  0  0  0  0  0  0  0  0
   36.3918   51.8515   36.1033 O   0  0  0  0  0  0  0  0  0  0  0  0
   46.9468   51.0389   40.1226 N   0  0  0  0  0  0  0  0  0  0  0  0
   38.6140   52.0180   34.4289 N   0  0  0  0  0  0  0  0  0  0  0  0
   46.4917   50.9142   38.8148 N   0  0  0  0  0  0  0  0  0  0  0  0
   36.0003   49.7350   35.5193 N   0  0  0  0  0  0  0  0  0  0  0  0
   41.5941   51.1254   36.3184 N   0  0  0  0  0  0  0  0  0  0  0  0
   34.6497   49.6792   36.0989 C   0  0  0  0  0  0  0  0  0  0  0  0
   35.5477   47.3506   35.1622 C   0  0  0  0  0  0  0  0  0  0  0  0
   39.9723   52.3313   34.8385 C   0  0  0  0  0  0  0  0  0  0  0  0
   36.4637   48.5096   34.8706 C   0  0  0  0  0  0  0  0  0  0  0  0
   41.9684   49.8040   36.8252 C   0  0  0  0  0  0  0  0  0  0  0  0
   42.6981   51.9937   35.8564 C   0  0  0  0  0  0  0  0  0  0  0  0
   49.4049   50.2980   35.9134 C   0  0  0  0  0  0  0  0  0  0  0  0
   49.4481   49.6007   37.1150 C   0  0  0  0  0  0  0  0  0  0  0  0
   48.3716   51.2095   35.6809 C   0  0  0  0  0  0  0  0  0  0  0  0
   42.9574   49.9943   37.9788 C   0  0  0  0  0  0  0  0  0  0  0  0
   43.6923   52.1738   37.0143 C   0  0  0  0  0  0  0  0  0  0  0  0
   48.4526   49.8404   38.0613 C   0  0  0  0  0  0  0  0  0  0  0  0
   47.3901   51.4345   36.6424 C   0  0  0  0  0  0  0  0  0  0  0  0
   39.2527   50.3277   35.9055 C   0  0  0  0  0  0  0  0  0  0  0  0
   44.6328   51.1043   39.9772 C   0  0  0  0  0  0  0  0  0  0  0  0
   36.7741   50.8159   35.5775 C   0  0  0  0  0  0  0  0  0  0  0  0
   38.1445   50.7400   34.9346 C   0  0  1  0  0  0  0  0  0  0  0  0
   45.7796   51.1603   40.7664 C   0  0  0  0  0  0  0  0  0  0  0  0
   40.5129   50.9872   35.3232 C   0  0  2  0  0  0  0  0  0  0  0  0
   47.3987   50.7480   37.8571 C   0  0  0  0  0  0  0  0  0  0  0  0
   45.1496   50.9350   38.6885 C   0  0  0  0  0  0  0  0  0  0  0  0
   44.1688   50.8224   37.5577 C   0  0  0  0  0  0  0  0  0  0  0  0
   45.7889   51.3440   42.2547 C   0  0  0  0  0  0  0  0  0  0  0  0
   38.5803   51.9962   33.4297 H   0  0  0  0  0  0  0  0  0  0  0  0
   34.6444   50.0864   37.0123 H   0  0  0  0  0  0  0  0  0  0  0  0
   33.9985   50.1632   35.5145 H   0  0  0  0  0  0  0  0  0  0  0  0
   35.1753   46.9902   34.3069 H   0  0  0  0  0  0  0  0  0  0  0  0
   36.0542   46.6297   35.6351 H   0  0  0  0  0  0  0  0  0  0  0  0
   39.9772   53.0063   35.5763 H   0  0  0  0  0  0  0  0  0  0  0  0
   40.5083   52.6760   34.0678 H   0  0  0  0  0  0  0  0  0  0  0  0
   37.3805   48.2915   35.2052 H   0  0  0  0  0  0  0  0  0  0  0  0
   36.4961   48.6575   33.8821 H   0  0  0  0  0  0  0  0  0  0  0  0
   42.3979   49.2713   36.0959 H   0  0  0  0  0  0  0  0  0  0  0  0
   41.1545   49.3246   37.1531 H   0  0  0  0  0  0  0  0  0  0  0  0
   42.3349   52.8841   35.5818 H   0  0  0  0  0  0  0  0  0  0  0  0
   43.1597   51.5676   35.0783 H   0  0  0  0  0  0  0  0  0  0  0  0
   50.1091   50.1482   35.2193 H   0  0  0  0  0  0  0  0  0  0  0  0
   50.1775   48.9412   37.2969 H   0  0  0  0  0  0  0  0  0  0  0  0
   48.3367   51.7061   34.8136 H   0  0  0  0  0  0  0  0  0  0  0  0
   43.2709   49.0963   38.2876 H   0  0  0  0  0  0  0  0  0  0  0  0
   42.4917   50.4614   38.7304 H   0  0  0  0  0  0  0  0  0  0  0  0
   43.2454   52.6814   37.7509 H   0  0  0  0  0  0  0  0  0  0  0  0
   44.4836   52.6899   36.6863 H   0  0  0  0  0  0  0  0  0  0  0  0
   48.4902   49.3424   38.9276 H   0  0  0  0  0  0  0  0  0  0  0  0
   46.6663   52.0998   36.4592 H   0  0  0  0  0  0  0  0  0  0  0  0
   39.3511   49.3329   35.9324 H   0  0  0  0  0  0  0  0  0  0  0  0
   39.0650   50.6691   36.8265 H   0  0  0  0  0  0  0  0  0  0  0  0
   43.6764   51.1692   40.2619 H   0  0  0  0  0  0  0  0  0  0  0  0
   38.1133   50.0842   34.1803 H   0  0  0  0  0  0  0  0  0  0  0  0
   40.8405   50.4553   34.5423 H   0  0  0  0  0  0  0  0  0  0  0  0
   44.6224   50.3376   36.8099 H   0  0  0  0  0  0  0  0  0  0  0  0
  1 11  1  0  0  0  0
  1 12  1  0  0  0  0
  2 33  1  0  0  0  0
  3 33  1  0  0  0  0
  4 33  1  0  0  0  0
  5 26  2  0  0  0  0
  6  8  1  0  0  0  0
  6 28  2  0  0  0  0
  7 13  1  0  0  0  0
  7 27  1  0  0  0  0
  8 30  1  0  0  0  0
  8 31  1  0  0  0  0
  9 11  1  0  0  0  0
  9 14  1  0  0  0  0
  9 26  1  0  0  0  0
 10 15  1  0  0  0  0
 10 16  1  0  0  0  0
 10 29  1  0  0  0  0
 12 14  1  0  0  0  0
 13 29  1  0  0  0  0
 15 20  1  0  0  0  0
 16 21  1  0  0  0  0
 17 18  2  0  0  0  0
 17 19  1  0  0  0  0
 18 22  1  0  0  0  0
 19 23  2  0  0  0  0
 20 32  1  0  0  0  0
 21 32  1  0  0  0  0
 22 30  2  0  0  0  0
 23 30  1  0  0  0  0
 24 27  1  0  0  0  0
 24 29  1  0  0  0  0
 25 28  1  0  0  0  0
 25 31  2  0  0  0  0
 26 27  1  0  0  0  0
 28 33  1  0  0  0  0
 31 32  1  0  0  0  0
  7 34  1  0  0  0  0
 11 35  1  0  0  0  0
 11 36  1  0  0  0  0
 12 37  1  0  0  0  0
 12 38  1  0  0  0  0
 13 39  1  0  0  0  0
 13 40  1  0  0  0  0
 14 41  1  0  0  0  0
 14 42  1  0  0  0  0
 15 43  1  0  0  0  0
 15 44  1  0  0  0  0
 16 45  1  0  0  0  0
 16 46  1  0  0  0  0
 17 47  1  0  0  0  0
 18 48  1  0  0  0  0
 19 49  1  0  0  0  0
 20 50  1  0  0  0  0
 20 51  1  0  0  0  0
 21 52  1  0  0  0  0
 21 53  1  0  0  0  0
 22 54  1  0  0  0  0
 23 55  1  0  0  0  0
 24 56  1  0  0  0  0
 24 57  1  0  0  0  0
 25 58  1  0  0  0  0
 27 59  1  0  0  0  0
 29 60  1  0  0  0  0
 32 61  1  0  0  0  0
M  END
> <pdb_id>
3VJL

> <uniprot_id>
P27487

> <usmiles>
S1CN(C(=O)[C@H]2NC[C@@H](N3CCC(C=4N(N=C(C4)C(F)(F)F)c5ccccc5)CC3)C2)CC1

$$$$
W9S_A_1001
          07212404123D 1   1.00000     0.00000     0
            
 28 28  0  0  0  0            999 V2000
   16.8230   21.0460   -9.6650 O   0  0  0  0  0  0  0  0  0  0  0  0
   15.7330   19.3210  -15.1900 O   0  0  0  0  0  0  0  0  0  0  0  0
   14.7310   17.6430  -13.1330 O   0  0  0  0  0  0  0  0  0  0  0  0
   13.7470   18.9580  -10.8120 O   0  0  0  0  0  0  0  0  0  0  0  0
   13.7940   21.5220  -11.5240 O   0  0  0  0  0  0  0  0  0  0  0  0
   14.9330   21.8420  -14.3300 N   0  0  0  0  0  0  0  0  0  0  0  0
   15.4360   21.1900   -9.7990 C   0  0  0  0  0  0  0  0  0  0  0  0
   16.0680   21.6110  -12.1720 C   0  0  0  0  0  0  0  0  0  0  0  0
   15.9260   19.6370  -13.8300 C   0  0  2  0  0  0  0  0  0  0  0  0
   14.8050   19.0360  -12.9670 C   0  0  2  0  0  0  0  0  0  0  0  0
   16.0300   21.1620  -13.6400 C   0  0  1  0  0  0  0  0  0  0  0  0
   14.9050   19.4110  -11.4790 C   0  0  1  0  0  0  0  0  0  0  0  0
   15.0390   20.9270  -11.2590 C   0  0  2  0  0  0  0  0  0  0  0  0
   17.0856   21.2165   -8.7153 H   0  0  0  0  0  0  0  0  0  0  0  0
   16.4715   19.7205  -15.7331 H   0  0  0  0  0  0  0  0  0  0  0  0
   13.9956   17.2779  -12.5621 H   0  0  0  0  0  0  0  0  0  0  0  0
   13.8049   19.1984   -9.8431 H   0  0  0  0  0  0  0  0  0  0  0  0
   13.5377   21.3494  -12.4751 H   0  0  0  0  0  0  0  0  0  0  0  0
   14.9083   21.5496  -15.2860 H   0  0  0  0  0  0  0  0  0  0  0  0
   14.0665   21.6101  -13.8880 H   0  0  0  0  0  0  0  0  0  0  0  0
   15.1700   22.1192   -9.5424 H   0  0  0  0  0  0  0  0  0  0  0  0
   14.9726   20.5340   -9.2032 H   0  0  0  0  0  0  0  0  0  0  0  0
   15.9011   22.5966  -12.1443 H   0  0  0  0  0  0  0  0  0  0  0  0
   16.9804   21.4172  -11.8115 H   0  0  0  0  0  0  0  0  0  0  0  0
   16.7917   19.2300  -13.5385 H   0  0  0  0  0  0  0  0  0  0  0  0
   13.9435   19.4150  -13.3048 H   0  0  0  0  0  0  0  0  0  0  0  0
   16.8837   21.4600  -14.0671 H   0  0  0  0  0  0  0  0  0  0  0  0
   15.7033   18.9559  -11.0846 H   0  0  0  0  0  0  0  0  0  0  0  0
  1  7  1  0  0  0  0
  2  9  1  0  0  0  0
  3 10  1  0  0  0  0
  4 12  1  0  0  0  0
  5 13  1  0  0  0  0
  6 11  1  0  0  0  0
  7 13  1  0  0  0  0
  8 11  1  0  0  0  0
  8 13  1  0  0  0  0
  9 10  1  0  0  0  0
  9 11  1  0  0  0  0
 10 12  1  0  0  0  0
 12 13  1  0  0  0  0
  1 14  1  0  0  0  0
  2 15  1  0  0  0  0
  3 16  1  0  0  0  0
  4 17  1  0  0  0  0
  5 18  1  0  0  0  0
  6 19  1  0  0  0  0
  6 20  1  0  0  0  0
  7 21  1  0  0  0  0
  7 22  1  0  0  0  0
  8 23  1  0  0  0  0
  8 24  1  0  0  0  0
  9 25  1  0  0  0  0
 10 26  1  0  0  0  0
 11 27  1  0  0  0  0
 12 28  1  0  0  0  0
M  END
> <pdb_id>
7K9Q

> <uniprot_id>
A1A4T2

> <usmiles>
O[C@]1([C@@H](O)[C@H](O)[C@@H](O)[C@@H](N)C1)CO

$$$$
W9Z_A_2345
          07202415303D 1   1.00000     0.00000     0
            
 44 48  0  0  0  0            999 V2000
   -6.7607  -13.1483   15.8692 N   0  0  0  0  0  0  0  0  0  0  0  0
   -1.0215  -14.2407   20.6790 N   0  0  0  0  0  0  0  0  0  0  0  0
   -0.1737  -14.0474   19.7164 N   0  0  0  0  0  0  0  0  0  0  0  0
   -3.1770  -13.7451   18.0540 N   0  0  0  0  0  0  0  0  0  0  0  0
   -0.7286  -18.4957   14.0544 N   0  0  0  0  0  0  0  0  0  0  0  0
   -7.5834  -13.3430   16.8544 N   0  0  0  0  0  0  0  0  0  0  0  0
   -2.1440  -13.9033   18.8422 N   0  0  0  0  0  0  0  0  0  0  0  0
   -9.0381  -13.2601   16.7296 C   0  0  0  0  0  0  0  0  0  0  0  0
    1.4222  -13.5041   17.3941 C   0  0  0  0  0  0  0  0  0  0  0  0
   -1.6297  -18.5643   13.0261 C   0  0  0  0  0  0  0  0  0  0  0  0
   -5.5531  -13.2905   16.2958 C   0  0  0  0  0  0  0  0  0  0  0  0
   -6.9396  -13.6414   18.0527 C   0  0  0  0  0  0  0  0  0  0  0  0
   -2.4886  -17.4778   12.6691 C   0  0  0  0  0  0  0  0  0  0  0  0
   -3.4535  -14.2995   20.8504 C   0  0  0  0  0  0  0  0  0  0  0  0
   -2.4014  -16.2578   13.4157 C   0  0  0  0  0  0  0  0  0  0  0  0
   -4.5979  -14.1282   20.0151 C   0  0  0  0  0  0  0  0  0  0  0  0
    0.2889  -17.2659   15.8327 C   0  0  0  0  0  0  0  0  0  0  0  0
    0.4343  -16.0810   16.6079 C   0  0  0  0  0  0  0  0  0  0  0  0
   -1.3134  -14.9448   15.2879 C   0  0  0  0  0  0  0  0  0  0  0  0
   -2.2111  -14.1643   20.2007 C   0  0  0  0  0  0  0  0  0  0  0  0
   -0.7925  -13.8512   18.5924 C   0  0  0  0  0  0  0  0  0  0  0  0
   -4.4200  -13.8426   18.6147 C   0  0  0  0  0  0  0  0  0  0  0  0
   -0.6453  -17.3314   14.7702 C   0  0  0  0  0  0  0  0  0  0  0  0
   -5.5926  -13.6133   17.7234 C   0  0  0  0  0  0  0  0  0  0  0  0
   -1.4651  -16.1587   14.4932 C   0  0  0  0  0  0  0  0  0  0  0  0
   -0.3527  -14.8899   16.3595 C   0  0  0  0  0  0  0  0  0  0  0  0
   -0.1129  -13.5986   17.2405 C   0  0  2  0  0  0  0  0  0  0  0  0
   -9.4600  -13.4473   17.6167 H   0  0  0  0  0  0  0  0  0  0  0  0
   -9.2948  -12.3428   16.4254 H   0  0  0  0  0  0  0  0  0  0  0  0
   -9.3542  -13.9336   16.0614 H   0  0  0  0  0  0  0  0  0  0  0  0
    1.8373  -13.3396   16.4993 H   0  0  0  0  0  0  0  0  0  0  0  0
    1.6497  -12.7505   18.0108 H   0  0  0  0  0  0  0  0  0  0  0  0
    1.7728  -14.3612   17.7717 H   0  0  0  0  0  0  0  0  0  0  0  0
   -1.6902  -19.4128   12.5005 H   0  0  0  0  0  0  0  0  0  0  0  0
   -4.7252  -13.1959   15.7429 H   0  0  0  0  0  0  0  0  0  0  0  0
   -7.3525  -13.8318   18.9433 H   0  0  0  0  0  0  0  0  0  0  0  0
   -3.1372  -17.5677   11.9133 H   0  0  0  0  0  0  0  0  0  0  0  0
   -3.5283  -14.5011   21.8270 H   0  0  0  0  0  0  0  0  0  0  0  0
   -2.9896  -15.4825   13.1858 H   0  0  0  0  0  0  0  0  0  0  0  0
   -5.5176  -14.2059   20.3998 H   0  0  0  0  0  0  0  0  0  0  0  0
    0.8545  -18.0637   16.0414 H   0  0  0  0  0  0  0  0  0  0  0  0
    1.1036  -16.0701   17.3508 H   0  0  0  0  0  0  0  0  0  0  0  0
   -1.8800  -14.1456   15.0873 H   0  0  0  0  0  0  0  0  0  0  0  0
   -0.4832  -12.7830   16.7958 H   0  0  0  0  0  0  0  0  0  0  0  0
  1  6  1  0  0  0  0
  1 11  2  0  0  0  0
  2  3  1  0  0  0  0
  2 20  2  0  0  0  0
  3 21  2  0  0  0  0
  4  7  1  0  0  0  0
  4 22  2  0  0  0  0
  5 10  2  0  0  0  0
  5 23  1  0  0  0  0
  6  8  1  0  0  0  0
  6 12  1  0  0  0  0
  7 20  1  0  0  0  0
  7 21  1  0  0  0  0
  9 27  1  0  0  0  0
 10 13  1  0  0  0  0
 11 24  1  0  0  0  0
 12 24  2  0  0  0  0
 13 15  2  0  0  0  0
 14 16  2  0  0  0  0
 14 20  1  0  0  0  0
 15 25  1  0  0  0  0
 16 22  1  0  0  0  0
 17 18  1  0  0  0  0
 17 23  2  0  0  0  0
 18 26  2  0  0  0  0
 19 25  2  0  0  0  0
 19 26  1  0  0  0  0
 21 27  1  0  0  0  0
 22 24  1  0  0  0  0
 23 25  1  0  0  0  0
 26 27  1  0  0  0  0
  8 28  1  0  0  0  0
  8 29  1  0  0  0  0
  8 30  1  0  0  0  0
  9 31  1  0  0  0  0
  9 32  1  0  0  0  0
  9 33  1  0  0  0  0
 10 34  1  0  0  0  0
 11 35  1  0  0  0  0
 12 36  1  0  0  0  0
 13 37  1  0  0  0  0
 14 38  1  0  0  0  0
 15 39  1  0  0  0  0
 16 40  1  0  0  0  0
 17 41  1  0  0  0  0
 18 42  1  0  0  0  0
 19 43  1  0  0  0  0
 27 44  1  0  0  0  0
M  END
> <pdb_id>
3ZC5

> <uniprot_id>
P08581

> <usmiles>
n1c2c(cc(cc2)[C@@H](C3=NN=C4N3N=C(C=5C=NN(C5)C)C=C4)C)ccc1

$$$$
WA1_A_400
          07202402363D 1   1.00000     0.00000     0
            
 23 24  0  0  0  0            999 V2000
  -25.7090   -1.3039   16.5478 S   0  0  0  0  0  0  0  0  0  0  0  0
  -25.6648    1.3400   16.1462 O   0  0  0  0  0  0  0  0  0  0  0  0
  -26.1238   -2.8838   16.6653 N   0  0  0  0  0  0  0  0  0  0  0  0
  -27.4709   -3.0711   16.9124 N   0  0  0  0  0  0  0  0  0  0  0  0
  -27.7028    0.4858   17.0082 N   0  0  0  0  0  0  0  0  0  0  0  0
  -27.4208    2.7573   16.7674 N   0  0  0  0  0  0  0  0  0  0  0  0
  -26.2121    6.4906   15.3978 C   0  0  0  0  0  0  0  0  0  0  0  0
  -25.5891    5.3705   14.9242 C   0  0  0  0  0  0  0  0  0  0  0  0
  -27.2205    6.3703   16.3521 C   0  0  0  0  0  0  0  0  0  0  0  0
  -28.1290   -1.9649   17.1824 C   0  0  0  0  0  0  0  0  0  0  0  0
  -25.9538    4.1170   15.3598 C   0  0  0  0  0  0  0  0  0  0  0  0
  -27.5680    5.1463   16.7918 C   0  0  0  0  0  0  0  0  0  0  0  0
  -27.3711   -0.8496   16.9498 C   0  0  0  0  0  0  0  0  0  0  0  0
  -26.8256    1.5028   16.5768 C   0  0  0  0  0  0  0  0  0  0  0  0
  -26.9512    3.9997   16.3523 C   0  0  0  0  0  0  0  0  0  0  0  0
  -28.5987    0.7440   17.3698 H   0  0  0  0  0  0  0  0  0  0  0  0
  -28.2897    2.7598   17.2624 H   0  0  0  0  0  0  0  0  0  0  0  0
  -25.9453    7.3935   15.0608 H   0  0  0  0  0  0  0  0  0  0  0  0
  -24.8563    5.4631   14.2501 H   0  0  0  0  0  0  0  0  0  0  0  0
  -27.6809    7.1842   16.7064 H   0  0  0  0  0  0  0  0  0  0  0  0
  -29.0708   -1.9416   17.5177 H   0  0  0  0  0  0  0  0  0  0  0  0
  -25.5187    3.3011   14.9789 H   0  0  0  0  0  0  0  0  0  0  0  0
  -28.3038    5.0685   17.4645 H   0  0  0  0  0  0  0  0  0  0  0  0
  1  3  1  0  0  0  0
  1 13  1  0  0  0  0
  2 14  2  0  0  0  0
  3  4  2  0  0  0  0
  4 10  1  0  0  0  0
  5 13  1  0  0  0  0
  5 14  1  0  0  0  0
  6 14  1  0  0  0  0
  6 15  1  0  0  0  0
  7  8  2  0  0  0  0
  7  9  1  0  0  0  0
  8 11  1  0  0  0  0
  9 12  2  0  0  0  0
 10 13  2  0  0  0  0
 11 15  2  0  0  0  0
 12 15  1  0  0  0  0
  5 16  1  0  0  0  0
  6 17  1  0  0  0  0
  7 18  1  0  0  0  0
  8 19  1  0  0  0  0
  9 20  1  0  0  0  0
 10 21  1  0  0  0  0
 11 22  1  0  0  0  0
 12 23  1  0  0  0  0
M  END
> <pdb_id>
3T4T

> <uniprot_id>
Q9C5U0

> <usmiles>
S1N=NC=C1NC(=O)Nc2ccccc2

$$$$
WB7_A_601
          07192420213D 1   1.00000     0.00000     0
            
 65 69  0  0  0  0            999 V2000
  -23.0635   10.8285  -13.9538 Cl  0  0  0  0  0  0  0  0  0  0  0  0
  -26.7325    5.1009  -14.1470 S   0  0  0  0  0  0  0  0  0  0  0  0
  -26.0031   -3.2941  -16.1135 S   0  0  0  0  0  0  0  0  0  0  0  0
  -26.7593   -3.4074  -17.3057 O   0  0  0  0  0  0  0  0  0  0  0  0
  -25.5559   -4.4646  -15.4462 O   0  0  0  0  0  0  0  0  0  0  0  0
  -26.5522    2.6229  -12.6238 O   0  0  0  0  0  0  0  0  0  0  0  0
  -27.8983    7.4024  -17.1942 O   0  0  0  0  0  0  0  0  0  0  0  0
  -28.6770    1.8451  -13.0083 N   0  0  0  0  0  0  0  0  0  0  0  0
  -25.2585    9.3187  -16.6338 N   0  0  0  0  0  0  0  0  0  0  0  0
  -24.6304   -2.3891  -16.4840 C   0  0  0  0  0  0  0  0  0  0  0  0
  -29.3262    7.2338  -17.0864 C   0  0  0  0  0  0  0  0  0  0  0  0
  -28.4902    0.5949  -12.2721 C   0  0  0  0  0  0  0  0  0  0  0  0
  -25.2159    8.0668  -17.4107 C   0  0  0  0  0  0  0  0  0  0  0  0
  -26.5984    9.5804  -16.0609 C   0  0  0  0  0  0  0  0  0  0  0  0
  -24.2286   10.3328  -16.6539 C   0  0  0  0  0  0  0  0  0  0  0  0
  -25.2915   14.0049  -14.7430 C   0  0  0  0  0  0  0  0  0  0  0  0
  -25.6843   13.7991  -16.0616 C   0  0  0  0  0  0  0  0  0  0  0  0
  -29.6754    5.7847  -16.7219 C   0  0  0  0  0  0  0  0  0  0  0  0
  -24.5110   13.0765  -14.0587 C   0  0  0  0  0  0  0  0  0  0  0  0
  -27.7067   -1.3540  -15.4274 C   0  0  0  0  0  0  0  0  0  0  0  0
  -26.3309   -2.2059  -13.6884 C   0  0  0  0  0  0  0  0  0  0  0  0
  -25.3231   12.6185  -16.7013 C   0  0  0  0  0  0  0  0  0  0  0  0
  -28.2945   -0.4730  -14.5303 C   0  0  0  0  0  0  0  0  0  0  0  0
  -26.9054   -1.3310  -12.7689 C   0  0  0  0  0  0  0  0  0  0  0  0
  -25.7201    6.8910  -16.5969 C   0  0  0  0  0  0  0  0  0  0  0  0
  -27.0603    8.4383  -15.1673 C   0  0  0  0  0  0  0  0  0  0  0  0
  -28.9849    4.1248  -14.8811 C   0  0  0  0  0  0  0  0  0  0  0  0
  -24.1507   11.9202  -14.7302 C   0  0  0  0  0  0  0  0  0  0  0  0
  -27.9189    3.9017  -14.0430 C   0  0  0  0  0  0  0  0  0  0  0  0
  -27.6390    2.7543  -13.1844 C   0  0  0  0  0  0  0  0  0  0  0  0
  -26.7043   -2.2485  -15.0376 C   0  0  0  0  0  0  0  0  0  0  0  0
  -27.6043    5.9380  -15.3147 C   0  0  0  0  0  0  0  0  0  0  0  0
  -27.8915   -0.4402  -13.1942 C   0  0  0  0  0  0  0  0  0  0  0  0
  -24.5709   11.6555  -16.0233 C   0  0  0  0  0  0  0  0  0  0  0  0
  -28.7878    5.3180  -15.6326 C   0  0  0  0  0  0  0  0  0  0  0  0
  -27.1274    7.1599  -16.0276 C   0  0  0  0  0  0  0  0  0  0  0  0
  -29.5754    2.0519  -13.3956 H   0  0  0  0  0  0  0  0  0  0  0  0
  -24.0676   -2.2862  -15.6639 H   0  0  0  0  0  0  0  0  0  0  0  0
  -24.1037   -2.8577  -17.1932 H   0  0  0  0  0  0  0  0  0  0  0  0
  -24.9056   -1.4865  -16.8149 H   0  0  0  0  0  0  0  0  0  0  0  0
  -29.7508    7.4635  -17.9622 H   0  0  0  0  0  0  0  0  0  0  0  0
  -29.6761    7.8445  -16.3761 H   0  0  0  0  0  0  0  0  0  0  0  0
  -29.3738    0.2707  -11.9342 H   0  0  0  0  0  0  0  0  0  0  0  0
  -27.8747    0.7506  -11.4995 H   0  0  0  0  0  0  0  0  0  0  0  0
  -24.2720    7.8888  -17.6887 H   0  0  0  0  0  0  0  0  0  0  0  0
  -25.7892    8.1692  -18.2236 H   0  0  0  0  0  0  0  0  0  0  0  0
  -27.2538    9.6934  -16.8076 H   0  0  0  0  0  0  0  0  0  0  0  0
  -26.5612   10.4207  -15.5200 H   0  0  0  0  0  0  0  0  0  0  0  0
  -23.9917   10.5052  -17.6101 H   0  0  0  0  0  0  0  0  0  0  0  0
  -23.4319    9.9654  -16.1741 H   0  0  0  0  0  0  0  0  0  0  0  0
  -25.5770   14.8409  -14.2745 H   0  0  0  0  0  0  0  0  0  0  0  0
  -26.2202   14.4921  -16.5438 H   0  0  0  0  0  0  0  0  0  0  0  0
  -29.5524    5.2009  -17.5244 H   0  0  0  0  0  0  0  0  0  0  0  0
  -30.6271    5.7381  -16.4185 H   0  0  0  0  0  0  0  0  0  0  0  0
  -24.2209   13.2391  -13.1156 H   0  0  0  0  0  0  0  0  0  0  0  0
  -28.0086   -1.3491  -16.3807 H   0  0  0  0  0  0  0  0  0  0  0  0
  -25.6192   -2.8322  -13.3704 H   0  0  0  0  0  0  0  0  0  0  0  0
  -25.6020   12.4584  -17.6482 H   0  0  0  0  0  0  0  0  0  0  0  0
  -29.0149    0.1452  -14.8447 H   0  0  0  0  0  0  0  0  0  0  0  0
  -26.6136   -1.3413  -11.8125 H   0  0  0  0  0  0  0  0  0  0  0  0
  -25.0891    6.7260  -15.8389 H   0  0  0  0  0  0  0  0  0  0  0  0
  -25.7559    6.0816  -17.1831 H   0  0  0  0  0  0  0  0  0  0  0  0
  -27.9647    8.6440  -14.7934 H   0  0  0  0  0  0  0  0  0  0  0  0
  -26.4111    8.3096  -14.4176 H   0  0  0  0  0  0  0  0  0  0  0  0
  -29.7870    3.5319  -14.9531 H   0  0  0  0  0  0  0  0  0  0  0  0
  1 28  1  0  0  0  0
  2 29  1  0  0  0  0
  2 32  1  0  0  0  0
  3  4  2  0  0  0  0
  3  5  2  0  0  0  0
  3 10  1  0  0  0  0
  3 31  1  0  0  0  0
  6 30  2  0  0  0  0
  7 11  1  0  0  0  0
  7 36  1  0  0  0  0
  8 12  1  0  0  0  0
  8 30  1  0  0  0  0
  9 13  1  0  0  0  0
  9 14  1  0  0  0  0
  9 15  1  0  0  0  0
 11 18  1  0  0  0  0
 12 33  1  0  0  0  0
 13 25  1  0  0  0  0
 14 26  1  0  0  0  0
 15 34  1  0  0  0  0
 16 17  2  0  0  0  0
 16 19  1  0  0  0  0
 17 22  1  0  0  0  0
 18 35  1  0  0  0  0
 19 28  2  0  0  0  0
 20 23  1  0  0  0  0
 20 31  2  0  0  0  0
 21 24  2  0  0  0  0
 21 31  1  0  0  0  0
 22 34  2  0  0  0  0
 23 33  2  0  0  0  0
 24 33  1  0  0  0  0
 25 36  1  0  0  0  0
 26 36  1  0  0  0  0
 27 29  2  0  0  0  0
 27 35  1  0  0  0  0
 28 34  1  0  0  0  0
 29 30  1  0  0  0  0
 32 35  2  0  0  0  0
 32 36  1  0  0  0  0
  8 37  1  0  0  0  0
 10 38  1  0  0  0  0
 10 39  1  0  0  0  0
 10 40  1  0  0  0  0
 11 41  1  0  0  0  0
 11 42  1  0  0  0  0
 12 43  1  0  0  0  0
 12 44  1  0  0  0  0
 13 45  1  0  0  0  0
 13 46  1  0  0  0  0
 14 47  1  0  0  0  0
 14 48  1  0  0  0  0
 15 49  1  0  0  0  0
 15 50  1  0  0  0  0
 16 51  1  0  0  0  0
 17 52  1  0  0  0  0
 18 53  1  0  0  0  0
 18 54  1  0  0  0  0
 19 55  1  0  0  0  0
 20 56  1  0  0  0  0
 21 57  1  0  0  0  0
 22 58  1  0  0  0  0
 23 59  1  0  0  0  0
 24 60  1  0  0  0  0
 25 61  1  0  0  0  0
 25 62  1  0  0  0  0
 26 63  1  0  0  0  0
 26 64  1  0  0  0  0
 27 65  1  0  0  0  0
M  END
> <pdb_id>
7KCO

> <uniprot_id>
P51449

> <usmiles>
Clc1c(cccc1)CN2CCC3(OCCC4=C3SC(C(=O)NCc5ccc(S(=O)(=O)C)cc5)=C4)CC2

$$$$
WBM_A_505
          07212404143D 1   1.00000     0.00000     0
            
 44 48  0  0  0  0            999 V2000
    0.0722    4.7829  -47.1429 O   0  0  0  0  0  0  0  0  0  0  0  0
   -6.2164    6.6172  -47.1289 N   0  0  0  0  0  0  0  0  0  0  0  0
   -0.9234    4.5300  -44.4920 N   0  0  0  0  0  0  0  0  0  0  0  0
   -7.4662    7.1426  -47.2166 N   0  0  0  0  0  0  0  0  0  0  0  0
   -4.1729    6.5971  -48.5350 N   0  0  0  0  0  0  0  0  0  0  0  0
   -3.7540    5.9331  -46.2620 N   0  0  0  0  0  0  0  0  0  0  0  0
   -1.5737    5.0279  -45.5844 N   0  0  0  0  0  0  0  0  0  0  0  0
   -7.5814    7.7677  -48.3770 C   0  0  0  0  0  0  0  0  0  0  0  0
   -0.8723    3.1940  -39.5452 C   0  0  0  0  0  0  0  0  0  0  0  0
   -6.7278    5.7407  -41.8289 C   0  0  0  0  0  0  0  0  0  0  0  0
   -1.0997    4.5207  -39.7793 C   0  0  0  0  0  0  0  0  0  0  0  0
   -0.9448    2.3147  -40.6226 C   0  0  0  0  0  0  0  0  0  0  0  0
   -6.3634    6.5943  -42.8551 C   0  0  0  0  0  0  0  0  0  0  0  0
   -5.8951    4.7111  -41.4589 C   0  0  0  0  0  0  0  0  0  0  0  0
   -6.3916    7.6617  -49.0388 C   0  0  0  0  0  0  0  0  0  0  0  0
   -1.3912    4.9997  -41.0475 C   0  0  0  0  0  0  0  0  0  0  0  0
   -1.2661    2.7747  -41.9013 C   0  0  0  0  0  0  0  0  0  0  0  0
   -5.1852    6.4212  -43.5185 C   0  0  0  0  0  0  0  0  0  0  0  0
   -4.6968    4.5292  -42.1311 C   0  0  0  0  0  0  0  0  0  0  0  0
   -1.9217    5.6981  -47.9607 C   0  0  0  0  0  0  0  0  0  0  0  0
   -5.5198    6.9689  -48.2188 C   0  0  0  0  0  0  0  0  0  0  0  0
   -3.2624    6.0874  -47.5753 C   0  0  0  0  0  0  0  0  0  0  0  0
   -1.0455    5.1478  -46.9396 C   0  0  0  0  0  0  0  0  0  0  0  0
   -2.8528    5.3869  -45.2436 C   0  0  0  0  0  0  0  0  0  0  0  0
   -1.8116    4.6238  -43.4635 C   0  0  0  0  0  0  0  0  0  0  0  0
   -1.4791    4.1311  -42.0890 C   0  0  0  0  0  0  0  0  0  0  0  0
   -4.3326    5.3947  -43.1492 C   0  0  0  0  0  0  0  0  0  0  0  0
   -3.0411    5.1570  -43.9150 C   0  0  0  0  0  0  0  0  0  0  0  0
   -8.1804    7.0697  -46.5198 H   0  0  0  0  0  0  0  0  0  0  0  0
   -3.8596    6.7017  -49.4794 H   0  0  0  0  0  0  0  0  0  0  0  0
   -4.6935    6.1896  -46.0308 H   0  0  0  0  0  0  0  0  0  0  0  0
   -8.4666    8.2750  -48.7405 H   0  0  0  0  0  0  0  0  0  0  0  0
   -0.6418    2.8367  -38.5487 H   0  0  0  0  0  0  0  0  0  0  0  0
   -7.6714    5.8841  -41.3156 H   0  0  0  0  0  0  0  0  0  0  0  0
   -1.0499    5.2177  -38.9525 H   0  0  0  0  0  0  0  0  0  0  0  0
   -0.7500    1.2595  -40.4668 H   0  0  0  0  0  0  0  0  0  0  0  0
   -7.0209    7.4091  -43.1341 H   0  0  0  0  0  0  0  0  0  0  0  0
   -6.1734    4.0476  -40.6484 H   0  0  0  0  0  0  0  0  0  0  0  0
   -6.1713    8.0492  -50.0248 H   0  0  0  0  0  0  0  0  0  0  0  0
   -1.5479    6.0602  -41.2070 H   0  0  0  0  0  0  0  0  0  0  0  0
   -1.3479    2.0835  -42.7303 H   0  0  0  0  0  0  0  0  0  0  0  0
   -4.9179    7.0857  -44.3320 H   0  0  0  0  0  0  0  0  0  0  0  0
   -4.0443    3.7094  -41.8592 H   0  0  0  0  0  0  0  0  0  0  0  0
   -1.5817    5.8135  -48.9827 H   0  0  0  0  0  0  0  0  0  0  0  0
  1 23  2  0  0  0  0
  2  4  1  0  0  0  0
  2 21  2  0  0  0  0
  3  7  1  0  0  0  0
  3 25  2  0  0  0  0
  4  8  1  0  0  0  0
  4 29  1  0  0  0  0
  5 21  1  0  0  0  0
  5 22  1  0  0  0  0
  5 30  1  0  0  0  0
  6 22  1  0  0  0  0
  6 24  1  0  0  0  0
  6 31  1  0  0  0  0
  7 23  1  0  0  0  0
  7 24  1  0  0  0  0
  8 15  2  0  0  0  0
  8 32  1  0  0  0  0
  9 11  2  0  0  0  0
  9 12  1  0  0  0  0
  9 33  1  0  0  0  0
 10 13  2  0  0  0  0
 10 14  1  0  0  0  0
 10 34  1  0  0  0  0
 11 16  1  0  0  0  0
 11 35  1  0  0  0  0
 12 17  2  0  0  0  0
 12 36  1  0  0  0  0
 13 18  1  0  0  0  0
 13 37  1  0  0  0  0
 14 19  2  0  0  0  0
 14 38  1  0  0  0  0
 15 21  1  0  0  0  0
 15 39  1  0  0  0  0
 16 26  2  0  0  0  0
 16 40  1  0  0  0  0
 17 26  1  0  0  0  0
 17 41  1  0  0  0  0
 18 27  2  0  0  0  0
 18 42  1  0  0  0  0
 19 27  1  0  0  0  0
 19 43  1  0  0  0  0
 20 22  2  0  0  0  0
 20 23  1  0  0  0  0
 20 44  1  0  0  0  0
 24 28  2  0  0  0  0
 25 26  1  0  0  0  0
 25 28  1  0  0  0  0
 27 28  1  0  0  0  0
M  END
> <pdb_id>
7KDA

> <uniprot_id>
P31153

> <usmiles>
O=C1N2N=C(c3ccccc3)C(c4ccccc4)=C2NC(NC5=NNC=C5)=C1

$$$$
WBS_A_401
          07212404143D 1   1.00000     0.00000     0
            
 55 60  0  0  0  0            999 V2000
   -0.1210    4.5940  -46.6710 O   0  0  0  0  0  0  0  0  0  0  0  0
    0.4950    6.4850  -52.5110 O   0  0  0  0  0  0  0  0  0  0  0  0
   -6.2810    6.4180  -46.9310 N   0  0  0  0  0  0  0  0  0  0  0  0
   -1.2190    4.4690  -44.1540 N   0  0  0  0  0  0  0  0  0  0  0  0
   -7.5370    6.9200  -47.0860 N   0  0  0  0  0  0  0  0  0  0  0  0
   -4.2370    6.4930  -48.2300 N   0  0  0  0  0  0  0  0  0  0  0  0
   -3.9490    5.8480  -45.9970 N   0  0  0  0  0  0  0  0  0  0  0  0
   -1.8460    4.9520  -45.2540 N   0  0  0  0  0  0  0  0  0  0  0  0
   -7.6220    7.5880  -48.2340 C   0  0  0  0  0  0  0  0  0  0  0  0
   -1.0710    3.2150  -39.2800 C   0  0  0  0  0  0  0  0  0  0  0  0
   -7.0810    5.7260  -41.6360 C   0  0  0  0  0  0  0  0  0  0  0  0
   -1.2500    2.3290  -40.3080 C   0  0  0  0  0  0  0  0  0  0  0  0
   -1.2550    4.5480  -39.5320 C   0  0  0  0  0  0  0  0  0  0  0  0
   -6.1890    4.7670  -41.1660 C   0  0  0  0  0  0  0  0  0  0  0  0
   -6.7370    6.5050  -42.7290 C   0  0  0  0  0  0  0  0  0  0  0  0
   -6.4190    7.5460  -48.8350 C   0  0  0  0  0  0  0  0  0  0  0  0
   -1.2690    5.4300  -51.2540 C   0  0  0  0  0  0  0  0  0  0  0  0
    0.3200    6.8520  -50.1610 C   0  0  0  0  0  0  0  0  0  0  0  0
   -1.6010    2.7490  -41.5640 C   0  0  0  0  0  0  0  0  0  0  0  0
   -1.5730    5.0010  -40.8050 C   0  0  0  0  0  0  0  0  0  0  0  0
   -4.9800    4.5840  -41.8100 C   0  0  0  0  0  0  0  0  0  0  0  0
   -5.5030    6.3320  -43.3420 C   0  0  0  0  0  0  0  0  0  0  0  0
   -1.9340    5.1830  -50.0410 C   0  0  0  0  0  0  0  0  0  0  0  0
   -0.3240    6.6120  -48.9430 C   0  0  0  0  0  0  0  0  0  0  0  0
   -5.5960    6.8400  -47.9960 C   0  0  0  0  0  0  0  0  0  0  0  0
   -0.1680    6.2440  -51.2940 C   0  0  0  0  0  0  0  0  0  0  0  0
   -3.3950    5.9760  -47.2450 C   0  0  0  0  0  0  0  0  0  0  0  0
   -1.2460    5.0160  -46.5280 C   0  0  0  0  0  0  0  0  0  0  0  0
   -3.1060    5.3200  -44.9510 C   0  0  0  0  0  0  0  0  0  0  0  0
   -2.1190    4.5720  -43.1460 C   0  0  0  0  0  0  0  0  0  0  0  0
   -1.7620    4.0930  -41.7980 C   0  0  0  0  0  0  0  0  0  0  0  0
   -4.6120    5.3750  -42.8850 C   0  0  0  0  0  0  0  0  0  0  0  0
   -1.4370    5.7690  -48.8930 C   0  0  0  0  0  0  0  0  0  0  0  0
   -2.0730    5.5790  -47.5390 C   0  0  0  0  0  0  0  0  0  0  0  0
   -3.3250    5.1210  -43.6210 C   0  0  0  0  0  0  0  0  0  0  0  0
   -0.0530    6.8070  -53.0720 H   0  0  0  0  0  0  0  0  0  0  0  0
   -8.1820    6.8210  -46.5250 H   0  0  0  0  0  0  0  0  0  0  0  0
   -3.9170    6.6080  -49.0200 H   0  0  0  0  0  0  0  0  0  0  0  0
   -4.7650    6.0740  -45.8440 H   0  0  0  0  0  0  0  0  0  0  0  0
   -8.3820    8.0110  -48.5640 H   0  0  0  0  0  0  0  0  0  0  0  0
   -0.8300    2.9190  -38.4320 H   0  0  0  0  0  0  0  0  0  0  0  0
   -7.9030    5.8440  -41.2180 H   0  0  0  0  0  0  0  0  0  0  0  0
   -1.1310    1.4200  -40.1500 H   0  0  0  0  0  0  0  0  0  0  0  0
   -1.1650    5.1610  -38.8390 H   0  0  0  0  0  0  0  0  0  0  0  0
   -6.4050    4.2520  -40.4230 H   0  0  0  0  0  0  0  0  0  0  0  0
   -7.3320    7.1430  -43.0510 H   0  0  0  0  0  0  0  0  0  0  0  0
   -6.1910    7.9210  -49.6550 H   0  0  0  0  0  0  0  0  0  0  0  0
   -1.5790    5.0360  -52.0380 H   0  0  0  0  0  0  0  0  0  0  0  0
    1.0630    7.4100  -50.2040 H   0  0  0  0  0  0  0  0  0  0  0  0
   -1.7290    2.1330  -42.2490 H   0  0  0  0  0  0  0  0  0  0  0  0
   -1.6570    5.9110  -40.9760 H   0  0  0  0  0  0  0  0  0  0  0  0
   -4.4030    3.9170  -41.5160 H   0  0  0  0  0  0  0  0  0  0  0  0
   -5.2720    6.8650  -44.0680 H   0  0  0  0  0  0  0  0  0  0  0  0
   -2.6880    4.6400  -50.0120 H   0  0  0  0  0  0  0  0  0  0  0  0
   -0.0120    7.0150  -48.1650 H   0  0  0  0  0  0  0  0  0  0  0  0
  1 28  2  0  0  0  0
  2 26  1  0  0  0  0
  2 36  1  0  0  0  0
  3  5  1  0  0  0  0
  3 25  2  0  0  0  0
  4  8  1  0  0  0  0
  4 30  2  0  0  0  0
  5  9  1  0  0  0  0
  5 37  1  0  0  0  0
  6 25  1  0  0  0  0
  6 27  1  0  0  0  0
  6 38  1  0  0  0  0
  7 27  1  0  0  0  0
  7 29  1  0  0  0  0
  7 39  1  0  0  0  0
  8 28  1  0  0  0  0
  8 29  1  0  0  0  0
  9 16  2  0  0  0  0
  9 40  1  0  0  0  0
 10 12  2  0  0  0  0
 10 13  1  0  0  0  0
 10 41  1  0  0  0  0
 11 14  2  0  0  0  0
 11 15  1  0  0  0  0
 11 42  1  0  0  0  0
 12 19  1  0  0  0  0
 12 43  1  0  0  0  0
 13 20  2  0  0  0  0
 13 44  1  0  0  0  0
 14 21  1  0  0  0  0
 14 45  1  0  0  0  0
 15 22  2  0  0  0  0
 15 46  1  0  0  0  0
 16 25  1  0  0  0  0
 16 47  1  0  0  0  0
 17 23  2  0  0  0  0
 17 26  1  0  0  0  0
 17 48  1  0  0  0  0
 18 24  1  0  0  0  0
 18 26  2  0  0  0  0
 18 49  1  0  0  0  0
 19 31  2  0  0  0  0
 19 50  1  0  0  0  0
 20 31  1  0  0  0  0
 20 51  1  0  0  0  0
 21 32  2  0  0  0  0
 21 52  1  0  0  0  0
 22 32  1  0  0  0  0
 22 53  1  0  0  0  0
 23 33  1  0  0  0  0
 23 54  1  0  0  0  0
 24 33  2  0  0  0  0
 24 55  1  0  0  0  0
 27 34  2  0  0  0  0
 28 34  1  0  0  0  0
 29 35  2  0  0  0  0
 30 31  1  0  0  0  0
 30 35  1  0  0  0  0
 32 35  1  0  0  0  0
 33 34  1  0  0  0  0
M  END
> <pdb_id>
7KDB

> <uniprot_id>
P31153

> <usmiles>
O=C1N2N=C(c3ccccc3)C(c4ccccc4)=C2NC(NC5=NNC=C5)=C1c6ccc(O)cc6

$$$$
WCE_H_1248
          07202416143D 1   1.00000     0.00000     0
            
 16 16  0  0  0  0            999 V2000
   16.2898   -8.0538   10.8081 Cl  0  0  0  0  0  0  0  0  0  0  0  0
   14.8699  -10.4720   15.3593 O   0  0  0  0  0  0  0  0  0  0  0  0
   15.3462  -12.6842   15.1693 N   0  0  0  0  0  0  0  0  0  0  0  0
   17.8844  -11.5226   11.8302 C   0  0  0  0  0  0  0  0  0  0  0  0
   17.6135  -10.3504   11.1081 C   0  0  0  0  0  0  0  0  0  0  0  0
   17.1597  -11.8513   12.9642 C   0  0  0  0  0  0  0  0  0  0  0  0
   15.8970   -9.8251   12.8030 C   0  0  0  0  0  0  0  0  0  0  0  0
   16.6117   -9.5238   11.6366 C   0  0  0  0  0  0  0  0  0  0  0  0
   15.4069  -11.3530   14.7206 C   0  0  0  0  0  0  0  0  0  0  0  0
   16.1680  -11.0123   13.4629 C   0  0  0  0  0  0  0  0  0  0  0  0
   15.7888  -13.4100   14.6427 H   0  0  0  0  0  0  0  0  0  0  0  0
   14.8603  -12.9051   16.0149 H   0  0  0  0  0  0  0  0  0  0  0  0
   18.6142  -12.1321   11.5205 H   0  0  0  0  0  0  0  0  0  0  0  0
   18.1047  -10.1188   10.2684 H   0  0  0  0  0  0  0  0  0  0  0  0
   17.3538  -12.7118   13.4353 H   0  0  0  0  0  0  0  0  0  0  0  0
   15.2040   -9.1947   13.1528 H   0  0  0  0  0  0  0  0  0  0  0  0
  1  8  1  0  0  0  0
  2  9  2  0  0  0  0
  3  9  1  0  0  0  0
  4  5  2  0  0  0  0
  4  6  1  0  0  0  0
  5  8  1  0  0  0  0
  6 10  2  0  0  0  0
  7  8  2  0  0  0  0
  7 10  1  0  0  0  0
  9 10  1  0  0  0  0
  3 11  1  0  0  0  0
  3 12  1  0  0  0  0
  4 13  1  0  0  0  0
  5 14  1  0  0  0  0
  6 15  1  0  0  0  0
  7 16  1  0  0  0  0
M  END
> <pdb_id>
5AFY

> <uniprot_id>
P00734

> <usmiles>
Clc1cc(ccc1)C(=O)N

$$$$
WFE_A_999
          07192421293D 1   1.00000     0.00000     0
            
 51 54  0  0  0  0            999 V2000
   18.4349   -2.2451   36.1076 F   0  0  0  0  0  0  0  0  0  0  0  0
   22.4953   -1.7048   38.3259 F   0  0  0  0  0  0  0  0  0  0  0  0
   22.3838   -1.7483   40.8126 O   0  0  0  0  0  0  0  0  0  0  0  0
   23.2936    1.3167   43.9574 N   0  0  0  0  0  0  0  0  0  0  0  0
   23.9932    7.0535   42.4591 N   0  0  0  0  0  0  0  0  0  0  0  0
   24.6582    4.8459   42.1803 N   0  0  0  0  0  0  0  0  0  0  0  0
   20.9087   -0.3879   41.6875 N   0  0  0  0  0  0  0  0  0  0  0  0
   21.6258    7.4757   42.2957 N   0  0  0  0  0  0  0  0  0  0  0  0
   23.3531    3.0688   41.8421 N   0  0  0  0  0  0  0  0  0  0  0  0
   19.8595    3.9736   40.1509 C   0  0  0  0  0  0  0  0  0  0  0  0
   24.9861    6.1447   42.3779 C   0  0  0  0  0  0  0  0  0  0  0  0
   20.5170    6.7651   42.0244 C   0  0  0  0  0  0  0  0  0  0  0  0
   21.7380   -0.1238   42.8674 C   0  0  0  0  0  0  0  0  0  0  0  0
   24.5766    2.2058   41.8058 C   0  0  0  0  0  0  0  0  0  0  0  0
   19.8795    4.3339   41.6257 C   0  0  0  0  0  0  0  0  0  0  0  0
   22.2109    2.2349   41.7640 C   0  0  0  0  0  0  0  0  0  0  0  0
   18.3582   -1.7383   38.4108 C   0  0  0  0  0  0  0  0  0  0  0  0
   19.0757   -1.4734   39.5793 C   0  0  0  0  0  0  0  0  0  0  0  0
   20.4515   -1.9863   37.2010 C   0  0  0  0  0  0  0  0  0  0  0  0
   24.0228    0.7689   41.9690 C   0  0  0  0  0  0  0  0  0  0  0  0
   21.3044   -1.1824   40.7347 C   0  0  0  0  0  0  0  0  0  0  0  0
   19.0678   -1.9753   37.2394 C   0  0  0  0  0  0  0  0  0  0  0  0
   21.1546   -1.7337   38.3611 C   0  0  0  0  0  0  0  0  0  0  0  0
   22.7012    6.6558   42.2649 C   0  0  0  0  0  0  0  0  0  0  0  0
   23.3865    4.4090   42.0367 C   0  0  0  0  0  0  0  0  0  0  0  0
   20.8813    5.4361   41.8812 C   0  0  0  0  0  0  0  0  0  0  0  0
   20.4729   -1.4540   39.5334 C   0  0  0  0  0  0  0  0  0  0  0  0
   22.3186    5.3589   42.0384 C   0  0  0  0  0  0  0  0  0  0  0  0
   22.7218    1.0306   42.6411 C   0  0  1  0  0  0  0  0  0  0  0  0
   23.9498    2.0672   43.8798 H   0  0  0  0  0  0  0  0  0  0  0  0
   22.5630    1.5766   44.5888 H   0  0  0  0  0  0  0  0  0  0  0  0
   20.0149    0.0542   41.6124 H   0  0  0  0  0  0  0  0  0  0  0  0
   21.6513    8.4563   42.4899 H   0  0  0  0  0  0  0  0  0  0  0  0
   19.1935    3.2442   39.9949 H   0  0  0  0  0  0  0  0  0  0  0  0
   19.6044    4.7782   39.6146 H   0  0  0  0  0  0  0  0  0  0  0  0
   20.7675    3.6613   39.8717 H   0  0  0  0  0  0  0  0  0  0  0  0
   25.9427    6.4235   42.4618 H   0  0  0  0  0  0  0  0  0  0  0  0
   19.5905    7.1320   41.9405 H   0  0  0  0  0  0  0  0  0  0  0  0
   22.2568   -0.9499   43.0872 H   0  0  0  0  0  0  0  0  0  0  0  0
   21.1405    0.1087   43.6348 H   0  0  0  0  0  0  0  0  0  0  0  0
   25.1966    2.4356   42.5560 H   0  0  0  0  0  0  0  0  0  0  0  0
   25.0566    2.3053   40.9343 H   0  0  0  0  0  0  0  0  0  0  0  0
   20.1330    3.5271   42.1593 H   0  0  0  0  0  0  0  0  0  0  0  0
   18.9698    4.6440   41.9022 H   0  0  0  0  0  0  0  0  0  0  0  0
   22.0138    1.9566   40.8240 H   0  0  0  0  0  0  0  0  0  0  0  0
   21.4019    2.6697   42.1595 H   0  0  0  0  0  0  0  0  0  0  0  0
   17.3584   -1.7571   38.4168 H   0  0  0  0  0  0  0  0  0  0  0  0
   18.5956   -1.2996   40.4391 H   0  0  0  0  0  0  0  0  0  0  0  0
   20.9341   -2.1743   36.3456 H   0  0  0  0  0  0  0  0  0  0  0  0
   24.6229    0.2081   42.5394 H   0  0  0  0  0  0  0  0  0  0  0  0
   23.8937    0.3238   41.0829 H   0  0  0  0  0  0  0  0  0  0  0  0
  1 22  1  0  0  0  0
  2 23  1  0  0  0  0
  3 21  2  0  0  0  0
  4 29  1  0  0  0  0
  5 11  2  0  0  0  0
  5 24  1  0  0  0  0
  6 11  1  0  0  0  0
  6 25  2  0  0  0  0
  7 13  1  0  0  0  0
  7 21  1  0  0  0  0
  8 12  1  0  0  0  0
  8 24  1  0  0  0  0
  9 14  1  0  0  0  0
  9 16  1  0  0  0  0
  9 25  1  0  0  0  0
 10 15  1  0  0  0  0
 12 26  2  0  0  0  0
 13 29  1  0  0  0  0
 14 20  1  0  0  0  0
 15 26  1  0  0  0  0
 16 29  1  0  0  0  0
 17 18  1  0  0  0  0
 17 22  2  0  0  0  0
 18 27  2  0  0  0  0
 19 22  1  0  0  0  0
 19 23  2  0  0  0  0
 20 29  1  0  0  0  0
 21 27  1  0  0  0  0
 23 27  1  0  0  0  0
 24 28  2  0  0  0  0
 25 28  1  0  0  0  0
 26 28  1  0  0  0  0
  4 30  1  0  0  0  0
  4 31  1  0  0  0  0
  7 32  1  0  0  0  0
  8 33  1  0  0  0  0
 10 34  1  0  0  0  0
 10 35  1  0  0  0  0
 10 36  1  0  0  0  0
 11 37  1  0  0  0  0
 12 38  1  0  0  0  0
 13 39  1  0  0  0  0
 13 40  1  0  0  0  0
 14 41  1  0  0  0  0
 14 42  1  0  0  0  0
 15 43  1  0  0  0  0
 15 44  1  0  0  0  0
 16 45  1  0  0  0  0
 16 46  1  0  0  0  0
 17 47  1  0  0  0  0
 18 48  1  0  0  0  0
 19 49  1  0  0  0  0
 20 50  1  0  0  0  0
 20 51  1  0  0  0  0
M  END
> <pdb_id>
3MVH

> <uniprot_id>
B2RAM5

> <usmiles>
Fc1c(ccc(F)c1)C(=O)NC[C@]2(N)CN(c3ncnc4NC=C(c34)CC)CC2

$$$$
WFS_A_706
          07212404143D 1   1.00000     0.00000     0
            
 55 60  0  0  0  0            999 V2000
   22.1198  -46.1117  -11.2620 Br  0  0  0  0  0  0  0  0  0  0  0  0
   17.3024  -39.4176   -1.4896 O   0  0  0  0  0  0  0  0  0  0  0  0
   19.8288  -39.1634   -2.5620 O   0  0  0  0  0  0  0  0  0  0  0  0
   17.5606  -38.0745   -4.8394 O   0  0  0  0  0  0  0  0  0  0  0  0
   20.1956  -39.7535   -6.4951 O   0  0  0  0  0  0  0  0  0  0  0  0
   19.1096  -45.4277  -10.6322 N   0  0  0  0  0  0  0  0  0  0  0  0
   15.5417  -35.6020   -2.4573 N   0  0  0  0  0  0  0  0  0  0  0  0
   13.3759  -34.5391   -2.5103 N   0  0  0  0  0  0  0  0  0  0  0  0
   19.4486  -43.4541   -9.4991 N   0  0  0  0  0  0  0  0  0  0  0  0
   15.6144  -37.7359   -3.6113 N   0  0  0  0  0  0  0  0  0  0  0  0
   11.3693  -35.4934   -3.4846 C   0  0  0  0  0  0  0  0  0  0  0  0
   14.6749  -34.6159   -2.1974 C   0  0  0  0  0  0  0  0  0  0  0  0
   14.6730  -38.5129   -4.2759 C   0  0  0  0  0  0  0  0  0  0  0  0
   21.9858  -40.7570   -7.5964 C   0  0  0  0  0  0  0  0  0  0  0  0
   18.5852  -41.1455   -5.3108 C   0  0  0  0  0  0  0  0  0  0  0  0
   13.4676  -37.9036   -4.2582 C   0  0  0  0  0  0  0  0  0  0  0  0
   22.5197  -41.6469   -8.4795 C   0  0  0  0  0  0  0  0  0  0  0  0
   22.2020  -43.6356   -9.9216 C   0  0  0  0  0  0  0  0  0  0  0  0
   19.7597  -41.5664   -8.0632 C   0  0  0  0  0  0  0  0  0  0  0  0
   19.1741  -41.0007   -3.9051 C   0  0  0  0  0  0  0  0  0  0  0  0
   21.3646  -44.5987  -10.3923 C   0  0  0  0  0  0  0  0  0  0  0  0
   17.0392  -38.0347   -3.5223 C   0  0  1  0  0  0  0  0  0  0  0  0
   19.9593  -44.4935  -10.1846 C   0  0  0  0  0  0  0  0  0  0  0  0
   20.6109  -40.7138   -7.3938 C   0  0  0  0  0  0  0  0  0  0  0  0
   17.3780  -39.3929   -2.9083 C   0  0  1  0  0  0  0  0  0  0  0  0
   18.8506  -39.7949   -5.9595 C   0  0  1  0  0  0  0  0  0  0  0  0
   14.9793  -36.6045   -3.1510 C   0  0  0  0  0  0  0  0  0  0  0  0
   18.7923  -38.8140   -4.7893 C   0  0  2  0  0  0  0  0  0  0  0  0
   12.8334  -35.5746   -3.1720 C   0  0  0  0  0  0  0  0  0  0  0  0
   20.2989  -42.5232   -8.9554 C   0  0  0  0  0  0  0  0  0  0  0  0
   21.6950  -42.5694   -9.1640 C   0  0  0  0  0  0  0  0  0  0  0  0
   13.6351  -36.6717   -3.5415 C   0  0  0  0  0  0  0  0  0  0  0  0
   18.7999  -39.5852   -3.4571 C   0  0  1  0  0  0  0  0  0  0  0  0
   17.5354  -40.3323   -1.1593 H   0  0  0  0  0  0  0  0  0  0  0  0
   19.6304  -38.2382   -2.2384 H   0  0  0  0  0  0  0  0  0  0  0  0
   19.4553  -46.2134  -11.1452 H   0  0  0  0  0  0  0  0  0  0  0  0
   18.1297  -45.3393  -10.4533 H   0  0  0  0  0  0  0  0  0  0  0  0
   11.0870  -36.3178   -3.9752 H   0  0  0  0  0  0  0  0  0  0  0  0
   10.8504  -35.4181   -2.6331 H   0  0  0  0  0  0  0  0  0  0  0  0
   11.1941  -34.6902   -4.0540 H   0  0  0  0  0  0  0  0  0  0  0  0
   15.0481  -33.8309   -1.7028 H   0  0  0  0  0  0  0  0  0  0  0  0
   14.8610  -39.3962   -4.7055 H   0  0  0  0  0  0  0  0  0  0  0  0
   22.5842  -40.1337   -7.0930 H   0  0  0  0  0  0  0  0  0  0  0  0
   17.6039  -41.3329   -5.2679 H   0  0  0  0  0  0  0  0  0  0  0  0
   19.0428  -41.8783   -5.8145 H   0  0  0  0  0  0  0  0  0  0  0  0
   12.6210  -38.2453   -4.6662 H   0  0  0  0  0  0  0  0  0  0  0  0
   23.5059  -41.6476   -8.6454 H   0  0  0  0  0  0  0  0  0  0  0  0
   23.1815  -43.6878  -10.1161 H   0  0  0  0  0  0  0  0  0  0  0  0
   18.7717  -41.5095   -7.9199 H   0  0  0  0  0  0  0  0  0  0  0  0
   20.1678  -41.1100   -3.9282 H   0  0  0  0  0  0  0  0  0  0  0  0
   18.7783  -41.6801   -3.2873 H   0  0  0  0  0  0  0  0  0  0  0  0
   17.4984  -37.3125   -3.0050 H   0  0  0  0  0  0  0  0  0  0  0  0
   16.7739  -40.0932   -3.2887 H   0  0  0  0  0  0  0  0  0  0  0  0
   18.1678  -39.5792   -6.6574 H   0  0  0  0  0  0  0  0  0  0  0  0
   19.5706  -38.1873   -4.8276 H   0  0  0  0  0  0  0  0  0  0  0  0
  1 21  1  0  0  0  0
  2 25  1  0  0  0  0
  3 33  1  0  0  0  0
  4 22  1  0  0  0  0
  4 28  1  0  0  0  0
  5 24  1  0  0  0  0
  5 26  1  0  0  0  0
  6 23  1  0  0  0  0
  7 12  2  0  0  0  0
  7 27  1  0  0  0  0
  8 12  1  0  0  0  0
  8 29  2  0  0  0  0
  9 23  2  0  0  0  0
  9 30  1  0  0  0  0
 10 13  1  0  0  0  0
 10 22  1  0  0  0  0
 10 27  1  0  0  0  0
 11 29  1  0  0  0  0
 13 16  2  0  0  0  0
 14 17  1  0  0  0  0
 14 24  2  0  0  0  0
 15 20  1  0  0  0  0
 15 26  1  0  0  0  0
 16 32  1  0  0  0  0
 17 31  2  0  0  0  0
 18 21  2  0  0  0  0
 18 31  1  0  0  0  0
 19 24  1  0  0  0  0
 19 30  2  0  0  0  0
 20 33  1  0  0  0  0
 21 23  1  0  0  0  0
 22 25  1  0  0  0  0
 25 33  1  0  0  0  0
 26 28  1  0  0  0  0
 27 32  2  0  0  0  0
 28 33  1  0  0  0  0
 29 32  1  0  0  0  0
 30 31  1  0  0  0  0
  2 34  1  0  0  0  0
  3 35  1  0  0  0  0
  6 36  1  0  0  0  0
  6 37  1  0  0  0  0
 11 38  1  0  0  0  0
 11 39  1  0  0  0  0
 11 40  1  0  0  0  0
 12 41  1  0  0  0  0
 13 42  1  0  0  0  0
 14 43  1  0  0  0  0
 15 44  1  0  0  0  0
 15 45  1  0  0  0  0
 16 46  1  0  0  0  0
 17 47  1  0  0  0  0
 18 48  1  0  0  0  0
 19 49  1  0  0  0  0
 20 50  1  0  0  0  0
 20 51  1  0  0  0  0
 22 52  1  0  0  0  0
 25 53  1  0  0  0  0
 26 54  1  0  0  0  0
 28 55  1  0  0  0  0
M  END
> <pdb_id>
7KIC

> <uniprot_id>
O14744

> <usmiles>
Brc1c(nc2c(c1)ccc(O[C@@H]3[C@H]4O[C@@H](N5c6ncnc(c6C=C5)C)[C@H](O)[C@@]4(O)CC3)c2)N

$$$$
WFV_A_705
          07212404143D 1   1.00000     0.00000     0
            
 58 63  0  0  0  0            999 V2000
   22.2390  -46.0160  -11.4100 F   0  0  0  0  0  0  0  0  0  0  0  0
   12.6250  -38.4390   -4.8900 F   0  0  0  0  0  0  0  0  0  0  0  0
   23.7970  -41.8570   -9.0550 F   0  0  0  0  0  0  0  0  0  0  0  0
   17.2180  -39.5200   -1.5170 O   0  0  0  0  0  0  0  0  0  0  0  0
   19.9110  -39.2720   -2.2150 O   0  0  0  0  0  0  0  0  0  0  0  0
   19.5350  -46.1120  -10.9100 N   0  0  0  0  0  0  0  0  0  0  0  0
   11.8050  -35.5740   -3.6190 N   0  0  0  0  0  0  0  0  0  0  0  0
   13.6550  -34.6160   -2.6220 N   0  0  0  0  0  0  0  0  0  0  0  0
   15.8480  -35.6310   -2.5900 N   0  0  0  0  0  0  0  0  0  0  0  0
   19.6390  -44.1430   -9.7110 N   0  0  0  0  0  0  0  0  0  0  0  0
   15.9010  -37.8040   -3.6890 N   0  0  0  0  0  0  0  0  0  0  0  0
   14.9600  -34.6650   -2.3180 C   0  0  0  0  0  0  0  0  0  0  0  0
   14.9590  -38.5850   -4.3230 C   0  0  0  0  0  0  0  0  0  0  0  0
   19.4520  -41.5150   -4.9070 C   0  0  0  0  0  0  0  0  0  0  0  0
   19.4030  -41.2780   -3.4090 C   0  0  0  0  0  0  0  0  0  0  0  0
   21.8580  -41.0790   -7.9860 C   0  0  0  0  0  0  0  0  0  0  0  0
   22.4080  -43.9960  -10.2350 C   0  0  0  0  0  0  0  0  0  0  0  0
   19.7470  -42.1340   -8.4200 C   0  0  0  0  0  0  0  0  0  0  0  0
   19.7710  -40.0580   -6.9870 C   0  0  0  0  0  0  0  0  0  0  0  0
   18.0530  -38.2920   -4.8620 C   0  0  0  0  0  0  0  0  0  0  0  0
   21.6610  -45.0220  -10.6970 C   0  0  0  0  0  0  0  0  0  0  0  0
   13.7530  -37.9710   -4.3240 C   0  0  0  0  0  0  0  0  0  0  0  0
   22.4410  -41.8720   -8.9440 C   0  0  0  0  0  0  0  0  0  0  0  0
   20.2620  -45.0940  -10.4370 C   0  0  0  0  0  0  0  0  0  0  0  0
   13.1020  -35.6540   -3.2990 C   0  0  0  0  0  0  0  0  0  0  0  0
   17.5550  -39.5070   -2.8980 C   0  0  1  0  0  0  0  0  0  0  0  0
   15.2840  -36.6520   -3.2580 C   0  0  0  0  0  0  0  0  0  0  0  0
   20.3860  -43.1070   -9.2230 C   0  0  0  0  0  0  0  0  0  0  0  0
   20.4630  -41.1070   -7.8270 C   0  0  0  0  0  0  0  0  0  0  0  0
   17.3240  -38.1430   -3.5350 C   0  0  2  0  0  0  0  0  0  0  0  0
   19.9930  -40.2170   -5.4720 C   0  0  1  0  0  0  0  0  0  0  0  0
   21.7680  -42.9960   -9.4670 C   0  0  0  0  0  0  0  0  0  0  0  0
   19.3500  -39.1200   -4.5910 C   0  0  2  0  0  0  0  0  0  0  0  0
   13.9340  -36.7520   -3.6520 C   0  0  0  0  0  0  0  0  0  0  0  0
   19.0340  -39.7970   -3.2150 C   0  0  1  0  0  0  0  0  0  0  0  0
   17.3849  -40.4318   -1.1417 H   0  0  0  0  0  0  0  0  0  0  0  0
   19.7006  -38.3066   -2.0607 H   0  0  0  0  0  0  0  0  0  0  0  0
   19.9727  -46.8301  -11.4511 H   0  0  0  0  0  0  0  0  0  0  0  0
   18.5537  -46.1551  -10.7226 H   0  0  0  0  0  0  0  0  0  0  0  0
   11.3660  -36.3214   -4.1178 H   0  0  0  0  0  0  0  0  0  0  0  0
   11.2748  -34.7669   -3.3593 H   0  0  0  0  0  0  0  0  0  0  0  0
   15.3188  -33.8745   -1.8216 H   0  0  0  0  0  0  0  0  0  0  0  0
   15.1414  -39.4816   -4.7266 H   0  0  0  0  0  0  0  0  0  0  0  0
   18.5381  -41.7043   -5.2661 H   0  0  0  0  0  0  0  0  0  0  0  0
   20.0606  -42.2778   -5.1256 H   0  0  0  0  0  0  0  0  0  0  0  0
   20.2951  -41.4686   -2.9994 H   0  0  0  0  0  0  0  0  0  0  0  0
   18.7109  -41.8647   -2.9885 H   0  0  0  0  0  0  0  0  0  0  0  0
   22.4208  -40.4881   -7.4080 H   0  0  0  0  0  0  0  0  0  0  0  0
   23.3873  -43.9449  -10.4308 H   0  0  0  0  0  0  0  0  0  0  0  0
   18.7587  -42.1884   -8.2774 H   0  0  0  0  0  0  0  0  0  0  0  0
   18.7887  -40.1094   -7.1673 H   0  0  0  0  0  0  0  0  0  0  0  0
   20.1138  -39.1597   -7.2618 H   0  0  0  0  0  0  0  0  0  0  0  0
   18.2919  -37.3909   -5.2240 H   0  0  0  0  0  0  0  0  0  0  0  0
   17.4720  -38.7720   -5.5193 H   0  0  0  0  0  0  0  0  0  0  0  0
   16.9884  -40.1812   -3.3717 H   0  0  0  0  0  0  0  0  0  0  0  0
   17.7751  -37.4396   -2.9857 H   0  0  0  0  0  0  0  0  0  0  0  0
   20.9790  -40.2009   -5.3060 H   0  0  0  0  0  0  0  0  0  0  0  0
   20.0719  -38.4518   -4.4109 H   0  0  0  0  0  0  0  0  0  0  0  0
  1 21  1  0  0  0  0
  2 22  1  0  0  0  0
  3 23  1  0  0  0  0
  4 26  1  0  0  0  0
  5 35  1  0  0  0  0
  6 24  1  0  0  0  0
  7 25  1  0  0  0  0
  8 12  1  0  0  0  0
  8 25  2  0  0  0  0
  9 12  2  0  0  0  0
  9 27  1  0  0  0  0
 10 24  2  0  0  0  0
 10 28  1  0  0  0  0
 11 13  1  0  0  0  0
 11 27  1  0  0  0  0
 11 30  1  0  0  0  0
 13 22  2  0  0  0  0
 14 15  1  0  0  0  0
 14 31  1  0  0  0  0
 15 35  1  0  0  0  0
 16 23  1  0  0  0  0
 16 29  2  0  0  0  0
 17 21  2  0  0  0  0
 17 32  1  0  0  0  0
 18 28  2  0  0  0  0
 18 29  1  0  0  0  0
 19 29  1  0  0  0  0
 19 31  1  0  0  0  0
 20 30  1  0  0  0  0
 20 33  1  0  0  0  0
 21 24  1  0  0  0  0
 22 34  1  0  0  0  0
 23 32  2  0  0  0  0
 25 34  1  0  0  0  0
 26 30  1  0  0  0  0
 26 35  1  0  0  0  0
 27 34  2  0  0  0  0
 28 32  1  0  0  0  0
 31 33  1  0  0  0  0
 33 35  1  0  0  0  0
  4 36  1  0  0  0  0
  5 37  1  0  0  0  0
  6 38  1  0  0  0  0
  6 39  1  0  0  0  0
  7 40  1  0  0  0  0
  7 41  1  0  0  0  0
 12 42  1  0  0  0  0
 13 43  1  0  0  0  0
 14 44  1  0  0  0  0
 14 45  1  0  0  0  0
 15 46  1  0  0  0  0
 15 47  1  0  0  0  0
 16 48  1  0  0  0  0
 17 49  1  0  0  0  0
 18 50  1  0  0  0  0
 19 51  1  0  0  0  0
 19 52  1  0  0  0  0
 20 53  1  0  0  0  0
 20 54  1  0  0  0  0
 26 55  1  0  0  0  0
 30 56  1  0  0  0  0
 31 57  1  0  0  0  0
 33 58  1  0  0  0  0
M  END
> <pdb_id>
7KID

> <uniprot_id>
O14744

> <usmiles>
Fc1c(nc2c(c(F)cc(c2)C[C@H]3[C@@H]4[C@@](O)([C@@H](O)[C@H](N5c6ncnc(N)c6C(F)=C5)C4)CC3)c1)N

$$$$
WG4_D_501
          07192418133D 1   1.00000     0.00000     0
            
 54 58  0  0  0  0            999 V2000
    9.8587   15.4685   30.1368 S   0  0  0  0  0  0  0  0  0  0  0  0
   12.6295   15.6256   30.0159 O   0  0  0  0  0  0  0  0  0  0  0  0
    9.3344   14.2780   32.2281 N   0  0  0  0  0  0  0  0  0  0  0  0
    0.3225   16.5581   33.4673 N   0  0  0  0  0  0  0  0  0  0  0  0
    2.5240   17.5257   33.4224 N   0  0  0  0  0  0  0  0  0  0  0  0
   11.6795   14.7158   31.9465 N   0  0  0  0  0  0  0  0  0  0  0  0
    6.4734   16.7776   30.0005 N   0  0  0  0  0  0  0  0  0  0  0  0
    4.6173   18.4702   33.3923 N   0  0  0  0  0  0  0  0  0  0  0  0
    1.5654   16.5982   35.2931 N   0  0  0  0  0  0  0  0  0  0  0  0
   14.0819   15.0641   31.7103 C   0  0  0  0  0  0  0  0  0  0  0  0
    2.7680   16.5171   37.5294 C   0  0  0  0  0  0  0  0  0  0  0  0
   -0.3853   16.0104   34.4470 C   0  0  0  0  0  0  0  0  0  0  0  0
    8.1625   14.4210   31.6548 C   0  0  0  0  0  0  0  0  0  0  0  0
    0.3637   16.0275   35.5645 C   0  0  0  0  0  0  0  0  0  0  0  0
    3.7298   17.4998   35.4812 C   0  0  0  0  0  0  0  0  0  0  0  0
    7.0752   17.9926   29.4035 C   0  0  0  0  0  0  0  0  0  0  0  0
    5.9016   19.0014   33.8950 C   0  0  0  0  0  0  0  0  0  0  0  0
    7.0750   15.4657   29.6136 C   0  0  0  0  0  0  0  0  0  0  0  0
    6.2910   17.1170   31.4484 C   0  0  0  0  0  0  0  0  0  0  0  0
    4.5679   18.8476   31.9450 C   0  0  0  0  0  0  0  0  0  0  0  0
    6.4808   19.2005   30.1470 C   0  0  0  0  0  0  0  0  0  0  0  0
    6.7111   19.3849   32.6172 C   0  0  0  0  0  0  0  0  0  0  0  0
   10.3556   14.7426   31.5716 C   0  0  0  0  0  0  0  0  0  0  0  0
   12.7110   15.1601   31.1645 C   0  0  0  0  0  0  0  0  0  0  0  0
    1.4850   16.9263   33.9678 C   0  0  0  0  0  0  0  0  0  0  0  0
    8.2054   15.0444   30.4932 C   0  0  0  0  0  0  0  0  0  0  0  0
    3.6233   17.8155   34.0982 C   0  0  0  0  0  0  0  0  0  0  0  0
    2.6792   16.8765   36.0621 C   0  0  0  0  0  0  0  0  0  0  0  0
    6.0170   18.6214   31.4927 C   0  0  2  0  0  0  0  0  0  0  0  0
   11.8688   14.3660   32.8311 H   0  0  0  0  0  0  0  0  0  0  0  0
   14.0641   14.8404   32.7819 H   0  0  0  0  0  0  0  0  0  0  0  0
   14.5832   15.9882   31.5515 H   0  0  0  0  0  0  0  0  0  0  0  0
   14.6310   14.2792   31.1779 H   0  0  0  0  0  0  0  0  0  0  0  0
    1.9652   15.8485   37.8289 H   0  0  0  0  0  0  0  0  0  0  0  0
    2.7220   17.4348   38.1249 H   0  0  0  0  0  0  0  0  0  0  0  0
    3.7174   16.0134   37.7260 H   0  0  0  0  0  0  0  0  0  0  0  0
   -1.3851   15.6201   34.3488 H   0  0  0  0  0  0  0  0  0  0  0  0
    7.2420   14.0747   32.1015 H   0  0  0  0  0  0  0  0  0  0  0  0
    0.0610   15.6617   36.5117 H   0  0  0  0  0  0  0  0  0  0  0  0
    4.6165   17.7274   36.0546 H   0  0  0  0  0  0  0  0  0  0  0  0
    6.8247   18.0491   28.3440 H   0  0  0  0  0  0  0  0  0  0  0  0
    8.1584   17.9745   29.5270 H   0  0  0  0  0  0  0  0  0  0  0  0
    6.4299   18.2372   34.4651 H   0  0  0  0  0  0  0  0  0  0  0  0
    5.7303   19.8838   34.5115 H   0  0  0  0  0  0  0  0  0  0  0  0
    6.3345   14.6778   29.5986 H   0  0  0  0  0  0  0  0  0  0  0  0
    7.4651   15.5666   28.6000 H   0  0  0  0  0  0  0  0  0  0  0  0
    7.1719   16.9396   32.0600 H   0  0  0  0  0  0  0  0  0  0  0  0
    5.4565   16.5359   31.8167 H   0  0  0  0  0  0  0  0  0  0  0  0
    3.8885   18.2418   31.3502 H   0  0  0  0  0  0  0  0  0  0  0  0
    4.3093   19.9033   31.8686 H   0  0  0  0  0  0  0  0  0  0  0  0
    5.6559   19.6176   29.5976 H   0  0  0  0  0  0  0  0  0  0  0  0
    7.2567   19.9596   30.2636 H   0  0  0  0  0  0  0  0  0  0  0  0
    6.6396   20.4609   32.4530 H   0  0  0  0  0  0  0  0  0  0  0  0
    7.7569   19.0929   32.7168 H   0  0  0  0  0  0  0  0  0  0  0  0
  1 23  1  0  0  0  0
  1 26  1  0  0  0  0
  2 24  2  0  0  0  0
  3 13  1  0  0  0  0
  3 23  2  0  0  0  0
  4 12  1  0  0  0  0
  4 25  2  0  0  0  0
  5 25  1  0  0  0  0
  5 27  2  0  0  0  0
  6 23  1  0  0  0  0
  6 24  1  0  0  0  0
  6 30  1  0  0  0  0
  7 16  1  0  0  0  0
  7 18  1  0  0  0  0
  7 19  1  0  0  0  0
  8 17  1  0  0  0  0
  8 20  1  0  0  0  0
  8 27  1  0  0  0  0
  9 14  1  0  0  0  0
  9 25  1  0  0  0  0
  9 28  1  0  0  0  0
 10 24  1  0  0  0  0
 10 31  1  0  0  0  0
 10 32  1  0  0  0  0
 10 33  1  0  0  0  0
 11 28  1  0  0  0  0
 11 34  1  0  0  0  0
 11 35  1  0  0  0  0
 11 36  1  0  0  0  0
 12 14  2  0  0  0  0
 12 37  1  0  0  0  0
 13 26  2  0  0  0  0
 13 38  1  0  0  0  0
 14 39  1  0  0  0  0
 15 27  1  0  0  0  0
 15 28  2  0  0  0  0
 15 40  1  0  0  0  0
 16 21  1  0  0  0  0
 16 41  1  0  0  0  0
 16 42  1  0  0  0  0
 17 22  1  0  0  0  0
 17 43  1  0  0  0  0
 17 44  1  0  0  0  0
 18 26  1  0  0  0  0
 18 45  1  0  0  0  0
 18 46  1  0  0  0  0
 19 29  1  0  0  0  0
 19 47  1  0  0  0  0
 19 48  1  0  0  0  0
 20 29  1  0  0  0  0
 20 49  1  0  0  0  0
 20 50  1  0  0  0  0
 21 29  1  0  0  0  0
 21 51  1  0  0  0  0
 21 52  1  0  0  0  0
 22 29  1  0  0  0  0
 22 53  1  0  0  0  0
 22 54  1  0  0  0  0
M  END
> <pdb_id>
7KHS

> <uniprot_id>
Q2CEE3

> <usmiles>
S1C(=NC=C1CN2C[C@]3(CN(C4=NC5=NC=CN5C(=C4)C)CC3)CC2)NC(=O)C

$$$$
WHA_A_302
          07192420423D 1   1.00000     0.00000     0
            
 46 49  0  0  0  0            999 V2000
   69.4162   31.4825   25.0338 Cl  0  0  0  0  0  0  0  0  0  0  0  0
   66.6201   35.7136   21.3959 S   0  0  0  0  0  0  0  0  0  0  0  0
   68.0023   41.2398   21.5332 O   0  0  0  0  0  0  0  0  0  0  0  0
   74.3351   34.8513   27.1257 O   0  0  0  0  0  0  0  0  0  0  0  0
   67.0320   40.1923   23.2956 N   0  0  0  0  0  0  0  0  0  0  0  0
   65.2070   33.4921   25.5507 N   0  0  0  0  0  0  0  0  0  0  0  0
   65.9481   34.5292   23.6335 N   0  0  0  0  0  0  0  0  0  0  0  0
   68.2494   34.8941   23.3635 N   0  0  0  0  0  0  0  0  0  0  0  0
   67.4256   33.8588   25.2914 N   0  0  0  0  0  0  0  0  0  0  0  0
   68.1874   36.5790   20.9839 C   0  0  0  0  0  0  0  0  0  0  0  0
   74.2130   36.0030   26.2944 C   0  0  0  0  0  0  0  0  0  0  0  0
   73.8447   33.6872   26.3802 C   0  0  0  0  0  0  0  0  0  0  0  0
   68.3667   37.8771   21.7654 C   0  0  0  0  0  0  0  0  0  0  0  0
   71.0597   37.7560   25.2000 C   0  0  0  0  0  0  0  0  0  0  0  0
   67.3819   38.9554   21.2928 C   0  0  0  0  0  0  0  0  0  0  0  0
   72.3947   37.5415   25.5792 C   0  0  0  0  0  0  0  0  0  0  0  0
   70.2127   36.6555   25.0031 C   0  0  0  0  0  0  0  0  0  0  0  0
   71.6510   32.7495   25.8022 C   0  0  0  0  0  0  0  0  0  0  0  0
   66.9820   35.0248   22.9286 C   0  0  0  0  0  0  0  0  0  0  0  0
   70.3529   32.9264   25.3107 C   0  0  0  0  0  0  0  0  0  0  0  0
   67.5107   40.2388   22.0642 C   0  0  0  0  0  0  0  0  0  0  0  0
   66.1843   33.9897   24.8369 C   0  0  0  0  0  0  0  0  0  0  0  0
   68.4752   34.3086   24.5581 C   0  0  0  0  0  0  0  0  0  0  0  0
   72.8765   36.2410   25.8036 C   0  0  0  0  0  0  0  0  0  0  0  0
   72.4849   33.8446   25.9441 C   0  0  0  0  0  0  0  0  0  0  0  0
   70.6647   35.3330   25.1923 C   0  0  0  0  0  0  0  0  0  0  0  0
   69.8223   34.2029   25.0260 C   0  0  0  0  0  0  0  0  0  0  0  0
   72.0099   35.1365   25.6266 C   0  0  0  0  0  0  0  0  0  0  0  0
   66.6497   39.3396   23.6516 H   0  0  0  0  0  0  0  0  0  0  0  0
   67.0523   41.0098   23.8712 H   0  0  0  0  0  0  0  0  0  0  0  0
   65.3962   33.0922   26.4475 H   0  0  0  0  0  0  0  0  0  0  0  0
   64.2709   33.5118   25.1995 H   0  0  0  0  0  0  0  0  0  0  0  0
   68.1882   36.7913   20.0067 H   0  0  0  0  0  0  0  0  0  0  0  0
   68.9532   35.9710   21.1935 H   0  0  0  0  0  0  0  0  0  0  0  0
   74.8198   35.8875   25.5080 H   0  0  0  0  0  0  0  0  0  0  0  0
   74.5000   36.8024   26.8223 H   0  0  0  0  0  0  0  0  0  0  0  0
   73.9009   32.8818   26.9703 H   0  0  0  0  0  0  0  0  0  0  0  0
   74.4254   33.5531   25.5772 H   0  0  0  0  0  0  0  0  0  0  0  0
   69.3007   38.2095   21.6344 H   0  0  0  0  0  0  0  0  0  0  0  0
   68.2102   37.6966   22.7365 H   0  0  0  0  0  0  0  0  0  0  0  0
   70.7156   38.6861   25.0713 H   0  0  0  0  0  0  0  0  0  0  0  0
   66.4506   38.6082   21.4030 H   0  0  0  0  0  0  0  0  0  0  0  0
   67.5548   39.1447   20.3262 H   0  0  0  0  0  0  0  0  0  0  0  0
   73.0089   38.3227   25.6906 H   0  0  0  0  0  0  0  0  0  0  0  0
   69.2659   36.8123   24.7220 H   0  0  0  0  0  0  0  0  0  0  0  0
   71.9746   31.8361   26.0496 H   0  0  0  0  0  0  0  0  0  0  0  0
  1 20  1  0  0  0  0
  2 10  1  0  0  0  0
  2 19  1  0  0  0  0
  3 21  2  0  0  0  0
  4 11  1  0  0  0  0
  4 12  1  0  0  0  0
  5 21  1  0  0  0  0
  6 22  1  0  0  0  0
  7 19  1  0  0  0  0
  7 22  2  0  0  0  0
  8 19  2  0  0  0  0
  8 23  1  0  0  0  0
  9 22  1  0  0  0  0
  9 23  2  0  0  0  0
 10 13  1  0  0  0  0
 11 24  1  0  0  0  0
 12 25  1  0  0  0  0
 13 15  1  0  0  0  0
 14 16  1  0  0  0  0
 14 17  2  0  0  0  0
 15 21  1  0  0  0  0
 16 24  2  0  0  0  0
 17 26  1  0  0  0  0
 18 20  2  0  0  0  0
 18 25  1  0  0  0  0
 20 27  1  0  0  0  0
 23 27  1  0  0  0  0
 24 28  1  0  0  0  0
 25 28  2  0  0  0  0
 26 27  2  0  0  0  0
 26 28  1  0  0  0  0
  5 29  1  0  0  0  0
  5 30  1  0  0  0  0
  6 31  1  0  0  0  0
  6 32  1  0  0  0  0
 10 33  1  0  0  0  0
 10 34  1  0  0  0  0
 11 35  1  0  0  0  0
 11 36  1  0  0  0  0
 12 37  1  0  0  0  0
 12 38  1  0  0  0  0
 13 39  1  0  0  0  0
 13 40  1  0  0  0  0
 14 41  1  0  0  0  0
 15 42  1  0  0  0  0
 15 43  1  0  0  0  0
 16 44  1  0  0  0  0
 17 45  1  0  0  0  0
 18 46  1  0  0  0  0
M  END
> <pdb_id>
3WHA

> <uniprot_id>
P07900

> <usmiles>
Clc1c(c2nc(SCCCC(=O)N)nc(n2)N)c3c4c(c1)COCc4ccc3

$$$$
WI2_A_1280
          07212404093D 1   1.00000     0.00000     0
            
 44 46  0  0  0  0            999 V2000
   21.3165   -6.5198   12.1024 O   0  0  0  0  0  0  0  0  0  0  0  0
   22.7282   -8.1980   11.7128 O   0  0  0  0  0  0  0  0  0  0  0  0
   27.9963   -8.4842   23.5627 O   0  0  0  0  0  0  0  0  0  0  0  0
   23.5040   -3.8755   17.6991 N   0  0  0  0  0  0  0  0  0  0  0  0
   24.4792   -4.7154   19.6311 N   0  0  0  0  0  0  0  0  0  0  0  0
   24.8031   -7.2571   18.5347 N   0  0  0  0  0  0  0  0  0  0  0  0
   23.7157   -6.5965   16.5123 N   0  0  0  0  0  0  0  0  0  0  0  0
   28.9747   -9.3950   24.0321 C   0  0  0  0  0  0  0  0  0  0  0  0
   25.0455   -5.7073   20.3397 C   0  0  0  0  0  0  0  0  0  0  0  0
   22.2350   -6.6842   16.3197 C   0  0  0  0  0  0  0  0  0  0  0  0
   24.4640   -7.5631   15.6473 C   0  0  0  0  0  0  0  0  0  0  0  0
   26.2556  -10.4332   20.9769 C   0  0  0  0  0  0  0  0  0  0  0  0
   27.0573  -10.1732   22.0952 C   0  0  0  0  0  0  0  0  0  0  0  0
   21.8050   -6.5376   14.8566 C   0  0  0  0  0  0  0  0  0  0  0  0
   23.9752   -7.4257   14.1929 C   0  0  0  0  0  0  0  0  0  0  0  0
   25.6815   -9.3717   20.2607 C   0  0  0  0  0  0  0  0  0  0  0  0
   26.6858   -7.7710   21.7486 C   0  0  0  0  0  0  0  0  0  0  0  0
   22.0334   -7.4060   12.5609 C   0  0  0  0  0  0  0  0  0  0  0  0
   24.0549   -4.9589   18.3478 C   0  0  0  0  0  0  0  0  0  0  0  0
   27.2629   -8.8367   22.4619 C   0  0  0  0  0  0  0  0  0  0  0  0
   24.2380   -6.2641   17.7889 C   0  0  0  0  0  0  0  0  0  0  0  0
   25.2148   -6.9996   19.8005 C   0  0  0  0  0  0  0  0  0  0  0  0
   22.4701   -7.5871   13.9946 C   0  0  0  0  0  0  0  0  0  0  0  0
   25.8804   -8.0325   20.6425 C   0  0  0  0  0  0  0  0  0  0  0  0
   20.7976   -5.9275   12.7188 H   0  0  0  0  0  0  0  0  0  0  0  0
   23.1708   -3.9708   16.7610 H   0  0  0  0  0  0  0  0  0  0  0  0
   23.4373   -2.9939   18.1662 H   0  0  0  0  0  0  0  0  0  0  0  0
   29.4299   -9.0106   24.8352 H   0  0  0  0  0  0  0  0  0  0  0  0
   28.5350  -10.2584   24.2795 H   0  0  0  0  0  0  0  0  0  0  0  0
   29.6498   -9.5589   23.3128 H   0  0  0  0  0  0  0  0  0  0  0  0
   25.3546   -5.5244   21.2730 H   0  0  0  0  0  0  0  0  0  0  0  0
   21.8020   -5.9570   16.8522 H   0  0  0  0  0  0  0  0  0  0  0  0
   21.9234   -7.5734   16.6546 H   0  0  0  0  0  0  0  0  0  0  0  0
   24.2997   -8.4957   15.9685 H   0  0  0  0  0  0  0  0  0  0  0  0
   25.4427   -7.3628   15.6914 H   0  0  0  0  0  0  0  0  0  0  0  0
   26.0921  -11.3766   20.6882 H   0  0  0  0  0  0  0  0  0  0  0  0
   27.4709  -10.9195   22.6167 H   0  0  0  0  0  0  0  0  0  0  0  0
   22.0652   -5.6299   14.5276 H   0  0  0  0  0  0  0  0  0  0  0  0
   20.8125   -6.6429   14.7943 H   0  0  0  0  0  0  0  0  0  0  0  0
   24.4360   -8.1236   13.6446 H   0  0  0  0  0  0  0  0  0  0  0  0
   24.2350   -6.5179   13.8638 H   0  0  0  0  0  0  0  0  0  0  0  0
   25.1174   -9.5721   19.4597 H   0  0  0  0  0  0  0  0  0  0  0  0
   26.8532   -6.8276   22.0348 H   0  0  0  0  0  0  0  0  0  0  0  0
   22.1930   -8.4947   14.3100 H   0  0  0  0  0  0  0  0  0  0  0  0
  1 18  1  0  0  0  0
  2 18  2  0  0  0  0
  3  8  1  0  0  0  0
  3 20  1  0  0  0  0
  4 19  1  0  0  0  0
  5  9  1  0  0  0  0
  5 19  2  0  0  0  0
  6 21  2  0  0  0  0
  6 22  1  0  0  0  0
  7 10  1  0  0  0  0
  7 11  1  0  0  0  0
  7 21  1  0  0  0  0
  9 22  2  0  0  0  0
 10 14  1  0  0  0  0
 11 15  1  0  0  0  0
 12 13  2  0  0  0  0
 12 16  1  0  0  0  0
 13 20  1  0  0  0  0
 14 23  1  0  0  0  0
 15 23  1  0  0  0  0
 16 24  2  0  0  0  0
 17 20  2  0  0  0  0
 17 24  1  0  0  0  0
 18 23  1  0  0  0  0
 19 21  1  0  0  0  0
 22 24  1  0  0  0  0
  1 25  1  0  0  0  0
  4 26  1  0  0  0  0
  4 27  1  0  0  0  0
  8 28  1  0  0  0  0
  8 29  1  0  0  0  0
  8 30  1  0  0  0  0
  9 31  1  0  0  0  0
 10 32  1  0  0  0  0
 10 33  1  0  0  0  0
 11 34  1  0  0  0  0
 11 35  1  0  0  0  0
 12 36  1  0  0  0  0
 13 37  1  0  0  0  0
 14 38  1  0  0  0  0
 14 39  1  0  0  0  0
 15 40  1  0  0  0  0
 15 41  1  0  0  0  0
 16 42  1  0  0  0  0
 17 43  1  0  0  0  0
 23 44  1  0  0  0  0
M  END
> <pdb_id>
2XKE

> <uniprot_id>
P51955

> <usmiles>
O=C(O)C1CCN(c2nc(c3cc(OC)ccc3)cnc2N)CC1

$$$$
WJ1_A_404
          07192423263D 1   1.00000     0.00000     0
            
 21 21  0  0  0  0            999 V2000
   -8.3368  -29.9090   15.1644 Cl  0  0  0  0  0  0  0  0  0  0  0  0
   -6.9679  -32.9725   13.5297 O   0  0  0  0  0  0  0  0  0  0  0  0
   -8.3881  -31.4942   12.7447 O   0  0  0  0  0  0  0  0  0  0  0  0
   -8.8717  -32.1036   20.0812 C   0  0  0  0  0  0  0  0  0  0  0  0
   -8.0659  -33.0141   19.4005 C   0  0  0  0  0  0  0  0  0  0  0  0
   -9.7729  -31.3271   19.3617 C   0  0  0  0  0  0  0  0  0  0  0  0
   -8.1611  -33.1463   18.0174 C   0  0  0  0  0  0  0  0  0  0  0  0
   -9.8701  -31.4583   17.9757 C   0  0  0  0  0  0  0  0  0  0  0  0
   -9.1455  -32.4774   15.7950 C   0  0  0  0  0  0  0  0  0  0  0  0
   -7.7456  -32.0760   13.7658 C   0  0  0  0  0  0  0  0  0  0  0  0
   -7.9839  -31.6625   15.1815 C   0  0  1  0  0  0  0  0  0  0  0  0
   -9.0602  -32.3619   17.3020 C   0  0  0  0  0  0  0  0  0  0  0  0
   -6.4782  -33.4198   14.2781 H   0  0  0  0  0  0  0  0  0  0  0  0
   -8.8026  -32.0100   21.0744 H   0  0  0  0  0  0  0  0  0  0  0  0
   -7.4142  -33.5768   19.9091 H   0  0  0  0  0  0  0  0  0  0  0  0
  -10.3553  -30.6703   19.8405 H   0  0  0  0  0  0  0  0  0  0  0  0
   -7.5824  -33.8059   17.5378 H   0  0  0  0  0  0  0  0  0  0  0  0
  -10.5250  -30.8998   17.4666 H   0  0  0  0  0  0  0  0  0  0  0  0
   -9.0662  -33.4367   15.5240 H   0  0  0  0  0  0  0  0  0  0  0  0
  -10.0203  -32.1124   15.4765 H   0  0  0  0  0  0  0  0  0  0  0  0
   -7.1533  -31.8242   15.7142 H   0  0  0  0  0  0  0  0  0  0  0  0
  1 11  1  0  0  0  0
  2 10  1  0  0  0  0
  3 10  2  0  0  0  0
  4  5  2  0  0  0  0
  4  6  1  0  0  0  0
  5  7  1  0  0  0  0
  6  8  2  0  0  0  0
  7 12  2  0  0  0  0
  8 12  1  0  0  0  0
  9 11  1  0  0  0  0
  9 12  1  0  0  0  0
 10 11  1  0  0  0  0
  2 13  1  0  0  0  0
  4 14  1  0  0  0  0
  5 15  1  0  0  0  0
  6 16  1  0  0  0  0
  7 17  1  0  0  0  0
  8 18  1  0  0  0  0
  9 19  1  0  0  0  0
  9 20  1  0  0  0  0
 11 21  1  0  0  0  0
M  END
> <pdb_id>
4DZY

> <uniprot_id>
Q00972

> <usmiles>
Cl[C@H](C(=O)O)Cc1ccccc1

$$$$
WJ2_A_404
          07192423263D 1   1.00000     0.00000     0
            
 21 21  0  0  0  0            999 V2000
   -7.8328  -30.1605   15.2443 Cl  0  0  0  0  0  0  0  0  0  0  0  0
   -7.0007  -32.7014   13.3588 O   0  0  0  0  0  0  0  0  0  0  0  0
   -8.5167  -31.5063   12.2962 O   0  0  0  0  0  0  0  0  0  0  0  0
   -9.6796  -31.7052   19.6916 C   0  0  0  0  0  0  0  0  0  0  0  0
   -8.4733  -32.3415   19.4547 C   0  0  0  0  0  0  0  0  0  0  0  0
  -10.5118  -31.4026   18.6237 C   0  0  0  0  0  0  0  0  0  0  0  0
   -8.1101  -32.6561   18.1523 C   0  0  0  0  0  0  0  0  0  0  0  0
  -10.1456  -31.7202   17.3212 C   0  0  0  0  0  0  0  0  0  0  0  0
   -8.5315  -32.6922   15.6828 C   0  0  0  0  0  0  0  0  0  0  0  0
   -8.0110  -31.9528   13.3719 C   0  0  0  0  0  0  0  0  0  0  0  0
   -8.6280  -31.5843   14.6776 C   0  0  2  0  0  0  0  0  0  0  0  0
   -8.9403  -32.3545   17.0844 C   0  0  0  0  0  0  0  0  0  0  0  0
   -6.6192  -33.0414   14.2183 H   0  0  0  0  0  0  0  0  0  0  0  0
   -9.9489  -31.4658   20.6244 H   0  0  0  0  0  0  0  0  0  0  0  0
   -7.8679  -32.5728   20.2163 H   0  0  0  0  0  0  0  0  0  0  0  0
  -11.3871  -30.9498   18.7935 H   0  0  0  0  0  0  0  0  0  0  0  0
   -7.2345  -33.1080   17.9818 H   0  0  0  0  0  0  0  0  0  0  0  0
  -10.7510  -31.4910   16.5590 H   0  0  0  0  0  0  0  0  0  0  0  0
   -7.5799  -32.9983   15.7083 H   0  0  0  0  0  0  0  0  0  0  0  0
   -9.1143  -33.4412   15.3676 H   0  0  0  0  0  0  0  0  0  0  0  0
   -9.5936  -31.3726   14.5266 H   0  0  0  0  0  0  0  0  0  0  0  0
  1 11  1  0  0  0  0
  2 10  1  0  0  0  0
  3 10  2  0  0  0  0
  4  5  2  0  0  0  0
  4  6  1  0  0  0  0
  5  7  1  0  0  0  0
  6  8  2  0  0  0  0
  7 12  2  0  0  0  0
  8 12  1  0  0  0  0
  9 11  1  0  0  0  0
  9 12  1  0  0  0  0
 10 11  1  0  0  0  0
  2 13  1  0  0  0  0
  4 14  1  0  0  0  0
  5 15  1  0  0  0  0
  6 16  1  0  0  0  0
  7 17  1  0  0  0  0
  8 18  1  0  0  0  0
  9 19  1  0  0  0  0
  9 20  1  0  0  0  0
 11 21  1  0  0  0  0
M  END
> <pdb_id>
4H81

> <uniprot_id>
Q00972

> <usmiles>
Cl[C@@H](C(=O)O)Cc1ccccc1

$$$$
WMM_B_306
          07202412413D 1   1.00000     0.00000     0
            
 30 32  0  0  0  0            999 V2000
   18.1615    1.7735   59.4622 S   0  0  0  0  0  0  0  0  0  0  0  0
   22.3125    0.8766   62.0569 S   0  0  0  0  0  0  0  0  0  0  0  0
   19.1613    5.2326   60.8276 N   0  0  0  0  0  0  0  0  0  0  0  0
   19.1212    4.2762   59.8532 N   0  0  0  0  0  0  0  0  0  0  0  0
   18.0882    3.4847   61.6215 N   0  0  0  0  0  0  0  0  0  0  0  0
   20.9539    0.2535   60.0192 N   0  0  0  0  0  0  0  0  0  0  0  0
   23.2401   -0.0642   59.6601 N   0  0  0  0  0  0  0  0  0  0  0  0
   18.5419    4.7431   61.8800 C   0  0  0  0  0  0  0  0  0  0  0  0
   18.6209    0.6163   60.7365 C   0  0  0  0  0  0  0  0  0  0  0  0
   20.6156    1.0227   62.1820 C   0  0  0  0  0  0  0  0  0  0  0  0
   27.2524   -0.7472   60.5076 C   0  0  0  0  0  0  0  0  0  0  0  0
   26.6865   -1.1901   59.3333 C   0  0  0  0  0  0  0  0  0  0  0  0
   26.4871   -0.0497   61.4183 C   0  0  0  0  0  0  0  0  0  0  0  0
   25.3580   -0.9319   59.1046 C   0  0  0  0  0  0  0  0  0  0  0  0
   25.1552    0.2137   61.1747 C   0  0  0  0  0  0  0  0  0  0  0  0
   18.4786    3.2438   60.3359 C   0  0  0  0  0  0  0  0  0  0  0  0
   22.1983    0.2966   60.4380 C   0  0  0  0  0  0  0  0  0  0  0  0
   20.0599    0.6400   60.9891 C   0  0  0  0  0  0  0  0  0  0  0  0
   24.5823   -0.2243   59.9975 C   0  0  0  0  0  0  0  0  0  0  0  0
   19.5830    6.1364   60.7545 H   0  0  0  0  0  0  0  0  0  0  0  0
   23.0162   -0.2427   58.7020 H   0  0  0  0  0  0  0  0  0  0  0  0
   18.4212    5.2264   62.7471 H   0  0  0  0  0  0  0  0  0  0  0  0
   18.3566   -0.3045   60.4497 H   0  0  0  0  0  0  0  0  0  0  0  0
   18.1391    0.8538   61.5800 H   0  0  0  0  0  0  0  0  0  0  0  0
   20.1130    1.3343   62.9884 H   0  0  0  0  0  0  0  0  0  0  0  0
   28.2164   -0.9309   60.6998 H   0  0  0  0  0  0  0  0  0  0  0  0
   27.2323   -1.6898   58.6606 H   0  0  0  0  0  0  0  0  0  0  0  0
   26.9044    0.2703   62.2689 H   0  0  0  0  0  0  0  0  0  0  0  0
   24.9386   -1.2686   58.2615 H   0  0  0  0  0  0  0  0  0  0  0  0
   24.6097    0.7172   61.8446 H   0  0  0  0  0  0  0  0  0  0  0  0
  1  9  1  0  0  0  0
  1 16  1  0  0  0  0
  2 10  1  0  0  0  0
  2 17  1  0  0  0  0
  3  4  1  0  0  0  0
  3  8  1  0  0  0  0
  4 16  2  0  0  0  0
  5  8  2  0  0  0  0
  5 16  1  0  0  0  0
  6 17  2  0  0  0  0
  6 18  1  0  0  0  0
  7 17  1  0  0  0  0
  7 19  1  0  0  0  0
  9 18  1  0  0  0  0
 10 18  2  0  0  0  0
 11 12  2  0  0  0  0
 11 13  1  0  0  0  0
 12 14  1  0  0  0  0
 13 15  2  0  0  0  0
 14 19  2  0  0  0  0
 15 19  1  0  0  0  0
  3 20  1  0  0  0  0
  7 21  1  0  0  0  0
  8 22  1  0  0  0  0
  9 23  1  0  0  0  0
  9 24  1  0  0  0  0
 10 25  1  0  0  0  0
 11 26  1  0  0  0  0
 12 27  1  0  0  0  0
 13 28  1  0  0  0  0
 14 29  1  0  0  0  0
 15 30  1  0  0  0  0
M  END
> <pdb_id>
5B5O

> <uniprot_id>
P45452

> <usmiles>
S1C(=NC(=C1)CSC2=NNC=N2)Nc3ccccc3

$$$$
WNN_B_306
          07202412413D 1   1.00000     0.00000     0
            
 48 51  0  0  0  0            999 V2000
   18.7544    1.5769   59.8255 S   0  0  0  0  0  0  0  0  0  0  0  0
   26.5929   -3.0665   60.1533 O   0  0  0  0  0  0  0  0  0  0  0  0
   31.1452   -4.2009   60.9446 O   0  0  0  0  0  0  0  0  0  0  0  0
   21.5595    0.0319   60.9026 O   0  0  0  0  0  0  0  0  0  0  0  0
   19.3672    5.2602   60.3517 N   0  0  0  0  0  0  0  0  0  0  0  0
   19.5911    4.1558   59.6270 N   0  0  0  0  0  0  0  0  0  0  0  0
   18.2172    3.7404   61.4190 N   0  0  0  0  0  0  0  0  0  0  0  0
   26.6021   -1.7547   58.2377 N   0  0  0  0  0  0  0  0  0  0  0  0
   29.2267   -3.3880   60.0109 N   0  0  0  0  0  0  0  0  0  0  0  0
   29.2073   -2.2160   57.9531 N   0  0  0  0  0  0  0  0  0  0  0  0
   19.4774    0.8548   61.3128 C   0  0  0  0  0  0  0  0  0  0  0  0
   18.5526    5.0089   61.4125 C   0  0  0  0  0  0  0  0  0  0  0  0
   20.9482    1.2152   61.3559 C   0  0  0  0  0  0  0  0  0  0  0  0
   25.2167   -1.3696   58.2657 C   0  0  0  0  0  0  0  0  0  0  0  0
   32.6593   -2.0980   56.7195 C   0  0  0  0  0  0  0  0  0  0  0  0
   33.3390   -2.7659   57.7185 C   0  0  0  0  0  0  0  0  0  0  0  0
   25.1330    0.7890   61.3961 C   0  0  0  0  0  0  0  0  0  0  0  0
   23.7741    0.8081   61.6538 C   0  0  0  0  0  0  0  0  0  0  0  0
   31.2955   -1.9245   56.8106 C   0  0  0  0  0  0  0  0  0  0  0  0
   25.6346    0.0991   60.3046 C   0  0  0  0  0  0  0  0  0  0  0  0
   32.6558   -3.2603   58.8085 C   0  0  0  0  0  0  0  0  0  0  0  0
   23.4386   -0.5625   59.7173 C   0  0  0  0  0  0  0  0  0  0  0  0
   18.8635    3.2629   60.3137 C   0  0  0  0  0  0  0  0  0  0  0  0
   27.1437   -2.5574   59.1891 C   0  0  0  0  0  0  0  0  0  0  0  0
   30.5671   -3.6137   60.0435 C   0  0  0  0  0  0  0  0  0  0  0  0
   22.9359    0.1286   60.7908 C   0  0  0  0  0  0  0  0  0  0  0  0
   28.6170   -2.7119   58.9967 C   0  0  0  0  0  0  0  0  0  0  0  0
   30.5923   -2.4138   57.8957 C   0  0  0  0  0  0  0  0  0  0  0  0
   24.7854   -0.5926   59.4626 C   0  0  0  0  0  0  0  0  0  0  0  0
   31.2899   -3.0806   58.8826 C   0  0  0  0  0  0  0  0  0  0  0  0
   19.7514    6.1587   60.1393 H   0  0  0  0  0  0  0  0  0  0  0  0
   27.1835   -1.4214   57.4955 H   0  0  0  0  0  0  0  0  0  0  0  0
   28.6645   -3.7327   60.7627 H   0  0  0  0  0  0  0  0  0  0  0  0
   19.3743   -0.1396   61.2894 H   0  0  0  0  0  0  0  0  0  0  0  0
   19.0171    1.2186   62.1225 H   0  0  0  0  0  0  0  0  0  0  0  0
   18.2551    5.6873   62.0843 H   0  0  0  0  0  0  0  0  0  0  0  0
   21.1509    1.9833   60.7485 H   0  0  0  0  0  0  0  0  0  0  0  0
   21.2390    1.4399   62.2859 H   0  0  0  0  0  0  0  0  0  0  0  0
   24.6654   -2.2029   58.2254 H   0  0  0  0  0  0  0  0  0  0  0  0
   25.0366   -0.8114   57.4558 H   0  0  0  0  0  0  0  0  0  0  0  0
   33.1571   -1.7400   55.9295 H   0  0  0  0  0  0  0  0  0  0  0  0
   34.3288   -2.8912   57.6510 H   0  0  0  0  0  0  0  0  0  0  0  0
   25.7591    1.2779   62.0035 H   0  0  0  0  0  0  0  0  0  0  0  0
   23.4082    1.3005   62.4435 H   0  0  0  0  0  0  0  0  0  0  0  0
   30.8090   -1.4393   56.0840 H   0  0  0  0  0  0  0  0  0  0  0  0
   26.6183    0.1018   60.1249 H   0  0  0  0  0  0  0  0  0  0  0  0
   33.1436   -3.7428   59.5360 H   0  0  0  0  0  0  0  0  0  0  0  0
   22.8123   -1.0522   59.1107 H   0  0  0  0  0  0  0  0  0  0  0  0
  1 11  1  0  0  0  0
  1 23  1  0  0  0  0
  2 24  2  0  0  0  0
  3 25  2  0  0  0  0
  4 13  1  0  0  0  0
  4 26  1  0  0  0  0
  5  6  1  0  0  0  0
  5 12  1  0  0  0  0
  6 23  2  0  0  0  0
  7 12  2  0  0  0  0
  7 23  1  0  0  0  0
  8 14  1  0  0  0  0
  8 24  1  0  0  0  0
  9 25  1  0  0  0  0
  9 27  1  0  0  0  0
 10 27  2  0  0  0  0
 10 28  1  0  0  0  0
 11 13  1  0  0  0  0
 14 29  1  0  0  0  0
 15 16  2  0  0  0  0
 15 19  1  0  0  0  0
 16 21  1  0  0  0  0
 17 18  2  0  0  0  0
 17 20  1  0  0  0  0
 18 26  1  0  0  0  0
 19 28  2  0  0  0  0
 20 29  2  0  0  0  0
 21 30  2  0  0  0  0
 22 26  2  0  0  0  0
 22 29  1  0  0  0  0
 24 27  1  0  0  0  0
 25 30  1  0  0  0  0
 28 30  1  0  0  0  0
  5 31  1  0  0  0  0
  8 32  1  0  0  0  0
  9 33  1  0  0  0  0
 11 34  1  0  0  0  0
 11 35  1  0  0  0  0
 12 36  1  0  0  0  0
 13 37  1  0  0  0  0
 13 38  1  0  0  0  0
 14 39  1  0  0  0  0
 14 40  1  0  0  0  0
 15 41  1  0  0  0  0
 16 42  1  0  0  0  0
 17 43  1  0  0  0  0
 18 44  1  0  0  0  0
 19 45  1  0  0  0  0
 20 46  1  0  0  0  0
 21 47  1  0  0  0  0
 22 48  1  0  0  0  0
M  END
> <pdb_id>
5B5P

> <uniprot_id>
P45452

> <usmiles>
S(C1=NNC=N1)CCOc2cc(ccc2)CNC(=O)C3=Nc4c(cccc4)C(=O)N3

$$$$
WOE_A_501
          07192420423D 1   1.00000     0.00000     0
            
 26 27  0  0  0  0            999 V2000
   66.1028   35.7243   21.0702 Cl  0  0  0  0  0  0  0  0  0  0  0  0
   69.6905   36.9648   24.3404 O   0  0  0  0  0  0  0  0  0  0  0  0
   64.9375   33.4791   25.2951 N   0  0  0  0  0  0  0  0  0  0  0  0
   65.5658   34.5317   23.3599 N   0  0  0  0  0  0  0  0  0  0  0  0
   67.1404   34.0638   25.0506 N   0  0  0  0  0  0  0  0  0  0  0  0
   70.6490   38.0021   24.1855 C   0  0  0  0  0  0  0  0  0  0  0  0
   72.0869   34.6706   25.9289 C   0  0  0  0  0  0  0  0  0  0  0  0
   71.3481   33.4927   25.9225 C   0  0  0  0  0  0  0  0  0  0  0  0
   71.5351   35.8326   25.3998 C   0  0  0  0  0  0  0  0  0  0  0  0
   70.0633   33.4901   25.3906 C   0  0  0  0  0  0  0  0  0  0  0  0
   67.8361   35.1520   23.0703 C   0  0  0  0  0  0  0  0  0  0  0  0
   66.5209   35.0848   22.6213 C   0  0  0  0  0  0  0  0  0  0  0  0
   65.9143   34.0437   24.5442 C   0  0  0  0  0  0  0  0  0  0  0  0
   70.2491   35.8190   24.8697 C   0  0  0  0  0  0  0  0  0  0  0  0
   68.1395   34.6242   24.3188 C   0  0  0  0  0  0  0  0  0  0  0  0
   69.5198   34.6576   24.8676 C   0  0  0  0  0  0  0  0  0  0  0  0
   65.1547   33.0986   26.1940 H   0  0  0  0  0  0  0  0  0  0  0  0
   63.9995   33.4430   24.9502 H   0  0  0  0  0  0  0  0  0  0  0  0
   70.2051   38.8114   23.8008 H   0  0  0  0  0  0  0  0  0  0  0  0
   71.0414   38.2292   25.0768 H   0  0  0  0  0  0  0  0  0  0  0  0
   71.3751   37.6958   23.5699 H   0  0  0  0  0  0  0  0  0  0  0  0
   73.0105   34.6823   26.3121 H   0  0  0  0  0  0  0  0  0  0  0  0
   71.7385   32.6522   26.2982 H   0  0  0  0  0  0  0  0  0  0  0  0
   72.0647   36.6808   25.4005 H   0  0  0  0  0  0  0  0  0  0  0  0
   69.5284   32.6452   25.3844 H   0  0  0  0  0  0  0  0  0  0  0  0
   68.5476   35.5712   22.5063 H   0  0  0  0  0  0  0  0  0  0  0  0
  1 12  1  0  0  0  0
  2  6  1  0  0  0  0
  2 14  1  0  0  0  0
  3 13  1  0  0  0  0
  4 12  1  0  0  0  0
  4 13  2  0  0  0  0
  5 13  1  0  0  0  0
  5 15  2  0  0  0  0
  7  8  2  0  0  0  0
  7  9  1  0  0  0  0
  8 10  1  0  0  0  0
  9 14  2  0  0  0  0
 10 16  2  0  0  0  0
 11 12  2  0  0  0  0
 11 15  1  0  0  0  0
 14 16  1  0  0  0  0
 15 16  1  0  0  0  0
  3 17  1  0  0  0  0
  3 18  1  0  0  0  0
  6 19  1  0  0  0  0
  6 20  1  0  0  0  0
  6 21  1  0  0  0  0
  7 22  1  0  0  0  0
  8 23  1  0  0  0  0
  9 24  1  0  0  0  0
 10 25  1  0  0  0  0
 11 26  1  0  0  0  0
M  END
> <pdb_id>
3R4M

> <uniprot_id>
P07900

> <usmiles>
Clc1nc(nc(c2c(OC)cccc2)c1)N

$$$$
WST_A_201
          07192417253D 1   1.00000     0.00000     0
            
 39 42  0  0  0  0            999 V2000
   24.0349   22.0719   67.4797 O   0  0  0  0  0  0  0  0  0  0  0  0
   27.9496   31.8417   70.0915 O   0  0  0  0  0  0  0  0  0  0  0  0
   25.1518   27.8246   69.9264 O   0  0  0  0  0  0  0  0  0  0  0  0
   25.1156   30.7188   72.1579 C   0  0  0  0  0  0  0  0  0  0  0  0
   27.1694   29.0768   66.2920 C   0  0  0  0  0  0  0  0  0  0  0  0
   26.1940   31.4951   71.6374 C   0  0  0  0  0  0  0  0  0  0  0  0
   23.7255   24.2717   68.3013 C   0  0  0  0  0  0  0  0  0  0  0  0
   25.9527   23.3673   68.0193 C   0  0  0  0  0  0  0  0  0  0  0  0
   24.7887   29.4849   71.5603 C   0  0  0  0  0  0  0  0  0  0  0  0
   26.4534   27.8923   66.9060 C   0  0  0  0  0  0  0  0  0  0  0  0
   27.1834   30.0854   67.4212 C   0  0  0  0  0  0  0  0  0  0  0  0
   24.2698   25.4887   68.7728 C   0  0  0  0  0  0  0  0  0  0  0  0
   26.5273   24.5862   68.4904 C   0  0  0  0  0  0  0  0  0  0  0  0
   24.5365   23.1581   67.9040 C   0  0  0  0  0  0  0  0  0  0  0  0
   26.9937   31.0945   70.5104 C   0  0  0  0  0  0  0  0  0  0  0  0
   25.5384   29.0365   70.4521 C   0  0  0  0  0  0  0  0  0  0  0  0
   26.2306   27.0105   69.3864 C   0  0  1  0  0  0  0  0  0  0  0  0
   25.6845   25.6713   68.8768 C   0  0  0  0  0  0  0  0  0  0  0  0
   27.0736   27.7866   68.3111 C   0  0  2  0  0  0  0  0  0  0  0  0
   27.4051   29.2567   68.7085 C   0  0  2  0  0  0  0  0  0  0  0  0
   26.6346   29.8144   69.9182 C   0  0  0  0  0  0  0  0  0  0  0  0
   24.6326   21.3163   67.2115 H   0  0  0  0  0  0  0  0  0  0  0  0
   28.5008   31.5560   69.3075 H   0  0  0  0  0  0  0  0  0  0  0  0
   24.5935   31.0493   72.9441 H   0  0  0  0  0  0  0  0  0  0  0  0
   26.6692   29.4291   65.5010 H   0  0  0  0  0  0  0  0  0  0  0  0
   28.0990   28.8321   66.0165 H   0  0  0  0  0  0  0  0  0  0  0  0
   26.4057   32.3662   72.0806 H   0  0  0  0  0  0  0  0  0  0  0  0
   22.7311   24.1839   68.2424 H   0  0  0  0  0  0  0  0  0  0  0  0
   26.5663   22.6227   67.7567 H   0  0  0  0  0  0  0  0  0  0  0  0
   24.0345   28.9338   71.9174 H   0  0  0  0  0  0  0  0  0  0  0  0
   26.6212   27.0600   66.3777 H   0  0  0  0  0  0  0  0  0  0  0  0
   25.4690   28.0591   66.9615 H   0  0  0  0  0  0  0  0  0  0  0  0
   26.3118   30.5737   67.4651 H   0  0  0  0  0  0  0  0  0  0  0  0
   27.9272   30.7418   67.2950 H   0  0  0  0  0  0  0  0  0  0  0  0
   23.6564   26.2328   69.0375 H   0  0  0  0  0  0  0  0  0  0  0  0
   27.5211   24.6799   68.5498 H   0  0  0  0  0  0  0  0  0  0  0  0
   26.8473   26.8034   70.1459 H   0  0  0  0  0  0  0  0  0  0  0  0
   27.9440   27.3039   68.2138 H   0  0  0  0  0  0  0  0  0  0  0  0
   28.3799   29.2966   68.9281 H   0  0  0  0  0  0  0  0  0  0  0  0
  1 14  1  0  0  0  0
  2 15  1  0  0  0  0
  3 16  1  0  0  0  0
  3 17  1  0  0  0  0
  4  6  1  0  0  0  0
  4  9  2  0  0  0  0
  5 10  1  0  0  0  0
  5 11  1  0  0  0  0
  6 15  2  0  0  0  0
  7 12  1  0  0  0  0
  7 14  2  0  0  0  0
  8 13  2  0  0  0  0
  8 14  1  0  0  0  0
  9 16  1  0  0  0  0
 10 19  1  0  0  0  0
 11 20  1  0  0  0  0
 12 18  2  0  0  0  0
 13 18  1  0  0  0  0
 15 21  1  0  0  0  0
 16 21  2  0  0  0  0
 17 18  1  0  0  0  0
 17 19  1  0  0  0  0
 19 20  1  0  0  0  0
 20 21  1  0  0  0  0
  1 22  1  0  0  0  0
  2 23  1  0  0  0  0
  4 24  1  0  0  0  0
  5 25  1  0  0  0  0
  5 26  1  0  0  0  0
  6 27  1  0  0  0  0
  7 28  1  0  0  0  0
  8 29  1  0  0  0  0
  9 30  1  0  0  0  0
 10 31  1  0  0  0  0
 10 32  1  0  0  0  0
 11 33  1  0  0  0  0
 11 34  1  0  0  0  0
 12 35  1  0  0  0  0
 13 36  1  0  0  0  0
 17 37  1  0  0  0  0
 19 38  1  0  0  0  0
 20 39  1  0  0  0  0
M  END
> <pdb_id>
2POG

> <uniprot_id>
P03372

> <usmiles>
O1c2c(c(O)ccc2)[C@H]3[C@@H]([C@@H]1c4ccc(O)cc4)CCC3

$$$$
WTP_B_401
          07212404153D 1   1.00000     0.00000     0
            
 55 58  0  0  0  0            999 V2000
   14.2490   48.5000   -8.8710 Cl  0  0  0  0  0  0  0  0  0  0  0  0
    9.3060   49.1220  -13.1120 O   0  0  0  0  0  0  0  0  0  0  0  0
   14.4520   52.3470   -9.9370 N   0  0  0  0  0  0  0  0  0  0  0  0
   12.4660   51.5110  -10.7860 N   0  0  0  0  0  0  0  0  0  0  0  0
   11.8880   49.2750  -10.4460 N   0  0  0  0  0  0  0  0  0  0  0  0
   13.1240   53.7770  -11.1180 N   0  0  0  0  0  0  0  0  0  0  0  0
    6.3170   56.9310  -14.6910 N   0  0  0  0  0  0  0  0  0  0  0  0
    8.4800   56.0730  -13.0240 N   0  0  0  0  0  0  0  0  0  0  0  0
    5.0640   57.6570  -14.8510 C   0  0  0  0  0  0  0  0  0  0  0  0
   14.7660   51.1040   -9.3800 C   0  0  0  0  0  0  0  0  0  0  0  0
   10.9390   53.4590  -12.1750 C   0  0  0  0  0  0  0  0  0  0  0  0
   11.7730   55.6080  -11.5570 C   0  0  0  0  0  0  0  0  0  0  0  0
    9.7720   54.0520  -12.6590 C   0  0  0  0  0  0  0  0  0  0  0  0
   10.6140   56.2000  -12.0370 C   0  0  0  0  0  0  0  0  0  0  0  0
    9.1390   47.7650  -13.6040 C   0  0  0  0  0  0  0  0  0  0  0  0
   10.5260   49.4410  -10.9870 C   0  0  0  0  0  0  0  0  0  0  0  0
    6.1240   55.9250  -13.6440 C   0  0  0  0  0  0  0  0  0  0  0  0
    7.3740   57.8580  -14.3110 C   0  0  0  0  0  0  0  0  0  0  0  0
    7.3950   55.1550  -13.4110 C   0  0  0  0  0  0  0  0  0  0  0  0
    8.6690   57.0540  -14.1040 C   0  0  0  0  0  0  0  0  0  0  0  0
   10.5580   47.5000  -14.0570 C   0  0  0  0  0  0  0  0  0  0  0  0
   11.1350   47.7430  -12.7120 C   0  0  0  0  0  0  0  0  0  0  0  0
   13.3150   52.5380  -10.6250 C   0  0  0  0  0  0  0  0  0  0  0  0
   12.7220   50.2960  -10.2800 C   0  0  0  0  0  0  0  0  0  0  0  0
   13.8840   50.0510   -9.5540 C   0  0  0  0  0  0  0  0  0  0  0  0
   11.9530   54.2320  -11.6060 C   0  0  0  0  0  0  0  0  0  0  0  0
    9.6020   55.4390  -12.6090 C   0  0  0  0  0  0  0  0  0  0  0  0
   10.6110   49.1450  -12.4700 C   0  0  1  0  0  0  0  0  0  0  0  0
   12.1340   48.3340  -10.2110 H   0  0  0  0  0  0  0  0  0  0  0  0
   13.8920   54.4160  -11.0800 H   0  0  0  0  0  0  0  0  0  0  0  0
    4.6230   58.0210  -13.9650 H   0  0  0  0  0  0  0  0  0  0  0  0
    5.0000   58.2920  -15.6910 H   0  0  0  0  0  0  0  0  0  0  0  0
    4.3780   56.8550  -15.1270 H   0  0  0  0  0  0  0  0  0  0  0  0
   15.6890   50.9670   -8.8170 H   0  0  0  0  0  0  0  0  0  0  0  0
   11.0560   52.3770  -12.2350 H   0  0  0  0  0  0  0  0  0  0  0  0
   12.5540   56.2340  -11.1240 H   0  0  0  0  0  0  0  0  0  0  0  0
    8.9880   53.4280  -13.0880 H   0  0  0  0  0  0  0  0  0  0  0  0
   10.4980   57.2820  -11.9720 H   0  0  0  0  0  0  0  0  0  0  0  0
    8.8470   47.2760  -12.7130 H   0  0  0  0  0  0  0  0  0  0  0  0
    8.3740   47.8920  -14.3230 H   0  0  0  0  0  0  0  0  0  0  0  0
   10.2960   50.4340  -10.7700 H   0  0  0  0  0  0  0  0  0  0  0  0
    9.9670   48.7480  -10.4480 H   0  0  0  0  0  0  0  0  0  0  0  0
    5.8430   56.4350  -12.7220 H   0  0  0  0  0  0  0  0  0  0  0  0
    5.3290   55.2370  -13.9340 H   0  0  0  0  0  0  0  0  0  0  0  0
    7.2590   58.3130  -13.3760 H   0  0  0  0  0  0  0  0  0  0  0  0
    7.6600   58.5450  -15.0480 H   0  0  0  0  0  0  0  0  0  0  0  0
    7.2260   54.4380  -12.6080 H   0  0  0  0  0  0  0  0  0  0  0  0
    7.6800   54.6240  -14.3190 H   0  0  0  0  0  0  0  0  0  0  0  0
    9.4620   57.7430  -13.8110 H   0  0  0  0  0  0  0  0  0  0  0  0
    8.9520   56.5470  -15.0260 H   0  0  0  0  0  0  0  0  0  0  0  0
   10.7360   48.2300  -14.7990 H   0  0  0  0  0  0  0  0  0  0  0  0
   10.5440   46.5060  -14.4120 H   0  0  0  0  0  0  0  0  0  0  0  0
   10.6410   47.0340  -12.0430 H   0  0  0  0  0  0  0  0  0  0  0  0
   12.2210   47.6560  -12.6220 H   0  0  0  0  0  0  0  0  0  0  0  0
   11.2120   49.8740  -13.0140 H   0  0  0  0  0  0  0  0  0  0  0  0
  1 25  1  0  0  0  0
  2 15  1  0  0  0  0
  2 28  1  0  0  0  0
  3 10  2  0  0  0  0
  3 23  1  0  0  0  0
  4 23  2  0  0  0  0
  4 24  1  0  0  0  0
  5 16  1  0  0  0  0
  5 24  1  0  0  0  0
  5 29  1  0  0  0  0
  6 23  1  0  0  0  0
  6 26  1  0  0  0  0
  6 30  1  0  0  0  0
  7  9  1  0  0  0  0
  7 17  1  0  0  0  0
  7 18  1  0  0  0  0
  8 19  1  0  0  0  0
  8 20  1  0  0  0  0
  8 27  1  0  0  0  0
  9 31  1  0  0  0  0
  9 32  1  0  0  0  0
  9 33  1  0  0  0  0
 10 25  1  0  0  0  0
 10 34  1  0  0  0  0
 11 13  1  0  0  0  0
 11 26  2  0  0  0  0
 11 35  1  0  0  0  0
 12 14  2  0  0  0  0
 12 26  1  0  0  0  0
 12 36  1  0  0  0  0
 13 27  2  0  0  0  0
 13 37  1  0  0  0  0
 14 27  1  0  0  0  0
 14 38  1  0  0  0  0
 15 21  1  0  0  0  0
 15 39  1  0  0  0  0
 15 40  1  0  0  0  0
 16 28  1  0  0  0  0
 16 41  1  0  0  0  0
 16 42  1  0  0  0  0
 17 19  1  0  0  0  0
 17 43  1  0  0  0  0
 17 44  1  0  0  0  0
 18 20  1  0  0  0  0
 18 45  1  0  0  0  0
 18 46  1  0  0  0  0
 19 47  1  0  0  0  0
 19 48  1  0  0  0  0
 20 49  1  0  0  0  0
 20 50  1  0  0  0  0
 21 22  1  0  0  0  0
 21 51  1  0  0  0  0
 21 52  1  0  0  0  0
 22 28  1  0  0  0  0
 22 53  1  0  0  0  0
 22 54  1  0  0  0  0
 24 25  2  0  0  0  0
 28 55  1  0  0  0  0
M  END
> <pdb_id>
7KP6

> <uniprot_id>
Q07912

> <usmiles>
Clc1c(nc(nc1)Nc2ccc(N3CCN(CC3)C)cc2)NC[C@@H]4OCCC4

$$$$
WUL_A_1334
          07192422213D 1   1.00000     0.00000     0
            
 36 39  0  0  0  0            999 V2000
   20.3350   10.4990   20.9780 Br  0  0  0  0  0  0  0  0  0  0  0  0
   25.1430    7.8340   14.2830 O   0  0  0  0  0  0  0  0  0  0  0  0
   23.7550    1.0880   17.1040 O   0  0  0  0  0  0  0  0  0  0  0  0
   23.4500    9.4480   15.9870 O   0  0  0  0  0  0  0  0  0  0  0  0
   25.4760    6.4350   16.0690 N   0  0  0  0  0  0  0  0  0  0  0  0
   24.3600    6.9000   18.0990 N   0  0  0  0  0  0  0  0  0  0  0  0
   25.4080    3.6900   17.3710 N   0  0  0  0  0  0  0  0  0  0  0  0
   26.1770    2.5200   17.6740 C   0  0  0  0  0  0  0  0  0  0  0  0
   23.9520    3.4820   17.4500 C   0  0  0  0  0  0  0  0  0  0  0  0
   25.8770    5.0060   17.9320 C   0  0  0  0  0  0  0  0  0  0  0  0
   25.2050    2.0350   18.7930 C   0  0  0  0  0  0  0  0  0  0  0  0
   21.1560   11.1410   18.3700 C   0  0  0  0  0  0  0  0  0  0  0  0
   21.8680   10.9090   17.1740 C   0  0  0  0  0  0  0  0  0  0  0  0
   22.2490    9.1280   19.3100 C   0  0  0  0  0  0  0  0  0  0  0  0
   21.3610   10.2100   19.3180 C   0  0  0  0  0  0  0  0  0  0  0  0
   24.9570    7.5630   15.5010 C   0  0  0  0  0  0  0  0  0  0  0  0
   23.8270    2.1590   18.1400 C   0  0  2  0  0  0  0  0  0  0  0  0
   25.2120    6.1570   17.3720 C   0  0  0  0  0  0  0  0  0  0  0  0
   22.6920    9.8500   17.0780 C   0  0  0  0  0  0  0  0  0  0  0  0
   24.1020    8.3590   16.2650 C   0  0  0  0  0  0  0  0  0  0  0  0
   23.8170    8.0200   17.5800 C   0  0  0  0  0  0  0  0  0  0  0  0
   22.9430    8.9530   18.0930 C   0  0  0  0  0  0  0  0  0  0  0  0
   23.6712    0.1972   17.5507 H   0  0  0  0  0  0  0  0  0  0  0  0
   26.0472    5.8171   15.5287 H   0  0  0  0  0  0  0  0  0  0  0  0
   27.0943    2.7290   18.0130 H   0  0  0  0  0  0  0  0  0  0  0  0
   26.2425    1.8825   16.9063 H   0  0  0  0  0  0  0  0  0  0  0  0
   23.5452    3.4492   16.5371 H   0  0  0  0  0  0  0  0  0  0  0  0
   23.5155    4.2064   17.9836 H   0  0  0  0  0  0  0  0  0  0  0  0
   26.8571    5.0920   17.7531 H   0  0  0  0  0  0  0  0  0  0  0  0
   25.7176    5.0010   18.9192 H   0  0  0  0  0  0  0  0  0  0  0  0
   25.2715    2.6180   19.6027 H   0  0  0  0  0  0  0  0  0  0  0  0
   25.3966    1.0872   19.0480 H   0  0  0  0  0  0  0  0  0  0  0  0
   20.5527   11.9277   18.5008 H   0  0  0  0  0  0  0  0  0  0  0  0
   21.7602   11.5312   16.3986 H   0  0  0  0  0  0  0  0  0  0  0  0
   22.3808    8.5292   20.1000 H   0  0  0  0  0  0  0  0  0  0  0  0
   23.0737    2.1252   18.7968 H   0  0  0  0  0  0  0  0  0  0  0  0
  1 15  1  0  0  0  0
  2 16  2  0  0  0  0
  3 17  1  0  0  0  0
  4 19  1  0  0  0  0
  4 20  1  0  0  0  0
  5 16  1  0  0  0  0
  5 18  1  0  0  0  0
  6 18  2  0  0  0  0
  6 21  1  0  0  0  0
  7  8  1  0  0  0  0
  7  9  1  0  0  0  0
  7 10  1  0  0  0  0
  8 11  1  0  0  0  0
  9 17  1  0  0  0  0
 10 18  1  0  0  0  0
 11 17  1  0  0  0  0
 12 13  1  0  0  0  0
 12 15  2  0  0  0  0
 13 19  2  0  0  0  0
 14 15  1  0  0  0  0
 14 22  2  0  0  0  0
 16 20  1  0  0  0  0
 19 22  1  0  0  0  0
 20 21  2  0  0  0  0
 21 22  1  0  0  0  0
  3 23  1  0  0  0  0
  5 24  1  0  0  0  0
  8 25  1  0  0  0  0
  8 26  1  0  0  0  0
  9 27  1  0  0  0  0
  9 28  1  0  0  0  0
 10 29  1  0  0  0  0
 10 30  1  0  0  0  0
 11 31  1  0  0  0  0
 11 32  1  0  0  0  0
 12 33  1  0  0  0  0
 13 34  1  0  0  0  0
 14 35  1  0  0  0  0
 17 36  1  0  0  0  0
M  END
> <pdb_id>
4ANM

> <uniprot_id>
P28523

> <usmiles>
Brc1cc2c(OC=3C(=O)NC(=NC23)CN4C[C@@H](O)CC4)cc1

$$$$
WV7_A_1
          07202400333D 1   1.00000     0.00000     0
            
 27 28  0  0  0  0            999 V2000
   78.5188   40.7394   66.9257 F   0  0  0  0  0  0  0  0  0  0  0  0
   77.3812   38.8707   66.5064 F   0  0  0  0  0  0  0  0  0  0  0  0
   76.3111   40.6481   66.4233 F   0  0  0  0  0  0  0  0  0  0  0  0
   73.6674   35.4141   73.4546 O   0  0  0  0  0  0  0  0  0  0  0  0
   77.8634   40.8704   69.1222 O   0  0  0  0  0  0  0  0  0  0  0  0
   76.1173   39.4218   69.1051 N   0  0  0  0  0  0  0  0  0  0  0  0
   75.1599   38.5360   68.3497 C   0  0  0  0  0  0  0  0  0  0  0  0
   76.0110   39.6039   70.5778 C   0  0  0  0  0  0  0  0  0  0  0  0
   74.9762   37.1728   69.0924 C   0  0  0  0  0  0  0  0  0  0  0  0
   74.7266   37.5214   73.3698 C   0  0  0  0  0  0  0  0  0  0  0  0
   75.3245   38.5350   72.6765 C   0  0  0  0  0  0  0  0  0  0  0  0
   74.3023   36.2946   71.3154 C   0  0  0  0  0  0  0  0  0  0  0  0
   74.2614   36.3852   72.7084 C   0  0  0  0  0  0  0  0  0  0  0  0
   77.1055   40.1240   68.4993 C   0  0  0  0  0  0  0  0  0  0  0  0
   75.3771   38.4223   71.2801 C   0  0  0  0  0  0  0  0  0  0  0  0
   74.8895   37.3237   70.6084 C   0  0  0  0  0  0  0  0  0  0  0  0
   77.3486   40.0794   67.0176 C   0  0  0  0  0  0  0  0  0  0  0  0
   73.3221   34.5856   73.0137 H   0  0  0  0  0  0  0  0  0  0  0  0
   75.5220   38.3656   67.4332 H   0  0  0  0  0  0  0  0  0  0  0  0
   74.2739   38.9941   68.2782 H   0  0  0  0  0  0  0  0  0  0  0  0
   75.4563   40.4161   70.7585 H   0  0  0  0  0  0  0  0  0  0  0  0
   76.9299   39.7385   70.9486 H   0  0  0  0  0  0  0  0  0  0  0  0
   75.7553   36.5846   68.8753 H   0  0  0  0  0  0  0  0  0  0  0  0
   74.1337   36.7438   68.7666 H   0  0  0  0  0  0  0  0  0  0  0  0
   74.6213   37.5947   74.3615 H   0  0  0  0  0  0  0  0  0  0  0  0
   75.7105   39.3281   73.1476 H   0  0  0  0  0  0  0  0  0  0  0  0
   73.9154   35.5033   70.8419 H   0  0  0  0  0  0  0  0  0  0  0  0
  1 17  1  0  0  0  0
  2 17  1  0  0  0  0
  3 17  1  0  0  0  0
  4 13  1  0  0  0  0
  5 14  2  0  0  0  0
  6  7  1  0  0  0  0
  6  8  1  0  0  0  0
  6 14  1  0  0  0  0
  7  9  1  0  0  0  0
  8 15  1  0  0  0  0
  9 16  1  0  0  0  0
 10 11  1  0  0  0  0
 10 13  2  0  0  0  0
 11 15  2  0  0  0  0
 12 13  1  0  0  0  0
 12 16  2  0  0  0  0
 14 17  1  0  0  0  0
 15 16  1  0  0  0  0
  4 18  1  0  0  0  0
  7 19  1  0  0  0  0
  7 20  1  0  0  0  0
  8 21  1  0  0  0  0
  8 22  1  0  0  0  0
  9 23  1  0  0  0  0
  9 24  1  0  0  0  0
 10 25  1  0  0  0  0
 11 26  1  0  0  0  0
 12 27  1  0  0  0  0
M  END
> <pdb_id>
3OMO

> <uniprot_id>
Q92731

> <usmiles>
FC(F)(F)C(=O)N1Cc2c(cc(O)cc2)CC1

$$$$
WW3_A_304
          07192416293D 1   1.00000     0.00000     0
            
 37 38  0  0  0  0            999 V2000
   -5.9233    0.9726   16.9482 S   0  0  0  0  0  0  0  0  0  0  0  0
   -7.3505    1.0168   16.8262 O   0  0  0  0  0  0  0  0  0  0  0  0
   -5.3694    1.0618   18.2847 O   0  0  0  0  0  0  0  0  0  0  0  0
   -5.3477   -0.3383   16.2028 N   0  0  0  0  0  0  0  0  0  0  0  0
   -2.8331    6.0422   14.0063 N   0  0  0  0  0  0  0  0  0  0  0  0
   -4.0601    5.7685   13.9631 N   0  0  0  0  0  0  0  0  0  0  0  0
   -2.3279    7.1542   13.4520 N   0  0  0  0  0  0  0  0  0  0  0  0
   -1.2674    7.6007   14.3274 C   0  0  0  0  0  0  0  0  0  0  0  0
   -3.0644    7.8929   12.4827 C   0  0  0  0  0  0  0  0  0  0  0  0
   -0.2509    8.6711   14.0067 C   0  0  0  0  0  0  0  0  0  0  0  0
   -2.3061    9.1403   12.0794 C   0  0  0  0  0  0  0  0  0  0  0  0
   -1.0315    9.9304   14.3039 C   0  0  0  0  0  0  0  0  0  0  0  0
   -2.0657   10.1669   13.2057 C   0  0  0  0  0  0  0  0  0  0  0  0
   -6.2398    3.3986   15.6894 C   0  0  0  0  0  0  0  0  0  0  0  0
   -3.9737    2.5454   15.8258 C   0  0  0  0  0  0  0  0  0  0  0  0
   -5.7817    4.5030   14.9958 C   0  0  0  0  0  0  0  0  0  0  0  0
   -3.5315    3.6899   15.1198 C   0  0  0  0  0  0  0  0  0  0  0  0
   -5.3678    2.3963   16.1048 C   0  0  0  0  0  0  0  0  0  0  0  0
   -4.4536    4.6462   14.7133 C   0  0  0  0  0  0  0  0  0  0  0  0
   -4.3520   -0.3623   16.2922 H   0  0  0  0  0  0  0  0  0  0  0  0
   -5.7397   -1.1581   16.6202 H   0  0  0  0  0  0  0  0  0  0  0  0
   -0.7316    6.7814   14.5312 H   0  0  0  0  0  0  0  0  0  0  0  0
   -1.7265    7.9141   15.1586 H   0  0  0  0  0  0  0  0  0  0  0  0
   -3.9479    8.1556   12.8705 H   0  0  0  0  0  0  0  0  0  0  0  0
   -3.2114    7.3215   11.6752 H   0  0  0  0  0  0  0  0  0  0  0  0
    0.0288    8.6331   13.0474 H   0  0  0  0  0  0  0  0  0  0  0  0
    0.5560    8.5953   14.5924 H   0  0  0  0  0  0  0  0  0  0  0  0
   -2.8241    9.5944   11.3545 H   0  0  0  0  0  0  0  0  0  0  0  0
   -1.4147    8.8575   11.7253 H   0  0  0  0  0  0  0  0  0  0  0  0
   -0.4046   10.7085   14.3430 H   0  0  0  0  0  0  0  0  0  0  0  0
   -1.4972    9.8329   15.1834 H   0  0  0  0  0  0  0  0  0  0  0  0
   -2.9440   10.2866   13.6684 H   0  0  0  0  0  0  0  0  0  0  0  0
   -1.8068   11.0215   12.7557 H   0  0  0  0  0  0  0  0  0  0  0  0
   -7.2149    3.3182   15.8965 H   0  0  0  0  0  0  0  0  0  0  0  0
   -3.3198    1.8507   16.1252 H   0  0  0  0  0  0  0  0  0  0  0  0
   -6.4296    5.2042   14.6979 H   0  0  0  0  0  0  0  0  0  0  0  0
   -2.5601    3.8094   14.9147 H   0  0  0  0  0  0  0  0  0  0  0  0
  1  2  2  0  0  0  0
  1  3  2  0  0  0  0
  1  4  1  0  0  0  0
  1 18  1  0  0  0  0
  5  6  2  0  0  0  0
  5  7  1  0  0  0  0
  6 19  1  0  0  0  0
  7  8  1  0  0  0  0
  7  9  1  0  0  0  0
  8 10  1  0  0  0  0
  9 11  1  0  0  0  0
 10 12  1  0  0  0  0
 11 13  1  0  0  0  0
 12 13  1  0  0  0  0
 14 16  1  0  0  0  0
 14 18  2  0  0  0  0
 15 17  2  0  0  0  0
 15 18  1  0  0  0  0
 16 19  2  0  0  0  0
 17 19  1  0  0  0  0
  4 20  1  0  0  0  0
  4 21  1  0  0  0  0
  8 22  1  0  0  0  0
  8 23  1  0  0  0  0
  9 24  1  0  0  0  0
  9 25  1  0  0  0  0
 10 26  1  0  0  0  0
 10 27  1  0  0  0  0
 11 28  1  0  0  0  0
 11 29  1  0  0  0  0
 12 30  1  0  0  0  0
 12 31  1  0  0  0  0
 13 32  1  0  0  0  0
 13 33  1  0  0  0  0
 14 34  1  0  0  0  0
 15 35  1  0  0  0  0
 16 36  1  0  0  0  0
 17 37  1  0  0  0  0
M  END
> <pdb_id>
4Q6D

> <uniprot_id>
P00918

> <usmiles>
S(=O)(=O)(N)c1ccc(N=NN2CCCCCC2)cc1

$$$$
WWX_B_303
          07202417403D 1   1.00000     0.00000     0
            
 56 58  0  0  0  0            999 V2000
  -22.7100  -16.1940   21.8900 S   0  0  0  0  0  0  0  0  0  0  0  0
  -28.1950  -15.8380   18.7060 S   0  0  0  0  0  0  0  0  0  0  0  0
  -24.6960  -13.7210   21.4020 F   0  0  0  0  0  0  0  0  0  0  0  0
  -26.8010  -13.6600   20.0600 F   0  0  0  0  0  0  0  0  0  0  0  0
  -24.1550  -18.3970   20.7510 F   0  0  0  0  0  0  0  0  0  0  0  0
  -22.8250  -16.9090   23.2220 O   0  0  0  0  0  0  0  0  0  0  0  0
  -21.7610  -16.8050   20.8600 O   0  0  0  0  0  0  0  0  0  0  0  0
  -27.6030  -14.9650   17.5330 O   0  0  0  0  0  0  0  0  0  0  0  0
  -28.5940  -17.2140   18.0770 O   0  0  0  0  0  0  0  0  0  0  0  0
  -29.3370  -16.4110   21.2900 O   0  0  0  0  0  0  0  0  0  0  0  0
  -28.6890  -20.2360   19.0810 O   0  0  0  0  0  0  0  0  0  0  0  0
  -22.1670  -14.6280   22.2150 N   0  0  0  0  0  0  0  0  0  0  0  0
  -26.6810  -18.5200   19.2880 N   0  0  0  0  0  0  0  0  0  0  0  0
  -29.5780  -15.0900   19.4160 C   0  0  0  0  0  0  0  0  0  0  0  0
  -30.2090  -16.1440   20.2960 C   0  0  0  0  0  0  0  0  0  0  0  0
  -28.2590  -23.9520   22.3800 C   0  0  0  0  0  0  0  0  0  0  0  0
  -24.4560  -22.8130   17.8370 C   0  0  0  0  0  0  0  0  0  0  0  0
  -28.2400  -23.9070   20.9830 C   0  0  0  0  0  0  0  0  0  0  0  0
  -28.2180  -22.7820   23.0980 C   0  0  0  0  0  0  0  0  0  0  0  0
  -24.4790  -22.9060   19.1680 C   0  0  0  0  0  0  0  0  0  0  0  0
  -25.0720  -21.7170   17.2100 C   0  0  0  0  0  0  0  0  0  0  0  0
  -28.1530  -22.6740   20.2790 C   0  0  0  0  0  0  0  0  0  0  0  0
  -28.1750  -21.5360   22.4650 C   0  0  0  0  0  0  0  0  0  0  0  0
  -25.0900  -21.8860   19.9330 C   0  0  0  0  0  0  0  0  0  0  0  0
  -25.7640  -20.7100   17.9240 C   0  0  0  0  0  0  0  0  0  0  0  0
  -24.3220  -16.1030   21.1250 C   0  0  0  0  0  0  0  0  0  0  0  0
  -26.7750  -16.0590   19.6790 C   0  0  0  0  0  0  0  0  0  0  0  0
  -25.0260  -14.9260   20.8990 C   0  0  0  0  0  0  0  0  0  0  0  0
  -26.1620  -14.9060   20.2080 C   0  0  0  0  0  0  0  0  0  0  0  0
  -24.9690  -17.2580   20.5760 C   0  0  0  0  0  0  0  0  0  0  0  0
  -28.0480  -20.2030   20.3190 C   0  0  1  0  0  0  0  0  0  0  0  0
  -28.1560  -21.5000   21.0490 C   0  0  0  0  0  0  0  0  0  0  0  0
  -25.8370  -20.7940   19.3050 C   0  0  0  0  0  0  0  0  0  0  0  0
  -26.1170  -17.2960   19.8590 C   0  0  0  0  0  0  0  0  0  0  0  0
  -26.5900  -19.7520   20.0800 C   0  0  1  0  0  0  0  0  0  0  0  0
  -29.7236  -17.1076   21.8944 H   0  0  0  0  0  0  0  0  0  0  0  0
  -28.5901  -19.3486   18.6307 H   0  0  0  0  0  0  0  0  0  0  0  0
  -22.0778  -14.1214   21.3574 H   0  0  0  0  0  0  0  0  0  0  0  0
  -22.8239  -14.1641   22.8094 H   0  0  0  0  0  0  0  0  0  0  0  0
  -27.1145  -18.5168   18.3869 H   0  0  0  0  0  0  0  0  0  0  0  0
  -30.2196  -14.7991   18.7062 H   0  0  0  0  0  0  0  0  0  0  0  0
  -29.3040  -14.2985   19.9623 H   0  0  0  0  0  0  0  0  0  0  0  0
  -31.0681  -15.8022   20.6770 H   0  0  0  0  0  0  0  0  0  0  0  0
  -30.3862  -16.9723   19.7645 H   0  0  0  0  0  0  0  0  0  0  0  0
  -28.3022  -24.8314   22.8541 H   0  0  0  0  0  0  0  0  0  0  0  0
  -24.0039  -23.5178   17.2903 H   0  0  0  0  0  0  0  0  0  0  0  0
  -28.2887  -24.7618   20.4663 H   0  0  0  0  0  0  0  0  0  0  0  0
  -28.2189  -22.8221   24.0972 H   0  0  0  0  0  0  0  0  0  0  0  0
  -24.0654  -23.6947   19.6229 H   0  0  0  0  0  0  0  0  0  0  0  0
  -25.0191  -21.6452   16.2140 H   0  0  0  0  0  0  0  0  0  0  0  0
  -28.0925  -22.6447   19.2813 H   0  0  0  0  0  0  0  0  0  0  0  0
  -28.1581  -20.6907   22.9990 H   0  0  0  0  0  0  0  0  0  0  0  0
  -25.0100  -21.9109   20.9295 H   0  0  0  0  0  0  0  0  0  0  0  0
  -26.1941  -19.9487   17.4387 H   0  0  0  0  0  0  0  0  0  0  0  0
  -28.4958  -19.5027   20.8749 H   0  0  0  0  0  0  0  0  0  0  0  0
  -26.1350  -19.5715   20.9520 H   0  0  0  0  0  0  0  0  0  0  0  0
  1  6  2  0  0  0  0
  1  7  2  0  0  0  0
  1 12  1  0  0  0  0
  1 26  1  0  0  0  0
  2  8  2  0  0  0  0
  2  9  2  0  0  0  0
  2 14  1  0  0  0  0
  2 27  1  0  0  0  0
  3 28  1  0  0  0  0
  4 29  1  0  0  0  0
  5 30  1  0  0  0  0
 10 15  1  0  0  0  0
 11 31  1  0  0  0  0
 13 34  1  0  0  0  0
 13 35  1  0  0  0  0
 14 15  1  0  0  0  0
 16 18  2  0  0  0  0
 16 19  1  0  0  0  0
 17 20  2  0  0  0  0
 17 21  1  0  0  0  0
 18 22  1  0  0  0  0
 19 23  2  0  0  0  0
 20 24  1  0  0  0  0
 21 25  2  0  0  0  0
 22 32  2  0  0  0  0
 23 32  1  0  0  0  0
 24 33  2  0  0  0  0
 25 33  1  0  0  0  0
 26 28  1  0  0  0  0
 26 30  2  0  0  0  0
 27 29  1  0  0  0  0
 27 34  2  0  0  0  0
 28 29  2  0  0  0  0
 30 34  1  0  0  0  0
 31 32  1  0  0  0  0
 31 35  1  0  0  0  0
 33 35  1  0  0  0  0
 10 36  1  0  0  0  0
 11 37  1  0  0  0  0
 12 38  1  0  0  0  0
 12 39  1  0  0  0  0
 13 40  1  0  0  0  0
 14 41  1  0  0  0  0
 14 42  1  0  0  0  0
 15 43  1  0  0  0  0
 15 44  1  0  0  0  0
 16 45  1  0  0  0  0
 17 46  1  0  0  0  0
 18 47  1  0  0  0  0
 19 48  1  0  0  0  0
 20 49  1  0  0  0  0
 21 50  1  0  0  0  0
 22 51  1  0  0  0  0
 23 52  1  0  0  0  0
 24 53  1  0  0  0  0
 25 54  1  0  0  0  0
 31 55  1  0  0  0  0
 35 56  1  0  0  0  0
M  END
> <pdb_id>
4QIZ

> <uniprot_id>
Q8N1Q1

> <usmiles>
S(=O)(=O)(N)c1c(F)c(F)c(S(=O)(=O)CCO)c(N[C@H](c2ccccc2)[C@@H](O)c3ccccc3)c1F

$$$$
WWZ_A_263
          07192416293D 1   1.00000     0.00000     0
            
 33 34  0  0  0  0            999 V2000
   -5.8590    0.9334   16.8604 S   0  0  0  0  0  0  0  0  0  0  0  0
    0.7870    9.9024   15.1749 F   0  0  0  0  0  0  0  0  0  0  0  0
   -7.3020    1.0727   16.7445 O   0  0  0  0  0  0  0  0  0  0  0  0
   -5.4343    1.0509   18.2438 O   0  0  0  0  0  0  0  0  0  0  0  0
   -4.9528    5.7926   12.2818 O   0  0  0  0  0  0  0  0  0  0  0  0
   -5.3979   -0.4307   16.2727 N   0  0  0  0  0  0  0  0  0  0  0  0
   -3.2542    5.2614   13.7687 N   0  0  0  0  0  0  0  0  0  0  0  0
   -3.1872    7.2253   12.3432 N   0  0  0  0  0  0  0  0  0  0  0  0
   -3.8331    2.1756   15.6323 C   0  0  0  0  0  0  0  0  0  0  0  0
   -5.9537    3.3080   15.4359 C   0  0  0  0  0  0  0  0  0  0  0  0
   -0.0894    9.1354   13.0402 C   0  0  0  0  0  0  0  0  0  0  0  0
   -1.1590    8.6256   15.2175 C   0  0  0  0  0  0  0  0  0  0  0  0
   -3.2286    3.1835   14.9236 C   0  0  0  0  0  0  0  0  0  0  0  0
   -5.3432    4.3157   14.7083 C   0  0  0  0  0  0  0  0  0  0  0  0
   -1.0623    8.4680   12.3623 C   0  0  0  0  0  0  0  0  0  0  0  0
   -2.2246    7.8914   14.4772 C   0  0  0  0  0  0  0  0  0  0  0  0
   -5.1926    2.2383   15.8774 C   0  0  0  0  0  0  0  0  0  0  0  0
   -0.1449    9.2144   14.5253 C   0  0  0  0  0  0  0  0  0  0  0  0
   -3.8740    6.0721   12.7793 C   0  0  0  0  0  0  0  0  0  0  0  0
   -3.9707    4.2510   14.4542 C   0  0  0  0  0  0  0  0  0  0  0  0
   -2.1544    7.8179   13.1161 C   0  0  0  0  0  0  0  0  0  0  0  0
   -5.3185   -1.1545   16.8132 H   0  0  0  0  0  0  0  0  0  0  0  0
   -2.4150    5.4679   14.0446 H   0  0  0  0  0  0  0  0  0  0  0  0
   -3.5259    7.6958   11.6452 H   0  0  0  0  0  0  0  0  0  0  0  0
   -3.3104    1.4272   15.9617 H   0  0  0  0  0  0  0  0  0  0  0  0
   -6.9070    3.3406   15.6151 H   0  0  0  0  0  0  0  0  0  0  0  0
    0.6366    9.5601   12.5574 H   0  0  0  0  0  0  0  0  0  0  0  0
   -1.1866    8.6817   16.1849 H   0  0  0  0  0  0  0  0  0  0  0  0
   -2.2793    3.1420   14.7426 H   0  0  0  0  0  0  0  0  0  0  0  0
   -5.8629    5.0693   14.3858 H   0  0  0  0  0  0  0  0  0  0  0  0
   -1.0347    8.4130   11.3959 H   0  0  0  0  0  0  0  0  0  0  0  0
   -2.9547    7.4687   14.9569 H   0  0  0  0  0  0  0  0  0  0  0  0
   -4.4994   -0.2784   15.8608 H   0  0  0  0  0  0  0  0  0  0  0  0
  1  3  2  0  0  0  0
  1  4  2  0  0  0  0
  1  6  1  0  0  0  0
  1 17  1  0  0  0  0
  2 18  1  0  0  0  0
  5 19  2  0  0  0  0
  6 22  1  0  0  0  0
  7 19  1  0  0  0  0
  7 20  1  0  0  0  0
  7 23  1  0  0  0  0
  8 19  1  0  0  0  0
  8 21  1  0  0  0  0
  8 24  1  0  0  0  0
  9 13  1  0  0  0  0
  9 17  2  0  0  0  0
  9 25  1  0  0  0  0
 10 14  2  0  0  0  0
 10 17  1  0  0  0  0
 10 26  1  0  0  0  0
 11 15  2  0  0  0  0
 11 18  1  0  0  0  0
 11 27  1  0  0  0  0
 12 16  1  0  0  0  0
 12 18  2  0  0  0  0
 12 28  1  0  0  0  0
 13 20  2  0  0  0  0
 13 29  1  0  0  0  0
 14 20  1  0  0  0  0
 14 30  1  0  0  0  0
 15 21  1  0  0  0  0
 15 31  1  0  0  0  0
 16 21  2  0  0  0  0
 16 32  1  0  0  0  0
  6 33  1  0  0  0  0
M  END
> <pdb_id>
3N4B

> <uniprot_id>
P00918

> <usmiles>
S(=O)(=O)(N)c1ccc(NC(=O)Nc2ccc(F)cc2)cc1

$$$$
WZV_A_1447
          07202405583D 1   1.00000     0.00000     0
            
 51 53  0  0  0  0            999 V2000
   72.0646   44.0469   -2.1409 F   0  0  0  0  0  0  0  0  0  0  0  0
   73.6509   42.6338   -1.6670 F   0  0  0  0  0  0  0  0  0  0  0  0
   71.6969   42.3092   -0.8864 F   0  0  0  0  0  0  0  0  0  0  0  0
   67.3489   46.7962   10.4531 O   0  0  0  0  0  0  0  0  0  0  0  0
   73.3514   47.2784    5.9217 O   0  0  0  0  0  0  0  0  0  0  0  0
   71.7091   44.4717    0.5784 O   0  0  0  0  0  0  0  0  0  0  0  0
   65.7711   48.3028    6.4545 N   0  0  0  0  0  0  0  0  0  0  0  0
   71.0292   46.6357    3.3611 N   0  0  0  0  0  0  0  0  0  0  0  0
   71.1084   47.7552    5.8959 N   0  0  0  0  0  0  0  0  0  0  0  0
   66.8350   49.6334    7.8957 N   0  0  0  0  0  0  0  0  0  0  0  0
   66.6019   47.4477    8.4610 N   0  0  0  0  0  0  0  0  0  0  0  0
   66.3464   46.0613    8.0539 C   0  0  0  0  0  0  0  0  0  0  0  0
   67.7210   51.3629    9.3254 C   0  0  0  0  0  0  0  0  0  0  0  0
   72.9202   44.1146   -0.0687 C   0  0  0  0  0  0  0  0  0  0  0  0
   70.8651   45.9969    2.1948 C   0  0  0  0  0  0  0  0  0  0  0  0
   71.6230   49.6121    9.0545 C   0  0  0  0  0  0  0  0  0  0  0  0
   71.9147   48.8907    7.9042 C   0  0  0  0  0  0  0  0  0  0  0  0
   73.0101   44.9150    2.5501 C   0  0  0  0  0  0  0  0  0  0  0  0
   73.1507   45.5968    3.7550 C   0  0  0  0  0  0  0  0  0  0  0  0
   70.3020   49.9330    9.3647 C   0  0  0  0  0  0  0  0  0  0  0  0
   69.5442   48.8074    7.3889 C   0  0  0  0  0  0  0  0  0  0  0  0
   67.4531   49.0802   10.1406 C   0  0  0  0  0  0  0  0  0  0  0  0
   67.1073   47.6906    9.6832 C   0  0  0  0  0  0  0  0  0  0  0  0
   72.2399   47.2112    5.4203 C   0  0  0  0  0  0  0  0  0  0  0  0
   66.4004   48.4825    7.6262 C   0  0  0  0  0  0  0  0  0  0  0  0
   71.8548   45.1241    1.7691 C   0  0  0  0  0  0  0  0  0  0  0  0
   70.8715   48.4980    7.0616 C   0  0  0  0  0  0  0  0  0  0  0  0
   72.1285   46.4646    4.1384 C   0  0  0  0  0  0  0  0  0  0  0  0
   69.2415   49.5369    8.5409 C   0  0  0  0  0  0  0  0  0  0  0  0
   72.5671   43.2357   -1.2380 C   0  0  0  0  0  0  0  0  0  0  0  0
   67.8253   49.9039    8.9356 C   0  0  1  0  0  0  0  0  0  0  0  0
   65.4147   47.4006    6.2116 H   0  0  0  0  0  0  0  0  0  0  0  0
   65.6587   49.0711    5.8244 H   0  0  0  0  0  0  0  0  0  0  0  0
   70.3013   47.6061    5.3247 H   0  0  0  0  0  0  0  0  0  0  0  0
   65.9742   46.0496    7.1259 H   0  0  0  0  0  0  0  0  0  0  0  0
   67.2020   45.5442    8.0764 H   0  0  0  0  0  0  0  0  0  0  0  0
   65.6889   45.6453    8.6821 H   0  0  0  0  0  0  0  0  0  0  0  0
   68.3928   51.5665   10.0376 H   0  0  0  0  0  0  0  0  0  0  0  0
   67.8997   51.9353    8.5251 H   0  0  0  0  0  0  0  0  0  0  0  0
   66.8016   51.5507    9.6709 H   0  0  0  0  0  0  0  0  0  0  0  0
   73.5122   43.6173    0.5655 H   0  0  0  0  0  0  0  0  0  0  0  0
   73.3910   44.9364   -0.3894 H   0  0  0  0  0  0  0  0  0  0  0  0
   70.0451   46.1467    1.6423 H   0  0  0  0  0  0  0  0  0  0  0  0
   72.3624   49.9023    9.6620 H   0  0  0  0  0  0  0  0  0  0  0  0
   72.8606   48.6549    7.6814 H   0  0  0  0  0  0  0  0  0  0  0  0
   73.7212   44.2833    2.2412 H   0  0  0  0  0  0  0  0  0  0  0  0
   73.9598   45.4683    4.3285 H   0  0  0  0  0  0  0  0  0  0  0  0
   70.1079   50.4576   10.1936 H   0  0  0  0  0  0  0  0  0  0  0  0
   68.8042   48.5017    6.7898 H   0  0  0  0  0  0  0  0  0  0  0  0
   68.2250   49.0437   10.7752 H   0  0  0  0  0  0  0  0  0  0  0  0
   66.6643   49.4903   10.5984 H   0  0  0  0  0  0  0  0  0  0  0  0
  1 30  1  0  0  0  0
  2 30  1  0  0  0  0
  3 30  1  0  0  0  0
  4 23  2  0  0  0  0
  5 24  2  0  0  0  0
  6 14  1  0  0  0  0
  6 26  1  0  0  0  0
  7 25  1  0  0  0  0
  8 15  1  0  0  0  0
  8 28  2  0  0  0  0
  9 24  1  0  0  0  0
  9 27  1  0  0  0  0
 10 25  2  0  0  0  0
 10 31  1  0  0  0  0
 11 12  1  0  0  0  0
 11 23  1  0  0  0  0
 11 25  1  0  0  0  0
 13 31  1  0  0  0  0
 14 30  1  0  0  0  0
 15 26  2  0  0  0  0
 16 17  1  0  0  0  0
 16 20  2  0  0  0  0
 17 27  2  0  0  0  0
 18 19  2  0  0  0  0
 18 26  1  0  0  0  0
 19 28  1  0  0  0  0
 20 29  1  0  0  0  0
 21 27  1  0  0  0  0
 21 29  2  0  0  0  0
 22 23  1  0  0  0  0
 22 31  1  0  0  0  0
 24 28  1  0  0  0  0
 29 31  1  0  0  0  0
  7 32  1  0  0  0  0
  7 33  1  0  0  0  0
  9 34  1  0  0  0  0
 12 35  1  0  0  0  0
 12 36  1  0  0  0  0
 12 37  1  0  0  0  0
 13 38  1  0  0  0  0
 13 39  1  0  0  0  0
 13 40  1  0  0  0  0
 14 41  1  0  0  0  0
 14 42  1  0  0  0  0
 15 43  1  0  0  0  0
 16 44  1  0  0  0  0
 17 45  1  0  0  0  0
 18 46  1  0  0  0  0
 19 47  1  0  0  0  0
 20 48  1  0  0  0  0
 21 49  1  0  0  0  0
 22 50  1  0  0  0  0
 22 51  1  0  0  0  0
M  END
> <pdb_id>
3ZOV

> <uniprot_id>
P56817

> <usmiles>
FC(F)(F)COc1cnc(cc1)C(=O)Nc2cc(ccc2)[C@]3(N=C(N(C(=O)C3)C)N)C

$$$$
X02_A_497
          07192421083D 1   1.00000     0.00000     0
            
 31 32  0  0  0  0            999 V2000
    1.0337   28.3012    7.5592 S   0  0  0  0  0  0  0  0  0  0  0  0
   -1.5090   30.9979    9.0416 O   0  0  0  0  0  0  0  0  0  0  0  0
    0.3077   32.1304    7.2876 N   0  0  0  0  0  0  0  0  0  0  0  0
    3.1324   28.6204    5.7835 N   0  0  0  0  0  0  0  0  0  0  0  0
    1.8414   30.4213    6.4217 N   0  0  0  0  0  0  0  0  0  0  0  0
    4.7127   26.9396    7.8245 C   0  0  0  0  0  0  0  0  0  0  0  0
    3.1685   27.1362    5.8643 C   0  0  0  0  0  0  0  0  0  0  0  0
    4.4528   26.6980    6.5294 C   0  0  0  0  0  0  0  0  0  0  0  0
   -2.5184   26.4574   11.0610 C   0  0  0  0  0  0  0  0  0  0  0  0
   -1.1243   26.7382   11.0790 C   0  0  0  0  0  0  0  0  0  0  0  0
   -3.4049   27.2976   10.3230 C   0  0  0  0  0  0  0  0  0  0  0  0
   -0.6134   27.8591   10.3582 C   0  0  0  0  0  0  0  0  0  0  0  0
   -2.8979   28.4195    9.6009 C   0  0  0  0  0  0  0  0  0  0  0  0
    2.1264   29.1931    6.4687 C   0  0  0  0  0  0  0  0  0  0  0  0
    0.1882   29.8467    7.9047 C   0  0  0  0  0  0  0  0  0  0  0  0
    0.7256   30.8750    7.2263 C   0  0  0  0  0  0  0  0  0  0  0  0
   -0.9650   29.9131    8.8491 C   0  0  0  0  0  0  0  0  0  0  0  0
   -1.5002   28.7051    9.6110 C   0  0  0  0  0  0  0  0  0  0  0  0
   -0.4716   32.3703    7.8665 H   0  0  0  0  0  0  0  0  0  0  0  0
    0.7714   32.8383    6.7549 H   0  0  0  0  0  0  0  0  0  0  0  0
    3.8016   29.1499    5.2622 H   0  0  0  0  0  0  0  0  0  0  0  0
    5.5751   26.6329    8.2272 H   0  0  0  0  0  0  0  0  0  0  0  0
    4.0438   27.4264    8.3863 H   0  0  0  0  0  0  0  0  0  0  0  0
    3.1224   26.7512    4.9425 H   0  0  0  0  0  0  0  0  0  0  0  0
    2.3886   26.8126    6.4000 H   0  0  0  0  0  0  0  0  0  0  0  0
    5.1347   26.2098    5.9846 H   0  0  0  0  0  0  0  0  0  0  0  0
   -2.8772   25.6719   11.5652 H   0  0  0  0  0  0  0  0  0  0  0  0
   -0.5023   26.1505   11.5964 H   0  0  0  0  0  0  0  0  0  0  0  0
   -4.3850   27.0996   10.3117 H   0  0  0  0  0  0  0  0  0  0  0  0
    0.3669   28.0560   10.3737 H   0  0  0  0  0  0  0  0  0  0  0  0
   -3.5236   29.0064    9.0870 H   0  0  0  0  0  0  0  0  0  0  0  0
  1 14  1  0  0  0  0
  1 15  1  0  0  0  0
  2 17  2  0  0  0  0
  3 16  1  0  0  0  0
  4  7  1  0  0  0  0
  4 14  1  0  0  0  0
  5 14  2  0  0  0  0
  5 16  1  0  0  0  0
  6  8  2  0  0  0  0
  7  8  1  0  0  0  0
  9 10  2  0  0  0  0
  9 11  1  0  0  0  0
 10 12  1  0  0  0  0
 11 13  2  0  0  0  0
 12 18  2  0  0  0  0
 13 18  1  0  0  0  0
 15 16  2  0  0  0  0
 15 17  1  0  0  0  0
 17 18  1  0  0  0  0
  3 19  1  0  0  0  0
  3 20  1  0  0  0  0
  4 21  1  0  0  0  0
  6 22  1  0  0  0  0
  6 23  1  0  0  0  0
  7 24  1  0  0  0  0
  7 25  1  0  0  0  0
  8 26  1  0  0  0  0
  9 27  1  0  0  0  0
 10 28  1  0  0  0  0
 11 29  1  0  0  0  0
 12 30  1  0  0  0  0
 13 31  1  0  0  0  0
M  END
> <pdb_id>
3QQK

> <uniprot_id>
P24941

> <usmiles>
S1C(=NC(N)=C1C(=O)c2ccccc2)NCC=C

$$$$
X0Q_A_1263
          07192416293D 1   1.00000     0.00000     0
            
 31 33  0  0  0  0            999 V2000
   -6.1424    3.4986   15.0853 S   0  0  0  0  0  0  0  0  0  0  0  0
   -5.8352    1.0254   16.7483 S   0  0  0  0  0  0  0  0  0  0  0  0
   -7.3042    1.1269   16.7083 O   0  0  0  0  0  0  0  0  0  0  0  0
   -5.3823    1.1282   18.1169 O   0  0  0  0  0  0  0  0  0  0  0  0
   -5.3749   -0.3645   16.1432 N   0  0  0  0  0  0  0  0  0  0  0  0
   -6.4567   12.4492   10.4970 N   0  0  0  0  0  0  0  0  0  0  0  0
   -6.3669    6.9162   12.3835 N   0  0  0  0  0  0  0  0  0  0  0  0
   -6.3898    5.8145   13.2019 N   0  0  0  0  0  0  0  0  0  0  0  0
   -4.9816    7.1801   12.2574 N   0  0  0  0  0  0  0  0  0  0  0  0
   -5.7693   11.5114   10.5210 C   0  0  0  0  0  0  0  0  0  0  0  0
   -4.1411    6.3105   12.8771 C   0  0  0  0  0  0  0  0  0  0  0  0
   -2.8963    9.4189   10.1086 C   0  0  0  0  0  0  0  0  0  0  0  0
   -3.8389    2.5105   15.4168 C   0  0  0  0  0  0  0  0  0  0  0  0
   -3.6349    3.6243   14.5540 C   0  0  0  0  0  0  0  0  0  0  0  0
   -3.3130    8.2873   10.8588 C   0  0  0  0  0  0  0  0  0  0  0  0
   -3.7323   10.5140    9.9657 C   0  0  0  0  0  0  0  0  0  0  0  0
   -5.3899    9.3599   11.3512 C   0  0  0  0  0  0  0  0  0  0  0  0
   -5.1607    2.2350   15.7141 C   0  0  0  0  0  0  0  0  0  0  0  0
   -4.8175    4.2986   14.3327 C   0  0  0  0  0  0  0  0  0  0  0  0
   -5.0765    5.5022   13.4798 C   0  0  0  0  0  0  0  0  0  0  0  0
   -4.5659    8.2317   11.5120 C   0  0  0  0  0  0  0  0  0  0  0  0
   -4.9921   10.4795   10.5859 C   0  0  0  0  0  0  0  0  0  0  0  0
   -4.3773   -0.4271   16.1732 H   0  0  0  0  0  0  0  0  0  0  0  0
   -5.7719   -1.1094   16.6794 H   0  0  0  0  0  0  0  0  0  0  0  0
   -3.1420    6.2703   12.8908 H   0  0  0  0  0  0  0  0  0  0  0  0
   -1.9926    9.4251    9.6804 H   0  0  0  0  0  0  0  0  0  0  0  0
   -3.0822    1.9676   15.7809 H   0  0  0  0  0  0  0  0  0  0  0  0
   -2.7525    3.8832   14.1611 H   0  0  0  0  0  0  0  0  0  0  0  0
   -2.6983    7.5016   10.9276 H   0  0  0  0  0  0  0  0  0  0  0  0
   -3.4457   11.3106    9.4334 H   0  0  0  0  0  0  0  0  0  0  0  0
   -6.2870    9.3703   11.7929 H   0  0  0  0  0  0  0  0  0  0  0  0
  1 18  1  0  0  0  0
  1 19  1  0  0  0  0
  2  3  2  0  0  0  0
  2  4  2  0  0  0  0
  2  5  1  0  0  0  0
  2 18  1  0  0  0  0
  6 10  3  0  0  0  0
  7  8  2  0  0  0  0
  7  9  1  0  0  0  0
  8 20  1  0  0  0  0
  9 11  1  0  0  0  0
  9 21  1  0  0  0  0
 10 22  1  0  0  0  0
 11 20  2  0  0  0  0
 12 15  2  0  0  0  0
 12 16  1  0  0  0  0
 13 14  1  0  0  0  0
 13 18  2  0  0  0  0
 14 19  2  0  0  0  0
 15 21  1  0  0  0  0
 16 22  2  0  0  0  0
 17 21  2  0  0  0  0
 17 22  1  0  0  0  0
 19 20  1  0  0  0  0
  5 23  1  0  0  0  0
  5 24  1  0  0  0  0
 11 25  1  0  0  0  0
 12 26  1  0  0  0  0
 13 27  1  0  0  0  0
 14 28  1  0  0  0  0
 15 29  1  0  0  0  0
 16 30  1  0  0  0  0
 17 31  1  0  0  0  0
M  END
> <pdb_id>
4BF6

> <uniprot_id>
P00918

> <usmiles>
S(=O)(=O)(N)C=1SC(C=2N=NN(c3cc(C#N)ccc3)C2)=CC1

$$$$
X16_A_702
          07192417133D 1   1.00000     0.00000     0
            
 50 52  0  0  0  0            999 V2000
   43.4311   67.7078  118.9336 S   0  0  0  0  0  0  0  0  0  0  0  0
   42.8053   68.9328  118.9312 O   0  0  0  0  0  0  0  0  0  0  0  0
   43.8185   67.2829  117.7013 O   0  0  0  0  0  0  0  0  0  0  0  0
   43.5941   64.9134  119.1652 O   0  0  0  0  0  0  0  0  0  0  0  0
   41.0273   63.1770  122.1544 O   0  0  0  0  0  0  0  0  0  0  0  0
   53.3350   69.6024  118.9295 N   0  0  0  0  0  0  0  0  0  0  0  0
   41.5449   63.3110  119.3341 N   0  0  0  0  0  0  0  0  0  0  0  0
   42.3451   66.7054  119.5287 N   0  0  0  0  0  0  0  0  0  0  0  0
   52.5065   68.9472  116.8920 N   0  0  0  0  0  0  0  0  0  0  0  0
   50.2480   68.3523  116.5946 N   0  0  0  0  0  0  0  0  0  0  0  0
   51.7236   68.2669  114.6580 C   0  0  0  0  0  0  0  0  0  0  0  0
   41.6905   65.4201  122.4870 C   0  0  0  0  0  0  0  0  0  0  0  0
   45.6626   67.7736  122.1949 C   0  0  0  0  0  0  0  0  0  0  0  0
   44.5801   67.6544  121.3170 C   0  0  0  0  0  0  0  0  0  0  0  0
   46.9009   68.0866  121.6649 C   0  0  0  0  0  0  0  0  0  0  0  0
   49.4305   69.0699  120.5871 C   0  0  0  0  0  0  0  0  0  0  0  0
   50.7203   69.2816  120.1292 C   0  0  0  0  0  0  0  0  0  0  0  0
   45.9593   68.1814  119.4594 C   0  0  0  0  0  0  0  0  0  0  0  0
   48.6734   68.3850  118.4219 C   0  0  0  0  0  0  0  0  0  0  0  0
   44.7020   67.8359  119.9377 C   0  0  0  0  0  0  0  0  0  0  0  0
   42.5737   65.4021  119.5682 C   0  0  0  0  0  0  0  0  0  0  0  0
   51.4896   68.5354  116.1141 C   0  0  0  0  0  0  0  0  0  0  0  0
   41.8173   64.1972  121.5752 C   0  0  2  0  0  0  0  0  0  0  0  0
   52.3420   69.2139  118.1834 C   0  0  0  0  0  0  0  0  0  0  0  0
   41.4889   64.5111  120.1131 C   0  0  2  0  0  0  0  0  0  0  0  0
   49.9349   68.5849  117.8900 C   0  0  0  0  0  0  0  0  0  0  0  0
   47.0470   68.3449  120.3112 C   0  0  0  0  0  0  0  0  0  0  0  0
   48.4114   68.6358  119.7577 C   0  0  0  0  0  0  0  0  0  0  0  0
   50.9940   69.0406  118.7942 C   0  0  0  0  0  0  0  0  0  0  0  0
   41.0798   62.3535  121.5895 H   0  0  0  0  0  0  0  0  0  0  0  0
   53.1857   69.7971  119.8990 H   0  0  0  0  0  0  0  0  0  0  0  0
   54.2473   69.7062  118.5334 H   0  0  0  0  0  0  0  0  0  0  0  0
   40.8420   62.6744  119.6516 H   0  0  0  0  0  0  0  0  0  0  0  0
   41.3856   63.5306  118.3717 H   0  0  0  0  0  0  0  0  0  0  0  0
   41.4795   67.0655  119.8769 H   0  0  0  0  0  0  0  0  0  0  0  0
   50.8686   67.9713  114.2319 H   0  0  0  0  0  0  0  0  0  0  0  0
   52.0467   69.1020  114.2127 H   0  0  0  0  0  0  0  0  0  0  0  0
   52.4118   67.5482  114.5579 H   0  0  0  0  0  0  0  0  0  0  0  0
   42.2358   66.1712  122.1150 H   0  0  0  0  0  0  0  0  0  0  0  0
   40.7315   65.6986  122.5396 H   0  0  0  0  0  0  0  0  0  0  0  0
   42.0212   65.1894  123.4021 H   0  0  0  0  0  0  0  0  0  0  0  0
   45.5442   67.6364  123.1783 H   0  0  0  0  0  0  0  0  0  0  0  0
   43.6811   67.4298  121.6928 H   0  0  0  0  0  0  0  0  0  0  0  0
   47.6997   68.1269  122.2651 H   0  0  0  0  0  0  0  0  0  0  0  0
   49.2283   69.2368  121.5521 H   0  0  0  0  0  0  0  0  0  0  0  0
   51.4371   69.6011  120.7489 H   0  0  0  0  0  0  0  0  0  0  0  0
   46.0861   68.3162  118.4767 H   0  0  0  0  0  0  0  0  0  0  0  0
   47.9380   68.0535  117.8309 H   0  0  0  0  0  0  0  0  0  0  0  0
   42.7699   63.8948  121.6102 H   0  0  0  0  0  0  0  0  0  0  0  0
   40.5930   64.9481  120.0334 H   0  0  0  0  0  0  0  0  0  0  0  0
  1  2  2  0  0  0  0
  1  3  2  0  0  0  0
  1  8  1  0  0  0  0
  1 20  1  0  0  0  0
  4 21  2  0  0  0  0
  5 23  1  0  0  0  0
  6 24  1  0  0  0  0
  7 25  1  0  0  0  0
  8 21  1  0  0  0  0
  9 22  1  0  0  0  0
  9 24  2  0  0  0  0
 10 22  2  0  0  0  0
 10 26  1  0  0  0  0
 11 22  1  0  0  0  0
 12 23  1  0  0  0  0
 13 14  2  0  0  0  0
 13 15  1  0  0  0  0
 14 20  1  0  0  0  0
 15 27  2  0  0  0  0
 16 17  1  0  0  0  0
 16 28  2  0  0  0  0
 17 29  2  0  0  0  0
 18 20  2  0  0  0  0
 18 27  1  0  0  0  0
 19 26  2  0  0  0  0
 19 28  1  0  0  0  0
 21 25  1  0  0  0  0
 23 25  1  0  0  0  0
 24 29  1  0  0  0  0
 26 29  1  0  0  0  0
 27 28  1  0  0  0  0
  5 30  1  0  0  0  0
  6 31  1  0  0  0  0
  6 32  1  0  0  0  0
  7 33  1  0  0  0  0
  7 34  1  0  0  0  0
  8 35  1  0  0  0  0
 11 36  1  0  0  0  0
 11 37  1  0  0  0  0
 11 38  1  0  0  0  0
 12 39  1  0  0  0  0
 12 40  1  0  0  0  0
 12 41  1  0  0  0  0
 13 42  1  0  0  0  0
 14 43  1  0  0  0  0
 15 44  1  0  0  0  0
 16 45  1  0  0  0  0
 17 46  1  0  0  0  0
 18 47  1  0  0  0  0
 19 48  1  0  0  0  0
 23 49  1  0  0  0  0
 25 50  1  0  0  0  0
M  END
> <pdb_id>
4HWP

> <uniprot_id>
P0A8M3

> <usmiles>
S(=O)(=O)(NC(=O)[C@@H](N)[C@H](O)C)c1cc(c2cc3nc(nc(N)c3cc2)C)ccc1

$$$$
X1P_X_600
          07202403103D 1   1.00000     0.00000     0
            
 25 25  0  0  0  0            999 V2000
  -46.2149  -12.8284   17.8548 P   0  0  0  0  0  0  0  0  0  0  0  0
  -45.8940  -14.0257   18.7192 O   0  0  0  0  0  0  0  0  0  0  0  0
  -47.2051  -11.9094   18.5479 O   0  0  0  0  0  0  0  0  0  0  0  0
  -44.9749  -12.0608   17.4796 O   0  0  0  0  0  0  0  0  0  0  0  0
  -47.3731  -15.6354   12.6232 O   0  0  0  0  0  0  0  0  0  0  0  0
  -46.9676  -17.3682   15.0053 O   0  0  0  0  0  0  0  0  0  0  0  0
  -47.2261  -16.1071   17.4800 O   0  0  0  0  0  0  0  0  0  0  0  0
  -46.8511  -13.3714   16.4757 O   0  0  0  0  0  0  0  0  0  0  0  0
  -48.8693  -13.6158   15.3185 O   0  0  0  0  0  0  0  0  0  0  0  0
  -48.2583  -13.9365   14.0544 C   0  0  0  0  0  0  0  0  0  0  0  0
  -48.0224  -15.4405   13.8754 C   0  0  2  0  0  0  0  0  0  0  0  0
  -48.1035  -14.0642   16.4486 C   0  0  1  0  0  0  0  0  0  0  0  0
  -47.1886  -15.9594   15.0533 C   0  0  1  0  0  0  0  0  0  0  0  0
  -47.9199  -15.5877   16.3477 C   0  0  1  0  0  0  0  0  0  0  0  0
  -45.2415  -14.6152   18.2431 H   0  0  0  0  0  0  0  0  0  0  0  0
  -47.4018  -11.1260   17.9583 H   0  0  0  0  0  0  0  0  0  0  0  0
  -47.2074  -16.6114   12.4820 H   0  0  0  0  0  0  0  0  0  0  0  0
  -46.4209  -17.6470   15.7950 H   0  0  0  0  0  0  0  0  0  0  0  0
  -47.1238  -17.0971   17.3829 H   0  0  0  0  0  0  0  0  0  0  0  0
  -47.3780  -13.4656   13.9960 H   0  0  0  0  0  0  0  0  0  0  0  0
  -48.8567  -13.6170   13.3197 H   0  0  0  0  0  0  0  0  0  0  0  0
  -48.9042  -15.9120   13.8646 H   0  0  0  0  0  0  0  0  0  0  0  0
  -48.6082  -13.8537   17.2858 H   0  0  0  0  0  0  0  0  0  0  0  0
  -46.3019  -15.4971   15.0442 H   0  0  0  0  0  0  0  0  0  0  0  0
  -48.8271  -16.0074   16.3216 H   0  0  0  0  0  0  0  0  0  0  0  0
  1  2  1  0  0  0  0
  1  3  1  0  0  0  0
  1  4  2  0  0  0  0
  1  8  1  0  0  0  0
  5 11  1  0  0  0  0
  6 13  1  0  0  0  0
  7 14  1  0  0  0  0
  8 12  1  0  0  0  0
  9 10  1  0  0  0  0
  9 12  1  0  0  0  0
 10 11  1  0  0  0  0
 11 13  1  0  0  0  0
 12 14  1  0  0  0  0
 13 14  1  0  0  0  0
  2 15  1  0  0  0  0
  3 16  1  0  0  0  0
  5 17  1  0  0  0  0
  6 18  1  0  0  0  0
  7 19  1  0  0  0  0
 10 20  1  0  0  0  0
 10 21  1  0  0  0  0
 11 22  1  0  0  0  0
 12 23  1  0  0  0  0
 13 24  1  0  0  0  0
 14 25  1  0  0  0  0
M  END
> <pdb_id>
2H5A

> <uniprot_id>
P26276

> <usmiles>
P(=O)(O[C@H]1OC[C@@H](O)[C@H](O)[C@H]1O)(O)O

$$$$
X2O_B_1367
          07202413333D 1   1.00000     0.00000     0
            
 49 50  0  0  0  0            999 V2000
   39.4546   -7.3928   21.0642 S   0  0  0  0  0  0  0  0  0  0  0  0
   40.3019   -6.4616   25.5062 O   0  0  0  0  0  0  0  0  0  0  0  0
   38.1096   -6.2445   25.8300 O   0  0  0  0  0  0  0  0  0  0  0  0
   37.3917   -7.2784   23.5863 N   0  0  0  0  0  0  0  0  0  0  0  0
   43.8766   -7.6535   21.1904 C   0  0  0  0  0  0  0  0  0  0  0  0
   42.8565   -5.3968   19.7423 C   0  0  0  0  0  0  0  0  0  0  0  0
   39.6437   -6.5916   22.7181 C   0  0  0  0  0  0  0  0  0  0  0  0
   42.4800   -7.7102   20.5641 C   0  0  0  0  0  0  0  0  0  0  0  0
   38.5037   -2.5453   20.1316 C   0  0  0  0  0  0  0  0  0  0  0  0
   40.5564   -8.1965   15.9961 C   0  0  0  0  0  0  0  0  0  0  0  0
   39.6737   -2.7543   20.8568 C   0  0  0  0  0  0  0  0  0  0  0  0
   37.9843   -3.5517   19.3358 C   0  0  0  0  0  0  0  0  0  0  0  0
   40.2388   -8.9485   17.1232 C   0  0  0  0  0  0  0  0  0  0  0  0
   40.8492   -6.8371   16.1344 C   0  0  0  0  0  0  0  0  0  0  0  0
   40.3174   -3.9793   20.7875 C   0  0  0  0  0  0  0  0  0  0  0  0
   38.6280   -4.7803   19.2674 C   0  0  0  0  0  0  0  0  0  0  0  0
   40.2158   -8.3365   18.3715 C   0  0  0  0  0  0  0  0  0  0  0  0
   40.8244   -6.2326   17.3894 C   0  0  0  0  0  0  0  0  0  0  0  0
   39.1126   -6.6117   25.1772 C   0  0  0  0  0  0  0  0  0  0  0  0
   38.8507   -7.2972   23.8437 C   0  0  1  0  0  0  0  0  0  0  0  0
   41.8910   -6.3088   20.5222 C   0  0  2  0  0  0  0  0  0  0  0  0
   39.8112   -4.9813   19.9674 C   0  0  0  0  0  0  0  0  0  0  0  0
   40.5047   -6.9784   18.5188 C   0  0  0  0  0  0  0  0  0  0  0  0
   40.4774   -6.3433   19.9353 C   0  0  0  0  0  0  0  0  0  0  0  0
   41.0317   -6.7938   24.9087 H   0  0  0  0  0  0  0  0  0  0  0  0
   36.9154   -7.7423   24.3333 H   0  0  0  0  0  0  0  0  0  0  0  0
   37.0758   -6.3314   23.5267 H   0  0  0  0  0  0  0  0  0  0  0  0
   44.2666   -8.5739   21.2193 H   0  0  0  0  0  0  0  0  0  0  0  0
   44.4644   -7.0595   20.6412 H   0  0  0  0  0  0  0  0  0  0  0  0
   43.8106   -7.2901   22.1197 H   0  0  0  0  0  0  0  0  0  0  0  0
   42.4831   -4.4699   19.7056 H   0  0  0  0  0  0  0  0  0  0  0  0
   43.7444   -5.3805   20.2021 H   0  0  0  0  0  0  0  0  0  0  0  0
   42.9690   -5.7479   18.8127 H   0  0  0  0  0  0  0  0  0  0  0  0
   39.3229   -5.6469   22.6500 H   0  0  0  0  0  0  0  0  0  0  0  0
   40.6132   -6.5975   22.9630 H   0  0  0  0  0  0  0  0  0  0  0  0
   41.8915   -8.3037   21.1130 H   0  0  0  0  0  0  0  0  0  0  0  0
   42.5452   -8.0730   19.6345 H   0  0  0  0  0  0  0  0  0  0  0  0
   38.0359   -1.6631   20.1861 H   0  0  0  0  0  0  0  0  0  0  0  0
   40.5750   -8.6260   15.0933 H   0  0  0  0  0  0  0  0  0  0  0  0
   40.0484   -2.0224   21.4260 H   0  0  0  0  0  0  0  0  0  0  0  0
   37.1476   -3.3944   18.8114 H   0  0  0  0  0  0  0  0  0  0  0  0
   40.0286   -9.9223   17.0359 H   0  0  0  0  0  0  0  0  0  0  0  0
   41.0783   -6.2941   15.3265 H   0  0  0  0  0  0  0  0  0  0  0  0
   41.1441   -4.1423   21.3261 H   0  0  0  0  0  0  0  0  0  0  0  0
   38.2408   -5.5188   18.7155 H   0  0  0  0  0  0  0  0  0  0  0  0
   39.9879   -8.8796   19.1796 H   0  0  0  0  0  0  0  0  0  0  0  0
   41.0370   -5.2595   17.4783 H   0  0  0  0  0  0  0  0  0  0  0  0
   39.1548   -8.2478   23.9049 H   0  0  0  0  0  0  0  0  0  0  0  0
   41.8304   -5.9683   21.4605 H   0  0  0  0  0  0  0  0  0  0  0  0
  1  7  1  0  0  0  0
  1 24  1  0  0  0  0
  2 19  1  0  0  0  0
  3 19  2  0  0  0  0
  4 20  1  0  0  0  0
  5  8  1  0  0  0  0
  6 21  1  0  0  0  0
  7 20  1  0  0  0  0
  8 21  1  0  0  0  0
  9 11  2  0  0  0  0
  9 12  1  0  0  0  0
 10 13  2  0  0  0  0
 10 14  1  0  0  0  0
 11 15  1  0  0  0  0
 12 16  2  0  0  0  0
 13 17  1  0  0  0  0
 14 18  2  0  0  0  0
 15 22  2  0  0  0  0
 16 22  1  0  0  0  0
 17 23  2  0  0  0  0
 18 23  1  0  0  0  0
 19 20  1  0  0  0  0
 21 24  1  0  0  0  0
 22 24  1  0  0  0  0
 23 24  1  0  0  0  0
  2 25  1  0  0  0  0
  4 26  1  0  0  0  0
  4 27  1  0  0  0  0
  5 28  1  0  0  0  0
  5 29  1  0  0  0  0
  5 30  1  0  0  0  0
  6 31  1  0  0  0  0
  6 32  1  0  0  0  0
  6 33  1  0  0  0  0
  7 34  1  0  0  0  0
  7 35  1  0  0  0  0
  8 36  1  0  0  0  0
  8 37  1  0  0  0  0
  9 38  1  0  0  0  0
 10 39  1  0  0  0  0
 11 40  1  0  0  0  0
 12 41  1  0  0  0  0
 13 42  1  0  0  0  0
 14 43  1  0  0  0  0
 15 44  1  0  0  0  0
 16 45  1  0  0  0  0
 17 46  1  0  0  0  0
 18 47  1  0  0  0  0
 20 48  1  0  0  0  0
 21 49  1  0  0  0  0
M  END
> <pdb_id>
2X2R

> <uniprot_id>
P52732

> <usmiles>
S(C(c1ccccc1)(c2ccccc2)[C@@H](CC)C)C[C@H](N)C(=O)O

$$$$
X36_A_497
          07192421083D 1   1.00000     0.00000     0
            
 34 36  0  0  0  0            999 V2000
    1.1914   28.2825    7.8366 S   0  0  0  0  0  0  0  0  0  0  0  0
   -1.6658   30.8272    8.9926 O   0  0  0  0  0  0  0  0  0  0  0  0
    0.2438   31.9671    7.2652 N   0  0  0  0  0  0  0  0  0  0  0  0
    1.8714   30.4239    6.6314 N   0  0  0  0  0  0  0  0  0  0  0  0
    3.3686   28.6881    6.1944 N   0  0  0  0  0  0  0  0  0  0  0  0
    5.4474   24.9103    6.2184 C   0  0  0  0  0  0  0  0  0  0  0  0
   -2.4466   26.2289   11.2339 C   0  0  0  0  0  0  0  0  0  0  0  0
    5.8996   26.0274    5.3973 C   0  0  0  0  0  0  0  0  0  0  0  0
    4.2683   25.0334    7.0663 C   0  0  0  0  0  0  0  0  0  0  0  0
   -1.0725   26.5741   11.2544 C   0  0  0  0  0  0  0  0  0  0  0  0
   -3.3783   27.0141   10.4417 C   0  0  0  0  0  0  0  0  0  0  0  0
    5.1879   27.2835    5.4069 C   0  0  0  0  0  0  0  0  0  0  0  0
    3.5431   26.2846    7.0842 C   0  0  0  0  0  0  0  0  0  0  0  0
   -0.5532   27.6705   10.5185 C   0  0  0  0  0  0  0  0  0  0  0  0
   -2.8891   28.1464    9.6738 C   0  0  0  0  0  0  0  0  0  0  0  0
    2.2341   29.1588    6.8135 C   0  0  0  0  0  0  0  0  0  0  0  0
    0.2099   29.6656    8.0599 C   0  0  0  0  0  0  0  0  0  0  0  0
    0.7464   30.7289    7.3182 C   0  0  0  0  0  0  0  0  0  0  0  0
   -0.9468   29.6865    8.8816 C   0  0  0  0  0  0  0  0  0  0  0  0
    3.9887   27.4566    6.2423 C   0  0  0  0  0  0  0  0  0  0  0  0
   -1.4584   28.5064    9.6866 C   0  0  0  0  0  0  0  0  0  0  0  0
   -0.5878   32.1913    7.7733 H   0  0  0  0  0  0  0  0  0  0  0  0
    0.6995   32.6687    6.7174 H   0  0  0  0  0  0  0  0  0  0  0  0
    3.8241   29.3561    5.6059 H   0  0  0  0  0  0  0  0  0  0  0  0
    5.9532   24.0479    6.1994 H   0  0  0  0  0  0  0  0  0  0  0  0
   -2.7746   25.4465   11.7634 H   0  0  0  0  0  0  0  0  0  0  0  0
    6.7107   25.9224    4.8219 H   0  0  0  0  0  0  0  0  0  0  0  0
    3.9650   24.2635    7.6279 H   0  0  0  0  0  0  0  0  0  0  0  0
   -0.4460   26.0250   11.8075 H   0  0  0  0  0  0  0  0  0  0  0  0
   -4.3496   26.7767   10.4253 H   0  0  0  0  0  0  0  0  0  0  0  0
    5.5124   28.0419    4.8415 H   0  0  0  0  0  0  0  0  0  0  0  0
    2.7331   26.3752    7.6636 H   0  0  0  0  0  0  0  0  0  0  0  0
    0.4234   27.8814   10.5596 H   0  0  0  0  0  0  0  0  0  0  0  0
   -3.5299   28.6883    9.1301 H   0  0  0  0  0  0  0  0  0  0  0  0
  1 16  1  0  0  0  0
  1 17  1  0  0  0  0
  2 19  2  0  0  0  0
  3 18  1  0  0  0  0
  4 16  2  0  0  0  0
  4 18  1  0  0  0  0
  5 16  1  0  0  0  0
  5 20  1  0  0  0  0
  6  8  2  0  0  0  0
  6  9  1  0  0  0  0
  7 10  2  0  0  0  0
  7 11  1  0  0  0  0
  8 12  1  0  0  0  0
  9 13  2  0  0  0  0
 10 14  1  0  0  0  0
 11 15  2  0  0  0  0
 12 20  2  0  0  0  0
 13 20  1  0  0  0  0
 14 21  2  0  0  0  0
 15 21  1  0  0  0  0
 17 18  2  0  0  0  0
 17 19  1  0  0  0  0
 19 21  1  0  0  0  0
  3 22  1  0  0  0  0
  3 23  1  0  0  0  0
  5 24  1  0  0  0  0
  6 25  1  0  0  0  0
  7 26  1  0  0  0  0
  8 27  1  0  0  0  0
  9 28  1  0  0  0  0
 10 29  1  0  0  0  0
 11 30  1  0  0  0  0
 12 31  1  0  0  0  0
 13 32  1  0  0  0  0
 14 33  1  0  0  0  0
 15 34  1  0  0  0  0
M  END
> <pdb_id>
3QTR

> <uniprot_id>
P24941

> <usmiles>
S1C(=NC(N)=C1C(=O)c2ccccc2)Nc3ccccc3

$$$$
X3A_A_451
          07192421083D 1   1.00000     0.00000     0
            
 33 35  0  0  0  0            999 V2000
    1.0008   28.2000    7.9848 S   0  0  0  0  0  0  0  0  0  0  0  0
   -1.7697   30.8452    9.0482 O   0  0  0  0  0  0  0  0  0  0  0  0
    0.1197   31.8901    7.2803 N   0  0  0  0  0  0  0  0  0  0  0  0
   -3.4346   27.2095   10.7892 N   0  0  0  0  0  0  0  0  0  0  0  0
    1.7053   30.3065    6.7009 N   0  0  0  0  0  0  0  0  0  0  0  0
    3.1780   28.5370    6.2795 N   0  0  0  0  0  0  0  0  0  0  0  0
   -2.5375   26.4369   11.5468 C   0  0  0  0  0  0  0  0  0  0  0  0
   -3.0319   28.2588    9.9480 C   0  0  0  0  0  0  0  0  0  0  0  0
   -1.1385   26.7107   11.4833 C   0  0  0  0  0  0  0  0  0  0  0  0
    5.1653   24.7310    6.3039 C   0  0  0  0  0  0  0  0  0  0  0  0
    5.6428   25.8212    5.4804 C   0  0  0  0  0  0  0  0  0  0  0  0
    4.0068   24.9008    7.1404 C   0  0  0  0  0  0  0  0  0  0  0  0
    4.9628   27.0860    5.4914 C   0  0  0  0  0  0  0  0  0  0  0  0
    3.3228   26.1576    7.1523 C   0  0  0  0  0  0  0  0  0  0  0  0
   -0.6866   27.7795   10.6345 C   0  0  0  0  0  0  0  0  0  0  0  0
    2.0539   29.0346    6.9158 C   0  0  0  0  0  0  0  0  0  0  0  0
    0.0566   29.6164    8.1607 C   0  0  0  0  0  0  0  0  0  0  0  0
    0.6018   30.6454    7.3796 C   0  0  0  0  0  0  0  0  0  0  0  0
   -1.0809   29.6953    8.9773 C   0  0  0  0  0  0  0  0  0  0  0  0
    3.7851   27.2885    6.3239 C   0  0  0  0  0  0  0  0  0  0  0  0
   -1.6203   28.5776    9.8419 C   0  0  0  0  0  0  0  0  0  0  0  0
   -0.7040   32.1490    7.7848 H   0  0  0  0  0  0  0  0  0  0  0  0
    0.5832   32.5611    6.7017 H   0  0  0  0  0  0  0  0  0  0  0  0
    3.6351   29.1944    5.6803 H   0  0  0  0  0  0  0  0  0  0  0  0
   -2.8784   25.6982   12.1282 H   0  0  0  0  0  0  0  0  0  0  0  0
   -3.7091   28.7799    9.4286 H   0  0  0  0  0  0  0  0  0  0  0  0
   -0.4872   26.1713   12.0170 H   0  0  0  0  0  0  0  0  0  0  0  0
    5.6441   23.8532    6.2915 H   0  0  0  0  0  0  0  0  0  0  0  0
    6.4486   25.6933    4.9020 H   0  0  0  0  0  0  0  0  0  0  0  0
    3.6818   24.1455    7.7096 H   0  0  0  0  0  0  0  0  0  0  0  0
    5.3013   27.8351    4.9219 H   0  0  0  0  0  0  0  0  0  0  0  0
    2.5165   26.2719    7.7326 H   0  0  0  0  0  0  0  0  0  0  0  0
    0.2914   27.9821   10.5851 H   0  0  0  0  0  0  0  0  0  0  0  0
  1 16  1  0  0  0  0
  1 17  1  0  0  0  0
  2 19  2  0  0  0  0
  3 18  1  0  0  0  0
  4  7  2  0  0  0  0
  4  8  1  0  0  0  0
  5 16  2  0  0  0  0
  5 18  1  0  0  0  0
  6 16  1  0  0  0  0
  6 20  1  0  0  0  0
  7  9  1  0  0  0  0
  8 21  2  0  0  0  0
  9 15  2  0  0  0  0
 10 11  2  0  0  0  0
 10 12  1  0  0  0  0
 11 13  1  0  0  0  0
 12 14  2  0  0  0  0
 13 20  2  0  0  0  0
 14 20  1  0  0  0  0
 15 21  1  0  0  0  0
 17 18  2  0  0  0  0
 17 19  1  0  0  0  0
 19 21  1  0  0  0  0
  3 22  1  0  0  0  0
  3 23  1  0  0  0  0
  6 24  1  0  0  0  0
  7 25  1  0  0  0  0
  8 26  1  0  0  0  0
  9 27  1  0  0  0  0
 10 28  1  0  0  0  0
 11 29  1  0  0  0  0
 12 30  1  0  0  0  0
 13 31  1  0  0  0  0
 14 32  1  0  0  0  0
 15 33  1  0  0  0  0
M  END
> <pdb_id>
3QTW

> <uniprot_id>
P24941

> <usmiles>
S1C(=NC(N)=C1C(=O)c2cnccc2)Nc3ccccc3

$$$$
X40_A_454
          07192421083D 1   1.00000     0.00000     0
            
 38 40  0  0  0  0            999 V2000
    0.9260   28.2053    7.8755 S   0  0  0  0  0  0  0  0  0  0  0  0
    6.5341   24.0003    7.2717 S   0  0  0  0  0  0  0  0  0  0  0  0
    7.5516   24.4517    8.1722 O   0  0  0  0  0  0  0  0  0  0  0  0
    7.1322   23.5740    6.0170 O   0  0  0  0  0  0  0  0  0  0  0  0
   -1.8163   30.7311    8.9915 O   0  0  0  0  0  0  0  0  0  0  0  0
    5.7231   22.7068    7.9851 N   0  0  0  0  0  0  0  0  0  0  0  0
    0.0318   31.8307    7.4481 N   0  0  0  0  0  0  0  0  0  0  0  0
   -3.3021   27.3131   10.8642 N   0  0  0  0  0  0  0  0  0  0  0  0
    1.6367   30.3715    6.6883 N   0  0  0  0  0  0  0  0  0  0  0  0
    3.0048   28.6368    6.1882 N   0  0  0  0  0  0  0  0  0  0  0  0
   -2.3506   26.5866   11.5556 C   0  0  0  0  0  0  0  0  0  0  0  0
   -0.9743   26.8422   11.4541 C   0  0  0  0  0  0  0  0  0  0  0  0
   -2.8706   28.3245   10.0338 C   0  0  0  0  0  0  0  0  0  0  0  0
    4.4970   25.7472    7.9570 C   0  0  0  0  0  0  0  0  0  0  0  0
    5.5528   26.0761    5.7460 C   0  0  0  0  0  0  0  0  0  0  0  0
   -0.5583   27.8884   10.6009 C   0  0  0  0  0  0  0  0  0  0  0  0
    3.6473   26.8564    7.7198 C   0  0  0  0  0  0  0  0  0  0  0  0
    4.7033   27.1852    5.5048 C   0  0  0  0  0  0  0  0  0  0  0  0
    1.9609   29.1172    6.8277 C   0  0  0  0  0  0  0  0  0  0  0  0
    5.4496   25.3591    6.9721 C   0  0  0  0  0  0  0  0  0  0  0  0
   -0.0232   29.6129    8.1717 C   0  0  0  0  0  0  0  0  0  0  0  0
    0.5201   30.6661    7.4370 C   0  0  0  0  0  0  0  0  0  0  0  0
   -1.1433   29.6971    9.0005 C   0  0  0  0  0  0  0  0  0  0  0  0
    3.7407   27.5982    6.4813 C   0  0  0  0  0  0  0  0  0  0  0  0
   -1.5136   28.6599    9.8574 C   0  0  0  0  0  0  0  0  0  0  0  0
    5.0081   22.3800    7.3671 H   0  0  0  0  0  0  0  0  0  0  0  0
    6.3707   21.9667    8.1666 H   0  0  0  0  0  0  0  0  0  0  0  0
   -0.7801   32.0272    7.9979 H   0  0  0  0  0  0  0  0  0  0  0  0
    0.4570   32.5563    6.9071 H   0  0  0  0  0  0  0  0  0  0  0  0
    3.2720   29.1355    5.3636 H   0  0  0  0  0  0  0  0  0  0  0  0
   -2.6564   25.8464   12.1544 H   0  0  0  0  0  0  0  0  0  0  0  0
   -0.3096   26.3012   11.9692 H   0  0  0  0  0  0  0  0  0  0  0  0
   -3.5572   28.8482    9.5295 H   0  0  0  0  0  0  0  0  0  0  0  0
    4.4277   25.2378    8.8147 H   0  0  0  0  0  0  0  0  0  0  0  0
    6.2224   25.7981    5.0573 H   0  0  0  0  0  0  0  0  0  0  0  0
    0.4163   28.0945   10.5135 H   0  0  0  0  0  0  0  0  0  0  0  0
    2.9792   27.1278    8.4126 H   0  0  0  0  0  0  0  0  0  0  0  0
    4.7773   27.6854    4.6421 H   0  0  0  0  0  0  0  0  0  0  0  0
  1 19  1  0  0  0  0
  1 21  1  0  0  0  0
  2  3  2  0  0  0  0
  2  4  2  0  0  0  0
  2  6  1  0  0  0  0
  2 20  1  0  0  0  0
  5 23  2  0  0  0  0
  7 22  1  0  0  0  0
  8 11  2  0  0  0  0
  8 13  1  0  0  0  0
  9 19  2  0  0  0  0
  9 22  1  0  0  0  0
 10 19  1  0  0  0  0
 10 24  1  0  0  0  0
 11 12  1  0  0  0  0
 12 16  2  0  0  0  0
 13 25  2  0  0  0  0
 14 17  1  0  0  0  0
 14 20  2  0  0  0  0
 15 18  2  0  0  0  0
 15 20  1  0  0  0  0
 16 25  1  0  0  0  0
 17 24  2  0  0  0  0
 18 24  1  0  0  0  0
 21 22  2  0  0  0  0
 21 23  1  0  0  0  0
 23 25  1  0  0  0  0
  6 26  1  0  0  0  0
  6 27  1  0  0  0  0
  7 28  1  0  0  0  0
  7 29  1  0  0  0  0
 10 30  1  0  0  0  0
 11 31  1  0  0  0  0
 12 32  1  0  0  0  0
 13 33  1  0  0  0  0
 14 34  1  0  0  0  0
 15 35  1  0  0  0  0
 16 36  1  0  0  0  0
 17 37  1  0  0  0  0
 18 38  1  0  0  0  0
M  END
> <pdb_id>
3QU0

> <uniprot_id>
P24941

> <usmiles>
S(=O)(=O)(N)c1ccc(NC=2SC(C(=O)c3cnccc3)=C(N2)N)cc1

$$$$
X42_A_453
          07192421083D 1   1.00000     0.00000     0
            
 39 41  0  0  0  0            999 V2000
    0.9756   28.2617    7.7792 S   0  0  0  0  0  0  0  0  0  0  0  0
    6.5200   23.9955    7.2349 S   0  0  0  0  0  0  0  0  0  0  0  0
   -4.6751   26.8774   10.2702 F   0  0  0  0  0  0  0  0  0  0  0  0
    7.5709   24.4650    8.0936 O   0  0  0  0  0  0  0  0  0  0  0  0
    7.0942   23.5177    5.9889 O   0  0  0  0  0  0  0  0  0  0  0  0
   -1.6913   30.8592    8.9186 O   0  0  0  0  0  0  0  0  0  0  0  0
    5.6963   22.7517    8.0355 N   0  0  0  0  0  0  0  0  0  0  0  0
    0.2443   31.9457    7.4147 N   0  0  0  0  0  0  0  0  0  0  0  0
    1.8103   30.4286    6.6539 N   0  0  0  0  0  0  0  0  0  0  0  0
    3.0770   28.6443    6.1460 N   0  0  0  0  0  0  0  0  0  0  0  0
   -1.1411   26.8608   11.2421 C   0  0  0  0  0  0  0  0  0  0  0  0
   -2.5098   26.4956   11.1637 C   0  0  0  0  0  0  0  0  0  0  0  0
    5.6676   26.1595    5.7498 C   0  0  0  0  0  0  0  0  0  0  0  0
    4.4149   25.6637    7.8192 C   0  0  0  0  0  0  0  0  0  0  0  0
   -0.6492   27.9598   10.4876 C   0  0  0  0  0  0  0  0  0  0  0  0
    4.8338   27.2744    5.5081 C   0  0  0  0  0  0  0  0  0  0  0  0
    3.5818   26.7756    7.5815 C   0  0  0  0  0  0  0  0  0  0  0  0
   -2.9181   28.3356    9.5671 C   0  0  0  0  0  0  0  0  0  0  0  0
    2.0697   29.1480    6.7733 C   0  0  0  0  0  0  0  0  0  0  0  0
    0.0726   29.6998    8.0784 C   0  0  0  0  0  0  0  0  0  0  0  0
    5.4548   25.3596    6.9108 C   0  0  0  0  0  0  0  0  0  0  0  0
   -3.3957   27.2284   10.3343 C   0  0  0  0  0  0  0  0  0  0  0  0
   -1.0728   29.7959    8.8790 C   0  0  0  0  0  0  0  0  0  0  0  0
    0.6833   30.7546    7.3853 C   0  0  0  0  0  0  0  0  0  0  0  0
    3.7844   27.5995    6.4223 C   0  0  0  0  0  0  0  0  0  0  0  0
   -1.5357   28.7140    9.6324 C   0  0  0  0  0  0  0  0  0  0  0  0
    4.9590   22.4108    7.4523 H   0  0  0  0  0  0  0  0  0  0  0  0
    6.3324   22.0071    8.2381 H   0  0  0  0  0  0  0  0  0  0  0  0
   -0.5723   32.1645    7.9489 H   0  0  0  0  0  0  0  0  0  0  0  0
    0.7152   32.6649    6.9038 H   0  0  0  0  0  0  0  0  0  0  0  0
    3.3524   29.1370    5.3205 H   0  0  0  0  0  0  0  0  0  0  0  0
   -0.5203   26.3428   11.8305 H   0  0  0  0  0  0  0  0  0  0  0  0
   -2.8503   25.7196   11.6946 H   0  0  0  0  0  0  0  0  0  0  0  0
    6.4025   25.9329    5.1106 H   0  0  0  0  0  0  0  0  0  0  0  0
    4.2710   25.0923    8.6271 H   0  0  0  0  0  0  0  0  0  0  0  0
    0.3164   28.2126   10.5492 H   0  0  0  0  0  0  0  0  0  0  0  0
    4.9785   27.8378    4.6947 H   0  0  0  0  0  0  0  0  0  0  0  0
    2.8460   26.9921    8.2232 H   0  0  0  0  0  0  0  0  0  0  0  0
   -3.5486   28.8475    8.9836 H   0  0  0  0  0  0  0  0  0  0  0  0
  1 19  1  0  0  0  0
  1 20  1  0  0  0  0
  2  4  2  0  0  0  0
  2  5  2  0  0  0  0
  2  7  1  0  0  0  0
  2 21  1  0  0  0  0
  3 22  1  0  0  0  0
  6 23  2  0  0  0  0
  8 24  1  0  0  0  0
  9 19  2  0  0  0  0
  9 24  1  0  0  0  0
 10 19  1  0  0  0  0
 10 25  1  0  0  0  0
 11 12  2  0  0  0  0
 11 15  1  0  0  0  0
 12 22  1  0  0  0  0
 13 16  1  0  0  0  0
 13 21  2  0  0  0  0
 14 17  2  0  0  0  0
 14 21  1  0  0  0  0
 15 26  2  0  0  0  0
 16 25  2  0  0  0  0
 17 25  1  0  0  0  0
 18 22  2  0  0  0  0
 18 26  1  0  0  0  0
 20 23  1  0  0  0  0
 20 24  2  0  0  0  0
 23 26  1  0  0  0  0
  7 27  1  0  0  0  0
  7 28  1  0  0  0  0
  8 29  1  0  0  0  0
  8 30  1  0  0  0  0
 10 31  1  0  0  0  0
 11 32  1  0  0  0  0
 12 33  1  0  0  0  0
 13 34  1  0  0  0  0
 14 35  1  0  0  0  0
 15 36  1  0  0  0  0
 16 37  1  0  0  0  0
 17 38  1  0  0  0  0
 18 39  1  0  0  0  0
M  END
> <pdb_id>
3QTZ

> <uniprot_id>
P24941

> <usmiles>
S(=O)(=O)(N)c1ccc(NC=2SC(C(=O)c3cc(F)ccc3)=C(N2)N)cc1

$$$$
X43_A_299
          07192421083D 1   1.00000     0.00000     0
            
 41 43  0  0  0  0            999 V2000
    1.0654   28.1389    7.9432 S   0  0  0  0  0  0  0  0  0  0  0  0
    6.6541   23.8805    7.2608 S   0  0  0  0  0  0  0  0  0  0  0  0
    7.9768   24.5352    7.9740 O   0  0  0  0  0  0  0  0  0  0  0  0
    7.0886   23.2013    5.9838 O   0  0  0  0  0  0  0  0  0  0  0  0
   -5.4059   26.7822    9.6031 O   0  5  0  0  0  0  0  0  0  0  0  0
   -4.8792   25.2864   11.0838 O   0  0  0  0  0  0  0  0  0  0  0  0
   -1.8531   30.6309    9.0511 O   0  0  0  0  0  0  0  0  0  0  0  0
    6.0648   22.9122    8.3312 N   0  0  0  0  0  0  0  0  0  0  0  0
   -0.0880   31.7902    7.2301 N   0  0  0  0  0  0  0  0  0  0  0  0
    1.5984   30.2965    6.6325 N   0  0  0  0  0  0  0  0  0  0  0  0
    3.2098   28.6542    6.2377 N   0  0  0  0  0  0  0  0  0  0  0  0
   -4.5115   26.2352   10.4214 N   0  3  0  0  0  0  0  0  0  0  0  0
   -0.9671   26.6228   11.4868 C   0  0  0  0  0  0  0  0  0  0  0  0
    5.9475   26.1822    5.9764 C   0  0  0  0  0  0  0  0  0  0  0  0
    4.3972   25.3795    7.7028 C   0  0  0  0  0  0  0  0  0  0  0  0
    5.1255   27.3050    5.7294 C   0  0  0  0  0  0  0  0  0  0  0  0
    3.5733   26.5062    7.4687 C   0  0  0  0  0  0  0  0  0  0  0  0
   -2.2902   26.1153   11.4007 C   0  0  0  0  0  0  0  0  0  0  0  0
   -0.5756   27.7316   10.6876 C   0  0  0  0  0  0  0  0  0  0  0  0
   -2.8427   27.8403    9.7053 C   0  0  0  0  0  0  0  0  0  0  0  0
    2.0540   29.0621    6.8661 C   0  0  0  0  0  0  0  0  0  0  0  0
    0.0296   29.5081    8.1224 C   0  0  0  0  0  0  0  0  0  0  0  0
    5.5919   25.2275    6.9612 C   0  0  0  0  0  0  0  0  0  0  0  0
    0.4852   30.5681    7.3278 C   0  0  0  0  0  0  0  0  0  0  0  0
   -1.0806   29.5180    8.9495 C   0  0  0  0  0  0  0  0  0  0  0  0
    3.9214   27.4980    6.4727 C   0  0  0  0  0  0  0  0  0  0  0  0
   -3.2625   26.7114   10.5097 C   0  0  0  0  0  0  0  0  0  0  0  0
   -1.5084   28.3509    9.7872 C   0  0  0  0  0  0  0  0  0  0  0  0
    5.2459   22.4698    7.9657 H   0  0  0  0  0  0  0  0  0  0  0  0
    6.7450   22.2163    8.5616 H   0  0  0  0  0  0  0  0  0  0  0  0
   -0.9186   31.9957    7.7476 H   0  0  0  0  0  0  0  0  0  0  0  0
    0.3191   32.4876    6.6403 H   0  0  0  0  0  0  0  0  0  0  0  0
    3.5723   29.2644    5.5333 H   0  0  0  0  0  0  0  0  0  0  0  0
   -0.3097   26.1999   12.1105 H   0  0  0  0  0  0  0  0  0  0  0  0
    6.7892   26.0602    5.4505 H   0  0  0  0  0  0  0  0  0  0  0  0
    4.1370   24.6973    8.3861 H   0  0  0  0  0  0  0  0  0  0  0  0
    5.3887   27.9689    5.0294 H   0  0  0  0  0  0  0  0  0  0  0  0
    2.7347   26.6197    8.0015 H   0  0  0  0  0  0  0  0  0  0  0  0
   -2.5547   25.3332   11.9649 H   0  0  0  0  0  0  0  0  0  0  0  0
    0.3580   28.0838   10.7527 H   0  0  0  0  0  0  0  0  0  0  0  0
   -3.4963   28.2701    9.0823 H   0  0  0  0  0  0  0  0  0  0  0  0
  1 21  1  0  0  0  0
  1 22  1  0  0  0  0
  2  3  2  0  0  0  0
  2  4  2  0  0  0  0
  2  8  1  0  0  0  0
  2 23  1  0  0  0  0
  5 12  1  0  0  0  0
  6 12  2  0  0  0  0
  7 25  2  0  0  0  0
  9 24  1  0  0  0  0
 10 21  2  0  0  0  0
 10 24  1  0  0  0  0
 11 21  1  0  0  0  0
 11 26  1  0  0  0  0
 12 27  1  0  0  0  0
 13 18  1  0  0  0  0
 13 19  2  0  0  0  0
 14 16  1  0  0  0  0
 14 23  2  0  0  0  0
 15 17  2  0  0  0  0
 15 23  1  0  0  0  0
 16 26  2  0  0  0  0
 17 26  1  0  0  0  0
 18 27  2  0  0  0  0
 19 28  1  0  0  0  0
 20 27  1  0  0  0  0
 20 28  2  0  0  0  0
 22 24  2  0  0  0  0
 22 25  1  0  0  0  0
 25 28  1  0  0  0  0
  8 29  1  0  0  0  0
  8 30  1  0  0  0  0
  9 31  1  0  0  0  0
  9 32  1  0  0  0  0
 11 33  1  0  0  0  0
 13 34  1  0  0  0  0
 14 35  1  0  0  0  0
 15 36  1  0  0  0  0
 16 37  1  0  0  0  0
 17 38  1  0  0  0  0
 18 39  1  0  0  0  0
 19 40  1  0  0  0  0
 20 41  1  0  0  0  0
M  CHG  2   5  -1  12   1
M  END
> <pdb_id>
3QTX

> <uniprot_id>
P24941

> <usmiles>
S(=O)(=O)(N)c1ccc(NC=2SC(C(=O)c3cc([N+]([O-])=O)ccc3)=C(N2)N)cc1

$$$$
X4G_A_701
          07192419173D 1   1.00000     0.00000     0
            
 63 66  0  0  0  0            999 V2000
    6.5438    0.6996   14.9463 F   0  0  0  0  0  0  0  0  0  0  0  0
   -6.0307   -1.7372   13.2905 O   0  0  0  0  0  0  0  0  0  0  0  0
   -0.8489    5.2294   13.8413 O   0  0  0  0  0  0  0  0  0  0  0  0
   -3.4781   -0.9771   13.9969 O   0  0  0  0  0  0  0  0  0  0  0  0
    3.9300   -1.3647   16.2067 N   0  0  0  0  0  0  0  0  0  0  0  0
    2.9903   -0.0138   14.5802 N   0  0  0  0  0  0  0  0  0  0  0  0
    1.6958   -1.6371   15.8289 N   0  0  0  0  0  0  0  0  0  0  0  0
    1.9748    5.0270   11.8354 N   0  0  0  0  0  0  0  0  0  0  0  0
    4.2161    1.5821   13.4066 N   0  0  0  0  0  0  0  0  0  0  0  0
    5.6340    4.3245   11.4707 C   0  0  0  0  0  0  0  0  0  0  0  0
   -1.6080    0.9341   13.1179 C   0  0  0  0  0  0  0  0  0  0  0  0
   -2.9229   -3.1932   15.7528 C   0  0  0  0  0  0  0  0  0  0  0  0
   -5.0743   -1.2490   12.3313 C   0  0  0  0  0  0  0  0  0  0  0  0
   -3.6667   -1.6628   12.7616 C   0  0  0  0  0  0  0  0  0  0  0  0
    5.1196   -0.8146   16.0244 C   0  0  0  0  0  0  0  0  0  0  0  0
    0.9518    5.7329   11.0456 C   0  0  0  0  0  0  0  0  0  0  0  0
    1.3182    4.6674   13.0977 C   0  0  0  0  0  0  0  0  0  0  0  0
    2.4435    3.8257   11.1410 C   0  0  0  0  0  0  0  0  0  0  0  0
    5.2523    2.3582   13.0312 C   0  0  0  0  0  0  0  0  0  0  0  0
    3.1128    2.0396   12.7976 C   0  0  0  0  0  0  0  0  0  0  0  0
    0.1235    6.5196   12.0722 C   0  0  0  0  0  0  0  0  0  0  0  0
    0.0920   -0.3717   14.4975 C   0  0  0  0  0  0  0  0  0  0  0  0
   -0.5574   -2.3211   15.7311 C   0  0  0  0  0  0  0  0  0  0  0  0
    2.8440   -0.9943   15.5093 C   0  0  0  0  0  0  0  0  0  0  0  0
    5.2990    0.1873   15.0834 C   0  0  0  0  0  0  0  0  0  0  0  0
    0.3690    5.8090   13.4059 C   0  0  1  0  0  0  0  0  0  0  0  0
    4.1857    0.5831   14.3115 C   0  0  0  0  0  0  0  0  0  0  0  0
   -2.2065   -1.1315   14.4379 C   0  0  0  0  0  0  0  0  0  0  0  0
    0.4488   -1.4252   15.3470 C   0  0  0  0  0  0  0  0  0  0  0  0
    4.7865    3.2497   12.1675 C   0  0  0  0  0  0  0  0  0  0  0  0
   -1.2261   -0.2267   14.0432 C   0  0  0  0  0  0  0  0  0  0  0  0
   -1.8729   -2.1802   15.2929 C   0  0  0  0  0  0  0  0  0  0  0  0
    3.4259    3.0586   12.0183 C   0  0  0  0  0  0  0  0  0  0  0  0
   -6.9518   -1.4670   13.0099 H   0  0  0  0  0  0  0  0  0  0  0  0
   -1.5047    5.9533   14.0555 H   0  0  0  0  0  0  0  0  0  0  0  0
    1.7803   -2.3639   16.5105 H   0  0  0  0  0  0  0  0  0  0  0  0
    5.0510    4.8704   10.8689 H   0  0  0  0  0  0  0  0  0  0  0  0
    6.0512    4.9181   12.1589 H   0  0  0  0  0  0  0  0  0  0  0  0
    6.3516    3.8849   10.9305 H   0  0  0  0  0  0  0  0  0  0  0  0
   -2.5819    0.8784   12.8978 H   0  0  0  0  0  0  0  0  0  0  0  0
   -1.4192    1.8022   13.5770 H   0  0  0  0  0  0  0  0  0  0  0  0
   -1.0721    0.8790   12.2755 H   0  0  0  0  0  0  0  0  0  0  0  0
   -3.8100   -2.9574   15.3560 H   0  0  0  0  0  0  0  0  0  0  0  0
   -2.6564   -4.1092   15.4528 H   0  0  0  0  0  0  0  0  0  0  0  0
   -2.9888   -3.1754   16.7505 H   0  0  0  0  0  0  0  0  0  0  0  0
   -5.1289   -0.2516   12.2837 H   0  0  0  0  0  0  0  0  0  0  0  0
   -5.2758   -1.6371   11.4320 H   0  0  0  0  0  0  0  0  0  0  0  0
   -3.6095   -2.6528   12.8905 H   0  0  0  0  0  0  0  0  0  0  0  0
   -2.9878   -1.3748   12.0862 H   0  0  0  0  0  0  0  0  0  0  0  0
    5.8973   -1.1249   16.5712 H   0  0  0  0  0  0  0  0  0  0  0  0
    0.3745    5.0798   10.5555 H   0  0  0  0  0  0  0  0  0  0  0  0
    1.3814    6.3548   10.3908 H   0  0  0  0  0  0  0  0  0  0  0  0
    1.9950    4.5700   13.8274 H   0  0  0  0  0  0  0  0  0  0  0  0
    0.8121    3.8110   12.9958 H   0  0  0  0  0  0  0  0  0  0  0  0
    2.8983    4.0919   10.2911 H   0  0  0  0  0  0  0  0  0  0  0  0
    1.6612    3.2394   10.9309 H   0  0  0  0  0  0  0  0  0  0  0  0
    6.1979    2.2767   13.3462 H   0  0  0  0  0  0  0  0  0  0  0  0
    2.1928    1.6660   12.9155 H   0  0  0  0  0  0  0  0  0  0  0  0
   -0.8474    6.4948   11.8339 H   0  0  0  0  0  0  0  0  0  0  0  0
    0.4312    7.4700   12.1182 H   0  0  0  0  0  0  0  0  0  0  0  0
    0.7874    0.2871   14.2105 H   0  0  0  0  0  0  0  0  0  0  0  0
   -0.3254   -3.0825   16.3364 H   0  0  0  0  0  0  0  0  0  0  0  0
    0.7484    6.4303   14.0914 H   0  0  0  0  0  0  0  0  0  0  0  0
  1 25  1  0  0  0  0
  2 13  1  0  0  0  0
  3 26  1  0  0  0  0
  4 14  1  0  0  0  0
  4 28  1  0  0  0  0
  5 15  2  0  0  0  0
  5 24  1  0  0  0  0
  6 24  2  0  0  0  0
  6 27  1  0  0  0  0
  7 24  1  0  0  0  0
  7 29  1  0  0  0  0
  8 16  1  0  0  0  0
  8 17  1  0  0  0  0
  8 18  1  0  0  0  0
  9 19  1  0  0  0  0
  9 20  1  0  0  0  0
  9 27  1  0  0  0  0
 10 30  1  0  0  0  0
 11 31  1  0  0  0  0
 12 32  1  0  0  0  0
 13 14  1  0  0  0  0
 15 25  1  0  0  0  0
 16 21  1  0  0  0  0
 17 26  1  0  0  0  0
 18 33  1  0  0  0  0
 19 30  2  0  0  0  0
 20 33  2  0  0  0  0
 21 26  1  0  0  0  0
 22 29  2  0  0  0  0
 22 31  1  0  0  0  0
 23 29  1  0  0  0  0
 23 32  2  0  0  0  0
 25 27  2  0  0  0  0
 28 31  2  0  0  0  0
 28 32  1  0  0  0  0
 30 33  1  0  0  0  0
  2 34  1  0  0  0  0
  3 35  1  0  0  0  0
  7 36  1  0  0  0  0
 10 37  1  0  0  0  0
 10 38  1  0  0  0  0
 10 39  1  0  0  0  0
 11 40  1  0  0  0  0
 11 41  1  0  0  0  0
 11 42  1  0  0  0  0
 12 43  1  0  0  0  0
 12 44  1  0  0  0  0
 12 45  1  0  0  0  0
 13 46  1  0  0  0  0
 13 47  1  0  0  0  0
 14 48  1  0  0  0  0
 14 49  1  0  0  0  0
 15 50  1  0  0  0  0
 16 51  1  0  0  0  0
 16 52  1  0  0  0  0
 17 53  1  0  0  0  0
 17 54  1  0  0  0  0
 18 55  1  0  0  0  0
 18 56  1  0  0  0  0
 19 57  1  0  0  0  0
 20 58  1  0  0  0  0
 21 59  1  0  0  0  0
 21 60  1  0  0  0  0
 22 61  1  0  0  0  0
 23 62  1  0  0  0  0
 26 63  1  0  0  0  0
M  END
> <pdb_id>
4XG4

> <uniprot_id>
P43405

> <usmiles>
Fc1c(nc(nc1)Nc2cc(c(OCCO)c(c2)C)C)N3C=C(C(=C3)C)CN4C[C@H](O)CC4

$$$$
X7A_A_403
          07202417303D 1   1.00000     0.00000     0
            
 49 49  0  0  0  0            999 V2000
  -58.2158  -18.8602   56.0969 O   0  0  0  0  0  0  0  0  0  0  0  0
  -57.1428  -20.7213   56.5944 O   0  0  0  0  0  0  0  0  0  0  0  0
  -52.9462  -21.2163   50.4307 O   0  0  0  0  0  0  0  0  0  0  0  0
  -52.0394  -18.6590   50.5655 O   0  0  0  0  0  0  0  0  0  0  0  0
  -54.3843  -19.2129   49.3595 O   0  0  0  0  0  0  0  0  0  0  0  0
  -59.2161  -19.7438   53.8080 N   0  0  0  0  0  0  0  0  0  0  0  0
  -61.2853  -23.0477   54.0754 N   0  0  0  0  0  0  0  0  0  0  0  0
  -61.9928  -23.5321   52.9356 C   0  0  0  0  0  0  0  0  0  0  0  0
  -61.0983  -24.0248   55.0967 C   0  0  0  0  0  0  0  0  0  0  0  0
  -60.2054  -22.5294   53.7241 C   0  0  0  0  0  0  0  0  0  0  0  0
  -63.2997  -24.2636   53.2758 C   0  0  0  0  0  0  0  0  0  0  0  0
  -62.2940  -24.9291   55.3963 C   0  0  0  0  0  0  0  0  0  0  0  0
  -63.1953  -25.2319   54.3039 C   0  0  0  0  0  0  0  0  0  0  0  0
  -56.1817  -20.1937   53.5382 C   0  0  0  0  0  0  0  0  0  0  0  0
  -55.1542  -20.5968   52.4275 C   0  0  0  0  0  0  0  0  0  0  0  0
  -59.4129  -21.8849   54.9323 C   0  0  0  0  0  0  0  0  0  0  0  0
  -57.3412  -21.2071   53.6612 C   0  0  0  0  0  0  0  0  0  0  0  0
  -54.1521  -19.4219   52.1161 C   0  0  0  0  0  0  0  0  0  0  0  0
  -57.9121  -20.0564   55.8194 C   0  0  0  0  0  0  0  0  0  0  0  0
  -58.4858  -20.7092   54.5262 C   0  0  1  0  0  0  0  0  0  0  0  0
  -53.4097  -19.6395   50.6343 B   0  5  0  0  0  0  0  0  0  0  0  0
  -58.8178  -18.3431   55.4884 H   0  0  0  0  0  0  0  0  0  0  0  0
  -53.7513  -21.8081   50.4696 H   0  0  0  0  0  0  0  0  0  0  0  0
  -52.3071  -17.7032   50.6873 H   0  0  0  0  0  0  0  0  0  0  0  0
  -54.6746  -18.2619   49.4656 H   0  0  0  0  0  0  0  0  0  0  0  0
  -58.6103  -18.9908   53.5510 H   0  0  0  0  0  0  0  0  0  0  0  0
  -59.5982  -20.1606   52.9832 H   0  0  0  0  0  0  0  0  0  0  0  0
  -61.3973  -24.1657   52.4417 H   0  0  0  0  0  0  0  0  0  0  0  0
  -62.2121  -22.7537   52.3475 H   0  0  0  0  0  0  0  0  0  0  0  0
  -60.8623  -23.5424   55.9403 H   0  0  0  0  0  0  0  0  0  0  0  0
  -60.3350  -24.6098   54.8226 H   0  0  0  0  0  0  0  0  0  0  0  0
  -60.3978  -21.8153   53.0510 H   0  0  0  0  0  0  0  0  0  0  0  0
  -59.6330  -23.2352   53.3068 H   0  0  0  0  0  0  0  0  0  0  0  0
  -63.6218  -24.7237   52.4483 H   0  0  0  0  0  0  0  0  0  0  0  0
  -63.9722  -23.5805   53.5605 H   0  0  0  0  0  0  0  0  0  0  0  0
  -62.8316  -24.4865   56.1139 H   0  0  0  0  0  0  0  0  0  0  0  0
  -61.9343  -25.7977   55.7370 H   0  0  0  0  0  0  0  0  0  0  0  0
  -62.8870  -26.0860   53.8850 H   0  0  0  0  0  0  0  0  0  0  0  0
  -64.1080  -25.3613   54.6916 H   0  0  0  0  0  0  0  0  0  0  0  0
  -56.5616  -19.2962   53.3142 H   0  0  0  0  0  0  0  0  0  0  0  0
  -55.7039  -20.1439   54.4153 H   0  0  0  0  0  0  0  0  0  0  0  0
  -55.6527  -20.8290   51.5923 H   0  0  0  0  0  0  0  0  0  0  0  0
  -54.6352  -21.3931   52.7382 H   0  0  0  0  0  0  0  0  0  0  0  0
  -58.8513  -22.5964   55.3546 H   0  0  0  0  0  0  0  0  0  0  0  0
  -60.0773  -21.5455   55.5983 H   0  0  0  0  0  0  0  0  0  0  0  0
  -56.9841  -22.0507   54.0622 H   0  0  0  0  0  0  0  0  0  0  0  0
  -57.6950  -21.3971   52.7454 H   0  0  0  0  0  0  0  0  0  0  0  0
  -53.4528  -19.3915   52.8302 H   0  0  0  0  0  0  0  0  0  0  0  0
  -54.6554  -18.5579   52.1053 H   0  0  0  0  0  0  0  0  0  0  0  0
  1 19  1  0  0  0  0
  2 19  2  0  0  0  0
  3 21  1  0  0  0  0
  4 21  1  0  0  0  0
  5 21  1  0  0  0  0
  6 20  1  0  0  0  0
  7  8  1  0  0  0  0
  7  9  1  0  0  0  0
  7 10  1  0  0  0  0
  8 11  1  0  0  0  0
  9 12  1  0  0  0  0
 10 16  1  0  0  0  0
 11 13  1  0  0  0  0
 12 13  1  0  0  0  0
 14 15  1  0  0  0  0
 14 17  1  0  0  0  0
 15 18  1  0  0  0  0
 16 20  1  0  0  0  0
 17 20  1  0  0  0  0
 18 21  1  0  0  0  0
 19 20  1  0  0  0  0
  1 22  1  0  0  0  0
  3 23  1  0  0  0  0
  4 24  1  0  0  0  0
  5 25  1  0  0  0  0
  6 26  1  0  0  0  0
  6 27  1  0  0  0  0
  8 28  1  0  0  0  0
  8 29  1  0  0  0  0
  9 30  1  0  0  0  0
  9 31  1  0  0  0  0
 10 32  1  0  0  0  0
 10 33  1  0  0  0  0
 11 34  1  0  0  0  0
 11 35  1  0  0  0  0
 12 36  1  0  0  0  0
 12 37  1  0  0  0  0
 13 38  1  0  0  0  0
 13 39  1  0  0  0  0
 14 40  1  0  0  0  0
 14 41  1  0  0  0  0
 15 42  1  0  0  0  0
 15 43  1  0  0  0  0
 16 44  1  0  0  0  0
 16 45  1  0  0  0  0
 17 46  1  0  0  0  0
 17 47  1  0  0  0  0
 18 48  1  0  0  0  0
 18 49  1  0  0  0  0
M  CHG  1  21  -1
M  END
> <pdb_id>
4Q3S

> <uniprot_id>
Q6WVP6

> <usmiles>
O=C(O)[C@](N)(CCN1CCCCC1)CCCC[B-](O)(O)O

$$$$
X7A_A_403
          07202406483D 1   1.00000     0.00000     0
            
 50 50  0  0  0  0            999 V2000
   13.8078  -23.9560   30.0055 O   0  0  0  0  0  0  0  0  0  0  0  0
   13.8587  -23.2125   27.9451 O   0  0  0  0  0  0  0  0  0  0  0  0
   17.4202  -16.2015   30.1804 O   0  0  0  0  0  0  0  0  0  0  0  0
   15.1758  -16.2680   31.4525 O   0  0  0  0  0  0  0  0  0  0  0  0
   15.1915  -15.8430   28.7891 O   0  0  0  0  0  0  0  0  0  0  0  0
   11.7793  -22.3587   30.7468 N   0  3  0  0  0  0  0  0  0  0  0  0
    9.5458  -24.2936   27.8221 N   0  0  0  0  0  0  0  0  0  0  0  0
    8.2599  -23.8044   28.1940 C   0  0  0  0  0  0  0  0  0  0  0  0
    9.5093  -25.6973   27.5661 C   0  0  0  0  0  0  0  0  0  0  0  0
   10.4093  -23.9918   28.6826 C   0  0  0  0  0  0  0  0  0  0  0  0
    7.2280  -24.1646   27.1251 C   0  0  0  0  0  0  0  0  0  0  0  0
    8.4536  -26.0888   26.5437 C   0  0  0  0  0  0  0  0  0  0  0  0
    7.1687  -25.5504   26.8784 C   0  0  0  0  0  0  0  0  0  0  0  0
   13.9712  -20.3434   29.5653 C   0  0  0  0  0  0  0  0  0  0  0  0
   14.1729  -18.7903   29.5963 C   0  0  0  0  0  0  0  0  0  0  0  0
   11.0283  -22.5638   28.4251 C   0  0  0  0  0  0  0  0  0  0  0  0
   12.5226  -20.7436   29.1966 C   0  0  0  0  0  0  0  0  0  0  0  0
   15.6830  -18.3666   29.7590 C   0  0  0  0  0  0  0  0  0  0  0  0
   13.3541  -23.1848   29.1113 C   0  0  0  0  0  0  0  0  0  0  0  0
   12.1694  -22.2072   29.4065 C   0  0  1  0  0  0  0  0  0  0  0  0
   15.8371  -16.7205   30.0222 B   0  5  0  0  0  0  0  0  0  0  0  0
   17.9734  -16.8850   30.0428 H   0  0  0  0  0  0  0  0  0  0  0  0
   14.3125  -16.0768   31.3328 H   0  0  0  0  0  0  0  0  0  0  0  0
   15.7667  -15.7960   28.1326 H   0  0  0  0  0  0  0  0  0  0  0  0
   11.8823  -23.2274   30.9955 H   0  0  0  0  0  0  0  0  0  0  0  0
   12.3114  -21.8165   31.2889 H   0  0  0  0  0  0  0  0  0  0  0  0
   10.8794  -22.1098   30.8414 H   0  0  0  0  0  0  0  0  0  0  0  0
    8.2999  -22.8253   28.2859 H   0  0  0  0  0  0  0  0  0  0  0  0
    7.9868  -24.2135   29.0819 H   0  0  0  0  0  0  0  0  0  0  0  0
   10.3855  -25.9799   27.2330 H   0  0  0  0  0  0  0  0  0  0  0  0
    9.3215  -26.1749   28.4201 H   0  0  0  0  0  0  0  0  0  0  0  0
    9.9859  -23.9982   29.5937 H   0  0  0  0  0  0  0  0  0  0  0  0
   11.1245  -24.6584   28.6696 H   0  0  0  0  0  0  0  0  0  0  0  0
    7.4508  -23.7085   26.3048 H   0  0  0  0  0  0  0  0  0  0  0  0
    6.3362  -23.8481   27.4133 H   0  0  0  0  0  0  0  0  0  0  0  0
    8.3923  -27.0654   26.5051 H   0  0  0  0  0  0  0  0  0  0  0  0
    8.7280  -25.7424   25.6441 H   0  0  0  0  0  0  0  0  0  0  0  0
    6.8265  -26.0026   27.6724 H   0  0  0  0  0  0  0  0  0  0  0  0
    6.5429  -25.7222   26.1420 H   0  0  0  0  0  0  0  0  0  0  0  0
   14.5720  -20.7227   28.9076 H   0  0  0  0  0  0  0  0  0  0  0  0
   14.1913  -20.7089   30.4400 H   0  0  0  0  0  0  0  0  0  0  0  0
   13.8339  -18.4126   28.7392 H   0  0  0  0  0  0  0  0  0  0  0  0
   13.6446  -18.4121   30.3410 H   0  0  0  0  0  0  0  0  0  0  0  0
   11.3760  -22.5307   27.5090 H   0  0  0  0  0  0  0  0  0  0  0  0
   10.3237  -21.8995   28.5150 H   0  0  0  0  0  0  0  0  0  0  0  0
   11.9131  -20.2048   29.7338 H   0  0  0  0  0  0  0  0  0  0  0  0
   12.3754  -20.5262   28.2586 H   0  0  0  0  0  0  0  0  0  0  0  0
   16.0978  -18.8606   30.5165 H   0  0  0  0  0  0  0  0  0  0  0  0
   16.1559  -18.5917   28.9253 H   0  0  0  0  0  0  0  0  0  0  0  0
   13.4159  -23.9400   30.9254 H   0  0  0  0  0  0  0  0  0  0  0  0
  1 19  1  0  0  0  0
  2 19  2  0  0  0  0
  3 21  1  0  0  0  0
  3 22  1  0  0  0  0
  4 21  1  0  0  0  0
  4 23  1  0  0  0  0
  5 21  1  0  0  0  0
  5 24  1  0  0  0  0
  6 20  1  0  0  0  0
  6 25  1  0  0  0  0
  6 26  1  0  0  0  0
  6 27  1  0  0  0  0
  7  8  1  0  0  0  0
  7  9  1  0  0  0  0
  7 10  1  0  0  0  0
  8 11  1  0  0  0  0
  8 28  1  0  0  0  0
  8 29  1  0  0  0  0
  9 12  1  0  0  0  0
  9 30  1  0  0  0  0
  9 31  1  0  0  0  0
 10 16  1  0  0  0  0
 10 32  1  0  0  0  0
 10 33  1  0  0  0  0
 11 13  1  0  0  0  0
 11 34  1  0  0  0  0
 11 35  1  0  0  0  0
 12 13  1  0  0  0  0
 12 36  1  0  0  0  0
 12 37  1  0  0  0  0
 13 38  1  0  0  0  0
 13 39  1  0  0  0  0
 14 15  1  0  0  0  0
 14 17  1  0  0  0  0
 14 40  1  0  0  0  0
 14 41  1  0  0  0  0
 15 18  1  0  0  0  0
 15 42  1  0  0  0  0
 15 43  1  0  0  0  0
 16 20  1  0  0  0  0
 16 44  1  0  0  0  0
 16 45  1  0  0  0  0
 17 20  1  0  0  0  0
 17 46  1  0  0  0  0
 17 47  1  0  0  0  0
 18 21  1  0  0  0  0
 18 48  1  0  0  0  0
 18 49  1  0  0  0  0
 19 20  1  0  0  0  0
  1 50  1  0  0  0  0
M  CHG  2   6   1  21  -1
M  END
> <pdb_id>
5HJ9

> <uniprot_id>
Q6TUJ5

> <usmiles>
O=C(O)[C@]([NH3+])(CCN1CCCCC1)CCCC[B-](O)(O)O

$$$$
X7A_A_406
          07212403283D 1   1.00000     0.00000     0
            
 49 49  0  0  0  0            999 V2000
   35.1806   89.0593   72.2115 O   0  0  0  0  0  0  0  0  0  0  0  0
   33.2797   89.5865   71.2583 O   0  0  0  0  0  0  0  0  0  0  0  0
   38.6348   85.8121   66.5751 O   0  0  0  0  0  0  0  0  0  0  0  0
   38.0379   87.7253   65.2432 O   0  0  0  0  0  0  0  0  0  0  0  0
   36.5158   85.8527   65.5503 O   0  0  0  0  0  0  0  0  0  0  0  0
   32.5059   87.1186   70.8355 N   0  0  0  0  0  0  0  0  0  0  0  0
   33.3640   85.6260   74.6624 N   0  0  0  0  0  0  0  0  0  0  0  0
   33.1220   84.2683   74.1599 C   0  0  0  0  0  0  0  0  0  0  0  0
   32.4213   85.9125   75.7549 C   0  0  0  0  0  0  0  0  0  0  0  0
   33.1756   86.5891   73.5561 C   0  0  0  0  0  0  0  0  0  0  0  0
   33.4055   83.2485   75.2559 C   0  0  0  0  0  0  0  0  0  0  0  0
   32.6655   84.9494   76.9185 C   0  0  0  0  0  0  0  0  0  0  0  0
   32.5114   83.5010   76.4617 C   0  0  0  0  0  0  0  0  0  0  0  0
   36.2086   86.9320   70.0012 C   0  0  0  0  0  0  0  0  0  0  0  0
   36.7952   86.3265   68.7243 C   0  0  0  0  0  0  0  0  0  0  0  0
   34.2006   86.4029   72.4359 C   0  0  0  0  0  0  0  0  0  0  0  0
   34.6910   86.9073   69.9499 C   0  0  0  0  0  0  0  0  0  0  0  0
   36.9895   87.3791   67.6175 C   0  0  0  0  0  0  0  0  0  0  0  0
   34.1470   88.7430   71.5834 C   0  0  0  0  0  0  0  0  0  0  0  0
   33.9141   87.2970   71.2196 C   0  0  1  0  0  0  0  0  0  0  0  0
   37.4589   86.7735   66.2400 B   0  5  0  0  0  0  0  0  0  0  0  0
   35.8520   88.3591   72.4546 H   0  0  0  0  0  0  0  0  0  0  0  0
   38.3307   85.1339   67.2440 H   0  0  0  0  0  0  0  0  0  0  0  0
   37.3400   88.3873   64.9699 H   0  0  0  0  0  0  0  0  0  0  0  0
   35.6974   86.3577   65.2763 H   0  0  0  0  0  0  0  0  0  0  0  0
   32.3009   87.6941   70.0438 H   0  0  0  0  0  0  0  0  0  0  0  0
   32.3430   86.1600   70.6020 H   0  0  0  0  0  0  0  0  0  0  0  0
   33.7227   84.0919   73.3801 H   0  0  0  0  0  0  0  0  0  0  0  0
   32.1681   84.1873   73.8710 H   0  0  0  0  0  0  0  0  0  0  0  0
   31.4848   85.8007   75.4227 H   0  0  0  0  0  0  0  0  0  0  0  0
   32.5536   86.8526   76.0691 H   0  0  0  0  0  0  0  0  0  0  0  0
   33.2632   87.5164   73.9200 H   0  0  0  0  0  0  0  0  0  0  0  0
   32.2590   86.4654   73.1759 H   0  0  0  0  0  0  0  0  0  0  0  0
   34.3630   83.3225   75.5348 H   0  0  0  0  0  0  0  0  0  0  0  0
   33.2311   82.3292   74.9033 H   0  0  0  0  0  0  0  0  0  0  0  0
   32.0035   85.1369   77.6442 H   0  0  0  0  0  0  0  0  0  0  0  0
   33.5920   85.0863   77.2690 H   0  0  0  0  0  0  0  0  0  0  0  0
   32.7751   82.8874   77.2060 H   0  0  0  0  0  0  0  0  0  0  0  0
   31.5585   83.3306   76.2110 H   0  0  0  0  0  0  0  0  0  0  0  0
   36.5200   87.8781   70.0905 H   0  0  0  0  0  0  0  0  0  0  0  0
   36.5203   86.4026   70.7903 H   0  0  0  0  0  0  0  0  0  0  0  0
   36.1744   85.6178   68.3893 H   0  0  0  0  0  0  0  0  0  0  0  0
   37.6823   85.9181   68.9396 H   0  0  0  0  0  0  0  0  0  0  0  0
   34.1841   85.4472   72.1420 H   0  0  0  0  0  0  0  0  0  0  0  0
   35.1081   86.6267   72.7914 H   0  0  0  0  0  0  0  0  0  0  0  0
   34.4176   85.9760   69.7092 H   0  0  0  0  0  0  0  0  0  0  0  0
   34.4086   87.5355   69.2250 H   0  0  0  0  0  0  0  0  0  0  0  0
   37.6783   88.0360   67.9243 H   0  0  0  0  0  0  0  0  0  0  0  0
   36.1194   87.8508   67.4746 H   0  0  0  0  0  0  0  0  0  0  0  0
  1 19  1  0  0  0  0
  2 19  2  0  0  0  0
  3 21  1  0  0  0  0
  4 21  1  0  0  0  0
  5 21  1  0  0  0  0
  6 20  1  0  0  0  0
  7  8  1  0  0  0  0
  7  9  1  0  0  0  0
  7 10  1  0  0  0  0
  8 11  1  0  0  0  0
  9 12  1  0  0  0  0
 10 16  1  0  0  0  0
 11 13  1  0  0  0  0
 12 13  1  0  0  0  0
 14 15  1  0  0  0  0
 14 17  1  0  0  0  0
 15 18  1  0  0  0  0
 16 20  1  0  0  0  0
 17 20  1  0  0  0  0
 18 21  1  0  0  0  0
 19 20  1  0  0  0  0
  1 22  1  0  0  0  0
  3 23  1  0  0  0  0
  4 24  1  0  0  0  0
  5 25  1  0  0  0  0
  6 26  1  0  0  0  0
  6 27  1  0  0  0  0
  8 28  1  0  0  0  0
  8 29  1  0  0  0  0
  9 30  1  0  0  0  0
  9 31  1  0  0  0  0
 10 32  1  0  0  0  0
 10 33  1  0  0  0  0
 11 34  1  0  0  0  0
 11 35  1  0  0  0  0
 12 36  1  0  0  0  0
 12 37  1  0  0  0  0
 13 38  1  0  0  0  0
 13 39  1  0  0  0  0
 14 40  1  0  0  0  0
 14 41  1  0  0  0  0
 15 42  1  0  0  0  0
 15 43  1  0  0  0  0
 16 44  1  0  0  0  0
 16 45  1  0  0  0  0
 17 46  1  0  0  0  0
 17 47  1  0  0  0  0
 18 48  1  0  0  0  0
 18 49  1  0  0  0  0
M  CHG  1  21  -1
M  END
> <pdb_id>
4HZE

> <uniprot_id>
P78540

> <usmiles>
O=C(O)[C@](N)(CCN1CCCCC1)CCCC[B-](O)(O)O

$$$$
X7A_B_403
          07202417303D 1   1.00000     0.00000     0
            
 47 47  0  0  0  0            999 V2000
  -58.1182  -18.8207   56.1185 O   0  0  0  0  0  0  0  0  0  0  0  0
  -57.1197  -20.7193   56.6381 O   0  0  0  0  0  0  0  0  0  0  0  0
  -52.8131  -21.2726   50.4682 O   0  0  0  0  0  0  0  0  0  0  0  0
  -51.9562  -18.7098   50.5988 O   0  0  0  0  0  0  0  0  0  0  0  0
  -54.3171  -19.2868   49.4007 O   0  0  0  0  0  0  0  0  0  0  0  0
  -59.2353  -19.7179   53.8932 N   0  0  0  0  0  0  0  0  0  0  0  0
  -61.2519  -23.0386   54.1668 N   0  0  0  0  0  0  0  0  0  0  0  0
  -61.9698  -23.4998   53.0248 C   0  0  0  0  0  0  0  0  0  0  0  0
  -60.9676  -24.0775   55.0940 C   0  0  0  0  0  0  0  0  0  0  0  0
  -60.2110  -22.4687   53.7935 C   0  0  0  0  0  0  0  0  0  0  0  0
  -63.1991  -24.3742   53.3241 C   0  0  0  0  0  0  0  0  0  0  0  0
  -62.1696  -24.9330   55.4848 C   0  0  0  0  0  0  0  0  0  0  0  0
  -63.1287  -25.2357   54.4467 C   0  0  0  0  0  0  0  0  0  0  0  0
  -56.2075  -20.1603   53.4833 C   0  0  0  0  0  0  0  0  0  0  0  0
  -55.2834  -20.5193   52.2711 C   0  0  0  0  0  0  0  0  0  0  0  0
  -59.3841  -21.8605   54.9961 C   0  0  0  0  0  0  0  0  0  0  0  0
  -57.3476  -21.1859   53.6816 C   0  0  0  0  0  0  0  0  0  0  0  0
  -54.0769  -19.5137   52.1362 C   0  0  0  0  0  0  0  0  0  0  0  0
  -57.8624  -20.0316   55.8573 C   0  0  0  0  0  0  0  0  0  0  0  0
  -58.4698  -20.6836   54.5779 C   0  0  1  0  0  0  0  0  0  0  0  0
  -53.3172  -19.7060   50.6596 B   0  5  0  0  0  0  0  0  0  0  0  0
  -58.6999  -18.2886   55.5033 H   0  0  0  0  0  0  0  0  0  0  0  0
  -53.6041  -21.8836   50.5008 H   0  0  0  0  0  0  0  0  0  0  0  0
  -52.2357  -17.7564   50.7123 H   0  0  0  0  0  0  0  0  0  0  0  0
  -54.6209  -18.3412   49.5169 H   0  0  0  0  0  0  0  0  0  0  0  0
  -58.6462  -18.9566   53.6221 H   0  0  0  0  0  0  0  0  0  0  0  0
  -59.6419  -20.1313   53.0784 H   0  0  0  0  0  0  0  0  0  0  0  0
  -61.3408  -24.0352   52.4611 H   0  0  0  0  0  0  0  0  0  0  0  0
  -62.2788  -22.6994   52.5112 H   0  0  0  0  0  0  0  0  0  0  0  0
  -60.5991  -23.6606   55.9249 H   0  0  0  0  0  0  0  0  0  0  0  0
  -60.2780  -24.6769   54.6877 H   0  0  0  0  0  0  0  0  0  0  0  0
  -60.4582  -21.7284   53.1683 H   0  0  0  0  0  0  0  0  0  0  0  0
  -59.6372  -23.1324   53.3138 H   0  0  0  0  0  0  0  0  0  0  0  0
  -64.0162  -24.3362   52.7489 H   0  0  0  0  0  0  0  0  0  0  0  0
  -62.6568  -24.4526   56.2141 H   0  0  0  0  0  0  0  0  0  0  0  0
  -61.8197  -25.8023   55.8341 H   0  0  0  0  0  0  0  0  0  0  0  0
  -63.7277  -26.0332   54.5191 H   0  0  0  0  0  0  0  0  0  0  0  0
  -56.6107  -19.2593   53.3236 H   0  0  0  0  0  0  0  0  0  0  0  0
  -55.6514  -20.1342   54.3140 H   0  0  0  0  0  0  0  0  0  0  0  0
  -55.8252  -20.4892   51.4312 H   0  0  0  0  0  0  0  0  0  0  0  0
  -54.9222  -21.4425   52.4019 H   0  0  0  0  0  0  0  0  0  0  0  0
  -58.8131  -22.5829   55.3860 H   0  0  0  0  0  0  0  0  0  0  0  0
  -60.0263  -21.5327   55.6891 H   0  0  0  0  0  0  0  0  0  0  0  0
  -56.9617  -22.0124   54.0913 H   0  0  0  0  0  0  0  0  0  0  0  0
  -57.7334  -21.4069   52.7858 H   0  0  0  0  0  0  0  0  0  0  0  0
  -53.4197  -19.6878   52.8695 H   0  0  0  0  0  0  0  0  0  0  0  0
  -54.4192  -18.5771   52.2107 H   0  0  0  0  0  0  0  0  0  0  0  0
  1 19  1  0  0  0  0
  2 19  2  0  0  0  0
  3 21  1  0  0  0  0
  4 21  1  0  0  0  0
  5 21  1  0  0  0  0
  6 20  1  0  0  0  0
  7  8  1  0  0  0  0
  7  9  1  0  0  0  0
  7 10  1  0  0  0  0
  8 11  1  0  0  0  0
  9 12  1  0  0  0  0
 10 16  1  0  0  0  0
 11 13  2  0  0  0  0
 12 13  1  0  0  0  0
 14 15  1  0  0  0  0
 14 17  1  0  0  0  0
 15 18  1  0  0  0  0
 16 20  1  0  0  0  0
 17 20  1  0  0  0  0
 18 21  1  0  0  0  0
 19 20  1  0  0  0  0
  1 22  1  0  0  0  0
  3 23  1  0  0  0  0
  4 24  1  0  0  0  0
  5 25  1  0  0  0  0
  6 26  1  0  0  0  0
  6 27  1  0  0  0  0
  8 28  1  0  0  0  0
  8 29  1  0  0  0  0
  9 30  1  0  0  0  0
  9 31  1  0  0  0  0
 10 32  1  0  0  0  0
 10 33  1  0  0  0  0
 11 34  1  0  0  0  0
 12 35  1  0  0  0  0
 12 36  1  0  0  0  0
 13 37  1  0  0  0  0
 14 38  1  0  0  0  0
 14 39  1  0  0  0  0
 15 40  1  0  0  0  0
 15 41  1  0  0  0  0
 16 42  1  0  0  0  0
 16 43  1  0  0  0  0
 17 44  1  0  0  0  0
 17 45  1  0  0  0  0
 18 46  1  0  0  0  0
 18 47  1  0  0  0  0
M  CHG  1  21  -1
M  END
> <pdb_id>
4Q3S

> <uniprot_id>
Q6WVP6

> <usmiles>
O=C(O)[C@](N)(CCN1CC=CCC1)CCCC[B-](O)(O)O

$$$$
X8A_A_406
          07212403283D 1   1.00000     0.00000     0
            
 52 52  0  0  0  0            999 V2000
   35.3708   88.8875   72.5699 O   0  0  0  0  0  0  0  0  0  0  0  0
   33.5026   89.4059   71.5551 O   0  0  0  0  0  0  0  0  0  0  0  0
   36.3687   85.9009   65.5011 O   0  0  0  0  0  0  0  0  0  0  0  0
   38.1046   87.6802   65.2101 O   0  0  0  0  0  0  0  0  0  0  0  0
   38.4617   85.7850   66.5766 O   0  0  0  0  0  0  0  0  0  0  0  0
   32.6895   86.9638   71.1074 N   0  0  0  0  0  0  0  0  0  0  0  0
   32.9334   85.4845   75.0015 N   0  0  0  0  0  0  0  0  0  0  0  0
   32.2470   85.7424   70.4323 C   0  0  0  0  0  0  0  0  0  0  0  0
   34.2455   85.2927   75.6410 C   0  0  0  0  0  0  0  0  0  0  0  0
   31.9137   85.8072   76.0124 C   0  0  0  0  0  0  0  0  0  0  0  0
   33.0094   86.5898   74.0269 C   0  0  0  0  0  0  0  0  0  0  0  0
   34.1788   84.1383   76.6356 C   0  0  0  0  0  0  0  0  0  0  0  0
   31.7871   84.6697   77.0275 C   0  0  0  0  0  0  0  0  0  0  0  0
   33.1307   84.4250   77.7028 C   0  0  0  0  0  0  0  0  0  0  0  0
   35.5024   87.2864   69.5829 C   0  0  0  0  0  0  0  0  0  0  0  0
   36.5059   86.5447   68.6885 C   0  0  0  0  0  0  0  0  0  0  0  0
   34.1151   86.3023   73.0222 C   0  0  0  0  0  0  0  0  0  0  0  0
   35.0940   86.4655   70.8063 C   0  0  0  0  0  0  0  0  0  0  0  0
   36.9709   87.4787   67.5575 C   0  0  0  0  0  0  0  0  0  0  0  0
   34.3240   88.5529   71.9625 C   0  0  0  0  0  0  0  0  0  0  0  0
   34.0227   87.0850   71.7034 C   0  0  1  0  0  0  0  0  0  0  0  0
   37.3680   86.7954   66.1795 B   0  5  0  0  0  0  0  0  0  0  0  0
   36.0113   88.1874   72.8854 H   0  0  0  0  0  0  0  0  0  0  0  0
   35.9084   85.3358   66.1858 H   0  0  0  0  0  0  0  0  0  0  0  0
   38.7545   88.2531   65.7094 H   0  0  0  0  0  0  0  0  0  0  0  0
   39.2027   86.2637   67.0475 H   0  0  0  0  0  0  0  0  0  0  0  0
   32.0368   87.1263   71.8473 H   0  0  0  0  0  0  0  0  0  0  0  0
   31.3124   85.8658   70.0987 H   0  0  0  0  0  0  0  0  0  0  0  0
   32.8535   85.5494   69.6610 H   0  0  0  0  0  0  0  0  0  0  0  0
   32.2728   84.9776   71.0761 H   0  0  0  0  0  0  0  0  0  0  0  0
   34.5045   86.1299   76.1226 H   0  0  0  0  0  0  0  0  0  0  0  0
   34.9283   85.0865   74.9401 H   0  0  0  0  0  0  0  0  0  0  0  0
   31.0327   85.9436   75.5594 H   0  0  0  0  0  0  0  0  0  0  0  0
   32.1768   86.6460   76.4891 H   0  0  0  0  0  0  0  0  0  0  0  0
   33.2084   87.4445   74.5065 H   0  0  0  0  0  0  0  0  0  0  0  0
   32.1359   86.6724   73.5472 H   0  0  0  0  0  0  0  0  0  0  0  0
   35.0718   84.0254   77.0713 H   0  0  0  0  0  0  0  0  0  0  0  0
   33.9357   83.2981   76.1509 H   0  0  0  0  0  0  0  0  0  0  0  0
   31.4958   83.8366   76.5573 H   0  0  0  0  0  0  0  0  0  0  0  0
   31.1085   84.9167   77.7193 H   0  0  0  0  0  0  0  0  0  0  0  0
   33.3964   85.2361   78.2239 H   0  0  0  0  0  0  0  0  0  0  0  0
   33.0578   83.6415   78.3198 H   0  0  0  0  0  0  0  0  0  0  0  0
   34.6840   87.4913   69.0459 H   0  0  0  0  0  0  0  0  0  0  0  0
   35.9194   88.1404   69.8939 H   0  0  0  0  0  0  0  0  0  0  0  0
   36.0680   85.7365   68.2948 H   0  0  0  0  0  0  0  0  0  0  0  0
   37.2951   86.2635   69.2346 H   0  0  0  0  0  0  0  0  0  0  0  0
   34.0891   85.3265   72.8050 H   0  0  0  0  0  0  0  0  0  0  0  0
   34.9897   86.5247   73.4530 H   0  0  0  0  0  0  0  0  0  0  0  0
   35.9116   86.3191   71.3630 H   0  0  0  0  0  0  0  0  0  0  0  0
   34.7492   85.5846   70.4821 H   0  0  0  0  0  0  0  0  0  0  0  0
   37.7711   87.9790   67.8885 H   0  0  0  0  0  0  0  0  0  0  0  0
   36.2284   88.1225   67.3727 H   0  0  0  0  0  0  0  0  0  0  0  0
  1 20  1  0  0  0  0
  2 20  2  0  0  0  0
  3 22  1  0  0  0  0
  4 22  1  0  0  0  0
  5 22  1  0  0  0  0
  6  8  1  0  0  0  0
  6 21  1  0  0  0  0
  7  9  1  0  0  0  0
  7 10  1  0  0  0  0
  7 11  1  0  0  0  0
  9 12  1  0  0  0  0
 10 13  1  0  0  0  0
 11 17  1  0  0  0  0
 12 14  1  0  0  0  0
 13 14  1  0  0  0  0
 15 16  1  0  0  0  0
 15 18  1  0  0  0  0
 16 19  1  0  0  0  0
 17 21  1  0  0  0  0
 18 21  1  0  0  0  0
 19 22  1  0  0  0  0
 20 21  1  0  0  0  0
  1 23  1  0  0  0  0
  3 24  1  0  0  0  0
  4 25  1  0  0  0  0
  5 26  1  0  0  0  0
  6 27  1  0  0  0  0
  8 28  1  0  0  0  0
  8 29  1  0  0  0  0
  8 30  1  0  0  0  0
  9 31  1  0  0  0  0
  9 32  1  0  0  0  0
 10 33  1  0  0  0  0
 10 34  1  0  0  0  0
 11 35  1  0  0  0  0
 11 36  1  0  0  0  0
 12 37  1  0  0  0  0
 12 38  1  0  0  0  0
 13 39  1  0  0  0  0
 13 40  1  0  0  0  0
 14 41  1  0  0  0  0
 14 42  1  0  0  0  0
 15 43  1  0  0  0  0
 15 44  1  0  0  0  0
 16 45  1  0  0  0  0
 16 46  1  0  0  0  0
 17 47  1  0  0  0  0
 17 48  1  0  0  0  0
 18 49  1  0  0  0  0
 18 50  1  0  0  0  0
 19 51  1  0  0  0  0
 19 52  1  0  0  0  0
M  CHG  1  22  -1
M  END
> <pdb_id>
4I06

> <uniprot_id>
P78540

> <usmiles>
O=C(O)[C@](NC)(CCN1CCCCC1)CCCC[B-](O)(O)O

$$$$
X8A_A_901
          07202415503D 1   1.00000     0.00000     0
            
 52 52  0  0  0  0            999 V2000
  -19.9800   15.9630  -10.4950 O   0  0  0  0  0  0  0  0  0  0  0  0
  -19.5570   15.9790  -12.5890 O   0  0  0  0  0  0  0  0  0  0  0  0
  -26.6270   13.6730  -13.6250 O   0  0  0  0  0  0  0  0  0  0  0  0
  -26.3980   11.6190  -12.6610 O   0  0  0  0  0  0  0  0  0  0  0  0
  -27.0820   13.6250  -11.3290 O   0  0  0  0  0  0  0  0  0  0  0  0
  -21.3190   17.8040  -13.2820 N   0  0  0  0  0  0  0  0  0  0  0  0
  -19.8410   20.7660  -10.8370 N   0  0  0  0  0  0  0  0  0  0  0  0
  -22.3250   18.6340  -13.9260 C   0  0  0  0  0  0  0  0  0  0  0  0
  -20.0740   20.8340   -9.3920 C   0  0  0  0  0  0  0  0  0  0  0  0
  -18.6150   21.5110  -11.1500 C   0  0  0  0  0  0  0  0  0  0  0  0
  -19.7740   19.3590  -11.2980 C   0  0  0  0  0  0  0  0  0  0  0  0
  -20.3450   22.2740   -9.0000 C   0  0  0  0  0  0  0  0  0  0  0  0
  -18.8160   22.9880  -10.8300 C   0  0  0  0  0  0  0  0  0  0  0  0
  -19.1750   23.1800   -9.3640 C   0  0  0  0  0  0  0  0  0  0  0  0
  -22.9470   15.4360  -11.9760 C   0  0  0  0  0  0  0  0  0  0  0  0
  -24.4050   14.9910  -11.8310 C   0  0  0  0  0  0  0  0  0  0  0  0
  -21.0870   18.6470  -10.9800 C   0  0  0  0  0  0  0  0  0  0  0  0
  -22.7030   16.8710  -11.5170 C   0  0  0  0  0  0  0  0  0  0  0  0
  -24.6010   13.5360  -12.2480 C   0  0  0  0  0  0  0  0  0  0  0  0
  -20.2280   16.3940  -11.6250 C   0  0  0  0  0  0  0  0  0  0  0  0
  -21.3240   17.4270  -11.8700 C   0  0  1  0  0  0  0  0  0  0  0  0
  -26.1210   13.0630  -12.3330 B   0  5  0  0  0  0  0  0  0  0  0  0
  -20.5088   16.2852   -9.7098 H   0  0  0  0  0  0  0  0  0  0  0  0
  -26.5191   14.6665  -13.5892 H   0  0  0  0  0  0  0  0  0  0  0  0
  -26.1172   11.0430  -11.8933 H   0  0  0  0  0  0  0  0  0  0  0  0
  -26.8468   13.2878  -10.4174 H   0  0  0  0  0  0  0  0  0  0  0  0
  -20.4496   18.2758  -13.4292 H   0  0  0  0  0  0  0  0  0  0  0  0
  -22.0962   18.7451  -14.8931 H   0  0  0  0  0  0  0  0  0  0  0  0
  -23.2205   18.1968  -13.8435 H   0  0  0  0  0  0  0  0  0  0  0  0
  -22.3499   19.5308  -13.4842 H   0  0  0  0  0  0  0  0  0  0  0  0
  -19.2656   20.5013   -8.9065 H   0  0  0  0  0  0  0  0  0  0  0  0
  -20.8629   20.2678   -9.1530 H   0  0  0  0  0  0  0  0  0  0  0  0
  -18.4018   21.4073  -12.1215 H   0  0  0  0  0  0  0  0  0  0  0  0
  -17.8590   21.1521  -10.6026 H   0  0  0  0  0  0  0  0  0  0  0  0
  -19.0221   18.8925  -10.8321 H   0  0  0  0  0  0  0  0  0  0  0  0
  -19.6170   19.3404  -12.2854 H   0  0  0  0  0  0  0  0  0  0  0  0
  -20.4964   22.3192   -8.0126 H   0  0  0  0  0  0  0  0  0  0  0  0
  -21.1638   22.5925   -9.4777 H   0  0  0  0  0  0  0  0  0  0  0  0
  -19.5554   23.3488  -11.3984 H   0  0  0  0  0  0  0  0  0  0  0  0
  -17.9707   23.4842  -11.0281 H   0  0  0  0  0  0  0  0  0  0  0  0
  -18.3857   22.9486   -8.7952 H   0  0  0  0  0  0  0  0  0  0  0  0
  -19.4313   24.1337   -9.2065 H   0  0  0  0  0  0  0  0  0  0  0  0
  -22.6874   15.3627  -12.9389 H   0  0  0  0  0  0  0  0  0  0  0  0
  -22.3735   14.8263  -11.4288 H   0  0  0  0  0  0  0  0  0  0  0  0
  -24.9792   15.5725  -12.4073 H   0  0  0  0  0  0  0  0  0  0  0  0
  -24.6805   15.0931  -10.8751 H   0  0  0  0  0  0  0  0  0  0  0  0
  -21.8407   19.2909  -11.1117 H   0  0  0  0  0  0  0  0  0  0  0  0
  -21.0666   18.3484  -10.0258 H   0  0  0  0  0  0  0  0  0  0  0  0
  -22.8066   16.9022  -10.5229 H   0  0  0  0  0  0  0  0  0  0  0  0
  -23.3933   17.4561  -11.9426 H   0  0  0  0  0  0  0  0  0  0  0  0
  -24.1316   12.9558  -11.5824 H   0  0  0  0  0  0  0  0  0  0  0  0
  -24.1860   13.4123  -13.1494 H   0  0  0  0  0  0  0  0  0  0  0  0
  1 20  1  0  0  0  0
  2 20  2  0  0  0  0
  3 22  1  0  0  0  0
  4 22  1  0  0  0  0
  5 22  1  0  0  0  0
  6  8  1  0  0  0  0
  6 21  1  0  0  0  0
  7  9  1  0  0  0  0
  7 10  1  0  0  0  0
  7 11  1  0  0  0  0
  9 12  1  0  0  0  0
 10 13  1  0  0  0  0
 11 17  1  0  0  0  0
 12 14  1  0  0  0  0
 13 14  1  0  0  0  0
 15 16  1  0  0  0  0
 15 18  1  0  0  0  0
 16 19  1  0  0  0  0
 17 21  1  0  0  0  0
 18 21  1  0  0  0  0
 19 22  1  0  0  0  0
 20 21  1  0  0  0  0
  1 23  1  0  0  0  0
  3 24  1  0  0  0  0
  4 25  1  0  0  0  0
  5 26  1  0  0  0  0
  6 27  1  0  0  0  0
  8 28  1  0  0  0  0
  8 29  1  0  0  0  0
  8 30  1  0  0  0  0
  9 31  1  0  0  0  0
  9 32  1  0  0  0  0
 10 33  1  0  0  0  0
 10 34  1  0  0  0  0
 11 35  1  0  0  0  0
 11 36  1  0  0  0  0
 12 37  1  0  0  0  0
 12 38  1  0  0  0  0
 13 39  1  0  0  0  0
 13 40  1  0  0  0  0
 14 41  1  0  0  0  0
 14 42  1  0  0  0  0
 15 43  1  0  0  0  0
 15 44  1  0  0  0  0
 16 45  1  0  0  0  0
 16 46  1  0  0  0  0
 17 47  1  0  0  0  0
 17 48  1  0  0  0  0
 18 49  1  0  0  0  0
 18 50  1  0  0  0  0
 19 51  1  0  0  0  0
 19 52  1  0  0  0  0
M  CHG  1  22  -1
M  END
> <pdb_id>
4HXQ

> <uniprot_id>
P05089

> <usmiles>
O=C(O)[C@](NC)(CCN1CCCCC1)CCCC[B-](O)(O)O

$$$$
X8D_A_1282
          07202402503D 1   1.00000     0.00000     0
            
 24 26  0  0  0  0            999 V2000
    7.1415    8.5870   18.5437 O   0  0  0  0  0  0  0  0  0  0  0  0
    5.7540   10.1035   19.7131 N   0  0  0  0  0  0  0  0  0  0  0  0
    4.4138   10.0798   19.9998 N   0  0  0  0  0  0  0  0  0  0  0  0
    4.7427    8.2627   18.8717 N   0  0  0  0  0  0  0  0  0  0  0  0
    0.6530    7.1084   18.9357 C   0  0  0  0  0  0  0  0  0  0  0  0
    4.9431    5.1460   16.9123 C   0  0  0  0  0  0  0  0  0  0  0  0
    3.6270    4.7626   16.9225 C   0  0  0  0  0  0  0  0  0  0  0  0
    5.3245    6.3057   17.5556 C   0  0  0  0  0  0  0  0  0  0  0  0
    2.6884    5.5370   17.5760 C   0  0  0  0  0  0  0  0  0  0  0  0
    2.4546    8.6437   19.5720 C   0  0  0  0  0  0  0  0  0  0  0  0
    6.0843    8.9975   19.0032 C   0  0  0  0  0  0  0  0  0  0  0  0
    3.8915    9.0011   19.4888 C   0  0  0  0  0  0  0  0  0  0  0  0
    4.3820    7.0680   18.2122 C   0  0  0  0  0  0  0  0  0  0  0  0
    2.0711    7.5350   18.9296 C   0  0  0  0  0  0  0  0  0  0  0  0
    3.0560    6.7016   18.2275 C   0  0  0  0  0  0  0  0  0  0  0  0
    6.3898   10.8256   19.9858 H   0  0  0  0  0  0  0  0  0  0  0  0
    0.5566    6.2645   18.4078 H   0  0  0  0  0  0  0  0  0  0  0  0
    0.3572    6.9481   19.8774 H   0  0  0  0  0  0  0  0  0  0  0  0
    0.0878    7.8243   18.5260 H   0  0  0  0  0  0  0  0  0  0  0  0
    5.6247    4.5869   16.4402 H   0  0  0  0  0  0  0  0  0  0  0  0
    3.3468    3.9230   16.4571 H   0  0  0  0  0  0  0  0  0  0  0  0
    6.2825    6.5925   17.5455 H   0  0  0  0  0  0  0  0  0  0  0  0
    1.7298    5.2522   17.5785 H   0  0  0  0  0  0  0  0  0  0  0  0
    1.8038    9.2045   20.0838 H   0  0  0  0  0  0  0  0  0  0  0  0
  1 11  2  0  0  0  0
  2  3  1  0  0  0  0
  2 11  1  0  0  0  0
  3 12  2  0  0  0  0
  4 11  1  0  0  0  0
  4 12  1  0  0  0  0
  4 13  1  0  0  0  0
  5 14  1  0  0  0  0
  6  7  2  0  0  0  0
  6  8  1  0  0  0  0
  7  9  1  0  0  0  0
  8 13  2  0  0  0  0
  9 15  2  0  0  0  0
 10 12  1  0  0  0  0
 10 14  2  0  0  0  0
 13 15  1  0  0  0  0
 14 15  1  0  0  0  0
  2 16  1  0  0  0  0
  5 17  1  0  0  0  0
  5 18  1  0  0  0  0
  5 19  1  0  0  0  0
  6 20  1  0  0  0  0
  7 21  1  0  0  0  0
  8 22  1  0  0  0  0
  9 23  1  0  0  0  0
 10 24  1  0  0  0  0
M  END
> <pdb_id>
2X8D

> <uniprot_id>
O14757

> <usmiles>
O=C1N2c3c(cccc3)C(=CC2=NN1)C

$$$$
X8I_A_1270
          07202402503D 1   1.00000     0.00000     0
            
 35 38  0  0  0  0            999 V2000
    7.1507    8.7087   18.6214 O   0  0  0  0  0  0  0  0  0  0  0  0
    0.6121    3.0768   13.3394 O   0  0  0  0  0  0  0  0  0  0  0  0
    5.7442   10.1518   19.8911 N   0  0  0  0  0  0  0  0  0  0  0  0
    4.3925   10.1215   20.1185 N   0  0  0  0  0  0  0  0  0  0  0  0
    4.7446    8.4087   18.8366 N   0  0  0  0  0  0  0  0  0  0  0  0
    0.6596    7.2564   18.6824 C   0  0  0  0  0  0  0  0  0  0  0  0
    3.7449    1.8582   14.6966 C   0  0  0  0  0  0  0  0  0  0  0  0
    2.5796    1.9032   13.9655 C   0  0  0  0  0  0  0  0  0  0  0  0
    5.3543    6.6102   17.3401 C   0  0  0  0  0  0  0  0  0  0  0  0
    4.0987    2.9128   15.5100 C   0  0  0  0  0  0  0  0  0  0  0  0
    4.9812    5.5414   16.5593 C   0  0  0  0  0  0  0  0  0  0  0  0
    2.4545    8.7456   19.4767 C   0  0  0  0  0  0  0  0  0  0  0  0
    2.1307    4.0770   14.8789 C   0  0  0  0  0  0  0  0  0  0  0  0
    2.7193    5.8500   17.1976 C   0  0  0  0  0  0  0  0  0  0  0  0
    6.0928    9.1089   19.0879 C   0  0  0  0  0  0  0  0  0  0  0  0
    3.8820    9.1035   19.4792 C   0  0  0  0  0  0  0  0  0  0  0  0
    1.7824    3.0192   14.0660 C   0  0  0  0  0  0  0  0  0  0  0  0
    4.3997    7.2993   18.0491 C   0  0  0  0  0  0  0  0  0  0  0  0
    2.0836    7.6881   18.7439 C   0  0  0  0  0  0  0  0  0  0  0  0
    3.2965    4.0336   15.6184 C   0  0  0  0  0  0  0  0  0  0  0  0
    3.6646    5.1465   16.4748 C   0  0  0  0  0  0  0  0  0  0  0  0
    3.0765    6.9289   17.9855 C   0  0  0  0  0  0  0  0  0  0  0  0
    0.0232    3.8825   13.4032 H   0  0  0  0  0  0  0  0  0  0  0  0
    6.3763   10.8341   20.2582 H   0  0  0  0  0  0  0  0  0  0  0  0
    0.5796    6.4550   18.0896 H   0  0  0  0  0  0  0  0  0  0  0  0
    0.3417    7.0240   19.6016 H   0  0  0  0  0  0  0  0  0  0  0  0
    0.1013    8.0001   18.3147 H   0  0  0  0  0  0  0  0  0  0  0  0
    4.3383    1.0555   14.6372 H   0  0  0  0  0  0  0  0  0  0  0  0
    2.3182    1.1405   13.3738 H   0  0  0  0  0  0  0  0  0  0  0  0
    6.3146    6.8843   17.3918 H   0  0  0  0  0  0  0  0  0  0  0  0
    4.9508    2.8666   16.0312 H   0  0  0  0  0  0  0  0  0  0  0  0
    5.6780    5.0425   16.0439 H   0  0  0  0  0  0  0  0  0  0  0  0
    1.7866    9.2724   20.0025 H   0  0  0  0  0  0  0  0  0  0  0  0
    1.5364    4.8794   14.9334 H   0  0  0  0  0  0  0  0  0  0  0  0
    1.7595    5.5735   17.1499 H   0  0  0  0  0  0  0  0  0  0  0  0
  1 15  2  0  0  0  0
  2 17  1  0  0  0  0
  3  4  1  0  0  0  0
  3 15  1  0  0  0  0
  4 16  2  0  0  0  0
  5 15  1  0  0  0  0
  5 16  1  0  0  0  0
  5 18  1  0  0  0  0
  6 19  1  0  0  0  0
  7  8  2  0  0  0  0
  7 10  1  0  0  0  0
  8 17  1  0  0  0  0
  9 11  1  0  0  0  0
  9 18  2  0  0  0  0
 10 20  2  0  0  0  0
 11 21  2  0  0  0  0
 12 16  1  0  0  0  0
 12 19  2  0  0  0  0
 13 17  2  0  0  0  0
 13 20  1  0  0  0  0
 14 21  1  0  0  0  0
 14 22  2  0  0  0  0
 18 22  1  0  0  0  0
 19 22  1  0  0  0  0
 20 21  1  0  0  0  0
  2 23  1  0  0  0  0
  3 24  1  0  0  0  0
  6 25  1  0  0  0  0
  6 26  1  0  0  0  0
  6 27  1  0  0  0  0
  7 28  1  0  0  0  0
  8 29  1  0  0  0  0
  9 30  1  0  0  0  0
 10 31  1  0  0  0  0
 11 32  1  0  0  0  0
 12 33  1  0  0  0  0
 13 34  1  0  0  0  0
 14 35  1  0  0  0  0
M  END
> <pdb_id>
2X8I

> <uniprot_id>
O14757

> <usmiles>
O=C1N2c3c(cc(c4cc(O)ccc4)cc3)C(=CC2=NN1)C

$$$$
XA2_B_409
          07202417303D 1   1.00000     0.00000     0
            
 56 57  0  0  0  0            999 V2000
  -66.4110  -23.1540   59.8710 Cl  0  0  0  0  0  0  0  0  0  0  0  0
  -63.9400  -24.8410   60.5800 Cl  0  0  0  0  0  0  0  0  0  0  0  0
  -57.0610  -20.7060   56.6300 O   0  0  0  0  0  0  0  0  0  0  0  0
  -58.1300  -18.8800   56.1660 O   0  0  0  0  0  0  0  0  0  0  0  0
  -52.6770  -21.1740   50.5060 O   0  0  0  0  0  0  0  0  0  0  0  0
  -52.0840  -18.6100   50.7190 O   0  0  0  0  0  0  0  0  0  0  0  0
  -54.3530  -19.3670   49.5130 O   0  0  0  0  0  0  0  0  0  0  0  0
  -59.3330  -19.8090   53.9980 N   0  0  0  0  0  0  0  0  0  0  0  0
  -61.5910  -23.4470   55.2150 N   0  0  0  0  0  0  0  0  0  0  0  0
  -60.8310  -23.0370   56.4010 C   0  0  0  0  0  0  0  0  0  0  0  0
  -60.6360  -23.7860   54.1260 C   0  0  0  0  0  0  0  0  0  0  0  0
  -62.4350  -24.5860   55.5370 C   0  0  0  0  0  0  0  0  0  0  0  0
  -56.2310  -20.0230   53.3320 C   0  0  0  0  0  0  0  0  0  0  0  0
  -55.1090  -20.6320   52.4080 C   0  0  0  0  0  0  0  0  0  0  0  0
  -60.0100  -21.7990   56.1140 C   0  0  0  0  0  0  0  0  0  0  0  0
  -59.7530  -22.6100   53.7890 C   0  0  0  0  0  0  0  0  0  0  0  0
  -65.4690  -23.1360   57.3010 C   0  0  0  0  0  0  0  0  0  0  0  0
  -64.5520  -23.4720   56.3110 C   0  0  0  0  0  0  0  0  0  0  0  0
  -63.2490  -24.6510   57.9400 C   0  0  0  0  0  0  0  0  0  0  0  0
  -57.3040  -21.1090   53.6010 C   0  0  0  0  0  0  0  0  0  0  0  0
  -54.0280  -19.5700   52.2880 C   0  0  0  0  0  0  0  0  0  0  0  0
  -57.8290  -20.0640   55.8800 C   0  0  0  0  0  0  0  0  0  0  0  0
  -65.2690  -23.5570   58.5980 C   0  0  0  0  0  0  0  0  0  0  0  0
  -64.1560  -24.3130   58.9220 C   0  0  0  0  0  0  0  0  0  0  0  0
  -63.4430  -24.2230   56.6300 C   0  0  0  0  0  0  0  0  0  0  0  0
  -59.0840  -22.0370   54.9890 C   0  0  0  0  0  0  0  0  0  0  0  0
  -58.4190  -20.7080   54.6200 C   0  0  1  0  0  0  0  0  0  0  0  0
  -53.2870  -19.6730   50.7600 B   0  5  0  0  0  0  0  0  0  0  0  0
  -56.8178  -21.6499   56.4068 H   0  0  0  0  0  0  0  0  0  0  0  0
  -53.4191  -21.8438   50.5297 H   0  0  0  0  0  0  0  0  0  0  0  0
  -52.4461  -17.6907   50.8730 H   0  0  0  0  0  0  0  0  0  0  0  0
  -54.7500  -18.4566   49.6297 H   0  0  0  0  0  0  0  0  0  0  0  0
  -60.0457  -19.5534   54.6512 H   0  0  0  0  0  0  0  0  0  0  0  0
  -58.8438  -18.9891   53.7006 H   0  0  0  0  0  0  0  0  0  0  0  0
  -60.2191  -23.7804   56.6710 H   0  0  0  0  0  0  0  0  0  0  0  0
  -61.4679  -22.8420   57.1468 H   0  0  0  0  0  0  0  0  0  0  0  0
  -61.1513  -24.0511   53.3110 H   0  0  0  0  0  0  0  0  0  0  0  0
  -60.0627  -24.5504   54.4211 H   0  0  0  0  0  0  0  0  0  0  0  0
  -61.8608  -25.3394   55.8575 H   0  0  0  0  0  0  0  0  0  0  0  0
  -62.9298  -24.8700   54.7158 H   0  0  0  0  0  0  0  0  0  0  0  0
  -56.6532  -19.2397   52.8757 H   0  0  0  0  0  0  0  0  0  0  0  0
  -55.8285  -19.7270   54.1982 H   0  0  0  0  0  0  0  0  0  0  0  0
  -55.4832  -20.8479   51.5062 H   0  0  0  0  0  0  0  0  0  0  0  0
  -54.7340  -21.4621   52.8207 H   0  0  0  0  0  0  0  0  0  0  0  0
  -59.4821  -21.5589   56.9287 H   0  0  0  0  0  0  0  0  0  0  0  0
  -60.6237  -21.0449   55.8803 H   0  0  0  0  0  0  0  0  0  0  0  0
  -60.3138  -21.8992   53.3644 H   0  0  0  0  0  0  0  0  0  0  0  0
  -59.0510  -22.9107   53.1434 H   0  0  0  0  0  0  0  0  0  0  0  0
  -66.2739  -22.5887   57.0717 H   0  0  0  0  0  0  0  0  0  0  0  0
  -64.6978  -23.1688   55.3693 H   0  0  0  0  0  0  0  0  0  0  0  0
  -62.4492  -25.2055   58.1698 H   0  0  0  0  0  0  0  0  0  0  0  0
  -56.8398  -21.9211   53.9546 H   0  0  0  0  0  0  0  0  0  0  0  0
  -57.7452  -21.3295   52.7311 H   0  0  0  0  0  0  0  0  0  0  0  0
  -53.3411  -19.7133   53.0005 H   0  0  0  0  0  0  0  0  0  0  0  0
  -54.4383  -18.6647   52.3978 H   0  0  0  0  0  0  0  0  0  0  0  0
  -58.3746  -22.6737   55.2912 H   0  0  0  0  0  0  0  0  0  0  0  0
  1 23  1  0  0  0  0
  2 24  1  0  0  0  0
  3 22  1  0  0  0  0
  4 22  2  0  0  0  0
  5 28  1  0  0  0  0
  6 28  1  0  0  0  0
  7 28  1  0  0  0  0
  8 27  1  0  0  0  0
  9 10  1  0  0  0  0
  9 11  1  0  0  0  0
  9 12  1  0  0  0  0
 10 15  1  0  0  0  0
 11 16  1  0  0  0  0
 12 25  1  0  0  0  0
 13 14  1  0  0  0  0
 13 20  1  0  0  0  0
 14 21  1  0  0  0  0
 15 26  1  0  0  0  0
 16 26  1  0  0  0  0
 17 18  2  0  0  0  0
 17 23  1  0  0  0  0
 18 25  1  0  0  0  0
 19 24  1  0  0  0  0
 19 25  2  0  0  0  0
 20 27  1  0  0  0  0
 21 28  1  0  0  0  0
 22 27  1  0  0  0  0
 23 24  2  0  0  0  0
 26 27  1  0  0  0  0
  3 29  1  0  0  0  0
  5 30  1  0  0  0  0
  6 31  1  0  0  0  0
  7 32  1  0  0  0  0
  8 33  1  0  0  0  0
  8 34  1  0  0  0  0
 10 35  1  0  0  0  0
 10 36  1  0  0  0  0
 11 37  1  0  0  0  0
 11 38  1  0  0  0  0
 12 39  1  0  0  0  0
 12 40  1  0  0  0  0
 13 41  1  0  0  0  0
 13 42  1  0  0  0  0
 14 43  1  0  0  0  0
 14 44  1  0  0  0  0
 15 45  1  0  0  0  0
 15 46  1  0  0  0  0
 16 47  1  0  0  0  0
 16 48  1  0  0  0  0
 17 49  1  0  0  0  0
 18 50  1  0  0  0  0
 19 51  1  0  0  0  0
 20 52  1  0  0  0  0
 20 53  1  0  0  0  0
 21 54  1  0  0  0  0
 21 55  1  0  0  0  0
 26 56  1  0  0  0  0
M  CHG  1  28  -1
M  END
> <pdb_id>
4Q3R

> <uniprot_id>
Q6WVP6

> <usmiles>
Clc1c(Cl)ccc(c1)CN2CCC([C@@](N)(C(=O)O)CCCC[B-](O)(O)O)CC2

$$$$
XAN_A_300
          07202417253D 1   1.00000     0.00000     0
            
 15 16  0  0  0  0            999 V2000
   27.5413   27.5427   37.7276 O   0  0  0  0  0  0  0  0  0  0  0  0
   31.3836   27.1373   35.2773 O   0  0  0  0  0  0  0  0  0  0  0  0
   32.5193   25.5124   37.4638 N   0  0  0  0  0  0  0  0  0  0  0  0
   29.4604   27.3445   36.5069 N   0  0  0  0  0  0  0  0  0  0  0  0
   31.3555   25.3803   39.4340 N   0  0  0  0  0  0  0  0  0  0  0  0
   29.3606   26.5823   38.5988 N   0  0  0  0  0  0  0  0  0  0  0  0
   32.5213   25.0223   38.7547 C   0  0  0  0  0  0  0  0  0  0  0  0
   28.6674   27.1442   37.6240 C   0  0  0  0  0  0  0  0  0  0  0  0
   30.7760   26.8676   36.3048 C   0  0  0  0  0  0  0  0  0  0  0  0
   30.5569   25.9988   38.5690 C   0  0  0  0  0  0  0  0  0  0  0  0
   31.3540   26.1851   37.4269 C   0  0  0  0  0  0  0  0  0  0  0  0
   31.1843   25.2280   40.2631 H   0  0  0  0  0  0  0  0  0  0  0  0
   28.9802   26.5957   39.3707 H   0  0  0  0  0  0  0  0  0  0  0  0
   33.2102   24.5178   39.1246 H   0  0  0  0  0  0  0  0  0  0  0  0
   29.0607   27.8830   35.7651 H   0  0  0  0  0  0  0  0  0  0  0  0
  1  8  2  0  0  0  0
  2  9  2  0  0  0  0
  3  7  2  0  0  0  0
  3 11  1  0  0  0  0
  4  8  1  0  0  0  0
  4  9  1  0  0  0  0
  5  7  1  0  0  0  0
  5 10  1  0  0  0  0
  5 12  1  0  0  0  0
  6  8  1  0  0  0  0
  6 10  1  0  0  0  0
  6 13  1  0  0  0  0
  7 14  1  0  0  0  0
  9 11  1  0  0  0  0
 10 11  2  0  0  0  0
  4 15  1  0  0  0  0
M  END
> <pdb_id>
3L8W

> <uniprot_id>
Q00511

> <usmiles>
O=C1NC(=O)C=2N=CNC2N1

$$$$
XAN_B_304
          07192421073D 1   1.00000     0.00000     0
            
 15 16  0  0  0  0            999 V2000
   23.3790  133.5240   28.6950 O   0  0  0  0  0  0  0  0  0  0  0  0
   20.2320  136.4890   30.1380 O   0  0  0  0  0  0  0  0  0  0  0  0
   21.7570  136.7750   25.8070 N   0  0  0  0  0  0  0  0  0  0  0  0
   20.3510  137.6670   27.2930 N   0  0  0  0  0  0  0  0  0  0  0  0
   21.7670  135.0040   29.3480 N   0  0  0  0  0  0  0  0  0  0  0  0
   22.6740  134.9740   27.1200 N   0  0  0  0  0  0  0  0  0  0  0  0
   20.8420  137.7480   26.0860 C   0  0  0  0  0  0  0  0  0  0  0  0
   22.6320  134.4620   28.3850 C   0  0  0  0  0  0  0  0  0  0  0  0
   20.9090  136.0800   29.1940 C   0  0  0  0  0  0  0  0  0  0  0  0
   21.8420  136.0190   26.9520 C   0  0  0  0  0  0  0  0  0  0  0  0
   20.9830  136.5810   27.8630 C   0  0  0  0  0  0  0  0  0  0  0  0
   19.6660  138.2624   27.7129 H   0  0  0  0  0  0  0  0  0  0  0  0
   21.7706  134.5639   30.2460 H   0  0  0  0  0  0  0  0  0  0  0  0
   23.2602  134.6114   26.3955 H   0  0  0  0  0  0  0  0  0  0  0  0
   20.5738  138.4538   25.4303 H   0  0  0  0  0  0  0  0  0  0  0  0
  1  8  2  0  0  0  0
  2  9  2  0  0  0  0
  3  7  2  0  0  0  0
  3 10  1  0  0  0  0
  4  7  1  0  0  0  0
  4 11  1  0  0  0  0
  5  8  1  0  0  0  0
  5  9  1  0  0  0  0
  6  8  1  0  0  0  0
  6 10  1  0  0  0  0
  9 11  1  0  0  0  0
 10 11  2  0  0  0  0
  4 12  1  0  0  0  0
  5 13  1  0  0  0  0
  6 14  1  0  0  0  0
  7 15  1  0  0  0  0
M  END
> <pdb_id>
1A96

> <uniprot_id>
P0A9M5

> <usmiles>
O=C1NC(=O)C=2NC=NC2N1

$$$$
XAZ_A_1500
          07192418453D 1   1.00000     0.00000     0
            
 22 23  0  0  0  0            999 V2000
   50.3222   12.7545   30.0879 N   0  0  0  0  0  0  0  0  0  0  0  0
   48.4614   11.5896   29.2716 N   0  0  0  0  0  0  0  0  0  0  0  0
   45.3563   12.1514   31.0590 N   0  0  0  0  0  0  0  0  0  0  0  0
   47.0752   11.3744   29.4999 N   0  0  0  0  0  0  0  0  0  0  0  0
   42.8541   11.2896   30.8481 C   0  0  0  0  0  0  0  0  0  0  0  0
   46.4566    9.8037   27.8457 C   0  0  0  0  0  0  0  0  0  0  0  0
   47.9021   12.8246   31.0262 C   0  0  0  0  0  0  0  0  0  0  0  0
   44.8013   10.5902   29.3376 C   0  0  0  0  0  0  0  0  0  0  0  0
   48.9479   12.4115   30.1292 C   0  0  0  0  0  0  0  0  0  0  0  0
   46.7302   12.1941   30.6337 C   0  0  0  0  0  0  0  0  0  0  0  0
   44.3621   11.3688   30.4390 C   0  0  0  0  0  0  0  0  0  0  0  0
   46.1113   10.6276   28.9316 C   0  0  0  0  0  0  0  0  0  0  0  0
   50.6979   13.3952   30.7575 H   0  0  0  0  0  0  0  0  0  0  0  0
   50.9163   12.3560   29.3892 H   0  0  0  0  0  0  0  0  0  0  0  0
   42.3760   10.6575   30.2383 H   0  0  0  0  0  0  0  0  0  0  0  0
   42.7810   10.9631   31.7904 H   0  0  0  0  0  0  0  0  0  0  0  0
   42.4413   12.1977   30.7769 H   0  0  0  0  0  0  0  0  0  0  0  0
   45.6453    9.3121   27.5291 H   0  0  0  0  0  0  0  0  0  0  0  0
   46.8168   10.3664   27.1016 H   0  0  0  0  0  0  0  0  0  0  0  0
   47.1531    9.1467   28.1340 H   0  0  0  0  0  0  0  0  0  0  0  0
   48.0020   13.4546   31.7964 H   0  0  0  0  0  0  0  0  0  0  0  0
   44.1493   10.0079   28.8520 H   0  0  0  0  0  0  0  0  0  0  0  0
  1  9  1  0  0  0  0
  2  4  1  0  0  0  0
  2  9  2  0  0  0  0
  3 10  1  0  0  0  0
  3 11  2  0  0  0  0
  4 10  1  0  0  0  0
  4 12  1  0  0  0  0
  5 11  1  0  0  0  0
  6 12  1  0  0  0  0
  7  9  1  0  0  0  0
  7 10  2  0  0  0  0
  8 11  1  0  0  0  0
  8 12  2  0  0  0  0
  1 13  1  0  0  0  0
  1 14  1  0  0  0  0
  5 15  1  0  0  0  0
  5 16  1  0  0  0  0
  5 17  1  0  0  0  0
  6 18  1  0  0  0  0
  6 19  1  0  0  0  0
  6 20  1  0  0  0  0
  7 21  1  0  0  0  0
  8 22  1  0  0  0  0
M  END
> <pdb_id>
3ZVV

> <uniprot_id>
P48736

> <usmiles>
N=1N2C(N=C(C=C2C)C)=CC1N

$$$$
XCF_X_300
          07202413023D 1   1.00000     0.00000     0
            
 48 51  0  0  0  0            999 V2000
   30.6290   14.5460   45.7400 O   0  0  0  0  0  0  0  0  0  0  0  0
   33.0850   13.2830   45.7230 O   0  0  0  0  0  0  0  0  0  0  0  0
   33.7100   11.4800   43.6130 O   0  0  0  0  0  0  0  0  0  0  0  0
   26.6460    7.3400   41.5830 N   0  0  0  0  0  0  0  0  0  0  0  0
   27.1310   11.5600   39.7650 N   0  0  0  0  0  0  0  0  0  0  0  0
   28.2920    8.7410   42.5010 N   0  0  0  0  0  0  0  0  0  0  0  0
   26.9480    9.4700   40.7230 N   0  0  0  0  0  0  0  0  0  0  0  0
   29.3130   15.0930   45.8270 C   0  0  0  0  0  0  0  0  0  0  0  0
   34.4780   13.4350   45.4450 C   0  0  0  0  0  0  0  0  0  0  0  0
   28.9410    9.9300   42.5020 C   0  0  0  0  0  0  0  0  0  0  0  0
   33.1010   10.5000   41.4830 C   0  0  0  0  0  0  0  0  0  0  0  0
   36.4410   11.9660   41.1550 C   0  0  0  0  0  0  0  0  0  0  0  0
   36.2370   12.5200   42.5590 C   0  0  0  0  0  0  0  0  0  0  0  0
   32.1060   11.1130   41.8790 C   0  0  0  0  0  0  0  0  0  0  0  0
   30.0140   13.4210   43.6910 C   0  0  0  0  0  0  0  0  0  0  0  0
   29.2900   12.2910   41.5410 C   0  0  0  0  0  0  0  0  0  0  0  0
   27.3040    8.5260   41.6140 C   0  0  0  0  0  0  0  0  0  0  0  0
   27.5520   10.6590   40.6880 C   0  0  0  0  0  0  0  0  0  0  0  0
   30.9370   13.6700   44.7230 C   0  0  0  0  0  0  0  0  0  0  0  0
   34.2540   10.9550   42.3560 C   0  0  1  0  0  0  0  0  0  0  0  0
   32.1810   13.0440   44.7170 C   0  0  0  0  0  0  0  0  0  0  0  0
   32.4850   12.1660   43.6890 C   0  0  0  0  0  0  0  0  0  0  0  0
   28.5820   10.9350   41.5890 C   0  0  0  0  0  0  0  0  0  0  0  0
   35.0260   12.1140   41.7070 C   0  0  0  0  0  0  0  0  0  0  0  0
   30.3040   12.5370   42.6450 C   0  0  0  0  0  0  0  0  0  0  0  0
   31.5490   11.9260   42.6770 C   0  0  0  0  0  0  0  0  0  0  0  0
   25.9131    7.1920   40.9189 H   0  0  0  0  0  0  0  0  0  0  0  0
   26.8938    6.6138   42.2242 H   0  0  0  0  0  0  0  0  0  0  0  0
   27.5626   12.4605   39.7122 H   0  0  0  0  0  0  0  0  0  0  0  0
   26.3891   11.3235   39.1376 H   0  0  0  0  0  0  0  0  0  0  0  0
   29.2579   15.7052   46.6158 H   0  0  0  0  0  0  0  0  0  0  0  0
   29.1091   15.6052   44.9927 H   0  0  0  0  0  0  0  0  0  0  0  0
   28.6503   14.3517   45.9334 H   0  0  0  0  0  0  0  0  0  0  0  0
   34.9720   13.6015   46.2984 H   0  0  0  0  0  0  0  0  0  0  0  0
   34.8253   12.6010   45.0161 H   0  0  0  0  0  0  0  0  0  0  0  0
   34.6119   14.2088   44.8259 H   0  0  0  0  0  0  0  0  0  0  0  0
   29.6795   10.0930   43.1562 H   0  0  0  0  0  0  0  0  0  0  0  0
   33.1392    9.8362   40.7360 H   0  0  0  0  0  0  0  0  0  0  0  0
   36.8351   11.0554   41.0304 H   0  0  0  0  0  0  0  0  0  0  0  0
   36.7560   12.5687   40.4218 H   0  0  0  0  0  0  0  0  0  0  0  0
   36.4155   13.4859   42.7466 H   0  0  0  0  0  0  0  0  0  0  0  0
   36.4947   11.9726   43.3552 H   0  0  0  0  0  0  0  0  0  0  0  0
   31.3728   10.8247   41.2631 H   0  0  0  0  0  0  0  0  0  0  0  0
   29.1292   13.8868   43.7049 H   0  0  0  0  0  0  0  0  0  0  0  0
   28.5925   13.0053   41.5982 H   0  0  0  0  0  0  0  0  0  0  0  0
   29.7660   12.3595   40.6642 H   0  0  0  0  0  0  0  0  0  0  0  0
   34.8707   10.1896   42.5398 H   0  0  0  0  0  0  0  0  0  0  0  0
   34.4764   12.8596   41.3300 H   0  0  0  0  0  0  0  0  0  0  0  0
  1  8  1  0  0  0  0
  1 19  1  0  0  0  0
  2  9  1  0  0  0  0
  2 21  1  0  0  0  0
  3 20  1  0  0  0  0
  3 22  1  0  0  0  0
  4 17  1  0  0  0  0
  5 18  1  0  0  0  0
  6 10  1  0  0  0  0
  6 17  2  0  0  0  0
  7 17  1  0  0  0  0
  7 18  2  0  0  0  0
 10 23  2  0  0  0  0
 11 14  2  0  0  0  0
 11 20  1  0  0  0  0
 12 13  1  0  0  0  0
 12 24  1  0  0  0  0
 13 24  1  0  0  0  0
 14 26  1  0  0  0  0
 15 19  1  0  0  0  0
 15 25  2  0  0  0  0
 16 23  1  0  0  0  0
 16 25  1  0  0  0  0
 18 23  1  0  0  0  0
 19 21  2  0  0  0  0
 20 24  1  0  0  0  0
 21 22  1  0  0  0  0
 22 26  2  0  0  0  0
 25 26  1  0  0  0  0
  4 27  1  0  0  0  0
  4 28  1  0  0  0  0
  5 29  1  0  0  0  0
  5 30  1  0  0  0  0
  8 31  1  0  0  0  0
  8 32  1  0  0  0  0
  8 33  1  0  0  0  0
  9 34  1  0  0  0  0
  9 35  1  0  0  0  0
  9 36  1  0  0  0  0
 10 37  1  0  0  0  0
 11 38  1  0  0  0  0
 12 39  1  0  0  0  0
 12 40  1  0  0  0  0
 13 41  1  0  0  0  0
 13 42  1  0  0  0  0
 14 43  1  0  0  0  0
 15 44  1  0  0  0  0
 16 45  1  0  0  0  0
 16 46  1  0  0  0  0
 20 47  1  0  0  0  0
 24 48  1  0  0  0  0
M  END
> <pdb_id>
3FY8

> <uniprot_id>
P0A017

> <usmiles>
O1c2c(OC)c(OC)cc(c2C=C[C@H]1C3CC3)Cc4c(nc(nc4)N)N

$$$$
XCG_A_1501
          07212403183D 1   1.00000     0.00000     0
            
 24 26  0  0  0  0            999 V2000
   12.5796  128.0887   27.4336 O   0  0  0  0  0  0  0  0  0  0  0  0
    9.1704  128.2623   26.3261 N   0  0  0  0  0  0  0  0  0  0  0  0
   10.5820  126.5474   26.2380 N   0  0  0  0  0  0  0  0  0  0  0  0
    8.4462  127.2541   25.6155 C   0  0  0  0  0  0  0  0  0  0  0  0
    9.3953  126.0737   25.5111 C   0  0  0  0  0  0  0  0  0  0  0  0
   15.0750  130.1243   29.2747 C   0  0  0  0  0  0  0  0  0  0  0  0
   14.2084  131.1580   29.6064 C   0  0  0  0  0  0  0  0  0  0  0  0
   14.6142  129.0325   28.5500 C   0  0  0  0  0  0  0  0  0  0  0  0
   12.8697  131.1166   29.2304 C   0  0  0  0  0  0  0  0  0  0  0  0
   11.2203  129.7505   27.9938 C   0  0  0  0  0  0  0  0  0  0  0  0
   10.3779  127.8139   26.6670 C   0  0  0  0  0  0  0  0  0  0  0  0
   11.3177  128.5677   27.3609 C   0  0  0  0  0  0  0  0  0  0  0  0
   13.2868  129.0104   28.1544 C   0  0  0  0  0  0  0  0  0  0  0  0
   12.4048  130.0403   28.4992 C   0  0  0  0  0  0  0  0  0  0  0  0
    8.8199  129.1748   26.5373 H   0  0  0  0  0  0  0  0  0  0  0  0
    8.1934  127.5813   24.7049 H   0  0  0  0  0  0  0  0  0  0  0  0
    7.6211  126.9962   26.1180 H   0  0  0  0  0  0  0  0  0  0  0  0
    9.0078  125.2601   25.9447 H   0  0  0  0  0  0  0  0  0  0  0  0
    9.6143  125.8705   24.5568 H   0  0  0  0  0  0  0  0  0  0  0  0
   16.0330  130.1662   29.5584 H   0  0  0  0  0  0  0  0  0  0  0  0
   14.5516  131.9427   30.1226 H   0  0  0  0  0  0  0  0  0  0  0  0
   15.2281  128.2779   28.3186 H   0  0  0  0  0  0  0  0  0  0  0  0
   12.2501  131.8585   29.4867 H   0  0  0  0  0  0  0  0  0  0  0  0
   10.3958  130.3115   28.0684 H   0  0  0  0  0  0  0  0  0  0  0  0
  1 12  1  0  0  0  0
  1 13  1  0  0  0  0
  2  4  1  0  0  0  0
  2 11  1  0  0  0  0
  3  5  1  0  0  0  0
  3 11  2  0  0  0  0
  4  5  1  0  0  0  0
  6  7  2  0  0  0  0
  6  8  1  0  0  0  0
  7  9  1  0  0  0  0
  8 13  2  0  0  0  0
  9 14  2  0  0  0  0
 10 12  2  0  0  0  0
 10 14  1  0  0  0  0
 11 12  1  0  0  0  0
 13 14  1  0  0  0  0
  2 15  1  0  0  0  0
  4 16  1  0  0  0  0
  4 17  1  0  0  0  0
  5 18  1  0  0  0  0
  5 19  1  0  0  0  0
  6 20  1  0  0  0  0
  7 21  1  0  0  0  0
  8 22  1  0  0  0  0
  9 23  1  0  0  0  0
 10 24  1  0  0  0  0
M  END
> <pdb_id>
2XFN

> <uniprot_id>
P27338

> <usmiles>
O1c2c(cccc2)C=C1C3=NCCN3

$$$$
XCG_B_1501
          07212403183D 1   1.00000     0.00000     0
            
 22 24  0  0  0  0            999 V2000
   12.5792  128.1662   27.4701 O   0  0  0  0  0  0  0  0  0  0  0  0
    9.1790  128.3136   26.3803 N   0  0  0  0  0  0  0  0  0  0  0  0
   10.5910  126.6271   26.1516 N   0  0  0  0  0  0  0  0  0  0  0  0
    8.4475  127.4013   25.5808 C   0  0  0  0  0  0  0  0  0  0  0  0
    9.3703  126.2050   25.4192 C   0  0  0  0  0  0  0  0  0  0  0  0
   15.0492  130.2056   29.3784 C   0  0  0  0  0  0  0  0  0  0  0  0
   14.1545  131.2214   29.7015 C   0  0  0  0  0  0  0  0  0  0  0  0
   14.6070  129.1260   28.6049 C   0  0  0  0  0  0  0  0  0  0  0  0
   12.8193  131.1788   29.3221 C   0  0  0  0  0  0  0  0  0  0  0  0
   11.2037  129.8015   28.0189 C   0  0  0  0  0  0  0  0  0  0  0  0
   10.3924  127.8628   26.6566 C   0  0  0  0  0  0  0  0  0  0  0  0
   11.3225  128.6203   27.3687 C   0  0  0  0  0  0  0  0  0  0  0  0
   13.2819  129.0973   28.1954 C   0  0  0  0  0  0  0  0  0  0  0  0
   12.3810  130.0982   28.5566 C   0  0  0  0  0  0  0  0  0  0  0  0
    8.8218  129.1921   26.6976 H   0  0  0  0  0  0  0  0  0  0  0  0
    7.5278  127.5186   25.2060 H   0  0  0  0  0  0  0  0  0  0  0  0
    9.1980  125.3453   24.9382 H   0  0  0  0  0  0  0  0  0  0  0  0
   15.9969  130.2465   29.6951 H   0  0  0  0  0  0  0  0  0  0  0  0
   14.4838  132.0079   30.2241 H   0  0  0  0  0  0  0  0  0  0  0  0
   15.2344  128.3894   28.3523 H   0  0  0  0  0  0  0  0  0  0  0  0
   12.1871  131.9053   29.5912 H   0  0  0  0  0  0  0  0  0  0  0  0
   10.3732  130.3548   28.0833 H   0  0  0  0  0  0  0  0  0  0  0  0
  1 12  1  0  0  0  0
  1 13  1  0  0  0  0
  2  4  1  0  0  0  0
  2 11  1  0  0  0  0
  3  5  1  0  0  0  0
  3 11  2  0  0  0  0
  4  5  2  0  0  0  0
  6  7  2  0  0  0  0
  6  8  1  0  0  0  0
  7  9  1  0  0  0  0
  8 13  2  0  0  0  0
  9 14  2  0  0  0  0
 10 12  2  0  0  0  0
 10 14  1  0  0  0  0
 11 12  1  0  0  0  0
 13 14  1  0  0  0  0
  2 15  1  0  0  0  0
  4 16  1  0  0  0  0
  5 17  1  0  0  0  0
  6 18  1  0  0  0  0
  7 19  1  0  0  0  0
  8 20  1  0  0  0  0
  9 21  1  0  0  0  0
 10 22  1  0  0  0  0
M  END
> <pdb_id>
2XFN

> <uniprot_id>
P27338

> <usmiles>
O1c2c(cccc2)C=C1C3=NC=CN3

$$$$
XCH_A_404
          07202402263D 1   1.00000     0.00000     0
            
 30 30  0  0  0  0            999 V2000
   17.3033   14.3860  -26.0698 Cl  0  0  0  0  0  0  0  0  0  0  0  0
    5.1081   13.2930  -24.5500 O   0  0  0  0  0  0  0  0  0  0  0  0
    6.6335   15.3549  -24.4886 O   0  0  0  0  0  0  0  0  0  0  0  0
   11.4508   14.1025  -26.5877 O   0  0  0  0  0  0  0  0  0  0  0  0
    6.4718   13.1343  -24.4960 N   0  0  0  0  0  0  0  0  0  0  0  0
   12.6315   16.5445  -27.0643 C   0  0  0  0  0  0  0  0  0  0  0  0
   10.6912   13.5024  -25.5582 C   0  0  0  0  0  0  0  0  0  0  0  0
    9.3470   14.2004  -25.6313 C   0  0  0  0  0  0  0  0  0  0  0  0
    8.6479   14.0276  -24.3093 C   0  0  0  0  0  0  0  0  0  0  0  0
   14.8824   13.0655  -25.9924 C   0  0  0  0  0  0  0  0  0  0  0  0
   13.5035   12.9916  -26.1116 C   0  0  0  0  0  0  0  0  0  0  0  0
   14.8149   15.4159  -26.5686 C   0  0  0  0  0  0  0  0  0  0  0  0
    7.1638   14.2434  -24.4509 C   0  0  0  0  0  0  0  0  0  0  0  0
   15.5252   14.2759  -26.2226 C   0  0  0  0  0  0  0  0  0  0  0  0
   12.8021   14.1393  -26.4604 C   0  0  0  0  0  0  0  0  0  0  0  0
   13.4406   15.3362  -26.6923 C   0  0  0  0  0  0  0  0  0  0  0  0
    4.6690   12.3951  -24.5814 H   0  0  0  0  0  0  0  0  0  0  0  0
    6.9054   12.2332  -24.4914 H   0  0  0  0  0  0  0  0  0  0  0  0
   11.6634   16.2974  -27.1060 H   0  0  0  0  0  0  0  0  0  0  0  0
   12.7639   17.2588  -26.3772 H   0  0  0  0  0  0  0  0  0  0  0  0
   12.9281   16.8821  -27.9577 H   0  0  0  0  0  0  0  0  0  0  0  0
   11.1205   13.6522  -24.6676 H   0  0  0  0  0  0  0  0  0  0  0  0
   10.5900   12.5206  -25.7186 H   0  0  0  0  0  0  0  0  0  0  0  0
    8.7954   13.7950  -26.3603 H   0  0  0  0  0  0  0  0  0  0  0  0
    9.4817   15.1737  -25.8172 H   0  0  0  0  0  0  0  0  0  0  0  0
    9.0139   14.6909  -23.6566 H   0  0  0  0  0  0  0  0  0  0  0  0
    8.8127   13.1011  -23.9708 H   0  0  0  0  0  0  0  0  0  0  0  0
   15.4106   12.2540  -25.7426 H   0  0  0  0  0  0  0  0  0  0  0  0
   13.0230   12.1297  -25.9498 H   0  0  0  0  0  0  0  0  0  0  0  0
   15.2897   16.2819  -26.7259 H   0  0  0  0  0  0  0  0  0  0  0  0
  1 14  1  0  0  0  0
  2  5  1  0  0  0  0
  3 13  2  0  0  0  0
  4  7  1  0  0  0  0
  4 15  1  0  0  0  0
  5 13  1  0  0  0  0
  6 16  1  0  0  0  0
  7  8  1  0  0  0  0
  8  9  1  0  0  0  0
  9 13  1  0  0  0  0
 10 11  1  0  0  0  0
 10 14  2  0  0  0  0
 11 15  2  0  0  0  0
 12 14  1  0  0  0  0
 12 16  2  0  0  0  0
 15 16  1  0  0  0  0
  2 17  1  0  0  0  0
  5 18  1  0  0  0  0
  6 19  1  0  0  0  0
  6 20  1  0  0  0  0
  6 21  1  0  0  0  0
  7 22  1  0  0  0  0
  7 23  1  0  0  0  0
  8 24  1  0  0  0  0
  8 25  1  0  0  0  0
  9 26  1  0  0  0  0
  9 27  1  0  0  0  0
 10 28  1  0  0  0  0
 11 29  1  0  0  0  0
 12 30  1  0  0  0  0
M  END
> <pdb_id>
5BWZ

> <uniprot_id>
Q9BY41

> <usmiles>
Clc1cc(c(OCCCC(=O)NO)cc1)C

$$$$
XCM_B_1001
          07212404153D 1   1.00000     0.00000     0
            
 52 55  0  0  0  0            999 V2000
    2.0908   55.1003    6.7759 F   0  0  0  0  0  0  0  0  0  0  0  0
    4.0183   55.9894    6.0610 F   0  0  0  0  0  0  0  0  0  0  0  0
    4.0142   54.2581    7.4674 F   0  0  0  0  0  0  0  0  0  0  0  0
    7.6891   48.3295    1.1596 O   0  0  0  0  0  0  0  0  0  0  0  0
    7.6549   43.6095    2.7815 N   0  0  0  0  0  0  0  0  0  0  0  0
    2.8182   54.4679    4.1088 N   0  0  0  0  0  0  0  0  0  0  0  0
    7.0532   42.3679    2.9633 N   0  0  0  0  0  0  0  0  0  0  0  0
    4.1759   48.0580    1.7734 N   0  0  0  0  0  0  0  0  0  0  0  0
    6.5110   46.3494    1.2353 N   0  0  0  0  0  0  0  0  0  0  0  0
    5.3971   40.7761    1.8353 C   0  0  0  0  0  0  0  0  0  0  0  0
    6.2635   51.0579    1.0901 C   0  0  0  0  0  0  0  0  0  0  0  0
    8.0439   45.4888   -0.4915 C   0  0  0  0  0  0  0  0  0  0  0  0
    2.7507   53.7821    2.9972 C   0  0  0  0  0  0  0  0  0  0  0  0
    3.2506   49.0221    1.8809 C   0  0  0  0  0  0  0  0  0  0  0  0
    3.8791   52.6534    5.2590 C   0  0  0  0  0  0  0  0  0  0  0  0
    3.7960   51.8819    4.0888 C   0  0  0  0  0  0  0  0  0  0  0  0
    6.3194   43.1415    1.0562 C   0  0  0  0  0  0  0  0  0  0  0  0
    1.8297   52.0675    1.0922 C   0  0  0  0  0  0  0  0  0  0  0  0
    3.0815   51.9334    0.1965 C   0  0  0  0  0  0  0  0  0  0  0  0
    6.6358   47.8071    1.2726 C   0  0  0  0  0  0  0  0  0  0  0  0
    6.2442   42.0793    1.9438 C   0  0  0  0  0  0  0  0  0  0  0  0
    7.2278   44.0946    1.5987 C   0  0  0  0  0  0  0  0  0  0  0  0
    5.3610   48.6113    1.4798 C   0  0  0  0  0  0  0  0  0  0  0  0
    3.3733   53.9452    5.2008 C   0  0  0  0  0  0  0  0  0  0  0  0
    5.2040   49.9835    1.3879 C   0  0  0  0  0  0  0  0  0  0  0  0
    3.1973   52.4579    2.9460 C   0  0  0  0  0  0  0  0  0  0  0  0
    3.8943   50.2198    1.6446 C   0  0  0  0  0  0  0  0  0  0  0  0
    7.6659   45.4666    1.0167 C   0  0  2  0  0  0  0  0  0  0  0  0
    3.3898   54.8543    6.4316 C   0  0  0  0  0  0  0  0  0  0  0  0
    3.1516   51.5562    1.6704 C   0  0  0  0  0  0  0  0  0  0  0  0
    7.1853   41.8567    3.6414 H   0  0  0  0  0  0  0  0  0  0  0  0
    4.0308   47.2162    1.8762 H   0  0  0  0  0  0  0  0  0  0  0  0
    5.7338   45.9966    1.3455 H   0  0  0  0  0  0  0  0  0  0  0  0
    5.4458   40.4326    0.9298 H   0  0  0  0  0  0  0  0  0  0  0  0
    5.7441   40.1118    2.4513 H   0  0  0  0  0  0  0  0  0  0  0  0
    4.4733   40.9716    2.0578 H   0  0  0  0  0  0  0  0  0  0  0  0
    6.0745   51.4686    0.2321 H   0  0  0  0  0  0  0  0  0  0  0  0
    6.2414   51.7341    1.7849 H   0  0  0  0  0  0  0  0  0  0  0  0
    7.1423   50.6476    1.0655 H   0  0  0  0  0  0  0  0  0  0  0  0
    8.9054   45.0599   -0.6154 H   0  0  0  0  0  0  0  0  0  0  0  0
    8.0927   46.4070   -0.7990 H   0  0  0  0  0  0  0  0  0  0  0  0
    7.3695   45.0122   -1.0009 H   0  0  0  0  0  0  0  0  0  0  0  0
    2.4007   54.1793    2.2328 H   0  0  0  0  0  0  0  0  0  0  0  0
    2.3498   48.9060    2.0768 H   0  0  0  0  0  0  0  0  0  0  0  0
    4.2556   52.3133    6.0387 H   0  0  0  0  0  0  0  0  0  0  0  0
    4.1278   51.0138    4.0658 H   0  0  0  0  0  0  0  0  0  0  0  0
    5.8594   43.2173    0.2521 H   0  0  0  0  0  0  0  0  0  0  0  0
    1.5848   52.9725    1.3391 H   0  0  0  0  0  0  0  0  0  0  0  0
    1.1435   51.3957    0.9569 H   0  0  0  0  0  0  0  0  0  0  0  0
    3.5149   52.7673   -0.0440 H   0  0  0  0  0  0  0  0  0  0  0  0
    3.0737   51.1906   -0.4263 H   0  0  0  0  0  0  0  0  0  0  0  0
    8.4741   45.7538    1.4710 H   0  0  0  0  0  0  0  0  0  0  0  0
  1 29  1  0  0  0  0
  2 29  1  0  0  0  0
  3 29  1  0  0  0  0
  4 20  2  0  0  0  0
  5  7  1  0  0  0  0
  5 22  2  0  0  0  0
  6 13  2  0  0  0  0
  6 24  1  0  0  0  0
  7 21  1  0  0  0  0
  7 31  1  0  0  0  0
  8 14  1  0  0  0  0
  8 23  1  0  0  0  0
  8 32  1  0  0  0  0
  9 20  1  0  0  0  0
  9 28  1  0  0  0  0
  9 33  1  0  0  0  0
 10 21  1  0  0  0  0
 10 34  1  0  0  0  0
 10 35  1  0  0  0  0
 10 36  1  0  0  0  0
 11 25  1  0  0  0  0
 11 37  1  0  0  0  0
 11 38  1  0  0  0  0
 11 39  1  0  0  0  0
 12 28  1  0  0  0  0
 12 40  1  0  0  0  0
 12 41  1  0  0  0  0
 12 42  1  0  0  0  0
 13 26  1  0  0  0  0
 13 43  1  0  0  0  0
 14 27  2  0  0  0  0
 14 44  1  0  0  0  0
 15 16  1  0  0  0  0
 15 24  2  0  0  0  0
 15 45  1  0  0  0  0
 16 26  2  0  0  0  0
 16 46  1  0  0  0  0
 17 21  2  0  0  0  0
 17 22  1  0  0  0  0
 17 47  1  0  0  0  0
 18 19  1  0  0  0  0
 18 30  1  0  0  0  0
 18 48  1  0  0  0  0
 18 49  1  0  0  0  0
 19 30  1  0  0  0  0
 19 50  1  0  0  0  0
 19 51  1  0  0  0  0
 20 23  1  0  0  0  0
 22 28  1  0  0  0  0
 23 25  2  0  0  0  0
 24 29  1  0  0  0  0
 25 27  1  0  0  0  0
 26 30  1  0  0  0  0
 27 30  1  0  0  0  0
 28 52  1  0  0  0  0
M  END
> <pdb_id>
7KZY

> <uniprot_id>
Q08210

> <usmiles>
FC(F)(F)c1ncc(cc1)C2(C=3C(=C(NC3)C(=O)N[C@@H](C4=NNC(=C4)C)C)C)CC2

$$$$
XCV_A_1001
          07212404153D 1   1.00000     0.00000     0
            
 50 53  0  0  0  0            999 V2000
    3.9900   54.1500    7.5010 F   0  0  0  0  0  0  0  0  0  0  0  0
    2.1020   55.1280    6.8330 F   0  0  0  0  0  0  0  0  0  0  0  0
    4.0470   55.8770    6.1570 F   0  0  0  0  0  0  0  0  0  0  0  0
    7.7910   48.3890    1.1970 O   0  0  0  0  0  0  0  0  0  0  0  0
    5.0800   39.9640    1.8720 N   0  0  0  0  0  0  0  0  0  0  0  0
    7.8360   43.7380    2.7820 N   0  0  0  0  0  0  0  0  0  0  0  0
    2.8110   54.3710    4.1390 N   0  0  0  0  0  0  0  0  0  0  0  0
    7.2580   42.5180    2.9560 N   0  0  0  0  0  0  0  0  0  0  0  0
    4.1960   48.0180    1.7820 N   0  0  0  0  0  0  0  0  0  0  0  0
    6.5700   46.4650    1.3140 N   0  0  0  0  0  0  0  0  0  0  0  0
    6.1950   51.1100    1.2170 C   0  0  0  0  0  0  0  0  0  0  0  0
    8.0260   45.5680   -0.3920 C   0  0  0  0  0  0  0  0  0  0  0  0
    5.6520   40.9360    1.9020 C   0  0  0  0  0  0  0  0  0  0  0  0
    2.7570   53.6260    3.0400 C   0  0  0  0  0  0  0  0  0  0  0  0
    3.2290   48.9340    1.9180 C   0  0  0  0  0  0  0  0  0  0  0  0
    3.8410   52.5620    5.3410 C   0  0  0  0  0  0  0  0  0  0  0  0
    3.7850   51.7570    4.1900 C   0  0  0  0  0  0  0  0  0  0  0  0
    6.4360   43.2990    1.1090 C   0  0  0  0  0  0  0  0  0  0  0  0
    3.0530   52.3290    0.3980 C   0  0  0  0  0  0  0  0  0  0  0  0
    1.8590   51.4970    0.8430 C   0  0  0  0  0  0  0  0  0  0  0  0
    6.7130   47.8920    1.3470 C   0  0  0  0  0  0  0  0  0  0  0  0
    6.4270   42.2360    1.9800 C   0  0  0  0  0  0  0  0  0  0  0  0
    7.3340   44.2360    1.6510 C   0  0  0  0  0  0  0  0  0  0  0  0
    3.3330   53.8550    5.2500 C   0  0  0  0  0  0  0  0  0  0  0  0
    5.3940   48.6370    1.5370 C   0  0  0  0  0  0  0  0  0  0  0  0
    5.1610   49.9960    1.4790 C   0  0  0  0  0  0  0  0  0  0  0  0
    3.2580   52.3220    3.0180 C   0  0  0  0  0  0  0  0  0  0  0  0
    3.8350   50.1780    1.7510 C   0  0  0  0  0  0  0  0  0  0  0  0
    7.7210   45.6090    1.1040 C   0  0  2  0  0  0  0  0  0  0  0  0
    3.3640   54.7740    6.4790 C   0  0  0  0  0  0  0  0  0  0  0  0
    3.1000   51.5130    1.7100 C   0  0  0  0  0  0  0  0  0  0  0  0
    7.4180   41.9980    3.6220 H   0  0  0  0  0  0  0  0  0  0  0  0
    4.0820   47.1670    1.8390 H   0  0  0  0  0  0  0  0  0  0  0  0
    5.7930   46.1130    1.4200 H   0  0  0  0  0  0  0  0  0  0  0  0
    6.9800   50.7290    0.7930 H   0  0  0  0  0  0  0  0  0  0  0  0
    6.4490   51.5200    2.0590 H   0  0  0  0  0  0  0  0  0  0  0  0
    5.8060   51.7810    0.6350 H   0  0  0  0  0  0  0  0  0  0  0  0
    7.2800   45.1660   -0.8640 H   0  0  0  0  0  0  0  0  0  0  0  0
    8.8260   45.0410   -0.5450 H   0  0  0  0  0  0  0  0  0  0  0  0
    8.1670   46.4700   -0.7180 H   0  0  0  0  0  0  0  0  0  0  0  0
    2.3770   53.9810    2.2680 H   0  0  0  0  0  0  0  0  0  0  0  0
    2.3290   48.7720    2.0890 H   0  0  0  0  0  0  0  0  0  0  0  0
    4.2050   52.2420    6.1350 H   0  0  0  0  0  0  0  0  0  0  0  0
    4.0880   50.8780    4.2050 H   0  0  0  0  0  0  0  0  0  0  0  0
    5.9470   43.3830    0.3220 H   0  0  0  0  0  0  0  0  0  0  0  0
    2.9600   53.2890    0.5030 H   0  0  0  0  0  0  0  0  0  0  0  0
    3.5660   51.9670   -0.3410 H   0  0  0  0  0  0  0  0  0  0  0  0
    1.7110   50.6800    0.3420 H   0  0  0  0  0  0  0  0  0  0  0  0
    1.1050   52.0020    1.1860 H   0  0  0  0  0  0  0  0  0  0  0  0
    8.5080   45.9440    1.5620 H   0  0  0  0  0  0  0  0  0  0  0  0
  1 30  1  0  0  0  0
  2 30  1  0  0  0  0
  3 30  1  0  0  0  0
  4 21  2  0  0  0  0
  5 13  3  0  0  0  0
  6  8  1  0  0  0  0
  6 23  2  0  0  0  0
  7 14  2  0  0  0  0
  7 24  1  0  0  0  0
  8 22  1  0  0  0  0
  8 32  1  0  0  0  0
  9 15  1  0  0  0  0
  9 25  1  0  0  0  0
  9 33  1  0  0  0  0
 10 21  1  0  0  0  0
 10 29  1  0  0  0  0
 10 34  1  0  0  0  0
 11 26  1  0  0  0  0
 11 35  1  0  0  0  0
 11 36  1  0  0  0  0
 11 37  1  0  0  0  0
 12 29  1  0  0  0  0
 12 38  1  0  0  0  0
 12 39  1  0  0  0  0
 12 40  1  0  0  0  0
 13 22  1  0  0  0  0
 14 27  1  0  0  0  0
 14 41  1  0  0  0  0
 15 28  2  0  0  0  0
 15 42  1  0  0  0  0
 16 17  1  0  0  0  0
 16 24  2  0  0  0  0
 16 43  1  0  0  0  0
 17 27  2  0  0  0  0
 17 44  1  0  0  0  0
 18 22  2  0  0  0  0
 18 23  1  0  0  0  0
 18 45  1  0  0  0  0
 19 20  1  0  0  0  0
 19 31  1  0  0  0  0
 19 46  1  0  0  0  0
 19 47  1  0  0  0  0
 20 31  1  0  0  0  0
 20 48  1  0  0  0  0
 20 49  1  0  0  0  0
 21 25  1  0  0  0  0
 23 29  1  0  0  0  0
 24 30  1  0  0  0  0
 25 26  2  0  0  0  0
 26 28  1  0  0  0  0
 27 31  1  0  0  0  0
 28 31  1  0  0  0  0
 29 50  1  0  0  0  0
M  END
> <pdb_id>
7L01

> <uniprot_id>
Q08210

> <usmiles>
FC(F)(F)c1ncc(cc1)C2(C=3C(=C(NC3)C(=O)N[C@@H](C4=NNC(C#N)=C4)C)C)CC2

$$$$
XCZ_A_303
          07192416293D 1   1.00000     0.00000     0
            
 18 18  0  0  0  0            999 V2000
   -5.8391    0.9347   16.8688 S   0  0  0  0  0  0  0  0  0  0  0  0
   -5.3829    1.0950   18.2397 O   0  0  0  0  0  0  0  0  0  0  0  0
   -7.2904    1.1451   16.6802 O   0  0  0  0  0  0  0  0  0  0  0  0
   -5.3388   -0.4927   16.2435 N   0  0  0  0  0  0  0  0  0  0  0  0
   -3.6457    2.1811   16.0154 N   0  0  0  0  0  0  0  0  0  0  0  0
   -5.6978    3.0460   15.2640 N   0  0  0  0  0  0  0  0  0  0  0  0
   -5.9032    5.0149   13.8003 C   0  0  0  0  0  0  0  0  0  0  0  0
   -2.9508    3.1249   15.3333 C   0  0  0  0  0  0  0  0  0  0  0  0
   -3.6480    4.0782   14.5776 C   0  0  0  0  0  0  0  0  0  0  0  0
   -4.9907    2.1767   15.9657 C   0  0  0  0  0  0  0  0  0  0  0  0
   -5.0710    4.0247   14.5680 C   0  0  0  0  0  0  0  0  0  0  0  0
   -5.6655   -0.5771   15.3022 H   0  0  0  0  0  0  0  0  0  0  0  0
   -4.3395   -0.5293   16.2541 H   0  0  0  0  0  0  0  0  0  0  0  0
   -5.3030    5.6704   13.3420 H   0  0  0  0  0  0  0  0  0  0  0  0
   -6.4516    4.5314   13.1180 H   0  0  0  0  0  0  0  0  0  0  0  0
   -6.5084    5.5013   14.4306 H   0  0  0  0  0  0  0  0  0  0  0  0
   -1.9516    3.1408   15.3689 H   0  0  0  0  0  0  0  0  0  0  0  0
   -3.1581    4.7784   14.0583 H   0  0  0  0  0  0  0  0  0  0  0  0
  1  2  2  0  0  0  0
  1  3  2  0  0  0  0
  1  4  1  0  0  0  0
  1 10  1  0  0  0  0
  5  8  2  0  0  0  0
  5 10  1  0  0  0  0
  6 10  2  0  0  0  0
  6 11  1  0  0  0  0
  7 11  1  0  0  0  0
  8  9  1  0  0  0  0
  9 11  2  0  0  0  0
  4 12  1  0  0  0  0
  4 13  1  0  0  0  0
  7 14  1  0  0  0  0
  7 15  1  0  0  0  0
  7 16  1  0  0  0  0
  8 17  1  0  0  0  0
  9 18  1  0  0  0  0
M  END
> <pdb_id>
5EH5

> <uniprot_id>
P00918

> <usmiles>
S(=O)(=O)(N)c1nc(ccn1)C

$$$$
XD9_C_200
          07192422293D 1   1.00000     0.00000     0
            
 32 33  0  0  0  0            999 V2000
    2.1317   34.3528  -23.3947 S   0  0  0  0  0  0  0  0  0  0  0  0
   -0.0844   39.0439  -25.2057 O   0  0  0  0  0  0  0  0  0  0  0  0
    1.6949   38.9425  -26.4211 O   0  0  0  0  0  0  0  0  0  0  0  0
    1.7194   38.5917  -20.3855 O   0  0  0  0  0  0  0  0  0  0  0  0
    3.1083   35.8916  -20.8297 O   0  0  0  0  0  0  0  0  0  0  0  0
    3.2864   39.0074  -24.2885 O   0  0  0  0  0  0  0  0  0  0  0  0
    1.7388   31.2041  -26.8600 C   0  0  0  0  0  0  0  0  0  0  0  0
    1.8661   32.2620  -25.7256 C   0  0  0  0  0  0  0  0  0  0  0  0
    1.8472   33.6146  -26.0322 C   0  0  0  0  0  0  0  0  0  0  0  0
    1.9226   35.9587  -25.3425 C   0  0  0  0  0  0  0  0  0  0  0  0
    1.3893   38.7755  -22.8113 C   0  0  0  0  0  0  0  0  0  0  0  0
    1.9406   34.6240  -25.0779 C   0  0  0  0  0  0  0  0  0  0  0  0
    1.1232   38.8255  -25.3527 C   0  0  0  0  0  0  0  0  0  0  0  0
    2.2481   38.1743  -21.6545 C   0  0  2  0  0  0  0  0  0  0  0  0
    2.1203   36.0331  -23.0457 C   0  0  0  0  0  0  0  0  0  0  0  0
    2.1703   36.6240  -21.6501 C   0  0  1  0  0  0  0  0  0  0  0  0
    2.0210   36.7784  -24.2370 C   0  0  0  0  0  0  0  0  0  0  0  0
    2.0015   38.3484  -24.1689 C   0  0  1  0  0  0  0  0  0  0  0  0
   -0.5067   38.9331  -24.3060 H   0  0  0  0  0  0  0  0  0  0  0  0
    2.2738   38.2033  -19.6494 H   0  0  0  0  0  0  0  0  0  0  0  0
    2.9405   34.9106  -20.9264 H   0  0  0  0  0  0  0  0  0  0  0  0
    3.7119   38.7532  -25.1570 H   0  0  0  0  0  0  0  0  0  0  0  0
    1.7710   30.2861  -26.4649 H   0  0  0  0  0  0  0  0  0  0  0  0
    0.8696   31.3310  -27.3380 H   0  0  0  0  0  0  0  0  0  0  0  0
    2.4939   31.3156  -27.5061 H   0  0  0  0  0  0  0  0  0  0  0  0
    1.9617   31.9664  -24.7751 H   0  0  0  0  0  0  0  0  0  0  0  0
    1.7617   33.8796  -26.9927 H   0  0  0  0  0  0  0  0  0  0  0  0
    1.8436   36.3196  -26.2718 H   0  0  0  0  0  0  0  0  0  0  0  0
    1.3871   39.7732  -22.7436 H   0  0  0  0  0  0  0  0  0  0  0  0
    0.4514   38.4349  -22.7445 H   0  0  0  0  0  0  0  0  0  0  0  0
    3.1993   38.4698  -21.7439 H   0  0  0  0  0  0  0  0  0  0  0  0
    1.2748   36.4171  -21.2559 H   0  0  0  0  0  0  0  0  0  0  0  0
  1 12  1  0  0  0  0
  1 15  1  0  0  0  0
  2 13  1  0  0  0  0
  3 13  2  0  0  0  0
  4 14  1  0  0  0  0
  5 16  1  0  0  0  0
  6 18  1  0  0  0  0
  7  8  1  0  0  0  0
  8  9  2  0  0  0  0
  9 12  1  0  0  0  0
 10 12  2  0  0  0  0
 10 17  1  0  0  0  0
 11 14  1  0  0  0  0
 11 18  1  0  0  0  0
 13 18  1  0  0  0  0
 14 16  1  0  0  0  0
 15 16  1  0  0  0  0
 15 17  2  0  0  0  0
 17 18  1  0  0  0  0
  2 19  1  0  0  0  0
  4 20  1  0  0  0  0
  5 21  1  0  0  0  0
  6 22  1  0  0  0  0
  7 23  1  0  0  0  0
  7 24  1  0  0  0  0
  7 25  1  0  0  0  0
  8 26  1  0  0  0  0
  9 27  1  0  0  0  0
 10 28  1  0  0  0  0
 11 29  1  0  0  0  0
 11 30  1  0  0  0  0
 14 31  1  0  0  0  0
 16 32  1  0  0  0  0
M  END
> <pdb_id>
2XD9

> <uniprot_id>
Q48255

> <usmiles>
S1C(/C=C/C)=CC2=C1[C@@H](O)[C@H](O)C[C@]2(O)C(=O)O

$$$$
XDK_A_1226
          07192420423D 1   1.00000     0.00000     0
            
 21 22  0  0  0  0            999 V2000
   64.9627   33.5512   25.2587 N   0  0  0  0  0  0  0  0  0  0  0  0
   71.5344   35.9849   24.9766 N   0  0  0  0  0  0  0  0  0  0  0  0
   65.4993   34.6388   23.2613 N   0  0  0  0  0  0  0  0  0  0  0  0
   67.1899   34.1324   24.8879 N   0  0  0  0  0  0  0  0  0  0  0  0
   72.0779   34.8880   25.5160 C   0  0  0  0  0  0  0  0  0  0  0  0
   66.4250   35.2082   22.4886 C   0  0  0  0  0  0  0  0  0  0  0  0
   70.2699   35.9062   24.5340 C   0  0  0  0  0  0  0  0  0  0  0  0
   71.3930   33.6902   25.6103 C   0  0  0  0  0  0  0  0  0  0  0  0
   67.7441   35.2612   22.8753 C   0  0  0  0  0  0  0  0  0  0  0  0
   70.0932   33.6153   25.1555 C   0  0  0  0  0  0  0  0  0  0  0  0
   65.9110   34.1234   24.4440 C   0  0  0  0  0  0  0  0  0  0  0  0
   68.1030   34.7128   24.0929 C   0  0  0  0  0  0  0  0  0  0  0  0
   69.5040   34.7432   24.5984 C   0  0  0  0  0  0  0  0  0  0  0  0
   65.2303   33.1605   26.1395 H   0  0  0  0  0  0  0  0  0  0  0  0
   64.0055   33.5256   24.9704 H   0  0  0  0  0  0  0  0  0  0  0  0
   73.0142   34.9358   25.8639 H   0  0  0  0  0  0  0  0  0  0  0  0
   66.1551   35.6044   21.6110 H   0  0  0  0  0  0  0  0  0  0  0  0
   69.8551   36.7251   24.1372 H   0  0  0  0  0  0  0  0  0  0  0  0
   71.8364   32.8855   26.0049 H   0  0  0  0  0  0  0  0  0  0  0  0
   68.4306   35.6884   22.2868 H   0  0  0  0  0  0  0  0  0  0  0  0
   69.5811   32.7593   25.2259 H   0  0  0  0  0  0  0  0  0  0  0  0
  1 11  1  0  0  0  0
  2  5  2  0  0  0  0
  2  7  1  0  0  0  0
  3  6  1  0  0  0  0
  3 11  2  0  0  0  0
  4 11  1  0  0  0  0
  4 12  2  0  0  0  0
  5  8  1  0  0  0  0
  6  9  2  0  0  0  0
  7 13  2  0  0  0  0
  8 10  2  0  0  0  0
  9 12  1  0  0  0  0
 10 13  1  0  0  0  0
 12 13  1  0  0  0  0
  1 14  1  0  0  0  0
  1 15  1  0  0  0  0
  5 16  1  0  0  0  0
  6 17  1  0  0  0  0
  7 18  1  0  0  0  0
  8 19  1  0  0  0  0
  9 20  1  0  0  0  0
 10 21  1  0  0  0  0
M  END
> <pdb_id>
2XDK

> <uniprot_id>
P07900

> <usmiles>
n1c(nccc1c2cnccc2)N

$$$$
XDM_A_1201
          07192420223D 1   1.00000     0.00000     0
            
 41 42  0  0  0  0            999 V2000
   12.9466   11.6566    4.3751 Cl  0  0  0  0  0  0  0  0  0  0  0  0
   11.5357   11.2976    9.9735 O   0  0  0  0  0  0  0  0  0  0  0  0
    5.6762   14.4050    8.7240 O   0  0  0  0  0  0  0  0  0  0  0  0
   12.3238   13.3256    9.4384 N   0  0  0  0  0  0  0  0  0  0  0  0
    8.9837   11.9698    9.5714 N   0  0  0  0  0  0  0  0  0  0  0  0
   10.1686   16.0350    7.9292 C   0  0  0  0  0  0  0  0  0  0  0  0
    6.8082   16.2068    9.7257 C   0  0  0  0  0  0  0  0  0  0  0  0
    6.5217   11.6342    9.3707 C   0  0  0  0  0  0  0  0  0  0  0  0
   15.1383   10.0725    7.2933 C   0  0  0  0  0  0  0  0  0  0  0  0
   14.5401   10.2848    6.0647 C   0  0  0  0  0  0  0  0  0  0  0  0
   14.8772   10.9205    8.3556 C   0  0  0  0  0  0  0  0  0  0  0  0
   13.4081   12.2043    6.9769 C   0  0  0  0  0  0  0  0  0  0  0  0
   13.7132   12.8964    9.3858 C   0  0  0  0  0  0  0  0  0  0  0  0
    9.9063   15.5571    9.3374 C   0  0  0  0  0  0  0  0  0  0  0  0
   11.3279   12.4590    9.6219 C   0  0  0  0  0  0  0  0  0  0  0  0
   13.6853   11.3548    5.9246 C   0  0  0  0  0  0  0  0  0  0  0  0
    6.7296   14.7988    9.2243 C   0  0  0  0  0  0  0  0  0  0  0  0
    7.7339   12.5080    9.4415 C   0  0  0  0  0  0  0  0  0  0  0  0
    9.9406   12.9522    9.5055 C   0  0  0  0  0  0  0  0  0  0  0  0
   14.0084   11.9909    8.2136 C   0  0  0  0  0  0  0  0  0  0  0  0
    9.2849   14.1884    9.3822 C   0  0  0  0  0  0  0  0  0  0  0  0
    7.8740   13.8862    9.3399 C   0  0  0  0  0  0  0  0  0  0  0  0
   12.1510   14.3201    9.3289 H   0  0  0  0  0  0  0  0  0  0  0  0
    9.1971   10.9857    9.6974 H   0  0  0  0  0  0  0  0  0  0  0  0
    9.2514   16.0872    7.3445 H   0  0  0  0  0  0  0  0  0  0  0  0
   10.8464   15.3660    7.4009 H   0  0  0  0  0  0  0  0  0  0  0  0
   10.6109   17.0300    7.8981 H   0  0  0  0  0  0  0  0  0  0  0  0
    5.8114   16.6303    9.8408 H   0  0  0  0  0  0  0  0  0  0  0  0
    7.3686   16.8593    9.0585 H   0  0  0  0  0  0  0  0  0  0  0  0
    7.2867   16.2540   10.7029 H   0  0  0  0  0  0  0  0  0  0  0  0
    5.8916   11.9087    8.5261 H   0  0  0  0  0  0  0  0  0  0  0  0
    5.9208   11.7356   10.2729 H   0  0  0  0  0  0  0  0  0  0  0  0
    6.7668   10.5781    9.2708 H   0  0  0  0  0  0  0  0  0  0  0  0
   15.8190    9.2315    7.4204 H   0  0  0  0  0  0  0  0  0  0  0  0
   14.7355    9.6250    5.2210 H   0  0  0  0  0  0  0  0  0  0  0  0
   15.3681   10.7302    9.3093 H   0  0  0  0  0  0  0  0  0  0  0  0
   12.7198   13.0333    6.8200 H   0  0  0  0  0  0  0  0  0  0  0  0
   13.9735   12.3644   10.2999 H   0  0  0  0  0  0  0  0  0  0  0  0
   14.3721   13.7631    9.3732 H   0  0  0  0  0  0  0  0  0  0  0  0
    9.2922   16.2660    9.8909 H   0  0  0  0  0  0  0  0  0  0  0  0
   10.8403   15.5318    9.8978 H   0  0  0  0  0  0  0  0  0  0  0  0
  1 16  1  0  0  0  0
  2 15  2  0  0  0  0
  3 17  2  0  0  0  0
  4 13  1  0  0  0  0
  4 15  1  0  0  0  0
  4 23  1  0  0  0  0
  5 18  1  0  0  0  0
  5 19  1  0  0  0  0
  5 24  1  0  0  0  0
  6 14  1  0  0  0  0
  6 25  1  0  0  0  0
  6 26  1  0  0  0  0
  6 27  1  0  0  0  0
  7 17  1  0  0  0  0
  7 28  1  0  0  0  0
  7 29  1  0  0  0  0
  7 30  1  0  0  0  0
  8 18  1  0  0  0  0
  8 31  1  0  0  0  0
  8 32  1  0  0  0  0
  8 33  1  0  0  0  0
  9 10  2  0  0  0  0
  9 11  1  0  0  0  0
  9 34  1  0  0  0  0
 10 16  1  0  0  0  0
 10 35  1  0  0  0  0
 11 20  2  0  0  0  0
 11 36  1  0  0  0  0
 12 16  2  0  0  0  0
 12 20  1  0  0  0  0
 12 37  1  0  0  0  0
 13 20  1  0  0  0  0
 13 38  1  0  0  0  0
 13 39  1  0  0  0  0
 14 21  1  0  0  0  0
 14 40  1  0  0  0  0
 14 41  1  0  0  0  0
 15 19  1  0  0  0  0
 17 22  1  0  0  0  0
 18 22  2  0  0  0  0
 19 21  2  0  0  0  0
 21 22  1  0  0  0  0
M  END
> <pdb_id>
5LPJ

> <uniprot_id>
Q92793

> <usmiles>
Clc1cc(ccc1)CNC(=O)C=2NC(=C(C(=O)C)C2CC)C

$$$$
XFE_A_999
          07192421293D 1   1.00000     0.00000     0
            
 31 33  0  0  0  0            999 V2000
   22.5793    0.6775   44.0735 N   0  0  0  0  0  0  0  0  0  0  0  0
   23.6303    6.9039   42.5734 N   0  0  0  0  0  0  0  0  0  0  0  0
   24.4716    4.6869   42.4544 N   0  0  0  0  0  0  0  0  0  0  0  0
   21.2911    7.2815   42.0439 N   0  0  0  0  0  0  0  0  0  0  0  0
   23.2837    2.8074   41.9115 N   0  0  0  0  0  0  0  0  0  0  0  0
   19.7746    4.0997   41.1446 C   0  0  0  0  0  0  0  0  0  0  0  0
   24.6565    5.9967   42.7107 C   0  0  0  0  0  0  0  0  0  0  0  0
   20.2375    6.5181   41.6568 C   0  0  0  0  0  0  0  0  0  0  0  0
   24.5059    2.0984   42.2733 C   0  0  0  0  0  0  0  0  0  0  0  0
   22.0924    1.9895   42.0910 C   0  0  0  0  0  0  0  0  0  0  0  0
   24.0791    0.6364   42.1560 C   0  0  0  0  0  0  0  0  0  0  0  0
   22.3971    6.5123   42.1988 C   0  0  0  0  0  0  0  0  0  0  0  0
   23.2618    4.2089   42.0855 C   0  0  0  0  0  0  0  0  0  0  0  0
   22.6363    0.6671   42.6168 C   0  0  1  0  0  0  0  0  0  0  0  0
   20.7166    5.2036   41.5551 C   0  0  0  0  0  0  0  0  0  0  0  0
   22.1702    5.1327   41.9340 C   0  0  0  0  0  0  0  0  0  0  0  0
   22.9348   -0.1877   44.4272 H   0  0  0  0  0  0  0  0  0  0  0  0
   23.1329    1.4333   44.4234 H   0  0  0  0  0  0  0  0  0  0  0  0
   21.2566    8.2697   42.1935 H   0  0  0  0  0  0  0  0  0  0  0  0
   20.2695    3.2311   41.1205 H   0  0  0  0  0  0  0  0  0  0  0  0
   19.0255    4.0384   41.8042 H   0  0  0  0  0  0  0  0  0  0  0  0
   19.4044    4.2978   40.2371 H   0  0  0  0  0  0  0  0  0  0  0  0
   25.5568    6.3160   43.0064 H   0  0  0  0  0  0  0  0  0  0  0  0
   19.3044    6.8309   41.4793 H   0  0  0  0  0  0  0  0  0  0  0  0
   24.7902    2.3192   43.2062 H   0  0  0  0  0  0  0  0  0  0  0  0
   25.2493    2.3109   41.6391 H   0  0  0  0  0  0  0  0  0  0  0  0
   21.6158    1.8584   41.2217 H   0  0  0  0  0  0  0  0  0  0  0  0
   21.4698    2.4071   42.7528 H   0  0  0  0  0  0  0  0  0  0  0  0
   24.6334    0.0512   42.7478 H   0  0  0  0  0  0  0  0  0  0  0  0
   24.1482    0.3161   41.2112 H   0  0  0  0  0  0  0  0  0  0  0  0
   22.1236   -0.1058   42.2431 H   0  0  0  0  0  0  0  0  0  0  0  0
  1 14  1  0  0  0  0
  2  7  2  0  0  0  0
  2 12  1  0  0  0  0
  3  7  1  0  0  0  0
  3 13  2  0  0  0  0
  4  8  1  0  0  0  0
  4 12  1  0  0  0  0
  5  9  1  0  0  0  0
  5 10  1  0  0  0  0
  5 13  1  0  0  0  0
  6 15  1  0  0  0  0
  8 15  2  0  0  0  0
  9 11  1  0  0  0  0
 10 14  1  0  0  0  0
 11 14  1  0  0  0  0
 12 16  2  0  0  0  0
 13 16  1  0  0  0  0
 15 16  1  0  0  0  0
  1 17  1  0  0  0  0
  1 18  1  0  0  0  0
  4 19  1  0  0  0  0
  6 20  1  0  0  0  0
  6 21  1  0  0  0  0
  6 22  1  0  0  0  0
  7 23  1  0  0  0  0
  8 24  1  0  0  0  0
  9 25  1  0  0  0  0
  9 26  1  0  0  0  0
 10 27  1  0  0  0  0
 10 28  1  0  0  0  0
 11 29  1  0  0  0  0
 11 30  1  0  0  0  0
 14 31  1  0  0  0  0
M  END
> <pdb_id>
3MV5

> <uniprot_id>
B2RAM5

> <usmiles>
n1c(N2C[C@H](N)CC2)c3c(nc1)NC=C3C

$$$$
XH2_A_1148
          07192422283D 1   1.00000     0.00000     0
            
 29 29  0  0  0  0            999 V2000
   28.6448   48.7729    6.6574 O   0  0  0  0  0  0  0  0  0  0  0  0
   29.4852   42.8997    4.7605 O   0  0  0  0  0  0  0  0  0  0  0  0
   31.2324   42.5535    6.1523 O   0  0  0  0  0  0  0  0  0  0  0  0
   29.5124   42.8994   10.8385 O   0  0  0  0  0  0  0  0  0  0  0  0
   27.8490   45.1908   10.4236 O   0  0  0  0  0  0  0  0  0  0  0  0
   27.8974   42.3046    6.9453 O   0  0  0  0  0  0  0  0  0  0  0  0
   28.6069   47.2830    6.6155 C   0  0  0  0  0  0  0  0  0  0  0  0
   28.0271   46.6706    7.9124 C   0  0  0  0  0  0  0  0  0  0  0  0
   29.8375   42.7782    8.3864 C   0  0  0  0  0  0  0  0  0  0  0  0
   28.6429   44.4701    7.0011 C   0  0  0  0  0  0  0  0  0  0  0  0
   30.0058   42.8362    5.9228 C   0  0  0  0  0  0  0  0  0  0  0  0
   28.9613   43.2796    9.5353 C   0  0  2  0  0  0  0  0  0  0  0  0
   28.4891   45.3247    8.1070 C   0  0  0  0  0  0  0  0  0  0  0  0
   28.8426   44.8342    9.4302 C   0  0  1  0  0  0  0  0  0  0  0  0
   29.1216   43.1175    7.0436 C   0  0  2  0  0  0  0  0  0  0  0  0
   29.0257   49.1209    5.8007 H   0  0  0  0  0  0  0  0  0  0  0  0
   28.5168   43.1270    4.6582 H   0  0  0  0  0  0  0  0  0  0  0  0
   28.9168   43.2420   11.5651 H   0  0  0  0  0  0  0  0  0  0  0  0
   27.7140   46.1817   10.4192 H   0  0  0  0  0  0  0  0  0  0  0  0
   27.4274   42.5123    6.0874 H   0  0  0  0  0  0  0  0  0  0  0  0
   29.5380   46.9416    6.4875 H   0  0  0  0  0  0  0  0  0  0  0  0
   28.0383   46.9979    5.8438 H   0  0  0  0  0  0  0  0  0  0  0  0
   27.0289   46.6667    7.8527 H   0  0  0  0  0  0  0  0  0  0  0  0
   28.3123   47.2286    8.6917 H   0  0  0  0  0  0  0  0  0  0  0  0
   29.9624   41.7890    8.4628 H   0  0  0  0  0  0  0  0  0  0  0  0
   30.7289   43.2303    8.4184 H   0  0  0  0  0  0  0  0  0  0  0  0
   28.3965   44.8377    6.1043 H   0  0  0  0  0  0  0  0  0  0  0  0
   28.0492   42.8801    9.4426 H   0  0  0  0  0  0  0  0  0  0  0  0
   29.7176   45.2386    9.6961 H   0  0  0  0  0  0  0  0  0  0  0  0
  1  7  1  0  0  0  0
  2 11  1  0  0  0  0
  3 11  2  0  0  0  0
  4 12  1  0  0  0  0
  5 14  1  0  0  0  0
  6 15  1  0  0  0  0
  7  8  1  0  0  0  0
  8 13  1  0  0  0  0
  9 12  1  0  0  0  0
  9 15  1  0  0  0  0
 10 13  2  0  0  0  0
 10 15  1  0  0  0  0
 11 15  1  0  0  0  0
 12 14  1  0  0  0  0
 13 14  1  0  0  0  0
  1 16  1  0  0  0  0
  2 17  1  0  0  0  0
  4 18  1  0  0  0  0
  5 19  1  0  0  0  0
  6 20  1  0  0  0  0
  7 21  1  0  0  0  0
  7 22  1  0  0  0  0
  8 23  1  0  0  0  0
  8 24  1  0  0  0  0
  9 25  1  0  0  0  0
  9 26  1  0  0  0  0
 10 27  1  0  0  0  0
 12 28  1  0  0  0  0
 14 29  1  0  0  0  0
M  END
> <pdb_id>
4CIW

> <uniprot_id>
P0A4Z6

> <usmiles>
O=C(O)[C@]1(O)C=C([C@@H](O)[C@H](O)C1)CCO

$$$$
XHA_B_1001
          07192419533D 1   1.00000     0.00000     0
            
 52 53  0  0  0  0            999 V2000
   15.1910    8.3840   31.5630 F   0  0  0  0  0  0  0  0  0  0  0  0
   14.6490    7.0640   33.1210 F   0  0  0  0  0  0  0  0  0  0  0  0
   15.9170    8.7150   33.5330 F   0  0  0  0  0  0  0  0  0  0  0  0
   15.5010    4.5000   27.2200 O   0  0  0  0  0  0  0  0  0  0  0  0
   20.3070    3.0220   25.3440 O   0  0  0  0  0  0  0  0  0  0  0  0
   15.7500    1.1880   26.6680 O   0  0  0  0  0  0  0  0  0  0  0  0
   18.4640    0.3150   26.5220 O   0  0  0  0  0  0  0  0  0  0  0  0
   21.7520    1.3040   25.5170 N   0  0  0  0  0  0  0  0  0  0  0  0
   18.5040    3.4950   27.1540 N   0  0  0  0  0  0  0  0  0  0  0  0
   22.1500    1.3240   24.1190 C   0  0  0  0  0  0  0  0  0  0  0  0
   16.2400    4.1050   26.0710 C   0  0  0  0  0  0  0  0  0  0  0  0
   18.2800    4.6420   28.0590 C   0  0  0  0  0  0  0  0  0  0  0  0
   19.5570    5.1820   28.6830 C   0  0  0  0  0  0  0  0  0  0  0  0
   18.4970    5.2530   32.9960 C   0  0  0  0  0  0  0  0  0  0  0  0
   19.4010    6.4370   29.4990 C   0  0  0  0  0  0  0  0  0  0  0  0
   19.1510    5.3860   31.7810 C   0  0  0  0  0  0  0  0  0  0  0  0
   17.3700    6.0130   33.2760 C   0  0  0  0  0  0  0  0  0  0  0  0
   20.5330    1.9900   27.4880 C   0  0  0  0  0  0  0  0  0  0  0  0
   17.5560    7.0340   31.1150 C   0  0  0  0  0  0  0  0  0  0  0  0
   20.8520    2.1480   26.0170 C   0  0  0  0  0  0  0  0  0  0  0  0
   16.7780    1.9380   27.2990 C   0  0  1  0  0  0  0  0  0  0  0  0
   18.0690    1.1610   27.5930 C   0  0  2  0  0  0  0  0  0  0  0  0
   17.3010    3.0540   26.3880 C   0  0  2  0  0  0  0  0  0  0  0  0
   19.0720    2.2990   27.8550 C   0  0  2  0  0  0  0  0  0  0  0  0
   18.6870    6.2750   30.8190 C   0  0  0  0  0  0  0  0  0  0  0  0
   16.8940    6.9110   32.3300 C   0  0  0  0  0  0  0  0  0  0  0  0
   15.6790    7.7560   32.6300 C   0  0  0  0  0  0  0  0  0  0  0  0
   14.8221    5.1866   26.9599 H   0  0  0  0  0  0  0  0  0  0  0  0
   14.9539    1.7743   26.5178 H   0  0  0  0  0  0  0  0  0  0  0  0
   19.3067   -0.1635   26.7686 H   0  0  0  0  0  0  0  0  0  0  0  0
   22.1703    0.6305   26.1265 H   0  0  0  0  0  0  0  0  0  0  0  0
   22.8326    0.6115   23.9565 H   0  0  0  0  0  0  0  0  0  0  0  0
   21.3502    1.1572   23.5423 H   0  0  0  0  0  0  0  0  0  0  0  0
   22.5410    2.2171   23.8965 H   0  0  0  0  0  0  0  0  0  0  0  0
   16.6918    4.9108   25.6882 H   0  0  0  0  0  0  0  0  0  0  0  0
   15.6058    3.7266   25.3968 H   0  0  0  0  0  0  0  0  0  0  0  0
   17.6677    4.3503   28.7938 H   0  0  0  0  0  0  0  0  0  0  0  0
   17.8476    5.3772   27.5369 H   0  0  0  0  0  0  0  0  0  0  0  0
   20.2034    5.3735   27.9444 H   0  0  0  0  0  0  0  0  0  0  0  0
   19.9325    4.4721   29.2789 H   0  0  0  0  0  0  0  0  0  0  0  0
   18.8398    4.6046   33.6758 H   0  0  0  0  0  0  0  0  0  0  0  0
   18.8879    7.0978   28.9512 H   0  0  0  0  0  0  0  0  0  0  0  0
   20.3149    6.7973   29.6862 H   0  0  0  0  0  0  0  0  0  0  0  0
   19.9654    4.8363   31.5948 H   0  0  0  0  0  0  0  0  0  0  0  0
   16.9031    5.9143   34.1548 H   0  0  0  0  0  0  0  0  0  0  0  0
   21.1236    2.6096   28.0049 H   0  0  0  0  0  0  0  0  0  0  0  0
   20.7291    1.0454   27.7514 H   0  0  0  0  0  0  0  0  0  0  0  0
   17.2127    7.6830   30.4360 H   0  0  0  0  0  0  0  0  0  0  0  0
   16.4279    2.3362   28.1469 H   0  0  0  0  0  0  0  0  0  0  0  0
   17.9523    0.6180   28.4246 H   0  0  0  0  0  0  0  0  0  0  0  0
   17.6062    2.6437   25.5287 H   0  0  0  0  0  0  0  0  0  0  0  0
   19.0487    2.4930   28.8357 H   0  0  0  0  0  0  0  0  0  0  0  0
  1 27  1  0  0  0  0
  2 27  1  0  0  0  0
  3 27  1  0  0  0  0
  4 11  1  0  0  0  0
  5 20  2  0  0  0  0
  6 21  1  0  0  0  0
  7 22  1  0  0  0  0
  8 10  1  0  0  0  0
  8 20  1  0  0  0  0
  9 12  1  0  0  0  0
  9 23  1  0  0  0  0
  9 24  1  0  0  0  0
 11 23  1  0  0  0  0
 12 13  1  0  0  0  0
 13 15  1  0  0  0  0
 14 16  2  0  0  0  0
 14 17  1  0  0  0  0
 15 25  1  0  0  0  0
 16 25  1  0  0  0  0
 17 26  2  0  0  0  0
 18 20  1  0  0  0  0
 18 24  1  0  0  0  0
 19 25  2  0  0  0  0
 19 26  1  0  0  0  0
 21 22  1  0  0  0  0
 21 23  1  0  0  0  0
 22 24  1  0  0  0  0
 26 27  1  0  0  0  0
  4 28  1  0  0  0  0
  6 29  1  0  0  0  0
  7 30  1  0  0  0  0
  8 31  1  0  0  0  0
 10 32  1  0  0  0  0
 10 33  1  0  0  0  0
 10 34  1  0  0  0  0
 11 35  1  0  0  0  0
 11 36  1  0  0  0  0
 12 37  1  0  0  0  0
 12 38  1  0  0  0  0
 13 39  1  0  0  0  0
 13 40  1  0  0  0  0
 14 41  1  0  0  0  0
 15 42  1  0  0  0  0
 15 43  1  0  0  0  0
 16 44  1  0  0  0  0
 17 45  1  0  0  0  0
 18 46  1  0  0  0  0
 18 47  1  0  0  0  0
 19 48  1  0  0  0  0
 21 49  1  0  0  0  0
 22 50  1  0  0  0  0
 23 51  1  0  0  0  0
 24 52  1  0  0  0  0
M  END
> <pdb_id>
5M7U

> <uniprot_id>
O60502

> <usmiles>
FC(F)(F)c1cc(ccc1)CCCN2[C@@H]([C@@H](O)[C@@H](O)[C@H]2CC(=O)NC)CO

$$$$
XI7_A_742
          07202413413D 1   1.00000     0.00000     0
            
 24 24  0  0  0  0            999 V2000
   39.0625   81.4523   63.6147 O   0  0  0  0  0  0  0  0  0  0  0  0
   37.7779   81.1980   65.3750 O   0  0  0  0  0  0  0  0  0  0  0  0
   37.0825   82.2538   61.9755 O   0  0  0  0  0  0  0  0  0  0  0  0
   35.4253   80.3025   61.1955 O   0  0  0  0  0  0  0  0  0  0  0  0
   32.3708   76.4054   62.3595 C   0  0  0  0  0  0  0  0  0  0  0  0
   32.1728   77.4904   61.4066 C   0  0  0  0  0  0  0  0  0  0  0  0
   33.4264   76.4056   63.3249 C   0  0  0  0  0  0  0  0  0  0  0  0
   33.0974   78.6682   61.3701 C   0  0  0  0  0  0  0  0  0  0  0  0
   34.4100   77.5949   63.3353 C   0  0  0  0  0  0  0  0  0  0  0  0
   35.7815   80.5256   63.4283 C   0  0  0  0  0  0  0  0  0  0  0  0
   37.9279   81.4159   64.1548 C   0  0  0  0  0  0  0  0  0  0  0  0
   36.7838   81.7920   63.2330 C   0  0  1  0  0  0  0  0  0  0  0  0
   35.1616   79.8705   62.3087 C   0  0  0  0  0  0  0  0  0  0  0  0
   34.2230   78.6967   62.3612 C   0  0  0  0  0  0  0  0  0  0  0  0
   39.1439   81.6297   62.6340 H   0  0  0  0  0  0  0  0  0  0  0  0
   37.7081   83.0308   62.0456 H   0  0  0  0  0  0  0  0  0  0  0  0
   31.7421   75.6280   62.3375 H   0  0  0  0  0  0  0  0  0  0  0  0
   31.4063   77.4477   60.7658 H   0  0  0  0  0  0  0  0  0  0  0  0
   33.5246   75.6537   63.9768 H   0  0  0  0  0  0  0  0  0  0  0  0
   32.9691   79.4080   60.7096 H   0  0  0  0  0  0  0  0  0  0  0  0
   35.1643   77.6220   63.9912 H   0  0  0  0  0  0  0  0  0  0  0  0
   35.0368   80.8446   64.0146 H   0  0  0  0  0  0  0  0  0  0  0  0
   36.3067   79.8233   63.9090 H   0  0  0  0  0  0  0  0  0  0  0  0
   36.3263   82.5564   63.6873 H   0  0  0  0  0  0  0  0  0  0  0  0
  1 11  1  0  0  0  0
  2 11  2  0  0  0  0
  3 12  1  0  0  0  0
  4 13  2  0  0  0  0
  5  6  2  0  0  0  0
  5  7  1  0  0  0  0
  6  8  1  0  0  0  0
  7  9  2  0  0  0  0
  8 14  2  0  0  0  0
  9 14  1  0  0  0  0
 10 12  1  0  0  0  0
 10 13  1  0  0  0  0
 11 12  1  0  0  0  0
 13 14  1  0  0  0  0
  1 15  1  0  0  0  0
  3 16  1  0  0  0  0
  5 17  1  0  0  0  0
  6 18  1  0  0  0  0
  7 19  1  0  0  0  0
  8 20  1  0  0  0  0
  9 21  1  0  0  0  0
 10 22  1  0  0  0  0
 10 23  1  0  0  0  0
 12 24  1  0  0  0  0
M  END
> <pdb_id>
3S9I

> <uniprot_id>
P0A5J4

> <usmiles>
O=C(O)[C@@H](O)CC(=O)c1ccccc1

$$$$
XI7_B_303
          07202403273D 1   1.00000     0.00000     0
            
 22 22  0  0  0  0            999 V2000
    9.1202   22.5471  -10.5361 O   0  0  0  0  0  0  0  0  0  0  0  0
    9.4904   21.9305   -8.4459 O   0  0  0  0  0  0  0  0  0  0  0  0
    8.6946   19.5061   -9.0730 O   0  0  0  0  0  0  0  0  0  0  0  0
    7.3926   17.9186  -10.9586 O   0  0  0  0  0  0  0  0  0  0  0  0
    4.5440   19.1988  -14.8780 C   0  0  0  0  0  0  0  0  0  0  0  0
    5.5938   20.1185  -14.7715 C   0  0  0  0  0  0  0  0  0  0  0  0
    4.3675   18.1982  -13.9300 C   0  0  0  0  0  0  0  0  0  0  0  0
    6.4700   20.0509  -13.6970 C   0  0  0  0  0  0  0  0  0  0  0  0
    5.2586   18.1191  -12.8571 C   0  0  0  0  0  0  0  0  0  0  0  0
    7.9701   20.2136  -11.2458 C   0  0  0  0  0  0  0  0  0  0  0  0
    9.1105   21.6983   -9.6156 C   0  0  0  0  0  0  0  0  0  0  0  0
    8.6043   20.3617   -9.9102 C   0  0  0  0  0  0  0  0  0  0  0  0
    7.2396   18.9418  -11.5884 C   0  0  0  0  0  0  0  0  0  0  0  0
    6.3155   19.0219  -12.7462 C   0  0  0  0  0  0  0  0  0  0  0  0
    8.8026   22.2966  -11.4506 H   0  0  0  0  0  0  0  0  0  0  0  0
    3.9106   19.2629  -15.6491 H   0  0  0  0  0  0  0  0  0  0  0  0
    5.7126   20.8245  -15.4697 H   0  0  0  0  0  0  0  0  0  0  0  0
    3.6148   17.5454  -14.0146 H   0  0  0  0  0  0  0  0  0  0  0  0
    7.2025   20.7245  -13.5987 H   0  0  0  0  0  0  0  0  0  0  0  0
    5.1376   17.4095  -12.1630 H   0  0  0  0  0  0  0  0  0  0  0  0
    8.6957   20.3232  -11.9251 H   0  0  0  0  0  0  0  0  0  0  0  0
    7.3113   20.9602  -11.3383 H   0  0  0  0  0  0  0  0  0  0  0  0
  1 11  1  0  0  0  0
  2 11  2  0  0  0  0
  3 12  2  0  0  0  0
  4 13  2  0  0  0  0
  5  6  2  0  0  0  0
  5  7  1  0  0  0  0
  6  8  1  0  0  0  0
  7  9  2  0  0  0  0
  8 14  2  0  0  0  0
  9 14  1  0  0  0  0
 10 12  1  0  0  0  0
 10 13  1  0  0  0  0
 11 12  1  0  0  0  0
 13 14  1  0  0  0  0
  1 15  1  0  0  0  0
  5 16  1  0  0  0  0
  6 17  1  0  0  0  0
  7 18  1  0  0  0  0
  8 19  1  0  0  0  0
  9 20  1  0  0  0  0
 10 21  1  0  0  0  0
 10 22  1  0  0  0  0
M  END
> <pdb_id>
4AWF

> <uniprot_id>
C3W5S0

> <usmiles>
O=C(O)C(=O)CC(=O)c1ccccc1

$$$$
XIH_A_800
          07212402213D 1   1.00000     0.00000     0
            
 52 55  0  0  0  0            999 V2000
   37.8954   48.8084   43.8376 O   0  0  0  0  0  0  0  0  0  0  0  0
   36.4707   47.2572   39.7257 O   0  0  0  0  0  0  0  0  0  0  0  0
   36.7203   51.9221   37.9569 N   0  0  0  0  0  0  0  0  0  0  0  0
   39.5331   52.4857   35.2585 N   0  0  0  0  0  0  0  0  0  0  0  0
   39.8666   50.4363   39.9146 N   0  0  0  0  0  0  0  0  0  0  0  0
   40.3189   50.6814   37.6453 N   0  0  0  0  0  0  0  0  0  0  0  0
   37.1281   47.9935   41.8227 N   0  0  0  0  0  0  0  0  0  0  0  0
   38.9485   49.6748   42.0073 N   0  0  0  0  0  0  0  0  0  0  0  0
   38.5768   49.1635   38.4988 N   0  0  0  0  0  0  0  0  0  0  0  0
   36.1726   47.1368   42.5443 C   0  0  0  0  0  0  0  0  0  0  0  0
   39.8038   50.5276   42.8506 C   0  0  0  0  0  0  0  0  0  0  0  0
   36.2724   50.9206   37.5698 C   0  0  0  0  0  0  0  0  0  0  0  0
   41.2201   49.8166   36.8634 C   0  0  0  0  0  0  0  0  0  0  0  0
   40.2832   52.1488   37.5495 C   0  0  0  0  0  0  0  0  0  0  0  0
   38.0986   48.5934   37.2312 C   0  0  0  0  0  0  0  0  0  0  0  0
   41.6203   50.4512   35.5314 C   0  0  0  0  0  0  0  0  0  0  0  0
   33.9637   48.5895   36.0953 C   0  0  0  0  0  0  0  0  0  0  0  0
   34.7600   47.4620   35.9165 C   0  0  0  0  0  0  0  0  0  0  0  0
   41.8992   51.9469   35.6503 C   0  0  0  0  0  0  0  0  0  0  0  0
   34.4903   49.7504   36.6626 C   0  0  0  0  0  0  0  0  0  0  0  0
   36.0916   47.5173   36.3081 C   0  0  0  0  0  0  0  0  0  0  0  0
   37.9824   48.8256   42.5951 C   0  0  0  0  0  0  0  0  0  0  0  0
   37.2092   47.9905   40.4056 C   0  0  0  0  0  0  0  0  0  0  0  0
   39.5635   50.0802   38.6422 C   0  0  0  0  0  0  0  0  0  0  0  0
   40.6563   52.6740   36.1588 C   0  0  1  0  0  0  0  0  0  0  0  0
   39.0483   49.7013   40.6695 C   0  0  0  0  0  0  0  0  0  0  0  0
   38.2210   48.8835   39.7747 C   0  0  0  0  0  0  0  0  0  0  0  0
   35.8331   49.8070   37.0594 C   0  0  0  0  0  0  0  0  0  0  0  0
   36.6337   48.6728   36.8794 C   0  0  0  0  0  0  0  0  0  0  0  0
   39.7733   52.8274   34.3499 H   0  0  0  0  0  0  0  0  0  0  0  0
   39.3118   51.5122   35.2007 H   0  0  0  0  0  0  0  0  0  0  0  0
   35.6371   46.6072   41.8866 H   0  0  0  0  0  0  0  0  0  0  0  0
   36.6722   46.5137   43.1462 H   0  0  0  0  0  0  0  0  0  0  0  0
   35.5596   47.7077   43.0905 H   0  0  0  0  0  0  0  0  0  0  0  0
   40.4228   51.0567   42.2701 H   0  0  0  0  0  0  0  0  0  0  0  0
   39.2313   51.1513   43.3828 H   0  0  0  0  0  0  0  0  0  0  0  0
   40.3380   49.9538   43.4714 H   0  0  0  0  0  0  0  0  0  0  0  0
   40.7559   48.9501   36.6804 H   0  0  0  0  0  0  0  0  0  0  0  0
   42.0468   49.6453   37.3994 H   0  0  0  0  0  0  0  0  0  0  0  0
   40.9274   52.5262   38.2148 H   0  0  0  0  0  0  0  0  0  0  0  0
   39.3580   52.4589   37.7683 H   0  0  0  0  0  0  0  0  0  0  0  0
   38.3424   47.6236   37.2396 H   0  0  0  0  0  0  0  0  0  0  0  0
   38.5979   49.0562   36.4988 H   0  0  0  0  0  0  0  0  0  0  0  0
   40.8767   50.3156   34.8766 H   0  0  0  0  0  0  0  0  0  0  0  0
   42.4462   49.9975   35.1966 H   0  0  0  0  0  0  0  0  0  0  0  0
   33.0043   48.5673   35.8142 H   0  0  0  0  0  0  0  0  0  0  0  0
   34.3810   46.6287   35.5141 H   0  0  0  0  0  0  0  0  0  0  0  0
   42.1499   52.3089   34.7524 H   0  0  0  0  0  0  0  0  0  0  0  0
   42.6530   52.0928   36.2909 H   0  0  0  0  0  0  0  0  0  0  0  0
   33.9034   50.5504   36.7874 H   0  0  0  0  0  0  0  0  0  0  0  0
   36.6741   46.7148   36.1789 H   0  0  0  0  0  0  0  0  0  0  0  0
   40.8576   53.6513   36.2252 H   0  0  0  0  0  0  0  0  0  0  0  0
  1 22  2  0  0  0  0
  2 23  2  0  0  0  0
  3 12  3  0  0  0  0
  4 25  1  0  0  0  0
  5 24  2  0  0  0  0
  5 26  1  0  0  0  0
  6 13  1  0  0  0  0
  6 14  1  0  0  0  0
  6 24  1  0  0  0  0
  7 10  1  0  0  0  0
  7 22  1  0  0  0  0
  7 23  1  0  0  0  0
  8 11  1  0  0  0  0
  8 22  1  0  0  0  0
  8 26  1  0  0  0  0
  9 15  1  0  0  0  0
  9 24  1  0  0  0  0
  9 27  1  0  0  0  0
 12 28  1  0  0  0  0
 13 16  1  0  0  0  0
 14 25  1  0  0  0  0
 15 29  1  0  0  0  0
 16 19  1  0  0  0  0
 17 18  2  0  0  0  0
 17 20  1  0  0  0  0
 18 21  1  0  0  0  0
 19 25  1  0  0  0  0
 20 28  2  0  0  0  0
 21 29  2  0  0  0  0
 23 27  1  0  0  0  0
 26 27  2  0  0  0  0
 28 29  1  0  0  0  0
  4 30  1  0  0  0  0
  4 31  1  0  0  0  0
 10 32  1  0  0  0  0
 10 33  1  0  0  0  0
 10 34  1  0  0  0  0
 11 35  1  0  0  0  0
 11 36  1  0  0  0  0
 11 37  1  0  0  0  0
 13 38  1  0  0  0  0
 13 39  1  0  0  0  0
 14 40  1  0  0  0  0
 14 41  1  0  0  0  0
 15 42  1  0  0  0  0
 15 43  1  0  0  0  0
 16 44  1  0  0  0  0
 16 45  1  0  0  0  0
 17 46  1  0  0  0  0
 18 47  1  0  0  0  0
 19 48  1  0  0  0  0
 19 49  1  0  0  0  0
 20 50  1  0  0  0  0
 21 51  1  0  0  0  0
 25 52  1  0  0  0  0
M  END
> <pdb_id>
3G0D

> <uniprot_id>
P27487

> <usmiles>
O=C1N(C(=O)C=2N(C(=NC2N1C)N3C[C@H](N)CCC3)Cc4c(C#N)cccc4)C

$$$$
XIZ_A_1307
          07192419233D 1   1.00000     0.00000     0
            
 18 18  0  0  0  0            999 V2000
  -15.8741   34.1005    1.7014 O   0  0  0  0  0  0  0  0  0  0  0  0
  -16.0455   35.4768    3.4288 O   0  0  0  0  0  0  0  0  0  0  0  0
  -21.0952   38.8974    0.1804 N   0  0  0  0  0  0  0  0  0  0  0  0
  -20.4517   37.9142   -0.4478 C   0  0  0  0  0  0  0  0  0  0  0  0
  -20.8139   39.2272    1.4416 C   0  0  0  0  0  0  0  0  0  0  0  0
  -19.4577   37.1884    0.2088 C   0  0  0  0  0  0  0  0  0  0  0  0
  -19.8208   38.5385    2.1580 C   0  0  0  0  0  0  0  0  0  0  0  0
  -17.4582   35.7210    1.6359 C   0  0  0  0  0  0  0  0  0  0  0  0
  -18.1288   36.8073    2.2148 C   0  0  0  0  0  0  0  0  0  0  0  0
  -16.4047   35.0693    2.2942 C   0  0  0  0  0  0  0  0  0  0  0  0
  -19.1392   37.4974    1.5367 C   0  0  0  0  0  0  0  0  0  0  0  0
  -16.2051   33.8242    0.7991 H   0  0  0  0  0  0  0  0  0  0  0  0
  -20.6827   37.6954   -1.3958 H   0  0  0  0  0  0  0  0  0  0  0  0
  -21.3149   39.9722    1.8819 H   0  0  0  0  0  0  0  0  0  0  0  0
  -18.9758   36.4520   -0.2660 H   0  0  0  0  0  0  0  0  0  0  0  0
  -19.6069   38.7933    3.1011 H   0  0  0  0  0  0  0  0  0  0  0  0
  -17.7380   35.4024    0.7302 H   0  0  0  0  0  0  0  0  0  0  0  0
  -17.8778   37.0972    3.1384 H   0  0  0  0  0  0  0  0  0  0  0  0
  1 10  1  0  0  0  0
  2 10  2  0  0  0  0
  3  4  2  0  0  0  0
  3  5  1  0  0  0  0
  4  6  1  0  0  0  0
  5  7  2  0  0  0  0
  6 11  2  0  0  0  0
  7 11  1  0  0  0  0
  8  9  2  0  0  0  0
  8 10  1  0  0  0  0
  9 11  1  0  0  0  0
  1 12  1  0  0  0  0
  4 13  1  0  0  0  0
  5 14  1  0  0  0  0
  6 15  1  0  0  0  0
  7 16  1  0  0  0  0
  8 17  1  0  0  0  0
  9 18  1  0  0  0  0
M  END
> <pdb_id>
2XIZ

> <uniprot_id>
P11309

> <usmiles>
O=C(O)/C=C/c1ccncc1

$$$$
XJ1_A_1307
          07192419233D 1   1.00000     0.00000     0
            
 47 49  0  0  0  0            999 V2000
  -16.0701   34.0579    1.6588 O   0  0  0  0  0  0  0  0  0  0  0  0
  -16.1105   35.5468    3.2697 O   0  0  0  0  0  0  0  0  0  0  0  0
  -13.7477   33.9991   -3.3093 N   0  0  0  0  0  0  0  0  0  0  0  0
  -20.7297   39.4955   -4.1989 N   0  0  0  0  0  0  0  0  0  0  0  0
  -18.7365   36.5834   -4.7635 N   0  0  0  0  0  0  0  0  0  0  0  0
  -19.4658   37.5711   -2.7648 N   0  0  0  0  0  0  0  0  0  0  0  0
  -20.9813   39.2212    1.5039 C   0  0  0  0  0  0  0  0  0  0  0  0
  -20.0422   38.5521   -4.8398 C   0  0  0  0  0  0  0  0  0  0  0  0
  -20.7975   39.5214   -2.8570 C   0  0  0  0  0  0  0  0  0  0  0  0
  -17.5469   35.7503    1.4702 C   0  0  0  0  0  0  0  0  0  0  0  0
  -20.0129   38.4382    2.1316 C   0  0  0  0  0  0  0  0  0  0  0  0
  -15.9644   33.9374   -4.4614 C   0  0  0  0  0  0  0  0  0  0  0  0
  -15.1163   36.0522   -3.4664 C   0  0  0  0  0  0  0  0  0  0  0  0
  -21.0575   39.2575    0.0967 C   0  0  0  0  0  0  0  0  0  0  0  0
  -17.3972   34.5125   -4.4582 C   0  0  0  0  0  0  0  0  0  0  0  0
  -16.5349   36.6584   -3.5062 C   0  0  0  0  0  0  0  0  0  0  0  0
  -18.1305   36.9099    1.9866 C   0  0  0  0  0  0  0  0  0  0  0  0
  -19.2076   37.7424   -0.0218 C   0  0  0  0  0  0  0  0  0  0  0  0
  -16.5309   35.0866    2.1762 C   0  0  0  0  0  0  0  0  0  0  0  0
  -15.1286   34.5323   -3.3139 C   0  0  0  0  0  0  0  0  0  0  0  0
  -19.3763   37.5625   -4.1108 C   0  0  0  0  0  0  0  0  0  0  0  0
  -17.3574   36.0465   -4.6409 C   0  0  0  0  0  0  0  0  0  0  0  0
  -19.1273   37.6758    1.3681 C   0  0  0  0  0  0  0  0  0  0  0  0
  -20.1654   38.5249   -2.1017 C   0  0  0  0  0  0  0  0  0  0  0  0
  -20.1707   38.5095   -0.6817 C   0  0  0  0  0  0  0  0  0  0  0  0
  -16.4357   33.7292    0.7880 H   0  0  0  0  0  0  0  0  0  0  0  0
  -13.2357   34.4063   -2.5529 H   0  0  0  0  0  0  0  0  0  0  0  0
  -13.7743   33.0058   -3.1972 H   0  0  0  0  0  0  0  0  0  0  0  0
  -19.2897   36.1303   -5.4626 H   0  0  0  0  0  0  0  0  0  0  0  0
  -21.6226   39.7575    2.0527 H   0  0  0  0  0  0  0  0  0  0  0  0
  -20.0023   38.5517   -5.8390 H   0  0  0  0  0  0  0  0  0  0  0  0
  -21.3000   40.2533   -2.3967 H   0  0  0  0  0  0  0  0  0  0  0  0
  -17.8555   35.3899    0.5899 H   0  0  0  0  0  0  0  0  0  0  0  0
  -19.9528   38.4230    3.1296 H   0  0  0  0  0  0  0  0  0  0  0  0
  -15.5260   34.1567   -5.3330 H   0  0  0  0  0  0  0  0  0  0  0  0
  -16.0104   32.9445   -4.3519 H   0  0  0  0  0  0  0  0  0  0  0  0
  -14.6212   36.4474   -2.6927 H   0  0  0  0  0  0  0  0  0  0  0  0
  -14.6452   36.2845   -4.3173 H   0  0  0  0  0  0  0  0  0  0  0  0
  -21.7519   39.8233   -0.3479 H   0  0  0  0  0  0  0  0  0  0  0  0
  -17.8384   34.2949   -3.5876 H   0  0  0  0  0  0  0  0  0  0  0  0
  -17.9186   34.1041   -5.2074 H   0  0  0  0  0  0  0  0  0  0  0  0
  -16.4652   37.6459   -3.6477 H   0  0  0  0  0  0  0  0  0  0  0  0
  -16.9927   36.4780   -2.6356 H   0  0  0  0  0  0  0  0  0  0  0  0
  -17.8069   37.2219    2.8799 H   0  0  0  0  0  0  0  0  0  0  0  0
  -18.5510   37.2214   -0.5672 H   0  0  0  0  0  0  0  0  0  0  0  0
  -15.5654   34.3002   -2.4447 H   0  0  0  0  0  0  0  0  0  0  0  0
  -16.8801   36.2376   -5.4987 H   0  0  0  0  0  0  0  0  0  0  0  0
  1 19  1  0  0  0  0
  2 19  2  0  0  0  0
  3 20  1  0  0  0  0
  4  8  1  0  0  0  0
  4  9  2  0  0  0  0
  5 21  1  0  0  0  0
  5 22  1  0  0  0  0
  6 21  1  0  0  0  0
  6 24  2  0  0  0  0
  7 11  1  0  0  0  0
  7 14  2  0  0  0  0
  8 21  2  0  0  0  0
  9 24  1  0  0  0  0
 10 17  2  0  0  0  0
 10 19  1  0  0  0  0
 11 23  2  0  0  0  0
 12 15  1  0  0  0  0
 12 20  1  0  0  0  0
 13 16  1  0  0  0  0
 13 20  1  0  0  0  0
 14 25  1  0  0  0  0
 15 22  1  0  0  0  0
 16 22  1  0  0  0  0
 17 23  1  0  0  0  0
 18 23  1  0  0  0  0
 18 25  2  0  0  0  0
 24 25  1  0  0  0  0
  1 26  1  0  0  0  0
  3 27  1  0  0  0  0
  3 28  1  0  0  0  0
  5 29  1  0  0  0  0
  7 30  1  0  0  0  0
  8 31  1  0  0  0  0
  9 32  1  0  0  0  0
 10 33  1  0  0  0  0
 11 34  1  0  0  0  0
 12 35  1  0  0  0  0
 12 36  1  0  0  0  0
 13 37  1  0  0  0  0
 13 38  1  0  0  0  0
 14 39  1  0  0  0  0
 15 40  1  0  0  0  0
 15 41  1  0  0  0  0
 16 42  1  0  0  0  0
 16 43  1  0  0  0  0
 17 44  1  0  0  0  0
 18 45  1  0  0  0  0
 20 46  1  0  0  0  0
 22 47  1  0  0  0  0
M  END
> <pdb_id>
2XJ1

> <uniprot_id>
P11309

> <usmiles>
O=C(O)/C=C/c1cc(c2nc(NC3CCC(N)CC3)cnc2)ccc1

$$$$
XJG_A_1224
          07192420423D 1   1.00000     0.00000     0
            
 44 46  0  0  0  0            999 V2000
   66.0098   34.2787   21.7750 O   0  0  0  0  0  0  0  0  0  0  0  0
   63.9286   34.3433   24.2891 O   0  0  0  0  0  0  0  0  0  0  0  0
   66.3668   31.9918   27.6084 O   0  0  0  0  0  0  0  0  0  0  0  0
   66.7409   36.1910   22.7459 N   0  0  0  0  0  0  0  0  0  0  0  0
   65.1131   31.7343   28.2734 C   0  0  0  0  0  0  0  0  0  0  0  0
   70.0104   33.4505   26.0773 C   0  0  0  0  0  0  0  0  0  0  0  0
   69.2907   31.1046   25.6350 C   0  0  0  0  0  0  0  0  0  0  0  0
   66.7560   36.9951   21.5132 C   0  0  0  0  0  0  0  0  0  0  0  0
   67.3710   36.9050   23.8725 C   0  0  0  0  0  0  0  0  0  0  0  0
   67.0391   40.7917   22.1107 C   0  0  0  0  0  0  0  0  0  0  0  0
   67.3754   40.7436   23.4546 C   0  0  0  0  0  0  0  0  0  0  0  0
   66.8241   39.6153   21.4067 C   0  0  0  0  0  0  0  0  0  0  0  0
   67.5143   39.5217   24.0992 C   0  0  0  0  0  0  0  0  0  0  0  0
   65.1347   33.1633   25.9307 C   0  0  0  0  0  0  0  0  0  0  0  0
   67.5222   33.6557   24.5775 C   0  0  0  0  0  0  0  0  0  0  0  0
   66.3345   34.8776   22.7820 C   0  0  0  0  0  0  0  0  0  0  0  0
   65.1225   33.8821   24.7516 C   0  0  0  0  0  0  0  0  0  0  0  0
   66.3193   32.6897   26.4495 C   0  0  0  0  0  0  0  0  0  0  0  0
   68.8981   32.4189   26.2873 C   0  0  0  0  0  0  0  0  0  0  0  0
   66.9437   38.3905   22.0482 C   0  0  0  0  0  0  0  0  0  0  0  0
   67.3168   38.3371   23.4003 C   0  0  0  0  0  0  0  0  0  0  0  0
   66.3213   34.1431   24.0673 C   0  0  0  0  0  0  0  0  0  0  0  0
   67.5558   32.9231   25.7683 C   0  0  0  0  0  0  0  0  0  0  0  0
   63.8906   34.8667   23.4379 H   0  0  0  0  0  0  0  0  0  0  0  0
   65.2808   31.2149   29.1113 H   0  0  0  0  0  0  0  0  0  0  0  0
   64.6725   32.6025   28.5019 H   0  0  0  0  0  0  0  0  0  0  0  0
   64.5168   31.2071   27.6680 H   0  0  0  0  0  0  0  0  0  0  0  0
   69.7492   34.3146   26.5076 H   0  0  0  0  0  0  0  0  0  0  0  0
   70.8577   33.1156   26.4894 H   0  0  0  0  0  0  0  0  0  0  0  0
   70.1505   33.5949   25.0977 H   0  0  0  0  0  0  0  0  0  0  0  0
   68.5628   30.4331   25.7737 H   0  0  0  0  0  0  0  0  0  0  0  0
   69.4303   31.2473   24.6552 H   0  0  0  0  0  0  0  0  0  0  0  0
   70.1375   30.7680   26.0468 H   0  0  0  0  0  0  0  0  0  0  0  0
   65.8935   36.9108   21.0143 H   0  0  0  0  0  0  0  0  0  0  0  0
   67.5135   36.7303   20.9165 H   0  0  0  0  0  0  0  0  0  0  0  0
   68.3141   36.6035   24.0127 H   0  0  0  0  0  0  0  0  0  0  0  0
   66.8521   36.7807   24.7182 H   0  0  0  0  0  0  0  0  0  0  0  0
   66.9514   41.6742   21.6486 H   0  0  0  0  0  0  0  0  0  0  0  0
   67.5186   41.5931   23.9624 H   0  0  0  0  0  0  0  0  0  0  0  0
   66.5829   39.6502   20.4368 H   0  0  0  0  0  0  0  0  0  0  0  0
   67.7570   39.4941   25.0688 H   0  0  0  0  0  0  0  0  0  0  0  0
   64.2763   32.9851   26.4117 H   0  0  0  0  0  0  0  0  0  0  0  0
   68.3740   33.8324   24.0844 H   0  0  0  0  0  0  0  0  0  0  0  0
   68.8077   32.2597   27.2704 H   0  0  0  0  0  0  0  0  0  0  0  0
  1 16  2  0  0  0  0
  2 17  1  0  0  0  0
  3  5  1  0  0  0  0
  3 18  1  0  0  0  0
  4  8  1  0  0  0  0
  4  9  1  0  0  0  0
  4 16  1  0  0  0  0
  6 19  1  0  0  0  0
  7 19  1  0  0  0  0
  8 20  1  0  0  0  0
  9 21  1  0  0  0  0
 10 11  2  0  0  0  0
 10 12  1  0  0  0  0
 11 13  1  0  0  0  0
 12 20  2  0  0  0  0
 13 21  2  0  0  0  0
 14 17  2  0  0  0  0
 14 18  1  0  0  0  0
 15 22  2  0  0  0  0
 15 23  1  0  0  0  0
 16 22  1  0  0  0  0
 17 22  1  0  0  0  0
 18 23  2  0  0  0  0
 19 23  1  0  0  0  0
 20 21  1  0  0  0  0
  2 24  1  0  0  0  0
  5 25  1  0  0  0  0
  5 26  1  0  0  0  0
  5 27  1  0  0  0  0
  6 28  1  0  0  0  0
  6 29  1  0  0  0  0
  6 30  1  0  0  0  0
  7 31  1  0  0  0  0
  7 32  1  0  0  0  0
  7 33  1  0  0  0  0
  8 34  1  0  0  0  0
  8 35  1  0  0  0  0
  9 36  1  0  0  0  0
  9 37  1  0  0  0  0
 10 38  1  0  0  0  0
 11 39  1  0  0  0  0
 12 40  1  0  0  0  0
 13 41  1  0  0  0  0
 14 42  1  0  0  0  0
 15 43  1  0  0  0  0
 19 44  1  0  0  0  0
M  END
> <pdb_id>
2XJG

> <uniprot_id>
P07900

> <usmiles>
O=C(N1Cc2c(cccc2)C1)c3c(O)cc(OC)c(c3)C(C)C

$$$$
XKL_A_1225
          07192420423D 1   1.00000     0.00000     0
            
 43 45  0  0  0  0            999 V2000
   73.3534   35.9376   28.7488 O   0  5  0  0  0  0  0  0  0  0  0  0
   74.7919   35.5451   27.2324 O   0  0  0  0  0  0  0  0  0  0  0  0
   68.1413   38.7302   21.1903 O   0  0  0  0  0  0  0  0  0  0  0  0
   66.9878   32.2288   27.8875 O   0  0  0  0  0  0  0  0  0  0  0  0
   64.5596   34.1716   24.2350 O   0  0  0  0  0  0  0  0  0  0  0  0
   66.1495   34.7400   21.9789 O   0  0  0  0  0  0  0  0  0  0  0  0
   69.2637   34.5853   24.3029 O   0  0  0  0  0  0  0  0  0  0  0  0
   66.3350   35.6610   20.9034 N   0  0  0  0  0  0  0  0  0  0  0  0
   67.7237   37.6515   19.2512 N   0  0  0  0  0  0  0  0  0  0  0  0
   73.6218   35.6660   27.5776 N   0  3  0  0  0  0  0  0  0  0  0  0
   69.6312   38.6711   18.0582 C   0  0  0  0  0  0  0  0  0  0  0  0
   68.1285   38.6356   18.2424 C   0  0  0  0  0  0  0  0  0  0  0  0
   70.1964   35.6735   26.2002 C   0  0  0  0  0  0  0  0  0  0  0  0
   71.5934   34.3326   24.7387 C   0  0  0  0  0  0  0  0  0  0  0  0
   71.2872   35.9349   27.0197 C   0  0  0  0  0  0  0  0  0  0  0  0
   72.6928   34.6072   25.5686 C   0  0  0  0  0  0  0  0  0  0  0  0
   65.7510   33.1737   26.0788 C   0  0  0  0  0  0  0  0  0  0  0  0
   68.1725   33.3666   26.1397 C   0  0  0  0  0  0  0  0  0  0  0  0
   67.5690   36.2394   22.6940 C   0  0  0  0  0  0  0  0  0  0  0  0
   67.7343   37.7404   20.5877 C   0  0  0  0  0  0  0  0  0  0  0  0
   66.9755   32.9189   26.7132 C   0  0  0  0  0  0  0  0  0  0  0  0
   65.7333   33.8817   24.8761 C   0  0  0  0  0  0  0  0  0  0  0  0
   70.3506   34.8748   25.0697 C   0  0  0  0  0  0  0  0  0  0  0  0
   66.8853   35.0830   23.0563 C   0  0  0  0  0  0  0  0  0  0  0  0
   68.1368   34.0837   24.9250 C   0  0  0  0  0  0  0  0  0  0  0  0
   67.2261   36.5671   21.3706 C   0  0  0  0  0  0  0  0  0  0  0  0
   72.5439   35.4109   26.7044 C   0  0  0  0  0  0  0  0  0  0  0  0
   66.9164   34.3373   24.3311 C   0  0  0  0  0  0  0  0  0  0  0  0
   67.8553   32.0416   28.3483 H   0  0  0  0  0  0  0  0  0  0  0  0
   64.5726   34.6803   23.3741 H   0  0  0  0  0  0  0  0  0  0  0  0
   67.3892   36.7826   18.8862 H   0  0  0  0  0  0  0  0  0  0  0  0
   69.8660   39.3521   17.3647 H   0  0  0  0  0  0  0  0  0  0  0  0
   70.0676   38.9135   18.9247 H   0  0  0  0  0  0  0  0  0  0  0  0
   69.9522   37.7710   17.7637 H   0  0  0  0  0  0  0  0  0  0  0  0
   67.8168   39.5410   18.5309 H   0  0  0  0  0  0  0  0  0  0  0  0
   67.7015   38.3984   17.3699 H   0  0  0  0  0  0  0  0  0  0  0  0
   69.3006   36.0586   26.4220 H   0  0  0  0  0  0  0  0  0  0  0  0
   71.6991   33.7594   23.9261 H   0  0  0  0  0  0  0  0  0  0  0  0
   71.1729   36.4994   27.8372 H   0  0  0  0  0  0  0  0  0  0  0  0
   73.5897   34.2251   25.3459 H   0  0  0  0  0  0  0  0  0  0  0  0
   64.8964   32.8504   26.4854 H   0  0  0  0  0  0  0  0  0  0  0  0
   69.0464   33.1794   26.5882 H   0  0  0  0  0  0  0  0  0  0  0  0
   68.1989   36.7518   23.2776 H   0  0  0  0  0  0  0  0  0  0  0  0
  1 10  1  0  0  0  0
  2 10  2  0  0  0  0
  3 20  2  0  0  0  0
  4 21  1  0  0  0  0
  5 22  1  0  0  0  0
  6  8  1  0  0  0  0
  6 24  1  0  0  0  0
  7 23  1  0  0  0  0
  7 25  1  0  0  0  0
  8 26  2  0  0  0  0
  9 12  1  0  0  0  0
  9 20  1  0  0  0  0
 10 27  1  0  0  0  0
 11 12  1  0  0  0  0
 13 15  1  0  0  0  0
 13 23  2  0  0  0  0
 14 16  2  0  0  0  0
 14 23  1  0  0  0  0
 15 27  2  0  0  0  0
 16 27  1  0  0  0  0
 17 21  2  0  0  0  0
 17 22  1  0  0  0  0
 18 21  1  0  0  0  0
 18 25  2  0  0  0  0
 19 24  2  0  0  0  0
 19 26  1  0  0  0  0
 20 26  1  0  0  0  0
 22 28  2  0  0  0  0
 24 28  1  0  0  0  0
 25 28  1  0  0  0  0
  4 29  1  0  0  0  0
  5 30  1  0  0  0  0
  9 31  1  0  0  0  0
 11 32  1  0  0  0  0
 11 33  1  0  0  0  0
 11 34  1  0  0  0  0
 12 35  1  0  0  0  0
 12 36  1  0  0  0  0
 13 37  1  0  0  0  0
 14 38  1  0  0  0  0
 15 39  1  0  0  0  0
 16 40  1  0  0  0  0
 17 41  1  0  0  0  0
 18 42  1  0  0  0  0
 19 43  1  0  0  0  0
M  CHG  2   1  -1  10   1
M  END
> <pdb_id>
4BQJ

> <uniprot_id>
P07900

> <usmiles>
[O-][N+](=O)c1ccc(Oc2c(c(O)cc(O)c2)C=3ON=C(C(=O)NCC)C3)cc1

$$$$
XLP_A_1501
          07212401323D 1   1.00000     0.00000     0
            
 17 18  0  0  0  0            999 V2000
  -19.5300   13.8500   27.0840 S   0  0  0  0  0  0  0  0  0  0  0  0
  -24.3640   13.9100   29.7440 O   0  0  0  0  0  0  0  0  0  0  0  0
  -25.8250   13.3100   28.2070 O   0  0  0  0  0  0  0  0  0  0  0  0
  -20.2950   12.3820   25.0960 N   0  0  0  0  0  0  0  0  0  0  0  0
  -19.2560   12.9400   25.6400 C   0  0  0  0  0  0  0  0  0  0  0  0
  -22.6910   11.9750   25.6870 C   0  0  0  0  0  0  0  0  0  0  0  0
  -23.7180   12.2820   26.5520 C   0  0  0  0  0  0  0  0  0  0  0  0
  -22.2310   13.5330   27.9740 C   0  0  0  0  0  0  0  0  0  0  0  0
  -24.6740   13.4250   28.5970 C   0  0  0  0  0  0  0  0  0  0  0  0
  -21.2050   13.3080   27.0690 C   0  0  0  0  0  0  0  0  0  0  0  0
  -21.4200   12.5080   25.9440 C   0  0  0  0  0  0  0  0  0  0  0  0
  -23.5070   13.0630   27.7040 C   0  0  0  0  0  0  0  0  0  0  0  0
  -23.4037   13.9816   30.0136 H   0  0  0  0  0  0  0  0  0  0  0  0
  -18.3427   12.8478   25.2432 H   0  0  0  0  0  0  0  0  0  0  0  0
  -22.8482   11.3859   24.8944 H   0  0  0  0  0  0  0  0  0  0  0  0
  -24.6376   11.9412   26.3565 H   0  0  0  0  0  0  0  0  0  0  0  0
  -22.0508   14.0338   28.8206 H   0  0  0  0  0  0  0  0  0  0  0  0
  1  5  1  0  0  0  0
  1 10  1  0  0  0  0
  2  9  1  0  0  0  0
  3  9  2  0  0  0  0
  4  5  2  0  0  0  0
  4 11  1  0  0  0  0
  6  7  1  0  0  0  0
  6 11  2  0  0  0  0
  7 12  2  0  0  0  0
  8 10  2  0  0  0  0
  8 12  1  0  0  0  0
  9 12  1  0  0  0  0
 10 11  1  0  0  0  0
  2 13  1  0  0  0  0
  5 14  1  0  0  0  0
  6 15  1  0  0  0  0
  7 16  1  0  0  0  0
  8 17  1  0  0  0  0
M  END
> <pdb_id>
5S8G

> <uniprot_id>
Q8WWQ0

> <usmiles>
S1c2c(N=C1)ccc(c2)C(=O)O

$$$$
XNW_A_1144
          07192422283D 1   1.00000     0.00000     0
            
 40 41  0  0  0  0            999 V2000
   31.2119   43.0552    6.1257 O   0  0  0  0  0  0  0  0  0  0  0  0
   29.3326   42.6232    4.9677 O   0  0  0  0  0  0  0  0  0  0  0  0
   29.7784   42.6123   10.9335 O   0  0  0  0  0  0  0  0  0  0  0  0
   27.9988   44.9078   11.0596 O   0  0  0  0  0  0  0  0  0  0  0  0
   27.4377   46.0236    8.7745 O   0  0  0  0  0  0  0  0  0  0  0  0
   27.7807   42.7988    7.0617 O   0  0  0  0  0  0  0  0  0  0  0  0
   30.2353   50.7037    4.5737 O   0  0  0  0  0  0  0  0  0  0  0  0
   30.0429   51.8034    5.4637 C   0  0  0  0  0  0  0  0  0  0  0  0
   30.0229   48.3753    4.4432 C   0  0  0  0  0  0  0  0  0  0  0  0
   28.8737   49.4270    6.2096 C   0  0  0  0  0  0  0  0  0  0  0  0
   29.5730   47.1337    4.8518 C   0  0  0  0  0  0  0  0  0  0  0  0
   28.4099   48.1573    6.6179 C   0  0  0  0  0  0  0  0  0  0  0  0
   28.2982   45.5699    6.2603 C   0  0  0  0  0  0  0  0  0  0  0  0
   29.7654   42.7543    8.4793 C   0  0  0  0  0  0  0  0  0  0  0  0
   29.9555   43.0108    5.9955 C   0  0  0  0  0  0  0  0  0  0  0  0
   29.7023   49.5370    5.0945 C   0  0  0  0  0  0  0  0  0  0  0  0
   29.0766   43.1549    9.8076 C   0  0  2  0  0  0  0  0  0  0  0  0
   28.9509   44.6665    9.9998 C   0  0  1  0  0  0  0  0  0  0  0  0
   28.4071   45.2632    8.7198 C   0  0  0  0  0  0  0  0  0  0  0  0
   28.7571   46.9943    5.9333 C   0  0  0  0  0  0  0  0  0  0  0  0
   29.0637   44.8935    7.3904 C   0  0  1  0  0  0  0  0  0  0  0  0
   29.1089   43.3699    7.2360 C   0  0  1  0  0  0  0  0  0  0  0  0
   31.6148   43.3786    6.9819 H   0  0  0  0  0  0  0  0  0  0  0  0
   29.3156   42.8841   11.7773 H   0  0  0  0  0  0  0  0  0  0  0  0
   27.9012   45.8928   11.2022 H   0  0  0  0  0  0  0  0  0  0  0  0
   27.3499   43.1978    6.2523 H   0  0  0  0  0  0  0  0  0  0  0  0
   30.4370   52.6301    5.0621 H   0  0  0  0  0  0  0  0  0  0  0  0
   29.0643   51.9410    5.6167 H   0  0  0  0  0  0  0  0  0  0  0  0
   30.4925   51.6093    6.3355 H   0  0  0  0  0  0  0  0  0  0  0  0
   30.6093   48.4278    3.6349 H   0  0  0  0  0  0  0  0  0  0  0  0
   28.6081   50.2453    6.7194 H   0  0  0  0  0  0  0  0  0  0  0  0
   29.8527   46.3201    4.3421 H   0  0  0  0  0  0  0  0  0  0  0  0
   27.8164   48.0910    7.4200 H   0  0  0  0  0  0  0  0  0  0  0  0
   28.4035   45.0127    5.4366 H   0  0  0  0  0  0  0  0  0  0  0  0
   27.3324   45.6058    6.5171 H   0  0  0  0  0  0  0  0  0  0  0  0
   29.7323   41.7585    8.3939 H   0  0  0  0  0  0  0  0  0  0  0  0
   30.7187   43.0544    8.5147 H   0  0  0  0  0  0  0  0  0  0  0  0
   28.1545   42.7678    9.8045 H   0  0  0  0  0  0  0  0  0  0  0  0
   29.8386   45.0677   10.2259 H   0  0  0  0  0  0  0  0  0  0  0  0
   30.0015   45.2409    7.3916 H   0  0  0  0  0  0  0  0  0  0  0  0
  1 15  1  0  0  0  0
  2 15  2  0  0  0  0
  3 17  1  0  0  0  0
  4 18  1  0  0  0  0
  5 19  2  0  0  0  0
  6 22  1  0  0  0  0
  7  8  1  0  0  0  0
  7 16  1  0  0  0  0
  9 11  2  0  0  0  0
  9 16  1  0  0  0  0
 10 12  1  0  0  0  0
 10 16  2  0  0  0  0
 11 20  1  0  0  0  0
 12 20  2  0  0  0  0
 13 20  1  0  0  0  0
 13 21  1  0  0  0  0
 14 17  1  0  0  0  0
 14 22  1  0  0  0  0
 15 22  1  0  0  0  0
 17 18  1  0  0  0  0
 18 19  1  0  0  0  0
 19 21  1  0  0  0  0
 21 22  1  0  0  0  0
  1 23  1  0  0  0  0
  3 24  1  0  0  0  0
  4 25  1  0  0  0  0
  6 26  1  0  0  0  0
  8 27  1  0  0  0  0
  8 28  1  0  0  0  0
  8 29  1  0  0  0  0
  9 30  1  0  0  0  0
 10 31  1  0  0  0  0
 11 32  1  0  0  0  0
 12 33  1  0  0  0  0
 13 34  1  0  0  0  0
 13 35  1  0  0  0  0
 14 36  1  0  0  0  0
 14 37  1  0  0  0  0
 17 38  1  0  0  0  0
 18 39  1  0  0  0  0
 21 40  1  0  0  0  0
M  END
> <pdb_id>
2XB8

> <uniprot_id>
P0A4Z6

> <usmiles>
O=C(O)[C@]1(O)[C@H](C(=O)[C@@H](O)[C@H](O)C1)Cc2ccc(OC)cc2

$$$$
XQI_A_1225
          07192420423D 1   1.00000     0.00000     0
            
 23 23  0  0  0  0            999 V2000
   71.2364   34.9081   26.2915 O   0  0  0  0  0  0  0  0  0  0  0  0
   64.7341   34.0723   24.4143 O   0  0  0  0  0  0  0  0  0  0  0  0
   66.8520   32.2088   28.2515 O   0  0  0  0  0  0  0  0  0  0  0  0
   69.9047   36.3655   25.1131 O   0  0  0  0  0  0  0  0  0  0  0  0
   70.3477   37.4213   25.9693 C   0  0  0  0  0  0  0  0  0  0  0  0
   65.7794   33.1336   26.3453 C   0  0  0  0  0  0  0  0  0  0  0  0
   69.6373   34.0818   24.6528 C   0  0  0  0  0  0  0  0  0  0  0  0
   67.1054   34.0639   24.5555 C   0  0  0  0  0  0  0  0  0  0  0  0
   68.1886   33.1217   26.4958 C   0  0  0  0  0  0  0  0  0  0  0  0
   70.3674   35.1296   25.4592 C   0  0  0  0  0  0  0  0  0  0  0  0
   65.8586   33.7581   25.1029 C   0  0  0  0  0  0  0  0  0  0  0  0
   66.9418   32.8168   27.0411 C   0  0  0  0  0  0  0  0  0  0  0  0
   68.2799   33.7484   25.2487 C   0  0  0  0  0  0  0  0  0  0  0  0
   64.8024   34.5206   23.5230 H   0  0  0  0  0  0  0  0  0  0  0  0
   67.6828   31.9779   28.7579 H   0  0  0  0  0  0  0  0  0  0  0  0
   69.9680   38.2900   25.6512 H   0  0  0  0  0  0  0  0  0  0  0  0
   70.0384   37.2447   26.9038 H   0  0  0  0  0  0  0  0  0  0  0  0
   71.3465   37.4678   25.9519 H   0  0  0  0  0  0  0  0  0  0  0  0
   64.8864   32.9127   26.7374 H   0  0  0  0  0  0  0  0  0  0  0  0
   70.1918   33.2499   24.6270 H   0  0  0  0  0  0  0  0  0  0  0  0
   69.5062   34.4239   23.7223 H   0  0  0  0  0  0  0  0  0  0  0  0
   67.1601   34.5111   23.6628 H   0  0  0  0  0  0  0  0  0  0  0  0
   69.0215   32.8912   26.9990 H   0  0  0  0  0  0  0  0  0  0  0  0
  1 10  2  0  0  0  0
  2 11  1  0  0  0  0
  3 12  1  0  0  0  0
  4  5  1  0  0  0  0
  4 10  1  0  0  0  0
  6 11  2  0  0  0  0
  6 12  1  0  0  0  0
  7 10  1  0  0  0  0
  7 13  1  0  0  0  0
  8 11  1  0  0  0  0
  8 13  2  0  0  0  0
  9 12  2  0  0  0  0
  9 13  1  0  0  0  0
  2 14  1  0  0  0  0
  3 15  1  0  0  0  0
  5 16  1  0  0  0  0
  5 17  1  0  0  0  0
  5 18  1  0  0  0  0
  6 19  1  0  0  0  0
  7 20  1  0  0  0  0
  7 21  1  0  0  0  0
  8 22  1  0  0  0  0
  9 23  1  0  0  0  0
M  END
> <pdb_id>
2YE2

> <uniprot_id>
P07900

> <usmiles>
O=C(OC)Cc1cc(O)cc(O)c1

$$$$
XQS_B_2005
          07202416383D 1   1.00000     0.00000     0
            
 52 53  0  0  0  0            999 V2000
   72.7661  100.0285   93.9860 O   0  0  0  0  0  0  0  0  0  0  0  0
   73.9164  101.9244   94.2250 O   0  0  0  0  0  0  0  0  0  0  0  0
   78.6583   92.9011   94.8307 O   0  0  0  0  0  0  0  0  0  0  0  0
   77.9175   93.5693   92.1336 O   0  0  0  0  0  0  0  0  0  0  0  0
   74.9695   98.6272   93.9284 O   0  0  0  0  0  0  0  0  0  0  0  0
   82.6118   86.8497   94.5120 N   0  0  0  0  0  0  0  0  0  0  0  0
   84.1144   88.1896   95.6833 N   0  3  0  0  0  0  0  0  0  0  0  0
   80.3040   93.5855   93.4085 N   0  0  0  0  0  0  0  0  0  0  0  0
   77.5579   95.8132   92.3793 N   0  0  0  0  0  0  0  0  0  0  0  0
   80.6574   95.5471   92.0229 C   0  0  0  0  0  0  0  0  0  0  0  0
   79.9463   90.2610   94.8458 C   0  0  0  0  0  0  0  0  0  0  0  0
   81.9254   91.5227   94.2775 C   0  0  0  0  0  0  0  0  0  0  0  0
   80.7321   89.1312   95.0280 C   0  0  0  0  0  0  0  0  0  0  0  0
   82.7062   90.4013   94.4567 C   0  0  0  0  0  0  0  0  0  0  0  0
   75.0249   99.9490   93.3892 C   0  0  0  0  0  0  0  0  0  0  0  0
   78.0533   97.1555   92.7827 C   0  0  0  0  0  0  0  0  0  0  0  0
   76.1724   95.7132   91.8407 C   0  0  0  0  0  0  0  0  0  0  0  0
   77.1177   97.5655   93.9176 C   0  0  0  0  0  0  0  0  0  0  0  0
   75.2185   96.3321   92.8957 C   0  0  0  0  0  0  0  0  0  0  0  0
   73.8123  100.7148   93.9201 C   0  0  0  0  0  0  0  0  0  0  0  0
   79.7370   92.7137   94.2597 C   0  0  0  0  0  0  0  0  0  0  0  0
   78.3051   94.6952   92.4741 C   0  0  0  0  0  0  0  0  0  0  0  0
   82.9823   88.0204   95.0166 C   0  0  0  0  0  0  0  0  0  0  0  0
   80.5452   91.4652   94.4717 C   0  0  0  0  0  0  0  0  0  0  0  0
   82.1230   89.1873   94.8326 C   0  0  0  0  0  0  0  0  0  0  0  0
   75.7781   97.7334   93.1971 C   0  0  0  0  0  0  0  0  0  0  0  0
   79.7311   94.8636   93.0426 C   0  0  1  0  0  0  0  0  0  0  0  0
   81.8690   86.7850   94.0852 H   0  0  0  0  0  0  0  0  0  0  0  0
   83.1144   86.1596   94.6165 H   0  0  0  0  0  0  0  0  0  0  0  0
   84.6435   87.5238   95.8091 H   0  0  0  0  0  0  0  0  0  0  0  0
   84.3156   88.9671   95.9917 H   0  0  0  0  0  0  0  0  0  0  0  0
   81.0603   93.3951   93.0460 H   0  0  0  0  0  0  0  0  0  0  0  0
   80.2252   95.6421   91.1600 H   0  0  0  0  0  0  0  0  0  0  0  0
   80.9220   96.4332   92.3165 H   0  0  0  0  0  0  0  0  0  0  0  0
   81.4692   95.0326   91.8905 H   0  0  0  0  0  0  0  0  0  0  0  0
   79.0282   90.1994   94.9803 H   0  0  0  0  0  0  0  0  0  0  0  0
   82.3447   92.3129   94.0261 H   0  0  0  0  0  0  0  0  0  0  0  0
   80.3156   88.3385   95.2795 H   0  0  0  0  0  0  0  0  0  0  0  0
   83.6237   90.4716   94.3214 H   0  0  0  0  0  0  0  0  0  0  0  0
   75.8384  100.3922   93.6758 H   0  0  0  0  0  0  0  0  0  0  0  0
   74.9906   99.9180   92.4203 H   0  0  0  0  0  0  0  0  0  0  0  0
   79.0035   97.2066   92.9712 H   0  0  0  0  0  0  0  0  0  0  0  0
   77.9361   97.7443   92.0210 H   0  0  0  0  0  0  0  0  0  0  0  0
   76.1484   96.2378   91.0246 H   0  0  0  0  0  0  0  0  0  0  0  0
   75.9326   94.8178   91.5555 H   0  0  0  0  0  0  0  0  0  0  0  0
   77.0918   96.8741   94.5982 H   0  0  0  0  0  0  0  0  0  0  0  0
   77.4217   98.4013   94.3055 H   0  0  0  0  0  0  0  0  0  0  0  0
   75.2012   95.7713   93.6867 H   0  0  0  0  0  0  0  0  0  0  0  0
   74.3281   96.3762   92.5140 H   0  0  0  0  0  0  0  0  0  0  0  0
   75.9768   98.1625   92.3495 H   0  0  0  0  0  0  0  0  0  0  0  0
   79.7047   95.3842   93.8605 H   0  0  0  0  0  0  0  0  0  0  0  0
   72.7826   99.0649   93.7190 H   0  0  0  0  0  0  0  0  0  0  0  0
  1 20  1  0  0  0  0
  2 20  2  0  0  0  0
  3 21  2  0  0  0  0
  4 22  2  0  0  0  0
  5 15  1  0  0  0  0
  5 26  1  0  0  0  0
  6 23  1  0  0  0  0
  6 28  1  0  0  0  0
  6 29  1  0  0  0  0
  7 23  2  0  0  0  0
  7 30  1  0  0  0  0
  7 31  1  0  0  0  0
  8 21  1  0  0  0  0
  8 27  1  0  0  0  0
  8 32  1  0  0  0  0
  9 16  1  0  0  0  0
  9 17  1  0  0  0  0
  9 22  1  0  0  0  0
 10 27  1  0  0  0  0
 10 33  1  0  0  0  0
 10 34  1  0  0  0  0
 10 35  1  0  0  0  0
 11 13  1  0  0  0  0
 11 24  2  0  0  0  0
 11 36  1  0  0  0  0
 12 14  2  0  0  0  0
 12 24  1  0  0  0  0
 12 37  1  0  0  0  0
 13 25  2  0  0  0  0
 13 38  1  0  0  0  0
 14 25  1  0  0  0  0
 14 39  1  0  0  0  0
 15 20  1  0  0  0  0
 15 40  1  0  0  0  0
 15 41  1  0  0  0  0
 16 18  1  0  0  0  0
 16 42  1  0  0  0  0
 16 43  1  0  0  0  0
 17 19  1  0  0  0  0
 17 44  1  0  0  0  0
 17 45  1  0  0  0  0
 18 26  1  0  0  0  0
 18 46  1  0  0  0  0
 18 47  1  0  0  0  0
 19 26  1  0  0  0  0
 19 48  1  0  0  0  0
 19 49  1  0  0  0  0
 21 24  1  0  0  0  0
 22 27  1  0  0  0  0
 23 25  1  0  0  0  0
 26 50  1  0  0  0  0
 27 51  1  0  0  0  0
  1 52  1  0  0  0  0
M  CHG  1   7   1
M  END
> <pdb_id>
7L8P

> <uniprot_id>
P08514

> <usmiles>
O=C(O)COC1CCN(C(=O)[C@@H](NC(=O)c2ccc(cc2)C(=[NH2+])N)C)CC1

$$$$
XRM_A_1901
          07202414183D 1   1.00000     0.00000     0
            
 51 54  0  0  0  0            999 V2000
    4.3315   47.1772   19.9658 S   0  0  0  0  0  0  0  0  0  0  0  0
    6.4772   52.3852   24.6959 F   0  0  0  0  0  0  0  0  0  0  0  0
    7.6177   50.0922   23.9181 O   0  0  0  0  0  0  0  0  0  0  0  0
    4.3499   42.9394   18.2228 N   0  0  0  0  0  0  0  0  0  0  0  0
    6.8687   49.1000   22.0002 N   0  0  0  0  0  0  0  0  0  0  0  0
    3.2236   54.2944   21.8513 N   0  0  0  0  0  0  0  0  0  0  0  0
    5.2116   50.0633   20.6935 N   0  0  0  0  0  0  0  0  0  0  0  0
    6.0004   47.9585   19.9276 C   0  0  0  0  0  0  0  0  0  0  0  0
    5.3765   43.8661   17.7166 C   0  0  0  0  0  0  0  0  0  0  0  0
    3.0817   43.5290   18.6901 C   0  0  0  0  0  0  0  0  0  0  0  0
    0.5587   55.8025   19.7564 C   0  0  0  0  0  0  0  0  0  0  0  0
    0.0548   54.3658   20.0166 C   0  0  0  0  0  0  0  0  0  0  0  0
    5.6203   44.9457   18.7658 C   0  0  0  0  0  0  0  0  0  0  0  0
    3.3742   44.6139   19.7269 C   0  0  0  0  0  0  0  0  0  0  0  0
    1.9925   55.8132   20.3607 C   0  0  0  0  0  0  0  0  0  0  0  0
    1.0314   53.7246   21.0286 C   0  0  0  0  0  0  0  0  0  0  0  0
    4.8811   53.2958   23.2613 C   0  0  0  0  0  0  0  0  0  0  0  0
    4.2244   52.1419   21.2389 C   0  0  0  0  0  0  0  0  0  0  0  0
    4.2594   45.6285   19.0028 C   0  0  0  0  0  0  0  0  0  0  0  0
    5.7552   52.2832   23.5660 C   0  0  0  0  0  0  0  0  0  0  0  0
    6.8426   50.0829   22.9485 C   0  0  0  0  0  0  0  0  0  0  0  0
    6.0318   49.1020   20.9194 C   0  0  0  0  0  0  0  0  0  0  0  0
    2.3644   54.3556   20.6735 C   0  0  0  0  0  0  0  0  0  0  0  0
    4.1039   53.2311   22.1024 C   0  0  0  0  0  0  0  0  0  0  0  0
    5.1192   51.1258   21.5241 C   0  0  0  0  0  0  0  0  0  0  0  0
    5.8905   51.1783   22.7068 C   0  0  0  0  0  0  0  0  0  0  0  0
    4.7493   42.4380   18.9903 H   0  0  0  0  0  0  0  0  0  0  0  0
    7.5242   48.3514   22.1004 H   0  0  0  0  0  0  0  0  0  0  0  0
    3.1831   55.0454   22.5103 H   0  0  0  0  0  0  0  0  0  0  0  0
    6.1868   48.3064   19.0087 H   0  0  0  0  0  0  0  0  0  0  0  0
    6.6934   47.2812   20.1745 H   0  0  0  0  0  0  0  0  0  0  0  0
    5.0598   44.2878   16.8670 H   0  0  0  0  0  0  0  0  0  0  0  0
    6.2254   43.3663   17.5444 H   0  0  0  0  0  0  0  0  0  0  0  0
    2.5156   42.8163   19.1043 H   0  0  0  0  0  0  0  0  0  0  0  0
    2.5958   43.9318   17.9144 H   0  0  0  0  0  0  0  0  0  0  0  0
   -0.0252   56.4726   20.2146 H   0  0  0  0  0  0  0  0  0  0  0  0
    0.5847   55.9980   18.7760 H   0  0  0  0  0  0  0  0  0  0  0  0
    0.0505   53.8430   19.1642 H   0  0  0  0  0  0  0  0  0  0  0  0
   -0.8694   54.3892   20.3980 H   0  0  0  0  0  0  0  0  0  0  0  0
    6.2881   45.6104   18.4308 H   0  0  0  0  0  0  0  0  0  0  0  0
    5.9550   44.5356   19.6142 H   0  0  0  0  0  0  0  0  0  0  0  0
    3.8550   44.2270   20.5138 H   0  0  0  0  0  0  0  0  0  0  0  0
    2.5254   45.0444   20.0336 H   0  0  0  0  0  0  0  0  0  0  0  0
    2.0069   56.3580   21.1992 H   0  0  0  0  0  0  0  0  0  0  0  0
    2.6391   56.1980   19.7021 H   0  0  0  0  0  0  0  0  0  0  0  0
    1.0636   52.7315   20.9157 H   0  0  0  0  0  0  0  0  0  0  0  0
    0.7696   53.9450   21.9682 H   0  0  0  0  0  0  0  0  0  0  0  0
    4.8000   54.0838   23.8716 H   0  0  0  0  0  0  0  0  0  0  0  0
    3.6632   52.0955   20.4125 H   0  0  0  0  0  0  0  0  0  0  0  0
    3.8477   45.8286   18.1137 H   0  0  0  0  0  0  0  0  0  0  0  0
    2.7864   53.9062   19.8861 H   0  0  0  0  0  0  0  0  0  0  0  0
  1  8  1  0  0  0  0
  1 19  1  0  0  0  0
  2 20  1  0  0  0  0
  3 21  2  0  0  0  0
  4  9  1  0  0  0  0
  4 10  1  0  0  0  0
  5 21  1  0  0  0  0
  5 22  1  0  0  0  0
  6 23  1  0  0  0  0
  6 24  1  0  0  0  0
  7 22  2  0  0  0  0
  7 25  1  0  0  0  0
  8 22  1  0  0  0  0
  9 13  1  0  0  0  0
 10 14  1  0  0  0  0
 11 12  1  0  0  0  0
 11 15  1  0  0  0  0
 12 16  1  0  0  0  0
 13 19  1  0  0  0  0
 14 19  1  0  0  0  0
 15 23  1  0  0  0  0
 16 23  1  0  0  0  0
 17 20  1  0  0  0  0
 17 24  2  0  0  0  0
 18 24  1  0  0  0  0
 18 25  2  0  0  0  0
 20 26  2  0  0  0  0
 21 26  1  0  0  0  0
 25 26  1  0  0  0  0
  4 27  1  0  0  0  0
  5 28  1  0  0  0  0
  6 29  1  0  0  0  0
  8 30  1  0  0  0  0
  8 31  1  0  0  0  0
  9 32  1  0  0  0  0
  9 33  1  0  0  0  0
 10 34  1  0  0  0  0
 10 35  1  0  0  0  0
 11 36  1  0  0  0  0
 11 37  1  0  0  0  0
 12 38  1  0  0  0  0
 12 39  1  0  0  0  0
 13 40  1  0  0  0  0
 13 41  1  0  0  0  0
 14 42  1  0  0  0  0
 14 43  1  0  0  0  0
 15 44  1  0  0  0  0
 15 45  1  0  0  0  0
 16 46  1  0  0  0  0
 16 47  1  0  0  0  0
 17 48  1  0  0  0  0
 18 49  1  0  0  0  0
 19 50  1  0  0  0  0
 23 51  1  0  0  0  0
M  END
> <pdb_id>
7L9Y

> <uniprot_id>
Q460N5

> <usmiles>
S(C1CCNCC1)CC2=Nc3c(c(F)cc(NC4CCCC4)c3)C(=O)N2

$$$$
XRX_F_301
          07202406093D 1   1.00000     0.00000     0
            
 33 32  0  0  0  0            999 V2000
   58.6073   -0.5248  123.6952 O   0  0  0  0  0  0  0  0  0  0  0  0
   58.1558    1.3600  122.5954 O   0  0  0  0  0  0  0  0  0  0  0  0
   59.1704    1.5426  124.6521 N   0  0  0  0  0  0  0  0  0  0  0  0
   59.0544    2.5857  120.1500 N   0  0  0  0  0  0  0  0  0  0  0  0
   59.6315    0.9984  125.9380 C   0  0  0  0  0  0  0  0  0  0  0  0
   59.1197    3.0232  124.5441 C   0  0  0  0  0  0  0  0  0  0  0  0
   58.6274    3.8051  120.9052 C   0  0  0  0  0  0  0  0  0  0  0  0
   60.0855    2.8842  119.1126 C   0  0  0  0  0  0  0  0  0  0  0  0
   57.2800    2.8307  118.4494 C   0  0  0  0  0  0  0  0  0  0  0  0
   57.6099    0.5131  121.5724 C   0  0  0  0  0  0  0  0  0  0  0  0
   56.9062    1.4513  120.5832 C   0  0  0  0  0  0  0  0  0  0  0  0
   58.5733    0.6975  123.7089 C   0  0  0  0  0  0  0  0  0  0  0  0
   57.9151    1.9032  119.5067 C   0  0  2  0  0  0  0  0  0  0  0  0
   59.6258   -0.0008  125.8984 H   0  0  0  0  0  0  0  0  0  0  0  0
   60.5606    1.3194  126.1218 H   0  0  0  0  0  0  0  0  0  0  0  0
   59.0218    1.3066  126.6683 H   0  0  0  0  0  0  0  0  0  0  0  0
   58.7944    3.2801  123.6340 H   0  0  0  0  0  0  0  0  0  0  0  0
   58.4959    3.3868  125.2359 H   0  0  0  0  0  0  0  0  0  0  0  0
   60.0347    3.3996  124.6895 H   0  0  0  0  0  0  0  0  0  0  0  0
   57.9388    3.5522  121.5849 H   0  0  0  0  0  0  0  0  0  0  0  0
   59.4191    4.2061  121.3661 H   0  0  0  0  0  0  0  0  0  0  0  0
   58.2388    4.4720  120.2694 H   0  0  0  0  0  0  0  0  0  0  0  0
   60.3357    2.0399  118.6387 H   0  0  0  0  0  0  0  0  0  0  0  0
   59.7157    3.5393  118.4538 H   0  0  0  0  0  0  0  0  0  0  0  0
   60.8960    3.2733  119.5505 H   0  0  0  0  0  0  0  0  0  0  0  0
   56.5089    2.3638  118.0166 H   0  0  0  0  0  0  0  0  0  0  0  0
   56.9575    3.6679  118.8910 H   0  0  0  0  0  0  0  0  0  0  0  0
   57.9622    3.0613  117.7555 H   0  0  0  0  0  0  0  0  0  0  0  0
   56.9550   -0.1315  121.9668 H   0  0  0  0  0  0  0  0  0  0  0  0
   58.3401    0.0073  121.1130 H   0  0  0  0  0  0  0  0  0  0  0  0
   56.5573    2.2512  121.0715 H   0  0  0  0  0  0  0  0  0  0  0  0
   56.1462    0.9689  120.1478 H   0  0  0  0  0  0  0  0  0  0  0  0
   58.2611    1.0888  119.0409 H   0  0  0  0  0  0  0  0  0  0  0  0
  1 12  2  0  0  0  0
  2 10  1  0  0  0  0
  2 12  1  0  0  0  0
  3  5  1  0  0  0  0
  3  6  1  0  0  0  0
  3 12  1  0  0  0  0
  4  7  1  0  0  0  0
  4  8  1  0  0  0  0
  4 13  1  0  0  0  0
  9 13  1  0  0  0  0
 10 11  1  0  0  0  0
 11 13  1  0  0  0  0
  5 14  1  0  0  0  0
  5 15  1  0  0  0  0
  5 16  1  0  0  0  0
  6 17  1  0  0  0  0
  6 18  1  0  0  0  0
  6 19  1  0  0  0  0
  7 20  1  0  0  0  0
  7 21  1  0  0  0  0
  7 22  1  0  0  0  0
  8 23  1  0  0  0  0
  8 24  1  0  0  0  0
  8 25  1  0  0  0  0
  9 26  1  0  0  0  0
  9 27  1  0  0  0  0
  9 28  1  0  0  0  0
 10 29  1  0  0  0  0
 10 30  1  0  0  0  0
 11 31  1  0  0  0  0
 11 32  1  0  0  0  0
 13 33  1  0  0  0  0
M  END
> <pdb_id>
3ZDG

> <uniprot_id>
P58154

> <usmiles>
O=C(OCC[C@H](N(C)C)C)N(C)C

$$$$
XWG_A_1244
          07192422073D 1   1.00000     0.00000     0
            
 67 72  0  0  0  0            999 V2000
   42.2264   28.7340   12.0135 Cl  0  0  0  0  0  0  0  0  0  0  0  0
   39.9462   27.6157   13.5706 S   0  0  0  0  0  0  0  0  0  0  0  0
   33.7639   35.1548   21.5998 O   0  0  0  0  0  0  0  0  0  0  0  0
   32.0867   30.7487   18.1147 O   0  0  0  0  0  0  0  0  0  0  0  0
   36.2098   29.2364   17.1977 O   0  0  0  0  0  0  0  0  0  0  0  0
   37.5045   26.4558   14.6968 O   0  0  0  0  0  0  0  0  0  0  0  0
   36.3325   26.2478   15.4294 N   0  0  0  0  0  0  0  0  0  0  0  0
   34.2031   30.3573   17.2986 N   0  0  0  0  0  0  0  0  0  0  0  0
   33.1579   28.2599   14.8906 N   0  0  0  0  0  0  0  0  0  0  0  0
   36.1499   33.5113   20.7758 N   0  3  0  0  0  0  0  0  0  0  0  0
   39.4708   29.0915   11.4442 C   0  0  0  0  0  0  0  0  0  0  0  0
   38.2162   28.7693   11.9573 C   0  0  0  0  0  0  0  0  0  0  0  0
   36.0810   28.0665   14.0978 C   0  0  0  0  0  0  0  0  0  0  0  0
   33.7379   33.7332   21.5552 C   0  0  0  0  0  0  0  0  0  0  0  0
   34.7871   31.6409   17.7584 C   0  0  0  0  0  0  0  0  0  0  0  0
   32.5913   27.5769   13.7181 C   0  0  0  0  0  0  0  0  0  0  0  0
   35.1447   33.1986   21.8337 C   0  0  0  0  0  0  0  0  0  0  0  0
   35.7112   33.1682   19.4077 C   0  0  0  0  0  0  0  0  0  0  0  0
   36.5065   34.9500   20.8044 C   0  0  0  0  0  0  0  0  0  0  0  0
   37.4095   32.7922   21.0645 C   0  0  0  0  0  0  0  0  0  0  0  0
   35.2469   31.7315   19.1987 C   0  0  0  0  0  0  0  0  0  0  0  0
   31.3458   26.8377   14.2112 C   0  0  0  0  0  0  0  0  0  0  0  0
   37.9813   35.0477   20.4462 C   0  0  0  0  0  0  0  0  0  0  0  0
   38.5695   33.7633   20.9844 C   0  0  0  0  0  0  0  0  0  0  0  0
   31.0767   27.3351   15.6275 C   0  0  0  0  0  0  0  0  0  0  0  0
   40.4502   28.5604   12.2432 C   0  0  0  0  0  0  0  0  0  0  0  0
   38.3358   27.9791   13.0848 C   0  0  0  0  0  0  0  0  0  0  0  0
   32.9176   29.9844   17.6268 C   0  0  0  0  0  0  0  0  0  0  0  0
   34.9678   29.2138   17.2165 C   0  0  0  0  0  0  0  0  0  0  0  0
   37.3060   27.5040   13.8875 C   0  0  0  0  0  0  0  0  0  0  0  0
   35.4918   27.2085   15.0894 C   0  0  0  0  0  0  0  0  0  0  0  0
   32.0488   28.4949   15.8382 C   0  0  1  0  0  0  0  0  0  0  0  0
   34.0998   27.3973   15.6381 C   0  0  1  0  0  0  0  0  0  0  0  0
   32.6734   28.5635   17.2256 C   0  0  1  0  0  0  0  0  0  0  0  0
   34.0809   28.0059   17.0504 C   0  0  2  0  0  0  0  0  0  0  0  0
   39.6455   29.7034   10.5689 H   0  0  0  0  0  0  0  0  0  0  0  0
   37.2763   29.0723   11.5167 H   0  0  0  0  0  0  0  0  0  0  0  0
   35.6498   28.9377   13.6205 H   0  0  0  0  0  0  0  0  0  0  0  0
   33.0564   33.3639   22.3236 H   0  0  0  0  0  0  0  0  0  0  0  0
   33.3605   33.3924   20.5899 H   0  0  0  0  0  0  0  0  0  0  0  0
   34.0506   32.4256   17.5819 H   0  0  0  0  0  0  0  0  0  0  0  0
   35.6459   31.8701   17.1262 H   0  0  0  0  0  0  0  0  0  0  0  0
   32.3192   28.3052   12.9519 H   0  0  0  0  0  0  0  0  0  0  0  0
   33.3079   26.8719   13.2924 H   0  0  0  0  0  0  0  0  0  0  0  0
   35.4893   33.6062   22.7857 H   0  0  0  0  0  0  0  0  0  0  0  0
   35.0837   32.1160   21.9612 H   0  0  0  0  0  0  0  0  0  0  0  0
   34.9117   33.8443   19.1016 H   0  0  0  0  0  0  0  0  0  0  0  0
   36.5453   33.3520   18.7266 H   0  0  0  0  0  0  0  0  0  0  0  0
   36.3500   35.3727   21.7979 H   0  0  0  0  0  0  0  0  0  0  0  0
   35.9116   35.5221   20.0891 H   0  0  0  0  0  0  0  0  0  0  0  0
   37.3765   32.3587   22.0657 H   0  0  0  0  0  0  0  0  0  0  0  0
   37.5878   31.9809   20.3575 H   0  0  0  0  0  0  0  0  0  0  0  0
   36.0547   31.0189   19.3703 H   0  0  0  0  0  0  0  0  0  0  0  0
   34.4162   31.4835   19.8620 H   0  0  0  0  0  0  0  0  0  0  0  0
   30.4939   27.0542   13.5636 H   0  0  0  0  0  0  0  0  0  0  0  0
   31.5208   25.7598   14.2136 H   0  0  0  0  0  0  0  0  0  0  0  0
   38.4343   35.9159   20.9251 H   0  0  0  0  0  0  0  0  0  0  0  0
   38.1169   35.1163   19.3645 H   0  0  0  0  0  0  0  0  0  0  0  0
   38.9731   33.9244   21.9818 H   0  0  0  0  0  0  0  0  0  0  0  0
   39.3572   33.3825   20.3361 H   0  0  0  0  0  0  0  0  0  0  0  0
   30.0440   27.6766   15.7251 H   0  0  0  0  0  0  0  0  0  0  0  0
   31.2596   26.5405   16.3529 H   0  0  0  0  0  0  0  0  0  0  0  0
   31.5337   29.4389   15.6117 H   0  0  0  0  0  0  0  0  0  0  0  0
   33.6525   26.3999   15.7243 H   0  0  0  0  0  0  0  0  0  0  0  0
   32.0988   28.0035   17.9760 H   0  0  0  0  0  0  0  0  0  0  0  0
   34.2934   27.2427   17.8119 H   0  0  0  0  0  0  0  0  0  0  0  0
   32.8471   35.5108   21.4185 H   0  0  0  0  0  0  0  0  0  0  0  0
  1 26  1  0  0  0  0
  2 26  1  0  0  0  0
  2 27  1  0  0  0  0
  3 14  1  0  0  0  0
  4 28  2  0  0  0  0
  5 29  2  0  0  0  0
  6  7  1  0  0  0  0
  6 30  1  0  0  0  0
  7 31  2  0  0  0  0
  8 15  1  0  0  0  0
  8 28  1  0  0  0  0
  8 29  1  0  0  0  0
  9 16  1  0  0  0  0
  9 32  1  0  0  0  0
  9 33  1  0  0  0  0
 10 17  1  0  0  0  0
 10 18  1  0  0  0  0
 10 19  1  0  0  0  0
 10 20  1  0  0  0  0
 11 12  1  0  0  0  0
 11 26  2  0  0  0  0
 11 36  1  0  0  0  0
 12 27  2  0  0  0  0
 12 37  1  0  0  0  0
 13 30  2  0  0  0  0
 13 31  1  0  0  0  0
 13 38  1  0  0  0  0
 14 17  1  0  0  0  0
 14 39  1  0  0  0  0
 14 40  1  0  0  0  0
 15 21  1  0  0  0  0
 15 41  1  0  0  0  0
 15 42  1  0  0  0  0
 16 22  1  0  0  0  0
 16 43  1  0  0  0  0
 16 44  1  0  0  0  0
 17 45  1  0  0  0  0
 17 46  1  0  0  0  0
 18 21  1  0  0  0  0
 18 47  1  0  0  0  0
 18 48  1  0  0  0  0
 19 23  1  0  0  0  0
 19 49  1  0  0  0  0
 19 50  1  0  0  0  0
 20 24  1  0  0  0  0
 20 51  1  0  0  0  0
 20 52  1  0  0  0  0
 21 53  1  0  0  0  0
 21 54  1  0  0  0  0
 22 25  1  0  0  0  0
 22 55  1  0  0  0  0
 22 56  1  0  0  0  0
 23 24  1  0  0  0  0
 23 57  1  0  0  0  0
 23 58  1  0  0  0  0
 24 59  1  0  0  0  0
 24 60  1  0  0  0  0
 25 32  1  0  0  0  0
 25 61  1  0  0  0  0
 25 62  1  0  0  0  0
 27 30  1  0  0  0  0
 28 34  1  0  0  0  0
 29 35  1  0  0  0  0
 31 33  1  0  0  0  0
 32 34  1  0  0  0  0
 32 63  1  0  0  0  0
 33 35  1  0  0  0  0
 33 64  1  0  0  0  0
 34 35  1  0  0  0  0
 34 65  1  0  0  0  0
 35 66  1  0  0  0  0
  3 67  1  0  0  0  0
M  CHG  1  10   1
M  END
> <pdb_id>
2Y5F

> <uniprot_id>
P00742

> <usmiles>
ClC=1SC(C=2ON=C(C2)[C@@H]3N4[C@H]([C@@H]5C(=O)N(C(=O)[C@H]35)CCC[N+]6(CCO)CCCC6)CCC4)=CC1

$$$$
XX8_B_201
          07202408023D 1   1.00000     0.00000     0
            
 32 33  0  0  0  0            999 V2000
   24.5332    6.4879   20.9871 O   0  0  0  0  0  0  0  0  0  0  0  0
   19.9219    5.8554   18.7443 N   0  0  0  0  0  0  0  0  0  0  0  0
   20.8385    1.9213   19.7640 N   0  0  0  0  0  0  0  0  0  0  0  0
   19.7007    3.9027   20.1927 N   0  0  0  0  0  0  0  0  0  0  0  0
   19.3823    2.0102   21.7533 C   0  0  0  0  0  0  0  0  0  0  0  0
   24.7934    7.4221   19.8710 C   0  0  0  0  0  0  0  0  0  0  0  0
   21.4082    2.4174   18.6260 C   0  0  0  0  0  0  0  0  0  0  0  0
   24.3890    6.9595   16.1445 C   0  0  0  0  0  0  0  0  0  0  0  0
   24.8122    7.4196   17.4426 C   0  0  0  0  0  0  0  0  0  0  0  0
   23.4089    5.9781   16.0445 C   0  0  0  0  0  0  0  0  0  0  0  0
   23.2917    5.8815   18.4942 C   0  0  0  0  0  0  0  0  0  0  0  0
   21.7827    4.3209   16.9707 C   0  0  0  0  0  0  0  0  0  0  0  0
   20.0024    2.6520   20.5078 C   0  0  0  0  0  0  0  0  0  0  0  0
   20.2582    4.4899   19.0686 C   0  0  0  0  0  0  0  0  0  0  0  0
   24.2744    6.8945   18.5647 C   0  0  0  0  0  0  0  0  0  0  0  0
   22.8724    5.4242   17.1790 C   0  0  0  0  0  0  0  0  0  0  0  0
   21.1445    3.7523   18.2424 C   0  0  0  0  0  0  0  0  0  0  0  0
   24.8928    6.8747   21.8363 H   0  0  0  0  0  0  0  0  0  0  0  0
   20.3184    6.2893   17.9353 H   0  0  0  0  0  0  0  0  0  0  0  0
   19.2924    6.3676   19.3285 H   0  0  0  0  0  0  0  0  0  0  0  0
   18.7834    2.6710   22.2057 H   0  0  0  0  0  0  0  0  0  0  0  0
   18.8501    1.2073   21.4846 H   0  0  0  0  0  0  0  0  0  0  0  0
   20.1087    1.7334   22.3824 H   0  0  0  0  0  0  0  0  0  0  0  0
   25.7800    7.5649   19.7927 H   0  0  0  0  0  0  0  0  0  0  0  0
   24.3450    8.2939   20.0683 H   0  0  0  0  0  0  0  0  0  0  0  0
   22.0066    1.8414   18.0690 H   0  0  0  0  0  0  0  0  0  0  0  0
   24.7990    7.3447   15.3177 H   0  0  0  0  0  0  0  0  0  0  0  0
   25.5092    8.1332   17.5133 H   0  0  0  0  0  0  0  0  0  0  0  0
   23.0947    5.6759   15.1446 H   0  0  0  0  0  0  0  0  0  0  0  0
   22.8958    5.4903   19.3251 H   0  0  0  0  0  0  0  0  0  0  0  0
   22.2072    3.5621   16.4768 H   0  0  0  0  0  0  0  0  0  0  0  0
   21.0524    4.7148   16.4127 H   0  0  0  0  0  0  0  0  0  0  0  0
  1  6  1  0  0  0  0
  2 14  1  0  0  0  0
  3  7  1  0  0  0  0
  3 13  2  0  0  0  0
  4 13  1  0  0  0  0
  4 14  2  0  0  0  0
  5 13  1  0  0  0  0
  6 15  1  0  0  0  0
  7 17  2  0  0  0  0
  8  9  1  0  0  0  0
  8 10  2  0  0  0  0
  9 15  2  0  0  0  0
 10 16  1  0  0  0  0
 11 15  1  0  0  0  0
 11 16  2  0  0  0  0
 12 16  1  0  0  0  0
 12 17  1  0  0  0  0
 14 17  1  0  0  0  0
  1 18  1  0  0  0  0
  2 19  1  0  0  0  0
  2 20  1  0  0  0  0
  5 21  1  0  0  0  0
  5 22  1  0  0  0  0
  5 23  1  0  0  0  0
  6 24  1  0  0  0  0
  6 25  1  0  0  0  0
  7 26  1  0  0  0  0
  8 27  1  0  0  0  0
  9 28  1  0  0  0  0
 10 29  1  0  0  0  0
 11 30  1  0  0  0  0
 12 31  1  0  0  0  0
 12 32  1  0  0  0  0
M  END
> <pdb_id>
4N4D

> <uniprot_id>
D8KFM5

> <usmiles>
OCc1cc(ccc1)Cc2c(nc(nc2)C)N

$$$$
XXZ_B_907
          07202412353D 1   1.00000     0.00000     0
            
 49 52  0  0  0  0            999 V2000
  124.9860  114.7990   96.0840 F   0  0  0  0  0  0  0  0  0  0  0  0
  125.9390  116.7920   87.5540 O   0  0  0  0  0  0  0  0  0  0  0  0
  132.7630  118.0630   85.1970 N   0  0  0  0  0  0  0  0  0  0  0  0
  126.4500  117.0650   94.9970 N   0  0  0  0  0  0  0  0  0  0  0  0
  127.3870  116.5170   92.9660 N   0  0  0  0  0  0  0  0  0  0  0  0
  128.3370  114.4320   92.5460 N   0  0  0  0  0  0  0  0  0  0  0  0
  127.2140  116.9440   89.4420 N   0  0  0  0  0  0  0  0  0  0  0  0
  131.4620  118.5000   84.6780 C   0  0  0  0  0  0  0  0  0  0  0  0
  128.4580  117.2450   90.2090 C   0  0  0  0  0  0  0  0  0  0  0  0
  126.1050  116.5100   90.2850 C   0  0  0  0  0  0  0  0  0  0  0  0
  126.8980  111.9180   95.0770 C   0  0  0  0  0  0  0  0  0  0  0  0
  126.0020  112.7180   95.7570 C   0  0  0  0  0  0  0  0  0  0  0  0
  127.6570  112.4580   94.0510 C   0  0  0  0  0  0  0  0  0  0  0  0
  130.4630  117.0370   86.4770 C   0  0  0  0  0  0  0  0  0  0  0  0
  129.1060  118.8540   85.4940 C   0  0  0  0  0  0  0  0  0  0  0  0
  129.3730  116.6950   87.3020 C   0  0  0  0  0  0  0  0  0  0  0  0
  128.0200  118.5150   86.3180 C   0  0  0  0  0  0  0  0  0  0  0  0
  128.8970  116.0120   91.0170 C   0  0  0  0  0  0  0  0  0  0  0  0
  126.5700  115.2210   91.0180 C   0  0  0  0  0  0  0  0  0  0  0  0
  125.8610  114.0590   95.4220 C   0  0  0  0  0  0  0  0  0  0  0  0
  127.0310  117.0440   88.0640 C   0  0  0  0  0  0  0  0  0  0  0  0
  126.8340  116.1310   94.1530 C   0  0  0  0  0  0  0  0  0  0  0  0
  127.5170  113.7990   93.7000 C   0  0  0  0  0  0  0  0  0  0  0  0
  130.3120  118.1180   85.5800 C   0  0  0  0  0  0  0  0  0  0  0  0
  128.1620  117.4450   87.2130 C   0  0  0  0  0  0  0  0  0  0  0  0
  126.6090  114.6440   94.3870 C   0  0  0  0  0  0  0  0  0  0  0  0
  127.7860  115.5690   91.9270 C   0  0  0  0  0  0  0  0  0  0  0  0
  133.4850  118.3408   84.5634 H   0  0  0  0  0  0  0  0  0  0  0  0
  132.9236  118.4829   86.0902 H   0  0  0  0  0  0  0  0  0  0  0  0
  126.0419  116.8097   95.8735 H   0  0  0  0  0  0  0  0  0  0  0  0
  126.5664  118.0300   94.7618 H   0  0  0  0  0  0  0  0  0  0  0  0
  129.2147  114.0506   92.2559 H   0  0  0  0  0  0  0  0  0  0  0  0
  131.3182  118.0798   83.7820 H   0  0  0  0  0  0  0  0  0  0  0  0
  131.4749  119.4952   84.5812 H   0  0  0  0  0  0  0  0  0  0  0  0
  128.2840  118.0051   90.8351 H   0  0  0  0  0  0  0  0  0  0  0  0
  129.1857  117.4981   89.5715 H   0  0  0  0  0  0  0  0  0  0  0  0
  125.3018  116.3145   89.7223 H   0  0  0  0  0  0  0  0  0  0  0  0
  125.8804  117.2217   90.9506 H   0  0  0  0  0  0  0  0  0  0  0  0
  126.9989  110.9541   95.3234 H   0  0  0  0  0  0  0  0  0  0  0  0
  125.4508  112.3299   96.4956 H   0  0  0  0  0  0  0  0  0  0  0  0
  128.3095  111.8814   93.5593 H   0  0  0  0  0  0  0  0  0  0  0  0
  131.3220  116.5273   86.5252 H   0  0  0  0  0  0  0  0  0  0  0  0
  129.0273  119.6135   84.8482 H   0  0  0  0  0  0  0  0  0  0  0  0
  129.4474  115.9327   87.9449 H   0  0  0  0  0  0  0  0  0  0  0  0
  127.1624  119.0268   86.2673 H   0  0  0  0  0  0  0  0  0  0  0  0
  129.7006  116.2445   91.5649 H   0  0  0  0  0  0  0  0  0  0  0  0
  129.1259  115.2688   90.3883 H   0  0  0  0  0  0  0  0  0  0  0  0
  126.8397  114.5313   90.3460 H   0  0  0  0  0  0  0  0  0  0  0  0
  125.8224  114.8655   91.5789 H   0  0  0  0  0  0  0  0  0  0  0  0
  1 20  1  0  0  0  0
  2 21  2  0  0  0  0
  3  8  1  0  0  0  0
  4 22  1  0  0  0  0
  5 22  2  0  0  0  0
  5 27  1  0  0  0  0
  6 23  1  0  0  0  0
  6 27  1  0  0  0  0
  7  9  1  0  0  0  0
  7 10  1  0  0  0  0
  7 21  1  0  0  0  0
  8 24  1  0  0  0  0
  9 18  1  0  0  0  0
 10 19  1  0  0  0  0
 11 12  2  0  0  0  0
 11 13  1  0  0  0  0
 12 20  1  0  0  0  0
 13 23  2  0  0  0  0
 14 16  1  0  0  0  0
 14 24  2  0  0  0  0
 15 17  2  0  0  0  0
 15 24  1  0  0  0  0
 16 25  2  0  0  0  0
 17 25  1  0  0  0  0
 18 27  1  0  0  0  0
 19 27  1  0  0  0  0
 20 26  2  0  0  0  0
 21 25  1  0  0  0  0
 22 26  1  0  0  0  0
 23 26  1  0  0  0  0
  3 28  1  0  0  0  0
  3 29  1  0  0  0  0
  4 30  1  0  0  0  0
  4 31  1  0  0  0  0
  6 32  1  0  0  0  0
  8 33  1  0  0  0  0
  8 34  1  0  0  0  0
  9 35  1  0  0  0  0
  9 36  1  0  0  0  0
 10 37  1  0  0  0  0
 10 38  1  0  0  0  0
 11 39  1  0  0  0  0
 12 40  1  0  0  0  0
 13 41  1  0  0  0  0
 14 42  1  0  0  0  0
 15 43  1  0  0  0  0
 16 44  1  0  0  0  0
 17 45  1  0  0  0  0
 18 46  1  0  0  0  0
 18 47  1  0  0  0  0
 19 48  1  0  0  0  0
 19 49  1  0  0  0  0
M  END
> <pdb_id>
3E65

> <uniprot_id>
P29477

> <usmiles>
Fc1c2c(NC3(N=C2N)CCN(C(=O)c4ccc(cc4)CN)CC3)ccc1

$$$$
XYH_D_502
          07192417113D 1   1.00000     0.00000     0
            
 22 21  0  0  0  0            999 V2000
   16.5780   -5.7710   19.3230 O   0  0  0  0  0  0  0  0  0  0  0  0
   21.3330   -6.7960   23.9010 O   0  0  0  0  0  0  0  0  0  0  0  0
   20.0310   -6.1170   25.5360 O   0  0  0  0  0  0  0  0  0  0  0  0
   15.2450   -6.1490   21.7730 O   0  0  0  0  0  0  0  0  0  0  0  0
   19.4540   -6.9500   22.0750 O   0  0  0  0  0  0  0  0  0  0  0  0
   16.1240   -5.2780   23.7690 O   0  0  0  0  0  0  0  0  0  0  0  0
   19.3680   -4.0720   22.1210 O   0  0  0  0  0  0  0  0  0  0  0  0
   17.0730   -5.1930   20.5340 N   0  0  0  0  0  0  0  0  0  0  0  0
   20.2200   -6.3890   24.3060 C   0  0  0  0  0  0  0  0  0  0  0  0
   16.4440   -5.3910   21.6720 C   0  0  0  0  0  0  0  0  0  0  0  0
   19.1050   -6.2600   23.2770 C   0  0  1  0  0  0  0  0  0  0  0  0
   17.0810   -4.6830   22.8820 C   0  0  2  0  0  0  0  0  0  0  0  0
   18.6010   -4.8310   23.0460 C   0  0  2  0  0  0  0  0  0  0  0  0
   17.1770   -5.5175   18.5635 H   0  0  0  0  0  0  0  0  0  0  0  0
   21.4665   -7.0056   22.9324 H   0  0  0  0  0  0  0  0  0  0  0  0
   18.7132   -6.8564   21.4098 H   0  0  0  0  0  0  0  0  0  0  0  0
   16.3037   -4.9752   24.7050 H   0  0  0  0  0  0  0  0  0  0  0  0
   18.9721   -3.1582   22.0304 H   0  0  0  0  0  0  0  0  0  0  0  0
   17.9025   -4.6348   20.5154 H   0  0  0  0  0  0  0  0  0  0  0  0
   18.3280   -6.7607   23.6584 H   0  0  0  0  0  0  0  0  0  0  0  0
   16.8722   -3.7075   22.8131 H   0  0  0  0  0  0  0  0  0  0  0  0
   18.7826   -4.3796   23.9196 H   0  0  0  0  0  0  0  0  0  0  0  0
  1  8  1  0  0  0  0
  2  9  1  0  0  0  0
  3  9  2  0  0  0  0
  4 10  2  0  0  0  0
  5 11  1  0  0  0  0
  6 12  1  0  0  0  0
  7 13  1  0  0  0  0
  8 10  1  0  0  0  0
  9 11  1  0  0  0  0
 10 12  1  0  0  0  0
 11 13  1  0  0  0  0
 12 13  1  0  0  0  0
  1 14  1  0  0  0  0
  2 15  1  0  0  0  0
  5 16  1  0  0  0  0
  6 17  1  0  0  0  0
  7 18  1  0  0  0  0
  8 19  1  0  0  0  0
 11 20  1  0  0  0  0
 12 21  1  0  0  0  0
 13 22  1  0  0  0  0
M  END
> <pdb_id>
1EC9

> <uniprot_id>
P76637

> <usmiles>
O=C(O)[C@H](O)[C@@H](O)[C@H](O)C(=O)NO

$$$$
XZ8_A_1203
          07192420223D 1   1.00000     0.00000     0
            
 32 34  0  0  0  0            999 V2000
    5.9944   14.1189    8.7767 O   0  0  0  0  0  0  0  0  0  0  0  0
   11.3800   11.1334   10.9967 O   0  0  0  0  0  0  0  0  0  0  0  0
   13.3161   11.2321    9.8197 N   0  0  0  0  0  0  0  0  0  0  0  0
   13.7523   11.9432    8.7623 N   0  0  0  0  0  0  0  0  0  0  0  0
    8.2029   13.5178    9.0421 N   0  0  0  0  0  0  0  0  0  0  0  0
    6.2888   11.8117    9.1485 C   0  0  0  0  0  0  0  0  0  0  0  0
   12.9168   13.7256    7.1787 C   0  0  0  0  0  0  0  0  0  0  0  0
    9.1809   12.5932    9.1297 C   0  0  0  0  0  0  0  0  0  0  0  0
    9.0529   17.1912    8.7714 C   0  0  0  0  0  0  0  0  0  0  0  0
   10.4422   17.0416    8.8123 C   0  0  0  0  0  0  0  0  0  0  0  0
    8.2297   16.0713    8.8305 C   0  0  0  0  0  0  0  0  0  0  0  0
   11.0005   15.7685    8.9284 C   0  0  0  0  0  0  0  0  0  0  0  0
    6.8022   13.2312    8.9923 C   0  0  0  0  0  0  0  0  0  0  0  0
   12.0550   11.5954   10.0964 C   0  0  0  0  0  0  0  0  0  0  0  0
   12.7826   12.7719    8.3505 C   0  0  0  0  0  0  0  0  0  0  0  0
    8.7886   14.7696    8.9484 C   0  0  0  0  0  0  0  0  0  0  0  0
   10.4304   13.2223    9.1111 C   0  0  0  0  0  0  0  0  0  0  0  0
   10.1603   14.6202    8.9950 C   0  0  0  0  0  0  0  0  0  0  0  0
   11.6737   12.5829    9.1850 C   0  0  0  0  0  0  0  0  0  0  0  0
   13.8461   10.5454   10.3174 H   0  0  0  0  0  0  0  0  0  0  0  0
   14.6593   11.8650    8.3485 H   0  0  0  0  0  0  0  0  0  0  0  0
    7.0580   11.1961    9.3199 H   0  0  0  0  0  0  0  0  0  0  0  0
    5.6512   11.7706    9.9178 H   0  0  0  0  0  0  0  0  0  0  0  0
    5.8190   11.5331    8.3109 H   0  0  0  0  0  0  0  0  0  0  0  0
   12.0649   14.2370    7.0660 H   0  0  0  0  0  0  0  0  0  0  0  0
   13.6677   14.3628    7.3519 H   0  0  0  0  0  0  0  0  0  0  0  0
   13.1062   13.2057    6.3458 H   0  0  0  0  0  0  0  0  0  0  0  0
    9.0348   11.6063    9.1978 H   0  0  0  0  0  0  0  0  0  0  0  0
    8.6506   18.1039    8.6995 H   0  0  0  0  0  0  0  0  0  0  0  0
   11.0345   17.8455    8.7585 H   0  0  0  0  0  0  0  0  0  0  0  0
    7.2368   16.1830    8.7898 H   0  0  0  0  0  0  0  0  0  0  0  0
   11.9941   15.6617    8.9650 H   0  0  0  0  0  0  0  0  0  0  0  0
  1 13  2  0  0  0  0
  2 14  2  0  0  0  0
  3  4  1  0  0  0  0
  3 14  1  0  0  0  0
  4 15  1  0  0  0  0
  5  8  1  0  0  0  0
  5 13  1  0  0  0  0
  5 16  1  0  0  0  0
  6 13  1  0  0  0  0
  7 15  1  0  0  0  0
  8 17  2  0  0  0  0
  9 10  2  0  0  0  0
  9 11  1  0  0  0  0
 10 12  1  0  0  0  0
 11 16  2  0  0  0  0
 12 18  2  0  0  0  0
 14 19  1  0  0  0  0
 15 19  2  0  0  0  0
 16 18  1  0  0  0  0
 17 18  1  0  0  0  0
 17 19  1  0  0  0  0
  3 20  1  0  0  0  0
  4 21  1  0  0  0  0
  6 22  1  0  0  0  0
  6 23  1  0  0  0  0
  6 24  1  0  0  0  0
  7 25  1  0  0  0  0
  7 26  1  0  0  0  0
  7 27  1  0  0  0  0
  8 28  1  0  0  0  0
  9 29  1  0  0  0  0
 10 30  1  0  0  0  0
 11 31  1  0  0  0  0
 12 32  1  0  0  0  0
M  END
> <pdb_id>
4TS8

> <uniprot_id>
Q92793

> <usmiles>
O=C(N1c2c(cccc2)C(C=3C(=O)NNC3C)=C1)C

$$$$
XZ8_A_802
          07202409213D 1   1.00000     0.00000     0
            
 32 34  0  0  0  0            999 V2000
    7.2670  -13.0750    1.8240 O   0  0  0  0  0  0  0  0  0  0  0  0
    8.5360   -9.4190    7.7680 O   0  0  0  0  0  0  0  0  0  0  0  0
    9.5810  -10.8270    9.1870 N   0  0  0  0  0  0  0  0  0  0  0  0
    9.8770  -12.0220    9.2020 N   0  0  0  0  0  0  0  0  0  0  0  0
    7.9060  -12.5080    3.9800 N   0  0  0  0  0  0  0  0  0  0  0  0
    9.3250  -13.9880    2.6650 C   0  0  0  0  0  0  0  0  0  0  0  0
    9.6760  -14.0680    7.7800 C   0  0  0  0  0  0  0  0  0  0  0  0
    8.7760  -12.5390    5.0140 C   0  0  0  0  0  0  0  0  0  0  0  0
    4.7300  -10.7030    4.3810 C   0  0  0  0  0  0  0  0  0  0  0  0
    4.9560  -10.2870    5.6870 C   0  0  0  0  0  0  0  0  0  0  0  0
    5.7100  -11.4660    3.7540 C   0  0  0  0  0  0  0  0  0  0  0  0
    6.1450  -10.6570    6.3090 C   0  0  0  0  0  0  0  0  0  0  0  0
    8.0730  -13.1060    2.7690 C   0  0  0  0  0  0  0  0  0  0  0  0
    8.9460  -10.5510    8.0430 C   0  0  0  0  0  0  0  0  0  0  0  0
    9.4600  -12.5780    8.0640 C   0  0  0  0  0  0  0  0  0  0  0  0
    6.8440  -11.7930    4.3950 C   0  0  0  0  0  0  0  0  0  0  0  0
    8.2700  -11.8480    6.0500 C   0  0  0  0  0  0  0  0  0  0  0  0
    7.0640  -11.3880    5.6670 C   0  0  0  0  0  0  0  0  0  0  0  0
    8.8530  -11.6640    7.2910 C   0  0  0  0  0  0  0  0  0  0  0  0
    9.7828  -10.1693    9.9128 H   0  0  0  0  0  0  0  0  0  0  0  0
   10.3510  -12.4964    9.9438 H   0  0  0  0  0  0  0  0  0  0  0  0
    9.8649  -13.9005    3.5022 H   0  0  0  0  0  0  0  0  0  0  0  0
    9.0514  -14.9421    2.5430 H   0  0  0  0  0  0  0  0  0  0  0  0
    9.8743  -13.6960    1.8820 H   0  0  0  0  0  0  0  0  0  0  0  0
    9.2971  -14.2947    6.8828 H   0  0  0  0  0  0  0  0  0  0  0  0
   10.6552  -14.2705    7.7891 H   0  0  0  0  0  0  0  0  0  0  0  0
    9.2167  -14.6113    8.4827 H   0  0  0  0  0  0  0  0  0  0  0  0
    9.6609  -13.0048    5.0090 H   0  0  0  0  0  0  0  0  0  0  0  0
    3.8852  -10.4604    3.9041 H   0  0  0  0  0  0  0  0  0  0  0  0
    4.2783   -9.7330    6.1705 H   0  0  0  0  0  0  0  0  0  0  0  0
    5.5681  -11.7750    2.8136 H   0  0  0  0  0  0  0  0  0  0  0  0
    6.3155  -10.3716    7.2521 H   0  0  0  0  0  0  0  0  0  0  0  0
  1 13  2  0  0  0  0
  2 14  2  0  0  0  0
  3  4  1  0  0  0  0
  3 14  1  0  0  0  0
  4 15  1  0  0  0  0
  5  8  1  0  0  0  0
  5 13  1  0  0  0  0
  5 16  1  0  0  0  0
  6 13  1  0  0  0  0
  7 15  1  0  0  0  0
  8 17  2  0  0  0  0
  9 10  2  0  0  0  0
  9 11  1  0  0  0  0
 10 12  1  0  0  0  0
 11 16  2  0  0  0  0
 12 18  2  0  0  0  0
 14 19  1  0  0  0  0
 15 19  2  0  0  0  0
 16 18  1  0  0  0  0
 17 18  1  0  0  0  0
 17 19  1  0  0  0  0
  3 20  1  0  0  0  0
  4 21  1  0  0  0  0
  6 22  1  0  0  0  0
  6 23  1  0  0  0  0
  6 24  1  0  0  0  0
  7 25  1  0  0  0  0
  7 26  1  0  0  0  0
  7 27  1  0  0  0  0
  8 28  1  0  0  0  0
  9 29  1  0  0  0  0
 10 30  1  0  0  0  0
 11 31  1  0  0  0  0
 12 32  1  0  0  0  0
M  END
> <pdb_id>
5D7X

> <uniprot_id>
P55201

> <usmiles>
O=C(N1c2c(cccc2)C(C=3C(=O)NNC3C)=C1)C

$$$$
XZB_A_1124
          07202405143D 1   1.00000     0.00000     0
            
 52 55  0  0  0  0            999 V2000
    1.0981   14.6892   12.5697 S   0  0  0  0  0  0  0  0  0  0  0  0
   -4.4013   17.9817   17.7556 S   0  0  0  0  0  0  0  0  0  0  0  0
    4.1962   17.2497   10.6041 F   0  0  0  0  0  0  0  0  0  0  0  0
    3.5174   17.5551    8.6704 F   0  0  0  0  0  0  0  0  0  0  0  0
    5.5282   16.9264    8.8768 F   0  0  0  0  0  0  0  0  0  0  0  0
   -4.6801   18.8394   18.8717 O   0  0  0  0  0  0  0  0  0  0  0  0
   -5.5132   17.5170   16.9769 O   0  0  0  0  0  0  0  0  0  0  0  0
   -2.8140   11.8760   11.3882 O   0  0  0  0  0  0  0  0  0  0  0  0
    0.6451   15.6874   15.6230 N   0  0  0  0  0  0  0  0  0  0  0  0
   -1.5377   15.7752   15.1606 N   0  0  0  0  0  0  0  0  0  0  0  0
   -1.1412   11.9046    9.8533 N   0  0  0  0  0  0  0  0  0  0  0  0
   -1.9285   10.9943    8.9846 C   0  0  0  0  0  0  0  0  0  0  0  0
   -3.2419   18.7778   16.6891 C   0  0  0  0  0  0  0  0  0  0  0  0
   -3.4668   16.5929   18.3124 C   0  0  0  0  0  0  0  0  0  0  0  0
    0.0711   12.3474    9.4429 C   0  0  0  0  0  0  0  0  0  0  0  0
    4.2581   13.0648    8.5132 C   0  0  0  0  0  0  0  0  0  0  0  0
   -2.7768   17.7846   15.6380 C   0  0  0  0  0  0  0  0  0  0  0  0
   -2.9850   15.7827   17.1146 C   0  0  0  0  0  0  0  0  0  0  0  0
    3.0140   12.6797    9.0076 C   0  0  0  0  0  0  0  0  0  0  0  0
    4.6644   14.3865    8.6146 C   0  0  0  0  0  0  0  0  0  0  0  0
   -1.2295   13.7590   13.1733 C   0  0  0  0  0  0  0  0  0  0  0  0
    2.6149   14.9394    9.7536 C   0  0  0  0  0  0  0  0  0  0  0  0
   -0.2482   14.6057   13.6547 C   0  0  0  0  0  0  0  0  0  0  0  0
    0.3150   13.6385   11.4222 C   0  0  0  0  0  0  0  0  0  0  0  0
   -1.7058   12.2748   11.0740 C   0  0  0  0  0  0  0  0  0  0  0  0
   -0.3373   15.3715   14.9334 C   0  0  0  0  0  0  0  0  0  0  0  0
   -2.0624   16.5996   16.2419 C   0  0  0  0  0  0  0  0  0  0  0  0
    2.1897   13.6096    9.6572 C   0  0  0  0  0  0  0  0  0  0  0  0
    3.8417   15.3339    9.2295 C   0  0  0  0  0  0  0  0  0  0  0  0
    0.8500   13.1944   10.1808 C   0  0  0  0  0  0  0  0  0  0  0  0
   -0.9386   13.1803   11.9157 C   0  0  0  0  0  0  0  0  0  0  0  0
    4.2805   16.7614    9.3551 C   0  0  0  0  0  0  0  0  0  0  0  0
    1.5525   15.3375   15.3906 H   0  0  0  0  0  0  0  0  0  0  0  0
   -2.2170   15.4766   14.4903 H   0  0  0  0  0  0  0  0  0  0  0  0
   -2.7913   10.7664    9.4359 H   0  0  0  0  0  0  0  0  0  0  0  0
   -2.1175   11.4462    8.1128 H   0  0  0  0  0  0  0  0  0  0  0  0
   -1.4071   10.1570    8.8200 H   0  0  0  0  0  0  0  0  0  0  0  0
   -2.4574   19.0939   17.2225 H   0  0  0  0  0  0  0  0  0  0  0  0
   -3.6781   19.5591   16.2427 H   0  0  0  0  0  0  0  0  0  0  0  0
   -4.0419   16.0169   18.8934 H   0  0  0  0  0  0  0  0  0  0  0  0
   -2.6774   16.9122   18.8367 H   0  0  0  0  0  0  0  0  0  0  0  0
    0.4136   12.0393    8.5554 H   0  0  0  0  0  0  0  0  0  0  0  0
    4.8577   12.3885    8.0854 H   0  0  0  0  0  0  0  0  0  0  0  0
   -2.1528   18.2500   15.0103 H   0  0  0  0  0  0  0  0  0  0  0  0
   -3.5741   17.4553   15.1322 H   0  0  0  0  0  0  0  0  0  0  0  0
   -3.7762   15.4958   16.5747 H   0  0  0  0  0  0  0  0  0  0  0  0
   -2.4945   14.9752   17.4424 H   0  0  0  0  0  0  0  0  0  0  0  0
    2.7069   11.7343    8.8985 H   0  0  0  0  0  0  0  0  0  0  0  0
    5.5516   14.6634    8.2456 H   0  0  0  0  0  0  0  0  0  0  0  0
   -2.0751   13.5712   13.6729 H   0  0  0  0  0  0  0  0  0  0  0  0
    2.0302   15.6139   10.2044 H   0  0  0  0  0  0  0  0  0  0  0  0
   -1.2992   16.9299   16.7973 H   0  0  0  0  0  0  0  0  0  0  0  0
  1 23  1  0  0  0  0
  1 24  1  0  0  0  0
  2  6  2  0  0  0  0
  2  7  2  0  0  0  0
  2 13  1  0  0  0  0
  2 14  1  0  0  0  0
  3 32  1  0  0  0  0
  4 32  1  0  0  0  0
  5 32  1  0  0  0  0
  8 25  2  0  0  0  0
  9 26  2  0  0  0  0
 10 26  1  0  0  0  0
 10 27  1  0  0  0  0
 11 12  1  0  0  0  0
 11 15  1  0  0  0  0
 11 25  1  0  0  0  0
 13 17  1  0  0  0  0
 14 18  1  0  0  0  0
 15 30  2  0  0  0  0
 16 19  2  0  0  0  0
 16 20  1  0  0  0  0
 17 27  1  0  0  0  0
 18 27  1  0  0  0  0
 19 28  1  0  0  0  0
 20 29  2  0  0  0  0
 21 23  2  0  0  0  0
 21 31  1  0  0  0  0
 22 28  2  0  0  0  0
 22 29  1  0  0  0  0
 23 26  1  0  0  0  0
 24 30  1  0  0  0  0
 24 31  2  0  0  0  0
 25 31  1  0  0  0  0
 28 30  1  0  0  0  0
 29 32  1  0  0  0  0
  9 33  1  0  0  0  0
 10 34  1  0  0  0  0
 12 35  1  0  0  0  0
 12 36  1  0  0  0  0
 12 37  1  0  0  0  0
 13 38  1  0  0  0  0
 13 39  1  0  0  0  0
 14 40  1  0  0  0  0
 14 41  1  0  0  0  0
 15 42  1  0  0  0  0
 16 43  1  0  0  0  0
 17 44  1  0  0  0  0
 17 45  1  0  0  0  0
 18 46  1  0  0  0  0
 18 47  1  0  0  0  0
 19 48  1  0  0  0  0
 20 49  1  0  0  0  0
 21 50  1  0  0  0  0
 22 51  1  0  0  0  0
 27 52  1  0  0  0  0
M  END
> <pdb_id>
4UIV

> <uniprot_id>
Q9H8M2

> <usmiles>
S1(=O)(=O)CCC(NC(=N)C=2SC=3C(c4cc(ccc4)C(F)(F)F)=CN(C(=O)C3C2)C)CC1

$$$$
Y0R_D_266
          07202410053D 1   1.00000     0.00000     0
            
 33 35  0  0  0  0            999 V2000
   11.9933  -25.7470   59.2833 S   0  0  0  0  0  0  0  0  0  0  0  0
    9.0566  -26.1482   59.4439 S   0  0  0  0  0  0  0  0  0  0  0  0
    8.7346  -26.5651   60.7860 O   0  0  0  0  0  0  0  0  0  0  0  0
    8.9526  -24.7254   59.3832 O   0  0  0  0  0  0  0  0  0  0  0  0
    8.1056  -26.8190   58.3031 N   0  0  0  0  0  0  0  0  0  0  0  0
   16.3674  -25.8194   59.1291 N   0  0  0  0  0  0  0  0  0  0  0  0
   14.9745  -25.6818   59.0469 N   0  0  0  0  0  0  0  0  0  0  0  0
   16.6026  -27.2077   59.2666 N   0  0  0  0  0  0  0  0  0  0  0  0
   22.0176  -29.0448   60.0210 C   0  0  0  0  0  0  0  0  0  0  0  0
   15.4699  -27.9349   59.3054 C   0  0  0  0  0  0  0  0  0  0  0  0
   10.8983  -28.1318   59.2132 C   0  0  0  0  0  0  0  0  0  0  0  0
   12.2946  -28.3555   59.1236 C   0  0  0  0  0  0  0  0  0  0  0  0
   18.9867  -27.0148   58.8424 C   0  0  0  0  0  0  0  0  0  0  0  0
   18.2076  -28.7721   60.2220 C   0  0  0  0  0  0  0  0  0  0  0  0
   20.3114  -27.4552   59.0251 C   0  0  0  0  0  0  0  0  0  0  0  0
   19.5208  -29.2303   60.4176 C   0  0  0  0  0  0  0  0  0  0  0  0
   10.5912  -26.7617   59.2748 C   0  0  0  0  0  0  0  0  0  0  0  0
   13.0103  -27.1470   59.1340 C   0  0  0  0  0  0  0  0  0  0  0  0
   17.8748  -27.6615   59.4215 C   0  0  0  0  0  0  0  0  0  0  0  0
   14.4945  -26.9499   59.1190 C   0  0  0  0  0  0  0  0  0  0  0  0
   20.5924  -28.5752   59.8169 C   0  0  0  0  0  0  0  0  0  0  0  0
    8.3827  -26.4879   57.4012 H   0  0  0  0  0  0  0  0  0  0  0  0
    8.1975  -27.8143   58.3356 H   0  0  0  0  0  0  0  0  0  0  0  0
   22.0213  -29.8521   60.6112 H   0  0  0  0  0  0  0  0  0  0  0  0
   22.4221  -29.2768   59.1364 H   0  0  0  0  0  0  0  0  0  0  0  0
   22.5506  -28.3157   60.4503 H   0  0  0  0  0  0  0  0  0  0  0  0
   15.3560  -28.9201   59.4339 H   0  0  0  0  0  0  0  0  0  0  0  0
   10.2140  -28.8608   59.2306 H   0  0  0  0  0  0  0  0  0  0  0  0
   12.7171  -29.2597   59.0608 H   0  0  0  0  0  0  0  0  0  0  0  0
   18.8266  -26.2063   58.2760 H   0  0  0  0  0  0  0  0  0  0  0  0
   17.4652  -29.2631   60.6778 H   0  0  0  0  0  0  0  0  0  0  0  0
   21.0610  -26.9619   58.5837 H   0  0  0  0  0  0  0  0  0  0  0  0
   19.6872  -30.0320   60.9917 H   0  0  0  0  0  0  0  0  0  0  0  0
  1 17  1  0  0  0  0
  1 18  1  0  0  0  0
  2  3  2  0  0  0  0
  2  4  2  0  0  0  0
  2  5  1  0  0  0  0
  2 17  1  0  0  0  0
  6  7  2  0  0  0  0
  6  8  1  0  0  0  0
  7 20  1  0  0  0  0
  8 10  1  0  0  0  0
  8 19  1  0  0  0  0
  9 21  1  0  0  0  0
 10 20  2  0  0  0  0
 11 12  1  0  0  0  0
 11 17  2  0  0  0  0
 12 18  2  0  0  0  0
 13 15  1  0  0  0  0
 13 19  2  0  0  0  0
 14 16  2  0  0  0  0
 14 19  1  0  0  0  0
 15 21  2  0  0  0  0
 16 21  1  0  0  0  0
 18 20  1  0  0  0  0
  5 22  1  0  0  0  0
  5 23  1  0  0  0  0
  9 24  1  0  0  0  0
  9 25  1  0  0  0  0
  9 26  1  0  0  0  0
 10 27  1  0  0  0  0
 11 28  1  0  0  0  0
 12 29  1  0  0  0  0
 13 30  1  0  0  0  0
 14 31  1  0  0  0  0
 15 32  1  0  0  0  0
 16 33  1  0  0  0  0
M  END
> <pdb_id>
5FL6

> <uniprot_id>
Q16790

> <usmiles>
S(=O)(=O)(N)C=1SC(C=2N=NN(c3ccc(cc3)C)C2)=CC1

$$$$
Y0V_A_1291
          07202410273D 1   1.00000     0.00000     0
            
 24 25  0  0  0  0            999 V2000
  124.2024  100.7665  -46.3203 I   0  0  0  0  0  0  0  0  0  0  0  0
  125.1213  103.5520  -40.7216 I   0  0  0  0  0  0  0  0  0  0  0  0
  122.9500  107.0198  -44.5251 O   0  0  0  0  0  0  0  0  0  0  0  0
  122.9093  105.9578  -46.5369 O   0  0  0  0  0  0  0  0  0  0  0  0
  123.9647  105.8643  -42.5766 O   0  0  0  0  0  0  0  0  0  0  0  0
  125.1374  101.2010  -42.9151 N   0  0  0  0  0  0  0  0  0  0  0  0
  126.4855  100.9976  -42.6780 C   0  0  0  0  0  0  0  0  0  0  0  0
  124.4441  100.1411  -42.3728 C   0  0  0  0  0  0  0  0  0  0  0  0
  126.6433   99.8144  -41.9908 C   0  0  0  0  0  0  0  0  0  0  0  0
  125.3510   99.2734  -41.8011 C   0  0  0  0  0  0  0  0  0  0  0  0
  123.7181  103.5883  -45.4370 C   0  0  0  0  0  0  0  0  0  0  0  0
  123.1176  106.0123  -45.2824 C   0  0  0  0  0  0  0  0  0  0  0  0
  124.2019  102.3761  -44.9219 C   0  0  0  0  0  0  0  0  0  0  0  0
  124.5397  103.5180  -42.7789 C   0  0  0  0  0  0  0  0  0  0  0  0
  124.0495  104.7164  -43.3240 C   0  0  0  0  0  0  0  0  0  0  0  0
  124.6118  102.3414  -43.5653 C   0  0  0  0  0  0  0  0  0  0  0  0
  123.6378  104.7551  -44.6546 C   0  0  0  0  0  0  0  0  0  0  0  0
  123.1466  106.9485  -43.5473 H   0  0  0  0  0  0  0  0  0  0  0  0
  123.6121  106.7044  -42.9887 H   0  0  0  0  0  0  0  0  0  0  0  0
  127.2244  101.6097  -42.9597 H   0  0  0  0  0  0  0  0  0  0  0  0
  123.4515  100.0212  -42.3906 H   0  0  0  0  0  0  0  0  0  0  0  0
  127.5071   99.4144  -41.6845 H   0  0  0  0  0  0  0  0  0  0  0  0
  125.1334   98.4154  -41.3357 H   0  0  0  0  0  0  0  0  0  0  0  0
  123.4208  103.6242  -46.3911 H   0  0  0  0  0  0  0  0  0  0  0  0
  1 13  1  0  0  0  0
  2 14  1  0  0  0  0
  3 12  1  0  0  0  0
  4 12  2  0  0  0  0
  5 15  1  0  0  0  0
  6  7  1  0  0  0  0
  6  8  1  0  0  0  0
  6 16  1  0  0  0  0
  7  9  2  0  0  0  0
  8 10  2  0  0  0  0
  9 10  1  0  0  0  0
 11 13  1  0  0  0  0
 11 17  2  0  0  0  0
 12 17  1  0  0  0  0
 13 16  2  0  0  0  0
 14 15  2  0  0  0  0
 14 16  1  0  0  0  0
 15 17  1  0  0  0  0
  3 18  1  0  0  0  0
  5 19  1  0  0  0  0
  7 20  1  0  0  0  0
  8 21  1  0  0  0  0
  9 22  1  0  0  0  0
 10 23  1  0  0  0  0
 11 24  1  0  0  0  0
M  END
> <pdb_id>
5AOJ

> <uniprot_id>
P04637

> <usmiles>
Ic1c(O)c(cc(I)c1N2C=CC=C2)C(=O)O

$$$$
Y16_A_286
          07202401203D 1   1.00000     0.00000     0
            
 48 47  0  0  0  0            999 V2000
   -2.0020  -41.8150    4.4420 O   0  0  0  0  0  0  0  0  0  0  0  0
   -4.8490  -43.6130    4.8310 O   0  0  0  0  0  0  0  0  0  0  0  0
  -10.7900  -43.9830    2.5320 O   0  0  0  0  0  0  0  0  0  0  0  0
   -8.7410  -42.7190    1.4440 O   0  0  0  0  0  0  0  0  0  0  0  0
   -6.8030  -44.4650    1.8180 O   0  0  0  0  0  0  0  0  0  0  0  0
   -6.5870  -41.5750    4.0780 O   0  0  0  0  0  0  0  0  0  0  0  0
   -0.9380  -43.6850    5.1000 N   0  0  0  0  0  0  0  0  0  0  0  0
   -3.7590  -43.1910    2.8600 N   0  0  0  0  0  0  0  0  0  0  0  0
   -5.8480  -40.3800    4.0530 C   0  0  0  0  0  0  0  0  0  0  0  0
   -7.7050  -46.4100    6.8840 C   0  0  0  0  0  0  0  0  0  0  0  0
   -9.7970  -45.1680    7.4940 C   0  0  0  0  0  0  0  0  0  0  0  0
   -9.9060  -47.4800    6.7620 C   0  0  0  0  0  0  0  0  0  0  0  0
   -2.5050  -43.8050    3.2500 C   0  0  0  0  0  0  0  0  0  0  0  0
   -9.6470  -44.6570    4.5690 C   0  0  0  0  0  0  0  0  0  0  0  0
   -9.2480  -45.7950    5.0640 C   0  0  0  0  0  0  0  0  0  0  0  0
   -1.8150  -42.9930    4.3050 C   0  0  0  0  0  0  0  0  0  0  0  0
   -4.8500  -43.2060    3.6490 C   0  0  0  0  0  0  0  0  0  0  0  0
   -9.5110  -44.3110    3.1020 C   0  0  2  0  0  0  0  0  0  0  0  0
   -8.5670  -43.2040    2.7960 C   0  0  1  0  0  0  0  0  0  0  0  0
   -7.1630  -43.6610    2.9970 C   0  0  2  0  0  0  0  0  0  0  0  0
   -6.0890  -42.5740    3.1320 C   0  0  1  0  0  0  0  0  0  0  0  0
   -9.1620  -46.1980    6.5320 C   0  0  0  0  0  0  0  0  0  0  0  0
  -10.6759  -43.7583    1.5643 H   0  0  0  0  0  0  0  0  0  0  0  0
   -8.0934  -41.9772    1.2701 H   0  0  0  0  0  0  0  0  0  0  0  0
   -5.8631  -44.7932    1.9127 H   0  0  0  0  0  0  0  0  0  0  0  0
   -0.8043  -44.6662    4.9608 H   0  0  0  0  0  0  0  0  0  0  0  0
   -0.4321  -43.2085    5.8191 H   0  0  0  0  0  0  0  0  0  0  0  0
   -3.8160  -42.7385    1.9700 H   0  0  0  0  0  0  0  0  0  0  0  0
   -6.2313  -39.7371    4.7162 H   0  0  0  0  0  0  0  0  0  0  0  0
   -4.8951  -40.5724    4.2875 H   0  0  0  0  0  0  0  0  0  0  0  0
   -5.8917  -39.9801    3.1375 H   0  0  0  0  0  0  0  0  0  0  0  0
   -7.3041  -47.0773    6.2563 H   0  0  0  0  0  0  0  0  0  0  0  0
   -7.2137  -45.5425    6.8065 H   0  0  0  0  0  0  0  0  0  0  0  0
   -7.6347  -46.7502    7.8217 H   0  0  0  0  0  0  0  0  0  0  0  0
  -10.7584  -45.0354    7.2530 H   0  0  0  0  0  0  0  0  0  0  0  0
   -9.7322  -45.5050    8.4333 H   0  0  0  0  0  0  0  0  0  0  0  0
   -9.3112  -44.2973    7.4180 H   0  0  0  0  0  0  0  0  0  0  0  0
  -10.8707  -47.3513    6.5324 H   0  0  0  0  0  0  0  0  0  0  0  0
   -9.5188  -48.1984    6.1841 H   0  0  0  0  0  0  0  0  0  0  0  0
   -9.8245  -47.7449    7.7228 H   0  0  0  0  0  0  0  0  0  0  0  0
   -1.9108  -43.8728    2.4486 H   0  0  0  0  0  0  0  0  0  0  0  0
   -2.6867  -44.7206    3.6086 H   0  0  0  0  0  0  0  0  0  0  0  0
  -10.0599  -43.9851    5.1838 H   0  0  0  0  0  0  0  0  0  0  0  0
   -8.9640  -46.4874    4.4007 H   0  0  0  0  0  0  0  0  0  0  0  0
   -9.1756  -45.1277    2.6325 H   0  0  0  0  0  0  0  0  0  0  0  0
   -8.7478  -42.4504    3.4280 H   0  0  0  0  0  0  0  0  0  0  0  0
   -7.1295  -44.2468    3.8067 H   0  0  0  0  0  0  0  0  0  0  0  0
   -5.9144  -42.1500    2.2433 H   0  0  0  0  0  0  0  0  0  0  0  0
  1 16  2  0  0  0  0
  2 17  2  0  0  0  0
  3 18  1  0  0  0  0
  4 19  1  0  0  0  0
  5 20  1  0  0  0  0
  6  9  1  0  0  0  0
  6 21  1  0  0  0  0
  7 16  1  0  0  0  0
  8 13  1  0  0  0  0
  8 17  1  0  0  0  0
 10 22  1  0  0  0  0
 11 22  1  0  0  0  0
 12 22  1  0  0  0  0
 13 16  1  0  0  0  0
 14 15  2  0  0  0  0
 14 18  1  0  0  0  0
 15 22  1  0  0  0  0
 17 21  1  0  0  0  0
 18 19  1  0  0  0  0
 19 20  1  0  0  0  0
 20 21  1  0  0  0  0
  3 23  1  0  0  0  0
  4 24  1  0  0  0  0
  5 25  1  0  0  0  0
  7 26  1  0  0  0  0
  7 27  1  0  0  0  0
  8 28  1  0  0  0  0
  9 29  1  0  0  0  0
  9 30  1  0  0  0  0
  9 31  1  0  0  0  0
 10 32  1  0  0  0  0
 10 33  1  0  0  0  0
 10 34  1  0  0  0  0
 11 35  1  0  0  0  0
 11 36  1  0  0  0  0
 11 37  1  0  0  0  0
 12 38  1  0  0  0  0
 12 39  1  0  0  0  0
 12 40  1  0  0  0  0
 13 41  1  0  0  0  0
 13 42  1  0  0  0  0
 14 43  1  0  0  0  0
 15 44  1  0  0  0  0
 18 45  1  0  0  0  0
 19 46  1  0  0  0  0
 20 47  1  0  0  0  0
 21 48  1  0  0  0  0
M  END
> <pdb_id>
3PKB

> <uniprot_id>
P0A5J2

> <usmiles>
O=C(NCC(=O)N)[C@H](OC)[C@H](O)[C@@H](O)[C@H](O)/C=C/C(C)(C)C

$$$$
Y16_A_503
          07202406453D 1   1.00000     0.00000     0
            
 48 47  0  0  0  0            999 V2000
   16.6943   -2.6916   15.6131 O   0  0  0  0  0  0  0  0  0  0  0  0
   19.4486   -4.0103   14.1188 O   0  0  0  0  0  0  0  0  0  0  0  0
   23.4672   -2.6625    9.2266 O   0  0  0  0  0  0  0  0  0  0  0  0
   21.7844   -1.0911   10.4056 O   0  0  0  0  0  0  0  0  0  0  0  0
   22.0087   -1.5967   12.8867 O   0  0  0  0  0  0  0  0  0  0  0  0
   18.9703   -2.9149   11.4632 O   0  0  0  0  0  0  0  0  0  0  0  0
   17.5313   -3.3180   17.6332 N   0  0  0  0  0  0  0  0  0  0  0  0
   19.2249   -1.8351   14.6896 N   0  0  0  0  0  0  0  0  0  0  0  0
   17.6847   -2.3066   11.3532 C   0  0  0  0  0  0  0  0  0  0  0  0
   22.2957   -7.5433   10.3224 C   0  0  0  0  0  0  0  0  0  0  0  0
   22.4469   -7.1368   12.7874 C   0  0  0  0  0  0  0  0  0  0  0  0
   24.5369   -7.4765   11.4461 C   0  0  0  0  0  0  0  0  0  0  0  0
   19.0115   -2.3012   16.0454 C   0  0  0  0  0  0  0  0  0  0  0  0
   22.6766   -4.6686   10.2963 C   0  0  0  0  0  0  0  0  0  0  0  0
   23.2096   -5.4134   11.2715 C   0  0  0  0  0  0  0  0  0  0  0  0
   17.6393   -2.7791   16.3604 C   0  0  0  0  0  0  0  0  0  0  0  0
   19.4973   -2.8646   13.9226 C   0  0  0  0  0  0  0  0  0  0  0  0
   22.9741   -3.2183   10.4962 C   0  0  2  0  0  0  0  0  0  0  0  0
   21.6627   -2.4804   10.7926 C   0  0  1  0  0  0  0  0  0  0  0  0
   21.2609   -2.5852   12.2670 C   0  0  2  0  0  0  0  0  0  0  0  0
   19.7827   -2.3560   12.5242 C   0  0  1  0  0  0  0  0  0  0  0  0
   23.1304   -6.9124   11.3909 C   0  0  0  0  0  0  0  0  0  0  0  0
   23.6709   -1.6907    9.3449 H   0  0  0  0  0  0  0  0  0  0  0  0
   20.9272   -0.6144   10.6007 H   0  0  0  0  0  0  0  0  0  0  0  0
   21.8080   -1.5917   13.8664 H   0  0  0  0  0  0  0  0  0  0  0  0
   18.3371   -3.3733   18.2228 H   0  0  0  0  0  0  0  0  0  0  0  0
   16.6476   -3.6514   17.9616 H   0  0  0  0  0  0  0  0  0  0  0  0
   19.1731   -0.8832   14.3876 H   0  0  0  0  0  0  0  0  0  0  0  0
   17.1760   -2.7350   10.6064 H   0  0  0  0  0  0  0  0  0  0  0  0
   17.1840   -2.4280   12.2103 H   0  0  0  0  0  0  0  0  0  0  0  0
   17.7928   -1.3303   11.1658 H   0  0  0  0  0  0  0  0  0  0  0  0
   22.7298   -7.4012    9.4328 H   0  0  0  0  0  0  0  0  0  0  0  0
   22.2126   -8.5239   10.4999 H   0  0  0  0  0  0  0  0  0  0  0  0
   21.3866   -7.1267   10.3201 H   0  0  0  0  0  0  0  0  0  0  0  0
   23.0041   -6.7154   13.5028 H   0  0  0  0  0  0  0  0  0  0  0  0
   21.5378   -6.7204   12.7842 H   0  0  0  0  0  0  0  0  0  0  0  0
   22.3637   -8.1176   12.9640 H   0  0  0  0  0  0  0  0  0  0  0  0
   25.0500   -7.0221   12.1743 H   0  0  0  0  0  0  0  0  0  0  0  0
   24.4953   -8.4585   11.6305 H   0  0  0  0  0  0  0  0  0  0  0  0
   24.9931   -7.3209   10.5699 H   0  0  0  0  0  0  0  0  0  0  0  0
   19.2226   -1.5458   16.6657 H   0  0  0  0  0  0  0  0  0  0  0  0
   19.6448   -3.0568   16.2127 H   0  0  0  0  0  0  0  0  0  0  0  0
   22.1470   -5.0357    9.5316 H   0  0  0  0  0  0  0  0  0  0  0  0
   23.7083   -4.9282   11.9898 H   0  0  0  0  0  0  0  0  0  0  0  0
   23.6383   -3.0838   11.2315 H   0  0  0  0  0  0  0  0  0  0  0  0
   20.9391   -2.8959   10.2414 H   0  0  0  0  0  0  0  0  0  0  0  0
   21.5279   -3.4803   12.6240 H   0  0  0  0  0  0  0  0  0  0  0  0
   19.6299   -1.3678   12.5287 H   0  0  0  0  0  0  0  0  0  0  0  0
  1 16  2  0  0  0  0
  2 17  2  0  0  0  0
  3 18  1  0  0  0  0
  4 19  1  0  0  0  0
  5 20  1  0  0  0  0
  6  9  1  0  0  0  0
  6 21  1  0  0  0  0
  7 16  1  0  0  0  0
  8 13  1  0  0  0  0
  8 17  1  0  0  0  0
 10 22  1  0  0  0  0
 11 22  1  0  0  0  0
 12 22  1  0  0  0  0
 13 16  1  0  0  0  0
 14 15  2  0  0  0  0
 14 18  1  0  0  0  0
 15 22  1  0  0  0  0
 17 21  1  0  0  0  0
 18 19  1  0  0  0  0
 19 20  1  0  0  0  0
 20 21  1  0  0  0  0
  3 23  1  0  0  0  0
  4 24  1  0  0  0  0
  5 25  1  0  0  0  0
  7 26  1  0  0  0  0
  7 27  1  0  0  0  0
  8 28  1  0  0  0  0
  9 29  1  0  0  0  0
  9 30  1  0  0  0  0
  9 31  1  0  0  0  0
 10 32  1  0  0  0  0
 10 33  1  0  0  0  0
 10 34  1  0  0  0  0
 11 35  1  0  0  0  0
 11 36  1  0  0  0  0
 11 37  1  0  0  0  0
 12 38  1  0  0  0  0
 12 39  1  0  0  0  0
 12 40  1  0  0  0  0
 13 41  1  0  0  0  0
 13 42  1  0  0  0  0
 14 43  1  0  0  0  0
 15 44  1  0  0  0  0
 18 45  1  0  0  0  0
 19 46  1  0  0  0  0
 20 47  1  0  0  0  0
 21 48  1  0  0  0  0
M  END
> <pdb_id>
4FLI

> <uniprot_id>
P53582

> <usmiles>
O=C(NCC(=O)N)[C@H](OC)[C@H](O)[C@@H](O)[C@H](O)/C=C/C(C)(C)C

$$$$
Y22_A_502
          07202417153D 1   1.00000     0.00000     0
            
 40 42  0  0  0  0            999 V2000
   13.0550  -25.3590    1.8630 F   0  0  0  0  0  0  0  0  0  0  0  0
   14.6540  -26.7620    1.6800 F   0  0  0  0  0  0  0  0  0  0  0  0
   13.9240  -25.7460   -0.0750 F   0  0  0  0  0  0  0  0  0  0  0  0
   12.7430  -18.0850    5.5060 F   0  0  0  0  0  0  0  0  0  0  0  0
   13.2240  -15.9820    5.6870 F   0  0  0  0  0  0  0  0  0  0  0  0
   11.6100  -16.6080    4.4730 F   0  0  0  0  0  0  0  0  0  0  0  0
   17.9490  -17.2300   -1.7500 O   0  0  0  0  0  0  0  0  0  0  0  0
   18.5200  -19.2920   -1.3690 O   0  0  0  0  0  0  0  0  0  0  0  0
   18.0140  -20.3030    1.0520 N   0  0  0  0  0  0  0  0  0  0  0  0
   16.3340  -19.1830    2.2730 N   0  0  0  0  0  0  0  0  0  0  0  0
   16.1880  -17.2340    0.3580 N   0  0  0  0  0  0  0  0  0  0  0  0
   18.1420  -21.3760    2.0350 C   0  0  0  0  0  0  0  0  0  0  0  0
   16.3690  -22.5430    0.6210 C   0  0  0  0  0  0  0  0  0  0  0  0
   16.9010  -23.4390    2.7980 C   0  0  0  0  0  0  0  0  0  0  0  0
   14.4920  -16.0960    1.5710 C   0  0  0  0  0  0  0  0  0  0  0  0
   15.4190  -23.5550    0.4330 C   0  0  0  0  0  0  0  0  0  0  0  0
   15.9520  -24.4500    2.6080 C   0  0  0  0  0  0  0  0  0  0  0  0
   13.6620  -16.0320    2.6900 C   0  0  0  0  0  0  0  0  0  0  0  0
   14.6330  -18.0850    3.5460 C   0  0  0  0  0  0  0  0  0  0  0  0
   17.9020  -18.2630   -1.0420 C   0  0  0  0  0  0  0  0  0  0  0  0
   17.1430  -19.2640    1.1850 C   0  0  0  0  0  0  0  0  0  0  0  0
   17.1150  -22.4750    1.8070 C   0  0  0  0  0  0  0  0  0  0  0  0
   15.3880  -17.1590    1.4410 C   0  0  0  0  0  0  0  0  0  0  0  0
   15.4570  -18.1590    2.4210 C   0  0  0  0  0  0  0  0  0  0  0  0
   17.0600  -18.2620    0.2080 C   0  0  0  0  0  0  0  0  0  0  0  0
   15.2060  -24.5170    1.4260 C   0  0  0  0  0  0  0  0  0  0  0  0
   13.7320  -17.0180    3.6800 C   0  0  0  0  0  0  0  0  0  0  0  0
   14.1840  -25.6170    1.2190 C   0  0  0  0  0  0  0  0  0  0  0  0
   12.8200  -16.9270    4.8750 C   0  0  0  0  0  0  0  0  0  0  0  0
   17.4465  -16.4109   -1.4733 H   0  0  0  0  0  0  0  0  0  0  0  0
   18.5959  -20.3327    0.2393 H   0  0  0  0  0  0  0  0  0  0  0  0
   18.0104  -20.9945    2.9499 H   0  0  0  0  0  0  0  0  0  0  0  0
   19.0586  -21.7700    1.9669 H   0  0  0  0  0  0  0  0  0  0  0  0
   16.5168  -21.8627   -0.0969 H   0  0  0  0  0  0  0  0  0  0  0  0
   17.4289  -23.4055    3.6466 H   0  0  0  0  0  0  0  0  0  0  0  0
   14.4458  -15.3866    0.8677 H   0  0  0  0  0  0  0  0  0  0  0  0
   14.8905  -23.5900   -0.4152 H   0  0  0  0  0  0  0  0  0  0  0  0
   15.8055  -25.1318    3.3247 H   0  0  0  0  0  0  0  0  0  0  0  0
   13.0132  -15.2770    2.7852 H   0  0  0  0  0  0  0  0  0  0  0  0
   14.6850  -18.7899    4.2534 H   0  0  0  0  0  0  0  0  0  0  0  0
  1 28  1  0  0  0  0
  2 28  1  0  0  0  0
  3 28  1  0  0  0  0
  4 29  1  0  0  0  0
  5 29  1  0  0  0  0
  6 29  1  0  0  0  0
  7 20  1  0  0  0  0
  8 20  2  0  0  0  0
  9 12  1  0  0  0  0
  9 21  1  0  0  0  0
 10 21  2  0  0  0  0
 10 24  1  0  0  0  0
 11 23  1  0  0  0  0
 11 25  2  0  0  0  0
 12 22  1  0  0  0  0
 13 16  1  0  0  0  0
 13 22  2  0  0  0  0
 14 17  2  0  0  0  0
 14 22  1  0  0  0  0
 15 18  1  0  0  0  0
 15 23  2  0  0  0  0
 16 26  2  0  0  0  0
 17 26  1  0  0  0  0
 18 27  2  0  0  0  0
 19 24  2  0  0  0  0
 19 27  1  0  0  0  0
 20 25  1  0  0  0  0
 21 25  1  0  0  0  0
 23 24  1  0  0  0  0
 26 28  1  0  0  0  0
 27 29  1  0  0  0  0
  7 30  1  0  0  0  0
  9 31  1  0  0  0  0
 12 32  1  0  0  0  0
 12 33  1  0  0  0  0
 13 34  1  0  0  0  0
 14 35  1  0  0  0  0
 15 36  1  0  0  0  0
 16 37  1  0  0  0  0
 17 38  1  0  0  0  0
 18 39  1  0  0  0  0
 19 40  1  0  0  0  0
M  END
> <pdb_id>
4P8C

> <uniprot_id>
P72056

> <usmiles>
FC(F)(F)c1cc2nc(NCc3ccc(cc3)C(F)(F)F)c(nc2cc1)C(=O)O

$$$$
Y27_A_501
          07192418553D 1   1.00000     0.00000     0
            
 39 40  0  0  0  0            999 V2000
    7.6941    9.7307    1.6424 O   0  0  0  0  0  0  0  0  0  0  0  0
   14.0458    7.0416    0.6513 N   0  0  0  0  0  0  0  0  0  0  0  0
    3.2123    9.7373    4.2206 N   0  0  0  0  0  0  0  0  0  0  0  0
    7.3851    9.4508    3.9633 N   0  0  0  0  0  0  0  0  0  0  0  0
   14.2264    7.3160    3.1086 C   0  0  0  0  0  0  0  0  0  0  0  0
    3.9638    9.6234    5.3494 C   0  0  0  0  0  0  0  0  0  0  0  0
    3.7241    9.7663    2.9754 C   0  0  0  0  0  0  0  0  0  0  0  0
    5.3470    9.5358    5.2779 C   0  0  0  0  0  0  0  0  0  0  0  0
    5.0996    9.6944    2.8000 C   0  0  0  0  0  0  0  0  0  0  0  0
    9.8540    7.7466    2.2714 C   0  0  0  0  0  0  0  0  0  0  0  0
   10.6159   10.1458    2.6535 C   0  0  0  0  0  0  0  0  0  0  0  0
   11.3293    7.2891    2.3394 C   0  0  0  0  0  0  0  0  0  0  0  0
   12.0765    9.6026    2.8315 C   0  0  0  0  0  0  0  0  0  0  0  0
    8.1653    9.4597    2.7842 C   0  0  0  0  0  0  0  0  0  0  0  0
   13.7719    7.9695    1.7955 C   0  0  2  0  0  0  0  0  0  0  0  0
    5.9378    9.5555    3.9743 C   0  0  0  0  0  0  0  0  0  0  0  0
    9.5939    9.0548    3.0323 C   0  0  0  0  0  0  0  0  0  0  0  0
   12.2736    8.4179    1.8723 C   0  0  0  0  0  0  0  0  0  0  0  0
   13.7491    7.4689   -0.2028 H   0  0  0  0  0  0  0  0  0  0  0  0
   15.0261    6.8497    0.6050 H   0  0  0  0  0  0  0  0  0  0  0  0
    7.8580    9.3676    4.8404 H   0  0  0  0  0  0  0  0  0  0  0  0
   14.0428    7.9367    3.8709 H   0  0  0  0  0  0  0  0  0  0  0  0
   13.7256    6.4615    3.2465 H   0  0  0  0  0  0  0  0  0  0  0  0
   15.2068    7.1243    3.0636 H   0  0  0  0  0  0  0  0  0  0  0  0
    3.5135    9.6026    6.2420 H   0  0  0  0  0  0  0  0  0  0  0  0
    3.1183    9.8391    2.1831 H   0  0  0  0  0  0  0  0  0  0  0  0
    5.9075    9.4621    6.1028 H   0  0  0  0  0  0  0  0  0  0  0  0
    5.5023    9.7374    1.8856 H   0  0  0  0  0  0  0  0  0  0  0  0
    9.2797    7.0293    2.6660 H   0  0  0  0  0  0  0  0  0  0  0  0
    9.6065    7.8817    1.3120 H   0  0  0  0  0  0  0  0  0  0  0  0
   10.4763   10.4127    1.6999 H   0  0  0  0  0  0  0  0  0  0  0  0
   10.4846   10.9414    3.2449 H   0  0  0  0  0  0  0  0  0  0  0  0
   11.4532    6.4920    1.7484 H   0  0  0  0  0  0  0  0  0  0  0  0
   11.5535    7.0430    3.2824 H   0  0  0  0  0  0  0  0  0  0  0  0
   12.2115    9.2995    3.7749 H   0  0  0  0  0  0  0  0  0  0  0  0
   12.7339   10.3246    2.6161 H   0  0  0  0  0  0  0  0  0  0  0  0
   14.3264    8.7903    1.6585 H   0  0  0  0  0  0  0  0  0  0  0  0
    9.6942    8.8665    4.0093 H   0  0  0  0  0  0  0  0  0  0  0  0
   11.9871    8.7057    0.9584 H   0  0  0  0  0  0  0  0  0  0  0  0
  1 14  2  0  0  0  0
  2 15  1  0  0  0  0
  3  6  2  0  0  0  0
  3  7  1  0  0  0  0
  4 14  1  0  0  0  0
  4 16  1  0  0  0  0
  5 15  1  0  0  0  0
  6  8  1  0  0  0  0
  7  9  2  0  0  0  0
  8 16  2  0  0  0  0
  9 16  1  0  0  0  0
 10 12  1  0  0  0  0
 10 17  1  0  0  0  0
 11 13  1  0  0  0  0
 11 17  1  0  0  0  0
 12 18  1  0  0  0  0
 13 18  1  0  0  0  0
 14 17  1  0  0  0  0
 15 18  1  0  0  0  0
  2 19  1  0  0  0  0
  2 20  1  0  0  0  0
  4 21  1  0  0  0  0
  5 22  1  0  0  0  0
  5 23  1  0  0  0  0
  5 24  1  0  0  0  0
  6 25  1  0  0  0  0
  7 26  1  0  0  0  0
  8 27  1  0  0  0  0
  9 28  1  0  0  0  0
 10 29  1  0  0  0  0
 10 30  1  0  0  0  0
 11 31  1  0  0  0  0
 11 32  1  0  0  0  0
 12 33  1  0  0  0  0
 12 34  1  0  0  0  0
 13 35  1  0  0  0  0
 13 36  1  0  0  0  0
 15 37  1  0  0  0  0
 17 38  1  0  0  0  0
 18 39  1  0  0  0  0
M  END
> <pdb_id>
2GNF

> <uniprot_id>
P00517

> <usmiles>
O=C(Nc1ccncc1)C2CCC([C@H](N)C)CC2

$$$$
Y27_A_930
          07192421293D 1   1.00000     0.00000     0
            
 39 40  0  0  0  0            999 V2000
    7.6161    9.9205    1.7676 O   0  0  0  0  0  0  0  0  0  0  0  0
   14.6768    8.9894    2.7491 N   0  0  0  0  0  0  0  0  0  0  0  0
    3.0903   10.3201    4.3786 N   0  0  0  0  0  0  0  0  0  0  0  0
    7.2428    9.9712    4.0742 N   0  0  0  0  0  0  0  0  0  0  0  0
   13.9551    7.2539    1.1270 C   0  0  0  0  0  0  0  0  0  0  0  0
    3.8541   10.1907    5.4838 C   0  0  0  0  0  0  0  0  0  0  0  0
    3.6133   10.3377    3.1424 C   0  0  0  0  0  0  0  0  0  0  0  0
    5.2455   10.0834    5.4188 C   0  0  0  0  0  0  0  0  0  0  0  0
    4.9858   10.2263    2.9737 C   0  0  0  0  0  0  0  0  0  0  0  0
    9.7865    8.1159    2.2519 C   0  0  0  0  0  0  0  0  0  0  0  0
   10.4891   10.3607    3.2215 C   0  0  0  0  0  0  0  0  0  0  0  0
   11.1420    7.5119    2.6318 C   0  0  0  0  0  0  0  0  0  0  0  0
   11.9440    9.7881    3.3534 C   0  0  0  0  0  0  0  0  0  0  0  0
    8.0361    9.7457    2.9147 C   0  0  0  0  0  0  0  0  0  0  0  0
   13.6180    7.9593    2.4536 C   0  0  2  0  0  0  0  0  0  0  0  0
    5.8071   10.1011    4.1313 C   0  0  0  0  0  0  0  0  0  0  0  0
    9.4251    9.2450    3.2216 C   0  0  0  0  0  0  0  0  0  0  0  0
   12.1971    8.5982    2.3899 C   0  0  0  0  0  0  0  0  0  0  0  0
   14.4622    9.4505    3.6101 H   0  0  0  0  0  0  0  0  0  0  0  0
   15.5670    8.5402    2.8244 H   0  0  0  0  0  0  0  0  0  0  0  0
    7.7329   10.0477    4.9425 H   0  0  0  0  0  0  0  0  0  0  0  0
   13.2548    6.5688    0.9264 H   0  0  0  0  0  0  0  0  0  0  0  0
   13.9832    7.9279    0.3888 H   0  0  0  0  0  0  0  0  0  0  0  0
   14.8463    6.8068    1.2043 H   0  0  0  0  0  0  0  0  0  0  0  0
    3.4091   10.1710    6.3791 H   0  0  0  0  0  0  0  0  0  0  0  0
    3.0157   10.4307    2.3460 H   0  0  0  0  0  0  0  0  0  0  0  0
    5.8088    9.9989    6.2408 H   0  0  0  0  0  0  0  0  0  0  0  0
    5.3901   10.2337    2.0591 H   0  0  0  0  0  0  0  0  0  0  0  0
    9.0840    7.4055    2.2943 H   0  0  0  0  0  0  0  0  0  0  0  0
    9.8357    8.4810    1.3222 H   0  0  0  0  0  0  0  0  0  0  0  0
   10.4201   10.8720    2.3648 H   0  0  0  0  0  0  0  0  0  0  0  0
   10.3130   10.9745    3.9911 H   0  0  0  0  0  0  0  0  0  0  0  0
   11.3343    6.7128    2.0622 H   0  0  0  0  0  0  0  0  0  0  0  0
   11.1406    7.2422    3.5948 H   0  0  0  0  0  0  0  0  0  0  0  0
   12.0831    9.4762    4.2933 H   0  0  0  0  0  0  0  0  0  0  0  0
   12.5966   10.5162    3.1438 H   0  0  0  0  0  0  0  0  0  0  0  0
   13.6262    7.2779    3.1855 H   0  0  0  0  0  0  0  0  0  0  0  0
    9.4043    8.8529    4.1413 H   0  0  0  0  0  0  0  0  0  0  0  0
   12.0657    8.9374    1.4584 H   0  0  0  0  0  0  0  0  0  0  0  0
  1 14  2  0  0  0  0
  2 15  1  0  0  0  0
  3  6  2  0  0  0  0
  3  7  1  0  0  0  0
  4 14  1  0  0  0  0
  4 16  1  0  0  0  0
  5 15  1  0  0  0  0
  6  8  1  0  0  0  0
  7  9  2  0  0  0  0
  8 16  2  0  0  0  0
  9 16  1  0  0  0  0
 10 12  1  0  0  0  0
 10 17  1  0  0  0  0
 11 13  1  0  0  0  0
 11 17  1  0  0  0  0
 12 18  1  0  0  0  0
 13 18  1  0  0  0  0
 14 17  1  0  0  0  0
 15 18  1  0  0  0  0
  2 19  1  0  0  0  0
  2 20  1  0  0  0  0
  4 21  1  0  0  0  0
  5 22  1  0  0  0  0
  5 23  1  0  0  0  0
  5 24  1  0  0  0  0
  6 25  1  0  0  0  0
  7 26  1  0  0  0  0
  8 27  1  0  0  0  0
  9 28  1  0  0  0  0
 10 29  1  0  0  0  0
 10 30  1  0  0  0  0
 11 31  1  0  0  0  0
 11 32  1  0  0  0  0
 12 33  1  0  0  0  0
 12 34  1  0  0  0  0
 13 35  1  0  0  0  0
 13 36  1  0  0  0  0
 15 37  1  0  0  0  0
 17 38  1  0  0  0  0
 18 39  1  0  0  0  0
M  END
> <pdb_id>
1Q8T

> <uniprot_id>
P00517

> <usmiles>
O=C(Nc1ccncc1)C2CCC([C@H](N)C)CC2

$$$$
Y3L_A_1482
          07202416203D 1   1.00000     0.00000     0
            
 21 22  0  0  0  0            999 V2000
   -4.9698   -5.2280   30.4863 Cl  0  0  0  0  0  0  0  0  0  0  0  0
   -6.3580   -0.2870   28.7857 S   0  0  0  0  0  0  0  0  0  0  0  0
   -8.2304    3.5794   28.0265 O   0  0  0  0  0  0  0  0  0  0  0  0
   -8.2121    1.6346   29.1799 N   0  0  0  0  0  0  0  0  0  0  0  0
   -8.2521   -0.3948   30.3482 N   0  0  0  0  0  0  0  0  0  0  0  0
   -6.5842    2.0964   27.3077 C   0  0  0  0  0  0  0  0  0  0  0  0
   -7.1239   -3.7585   31.3530 C   0  0  0  0  0  0  0  0  0  0  0  0
   -7.8904   -2.5921   31.3044 C   0  0  0  0  0  0  0  0  0  0  0  0
   -5.7243   -2.7495   29.6920 C   0  0  0  0  0  0  0  0  0  0  0  0
   -7.7129    0.4381   29.4413 C   0  0  0  0  0  0  0  0  0  0  0  0
   -6.0081   -3.8327   30.5195 C   0  0  0  0  0  0  0  0  0  0  0  0
   -7.7349    2.4665   28.1991 C   0  0  0  0  0  0  0  0  0  0  0  0
   -6.5087   -1.6748   29.6829 C   0  0  0  0  0  0  0  0  0  0  0  0
   -7.5905   -1.5737   30.4839 C   0  0  0  0  0  0  0  0  0  0  0  0
   -8.9841    1.9520   29.7305 H   0  0  0  0  0  0  0  0  0  0  0  0
   -6.2662    1.1768   27.5383 H   0  0  0  0  0  0  0  0  0  0  0  0
   -6.8820    2.1165   26.3533 H   0  0  0  0  0  0  0  0  0  0  0  0
   -5.8382    2.7495   27.4379 H   0  0  0  0  0  0  0  0  0  0  0  0
   -7.3662   -4.5128   31.9631 H   0  0  0  0  0  0  0  0  0  0  0  0
   -8.6892   -2.5133   31.9009 H   0  0  0  0  0  0  0  0  0  0  0  0
   -4.9211   -2.7797   29.0971 H   0  0  0  0  0  0  0  0  0  0  0  0
  1 11  1  0  0  0  0
  2 10  1  0  0  0  0
  2 13  1  0  0  0  0
  3 12  2  0  0  0  0
  4 10  1  0  0  0  0
  4 12  1  0  0  0  0
  5 10  2  0  0  0  0
  5 14  1  0  0  0  0
  6 12  1  0  0  0  0
  7  8  1  0  0  0  0
  7 11  2  0  0  0  0
  8 14  2  0  0  0  0
  9 11  1  0  0  0  0
  9 13  2  0  0  0  0
 13 14  1  0  0  0  0
  4 15  1  0  0  0  0
  6 16  1  0  0  0  0
  6 17  1  0  0  0  0
  6 18  1  0  0  0  0
  7 19  1  0  0  0  0
  8 20  1  0  0  0  0
  9 21  1  0  0  0  0
M  END
> <pdb_id>
5A4Q

> <uniprot_id>
Q13627

> <usmiles>
Clc1cc2SC(=Nc2cc1)NC(=O)C

$$$$
Y3M_A_1392
          07212402253D 1   1.00000     0.00000     0
            
 56 61  0  0  0  0            999 V2000
  114.1062  -21.4928   -2.1261 S   0  0  0  0  0  0  0  0  0  0  0  0
  108.2460  -15.4100    1.1401 O   0  0  0  0  0  0  0  0  0  0  0  0
  115.9326  -19.1370    2.9283 O   0  0  0  0  0  0  0  0  0  0  0  0
  108.9852  -15.8241    3.2825 O   0  0  0  0  0  0  0  0  0  0  0  0
  114.0109  -19.5164   -0.3451 O   0  0  0  0  0  0  0  0  0  0  0  0
  110.7355  -16.6544   -0.0526 N   0  0  0  0  0  0  0  0  0  0  0  0
  116.2220  -22.0690   -3.7436 N   0  0  0  0  0  0  0  0  0  0  0  0
  116.7261  -21.5108   -1.6130 N   0  0  0  0  0  0  0  0  0  0  0  0
  111.5701  -17.1157    3.4938 N   0  0  0  0  0  0  0  0  0  0  0  0
  106.8098  -16.3603    4.1478 C   0  0  0  0  0  0  0  0  0  0  0  0
  107.8108  -15.2594    3.8613 C   0  0  0  0  0  0  0  0  0  0  0  0
  111.9638  -17.2544   -0.1125 C   0  0  0  0  0  0  0  0  0  0  0  0
  119.8929  -22.5625   -3.9777 C   0  0  0  0  0  0  0  0  0  0  0  0
  120.1961  -22.2161   -2.6616 C   0  0  0  0  0  0  0  0  0  0  0  0
  114.3954  -17.6991    5.8421 C   0  0  0  0  0  0  0  0  0  0  0  0
  113.5952  -21.5768    0.6329 C   0  0  0  0  0  0  0  0  0  0  0  0
  115.2010  -18.8040    5.1554 C   0  0  0  0  0  0  0  0  0  0  0  0
  113.4925  -20.6122    1.6337 C   0  0  0  0  0  0  0  0  0  0  0  0
  118.5798  -22.5225   -4.4415 C   0  0  0  0  0  0  0  0  0  0  0  0
  119.1900  -21.8200   -1.7982 C   0  0  0  0  0  0  0  0  0  0  0  0
  112.8956  -17.7666    5.4873 C   0  0  0  0  0  0  0  0  0  0  0  0
  115.7846  -21.6952   -2.5402 C   0  0  0  0  0  0  0  0  0  0  0  0
  113.8927  -20.8463   -0.5226 C   0  0  0  0  0  0  0  0  0  0  0  0
  109.1354  -15.8760    1.8367 C   0  0  0  0  0  0  0  0  0  0  0  0
  115.0519  -18.7214    3.6637 C   0  0  0  0  0  0  0  0  0  0  0  0
  113.7439  -19.4079    0.9786 C   0  0  0  0  0  0  0  0  0  0  0  0
  117.5611  -22.1524   -3.5746 C   0  0  0  0  0  0  0  0  0  0  0  0
  117.8698  -21.8023   -2.2507 C   0  0  0  0  0  0  0  0  0  0  0  0
  112.7072  -17.6555    3.9839 C   0  0  0  0  0  0  0  0  0  0  0  0
  110.3676  -16.4865    1.2465 C   0  0  0  0  0  0  0  0  0  0  0  0
  111.4217  -17.0246    2.1586 C   0  0  0  0  0  0  0  0  0  0  0  0
  112.4216  -17.4855    1.2131 C   0  0  0  0  0  0  0  0  0  0  0  0
  113.7965  -18.1416    3.0782 C   0  0  0  0  0  0  0  0  0  0  0  0
  113.6843  -18.0795    1.6126 C   0  0  1  0  0  0  0  0  0  0  0  0
  110.1901  -16.3804   -0.8447 H   0  0  0  0  0  0  0  0  0  0  0  0
  115.6886  -22.2451   -4.5710 H   0  0  0  0  0  0  0  0  0  0  0  0
  110.8530  -16.7903    4.1101 H   0  0  0  0  0  0  0  0  0  0  0  0
  105.9861  -15.9646    4.5538 H   0  0  0  0  0  0  0  0  0  0  0  0
  106.5711  -16.8241    3.2945 H   0  0  0  0  0  0  0  0  0  0  0  0
  107.2116  -17.0189    4.7840 H   0  0  0  0  0  0  0  0  0  0  0  0
  107.4091  -14.6008    3.2251 H   0  0  0  0  0  0  0  0  0  0  0  0
  108.0496  -14.7957    4.7145 H   0  0  0  0  0  0  0  0  0  0  0  0
  112.4572  -17.4910   -0.9495 H   0  0  0  0  0  0  0  0  0  0  0  0
  120.6269  -22.8430   -4.5962 H   0  0  0  0  0  0  0  0  0  0  0  0
  121.1425  -22.2541   -2.3410 H   0  0  0  0  0  0  0  0  0  0  0  0
  114.7551  -16.8116    5.5540 H   0  0  0  0  0  0  0  0  0  0  0  0
  114.4969  -17.7943    6.8324 H   0  0  0  0  0  0  0  0  0  0  0  0
  113.4819  -22.5665    0.7208 H   0  0  0  0  0  0  0  0  0  0  0  0
  114.8710  -19.6942    5.4694 H   0  0  0  0  0  0  0  0  0  0  0  0
  116.1667  -18.7031    5.3947 H   0  0  0  0  0  0  0  0  0  0  0  0
  113.2855  -20.7524    2.6019 H   0  0  0  0  0  0  0  0  0  0  0  0
  118.3730  -22.7584   -5.3910 H   0  0  0  0  0  0  0  0  0  0  0  0
  119.4064  -21.5494   -0.8602 H   0  0  0  0  0  0  0  0  0  0  0  0
  112.4154  -17.0135    5.9370 H   0  0  0  0  0  0  0  0  0  0  0  0
  112.5201  -18.6377    5.8039 H   0  0  0  0  0  0  0  0  0  0  0  0
  114.4313  -17.5186    1.2559 H   0  0  0  0  0  0  0  0  0  0  0  0
  1 22  1  0  0  0  0
  1 23  1  0  0  0  0
  2 24  2  0  0  0  0
  3 25  2  0  0  0  0
  4 11  1  0  0  0  0
  4 24  1  0  0  0  0
  5 23  1  0  0  0  0
  5 26  1  0  0  0  0
  6 12  1  0  0  0  0
  6 30  1  0  0  0  0
  7 22  1  0  0  0  0
  7 27  1  0  0  0  0
  8 22  2  0  0  0  0
  8 28  1  0  0  0  0
  9 29  1  0  0  0  0
  9 31  1  0  0  0  0
 10 11  1  0  0  0  0
 12 32  2  0  0  0  0
 13 14  2  0  0  0  0
 13 19  1  0  0  0  0
 14 20  1  0  0  0  0
 15 17  1  0  0  0  0
 15 21  1  0  0  0  0
 16 18  1  0  0  0  0
 16 23  2  0  0  0  0
 17 25  1  0  0  0  0
 18 26  2  0  0  0  0
 19 27  2  0  0  0  0
 20 28  2  0  0  0  0
 21 29  1  0  0  0  0
 24 30  1  0  0  0  0
 25 33  1  0  0  0  0
 26 34  1  0  0  0  0
 27 28  1  0  0  0  0
 29 33  2  0  0  0  0
 30 31  2  0  0  0  0
 31 32  1  0  0  0  0
 32 34  1  0  0  0  0
 33 34  1  0  0  0  0
  6 35  1  0  0  0  0
  7 36  1  0  0  0  0
  9 37  1  0  0  0  0
 10 38  1  0  0  0  0
 10 39  1  0  0  0  0
 10 40  1  0  0  0  0
 11 41  1  0  0  0  0
 11 42  1  0  0  0  0
 12 43  1  0  0  0  0
 13 44  1  0  0  0  0
 14 45  1  0  0  0  0
 15 46  1  0  0  0  0
 15 47  1  0  0  0  0
 16 48  1  0  0  0  0
 17 49  1  0  0  0  0
 17 50  1  0  0  0  0
 18 51  1  0  0  0  0
 19 52  1  0  0  0  0
 20 53  1  0  0  0  0
 21 54  1  0  0  0  0
 21 55  1  0  0  0  0
 34 56  1  0  0  0  0
M  END
> <pdb_id>
4UYN

> <uniprot_id>
O14965

> <usmiles>
S(C1=Nc2c(N1)cccc2)C=3OC(=CC3)[C@@H]4C=5C(=O)CCCC5NC6=C(NC=C64)C(=O)OCC

$$$$
Y46_C_400
          07192422273D 1   1.00000     0.00000     0
            
 42 44  0  0  0  0            999 V2000
   30.7720  -18.8880   58.9244 S   0  0  0  0  0  0  0  0  0  0  0  0
   30.5403  -20.3911   58.9326 O   0  0  0  0  0  0  0  0  0  0  0  0
   30.2234  -18.1884   60.1830 O   0  0  0  0  0  0  0  0  0  0  0  0
   35.8166  -19.6768   54.8870 O   0  0  0  0  0  0  0  0  0  0  0  0
   32.9318  -16.7969   56.8043 O   0  0  0  0  0  0  0  0  0  0  0  0
   33.6796  -21.0067   58.7501 N   0  0  0  0  0  0  0  0  0  0  0  0
   32.4266  -18.5366   58.8368 N   0  0  0  0  0  0  0  0  0  0  0  0
   34.3833  -18.2095   55.8019 N   0  0  0  0  0  0  0  0  0  0  0  0
   34.7789  -20.3727   56.7378 N   0  0  0  0  0  0  0  0  0  0  0  0
   28.6614  -17.0356   55.3813 C   0  0  0  0  0  0  0  0  0  0  0  0
   33.6786  -24.8034   54.5021 C   0  0  0  0  0  0  0  0  0  0  0  0
   29.4272  -18.1907   55.2040 C   0  0  0  0  0  0  0  0  0  0  0  0
   28.5514  -16.4339   56.6291 C   0  0  0  0  0  0  0  0  0  0  0  0
   33.7957  -24.8499   55.8938 C   0  0  0  0  0  0  0  0  0  0  0  0
   34.1664  -23.6883   53.8338 C   0  0  0  0  0  0  0  0  0  0  0  0
   35.5421  -21.6643   56.6305 C   0  0  0  0  0  0  0  0  0  0  0  0
   30.0889  -18.7612   56.2914 C   0  0  0  0  0  0  0  0  0  0  0  0
   29.2071  -17.0095   57.7234 C   0  0  0  0  0  0  0  0  0  0  0  0
   34.4226  -23.8061   56.5929 C   0  0  0  0  0  0  0  0  0  0  0  0
   34.7683  -22.6425   54.5389 C   0  0  0  0  0  0  0  0  0  0  0  0
   35.0088  -19.4462   55.7800 C   0  0  0  0  0  0  0  0  0  0  0  0
   29.9629  -18.1675   57.5432 C   0  0  0  0  0  0  0  0  0  0  0  0
   33.4789  -17.9025   56.8235 C   0  0  0  0  0  0  0  0  0  0  0  0
   33.9243  -20.1030   57.7711 C   0  0  0  0  0  0  0  0  0  0  0  0
   33.2319  -18.8681   57.8050 C   0  0  0  0  0  0  0  0  0  0  0  0
   34.9094  -22.6890   55.9195 C   0  0  0  0  0  0  0  0  0  0  0  0
   33.0495  -20.7806   59.4930 H   0  0  0  0  0  0  0  0  0  0  0  0
   34.1289  -21.8998   58.7299 H   0  0  0  0  0  0  0  0  0  0  0  0
   32.8374  -18.0475   59.6062 H   0  0  0  0  0  0  0  0  0  0  0  0
   34.5785  -17.5373   55.0877 H   0  0  0  0  0  0  0  0  0  0  0  0
   28.1851  -16.6358   54.5982 H   0  0  0  0  0  0  0  0  0  0  0  0
   33.2533  -25.5558   53.9992 H   0  0  0  0  0  0  0  0  0  0  0  0
   29.5009  -18.6081   54.2983 H   0  0  0  0  0  0  0  0  0  0  0  0
   28.0107  -15.6005   56.7436 H   0  0  0  0  0  0  0  0  0  0  0  0
   33.4299  -25.6334   56.3961 H   0  0  0  0  0  0  0  0  0  0  0  0
   34.0863  -23.6330   52.8385 H   0  0  0  0  0  0  0  0  0  0  0  0
   35.7152  -21.9961   57.5578 H   0  0  0  0  0  0  0  0  0  0  0  0
   36.4125  -21.4695   56.1783 H   0  0  0  0  0  0  0  0  0  0  0  0
   30.6450  -19.5839   56.1731 H   0  0  0  0  0  0  0  0  0  0  0  0
   29.1340  -16.5927   58.6295 H   0  0  0  0  0  0  0  0  0  0  0  0
   34.5206  -23.8658   57.5863 H   0  0  0  0  0  0  0  0  0  0  0  0
   35.1042  -21.8443   54.0389 H   0  0  0  0  0  0  0  0  0  0  0  0
  1  2  2  0  0  0  0
  1  3  2  0  0  0  0
  1  7  1  0  0  0  0
  1 22  1  0  0  0  0
  4 21  2  0  0  0  0
  5 23  2  0  0  0  0
  6 24  1  0  0  0  0
  7 25  1  0  0  0  0
  8 21  1  0  0  0  0
  8 23  1  0  0  0  0
  9 16  1  0  0  0  0
  9 21  1  0  0  0  0
  9 24  1  0  0  0  0
 10 12  2  0  0  0  0
 10 13  1  0  0  0  0
 11 14  2  0  0  0  0
 11 15  1  0  0  0  0
 12 17  1  0  0  0  0
 13 18  2  0  0  0  0
 14 19  1  0  0  0  0
 15 20  2  0  0  0  0
 16 26  1  0  0  0  0
 17 22  2  0  0  0  0
 18 22  1  0  0  0  0
 19 26  2  0  0  0  0
 20 26  1  0  0  0  0
 23 25  1  0  0  0  0
 24 25  2  0  0  0  0
  6 27  1  0  0  0  0
  6 28  1  0  0  0  0
  7 29  1  0  0  0  0
  8 30  1  0  0  0  0
 10 31  1  0  0  0  0
 11 32  1  0  0  0  0
 12 33  1  0  0  0  0
 13 34  1  0  0  0  0
 14 35  1  0  0  0  0
 15 36  1  0  0  0  0
 16 37  1  0  0  0  0
 16 38  1  0  0  0  0
 17 39  1  0  0  0  0
 18 40  1  0  0  0  0
 19 41  1  0  0  0  0
 20 42  1  0  0  0  0
M  END
> <pdb_id>
3ZLK

> <uniprot_id>
G3XCK4

> <usmiles>
S(=O)(=O)(NC=1C(=O)NC(=O)N(C1N)Cc2ccccc2)c3ccccc3

$$$$
Y9B_A_403
          07212403373D 1   1.00000     0.00000     0
            
 32 34  0  0  0  0            999 V2000
   34.9066  -17.5803  -24.1826 S   0  0  0  0  0  0  0  0  0  0  0  0
   31.8731  -12.6981  -21.8043 F   0  0  0  0  0  0  0  0  0  0  0  0
   34.2401  -10.8112  -25.3497 F   0  0  0  0  0  0  0  0  0  0  0  0
   31.1780  -10.2905  -20.8910 F   0  0  0  0  0  0  0  0  0  0  0  0
   33.5421   -8.3231  -24.5175 F   0  0  0  0  0  0  0  0  0  0  0  0
   33.6609  -14.7790  -26.2107 O   0  0  0  0  0  0  0  0  0  0  0  0
   34.3824  -13.7196  -22.0792 O   0  0  0  0  0  0  0  0  0  0  0  0
   34.4236  -16.8982  -25.5661 N   0  0  0  0  0  0  0  0  0  0  0  0
   34.7832  -16.3556  -23.1672 N   0  0  0  0  0  0  0  0  0  0  0  0
   33.4124  -13.0405  -24.0581 N   0  0  0  0  0  0  0  0  0  0  0  0
   31.6089   -5.2873  -21.1801 C   0  0  0  0  0  0  0  0  0  0  0  0
   32.2014   -6.2440  -20.3921 C   0  0  0  0  0  0  0  0  0  0  0  0
   31.2118   -5.6026  -22.4835 C   0  0  0  0  0  0  0  0  0  0  0  0
   32.4164   -7.5043  -20.9143 C   0  0  0  0  0  0  0  0  0  0  0  0
   31.4078   -6.8578  -22.9948 C   0  0  0  0  0  0  0  0  0  0  0  0
   34.1290  -15.6275  -25.2613 C   0  0  0  0  0  0  0  0  0  0  0  0
   34.0939  -13.9598  -23.2080 C   0  0  0  0  0  0  0  0  0  0  0  0
   32.2697  -11.6061  -22.4650 C   0  0  0  0  0  0  0  0  0  0  0  0
   33.4583  -10.6449  -24.2680 C   0  0  0  0  0  0  0  0  0  0  0  0
   31.9251  -10.3596  -22.0008 C   0  0  0  0  0  0  0  0  0  0  0  0
   33.1038   -9.3935  -23.8238 C   0  0  0  0  0  0  0  0  0  0  0  0
   34.3569  -15.3007  -23.8499 C   0  0  0  0  0  0  0  0  0  0  0  0
   33.0533  -11.7415  -23.5904 C   0  0  0  0  0  0  0  0  0  0  0  0
   32.0074   -7.8222  -22.2019 C   0  0  0  0  0  0  0  0  0  0  0  0
   32.3241   -9.2315  -22.6951 C   0  0  0  0  0  0  0  0  0  0  0  0
   33.4441  -13.8323  -25.9723 H   0  0  0  0  0  0  0  0  0  0  0  0
   33.1833  -13.3094  -24.9936 H   0  0  0  0  0  0  0  0  0  0  0  0
   31.4616   -4.3654  -20.8217 H   0  0  0  0  0  0  0  0  0  0  0  0
   32.4732   -6.0309  -19.4536 H   0  0  0  0  0  0  0  0  0  0  0  0
   30.7786   -4.9016  -23.0501 H   0  0  0  0  0  0  0  0  0  0  0  0
   32.8732   -8.1976  -20.3569 H   0  0  0  0  0  0  0  0  0  0  0  0
   31.1219   -7.0751  -23.9281 H   0  0  0  0  0  0  0  0  0  0  0  0
  1  8  1  0  0  0  0
  1  9  1  0  0  0  0
  2 18  1  0  0  0  0
  3 19  1  0  0  0  0
  4 20  1  0  0  0  0
  5 21  1  0  0  0  0
  6 16  1  0  0  0  0
  7 17  2  0  0  0  0
  8 16  2  0  0  0  0
  9 22  2  0  0  0  0
 10 17  1  0  0  0  0
 10 23  1  0  0  0  0
 11 12  2  0  0  0  0
 11 13  1  0  0  0  0
 12 14  1  0  0  0  0
 13 15  2  0  0  0  0
 14 24  2  0  0  0  0
 15 24  1  0  0  0  0
 16 22  1  0  0  0  0
 17 22  1  0  0  0  0
 18 20  2  0  0  0  0
 18 23  1  0  0  0  0
 19 21  1  0  0  0  0
 19 23  2  0  0  0  0
 20 25  1  0  0  0  0
 21 25  2  0  0  0  0
 24 25  1  0  0  0  0
  6 26  1  0  0  0  0
 10 27  1  0  0  0  0
 11 28  1  0  0  0  0
 12 29  1  0  0  0  0
 13 30  1  0  0  0  0
 14 31  1  0  0  0  0
 15 32  1  0  0  0  0
M  END
> <pdb_id>
5MVC

> <uniprot_id>
Q02127

> <usmiles>
S1N=C(O)C(=N1)C(=O)Nc2c(F)c(F)c(c(F)c2F)c3ccccc3

$$$$
Y9P_A_3101
          07212404123D 1   1.00000     0.00000     0
            
 28 29  0  0  0  0            999 V2000
    8.2051    0.8416   -3.5300 Cl  0  0  0  0  0  0  0  0  0  0  0  0
    7.4119    3.6722   -4.1279 O   0  0  0  0  0  0  0  0  0  0  0  0
    5.5800    3.5001   -0.9955 N   0  0  0  0  0  0  0  0  0  0  0  0
    5.5313   -2.7090    1.0426 N   0  0  0  0  0  0  0  0  0  0  0  0
    6.8555    0.0410   -0.8598 N   0  0  0  0  0  0  0  0  0  0  0  0
    6.1153    3.9458   -2.1461 N   0  0  0  0  0  0  0  0  0  0  0  0
    5.8362    5.3019   -2.5853 C   0  0  0  0  0  0  0  0  0  0  0  0
    6.3439   -1.8631    2.0894 C   0  0  0  0  0  0  0  0  0  0  0  0
    5.7891    2.2845   -0.5544 C   0  0  0  0  0  0  0  0  0  0  0  0
    5.5916   -2.0660   -0.1260 C   0  0  0  0  0  0  0  0  0  0  0  0
    6.6639   -0.4739    1.3582 C   0  0  0  0  0  0  0  0  0  0  0  0
    6.8796    3.1689   -2.9076 C   0  0  0  0  0  0  0  0  0  0  0  0
    7.1617    1.8711   -2.5279 C   0  0  0  0  0  0  0  0  0  0  0  0
    5.9912   -0.4776    0.2216 C   0  0  1  0  0  0  0  0  0  0  0  0
    6.6034    1.3988   -1.3119 C   0  0  0  0  0  0  0  0  0  0  0  0
    4.5794   -2.7937    1.3370 H   0  0  0  0  0  0  0  0  0  0  0  0
    7.5810   -0.5174   -1.2620 H   0  0  0  0  0  0  0  0  0  0  0  0
    6.3053    5.4750   -3.4514 H   0  0  0  0  0  0  0  0  0  0  0  0
    4.8507    5.4153   -2.7116 H   0  0  0  0  0  0  0  0  0  0  0  0
    6.1606    5.9492   -1.8955 H   0  0  0  0  0  0  0  0  0  0  0  0
    7.1920   -2.3323    2.3356 H   0  0  0  0  0  0  0  0  0  0  0  0
    5.7980   -1.7074    2.9127 H   0  0  0  0  0  0  0  0  0  0  0  0
    5.3800    1.9825    0.3067 H   0  0  0  0  0  0  0  0  0  0  0  0
    4.7054   -2.1057   -0.5876 H   0  0  0  0  0  0  0  0  0  0  0  0
    6.2907   -2.4777   -0.7106 H   0  0  0  0  0  0  0  0  0  0  0  0
    7.6446   -0.3977    1.1778 H   0  0  0  0  0  0  0  0  0  0  0  0
    6.3697    0.2919    1.9300 H   0  0  0  0  0  0  0  0  0  0  0  0
    5.1648    0.0793    0.3042 H   0  0  0  0  0  0  0  0  0  0  0  0
  1 13  1  0  0  0  0
  2 12  2  0  0  0  0
  3  6  1  0  0  0  0
  3  9  2  0  0  0  0
  4  8  1  0  0  0  0
  4 10  1  0  0  0  0
  5 14  1  0  0  0  0
  5 15  1  0  0  0  0
  6  7  1  0  0  0  0
  6 12  1  0  0  0  0
  8 11  1  0  0  0  0
  9 15  1  0  0  0  0
 10 14  1  0  0  0  0
 11 14  1  0  0  0  0
 12 13  1  0  0  0  0
 13 15  2  0  0  0  0
  4 16  1  0  0  0  0
  5 17  1  0  0  0  0
  7 18  1  0  0  0  0
  7 19  1  0  0  0  0
  7 20  1  0  0  0  0
  8 21  1  0  0  0  0
  8 22  1  0  0  0  0
  9 23  1  0  0  0  0
 10 24  1  0  0  0  0
 10 25  1  0  0  0  0
 11 26  1  0  0  0  0
 11 27  1  0  0  0  0
 14 28  1  0  0  0  0
M  END
> <pdb_id>
7LPK

> <uniprot_id>
Q12830

> <usmiles>
ClC=1C(=O)N(N=CC1N[C@H]2CNCC2)C

$$$$
YBV_B_3101
          07212404123D 1   1.00000     0.00000     0
            
 25 26  0  0  0  0            999 V2000
    8.0833    0.8284   -3.6361 Cl  0  0  0  0  0  0  0  0  0  0  0  0
    7.1357    3.6077   -4.2539 O   0  0  0  0  0  0  0  0  0  0  0  0
    5.1246    3.5242   -1.2325 N   0  0  0  0  0  0  0  0  0  0  0  0
    5.9036   -2.3797    1.0162 N   0  0  0  0  0  0  0  0  0  0  0  0
    6.6914    0.0001   -1.0389 N   0  0  0  0  0  0  0  0  0  0  0  0
    5.7310    4.0123   -2.4597 N   0  0  0  0  0  0  0  0  0  0  0  0
    5.4208    5.3376   -2.9404 C   0  0  0  0  0  0  0  0  0  0  0  0
    5.4347    2.1793   -0.7402 C   0  0  0  0  0  0  0  0  0  0  0  0
    5.3495   -1.9189   -0.2718 C   0  0  0  0  0  0  0  0  0  0  0  0
    6.6844   -1.1358    1.1095 C   0  0  0  0  0  0  0  0  0  0  0  0
    6.6618    3.1930   -3.2381 C   0  0  0  0  0  0  0  0  0  0  0  0
    6.9668    1.8391   -2.7371 C   0  0  0  0  0  0  0  0  0  0  0  0
    5.8768   -0.5729    0.0218 C   0  0  0  0  0  0  0  0  0  0  0  0
    6.3772    1.3299   -1.5146 C   0  0  0  0  0  0  0  0  0  0  0  0
    6.4590   -3.2087    0.9506 H   0  0  0  0  0  0  0  0  0  0  0  0
    7.4534   -0.5150   -1.4313 H   0  0  0  0  0  0  0  0  0  0  0  0
    5.9203    5.5096   -3.7895 H   0  0  0  0  0  0  0  0  0  0  0  0
    4.4381    5.4085   -3.1116 H   0  0  0  0  0  0  0  0  0  0  0  0
    5.6890    6.0127   -2.2532 H   0  0  0  0  0  0  0  0  0  0  0  0
    5.0190    1.8384    0.1030 H   0  0  0  0  0  0  0  0  0  0  0  0
    4.3526   -1.9675   -0.3334 H   0  0  0  0  0  0  0  0  0  0  0  0
    5.7548   -2.3550   -1.0753 H   0  0  0  0  0  0  0  0  0  0  0  0
    7.6541   -1.2415    0.8894 H   0  0  0  0  0  0  0  0  0  0  0  0
    6.5909   -0.6560    1.9818 H   0  0  0  0  0  0  0  0  0  0  0  0
    5.1713    0.0555    0.3495 H   0  0  0  0  0  0  0  0  0  0  0  0
  1 12  1  0  0  0  0
  2 11  2  0  0  0  0
  3  6  1  0  0  0  0
  3  8  2  0  0  0  0
  4  9  1  0  0  0  0
  4 10  1  0  0  0  0
  5 13  1  0  0  0  0
  5 14  1  0  0  0  0
  6  7  1  0  0  0  0
  6 11  1  0  0  0  0
  8 14  1  0  0  0  0
  9 13  1  0  0  0  0
 10 13  1  0  0  0  0
 11 12  1  0  0  0  0
 12 14  2  0  0  0  0
  4 15  1  0  0  0  0
  5 16  1  0  0  0  0
  7 17  1  0  0  0  0
  7 18  1  0  0  0  0
  7 19  1  0  0  0  0
  8 20  1  0  0  0  0
  9 21  1  0  0  0  0
  9 22  1  0  0  0  0
 10 23  1  0  0  0  0
 10 24  1  0  0  0  0
 13 25  1  0  0  0  0
M  END
> <pdb_id>
7LRO

> <uniprot_id>
Q12830

> <usmiles>
ClC=1C(=O)N(N=CC1NC2CNC2)C

$$$$
YBY_A_1
          07202412173D 1   1.00000     0.00000     0
            
 43 43  0  0  0  0            999 V2000
   24.5760   49.5590   43.6540 I   0  0  0  0  0  0  0  0  0  0  0  0
   12.9140   46.7320   39.3920 O   0  0  0  0  0  0  0  0  0  0  0  0
   13.6530   48.5760   40.4120 O   0  0  0  0  0  0  0  0  0  0  0  0
   18.2340   43.4600   42.3330 O   0  0  0  0  0  0  0  0  0  0  0  0
   17.7830   45.3780   40.1410 O   0  0  0  0  0  0  0  0  0  0  0  0
   16.7740   43.7070   39.1590 O   0  0  0  0  0  0  0  0  0  0  0  0
   19.5510   46.7840   45.6430 O   0  0  0  0  0  0  0  0  0  0  0  0
   20.5090   44.9200   46.3870 O   0  0  0  0  0  0  0  0  0  0  0  0
   25.8970   46.8270   45.0130 O   0  0  0  0  0  0  0  0  0  0  0  0
   16.5800   44.9500   42.4410 N   0  0  0  0  0  0  0  0  0  0  0  0
   18.4710   45.3440   43.6440 N   0  0  0  0  0  0  0  0  0  0  0  0
   14.8230   46.5510   40.8400 C   0  0  0  0  0  0  0  0  0  0  0  0
   24.1490   45.2570   44.6440 C   0  0  0  0  0  0  0  0  0  0  0  0
   22.8670   44.9620   44.1470 C   0  0  0  0  0  0  0  0  0  0  0  0
   14.6180   45.0170   40.9100 C   0  0  0  0  0  0  0  0  0  0  0  0
   22.6010   47.2390   43.4270 C   0  0  0  0  0  0  0  0  0  0  0  0
   20.7040   45.6460   43.0500 C   0  0  0  0  0  0  0  0  0  0  0  0
   13.6940   47.3310   40.1690 C   0  0  0  0  0  0  0  0  0  0  0  0
   17.8270   44.5400   42.7970 C   0  0  0  0  0  0  0  0  0  0  0  0
   16.8580   44.4880   40.1630 C   0  0  0  0  0  0  0  0  0  0  0  0
   20.0030   45.6210   45.4870 C   0  0  0  0  0  0  0  0  0  0  0  0
   23.8790   47.5590   43.8950 C   0  0  0  0  0  0  0  0  0  0  0  0
   24.6430   46.5490   44.5110 C   0  0  0  0  0  0  0  0  0  0  0  0
   22.0970   45.9470   43.5620 C   0  0  0  0  0  0  0  0  0  0  0  0
   15.9050   44.2590   41.3530 C   0  0  1  0  0  0  0  0  0  0  0  0
   19.8060   44.9950   44.1330 C   0  0  1  0  0  0  0  0  0  0  0  0
   13.0082   45.7465   39.2506 H   0  0  0  0  0  0  0  0  0  0  0  0
   17.8854   46.0118   40.9077 H   0  0  0  0  0  0  0  0  0  0  0  0
   19.1610   47.2773   44.8655 H   0  0  0  0  0  0  0  0  0  0  0  0
   26.2756   47.7488   44.9302 H   0  0  0  0  0  0  0  0  0  0  0  0
   16.1368   45.7098   42.9167 H   0  0  0  0  0  0  0  0  0  0  0  0
   18.0382   46.1928   43.9478 H   0  0  0  0  0  0  0  0  0  0  0  0
   15.6653   46.7271   40.3306 H   0  0  0  0  0  0  0  0  0  0  0  0
   14.9212   46.8924   41.7748 H   0  0  0  0  0  0  0  0  0  0  0  0
   24.6971   44.5474   45.0867 H   0  0  0  0  0  0  0  0  0  0  0  0
   22.5101   44.0306   44.2180 H   0  0  0  0  0  0  0  0  0  0  0  0
   14.3486   44.6884   40.0047 H   0  0  0  0  0  0  0  0  0  0  0  0
   13.8893   44.8211   41.5662 H   0  0  0  0  0  0  0  0  0  0  0  0
   22.0428   47.9448   42.9908 H   0  0  0  0  0  0  0  0  0  0  0  0
   20.7753   45.0205   42.2731 H   0  0  0  0  0  0  0  0  0  0  0  0
   20.2795   46.5009   42.7518 H   0  0  0  0  0  0  0  0  0  0  0  0
   15.7431   43.2910   41.5445 H   0  0  0  0  0  0  0  0  0  0  0  0
   19.9349   44.0039   44.1667 H   0  0  0  0  0  0  0  0  0  0  0  0
  1 22  1  0  0  0  0
  2 18  1  0  0  0  0
  3 18  2  0  0  0  0
  4 19  2  0  0  0  0
  5 20  1  0  0  0  0
  6 20  2  0  0  0  0
  7 21  1  0  0  0  0
  8 21  2  0  0  0  0
  9 23  1  0  0  0  0
 10 19  1  0  0  0  0
 10 25  1  0  0  0  0
 11 19  1  0  0  0  0
 11 26  1  0  0  0  0
 12 15  1  0  0  0  0
 12 18  1  0  0  0  0
 13 14  1  0  0  0  0
 13 23  2  0  0  0  0
 14 24  2  0  0  0  0
 15 25  1  0  0  0  0
 16 22  2  0  0  0  0
 16 24  1  0  0  0  0
 17 24  1  0  0  0  0
 17 26  1  0  0  0  0
 20 25  1  0  0  0  0
 21 26  1  0  0  0  0
 22 23  1  0  0  0  0
  2 27  1  0  0  0  0
  5 28  1  0  0  0  0
  7 29  1  0  0  0  0
  9 30  1  0  0  0  0
 10 31  1  0  0  0  0
 11 32  1  0  0  0  0
 12 33  1  0  0  0  0
 12 34  1  0  0  0  0
 13 35  1  0  0  0  0
 14 36  1  0  0  0  0
 15 37  1  0  0  0  0
 15 38  1  0  0  0  0
 16 39  1  0  0  0  0
 17 40  1  0  0  0  0
 17 41  1  0  0  0  0
 25 42  1  0  0  0  0
 26 43  1  0  0  0  0
M  END
> <pdb_id>
3D7F

> <uniprot_id>
Q04609

> <usmiles>
Ic1c(O)ccc(c1)C[C@H](NC(=O)N[C@H](C(=O)O)CCC(=O)O)C(=O)O

$$$$
YC4_A_3101
          07212404123D 1   1.00000     0.00000     0
            
 28 29  0  0  0  0            999 V2000
    8.1576    0.7859   -3.5403 Cl  0  0  0  0  0  0  0  0  0  0  0  0
    7.3709    3.6456   -4.0039 O   0  0  0  0  0  0  0  0  0  0  0  0
    5.5252    3.6059   -0.9602 N   0  0  0  0  0  0  0  0  0  0  0  0
    6.3024   -1.9757    2.0418 N   0  0  0  0  0  0  0  0  0  0  0  0
    6.8232    0.0157   -0.9775 N   0  0  0  0  0  0  0  0  0  0  0  0
    6.0941    4.0810   -2.1590 N   0  0  0  0  0  0  0  0  0  0  0  0
    5.8162    5.4663   -2.5383 C   0  0  0  0  0  0  0  0  0  0  0  0
    5.4514   -2.6331    1.2394 C   0  0  0  0  0  0  0  0  0  0  0  0
    5.7730    2.2021   -0.5323 C   0  0  0  0  0  0  0  0  0  0  0  0
    6.7598   -0.6039    1.2781 C   0  0  0  0  0  0  0  0  0  0  0  0
    5.5872   -1.9937   -0.1764 C   0  0  0  0  0  0  0  0  0  0  0  0
    6.9394    3.2449   -3.0341 C   0  0  0  0  0  0  0  0  0  0  0  0
    7.1663    1.8587   -2.5912 C   0  0  0  0  0  0  0  0  0  0  0  0
    5.9870   -0.5330    0.1835 C   0  0  2  0  0  0  0  0  0  0  0  0
    6.5952    1.3575   -1.3780 C   0  0  0  0  0  0  0  0  0  0  0  0
    7.1037   -2.5450    2.2256 H   0  0  0  0  0  0  0  0  0  0  0  0
    7.5061   -0.5524   -1.4369 H   0  0  0  0  0  0  0  0  0  0  0  0
    6.2759    5.6741   -3.4017 H   0  0  0  0  0  0  0  0  0  0  0  0
    4.8300    5.5905   -2.6473 H   0  0  0  0  0  0  0  0  0  0  0  0
    6.1528    6.0811   -1.8250 H   0  0  0  0  0  0  0  0  0  0  0  0
    4.5145   -2.5328    1.5745 H   0  0  0  0  0  0  0  0  0  0  0  0
    5.6907   -3.6034    1.2040 H   0  0  0  0  0  0  0  0  0  0  0  0
    5.3820    1.8495    0.3179 H   0  0  0  0  0  0  0  0  0  0  0  0
    7.7255   -0.6506    1.0226 H   0  0  0  0  0  0  0  0  0  0  0  0
    6.6085    0.1910    1.8656 H   0  0  0  0  0  0  0  0  0  0  0  0
    4.7214   -2.0235   -0.6759 H   0  0  0  0  0  0  0  0  0  0  0  0
    6.2984   -2.4455   -0.7151 H   0  0  0  0  0  0  0  0  0  0  0  0
    5.1792    0.0334    0.3469 H   0  0  0  0  0  0  0  0  0  0  0  0
  1 13  1  0  0  0  0
  2 12  2  0  0  0  0
  3  6  1  0  0  0  0
  3  9  2  0  0  0  0
  4  8  1  0  0  0  0
  4 10  1  0  0  0  0
  5 14  1  0  0  0  0
  5 15  1  0  0  0  0
  6  7  1  0  0  0  0
  6 12  1  0  0  0  0
  8 11  1  0  0  0  0
  9 15  1  0  0  0  0
 10 14  1  0  0  0  0
 11 14  1  0  0  0  0
 12 13  1  0  0  0  0
 13 15  2  0  0  0  0
  4 16  1  0  0  0  0
  5 17  1  0  0  0  0
  7 18  1  0  0  0  0
  7 19  1  0  0  0  0
  7 20  1  0  0  0  0
  8 21  1  0  0  0  0
  8 22  1  0  0  0  0
  9 23  1  0  0  0  0
 10 24  1  0  0  0  0
 10 25  1  0  0  0  0
 11 26  1  0  0  0  0
 11 27  1  0  0  0  0
 14 28  1  0  0  0  0
M  END
> <pdb_id>
7LRK

> <uniprot_id>
Q12830

> <usmiles>
ClC=1C(=O)N(N=CC1N[C@@H]2CNCC2)C

$$$$
YC4_B_3101
          07212404123D 1   1.00000     0.00000     0
            
 26 27  0  0  0  0            999 V2000
    8.0500    0.8319   -3.6443 Cl  0  0  0  0  0  0  0  0  0  0  0  0
    7.1020    3.6012   -4.2148 O   0  0  0  0  0  0  0  0  0  0  0  0
    5.2008    3.5532   -1.2141 N   0  0  0  0  0  0  0  0  0  0  0  0
    6.2205   -1.9224    2.0467 N   0  0  0  0  0  0  0  0  0  0  0  0
    6.7606    0.0400   -1.0756 N   0  0  0  0  0  0  0  0  0  0  0  0
    5.7565    4.0239   -2.4236 N   0  0  0  0  0  0  0  0  0  0  0  0
    5.4064    5.3712   -2.8619 C   0  0  0  0  0  0  0  0  0  0  0  0
    5.5583   -2.7024    1.1854 C   0  0  0  0  0  0  0  0  0  0  0  0
    5.5238    2.1848   -0.7171 C   0  0  0  0  0  0  0  0  0  0  0  0
    6.8794   -0.7156    1.1647 C   0  0  0  0  0  0  0  0  0  0  0  0
    5.4822   -1.9534   -0.1829 C   0  0  0  0  0  0  0  0  0  0  0  0
    6.6700    3.2070   -3.2452 C   0  0  0  0  0  0  0  0  0  0  0  0
    6.9772    1.8620   -2.7389 C   0  0  0  0  0  0  0  0  0  0  0  0
    6.0237   -0.5313    0.1557 C   0  0  2  0  0  0  0  0  0  0  0  0
    6.4302    1.3598   -1.5116 C   0  0  0  0  0  0  0  0  0  0  0  0
    7.4517   -0.5003   -1.5555 H   0  0  0  0  0  0  0  0  0  0  0  0
    5.8677    5.5710   -3.7264 H   0  0  0  0  0  0  0  0  0  0  0  0
    4.4166    5.4334   -2.9901 H   0  0  0  0  0  0  0  0  0  0  0  0
    5.6951    6.0326   -2.1695 H   0  0  0  0  0  0  0  0  0  0  0  0
    5.1787   -3.6062    1.3828 H   0  0  0  0  0  0  0  0  0  0  0  0
    5.1308    1.8417    0.1360 H   0  0  0  0  0  0  0  0  0  0  0  0
    7.7799   -0.9810    0.8201 H   0  0  0  0  0  0  0  0  0  0  0  0
    6.9641    0.1167    1.7125 H   0  0  0  0  0  0  0  0  0  0  0  0
    4.5399   -1.9082   -0.5146 H   0  0  0  0  0  0  0  0  0  0  0  0
    6.0558   -2.4011   -0.8688 H   0  0  0  0  0  0  0  0  0  0  0  0
    5.2772    0.0738    0.4324 H   0  0  0  0  0  0  0  0  0  0  0  0
  1 13  1  0  0  0  0
  2 12  2  0  0  0  0
  3  6  1  0  0  0  0
  3  9  2  0  0  0  0
  4  8  2  0  0  0  0
  4 10  1  0  0  0  0
  5 14  1  0  0  0  0
  5 15  1  0  0  0  0
  6  7  1  0  0  0  0
  6 12  1  0  0  0  0
  8 11  1  0  0  0  0
  9 15  1  0  0  0  0
 10 14  1  0  0  0  0
 11 14  1  0  0  0  0
 12 13  1  0  0  0  0
 13 15  2  0  0  0  0
  5 16  1  0  0  0  0
  7 17  1  0  0  0  0
  7 18  1  0  0  0  0
  7 19  1  0  0  0  0
  8 20  1  0  0  0  0
  9 21  1  0  0  0  0
 10 22  1  0  0  0  0
 10 23  1  0  0  0  0
 11 24  1  0  0  0  0
 11 25  1  0  0  0  0
 14 26  1  0  0  0  0
M  END
> <pdb_id>
7LRK

> <uniprot_id>
Q12830

> <usmiles>
ClC=1C(=O)N(N=CC1N[C@@H]2CN=CC2)C

$$$$
YC8_B_1
          07202410113D 1   1.00000     0.00000     0
            
 37 38  0  0  0  0            999 V2000
   83.8660   38.0530   21.2100 O   0  0  0  0  0  0  0  0  0  0  0  0
   82.8270   37.6670   23.1640 O   0  0  0  0  0  0  0  0  0  0  0  0
   82.0910   41.6400   18.3220 O   0  0  0  0  0  0  0  0  0  0  0  0
   81.5760   42.4370   22.2700 N   0  0  0  0  0  0  0  0  0  0  0  0
   82.6030   39.9210   19.7030 N   0  0  0  0  0  0  0  0  0  0  0  0
   81.8480   41.7390   23.3820 C   0  0  0  0  0  0  0  0  0  0  0  0
   81.8180   41.8470   21.0850 C   0  0  0  0  0  0  0  0  0  0  0  0
   87.8990   41.6730   13.5710 C   0  0  0  0  0  0  0  0  0  0  0  0
   88.1800   40.7310   14.5550 C   0  0  0  0  0  0  0  0  0  0  0  0
   86.5790   41.9170   13.2050 C   0  0  0  0  0  0  0  0  0  0  0  0
   84.1080   40.3740   16.6120 C   0  0  0  0  0  0  0  0  0  0  0  0
   82.3590   40.4480   23.3770 C   0  0  0  0  0  0  0  0  0  0  0  0
   82.9500   39.6700   17.3160 C   0  0  0  0  0  0  0  0  0  0  0  0
   87.1430   40.0370   15.1760 C   0  0  0  0  0  0  0  0  0  0  0  0
   85.5400   41.2220   13.8240 C   0  0  0  0  0  0  0  0  0  0  0  0
   84.6950   39.5270   15.4850 C   0  0  0  0  0  0  0  0  0  0  0  0
   83.1620   38.4330   22.1330 C   0  0  0  0  0  0  0  0  0  0  0  0
   82.4990   40.5060   18.4980 C   0  0  0  0  0  0  0  0  0  0  0  0
   82.3260   40.5440   20.9620 C   0  0  0  0  0  0  0  0  0  0  0  0
   85.8210   40.2800   14.8120 C   0  0  0  0  0  0  0  0  0  0  0  0
   82.6100   39.8310   22.1580 C   0  0  0  0  0  0  0  0  0  0  0  0
   84.0853   38.6760   20.4591 H   0  0  0  0  0  0  0  0  0  0  0  0
   82.9001   38.9663   19.7223 H   0  0  0  0  0  0  0  0  0  0  0  0
   81.6728   42.1731   24.2656 H   0  0  0  0  0  0  0  0  0  0  0  0
   81.6263   42.3627   20.2499 H   0  0  0  0  0  0  0  0  0  0  0  0
   88.6431   42.1732   13.1281 H   0  0  0  0  0  0  0  0  0  0  0  0
   89.1281   40.5513   14.8175 H   0  0  0  0  0  0  0  0  0  0  0  0
   86.3746   42.5923   12.4964 H   0  0  0  0  0  0  0  0  0  0  0  0
   84.8263   40.5619   17.2819 H   0  0  0  0  0  0  0  0  0  0  0  0
   83.7762   41.2358   16.2284 H   0  0  0  0  0  0  0  0  0  0  0  0
   82.5432   39.9706   24.2362 H   0  0  0  0  0  0  0  0  0  0  0  0
   83.2508   38.7721   17.6374 H   0  0  0  0  0  0  0  0  0  0  0  0
   82.1893   39.5576   16.6768 H   0  0  0  0  0  0  0  0  0  0  0  0
   87.3489   39.3626   15.8850 H   0  0  0  0  0  0  0  0  0  0  0  0
   84.5924   41.3998   13.5586 H   0  0  0  0  0  0  0  0  0  0  0  0
   83.9814   39.3271   14.8136 H   0  0  0  0  0  0  0  0  0  0  0  0
   85.0472   38.6705   15.8622 H   0  0  0  0  0  0  0  0  0  0  0  0
  1 17  1  0  0  0  0
  2 17  2  0  0  0  0
  3 18  2  0  0  0  0
  4  6  2  0  0  0  0
  4  7  1  0  0  0  0
  5 18  1  0  0  0  0
  5 19  1  0  0  0  0
  6 12  1  0  0  0  0
  7 19  2  0  0  0  0
  8  9  2  0  0  0  0
  8 10  1  0  0  0  0
  9 14  1  0  0  0  0
 10 15  2  0  0  0  0
 11 13  1  0  0  0  0
 11 16  1  0  0  0  0
 12 21  2  0  0  0  0
 13 18  1  0  0  0  0
 14 20  2  0  0  0  0
 15 20  1  0  0  0  0
 16 20  1  0  0  0  0
 17 21  1  0  0  0  0
 19 21  1  0  0  0  0
  1 22  1  0  0  0  0
  5 23  1  0  0  0  0
  6 24  1  0  0  0  0
  7 25  1  0  0  0  0
  8 26  1  0  0  0  0
  9 27  1  0  0  0  0
 10 28  1  0  0  0  0
 11 29  1  0  0  0  0
 11 30  1  0  0  0  0
 12 31  1  0  0  0  0
 13 32  1  0  0  0  0
 13 33  1  0  0  0  0
 14 34  1  0  0  0  0
 15 35  1  0  0  0  0
 16 36  1  0  0  0  0
 16 37  1  0  0  0  0
M  END
> <pdb_id>
5FP3

> <uniprot_id>
O15054

> <usmiles>
O=C(O)c1c(NC(=O)CCCc2ccccc2)cncc1

$$$$
YCF_A_600
          07202400203D 1   1.00000     0.00000     0
            
 56 57  0  0  0  0            999 V2000
   47.2400   24.6030  -14.0670 O   0  0  0  0  0  0  0  0  0  0  0  0
   45.5150   13.7630    2.7930 O   0  0  0  0  0  0  0  0  0  0  0  0
   47.4500   14.6570   -7.7720 O   0  0  0  0  0  0  0  0  0  0  0  0
   46.7270   22.9070  -12.1180 N   0  0  0  0  0  0  0  0  0  0  0  0
   46.8500   11.4740    2.8180 N   0  0  0  0  0  0  0  0  0  0  0  0
   47.3660   23.2680  -14.2880 N   0  0  0  0  0  0  0  0  0  0  0  0
   45.9740   13.2180    1.6260 N   0  0  0  0  0  0  0  0  0  0  0  0
   47.2310   21.1070  -13.5160 N   0  0  0  0  0  0  0  0  0  0  0  0
   47.0560   11.5380    0.4830 N   0  0  0  0  0  0  0  0  0  0  0  0
   46.9940   20.3110  -12.6010 N   0  0  0  0  0  0  0  0  0  0  0  0
   46.8190   12.1420   -0.5790 N   0  0  0  0  0  0  0  0  0  0  0  0
   45.9050   16.3120   -7.9750 N   0  0  0  0  0  0  0  0  0  0  0  0
   45.8540   14.9470   -6.1840 N   0  0  0  0  0  0  0  0  0  0  0  0
   47.5420   18.3330  -14.0280 C   0  0  0  0  0  0  0  0  0  0  0  0
   48.0540   10.4470   -1.9400 C   0  0  0  0  0  0  0  0  0  0  0  0
   45.7340   18.1680   -9.3780 C   0  0  0  0  0  0  0  0  0  0  0  0
   47.0280   16.2890  -10.1510 C   0  0  0  0  0  0  0  0  0  0  0  0
   45.4700   14.1360   -4.0170 C   0  0  0  0  0  0  0  0  0  0  0  0
   47.3700   13.2740   -5.2140 C   0  0  0  0  0  0  0  0  0  0  0  0
   46.0110   18.8340  -10.5680 C   0  0  0  0  0  0  0  0  0  0  0  0
   47.3190   16.9690  -11.3500 C   0  0  0  0  0  0  0  0  0  0  0  0
   45.7780   13.3420   -2.9150 C   0  0  0  0  0  0  0  0  0  0  0  0
   47.6910   12.4740   -4.1020 C   0  0  0  0  0  0  0  0  0  0  0  0
   46.4870   15.2830   -7.3270 C   0  0  0  0  0  0  0  0  0  0  0  0
   47.1110   22.4230  -13.3010 C   0  0  0  0  0  0  0  0  0  0  0  0
   46.6480   12.0810    1.6420 C   0  0  0  0  0  0  0  0  0  0  0  0
   47.0690   18.9820  -12.7220 C   0  0  0  0  0  0  0  0  0  0  0  0
   47.2040   11.7190   -1.8050 C   0  0  0  0  0  0  0  0  0  0  0  0
   46.2350   16.8830   -9.1600 C   0  0  0  0  0  0  0  0  0  0  0  0
   46.2410   14.1060   -5.1900 C   0  0  0  0  0  0  0  0  0  0  0  0
   46.7960   18.2410  -11.5650 C   0  0  0  0  0  0  0  0  0  0  0  0
   46.8970   12.5000   -2.9360 C   0  0  0  0  0  0  0  0  0  0  0  0
   47.4296   25.2519  -14.8039 H   0  0  0  0  0  0  0  0  0  0  0  0
   45.0055   14.6233    2.7767 H   0  0  0  0  0  0  0  0  0  0  0  0
   46.5305   22.2824  -11.3622 H   0  0  0  0  0  0  0  0  0  0  0  0
   46.6357   23.8942  -11.9874 H   0  0  0  0  0  0  0  0  0  0  0  0
   47.3570   10.6129    2.8556 H   0  0  0  0  0  0  0  0  0  0  0  0
   46.4939   11.8817    3.6588 H   0  0  0  0  0  0  0  0  0  0  0  0
   47.5116   20.7692  -14.4144 H   0  0  0  0  0  0  0  0  0  0  0  0
   47.5416   10.6639    0.4737 H   0  0  0  0  0  0  0  0  0  0  0  0
   45.1135   16.7133   -7.5140 H   0  0  0  0  0  0  0  0  0  0  0  0
   44.9646   15.3835   -6.0478 H   0  0  0  0  0  0  0  0  0  0  0  0
   47.5317   17.3380  -13.9286 H   0  0  0  0  0  0  0  0  0  0  0  0
   46.9310   18.5999  -14.7732 H   0  0  0  0  0  0  0  0  0  0  0  0
   48.4719   18.6378  -14.2340 H   0  0  0  0  0  0  0  0  0  0  0  0
   48.2493   10.2776   -2.9060 H   0  0  0  0  0  0  0  0  0  0  0  0
   48.9130   10.5657   -1.4420 H   0  0  0  0  0  0  0  0  0  0  0  0
   47.5531    9.6695   -1.5599 H   0  0  0  0  0  0  0  0  0  0  0  0
   45.1747   18.6108   -8.6772 H   0  0  0  0  0  0  0  0  0  0  0  0
   47.3925   15.3693  -10.0050 H   0  0  0  0  0  0  0  0  0  0  0  0
   44.6777   14.7444   -3.9715 H   0  0  0  0  0  0  0  0  0  0  0  0
   47.9511   13.2493   -6.0275 H   0  0  0  0  0  0  0  0  0  0  0  0
   45.6431   19.7523  -10.7140 H   0  0  0  0  0  0  0  0  0  0  0  0
   47.8983   16.5401  -12.0431 H   0  0  0  0  0  0  0  0  0  0  0  0
   45.1958   13.3733   -2.1026 H   0  0  0  0  0  0  0  0  0  0  0  0
   48.4935   11.8784   -4.1386 H   0  0  0  0  0  0  0  0  0  0  0  0
  1  6  1  0  0  0  0
  2  7  1  0  0  0  0
  3 24  2  0  0  0  0
  4 25  1  0  0  0  0
  5 26  1  0  0  0  0
  6 25  2  0  0  0  0
  7 26  2  0  0  0  0
  8 10  1  0  0  0  0
  8 25  1  0  0  0  0
  9 11  1  0  0  0  0
  9 26  1  0  0  0  0
 10 27  2  0  0  0  0
 11 28  2  0  0  0  0
 12 24  1  0  0  0  0
 12 29  1  0  0  0  0
 13 24  1  0  0  0  0
 13 30  1  0  0  0  0
 14 27  1  0  0  0  0
 15 28  1  0  0  0  0
 16 20  1  0  0  0  0
 16 29  2  0  0  0  0
 17 21  2  0  0  0  0
 17 29  1  0  0  0  0
 18 22  1  0  0  0  0
 18 30  2  0  0  0  0
 19 23  2  0  0  0  0
 19 30  1  0  0  0  0
 20 31  2  0  0  0  0
 21 31  1  0  0  0  0
 22 32  2  0  0  0  0
 23 32  1  0  0  0  0
 27 31  1  0  0  0  0
 28 32  1  0  0  0  0
  1 33  1  0  0  0  0
  2 34  1  0  0  0  0
  4 35  1  0  0  0  0
  4 36  1  0  0  0  0
  5 37  1  0  0  0  0
  5 38  1  0  0  0  0
  8 39  1  0  0  0  0
  9 40  1  0  0  0  0
 12 41  1  0  0  0  0
 13 42  1  0  0  0  0
 14 43  1  0  0  0  0
 14 44  1  0  0  0  0
 14 45  1  0  0  0  0
 15 46  1  0  0  0  0
 15 47  1  0  0  0  0
 15 48  1  0  0  0  0
 16 49  1  0  0  0  0
 17 50  1  0  0  0  0
 18 51  1  0  0  0  0
 19 52  1  0  0  0  0
 20 53  1  0  0  0  0
 21 54  1  0  0  0  0
 22 55  1  0  0  0  0
 23 56  1  0  0  0  0
M  END
> <pdb_id>
2YCF

> <uniprot_id>
O96017

> <usmiles>
O=C(Nc1ccc(cc1)C(=NNC(=NO)N)C)Nc2ccc(cc2)C(=NNC(=NO)N)C

$$$$
YDI_A_1282
          07202402503D 1   1.00000     0.00000     0
            
 44 45  0  0  0  0            999 V2000
    2.6722    8.7651   19.8416 S   0  0  0  0  0  0  0  0  0  0  0  0
    4.8260   10.4207   20.1190 O   0  0  0  0  0  0  0  0  0  0  0  0
    5.5870    6.3487   17.3576 O   0  0  0  0  0  0  0  0  0  0  0  0
   -3.8238    7.8013   21.0342 O   0  0  0  0  0  0  0  0  0  0  0  0
    6.8125   10.2069   19.0171 N   0  0  0  0  0  0  0  0  0  0  0  0
    3.7759    5.0126   16.8761 N   0  0  0  0  0  0  0  0  0  0  0  0
    5.2490    8.5313   18.8804 N   0  0  0  0  0  0  0  0  0  0  0  0
   -6.0970    9.1374   20.4854 N   0  0  0  0  0  0  0  0  0  0  0  0
   -7.3094    8.3144   20.2974 C   0  0  0  0  0  0  0  0  0  0  0  0
   -6.2819   10.5201   19.9819 C   0  0  0  0  0  0  0  0  0  0  0  0
   -4.1115    8.9399   21.8316 C   0  0  0  0  0  0  0  0  0  0  0  0
   -5.6133    9.1084   21.8881 C   0  0  0  0  0  0  0  0  0  0  0  0
   -1.5908    8.7921   21.0940 C   0  0  0  0  0  0  0  0  0  0  0  0
   -2.0663    6.7761   19.8825 C   0  0  0  0  0  0  0  0  0  0  0  0
   -0.2723    8.6992   20.6821 C   0  0  0  0  0  0  0  0  0  0  0  0
   -0.7538    6.7043   19.4777 C   0  0  0  0  0  0  0  0  0  0  0  0
    2.1385    6.6320   18.5896 C   0  0  0  0  0  0  0  0  0  0  0  0
    5.5726    9.7689   19.3923 C   0  0  0  0  0  0  0  0  0  0  0  0
    4.4027    6.0707   17.5013 C   0  0  0  0  0  0  0  0  0  0  0  0
    3.9524    8.0201   18.9481 C   0  0  0  0  0  0  0  0  0  0  0  0
    1.5282    7.5671   19.4090 C   0  0  0  0  0  0  0  0  0  0  0  0
   -2.4829    7.8175   20.6841 C   0  0  0  0  0  0  0  0  0  0  0  0
    0.1572    7.6599   19.8773 C   0  0  0  0  0  0  0  0  0  0  0  0
    3.5147    6.8663   18.3202 C   0  0  0  0  0  0  0  0  0  0  0  0
    7.3845    9.6406   18.4238 H   0  0  0  0  0  0  0  0  0  0  0  0
    7.1472   11.0936   19.3361 H   0  0  0  0  0  0  0  0  0  0  0  0
    2.8040    4.8410   17.0375 H   0  0  0  0  0  0  0  0  0  0  0  0
    4.2933    4.4172   16.2614 H   0  0  0  0  0  0  0  0  0  0  0  0
    5.9646    7.9831   18.4475 H   0  0  0  0  0  0  0  0  0  0  0  0
   -7.1443    7.3927   20.6485 H   0  0  0  0  0  0  0  0  0  0  0  0
   -8.0732    8.7280   20.7929 H   0  0  0  0  0  0  0  0  0  0  0  0
   -7.5313    8.2653   19.3236 H   0  0  0  0  0  0  0  0  0  0  0  0
   -5.4419   11.0428   20.1271 H   0  0  0  0  0  0  0  0  0  0  0  0
   -6.4933   10.4935   19.0048 H   0  0  0  0  0  0  0  0  0  0  0  0
   -7.0352   10.9562   20.4741 H   0  0  0  0  0  0  0  0  0  0  0  0
   -3.6946    9.7526   21.4246 H   0  0  0  0  0  0  0  0  0  0  0  0
   -3.7506    8.8069   22.7547 H   0  0  0  0  0  0  0  0  0  0  0  0
   -6.0272    8.3416   22.3788 H   0  0  0  0  0  0  0  0  0  0  0  0
   -5.8462    9.9643   22.3499 H   0  0  0  0  0  0  0  0  0  0  0  0
   -1.8919    9.5478   21.6755 H   0  0  0  0  0  0  0  0  0  0  0  0
   -2.7178    6.0737   19.5956 H   0  0  0  0  0  0  0  0  0  0  0  0
    0.3823    9.3974   20.9722 H   0  0  0  0  0  0  0  0  0  0  0  0
   -0.4573    5.9527   18.8884 H   0  0  0  0  0  0  0  0  0  0  0  0
    1.6457    5.8472   18.2139 H   0  0  0  0  0  0  0  0  0  0  0  0
  1 20  1  0  0  0  0
  1 21  1  0  0  0  0
  2 18  2  0  0  0  0
  3 19  2  0  0  0  0
  4 11  1  0  0  0  0
  4 22  1  0  0  0  0
  5 18  1  0  0  0  0
  6 19  1  0  0  0  0
  7 18  1  0  0  0  0
  7 20  1  0  0  0  0
  8  9  1  0  0  0  0
  8 10  1  0  0  0  0
  8 12  1  0  0  0  0
 11 12  1  0  0  0  0
 13 15  1  0  0  0  0
 13 22  2  0  0  0  0
 14 16  2  0  0  0  0
 14 22  1  0  0  0  0
 15 23  2  0  0  0  0
 16 23  1  0  0  0  0
 17 21  2  0  0  0  0
 17 24  1  0  0  0  0
 19 24  1  0  0  0  0
 20 24  2  0  0  0  0
 21 23  1  0  0  0  0
  5 25  1  0  0  0  0
  5 26  1  0  0  0  0
  6 27  1  0  0  0  0
  6 28  1  0  0  0  0
  7 29  1  0  0  0  0
  9 30  1  0  0  0  0
  9 31  1  0  0  0  0
  9 32  1  0  0  0  0
 10 33  1  0  0  0  0
 10 34  1  0  0  0  0
 10 35  1  0  0  0  0
 11 36  1  0  0  0  0
 11 37  1  0  0  0  0
 12 38  1  0  0  0  0
 12 39  1  0  0  0  0
 13 40  1  0  0  0  0
 14 41  1  0  0  0  0
 15 42  1  0  0  0  0
 16 43  1  0  0  0  0
 17 44  1  0  0  0  0
M  END
> <pdb_id>
2YDI

> <uniprot_id>
O14757

> <usmiles>
S1C(NC(=O)N)=C(C(=O)N)C=C1c2ccc(OCCN(C)C)cc2

$$$$
YDK_A_1277
          07202402503D 1   1.00000     0.00000     0
            
 44 46  0  0  0  0            999 V2000
    2.7729    9.0319   19.9923 S   0  0  0  0  0  0  0  0  0  0  0  0
    4.9095   10.4726   20.4715 O   0  0  0  0  0  0  0  0  0  0  0  0
    5.5870    6.6818   17.2789 O   0  0  0  0  0  0  0  0  0  0  0  0
    6.8418   10.4810   19.3114 N   0  0  0  0  0  0  0  0  0  0  0  0
    4.6543    5.0654   13.1422 N   0  0  0  0  0  0  0  0  0  0  0  0
    5.3128    8.7738   19.0222 N   0  0  0  0  0  0  0  0  0  0  0  0
    3.8511    5.3554   16.7692 N   0  0  0  0  0  0  0  0  0  0  0  0
    4.2764    3.6426   12.8864 C   0  0  0  0  0  0  0  0  0  0  0  0
    4.0592    5.6285   14.3867 C   0  0  0  0  0  0  0  0  0  0  0  0
    4.7769    2.8361   14.0724 C   0  0  0  0  0  0  0  0  0  0  0  0
   -2.3581    8.2143   20.8936 C   0  0  0  0  0  0  0  0  0  0  0  0
   -2.0171    7.1101   20.1409 C   0  0  0  0  0  0  0  0  0  0  0  0
   -1.4250    9.1917   21.1777 C   0  0  0  0  0  0  0  0  0  0  0  0
    4.1986    3.3401   15.3873 C   0  0  0  0  0  0  0  0  0  0  0  0
   -0.7161    7.0015   19.6724 C   0  0  0  0  0  0  0  0  0  0  0  0
   -0.1401    9.0613   20.7034 C   0  0  0  0  0  0  0  0  0  0  0  0
    2.1682    6.9672   18.5922 C   0  0  0  0  0  0  0  0  0  0  0  0
    5.6309    9.9436   19.6571 C   0  0  0  0  0  0  0  0  0  0  0  0
    4.0104    8.2727   19.0385 C   0  0  0  0  0  0  0  0  0  0  0  0
    4.4199    6.4004   17.4459 C   0  0  0  0  0  0  0  0  0  0  0  0
    1.6026    7.8726   19.4679 C   0  0  0  0  0  0  0  0  0  0  0  0
    4.4998    4.8281   15.5851 C   0  0  2  0  0  0  0  0  0  0  0  0
    0.2288    7.9672   19.9497 C   0  0  0  0  0  0  0  0  0  0  0  0
    3.5519    7.1743   18.3276 C   0  0  0  0  0  0  0  0  0  0  0  0
    7.4177   10.0220   18.6350 H   0  0  0  0  0  0  0  0  0  0  0  0
    7.1503   11.3325   19.7354 H   0  0  0  0  0  0  0  0  0  0  0  0
    4.3471    5.6178   12.3673 H   0  0  0  0  0  0  0  0  0  0  0  0
    6.0268    8.2687   18.5375 H   0  0  0  0  0  0  0  0  0  0  0  0
    2.9918    4.9574   17.0903 H   0  0  0  0  0  0  0  0  0  0  0  0
    4.7061    3.3183   12.0436 H   0  0  0  0  0  0  0  0  0  0  0  0
    3.2831    3.5589   12.8076 H   0  0  0  0  0  0  0  0  0  0  0  0
    3.0620    5.5985   14.3184 H   0  0  0  0  0  0  0  0  0  0  0  0
    4.3575    6.5767   14.4954 H   0  0  0  0  0  0  0  0  0  0  0  0
    5.7739    2.9031   14.1112 H   0  0  0  0  0  0  0  0  0  0  0  0
    4.5116    1.8800   13.9482 H   0  0  0  0  0  0  0  0  0  0  0  0
   -3.2923    8.3082   21.2377 H   0  0  0  0  0  0  0  0  0  0  0  0
   -2.6937    6.4026   19.9371 H   0  0  0  0  0  0  0  0  0  0  0  0
   -1.6813    9.9888   21.7244 H   0  0  0  0  0  0  0  0  0  0  0  0
    4.6015    2.8219   16.1417 H   0  0  0  0  0  0  0  0  0  0  0  0
    3.2078    3.2050   15.3818 H   0  0  0  0  0  0  0  0  0  0  0  0
   -0.4580    6.2072   19.1225 H   0  0  0  0  0  0  0  0  0  0  0  0
    0.5355    9.7696   20.9081 H   0  0  0  0  0  0  0  0  0  0  0  0
    1.6460    6.2230   18.1756 H   0  0  0  0  0  0  0  0  0  0  0  0
    5.4880    4.9382   15.6916 H   0  0  0  0  0  0  0  0  0  0  0  0
  1 19  1  0  0  0  0
  1 21  1  0  0  0  0
  2 18  2  0  0  0  0
  3 20  2  0  0  0  0
  4 18  1  0  0  0  0
  5  8  1  0  0  0  0
  5  9  1  0  0  0  0
  6 18  1  0  0  0  0
  6 19  1  0  0  0  0
  7 20  1  0  0  0  0
  7 22  1  0  0  0  0
  8 10  1  0  0  0  0
  9 22  1  0  0  0  0
 10 14  1  0  0  0  0
 11 12  2  0  0  0  0
 11 13  1  0  0  0  0
 12 15  1  0  0  0  0
 13 16  2  0  0  0  0
 14 22  1  0  0  0  0
 15 23  2  0  0  0  0
 16 23  1  0  0  0  0
 17 21  2  0  0  0  0
 17 24  1  0  0  0  0
 19 24  2  0  0  0  0
 20 24  1  0  0  0  0
 21 23  1  0  0  0  0
  4 25  1  0  0  0  0
  4 26  1  0  0  0  0
  5 27  1  0  0  0  0
  6 28  1  0  0  0  0
  7 29  1  0  0  0  0
  8 30  1  0  0  0  0
  8 31  1  0  0  0  0
  9 32  1  0  0  0  0
  9 33  1  0  0  0  0
 10 34  1  0  0  0  0
 10 35  1  0  0  0  0
 11 36  1  0  0  0  0
 12 37  1  0  0  0  0
 13 38  1  0  0  0  0
 14 39  1  0  0  0  0
 14 40  1  0  0  0  0
 15 41  1  0  0  0  0
 16 42  1  0  0  0  0
 17 43  1  0  0  0  0
 22 44  1  0  0  0  0
M  END
> <pdb_id>
2YDK

> <uniprot_id>
O14757

> <usmiles>
S1C(NC(=O)N)=C(C(=O)N[C@@H]2CNCCC2)C=C1c3ccccc3

$$$$
YE5_A_1201
          07192420223D 1   1.00000     0.00000     0
            
 39 41  0  0  0  0            999 V2000
    6.2095   14.0884    8.8622 O   0  0  0  0  0  0  0  0  0  0  0  0
   12.5172   14.4189    8.5215 O   0  0  0  0  0  0  0  0  0  0  0  0
   15.3179    9.1123    5.9713 N   0  0  0  0  0  0  0  0  0  0  0  0
   15.9396    8.5500    6.9274 N   0  0  0  0  0  0  0  0  0  0  0  0
   14.3486    9.8597    6.4752 N   0  0  0  0  0  0  0  0  0  0  0  0
   15.4146    8.9043    8.0564 N   0  0  0  0  0  0  0  0  0  0  0  0
   14.4176   15.5632    7.6297 C   0  0  0  0  0  0  0  0  0  0  0  0
    6.6798   11.7900    9.2486 C   0  0  0  0  0  0  0  0  0  0  0  0
   12.9064   15.6287    7.8600 C   0  0  0  0  0  0  0  0  0  0  0  0
   12.7230   10.3163   11.0004 C   0  0  0  0  0  0  0  0  0  0  0  0
   13.5719    9.8121   10.0212 C   0  0  0  0  0  0  0  0  0  0  0  0
   11.8448   11.3501   10.6830 C   0  0  0  0  0  0  0  0  0  0  0  0
   10.2032   15.1503    8.3925 C   0  0  0  0  0  0  0  0  0  0  0  0
    8.8528   14.8368    8.5503 C   0  0  0  0  0  0  0  0  0  0  0  0
   12.6792   11.3596    8.4204 C   0  0  0  0  0  0  0  0  0  0  0  0
    9.4826   12.6296    9.2405 C   0  0  0  0  0  0  0  0  0  0  0  0
    7.0943   13.2527    9.0769 C   0  0  0  0  0  0  0  0  0  0  0  0
   14.4138    9.7473    7.8026 C   0  0  0  0  0  0  0  0  0  0  0  0
   11.1842   14.1867    8.6560 C   0  0  0  0  0  0  0  0  0  0  0  0
    8.4687   13.5632    8.9727 C   0  0  0  0  0  0  0  0  0  0  0  0
   13.5781   10.3169    8.7201 C   0  0  0  0  0  0  0  0  0  0  0  0
   11.8034   11.8898    9.3893 C   0  0  0  0  0  0  0  0  0  0  0  0
   10.8515   12.9078    9.0952 C   0  0  0  0  0  0  0  0  0  0  0  0
   15.5267    9.0072    4.9991 H   0  0  0  0  0  0  0  0  0  0  0  0
   14.7208   16.3968    7.1678 H   0  0  0  0  0  0  0  0  0  0  0  0
   14.8856   15.4806    8.5095 H   0  0  0  0  0  0  0  0  0  0  0  0
   14.6340   14.7696    7.0611 H   0  0  0  0  0  0  0  0  0  0  0  0
    7.4919   11.2307    9.4152 H   0  0  0  0  0  0  0  0  0  0  0  0
    6.0547   11.7096   10.0250 H   0  0  0  0  0  0  0  0  0  0  0  0
    6.2219   11.4736    8.4178 H   0  0  0  0  0  0  0  0  0  0  0  0
   12.6824   16.4177    8.4322 H   0  0  0  0  0  0  0  0  0  0  0  0
   12.4308   15.7067    6.9838 H   0  0  0  0  0  0  0  0  0  0  0  0
   12.7428    9.9393   11.9264 H   0  0  0  0  0  0  0  0  0  0  0  0
   14.1957    9.0666   10.2560 H   0  0  0  0  0  0  0  0  0  0  0  0
   11.2351   11.7126   11.3879 H   0  0  0  0  0  0  0  0  0  0  0  0
   10.4710   16.0653    8.0906 H   0  0  0  0  0  0  0  0  0  0  0  0
    8.1562   15.5285    8.3596 H   0  0  0  0  0  0  0  0  0  0  0  0
   12.6621   11.7344    7.4935 H   0  0  0  0  0  0  0  0  0  0  0  0
    9.2157   11.7174    9.5514 H   0  0  0  0  0  0  0  0  0  0  0  0
  1 17  2  0  0  0  0
  2  9  1  0  0  0  0
  2 19  1  0  0  0  0
  3  4  1  0  0  0  0
  3  5  1  0  0  0  0
  4  6  2  0  0  0  0
  5 18  2  0  0  0  0
  6 18  1  0  0  0  0
  7  9  1  0  0  0  0
  8 17  1  0  0  0  0
 10 11  1  0  0  0  0
 10 12  2  0  0  0  0
 11 21  2  0  0  0  0
 12 22  1  0  0  0  0
 13 14  1  0  0  0  0
 13 19  2  0  0  0  0
 14 20  2  0  0  0  0
 15 21  1  0  0  0  0
 15 22  2  0  0  0  0
 16 20  1  0  0  0  0
 16 23  2  0  0  0  0
 17 20  1  0  0  0  0
 18 21  1  0  0  0  0
 19 23  1  0  0  0  0
 22 23  1  0  0  0  0
  3 24  1  0  0  0  0
  7 25  1  0  0  0  0
  7 26  1  0  0  0  0
  7 27  1  0  0  0  0
  8 28  1  0  0  0  0
  8 29  1  0  0  0  0
  8 30  1  0  0  0  0
  9 31  1  0  0  0  0
  9 32  1  0  0  0  0
 10 33  1  0  0  0  0
 11 34  1  0  0  0  0
 12 35  1  0  0  0  0
 13 36  1  0  0  0  0
 14 37  1  0  0  0  0
 15 38  1  0  0  0  0
 16 39  1  0  0  0  0
M  END
> <pdb_id>
5MPN

> <uniprot_id>
Q92793

> <usmiles>
O=C(c1cc(c(OCC)cc1)c2cc(ccc2)C=3N=NNN3)C

$$$$
YE6_A_265
          07192422123D 1   1.00000     0.00000     0
            
 25 26  0  0  0  0            999 V2000
   11.4559   -1.2940   -2.9234 Cl  0  0  0  0  0  0  0  0  0  0  0  0
    7.4068   -0.2422    2.7654 O   0  0  0  0  0  0  0  0  0  0  0  0
    8.7811    0.2454    0.1993 O   0  0  0  0  0  0  0  0  0  0  0  0
    8.9138   -0.2292    4.8997 N   0  0  0  0  0  0  0  0  0  0  0  0
    9.4243   -0.2056    3.7788 N   0  0  0  0  0  0  0  0  0  0  0  0
    8.9092    1.2222   -4.6843 C   0  0  0  0  0  0  0  0  0  0  0  0
    8.1757    1.7340   -3.6188 C   0  0  0  0  0  0  0  0  0  0  0  0
    9.9290    0.3093   -4.4427 C   0  0  0  0  0  0  0  0  0  0  0  0
    8.4709    1.3313   -2.3224 C   0  0  0  0  0  0  0  0  0  0  0  0
   10.5986   -0.5989    1.1218 C   0  0  0  0  0  0  0  0  0  0  0  0
   10.8362   -0.4288   -0.1760 C   0  0  0  0  0  0  0  0  0  0  0  0
   10.2242   -0.0984   -3.1453 C   0  0  0  0  0  0  0  0  0  0  0  0
    8.6340   -0.2191    2.7083 C   0  0  0  0  0  0  0  0  0  0  0  0
    9.3518   -0.1927    1.3583 C   0  0  0  0  0  0  0  0  0  0  0  0
    9.7467    0.0817   -0.7523 C   0  0  0  0  0  0  0  0  0  0  0  0
    9.4940    0.4177   -2.0776 C   0  0  0  0  0  0  0  0  0  0  0  0
    9.6333   -0.2146    5.5940 H   0  0  0  0  0  0  0  0  0  0  0  0
    8.3238    0.5700    5.0142 H   0  0  0  0  0  0  0  0  0  0  0  0
   10.4185   -0.1766    3.6748 H   0  0  0  0  0  0  0  0  0  0  0  0
    8.7037    1.5098   -5.6198 H   0  0  0  0  0  0  0  0  0  0  0  0
    7.4388    2.3892   -3.7854 H   0  0  0  0  0  0  0  0  0  0  0  0
   10.4560   -0.0583   -5.2089 H   0  0  0  0  0  0  0  0  0  0  0  0
    7.9437    1.7009   -1.5572 H   0  0  0  0  0  0  0  0  0  0  0  0
   11.2392   -0.9648    1.7969 H   0  0  0  0  0  0  0  0  0  0  0  0
   11.6924   -0.6481   -0.6438 H   0  0  0  0  0  0  0  0  0  0  0  0
  1 12  1  0  0  0  0
  2 13  2  0  0  0  0
  3 14  1  0  0  0  0
  3 15  1  0  0  0  0
  4  5  1  0  0  0  0
  5 13  1  0  0  0  0
  6  7  2  0  0  0  0
  6  8  1  0  0  0  0
  7  9  1  0  0  0  0
  8 12  2  0  0  0  0
  9 16  2  0  0  0  0
 10 11  1  0  0  0  0
 10 14  2  0  0  0  0
 11 15  2  0  0  0  0
 12 16  1  0  0  0  0
 13 14  1  0  0  0  0
 15 16  1  0  0  0  0
  4 17  1  0  0  0  0
  4 18  1  0  0  0  0
  5 19  1  0  0  0  0
  6 20  1  0  0  0  0
  7 21  1  0  0  0  0
  8 22  1  0  0  0  0
  9 23  1  0  0  0  0
 10 24  1  0  0  0  0
 11 25  1  0  0  0  0
M  END
> <pdb_id>
2P99

> <uniprot_id>
P0AE18

> <usmiles>
Clc1c(cccc1)C=2OC(C(=O)NN)=CC2

$$$$
YE7_A_266
          07192422123D 1   1.00000     0.00000     0
            
 27 29  0  0  0  0            999 V2000
    7.4394   -0.1210    3.0871 O   0  0  0  0  0  0  0  0  0  0  0  0
    9.4486   -1.3436    4.9218 N   0  0  0  0  0  0  0  0  0  0  0  0
    9.4702   -0.2860    4.0653 N   0  0  0  0  0  0  0  0  0  0  0  0
    8.7948    0.3106    0.5432 N   0  0  0  0  0  0  0  0  0  0  0  0
   10.7941   -0.4851    0.0931 N   0  0  0  0  0  0  0  0  0  0  0  0
   11.8830   -0.7929   -0.7315 C   0  0  0  0  0  0  0  0  0  0  0  0
   10.5592   -0.6758    1.3886 C   0  0  0  0  0  0  0  0  0  0  0  0
    9.5514    1.0913   -4.5087 C   0  0  0  0  0  0  0  0  0  0  0  0
    8.4680    1.4003   -3.6919 C   0  0  0  0  0  0  0  0  0  0  0  0
   11.8361   -0.4709   -2.0830 C   0  0  0  0  0  0  0  0  0  0  0  0
   10.6712    0.4687   -3.9687 C   0  0  0  0  0  0  0  0  0  0  0  0
    8.5074    1.0870   -2.3384 C   0  0  0  0  0  0  0  0  0  0  0  0
    8.6626   -0.2104    3.0107 C   0  0  0  0  0  0  0  0  0  0  0  0
    9.6665    0.1450   -0.4471 C   0  0  0  0  0  0  0  0  0  0  0  0
    9.3475   -0.1930    1.6446 C   0  0  0  0  0  0  0  0  0  0  0  0
   10.7129    0.1545   -2.6156 C   0  0  0  0  0  0  0  0  0  0  0  0
    9.6284    0.4635   -1.7991 C   0  0  0  0  0  0  0  0  0  0  0  0
   10.1293   -1.2040    5.6410 H   0  0  0  0  0  0  0  0  0  0  0  0
    8.5404   -1.4211    5.3330 H   0  0  0  0  0  0  0  0  0  0  0  0
   10.1148    0.4596    4.2344 H   0  0  0  0  0  0  0  0  0  0  0  0
   12.6907   -1.2423   -0.3499 H   0  0  0  0  0  0  0  0  0  0  0  0
   11.1789   -1.1027    2.0472 H   0  0  0  0  0  0  0  0  0  0  0  0
    9.5246    1.3167   -5.4826 H   0  0  0  0  0  0  0  0  0  0  0  0
    7.6615    1.8476   -4.0785 H   0  0  0  0  0  0  0  0  0  0  0  0
   12.6122   -0.6895   -2.6745 H   0  0  0  0  0  0  0  0  0  0  0  0
   11.4494    0.2463   -4.5561 H   0  0  0  0  0  0  0  0  0  0  0  0
    7.7291    1.3098   -1.7513 H   0  0  0  0  0  0  0  0  0  0  0  0
  1 13  2  0  0  0  0
  2  3  1  0  0  0  0
  3 13  1  0  0  0  0
  4 14  2  0  0  0  0
  4 15  1  0  0  0  0
  5  6  1  0  0  0  0
  5  7  1  0  0  0  0
  5 14  1  0  0  0  0
  6 10  2  0  0  0  0
  7 15  2  0  0  0  0
  8  9  2  0  0  0  0
  8 11  1  0  0  0  0
  9 12  1  0  0  0  0
 10 16  1  0  0  0  0
 11 16  2  0  0  0  0
 12 17  2  0  0  0  0
 13 15  1  0  0  0  0
 14 17  1  0  0  0  0
 16 17  1  0  0  0  0
  2 18  1  0  0  0  0
  2 19  1  0  0  0  0
  3 20  1  0  0  0  0
  6 21  1  0  0  0  0
  7 22  1  0  0  0  0
  8 23  1  0  0  0  0
  9 24  1  0  0  0  0
 10 25  1  0  0  0  0
 11 26  1  0  0  0  0
 12 27  1  0  0  0  0
M  END
> <pdb_id>
2P98

> <uniprot_id>
P0AE18

> <usmiles>
O=C(NN)C=1N=C2N(C1)C=Cc3c2cccc3

$$$$
YH1_A_302
          07202409463D 1   1.00000     0.00000     0
            
 32 34  0  0  0  0            999 V2000
   -7.4207   23.6323  -18.2065 S   0  0  0  0  0  0  0  0  0  0  0  0
   -9.4302   18.1668  -18.4008 O   0  0  0  0  0  0  0  0  0  0  0  0
  -10.3713   24.0986  -17.2174 O   0  0  0  0  0  0  0  0  0  0  0  0
  -12.3695   19.4929  -21.8246 N   0  0  0  0  0  0  0  0  0  0  0  0
  -10.8654   18.8950  -20.1060 N   0  0  0  0  0  0  0  0  0  0  0  0
   -9.3059   22.5813  -19.7905 N   0  0  0  0  0  0  0  0  0  0  0  0
   -8.4605   21.0827  -18.4029 N   0  0  0  0  0  0  0  0  0  0  0  0
  -10.9195   21.0973  -20.9217 N   0  0  0  0  0  0  0  0  0  0  0  0
   -8.4744   25.0888  -18.2492 C   0  0  0  0  0  0  0  0  0  0  0  0
  -12.2302   28.7135  -17.5445 C   0  0  0  0  0  0  0  0  0  0  0  0
  -12.8197   27.4835  -17.3036 C   0  0  0  0  0  0  0  0  0  0  0  0
  -10.8739   28.7872  -17.8228 C   0  0  0  0  0  0  0  0  0  0  0  0
  -12.0487   26.3262  -17.3480 C   0  0  0  0  0  0  0  0  0  0  0  0
  -10.1041   27.6278  -17.8602 C   0  0  0  0  0  0  0  0  0  0  0  0
   -8.4254   22.3548  -18.8161 C   0  0  0  0  0  0  0  0  0  0  0  0
  -11.3465   19.8449  -20.9239 C   0  0  0  0  0  0  0  0  0  0  0  0
   -9.9019   19.1456  -19.2223 C   0  0  0  0  0  0  0  0  0  0  0  0
   -9.8697   25.1210  -17.6647 C   0  0  0  0  0  0  0  0  0  0  0  0
   -9.9426   21.4097  -20.0322 C   0  0  0  0  0  0  0  0  0  0  0  0
   -9.4112   20.4681  -19.1753 C   0  0  0  0  0  0  0  0  0  0  0  0
  -10.6856   26.3868  -17.6243 C   0  0  0  0  0  0  0  0  0  0  0  0
  -12.7470   20.1798  -22.4457 H   0  0  0  0  0  0  0  0  0  0  0  0
  -12.7187   18.5561  -21.8434 H   0  0  0  0  0  0  0  0  0  0  0  0
  -11.2425   17.9706  -20.1625 H   0  0  0  0  0  0  0  0  0  0  0  0
   -9.4665   23.4518  -20.2557 H   0  0  0  0  0  0  0  0  0  0  0  0
   -8.5762   25.3256  -19.2154 H   0  0  0  0  0  0  0  0  0  0  0  0
   -7.9642   25.8104  -17.7811 H   0  0  0  0  0  0  0  0  0  0  0  0
  -12.7819   29.5471  -17.5177 H   0  0  0  0  0  0  0  0  0  0  0  0
  -13.7968   27.4275  -17.0983 H   0  0  0  0  0  0  0  0  0  0  0  0
  -10.4477   29.6749  -17.9970 H   0  0  0  0  0  0  0  0  0  0  0  0
  -12.4793   25.4396  -17.1792 H   0  0  0  0  0  0  0  0  0  0  0  0
   -9.1258   27.6879  -18.0582 H   0  0  0  0  0  0  0  0  0  0  0  0
  1  9  1  0  0  0  0
  1 15  1  0  0  0  0
  2 17  2  0  0  0  0
  3 18  2  0  0  0  0
  4 16  1  0  0  0  0
  5 16  1  0  0  0  0
  5 17  1  0  0  0  0
  6 15  1  0  0  0  0
  6 19  1  0  0  0  0
  7 15  2  0  0  0  0
  7 20  1  0  0  0  0
  8 16  2  0  0  0  0
  8 19  1  0  0  0  0
  9 18  1  0  0  0  0
 10 11  2  0  0  0  0
 10 12  1  0  0  0  0
 11 13  1  0  0  0  0
 12 14  2  0  0  0  0
 13 21  2  0  0  0  0
 14 21  1  0  0  0  0
 17 20  1  0  0  0  0
 18 21  1  0  0  0  0
 19 20  2  0  0  0  0
  4 22  1  0  0  0  0
  4 23  1  0  0  0  0
  5 24  1  0  0  0  0
  6 25  1  0  0  0  0
  9 26  1  0  0  0  0
  9 27  1  0  0  0  0
 10 28  1  0  0  0  0
 11 29  1  0  0  0  0
 12 30  1  0  0  0  0
 13 31  1  0  0  0  0
 14 32  1  0  0  0  0
M  END
> <pdb_id>
4M5G

> <uniprot_id>
P26281

> <usmiles>
S(C1=NC=2C(=O)NC(=NC2N1)N)CC(=O)c3ccccc3

$$$$
YH2_A_204
          07202409473D 1   1.00000     0.00000     0
            
 31 33  0  0  0  0            999 V2000
   29.9994    2.3695  -20.8915 S   0  0  0  0  0  0  0  0  0  0  0  0
   25.6483    4.3566  -24.2900 O   0  0  0  0  0  0  0  0  0  0  0  0
   33.4281    7.9198  -25.0472 N   0  0  0  0  0  0  0  0  0  0  0  0
   25.3500    8.0795  -21.5530 N   0  0  0  0  0  0  0  0  0  0  0  0
   28.5596    4.6908  -20.6600 N   0  0  0  0  0  0  0  0  0  0  0  0
   25.5288    6.1731  -22.9116 N   0  0  0  0  0  0  0  0  0  0  0  0
   27.9589    3.4444  -22.3994 N   0  0  0  0  0  0  0  0  0  0  0  0
   26.9720    6.4775  -21.0312 N   0  0  0  0  0  0  0  0  0  0  0  0
   31.5391    3.3161  -20.3111 C   0  0  0  0  0  0  0  0  0  0  0  0
   33.1855    7.1277  -24.2329 C   0  0  0  0  0  0  0  0  0  0  0  0
   32.8935    3.9442  -22.3648 C   0  0  0  0  0  0  0  0  0  0  0  0
   31.6296    5.6294  -21.2880 C   0  0  0  0  0  0  0  0  0  0  0  0
   33.2929    4.8662  -23.3166 C   0  0  0  0  0  0  0  0  0  0  0  0
   32.0080    6.5603  -22.2348 C   0  0  0  0  0  0  0  0  0  0  0  0
   28.7935    3.5714  -21.3151 C   0  0  0  0  0  0  0  0  0  0  0  0
   25.9767    6.8551  -21.8461 C   0  0  0  0  0  0  0  0  0  0  0  0
   26.1223    5.0126  -23.2085 C   0  0  0  0  0  0  0  0  0  0  0  0
   27.5436    5.3010  -21.3382 C   0  0  0  0  0  0  0  0  0  0  0  0
   27.1508    4.5491  -22.4179 C   0  0  0  0  0  0  0  0  0  0  0  0
   32.0444    4.3147  -21.3345 C   0  0  0  0  0  0  0  0  0  0  0  0
   32.8502    6.1717  -23.2481 C   0  0  0  0  0  0  0  0  0  0  0  0
   25.6520    8.6205  -20.7681 H   0  0  0  0  0  0  0  0  0  0  0  0
   24.6023    8.4090  -22.1295 H   0  0  0  0  0  0  0  0  0  0  0  0
   29.0269    5.0227  -19.8405 H   0  0  0  0  0  0  0  0  0  0  0  0
   24.7738    6.5224  -23.4667 H   0  0  0  0  0  0  0  0  0  0  0  0
   32.2668    2.6562  -20.1241 H   0  0  0  0  0  0  0  0  0  0  0  0
   31.3120    3.8087  -19.4710 H   0  0  0  0  0  0  0  0  0  0  0  0
   33.2211    3.0010  -22.4212 H   0  0  0  0  0  0  0  0  0  0  0  0
   31.0323    5.9192  -20.5402 H   0  0  0  0  0  0  0  0  0  0  0  0
   33.9043    4.5855  -24.0565 H   0  0  0  0  0  0  0  0  0  0  0  0
   31.6746    7.5017  -22.1837 H   0  0  0  0  0  0  0  0  0  0  0  0
  1  9  1  0  0  0  0
  1 15  1  0  0  0  0
  2 17  2  0  0  0  0
  3 10  3  0  0  0  0
  4 16  1  0  0  0  0
  5 15  1  0  0  0  0
  5 18  1  0  0  0  0
  6 16  1  0  0  0  0
  6 17  1  0  0  0  0
  7 15  2  0  0  0  0
  7 19  1  0  0  0  0
  8 16  2  0  0  0  0
  8 18  1  0  0  0  0
  9 20  1  0  0  0  0
 10 21  1  0  0  0  0
 11 13  1  0  0  0  0
 11 20  2  0  0  0  0
 12 14  2  0  0  0  0
 12 20  1  0  0  0  0
 13 21  2  0  0  0  0
 14 21  1  0  0  0  0
 17 19  1  0  0  0  0
 18 19  2  0  0  0  0
  4 22  1  0  0  0  0
  4 23  1  0  0  0  0
  5 24  1  0  0  0  0
  6 25  1  0  0  0  0
  9 26  1  0  0  0  0
  9 27  1  0  0  0  0
 11 28  1  0  0  0  0
 12 29  1  0  0  0  0
 13 30  1  0  0  0  0
 14 31  1  0  0  0  0
M  END
> <pdb_id>
5ETQ

> <uniprot_id>
nan

> <usmiles>
S(C1=NC=2C(=O)NC(=NC2N1)N)Cc3ccc(C#N)cc3

$$$$
YH7_A_504
          07202409463D 1   1.00000     0.00000     0
            
 16 17  0  0  0  0            999 V2000
   -7.2392   18.5743  -17.4880 S   0  0  0  0  0  0  0  0  0  0  0  0
   -8.3417   22.4835  -20.5297 N   0  0  0  0  0  0  0  0  0  0  0  0
  -11.5249   18.9307  -20.4862 N   0  0  0  0  0  0  0  0  0  0  0  0
  -10.9970   20.9067  -21.3186 N   0  0  0  0  0  0  0  0  0  0  0  0
   -7.8848   20.5737  -19.0962 N   0  0  0  0  0  0  0  0  0  0  0  0
   -9.4541   18.6662  -18.9651 N   0  0  0  0  0  0  0  0  0  0  0  0
  -11.9347   19.9169  -21.3345 C   0  0  0  0  0  0  0  0  0  0  0  0
   -8.2399   19.3111  -18.5649 C   0  0  0  0  0  0  0  0  0  0  0  0
   -8.7284   21.2094  -20.0202 C   0  0  0  0  0  0  0  0  0  0  0  0
  -10.3348   19.3253  -19.9410 C   0  0  0  0  0  0  0  0  0  0  0  0
  -10.0063   20.5417  -20.4507 C   0  0  0  0  0  0  0  0  0  0  0  0
   -8.9260   22.9566  -21.1892 H   0  0  0  0  0  0  0  0  0  0  0  0
   -7.4863   22.9041  -20.2277 H   0  0  0  0  0  0  0  0  0  0  0  0
  -11.0287   21.7531  -21.8501 H   0  0  0  0  0  0  0  0  0  0  0  0
   -7.0323   21.0131  -18.8131 H   0  0  0  0  0  0  0  0  0  0  0  0
  -12.7765   19.9145  -21.8742 H   0  0  0  0  0  0  0  0  0  0  0  0
  1  8  2  0  0  0  0
  2  9  1  0  0  0  0
  3  7  2  0  0  0  0
  3 10  1  0  0  0  0
  4  7  1  0  0  0  0
  4 11  1  0  0  0  0
  5  8  1  0  0  0  0
  5  9  1  0  0  0  0
  6  8  1  0  0  0  0
  6 10  2  0  0  0  0
  9 11  2  0  0  0  0
 10 11  1  0  0  0  0
  2 12  1  0  0  0  0
  2 13  1  0  0  0  0
  4 14  1  0  0  0  0
  5 15  1  0  0  0  0
  7 16  1  0  0  0  0
M  END
> <pdb_id>
4M5N

> <uniprot_id>
P26281

> <usmiles>
S=C1N=C2N=CNC2=C(N1)N

$$$$
YI0_A_1225
          07192420423D 1   1.00000     0.00000     0
            
 33 35  0  0  0  0            999 V2000
   69.4490   32.4904   26.4844 Cl  0  0  0  0  0  0  0  0  0  0  0  0
   66.9791   36.7986   21.2654 S   0  0  0  0  0  0  0  0  0  0  0  0
   66.8285   32.1326   27.7893 O   0  0  0  0  0  0  0  0  0  0  0  0
   64.2938   34.2447   24.4170 O   0  0  0  0  0  0  0  0  0  0  0  0
   70.9362   38.7879   26.3307 O   0  0  0  0  0  0  0  0  0  0  0  0
   65.9700   35.5580   21.0141 N   0  0  0  0  0  0  0  0  0  0  0  0
   65.8413   34.6983   21.9799 N   0  0  0  0  0  0  0  0  0  0  0  0
   70.5043   39.1934   27.6546 C   0  0  0  0  0  0  0  0  0  0  0  0
   68.6677   38.0170   25.8505 C   0  0  0  0  0  0  0  0  0  0  0  0
   70.4909   37.7187   24.3383 C   0  0  0  0  0  0  0  0  0  0  0  0
   67.8783   37.3630   24.9525 C   0  0  0  0  0  0  0  0  0  0  0  0
   69.6262   37.1067   23.4511 C   0  0  0  0  0  0  0  0  0  0  0  0
   65.4592   33.1784   26.1505 C   0  0  0  0  0  0  0  0  0  0  0  0
   67.9160   33.8581   24.7423 C   0  0  0  0  0  0  0  0  0  0  0  0
   67.8660   33.1197   25.8724 C   0  0  0  0  0  0  0  0  0  0  0  0
   67.3779   36.2356   22.8823 C   0  0  0  0  0  0  0  0  0  0  0  0
   66.7214   32.7294   26.5740 C   0  0  0  0  0  0  0  0  0  0  0  0
   65.4929   33.8849   24.9018 C   0  0  0  0  0  0  0  0  0  0  0  0
   70.0127   38.1534   25.5654 C   0  0  0  0  0  0  0  0  0  0  0  0
   66.6092   35.0661   23.0444 C   0  0  0  0  0  0  0  0  0  0  0  0
   68.2820   36.9125   23.7194 C   0  0  0  0  0  0  0  0  0  0  0  0
   66.6454   34.2855   24.2563 C   0  0  0  0  0  0  0  0  0  0  0  0
   67.7179   31.8060   28.1093 H   0  0  0  0  0  0  0  0  0  0  0  0
   64.2331   34.7407   23.5508 H   0  0  0  0  0  0  0  0  0  0  0  0
   71.2595   39.6481   28.1269 H   0  0  0  0  0  0  0  0  0  0  0  0
   69.7328   39.8245   27.5748 H   0  0  0  0  0  0  0  0  0  0  0  0
   70.2230   38.3871   28.1749 H   0  0  0  0  0  0  0  0  0  0  0  0
   68.2829   38.3890   26.6952 H   0  0  0  0  0  0  0  0  0  0  0  0
   71.4530   37.8470   24.0977 H   0  0  0  0  0  0  0  0  0  0  0  0
   66.9270   37.1976   25.2127 H   0  0  0  0  0  0  0  0  0  0  0  0
   69.9881   36.7893   22.5746 H   0  0  0  0  0  0  0  0  0  0  0  0
   64.6187   33.0210   26.6690 H   0  0  0  0  0  0  0  0  0  0  0  0
   68.7747   34.0866   24.2836 H   0  0  0  0  0  0  0  0  0  0  0  0
  1 15  1  0  0  0  0
  2  6  1  0  0  0  0
  2 16  1  0  0  0  0
  3 17  1  0  0  0  0
  4 18  1  0  0  0  0
  5  8  1  0  0  0  0
  5 19  1  0  0  0  0
  6  7  2  0  0  0  0
  7 20  1  0  0  0  0
  9 11  2  0  0  0  0
  9 19  1  0  0  0  0
 10 12  1  0  0  0  0
 10 19  2  0  0  0  0
 11 21  1  0  0  0  0
 12 21  2  0  0  0  0
 13 17  2  0  0  0  0
 13 18  1  0  0  0  0
 14 15  2  0  0  0  0
 14 22  1  0  0  0  0
 15 17  1  0  0  0  0
 16 20  2  0  0  0  0
 16 21  1  0  0  0  0
 18 22  2  0  0  0  0
 20 22  1  0  0  0  0
  3 23  1  0  0  0  0
  4 24  1  0  0  0  0
  8 25  1  0  0  0  0
  8 26  1  0  0  0  0
  8 27  1  0  0  0  0
  9 28  1  0  0  0  0
 10 29  1  0  0  0  0
 11 30  1  0  0  0  0
 12 31  1  0  0  0  0
 13 32  1  0  0  0  0
 14 33  1  0  0  0  0
M  END
> <pdb_id>
2YI0

> <uniprot_id>
P07900

> <usmiles>
Clc1c(O)cc(O)c(c1)C=2N=NSC2c3ccc(OC)cc3

$$$$
YI5_A_1226
          07192420423D 1   1.00000     0.00000     0
            
 37 39  0  0  0  0            999 V2000
   69.5420   32.7599   26.5123 Cl  0  0  0  0  0  0  0  0  0  0  0  0
   67.1450   36.5984   21.0603 S   0  0  0  0  0  0  0  0  0  0  0  0
   66.9273   32.1047   27.7168 O   0  0  0  0  0  0  0  0  0  0  0  0
   64.3114   34.3571   24.4127 O   0  0  0  0  0  0  0  0  0  0  0  0
   70.0183   39.7864   26.0398 O   0  0  0  0  0  0  0  0  0  0  0  0
   71.0854   39.3210   23.4506 O   0  0  0  0  0  0  0  0  0  0  0  0
   66.1102   35.3007   20.8594 N   0  0  0  0  0  0  0  0  0  0  0  0
   65.9860   34.6823   21.9364 N   0  0  0  0  0  0  0  0  0  0  0  0
   70.5784   40.9032   25.3289 C   0  0  0  0  0  0  0  0  0  0  0  0
   71.1622   39.4102   22.0013 C   0  0  0  0  0  0  0  0  0  0  0  0
   68.3294   38.2201   25.5814 C   0  0  0  0  0  0  0  0  0  0  0  0
   67.7185   37.3204   24.7240 C   0  0  0  0  0  0  0  0  0  0  0  0
   65.6021   33.2379   26.0651 C   0  0  0  0  0  0  0  0  0  0  0  0
   67.9028   34.0441   24.7200 C   0  0  0  0  0  0  0  0  0  0  0  0
   69.3299   37.7777   23.0281 C   0  0  0  0  0  0  0  0  0  0  0  0
   67.9931   33.2630   25.8876 C   0  0  0  0  0  0  0  0  0  0  0  0
   67.5263   36.1739   22.6556 C   0  0  0  0  0  0  0  0  0  0  0  0
   66.8381   32.8602   26.5726 C   0  0  0  0  0  0  0  0  0  0  0  0
   65.5246   33.9540   24.8597 C   0  0  0  0  0  0  0  0  0  0  0  0
   69.4610   38.9029   25.1672 C   0  0  0  0  0  0  0  0  0  0  0  0
   69.9741   38.6698   23.8888 C   0  0  0  0  0  0  0  0  0  0  0  0
   66.5893   35.1947   23.0364 C   0  0  0  0  0  0  0  0  0  0  0  0
   68.2511   37.0335   23.4766 C   0  0  0  0  0  0  0  0  0  0  0  0
   66.6592   34.4985   24.2548 C   0  0  0  0  0  0  0  0  0  0  0  0
   67.8235   31.8392   28.0721 H   0  0  0  0  0  0  0  0  0  0  0  0
   64.2386   34.8681   23.5562 H   0  0  0  0  0  0  0  0  0  0  0  0
   70.9840   41.5438   25.9808 H   0  0  0  0  0  0  0  0  0  0  0  0
   71.2834   40.5776   24.6989 H   0  0  0  0  0  0  0  0  0  0  0  0
   69.8573   41.3650   24.8124 H   0  0  0  0  0  0  0  0  0  0  0  0
   71.9961   39.8967   21.7410 H   0  0  0  0  0  0  0  0  0  0  0  0
   71.1777   38.4896   21.6110 H   0  0  0  0  0  0  0  0  0  0  0  0
   70.3654   39.9055   21.6551 H   0  0  0  0  0  0  0  0  0  0  0  0
   67.9553   38.3760   26.4956 H   0  0  0  0  0  0  0  0  0  0  0  0
   66.8743   36.8677   25.0110 H   0  0  0  0  0  0  0  0  0  0  0  0
   64.7658   32.9995   26.5587 H   0  0  0  0  0  0  0  0  0  0  0  0
   68.7344   34.2778   24.2162 H   0  0  0  0  0  0  0  0  0  0  0  0
   69.6485   37.6761   22.0857 H   0  0  0  0  0  0  0  0  0  0  0  0
  1 16  1  0  0  0  0
  2  7  1  0  0  0  0
  2 17  1  0  0  0  0
  3 18  1  0  0  0  0
  4 19  1  0  0  0  0
  5  9  1  0  0  0  0
  5 20  1  0  0  0  0
  6 10  1  0  0  0  0
  6 21  1  0  0  0  0
  7  8  2  0  0  0  0
  8 22  1  0  0  0  0
 11 12  2  0  0  0  0
 11 20  1  0  0  0  0
 12 23  1  0  0  0  0
 13 18  2  0  0  0  0
 13 19  1  0  0  0  0
 14 16  2  0  0  0  0
 14 24  1  0  0  0  0
 15 21  1  0  0  0  0
 15 23  2  0  0  0  0
 16 18  1  0  0  0  0
 17 22  2  0  0  0  0
 17 23  1  0  0  0  0
 19 24  2  0  0  0  0
 20 21  2  0  0  0  0
 22 24  1  0  0  0  0
  3 25  1  0  0  0  0
  4 26  1  0  0  0  0
  9 27  1  0  0  0  0
  9 28  1  0  0  0  0
  9 29  1  0  0  0  0
 10 30  1  0  0  0  0
 10 31  1  0  0  0  0
 10 32  1  0  0  0  0
 11 33  1  0  0  0  0
 12 34  1  0  0  0  0
 13 35  1  0  0  0  0
 14 36  1  0  0  0  0
 15 37  1  0  0  0  0
M  END
> <pdb_id>
2YI5

> <uniprot_id>
P07900

> <usmiles>
Clc1c(O)cc(O)c(c1)C=2N=NSC2c3cc(OC)c(OC)cc3

$$$$
YIE_A_1263
          07192416293D 1   1.00000     0.00000     0
            
 20 21  0  0  0  0            999 V2000
   -6.8790    6.0334   12.6135 Cl  0  0  0  0  0  0  0  0  0  0  0  0
   -6.1119   -0.1526   17.6563 N   0  0  0  0  0  0  0  0  0  0  0  0
   -5.3338    0.7431   18.2983 N   0  0  0  0  0  0  0  0  0  0  0  0
   -5.8195   -0.0957   16.3308 N   0  0  0  0  0  0  0  0  0  0  0  0
   -4.5289    1.3669   17.4060 N   0  0  0  0  0  0  0  0  0  0  0  0
   -6.0690    4.5123   14.6886 C   0  0  0  0  0  0  0  0  0  0  0  0
   -5.6885    3.6654   12.4813 C   0  0  0  0  0  0  0  0  0  0  0  0
   -5.5057    3.3900   15.2218 C   0  0  0  0  0  0  0  0  0  0  0  0
   -5.1003    2.5422   13.0197 C   0  0  0  0  0  0  0  0  0  0  0  0
   -4.3284    1.1293   14.9067 C   0  0  0  0  0  0  0  0  0  0  0  0
   -4.8587    0.8082   16.2407 C   0  0  0  0  0  0  0  0  0  0  0  0
   -6.1694    4.6410   13.3222 C   0  0  0  0  0  0  0  0  0  0  0  0
   -5.0059    2.3905   14.3860 C   0  0  0  0  0  0  0  0  0  0  0  0
   -6.7873   -0.7545   18.0824 H   0  0  0  0  0  0  0  0  0  0  0  0
   -6.4073    5.2379   15.2877 H   0  0  0  0  0  0  0  0  0  0  0  0
   -5.7649    3.7701   11.4897 H   0  0  0  0  0  0  0  0  0  0  0  0
   -5.4509    3.2833   16.2146 H   0  0  0  0  0  0  0  0  0  0  0  0
   -4.7394    1.8322   12.4150 H   0  0  0  0  0  0  0  0  0  0  0  0
   -4.5117    0.3698   14.2826 H   0  0  0  0  0  0  0  0  0  0  0  0
   -3.3418    1.2807   14.9669 H   0  0  0  0  0  0  0  0  0  0  0  0
  1 12  1  0  0  0  0
  2  3  1  0  0  0  0
  2  4  1  0  0  0  0
  3  5  2  0  0  0  0
  4 11  2  0  0  0  0
  5 11  1  0  0  0  0
  6  8  2  0  0  0  0
  6 12  1  0  0  0  0
  7  9  1  0  0  0  0
  7 12  2  0  0  0  0
  8 13  1  0  0  0  0
  9 13  2  0  0  0  0
 10 11  1  0  0  0  0
 10 13  1  0  0  0  0
  2 14  1  0  0  0  0
  6 15  1  0  0  0  0
  7 16  1  0  0  0  0
  8 17  1  0  0  0  0
  9 18  1  0  0  0  0
 10 19  1  0  0  0  0
 10 20  1  0  0  0  0
M  END
> <pdb_id>
5FNG

> <uniprot_id>
P00918

> <usmiles>
Clc1ccc(cc1)CC=2N=NNN2

$$$$
YIR_A_600
          07202400203D 1   1.00000     0.00000     0
            
 49 52  0  0  0  0            999 V2000
   49.2448   15.3721  -11.2596 O   0  5  0  0  0  0  0  0  0  0  0  0
   48.8971   17.0561  -12.9476 O   0  0  0  0  0  0  0  0  0  0  0  0
   48.2687   13.4640   -7.1160 O   0  0  0  0  0  0  0  0  0  0  0  0
   45.3717   13.0153    1.9692 N   0  0  0  0  0  0  0  0  0  0  0  0
   46.0311   11.3077    3.3238 N   0  0  0  0  0  0  0  0  0  0  0  0
   46.4820   11.2297    1.0439 N   0  0  0  0  0  0  0  0  0  0  0  0
   46.4025   11.7927   -0.0620 N   0  0  0  0  0  0  0  0  0  0  0  0
   46.4531   14.3117   -5.8168 N   0  0  0  0  0  0  0  0  0  0  0  0
   47.6476   15.4980   -9.0787 N   0  0  0  0  0  0  0  0  0  0  0  0
   48.5471   16.5226  -11.6939 N   0  3  0  0  0  0  0  0  0  0  0  0
   48.3667    9.5948   -2.4102 C   0  0  0  0  0  0  0  0  0  0  0  0
   45.8913   18.8402  -10.8381 C   0  0  0  0  0  0  0  0  0  0  0  0
   47.6939    9.9813   -1.0984 C   0  0  0  0  0  0  0  0  0  0  0  0
   45.6536   13.7598   -3.6981 C   0  0  0  0  0  0  0  0  0  0  0  0
   46.8983   18.2948  -11.6329 C   0  0  0  0  0  0  0  0  0  0  0  0
   45.5295   18.3196   -9.6026 C   0  0  0  0  0  0  0  0  0  0  0  0
   48.8086   10.8120   -3.2324 C   0  0  0  0  0  0  0  0  0  0  0  0
   45.7455   13.0251   -2.5180 C   0  0  0  0  0  0  0  0  0  0  0  0
   47.5930   12.5933   -4.5614 C   0  0  0  0  0  0  0  0  0  0  0  0
   45.9059   16.4348   -7.7893 C   0  0  0  0  0  0  0  0  0  0  0  0
   45.9715   11.8455    2.1092 C   0  0  0  0  0  0  0  0  0  0  0  0
   47.2724   14.3364   -6.8761 C   0  0  0  0  0  0  0  0  0  0  0  0
   46.5688   13.5397   -4.7306 C   0  0  0  0  0  0  0  0  0  0  0  0
   46.9720   15.3901   -7.9292 C   0  0  0  0  0  0  0  0  0  0  0  0
   46.9006   11.2993   -1.1911 C   0  0  0  0  0  0  0  0  0  0  0  0
   47.1917   16.5590   -9.7541 C   0  0  0  0  0  0  0  0  0  0  0  0
   47.5694   17.0860  -10.9911 C   0  0  0  0  0  0  0  0  0  0  0  0
   46.1506   17.1908   -9.0713 C   0  0  0  0  0  0  0  0  0  0  0  0
   47.6810   11.8504   -3.3755 C   0  0  0  0  0  0  0  0  0  0  0  0
   46.7535   12.0593   -2.3565 C   0  0  0  0  0  0  0  0  0  0  0  0
   45.3128   13.4422    1.0668 H   0  0  0  0  0  0  0  0  0  0  0  0
   44.9769   13.4733    2.7657 H   0  0  0  0  0  0  0  0  0  0  0  0
   46.4790   10.4237    3.4578 H   0  0  0  0  0  0  0  0  0  0  0  0
   46.9193   10.3346    1.1316 H   0  0  0  0  0  0  0  0  0  0  0  0
   45.6724   14.9362   -5.8406 H   0  0  0  0  0  0  0  0  0  0  0  0
   48.3760   14.8846   -9.3839 H   0  0  0  0  0  0  0  0  0  0  0  0
   47.7214    9.0587   -2.9545 H   0  0  0  0  0  0  0  0  0  0  0  0
   49.1719    9.0386   -2.2046 H   0  0  0  0  0  0  0  0  0  0  0  0
   45.4052   19.6468  -11.1745 H   0  0  0  0  0  0  0  0  0  0  0  0
   48.3993   10.0831   -0.3969 H   0  0  0  0  0  0  0  0  0  0  0  0
   47.0654    9.2493   -0.8353 H   0  0  0  0  0  0  0  0  0  0  0  0
   44.9328   14.4444   -3.8061 H   0  0  0  0  0  0  0  0  0  0  0  0
   47.1534   18.6579  -12.5290 H   0  0  0  0  0  0  0  0  0  0  0  0
   44.8036   18.7668   -9.0800 H   0  0  0  0  0  0  0  0  0  0  0  0
   49.0818   10.5042   -4.1438 H   0  0  0  0  0  0  0  0  0  0  0  0
   49.5886   11.2427   -2.7783 H   0  0  0  0  0  0  0  0  0  0  0  0
   45.0895   13.1862   -1.7806 H   0  0  0  0  0  0  0  0  0  0  0  0
   48.2625   12.4487   -5.2901 H   0  0  0  0  0  0  0  0  0  0  0  0
   45.2342   16.5853   -7.0638 H   0  0  0  0  0  0  0  0  0  0  0  0
  1 10  1  0  0  0  0
  2 10  2  0  0  0  0
  3 22  2  0  0  0  0
  4 21  1  0  0  0  0
  5 21  2  0  0  0  0
  6  7  1  0  0  0  0
  6 21  1  0  0  0  0
  7 25  2  0  0  0  0
  8 22  1  0  0  0  0
  8 23  1  0  0  0  0
  9 24  1  0  0  0  0
  9 26  1  0  0  0  0
 10 27  1  0  0  0  0
 11 13  1  0  0  0  0
 11 17  1  0  0  0  0
 12 15  1  0  0  0  0
 12 16  2  0  0  0  0
 13 25  1  0  0  0  0
 14 18  1  0  0  0  0
 14 23  2  0  0  0  0
 15 27  2  0  0  0  0
 16 28  1  0  0  0  0
 17 29  1  0  0  0  0
 18 30  2  0  0  0  0
 19 23  1  0  0  0  0
 19 29  2  0  0  0  0
 20 24  2  0  0  0  0
 20 28  1  0  0  0  0
 22 24  1  0  0  0  0
 25 30  1  0  0  0  0
 26 27  1  0  0  0  0
 26 28  2  0  0  0  0
 29 30  1  0  0  0  0
  4 31  1  0  0  0  0
  4 32  1  0  0  0  0
  5 33  1  0  0  0  0
  6 34  1  0  0  0  0
  8 35  1  0  0  0  0
  9 36  1  0  0  0  0
 11 37  1  0  0  0  0
 11 38  1  0  0  0  0
 12 39  1  0  0  0  0
 13 40  1  0  0  0  0
 13 41  1  0  0  0  0
 14 42  1  0  0  0  0
 15 43  1  0  0  0  0
 16 44  1  0  0  0  0
 17 45  1  0  0  0  0
 17 46  1  0  0  0  0
 18 47  1  0  0  0  0
 19 48  1  0  0  0  0
 20 49  1  0  0  0  0
M  CHG  2   1  -1  10   1
M  END
> <pdb_id>
2YIR

> <uniprot_id>
O96017

> <usmiles>
[O-][N+](=O)c1c2NC(C(=O)Nc3cc4c(cc3)C(=NNC(=N)N)CCC4)=Cc2ccc1

$$$$
YIT_A_600
          07202400203D 1   1.00000     0.00000     0
            
 53 55  0  0  0  0            999 V2000
   48.0740   13.6657   -7.7085 O   0  0  0  0  0  0  0  0  0  0  0  0
   46.6682   19.4142  -12.9781 O   0  0  0  0  0  0  0  0  0  0  0  0
   46.0384   11.3354    2.8659 N   0  0  0  0  0  0  0  0  0  0  0  0
   45.5576   13.1249    1.6252 N   0  0  0  0  0  0  0  0  0  0  0  0
   46.4959   11.3122    0.5540 N   0  0  0  0  0  0  0  0  0  0  0  0
   46.4761   11.9190   -0.5444 N   0  0  0  0  0  0  0  0  0  0  0  0
   46.5523   14.5622   -6.2838 N   0  0  0  0  0  0  0  0  0  0  0  0
   46.1266   16.6770   -8.2464 N   0  0  0  0  0  0  0  0  0  0  0  0
   47.3124   18.7648  -14.1059 C   0  0  0  0  0  0  0  0  0  0  0  0
   49.4430    8.5369   -0.8802 C   0  0  0  0  0  0  0  0  0  0  0  0
   48.8681    9.9689   -0.8755 C   0  0  0  0  0  0  0  0  0  0  0  0
   47.5647   10.0226   -1.6962 C   0  0  0  0  0  0  0  0  0  0  0  0
   45.7113   19.2672  -10.8393 C   0  0  0  0  0  0  0  0  0  0  0  0
   45.8010   13.9091   -4.1782 C   0  0  0  0  0  0  0  0  0  0  0  0
   47.7205   12.8077   -5.0868 C   0  0  0  0  0  0  0  0  0  0  0  0
   45.5165   18.6492   -9.6073 C   0  0  0  0  0  0  0  0  0  0  0  0
   45.8833   13.1735   -3.0081 C   0  0  0  0  0  0  0  0  0  0  0  0
   47.8088   12.0393   -3.9115 C   0  0  0  0  0  0  0  0  0  0  0  0
   47.1870   17.4825  -11.5272 C   0  0  0  0  0  0  0  0  0  0  0  0
   47.4474   15.7282   -9.7042 C   0  0  0  0  0  0  0  0  0  0  0  0
   46.0266   11.9100    1.6717 C   0  0  0  0  0  0  0  0  0  0  0  0
   47.2046   14.4941   -7.4612 C   0  0  0  0  0  0  0  0  0  0  0  0
   46.5375   18.7040  -11.8035 C   0  0  0  0  0  0  0  0  0  0  0  0
   46.7076   13.7453   -5.2269 C   0  0  0  0  0  0  0  0  0  0  0  0
   46.9629   11.4237   -1.6960 C   0  0  0  0  0  0  0  0  0  0  0  0
   46.9126   15.6250   -8.4768 C   0  0  0  0  0  0  0  0  0  0  0  0
   46.1424   17.4470   -9.3295 C   0  0  0  0  0  0  0  0  0  0  0  0
   46.8839   12.2075   -2.8622 C   0  0  0  0  0  0  0  0  0  0  0  0
   46.9881   16.8545  -10.2712 C   0  0  0  0  0  0  0  0  0  0  0  0
   46.3861   10.4034    2.9689 H   0  0  0  0  0  0  0  0  0  0  0  0
   45.6997   11.8337    3.6639 H   0  0  0  0  0  0  0  0  0  0  0  0
   45.5216   13.6140    0.7538 H   0  0  0  0  0  0  0  0  0  0  0  0
   46.8605   10.3824    0.6025 H   0  0  0  0  0  0  0  0  0  0  0  0
   45.8821   15.2978   -6.1858 H   0  0  0  0  0  0  0  0  0  0  0  0
   45.6149   16.8554   -7.4059 H   0  0  0  0  0  0  0  0  0  0  0  0
   47.3369   19.3935  -14.8831 H   0  0  0  0  0  0  0  0  0  0  0  0
   48.2458   18.5088  -13.8545 H   0  0  0  0  0  0  0  0  0  0  0  0
   46.7980   17.9447  -14.3567 H   0  0  0  0  0  0  0  0  0  0  0  0
   50.2875    8.5150   -0.3450 H   0  0  0  0  0  0  0  0  0  0  0  0
   48.7769    7.9090   -0.4777 H   0  0  0  0  0  0  0  0  0  0  0  0
   49.6372    8.2588   -1.8209 H   0  0  0  0  0  0  0  0  0  0  0  0
   49.5371   10.5946   -1.2767 H   0  0  0  0  0  0  0  0  0  0  0  0
   48.6768   10.2448    0.0665 H   0  0  0  0  0  0  0  0  0  0  0  0
   46.9043    9.3850   -1.2997 H   0  0  0  0  0  0  0  0  0  0  0  0
   47.7628    9.7540   -2.6389 H   0  0  0  0  0  0  0  0  0  0  0  0
   45.2482   20.1319  -11.0337 H   0  0  0  0  0  0  0  0  0  0  0  0
   45.0666   14.5809   -4.2754 H   0  0  0  0  0  0  0  0  0  0  0  0
   48.3873   12.6781   -5.8207 H   0  0  0  0  0  0  0  0  0  0  0  0
   44.9241   19.0743   -8.9229 H   0  0  0  0  0  0  0  0  0  0  0  0
   45.2288   13.3326   -2.2690 H   0  0  0  0  0  0  0  0  0  0  0  0
   48.5396   11.3629   -3.8195 H   0  0  0  0  0  0  0  0  0  0  0  0
   47.7831   17.0627  -12.2116 H   0  0  0  0  0  0  0  0  0  0  0  0
   48.0799   15.0772  -10.1239 H   0  0  0  0  0  0  0  0  0  0  0  0
  1 22  2  0  0  0  0
  2  9  1  0  0  0  0
  2 23  1  0  0  0  0
  3 21  1  0  0  0  0
  4 21  2  0  0  0  0
  5  6  1  0  0  0  0
  5 21  1  0  0  0  0
  6 25  2  0  0  0  0
  7 22  1  0  0  0  0
  7 24  1  0  0  0  0
  8 26  1  0  0  0  0
  8 27  1  0  0  0  0
 10 11  1  0  0  0  0
 11 12  1  0  0  0  0
 12 25  1  0  0  0  0
 13 16  1  0  0  0  0
 13 23  2  0  0  0  0
 14 17  1  0  0  0  0
 14 24  2  0  0  0  0
 15 18  2  0  0  0  0
 15 24  1  0  0  0  0
 16 27  2  0  0  0  0
 17 28  2  0  0  0  0
 18 28  1  0  0  0  0
 19 23  1  0  0  0  0
 19 29  2  0  0  0  0
 20 26  2  0  0  0  0
 20 29  1  0  0  0  0
 22 26  1  0  0  0  0
 25 28  1  0  0  0  0
 27 29  1  0  0  0  0
  3 30  1  0  0  0  0
  3 31  1  0  0  0  0
  4 32  1  0  0  0  0
  5 33  1  0  0  0  0
  7 34  1  0  0  0  0
  8 35  1  0  0  0  0
  9 36  1  0  0  0  0
  9 37  1  0  0  0  0
  9 38  1  0  0  0  0
 10 39  1  0  0  0  0
 10 40  1  0  0  0  0
 10 41  1  0  0  0  0
 11 42  1  0  0  0  0
 11 43  1  0  0  0  0
 12 44  1  0  0  0  0
 12 45  1  0  0  0  0
 13 46  1  0  0  0  0
 14 47  1  0  0  0  0
 15 48  1  0  0  0  0
 16 49  1  0  0  0  0
 17 50  1  0  0  0  0
 18 51  1  0  0  0  0
 19 52  1  0  0  0  0
 20 53  1  0  0  0  0
M  END
> <pdb_id>
2YIT

> <uniprot_id>
O96017

> <usmiles>
O=C(Nc1ccc(cc1)C(=NNC(=N)N)CCC)C=2Nc3c(cc(OC)cc3)C2

$$$$
YIW_A_1353
          07202400263D 1   1.00000     0.00000     0
            
 72 76  0  0  0  0            999 V2000
   -2.9340    1.2000   19.8170 S   0  0  0  0  0  0  0  0  0  0  0  0
   -0.2930    2.0510   15.4610 O   0  0  0  0  0  0  0  0  0  0  0  0
   -1.8140   -4.1260   21.8200 N   0  0  0  0  0  0  0  0  0  0  0  0
   -1.5330   -3.8040   23.0350 N   0  0  0  0  0  0  0  0  0  0  0  0
    1.7550    4.3570   11.9740 N   0  0  0  0  0  0  0  0  0  0  0  0
   -2.3170    3.1240   15.8490 N   0  0  0  0  0  0  0  0  0  0  0  0
   -0.9340    3.7040   14.1640 N   0  0  0  0  0  0  0  0  0  0  0  0
    0.5570    4.6740   12.5920 N   0  0  0  0  0  0  0  0  0  0  0  0
   -2.0250   -1.9860   22.0160 N   0  0  0  0  0  0  0  0  0  0  0  0
   -2.6770   -1.1470   25.0570 C   0  0  0  0  0  0  0  0  0  0  0  0
   -0.9370   -2.6450   25.6400 C   0  0  0  0  0  0  0  0  0  0  0  0
    2.7650    1.4970   10.4460 C   0  0  0  0  0  0  0  0  0  0  0  0
    4.2970    3.4070   10.9790 C   0  0  0  0  0  0  0  0  0  0  0  0
    3.9230    1.5920   12.5560 C   0  0  0  0  0  0  0  0  0  0  0  0
   -2.5320    2.3300   17.0920 C   0  0  0  0  0  0  0  0  0  0  0  0
   -2.2920   -0.6770   21.5810 C   0  0  0  0  0  0  0  0  0  0  0  0
   -0.9460    8.6100   12.6350 C   0  0  0  0  0  0  0  0  0  0  0  0
   -6.1450    0.0570   17.5230 C   0  0  0  0  0  0  0  0  0  0  0  0
   -0.5200    8.0700   11.4390 C   0  0  0  0  0  0  0  0  0  0  0  0
   -0.9140    7.8790   13.8190 C   0  0  0  0  0  0  0  0  0  0  0  0
   -5.8020    0.6300   16.3000 C   0  0  0  0  0  0  0  0  0  0  0  0
   -5.3060    0.2330   18.5950 C   0  0  0  0  0  0  0  0  0  0  0  0
   -2.7370   -1.5210   19.3970 C   0  0  0  0  0  0  0  0  0  0  0  0
   -2.4840   -2.8420   19.8000 C   0  0  0  0  0  0  0  0  0  0  0  0
   -0.0110    6.7690   11.4050 C   0  0  0  0  0  0  0  0  0  0  0  0
   -0.3960    6.5720   13.7820 C   0  0  0  0  0  0  0  0  0  0  0  0
   -4.6510    1.4270   16.1550 C   0  0  0  0  0  0  0  0  0  0  0  0
    1.0930    2.6260   13.0600 C   0  0  0  0  0  0  0  0  0  0  0  0
   -1.2080    2.8960   15.1390 C   0  0  0  0  0  0  0  0  0  0  0  0
   -2.6330   -0.4500   20.2920 C   0  0  0  0  0  0  0  0  0  0  0  0
   -4.0860    0.9890   18.4730 C   0  0  0  0  0  0  0  0  0  0  0  0
   -2.1250   -3.0540   21.1500 C   0  0  0  0  0  0  0  0  0  0  0  0
    0.1940    3.6330   13.3190 C   0  0  0  0  0  0  0  0  0  0  0  0
   -1.6540   -2.4960   23.2180 C   0  0  0  0  0  0  0  0  0  0  0  0
    0.0260    5.9980   12.6040 C   0  0  0  0  0  0  0  0  0  0  0  0
    2.0640    3.1380   12.1530 C   0  0  0  0  0  0  0  0  0  0  0  0
   -1.3830   -1.7130   24.5010 C   0  0  0  0  0  0  0  0  0  0  0  0
   -3.8050    1.5850   17.2370 C   0  0  0  0  0  0  0  0  0  0  0  0
    3.2540    2.4380   11.5470 C   0  0  0  0  0  0  0  0  0  0  0  0
   -2.9841    3.8083   15.5545 H   0  0  0  0  0  0  0  0  0  0  0  0
   -1.5818    4.4467   13.9946 H   0  0  0  0  0  0  0  0  0  0  0  0
   -3.0746   -0.5118   24.3949 H   0  0  0  0  0  0  0  0  0  0  0  0
   -3.3198   -1.8931   25.2306 H   0  0  0  0  0  0  0  0  0  0  0  0
   -2.4891   -0.6632   25.9118 H   0  0  0  0  0  0  0  0  0  0  0  0
   -0.0760   -3.0882   25.3903 H   0  0  0  0  0  0  0  0  0  0  0  0
   -0.8071   -2.1115   26.4758 H   0  0  0  0  0  0  0  0  0  0  0  0
   -1.6378   -3.3414   25.7946 H   0  0  0  0  0  0  0  0  0  0  0  0
    2.0852    0.8678   10.8229 H   0  0  0  0  0  0  0  0  0  0  0  0
    2.3516    2.0322    9.7094 H   0  0  0  0  0  0  0  0  0  0  0  0
    3.5383    0.9754   10.0855 H   0  0  0  0  0  0  0  0  0  0  0  0
    4.6126    4.0194   11.7038 H   0  0  0  0  0  0  0  0  0  0  0  0
    5.0728    2.8885   10.6194 H   0  0  0  0  0  0  0  0  0  0  0  0
    3.8861    3.9453   10.2432 H   0  0  0  0  0  0  0  0  0  0  0  0
    4.2619    2.1666   13.3010 H   0  0  0  0  0  0  0  0  0  0  0  0
    3.2705    0.9266   12.9186 H   0  0  0  0  0  0  0  0  0  0  0  0
    4.6895    1.1100   12.1316 H   0  0  0  0  0  0  0  0  0  0  0  0
   -2.4702    2.9639   17.8629 H   0  0  0  0  0  0  0  0  0  0  0  0
   -1.7898    1.6623   17.1492 H   0  0  0  0  0  0  0  0  0  0  0  0
   -2.2300    0.0863   22.2240 H   0  0  0  0  0  0  0  0  0  0  0  0
   -1.2863    9.5502   12.6516 H   0  0  0  0  0  0  0  0  0  0  0  0
   -6.9876   -0.4731   17.6180 H   0  0  0  0  0  0  0  0  0  0  0  0
   -0.5754    8.6085   10.5982 H   0  0  0  0  0  0  0  0  0  0  0  0
   -1.2507    8.2731   14.6742 H   0  0  0  0  0  0  0  0  0  0  0  0
   -6.3882    0.4710   15.5056 H   0  0  0  0  0  0  0  0  0  0  0  0
   -5.5463   -0.1713   19.4775 H   0  0  0  0  0  0  0  0  0  0  0  0
   -2.9976   -1.3412   18.4484 H   0  0  0  0  0  0  0  0  0  0  0  0
   -2.5552   -3.6038   19.1561 H   0  0  0  0  0  0  0  0  0  0  0  0
    0.3247    6.3816   10.5464 H   0  0  0  0  0  0  0  0  0  0  0  0
   -0.3328    6.0475   14.6310 H   0  0  0  0  0  0  0  0  0  0  0  0
   -4.4483    1.8721   15.2828 H   0  0  0  0  0  0  0  0  0  0  0  0
    1.0694    1.7012   13.4398 H   0  0  0  0  0  0  0  0  0  0  0  0
   -0.7113   -0.9887   24.3452 H   0  0  0  0  0  0  0  0  0  0  0  0
  1 30  1  0  0  0  0
  1 31  1  0  0  0  0
  2 29  2  0  0  0  0
  3  4  1  0  0  0  0
  3 32  2  0  0  0  0
  4 34  2  0  0  0  0
  5  8  1  0  0  0  0
  5 36  2  0  0  0  0
  6 15  1  0  0  0  0
  6 29  1  0  0  0  0
  7 29  1  0  0  0  0
  7 33  1  0  0  0  0
  8 33  1  0  0  0  0
  8 35  1  0  0  0  0
  9 16  1  0  0  0  0
  9 32  1  0  0  0  0
  9 34  1  0  0  0  0
 10 37  1  0  0  0  0
 11 37  1  0  0  0  0
 12 39  1  0  0  0  0
 13 39  1  0  0  0  0
 14 39  1  0  0  0  0
 15 38  1  0  0  0  0
 16 30  2  0  0  0  0
 17 19  2  0  0  0  0
 17 20  1  0  0  0  0
 18 21  2  0  0  0  0
 18 22  1  0  0  0  0
 19 25  1  0  0  0  0
 20 26  2  0  0  0  0
 21 27  1  0  0  0  0
 22 31  2  0  0  0  0
 23 24  2  0  0  0  0
 23 30  1  0  0  0  0
 24 32  1  0  0  0  0
 25 35  2  0  0  0  0
 26 35  1  0  0  0  0
 27 38  2  0  0  0  0
 28 33  2  0  0  0  0
 28 36  1  0  0  0  0
 31 38  1  0  0  0  0
 34 37  1  0  0  0  0
 36 39  1  0  0  0  0
  6 40  1  0  0  0  0
  7 41  1  0  0  0  0
 10 42  1  0  0  0  0
 10 43  1  0  0  0  0
 10 44  1  0  0  0  0
 11 45  1  0  0  0  0
 11 46  1  0  0  0  0
 11 47  1  0  0  0  0
 12 48  1  0  0  0  0
 12 49  1  0  0  0  0
 12 50  1  0  0  0  0
 13 51  1  0  0  0  0
 13 52  1  0  0  0  0
 13 53  1  0  0  0  0
 14 54  1  0  0  0  0
 14 55  1  0  0  0  0
 14 56  1  0  0  0  0
 15 57  1  0  0  0  0
 15 58  1  0  0  0  0
 16 59  1  0  0  0  0
 17 60  1  0  0  0  0
 18 61  1  0  0  0  0
 19 62  1  0  0  0  0
 20 63  1  0  0  0  0
 21 64  1  0  0  0  0
 22 65  1  0  0  0  0
 23 66  1  0  0  0  0
 24 67  1  0  0  0  0
 25 68  1  0  0  0  0
 26 69  1  0  0  0  0
 27 70  1  0  0  0  0
 28 71  1  0  0  0  0
 37 72  1  0  0  0  0
M  END
> <pdb_id>
2YIW

> <uniprot_id>
Q16539

> <usmiles>
S(c1c(cccc1)CNC(=O)NC=2N(N=C(C2)C(C)(C)C)c3ccccc3)C4=CN5C(=NN=C5C(C)C)C=C4

$$$$
YJW_A_1224
          07192420423D 1   1.00000     0.00000     0
            
 33 35  0  0  0  0            999 V2000
   66.7815   31.8934   28.0889 O   0  0  0  0  0  0  0  0  0  0  0  0
   64.4149   34.0630   24.5698 O   0  0  0  0  0  0  0  0  0  0  0  0
   66.3144   35.8169   21.4015 O   0  0  0  0  0  0  0  0  0  0  0  0
   66.0798   34.7228   22.2805 N   0  0  0  0  0  0  0  0  0  0  0  0
   67.6091   37.8389   21.1788 C   0  0  0  0  0  0  0  0  0  0  0  0
   70.2248   38.0438   26.0090 C   0  0  0  0  0  0  0  0  0  0  0  0
   68.8499   38.1428   26.1604 C   0  0  0  0  0  0  0  0  0  0  0  0
   70.7515   37.3030   24.9519 C   0  0  0  0  0  0  0  0  0  0  0  0
   67.9954   32.8441   26.2704 C   0  0  0  0  0  0  0  0  0  0  0  0
   67.9986   37.5070   25.2559 C   0  0  0  0  0  0  0  0  0  0  0  0
   69.9040   36.6793   24.0415 C   0  0  0  0  0  0  0  0  0  0  0  0
   68.0117   33.6012   25.1119 C   0  0  0  0  0  0  0  0  0  0  0  0
   65.5889   32.9444   26.3020 C   0  0  0  0  0  0  0  0  0  0  0  0
   66.7859   32.5390   26.8812 C   0  0  0  0  0  0  0  0  0  0  0  0
   67.2349   36.6378   21.9663 C   0  0  0  0  0  0  0  0  0  0  0  0
   65.6042   33.6838   25.1254 C   0  0  0  0  0  0  0  0  0  0  0  0
   66.8570   34.9327   23.3300 C   0  0  0  0  0  0  0  0  0  0  0  0
   68.5187   36.7883   24.1772 C   0  0  0  0  0  0  0  0  0  0  0  0
   66.8240   34.0469   24.5211 C   0  0  0  0  0  0  0  0  0  0  0  0
   67.6103   36.1578   23.1794 C   0  0  0  0  0  0  0  0  0  0  0  0
   65.9140   31.6710   28.5338 H   0  0  0  0  0  0  0  0  0  0  0  0
   64.4057   34.5954   23.7234 H   0  0  0  0  0  0  0  0  0  0  0  0
   68.2891   38.3702   21.6841 H   0  0  0  0  0  0  0  0  0  0  0  0
   67.9933   37.5551   20.3003 H   0  0  0  0  0  0  0  0  0  0  0  0
   66.7968   38.4006   21.0216 H   0  0  0  0  0  0  0  0  0  0  0  0
   70.8356   38.5016   26.6550 H   0  0  0  0  0  0  0  0  0  0  0  0
   68.4679   38.6707   26.9190 H   0  0  0  0  0  0  0  0  0  0  0  0
   71.7426   37.2195   24.8475 H   0  0  0  0  0  0  0  0  0  0  0  0
   68.8532   32.5171   26.6670 H   0  0  0  0  0  0  0  0  0  0  0  0
   67.0082   37.5664   25.3810 H   0  0  0  0  0  0  0  0  0  0  0  0
   70.2893   36.1498   23.2857 H   0  0  0  0  0  0  0  0  0  0  0  0
   68.8878   33.8339   24.6896 H   0  0  0  0  0  0  0  0  0  0  0  0
   64.7182   32.7044   26.7314 H   0  0  0  0  0  0  0  0  0  0  0  0
  1 14  1  0  0  0  0
  2 16  1  0  0  0  0
  3  4  1  0  0  0  0
  3 15  1  0  0  0  0
  4 17  2  0  0  0  0
  5 15  1  0  0  0  0
  6  7  2  0  0  0  0
  6  8  1  0  0  0  0
  7 10  1  0  0  0  0
  8 11  2  0  0  0  0
  9 12  1  0  0  0  0
  9 14  2  0  0  0  0
 10 18  2  0  0  0  0
 11 18  1  0  0  0  0
 12 19  2  0  0  0  0
 13 14  1  0  0  0  0
 13 16  2  0  0  0  0
 15 20  2  0  0  0  0
 16 19  1  0  0  0  0
 17 19  1  0  0  0  0
 17 20  1  0  0  0  0
 18 20  1  0  0  0  0
  1 21  1  0  0  0  0
  2 22  1  0  0  0  0
  5 23  1  0  0  0  0
  5 24  1  0  0  0  0
  5 25  1  0  0  0  0
  6 26  1  0  0  0  0
  7 27  1  0  0  0  0
  8 28  1  0  0  0  0
  9 29  1  0  0  0  0
 10 30  1  0  0  0  0
 11 31  1  0  0  0  0
 12 32  1  0  0  0  0
 13 33  1  0  0  0  0
M  END
> <pdb_id>
2YK2

> <uniprot_id>
P07900

> <usmiles>
O1N=C(c2c(O)cc(O)cc2)C(c3ccccc3)=C1C

$$$$
YJX_A_1224
          07192420423D 1   1.00000     0.00000     0
            
 37 41  0  0  0  0            999 V2000
   71.1460   33.0933   25.6686 O   0  0  0  0  0  0  0  0  0  0  0  0
   80.4336   30.8082   21.4043 N   0  0  0  0  0  0  0  0  0  0  0  0
   76.7209   30.9191   21.8501 N   0  0  0  0  0  0  0  0  0  0  0  0
   77.2366   31.2482   24.1035 N   0  0  0  0  0  0  0  0  0  0  0  0
   72.8717   31.9810   24.5344 N   0  0  0  0  0  0  0  0  0  0  0  0
   80.7566   30.9949   22.7939 C   0  0  0  0  0  0  0  0  0  0  0  0
   79.0566   30.7683   21.0213 C   0  0  0  0  0  0  0  0  0  0  0  0
   71.9470   30.9198   23.9680 C   0  0  0  0  0  0  0  0  0  0  0  0
   72.7087   29.7183   23.4416 C   0  0  0  0  0  0  0  0  0  0  0  0
   74.8474   35.6797   26.6586 C   0  0  0  0  0  0  0  0  0  0  0  0
   75.9884   35.0569   26.0447 C   0  0  0  0  0  0  0  0  0  0  0  0
   79.7798   31.1736   23.8078 C   0  0  0  0  0  0  0  0  0  0  0  0
   73.9856   30.1251   22.6862 C   0  0  0  0  0  0  0  0  0  0  0  0
   73.6229   35.0008   26.4724 C   0  0  0  0  0  0  0  0  0  0  0  0
   76.0114   33.8668   25.2482 C   0  0  0  0  0  0  0  0  0  0  0  0
   76.2921   31.1296   23.1648 C   0  0  0  0  0  0  0  0  0  0  0  0
   72.3716   32.9637   25.3372 C   0  0  0  0  0  0  0  0  0  0  0  0
   78.0729   30.9113   21.9651 C   0  0  0  0  0  0  0  0  0  0  0  0
   78.3641   31.1263   23.3502 C   0  0  0  0  0  0  0  0  0  0  0  0
   74.2951   32.0384   24.2949 C   0  0  0  0  0  0  0  0  0  0  0  0
   74.8943   31.1604   23.4506 C   0  0  0  0  0  0  0  0  0  0  0  0
   73.5370   33.7621   25.6769 C   0  0  0  0  0  0  0  0  0  0  0  0
   74.7513   33.1721   25.0623 C   0  0  0  0  0  0  0  0  0  0  0  0
   77.1411   31.3882   25.0890 H   0  0  0  0  0  0  0  0  0  0  0  0
   81.7207   30.9990   23.0594 H   0  0  0  0  0  0  0  0  0  0  0  0
   78.8103   30.6356   20.0613 H   0  0  0  0  0  0  0  0  0  0  0  0
   71.4185   31.3196   23.2190 H   0  0  0  0  0  0  0  0  0  0  0  0
   71.3251   30.6160   24.6897 H   0  0  0  0  0  0  0  0  0  0  0  0
   72.1151   29.2080   22.8193 H   0  0  0  0  0  0  0  0  0  0  0  0
   72.9629   29.1349   24.2131 H   0  0  0  0  0  0  0  0  0  0  0  0
   74.9156   36.5309   27.1791 H   0  0  0  0  0  0  0  0  0  0  0  0
   76.8691   35.5074   26.1909 H   0  0  0  0  0  0  0  0  0  0  0  0
   80.0262   31.3213   24.7656 H   0  0  0  0  0  0  0  0  0  0  0  0
   73.7161   30.5309   21.8129 H   0  0  0  0  0  0  0  0  0  0  0  0
   74.5253   29.3002   22.5180 H   0  0  0  0  0  0  0  0  0  0  0  0
   72.7929   35.3696   26.8909 H   0  0  0  0  0  0  0  0  0  0  0  0
   76.8588   33.5295   24.8381 H   0  0  0  0  0  0  0  0  0  0  0  0
  1 17  2  0  0  0  0
  2  6  2  0  0  0  0
  2  7  1  0  0  0  0
  3 16  2  0  0  0  0
  3 18  1  0  0  0  0
  4 16  1  0  0  0  0
  4 19  1  0  0  0  0
  5  8  1  0  0  0  0
  5 17  1  0  0  0  0
  5 20  1  0  0  0  0
  6 12  1  0  0  0  0
  7 18  2  0  0  0  0
  8  9  1  0  0  0  0
  9 13  1  0  0  0  0
 10 11  2  0  0  0  0
 10 14  1  0  0  0  0
 11 15  1  0  0  0  0
 12 19  2  0  0  0  0
 13 21  1  0  0  0  0
 14 22  2  0  0  0  0
 15 23  2  0  0  0  0
 16 21  1  0  0  0  0
 17 22  1  0  0  0  0
 18 19  1  0  0  0  0
 20 21  2  0  0  0  0
 20 23  1  0  0  0  0
 22 23  1  0  0  0  0
  4 24  1  0  0  0  0
  6 25  1  0  0  0  0
  7 26  1  0  0  0  0
  8 27  1  0  0  0  0
  8 28  1  0  0  0  0
  9 29  1  0  0  0  0
  9 30  1  0  0  0  0
 10 31  1  0  0  0  0
 11 32  1  0  0  0  0
 12 33  1  0  0  0  0
 13 34  1  0  0  0  0
 13 35  1  0  0  0  0
 14 36  1  0  0  0  0
 15 37  1  0  0  0  0
M  END
> <pdb_id>
2YJX

> <uniprot_id>
P07900

> <usmiles>
O=C1N2C(c3c1cccc3)=C(C4=Nc5c(N4)ccnc5)CCC2

$$$$
YK9_A_1224
          07192420423D 1   1.00000     0.00000     0
            
 34 38  0  0  0  0            999 V2000
   71.0542   33.3039   25.8706 O   0  0  0  0  0  0  0  0  0  0  0  0
   80.5835   30.9445   22.8947 N   0  0  0  0  0  0  0  0  0  0  0  0
   77.0427   31.2067   24.1339 N   0  0  0  0  0  0  0  0  0  0  0  0
   76.5827   30.9621   21.9584 N   0  0  0  0  0  0  0  0  0  0  0  0
   80.2738   30.8369   21.5975 C   0  0  0  0  0  0  0  0  0  0  0  0
   79.5836   31.0664   23.7706 C   0  0  0  0  0  0  0  0  0  0  0  0
   74.8492   35.6392   26.5503 C   0  0  0  0  0  0  0  0  0  0  0  0
   75.9312   35.0755   25.8882 C   0  0  0  0  0  0  0  0  0  0  0  0
   72.4798   30.0629   23.1630 C   0  0  0  0  0  0  0  0  0  0  0  0
   78.9807   30.8349   21.1178 C   0  0  0  0  0  0  0  0  0  0  0  0
   73.6001   35.0479   26.4899 C   0  0  0  0  0  0  0  0  0  0  0  0
   73.8477   30.1340   22.9242 C   0  0  0  0  0  0  0  0  0  0  0  0
   75.7879   33.8891   25.1753 C   0  0  0  0  0  0  0  0  0  0  0  0
   71.8812   30.9666   24.0197 C   0  0  0  0  0  0  0  0  0  0  0  0
   76.0877   31.1180   23.2176 C   0  0  0  0  0  0  0  0  0  0  0  0
   72.2042   33.0820   25.4702 C   0  0  0  0  0  0  0  0  0  0  0  0
   78.2324   31.0951   23.4239 C   0  0  0  0  0  0  0  0  0  0  0  0
   77.9645   30.9589   22.0629 C   0  0  0  0  0  0  0  0  0  0  0  0
   74.6395   31.1285   23.5249 C   0  0  0  0  0  0  0  0  0  0  0  0
   73.4313   33.8721   25.7563 C   0  0  0  0  0  0  0  0  0  0  0  0
   72.6548   31.9618   24.6077 C   0  0  0  0  0  0  0  0  0  0  0  0
   74.5363   33.2738   25.1108 C   0  0  0  0  0  0  0  0  0  0  0  0
   74.0581   32.0736   24.3908 C   0  0  0  0  0  0  0  0  0  0  0  0
   76.0499   30.8677   21.1175 H   0  0  0  0  0  0  0  0  0  0  0  0
   81.0216   30.7532   20.9390 H   0  0  0  0  0  0  0  0  0  0  0  0
   79.8185   31.1421   24.7396 H   0  0  0  0  0  0  0  0  0  0  0  0
   74.9739   36.4807   27.0759 H   0  0  0  0  0  0  0  0  0  0  0  0
   76.8229   35.5267   25.9240 H   0  0  0  0  0  0  0  0  0  0  0  0
   71.9296   29.3582   22.7150 H   0  0  0  0  0  0  0  0  0  0  0  0
   78.7826   30.7489   20.1415 H   0  0  0  0  0  0  0  0  0  0  0  0
   72.8241   35.4595   26.9679 H   0  0  0  0  0  0  0  0  0  0  0  0
   74.2757   29.4665   22.3148 H   0  0  0  0  0  0  0  0  0  0  0  0
   76.5749   33.4805   24.7130 H   0  0  0  0  0  0  0  0  0  0  0  0
   70.9023   30.9059   24.2149 H   0  0  0  0  0  0  0  0  0  0  0  0
  1 16  2  0  0  0  0
  2  5  2  0  0  0  0
  2  6  1  0  0  0  0
  3 15  2  0  0  0  0
  3 17  1  0  0  0  0
  4 15  1  0  0  0  0
  4 18  1  0  0  0  0
  5 10  1  0  0  0  0
  6 17  2  0  0  0  0
  7  8  2  0  0  0  0
  7 11  1  0  0  0  0
  8 13  1  0  0  0  0
  9 12  2  0  0  0  0
  9 14  1  0  0  0  0
 10 18  2  0  0  0  0
 11 20  2  0  0  0  0
 12 19  1  0  0  0  0
 13 22  2  0  0  0  0
 14 21  2  0  0  0  0
 15 19  1  0  0  0  0
 16 20  1  0  0  0  0
 16 21  1  0  0  0  0
 17 18  1  0  0  0  0
 19 23  2  0  0  0  0
 20 22  1  0  0  0  0
 21 23  1  0  0  0  0
 22 23  1  0  0  0  0
  4 24  1  0  0  0  0
  5 25  1  0  0  0  0
  6 26  1  0  0  0  0
  7 27  1  0  0  0  0
  8 28  1  0  0  0  0
  9 29  1  0  0  0  0
 10 30  1  0  0  0  0
 11 31  1  0  0  0  0
 12 32  1  0  0  0  0
 13 33  1  0  0  0  0
 14 34  1  0  0  0  0
M  END
> <pdb_id>
2YK9

> <uniprot_id>
P07900

> <usmiles>
O=C1c2c(c3c1cccc3)c(ccc2)C4=Nc5c(N4)ccnc5

$$$$
YKG_A_301
          07212402403D 1   1.00000     0.00000     0
            
 28 29  0  0  0  0            999 V2000
   22.8266   16.4567   10.0927 Br  0  0  0  0  0  0  0  0  0  0  0  0
   18.9878   16.9550   10.7146 P   0  0  0  0  0  0  0  0  0  0  0  0
   17.6678   17.2380   10.2113 O   0  0  0  0  0  0  0  0  0  0  0  0
   19.0683   17.1753   12.0533 O   0  0  0  0  0  0  0  0  0  0  0  0
   19.4780   15.5297   10.4658 O   0  0  0  0  0  0  0  0  0  0  0  0
   18.2063   18.6636    5.4730 O   0  0  0  0  0  0  0  0  0  0  0  0
   20.1298   17.5623    5.7117 O   0  0  0  0  0  0  0  0  0  0  0  0
   24.2609   15.1622    5.3298 C   0  0  0  0  0  0  0  0  0  0  0  0
   20.1715   18.0584    9.8489 C   0  0  0  0  0  0  0  0  0  0  0  0
   23.3213   15.9379    7.4939 C   0  0  0  0  0  0  0  0  0  0  0  0
   22.0932   16.4426    5.5481 C   0  0  0  0  0  0  0  0  0  0  0  0
   19.1862   18.3693    7.6040 C   0  0  0  0  0  0  0  0  0  0  0  0
   22.4006   16.5566    8.2842 C   0  0  0  0  0  0  0  0  0  0  0  0
   19.1901   18.1902    6.2721 C   0  0  0  0  0  0  0  0  0  0  0  0
   21.1346   17.0655    6.3516 C   0  0  0  0  0  0  0  0  0  0  0  0
   23.1821   15.8742    6.1393 C   0  0  0  0  0  0  0  0  0  0  0  0
   20.2054   17.8417    8.3847 C   0  0  0  0  0  0  0  0  0  0  0  0
   21.2629   17.1504    7.6944 C   0  0  0  0  0  0  0  0  0  0  0  0
   17.6427   17.0663    9.2265 H   0  0  0  0  0  0  0  0  0  0  0  0
   19.9945   16.9701   12.3697 H   0  0  0  0  0  0  0  0  0  0  0  0
   24.0252   15.1954    4.3586 H   0  0  0  0  0  0  0  0  0  0  0  0
   25.1403   15.6155    5.4751 H   0  0  0  0  0  0  0  0  0  0  0  0
   24.3245   14.2089    5.6251 H   0  0  0  0  0  0  0  0  0  0  0  0
   21.0869   17.8935   10.2160 H   0  0  0  0  0  0  0  0  0  0  0  0
   19.9081   19.0071   10.0239 H   0  0  0  0  0  0  0  0  0  0  0  0
   24.1228   15.5181    7.9198 H   0  0  0  0  0  0  0  0  0  0  0  0
   21.9821   16.4141    4.5547 H   0  0  0  0  0  0  0  0  0  0  0  0
   18.4455   18.8850    8.0346 H   0  0  0  0  0  0  0  0  0  0  0  0
  1 13  1  0  0  0  0
  2  3  1  0  0  0  0
  2  4  1  0  0  0  0
  2  5  2  0  0  0  0
  2  9  1  0  0  0  0
  6 14  2  0  0  0  0
  7 14  1  0  0  0  0
  7 15  1  0  0  0  0
  8 16  1  0  0  0  0
  9 17  1  0  0  0  0
 10 13  1  0  0  0  0
 10 16  2  0  0  0  0
 11 15  2  0  0  0  0
 11 16  1  0  0  0  0
 12 14  1  0  0  0  0
 12 17  2  0  0  0  0
 13 18  2  0  0  0  0
 15 18  1  0  0  0  0
 17 18  1  0  0  0  0
  3 19  1  0  0  0  0
  4 20  1  0  0  0  0
  8 21  1  0  0  0  0
  8 22  1  0  0  0  0
  8 23  1  0  0  0  0
  9 24  1  0  0  0  0
  9 25  1  0  0  0  0
 10 26  1  0  0  0  0
 11 27  1  0  0  0  0
 12 28  1  0  0  0  0
M  END
> <pdb_id>
6D19

> <uniprot_id>
Q9F663

> <usmiles>
Brc1c2c(OC(=O)C=C2CP(=O)(O)O)cc(c1)C

$$$$
YKG_A_303
          07212402403D 1   1.00000     0.00000     0
            
 28 29  0  0  0  0            999 V2000
   52.0171   11.0018   43.8350 Br  0  0  0  0  0  0  0  0  0  0  0  0
   49.2907    9.1545   46.0054 P   0  0  0  0  0  0  0  0  0  0  0  0
   48.6669    9.6998   44.7290 O   0  0  0  0  0  0  0  0  0  0  0  0
   48.3251    9.0899   47.2017 O   0  0  0  0  0  0  0  0  0  0  0  0
   49.8852    7.7079   45.7139 O   0  0  0  0  0  0  0  0  0  0  0  0
   48.2723   13.4349   48.9716 O   0  0  0  0  0  0  0  0  0  0  0  0
   48.8917   14.0451   47.0567 O   0  0  0  0  0  0  0  0  0  0  0  0
   50.2731   15.8345   42.7798 C   0  0  0  0  0  0  0  0  0  0  0  0
   50.6658   10.2017   46.5403 C   0  0  0  0  0  0  0  0  0  0  0  0
   50.9900   13.5319   43.5160 C   0  0  0  0  0  0  0  0  0  0  0  0
   49.5813   14.8508   44.9515 C   0  0  0  0  0  0  0  0  0  0  0  0
   49.4380   11.9200   47.8484 C   0  0  0  0  0  0  0  0  0  0  0  0
   50.9905   12.5135   44.4511 C   0  0  0  0  0  0  0  0  0  0  0  0
   48.8269   13.1461   48.0158 C   0  0  0  0  0  0  0  0  0  0  0  0
   49.6007   13.8406   45.9267 C   0  0  0  0  0  0  0  0  0  0  0  0
   50.2862   14.6898   43.7878 C   0  0  0  0  0  0  0  0  0  0  0  0
   50.1860   11.6551   46.7344 C   0  0  0  0  0  0  0  0  0  0  0  0
   50.2848   12.6463   45.6802 C   0  0  0  0  0  0  0  0  0  0  0  0
   49.3527    9.7108   44.0012 H   0  0  0  0  0  0  0  0  0  0  0  0
   48.8056    8.7232   47.9984 H   0  0  0  0  0  0  0  0  0  0  0  0
   49.7194   16.5867   43.1369 H   0  0  0  0  0  0  0  0  0  0  0  0
   51.2083   16.1532   42.6252 H   0  0  0  0  0  0  0  0  0  0  0  0
   49.8832   15.5140   41.9166 H   0  0  0  0  0  0  0  0  0  0  0  0
   51.3854   10.1815   45.8463 H   0  0  0  0  0  0  0  0  0  0  0  0
   51.0275    9.8550   47.4058 H   0  0  0  0  0  0  0  0  0  0  0  0
   51.4912   13.4322   42.6564 H   0  0  0  0  0  0  0  0  0  0  0  0
   49.0540   15.6862   45.1062 H   0  0  0  0  0  0  0  0  0  0  0  0
   49.3326   11.2161   48.5508 H   0  0  0  0  0  0  0  0  0  0  0  0
  1 13  1  0  0  0  0
  2  3  1  0  0  0  0
  2  4  1  0  0  0  0
  2  5  2  0  0  0  0
  2  9  1  0  0  0  0
  6 14  2  0  0  0  0
  7 14  1  0  0  0  0
  7 15  1  0  0  0  0
  8 16  1  0  0  0  0
  9 17  1  0  0  0  0
 10 13  1  0  0  0  0
 10 16  2  0  0  0  0
 11 15  2  0  0  0  0
 11 16  1  0  0  0  0
 12 14  1  0  0  0  0
 12 17  2  0  0  0  0
 13 18  2  0  0  0  0
 15 18  1  0  0  0  0
 17 18  1  0  0  0  0
  3 19  1  0  0  0  0
  4 20  1  0  0  0  0
  8 21  1  0  0  0  0
  8 22  1  0  0  0  0
  8 23  1  0  0  0  0
  9 24  1  0  0  0  0
  9 25  1  0  0  0  0
 10 26  1  0  0  0  0
 11 27  1  0  0  0  0
 12 28  1  0  0  0  0
M  END
> <pdb_id>
6D1G

> <uniprot_id>
C7C422

> <usmiles>
Brc1c2c(OC(=O)C=C2CP(=O)(O)O)cc(c1)C

$$$$
YKI_A_1224
          07192420423D 1   1.00000     0.00000     0
            
 52 58  0  0  0  0            999 V2000
   69.6900   33.7848   26.6685 O   0  0  0  0  0  0  0  0  0  0  0  0
   80.3234   31.0600   21.5031 N   0  0  0  0  0  0  0  0  0  0  0  0
   66.0295   34.9382   23.4346 N   0  0  0  0  0  0  0  0  0  0  0  0
   64.8937   33.5792   25.1749 N   0  0  0  0  0  0  0  0  0  0  0  0
   70.8274   33.3733   24.8321 N   0  0  0  0  0  0  0  0  0  0  0  0
   76.5939   30.9599   21.8919 N   0  0  0  0  0  0  0  0  0  0  0  0
   77.0578   31.2746   24.0368 N   0  0  0  0  0  0  0  0  0  0  0  0
   80.6168   31.2563   22.8520 C   0  0  0  0  0  0  0  0  0  0  0  0
   67.2180   35.4248   22.8981 C   0  0  0  0  0  0  0  0  0  0  0  0
   65.3532   32.8385   26.2499 C   0  0  0  0  0  0  0  0  0  0  0  0
   79.0111   30.9448   21.0558 C   0  0  0  0  0  0  0  0  0  0  0  0
   74.3647   35.7760   26.4745 C   0  0  0  0  0  0  0  0  0  0  0  0
   75.5850   35.2458   25.8855 C   0  0  0  0  0  0  0  0  0  0  0  0
   72.5074   29.8312   23.0187 C   0  0  0  0  0  0  0  0  0  0  0  0
   79.5974   31.3532   23.8288 C   0  0  0  0  0  0  0  0  0  0  0  0
   68.4807   35.0976   23.5040 C   0  0  0  0  0  0  0  0  0  0  0  0
   66.7602   32.9160   26.3075 C   0  0  0  0  0  0  0  0  0  0  0  0
   73.1191   35.0893   26.2894 C   0  0  0  0  0  0  0  0  0  0  0  0
   75.5367   34.0370   25.1158 C   0  0  0  0  0  0  0  0  0  0  0  0
   73.9203   29.9800   22.8193 C   0  0  0  0  0  0  0  0  0  0  0  0
   71.8019   30.7985   23.7956 C   0  0  0  0  0  0  0  0  0  0  0  0
   69.6954   33.8000   25.4284 C   0  0  0  0  0  0  0  0  0  0  0  0
   66.0059   34.1127   24.5640 C   0  0  0  0  0  0  0  0  0  0  0  0
   76.0700   31.1060   23.1206 C   0  0  0  0  0  0  0  0  0  0  0  0
   77.9604   31.0344   21.9908 C   0  0  0  0  0  0  0  0  0  0  0  0
   78.2653   31.2362   23.3957 C   0  0  0  0  0  0  0  0  0  0  0  0
   71.8467   32.9675   25.1967 C   0  0  2  0  0  0  0  0  0  0  0  0
   68.4712   34.2489   24.6699 C   0  0  0  0  0  0  0  0  0  0  0  0
   67.1690   33.7548   25.2117 C   0  0  0  0  0  0  0  0  0  0  0  0
   74.6464   31.0640   23.3749 C   0  0  0  0  0  0  0  0  0  0  0  0
   73.0760   33.8708   25.5124 C   0  0  0  0  0  0  0  0  0  0  0  0
   72.4951   31.9221   24.3792 C   0  0  0  0  0  0  0  0  0  0  0  0
   74.2717   33.3288   24.9205 C   0  0  0  0  0  0  0  0  0  0  0  0
   73.8774   32.0976   24.2006 C   0  0  0  0  0  0  0  0  0  0  0  0
   63.9412   33.7026   24.8967 H   0  0  0  0  0  0  0  0  0  0  0  0
   70.7716   33.4188   23.8347 H   0  0  0  0  0  0  0  0  0  0  0  0
   76.9243   31.4055   25.0191 H   0  0  0  0  0  0  0  0  0  0  0  0
   81.5725   31.3306   23.1366 H   0  0  0  0  0  0  0  0  0  0  0  0
   67.1938   36.0063   22.0849 H   0  0  0  0  0  0  0  0  0  0  0  0
   64.7766   32.3274   26.8874 H   0  0  0  0  0  0  0  0  0  0  0  0
   78.8163   30.8006   20.0856 H   0  0  0  0  0  0  0  0  0  0  0  0
   74.3944   36.6205   27.0092 H   0  0  0  0  0  0  0  0  0  0  0  0
   76.4541   35.7226   26.0170 H   0  0  0  0  0  0  0  0  0  0  0  0
   72.0207   29.0557   22.6166 H   0  0  0  0  0  0  0  0  0  0  0  0
   79.8170   31.4998   24.7933 H   0  0  0  0  0  0  0  0  0  0  0  0
   69.3387   35.4479   23.1284 H   0  0  0  0  0  0  0  0  0  0  0  0
   67.3567   32.4747   26.9779 H   0  0  0  0  0  0  0  0  0  0  0  0
   72.2816   35.4528   26.6972 H   0  0  0  0  0  0  0  0  0  0  0  0
   76.3753   33.6749   24.7087 H   0  0  0  0  0  0  0  0  0  0  0  0
   74.4075   29.2992   22.2723 H   0  0  0  0  0  0  0  0  0  0  0  0
   70.8172   30.6968   23.9370 H   0  0  0  0  0  0  0  0  0  0  0  0
   71.6399   32.5145   26.0638 H   0  0  0  0  0  0  0  0  0  0  0  0
  1 22  2  0  0  0  0
  2  8  2  0  0  0  0
  2 11  1  0  0  0  0
  3  9  2  0  0  0  0
  3 23  1  0  0  0  0
  4 10  1  0  0  0  0
  4 23  1  0  0  0  0
  5 22  1  0  0  0  0
  5 27  1  0  0  0  0
  6 24  2  0  0  0  0
  6 25  1  0  0  0  0
  7 24  1  0  0  0  0
  7 26  1  0  0  0  0
  8 15  1  0  0  0  0
  9 16  1  0  0  0  0
 10 17  2  0  0  0  0
 11 25  2  0  0  0  0
 12 13  2  0  0  0  0
 12 18  1  0  0  0  0
 13 19  1  0  0  0  0
 14 20  2  0  0  0  0
 14 21  1  0  0  0  0
 15 26  2  0  0  0  0
 16 28  2  0  0  0  0
 17 29  1  0  0  0  0
 18 31  2  0  0  0  0
 19 33  2  0  0  0  0
 20 30  1  0  0  0  0
 21 32  2  0  0  0  0
 22 28  1  0  0  0  0
 23 29  2  0  0  0  0
 24 30  1  0  0  0  0
 25 26  1  0  0  0  0
 27 31  1  0  0  0  0
 27 32  1  0  0  0  0
 28 29  1  0  0  0  0
 30 34  2  0  0  0  0
 31 33  1  0  0  0  0
 32 34  1  0  0  0  0
 33 34  1  0  0  0  0
  4 35  1  0  0  0  0
  5 36  1  0  0  0  0
  7 37  1  0  0  0  0
  8 38  1  0  0  0  0
  9 39  1  0  0  0  0
 10 40  1  0  0  0  0
 11 41  1  0  0  0  0
 12 42  1  0  0  0  0
 13 43  1  0  0  0  0
 14 44  1  0  0  0  0
 15 45  1  0  0  0  0
 16 46  1  0  0  0  0
 17 47  1  0  0  0  0
 18 48  1  0  0  0  0
 19 49  1  0  0  0  0
 20 50  1  0  0  0  0
 21 51  1  0  0  0  0
 27 52  1  0  0  0  0
M  END
> <pdb_id>
2YKI

> <uniprot_id>
P07900

> <usmiles>
O=C(N[C@H]1c2c(c3c1cccc3)c(ccc2)C4=Nc5c(N4)ccnc5)c6c7c(ncc6)NC=C7

$$$$
YM6_A_1271
          07202402503D 1   1.00000     0.00000     0
            
 37 40  0  0  0  0            999 V2000
    3.1566    3.7356   16.5027 O   0  0  0  0  0  0  0  0  0  0  0  0
    2.1084    4.8394   14.1535 N   0  0  0  0  0  0  0  0  0  0  0  0
    8.6767    8.4860   17.0499 N   0  0  0  0  0  0  0  0  0  0  0  0
    3.8347    9.6412   20.0970 N   0  0  0  0  0  0  0  0  0  0  0  0
    2.6610    7.8106   19.3670 N   0  0  0  0  0  0  0  0  0  0  0  0
    6.0913    9.8649   19.2124 N   0  0  0  0  0  0  0  0  0  0  0  0
    3.4799    6.1947   17.9263 N   0  0  0  0  0  0  0  0  0  0  0  0
    4.4032    4.4437   16.4734 C   0  0  0  0  0  0  0  0  0  0  0  0
    2.7364    8.9074   20.0960 C   0  0  0  0  0  0  0  0  0  0  0  0
    2.2255    5.6175   15.3981 C   0  0  0  0  0  0  0  0  0  0  0  0
    8.0075    7.4229   16.6336 C   0  0  0  0  0  0  0  0  0  0  0  0
    8.1349    9.3444   17.9010 C   0  0  0  0  0  0  0  0  0  0  0  0
    4.5781    5.2293   17.7601 C   0  0  0  0  0  0  0  0  0  0  0  0
    2.1684    5.5396   17.9255 C   0  0  0  0  0  0  0  0  0  0  0  0
    6.7056    7.1758   17.0692 C   0  0  0  0  0  0  0  0  0  0  0  0
    2.0826    4.7091   16.6377 C   0  0  2  0  0  0  0  0  0  0  0  0
    4.8997    9.2851   19.3681 C   0  0  0  0  0  0  0  0  0  0  0  0
    3.6675    7.4162   18.5689 C   0  0  0  0  0  0  0  0  0  0  0  0
    6.8456    9.1517   18.3780 C   0  0  0  0  0  0  0  0  0  0  0  0
    6.1045    8.0572   17.9582 C   0  0  0  0  0  0  0  0  0  0  0  0
    4.8706    8.1157   18.6196 C   0  0  0  0  0  0  0  0  0  0  0  0
    2.2044    5.4506   13.3679 H   0  0  0  0  0  0  0  0  0  0  0  0
    2.8275    4.1451   14.1255 H   0  0  0  0  0  0  0  0  0  0  0  0
    6.3769   10.7132   19.6583 H   0  0  0  0  0  0  0  0  0  0  0  0
    4.4092    5.0733   15.6965 H   0  0  0  0  0  0  0  0  0  0  0  0
    5.1541    3.7901   16.3787 H   0  0  0  0  0  0  0  0  0  0  0  0
    1.9543    9.1862   20.6534 H   0  0  0  0  0  0  0  0  0  0  0  0
    1.5065    6.3122   15.4177 H   0  0  0  0  0  0  0  0  0  0  0  0
    3.1204    6.0633   15.4214 H   0  0  0  0  0  0  0  0  0  0  0  0
    8.4422    6.7864   15.9965 H   0  0  0  0  0  0  0  0  0  0  0  0
    8.6604   10.1397   18.2032 H   0  0  0  0  0  0  0  0  0  0  0  0
    4.5803    4.5966   18.5345 H   0  0  0  0  0  0  0  0  0  0  0  0
    5.4478    5.7219   17.7296 H   0  0  0  0  0  0  0  0  0  0  0  0
    1.4415    6.2262   17.9405 H   0  0  0  0  0  0  0  0  0  0  0  0
    2.0813    4.9445   18.7244 H   0  0  0  0  0  0  0  0  0  0  0  0
    6.2093    6.3709   16.7440 H   0  0  0  0  0  0  0  0  0  0  0  0
    1.2011    4.2380   16.6044 H   0  0  0  0  0  0  0  0  0  0  0  0
  1  8  1  0  0  0  0
  1 16  1  0  0  0  0
  2 10  1  0  0  0  0
  3 11  2  0  0  0  0
  3 12  1  0  0  0  0
  4  9  1  0  0  0  0
  4 17  2  0  0  0  0
  5  9  2  0  0  0  0
  5 18  1  0  0  0  0
  6 17  1  0  0  0  0
  6 19  1  0  0  0  0
  7 13  1  0  0  0  0
  7 14  1  0  0  0  0
  7 18  1  0  0  0  0
  8 13  1  0  0  0  0
 10 16  1  0  0  0  0
 11 15  1  0  0  0  0
 12 19  2  0  0  0  0
 14 16  1  0  0  0  0
 15 20  2  0  0  0  0
 17 21  1  0  0  0  0
 18 21  2  0  0  0  0
 19 20  1  0  0  0  0
 20 21  1  0  0  0  0
  2 22  1  0  0  0  0
  2 23  1  0  0  0  0
  6 24  1  0  0  0  0
  8 25  1  0  0  0  0
  8 26  1  0  0  0  0
  9 27  1  0  0  0  0
 10 28  1  0  0  0  0
 10 29  1  0  0  0  0
 11 30  1  0  0  0  0
 12 31  1  0  0  0  0
 13 32  1  0  0  0  0
 13 33  1  0  0  0  0
 14 34  1  0  0  0  0
 14 35  1  0  0  0  0
 15 36  1  0  0  0  0
 16 37  1  0  0  0  0
M  END
> <pdb_id>
2YM6

> <uniprot_id>
O14757

> <usmiles>
O1[C@@H](CN(c2ncnc3Nc4c(c23)ccnc4)CC1)CN

$$$$
YNE_B_1001
          07202411503D 1   1.00000     0.00000     0
            
 55 59  0  0  0  0            999 V2000
   21.8527  -19.5006  -25.5909 S   0  0  0  0  0  0  0  0  0  0  0  0
   24.1328  -17.5125  -26.0662 O   0  0  0  0  0  0  0  0  0  0  0  0
   24.6512  -20.7959  -23.2985 O   0  0  0  0  0  0  0  0  0  0  0  0
   26.3139  -17.5864  -25.8079 N   0  0  0  0  0  0  0  0  0  0  0  0
   25.8095  -18.7693  -25.2099 N   0  0  0  0  0  0  0  0  0  0  0  0
   23.2166  -13.0450  -25.2736 N   0  0  0  0  0  0  0  0  0  0  0  0
   27.2916  -20.2661  -20.9768 N   0  0  0  0  0  0  0  0  0  0  0  0
   24.5131  -12.7469  -24.9253 N   0  0  0  0  0  0  0  0  0  0  0  0
   24.6834  -11.6063  -23.9733 C   0  0  0  0  0  0  0  0  0  0  0  0
   21.9931  -14.7503  -26.7130 C   0  0  0  0  0  0  0  0  0  0  0  0
   26.9085  -13.5426  -25.2037 C   0  0  0  0  0  0  0  0  0  0  0  0
   26.9247  -21.5592  -21.6522 C   0  0  0  0  0  0  0  0  0  0  0  0
   26.4194  -19.1669  -21.4223 C   0  0  0  0  0  0  0  0  0  0  0  0
   19.6607  -22.3209  -23.6344 C   0  0  0  0  0  0  0  0  0  0  0  0
   20.6444  -22.8480  -22.7808 C   0  0  0  0  0  0  0  0  0  0  0  0
   25.4703  -21.8683  -21.2338 C   0  0  0  0  0  0  0  0  0  0  0  0
   24.8869  -19.4272  -21.2488 C   0  0  0  0  0  0  0  0  0  0  0  0
   19.9474  -21.2759  -24.5679 C   0  0  0  0  0  0  0  0  0  0  0  0
   21.9505  -22.3582  -22.8352 C   0  0  0  0  0  0  0  0  0  0  0  0
   25.2709  -15.6289  -27.1136 C   0  0  0  0  0  0  0  0  0  0  0  0
   25.2708  -16.9175  -26.3278 C   0  0  0  0  0  0  0  0  0  0  0  0
   24.5054  -18.6270  -25.3961 C   0  0  0  0  0  0  0  0  0  0  0  0
   21.2385  -20.7442  -24.5965 C   0  0  0  0  0  0  0  0  0  0  0  0
   24.5250  -20.7943  -21.8332 C   0  0  0  0  0  0  0  0  0  0  0  0
   23.4328  -19.5178  -24.9694 C   0  0  0  0  0  0  0  0  0  0  0  0
   23.4756  -20.5699  -23.9586 C   0  0  0  0  0  0  0  0  0  0  0  0
   23.2314  -14.0753  -26.1516 C   0  0  0  0  0  0  0  0  0  0  0  0
   25.4187  -13.5980  -25.4462 C   0  0  0  0  0  0  0  0  0  0  0  0
   22.2529  -21.3027  -23.7057 C   0  0  0  0  0  0  0  0  0  0  0  0
   24.6647  -14.5242  -26.2783 C   0  0  0  0  0  0  0  0  0  0  0  0
   28.2402  -20.0401  -21.1983 H   0  0  0  0  0  0  0  0  0  0  0  0
   25.6562  -11.4715  -23.7852 H   0  0  0  0  0  0  0  0  0  0  0  0
   24.3039  -10.7745  -24.3785 H   0  0  0  0  0  0  0  0  0  0  0  0
   24.2039  -11.8100  -23.1198 H   0  0  0  0  0  0  0  0  0  0  0  0
   22.2665  -15.4810  -27.3386 H   0  0  0  0  0  0  0  0  0  0  0  0
   21.4554  -15.1367  -25.9637 H   0  0  0  0  0  0  0  0  0  0  0  0
   21.4418  -14.0778  -27.2067 H   0  0  0  0  0  0  0  0  0  0  0  0
   27.3554  -14.2843  -25.7037 H   0  0  0  0  0  0  0  0  0  0  0  0
   27.2654  -12.6640  -25.5212 H   0  0  0  0  0  0  0  0  0  0  0  0
   27.0909  -13.6426  -24.2255 H   0  0  0  0  0  0  0  0  0  0  0  0
   27.5348  -22.2923  -21.3515 H   0  0  0  0  0  0  0  0  0  0  0  0
   26.9859  -21.4608  -22.6454 H   0  0  0  0  0  0  0  0  0  0  0  0
   26.5983  -19.0027  -22.3923 H   0  0  0  0  0  0  0  0  0  0  0  0
   26.6568  -18.3501  -20.8965 H   0  0  0  0  0  0  0  0  0  0  0  0
   18.7315  -22.6876  -23.5877 H   0  0  0  0  0  0  0  0  0  0  0  0
   20.4090  -23.5738  -22.1345 H   0  0  0  0  0  0  0  0  0  0  0  0
   25.3998  -21.8560  -20.2364 H   0  0  0  0  0  0  0  0  0  0  0  0
   25.2092  -22.7712  -21.5753 H   0  0  0  0  0  0  0  0  0  0  0  0
   24.3728  -18.7150  -21.7268 H   0  0  0  0  0  0  0  0  0  0  0  0
   24.6550  -19.4098  -20.2762 H   0  0  0  0  0  0  0  0  0  0  0  0
   19.2396  -20.9339  -25.1860 H   0  0  0  0  0  0  0  0  0  0  0  0
   22.6635  -22.7568  -22.2583 H   0  0  0  0  0  0  0  0  0  0  0  0
   24.7330  -15.7482  -27.9482 H   0  0  0  0  0  0  0  0  0  0  0  0
   26.2106  -15.3863  -27.3546 H   0  0  0  0  0  0  0  0  0  0  0  0
   23.5814  -21.0155  -21.5866 H   0  0  0  0  0  0  0  0  0  0  0  0
  1 23  1  0  0  0  0
  1 25  1  0  0  0  0
  2 21  1  0  0  0  0
  2 22  1  0  0  0  0
  3 24  1  0  0  0  0
  3 26  1  0  0  0  0
  4  5  1  0  0  0  0
  4 21  2  0  0  0  0
  5 22  2  0  0  0  0
  6  8  1  0  0  0  0
  6 27  2  0  0  0  0
  7 12  1  0  0  0  0
  7 13  1  0  0  0  0
  8  9  1  0  0  0  0
  8 28  1  0  0  0  0
 10 27  1  0  0  0  0
 11 28  1  0  0  0  0
 12 16  1  0  0  0  0
 13 17  1  0  0  0  0
 14 15  2  0  0  0  0
 14 18  1  0  0  0  0
 15 19  1  0  0  0  0
 16 24  1  0  0  0  0
 17 24  1  0  0  0  0
 18 23  2  0  0  0  0
 19 29  2  0  0  0  0
 20 21  1  0  0  0  0
 20 30  1  0  0  0  0
 22 25  1  0  0  0  0
 23 29  1  0  0  0  0
 25 26  2  0  0  0  0
 26 29  1  0  0  0  0
 27 30  1  0  0  0  0
 28 30  2  0  0  0  0
  7 31  1  0  0  0  0
  9 32  1  0  0  0  0
  9 33  1  0  0  0  0
  9 34  1  0  0  0  0
 10 35  1  0  0  0  0
 10 36  1  0  0  0  0
 10 37  1  0  0  0  0
 11 38  1  0  0  0  0
 11 39  1  0  0  0  0
 11 40  1  0  0  0  0
 12 41  1  0  0  0  0
 12 42  1  0  0  0  0
 13 43  1  0  0  0  0
 13 44  1  0  0  0  0
 14 45  1  0  0  0  0
 15 46  1  0  0  0  0
 16 47  1  0  0  0  0
 16 48  1  0  0  0  0
 17 49  1  0  0  0  0
 17 50  1  0  0  0  0
 18 51  1  0  0  0  0
 19 52  1  0  0  0  0
 20 53  1  0  0  0  0
 20 54  1  0  0  0  0
 24 55  1  0  0  0  0
M  END
> <pdb_id>
2YNE

> <uniprot_id>
A5K1A2

> <usmiles>
S1c2c(cccc2)C(OC3CCNCC3)=C1C=4OC(=NN4)CC=5C(=NN(C5C)C)C

$$$$
YPG_B_301
          07202405513D 1   1.00000     0.00000     0
            
 54 56  0  0  0  0            999 V2000
   13.1630  -22.7710  -58.9860 P   0  0  0  0  0  0  0  0  0  0  0  0
   17.5130  -15.1170  -64.5420 P   0  0  0  0  0  0  0  0  0  0  0  0
   11.9110  -23.5900  -58.4550 O   0  0  0  0  0  0  0  0  0  0  0  0
   13.2230  -21.3440  -58.3700 O   0  0  0  0  0  0  0  0  0  0  0  0
   14.4520  -23.5180  -58.6530 O   0  0  0  0  0  0  0  0  0  0  0  0
   16.2990  -14.7130  -65.5060 O   0  0  0  0  0  0  0  0  0  0  0  0
   18.7080  -15.5910  -65.4110 O   0  0  0  0  0  0  0  0  0  0  0  0
   17.9110  -13.9180  -63.6820 O   0  0  0  0  0  0  0  0  0  0  0  0
   15.7190  -16.0620  -62.9570 O   0  0  0  0  0  0  0  0  0  0  0  0
   23.9140  -20.4290  -59.1650 O   0  0  0  0  0  0  0  0  0  0  0  0
   15.6700  -23.2470  -61.3300 O   0  0  0  0  0  0  0  0  0  0  0  0
   17.6230  -17.8870  -61.5820 O   0  0  0  0  0  0  0  0  0  0  0  0
   20.4660  -23.3860  -57.7020 N   0  0  0  0  0  0  0  0  0  0  0  0
   21.8120  -19.1490  -61.1260 N   0  0  0  0  0  0  0  0  0  0  0  0
   22.1740  -21.8730  -58.4810 N   0  0  0  0  0  0  0  0  0  0  0  0
   20.0150  -21.7360  -59.3780 N   0  0  0  0  0  0  0  0  0  0  0  0
   16.3980  -21.1270  -61.8870 N   0  0  0  0  0  0  0  0  0  0  0  0
   19.7270  -19.9180  -61.1760 N   0  0  0  0  0  0  0  0  0  0  0  0
   12.9670  -22.6410  -60.8700 C   0  0  0  0  0  0  0  0  0  0  0  0
   17.9120  -16.7330  -62.3760 C   0  0  0  0  0  0  0  0  0  0  0  0
   20.5850  -19.0040  -61.7150 C   0  0  0  0  0  0  0  0  0  0  0  0
   16.2270  -19.6990  -62.1790 C   0  0  0  0  0  0  0  0  0  0  0  0
   17.7830  -21.4640  -61.8960 C   0  0  0  0  0  0  0  0  0  0  0  0
   13.8980  -21.6260  -61.5530 C   0  0  0  0  0  0  0  0  0  0  0  0
   16.9300  -16.4620  -63.4820 C   0  0  2  0  0  0  0  0  0  0  0  0
   22.6350  -20.8410  -59.2580 C   0  0  0  0  0  0  0  0  0  0  0  0
   15.3620  -22.0660  -61.5760 C   0  0  0  0  0  0  0  0  0  0  0  0
   20.9000  -22.3170  -58.5320 C   0  0  0  0  0  0  0  0  0  0  0  0
   17.5810  -19.1320  -62.2330 C   0  0  2  0  0  0  0  0  0  0  0  0
   20.4120  -20.6800  -60.2190 C   0  0  0  0  0  0  0  0  0  0  0  0
   21.7080  -20.2130  -60.1860 C   0  0  0  0  0  0  0  0  0  0  0  0
   18.3240  -20.1340  -61.4610 C   0  0  2  0  0  0  0  0  0  0  0  0
   11.9062  -24.4990  -58.8717 H   0  0  0  0  0  0  0  0  0  0  0  0
   14.0221  -20.8602  -58.7269 H   0  0  0  0  0  0  0  0  0  0  0  0
   15.5234  -14.4059  -64.9545 H   0  0  0  0  0  0  0  0  0  0  0  0
   19.4715  -15.8456  -64.8175 H   0  0  0  0  0  0  0  0  0  0  0  0
   15.3600  -16.7809  -62.3617 H   0  0  0  0  0  0  0  0  0  0  0  0
   19.5192  -23.7042  -57.7507 H   0  0  0  0  0  0  0  0  0  0  0  0
   21.1074  -23.8199  -57.0693 H   0  0  0  0  0  0  0  0  0  0  0  0
   22.8096  -22.3161  -57.8488 H   0  0  0  0  0  0  0  0  0  0  0  0
   12.0228  -22.3762  -61.0659 H   0  0  0  0  0  0  0  0  0  0  0  0
   13.1489  -23.5421  -61.2635 H   0  0  0  0  0  0  0  0  0  0  0  0
   18.8154  -16.8569  -62.7864 H   0  0  0  0  0  0  0  0  0  0  0  0
   17.9268  -15.9363  -61.7718 H   0  0  0  0  0  0  0  0  0  0  0  0
   20.3550  -18.3375  -62.4241 H   0  0  0  0  0  0  0  0  0  0  0  0
   15.6942  -19.2580  -61.4568 H   0  0  0  0  0  0  0  0  0  0  0  0
   15.7639  -19.5768  -63.0568 H   0  0  0  0  0  0  0  0  0  0  0  0
   18.1037  -21.7239  -62.8068 H   0  0  0  0  0  0  0  0  0  0  0  0
   17.9999  -22.1922  -61.2459 H   0  0  0  0  0  0  0  0  0  0  0  0
   13.8356  -20.7575  -61.0613 H   0  0  0  0  0  0  0  0  0  0  0  0
   13.5905  -21.4980  -62.4959 H   0  0  0  0  0  0  0  0  0  0  0  0
   16.8025  -17.2896  -64.0286 H   0  0  0  0  0  0  0  0  0  0  0  0
   17.9164  -19.0679  -63.1729 H   0  0  0  0  0  0  0  0  0  0  0  0
   17.9151  -20.0354  -60.5538 H   0  0  0  0  0  0  0  0  0  0  0  0
  1  3  1  0  0  0  0
  1  4  1  0  0  0  0
  1  5  2  0  0  0  0
  1 19  1  0  0  0  0
  2  6  1  0  0  0  0
  2  7  1  0  0  0  0
  2  8  2  0  0  0  0
  2 25  1  0  0  0  0
  9 25  1  0  0  0  0
 10 26  2  0  0  0  0
 11 27  2  0  0  0  0
 12 20  1  0  0  0  0
 12 29  1  0  0  0  0
 13 28  1  0  0  0  0
 14 21  2  0  0  0  0
 14 31  1  0  0  0  0
 15 26  1  0  0  0  0
 15 28  1  0  0  0  0
 16 28  2  0  0  0  0
 16 30  1  0  0  0  0
 17 22  1  0  0  0  0
 17 23  1  0  0  0  0
 17 27  1  0  0  0  0
 18 21  1  0  0  0  0
 18 30  1  0  0  0  0
 18 32  1  0  0  0  0
 19 24  1  0  0  0  0
 20 25  1  0  0  0  0
 22 29  1  0  0  0  0
 23 32  1  0  0  0  0
 24 27  1  0  0  0  0
 26 31  1  0  0  0  0
 29 32  1  0  0  0  0
 30 31  2  0  0  0  0
  3 33  1  0  0  0  0
  4 34  1  0  0  0  0
  6 35  1  0  0  0  0
  7 36  1  0  0  0  0
  9 37  1  0  0  0  0
 13 38  1  0  0  0  0
 13 39  1  0  0  0  0
 15 40  1  0  0  0  0
 19 41  1  0  0  0  0
 19 42  1  0  0  0  0
 20 43  1  0  0  0  0
 20 44  1  0  0  0  0
 21 45  1  0  0  0  0
 22 46  1  0  0  0  0
 22 47  1  0  0  0  0
 23 48  1  0  0  0  0
 23 49  1  0  0  0  0
 24 50  1  0  0  0  0
 24 51  1  0  0  0  0
 25 52  1  0  0  0  0
 29 53  1  0  0  0  0
 32 54  1  0  0  0  0
M  END
> <pdb_id>
5HIA

> <uniprot_id>
P00492

> <usmiles>
P(=O)(O)(O)[C@H](O)CO[C@H]1[C@H](N2C=3N=C(NC(=O)C3N=C2)N)CN(C(=O)CCP(=O)(O)O)C1

$$$$
YPN_A_1553
          07202405383D 1   1.00000     0.00000     0
            
 19 19  0  0  0  0            999 V2000
   -4.8125   -1.4924   36.2135 Cl  0  0  0  0  0  0  0  0  0  0  0  0
   -1.3042    2.3927   32.9396 S   0  0  0  0  0  0  0  0  0  0  0  0
   -3.7846    4.4921   30.6980 O   0  0  0  0  0  0  0  0  0  0  0  0
   -3.6525    1.6069   34.0457 N   0  0  0  0  0  0  0  0  0  0  0  0
   -2.3580    3.7795   32.4341 C   0  0  0  0  0  0  0  0  0  0  0  0
   -3.2213    3.3417   31.2935 C   0  0  0  0  0  0  0  0  0  0  0  0
   -4.3634    0.7342   34.7701 C   0  0  0  0  0  0  0  0  0  0  0  0
   -1.7484    0.2124   34.3930 C   0  0  0  0  0  0  0  0  0  0  0  0
   -2.4978   -0.6681   35.1293 C   0  0  0  0  0  0  0  0  0  0  0  0
   -2.3524    1.3318   33.8692 C   0  0  0  0  0  0  0  0  0  0  0  0
   -3.8350   -0.4074   35.3225 C   0  0  0  0  0  0  0  0  0  0  0  0
   -4.3664    4.2199   29.9316 H   0  0  0  0  0  0  0  0  0  0  0  0
   -1.7864    4.5480   32.1467 H   0  0  0  0  0  0  0  0  0  0  0  0
   -2.9336    4.0609   33.2019 H   0  0  0  0  0  0  0  0  0  0  0  0
   -2.6692    2.8487   30.6211 H   0  0  0  0  0  0  0  0  0  0  0  0
   -3.9490    2.7441   31.6299 H   0  0  0  0  0  0  0  0  0  0  0  0
   -5.3341    0.9239   34.9176 H   0  0  0  0  0  0  0  0  0  0  0  0
   -0.7750    0.0431   34.2386 H   0  0  0  0  0  0  0  0  0  0  0  0
   -2.0789   -1.4877   35.5203 H   0  0  0  0  0  0  0  0  0  0  0  0
  1 11  1  0  0  0  0
  2  5  1  0  0  0  0
  2 10  1  0  0  0  0
  3  6  1  0  0  0  0
  4  7  2  0  0  0  0
  4 10  1  0  0  0  0
  5  6  1  0  0  0  0
  7 11  1  0  0  0  0
  8  9  1  0  0  0  0
  8 10  2  0  0  0  0
  9 11  2  0  0  0  0
  3 12  1  0  0  0  0
  5 13  1  0  0  0  0
  5 14  1  0  0  0  0
  6 15  1  0  0  0  0
  6 16  1  0  0  0  0
  7 17  1  0  0  0  0
  8 18  1  0  0  0  0
  9 19  1  0  0  0  0
M  END
> <pdb_id>
5AK6

> <uniprot_id>
P34913

> <usmiles>
Clc1cnc(SCCO)cc1

$$$$
YPW_A_2402
          07192418053D 1   1.00000     0.00000     0
            
 49 51  0  0  0  0            999 V2000
    8.9774   16.6435   11.9988 F   0  0  0  0  0  0  0  0  0  0  0  0
    7.6294   16.0895    5.7567 O   0  0  0  0  0  0  0  0  0  0  0  0
    0.8683   19.3135    7.6727 O   0  0  0  0  0  0  0  0  0  0  0  0
    5.1958   14.6300    9.1280 O   0  0  0  0  0  0  0  0  0  0  0  0
    3.0896   14.0611   10.8321 N   0  0  0  0  0  0  0  0  0  0  0  0
    7.4840   18.3969    6.0433 N   0  0  0  0  0  0  0  0  0  0  0  0
    2.3517   20.8985    6.6601 N   0  0  0  0  0  0  0  0  0  0  0  0
    2.0742   16.1506   10.2395 N   0  0  0  0  0  0  0  0  0  0  0  0
    4.1932   16.7414    8.5211 N   0  0  0  0  0  0  0  0  0  0  0  0
   -0.2000   20.1479    7.1963 C   0  0  0  0  0  0  0  0  0  0  0  0
    7.2060   18.7299    4.6587 C   0  0  0  0  0  0  0  0  0  0  0  0
    6.9445   13.5189    7.9661 C   0  0  0  0  0  0  0  0  0  0  0  0
    3.6261   21.3108    6.3784 C   0  0  0  0  0  0  0  0  0  0  0  0
    2.1036   17.3241    9.5260 C   0  0  0  0  0  0  0  0  0  0  0  0
    4.7619   20.6126    6.7857 C   0  0  0  0  0  0  0  0  0  0  0  0
    9.2621   17.7221    9.9038 C   0  0  0  0  0  0  0  0  0  0  0  0
    4.5589   19.4189    7.5256 C   0  0  0  0  0  0  0  0  0  0  0  0
    8.9222   17.8167    8.5315 C   0  0  0  0  0  0  0  0  0  0  0  0
    7.7083   15.8282   10.1659 C   0  0  0  0  0  0  0  0  0  0  0  0
    8.6553   16.7313   10.7040 C   0  0  0  0  0  0  0  0  0  0  0  0
    7.6725   17.0855    6.4788 C   0  0  0  0  0  0  0  0  0  0  0  0
    2.1685   19.7256    7.3874 C   0  0  0  0  0  0  0  0  0  0  0  0
    4.1698   15.5679    9.2334 C   0  0  0  0  0  0  0  0  0  0  0  0
    6.3025   14.8918    8.2278 C   0  0  2  0  0  0  0  0  0  0  0  0
    3.1089   15.2596   10.1047 C   0  0  0  0  0  0  0  0  0  0  0  0
    3.1536   17.6505    8.6549 C   0  0  0  0  0  0  0  0  0  0  0  0
    7.9661   16.9166    7.9496 C   0  0  0  0  0  0  0  0  0  0  0  0
    3.2570   18.9150    7.8632 C   0  0  0  0  0  0  0  0  0  0  0  0
    7.3346   15.8941    8.7745 C   0  0  0  0  0  0  0  0  0  0  0  0
    3.8405   13.4073   10.7386 H   0  0  0  0  0  0  0  0  0  0  0  0
    2.3249   13.8601   11.4444 H   0  0  0  0  0  0  0  0  0  0  0  0
    7.5428   19.1377    6.7124 H   0  0  0  0  0  0  0  0  0  0  0  0
   -1.0779   19.7494    7.4618 H   0  0  0  0  0  0  0  0  0  0  0  0
   -0.1137   21.0605    7.5958 H   0  0  0  0  0  0  0  0  0  0  0  0
   -0.1519   20.2144    6.1996 H   0  0  0  0  0  0  0  0  0  0  0  0
    7.1065   19.7208    4.5677 H   0  0  0  0  0  0  0  0  0  0  0  0
    7.9607   18.4163    4.0825 H   0  0  0  0  0  0  0  0  0  0  0  0
    6.3591   18.2822    4.3717 H   0  0  0  0  0  0  0  0  0  0  0  0
    7.7220   13.6272    7.3466 H   0  0  0  0  0  0  0  0  0  0  0  0
    7.2593   13.1279    8.8309 H   0  0  0  0  0  0  0  0  0  0  0  0
    6.2696   12.9091    7.5506 H   0  0  0  0  0  0  0  0  0  0  0  0
    3.7484   22.1540    5.8549 H   0  0  0  0  0  0  0  0  0  0  0  0
    1.3478   17.9702    9.6315 H   0  0  0  0  0  0  0  0  0  0  0  0
    5.6811   20.9393    6.5658 H   0  0  0  0  0  0  0  0  0  0  0  0
    9.9275   18.3532   10.3024 H   0  0  0  0  0  0  0  0  0  0  0  0
    5.3613   18.9034    7.8265 H   0  0  0  0  0  0  0  0  0  0  0  0
    9.3523   18.5174    7.9623 H   0  0  0  0  0  0  0  0  0  0  0  0
    7.2934   15.1365   10.7570 H   0  0  0  0  0  0  0  0  0  0  0  0
    5.9381   15.2448    7.3660 H   0  0  0  0  0  0  0  0  0  0  0  0
  1 20  1  0  0  0  0
  2 21  2  0  0  0  0
  3 10  1  0  0  0  0
  3 22  1  0  0  0  0
  4 23  1  0  0  0  0
  4 24  1  0  0  0  0
  5 25  1  0  0  0  0
  6 11  1  0  0  0  0
  6 21  1  0  0  0  0
  7 13  1  0  0  0  0
  7 22  2  0  0  0  0
  8 14  1  0  0  0  0
  8 25  2  0  0  0  0
  9 23  2  0  0  0  0
  9 26  1  0  0  0  0
 12 24  1  0  0  0  0
 13 15  2  0  0  0  0
 14 26  2  0  0  0  0
 15 17  1  0  0  0  0
 16 18  2  0  0  0  0
 16 20  1  0  0  0  0
 17 28  2  0  0  0  0
 18 27  1  0  0  0  0
 19 20  2  0  0  0  0
 19 29  1  0  0  0  0
 21 27  1  0  0  0  0
 22 28  1  0  0  0  0
 23 25  1  0  0  0  0
 24 29  1  0  0  0  0
 26 28  1  0  0  0  0
 27 29  2  0  0  0  0
  5 30  1  0  0  0  0
  5 31  1  0  0  0  0
  6 32  1  0  0  0  0
 10 33  1  0  0  0  0
 10 34  1  0  0  0  0
 10 35  1  0  0  0  0
 11 36  1  0  0  0  0
 11 37  1  0  0  0  0
 11 38  1  0  0  0  0
 12 39  1  0  0  0  0
 12 40  1  0  0  0  0
 12 41  1  0  0  0  0
 13 42  1  0  0  0  0
 14 43  1  0  0  0  0
 15 44  1  0  0  0  0
 16 45  1  0  0  0  0
 17 46  1  0  0  0  0
 18 47  1  0  0  0  0
 19 48  1  0  0  0  0
 24 49  1  0  0  0  0
M  END
> <pdb_id>
4CMO

> <uniprot_id>
Q9UM73

> <usmiles>
Fc1cc(c(cc1)C(=O)NC)[C@H](Oc2nc(c3c(OC)nccc3)cnc2N)C

$$$$
YS1_F_404
          07192423193D 1   1.00000     0.00000     0
            
 44 46  0  0  0  0            999 V2000
   16.1675   33.8421   -9.4095 P   0  0  0  0  0  0  0  0  0  0  0  0
   15.0535   35.4273   -7.1154 P   0  0  0  0  0  0  0  0  0  0  0  0
   15.9302   32.5474  -10.2977 O   0  0  0  0  0  0  0  0  0  0  0  0
   17.5434   33.6923   -8.7290 O   0  0  0  0  0  0  0  0  0  0  0  0
   15.9228   35.0764  -10.1828 O   0  0  0  0  0  0  0  0  0  0  0  0
   13.9819   35.3055   -6.0084 O   0  0  0  0  0  0  0  0  0  0  0  0
   16.3849   35.4624   -6.4144 O   0  0  0  0  0  0  0  0  0  0  0  0
   14.8064   36.5273   -8.0600 O   0  0  0  0  0  0  0  0  0  0  0  0
   19.2397   25.2749   -5.4258 O   0  0  0  0  0  0  0  0  0  0  0  0
   13.8569   31.2012   -8.4370 N   0  0  0  0  0  0  0  0  0  0  0  0
   15.1093   32.7571   -7.1134 N   0  0  0  0  0  0  0  0  0  0  0  0
   13.7146   29.8249   -8.7872 C   0  0  0  0  0  0  0  0  0  0  0  0
   14.5415   28.8022   -8.2454 C   0  0  0  0  0  0  0  0  0  0  0  0
   19.9022   23.3984   -4.0025 C   0  0  0  0  0  0  0  0  0  0  0  0
   19.3350   24.6253   -3.5234 C   0  0  0  0  0  0  0  0  0  0  0  0
   16.9915   25.8387   -6.0886 C   0  0  0  0  0  0  0  0  0  0  0  0
   18.6504   27.4737   -6.1067 C   0  0  0  0  0  0  0  0  0  0  0  0
   16.1074   26.8028   -6.5612 C   0  0  0  0  0  0  0  0  0  0  0  0
   17.7521   28.4219   -6.5893 C   0  0  0  0  0  0  0  0  0  0  0  0
   15.6672   30.4829   -6.9869 C   0  0  0  0  0  0  0  0  0  0  0  0
   14.9122   33.8720   -8.0575 C   0  0  0  0  0  0  0  0  0  0  0  0
   14.8465   31.4854   -7.5100 C   0  0  0  0  0  0  0  0  0  0  0  0
   18.9040   24.0535   -4.7578 C   0  0  0  0  0  0  0  0  0  0  0  0
   18.2815   26.1693   -5.8251 C   0  0  0  0  0  0  0  0  0  0  0  0
   16.4288   28.1199   -6.8040 C   0  0  0  0  0  0  0  0  0  0  0  0
   15.5421   29.1064   -7.3244 C   0  0  0  0  0  0  0  0  0  0  0  0
   15.0429   32.6142  -10.7540 H   0  0  0  0  0  0  0  0  0  0  0  0
   17.7231   34.4949   -8.1602 H   0  0  0  0  0  0  0  0  0  0  0  0
   13.0734   35.2781   -6.4255 H   0  0  0  0  0  0  0  0  0  0  0  0
   17.1163   35.5411   -7.0918 H   0  0  0  0  0  0  0  0  0  0  0  0
   15.4350   32.9366   -6.1851 H   0  0  0  0  0  0  0  0  0  0  0  0
   13.0031   29.5686   -9.4415 H   0  0  0  0  0  0  0  0  0  0  0  0
   14.4032   27.8532   -8.5290 H   0  0  0  0  0  0  0  0  0  0  0  0
   19.6935   22.5371   -3.5392 H   0  0  0  0  0  0  0  0  0  0  0  0
   20.8462   23.3795   -4.3319 H   0  0  0  0  0  0  0  0  0  0  0  0
   19.8802   25.4636   -3.5217 H   0  0  0  0  0  0  0  0  0  0  0  0
   18.7276   24.6212   -2.7290 H   0  0  0  0  0  0  0  0  0  0  0  0
   16.6765   24.9009   -5.9427 H   0  0  0  0  0  0  0  0  0  0  0  0
   19.6009   27.7461   -5.9574 H   0  0  0  0  0  0  0  0  0  0  0  0
   15.1654   26.5176   -6.7384 H   0  0  0  0  0  0  0  0  0  0  0  0
   18.0785   29.3468   -6.7847 H   0  0  0  0  0  0  0  0  0  0  0  0
   16.3821   30.7475   -6.3396 H   0  0  0  0  0  0  0  0  0  0  0  0
   13.9970   33.8094   -8.4556 H   0  0  0  0  0  0  0  0  0  0  0  0
   17.9893   23.6589   -4.8453 H   0  0  0  0  0  0  0  0  0  0  0  0
  1  3  1  0  0  0  0
  1  4  1  0  0  0  0
  1  5  2  0  0  0  0
  1 21  1  0  0  0  0
  2  6  1  0  0  0  0
  2  7  1  0  0  0  0
  2  8  2  0  0  0  0
  2 21  1  0  0  0  0
  9 23  1  0  0  0  0
  9 24  1  0  0  0  0
 10 12  2  0  0  0  0
 10 22  1  0  0  0  0
 11 21  1  0  0  0  0
 11 22  1  0  0  0  0
 12 13  1  0  0  0  0
 13 26  2  0  0  0  0
 14 15  1  0  0  0  0
 14 23  1  0  0  0  0
 15 23  1  0  0  0  0
 16 18  1  0  0  0  0
 16 24  2  0  0  0  0
 17 19  2  0  0  0  0
 17 24  1  0  0  0  0
 18 25  2  0  0  0  0
 19 25  1  0  0  0  0
 20 22  2  0  0  0  0
 20 26  1  0  0  0  0
 25 26  1  0  0  0  0
  3 27  1  0  0  0  0
  4 28  1  0  0  0  0
  6 29  1  0  0  0  0
  7 30  1  0  0  0  0
 11 31  1  0  0  0  0
 12 32  1  0  0  0  0
 13 33  1  0  0  0  0
 14 34  1  0  0  0  0
 14 35  1  0  0  0  0
 15 36  1  0  0  0  0
 15 37  1  0  0  0  0
 16 38  1  0  0  0  0
 17 39  1  0  0  0  0
 18 40  1  0  0  0  0
 19 41  1  0  0  0  0
 20 42  1  0  0  0  0
 21 43  1  0  0  0  0
 23 44  1  0  0  0  0
M  END
> <pdb_id>
4PVX

> <uniprot_id>
P14324

> <usmiles>
P(=O)(O)(O)C(P(=O)(O)O)Nc1nccc(c2ccc(OC3CC3)cc2)c1

$$$$
YS3_A_501
          07202400393D 1   1.00000     0.00000     0
            
 73 75  0  0  0  0            999 V2000
   15.5268    4.9218   17.9994 O   0  0  0  0  0  0  0  0  0  0  0  0
   17.5463    8.3009   19.1244 O   0  0  0  0  0  0  0  0  0  0  0  0
   10.6345   -0.9401   28.2380 O   0  0  0  0  0  0  0  0  0  0  0  0
   14.0286    1.4620   28.7557 C   0  0  0  0  0  0  0  0  0  0  0  0
   15.1278    7.4259   17.0310 C   0  0  0  0  0  0  0  0  0  0  0  0
    8.7783    0.5318   27.9070 C   0  0  0  0  0  0  0  0  0  0  0  0
   10.0470   -0.4208   25.9936 C   0  0  0  0  0  0  0  0  0  0  0  0
   13.1496    4.2040   25.0957 C   0  0  0  0  0  0  0  0  0  0  0  0
   14.6484    6.7748   26.4159 C   0  0  0  0  0  0  0  0  0  0  0  0
   15.6526    6.8275   22.5300 C   0  0  0  0  0  0  0  0  0  0  0  0
   15.9455    6.7297   25.5480 C   0  0  0  0  0  0  0  0  0  0  0  0
   15.9918    5.6267   23.1695 C   0  0  0  0  0  0  0  0  0  0  0  0
   12.3747    1.4336   26.8293 C   0  0  0  0  0  0  0  0  0  0  0  0
   15.0904    1.9169   25.5770 C   0  0  0  0  0  0  0  0  0  0  0  0
   15.9080    2.8862   24.6890 C   0  0  0  0  0  0  0  0  0  0  0  0
   15.1859    5.8752   20.2282 C   0  0  0  0  0  0  0  0  0  0  0  0
   15.5405    8.4023   20.5669 C   0  0  0  0  0  0  0  0  0  0  0  0
   14.2886    5.3982   27.0593 C   0  0  0  0  0  0  0  0  0  0  0  0
   11.1051    1.3463   27.6645 C   0  0  0  0  0  0  0  0  0  0  0  0
   15.9470    5.9142   18.8874 C   0  0  2  0  0  0  0  0  0  0  0  0
   16.1217    8.4553   19.1126 C   0  0  2  0  0  0  0  0  0  0  0  0
   13.4104    2.2483   27.5825 C   0  0  2  0  0  0  0  0  0  0  0  0
   15.6954    6.9914   21.1493 C   0  0  0  0  0  0  0  0  0  0  0  0
   15.6596    7.2670   18.2837 C   0  0  0  0  0  0  0  0  0  0  0  0
   15.9227    5.5280   24.5841 C   0  0  0  0  0  0  0  0  0  0  0  0
   14.5773    2.8230   26.7354 C   0  0  2  0  0  0  0  0  0  0  0  0
   15.7408    4.2387   25.3910 C   0  0  1  0  0  0  0  0  0  0  0  0
   10.1496    0.1237   27.4448 C   0  0  0  0  0  0  0  0  0  0  0  0
   14.3549    4.1977   26.0519 C   0  0  1  0  0  0  0  0  0  0  0  0
   16.0498    4.9914   17.1499 H   0  0  0  0  0  0  0  0  0  0  0  0
   17.8934    8.3380   18.1873 H   0  0  0  0  0  0  0  0  0  0  0  0
   11.5461   -1.2029   27.9220 H   0  0  0  0  0  0  0  0  0  0  0  0
   14.7029    2.0345   29.2222 H   0  0  0  0  0  0  0  0  0  0  0  0
   13.3086    1.2030   29.3996 H   0  0  0  0  0  0  0  0  0  0  0  0
   14.4753    0.6383   28.4063 H   0  0  0  0  0  0  0  0  0  0  0  0
   14.9549    8.3438   16.6740 H   0  0  0  0  0  0  0  0  0  0  0  0
   14.9125    6.6239   16.4739 H   0  0  0  0  0  0  0  0  0  0  0  0
    8.4454    1.2845   27.3391 H   0  0  0  0  0  0  0  0  0  0  0  0
    8.1548   -0.2461   27.8283 H   0  0  0  0  0  0  0  0  0  0  0  0
    8.8226    0.8283   28.8610 H   0  0  0  0  0  0  0  0  0  0  0  0
    9.7060    0.3002   25.3904 H   0  0  0  0  0  0  0  0  0  0  0  0
   10.9509   -0.7152   25.6833 H   0  0  0  0  0  0  0  0  0  0  0  0
    9.4180   -1.1979   25.9728 H   0  0  0  0  0  0  0  0  0  0  0  0
   13.2188    3.4295   24.4669 H   0  0  0  0  0  0  0  0  0  0  0  0
   12.3041    4.1294   25.6245 H   0  0  0  0  0  0  0  0  0  0  0  0
   13.1423    5.0572   24.5741 H   0  0  0  0  0  0  0  0  0  0  0  0
   13.8872    7.0623   25.8345 H   0  0  0  0  0  0  0  0  0  0  0  0
   14.7793    7.4431   27.1481 H   0  0  0  0  0  0  0  0  0  0  0  0
   16.2634    7.5229   22.9086 H   0  0  0  0  0  0  0  0  0  0  0  0
   14.7111    7.0273   22.8016 H   0  0  0  0  0  0  0  0  0  0  0  0
   16.7396    6.6507   26.1506 H   0  0  0  0  0  0  0  0  0  0  0  0
   16.0130    7.5741   25.0166 H   0  0  0  0  0  0  0  0  0  0  0  0
   16.2831    4.8381   22.6280 H   0  0  0  0  0  0  0  0  0  0  0  0
   12.1711    1.8761   25.9559 H   0  0  0  0  0  0  0  0  0  0  0  0
   12.7294    0.5136   26.6621 H   0  0  0  0  0  0  0  0  0  0  0  0
   15.6693    1.1814   25.9290 H   0  0  0  0  0  0  0  0  0  0  0  0
   14.3259    1.5239   25.0661 H   0  0  0  0  0  0  0  0  0  0  0  0
   15.5393    2.9174   23.7600 H   0  0  0  0  0  0  0  0  0  0  0  0
   16.8703    2.6163   24.6569 H   0  0  0  0  0  0  0  0  0  0  0  0
   15.3334    4.9892   20.6678 H   0  0  0  0  0  0  0  0  0  0  0  0
   14.2089    6.0048   20.0590 H   0  0  0  0  0  0  0  0  0  0  0  0
   14.5708    8.6454   20.5439 H   0  0  0  0  0  0  0  0  0  0  0  0
   16.0339    9.0536   21.1435 H   0  0  0  0  0  0  0  0  0  0  0  0
   13.3594    5.4533   27.4248 H   0  0  0  0  0  0  0  0  0  0  0  0
   14.9303    5.2206   27.8054 H   0  0  0  0  0  0  0  0  0  0  0  0
   10.5735    2.1733   27.4814 H   0  0  0  0  0  0  0  0  0  0  0  0
   11.3835    1.3349   28.6249 H   0  0  0  0  0  0  0  0  0  0  0  0
   16.9286    5.8222   19.0548 H   0  0  0  0  0  0  0  0  0  0  0  0
   15.8671    9.3129   18.6658 H   0  0  0  0  0  0  0  0  0  0  0  0
   12.9297    3.0300   27.9800 H   0  0  0  0  0  0  0  0  0  0  0  0
   16.6783    6.8723   21.0090 H   0  0  0  0  0  0  0  0  0  0  0  0
   15.3477    2.9418   27.3618 H   0  0  0  0  0  0  0  0  0  0  0  0
   16.4127    4.2645   26.1312 H   0  0  0  0  0  0  0  0  0  0  0  0
  1 20  1  0  0  0  0
  2 21  1  0  0  0  0
  3 28  1  0  0  0  0
  4 22  1  0  0  0  0
  5 24  2  0  0  0  0
  6 28  1  0  0  0  0
  7 28  1  0  0  0  0
  8 29  1  0  0  0  0
  9 11  1  0  0  0  0
  9 18  1  0  0  0  0
 10 12  1  0  0  0  0
 10 23  1  0  0  0  0
 11 25  1  0  0  0  0
 12 25  2  0  0  0  0
 13 19  1  0  0  0  0
 13 22  1  0  0  0  0
 14 15  1  0  0  0  0
 14 26  1  0  0  0  0
 15 27  1  0  0  0  0
 16 20  1  0  0  0  0
 16 23  1  0  0  0  0
 17 21  1  0  0  0  0
 17 23  1  0  0  0  0
 18 29  1  0  0  0  0
 19 28  1  0  0  0  0
 20 24  1  0  0  0  0
 21 24  1  0  0  0  0
 22 26  1  0  0  0  0
 25 27  1  0  0  0  0
 26 29  1  0  0  0  0
 27 29  1  0  0  0  0
  1 30  1  0  0  0  0
  2 31  1  0  0  0  0
  3 32  1  0  0  0  0
  4 33  1  0  0  0  0
  4 34  1  0  0  0  0
  4 35  1  0  0  0  0
  5 36  1  0  0  0  0
  5 37  1  0  0  0  0
  6 38  1  0  0  0  0
  6 39  1  0  0  0  0
  6 40  1  0  0  0  0
  7 41  1  0  0  0  0
  7 42  1  0  0  0  0
  7 43  1  0  0  0  0
  8 44  1  0  0  0  0
  8 45  1  0  0  0  0
  8 46  1  0  0  0  0
  9 47  1  0  0  0  0
  9 48  1  0  0  0  0
 10 49  1  0  0  0  0
 10 50  1  0  0  0  0
 11 51  1  0  0  0  0
 11 52  1  0  0  0  0
 12 53  1  0  0  0  0
 13 54  1  0  0  0  0
 13 55  1  0  0  0  0
 14 56  1  0  0  0  0
 14 57  1  0  0  0  0
 15 58  1  0  0  0  0
 15 59  1  0  0  0  0
 16 60  1  0  0  0  0
 16 61  1  0  0  0  0
 17 62  1  0  0  0  0
 17 63  1  0  0  0  0
 18 64  1  0  0  0  0
 18 65  1  0  0  0  0
 19 66  1  0  0  0  0
 19 67  1  0  0  0  0
 20 68  1  0  0  0  0
 21 69  1  0  0  0  0
 22 70  1  0  0  0  0
 23 71  1  0  0  0  0
 26 72  1  0  0  0  0
 27 73  1  0  0  0  0
M  END
> <pdb_id>
3VRU

> <uniprot_id>
P13053

> <usmiles>
OC(CC[C@H]([C@@H]1[C@@]2([C@H](/C(=C/CC3C[C@@H](O)C(=C)[C@H](O)C3)/CCC2)CC1)C)C)(C)C

$$$$
YS4_F_401
          07192423193D 1   1.00000     0.00000     0
            
 46 47  0  0  0  0            999 V2000
   15.0580   35.3280   -7.0830 P   0  0  0  0  0  0  0  0  0  0  0  0
   16.1540   33.8550   -9.4970 P   0  0  0  0  0  0  0  0  0  0  0  0
   14.8450   36.5870   -7.9400 O   0  0  0  0  0  0  0  0  0  0  0  0
   16.4400   35.4000   -6.4240 O   0  0  0  0  0  0  0  0  0  0  0  0
   14.0780   35.1500   -5.9180 O   0  0  0  0  0  0  0  0  0  0  0  0
   17.5570   33.7080   -8.7730 O   0  0  0  0  0  0  0  0  0  0  0  0
   15.9720   32.5800  -10.3420 O   0  0  0  0  0  0  0  0  0  0  0  0
   16.0610   35.0730  -10.3990 O   0  0  0  0  0  0  0  0  0  0  0  0
   18.2850   24.5190   -5.4980 O   0  0  0  0  0  0  0  0  0  0  0  0
   13.9000   31.1470   -8.4950 N   0  0  0  0  0  0  0  0  0  0  0  0
   15.1780   32.6830   -7.2530 N   0  0  0  0  0  0  0  0  0  0  0  0
   20.4070   25.3410   -4.9510 C   0  0  0  0  0  0  0  0  0  0  0  0
   19.6270   23.1530   -4.3230 C   0  0  0  0  0  0  0  0  0  0  0  0
   13.6390   29.8680   -8.8930 C   0  0  0  0  0  0  0  0  0  0  0  0
   14.3890   28.8360   -8.3600 C   0  0  0  0  0  0  0  0  0  0  0  0
   16.9220   25.6470   -7.0950 C   0  0  0  0  0  0  0  0  0  0  0  0
   17.7000   26.9200   -5.2450 C   0  0  0  0  0  0  0  0  0  0  0  0
   16.1980   26.7360   -7.6190 C   0  0  0  0  0  0  0  0  0  0  0  0
   16.9600   28.0090   -5.7980 C   0  0  0  0  0  0  0  0  0  0  0  0
   15.6940   30.3400   -7.0720 C   0  0  0  0  0  0  0  0  0  0  0  0
   14.9310   33.8420   -8.1510 C   0  0  0  0  0  0  0  0  0  0  0  0
   19.1730   24.6200   -4.4830 C   0  0  0  0  0  0  0  0  0  0  0  0
   14.8940   31.3970   -7.5640 C   0  0  0  0  0  0  0  0  0  0  0  0
   17.6300   25.7040   -5.9010 C   0  0  0  0  0  0  0  0  0  0  0  0
   16.2020   27.8970   -6.9680 C   0  0  0  0  0  0  0  0  0  0  0  0
   15.4330   29.0410   -7.4610 C   0  0  0  0  0  0  0  0  0  0  0  0
   13.9447   36.5469   -8.3733 H   0  0  0  0  0  0  0  0  0  0  0  0
   16.5855   34.5839   -5.8647 H   0  0  0  0  0  0  0  0  0  0  0  0
   17.7262   34.5149   -8.2071 H   0  0  0  0  0  0  0  0  0  0  0  0
   15.0964   32.6212  -10.8232 H   0  0  0  0  0  0  0  0  0  0  0  0
   15.5821   32.8666   -6.3569 H   0  0  0  0  0  0  0  0  0  0  0  0
   21.0584   25.4117   -4.1956 H   0  0  0  0  0  0  0  0  0  0  0  0
   20.8243   24.8330   -5.7045 H   0  0  0  0  0  0  0  0  0  0  0  0
   20.1589   26.2577   -5.2641 H   0  0  0  0  0  0  0  0  0  0  0  0
   20.3003   23.0909   -3.5862 H   0  0  0  0  0  0  0  0  0  0  0  0
   18.8367   22.5818   -4.1014 H   0  0  0  0  0  0  0  0  0  0  0  0
   20.0381   22.8362   -5.1778 H   0  0  0  0  0  0  0  0  0  0  0  0
   12.9172   29.6803   -9.5592 H   0  0  0  0  0  0  0  0  0  0  0  0
   14.1718   27.8987   -8.6326 H   0  0  0  0  0  0  0  0  0  0  0  0
   16.9265   24.7891   -7.6088 H   0  0  0  0  0  0  0  0  0  0  0  0
   18.2475   27.0320   -4.4158 H   0  0  0  0  0  0  0  0  0  0  0  0
   15.6858   26.6377   -8.4722 H   0  0  0  0  0  0  0  0  0  0  0  0
   16.9849   28.8911   -5.3276 H   0  0  0  0  0  0  0  0  0  0  0  0
   16.4475   30.5328   -6.4434 H   0  0  0  0  0  0  0  0  0  0  0  0
   14.0094   33.7806   -8.5342 H   0  0  0  0  0  0  0  0  0  0  0  0
   18.7798   25.0068   -3.6489 H   0  0  0  0  0  0  0  0  0  0  0  0
  1  3  1  0  0  0  0
  1  4  1  0  0  0  0
  1  5  2  0  0  0  0
  1 21  1  0  0  0  0
  2  6  1  0  0  0  0
  2  7  1  0  0  0  0
  2  8  2  0  0  0  0
  2 21  1  0  0  0  0
  9 22  1  0  0  0  0
  9 24  1  0  0  0  0
 10 14  2  0  0  0  0
 10 23  1  0  0  0  0
 11 21  1  0  0  0  0
 11 23  1  0  0  0  0
 12 22  1  0  0  0  0
 13 22  1  0  0  0  0
 14 15  1  0  0  0  0
 15 26  2  0  0  0  0
 16 18  1  0  0  0  0
 16 24  2  0  0  0  0
 17 19  2  0  0  0  0
 17 24  1  0  0  0  0
 18 25  2  0  0  0  0
 19 25  1  0  0  0  0
 20 23  2  0  0  0  0
 20 26  1  0  0  0  0
 25 26  1  0  0  0  0
  3 27  1  0  0  0  0
  4 28  1  0  0  0  0
  6 29  1  0  0  0  0
  7 30  1  0  0  0  0
 11 31  1  0  0  0  0
 12 32  1  0  0  0  0
 12 33  1  0  0  0  0
 12 34  1  0  0  0  0
 13 35  1  0  0  0  0
 13 36  1  0  0  0  0
 13 37  1  0  0  0  0
 14 38  1  0  0  0  0
 15 39  1  0  0  0  0
 16 40  1  0  0  0  0
 17 41  1  0  0  0  0
 18 42  1  0  0  0  0
 19 43  1  0  0  0  0
 20 44  1  0  0  0  0
 21 45  1  0  0  0  0
 22 46  1  0  0  0  0
M  END
> <pdb_id>
4DEM

> <uniprot_id>
P14324

> <usmiles>
P(=O)(O)(O)C(P(=O)(O)O)Nc1nccc(c2ccc(OC(C)C)cc2)c1

$$$$
YSA_B_501
          07202411083D 1   1.00000     0.00000     0
            
 58 61  0  0  0  0            999 V2000
  -30.8080    3.2010  -10.7640 S   0  0  0  0  0  0  0  0  0  0  0  0
  -30.2520    4.2290  -11.5740 O   0  0  0  0  0  0  0  0  0  0  0  0
  -30.2400    1.9020  -10.7400 O   0  0  0  0  0  0  0  0  0  0  0  0
  -32.5420    3.2420  -13.2100 O   0  0  0  0  0  0  0  0  0  0  0  0
  -39.7270   -1.0830  -11.4340 O   0  0  0  0  0  0  0  0  0  0  0  0
  -33.0400    7.2980   -7.5860 O   0  0  0  0  0  0  0  0  0  0  0  0
  -34.1220    4.9120   -6.8510 O   0  0  0  0  0  0  0  0  0  0  0  0
  -30.7440    3.7330   -9.2620 O   0  0  0  0  0  0  0  0  0  0  0  0
  -30.8740    4.6210   -6.5990 O   0  0  0  0  0  0  0  0  0  0  0  0
  -27.2690   10.2710   -5.3030 N   0  0  0  0  0  0  0  0  0  0  0  0
  -35.3160    3.0890  -13.0990 N   0  0  0  0  0  0  0  0  0  0  0  0
  -32.3850    3.2660  -10.9730 N   0  0  0  0  0  0  0  0  0  0  0  0
  -29.0710    9.7900   -3.9360 N   0  0  0  0  0  0  0  0  0  0  0  0
  -30.6860    8.0610   -4.3980 N   0  0  0  0  0  0  0  0  0  0  0  0
  -28.2960    7.9420   -7.0600 N   0  0  0  0  0  0  0  0  0  0  0  0
  -30.1780    6.8650   -6.4580 N   0  0  0  0  0  0  0  0  0  0  0  0
  -31.3750    2.9070   -8.2250 C   0  0  0  0  0  0  0  0  0  0  0  0
  -30.1590    9.0570   -3.6770 C   0  0  0  0  0  0  0  0  0  0  0  0
  -29.1390    6.9790   -7.3460 C   0  0  0  0  0  0  0  0  0  0  0  0
  -37.5470   -0.9230  -12.3940 C   0  0  0  0  0  0  0  0  0  0  0  0
  -38.1450    0.4650  -10.5260 C   0  0  0  0  0  0  0  0  0  0  0  0
  -36.2900   -0.3500  -12.4110 C   0  0  0  0  0  0  0  0  0  0  0  0
  -36.8930    1.0570  -10.5750 C   0  0  0  0  0  0  0  0  0  0  0  0
  -34.5690    1.2700  -11.5450 C   0  0  0  0  0  0  0  0  0  0  0  0
  -33.0960    3.1270  -12.1150 C   0  0  0  0  0  0  0  0  0  0  0  0
  -38.4790   -0.5210  -11.4470 C   0  0  0  0  0  0  0  0  0  0  0  0
  -32.2100    6.1550   -7.7360 C   0  0  2  0  0  0  0  0  0  0  0  0
  -32.9870    4.8310   -7.7040 C   0  0  1  0  0  0  0  0  0  0  0  0
  -31.3240    5.9640   -6.5170 C   0  0  1  0  0  0  0  0  0  0  0  0
  -28.3650    9.5400   -5.0600 C   0  0  0  0  0  0  0  0  0  0  0  0
  -31.9440    3.8320   -7.1750 C   0  0  2  0  0  0  0  0  0  0  0  0
  -34.5510    2.7770  -11.8820 C   0  0  1  0  0  0  0  0  0  0  0  0
  -29.9630    7.8320   -5.5050 C   0  0  0  0  0  0  0  0  0  0  0  0
  -28.8120    8.4970   -5.8980 C   0  0  0  0  0  0  0  0  0  0  0  0
  -35.9440    0.6510  -11.5130 C   0  0  0  0  0  0  0  0  0  0  0  0
  -40.3986   -0.7936  -10.7519 H   0  0  0  0  0  0  0  0  0  0  0  0
  -32.4777    8.1244   -7.6151 H   0  0  0  0  0  0  0  0  0  0  0  0
  -34.6039    4.0358   -6.8532 H   0  0  0  0  0  0  0  0  0  0  0  0
  -26.7298   10.1045   -6.1286 H   0  0  0  0  0  0  0  0  0  0  0  0
  -26.9900   10.9832   -4.6588 H   0  0  0  0  0  0  0  0  0  0  0  0
  -35.2751    4.0725  -13.2755 H   0  0  0  0  0  0  0  0  0  0  0  0
  -34.9242    2.5946  -13.8749 H   0  0  0  0  0  0  0  0  0  0  0  0
  -32.9234    3.4324  -10.1469 H   0  0  0  0  0  0  0  0  0  0  0  0
  -30.6942    2.3022   -7.8118 H   0  0  0  0  0  0  0  0  0  0  0  0
  -32.1079    2.3583   -8.6273 H   0  0  0  0  0  0  0  0  0  0  0  0
  -30.6431    9.2835   -2.8318 H   0  0  0  0  0  0  0  0  0  0  0  0
  -29.0337    6.3811   -8.1406 H   0  0  0  0  0  0  0  0  0  0  0  0
  -37.7853   -1.6267  -13.0633 H   0  0  0  0  0  0  0  0  0  0  0  0
  -38.8060    0.7463   -9.8303 H   0  0  0  0  0  0  0  0  0  0  0  0
  -35.6173   -0.6617  -13.0820 H   0  0  0  0  0  0  0  0  0  0  0  0
  -36.6667    1.7857   -9.9286 H   0  0  0  0  0  0  0  0  0  0  0  0
  -34.1501    1.1464  -10.6454 H   0  0  0  0  0  0  0  0  0  0  0  0
  -34.0265    0.7896  -12.2342 H   0  0  0  0  0  0  0  0  0  0  0  0
  -31.6592    6.2232   -8.5678 H   0  0  0  0  0  0  0  0  0  0  0  0
  -33.2694    4.5757   -8.6287 H   0  0  0  0  0  0  0  0  0  0  0  0
  -31.8741    6.0767   -5.6895 H   0  0  0  0  0  0  0  0  0  0  0  0
  -32.3627    3.2811   -6.4531 H   0  0  0  0  0  0  0  0  0  0  0  0
  -34.9087    3.3030  -11.1104 H   0  0  0  0  0  0  0  0  0  0  0  0
  1  2  2  0  0  0  0
  1  3  2  0  0  0  0
  1  8  1  0  0  0  0
  1 12  1  0  0  0  0
  4 25  2  0  0  0  0
  5 26  1  0  0  0  0
  6 27  1  0  0  0  0
  7 28  1  0  0  0  0
  8 17  1  0  0  0  0
  9 29  1  0  0  0  0
  9 31  1  0  0  0  0
 10 30  1  0  0  0  0
 11 32  1  0  0  0  0
 12 25  1  0  0  0  0
 13 18  1  0  0  0  0
 13 30  2  0  0  0  0
 14 18  2  0  0  0  0
 14 33  1  0  0  0  0
 15 19  2  0  0  0  0
 15 34  1  0  0  0  0
 16 19  1  0  0  0  0
 16 29  1  0  0  0  0
 16 33  1  0  0  0  0
 17 31  1  0  0  0  0
 20 22  1  0  0  0  0
 20 26  2  0  0  0  0
 21 23  2  0  0  0  0
 21 26  1  0  0  0  0
 22 35  2  0  0  0  0
 23 35  1  0  0  0  0
 24 32  1  0  0  0  0
 24 35  1  0  0  0  0
 25 32  1  0  0  0  0
 27 28  1  0  0  0  0
 27 29  1  0  0  0  0
 28 31  1  0  0  0  0
 30 34  1  0  0  0  0
 33 34  2  0  0  0  0
  5 36  1  0  0  0  0
  6 37  1  0  0  0  0
  7 38  1  0  0  0  0
 10 39  1  0  0  0  0
 10 40  1  0  0  0  0
 11 41  1  0  0  0  0
 11 42  1  0  0  0  0
 12 43  1  0  0  0  0
 17 44  1  0  0  0  0
 17 45  1  0  0  0  0
 18 46  1  0  0  0  0
 19 47  1  0  0  0  0
 20 48  1  0  0  0  0
 21 49  1  0  0  0  0
 22 50  1  0  0  0  0
 23 51  1  0  0  0  0
 24 52  1  0  0  0  0
 24 53  1  0  0  0  0
 27 54  1  0  0  0  0
 28 55  1  0  0  0  0
 29 56  1  0  0  0  0
 31 57  1  0  0  0  0
 32 58  1  0  0  0  0
M  END
> <pdb_id>
6I5Y

> <uniprot_id>
nan

> <usmiles>
S(=O)(=O)(OC[C@H]1O[C@@H](N2c3ncnc(N)c3N=C2)[C@H](O)[C@@H]1O)NC(=O)[C@@H](N)Cc4ccc(O)cc4

$$$$
YSD_A_501
          07202400393D 1   1.00000     0.00000     0
            
 77 79  0  0  0  0            999 V2000
   17.6612    8.3396   19.2649 O   0  0  0  0  0  0  0  0  0  0  0  0
   15.4960    5.0000   18.0311 O   0  0  0  0  0  0  0  0  0  0  0  0
   10.7289   -1.0212   28.2004 O   0  0  0  0  0  0  0  0  0  0  0  0
    8.4517    2.0156   27.7135 C   0  0  0  0  0  0  0  0  0  0  0  0
    8.9124   -1.0993   25.8728 C   0  0  0  0  0  0  0  0  0  0  0  0
   14.2108    1.1481   28.7395 C   0  0  0  0  0  0  0  0  0  0  0  0
   15.0272    7.5190   17.1506 C   0  0  0  0  0  0  0  0  0  0  0  0
   13.1759    4.1768   25.2725 C   0  0  0  0  0  0  0  0  0  0  0  0
   14.6147    6.7190   26.5416 C   0  0  0  0  0  0  0  0  0  0  0  0
    8.8949    0.5983   28.2663 C   0  0  0  0  0  0  0  0  0  0  0  0
   10.0403   -0.1116   26.1120 C   0  0  0  0  0  0  0  0  0  0  0  0
   15.8108    6.7575   25.5451 C   0  0  0  0  0  0  0  0  0  0  0  0
   15.8358    6.8830   22.5779 C   0  0  0  0  0  0  0  0  0  0  0  0
   15.8954    5.5883   23.2096 C   0  0  0  0  0  0  0  0  0  0  0  0
   15.1560    1.9040   25.6480 C   0  0  0  0  0  0  0  0  0  0  0  0
   15.8239    2.9215   24.7100 C   0  0  0  0  0  0  0  0  0  0  0  0
   12.4221    1.3117   26.9329 C   0  0  0  0  0  0  0  0  0  0  0  0
   15.6090    8.3747   20.5499 C   0  0  0  0  0  0  0  0  0  0  0  0
   15.3522    5.7279   20.3288 C   0  0  0  0  0  0  0  0  0  0  0  0
   14.3618    5.3349   27.2256 C   0  0  0  0  0  0  0  0  0  0  0  0
   11.1691    1.3820   27.8022 C   0  0  0  0  0  0  0  0  0  0  0  0
   16.2400    8.4636   19.1710 C   0  0  2  0  0  0  0  0  0  0  0  0
   16.0021    5.9020   18.9091 C   0  0  2  0  0  0  0  0  0  0  0  0
   13.5488    2.0497   27.6915 C   0  0  2  0  0  0  0  0  0  0  0  0
   15.6542    6.9845   21.1727 C   0  0  0  0  0  0  0  0  0  0  0  0
   15.7149    7.2979   18.3285 C   0  0  0  0  0  0  0  0  0  0  0  0
   15.7712    5.4986   24.6319 C   0  0  0  0  0  0  0  0  0  0  0  0
   14.6533    2.7320   26.8548 C   0  0  2  0  0  0  0  0  0  0  0  0
   15.7383    4.2331   25.4502 C   0  0  1  0  0  0  0  0  0  0  0  0
   10.2148    0.1900   27.6079 C   0  0  0  0  0  0  0  0  0  0  0  0
   14.3990    4.1427   26.2119 C   0  0  1  0  0  0  0  0  0  0  0  0
   18.0622    8.3999   18.3507 H   0  0  0  0  0  0  0  0  0  0  0  0
   15.9234    5.1296   17.1364 H   0  0  0  0  0  0  0  0  0  0  0  0
   11.5899   -1.2699   27.7567 H   0  0  0  0  0  0  0  0  0  0  0  0
    7.5893    2.2856   28.1417 H   0  0  0  0  0  0  0  0  0  0  0  0
    9.1563    2.6921   27.9276 H   0  0  0  0  0  0  0  0  0  0  0  0
    8.3297    1.9636   26.7223 H   0  0  0  0  0  0  0  0  0  0  0  0
    8.8248   -1.2741   24.8921 H   0  0  0  0  0  0  0  0  0  0  0  0
    9.1133   -1.9562   26.3474 H   0  0  0  0  0  0  0  0  0  0  0  0
    8.0560   -0.7181   26.2212 H   0  0  0  0  0  0  0  0  0  0  0  0
   14.9324    1.6569   29.2089 H   0  0  0  0  0  0  0  0  0  0  0  0
   13.5255    0.8513   29.4045 H   0  0  0  0  0  0  0  0  0  0  0  0
   14.6063    0.3479   28.2887 H   0  0  0  0  0  0  0  0  0  0  0  0
   14.6921    6.7443   16.6143 H   0  0  0  0  0  0  0  0  0  0  0  0
   14.8647    8.4537   16.8344 H   0  0  0  0  0  0  0  0  0  0  0  0
   13.2229    3.4069   24.6361 H   0  0  0  0  0  0  0  0  0  0  0  0
   12.3378    4.1110   25.8140 H   0  0  0  0  0  0  0  0  0  0  0  0
   13.1742    5.0346   24.7585 H   0  0  0  0  0  0  0  0  0  0  0  0
   13.7869    6.9726   26.0412 H   0  0  0  0  0  0  0  0  0  0  0  0
   14.7892    7.3920   27.2604 H   0  0  0  0  0  0  0  0  0  0  0  0
    8.1911   -0.0790   28.0521 H   0  0  0  0  0  0  0  0  0  0  0  0
    9.0176    0.6495   29.2574 H   0  0  0  0  0  0  0  0  0  0  0  0
    9.8342    0.7403   25.6305 H   0  0  0  0  0  0  0  0  0  0  0  0
   10.8915   -0.4978   25.7567 H   0  0  0  0  0  0  0  0  0  0  0  0
   16.6698    6.7704   26.0568 H   0  0  0  0  0  0  0  0  0  0  0  0
   15.7469    7.5803   24.9804 H   0  0  0  0  0  0  0  0  0  0  0  0
   15.9226    7.7119   23.1305 H   0  0  0  0  0  0  0  0  0  0  0  0
   16.0221    4.7627   22.6599 H   0  0  0  0  0  0  0  0  0  0  0  0
   15.8173    1.2157   25.9463 H   0  0  0  0  0  0  0  0  0  0  0  0
   14.3904    1.4537   25.1886 H   0  0  0  0  0  0  0  0  0  0  0  0
   15.3338    2.9744   23.8399 H   0  0  0  0  0  0  0  0  0  0  0  0
   16.7776    2.6730   24.5409 H   0  0  0  0  0  0  0  0  0  0  0  0
   12.2536    1.7561   26.0531 H   0  0  0  0  0  0  0  0  0  0  0  0
   12.6799    0.3576   26.7805 H   0  0  0  0  0  0  0  0  0  0  0  0
   14.6515    8.6531   20.4746 H   0  0  0  0  0  0  0  0  0  0  0  0
   16.0927    9.0055   21.1568 H   0  0  0  0  0  0  0  0  0  0  0  0
   15.7369    4.9214   20.7777 H   0  0  0  0  0  0  0  0  0  0  0  0
   14.3630    5.6166   20.2341 H   0  0  0  0  0  0  0  0  0  0  0  0
   13.4629    5.3543   27.6635 H   0  0  0  0  0  0  0  0  0  0  0  0
   15.0671    5.1873   27.9189 H   0  0  0  0  0  0  0  0  0  0  0  0
   10.6752    2.2219   27.5772 H   0  0  0  0  0  0  0  0  0  0  0  0
   11.4511    1.4078   28.7613 H   0  0  0  0  0  0  0  0  0  0  0  0
   15.9998    9.3333   18.7399 H   0  0  0  0  0  0  0  0  0  0  0  0
   16.9910    5.7723   18.9813 H   0  0  0  0  0  0  0  0  0  0  0  0
   13.1006    2.7824   28.2036 H   0  0  0  0  0  0  0  0  0  0  0  0
   15.4382    2.8408   27.4648 H   0  0  0  0  0  0  0  0  0  0  0  0
   16.4811    4.2686   26.1187 H   0  0  0  0  0  0  0  0  0  0  0  0
  1 22  1  0  0  0  0
  2 23  1  0  0  0  0
  3 30  1  0  0  0  0
  4 10  1  0  0  0  0
  5 11  1  0  0  0  0
  6 24  1  0  0  0  0
  7 26  2  0  0  0  0
  8 31  1  0  0  0  0
  9 12  1  0  0  0  0
  9 20  1  0  0  0  0
 10 30  1  0  0  0  0
 11 30  1  0  0  0  0
 12 27  1  0  0  0  0
 13 14  1  0  0  0  0
 13 25  2  0  0  0  0
 14 27  2  0  0  0  0
 15 16  1  0  0  0  0
 15 28  1  0  0  0  0
 16 29  1  0  0  0  0
 17 21  1  0  0  0  0
 17 24  1  0  0  0  0
 18 22  1  0  0  0  0
 18 25  1  0  0  0  0
 19 23  1  0  0  0  0
 19 25  1  0  0  0  0
 20 31  1  0  0  0  0
 21 30  1  0  0  0  0
 22 26  1  0  0  0  0
 23 26  1  0  0  0  0
 24 28  1  0  0  0  0
 27 29  1  0  0  0  0
 28 31  1  0  0  0  0
 29 31  1  0  0  0  0
  1 32  1  0  0  0  0
  2 33  1  0  0  0  0
  3 34  1  0  0  0  0
  4 35  1  0  0  0  0
  4 36  1  0  0  0  0
  4 37  1  0  0  0  0
  5 38  1  0  0  0  0
  5 39  1  0  0  0  0
  5 40  1  0  0  0  0
  6 41  1  0  0  0  0
  6 42  1  0  0  0  0
  6 43  1  0  0  0  0
  7 44  1  0  0  0  0
  7 45  1  0  0  0  0
  8 46  1  0  0  0  0
  8 47  1  0  0  0  0
  8 48  1  0  0  0  0
  9 49  1  0  0  0  0
  9 50  1  0  0  0  0
 10 51  1  0  0  0  0
 10 52  1  0  0  0  0
 11 53  1  0  0  0  0
 11 54  1  0  0  0  0
 12 55  1  0  0  0  0
 12 56  1  0  0  0  0
 13 57  1  0  0  0  0
 14 58  1  0  0  0  0
 15 59  1  0  0  0  0
 15 60  1  0  0  0  0
 16 61  1  0  0  0  0
 16 62  1  0  0  0  0
 17 63  1  0  0  0  0
 17 64  1  0  0  0  0
 18 65  1  0  0  0  0
 18 66  1  0  0  0  0
 19 67  1  0  0  0  0
 19 68  1  0  0  0  0
 20 69  1  0  0  0  0
 20 70  1  0  0  0  0
 21 71  1  0  0  0  0
 21 72  1  0  0  0  0
 22 73  1  0  0  0  0
 23 74  1  0  0  0  0
 24 75  1  0  0  0  0
 28 76  1  0  0  0  0
 29 77  1  0  0  0  0
M  END
> <pdb_id>
3VRV

> <uniprot_id>
P13053

> <usmiles>
OC(CC[C@H]([C@@H]1[C@@]2([C@H](/C(=C/C=C3C[C@@H](O)C(=C)[C@H](O)C3)/CCC2)CC1)C)C)(CC)CC

$$$$
YSL_A_501
          07202400393D 1   1.00000     0.00000     0
            
 83 85  0  0  0  0            999 V2000
   11.0950   -1.6444   26.8816 O   0  0  0  0  0  0  0  0  0  0  0  0
   17.6664    8.4868   19.3164 O   0  0  0  0  0  0  0  0  0  0  0  0
   15.4016    4.9753   18.1607 O   0  0  0  0  0  0  0  0  0  0  0  0
   18.8862   -1.4987   31.1925 C   0  0  0  0  0  0  0  0  0  0  0  0
   15.3208    7.4811   17.1509 C   0  0  0  0  0  0  0  0  0  0  0  0
   12.5440    3.1762   27.8167 C   0  0  0  0  0  0  0  0  0  0  0  0
   13.4499    4.2655   24.9075 C   0  0  0  0  0  0  0  0  0  0  0  0
   11.9629   -0.5559   26.5588 C   0  0  0  0  0  0  0  0  0  0  0  0
   17.4523   -1.8830   30.9073 C   0  0  0  0  0  0  0  0  0  0  0  0
   16.4988   -0.7852   31.3586 C   0  0  0  0  0  0  0  0  0  0  0  0
   16.3352    0.2688   30.2727 C   0  0  0  0  0  0  0  0  0  0  0  0
   15.1716   -0.0778   29.3578 C   0  0  0  0  0  0  0  0  0  0  0  0
   14.1813    6.7863   26.1809 C   0  0  0  0  0  0  0  0  0  0  0  0
   12.3922    0.1493   27.8385 C   0  0  0  0  0  0  0  0  0  0  0  0
   14.3643    1.1572   28.9841 C   0  0  0  0  0  0  0  0  0  0  0  0
   15.3926    7.0584   25.2843 C   0  0  0  0  0  0  0  0  0  0  0  0
   16.0045    7.0927   22.4972 C   0  0  0  0  0  0  0  0  0  0  0  0
   16.1104    5.8334   23.2310 C   0  0  0  0  0  0  0  0  0  0  0  0
   15.5863    2.2085   25.6031 C   0  0  0  0  0  0  0  0  0  0  0  0
   16.2675    3.2538   24.7177 C   0  0  0  0  0  0  0  0  0  0  0  0
   15.5885    8.5029   20.5228 C   0  0  0  0  0  0  0  0  0  0  0  0
   15.4343    5.8989   20.3880 C   0  0  0  0  0  0  0  0  0  0  0  0
   14.2546    5.4679   26.9458 C   0  0  0  0  0  0  0  0  0  0  0  0
   16.2514    8.5213   19.1506 C   0  0  2  0  0  0  0  0  0  0  0  0
   16.0175    5.9716   18.9757 C   0  0  2  0  0  0  0  0  0  0  0  0
   15.6923    7.1515   21.1961 C   0  0  0  0  0  0  0  0  0  0  0  0
   15.8329    7.3267   18.3554 C   0  0  0  0  0  0  0  0  0  0  0  0
   13.4188    2.2764   26.9564 C   0  0  2  0  0  0  0  0  0  0  0  0
   13.6766    0.9450   27.6440 C   0  0  2  0  0  0  0  0  0  0  0  0
   15.8227    5.8131   24.5430 C   0  0  0  0  0  0  0  0  0  0  0  0
   14.7306    2.9710   26.6153 C   0  0  2  0  0  0  0  0  0  0  0  0
   15.8935    4.5720   25.3691 C   0  0  1  0  0  0  0  0  0  0  0  0
   14.5334    4.3350   25.9782 C   0  0  1  0  0  0  0  0  0  0  0  0
   10.8135   -2.1069   26.0408 H   0  0  0  0  0  0  0  0  0  0  0  0
   18.1076    8.4986   18.4190 H   0  0  0  0  0  0  0  0  0  0  0  0
   15.7805    5.0198   17.2363 H   0  0  0  0  0  0  0  0  0  0  0  0
   19.4945   -2.2321   30.8890 H   0  0  0  0  0  0  0  0  0  0  0  0
   19.1093   -0.6562   30.7023 H   0  0  0  0  0  0  0  0  0  0  0  0
   19.0033   -1.3537   32.1750 H   0  0  0  0  0  0  0  0  0  0  0  0
   15.0413    6.6810   16.6201 H   0  0  0  0  0  0  0  0  0  0  0  0
   15.2118    8.3983   16.7677 H   0  0  0  0  0  0  0  0  0  0  0  0
   12.3899    4.0432   27.3427 H   0  0  0  0  0  0  0  0  0  0  0  0
   11.6663    2.7270   27.9835 H   0  0  0  0  0  0  0  0  0  0  0  0
   13.0008    3.3498   28.6891 H   0  0  0  0  0  0  0  0  0  0  0  0
   13.6500    3.5136   24.2793 H   0  0  0  0  0  0  0  0  0  0  0  0
   12.5623    4.1103   25.3411 H   0  0  0  0  0  0  0  0  0  0  0  0
   13.4270    5.1268   24.4001 H   0  0  0  0  0  0  0  0  0  0  0  0
   11.4806    0.0908   25.9677 H   0  0  0  0  0  0  0  0  0  0  0  0
   12.7707   -0.9037   26.0830 H   0  0  0  0  0  0  0  0  0  0  0  0
   17.2355   -2.7274   31.3971 H   0  0  0  0  0  0  0  0  0  0  0  0
   17.3415   -2.0299   29.9244 H   0  0  0  0  0  0  0  0  0  0  0  0
   16.8635   -0.3526   32.1831 H   0  0  0  0  0  0  0  0  0  0  0  0
   15.6064   -1.1887   31.5608 H   0  0  0  0  0  0  0  0  0  0  0  0
   17.1751    0.3160   29.7319 H   0  0  0  0  0  0  0  0  0  0  0  0
   16.1636    1.1565   30.7000 H   0  0  0  0  0  0  0  0  0  0  0  0
   14.5727   -0.7272   29.8266 H   0  0  0  0  0  0  0  0  0  0  0  0
   15.5289   -0.4967   28.5230 H   0  0  0  0  0  0  0  0  0  0  0  0
   13.3629    6.7708   25.6065 H   0  0  0  0  0  0  0  0  0  0  0  0
   14.1087    7.5307   26.8447 H   0  0  0  0  0  0  0  0  0  0  0  0
   12.5411   -0.5362   28.5512 H   0  0  0  0  0  0  0  0  0  0  0  0
   11.6649    0.7737   28.1233 H   0  0  0  0  0  0  0  0  0  0  0  0
   14.9760    1.9457   28.9209 H   0  0  0  0  0  0  0  0  0  0  0  0
   13.6737    1.3264   29.6873 H   0  0  0  0  0  0  0  0  0  0  0  0
   16.1517    7.3776   25.8516 H   0  0  0  0  0  0  0  0  0  0  0  0
   15.1527    7.7659   24.6196 H   0  0  0  0  0  0  0  0  0  0  0  0
   16.1724    7.9477   22.9879 H   0  0  0  0  0  0  0  0  0  0  0  0
   16.3936    4.9968   22.7621 H   0  0  0  0  0  0  0  0  0  0  0  0
   16.2742    1.6602   26.0787 H   0  0  0  0  0  0  0  0  0  0  0  0
   15.0095    1.6103   25.0469 H   0  0  0  0  0  0  0  0  0  0  0  0
   15.9216    3.2079   23.7806 H   0  0  0  0  0  0  0  0  0  0  0  0
   17.2593    3.1265   24.7135 H   0  0  0  0  0  0  0  0  0  0  0  0
   14.6217    8.7347   20.4154 H   0  0  0  0  0  0  0  0  0  0  0  0
   16.0325    9.1856   21.1030 H   0  0  0  0  0  0  0  0  0  0  0  0
   15.8462    5.1217   20.8638 H   0  0  0  0  0  0  0  0  0  0  0  0
   14.4462    5.7617   20.3186 H   0  0  0  0  0  0  0  0  0  0  0  0
   13.3841    5.3032   27.4096 H   0  0  0  0  0  0  0  0  0  0  0  0
   14.9891    5.5160   27.6227 H   0  0  0  0  0  0  0  0  0  0  0  0
   15.9914    9.3554   18.6641 H   0  0  0  0  0  0  0  0  0  0  0  0
   16.9971    5.7775   19.0271 H   0  0  0  0  0  0  0  0  0  0  0  0
   12.9321    2.0953   26.1018 H   0  0  0  0  0  0  0  0  0  0  0  0
   14.2887    0.4089   27.0626 H   0  0  0  0  0  0  0  0  0  0  0  0
   15.2586    3.0857   27.4568 H   0  0  0  0  0  0  0  0  0  0  0  0
   16.5381    4.7379   26.1155 H   0  0  0  0  0  0  0  0  0  0  0  0
  1  8  1  0  0  0  0
  2 24  1  0  0  0  0
  3 25  1  0  0  0  0
  4  9  1  0  0  0  0
  5 27  2  0  0  0  0
  6 28  1  0  0  0  0
  7 33  1  0  0  0  0
  8 14  1  0  0  0  0
  9 10  1  0  0  0  0
 10 11  1  0  0  0  0
 11 12  1  0  0  0  0
 12 15  1  0  0  0  0
 13 16  1  0  0  0  0
 13 23  1  0  0  0  0
 14 29  1  0  0  0  0
 15 29  1  0  0  0  0
 16 30  1  0  0  0  0
 17 18  1  0  0  0  0
 17 26  2  0  0  0  0
 18 30  2  0  0  0  0
 19 20  1  0  0  0  0
 19 31  1  0  0  0  0
 20 32  1  0  0  0  0
 21 24  1  0  0  0  0
 21 26  1  0  0  0  0
 22 25  1  0  0  0  0
 22 26  1  0  0  0  0
 23 33  1  0  0  0  0
 24 27  1  0  0  0  0
 25 27  1  0  0  0  0
 28 29  1  0  0  0  0
 28 31  1  0  0  0  0
 30 32  1  0  0  0  0
 31 33  1  0  0  0  0
 32 33  1  0  0  0  0
  1 34  1  0  0  0  0
  2 35  1  0  0  0  0
  3 36  1  0  0  0  0
  4 37  1  0  0  0  0
  4 38  1  0  0  0  0
  4 39  1  0  0  0  0
  5 40  1  0  0  0  0
  5 41  1  0  0  0  0
  6 42  1  0  0  0  0
  6 43  1  0  0  0  0
  6 44  1  0  0  0  0
  7 45  1  0  0  0  0
  7 46  1  0  0  0  0
  7 47  1  0  0  0  0
  8 48  1  0  0  0  0
  8 49  1  0  0  0  0
  9 50  1  0  0  0  0
  9 51  1  0  0  0  0
 10 52  1  0  0  0  0
 10 53  1  0  0  0  0
 11 54  1  0  0  0  0
 11 55  1  0  0  0  0
 12 56  1  0  0  0  0
 12 57  1  0  0  0  0
 13 58  1  0  0  0  0
 13 59  1  0  0  0  0
 14 60  1  0  0  0  0
 14 61  1  0  0  0  0
 15 62  1  0  0  0  0
 15 63  1  0  0  0  0
 16 64  1  0  0  0  0
 16 65  1  0  0  0  0
 17 66  1  0  0  0  0
 18 67  1  0  0  0  0
 19 68  1  0  0  0  0
 19 69  1  0  0  0  0
 20 70  1  0  0  0  0
 20 71  1  0  0  0  0
 21 72  1  0  0  0  0
 21 73  1  0  0  0  0
 22 74  1  0  0  0  0
 22 75  1  0  0  0  0
 23 76  1  0  0  0  0
 23 77  1  0  0  0  0
 24 78  1  0  0  0  0
 25 79  1  0  0  0  0
 28 80  1  0  0  0  0
 29 81  1  0  0  0  0
 31 82  1  0  0  0  0
 32 83  1  0  0  0  0
M  END
> <pdb_id>
5AWJ

> <uniprot_id>
P13053

> <usmiles>
O[C@H]1C(=C)[C@H](O)CC(=C/C=C\2/[C@H]3[C@@]([C@@H]([C@@H]([C@H](CCO)CCCCCC)C)CC3)(CCC2)C)C1

$$$$
YSU_B_501
          07202411083D 1   1.00000     0.00000     0
            
 55 57  0  0  0  0            999 V2000
  -30.9157    3.1748  -10.7564 S   0  0  0  0  0  0  0  0  0  0  0  0
  -30.2895    4.1744  -11.5515 O   0  0  0  0  0  0  0  0  0  0  0  0
  -30.4660    1.8287  -10.7909 O   0  0  0  0  0  0  0  0  0  0  0  0
  -30.6466    8.0426   -5.1237 O   0  0  0  0  0  0  0  0  0  0  0  0
  -26.8024    8.9989   -7.3905 O   0  0  0  0  0  0  0  0  0  0  0  0
  -32.6705    3.1878  -13.1904 O   0  0  0  0  0  0  0  0  0  0  0  0
  -39.7676   -1.1723  -11.5019 O   0  0  0  0  0  0  0  0  0  0  0  0
  -33.2501    7.1142   -7.7427 O   0  0  0  0  0  0  0  0  0  0  0  0
  -34.1831    4.7930   -6.8422 O   0  0  0  0  0  0  0  0  0  0  0  0
  -30.7589    3.5902   -9.2260 O   0  0  0  0  0  0  0  0  0  0  0  0
  -30.9688    4.5844   -6.6798 O   0  0  0  0  0  0  0  0  0  0  0  0
  -35.3699    3.0695  -13.0842 N   0  0  0  0  0  0  0  0  0  0  0  0
  -32.4888    3.0567  -10.9421 N   0  0  0  0  0  0  0  0  0  0  0  0
  -28.7841    8.5553   -6.3415 N   0  0  0  0  0  0  0  0  0  0  0  0
  -30.1543    6.7809   -6.9764 N   0  0  0  0  0  0  0  0  0  0  0  0
  -31.4522    2.7902   -8.2204 C   0  0  0  0  0  0  0  0  0  0  0  0
  -29.2763    6.5089   -8.0097 C   0  0  0  0  0  0  0  0  0  0  0  0
  -28.1497    7.2206   -8.2072 C   0  0  0  0  0  0  0  0  0  0  0  0
  -38.1907    0.3481  -10.5674 C   0  0  0  0  0  0  0  0  0  0  0  0
  -37.5957   -0.9612  -12.4923 C   0  0  0  0  0  0  0  0  0  0  0  0
  -36.9557    0.9759  -10.6212 C   0  0  0  0  0  0  0  0  0  0  0  0
  -36.3372   -0.3748  -12.4951 C   0  0  0  0  0  0  0  0  0  0  0  0
  -34.6323    1.2366  -11.5626 C   0  0  0  0  0  0  0  0  0  0  0  0
  -29.9312    7.8273   -6.0984 C   0  0  0  0  0  0  0  0  0  0  0  0
  -27.8434    8.3180   -7.3419 C   0  0  0  0  0  0  0  0  0  0  0  0
  -33.2224    3.0683  -12.1010 C   0  0  0  0  0  0  0  0  0  0  0  0
  -38.5200   -0.6118  -11.5170 C   0  0  0  0  0  0  0  0  0  0  0  0
  -32.3607    6.0238   -7.9210 C   0  0  2  0  0  0  0  0  0  0  0  0
  -33.1033    4.6912   -7.7553 C   0  0  1  0  0  0  0  0  0  0  0  0
  -31.3591    5.9462   -6.7676 C   0  0  1  0  0  0  0  0  0  0  0  0
  -32.0267    3.7462   -7.2065 C   0  0  2  0  0  0  0  0  0  0  0  0
  -34.6505    2.7613  -11.8353 C   0  0  1  0  0  0  0  0  0  0  0  0
  -36.0017    0.6063  -11.5653 C   0  0  0  0  0  0  0  0  0  0  0  0
  -40.0133   -1.8637  -12.1813 H   0  0  0  0  0  0  0  0  0  0  0  0
  -32.7506    7.9734   -7.8539 H   0  0  0  0  0  0  0  0  0  0  0  0
  -34.6382    3.9060   -6.7638 H   0  0  0  0  0  0  0  0  0  0  0  0
  -35.3665    4.0580  -13.2357 H   0  0  0  0  0  0  0  0  0  0  0  0
  -34.9177    2.6133  -13.8506 H   0  0  0  0  0  0  0  0  0  0  0  0
  -33.0168    2.9608  -10.0983 H   0  0  0  0  0  0  0  0  0  0  0  0
  -28.6101    9.3331   -5.7376 H   0  0  0  0  0  0  0  0  0  0  0  0
  -30.8093    2.1660   -7.7765 H   0  0  0  0  0  0  0  0  0  0  0  0
  -32.1865    2.2634   -8.6486 H   0  0  0  0  0  0  0  0  0  0  0  0
  -29.4855    5.7559   -8.6336 H   0  0  0  0  0  0  0  0  0  0  0  0
  -27.5302    6.9828   -8.9552 H   0  0  0  0  0  0  0  0  0  0  0  0
  -38.8428    0.5854   -9.8473 H   0  0  0  0  0  0  0  0  0  0  0  0
  -37.8360   -1.6342  -13.1917 H   0  0  0  0  0  0  0  0  0  0  0  0
  -36.7467    1.7063   -9.9709 H   0  0  0  0  0  0  0  0  0  0  0  0
  -35.6618   -0.6610  -13.1747 H   0  0  0  0  0  0  0  0  0  0  0  0
  -34.2143    1.0805  -10.6676 H   0  0  0  0  0  0  0  0  0  0  0  0
  -34.0799    0.7956  -12.2700 H   0  0  0  0  0  0  0  0  0  0  0  0
  -31.8954    6.0741   -8.8047 H   0  0  0  0  0  0  0  0  0  0  0  0
  -33.4301    4.3649   -8.6422 H   0  0  0  0  0  0  0  0  0  0  0  0
  -31.8092    6.2186   -5.9172 H   0  0  0  0  0  0  0  0  0  0  0  0
  -32.4193    3.2167   -6.4545 H   0  0  0  0  0  0  0  0  0  0  0  0
  -35.0081    3.2784  -11.0576 H   0  0  0  0  0  0  0  0  0  0  0  0
  1  2  2  0  0  0  0
  1  3  2  0  0  0  0
  1 10  1  0  0  0  0
  1 13  1  0  0  0  0
  4 24  2  0  0  0  0
  5 25  2  0  0  0  0
  6 26  2  0  0  0  0
  7 27  1  0  0  0  0
  8 28  1  0  0  0  0
  9 29  1  0  0  0  0
 10 16  1  0  0  0  0
 11 30  1  0  0  0  0
 11 31  1  0  0  0  0
 12 32  1  0  0  0  0
 13 26  1  0  0  0  0
 14 24  1  0  0  0  0
 14 25  1  0  0  0  0
 15 17  1  0  0  0  0
 15 24  1  0  0  0  0
 15 30  1  0  0  0  0
 16 31  1  0  0  0  0
 17 18  2  0  0  0  0
 18 25  1  0  0  0  0
 19 21  1  0  0  0  0
 19 27  2  0  0  0  0
 20 22  2  0  0  0  0
 20 27  1  0  0  0  0
 21 33  2  0  0  0  0
 22 33  1  0  0  0  0
 23 32  1  0  0  0  0
 23 33  1  0  0  0  0
 26 32  1  0  0  0  0
 28 29  1  0  0  0  0
 28 30  1  0  0  0  0
 29 31  1  0  0  0  0
  7 34  1  0  0  0  0
  8 35  1  0  0  0  0
  9 36  1  0  0  0  0
 12 37  1  0  0  0  0
 12 38  1  0  0  0  0
 13 39  1  0  0  0  0
 14 40  1  0  0  0  0
 16 41  1  0  0  0  0
 16 42  1  0  0  0  0
 17 43  1  0  0  0  0
 18 44  1  0  0  0  0
 19 45  1  0  0  0  0
 20 46  1  0  0  0  0
 21 47  1  0  0  0  0
 22 48  1  0  0  0  0
 23 49  1  0  0  0  0
 23 50  1  0  0  0  0
 28 51  1  0  0  0  0
 29 52  1  0  0  0  0
 30 53  1  0  0  0  0
 31 54  1  0  0  0  0
 32 55  1  0  0  0  0
M  END
> <pdb_id>
6HB6

> <uniprot_id>
nan

> <usmiles>
S(=O)(=O)(OC[C@H]1O[C@@H](N2C(=O)NC(=O)C=C2)[C@H](O)[C@@H]1O)NC(=O)[C@@H](N)Cc3ccc(O)cc3

$$$$
YSV_A_501
          07202400393D 1   1.00000     0.00000     0
            
 74 76  0  0  0  0            999 V2000
   17.6486    8.4193   19.2437 O   0  0  0  0  0  0  0  0  0  0  0  0
   15.5335    4.8071   18.2590 O   0  0  0  0  0  0  0  0  0  0  0  0
   10.1005   -1.5764   28.1568 O   0  0  0  0  0  0  0  0  0  0  0  0
   14.2650    1.4542   28.7098 C   0  0  0  0  0  0  0  0  0  0  0  0
   15.1749    7.2992   17.2750 C   0  0  0  0  0  0  0  0  0  0  0  0
    8.9824    0.5408   28.2631 C   0  0  0  0  0  0  0  0  0  0  0  0
    8.5250   -1.0776   26.4319 C   0  0  0  0  0  0  0  0  0  0  0  0
   13.5692    4.2466   25.2552 C   0  0  0  0  0  0  0  0  0  0  0  0
   11.6631    0.9532   27.3711 C   0  0  0  0  0  0  0  0  0  0  0  0
   14.4599    6.7406   26.4133 C   0  0  0  0  0  0  0  0  0  0  0  0
   12.9049    1.4043   26.6051 C   0  0  0  0  0  0  0  0  0  0  0  0
   16.0526    6.9818   22.5859 C   0  0  0  0  0  0  0  0  0  0  0  0
   15.5854    6.9786   25.4018 C   0  0  0  0  0  0  0  0  0  0  0  0
   16.1589    5.7251   23.3254 C   0  0  0  0  0  0  0  0  0  0  0  0
   15.6609    2.1051   25.7137 C   0  0  0  0  0  0  0  0  0  0  0  0
   16.3032    3.1387   24.7823 C   0  0  0  0  0  0  0  0  0  0  0  0
   15.6460    8.3956   20.6087 C   0  0  0  0  0  0  0  0  0  0  0  0
   15.4595    5.7850   20.4834 C   0  0  0  0  0  0  0  0  0  0  0  0
   10.7376    0.0851   26.5264 C   0  0  0  0  0  0  0  0  0  0  0  0
   14.5854    5.4337   27.1960 C   0  0  0  0  0  0  0  0  0  0  0  0
   16.2226    8.4058   19.1918 C   0  0  2  0  0  0  0  0  0  0  0  0
   16.0556    5.8564   19.0749 C   0  0  2  0  0  0  0  0  0  0  0  0
   13.7866    2.2583   27.5092 C   0  0  2  0  0  0  0  0  0  0  0  0
   15.7366    7.0399   21.2846 C   0  0  0  0  0  0  0  0  0  0  0  0
   15.7834    7.1892   18.4399 C   0  0  0  0  0  0  0  0  0  0  0  0
   15.9427    5.7144   24.6505 C   0  0  0  0  0  0  0  0  0  0  0  0
   14.9845    2.9083   26.8243 C   0  0  2  0  0  0  0  0  0  0  0  0
   16.0397    4.4702   25.4707 C   0  0  1  0  0  0  0  0  0  0  0  0
    9.5969   -0.5106   27.3479 C   0  0  0  0  0  0  0  0  0  0  0  0
   14.7456    4.2811   26.2222 C   0  0  1  0  0  0  0  0  0  0  0  0
   18.0159    8.4259   18.3136 H   0  0  0  0  0  0  0  0  0  0  0  0
   15.9317    4.8671   17.3437 H   0  0  0  0  0  0  0  0  0  0  0  0
   10.5081   -2.2762   27.5701 H   0  0  0  0  0  0  0  0  0  0  0  0
   14.8407    2.0310   29.2893 H   0  0  0  0  0  0  0  0  0  0  0  0
   13.4752    1.1371   29.2348 H   0  0  0  0  0  0  0  0  0  0  0  0
   14.7935    0.6661   28.3940 H   0  0  0  0  0  0  0  0  0  0  0  0
   14.8862    6.4783   16.7822 H   0  0  0  0  0  0  0  0  0  0  0  0
   15.0022    8.2034   16.8845 H   0  0  0  0  0  0  0  0  0  0  0  0
    8.6248    1.2946   27.7118 H   0  0  0  0  0  0  0  0  0  0  0  0
    8.2378    0.1303   28.7894 H   0  0  0  0  0  0  0  0  0  0  0  0
    9.6811    0.8876   28.8887 H   0  0  0  0  0  0  0  0  0  0  0  0
    8.1582   -0.3472   25.8558 H   0  0  0  0  0  0  0  0  0  0  0  0
    8.9231   -1.7899   25.8539 H   0  0  0  0  0  0  0  0  0  0  0  0
    7.7882   -1.4690   26.9833 H   0  0  0  0  0  0  0  0  0  0  0  0
   13.6837    3.4844   24.6180 H   0  0  0  0  0  0  0  0  0  0  0  0
   12.7192    4.1273   25.7683 H   0  0  0  0  0  0  0  0  0  0  0  0
   13.5324    5.1055   24.7443 H   0  0  0  0  0  0  0  0  0  0  0  0
   11.1587    1.7635   27.6694 H   0  0  0  0  0  0  0  0  0  0  0  0
   11.9533    0.4280   28.1711 H   0  0  0  0  0  0  0  0  0  0  0  0
   13.5912    6.7271   25.9182 H   0  0  0  0  0  0  0  0  0  0  0  0
   14.4598    7.4981   27.0661 H   0  0  0  0  0  0  0  0  0  0  0  0
   12.6269    1.9416   25.8088 H   0  0  0  0  0  0  0  0  0  0  0  0
   13.4185    0.6014   26.3026 H   0  0  0  0  0  0  0  0  0  0  0  0
   16.2237    7.8379   23.0736 H   0  0  0  0  0  0  0  0  0  0  0  0
   16.3951    7.3052   25.8894 H   0  0  0  0  0  0  0  0  0  0  0  0
   15.2892    7.6725   24.7454 H   0  0  0  0  0  0  0  0  0  0  0  0
   16.3912    4.8782   22.8469 H   0  0  0  0  0  0  0  0  0  0  0  0
   16.3591    1.5005   26.0971 H   0  0  0  0  0  0  0  0  0  0  0  0
   14.9851    1.5608   25.2166 H   0  0  0  0  0  0  0  0  0  0  0  0
   15.8767    3.1157   23.8781 H   0  0  0  0  0  0  0  0  0  0  0  0
   17.2853    2.9737   24.6919 H   0  0  0  0  0  0  0  0  0  0  0  0
   14.6835    8.6628   20.5615 H   0  0  0  0  0  0  0  0  0  0  0  0
   16.1497    9.0598   21.1610 H   0  0  0  0  0  0  0  0  0  0  0  0
   15.8571    5.0024   20.9623 H   0  0  0  0  0  0  0  0  0  0  0  0
   14.4698    5.6623   20.4086 H   0  0  0  0  0  0  0  0  0  0  0  0
   11.2709   -0.6608   26.1275 H   0  0  0  0  0  0  0  0  0  0  0  0
   10.3492    0.6455   25.7949 H   0  0  0  0  0  0  0  0  0  0  0  0
   13.7628    5.2939   27.7472 H   0  0  0  0  0  0  0  0  0  0  0  0
   15.3846    5.4785   27.7954 H   0  0  0  0  0  0  0  0  0  0  0  0
   15.9028    9.2228   18.7120 H   0  0  0  0  0  0  0  0  0  0  0  0
   17.0459    5.7375   19.1456 H   0  0  0  0  0  0  0  0  0  0  0  0
   13.2141    2.9984   27.8620 H   0  0  0  0  0  0  0  0  0  0  0  0
   15.6758    3.0342   27.5358 H   0  0  0  0  0  0  0  0  0  0  0  0
   16.7638    4.6095   26.1462 H   0  0  0  0  0  0  0  0  0  0  0  0
  1 21  1  0  0  0  0
  2 22  1  0  0  0  0
  3 29  1  0  0  0  0
  4 23  1  0  0  0  0
  5 25  2  0  0  0  0
  6 29  1  0  0  0  0
  7 29  1  0  0  0  0
  8 30  1  0  0  0  0
  9 11  1  0  0  0  0
  9 19  1  0  0  0  0
 10 13  1  0  0  0  0
 10 20  1  0  0  0  0
 11 23  1  0  0  0  0
 12 14  1  0  0  0  0
 12 24  2  0  0  0  0
 13 26  1  0  0  0  0
 14 26  2  0  0  0  0
 15 16  1  0  0  0  0
 15 27  1  0  0  0  0
 16 28  1  0  0  0  0
 17 21  1  0  0  0  0
 17 24  1  0  0  0  0
 18 22  1  0  0  0  0
 18 24  1  0  0  0  0
 19 29  1  0  0  0  0
 20 30  1  0  0  0  0
 21 25  1  0  0  0  0
 22 25  1  0  0  0  0
 23 27  1  0  0  0  0
 26 28  1  0  0  0  0
 27 30  1  0  0  0  0
 28 30  1  0  0  0  0
  1 31  1  0  0  0  0
  2 32  1  0  0  0  0
  3 33  1  0  0  0  0
  4 34  1  0  0  0  0
  4 35  1  0  0  0  0
  4 36  1  0  0  0  0
  5 37  1  0  0  0  0
  5 38  1  0  0  0  0
  6 39  1  0  0  0  0
  6 40  1  0  0  0  0
  6 41  1  0  0  0  0
  7 42  1  0  0  0  0
  7 43  1  0  0  0  0
  7 44  1  0  0  0  0
  8 45  1  0  0  0  0
  8 46  1  0  0  0  0
  8 47  1  0  0  0  0
  9 48  1  0  0  0  0
  9 49  1  0  0  0  0
 10 50  1  0  0  0  0
 10 51  1  0  0  0  0
 11 52  1  0  0  0  0
 11 53  1  0  0  0  0
 12 54  1  0  0  0  0
 13 55  1  0  0  0  0
 13 56  1  0  0  0  0
 14 57  1  0  0  0  0
 15 58  1  0  0  0  0
 15 59  1  0  0  0  0
 16 60  1  0  0  0  0
 16 61  1  0  0  0  0
 17 62  1  0  0  0  0
 17 63  1  0  0  0  0
 18 64  1  0  0  0  0
 18 65  1  0  0  0  0
 19 66  1  0  0  0  0
 19 67  1  0  0  0  0
 20 68  1  0  0  0  0
 20 69  1  0  0  0  0
 21 70  1  0  0  0  0
 22 71  1  0  0  0  0
 23 72  1  0  0  0  0
 27 73  1  0  0  0  0
 28 74  1  0  0  0  0
M  END
> <pdb_id>
6JEZ

> <uniprot_id>
P13053

> <usmiles>
OC(CCC[C@H]([C@@H]1[C@@]2([C@H](/C(=C/C=C3C[C@@H](O)C(=C)[C@H](O)C3)/CCC2)CC1)C)C)(C)C

$$$$
YTB_A_1050
          07202412393D 1   1.00000     0.00000     0
            
 21 21  0  0  0  0            999 V2000
   31.8041   67.9039    5.6329 O   0  0  0  0  0  0  0  0  0  0  0  0
   33.8611   66.4631    6.9549 O   0  0  0  0  0  0  0  0  0  0  0  0
   29.6238   66.4543    7.0583 O   0  0  0  0  0  0  0  0  0  0  0  0
   33.6247   65.8110    9.5363 O   0  0  0  0  0  0  0  0  0  0  0  0
   31.1347   64.9776    9.4796 N   0  0  0  0  0  0  0  0  0  0  0  0
   31.7458   67.6267    7.0389 C   0  0  2  0  0  0  0  0  0  0  0  0
   33.1056   67.4284    7.7044 C   0  0  1  0  0  0  0  0  0  0  0  0
   31.0120   66.3610    7.4192 C   0  0  1  0  0  0  0  0  0  0  0  0
   32.7205   66.8392    9.0776 C   0  0  1  0  0  0  0  0  0  0  0  0
   31.2878   66.3197    8.9149 C   0  0  2  0  0  0  0  0  0  0  0  0
   30.8766   68.0195    5.2773 H   0  0  0  0  0  0  0  0  0  0  0  0
   34.7530   66.3296    7.3868 H   0  0  0  0  0  0  0  0  0  0  0  0
   29.1547   65.6098    7.3168 H   0  0  0  0  0  0  0  0  0  0  0  0
   33.3205   65.4727   10.4268 H   0  0  0  0  0  0  0  0  0  0  0  0
   31.3261   65.0049   10.4607 H   0  0  0  0  0  0  0  0  0  0  0  0
   30.1987   64.6584    9.3314 H   0  0  0  0  0  0  0  0  0  0  0  0
   31.2904   68.3956    7.4877 H   0  0  0  0  0  0  0  0  0  0  0  0
   33.6003   68.2924    7.7986 H   0  0  0  0  0  0  0  0  0  0  0  0
   31.4317   65.5722    6.9703 H   0  0  0  0  0  0  0  0  0  0  0  0
   32.7149   67.5794    9.7499 H   0  0  0  0  0  0  0  0  0  0  0  0
   30.6595   66.9434    9.3801 H   0  0  0  0  0  0  0  0  0  0  0  0
  1  6  1  0  0  0  0
  2  7  1  0  0  0  0
  3  8  1  0  0  0  0
  4  9  1  0  0  0  0
  5 10  1  0  0  0  0
  6  7  1  0  0  0  0
  6  8  1  0  0  0  0
  7  9  1  0  0  0  0
  8 10  1  0  0  0  0
  9 10  1  0  0  0  0
  1 11  1  0  0  0  0
  2 12  1  0  0  0  0
  3 13  1  0  0  0  0
  4 14  1  0  0  0  0
  5 15  1  0  0  0  0
  5 16  1  0  0  0  0
  6 17  1  0  0  0  0
  7 18  1  0  0  0  0
  8 19  1  0  0  0  0
  9 20  1  0  0  0  0
 10 21  1  0  0  0  0
M  END
> <pdb_id>
3DX3

> <uniprot_id>
Q24451

> <usmiles>
O[C@H]1[C@@H](O)[C@@H](O)[C@H](O)[C@H]1N

$$$$
YV1_A_901
          07192420443D 1   1.00000     0.00000     0
            
 56 60  0  0  0  0            999 V2000
    8.7793  -19.8298   47.9551 Cl  0  0  0  0  0  0  0  0  0  0  0  0
    7.8828  -25.0022   47.1918 Cl  0  0  0  0  0  0  0  0  0  0  0  0
    9.1612  -22.5434   54.7871 O   0  0  0  0  0  0  0  0  0  0  0  0
   17.4624  -20.0633   57.0242 O   0  0  0  0  0  0  0  0  0  0  0  0
    9.8076  -22.2192   52.6321 O   0  0  0  0  0  0  0  0  0  0  0  0
   22.3975  -22.3321   53.4485 N   0  0  0  0  0  0  0  0  0  0  0  0
   21.4322  -23.3157   53.4166 N   0  0  0  0  0  0  0  0  0  0  0  0
   21.8416  -21.2187   54.0468 N   0  0  0  0  0  0  0  0  0  0  0  0
   10.8995  -21.0041   54.5015 N   0  0  0  0  0  0  0  0  0  0  0  0
   15.8792  -20.4836   55.5316 N   0  0  0  0  0  0  0  0  0  0  0  0
    8.7808  -23.0277   52.0700 C   0  0  0  0  0  0  0  0  0  0  0  0
   11.1711  -21.1256   55.9220 C   0  0  0  0  0  0  0  0  0  0  0  0
   11.6934  -20.3692   53.5007 C   0  0  0  0  0  0  0  0  0  0  0  0
   14.8428  -19.7646   56.3230 C   0  0  0  0  0  0  0  0  0  0  0  0
   15.3194  -21.0209   54.3072 C   0  0  0  0  0  0  0  0  0  0  0  0
   12.6831  -21.2228   56.2192 C   0  0  0  0  0  0  0  0  0  0  0  0
   12.9773  -21.1351   53.4199 C   0  0  0  0  0  0  0  0  0  0  0  0
   19.0777  -23.4581   54.2356 C   0  0  0  0  0  0  0  0  0  0  0  0
   18.0807  -22.6882   54.8384 C   0  0  0  0  0  0  0  0  0  0  0  0
    8.3313  -22.4630   47.7458 C   0  0  0  0  0  0  0  0  0  0  0  0
    8.7236  -21.5706   50.0097 C   0  0  0  0  0  0  0  0  0  0  0  0
    8.3166  -23.9321   49.6938 C   0  0  0  0  0  0  0  0  0  0  0  0
   19.5459  -20.7340   55.0184 C   0  0  0  0  0  0  0  0  0  0  0  0
    9.9762  -22.0694   54.0298 C   0  0  0  0  0  0  0  0  0  0  0  0
    8.5914  -21.4176   48.6311 C   0  0  0  0  0  0  0  0  0  0  0  0
    8.1680  -23.7132   48.3171 C   0  0  0  0  0  0  0  0  0  0  0  0
   17.2152  -20.5945   55.9552 C   0  0  0  0  0  0  0  0  0  0  0  0
   20.3290  -22.8336   53.9954 C   0  0  0  0  0  0  0  0  0  0  0  0
   20.5707  -21.5165   54.3794 C   0  0  0  0  0  0  0  0  0  0  0  0
    8.6254  -22.8364   50.5450 C   0  0  0  0  0  0  0  0  0  0  0  0
   18.3152  -21.3502   55.2304 C   0  0  0  0  0  0  0  0  0  0  0  0
   13.5143  -20.1021   55.6049 C   0  0  2  0  0  0  0  0  0  0  0  0
   13.9625  -20.3266   54.2381 C   0  0  1  0  0  0  0  0  0  0  0  0
   21.5392  -24.2308   53.0279 H   0  0  0  0  0  0  0  0  0  0  0  0
    7.9141  -22.7931   52.5101 H   0  0  0  0  0  0  0  0  0  0  0  0
    8.9970  -23.9874   52.2499 H   0  0  0  0  0  0  0  0  0  0  0  0
   10.7213  -21.9495   56.2669 H   0  0  0  0  0  0  0  0  0  0  0  0
   10.8016  -20.3232   56.3906 H   0  0  0  0  0  0  0  0  0  0  0  0
   11.8743  -19.4193   53.7556 H   0  0  0  0  0  0  0  0  0  0  0  0
   11.2214  -20.3937   52.6194 H   0  0  0  0  0  0  0  0  0  0  0  0
   15.0103  -18.7788   56.3140 H   0  0  0  0  0  0  0  0  0  0  0  0
   14.8281  -20.0916   57.2679 H   0  0  0  0  0  0  0  0  0  0  0  0
   15.2157  -22.0140   54.3617 H   0  0  0  0  0  0  0  0  0  0  0  0
   15.8862  -20.7878   53.5170 H   0  0  0  0  0  0  0  0  0  0  0  0
   13.0178  -22.0942   55.8605 H   0  0  0  0  0  0  0  0  0  0  0  0
   12.8099  -21.1998   57.2109 H   0  0  0  0  0  0  0  0  0  0  0  0
   13.2843  -21.2089   52.4711 H   0  0  0  0  0  0  0  0  0  0  0  0
   12.8661  -22.0507   53.8064 H   0  0  0  0  0  0  0  0  0  0  0  0
   18.9162  -24.4121   53.9831 H   0  0  0  0  0  0  0  0  0  0  0  0
   17.1799  -23.0927   54.9966 H   0  0  0  0  0  0  0  0  0  0  0  0
    8.2667  -22.3183   46.7584 H   0  0  0  0  0  0  0  0  0  0  0  0
    8.8863  -20.7785   50.5980 H   0  0  0  0  0  0  0  0  0  0  0  0
    8.2063  -24.8506   50.0735 H   0  0  0  0  0  0  0  0  0  0  0  0
   19.7105  -19.7882   55.2983 H   0  0  0  0  0  0  0  0  0  0  0  0
   12.9525  -19.2748   55.6058 H   0  0  0  0  0  0  0  0  0  0  0  0
   14.0851  -19.4378   53.7963 H   0  0  0  0  0  0  0  0  0  0  0  0
  1 25  1  0  0  0  0
  2 26  1  0  0  0  0
  3 24  2  0  0  0  0
  4 27  2  0  0  0  0
  5 11  1  0  0  0  0
  5 24  1  0  0  0  0
  6  7  1  0  0  0  0
  6  8  2  0  0  0  0
  7 28  1  0  0  0  0
  8 29  1  0  0  0  0
  9 12  1  0  0  0  0
  9 13  1  0  0  0  0
  9 24  1  0  0  0  0
 10 14  1  0  0  0  0
 10 15  1  0  0  0  0
 10 27  1  0  0  0  0
 11 30  1  0  0  0  0
 12 16  1  0  0  0  0
 13 17  1  0  0  0  0
 14 32  1  0  0  0  0
 15 33  1  0  0  0  0
 16 32  1  0  0  0  0
 17 33  1  0  0  0  0
 18 19  1  0  0  0  0
 18 28  2  0  0  0  0
 19 31  2  0  0  0  0
 20 25  2  0  0  0  0
 20 26  1  0  0  0  0
 21 25  1  0  0  0  0
 21 30  2  0  0  0  0
 22 26  2  0  0  0  0
 22 30  1  0  0  0  0
 23 29  2  0  0  0  0
 23 31  1  0  0  0  0
 27 31  1  0  0  0  0
 28 29  1  0  0  0  0
 32 33  1  0  0  0  0
  7 34  1  0  0  0  0
 11 35  1  0  0  0  0
 11 36  1  0  0  0  0
 12 37  1  0  0  0  0
 12 38  1  0  0  0  0
 13 39  1  0  0  0  0
 13 40  1  0  0  0  0
 14 41  1  0  0  0  0
 14 42  1  0  0  0  0
 15 43  1  0  0  0  0
 15 44  1  0  0  0  0
 16 45  1  0  0  0  0
 16 46  1  0  0  0  0
 17 47  1  0  0  0  0
 17 48  1  0  0  0  0
 18 49  1  0  0  0  0
 19 50  1  0  0  0  0
 20 51  1  0  0  0  0
 21 52  1  0  0  0  0
 22 53  1  0  0  0  0
 23 54  1  0  0  0  0
 32 55  1  0  0  0  0
 33 56  1  0  0  0  0
M  END
> <pdb_id>
5S9M

> <uniprot_id>
Q64610

> <usmiles>
Clc1cc(Cl)cc(c1)COC(=O)N2CC[C@@H]3[C@@H](CN(C(=O)c4cc5N=NNc5cc4)C3)CC2

$$$$
YVS_A_901
          07192420443D 1   1.00000     0.00000     0
            
 54 58  0  0  0  0            999 V2000
    6.3209  -22.7420   45.9889 F   0  0  0  0  0  0  0  0  0  0  0  0
    7.1176  -24.3865   44.8372 F   0  0  0  0  0  0  0  0  0  0  0  0
    5.9807  -24.8059   46.6515 F   0  0  0  0  0  0  0  0  0  0  0  0
    8.8969  -22.2820   55.0777 O   0  0  0  0  0  0  0  0  0  0  0  0
   16.5698  -19.8174   56.4981 O   0  0  0  0  0  0  0  0  0  0  0  0
    9.2327  -22.7669   52.9056 O   0  0  0  0  0  0  0  0  0  0  0  0
    8.0491  -24.1290   46.8060 O   0  0  0  0  0  0  0  0  0  0  0  0
   21.7409  -22.6582   53.1572 N   0  0  0  0  0  0  0  0  0  0  0  0
   20.7898  -23.6082   53.3687 N   0  0  0  0  0  0  0  0  0  0  0  0
   21.2478  -21.4154   53.4850 N   0  0  0  0  0  0  0  0  0  0  0  0
   10.9748  -21.7232   54.1646 N   0  0  0  0  0  0  0  0  0  0  0  0
   15.0442  -20.7340   55.1497 N   0  0  0  0  0  0  0  0  0  0  0  0
    8.2832  -22.0957   52.1081 C   0  0  0  0  0  0  0  0  0  0  0  0
   12.0282  -21.6101   53.2290 C   0  0  0  0  0  0  0  0  0  0  0  0
   11.3437  -21.1975   55.5090 C   0  0  0  0  0  0  0  0  0  0  0  0
   14.5772  -21.5131   54.0029 C   0  0  0  0  0  0  0  0  0  0  0  0
   13.8577  -20.2043   55.8666 C   0  0  0  0  0  0  0  0  0  0  0  0
    7.9754  -24.5691   49.1776 C   0  0  0  0  0  0  0  0  0  0  0  0
    8.2583  -22.2733   48.2998 C   0  0  0  0  0  0  0  0  0  0  0  0
   18.4654  -23.4064   54.2956 C   0  0  0  0  0  0  0  0  0  0  0  0
    8.0383  -24.0574   50.4810 C   0  0  0  0  0  0  0  0  0  0  0  0
    8.3230  -21.7697   49.6058 C   0  0  0  0  0  0  0  0  0  0  0  0
   17.4735  -22.5374   54.7620 C   0  0  0  0  0  0  0  0  0  0  0  0
   18.9455  -20.5951   54.4345 C   0  0  0  0  0  0  0  0  0  0  0  0
    9.6372  -22.2477   54.1319 C   0  0  0  0  0  0  0  0  0  0  0  0
   16.4151  -20.4796   55.4810 C   0  0  0  0  0  0  0  0  0  0  0  0
    8.1097  -23.6460   48.1002 C   0  0  0  0  0  0  0  0  0  0  0  0
   19.7107  -22.9106   53.8413 C   0  0  0  0  0  0  0  0  0  0  0  0
   19.9520  -21.5394   53.9338 C   0  0  0  0  0  0  0  0  0  0  0  0
    8.2130  -22.6765   50.7000 C   0  0  0  0  0  0  0  0  0  0  0  0
   13.1604  -20.9754   53.9605 C   0  0  2  0  0  0  0  0  0  0  0  0
   12.8547  -21.2118   55.4110 C   0  0  2  0  0  0  0  0  0  0  0  0
   17.6297  -21.1505   54.8292 C   0  0  0  0  0  0  0  0  0  0  0  0
    6.8498  -24.0090   46.0721 C   0  0  0  0  0  0  0  0  0  0  0  0
   20.8626  -24.5935   53.2140 H   0  0  0  0  0  0  0  0  0  0  0  0
    8.5363  -21.1301   52.0474 H   0  0  0  0  0  0  0  0  0  0  0  0
    7.3838  -22.1783   52.5373 H   0  0  0  0  0  0  0  0  0  0  0  0
   11.7482  -21.0379   52.4580 H   0  0  0  0  0  0  0  0  0  0  0  0
   12.2940  -22.5140   52.8940 H   0  0  0  0  0  0  0  0  0  0  0  0
   11.0163  -21.7951   56.2409 H   0  0  0  0  0  0  0  0  0  0  0  0
   10.9925  -20.2722   55.6519 H   0  0  0  0  0  0  0  0  0  0  0  0
   14.6054  -22.4978   54.1749 H   0  0  0  0  0  0  0  0  0  0  0  0
   15.0880  -21.3057   53.1686 H   0  0  0  0  0  0  0  0  0  0  0  0
   13.6219  -19.2783   55.5718 H   0  0  0  0  0  0  0  0  0  0  0  0
   13.9804  -20.2171   56.8589 H   0  0  0  0  0  0  0  0  0  0  0  0
    7.8412  -25.5458   49.0099 H   0  0  0  0  0  0  0  0  0  0  0  0
    8.3182  -21.6538   47.5172 H   0  0  0  0  0  0  0  0  0  0  0  0
   18.2923  -24.3912   54.2830 H   0  0  0  0  0  0  0  0  0  0  0  0
    7.9586  -24.6773   51.2616 H   0  0  0  0  0  0  0  0  0  0  0  0
    8.4443  -20.7903   49.7675 H   0  0  0  0  0  0  0  0  0  0  0  0
   16.6049  -22.9303   55.0639 H   0  0  0  0  0  0  0  0  0  0  0  0
   19.1400  -19.6168   54.5061 H   0  0  0  0  0  0  0  0  0  0  0  0
   13.1764  -19.9932   53.7734 H   0  0  0  0  0  0  0  0  0  0  0  0
   13.1819  -22.1230   55.6613 H   0  0  0  0  0  0  0  0  0  0  0  0
  1 34  1  0  0  0  0
  2 34  1  0  0  0  0
  3 34  1  0  0  0  0
  4 25  2  0  0  0  0
  5 26  2  0  0  0  0
  6 13  1  0  0  0  0
  6 25  1  0  0  0  0
  7 27  1  0  0  0  0
  7 34  1  0  0  0  0
  8  9  1  0  0  0  0
  8 10  2  0  0  0  0
  9 28  1  0  0  0  0
 10 29  1  0  0  0  0
 11 14  1  0  0  0  0
 11 15  1  0  0  0  0
 11 25  1  0  0  0  0
 12 16  1  0  0  0  0
 12 17  1  0  0  0  0
 12 26  1  0  0  0  0
 13 30  1  0  0  0  0
 14 31  1  0  0  0  0
 15 32  1  0  0  0  0
 16 31  1  0  0  0  0
 17 32  1  0  0  0  0
 18 21  2  0  0  0  0
 18 27  1  0  0  0  0
 19 22  1  0  0  0  0
 19 27  2  0  0  0  0
 20 23  1  0  0  0  0
 20 28  2  0  0  0  0
 21 30  1  0  0  0  0
 22 30  2  0  0  0  0
 23 33  2  0  0  0  0
 24 29  2  0  0  0  0
 24 33  1  0  0  0  0
 26 33  1  0  0  0  0
 28 29  1  0  0  0  0
 31 32  1  0  0  0  0
  9 35  1  0  0  0  0
 13 36  1  0  0  0  0
 13 37  1  0  0  0  0
 14 38  1  0  0  0  0
 14 39  1  0  0  0  0
 15 40  1  0  0  0  0
 15 41  1  0  0  0  0
 16 42  1  0  0  0  0
 16 43  1  0  0  0  0
 17 44  1  0  0  0  0
 17 45  1  0  0  0  0
 18 46  1  0  0  0  0
 19 47  1  0  0  0  0
 20 48  1  0  0  0  0
 21 49  1  0  0  0  0
 22 50  1  0  0  0  0
 23 51  1  0  0  0  0
 24 52  1  0  0  0  0
 31 53  1  0  0  0  0
 32 54  1  0  0  0  0
M  END
> <pdb_id>
5S9N

> <uniprot_id>
Q64610

> <usmiles>
FC(F)(F)Oc1ccc(cc1)COC(=O)N2C[C@H]3[C@H](C2)CN(C(=O)c4cc5N=NNc5cc4)C3

$$$$
YW7_A_301
          07212401333D 1   1.00000     0.00000     0
            
 75 80  0  0  0  0            999 V2000
  -12.0870  -17.1730  -21.9410 O   0  0  0  0  0  0  0  0  0  0  0  0
  -10.0010  -18.7350  -14.3810 O   0  0  0  0  0  0  0  0  0  0  0  0
  -16.7170  -23.1640  -23.1660 O   0  0  0  0  0  0  0  0  0  0  0  0
  -16.5550  -21.0040  -14.1480 O   0  0  0  0  0  0  0  0  0  0  0  0
  -14.2130  -16.4400  -22.3070 N   0  0  0  0  0  0  0  0  0  0  0  0
  -17.7300  -22.2050  -23.1860 N   0  0  0  0  0  0  0  0  0  0  0  0
  -13.2770  -20.4190  -17.9990 N   0  0  0  0  0  0  0  0  0  0  0  0
  -14.4430  -23.4660  -22.2730 C   0  0  0  0  0  0  0  0  0  0  0  0
  -18.0580  -19.8630  -22.3400 C   0  0  0  0  0  0  0  0  0  0  0  0
  -10.3150  -16.3690  -14.5860 C   0  0  0  0  0  0  0  0  0  0  0  0
   -8.4810  -17.5610  -15.8160 C   0  0  0  0  0  0  0  0  0  0  0  0
  -12.3950  -25.2310  -19.2630 C   0  0  0  0  0  0  0  0  0  0  0  0
  -11.4370  -24.2670  -18.8730 C   0  0  0  0  0  0  0  0  0  0  0  0
  -13.7490  -25.0490  -18.9260 C   0  0  0  0  0  0  0  0  0  0  0  0
  -11.8260  -23.1120  -18.1620 C   0  0  0  0  0  0  0  0  0  0  0  0
  -14.1510  -23.8990  -18.2040 C   0  0  0  0  0  0  0  0  0  0  0  0
  -11.7410  -17.1880  -18.6850 C   0  0  0  0  0  0  0  0  0  0  0  0
  -10.9350  -16.9680  -17.5530 C   0  0  0  0  0  0  0  0  0  0  0  0
  -14.7730  -20.9580  -19.9740 C   0  0  0  0  0  0  0  0  0  0  0  0
  -11.6090  -19.1030  -16.5690 C   0  0  0  0  0  0  0  0  0  0  0  0
  -14.7510  -19.2950  -21.7590 C   0  0  0  0  0  0  0  0  0  0  0  0
  -16.5580  -20.1040  -15.2550 C   0  0  0  0  0  0  0  0  0  0  0  0
  -16.3610  -22.3410  -14.5990 C   0  0  0  0  0  0  0  0  0  0  0  0
  -15.2220  -20.1000  -15.9500 C   0  0  0  0  0  0  0  0  0  0  0  0
  -15.0230  -22.4940  -15.2800 C   0  0  0  0  0  0  0  0  0  0  0  0
  -13.2980  -17.3250  -21.7670 C   0  0  0  0  0  0  0  0  0  0  0  0
  -15.6620  -22.6550  -22.4460 C   0  0  0  0  0  0  0  0  0  0  0  0
  -17.3110  -21.1180  -22.5000 C   0  0  0  0  0  0  0  0  0  0  0  0
  -12.4370  -19.3190  -17.7060 C   0  0  0  0  0  0  0  0  0  0  0  0
  -13.8740  -20.1710  -19.2500 C   0  0  0  0  0  0  0  0  0  0  0  0
  -13.1920  -22.9040  -17.8250 C   0  0  0  0  0  0  0  0  0  0  0  0
  -15.1740  -20.5210  -21.2120 C   0  0  0  0  0  0  0  0  0  0  0  0
  -13.8530  -18.5010  -21.0510 C   0  0  0  0  0  0  0  0  0  0  0  0
  -12.5010  -18.3670  -18.7750 C   0  0  0  0  0  0  0  0  0  0  0  0
  -10.8500  -17.9020  -16.5090 C   0  0  0  0  0  0  0  0  0  0  0  0
  -15.9960  -21.3870  -22.0060 C   0  0  0  0  0  0  0  0  0  0  0  0
  -13.4050  -18.9090  -19.7720 C   0  0  0  0  0  0  0  0  0  0  0  0
  -13.5060  -21.5820  -17.0910 C   0  0  2  0  0  0  0  0  0  0  0  0
  -14.9010  -21.5110  -16.4470 C   0  0  0  0  0  0  0  0  0  0  0  0
   -9.9140  -17.6480  -15.3110 C   0  0  0  0  0  0  0  0  0  0  0  0
   -9.3870  -18.5490  -13.6240 H   0  0  0  0  0  0  0  0  0  0  0  0
  -13.9010  -15.6260  -22.8290 H   0  0  0  0  0  0  0  0  0  0  0  0
  -15.2150  -16.5640  -22.2140 H   0  0  0  0  0  0  0  0  0  0  0  0
  -14.6140  -24.4990  -22.5740 H   0  0  0  0  0  0  0  0  0  0  0  0
  -14.0960  -23.4780  -21.2410 H   0  0  0  0  0  0  0  0  0  0  0  0
  -13.6340  -23.0760  -22.8880 H   0  0  0  0  0  0  0  0  0  0  0  0
  -19.0070  -20.0840  -21.8600 H   0  0  0  0  0  0  0  0  0  0  0  0
  -18.2680  -19.3820  -23.2940 H   0  0  0  0  0  0  0  0  0  0  0  0
  -17.5600  -19.1340  -21.7030 H   0  0  0  0  0  0  0  0  0  0  0  0
  -10.1770  -15.4780  -15.1950 H   0  0  0  0  0  0  0  0  0  0  0  0
   -9.7430  -16.2020  -13.6740 H   0  0  0  0  0  0  0  0  0  0  0  0
  -11.3640  -16.3970  -14.2950 H   0  0  0  0  0  0  0  0  0  0  0  0
   -8.3090  -16.6810  -16.4340 H   0  0  0  0  0  0  0  0  0  0  0  0
   -8.2010  -18.4200  -16.4230 H   0  0  0  0  0  0  0  0  0  0  0  0
   -7.7690  -17.5080  -14.9930 H   0  0  0  0  0  0  0  0  0  0  0  0
  -12.0820  -26.1070  -19.8310 H   0  0  0  0  0  0  0  0  0  0  0  0
  -10.3900  -24.4170  -19.1270 H   0  0  0  0  0  0  0  0  0  0  0  0
  -14.4920  -25.7820  -19.2350 H   0  0  0  0  0  0  0  0  0  0  0  0
  -11.0650  -22.3930  -17.8650 H   0  0  0  0  0  0  0  0  0  0  0  0
  -15.2070  -23.8030  -17.9590 H   0  0  0  0  0  0  0  0  0  0  0  0
  -11.7860  -16.4380  -19.4730 H   0  0  0  0  0  0  0  0  0  0  0  0
  -10.3960  -16.0240  -17.4930 H   0  0  0  0  0  0  0  0  0  0  0  0
  -15.1940  -21.8710  -19.5600 H   0  0  0  0  0  0  0  0  0  0  0  0
  -11.5740  -19.8480  -15.7770 H   0  0  0  0  0  0  0  0  0  0  0  0
  -15.1470  -18.9620  -22.7170 H   0  0  0  0  0  0  0  0  0  0  0  0
  -17.3610  -20.3360  -15.9520 H   0  0  0  0  0  0  0  0  0  0  0  0
  -16.8090  -19.1400  -14.8110 H   0  0  0  0  0  0  0  0  0  0  0  0
  -16.4270  -22.9310  -13.6860 H   0  0  0  0  0  0  0  0  0  0  0  0
  -17.1840  -22.6730  -15.2310 H   0  0  0  0  0  0  0  0  0  0  0  0
  -15.2570  -19.3860  -16.7720 H   0  0  0  0  0  0  0  0  0  0  0  0
  -14.4470  -19.7240  -15.2840 H   0  0  0  0  0  0  0  0  0  0  0  0
  -14.2270  -22.3380  -14.5540 H   0  0  0  0  0  0  0  0  0  0  0  0
  -14.9020  -23.5260  -15.6040 H   0  0  0  0  0  0  0  0  0  0  0  0
  -12.7960  -21.5200  -16.2680 H   0  0  0  0  0  0  0  0  0  0  0  0
  -15.6660  -21.7670  -17.1780 H   0  0  0  0  0  0  0  0  0  0  0  0
  1 26  2  0  0  0  0
  2 40  1  0  0  0  0
  2 41  1  0  0  0  0
  3  6  1  0  0  0  0
  3 27  1  0  0  0  0
  4 22  1  0  0  0  0
  4 23  1  0  0  0  0
  5 26  1  0  0  0  0
  5 42  1  0  0  0  0
  5 43  1  0  0  0  0
  6 28  2  0  0  0  0
  7 29  1  0  0  0  0
  7 30  1  0  0  0  0
  7 38  1  0  0  0  0
  8 27  1  0  0  0  0
  8 44  1  0  0  0  0
  8 45  1  0  0  0  0
  8 46  1  0  0  0  0
  9 28  1  0  0  0  0
  9 47  1  0  0  0  0
  9 48  1  0  0  0  0
  9 49  1  0  0  0  0
 10 40  1  0  0  0  0
 10 50  1  0  0  0  0
 10 51  1  0  0  0  0
 10 52  1  0  0  0  0
 11 40  1  0  0  0  0
 11 53  1  0  0  0  0
 11 54  1  0  0  0  0
 11 55  1  0  0  0  0
 12 13  2  0  0  0  0
 12 14  1  0  0  0  0
 12 56  1  0  0  0  0
 13 15  1  0  0  0  0
 13 57  1  0  0  0  0
 14 16  2  0  0  0  0
 14 58  1  0  0  0  0
 15 31  2  0  0  0  0
 15 59  1  0  0  0  0
 16 31  1  0  0  0  0
 16 60  1  0  0  0  0
 17 18  1  0  0  0  0
 17 34  2  0  0  0  0
 17 61  1  0  0  0  0
 18 35  2  0  0  0  0
 18 62  1  0  0  0  0
 19 30  1  0  0  0  0
 19 32  2  0  0  0  0
 19 63  1  0  0  0  0
 20 29  2  0  0  0  0
 20 35  1  0  0  0  0
 20 64  1  0  0  0  0
 21 32  1  0  0  0  0
 21 33  2  0  0  0  0
 21 65  1  0  0  0  0
 22 24  1  0  0  0  0
 22 66  1  0  0  0  0
 22 67  1  0  0  0  0
 23 25  1  0  0  0  0
 23 68  1  0  0  0  0
 23 69  1  0  0  0  0
 24 39  1  0  0  0  0
 24 70  1  0  0  0  0
 24 71  1  0  0  0  0
 25 39  1  0  0  0  0
 25 72  1  0  0  0  0
 25 73  1  0  0  0  0
 26 33  1  0  0  0  0
 27 36  2  0  0  0  0
 28 36  1  0  0  0  0
 29 34  1  0  0  0  0
 30 37  2  0  0  0  0
 31 38  1  0  0  0  0
 32 36  1  0  0  0  0
 33 37  1  0  0  0  0
 34 37  1  0  0  0  0
 35 40  1  0  0  0  0
 38 39  1  0  0  0  0
 38 74  1  0  0  0  0
 39 75  1  0  0  0  0
M  END
> <pdb_id>
5S9Q

> <uniprot_id>
O60885

> <usmiles>
O=C(N)c1c2c(N(c3c2ccc(c3)C(O)(C)C)[C@H](c4ccccc4)C5CCOCC5)cc(c1)C6=C(ON=C6C)C

$$$$
Z21_A_1351
          07192422523D 1   1.00000     0.00000     0
            
 27 29  0  0  0  0            999 V2000
  -24.0792   -9.5375   -0.0100 Br  0  0  0  0  0  0  0  0  0  0  0  0
  -32.0389  -10.2781   -5.4669 O   0  0  0  0  0  0  0  0  0  0  0  0
  -32.6741   -9.7164   -2.1424 N   0  0  0  0  0  0  0  0  0  0  0  0
  -32.9217  -10.0951   -4.4284 N   0  0  0  0  0  0  0  0  0  0  0  0
  -30.7059  -10.1956   -5.0356 N   0  0  0  0  0  0  0  0  0  0  0  0
  -26.7324   -9.8455    0.5564 N   0  0  0  0  0  0  0  0  0  0  0  0
  -29.8208   -9.9348   -1.5270 N   0  0  0  0  0  0  0  0  0  0  0  0
  -28.3641   -9.6098   -3.2282 N   0  0  0  0  0  0  0  0  0  0  0  0
  -27.3406  -10.6522   -5.2131 C   0  0  0  0  0  0  0  0  0  0  0  0
  -28.0431   -9.9579    0.3131 C   0  0  0  0  0  0  0  0  0  0  0  0
  -27.7995   -9.3708   -4.5699 C   0  0  0  0  0  0  0  0  0  0  0  0
  -26.2409   -9.5227   -1.8456 C   0  0  0  0  0  0  0  0  0  0  0  0
  -25.9088   -9.6446   -0.5063 C   0  0  0  0  0  0  0  0  0  0  0  0
  -32.1786   -9.9137   -3.3704 C   0  0  0  0  0  0  0  0  0  0  0  0
  -29.6691   -9.8042   -2.8314 C   0  0  0  0  0  0  0  0  0  0  0  0
  -28.5271   -9.8595   -1.0228 C   0  0  0  0  0  0  0  0  0  0  0  0
  -30.7869   -9.9690   -3.7449 C   0  0  0  0  0  0  0  0  0  0  0  0
  -27.6096   -9.6503   -2.0621 C   0  0  0  0  0  0  0  0  0  0  0  0
  -32.0548   -9.5830   -1.3687 H   0  0  0  0  0  0  0  0  0  0  0  0
  -33.6637   -9.7025   -1.9988 H   0  0  0  0  0  0  0  0  0  0  0  0
  -26.9646  -10.4547   -6.1185 H   0  0  0  0  0  0  0  0  0  0  0  0
  -26.6358  -11.0767   -4.6448 H   0  0  0  0  0  0  0  0  0  0  0  0
  -28.1167  -11.2764   -5.3035 H   0  0  0  0  0  0  0  0  0  0  0  0
  -28.6815  -10.1107    1.0675 H   0  0  0  0  0  0  0  0  0  0  0  0
  -27.0191   -8.7509   -4.4881 H   0  0  0  0  0  0  0  0  0  0  0  0
  -28.5000   -8.9506   -5.1468 H   0  0  0  0  0  0  0  0  0  0  0  0
  -25.5739   -9.3615   -2.5731 H   0  0  0  0  0  0  0  0  0  0  0  0
  1 13  1  0  0  0  0
  2  4  1  0  0  0  0
  2  5  1  0  0  0  0
  3 14  1  0  0  0  0
  4 14  2  0  0  0  0
  5 17  2  0  0  0  0
  6 10  1  0  0  0  0
  6 13  2  0  0  0  0
  7 15  2  0  0  0  0
  7 16  1  0  0  0  0
  8 11  1  0  0  0  0
  8 15  1  0  0  0  0
  8 18  1  0  0  0  0
  9 11  1  0  0  0  0
 10 16  2  0  0  0  0
 12 13  1  0  0  0  0
 12 18  2  0  0  0  0
 14 17  1  0  0  0  0
 15 17  1  0  0  0  0
 16 18  1  0  0  0  0
  3 19  1  0  0  0  0
  3 20  1  0  0  0  0
  9 21  1  0  0  0  0
  9 22  1  0  0  0  0
  9 23  1  0  0  0  0
 10 24  1  0  0  0  0
 11 25  1  0  0  0  0
 11 26  1  0  0  0  0
 12 27  1  0  0  0  0
M  END
> <pdb_id>
4C37

> <uniprot_id>
P00517

> <usmiles>
Brc1ncc2N=C(N(c2c1)CC)C3=NON=C3N

$$$$
Z26_A_401
          07202408173D 1   1.00000     0.00000     0
            
 38 40  0  0  0  0            999 V2000
  -18.1500   -1.7370   18.7920 Cl  0  0  0  0  0  0  0  0  0  0  0  0
  -18.6710    0.7060   13.5200 O   0  0  0  0  0  0  0  0  0  0  0  0
  -21.7180    0.6410   14.7540 O   0  0  0  0  0  0  0  0  0  0  0  0
  -15.7210    0.5560   10.1200 N   0  0  0  0  0  0  0  0  0  0  0  0
  -18.6860   -0.8520   11.8520 N   0  0  0  0  0  0  0  0  0  0  0  0
  -21.9610    2.0520   14.7140 C   0  0  0  0  0  0  0  0  0  0  0  0
  -16.5020   -0.1430   10.9920 C   0  0  0  0  0  0  0  0  0  0  0  0
  -16.3110    1.2670    9.1800 C   0  0  0  0  0  0  0  0  0  0  0  0
  -19.6800    2.1870    7.8720 C   0  0  0  0  0  0  0  0  0  0  0  0
  -20.5050    1.4720    8.7750 C   0  0  0  0  0  0  0  0  0  0  0  0
  -20.1460   -0.0030   18.0420 C   0  0  0  0  0  0  0  0  0  0  0  0
  -18.3090    2.1290    7.9950 C   0  0  0  0  0  0  0  0  0  0  0  0
  -21.0010    0.5650   17.0920 C   0  0  0  0  0  0  0  0  0  0  0  0
  -19.9600    0.7080    9.7840 C   0  0  0  0  0  0  0  0  0  0  0  0
  -19.9330   -1.2920   13.9310 C   0  0  0  0  0  0  0  0  0  0  0  0
  -19.1730   -1.4040   16.3180 C   0  0  0  0  0  0  0  0  0  0  0  0
  -19.0390   -0.3870   13.0830 C   0  0  0  0  0  0  0  0  0  0  0  0
  -19.2480   -0.9840   17.6380 C   0  0  0  0  0  0  0  0  0  0  0  0
  -20.9330    0.1490   15.7580 C   0  0  0  0  0  0  0  0  0  0  0  0
  -17.8840   -0.1410   10.9400 C   0  0  0  0  0  0  0  0  0  0  0  0
  -17.7170    1.3510    9.0220 C   0  0  0  0  0  0  0  0  0  0  0  0
  -20.0170   -0.8500   15.3650 C   0  0  0  0  0  0  0  0  0  0  0  0
  -18.5470    0.6260    9.9330 C   0  0  0  0  0  0  0  0  0  0  0  0
  -19.0176   -1.7552   11.5794 H   0  0  0  0  0  0  0  0  0  0  0  0
  -22.5465    2.2674   13.9325 H   0  0  0  0  0  0  0  0  0  0  0  0
  -22.4146    2.3362   15.5587 H   0  0  0  0  0  0  0  0  0  0  0  0
  -21.0915    2.5375   14.6229 H   0  0  0  0  0  0  0  0  0  0  0  0
  -16.0536   -0.6835   11.7039 H   0  0  0  0  0  0  0  0  0  0  0  0
  -15.7336    1.7763    8.5418 H   0  0  0  0  0  0  0  0  0  0  0  0
  -20.0934    2.7345    7.1444 H   0  0  0  0  0  0  0  0  0  0  0  0
  -21.4991    1.5226    8.6786 H   0  0  0  0  0  0  0  0  0  0  0  0
  -20.1802    0.2920   18.9969 H   0  0  0  0  0  0  0  0  0  0  0  0
  -17.7295    2.6372    7.3579 H   0  0  0  0  0  0  0  0  0  0  0  0
  -21.6591    1.2665   17.3655 H   0  0  0  0  0  0  0  0  0  0  0  0
  -20.5581    0.2105   10.4123 H   0  0  0  0  0  0  0  0  0  0  0  0
  -19.5641   -2.2211   13.9042 H   0  0  0  0  0  0  0  0  0  0  0  0
  -20.8538   -1.2875   13.5409 H   0  0  0  0  0  0  0  0  0  0  0  0
  -18.5114   -2.1054   16.0530 H   0  0  0  0  0  0  0  0  0  0  0  0
  1 18  1  0  0  0  0
  2 17  2  0  0  0  0
  3  6  1  0  0  0  0
  3 19  1  0  0  0  0
  4  7  2  0  0  0  0
  4  8  1  0  0  0  0
  5 17  1  0  0  0  0
  5 20  1  0  0  0  0
  7 20  1  0  0  0  0
  8 21  2  0  0  0  0
  9 10  1  0  0  0  0
  9 12  2  0  0  0  0
 10 14  2  0  0  0  0
 11 13  2  0  0  0  0
 11 18  1  0  0  0  0
 12 21  1  0  0  0  0
 13 19  1  0  0  0  0
 14 23  1  0  0  0  0
 15 17  1  0  0  0  0
 15 22  1  0  0  0  0
 16 18  2  0  0  0  0
 16 22  1  0  0  0  0
 19 22  2  0  0  0  0
 20 23  2  0  0  0  0
 21 23  1  0  0  0  0
  5 24  1  0  0  0  0
  6 25  1  0  0  0  0
  6 26  1  0  0  0  0
  6 27  1  0  0  0  0
  7 28  1  0  0  0  0
  8 29  1  0  0  0  0
  9 30  1  0  0  0  0
 10 31  1  0  0  0  0
 11 32  1  0  0  0  0
 12 33  1  0  0  0  0
 13 34  1  0  0  0  0
 14 35  1  0  0  0  0
 15 36  1  0  0  0  0
 15 37  1  0  0  0  0
 16 38  1  0  0  0  0
M  END
> <pdb_id>
7S3K

> <uniprot_id>
P0DTD1

> <usmiles>
Clc1cc(c(OC)cc1)CC(=O)Nc2c3c(cnc2)cccc3

$$$$
Z48_A_401
          07212404193D 1   1.00000     0.00000     0
            
 54 57  0  0  0  0            999 V2000
    2.0910   10.1942   43.1708 O   0  0  0  0  0  0  0  0  0  0  0  0
    4.1255    7.6147   46.1427 O   0  0  0  0  0  0  0  0  0  0  0  0
   11.9460    6.2497   44.0197 N   0  0  0  0  0  0  0  0  0  0  0  0
    6.3067    8.9474   43.6770 N   0  0  0  0  0  0  0  0  0  0  0  0
   12.4585    7.9456   42.4974 N   0  0  0  0  0  0  0  0  0  0  0  0
   10.3111    7.7701   43.4891 N   0  0  0  0  0  0  0  0  0  0  0  0
    3.9252    9.6221   45.1154 N   0  0  0  0  0  0  0  0  0  0  0  0
    8.9567    5.2839   45.9819 C   0  0  0  0  0  0  0  0  0  0  0  0
    1.9146   10.8061   44.4658 C   0  0  0  0  0  0  0  0  0  0  0  0
   11.1446    5.6064   44.8560 C   0  0  0  0  0  0  0  0  0  0  0  0
    7.5706    8.6099   43.3819 C   0  0  0  0  0  0  0  0  0  0  0  0
   12.1209   11.5512   40.3984 C   0  0  0  0  0  0  0  0  0  0  0  0
    2.2709   11.7860   49.3970 C   0  0  0  0  0  0  0  0  0  0  0  0
   11.0004   10.7297   40.5045 C   0  0  0  0  0  0  0  0  0  0  0  0
   13.3283   11.1832   40.9807 C   0  0  0  0  0  0  0  0  0  0  0  0
    3.4794   11.7988   48.7166 C   0  0  0  0  0  0  0  0  0  0  0  0
    1.1647   11.1732   48.8342 C   0  0  0  0  0  0  0  0  0  0  0  0
   11.1006    9.5317   41.1998 C   0  0  0  0  0  0  0  0  0  0  0  0
   13.4180    9.9840   41.6690 C   0  0  0  0  0  0  0  0  0  0  0  0
    3.5846   11.1943   47.4763 C   0  0  0  0  0  0  0  0  0  0  0  0
    1.2601   10.5663   47.5896 C   0  0  0  0  0  0  0  0  0  0  0  0
    7.0081    7.5927   45.2899 C   0  0  0  0  0  0  0  0  0  0  0  0
   11.5460    7.3253   43.3520 C   0  0  0  0  0  0  0  0  0  0  0  0
    4.6044    8.4935   45.4354 C   0  0  0  0  0  0  0  0  0  0  0  0
   12.3084    9.1508   41.7900 C   0  0  0  0  0  0  0  0  0  0  0  0
    5.9470    8.3411   44.8528 C   0  0  0  0  0  0  0  0  0  0  0  0
    2.5495    9.9170   45.5522 C   0  0  2  0  0  0  0  0  0  0  0  0
    9.4290    7.1893   44.3089 C   0  0  0  0  0  0  0  0  0  0  0  0
    9.8463    6.0484   45.0375 C   0  0  0  0  0  0  0  0  0  0  0  0
    2.4705   10.5783   46.9084 C   0  0  0  0  0  0  0  0  0  0  0  0
    8.0577    7.7739   44.3548 C   0  0  0  0  0  0  0  0  0  0  0  0
    1.6776   10.7743   42.4690 H   0  0  0  0  0  0  0  0  0  0  0  0
    5.7215    9.5445   43.1284 H   0  0  0  0  0  0  0  0  0  0  0  0
   13.3304    7.4722   42.3725 H   0  0  0  0  0  0  0  0  0  0  0  0
    4.3890   10.2997   44.5447 H   0  0  0  0  0  0  0  0  0  0  0  0
    8.0548    5.7148   46.0128 H   0  0  0  0  0  0  0  0  0  0  0  0
    8.8646    4.3405   45.6630 H   0  0  0  0  0  0  0  0  0  0  0  0
    9.3598    5.2886   46.8970 H   0  0  0  0  0  0  0  0  0  0  0  0
    0.9380   10.9127   44.6526 H   0  0  0  0  0  0  0  0  0  0  0  0
    2.3551   11.7038   44.4718 H   0  0  0  0  0  0  0  0  0  0  0  0
   11.4767    4.8051   45.3537 H   0  0  0  0  0  0  0  0  0  0  0  0
    8.0788    8.9193   42.5782 H   0  0  0  0  0  0  0  0  0  0  0  0
   12.0557   12.4146   39.8981 H   0  0  0  0  0  0  0  0  0  0  0  0
    2.1986   12.2199   50.2951 H   0  0  0  0  0  0  0  0  0  0  0  0
   10.1339   10.9997   40.0848 H   0  0  0  0  0  0  0  0  0  0  0  0
   14.1270   11.7801   40.9034 H   0  0  0  0  0  0  0  0  0  0  0  0
    4.2762   12.2458   49.1231 H   0  0  0  0  0  0  0  0  0  0  0  0
    0.2940   11.1677   49.3259 H   0  0  0  0  0  0  0  0  0  0  0  0
   10.3011    8.9363   41.2787 H   0  0  0  0  0  0  0  0  0  0  0  0
   14.2874    9.7142   42.0828 H   0  0  0  0  0  0  0  0  0  0  0  0
    4.4576   11.1993   46.9887 H   0  0  0  0  0  0  0  0  0  0  0  0
    0.4606   10.1222   47.1851 H   0  0  0  0  0  0  0  0  0  0  0  0
    7.0367    7.0258   46.1131 H   0  0  0  0  0  0  0  0  0  0  0  0
    2.0409    9.0569   45.5915 H   0  0  0  0  0  0  0  0  0  0  0  0
  1  9  1  0  0  0  0
  2 24  2  0  0  0  0
  3 10  1  0  0  0  0
  3 23  2  0  0  0  0
  4 11  1  0  0  0  0
  4 26  1  0  0  0  0
  5 23  1  0  0  0  0
  5 25  1  0  0  0  0
  6 23  1  0  0  0  0
  6 28  2  0  0  0  0
  7 24  1  0  0  0  0
  7 27  1  0  0  0  0
  8 29  1  0  0  0  0
  9 27  1  0  0  0  0
 10 29  2  0  0  0  0
 11 31  2  0  0  0  0
 12 14  2  0  0  0  0
 12 15  1  0  0  0  0
 13 16  2  0  0  0  0
 13 17  1  0  0  0  0
 14 18  1  0  0  0  0
 15 19  2  0  0  0  0
 16 20  1  0  0  0  0
 17 21  2  0  0  0  0
 18 25  2  0  0  0  0
 19 25  1  0  0  0  0
 20 30  2  0  0  0  0
 21 30  1  0  0  0  0
 22 26  2  0  0  0  0
 22 31  1  0  0  0  0
 24 26  1  0  0  0  0
 27 30  1  0  0  0  0
 28 29  1  0  0  0  0
 28 31  1  0  0  0  0
  1 32  1  0  0  0  0
  4 33  1  0  0  0  0
  5 34  1  0  0  0  0
  7 35  1  0  0  0  0
  8 36  1  0  0  0  0
  8 37  1  0  0  0  0
  8 38  1  0  0  0  0
  9 39  1  0  0  0  0
  9 40  1  0  0  0  0
 10 41  1  0  0  0  0
 11 42  1  0  0  0  0
 12 43  1  0  0  0  0
 13 44  1  0  0  0  0
 14 45  1  0  0  0  0
 15 46  1  0  0  0  0
 16 47  1  0  0  0  0
 17 48  1  0  0  0  0
 18 49  1  0  0  0  0
 19 50  1  0  0  0  0
 20 51  1  0  0  0  0
 21 52  1  0  0  0  0
 22 53  1  0  0  0  0
 27 54  1  0  0  0  0
M  END
> <pdb_id>
3I5Z

> <uniprot_id>
P28482

> <usmiles>
O=C(N[C@@H](c1ccccc1)CO)C=2NC=C(c3nc(ncc3C)Nc4ccccc4)C2

$$$$
Z48_A_501
          07202403123D 1   1.00000     0.00000     0
            
 54 57  0  0  0  0            999 V2000
   34.7448    8.7773   28.2761 O   0  0  0  0  0  0  0  0  0  0  0  0
   36.5098   11.5561   31.0713 O   0  0  0  0  0  0  0  0  0  0  0  0
   41.2302    7.9537   36.6301 N   0  0  0  0  0  0  0  0  0  0  0  0
   37.8704    8.3466   31.6809 N   0  0  0  0  0  0  0  0  0  0  0  0
   41.6424    5.9473   35.7257 N   0  0  0  0  0  0  0  0  0  0  0  0
   40.3453    7.5444   34.6074 N   0  0  0  0  0  0  0  0  0  0  0  0
   36.7961   10.0505   29.5628 N   0  0  0  0  0  0  0  0  0  0  0  0
   39.4363   10.9686   35.7359 C   0  0  0  0  0  0  0  0  0  0  0  0
   35.7008    9.5029   27.5949 C   0  0  0  0  0  0  0  0  0  0  0  0
   40.7453    9.1470   36.6790 C   0  0  0  0  0  0  0  0  0  0  0  0
   38.6218    7.8869   32.6415 C   0  0  0  0  0  0  0  0  0  0  0  0
   42.1869    2.6737   33.2636 C   0  0  0  0  0  0  0  0  0  0  0  0
   38.1955   13.3054   26.0485 C   0  0  0  0  0  0  0  0  0  0  0  0
   42.4401    2.6008   34.6017 C   0  0  0  0  0  0  0  0  0  0  0  0
   41.7347    3.8470   32.7156 C   0  0  0  0  0  0  0  0  0  0  0  0
   36.8384   13.3510   26.0742 C   0  0  0  0  0  0  0  0  0  0  0  0
   38.8737   12.4032   26.8065 C   0  0  0  0  0  0  0  0  0  0  0  0
   42.2446    3.7017   35.3809 C   0  0  0  0  0  0  0  0  0  0  0  0
   41.5401    4.9478   33.4968 C   0  0  0  0  0  0  0  0  0  0  0  0
   36.1800   12.4918   26.8717 C   0  0  0  0  0  0  0  0  0  0  0  0
   38.2002   11.5389   27.6061 C   0  0  0  0  0  0  0  0  0  0  0  0
   38.4485   10.0804   32.8203 C   0  0  0  0  0  0  0  0  0  0  0  0
   41.0424    7.1639   35.6249 C   0  0  0  0  0  0  0  0  0  0  0  0
   36.9708   10.5106   30.7913 C   0  0  0  0  0  0  0  0  0  0  0  0
   41.7920    4.8874   34.8445 C   0  0  0  0  0  0  0  0  0  0  0  0
   37.7393    9.6908   31.7465 C   0  0  0  0  0  0  0  0  0  0  0  0
   36.0696   10.6595   28.4795 C   0  0  2  0  0  0  0  0  0  0  0  0
   39.8261    8.7263   34.5642 C   0  0  0  0  0  0  0  0  0  0  0  0
   39.9979    9.5974   35.6440 C   0  0  0  0  0  0  0  0  0  0  0  0
   36.8551   11.5915   27.6326 C   0  0  0  0  0  0  0  0  0  0  0  0
   39.0186    8.9361   33.3734 C   0  0  0  0  0  0  0  0  0  0  0  0
   34.4662    7.9918   27.7235 H   0  0  0  0  0  0  0  0  0  0  0  0
   37.4429    7.7748   30.9807 H   0  0  0  0  0  0  0  0  0  0  0  0
   42.0617    5.7837   36.6187 H   0  0  0  0  0  0  0  0  0  0  0  0
   37.2224    9.1686   29.3617 H   0  0  0  0  0  0  0  0  0  0  0  0
   38.9102   11.1695   34.9096 H   0  0  0  0  0  0  0  0  0  0  0  0
   38.8385   11.0311   36.5351 H   0  0  0  0  0  0  0  0  0  0  0  0
   40.1821   11.6289   35.8250 H   0  0  0  0  0  0  0  0  0  0  0  0
   35.3293    9.8357   26.7282 H   0  0  0  0  0  0  0  0  0  0  0  0
   36.5040    8.9345   27.4169 H   0  0  0  0  0  0  0  0  0  0  0  0
   40.9190    9.7323   37.4710 H   0  0  0  0  0  0  0  0  0  0  0  0
   38.8583    6.9287   32.8022 H   0  0  0  0  0  0  0  0  0  0  0  0
   42.3307    1.8726   32.6826 H   0  0  0  0  0  0  0  0  0  0  0  0
   38.7011   13.9419   25.4661 H   0  0  0  0  0  0  0  0  0  0  0  0
   42.7664    1.7471   35.0075 H   0  0  0  0  0  0  0  0  0  0  0  0
   41.5461    3.8957   31.7347 H   0  0  0  0  0  0  0  0  0  0  0  0
   36.3392   14.0100   25.5117 H   0  0  0  0  0  0  0  0  0  0  0  0
   39.8728   12.3768   26.7745 H   0  0  0  0  0  0  0  0  0  0  0  0
   42.4334    3.6479   36.3614 H   0  0  0  0  0  0  0  0  0  0  0  0
   41.2136    5.7997   33.0873 H   0  0  0  0  0  0  0  0  0  0  0  0
   35.1809   12.5158   26.9050 H   0  0  0  0  0  0  0  0  0  0  0  0
   38.6943   10.8740   28.1663 H   0  0  0  0  0  0  0  0  0  0  0  0
   38.5481   11.0163   33.1584 H   0  0  0  0  0  0  0  0  0  0  0  0
   35.2463   11.1113   28.8231 H   0  0  0  0  0  0  0  0  0  0  0  0
  1  9  1  0  0  0  0
  2 24  2  0  0  0  0
  3 10  1  0  0  0  0
  3 23  2  0  0  0  0
  4 11  1  0  0  0  0
  4 26  1  0  0  0  0
  5 23  1  0  0  0  0
  5 25  1  0  0  0  0
  6 23  1  0  0  0  0
  6 28  2  0  0  0  0
  7 24  1  0  0  0  0
  7 27  1  0  0  0  0
  8 29  1  0  0  0  0
  9 27  1  0  0  0  0
 10 29  2  0  0  0  0
 11 31  2  0  0  0  0
 12 14  2  0  0  0  0
 12 15  1  0  0  0  0
 13 16  2  0  0  0  0
 13 17  1  0  0  0  0
 14 18  1  0  0  0  0
 15 19  2  0  0  0  0
 16 20  1  0  0  0  0
 17 21  2  0  0  0  0
 18 25  2  0  0  0  0
 19 25  1  0  0  0  0
 20 30  2  0  0  0  0
 21 30  1  0  0  0  0
 22 26  2  0  0  0  0
 22 31  1  0  0  0  0
 24 26  1  0  0  0  0
 27 30  1  0  0  0  0
 28 29  1  0  0  0  0
 28 31  1  0  0  0  0
  1 32  1  0  0  0  0
  4 33  1  0  0  0  0
  5 34  1  0  0  0  0
  7 35  1  0  0  0  0
  8 36  1  0  0  0  0
  8 37  1  0  0  0  0
  8 38  1  0  0  0  0
  9 39  1  0  0  0  0
  9 40  1  0  0  0  0
 10 41  1  0  0  0  0
 11 42  1  0  0  0  0
 12 43  1  0  0  0  0
 13 44  1  0  0  0  0
 14 45  1  0  0  0  0
 15 46  1  0  0  0  0
 16 47  1  0  0  0  0
 17 48  1  0  0  0  0
 18 49  1  0  0  0  0
 19 50  1  0  0  0  0
 20 51  1  0  0  0  0
 21 52  1  0  0  0  0
 22 53  1  0  0  0  0
 27 54  1  0  0  0  0
M  END
> <pdb_id>
3I4B

> <uniprot_id>
P49841

> <usmiles>
O=C(N[C@@H](c1ccccc1)CO)C=2NC=C(c3nc(ncc3C)Nc4ccccc4)C2

$$$$
Z59_B_485
          07202412373D 1   1.00000     0.00000     0
            
 48 50  0  0  0  0            999 V2000
   51.1329   30.9446   43.3596 S   0  0  0  0  0  0  0  0  0  0  0  0
   47.9519   32.7360   40.0015 O   0  0  0  0  0  0  0  0  0  0  0  0
   52.3942   35.3731   37.9366 O   0  0  0  0  0  0  0  0  0  0  0  0
   51.5752   33.1011   39.6759 O   0  0  0  0  0  0  0  0  0  0  0  0
   50.6944   35.6643   40.0378 O   0  0  0  0  0  0  0  0  0  0  0  0
   49.4554   32.8070   41.7766 N   0  0  0  0  0  0  0  0  0  0  0  0
   50.6431   34.6284   36.5334 N   0  0  0  0  0  0  0  0  0  0  0  0
   51.7753   30.4602   44.9299 C   0  0  0  0  0  0  0  0  0  0  0  0
   48.6486   32.2672   42.9962 C   0  0  0  0  0  0  0  0  0  0  0  0
   49.2505   34.2222   36.2335 C   0  0  0  0  0  0  0  0  0  0  0  0
   50.8583   30.8081   45.9606 C   0  0  0  0  0  0  0  0  0  0  0  0
   54.2374   31.2563   35.3802 C   0  0  0  0  0  0  0  0  0  0  0  0
   49.1847   33.9562   34.7292 C   0  0  0  0  0  0  0  0  0  0  0  0
   54.6327   32.5333   34.8842 C   0  0  0  0  0  0  0  0  0  0  0  0
   52.9108   31.0628   35.8640 C   0  0  0  0  0  0  0  0  0  0  0  0
   49.6657   31.4256   45.4552 C   0  0  0  0  0  0  0  0  0  0  0  0
   50.4395   34.6541   34.1692 C   0  0  0  0  0  0  0  0  0  0  0  0
   53.7291   33.6245   34.6292 C   0  0  0  0  0  0  0  0  0  0  0  0
   51.9984   32.1635   35.8438 C   0  0  0  0  0  0  0  0  0  0  0  0
   49.0951   32.9372   40.4290 C   0  0  0  0  0  0  0  0  0  0  0  0
   49.6528   31.5991   44.0074 C   0  0  0  0  0  0  0  0  0  0  0  0
   51.1895   34.9848   37.7602 C   0  0  0  0  0  0  0  0  0  0  0  0
   50.1698   33.4215   39.3923 C   0  0  1  0  0  0  0  0  0  0  0  0
   50.1554   34.8745   38.9760 C   0  0  1  0  0  0  0  0  0  0  0  0
   51.4630   34.6592   35.3295 C   0  0  2  0  0  0  0  0  0  0  0  0
   52.3980   33.4483   35.3498 C   0  0  0  0  0  0  0  0  0  0  0  0
   52.1536   33.4626   38.9446 H   0  0  0  0  0  0  0  0  0  0  0  0
   50.0800   35.6271   40.8259 H   0  0  0  0  0  0  0  0  0  0  0  0
   50.3837   33.1107   41.9915 H   0  0  0  0  0  0  0  0  0  0  0  0
   52.6551   30.0073   45.0744 H   0  0  0  0  0  0  0  0  0  0  0  0
   47.9823   31.5892   42.6858 H   0  0  0  0  0  0  0  0  0  0  0  0
   48.1712   33.0225   43.4452 H   0  0  0  0  0  0  0  0  0  0  0  0
   48.6167   34.9548   36.4820 H   0  0  0  0  0  0  0  0  0  0  0  0
   49.0166   33.3928   36.7407 H   0  0  0  0  0  0  0  0  0  0  0  0
   51.0267   30.6405   46.9320 H   0  0  0  0  0  0  0  0  0  0  0  0
   54.8894   30.4981   35.3886 H   0  0  0  0  0  0  0  0  0  0  0  0
   48.3540   34.3495   34.3351 H   0  0  0  0  0  0  0  0  0  0  0  0
   49.2106   32.9745   34.5408 H   0  0  0  0  0  0  0  0  0  0  0  0
   55.6046   32.6811   34.7009 H   0  0  0  0  0  0  0  0  0  0  0  0
   52.6225   30.1709   36.2123 H   0  0  0  0  0  0  0  0  0  0  0  0
   48.9099   31.7119   46.0441 H   0  0  0  0  0  0  0  0  0  0  0  0
   50.2235   35.5897   33.8897 H   0  0  0  0  0  0  0  0  0  0  0  0
   50.8011   34.1475   33.3865 H   0  0  0  0  0  0  0  0  0  0  0  0
   53.9492   34.4071   34.0469 H   0  0  0  0  0  0  0  0  0  0  0  0
   51.0655   32.0347   36.1801 H   0  0  0  0  0  0  0  0  0  0  0  0
   49.9592   32.9166   38.5552 H   0  0  0  0  0  0  0  0  0  0  0  0
   49.2391   35.1778   38.7143 H   0  0  0  0  0  0  0  0  0  0  0  0
   51.9997   35.5026   35.3054 H   0  0  0  0  0  0  0  0  0  0  0  0
  1  8  1  0  0  0  0
  1 21  1  0  0  0  0
  2 20  2  0  0  0  0
  3 22  2  0  0  0  0
  4 23  1  0  0  0  0
  5 24  1  0  0  0  0
  6  9  1  0  0  0  0
  6 20  1  0  0  0  0
  7 10  1  0  0  0  0
  7 22  1  0  0  0  0
  7 25  1  0  0  0  0
  8 11  2  0  0  0  0
  9 21  1  0  0  0  0
 10 13  1  0  0  0  0
 11 16  1  0  0  0  0
 12 14  2  0  0  0  0
 12 15  1  0  0  0  0
 13 17  1  0  0  0  0
 14 18  1  0  0  0  0
 15 19  2  0  0  0  0
 16 21  2  0  0  0  0
 17 25  1  0  0  0  0
 18 26  2  0  0  0  0
 19 26  1  0  0  0  0
 20 23  1  0  0  0  0
 22 24  1  0  0  0  0
 23 24  1  0  0  0  0
 25 26  1  0  0  0  0
  4 27  1  0  0  0  0
  5 28  1  0  0  0  0
  6 29  1  0  0  0  0
  8 30  1  0  0  0  0
  9 31  1  0  0  0  0
  9 32  1  0  0  0  0
 10 33  1  0  0  0  0
 10 34  1  0  0  0  0
 11 35  1  0  0  0  0
 12 36  1  0  0  0  0
 13 37  1  0  0  0  0
 13 38  1  0  0  0  0
 14 39  1  0  0  0  0
 15 40  1  0  0  0  0
 16 41  1  0  0  0  0
 17 42  1  0  0  0  0
 17 43  1  0  0  0  0
 18 44  1  0  0  0  0
 19 45  1  0  0  0  0
 23 46  1  0  0  0  0
 24 47  1  0  0  0  0
 25 48  1  0  0  0  0
M  END
> <pdb_id>
3KME

> <uniprot_id>
P78536

> <usmiles>
S1C(=CC=C1)CNC(=O)[C@H](O)[C@@H](O)C(=O)N2[C@@H](c3ccccc3)CCC2

$$$$
Z64_A_237
          07192420423D 1   1.00000     0.00000     0
            
 47 50  0  0  0  0            999 V2000
   73.9704   34.0099   26.7693 O   0  0  0  0  0  0  0  0  0  0  0  0
   75.0272   31.2001   23.2653 N   0  0  0  0  0  0  0  0  0  0  0  0
   75.5840   32.2465   24.0127 N   0  0  0  0  0  0  0  0  0  0  0  0
   65.4688   34.8000   22.5568 N   0  0  0  0  0  0  0  0  0  0  0  0
   64.9184   33.6811   24.6929 N   0  0  0  0  0  0  0  0  0  0  0  0
   67.6345   35.6782   22.4831 N   0  0  0  0  0  0  0  0  0  0  0  0
   66.8722   33.9869   25.6559 N   0  0  0  0  0  0  0  0  0  0  0  0
   69.1829   35.5106   24.2670 N   0  0  0  0  0  0  0  0  0  0  0  0
   70.1837   36.2295   23.4591 C   0  0  0  0  0  0  0  0  0  0  0  0
   72.8498   29.9257   22.9255 C   0  0  0  0  0  0  0  0  0  0  0  0
   66.4380   35.4535   21.9044 C   0  0  0  0  0  0  0  0  0  0  0  0
   65.6318   33.4553   25.8132 C   0  0  0  0  0  0  0  0  0  0  0  0
   74.5744   35.1985   27.3972 C   0  0  0  0  0  0  0  0  0  0  0  0
   69.5431   35.1497   25.6386 C   0  0  0  0  0  0  0  0  0  0  0  0
   75.6904   35.5590   26.6572 C   0  0  0  0  0  0  0  0  0  0  0  0
   70.0310   33.6791   25.6338 C   0  0  0  0  0  0  0  0  0  0  0  0
   71.3019   33.4549   24.7911 C   0  0  0  0  0  0  0  0  0  0  0  0
   75.8408   34.6868   25.5864 C   0  0  0  0  0  0  0  0  0  0  0  0
   71.9619   32.1285   25.2047 C   0  0  0  0  0  0  0  0  0  0  0  0
   65.6952   34.3467   23.8203 C   0  0  0  0  0  0  0  0  0  0  0  0
   67.9183   35.2366   23.7238 C   0  0  0  0  0  0  0  0  0  0  0  0
   73.7230   30.9880   23.5472 C   0  0  0  0  0  0  0  0  0  0  0  0
   74.7794   33.8081   25.7055 C   0  0  0  0  0  0  0  0  0  0  0  0
   66.9256   34.5557   24.4261 C   0  0  0  0  0  0  0  0  0  0  0  0
   74.5860   32.6882   24.7590 C   0  0  0  0  0  0  0  0  0  0  0  0
   73.3215   31.9508   24.5752 C   0  0  0  0  0  0  0  0  0  0  0  0
   75.5412   30.6664   22.5938 H   0  0  0  0  0  0  0  0  0  0  0  0
   67.6132   33.9630   26.3270 H   0  0  0  0  0  0  0  0  0  0  0  0
   69.8094   36.4121   22.5500 H   0  0  0  0  0  0  0  0  0  0  0  0
   70.4130   37.0947   23.9051 H   0  0  0  0  0  0  0  0  0  0  0  0
   71.0079   35.6697   23.3740 H   0  0  0  0  0  0  0  0  0  0  0  0
   71.9282   29.9851   23.3090 H   0  0  0  0  0  0  0  0  0  0  0  0
   72.8087   30.0650   21.9361 H   0  0  0  0  0  0  0  0  0  0  0  0
   73.2339   29.0229   23.1193 H   0  0  0  0  0  0  0  0  0  0  0  0
   66.2719   35.7799   20.9739 H   0  0  0  0  0  0  0  0  0  0  0  0
   65.3026   32.9756   26.6265 H   0  0  0  0  0  0  0  0  0  0  0  0
   74.2377   35.6646   28.2154 H   0  0  0  0  0  0  0  0  0  0  0  0
   68.7450   35.2406   26.2342 H   0  0  0  0  0  0  0  0  0  0  0  0
   70.2737   35.7486   25.9665 H   0  0  0  0  0  0  0  0  0  0  0  0
   76.2945   36.3289   26.8628 H   0  0  0  0  0  0  0  0  0  0  0  0
   69.3008   33.1047   25.2641 H   0  0  0  0  0  0  0  0  0  0  0  0
   70.2244   33.4068   26.5764 H   0  0  0  0  0  0  0  0  0  0  0  0
   71.9415   34.2080   24.9451 H   0  0  0  0  0  0  0  0  0  0  0  0
   71.0574   33.4180   23.8222 H   0  0  0  0  0  0  0  0  0  0  0  0
   76.5555   34.6929   24.8870 H   0  0  0  0  0  0  0  0  0  0  0  0
   71.3730   31.3724   24.9191 H   0  0  0  0  0  0  0  0  0  0  0  0
   72.0629   32.1149   26.1995 H   0  0  0  0  0  0  0  0  0  0  0  0
  1 13  1  0  0  0  0
  1 23  1  0  0  0  0
  2  3  1  0  0  0  0
  2 22  1  0  0  0  0
  3 25  2  0  0  0  0
  4 11  2  0  0  0  0
  4 20  1  0  0  0  0
  5 12  2  0  0  0  0
  5 20  1  0  0  0  0
  6 11  1  0  0  0  0
  6 21  2  0  0  0  0
  7 12  1  0  0  0  0
  7 24  1  0  0  0  0
  8  9  1  0  0  0  0
  8 14  1  0  0  0  0
  8 21  1  0  0  0  0
 10 22  1  0  0  0  0
 13 15  2  0  0  0  0
 14 16  1  0  0  0  0
 15 18  1  0  0  0  0
 16 17  1  0  0  0  0
 17 19  1  0  0  0  0
 18 23  2  0  0  0  0
 19 26  1  0  0  0  0
 20 24  2  0  0  0  0
 21 24  1  0  0  0  0
 22 26  2  0  0  0  0
 23 25  1  0  0  0  0
 25 26  1  0  0  0  0
  2 27  1  0  0  0  0
  7 28  1  0  0  0  0
  9 29  1  0  0  0  0
  9 30  1  0  0  0  0
  9 31  1  0  0  0  0
 10 32  1  0  0  0  0
 10 33  1  0  0  0  0
 10 34  1  0  0  0  0
 11 35  1  0  0  0  0
 12 36  1  0  0  0  0
 13 37  1  0  0  0  0
 14 38  1  0  0  0  0
 14 39  1  0  0  0  0
 15 40  1  0  0  0  0
 16 41  1  0  0  0  0
 16 42  1  0  0  0  0
 17 43  1  0  0  0  0
 17 44  1  0  0  0  0
 18 45  1  0  0  0  0
 19 46  1  0  0  0  0
 19 47  1  0  0  0  0
M  END
> <pdb_id>
3HZ5

> <uniprot_id>
P07900

> <usmiles>
O1C(C2=NNC(=C2CCCCN(c3ncnc4N=CNc43)C)C)=CC=C1

$$$$
Z68_A_529
          07192421083D 1   1.00000     0.00000     0
            
 42 44  0  0  0  0            999 V2000
    1.5710   27.6168    7.6912 S   0  0  0  0  0  0  0  0  0  0  0  0
   -1.0785   24.0372    7.9474 O   0  5  0  0  0  0  0  0  0  0  0  0
   -1.5595   23.0470    9.8068 O   0  0  0  0  0  0  0  0  0  0  0  0
   -1.0383   30.0398    9.5145 O   0  0  0  0  0  0  0  0  0  0  0  0
    0.4648   31.3729    7.5791 N   0  0  0  0  0  0  0  0  0  0  0  0
    2.0169   29.9165    6.5396 N   0  0  0  0  0  0  0  0  0  0  0  0
    3.4074   28.1408    5.7828 N   0  0  0  0  0  0  0  0  0  0  0  0
   -1.2805   24.0934    9.2680 N   0  3  0  0  0  0  0  0  0  0  0  0
    6.3323   24.9256    6.2832 C   0  0  0  0  0  0  0  0  0  0  0  0
    5.6252   25.4826    7.5710 C   0  0  0  0  0  0  0  0  0  0  0  0
    5.3894   24.9215    5.0363 C   0  0  0  0  0  0  0  0  0  0  0  0
   -1.2571   26.6277   12.1289 C   0  0  0  0  0  0  0  0  0  0  0  0
    5.0063   26.8778    7.2952 C   0  0  0  0  0  0  0  0  0  0  0  0
    4.7424   26.3174    4.7843 C   0  0  0  0  0  0  0  0  0  0  0  0
   -1.3958   25.3061   11.4382 C   0  0  0  0  0  0  0  0  0  0  0  0
   -0.9357   27.7643   11.4152 C   0  0  0  0  0  0  0  0  0  0  0  0
   -0.8322   26.5046    9.2258 C   0  0  0  0  0  0  0  0  0  0  0  0
    2.4082   28.6170    6.5784 C   0  0  0  0  0  0  0  0  0  0  0  0
    0.6628   28.9975    8.1451 C   0  0  0  0  0  0  0  0  0  0  0  0
    1.0269   30.1372    7.4248 C   0  0  0  0  0  0  0  0  0  0  0  0
   -0.3893   28.9070    9.2146 C   0  0  0  0  0  0  0  0  0  0  0  0
    4.0030   26.8284    6.0592 C   0  0  0  0  0  0  0  0  0  0  0  0
   -1.1807   25.2032    9.9319 C   0  0  0  0  0  0  0  0  0  0  0  0
   -0.7066   27.7351    9.8969 C   0  0  0  0  0  0  0  0  0  0  0  0
   -0.2694   31.5087    8.2444 H   0  0  0  0  0  0  0  0  0  0  0  0
    0.7875   32.1416    7.0269 H   0  0  0  0  0  0  0  0  0  0  0  0
    3.7345   28.6858    5.0108 H   0  0  0  0  0  0  0  0  0  0  0  0
    6.6318   23.9884    6.4617 H   0  0  0  0  0  0  0  0  0  0  0  0
    7.1278   25.4971    6.0816 H   0  0  0  0  0  0  0  0  0  0  0  0
    6.2977   25.5612    8.3070 H   0  0  0  0  0  0  0  0  0  0  0  0
    4.9010   24.8508    7.8473 H   0  0  0  0  0  0  0  0  0  0  0  0
    4.6622   24.2513    5.1844 H   0  0  0  0  0  0  0  0  0  0  0  0
    5.9219   24.6629    4.2304 H   0  0  0  0  0  0  0  0  0  0  0  0
   -1.3987   26.6871   13.1170 H   0  0  0  0  0  0  0  0  0  0  0  0
    5.7405   27.5263    7.0938 H   0  0  0  0  0  0  0  0  0  0  0  0
    4.5082   27.1801    8.1079 H   0  0  0  0  0  0  0  0  0  0  0  0
    4.0864   26.2431    4.0332 H   0  0  0  0  0  0  0  0  0  0  0  0
    5.4587   26.9703    4.5378 H   0  0  0  0  0  0  0  0  0  0  0  0
   -1.6299   24.4895   11.9658 H   0  0  0  0  0  0  0  0  0  0  0  0
   -0.8493   28.6337   11.9017 H   0  0  0  0  0  0  0  0  0  0  0  0
   -0.6851   26.4848    8.2369 H   0  0  0  0  0  0  0  0  0  0  0  0
    3.2669   26.1870    6.2756 H   0  0  0  0  0  0  0  0  0  0  0  0
  1 18  1  0  0  0  0
  1 19  1  0  0  0  0
  2  8  1  0  0  0  0
  3  8  2  0  0  0  0
  4 21  2  0  0  0  0
  5 20  1  0  0  0  0
  6 18  2  0  0  0  0
  6 20  1  0  0  0  0
  7 18  1  0  0  0  0
  7 22  1  0  0  0  0
  8 23  1  0  0  0  0
  9 10  1  0  0  0  0
  9 11  1  0  0  0  0
 10 13  1  0  0  0  0
 11 14  1  0  0  0  0
 12 15  1  0  0  0  0
 12 16  2  0  0  0  0
 13 22  1  0  0  0  0
 14 22  1  0  0  0  0
 15 23  2  0  0  0  0
 16 24  1  0  0  0  0
 17 23  1  0  0  0  0
 17 24  2  0  0  0  0
 19 20  2  0  0  0  0
 19 21  1  0  0  0  0
 21 24  1  0  0  0  0
  5 25  1  0  0  0  0
  5 26  1  0  0  0  0
  7 27  1  0  0  0  0
  9 28  1  0  0  0  0
  9 29  1  0  0  0  0
 10 30  1  0  0  0  0
 10 31  1  0  0  0  0
 11 32  1  0  0  0  0
 11 33  1  0  0  0  0
 12 34  1  0  0  0  0
 13 35  1  0  0  0  0
 13 36  1  0  0  0  0
 14 37  1  0  0  0  0
 14 38  1  0  0  0  0
 15 39  1  0  0  0  0
 16 40  1  0  0  0  0
 17 41  1  0  0  0  0
 22 42  1  0  0  0  0
M  CHG  2   2  -1   8   1
M  END
> <pdb_id>
3R9N

> <uniprot_id>
P24941

> <usmiles>
S1C(=NC(N)=C1C(=O)c2cc([N+]([O-])=O)ccc2)NC3CCCCC3

$$$$
Z73_C_803
          07192416573D 1   1.00000     0.00000     0
            
 38 40  0  0  0  0            999 V2000
   17.2709   -2.1371   23.4128 O   0  0  0  0  0  0  0  0  0  0  0  0
   17.0524   -2.1056   21.1093 N   0  0  0  0  0  0  0  0  0  0  0  0
   15.4924   -1.0241   17.2914 N   0  0  0  0  0  0  0  0  0  0  0  0
   19.1916   -3.6465   18.4586 N   0  0  0  0  0  0  0  0  0  0  0  0
   16.8542   -2.0109   18.7937 N   0  0  0  0  0  0  0  0  0  0  0  0
   16.0760   -1.3056   23.4230 C   0  0  0  0  0  0  0  0  0  0  0  0
   15.1475    1.9130   20.7259 C   0  0  0  0  0  0  0  0  0  0  0  0
   16.3494   -1.9839   15.1351 C   0  0  0  0  0  0  0  0  0  0  0  0
   19.0747   -3.5797   16.0472 C   0  0  0  0  0  0  0  0  0  0  0  0
   15.9140    0.9644   19.8462 C   0  0  0  0  0  0  0  0  0  0  0  0
   18.8900   -3.3417   22.1155 C   0  0  0  0  0  0  0  0  0  0  0  0
   15.0932   -0.3267   19.6829 C   0  0  0  0  0  0  0  0  0  0  0  0
   19.3829   -3.7274   20.8866 C   0  0  0  0  0  0  0  0  0  0  0  0
   17.7346   -2.5313   22.1741 C   0  0  0  0  0  0  0  0  0  0  0  0
   15.7758   -1.1203   18.6208 C   0  0  0  0  0  0  0  0  0  0  0  0
   17.5442   -2.4632   19.9119 C   0  0  0  0  0  0  0  0  0  0  0  0
   16.3715   -1.8668   16.6005 C   0  0  0  0  0  0  0  0  0  0  0  0
   18.5258   -3.2483   17.4085 C   0  0  0  0  0  0  0  0  0  0  0  0
   18.7029   -3.2965   19.7212 C   0  0  0  0  0  0  0  0  0  0  0  0
   17.2916   -2.4591   17.5072 C   0  0  0  0  0  0  0  0  0  0  0  0
   15.8333   -1.0822   24.3670 H   0  0  0  0  0  0  0  0  0  0  0  0
   16.2525   -0.4621   22.9156 H   0  0  0  0  0  0  0  0  0  0  0  0
   15.3213   -1.8013   22.9932 H   0  0  0  0  0  0  0  0  0  0  0  0
   15.6705    2.7576   20.8406 H   0  0  0  0  0  0  0  0  0  0  0  0
   14.2660    2.1217   20.3025 H   0  0  0  0  0  0  0  0  0  0  0  0
   14.9964    1.4906   21.6196 H   0  0  0  0  0  0  0  0  0  0  0  0
   17.0515   -2.6329   14.8419 H   0  0  0  0  0  0  0  0  0  0  0  0
   15.4510   -2.3092   14.8402 H   0  0  0  0  0  0  0  0  0  0  0  0
   16.5308   -1.0895   14.7264 H   0  0  0  0  0  0  0  0  0  0  0  0
   18.4648   -3.2146   15.3439 H   0  0  0  0  0  0  0  0  0  0  0  0
   19.9823   -3.1724   15.9455 H   0  0  0  0  0  0  0  0  0  0  0  0
   19.1419   -4.5725   15.9475 H   0  0  0  0  0  0  0  0  0  0  0  0
   16.7955    0.7519   20.2678 H   0  0  0  0  0  0  0  0  0  0  0  0
   16.0651    1.3830   18.9507 H   0  0  0  0  0  0  0  0  0  0  0  0
   19.3459   -3.6329   22.9566 H   0  0  0  0  0  0  0  0  0  0  0  0
   14.1570   -0.1098   19.4062 H   0  0  0  0  0  0  0  0  0  0  0  0
   15.0768   -0.8384   20.5419 H   0  0  0  0  0  0  0  0  0  0  0  0
   20.2014   -4.2980   20.8198 H   0  0  0  0  0  0  0  0  0  0  0  0
  1  6  1  0  0  0  0
  1 14  1  0  0  0  0
  2 14  2  0  0  0  0
  2 16  1  0  0  0  0
  3 15  2  0  0  0  0
  3 17  1  0  0  0  0
  4 18  2  0  0  0  0
  4 19  1  0  0  0  0
  5 15  1  0  0  0  0
  5 16  1  0  0  0  0
  5 20  1  0  0  0  0
  7 10  1  0  0  0  0
  8 17  1  0  0  0  0
  9 18  1  0  0  0  0
 10 12  1  0  0  0  0
 11 13  2  0  0  0  0
 11 14  1  0  0  0  0
 12 15  1  0  0  0  0
 13 19  1  0  0  0  0
 16 19  2  0  0  0  0
 17 20  2  0  0  0  0
 18 20  1  0  0  0  0
  6 21  1  0  0  0  0
  6 22  1  0  0  0  0
  6 23  1  0  0  0  0
  7 24  1  0  0  0  0
  7 25  1  0  0  0  0
  7 26  1  0  0  0  0
  8 27  1  0  0  0  0
  8 28  1  0  0  0  0
  8 29  1  0  0  0  0
  9 30  1  0  0  0  0
  9 31  1  0  0  0  0
  9 32  1  0  0  0  0
 10 33  1  0  0  0  0
 10 34  1  0  0  0  0
 11 35  1  0  0  0  0
 12 36  1  0  0  0  0
 12 37  1  0  0  0  0
 13 38  1  0  0  0  0
M  END
> <pdb_id>
5SGU

> <uniprot_id>
Q9Y233

> <usmiles>
O(c1nc2N3C(=NC(=C3C(=Nc2cc1)C)C)CCC)C

$$$$
Z79_A_0
          07192418003D 1   1.00000     0.00000     0
            
 29 29  0  0  0  0            999 V2000
   15.7283   26.2435    0.5993 S   0  0  0  0  0  0  0  0  0  0  0  0
   16.1072   25.5112    1.8002 O   0  0  0  0  0  0  0  0  0  0  0  0
   15.0195   25.3543   -0.2846 O   0  0  0  0  0  0  0  0  0  0  0  0
   18.2281   29.7015    3.1942 O   0  0  0  0  0  0  0  0  0  0  0  0
   16.1165   29.9476    1.5342 O   0  0  0  0  0  0  0  0  0  0  0  0
   20.7145   27.5161   -2.0544 O   0  0  0  0  0  0  0  0  0  0  0  0
   14.7941   27.4363    1.0783 N   0  0  0  0  0  0  0  0  0  0  0  0
   17.1311   28.8559    3.2285 N   0  0  0  0  0  0  0  0  0  0  0  0
   20.8625   27.4997   -3.4716 C   0  0  0  0  0  0  0  0  0  0  0  0
   14.9995   28.0251    2.3830 C   0  0  0  0  0  0  0  0  0  0  0  0
   18.2939   26.6846    0.5511 C   0  0  0  0  0  0  0  0  0  0  0  0
   17.1084   26.9067   -1.5386 C   0  0  0  0  0  0  0  0  0  0  0  0
   19.5002   26.9744   -0.0908 C   0  0  0  0  0  0  0  0  0  0  0  0
   18.3141   27.1981   -2.1819 C   0  0  0  0  0  0  0  0  0  0  0  0
   16.1364   29.0307    2.3442 C   0  0  0  0  0  0  0  0  0  0  0  0
   17.0853   26.6573   -0.1645 C   0  0  0  0  0  0  0  0  0  0  0  0
   19.5136   27.2393   -1.4499 C   0  0  0  0  0  0  0  0  0  0  0  0
   18.8733   29.4397    3.9121 H   0  0  0  0  0  0  0  0  0  0  0  0
   13.8544   27.0950    1.0584 H   0  0  0  0  0  0  0  0  0  0  0  0
   17.0807   28.1221    3.9060 H   0  0  0  0  0  0  0  0  0  0  0  0
   21.8067   27.7262   -3.7107 H   0  0  0  0  0  0  0  0  0  0  0  0
   20.6399   26.5890   -3.8194 H   0  0  0  0  0  0  0  0  0  0  0  0
   20.2449   28.1723   -3.8790 H   0  0  0  0  0  0  0  0  0  0  0  0
   15.2221   27.3029    3.0379 H   0  0  0  0  0  0  0  0  0  0  0  0
   14.1610   28.4883    2.6699 H   0  0  0  0  0  0  0  0  0  0  0  0
   18.2906   26.4941    1.5328 H   0  0  0  0  0  0  0  0  0  0  0  0
   16.2583   26.8766   -2.0643 H   0  0  0  0  0  0  0  0  0  0  0  0
   20.3533   26.9905    0.4307 H   0  0  0  0  0  0  0  0  0  0  0  0
   18.3238   27.3779   -3.1656 H   0  0  0  0  0  0  0  0  0  0  0  0
  1  2  2  0  0  0  0
  1  3  2  0  0  0  0
  1  7  1  0  0  0  0
  1 16  1  0  0  0  0
  4  8  1  0  0  0  0
  5 15  2  0  0  0  0
  6  9  1  0  0  0  0
  6 17  1  0  0  0  0
  7 10  1  0  0  0  0
  8 15  1  0  0  0  0
 10 15  1  0  0  0  0
 11 13  2  0  0  0  0
 11 16  1  0  0  0  0
 12 14  1  0  0  0  0
 12 16  2  0  0  0  0
 13 17  1  0  0  0  0
 14 17  2  0  0  0  0
  4 18  1  0  0  0  0
  7 19  1  0  0  0  0
  8 20  1  0  0  0  0
  9 21  1  0  0  0  0
  9 22  1  0  0  0  0
  9 23  1  0  0  0  0
 10 24  1  0  0  0  0
 10 25  1  0  0  0  0
 11 26  1  0  0  0  0
 12 27  1  0  0  0  0
 13 28  1  0  0  0  0
 14 29  1  0  0  0  0
M  END
> <pdb_id>
3LK8

> <uniprot_id>
P39900

> <usmiles>
S(=O)(=O)(NCC(=O)NO)c1ccc(OC)cc1

$$$$
Z7D_A_4000
          07192420213D 1   1.00000     0.00000     0
            
 52 55  0  0  0  0            999 V2000
  -27.6480    5.7173  -13.9889 S   0  0  0  0  0  0  0  0  0  0  0  0
  -30.4458    9.1108  -17.8301 F   0  0  0  0  0  0  0  0  0  0  0  0
  -27.1560    6.5319  -12.9117 O   0  0  0  0  0  0  0  0  0  0  0  0
  -28.4624    4.5768  -13.6766 O   0  0  0  0  0  0  0  0  0  0  0  0
  -23.9579    9.6959  -17.5219 O   0  0  0  0  0  0  0  0  0  0  0  0
  -25.6048   13.1680  -14.3397 C   0  0  0  0  0  0  0  0  0  0  0  0
  -24.3420   12.8139  -13.9254 C   0  0  0  0  0  0  0  0  0  0  0  0
  -26.0790   12.7103  -15.5525 C   0  0  0  0  0  0  0  0  0  0  0  0
  -29.4689    6.1854  -15.9741 C   0  0  0  0  0  0  0  0  0  0  0  0
  -28.2912    8.1139  -15.1250 C   0  0  0  0  0  0  0  0  0  0  0  0
  -30.1207    6.9904  -16.8938 C   0  0  0  0  0  0  0  0  0  0  0  0
  -28.9439    8.9169  -16.0438 C   0  0  0  0  0  0  0  0  0  0  0  0
  -23.5493   12.0021  -14.7228 C   0  0  0  0  0  0  0  0  0  0  0  0
  -25.2894   11.8984  -16.3499 C   0  0  0  0  0  0  0  0  0  0  0  0
  -25.0921    7.6027  -17.6439 C   0  0  0  0  0  0  0  0  0  0  0  0
  -24.3808    8.4391  -15.5126 C   0  0  0  0  0  0  0  0  0  0  0  0
  -25.6329    6.4919  -17.0205 C   0  0  0  0  0  0  0  0  0  0  0  0
  -24.9243    7.3218  -14.8986 C   0  0  0  0  0  0  0  0  0  0  0  0
  -23.1385   10.6422  -16.7966 C   0  0  0  0  0  0  0  0  0  0  0  0
  -25.4025    3.2624  -16.2435 C   0  0  0  0  0  0  0  0  0  0  0  0
  -24.4773    3.4021  -15.0036 C   0  0  0  0  0  0  0  0  0  0  0  0
  -26.6866    3.9965  -15.8714 C   0  0  0  0  0  0  0  0  0  0  0  0
  -25.1916    4.3657  -14.0353 C   0  0  0  0  0  0  0  0  0  0  0  0
  -28.5501    6.7523  -15.1019 C   0  0  0  0  0  0  0  0  0  0  0  0
  -29.8335    8.3309  -16.9066 C   0  0  0  0  0  0  0  0  0  0  0  0
  -24.4687    8.5813  -16.8913 C   0  0  0  0  0  0  0  0  0  0  0  0
  -24.0142   11.5329  -15.9451 C   0  0  0  0  0  0  0  0  0  0  0  0
  -25.5658    6.3299  -15.6341 C   0  0  0  0  0  0  0  0  0  0  0  0
  -26.1929    5.1247  -14.9354 C   0  0  0  0  0  0  0  0  0  0  0  0
  -26.2284   13.8053  -13.7135 H   0  0  0  0  0  0  0  0  0  0  0  0
  -23.9599   13.1722  -12.9711 H   0  0  0  0  0  0  0  0  0  0  0  0
  -27.0755   12.9860  -15.8916 H   0  0  0  0  0  0  0  0  0  0  0  0
  -29.6838    5.1206  -15.9433 H   0  0  0  0  0  0  0  0  0  0  0  0
  -27.5801    8.5520  -14.4262 H   0  0  0  0  0  0  0  0  0  0  0  0
  -30.8420    6.5619  -17.5873 H   0  0  0  0  0  0  0  0  0  0  0  0
  -28.7501    9.9883  -16.0745 H   0  0  0  0  0  0  0  0  0  0  0  0
  -22.5510   11.7312  -14.3784 H   0  0  0  0  0  0  0  0  0  0  0  0
  -25.6766   11.5470  -17.3029 H   0  0  0  0  0  0  0  0  0  0  0  0
  -25.1561    7.7061  -18.7269 H   0  0  0  0  0  0  0  0  0  0  0  0
  -23.8999    9.1597  -14.8550 H   0  0  0  0  0  0  0  0  0  0  0  0
  -26.1089    5.7526  -17.6439 H   0  0  0  0  0  0  0  0  0  0  0  0
  -24.8366    7.2359  -13.8174 H   0  0  0  0  0  0  0  0  0  0  0  0
  -22.3412   10.1458  -16.2439 H   0  0  0  0  0  0  0  0  0  0  0  0
  -22.6703   11.1975  -17.6077 H   0  0  0  0  0  0  0  0  0  0  0  0
  -25.5911    2.2242  -16.5074 H   0  0  0  0  0  0  0  0  0  0  0  0
  -24.9414    3.7011  -17.1267 H   0  0  0  0  0  0  0  0  0  0  0  0
  -24.2754    2.4411  -14.5339 H   0  0  0  0  0  0  0  0  0  0  0  0
  -23.4968    3.7828  -15.2849 H   0  0  0  0  0  0  0  0  0  0  0  0
  -27.2367    4.3578  -16.7346 H   0  0  0  0  0  0  0  0  0  0  0  0
  -27.3689    3.3152  -15.3688 H   0  0  0  0  0  0  0  0  0  0  0  0
  -25.7216    3.8161  -13.2567 H   0  0  0  0  0  0  0  0  0  0  0  0
  -24.4969    5.0209  -13.5137 H   0  0  0  0  0  0  0  0  0  0  0  0
  1  3  2  0  0  0  0
  1  4  2  0  0  0  0
  1 24  1  0  0  0  0
  1 29  1  0  0  0  0
  2 25  1  0  0  0  0
  5 19  1  0  0  0  0
  5 26  1  0  0  0  0
  6  7  2  0  0  0  0
  6  8  1  0  0  0  0
  6 30  1  0  0  0  0
  7 13  1  0  0  0  0
  7 31  1  0  0  0  0
  8 14  2  0  0  0  0
  8 32  1  0  0  0  0
  9 11  2  0  0  0  0
  9 24  1  0  0  0  0
  9 33  1  0  0  0  0
 10 12  1  0  0  0  0
 10 24  2  0  0  0  0
 10 34  1  0  0  0  0
 11 25  1  0  0  0  0
 11 35  1  0  0  0  0
 12 25  2  0  0  0  0
 12 36  1  0  0  0  0
 13 27  2  0  0  0  0
 13 37  1  0  0  0  0
 14 27  1  0  0  0  0
 14 38  1  0  0  0  0
 15 17  2  0  0  0  0
 15 26  1  0  0  0  0
 15 39  1  0  0  0  0
 16 18  1  0  0  0  0
 16 26  2  0  0  0  0
 16 40  1  0  0  0  0
 17 28  1  0  0  0  0
 17 41  1  0  0  0  0
 18 28  2  0  0  0  0
 18 42  1  0  0  0  0
 19 27  1  0  0  0  0
 19 43  1  0  0  0  0
 19 44  1  0  0  0  0
 20 21  1  0  0  0  0
 20 22  1  0  0  0  0
 20 45  1  0  0  0  0
 20 46  1  0  0  0  0
 21 23  1  0  0  0  0
 21 47  1  0  0  0  0
 21 48  1  0  0  0  0
 22 29  1  0  0  0  0
 22 49  1  0  0  0  0
 22 50  1  0  0  0  0
 23 29  1  0  0  0  0
 23 51  1  0  0  0  0
 23 52  1  0  0  0  0
 28 29  1  0  0  0  0
M  END
> <pdb_id>
6W9I

> <uniprot_id>
P51449

> <usmiles>
S(=O)(=O)(c1ccc(F)cc1)C2(c3ccc(OCc4ccccc4)cc3)CCCC2

$$$$
Z7G_A_4000
          07192420213D 1   1.00000     0.00000     0
            
 40 41  0  0  0  0            999 V2000
  -30.0003    8.2463  -17.2925 Cl  0  0  0  0  0  0  0  0  0  0  0  0
  -26.5233    7.2021  -13.2878 Cl  0  0  0  0  0  0  0  0  0  0  0  0
  -28.3833    2.5962  -15.2875 O   0  0  0  0  0  0  0  0  0  0  0  0
  -23.6280   10.8174  -17.8443 O   0  0  0  0  0  0  0  0  0  0  0  0
  -28.0559    8.9508  -15.1240 O   0  0  0  0  0  0  0  0  0  0  0  0
  -23.0245   10.0486  -18.8876 C   0  0  0  0  0  0  0  0  0  0  0  0
  -23.6672   12.2790  -14.7909 C   0  0  0  0  0  0  0  0  0  0  0  0
  -25.7413   13.4952  -15.4479 C   0  0  0  0  0  0  0  0  0  0  0  0
  -29.5095    3.4647  -15.2974 C   0  0  0  0  0  0  0  0  0  0  0  0
  -26.3132    8.5605  -16.7442 C   0  0  0  0  0  0  0  0  0  0  0  0
  -25.1979    9.0078  -17.4273 C   0  0  0  0  0  0  0  0  0  0  0  0
  -29.6779    5.8180  -16.1675 C   0  0  0  0  0  0  0  0  0  0  0  0
  -28.1645    5.3653  -14.3687 C   0  0  0  0  0  0  0  0  0  0  0  0
  -26.4994   10.6943  -15.6523 C   0  0  0  0  0  0  0  0  0  0  0  0
  -29.3233    7.1510  -16.1263 C   0  0  0  0  0  0  0  0  0  0  0  0
  -27.8108    6.6959  -14.3396 C   0  0  0  0  0  0  0  0  0  0  0  0
  -26.9521    9.4009  -15.8482 C   0  0  0  0  0  0  0  0  0  0  0  0
  -24.7077   12.4637  -15.8901 C   0  0  0  0  0  0  0  0  0  0  0  0
  -24.7126   10.2868  -17.1986 C   0  0  0  0  0  0  0  0  0  0  0  0
  -28.3960    7.6115  -15.2014 C   0  0  0  0  0  0  0  0  0  0  0  0
  -29.1050    4.9113  -15.2814 C   0  0  0  0  0  0  0  0  0  0  0  0
  -25.3387   11.1385  -16.2849 C   0  0  0  0  0  0  0  0  0  0  0  0
  -28.6950    1.6461  -15.2986 H   0  0  0  0  0  0  0  0  0  0  0  0
  -22.2496   10.5533  -19.2681 H   0  0  0  0  0  0  0  0  0  0  0  0
  -22.7047    9.1767  -18.5169 H   0  0  0  0  0  0  0  0  0  0  0  0
  -23.6971    9.8780  -19.6077 H   0  0  0  0  0  0  0  0  0  0  0  0
  -22.9907   11.6027  -15.0824 H   0  0  0  0  0  0  0  0  0  0  0  0
  -23.2115   13.1512  -14.6133 H   0  0  0  0  0  0  0  0  0  0  0  0
  -24.1171   11.9620  -13.9559 H   0  0  0  0  0  0  0  0  0  0  0  0
  -26.4227   13.6149  -16.1700 H   0  0  0  0  0  0  0  0  0  0  0  0
  -26.1922   13.1788  -14.6133 H   0  0  0  0  0  0  0  0  0  0  0  0
  -25.2866   14.3680  -15.2707 H   0  0  0  0  0  0  0  0  0  0  0  0
  -30.0691    3.2771  -14.4902 H   0  0  0  0  0  0  0  0  0  0  0  0
  -30.0457    3.2886  -16.1230 H   0  0  0  0  0  0  0  0  0  0  0  0
  -26.6573    7.6340  -16.8965 H   0  0  0  0  0  0  0  0  0  0  0  0
  -24.7412    8.4097  -18.0858 H   0  0  0  0  0  0  0  0  0  0  0  0
  -30.3498    5.5023  -16.8375 H   0  0  0  0  0  0  0  0  0  0  0  0
  -27.7415    4.7236  -13.7289 H   0  0  0  0  0  0  0  0  0  0  0  0
  -27.0075   11.3137  -15.0538 H   0  0  0  0  0  0  0  0  0  0  0  0
  -24.2387   12.8287  -16.6943 H   0  0  0  0  0  0  0  0  0  0  0  0
  1 15  1  0  0  0  0
  2 16  1  0  0  0  0
  3  9  1  0  0  0  0
  4  6  1  0  0  0  0
  4 19  1  0  0  0  0
  5 17  1  0  0  0  0
  5 20  1  0  0  0  0
  7 18  1  0  0  0  0
  8 18  1  0  0  0  0
  9 21  1  0  0  0  0
 10 11  2  0  0  0  0
 10 17  1  0  0  0  0
 11 19  1  0  0  0  0
 12 15  2  0  0  0  0
 12 21  1  0  0  0  0
 13 16  1  0  0  0  0
 13 21  2  0  0  0  0
 14 17  2  0  0  0  0
 14 22  1  0  0  0  0
 15 20  1  0  0  0  0
 16 20  2  0  0  0  0
 18 22  1  0  0  0  0
 19 22  2  0  0  0  0
  3 23  1  0  0  0  0
  6 24  1  0  0  0  0
  6 25  1  0  0  0  0
  6 26  1  0  0  0  0
  7 27  1  0  0  0  0
  7 28  1  0  0  0  0
  7 29  1  0  0  0  0
  8 30  1  0  0  0  0
  8 31  1  0  0  0  0
  8 32  1  0  0  0  0
  9 33  1  0  0  0  0
  9 34  1  0  0  0  0
 10 35  1  0  0  0  0
 11 36  1  0  0  0  0
 12 37  1  0  0  0  0
 13 38  1  0  0  0  0
 14 39  1  0  0  0  0
 18 40  1  0  0  0  0
M  END
> <pdb_id>
7KXD

> <uniprot_id>
P51449

> <usmiles>
Clc1c(Oc2cc(c(OC)cc2)C(C)C)c(Cl)cc(c1)CO

$$$$
ZCW_A_402
          07202409243D 1   1.00000     0.00000     0
            
 23 24  0  0  0  0            999 V2000
    8.0453   21.5224   97.6263 O   0  0  0  0  0  0  0  0  0  0  0  0
   10.6283   24.5623   99.6616 N   0  0  0  0  0  0  0  0  0  0  0  0
    7.9830   22.5011   96.6262 C   0  0  0  0  0  0  0  0  0  0  0  0
   10.6313   23.5953   98.6860 C   0  0  0  0  0  0  0  0  0  0  0  0
    8.1644   27.6952   99.4107 C   0  0  0  0  0  0  0  0  0  0  0  0
    7.5409   27.2830   98.1285 C   0  0  0  0  0  0  0  0  0  0  0  0
    9.3508   23.1568   96.4658 C   0  0  0  0  0  0  0  0  0  0  0  0
    9.2358   26.8383  100.0292 C   0  0  0  0  0  0  0  0  0  0  0  0
    7.9847   26.0096   97.4579 C   0  0  0  0  0  0  0  0  0  0  0  0
    9.6920   25.5086   99.3181 C   0  0  0  0  0  0  0  0  0  0  0  0
    9.6850   23.9443   97.7293 C   0  0  0  0  0  0  0  0  0  0  0  0
    9.1082   25.1220   98.1160 C   0  0  0  0  0  0  0  0  0  0  0  0
    7.1477   21.0940   97.7297 H   0  0  0  0  0  0  0  0  0  0  0  0
   11.2055   24.5757  100.4780 H   0  0  0  0  0  0  0  0  0  0  0  0
    7.3092   23.1947   96.8809 H   0  0  0  0  0  0  0  0  0  0  0  0
    7.7140   22.0767   95.7616 H   0  0  0  0  0  0  0  0  0  0  0  0
   11.2129   22.7820   98.6673 H   0  0  0  0  0  0  0  0  0  0  0  0
    7.8737   28.5390   99.8618 H   0  0  0  0  0  0  0  0  0  0  0  0
    6.8292   27.8484   97.7116 H   0  0  0  0  0  0  0  0  0  0  0  0
    9.3340   23.7763   95.6809 H   0  0  0  0  0  0  0  0  0  0  0  0
   10.0441   22.4513   96.3189 H   0  0  0  0  0  0  0  0  0  0  0  0
    9.6587   27.1133  100.8926 H   0  0  0  0  0  0  0  0  0  0  0  0
    7.5662   25.7272   96.5947 H   0  0  0  0  0  0  0  0  0  0  0  0
  1  3  1  0  0  0  0
  2  4  1  0  0  0  0
  2 10  1  0  0  0  0
  3  7  1  0  0  0  0
  4 11  2  0  0  0  0
  5  6  2  0  0  0  0
  5  8  1  0  0  0  0
  6  9  1  0  0  0  0
  7 11  1  0  0  0  0
  8 10  2  0  0  0  0
  9 12  2  0  0  0  0
 10 12  1  0  0  0  0
 11 12  1  0  0  0  0
  1 13  1  0  0  0  0
  2 14  1  0  0  0  0
  3 15  1  0  0  0  0
  3 16  1  0  0  0  0
  4 17  1  0  0  0  0
  5 18  1  0  0  0  0
  6 19  1  0  0  0  0
  7 20  1  0  0  0  0
  7 21  1  0  0  0  0
  8 22  1  0  0  0  0
  9 23  1  0  0  0  0
M  END
> <pdb_id>
7EER

> <uniprot_id>
P00953

> <usmiles>
OCCC=1c2c(NC1)cccc2

$$$$
ZEA_A_201
          07202407023D 1   1.00000     0.00000     0
            
 29 30  0  0  0  0            999 V2000
   40.1780   11.6550   14.4070 O   0  0  0  0  0  0  0  0  0  0  0  0
   36.2060   15.6800    8.4020 N   0  0  0  0  0  0  0  0  0  0  0  0
   36.1380   14.5380   10.3980 N   0  0  0  0  0  0  0  0  0  0  0  0
   37.6320   17.7160    8.4730 N   0  0  0  0  0  0  0  0  0  0  0  0
   38.2960   17.5030   10.5590 N   0  0  0  0  0  0  0  0  0  0  0  0
   37.4330   15.2620   12.3570 N   0  0  0  0  0  0  0  0  0  0  0  0
   37.0020   12.8140   15.9160 C   0  0  0  0  0  0  0  0  0  0  0  0
   35.7430   14.6430    9.1100 C   0  0  0  0  0  0  0  0  0  0  0  0
   38.4050   18.2510    9.4280 C   0  0  0  0  0  0  0  0  0  0  0  0
   37.0440   14.0320   13.0220 C   0  0  0  0  0  0  0  0  0  0  0  0
   39.2470   11.7410   15.4170 C   0  0  0  0  0  0  0  0  0  0  0  0
   38.1720   13.2490   13.5970 C   0  0  0  0  0  0  0  0  0  0  0  0
   37.0390   16.5920    8.9500 C   0  0  0  0  0  0  0  0  0  0  0  0
   36.9830   15.3890   10.9950 C   0  0  0  0  0  0  0  0  0  0  0  0
   38.1310   12.6130   14.9760 C   0  0  0  0  0  0  0  0  0  0  0  0
   37.4350   16.4820   10.2670 C   0  0  0  0  0  0  0  0  0  0  0  0
   40.9332   11.0680   14.6988 H   0  0  0  0  0  0  0  0  0  0  0  0
   38.7552   17.6675   11.4320 H   0  0  0  0  0  0  0  0  0  0  0  0
   37.9740   15.9696   12.8115 H   0  0  0  0  0  0  0  0  0  0  0  0
   36.2312   13.3950   15.6547 H   0  0  0  0  0  0  0  0  0  0  0  0
   37.0114   12.3685   16.8113 H   0  0  0  0  0  0  0  0  0  0  0  0
   35.1269   13.9701    8.7006 H   0  0  0  0  0  0  0  0  0  0  0  0
   38.9712   19.0689    9.3257 H   0  0  0  0  0  0  0  0  0  0  0  0
   36.5720   13.4543   12.3561 H   0  0  0  0  0  0  0  0  0  0  0  0
   36.4166   14.2651   13.7650 H   0  0  0  0  0  0  0  0  0  0  0  0
   39.6736   12.1303   16.2333 H   0  0  0  0  0  0  0  0  0  0  0  0
   38.8959   10.8286   15.6273 H   0  0  0  0  0  0  0  0  0  0  0  0
   38.9585   13.8665   13.6036 H   0  0  0  0  0  0  0  0  0  0  0  0
   38.3410   12.5008   12.9554 H   0  0  0  0  0  0  0  0  0  0  0  0
  1 11  1  0  0  0  0
  2  8  2  0  0  0  0
  2 13  1  0  0  0  0
  3  8  1  0  0  0  0
  3 14  2  0  0  0  0
  4  9  2  0  0  0  0
  4 13  1  0  0  0  0
  5  9  1  0  0  0  0
  5 16  1  0  0  0  0
  6 10  1  0  0  0  0
  6 14  1  0  0  0  0
  7 15  2  0  0  0  0
 10 12  1  0  0  0  0
 11 15  1  0  0  0  0
 12 15  1  0  0  0  0
 13 16  2  0  0  0  0
 14 16  1  0  0  0  0
  1 17  1  0  0  0  0
  5 18  1  0  0  0  0
  6 19  1  0  0  0  0
  7 20  1  0  0  0  0
  7 21  1  0  0  0  0
  8 22  1  0  0  0  0
  9 23  1  0  0  0  0
 10 24  1  0  0  0  0
 10 25  1  0  0  0  0
 11 26  1  0  0  0  0
 11 27  1  0  0  0  0
 12 28  1  0  0  0  0
 12 29  1  0  0  0  0
M  END
> <pdb_id>
4JHG

> <uniprot_id>
P93330

> <usmiles>
OCC(=C)CCNc1ncnc2N=CNc21

$$$$
ZEA_A_400
          07202402363D 1   1.00000     0.00000     0
            
 29 30  0  0  0  0            999 V2000
  -27.8969    6.4362   17.7970 O   0  0  0  0  0  0  0  0  0  0  0  0
  -25.5306   -2.3302   16.5947 N   0  0  0  0  0  0  0  0  0  0  0  0
  -25.1808    0.0006   16.7113 N   0  0  0  0  0  0  0  0  0  0  0  0
  -27.9164   -3.0394   16.8745 N   0  0  0  0  0  0  0  0  0  0  0  0
  -28.7610   -1.0282   17.2448 N   0  0  0  0  0  0  0  0  0  0  0  0
  -26.9488    1.5562   17.1747 N   0  0  0  0  0  0  0  0  0  0  0  0
  -25.6840    4.9840   15.0544 C   0  0  0  0  0  0  0  0  0  0  0  0
  -24.7476   -1.2587   16.5090 C   0  0  0  0  0  0  0  0  0  0  0  0
  -29.0528   -2.3483   17.1018 C   0  0  0  0  0  0  0  0  0  0  0  0
  -26.0321    2.6508   16.9970 C   0  0  0  0  0  0  0  0  0  0  0  0
  -27.2671    6.3121   16.5565 C   0  0  0  0  0  0  0  0  0  0  0  0
  -26.7514    3.9569   17.1150 C   0  0  0  0  0  0  0  0  0  0  0  0
  -26.8933   -2.1608   16.7626 C   0  0  0  0  0  0  0  0  0  0  0  0
  -26.5021    0.2116   16.9451 C   0  0  0  0  0  0  0  0  0  0  0  0
  -26.6186    4.9925   16.2296 C   0  0  0  0  0  0  0  0  0  0  0  0
  -27.3983   -0.8858   17.0068 C   0  0  0  0  0  0  0  0  0  0  0  0
  -28.2825    7.3547   17.8847 H   0  0  0  0  0  0  0  0  0  0  0  0
  -29.4039   -0.2984   17.4771 H   0  0  0  0  0  0  0  0  0  0  0  0
  -27.8921    1.7312   17.4567 H   0  0  0  0  0  0  0  0  0  0  0  0
  -25.3136    4.0635   14.9297 H   0  0  0  0  0  0  0  0  0  0  0  0
  -26.1812    5.2575   14.2310 H   0  0  0  0  0  0  0  0  0  0  0  0
  -24.9347    5.6252   15.2197 H   0  0  0  0  0  0  0  0  0  0  0  0
  -23.7834   -1.3955   16.2816 H   0  0  0  0  0  0  0  0  0  0  0  0
  -29.9687   -2.7460   17.1567 H   0  0  0  0  0  0  0  0  0  0  0  0
  -25.6130    2.5860   16.0914 H   0  0  0  0  0  0  0  0  0  0  0  0
  -25.3205    2.6019   17.6979 H   0  0  0  0  0  0  0  0  0  0  0  0
  -26.5560    7.0138   16.5111 H   0  0  0  0  0  0  0  0  0  0  0  0
  -27.9554    6.4891   15.8530 H   0  0  0  0  0  0  0  0  0  0  0  0
  -27.3695    4.0818   17.8912 H   0  0  0  0  0  0  0  0  0  0  0  0
  1 11  1  0  0  0  0
  2  8  2  0  0  0  0
  2 13  1  0  0  0  0
  3  8  1  0  0  0  0
  3 14  2  0  0  0  0
  4  9  2  0  0  0  0
  4 13  1  0  0  0  0
  5  9  1  0  0  0  0
  5 16  1  0  0  0  0
  6 10  1  0  0  0  0
  6 14  1  0  0  0  0
  7 15  1  0  0  0  0
 10 12  1  0  0  0  0
 11 15  1  0  0  0  0
 12 15  2  0  0  0  0
 13 16  2  0  0  0  0
 14 16  1  0  0  0  0
  1 17  1  0  0  0  0
  5 18  1  0  0  0  0
  6 19  1  0  0  0  0
  7 20  1  0  0  0  0
  7 21  1  0  0  0  0
  7 22  1  0  0  0  0
  8 23  1  0  0  0  0
  9 24  1  0  0  0  0
 10 25  1  0  0  0  0
 10 26  1  0  0  0  0
 11 27  1  0  0  0  0
 11 28  1  0  0  0  0
 12 29  1  0  0  0  0
M  END
> <pdb_id>
3T4L

> <uniprot_id>
Q9C5U0

> <usmiles>
OC/C(=C/CNc1ncnc2N=CNc21)/C

$$$$
ZEA_B_400
          07202402363D 1   1.00000     0.00000     0
            
 29 30  0  0  0  0            999 V2000
  -27.9680    6.3360   17.8560 O   0  0  0  0  0  0  0  0  0  0  0  0
  -25.6030   -2.5100   16.5940 N   0  0  0  0  0  0  0  0  0  0  0  0
  -25.2730   -0.1890   16.8060 N   0  0  0  0  0  0  0  0  0  0  0  0
  -28.0160   -3.2660   16.8420 N   0  0  0  0  0  0  0  0  0  0  0  0
  -28.8450   -1.2570   17.1790 N   0  0  0  0  0  0  0  0  0  0  0  0
  -27.1040    1.3550   17.2280 N   0  0  0  0  0  0  0  0  0  0  0  0
  -25.7670    4.7170   15.1800 C   0  0  0  0  0  0  0  0  0  0  0  0
  -24.7850   -1.4350   16.6000 C   0  0  0  0  0  0  0  0  0  0  0  0
  -29.1470   -2.5710   17.0750 C   0  0  0  0  0  0  0  0  0  0  0  0
  -26.2140    2.4820   17.0080 C   0  0  0  0  0  0  0  0  0  0  0  0
  -27.1960    6.2320   16.7120 C   0  0  0  0  0  0  0  0  0  0  0  0
  -26.9930    3.7750   17.1150 C   0  0  0  0  0  0  0  0  0  0  0  0
  -26.9640   -2.3670   16.7950 C   0  0  0  0  0  0  0  0  0  0  0  0
  -26.5960    0.0050   17.0080 C   0  0  0  0  0  0  0  0  0  0  0  0
  -26.5340    4.9020   16.4410 C   0  0  0  0  0  0  0  0  0  0  0  0
  -27.4800   -1.1150   17.0060 C   0  0  0  0  0  0  0  0  0  0  0  0
  -28.3474    7.2591   17.9193 H   0  0  0  0  0  0  0  0  0  0  0  0
  -27.9485   -4.2567   16.7238 H   0  0  0  0  0  0  0  0  0  0  0  0
  -28.0476    1.5018   17.5248 H   0  0  0  0  0  0  0  0  0  0  0  0
  -25.3933    3.7899   15.1501 H   0  0  0  0  0  0  0  0  0  0  0  0
  -26.3734    4.8573   14.3973 H   0  0  0  0  0  0  0  0  0  0  0  0
  -25.0186    5.3794   15.1448 H   0  0  0  0  0  0  0  0  0  0  0  0
  -23.8044   -1.5614   16.4501 H   0  0  0  0  0  0  0  0  0  0  0  0
  -30.0628   -2.9641   17.1577 H   0  0  0  0  0  0  0  0  0  0  0  0
  -25.8086    2.4125   16.0965 H   0  0  0  0  0  0  0  0  0  0  0  0
  -25.4891    2.4726   17.6968 H   0  0  0  0  0  0  0  0  0  0  0  0
  -26.4731    6.9201   16.7740 H   0  0  0  0  0  0  0  0  0  0  0  0
  -27.7863    6.4381   15.9316 H   0  0  0  0  0  0  0  0  0  0  0  0
  -27.8279    3.8187   17.6637 H   0  0  0  0  0  0  0  0  0  0  0  0
  1 11  1  0  0  0  0
  2  8  2  0  0  0  0
  2 13  1  0  0  0  0
  3  8  1  0  0  0  0
  3 14  2  0  0  0  0
  4  9  1  0  0  0  0
  4 13  1  0  0  0  0
  5  9  2  0  0  0  0
  5 16  1  0  0  0  0
  6 10  1  0  0  0  0
  6 14  1  0  0  0  0
  7 15  1  0  0  0  0
 10 12  1  0  0  0  0
 11 15  1  0  0  0  0
 12 15  2  0  0  0  0
 13 16  2  0  0  0  0
 14 16  1  0  0  0  0
  1 17  1  0  0  0  0
  4 18  1  0  0  0  0
  6 19  1  0  0  0  0
  7 20  1  0  0  0  0
  7 21  1  0  0  0  0
  7 22  1  0  0  0  0
  8 23  1  0  0  0  0
  9 24  1  0  0  0  0
 10 25  1  0  0  0  0
 10 26  1  0  0  0  0
 11 27  1  0  0  0  0
 11 28  1  0  0  0  0
 12 29  1  0  0  0  0
M  END
> <pdb_id>
3T4Q

> <uniprot_id>
Q9C5U0

> <usmiles>
OC/C(=C/CNc1ncnc2NC=Nc21)/C

$$$$
ZEC_A_123
          07202405323D 1   1.00000     0.00000     0
            
 20 21  0  0  0  0            999 V2000
  -13.9158   -2.6605   -0.0563 S   0  0  0  0  0  0  0  0  0  0  0  0
  -14.9280   -2.9665   -2.9437 S   0  0  0  0  0  0  0  0  0  0  0  0
  -15.5587   -4.2803   -3.3002 O   0  0  0  0  0  0  0  0  0  0  0  0
  -13.4573   -3.0203   -3.2318 O   0  0  0  0  0  0  0  0  0  0  0  0
  -15.7135   -2.0181    4.8038 O   0  0  0  0  0  0  0  0  0  0  0  0
  -15.6222   -1.7732   -3.8071 N   0  0  0  0  0  0  0  0  0  0  0  0
  -16.3296   -2.4867   -0.6360 N   0  0  0  0  0  0  0  0  0  0  0  0
  -17.1838   -2.0673    2.9290 C   0  0  0  0  0  0  0  0  0  0  0  0
  -17.3714   -2.1748    1.5550 C   0  0  0  0  0  0  0  0  0  0  0  0
  -14.8106   -2.3134    2.6149 C   0  0  0  0  0  0  0  0  0  0  0  0
  -15.1552   -2.6693   -1.2356 C   0  0  0  0  0  0  0  0  0  0  0  0
  -15.0102   -2.4208    1.2416 C   0  0  0  0  0  0  0  0  0  0  0  0
  -15.9000   -2.1357    3.4616 C   0  0  0  0  0  0  0  0  0  0  0  0
  -16.2926   -2.3519    0.6921 C   0  0  0  0  0  0  0  0  0  0  0  0
  -14.7910   -2.0673    5.1867 H   0  0  0  0  0  0  0  0  0  0  0  0
  -15.1998   -0.8991   -3.5672 H   0  0  0  0  0  0  0  0  0  0  0  0
  -15.4929   -1.9492   -4.7829 H   0  0  0  0  0  0  0  0  0  0  0  0
  -17.9705   -1.9409    3.5334 H   0  0  0  0  0  0  0  0  0  0  0  0
  -18.2971   -2.1241    1.1802 H   0  0  0  0  0  0  0  0  0  0  0  0
  -13.8859   -2.3639    2.9922 H   0  0  0  0  0  0  0  0  0  0  0  0
  1 11  1  0  0  0  0
  1 12  1  0  0  0  0
  2  3  2  0  0  0  0
  2  4  2  0  0  0  0
  2  6  1  0  0  0  0
  2 11  1  0  0  0  0
  5 13  1  0  0  0  0
  7 11  2  0  0  0  0
  7 14  1  0  0  0  0
  8  9  1  0  0  0  0
  8 13  2  0  0  0  0
  9 14  2  0  0  0  0
 10 12  2  0  0  0  0
 10 13  1  0  0  0  0
 12 14  1  0  0  0  0
  5 15  1  0  0  0  0
  6 16  1  0  0  0  0
  6 17  1  0  0  0  0
  8 18  1  0  0  0  0
  9 19  1  0  0  0  0
 10 20  1  0  0  0  0
M  END
> <pdb_id>
3L5U

> <uniprot_id>
P14174

> <usmiles>
S(=O)(=O)(N)C=1Sc2c(N1)ccc(O)c2

$$$$
ZEC_A_300
          07192416293D 1   1.00000     0.00000     0
            
 20 21  0  0  0  0            999 V2000
   -6.0675    3.4495   15.1112 S   0  0  0  0  0  0  0  0  0  0  0  0
   -5.8424    0.9023   16.7744 S   0  0  0  0  0  0  0  0  0  0  0  0
   -7.2568    1.1170   16.5080 O   0  0  0  0  0  0  0  0  0  0  0  0
   -5.3930    1.0410   18.1556 O   0  0  0  0  0  0  0  0  0  0  0  0
   -3.0422    6.9771   12.8435 O   0  0  0  0  0  0  0  0  0  0  0  0
   -5.3806   -0.4049   16.2044 N   0  0  0  0  0  0  0  0  0  0  0  0
   -3.7623    2.3588   15.7548 N   0  0  0  0  0  0  0  0  0  0  0  0
   -2.0849    5.0974   14.0081 C   0  0  0  0  0  0  0  0  0  0  0  0
   -2.1546    3.9195   14.7538 C   0  0  0  0  0  0  0  0  0  0  0  0
   -4.5058    5.3688   13.8965 C   0  0  0  0  0  0  0  0  0  0  0  0
   -5.0139    2.1946   15.8923 C   0  0  0  0  0  0  0  0  0  0  0  0
   -4.5545    4.1829   14.6361 C   0  0  0  0  0  0  0  0  0  0  0  0
   -3.2090    5.8077   13.5850 C   0  0  0  0  0  0  0  0  0  0  0  0
   -3.4385    3.4796   15.0523 C   0  0  0  0  0  0  0  0  0  0  0  0
   -3.8421    7.4925   12.5361 H   0  0  0  0  0  0  0  0  0  0  0  0
   -4.4079   -0.5289   16.4001 H   0  0  0  0  0  0  0  0  0  0  0  0
   -5.9017   -1.1516   16.6180 H   0  0  0  0  0  0  0  0  0  0  0  0
   -1.1818    5.4509   13.7643 H   0  0  0  0  0  0  0  0  0  0  0  0
   -1.3375    3.4265   15.0524 H   0  0  0  0  0  0  0  0  0  0  0  0
   -5.3272    5.8635   13.6127 H   0  0  0  0  0  0  0  0  0  0  0  0
  1 11  1  0  0  0  0
  1 12  1  0  0  0  0
  2  3  2  0  0  0  0
  2  4  2  0  0  0  0
  2  6  1  0  0  0  0
  2 11  1  0  0  0  0
  5 13  1  0  0  0  0
  7 11  2  0  0  0  0
  7 14  1  0  0  0  0
  8  9  1  0  0  0  0
  8 13  2  0  0  0  0
  9 14  2  0  0  0  0
 10 12  2  0  0  0  0
 10 13  1  0  0  0  0
 12 14  1  0  0  0  0
  5 15  1  0  0  0  0
  6 16  1  0  0  0  0
  6 17  1  0  0  0  0
  8 18  1  0  0  0  0
  9 19  1  0  0  0  0
 10 20  1  0  0  0  0
M  END
> <pdb_id>
1ZFQ

> <uniprot_id>
P00918

> <usmiles>
S(=O)(=O)(N)C=1Sc2c(N1)ccc(O)c2

$$$$
ZH2_A_401
          07202401213D 1   1.00000     0.00000     0
            
 47 48  0  0  0  0            999 V2000
   31.9980  -14.4920   -6.2370 O   0  0  0  0  0  0  0  0  0  0  0  0
   30.3710  -12.7360   -7.2580 O   0  0  0  0  0  0  0  0  0  0  0  0
   33.4560   -9.1640   -7.9950 O   0  0  0  0  0  0  0  0  0  0  0  0
   30.7620  -10.7310   -4.4920 O   0  0  0  0  0  0  0  0  0  0  0  0
   28.7430   -2.7540  -21.9460 N   0  0  0  0  0  0  0  0  0  0  0  0
   32.2980  -13.2280   -6.1670 N   0  0  0  0  0  0  0  0  0  0  0  0
   31.4730  -10.3240   -8.0220 N   0  0  0  0  0  0  0  0  0  0  0  0
   29.3580  -10.0740   -6.2250 C   0  0  0  0  0  0  0  0  0  0  0  0
   30.5710   -6.1010  -16.1550 C   0  0  0  0  0  0  0  0  0  0  0  0
   30.9410   -6.7910  -14.8690 C   0  0  0  0  0  0  0  0  0  0  0  0
   30.4690   -3.4720  -20.3650 C   0  0  0  0  0  0  0  0  0  0  0  0
   28.1510   -4.1140  -19.9990 C   0  0  0  0  0  0  0  0  0  0  0  0
   30.2500   -5.5240  -17.1860 C   0  0  0  0  0  0  0  0  0  0  0  0
   31.2290   -7.3220  -13.8030 C   0  0  0  0  0  0  0  0  0  0  0  0
   30.8400   -4.1480  -19.2030 C   0  0  0  0  0  0  0  0  0  0  0  0
   28.5190   -4.7910  -18.8360 C   0  0  0  0  0  0  0  0  0  0  0  0
   32.6250   -7.3850  -11.7380 C   0  0  0  0  0  0  0  0  0  0  0  0
   30.8450   -9.0290  -11.9840 C   0  0  0  0  0  0  0  0  0  0  0  0
   32.9650   -7.9290  -10.4910 C   0  0  0  0  0  0  0  0  0  0  0  0
   31.1800   -9.5670  -10.7370 C   0  0  0  0  0  0  0  0  0  0  0  0
   31.3690  -12.3010   -6.7130 C   0  0  0  0  0  0  0  0  0  0  0  0
   32.5160   -9.5750   -8.6470 C   0  0  0  0  0  0  0  0  0  0  0  0
   30.7580  -10.1020   -5.7090 C   0  0  2  0  0  0  0  0  0  0  0  0
   29.1240   -3.4550  -20.7630 C   0  0  0  0  0  0  0  0  0  0  0  0
   31.6510  -10.8280   -6.6770 C   0  0  2  0  0  0  0  0  0  0  0  0
   29.8660   -4.8160  -18.4500 C   0  0  0  0  0  0  0  0  0  0  0  0
   31.5880   -7.9460  -12.4850 C   0  0  0  0  0  0  0  0  0  0  0  0
   32.2340   -9.0240  -10.0010 C   0  0  0  0  0  0  0  0  0  0  0  0
   32.7293  -15.0318   -5.8201 H   0  0  0  0  0  0  0  0  0  0  0  0
   31.6951  -10.7573   -4.1334 H   0  0  0  0  0  0  0  0  0  0  0  0
   27.7850   -2.7401  -22.2323 H   0  0  0  0  0  0  0  0  0  0  0  0
   29.4340   -2.2767  -22.4888 H   0  0  0  0  0  0  0  0  0  0  0  0
   33.1505  -12.9200   -5.7447 H   0  0  0  0  0  0  0  0  0  0  0  0
   30.6201  -10.5002   -8.5134 H   0  0  0  0  0  0  0  0  0  0  0  0
   29.3396   -9.6170   -7.1143 H   0  0  0  0  0  0  0  0  0  0  0  0
   29.0205  -11.0101   -6.3242 H   0  0  0  0  0  0  0  0  0  0  0  0
   28.7757   -9.5761   -5.5823 H   0  0  0  0  0  0  0  0  0  0  0  0
   31.1600   -3.0006  -20.9131 H   0  0  0  0  0  0  0  0  0  0  0  0
   27.1936   -4.0989  -20.2874 H   0  0  0  0  0  0  0  0  0  0  0  0
   31.7958   -4.1558  -18.9091 H   0  0  0  0  0  0  0  0  0  0  0  0
   27.8273   -5.2546  -18.2823 H   0  0  0  0  0  0  0  0  0  0  0  0
   33.1256   -6.5950  -12.0921 H   0  0  0  0  0  0  0  0  0  0  0  0
   30.0864   -9.4101  -12.5125 H   0  0  0  0  0  0  0  0  0  0  0  0
   33.7176   -7.5427   -9.9578 H   0  0  0  0  0  0  0  0  0  0  0  0
   30.6635  -10.3418  -10.3724 H   0  0  0  0  0  0  0  0  0  0  0  0
   31.0868   -9.1643   -5.5966 H   0  0  0  0  0  0  0  0  0  0  0  0
   32.6029  -10.6887   -6.4040 H   0  0  0  0  0  0  0  0  0  0  0  0
  1  6  1  0  0  0  0
  2 21  2  0  0  0  0
  3 22  2  0  0  0  0
  4 23  1  0  0  0  0
  5 24  1  0  0  0  0
  6 21  1  0  0  0  0
  7 22  1  0  0  0  0
  7 25  1  0  0  0  0
  8 23  1  0  0  0  0
  9 10  1  0  0  0  0
  9 13  3  0  0  0  0
 10 14  3  0  0  0  0
 11 15  1  0  0  0  0
 11 24  2  0  0  0  0
 12 16  2  0  0  0  0
 12 24  1  0  0  0  0
 13 26  1  0  0  0  0
 14 27  1  0  0  0  0
 15 26  2  0  0  0  0
 16 26  1  0  0  0  0
 17 19  1  0  0  0  0
 17 27  2  0  0  0  0
 18 20  2  0  0  0  0
 18 27  1  0  0  0  0
 19 28  2  0  0  0  0
 20 28  1  0  0  0  0
 21 25  1  0  0  0  0
 22 28  1  0  0  0  0
 23 25  1  0  0  0  0
  1 29  1  0  0  0  0
  4 30  1  0  0  0  0
  5 31  1  0  0  0  0
  5 32  1  0  0  0  0
  6 33  1  0  0  0  0
  7 34  1  0  0  0  0
  8 35  1  0  0  0  0
  8 36  1  0  0  0  0
  8 37  1  0  0  0  0
 11 38  1  0  0  0  0
 12 39  1  0  0  0  0
 15 40  1  0  0  0  0
 16 41  1  0  0  0  0
 17 42  1  0  0  0  0
 18 43  1  0  0  0  0
 19 44  1  0  0  0  0
 20 45  1  0  0  0  0
 23 46  1  0  0  0  0
 25 47  1  0  0  0  0
M  END
> <pdb_id>
3PS1

> <uniprot_id>
D5CV28

> <usmiles>
O=C(N[C@H](C(=O)NO)[C@H](O)C)c1ccc(C#CC#Cc2ccc(N)cc2)cc1

$$$$
ZH2_B_402
          07202409253D 1   1.00000     0.00000     0
            
 47 48  0  0  0  0            999 V2000
  -14.0060   36.4570   14.9660 O   0  0  0  0  0  0  0  0  0  0  0  0
  -16.2630   35.3570   14.0800 O   0  0  0  0  0  0  0  0  0  0  0  0
  -18.1160   39.2430   12.1270 O   0  0  0  0  0  0  0  0  0  0  0  0
  -17.6770   37.3320   16.1670 O   0  0  0  0  0  0  0  0  0  0  0  0
  -25.1260   33.1240   -1.0380 N   0  0  0  0  0  0  0  0  0  0  0  0
  -15.1040   37.1870   14.7290 N   0  0  0  0  0  0  0  0  0  0  0  0
  -17.9700   37.0390   12.8280 N   0  0  0  0  0  0  0  0  0  0  0  0
  -19.0830   36.1440   14.8990 C   0  0  0  0  0  0  0  0  0  0  0  0
  -21.9930   35.6570    4.5600 C   0  0  0  0  0  0  0  0  0  0  0  0
  -21.3270   36.1680    5.8060 C   0  0  0  0  0  0  0  0  0  0  0  0
  -24.1960   34.9880    0.1550 C   0  0  0  0  0  0  0  0  0  0  0  0
  -24.1580   32.8000    1.1600 C   0  0  0  0  0  0  0  0  0  0  0  0
  -22.5500   35.2160    3.5620 C   0  0  0  0  0  0  0  0  0  0  0  0
  -20.8230   36.5340    6.8350 C   0  0  0  0  0  0  0  0  0  0  0  0
  -23.5700   35.5050    1.2690 C   0  0  0  0  0  0  0  0  0  0  0  0
  -23.5320   33.3160    2.2770 C   0  0  0  0  0  0  0  0  0  0  0  0
  -20.4160   38.2220    8.6910 C   0  0  0  0  0  0  0  0  0  0  0  0
  -19.3530   36.0690    8.8050 C   0  0  0  0  0  0  0  0  0  0  0  0
  -19.8170   38.5840    9.8890 C   0  0  0  0  0  0  0  0  0  0  0  0
  -18.7500   36.4320   10.0070 C   0  0  0  0  0  0  0  0  0  0  0  0
  -16.2740   36.5670   14.2680 C   0  0  0  0  0  0  0  0  0  0  0  0
  -18.3230   38.0840   11.8750 C   0  0  0  0  0  0  0  0  0  0  0  0
  -18.2660   37.2810   14.9750 C   0  0  2  0  0  0  0  0  0  0  0  0
  -24.4930   33.6440    0.0910 C   0  0  0  0  0  0  0  0  0  0  0  0
  -17.3980   37.3440   14.0270 C   0  0  2  0  0  0  0  0  0  0  0  0
  -23.2360   34.6570    2.3380 C   0  0  0  0  0  0  0  0  0  0  0  0
  -20.1770   36.9560    8.1540 C   0  0  0  0  0  0  0  0  0  0  0  0
  -18.9830   37.6910   10.5410 C   0  0  0  0  0  0  0  0  0  0  0  0
  -13.2711   37.0547   15.2866 H   0  0  0  0  0  0  0  0  0  0  0  0
  -17.0955   38.1440   16.2170 H   0  0  0  0  0  0  0  0  0  0  0  0
  -25.3420   32.1488   -1.0855 H   0  0  0  0  0  0  0  0  0  0  0  0
  -25.3638   33.7265   -1.7999 H   0  0  0  0  0  0  0  0  0  0  0  0
  -15.0891   38.1753   14.8811 H   0  0  0  0  0  0  0  0  0  0  0  0
  -18.1505   36.0826   12.5983 H   0  0  0  0  0  0  0  0  0  0  0  0
  -19.5236   36.1095   14.0020 H   0  0  0  0  0  0  0  0  0  0  0  0
  -18.5257   35.3238   15.0284 H   0  0  0  0  0  0  0  0  0  0  0  0
  -19.7824   36.1878   15.6124 H   0  0  0  0  0  0  0  0  0  0  0  0
  -24.4349   35.5891   -0.6076 H   0  0  0  0  0  0  0  0  0  0  0  0
  -24.3726   31.8244    1.1130 H   0  0  0  0  0  0  0  0  0  0  0  0
  -23.3544   36.4803    1.3160 H   0  0  0  0  0  0  0  0  0  0  0  0
  -23.2943   32.7153    3.0404 H   0  0  0  0  0  0  0  0  0  0  0  0
  -21.0159   38.8648    8.2147 H   0  0  0  0  0  0  0  0  0  0  0  0
  -19.1865   35.1631    8.4156 H   0  0  0  0  0  0  0  0  0  0  0  0
  -19.9872   39.4881   10.2810 H   0  0  0  0  0  0  0  0  0  0  0  0
  -18.1515   35.7877   10.4831 H   0  0  0  0  0  0  0  0  0  0  0  0
  -18.8576   38.0834   14.8962 H   0  0  0  0  0  0  0  0  0  0  0  0
  -17.0915   38.2943   13.9725 H   0  0  0  0  0  0  0  0  0  0  0  0
  1  6  1  0  0  0  0
  2 21  2  0  0  0  0
  3 22  2  0  0  0  0
  4 23  1  0  0  0  0
  5 24  1  0  0  0  0
  6 21  1  0  0  0  0
  7 22  1  0  0  0  0
  7 25  1  0  0  0  0
  8 23  1  0  0  0  0
  9 10  1  0  0  0  0
  9 13  3  0  0  0  0
 10 14  3  0  0  0  0
 11 15  1  0  0  0  0
 11 24  2  0  0  0  0
 12 16  2  0  0  0  0
 12 24  1  0  0  0  0
 13 26  1  0  0  0  0
 14 27  1  0  0  0  0
 15 26  2  0  0  0  0
 16 26  1  0  0  0  0
 17 19  1  0  0  0  0
 17 27  2  0  0  0  0
 18 20  2  0  0  0  0
 18 27  1  0  0  0  0
 19 28  2  0  0  0  0
 20 28  1  0  0  0  0
 21 25  1  0  0  0  0
 22 28  1  0  0  0  0
 23 25  1  0  0  0  0
  1 29  1  0  0  0  0
  4 30  1  0  0  0  0
  5 31  1  0  0  0  0
  5 32  1  0  0  0  0
  6 33  1  0  0  0  0
  7 34  1  0  0  0  0
  8 35  1  0  0  0  0
  8 36  1  0  0  0  0
  8 37  1  0  0  0  0
 11 38  1  0  0  0  0
 12 39  1  0  0  0  0
 15 40  1  0  0  0  0
 16 41  1  0  0  0  0
 17 42  1  0  0  0  0
 18 43  1  0  0  0  0
 19 44  1  0  0  0  0
 20 45  1  0  0  0  0
 23 46  1  0  0  0  0
 25 47  1  0  0  0  0
M  END
> <pdb_id>
5DRO

> <uniprot_id>
O67648

> <usmiles>
O=C(N[C@H](C(=O)NO)[C@H](O)C)c1ccc(C#CC#Cc2ccc(N)cc2)cc1

$$$$
ZJ4_A_301
          07212404173D 1   1.00000     0.00000     0
            
 28 29  0  0  0  0            999 V2000
   -5.5550   22.1280    3.1910 S   0  0  0  0  0  0  0  0  0  0  0  0
   -4.7770   24.6600    4.7860 O   0  0  0  0  0  0  0  0  0  0  0  0
   -6.2440   25.8690    3.6630 O   0  0  0  0  0  0  0  0  0  0  0  0
   -8.6900   19.8180    2.0580 C   0  0  0  0  0  0  0  0  0  0  0  0
   -3.4710   20.1130    1.1920 C   0  0  0  0  0  0  0  0  0  0  0  0
   -6.0320   17.0090    1.0180 C   0  0  0  0  0  0  0  0  0  0  0  0
   -7.3450   17.6650    1.3920 C   0  0  0  0  0  0  0  0  0  0  0  0
   -4.7470   17.8240    0.9530 C   0  0  0  0  0  0  0  0  0  0  0  0
   -6.7880   23.7830    1.7860 C   0  0  0  0  0  0  0  0  0  0  0  0
   -6.9070   22.3490    1.1140 C   0  0  0  0  0  0  0  0  0  0  0  0
   -5.6420   24.7840    3.8860 C   0  0  0  0  0  0  0  0  0  0  0  0
   -5.9780   23.6210    2.9880 C   0  0  0  0  0  0  0  0  0  0  0  0
   -6.1770   21.4160    1.9510 C   0  0  0  0  0  0  0  0  0  0  0  0
   -7.3800   19.1460    1.6920 C   0  0  0  0  0  0  0  0  0  0  0  0
   -4.7640   19.3030    1.2640 C   0  0  0  0  0  0  0  0  0  0  0  0
   -6.0920   19.9470    1.6420 C   0  0  0  0  0  0  0  0  0  0  0  0
   -4.3248   23.7793    4.9270 H   0  0  0  0  0  0  0  0  0  0  0  0
   -8.5307   20.7914    2.2228 H   0  0  0  0  0  0  0  0  0  0  0  0
   -9.3416   19.7093    1.3072 H   0  0  0  0  0  0  0  0  0  0  0  0
   -9.0613   19.3963    2.8852 H   0  0  0  0  0  0  0  0  0  0  0  0
   -3.6615   21.0664    1.4259 H   0  0  0  0  0  0  0  0  0  0  0  0
   -2.8062   19.7377    1.8379 H   0  0  0  0  0  0  0  0  0  0  0  0
   -3.0988   20.0651    0.2651 H   0  0  0  0  0  0  0  0  0  0  0  0
   -6.0086   16.0308    0.8117 H   0  0  0  0  0  0  0  0  0  0  0  0
   -8.1832   17.1218    1.4401 H   0  0  0  0  0  0  0  0  0  0  0  0
   -3.8874   17.3782    0.7032 H   0  0  0  0  0  0  0  0  0  0  0  0
   -7.1912   24.6340    1.4495 H   0  0  0  0  0  0  0  0  0  0  0  0
   -7.3953   22.1297    0.2693 H   0  0  0  0  0  0  0  0  0  0  0  0
  1 12  1  0  0  0  0
  1 13  1  0  0  0  0
  2 11  1  0  0  0  0
  3 11  2  0  0  0  0
  4 14  1  0  0  0  0
  5 15  1  0  0  0  0
  6  7  1  0  0  0  0
  6  8  2  0  0  0  0
  7 14  2  0  0  0  0
  8 15  1  0  0  0  0
  9 10  1  0  0  0  0
  9 12  2  0  0  0  0
 10 13  2  0  0  0  0
 11 12  1  0  0  0  0
 13 16  1  0  0  0  0
 14 16  1  0  0  0  0
 15 16  2  0  0  0  0
  2 17  1  0  0  0  0
  4 18  1  0  0  0  0
  4 19  1  0  0  0  0
  4 20  1  0  0  0  0
  5 21  1  0  0  0  0
  5 22  1  0  0  0  0
  5 23  1  0  0  0  0
  6 24  1  0  0  0  0
  7 25  1  0  0  0  0
  8 26  1  0  0  0  0
  9 27  1  0  0  0  0
 10 28  1  0  0  0  0
M  END
> <pdb_id>
7MLP

> <uniprot_id>
P02879

> <usmiles>
S1C(c2c(cccc2C)C)=CC=C1C(=O)O

$$$$
ZK1_B_901
          07192423413D 1   1.00000     0.00000     0
            
 42 44  0  0  0  0            999 V2000
   49.4927   35.3585    9.6190 P   0  0  0  0  0  0  0  0  0  0  0  0
   42.8113   39.5656   10.9269 F   0  0  0  0  0  0  0  0  0  0  0  0
   43.9234   38.9510   12.6565 F   0  0  0  0  0  0  0  0  0  0  0  0
   42.3616   37.6993   11.8727 F   0  0  0  0  0  0  0  0  0  0  0  0
   48.9822   35.5572   11.0127 O   0  0  0  0  0  0  0  0  0  0  0  0
   50.4257   34.0933    9.5927 O   0  0  0  0  0  0  0  0  0  0  0  0
   50.2239   36.6616    9.0747 O   0  0  0  0  0  0  0  0  0  0  0  0
   47.1281   38.5300    5.4401 O   0  0  0  0  0  0  0  0  0  0  0  0
   48.4690   36.2167    6.1414 O   0  0  0  0  0  0  0  0  0  0  0  0
   44.3285   34.3052   14.4195 O   0  0  0  0  0  0  0  0  0  0  0  0
   45.9649   38.4882    7.3682 N   0  0  0  0  0  0  0  0  0  0  0  0
   44.6721   36.0615   12.2906 N   0  0  0  0  0  0  0  0  0  0  0  0
   47.3209   36.1147    8.1484 N   0  0  0  0  0  0  0  0  0  0  0  0
   48.0698   34.9000    8.5530 C   0  0  0  0  0  0  0  0  0  0  0  0
   45.3284   35.3322   14.5056 C   0  0  0  0  0  0  0  0  0  0  0  0
   43.1958   34.6262   13.5894 C   0  0  0  0  0  0  0  0  0  0  0  0
   45.8229   35.6107   13.0848 C   0  0  0  0  0  0  0  0  0  0  0  0
   43.7008   34.9326   12.1736 C   0  0  0  0  0  0  0  0  0  0  0  0
   44.6866   38.4530    9.3895 C   0  0  0  0  0  0  0  0  0  0  0  0
   46.0085   36.0975   10.2103 C   0  0  0  0  0  0  0  0  0  0  0  0
   46.8966   37.9783    6.5438 C   0  0  0  0  0  0  0  0  0  0  0  0
   47.6276   36.7392    6.9304 C   0  0  0  0  0  0  0  0  0  0  0  0
   45.6679   37.9137    8.5630 C   0  0  0  0  0  0  0  0  0  0  0  0
   46.3437   36.6789    8.9868 C   0  0  0  0  0  0  0  0  0  0  0  0
   45.0314   36.6337   11.0437 C   0  0  0  0  0  0  0  0  0  0  0  0
   44.3505   37.8641   10.6218 C   0  0  0  0  0  0  0  0  0  0  0  0
   43.3351   38.5164   11.5265 C   0  0  0  0  0  0  0  0  0  0  0  0
   48.3873   36.3607   11.0385 H   0  0  0  0  0  0  0  0  0  0  0  0
   50.7713   33.9532    8.6648 H   0  0  0  0  0  0  0  0  0  0  0  0
   45.4754   39.3159    7.0935 H   0  0  0  0  0  0  0  0  0  0  0  0
   47.4607   34.2897    9.0595 H   0  0  0  0  0  0  0  0  0  0  0  0
   48.4065   34.4320    7.7359 H   0  0  0  0  0  0  0  0  0  0  0  0
   46.0882   35.0222   15.0771 H   0  0  0  0  0  0  0  0  0  0  0  0
   44.9328   36.1622   14.8986 H   0  0  0  0  0  0  0  0  0  0  0  0
   42.7225   35.4258   13.9591 H   0  0  0  0  0  0  0  0  0  0  0  0
   42.5666   33.8494   13.5622 H   0  0  0  0  0  0  0  0  0  0  0  0
   46.5245   36.3230   13.1020 H   0  0  0  0  0  0  0  0  0  0  0  0
   46.2047   34.7762   12.6875 H   0  0  0  0  0  0  0  0  0  0  0  0
   44.1538   34.1283   11.7891 H   0  0  0  0  0  0  0  0  0  0  0  0
   42.9361   35.1972   11.5861 H   0  0  0  0  0  0  0  0  0  0  0  0
   44.2075   39.2814    9.0995 H   0  0  0  0  0  0  0  0  0  0  0  0
   46.4865   35.2676   10.4980 H   0  0  0  0  0  0  0  0  0  0  0  0
  1  5  1  0  0  0  0
  1  6  1  0  0  0  0
  1  7  2  0  0  0  0
  1 14  1  0  0  0  0
  2 27  1  0  0  0  0
  3 27  1  0  0  0  0
  4 27  1  0  0  0  0
  8 21  2  0  0  0  0
  9 22  2  0  0  0  0
 10 15  1  0  0  0  0
 10 16  1  0  0  0  0
 11 21  1  0  0  0  0
 11 23  1  0  0  0  0
 12 17  1  0  0  0  0
 12 18  1  0  0  0  0
 12 25  1  0  0  0  0
 13 14  1  0  0  0  0
 13 22  1  0  0  0  0
 13 24  1  0  0  0  0
 15 17  1  0  0  0  0
 16 18  1  0  0  0  0
 19 23  2  0  0  0  0
 19 26  1  0  0  0  0
 20 24  2  0  0  0  0
 20 25  1  0  0  0  0
 21 22  1  0  0  0  0
 23 24  1  0  0  0  0
 25 26  2  0  0  0  0
 26 27  1  0  0  0  0
  5 28  1  0  0  0  0
  6 29  1  0  0  0  0
 11 30  1  0  0  0  0
 14 31  1  0  0  0  0
 14 32  1  0  0  0  0
 15 33  1  0  0  0  0
 15 34  1  0  0  0  0
 16 35  1  0  0  0  0
 16 36  1  0  0  0  0
 17 37  1  0  0  0  0
 17 38  1  0  0  0  0
 18 39  1  0  0  0  0
 18 40  1  0  0  0  0
 19 41  1  0  0  0  0
 20 42  1  0  0  0  0
M  END
> <pdb_id>
5ZG2

> <uniprot_id>
P42262

> <usmiles>
P(=O)(O)(O)CN1c2c(NC(=O)C1=O)cc(c(N3CCOCC3)c2)C(F)(F)F

$$$$
ZMJ_A_201
          07212401333D 1   1.00000     0.00000     0
            
 42 44  0  0  0  0            999 V2000
  -12.2127  -16.0445  -21.6713 S   0  0  0  0  0  0  0  0  0  0  0  0
  -11.2736  -14.8326  -21.7659 O   0  0  0  0  0  0  0  0  0  0  0  0
  -11.8651  -17.2742  -22.5338 O   0  0  0  0  0  0  0  0  0  0  0  0
  -16.7734  -23.2549  -22.9909 O   0  0  0  0  0  0  0  0  0  0  0  0
  -12.2386  -16.4951  -20.0570 N   0  0  0  0  0  0  0  0  0  0  0  0
  -16.4654  -21.1369  -22.2238 N   0  0  0  0  0  0  0  0  0  0  0  0
  -17.5388  -20.6207  -23.0667 C   0  0  0  0  0  0  0  0  0  0  0  0
  -14.4063  -14.3746  -21.2135 C   0  0  0  0  0  0  0  0  0  0  0  0
  -13.9010  -15.5187  -22.1102 C   0  0  0  0  0  0  0  0  0  0  0  0
  -15.8051  -20.2721  -21.4064 C   0  0  0  0  0  0  0  0  0  0  0  0
  -13.6902  -24.7780  -20.5978 C   0  0  0  0  0  0  0  0  0  0  0  0
  -13.0024  -23.8910  -19.7592 C   0  0  0  0  0  0  0  0  0  0  0  0
  -13.5213  -18.7777  -17.5316 C   0  0  0  0  0  0  0  0  0  0  0  0
  -12.8957  -17.6802  -18.1452 C   0  0  0  0  0  0  0  0  0  0  0  0
  -14.1491  -19.7660  -18.3054 C   0  0  0  0  0  0  0  0  0  0  0  0
  -14.7147  -24.3038  -21.4263 C   0  0  0  0  0  0  0  0  0  0  0  0
  -13.3351  -22.5318  -19.7258 C   0  0  0  0  0  0  0  0  0  0  0  0
  -13.4964  -18.5739  -20.3121 C   0  0  0  0  0  0  0  0  0  0  0  0
  -16.1321  -22.4689  -22.2407 C   0  0  0  0  0  0  0  0  0  0  0  0
  -12.8843  -17.5776  -19.5397 C   0  0  0  0  0  0  0  0  0  0  0  0
  -14.1282  -19.6714  -19.7196 C   0  0  0  0  0  0  0  0  0  0  0  0
  -14.7593  -20.6563  -20.5514 C   0  0  0  0  0  0  0  0  0  0  0  0
  -15.0771  -22.9355  -21.4104 C   0  0  0  0  0  0  0  0  0  0  0  0
  -14.3800  -22.0281  -20.5518 C   0  0  0  0  0  0  0  0  0  0  0  0
  -11.7344  -15.9170  -19.4155 H   0  0  0  0  0  0  0  0  0  0  0  0
  -17.9267  -21.3674  -23.6071 H   0  0  0  0  0  0  0  0  0  0  0  0
  -18.2518  -20.2207  -22.4908 H   0  0  0  0  0  0  0  0  0  0  0  0
  -17.1736  -19.9202  -23.6798 H   0  0  0  0  0  0  0  0  0  0  0  0
  -15.3330  -14.1194  -21.4892 H   0  0  0  0  0  0  0  0  0  0  0  0
  -14.4134  -14.6765  -20.2602 H   0  0  0  0  0  0  0  0  0  0  0  0
  -13.8008  -13.5844  -21.3084 H   0  0  0  0  0  0  0  0  0  0  0  0
  -14.5171  -16.3003  -22.0125 H   0  0  0  0  0  0  0  0  0  0  0  0
  -13.9045  -15.2082  -23.0608 H   0  0  0  0  0  0  0  0  0  0  0  0
  -16.0795  -19.3106  -21.4151 H   0  0  0  0  0  0  0  0  0  0  0  0
  -13.4497  -25.7486  -20.6046 H   0  0  0  0  0  0  0  0  0  0  0  0
  -12.2647  -24.2332  -19.1773 H   0  0  0  0  0  0  0  0  0  0  0  0
  -13.5195  -18.8556  -16.5347 H   0  0  0  0  0  0  0  0  0  0  0  0
  -12.4599  -16.9744  -17.5867 H   0  0  0  0  0  0  0  0  0  0  0  0
  -14.6095  -20.5343  -17.8606 H   0  0  0  0  0  0  0  0  0  0  0  0
  -15.1942  -24.9369  -22.0340 H   0  0  0  0  0  0  0  0  0  0  0  0
  -12.8369  -21.9119  -19.1194 H   0  0  0  0  0  0  0  0  0  0  0  0
  -13.4810  -18.4981  -21.3091 H   0  0  0  0  0  0  0  0  0  0  0  0
  1  2  2  0  0  0  0
  1  3  2  0  0  0  0
  1  5  1  0  0  0  0
  1  9  1  0  0  0  0
  4 19  2  0  0  0  0
  5 20  1  0  0  0  0
  6  7  1  0  0  0  0
  6 10  1  0  0  0  0
  6 19  1  0  0  0  0
  8  9  1  0  0  0  0
 10 22  2  0  0  0  0
 11 12  2  0  0  0  0
 11 16  1  0  0  0  0
 12 17  1  0  0  0  0
 13 14  1  0  0  0  0
 13 15  2  0  0  0  0
 14 20  2  0  0  0  0
 15 21  1  0  0  0  0
 16 23  2  0  0  0  0
 17 24  2  0  0  0  0
 18 20  1  0  0  0  0
 18 21  2  0  0  0  0
 19 23  1  0  0  0  0
 21 22  1  0  0  0  0
 22 24  1  0  0  0  0
 23 24  1  0  0  0  0
  5 25  1  0  0  0  0
  7 26  1  0  0  0  0
  7 27  1  0  0  0  0
  7 28  1  0  0  0  0
  8 29  1  0  0  0  0
  8 30  1  0  0  0  0
  8 31  1  0  0  0  0
  9 32  1  0  0  0  0
  9 33  1  0  0  0  0
 10 34  1  0  0  0  0
 11 35  1  0  0  0  0
 12 36  1  0  0  0  0
 13 37  1  0  0  0  0
 14 38  1  0  0  0  0
 15 39  1  0  0  0  0
 16 40  1  0  0  0  0
 17 41  1  0  0  0  0
 18 42  1  0  0  0  0
M  END
> <pdb_id>
7MRA

> <uniprot_id>
O60885

> <usmiles>
S(=O)(=O)(Nc1cc(ccc1)C=2c3c(cccc3)C(=O)N(C2)C)CC

$$$$
ZO9_A_1351
          07192422523D 1   1.00000     0.00000     0
            
 32 35  0  0  0  0            999 V2000
  -32.1650  -10.2230   -5.4680 O   0  0  0  0  0  0  0  0  0  0  0  0
  -32.6360   -9.7450   -2.0730 N   0  0  0  0  0  0  0  0  0  0  0  0
  -33.0130  -10.0920   -4.3560 N   0  0  0  0  0  0  0  0  0  0  0  0
  -30.8290  -10.1200   -5.1000 N   0  0  0  0  0  0  0  0  0  0  0  0
  -29.8060  -10.0390   -1.6130 N   0  0  0  0  0  0  0  0  0  0  0  0
  -28.3750   -9.5090   -3.2790 N   0  0  0  0  0  0  0  0  0  0  0  0
  -27.8910   -9.0660   -4.6010 C   0  0  0  0  0  0  0  0  0  0  0  0
  -26.7090   -9.9010    0.4730 C   0  0  0  0  0  0  0  0  0  0  0  0
  -25.8170   -9.5780   -0.5470 C   0  0  0  0  0  0  0  0  0  0  0  0
  -28.0590  -10.0830    0.2070 C   0  0  0  0  0  0  0  0  0  0  0  0
  -26.2570   -9.4310   -1.8600 C   0  0  0  0  0  0  0  0  0  0  0  0
  -26.1440  -10.8300   -5.3290 C   0  0  0  0  0  0  0  0  0  0  0  0
  -26.4990  -10.0610   -6.5580 C   0  0  0  0  0  0  0  0  0  0  0  0
  -32.2190   -9.9310   -3.3300 C   0  0  0  0  0  0  0  0  0  0  0  0
  -29.6780   -9.7630   -2.8990 C   0  0  0  0  0  0  0  0  0  0  0  0
  -28.5130   -9.9460   -1.1050 C   0  0  0  0  0  0  0  0  0  0  0  0
  -30.8470   -9.9160   -3.7950 C   0  0  0  0  0  0  0  0  0  0  0  0
  -27.6120   -9.6230   -2.1180 C   0  0  0  0  0  0  0  0  0  0  0  0
  -27.5120  -10.2450   -5.4720 C   0  0  0  0  0  0  0  0  0  0  0  0
  -31.9691   -9.6287   -1.3370 H   0  0  0  0  0  0  0  0  0  0  0  0
  -33.6147   -9.7222   -1.8691 H   0  0  0  0  0  0  0  0  0  0  0  0
  -27.0885   -8.4827   -4.4753 H   0  0  0  0  0  0  0  0  0  0  0  0
  -28.6140   -8.5450   -5.0547 H   0  0  0  0  0  0  0  0  0  0  0  0
  -26.3723  -10.0031    1.4091 H   0  0  0  0  0  0  0  0  0  0  0  0
  -24.8484   -9.4501   -0.3337 H   0  0  0  0  0  0  0  0  0  0  0  0
  -28.6961  -10.3087    0.9440 H   0  0  0  0  0  0  0  0  0  0  0  0
  -25.6203   -9.1951   -2.5942 H   0  0  0  0  0  0  0  0  0  0  0  0
  -25.5024  -10.4442   -4.6661 H   0  0  0  0  0  0  0  0  0  0  0  0
  -26.0164  -11.8206   -5.3788 H   0  0  0  0  0  0  0  0  0  0  0  0
  -26.6097  -10.5365   -7.4307 H   0  0  0  0  0  0  0  0  0  0  0  0
  -26.0956   -9.1601   -6.7180 H   0  0  0  0  0  0  0  0  0  0  0  0
  -28.2457  -10.8960   -5.6668 H   0  0  0  0  0  0  0  0  0  0  0  0
  1  3  1  0  0  0  0
  1  4  1  0  0  0  0
  2 14  1  0  0  0  0
  3 14  2  0  0  0  0
  4 17  2  0  0  0  0
  5 15  2  0  0  0  0
  5 16  1  0  0  0  0
  6  7  1  0  0  0  0
  6 15  1  0  0  0  0
  6 18  1  0  0  0  0
  7 19  1  0  0  0  0
  8  9  2  0  0  0  0
  8 10  1  0  0  0  0
  9 11  1  0  0  0  0
 10 16  2  0  0  0  0
 11 18  2  0  0  0  0
 12 13  1  0  0  0  0
 12 19  1  0  0  0  0
 13 19  1  0  0  0  0
 14 17  1  0  0  0  0
 15 17  1  0  0  0  0
 16 18  1  0  0  0  0
  2 20  1  0  0  0  0
  2 21  1  0  0  0  0
  7 22  1  0  0  0  0
  7 23  1  0  0  0  0
  8 24  1  0  0  0  0
  9 25  1  0  0  0  0
 10 26  1  0  0  0  0
 11 27  1  0  0  0  0
 12 28  1  0  0  0  0
 12 29  1  0  0  0  0
 13 30  1  0  0  0  0
 13 31  1  0  0  0  0
 19 32  1  0  0  0  0
M  END
> <pdb_id>
4C36

> <uniprot_id>
P00517

> <usmiles>
O1N=C(N)C(=N1)C2=Nc3c(N2CC4CC4)cccc3

$$$$
ZOL_A_901
          07192423193D 1   1.00000     0.00000     0
            
 26 26  0  0  0  0            999 V2000
   15.9879   34.0605   -9.6180 P   0  0  0  0  0  0  0  0  0  0  0  0
   15.1666   35.5509   -7.1465 P   0  0  0  0  0  0  0  0  0  0  0  0
   17.1845   33.8137   -8.8042 O   0  0  0  0  0  0  0  0  0  0  0  0
   15.8865   35.4105  -10.2990 O   0  0  0  0  0  0  0  0  0  0  0  0
   15.8821   32.8836  -10.5952 O   0  0  0  0  0  0  0  0  0  0  0  0
   14.2605   35.5408   -5.9423 O   0  0  0  0  0  0  0  0  0  0  0  0
   16.6381   35.4779   -6.6856 O   0  0  0  0  0  0  0  0  0  0  0  0
   14.8519   36.7657   -7.9099 O   0  0  0  0  0  0  0  0  0  0  0  0
   13.4739   34.3495   -8.7709 O   0  0  0  0  0  0  0  0  0  0  0  0
   13.5805   30.1054   -9.2794 N   0  0  0  0  0  0  0  0  0  0  0  0
   14.4307   31.6183   -7.9598 N   0  0  0  0  0  0  0  0  0  0  0  0
   13.5647   31.4071   -8.9634 C   0  0  0  0  0  0  0  0  0  0  0  0
   14.4270   29.4876   -8.4367 C   0  0  0  0  0  0  0  0  0  0  0  0
   14.9667   30.4420   -7.6150 C   0  0  0  0  0  0  0  0  0  0  0  0
   14.7464   32.8986   -7.3063 C   0  0  0  0  0  0  0  0  0  0  0  0
   14.7824   34.1465   -8.2459 C   0  0  0  0  0  0  0  0  0  0  0  0
   17.1361   32.8960   -8.4099 H   0  0  0  0  0  0  0  0  0  0  0  0
   15.0341   35.4580  -10.8197 H   0  0  0  0  0  0  0  0  0  0  0  0
   13.3076   35.5881   -6.2417 H   0  0  0  0  0  0  0  0  0  0  0  0
   17.2386   35.4847   -7.4852 H   0  0  0  0  0  0  0  0  0  0  0  0
   12.8165   34.3962   -8.0188 H   0  0  0  0  0  0  0  0  0  0  0  0
   13.0007   32.1063   -9.4028 H   0  0  0  0  0  0  0  0  0  0  0  0
   14.6266   28.5080   -8.4138 H   0  0  0  0  0  0  0  0  0  0  0  0
   15.6383   30.2877   -6.8903 H   0  0  0  0  0  0  0  0  0  0  0  0
   15.6451   32.8111   -6.8766 H   0  0  0  0  0  0  0  0  0  0  0  0
   14.0551   33.0633   -6.6027 H   0  0  0  0  0  0  0  0  0  0  0  0
  1  3  1  0  0  0  0
  1  4  1  0  0  0  0
  1  5  2  0  0  0  0
  1 16  1  0  0  0  0
  2  6  1  0  0  0  0
  2  7  1  0  0  0  0
  2  8  2  0  0  0  0
  2 16  1  0  0  0  0
  9 16  1  0  0  0  0
 10 12  2  0  0  0  0
 10 13  1  0  0  0  0
 11 12  1  0  0  0  0
 11 14  1  0  0  0  0
 11 15  1  0  0  0  0
 13 14  2  0  0  0  0
 15 16  1  0  0  0  0
  3 17  1  0  0  0  0
  4 18  1  0  0  0  0
  6 19  1  0  0  0  0
  7 20  1  0  0  0  0
  9 21  1  0  0  0  0
 12 22  1  0  0  0  0
 13 23  1  0  0  0  0
 14 24  1  0  0  0  0
 15 25  1  0  0  0  0
 15 26  1  0  0  0  0
M  END
> <pdb_id>
1ZW5

> <uniprot_id>
P14324

> <usmiles>
P(=O)(O)(O)C(P(=O)(O)O)(O)CN1C=NC=C1

$$$$
ZR1_A_701
          07212404143D 1   1.00000     0.00000     0
            
 55 59  0  0  0  0            999 V2000
   25.1833  -40.2803   -6.0325 F   0  0  0  0  0  0  0  0  0  0  0  0
   24.0014  -39.1755   -4.6020 F   0  0  0  0  0  0  0  0  0  0  0  0
   24.0419  -41.2083   -8.1229 F   0  0  0  0  0  0  0  0  0  0  0  0
   19.7559  -39.4579   -2.5984 O   0  0  0  0  0  0  0  0  0  0  0  0
   17.2242  -39.4384   -1.6411 O   0  0  0  0  0  0  0  0  0  0  0  0
   19.1967  -39.9385   -5.9788 O   0  0  0  0  0  0  0  0  0  0  0  0
   19.2867  -42.1398   -9.5332 N   0  0  0  0  0  0  0  0  0  0  0  0
   15.4960  -35.6807   -2.7452 N   0  0  0  0  0  0  0  0  0  0  0  0
   13.2835  -34.7398   -2.5743 N   0  0  0  0  0  0  0  0  0  0  0  0
   15.5651  -37.8452   -3.8023 N   0  0  0  0  0  0  0  0  0  0  0  0
   11.2608  -35.7285   -3.4671 C   0  0  0  0  0  0  0  0  0  0  0  0
   14.6091  -34.7507   -2.3850 C   0  0  0  0  0  0  0  0  0  0  0  0
   20.5108  -42.9587   -9.7430 C   0  0  0  0  0  0  0  0  0  0  0  0
   19.1664  -41.6144   -8.0921 C   0  0  0  0  0  0  0  0  0  0  0  0
   14.6184  -38.6791   -4.3982 C   0  0  0  0  0  0  0  0  0  0  0  0
   21.7585  -42.1414   -9.5011 C   0  0  0  0  0  0  0  0  0  0  0  0
   13.3844  -38.1196   -4.3004 C   0  0  0  0  0  0  0  0  0  0  0  0
   17.6391  -38.2892   -5.1029 C   0  0  0  0  0  0  0  0  0  0  0  0
   21.6209  -39.6533   -5.9574 C   0  0  0  0  0  0  0  0  0  0  0  0
   24.1563  -39.3924   -5.9355 C   0  0  0  0  0  0  0  0  0  0  0  0
   22.8426  -40.8493   -7.6249 C   0  0  0  0  0  0  0  0  0  0  0  0
   18.7470  -39.8280   -3.5300 C   0  0  1  0  0  0  0  0  0  0  0  0
   17.3281  -39.4561   -3.0630 C   0  0  2  0  0  0  0  0  0  0  0  0
   14.9189  -36.7232   -3.3584 C   0  0  0  0  0  0  0  0  0  0  0  0
   18.9346  -39.0628   -4.8493 C   0  0  1  0  0  0  0  0  0  0  0  0
   20.4584  -40.1801   -6.4871 C   0  0  0  0  0  0  0  0  0  0  0  0
   12.7388  -35.7899   -3.2121 C   0  0  0  0  0  0  0  0  0  0  0  0
   17.0108  -38.1166   -3.7232 C   0  0  2  0  0  0  0  0  0  0  0  0
   22.8587  -39.9858   -6.5056 C   0  0  0  0  0  0  0  0  0  0  0  0
   21.6976  -41.3516   -8.2053 C   0  0  0  0  0  0  0  0  0  0  0  0
   20.4672  -41.0374   -7.6021 C   0  0  0  0  0  0  0  0  0  0  0  0
   13.5515  -36.8519   -3.6423 C   0  0  0  0  0  0  0  0  0  0  0  0
   20.6519  -39.7234   -2.9544 H   0  0  0  0  0  0  0  0  0  0  0  0
   16.2911  -39.1936   -1.3781 H   0  0  0  0  0  0  0  0  0  0  0  0
   18.4858  -42.7030   -9.7367 H   0  0  0  0  0  0  0  0  0  0  0  0
   10.9700  -36.5581   -3.9440 H   0  0  0  0  0  0  0  0  0  0  0  0
   10.7749  -35.6571   -2.5960 H   0  0  0  0  0  0  0  0  0  0  0  0
   11.0528  -34.9295   -4.0313 H   0  0  0  0  0  0  0  0  0  0  0  0
   14.9850  -33.9551   -1.9099 H   0  0  0  0  0  0  0  0  0  0  0  0
   20.5197  -43.2981  -10.6835 H   0  0  0  0  0  0  0  0  0  0  0  0
   20.4990  -43.7323   -9.1095 H   0  0  0  0  0  0  0  0  0  0  0  0
   18.9000  -42.3692   -7.4927 H   0  0  0  0  0  0  0  0  0  0  0  0
   18.4646  -40.9025   -8.0637 H   0  0  0  0  0  0  0  0  0  0  0  0
   14.8184  -39.5574   -4.8324 H   0  0  0  0  0  0  0  0  0  0  0  0
   21.8746  -41.5017  -10.2608 H   0  0  0  0  0  0  0  0  0  0  0  0
   22.5437  -42.7595   -9.4627 H   0  0  0  0  0  0  0  0  0  0  0  0
   12.5244  -38.5138   -4.6241 H   0  0  0  0  0  0  0  0  0  0  0  0
   17.0313  -38.8078   -5.7042 H   0  0  0  0  0  0  0  0  0  0  0  0
   17.8353  -37.3992   -5.5144 H   0  0  0  0  0  0  0  0  0  0  0  0
   21.5740  -39.0303   -5.1766 H   0  0  0  0  0  0  0  0  0  0  0  0
   24.3861  -38.5394   -6.4042 H   0  0  0  0  0  0  0  0  0  0  0  0
   18.7956  -40.8116   -3.7034 H   0  0  0  0  0  0  0  0  0  0  0  0
   16.6906  -40.1405   -3.4168 H   0  0  0  0  0  0  0  0  0  0  0  0
   19.6910  -38.4161   -4.7508 H   0  0  0  0  0  0  0  0  0  0  0  0
   17.4695  -37.3771   -3.2304 H   0  0  0  0  0  0  0  0  0  0  0  0
  1 20  1  0  0  0  0
  2 20  1  0  0  0  0
  3 21  1  0  0  0  0
  4 22  1  0  0  0  0
  5 23  1  0  0  0  0
  6 25  1  0  0  0  0
  6 26  1  0  0  0  0
  7 13  1  0  0  0  0
  7 14  1  0  0  0  0
  8 12  2  0  0  0  0
  8 24  1  0  0  0  0
  9 12  1  0  0  0  0
  9 27  2  0  0  0  0
 10 15  1  0  0  0  0
 10 24  1  0  0  0  0
 10 28  1  0  0  0  0
 11 27  1  0  0  0  0
 13 16  1  0  0  0  0
 14 31  1  0  0  0  0
 15 17  2  0  0  0  0
 16 30  1  0  0  0  0
 17 32  1  0  0  0  0
 18 25  1  0  0  0  0
 18 28  1  0  0  0  0
 19 26  2  0  0  0  0
 19 29  1  0  0  0  0
 20 29  1  0  0  0  0
 21 29  2  0  0  0  0
 21 30  1  0  0  0  0
 22 23  1  0  0  0  0
 22 25  1  0  0  0  0
 23 28  1  0  0  0  0
 24 32  2  0  0  0  0
 26 31  1  0  0  0  0
 27 32  1  0  0  0  0
 30 31  2  0  0  0  0
  4 33  1  0  0  0  0
  5 34  1  0  0  0  0
  7 35  1  0  0  0  0
 11 36  1  0  0  0  0
 11 37  1  0  0  0  0
 11 38  1  0  0  0  0
 12 39  1  0  0  0  0
 13 40  1  0  0  0  0
 13 41  1  0  0  0  0
 14 42  1  0  0  0  0
 14 43  1  0  0  0  0
 15 44  1  0  0  0  0
 16 45  1  0  0  0  0
 16 46  1  0  0  0  0
 17 47  1  0  0  0  0
 18 48  1  0  0  0  0
 18 49  1  0  0  0  0
 19 50  1  0  0  0  0
 20 51  1  0  0  0  0
 22 52  1  0  0  0  0
 23 53  1  0  0  0  0
 25 54  1  0  0  0  0
 28 55  1  0  0  0  0
M  END
> <pdb_id>
7MX7

> <uniprot_id>
O14744

> <usmiles>
Fc1c2c(c(O[C@@H]3[C@@H](O)[C@@H](O)[C@H](N4c5ncnc(c5C=C4)C)C3)cc1C(F)F)CNCC2

$$$$
ZRK_A_1400
          07202403123D 1   1.00000     0.00000     0
            
 24 26  0  0  0  0            999 V2000
   36.2654   11.7675   31.7894 O   0  0  0  0  0  0  0  0  0  0  0  0
   39.3767    8.6095   32.8116 O   0  0  0  0  0  0  0  0  0  0  0  0
   41.2863    8.4801   37.4268 N   0  0  0  0  0  0  0  0  0  0  0  0
   36.8643   10.2460   30.1271 N   0  0  0  0  0  0  0  0  0  0  0  0
   41.4051    7.7491   36.3113 C   0  0  0  0  0  0  0  0  0  0  0  0
   40.4481    9.5199   37.3491 C   0  0  0  0  0  0  0  0  0  0  0  0
   37.6151    9.1682   29.7064 C   0  0  0  0  0  0  0  0  0  0  0  0
   38.4893    8.5369   30.5029 C   0  0  0  0  0  0  0  0  0  0  0  0
   40.7341    8.0081   35.1351 C   0  0  0  0  0  0  0  0  0  0  0  0
   39.7295    9.8610   36.2229 C   0  0  0  0  0  0  0  0  0  0  0  0
   38.2002   10.3655   33.5987 C   0  0  0  0  0  0  0  0  0  0  0  0
   36.9173   10.8068   31.3979 C   0  0  0  0  0  0  0  0  0  0  0  0
   38.5782    9.0587   31.7975 C   0  0  0  0  0  0  0  0  0  0  0  0
   39.1428    9.4025   33.8966 C   0  0  0  0  0  0  0  0  0  0  0  0
   39.8779    9.0885   35.0911 C   0  0  0  0  0  0  0  0  0  0  0  0
   37.8477   10.1302   32.2489 C   0  0  0  0  0  0  0  0  0  0  0  0
   36.2337   10.6552   29.4676 H   0  0  0  0  0  0  0  0  0  0  0  0
   42.0220    6.9624   36.3327 H   0  0  0  0  0  0  0  0  0  0  0  0
   40.3350   10.0887   38.1638 H   0  0  0  0  0  0  0  0  0  0  0  0
   37.5025    8.8438   28.7672 H   0  0  0  0  0  0  0  0  0  0  0  0
   39.0338    7.7562   30.1962 H   0  0  0  0  0  0  0  0  0  0  0  0
   40.8650    7.4261   34.3326 H   0  0  0  0  0  0  0  0  0  0  0  0
   39.1152   10.6501   36.2271 H   0  0  0  0  0  0  0  0  0  0  0  0
   37.8435   11.0758   34.2056 H   0  0  0  0  0  0  0  0  0  0  0  0
  1 12  2  0  0  0  0
  2 13  1  0  0  0  0
  2 14  1  0  0  0  0
  3  5  2  0  0  0  0
  3  6  1  0  0  0  0
  4  7  1  0  0  0  0
  4 12  1  0  0  0  0
  5  9  1  0  0  0  0
  6 10  2  0  0  0  0
  7  8  2  0  0  0  0
  8 13  1  0  0  0  0
  9 15  2  0  0  0  0
 10 15  1  0  0  0  0
 11 14  2  0  0  0  0
 11 16  1  0  0  0  0
 12 16  1  0  0  0  0
 13 16  2  0  0  0  0
 14 15  1  0  0  0  0
  4 17  1  0  0  0  0
  5 18  1  0  0  0  0
  6 19  1  0  0  0  0
  7 20  1  0  0  0  0
  8 21  1  0  0  0  0
  9 22  1  0  0  0  0
 10 23  1  0  0  0  0
 11 24  1  0  0  0  0
M  END
> <pdb_id>
3ZRK

> <uniprot_id>
P49841

> <usmiles>
O=C1NC=CC=2OC(c3ccncc3)=CC12

$$$$
ZRL_A_1390
          07202403123D 1   1.00000     0.00000     0
            
 24 26  0  0  0  0            999 V2000
   39.4515    7.2122   29.1384 Br  0  0  0  0  0  0  0  0  0  0  0  0
   39.7681    8.0963   32.2447 S   0  0  0  0  0  0  0  0  0  0  0  0
   36.3324   11.5096   31.8625 O   0  0  0  0  0  0  0  0  0  0  0  0
   41.1445    8.3988   37.3960 N   0  0  0  0  0  0  0  0  0  0  0  0
   36.7846   10.2817   29.9419 N   0  0  0  0  0  0  0  0  0  0  0  0
   40.3010    9.4129   37.1642 C   0  0  0  0  0  0  0  0  0  0  0  0
   41.3817    7.5971   36.3470 C   0  0  0  0  0  0  0  0  0  0  0  0
   37.4921    9.2929   29.2888 C   0  0  0  0  0  0  0  0  0  0  0  0
   39.6933    9.6646   35.9498 C   0  0  0  0  0  0  0  0  0  0  0  0
   40.8264    7.7576   35.0954 C   0  0  0  0  0  0  0  0  0  0  0  0
   38.3547    9.9484   33.2894 C   0  0  0  0  0  0  0  0  0  0  0  0
   38.4243    8.5679   29.9087 C   0  0  0  0  0  0  0  0  0  0  0  0
   39.3416    9.0431   33.6161 C   0  0  0  0  0  0  0  0  0  0  0  0
   36.9457   10.6337   31.2737 C   0  0  0  0  0  0  0  0  0  0  0  0
   38.6188    8.8876   31.2478 C   0  0  0  0  0  0  0  0  0  0  0  0
   39.9674    8.8209   34.8923 C   0  0  0  0  0  0  0  0  0  0  0  0
   37.9429    9.8610   31.9383 C   0  0  0  0  0  0  0  0  0  0  0  0
   36.1013   10.7845   29.4125 H   0  0  0  0  0  0  0  0  0  0  0  0
   40.0970   10.0310   37.9234 H   0  0  0  0  0  0  0  0  0  0  0  0
   42.0060    6.8278   36.4826 H   0  0  0  0  0  0  0  0  0  0  0  0
   37.3005    9.1150   28.3236 H   0  0  0  0  0  0  0  0  0  0  0  0
   39.0701   10.4388   35.8393 H   0  0  0  0  0  0  0  0  0  0  0  0
   41.0397    7.1214   34.3539 H   0  0  0  0  0  0  0  0  0  0  0  0
   37.9687   10.6010   33.9414 H   0  0  0  0  0  0  0  0  0  0  0  0
  1 12  1  0  0  0  0
  2 13  1  0  0  0  0
  2 15  1  0  0  0  0
  3 14  2  0  0  0  0
  4  6  2  0  0  0  0
  4  7  1  0  0  0  0
  5  8  1  0  0  0  0
  5 14  1  0  0  0  0
  6  9  1  0  0  0  0
  7 10  2  0  0  0  0
  8 12  2  0  0  0  0
  9 16  2  0  0  0  0
 10 16  1  0  0  0  0
 11 13  2  0  0  0  0
 11 17  1  0  0  0  0
 12 15  1  0  0  0  0
 13 16  1  0  0  0  0
 14 17  1  0  0  0  0
 15 17  2  0  0  0  0
  5 18  1  0  0  0  0
  6 19  1  0  0  0  0
  7 20  1  0  0  0  0
  8 21  1  0  0  0  0
  9 22  1  0  0  0  0
 10 23  1  0  0  0  0
 11 24  1  0  0  0  0
M  END
> <pdb_id>
3ZRL

> <uniprot_id>
P49841

> <usmiles>
BrC=1C=2SC(c3ccncc3)=CC2C(=O)NC1

$$$$
ZUF_A_301
          07192423263D 1   1.00000     0.00000     0
            
 28 30  0  0  0  0            999 V2000
   30.8889  -17.5711   -8.3319 Cl  0  0  0  0  0  0  0  0  0  0  0  0
   27.7419  -11.7445   -6.9947 S   0  0  0  0  0  0  0  0  0  0  0  0
   26.8722   -8.9017   -3.2121 N   0  0  0  0  0  0  0  0  0  0  0  0
   28.7960  -14.4801   -7.0416 N   0  0  0  0  0  0  0  0  0  0  0  0
   28.1756  -13.6132   -4.8773 N   0  0  0  0  0  0  0  0  0  0  0  0
   27.6605  -11.2208   -4.5791 N   0  0  0  0  0  0  0  0  0  0  0  0
   27.3858  -10.1071   -6.5689 C   0  0  0  0  0  0  0  0  0  0  0  0
   26.5777   -7.7722   -2.5799 C   0  0  0  0  0  0  0  0  0  0  0  0
   26.5188   -6.5543   -3.2459 C   0  0  0  0  0  0  0  0  0  0  0  0
   26.7613   -6.5188   -4.6092 C   0  0  0  0  0  0  0  0  0  0  0  0
   29.3985  -15.3488   -7.8241 C   0  0  0  0  0  0  0  0  0  0  0  0
   27.0593   -7.7202   -5.2284 C   0  0  0  0  0  0  0  0  0  0  0  0
   30.1487  -16.5826   -5.9061 C   0  0  0  0  0  0  0  0  0  0  0  0
   29.5086  -15.6362   -5.1348 C   0  0  0  0  0  0  0  0  0  0  0  0
   27.8813  -12.2736   -5.3477 C   0  0  0  0  0  0  0  0  0  0  0  0
   30.0831  -16.4115   -7.2723 C   0  0  0  0  0  0  0  0  0  0  0  0
   28.8344  -14.5854   -5.7255 C   0  0  0  0  0  0  0  0  0  0  0  0
   27.4057  -10.0786   -5.1877 C   0  0  0  0  0  0  0  0  0  0  0  0
   27.1295   -8.9031   -4.5083 C   0  0  0  0  0  0  0  0  0  0  0  0
   27.9180  -13.8719   -3.9463 H   0  0  0  0  0  0  0  0  0  0  0  0
   27.2044   -9.3442   -7.1894 H   0  0  0  0  0  0  0  0  0  0  0  0
   26.3932   -7.7987   -1.5974 H   0  0  0  0  0  0  0  0  0  0  0  0
   26.3041   -5.7144   -2.7476 H   0  0  0  0  0  0  0  0  0  0  0  0
   26.7227   -5.6622   -5.1237 H   0  0  0  0  0  0  0  0  0  0  0  0
   29.3604  -15.2390   -8.8173 H   0  0  0  0  0  0  0  0  0  0  0  0
   27.2271   -7.7355   -6.2141 H   0  0  0  0  0  0  0  0  0  0  0  0
   30.6355  -17.3537   -5.4957 H   0  0  0  0  0  0  0  0  0  0  0  0
   29.5326  -15.7112   -4.1379 H   0  0  0  0  0  0  0  0  0  0  0  0
  1 16  1  0  0  0  0
  2  7  1  0  0  0  0
  2 15  1  0  0  0  0
  3  8  2  0  0  0  0
  3 19  1  0  0  0  0
  4 11  1  0  0  0  0
  4 17  2  0  0  0  0
  5 15  1  0  0  0  0
  5 17  1  0  0  0  0
  6 15  2  0  0  0  0
  6 18  1  0  0  0  0
  7 18  2  0  0  0  0
  8  9  1  0  0  0  0
  9 10  2  0  0  0  0
 10 12  1  0  0  0  0
 11 16  2  0  0  0  0
 12 19  2  0  0  0  0
 13 14  2  0  0  0  0
 13 16  1  0  0  0  0
 14 17  1  0  0  0  0
 18 19  1  0  0  0  0
  5 20  1  0  0  0  0
  7 21  1  0  0  0  0
  8 22  1  0  0  0  0
  9 23  1  0  0  0  0
 10 24  1  0  0  0  0
 11 25  1  0  0  0  0
 12 26  1  0  0  0  0
 13 27  1  0  0  0  0
 14 28  1  0  0  0  0
M  END
> <pdb_id>
5MYN

> <uniprot_id>
P9WMC1

> <usmiles>
Clc1cnc(NC=2SC=C(N2)c3ncccc3)cc1

$$$$
ZWZ_B_902
          07202400433D 1   1.00000     0.00000     0
            
 28 28  0  0  0  0            999 V2000
   -2.0389   27.1331   22.0899 O   0  0  0  0  0  0  0  0  0  0  0  0
    0.5671   26.8962   22.7750 O   0  0  0  0  0  0  0  0  0  0  0  0
   -3.2574   26.0557   24.4199 O   0  0  0  0  0  0  0  0  0  0  0  0
   -1.9750   26.0853   28.0606 N   0  0  0  0  0  0  0  0  0  0  0  0
    0.0320   27.1773   25.7166 N   0  0  0  0  0  0  0  0  0  0  0  0
    1.7998   28.6056   24.8449 C   0  0  0  0  0  0  0  0  0  0  0  0
   -1.5450   25.6305   26.7336 C   0  0  0  0  0  0  0  0  0  0  0  0
   -1.6540   27.5698   23.3939 C   0  0  2  0  0  0  0  0  0  0  0  0
   -0.1759   27.9662   23.3706 C   0  0  1  0  0  0  0  0  0  0  0  0
   -1.8772   26.4315   24.3916 C   0  0  1  0  0  0  0  0  0  0  0  0
    0.3011   28.2953   24.7907 C   0  0  1  0  0  0  0  0  0  0  0  0
   -1.3900   26.8236   25.7891 C   0  0  2  0  0  0  0  0  0  0  0  0
   -3.0042   26.8722   22.0972 H   0  0  0  0  0  0  0  0  0  0  0  0
    1.5374   27.1372   22.7509 H   0  0  0  0  0  0  0  0  0  0  0  0
   -3.3869   25.3119   25.0755 H   0  0  0  0  0  0  0  0  0  0  0  0
   -2.0726   25.2968   28.6678 H   0  0  0  0  0  0  0  0  0  0  0  0
   -1.2921   26.7123   28.4355 H   0  0  0  0  0  0  0  0  0  0  0  0
    0.3425   27.4386   26.6306 H   0  0  0  0  0  0  0  0  0  0  0  0
    2.0063   29.3617   24.2240 H   0  0  0  0  0  0  0  0  0  0  0  0
    2.0538   28.8613   25.7777 H   0  0  0  0  0  0  0  0  0  0  0  0
    2.3180   27.7962   24.5685 H   0  0  0  0  0  0  0  0  0  0  0  0
   -2.2289   25.0024   26.3624 H   0  0  0  0  0  0  0  0  0  0  0  0
   -0.6676   25.1578   26.8150 H   0  0  0  0  0  0  0  0  0  0  0  0
   -2.2075   28.3594   23.6587 H   0  0  0  0  0  0  0  0  0  0  0  0
   -0.0728   28.7822   22.8018 H   0  0  0  0  0  0  0  0  0  0  0  0
   -1.3455   25.6414   24.0867 H   0  0  0  0  0  0  0  0  0  0  0  0
   -0.1991   29.0989   25.1130 H   0  0  0  0  0  0  0  0  0  0  0  0
   -1.9188   27.6008   26.1301 H   0  0  0  0  0  0  0  0  0  0  0  0
  1  8  1  0  0  0  0
  2  9  1  0  0  0  0
  3 10  1  0  0  0  0
  4  7  1  0  0  0  0
  5 11  1  0  0  0  0
  5 12  1  0  0  0  0
  6 11  1  0  0  0  0
  7 12  1  0  0  0  0
  8  9  1  0  0  0  0
  8 10  1  0  0  0  0
  9 11  1  0  0  0  0
 10 12  1  0  0  0  0
  1 13  1  0  0  0  0
  2 14  1  0  0  0  0
  3 15  1  0  0  0  0
  4 16  1  0  0  0  0
  4 17  1  0  0  0  0
  5 18  1  0  0  0  0
  6 19  1  0  0  0  0
  6 20  1  0  0  0  0
  6 21  1  0  0  0  0
  7 22  1  0  0  0  0
  7 23  1  0  0  0  0
  8 24  1  0  0  0  0
  9 25  1  0  0  0  0
 10 26  1  0  0  0  0
 11 27  1  0  0  0  0
 12 28  1  0  0  0  0
M  END
> <pdb_id>
2ZWZ

> <uniprot_id>
Q9WYE2

> <usmiles>
O[C@@H]1[C@H](N[C@H]([C@@H](O)[C@H]1O)C)CN

$$$$
ZX6_A_901
          07202400433D 1   1.00000     0.00000     0
            
 47 49  0  0  0  0            999 V2000
   -3.6080   27.3560   28.3690 O   0  0  0  0  0  0  0  0  0  0  0  0
    0.5660   27.0820   22.7690 O   0  0  0  0  0  0  0  0  0  0  0  0
   -3.1190   25.9680   24.3230 O   0  0  0  0  0  0  0  0  0  0  0  0
   -2.1520   27.2080   22.1240 O   0  0  0  0  0  0  0  0  0  0  0  0
   -1.5730   26.4080   28.2680 N   0  0  0  0  0  0  0  0  0  0  0  0
    0.3160   26.0310   32.4850 N   0  0  0  0  0  0  0  0  0  0  0  0
   -0.0090   27.3760   25.7340 N   0  0  0  0  0  0  0  0  0  0  0  0
    1.7620   28.7420   24.7310 C   0  0  0  0  0  0  0  0  0  0  0  0
   -1.6930   25.9670   26.8670 C   0  0  0  0  0  0  0  0  0  0  0  0
   -0.4270   27.0170   31.9850 C   0  0  0  0  0  0  0  0  0  0  0  0
   -0.2480   22.5260   31.4560 C   0  0  0  0  0  0  0  0  0  0  0  0
   -1.3070   22.7970   30.5960 C   0  0  0  0  0  0  0  0  0  0  0  0
    0.3560   23.5660   32.1570 C   0  0  0  0  0  0  0  0  0  0  0  0
   -1.7660   24.1020   30.4360 C   0  0  0  0  0  0  0  0  0  0  0  0
   -2.3730   27.3610   30.4010 C   0  0  0  0  0  0  0  0  0  0  0  0
   -2.5730   26.9930   28.9260 C   0  0  0  0  0  0  0  0  0  0  0  0
    0.2610   28.4520   24.7620 C   0  0  1  0  0  0  0  0  0  0  0  0
   -1.4420   27.0340   25.7960 C   0  0  2  0  0  0  0  0  0  0  0  0
   -0.1000   24.8690   31.9900 C   0  0  0  0  0  0  0  0  0  0  0  0
   -0.2350   28.1170   23.3480 C   0  0  2  0  0  0  0  0  0  0  0  0
   -1.7980   26.5060   24.4000 C   0  0  2  0  0  0  0  0  0  0  0  0
   -1.6950   27.6580   23.4010 C   0  0  2  0  0  0  0  0  0  0  0  0
   -1.3400   26.5200   31.1540 C   0  0  0  0  0  0  0  0  0  0  0  0
   -1.1610   25.1410   31.1330 C   0  0  0  0  0  0  0  0  0  0  0  0
    0.2306   26.8758   21.8498 H   0  0  0  0  0  0  0  0  0  0  0  0
   -3.2923   25.6415   23.3938 H   0  0  0  0  0  0  0  0  0  0  0  0
   -3.1060   26.9167   22.1950 H   0  0  0  0  0  0  0  0  0  0  0  0
   -0.7058   26.2623   28.7442 H   0  0  0  0  0  0  0  0  0  0  0  0
    1.0696   26.1466   33.1321 H   0  0  0  0  0  0  0  0  0  0  0  0
    0.2907   27.6763   26.6395 H   0  0  0  0  0  0  0  0  0  0  0  0
    1.9470   29.4714   24.0724 H   0  0  0  0  0  0  0  0  0  0  0  0
    2.0649   29.0288   25.6398 H   0  0  0  0  0  0  0  0  0  0  0  0
    2.2557   27.9155   24.4605 H   0  0  0  0  0  0  0  0  0  0  0  0
   -2.6203   25.6162   26.7363 H   0  0  0  0  0  0  0  0  0  0  0  0
   -1.0339   25.2290   26.7223 H   0  0  0  0  0  0  0  0  0  0  0  0
   -0.3153   27.9868   32.2019 H   0  0  0  0  0  0  0  0  0  0  0  0
    0.0783   21.5877   31.5703 H   0  0  0  0  0  0  0  0  0  0  0  0
   -1.7408   22.0513   30.0903 H   0  0  0  0  0  0  0  0  0  0  0  0
    1.1158   23.3766   32.7790 H   0  0  0  0  0  0  0  0  0  0  0  0
   -2.5305   24.2914   29.8199 H   0  0  0  0  0  0  0  0  0  0  0  0
   -3.2522   27.2587   30.8663 H   0  0  0  0  0  0  0  0  0  0  0  0
   -2.0826   28.3169   30.4437 H   0  0  0  0  0  0  0  0  0  0  0  0
   -0.2105   29.2779   25.0711 H   0  0  0  0  0  0  0  0  0  0  0  0
   -1.9794   27.8528   25.9980 H   0  0  0  0  0  0  0  0  0  0  0  0
   -0.1713   28.9360   22.7777 H   0  0  0  0  0  0  0  0  0  0  0  0
   -1.1425   25.7952   24.1447 H   0  0  0  0  0  0  0  0  0  0  0  0
   -2.2693   28.4162   23.7097 H   0  0  0  0  0  0  0  0  0  0  0  0
  1 16  2  0  0  0  0
  2 20  1  0  0  0  0
  3 21  1  0  0  0  0
  4 22  1  0  0  0  0
  5  9  1  0  0  0  0
  5 16  1  0  0  0  0
  6 10  1  0  0  0  0
  6 19  1  0  0  0  0
  7 17  1  0  0  0  0
  7 18  1  0  0  0  0
  8 17  1  0  0  0  0
  9 18  1  0  0  0  0
 10 23  2  0  0  0  0
 11 12  2  0  0  0  0
 11 13  1  0  0  0  0
 12 14  1  0  0  0  0
 13 19  2  0  0  0  0
 14 24  2  0  0  0  0
 15 16  1  0  0  0  0
 15 23  1  0  0  0  0
 17 20  1  0  0  0  0
 18 21  1  0  0  0  0
 19 24  1  0  0  0  0
 20 22  1  0  0  0  0
 21 22  1  0  0  0  0
 23 24  1  0  0  0  0
  2 25  1  0  0  0  0
  3 26  1  0  0  0  0
  4 27  1  0  0  0  0
  5 28  1  0  0  0  0
  6 29  1  0  0  0  0
  7 30  1  0  0  0  0
  8 31  1  0  0  0  0
  8 32  1  0  0  0  0
  8 33  1  0  0  0  0
  9 34  1  0  0  0  0
  9 35  1  0  0  0  0
 10 36  1  0  0  0  0
 11 37  1  0  0  0  0
 12 38  1  0  0  0  0
 13 39  1  0  0  0  0
 14 40  1  0  0  0  0
 15 41  1  0  0  0  0
 15 42  1  0  0  0  0
 17 43  1  0  0  0  0
 18 44  1  0  0  0  0
 20 45  1  0  0  0  0
 21 46  1  0  0  0  0
 22 47  1  0  0  0  0
M  END
> <pdb_id>
2ZX6

> <uniprot_id>
Q9WYE2

> <usmiles>
O=C(NC[C@H]1N[C@H]([C@@H](O)[C@@H](O)[C@@H]1O)C)CC=2c3c(NC2)cccc3

$$$$
ZX8_B_902
          07202400433D 1   1.00000     0.00000     0
            
 43 45  0  0  0  0            999 V2000
   -1.0925   23.7997   28.9098 O   0  0  0  0  0  0  0  0  0  0  0  0
   -2.2406   27.2069   22.1658 O   0  0  0  0  0  0  0  0  0  0  0  0
    0.3502   26.9499   22.8499 O   0  0  0  0  0  0  0  0  0  0  0  0
   -3.3472   25.8052   24.3306 O   0  0  0  0  0  0  0  0  0  0  0  0
    0.0117   25.0029   31.3285 O   0  0  0  0  0  0  0  0  0  0  0  0
   -1.4748   25.8851   28.1156 N   0  0  0  0  0  0  0  0  0  0  0  0
   -0.1573   27.0179   25.7838 N   0  0  0  0  0  0  0  0  0  0  0  0
    1.5685   28.5486   24.9850 C   0  0  0  0  0  0  0  0  0  0  0  0
   -1.8144   25.4760   26.7522 C   0  0  0  0  0  0  0  0  0  0  0  0
    1.4199   27.0941   34.0740 C   0  0  0  0  0  0  0  0  0  0  0  0
    0.7587   28.2728   33.7201 C   0  0  0  0  0  0  0  0  0  0  0  0
    1.2266   25.9397   33.3319 C   0  0  0  0  0  0  0  0  0  0  0  0
   -0.0898   28.2893   32.6252 C   0  0  0  0  0  0  0  0  0  0  0  0
   -1.0102   26.8905   30.7797 C   0  0  0  0  0  0  0  0  0  0  0  0
   -1.1606   25.0024   29.0774 C   0  0  0  0  0  0  0  0  0  0  0  0
   -1.8640   27.5423   23.5000 C   0  0  2  0  0  0  0  0  0  0  0  0
   -0.3983   27.9787   23.5060 C   0  0  1  0  0  0  0  0  0  0  0  0
   -2.0015   26.2932   24.3709 C   0  0  1  0  0  0  0  0  0  0  0  0
   -0.8229   25.6199   30.4400 C   0  0  0  0  0  0  0  0  0  0  0  0
    0.3666   25.9606   32.2330 C   0  0  0  0  0  0  0  0  0  0  0  0
    0.0790   28.2049   24.9468 C   0  0  1  0  0  0  0  0  0  0  0  0
   -1.5832   26.6521   25.7984 C   0  0  2  0  0  0  0  0  0  0  0  0
   -0.2894   27.1302   31.8732 C   0  0  0  0  0  0  0  0  0  0  0  0
   -3.1985   26.9201   22.1520 H   0  0  0  0  0  0  0  0  0  0  0  0
    1.3182   27.2005   22.8341 H   0  0  0  0  0  0  0  0  0  0  0  0
   -3.4231   24.9892   24.9036 H   0  0  0  0  0  0  0  0  0  0  0  0
   -1.4769   26.8597   28.3396 H   0  0  0  0  0  0  0  0  0  0  0  0
    0.1388   27.2138   26.7186 H   0  0  0  0  0  0  0  0  0  0  0  0
    1.7391   29.3548   24.4185 H   0  0  0  0  0  0  0  0  0  0  0  0
    1.8425   28.7395   25.9276 H   0  0  0  0  0  0  0  0  0  0  0  0
    2.0979   27.7763   24.6338 H   0  0  0  0  0  0  0  0  0  0  0  0
   -2.7750   25.2002   26.7156 H   0  0  0  0  0  0  0  0  0  0  0  0
   -1.2362   24.7068   26.4804 H   0  0  0  0  0  0  0  0  0  0  0  0
    2.0334   27.0834   34.8637 H   0  0  0  0  0  0  0  0  0  0  0  0
    0.8979   29.1047   34.2573 H   0  0  0  0  0  0  0  0  0  0  0  0
    1.7010   25.0959   33.5827 H   0  0  0  0  0  0  0  0  0  0  0  0
   -0.5610   29.1344   32.3726 H   0  0  0  0  0  0  0  0  0  0  0  0
   -1.5894   27.5494   30.2997 H   0  0  0  0  0  0  0  0  0  0  0  0
   -2.4460   28.2759   23.8509 H   0  0  0  0  0  0  0  0  0  0  0  0
   -0.3068   28.8312   22.9914 H   0  0  0  0  0  0  0  0  0  0  0  0
   -1.3886   25.5846   24.0214 H   0  0  0  0  0  0  0  0  0  0  0  0
   -0.4331   28.9720   25.3333 H   0  0  0  0  0  0  0  0  0  0  0  0
   -2.1195   27.4367   26.1096 H   0  0  0  0  0  0  0  0  0  0  0  0
  1 15  2  0  0  0  0
  2 16  1  0  0  0  0
  3 17  1  0  0  0  0
  4 18  1  0  0  0  0
  5 19  1  0  0  0  0
  5 20  1  0  0  0  0
  6  9  1  0  0  0  0
  6 15  1  0  0  0  0
  7 21  1  0  0  0  0
  7 22  1  0  0  0  0
  8 21  1  0  0  0  0
  9 22  1  0  0  0  0
 10 11  2  0  0  0  0
 10 12  1  0  0  0  0
 11 13  1  0  0  0  0
 12 20  2  0  0  0  0
 13 23  2  0  0  0  0
 14 19  2  0  0  0  0
 14 23  1  0  0  0  0
 15 19  1  0  0  0  0
 16 17  1  0  0  0  0
 16 18  1  0  0  0  0
 17 21  1  0  0  0  0
 18 22  1  0  0  0  0
 20 23  1  0  0  0  0
  2 24  1  0  0  0  0
  3 25  1  0  0  0  0
  4 26  1  0  0  0  0
  6 27  1  0  0  0  0
  7 28  1  0  0  0  0
  8 29  1  0  0  0  0
  8 30  1  0  0  0  0
  8 31  1  0  0  0  0
  9 32  1  0  0  0  0
  9 33  1  0  0  0  0
 10 34  1  0  0  0  0
 11 35  1  0  0  0  0
 12 36  1  0  0  0  0
 13 37  1  0  0  0  0
 14 38  1  0  0  0  0
 16 39  1  0  0  0  0
 17 40  1  0  0  0  0
 18 41  1  0  0  0  0
 21 42  1  0  0  0  0
 22 43  1  0  0  0  0
M  END
> <pdb_id>
2ZX8

> <uniprot_id>
Q9WYE2

> <usmiles>
O=C(NC[C@H]1N[C@H]([C@@H](O)[C@@H](O)[C@@H]1O)C)C=2Oc3c(cccc3)C2

$$$$
ZXD_B_902
          07202400433D 1   1.00000     0.00000     0
            
 29 29  0  0  0  0            999 V2000
   -3.3931   25.7620   24.3587 O   0  0  0  0  0  0  0  0  0  0  0  0
   -2.3892   27.2328   22.1997 O   0  0  0  0  0  0  0  0  0  0  0  0
    0.2940   27.0368   22.9470 O   0  0  0  0  0  0  0  0  0  0  0  0
   -0.2064   27.0249   25.7770 N   0  0  0  0  0  0  0  0  0  0  0  0
    1.4935   29.3942   26.5644 C   0  0  0  0  0  0  0  0  0  0  0  0
    2.3740   27.7989   24.8761 C   0  0  0  0  0  0  0  0  0  0  0  0
   -1.5850   26.5181   25.8075 C   0  0  0  0  0  0  0  0  0  0  0  0
   -2.0423   26.2283   24.3723 C   0  0  2  0  0  0  0  0  0  0  0  0
   -1.9718   27.5066   23.5390 C   0  0  1  0  0  0  0  0  0  0  0  0
   -0.5335   28.0272   23.5590 C   0  0  1  0  0  0  0  0  0  0  0  0
    1.2995   28.8568   25.1423 C   0  0  0  0  0  0  0  0  0  0  0  0
   -0.1138   28.2801   25.0106 C   0  0  2  0  0  0  0  0  0  0  0  0
   -3.6729   25.5788   23.4163 H   0  0  0  0  0  0  0  0  0  0  0  0
   -2.3417   28.0718   21.6577 H   0  0  0  0  0  0  0  0  0  0  0  0
    1.2436   27.3503   22.9456 H   0  0  0  0  0  0  0  0  0  0  0  0
    0.3834   26.3389   25.3509 H   0  0  0  0  0  0  0  0  0  0  0  0
    0.7991   30.0877   26.7562 H   0  0  0  0  0  0  0  0  0  0  0  0
    1.4049   28.6437   27.2193 H   0  0  0  0  0  0  0  0  0  0  0  0
    2.4030   29.8018   26.6455 H   0  0  0  0  0  0  0  0  0  0  0  0
    2.2628   27.4363   23.9508 H   0  0  0  0  0  0  0  0  0  0  0  0
    3.2795   28.2138   24.9649 H   0  0  0  0  0  0  0  0  0  0  0  0
    2.2814   27.0557   25.5387 H   0  0  0  0  0  0  0  0  0  0  0  0
   -2.1854   27.2040   26.2187 H   0  0  0  0  0  0  0  0  0  0  0  0
   -1.6212   25.6770   26.3472 H   0  0  0  0  0  0  0  0  0  0  0  0
   -1.4469   25.5343   23.9675 H   0  0  0  0  0  0  0  0  0  0  0  0
   -2.5772   28.1947   23.9390 H   0  0  0  0  0  0  0  0  0  0  0  0
   -0.4774   28.8798   23.0395 H   0  0  0  0  0  0  0  0  0  0  0  0
    1.4095   29.6071   24.4904 H   0  0  0  0  0  0  0  0  0  0  0  0
   -0.7550   28.9356   25.4095 H   0  0  0  0  0  0  0  0  0  0  0  0
  1  8  1  0  0  0  0
  2  9  1  0  0  0  0
  3 10  1  0  0  0  0
  4  7  1  0  0  0  0
  4 12  1  0  0  0  0
  5 11  1  0  0  0  0
  6 11  1  0  0  0  0
  7  8  1  0  0  0  0
  8  9  1  0  0  0  0
  9 10  1  0  0  0  0
 10 12  1  0  0  0  0
 11 12  1  0  0  0  0
  1 13  1  0  0  0  0
  2 14  1  0  0  0  0
  3 15  1  0  0  0  0
  4 16  1  0  0  0  0
  5 17  1  0  0  0  0
  5 18  1  0  0  0  0
  5 19  1  0  0  0  0
  6 20  1  0  0  0  0
  6 21  1  0  0  0  0
  6 22  1  0  0  0  0
  7 23  1  0  0  0  0
  7 24  1  0  0  0  0
  8 25  1  0  0  0  0
  9 26  1  0  0  0  0
 10 27  1  0  0  0  0
 11 28  1  0  0  0  0
 12 29  1  0  0  0  0
M  END
> <pdb_id>
2ZXD

> <uniprot_id>
Q9WYE2

> <usmiles>
O[C@H]1[C@@H](O)[C@H](O)CN[C@H]1C(C)C

$$$$
ZXZ_A_233
          07202402453D 1   1.00000     0.00000     0
            
 24 25  0  0  0  0            999 V2000
   -5.2685   10.4012   14.5770 O   0  0  0  0  0  0  0  0  0  0  0  0
   -4.7429    8.2665   15.1065 N   0  0  0  0  0  0  0  0  0  0  0  0
   -5.8512    7.7357   14.3179 C   0  0  0  0  0  0  0  0  0  0  0  0
   -1.4260    9.9401   17.3920 C   0  0  0  0  0  0  0  0  0  0  0  0
   -3.0719    5.0779   16.4242 C   0  0  0  0  0  0  0  0  0  0  0  0
   -2.0218    5.6808   17.1802 C   0  0  0  0  0  0  0  0  0  0  0  0
   -3.9567    5.9244   15.7232 C   0  0  0  0  0  0  0  0  0  0  0  0
   -1.8501    7.0634   17.2295 C   0  0  0  0  0  0  0  0  0  0  0  0
   -3.4932   10.2057   15.9474 C   0  0  0  0  0  0  0  0  0  0  0  0
   -4.5024    9.6463   15.1722 C   0  0  0  0  0  0  0  0  0  0  0  0
   -3.8272    7.3328   15.7645 C   0  0  0  0  0  0  0  0  0  0  0  0
   -2.5840    9.3861   16.5898 C   0  0  0  0  0  0  0  0  0  0  0  0
   -2.7309    7.9111   16.5106 C   0  0  0  0  0  0  0  0  0  0  0  0
   -5.8646    6.7384   14.3910 H   0  0  0  0  0  0  0  0  0  0  0  0
   -6.7134    8.1068   14.6627 H   0  0  0  0  0  0  0  0  0  0  0  0
   -5.7346    7.9982   13.3601 H   0  0  0  0  0  0  0  0  0  0  0  0
   -0.8921    9.1848   17.7720 H   0  0  0  0  0  0  0  0  0  0  0  0
   -0.8433   10.4940   16.7973 H   0  0  0  0  0  0  0  0  0  0  0  0
   -1.7775   10.5076   18.1366 H   0  0  0  0  0  0  0  0  0  0  0  0
   -3.1773    4.0840   16.3923 H   0  0  0  0  0  0  0  0  0  0  0  0
   -1.3912    5.0947   17.6890 H   0  0  0  0  0  0  0  0  0  0  0  0
   -4.6943    5.5186   15.1835 H   0  0  0  0  0  0  0  0  0  0  0  0
   -1.1071    7.4568   17.7709 H   0  0  0  0  0  0  0  0  0  0  0  0
   -3.4250   11.1991   16.0401 H   0  0  0  0  0  0  0  0  0  0  0  0
  1 10  2  0  0  0  0
  2  3  1  0  0  0  0
  2 10  1  0  0  0  0
  2 11  1  0  0  0  0
  4 12  1  0  0  0  0
  5  6  2  0  0  0  0
  5  7  1  0  0  0  0
  6  8  1  0  0  0  0
  7 11  2  0  0  0  0
  8 13  2  0  0  0  0
  9 10  1  0  0  0  0
  9 12  2  0  0  0  0
 11 13  1  0  0  0  0
 12 13  1  0  0  0  0
  3 14  1  0  0  0  0
  3 15  1  0  0  0  0
  3 16  1  0  0  0  0
  4 17  1  0  0  0  0
  4 18  1  0  0  0  0
  4 19  1  0  0  0  0
  5 20  1  0  0  0  0
  6 21  1  0  0  0  0
  7 22  1  0  0  0  0
  8 23  1  0  0  0  0
  9 24  1  0  0  0  0
M  END
> <pdb_id>
3NHW

> <uniprot_id>
P16083

> <usmiles>
O=C1N(c2c(cccc2)C(=C1)C)C

$$$$
ZY5_C_301
          07192418013D 1   1.00000     0.00000     0
            
 40 42  0  0  0  0            999 V2000
   20.5728  -23.7793   -0.7230 O   0  0  0  0  0  0  0  0  0  0  0  0
   19.2574  -21.1899    3.0894 O   0  0  0  0  0  0  0  0  0  0  0  0
   15.3937  -19.7133    7.0945 N   0  0  0  0  0  0  0  0  0  0  0  0
   13.5121  -22.5311    4.6025 N   0  0  0  0  0  0  0  0  0  0  0  0
   20.5500  -20.5285    3.1172 C   0  0  0  0  0  0  0  0  0  0  0  0
   16.3400  -20.2691    7.8655 C   0  0  0  0  0  0  0  0  0  0  0  0
   12.7065  -23.2020    3.6246 C   0  0  0  0  0  0  0  0  0  0  0  0
   14.9010  -20.3740    6.0456 C   0  0  0  0  0  0  0  0  0  0  0  0
   16.8526  -21.5309    7.5716 C   0  0  0  0  0  0  0  0  0  0  0  0
   13.5502  -24.3405    3.1016 C   0  0  0  0  0  0  0  0  0  0  0  0
   18.4349  -24.1112    0.2615 C   0  0  0  0  0  0  0  0  0  0  0  0
   16.3528  -22.2300    6.4846 C   0  0  0  0  0  0  0  0  0  0  0  0
   14.8349  -23.8130    2.4905 C   0  0  0  0  0  0  0  0  0  0  0  0
   17.4941  -23.7819    1.2314 C   0  0  0  0  0  0  0  0  0  0  0  0
   19.9260  -22.4962    1.1836 C   0  0  0  0  0  0  0  0  0  0  0  0
   16.8029  -22.4207    3.2772 C   0  0  0  0  0  0  0  0  0  0  0  0
   19.6496  -23.4738    0.2358 C   0  0  0  0  0  0  0  0  0  0  0  0
   18.9716  -22.1476    2.1521 C   0  0  0  0  0  0  0  0  0  0  0  0
   14.7830  -22.3461    4.5561 C   0  0  0  0  0  0  0  0  0  0  0  0
   15.3739  -21.6298    5.7045 C   0  0  0  0  0  0  0  0  0  0  0  0
   17.7533  -22.8048    2.1937 C   0  0  0  0  0  0  0  0  0  0  0  0
   15.5375  -22.8593    3.4307 C   0  0  0  0  0  0  0  0  0  0  0  0
   21.4558  -23.3099   -0.7345 H   0  0  0  0  0  0  0  0  0  0  0  0
   20.5695  -19.8662    3.8662 H   0  0  0  0  0  0  0  0  0  0  0  0
   21.2697  -21.2089    3.2551 H   0  0  0  0  0  0  0  0  0  0  0  0
   20.7008  -20.0549    2.2494 H   0  0  0  0  0  0  0  0  0  0  0  0
   16.6824  -19.7711    8.6622 H   0  0  0  0  0  0  0  0  0  0  0  0
   12.4682  -22.5763    2.8818 H   0  0  0  0  0  0  0  0  0  0  0  0
   11.8702  -23.5538    4.0452 H   0  0  0  0  0  0  0  0  0  0  0  0
   14.1778  -19.9552    5.4963 H   0  0  0  0  0  0  0  0  0  0  0  0
   17.5737  -21.9279    8.1393 H   0  0  0  0  0  0  0  0  0  0  0  0
   13.0347  -24.8389    2.4047 H   0  0  0  0  0  0  0  0  0  0  0  0
   13.7738  -24.9578    3.8559 H   0  0  0  0  0  0  0  0  0  0  0  0
   18.2256  -24.8139   -0.4185 H   0  0  0  0  0  0  0  0  0  0  0  0
   16.6897  -23.1461    6.2670 H   0  0  0  0  0  0  0  0  0  0  0  0
   14.6184  -23.3326    1.6406 H   0  0  0  0  0  0  0  0  0  0  0  0
   15.4421  -24.5826    2.2931 H   0  0  0  0  0  0  0  0  0  0  0  0
   16.6132  -24.2553    1.2395 H   0  0  0  0  0  0  0  0  0  0  0  0
   20.8139  -22.0363    1.1758 H   0  0  0  0  0  0  0  0  0  0  0  0
   17.1388  -21.7713    3.9595 H   0  0  0  0  0  0  0  0  0  0  0  0
  1 17  1  0  0  0  0
  2  5  1  0  0  0  0
  2 18  1  0  0  0  0
  3  6  2  0  0  0  0
  3  8  1  0  0  0  0
  4  7  1  0  0  0  0
  4 19  2  0  0  0  0
  6  9  1  0  0  0  0
  7 10  1  0  0  0  0
  8 20  2  0  0  0  0
  9 12  2  0  0  0  0
 10 13  1  0  0  0  0
 11 14  1  0  0  0  0
 11 17  2  0  0  0  0
 12 20  1  0  0  0  0
 13 22  1  0  0  0  0
 14 21  2  0  0  0  0
 15 17  1  0  0  0  0
 15 18  2  0  0  0  0
 16 21  1  0  0  0  0
 16 22  2  0  0  0  0
 18 21  1  0  0  0  0
 19 20  1  0  0  0  0
 19 22  1  0  0  0  0
  1 23  1  0  0  0  0
  5 24  1  0  0  0  0
  5 25  1  0  0  0  0
  5 26  1  0  0  0  0
  6 27  1  0  0  0  0
  7 28  1  0  0  0  0
  7 29  1  0  0  0  0
  8 30  1  0  0  0  0
  9 31  1  0  0  0  0
 10 32  1  0  0  0  0
 10 33  1  0  0  0  0
 11 34  1  0  0  0  0
 12 35  1  0  0  0  0
 13 36  1  0  0  0  0
 13 37  1  0  0  0  0
 14 38  1  0  0  0  0
 15 39  1  0  0  0  0
 16 40  1  0  0  0  0
M  END
> <pdb_id>
2WN9

> <uniprot_id>
Q8WSF8

> <usmiles>
O(c1c(ccc(O)c1)/C=C\2/C(=NCCC2)c3cnccc3)C

$$$$
ZY7_C_301
          07192418013D 1   1.00000     0.00000     0
            
 43 45  0  0  0  0            999 V2000
   23.2464  -20.9352    3.9602 O   0  0  0  0  0  0  0  0  0  0  0  0
   20.1985  -20.9978    7.6932 O   0  0  0  0  0  0  0  0  0  0  0  0
   14.9751  -18.9451    8.2336 N   0  0  0  0  0  0  0  0  0  0  0  0
   14.6672  -22.4248    5.5839 N   0  0  0  0  0  0  0  0  0  0  0  0
   24.3994  -21.3062    4.7244 C   0  0  0  0  0  0  0  0  0  0  0  0
   20.7909  -22.0420    8.4708 C   0  0  0  0  0  0  0  0  0  0  0  0
   15.0743  -19.4644    9.4743 C   0  0  0  0  0  0  0  0  0  0  0  0
   14.4453  -23.0062    4.2769 C   0  0  0  0  0  0  0  0  0  0  0  0
   15.1542  -19.7008    7.1405 C   0  0  0  0  0  0  0  0  0  0  0  0
   15.3882  -20.8122    9.6728 C   0  0  0  0  0  0  0  0  0  0  0  0
   15.7963  -23.4966    3.8204 C   0  0  0  0  0  0  0  0  0  0  0  0
   20.9158  -21.2050    3.6144 C   0  0  0  0  0  0  0  0  0  0  0  0
   15.5782  -21.6029    8.5396 C   0  0  0  0  0  0  0  0  0  0  0  0
   16.8028  -22.3660    3.8651 C   0  0  0  0  0  0  0  0  0  0  0  0
   19.5945  -21.3001    4.0482 C   0  0  0  0  0  0  0  0  0  0  0  0
   21.7320  -20.9443    5.8683 C   0  0  0  0  0  0  0  0  0  0  0  0
   17.9389  -21.3837    5.9515 C   0  0  0  0  0  0  0  0  0  0  0  0
   21.9624  -21.0360    4.4955 C   0  0  0  0  0  0  0  0  0  0  0  0
   20.4272  -21.0487    6.3565 C   0  0  0  0  0  0  0  0  0  0  0  0
   15.6430  -21.8572    6.0466 C   0  0  0  0  0  0  0  0  0  0  0  0
   15.4712  -21.0438    7.2833 C   0  0  0  0  0  0  0  0  0  0  0  0
   19.3116  -21.2660    5.4106 C   0  0  0  0  0  0  0  0  0  0  0  0
   16.8742  -21.8739    5.2966 C   0  0  0  0  0  0  0  0  0  0  0  0
   25.2229  -21.1651    4.1750 H   0  0  0  0  0  0  0  0  0  0  0  0
   24.4482  -20.7426    5.5490 H   0  0  0  0  0  0  0  0  0  0  0  0
   24.3321  -22.2699    4.9828 H   0  0  0  0  0  0  0  0  0  0  0  0
   20.5618  -21.9104    9.4352 H   0  0  0  0  0  0  0  0  0  0  0  0
   20.4407  -22.9266    8.1627 H   0  0  0  0  0  0  0  0  0  0  0  0
   21.7842  -22.0191    8.3580 H   0  0  0  0  0  0  0  0  0  0  0  0
   14.9204  -18.8745   10.2669 H   0  0  0  0  0  0  0  0  0  0  0  0
   14.0909  -22.3181    3.6437 H   0  0  0  0  0  0  0  0  0  0  0  0
   13.7994  -23.7672    4.3378 H   0  0  0  0  0  0  0  0  0  0  0  0
   15.0600  -19.2994    6.2295 H   0  0  0  0  0  0  0  0  0  0  0  0
   15.4734  -21.1949   10.5927 H   0  0  0  0  0  0  0  0  0  0  0  0
   15.7247  -23.8388    2.8835 H   0  0  0  0  0  0  0  0  0  0  0  0
   16.1009  -24.2346    4.4225 H   0  0  0  0  0  0  0  0  0  0  0  0
   21.1102  -21.2610    2.6351 H   0  0  0  0  0  0  0  0  0  0  0  0
   15.7920  -22.5749    8.6380 H   0  0  0  0  0  0  0  0  0  0  0  0
   16.5087  -21.6234    3.2634 H   0  0  0  0  0  0  0  0  0  0  0  0
   17.7002  -22.6964    3.5727 H   0  0  0  0  0  0  0  0  0  0  0  0
   18.8531  -21.3925    3.3835 H   0  0  0  0  0  0  0  0  0  0  0  0
   22.4957  -20.8046    6.4986 H   0  0  0  0  0  0  0  0  0  0  0  0
   17.7910  -21.0697    6.8894 H   0  0  0  0  0  0  0  0  0  0  0  0
  1  5  1  0  0  0  0
  1 18  1  0  0  0  0
  2  6  1  0  0  0  0
  2 19  1  0  0  0  0
  3  7  2  0  0  0  0
  3  9  1  0  0  0  0
  4  8  1  0  0  0  0
  4 20  2  0  0  0  0
  7 10  1  0  0  0  0
  8 11  1  0  0  0  0
  9 21  2  0  0  0  0
 10 13  2  0  0  0  0
 11 14  1  0  0  0  0
 12 15  1  0  0  0  0
 12 18  2  0  0  0  0
 13 21  1  0  0  0  0
 14 23  1  0  0  0  0
 15 22  2  0  0  0  0
 16 18  1  0  0  0  0
 16 19  2  0  0  0  0
 17 22  1  0  0  0  0
 17 23  2  0  0  0  0
 19 22  1  0  0  0  0
 20 21  1  0  0  0  0
 20 23  1  0  0  0  0
  5 24  1  0  0  0  0
  5 25  1  0  0  0  0
  5 26  1  0  0  0  0
  6 27  1  0  0  0  0
  6 28  1  0  0  0  0
  6 29  1  0  0  0  0
  7 30  1  0  0  0  0
  8 31  1  0  0  0  0
  8 32  1  0  0  0  0
  9 33  1  0  0  0  0
 10 34  1  0  0  0  0
 11 35  1  0  0  0  0
 11 36  1  0  0  0  0
 12 37  1  0  0  0  0
 13 38  1  0  0  0  0
 14 39  1  0  0  0  0
 14 40  1  0  0  0  0
 15 41  1  0  0  0  0
 16 42  1  0  0  0  0
 17 43  1  0  0  0  0
M  END
> <pdb_id>
2WNJ

> <uniprot_id>
Q8WSF8

> <usmiles>
O(c1c(ccc(OC)c1)/C=C\2/C(=NCCC2)c3cnccc3)C

$$$$
ZYH_A_304
          07202401193D 1   1.00000     0.00000     0
            
 63 68  0  0  0  0            999 V2000
  -12.8940   20.8220   -4.9860 O   0  0  0  0  0  0  0  0  0  0  0  0
   -7.7070   19.3750   -5.1310 O   0  0  0  0  0  0  0  0  0  0  0  0
  -16.4940   19.2310  -14.3140 N   0  0  0  0  0  0  0  0  0  0  0  0
  -18.6490   19.6420  -13.2840 N   0  0  0  0  0  0  0  0  0  0  0  0
   -6.7570   20.5930   -6.7650 N   0  0  0  0  0  0  0  0  0  0  0  0
  -16.6010   20.2620  -12.2430 N   0  0  0  0  0  0  0  0  0  0  0  0
  -13.1870   20.6870   -7.1920 N   0  0  0  0  0  0  0  0  0  0  0  0
  -15.1290   20.4600   -9.8480 N   0  0  0  0  0  0  0  0  0  0  0  0
  -17.1490   18.6660  -15.3150 C   0  0  0  0  0  0  0  0  0  0  0  0
  -19.2390   19.0490  -14.3440 C   0  0  0  0  0  0  0  0  0  0  0  0
  -18.5180   18.5320  -15.3840 C   0  0  0  0  0  0  0  0  0  0  0  0
   -8.9980   21.5270   -7.6330 C   0  0  0  0  0  0  0  0  0  0  0  0
  -10.3850   21.4620   -7.3850 C   0  0  0  0  0  0  0  0  0  0  0  0
  -10.1100   19.9530   -5.4880 C   0  0  0  0  0  0  0  0  0  0  0  0
  -15.1860   20.5900  -12.2890 C   0  0  0  0  0  0  0  0  0  0  0  0
  -17.3060   20.7080  -10.9980 C   0  0  0  0  0  0  0  0  0  0  0  0
  -14.5170   19.9880  -11.0920 C   0  0  0  0  0  0  0  0  0  0  0  0
  -16.5730   20.2070   -9.7740 C   0  0  0  0  0  0  0  0  0  0  0  0
  -14.6700   20.6010   -7.3120 C   0  0  0  0  0  0  0  0  0  0  0  0
  -12.9320   20.2310   -8.5750 C   0  0  0  0  0  0  0  0  0  0  0  0
   -2.5000   19.4340   -4.4520 C   0  0  0  0  0  0  0  0  0  0  0  0
   -2.8210   18.7790   -5.7760 C   0  0  0  0  0  0  0  0  0  0  0  0
   -3.6050   19.0990   -3.4400 C   0  0  0  0  0  0  0  0  0  0  0  0
   -4.1780   19.2390   -6.3000 C   0  0  0  0  0  0  0  0  0  0  0  0
   -4.9790   19.6090   -3.9510 C   0  0  0  0  0  0  0  0  0  0  0  0
  -17.2850   19.7100  -13.3360 C   0  0  0  0  0  0  0  0  0  0  0  0
  -12.4020   20.7480   -6.1150 C   0  0  0  0  0  0  0  0  0  0  0  0
   -6.5480   19.7470   -5.8030 C   0  0  0  0  0  0  0  0  0  0  0  0
   -8.7670   20.0340   -5.7800 C   0  0  0  0  0  0  0  0  0  0  0  0
   -8.1690   20.7870   -6.7840 C   0  0  0  0  0  0  0  0  0  0  0  0
  -10.9200   20.7120   -6.3120 C   0  0  0  0  0  0  0  0  0  0  0  0
  -14.4350   19.9150   -8.6930 C   0  0  0  0  0  0  0  0  0  0  0  0
   -5.2880   19.0460   -5.2970 C   0  0  0  0  0  0  0  0  0  0  0  0
  -16.5450   18.2610  -16.1350 H   0  0  0  0  0  0  0  0  0  0  0  0
  -20.3290   18.9960  -14.3550 H   0  0  0  0  0  0  0  0  0  0  0  0
  -19.0140   18.0360  -16.2250 H   0  0  0  0  0  0  0  0  0  0  0  0
   -8.5670   22.1280   -8.4320 H   0  0  0  0  0  0  0  0  0  0  0  0
  -11.0500   22.0940   -7.9810 H   0  0  0  0  0  0  0  0  0  0  0  0
  -10.4850   19.3540   -4.6720 H   0  0  0  0  0  0  0  0  0  0  0  0
  -15.0160   21.6870  -12.3210 H   0  0  0  0  0  0  0  0  0  0  0  0
  -14.7400   20.2230  -13.2380 H   0  0  0  0  0  0  0  0  0  0  0  0
  -18.3730   20.4150  -10.9890 H   0  0  0  0  0  0  0  0  0  0  0  0
  -17.3180   21.8230  -10.9360 H   0  0  0  0  0  0  0  0  0  0  0  0
  -13.4260   20.1830  -11.1000 H   0  0  0  0  0  0  0  0  0  0  0  0
  -14.5890   18.8800  -11.1440 H   0  0  0  0  0  0  0  0  0  0  0  0
  -16.7410   19.1220   -9.6250 H   0  0  0  0  0  0  0  0  0  0  0  0
  -17.0230   20.6430   -8.8450 H   0  0  0  0  0  0  0  0  0  0  0  0
  -15.1940   19.9230   -6.5900 H   0  0  0  0  0  0  0  0  0  0  0  0
  -15.2830   21.5240   -7.3660 H   0  0  0  0  0  0  0  0  0  0  0  0
  -12.5960   21.0720   -9.2050 H   0  0  0  0  0  0  0  0  0  0  0  0
  -12.2850   19.3620   -8.7460 H   0  0  0  0  0  0  0  0  0  0  0  0
   -1.4890   19.1660   -4.0920 H   0  0  0  0  0  0  0  0  0  0  0  0
   -2.4330   20.5420   -4.5780 H   0  0  0  0  0  0  0  0  0  0  0  0
   -2.7420   17.6690   -5.7080 H   0  0  0  0  0  0  0  0  0  0  0  0
   -2.0230   19.0090   -6.5210 H   0  0  0  0  0  0  0  0  0  0  0  0
   -3.6040   18.0120   -3.2030 H   0  0  0  0  0  0  0  0  0  0  0  0
   -3.3530   19.5420   -2.4450 H   0  0  0  0  0  0  0  0  0  0  0  0
   -4.4080   18.6920   -7.2400 H   0  0  0  0  0  0  0  0  0  0  0  0
   -4.1100   20.3070   -6.5940 H   0  0  0  0  0  0  0  0  0  0  0  0
   -5.7750   19.3750   -3.2140 H   0  0  0  0  0  0  0  0  0  0  0  0
   -4.9440   20.7130   -4.0230 H   0  0  0  0  0  0  0  0  0  0  0  0
  -14.5110   18.8010   -8.7550 H   0  0  0  0  0  0  0  0  0  0  0  0
   -5.4770   17.9480   -5.1980 H   0  0  0  0  0  0  0  0  0  0  0  0
  1 27  2  0  0  0  0
  2 28  1  0  0  0  0
  2 29  1  0  0  0  0
  3  9  2  0  0  0  0
  3 26  1  0  0  0  0
  4 10  1  0  0  0  0
  4 26  2  0  0  0  0
  5 28  2  0  0  0  0
  5 30  1  0  0  0  0
  6 15  1  0  0  0  0
  6 16  1  0  0  0  0
  6 26  1  0  0  0  0
  7 19  1  0  0  0  0
  7 20  1  0  0  0  0
  7 27  1  0  0  0  0
  8 17  1  0  0  0  0
  8 18  1  0  0  0  0
  8 32  1  0  0  0  0
  9 11  1  0  0  0  0
  9 34  1  0  0  0  0
 10 11  2  0  0  0  0
 10 35  1  0  0  0  0
 11 36  1  0  0  0  0
 12 13  1  0  0  0  0
 12 30  2  0  0  0  0
 12 37  1  0  0  0  0
 13 31  2  0  0  0  0
 13 38  1  0  0  0  0
 14 29  2  0  0  0  0
 14 31  1  0  0  0  0
 14 39  1  0  0  0  0
 15 17  1  0  0  0  0
 15 40  1  0  0  0  0
 15 41  1  0  0  0  0
 16 18  1  0  0  0  0
 16 42  1  0  0  0  0
 16 43  1  0  0  0  0
 17 44  1  0  0  0  0
 17 45  1  0  0  0  0
 18 46  1  0  0  0  0
 18 47  1  0  0  0  0
 19 32  1  0  0  0  0
 19 48  1  0  0  0  0
 19 49  1  0  0  0  0
 20 32  1  0  0  0  0
 20 50  1  0  0  0  0
 20 51  1  0  0  0  0
 21 22  1  0  0  0  0
 21 23  1  0  0  0  0
 21 52  1  0  0  0  0
 21 53  1  0  0  0  0
 22 24  1  0  0  0  0
 22 54  1  0  0  0  0
 22 55  1  0  0  0  0
 23 25  1  0  0  0  0
 23 56  1  0  0  0  0
 23 57  1  0  0  0  0
 24 33  1  0  0  0  0
 24 58  1  0  0  0  0
 24 59  1  0  0  0  0
 25 33  1  0  0  0  0
 25 60  1  0  0  0  0
 25 61  1  0  0  0  0
 27 31  1  0  0  0  0
 28 33  1  0  0  0  0
 29 30  1  0  0  0  0
 32 62  1  0  0  0  0
 33 63  1  0  0  0  0
M  END
> <pdb_id>
3PE6

> <uniprot_id>
Q6IBG9

> <usmiles>
O=C(N1CC(N2CCN(c3ncccn3)CC2)C1)c4cc5OC(=Nc5cc4)C6CCCCC6

$$$$
ZZ3_A_1226
          07192420423D 1   1.00000     0.00000     0
            
 18 18  0  0  0  0            999 V2000
   66.8486   36.0056   21.8099 S   0  0  0  0  0  0  0  0  0  0  0  0
   65.0618   33.2611   25.5645 N   0  0  0  0  0  0  0  0  0  0  0  0
   65.9775   34.5431   23.8304 N   0  0  0  0  0  0  0  0  0  0  0  0
   68.2802   34.9449   23.7613 N   0  0  0  0  0  0  0  0  0  0  0  0
   67.3688   33.6649   25.4928 N   0  0  0  0  0  0  0  0  0  0  0  0
   68.2871   36.9833   21.5274 C   0  0  0  0  0  0  0  0  0  0  0  0
   69.8135   34.0485   25.4848 C   0  0  0  0  0  0  0  0  0  0  0  0
   67.0495   35.1034   23.2299 C   0  0  0  0  0  0  0  0  0  0  0  0
   66.1370   33.8234   24.9623 C   0  0  0  0  0  0  0  0  0  0  0  0
   68.4398   34.2252   24.8922 C   0  0  0  0  0  0  0  0  0  0  0  0
   65.1799   32.7283   26.4025 H   0  0  0  0  0  0  0  0  0  0  0  0
   64.1500   33.3788   25.1712 H   0  0  0  0  0  0  0  0  0  0  0  0
   68.1688   37.5160   20.6894 H   0  0  0  0  0  0  0  0  0  0  0  0
   68.4256   37.6033   22.2997 H   0  0  0  0  0  0  0  0  0  0  0  0
   69.0831   36.3855   21.4329 H   0  0  0  0  0  0  0  0  0  0  0  0
   69.7500   33.4929   26.3138 H   0  0  0  0  0  0  0  0  0  0  0  0
   70.4063   33.5913   24.8217 H   0  0  0  0  0  0  0  0  0  0  0  0
   70.1961   34.9440   25.7122 H   0  0  0  0  0  0  0  0  0  0  0  0
  1  6  1  0  0  0  0
  1  8  1  0  0  0  0
  2  9  1  0  0  0  0
  3  8  1  0  0  0  0
  3  9  2  0  0  0  0
  4  8  2  0  0  0  0
  4 10  1  0  0  0  0
  5  9  1  0  0  0  0
  5 10  2  0  0  0  0
  7 10  1  0  0  0  0
  2 11  1  0  0  0  0
  2 12  1  0  0  0  0
  6 13  1  0  0  0  0
  6 14  1  0  0  0  0
  6 15  1  0  0  0  0
  7 16  1  0  0  0  0
  7 17  1  0  0  0  0
  7 18  1  0  0  0  0
M  END
> <pdb_id>
2WI2

> <uniprot_id>
P07900

> <usmiles>
S(c1nc(nc(n1)C)N)C

$$$$
ZZD_B_1365
          07202413333D 1   1.00000     0.00000     0
            
 47 49  0  0  0  0            999 V2000
   39.2457   -7.5804   20.9277 S   0  0  0  0  0  0  0  0  0  0  0  0
   38.0275   -6.4834   25.7446 O   0  0  0  0  0  0  0  0  0  0  0  0
   40.2296   -6.4987   25.3905 O   0  0  0  0  0  0  0  0  0  0  0  0
   37.3415   -7.4529   23.4894 N   0  0  0  0  0  0  0  0  0  0  0  0
   39.4201   -6.6730   22.5306 C   0  0  0  0  0  0  0  0  0  0  0  0
   40.5397   -8.3316   15.6529 C   0  0  0  0  0  0  0  0  0  0  0  0
   38.6239   -2.8435   20.0695 C   0  0  0  0  0  0  0  0  0  0  0  0
   44.4977   -6.9419   21.1069 C   0  0  0  0  0  0  0  0  0  0  0  0
   40.9149   -7.0084   15.9050 C   0  0  0  0  0  0  0  0  0  0  0  0
   40.1249   -9.1378   16.7182 C   0  0  0  0  0  0  0  0  0  0  0  0
   38.0341   -3.7969   19.2386 C   0  0  0  0  0  0  0  0  0  0  0  0
   39.7922   -3.1280   20.7693 C   0  0  0  0  0  0  0  0  0  0  0  0
   43.5252   -7.7498   21.6744 C   0  0  0  0  0  0  0  0  0  0  0  0
   44.1703   -6.0744   20.0707 C   0  0  0  0  0  0  0  0  0  0  0  0
   40.8328   -6.4957   17.2088 C   0  0  0  0  0  0  0  0  0  0  0  0
   40.0813   -8.6173   18.0267 C   0  0  0  0  0  0  0  0  0  0  0  0
   38.6189   -5.0507   19.1195 C   0  0  0  0  0  0  0  0  0  0  0  0
   40.3926   -4.3666   20.6047 C   0  0  0  0  0  0  0  0  0  0  0  0
   42.2059   -7.6816   21.2222 C   0  0  0  0  0  0  0  0  0  0  0  0
   42.8497   -5.9912   19.6292 C   0  0  0  0  0  0  0  0  0  0  0  0
   39.0440   -6.7263   25.0518 C   0  0  0  0  0  0  0  0  0  0  0  0
   38.7920   -7.4214   23.7024 C   0  0  1  0  0  0  0  0  0  0  0  0
   40.3898   -7.2847   18.2804 C   0  0  0  0  0  0  0  0  0  0  0  0
   39.8329   -5.3105   19.7593 C   0  0  0  0  0  0  0  0  0  0  0  0
   41.8590   -6.7930   20.2067 C   0  0  0  0  0  0  0  0  0  0  0  0
   40.3958   -6.7213   19.7185 C   0  0  0  0  0  0  0  0  0  0  0  0
   37.1177   -6.7000   25.3905 H   0  0  0  0  0  0  0  0  0  0  0  0
   36.9040   -7.9393   24.2457 H   0  0  0  0  0  0  0  0  0  0  0  0
   36.9904   -6.5175   23.4471 H   0  0  0  0  0  0  0  0  0  0  0  0
   38.9743   -5.7821   22.4440 H   0  0  0  0  0  0  0  0  0  0  0  0
   40.3933   -6.5418   22.7196 H   0  0  0  0  0  0  0  0  0  0  0  0
   40.5676   -8.6971   14.7225 H   0  0  0  0  0  0  0  0  0  0  0  0
   38.2006   -1.9424   20.1633 H   0  0  0  0  0  0  0  0  0  0  0  0
   45.4383   -6.9830   21.4438 H   0  0  0  0  0  0  0  0  0  0  0  0
   41.2409   -6.4289   15.1582 H   0  0  0  0  0  0  0  0  0  0  0  0
   39.8584  -10.0869   16.5504 H   0  0  0  0  0  0  0  0  0  0  0  0
   37.1986   -3.5793   18.7340 H   0  0  0  0  0  0  0  0  0  0  0  0
   40.1935   -2.4481   21.3829 H   0  0  0  0  0  0  0  0  0  0  0  0
   43.7687   -8.3829   22.4092 H   0  0  0  0  0  0  0  0  0  0  0  0
   44.8787   -5.5124   19.6437 H   0  0  0  0  0  0  0  0  0  0  0  0
   41.0962   -5.5460   17.3777 H   0  0  0  0  0  0  0  0  0  0  0  0
   39.8244   -9.2157   18.7856 H   0  0  0  0  0  0  0  0  0  0  0  0
   38.1731   -5.7638   18.5785 H   0  0  0  0  0  0  0  0  0  0  0  0
   41.2351   -4.5800   21.0993 H   0  0  0  0  0  0  0  0  0  0  0  0
   41.5083   -8.2720   21.6281 H   0  0  0  0  0  0  0  0  0  0  0  0
   42.6097   -5.3551   18.8960 H   0  0  0  0  0  0  0  0  0  0  0  0
   39.1474   -8.3555   23.7340 H   0  0  0  0  0  0  0  0  0  0  0  0
  1  5  1  0  0  0  0
  1 26  1  0  0  0  0
  2 21  1  0  0  0  0
  3 21  2  0  0  0  0
  4 22  1  0  0  0  0
  5 22  1  0  0  0  0
  6  9  2  0  0  0  0
  6 10  1  0  0  0  0
  7 11  2  0  0  0  0
  7 12  1  0  0  0  0
  8 13  2  0  0  0  0
  8 14  1  0  0  0  0
  9 15  1  0  0  0  0
 10 16  2  0  0  0  0
 11 17  1  0  0  0  0
 12 18  2  0  0  0  0
 13 19  1  0  0  0  0
 14 20  2  0  0  0  0
 15 23  2  0  0  0  0
 16 23  1  0  0  0  0
 17 24  2  0  0  0  0
 18 24  1  0  0  0  0
 19 25  2  0  0  0  0
 20 25  1  0  0  0  0
 21 22  1  0  0  0  0
 23 26  1  0  0  0  0
 24 26  1  0  0  0  0
 25 26  1  0  0  0  0
  2 27  1  0  0  0  0
  4 28  1  0  0  0  0
  4 29  1  0  0  0  0
  5 30  1  0  0  0  0
  5 31  1  0  0  0  0
  6 32  1  0  0  0  0
  7 33  1  0  0  0  0
  8 34  1  0  0  0  0
  9 35  1  0  0  0  0
 10 36  1  0  0  0  0
 11 37  1  0  0  0  0
 12 38  1  0  0  0  0
 13 39  1  0  0  0  0
 14 40  1  0  0  0  0
 15 41  1  0  0  0  0
 16 42  1  0  0  0  0
 17 43  1  0  0  0  0
 18 44  1  0  0  0  0
 19 45  1  0  0  0  0
 20 46  1  0  0  0  0
 22 47  1  0  0  0  0
M  END
> <pdb_id>
2WOG

> <uniprot_id>
P52732

> <usmiles>
S(C(c1ccccc1)(c2ccccc2)c3ccccc3)C[C@H](N)C(=O)O

$$$$
ZZF_A_1500
          07192421333D 1   1.00000     0.00000     0
            
 44 46  0  0  0  0            999 V2000
   23.9493   69.2348    5.2306 S   0  0  0  0  0  0  0  0  0  0  0  0
   24.2602   67.9128    5.7426 O   0  0  0  0  0  0  0  0  0  0  0  0
   24.7701   69.9487    4.2728 O   0  0  0  0  0  0  0  0  0  0  0  0
   16.2907   65.5841    4.3267 O   0  0  0  0  0  0  0  0  0  0  0  0
   23.7640   70.1021    6.3783 N   0  0  0  0  0  0  0  0  0  0  0  0
   16.6505   68.7601    1.6705 N   0  0  0  0  0  0  0  0  0  0  0  0
   12.9518   64.9829    5.6084 N   0  0  0  0  0  0  0  0  0  0  0  0
   18.9118   68.8747    2.0568 N   0  0  0  0  0  0  0  0  0  0  0  0
   11.2162   63.3894    5.0537 C   0  0  0  0  0  0  0  0  0  0  0  0
   14.5723   66.6612    6.3207 C   0  0  0  0  0  0  0  0  0  0  0  0
   15.4608   68.1971    1.9125 C   0  0  0  0  0  0  0  0  0  0  0  0
   15.2626   67.1459    2.7785 C   0  0  0  0  0  0  0  0  0  0  0  0
   22.4486   69.2125    2.9518 C   0  0  0  0  0  0  0  0  0  0  0  0
   21.2141   68.9344    4.9785 C   0  0  0  0  0  0  0  0  0  0  0  0
   14.6537   63.9672    3.6952 C   0  0  0  0  0  0  0  0  0  0  0  0
   13.3991   63.4225    3.8776 C   0  0  0  0  0  0  0  0  0  0  0  0
   21.2840   69.1269    2.2213 C   0  0  0  0  0  0  0  0  0  0  0  0
   20.0522   68.8560    4.2390 C   0  0  0  0  0  0  0  0  0  0  0  0
   17.6003   67.2035    3.2102 C   0  0  0  0  0  0  0  0  0  0  0  0
   22.4091   69.1168    4.3271 C   0  0  0  0  0  0  0  0  0  0  0  0
   16.3641   66.6440    3.4338 C   0  0  0  0  0  0  0  0  0  0  0  0
   15.0364   65.0239    4.4867 C   0  0  0  0  0  0  0  0  0  0  0  0
   17.7020   68.2601    2.3274 C   0  0  0  0  0  0  0  0  0  0  0  0
   12.5709   63.9557    4.8415 C   0  0  0  0  0  0  0  0  0  0  0  0
   14.1709   65.5123    5.4429 C   0  0  0  0  0  0  0  0  0  0  0  0
   20.0746   68.9468    2.8562 C   0  0  0  0  0  0  0  0  0  0  0  0
   23.5471   71.0269    6.0657 H   0  0  0  0  0  0  0  0  0  0  0  0
   23.0130   69.7554    6.9403 H   0  0  0  0  0  0  0  0  0  0  0  0
   18.9716   69.3326    1.1698 H   0  0  0  0  0  0  0  0  0  0  0  0
   11.0674   62.6334    4.4163 H   0  0  0  0  0  0  0  0  0  0  0  0
   11.1383   63.0541    5.9925 H   0  0  0  0  0  0  0  0  0  0  0  0
   10.5297   64.0991    4.8952 H   0  0  0  0  0  0  0  0  0  0  0  0
   15.5002   66.9512    6.0867 H   0  0  0  0  0  0  0  0  0  0  0  0
   13.9399   67.4233    6.1822 H   0  0  0  0  0  0  0  0  0  0  0  0
   14.5441   66.3746    7.2784 H   0  0  0  0  0  0  0  0  0  0  0  0
   14.6639   68.5642    1.4328 H   0  0  0  0  0  0  0  0  0  0  0  0
   14.3516   66.7609    2.9263 H   0  0  0  0  0  0  0  0  0  0  0  0
   23.3231   69.3440    2.4849 H   0  0  0  0  0  0  0  0  0  0  0  0
   21.1865   68.8595    5.9753 H   0  0  0  0  0  0  0  0  0  0  0  0
   15.2726   63.6003    3.0007 H   0  0  0  0  0  0  0  0  0  0  0  0
   13.0951   62.6515    3.3181 H   0  0  0  0  0  0  0  0  0  0  0  0
   21.3166   69.1958    1.2242 H   0  0  0  0  0  0  0  0  0  0  0  0
   19.1784   68.7315    4.7090 H   0  0  0  0  0  0  0  0  0  0  0  0
   18.4108   66.8515    3.6786 H   0  0  0  0  0  0  0  0  0  0  0  0
  1  2  2  0  0  0  0
  1  3  2  0  0  0  0
  1  5  1  0  0  0  0
  1 20  1  0  0  0  0
  4 21  1  0  0  0  0
  4 22  1  0  0  0  0
  6 11  2  0  0  0  0
  6 23  1  0  0  0  0
  7 24  2  0  0  0  0
  7 25  1  0  0  0  0
  8 23  1  0  0  0  0
  8 26  1  0  0  0  0
  9 24  1  0  0  0  0
 10 25  1  0  0  0  0
 11 12  1  0  0  0  0
 12 21  2  0  0  0  0
 13 17  1  0  0  0  0
 13 20  2  0  0  0  0
 14 18  2  0  0  0  0
 14 20  1  0  0  0  0
 15 16  2  0  0  0  0
 15 22  1  0  0  0  0
 16 24  1  0  0  0  0
 17 26  2  0  0  0  0
 18 26  1  0  0  0  0
 19 21  1  0  0  0  0
 19 23  2  0  0  0  0
 22 25  2  0  0  0  0
  5 27  1  0  0  0  0
  5 28  1  0  0  0  0
  8 29  1  0  0  0  0
  9 30  1  0  0  0  0
  9 31  1  0  0  0  0
  9 32  1  0  0  0  0
 10 33  1  0  0  0  0
 10 34  1  0  0  0  0
 10 35  1  0  0  0  0
 11 36  1  0  0  0  0
 12 37  1  0  0  0  0
 13 38  1  0  0  0  0
 14 39  1  0  0  0  0
 15 40  1  0  0  0  0
 16 41  1  0  0  0  0
 17 42  1  0  0  0  0
 18 43  1  0  0  0  0
 19 44  1  0  0  0  0
M  END
> <pdb_id>
2WOU

> <uniprot_id>
P36897

> <usmiles>
S(=O)(=O)(N)c1ccc(Nc2nccc(Oc3c(nc(cc3)C)C)c2)cc1

$$$$
ZZP_A_1500
          07192420163D 1   1.00000     0.00000     0
            
 51 54  0  0  0  0            999 V2000
  -10.2856  -50.4507   20.4248 S   0  0  0  0  0  0  0  0  0  0  0  0
  -13.6172  -54.3171   23.2896 F   0  0  0  0  0  0  0  0  0  0  0  0
   -9.3759  -51.1626   19.4917 O   0  0  0  0  0  0  0  0  0  0  0  0
  -11.1787  -49.4617   19.6733 O   0  0  0  0  0  0  0  0  0  0  0  0
   -6.3938  -45.8805   27.3679 O   0  0  0  0  0  0  0  0  0  0  0  0
   -3.6222  -49.2296   25.4333 O   0  0  0  0  0  0  0  0  0  0  0  0
   -9.3825  -49.6449   21.5685 N   0  0  0  0  0  0  0  0  0  0  0  0
   -7.9181  -48.5937   23.6462 N   0  0  0  0  0  0  0  0  0  0  0  0
  -11.2167  -48.4812   22.2918 N   0  0  0  0  0  0  0  0  0  0  0  0
   -9.8312  -47.3818   24.3500 N   0  0  0  0  0  0  0  0  0  0  0  0
   -7.7049  -45.3170   27.4971 C   0  0  0  0  0  0  0  0  0  0  0  0
   -3.6716  -50.4371   24.6102 C   0  0  0  0  0  0  0  0  0  0  0  0
  -13.8406  -46.4569   23.7964 C   0  0  0  0  0  0  0  0  0  0  0  0
  -13.1418  -45.8982   24.8578 C   0  0  0  0  0  0  0  0  0  0  0  0
  -12.6444  -51.7024   20.9736 C   0  0  0  0  0  0  0  0  0  0  0  0
  -10.7046  -52.4290   22.2418 C   0  0  0  0  0  0  0  0  0  0  0  0
  -13.4336  -52.6174   21.6584 C   0  0  0  0  0  0  0  0  0  0  0  0
  -11.4839  -53.3581   22.9314 C   0  0  0  0  0  0  0  0  0  0  0  0
  -13.1966  -47.3433   22.9253 C   0  0  0  0  0  0  0  0  0  0  0  0
  -11.7931  -46.2159   25.0514 C   0  0  0  0  0  0  0  0  0  0  0  0
   -5.0333  -47.5433   26.4149 C   0  0  0  0  0  0  0  0  0  0  0  0
   -7.2692  -47.1834   25.5162 C   0  0  0  0  0  0  0  0  0  0  0  0
   -5.8235  -48.8730   24.5591 C   0  0  0  0  0  0  0  0  0  0  0  0
  -11.2880  -51.6088   21.2722 C   0  0  0  0  0  0  0  0  0  0  0  0
  -12.8473  -53.4347   22.6350 C   0  0  0  0  0  0  0  0  0  0  0  0
   -6.2578  -46.8608   26.4334 C   0  0  0  0  0  0  0  0  0  0  0  0
   -4.8140  -48.5553   25.4692 C   0  0  0  0  0  0  0  0  0  0  0  0
   -9.9344  -48.7964   22.4393 C   0  0  0  0  0  0  0  0  0  0  0  0
   -9.2097  -48.2467   23.5070 C   0  0  0  0  0  0  0  0  0  0  0  0
   -7.0460  -48.1984   24.5725 C   0  0  0  0  0  0  0  0  0  0  0  0
  -11.8451  -47.6482   23.1302 C   0  0  0  0  0  0  0  0  0  0  0  0
  -11.1372  -47.0874   24.1847 C   0  0  0  0  0  0  0  0  0  0  0  0
   -8.3955  -49.8015   21.6043 H   0  0  0  0  0  0  0  0  0  0  0  0
   -7.5652  -49.2336   22.9635 H   0  0  0  0  0  0  0  0  0  0  0  0
   -7.6960  -44.6111   28.2054 H   0  0  0  0  0  0  0  0  0  0  0  0
   -7.9807  -44.9114   26.6257 H   0  0  0  0  0  0  0  0  0  0  0  0
   -8.3529  -46.0352   27.7505 H   0  0  0  0  0  0  0  0  0  0  0  0
   -2.7777  -50.8852   24.6218 H   0  0  0  0  0  0  0  0  0  0  0  0
   -4.3621  -51.0614   24.9754 H   0  0  0  0  0  0  0  0  0  0  0  0
   -3.9087  -50.1906   23.6706 H   0  0  0  0  0  0  0  0  0  0  0  0
  -14.8032  -46.2263   23.6542 H   0  0  0  0  0  0  0  0  0  0  0  0
  -13.6022  -45.2688   25.4838 H   0  0  0  0  0  0  0  0  0  0  0  0
  -13.0474  -51.1153   20.2716 H   0  0  0  0  0  0  0  0  0  0  0  0
   -9.7279  -52.3498   22.4413 H   0  0  0  0  0  0  0  0  0  0  0  0
  -14.4102  -52.6925   21.4568 H   0  0  0  0  0  0  0  0  0  0  0  0
  -11.0762  -53.9555   23.6220 H   0  0  0  0  0  0  0  0  0  0  0  0
  -13.6970  -47.7551   22.1637 H   0  0  0  0  0  0  0  0  0  0  0  0
  -11.2950  -45.8135   25.8194 H   0  0  0  0  0  0  0  0  0  0  0  0
   -4.3185  -47.3093   27.0740 H   0  0  0  0  0  0  0  0  0  0  0  0
   -8.1415  -46.6947   25.5345 H   0  0  0  0  0  0  0  0  0  0  0  0
   -5.6686  -49.5962   23.8860 H   0  0  0  0  0  0  0  0  0  0  0  0
  1  3  2  0  0  0  0
  1  4  2  0  0  0  0
  1  7  1  0  0  0  0
  1 24  1  0  0  0  0
  2 25  1  0  0  0  0
  5 11  1  0  0  0  0
  5 26  1  0  0  0  0
  6 12  1  0  0  0  0
  6 27  1  0  0  0  0
  7 28  1  0  0  0  0
  8 29  1  0  0  0  0
  8 30  1  0  0  0  0
  9 28  2  0  0  0  0
  9 31  1  0  0  0  0
 10 29  2  0  0  0  0
 10 32  1  0  0  0  0
 13 14  2  0  0  0  0
 13 19  1  0  0  0  0
 14 20  1  0  0  0  0
 15 17  2  0  0  0  0
 15 24  1  0  0  0  0
 16 18  1  0  0  0  0
 16 24  2  0  0  0  0
 17 25  1  0  0  0  0
 18 25  2  0  0  0  0
 19 31  2  0  0  0  0
 20 32  2  0  0  0  0
 21 26  2  0  0  0  0
 21 27  1  0  0  0  0
 22 26  1  0  0  0  0
 22 30  2  0  0  0  0
 23 27  2  0  0  0  0
 23 30  1  0  0  0  0
 28 29  1  0  0  0  0
 31 32  1  0  0  0  0
  7 33  1  0  0  0  0
  8 34  1  0  0  0  0
 11 35  1  0  0  0  0
 11 36  1  0  0  0  0
 11 37  1  0  0  0  0
 12 38  1  0  0  0  0
 12 39  1  0  0  0  0
 12 40  1  0  0  0  0
 13 41  1  0  0  0  0
 14 42  1  0  0  0  0
 15 43  1  0  0  0  0
 16 44  1  0  0  0  0
 17 45  1  0  0  0  0
 18 46  1  0  0  0  0
 19 47  1  0  0  0  0
 20 48  1  0  0  0  0
 21 49  1  0  0  0  0
 22 50  1  0  0  0  0
 23 51  1  0  0  0  0
M  END
> <pdb_id>
2WXO

> <uniprot_id>
Q3UDT3

> <usmiles>
S(=O)(=O)(Nc1nc2c(nc1Nc3cc(OC)cc(OC)c3)cccc2)c4ccc(F)cc4

$$$$
ZZY_A_2347
          07202415303D 1   1.00000     0.00000     0
            
 34 36  0  0  0  0            999 V2000
   -0.9551  -14.1224   16.6584 S   0  0  0  0  0  0  0  0  0  0  0  0
   -0.0734  -13.3260   17.0791 O   0  0  0  0  0  0  0  0  0  0  0  0
   -1.4575  -13.5525   15.5883 O   0  0  0  0  0  0  0  0  0  0  0  0
    0.0493  -15.0373   19.7061 O   0  5  0  0  0  0  0  0  0  0  0  0
   -0.6262  -13.6833   21.0804 O   0  0  0  0  0  0  0  0  0  0  0  0
   -3.1239  -17.8458   11.5311 O   0  0  0  0  0  0  0  0  0  0  0  0
   -3.3975  -15.8510   12.4476 N   0  0  0  0  0  0  0  0  0  0  0  0
   -0.2842  -18.6032   14.6116 N   0  0  0  0  0  0  0  0  0  0  0  0
   -0.8619  -14.2726   20.0815 N   0  3  0  0  0  0  0  0  0  0  0  0
   -0.4302  -15.6422   16.3192 N   0  0  0  0  0  0  0  0  0  0  0  0
   -1.1805  -18.4606   13.5935 C   0  0  0  0  0  0  0  0  0  0  0  0
    0.4724  -16.3131   17.0111 C   0  0  0  0  0  0  0  0  0  0  0  0
   -4.6016  -14.0183   18.1922 C   0  0  0  0  0  0  0  0  0  0  0  0
   -4.4520  -14.0852   19.5504 C   0  0  0  0  0  0  0  0  0  0  0  0
   -3.5056  -14.0214   17.3648 C   0  0  0  0  0  0  0  0  0  0  0  0
    0.7103  -17.5578   16.5448 C   0  0  0  0  0  0  0  0  0  0  0  0
   -3.2278  -14.0537   20.1081 C   0  0  0  0  0  0  0  0  0  0  0  0
   -1.6867  -16.2879   14.3447 C   0  0  0  0  0  0  0  0  0  0  0  0
   -2.8412  -17.0678   12.3801 C   0  0  0  0  0  0  0  0  0  0  0  0
   -2.2232  -14.0968   17.8704 C   0  0  0  0  0  0  0  0  0  0  0  0
   -0.0886  -17.6188   15.4797 C   0  0  0  0  0  0  0  0  0  0  0  0
   -2.0949  -14.1462   19.3062 C   0  0  0  0  0  0  0  0  0  0  0  0
   -0.7738  -16.4544   15.3680 C   0  0  0  0  0  0  0  0  0  0  0  0
   -1.8901  -17.2948   13.4491 C   0  0  0  0  0  0  0  0  0  0  0  0
   -3.1345  -15.2208   13.1783 H   0  0  0  0  0  0  0  0  0  0  0  0
   -4.0756  -15.5727   11.7675 H   0  0  0  0  0  0  0  0  0  0  0  0
   -1.3216  -19.2108   12.9476 H   0  0  0  0  0  0  0  0  0  0  0  0
    0.9387  -15.9329   17.8099 H   0  0  0  0  0  0  0  0  0  0  0  0
   -5.5190  -13.9665   17.7977 H   0  0  0  0  0  0  0  0  0  0  0  0
   -5.2603  -14.1582   20.1345 H   0  0  0  0  0  0  0  0  0  0  0  0
   -3.6392  -13.9679   16.3752 H   0  0  0  0  0  0  0  0  0  0  0  0
    1.3283  -18.2559   16.9065 H   0  0  0  0  0  0  0  0  0  0  0  0
   -3.1325  -13.9636   21.0994 H   0  0  0  0  0  0  0  0  0  0  0  0
   -2.1964  -15.4316   14.2614 H   0  0  0  0  0  0  0  0  0  0  0  0
  1  2  2  0  0  0  0
  1  3  2  0  0  0  0
  1 10  1  0  0  0  0
  1 20  1  0  0  0  0
  4  9  1  0  0  0  0
  5  9  2  0  0  0  0
  6 19  2  0  0  0  0
  7 19  1  0  0  0  0
  8 11  1  0  0  0  0
  8 21  2  0  0  0  0
  9 22  1  0  0  0  0
 10 12  1  0  0  0  0
 10 23  1  0  0  0  0
 11 24  2  0  0  0  0
 12 16  2  0  0  0  0
 13 14  2  0  0  0  0
 13 15  1  0  0  0  0
 14 17  1  0  0  0  0
 15 20  2  0  0  0  0
 16 21  1  0  0  0  0
 17 22  2  0  0  0  0
 18 23  2  0  0  0  0
 18 24  1  0  0  0  0
 19 24  1  0  0  0  0
 20 22  1  0  0  0  0
 21 23  1  0  0  0  0
  7 25  1  0  0  0  0
  7 26  1  0  0  0  0
 11 27  1  0  0  0  0
 12 28  1  0  0  0  0
 13 29  1  0  0  0  0
 14 30  1  0  0  0  0
 15 31  1  0  0  0  0
 16 32  1  0  0  0  0
 17 33  1  0  0  0  0
 18 34  1  0  0  0  0
M  CHG  2   4  -1   9   1
M  END
> <pdb_id>
2WD1

> <uniprot_id>
P08581

> <usmiles>
S(=O)(=O)(N1c2c(ncc(c2)C(=O)N)C=C1)c3c([N+]([O-])=O)cccc3

$$$$
